ver_1.2
     RDKit          3D

 13 13  0  0  0  0  0  0  0  0999 V2000
    3.4944    1.4729    0.8492 C   0  0  0  0  0  0  0  0  0  0  0  0
    2.9212    0.1939    1.4264 C   0  0  0  0  0  0  0  0  0  0  0  0
    2.6836   -0.7327    0.2990 C   0  0  0  0  0  0  0  0  0  0  0  0
    1.4492   -1.1757    0.0611 C   0  0  0  0  0  0  0  0  0  0  0  0
    1.0108   -2.1200   -1.0351 C   0  0  0  0  0  0  0  0  0  0  0  0
   -0.2938   -1.4601   -1.4379 C   0  0  0  0  0  0  0  0  0  0  0  0
   -0.6363   -0.5343   -0.3671 N   0  0  0  0  0  0  0  0  0  0  0  0
   -1.5923    0.4837   -0.4658 C   0  0  0  0  0  0  0  0  0  0  0  0
   -2.2090    0.6146   -1.5660 O   0  0  0  0  0  0  0  0  0  0  0  0
   -1.8557    1.3716    0.7043 C   0  0  0  0  0  0  0  0  0  0  0  0
   -2.9085    2.3996    0.4119 C   0  0  0  0  0  0  0  0  0  0  0  0
   -2.2505    0.3431    2.1321 S   0  0  0  0  0  0  0  0  0  0  0  0
    0.1868   -0.8566    0.8102 C   0  0  0  0  0  0  0  0  0  0  0  0
  1  2  1  0
  2  3  1  0
  3  4  2  3
  4  5  1  0
  5  6  1  0
  6  7  1  0
  7  8  1  0
  8  9  2  0
  8 10  1  0
 10 11  1  0
 10 12  1  0
  7 13  1  0
 13  4  1  0
M  END
>  <ref_url>  (1) 
https://hippo.winokan.com

>  <submitter_name>  (1) 
Max Winokan

>  <submitter_email>  (1) 
max.winokan@diamond.ac.uk

>  <submitter_institution>  (1) 
DLS

>  <generation_date>  (1) 
2025-10-16

>  <method>  (1) 
openbind_a71ev2a_c1_elab_chemspace_filtered

>  <HIPPO Pose ID>  (1) 
HIPPO Pose ID

>  <HIPPO Compound ID>  (1) 
HIPPO Compound ID

>  <smiles>  (1) 
smiles

>  <ref_pdb>  (1) 
protein reference

>  <ref_mols>  (1) 
fragment inspirations

>  <alias>  (1) 
alias

>  <distance_score>  (1) 
distance_score

>  <energy_score>  (1) 
energy_score

>  <inspiration_score>  (1) 
inspiration_score

$$$$
P5840
     RDKit          3D

 19 21  0  0  0  0  0  0  0  0999 V2000
    8.2120   14.8205   26.6574 O   0  0  0  0  0  0  0  0  0  0  0  0
    7.2519   14.0684   26.6828 C   0  0  0  0  0  0  0  0  0  0  0  0
    6.0283   14.2882   27.5405 C   0  0  0  0  0  0  0  0  0  0  0  0
    5.0197   13.2919   27.0090 C   0  0  0  0  0  0  0  0  0  0  0  0
    5.8960   12.1780   26.5100 C   0  0  0  0  0  0  0  0  0  0  0  0
    7.0849   12.8442   26.0425 N   0  0  0  0  0  0  0  0  0  0  0  0
    8.1036   12.0512   25.3770 C   0  0  0  0  0  0  0  0  0  0  0  0
    9.1872   12.7761   24.6128 C   0  0  0  0  0  0  0  0  0  0  0  0
    8.7187   13.3182   23.2749 C   0  0  0  0  0  0  0  0  0  0  0  0
    7.6504   13.1722   22.8054 O   0  0  0  0  0  0  0  0  0  0  0  0
    9.9646   13.9692   22.6993 N   0  0  0  0  0  0  0  0  0  0  0  0
   10.2349   14.5297   21.3223 C   0  0  1  0  0  0  0  0  0  0  0  0
    9.3099   15.6156   20.8636 C   0  0  0  0  0  0  0  0  0  0  0  0
    9.1963   16.3624   22.1223 C   0  0  0  0  0  0  0  0  0  0  0  0
   10.0134   15.4556   23.0293 C   0  0  2  0  0  0  0  0  0  0  0  0
   11.4728   15.8698   23.2712 C   0  0  0  0  0  0  0  0  0  0  0  0
   12.2206   15.8793   21.9611 C   0  0  2  0  0  0  0  0  0  0  0  0
   11.9679   17.0594   21.3487 F   0  0  0  0  0  0  0  0  0  0  0  0
   11.7285   14.7595   21.0784 C   0  0  0  0  0  0  0  0  0  0  0  0
  1  2  2  0
  2  3  1  0
  3  4  1  0
  4  5  1  0
  5  6  1  0
  6  7  1  0
  7  8  1  0
  8  9  1  0
  9 10  2  0
  9 11  1  0
 11 12  1  0
 12 13  1  1
 13 14  1  0
 15 14  1  6
 15 16  1  0
 16 17  1  0
 17 18  1  6
 17 19  1  0
  6  2  1  0
 15 11  1  0
 19 12  1  0
M  END
>  <energy_score>  (1) 
19.687705

>  <inchikey>  (1) 
NDDWJXLQTNLSHN-UHFFFAOYSA-N

>  <smiles>  (1) 
O=C1CCCN1CCC(=O)N1[C@@H]2CC[C@H]1C[C@@H](F)C2

>  <ref_pdb>  (1) 
A4445b

>  <alias>  (1) 
None

>  <HIPPO Pose ID>  (1) 
5840

>  <name>  (1) 
P5840

>  <HIPPO Compound ID>  (1) 
31471

>  <ref_mols>  (1) 
A4445b,A0528a

>  <distance_score>  (1) 
1.853852

>  <inspiration_score>  (1) 
None

$$$$
P12401
     RDKit          3D

 24 26  0  0  0  0  0  0  0  0999 V2000
   19.5632    1.0171   19.9234 C   0  0  0  0  0  0  0  0  0  0  0  0
   19.8257    1.1915   21.4190 C   0  0  0  0  0  0  0  0  0  0  0  0
   21.2620    0.7757   21.7418 C   0  0  0  0  0  0  0  0  0  0  0  0
   18.8399    0.4047   22.2768 C   0  0  0  0  0  0  0  0  0  0  0  0
   17.4263    0.8764   22.1711 C   0  0  0  0  0  0  0  0  0  0  0  0
   16.5198    0.3317   21.3780 N   0  0  0  0  0  0  0  0  0  0  0  0
   15.2034    0.7731   21.8469 N   0  0  0  0  0  0  0  0  0  0  0  0
   15.3055    1.7036   22.8031 C   0  0  0  0  0  0  0  0  0  0  0  0
   14.3905    2.8616   23.3007 C   0  0  0  0  0  0  0  0  0  0  0  0
   12.6162    3.2695   22.7968 C   0  0  0  0  0  0  0  0  0  0  0  0
   11.7793    2.3766   22.6978 O   0  0  0  0  0  0  0  0  0  0  0  0
   11.8749    4.7840   22.5649 O   0  0  0  0  0  0  0  0  0  0  0  0
   10.4453    5.9128   23.2040 C   0  0  1  0  0  0  0  0  0  0  0  0
   11.3754    7.3059   23.6633 C   0  0  0  0  0  0  0  0  0  0  0  0
    9.4004    7.3976   22.9462 C   0  0  0  0  0  0  0  0  0  0  0  0
    9.6194    8.4677   22.0780 C   0  0  0  0  0  0  0  0  0  0  0  0
    9.6017    9.8045   22.5516 C   0  0  0  0  0  0  0  0  0  0  0  0
    9.0517   10.2490   23.6913 N   0  0  0  0  0  0  0  0  0  0  0  0
    8.5926    9.2799   24.4573 C   0  0  0  0  0  0  0  0  0  0  0  0
    8.8437    7.9385   24.1585 C   0  0  0  0  0  0  0  0  0  0  0  0
   15.2565    3.5559   24.1161 C   0  0  0  0  0  0  0  0  0  0  0  0
   16.5586    3.2770   24.6949 C   0  0  0  0  0  0  0  0  0  0  0  0
   17.3277    2.3828   24.1098 C   0  0  0  0  0  0  0  0  0  0  0  0
   16.7580    1.7151   23.0722 N   0  0  0  0  0  0  0  0  0  0  0  0
  1  2  1  0
  2  3  1  0
  2  4  1  0
  4  5  1  0
  5  6  2  0
  6  7  1  0
  7  8  2  0
  8  9  1  0
  9 10  1  0
 10 11  2  0
 10 12  1  0
 12 13  1  0
 13 14  1  1
 13 15  1  0
 15 16  2  0
 16 17  1  0
 17 18  2  0
 18 19  1  0
 19 20  2  0
  9 21  2  0
 21 22  1  0
 22 23  2  0
 23 24  1  0
 24  5  1  0
 24  8  1  0
 20 15  1  0
M  END
>  <energy_score>  (2) 
367.720342

>  <inchikey>  (2) 
CEZUNCADWGOBSF-UHFFFAOYSA-N

>  <smiles>  (2) 
CC(C)Cc1nnc2c(C(=O)O[C@@H](C)c3ccncc3)cccn12

>  <ref_pdb>  (2) 
A3194a

>  <alias>  (2) 
None

>  <HIPPO Pose ID>  (2) 
12401

>  <name>  (2) 
P12401

>  <HIPPO Compound ID>  (2) 
104497

>  <ref_mols>  (2) 
A1293a,A3194a

>  <distance_score>  (2) 
4.959837

>  <inspiration_score>  (2) 
None

$$$$
P20859
     RDKit          3D

 25 28  0  0  0  0  0  0  0  0999 V2000
   11.3008   20.8624   24.1781 O   0  0  0  0  0  0  0  0  0  0  0  0
   10.3644   20.4284   24.7865 C   0  0  0  0  0  0  0  0  0  0  0  0
    9.4254   18.7354   24.1874 C   0  0  0  0  0  0  0  0  0  0  0  0
    8.1863   18.2182   22.1641 S   0  0  0  0  0  0  0  0  0  0  0  0
    7.9863   16.5110   21.5883 C   0  0  0  0  0  0  0  0  0  0  0  0
    6.8143   16.0282   21.2056 N   0  0  0  0  0  0  0  0  0  0  0  0
    6.6486   14.8723   21.9272 C   0  0  0  0  0  0  0  0  0  0  0  0
    5.5342   14.5361   22.7179 C   0  0  0  0  0  0  0  0  0  0  0  0
    5.7180   13.6855   23.8101 C   0  0  0  0  0  0  0  0  0  0  0  0
    6.9053   12.9865   23.9710 C   0  0  0  0  0  0  0  0  0  0  0  0
    7.9592   13.1564   23.0634 C   0  0  0  0  0  0  0  0  0  0  0  0
    7.8481   14.1789   22.0980 C   0  0  0  0  0  0  0  0  0  0  0  0
    9.0349   15.1713   21.2115 S   0  0  0  0  0  0  0  0  0  0  0  0
    9.8127   20.9438   26.0708 N   0  0  0  0  0  0  0  0  0  0  0  0
    8.7306   21.9783   25.8054 C   0  0  0  0  0  0  0  0  0  0  0  0
    7.7933   22.4560   26.9718 C   0  0  0  0  0  0  0  0  0  0  0  0
    8.2129   21.9371   28.2826 N   0  0  0  0  0  0  0  0  0  0  0  0
    7.6220   20.7125   28.6501 C   0  0  0  0  0  0  0  0  0  0  0  0
    7.9367   20.1210   29.8792 C   0  0  0  0  0  0  0  0  0  0  0  0
    7.3539   18.9097   30.2543 C   0  0  0  0  0  0  0  0  0  0  0  0
    6.4353   18.3144   29.4082 C   0  0  0  0  0  0  0  0  0  0  0  0
    6.1357   18.9695   28.2310 C   0  0  0  0  0  0  0  0  0  0  0  0
    6.6992   20.1398   27.8495 N   0  0  0  0  0  0  0  0  0  0  0  0
    9.6766   21.9622   28.3973 C   0  0  0  0  0  0  0  0  0  0  0  0
   10.3013   22.0178   26.9922 C   0  0  0  0  0  0  0  0  0  0  0  0
  1  2  2  0
  2  3  1  0
  3  4  1  0
  4  5  1  0
  5  6  2  0
  6  7  1  0
  7  8  2  0
  8  9  1  0
  9 10  2  0
 10 11  1  0
 11 12  2  0
 12 13  1  0
  2 14  1  0
 14 15  1  0
 15 16  1  0
 16 17  1  0
 17 18  1  0
 18 19  2  0
 19 20  1  0
 20 21  2  0
 21 22  1  0
 22 23  2  0
 17 24  1  0
 24 25  1  0
 13  5  1  0
 25 14  1  0
 12  7  1  0
 23 18  1  0
M  END
>  <energy_score>  (3) 
291.926851

>  <inchikey>  (3) 
SIMBRKSHCAHBTI-UHFFFAOYSA-N

>  <smiles>  (3) 
O=C(CSc1nc2ccccc2s1)N1CCN(c2ccccn2)CC1

>  <ref_pdb>  (3) 
A0469a

>  <alias>  (3) 
None

>  <HIPPO Pose ID>  (3) 
20859

>  <name>  (3) 
P20859

>  <HIPPO Compound ID>  (3) 
18489

>  <ref_mols>  (3) 
A4031b,A0469a

>  <distance_score>  (3) 
3.54979

>  <inspiration_score>  (3) 
None

$$$$
P21244
     RDKit          3D

 22 24  0  0  0  0  0  0  0  0999 V2000
   14.4953   11.2431   15.9959 C   0  0  0  0  0  0  0  0  0  0  0  0
   13.1522   12.0269   16.1597 C   0  0  0  0  0  0  0  0  0  0  0  0
   11.9871   13.6877   16.2676 C   0  0  0  0  0  0  0  0  0  0  0  0
   13.1265   11.9135   14.2152 N   0  0  0  0  0  0  0  0  0  0  0  0
   11.7478   11.8478   12.9918 C   0  0  0  0  0  0  0  0  0  0  0  0
   10.5462   11.7792   13.2055 O   0  0  0  0  0  0  0  0  0  0  0  0
   12.2585   11.7246   11.0195 C   0  0  1  0  0  0  0  0  0  0  0  0
   13.7198   11.6319   10.5867 C   0  0  0  0  0  0  0  0  0  0  0  0
   14.5071   12.3166    9.0407 C   0  0  0  0  0  0  0  0  0  0  0  0
   13.5688   12.5598    8.0429 N   0  0  0  0  0  0  0  0  0  0  0  0
   13.0747   11.2407    8.1815 C   0  0  0  0  0  0  0  0  0  0  0  0
   13.4088   10.5974    6.9053 C   0  0  0  0  0  0  0  0  0  0  0  0
   12.8189    9.4428    6.5367 C   0  0  0  0  0  0  0  0  0  0  0  0
   11.9124    9.0475    7.4559 C   0  0  0  0  0  0  0  0  0  0  0  0
   11.7587    9.6293    8.8191 C   0  0  0  0  0  0  0  0  0  0  0  0
   12.3160   10.7527    9.4169 C   0  0  0  0  0  0  0  0  0  0  0  0
   12.9582   11.7466   18.2566 C   0  0  0  0  0  0  0  0  0  0  0  0
   12.1507   13.5365   18.7232 C   0  0  0  0  0  0  0  0  0  0  0  0
   12.9465   14.3829   19.4746 C   0  0  0  0  0  0  0  0  0  0  0  0
   12.6199   13.4455   20.3465 N   0  0  0  0  0  0  0  0  0  0  0  0
   12.4424   12.1457   20.5874 C   0  0  0  0  0  0  0  0  0  0  0  0
   13.3221   11.2335   19.7673 C   0  0  0  0  0  0  0  0  0  0  0  0
  1  2  1  0
  2  3  1  0
  2  4  1  0
  4  5  1  0
  5  6  2  0
  7  5  1  1
  7  8  1  0
  8  9  1  0
  9 10  1  0
 10 11  1  0
 11 12  2  0
 12 13  1  0
 13 14  2  0
 14 15  1  0
 15 16  2  0
  2 17  1  0
 17 18  1  0
 18 19  1  0
 19 20  1  0
 20 21  1  0
 21 22  1  0
 16  7  1  0
 22 17  1  0
 16 11  1  0
M  END
>  <energy_score>  (4) 
1058.82127

>  <inchikey>  (4) 
JSISJDOIDMQNPL-UHFFFAOYSA-N

>  <smiles>  (4) 
CC(C)(NC(=O)[C@H]1CCNc2ccccc21)C1CCNCC1

>  <ref_pdb>  (4) 
A0586a

>  <alias>  (4) 
None

>  <HIPPO Pose ID>  (4) 
21244

>  <name>  (4) 
P21244

>  <HIPPO Compound ID>  (4) 
124015

>  <ref_mols>  (4) 
A0875a,A0586a

>  <distance_score>  (4) 
7.883489

>  <inspiration_score>  (4) 
None

$$$$
P23665
     RDKit          3D

 27 29  0  0  0  0  0  0  0  0999 V2000
   24.7248   19.0855   22.0572 C   0  0  0  0  0  0  0  0  0  0  0  0
   23.3054   19.6875   22.1539 C   0  0  0  0  0  0  0  0  0  0  0  0
   22.8489   19.9927   23.5933 N   0  0  0  0  0  0  0  0  0  0  0  0
   23.4808   21.3277   23.2813 C   0  0  0  0  0  0  0  0  0  0  0  0
   22.5463   22.4093   22.7288 C   0  0  0  0  0  0  0  0  0  0  0  0
   21.4685   19.6252   23.7629 C   0  0  0  0  0  0  0  0  0  0  0  0
   20.4641   20.2694   23.6100 O   0  0  0  0  0  0  0  0  0  0  0  0
   21.2916   18.2066   24.2627 C   0  0  0  0  0  0  0  0  0  0  0  0
   22.4079   17.3843   24.4772 C   0  0  0  0  0  0  0  0  0  0  0  0
   22.2325   16.0573   24.8442 C   0  0  0  0  0  0  0  0  0  0  0  0
   20.9381   15.5440   25.0021 C   0  0  0  0  0  0  0  0  0  0  0  0
   19.7918   16.3283   24.7823 C   0  0  0  0  0  0  0  0  0  0  0  0
   18.4914   15.7487   24.9727 N   0  0  0  0  0  0  0  0  0  0  0  0
   17.5575   14.5751   23.9878 C   0  0  0  0  0  0  0  0  0  0  0  0
   17.9545   14.1954   22.9240 O   0  0  0  0  0  0  0  0  0  0  0  0
   15.8105   13.5249   24.5004 C   0  0  2  0  0  0  0  0  0  0  0  0
   16.2371   11.6540   24.5636 C   0  0  0  0  0  0  0  0  0  0  0  0
   13.8701   13.7032   23.9218 N   0  0  0  0  0  0  0  0  0  0  0  0
   13.2890   14.5309   22.6812 C   0  0  0  0  0  0  0  0  0  0  0  0
   11.7974   14.7363   22.8298 C   0  0  0  0  0  0  0  0  0  0  0  0
   11.4985   13.4411   23.4451 C   0  0  0  0  0  0  0  0  0  0  0  0
   10.2276   12.8684   23.3889 C   0  0  0  0  0  0  0  0  0  0  0  0
   10.0766   11.6215   23.9267 C   0  0  0  0  0  0  0  0  0  0  0  0
   11.1786   11.0540   24.5434 C   0  0  0  0  0  0  0  0  0  0  0  0
   12.4240   11.7388   24.7148 C   0  0  0  0  0  0  0  0  0  0  0  0
   12.6550   12.9039   24.0668 C   0  0  0  0  0  0  0  0  0  0  0  0
   19.9867   17.6882   24.4740 C   0  0  0  0  0  0  0  0  0  0  0  0
  1  2  1  0
  2  3  1  0
  3  4  1  0
  4  5  1  0
  3  6  1  0
  6  7  2  0
  6  8  1  0
  8  9  2  0
  9 10  1  0
 10 11  2  0
 11 12  1  0
 12 13  1  0
 13 14  1  0
 14 15  2  0
 14 16  1  0
 16 17  1  6
 16 18  1  0
 18 19  1  0
 19 20  1  0
 20 21  1  0
 21 22  2  0
 22 23  1  0
 23 24  2  0
 24 25  1  0
 25 26  2  0
 12 27  2  0
 27  8  1  0
 26 18  1  0
 26 21  1  0
M  END
>  <energy_score>  (5) 
435.571228

>  <inchikey>  (5) 
ISSCSRGHWYYCPW-UHFFFAOYSA-N

>  <smiles>  (5) 
CCN(CC)C(=O)c1cccc(NC(=O)[C@H](C)N2CCc3ccccc32)c1

>  <ref_pdb>  (5) 
A0863a

>  <alias>  (5) 
None

>  <HIPPO Pose ID>  (5) 
23665

>  <name>  (5) 
P23665

>  <HIPPO Compound ID>  (5) 
124652

>  <ref_mols>  (5) 
A1778a,A0863a

>  <distance_score>  (5) 
8.2242

>  <inspiration_score>  (5) 
None

$$$$
P34458
     RDKit          3D

 14 14  0  0  0  0  0  0  0  0999 V2000
    8.3582   14.9053   21.8617 C   0  0  0  0  0  0  0  0  0  0  0  0
    7.9745   13.7867   22.6589 O   0  0  0  0  0  0  0  0  0  0  0  0
    8.3242   13.8724   23.9672 C   0  0  0  0  0  0  0  0  0  0  0  0
    8.9310   14.7620   24.5384 O   0  0  0  0  0  0  0  0  0  0  0  0
    7.8967   12.6342   24.6191 C   0  0  0  0  0  0  0  0  0  0  0  0
    8.4555   11.4683   24.1035 C   0  0  0  0  0  0  0  0  0  0  0  0
    8.0042   10.2605   24.5784 C   0  0  0  0  0  0  0  0  0  0  0  0
    8.6023    9.0220   23.9949 C   0  0  0  0  0  0  0  0  0  0  0  0
    7.0359   10.1670   25.5186 N   0  0  0  0  0  0  0  0  0  0  0  0
    6.5404   11.3351   26.0181 C   0  0  0  0  0  0  0  0  0  0  0  0
    6.9483   12.6201   25.6504 C   0  0  0  0  0  0  0  0  0  0  0  0
    6.4493   13.8052   26.2372 N   0  0  0  0  0  0  0  0  0  0  0  0
    5.1541   13.7152   26.9129 C   0  0  0  0  0  0  0  0  0  0  0  0
    7.4124   14.6511   26.8625 N   0  0  0  0  0  0  0  0  0  0  0  0
  1  2  1  0
  2  3  1  0
  3  4  2  0
  3  5  1  0
  5  6  2  0
  6  7  1  0
  7  8  1  0
  7  9  2  0
  9 10  1  0
 10 11  2  0
 11 12  1  0
 12 13  1  0
 12 14  1  0
 11  5  1  0
M  END
>  <energy_score>  (6) 
-30.548267

>  <inchikey>  (6) 
VTHWZLJENYHQED-UHFFFAOYSA-N

>  <smiles>  (6) 
COC(=O)c1cc(C)ncc1N(C)N

>  <ref_pdb>  (6) 
A0514a

>  <alias>  (6) 
None

>  <HIPPO Pose ID>  (6) 
34458

>  <name>  (6) 
P34458

>  <HIPPO Compound ID>  (6) 
141599

>  <ref_mols>  (6) 
A4331a,A0514a

>  <distance_score>  (6) 
0.983263

>  <inspiration_score>  (6) 
None

$$$$
P54398
     RDKit          3D

 17 18  0  0  0  0  0  0  0  0999 V2000
    6.9749   14.1457   24.3310 C   0  0  0  0  0  0  0  0  0  0  0  0
    6.6957   12.8627   25.0539 C   0  0  0  0  0  0  0  0  0  0  0  0
    5.5772   12.8042   25.8989 C   0  0  0  0  0  0  0  0  0  0  0  0
    5.1635   11.5942   26.4514 C   0  0  0  0  0  0  0  0  0  0  0  0
    5.8498   10.4240   26.1499 C   0  0  0  0  0  0  0  0  0  0  0  0
    6.9952   10.4741   25.3563 C   0  0  0  0  0  0  0  0  0  0  0  0
    7.4551   11.6988   24.8524 C   0  0  0  0  0  0  0  0  0  0  0  0
    8.7488   11.6818   24.1016 C   0  0  0  0  0  0  0  0  0  0  0  0
    8.9361   10.8237   23.3374 O   0  0  0  0  0  0  0  0  0  0  0  0
    9.6659   12.8356   24.5524 N   0  0  0  0  0  0  0  0  0  0  0  0
   10.9712   13.2302   24.0867 C   0  0  0  0  0  0  0  0  0  0  0  0
   11.0604   13.3051   22.5780 C   0  0  0  0  0  0  0  0  0  0  0  0
   10.4882   14.5348   22.0057 C   0  0  0  0  0  0  0  0  0  0  0  0
   11.0372   15.3130   21.0168 C   0  0  0  0  0  0  0  0  0  0  0  0
   10.1490   16.2928   20.7153 O   0  0  0  0  0  0  0  0  0  0  0  0
    9.1149   16.0686   21.5681 C   0  0  0  0  0  0  0  0  0  0  0  0
    9.2626   15.0374   22.3686 N   0  0  0  0  0  0  0  0  0  0  0  0
  1  2  1  0
  2  3  2  0
  3  4  1  0
  4  5  2  0
  5  6  1  0
  6  7  2  0
  7  8  1  0
  8  9  2  0
  8 10  1  0
 10 11  1  0
 11 12  1  0
 12 13  1  0
 13 14  2  0
 14 15  1  0
 15 16  1  0
 16 17  2  0
  7  2  1  0
 17 13  1  0
M  END
>  <energy_score>  (7) 
-4.306167

>  <inchikey>  (7) 
UKWNMHGCUDXUJG-UHFFFAOYSA-N

>  <smiles>  (7) 
Cc1ccccc1C(=O)NCCc1cocn1

>  <ref_pdb>  (7) 
A5594a

>  <alias>  (7) 
None

>  <HIPPO Pose ID>  (7) 
54398

>  <name>  (7) 
P54398

>  <HIPPO Compound ID>  (7) 
266892

>  <ref_mols>  (7) 
A3408a,A5594a

>  <distance_score>  (7) 
1.328692

>  <inspiration_score>  (7) 
None

$$$$
P58203
     RDKit          3D

 12 12  0  0  0  0  0  0  0  0999 V2000
    8.0307   17.4738   26.3293 C   0  0  0  0  0  0  0  0  0  0  0  0
    9.4011   16.9658   26.7298 C   0  0  0  0  0  0  0  0  0  0  0  0
    9.7638   17.0381   27.8740 O   0  0  0  0  0  0  0  0  0  0  0  0
   10.0714   16.4692   25.5763 N   0  0  0  0  0  0  0  0  0  0  0  0
   11.4758   15.9818   25.3946 C   0  0  0  0  0  0  0  0  0  0  0  0
   11.6525   15.2545   24.0815 C   0  0  0  0  0  0  0  0  0  0  0  0
   10.3910   14.4594   24.1027 C   0  0  2  0  0  0  0  0  0  0  0  0
    9.5420   14.6933   22.9593 N   0  0  0  0  0  0  0  0  0  0  0  0
    8.3268   13.9682   22.4851 C   0  0  0  0  0  0  0  0  0  0  0  0
    7.9455   14.8043   21.2852 N   0  0  0  0  0  0  0  0  0  0  0  0
    7.8270   12.9917   22.8913 O   0  0  0  0  0  0  0  0  0  0  0  0
    9.7742   14.9977   25.3896 C   0  0  0  0  0  0  0  0  0  0  0  0
  1  2  1  0
  2  3  2  0
  2  4  1  0
  4  5  1  0
  5  6  1  0
  6  7  1  0
  7  8  1  6
  8  9  1  0
  9 10  1  0
  9 11  2  0
  7 12  1  0
 12  4  1  0
M  END
>  <energy_score>  (8) 
230.573228

>  <inchikey>  (8) 
NADGLDRSJLOBRP-UHFFFAOYSA-N

>  <smiles>  (8) 
CC(=O)N1CC[C@H](NC(N)=O)C1

>  <ref_pdb>  (8) 
A3665a

>  <alias>  (8) 
None

>  <HIPPO Pose ID>  (8) 
58203

>  <name>  (8) 
P58203

>  <HIPPO Compound ID>  (8) 
195109

>  <ref_mols>  (8) 
A3665a,A3571b

>  <distance_score>  (8) 
4.026465

>  <inspiration_score>  (8) 
None

$$$$
C50277-P616
     RDKit          3D

 23 25  0  0  0  0  0  0  0  0999 V2000
    8.4705   12.8675   11.1219 O   0  0  0  0  0  0  0  0  0  0  0  0
    7.4830   13.5575   11.2494 C   0  0  0  0  0  0  0  0  0  0  0  0
    7.2028   14.0097   13.2546 C   0  0  0  0  0  0  0  0  0  0  0  0
    7.6871   14.3259   15.1544 O   0  0  0  0  0  0  0  0  0  0  0  0
    8.7441   14.2854   16.7066 C   0  0  1  0  0  0  0  0  0  0  0  0
   10.5231   14.4865   17.5368 C   0  0  0  0  0  0  0  0  0  0  0  0
   10.9699   14.6686   18.9909 C   0  0  0  0  0  0  0  0  0  0  0  0
   10.1935   15.7737   19.6038 C   0  0  0  0  0  0  0  0  0  0  0  0
    8.8844   15.2222   19.4180 N   0  0  0  0  0  0  0  0  0  0  0  0
    8.4035   15.2699   17.9448 C   0  0  0  0  0  0  0  0  0  0  0  0
    6.3809   14.1664    9.9103 N   0  0  0  0  0  0  0  0  0  0  0  0
    6.4872   14.0368    7.9887 C   0  0  0  0  0  0  0  0  0  0  0  0
    6.6308   15.2174    7.0377 C   0  0  0  0  0  0  0  0  0  0  0  0
    6.8936   15.1700    5.7278 N   0  0  0  0  0  0  0  0  0  0  0  0
    6.5877   13.9289    5.4581 N   0  0  0  0  0  0  0  0  0  0  0  0
    6.0030   13.7296    4.1086 C   0  0  1  0  0  0  0  0  0  0  0  0
    6.9411   14.1801    2.9783 C   0  0  0  0  0  0  0  0  0  0  0  0
    8.0273   13.1197    2.8882 C   0  0  0  0  0  0  0  0  0  0  0  0
    7.3032   11.6070    3.5062 S   0  0  0  0  0  0  0  0  0  0  0  0
    7.8323   11.3315    4.8221 O   0  0  0  0  0  0  0  0  0  0  0  0
    7.2433   10.6362    2.4395 O   0  0  0  0  0  0  0  0  0  0  0  0
    5.6975   12.2836    3.7666 C   0  0  0  0  0  0  0  0  0  0  0  0
    5.9653   13.5295    6.6756 C   0  0  0  0  0  0  0  0  0  0  0  0
  1  2  2  0
  2  3  1  0
  3  4  1  0
  5  4  1  6
  5  6  1  0
  6  7  1  0
  7  8  1  0
  8  9  1  0
  9 10  1  0
  2 11  1  0
 11 12  1  0
 12 13  1  0
 13 14  2  0
 14 15  1  0
 16 15  1  1
 16 17  1  0
 17 18  1  0
 18 19  1  0
 19 20  2  0
 19 21  2  0
 19 22  1  0
 15 23  1  0
 10  5  1  0
 23 12  2  0
 22 16  1  0
M  END
>  <energy_score>  (9) 
718.225525

>  <inchikey>  (9) 
GSWNPYWEZMISHZ-UHFFFAOYSA-N

>  <smiles>  (9) 
O=C(CO[C@H]1CCCNC1)Nc1cnn([C@H]2CCS(=O)(=O)C2)c1

>  <ref_pdb>  (9) 
A5424b

>  <alias>  (9) 
C50277-P616

>  <HIPPO Pose ID>  (9) 
130605

>  <name>  (9) 
C50277-P616

>  <HIPPO Compound ID>  (9) 
50277

>  <ref_mols>  (9) 
A5424b,A0354a

>  <distance_score>  (9) 
4.354529

>  <inspiration_score>  (9) 
None

$$$$
C1120-P31
     RDKit          3D

 21 23  0  0  0  0  0  0  0  0999 V2000
    9.1697   14.4202   11.5937 O   0  0  0  0  0  0  0  0  0  0  0  0
   10.2847   14.8214   11.4906 C   0  0  0  0  0  0  0  0  0  0  0  0
   11.5020   15.1109   13.1982 C   0  0  0  0  0  0  0  0  0  0  0  0
   11.5590   15.8852   14.7233 O   0  0  0  0  0  0  0  0  0  0  0  0
   11.4793   15.8401   16.5261 C   0  0  0  0  0  0  0  0  0  0  0  0
   10.2274   16.5311   17.4295 C   0  0  0  0  0  0  0  0  0  0  0  0
   10.1800   15.3836   18.3441 N   0  0  0  0  0  0  0  0  0  0  0  0
   11.1930   14.6423   17.5893 C   0  0  0  0  0  0  0  0  0  0  0  0
   11.0039   15.0288    9.8881 N   0  0  0  0  0  0  0  0  0  0  0  0
   10.3506   14.5519    8.0263 C   0  0  0  0  0  0  0  0  0  0  0  0
    9.0120   14.3162    6.3603 C   0  0  0  0  0  0  0  0  0  0  0  0
    8.3507   13.2212    5.4217 N   0  0  0  0  0  0  0  0  0  0  0  0
    8.5866   13.4682    3.9071 C   0  0  0  0  0  0  0  0  0  0  0  0
    8.4086   12.1791    3.0774 C   0  0  0  0  0  0  0  0  0  0  0  0
    7.3889   11.2725    3.7442 C   0  0  0  0  0  0  0  0  0  0  0  0
    6.3734   12.2030    4.3471 C   0  0  0  0  0  0  0  0  0  0  0  0
    5.0821   12.2596    3.8100 C   0  0  0  0  0  0  0  0  0  0  0  0
    4.2679   13.3471    4.0918 C   0  0  0  0  0  0  0  0  0  0  0  0
    4.7350   14.3599    4.9246 C   0  0  0  0  0  0  0  0  0  0  0  0
    6.0046   14.2810    5.5205 C   0  0  0  0  0  0  0  0  0  0  0  0
    6.8636   13.2043    5.2407 C   0  0  0  0  0  0  0  0  0  0  0  0
  1  2  2  0
  2  3  1  0
  3  4  1  0
  4  5  1  0
  5  6  1  0
  6  7  1  0
  7  8  1  0
  2  9  1  0
  9 10  1  0
 10 11  1  0
 11 12  1  0
 12 13  1  0
 13 14  1  0
 14 15  1  0
 15 16  1  0
 16 17  2  0
 17 18  1  0
 18 19  2  0
 19 20  1  0
 20 21  2  0
  8  5  1  0
 21 12  1  0
 21 16  1  0
M  END
>  <energy_score>  (10) 
701.942577

>  <inchikey>  (10) 
VYQRXFKIGZZHPH-UHFFFAOYSA-N

>  <smiles>  (10) 
O=C(COC1CNC1)NCCN1CCCc2ccccc21

>  <ref_pdb>  (10) 
A0586a

>  <alias>  (10) 
C1120-P31

>  <HIPPO Pose ID>  (10) 
131658

>  <name>  (10) 
C1120-P31

>  <HIPPO Compound ID>  (10) 
1120

>  <ref_mols>  (10) 
A4994a,A0586a

>  <distance_score>  (10) 
4.127261

>  <inspiration_score>  (10) 
None

$$$$
C43009-P543
     RDKit          3D

 13 13  0  0  0  0  0  0  0  0999 V2000
    8.5649   11.9094   24.2488 C   0  0  0  0  0  0  0  0  0  0  0  0
    8.6735   13.4181   24.3705 C   0  0  1  0  0  0  0  0  0  0  0  0
    7.7478   13.9006   25.8581 S   0  0  0  0  0  0  0  0  0  0  0  0
   10.1529   13.8679   24.4518 C   0  0  0  0  0  0  0  0  0  0  0  0
   10.8345   13.7620   25.4087 O   0  0  0  0  0  0  0  0  0  0  0  0
   10.4792   14.4034   23.0678 N   0  0  0  0  0  0  0  0  0  0  0  0
   10.9804   13.2908   22.1385 C   0  0  0  0  0  0  0  0  0  0  0  0
   11.4562   14.3855   21.2177 C   0  0  0  0  0  0  0  0  0  0  0  0
   10.1879   15.1056   20.1997 S   0  0  0  0  0  0  0  0  0  0  0  0
   10.7499   14.8273   18.6264 N   0  0  0  0  0  0  0  0  0  0  0  0
   10.1492   16.5441   20.2945 O   0  0  0  0  0  0  0  0  0  0  0  0
    8.9488   14.3885   20.4200 O   0  0  0  0  0  0  0  0  0  0  0  0
   11.7283   15.0457   22.5358 C   0  0  0  0  0  0  0  0  0  0  0  0
  2  1  1  1
  2  3  1  0
  2  4  1  0
  4  5  2  0
  4  6  1  0
  6  7  1  0
  7  8  1  0
  8  9  1  0
  9 10  1  0
  9 11  2  0
  9 12  2  0
  8 13  1  0
 13  6  1  0
M  END
>  <energy_score>  (11) 
-10.058814

>  <inchikey>  (11) 
JVKJWHGLBOQABM-UHFFFAOYSA-N

>  <smiles>  (11) 
C[C@@H](S)C(=O)N1CC(S(N)(=O)=O)C1

>  <ref_pdb>  (11) 
A4994a

>  <alias>  (11) 
C43009-P543

>  <HIPPO Pose ID>  (11) 
133793

>  <name>  (11) 
C43009-P543

>  <HIPPO Compound ID>  (11) 
43009

>  <ref_mols>  (11) 
A1778a,A4994a

>  <distance_score>  (11) 
1.529457

>  <inspiration_score>  (11) 
None

$$$$
C114736-P550
     RDKit          3D

 22 23  0  0  0  0  0  0  0  0999 V2000
    6.8054   16.6411   23.5948 C   0  0  0  0  0  0  0  0  0  0  0  0
    7.3755   15.6574   22.5751 C   0  0  2  0  0  0  0  0  0  0  0  0
    6.9184   14.2043   22.8155 C   0  0  0  0  0  0  0  0  0  0  0  0
    6.3686   13.5753   21.9984 O   0  0  0  0  0  0  0  0  0  0  0  0
    7.3447   13.8258   24.2546 N   0  0  0  0  0  0  0  0  0  0  0  0
    7.2691   12.5798   24.9459 C   0  0  0  0  0  0  0  0  0  0  0  0
    7.9335   11.4650   24.1419 C   0  0  2  0  0  0  0  0  0  0  0  0
    7.5653   10.1107   24.7185 C   0  0  0  0  0  0  0  0  0  0  0  0
    8.4465    9.1552   23.9398 C   0  0  0  0  0  0  0  0  0  0  0  0
    9.6336    9.9978   23.5312 C   0  0  0  0  0  0  0  0  0  0  0  0
    9.3879   11.3214   24.1321 N   0  0  0  0  0  0  0  0  0  0  0  0
   10.2298   12.3909   23.5891 C   0  0  0  0  0  0  0  0  0  0  0  0
   11.3843   12.7238   24.5664 C   0  0  0  0  0  0  0  0  0  0  0  0
   12.7328   13.1953   24.1003 C   0  0  0  0  0  0  0  0  0  0  0  0
   13.8209   12.4822   24.7247 O   0  0  0  0  0  0  0  0  0  0  0  0
    8.8340   15.6930   22.3225 N   0  0  0  0  0  0  0  0  0  0  0  0
    9.1959   15.8253   20.9109 C   0  0  0  0  0  0  0  0  0  0  0  0
   10.6389   15.5282   20.5594 C   0  0  0  0  0  0  0  0  0  0  0  0
   11.5075   16.2806   21.5360 C   0  0  0  0  0  0  0  0  0  0  0  0
   11.2313   15.7377   22.9023 C   0  0  0  0  0  0  0  0  0  0  0  0
    9.7838   15.7072   23.3277 C   0  0  0  0  0  0  0  0  0  0  0  0
    9.5210   15.5869   24.5291 O   0  0  0  0  0  0  0  0  0  0  0  0
  2  1  1  1
  2  3  1  0
  3  4  2  0
  3  5  1  0
  5  6  1  0
  7  6  1  1
  7  8  1  0
  8  9  1  0
  9 10  1  0
 10 11  1  0
 11 12  1  0
 12 13  1  0
 13 14  1  0
 14 15  1  0
  2 16  1  0
 16 17  1  0
 17 18  1  0
 18 19  1  0
 19 20  1  0
 20 21  1  0
 21 22  2  0
 11  7  1  0
 21 16  1  0
M  END
>  <energy_score>  (12) 
-9.048334

>  <inchikey>  (12) 
YIUKMRZVTRJRKY-UHFFFAOYSA-N

>  <smiles>  (12) 
C[C@H](C(=O)NC[C@@H]1CCCN1CCCO)N1CCCCC1=O

>  <ref_pdb>  (12) 
A5036a

>  <alias>  (12) 
C114736-P550

>  <HIPPO Pose ID>  (12) 
138552

>  <name>  (12) 
C114736-P550

>  <HIPPO Compound ID>  (12) 
114736

>  <ref_mols>  (12) 
A1140a,A5036a

>  <distance_score>  (12) 
1.763187

>  <inspiration_score>  (12) 
None

$$$$
C47059-P440
     RDKit          3D

 20 22  0  0  0  0  0  0  0  0999 V2000
   15.3524   19.2643   21.5286 O   0  0  0  0  0  0  0  0  0  0  0  0
   15.4349   18.3752   20.7190 C   0  0  0  0  0  0  0  0  0  0  0  0
   16.6936   18.7046   19.6477 C   0  0  0  0  0  0  0  0  0  0  0  0
   17.6931   19.6935   20.4292 C   0  0  0  0  0  0  0  0  0  0  0  0
   19.1998   19.7779   20.1931 C   0  0  0  0  0  0  0  0  0  0  0  0
   20.0575   18.9394   20.7381 N   0  0  0  0  0  0  0  0  0  0  0  0
   21.3287   19.4896   20.8320 C   0  0  0  0  0  0  0  0  0  0  0  0
   22.4352   18.9197   21.4989 C   0  0  0  0  0  0  0  0  0  0  0  0
   23.6471   19.6185   21.5731 C   0  0  0  0  0  0  0  0  0  0  0  0
   23.7839   20.8523   20.9443 C   0  0  0  0  0  0  0  0  0  0  0  0
   22.7074   21.4273   20.2559 C   0  0  0  0  0  0  0  0  0  0  0  0
   21.4763   20.7416   20.2399 C   0  0  0  0  0  0  0  0  0  0  0  0
   19.9440   21.2270   19.6048 S   0  0  0  0  0  0  0  0  0  0  0  0
   14.4526   16.8673   20.5558 N   0  0  0  0  0  0  0  0  0  0  0  0
   13.0382   16.3029   21.4214 C   0  0  2  0  0  0  0  0  0  0  0  0
   12.8335   15.4466   22.6999 C   0  0  0  0  0  0  0  0  0  0  0  0
   11.9667   14.1661   22.6019 C   0  0  0  0  0  0  0  0  0  0  0  0
   10.9524   14.2062   21.4789 C   0  0  0  0  0  0  0  0  0  0  0  0
   10.4383   15.5536   21.4171 N   0  0  0  0  0  0  0  0  0  0  0  0
   11.4901   16.4876   20.9414 C   0  0  0  0  0  0  0  0  0  0  0  0
  1  2  2  0
  2  3  1  0
  3  4  1  0
  4  5  1  0
  5  6  2  0
  6  7  1  0
  7  8  2  0
  8  9  1  0
  9 10  2  0
 10 11  1  0
 11 12  2  0
 12 13  1  0
  2 14  1  0
 15 14  1  6
 15 16  1  0
 16 17  1  0
 17 18  1  0
 18 19  1  0
 19 20  1  0
 13  5  1  0
 20 15  1  0
 12  7  1  0
M  END
>  <energy_score>  (13) 
95.268206

>  <inchikey>  (13) 
BNUQBQTZOCNMQQ-UHFFFAOYSA-N

>  <smiles>  (13) 
O=C(CCc1nc2ccccc2s1)N[C@@H]1CCCNC1

>  <ref_pdb>  (13) 
A4707a

>  <alias>  (13) 
C47059-P440

>  <HIPPO Pose ID>  (13) 
139075

>  <name>  (13) 
C47059-P440

>  <HIPPO Compound ID>  (13) 
47059

>  <ref_mols>  (13) 
A0514b,A4707a

>  <distance_score>  (13) 
4.546425

>  <inspiration_score>  (13) 
None

$$$$
C13612-P153
     RDKit          3D

 20 22  0  0  0  0  0  0  0  0999 V2000
    5.8757   14.3534   25.0312 C   0  0  0  0  0  0  0  0  0  0  0  0
    7.1648   14.2186   24.2071 C   0  0  2  0  0  0  0  0  0  0  0  0
    8.5188   13.5187   25.2271 S   0  0  0  0  0  0  0  0  0  0  0  0
    7.9505   11.8793   25.4345 C   0  0  0  0  0  0  0  0  0  0  0  0
    8.4809   10.8123   24.7312 C   0  0  0  0  0  0  0  0  0  0  0  0
    7.9541    9.5619   24.9882 C   0  0  0  0  0  0  0  0  0  0  0  0
    6.8944    9.4567   25.8837 C   0  0  0  0  0  0  0  0  0  0  0  0
    6.4552   10.5589   26.5684 C   0  0  0  0  0  0  0  0  0  0  0  0
    6.9987   11.7583   26.3847 N   0  0  0  0  0  0  0  0  0  0  0  0
    7.5037   15.6176   23.6074 C   0  0  0  0  0  0  0  0  0  0  0  0
    6.8415   16.5547   23.8786 O   0  0  0  0  0  0  0  0  0  0  0  0
    8.6666   15.4816   22.6309 N   0  0  0  0  0  0  0  0  0  0  0  0
    9.2513   16.4786   21.6445 C   0  0  0  0  0  0  0  0  0  0  0  0
    9.9578   15.9162   20.3853 C   0  0  0  0  0  0  0  0  0  0  0  0
   11.2263   15.2973   20.5301 O   0  0  0  0  0  0  0  0  0  0  0  0
   11.9104   15.6035   21.7288 C   0  0  0  0  0  0  0  0  0  0  0  0
   11.1655   14.9493   22.8568 C   0  0  0  0  0  0  0  0  0  0  0  0
   11.8918   14.1250   23.9160 C   0  0  0  0  0  0  0  0  0  0  0  0
   11.1159   13.4335   22.8450 C   0  0  0  0  0  0  0  0  0  0  0  0
    9.9901   15.7699   23.3108 C   0  0  0  0  0  0  0  0  0  0  0  0
  2  1  1  1
  2  3  1  0
  3  4  1  0
  4  5  2  0
  5  6  1  0
  6  7  2  0
  7  8  1  0
  8  9  2  0
  2 10  1  0
 10 11  2  0
 10 12  1  0
 12 13  1  0
 13 14  1  0
 14 15  1  0
 15 16  1  0
 16 17  1  0
 17 18  1  0
 18 19  1  0
 17 20  1  0
  9  4  1  0
 20 12  1  0
 19 17  1  0
M  END
>  <energy_score>  (14) 
57.016144

>  <inchikey>  (14) 
MOTCXMZSKQJLGN-UHFFFAOYSA-N

>  <smiles>  (14) 
C[C@H](Sc1ccccn1)C(=O)N1CCOCC2(CC2)C1

>  <ref_pdb>  (14) 
A3207a

>  <alias>  (14) 
C13612-P153

>  <HIPPO Pose ID>  (14) 
139612

>  <name>  (14) 
C13612-P153

>  <HIPPO Compound ID>  (14) 
13612

>  <ref_mols>  (14) 
A3207a,A1778a

>  <distance_score>  (14) 
2.046363

>  <inspiration_score>  (14) 
None

$$$$
C124499-P141
     RDKit          3D

 17 17  0  0  0  0  0  0  0  0999 V2000
    8.8671   16.6486   28.0192 C   0  0  0  0  0  0  0  0  0  0  0  0
    8.2749   15.4611   27.2799 C   0  0  0  0  0  0  0  0  0  0  0  0
    9.5389   14.7346   26.1825 S   0  0  0  0  0  0  0  0  0  0  0  0
    8.6676   13.2277   25.6181 C   0  0  0  0  0  0  0  0  0  0  0  0
    9.1302   12.7000   24.4424 C   0  0  0  0  0  0  0  0  0  0  0  0
    8.3923   13.1825   23.3804 C   0  0  0  0  0  0  0  0  0  0  0  0
    9.0787   13.9873   22.3307 C   0  0  0  0  0  0  0  0  0  0  0  0
    8.4847   14.3394   21.3922 O   0  0  0  0  0  0  0  0  0  0  0  0
   10.5239   14.2973   22.7743 N   0  0  0  0  0  0  0  0  0  0  0  0
   11.5059   15.1790   22.2062 C   0  0  1  0  0  0  0  0  0  0  0  0
   12.7068   15.1143   23.1226 C   0  0  0  0  0  0  0  0  0  0  0  0
   11.8677   14.8905   20.7654 C   0  0  0  0  0  0  0  0  0  0  0  0
   10.8509   15.5074   19.9979 O   0  0  0  0  0  0  0  0  0  0  0  0
   11.0120   15.3186   18.6148 C   0  0  0  0  0  0  0  0  0  0  0  0
    7.0283   13.3533   23.5702 C   0  0  0  0  0  0  0  0  0  0  0  0
    6.5490   13.1844   24.8573 C   0  0  0  0  0  0  0  0  0  0  0  0
    7.3702   13.1334   25.9220 N   0  0  0  0  0  0  0  0  0  0  0  0
  1  2  1  0
  2  3  1  0
  3  4  1  0
  4  5  2  0
  5  6  1  0
  6  7  1  0
  7  8  2  0
  7  9  1  0
  9 10  1  0
 10 11  1  1
 10 12  1  0
 12 13  1  0
 13 14  1  0
  6 15  2  0
 15 16  1  0
 16 17  2  0
 17  4  1  0
M  END
>  <energy_score>  (15) 
64.167379

>  <inchikey>  (15) 
LZIRKMRYXZIKJB-UHFFFAOYSA-N

>  <smiles>  (15) 
CCSc1cc(C(=O)N[C@@H](C)COC)ccn1

>  <ref_pdb>  (15) 
A3176a

>  <alias>  (15) 
C124499-P141

>  <HIPPO Pose ID>  (15) 
140512

>  <name>  (15) 
C124499-P141

>  <HIPPO Compound ID>  (15) 
124499

>  <ref_mols>  (15) 
A3176a,A2629a

>  <distance_score>  (15) 
1.930764

>  <inspiration_score>  (15) 
None

$$$$
C48075-P87
     RDKit          3D

 19 20  0  0  0  0  0  0  0  0999 V2000
   10.3935    9.3792   23.8425 C   0  0  0  0  0  0  0  0  0  0  0  0
   10.6820   10.6998   24.2784 O   0  0  0  0  0  0  0  0  0  0  0  0
    9.4687   11.3304   24.5244 N   0  0  0  0  0  0  0  0  0  0  0  0
    9.5774   12.6163   24.6460 C   0  0  0  0  0  0  0  0  0  0  0  0
   10.7785   13.5137   24.5977 C   0  0  0  0  0  0  0  0  0  0  0  0
   10.5406   14.6663   24.2563 O   0  0  0  0  0  0  0  0  0  0  0  0
   12.0330   13.0862   25.0157 N   0  0  0  0  0  0  0  0  0  0  0  0
   12.4116   13.1424   26.3996 C   0  0  0  0  0  0  0  0  0  0  0  0
   13.7639   12.5264   26.8487 C   0  0  0  0  0  0  0  0  0  0  0  0
   14.7446   12.1350   25.7501 C   0  0  0  0  0  0  0  0  0  0  0  0
   15.8417   11.1573   26.2160 C   0  0  0  0  0  0  0  0  0  0  0  0
   16.6473   11.6629   27.3790 C   0  0  0  0  0  0  0  0  0  0  0  0
   17.4631   12.7915   27.2731 C   0  0  0  0  0  0  0  0  0  0  0  0
   18.1793   13.2372   28.3799 C   0  0  0  0  0  0  0  0  0  0  0  0
   18.0558   12.5363   29.5664 C   0  0  0  0  0  0  0  0  0  0  0  0
   17.2794   11.4422   29.7111 N   0  0  0  0  0  0  0  0  0  0  0  0
   16.6014   11.0292   28.6182 C   0  0  0  0  0  0  0  0  0  0  0  0
   13.9230   11.5418   24.6286 C   0  0  0  0  0  0  0  0  0  0  0  0
   12.9586   12.5863   24.0565 C   0  0  0  0  0  0  0  0  0  0  0  0
  1  2  1  0
  2  3  1  0
  3  4  2  3
  4  5  1  0
  5  6  2  0
  5  7  1  0
  7  8  1  0
  8  9  1  0
  9 10  1  0
 10 11  1  0
 11 12  1  0
 12 13  2  0
 13 14  1  0
 14 15  2  0
 15 16  1  0
 16 17  2  0
 10 18  1  0
 18 19  1  0
 19  7  1  0
 17 12  1  0
M  END
>  <energy_score>  (16) 
-13.862761

>  <inchikey>  (16) 
VFUUPOXSKSPMQN-UHFFFAOYSA-N

>  <smiles>  (16) 
CON=CC(=O)N1CCC(Cc2cccnc2)CC1

>  <ref_pdb>  (16) 
A0875a

>  <alias>  (16) 
C48075-P87

>  <HIPPO Pose ID>  (16) 
159260

>  <name>  (16) 
C48075-P87

>  <HIPPO Compound ID>  (16) 
48075

>  <ref_mols>  (16) 
A2629a,A0875a

>  <distance_score>  (16) 
1.992921

>  <inspiration_score>  (16) 
None

$$$$
C45999-P441
     RDKit          3D

 25 28  0  0  0  0  0  0  0  0999 V2000
    6.0396   12.8398   22.3902 O   0  0  0  0  0  0  0  0  0  0  0  0
    6.3094   13.8173   22.9457 C   0  0  0  0  0  0  0  0  0  0  0  0
    7.1494   14.9977   22.5046 N   0  0  0  0  0  0  0  0  0  0  0  0
    7.9331   15.1996   21.3023 C   0  0  0  0  0  0  0  0  0  0  0  0
    9.3169   14.6386   21.6279 C   0  0  0  0  0  0  0  0  0  0  0  0
   10.4425   14.6275   20.6203 C   0  0  0  0  0  0  0  0  0  0  0  0
   11.6965   14.0272   21.3182 C   0  0  0  0  0  0  0  0  0  0  0  0
   11.7322   14.0737   22.8010 N   0  0  0  0  0  0  0  0  0  0  0  0
   11.4878   12.8805   23.6333 C   0  0  0  0  0  0  0  0  0  0  0  0
   11.6184   13.1149   25.1491 C   0  0  0  0  0  0  0  0  0  0  0  0
   10.2802   13.3948   25.8073 C   0  0  0  0  0  0  0  0  0  0  0  0
    9.4121   12.2834   25.6137 O   0  0  0  0  0  0  0  0  0  0  0  0
    9.0706   12.1747   24.2347 C   0  0  0  0  0  0  0  0  0  0  0  0
   10.3032   11.9054   23.4089 C   0  0  0  0  0  0  0  0  0  0  0  0
   11.2260   15.3356   23.2174 C   0  0  0  0  0  0  0  0  0  0  0  0
    9.8082   15.4804   22.7814 C   0  0  0  0  0  0  0  0  0  0  0  0
    5.8503   13.9189   24.3712 C   0  0  0  0  0  0  0  0  0  0  0  0
    5.5513   15.1025   25.0522 C   0  0  0  0  0  0  0  0  0  0  0  0
    5.2958   15.0697   26.4355 C   0  0  0  0  0  0  0  0  0  0  0  0
    5.3735   13.8661   27.1194 C   0  0  0  0  0  0  0  0  0  0  0  0
    5.6801   12.6937   26.4503 C   0  0  0  0  0  0  0  0  0  0  0  0
    5.9226   12.7068   25.0946 C   0  0  0  0  0  0  0  0  0  0  0  0
    5.6436   11.5479   27.3930 C   0  0  0  0  0  0  0  0  0  0  0  0
    5.5747   12.3053   28.7359 C   0  0  0  0  0  0  0  0  0  0  0  0
    5.0416   13.6524   28.4758 N   0  0  0  0  0  0  0  0  0  0  0  0
  1  2  2  0
  2  3  1  0
  3  4  1  0
  4  5  1  0
  5  6  1  0
  6  7  1  0
  7  8  1  0
  8  9  1  0
  9 10  1  0
 10 11  1  0
 11 12  1  0
 12 13  1  0
 13 14  1  0
  8 15  1  0
 15 16  1  0
  2 17  1  0
 17 18  2  0
 18 19  1  0
 19 20  2  0
 20 21  1  0
 21 22  2  0
 21 23  1  0
 23 24  1  0
 24 25  1  0
 16  5  1  0
 22 17  1  0
 14  9  1  0
 25 20  1  0
M  END
>  <energy_score>  (17) 
7.910897

>  <inchikey>  (17) 
IDVYXFNNIDSPJK-UHFFFAOYSA-N

>  <smiles>  (17) 
O=C(NCC1CCN(C2CCOCC2)CC1)c1ccc2c(c1)CCN2

>  <ref_pdb>  (17) 
A4708a

>  <alias>  (17) 
C45999-P441

>  <HIPPO Pose ID>  (17) 
160679

>  <name>  (17) 
C45999-P441

>  <HIPPO Compound ID>  (17) 
45999

>  <ref_mols>  (17) 
A4708a,A1778a

>  <distance_score>  (17) 
1.884056

>  <inspiration_score>  (17) 
None

$$$$
C45686-P271
     RDKit          3D

 21 22  0  0  0  0  0  0  0  0999 V2000
    9.5166   15.1335   19.9807 C   0  0  0  0  0  0  0  0  0  0  0  0
   10.7607   15.8343   20.4422 C   0  0  0  0  0  0  0  0  0  0  0  0
   10.3686   17.2965   20.6060 C   0  0  0  0  0  0  0  0  0  0  0  0
   11.7977   15.5798   19.3471 C   0  0  0  0  0  0  0  0  0  0  0  0
   11.2431   15.1821   21.7533 C   0  0  1  0  0  0  0  0  0  0  0  0
   12.4590   15.8304   22.4138 C   0  0  0  0  0  0  0  0  0  0  0  0
   12.7987   15.1205   23.6696 N   0  0  0  0  0  0  0  0  0  0  0  0
   10.1779   15.0064   22.7187 N   0  0  0  0  0  0  0  0  0  0  0  0
    9.8583   15.7844   24.0075 C   0  0  0  0  0  0  0  0  0  0  0  0
   10.3540   16.7363   24.4564 O   0  0  0  0  0  0  0  0  0  0  0  0
    8.8299   15.0666   24.7136 C   0  0  0  0  0  0  0  0  0  0  0  0
    8.8418   14.7468   26.0819 C   0  0  0  0  0  0  0  0  0  0  0  0
    8.0902   13.6737   26.3339 N   0  0  0  0  0  0  0  0  0  0  0  0
    7.6479   13.3257   25.1159 N   0  0  0  0  0  0  0  0  0  0  0  0
    7.6359   11.9303   24.7195 C   0  0  2  0  0  0  0  0  0  0  0  0
    7.3282   10.9481   25.8349 C   0  0  0  0  0  0  0  0  0  0  0  0
    7.4384    9.5205   25.3360 C   0  0  0  0  0  0  0  0  0  0  0  0
    8.6998    9.2323   24.5214 C   0  0  0  0  0  0  0  0  0  0  0  0
    8.9288   10.2053   23.4764 N   0  0  0  0  0  0  0  0  0  0  0  0
    8.9551   11.5591   24.0175 C   0  0  0  0  0  0  0  0  0  0  0  0
    7.7893   14.3269   24.1893 C   0  0  0  0  0  0  0  0  0  0  0  0
  1  2  1  0
  2  3  1  0
  2  4  1  0
  2  5  1  0
  5  6  1  1
  6  7  1  0
  5  8  1  0
  8  9  1  0
  9 10  2  0
  9 11  1  0
 11 12  1  0
 12 13  2  0
 13 14  1  0
 15 14  1  1
 15 16  1  0
 16 17  1  0
 17 18  1  0
 18 19  1  0
 19 20  1  0
 14 21  1  0
 21 11  2  0
 20 15  1  0
M  END
>  <energy_score>  (18) 
-1.970724

>  <inchikey>  (18) 
NNQHEEWKOFTWLP-UHFFFAOYSA-N

>  <smiles>  (18) 
CC(C)(C)[C@@H](CN)NC(=O)c1cnn([C@@H]2CCCNC2)c1

>  <ref_pdb>  (18) 
A4020b

>  <alias>  (18) 
C45686-P271

>  <HIPPO Pose ID>  (18) 
163189

>  <name>  (18) 
C45686-P271

>  <HIPPO Compound ID>  (18) 
45686

>  <ref_mols>  (18) 
A0556a,A4020b

>  <distance_score>  (18) 
1.38514

>  <inspiration_score>  (18) 
None

$$$$
C102808-P9
     RDKit          3D

 23 26  0  0  0  0  0  0  0  0999 V2000
    8.2473   13.6718    2.5604 C   0  0  0  0  0  0  0  0  0  0  0  0
    8.8459   14.9223    2.8203 C   0  0  0  0  0  0  0  0  0  0  0  0
    9.8008   15.0944    1.8310 C   0  0  0  0  0  0  0  0  0  0  0  0
   10.8565   16.0937    1.5985 C   0  0  0  0  0  0  0  0  0  0  0  0
   11.4752   16.2129    0.3393 C   0  0  0  0  0  0  0  0  0  0  0  0
   12.5971   17.0376    0.1346 C   0  0  0  0  0  0  0  0  0  0  0  0
   13.1532   17.7706    1.1868 C   0  0  0  0  0  0  0  0  0  0  0  0
   14.3862   18.6491    0.9892 C   0  0  0  0  0  0  0  0  0  0  0  0
   15.4662   17.9895    0.2376 N   0  0  0  0  0  0  0  0  0  0  0  0
   16.8307   18.4166    0.6238 C   0  0  0  0  0  0  0  0  0  0  0  0
   17.5210   17.3650    1.4871 C   0  0  0  0  0  0  0  0  0  0  0  0
   16.8735   16.9722    2.6641 C   0  0  0  0  0  0  0  0  0  0  0  0
   17.2286   15.8091    3.3360 C   0  0  0  0  0  0  0  0  0  0  0  0
   18.3048   15.0589    2.8572 C   0  0  0  0  0  0  0  0  0  0  0  0
   18.8993   13.8325    3.2008 C   0  0  0  0  0  0  0  0  0  0  0  0
   19.9386   13.5336    2.4254 N   0  0  0  0  0  0  0  0  0  0  0  0
   20.0476   14.6061    1.6180 N   0  0  0  0  0  0  0  0  0  0  0  0
   19.0469   15.5320    1.7834 C   0  0  0  0  0  0  0  0  0  0  0  0
   18.6914   16.6912    1.0727 C   0  0  0  0  0  0  0  0  0  0  0  0
   12.4975   17.7104    2.4289 C   0  0  0  0  0  0  0  0  0  0  0  0
   11.3646   16.8922    2.6297 C   0  0  0  0  0  0  0  0  0  0  0  0
    9.6565   13.9787    1.0372 N   0  0  0  0  0  0  0  0  0  0  0  0
    8.7429   13.1010    1.4647 N   0  0  0  0  0  0  0  0  0  0  0  0
  1  2  1  0
  2  3  2  0
  3  4  1  0
  4  5  2  0
  5  6  1  0
  6  7  2  0
  7  8  1  0
  8  9  1  0
  9 10  1  0
 10 11  1  0
 11 12  2  0
 12 13  1  0
 13 14  2  0
 14 15  1  0
 15 16  2  0
 16 17  1  0
 17 18  1  0
 18 19  2  0
  7 20  1  0
 20 21  2  0
  3 22  1  0
 22 23  1  0
 23  1  2  0
 21  4  1  0
 19 11  1  0
 18 14  1  0
M  END
>  <energy_score>  (19) 
-20.688134

>  <inchikey>  (19) 
MOLXQHJGKHTSPF-UHFFFAOYSA-N

>  <smiles>  (19) 
c1cc(-c2ccc(CNCc3ccc4cn[nH]c4c3)cc2)[nH]n1

>  <ref_pdb>  (19) 
A0486a

>  <alias>  (19) 
C102808-P9

>  <HIPPO Pose ID>  (19) 
165073

>  <name>  (19) 
C102808-P9

>  <HIPPO Compound ID>  (19) 
102808

>  <ref_mols>  (19) 
A0486a,A0717a

>  <distance_score>  (19) 
1.848816

>  <inspiration_score>  (19) 
None

$$$$
C47021-P439
     RDKit          3D

 23 24  0  0  0  0  0  0  0  0999 V2000
   14.5739   14.2116   30.2295 C   0  0  0  0  0  0  0  0  0  0  0  0
   14.7584   13.8447   28.8645 O   0  0  0  0  0  0  0  0  0  0  0  0
   15.2664   12.5096   28.7657 C   0  0  0  0  0  0  0  0  0  0  0  0
   15.1986   12.0671   27.2993 C   0  0  1  0  0  0  0  0  0  0  0  0
   16.0600   10.8302   27.1155 C   0  0  0  0  0  0  0  0  0  0  0  0
   13.7973   11.8576   26.9788 O   0  0  0  0  0  0  0  0  0  0  0  0
   13.5010   11.9818   25.6598 C   0  0  0  0  0  0  0  0  0  0  0  0
   14.2688   11.6868   24.7540 O   0  0  0  0  0  0  0  0  0  0  0  0
   12.1383   12.6034   25.4328 C   0  0  0  0  0  0  0  0  0  0  0  0
   12.2325   13.4998   24.2035 C   0  0  0  0  0  0  0  0  0  0  0  0
   10.9524   14.2370   23.9067 C   0  0  0  0  0  0  0  0  0  0  0  0
    9.7709   13.3658   24.1118 N   0  0  0  0  0  0  0  0  0  0  0  0
    8.7118   13.9986   25.2356 S   0  0  0  0  0  0  0  0  0  0  0  0
    8.4414   15.3411   24.7829 O   0  0  0  0  0  0  0  0  0  0  0  0
    9.2563   13.7703   26.5535 O   0  0  0  0  0  0  0  0  0  0  0  0
    7.3296   13.0568   25.0254 N   0  0  0  0  0  0  0  0  0  0  0  0
    7.2715   11.7453   25.7289 C   0  0  0  0  0  0  0  0  0  0  0  0
    6.0748   11.6298   26.6655 C   0  0  0  0  0  0  0  0  0  0  0  0
    5.8656   12.8992   27.4763 C   0  0  0  0  0  0  0  0  0  0  0  0
    5.7274   14.1274   26.5741 C   0  0  0  0  0  0  0  0  0  0  0  0
    6.0589   13.8240   25.1144 C   0  0  0  0  0  0  0  0  0  0  0  0
   10.0820   11.9357   24.0797 C   0  0  0  0  0  0  0  0  0  0  0  0
   11.0103   11.5872   25.2395 C   0  0  0  0  0  0  0  0  0  0  0  0
  1  2  1  0
  2  3  1  0
  3  4  1  0
  4  5  1  1
  4  6  1  0
  6  7  1  0
  7  8  2  0
  7  9  1  0
  9 10  1  0
 10 11  1  0
 11 12  1  0
 12 13  1  0
 13 14  2  0
 13 15  2  0
 13 16  1  0
 16 17  1  0
 17 18  1  0
 18 19  1  0
 19 20  1  0
 20 21  1  0
 12 22  1  0
 22 23  1  0
 23  9  1  0
 21 16  1  0
M  END
>  <energy_score>  (20) 
-53.642925

>  <inchikey>  (20) 
HYTGBCNVCLBUHL-UHFFFAOYSA-N

>  <smiles>  (20) 
COC[C@@H](C)OC(=O)C1CCN(S(=O)(=O)N2CCCCC2)CC1

>  <ref_pdb>  (20) 
A4706a

>  <alias>  (20) 
C47021-P439

>  <HIPPO Pose ID>  (20) 
170310

>  <name>  (20) 
C47021-P439

>  <HIPPO Compound ID>  (20) 
47021

>  <ref_mols>  (20) 
A4706a,A0875a

>  <distance_score>  (20) 
1.546714

>  <inspiration_score>  (20) 
None

$$$$
C46596-P257
     RDKit          3D

 22 23  0  0  0  0  0  0  0  0999 V2000
    8.0322   10.2524   24.9864 C   0  0  0  0  0  0  0  0  0  0  0  0
    8.9469   11.0083   24.1994 N   0  0  0  0  0  0  0  0  0  0  0  0
    9.7308   12.2081   24.5263 C   0  0  0  0  0  0  0  0  0  0  0  0
    9.8454   12.7793   25.5376 O   0  0  0  0  0  0  0  0  0  0  0  0
   10.3085   12.4945   23.2070 N   0  0  0  0  0  0  0  0  0  0  0  0
   11.0967   13.5986   22.7520 C   0  0  0  0  0  0  0  0  0  0  0  0
   10.2948   14.9420   22.8056 C   0  0  1  0  0  0  0  0  0  0  0  0
   11.2119   16.1711   22.9135 C   0  0  0  0  0  0  0  0  0  0  0  0
   11.2945   16.8926   21.5999 C   0  0  0  0  0  0  0  0  0  0  0  0
   10.9979   15.9225   20.4943 C   0  0  0  0  0  0  0  0  0  0  0  0
    9.8164   15.0252   20.8664 C   0  0  0  0  0  0  0  0  0  0  0  0
    8.9540   15.2259   22.0687 N   0  0  0  0  0  0  0  0  0  0  0  0
    7.9095   14.4110   22.6159 C   0  0  0  0  0  0  0  0  0  0  0  0
    7.5229   13.3140   22.2983 O   0  0  0  0  0  0  0  0  0  0  0  0
    7.2193   15.2048   23.7246 C   0  0  0  0  0  0  0  0  0  0  0  0
    6.3377   14.3009   24.5861 C   0  0  0  0  0  0  0  0  0  0  0  0
    5.9155   14.9429   25.9229 C   0  0  2  0  0  0  0  0  0  0  0  0
    5.0676   13.9542   26.7425 C   0  0  0  0  0  0  0  0  0  0  0  0
    3.6524   13.8216   26.1826 C   0  0  0  0  0  0  0  0  0  0  0  0
    3.0035   15.1878   25.9798 C   0  0  0  0  0  0  0  0  0  0  0  0
    3.8255   16.0790   25.1634 N   0  0  0  0  0  0  0  0  0  0  0  0
    5.1481   16.2676   25.7663 C   0  0  0  0  0  0  0  0  0  0  0  0
  1  2  1  0
  2  3  1  0
  3  4  2  0
  3  5  1  0
  5  6  1  0
  7  6  1  6
  7  8  1  0
  8  9  1  0
  9 10  1  0
 10 11  1  0
 11 12  1  0
 12 13  1  0
 13 14  2  0
 13 15  1  0
 15 16  1  0
 17 16  1  6
 17 18  1  0
 18 19  1  0
 19 20  1  0
 20 21  1  0
 21 22  1  0
 12  7  1  0
 22 17  1  0
M  END
>  <energy_score>  (21) 
55.238462

>  <inchikey>  (21) 
FEDASQWRWJBYJV-UHFFFAOYSA-N

>  <smiles>  (21) 
CNC(=O)NC[C@H]1CCCCN1C(=O)CC[C@@H]1CCCNC1

>  <ref_pdb>  (21) 
A3986b

>  <alias>  (21) 
C46596-P257

>  <HIPPO Pose ID>  (21) 
172717

>  <name>  (21) 
C46596-P257

>  <HIPPO Compound ID>  (21) 
46596

>  <ref_mols>  (21) 
A3986b,A1779a

>  <distance_score>  (21) 
1.52404

>  <inspiration_score>  (21) 
None

$$$$
C4120-P465
     RDKit          3D

 21 23  0  0  0  0  0  0  0  0999 V2000
    8.9300    8.8074   24.6816 O   0  0  0  0  0  0  0  0  0  0  0  0
    8.7203   10.0131   24.6437 C   0  0  0  0  0  0  0  0  0  0  0  0
    9.7069   10.9523   24.0241 C   0  0  0  0  0  0  0  0  0  0  0  0
    9.4362   12.4130   24.2952 C   0  0  0  0  0  0  0  0  0  0  0  0
    8.5949   13.0848   23.2039 C   0  0  0  0  0  0  0  0  0  0  0  0
    7.4505   12.7629   23.0270 O   0  0  0  0  0  0  0  0  0  0  0  0
    9.3720   14.1217   22.6041 N   0  0  0  0  0  0  0  0  0  0  0  0
    9.2644   15.3649   23.4058 C   0  0  0  0  0  0  0  0  0  0  0  0
   10.6118   16.1082   23.3727 C   0  0  0  0  0  0  0  0  0  0  0  0
   10.7642   16.7636   22.0224 C   0  0  0  0  0  0  0  0  0  0  0  0
    9.4076   16.6532   21.3716 C   0  0  0  0  0  0  0  0  0  0  0  0
    9.0263   15.1237   21.4161 C   0  0  1  0  0  0  0  0  0  0  0  0
    9.8662   14.6396   20.2486 C   0  0  0  0  0  0  0  0  0  0  0  0
    9.7707   15.0929   19.0119 N   0  0  0  0  0  0  0  0  0  0  0  0
   11.0521   15.0956   18.5472 C   0  0  0  0  0  0  0  0  0  0  0  0
   11.9049   14.5407   19.4564 C   0  0  0  0  0  0  0  0  0  0  0  0
   11.1123   14.1065   20.4656 N   0  0  0  0  0  0  0  0  0  0  0  0
    8.7895   12.6313   25.6573 C   0  0  0  0  0  0  0  0  0  0  0  0
    7.6309   11.7062   25.9170 C   0  0  0  0  0  0  0  0  0  0  0  0
    6.8189   11.9107   26.8156 O   0  0  0  0  0  0  0  0  0  0  0  0
    7.6089   10.5451   25.2142 N   0  0  0  0  0  0  0  0  0  0  0  0
  1  2  2  0
  2  3  1  0
  3  4  1  0
  4  5  1  0
  5  6  2  0
  5  7  1  0
  7  8  1  0
  8  9  1  0
  9 10  1  0
 10 11  1  0
 11 12  1  0
 12 13  1  6
 13 14  2  0
 14 15  1  0
 15 16  2  0
 16 17  1  0
  4 18  1  0
 18 19  1  0
 19 20  2  0
 19 21  1  0
 21  2  1  0
 12  7  1  0
 17 13  1  0
M  END
>  <energy_score>  (22) 
39.637811

>  <inchikey>  (22) 
KDADROVQHHWUNE-UHFFFAOYSA-N

>  <smiles>  (22) 
O=C1CC(C(=O)N2CCCC[C@H]2c2ncc[nH]2)CC(=O)N1

>  <ref_pdb>  (22) 
A4786a

>  <alias>  (22) 
C4120-P465

>  <HIPPO Pose ID>  (22) 
177973

>  <name>  (22) 
C4120-P465

>  <HIPPO Compound ID>  (22) 
4120

>  <ref_mols>  (22) 
A4786a,A1209a

>  <distance_score>  (22) 
1.154844

>  <inspiration_score>  (22) 
None

$$$$
C45979-P228
     RDKit          3D

 23 25  0  0  0  0  0  0  0  0999 V2000
   11.3720   14.6438   18.5138 C   0  0  0  0  0  0  0  0  0  0  0  0
   10.6385   15.8469   18.9741 C   0  0  0  0  0  0  0  0  0  0  0  0
   11.5467   16.8171   19.1595 F   0  0  0  0  0  0  0  0  0  0  0  0
    9.8182   16.2939   17.9887 F   0  0  0  0  0  0  0  0  0  0  0  0
    9.8202   15.7687   20.2430 C   0  0  0  0  0  0  0  0  0  0  0  0
   10.3781   15.2908   21.5261 N   0  0  0  0  0  0  0  0  0  0  0  0
   11.6984   15.8552   21.8089 C   0  0  0  0  0  0  0  0  0  0  0  0
   12.1706   15.3284   23.1572 C   0  0  0  0  0  0  0  0  0  0  0  0
   11.2551   15.7794   24.2814 C   0  0  0  0  0  0  0  0  0  0  0  0
    9.8000   15.4291   24.0024 C   0  0  2  0  0  0  0  0  0  0  0  0
    9.3690   13.8312   24.6750 S   0  0  0  0  0  0  0  0  0  0  0  0
   10.3698   12.8482   24.3143 O   0  0  0  0  0  0  0  0  0  0  0  0
    9.0678   14.0619   26.0775 O   0  0  0  0  0  0  0  0  0  0  0  0
    7.8870   13.4169   23.9208 N   0  0  0  0  0  0  0  0  0  0  0  0
    6.7608   14.4128   24.0900 C   0  0  0  0  0  0  0  0  0  0  0  0
    5.8940   13.9206   25.2539 C   0  0  0  0  0  0  0  0  0  0  0  0
    6.2346   12.4725   25.2707 C   0  0  0  0  0  0  0  0  0  0  0  0
    5.6145   11.4680   25.9802 C   0  0  0  0  0  0  0  0  0  0  0  0
    6.1058   10.1743   25.8307 C   0  0  0  0  0  0  0  0  0  0  0  0
    7.2355    9.9128   25.0341 C   0  0  0  0  0  0  0  0  0  0  0  0
    7.8889   10.9435   24.3691 C   0  0  0  0  0  0  0  0  0  0  0  0
    7.3591   12.2101   24.4894 C   0  0  0  0  0  0  0  0  0  0  0  0
    9.4027   15.6699   22.5578 C   0  0  0  0  0  0  0  0  0  0  0  0
  1  2  1  0
  2  3  1  0
  2  4  1  0
  2  5  1  0
  5  6  1  0
  6  7  1  0
  7  8  1  0
  8  9  1  0
  9 10  1  0
 10 11  1  6
 11 12  2  0
 11 13  2  0
 11 14  1  0
 14 15  1  0
 15 16  1  0
 16 17  1  0
 17 18  2  0
 18 19  1  0
 19 20  2  0
 20 21  1  0
 21 22  2  0
 10 23  1  0
 23  6  1  0
 22 14  1  0
 22 17  1  0
M  END
>  <energy_score>  (23) 
-51.911721

>  <inchikey>  (23) 
RBXTZVLYSUIEGL-UHFFFAOYSA-N

>  <smiles>  (23) 
CC(F)(F)CN1CCC[C@H](S(=O)(=O)N2CCc3ccccc32)C1

>  <ref_pdb>  (23) 
A3868a

>  <alias>  (23) 
C45979-P228

>  <HIPPO Pose ID>  (23) 
180750

>  <name>  (23) 
C45979-P228

>  <HIPPO Compound ID>  (23) 
45979

>  <ref_mols>  (23) 
A1778a,A3868a

>  <distance_score>  (23) 
0.979673

>  <inspiration_score>  (23) 
None

$$$$
C46686-P93
     RDKit          3D

 22 24  0  0  0  0  0  0  0  0999 V2000
    5.6971   12.9480   25.0783 C   0  0  0  0  0  0  0  0  0  0  0  0
    6.1962   14.0441   24.1788 N   0  0  0  0  0  0  0  0  0  0  0  0
    7.2561   14.0883   25.2476 C   0  0  0  0  0  0  0  0  0  0  0  0
    8.3492   15.0566   24.7468 C   0  0  0  0  0  0  0  0  0  0  0  0
    9.1125   14.6392   23.5956 N   0  0  0  0  0  0  0  0  0  0  0  0
   10.2257   13.8472   23.6164 C   0  0  0  0  0  0  0  0  0  0  0  0
   10.6828   13.8514   22.3188 C   0  0  0  0  0  0  0  0  0  0  0  0
    9.8742   14.6178   21.5208 N   0  0  0  0  0  0  0  0  0  0  0  0
    8.9750   15.1285   22.3276 C   0  0  0  0  0  0  0  0  0  0  0  0
    5.0869   15.0281   23.8435 C   0  0  0  0  0  0  0  0  0  0  0  0
    4.7511   16.0137   24.3935 O   0  0  0  0  0  0  0  0  0  0  0  0
    4.5015   14.5820   22.5572 C   0  0  0  0  0  0  0  0  0  0  0  0
    5.3191   14.3188   21.4358 C   0  0  0  0  0  0  0  0  0  0  0  0
    4.4693   13.9618   20.4324 C   0  0  0  0  0  0  0  0  0  0  0  0
    3.2362   13.8690   20.9886 N   0  0  0  0  0  0  0  0  0  0  0  0
    2.0774   13.1931   20.4139 C   0  0  1  0  0  0  0  0  0  0  0  0
    2.0774   13.1095   18.8761 C   0  0  0  0  0  0  0  0  0  0  0  0
    2.9639   12.0117   18.2937 C   0  0  0  0  0  0  0  0  0  0  0  0
    2.8765   10.7023   19.0643 C   0  0  0  0  0  0  0  0  0  0  0  0
    2.9272   10.8444   20.5008 N   0  0  0  0  0  0  0  0  0  0  0  0
    1.9220   11.7866   21.0032 C   0  0  0  0  0  0  0  0  0  0  0  0
    3.1968   14.4062   22.2476 N   0  0  0  0  0  0  0  0  0  0  0  0
  1  2  1  0
  2  3  1  0
  3  4  1  0
  4  5  1  0
  5  6  1  0
  6  7  2  0
  7  8  1  0
  8  9  2  0
  2 10  1  0
 10 11  2  0
 10 12  1  0
 12 13  1  0
 13 14  2  0
 14 15  1  0
 16 15  1  1
 16 17  1  0
 17 18  1  0
 18 19  1  0
 19 20  1  0
 20 21  1  0
 15 22  1  0
  9  5  1  0
 22 12  2  0
 21 16  1  0
M  END
>  <energy_score>  (24) 
47.604667

>  <inchikey>  (24) 
GWOLOIVXCHIADQ-UHFFFAOYSA-N

>  <smiles>  (24) 
CN(CCn1ccnc1)C(=O)c1ccn([C@H]2CCCNC2)n1

>  <ref_pdb>  (24) 
A0926a

>  <alias>  (24) 
C46686-P93

>  <HIPPO Pose ID>  (24) 
184844

>  <name>  (24) 
C46686-P93

>  <HIPPO Compound ID>  (24) 
46686

>  <ref_mols>  (24) 
A1180a,A0926a

>  <distance_score>  (24) 
2.058213

>  <inspiration_score>  (24) 
None

$$$$
C105126-P273
     RDKit          3D

 21 22  0  0  0  0  0  0  0  0999 V2000
    4.1052   12.0909   29.5769 C   0  0  0  0  0  0  0  0  0  0  0  0
    4.6251   11.0620   28.7404 O   0  0  0  0  0  0  0  0  0  0  0  0
    5.4547   11.5450   27.7479 C   0  0  0  0  0  0  0  0  0  0  0  0
    5.9337   10.6129   26.8425 C   0  0  0  0  0  0  0  0  0  0  0  0
    6.7801   11.0393   25.8344 C   0  0  0  0  0  0  0  0  0  0  0  0
    7.1023   12.3931   25.7388 C   0  0  0  0  0  0  0  0  0  0  0  0
    8.0429   12.8333   24.6659 C   0  0  0  0  0  0  0  0  0  0  0  0
    7.6589   14.1252   23.8825 C   0  0  0  0  0  0  0  0  0  0  0  0
    8.8011   14.8082   23.1618 N   0  0  0  0  0  0  0  0  0  0  0  0
    8.5964   13.6387   22.2608 C   0  0  0  0  0  0  0  0  0  0  0  0
   10.2518   14.9574   23.5411 C   0  0  0  0  0  0  0  0  0  0  0  0
   10.8525   14.5081   24.4495 O   0  0  0  0  0  0  0  0  0  0  0  0
   10.9878   15.7504   22.4672 C   0  0  1  0  0  0  0  0  0  0  0  0
   11.9336   14.7058   21.8595 C   0  0  0  0  0  0  0  0  0  0  0  0
   12.3470   15.0649   20.4666 C   0  0  0  0  0  0  0  0  0  0  0  0
   11.1643   15.2248   19.5715 C   0  0  0  0  0  0  0  0  0  0  0  0
   11.1526   14.7957   18.4271 O   0  0  0  0  0  0  0  0  0  0  0  0
   10.1093   15.8845   20.1234 N   0  0  0  0  0  0  0  0  0  0  0  0
   10.1715   16.5274   21.4189 C   0  0  0  0  0  0  0  0  0  0  0  0
    6.5875   13.2486   26.7078 C   0  0  0  0  0  0  0  0  0  0  0  0
    5.7794   12.8518   27.7150 N   0  0  0  0  0  0  0  0  0  0  0  0
  1  2  1  0
  2  3  1  0
  3  4  2  0
  4  5  1  0
  5  6  2  0
  6  7  1  0
  7  8  1  0
  8  9  1  0
  9 10  1  0
  9 11  1  0
 11 12  2  0
 13 11  1  1
 13 14  1  0
 14 15  1  0
 15 16  1  0
 16 17  2  0
 16 18  1  0
 18 19  1  0
  6 20  1  0
 20 21  2  0
 21  3  1  0
 19 13  1  0
M  END
>  <energy_score>  (25) 
53.445984

>  <inchikey>  (25) 
LAQMOCRJNXWRNA-UHFFFAOYSA-N

>  <smiles>  (25) 
COc1ccc(CCN(C)C(=O)[C@H]2CCC(=O)NC2)cn1

>  <ref_pdb>  (25) 
A4029a

>  <alias>  (25) 
C105126-P273

>  <HIPPO Pose ID>  (25) 
185670

>  <name>  (25) 
C105126-P273

>  <HIPPO Compound ID>  (25) 
105126

>  <ref_mols>  (25) 
A4029a,A2629a

>  <distance_score>  (25) 
1.940224

>  <inspiration_score>  (25) 
None

$$$$
C2124-P138
     RDKit          3D

 21 22  0  0  0  0  0  0  0  0999 V2000
   11.3106   15.7313   24.4963 C   0  0  0  0  0  0  0  0  0  0  0  0
   11.4028   15.3569   23.0264 C   0  0  0  0  0  0  0  0  0  0  0  0
   11.1356   13.9562   22.8762 O   0  0  0  0  0  0  0  0  0  0  0  0
    9.8258   13.6118   23.0054 C   0  0  0  0  0  0  0  0  0  0  0  0
    8.9533   14.4086   23.1493 O   0  0  0  0  0  0  0  0  0  0  0  0
    9.7997   12.2131   23.0177 N   0  0  0  0  0  0  0  0  0  0  0  0
    8.7324   11.2907   23.3009 C   0  0  2  0  0  0  0  0  0  0  0  0
    8.4427   11.2291   24.7867 C   0  0  0  0  0  0  0  0  0  0  0  0
    8.0928    9.8126   25.1863 C   0  0  0  0  0  0  0  0  0  0  0  0
    8.7526    8.7212   24.2720 C   0  0  0  0  0  0  0  0  0  0  0  0
    7.8224    8.8264   23.1743 N   0  0  0  0  0  0  0  0  0  0  0  0
    7.4698    7.8363   22.0540 C   0  0  0  0  0  0  0  0  0  0  0  0
    7.9742    6.7729   21.7949 O   0  0  0  0  0  0  0  0  0  0  0  0
    5.8662    8.1509   20.9011 C   0  0  0  0  0  0  0  0  0  0  0  0
    4.3746    8.8100   19.8398 C   0  0  0  0  0  0  0  0  0  0  0  0
    3.7310   10.2109   19.9871 C   0  0  0  0  0  0  0  0  0  0  0  0
    3.7532   11.3010   19.1390 C   0  0  0  0  0  0  0  0  0  0  0  0
    2.9234   12.2326   19.7033 N   0  0  0  0  0  0  0  0  0  0  0  0
    2.3873   11.6694   20.8181 C   0  0  0  0  0  0  0  0  0  0  0  0
    2.8403   10.4535   20.9957 N   0  0  0  0  0  0  0  0  0  0  0  0
    8.9113    9.8752   22.6859 C   0  0  0  0  0  0  0  0  0  0  0  0
  1  2  1  0
  2  3  1  0
  3  4  1  0
  4  5  2  0
  4  6  1  0
  7  6  1  1
  7  8  1  0
  8  9  1  0
  9 10  1  0
 10 11  1  0
 11 12  1  0
 12 13  2  0
 12 14  1  0
 14 15  1  0
 15 16  1  0
 16 17  2  0
 17 18  1  0
 18 19  1  0
 19 20  2  0
 11 21  1  0
 21  7  1  0
 20 16  1  0
M  END
>  <energy_score>  (26) 
310.477145

>  <inchikey>  (26) 
YZZSISWBYNOQBH-UHFFFAOYSA-N

>  <smiles>  (26) 
CCOC(=O)N[C@@H]1CCCN(C(=O)CCc2c[nH]cn2)C1

>  <ref_pdb>  (26) 
A3054a

>  <alias>  (26) 
C2124-P138

>  <HIPPO Pose ID>  (26) 
198999

>  <name>  (26) 
C2124-P138

>  <HIPPO Compound ID>  (26) 
2124

>  <ref_mols>  (26) 
A1180a,A3054a

>  <distance_score>  (26) 
2.224937

>  <inspiration_score>  (26) 
None

$$$$
C46492-P557
     RDKit          3D

 23 25  0  0  0  0  0  0  0  0999 V2000
   12.0036   13.9963   25.5773 O   0  0  0  0  0  0  0  0  0  0  0  0
   11.0158   14.4511   25.1614 C   0  0  0  0  0  0  0  0  0  0  0  0
   10.8813   15.9121   24.8621 C   0  0  0  0  0  0  0  0  0  0  0  0
   11.2352   16.0768   23.4036 C   0  0  0  0  0  0  0  0  0  0  0  0
   10.0416   16.3294   22.5955 C   0  0  0  0  0  0  0  0  0  0  0  0
    9.0094   15.5509   22.3433 N   0  0  0  0  0  0  0  0  0  0  0  0
    8.8677   15.9079   21.0051 C   0  0  0  0  0  0  0  0  0  0  0  0
    9.7212   15.1349   20.0733 C   0  0  0  0  0  0  0  0  0  0  0  0
   10.4943   14.1845   20.7230 C   0  0  0  0  0  0  0  0  0  0  0  0
   11.8300   14.1485   20.4342 C   0  0  0  0  0  0  0  0  0  0  0  0
   12.3016   14.8772   19.3778 C   0  0  0  0  0  0  0  0  0  0  0  0
   11.4138   15.6087   18.6248 C   0  0  0  0  0  0  0  0  0  0  0  0
   10.1275   15.7767   18.9562 N   0  0  0  0  0  0  0  0  0  0  0  0
    8.9781   17.2520   20.9194 N   0  0  0  0  0  0  0  0  0  0  0  0
   10.0726   17.4292   21.7742 O   0  0  0  0  0  0  0  0  0  0  0  0
    9.6947   13.7683   24.7548 N   0  0  0  0  0  0  0  0  0  0  0  0
    9.2851   12.4090   24.8631 C   0  0  0  0  0  0  0  0  0  0  0  0
    7.8217   12.1225   24.6143 C   0  0  2  0  0  0  0  0  0  0  0  0
    6.8443   12.9090   25.5062 C   0  0  0  0  0  0  0  0  0  0  0  0
    6.4832   12.2337   26.8261 C   0  0  0  0  0  0  0  0  0  0  0  0
    6.2433   10.7405   26.6828 C   0  0  0  0  0  0  0  0  0  0  0  0
    7.4108   10.1016   26.0840 N   0  0  0  0  0  0  0  0  0  0  0  0
    7.6236   10.6092   24.7368 C   0  0  0  0  0  0  0  0  0  0  0  0
  1  2  2  0
  2  3  1  0
  3  4  1  0
  4  5  1  0
  5  6  2  0
  6  7  1  0
  7  8  1  0
  8  9  2  0
  9 10  1  0
 10 11  2  0
 11 12  1  0
 12 13  2  0
  7 14  2  0
 14 15  1  0
  2 16  1  0
 16 17  1  0
 18 17  1  1
 18 19  1  0
 19 20  1  0
 20 21  1  0
 21 22  1  0
 22 23  1  0
 15  5  1  0
 23 18  1  0
 13  8  1  0
M  END
>  <energy_score>  (27) 
31.758901

>  <inchikey>  (27) 
KEAWWPSTAFAMJW-UHFFFAOYSA-N

>  <smiles>  (27) 
O=C(CCc1nc(-c2ccccn2)no1)NC[C@@H]1CCCNC1

>  <ref_pdb>  (27) 
A5079a

>  <alias>  (27) 
C46492-P557

>  <HIPPO Pose ID>  (27) 
201694

>  <name>  (27) 
C46492-P557

>  <HIPPO Compound ID>  (27) 
46492

>  <ref_mols>  (27) 
A5079a,A2629a

>  <distance_score>  (27) 
1.927489

>  <inspiration_score>  (27) 
None

$$$$
C124752-P87
     RDKit          3D

 21 23  0  0  0  0  0  0  0  0999 V2000
    8.1379   14.6453   21.2388 O   0  0  0  0  0  0  0  0  0  0  0  0
    8.7400   14.9239   22.2110 C   0  0  0  0  0  0  0  0  0  0  0  0
    8.1044   14.8433   23.5559 C   0  0  0  0  0  0  0  0  0  0  0  0
    6.9843   13.8089   23.7565 C   0  0  0  0  0  0  0  0  0  0  0  0
    7.2466   12.7677   24.8650 C   0  0  0  0  0  0  0  0  0  0  0  0
    8.4599   11.9592   24.7410 N   0  0  0  0  0  0  0  0  0  0  0  0
    8.2859   10.6048   25.1663 C   0  0  0  0  0  0  0  0  0  0  0  0
    9.3971    9.6546   24.7791 C   0  0  0  0  0  0  0  0  0  0  0  0
    9.8034    9.6596   23.3547 C   0  0  0  0  0  0  0  0  0  0  0  0
   10.2089   11.0588   23.1391 C   0  0  0  0  0  0  0  0  0  0  0  0
    9.1190   12.0433   23.4730 C   0  0  0  0  0  0  0  0  0  0  0  0
   10.1446   15.4915   22.3711 N   0  0  0  0  0  0  0  0  0  0  0  0
   11.1231   15.9504   21.3537 C   0  0  0  0  0  0  0  0  0  0  0  0
   12.2636   15.1575   21.7983 C   0  0  0  0  0  0  0  0  0  0  0  0
   11.2377   14.3247   22.4881 C   0  0  1  0  0  0  0  0  0  0  0  0
   11.7594   13.6428   23.8384 C   0  0  0  0  0  0  0  0  0  0  0  0
   12.8113   12.7364   23.6791 C   0  0  0  0  0  0  0  0  0  0  0  0
   13.5092   12.0914   24.7024 C   0  0  0  0  0  0  0  0  0  0  0  0
   13.1507   12.3738   25.9909 C   0  0  0  0  0  0  0  0  0  0  0  0
   12.0534   13.2017   26.2015 C   0  0  0  0  0  0  0  0  0  0  0  0
   11.3208   13.7548   25.1478 C   0  0  0  0  0  0  0  0  0  0  0  0
  1  2  2  0
  2  3  1  0
  3  4  1  0
  4  5  1  0
  5  6  1  0
  6  7  1  0
  7  8  1  0
  8  9  1  0
  9 10  1  0
 10 11  1  0
  2 12  1  0
 12 13  1  0
 13 14  1  0
 14 15  1  0
 15 16  1  1
 16 17  2  0
 17 18  1  0
 18 19  2  0
 19 20  1  0
 20 21  2  0
 11  6  1  0
 15 12  1  0
 21 16  1  0
M  END
>  <energy_score>  (28) 
46.163301

>  <inchikey>  (28) 
ISSCSRGHWYYCPW-UHFFFAOYSA-N

>  <smiles>  (28) 
O=C(CCCN1CCCCC1)N1CC[C@H]1c1ccccc1

>  <ref_pdb>  (28) 
A0875a

>  <alias>  (28) 
C124752-P87

>  <HIPPO Pose ID>  (28) 
208197

>  <name>  (28) 
C124752-P87

>  <HIPPO Compound ID>  (28) 
124752

>  <ref_mols>  (28) 
A4715a,A0875a

>  <distance_score>  (28) 
2.282718

>  <inspiration_score>  (28) 
None

$$$$
C46019-P439
     RDKit          3D

 22 24  0  0  0  0  0  0  0  0999 V2000
    8.7240   10.2320   25.1015 C   0  0  0  0  0  0  0  0  0  0  0  0
   10.1773   10.3024   24.7275 C   0  0  0  0  0  0  0  0  0  0  0  0
   10.6120   11.6734   24.6326 O   0  0  0  0  0  0  0  0  0  0  0  0
   10.2807   12.2537   23.4413 C   0  0  0  0  0  0  0  0  0  0  0  0
    9.6919   11.6500   22.5667 O   0  0  0  0  0  0  0  0  0  0  0  0
   10.7748   13.6765   23.3477 C   0  0  1  0  0  0  0  0  0  0  0  0
   11.1074   14.1238   21.9419 C   0  0  0  0  0  0  0  0  0  0  0  0
    9.8242   14.6175   21.3219 C   0  0  0  0  0  0  0  0  0  0  0  0
    9.1724   15.5632   22.3314 C   0  0  0  0  0  0  0  0  0  0  0  0
    8.3789   15.0168   23.5094 N   0  0  0  0  0  0  0  0  0  0  0  0
    7.4742   13.8090   23.6122 C   0  0  0  0  0  0  0  0  0  0  0  0
    7.2373   12.9661   22.8261 O   0  0  0  0  0  0  0  0  0  0  0  0
    6.8912   13.6714   24.9980 C   0  0  0  0  0  0  0  0  0  0  0  0
    6.3066   12.4356   25.3443 C   0  0  0  0  0  0  0  0  0  0  0  0
    5.9035   12.1426   26.6494 C   0  0  0  0  0  0  0  0  0  0  0  0
    6.0299   13.1326   27.5966 C   0  0  0  0  0  0  0  0  0  0  0  0
    6.5732   14.3740   27.2601 C   0  0  0  0  0  0  0  0  0  0  0  0
    6.9980   14.6686   25.9715 C   0  0  0  0  0  0  0  0  0  0  0  0
    6.6497   15.2185   28.4856 C   0  0  0  0  0  0  0  0  0  0  0  0
    5.7556   14.4051   29.4394 C   0  0  0  0  0  0  0  0  0  0  0  0
    5.7555   13.0009   28.9800 N   0  0  0  0  0  0  0  0  0  0  0  0
    9.8093   14.6852   23.9810 C   0  0  0  0  0  0  0  0  0  0  0  0
  1  2  1  0
  2  3  1  0
  3  4  1  0
  4  5  2  0
  6  4  1  6
  6  7  1  0
  7  8  1  0
  8  9  1  0
  9 10  1  0
 10 11  1  0
 11 12  2  0
 11 13  1  0
 13 14  2  0
 14 15  1  0
 15 16  2  0
 16 17  1  0
 17 18  2  0
 17 19  1  0
 19 20  1  0
 20 21  1  0
 10 22  1  0
 22  6  1  0
 18 13  1  0
 21 16  1  0
M  END
>  <energy_score>  (29) 
54.347793

>  <inchikey>  (29) 
KMTBLQZQABEFPL-UHFFFAOYSA-N

>  <smiles>  (29) 
CCOC(=O)[C@H]1CCCN(C(=O)c2ccc3c(c2)CCN3)C1

>  <ref_pdb>  (29) 
A4706a

>  <alias>  (29) 
C46019-P439

>  <HIPPO Pose ID>  (29) 
215801

>  <name>  (29) 
C46019-P439

>  <HIPPO Compound ID>  (29) 
46019

>  <ref_mols>  (29) 
A1778a,A4706a

>  <distance_score>  (29) 
1.53229

>  <inspiration_score>  (29) 
None

$$$$
C21631-P384
     RDKit          3D

 20 22  0  0  0  0  0  0  0  0999 V2000
    8.0523   14.3320   21.9614 O   0  0  0  0  0  0  0  0  0  0  0  0
    8.3781   14.2721   23.0913 C   0  0  0  0  0  0  0  0  0  0  0  0
    7.7533   13.2916   24.0480 C   0  0  0  0  0  0  0  0  0  0  0  0
    8.8062   12.3318   24.5200 C   0  0  0  0  0  0  0  0  0  0  0  0
    8.3643   10.9903   24.7056 N   0  0  0  0  0  0  0  0  0  0  0  0
    9.0525    9.9104   24.2584 C   0  0  0  0  0  0  0  0  0  0  0  0
    8.3176    8.8567   24.7081 C   0  0  0  0  0  0  0  0  0  0  0  0
    7.1874    9.2732   25.3653 N   0  0  0  0  0  0  0  0  0  0  0  0
    7.2568   10.5817   25.3709 C   0  0  0  0  0  0  0  0  0  0  0  0
    9.3441   15.1411   23.8857 N   0  0  0  0  0  0  0  0  0  0  0  0
   10.7878   14.5806   23.8225 C   0  0  2  0  0  0  0  0  0  0  0  0
   11.7628   15.3744   24.6657 C   0  0  0  0  0  0  0  0  0  0  0  0
   11.1035   16.6864   24.5592 C   0  0  0  0  0  0  0  0  0  0  0  0
   10.0771   16.3712   23.4992 C   0  0  1  0  0  0  0  0  0  0  0  0
   10.4732   16.5101   22.0109 C   0  0  0  0  0  0  0  0  0  0  0  0
   11.4095   15.4289   21.5057 C   0  0  2  0  0  0  0  0  0  0  0  0
   11.0525   14.9493   20.0957 C   0  0  0  0  0  0  0  0  0  0  0  0
   11.0069   15.9479   18.9663 C   0  0  0  0  0  0  0  0  0  0  0  0
   10.4056   17.0950   19.3439 F   0  0  0  0  0  0  0  0  0  0  0  0
   11.3248   14.2240   22.4345 C   0  0  0  0  0  0  0  0  0  0  0  0
  1  2  2  0
  2  3  1  0
  3  4  1  0
  4  5  1  0
  5  6  1  0
  6  7  2  0
  7  8  1  0
  8  9  2  0
  2 10  1  0
 10 11  1  0
 11 12  1  6
 12 13  1  0
 14 13  1  1
 14 15  1  0
 15 16  1  0
 16 17  1  6
 17 18  1  0
 18 19  1  0
 16 20  1  0
  9  5  1  0
 14 10  1  0
 20 11  1  0
M  END
>  <energy_score>  (30) 
60.266439

>  <inchikey>  (30) 
CZITVJJPKTYXFR-UHFFFAOYSA-N

>  <smiles>  (30) 
O=C(CCn1ccnc1)N1[C@@H]2CC[C@H]1C[C@H](CCF)C2

>  <ref_pdb>  (30) 
A4509a

>  <alias>  (30) 
C21631-P384

>  <HIPPO Pose ID>  (30) 
219398

>  <name>  (30) 
C21631-P384

>  <HIPPO Compound ID>  (30) 
21631

>  <ref_mols>  (30) 
A4509a,A3371a

>  <distance_score>  (30) 
1.530375

>  <inspiration_score>  (30) 
None

$$$$
C45868-P363
     RDKit          3D

 20 21  0  0  0  0  0  0  0  0999 V2000
    8.2697   15.4086   24.6003 C   0  0  0  0  0  0  0  0  0  0  0  0
    9.7911   15.5504   24.4668 C   0  0  1  0  0  0  0  0  0  0  0  0
   10.4513   14.4351   25.1183 N   0  0  0  0  0  0  0  0  0  0  0  0
   11.9470   14.0314   25.1505 C   0  0  0  0  0  0  0  0  0  0  0  0
   12.8854   14.5751   24.7242 O   0  0  0  0  0  0  0  0  0  0  0  0
   12.0154   12.6624   25.7802 C   0  0  0  0  0  0  0  0  0  0  0  0
   11.6269   11.6558   24.8215 O   0  0  0  0  0  0  0  0  0  0  0  0
   10.2504   11.3023   24.8440 C   0  0  1  0  0  0  0  0  0  0  0  0
    9.2700   12.0055   23.9065 C   0  0  0  0  0  0  0  0  0  0  0  0
    7.9114   11.8943   24.5992 C   0  0  0  0  0  0  0  0  0  0  0  0
    7.7711   10.5319   25.2870 C   0  0  0  0  0  0  0  0  0  0  0  0
    8.5873    9.4605   24.6959 N   0  0  0  0  0  0  0  0  0  0  0  0
   10.0058    9.8294   24.4989 C   0  0  0  0  0  0  0  0  0  0  0  0
   10.1395   15.5271   22.9758 C   0  0  0  0  0  0  0  0  0  0  0  0
   11.0606   14.6207   22.5974 N   0  0  0  0  0  0  0  0  0  0  0  0
   11.3552   14.5318   21.3008 C   0  0  0  0  0  0  0  0  0  0  0  0
   10.7473   15.2999   20.3546 C   0  0  0  0  0  0  0  0  0  0  0  0
   11.1460   15.0731   18.5615 Br  0  0  0  0  0  0  0  0  0  0  0  0
    9.8204   16.1952   20.8192 C   0  0  0  0  0  0  0  0  0  0  0  0
    9.4680   16.3111   22.1200 N   0  0  0  0  0  0  0  0  0  0  0  0
  2  1  1  6
  2  3  1  0
  3  4  1  0
  4  5  2  0
  4  6  1  0
  6  7  1  0
  8  7  1  6
  8  9  1  0
  9 10  1  0
 10 11  1  0
 11 12  1  0
 12 13  1  0
  2 14  1  0
 14 15  2  0
 15 16  1  0
 16 17  2  0
 17 18  1  0
 17 19  1  0
 19 20  2  0
 13  8  1  0
 20 14  1  0
M  END
>  <energy_score>  (31) 
22.999365

>  <inchikey>  (31) 
ZALQEUITBPVZKN-UHFFFAOYSA-N

>  <smiles>  (31) 
C[C@@H](NC(=O)CO[C@H]1CCCNC1)c1ncc(Br)cn1

>  <ref_pdb>  (31) 
A4445a

>  <alias>  (31) 
C45868-P363

>  <HIPPO Pose ID>  (31) 
223853

>  <name>  (31) 
C45868-P363

>  <HIPPO Compound ID>  (31) 
45868

>  <ref_mols>  (31) 
A4445a,A1068a

>  <distance_score>  (31) 
1.640072

>  <inspiration_score>  (31) 
None

$$$$
C48106-P344
     RDKit          3D

 22 24  0  0  0  0  0  0  0  0999 V2000
   19.3964   -0.1189   23.2221 C   0  0  0  0  0  0  0  0  0  0  0  0
   18.5911    0.9893   23.7737 C   0  0  0  0  0  0  0  0  0  0  0  0
   17.7592    1.8636   23.1118 C   0  0  0  0  0  0  0  0  0  0  0  0
   17.2436    2.7424   24.0416 N   0  0  0  0  0  0  0  0  0  0  0  0
   16.3811    3.8326   23.7917 N   0  0  0  0  0  0  0  0  0  0  0  0
   16.4647    4.8219   24.6843 C   0  0  0  0  0  0  0  0  0  0  0  0
   15.7454    6.1318   24.4596 N   0  0  0  0  0  0  0  0  0  0  0  0
   15.8075    7.9424   24.7127 C   0  0  0  0  0  0  0  0  0  0  0  0
   14.6000    9.0939   24.6551 C   0  0  0  0  0  0  0  0  0  0  0  0
   12.4360    8.9666   24.3022 C   0  0  0  0  0  0  0  0  0  0  0  0
   10.8012    9.8163   23.9774 C   0  0  0  0  0  0  0  0  0  0  0  0
    9.3123    9.5816   24.3715 C   0  0  0  0  0  0  0  0  0  0  0  0
    8.7147   10.7009   25.1730 N   0  0  0  0  0  0  0  0  0  0  0  0
    8.8324   12.0112   24.4929 C   0  0  0  0  0  0  0  0  0  0  0  0
    7.6555   12.9765   24.6468 C   0  0  0  0  0  0  0  0  0  0  0  0
    7.0032   12.8995   26.0126 C   0  0  0  0  0  0  0  0  0  0  0  0
    6.6868   11.4664   26.4201 C   0  0  0  0  0  0  0  0  0  0  0  0
    7.3281   10.4135   25.5202 C   0  0  0  0  0  0  0  0  0  0  0  0
   17.1442    4.4582   26.0445 C   0  0  0  0  0  0  0  0  0  0  0  0
   17.8596    3.3495   26.2384 C   0  0  0  0  0  0  0  0  0  0  0  0
   17.9642    2.4403   25.1891 C   0  0  0  0  0  0  0  0  0  0  0  0
   18.6531    1.3158   25.1009 N   0  0  0  0  0  0  0  0  0  0  0  0
  1  2  1  0
  2  3  2  0
  3  4  1  0
  4  5  1  0
  5  6  2  0
  6  7  1  0
  7  8  1  0
  8  9  1  0
  9 10  1  0
 10 11  1  0
 11 12  1  0
 12 13  1  0
 13 14  1  0
 14 15  1  0
 15 16  1  0
 16 17  1  0
 17 18  1  0
  6 19  1  0
 19 20  2  0
 20 21  1  0
 21 22  2  0
 22  2  1  0
 21  4  1  0
 18 13  1  0
M  END
>  <energy_score>  (32) 
320.408399

>  <inchikey>  (32) 
IXRUQHOZMZJFPK-UHFFFAOYSA-N

>  <smiles>  (32) 
Cc1cn2nc(NCCCCCN3CCCCC3)ccc2n1

>  <ref_pdb>  (32) 
A4274b

>  <alias>  (32) 
C48106-P344

>  <HIPPO Pose ID>  (32) 
224824

>  <name>  (32) 
C48106-P344

>  <HIPPO Compound ID>  (32) 
48106

>  <ref_mols>  (32) 
A4274b,A0202a

>  <distance_score>  (32) 
4.044445

>  <inspiration_score>  (32) 
None

$$$$
C18492-P7
     RDKit          3D

 26 29  0  0  0  0  0  0  0  0999 V2000
   12.1750   21.5349   26.9621 O   0  0  0  0  0  0  0  0  0  0  0  0
   11.2272   20.7939   26.8653 C   0  0  0  0  0  0  0  0  0  0  0  0
   11.1673   19.9253   25.5481 C   0  0  0  0  0  0  0  0  0  0  0  0
   10.4190   18.2739   25.0172 C   0  0  0  0  0  0  0  0  0  0  0  0
   10.6881   16.1990   25.2855 N   0  0  0  0  0  0  0  0  0  0  0  0
   10.1331   14.6572   25.9381 C   0  0  0  0  0  0  0  0  0  0  0  0
    9.3643   14.6651   27.0680 N   0  0  0  0  0  0  0  0  0  0  0  0
    8.0613   14.0605   27.0718 C   0  0  0  0  0  0  0  0  0  0  0  0
    7.1337   14.1961   28.1222 C   0  0  0  0  0  0  0  0  0  0  0  0
    5.9195   13.5083   28.0742 C   0  0  0  0  0  0  0  0  0  0  0  0
    5.6203   12.6840   26.9999 C   0  0  0  0  0  0  0  0  0  0  0  0
    6.5216   12.5390   25.9494 C   0  0  0  0  0  0  0  0  0  0  0  0
    7.7372   13.2390   26.0035 C   0  0  0  0  0  0  0  0  0  0  0  0
    8.9978   13.1680   24.8304 S   0  0  0  0  0  0  0  0  0  0  0  0
   10.1491   20.5750   27.7360 N   0  0  0  0  0  0  0  0  0  0  0  0
    8.9901   21.5166   27.3895 C   0  0  0  0  0  0  0  0  0  0  0  0
    7.5867   20.9853   27.7321 C   0  0  0  0  0  0  0  0  0  0  0  0
    7.4417   20.7221   29.1713 N   0  0  0  0  0  0  0  0  0  0  0  0
    6.4196   19.7833   29.4286 C   0  0  0  0  0  0  0  0  0  0  0  0
    6.2355   19.2474   30.7038 C   0  0  0  0  0  0  0  0  0  0  0  0
    5.2836   18.2492   30.9102 C   0  0  0  0  0  0  0  0  0  0  0  0
    4.5136   17.8127   29.8439 C   0  0  0  0  0  0  0  0  0  0  0  0
    4.7135   18.4157   28.6199 C   0  0  0  0  0  0  0  0  0  0  0  0
    5.6225   19.3907   28.4103 N   0  0  0  0  0  0  0  0  0  0  0  0
    8.7096   20.4144   29.8354 C   0  0  0  0  0  0  0  0  0  0  0  0
    9.8771   21.1015   29.1152 C   0  0  0  0  0  0  0  0  0  0  0  0
  1  2  2  0
  2  3  1  0
  3  4  1  0
  4  5  1  0
  5  6  1  0
  6  7  2  0
  7  8  1  0
  8  9  2  0
  9 10  1  0
 10 11  2  0
 11 12  1  0
 12 13  2  0
 13 14  1  0
  2 15  1  0
 15 16  1  0
 16 17  1  0
 17 18  1  0
 18 19  1  0
 19 20  2  0
 20 21  1  0
 21 22  2  0
 22 23  1  0
 23 24  2  0
 18 25  1  0
 25 26  1  0
 14  6  1  0
 26 15  1  0
 13  8  1  0
 24 19  1  0
M  END
>  <energy_score>  (33) 
464.305418

>  <inchikey>  (33) 
DBFFYNGDFGHYFG-UHFFFAOYSA-N

>  <smiles>  (33) 
O=C(CCNc1nc2ccccc2s1)N1CCN(c2ccccn2)CC1

>  <ref_pdb>  (33) 
A0469a

>  <alias>  (33) 
C18492-P7

>  <HIPPO Pose ID>  (33) 
224978

>  <name>  (33) 
C18492-P7

>  <HIPPO Compound ID>  (33) 
18492

>  <ref_mols>  (33) 
A4274a,A0469a

>  <distance_score>  (33) 
3.244246

>  <inspiration_score>  (33) 
None

$$$$
C48114-P275
     RDKit          3D

 24 26  0  0  0  0  0  0  0  0999 V2000
   18.8200    1.4809   22.1279 C   0  0  0  0  0  0  0  0  0  0  0  0
   19.2857    0.2128   21.6415 O   0  0  0  0  0  0  0  0  0  0  0  0
   18.3960   -0.4991   20.9119 C   0  0  0  0  0  0  0  0  0  0  0  0
   18.9742   -1.8126   20.6031 C   0  0  0  0  0  0  0  0  0  0  0  0
   18.2086   -2.6219   19.8610 C   0  0  0  0  0  0  0  0  0  0  0  0
   16.9144   -2.2044   19.4654 C   0  0  0  0  0  0  0  0  0  0  0  0
   16.0266   -2.7844   18.7251 N   0  0  0  0  0  0  0  0  0  0  0  0
   14.8750   -1.9942   18.7909 C   0  0  0  0  0  0  0  0  0  0  0  0
   14.9196   -0.7003   19.4939 C   0  0  0  0  0  0  0  0  0  0  0  0
   14.2127    0.5952   20.6459 C   0  0  0  0  0  0  0  0  0  0  0  0
   14.8868    0.6495   21.6133 O   0  0  0  0  0  0  0  0  0  0  0  0
   12.6821    1.6696   20.7125 N   0  0  0  0  0  0  0  0  0  0  0  0
   11.9295    2.7477   22.1399 C   0  0  0  0  0  0  0  0  0  0  0  0
   10.7177    4.3109   22.6065 C   0  0  0  0  0  0  0  0  0  0  0  0
   10.2860    6.1235   23.3193 C   0  0  1  0  0  0  0  0  0  0  0  0
   11.3334    7.2948   23.5910 C   0  0  0  0  0  0  0  0  0  0  0  0
    9.2376    7.4218   23.0157 N   0  0  0  0  0  0  0  0  0  0  0  0
    8.7650    8.3683   24.2188 C   0  0  0  0  0  0  0  0  0  0  0  0
    9.2518    9.7663   24.5282 C   0  0  0  0  0  0  0  0  0  0  0  0
    9.3697   10.6383   23.3394 C   0  0  0  0  0  0  0  0  0  0  0  0
    9.9916    9.7395   22.3066 C   0  0  0  0  0  0  0  0  0  0  0  0
    9.3246    8.4108   21.9931 C   0  0  0  0  0  0  0  0  0  0  0  0
   16.4673   -0.9848   19.9007 N   0  0  0  0  0  0  0  0  0  0  0  0
   17.2352   -0.0619   20.5648 N   0  0  0  0  0  0  0  0  0  0  0  0
  1  2  1  0
  2  3  1  0
  3  4  1  0
  4  5  2  0
  5  6  1  0
  6  7  2  0
  7  8  1  0
  8  9  2  0
  9 10  1  0
 10 11  2  0
 10 12  1  0
 12 13  1  0
 13 14  1  0
 14 15  1  0
 15 16  1  6
 15 17  1  0
 17 18  1  0
 18 19  1  0
 19 20  1  0
 20 21  1  0
 21 22  1  0
  9 23  1  0
 23 24  1  0
 24  3  2  0
 23  6  1  0
 22 17  1  0
M  END
>  <energy_score>  (34) 
566.317011

>  <inchikey>  (34) 
WUKQNJFBINFBNA-UHFFFAOYSA-N

>  <smiles>  (34) 
COc1ccc2ncc(C(=O)NCC[C@@H](C)N3CCCCC3)n2n1

>  <ref_pdb>  (34) 
A4031b

>  <alias>  (34) 
C48114-P275

>  <HIPPO Pose ID>  (34) 
227634

>  <name>  (34) 
C48114-P275

>  <HIPPO Compound ID>  (34) 
48114

>  <ref_mols>  (34) 
A4031b,A0202a

>  <distance_score>  (34) 
4.284223

>  <inspiration_score>  (34) 
None

$$$$
C26549-P87
     RDKit          3D

 19 20  0  0  0  0  0  0  0  0999 V2000
   10.3073   14.7679   24.0639 C   0  0  0  0  0  0  0  0  0  0  0  0
   10.9727   13.8705   23.1199 N   0  0  0  0  0  0  0  0  0  0  0  0
   12.3492   13.7331   23.4502 C   0  0  0  0  0  0  0  0  0  0  0  0
   13.3040   14.3619   23.0846 O   0  0  0  0  0  0  0  0  0  0  0  0
   12.6867   12.6434   24.5102 C   0  0  0  0  0  0  0  0  0  0  0  0
   12.1901   11.3262   24.4478 O   0  0  0  0  0  0  0  0  0  0  0  0
   10.7918   11.3313   24.2246 C   0  0  0  0  0  0  0  0  0  0  0  0
   10.0664   11.9500   25.4058 C   0  0  0  0  0  0  0  0  0  0  0  0
    8.6113   12.2108   25.1810 C   0  0  0  0  0  0  0  0  0  0  0  0
    8.1289   11.2708   24.2178 N   0  0  0  0  0  0  0  0  0  0  0  0
    8.7890    9.9640   24.2379 C   0  0  0  0  0  0  0  0  0  0  0  0
   10.2911    9.9281   24.0556 C   0  0  0  0  0  0  0  0  0  0  0  0
   10.2698   14.7903   22.1037 C   0  0  2  0  0  0  0  0  0  0  0  0
   10.5533   14.1566   20.7764 C   0  0  0  0  0  0  0  0  0  0  0  0
   12.0357   14.2224   20.3616 C   0  0  0  0  0  0  0  0  0  0  0  0
   12.6719   15.6077   20.5150 C   0  0  0  0  0  0  0  0  0  0  0  0
   12.1370   16.3369   21.6391 N   0  0  0  0  0  0  0  0  0  0  0  0
   10.7672   16.2323   21.8128 C   0  0  0  0  0  0  0  0  0  0  0  0
    9.9994   17.1759   21.6566 O   0  0  0  0  0  0  0  0  0  0  0  0
  1  2  1  0
  2  3  1  0
  3  4  2  0
  3  5  1  0
  5  6  1  0
  6  7  1  0
  7  8  1  0
  8  9  1  0
  9 10  1  0
 10 11  1  0
 11 12  1  0
 13  2  1  1
 13 14  1  0
 14 15  1  0
 15 16  1  0
 16 17  1  0
 17 18  1  0
 18 19  2  0
 12  7  1  0
 18 13  1  0
M  END
>  <energy_score>  (35) 
90.996125

>  <inchikey>  (35) 
MDVDEUZVIOBSGX-UHFFFAOYSA-N

>  <smiles>  (35) 
CN(C(=O)COC1CCNCC1)[C@@H]1CCCNC1=O

>  <ref_pdb>  (35) 
A0875a

>  <alias>  (35) 
C26549-P87

>  <HIPPO Pose ID>  (35) 
229720

>  <name>  (35) 
C26549-P87

>  <HIPPO Compound ID>  (35) 
26549

>  <ref_mols>  (35) 
A5036a,A0875a

>  <distance_score>  (35) 
2.520728

>  <inspiration_score>  (35) 
None

$$$$
C12140-P71
     RDKit          3D

 21 22  0  0  0  0  0  0  0  0999 V2000
    9.4529    9.1119    3.3030 C   0  0  0  0  0  0  0  0  0  0  0  0
    8.5428   10.1816    3.5603 O   0  0  0  0  0  0  0  0  0  0  0  0
    7.3123   10.0399    2.9938 C   0  0  0  0  0  0  0  0  0  0  0  0
    6.9510    9.0736    2.3281 O   0  0  0  0  0  0  0  0  0  0  0  0
    6.4466   11.2809    3.2661 C   0  0  2  0  0  0  0  0  0  0  0  0
    5.0664   10.9471    2.9530 N   0  0  0  0  0  0  0  0  0  0  0  0
    3.8370   11.5845    3.3226 C   0  0  0  0  0  0  0  0  0  0  0  0
    3.6338   12.6042    3.9189 O   0  0  0  0  0  0  0  0  0  0  0  0
    2.6057   10.7254    2.8261 C   0  0  2  0  0  0  0  0  0  0  0  0
    1.2882   11.3137    3.3678 C   0  0  0  0  0  0  0  0  0  0  0  0
    0.4708   10.1756    3.6945 N   0  0  0  0  0  0  0  0  0  0  0  0
    1.2162    9.0156    3.7163 C   0  0  0  0  0  0  0  0  0  0  0  0
    0.7888    7.9383    4.0978 O   0  0  0  0  0  0  0  0  0  0  0  0
    2.4767    9.3028    3.1958 N   0  0  0  0  0  0  0  0  0  0  0  0
    3.3823    8.2533    2.7973 C   0  0  0  0  0  0  0  0  0  0  0  0
    6.9504   12.5415    2.5996 C   0  0  0  0  0  0  0  0  0  0  0  0
    6.6165   13.7980    3.1177 C   0  0  0  0  0  0  0  0  0  0  0  0
    7.1311   14.9552    2.5391 C   0  0  0  0  0  0  0  0  0  0  0  0
    7.9750   14.8272    1.4518 C   0  0  0  0  0  0  0  0  0  0  0  0
    8.3228   13.6409    0.9180 N   0  0  0  0  0  0  0  0  0  0  0  0
    7.7935   12.5326    1.4907 C   0  0  0  0  0  0  0  0  0  0  0  0
  1  2  1  0
  2  3  1  0
  3  4  2  0
  3  5  1  0
  5  6  1  6
  6  7  1  0
  7  8  2  0
  9  7  1  1
  9 10  1  0
 10 11  1  0
 11 12  1  0
 12 13  2  0
 12 14  1  0
 14 15  1  0
  5 16  1  0
 16 17  2  0
 17 18  1  0
 18 19  2  0
 19 20  1  0
 20 21  2  0
 14  9  1  0
 21 16  1  0
M  END
>  <energy_score>  (36) 
-16.080398

>  <inchikey>  (36) 
ILPVFEPAZRNWNN-UHFFFAOYSA-N

>  <smiles>  (36) 
COC(=O)[C@H](NC(=O)[C@@H]1CNC(=O)N1C)c1cccnc1

>  <ref_pdb>  (36) 
A0428a

>  <alias>  (36) 
C12140-P71

>  <HIPPO Pose ID>  (36) 
230285

>  <name>  (36) 
C12140-P71

>  <HIPPO Compound ID>  (36) 
12140

>  <ref_mols>  (36) 
A1081b,A0428a

>  <distance_score>  (36) 
3.469799

>  <inspiration_score>  (36) 
None

$$$$
C46745-P151
     RDKit          3D

 24 25  0  0  0  0  0  0  0  0999 V2000
    9.4551   25.2872   26.3623 C   0  0  0  0  0  0  0  0  0  0  0  0
    8.8733   24.1616   27.2118 C   0  0  0  0  0  0  0  0  0  0  0  0
    7.8737   23.3214   26.4277 C   0  0  0  0  0  0  0  0  0  0  0  0
    7.3786   22.0908   27.2131 C   0  0  0  0  0  0  0  0  0  0  0  0
    8.4766   21.2061   27.6465 N   0  0  0  0  0  0  0  0  0  0  0  0
    8.0558   19.9639   28.4123 C   0  0  2  0  0  0  0  0  0  0  0  0
    9.0790   18.7821   28.1980 C   0  0  0  0  0  0  0  0  0  0  0  0
    8.9824   17.8611   27.0730 N   0  0  0  0  0  0  0  0  0  0  0  0
    9.7097   16.5005   26.8095 C   0  0  0  0  0  0  0  0  0  0  0  0
   10.4338   15.8831   27.4924 O   0  0  0  0  0  0  0  0  0  0  0  0
    9.2736   15.9610   25.4252 C   0  0  0  0  0  0  0  0  0  0  0  0
   10.2907   14.9387   24.8352 C   0  0  0  0  0  0  0  0  0  0  0  0
   10.5057   14.9861   23.3348 C   0  0  0  0  0  0  0  0  0  0  0  0
   11.0992   16.1891   22.8072 C   0  0  0  0  0  0  0  0  0  0  0  0
   11.2780   16.3885   21.4988 C   0  0  0  0  0  0  0  0  0  0  0  0
   10.8960   15.3474   20.5321 C   0  0  0  0  0  0  0  0  0  0  0  0
   10.9608   15.5433   19.3269 O   0  0  0  0  0  0  0  0  0  0  0  0
   10.4932   14.1667   21.1110 N   0  0  0  0  0  0  0  0  0  0  0  0
   10.2718   13.9890   22.4641 C   0  0  0  0  0  0  0  0  0  0  0  0
    6.5558   19.5089   28.4176 C   0  0  0  0  0  0  0  0  0  0  0  0
    6.2607   18.5985   29.6225 C   0  0  0  0  0  0  0  0  0  0  0  0
    6.0552   18.8095   27.1587 C   0  0  0  0  0  0  0  0  0  0  0  0
    9.3679   22.0347   28.4890 C   0  0  0  0  0  0  0  0  0  0  0  0
    9.9581   23.2583   27.7753 C   0  0  0  0  0  0  0  0  0  0  0  0
  1  2  1  0
  2  3  1  0
  3  4  1  0
  4  5  1  0
  5  6  1  0
  6  7  1  6
  7  8  1  0
  8  9  1  0
  9 10  2  0
  9 11  1  0
 11 12  1  0
 12 13  1  0
 13 14  1  0
 14 15  2  0
 15 16  1  0
 16 17  2  0
 16 18  1  0
 18 19  1  0
  6 20  1  0
 20 21  1  0
 20 22  1  0
  5 23  1  0
 23 24  1  0
 24  2  1  0
 19 13  2  0
M  END
>  <energy_score>  (37) 
-44.66706

>  <inchikey>  (37) 
FHSDHUWGJMMYKU-UHFFFAOYSA-N

>  <smiles>  (37) 
CC1CCN([C@H](CNC(=O)CCc2ccc(=O)[nH]c2)C(C)C)CC1

>  <ref_pdb>  (37) 
A3194a

>  <alias>  (37) 
C46745-P151

>  <HIPPO Pose ID>  (37) 
232053

>  <name>  (37) 
C46745-P151

>  <HIPPO Compound ID>  (37) 
46745

>  <ref_mols>  (37) 
A0525a,A3194a

>  <distance_score>  (37) 
3.22645

>  <inspiration_score>  (37) 
None

$$$$
C45746-P325
     RDKit          3D

 28 31  0  0  0  0  0  0  0  0999 V2000
    5.8023   14.9909   23.1342 C   0  0  0  0  0  0  0  0  0  0  0  0
    7.2455   15.2941   23.5105 C   0  0  1  0  0  0  0  0  0  0  0  0
    7.9292   14.4978   25.0034 S   0  0  0  0  0  0  0  0  0  0  0  0
    6.7355   13.3748   25.5685 C   0  0  0  0  0  0  0  0  0  0  0  0
    5.6637   13.9822   25.9668 N   0  0  0  0  0  0  0  0  0  0  0  0
    4.6023   13.2376   26.4497 C   0  0  0  0  0  0  0  0  0  0  0  0
    3.4048   13.8799   26.7754 C   0  0  0  0  0  0  0  0  0  0  0  0
    2.3271   13.1536   27.2848 C   0  0  0  0  0  0  0  0  0  0  0  0
    2.4483   11.7787   27.4675 C   0  0  0  0  0  0  0  0  0  0  0  0
    3.6444   11.1393   27.1379 C   0  0  0  0  0  0  0  0  0  0  0  0
    4.7120   11.8747   26.6293 C   0  0  0  0  0  0  0  0  0  0  0  0
    5.9835   11.2304   26.3010 C   0  0  0  0  0  0  0  0  0  0  0  0
    6.1101   10.0757   26.7045 O   0  0  0  0  0  0  0  0  0  0  0  0
    6.9660   11.9952   25.6564 N   0  0  0  0  0  0  0  0  0  0  0  0
    8.1621   11.3045   25.1960 C   0  0  0  0  0  0  0  0  0  0  0  0
    9.4209   11.8961   25.0938 C   0  0  0  0  0  0  0  0  0  0  0  0
   10.5220   11.2125   24.5897 C   0  0  0  0  0  0  0  0  0  0  0  0
   10.4059    9.8786   24.2284 C   0  0  0  0  0  0  0  0  0  0  0  0
    9.1923    9.2528   24.3237 C   0  0  0  0  0  0  0  0  0  0  0  0
    8.1083    9.9466   24.8428 C   0  0  0  0  0  0  0  0  0  0  0  0
    8.1660   14.9104   22.3317 C   0  0  0  0  0  0  0  0  0  0  0  0
    8.0524   13.8965   21.7357 O   0  0  0  0  0  0  0  0  0  0  0  0
    9.1028   16.1014   22.0936 N   0  0  0  0  0  0  0  0  0  0  0  0
   10.4224   15.9294   22.8526 C   0  0  0  0  0  0  0  0  0  0  0  0
   11.2446   14.6491   22.6516 C   0  0  0  0  0  0  0  0  0  0  0  0
   11.8740   14.7097   21.2839 C   0  0  0  0  0  0  0  0  0  0  0  0
   10.8152   15.1974   20.3313 C   0  0  0  0  0  0  0  0  0  0  0  0
   10.0798   16.3750   20.9739 C   0  0  0  0  0  0  0  0  0  0  0  0
  2  1  1  6
  2  3  1  0
  3  4  1  0
  4  5  2  0
  5  6  1  0
  6  7  2  0
  7  8  1  0
  8  9  2  0
  9 10  1  0
 10 11  2  0
 11 12  1  0
 12 13  2  0
 12 14  1  0
 14 15  1  0
 15 16  2  0
 16 17  1  0
 17 18  2  0
 18 19  1  0
 19 20  2  0
  2 21  1  0
 21 22  2  0
 21 23  1  0
 23 24  1  0
 24 25  1  0
 25 26  1  0
 26 27  1  0
 27 28  1  0
 14  4  1  0
 20 15  1  0
 28 23  1  0
 11  6  1  0
M  END
>  <energy_score>  (38) 
55.960628

>  <inchikey>  (38) 
FMFAVFPZVUFHSH-UHFFFAOYSA-N

>  <smiles>  (38) 
C[C@@H](Sc1nc2ccccc2c(=O)n1-c1ccccc1)C(=O)N1CCCCC1

>  <ref_pdb>  (38) 
A4368a

>  <alias>  (38) 
C45746-P325

>  <HIPPO Pose ID>  (38) 
232418

>  <name>  (38) 
C45746-P325

>  <HIPPO Compound ID>  (38) 
45746

>  <ref_mols>  (38) 
A1776a,A4368a

>  <distance_score>  (38) 
1.883325

>  <inspiration_score>  (38) 
None

$$$$
C48099-P265
     RDKit          3D

 19 21  0  0  0  0  0  0  0  0999 V2000
   14.5598    3.1178   23.6047 O   0  0  0  0  0  0  0  0  0  0  0  0
   15.4289    3.8310   23.1517 C   0  0  0  0  0  0  0  0  0  0  0  0
   15.2586    5.2224   22.2394 N   0  0  0  0  0  0  0  0  0  0  0  0
   13.5197    6.2588   21.6534 C   0  0  0  0  0  0  0  0  0  0  0  0
   12.0409    7.4850   22.6365 C   0  0  2  0  0  0  0  0  0  0  0  0
   11.6785    8.8542   23.5411 C   0  0  0  0  0  0  0  0  0  0  0  0
   10.4631   10.0147   23.6031 C   0  0  0  0  0  0  0  0  0  0  0  0
    9.1825    9.4510   24.0683 C   0  0  0  0  0  0  0  0  0  0  0  0
    9.2117    8.0218   23.9709 N   0  0  0  0  0  0  0  0  0  0  0  0
   10.1570    7.2669   23.0556 C   0  0  0  0  0  0  0  0  0  0  0  0
   16.7557    3.2335   23.4159 C   0  0  0  0  0  0  0  0  0  0  0  0
   17.6063    2.4050   22.6663 C   0  0  0  0  0  0  0  0  0  0  0  0
   18.4459    1.6121   23.4113 N   0  0  0  0  0  0  0  0  0  0  0  0
   18.3052    2.0963   24.6171 C   0  0  0  0  0  0  0  0  0  0  0  0
   19.0393    1.7981   25.7865 C   0  0  0  0  0  0  0  0  0  0  0  0
   18.8694    2.5561   26.8724 C   0  0  0  0  0  0  0  0  0  0  0  0
   17.8708    3.6423   26.7638 C   0  0  0  0  0  0  0  0  0  0  0  0
   17.1086    3.8955   25.7551 N   0  0  0  0  0  0  0  0  0  0  0  0
   17.3382    3.1045   24.6757 N   0  0  0  0  0  0  0  0  0  0  0  0
  1  2  2  0
  2  3  1  0
  3  4  1  0
  5  4  1  1
  5  6  1  0
  6  7  1  0
  7  8  1  0
  8  9  1  0
  9 10  1  0
  2 11  1  0
 11 12  2  0
 12 13  1  0
 13 14  2  0
 14 15  1  0
 15 16  2  0
 16 17  1  0
 17 18  2  0
 18 19  1  0
 10  5  1  0
 19 11  1  0
 19 14  1  0
M  END
>  <energy_score>  (39) 
512.386688

>  <inchikey>  (39) 
WUSUVIQEMHPDEP-UHFFFAOYSA-N

>  <smiles>  (39) 
O=C(NC[C@@H]1CCCNC1)c1cnc2cccnn12

>  <ref_pdb>  (39) 
A4012b

>  <alias>  (39) 
C48099-P265

>  <HIPPO Pose ID>  (39) 
235406

>  <name>  (39) 
C48099-P265

>  <HIPPO Compound ID>  (39) 
48099

>  <ref_mols>  (39) 
A4012b,A0202a

>  <distance_score>  (39) 
4.848381

>  <inspiration_score>  (39) 
None

$$$$
C28778-P464
     RDKit          3D

 26 28  0  0  0  0  0  0  0  0999 V2000
    8.1234   18.8357   19.9450 C   0  0  0  0  0  0  0  0  0  0  0  0
    8.7101   17.5471   20.4928 C   0  0  0  0  0  0  0  0  0  0  0  0
    8.3112   17.0835   21.5146 O   0  0  0  0  0  0  0  0  0  0  0  0
    9.7099   17.0880   19.5919 N   0  0  0  0  0  0  0  0  0  0  0  0
   10.6495   15.9387   19.6763 C   0  0  1  0  0  0  0  0  0  0  0  0
   11.3538   16.1088   18.3206 C   0  0  0  0  0  0  0  0  0  0  0  0
   11.4067   15.8973   21.2388 C   0  0  0  0  0  0  0  0  0  0  0  0
   11.8749   16.8300   21.7121 O   0  0  0  0  0  0  0  0  0  0  0  0
   11.1734   14.3897   21.7892 N   0  0  0  0  0  0  0  0  0  0  0  0
   11.8919   13.7912   23.5037 C   0  0  0  0  0  0  0  0  0  0  0  0
   11.2431   14.3247   25.0269 C   0  0  0  0  0  0  0  0  0  0  0  0
    9.7561   14.1342   24.9299 C   0  0  0  0  0  0  0  0  0  0  0  0
    9.0597   12.8683   25.3298 C   0  0  0  0  0  0  0  0  0  0  0  0
    9.3202   11.5613   24.9614 C   0  0  0  0  0  0  0  0  0  0  0  0
    8.2646   10.7784   25.3558 N   0  0  0  0  0  0  0  0  0  0  0  0
    7.3491   11.5273   26.0519 C   0  0  0  0  0  0  0  0  0  0  0  0
    6.1510   11.1498   26.6697 C   0  0  0  0  0  0  0  0  0  0  0  0
    5.3923   12.1442   27.2896 C   0  0  0  0  0  0  0  0  0  0  0  0
    5.8086   13.4699   27.2748 C   0  0  0  0  0  0  0  0  0  0  0  0
    7.0064   13.8311   26.6503 C   0  0  0  0  0  0  0  0  0  0  0  0
    7.8089   12.8411   26.0432 C   0  0  0  0  0  0  0  0  0  0  0  0
    9.6815   14.2827   23.4466 C   0  0  0  0  0  0  0  0  0  0  0  0
   11.3200   13.7654   22.9214 C   0  0  0  0  0  0  0  0  0  0  0  0
   10.1670   14.5502   19.4759 C   0  0  0  0  0  0  0  0  0  0  0  0
    8.9442   14.3818   20.4102 C   0  0  0  0  0  0  0  0  0  0  0  0
   10.3106   14.0003   18.0086 C   0  0  0  0  0  0  0  0  0  0  0  0
  1  2  1  0
  2  3  2  0
  2  4  1  0
  4  5  1  0
  5  6  1  6
  5  7  1  0
  7  8  2  0
  7  9  1  0
  9 10  1  0
 10 11  1  0
 11 12  1  0
 12 13  1  0
 13 14  2  0
 14 15  1  0
 15 16  1  0
 16 17  2  0
 17 18  1  0
 18 19  2  0
 19 20  1  0
 20 21  2  0
 12 22  1  0
 22 23  1  0
  5 24  1  0
 24 25  1  0
 24 26  1  0
 23  9  1  0
 21 13  1  0
 21 16  1  0
M  END
>  <energy_score>  (40) 
804.394629

>  <inchikey>  (40) 
JHZAPGJXKWIQQE-UHFFFAOYSA-N

>  <smiles>  (40) 
CC(=O)N[C@@](C)(C(=O)N1CCC(c2c[nH]c3ccccc23)CC1)C(C)C

>  <ref_pdb>  (40) 
A4784a

>  <alias>  (40) 
C28778-P464

>  <HIPPO Pose ID>  (40) 
243772

>  <name>  (40) 
C28778-P464

>  <HIPPO Compound ID>  (40) 
28778

>  <ref_mols>  (40) 
A4784a,A3568a

>  <distance_score>  (40) 
1.857102

>  <inspiration_score>  (40) 
None

$$$$
C45975-P303
     RDKit          3D

 25 27  0  0  0  0  0  0  0  0999 V2000
   12.0943   14.4853   19.7930 C   0  0  0  0  0  0  0  0  0  0  0  0
   10.6843   14.7292   19.2832 C   0  0  0  0  0  0  0  0  0  0  0  0
   10.5184   14.0565   17.9960 C   0  0  0  0  0  0  0  0  0  0  0  0
   10.3554   16.1318   19.0172 C   0  0  0  0  0  0  0  0  0  0  0  0
    9.7937   17.1461   19.1007 N   0  0  0  0  0  0  0  0  0  0  0  0
    9.5467   14.6473   20.2901 C   0  0  0  0  0  0  0  0  0  0  0  0
    8.4203   14.7653   19.9410 O   0  0  0  0  0  0  0  0  0  0  0  0
   10.0700   14.5337   21.5208 N   0  0  0  0  0  0  0  0  0  0  0  0
   10.4037   15.8290   22.0420 C   0  0  0  0  0  0  0  0  0  0  0  0
   11.6580   15.6718   22.9016 C   0  0  0  0  0  0  0  0  0  0  0  0
   11.4611   14.8726   24.1479 C   0  0  0  0  0  0  0  0  0  0  0  0
   10.3181   13.9883   23.8776 C   0  0  1  0  0  0  0  0  0  0  0  0
    9.3284   13.7379   25.2459 S   0  0  0  0  0  0  0  0  0  0  0  0
    8.9086   14.9688   25.8667 O   0  0  0  0  0  0  0  0  0  0  0  0
   10.1986   12.8133   25.8942 O   0  0  0  0  0  0  0  0  0  0  0  0
    7.9922   12.9471   24.6014 N   0  0  0  0  0  0  0  0  0  0  0  0
    6.9189   12.6708   25.6159 C   0  0  0  0  0  0  0  0  0  0  0  0
    7.0439   11.1862   25.9621 C   0  0  0  0  0  0  0  0  0  0  0  0
    8.0234   10.7223   24.9526 C   0  0  0  0  0  0  0  0  0  0  0  0
    8.6295    9.5218   24.7771 C   0  0  0  0  0  0  0  0  0  0  0  0
    9.6029    9.2531   23.8175 C   0  0  0  0  0  0  0  0  0  0  0  0
    9.8094   10.1657   22.8576 C   0  0  0  0  0  0  0  0  0  0  0  0
    9.2956   11.4121   23.0560 C   0  0  0  0  0  0  0  0  0  0  0  0
    8.4249   11.6878   24.1078 C   0  0  0  0  0  0  0  0  0  0  0  0
    9.4374   14.4145   22.7969 C   0  0  0  0  0  0  0  0  0  0  0  0
  1  2  1  0
  2  3  1  0
  2  4  1  0
  4  5  3  0
  2  6  1  0
  6  7  2  0
  6  8  1  0
  8  9  1  0
  9 10  1  0
 10 11  1  0
 11 12  1  0
 12 13  1  1
 13 14  2  0
 13 15  2  0
 13 16  1  0
 16 17  1  0
 17 18  1  0
 18 19  1  0
 19 20  2  0
 20 21  1  0
 21 22  2  0
 22 23  1  0
 23 24  2  0
 12 25  1  0
 25  8  1  0
 24 16  1  0
 24 19  1  0
M  END
>  <energy_score>  (41) 
128.24934

>  <inchikey>  (41) 
CXUYUFRBAKGUHD-UHFFFAOYSA-N

>  <smiles>  (41) 
CC(C)(C#N)C(=O)N1CCC[C@@H](S(=O)(=O)N2CCc3ccccc32)C1

>  <ref_pdb>  (41) 
A4320a

>  <alias>  (41) 
C45975-P303

>  <HIPPO Pose ID>  (41) 
255744

>  <name>  (41) 
C45975-P303

>  <HIPPO Compound ID>  (41) 
45975

>  <ref_mols>  (41) 
A1778a,A4320a

>  <distance_score>  (41) 
2.187852

>  <inspiration_score>  (41) 
None

$$$$
C4100-P87
     RDKit          3D

 19 20  0  0  0  0  0  0  0  0999 V2000
   15.9040   13.3254   28.0024 C   0  0  0  0  0  0  0  0  0  0  0  0
   14.9184   12.2730   27.5377 C   0  0  0  0  0  0  0  0  0  0  0  0
   14.3775   11.5471   28.2712 O   0  0  0  0  0  0  0  0  0  0  0  0
   14.8107   12.4082   25.9987 N   0  0  0  0  0  0  0  0  0  0  0  0
   14.0814   11.6088   25.0313 C   0  0  1  0  0  0  0  0  0  0  0  0
   14.6834   10.2232   25.1310 C   0  0  0  0  0  0  0  0  0  0  0  0
   12.5236   11.8838   25.0015 C   0  0  0  0  0  0  0  0  0  0  0  0
   12.2393   13.0698   24.0543 C   0  0  0  0  0  0  0  0  0  0  0  0
   10.7768   13.5043   24.1325 C   0  0  0  0  0  0  0  0  0  0  0  0
    9.9028   12.3979   23.8060 N   0  0  0  0  0  0  0  0  0  0  0  0
    8.5414   12.5679   23.7790 C   0  0  0  0  0  0  0  0  0  0  0  0
    7.9640   12.9053   22.7496 O   0  0  0  0  0  0  0  0  0  0  0  0
    7.8518   12.2230   24.9986 C   0  0  0  0  0  0  0  0  0  0  0  0
    7.4104   13.0908   25.8770 N   0  0  0  0  0  0  0  0  0  0  0  0
    6.4801   12.4425   26.6288 C   0  0  0  0  0  0  0  0  0  0  0  0
    6.4477   11.1210   26.2897 C   0  0  0  0  0  0  0  0  0  0  0  0
    7.4311   10.9695   25.3499 N   0  0  0  0  0  0  0  0  0  0  0  0
   10.4900   11.1132   23.5094 C   0  0  0  0  0  0  0  0  0  0  0  0
   11.4675   10.7680   24.6408 C   0  0  0  0  0  0  0  0  0  0  0  0
  1  2  1  0
  2  3  2  0
  2  4  1  0
  4  5  1  0
  5  6  1  1
  5  7  1  0
  7  8  1  0
  8  9  1  0
  9 10  1  0
 10 11  1  0
 11 12  2  0
 11 13  1  0
 13 14  2  0
 14 15  1  0
 15 16  2  0
 16 17  1  0
 10 18  1  0
 18 19  1  0
 19  7  1  0
 17 13  1  0
M  END
>  <energy_score>  (42) 
28.030794

>  <inchikey>  (42) 
AMFKEYBPQSGCKV-UHFFFAOYSA-N

>  <smiles>  (42) 
CC(=O)N[C@@H](C)C1CCN(C(=O)c2ncc[nH]2)CC1

>  <ref_pdb>  (42) 
A0875a

>  <alias>  (42) 
C4100-P87

>  <HIPPO Pose ID>  (42) 
258510

>  <name>  (42) 
C4100-P87

>  <HIPPO Compound ID>  (42) 
4100

>  <ref_mols>  (42) 
A1209a,A0875a

>  <distance_score>  (42) 
1.628314

>  <inspiration_score>  (42) 
None

$$$$
C47450-P255
     RDKit          3D

 23 24  0  0  0  0  0  0  0  0999 V2000
   12.3337   23.3864   22.7971 C   0  0  0  0  0  0  0  0  0  0  0  0
   11.7215   21.5168   23.2284 C   0  0  0  0  0  0  0  0  0  0  0  0
   12.4074   19.8157   24.4914 C   0  0  1  0  0  0  0  0  0  0  0  0
   13.5396   19.7991   25.5160 C   0  0  0  0  0  0  0  0  0  0  0  0
   11.9214   18.2513   25.0246 N   0  0  0  0  0  0  0  0  0  0  0  0
   11.2629   17.1830   24.3352 C   0  0  0  0  0  0  0  0  0  0  0  0
   10.9533   17.0735   23.1943 O   0  0  0  0  0  0  0  0  0  0  0  0
   10.9793   16.0426   25.3341 C   0  0  0  0  0  0  0  0  0  0  0  0
   10.0088   16.3780   26.4273 N   0  0  0  0  0  0  0  0  0  0  0  0
    8.7471   17.0043   25.9495 C   0  0  0  0  0  0  0  0  0  0  0  0
    7.8763   16.1718   24.9802 C   0  0  0  0  0  0  0  0  0  0  0  0
    8.3865   14.8053   24.8483 N   0  0  0  0  0  0  0  0  0  0  0  0
    7.6049   13.9725   23.9422 C   0  0  0  0  0  0  0  0  0  0  0  0
    7.6383   14.4579   22.4700 C   0  0  0  0  0  0  0  0  0  0  0  0
    6.6793   14.1816   21.7897 O   0  0  0  0  0  0  0  0  0  0  0  0
    8.8531   15.1532   22.1352 N   0  0  0  0  0  0  0  0  0  0  0  0
    9.8951   14.1757   21.6841 C   0  0  0  0  0  0  0  0  0  0  0  0
   11.3815   14.5077   21.7681 C   0  0  0  0  0  0  0  0  0  0  0  0
   11.7480   15.4661   20.6678 C   0  0  0  0  0  0  0  0  0  0  0  0
   10.6263   16.4538   20.5047 C   0  0  0  0  0  0  0  0  0  0  0  0
    9.2662   15.8549   20.8643 C   0  0  0  0  0  0  0  0  0  0  0  0
    8.6542   14.2067   26.1502 C   0  0  0  0  0  0  0  0  0  0  0  0
    9.5804   15.0930   27.0465 C   0  0  0  0  0  0  0  0  0  0  0  0
  1  2  1  0
  2  3  1  0
  3  4  1  1
  3  5  1  0
  5  6  1  0
  6  7  2  0
  6  8  1  0
  8  9  1  0
  9 10  1  0
 10 11  1  0
 11 12  1  0
 12 13  1  0
 13 14  1  0
 14 15  2  0
 14 16  1  0
 16 17  1  0
 17 18  1  0
 18 19  1  0
 19 20  1  0
 20 21  1  0
 12 22  1  0
 22 23  1  0
 23  9  1  0
 21 16  1  0
M  END
>  <energy_score>  (43) 
418.838024

>  <inchikey>  (43) 
BBPNLFQSWUWSGS-UHFFFAOYSA-N

>  <smiles>  (43) 
CC[C@@H](C)NC(=O)CN1CCN(CC(=O)N2CCCCC2)CC1

>  <ref_pdb>  (43) 
A3982a

>  <alias>  (43) 
C47450-P255

>  <HIPPO Pose ID>  (43) 
270555

>  <name>  (43) 
C47450-P255

>  <HIPPO Compound ID>  (43) 
47450

>  <ref_mols>  (43) 
A3982a,A0469a

>  <distance_score>  (43) 
2.129854

>  <inspiration_score>  (43) 
None

$$$$
C45698-P198
     RDKit          3D

 21 22  0  0  0  0  0  0  0  0999 V2000
    7.5609   13.4747   22.4292 O   0  0  0  0  0  0  0  0  0  0  0  0
    7.5832   14.0478   23.4448 C   0  0  0  0  0  0  0  0  0  0  0  0
    8.1448   15.4452   23.6471 C   0  0  0  0  0  0  0  0  0  0  0  0
    9.6086   15.2907   24.0594 C   0  0  0  0  0  0  0  0  0  0  0  0
   10.5001   14.4946   23.1111 C   0  0  0  0  0  0  0  0  0  0  0  0
   10.7862   15.1868   21.8513 N   0  0  0  0  0  0  0  0  0  0  0  0
    9.7293   15.0466   20.8361 C   0  0  0  0  0  0  0  0  0  0  0  0
   10.0888   15.7548   19.5299 C   0  0  0  0  0  0  0  0  0  0  0  0
   11.3539   15.2062   18.9431 C   0  0  0  0  0  0  0  0  0  0  0  0
   12.4145   15.2107   20.0089 C   0  0  0  0  0  0  0  0  0  0  0  0
   12.0045   14.5789   21.3125 C   0  0  0  0  0  0  0  0  0  0  0  0
    7.1806   13.5863   24.8653 N   0  0  0  0  0  0  0  0  0  0  0  0
    6.7849   12.3792   25.3133 C   0  0  0  0  0  0  0  0  0  0  0  0
    6.9914   11.0975   24.7867 C   0  0  0  0  0  0  0  0  0  0  0  0
    6.3392   10.1714   25.4958 N   0  0  0  0  0  0  0  0  0  0  0  0
    5.6397   10.9070   26.3834 N   0  0  0  0  0  0  0  0  0  0  0  0
    4.5332   10.3115   27.0804 C   0  0  0  0  0  0  0  0  0  0  0  0
    3.5774   11.3186   27.6735 C   0  0  0  0  0  0  0  0  0  0  0  0
    3.0615   12.1458   26.7291 F   0  0  0  0  0  0  0  0  0  0  0  0
    2.5258   10.6699   28.2265 F   0  0  0  0  0  0  0  0  0  0  0  0
    6.0461   12.2054   26.4458 C   0  0  0  0  0  0  0  0  0  0  0  0
  1  2  2  0
  2  3  1  0
  3  4  1  0
  4  5  1  0
  5  6  1  0
  6  7  1  0
  7  8  1  0
  8  9  1  0
  9 10  1  0
 10 11  1  0
  2 12  1  0
 12 13  1  0
 13 14  1  0
 14 15  2  0
 15 16  1  0
 16 17  1  0
 17 18  1  0
 18 19  1  0
 18 20  1  0
 16 21  1  0
 11  6  1  0
 21 13  2  0
M  END
>  <energy_score>  (44) 
-0.607781

>  <inchikey>  (44) 
SXDJEXICYSZTHS-UHFFFAOYSA-N

>  <smiles>  (44) 
O=C(CCCN1CCCCC1)Nc1cnn(CC(F)F)c1

>  <ref_pdb>  (44) 
A3618a

>  <alias>  (44) 
C45698-P198

>  <HIPPO Pose ID>  (44) 
276638

>  <name>  (44) 
C45698-P198

>  <HIPPO Compound ID>  (44) 
45698

>  <ref_mols>  (44) 
A2304a,A3618a

>  <distance_score>  (44) 
1.145661

>  <inspiration_score>  (44) 
None

$$$$
C45621-P423
     RDKit          3D

 21 22  0  0  0  0  0  0  0  0999 V2000
   13.6815   12.6715   25.6119 C   0  0  0  0  0  0  0  0  0  0  0  0
   13.7970   14.1646   25.8947 C   0  0  0  0  0  0  0  0  0  0  0  0
   12.6092   14.9286   25.6054 O   0  0  0  0  0  0  0  0  0  0  0  0
   12.1703   14.9201   24.3151 C   0  0  0  0  0  0  0  0  0  0  0  0
   12.5222   14.1519   23.5228 O   0  0  0  0  0  0  0  0  0  0  0  0
   11.2680   16.1352   24.1777 N   0  0  0  0  0  0  0  0  0  0  0  0
   10.5099   16.6286   23.0343 C   0  0  1  0  0  0  0  0  0  0  0  0
   11.3120   16.7213   21.7425 C   0  0  0  0  0  0  0  0  0  0  0  0
   11.0721   15.4990   20.8794 C   0  0  0  0  0  0  0  0  0  0  0  0
    9.6647   14.9633   21.1139 C   0  0  0  0  0  0  0  0  0  0  0  0
    9.4584   14.3545   22.4707 N   0  0  0  0  0  0  0  0  0  0  0  0
    8.3430   13.4859   22.9989 C   0  0  0  0  0  0  0  0  0  0  0  0
    7.3381   13.1504   22.4946 O   0  0  0  0  0  0  0  0  0  0  0  0
    8.8613   13.0393   24.3643 C   0  0  0  0  0  0  0  0  0  0  0  0
    7.8530   12.3499   25.2695 C   0  0  1  0  0  0  0  0  0  0  0  0
    6.6250   13.2168   25.5700 C   0  0  0  0  0  0  0  0  0  0  0  0
    5.6679   12.4856   26.5016 C   0  0  0  0  0  0  0  0  0  0  0  0
    5.3993   11.0607   26.0347 C   0  0  0  0  0  0  0  0  0  0  0  0
    6.6026   10.3009   25.7081 N   0  0  0  0  0  0  0  0  0  0  0  0
    7.4454   10.9831   24.7349 C   0  0  0  0  0  0  0  0  0  0  0  0
    9.2216   15.8178   22.8056 C   0  0  0  0  0  0  0  0  0  0  0  0
  1  2  1  0
  2  3  1  0
  3  4  1  0
  4  5  2  0
  4  6  1  0
  7  6  1  1
  7  8  1  0
  8  9  1  0
  9 10  1  0
 10 11  1  0
 11 12  1  0
 12 13  2  0
 12 14  1  0
 15 14  1  6
 15 16  1  0
 16 17  1  0
 17 18  1  0
 18 19  1  0
 19 20  1  0
 11 21  1  0
 21  7  1  0
 20 15  1  0
M  END
>  <energy_score>  (45) 
52.116433

>  <inchikey>  (45) 
INVNYAFFMZVEBF-UHFFFAOYSA-N

>  <smiles>  (45) 
CCOC(=O)N[C@H]1CCCN(C(=O)C[C@H]2CCCNC2)C1

>  <ref_pdb>  (45) 
A4650a

>  <alias>  (45) 
C45621-P423

>  <HIPPO Pose ID>  (45) 
286979

>  <name>  (45) 
C45621-P423

>  <HIPPO Compound ID>  (45) 
45621

>  <ref_mols>  (45) 
A4650a,A0875a

>  <distance_score>  (45) 
1.614888

>  <inspiration_score>  (45) 
None

$$$$
C3473-P356
     RDKit          3D

 19 20  0  0  0  0  0  0  0  0999 V2000
    9.7127   14.7905   21.9865 C   0  0  0  0  0  0  0  0  0  0  0  0
   10.8242   15.5539   21.2389 C   0  0  0  0  0  0  0  0  0  0  0  0
   12.1364   15.2711   21.9449 C   0  0  0  0  0  0  0  0  0  0  0  0
   10.8202   15.2737   19.7497 C   0  0  0  0  0  0  0  0  0  0  0  0
    9.6735   15.3210   18.9437 C   0  0  0  0  0  0  0  0  0  0  0  0
    9.9868   14.8485   17.6771 C   0  0  0  0  0  0  0  0  0  0  0  0
    9.0079   14.1085   16.3615 C   0  0  0  0  0  0  0  0  0  0  0  0
    8.1654   14.1660   14.9534 N   0  0  0  0  0  0  0  0  0  0  0  0
    8.4930   13.4443   13.3689 C   0  0  0  0  0  0  0  0  0  0  0  0
    9.4286   12.6708   13.1013 O   0  0  0  0  0  0  0  0  0  0  0  0
    7.4725   13.9075   11.6266 C   0  0  0  0  0  0  0  0  0  0  0  0
    7.3800   13.6252    9.7533 O   0  0  0  0  0  0  0  0  0  0  0  0
    6.8776   14.0183    7.8946 C   0  0  1  0  0  0  0  0  0  0  0  0
    7.0559   15.1485    6.7314 C   0  0  0  0  0  0  0  0  0  0  0  0
    7.7150   14.8405    5.3553 C   0  0  0  0  0  0  0  0  0  0  0  0
    7.9562   13.4421    5.3858 N   0  0  0  0  0  0  0  0  0  0  0  0
    6.9102   12.9965    6.2804 C   0  0  0  0  0  0  0  0  0  0  0  0
   11.3371   14.5421   17.7509 O   0  0  0  0  0  0  0  0  0  0  0  0
   11.8558   14.8670   19.0141 N   0  0  0  0  0  0  0  0  0  0  0  0
  1  2  1  0
  2  3  1  0
  2  4  1  0
  4  5  1  0
  5  6  2  0
  6  7  1  0
  7  8  1  0
  8  9  1  0
  9 10  2  0
  9 11  1  0
 11 12  1  0
 13 12  1  1
 13 14  1  0
 14 15  1  0
 15 16  1  0
 16 17  1  0
  6 18  1  0
 18 19  1  0
 19  4  2  0
 17 13  1  0
M  END
>  <energy_score>  (46) 
626.739564

>  <inchikey>  (46) 
JPTZGLGKRWDLEQ-UHFFFAOYSA-N

>  <smiles>  (46) 
CC(C)c1cc(CNC(=O)CO[C@H]2CCNC2)on1

>  <ref_pdb>  (46) 
A4418a

>  <alias>  (46) 
C3473-P356

>  <HIPPO Pose ID>  (46) 
287259

>  <name>  (46) 
C3473-P356

>  <HIPPO Compound ID>  (46) 
3473

>  <ref_mols>  (46) 
A0541a,A4418a

>  <distance_score>  (46) 
3.749579

>  <inspiration_score>  (46) 
None

$$$$
C119126-P296
     RDKit          3D

 19 20  0  0  0  0  0  0  0  0999 V2000
    4.7713   13.5164   26.1140 C   0  0  0  0  0  0  0  0  0  0  0  0
    5.5472   12.9119   27.2722 C   0  0  0  0  0  0  0  0  0  0  0  0
    6.7720   13.7622   27.5979 C   0  0  0  0  0  0  0  0  0  0  0  0
    5.8023   11.3895   27.1322 C   0  0  0  0  0  0  0  0  0  0  0  0
    6.6894   10.8943   26.0473 C   0  0  0  0  0  0  0  0  0  0  0  0
    7.2005    9.6593   26.0356 N   0  0  0  0  0  0  0  0  0  0  0  0
    8.3264    9.6108   24.7704 S   0  0  0  0  0  0  0  0  0  0  0  0
    8.0757   11.2530   24.4116 C   0  0  0  0  0  0  0  0  0  0  0  0
    8.9167   12.0594   23.7423 N   0  0  0  0  0  0  0  0  0  0  0  0
    9.0220   13.3565   24.4115 C   0  0  1  0  0  0  0  0  0  0  0  0
    9.8451   13.2262   25.6825 C   0  0  0  0  0  0  0  0  0  0  0  0
    9.7293   14.3794   23.5953 C   0  0  0  0  0  0  0  0  0  0  0  0
    9.0618   14.6706   22.2744 C   0  0  0  0  0  0  0  0  0  0  0  0
    9.5318   15.9615   21.7452 N   0  0  0  0  0  0  0  0  0  0  0  0
   10.9449   16.2785   21.9962 C   0  0  0  0  0  0  0  0  0  0  0  0
   11.7134   15.3841   21.0553 C   0  0  0  0  0  0  0  0  0  0  0  0
   10.8198   15.3213   19.8294 C   0  0  0  0  0  0  0  0  0  0  0  0
    9.4933   15.9293   20.2749 C   0  0  0  0  0  0  0  0  0  0  0  0
    7.0428   11.7379   25.0494 N   0  0  0  0  0  0  0  0  0  0  0  0
  1  2  1  0
  2  3  1  0
  2  4  1  0
  4  5  1  0
  5  6  2  0
  6  7  1  0
  7  8  1  0
  8  9  1  0
  9 10  1  0
 10 11  1  1
 10 12  1  0
 12 13  1  0
 13 14  1  0
 14 15  1  0
 15 16  1  0
 16 17  1  0
 17 18  1  0
  8 19  2  0
 19  5  1  0
 18 14  1  0
M  END
>  <energy_score>  (47) 
-49.878332

>  <inchikey>  (47) 
IUBXWEMAFPFTMR-UHFFFAOYSA-N

>  <smiles>  (47) 
CC(C)Cc1nsc(N[C@@H](C)CCN2CCCC2)n1

>  <ref_pdb>  (47) 
A4311a

>  <alias>  (47) 
C119126-P296

>  <HIPPO Pose ID>  (47) 
292336

>  <name>  (47) 
C119126-P296

>  <HIPPO Compound ID>  (47) 
119126

>  <ref_mols>  (47) 
A4311a,A1140a

>  <distance_score>  (47) 
1.78011

>  <inspiration_score>  (47) 
None

$$$$
C45810-P208
     RDKit          3D

 22 24  0  0  0  0  0  0  0  0999 V2000
    8.0920   14.6080   28.0156 O   0  0  0  0  0  0  0  0  0  0  0  0
    7.8950   14.9844   26.9271 C   0  0  0  0  0  0  0  0  0  0  0  0
    6.5639   14.7951   26.2078 C   0  0  0  0  0  0  0  0  0  0  0  0
    6.5626   13.5759   25.2795 C   0  0  2  0  0  0  0  0  0  0  0  0
    6.3835   12.2219   26.0061 C   0  0  0  0  0  0  0  0  0  0  0  0
    7.2654   11.3470   25.1910 C   0  0  0  0  0  0  0  0  0  0  0  0
    7.3764    9.9738   25.1863 C   0  0  0  0  0  0  0  0  0  0  0  0
    8.3700    9.4132   24.3868 C   0  0  0  0  0  0  0  0  0  0  0  0
    9.2631   10.2155   23.6677 C   0  0  0  0  0  0  0  0  0  0  0  0
    9.1437   11.5974   23.6892 C   0  0  0  0  0  0  0  0  0  0  0  0
    8.0947   12.1379   24.4002 C   0  0  0  0  0  0  0  0  0  0  0  0
    7.7780   13.5144   24.4234 N   0  0  0  0  0  0  0  0  0  0  0  0
    8.8595   15.6436   25.8981 N   0  0  0  0  0  0  0  0  0  0  0  0
   10.2837   15.8854   25.9676 C   0  0  0  0  0  0  0  0  0  0  0  0
   10.8526   16.2797   24.6041 C   0  0  0  0  0  0  0  0  0  0  0  0
   11.1237   15.0992   23.6752 C   0  0  0  0  0  0  0  0  0  0  0  0
   11.3891   15.5070   22.2879 N   0  0  0  0  0  0  0  0  0  0  0  0
   10.1613   15.9416   21.5884 C   0  0  0  0  0  0  0  0  0  0  0  0
   10.4655   16.3537   20.1492 C   0  0  0  0  0  0  0  0  0  0  0  0
   11.1286   15.2535   19.3475 C   0  0  0  0  0  0  0  0  0  0  0  0
   12.3117   14.7204   20.1290 C   0  0  0  0  0  0  0  0  0  0  0  0
   11.9301   14.3527   21.5598 C   0  0  0  0  0  0  0  0  0  0  0  0
  1  2  2  0
  2  3  1  0
  4  3  1  1
  4  5  1  0
  5  6  1  0
  6  7  2  0
  7  8  1  0
  8  9  2  0
  9 10  1  0
 10 11  2  0
 11 12  1  0
  2 13  1  0
 13 14  1  0
 14 15  1  0
 15 16  1  0
 16 17  1  0
 17 18  1  0
 18 19  1  0
 19 20  1  0
 20 21  1  0
 21 22  1  0
 12  4  1  0
 22 17  1  0
 11  6  1  0
M  END
>  <energy_score>  (48) 
-25.434607

>  <inchikey>  (48) 
BYSHFDHZCXUNGM-UHFFFAOYSA-N

>  <smiles>  (48) 
O=C(C[C@@H]1Cc2ccccc2N1)NCCCN1CCCCC1

>  <ref_pdb>  (48) 
A3706b

>  <alias>  (48) 
C45810-P208

>  <HIPPO Pose ID>  (48) 
295956

>  <name>  (48) 
C45810-P208

>  <HIPPO Compound ID>  (48) 
45810

>  <ref_mols>  (48) 
A3706b,A1778a

>  <distance_score>  (48) 
1.709705

>  <inspiration_score>  (48) 
None

$$$$
C21091-P489
     RDKit          3D

 21 23  0  0  0  0  0  0  0  0999 V2000
    8.3467   15.5358   23.8076 O   0  0  0  0  0  0  0  0  0  0  0  0
    8.6401   14.3964   23.7828 C   0  0  0  0  0  0  0  0  0  0  0  0
    7.6163   13.3137   24.2536 C   0  0  0  0  0  0  0  0  0  0  0  0
    6.7947   13.9019   25.4199 C   0  0  0  0  0  0  0  0  0  0  0  0
    5.6809   12.9828   25.9116 C   0  0  0  0  0  0  0  0  0  0  0  0
    6.1046   11.5578   26.1219 C   0  0  0  0  0  0  0  0  0  0  0  0
    5.5369   10.8033   27.0723 C   0  0  0  0  0  0  0  0  0  0  0  0
    4.5896   11.2880   27.8961 F   0  0  0  0  0  0  0  0  0  0  0  0
    5.8517    9.5113   27.1723 F   0  0  0  0  0  0  0  0  0  0  0  0
    7.1103   10.9750   25.1632 C   0  0  0  0  0  0  0  0  0  0  0  0
    8.1774   11.9620   24.7041 C   0  0  0  0  0  0  0  0  0  0  0  0
    9.8854   13.7172   23.2540 N   0  0  0  0  0  0  0  0  0  0  0  0
   10.9373   13.5973   24.3237 C   0  0  0  0  0  0  0  0  0  0  0  0
   11.6723   14.8855   24.6145 C   0  0  0  0  0  0  0  0  0  0  0  0
   11.7336   15.4355   23.2502 C   0  0  0  0  0  0  0  0  0  0  0  0
   11.0875   14.2876   22.5030 C   0  0  2  0  0  0  0  0  0  0  0  0
   10.7591   14.7618   21.1273 C   0  0  0  0  0  0  0  0  0  0  0  0
   11.7519   15.0554   20.1578 C   0  0  0  0  0  0  0  0  0  0  0  0
   11.2541   15.4606   18.9984 N   0  0  0  0  0  0  0  0  0  0  0  0
    9.9413   15.4038   19.2017 N   0  0  0  0  0  0  0  0  0  0  0  0
    9.5855   15.0600   20.4781 C   0  0  0  0  0  0  0  0  0  0  0  0
  1  2  2  0
  2  3  1  0
  3  4  1  0
  4  5  1  0
  5  6  1  0
  6  7  2  3
  7  8  1  0
  7  9  1  0
  6 10  1  0
 10 11  1  0
  2 12  1  0
 12 13  1  0
 13 14  1  0
 14 15  1  0
 15 16  1  0
 16 17  1  6
 17 18  1  0
 18 19  2  0
 19 20  1  0
 20 21  1  0
 11  3  1  0
 16 12  1  0
 21 17  2  0
M  END
>  <energy_score>  (49) 
38.352199

>  <inchikey>  (49) 
WSOYYZMSIYXMKE-UHFFFAOYSA-N

>  <smiles>  (49) 
O=C(C1CCC(=C(F)F)CC1)N1CCC[C@@H]1c1cn[nH]c1

>  <ref_pdb>  (49) 
A4855a

>  <alias>  (49) 
C21091-P489

>  <HIPPO Pose ID>  (49) 
298844

>  <name>  (49) 
C21091-P489

>  <HIPPO Compound ID>  (49) 
21091

>  <ref_mols>  (49) 
A4855a,A0556a

>  <distance_score>  (49) 
1.23858

>  <inspiration_score>  (49) 
None

$$$$
C47038-P373
     RDKit          3D

 23 25  0  0  0  0  0  0  0  0999 V2000
   21.3237   24.3691   17.3429 C   0  0  0  0  0  0  0  0  0  0  0  0
   21.9580   24.6249   16.0276 N   0  0  0  0  0  0  0  0  0  0  0  0
   22.9060   23.5144   16.5176 C   0  0  0  0  0  0  0  0  0  0  0  0
   23.9495   23.6783   17.6932 C   0  0  2  0  0  0  0  0  0  0  0  0
   25.3957   23.4544   17.2151 C   0  0  0  0  0  0  0  0  0  0  0  0
   26.4119   23.4915   18.3640 C   0  0  0  0  0  0  0  0  0  0  0  0
   25.7903   23.2141   19.7312 C   0  0  0  0  0  0  0  0  0  0  0  0
   24.7522   22.1936   19.6319 N   0  0  0  0  0  0  0  0  0  0  0  0
   23.6215   22.6687   18.8292 C   0  0  0  0  0  0  0  0  0  0  0  0
   22.7126   25.7447   15.5565 C   0  0  0  0  0  0  0  0  0  0  0  0
   23.1023   26.7267   16.1377 O   0  0  0  0  0  0  0  0  0  0  0  0
   22.9834   25.6215   14.0232 C   0  0  0  0  0  0  0  0  0  0  0  0
   21.7921   25.3413   13.1865 N   0  0  0  0  0  0  0  0  0  0  0  0
   20.7096   26.3112   13.2740 C   0  0  0  0  0  0  0  0  0  0  0  0
   21.4513   24.0637   12.8018 C   0  0  0  0  0  0  0  0  0  0  0  0
   20.2495   23.7457   12.3658 N   0  0  0  0  0  0  0  0  0  0  0  0
   20.0558   22.3770   12.4296 C   0  0  0  0  0  0  0  0  0  0  0  0
   18.6258   21.5849   12.2401 C   0  0  0  0  0  0  0  0  0  0  0  0
   18.6259   19.8546   12.0054 C   0  0  0  0  0  0  0  0  0  0  0  0
   19.8007   18.6668   12.3455 C   0  0  0  0  0  0  0  0  0  0  0  0
   21.3142   19.5844   13.1833 C   0  0  0  0  0  0  0  0  0  0  0  0
   21.3634   21.4375   12.9134 C   0  0  0  0  0  0  0  0  0  0  0  0
   22.6290   22.8047   12.7155 S   0  0  0  0  0  0  0  0  0  0  0  0
  1  2  1  0
  2  3  1  0
  4  3  1  6
  4  5  1  0
  5  6  1  0
  6  7  1  0
  7  8  1  0
  8  9  1  0
  2 10  1  0
 10 11  2  0
 10 12  1  0
 12 13  1  0
 13 14  1  0
 13 15  1  0
 15 16  2  0
 16 17  1  0
 17 18  2  0
 18 19  1  0
 19 20  2  0
 20 21  1  0
 21 22  2  0
 22 23  1  0
  9  4  1  0
 23 15  1  0
 22 17  1  0
M  END
>  <energy_score>  (50) 
314.304149

>  <inchikey>  (50) 
VQKUUICJVHGODM-UHFFFAOYSA-N

>  <smiles>  (50) 
CN(C[C@@H]1CCCNC1)C(=O)CN(C)c1nc2ccccc2s1

>  <ref_pdb>  (50) 
A4461a

>  <alias>  (50) 
C47038-P373

>  <HIPPO Pose ID>  (50) 
301282

>  <name>  (50) 
C47038-P373

>  <HIPPO Compound ID>  (50) 
47038

>  <ref_mols>  (50) 
A0514b,A4461a

>  <distance_score>  (50) 
3.925633

>  <inspiration_score>  (50) 
None

$$$$
C47019-P328
     RDKit          3D

 22 23  0  0  0  0  0  0  0  0999 V2000
   13.9030   11.1326   25.4205 C   0  0  0  0  0  0  0  0  0  0  0  0
   12.4107   11.4895   25.3543 C   0  0  0  0  0  0  0  0  0  0  0  0
   11.4149   10.2710   25.0570 C   0  0  0  0  0  0  0  0  0  0  0  0
   10.2739   10.7080   24.2929 N   0  0  0  0  0  0  0  0  0  0  0  0
    9.6323    9.7124   23.4493 C   0  0  0  0  0  0  0  0  0  0  0  0
    8.4228    9.0345   24.0563 C   0  0  0  0  0  0  0  0  0  0  0  0
    7.4049   10.0187   24.5836 C   0  0  0  0  0  0  0  0  0  0  0  0
    8.0433   11.0123   25.4963 C   0  0  2  0  0  0  0  0  0  0  0  0
    7.1082   12.1317   25.9170 C   0  0  0  0  0  0  0  0  0  0  0  0
    6.6903   12.2424   26.9954 O   0  0  0  0  0  0  0  0  0  0  0  0
    6.9644   13.0472   24.6972 N   0  0  0  0  0  0  0  0  0  0  0  0
    6.3645   14.3242   24.5703 C   0  0  0  0  0  0  0  0  0  0  0  0
    7.6250   15.2199   24.5970 C   0  0  2  0  0  0  0  0  0  0  0  0
    7.4731   16.3070   25.5046 O   0  0  0  0  0  0  0  0  0  0  0  0
    8.0278   15.6956   23.1865 C   0  0  0  0  0  0  0  0  0  0  0  0
    9.2503   15.1053   22.5882 N   0  0  0  0  0  0  0  0  0  0  0  0
   10.4373   15.3951   23.4176 C   0  0  0  0  0  0  0  0  0  0  0  0
   11.7376   14.9608   22.7443 C   0  0  0  0  0  0  0  0  0  0  0  0
   11.9009   15.6619   21.4063 C   0  0  0  0  0  0  0  0  0  0  0  0
   10.6996   15.3553   20.5323 C   0  0  0  0  0  0  0  0  0  0  0  0
    9.4016   15.7165   21.2423 C   0  0  0  0  0  0  0  0  0  0  0  0
    9.3603   11.6244   24.9496 C   0  0  0  0  0  0  0  0  0  0  0  0
  1  2  1  0
  2  3  1  0
  3  4  1  0
  4  5  1  0
  5  6  1  0
  6  7  1  0
  7  8  1  0
  8  9  1  6
  9 10  2  0
  9 11  1  0
 11 12  1  0
 12 13  1  0
 13 14  1  1
 13 15  1  0
 15 16  1  0
 16 17  1  0
 17 18  1  0
 18 19  1  0
 19 20  1  0
 20 21  1  0
  8 22  1  0
 22  4  1  0
 21 16  1  0
M  END
>  <energy_score>  (51) 
-12.215926

>  <inchikey>  (51) 
BMJHPSVXCNOHQF-UHFFFAOYSA-N

>  <smiles>  (51) 
CCCN1CCC[C@H](C(=O)NC[C@H](O)CN2CCCCC2)C1

>  <ref_pdb>  (51) 
A4374a

>  <alias>  (51) 
C47019-P328

>  <HIPPO Pose ID>  (51) 
305573

>  <name>  (51) 
C47019-P328

>  <HIPPO Compound ID>  (51) 
47019

>  <ref_mols>  (51) 
A4374a,A0875a

>  <distance_score>  (51) 
1.861668

>  <inspiration_score>  (51) 
None

$$$$
C107313-P87
     RDKit          3D

 23 25  0  0  0  0  0  0  0  0999 V2000
   21.6572   19.8460   23.5798 O   0  0  0  0  0  0  0  0  0  0  0  0
   22.1404   18.7671   23.5704 C   0  0  0  0  0  0  0  0  0  0  0  0
   21.5253   17.3509   24.0184 N   0  0  0  0  0  0  0  0  0  0  0  0
   20.1337   17.0038   24.6991 C   0  0  1  0  0  0  0  0  0  0  0  0
   18.9080   17.2922   23.7538 C   0  0  0  0  0  0  0  0  0  0  0  0
   18.0370   16.2061   23.5004 O   0  0  0  0  0  0  0  0  0  0  0  0
   19.7380   15.7480   25.6079 C   0  0  0  0  0  0  0  0  0  0  0  0
   19.0761   14.6124   25.1180 N   0  0  0  0  0  0  0  0  0  0  0  0
   18.4688   14.0622   26.1488 C   0  0  0  0  0  0  0  0  0  0  0  0
   18.6669   14.8594   27.2153 N   0  0  0  0  0  0  0  0  0  0  0  0
   19.5139   15.8907   26.9327 N   0  0  0  0  0  0  0  0  0  0  0  0
   23.6328   18.8400   22.9820 C   0  0  0  0  0  0  0  0  0  0  0  0
   24.1827   18.2501   21.8579 C   0  0  0  0  0  0  0  0  0  0  0  0
   25.3280   18.6862   21.1459 N   0  0  0  0  0  0  0  0  0  0  0  0
   25.9943   19.8020   21.5513 C   0  0  0  0  0  0  0  0  0  0  0  0
   27.0955   20.4470   20.6394 C   0  0  0  0  0  0  0  0  0  0  0  0
   28.0484   19.4376   19.9515 C   0  0  0  0  0  0  0  0  0  0  0  0
   29.4903   19.9387   19.7469 C   0  0  0  0  0  0  0  0  0  0  0  0
   29.5266   21.3276   19.3117 N   0  0  0  0  0  0  0  0  0  0  0  0
   28.9323   22.2289   20.2945 C   0  0  0  0  0  0  0  0  0  0  0  0
   27.9414   21.5728   21.2815 C   0  0  0  0  0  0  0  0  0  0  0  0
   25.5587   20.4700   22.6354 N   0  0  0  0  0  0  0  0  0  0  0  0
   24.4051   19.9876   23.2726 C   0  0  0  0  0  0  0  0  0  0  0  0
  1  2  2  0
  2  3  1  0
  3  4  1  0
  4  5  1  6
  5  6  1  0
  4  7  1  0
  7  8  1  0
  8  9  2  0
  9 10  1  0
 10 11  1  0
  2 12  1  0
 12 13  2  0
 13 14  1  0
 14 15  2  0
 15 16  1  0
 16 17  1  0
 17 18  1  0
 18 19  1  0
 19 20  1  0
 20 21  1  0
 15 22  1  0
 22 23  2  0
 11  7  2  0
 23 12  1  0
 21 16  1  0
M  END
>  <energy_score>  (52) 
47.539883

>  <inchikey>  (52) 
UTKHDYJCBLMZTI-UHFFFAOYSA-N

>  <smiles>  (52) 
O=C(N[C@@H](CO)c1nc[nH]n1)c1cnc(C2CCNCC2)nc1

>  <ref_pdb>  (52) 
A0875a

>  <alias>  (52) 
C107313-P87

>  <HIPPO Pose ID>  (52) 
315183

>  <name>  (52) 
C107313-P87

>  <HIPPO Compound ID>  (52) 
107313

>  <ref_mols>  (52) 
A1146a,A0875a

>  <distance_score>  (52) 
5.264092

>  <inspiration_score>  (52) 
None

$$$$
C35612-P128
     RDKit          3D

 23 26  0  0  0  0  0  0  0  0999 V2000
   11.9119   13.6164   25.2830 O   0  0  0  0  0  0  0  0  0  0  0  0
   11.2534   13.4772   24.2952 C   0  0  0  0  0  0  0  0  0  0  0  0
   11.5870   12.9271   23.0262 N   0  0  0  0  0  0  0  0  0  0  0  0
   12.7335   12.3078   22.5839 C   0  0  0  0  0  0  0  0  0  0  0  0
   12.9020   11.9132   21.0232 C   0  0  0  0  0  0  0  0  0  0  0  0
   14.3116   10.8152   20.3832 C   0  0  0  0  0  0  0  0  0  0  0  0
   15.7874   10.8012   21.3539 C   0  0  0  0  0  0  0  0  0  0  0  0
   17.2490    9.6134   21.0641 C   0  0  0  0  0  0  0  0  0  0  0  0
   17.5182    8.3766   21.7629 C   0  0  0  0  0  0  0  0  0  0  0  0
   18.6064    7.7464   21.2295 C   0  0  0  0  0  0  0  0  0  0  0  0
   19.1495    8.6145   20.4006 N   0  0  0  0  0  0  0  0  0  0  0  0
   18.5686    9.7932   20.5773 N   0  0  0  0  0  0  0  0  0  0  0  0
   15.2754   11.0528   23.0166 C   0  0  0  0  0  0  0  0  0  0  0  0
   13.7360   11.6724   23.6428 C   0  0  0  0  0  0  0  0  0  0  0  0
    9.8576   13.8264   24.4037 C   0  0  0  0  0  0  0  0  0  0  0  0
    9.1850   13.9994   25.5980 C   0  0  0  0  0  0  0  0  0  0  0  0
    7.8407   13.9070   25.4380 N   0  0  0  0  0  0  0  0  0  0  0  0
    7.6692   13.9796   24.1399 C   0  0  0  0  0  0  0  0  0  0  0  0
    6.4955   14.1664   23.3871 C   0  0  0  0  0  0  0  0  0  0  0  0
    6.5805   14.3594   22.0725 C   0  0  0  0  0  0  0  0  0  0  0  0
    7.9310   14.2814   21.4907 C   0  0  0  0  0  0  0  0  0  0  0  0
    9.0448   14.0278   22.1038 N   0  0  0  0  0  0  0  0  0  0  0  0
    8.8729   13.9413   23.4588 N   0  0  0  0  0  0  0  0  0  0  0  0
  1  2  2  0
  2  3  1  0
  3  4  1  0
  4  5  2  0
  5  6  1  0
  6  7  2  0
  7  8  1  0
  8  9  1  0
  9 10  2  0
 10 11  1  0
 11 12  1  0
  7 13  1  0
 13 14  2  0
  2 15  1  0
 15 16  2  0
 16 17  1  0
 17 18  2  0
 18 19  1  0
 19 20  2  0
 20 21  1  0
 21 22  2  0
 22 23  1  0
 14  4  1  0
 23 15  1  0
 12  8  2  0
 23 18  1  0
M  END
>  <energy_score>  (53) 
281.951955

>  <inchikey>  (53) 
JYQMCBGVXVNZTI-UHFFFAOYSA-N

>  <smiles>  (53) 
O=C(Nc1ccc(-c2cc[nH]n2)cc1)c1cnc2cccnn12

>  <ref_pdb>  (53) 
A2304a

>  <alias>  (53) 
C35612-P128

>  <HIPPO Pose ID>  (53) 
317958

>  <name>  (53) 
C35612-P128

>  <HIPPO Compound ID>  (53) 
35612

>  <ref_mols>  (53) 
A2304a,A0202a

>  <distance_score>  (53) 
6.227727

>  <inspiration_score>  (53) 
None

$$$$
C47627-P303
     RDKit          3D

 23 24  0  0  0  0  0  0  0  0999 V2000
    7.2726   15.8445   21.5417 C   0  0  0  0  0  0  0  0  0  0  0  0
    8.2379   14.7310   21.0951 C   0  0  2  0  0  0  0  0  0  0  0  0
    8.3181   13.8964   22.2728 N   0  0  0  0  0  0  0  0  0  0  0  0
    7.3210   13.7165   23.4507 C   0  0  0  0  0  0  0  0  0  0  0  0
    6.3211   14.2715   23.6866 O   0  0  0  0  0  0  0  0  0  0  0  0
    7.8865   12.7076   24.4253 C   0  0  0  0  0  0  0  0  0  0  0  0
    6.8737   12.5016   25.5567 C   0  0  0  0  0  0  0  0  0  0  0  0
    7.0312   11.1489   26.2234 C   0  0  0  0  0  0  0  0  0  0  0  0
    6.0003   10.9845   27.3369 C   0  0  0  0  0  0  0  0  0  0  0  0
    6.0265   12.0811   28.3066 N   0  0  0  0  0  0  0  0  0  0  0  0
    5.8238   13.3755   27.6466 C   0  0  0  0  0  0  0  0  0  0  0  0
    6.8958   13.6318   26.5920 C   0  0  0  0  0  0  0  0  0  0  0  0
    9.5086   15.3957   20.4570 C   0  0  0  0  0  0  0  0  0  0  0  0
   10.6631   14.6377   19.8048 C   0  0  0  0  0  0  0  0  0  0  0  0
   11.7854   14.2941   20.7803 C   0  0  0  0  0  0  0  0  0  0  0  0
   11.2033   14.1088   22.1153 N   0  0  0  0  0  0  0  0  0  0  0  0
   12.1275   13.5460   23.0840 C   0  0  0  0  0  0  0  0  0  0  0  0
   11.5358   13.0026   24.3714 C   0  0  0  0  0  0  0  0  0  0  0  0
   12.5435   12.5775   25.1696 F   0  0  0  0  0  0  0  0  0  0  0  0
   10.7278   11.9510   24.1258 F   0  0  0  0  0  0  0  0  0  0  0  0
   10.8411   13.9179   25.0816 F   0  0  0  0  0  0  0  0  0  0  0  0
   10.7530   15.3996   22.6104 C   0  0  0  0  0  0  0  0  0  0  0  0
   10.1387   16.2381   21.5086 C   0  0  0  0  0  0  0  0  0  0  0  0
  2  1  1  1
  2  3  1  0
  3  4  1  0
  4  5  2  0
  4  6  1  0
  6  7  1  0
  7  8  1  0
  8  9  1  0
  9 10  1  0
 10 11  1  0
 11 12  1  0
  2 13  1  0
 13 14  1  0
 14 15  1  0
 15 16  1  0
 16 17  1  0
 17 18  1  0
 18 19  1  0
 18 20  1  0
 18 21  1  0
 16 22  1  0
 22 23  1  0
 12  7  1  0
 23 13  1  0
M  END
>  <energy_score>  (54) 
-0.741983

>  <inchikey>  (54) 
NSEOJLQNOXGNBV-UHFFFAOYSA-N

>  <smiles>  (54) 
C[C@H](NC(=O)CC1CCNCC1)C1CCN(CC(F)(F)F)CC1

>  <ref_pdb>  (54) 
A4320a

>  <alias>  (54) 
C47627-P303

>  <HIPPO Pose ID>  (54) 
325526

>  <name>  (54) 
C47627-P303

>  <HIPPO Compound ID>  (54) 
47627

>  <ref_mols>  (54) 
A0875a,A4320a

>  <distance_score>  (54) 
1.412618

>  <inspiration_score>  (54) 
None

$$$$
C1613-P198
     RDKit          3D

 17 17  0  0  0  0  0  0  0  0999 V2000
    8.0362    9.7053   24.4031 C   0  0  0  0  0  0  0  0  0  0  0  0
    7.7285   11.0217   25.1070 C   0  0  1  0  0  0  0  0  0  0  0  0
    7.9962   12.2666   24.2774 C   0  0  0  0  0  0  0  0  0  0  0  0
    9.2827   12.0910   23.4848 C   0  0  0  0  0  0  0  0  0  0  0  0
    9.9642   13.2972   23.1904 N   0  0  0  0  0  0  0  0  0  0  0  0
   11.4044   13.7471   23.5349 C   0  0  0  0  0  0  0  0  0  0  0  0
   12.2235   13.2274   24.1783 O   0  0  0  0  0  0  0  0  0  0  0  0
   11.5931   14.9828   22.7724 C   0  0  0  0  0  0  0  0  0  0  0  0
   11.6185   14.7893   21.4421 C   0  0  0  0  0  0  0  0  0  0  0  0
   11.0177   15.7253   20.5809 C   0  0  0  0  0  0  0  0  0  0  0  0
   10.8399   15.6580   19.2272 C   0  0  0  0  0  0  0  0  0  0  0  0
   10.0428   16.7106   18.8876 O   0  0  0  0  0  0  0  0  0  0  0  0
    9.7883   17.3463   20.0703 C   0  0  0  0  0  0  0  0  0  0  0  0
   10.3221   16.7738   21.1168 N   0  0  0  0  0  0  0  0  0  0  0  0
    6.2317   10.9211   26.1049 S   0  0  0  0  0  0  0  0  0  0  0  0
    5.6250   12.5961   26.0558 C   0  0  0  0  0  0  0  0  0  0  0  0
    5.1580    9.9161   25.3890 O   0  0  0  0  0  0  0  0  0  0  0  0
  2  1  1  6
  2  3  1  0
  3  4  1  0
  4  5  1  0
  5  6  1  0
  6  7  2  0
  6  8  1  0
  8  9  2  3
  9 10  1  0
 10 11  2  0
 11 12  1  0
 12 13  1  0
 13 14  2  0
  2 15  1  0
 15 16  1  6
 15 17  1  0
 14 10  1  0
M  CHG  2  15   1  17  -1
M  END
>  <energy_score>  (55) 
-13.503376

>  <inchikey>  (55) 
ICXOSEBIRNMDJQ-UHFFFAOYSA-N

>  <smiles>  (55) 
C[C@@H](CCNC(=O)C=Cc1cocn1)[S@@+](C)[O-]

>  <ref_pdb>  (55) 
A3618a

>  <alias>  (55) 
C1613-P198

>  <HIPPO Pose ID>  (55) 
330608

>  <name>  (55) 
C1613-P198

>  <HIPPO Compound ID>  (55) 
1613

>  <ref_mols>  (55) 
A3568a,A3618a

>  <distance_score>  (55) 
1.165304

>  <inspiration_score>  (55) 
None

$$$$
C13863-P127
     RDKit          3D

 23 25  0  0  0  0  0  0  0  0999 V2000
   10.7712   14.2244   24.2229 O   0  0  0  0  0  0  0  0  0  0  0  0
   10.4390   13.4332   23.4322 C   0  0  0  0  0  0  0  0  0  0  0  0
   10.0638   13.6023   21.9456 N   0  0  0  0  0  0  0  0  0  0  0  0
    9.9269   14.7880   21.1467 C   0  0  1  0  0  0  0  0  0  0  0  0
    8.7222   15.5385   21.7403 C   0  0  0  0  0  0  0  0  0  0  0  0
    8.7375   15.6763   23.1495 O   0  0  0  0  0  0  0  0  0  0  0  0
   11.2191   15.6056   20.9723 C   0  0  0  0  0  0  0  0  0  0  0  0
   11.3946   16.2618   19.6582 N   0  0  0  0  0  0  0  0  0  0  0  0
   10.2281   16.9344   19.1033 C   0  0  0  0  0  0  0  0  0  0  0  0
    9.9754   18.2564   19.7975 C   0  0  0  0  0  0  0  0  0  0  0  0
   11.1576   19.2078   19.6569 C   0  0  0  0  0  0  0  0  0  0  0  0
   12.3885   18.5276   19.0721 C   0  0  0  0  0  0  0  0  0  0  0  0
   12.6000   17.1090   19.6186 C   0  0  0  0  0  0  0  0  0  0  0  0
   10.2135   11.9737   23.8667 C   0  0  2  0  0  0  0  0  0  0  0  0
   10.0855   10.9464   22.7546 C   0  0  0  0  0  0  0  0  0  0  0  0
   10.1896    9.5987   23.2820 N   0  0  0  0  0  0  0  0  0  0  0  0
    8.9421    9.2990   23.9693 C   0  0  0  0  0  0  0  0  0  0  0  0
    8.4304   10.4423   24.8312 C   0  0  0  0  0  0  0  0  0  0  0  0
    7.3058   10.2148   25.6339 C   0  0  0  0  0  0  0  0  0  0  0  0
    6.7597   11.2395   26.3986 C   0  0  0  0  0  0  0  0  0  0  0  0
    7.3267   12.5072   26.3624 C   0  0  0  0  0  0  0  0  0  0  0  0
    8.4402   12.7589   25.5618 C   0  0  0  0  0  0  0  0  0  0  0  0
    9.0015   11.7431   24.7775 C   0  0  0  0  0  0  0  0  0  0  0  0
  1  2  2  0
  2  3  1  0
  3  4  1  0
  4  5  1  1
  5  6  1  0
  4  7  1  0
  7  8  1  0
  8  9  1  0
  9 10  1  0
 10 11  1  0
 11 12  1  0
 12 13  1  0
 14  2  1  6
 14 15  1  0
 15 16  1  0
 16 17  1  0
 17 18  1  0
 18 19  2  0
 19 20  1  0
 20 21  2  0
 21 22  1  0
 22 23  2  0
 13  8  1  0
 23 14  1  0
 23 18  1  0
M  END
>  <energy_score>  (56) 
-8.52812

>  <inchikey>  (56) 
LDKHUDYZVRLOHH-UHFFFAOYSA-N

>  <smiles>  (56) 
O=C(N[C@@H](CO)CN1CCCCC1)[C@@H]1CNCc2ccccc21

>  <ref_pdb>  (56) 
A2293a

>  <alias>  (56) 
C13863-P127

>  <HIPPO Pose ID>  (56) 
331389

>  <name>  (56) 
C13863-P127

>  <HIPPO Compound ID>  (56) 
13863

>  <ref_mols>  (56) 
A4806a,A2293a

>  <distance_score>  (56) 
1.672266

>  <inspiration_score>  (56) 
None

$$$$
C1719-P144
     RDKit          3D

 17 18  0  0  0  0  0  0  0  0999 V2000
   12.4813   14.5657   22.9333 C   0  0  0  0  0  0  0  0  0  0  0  0
   11.2261   14.2310   22.1621 C   0  0  1  0  0  0  0  0  0  0  0  0
   10.2211   13.6682   23.0338 N   0  0  0  0  0  0  0  0  0  0  0  0
    9.7246   14.1077   24.2962 C   0  0  0  0  0  0  0  0  0  0  0  0
   10.0661   15.0127   24.9989 O   0  0  0  0  0  0  0  0  0  0  0  0
    8.6017   13.2579   24.7906 C   0  0  0  0  0  0  0  0  0  0  0  0
    7.6534   13.8236   25.6410 C   0  0  0  0  0  0  0  0  0  0  0  0
    6.6654   13.0067   26.1732 C   0  0  0  0  0  0  0  0  0  0  0  0
    6.6713   11.6566   25.8555 C   0  0  0  0  0  0  0  0  0  0  0  0
    7.6540   11.1863   24.9886 C   0  0  0  0  0  0  0  0  0  0  0  0
    7.7317    9.7274   24.6587 C   0  0  0  0  0  0  0  0  0  0  0  0
    8.8637    9.4260   23.8282 N   0  0  0  0  0  0  0  0  0  0  0  0
    6.8854    9.0144   25.1129 O   0  0  0  0  0  0  0  0  0  0  0  0
    8.6317   11.9481   24.4195 N   0  0  0  0  0  0  0  0  0  0  0  0
   10.6787   15.4187   21.4261 C   0  0  0  0  0  0  0  0  0  0  0  0
    9.3251   15.3830   20.7628 C   0  0  0  0  0  0  0  0  0  0  0  0
   10.5658   15.4118   19.9191 C   0  0  0  0  0  0  0  0  0  0  0  0
  2  1  1  1
  2  3  1  0
  3  4  1  0
  4  5  2  0
  4  6  1  0
  6  7  2  0
  7  8  1  0
  8  9  2  0
  9 10  1  0
 10 11  1  0
 11 12  1  0
 11 13  2  0
 10 14  2  0
  2 15  1  0
 15 16  1  0
 16 17  1  0
 14  6  1  0
 17 15  1  0
M  END
>  <energy_score>  (57) 
145.337986

>  <inchikey>  (57) 
DIHHNGIEDGIKTP-UHFFFAOYSA-N

>  <smiles>  (57) 
C[C@@H](NC(=O)c1cccc(C(N)=O)n1)C1CC1

>  <ref_pdb>  (57) 
A3181a

>  <alias>  (57) 
C1719-P144

>  <HIPPO Pose ID>  (57) 
335507

>  <name>  (57) 
C1719-P144

>  <HIPPO Compound ID>  (57) 
1719

>  <ref_mols>  (57) 
A3181a,A3618a

>  <distance_score>  (57) 
1.793619

>  <inspiration_score>  (57) 
None

$$$$
C15998-P239
     RDKit          3D

 17 17  0  0  0  0  0  0  0  0999 V2000
    6.5891   12.8629   28.2360 C   0  0  0  0  0  0  0  0  0  0  0  0
    5.0916   13.1560   28.3476 C   0  0  0  0  0  0  0  0  0  0  0  0
    4.3605   12.2964   29.3974 C   0  0  0  0  0  0  0  0  0  0  0  0
    3.5144   11.1620   28.8440 C   0  0  0  0  0  0  0  0  0  0  0  0
    3.9552   10.2042   28.0048 C   0  0  0  0  0  0  0  0  0  0  0  0
    5.3647    9.9767   27.5960 C   0  0  0  0  0  0  0  0  0  0  0  0
    6.0188    9.2237   28.1976 O   0  0  0  0  0  0  0  0  0  0  0  0
    5.6790   10.7690   26.3045 N   0  0  0  0  0  0  0  0  0  0  0  0
    6.8590   10.8657   25.5653 C   0  0  0  0  0  0  0  0  0  0  0  0
    7.1779   11.9956   24.8301 C   0  0  0  0  0  0  0  0  0  0  0  0
    8.3119   12.0082   24.0142 C   0  0  0  0  0  0  0  0  0  0  0  0
    9.0781   10.8620   23.9279 C   0  0  0  0  0  0  0  0  0  0  0  0
    8.8047    9.7533   24.6329 N   0  0  0  0  0  0  0  0  0  0  0  0
    7.7157    9.7966   25.4422 C   0  0  0  0  0  0  0  0  0  0  0  0
    2.0694   11.1089   29.3268 C   0  0  0  0  0  0  0  0  0  0  0  0
    1.8992   10.7434   30.8071 C   0  0  0  0  0  0  0  0  0  0  0  0
    2.3946    9.3432   31.1393 C   0  0  0  0  0  0  0  0  0  0  0  0
  1  2  1  0
  2  3  1  0
  3  4  1  0
  4  5  2  3
  5  6  1  0
  6  7  2  0
  6  8  1  0
  8  9  1  0
  9 10  2  0
 10 11  1  0
 11 12  2  0
 12 13  1  0
 13 14  2  0
  4 15  1  0
 15 16  1  0
 16 17  1  0
 14  9  1  0
M  END
>  <energy_score>  (58) 
3.098343

>  <inchikey>  (58) 
NQMCYOZKXJJBMJ-UHFFFAOYSA-N

>  <smiles>  (58) 
CCCC(=CC(=O)Nc1cccnc1)CCC

>  <ref_pdb>  (58) 
A3920a

>  <alias>  (58) 
C15998-P239

>  <HIPPO Pose ID>  (58) 
335899

>  <name>  (58) 
C15998-P239

>  <HIPPO Compound ID>  (58) 
15998

>  <ref_mols>  (58) 
A1445a,A3920a

>  <distance_score>  (58) 
1.895648

>  <inspiration_score>  (58) 
None

$$$$
C24648-P145
     RDKit          3D

 19 21  0  0  0  0  0  0  0  0999 V2000
   12.1690   13.8124   25.7358 N   0  0  0  0  0  0  0  0  0  0  0  0
   13.2162   13.3336   24.8225 C   0  0  0  0  0  0  0  0  0  0  0  0
   13.0196   14.1355   23.5927 C   0  0  0  0  0  0  0  0  0  0  0  0
   11.7609   13.8498   23.0484 N   0  0  0  0  0  0  0  0  0  0  0  0
   11.6766   14.5353   21.9521 C   0  0  0  0  0  0  0  0  0  0  0  0
   12.7733   15.3022   21.8078 N   0  0  0  0  0  0  0  0  0  0  0  0
   13.7126   15.1338   22.8618 C   0  0  0  0  0  0  0  0  0  0  0  0
   15.0162   16.2118   22.5294 C   0  0  0  0  0  0  0  0  0  0  0  0
   14.7334   16.8854   21.5569 O   0  0  0  0  0  0  0  0  0  0  0  0
   16.7658   16.3363   23.3602 N   0  0  0  0  0  0  0  0  0  0  0  0
   18.1901   17.4623   23.0145 C   0  0  0  0  0  0  0  0  0  0  0  0
   18.1102   18.5457   22.0133 C   0  0  0  0  0  0  0  0  0  0  0  0
   19.0737   19.5413   21.7711 C   0  0  0  0  0  0  0  0  0  0  0  0
   20.2131   19.6191   22.5477 C   0  0  0  0  0  0  0  0  0  0  0  0
   20.3646   18.6943   23.5853 C   0  0  0  0  0  0  0  0  0  0  0  0
   21.3705   18.4996   24.5564 C   0  0  0  0  0  0  0  0  0  0  0  0
   21.1184   17.4592   25.3448 N   0  0  0  0  0  0  0  0  0  0  0  0
   20.0070   16.9367   24.7991 N   0  0  0  0  0  0  0  0  0  0  0  0
   19.4013   17.6966   23.8211 C   0  0  0  0  0  0  0  0  0  0  0  0
  1  2  1  0
  2  3  1  0
  3  4  1  0
  4  5  2  0
  5  6  1  0
  6  7  1  0
  7  8  1  0
  8  9  2  0
  8 10  1  0
 10 11  1  0
 11 12  2  0
 12 13  1  0
 13 14  2  0
 14 15  1  0
 15 16  1  0
 16 17  2  0
 17 18  1  0
 18 19  1  0
  7  3  2  0
 19 11  1  0
 19 15  2  0
M  END
>  <energy_score>  (59) 
166.252694

>  <inchikey>  (59) 
AVQZSQOUYVLGKZ-UHFFFAOYSA-N

>  <smiles>  (59) 
NCc1nc[nH]c1C(=O)Nc1cccc2cn[nH]c12

>  <ref_pdb>  (59) 
A3181b

>  <alias>  (59) 
C24648-P145

>  <HIPPO Pose ID>  (59) 
337816

>  <name>  (59) 
C24648-P145

>  <HIPPO Compound ID>  (59) 
24648

>  <ref_mols>  (59) 
A3181b,A1209a

>  <distance_score>  (59) 
7.65436

>  <inspiration_score>  (59) 
None

$$$$
C39872-P118
     RDKit          3D

 25 28  0  0  0  0  0  0  0  0999 V2000
   16.4748   10.8067   25.9341 O   0  0  0  0  0  0  0  0  0  0  0  0
   15.4494   10.4410   25.4073 C   0  0  0  0  0  0  0  0  0  0  0  0
   14.2660   11.8555   25.2400 C   0  0  0  0  0  0  0  0  0  0  0  0
   12.6854   12.3479   24.6513 C   0  0  1  0  0  0  0  0  0  0  0  0
   11.8918   13.3986   25.5007 C   0  0  0  0  0  0  0  0  0  0  0  0
   10.3953   13.0529   25.3351 C   0  0  0  0  0  0  0  0  0  0  0  0
   10.4303   12.8463   23.8497 C   0  0  0  0  0  0  0  0  0  0  0  0
    9.3268   13.2123   23.0767 C   0  0  0  0  0  0  0  0  0  0  0  0
    9.5886   13.8527   21.8868 C   0  0  0  0  0  0  0  0  0  0  0  0
   10.9083   14.1657   21.5853 C   0  0  0  0  0  0  0  0  0  0  0  0
   11.9708   13.7211   22.4012 C   0  0  0  0  0  0  0  0  0  0  0  0
   11.7948   12.8316   23.4423 C   0  0  0  0  0  0  0  0  0  0  0  0
   15.0444    9.0877   24.9064 N   0  0  0  0  0  0  0  0  0  0  0  0
   15.8164    7.7922   24.8103 C   0  0  0  0  0  0  0  0  0  0  0  0
   15.7958    5.7755   24.4534 C   0  0  0  0  0  0  0  0  0  0  0  0
   16.3628    4.3329   25.2984 C   0  0  0  0  0  0  0  0  0  0  0  0
   16.6634    3.0866   24.4808 C   0  0  0  0  0  0  0  0  0  0  0  0
   15.9812    2.6070   23.4561 N   0  0  0  0  0  0  0  0  0  0  0  0
   16.7493    1.6431   22.8460 N   0  0  0  0  0  0  0  0  0  0  0  0
   17.8051    1.4196   23.5855 C   0  0  0  0  0  0  0  0  0  0  0  0
   18.8585    0.4685   23.4826 C   0  0  0  0  0  0  0  0  0  0  0  0
   19.7685    0.3810   24.4706 C   0  0  0  0  0  0  0  0  0  0  0  0
   19.7155    1.2720   25.6201 C   0  0  0  0  0  0  0  0  0  0  0  0
   18.7369    2.1934   25.6953 C   0  0  0  0  0  0  0  0  0  0  0  0
   17.7762    2.2651   24.6824 N   0  0  0  0  0  0  0  0  0  0  0  0
  1  2  2  0
  2  3  1  0
  4  3  1  6
  4  5  1  0
  5  6  1  0
  6  7  1  0
  7  8  2  0
  8  9  1  0
  9 10  2  0
 10 11  1  0
 11 12  2  0
  2 13  1  0
 13 14  1  0
 14 15  1  0
 15 16  1  0
 16 17  1  0
 17 18  2  0
 18 19  1  0
 19 20  2  0
 20 21  1  0
 21 22  2  0
 22 23  1  0
 23 24  2  0
 24 25  1  0
 12  4  1  0
 25 17  1  0
 12  7  1  0
 25 20  1  0
M  END
>  <energy_score>  (60) 
290.744917

>  <inchikey>  (60) 
DFUSABQJOGDYQX-UHFFFAOYSA-N

>  <smiles>  (60) 
O=C(C[C@H]1CCc2ccccc21)NCCCc1nnc2ccccn12

>  <ref_pdb>  (60) 
A1293a

>  <alias>  (60) 
C39872-P118

>  <HIPPO Pose ID>  (60) 
338537

>  <name>  (60) 
C39872-P118

>  <HIPPO Compound ID>  (60) 
39872

>  <ref_mols>  (60) 
A1778a,A1293a

>  <distance_score>  (60) 
4.058431

>  <inspiration_score>  (60) 
None

$$$$
C2418-P339
     RDKit          3D

 15 15  0  0  0  0  0  0  0  0999 V2000
    9.8223   15.7536   23.7728 C   0  0  0  0  0  0  0  0  0  0  0  0
    9.6004   14.6024   22.7978 C   0  0  0  0  0  0  0  0  0  0  0  0
    9.2541   15.1798   21.4257 C   0  0  0  0  0  0  0  0  0  0  0  0
    8.5087   13.5998   23.2490 C   0  0  0  0  0  0  0  0  0  0  0  0
    7.7192   13.1519   22.4972 O   0  0  0  0  0  0  0  0  0  0  0  0
    8.6854   13.3701   24.7484 N   0  0  0  0  0  0  0  0  0  0  0  0
    9.6600   12.1622   25.0292 C   0  0  0  0  0  0  0  0  0  0  0  0
    9.8700   11.2121   23.8241 C   0  0  0  0  0  0  0  0  0  0  0  0
   11.0535   12.7986   25.3080 C   0  0  0  0  0  0  0  0  0  0  0  0
    7.8185   12.5631   25.7578 C   0  0  2  0  0  0  0  0  0  0  0  0
    7.2702   11.1460   25.4162 C   0  0  0  0  0  0  0  0  0  0  0  0
    6.1893   10.6480   26.3786 C   0  0  0  0  0  0  0  0  0  0  0  0
    5.3288   11.7322   26.9876 C   0  0  0  0  0  0  0  0  0  0  0  0
    5.2096   12.8627   26.0979 N   0  0  0  0  0  0  0  0  0  0  0  0
    6.5172   13.4939   25.8716 C   0  0  0  0  0  0  0  0  0  0  0  0
  1  2  1  0
  2  3  1  0
  2  4  1  0
  4  5  2  0
  4  6  1  0
  6  7  1  0
  7  8  1  0
  7  9  1  0
 10  6  1  6
 10 11  1  0
 11 12  1  0
 12 13  1  0
 13 14  1  0
 14 15  1  0
 15 10  1  0
M  END
>  <energy_score>  (61) 
60.191784

>  <inchikey>  (61) 
QLEQENYLQKJYBV-UHFFFAOYSA-N

>  <smiles>  (61) 
CC(C)C(=O)N(C(C)C)[C@@H]1CCCNC1

>  <ref_pdb>  (61) 
A4237b

>  <alias>  (61) 
C2418-P339

>  <HIPPO Pose ID>  (61) 
343349

>  <name>  (61) 
C2418-P339

>  <HIPPO Compound ID>  (61) 
2418

>  <ref_mols>  (61) 
A4237b,A3618a

>  <distance_score>  (61) 
1.528453

>  <inspiration_score>  (61) 
None

$$$$
C15324-P103
     RDKit          3D

 22 25  0  0  0  0  0  0  0  0999 V2000
   19.3399   -7.7782   14.7351 C   0  0  0  0  0  0  0  0  0  0  0  0
   20.4233   -6.9311   14.5732 C   0  0  0  0  0  0  0  0  0  0  0  0
   20.9125   -6.2329   15.6773 C   0  0  0  0  0  0  0  0  0  0  0  0
   20.3237   -6.4025   16.9338 C   0  0  0  0  0  0  0  0  0  0  0  0
   20.8670   -5.6970   18.0318 N   0  0  0  0  0  0  0  0  0  0  0  0
   20.6284   -4.2355   17.9208 C   0  0  0  0  0  0  0  0  0  0  0  0
   20.1104   -3.8053   19.2966 C   0  0  0  0  0  0  0  0  0  0  0  0
   19.4167   -5.0560   19.8363 C   0  0  1  0  0  0  0  0  0  0  0  0
   18.1121   -5.4321   19.2827 N   0  0  0  0  0  0  0  0  0  0  0  0
   17.3367   -4.3615   18.6915 C   0  0  0  0  0  0  0  0  0  0  0  0
   16.0445   -4.8588   18.0793 C   0  0  0  0  0  0  0  0  0  0  0  0
   15.1301   -3.8480   17.7241 C   0  0  0  0  0  0  0  0  0  0  0  0
   13.9196   -4.1384   17.1264 C   0  0  0  0  0  0  0  0  0  0  0  0
   13.5482   -5.4526   16.8891 C   0  0  0  0  0  0  0  0  0  0  0  0
   14.4146   -6.4642   17.2805 C   0  0  0  0  0  0  0  0  0  0  0  0
   14.2820   -7.8232   17.2387 N   0  0  0  0  0  0  0  0  0  0  0  0
   15.3554   -8.4960   17.6762 N   0  0  0  0  0  0  0  0  0  0  0  0
   16.1562   -7.5139   18.1087 C   0  0  0  0  0  0  0  0  0  0  0  0
   15.6519   -6.2098   17.8546 C   0  0  0  0  0  0  0  0  0  0  0  0
   20.4294   -6.1315   19.3766 C   0  0  0  0  0  0  0  0  0  0  0  0
   19.2698   -7.2394   17.0944 N   0  0  0  0  0  0  0  0  0  0  0  0
   18.8012   -7.8925   16.0017 C   0  0  0  0  0  0  0  0  0  0  0  0
  1  2  2  0
  2  3  1  0
  3  4  2  0
  4  5  1  0
  5  6  1  0
  6  7  1  0
  7  8  1  0
  8  9  1  6
  9 10  1  0
 10 11  1  0
 11 12  2  0
 12 13  1  0
 13 14  2  0
 14 15  1  0
 15 16  1  0
 16 17  1  0
 17 18  2  0
 18 19  1  0
  8 20  1  0
  4 21  1  0
 21 22  2  0
 22  1  1  0
 20  5  1  0
 19 11  1  0
 19 15  2  0
M  END
>  <energy_score>  (62) 
-28.656923

>  <inchikey>  (62) 
PFJHDTSUCRPASW-UHFFFAOYSA-N

>  <smiles>  (62) 
c1ccc(N2CC[C@@H](NCc3cccc4[nH]ncc34)C2)nc1

>  <ref_pdb>  (62) 
A1105b

>  <alias>  (62) 
C15324-P103

>  <HIPPO Pose ID>  (62) 
343728

>  <name>  (62) 
C15324-P103

>  <HIPPO Compound ID>  (62) 
15324

>  <ref_mols>  (62) 
A0497a,A1105b

>  <distance_score>  (62) 
1.246398

>  <inspiration_score>  (62) 
None

$$$$
C137292-P58
     RDKit          3D

 25 28  0  0  0  0  0  0  0  0999 V2000
   20.0353   15.2063   14.1345 O   0  0  0  0  0  0  0  0  0  0  0  0
   19.8874   16.2118   13.5152 C   0  0  0  0  0  0  0  0  0  0  0  0
   20.7892   17.3464   13.4105 N   0  0  0  0  0  0  0  0  0  0  0  0
   22.1179   17.6506   14.1418 C   0  0  0  0  0  0  0  0  0  0  0  0
   21.8181   17.7829   16.0275 C   0  0  0  0  0  0  0  0  0  0  0  0
   20.9784   18.8410   16.8578 C   0  0  0  0  0  0  0  0  0  0  0  0
   20.7217   19.2818   18.1885 C   0  0  0  0  0  0  0  0  0  0  0  0
   21.4221   18.6125   19.0751 C   0  0  0  0  0  0  0  0  0  0  0  0
   22.1952   17.5973   18.5526 C   0  0  0  0  0  0  0  0  0  0  0  0
   22.4145   17.1266   17.0269 C   0  0  0  0  0  0  0  0  0  0  0  0
   23.0976   17.3195   19.5747 O   0  0  0  0  0  0  0  0  0  0  0  0
   22.5436   17.9517   20.7358 C   0  0  0  0  0  0  0  0  0  0  0  0
   21.5852   18.9382   20.3702 O   0  0  0  0  0  0  0  0  0  0  0  0
   18.0879   16.2542   12.7427 C   0  0  0  0  0  0  0  0  0  0  0  0
   17.6074   15.3320   11.3122 C   0  0  0  0  0  0  0  0  0  0  0  0
   16.3580   15.0126   10.7909 C   0  0  0  0  0  0  0  0  0  0  0  0
   15.0846   15.8463   11.2473 C   0  0  0  0  0  0  0  0  0  0  0  0
   13.7719   16.3801    9.7177 N   0  0  0  0  0  0  0  0  0  0  0  0
   13.3462   16.7483    7.8918 C   0  0  0  0  0  0  0  0  0  0  0  0
   12.1393   15.8598    7.2942 C   0  0  0  0  0  0  0  0  0  0  0  0
   11.2016   14.7659    8.5476 O   0  0  0  0  0  0  0  0  0  0  0  0
   11.8818   15.9723    9.9116 C   0  0  0  0  0  0  0  0  0  0  0  0
   10.8474   15.7226   10.5139 O   0  0  0  0  0  0  0  0  0  0  0  0
   15.6864   16.3374   13.0873 C   0  0  0  0  0  0  0  0  0  0  0  0
   17.0094   16.4883   13.6421 C   0  0  0  0  0  0  0  0  0  0  0  0
  1  2  2  0
  2  3  1  0
  3  4  1  0
  4  5  1  0
  5  6  2  0
  6  7  1  0
  7  8  2  0
  8  9  1  0
  9 10  2  0
  9 11  1  0
 11 12  1  0
 12 13  1  0
  2 14  1  0
 14 15  2  0
 15 16  1  0
 16 17  2  0
 17 18  1  0
 18 19  1  0
 19 20  1  0
 20 21  1  0
 21 22  1  0
 22 23  2  0
 17 24  1  0
 24 25  2  0
 10  5  1  0
 25 14  1  0
 13  8  1  0
 22 18  1  0
M  END
>  <energy_score>  (63) 
945.074135

>  <inchikey>  (63) 
NHUGBDFSHFJSGQ-UHFFFAOYSA-N

>  <smiles>  (63) 
O=C(NCc1ccc2c(c1)OCO2)c1ccc(N2CCOC2=O)cc1

>  <ref_pdb>  (63) 
A0354a

>  <alias>  (63) 
C137292-P58

>  <HIPPO Pose ID>  (63) 
346274

>  <name>  (63) 
C137292-P58

>  <HIPPO Compound ID>  (63) 
137292

>  <ref_mols>  (63) 
A0351b,A0354a

>  <distance_score>  (63) 
8.894647

>  <inspiration_score>  (63) 
None

$$$$
C16607-P320
     RDKit          3D

 21 23  0  0  0  0  0  0  0  0999 V2000
    8.7133   15.4449   18.1658 C   0  0  0  0  0  0  0  0  0  0  0  0
    8.9524   14.9368   16.9458 N   0  0  0  0  0  0  0  0  0  0  0  0
    7.9384   13.9126   15.8370 C   0  0  0  0  0  0  0  0  0  0  0  0
    6.8935   13.5102   16.2441 O   0  0  0  0  0  0  0  0  0  0  0  0
    8.1299   13.4480   13.9655 C   0  0  0  0  0  0  0  0  0  0  0  0
    7.0104   13.9778   12.5875 C   0  0  0  0  0  0  0  0  0  0  0  0
    7.3606   13.4835   10.9336 C   0  0  0  0  0  0  0  0  0  0  0  0
    6.9100   13.5048    9.0046 C   0  0  0  0  0  0  0  0  0  0  0  0
    6.7053   12.1389    7.8748 C   0  0  0  0  0  0  0  0  0  0  0  0
    6.7030   12.1560    6.3346 C   0  0  0  0  0  0  0  0  0  0  0  0
    6.5332   13.2266    5.5612 N   0  0  0  0  0  0  0  0  0  0  0  0
    6.2574   14.3333    6.2266 C   0  0  0  0  0  0  0  0  0  0  0  0
    6.3559   14.4676    7.6641 C   0  0  0  0  0  0  0  0  0  0  0  0
    8.8430   12.9036   11.5459 O   0  0  0  0  0  0  0  0  0  0  0  0
    9.0480   12.6570   13.1530 N   0  0  0  0  0  0  0  0  0  0  0  0
   10.2651   14.2516   18.1193 C   0  0  2  0  0  0  0  0  0  0  0  0
   10.2245   14.1317   20.0137 C   0  0  0  0  0  0  0  0  0  0  0  0
   11.5766   14.1474   20.7720 C   0  0  0  0  0  0  0  0  0  0  0  0
   12.1175   15.5362   20.8515 C   0  0  0  0  0  0  0  0  0  0  0  0
   11.4350   16.3704   19.4344 S   0  0  0  0  0  0  0  0  0  0  0  0
   11.5402   15.1059   18.1463 C   0  0  0  0  0  0  0  0  0  0  0  0
  1  2  1  0
  2  3  1  0
  3  4  2  0
  3  5  1  0
  5  6  1  0
  6  7  2  0
  7  8  1  0
  8  9  2  0
  9 10  1  0
 10 11  2  0
 11 12  1  0
 12 13  2  0
  7 14  1  0
 14 15  1  0
 16  2  1  1
 16 17  1  0
 17 18  1  0
 18 19  1  0
 19 20  1  0
 20 21  1  0
 15  5  2  0
 21 16  1  0
 13  8  1  0
M  END
>  <energy_score>  (64) 
750.42923

>  <inchikey>  (64) 
RUNKVXXDUUDNFT-UHFFFAOYSA-N

>  <smiles>  (64) 
CN(C(=O)c1cc(-c2ccncc2)on1)[C@@H]1CCCSC1

>  <ref_pdb>  (64) 
A4347a

>  <alias>  (64) 
C16607-P320

>  <HIPPO Pose ID>  (64) 
347245

>  <name>  (64) 
C16607-P320

>  <HIPPO Compound ID>  (64) 
16607

>  <ref_mols>  (64) 
A4347a,A0541a

>  <distance_score>  (64) 
4.969074

>  <inspiration_score>  (64) 
None

$$$$
C25407-P78
     RDKit          3D

 23 24  0  0  0  0  0  0  0  0999 V2000
   26.6506   20.9632   20.7377 C   0  0  0  0  0  0  0  0  0  0  0  0
   26.3451   20.1432   21.9779 C   0  0  0  0  0  0  0  0  0  0  0  0
   24.9344   19.5639   21.9609 C   0  0  0  0  0  0  0  0  0  0  0  0
   24.4473   18.9089   23.5767 S   0  0  0  0  0  0  0  0  0  0  0  0
   25.2586   17.7436   23.8642 O   0  0  0  0  0  0  0  0  0  0  0  0
   24.4154   20.0157   24.5131 O   0  0  0  0  0  0  0  0  0  0  0  0
   22.8393   18.4778   23.2809 N   0  0  0  0  0  0  0  0  0  0  0  0
   22.0259   17.6117   24.1267 C   0  0  0  0  0  0  0  0  0  0  0  0
   22.5059   16.6089   24.9496 C   0  0  0  0  0  0  0  0  0  0  0  0
   21.6159   15.6632   25.5288 C   0  0  0  0  0  0  0  0  0  0  0  0
   20.2265   15.6282   25.2495 C   0  0  0  0  0  0  0  0  0  0  0  0
   19.6930   16.5847   24.4014 C   0  0  0  0  0  0  0  0  0  0  0  0
   18.1245   16.6839   23.4194 C   0  0  0  0  0  0  0  0  0  0  0  0
   18.2853   17.4935   22.4668 O   0  0  0  0  0  0  0  0  0  0  0  0
   16.5271   15.7577   23.9864 N   0  0  0  0  0  0  0  0  0  0  0  0
   15.5320   17.0990   25.6392 C   0  0  0  0  0  0  0  0  0  0  0  0
   14.7082   15.6988   23.0392 C   0  0  0  0  0  0  0  0  0  0  0  0
   13.2061   14.8632   22.7830 C   0  0  0  0  0  0  0  0  0  0  0  0
   12.5605   14.9338   21.5599 N   0  0  0  0  0  0  0  0  0  0  0  0
   11.5329   14.1411   21.7458 C   0  0  0  0  0  0  0  0  0  0  0  0
   11.4320   13.6457   23.0026 O   0  0  0  0  0  0  0  0  0  0  0  0
   12.5257   14.1420   23.7105 N   0  0  0  0  0  0  0  0  0  0  0  0
   20.6311   17.6023   23.9048 C   0  0  0  0  0  0  0  0  0  0  0  0
  1  2  1  0
  2  3  1  0
  3  4  1  0
  4  5  2  0
  4  6  2  0
  4  7  1  0
  7  8  1  0
  8  9  2  0
  9 10  1  0
 10 11  2  0
 11 12  1  0
 12 13  1  0
 13 14  2  0
 13 15  1  0
 15 16  1  0
 15 17  1  0
 17 18  1  0
 18 19  1  0
 19 20  2  0
 20 21  1  0
 21 22  1  0
 12 23  2  0
 23  8  1  0
 22 18  2  0
M  END
>  <energy_score>  (65) 
934.605838

>  <inchikey>  (65) 
JQEXVMZZHTZUOD-UHFFFAOYSA-N

>  <smiles>  (65) 
CCCS(=O)(=O)Nc1cccc(C(=O)N(C)Cc2ncon2)c1

>  <ref_pdb>  (65) 
A0719b

>  <alias>  (65) 
C25407-P78

>  <HIPPO Pose ID>  (65) 
349206

>  <name>  (65) 
C25407-P78

>  <HIPPO Compound ID>  (65) 
25407

>  <ref_mols>  (65) 
A0719b,A1068a

>  <distance_score>  (65) 
6.799282

>  <inspiration_score>  (65) 
None

$$$$
C20719-P151
     RDKit          3D

 23 26  0  0  0  0  0  0  0  0999 V2000
   12.4695   16.7011   27.1788 C   0  0  0  0  0  0  0  0  0  0  0  0
   13.5687   16.7005   28.1304 C   0  0  0  0  0  0  0  0  0  0  0  0
   14.6790   17.7037   28.0945 C   0  0  0  0  0  0  0  0  0  0  0  0
   14.7683   18.7787   27.0481 C   0  0  0  0  0  0  0  0  0  0  0  0
   15.8621   19.7530   27.1199 C   0  0  0  0  0  0  0  0  0  0  0  0
   16.8278   19.6892   28.0198 N   0  0  0  0  0  0  0  0  0  0  0  0
   18.0141   20.1184   27.4794 N   0  0  0  0  0  0  0  0  0  0  0  0
   17.8724   20.5926   26.2548 C   0  0  0  0  0  0  0  0  0  0  0  0
   18.9284   20.6393   25.4025 N   0  0  0  0  0  0  0  0  0  0  0  0
   19.0812   21.4256   24.1928 C   0  0  0  0  0  0  0  0  0  0  0  0
   20.3798   21.0601   23.4465 C   0  0  0  0  0  0  0  0  0  0  0  0
   20.8432   19.7393   23.3558 C   0  0  0  0  0  0  0  0  0  0  0  0
   22.0046   19.4285   22.6362 C   0  0  0  0  0  0  0  0  0  0  0  0
   22.7171   20.4317   21.9618 C   0  0  0  0  0  0  0  0  0  0  0  0
   23.8758   20.1499   21.2233 C   0  0  0  0  0  0  0  0  0  0  0  0
   24.5288   21.1723   20.5440 C   0  0  0  0  0  0  0  0  0  0  0  0
   23.9957   22.4428   20.6253 C   0  0  0  0  0  0  0  0  0  0  0  0
   22.8918   22.7542   21.3444 N   0  0  0  0  0  0  0  0  0  0  0  0
   22.2596   21.7634   22.0026 C   0  0  0  0  0  0  0  0  0  0  0  0
   21.1085   22.0461   22.7456 C   0  0  0  0  0  0  0  0  0  0  0  0
   16.2092   20.9776   25.9509 S   0  0  0  0  0  0  0  0  0  0  0  0
   13.6758   18.8839   25.9826 N   0  0  0  0  0  0  0  0  0  0  0  0
   12.5108   17.7150   26.1257 C   0  0  0  0  0  0  0  0  0  0  0  0
  1  2  2  0
  2  3  1  0
  3  4  2  0
  4  5  1  0
  5  6  2  0
  6  7  1  0
  7  8  2  0
  8  9  1  0
  9 10  1  0
 10 11  1  0
 11 12  2  0
 12 13  1  0
 13 14  2  0
 14 15  1  0
 15 16  2  0
 16 17  1  0
 17 18  2  0
 18 19  1  0
 19 20  2  0
  8 21  1  0
  4 22  1  0
 22 23  2  0
 23  1  1  0
 21  5  1  0
 20 11  1  0
 19 14  1  0
M  END
>  <energy_score>  (66) 
-4.038516

>  <inchikey>  (66) 
ZMWSPLIMPYHVRD-UHFFFAOYSA-N

>  <smiles>  (66) 
c1ccc(-c2nnc(NCc3ccc4cccnc4c3)s2)nc1

>  <ref_pdb>  (66) 
A3194a

>  <alias>  (66) 
C20719-P151

>  <HIPPO Pose ID>  (66) 
352418

>  <name>  (66) 
C20719-P151

>  <HIPPO Compound ID>  (66) 
20719

>  <ref_mols>  (66) 
A0514b,A3194a

>  <distance_score>  (66) 
7.489538

>  <inspiration_score>  (66) 
None

$$$$
C137594-P9
     RDKit          3D

 25 28  0  0  0  0  0  0  0  0999 V2000
   28.5057   23.9076   17.8243 C   0  0  0  0  0  0  0  0  0  0  0  0
   28.3221   22.7483   16.8621 C   0  0  0  0  0  0  0  0  0  0  0  0
   28.6058   23.1821   15.5276 O   0  0  0  0  0  0  0  0  0  0  0  0
   27.5333   23.2293   14.6792 C   0  0  0  0  0  0  0  0  0  0  0  0
   26.2808   23.7204   15.0338 C   0  0  0  0  0  0  0  0  0  0  0  0
   25.2414   23.7524   14.0903 C   0  0  0  0  0  0  0  0  0  0  0  0
   25.4494   23.2571   12.7803 C   0  0  0  0  0  0  0  0  0  0  0  0
   24.4785   23.0873   11.7876 N   0  0  0  0  0  0  0  0  0  0  0  0
   24.9844   22.4689   10.7387 C   0  0  0  0  0  0  0  0  0  0  0  0
   24.2026   22.0088    9.7019 N   0  0  0  0  0  0  0  0  0  0  0  0
   24.5581   21.2747    8.4793 C   0  0  0  0  0  0  0  0  0  0  0  0
   25.6293   20.9615    8.0396 O   0  0  0  0  0  0  0  0  0  0  0  0
   23.2391   20.9293    7.7074 C   0  0  0  0  0  0  0  0  0  0  0  0
   23.2747   20.0158    6.4989 C   0  0  0  0  0  0  0  0  0  0  0  0
   24.1634   19.0184    6.3762 N   0  0  0  0  0  0  0  0  0  0  0  0
   23.9056   18.4091    5.1588 O   0  0  0  0  0  0  0  0  0  0  0  0
   22.8160   18.9779    4.5826 C   0  0  0  0  0  0  0  0  0  0  0  0
   22.2451   18.6120    3.3623 C   0  0  0  0  0  0  0  0  0  0  0  0
   21.0726   19.2801    2.9989 C   0  0  0  0  0  0  0  0  0  0  0  0
   20.5274   20.2679    3.8230 C   0  0  0  0  0  0  0  0  0  0  0  0
   21.1484   20.6314    5.0318 C   0  0  0  0  0  0  0  0  0  0  0  0
   22.3315   19.9703    5.4157 C   0  0  0  0  0  0  0  0  0  0  0  0
   26.6654   22.1909   10.8118 S   0  0  0  0  0  0  0  0  0  0  0  0
   26.7188   22.7856   12.4424 C   0  0  0  0  0  0  0  0  0  0  0  0
   27.7824   22.7987   13.3684 C   0  0  0  0  0  0  0  0  0  0  0  0
  1  2  1  0
  2  3  1  0
  3  4  1  0
  4  5  2  0
  5  6  1  0
  6  7  2  0
  7  8  1  0
  8  9  2  0
  9 10  1  0
 10 11  1  0
 11 12  2  0
 11 13  1  0
 13 14  1  0
 14 15  2  0
 15 16  1  0
 16 17  1  0
 17 18  2  0
 18 19  1  0
 19 20  2  0
 20 21  1  0
 21 22  2  0
  9 23  1  0
 23 24  1  0
 24 25  2  0
 25  4  1  0
 24  7  1  0
 22 14  1  0
 22 17  1  0
M  END
>  <energy_score>  (67) 
-61.336863

>  <inchikey>  (67) 
UWKRUZIYJSJLBR-UHFFFAOYSA-N

>  <smiles>  (67) 
CCOc1ccc2nc(NC(=O)Cc3noc4ccccc34)sc2c1

>  <ref_pdb>  (67) 
A0486a

>  <alias>  (67) 
C137594-P9

>  <HIPPO Pose ID>  (67) 
353637

>  <name>  (67) 
C137594-P9

>  <HIPPO Compound ID>  (67) 
137594

>  <ref_mols>  (67) 
A0514b,A0486a

>  <distance_score>  (67) 
6.708127

>  <inspiration_score>  (67) 
None

$$$$
C13878-P127
     RDKit          3D

 23 25  0  0  0  0  0  0  0  0999 V2000
   10.3797   19.8694   19.8778 C   0  0  0  0  0  0  0  0  0  0  0  0
   11.5168   20.0205   19.0464 O   0  0  0  0  0  0  0  0  0  0  0  0
   12.7530   19.7868   19.6955 C   0  0  0  0  0  0  0  0  0  0  0  0
   13.2904   18.3441   19.5728 C   0  0  0  0  0  0  0  0  0  0  0  0
   12.3511   17.2848   19.9935 N   0  0  0  0  0  0  0  0  0  0  0  0
   11.4519   16.9777   18.8704 C   0  0  0  0  0  0  0  0  0  0  0  0
   10.4149   15.9704   19.3214 C   0  0  0  0  0  0  0  0  0  0  0  0
   11.1194   14.6459   19.5460 C   0  0  0  0  0  0  0  0  0  0  0  0
   12.2155   14.7861   20.5872 C   0  0  2  0  0  0  0  0  0  0  0  0
   11.5103   14.6365   21.8313 N   0  0  0  0  0  0  0  0  0  0  0  0
   11.8777   13.8469   23.1007 C   0  0  0  0  0  0  0  0  0  0  0  0
   12.8464   13.2549   23.3694 O   0  0  0  0  0  0  0  0  0  0  0  0
   10.6374   13.8757   23.9846 C   0  0  0  0  0  0  0  0  0  0  0  0
   10.2368   12.4139   24.1518 C   0  0  2  0  0  0  0  0  0  0  0  0
    9.9940   11.5991   22.9351 N   0  0  0  0  0  0  0  0  0  0  0  0
    9.4323   10.3365   23.4622 C   0  0  0  0  0  0  0  0  0  0  0  0
    8.5908   10.8187   24.6014 C   0  0  0  0  0  0  0  0  0  0  0  0
    7.5402   10.2045   25.2485 C   0  0  0  0  0  0  0  0  0  0  0  0
    6.8798   10.9144   26.2502 C   0  0  0  0  0  0  0  0  0  0  0  0
    7.2854   12.2148   26.5903 C   0  0  0  0  0  0  0  0  0  0  0  0
    8.3734   12.8147   25.9537 C   0  0  0  0  0  0  0  0  0  0  0  0
    9.0238   12.0993   24.9702 C   0  0  0  0  0  0  0  0  0  0  0  0
   13.0898   16.0385   20.3468 C   0  0  0  0  0  0  0  0  0  0  0  0
  1  2  1  0
  2  3  1  0
  3  4  1  0
  4  5  1  0
  5  6  1  0
  6  7  1  0
  7  8  1  0
  8  9  1  0
  9 10  1  1
 10 11  1  0
 11 12  2  0
 11 13  1  0
 14 13  1  6
 14 15  1  0
 15 16  1  0
 16 17  1  0
 17 18  2  0
 18 19  1  0
 19 20  2  0
 20 21  1  0
 21 22  2  0
  9 23  1  0
 23  5  1  0
 22 14  1  0
 22 17  1  0
M  END
>  <energy_score>  (68) 
-19.888261

>  <inchikey>  (68) 
BTDCIWGHHWJMBA-UHFFFAOYSA-N

>  <smiles>  (68) 
COCCN1CCC[C@H](NC(=O)C[C@@H]2NCc3ccccc32)C1

>  <ref_pdb>  (68) 
A2293a

>  <alias>  (68) 
C13878-P127

>  <HIPPO Pose ID>  (68) 
354466

>  <name>  (68) 
C13878-P127

>  <HIPPO Compound ID>  (68) 
13878

>  <ref_mols>  (68) 
A4943b,A2293a

>  <distance_score>  (68) 
1.485176

>  <inspiration_score>  (68) 
None

$$$$
C39011-P115
     RDKit          3D

 19 20  0  0  0  0  0  0  0  0999 V2000
   10.5048   20.9310   29.5378 C   0  0  0  0  0  0  0  0  0  0  0  0
   10.0925   21.5762   28.2427 C   0  0  0  0  0  0  0  0  0  0  0  0
   10.8963   22.4965   27.6620 C   0  0  0  0  0  0  0  0  0  0  0  0
   10.5001   23.2225   26.4869 C   0  0  0  0  0  0  0  0  0  0  0  0
    9.2401   23.1244   26.0616 C   0  0  0  0  0  0  0  0  0  0  0  0
    8.3010   22.2089   26.7651 C   0  0  0  0  0  0  0  0  0  0  0  0
    7.1038   22.3166   26.5218 O   0  0  0  0  0  0  0  0  0  0  0  0
    8.8304   21.2935   27.6949 N   0  0  0  0  0  0  0  0  0  0  0  0
    7.8740   20.2732   28.2460 C   0  0  0  0  0  0  0  0  0  0  0  0
    8.4022   18.8281   28.5031 C   0  0  0  0  0  0  0  0  0  0  0  0
    7.4483   17.6300   28.1584 C   0  0  0  0  0  0  0  0  0  0  0  0
    8.2456   16.2933   28.0400 C   0  0  0  0  0  0  0  0  0  0  0  0
    7.5349   15.0249   27.7954 N   0  0  0  0  0  0  0  0  0  0  0  0
    7.2779   14.6627   26.3939 C   0  0  0  0  0  0  0  0  0  0  0  0
    7.3267   13.1646   26.1622 C   0  0  0  0  0  0  0  0  0  0  0  0
    6.7225   12.0725   26.7635 C   0  0  0  0  0  0  0  0  0  0  0  0
    7.1039   10.8831   26.1770 N   0  0  0  0  0  0  0  0  0  0  0  0
    7.8880   11.2309   25.1844 C   0  0  0  0  0  0  0  0  0  0  0  0
    8.0417   12.5900   25.1253 N   0  0  0  0  0  0  0  0  0  0  0  0
  1  2  1  0
  2  3  2  0
  3  4  1  0
  4  5  2  0
  5  6  1  0
  6  7  2  0
  6  8  1  0
  8  9  1  0
  9 10  1  0
 10 11  1  0
 11 12  1  0
 12 13  1  0
 13 14  1  0
 14 15  1  0
 15 16  2  0
 16 17  1  0
 17 18  2  0
 18 19  1  0
  8  2  1  0
 19 15  1  0
M  END
>  <energy_score>  (69) 
-14.144968

>  <inchikey>  (69) 
RZKQYJBPWHFSAT-UHFFFAOYSA-N

>  <smiles>  (69) 
Cc1cccc(=O)n1CCCCNCc1cnc[nH]1

>  <ref_pdb>  (69) 
A1209a

>  <alias>  (69) 
C39011-P115

>  <HIPPO Pose ID>  (69) 
358167

>  <name>  (69) 
C39011-P115

>  <HIPPO Compound ID>  (69) 
39011

>  <ref_mols>  (69) 
A1209a,A0525a

>  <distance_score>  (69) 
2.693917

>  <inspiration_score>  (69) 
None

$$$$
C20947-P123
     RDKit          3D

 14 14  0  0  0  0  0  0  0  0999 V2000
    9.2592   15.3981   22.7165 C   0  0  0  0  0  0  0  0  0  0  0  0
    9.9698   14.0921   22.5024 C   0  0  0  0  0  0  0  0  0  0  0  0
   11.2782   13.9263   21.6668 C   0  0  1  0  0  0  0  0  0  0  0  0
   12.2587   15.3777   21.5897 Cl  0  0  0  0  0  0  0  0  0  0  0  0
   12.1294   12.7200   22.2523 C   0  0  0  0  0  0  0  0  0  0  0  0
   13.2495   12.7430   22.5517 O   0  0  0  0  0  0  0  0  0  0  0  0
   11.0857   11.6115   22.4014 N   0  0  0  0  0  0  0  0  0  0  0  0
   11.1723   10.3280   23.0368 C   0  0  0  0  0  0  0  0  0  0  0  0
    9.8380   10.3328   23.7514 C   0  0  1  0  0  0  0  0  0  0  0  0
    9.1098    9.0793   24.0915 C   0  0  0  0  0  0  0  0  0  0  0  0
    7.9771    9.6978   24.9192 C   0  0  0  0  0  0  0  0  0  0  0  0
    8.6188   10.8779   25.5972 C   0  0  0  0  0  0  0  0  0  0  0  0
    8.1375   11.5593   26.4804 O   0  0  0  0  0  0  0  0  0  0  0  0
    9.8269   11.0905   24.9708 N   0  0  0  0  0  0  0  0  0  0  0  0
  1  2  1  0
  2  3  1  0
  3  4  1  1
  3  5  1  0
  5  6  2  0
  5  7  1  0
  7  8  1  0
  9  8  1  1
  9 10  1  0
 10 11  1  0
 11 12  1  0
 12 13  2  0
 12 14  1  0
 14  9  1  0
M  END
>  <energy_score>  (70) 
24.310883

>  <inchikey>  (70) 
GNRQJYYHYZHFFM-UHFFFAOYSA-N

>  <smiles>  (70) 
CC[C@@H](Cl)C(=O)NC[C@H]1CCC(=O)N1

>  <ref_pdb>  (70) 
A1776a

>  <alias>  (70) 
C20947-P123

>  <HIPPO Pose ID>  (70) 
370236

>  <name>  (70) 
C20947-P123

>  <HIPPO Compound ID>  (70) 
20947

>  <ref_mols>  (70) 
A1776a,A0528a

>  <distance_score>  (70) 
1.802141

>  <inspiration_score>  (70) 
None

$$$$
C2306-P51
     RDKit          3D

 18 18  0  0  0  0  0  0  0  0999 V2000
   22.4799   13.4245    0.5140 O   0  0  0  0  0  0  0  0  0  0  0  0
   23.2638   13.4914    1.3784 C   0  0  0  0  0  0  0  0  0  0  0  0
   22.9820   14.2354    2.6890 C   0  0  0  0  0  0  0  0  0  0  0  0
   22.3656   15.5451    2.3484 C   0  0  0  0  0  0  0  0  0  0  0  0
   22.8282   16.7451    2.6314 N   0  0  0  0  0  0  0  0  0  0  0  0
   21.9180   17.6232    2.1078 C   0  0  0  0  0  0  0  0  0  0  0  0
   20.8843   16.9526    1.5013 C   0  0  0  0  0  0  0  0  0  0  0  0
   21.1851   15.6308    1.6504 N   0  0  0  0  0  0  0  0  0  0  0  0
   24.7206   12.9774    1.4522 N   0  0  0  0  0  0  0  0  0  0  0  0
   25.5417   12.3634    0.4531 C   0  0  0  0  0  0  0  0  0  0  0  0
   26.9926   12.8248    0.5139 C   0  0  0  0  0  0  0  0  0  0  0  0
   27.8512   12.5022    2.0747 S   0  0  0  0  0  0  0  0  0  0  0  0
   26.7444   12.4183    3.2928 O   0  0  0  0  0  0  0  0  0  0  0  0
   28.5424   10.8815    1.7332 C   0  0  0  0  0  0  0  0  0  0  0  0
   27.5465    9.8481    1.3017 C   0  0  0  0  0  0  0  0  0  0  0  0
   28.0960    8.6066    1.3869 F   0  0  0  0  0  0  0  0  0  0  0  0
   27.1995   10.0097    0.0045 F   0  0  0  0  0  0  0  0  0  0  0  0
   26.4360    9.8191    2.0461 F   0  0  0  0  0  0  0  0  0  0  0  0
  1  2  2  0
  2  3  1  0
  3  4  1  0
  4  5  2  0
  5  6  1  0
  6  7  2  0
  7  8  1  0
  2  9  1  0
  9 10  1  0
 10 11  1  0
 11 12  1  0
 12 13  1  1
 12 14  1  0
 14 15  1  0
 15 16  1  0
 15 17  1  0
 15 18  1  0
  8  4  1  0
M  CHG  2  12   1  13  -1
M  END
>  <energy_score>  (71) 
-10.886528

>  <inchikey>  (71) 
KYJVTOFXJSRGMR-UHFFFAOYSA-N

>  <smiles>  (71) 
O=C(Cc1ncc[nH]1)NCC[S@@+]([O-])CC(F)(F)F

>  <ref_pdb>  (71) 
A0239a

>  <alias>  (71) 
C2306-P51

>  <HIPPO Pose ID>  (71) 
371085

>  <name>  (71) 
C2306-P51

>  <HIPPO Compound ID>  (71) 
2306

>  <ref_mols>  (71) 
A0239a,A0309a

>  <distance_score>  (71) 
1.485068

>  <inspiration_score>  (71) 
None

$$$$
C13648-P2
     RDKit          3D

 21 23  0  0  0  0  0  0  0  0999 V2000
    9.4184   14.4606   21.2282 C   0  0  0  0  0  0  0  0  0  0  0  0
   10.7603   14.9109   20.6393 C   0  0  2  0  0  0  0  0  0  0  0  0
   12.0718   15.5189   21.7621 S   0  0  0  0  0  0  0  0  0  0  0  0
   11.4546   15.0432   23.2738 C   0  0  0  0  0  0  0  0  0  0  0  0
   10.8770   15.8142   24.1560 N   0  0  0  0  0  0  0  0  0  0  0  0
   10.0377   15.0220   24.8777 N   0  0  0  0  0  0  0  0  0  0  0  0
   10.1057   13.8023   24.3784 C   0  0  0  0  0  0  0  0  0  0  0  0
    9.1115   12.7720   24.5595 C   0  0  0  0  0  0  0  0  0  0  0  0
    9.1782   11.5222   23.9559 C   0  0  0  0  0  0  0  0  0  0  0  0
    8.2249   10.5850   24.3033 C   0  0  0  0  0  0  0  0  0  0  0  0
    7.1948   10.8419   25.1322 N   0  0  0  0  0  0  0  0  0  0  0  0
    7.0779   12.0979   25.6009 C   0  0  0  0  0  0  0  0  0  0  0  0
    8.0095   13.0802   25.3564 C   0  0  0  0  0  0  0  0  0  0  0  0
   11.1891   13.7376   23.5399 N   0  0  0  0  0  0  0  0  0  0  0  0
   10.5256   15.9399   19.5719 C   0  0  0  0  0  0  0  0  0  0  0  0
   10.9146   15.7183   18.4271 O   0  0  0  0  0  0  0  0  0  0  0  0
    9.8330   17.1333   19.9900 C   0  0  0  0  0  0  0  0  0  0  0  0
    9.3145   17.5504   21.1876 C   0  0  0  0  0  0  0  0  0  0  0  0
    8.7881   18.8358   20.9776 C   0  0  0  0  0  0  0  0  0  0  0  0
    8.9216   19.1213   19.6619 C   0  0  0  0  0  0  0  0  0  0  0  0
    9.6071   18.1127   19.0815 O   0  0  0  0  0  0  0  0  0  0  0  0
  2  1  1  1
  2  3  1  0
  3  4  1  0
  4  5  2  0
  5  6  1  0
  6  7  2  0
  7  8  1  0
  8  9  2  0
  9 10  1  0
 10 11  2  0
 11 12  1  0
 12 13  2  0
  7 14  1  0
  2 15  1  0
 15 16  2  0
 15 17  1  0
 17 18  2  0
 18 19  1  0
 19 20  2  0
 20 21  1  0
 14  4  1  0
 21 17  1  0
 13  8  1  0
M  END
>  <energy_score>  (72) 
6.615401

>  <inchikey>  (72) 
ZGDJFFVIJGCZTO-UHFFFAOYSA-N

>  <smiles>  (72) 
C[C@H](Sc1nnc(-c2ccncc2)[nH]1)C(=O)c1ccco1

>  <ref_pdb>  (72) 
A4298a

>  <alias>  (72) 
C13648-P2

>  <HIPPO Pose ID>  (72) 
372624

>  <name>  (72) 
C13648-P2

>  <HIPPO Compound ID>  (72) 
13648

>  <ref_mols>  (72) 
A4298a,A1778a

>  <distance_score>  (72) 
1.413899

>  <inspiration_score>  (72) 
None

$$$$
C2404-P278
     RDKit          3D

 21 21  0  0  0  0  0  0  0  0999 V2000
   10.6509   15.6165   18.6394 C   0  0  0  0  0  0  0  0  0  0  0  0
   10.7398   16.2042   20.0098 C   0  0  0  0  0  0  0  0  0  0  0  0
    9.9635   17.4754   20.2411 C   0  0  0  0  0  0  0  0  0  0  0  0
   11.4720   15.5854   20.9530 C   0  0  0  0  0  0  0  0  0  0  0  0
   11.6383   16.0577   22.3553 C   0  0  0  0  0  0  0  0  0  0  0  0
   10.5731   15.5767   23.3450 C   0  0  0  0  0  0  0  0  0  0  0  0
    9.0912   15.8563   22.9910 C   0  0  2  0  0  0  0  0  0  0  0  0
    8.2296   15.9607   24.2579 C   0  0  0  0  0  0  0  0  0  0  0  0
    8.5028   14.9390   21.8827 C   0  0  0  0  0  0  0  0  0  0  0  0
    7.5217   13.8617   22.2658 C   0  0  0  0  0  0  0  0  0  0  0  0
    6.5042   13.6879   21.7818 O   0  0  0  0  0  0  0  0  0  0  0  0
    8.2953   13.1475   23.4713 N   0  0  0  0  0  0  0  0  0  0  0  0
    8.1194   12.0672   24.2561 C   0  0  0  0  0  0  0  0  0  0  0  0
    9.9787   12.2382   24.1422 C   0  0  0  0  0  0  0  0  0  0  0  0
    8.6656   10.5135   23.3427 C   0  0  0  0  0  0  0  0  0  0  0  0
    7.4293   11.8291   24.5310 C   0  0  0  0  0  0  0  0  0  0  0  0
    7.4719   10.5945   25.7252 C   0  0  0  0  0  0  0  0  0  0  0  0
    6.0709   10.2280   26.1971 C   0  0  0  0  0  0  0  0  0  0  0  0
    5.5013   11.3060   26.9851 N   0  0  0  0  0  0  0  0  0  0  0  0
    5.1842   12.4488   26.1472 C   0  0  0  0  0  0  0  0  0  0  0  0
    6.3955   13.0138   25.4339 C   0  0  0  0  0  0  0  0  0  0  0  0
  1  2  1  0
  2  3  1  0
  2  4  2  3
  4  5  1  0
  5  6  1  0
  6  7  1  0
  7  8  1  1
  7  9  1  0
  9 10  1  0
 10 11  2  0
 10 12  1  0
 12 13  1  0
 13 14  1  0
 13 15  1  0
 12 16  1  0
 16 17  1  0
 17 18  1  0
 18 19  1  0
 19 20  1  0
 20 21  1  0
 21 16  1  0
M  END
>  <energy_score>  (73) 
741.158254

>  <inchikey>  (73) 
NEEWPLZUMQNHBI-UHFFFAOYSA-N

>  <smiles>  (73) 
CC(C)=CCC[C@H](C)CC(=O)N(C(C)C)C1CCNCC1

>  <ref_pdb>  (73) 
A4035a

>  <alias>  (73) 
C2404-P278

>  <HIPPO Pose ID>  (73) 
375423

>  <name>  (73) 
C2404-P278

>  <HIPPO Compound ID>  (73) 
2404

>  <ref_mols>  (73) 
A1775a,A4035a

>  <distance_score>  (73) 
1.411256

>  <inspiration_score>  (73) 
None

$$$$
C4560-P564
     RDKit          3D

 22 23  0  0  0  0  0  0  0  0999 V2000
   11.2138   14.5549   25.9694 C   0  0  0  0  0  0  0  0  0  0  0  0
   11.5753   15.2575   24.7998 O   0  0  0  0  0  0  0  0  0  0  0  0
   12.2100   14.4175   23.8247 C   0  0  0  0  0  0  0  0  0  0  0  0
   11.2224   13.5965   23.0033 C   0  0  0  0  0  0  0  0  0  0  0  0
   10.0624   14.3841   22.6352 N   0  0  0  0  0  0  0  0  0  0  0  0
   10.2567   15.4821   21.8083 C   0  0  0  0  0  0  0  0  0  0  0  0
    9.2722   16.3583   21.5811 C   0  0  0  0  0  0  0  0  0  0  0  0
    9.4572   17.4296   20.5512 C   0  0  0  0  0  0  0  0  0  0  0  0
   10.1438   17.1330   19.6100 O   0  0  0  0  0  0  0  0  0  0  0  0
    8.6987   18.6051   20.8090 N   0  0  0  0  0  0  0  0  0  0  0  0
    8.4249   19.7730   19.9587 C   0  0  0  0  0  0  0  0  0  0  0  0
    9.7115   19.8367   21.7186 C   0  0  0  0  0  0  0  0  0  0  0  0
   10.5457   21.1104   23.2515 C   0  0  0  0  0  0  0  0  0  0  0  0
    9.3529   22.5962   23.6973 C   0  0  0  0  0  0  0  0  0  0  0  0
    9.9117   23.9149   24.2565 C   0  0  0  0  0  0  0  0  0  0  0  0
   10.8845   24.5192   23.3723 N   0  0  0  0  0  0  0  0  0  0  0  0
   12.0761   23.6999   23.3032 C   0  0  0  0  0  0  0  0  0  0  0  0
   11.9465   22.2552   23.8526 C   0  0  0  0  0  0  0  0  0  0  0  0
    7.9347   16.0098   22.0432 C   0  0  0  0  0  0  0  0  0  0  0  0
    7.7077   14.9502   22.8267 C   0  0  0  0  0  0  0  0  0  0  0  0
    8.8430   14.0981   23.2416 C   0  0  0  0  0  0  0  0  0  0  0  0
    8.6499   13.2082   24.0678 O   0  0  0  0  0  0  0  0  0  0  0  0
  1  2  1  0
  2  3  1  0
  3  4  1  0
  4  5  1  0
  5  6  1  0
  6  7  2  0
  7  8  1  0
  8  9  2  0
  8 10  1  0
 10 11  1  0
 10 12  1  0
 12 13  1  0
 13 14  1  0
 14 15  1  0
 15 16  1  0
 16 17  1  0
 17 18  1  0
  7 19  1  0
 19 20  2  0
 20 21  1  0
 21 22  2  0
 21  5  1  0
 18 13  1  0
M  END
>  <energy_score>  (74) 
425.330165

>  <inchikey>  (74) 
CCDRIDRXUUDMTF-UHFFFAOYSA-N

>  <smiles>  (74) 
COCCn1cc(C(=O)N(C)CC2CCNCC2)ccc1=O

>  <ref_pdb>  (74) 
A5091a

>  <alias>  (74) 
C4560-P564

>  <HIPPO Pose ID>  (74) 
377032

>  <name>  (74) 
C4560-P564

>  <HIPPO Compound ID>  (74) 
4560

>  <ref_mols>  (74) 
A0525a,A5091a

>  <distance_score>  (74) 
2.356188

>  <inspiration_score>  (74) 
None

$$$$
C17161-P103
     RDKit          3D

 22 25  0  0  0  0  0  0  0  0999 V2000
   19.6904   -2.4128   27.3573 C   0  0  0  0  0  0  0  0  0  0  0  0
   19.5100   -2.1380   25.9153 C   0  0  0  0  0  0  0  0  0  0  0  0
   19.4226   -3.0304   24.8780 C   0  0  0  0  0  0  0  0  0  0  0  0
   19.3320   -2.2675   23.7612 N   0  0  0  0  0  0  0  0  0  0  0  0
   19.3041   -2.7754   22.5390 N   0  0  0  0  0  0  0  0  0  0  0  0
   19.2479   -1.9094   21.5671 C   0  0  0  0  0  0  0  0  0  0  0  0
   19.3002   -2.4764   20.2873 N   0  0  0  0  0  0  0  0  0  0  0  0
   19.6914   -3.9079   20.1594 C   0  0  0  0  0  0  0  0  0  0  0  0
   18.4884   -4.7460   19.7354 C   0  0  0  0  0  0  0  0  0  0  0  0
   18.0942   -4.3848   18.2948 C   0  0  0  0  0  0  0  0  0  0  0  0
   16.6767   -4.8132   17.9613 C   0  0  0  0  0  0  0  0  0  0  0  0
   15.5714   -3.9562   17.9752 C   0  0  0  0  0  0  0  0  0  0  0  0
   14.3093   -4.4356   17.6282 C   0  0  0  0  0  0  0  0  0  0  0  0
   14.1828   -5.7716   17.2946 C   0  0  0  0  0  0  0  0  0  0  0  0
   15.2162   -6.6379   17.2611 N   0  0  0  0  0  0  0  0  0  0  0  0
   16.4284   -6.1405   17.5994 C   0  0  0  0  0  0  0  0  0  0  0  0
   18.4470   -2.9140   17.9988 C   0  0  0  0  0  0  0  0  0  0  0  0
   18.3788   -2.0192   19.2434 C   0  0  0  0  0  0  0  0  0  0  0  0
   19.1557   -0.4274   21.8413 C   0  0  0  0  0  0  0  0  0  0  0  0
   19.2152    0.0011   23.1128 C   0  0  0  0  0  0  0  0  0  0  0  0
   19.3360   -0.9508   24.1430 C   0  0  0  0  0  0  0  0  0  0  0  0
   19.4242   -0.8455   25.4518 N   0  0  0  0  0  0  0  0  0  0  0  0
  1  2  1  0
  2  3  2  0
  3  4  1  0
  4  5  1  0
  5  6  2  0
  6  7  1  0
  7  8  1  0
  8  9  1  0
  9 10  1  0
 10 11  1  0
 11 12  2  0
 12 13  1  0
 13 14  2  0
 14 15  1  0
 15 16  2  0
 10 17  1  0
 17 18  1  0
  6 19  1  0
 19 20  2  0
 20 21  1  0
 21 22  2  0
 22  2  1  0
 21  4  1  0
 18  7  1  0
 16 11  1  0
M  END
>  <energy_score>  (75) 
-25.278178

>  <inchikey>  (75) 
KMVAZVAKGLYPSW-UHFFFAOYSA-N

>  <smiles>  (75) 
Cc1cn2nc(N3CCC(c4cccnc4)CC3)ccc2n1

>  <ref_pdb>  (75) 
A1105b

>  <alias>  (75) 
C17161-P103

>  <HIPPO Pose ID>  (75) 
377140

>  <name>  (75) 
C17161-P103

>  <HIPPO Compound ID>  (75) 
17161

>  <ref_mols>  (75) 
A0202a,A1105b

>  <distance_score>  (75) 
2.274586

>  <inspiration_score>  (75) 
None

$$$$
C13635-P338
     RDKit          3D

 19 20  0  0  0  0  0  0  0  0999 V2000
   10.1555   10.0289   24.4637 C   0  0  0  0  0  0  0  0  0  0  0  0
    9.9799   11.3474   23.9625 O   0  0  0  0  0  0  0  0  0  0  0  0
   10.5976   12.3726   24.7436 C   0  0  0  0  0  0  0  0  0  0  0  0
   10.4914   13.7960   24.0855 C   0  0  1  0  0  0  0  0  0  0  0  0
   10.9554   13.7003   22.6404 C   0  0  0  0  0  0  0  0  0  0  0  0
   10.4682   14.9915   22.1115 C   0  0  0  0  0  0  0  0  0  0  0  0
    9.8145   15.5070   23.3653 C   0  0  0  0  0  0  0  0  0  0  0  0
    9.0936   14.4821   24.2001 N   0  0  0  0  0  0  0  0  0  0  0  0
    7.9643   13.5093   23.8318 C   0  0  0  0  0  0  0  0  0  0  0  0
    7.4577   13.2870   22.7882 O   0  0  0  0  0  0  0  0  0  0  0  0
    7.4979   12.9002   25.1679 C   0  0  2  0  0  0  0  0  0  0  0  0
    7.2056   11.4144   25.0595 C   0  0  0  0  0  0  0  0  0  0  0  0
    5.9789   13.7265   25.7554 S   0  0  0  0  0  0  0  0  0  0  0  0
    6.5507   15.3806   26.0223 C   0  0  0  0  0  0  0  0  0  0  0  0
    7.3124   15.7019   27.1398 C   0  0  0  0  0  0  0  0  0  0  0  0
    7.5763   17.0434   27.4030 C   0  0  0  0  0  0  0  0  0  0  0  0
    7.0700   18.0135   26.5463 C   0  0  0  0  0  0  0  0  0  0  0  0
    6.3476   17.6029   25.4393 C   0  0  0  0  0  0  0  0  0  0  0  0
    6.0770   16.3105   25.1696 N   0  0  0  0  0  0  0  0  0  0  0  0
  1  2  1  0
  2  3  1  0
  4  3  1  6
  4  5  1  0
  5  6  1  0
  6  7  1  0
  7  8  1  0
  8  9  1  0
  9 10  2  0
  9 11  1  0
 11 12  1  6
 11 13  1  0
 13 14  1  0
 14 15  2  0
 15 16  1  0
 16 17  2  0
 17 18  1  0
 18 19  2  0
  8  4  1  0
 19 14  1  0
M  END
>  <energy_score>  (76) 
38.889167

>  <inchikey>  (76) 
YRRZSBUQABVFIZ-UHFFFAOYSA-N

>  <smiles>  (76) 
COC[C@H]1CCCN1C(=O)[C@H](C)Sc1ccccn1

>  <ref_pdb>  (76) 
A4237a

>  <alias>  (76) 
C13635-P338

>  <HIPPO Pose ID>  (76) 
378090

>  <name>  (76) 
C13635-P338

>  <HIPPO Compound ID>  (76) 
13635

>  <ref_mols>  (76) 
A4237a,A1778a

>  <distance_score>  (76) 
1.564439

>  <inspiration_score>  (76) 
None

$$$$
C31914-P338
     RDKit          3D

 21 22  0  0  0  0  0  0  0  0999 V2000
    6.0274   13.4039   23.7140 C   0  0  0  0  0  0  0  0  0  0  0  0
    6.9084   14.6029   23.9172 C   0  0  2  0  0  0  0  0  0  0  0  0
    5.8781   16.0828   23.9593 S   0  0  0  0  0  0  0  0  0  0  0  0
    6.3017   16.6707   25.5738 C   0  0  0  0  0  0  0  0  0  0  0  0
    6.3625   15.8755   26.7154 C   0  0  0  0  0  0  0  0  0  0  0  0
    6.6972   16.4643   27.9323 C   0  0  0  0  0  0  0  0  0  0  0  0
    6.9021   17.8342   27.9857 C   0  0  0  0  0  0  0  0  0  0  0  0
    6.7821   18.5517   26.8140 C   0  0  0  0  0  0  0  0  0  0  0  0
    6.5316   17.9902   25.6216 N   0  0  0  0  0  0  0  0  0  0  0  0
    7.9736   14.6590   22.8297 C   0  0  0  0  0  0  0  0  0  0  0  0
    7.8176   14.2077   21.7514 O   0  0  0  0  0  0  0  0  0  0  0  0
    9.1475   15.4441   23.4117 N   0  0  0  0  0  0  0  0  0  0  0  0
   10.3979   15.9587   22.7591 C   0  0  0  0  0  0  0  0  0  0  0  0
   11.1791   14.8869   22.0333 C   0  0  0  0  0  0  0  0  0  0  0  0
   10.9879   13.7645   22.9923 C   0  0  0  0  0  0  0  0  0  0  0  0
   10.1940   14.4954   24.0597 C   0  0  2  0  0  0  0  0  0  0  0  0
    9.6112   13.4986   25.1304 C   0  0  0  0  0  0  0  0  0  0  0  0
    8.7459   12.4924   24.6031 O   0  0  0  0  0  0  0  0  0  0  0  0
    8.1254   11.7071   25.6129 C   0  0  0  0  0  0  0  0  0  0  0  0
    7.2924   10.8081   25.0420 F   0  0  0  0  0  0  0  0  0  0  0  0
    7.3641   12.5048   26.4033 F   0  0  0  0  0  0  0  0  0  0  0  0
  2  1  1  6
  2  3  1  0
  3  4  1  0
  4  5  2  0
  5  6  1  0
  6  7  2  0
  7  8  1  0
  8  9  2  0
  2 10  1  0
 10 11  2  0
 10 12  1  0
 12 13  1  0
 13 14  1  0
 14 15  1  0
 15 16  1  0
 16 17  1  1
 17 18  1  0
 18 19  1  0
 19 20  1  0
 19 21  1  0
  9  4  1  0
 16 12  1  0
M  END
>  <energy_score>  (77) 
48.390176

>  <inchikey>  (77) 
YDNDNJIBNVJFRQ-UHFFFAOYSA-N

>  <smiles>  (77) 
C[C@H](Sc1ccccn1)C(=O)N1CCC[C@@H]1COC(F)F

>  <ref_pdb>  (77) 
A4237a

>  <alias>  (77) 
C31914-P338

>  <HIPPO Pose ID>  (77) 
378091

>  <name>  (77) 
C31914-P338

>  <HIPPO Compound ID>  (77) 
31914

>  <ref_mols>  (77) 
A4237a,A1778a

>  <distance_score>  (77) 
1.756571

>  <inspiration_score>  (77) 
None

$$$$
C29365-P115
     RDKit          3D

 21 23  0  0  0  0  0  0  0  0999 V2000
   18.4370   18.2206   24.6747 O   0  0  0  0  0  0  0  0  0  0  0  0
   18.5702   17.3224   23.8236 C   0  0  0  0  0  0  0  0  0  0  0  0
   17.5088   15.9014   23.5095 N   0  0  0  0  0  0  0  0  0  0  0  0
   15.7565   15.3925   24.3025 C   0  0  0  0  0  0  0  0  0  0  0  0
   14.1749   14.1604   23.9839 C   0  0  1  0  0  0  0  0  0  0  0  0
   12.8294   13.5907   24.8723 C   0  0  0  0  0  0  0  0  0  0  0  0
   12.1440   13.2216   23.5692 C   0  0  1  0  0  0  0  0  0  0  0  0
   10.6694   13.1897   23.6593 N   0  0  0  0  0  0  0  0  0  0  0  0
    9.9122   12.2109   23.0837 C   0  0  0  0  0  0  0  0  0  0  0  0
    8.6716   12.2894   23.5062 N   0  0  0  0  0  0  0  0  0  0  0  0
    8.7232   13.3266   24.3881 C   0  0  0  0  0  0  0  0  0  0  0  0
    9.9288   13.8851   24.5530 N   0  0  0  0  0  0  0  0  0  0  0  0
   12.8212   14.4077   22.8888 C   0  0  0  0  0  0  0  0  0  0  0  0
   19.7770   17.6470   22.9077 C   0  0  0  0  0  0  0  0  0  0  0  0
   19.4145   18.2861   21.7722 F   0  0  0  0  0  0  0  0  0  0  0  0
   21.0581   17.6577   23.3247 C   0  0  0  0  0  0  0  0  0  0  0  0
   22.1184   18.2215   22.5637 C   0  0  0  0  0  0  0  0  0  0  0  0
   22.2554   19.2073   21.6047 C   0  0  0  0  0  0  0  0  0  0  0  0
   23.5703   19.3766   21.2387 N   0  0  0  0  0  0  0  0  0  0  0  0
   24.2376   18.5056   21.9576 C   0  0  0  0  0  0  0  0  0  0  0  0
   23.4024   17.7593   22.7411 N   0  0  0  0  0  0  0  0  0  0  0  0
  1  2  2  0
  2  3  1  0
  3  4  1  0
  5  4  1  1
  5  6  1  0
  6  7  1  0
  7  8  1  1
  8  9  1  0
  9 10  2  0
 10 11  1  0
 11 12  2  0
  7 13  1  0
  2 14  1  0
 14 15  1  0
 14 16  2  3
 16 17  1  0
 17 18  2  0
 18 19  1  0
 19 20  2  0
 20 21  1  0
 13  5  1  0
 21 17  1  0
 12  8  1  0
M  END
>  <energy_score>  (78) 
403.734396

>  <inchikey>  (78) 
XJTNTRWXFQVTIG-UHFFFAOYSA-N

>  <smiles>  (78) 
O=C(NC[C@H]1C[C@@H](n2cncn2)C1)C(F)=Cc1cnc[nH]1

>  <ref_pdb>  (78) 
A1209a

>  <alias>  (78) 
C29365-P115

>  <HIPPO Pose ID>  (78) 
382349

>  <name>  (78) 
C29365-P115

>  <HIPPO Compound ID>  (78) 
29365

>  <ref_mols>  (78) 
A1209a,A1146a

>  <distance_score>  (78) 
4.582949

>  <inspiration_score>  (78) 
None

$$$$
C23517-P115
     RDKit          3D

 21 24  0  0  0  0  0  0  0  0999 V2000
   15.3697    4.0699   22.8425 O   0  0  0  0  0  0  0  0  0  0  0  0
   14.6592    3.2954   23.4290 C   0  0  0  0  0  0  0  0  0  0  0  0
   12.8712    3.3360   23.4501 N   0  0  0  0  0  0  0  0  0  0  0  0
   11.5881    4.6746   22.6794 C   0  0  2  0  0  0  0  0  0  0  0  0
   11.4408    6.6364   23.4274 C   0  0  0  0  0  0  0  0  0  0  0  0
    9.9902    6.7694   23.4474 C   0  0  1  0  0  0  0  0  0  0  0  0
    9.3165    8.1323   23.0838 N   0  0  0  0  0  0  0  0  0  0  0  0
    8.6029    8.8333   24.0687 C   0  0  0  0  0  0  0  0  0  0  0  0
    8.7925   10.1713   23.8718 C   0  0  0  0  0  0  0  0  0  0  0  0
    9.5845   10.3585   22.7976 N   0  0  0  0  0  0  0  0  0  0  0  0
    9.8696    9.1477   22.3535 C   0  0  0  0  0  0  0  0  0  0  0  0
    9.8200    5.0908   23.0593 C   0  0  0  0  0  0  0  0  0  0  0  0
   15.4859    2.3906   24.2234 C   0  0  0  0  0  0  0  0  0  0  0  0
   16.1969    3.0543   25.2900 C   0  0  0  0  0  0  0  0  0  0  0  0
   17.1662    2.2898   25.9123 N   0  0  0  0  0  0  0  0  0  0  0  0
   17.4325    1.3842   25.0146 C   0  0  0  0  0  0  0  0  0  0  0  0
   18.3928    0.4100   25.0495 N   0  0  0  0  0  0  0  0  0  0  0  0
   18.8850    0.1031   23.8916 C   0  0  0  0  0  0  0  0  0  0  0  0
   18.4918    0.7083   22.5996 C   0  0  0  0  0  0  0  0  0  0  0  0
   17.3987    1.4822   22.6549 C   0  0  0  0  0  0  0  0  0  0  0  0
   16.7096    1.6941   23.8491 N   0  0  0  0  0  0  0  0  0  0  0  0
  1  2  2  0
  2  3  1  0
  4  3  1  1
  4  5  1  0
  5  6  1  0
  6  7  1  6
  7  8  1  0
  8  9  2  0
  9 10  1  0
 10 11  2  0
  6 12  1  0
  2 13  1  0
 13 14  2  0
 14 15  1  0
 15 16  2  0
 16 17  1  0
 17 18  2  0
 18 19  1  0
 19 20  2  0
 20 21  1  0
 12  4  1  0
 21 13  1  0
 11  7  1  0
 21 16  1  0
M  END
>  <energy_score>  (79) 
365.189604

>  <inchikey>  (79) 
CNDLWXGSQIOVNT-UHFFFAOYSA-N

>  <smiles>  (79) 
O=C(N[C@H]1C[C@H](n2ccnc2)C1)c1cnc2ncccn12

>  <ref_pdb>  (79) 
A1209a

>  <alias>  (79) 
C23517-P115

>  <HIPPO Pose ID>  (79) 
383972

>  <name>  (79) 
C23517-P115

>  <HIPPO Compound ID>  (79) 
23517

>  <ref_mols>  (79) 
A1209a,A0202a

>  <distance_score>  (79) 
4.443185

>  <inspiration_score>  (79) 
None

$$$$
C37776-P273
     RDKit          3D

 21 23  0  0  0  0  0  0  0  0999 V2000
   10.7141   13.7858   23.9173 O   0  0  0  0  0  0  0  0  0  0  0  0
   11.0521   14.4043   22.9164 C   0  0  0  0  0  0  0  0  0  0  0  0
   10.6987   15.8485   22.6809 C   0  0  0  0  0  0  0  0  0  0  0  0
    9.8616   15.9461   21.3774 C   0  0  2  0  0  0  0  0  0  0  0  0
    8.6696   15.0283   21.6783 C   0  0  0  0  0  0  0  0  0  0  0  0
    8.5336   13.9744   21.1929 O   0  0  0  0  0  0  0  0  0  0  0  0
    7.8325   15.7486   22.7756 N   0  0  0  0  0  0  0  0  0  0  0  0
    6.7685   15.2993   23.5278 C   0  0  0  0  0  0  0  0  0  0  0  0
    6.0072   16.1484   24.3176 C   0  0  0  0  0  0  0  0  0  0  0  0
    5.3076   15.6162   25.4065 C   0  0  0  0  0  0  0  0  0  0  0  0
    5.4610   14.2653   25.7571 C   0  0  0  0  0  0  0  0  0  0  0  0
    6.2739   13.4328   24.9834 C   0  0  0  0  0  0  0  0  0  0  0  0
    6.6559   12.0858   25.3477 C   0  0  0  0  0  0  0  0  0  0  0  0
    5.9754   11.2052   26.1519 C   0  0  0  0  0  0  0  0  0  0  0  0
    6.5848   10.0059   25.9179 N   0  0  0  0  0  0  0  0  0  0  0  0
    7.6663   10.2186   25.1160 C   0  0  0  0  0  0  0  0  0  0  0  0
    7.7676   11.4798   24.8045 N   0  0  0  0  0  0  0  0  0  0  0  0
    6.8298   13.9405   23.8157 C   0  0  0  0  0  0  0  0  0  0  0  0
   10.7288   15.4301   20.2147 C   0  0  0  0  0  0  0  0  0  0  0  0
   11.9766   14.6715   20.6835 C   0  0  0  0  0  0  0  0  0  0  0  0
   11.7382   13.8699   21.8634 N   0  0  0  0  0  0  0  0  0  0  0  0
  1  2  2  0
  2  3  1  0
  3  4  1  0
  4  5  1  1
  5  6  2  0
  5  7  1  0
  7  8  1  0
  8  9  2  0
  9 10  1  0
 10 11  2  0
 11 12  1  0
 12 13  1  0
 13 14  2  0
 14 15  1  0
 15 16  1  0
 16 17  2  0
 12 18  2  0
  4 19  1  0
 19 20  1  0
 20 21  1  0
 21  2  1  0
 18  8  1  0
 17 13  1  0
M  END
>  <energy_score>  (80) 
16.32159

>  <inchikey>  (80) 
KFHTYXCZSCRHJZ-UHFFFAOYSA-N

>  <smiles>  (80) 
O=C1C[C@H](C(=O)Nc2cccc(-c3c[nH]cn3)c2)CCN1

>  <ref_pdb>  (80) 
A4029a

>  <alias>  (80) 
C37776-P273

>  <HIPPO Pose ID>  (80) 
385263

>  <name>  (80) 
C37776-P273

>  <HIPPO Compound ID>  (80) 
37776

>  <ref_mols>  (80) 
A4029a,A1209a

>  <distance_score>  (80) 
2.360952

>  <inspiration_score>  (80) 
None

$$$$
C34425-P31
     RDKit          3D

 24 26  0  0  0  0  0  0  0  0999 V2000
    8.2570   12.4238   -1.9695 C   0  0  0  0  0  0  0  0  0  0  0  0
    7.8451   12.1318   -0.5282 C   0  0  1  0  0  0  0  0  0  0  0  0
    8.1944   10.7015   -0.1197 C   0  0  0  0  0  0  0  0  0  0  0  0
    7.5536   10.3896    1.2265 C   0  0  0  0  0  0  0  0  0  0  0  0
    7.6274   11.5418    2.1952 C   0  0  0  0  0  0  0  0  0  0  0  0
    7.2224   11.3181    3.5208 C   0  0  0  0  0  0  0  0  0  0  0  0
    7.2392   12.3487    4.4557 C   0  0  0  0  0  0  0  0  0  0  0  0
    7.6561   13.6159    4.0725 C   0  0  0  0  0  0  0  0  0  0  0  0
    8.0503   13.8484    2.7517 C   0  0  0  0  0  0  0  0  0  0  0  0
    8.0414   12.8247    1.7888 C   0  0  0  0  0  0  0  0  0  0  0  0
    8.3904   13.0934    0.4508 N   0  0  0  0  0  0  0  0  0  0  0  0
    9.6972   13.7391    0.2437 C   0  0  0  0  0  0  0  0  0  0  0  0
   10.8828   12.7706    0.3490 C   0  0  0  0  0  0  0  0  0  0  0  0
   12.1451   13.4615    0.2761 N   0  0  0  0  0  0  0  0  0  0  0  0
   12.8303   14.4158    1.2880 C   0  0  0  0  0  0  0  0  0  0  0  0
   12.4432   14.8491    2.3013 O   0  0  0  0  0  0  0  0  0  0  0  0
   14.1628   14.8056    0.6377 C   0  0  0  0  0  0  0  0  0  0  0  0
   14.9317   13.6955    0.2011 O   0  0  0  0  0  0  0  0  0  0  0  0
   15.7272   13.0480    1.2024 C   0  0  0  0  0  0  0  0  0  0  0  0
   16.6658   14.0052    1.9437 C   0  0  0  0  0  0  0  0  0  0  0  0
   17.6672   13.2468    2.7940 C   0  0  0  0  0  0  0  0  0  0  0  0
   18.4093   12.3213    2.0090 O   0  0  0  0  0  0  0  0  0  0  0  0
   17.5748   11.3409    1.3904 C   0  0  0  0  0  0  0  0  0  0  0  0
   16.5522   11.9850    0.4727 C   0  0  0  0  0  0  0  0  0  0  0  0
  2  1  1  6
  2  3  1  0
  3  4  1  0
  4  5  1  0
  5  6  2  0
  6  7  1  0
  7  8  2  0
  8  9  1  0
  9 10  2  0
 10 11  1  0
 11 12  1  0
 12 13  1  0
 13 14  1  0
 14 15  1  0
 15 16  2  0
 15 17  1  0
 17 18  1  0
 18 19  1  0
 19 20  1  0
 20 21  1  0
 21 22  1  0
 22 23  1  0
 23 24  1  0
 11  2  1  0
 24 19  1  0
 10  5  1  0
M  END
>  <energy_score>  (81) 
-26.621136

>  <inchikey>  (81) 
DKGPPHBODADFID-UHFFFAOYSA-N

>  <smiles>  (81) 
C[C@H]1CCc2ccccc2N1CCNC(=O)COC1CCOCC1

>  <ref_pdb>  (81) 
A0586a

>  <alias>  (81) 
C34425-P31

>  <HIPPO Pose ID>  (81) 
386422

>  <name>  (81) 
C34425-P31

>  <HIPPO Compound ID>  (81) 
34425

>  <ref_mols>  (81) 
A0608a,A0586a

>  <distance_score>  (81) 
0.621048

>  <inspiration_score>  (81) 
None

$$$$
C2081-P363
     RDKit          3D

 22 24  0  0  0  0  0  0  0  0999 V2000
    8.2257   10.8762   25.2266 C   0  0  0  0  0  0  0  0  0  0  0  0
    9.4299   10.4238   24.4240 C   0  0  0  0  0  0  0  0  0  0  0  0
    9.7883   11.4280   23.4679 O   0  0  0  0  0  0  0  0  0  0  0  0
   10.5239   12.4800   23.9173 C   0  0  0  0  0  0  0  0  0  0  0  0
   10.9026   12.5943   25.0420 O   0  0  0  0  0  0  0  0  0  0  0  0
   10.6480   13.3349   22.8168 N   0  0  0  0  0  0  0  0  0  0  0  0
   11.1895   14.6740   22.7069 C   0  0  1  0  0  0  0  0  0  0  0  0
   11.7025   14.9407   21.3053 C   0  0  0  0  0  0  0  0  0  0  0  0
   10.5167   15.1896   20.4023 C   0  0  0  0  0  0  0  0  0  0  0  0
    9.4575   16.0084   21.1304 C   0  0  0  0  0  0  0  0  0  0  0  0
    8.7421   15.3832   22.2969 N   0  0  0  0  0  0  0  0  0  0  0  0
    7.6496   15.8542   23.0742 C   0  0  0  0  0  0  0  0  0  0  0  0
    7.0771   16.9075   23.0569 O   0  0  0  0  0  0  0  0  0  0  0  0
    7.2315   14.8804   24.0912 C   0  0  0  0  0  0  0  0  0  0  0  0
    6.0668   14.1209   24.0426 C   0  0  0  0  0  0  0  0  0  0  0  0
    5.9311   13.6742   25.3009 N   0  0  0  0  0  0  0  0  0  0  0  0
    6.9425   14.1528   26.0724 C   0  0  0  0  0  0  0  0  0  0  0  0
    7.8104   14.8267   25.3695 N   0  0  0  0  0  0  0  0  0  0  0  0
    6.6975   13.8770   27.4981 C   0  0  0  0  0  0  0  0  0  0  0  0
    5.1834   13.5545   27.4928 C   0  0  0  0  0  0  0  0  0  0  0  0
    4.8805   13.0498   26.0719 C   0  0  0  0  0  0  0  0  0  0  0  0
   10.0698   15.7046   23.0000 C   0  0  0  0  0  0  0  0  0  0  0  0
  1  2  1  0
  2  3  1  0
  3  4  1  0
  4  5  2  0
  4  6  1  0
  7  6  1  6
  7  8  1  0
  8  9  1  0
  9 10  1  0
 10 11  1  0
 11 12  1  0
 12 13  2  0
 12 14  1  0
 14 15  2  0
 15 16  1  0
 16 17  1  0
 17 18  2  0
 17 19  1  0
 19 20  1  0
 20 21  1  0
 11 22  1  0
 22  7  1  0
 18 14  1  0
 21 16  1  0
M  END
>  <energy_score>  (82) 
37.257814

>  <inchikey>  (82) 
HCXMHOHZOVADID-UHFFFAOYSA-N

>  <smiles>  (82) 
CCOC(=O)N[C@H]1CCCN(C(=O)c2cn3c(n2)CCC3)C1

>  <ref_pdb>  (82) 
A4445a

>  <alias>  (82) 
C2081-P363

>  <HIPPO Pose ID>  (82) 
388144

>  <name>  (82) 
C2081-P363

>  <HIPPO Compound ID>  (82) 
2081

>  <ref_mols>  (82) 
A4445a,A3371a

>  <distance_score>  (82) 
2.418891

>  <inspiration_score>  (82) 
None

$$$$
C12016-P161
     RDKit          3D

 23 25  0  0  0  0  0  0  0  0999 V2000
   11.6097   14.9369   20.0836 C   0  0  0  0  0  0  0  0  0  0  0  0
   11.4647   14.9110   21.5990 C   0  0  2  0  0  0  0  0  0  0  0  0
   11.7289   13.5165   22.2799 C   0  0  0  0  0  0  0  0  0  0  0  0
   12.1937   13.5177   23.7317 C   0  0  0  0  0  0  0  0  0  0  0  0
   11.8296   14.4876   24.6317 C   0  0  0  0  0  0  0  0  0  0  0  0
   12.4214   14.5068   25.8882 C   0  0  0  0  0  0  0  0  0  0  0  0
   13.4317   13.6116   26.2092 C   0  0  0  0  0  0  0  0  0  0  0  0
   13.7106   12.6346   25.3019 C   0  0  0  0  0  0  0  0  0  0  0  0
   13.0991   12.5721   24.1045 N   0  0  0  0  0  0  0  0  0  0  0  0
   10.1320   15.2822   21.9724 N   0  0  0  0  0  0  0  0  0  0  0  0
    9.3528   16.5799   21.7260 C   0  0  0  0  0  0  0  0  0  0  0  0
    9.6381   17.5234   21.1164 O   0  0  0  0  0  0  0  0  0  0  0  0
    8.1150   16.4277   22.5575 C   0  0  0  0  0  0  0  0  0  0  0  0
    7.0827   15.6199   22.0799 C   0  0  0  0  0  0  0  0  0  0  0  0
    6.3584   14.7619   22.9122 C   0  0  0  0  0  0  0  0  0  0  0  0
    6.8871   14.5230   24.1637 C   0  0  0  0  0  0  0  0  0  0  0  0
    7.9145   15.3600   24.6489 C   0  0  0  0  0  0  0  0  0  0  0  0
    8.4166   16.4117   23.9164 C   0  0  0  0  0  0  0  0  0  0  0  0
    8.8780   14.6344   25.4218 N   0  0  0  0  0  0  0  0  0  0  0  0
    8.8086   13.0963   24.6051 S   0  0  0  0  0  0  0  0  0  0  0  0
    9.3729   12.0911   25.4437 O   0  0  0  0  0  0  0  0  0  0  0  0
    9.1878   13.2611   23.2234 O   0  0  0  0  0  0  0  0  0  0  0  0
    7.0295   13.0951   24.6365 C   0  0  0  0  0  0  0  0  0  0  0  0
  2  1  1  6
  2  3  1  0
  3  4  1  0
  4  5  2  0
  5  6  1  0
  6  7  2  0
  7  8  1  0
  8  9  2  0
  2 10  1  0
 10 11  1  0
 11 12  2  0
 11 13  1  0
 13 14  2  0
 14 15  1  0
 15 16  2  0
 16 17  1  0
 17 18  2  0
 17 19  1  0
 19 20  1  0
 20 21  2  0
 20 22  2  0
 20 23  1  0
  9  4  1  0
 18 13  1  0
 23 16  1  0
M  END
>  <energy_score>  (83) 
60.219327

>  <inchikey>  (83) 
PPLGNQJOBOITFJ-UHFFFAOYSA-N

>  <smiles>  (83) 
C[C@H](Cc1ccccn1)NC(=O)c1ccc2c(c1)NS(=O)(=O)C2

>  <ref_pdb>  (83) 
A3229a

>  <alias>  (83) 
C12016-P161

>  <HIPPO Pose ID>  (83) 
388238

>  <name>  (83) 
C12016-P161

>  <HIPPO Compound ID>  (83) 
12016

>  <ref_mols>  (83) 
A3229a,A2513a

>  <distance_score>  (83) 
3.706146

>  <inspiration_score>  (83) 
None

$$$$
C11989-P134
     RDKit          3D

 23 25  0  0  0  0  0  0  0  0999 V2000
    9.6419   17.3467   17.1085 N   0  0  0  0  0  0  0  0  0  0  0  0
    9.4647   17.7624   18.4706 C   0  0  0  0  0  0  0  0  0  0  0  0
    9.0354   18.7853   18.9233 O   0  0  0  0  0  0  0  0  0  0  0  0
    9.7623   16.7414   19.5549 C   0  0  0  0  0  0  0  0  0  0  0  0
   10.6176   15.6321   19.5321 C   0  0  0  0  0  0  0  0  0  0  0  0
   10.6867   14.7768   20.6522 C   0  0  0  0  0  0  0  0  0  0  0  0
    9.7572   14.9534   21.6532 C   0  0  0  0  0  0  0  0  0  0  0  0
    9.4622   14.1034   22.6841 N   0  0  0  0  0  0  0  0  0  0  0  0
   10.2598   13.1304   23.3563 C   0  0  0  0  0  0  0  0  0  0  0  0
   11.3712   12.7476   23.1434 O   0  0  0  0  0  0  0  0  0  0  0  0
    9.4518   12.4943   24.4437 C   0  0  0  0  0  0  0  0  0  0  0  0
    9.2946   11.1018   24.4373 C   0  0  0  0  0  0  0  0  0  0  0  0
    8.3146   10.5112   25.2401 C   0  0  0  0  0  0  0  0  0  0  0  0
    7.4954   11.3184   26.0263 C   0  0  0  0  0  0  0  0  0  0  0  0
    7.7092   12.6936   26.0685 C   0  0  0  0  0  0  0  0  0  0  0  0
    8.6901   13.2972   25.3078 C   0  0  0  0  0  0  0  0  0  0  0  0
    6.7498   13.4417   26.8055 N   0  0  0  0  0  0  0  0  0  0  0  0
    5.8213   12.3193   27.7029 S   0  0  0  0  0  0  0  0  0  0  0  0
    6.3692   12.2535   29.0400 O   0  0  0  0  0  0  0  0  0  0  0  0
    4.4250   12.6013   27.4526 O   0  0  0  0  0  0  0  0  0  0  0  0
    6.3077   10.8472   26.8008 C   0  0  0  0  0  0  0  0  0  0  0  0
    8.9032   15.9780   21.6784 N   0  0  0  0  0  0  0  0  0  0  0  0
    9.0084   16.9040   20.7135 C   0  0  0  0  0  0  0  0  0  0  0  0
  1  2  1  0
  2  3  2  0
  2  4  1  0
  4  5  2  0
  5  6  1  0
  6  7  2  0
  7  8  1  0
  8  9  1  0
  9 10  2  0
  9 11  1  0
 11 12  2  0
 12 13  1  0
 13 14  2  0
 14 15  1  0
 15 16  2  0
 15 17  1  0
 17 18  1  0
 18 19  2  0
 18 20  2  0
 18 21  1  0
  7 22  1  0
 22 23  2  0
 23  4  1  0
 16 11  1  0
 21 14  1  0
M  END
>  <energy_score>  (84) 
154.849321

>  <inchikey>  (84) 
RJDGWKCUSWDHCU-UHFFFAOYSA-N

>  <smiles>  (84) 
NC(=O)c1ccc(NC(=O)c2ccc3c(c2)NS(=O)(=O)C3)nc1

>  <ref_pdb>  (84) 
A2513a

>  <alias>  (84) 
C11989-P134

>  <HIPPO Pose ID>  (84) 
389951

>  <name>  (84) 
C11989-P134

>  <HIPPO Compound ID>  (84) 
11989

>  <ref_mols>  (84) 
A4274b,A2513a

>  <distance_score>  (84) 
1.974466

>  <inspiration_score>  (84) 
None

$$$$
C12012-P344
     RDKit          3D

 22 24  0  0  0  0  0  0  0  0999 V2000
    7.7626   16.6244   22.6558 C   0  0  0  0  0  0  0  0  0  0  0  0
    8.9647   15.8139   23.1217 C   0  0  1  0  0  0  0  0  0  0  0  0
    8.4826   14.5058   23.4548 O   0  0  0  0  0  0  0  0  0  0  0  0
    9.2752   13.7520   24.2482 C   0  0  0  0  0  0  0  0  0  0  0  0
   10.4485   13.8880   24.5365 O   0  0  0  0  0  0  0  0  0  0  0  0
    8.4055   12.7330   24.8176 C   0  0  0  0  0  0  0  0  0  0  0  0
    8.6242   11.3641   24.6237 C   0  0  0  0  0  0  0  0  0  0  0  0
    7.7857   10.4427   25.2614 C   0  0  0  0  0  0  0  0  0  0  0  0
    6.7731   10.9142   26.0971 C   0  0  0  0  0  0  0  0  0  0  0  0
    6.6045   12.2872   26.2704 C   0  0  0  0  0  0  0  0  0  0  0  0
    7.3839   13.2116   25.6320 C   0  0  0  0  0  0  0  0  0  0  0  0
    5.5094   12.6865   27.0659 N   0  0  0  0  0  0  0  0  0  0  0  0
    4.9559   11.2971   27.8836 S   0  0  0  0  0  0  0  0  0  0  0  0
    3.5226   11.2436   27.6968 O   0  0  0  0  0  0  0  0  0  0  0  0
    5.5683   11.2802   29.1950 O   0  0  0  0  0  0  0  0  0  0  0  0
    5.7759   10.0811   26.8399 C   0  0  0  0  0  0  0  0  0  0  0  0
   10.0524   15.7111   22.0992 C   0  0  0  0  0  0  0  0  0  0  0  0
   11.3673   15.9692   22.4840 C   0  0  0  0  0  0  0  0  0  0  0  0
   12.3824   15.7640   21.5837 C   0  0  0  0  0  0  0  0  0  0  0  0
   12.0442   15.3010   20.3276 C   0  0  0  0  0  0  0  0  0  0  0  0
   10.7863   15.1088   19.8881 N   0  0  0  0  0  0  0  0  0  0  0  0
    9.8189   15.2991   20.7938 C   0  0  0  0  0  0  0  0  0  0  0  0
  2  1  1  6
  2  3  1  0
  3  4  1  0
  4  5  2  0
  4  6  1  0
  6  7  2  0
  7  8  1  0
  8  9  2  0
  9 10  1  0
 10 11  2  0
 10 12  1  0
 12 13  1  0
 13 14  2  0
 13 15  2  0
 13 16  1  0
  2 17  1  0
 17 18  2  0
 18 19  1  0
 19 20  2  0
 20 21  1  0
 21 22  2  0
 11  6  1  0
 22 17  1  0
 16  9  1  0
M  END
>  <energy_score>  (85) 
-23.719719

>  <inchikey>  (85) 
KLVPKQRAFUJBFS-UHFFFAOYSA-N

>  <smiles>  (85) 
C[C@@H](OC(=O)c1ccc2c(c1)NS(=O)(=O)C2)c1cccnc1

>  <ref_pdb>  (85) 
A4274b

>  <alias>  (85) 
C12012-P344

>  <HIPPO Pose ID>  (85) 
389969

>  <name>  (85) 
C12012-P344

>  <HIPPO Compound ID>  (85) 
12012

>  <ref_mols>  (85) 
A4274b,A2513a

>  <distance_score>  (85) 
2.190631

>  <inspiration_score>  (85) 
None

$$$$
C3782-P487
     RDKit          3D

 22 23  0  0  0  0  0  0  0  0999 V2000
    6.5902   13.8322   22.2187 C   0  0  0  0  0  0  0  0  0  0  0  0
    6.9674   14.2029   23.6521 C   0  0  2  0  0  0  0  0  0  0  0  0
    8.3344   14.6779   23.5917 N   0  0  0  0  0  0  0  0  0  0  0  0
    9.6760   13.8900   23.4840 C   0  0  0  0  0  0  0  0  0  0  0  0
    9.8826   12.7385   23.5062 O   0  0  0  0  0  0  0  0  0  0  0  0
   10.7791   14.9278   23.2181 C   0  0  0  0  0  0  0  0  0  0  0  0
   10.8697   15.1358   21.7396 C   0  0  0  0  0  0  0  0  0  0  0  0
    9.9001   15.2951   20.7682 C   0  0  0  0  0  0  0  0  0  0  0  0
   10.5884   15.2879   19.5458 C   0  0  0  0  0  0  0  0  0  0  0  0
   11.9003   15.1768   19.7184 N   0  0  0  0  0  0  0  0  0  0  0  0
   12.0533   15.1573   21.0513 N   0  0  0  0  0  0  0  0  0  0  0  0
    6.5391   13.0952   24.6471 C   0  0  0  0  0  0  0  0  0  0  0  0
    7.4180   11.8548   24.8077 C   0  0  0  0  0  0  0  0  0  0  0  0
    6.7725   10.8193   25.7467 C   0  0  0  0  0  0  0  0  0  0  0  0
    6.3374   11.3841   27.0268 N   0  0  0  0  0  0  0  0  0  0  0  0
    5.7169   10.3937   27.9470 C   0  0  0  0  0  0  0  0  0  0  0  0
    4.3127    9.7933   27.8004 C   0  0  0  0  0  0  0  0  0  0  0  0
    3.3561   10.7405   27.9420 F   0  0  0  0  0  0  0  0  0  0  0  0
    4.1232    9.1955   26.6065 F   0  0  0  0  0  0  0  0  0  0  0  0
    4.1088    8.8640   28.7640 F   0  0  0  0  0  0  0  0  0  0  0  0
    5.5381   12.5983   26.8942 C   0  0  0  0  0  0  0  0  0  0  0  0
    6.2516   13.6556   26.0426 C   0  0  0  0  0  0  0  0  0  0  0  0
  2  1  1  6
  2  3  1  0
  3  4  1  0
  4  5  2  0
  4  6  1  0
  6  7  1  0
  7  8  2  0
  8  9  1  0
  9 10  2  0
 10 11  1  0
  2 12  1  0
 12 13  1  0
 13 14  1  0
 14 15  1  0
 15 16  1  0
 16 17  1  0
 17 18  1  0
 17 19  1  0
 17 20  1  0
 15 21  1  0
 21 22  1  0
 11  7  1  0
 22 12  1  0
M  END
>  <energy_score>  (86) 
-21.830645

>  <inchikey>  (86) 
LABMHLXIGILGGI-UHFFFAOYSA-N

>  <smiles>  (86) 
C[C@H](NC(=O)Cc1ccn[nH]1)C1CCN(CC(F)(F)F)CC1

>  <ref_pdb>  (86) 
A4846a

>  <alias>  (86) 
C3782-P487

>  <HIPPO Pose ID>  (86) 
391136

>  <name>  (86) 
C3782-P487

>  <HIPPO Compound ID>  (86) 
3782

>  <ref_mols>  (86) 
A0556a,A4846a

>  <distance_score>  (86) 
1.208118

>  <inspiration_score>  (86) 
None

$$$$
C3542-P195
     RDKit          3D

 14 14  0  0  0  0  0  0  0  0999 V2000
    5.9517   13.6550    6.3952 C   0  0  0  0  0  0  0  0  0  0  0  0
    5.9450   14.6629    7.9843 C   0  0  0  0  0  0  0  0  0  0  0  0
    6.9445   15.2522    6.5154 C   0  0  0  0  0  0  0  0  0  0  0  0
    6.8604   13.7191    9.4202 C   0  0  0  0  0  0  0  0  0  0  0  0
    7.6788   14.1116    9.4837 O   0  0  0  0  0  0  0  0  0  0  0  0
    6.9288   12.7466   10.0625 N   0  0  0  0  0  0  0  0  0  0  0  0
    7.3606   11.1945    8.6020 C   0  0  0  0  0  0  0  0  0  0  0  0
    8.5246   12.0592   11.3673 C   0  0  0  0  0  0  0  0  0  0  0  0
    8.4233   12.7519   13.4603 C   0  0  2  0  0  0  0  0  0  0  0  0
    8.6011   13.4773   14.8273 C   0  0  0  0  0  0  0  0  0  0  0  0
    9.4739   13.8115   16.5829 C   0  0  0  0  0  0  0  0  0  0  0  0
    8.4319   14.8853   16.8883 C   0  0  0  0  0  0  0  0  0  0  0  0
    7.2490   14.0540   16.1346 C   0  0  0  0  0  0  0  0  0  0  0  0
    8.1836   12.6012   15.3976 N   0  0  0  0  0  0  0  0  0  0  0  0
  1  2  1  0
  2  3  1  0
  2  4  1  0
  4  5  2  0
  4  6  1  0
  6  7  1  0
  6  8  1  0
  9  8  1  1
  9 10  1  0
 10 11  1  0
 11 12  1  0
 12 13  1  0
 13 14  1  0
 14  9  1  0
M  END
>  <energy_score>  (87) 
1697.138263

>  <inchikey>  (87) 
QJFOGINEWVKONT-UHFFFAOYSA-N

>  <smiles>  (87) 
CC(C)C(=O)N(C)C[C@@H]1CCCCN1

>  <ref_pdb>  (87) 
A3612a

>  <alias>  (87) 
C3542-P195

>  <HIPPO Pose ID>  (87) 
395811

>  <name>  (87) 
C3542-P195

>  <HIPPO Compound ID>  (87) 
3542

>  <ref_mols>  (87) 
A0541a,A3612a

>  <distance_score>  (87) 
6.838667

>  <inspiration_score>  (87) 
None

$$$$
C13624-P161
     RDKit          3D

 20 21  0  0  0  0  0  0  0  0999 V2000
    7.5636   14.7105   22.6838 C   0  0  0  0  0  0  0  0  0  0  0  0
    8.8638   14.0710   23.1292 C   0  0  0  0  0  0  0  0  0  0  0  0
    8.7891   13.1577   24.3995 C   0  0  2  0  0  0  0  0  0  0  0  0
   10.0785   12.2646   24.3068 C   0  0  0  0  0  0  0  0  0  0  0  0
   11.2126   12.7099   24.4287 O   0  0  0  0  0  0  0  0  0  0  0  0
    9.8387   10.9648   23.9458 N   0  0  0  0  0  0  0  0  0  0  0  0
    8.5589   10.5240   24.3310 C   0  0  0  0  0  0  0  0  0  0  0  0
    7.6165   11.6450   23.9408 C   0  0  0  0  0  0  0  0  0  0  0  0
    7.2912   12.8208   24.7678 N   0  0  0  0  0  0  0  0  0  0  0  0
    7.0512   12.9421   26.2604 C   0  0  0  0  0  0  0  0  0  0  0  0
    7.1481   12.1387   27.1147 O   0  0  0  0  0  0  0  0  0  0  0  0
    6.5149   14.3719   26.5077 C   0  0  1  0  0  0  0  0  0  0  0  0
    5.2708   14.2977   27.3899 C   0  0  0  0  0  0  0  0  0  0  0  0
    7.8329   15.3419   27.3527 S   0  0  0  0  0  0  0  0  0  0  0  0
    7.3652   17.0132   26.9440 C   0  0  0  0  0  0  0  0  0  0  0  0
    8.1601   18.0578   27.4041 C   0  0  0  0  0  0  0  0  0  0  0  0
    7.8001   19.3672   27.0927 C   0  0  0  0  0  0  0  0  0  0  0  0
    6.6597   19.5953   26.3340 C   0  0  0  0  0  0  0  0  0  0  0  0
    5.9269   18.4983   25.9163 C   0  0  0  0  0  0  0  0  0  0  0  0
    6.2574   17.2200   26.2013 N   0  0  0  0  0  0  0  0  0  0  0  0
  1  2  1  0
  3  2  1  6
  3  4  1  0
  4  5  2  0
  4  6  1  0
  6  7  1  0
  7  8  1  0
  8  9  1  0
  9 10  1  0
 10 11  2  0
 10 12  1  0
 12 13  1  1
 12 14  1  0
 14 15  1  0
 15 16  2  0
 16 17  1  0
 17 18  2  0
 18 19  1  0
 19 20  2  0
  9  3  1  0
 20 15  1  0
M  END
>  <energy_score>  (88) 
41.595573

>  <inchikey>  (88) 
VQQDPWPKTZASIO-UHFFFAOYSA-N

>  <smiles>  (88) 
CC[C@@H]1C(=O)NCCN1C(=O)[C@@H](C)Sc1ccccn1

>  <ref_pdb>  (88) 
A3229a

>  <alias>  (88) 
C13624-P161

>  <HIPPO Pose ID>  (88) 
396849

>  <name>  (88) 
C13624-P161

>  <HIPPO Compound ID>  (88) 
13624

>  <ref_mols>  (88) 
A3229a,A1778a

>  <distance_score>  (88) 
1.74791

>  <inspiration_score>  (88) 
None

$$$$
C10379-P310
     RDKit          3D

 23 26  0  0  0  0  0  0  0  0999 V2000
    9.6147    9.1823   24.5485 C   0  0  0  0  0  0  0  0  0  0  0  0
   11.1879    9.5990   24.6103 C   0  0  1  0  0  0  0  0  0  0  0  0
   12.3333    8.2043   24.6438 C   0  0  0  0  0  0  0  0  0  0  0  0
   11.7785    7.2553   24.1717 O   0  0  0  0  0  0  0  0  0  0  0  0
   14.3511    7.9070   25.0858 N   0  0  0  0  0  0  0  0  0  0  0  0
   15.5512    6.3619   24.7147 C   0  0  0  0  0  0  0  0  0  0  0  0
   16.5187    5.0988   25.7959 C   0  0  0  0  0  0  0  0  0  0  0  0
   16.7456    3.7908   25.8626 C   0  0  0  0  0  0  0  0  0  0  0  0
   16.1922    3.1040   24.8397 C   0  0  0  0  0  0  0  0  0  0  0  0
   15.5643    1.9859   24.5395 N   0  0  0  0  0  0  0  0  0  0  0  0
   15.5458    1.9717   23.1900 N   0  0  0  0  0  0  0  0  0  0  0  0
   16.6187    2.7205   22.9158 C   0  0  0  0  0  0  0  0  0  0  0  0
   17.9098    1.6896   22.8648 C   0  0  0  0  0  0  0  0  0  0  0  0
   19.3092    1.8870   22.2933 C   0  0  0  0  0  0  0  0  0  0  0  0
   19.7720    0.7976   23.2898 C   0  0  0  0  0  0  0  0  0  0  0  0
   18.6477    1.3493   24.1960 C   0  0  0  0  0  0  0  0  0  0  0  0
   16.3318    3.8430   23.7392 N   0  0  0  0  0  0  0  0  0  0  0  0
   15.8061    5.2262   23.7138 C   0  0  0  0  0  0  0  0  0  0  0  0
   11.0510   11.3101   24.2843 N   0  0  0  0  0  0  0  0  0  0  0  0
   11.9620   12.3057   24.6516 C   0  0  0  0  0  0  0  0  0  0  0  0
   11.5064   13.5213   24.1951 C   0  0  0  0  0  0  0  0  0  0  0  0
   10.2706   13.2908   23.5600 C   0  0  0  0  0  0  0  0  0  0  0  0
   10.0015   11.9407   23.6420 C   0  0  0  0  0  0  0  0  0  0  0  0
  2  1  1  6
  2  3  1  0
  3  4  2  0
  3  5  1  0
  5  6  1  0
  6  7  1  0
  7  8  2  0
  8  9  1  0
  9 10  2  0
 10 11  1  0
 11 12  2  0
 12 13  1  0
 13 14  1  0
 14 15  1  0
 15 16  1  0
 12 17  1  0
 17 18  1  0
  2 19  1  0
 19 20  1  0
 20 21  2  0
 21 22  1  0
 22 23  2  0
 18  6  2  0
 23 19  1  0
 17  9  1  0
 16 13  1  0
M  END
>  <energy_score>  (89) 
675.737153

>  <inchikey>  (89) 
SMPJALCJLUDGFU-UHFFFAOYSA-N

>  <smiles>  (89) 
C[C@@H](C(=O)Nc1ccc2nnc(C3CCC3)n2c1)n1cccc1

>  <ref_pdb>  (89) 
A4333a

>  <alias>  (89) 
C10379-P310

>  <HIPPO Pose ID>  (89) 
397379

>  <name>  (89) 
C10379-P310

>  <HIPPO Compound ID>  (89) 
10379

>  <ref_mols>  (89) 
A4333a,A1293a

>  <distance_score>  (89) 
5.419272

>  <inspiration_score>  (89) 
None

$$$$
C11248-P103
     RDKit          3D

 23 26  0  0  0  0  0  0  0  0999 V2000
   21.3420   -1.4497   18.8005 O   0  0  0  0  0  0  0  0  0  0  0  0
   20.2527   -1.5094   19.2148 C   0  0  0  0  0  0  0  0  0  0  0  0
   19.0696   -2.4294   18.8062 N   0  0  0  0  0  0  0  0  0  0  0  0
   18.9599   -3.3927   17.7454 C   0  0  0  0  0  0  0  0  0  0  0  0
   18.2980   -4.6547   18.3014 C   0  0  0  0  0  0  0  0  0  0  0  0
   16.8222   -4.9208   17.9341 C   0  0  0  0  0  0  0  0  0  0  0  0
   15.8566   -3.9099   17.9302 C   0  0  0  0  0  0  0  0  0  0  0  0
   14.5312   -4.1997   17.6004 C   0  0  0  0  0  0  0  0  0  0  0  0
   14.1723   -5.5057   17.3183 C   0  0  0  0  0  0  0  0  0  0  0  0
   15.1507   -6.4724   17.3989 C   0  0  0  0  0  0  0  0  0  0  0  0
   16.4452   -6.2075   17.6837 N   0  0  0  0  0  0  0  0  0  0  0  0
   18.7515   -5.1826   19.6695 C   0  0  0  0  0  0  0  0  0  0  0  0
   19.2280   -5.8513   18.4245 C   0  0  0  0  0  0  0  0  0  0  0  0
   19.8318   -0.6732   20.4059 C   0  0  0  0  0  0  0  0  0  0  0  0
   18.7174    0.0654   20.0653 C   0  0  0  0  0  0  0  0  0  0  0  0
   17.5002   -0.3978   20.3811 N   0  0  0  0  0  0  0  0  0  0  0  0
   17.4146   -1.5344   21.1447 N   0  0  0  0  0  0  0  0  0  0  0  0
   18.4798   -2.0233   21.8138 C   0  0  0  0  0  0  0  0  0  0  0  0
   18.3907   -3.0627   22.7402 C   0  0  0  0  0  0  0  0  0  0  0  0
   19.4877   -3.4762   23.4945 C   0  0  0  0  0  0  0  0  0  0  0  0
   20.7208   -2.8797   23.2828 C   0  0  0  0  0  0  0  0  0  0  0  0
   20.8562   -1.9238   22.2789 C   0  0  0  0  0  0  0  0  0  0  0  0
   19.7377   -1.5064   21.5331 C   0  0  0  0  0  0  0  0  0  0  0  0
  1  2  2  0
  2  3  1  0
  3  4  1  0
  4  5  1  0
  5  6  1  0
  6  7  2  0
  7  8  1  0
  8  9  2  0
  9 10  1  0
 10 11  2  0
  5 12  1  0
 12 13  1  0
  2 14  1  0
 14 15  2  0
 15 16  1  0
 16 17  2  0
 17 18  1  0
 18 19  2  0
 19 20  1  0
 20 21  2  0
 21 22  1  0
 22 23  2  0
 13  5  1  0
 23 14  1  0
 11  6  1  0
 23 18  1  0
M  END
>  <energy_score>  (90) 
32.069762

>  <inchikey>  (90) 
MNSMQPIIGGCPBJ-UHFFFAOYSA-N

>  <smiles>  (90) 
O=C(NCC1(c2ccccn2)CC1)c1cnnc2ccccc12

>  <ref_pdb>  (90) 
A1105b

>  <alias>  (90) 
C11248-P103

>  <HIPPO Pose ID>  (90) 
398262

>  <name>  (90) 
C11248-P103

>  <HIPPO Compound ID>  (90) 
11248

>  <ref_mols>  (90) 
A1293a,A1105b

>  <distance_score>  (90) 
1.391081

>  <inspiration_score>  (90) 
None

$$$$
C5989-P214
     RDKit          3D

 13 13  0  0  0  0  0  0  0  0999 V2000
   11.3660   15.6068   19.3201 C   0  0  0  0  0  0  0  0  0  0  0  0
   11.9514   15.7153   20.7211 C   0  0  0  0  0  0  0  0  0  0  0  0
   10.8605   15.9713   21.7093 C   0  0  0  0  0  0  0  0  0  0  0  0
   10.4322   15.1025   22.6390 C   0  0  0  0  0  0  0  0  0  0  0  0
   10.9906   13.7238   22.9116 C   0  0  0  0  0  0  0  0  0  0  0  0
    9.8070   12.9674   23.4884 C   0  0  0  0  0  0  0  0  0  0  0  0
    8.7007   13.8915   23.4322 N   0  0  0  0  0  0  0  0  0  0  0  0
    7.3883   13.5112   23.4555 C   0  0  0  0  0  0  0  0  0  0  0  0
    6.7765   13.2700   22.4165 O   0  0  0  0  0  0  0  0  0  0  0  0
    6.8192   13.3166   24.8536 C   0  0  2  0  0  0  0  0  0  0  0  0
    6.9099   11.8483   25.2354 C   0  0  0  0  0  0  0  0  0  0  0  0
    5.0987   13.9012   24.9379 S   0  0  0  0  0  0  0  0  0  0  0  0
    9.1221   15.2644   23.3485 C   0  0  0  0  0  0  0  0  0  0  0  0
  1  2  1  0
  2  3  1  0
  3  4  2  3
  4  5  1  0
  5  6  1  0
  6  7  1  0
  7  8  1  0
  8  9  2  0
  8 10  1  0
 10 11  1  6
 10 12  1  0
  7 13  1  0
 13  4  1  0
M  END
>  <energy_score>  (91) 
-8.237816

>  <inchikey>  (91) 
LKVJKVRJSJXYGV-UHFFFAOYSA-N

>  <smiles>  (91) 
CCC=C1CCN(C(=O)[C@H](C)S)C1

>  <ref_pdb>  (91) 
A3550a

>  <alias>  (91) 
C5989-P214

>  <HIPPO Pose ID>  (91) 
398860

>  <name>  (91) 
C5989-P214

>  <HIPPO Compound ID>  (91) 
5989

>  <ref_mols>  (91) 
A1778a,A3550a

>  <distance_score>  (91) 
1.791884

>  <inspiration_score>  (91) 
None

$$$$
C1373-P168
     RDKit          3D

 17 17  0  0  0  0  0  0  0  0999 V2000
   11.3605   14.6313   18.9600 N   0  0  0  0  0  0  0  0  0  0  0  0
   10.9182   14.9679   19.9801 C   0  0  0  0  0  0  0  0  0  0  0  0
   10.5231   15.4816   21.3336 C   0  0  0  0  0  0  0  0  0  0  0  0
   10.7748   14.7367   22.6953 N   0  0  0  0  0  0  0  0  0  0  0  0
   12.1811   14.9137   22.2399 C   0  0  0  0  0  0  0  0  0  0  0  0
   12.8843   14.1660   23.3318 C   0  0  0  0  0  0  0  0  0  0  0  0
   13.2993   13.5425   24.2212 N   0  0  0  0  0  0  0  0  0  0  0  0
    9.9331   13.5047   22.8030 C   0  0  0  0  0  0  0  0  0  0  0  0
   10.1581   12.4029   22.4788 O   0  0  0  0  0  0  0  0  0  0  0  0
    8.6579   13.8460   23.5485 C   0  0  0  0  0  0  0  0  0  0  0  0
    8.3325   12.5861   24.3699 C   0  0  0  0  0  0  0  0  0  0  0  0
    7.5217   12.7908   25.6432 C   0  0  2  0  0  0  0  0  0  0  0  0
    7.1901   11.4043   26.2264 C   0  0  0  0  0  0  0  0  0  0  0  0
    6.3523   11.5193   27.4897 C   0  0  0  0  0  0  0  0  0  0  0  0
    5.1333   12.3970   27.2390 C   0  0  0  0  0  0  0  0  0  0  0  0
    5.5227   13.7324   26.6071 C   0  0  0  0  0  0  0  0  0  0  0  0
    6.3062   13.5602   25.3852 N   0  0  0  0  0  0  0  0  0  0  0  0
  1  2  3  0
  2  3  1  0
  3  4  1  0
  4  5  1  0
  5  6  1  0
  6  7  3  0
  4  8  1  0
  8  9  2  0
  8 10  1  0
 10 11  1  0
 12 11  1  6
 12 13  1  0
 13 14  1  0
 14 15  1  0
 15 16  1  0
 16 17  1  0
 17 12  1  0
M  END
>  <energy_score>  (92) 
64.249748

>  <inchikey>  (92) 
CXXBRFZQSJIDCB-UHFFFAOYSA-N

>  <smiles>  (92) 
N#CCN(CC#N)C(=O)CC[C@@H]1CCCCN1

>  <ref_pdb>  (92) 
A3306a

>  <alias>  (92) 
C1373-P168

>  <HIPPO Pose ID>  (92) 
401691

>  <name>  (92) 
C1373-P168

>  <HIPPO Compound ID>  (92) 
1373

>  <ref_mols>  (92) 
A3306a,A4320a

>  <distance_score>  (92) 
1.32412

>  <inspiration_score>  (92) 
None

$$$$
C40319-P113
     RDKit          3D

 20 22  0  0  0  0  0  0  0  0999 V2000
    6.4888   15.5789    8.2747 O   0  0  0  0  0  0  0  0  0  0  0  0
    6.5704   14.3274    8.6292 C   0  0  0  0  0  0  0  0  0  0  0  0
    6.3888   13.4971   10.4984 N   0  0  0  0  0  0  0  0  0  0  0  0
    5.8896   14.2185   12.3300 C   0  0  0  0  0  0  0  0  0  0  0  0
    5.1252   14.1610   14.2926 C   0  0  0  0  0  0  0  0  0  0  0  0
    4.3206   13.1612   15.8647 C   0  0  0  0  0  0  0  0  0  0  0  0
    5.1309   12.5633   16.9303 N   0  0  0  0  0  0  0  0  0  0  0  0
    4.4708   12.1047   17.9552 C   0  0  0  0  0  0  0  0  0  0  0  0
    3.1830   12.1571   17.7207 N   0  0  0  0  0  0  0  0  0  0  0  0
    3.0078   12.9302   16.6202 C   0  0  0  0  0  0  0  0  0  0  0  0
    1.0605   13.2236   16.6400 Br  0  0  0  0  0  0  0  0  0  0  0  0
    6.7393   13.3049    7.0315 C   0  0  0  0  0  0  0  0  0  0  0  0
    7.0585   12.1033    6.4250 C   0  0  0  0  0  0  0  0  0  0  0  0
    7.3559   11.8443    5.0493 C   0  0  0  0  0  0  0  0  0  0  0  0
    7.3197   12.8631    4.1507 C   0  0  0  0  0  0  0  0  0  0  0  0
    7.0266   14.1144    4.6101 C   0  0  0  0  0  0  0  0  0  0  0  0
    6.7895   14.3242    5.9775 C   0  0  0  0  0  0  0  0  0  0  0  0
    7.1486   15.1069    3.6070 N   0  0  0  0  0  0  0  0  0  0  0  0
    7.1165   14.3079    2.3607 C   0  0  0  0  0  0  0  0  0  0  0  0
    7.6125   12.8897    2.6968 C   0  0  0  0  0  0  0  0  0  0  0  0
  1  2  2  0
  2  3  1  0
  3  4  1  0
  4  5  1  0
  5  6  1  0
  6  7  1  0
  7  8  2  0
  8  9  1  0
  9 10  1  0
 10 11  1  0
  2 12  1  0
 12 13  2  0
 13 14  1  0
 14 15  2  0
 15 16  1  0
 16 17  2  0
 16 18  1  0
 18 19  1  0
 19 20  1  0
 10  6  2  0
 17 12  1  0
 20 15  1  0
M  END
>  <energy_score>  (93) 
625.405813

>  <inchikey>  (93) 
LOVBZBXURATYJV-UHFFFAOYSA-N

>  <smiles>  (93) 
O=C(NCCc1nc[nH]c1Br)c1ccc2c(c1)NCC2

>  <ref_pdb>  (93) 
A1180a

>  <alias>  (93) 
C40319-P113

>  <HIPPO Pose ID>  (93) 
403450

>  <name>  (93) 
C40319-P113

>  <HIPPO Compound ID>  (93) 
40319

>  <ref_mols>  (93) 
A1180a,A0586a

>  <distance_score>  (93) 
3.574119

>  <inspiration_score>  (93) 
None

$$$$
C1603-P183
     RDKit          3D

 14 14  0  0  0  0  0  0  0  0999 V2000
   11.3192   14.9296   18.6869 C   0  0  0  0  0  0  0  0  0  0  0  0
   10.3704   15.3562   19.7830 C   0  0  0  0  0  0  0  0  0  0  0  0
   10.7919   14.7678   21.1202 C   0  0  0  0  0  0  0  0  0  0  0  0
    9.7585   15.0541   22.2049 C   0  0  0  0  0  0  0  0  0  0  0  0
    9.1981   13.8247   22.8542 N   0  0  0  0  0  0  0  0  0  0  0  0
    7.9616   14.2357   22.0636 C   0  0  0  0  0  0  0  0  0  0  0  0
    6.9092   15.1761   22.6837 C   0  0  0  0  0  0  0  0  0  0  0  0
    8.8489   13.5661   24.2089 C   0  0  0  0  0  0  0  0  0  0  0  0
    8.8291   14.2970   25.1642 O   0  0  0  0  0  0  0  0  0  0  0  0
    8.5767   12.1523   24.3885 C   0  0  0  0  0  0  0  0  0  0  0  0
    7.7906   11.4772   25.2937 C   0  0  0  0  0  0  0  0  0  0  0  0
    7.9322   10.1217   25.1316 N   0  0  0  0  0  0  0  0  0  0  0  0
    8.7910   10.0200   24.1381 C   0  0  0  0  0  0  0  0  0  0  0  0
    9.2110   11.2055   23.6186 O   0  0  0  0  0  0  0  0  0  0  0  0
  1  2  1  0
  2  3  1  0
  3  4  1  0
  4  5  1  0
  5  6  1  0
  6  7  1  0
  5  8  1  0
  8  9  2  0
  8 10  1  0
 10 11  2  0
 11 12  1  0
 12 13  2  0
 13 14  1  0
 14 10  1  0
M  END
>  <energy_score>  (94) 
61.360352

>  <inchikey>  (94) 
JUPJJMLQZFQJGQ-UHFFFAOYSA-N

>  <smiles>  (94) 
CCCCN(CC)C(=O)c1cnco1

>  <ref_pdb>  (94) 
A3436a

>  <alias>  (94) 
C1603-P183

>  <HIPPO Pose ID>  (94) 
407074

>  <name>  (94) 
C1603-P183

>  <HIPPO Compound ID>  (94) 
1603

>  <ref_mols>  (94) 
A3623a,A3436a

>  <distance_score>  (94) 
1.474991

>  <inspiration_score>  (94) 
None

$$$$
C31867-P115
     RDKit          3D

 21 22  0  0  0  0  0  0  0  0999 V2000
    4.4194   12.2030   26.7943 O   0  0  0  0  0  0  0  0  0  0  0  0
    5.4988   11.7813   26.4048 C   0  0  0  0  0  0  0  0  0  0  0  0
    5.9803   10.3854   26.7054 C   0  0  0  0  0  0  0  0  0  0  0  0
    6.6980    9.6939   25.5604 C   0  0  0  0  0  0  0  0  0  0  0  0
    7.6983   10.4574   24.6999 C   0  0  0  0  0  0  0  0  0  0  0  0
    8.5342   11.4384   25.4692 C   0  0  1  0  0  0  0  0  0  0  0  0
    9.6448   12.0998   24.8213 O   0  0  0  0  0  0  0  0  0  0  0  0
   10.1233   11.7879   23.5964 C   0  0  0  0  0  0  0  0  0  0  0  0
    9.7498   10.8859   22.8742 O   0  0  0  0  0  0  0  0  0  0  0  0
   11.1447   12.8199   23.2107 C   0  0  0  0  0  0  0  0  0  0  0  0
   10.4946   14.1634   22.9256 C   0  0  2  0  0  0  0  0  0  0  0  0
    8.9656   14.1898   23.0953 C   0  0  0  0  0  0  0  0  0  0  0  0
    8.3659   15.1640   22.3886 F   0  0  0  0  0  0  0  0  0  0  0  0
    8.7055   14.4867   24.3931 F   0  0  0  0  0  0  0  0  0  0  0  0
   10.8302   14.6763   21.6068 N   0  0  0  0  0  0  0  0  0  0  0  0
   11.0777   15.9821   21.3899 C   0  0  0  0  0  0  0  0  0  0  0  0
   10.0583   16.3723   20.5450 C   0  0  0  0  0  0  0  0  0  0  0  0
    9.5889   15.3047   19.8817 N   0  0  0  0  0  0  0  0  0  0  0  0
   10.1460   14.3034   20.4993 C   0  0  0  0  0  0  0  0  0  0  0  0
    7.7307   12.5294   26.1834 C   0  0  0  0  0  0  0  0  0  0  0  0
    6.3731   12.6306   25.7988 N   0  0  0  0  0  0  0  0  0  0  0  0
  1  2  2  0
  2  3  1  0
  3  4  1  0
  4  5  1  0
  5  6  1  0
  6  7  1  6
  7  8  1  0
  8  9  2  0
  8 10  1  0
 11 10  1  6
 11 12  1  0
 12 13  1  0
 12 14  1  0
 11 15  1  0
 15 16  1  0
 16 17  2  0
 17 18  1  0
 18 19  2  0
  6 20  1  0
 20 21  1  0
 21  2  1  0
 19 15  1  0
M  END
>  <energy_score>  (95) 
13.72863

>  <inchikey>  (95) 
AXBDGHXHJVZBTL-UHFFFAOYSA-N

>  <smiles>  (95) 
O=C1CCC[C@@H](OC(=O)C[C@H](C(F)F)n2ccnc2)CN1

>  <ref_pdb>  (95) 
A1209a

>  <alias>  (95) 
C31867-P115

>  <HIPPO Pose ID>  (95) 
407398

>  <name>  (95) 
C31867-P115

>  <HIPPO Compound ID>  (95) 
31867

>  <ref_mols>  (95) 
A4029a,A1209a

>  <distance_score>  (95) 
2.068528

>  <inspiration_score>  (95) 
None

$$$$
C21294-P9
     RDKit          3D

 23 26  0  0  0  0  0  0  0  0999 V2000
   19.1623    7.6514    9.7178 O   0  0  0  0  0  0  0  0  0  0  0  0
   18.5734    8.4103   10.4923 C   0  0  0  0  0  0  0  0  0  0  0  0
   17.8025    7.9404   11.9860 N   0  0  0  0  0  0  0  0  0  0  0  0
   17.7638    6.5812   12.7270 C   0  0  0  0  0  0  0  0  0  0  0  0
   18.9279    6.2824   14.0865 C   0  0  0  0  0  0  0  0  0  0  0  0
   19.3858    7.4563   14.4327 N   0  0  0  0  0  0  0  0  0  0  0  0
   19.6414    7.5763   15.7323 N   0  0  0  0  0  0  0  0  0  0  0  0
   19.4452    6.4515   16.3151 C   0  0  0  0  0  0  0  0  0  0  0  0
   18.9828    6.3399   17.5803 C   0  0  0  0  0  0  0  0  0  0  0  0
   18.8194    5.1237   18.0442 C   0  0  0  0  0  0  0  0  0  0  0  0
   19.0884    3.8814   17.4539 C   0  0  0  0  0  0  0  0  0  0  0  0
   19.2877    2.3921   18.3675 Cl  0  0  0  0  0  0  0  0  0  0  0  0
   19.3971    4.0395   16.1797 C   0  0  0  0  0  0  0  0  0  0  0  0
   19.3115    5.4268   15.4293 N   0  0  0  0  0  0  0  0  0  0  0  0
   18.7205    9.7282   10.0655 C   0  0  0  0  0  0  0  0  0  0  0  0
   19.9772   10.1732   10.2351 N   0  0  0  0  0  0  0  0  0  0  0  0
   20.6203    8.9757    8.6667 S   0  0  0  0  0  0  0  0  0  0  0  0
   19.9227   10.3091    7.9939 C   0  0  0  0  0  0  0  0  0  0  0  0
   20.1169   10.8736    6.7143 C   0  0  0  0  0  0  0  0  0  0  0  0
   19.0394   11.7239    6.2437 C   0  0  0  0  0  0  0  0  0  0  0  0
   17.3558   11.5607    6.9535 C   0  0  0  0  0  0  0  0  0  0  0  0
   17.1420   10.8680    8.0754 C   0  0  0  0  0  0  0  0  0  0  0  0
   18.5282   10.2279    8.7734 C   0  0  0  0  0  0  0  0  0  0  0  0
  1  2  2  0
  2  3  1  0
  3  4  1  0
  4  5  1  0
  5  6  2  0
  6  7  1  0
  7  8  2  0
  8  9  1  0
  9 10  2  0
 10 11  1  0
 11 12  1  0
 11 13  2  0
 13 14  1  0
  2 15  1  0
 15 16  2  0
 16 17  1  0
 17 18  1  0
 18 19  2  0
 19 20  1  0
 20 21  2  0
 21 22  1  0
 22 23  2  0
 14  5  1  0
 23 15  1  0
 14  8  1  0
 23 18  1  0
M  END
>  <energy_score>  (96) 
421.972042

>  <inchikey>  (96) 
CMPQDCDZMSGOBB-UHFFFAOYSA-N

>  <smiles>  (96) 
O=C(NCc1nnc2ccc(Cl)cn12)c1nsc2ccccc12

>  <ref_pdb>  (96) 
A0486a

>  <alias>  (96) 
C21294-P9

>  <HIPPO Pose ID>  (96) 
409402

>  <name>  (96) 
C21294-P9

>  <HIPPO Compound ID>  (96) 
21294

>  <ref_mols>  (96) 
A0486a,A1293a

>  <distance_score>  (96) 
8.966016

>  <inspiration_score>  (96) 
None

$$$$
C9987-P363
     RDKit          3D

 23 24  0  0  0  0  0  0  0  0999 V2000
    6.1923   14.2295   23.3525 C   0  0  0  0  0  0  0  0  0  0  0  0
    6.2295   14.0322   24.8646 C   0  0  2  0  0  0  0  0  0  0  0  0
    6.3978   12.5390   25.1987 C   0  0  0  0  0  0  0  0  0  0  0  0
    5.4948   11.8948   25.6573 O   0  0  0  0  0  0  0  0  0  0  0  0
    7.7462   12.1771   24.9276 N   0  0  0  0  0  0  0  0  0  0  0  0
    8.6024   12.4708   26.1151 C   0  0  0  0  0  0  0  0  0  0  0  0
    9.9989   12.9610   25.8067 C   0  0  0  0  0  0  0  0  0  0  0  0
   10.7373   11.9469   24.9706 C   0  0  0  0  0  0  0  0  0  0  0  0
   11.2461   12.5770   23.8095 O   0  0  0  0  0  0  0  0  0  0  0  0
   10.2686   12.8112   22.8027 C   0  0  0  0  0  0  0  0  0  0  0  0
   10.7227   13.9762   21.9836 C   0  0  0  0  0  0  0  0  0  0  0  0
   10.7907   15.1970   22.8945 C   0  0  0  0  0  0  0  0  0  0  0  0
   11.1816   16.4061   22.1998 N   0  0  0  0  0  0  0  0  0  0  0  0
   10.1559   16.8376   21.2532 C   0  0  0  0  0  0  0  0  0  0  0  0
   12.4919   16.2230   21.5957 C   0  0  0  0  0  0  0  0  0  0  0  0
    9.9175   10.7088   24.6611 C   0  0  0  0  0  0  0  0  0  0  0  0
    8.4423   10.8513   25.0215 C   0  0  0  0  0  0  0  0  0  0  0  0
    4.9880   14.6061   25.5765 C   0  0  2  0  0  0  0  0  0  0  0  0
    5.0517   16.1261   25.7178 C   0  0  0  0  0  0  0  0  0  0  0  0
    5.8531   16.3489   27.0051 C   0  0  0  0  0  0  0  0  0  0  0  0
    5.5830   15.0940   27.7948 C   0  0  0  0  0  0  0  0  0  0  0  0
    5.9318   14.8642   28.9386 O   0  0  0  0  0  0  0  0  0  0  0  0
    4.9292   14.2114   26.9672 N   0  0  0  0  0  0  0  0  0  0  0  0
  2  1  1  6
  2  3  1  0
  3  4  2  0
  3  5  1  0
  5  6  1  0
  6  7  1  0
  7  8  1  0
  8  9  1  0
  9 10  1  0
 10 11  1  0
 11 12  1  0
 12 13  1  0
 13 14  1  0
 13 15  1  0
  8 16  1  0
 16 17  1  0
  2 18  1  0
 18 19  1  1
 19 20  1  0
 20 21  1  0
 21 22  2  0
 21 23  1  0
 17  5  1  0
 23 18  1  0
M  END
>  <energy_score>  (97) 
24.550087

>  <inchikey>  (97) 
HKHPLIVHPWOBNI-UHFFFAOYSA-N

>  <smiles>  (97) 
C[C@H](C(=O)N1CCC(OCCCN(C)C)CC1)[C@@H]1CCC(=O)N1

>  <ref_pdb>  (97) 
A4445a

>  <alias>  (97) 
C9987-P363

>  <HIPPO Pose ID>  (97) 
410294

>  <name>  (97) 
C9987-P363

>  <HIPPO Compound ID>  (97) 
9987

>  <ref_mols>  (97) 
A4445a,A0528a

>  <distance_score>  (97) 
2.663834

>  <inspiration_score>  (97) 
None

$$$$
C22847-P54
     RDKit          3D

 20 22  0  0  0  0  0  0  0  0999 V2000
   10.7208    5.9928    6.7496 O   0  0  0  0  0  0  0  0  0  0  0  0
   11.7834    5.4209    6.5068 C   0  0  0  0  0  0  0  0  0  0  0  0
   12.5520    5.7146    5.2561 C   0  0  0  0  0  0  0  0  0  0  0  0
   13.1462    4.2038    4.4370 S   0  0  0  0  0  0  0  0  0  0  0  0
   13.7237    3.2305    5.9024 C   0  0  0  0  0  0  0  0  0  0  0  0
   13.7679    4.0047    7.2682 C   0  0  2  0  0  0  0  0  0  0  0  0
   14.3572    2.8288    8.4538 C   0  0  0  0  0  0  0  0  0  0  0  0
   14.3425    1.7545    7.9818 O   0  0  0  0  0  0  0  0  0  0  0  0
   14.7635    3.4135   10.2255 N   0  0  0  0  0  0  0  0  0  0  0  0
   15.1342    2.4942   11.8007 C   0  0  0  0  0  0  0  0  0  0  0  0
   15.8704    2.4919   13.2515 C   0  0  0  0  0  0  0  0  0  0  0  0
   15.7258    1.4151   14.2483 N   0  0  0  0  0  0  0  0  0  0  0  0
   14.5398    0.3522   13.8972 N   0  0  0  0  0  0  0  0  0  0  0  0
   14.2875   -1.5799   14.6920 C   0  0  0  0  0  0  0  0  0  0  0  0
   13.1288   -2.5242   15.8865 C   0  0  0  0  0  0  0  0  0  0  0  0
   13.3921   -3.4191   17.1923 C   0  0  0  0  0  0  0  0  0  0  0  0
   14.4384   -4.2406   16.6415 C   0  0  0  0  0  0  0  0  0  0  0  0
   15.0390   -3.0269   15.9771 C   0  0  0  0  0  0  0  0  0  0  0  0
   14.6265    0.9241   12.5052 C   0  0  0  0  0  0  0  0  0  0  0  0
   12.3736    4.5260    7.3721 N   0  0  0  0  0  0  0  0  0  0  0  0
  1  2  2  0
  2  3  1  0
  3  4  1  0
  4  5  1  0
  5  6  1  0
  6  7  1  1
  7  8  2  0
  7  9  1  0
  9 10  1  0
 10 11  1  0
 11 12  2  0
 12 13  1  0
 13 14  1  0
 14 15  1  0
 15 16  1  0
 16 17  1  0
 17 18  1  0
 13 19  1  0
  6 20  1  0
 20  2  1  0
 19 10  2  0
 18 14  1  0
M  END
>  <energy_score>  (98) 
820.476719

>  <inchikey>  (98) 
HEZOJSXHYOLCRB-UHFFFAOYSA-N

>  <smiles>  (98) 
O=C1CSC[C@H](C(=O)Nc2cnn(C3CCCC3)c2)N1

>  <ref_pdb>  (98) 
A0341a

>  <alias>  (98) 
C22847-P54

>  <HIPPO Pose ID>  (98) 
411246

>  <name>  (98) 
C22847-P54

>  <HIPPO Compound ID>  (98) 
22847

>  <ref_mols>  (98) 
A0717a,A0341a

>  <distance_score>  (98) 
9.11193

>  <inspiration_score>  (98) 
None

$$$$
C15735-P103
     RDKit          3D

 21 23  0  0  0  0  0  0  0  0999 V2000
   20.8690    0.0727   19.3934 O   0  0  0  0  0  0  0  0  0  0  0  0
   20.8152   -1.0826   19.5496 C   0  0  0  0  0  0  0  0  0  0  0  0
   21.2026   -2.0901   18.4594 C   0  0  0  0  0  0  0  0  0  0  0  0
   20.0815   -2.6550   17.7941 O   0  0  0  0  0  0  0  0  0  0  0  0
   19.4578   -3.6886   18.4509 C   0  0  0  0  0  0  0  0  0  0  0  0
   18.2353   -4.0957   17.9468 C   0  0  0  0  0  0  0  0  0  0  0  0
   17.6110   -5.1953   18.5244 C   0  0  0  0  0  0  0  0  0  0  0  0
   18.2246   -5.8240   19.5964 C   0  0  0  0  0  0  0  0  0  0  0  0
   17.6644   -6.8934   20.1746 F   0  0  0  0  0  0  0  0  0  0  0  0
   19.4240   -5.3284   20.0679 C   0  0  0  0  0  0  0  0  0  0  0  0
   20.0610   -4.2647   19.5230 N   0  0  0  0  0  0  0  0  0  0  0  0
   20.3284   -1.9105   20.7672 N   0  0  0  0  0  0  0  0  0  0  0  0
   19.9258   -1.5134   21.9904 C   0  0  0  0  0  0  0  0  0  0  0  0
   19.6436   -2.3312   23.0552 C   0  0  0  0  0  0  0  0  0  0  0  0
   19.5189   -1.4594   24.1036 N   0  0  0  0  0  0  0  0  0  0  0  0
   19.4604   -1.7041   25.4679 C   0  0  0  0  0  0  0  0  0  0  0  0
   19.4101   -0.6619   26.3106 C   0  0  0  0  0  0  0  0  0  0  0  0
   19.3704    0.6842   25.6634 C   0  0  0  0  0  0  0  0  0  0  0  0
   19.4192    0.9212   24.3935 N   0  0  0  0  0  0  0  0  0  0  0  0
   19.5457   -0.1646   23.5846 C   0  0  0  0  0  0  0  0  0  0  0  0
   19.7926   -0.2046   22.3001 N   0  0  0  0  0  0  0  0  0  0  0  0
  1  2  2  0
  2  3  1  0
  3  4  1  0
  4  5  1  0
  5  6  2  0
  6  7  1  0
  7  8  2  0
  8  9  1  0
  8 10  1  0
 10 11  2  0
  2 12  1  0
 12 13  1  0
 13 14  2  0
 14 15  1  0
 15 16  1  0
 16 17  2  0
 17 18  1  0
 18 19  2  0
 19 20  1  0
 20 21  2  0
 11  5  1  0
 21 13  1  0
 20 15  1  0
M  END
>  <energy_score>  (99) 
-36.272992

>  <inchikey>  (99) 
HKBOHEFNHSZPBN-UHFFFAOYSA-N

>  <smiles>  (99) 
O=C(COc1ccc(F)cn1)Nc1cn2cccnc2n1

>  <ref_pdb>  (99) 
A1105b

>  <alias>  (99) 
C15735-P103

>  <HIPPO Pose ID>  (99) 
411746

>  <name>  (99) 
C15735-P103

>  <HIPPO Compound ID>  (99) 
15735

>  <ref_mols>  (99) 
A0202a,A1105b

>  <distance_score>  (99) 
1.835996

>  <inspiration_score>  (99) 
None

$$$$
C13636-P494
     RDKit          3D

 20 21  0  0  0  0  0  0  0  0999 V2000
   11.0461   14.7005   18.5591 C   0  0  0  0  0  0  0  0  0  0  0  0
    9.9011   15.2293   19.1972 O   0  0  0  0  0  0  0  0  0  0  0  0
   10.2704   15.9767   20.3367 C   0  0  0  0  0  0  0  0  0  0  0  0
   10.0914   15.1641   21.6231 C   0  0  2  0  0  0  0  0  0  0  0  0
    8.5666   14.9919   21.9660 C   0  0  0  0  0  0  0  0  0  0  0  0
    8.1173   14.5451   23.3709 N   0  0  0  0  0  0  0  0  0  0  0  0
    6.7213   14.3958   23.9653 C   0  0  0  0  0  0  0  0  0  0  0  0
    5.6675   14.6642   23.5121 O   0  0  0  0  0  0  0  0  0  0  0  0
    6.8923   13.8906   25.4278 C   0  0  1  0  0  0  0  0  0  0  0  0
    5.8474   14.5718   26.2967 C   0  0  0  0  0  0  0  0  0  0  0  0
    6.6433   12.1054   25.6728 S   0  0  0  0  0  0  0  0  0  0  0  0
    8.1416   11.4757   25.0133 C   0  0  0  0  0  0  0  0  0  0  0  0
    8.1900   10.1449   24.6708 C   0  0  0  0  0  0  0  0  0  0  0  0
    9.0369    9.8068   23.6452 C   0  0  0  0  0  0  0  0  0  0  0  0
    9.7609   10.8053   23.0479 C   0  0  0  0  0  0  0  0  0  0  0  0
    9.8821   12.0187   23.6622 C   0  0  0  0  0  0  0  0  0  0  0  0
    9.1018   12.3565   24.6882 N   0  0  0  0  0  0  0  0  0  0  0  0
    8.7087   15.8787   23.7056 C   0  0  0  0  0  0  0  0  0  0  0  0
   10.2276   15.7648   23.8729 C   0  0  0  0  0  0  0  0  0  0  0  0
   10.8405   15.8789   22.6120 O   0  0  0  0  0  0  0  0  0  0  0  0
  1  2  1  0
  2  3  1  0
  4  3  1  6
  4  5  1  0
  5  6  1  0
  6  7  1  0
  7  8  2  0
  7  9  1  0
  9 10  1  1
  9 11  1  0
 11 12  1  0
 12 13  2  0
 13 14  1  0
 14 15  2  0
 15 16  1  0
 16 17  2  0
  6 18  1  0
 18 19  1  0
 19 20  1  0
 20  4  1  0
 17 12  1  0
M  END
>  <energy_score>  (100) 
43.28598

>  <inchikey>  (100) 
FWQCOBCAMKWENG-UHFFFAOYSA-N

>  <smiles>  (100) 
COC[C@@H]1CN(C(=O)[C@@H](C)Sc2ccccn2)CCO1

>  <ref_pdb>  (100) 
A4874a

>  <alias>  (100) 
C13636-P494

>  <HIPPO Pose ID>  (100) 
413601

>  <name>  (100) 
C13636-P494

>  <HIPPO Compound ID>  (100) 
13636

>  <ref_mols>  (100) 
A1776a,A4874a

>  <distance_score>  (100) 
1.486389

>  <inspiration_score>  (100) 
None

$$$$
C4708-P437
     RDKit          3D

 10 10  0  0  0  0  0  0  0  0999 V2000
   11.9771   13.3995   24.6484 C   0  0  0  0  0  0  0  0  0  0  0  0
   11.0654   13.9255   23.8265 C   0  0  0  0  0  0  0  0  0  0  0  0
   11.1895   14.2641   22.4026 C   0  0  0  0  0  0  0  0  0  0  0  0
    9.6922   14.1947   22.1359 C   0  0  0  0  0  0  0  0  0  0  0  0
    8.9848   13.1682   23.0070 N   0  0  0  0  0  0  0  0  0  0  0  0
    7.5191   12.9512   23.2737 C   0  0  0  0  0  0  0  0  0  0  0  0
    6.5844   13.5751   22.9331 O   0  0  0  0  0  0  0  0  0  0  0  0
    7.4008   11.7507   24.2247 C   0  0  0  0  0  0  0  0  0  0  0  0
    8.4548   10.6617   24.0879 C   0  0  0  0  0  0  0  0  0  0  0  0
    9.6078   14.0149   24.0662 C   0  0  0  0  0  0  0  0  0  0  0  0
  1  2  2  0
  2  3  1  0
  3  4  1  0
  4  5  1  0
  5  6  1  0
  6  7  2  0
  6  8  1  0
  8  9  1  0
  5 10  1  0
 10  2  1  0
M  END
>  <energy_score>  (101) 
59.091503

>  <inchikey>  (101) 
PVLLXQIBFQPCGC-UHFFFAOYSA-N

>  <smiles>  (101) 
C=C1CCN(C(=O)CC)C1

>  <ref_pdb>  (101) 
A4701a

>  <alias>  (101) 
C4708-P437

>  <HIPPO Pose ID>  (101) 
415458

>  <name>  (101) 
C4708-P437

>  <HIPPO Compound ID>  (101) 
4708

>  <ref_mols>  (101) 
A1775a,A4701a

>  <distance_score>  (101) 
1.629208

>  <inspiration_score>  (101) 
None

$$$$
C12411-P219
     RDKit          3D

 22 25  0  0  0  0  0  0  0  0999 V2000
   14.1414   17.8394   19.8101 C   0  0  0  0  0  0  0  0  0  0  0  0
   14.5566   17.7051   21.1293 C   0  0  0  0  0  0  0  0  0  0  0  0
   13.9830   16.7218   21.9066 C   0  0  0  0  0  0  0  0  0  0  0  0
   12.9969   15.9337   21.3349 C   0  0  0  0  0  0  0  0  0  0  0  0
   12.3746   14.8877   22.1172 C   0  0  0  0  0  0  0  0  0  0  0  0
   12.9238   14.2307   23.1266 N   0  0  0  0  0  0  0  0  0  0  0  0
   12.1165   13.2004   23.5566 N   0  0  0  0  0  0  0  0  0  0  0  0
   10.9986   13.1669   22.8672 C   0  0  0  0  0  0  0  0  0  0  0  0
   10.1228   12.1510   22.8471 N   0  0  0  0  0  0  0  0  0  0  0  0
    9.3768   11.8987   24.0645 C   0  0  2  0  0  0  0  0  0  0  0  0
    8.9912   10.4351   24.0016 C   0  0  0  0  0  0  0  0  0  0  0  0
    8.0617   10.0452   25.1122 C   0  0  0  0  0  0  0  0  0  0  0  0
    7.1726   11.0629   25.7114 C   0  0  0  0  0  0  0  0  0  0  0  0
    6.3315   10.7189   26.7890 C   0  0  0  0  0  0  0  0  0  0  0  0
    5.4044   11.6159   27.2840 C   0  0  0  0  0  0  0  0  0  0  0  0
    5.2393   12.8013   26.6015 C   0  0  0  0  0  0  0  0  0  0  0  0
    6.1041   13.1328   25.5519 C   0  0  0  0  0  0  0  0  0  0  0  0
    7.1613   12.3338   25.1846 C   0  0  0  0  0  0  0  0  0  0  0  0
    8.1378   12.7993   24.1451 C   0  0  0  0  0  0  0  0  0  0  0  0
   10.7598   14.4584   21.7934 S   0  0  0  0  0  0  0  0  0  0  0  0
   12.5580   16.0703   20.0561 N   0  0  0  0  0  0  0  0  0  0  0  0
   13.1558   17.0066   19.3076 C   0  0  0  0  0  0  0  0  0  0  0  0
  1  2  2  0
  2  3  1  0
  3  4  2  0
  4  5  1  0
  5  6  2  0
  6  7  1  0
  7  8  2  0
  8  9  1  0
 10  9  1  6
 10 11  1  0
 11 12  1  0
 12 13  1  0
 13 14  2  0
 14 15  1  0
 15 16  2  0
 16 17  1  0
 17 18  2  0
 18 19  1  0
  8 20  1  0
  4 21  1  0
 21 22  2  0
 22  1  1  0
 20  5  1  0
 19 10  1  0
 18 13  1  0
M  END
>  <energy_score>  (102) 
-46.46158

>  <inchikey>  (102) 
RNASEUDRLKPVFP-UHFFFAOYSA-N

>  <smiles>  (102) 
c1ccc(-c2nnc(N[C@@H]3CCc4ccccc4C3)s2)nc1

>  <ref_pdb>  (102) 
A3564a

>  <alias>  (102) 
C12411-P219

>  <HIPPO Pose ID>  (102) 
416044

>  <name>  (102) 
C12411-P219

>  <HIPPO Compound ID>  (102) 
12411

>  <ref_mols>  (102) 
A3564a,A1778a

>  <distance_score>  (102) 
1.609254

>  <inspiration_score>  (102) 
None

$$$$
C22220-P145
     RDKit          3D

 20 22  0  0  0  0  0  0  0  0999 V2000
   16.4414   20.2673   19.5631 C   0  0  0  0  0  0  0  0  0  0  0  0
   16.6097   18.8668   20.7933 C   0  0  2  0  0  0  0  0  0  0  0  0
   17.3317   20.4517   21.6704 C   0  0  0  0  0  0  0  0  0  0  0  0
   16.9322   21.7564   22.3584 C   0  0  0  0  0  0  0  0  0  0  0  0
   17.6538   20.7045   23.1417 C   0  0  0  0  0  0  0  0  0  0  0  0
   17.7444   18.6795   20.1040 N   0  0  0  0  0  0  0  0  0  0  0  0
   19.2623   18.8891   20.7835 C   0  0  0  0  0  0  0  0  0  0  0  0
   19.6095   19.0829   21.8808 O   0  0  0  0  0  0  0  0  0  0  0  0
   20.3920   18.9485   19.8247 C   0  0  0  0  0  0  0  0  0  0  0  0
   21.6312   18.6469   20.3966 C   0  0  0  0  0  0  0  0  0  0  0  0
   22.7259   19.4439   20.2526 N   0  0  0  0  0  0  0  0  0  0  0  0
   22.5302   20.5722   19.5301 C   0  0  0  0  0  0  0  0  0  0  0  0
   21.3287   20.8434   18.8965 C   0  0  0  0  0  0  0  0  0  0  0  0
   20.2484   20.0252   18.9883 N   0  0  0  0  0  0  0  0  0  0  0  0
   15.9245   18.4781   20.8347 C   0  0  0  0  0  0  0  0  0  0  0  0
   14.5949   18.0525   20.6316 C   0  0  0  0  0  0  0  0  0  0  0  0
   13.0562   17.0320   21.1149 C   0  0  0  0  0  0  0  0  0  0  0  0
   12.6497   16.2070   22.0691 C   0  0  0  0  0  0  0  0  0  0  0  0
   13.8954   15.9773   22.3027 C   0  0  0  0  0  0  0  0  0  0  0  0
   15.0998   17.0391   21.6410 C   0  0  0  0  0  0  0  0  0  0  0  0
  2  1  1  6
  2  3  1  0
  3  4  1  0
  4  5  1  0
  2  6  1  0
  6  7  1  0
  7  8  2  0
  7  9  1  0
  9 10  2  0
 10 11  1  0
 11 12  2  0
 12 13  1  0
 13 14  2  0
  6 15  1  0
 15 16  2  0
 16 17  1  0
 17 18  2  0
 18 19  1  0
 19 20  2  0
  5  3  1  0
 14  9  1  0
 20 15  1  0
M  END
>  <energy_score>  (103) 
1285.316972

>  <inchikey>  (103) 
HRTCCWDKVTTZHK-UHFFFAOYSA-N

>  <smiles>  (103) 
C[C@H](C1CC1)N(C(=O)c1cnccn1)c1ccccc1

>  <ref_pdb>  (103) 
A3181b

>  <alias>  (103) 
C22220-P145

>  <HIPPO Pose ID>  (103) 
422808

>  <name>  (103) 
C22220-P145

>  <HIPPO Compound ID>  (103) 
22220

>  <ref_mols>  (103) 
A3181b,A1068a

>  <distance_score>  (103) 
5.251534

>  <inspiration_score>  (103) 
None

$$$$
C32415-P95
     RDKit          3D

 22 24  0  0  0  0  0  0  0  0999 V2000
   23.3247   19.3559   24.4987 C   0  0  0  0  0  0  0  0  0  0  0  0
   24.1986   20.2742   23.6613 C   0  0  0  0  0  0  0  0  0  0  0  0
   23.4647   21.4116   22.9893 C   0  0  0  0  0  0  0  0  0  0  0  0
   22.6465   20.9449   21.8622 C   0  0  0  0  0  0  0  0  0  0  0  0
   23.0184   21.2321   20.6068 N   0  0  0  0  0  0  0  0  0  0  0  0
   22.0243   20.7334   19.8681 N   0  0  0  0  0  0  0  0  0  0  0  0
   21.0345   20.1618   20.6213 C   0  0  0  0  0  0  0  0  0  0  0  0
   19.7814   19.6797   20.3027 C   0  0  0  0  0  0  0  0  0  0  0  0
   18.9380   19.2256   21.3840 C   0  0  0  0  0  0  0  0  0  0  0  0
   19.2972   19.0786   22.7312 C   0  0  0  0  0  0  0  0  0  0  0  0
   18.2325   18.8128   23.9496 C   0  0  0  0  0  0  0  0  0  0  0  0
   18.0662   19.8110   24.5671 O   0  0  0  0  0  0  0  0  0  0  0  0
   17.6289   17.3320   24.1786 N   0  0  0  0  0  0  0  0  0  0  0  0
   16.7173   16.7554   25.3632 C   0  0  0  0  0  0  0  0  0  0  0  0
   15.5912   15.5511   25.4300 C   0  0  0  0  0  0  0  0  0  0  0  0
   15.8994   14.1949   25.4172 C   0  0  0  0  0  0  0  0  0  0  0  0
   14.9037   13.2138   25.4681 C   0  0  0  0  0  0  0  0  0  0  0  0
   13.6318   13.5087   25.6739 N   0  0  0  0  0  0  0  0  0  0  0  0
   13.4347   14.8008   25.9617 C   0  0  0  0  0  0  0  0  0  0  0  0
   14.3375   15.8167   25.8590 N   0  0  0  0  0  0  0  0  0  0  0  0
   20.5598   19.6885   22.9800 C   0  0  0  0  0  0  0  0  0  0  0  0
   21.4301   20.2208   21.9456 C   0  0  0  0  0  0  0  0  0  0  0  0
  1  2  1  0
  2  3  1  0
  3  4  1  0
  4  5  2  0
  5  6  1  0
  6  7  1  0
  7  8  2  0
  8  9  1  0
  9 10  2  0
 10 11  1  0
 11 12  2  0
 11 13  1  0
 13 14  1  0
 14 15  1  0
 15 16  2  0
 16 17  1  0
 17 18  2  0
 18 19  1  0
 19 20  2  0
 10 21  1  0
 21 22  2  0
 22  4  1  0
 22  7  1  0
 20 15  1  0
M  END
>  <energy_score>  (104) 
65.693087

>  <inchikey>  (104) 
OLVLBHADGADCLT-UHFFFAOYSA-N

>  <smiles>  (104) 
CCCc1n[nH]c2ccc(C(=O)NCc3ccncn3)cc12

>  <ref_pdb>  (104) 
A1068a

>  <alias>  (104) 
C32415-P95

>  <HIPPO Pose ID>  (104) 
422828

>  <name>  (104) 
C32415-P95

>  <HIPPO Compound ID>  (104) 
32415

>  <ref_mols>  (104) 
A3181b,A1068a

>  <distance_score>  (104) 
5.678162

>  <inspiration_score>  (104) 
None

$$$$
C13629-P136
     RDKit          3D

 23 25  0  0  0  0  0  0  0  0999 V2000
    6.5846   12.4664   29.3925 C   0  0  0  0  0  0  0  0  0  0  0  0
    5.8398   12.8839   28.1289 C   0  0  2  0  0  0  0  0  0  0  0  0
    4.0369   12.8689   28.4781 S   0  0  0  0  0  0  0  0  0  0  0  0
    3.4652   13.9978   27.2261 C   0  0  0  0  0  0  0  0  0  0  0  0
    2.2647   13.7484   26.5775 C   0  0  0  0  0  0  0  0  0  0  0  0
    1.8215   14.6503   25.6133 C   0  0  0  0  0  0  0  0  0  0  0  0
    2.5766   15.7821   25.3404 C   0  0  0  0  0  0  0  0  0  0  0  0
    3.7487   15.9658   26.0514 C   0  0  0  0  0  0  0  0  0  0  0  0
    4.2073   15.1015   26.9863 N   0  0  0  0  0  0  0  0  0  0  0  0
    6.1745   11.8980   26.9887 C   0  0  0  0  0  0  0  0  0  0  0  0
    5.6507   10.8474   26.8510 O   0  0  0  0  0  0  0  0  0  0  0  0
    7.3200   12.5496   26.1961 N   0  0  0  0  0  0  0  0  0  0  0  0
    6.7597   13.4140   24.9737 C   0  0  0  0  0  0  0  0  0  0  0  0
    7.2521   14.8617   25.1248 C   0  0  0  0  0  0  0  0  0  0  0  0
    8.6706   14.9273   25.6717 C   0  0  0  0  0  0  0  0  0  0  0  0
    9.6423   14.1394   24.8096 C   0  0  0  0  0  0  0  0  0  0  0  0
    9.2534   12.7157   24.4761 C   0  0  0  0  0  0  0  0  0  0  0  0
    9.9784   12.0761   23.4531 C   0  0  0  0  0  0  0  0  0  0  0  0
   10.9123   12.7934   22.7513 O   0  0  0  0  0  0  0  0  0  0  0  0
    9.7380   10.7472   23.1199 C   0  0  0  0  0  0  0  0  0  0  0  0
    8.8010   10.0105   23.8244 C   0  0  0  0  0  0  0  0  0  0  0  0
    8.0236   10.6351   24.7950 C   0  0  0  0  0  0  0  0  0  0  0  0
    8.1718   12.0063   25.0878 C   0  0  0  0  0  0  0  0  0  0  0  0
  2  1  1  1
  2  3  1  0
  3  4  1  0
  4  5  2  0
  5  6  1  0
  6  7  2  0
  7  8  1  0
  8  9  2  0
  2 10  1  0
 10 11  2  0
 10 12  1  0
 12 13  1  0
 13 14  1  0
 14 15  1  0
 15 16  1  0
 16 17  1  0
 17 18  2  0
 18 19  1  0
 18 20  1  0
 20 21  2  0
 21 22  1  0
 22 23  2  0
  9  4  1  0
 23 12  1  0
 23 17  1  0
M  END
>  <energy_score>  (105) 
13.845737

>  <inchikey>  (105) 
RNMVOHQXDNXOGF-UHFFFAOYSA-N

>  <smiles>  (105) 
C[C@H](Sc1ccccn1)C(=O)N1CCCCc2c(O)cccc21

>  <ref_pdb>  (105) 
A2846a

>  <alias>  (105) 
C13629-P136

>  <HIPPO Pose ID>  (105) 
423431

>  <name>  (105) 
C13629-P136

>  <HIPPO Compound ID>  (105) 
13629

>  <ref_mols>  (105) 
A2846a,A1778a

>  <distance_score>  (105) 
1.23499

>  <inspiration_score>  (105) 
None

$$$$
C10571-P136
     RDKit          3D

 22 23  0  0  0  0  0  0  0  0999 V2000
   12.6394   14.8462   22.4748 C   0  0  0  0  0  0  0  0  0  0  0  0
   12.4172   14.2547   23.8559 C   0  0  0  0  0  0  0  0  0  0  0  0
   13.2390   13.5323   24.3421 O   0  0  0  0  0  0  0  0  0  0  0  0
   11.1356   14.6701   24.3378 N   0  0  0  0  0  0  0  0  0  0  0  0
   10.3956   14.2791   25.5030 C   0  0  0  0  0  0  0  0  0  0  0  0
    9.6300   12.9555   25.2803 C   0  0  0  0  0  0  0  0  0  0  0  0
    9.7081   12.3829   23.8782 C   0  0  0  0  0  0  0  0  0  0  0  0
    8.3853   11.7615   23.5810 C   0  0  0  0  0  0  0  0  0  0  0  0
    7.2962   12.7904   23.6294 N   0  0  0  0  0  0  0  0  0  0  0  0
    7.3613   14.2187   23.6644 C   0  0  0  0  0  0  0  0  0  0  0  0
    8.3086   14.9579   23.7550 O   0  0  0  0  0  0  0  0  0  0  0  0
    5.9815   14.7848   23.4498 C   0  0  1  0  0  0  0  0  0  0  0  0
    5.7536   16.0986   24.1695 C   0  0  0  0  0  0  0  0  0  0  0  0
    5.9057   14.9595   21.6368 S   0  0  0  0  0  0  0  0  0  0  0  0
    7.6401   15.3648   21.2173 C   0  0  0  0  0  0  0  0  0  0  0  0
    8.1774   16.6195   21.4529 C   0  0  0  0  0  0  0  0  0  0  0  0
    9.4054   16.9835   20.9037 C   0  0  0  0  0  0  0  0  0  0  0  0
   10.1373   16.0387   20.2257 C   0  0  0  0  0  0  0  0  0  0  0  0
    9.6005   14.7740   20.1545 C   0  0  0  0  0  0  0  0  0  0  0  0
    8.3618   14.4138   20.5941 N   0  0  0  0  0  0  0  0  0  0  0  0
    7.1440   12.2588   25.0014 C   0  0  0  0  0  0  0  0  0  0  0  0
    8.1986   12.9069   25.9173 C   0  0  0  0  0  0  0  0  0  0  0  0
  1  2  1  0
  2  3  2  0
  2  4  1  0
  4  5  1  0
  5  6  1  0
  6  7  1  0
  7  8  1  0
  8  9  1  0
  9 10  1  0
 10 11  2  0
 10 12  1  0
 12 13  1  1
 12 14  1  0
 14 15  1  0
 15 16  2  0
 16 17  1  0
 17 18  2  0
 18 19  1  0
 19 20  2  0
  9 21  1  0
 21 22  1  0
 22  6  1  0
 20 15  1  0
M  END
>  <energy_score>  (106) 
82.8285

>  <inchikey>  (106) 
JUDZBSFMRUZZMJ-UHFFFAOYSA-N

>  <smiles>  (106) 
CC(=O)NCC1CCN(C(=O)[C@@H](C)Sc2ccccn2)CC1

>  <ref_pdb>  (106) 
A2846a

>  <alias>  (106) 
C10571-P136

>  <HIPPO Pose ID>  (106) 
423495

>  <name>  (106) 
C10571-P136

>  <HIPPO Compound ID>  (106) 
10571

>  <ref_mols>  (106) 
A2846a,A1778a

>  <distance_score>  (106) 
3.284633

>  <inspiration_score>  (106) 
None

$$$$
C39794-P38
     RDKit          3D

 22 23  0  0  0  0  0  0  0  0999 V2000
   28.0145   12.1375    2.0496 C   0  0  0  0  0  0  0  0  0  0  0  0
   26.9592   13.1098    2.4560 N   0  0  0  0  0  0  0  0  0  0  0  0
   26.1818   11.8224    2.5769 C   0  0  0  0  0  0  0  0  0  0  0  0
   26.1936   14.1413    1.6378 C   0  0  0  0  0  0  0  0  0  0  0  0
   26.2022   14.3538    0.4783 O   0  0  0  0  0  0  0  0  0  0  0  0
   25.3793   14.9799    2.6508 C   0  0  0  0  0  0  0  0  0  0  0  0
   24.1635   15.5498    2.0647 N   0  0  0  0  0  0  0  0  0  0  0  0
   24.2887   16.6820    1.1702 C   0  0  0  0  0  0  0  0  0  0  0  0
   23.0562   17.5777    1.2160 C   0  0  0  0  0  0  0  0  0  0  0  0
   21.7623   16.8263    1.5421 C   0  0  0  0  0  0  0  0  0  0  0  0
   21.8421   15.3364    1.2214 C   0  0  2  0  0  0  0  0  0  0  0  0
   20.6876   14.6114    1.7310 N   0  0  0  0  0  0  0  0  0  0  0  0
   19.1703   14.8720    1.5411 C   0  0  0  0  0  0  0  0  0  0  0  0
   18.6148   15.7509    1.0116 O   0  0  0  0  0  0  0  0  0  0  0  0
   18.4284   13.7302    2.2693 C   0  0  0  0  0  0  0  0  0  0  0  0
   17.0698   14.1942    2.8080 C   0  0  0  0  0  0  0  0  0  0  0  0
   15.9779   14.1760    1.7499 C   0  0  0  0  0  0  0  0  0  0  0  0
   15.9051   12.8878    1.1460 O   0  0  0  0  0  0  0  0  0  0  0  0
   17.0967   12.5893    0.4223 C   0  0  0  0  0  0  0  0  0  0  0  0
   18.2871   12.4959    1.3688 C   0  0  0  0  0  0  0  0  0  0  0  0
   23.0784   14.7020    1.8954 C   0  0  0  0  0  0  0  0  0  0  0  0
   23.0998   13.5190    2.2329 O   0  0  0  0  0  0  0  0  0  0  0  0
  1  2  1  0
  2  3  1  0
  2  4  1  0
  4  5  2  0
  4  6  1  0
  6  7  1  0
  7  8  1  0
  8  9  1  0
  9 10  1  0
 10 11  1  0
 11 12  1  1
 12 13  1  0
 13 14  2  0
 13 15  1  0
 15 16  1  0
 16 17  1  0
 17 18  1  0
 18 19  1  0
 19 20  1  0
 11 21  1  0
 21 22  2  0
 21  7  1  0
 20 15  1  0
M  END
>  <energy_score>  (107) 
47.819794

>  <inchikey>  (107) 
QIGIFMLZEQSIDK-UHFFFAOYSA-N

>  <smiles>  (107) 
CN(C)C(=O)CN1CCC[C@H](NC(=O)C2CCOCC2)C1=O

>  <ref_pdb>  (107) 
A0608a

>  <alias>  (107) 
C39794-P38

>  <HIPPO Pose ID>  (107) 
424174

>  <name>  (107) 
C39794-P38

>  <HIPPO Compound ID>  (107) 
39794

>  <ref_mols>  (107) 
A0486a,A0608a

>  <distance_score>  (107) 
3.334198

>  <inspiration_score>  (107) 
None

$$$$
C23295-P45
     RDKit          3D

 19 20  0  0  0  0  0  0  0  0999 V2000
   14.3237    4.7696   19.4191 C   0  0  0  0  0  0  0  0  0  0  0  0
   15.4640    4.5324   18.3164 C   0  0  1  0  0  0  0  0  0  0  0  0
   15.2044    6.5871   18.4507 C   0  0  0  0  0  0  0  0  0  0  0  0
   15.2696    7.9658   19.0983 C   0  0  0  0  0  0  0  0  0  0  0  0
   15.5662    8.5271   17.8837 F   0  0  0  0  0  0  0  0  0  0  0  0
   14.3629    8.8933   19.7286 F   0  0  0  0  0  0  0  0  0  0  0  0
   15.7972    8.0922   20.3234 F   0  0  0  0  0  0  0  0  0  0  0  0
   16.5682    2.8537   18.0554 N   0  0  0  0  0  0  0  0  0  0  0  0
   17.5459    1.7655   19.3315 C   0  0  0  0  0  0  0  0  0  0  0  0
   17.6378    2.0513   20.5271 O   0  0  0  0  0  0  0  0  0  0  0  0
   18.2743    0.4817   19.0855 C   0  0  0  0  0  0  0  0  0  0  0  0
   17.8024   -0.8247   19.3736 C   0  0  0  0  0  0  0  0  0  0  0  0
   18.7519   -1.7050   19.7971 N   0  0  0  0  0  0  0  0  0  0  0  0
   19.7691   -0.9408   20.0762 C   0  0  0  0  0  0  0  0  0  0  0  0
   20.9116   -1.2505   20.8433 C   0  0  0  0  0  0  0  0  0  0  0  0
   21.7859   -0.2877   21.1347 C   0  0  0  0  0  0  0  0  0  0  0  0
   21.5251    1.0344   20.5381 C   0  0  0  0  0  0  0  0  0  0  0  0
   20.5278    1.3856   19.7845 N   0  0  0  0  0  0  0  0  0  0  0  0
   19.5997    0.3621   19.6086 N   0  0  0  0  0  0  0  0  0  0  0  0
  2  1  1  1
  2  3  1  0
  3  4  1  0
  4  5  1  0
  4  6  1  0
  4  7  1  0
  2  8  1  0
  8  9  1  0
  9 10  2  0
  9 11  1  0
 11 12  2  0
 12 13  1  0
 13 14  2  0
 14 15  1  0
 15 16  2  0
 16 17  1  0
 17 18  2  0
 18 19  1  0
 19 11  1  0
 19 14  1  0
M  END
>  <energy_score>  (108) 
563.826544

>  <inchikey>  (108) 
NTDQUBFCCLFMCU-UHFFFAOYSA-N

>  <smiles>  (108) 
C[C@@H](CC(F)(F)F)NC(=O)c1cnc2cccnn12

>  <ref_pdb>  (108) 
A0202a

>  <alias>  (108) 
C23295-P45

>  <HIPPO Pose ID>  (108) 
429295

>  <name>  (108) 
C23295-P45

>  <HIPPO Compound ID>  (108) 
23295

>  <ref_mols>  (108) 
A1778a,A0202a

>  <distance_score>  (108) 
4.033783

>  <inspiration_score>  (108) 
None

$$$$
C12352-P183
     RDKit          3D

 22 23  0  0  0  0  0  0  0  0999 V2000
   11.9758   14.3032   25.9578 C   0  0  0  0  0  0  0  0  0  0  0  0
   12.8050   13.3223   25.0967 C   0  0  0  0  0  0  0  0  0  0  0  0
   12.2348   13.0230   23.7342 C   0  0  0  0  0  0  0  0  0  0  0  0
   12.0542   14.4923   22.8201 S   0  0  0  0  0  0  0  0  0  0  0  0
   11.1218   15.2343   23.6192 O   0  0  0  0  0  0  0  0  0  0  0  0
   13.3185   15.0845   22.5081 O   0  0  0  0  0  0  0  0  0  0  0  0
   11.3733   14.0612   21.4050 N   0  0  0  0  0  0  0  0  0  0  0  0
   11.1516   15.1396   20.4303 C   0  0  0  0  0  0  0  0  0  0  0  0
   10.1365   14.7036   19.4395 C   0  0  0  0  0  0  0  0  0  0  0  0
    8.7511   14.8624   20.1280 C   0  0  0  0  0  0  0  0  0  0  0  0
    8.6802   14.4753   21.5374 N   0  0  0  0  0  0  0  0  0  0  0  0
    7.5439   14.2151   22.3876 C   0  0  0  0  0  0  0  0  0  0  0  0
    6.3625   14.3365   22.1737 O   0  0  0  0  0  0  0  0  0  0  0  0
    8.0266   13.8160   23.8133 C   0  0  1  0  0  0  0  0  0  0  0  0
    7.2512   14.4030   24.7849 F   0  0  0  0  0  0  0  0  0  0  0  0
    8.1274   12.3779   24.0538 N   0  0  0  0  0  0  0  0  0  0  0  0
    7.5256   11.6880   25.0753 C   0  0  0  0  0  0  0  0  0  0  0  0
    7.9930   10.4012   24.9984 C   0  0  0  0  0  0  0  0  0  0  0  0
    8.9394   10.4188   23.9607 C   0  0  0  0  0  0  0  0  0  0  0  0
    9.0580   11.6302   23.4136 N   0  0  0  0  0  0  0  0  0  0  0  0
    9.1447   15.8568   21.7107 C   0  0  0  0  0  0  0  0  0  0  0  0
   10.4565   16.3257   21.0501 C   0  0  0  0  0  0  0  0  0  0  0  0
  1  2  1  0
  2  3  1  0
  3  4  1  0
  4  5  2  0
  4  6  2  0
  4  7  1  0
  7  8  1  0
  8  9  1  0
  9 10  1  0
 10 11  1  0
 11 12  1  0
 12 13  2  0
 12 14  1  0
 14 15  1  1
 14 16  1  0
 16 17  1  0
 17 18  2  0
 18 19  1  0
 19 20  2  0
 11 21  1  0
 21 22  1  0
 22  8  1  0
 20 16  1  0
M  END
>  <energy_score>  (109) 
55.369055

>  <inchikey>  (109) 
DKACWFDJCMGWDN-UHFFFAOYSA-N

>  <smiles>  (109) 
CCCS(=O)(=O)NC1CCN(C(=O)[C@@H](F)n2cccn2)CC1

>  <ref_pdb>  (109) 
A3436a

>  <alias>  (109) 
C12352-P183

>  <HIPPO Pose ID>  (109) 
429416

>  <name>  (109) 
C12352-P183

>  <HIPPO Compound ID>  (109) 
12352

>  <ref_mols>  (109) 
A0719a,A3436a

>  <distance_score>  (109) 
1.913135

>  <inspiration_score>  (109) 
None

$$$$
C13816-P106
     RDKit          3D

 23 25  0  0  0  0  0  0  0  0999 V2000
   12.4111   16.0087   21.2433 C   0  0  0  0  0  0  0  0  0  0  0  0
   11.3831   15.0087   20.7741 C   0  0  0  0  0  0  0  0  0  0  0  0
   10.2196   14.8613   21.7461 C   0  0  0  0  0  0  0  0  0  0  0  0
    9.1552   15.2469   21.5274 O   0  0  0  0  0  0  0  0  0  0  0  0
   10.8316   14.0184   22.9468 N   0  0  0  0  0  0  0  0  0  0  0  0
    9.7276   13.2337   24.3524 C   0  0  0  0  0  0  0  0  0  0  0  0
   10.0209   11.6970   24.5189 C   0  0  0  0  0  0  0  0  0  0  0  0
   11.2841   12.2065   24.0325 C   0  0  2  0  0  0  0  0  0  0  0  0
   12.5105   11.7097   24.8535 C   0  0  0  0  0  0  0  0  0  0  0  0
   12.5315   10.5265   25.0551 O   0  0  0  0  0  0  0  0  0  0  0  0
   13.4666   12.7224   25.1586 N   0  0  0  0  0  0  0  0  0  0  0  0
   14.8358   12.6324   25.7335 C   0  0  2  0  0  0  0  0  0  0  0  0
   15.5904   11.4157   25.1373 C   0  0  0  0  0  0  0  0  0  0  0  0
   15.8953   10.2873   26.0056 N   0  0  0  0  0  0  0  0  0  0  0  0
   17.1024   10.5155   26.8124 C   0  0  0  0  0  0  0  0  0  0  0  0
   17.3219   11.9371   27.3284 C   0  0  0  0  0  0  0  0  0  0  0  0
   16.1078   12.5406   27.9833 C   0  0  0  0  0  0  0  0  0  0  0  0
   16.1989   12.8498   29.3545 C   0  0  0  0  0  0  0  0  0  0  0  0
   15.1874   13.5439   30.0036 C   0  0  0  0  0  0  0  0  0  0  0  0
   14.0762   13.9416   29.2833 C   0  0  0  0  0  0  0  0  0  0  0  0
   13.9599   13.5989   27.9304 C   0  0  0  0  0  0  0  0  0  0  0  0
   14.9480   12.8711   27.2457 C   0  0  0  0  0  0  0  0  0  0  0  0
   10.3959   13.5853   24.1086 C   0  0  0  0  0  0  0  0  0  0  0  0
  1  2  1  0
  2  3  1  0
  3  4  2  0
  3  5  1  0
  5  6  1  0
  6  7  1  0
  7  8  1  0
  8  9  1  1
  9 10  2  0
  9 11  1  0
 12 11  1  1
 12 13  1  0
 13 14  1  0
 14 15  1  0
 15 16  1  0
 16 17  1  0
 17 18  2  0
 18 19  1  0
 19 20  2  0
 20 21  1  0
 21 22  2  0
  8 23  1  0
 23  5  1  0
 22 12  1  0
 22 17  1  0
M  END
>  <energy_score>  (110) 
724.210023

>  <inchikey>  (110) 
NIZZZSGKUWHKJO-UHFFFAOYSA-N

>  <smiles>  (110) 
CCC(=O)N1CC[C@H](C(=O)N[C@@H]2CNCCc3ccccc32)C1

>  <ref_pdb>  (110) 
A1140a

>  <alias>  (110) 
C13816-P106

>  <HIPPO Pose ID>  (110) 
432588

>  <name>  (110) 
C13816-P106

>  <HIPPO Compound ID>  (110) 
13816

>  <ref_mols>  (110) 
A1140a,A2293a

>  <distance_score>  (110) 
2.839723

>  <inspiration_score>  (110) 
None

$$$$
C23130-P37
     RDKit          3D

 22 22  0  0  0  0  0  0  0  0999 V2000
   12.7947   14.9158   22.4143 C   0  0  0  0  0  0  0  0  0  0  0  0
   11.9000   13.6934   22.3634 C   0  0  0  0  0  0  0  0  0  0  0  0
   11.0320   13.5861   23.6079 C   0  0  0  0  0  0  0  0  0  0  0  0
   11.0409   14.3743   24.4723 O   0  0  0  0  0  0  0  0  0  0  0  0
   10.1328   12.3297   23.3958 N   0  0  0  0  0  0  0  0  0  0  0  0
    9.0422   11.8631   24.1291 C   0  0  0  0  0  0  0  0  0  0  0  0
    8.8391   10.4931   24.1909 C   0  0  0  0  0  0  0  0  0  0  0  0
    7.8333    9.9745   25.0133 C   0  0  0  0  0  0  0  0  0  0  0  0
    6.9936   10.7981   25.7570 C   0  0  0  0  0  0  0  0  0  0  0  0
    6.0341   10.2551   26.6149 N   0  0  0  0  0  0  0  0  0  0  0  0
    5.0142   10.9580   27.5732 C   0  0  0  0  0  0  0  0  0  0  0  0
    4.7769   12.0935   27.7257 O   0  0  0  0  0  0  0  0  0  0  0  0
    4.3802    9.8635   28.4388 C   0  0  0  0  0  0  0  0  0  0  0  0
    3.5432   10.3268   29.6635 C   0  0  1  0  0  0  0  0  0  0  0  0
    4.0482   11.5925   30.3626 C   0  0  0  0  0  0  0  0  0  0  0  0
    2.0504   10.4430   29.3917 C   0  0  0  0  0  0  0  0  0  0  0  0
    1.3811   10.7079   30.5388 F   0  0  0  0  0  0  0  0  0  0  0  0
    1.5615    9.2759   28.9126 F   0  0  0  0  0  0  0  0  0  0  0  0
    1.7410   11.4018   28.5000 F   0  0  0  0  0  0  0  0  0  0  0  0
    7.1413   12.1677   25.6249 C   0  0  0  0  0  0  0  0  0  0  0  0
    8.1456   12.7085   24.7993 C   0  0  0  0  0  0  0  0  0  0  0  0
    8.1489   14.1929   24.6311 C   0  0  0  0  0  0  0  0  0  0  0  0
  1  2  1  0
  2  3  1  0
  3  4  2  0
  3  5  1  0
  5  6  1  0
  6  7  2  0
  7  8  1  0
  8  9  2  0
  9 10  1  0
 10 11  1  0
 11 12  2  0
 11 13  1  0
 13 14  1  0
 14 15  1  6
 14 16  1  0
 16 17  1  0
 16 18  1  0
 16 19  1  0
  9 20  1  0
 20 21  2  0
 21 22  1  0
 21  6  1  0
M  END
>  <energy_score>  (111) 
-25.480199

>  <inchikey>  (111) 
UGZOXRFYKLKGPI-UHFFFAOYSA-N

>  <smiles>  (111) 
CCC(=O)Nc1ccc(NC(=O)C[C@@H](C)C(F)(F)F)cc1C

>  <ref_pdb>  (111) 
A0310a

>  <alias>  (111) 
C23130-P37

>  <HIPPO Pose ID>  (111) 
435267

>  <name>  (111) 
C23130-P37

>  <HIPPO Compound ID>  (111) 
23130

>  <ref_mols>  (111) 
A1445a,A0310a

>  <distance_score>  (111) 
0.997458

>  <inspiration_score>  (111) 
None

$$$$
C25347-P198
     RDKit          3D

 18 19  0  0  0  0  0  0  0  0999 V2000
   10.4055   12.9408   23.0127 C   0  0  0  0  0  0  0  0  0  0  0  0
    9.2093   13.3821   23.8151 C   0  0  0  0  0  0  0  0  0  0  0  0
    9.0103   14.5058   24.0712 O   0  0  0  0  0  0  0  0  0  0  0  0
    8.4280   12.0972   24.2313 N   0  0  0  0  0  0  0  0  0  0  0  0
    7.2404   11.9535   24.9378 C   0  0  0  0  0  0  0  0  0  0  0  0
    6.7448   10.6964   25.2831 C   0  0  0  0  0  0  0  0  0  0  0  0
    5.5517   10.6078   26.0113 C   0  0  0  0  0  0  0  0  0  0  0  0
    4.9050   11.7891   26.3593 C   0  0  0  0  0  0  0  0  0  0  0  0
    3.5934   11.7905   27.1105 C   0  0  0  0  0  0  0  0  0  0  0  0
    3.1518   10.8093   27.5524 O   0  0  0  0  0  0  0  0  0  0  0  0
    3.0464   13.2272   27.1310 N   0  0  0  0  0  0  0  0  0  0  0  0
    1.8864   13.7766   27.7818 C   0  0  2  0  0  0  0  0  0  0  0  0
    0.6689   13.6049   26.8824 C   0  0  0  0  0  0  0  0  0  0  0  0
    2.2012   15.1898   28.1932 C   0  0  0  0  0  0  0  0  0  0  0  0
    1.2154   16.3336   28.1312 C   0  0  0  0  0  0  0  0  0  0  0  0
    2.3783   16.2957   27.1781 C   0  0  0  0  0  0  0  0  0  0  0  0
    5.3784   13.0279   26.0457 N   0  0  0  0  0  0  0  0  0  0  0  0
    6.5242   13.0748   25.3372 C   0  0  0  0  0  0  0  0  0  0  0  0
  1  2  1  0
  2  3  2  0
  2  4  1  0
  4  5  1  0
  5  6  2  0
  6  7  1  0
  7  8  2  0
  8  9  1  0
  9 10  2  0
  9 11  1  0
 11 12  1  0
 12 13  1  6
 12 14  1  0
 14 15  1  0
 15 16  1  0
  8 17  1  0
 17 18  2  0
 18  5  1  0
 16 14  1  0
M  END
>  <energy_score>  (112) 
1.16941

>  <inchikey>  (112) 
KLUCSWYALPHVEQ-UHFFFAOYSA-N

>  <smiles>  (112) 
CC(=O)Nc1ccc(C(=O)N[C@H](C)C2CC2)nc1

>  <ref_pdb>  (112) 
A3618a

>  <alias>  (112) 
C25347-P198

>  <HIPPO Pose ID>  (112) 
437728

>  <name>  (112) 
C25347-P198

>  <HIPPO Compound ID>  (112) 
25347

>  <ref_mols>  (112) 
A0310a,A3618a

>  <distance_score>  (112) 
1.232815

>  <inspiration_score>  (112) 
None

$$$$
C27189-P16
     RDKit          3D

 24 26  0  0  0  0  0  0  0  0999 V2000
   17.2771   21.4830   11.4456 O   0  0  0  0  0  0  0  0  0  0  0  0
   17.4007   22.3244   10.5672 C   0  0  0  0  0  0  0  0  0  0  0  0
   18.4144   23.2643   10.6357 O   0  0  0  0  0  0  0  0  0  0  0  0
   18.5815   24.1652   11.8373 C   0  0  2  0  0  0  0  0  0  0  0  0
   19.8004   23.9673   12.7482 C   0  0  0  0  0  0  0  0  0  0  0  0
   19.8811   24.2532   14.0494 N   0  0  0  0  0  0  0  0  0  0  0  0
   21.2096   24.0610   14.3851 C   0  0  0  0  0  0  0  0  0  0  0  0
   21.8742   24.1184   15.6254 C   0  0  0  0  0  0  0  0  0  0  0  0
   23.2518   23.8529   15.6637 C   0  0  0  0  0  0  0  0  0  0  0  0
   23.9514   23.5641   14.4877 C   0  0  0  0  0  0  0  0  0  0  0  0
   23.2978   23.4986   13.2428 C   0  0  0  0  0  0  0  0  0  0  0  0
   21.9242   23.7373   13.2478 C   0  0  0  0  0  0  0  0  0  0  0  0
   21.0396   23.7144   12.1884 O   0  0  0  0  0  0  0  0  0  0  0  0
   17.3003   24.3583   12.6481 C   0  0  0  0  0  0  0  0  0  0  0  0
   17.3102   25.5090   13.3579 F   0  0  0  0  0  0  0  0  0  0  0  0
   16.2428   24.4554   11.7908 F   0  0  0  0  0  0  0  0  0  0  0  0
   17.0225   23.3449   13.4868 F   0  0  0  0  0  0  0  0  0  0  0  0
   16.5395   22.4355    9.2901 C   0  0  1  0  0  0  0  0  0  0  0  0
   17.1740   21.8666    8.0010 C   0  0  0  0  0  0  0  0  0  0  0  0
   16.3546   20.6881    7.4427 C   0  0  0  0  0  0  0  0  0  0  0  0
   14.8960   20.9908    7.7054 C   0  0  0  0  0  0  0  0  0  0  0  0
   14.8936   21.6242    9.3659 S   0  0  0  0  0  0  0  0  0  0  0  0
   13.8133   22.5847    9.4292 O   0  0  0  0  0  0  0  0  0  0  0  0
   14.8975   20.4748   10.2424 O   0  0  0  0  0  0  0  0  0  0  0  0
  1  2  2  0
  2  3  1  0
  4  3  1  6
  4  5  1  0
  5  6  2  0
  6  7  1  0
  7  8  2  0
  8  9  1  0
  9 10  2  0
 10 11  1  0
 11 12  2  0
 12 13  1  0
  4 14  1  0
 14 15  1  0
 14 16  1  0
 14 17  1  0
 18  2  1  1
 18 19  1  0
 19 20  1  0
 20 21  1  0
 21 22  1  0
 22 23  2  0
 22 24  2  0
 13  5  1  0
 22 18  1  0
 12  7  1  0
M  END
>  <energy_score>  (113) 
-12.806408

>  <inchikey>  (113) 
DXDRNDWLNGFFGE-UHFFFAOYSA-N

>  <smiles>  (113) 
O=C(O[C@H](c1nc2ccccc2o1)C(F)(F)F)[C@H]1CCCS1(=O)=O

>  <ref_pdb>  (113) 
A0514b

>  <alias>  (113) 
C27189-P16

>  <HIPPO Pose ID>  (113) 
438429

>  <name>  (113) 
C27189-P16

>  <HIPPO Compound ID>  (113) 
27189

>  <ref_mols>  (113) 
A0514b,A0354a

>  <distance_score>  (113) 
10.536247

>  <inspiration_score>  (113) 
None

$$$$
C27676-P109
     RDKit          3D

 21 23  0  0  0  0  0  0  0  0999 V2000
   24.4384   13.3240    5.5019 C   0  0  0  0  0  0  0  0  0  0  0  0
   24.8531   13.3631    6.9814 O   0  0  0  0  0  0  0  0  0  0  0  0
   24.8091   12.7498    8.3289 C   0  0  0  0  0  0  0  0  0  0  0  0
   23.9013   13.3837    9.6365 C   0  0  0  0  0  0  0  0  0  0  0  0
   22.6676   12.7417    9.4957 N   0  0  0  0  0  0  0  0  0  0  0  0
   21.5002   13.2733   10.1832 C   0  0  0  0  0  0  0  0  0  0  0  0
   21.3786   14.5723   10.8193 C   0  0  0  0  0  0  0  0  0  0  0  0
   22.7987   15.5298   11.6543 C   0  0  0  0  0  0  0  0  0  0  0  0
   23.6115   16.7675   12.8889 N   0  0  0  0  0  0  0  0  0  0  0  0
   22.9815   18.2954   13.7460 C   0  0  0  0  0  0  0  0  0  0  0  0
   21.8843   18.8260   13.6532 O   0  0  0  0  0  0  0  0  0  0  0  0
   24.1724   19.1865   15.1286 C   0  0  0  0  0  0  0  0  0  0  0  0
   24.0479   20.9296   16.2839 C   0  0  0  0  0  0  0  0  0  0  0  0
   24.4519   21.4323   17.9830 C   0  0  0  0  0  0  0  0  0  0  0  0
   24.0565   21.5680   19.2786 C   0  0  0  0  0  0  0  0  0  0  0  0
   25.1394   22.2997   19.8865 C   0  0  0  0  0  0  0  0  0  0  0  0
   26.0970   22.6016   18.9141 C   0  0  0  0  0  0  0  0  0  0  0  0
   25.6030   22.1042   17.7595 N   0  0  0  0  0  0  0  0  0  0  0  0
   25.8769   21.8450   16.4438 C   0  0  0  0  0  0  0  0  0  0  0  0
   24.6022   21.0788   16.0226 N   0  0  0  0  0  0  0  0  0  0  0  0
   24.1632   14.5934   11.0365 N   0  0  0  0  0  0  0  0  0  0  0  0
  1  2  1  0
  2  3  1  0
  3  4  1  0
  4  5  2  0
  5  6  1  0
  6  7  2  0
  7  8  1  0
  8  9  1  0
  9 10  1  0
 10 11  2  0
 10 12  1  0
 12 13  2  0
 13 14  1  0
 14 15  2  0
 15 16  1  0
 16 17  2  0
 17 18  1  0
 18 19  1  0
 19 20  2  0
  8 21  2  0
 21  4  1  0
 20 12  1  0
 18 14  1  0
M  END
>  <energy_score>  (114) 
1776.432287

>  <inchikey>  (114) 
ZYZMZUKTOFJQRL-UHFFFAOYSA-N

>  <smiles>  (114) 
COCc1nccc(NC(=O)c2cc3cccn3cn2)n1

>  <ref_pdb>  (114) 
A1146a

>  <alias>  (114) 
C27676-P109

>  <HIPPO Pose ID>  (114) 
438736

>  <name>  (114) 
C27676-P109

>  <HIPPO Compound ID>  (114) 
27676

>  <ref_mols>  (114) 
A0486a,A1146a

>  <distance_score>  (114) 
6.760539

>  <inspiration_score>  (114) 
None

$$$$
C27907-P259
     RDKit          3D

 20 22  0  0  0  0  0  0  0  0999 V2000
    8.0898   14.7139   21.2415 C   0  0  0  0  0  0  0  0  0  0  0  0
    9.1803   15.1941   21.3747 C   0  0  0  0  0  0  0  0  0  0  0  0
   10.4582   15.8569   21.6634 C   0  0  2  0  0  0  0  0  0  0  0  0
   11.4093   15.7886   20.4896 C   0  0  0  0  0  0  0  0  0  0  0  0
   12.6188   16.2355   21.2219 C   0  0  0  0  0  0  0  0  0  0  0  0
   12.0654   16.3469   22.6102 C   0  0  0  0  0  0  0  0  0  0  0  0
   11.1223   15.2874   22.9315 N   0  0  0  0  0  0  0  0  0  0  0  0
   11.2617   13.8061   22.8510 C   0  0  0  0  0  0  0  0  0  0  0  0
   12.1336   13.1516   22.4364 O   0  0  0  0  0  0  0  0  0  0  0  0
   10.1169   13.1216   23.5059 C   0  0  0  0  0  0  0  0  0  0  0  0
    9.7748   11.7988   23.2599 C   0  0  0  0  0  0  0  0  0  0  0  0
    8.7558   11.2039   23.9953 C   0  0  0  0  0  0  0  0  0  0  0  0
    7.9996   11.9375   24.9263 C   0  0  0  0  0  0  0  0  0  0  0  0
    8.3205   13.2840   25.1431 C   0  0  0  0  0  0  0  0  0  0  0  0
    9.4173   13.8261   24.4690 C   0  0  0  0  0  0  0  0  0  0  0  0
    7.6919   14.2633   26.0994 C   0  0  0  0  0  0  0  0  0  0  0  0
    6.2241   14.1162   26.4249 C   0  0  0  0  0  0  0  0  0  0  0  0
    5.8824   12.8007   27.0988 C   0  0  0  0  0  0  0  0  0  0  0  0
    5.8166   11.6898   26.0773 C   0  0  0  0  0  0  0  0  0  0  0  0
    7.1050   11.1843   25.6696 N   0  0  0  0  0  0  0  0  0  0  0  0
  1  2  3  0
  3  2  1  6
  3  4  1  0
  4  5  1  0
  5  6  1  0
  6  7  1  0
  7  8  1  0
  8  9  2  0
  8 10  1  0
 10 11  2  0
 11 12  1  0
 12 13  2  0
 13 14  1  0
 14 15  2  0
 14 16  1  0
 16 17  1  0
 17 18  1  0
 18 19  1  0
 19 20  1  0
  7  3  1  0
 15 10  1  0
 20 13  1  0
M  END
>  <energy_score>  (115) 
42.202378

>  <inchikey>  (115) 
OMDDLJRXODFXKE-UHFFFAOYSA-N

>  <smiles>  (115) 
C#C[C@@H]1CCCN1C(=O)c1ccc2c(c1)CCCCN2

>  <ref_pdb>  (115) 
A3990a

>  <alias>  (115) 
C27907-P259

>  <HIPPO Pose ID>  (115) 
438995

>  <name>  (115) 
C27907-P259

>  <HIPPO Compound ID>  (115) 
27907

>  <ref_mols>  (115) 
A3990a,A1778a

>  <distance_score>  (115) 
2.744347

>  <inspiration_score>  (115) 
None

$$$$
C28573-P76
     RDKit          3D

 23 25  0  0  0  0  0  0  0  0999 V2000
   13.7604   10.7129   11.4061 O   0  0  0  0  0  0  0  0  0  0  0  0
   13.6595    9.6783   10.7546 C   0  0  0  0  0  0  0  0  0  0  0  0
   12.6446   10.0271    9.1152 C   0  0  0  0  0  0  0  0  0  0  0  0
   12.4351    9.6480    7.2680 C   0  0  0  0  0  0  0  0  0  0  0  0
   11.0197    9.4210    6.0229 C   0  0  0  0  0  0  0  0  0  0  0  0
   11.4207    8.5336    5.0742 N   0  0  0  0  0  0  0  0  0  0  0  0
   10.6235    8.1273    4.0948 N   0  0  0  0  0  0  0  0  0  0  0  0
    9.7196    9.0679    4.0700 C   0  0  0  0  0  0  0  0  0  0  0  0
    9.7670    9.8714    5.2612 C   0  0  0  0  0  0  0  0  0  0  0  0
    8.6372   11.0053    5.1956 C   0  0  0  0  0  0  0  0  0  0  0  0
    7.9139   11.2771    3.8518 C   0  0  0  0  0  0  0  0  0  0  0  0
    8.5559   10.6748    2.6239 C   0  0  0  0  0  0  0  0  0  0  0  0
    8.8348    9.2084    2.8844 C   0  0  0  0  0  0  0  0  0  0  0  0
   14.3652    8.0903   11.1516 N   0  0  0  0  0  0  0  0  0  0  0  0
   15.2740    7.5124   12.6002 C   0  0  0  0  0  0  0  0  0  0  0  0
   16.0091    5.7419   13.0390 C   0  0  0  0  0  0  0  0  0  0  0  0
   16.1572    3.8533   13.5809 C   0  0  0  0  0  0  0  0  0  0  0  0
   17.2399    2.8065   14.8631 C   0  0  1  0  0  0  0  0  0  0  0  0
   18.7765    2.5579   15.7186 C   0  0  0  0  0  0  0  0  0  0  0  0
   19.0310    2.8971   16.9185 N   0  0  0  0  0  0  0  0  0  0  0  0
   17.9102    2.9630   17.4724 N   0  0  0  0  0  0  0  0  0  0  0  0
   16.7692    2.7573   16.6032 C   0  0  0  0  0  0  0  0  0  0  0  0
   15.7128    3.0736   17.1072 O   0  0  0  0  0  0  0  0  0  0  0  0
  1  2  2  0
  2  3  1  0
  3  4  1  0
  4  5  1  0
  5  6  1  0
  6  7  1  0
  7  8  2  0
  8  9  1  0
  9 10  1  0
 10 11  1  0
 11 12  1  0
 12 13  1  0
  2 14  1  0
 14 15  1  0
 15 16  1  0
 16 17  1  0
 18 17  1  1
 18 19  1  0
 19 20  2  0
 20 21  1  0
 21 22  1  0
 22 23  2  0
  9  5  2  0
 22 18  1  0
 13  8  1  0
M  END
>  <energy_score>  (116) 
625.53356

>  <inchikey>  (116) 
XUXOYMDKVFCKDZ-UHFFFAOYSA-N

>  <smiles>  (116) 
O=C(CCc1[nH]nc2c1CCCC2)NCCC[C@H]1C=NNC1=O

>  <ref_pdb>  (116) 
A0717a

>  <alias>  (116) 
C28573-P76

>  <HIPPO Pose ID>  (116) 
439928

>  <name>  (116) 
C28573-P76

>  <HIPPO Compound ID>  (116) 
28573

>  <ref_mols>  (116) 
A0717a,A0341a

>  <distance_score>  (116) 
5.97982

>  <inspiration_score>  (116) 
None

$$$$
C22223-P136
     RDKit          3D

 18 19  0  0  0  0  0  0  0  0999 V2000
   15.8207   19.5476   19.6815 C   0  0  0  0  0  0  0  0  0  0  0  0
   16.2445   18.1089   19.8597 C   0  0  2  0  0  0  0  0  0  0  0  0
   15.1126   16.9149   20.9574 N   0  0  0  0  0  0  0  0  0  0  0  0
   13.8254   15.8608   20.5390 C   0  0  0  0  0  0  0  0  0  0  0  0
   13.2615   15.6747   19.4578 O   0  0  0  0  0  0  0  0  0  0  0  0
   13.1316   15.0648   21.6281 C   0  0  0  0  0  0  0  0  0  0  0  0
   12.5406   15.7246   22.6617 C   0  0  0  0  0  0  0  0  0  0  0  0
   11.7329   15.2019   23.6366 N   0  0  0  0  0  0  0  0  0  0  0  0
   11.3661   13.9401   23.4191 C   0  0  0  0  0  0  0  0  0  0  0  0
   11.8306   13.2734   22.3135 C   0  0  0  0  0  0  0  0  0  0  0  0
   12.7208   13.7938   21.4167 N   0  0  0  0  0  0  0  0  0  0  0  0
   18.0116   18.7122   20.0897 C   0  0  0  0  0  0  0  0  0  0  0  0
   19.0516   19.1140   18.5423 S   0  0  0  0  0  0  0  0  0  0  0  0
   18.4998   20.6584   17.8984 C   0  0  0  0  0  0  0  0  0  0  0  0
   20.4129   19.3641   19.0024 O   0  0  0  0  0  0  0  0  0  0  0  0
   18.7909   18.0832   17.5676 O   0  0  0  0  0  0  0  0  0  0  0  0
   18.2932   19.8964   21.1400 C   0  0  0  0  0  0  0  0  0  0  0  0
   18.9982   18.6333   21.3342 C   0  0  0  0  0  0  0  0  0  0  0  0
  2  1  1  1
  2  3  1  0
  3  4  1  0
  4  5  2  0
  4  6  1  0
  6  7  2  0
  7  8  1  0
  8  9  2  0
  9 10  1  0
 10 11  2  0
  2 12  1  0
 12 13  1  0
 13 14  1  0
 13 15  2  0
 13 16  2  0
 12 17  1  0
 17 18  1  0
 11  6  1  0
 18 12  1  0
M  END
>  <energy_score>  (117) 
238.40189

>  <inchikey>  (117) 
CUJSNQIKFGAYAT-UHFFFAOYSA-N

>  <smiles>  (117) 
C[C@H](NC(=O)c1cnccn1)C1(S(C)(=O)=O)CC1

>  <ref_pdb>  (117) 
A2846a

>  <alias>  (117) 
C22223-P136

>  <HIPPO Pose ID>  (117) 
442475

>  <name>  (117) 
C22223-P136

>  <HIPPO Compound ID>  (117) 
22223

>  <ref_mols>  (117) 
A2846a,A1146a

>  <distance_score>  (117) 
6.038595

>  <inspiration_score>  (117) 
None

$$$$
C29440-P77
     RDKit          3D

 20 21  0  0  0  0  0  0  0  0999 V2000
   10.8723   15.3918   18.7265 C   0  0  0  0  0  0  0  0  0  0  0  0
   11.2418   15.5118   20.0935 O   0  0  0  0  0  0  0  0  0  0  0  0
   10.8495   14.3542   20.8231 C   0  0  0  0  0  0  0  0  0  0  0  0
   10.1513   14.7048   22.1355 C   0  0  2  0  0  0  0  0  0  0  0  0
   11.2011   15.4251   22.9558 C   0  0  0  0  0  0  0  0  0  0  0  0
    9.6871   13.5667   22.8735 N   0  0  0  0  0  0  0  0  0  0  0  0
   10.4379   12.5891   23.7510 C   0  0  0  0  0  0  0  0  0  0  0  0
   11.5718   12.4898   23.9670 O   0  0  0  0  0  0  0  0  0  0  0  0
    9.3850   11.8211   24.3749 C   0  0  0  0  0  0  0  0  0  0  0  0
    9.1168   10.4844   24.2979 C   0  0  0  0  0  0  0  0  0  0  0  0
    7.9648   10.1687   25.0565 C   0  0  0  0  0  0  0  0  0  0  0  0
    7.3821   11.2431   25.6869 C   0  0  0  0  0  0  0  0  0  0  0  0
    6.0553   11.3516   26.8414 S   0  0  0  0  0  0  0  0  0  0  0  0
    5.3623    9.8348   26.8099 N   0  0  0  0  0  0  0  0  0  0  0  0
    6.6697   11.5054   28.1377 O   0  0  0  0  0  0  0  0  0  0  0  0
    5.0897   12.2787   26.3107 O   0  0  0  0  0  0  0  0  0  0  0  0
    8.1568   12.6688   25.2309 S   0  0  0  0  0  0  0  0  0  0  0  0
    8.8527   15.5132   21.8757 C   0  0  0  0  0  0  0  0  0  0  0  0
    7.7048   15.6145   22.8957 C   0  0  0  0  0  0  0  0  0  0  0  0
    7.4927   14.8420   21.6453 C   0  0  0  0  0  0  0  0  0  0  0  0
  1  2  1  0
  2  3  1  0
  3  4  1  0
  4  5  1  1
  4  6  1  0
  6  7  1  0
  7  8  2  0
  7  9  1  0
  9 10  2  0
 10 11  1  0
 11 12  2  0
 12 13  1  0
 13 14  1  0
 13 15  2  0
 13 16  2  0
 12 17  1  0
  4 18  1  0
 18 19  1  0
 19 20  1  0
 17  9  1  0
 20 18  1  0
M  END
>  <energy_score>  (118) 
-17.414302

>  <inchikey>  (118) 
HBQPFNKNHYROJA-UHFFFAOYSA-N

>  <smiles>  (118) 
COC[C@](C)(NC(=O)c1ccc(S(N)(=O)=O)s1)C1CC1

>  <ref_pdb>  (118) 
A0719a

>  <alias>  (118) 
C29440-P77

>  <HIPPO Pose ID>  (118) 
443088

>  <name>  (118) 
C29440-P77

>  <HIPPO Compound ID>  (118) 
29440

>  <ref_mols>  (118) 
A0719a,A3176a

>  <distance_score>  (118) 
2.157764

>  <inspiration_score>  (118) 
None

$$$$
C10549-P176
     RDKit          3D

 24 25  0  0  0  0  0  0  0  0999 V2000
    6.8735   15.2219   23.8562 C   0  0  0  0  0  0  0  0  0  0  0  0
    7.8472   14.0457   23.7243 C   0  0  1  0  0  0  0  0  0  0  0  0
    9.6951   14.2214   23.5114 S   0  0  0  0  0  0  0  0  0  0  0  0
    9.8153   15.0764   21.9691 C   0  0  0  0  0  0  0  0  0  0  0  0
    8.7777   15.9257   21.8124 N   0  0  0  0  0  0  0  0  0  0  0  0
    8.7550   16.7390   20.7683 C   0  0  0  0  0  0  0  0  0  0  0  0
    9.6367   16.5923   19.7420 C   0  0  0  0  0  0  0  0  0  0  0  0
   10.6369   15.6360   19.8198 C   0  0  0  0  0  0  0  0  0  0  0  0
   10.8304   14.9492   21.0141 C   0  0  0  0  0  0  0  0  0  0  0  0
   11.9423   13.9654   21.2066 C   0  0  0  0  0  0  0  0  0  0  0  0
   12.3419   13.8157   22.3245 O   0  0  0  0  0  0  0  0  0  0  0  0
   12.2825   13.2784   19.9871 N   0  0  0  0  0  0  0  0  0  0  0  0
   13.1299   12.1358   19.7513 C   0  0  0  0  0  0  0  0  0  0  0  0
   13.7308   10.6686   20.2988 C   0  0  0  0  0  0  0  0  0  0  0  0
   12.0123    9.4851   20.6889 C   0  0  0  0  0  0  0  0  0  0  0  0
   15.5843   10.9708   20.9708 C   0  0  0  0  0  0  0  0  0  0  0  0
   14.0362    9.3887   19.8420 C   0  0  0  0  0  0  0  0  0  0  0  0
    7.7268   13.2938   25.0482 C   0  0  0  0  0  0  0  0  0  0  0  0
    7.8779   13.8385   26.1107 O   0  0  0  0  0  0  0  0  0  0  0  0
    7.4214   11.9491   24.7402 N   0  0  0  0  0  0  0  0  0  0  0  0
    8.6989   11.1465   24.5651 C   0  0  0  0  0  0  0  0  0  0  0  0
    8.4433    9.7282   24.1412 C   0  0  0  0  0  0  0  0  0  0  0  0
    7.1655    9.5481   24.8547 C   0  0  0  0  0  0  0  0  0  0  0  0
    7.0863   10.8204   25.6108 C   0  0  0  0  0  0  0  0  0  0  0  0
  2  1  1  1
  2  3  1  0
  3  4  1  0
  4  5  2  0
  5  6  1  0
  6  7  2  0
  7  8  1  0
  8  9  2  0
  9 10  1  0
 10 11  2  0
 10 12  1  0
 12 13  1  0
 13 14  1  0
 14 15  1  0
 14 16  1  0
 14 17  1  0
  2 18  1  0
 18 19  2  0
 18 20  1  0
 20 21  1  0
 21 22  1  0
 22 23  1  0
 23 24  1  0
  9  4  1  0
 24 20  1  0
M  END
>  <energy_score>  (119) 
424.619955

>  <inchikey>  (119) 
FJJPHLJGSPZUDZ-UHFFFAOYSA-N

>  <smiles>  (119) 
C[C@@H](Sc1ncccc1C(=O)NCC(C)(C)C)C(=O)N1CCCC1

>  <ref_pdb>  (119) 
A3392a

>  <alias>  (119) 
C10549-P176

>  <HIPPO Pose ID>  (119) 
443770

>  <name>  (119) 
C10549-P176

>  <HIPPO Compound ID>  (119) 
10549

>  <ref_mols>  (119) 
A3392a,A1778a

>  <distance_score>  (119) 
2.236961

>  <inspiration_score>  (119) 
None

$$$$
C20145-P356
     RDKit          3D

 23 25  0  0  0  0  0  0  0  0999 V2000
   11.0253   13.0943   24.8572 O   0  0  0  0  0  0  0  0  0  0  0  0
   10.5486   14.1246   24.5531 C   0  0  0  0  0  0  0  0  0  0  0  0
    9.2481   14.6247   25.2355 C   0  0  0  0  0  0  0  0  0  0  0  0
    8.0420   14.5323   24.5091 O   0  0  0  0  0  0  0  0  0  0  0  0
    7.2094   13.3725   24.6662 C   0  0  2  0  0  0  0  0  0  0  0  0
    6.4926   13.3650   26.0157 C   0  0  0  0  0  0  0  0  0  0  0  0
    5.6537   12.1153   26.2108 C   0  0  0  0  0  0  0  0  0  0  0  0
    6.4023   10.8076   25.9360 C   0  0  0  0  0  0  0  0  0  0  0  0
    7.4955   10.8646   24.9108 C   0  0  0  0  0  0  0  0  0  0  0  0
    8.1383    9.6796   24.5177 C   0  0  0  0  0  0  0  0  0  0  0  0
    9.1402    9.6656   23.5605 C   0  0  0  0  0  0  0  0  0  0  0  0
    9.4250   10.8414   22.9144 C   0  0  0  0  0  0  0  0  0  0  0  0
    8.7666   12.0063   23.2664 C   0  0  0  0  0  0  0  0  0  0  0  0
    7.8678   12.0645   24.3191 C   0  0  0  0  0  0  0  0  0  0  0  0
   10.9762   15.1291   23.5072 N   0  0  0  0  0  0  0  0  0  0  0  0
   12.1692   15.1603   22.6320 C   0  0  0  0  0  0  0  0  0  0  0  0
   12.0590   16.1261   21.4990 C   0  0  0  0  0  0  0  0  0  0  0  0
   10.6350   15.9223   21.1645 C   0  0  1  0  0  0  0  0  0  0  0  0
   10.3537   15.5253   19.7503 C   0  0  0  0  0  0  0  0  0  0  0  0
   10.4397   16.5852   18.9244 F   0  0  0  0  0  0  0  0  0  0  0  0
   11.1750   14.5703   19.2806 F   0  0  0  0  0  0  0  0  0  0  0  0
    9.0848   15.0738   19.6969 F   0  0  0  0  0  0  0  0  0  0  0  0
   10.3226   14.8415   22.1658 C   0  0  0  0  0  0  0  0  0  0  0  0
  1  2  2  0
  2  3  1  0
  3  4  1  0
  5  4  1  1
  5  6  1  0
  6  7  1  0
  7  8  1  0
  8  9  1  0
  9 10  2  0
 10 11  1  0
 11 12  2  0
 12 13  1  0
 13 14  2  0
  2 15  1  0
 15 16  1  0
 16 17  1  0
 17 18  1  0
 18 19  1  6
 19 20  1  0
 19 21  1  0
 19 22  1  0
 18 23  1  0
 14  5  1  0
 23 15  1  0
 14  9  1  0
M  END
>  <energy_score>  (120) 
48.516359

>  <inchikey>  (120) 
ZHEXKJJYJURADK-UHFFFAOYSA-N

>  <smiles>  (120) 
O=C(CO[C@@H]1CCCc2ccccc21)N1CC[C@@H](C(F)(F)F)C1

>  <ref_pdb>  (120) 
A4418a

>  <alias>  (120) 
C20145-P356

>  <HIPPO Pose ID>  (120) 
448908

>  <name>  (120) 
C20145-P356

>  <HIPPO Compound ID>  (120) 
20145

>  <ref_mols>  (120) 
A1778a,A4418a

>  <distance_score>  (120) 
1.710392

>  <inspiration_score>  (120) 
None

$$$$
C27893-P356
     RDKit          3D

 22 24  0  0  0  0  0  0  0  0999 V2000
   11.4195   15.0970   18.3690 C   0  0  0  0  0  0  0  0  0  0  0  0
   11.1011   14.8094   19.7903 C   0  0  0  0  0  0  0  0  0  0  0  0
   11.9187   14.2790   20.5305 O   0  0  0  0  0  0  0  0  0  0  0  0
    9.7534   15.2550   20.2501 C   0  0  2  0  0  0  0  0  0  0  0  0
    9.8179   16.7120   20.3785 C   0  0  0  0  0  0  0  0  0  0  0  0
    9.2132   16.8212   21.7123 C   0  0  0  0  0  0  0  0  0  0  0  0
    8.2495   15.8064   22.1828 N   0  0  0  0  0  0  0  0  0  0  0  0
    7.8339   15.4140   23.5931 C   0  0  0  0  0  0  0  0  0  0  0  0
    8.2452   15.7756   24.6384 O   0  0  0  0  0  0  0  0  0  0  0  0
    6.6842   14.4108   23.5010 C   0  0  0  0  0  0  0  0  0  0  0  0
    6.2380   13.9112   24.7532 O   0  0  0  0  0  0  0  0  0  0  0  0
    7.1754   13.2987   25.6429 C   0  0  1  0  0  0  0  0  0  0  0  0
    6.2960   12.7048   26.7491 C   0  0  0  0  0  0  0  0  0  0  0  0
    5.5651   11.4798   26.2569 C   0  0  0  0  0  0  0  0  0  0  0  0
    6.5005   10.4247   25.6701 C   0  0  0  0  0  0  0  0  0  0  0  0
    7.6393   10.9377   24.8393 C   0  0  0  0  0  0  0  0  0  0  0  0
    8.3639   10.0628   24.0198 C   0  0  0  0  0  0  0  0  0  0  0  0
    9.4289   10.5315   23.2628 C   0  0  0  0  0  0  0  0  0  0  0  0
    9.8365   11.8544   23.3909 C   0  0  0  0  0  0  0  0  0  0  0  0
    9.1973   12.6941   24.2844 C   0  0  0  0  0  0  0  0  0  0  0  0
    8.0378   12.2746   24.9424 C   0  0  0  0  0  0  0  0  0  0  0  0
    9.3504   14.8957   21.6579 C   0  0  0  0  0  0  0  0  0  0  0  0
  1  2  1  0
  2  3  2  0
  4  2  1  1
  4  5  1  0
  5  6  1  0
  6  7  1  0
  7  8  1  0
  8  9  2  0
  8 10  1  0
 10 11  1  0
 12 11  1  6
 12 13  1  0
 13 14  1  0
 14 15  1  0
 15 16  1  0
 16 17  2  0
 17 18  1  0
 18 19  2  0
 19 20  1  0
 20 21  2  0
  7 22  1  0
 22  4  1  0
 21 12  1  0
 21 16  1  0
M  END
>  <energy_score>  (121) 
45.48201

>  <inchikey>  (121) 
FVBCHNDLKPVLMF-UHFFFAOYSA-N

>  <smiles>  (121) 
CC(=O)[C@@H]1CCN(C(=O)CO[C@H]2CCCc3ccccc32)C1

>  <ref_pdb>  (121) 
A4418a

>  <alias>  (121) 
C27893-P356

>  <HIPPO Pose ID>  (121) 
448914

>  <name>  (121) 
C27893-P356

>  <HIPPO Compound ID>  (121) 
27893

>  <ref_mols>  (121) 
A1778a,A4418a

>  <distance_score>  (121) 
1.94859

>  <inspiration_score>  (121) 
None

$$$$
C13661-P274
     RDKit          3D

 21 23  0  0  0  0  0  0  0  0999 V2000
    7.2102   14.9785   24.3972 C   0  0  0  0  0  0  0  0  0  0  0  0
    7.3749   13.8148   23.4176 C   0  0  2  0  0  0  0  0  0  0  0  0
    8.2889   12.3092   23.9793 S   0  0  0  0  0  0  0  0  0  0  0  0
    7.2550   11.6810   25.2606 C   0  0  0  0  0  0  0  0  0  0  0  0
    6.9321   12.4847   26.3350 C   0  0  0  0  0  0  0  0  0  0  0  0
    6.0842   12.0121   27.3247 C   0  0  0  0  0  0  0  0  0  0  0  0
    5.6024   10.7239   27.2321 C   0  0  0  0  0  0  0  0  0  0  0  0
    6.0124    9.9672   26.1537 C   0  0  0  0  0  0  0  0  0  0  0  0
    6.8406   10.4000   25.1787 N   0  0  0  0  0  0  0  0  0  0  0  0
    7.9653   14.3546   22.0964 C   0  0  0  0  0  0  0  0  0  0  0  0
    7.4067   14.1726   21.0773 O   0  0  0  0  0  0  0  0  0  0  0  0
    9.2082   15.1620   22.4009 N   0  0  0  0  0  0  0  0  0  0  0  0
   10.0290   16.0412   21.5282 C   0  0  0  0  0  0  0  0  0  0  0  0
   10.8028   15.4442   20.3994 C   0  0  0  0  0  0  0  0  0  0  0  0
   11.6258   14.6372   21.2965 C   0  0  0  0  0  0  0  0  0  0  0  0
   10.5204   14.2686   22.2757 C   0  0  1  0  0  0  0  0  0  0  0  0
   11.0901   14.0870   23.6676 C   0  0  0  0  0  0  0  0  0  0  0  0
   10.6719   14.7561   24.7177 N   0  0  0  0  0  0  0  0  0  0  0  0
   11.5818   14.6426   25.7290 C   0  0  0  0  0  0  0  0  0  0  0  0
   12.6503   13.8110   25.4811 C   0  0  0  0  0  0  0  0  0  0  0  0
   12.3821   13.0320   24.0049 S   0  0  0  0  0  0  0  0  0  0  0  0
  2  1  1  1
  2  3  1  0
  3  4  1  0
  4  5  2  0
  5  6  1  0
  6  7  2  0
  7  8  1  0
  8  9  2  0
  2 10  1  0
 10 11  2  0
 10 12  1  0
 12 13  1  0
 13 14  1  0
 14 15  1  0
 15 16  1  0
 16 17  1  1
 17 18  2  0
 18 19  1  0
 19 20  2  0
 20 21  1  0
  9  4  1  0
 16 12  1  0
 21 17  1  0
M  END
>  <energy_score>  (122) 
-12.339832

>  <inchikey>  (122) 
IMISIXHIMJCONY-UHFFFAOYSA-N

>  <smiles>  (122) 
C[C@H](Sc1ccccn1)C(=O)N1CCC[C@H]1c1nccs1

>  <ref_pdb>  (122) 
A4031a

>  <alias>  (122) 
C13661-P274

>  <HIPPO Pose ID>  (122) 
450577

>  <name>  (122) 
C13661-P274

>  <HIPPO Compound ID>  (122) 
13661

>  <ref_mols>  (122) 
A4031a,A1776a

>  <distance_score>  (122) 
2.431194

>  <inspiration_score>  (122) 
None

$$$$
C20940-P248
     RDKit          3D

 14 14  0  0  0  0  0  0  0  0999 V2000
   11.5158   15.1766   18.3832 C   0  0  0  0  0  0  0  0  0  0  0  0
   10.7113   15.3690   19.5619 C   0  0  0  0  0  0  0  0  0  0  0  0
   10.0107   15.4378   20.5259 C   0  0  0  0  0  0  0  0  0  0  0  0
    9.0886   15.4420   21.6440 C   0  0  0  0  0  0  0  0  0  0  0  0
    9.7544   14.8893   22.8942 C   0  0  0  0  0  0  0  0  0  0  0  0
    8.9262   13.8802   23.4870 N   0  0  0  0  0  0  0  0  0  0  0  0
    9.2343   12.4094   23.8365 C   0  0  0  0  0  0  0  0  0  0  0  0
   10.2292   11.8113   23.7685 O   0  0  0  0  0  0  0  0  0  0  0  0
    7.8849   11.7976   24.2210 C   0  0  1  0  0  0  0  0  0  0  0  0
    7.9311   10.3096   24.4894 C   0  0  0  0  0  0  0  0  0  0  0  0
    6.7990   10.0882   25.4724 C   0  0  0  0  0  0  0  0  0  0  0  0
    6.5919   11.4338   26.1016 C   0  0  0  0  0  0  0  0  0  0  0  0
    5.8771   11.6950   27.0509 O   0  0  0  0  0  0  0  0  0  0  0  0
    7.3487   12.3612   25.4279 N   0  0  0  0  0  0  0  0  0  0  0  0
  1  2  1  0
  2  3  3  0
  3  4  1  0
  4  5  1  0
  5  6  1  0
  6  7  1  0
  7  8  2  0
  9  7  1  1
  9 10  1  0
 10 11  1  0
 11 12  1  0
 12 13  2  0
 12 14  1  0
 14  9  1  0
M  END
>  <energy_score>  (123) 
9.051615

>  <inchikey>  (123) 
MLNMURZXNDQHPB-UHFFFAOYSA-N

>  <smiles>  (123) 
CC#CCCNC(=O)[C@H]1CCC(=O)N1

>  <ref_pdb>  (123) 
A3956a

>  <alias>  (123) 
C20940-P248

>  <HIPPO Pose ID>  (123) 
451909

>  <name>  (123) 
C20940-P248

>  <HIPPO Compound ID>  (123) 
20940

>  <ref_mols>  (123) 
A3956a,A1778a

>  <distance_score>  (123) 
1.19123

>  <inspiration_score>  (123) 
None

$$$$
C20970-P248
     RDKit          3D

 18 18  0  0  0  0  0  0  0  0999 V2000
   10.2512   16.0267   19.1475 C   0  0  0  0  0  0  0  0  0  0  0  0
   10.6326   14.9592   20.1485 C   0  0  0  0  0  0  0  0  0  0  0  0
   12.1281   14.7381   20.0742 C   0  0  0  0  0  0  0  0  0  0  0  0
   10.0306   15.1906   21.5455 C   0  0  0  0  0  0  0  0  0  0  0  0
   10.6573   14.2737   22.6030 C   0  0  2  0  0  0  0  0  0  0  0  0
    9.6561   13.7062   23.4984 N   0  0  0  0  0  0  0  0  0  0  0  0
    9.0409   12.2949   23.5447 C   0  0  0  0  0  0  0  0  0  0  0  0
    9.1795   11.3891   22.8298 O   0  0  0  0  0  0  0  0  0  0  0  0
    8.2364   12.1965   24.8128 C   0  0  1  0  0  0  0  0  0  0  0  0
    7.0486   13.1223   24.9260 C   0  0  0  0  0  0  0  0  0  0  0  0
    6.2266   12.4523   25.8878 N   0  0  0  0  0  0  0  0  0  0  0  0
    6.4468   11.0901   25.8661 C   0  0  0  0  0  0  0  0  0  0  0  0
    5.7784   10.2672   26.4611 O   0  0  0  0  0  0  0  0  0  0  0  0
    7.6201   10.8097   24.9816 C   0  0  0  0  0  0  0  0  0  0  0  0
   11.7626   14.9895   23.3830 C   0  0  0  0  0  0  0  0  0  0  0  0
   12.5290   15.7830   22.6199 F   0  0  0  0  0  0  0  0  0  0  0  0
   11.2398   15.7722   24.3614 F   0  0  0  0  0  0  0  0  0  0  0  0
   12.5698   14.1008   24.0136 F   0  0  0  0  0  0  0  0  0  0  0  0
  1  2  1  0
  2  3  1  0
  2  4  1  0
  5  4  1  6
  5  6  1  0
  6  7  1  0
  7  8  2  0
  9  7  1  6
  9 10  1  0
 10 11  1  0
 11 12  1  0
 12 13  2  0
 12 14  1  0
  5 15  1  0
 15 16  1  0
 15 17  1  0
 15 18  1  0
 14  9  1  0
M  END
>  <energy_score>  (124) 
6.680349

>  <inchikey>  (124) 
BULTUWPSNNDDDR-UHFFFAOYSA-N

>  <smiles>  (124) 
CC(C)C[C@H](NC(=O)[C@H]1CNC(=O)C1)C(F)(F)F

>  <ref_pdb>  (124) 
A3956a

>  <alias>  (124) 
C20970-P248

>  <HIPPO Pose ID>  (124) 
451933

>  <name>  (124) 
C20970-P248

>  <HIPPO Compound ID>  (124) 
20970

>  <ref_mols>  (124) 
A3956a,A1778a

>  <distance_score>  (124) 
1.249518

>  <inspiration_score>  (124) 
None

$$$$
C1418-P183
     RDKit          3D

 15 15  0  0  0  0  0  0  0  0999 V2000
   11.2471   14.4468   22.8568 C   0  0  0  0  0  0  0  0  0  0  0  0
    9.9276   14.3971   22.1020 C   0  0  0  0  0  0  0  0  0  0  0  0
    8.7636   14.0965   22.9921 C   0  0  0  0  0  0  0  0  0  0  0  0
    8.5110   12.9678   23.6843 C   0  0  0  0  0  0  0  0  0  0  0  0
    9.3362   11.7252   23.5510 C   0  0  0  0  0  0  0  0  0  0  0  0
    7.3131   13.0893   24.6090 C   0  0  0  0  0  0  0  0  0  0  0  0
    6.5261   13.9300   24.4318 O   0  0  0  0  0  0  0  0  0  0  0  0
    7.3802   11.9961   25.6942 N   0  0  0  0  0  0  0  0  0  0  0  0
    6.5417   11.7664   26.8475 C   0  0  0  0  0  0  0  0  0  0  0  0
    5.2305   12.5557   26.9249 C   0  0  2  0  0  0  0  0  0  0  0  0
    5.4705   14.0143   27.3302 C   0  0  0  0  0  0  0  0  0  0  0  0
    4.1771   14.8174   27.2230 C   0  0  0  0  0  0  0  0  0  0  0  0
    2.9403   13.9355   27.3883 C   0  0  0  0  0  0  0  0  0  0  0  0
    3.2076   12.7564   28.3211 C   0  0  0  0  0  0  0  0  0  0  0  0
    4.3557   11.9282   27.9420 N   0  0  0  0  0  0  0  0  0  0  0  0
  1  2  1  0
  2  3  1  0
  3  4  2  3
  4  5  1  0
  4  6  1  0
  6  7  2  0
  6  8  1  0
  8  9  1  0
 10  9  1  1
 10 11  1  0
 11 12  1  0
 12 13  1  0
 13 14  1  0
 14 15  1  0
 15 10  1  0
M  END
>  <energy_score>  (125) 
-8.335501

>  <inchikey>  (125) 
RJOSSQZKFJTYBT-UHFFFAOYSA-N

>  <smiles>  (125) 
CCC=C(C)C(=O)NC[C@@H]1CCCCN1

>  <ref_pdb>  (125) 
A3436a

>  <alias>  (125) 
C1418-P183

>  <HIPPO Pose ID>  (125) 
452795

>  <name>  (125) 
C1418-P183

>  <HIPPO Compound ID>  (125) 
1418

>  <ref_mols>  (125) 
A3436a,A4320a

>  <distance_score>  (125) 
1.110472

>  <inspiration_score>  (125) 
None

$$$$
C29678-P371
     RDKit          3D

 22 24  0  0  0  0  0  0  0  0999 V2000
    5.2607   13.6348   26.2269 C   0  0  0  0  0  0  0  0  0  0  0  0
    5.7135   12.2413   26.0043 C   0  0  0  0  0  0  0  0  0  0  0  0
    5.1262   11.1977   26.6064 N   0  0  0  0  0  0  0  0  0  0  0  0
    5.8207   10.1334   26.1485 N   0  0  0  0  0  0  0  0  0  0  0  0
    6.9018   10.4685   25.3846 C   0  0  0  0  0  0  0  0  0  0  0  0
    7.8519    9.6444   24.8971 N   0  0  0  0  0  0  0  0  0  0  0  0
    8.8361   10.3253   24.2537 C   0  0  0  0  0  0  0  0  0  0  0  0
    8.8403   11.7027   24.0308 C   0  0  0  0  0  0  0  0  0  0  0  0
    9.9830   12.4016   23.7012 N   0  0  0  0  0  0  0  0  0  0  0  0
   10.1934   13.9212   23.4161 C   0  0  0  0  0  0  0  0  0  0  0  0
    9.4169   14.7925   23.3422 O   0  0  0  0  0  0  0  0  0  0  0  0
   11.6930   14.1372   23.3426 C   0  0  1  0  0  0  0  0  0  0  0  0
   11.9957   15.3705   22.6154 C   0  0  0  0  0  0  0  0  0  0  0  0
   12.3032   16.3394   22.0630 N   0  0  0  0  0  0  0  0  0  0  0  0
   12.2827   14.2197   24.7925 C   0  0  0  0  0  0  0  0  0  0  0  0
   11.4566   15.0811   25.7856 C   0  0  0  0  0  0  0  0  0  0  0  0
   11.5215   14.5902   27.2332 C   0  0  0  0  0  0  0  0  0  0  0  0
   12.7992   14.0384   27.6513 N   0  0  0  0  0  0  0  0  0  0  0  0
   13.3999   13.0818   26.7321 C   0  0  0  0  0  0  0  0  0  0  0  0
   12.6019   12.8640   25.4432 C   0  0  0  0  0  0  0  0  0  0  0  0
    7.7585   12.4725   24.4350 C   0  0  0  0  0  0  0  0  0  0  0  0
    6.8080   11.8369   25.2161 C   0  0  0  0  0  0  0  0  0  0  0  0
  1  2  1  0
  2  3  2  0
  3  4  1  0
  4  5  1  0
  5  6  2  0
  6  7  1  0
  7  8  2  0
  8  9  1  0
  9 10  1  0
 10 11  2  0
 10 12  1  0
 12 13  1  1
 13 14  3  0
 12 15  1  0
 15 16  1  0
 16 17  1  0
 17 18  1  0
 18 19  1  0
 19 20  1  0
  8 21  1  0
 21 22  2  0
 22  2  1  0
 22  5  1  0
 20 15  1  0
M  END
>  <energy_score>  (126) 
-24.302969

>  <inchikey>  (126) 
FYJMSWTZCOGYII-UHFFFAOYSA-N

>  <smiles>  (126) 
Cc1n[nH]c2ncc(NC(=O)[C@@H](C#N)C3CCNCC3)cc12

>  <ref_pdb>  (126) 
A4456a

>  <alias>  (126) 
C29678-P371

>  <HIPPO Pose ID>  (126) 
454531

>  <name>  (126) 
C29678-P371

>  <HIPPO Compound ID>  (126) 
29678

>  <ref_mols>  (126) 
A4456a,A0310a

>  <distance_score>  (126) 
1.452147

>  <inspiration_score>  (126) 
None

$$$$
C17988-P145
     RDKit          3D

 22 25  0  0  0  0  0  0  0  0999 V2000
   20.0531   19.4050   18.0948 O   0  0  0  0  0  0  0  0  0  0  0  0
   20.7298   18.5250   18.5609 C   0  0  0  0  0  0  0  0  0  0  0  0
   21.5806   17.4673   17.8759 N   0  0  0  0  0  0  0  0  0  0  0  0
   21.8216   17.1492   16.3056 C   0  0  0  0  0  0  0  0  0  0  0  0
   21.4025   18.0121   14.5845 C   0  0  0  0  0  0  0  0  0  0  0  0
   21.5432   18.4798   13.1115 C   0  0  0  0  0  0  0  0  0  0  0  0
   23.4266   17.9037   12.9836 C   0  0  0  0  0  0  0  0  0  0  0  0
   23.9808   18.8203   11.3002 C   0  0  0  0  0  0  0  0  0  0  0  0
   23.1512   19.9098    9.9097 C   0  0  0  0  0  0  0  0  0  0  0  0
   23.3807   20.1223    8.5181 C   0  0  0  0  0  0  0  0  0  0  0  0
   22.2804   20.2351    7.7609 N   0  0  0  0  0  0  0  0  0  0  0  0
   21.1675   20.1353    8.5436 N   0  0  0  0  0  0  0  0  0  0  0  0
   21.3157   19.4605    9.7615 C   0  0  0  0  0  0  0  0  0  0  0  0
   20.3739   18.5694   11.3073 C   0  0  0  0  0  0  0  0  0  0  0  0
   20.8319   18.5305   20.0430 C   0  0  0  0  0  0  0  0  0  0  0  0
   21.6652   17.8009   20.8836 C   0  0  0  0  0  0  0  0  0  0  0  0
   21.3542   18.2432   22.1119 N   0  0  0  0  0  0  0  0  0  0  0  0
   20.4024   19.2042   22.0337 C   0  0  0  0  0  0  0  0  0  0  0  0
   20.0352   19.4100   20.8032 N   0  0  0  0  0  0  0  0  0  0  0  0
   20.0866   19.7651   23.3532 C   0  0  0  0  0  0  0  0  0  0  0  0
   21.2710   19.2385   24.1990 C   0  0  0  0  0  0  0  0  0  0  0  0
   21.8213   18.0066   23.4549 C   0  0  0  0  0  0  0  0  0  0  0  0
  1  2  2  0
  2  3  1  0
  3  4  1  0
  4  5  1  0
  5  6  1  0
  6  7  2  0
  7  8  1  0
  8  9  2  0
  9 10  1  0
 10 11  2  0
 11 12  1  0
 12 13  1  0
 13 14  2  0
  2 15  1  0
 15 16  2  0
 16 17  1  0
 17 18  1  0
 18 19  2  0
 18 20  1  0
 20 21  1  0
 21 22  1  0
 14  6  1  0
 19 15  1  0
 13  9  1  0
 22 17  1  0
M  END
>  <energy_score>  (127) 
899.349383

>  <inchikey>  (127) 
CPIBTNTZBHUDNS-UHFFFAOYSA-N

>  <smiles>  (127) 
O=C(NCCc1ccc2cn[nH]c2c1)c1cn2c(n1)CCC2

>  <ref_pdb>  (127) 
A3181b

>  <alias>  (127) 
C17988-P145

>  <HIPPO Pose ID>  (127) 
456545

>  <name>  (127) 
C17988-P145

>  <HIPPO Compound ID>  (127) 
17988

>  <ref_mols>  (127) 
A3181b,A0309a

>  <distance_score>  (127) 
6.127222

>  <inspiration_score>  (127) 
None

$$$$
C18032-P36
     RDKit          3D

 18 20  0  0  0  0  0  0  0  0999 V2000
   24.8266   24.3067   11.1260 O   0  0  0  0  0  0  0  0  0  0  0  0
   24.7281   23.1607   11.4199 C   0  0  0  0  0  0  0  0  0  0  0  0
   24.4998   21.8528   10.4814 N   0  0  0  0  0  0  0  0  0  0  0  0
   24.2426   21.7440    8.9420 C   0  0  0  0  0  0  0  0  0  0  0  0
   23.9856   20.4164    8.0184 C   0  0  0  0  0  0  0  0  0  0  0  0
   22.8226   19.8640    7.4431 C   0  0  0  0  0  0  0  0  0  0  0  0
   23.0773   18.8455    6.5315 N   0  0  0  0  0  0  0  0  0  0  0  0
   24.3829   18.8239    6.4310 C   0  0  0  0  0  0  0  0  0  0  0  0
   24.9678   19.7332    7.2896 N   0  0  0  0  0  0  0  0  0  0  0  0
   24.9227   22.9788   13.0377 C   0  0  0  0  0  0  0  0  0  0  0  0
   26.2172   22.9316   13.6214 C   0  0  0  0  0  0  0  0  0  0  0  0
   26.4673   22.8796   15.0402 C   0  0  0  0  0  0  0  0  0  0  0  0
   25.3709   22.8735   15.9189 C   0  0  0  0  0  0  0  0  0  0  0  0
   25.2511   22.7001   17.2781 N   0  0  0  0  0  0  0  0  0  0  0  0
   23.9842   22.7734   17.7443 N   0  0  0  0  0  0  0  0  0  0  0  0
   23.2753   22.9602   16.6260 C   0  0  0  0  0  0  0  0  0  0  0  0
   24.0757   23.0175   15.4452 C   0  0  0  0  0  0  0  0  0  0  0  0
   23.8697   23.1233   14.0098 C   0  0  0  0  0  0  0  0  0  0  0  0
  1  2  2  0
  2  3  1  0
  3  4  1  0
  4  5  1  0
  5  6  2  0
  6  7  1  0
  7  8  2  0
  8  9  1  0
  2 10  1  0
 10 11  2  0
 11 12  1  0
 12 13  2  0
 13 14  1  0
 14 15  1  0
 15 16  2  0
 16 17  1  0
 17 18  2  0
  9  5  1  0
 18 10  1  0
 17 13  1  0
M  END
>  <energy_score>  (128) 
56.878883

>  <inchikey>  (128) 
DVLVUUCTVLQLBO-UHFFFAOYSA-N

>  <smiles>  (128) 
O=C(NCc1cnc[nH]1)c1ccc2[nH]ncc2c1

>  <ref_pdb>  (128) 
A0309a

>  <alias>  (128) 
C18032-P36

>  <HIPPO Pose ID>  (128) 
456571

>  <name>  (128) 
C18032-P36

>  <HIPPO Compound ID>  (128) 
18032

>  <ref_mols>  (128) 
A3181b,A0309a

>  <distance_score>  (128) 
5.717983

>  <inspiration_score>  (128) 
None

$$$$
C43172-P115
     RDKit          3D

 20 21  0  0  0  0  0  0  0  0999 V2000
    5.0699   12.6381   20.5525 O   0  0  0  0  0  0  0  0  0  0  0  0
    4.5236   13.4066   21.2366 C   0  0  0  0  0  0  0  0  0  0  0  0
    5.3569   14.2600   22.2752 C   0  0  0  0  0  0  0  0  0  0  0  0
    6.8869   13.8464   22.3952 C   0  0  1  0  0  0  0  0  0  0  0  0
    7.7720   14.8484   23.0675 C   0  0  0  0  0  0  0  0  0  0  0  0
    9.0709   14.1707   23.5481 C   0  0  0  0  0  0  0  0  0  0  0  0
    8.7877   13.2165   24.6817 C   0  0  0  0  0  0  0  0  0  0  0  0
    7.5922   12.3607   24.3385 C   0  0  2  0  0  0  0  0  0  0  0  0
    7.9706   10.9003   24.7028 C   0  0  0  0  0  0  0  0  0  0  0  0
    8.9127   10.3666   23.8930 F   0  0  0  0  0  0  0  0  0  0  0  0
    8.4650   10.8725   25.9693 F   0  0  0  0  0  0  0  0  0  0  0  0
    6.9152   10.0744   24.7314 F   0  0  0  0  0  0  0  0  0  0  0  0
    7.2659   12.5676   22.9425 O   0  0  0  0  0  0  0  0  0  0  0  0
    3.0114   13.7065   21.4012 N   0  0  0  0  0  0  0  0  0  0  0  0
    1.8432   13.0456   20.8183 C   0  0  0  0  0  0  0  0  0  0  0  0
    1.2046   13.6751   19.6054 C   0  0  0  0  0  0  0  0  0  0  0  0
    1.0988   13.1837   18.3109 C   0  0  0  0  0  0  0  0  0  0  0  0
    0.3358   14.0902   17.6246 N   0  0  0  0  0  0  0  0  0  0  0  0
   -0.0215   15.0669   18.5108 C   0  0  0  0  0  0  0  0  0  0  0  0
    0.4613   14.8371   19.7161 N   0  0  0  0  0  0  0  0  0  0  0  0
  1  2  2  0
  2  3  1  0
  4  3  1  1
  4  5  1  0
  5  6  1  0
  6  7  1  0
  7  8  1  0
  8  9  1  6
  9 10  1  0
  9 11  1  0
  9 12  1  0
  8 13  1  0
  2 14  1  0
 14 15  1  0
 15 16  1  0
 16 17  2  0
 17 18  1  0
 18 19  1  0
 19 20  2  0
 13  4  1  0
 20 16  1  0
M  END
>  <energy_score>  (129) 
2.64362

>  <inchikey>  (129) 
KZXHPHICQMDTES-UHFFFAOYSA-N

>  <smiles>  (129) 
O=C(C[C@H]1CCC[C@H](C(F)(F)F)O1)NCc1c[nH]cn1

>  <ref_pdb>  (129) 
A1209a

>  <alias>  (129) 
C43172-P115

>  <HIPPO Pose ID>  (129) 
456823

>  <name>  (129) 
C43172-P115

>  <HIPPO Compound ID>  (129) 
43172

>  <ref_mols>  (129) 
A0473a,A1209a

>  <distance_score>  (129) 
3.602527

>  <inspiration_score>  (129) 
None

$$$$
C29694-P439
     RDKit          3D

 19 20  0  0  0  0  0  0  0  0999 V2000
   11.4858   14.8135   18.4798 C   0  0  0  0  0  0  0  0  0  0  0  0
   10.9937   15.3737   19.7573 C   0  0  0  0  0  0  0  0  0  0  0  0
    9.7744   16.0165   19.7828 C   0  0  0  0  0  0  0  0  0  0  0  0
    9.2005   16.2938   21.0052 C   0  0  0  0  0  0  0  0  0  0  0  0
    9.8483   15.7939   22.1166 C   0  0  0  0  0  0  0  0  0  0  0  0
    9.1221   14.8381   22.7943 N   0  0  0  0  0  0  0  0  0  0  0  0
    9.4669   14.0302   24.0637 C   0  0  0  0  0  0  0  0  0  0  0  0
   10.3848   14.1018   24.7789 O   0  0  0  0  0  0  0  0  0  0  0  0
    8.3738   12.9847   24.1670 C   0  0  1  0  0  0  0  0  0  0  0  0
    9.0672   11.7507   24.5399 C   0  0  0  0  0  0  0  0  0  0  0  0
    9.6818   10.7782   24.6819 N   0  0  0  0  0  0  0  0  0  0  0  0
    7.0430   13.3978   24.8013 C   0  0  0  0  0  0  0  0  0  0  0  0
    6.2236   12.2099   25.3185 C   0  0  0  0  0  0  0  0  0  0  0  0
    6.5660   11.8034   26.7434 C   0  0  0  0  0  0  0  0  0  0  0  0
    6.4914   12.9456   27.6479 N   0  0  0  0  0  0  0  0  0  0  0  0
    7.4106   14.0098   27.2363 C   0  0  0  0  0  0  0  0  0  0  0  0
    7.0812   14.5202   25.8447 C   0  0  0  0  0  0  0  0  0  0  0  0
   11.1977   15.4820   22.0335 C   0  0  0  0  0  0  0  0  0  0  0  0
   11.7586   15.2024   20.8532 N   0  0  0  0  0  0  0  0  0  0  0  0
  1  2  1  0
  2  3  2  0
  3  4  1  0
  4  5  2  0
  5  6  1  0
  6  7  1  0
  7  8  2  0
  7  9  1  0
  9 10  1  1
 10 11  3  0
  9 12  1  0
 12 13  1  0
 13 14  1  0
 14 15  1  0
 15 16  1  0
 16 17  1  0
  5 18  1  0
 18 19  2  0
 19  2  1  0
 17 12  1  0
M  END
>  <energy_score>  (130) 
10.700281

>  <inchikey>  (130) 
JKACJOUKLURBPE-UHFFFAOYSA-N

>  <smiles>  (130) 
Cc1ccc(NC(=O)[C@@H](C#N)C2CCNCC2)cn1

>  <ref_pdb>  (130) 
A4706a

>  <alias>  (130) 
C29694-P439

>  <HIPPO Pose ID>  (130) 
456851

>  <name>  (130) 
C29694-P439

>  <HIPPO Compound ID>  (130) 
29694

>  <ref_mols>  (130) 
A0310a,A4706a

>  <distance_score>  (130) 
1.505652

>  <inspiration_score>  (130) 
None

$$$$
C10567-P182
     RDKit          3D

 22 23  0  0  0  0  0  0  0  0999 V2000
   15.8703   11.1043   21.3126 C   0  0  0  0  0  0  0  0  0  0  0  0
   14.1345   11.0252   20.6510 C   0  0  0  0  0  0  0  0  0  0  0  0
   13.8042   10.2555   19.8427 O   0  0  0  0  0  0  0  0  0  0  0  0
   13.1040   12.3192   21.6563 N   0  0  0  0  0  0  0  0  0  0  0  0
   11.6468   12.5720   21.7176 C   0  0  0  0  0  0  0  0  0  0  0  0
   10.3864   11.8505   22.5307 C   0  0  1  0  0  0  0  0  0  0  0  0
   10.0945   10.3579   22.6535 C   0  0  0  0  0  0  0  0  0  0  0  0
    9.1469   10.2821   23.8023 C   0  0  0  0  0  0  0  0  0  0  0  0
    9.0263   11.8729   24.4190 C   0  0  0  0  0  0  0  0  0  0  0  0
    7.7643   12.3144   24.0320 N   0  0  0  0  0  0  0  0  0  0  0  0
    7.2526   13.2851   23.2046 C   0  0  0  0  0  0  0  0  0  0  0  0
    7.0149   13.0961   22.0153 O   0  0  0  0  0  0  0  0  0  0  0  0
    6.8802   14.5935   23.8731 C   0  0  1  0  0  0  0  0  0  0  0  0
    7.6748   15.0067   25.0961 C   0  0  0  0  0  0  0  0  0  0  0  0
    6.6016   15.8801   22.6175 S   0  0  0  0  0  0  0  0  0  0  0  0
    8.1180   15.8998   21.6717 C   0  0  0  0  0  0  0  0  0  0  0  0
    8.3237   16.7995   20.6418 C   0  0  0  0  0  0  0  0  0  0  0  0
    9.4544   16.7025   19.8491 C   0  0  0  0  0  0  0  0  0  0  0  0
   10.4334   15.8210   20.2011 C   0  0  0  0  0  0  0  0  0  0  0  0
   10.3067   15.3024   21.4540 C   0  0  0  0  0  0  0  0  0  0  0  0
    9.1528   15.1806   22.1262 N   0  0  0  0  0  0  0  0  0  0  0  0
    9.6609   12.4719   23.9689 C   0  0  0  0  0  0  0  0  0  0  0  0
  1  2  1  0
  2  3  2  0
  2  4  1  0
  4  5  1  0
  6  5  1  1
  6  7  1  0
  7  8  1  0
  8  9  1  0
  9 10  1  0
 10 11  1  0
 11 12  2  0
 11 13  1  0
 13 14  1  1
 13 15  1  0
 15 16  1  0
 16 17  2  0
 17 18  1  0
 18 19  2  0
 19 20  1  0
 20 21  2  0
 10 22  1  0
 22  6  1  0
 21 16  1  0
M  END
>  <energy_score>  (131) 
717.291892

>  <inchikey>  (131) 
IAONGZSOXIKTBP-UHFFFAOYSA-N

>  <smiles>  (131) 
CC(=O)NC[C@H]1CCCN(C(=O)[C@@H](C)Sc2ccccn2)C1

>  <ref_pdb>  (131) 
A3435a

>  <alias>  (131) 
C10567-P182

>  <HIPPO Pose ID>  (131) 
458751

>  <name>  (131) 
C10567-P182

>  <HIPPO Compound ID>  (131) 
10567

>  <ref_mols>  (131) 
A1776a,A3435a

>  <distance_score>  (131) 
2.276783

>  <inspiration_score>  (131) 
None

$$$$
C20308-P95
     RDKit          3D

 21 23  0  0  0  0  0  0  0  0999 V2000
   13.0772   16.7774   26.9740 C   0  0  0  0  0  0  0  0  0  0  0  0
   11.9695   16.4951   25.9045 C   0  0  2  0  0  0  0  0  0  0  0  0
   12.0882   17.8671   24.5159 O   0  0  0  0  0  0  0  0  0  0  0  0
   11.9535   18.4668   22.7201 C   0  0  0  0  0  0  0  0  0  0  0  0
   12.0016   17.8854   21.6797 O   0  0  0  0  0  0  0  0  0  0  0  0
   11.4546   20.6204   22.8506 C   0  0  0  0  0  0  0  0  0  0  0  0
   12.0877   21.3218   23.8582 C   0  0  0  0  0  0  0  0  0  0  0  0
   11.0515   20.4789   24.2597 C   0  0  0  0  0  0  0  0  0  0  0  0
   10.4593   18.3188   24.1521 C   0  0  0  0  0  0  0  0  0  0  0  0
    9.5517   16.8929   25.4208 C   0  0  0  0  0  0  0  0  0  0  0  0
    9.2716   18.0179   26.0996 C   0  0  0  0  0  0  0  0  0  0  0  0
   10.4474   21.9786   24.8897 N   0  0  0  0  0  0  0  0  0  0  0  0
   10.5122   22.9065   23.8500 C   0  0  0  0  0  0  0  0  0  0  0  0
   10.3127   24.0910   24.0238 O   0  0  0  0  0  0  0  0  0  0  0  0
   11.1877   22.0667   22.5760 C   0  0  0  0  0  0  0  0  0  0  0  0
   10.7477   15.3049   26.3818 C   0  0  0  0  0  0  0  0  0  0  0  0
   10.1903   15.4410   27.6404 C   0  0  0  0  0  0  0  0  0  0  0  0
    8.8347   15.2230   27.9196 N   0  0  0  0  0  0  0  0  0  0  0  0
    8.0273   14.7309   26.9033 C   0  0  0  0  0  0  0  0  0  0  0  0
    8.5800   14.3684   25.6638 C   0  0  0  0  0  0  0  0  0  0  0  0
    9.9585   14.5907   25.4340 N   0  0  0  0  0  0  0  0  0  0  0  0
  2  1  1  1
  2  3  1  0
  3  4  1  0
  4  5  2  0
  4  6  1  0
  6  7  1  0
  7  8  2  0
  8  9  1  0
  9 10  1  0
 10 11  1  0
  8 12  1  0
 12 13  1  0
 13 14  2  0
 13 15  1  0
  2 16  1  0
 16 17  2  0
 17 18  1  0
 18 19  2  0
 19 20  1  0
 20 21  2  0
 15  6  2  0
 21 16  1  0
 11  9  1  0
M  END
>  <energy_score>  (132) 
1562.0036

>  <inchikey>  (132) 
DSFDBKRLVJNMKP-UHFFFAOYSA-N

>  <smiles>  (132) 
C[C@H](OC(=O)c1cc(C2CC2)[nH]c(=O)c1)c1cnccn1

>  <ref_pdb>  (132) 
A1068a

>  <alias>  (132) 
C20308-P95

>  <HIPPO Pose ID>  (132) 
458922

>  <name>  (132) 
C20308-P95

>  <HIPPO Compound ID>  (132) 
20308

>  <ref_mols>  (132) 
A0525a,A1068a

>  <distance_score>  (132) 
4.57873

>  <inspiration_score>  (132) 
None

$$$$
C29671-P492
     RDKit          3D

 22 24  0  0  0  0  0  0  0  0999 V2000
    8.7795    8.7863   23.9845 C   0  0  0  0  0  0  0  0  0  0  0  0
    7.9912    9.8035   24.7589 C   0  0  0  0  0  0  0  0  0  0  0  0
    6.9268    9.5378   25.6286 C   0  0  0  0  0  0  0  0  0  0  0  0
    6.2051   10.5026   26.3305 C   0  0  0  0  0  0  0  0  0  0  0  0
    6.5532   11.8328   26.2153 C   0  0  0  0  0  0  0  0  0  0  0  0
    7.5907   12.1233   25.3307 C   0  0  0  0  0  0  0  0  0  0  0  0
    8.3684   13.6200   25.0169 S   0  0  0  0  0  0  0  0  0  0  0  0
    9.2845   12.8336   23.8523 C   0  0  0  0  0  0  0  0  0  0  0  0
   10.1513   13.4949   23.1151 N   0  0  0  0  0  0  0  0  0  0  0  0
   11.1053   14.6454   23.4839 C   0  0  0  0  0  0  0  0  0  0  0  0
   11.2207   15.2405   24.4766 O   0  0  0  0  0  0  0  0  0  0  0  0
   11.7917   14.8758   22.1875 C   0  0  2  0  0  0  0  0  0  0  0  0
   12.9216   15.7288   22.3058 C   0  0  0  0  0  0  0  0  0  0  0  0
   13.6653   16.5595   22.0251 N   0  0  0  0  0  0  0  0  0  0  0  0
   10.8887   15.6683   21.2647 C   0  0  0  0  0  0  0  0  0  0  0  0
    9.5091   16.1161   21.7315 C   0  0  0  0  0  0  0  0  0  0  0  0
    9.2095   17.3563   20.9091 C   0  0  0  0  0  0  0  0  0  0  0  0
    9.8736   17.3367   19.6069 N   0  0  0  0  0  0  0  0  0  0  0  0
   10.1059   16.0577   18.9528 C   0  0  0  0  0  0  0  0  0  0  0  0
   10.7763   15.0557   19.8749 C   0  0  0  0  0  0  0  0  0  0  0  0
    9.0663   11.5925   23.6002 N   0  0  0  0  0  0  0  0  0  0  0  0
    8.2252   11.1476   24.5616 C   0  0  0  0  0  0  0  0  0  0  0  0
  1  2  1  0
  2  3  2  0
  3  4  1  0
  4  5  2  0
  5  6  1  0
  6  7  1  0
  7  8  1  0
  8  9  1  0
  9 10  1  0
 10 11  2  0
 10 12  1  0
 12 13  1  1
 13 14  3  0
 12 15  1  0
 15 16  1  0
 16 17  1  0
 17 18  1  0
 18 19  1  0
 19 20  1  0
  8 21  2  0
 21 22  1  0
 22  2  1  0
 22  6  2  0
 20 15  1  0
M  END
>  <energy_score>  (133) 
4.750882

>  <inchikey>  (133) 
MKPOMUBYMPSDBU-UHFFFAOYSA-N

>  <smiles>  (133) 
Cc1cccc2sc(NC(=O)[C@H](C#N)C3CCNCC3)nc12

>  <ref_pdb>  (133) 
A4873a

>  <alias>  (133) 
C29671-P492

>  <HIPPO Pose ID>  (133) 
459884

>  <name>  (133) 
C29671-P492

>  <HIPPO Compound ID>  (133) 
29671

>  <ref_mols>  (133) 
A4873a,A0310a

>  <distance_score>  (133) 
1.960457

>  <inspiration_score>  (133) 
None

$$$$
C4820-P371
     RDKit          3D

 21 22  0  0  0  0  0  0  0  0999 V2000
   10.0906   15.2797   19.1201 C   0  0  0  0  0  0  0  0  0  0  0  0
   10.6491   15.8817   20.4058 C   0  0  0  0  0  0  0  0  0  0  0  0
   10.1651   17.3260   20.4523 C   0  0  0  0  0  0  0  0  0  0  0  0
   12.1361   15.6566   20.2837 C   0  0  0  0  0  0  0  0  0  0  0  0
   12.6555   14.8086   19.5693 O   0  0  0  0  0  0  0  0  0  0  0  0
   12.9135   16.4151   21.0778 O   0  0  0  0  0  0  0  0  0  0  0  0
   10.2330   15.2514   21.6524 N   0  0  0  0  0  0  0  0  0  0  0  0
    8.9500   14.9898   22.0486 C   0  0  0  0  0  0  0  0  0  0  0  0
    9.0280   14.7562   23.3936 C   0  0  0  0  0  0  0  0  0  0  0  0
    8.0482   14.2964   24.2014 N   0  0  0  0  0  0  0  0  0  0  0  0
    6.5435   14.0450   23.9175 C   0  0  0  0  0  0  0  0  0  0  0  0
    5.9059   14.2695   22.9669 O   0  0  0  0  0  0  0  0  0  0  0  0
    6.0733   13.3065   25.1849 C   0  0  0  0  0  0  0  0  0  0  0  0
    7.1542   12.5215   25.7479 O   0  0  0  0  0  0  0  0  0  0  0  0
    7.6443   11.5159   24.8501 C   0  0  0  0  0  0  0  0  0  0  0  0
    9.1697   11.4384   24.8709 C   0  0  0  0  0  0  0  0  0  0  0  0
    9.5017   10.0548   24.3437 C   0  0  0  0  0  0  0  0  0  0  0  0
    8.2493    9.2252   24.5626 C   0  0  0  0  0  0  0  0  0  0  0  0
    7.2647   10.1254   25.2991 C   0  0  0  0  0  0  0  0  0  0  0  0
   10.3767   14.9064   23.7393 C   0  0  0  0  0  0  0  0  0  0  0  0
   11.1228   15.1616   22.6781 N   0  0  0  0  0  0  0  0  0  0  0  0
  1  2  1  0
  2  3  1  0
  2  4  1  0
  4  5  2  0
  4  6  1  0
  2  7  1  0
  7  8  1  0
  8  9  2  0
  9 10  1  0
 10 11  1  0
 11 12  2  0
 11 13  1  0
 13 14  1  0
 14 15  1  0
 15 16  1  0
 16 17  1  0
 17 18  1  0
 18 19  1  0
  9 20  1  0
 20 21  2  0
 21  7  1  0
 19 15  1  0
M  END
>  <energy_score>  (134) 
-39.857324

>  <inchikey>  (134) 
YKFCDWMBODQRLV-UHFFFAOYSA-N

>  <smiles>  (134) 
CC(C)(C(=O)O)n1cc(NC(=O)COC2CCCC2)cn1

>  <ref_pdb>  (134) 
A4456a

>  <alias>  (134) 
C4820-P371

>  <HIPPO Pose ID>  (134) 
460087

>  <name>  (134) 
C4820-P371

>  <HIPPO Compound ID>  (134) 
4820

>  <ref_mols>  (134) 
A4456a,A0556a

>  <distance_score>  (134) 
1.310113

>  <inspiration_score>  (134) 
None

$$$$
C28323-P198
     RDKit          3D

 18 18  0  0  0  0  0  0  0  0999 V2000
    6.4631   12.8496   24.3948 C   0  0  0  0  0  0  0  0  0  0  0  0
    7.6558   12.7764   24.3112 C   0  0  0  0  0  0  0  0  0  0  0  0
    9.0982   12.7768   24.5388 C   0  0  2  0  0  0  0  0  0  0  0  0
    9.5430   14.2419   24.7093 C   0  0  0  0  0  0  0  0  0  0  0  0
   10.2873   14.8539   23.6656 N   0  0  0  0  0  0  0  0  0  0  0  0
   11.7773   14.7103   23.2776 C   0  0  0  0  0  0  0  0  0  0  0  0
   12.6056   14.0096   23.7060 O   0  0  0  0  0  0  0  0  0  0  0  0
   12.0560   15.7831   22.2301 C   0  0  0  0  0  0  0  0  0  0  0  0
   11.3175   15.5911   20.9724 C   0  0  0  0  0  0  0  0  0  0  0  0
   10.1377   16.1630   20.5489 C   0  0  0  0  0  0  0  0  0  0  0  0
    9.7927   15.8814   19.2491 N   0  0  0  0  0  0  0  0  0  0  0  0
   10.7090   15.1067   18.7201 C   0  0  0  0  0  0  0  0  0  0  0  0
   12.0080   14.6847   19.7152 S   0  0  0  0  0  0  0  0  0  0  0  0
    9.9571   11.7766   23.7285 C   0  0  0  0  0  0  0  0  0  0  0  0
    9.5142   10.2038   23.8197 C   0  0  0  0  0  0  0  0  0  0  0  0
   10.4792    8.9970   23.7777 C   0  0  0  0  0  0  0  0  0  0  0  0
    8.2272    9.9135   24.6448 C   0  0  0  0  0  0  0  0  0  0  0  0
    9.0795    9.9849   22.4536 C   0  0  0  0  0  0  0  0  0  0  0  0
  1  2  3  0
  3  2  1  6
  3  4  1  0
  4  5  1  0
  5  6  1  0
  6  7  2  0
  6  8  1  0
  8  9  1  0
  9 10  2  0
 10 11  1  0
 11 12  2  0
 12 13  1  0
  3 14  1  0
 14 15  1  0
 15 16  1  0
 15 17  1  0
 15 18  1  0
 13  9  1  0
M  END
>  <energy_score>  (135) 
-21.141402

>  <inchikey>  (135) 
XCYLQKXLCZOTSZ-UHFFFAOYSA-N

>  <smiles>  (135) 
C#C[C@H](CNC(=O)Cc1cncs1)CC(C)(C)C

>  <ref_pdb>  (135) 
A3618a

>  <alias>  (135) 
C28323-P198

>  <HIPPO Pose ID>  (135) 
463188

>  <name>  (135) 
C28323-P198

>  <HIPPO Compound ID>  (135) 
28323

>  <ref_mols>  (135) 
A3306a,A3618a

>  <distance_score>  (135) 
1.490671

>  <inspiration_score>  (135) 
None

$$$$
C38131-P71
     RDKit          3D

 20 22  0  0  0  0  0  0  0  0999 V2000
   15.2663   14.3423   -0.4402 O   0  0  0  0  0  0  0  0  0  0  0  0
   15.6274   14.0547    0.6427 C   0  0  0  0  0  0  0  0  0  0  0  0
   14.5600   14.0020    1.8216 C   0  0  0  0  0  0  0  0  0  0  0  0
   13.2596   14.8866    1.6360 C   0  0  0  0  0  0  0  0  0  0  0  0
   11.8614   14.3205    1.5368 C   0  0  0  0  0  0  0  0  0  0  0  0
   10.8233   14.9021    2.1207 N   0  0  0  0  0  0  0  0  0  0  0  0
    9.6489   14.2734    1.7403 C   0  0  0  0  0  0  0  0  0  0  0  0
    9.7998   13.1872    0.9101 C   0  0  0  0  0  0  0  0  0  0  0  0
   11.4592   12.9767    0.5416 S   0  0  0  0  0  0  0  0  0  0  0  0
   17.0557   13.5838    1.1590 N   0  0  0  0  0  0  0  0  0  0  0  0
   18.3053   13.2808    0.4028 C   0  0  0  0  0  0  0  0  0  0  0  0
   19.7714   13.9116    0.6242 C   0  0  1  0  0  0  0  0  0  0  0  0
   20.2615   13.9569    2.0852 C   0  0  0  0  0  0  0  0  0  0  0  0
   21.7689   14.1365    2.3293 C   0  0  0  0  0  0  0  0  0  0  0  0
   22.6022   13.5886    1.3063 N   0  0  0  0  0  0  0  0  0  0  0  0
   23.9475   13.4663    1.3205 C   0  0  0  0  0  0  0  0  0  0  0  0
   24.3457   13.0848    0.1295 N   0  0  0  0  0  0  0  0  0  0  0  0
   23.2336   12.9281   -0.6636 N   0  0  0  0  0  0  0  0  0  0  0  0
   22.1844   13.2318    0.0644 C   0  0  0  0  0  0  0  0  0  0  0  0
   20.7626   13.1709   -0.3302 C   0  0  0  0  0  0  0  0  0  0  0  0
  1  2  2  0
  2  3  1  0
  3  4  1  0
  4  5  1  0
  5  6  2  0
  6  7  1  0
  7  8  2  0
  8  9  1  0
  2 10  1  0
 10 11  1  0
 12 11  1  1
 12 13  1  0
 13 14  1  0
 14 15  1  0
 15 16  1  0
 16 17  2  0
 17 18  1  0
 18 19  2  0
 19 20  1  0
  9  5  1  0
 20 12  1  0
 19 15  1  0
M  END
>  <energy_score>  (136) 
-22.085874

>  <inchikey>  (136) 
VSVXIUZTPMFJAC-UHFFFAOYSA-N

>  <smiles>  (136) 
O=C(CCc1nccs1)NC[C@H]1CCn2cnnc2C1

>  <ref_pdb>  (136) 
A0428a

>  <alias>  (136) 
C38131-P71

>  <HIPPO Pose ID>  (136) 
464274

>  <name>  (136) 
C38131-P71

>  <HIPPO Compound ID>  (136) 
38131

>  <ref_mols>  (136) 
A0239a,A0428a

>  <distance_score>  (136) 
6.00932

>  <inspiration_score>  (136) 
None

$$$$
C14078-P135
     RDKit          3D

 21 22  0  0  0  0  0  0  0  0999 V2000
    7.1069   10.6516   25.6033 C   0  0  0  0  0  0  0  0  0  0  0  0
    7.0541   11.8380   24.8223 O   0  0  0  0  0  0  0  0  0  0  0  0
    8.2633   12.2631   24.3520 C   0  0  0  0  0  0  0  0  0  0  0  0
    9.4508   12.1041   25.0393 C   0  0  0  0  0  0  0  0  0  0  0  0
   10.6306   12.5592   24.4569 C   0  0  0  0  0  0  0  0  0  0  0  0
   10.6213   13.1449   23.1936 C   0  0  0  0  0  0  0  0  0  0  0  0
   11.9531   13.5204   22.5574 C   0  0  0  0  0  0  0  0  0  0  0  0
   11.9187   14.0589   21.0932 C   0  0  0  0  0  0  0  0  0  0  0  0
   12.8110   15.0721   20.4366 N   0  0  0  0  0  0  0  0  0  0  0  0
   12.2554   15.9496   21.5217 C   0  0  0  0  0  0  0  0  0  0  0  0
   12.7010   15.7314   19.1614 C   0  0  0  0  0  0  0  0  0  0  0  0
   11.8181   15.7050   18.3373 O   0  0  0  0  0  0  0  0  0  0  0  0
   13.9614   16.5720   18.8473 C   0  0  1  0  0  0  0  0  0  0  0  0
   13.7526   17.4091   17.5833 C   0  0  0  0  0  0  0  0  0  0  0  0
   14.9413   18.3295   17.3750 C   0  0  0  0  0  0  0  0  0  0  0  0
   15.0610   19.2782   18.5555 C   0  0  0  0  0  0  0  0  0  0  0  0
   15.0793   18.5624   19.8848 C   0  0  0  0  0  0  0  0  0  0  0  0
   15.6257   19.0456   20.8740 O   0  0  0  0  0  0  0  0  0  0  0  0
   14.3861   17.3962   19.9766 N   0  0  0  0  0  0  0  0  0  0  0  0
    9.3669   13.3068   22.6202 C   0  0  0  0  0  0  0  0  0  0  0  0
    8.1967   12.8870   23.1648 N   0  0  0  0  0  0  0  0  0  0  0  0
  1  2  1  0
  2  3  1  0
  3  4  2  0
  4  5  1  0
  5  6  2  0
  6  7  1  0
  7  8  1  0
  8  9  1  0
  9 10  1  0
  9 11  1  0
 11 12  2  0
 13 11  1  1
 13 14  1  0
 14 15  1  0
 15 16  1  0
 16 17  1  0
 17 18  2  0
 17 19  1  0
  6 20  1  0
 20 21  2  0
 21  3  1  0
 19 13  1  0
M  END
>  <energy_score>  (137) 
69.829139

>  <inchikey>  (137) 
BJINXMMGATXGDH-UHFFFAOYSA-N

>  <smiles>  (137) 
COc1ccc(CCN(C)C(=O)[C@H]2CCCC(=O)N2)cn1

>  <ref_pdb>  (137) 
A2629a

>  <alias>  (137) 
C14078-P135

>  <HIPPO Pose ID>  (137) 
467135

>  <name>  (137) 
C14078-P135

>  <HIPPO Compound ID>  (137) 
14078

>  <ref_mols>  (137) 
A3956a,A2629a

>  <distance_score>  (137) 
3.185144

>  <inspiration_score>  (137) 
None

$$$$
C1002-P233
     RDKit          3D

 20 22  0  0  0  0  0  0  0  0999 V2000
   30.3043    7.9564    1.3616 C   0  0  0  0  0  0  0  0  0  0  0  0
   30.0455    9.0362    1.8197 C   0  0  0  0  0  0  0  0  0  0  0  0
   29.7414   10.3605    2.3824 C   0  0  2  0  0  0  0  0  0  0  0  0
   28.4210   10.7529    1.9602 N   0  0  0  0  0  0  0  0  0  0  0  0
   27.4960   11.8849    2.4730 C   0  0  0  0  0  0  0  0  0  0  0  0
   27.6912   12.7207    3.2624 O   0  0  0  0  0  0  0  0  0  0  0  0
   26.1812   11.7772    1.6914 C   0  0  2  0  0  0  0  0  0  0  0  0
   26.3704   12.0856    0.1937 C   0  0  0  0  0  0  0  0  0  0  0  0
   25.0579   11.8821   -0.5674 C   0  0  0  0  0  0  0  0  0  0  0  0
   23.9360   12.5675    0.1144 C   0  0  0  0  0  0  0  0  0  0  0  0
   22.7741   12.9281   -0.3822 N   0  0  0  0  0  0  0  0  0  0  0  0
   22.0667   13.5528    0.6198 N   0  0  0  0  0  0  0  0  0  0  0  0
   22.8115   13.5576    1.7069 C   0  0  0  0  0  0  0  0  0  0  0  0
   22.4726   14.1646    3.0067 C   0  0  0  0  0  0  0  0  0  0  0  0
   23.9879   12.9198    1.4345 N   0  0  0  0  0  0  0  0  0  0  0  0
   25.1403   12.7399    2.2933 C   0  0  0  0  0  0  0  0  0  0  0  0
   30.7094   11.4052    1.8337 C   0  0  0  0  0  0  0  0  0  0  0  0
   30.7627   12.7932    2.5379 C   0  0  0  0  0  0  0  0  0  0  0  0
   32.2813   12.7893    2.2765 C   0  0  0  0  0  0  0  0  0  0  0  0
   32.1990   11.2508    2.2644 C   0  0  0  0  0  0  0  0  0  0  0  0
  1  2  3  0
  3  2  1  6
  3  4  1  0
  4  5  1  0
  5  6  2  0
  7  5  1  1
  7  8  1  0
  8  9  1  0
  9 10  1  0
 10 11  2  0
 11 12  1  0
 12 13  2  0
 13 14  1  0
 13 15  1  0
 15 16  1  0
  3 17  1  0
 17 18  1  0
 18 19  1  0
 19 20  1  0
 16  7  1  0
 20 17  1  0
 15 10  1  0
M  END
>  <energy_score>  (138) 
-8.238322

>  <inchikey>  (138) 
LRTLCHQEZXDGPD-UHFFFAOYSA-N

>  <smiles>  (138) 
C#C[C@H](NC(=O)[C@@H]1CCc2nnc(C)n2C1)C1CCC1

>  <ref_pdb>  (138) 
A3890a

>  <alias>  (138) 
C1002-P233

>  <HIPPO Pose ID>  (138) 
474246

>  <name>  (138) 
C1002-P233

>  <HIPPO Compound ID>  (138) 
1002

>  <ref_mols>  (138) 
A3890a,A0239a

>  <distance_score>  (138) 
0.34466

>  <inspiration_score>  (138) 
None

$$$$
C10333-P564
     RDKit          3D

 23 25  0  0  0  0  0  0  0  0999 V2000
   13.3527   13.9023   19.4835 C   0  0  0  0  0  0  0  0  0  0  0  0
   13.0497   12.0021   19.3295 C   0  0  0  0  0  0  0  0  0  0  0  0
   11.5585   13.3914   19.0149 C   0  0  0  0  0  0  0  0  0  0  0  0
   13.4443    9.9415   19.9486 C   0  0  1  0  0  0  0  0  0  0  0  0
   14.3484    8.0994   20.7000 N   0  0  0  0  0  0  0  0  0  0  0  0
   14.1366    5.9369   20.5123 C   0  0  0  0  0  0  0  0  0  0  0  0
   13.4867    5.2432   19.7754 O   0  0  0  0  0  0  0  0  0  0  0  0
   15.3438    5.2891   22.2844 C   0  0  0  0  0  0  0  0  0  0  0  0
   15.6179    3.7281   23.1339 C   0  0  1  0  0  0  0  0  0  0  0  0
   14.5626    2.7616   23.5787 C   0  0  0  0  0  0  0  0  0  0  0  0
   15.1719    2.1753   24.8030 C   0  0  0  0  0  0  0  0  0  0  0  0
   16.7040    1.9637   24.8334 C   0  0  0  0  0  0  0  0  0  0  0  0
   17.2776    1.8251   23.4619 C   0  0  0  0  0  0  0  0  0  0  0  0
   16.8320    2.9382   22.6592 N   0  0  0  0  0  0  0  0  0  0  0  0
   12.5539   11.7748   20.7685 C   0  0  0  0  0  0  0  0  0  0  0  0
   11.0626   11.7344   21.6522 N   0  0  0  0  0  0  0  0  0  0  0  0
   10.9262   12.0947   22.9838 N   0  0  0  0  0  0  0  0  0  0  0  0
   12.0615   12.6612   23.2770 C   0  0  0  0  0  0  0  0  0  0  0  0
   12.2865   13.3804   24.4699 C   0  0  0  0  0  0  0  0  0  0  0  0
   11.9700   14.6748   24.3958 C   0  0  0  0  0  0  0  0  0  0  0  0
   11.7464   15.2488   23.0907 C   0  0  0  0  0  0  0  0  0  0  0  0
   11.9931   14.5356   21.9736 C   0  0  0  0  0  0  0  0  0  0  0  0
   12.4817   13.0987   21.9902 N   0  0  0  0  0  0  0  0  0  0  0  0
  1  2  1  0
  2  3  1  0
  2  4  1  0
  4  5  1  1
  5  6  1  0
  6  7  2  0
  6  8  1  0
  9  8  1  6
  9 10  1  0
 10 11  1  0
 11 12  1  0
 12 13  1  0
 13 14  1  0
  4 15  1  0
 15 16  2  0
 16 17  1  0
 17 18  2  0
 18 19  1  0
 19 20  2  0
 20 21  1  0
 21 22  2  0
 22 23  1  0
 14  9  1  0
 23 15  1  0
 23 18  1  0
M  END
>  <energy_score>  (139) 
1644.573654

>  <inchikey>  (139) 
BLTQFJGWWWBBKH-UHFFFAOYSA-N

>  <smiles>  (139) 
CC(C)[C@@H](NC(=O)C[C@H]1CCCCN1)c1nnc2ccccn12

>  <ref_pdb>  (139) 
A5091a

>  <alias>  (139) 
C10333-P564

>  <HIPPO Pose ID>  (139) 
475236

>  <name>  (139) 
C10333-P564

>  <HIPPO Compound ID>  (139) 
10333

>  <ref_mols>  (139) 
A5091a,A1293a

>  <distance_score>  (139) 
4.401656

>  <inspiration_score>  (139) 
None

$$$$
C10575-P174
     RDKit          3D

 23 24  0  0  0  0  0  0  0  0999 V2000
   11.6221   14.1093   21.8506 C   0  0  0  0  0  0  0  0  0  0  0  0
   11.0718   15.2059   20.9749 C   0  0  1  0  0  0  0  0  0  0  0  0
    9.7847   15.8609   21.5603 C   0  0  0  0  0  0  0  0  0  0  0  0
    8.7758   14.9768   22.1637 N   0  0  0  0  0  0  0  0  0  0  0  0
    7.6874   15.2704   23.2526 C   0  0  0  0  0  0  0  0  0  0  0  0
    7.3851   16.2774   23.7712 O   0  0  0  0  0  0  0  0  0  0  0  0
    6.9180   13.9625   23.6119 C   0  0  0  0  0  0  0  0  0  0  0  0
    6.7730   13.7396   25.1655 C   0  0  1  0  0  0  0  0  0  0  0  0
    5.5849   12.8892   25.6262 C   0  0  0  0  0  0  0  0  0  0  0  0
    7.9939   13.2213   25.8291 N   0  0  0  0  0  0  0  0  0  0  0  0
    9.0796   14.2301   25.9632 C   0  0  0  0  0  0  0  0  0  0  0  0
   10.2308   13.8363   25.0366 C   0  0  0  0  0  0  0  0  0  0  0  0
    9.7975   12.4933   24.5709 C   0  0  0  0  0  0  0  0  0  0  0  0
   10.4005   11.6476   23.6717 C   0  0  0  0  0  0  0  0  0  0  0  0
    9.7896   10.4346   23.3366 C   0  0  0  0  0  0  0  0  0  0  0  0
    8.6293   10.0329   23.9791 C   0  0  0  0  0  0  0  0  0  0  0  0
    8.0290   10.8903   24.8918 C   0  0  0  0  0  0  0  0  0  0  0  0
    8.5807   12.1474   25.1235 C   0  0  0  0  0  0  0  0  0  0  0  0
   12.2256   16.2035   20.7200 C   0  0  0  0  0  0  0  0  0  0  0  0
   12.2431   16.6898   19.2929 C   0  0  0  0  0  0  0  0  0  0  0  0
   11.1123   17.3882   19.0466 F   0  0  0  0  0  0  0  0  0  0  0  0
   12.3526   15.6522   18.4427 F   0  0  0  0  0  0  0  0  0  0  0  0
   13.2928   17.5186   19.0942 F   0  0  0  0  0  0  0  0  0  0  0  0
  2  1  1  1
  2  3  1  0
  3  4  1  0
  4  5  1  0
  5  6  2  0
  5  7  1  0
  7  8  1  0
  8  9  1  6
  8 10  1  0
 10 11  1  0
 11 12  1  0
 12 13  1  0
 13 14  2  0
 14 15  1  0
 15 16  2  0
 16 17  1  0
 17 18  2  0
  2 19  1  0
 19 20  1  0
 20 21  1  0
 20 22  1  0
 20 23  1  0
 18 10  1  0
 18 13  1  0
M  END
>  <energy_score>  (140) 
-6.254342

>  <inchikey>  (140) 
HGTCSWHCBHNZLM-UHFFFAOYSA-N

>  <smiles>  (140) 
C[C@@H](CNC(=O)C[C@@H](C)N1CCc2ccccc21)CC(F)(F)F

>  <ref_pdb>  (140) 
A3371a

>  <alias>  (140) 
C10575-P174

>  <HIPPO Pose ID>  (140) 
478135

>  <name>  (140) 
C10575-P174

>  <HIPPO Compound ID>  (140) 
10575

>  <ref_mols>  (140) 
A1778a,A3371a

>  <distance_score>  (140) 
1.681523

>  <inspiration_score>  (140) 
None

$$$$
C10535-P183
     RDKit          3D

 20 21  0  0  0  0  0  0  0  0999 V2000
   13.0895   13.0890   24.7510 C   0  0  0  0  0  0  0  0  0  0  0  0
   11.7582   12.9087   24.3046 N   0  0  0  0  0  0  0  0  0  0  0  0
   10.5265   13.4109   24.8137 C   0  0  0  0  0  0  0  0  0  0  0  0
   10.2915   14.0505   25.7955 O   0  0  0  0  0  0  0  0  0  0  0  0
    9.2496   12.8552   23.8388 C   0  0  1  0  0  0  0  0  0  0  0  0
    9.4459   11.2636   23.7896 C   0  0  0  0  0  0  0  0  0  0  0  0
    8.3922   11.3411   24.7410 C   0  0  0  0  0  0  0  0  0  0  0  0
    8.3220   12.7330   23.9160 C   0  0  0  0  0  0  0  0  0  0  0  0
    7.9815   13.8946   24.7150 N   0  0  0  0  0  0  0  0  0  0  0  0
    6.6126   13.8375   24.9539 C   0  0  0  0  0  0  0  0  0  0  0  0
    6.1235   13.2846   25.9380 O   0  0  0  0  0  0  0  0  0  0  0  0
    5.7136   14.6140   23.9709 C   0  0  1  0  0  0  0  0  0  0  0  0
    5.6973   16.0744   24.3658 C   0  0  0  0  0  0  0  0  0  0  0  0
    5.9283   14.3130   22.1602 S   0  0  0  0  0  0  0  0  0  0  0  0
    7.4909   15.0193   21.6698 C   0  0  0  0  0  0  0  0  0  0  0  0
    7.6987   16.3686   21.6836 C   0  0  0  0  0  0  0  0  0  0  0  0
    8.7329   16.9433   20.9465 C   0  0  0  0  0  0  0  0  0  0  0  0
    9.6120   16.1184   20.2881 C   0  0  0  0  0  0  0  0  0  0  0  0
    9.4483   14.7688   20.4541 C   0  0  0  0  0  0  0  0  0  0  0  0
    8.3805   14.2002   21.0709 N   0  0  0  0  0  0  0  0  0  0  0  0
  1  2  1  0
  2  3  1  0
  3  4  2  0
  5  3  1  1
  5  6  1  0
  6  7  1  0
  7  8  1  0
  8  9  1  0
  9 10  1  0
 10 11  2  0
 10 12  1  0
 12 13  1  6
 12 14  1  0
 14 15  1  0
 15 16  2  0
 16 17  1  0
 17 18  2  0
 18 19  1  0
 19 20  2  0
  9  5  1  0
 20 15  1  0
M  END
>  <energy_score>  (141) 
552.264148

>  <inchikey>  (141) 
OIEINAHBCCCPSB-UHFFFAOYSA-N

>  <smiles>  (141) 
CNC(=O)[C@H]1CCCN1C(=O)[C@@H](C)Sc1ccccn1

>  <ref_pdb>  (141) 
A3436a

>  <alias>  (141) 
C10535-P183

>  <HIPPO Pose ID>  (141) 
478249

>  <name>  (141) 
C10535-P183

>  <HIPPO Compound ID>  (141) 
10535

>  <ref_mols>  (141) 
A1776a,A3436a

>  <distance_score>  (141) 
3.045916

>  <inspiration_score>  (141) 
None

$$$$
C3842-P87
     RDKit          3D

 21 23  0  0  0  0  0  0  0  0999 V2000
   14.9352    1.8519   24.4379 O   0  0  0  0  0  0  0  0  0  0  0  0
   15.5583    2.2491   23.4944 C   0  0  0  0  0  0  0  0  0  0  0  0
   15.1398    3.6885   22.8341 C   0  0  0  0  0  0  0  0  0  0  0  0
   14.3941    5.3060   22.7137 N   0  0  0  0  0  0  0  0  0  0  0  0
   12.4530    5.9183   22.1061 C   0  0  0  0  0  0  0  0  0  0  0  0
   11.7508    5.0226   21.6689 O   0  0  0  0  0  0  0  0  0  0  0  0
   11.7167    7.7910   22.4316 C   0  0  2  0  0  0  0  0  0  0  0  0
   11.6673    8.6270   23.9281 C   0  0  0  0  0  0  0  0  0  0  0  0
   10.5544    9.6245   23.9967 C   0  0  0  0  0  0  0  0  0  0  0  0
   10.2666    9.8708   22.5734 C   0  0  0  0  0  0  0  0  0  0  0  0
   10.5299    8.6307   21.8363 N   0  0  0  0  0  0  0  0  0  0  0  0
   16.7241    1.7062   22.8414 N   0  0  0  0  0  0  0  0  0  0  0  0
   17.5146    0.6323   23.1612 C   0  0  0  0  0  0  0  0  0  0  0  0
   17.6465   -0.0206   24.3671 C   0  0  0  0  0  0  0  0  0  0  0  0
   18.5786   -1.0232   24.3218 N   0  0  0  0  0  0  0  0  0  0  0  0
   19.0822   -0.9357   23.1112 C   0  0  0  0  0  0  0  0  0  0  0  0
   20.1116   -1.6800   22.4984 C   0  0  0  0  0  0  0  0  0  0  0  0
   20.4806   -1.3771   21.2498 C   0  0  0  0  0  0  0  0  0  0  0  0
   19.7635   -0.2656   20.5833 C   0  0  0  0  0  0  0  0  0  0  0  0
   18.8151    0.4543   21.0891 N   0  0  0  0  0  0  0  0  0  0  0  0
   18.4931    0.0829   22.3671 N   0  0  0  0  0  0  0  0  0  0  0  0
  1  2  2  0
  2  3  1  0
  3  4  1  0
  4  5  1  0
  5  6  2  0
  7  5  1  1
  7  8  1  0
  8  9  1  0
  9 10  1  0
 10 11  1  0
  2 12  1  0
 12 13  1  0
 13 14  2  0
 14 15  1  0
 15 16  2  0
 16 17  1  0
 17 18  2  0
 18 19  1  0
 19 20  2  0
 20 21  1  0
 11  7  1  0
 21 13  1  0
 21 16  1  0
M  END
>  <energy_score>  (142) 
399.828321

>  <inchikey>  (142) 
PLIIAKFRJSUEBR-UHFFFAOYSA-N

>  <smiles>  (142) 
O=C(CNC(=O)[C@@H]1CCCN1)Nc1cnc2cccnn12

>  <ref_pdb>  (142) 
A0875a

>  <alias>  (142) 
C3842-P87

>  <HIPPO Pose ID>  (142) 
479383

>  <name>  (142) 
C3842-P87

>  <HIPPO Compound ID>  (142) 
3842

>  <ref_mols>  (142) 
A0202a,A0875a

>  <distance_score>  (142) 
3.838929

>  <inspiration_score>  (142) 
None

$$$$
C3863-P87
     RDKit          3D

 22 25  0  0  0  0  0  0  0  0999 V2000
   19.4547   -0.0159   20.1171 C   0  0  0  0  0  0  0  0  0  0  0  0
   19.8719    0.1202   21.4679 O   0  0  0  0  0  0  0  0  0  0  0  0
   18.8863    0.5284   22.3060 C   0  0  0  0  0  0  0  0  0  0  0  0
   19.2355    0.0249   23.6448 C   0  0  0  0  0  0  0  0  0  0  0  0
   18.2569    0.1258   24.5445 C   0  0  0  0  0  0  0  0  0  0  0  0
   17.0760    0.7994   24.1768 C   0  0  0  0  0  0  0  0  0  0  0  0
   15.8989    0.8262   24.7205 N   0  0  0  0  0  0  0  0  0  0  0  0
   15.2339    1.8697   24.1585 C   0  0  0  0  0  0  0  0  0  0  0  0
   15.9852    2.4319   23.1671 C   0  0  0  0  0  0  0  0  0  0  0  0
   15.8134    3.7266   22.4609 C   0  0  0  0  0  0  0  0  0  0  0  0
   16.7511    4.2821   22.0042 O   0  0  0  0  0  0  0  0  0  0  0  0
   14.4088    4.0439   22.3777 N   0  0  0  0  0  0  0  0  0  0  0  0
   13.3716    5.6757   21.5220 C   0  0  0  0  0  0  0  0  0  0  0  0
   11.9376    7.1815   22.3277 C   0  0  1  0  0  0  0  0  0  0  0  0
   10.3501    7.2084   23.0475 C   0  0  0  0  0  0  0  0  0  0  0  0
    9.6606    8.4557   22.3226 C   0  0  0  0  0  0  0  0  0  0  0  0
   10.6838    9.4347   22.2488 C   0  0  1  0  0  0  0  0  0  0  0  0
   10.9841    9.6784   23.6776 C   0  0  0  0  0  0  0  0  0  0  0  0
   11.9754    8.5333   23.7787 C   0  0  0  0  0  0  0  0  0  0  0  0
   11.5392    8.4802   21.5492 N   0  0  0  0  0  0  0  0  0  0  0  0
   17.0258    1.4968   22.9937 N   0  0  0  0  0  0  0  0  0  0  0  0
   17.8538    1.2092   21.9343 N   0  0  0  0  0  0  0  0  0  0  0  0
  1  2  1  0
  2  3  1  0
  3  4  1  0
  4  5  2  0
  5  6  1  0
  6  7  2  0
  7  8  1  0
  8  9  2  0
  9 10  1  0
 10 11  2  0
 10 12  1  0
 12 13  1  0
 14 13  1  6
 14 15  1  0
 15 16  1  0
 17 16  1  1
 17 18  1  0
 18 19  1  0
 17 20  1  0
  9 21  1  0
 21 22  1  0
 22  3  2  0
 21  6  1  0
 19 14  1  0
 20 14  1  0
M  END
>  <energy_score>  (143) 
554.240385

>  <inchikey>  (143) 
JTEJVNYAELMDNE-UHFFFAOYSA-N

>  <smiles>  (143) 
COc1ccc2ncc(C(=O)NC[C@]34CC[C@H](CC3)N4)n2n1

>  <ref_pdb>  (143) 
A0875a

>  <alias>  (143) 
C3863-P87

>  <HIPPO Pose ID>  (143) 
479389

>  <name>  (143) 
C3863-P87

>  <HIPPO Compound ID>  (143) 
3863

>  <ref_mols>  (143) 
A0202a,A0875a

>  <distance_score>  (143) 
4.82035

>  <inspiration_score>  (143) 
None

$$$$
C1399-P296
     RDKit          3D

 18 18  0  0  0  0  0  0  0  0999 V2000
    7.5245   12.8806   24.1903 C   0  0  0  0  0  0  0  0  0  0  0  0
    7.8643   13.5712   22.8719 C   0  0  0  0  0  0  0  0  0  0  0  0
    7.0775   14.8613   22.7108 C   0  0  0  0  0  0  0  0  0  0  0  0
    9.3863   13.7605   22.6453 C   0  0  0  0  0  0  0  0  0  0  0  0
    9.8550   14.6246   23.7639 N   0  0  0  0  0  0  0  0  0  0  0  0
   11.1273   14.6491   22.8588 C   0  0  0  0  0  0  0  0  0  0  0  0
   11.2858   15.8744   21.9256 C   0  0  0  0  0  0  0  0  0  0  0  0
   10.7208   15.7009   20.5839 C   0  0  0  0  0  0  0  0  0  0  0  0
   10.2366   15.5870   19.5368 N   0  0  0  0  0  0  0  0  0  0  0  0
   10.2063   14.2801   25.1919 C   0  0  0  0  0  0  0  0  0  0  0  0
   10.2676   13.2369   25.7293 O   0  0  0  0  0  0  0  0  0  0  0  0
   10.3934   15.5703   25.9674 C   0  0  0  0  0  0  0  0  0  0  0  0
    9.2730   15.6677   27.0356 C   0  0  1  0  0  0  0  0  0  0  0  0
    9.8682   15.9731   28.4197 C   0  0  0  0  0  0  0  0  0  0  0  0
    8.9147   16.8035   29.2650 C   0  0  0  0  0  0  0  0  0  0  0  0
    8.5668   18.1200   28.5636 C   0  0  0  0  0  0  0  0  0  0  0  0
    8.5002   18.0362   27.0910 N   0  0  0  0  0  0  0  0  0  0  0  0
    8.1693   16.6718   26.6578 C   0  0  0  0  0  0  0  0  0  0  0  0
  1  2  1  0
  2  3  1  0
  2  4  1  0
  4  5  1  0
  5  6  1  0
  6  7  1  0
  7  8  1  0
  8  9  3  0
  5 10  1  0
 10 11  2  0
 10 12  1  0
 13 12  1  6
 13 14  1  0
 14 15  1  0
 15 16  1  0
 16 17  1  0
 17 18  1  0
 18 13  1  0
M  END
>  <energy_score>  (144) 
54.238624

>  <inchikey>  (144) 
VUDZIAUPKJMEKU-UHFFFAOYSA-N

>  <smiles>  (144) 
CC(C)CN(CCC#N)C(=O)C[C@H]1CCCNC1

>  <ref_pdb>  (144) 
A4311a

>  <alias>  (144) 
C1399-P296

>  <HIPPO Pose ID>  (144) 
481610

>  <name>  (144) 
C1399-P296

>  <HIPPO Compound ID>  (144) 
1399

>  <ref_mols>  (144) 
A4311a,A3181b

>  <distance_score>  (144) 
1.373959

>  <inspiration_score>  (144) 
None

$$$$
C4256-P174
     RDKit          3D

 19 21  0  0  0  0  0  0  0  0999 V2000
    9.4972    8.8144   22.4725 C   0  0  0  0  0  0  0  0  0  0  0  0
    9.6331    9.5105   23.7939 C   0  0  1  0  0  0  0  0  0  0  0  0
    9.6272   10.9270   23.7377 N   0  0  0  0  0  0  0  0  0  0  0  0
   10.7800   11.9524   23.9535 C   0  0  0  0  0  0  0  0  0  0  0  0
   11.9190   11.7815   24.1325 O   0  0  0  0  0  0  0  0  0  0  0  0
   10.0415   13.2340   23.9756 C   0  0  0  0  0  0  0  0  0  0  0  0
    9.1170   13.5268   22.8136 C   0  0  0  0  0  0  0  0  0  0  0  0
    7.6671   13.7470   23.2804 C   0  0  0  0  0  0  0  0  0  0  0  0
    7.4795   13.9660   24.7684 C   0  0  0  0  0  0  0  0  0  0  0  0
    6.4676   13.2608   25.4309 C   0  0  0  0  0  0  0  0  0  0  0  0
    6.3394   13.3118   26.8120 C   0  0  0  0  0  0  0  0  0  0  0  0
    7.2072   14.1064   27.5469 C   0  0  0  0  0  0  0  0  0  0  0  0
    8.2041   14.8388   26.9098 C   0  0  0  0  0  0  0  0  0  0  0  0
    8.3550   14.7800   25.5247 C   0  0  0  0  0  0  0  0  0  0  0  0
    9.5425   15.4727   24.8927 C   0  0  0  0  0  0  0  0  0  0  0  0
   10.6703   14.4805   24.5127 C   0  0  0  0  0  0  0  0  0  0  0  0
    8.4081    9.1654   24.6286 C   0  0  0  0  0  0  0  0  0  0  0  0
    7.7935   10.0797   25.6874 C   0  0  0  0  0  0  0  0  0  0  0  0
    7.0685    9.8366   24.4209 C   0  0  0  0  0  0  0  0  0  0  0  0
  2  1  1  6
  2  3  1  0
  3  4  1  0
  4  5  2  0
  4  6  1  0
  6  7  1  0
  7  8  1  0
  8  9  1  0
  9 10  2  0
 10 11  1  0
 11 12  2  0
 12 13  1  0
 13 14  2  0
 14 15  1  0
 15 16  1  0
  2 17  1  0
 17 18  1  0
 18 19  1  0
 16  6  1  0
 19 17  1  0
 14  9  1  0
M  END
>  <energy_score>  (145) 
17.516451

>  <inchikey>  (145) 
HPPAAFQSZKKTKP-UHFFFAOYSA-N

>  <smiles>  (145) 
C[C@@H](NC(=O)C1CCc2ccccc2CC1)C1CC1

>  <ref_pdb>  (145) 
A3371a

>  <alias>  (145) 
C4256-P174

>  <HIPPO Pose ID>  (145) 
482764

>  <name>  (145) 
C4256-P174

>  <HIPPO Compound ID>  (145) 
4256

>  <ref_mols>  (145) 
A1778a,A3371a

>  <distance_score>  (145) 
3.166051

>  <inspiration_score>  (145) 
None

$$$$
C33613-P137
     RDKit          3D

 22 24  0  0  0  0  0  0  0  0999 V2000
   12.6166   13.1433   23.9822 C   0  0  0  0  0  0  0  0  0  0  0  0
   11.9365   14.2234   23.1357 C   0  0  0  0  0  0  0  0  0  0  0  0
   12.9516   14.8337   22.1513 C   0  0  0  0  0  0  0  0  0  0  0  0
   10.8056   13.6329   22.2924 C   0  0  1  0  0  0  0  0  0  0  0  0
   10.0062   12.6055   22.9024 N   0  0  0  0  0  0  0  0  0  0  0  0
    9.2788   12.5734   24.2789 C   0  0  0  0  0  0  0  0  0  0  0  0
    9.1557   13.4066   25.0899 O   0  0  0  0  0  0  0  0  0  0  0  0
    8.8065   11.1940   24.4844 C   0  0  0  0  0  0  0  0  0  0  0  0
    9.4462   10.0877   23.9216 C   0  0  0  0  0  0  0  0  0  0  0  0
    8.8143    8.9617   24.3917 C   0  0  0  0  0  0  0  0  0  0  0  0
    7.8936    9.2709   25.2792 N   0  0  0  0  0  0  0  0  0  0  0  0
    7.8626   10.6269   25.3396 N   0  0  0  0  0  0  0  0  0  0  0  0
    6.7195   11.1555   26.0897 C   0  0  0  0  0  0  0  0  0  0  0  0
    6.9328   11.9625   27.3806 C   0  0  0  0  0  0  0  0  0  0  0  0
    5.9360   11.4399   28.4363 C   0  0  0  0  0  0  0  0  0  0  0  0
    4.8790   10.7114   27.6387 C   0  0  0  0  0  0  0  0  0  0  0  0
    5.7446   10.0438   26.5969 C   0  0  0  0  0  0  0  0  0  0  0  0
   10.1606   14.6020   21.3648 C   0  0  0  0  0  0  0  0  0  0  0  0
    9.2172   15.4756   21.6177 N   0  0  0  0  0  0  0  0  0  0  0  0
    9.2421   16.3634   20.5663 C   0  0  0  0  0  0  0  0  0  0  0  0
   10.1331   15.9649   19.6034 C   0  0  0  0  0  0  0  0  0  0  0  0
   10.6770   14.8186   20.0971 N   0  0  0  0  0  0  0  0  0  0  0  0
  1  2  1  0
  2  3  1  0
  2  4  1  0
  4  5  1  1
  5  6  1  0
  6  7  2  0
  6  8  1  0
  8  9  2  0
  9 10  1  0
 10 11  2  0
 11 12  1  0
 12 13  1  0
 13 14  1  0
 14 15  1  0
 15 16  1  0
 16 17  1  0
  4 18  1  0
 18 19  2  0
 19 20  1  0
 20 21  2  0
 21 22  1  0
 12  8  1  0
 17 13  1  0
 22 18  1  0
M  END
>  <energy_score>  (146) 
5.719052

>  <inchikey>  (146) 
NBHSRRAUBJKLTH-UHFFFAOYSA-N

>  <smiles>  (146) 
CC(C)[C@@H](NC(=O)c1ccnn1C1CCCC1)c1ncc[nH]1

>  <ref_pdb>  (146) 
A2972a

>  <alias>  (146) 
C33613-P137

>  <HIPPO Pose ID>  (146) 
482901

>  <name>  (146) 
C33613-P137

>  <HIPPO Compound ID>  (146) 
33613

>  <ref_mols>  (146) 
A2972a,A0556a

>  <distance_score>  (146) 
2.185821

>  <inspiration_score>  (146) 
None

$$$$
C1132-P228
     RDKit          3D

 23 25  0  0  0  0  0  0  0  0999 V2000
    5.8830   11.4922    3.0267 C   0  0  0  0  0  0  0  0  0  0  0  0
    5.6524   12.4731    4.0347 O   0  0  0  0  0  0  0  0  0  0  0  0
    6.7026   12.7605    4.8328 C   0  0  0  0  0  0  0  0  0  0  0  0
    6.6026   13.8574    5.6526 C   0  0  0  0  0  0  0  0  0  0  0  0
    7.7696   14.2914    6.5364 C   0  0  0  0  0  0  0  0  0  0  0  0
    9.6065   13.8616    7.0552 C   0  0  0  0  0  0  0  0  0  0  0  0
    9.0068   12.9124    5.6404 C   0  0  0  0  0  0  0  0  0  0  0  0
    7.9221   12.1695    4.8892 C   0  0  0  0  0  0  0  0  0  0  0  0
    9.0913   14.2556    4.4405 C   0  0  0  0  0  0  0  0  0  0  0  0
    9.8783   15.1582    5.3736 C   0  0  0  0  0  0  0  0  0  0  0  0
    9.8740   14.2168    7.2623 C   0  0  0  0  0  0  0  0  0  0  0  0
   10.9399   13.4321    8.7261 N   0  0  0  0  0  0  0  0  0  0  0  0
   10.5060   12.3297   10.5786 C   0  0  0  0  0  0  0  0  0  0  0  0
    9.3772   12.0943   10.6106 O   0  0  0  0  0  0  0  0  0  0  0  0
   11.2881   11.6788   12.5011 C   0  0  0  0  0  0  0  0  0  0  0  0
   10.5793   10.5360   14.8026 S   0  0  0  0  0  0  0  0  0  0  0  0
    9.7949    9.8196   17.2945 C   0  0  0  0  0  0  0  0  0  0  0  0
    9.9058    8.6686   19.3440 C   0  0  0  0  0  0  0  0  0  0  0  0
   10.6020    9.4944   20.9827 C   0  0  0  0  0  0  0  0  0  0  0  0
    9.9493   10.5262   22.0859 C   0  0  0  0  0  0  0  0  0  0  0  0
    8.8022   10.1093   22.8244 N   0  0  0  0  0  0  0  0  0  0  0  0
    8.6576    8.7161   22.5392 C   0  0  0  0  0  0  0  0  0  0  0  0
    8.9795    8.0671   20.9851 C   0  0  0  0  0  0  0  0  0  0  0  0
  1  2  1  0
  2  3  1  0
  3  4  2  0
  4  5  1  0
  5  6  2  0
  6  7  1  0
  7  8  2  0
  7  9  1  0
  9 10  1  0
 10 11  1  0
 11 12  1  0
 12 13  1  0
 13 14  2  0
 13 15  1  0
 15 16  1  0
 16 17  1  0
 17 18  1  0
 18 19  1  0
 19 20  1  0
 20 21  1  0
 21 22  1  0
 22 23  1  0
  8  3  1  0
 23 18  1  0
 12  6  1  0
M  END
>  <energy_score>  (147) 
3026.13452

>  <inchikey>  (147) 
MFKRNLQTMZKUJR-UHFFFAOYSA-N

>  <smiles>  (147) 
COc1ccc2c(c1)CCCN2C(=O)CSCC1CCNCC1

>  <ref_pdb>  (147) 
A3868a

>  <alias>  (147) 
C1132-P228

>  <HIPPO Pose ID>  (147) 
483323

>  <name>  (147) 
C1132-P228

>  <HIPPO Compound ID>  (147) 
1132

>  <ref_mols>  (147) 
A3868a,A0586a

>  <distance_score>  (147) 
5.784897

>  <inspiration_score>  (147) 
None

$$$$
C11987-P343
     RDKit          3D

 23 25  0  0  0  0  0  0  0  0999 V2000
   10.9491   14.6138   18.4533 C   0  0  0  0  0  0  0  0  0  0  0  0
    9.8715   15.4234   18.8882 O   0  0  0  0  0  0  0  0  0  0  0  0
   10.3656   16.4189   19.7491 C   0  0  0  0  0  0  0  0  0  0  0  0
   10.6499   15.8456   21.0947 C   0  0  0  0  0  0  0  0  0  0  0  0
   11.8708   16.0197   21.7288 C   0  0  0  0  0  0  0  0  0  0  0  0
   12.0441   15.4882   22.9876 C   0  0  0  0  0  0  0  0  0  0  0  0
   11.1177   14.7760   23.6443 N   0  0  0  0  0  0  0  0  0  0  0  0
    9.9619   14.5813   22.9844 C   0  0  0  0  0  0  0  0  0  0  0  0
    9.0637   13.8067   23.6616 N   0  0  0  0  0  0  0  0  0  0  0  0
    7.7604   13.1562   23.1944 C   0  0  0  0  0  0  0  0  0  0  0  0
    7.1989   13.2360   22.1791 O   0  0  0  0  0  0  0  0  0  0  0  0
    7.2057   12.3979   24.3084 C   0  0  0  0  0  0  0  0  0  0  0  0
    7.5260   11.0477   24.4733 C   0  0  0  0  0  0  0  0  0  0  0  0
    6.9193   10.3422   25.5089 C   0  0  0  0  0  0  0  0  0  0  0  0
    6.0602   11.0095   26.3837 C   0  0  0  0  0  0  0  0  0  0  0  0
    5.8053   12.3674   26.1967 C   0  0  0  0  0  0  0  0  0  0  0  0
    6.3672   13.0879   25.1737 C   0  0  0  0  0  0  0  0  0  0  0  0
    4.9306   12.9717   27.1296 N   0  0  0  0  0  0  0  0  0  0  0  0
    4.3095   11.7436   28.1371 S   0  0  0  0  0  0  0  0  0  0  0  0
    2.9331   11.5235   27.7443 O   0  0  0  0  0  0  0  0  0  0  0  0
    4.6788   12.0524   29.5004 O   0  0  0  0  0  0  0  0  0  0  0  0
    5.3261   10.3912   27.5330 C   0  0  0  0  0  0  0  0  0  0  0  0
    9.6714   15.1041   21.7385 C   0  0  0  0  0  0  0  0  0  0  0  0
  1  2  1  0
  2  3  1  0
  3  4  1  0
  4  5  2  0
  5  6  1  0
  6  7  2  0
  7  8  1  0
  8  9  1  0
  9 10  1  0
 10 11  2  0
 10 12  1  0
 12 13  2  0
 13 14  1  0
 14 15  2  0
 15 16  1  0
 16 17  2  0
 16 18  1  0
 18 19  1  0
 19 20  2  0
 19 21  2  0
 19 22  1  0
  8 23  2  0
 23  4  1  0
 17 12  1  0
 22 15  1  0
M  END
>  <energy_score>  (148) 
-35.269542

>  <inchikey>  (148) 
KSXOKYAWWBQFNE-UHFFFAOYSA-N

>  <smiles>  (148) 
COCc1ccnc(NC(=O)c2ccc3c(c2)NS(=O)(=O)C3)c1

>  <ref_pdb>  (148) 
A4274a

>  <alias>  (148) 
C11987-P343

>  <HIPPO Pose ID>  (148) 
484432

>  <name>  (148) 
C11987-P343

>  <HIPPO Compound ID>  (148) 
11987

>  <ref_mols>  (148) 
A2513a,A4274a

>  <distance_score>  (148) 
2.107671

>  <inspiration_score>  (148) 
None

$$$$
C12009-P343
     RDKit          3D

 23 25  0  0  0  0  0  0  0  0999 V2000
   12.1194   14.1545   24.6319 C   0  0  0  0  0  0  0  0  0  0  0  0
   10.9014   14.8180   24.0092 C   0  0  2  0  0  0  0  0  0  0  0  0
    9.6769   14.1604   24.3880 O   0  0  0  0  0  0  0  0  0  0  0  0
    9.4613   12.9112   23.9198 C   0  0  0  0  0  0  0  0  0  0  0  0
   10.1845   12.2572   23.1962 O   0  0  0  0  0  0  0  0  0  0  0  0
    8.2309   12.3576   24.4973 C   0  0  0  0  0  0  0  0  0  0  0  0
    8.1161   10.9579   24.5447 C   0  0  0  0  0  0  0  0  0  0  0  0
    7.1464   10.3674   25.3484 C   0  0  0  0  0  0  0  0  0  0  0  0
    6.3225   11.1863   26.1082 C   0  0  0  0  0  0  0  0  0  0  0  0
    6.3680   12.5671   25.9345 C   0  0  0  0  0  0  0  0  0  0  0  0
    7.2919   13.1773   25.1182 C   0  0  0  0  0  0  0  0  0  0  0  0
    5.3944   13.3085   26.6458 N   0  0  0  0  0  0  0  0  0  0  0  0
    4.6337   12.2410   27.7425 S   0  0  0  0  0  0  0  0  0  0  0  0
    5.1058   12.5556   29.0737 O   0  0  0  0  0  0  0  0  0  0  0  0
    3.2261   12.2036   27.4119 O   0  0  0  0  0  0  0  0  0  0  0  0
    5.4179   10.7231   27.1983 C   0  0  0  0  0  0  0  0  0  0  0  0
   10.9323   15.0891   22.5363 C   0  0  0  0  0  0  0  0  0  0  0  0
   11.5557   14.2961   21.5816 C   0  0  0  0  0  0  0  0  0  0  0  0
   11.5738   14.5288   20.2395 N   0  0  0  0  0  0  0  0  0  0  0  0
   10.8299   15.5562   19.8090 C   0  0  0  0  0  0  0  0  0  0  0  0
   10.1267   16.3532   20.6822 C   0  0  0  0  0  0  0  0  0  0  0  0
    9.3559   17.3405   20.2537 F   0  0  0  0  0  0  0  0  0  0  0  0
   10.1924   16.1443   22.0424 C   0  0  0  0  0  0  0  0  0  0  0  0
  2  1  1  6
  2  3  1  0
  3  4  1  0
  4  5  2  0
  4  6  1  0
  6  7  2  0
  7  8  1  0
  8  9  2  0
  9 10  1  0
 10 11  2  0
 10 12  1  0
 12 13  1  0
 13 14  2  0
 13 15  2  0
 13 16  1  0
  2 17  1  0
 17 18  2  0
 18 19  1  0
 19 20  2  0
 20 21  1  0
 21 22  1  0
 21 23  2  0
 11  6  1  0
 23 17  1  0
 16  9  1  0
M  END
>  <energy_score>  (149) 
-23.529064

>  <inchikey>  (149) 
RZNCMZZNQCUVSA-UHFFFAOYSA-N

>  <smiles>  (149) 
C[C@H](OC(=O)c1ccc2c(c1)NS(=O)(=O)C2)c1cncc(F)c1

>  <ref_pdb>  (149) 
A4274a

>  <alias>  (149) 
C12009-P343

>  <HIPPO Pose ID>  (149) 
484447

>  <name>  (149) 
C12009-P343

>  <HIPPO Compound ID>  (149) 
12009

>  <ref_mols>  (149) 
A2513a,A4274a

>  <distance_score>  (149) 
1.419892

>  <inspiration_score>  (149) 
None

$$$$
C15471-P171
     RDKit          3D

 22 24  0  0  0  0  0  0  0  0999 V2000
    9.4763   14.3363   26.0637 O   0  0  0  0  0  0  0  0  0  0  0  0
    8.8370   13.9525   25.1947 C   0  0  0  0  0  0  0  0  0  0  0  0
    7.6989   13.0468   25.5081 C   0  0  0  0  0  0  0  0  0  0  0  0
    7.7561   11.7067   25.0852 C   0  0  0  0  0  0  0  0  0  0  0  0
    6.9392   10.7476   25.6935 C   0  0  0  0  0  0  0  0  0  0  0  0
    6.0732   11.1462   26.7114 C   0  0  0  0  0  0  0  0  0  0  0  0
    5.9492   12.4998   27.0340 C   0  0  0  0  0  0  0  0  0  0  0  0
    6.7595   13.4621   26.4576 C   0  0  0  0  0  0  0  0  0  0  0  0
    5.0500   12.7915   28.1014 N   0  0  0  0  0  0  0  0  0  0  0  0
    4.2371   11.3437   28.5061 S   0  0  0  0  0  0  0  0  0  0  0  0
    2.9490   11.3793   27.8453 O   0  0  0  0  0  0  0  0  0  0  0  0
    4.3664   11.1363   29.9300 O   0  0  0  0  0  0  0  0  0  0  0  0
    5.3257   10.2215   27.6222 C   0  0  0  0  0  0  0  0  0  0  0  0
    8.9489   14.1012   23.6374 N   0  0  0  0  0  0  0  0  0  0  0  0
   10.2304   15.2269   22.8566 C   0  0  0  0  0  0  0  0  0  0  0  0
   11.7693   14.9454   23.1869 C   0  0  0  0  0  0  0  0  0  0  0  0
   11.3033   13.7390   22.5989 C   0  0  0  0  0  0  0  0  0  0  0  0
    9.8680   14.6183   22.7300 C   0  0  1  0  0  0  0  0  0  0  0  0
    8.8547   14.9727   21.2071 C   0  0  0  0  0  0  0  0  0  0  0  0
    9.6569   15.0307   19.9262 C   0  0  0  0  0  0  0  0  0  0  0  0
   10.6390   16.1527   19.7661 C   0  0  0  0  0  0  0  0  0  0  0  0
   10.9707   16.2726   18.3924 O   0  0  0  0  0  0  0  0  0  0  0  0
  1  2  2  0
  2  3  1  0
  3  4  2  0
  4  5  1  0
  5  6  2  0
  6  7  1  0
  7  8  2  0
  7  9  1  0
  9 10  1  0
 10 11  2  0
 10 12  2  0
 10 13  1  0
  2 14  1  0
 14 15  1  0
 15 16  1  0
 16 17  1  0
 17 18  1  0
 18 19  1  6
 19 20  1  0
 20 21  1  0
 21 22  1  0
  8  3  1  0
 18 14  1  0
 13  6  1  0
M  END
>  <energy_score>  (150) 
620.103973

>  <inchikey>  (150) 
BCTSMZODMDXYPM-UHFFFAOYSA-N

>  <smiles>  (150) 
O=C(c1ccc2c(c1)NS(=O)(=O)C2)N1CCC[C@H]1CCCO

>  <ref_pdb>  (150) 
A3581a

>  <alias>  (150) 
C15471-P171

>  <HIPPO Pose ID>  (150) 
485914

>  <name>  (150) 
C15471-P171

>  <HIPPO Compound ID>  (150) 
15471

>  <ref_mols>  (150) 
A3581a,A2513a

>  <distance_score>  (150) 
1.774251

>  <inspiration_score>  (150) 
None

$$$$
C15476-P171
     RDKit          3D

 22 24  0  0  0  0  0  0  0  0999 V2000
   10.5306   15.3773   18.6351 C   0  0  0  0  0  0  0  0  0  0  0  0
   10.6075   15.7681   20.0891 C   0  0  0  0  0  0  0  0  0  0  0  0
   10.2435   16.8593   20.4141 O   0  0  0  0  0  0  0  0  0  0  0  0
   11.2217   14.7285   20.8443 N   0  0  0  0  0  0  0  0  0  0  0  0
   11.6768   14.6977   22.1863 C   0  0  2  0  0  0  0  0  0  0  0  0
   11.3859   13.5029   22.8871 C   0  0  0  0  0  0  0  0  0  0  0  0
   10.5378   14.6121   23.8310 C   0  0  0  0  0  0  0  0  0  0  0  0
    9.3289   14.1566   24.1472 N   0  0  0  0  0  0  0  0  0  0  0  0
    8.9974   12.6224   24.2774 C   0  0  0  0  0  0  0  0  0  0  0  0
    9.6063   11.6696   24.0392 O   0  0  0  0  0  0  0  0  0  0  0  0
    7.6549   12.4457   24.9304 C   0  0  0  0  0  0  0  0  0  0  0  0
    7.2977   11.1436   25.3463 C   0  0  0  0  0  0  0  0  0  0  0  0
    6.2364   10.9365   26.2319 C   0  0  0  0  0  0  0  0  0  0  0  0
    5.5264   12.0389   26.6920 C   0  0  0  0  0  0  0  0  0  0  0  0
    5.8239   13.3107   26.2017 C   0  0  0  0  0  0  0  0  0  0  0  0
    6.8778   13.5366   25.3319 C   0  0  0  0  0  0  0  0  0  0  0  0
    5.0443   14.3731   26.7439 N   0  0  0  0  0  0  0  0  0  0  0  0
    3.8090   13.6764   27.6920 S   0  0  0  0  0  0  0  0  0  0  0  0
    3.8675   14.2600   29.0128 O   0  0  0  0  0  0  0  0  0  0  0  0
    2.6047   13.6969   26.8902 O   0  0  0  0  0  0  0  0  0  0  0  0
    4.4566   11.9993   27.7356 C   0  0  0  0  0  0  0  0  0  0  0  0
   10.7855   15.2039   23.3893 C   0  0  0  0  0  0  0  0  0  0  0  0
  1  2  1  0
  2  3  2  0
  2  4  1  0
  5  4  1  6
  5  6  1  0
  6  7  1  0
  7  8  1  0
  8  9  1  0
  9 10  2  0
  9 11  1  0
 11 12  2  0
 12 13  1  0
 13 14  2  0
 14 15  1  0
 15 16  2  0
 15 17  1  0
 17 18  1  0
 18 19  2  0
 18 20  2  0
 18 21  1  0
  8 22  1  0
 22  5  1  0
 16 11  1  0
 21 14  1  0
M  END
>  <energy_score>  (151) 
713.795661

>  <inchikey>  (151) 
UQMQHNCBMSEKGJ-UHFFFAOYSA-N

>  <smiles>  (151) 
CC(=O)N[C@@H]1CCN(C(=O)c2ccc3c(c2)NS(=O)(=O)C3)C1

>  <ref_pdb>  (151) 
A3581a

>  <alias>  (151) 
C15476-P171

>  <HIPPO Pose ID>  (151) 
485919

>  <name>  (151) 
C15476-P171

>  <HIPPO Compound ID>  (151) 
15476

>  <ref_mols>  (151) 
A3581a,A2513a

>  <distance_score>  (151) 
1.560635

>  <inspiration_score>  (151) 
None

$$$$
C15494-P171
     RDKit          3D

 22 24  0  0  0  0  0  0  0  0999 V2000
   11.1207   15.2482   19.1622 C   0  0  0  0  0  0  0  0  0  0  0  0
   10.2325   15.2224   20.3841 C   0  0  0  0  0  0  0  0  0  0  0  0
    9.8604   16.4859   20.7073 F   0  0  0  0  0  0  0  0  0  0  0  0
    9.0858   14.5476   20.1090 F   0  0  0  0  0  0  0  0  0  0  0  0
   10.9843   14.4677   21.7547 C   0  0  1  0  0  0  0  0  0  0  0  0
   11.9233   15.6024   22.2971 C   0  0  0  0  0  0  0  0  0  0  0  0
   11.8485   14.6431   23.3534 C   0  0  0  0  0  0  0  0  0  0  0  0
   10.6228   14.0412   22.3317 C   0  0  0  0  0  0  0  0  0  0  0  0
    9.5031   14.1692   23.0063 N   0  0  0  0  0  0  0  0  0  0  0  0
    9.3630   13.7332   24.5077 C   0  0  0  0  0  0  0  0  0  0  0  0
   10.1270   13.3617   25.2880 O   0  0  0  0  0  0  0  0  0  0  0  0
    7.9297   13.7639   24.8769 C   0  0  0  0  0  0  0  0  0  0  0  0
    7.3694   12.6377   25.5083 C   0  0  0  0  0  0  0  0  0  0  0  0
    6.0458   12.6644   25.9498 C   0  0  0  0  0  0  0  0  0  0  0  0
    5.3053   13.8292   25.7652 C   0  0  0  0  0  0  0  0  0  0  0  0
    5.8823   14.9338   25.1320 C   0  0  0  0  0  0  0  0  0  0  0  0
    7.1780   14.9150   24.6560 C   0  0  0  0  0  0  0  0  0  0  0  0
    5.0322   16.0623   24.9703 N   0  0  0  0  0  0  0  0  0  0  0  0
    3.6269   15.7796   25.8920 S   0  0  0  0  0  0  0  0  0  0  0  0
    2.4948   15.9929   25.0184 O   0  0  0  0  0  0  0  0  0  0  0  0
    3.7712   16.4821   27.1493 O   0  0  0  0  0  0  0  0  0  0  0  0
    3.8762   14.0170   26.1666 C   0  0  0  0  0  0  0  0  0  0  0  0
  1  2  1  0
  2  3  1  0
  2  4  1  0
  5  2  1  6
  5  6  1  0
  6  7  1  0
  7  8  1  0
  8  9  1  0
  9 10  1  0
 10 11  2  0
 10 12  1  0
 12 13  2  0
 13 14  1  0
 14 15  2  0
 15 16  1  0
 16 17  2  0
 16 18  1  0
 18 19  1  0
 19 20  2  0
 19 21  2  0
 19 22  1  0
  9  5  1  0
 17 12  1  0
 22 15  1  0
M  END
>  <energy_score>  (152) 
694.581876

>  <inchikey>  (152) 
ZQTXUGBNRHOCTR-UHFFFAOYSA-N

>  <smiles>  (152) 
CC(F)(F)[C@H]1CCCN1C(=O)c1ccc2c(c1)NS(=O)(=O)C2

>  <ref_pdb>  (152) 
A3581a

>  <alias>  (152) 
C15494-P171

>  <HIPPO Pose ID>  (152) 
485935

>  <name>  (152) 
C15494-P171

>  <HIPPO Compound ID>  (152) 
15494

>  <ref_mols>  (152) 
A3581a,A2513a

>  <distance_score>  (152) 
1.990364

>  <inspiration_score>  (152) 
None

$$$$
C13918-P135
     RDKit          3D

 19 20  0  0  0  0  0  0  0  0999 V2000
   13.5839   17.1908   21.3434 C   0  0  0  0  0  0  0  0  0  0  0  0
   12.6751   16.3554   20.6404 N   0  0  0  0  0  0  0  0  0  0  0  0
   12.6993   16.5591   19.2654 C   0  0  0  0  0  0  0  0  0  0  0  0
   12.8750   17.6193   18.6807 O   0  0  0  0  0  0  0  0  0  0  0  0
   12.5392   15.2486   18.5796 C   0  0  0  0  0  0  0  0  0  0  0  0
   12.1400   14.2954   19.6812 C   0  0  0  0  0  0  0  0  0  0  0  0
   12.6298   14.9401   20.9656 C   0  0  2  0  0  0  0  0  0  0  0  0
   11.9511   14.2633   22.1956 C   0  0  0  0  0  0  0  0  0  0  0  0
   12.4770   13.3210   22.7915 O   0  0  0  0  0  0  0  0  0  0  0  0
   10.6957   14.6855   22.5338 O   0  0  0  0  0  0  0  0  0  0  0  0
    9.7127   13.6172   22.4988 C   0  0  0  0  0  0  0  0  0  0  0  0
    9.2701   12.9219   23.8387 C   0  0  0  0  0  0  0  0  0  0  0  0
   10.0804   13.3935   25.0309 C   0  0  0  0  0  0  0  0  0  0  0  0
    7.7931   13.3068   24.1316 C   0  0  0  0  0  0  0  0  0  0  0  0
    9.3971   11.4554   23.7550 N   0  0  0  0  0  0  0  0  0  0  0  0
   10.3010   10.7294   23.0364 C   0  0  0  0  0  0  0  0  0  0  0  0
    9.9920    9.4061   23.2039 C   0  0  0  0  0  0  0  0  0  0  0  0
    8.9300    9.4354   24.1053 C   0  0  0  0  0  0  0  0  0  0  0  0
    8.5826   10.6651   24.4880 N   0  0  0  0  0  0  0  0  0  0  0  0
  1  2  1  0
  2  3  1  0
  3  4  2  0
  3  5  1  0
  5  6  1  0
  6  7  1  0
  7  8  1  1
  8  9  2  0
  8 10  1  0
 10 11  1  0
 11 12  1  0
 12 13  1  0
 12 14  1  0
 12 15  1  0
 15 16  1  0
 16 17  2  0
 17 18  1  0
 18 19  2  0
  7  2  1  0
 19 15  1  0
M  END
>  <energy_score>  (153) 
-12.447233

>  <inchikey>  (153) 
FZXVNLASEWYDBT-UHFFFAOYSA-N

>  <smiles>  (153) 
CN1C(=O)CC[C@@H]1C(=O)OCC(C)(C)n1cccn1

>  <ref_pdb>  (153) 
A2629a

>  <alias>  (153) 
C13918-P135

>  <HIPPO Pose ID>  (153) 
495248

>  <name>  (153) 
C13918-P135

>  <HIPPO Compound ID>  (153) 
13918

>  <ref_mols>  (153) 
A3956a,A2629a

>  <distance_score>  (153) 
1.430133

>  <inspiration_score>  (153) 
None

$$$$
C1142-P465
     RDKit          3D

 22 24  0  0  0  0  0  0  0  0999 V2000
    4.1863   15.3755    3.7825 C   0  0  0  0  0  0  0  0  0  0  0  0
    5.1471   16.3965    4.0408 O   0  0  0  0  0  0  0  0  0  0  0  0
    6.2322   15.9830    4.7648 C   0  0  0  0  0  0  0  0  0  0  0  0
    7.4490   16.3242    4.2671 C   0  0  0  0  0  0  0  0  0  0  0  0
    8.4293   15.5126    4.7395 C   0  0  0  0  0  0  0  0  0  0  0  0
    8.1242   14.6341    5.8386 C   0  0  0  0  0  0  0  0  0  0  0  0
    7.1627   14.8774    6.8919 C   0  0  0  0  0  0  0  0  0  0  0  0
    6.1464   15.2043    5.9818 C   0  0  0  0  0  0  0  0  0  0  0  0
    6.9201   13.9890    8.6315 C   0  0  2  0  0  0  0  0  0  0  0  0
    7.6563   13.6137   10.5469 N   0  0  0  0  0  0  0  0  0  0  0  0
    6.9497   13.9608   12.2883 C   0  0  0  0  0  0  0  0  0  0  0  0
    5.8299   14.4190   12.5303 O   0  0  0  0  0  0  0  0  0  0  0  0
    8.1024   13.6479   14.0388 C   0  0  2  0  0  0  0  0  0  0  0  0
    8.4828   12.8747   15.8641 C   0  0  0  0  0  0  0  0  0  0  0  0
    9.6600   13.1505   17.2907 C   0  0  0  0  0  0  0  0  0  0  0  0
    9.9430   14.1105   18.4441 C   0  0  0  0  0  0  0  0  0  0  0  0
    9.5845   15.4279   17.9517 C   0  0  0  0  0  0  0  0  0  0  0  0
    8.4477   15.3076   16.8577 C   0  0  0  0  0  0  0  0  0  0  0  0
    7.6854   14.5370   15.4603 N   0  0  0  0  0  0  0  0  0  0  0  0
    6.7990   12.6957    7.0583 C   0  0  0  0  0  0  0  0  0  0  0  0
    7.5335   12.4533    5.6952 C   0  0  0  0  0  0  0  0  0  0  0  0
    8.6133   13.3472    5.6458 N   0  0  0  0  0  0  0  0  0  0  0  0
  1  2  1  0
  2  3  1  0
  3  4  2  0
  4  5  1  0
  5  6  2  0
  6  7  1  0
  7  8  2  0
  7  9  1  0
  9 10  1  1
 10 11  1  0
 11 12  2  0
 13 11  1  1
 13 14  1  0
 14 15  1  0
 15 16  1  0
 16 17  1  0
 17 18  1  0
 18 19  1  0
  9 20  1  0
 20 21  1  0
 21 22  1  0
  8  3  1  0
 19 13  1  0
 22  6  1  0
M  END
>  <energy_score>  (154) 
1079.675622

>  <inchikey>  (154) 
JWMDCIUJPJCIMA-UHFFFAOYSA-N

>  <smiles>  (154) 
COc1ccc2c(c1)[C@H](NC(=O)[C@@H]1CCCCCN1)CCN2

>  <ref_pdb>  (154) 
A4786a

>  <alias>  (154) 
C1142-P465

>  <HIPPO Pose ID>  (154) 
496163

>  <name>  (154) 
C1142-P465

>  <HIPPO Compound ID>  (154) 
1142

>  <ref_mols>  (154) 
A4786a,A0586a

>  <distance_score>  (154) 
5.444975

>  <inspiration_score>  (154) 
None

$$$$
P496339
     RDKit          3D

 21 23  0  0  0  0  0  0  0  0999 V2000
   10.2204   14.2872   25.4067 O   0  0  0  0  0  0  0  0  0  0  0  0
   10.2449   13.6466   24.4344 C   0  0  0  0  0  0  0  0  0  0  0  0
   11.1778   13.7170   23.2226 N   0  0  0  0  0  0  0  0  0  0  0  0
    9.2731   12.5073   24.3585 C   0  0  0  0  0  0  0  0  0  0  0  0
    9.5750   11.3007   23.7293 C   0  0  0  0  0  0  0  0  0  0  0  0
    8.7815   10.2112   24.0200 C   0  0  0  0  0  0  0  0  0  0  0  0
    7.7297   10.2545   24.8688 N   0  0  0  0  0  0  0  0  0  0  0  0
    7.4034   11.4540   25.4142 C   0  0  0  0  0  0  0  0  0  0  0  0
    8.1295   12.6035   25.1600 C   0  0  0  0  0  0  0  0  0  0  0  0
    6.3309   11.4871   26.3448 N   0  0  0  0  0  0  0  0  0  0  0  0
    5.5228   12.5355   26.7161 C   0  0  0  0  0  0  0  0  0  0  0  0
    4.6606   12.0268   27.6644 C   0  0  0  0  0  0  0  0  0  0  0  0
    4.9294   10.7181   27.9208 N   0  0  0  0  0  0  0  0  0  0  0  0
    5.9146   10.4240   27.1046 C   0  0  0  0  0  0  0  0  0  0  0  0
   12.2217   14.6498   22.9010 C   0  0  0  0  0  0  0  0  0  0  0  0
   12.2806   15.0194   21.4281 C   0  0  0  0  0  0  0  0  0  0  0  0
   10.9538   15.2709   20.7966 C   0  0  0  0  0  0  0  0  0  0  0  0
   10.6603   15.2167   19.4198 C   0  0  0  0  0  0  0  0  0  0  0  0
    9.4674   15.8799   19.3068 C   0  0  0  0  0  0  0  0  0  0  0  0
    9.0438   16.1416   20.5724 N   0  0  0  0  0  0  0  0  0  0  0  0
    9.8892   15.6757   21.4990 N   0  0  0  0  0  0  0  0  0  0  0  0
  1  2  2  0
  2  3  1  0
  3 15  1  0
 15 16  1  0
 16 17  1  0
 17 18  1  0
 18 19  2  0
 19 20  1  0
 20 21  1  0
  2  4  1  0
  4  5  2  0
  5  6  1  0
  6  7  2  0
  7  8  1  0
  8 10  1  0
 10 11  1  0
 11 12  2  0
 12 13  1  0
 13 14  2  0
  8  9  2  0
 21 17  2  0
  9  4  1  0
 14 10  1  0
M  END
>  <energy_score>  (155) 
-6.84743

>  <inchikey>  (155) 
ZZPZYEPSKIPXIU-UHFFFAOYSA-N

>  <smiles>  (155) 
O=C(NCCc1cc[nH]n1)c1ccnc(-n2ccnc2)c1

>  <ref_pdb>  (155) 
A3435a

>  <alias>  (155) 
None

>  <HIPPO Pose ID>  (155) 
496339

>  <name>  (155) 
P496339

>  <HIPPO Compound ID>  (155) 
16361

>  <ref_mols>  (155) 
A0556a,A3435a

>  <distance_score>  (155) 
0.44443

>  <inspiration_score>  (155) 
None

$$$$
P497800
     RDKit          3D

 25 28  0  0  0  0  0  0  0  0999 V2000
    8.7630   12.3610    0.9956 C   0  0  0  0  0  0  0  0  0  0  0  0
    8.9498   13.6075    1.6974 N   0  0  0  0  0  0  0  0  0  0  0  0
    8.1952   14.0923    2.7177 C   0  0  0  0  0  0  0  0  0  0  0  0
    8.7827   15.2823    3.0848 C   0  0  0  0  0  0  0  0  0  0  0  0
    9.9174   15.4345    2.2384 C   0  0  0  0  0  0  0  0  0  0  0  0
   11.0084   16.4320    2.2807 C   0  0  0  0  0  0  0  0  0  0  0  0
   11.8743   16.5566    1.1814 C   0  0  0  0  0  0  0  0  0  0  0  0
   13.0176   17.3748    1.2237 C   0  0  0  0  0  0  0  0  0  0  0  0
   13.3584   18.0974    2.3762 C   0  0  0  0  0  0  0  0  0  0  0  0
   14.6127   18.9738    2.3901 C   0  0  0  0  0  0  0  0  0  0  0  0
   15.7152   18.4483    3.2149 N   0  0  0  0  0  0  0  0  0  0  0  0
   17.0716   18.6366    2.6204 C   0  0  0  0  0  0  0  0  0  0  0  0
   17.6534   17.3259    2.0898 C   0  0  0  0  0  0  0  0  0  0  0  0
   16.8067   16.5488    1.2948 C   0  0  0  0  0  0  0  0  0  0  0  0
   17.0352   15.1973    1.0999 C   0  0  0  0  0  0  0  0  0  0  0  0
   18.1836   14.6339    1.6510 C   0  0  0  0  0  0  0  0  0  0  0  0
   18.6465   13.3208    1.7975 C   0  0  0  0  0  0  0  0  0  0  0  0
   19.8409   13.2750    2.3745 N   0  0  0  0  0  0  0  0  0  0  0  0
   20.2056   14.5725    2.4562 N   0  0  0  0  0  0  0  0  0  0  0  0
   21.6132   14.8509    2.6166 C   0  0  0  0  0  0  0  0  0  0  0  0
   19.1602   15.4460    2.2288 C   0  0  0  0  0  0  0  0  0  0  0  0
   18.9303   16.8242    2.4475 C   0  0  0  0  0  0  0  0  0  0  0  0
   12.4854   17.9994    3.4717 C   0  0  0  0  0  0  0  0  0  0  0  0
   11.3228   17.1872    3.4223 C   0  0  0  0  0  0  0  0  0  0  0  0
    9.9808   14.4046    1.3740 N   0  0  0  0  0  0  0  0  0  0  0  0
  1  2  1  0
  2  3  1  0
  3  4  2  0
  4  5  1  0
  5  6  1  0
  6  7  2  0
  7  8  1  0
  8  9  2  0
  9 10  1  0
 10 11  1  0
 11 12  1  0
 12 13  1  0
 13 14  2  0
 14 15  1  0
 15 16  2  0
 16 17  1  0
 17 18  2  0
 18 19  1  0
 19 20  1  0
 19 21  1  0
 21 22  2  0
  9 23  1  0
 23 24  2  0
  5 25  2  0
 25  2  1  0
 24  6  1  0
 22 13  1  0
 21 16  1  0
M  END
>  <energy_score>  (156) 
-15.722514

>  <inchikey>  (156) 
None

>  <smiles>  (156) 
None

>  <ref_pdb>  (156) 
A0486a

>  <alias>  (156) 
None

>  <HIPPO Pose ID>  (156) 
497800

>  <name>  (156) 
P497800

>  <HIPPO Compound ID>  (156) 
289721

>  <ref_mols>  (156) 
A0486a,A0717a

>  <distance_score>  (156) 
1.809404

>  <inspiration_score>  (156) 
None

$$$$
P497801
     RDKit          3D

 25 28  0  0  0  0  0  0  0  0999 V2000
   10.5093   14.4246   -0.2377 C   0  0  0  0  0  0  0  0  0  0  0  0
    9.7931   14.4698    1.0172 N   0  0  0  0  0  0  0  0  0  0  0  0
    8.8003   13.5828    1.2112 N   0  0  0  0  0  0  0  0  0  0  0  0
    8.2791   13.9373    2.3838 C   0  0  0  0  0  0  0  0  0  0  0  0
    8.9394   15.0493    2.9403 C   0  0  0  0  0  0  0  0  0  0  0  0
    9.9973   15.3222    2.0847 C   0  0  0  0  0  0  0  0  0  0  0  0
   11.1695   16.2009    2.2423 C   0  0  0  0  0  0  0  0  0  0  0  0
   11.0756   17.5485    2.5930 C   0  0  0  0  0  0  0  0  0  0  0  0
   12.2363   18.3527    2.7098 C   0  0  0  0  0  0  0  0  0  0  0  0
   13.5292   17.8320    2.5044 C   0  0  0  0  0  0  0  0  0  0  0  0
   14.7542   18.7508    2.4479 C   0  0  0  0  0  0  0  0  0  0  0  0
   15.9213   18.3214    3.2380 N   0  0  0  0  0  0  0  0  0  0  0  0
   17.2353   18.6307    2.6060 C   0  0  0  0  0  0  0  0  0  0  0  0
   17.8582   17.3848    1.9797 C   0  0  0  0  0  0  0  0  0  0  0  0
   17.0881   16.7131    1.0275 C   0  0  0  0  0  0  0  0  0  0  0  0
   17.2809   15.3626    0.7785 C   0  0  0  0  0  0  0  0  0  0  0  0
   18.3175   14.7062    1.4418 C   0  0  0  0  0  0  0  0  0  0  0  0
   18.6868   13.3629    1.5985 C   0  0  0  0  0  0  0  0  0  0  0  0
   19.7990   13.2325    2.3126 N   0  0  0  0  0  0  0  0  0  0  0  0
   20.2335   14.5033    2.4521 N   0  0  0  0  0  0  0  0  0  0  0  0
   21.6438   14.6971    2.6960 C   0  0  0  0  0  0  0  0  0  0  0  0
   19.2597   15.4380    2.1644 C   0  0  0  0  0  0  0  0  0  0  0  0
   19.0696   16.8097    2.4343 C   0  0  0  0  0  0  0  0  0  0  0  0
   13.6167   16.4688    2.2016 C   0  0  0  0  0  0  0  0  0  0  0  0
   12.4634   15.6738    2.0735 C   0  0  0  0  0  0  0  0  0  0  0  0
  1  2  1  0
  2  3  1  0
  3  4  2  0
  4  5  1  0
  5  6  2  0
  6  7  1  0
  7  8  2  0
  8  9  1  0
  9 10  2  0
 10 11  1  0
 11 12  1  0
 12 13  1  0
 13 14  1  0
 14 15  2  0
 15 16  1  0
 16 17  2  0
 17 18  1  0
 18 19  2  0
 19 20  1  0
 20 21  1  0
 20 22  1  0
 22 23  2  0
 10 24  1  0
 24 25  2  0
  6  2  1  0
 25  7  1  0
 23 14  1  0
 22 17  1  0
M  END
>  <energy_score>  (157) 
-14.599318

>  <inchikey>  (157) 
None

>  <smiles>  (157) 
None

>  <ref_pdb>  (157) 
A0486a

>  <alias>  (157) 
None

>  <HIPPO Pose ID>  (157) 
497801

>  <name>  (157) 
P497801

>  <HIPPO Compound ID>  (157) 
289722

>  <ref_mols>  (157) 
A0486a,A0717a

>  <distance_score>  (157) 
1.730914

>  <inspiration_score>  (157) 
None

$$$$
P497802
     RDKit          3D

 26 29  0  0  0  0  0  0  0  0999 V2000
    8.6446   11.8574    1.3432 C   0  0  0  0  0  0  0  0  0  0  0  0
    8.9401   13.2159    1.7309 N   0  0  0  0  0  0  0  0  0  0  0  0
    8.2573   13.9757    2.6263 C   0  0  0  0  0  0  0  0  0  0  0  0
    8.9237   15.1785    2.6821 C   0  0  0  0  0  0  0  0  0  0  0  0
   10.0261   15.0547    1.7904 C   0  0  0  0  0  0  0  0  0  0  0  0
   11.1283   15.9936    1.5078 C   0  0  0  0  0  0  0  0  0  0  0  0
   11.4914   17.0313    2.3725 C   0  0  0  0  0  0  0  0  0  0  0  0
   12.6233   17.8387    2.1046 C   0  0  0  0  0  0  0  0  0  0  0  0
   13.4328   17.6403    0.9668 C   0  0  0  0  0  0  0  0  0  0  0  0
   14.6300   18.5573    0.6960 C   0  0  0  0  0  0  0  0  0  0  0  0
   15.7873   17.9129    0.0482 N   0  0  0  0  0  0  0  0  0  0  0  0
   17.0966   18.3086    0.5854 C   0  0  2  0  0  0  0  0  0  0  0  0
   17.9391   18.4347   -0.5365 O   0  0  0  0  0  0  0  0  0  0  0  0
   17.6657   17.2592    1.5450 C   0  0  0  0  0  0  0  0  0  0  0  0
   16.8146   16.8438    2.5783 C   0  0  0  0  0  0  0  0  0  0  0  0
   17.0362   15.6676    3.2748 C   0  0  0  0  0  0  0  0  0  0  0  0
   18.1842   14.9327    2.9864 C   0  0  0  0  0  0  0  0  0  0  0  0
   18.6675   13.6836    3.3900 C   0  0  0  0  0  0  0  0  0  0  0  0
   19.8636   13.4112    2.8861 N   0  0  0  0  0  0  0  0  0  0  0  0
   20.1986   14.5476    2.2383 N   0  0  0  0  0  0  0  0  0  0  0  0
   21.5702   14.6941    1.8167 C   0  0  0  0  0  0  0  0  0  0  0  0
   19.1549   15.4439    2.1284 C   0  0  0  0  0  0  0  0  0  0  0  0
   18.9229   16.6191    1.3823 C   0  0  0  0  0  0  0  0  0  0  0  0
   13.0391   16.6335    0.0799 C   0  0  0  0  0  0  0  0  0  0  0  0
   11.9199   15.8211    0.3547 C   0  0  0  0  0  0  0  0  0  0  0  0
   10.0122   13.8393    1.2153 N   0  0  0  0  0  0  0  0  0  0  0  0
  1  2  1  0
  2  3  1  0
  3  4  2  0
  4  5  1  0
  5  6  1  0
  6  7  2  0
  7  8  1  0
  8  9  2  0
  9 10  1  0
 10 11  1  0
 11 12  1  0
 12 13  1  6
 12 14  1  0
 14 15  2  0
 15 16  1  0
 16 17  2  0
 17 18  1  0
 18 19  2  0
 19 20  1  0
 20 21  1  0
 20 22  1  0
 22 23  2  0
  9 24  1  0
 24 25  2  0
  5 26  2  0
 26  2  1  0
 25  6  1  0
 23 14  1  0
 22 17  1  0
M  END
>  <energy_score>  (158) 
-25.901034

>  <inchikey>  (158) 
None

>  <smiles>  (158) 
None

>  <ref_pdb>  (158) 
A0486a

>  <alias>  (158) 
None

>  <HIPPO Pose ID>  (158) 
497802

>  <name>  (158) 
P497802

>  <HIPPO Compound ID>  (158) 
289725

>  <ref_mols>  (158) 
A0486a,A0717a

>  <distance_score>  (158) 
1.852658

>  <inspiration_score>  (158) 
None

$$$$
P497803
     RDKit          3D

 26 29  0  0  0  0  0  0  0  0999 V2000
    8.9397   12.2039    0.8803 C   0  0  0  0  0  0  0  0  0  0  0  0
    9.1169   13.4872    1.5160 N   0  0  0  0  0  0  0  0  0  0  0  0
    8.3403   14.0315    2.4893 C   0  0  0  0  0  0  0  0  0  0  0  0
    8.9168   15.2443    2.7922 C   0  0  0  0  0  0  0  0  0  0  0  0
   10.0687   15.3475    1.9601 C   0  0  0  0  0  0  0  0  0  0  0  0
   11.1422   16.3619    1.9503 C   0  0  0  0  0  0  0  0  0  0  0  0
   11.9821   16.5090    0.8273 C   0  0  0  0  0  0  0  0  0  0  0  0
   13.1306   17.3362    0.8404 C   0  0  0  0  0  0  0  0  0  0  0  0
   13.5060   18.0191    1.9973 C   0  0  0  0  0  0  0  0  0  0  0  0
   14.7945   18.8185    2.1868 C   0  0  0  0  0  0  0  0  0  0  0  0
   15.7806   19.0059    1.1160 N   0  0  0  0  0  0  0  0  0  0  0  0
   16.5769   17.9130    0.5829 C   0  0  1  0  0  0  0  0  0  0  0  0
   17.5429   18.5465   -0.2358 O   0  0  0  0  0  0  0  0  0  0  0  0
   17.2872   16.9405    1.5242 C   0  0  0  0  0  0  0  0  0  0  0  0
   16.4433   16.1199    2.2830 C   0  0  0  0  0  0  0  0  0  0  0  0
   16.8971   15.0339    3.0091 C   0  0  0  0  0  0  0  0  0  0  0  0
   18.2399   14.6977    2.9086 C   0  0  0  0  0  0  0  0  0  0  0  0
   18.9947   13.6320    3.3966 C   0  0  0  0  0  0  0  0  0  0  0  0
   20.2535   13.6702    2.9876 N   0  0  0  0  0  0  0  0  0  0  0  0
   20.3381   14.8404    2.3236 N   0  0  0  0  0  0  0  0  0  0  0  0
   21.6456   15.2374    1.8691 C   0  0  0  0  0  0  0  0  0  0  0  0
   19.1279   15.4930    2.1878 C   0  0  0  0  0  0  0  0  0  0  0  0
   18.6827   16.6525    1.5063 C   0  0  0  0  0  0  0  0  0  0  0  0
   12.6259   17.9219    3.1009 C   0  0  0  0  0  0  0  0  0  0  0  0
   11.4627   17.1208    3.0785 C   0  0  0  0  0  0  0  0  0  0  0  0
   10.1630   14.2591    1.1766 N   0  0  0  0  0  0  0  0  0  0  0  0
  1  2  1  0
  2  3  1  0
  3  4  2  0
  4  5  1  0
  5  6  1  0
  6  7  2  0
  7  8  1  0
  8  9  2  0
  9 10  1  0
 10 11  1  0
 11 12  1  0
 12 13  1  6
 12 14  1  0
 14 15  2  0
 15 16  1  0
 16 17  2  0
 17 18  1  0
 18 19  2  0
 19 20  1  0
 20 21  1  0
 20 22  1  0
 22 23  2  0
  9 24  1  0
 24 25  2  0
  5 26  2  0
 26  2  1  0
 25  6  1  0
 23 14  1  0
 22 17  1  0
M  END
>  <energy_score>  (159) 
-22.123545

>  <inchikey>  (159) 
None

>  <smiles>  (159) 
None

>  <ref_pdb>  (159) 
A0486a

>  <alias>  (159) 
None

>  <HIPPO Pose ID>  (159) 
497803

>  <name>  (159) 
P497803

>  <HIPPO Compound ID>  (159) 
289725

>  <ref_mols>  (159) 
A0486a,A0717a

>  <distance_score>  (159) 
1.937272

>  <inspiration_score>  (159) 
None

$$$$
P497804
     RDKit          3D

 26 29  0  0  0  0  0  0  0  0999 V2000
   10.6281   14.6173   -0.3481 C   0  0  0  0  0  0  0  0  0  0  0  0
    9.9126   14.6118    0.9080 N   0  0  0  0  0  0  0  0  0  0  0  0
    8.8905   13.7490    1.0514 N   0  0  0  0  0  0  0  0  0  0  0  0
    8.3613   14.0724    2.2296 C   0  0  0  0  0  0  0  0  0  0  0  0
    9.0623   15.1245    2.8498 C   0  0  0  0  0  0  0  0  0  0  0  0
   10.1514   15.3837    2.0276 C   0  0  0  0  0  0  0  0  0  0  0  0
   11.3912   16.1426    2.2812 C   0  0  0  0  0  0  0  0  0  0  0  0
   11.4147   17.4410    2.7992 C   0  0  0  0  0  0  0  0  0  0  0  0
   12.6391   18.0733    3.1397 C   0  0  0  0  0  0  0  0  0  0  0  0
   13.8720   17.4124    3.0041 C   0  0  0  0  0  0  0  0  0  0  0  0
   15.1981   18.0251    3.4586 C   0  0  0  0  0  0  0  0  0  0  0  0
   15.8480   18.8753    2.4551 N   0  0  0  0  0  0  0  0  0  0  0  0
   17.3099   18.7328    2.3906 C   0  0  2  0  0  0  0  0  0  0  0  0
   17.7678   19.7212    1.4999 O   0  0  0  0  0  0  0  0  0  0  0  0
   17.8295   17.3845    1.8985 C   0  0  0  0  0  0  0  0  0  0  0  0
   17.0443   16.6566    0.9976 C   0  0  0  0  0  0  0  0  0  0  0  0
   17.2268   15.2929    0.8190 C   0  0  0  0  0  0  0  0  0  0  0  0
   18.2704   14.6660    1.4972 C   0  0  0  0  0  0  0  0  0  0  0  0
   18.6487   13.3315    1.6934 C   0  0  0  0  0  0  0  0  0  0  0  0
   19.7742   13.2313    2.3893 N   0  0  0  0  0  0  0  0  0  0  0  0
   20.2045   14.5081    2.4807 N   0  0  0  0  0  0  0  0  0  0  0  0
   21.6189   14.7163    2.6884 C   0  0  0  0  0  0  0  0  0  0  0  0
   19.2219   15.4285    2.1738 C   0  0  0  0  0  0  0  0  0  0  0  0
   19.0382   16.8136    2.3769 C   0  0  0  0  0  0  0  0  0  0  0  0
   13.8438   16.1167    2.4757 C   0  0  0  0  0  0  0  0  0  0  0  0
   12.6334   15.5014    2.1138 C   0  0  0  0  0  0  0  0  0  0  0  0
  1  2  1  0
  2  3  1  0
  3  4  2  0
  4  5  1  0
  5  6  2  0
  6  7  1  0
  7  8  2  0
  8  9  1  0
  9 10  2  0
 10 11  1  0
 11 12  1  0
 12 13  1  0
 13 14  1  6
 13 15  1  0
 15 16  2  0
 16 17  1  0
 17 18  2  0
 18 19  1  0
 19 20  2  0
 20 21  1  0
 21 22  1  0
 21 23  1  0
 23 24  2  0
 10 25  1  0
 25 26  2  0
  6  2  1  0
 26  7  1  0
 24 15  1  0
 23 18  1  0
M  END
>  <energy_score>  (160) 
-24.858672

>  <inchikey>  (160) 
None

>  <smiles>  (160) 
None

>  <ref_pdb>  (160) 
A0486a

>  <alias>  (160) 
None

>  <HIPPO Pose ID>  (160) 
497804

>  <name>  (160) 
P497804

>  <HIPPO Compound ID>  (160) 
289726

>  <ref_mols>  (160) 
A0486a,A0717a

>  <distance_score>  (160) 
1.907344

>  <inspiration_score>  (160) 
None

$$$$
P497805
     RDKit          3D

 26 29  0  0  0  0  0  0  0  0999 V2000
   10.4685   13.2851   -0.2023 C   0  0  0  0  0  0  0  0  0  0  0  0
    9.8316   13.8710    0.9564 N   0  0  0  0  0  0  0  0  0  0  0  0
    8.7359   13.2706    1.4493 N   0  0  0  0  0  0  0  0  0  0  0  0
    8.3637   14.0583    2.4548 C   0  0  0  0  0  0  0  0  0  0  0  0
    9.2136   15.1726    2.5975 C   0  0  0  0  0  0  0  0  0  0  0  0
   10.2177   14.9956    1.6606 C   0  0  0  0  0  0  0  0  0  0  0  0
   11.4635   15.7257    1.3907 C   0  0  0  0  0  0  0  0  0  0  0  0
   12.6938   15.0506    1.4664 C   0  0  0  0  0  0  0  0  0  0  0  0
   13.8879   15.6398    1.0142 C   0  0  0  0  0  0  0  0  0  0  0  0
   13.9021   16.9343    0.4763 C   0  0  0  0  0  0  0  0  0  0  0  0
   15.1747   17.4779   -0.1752 C   0  0  0  0  0  0  0  0  0  0  0  0
   15.8098   18.5981    0.5301 N   0  0  0  0  0  0  0  0  0  0  0  0
   17.2590   18.4503    0.7074 C   0  0  1  0  0  0  0  0  0  0  0  0
   17.7133   19.6598    1.2694 O   0  0  0  0  0  0  0  0  0  0  0  0
   17.7149   17.3206    1.6248 C   0  0  0  0  0  0  0  0  0  0  0  0
   16.8384   16.8809    2.6244 C   0  0  0  0  0  0  0  0  0  0  0  0
   17.0229   15.6703    3.2708 C   0  0  0  0  0  0  0  0  0  0  0  0
   18.1664   14.9307    2.9793 C   0  0  0  0  0  0  0  0  0  0  0  0
   18.6249   13.6646    3.3533 C   0  0  0  0  0  0  0  0  0  0  0  0
   19.8335   13.3963    2.8777 N   0  0  0  0  0  0  0  0  0  0  0  0
   20.1955   14.5479    2.2707 N   0  0  0  0  0  0  0  0  0  0  0  0
   21.5791   14.6941    1.8881 C   0  0  0  0  0  0  0  0  0  0  0  0
   19.1634   15.4582    2.1621 C   0  0  0  0  0  0  0  0  0  0  0  0
   18.9644   16.6647    1.4580 C   0  0  0  0  0  0  0  0  0  0  0  0
   12.6880   17.6418    0.4738 C   0  0  0  0  0  0  0  0  0  0  0  0
   11.4841   17.0450    0.9251 C   0  0  0  0  0  0  0  0  0  0  0  0
  1  2  1  0
  2  3  1  0
  3  4  2  0
  4  5  1  0
  5  6  2  0
  6  7  1  0
  7  8  2  0
  8  9  1  0
  9 10  2  0
 10 11  1  0
 11 12  1  0
 12 13  1  0
 13 14  1  1
 13 15  1  0
 15 16  2  0
 16 17  1  0
 17 18  2  0
 18 19  1  0
 19 20  2  0
 20 21  1  0
 21 22  1  0
 21 23  1  0
 23 24  2  0
 10 25  1  0
 25 26  2  0
  6  2  1  0
 26  7  1  0
 24 15  1  0
 23 18  1  0
M  END
>  <energy_score>  (161) 
-29.217268

>  <inchikey>  (161) 
None

>  <smiles>  (161) 
None

>  <ref_pdb>  (161) 
A0486a

>  <alias>  (161) 
None

>  <HIPPO Pose ID>  (161) 
497805

>  <name>  (161) 
P497805

>  <HIPPO Compound ID>  (161) 
289726

>  <ref_mols>  (161) 
A0486a,A0717a

>  <distance_score>  (161) 
1.924109

>  <inspiration_score>  (161) 
None

$$$$
P497806
     RDKit          3D

 26 29  0  0  0  0  0  0  0  0999 V2000
   22.3842   16.6991    1.7327 C   0  0  0  0  0  0  0  0  0  0  0  0
   21.1228   15.9750    2.0323 C   0  0  0  0  0  0  0  0  0  0  0  0
   19.8052   16.3410    1.9647 C   0  0  0  0  0  0  0  0  0  0  0  0
   19.3435   17.5946    1.5833 C   0  0  0  0  0  0  0  0  0  0  0  0
   17.9430   17.6541    1.5695 C   0  0  0  0  0  0  0  0  0  0  0  0
   17.0969   16.5540    1.9267 C   0  0  0  0  0  0  0  0  0  0  0  0
   15.5853   16.7279    1.7742 C   0  0  0  0  0  0  0  0  0  0  0  0
   15.0209   17.6738    2.7445 N   0  0  0  0  0  0  0  0  0  0  0  0
   13.8303   18.3718    2.2334 C   0  0  0  0  0  0  0  0  0  0  0  0
   12.5719   17.5341    2.1778 C   0  0  0  0  0  0  0  0  0  0  0  0
   11.6422   17.5466    3.2300 C   0  0  0  0  0  0  0  0  0  0  0  0
   10.4938   16.7367    3.1959 C   0  0  0  0  0  0  0  0  0  0  0  0
   10.2762   15.8579    2.1272 C   0  0  0  0  0  0  0  0  0  0  0  0
    9.2755   14.7824    2.1855 C   0  0  0  0  0  0  0  0  0  0  0  0
    8.2333   14.5639    3.1267 C   0  0  0  0  0  0  0  0  0  0  0  0
    7.7374   13.3118    2.8478 C   0  0  0  0  0  0  0  0  0  0  0  0
    8.4564   12.8560    1.7895 N   0  0  0  0  0  0  0  0  0  0  0  0
    8.3465   11.5621    1.1616 C   0  0  0  0  0  0  0  0  0  0  0  0
    9.3656   13.7360    1.3449 N   0  0  0  0  0  0  0  0  0  0  0  0
   11.1778   15.8974    1.0494 C   0  0  0  0  0  0  0  0  0  0  0  0
   12.3032   16.7268    1.0687 C   0  0  0  0  0  0  0  0  0  0  0  0
   17.6186   15.2936    2.3416 C   0  0  0  0  0  0  0  0  0  0  0  0
   19.0175   15.1995    2.3395 C   0  0  0  0  0  0  0  0  0  0  0  0
   19.8334   14.1742    2.6394 N   0  0  0  0  0  0  0  0  0  0  0  0
   21.0840   14.6818    2.4949 N   0  0  0  0  0  0  0  0  0  0  0  0
   22.2241   13.8771    2.8669 C   0  0  0  0  0  0  0  0  0  0  0  0
  1  2  1  0
  2  3  2  0
  3  4  1  0
  4  5  2  0
  5  6  1  0
  6  7  1  0
  7  8  1  0
  8  9  1  0
  9 10  1  0
 10 11  2  0
 11 12  1  0
 12 13  2  0
 13 14  1  0
 14 15  1  0
 15 16  2  0
 16 17  1  0
 17 18  1  0
 17 19  1  0
 13 20  1  0
 20 21  2  0
  6 22  2  0
 22 23  1  0
 23 24  2  0
 24 25  1  0
 25 26  1  0
 25  2  1  0
 23  3  1  0
 21 10  1  0
 19 14  2  0
M  END
>  <energy_score>  (162) 
-30.117665

>  <inchikey>  (162) 
None

>  <smiles>  (162) 
None

>  <ref_pdb>  (162) 
A0486a

>  <alias>  (162) 
None

>  <HIPPO Pose ID>  (162) 
497806

>  <name>  (162) 
P497806

>  <HIPPO Compound ID>  (162) 
289727

>  <ref_mols>  (162) 
A0486a,A0717a

>  <distance_score>  (162) 
1.699842

>  <inspiration_score>  (162) 
None

$$$$
P497807
     RDKit          3D

 26 29  0  0  0  0  0  0  0  0999 V2000
   22.3734   16.7327    1.8050 C   0  0  0  0  0  0  0  0  0  0  0  0
   21.1061   16.0049    2.0700 C   0  0  0  0  0  0  0  0  0  0  0  0
   19.7924   16.3849    2.0168 C   0  0  0  0  0  0  0  0  0  0  0  0
   19.3461   17.6625    1.7048 C   0  0  0  0  0  0  0  0  0  0  0  0
   17.9473   17.7386    1.6984 C   0  0  0  0  0  0  0  0  0  0  0  0
   17.0874   16.6278    1.9779 C   0  0  0  0  0  0  0  0  0  0  0  0
   15.5825   16.8470    1.8426 C   0  0  0  0  0  0  0  0  0  0  0  0
   15.0819   17.7792    2.8539 N   0  0  0  0  0  0  0  0  0  0  0  0
   13.9139   18.5561    2.4270 C   0  0  0  0  0  0  0  0  0  0  0  0
   12.6336   17.7621    2.3073 C   0  0  0  0  0  0  0  0  0  0  0  0
   11.8038   17.5479    3.4146 C   0  0  0  0  0  0  0  0  0  0  0  0
   10.6661   16.7322    3.3113 C   0  0  0  0  0  0  0  0  0  0  0  0
   10.3627   16.0629    2.1167 C   0  0  0  0  0  0  0  0  0  0  0  0
    9.3901   14.9546    2.0957 C   0  0  0  0  0  0  0  0  0  0  0  0
    8.2894   14.7112    2.9059 C   0  0  0  0  0  0  0  0  0  0  0  0
    7.8056   13.4457    2.5365 C   0  0  0  0  0  0  0  0  0  0  0  0
    8.5131   12.9124    1.5465 N   0  0  0  0  0  0  0  0  0  0  0  0
    9.5080   13.7935    1.3444 N   0  0  0  0  0  0  0  0  0  0  0  0
   10.5868   13.3648    0.4810 C   0  0  0  0  0  0  0  0  0  0  0  0
   11.1162   16.3984    0.9840 C   0  0  0  0  0  0  0  0  0  0  0  0
   12.2454   17.2208    1.0782 C   0  0  0  0  0  0  0  0  0  0  0  0
   17.5927   15.3376    2.3159 C   0  0  0  0  0  0  0  0  0  0  0  0
   18.9922   15.2323    2.3274 C   0  0  0  0  0  0  0  0  0  0  0  0
   19.7987   14.1890    2.5943 N   0  0  0  0  0  0  0  0  0  0  0  0
   21.0546   14.6964    2.4839 N   0  0  0  0  0  0  0  0  0  0  0  0
   22.1870   13.8763    2.8448 C   0  0  0  0  0  0  0  0  0  0  0  0
  1  2  1  0
  2  3  2  0
  3  4  1  0
  4  5  2  0
  5  6  1  0
  6  7  1  0
  7  8  1  0
  8  9  1  0
  9 10  1  0
 10 11  2  0
 11 12  1  0
 12 13  2  0
 13 14  1  0
 14 15  2  0
 15 16  1  0
 16 17  2  0
 17 18  1  0
 18 19  1  0
 13 20  1  0
 20 21  2  0
  6 22  2  0
 22 23  1  0
 23 24  2  0
 24 25  1  0
 25 26  1  0
 25  2  1  0
 23  3  1  0
 21 10  1  0
 18 14  1  0
M  END
>  <energy_score>  (163) 
-38.873976

>  <inchikey>  (163) 
None

>  <smiles>  (163) 
None

>  <ref_pdb>  (163) 
A0486a

>  <alias>  (163) 
None

>  <HIPPO Pose ID>  (163) 
497807

>  <name>  (163) 
P497807

>  <HIPPO Compound ID>  (163) 
289728

>  <ref_mols>  (163) 
A0486a,A0717a

>  <distance_score>  (163) 
1.790285

>  <inspiration_score>  (163) 
None

$$$$
P497808
     RDKit          3D

 26 29  0  0  0  0  0  0  0  0999 V2000
    8.4660   11.6680    1.3318 C   0  0  0  0  0  0  0  0  0  0  0  0
    8.6448   13.0118    1.8256 N   0  0  0  0  0  0  0  0  0  0  0  0
    7.9305   13.6222    2.8068 C   0  0  0  0  0  0  0  0  0  0  0  0
    8.4925   14.8685    2.9606 C   0  0  0  0  0  0  0  0  0  0  0  0
    9.5659   14.9242    2.0307 C   0  0  0  0  0  0  0  0  0  0  0  0
   10.6071   15.9473    1.8502 C   0  0  0  0  0  0  0  0  0  0  0  0
   11.4092   15.9237    0.6954 C   0  0  0  0  0  0  0  0  0  0  0  0
   12.5440   16.7389    0.5651 C   0  0  0  0  0  0  0  0  0  0  0  0
   12.9382   17.5865    1.6049 C   0  0  0  0  0  0  0  0  0  0  0  0
   14.2175   18.4158    1.5602 C   0  0  0  0  0  0  0  0  0  0  0  0
   15.2392   17.9167    0.6296 N   0  0  0  0  0  0  0  0  0  0  0  0
   16.5950   18.3316    0.9782 C   0  0  2  0  0  0  0  0  0  0  0  0
   17.1515   18.8043   -0.2261 O   0  0  0  0  0  0  0  0  0  0  0  0
   17.4682   17.2011    1.5441 C   0  0  0  0  0  0  0  0  0  0  0  0
   16.8661   16.2692    2.4675 C   0  0  0  0  0  0  0  0  0  0  0  0
   17.4992   15.1394    3.0183 C   0  0  0  0  0  0  0  0  0  0  0  0
   18.8125   15.0661    2.5988 C   0  0  0  0  0  0  0  0  0  0  0  0
   19.7243   14.1428    3.0231 C   0  0  0  0  0  0  0  0  0  0  0  0
   20.9021   14.5318    2.4575 N   0  0  0  0  0  0  0  0  0  0  0  0
   22.2170   13.9971    2.7198 C   0  0  0  0  0  0  0  0  0  0  0  0
   20.7820   15.5881    1.6347 N   0  0  0  0  0  0  0  0  0  0  0  0
   19.5018   15.9741    1.7384 C   0  0  0  0  0  0  0  0  0  0  0  0
   18.8399   17.0802    1.1769 C   0  0  0  0  0  0  0  0  0  0  0  0
   12.0901   17.6738    2.7262 C   0  0  0  0  0  0  0  0  0  0  0  0
   10.9372   16.8720    2.8465 C   0  0  0  0  0  0  0  0  0  0  0  0
    9.6267   13.7792    1.3283 N   0  0  0  0  0  0  0  0  0  0  0  0
  1  2  1  0
  2  3  1  0
  3  4  2  0
  4  5  1  0
  5  6  1  0
  6  7  2  0
  7  8  1  0
  8  9  2  0
  9 10  1  0
 10 11  1  0
 11 12  1  0
 12 13  1  6
 12 14  1  0
 14 15  1  0
 15 16  2  0
 16 17  1  0
 17 18  2  0
 18 19  1  0
 19 20  1  0
 19 21  1  0
 21 22  2  0
 22 23  1  0
  9 24  1  0
 24 25  2  0
  5 26  2  0
 26  2  1  0
 25  6  1  0
 23 14  2  0
 22 17  1  0
M  END
>  <energy_score>  (164) 
-27.863466

>  <inchikey>  (164) 
None

>  <smiles>  (164) 
None

>  <ref_pdb>  (164) 
A0486a

>  <alias>  (164) 
None

>  <HIPPO Pose ID>  (164) 
497808

>  <name>  (164) 
P497808

>  <HIPPO Compound ID>  (164) 
289729

>  <ref_mols>  (164) 
A0486a,A0717a

>  <distance_score>  (164) 
1.892455

>  <inspiration_score>  (164) 
None

$$$$
P497809
     RDKit          3D

 26 29  0  0  0  0  0  0  0  0999 V2000
    8.4160   11.6780    1.2826 C   0  0  0  0  0  0  0  0  0  0  0  0
    8.6051   13.0137    1.7936 N   0  0  0  0  0  0  0  0  0  0  0  0
    7.8748   13.6299    2.7588 C   0  0  0  0  0  0  0  0  0  0  0  0
    8.4676   14.8566    2.9515 C   0  0  0  0  0  0  0  0  0  0  0  0
    9.5772   14.8932    2.0626 C   0  0  0  0  0  0  0  0  0  0  0  0
   10.6674   15.8787    1.9550 C   0  0  0  0  0  0  0  0  0  0  0  0
   10.7462   17.0288    2.7478 C   0  0  0  0  0  0  0  0  0  0  0  0
   11.8978   17.8461    2.7220 C   0  0  0  0  0  0  0  0  0  0  0  0
   13.0011   17.5427    1.9022 C   0  0  0  0  0  0  0  0  0  0  0  0
   14.2805   18.3703    1.9957 C   0  0  0  0  0  0  0  0  0  0  0  0
   15.2106   18.1393    0.8833 N   0  0  0  0  0  0  0  0  0  0  0  0
   16.6162   18.4286    1.1444 C   0  0  1  0  0  0  0  0  0  0  0  0
   16.7635   19.5237    2.0227 O   0  0  0  0  0  0  0  0  0  0  0  0
   17.4512   17.2491    1.6530 C   0  0  0  0  0  0  0  0  0  0  0  0
   16.8101   16.1506    2.3285 C   0  0  0  0  0  0  0  0  0  0  0  0
   17.4537   15.0025    2.8266 C   0  0  0  0  0  0  0  0  0  0  0  0
   18.8059   15.0590    2.5645 C   0  0  0  0  0  0  0  0  0  0  0  0
   19.7239   14.1381    2.9753 C   0  0  0  0  0  0  0  0  0  0  0  0
   20.9218   14.6170    2.5375 N   0  0  0  0  0  0  0  0  0  0  0  0
   22.2270   14.0471    2.7723 C   0  0  0  0  0  0  0  0  0  0  0  0
   20.8273   15.7886    1.8826 N   0  0  0  0  0  0  0  0  0  0  0  0
   19.5241   16.1053    1.9111 C   0  0  0  0  0  0  0  0  0  0  0  0
   18.8612   17.2517    1.4390 C   0  0  0  0  0  0  0  0  0  0  0  0
   12.9043   16.4088    1.0893 C   0  0  0  0  0  0  0  0  0  0  0  0
   11.7587   15.6015    1.1111 C   0  0  0  0  0  0  0  0  0  0  0  0
    9.6147   13.7651    1.3318 N   0  0  0  0  0  0  0  0  0  0  0  0
  1  2  1  0
  2  3  1  0
  3  4  2  0
  4  5  1  0
  5  6  1  0
  6  7  2  0
  7  8  1  0
  8  9  2  0
  9 10  1  0
 10 11  1  0
 11 12  1  0
 12 13  1  1
 12 14  1  0
 14 15  1  0
 15 16  2  0
 16 17  1  0
 17 18  2  0
 18 19  1  0
 19 20  1  0
 19 21  1  0
 21 22  2  0
 22 23  1  0
  9 24  1  0
 24 25  2  0
  5 26  2  0
 26  2  1  0
 25  6  1  0
 23 14  2  0
 22 17  1  0
M  END
>  <energy_score>  (165) 
-22.177849

>  <inchikey>  (165) 
None

>  <smiles>  (165) 
None

>  <ref_pdb>  (165) 
A0486a

>  <alias>  (165) 
None

>  <HIPPO Pose ID>  (165) 
497809

>  <name>  (165) 
P497809

>  <HIPPO Compound ID>  (165) 
289729

>  <ref_mols>  (165) 
A0486a,A0717a

>  <distance_score>  (165) 
1.912114

>  <inspiration_score>  (165) 
None

$$$$
P497810
     RDKit          3D

 26 29  0  0  0  0  0  0  0  0999 V2000
   22.2643   14.0039    2.5325 C   0  0  0  0  0  0  0  0  0  0  0  0
   21.0065   14.6397    2.2216 N   0  0  0  0  0  0  0  0  0  0  0  0
   19.9754   14.1357    1.4844 C   0  0  0  0  0  0  0  0  0  0  0  0
   19.0126   15.1065    1.5292 C   0  0  0  0  0  0  0  0  0  0  0  0
   17.7733   15.0510    0.9211 C   0  0  0  0  0  0  0  0  0  0  0  0
   17.0298   16.2169    1.1997 C   0  0  0  0  0  0  0  0  0  0  0  0
   17.4610   17.3028    2.0441 C   0  0  0  0  0  0  0  0  0  0  0  0
   16.4563   18.4126    2.3863 C   0  0  2  0  0  0  0  0  0  0  0  0
   16.9109   19.1330    3.5094 O   0  0  0  0  0  0  0  0  0  0  0  0
   15.1382   17.9174    2.7698 N   0  0  0  0  0  0  0  0  0  0  0  0
   14.1094   18.2262    1.7779 C   0  0  0  0  0  0  0  0  0  0  0  0
   12.8763   17.3508    1.9163 C   0  0  0  0  0  0  0  0  0  0  0  0
   12.8979   16.0390    1.4315 C   0  0  0  0  0  0  0  0  0  0  0  0
   11.7527   15.2404    1.4834 C   0  0  0  0  0  0  0  0  0  0  0  0
   10.5416   15.7238    2.0079 C   0  0  0  0  0  0  0  0  0  0  0  0
    9.3808   14.8317    2.0433 C   0  0  0  0  0  0  0  0  0  0  0  0
    8.5487   14.4611    3.0869 C   0  0  0  0  0  0  0  0  0  0  0  0
    7.8184   13.3590    2.6079 C   0  0  0  0  0  0  0  0  0  0  0  0
    8.0682   13.1125    1.3234 N   0  0  0  0  0  0  0  0  0  0  0  0
    8.9598   14.0582    0.9818 N   0  0  0  0  0  0  0  0  0  0  0  0
    9.3538   14.1490   -0.4060 C   0  0  0  0  0  0  0  0  0  0  0  0
   10.5273   17.0163    2.5354 C   0  0  0  0  0  0  0  0  0  0  0  0
   11.6837   17.8217    2.4894 C   0  0  0  0  0  0  0  0  0  0  0  0
   18.7817   17.3359    2.5649 C   0  0  0  0  0  0  0  0  0  0  0  0
   19.5389   16.1852    2.3002 C   0  0  0  0  0  0  0  0  0  0  0  0
   20.7881   15.8850    2.6684 N   0  0  0  0  0  0  0  0  0  0  0  0
  1  2  1  0
  2  3  1  0
  3  4  2  0
  4  5  1  0
  5  6  2  0
  6  7  1  0
  7  8  1  0
  8  9  1  1
  8 10  1  0
 10 11  1  0
 11 12  1  0
 12 13  2  0
 13 14  1  0
 14 15  2  0
 15 16  1  0
 16 17  2  0
 17 18  1  0
 18 19  2  0
 19 20  1  0
 20 21  1  0
 15 22  1  0
 22 23  2  0
  7 24  2  0
 24 25  1  0
 25 26  2  0
 26  2  1  0
 25  4  1  0
 23 12  1  0
 20 16  1  0
M  END
>  <energy_score>  (166) 
-50.061513

>  <inchikey>  (166) 
None

>  <smiles>  (166) 
None

>  <ref_pdb>  (166) 
A0486a

>  <alias>  (166) 
None

>  <HIPPO Pose ID>  (166) 
497810

>  <name>  (166) 
P497810

>  <HIPPO Compound ID>  (166) 
289730

>  <ref_mols>  (166) 
A0486a,A0717a

>  <distance_score>  (166) 
1.81276

>  <inspiration_score>  (166) 
None

$$$$
P497811
     RDKit          3D

 26 29  0  0  0  0  0  0  0  0999 V2000
   22.2689   14.0069    2.7064 C   0  0  0  0  0  0  0  0  0  0  0  0
   20.9496   14.5326    2.4491 N   0  0  0  0  0  0  0  0  0  0  0  0
   19.7769   14.1278    3.0128 C   0  0  0  0  0  0  0  0  0  0  0  0
   18.8558   15.0437    2.5944 C   0  0  0  0  0  0  0  0  0  0  0  0
   17.5451   15.0989    3.0187 C   0  0  0  0  0  0  0  0  0  0  0  0
   16.9107   16.2448    2.5054 C   0  0  0  0  0  0  0  0  0  0  0  0
   17.5016   17.2090    1.6107 C   0  0  0  0  0  0  0  0  0  0  0  0
   16.6354   18.3762    1.1117 C   0  0  1  0  0  0  0  0  0  0  0  0
   17.1996   18.9117   -0.0636 O   0  0  0  0  0  0  0  0  0  0  0  0
   15.2749   18.0087    0.7346 N   0  0  0  0  0  0  0  0  0  0  0  0
   14.2780   18.2832    1.7751 C   0  0  0  0  0  0  0  0  0  0  0  0
   13.0406   17.3940    1.7255 C   0  0  0  0  0  0  0  0  0  0  0  0
   13.1314   16.0093    1.5403 C   0  0  0  0  0  0  0  0  0  0  0  0
   11.9891   15.2015    1.5874 C   0  0  0  0  0  0  0  0  0  0  0  0
   10.7158   15.7390    1.8397 C   0  0  0  0  0  0  0  0  0  0  0  0
    9.5648   14.8379    1.8968 C   0  0  0  0  0  0  0  0  0  0  0  0
    8.6599   14.5764    2.9119 C   0  0  0  0  0  0  0  0  0  0  0  0
    7.9548   13.4322    2.4962 C   0  0  0  0  0  0  0  0  0  0  0  0
    8.3020   13.0471    1.2696 N   0  0  0  0  0  0  0  0  0  0  0  0
    9.2365   13.9405    0.9031 N   0  0  0  0  0  0  0  0  0  0  0  0
    9.7779   13.8523   -0.4344 C   0  0  0  0  0  0  0  0  0  0  0  0
   10.6175   17.1126    2.0543 C   0  0  0  0  0  0  0  0  0  0  0  0
   11.7657   17.9288    1.9942 C   0  0  0  0  0  0  0  0  0  0  0  0
   18.8693   17.0941    1.2254 C   0  0  0  0  0  0  0  0  0  0  0  0
   19.5375   15.9747    1.7535 C   0  0  0  0  0  0  0  0  0  0  0  0
   20.8179   15.5939    1.6345 N   0  0  0  0  0  0  0  0  0  0  0  0
  1  2  1  0
  2  3  1  0
  3  4  2  0
  4  5  1  0
  5  6  2  0
  6  7  1  0
  7  8  1  0
  8  9  1  6
  8 10  1  0
 10 11  1  0
 11 12  1  0
 12 13  2  0
 13 14  1  0
 14 15  2  0
 15 16  1  0
 16 17  2  0
 17 18  1  0
 18 19  2  0
 19 20  1  0
 20 21  1  0
 15 22  1  0
 22 23  2  0
  7 24  2  0
 24 25  1  0
 25 26  2  0
 26  2  1  0
 25  4  1  0
 23 12  1  0
 20 16  1  0
M  END
>  <energy_score>  (167) 
-30.226446

>  <inchikey>  (167) 
None

>  <smiles>  (167) 
None

>  <ref_pdb>  (167) 
A0486a

>  <alias>  (167) 
None

>  <HIPPO Pose ID>  (167) 
497811

>  <name>  (167) 
P497811

>  <HIPPO Compound ID>  (167) 
289730

>  <ref_mols>  (167) 
A0486a,A0717a

>  <distance_score>  (167) 
1.819413

>  <inspiration_score>  (167) 
None

$$$$
P497812
     RDKit          3D

 27 30  0  0  0  0  0  0  0  0999 V2000
   22.8492   13.6513    1.5573 C   0  0  0  0  0  0  0  0  0  0  0  0
   22.2076   14.2227    2.8066 C   0  0  0  0  0  0  0  0  0  0  0  0
   20.8614   14.7078    2.5645 N   0  0  0  0  0  0  0  0  0  0  0  0
   19.6965   14.1597    3.0143 C   0  0  0  0  0  0  0  0  0  0  0  0
   18.7160   14.9908    2.5586 C   0  0  0  0  0  0  0  0  0  0  0  0
   17.3638   14.8151    2.7672 C   0  0  0  0  0  0  0  0  0  0  0  0
   16.6345   15.8214    2.1087 C   0  0  0  0  0  0  0  0  0  0  0  0
   17.2003   16.9223    1.3684 C   0  0  0  0  0  0  0  0  0  0  0  0
   16.2079   17.7645    0.5587 C   0  0  2  0  0  0  0  0  0  0  0  0
   16.9137   18.4452   -0.4684 O   0  0  0  0  0  0  0  0  0  0  0  0
   15.4379   18.7788    1.2465 N   0  0  0  0  0  0  0  0  0  0  0  0
   14.6065   18.4380    2.3948 C   0  0  0  0  0  0  0  0  0  0  0  0
   13.2638   17.7416    2.1912 C   0  0  0  0  0  0  0  0  0  0  0  0
   12.3737   17.6757    3.2853 C   0  0  0  0  0  0  0  0  0  0  0  0
   11.1685   16.9450    3.2318 C   0  0  0  0  0  0  0  0  0  0  0  0
   10.8317   16.2118    2.0898 C   0  0  0  0  0  0  0  0  0  0  0  0
    9.7593   15.1999    2.0891 C   0  0  0  0  0  0  0  0  0  0  0  0
    8.6452   15.0507    2.9618 C   0  0  0  0  0  0  0  0  0  0  0  0
    8.0819   13.8353    2.6457 C   0  0  0  0  0  0  0  0  0  0  0  0
    8.8310   13.3343    1.6289 N   0  0  0  0  0  0  0  0  0  0  0  0
    8.6640   12.0591    0.9752 C   0  0  0  0  0  0  0  0  0  0  0  0
    9.8372   14.1431    1.2610 N   0  0  0  0  0  0  0  0  0  0  0  0
   11.6747   16.3449    0.9726 C   0  0  0  0  0  0  0  0  0  0  0  0
   12.8566   17.1111    1.0145 C   0  0  0  0  0  0  0  0  0  0  0  0
   18.6118   17.0932    1.2704 C   0  0  0  0  0  0  0  0  0  0  0  0
   19.3597   16.0576    1.8601 C   0  0  0  0  0  0  0  0  0  0  0  0
   20.6859   15.8599    1.8894 N   0  0  0  0  0  0  0  0  0  0  0  0
  1  2  1  0
  2  3  1  0
  3  4  1  0
  4  5  2  0
  5  6  1  0
  6  7  2  0
  7  8  1  0
  8  9  1  0
  9 10  1  6
  9 11  1  0
 11 12  1  0
 12 13  1  0
 13 14  2  0
 14 15  1  0
 15 16  2  0
 16 17  1  0
 17 18  1  0
 18 19  2  0
 19 20  1  0
 20 21  1  0
 20 22  1  0
 16 23  1  0
 23 24  2  0
  8 25  2  0
 25 26  1  0
 26 27  2  0
 27  3  1  0
 26  5  1  0
 24 13  1  0
 22 17  2  0
M  END
>  <energy_score>  (168) 
-25.561079

>  <inchikey>  (168) 
None

>  <smiles>  (168) 
None

>  <ref_pdb>  (168) 
A0486a

>  <alias>  (168) 
None

>  <HIPPO Pose ID>  (168) 
497812

>  <name>  (168) 
P497812

>  <HIPPO Compound ID>  (168) 
289731

>  <ref_mols>  (168) 
A0486a,A0717a

>  <distance_score>  (168) 
1.873613

>  <inspiration_score>  (168) 
None

$$$$
P497813
     RDKit          3D

 27 30  0  0  0  0  0  0  0  0999 V2000
   22.9568   13.6338    1.5329 C   0  0  0  0  0  0  0  0  0  0  0  0
   22.2176   14.1849    2.7358 C   0  0  0  0  0  0  0  0  0  0  0  0
   20.9492   14.7959    2.3855 N   0  0  0  0  0  0  0  0  0  0  0  0
   19.8331   14.1699    1.9111 C   0  0  0  0  0  0  0  0  0  0  0  0
   18.8897   15.1533    1.8325 C   0  0  0  0  0  0  0  0  0  0  0  0
   17.5910   14.9865    1.3991 C   0  0  0  0  0  0  0  0  0  0  0  0
   16.8990   16.2150    1.4237 C   0  0  0  0  0  0  0  0  0  0  0  0
   17.4358   17.4754    1.8678 C   0  0  0  0  0  0  0  0  0  0  0  0
   16.5658   18.7362    1.9185 C   0  0  1  0  0  0  0  0  0  0  0  0
   17.0296   19.6007    0.9070 O   0  0  0  0  0  0  0  0  0  0  0  0
   15.1341   18.5943    1.6813 N   0  0  0  0  0  0  0  0  0  0  0  0
   14.4101   18.0251    2.8181 C   0  0  0  0  0  0  0  0  0  0  0  0
   13.0356   17.4513    2.4883 C   0  0  0  0  0  0  0  0  0  0  0  0
   12.8428   16.5783    1.4117 C   0  0  0  0  0  0  0  0  0  0  0  0
   11.6423   15.8706    1.2619 C   0  0  0  0  0  0  0  0  0  0  0  0
   10.5900   15.9930    2.1853 C   0  0  0  0  0  0  0  0  0  0  0  0
    9.5017   14.9981    2.1649 C   0  0  0  0  0  0  0  0  0  0  0  0
    8.3864   14.8550    3.0354 C   0  0  0  0  0  0  0  0  0  0  0  0
    7.8199   13.6415    2.7204 C   0  0  0  0  0  0  0  0  0  0  0  0
    8.5673   13.1362    1.7055 N   0  0  0  0  0  0  0  0  0  0  0  0
    8.3970   11.8588    1.0572 C   0  0  0  0  0  0  0  0  0  0  0  0
    9.5727   13.9425    1.3332 N   0  0  0  0  0  0  0  0  0  0  0  0
   10.7399   16.9360    3.2093 C   0  0  0  0  0  0  0  0  0  0  0  0
   11.9504   17.6455    3.3632 C   0  0  0  0  0  0  0  0  0  0  0  0
   18.7980   17.5784    2.2731 C   0  0  0  0  0  0  0  0  0  0  0  0
   19.5110   16.3688    2.2450 C   0  0  0  0  0  0  0  0  0  0  0  0
   20.7875   16.1202    2.5603 N   0  0  0  0  0  0  0  0  0  0  0  0
  1  2  1  0
  2  3  1  0
  3  4  1  0
  4  5  2  0
  5  6  1  0
  6  7  2  0
  7  8  1  0
  8  9  1  0
  9 10  1  6
  9 11  1  0
 11 12  1  0
 12 13  1  0
 13 14  2  0
 14 15  1  0
 15 16  2  0
 16 17  1  0
 17 18  1  0
 18 19  2  0
 19 20  1  0
 20 21  1  0
 20 22  1  0
 16 23  1  0
 23 24  2  0
  8 25  2  0
 25 26  1  0
 26 27  2  0
 27  3  1  0
 26  5  1  0
 24 13  1  0
 22 17  2  0
M  END
>  <energy_score>  (169) 
-38.931081

>  <inchikey>  (169) 
None

>  <smiles>  (169) 
None

>  <ref_pdb>  (169) 
A0486a

>  <alias>  (169) 
None

>  <HIPPO Pose ID>  (169) 
497813

>  <name>  (169) 
P497813

>  <HIPPO Compound ID>  (169) 
289731

>  <ref_mols>  (169) 
A0486a,A0717a

>  <distance_score>  (169) 
1.780611

>  <inspiration_score>  (169) 
None

$$$$
P497814
     RDKit          3D

 27 30  0  0  0  0  0  0  0  0999 V2000
   22.9959   13.6881    1.6108 C   0  0  0  0  0  0  0  0  0  0  0  0
   22.1684   14.2347    2.7594 C   0  0  0  0  0  0  0  0  0  0  0  0
   20.8785   14.7591    2.3478 N   0  0  0  0  0  0  0  0  0  0  0  0
   19.9122   14.1073    1.6391 C   0  0  0  0  0  0  0  0  0  0  0  0
   18.8966   15.0122    1.5220 C   0  0  0  0  0  0  0  0  0  0  0  0
   17.7221   14.8037    0.8294 C   0  0  0  0  0  0  0  0  0  0  0  0
   16.9194   15.9578    0.8647 C   0  0  0  0  0  0  0  0  0  0  0  0
   17.2369   17.1760    1.5648 C   0  0  0  0  0  0  0  0  0  0  0  0
   16.1581   18.2559    1.5554 C   0  0  2  0  0  0  0  0  0  0  0  0
   16.7664   19.4840    1.2222 O   0  0  0  0  0  0  0  0  0  0  0  0
   15.4631   18.4770    2.8082 N   0  0  0  0  0  0  0  0  0  0  0  0
   14.8272   17.3084    3.4084 C   0  0  0  0  0  0  0  0  0  0  0  0
   13.5012   16.8553    2.8254 C   0  0  0  0  0  0  0  0  0  0  0  0
   13.4272   15.6612    2.1031 C   0  0  0  0  0  0  0  0  0  0  0  0
   12.1889   15.1246    1.7280 C   0  0  0  0  0  0  0  0  0  0  0  0
   10.9772   15.7511    2.0746 C   0  0  0  0  0  0  0  0  0  0  0  0
    9.7226   15.0096    1.8962 C   0  0  0  0  0  0  0  0  0  0  0  0
    8.7540   14.6531    2.8238 C   0  0  0  0  0  0  0  0  0  0  0  0
    7.9865   13.6544    2.1994 C   0  0  0  0  0  0  0  0  0  0  0  0
    8.3569   13.4574    0.9357 N   0  0  0  0  0  0  0  0  0  0  0  0
    9.3589   14.3352    0.7508 N   0  0  0  0  0  0  0  0  0  0  0  0
    9.9256   14.4529   -0.5737 C   0  0  0  0  0  0  0  0  0  0  0  0
   11.0487   16.9723    2.7495 C   0  0  0  0  0  0  0  0  0  0  0  0
   12.2971   17.5237    3.1106 C   0  0  0  0  0  0  0  0  0  0  0  0
   18.4714   17.3339    2.2509 C   0  0  0  0  0  0  0  0  0  0  0  0
   19.3035   16.2022    2.1971 C   0  0  0  0  0  0  0  0  0  0  0  0
   20.5324   16.0156    2.6927 N   0  0  0  0  0  0  0  0  0  0  0  0
  1  2  1  0
  2  3  1  0
  3  4  1  0
  4  5  2  0
  5  6  1  0
  6  7  2  0
  7  8  1  0
  8  9  1  0
  9 10  1  1
  9 11  1  0
 11 12  1  0
 12 13  1  0
 13 14  2  0
 14 15  1  0
 15 16  2  0
 16 17  1  0
 17 18  2  0
 18 19  1  0
 19 20  2  0
 20 21  1  0
 21 22  1  0
 16 23  1  0
 23 24  2  0
  8 25  2  0
 25 26  1  0
 26 27  2  0
 27  3  1  0
 26  5  1  0
 24 13  1  0
 21 17  1  0
M  END
>  <energy_score>  (170) 
-49.30502

>  <inchikey>  (170) 
None

>  <smiles>  (170) 
None

>  <ref_pdb>  (170) 
A0486a

>  <alias>  (170) 
None

>  <HIPPO Pose ID>  (170) 
497814

>  <name>  (170) 
P497814

>  <HIPPO Compound ID>  (170) 
289732

>  <ref_mols>  (170) 
A0486a,A0717a

>  <distance_score>  (170) 
1.934299

>  <inspiration_score>  (170) 
None

$$$$
P497815
     RDKit          3D

 27 30  0  0  0  0  0  0  0  0999 V2000
   22.9289   13.5510    1.5539 C   0  0  0  0  0  0  0  0  0  0  0  0
   22.2378   14.1304    2.7723 C   0  0  0  0  0  0  0  0  0  0  0  0
   20.9163   14.6470    2.4709 N   0  0  0  0  0  0  0  0  0  0  0  0
   19.7220   14.2071    2.9641 C   0  0  0  0  0  0  0  0  0  0  0  0
   18.8112   15.1397    2.5571 C   0  0  0  0  0  0  0  0  0  0  0  0
   17.4794   15.1706    2.9217 C   0  0  0  0  0  0  0  0  0  0  0  0
   16.8509   16.3231    2.4081 C   0  0  0  0  0  0  0  0  0  0  0  0
   17.4781   17.3210    1.5748 C   0  0  0  0  0  0  0  0  0  0  0  0
   16.6377   18.4968    1.0536 C   0  0  1  0  0  0  0  0  0  0  0  0
   17.1856   18.9563   -0.1608 O   0  0  0  0  0  0  0  0  0  0  0  0
   15.2529   18.1666    0.7340 N   0  0  0  0  0  0  0  0  0  0  0  0
   14.2926   18.6417    1.7379 C   0  0  0  0  0  0  0  0  0  0  0  0
   12.9895   17.8544    1.7516 C   0  0  0  0  0  0  0  0  0  0  0  0
   12.3038   17.6468    2.9589 C   0  0  0  0  0  0  0  0  0  0  0  0
   11.1510   16.8430    3.0152 C   0  0  0  0  0  0  0  0  0  0  0  0
   10.6666   16.1951    1.8723 C   0  0  0  0  0  0  0  0  0  0  0  0
    9.6625   15.1195    1.9705 C   0  0  0  0  0  0  0  0  0  0  0  0
    8.5983   14.9476    2.8449 C   0  0  0  0  0  0  0  0  0  0  0  0
    8.0644   13.6781    2.5630 C   0  0  0  0  0  0  0  0  0  0  0  0
    8.7116   13.0764    1.5704 N   0  0  0  0  0  0  0  0  0  0  0  0
    9.7010   13.9302    1.2577 N   0  0  0  0  0  0  0  0  0  0  0  0
   10.7057   13.4569    0.3304 C   0  0  0  0  0  0  0  0  0  0  0  0
   11.2629   16.5336    0.6482 C   0  0  0  0  0  0  0  0  0  0  0  0
   12.4066   17.3471    0.5860 C   0  0  0  0  0  0  0  0  0  0  0  0
   18.8662   17.2378    1.2627 C   0  0  0  0  0  0  0  0  0  0  0  0
   19.5200   16.1094    1.7854 C   0  0  0  0  0  0  0  0  0  0  0  0
   20.8105   15.7558    1.7184 N   0  0  0  0  0  0  0  0  0  0  0  0
  1  2  1  0
  2  3  1  0
  3  4  1  0
  4  5  2  0
  5  6  1  0
  6  7  2  0
  7  8  1  0
  8  9  1  0
  9 10  1  6
  9 11  1  0
 11 12  1  0
 12 13  1  0
 13 14  2  0
 14 15  1  0
 15 16  2  0
 16 17  1  0
 17 18  2  0
 18 19  1  0
 19 20  2  0
 20 21  1  0
 21 22  1  0
 16 23  1  0
 23 24  2  0
  8 25  2  0
 25 26  1  0
 26 27  2  0
 27  3  1  0
 26  5  1  0
 24 13  1  0
 21 17  1  0
M  END
>  <energy_score>  (171) 
-32.717308

>  <inchikey>  (171) 
None

>  <smiles>  (171) 
None

>  <ref_pdb>  (171) 
A0486a

>  <alias>  (171) 
None

>  <HIPPO Pose ID>  (171) 
497815

>  <name>  (171) 
P497815

>  <HIPPO Compound ID>  (171) 
289732

>  <ref_mols>  (171) 
A0486a,A0717a

>  <distance_score>  (171) 
1.830484

>  <inspiration_score>  (171) 
None

$$$$
P497816
     RDKit          3D

 27 30  0  0  0  0  0  0  0  0999 V2000
   18.4228   20.2372    1.0986 C   0  0  0  0  0  0  0  0  0  0  0  0
   17.1393   19.6288    1.0773 O   0  0  0  0  0  0  0  0  0  0  0  0
   17.1557   18.3060    0.5562 C   0  0  2  0  0  0  0  0  0  0  0  0
   15.8083   17.8936    0.0883 N   0  0  0  0  0  0  0  0  0  0  0  0
   14.6660   18.5041    0.7968 C   0  0  0  0  0  0  0  0  0  0  0  0
   13.4664   17.5732    1.0001 C   0  0  0  0  0  0  0  0  0  0  0  0
   13.6025   16.1877    1.1404 C   0  0  0  0  0  0  0  0  0  0  0  0
   12.4867   15.3698    1.4027 C   0  0  0  0  0  0  0  0  0  0  0  0
   11.1898   15.9007    1.5318 C   0  0  0  0  0  0  0  0  0  0  0  0
   10.0409   15.0042    1.7179 C   0  0  0  0  0  0  0  0  0  0  0  0
    9.0382   14.9720    2.6744 C   0  0  0  0  0  0  0  0  0  0  0  0
    8.3209   13.7852    2.4304 C   0  0  0  0  0  0  0  0  0  0  0  0
    8.7641   13.1481    1.3495 N   0  0  0  0  0  0  0  0  0  0  0  0
    9.7612   13.9284    0.8984 N   0  0  0  0  0  0  0  0  0  0  0  0
   10.4013   13.5637   -0.3460 C   0  0  0  0  0  0  0  0  0  0  0  0
   11.0526   17.2861    1.4291 C   0  0  0  0  0  0  0  0  0  0  0  0
   12.1736   18.1077    1.1695 C   0  0  0  0  0  0  0  0  0  0  0  0
   17.7222   17.2823    1.5516 C   0  0  0  0  0  0  0  0  0  0  0  0
   16.9132   16.9313    2.6365 C   0  0  0  0  0  0  0  0  0  0  0  0
   17.1060   15.7488    3.3293 C   0  0  0  0  0  0  0  0  0  0  0  0
   18.2055   14.9594    3.0007 C   0  0  0  0  0  0  0  0  0  0  0  0
   18.6470   13.6901    3.3897 C   0  0  0  0  0  0  0  0  0  0  0  0
   19.8209   13.3729    2.8588 N   0  0  0  0  0  0  0  0  0  0  0  0
   20.1840   14.4998    2.2091 N   0  0  0  0  0  0  0  0  0  0  0  0
   21.5602   14.6152    1.7924 C   0  0  0  0  0  0  0  0  0  0  0  0
   19.1659   15.4252    2.1060 C   0  0  0  0  0  0  0  0  0  0  0  0
   18.9466   16.5922    1.3431 C   0  0  0  0  0  0  0  0  0  0  0  0
  1  2  1  0
  2  3  1  0
  3  4  1  1
  4  5  1  0
  5  6  1  0
  6  7  2  0
  7  8  1  0
  8  9  2  0
  9 10  1  0
 10 11  2  0
 11 12  1  0
 12 13  2  0
 13 14  1  0
 14 15  1  0
  9 16  1  0
 16 17  2  0
  3 18  1  0
 18 19  2  0
 19 20  1  0
 20 21  2  0
 21 22  1  0
 22 23  2  0
 23 24  1  0
 24 25  1  0
 24 26  1  0
 26 27  2  0
 17  6  1  0
 27 18  1  0
 14 10  1  0
 26 21  1  0
M  END
>  <energy_score>  (172) 
-30.311558

>  <inchikey>  (172) 
None

>  <smiles>  (172) 
None

>  <ref_pdb>  (172) 
A0486a

>  <alias>  (172) 
None

>  <HIPPO Pose ID>  (172) 
497816

>  <name>  (172) 
P497816

>  <HIPPO Compound ID>  (172) 
289733

>  <ref_mols>  (172) 
A0486a,A0717a

>  <distance_score>  (172) 
1.785503

>  <inspiration_score>  (172) 
None

$$$$
P497817
     RDKit          3D

 27 30  0  0  0  0  0  0  0  0999 V2000
   18.4100   19.6043   -1.0271 C   0  0  0  0  0  0  0  0  0  0  0  0
   17.8253   18.3881   -0.5854 O   0  0  0  0  0  0  0  0  0  0  0  0
   17.2665   18.4904    0.7193 C   0  0  1  0  0  0  0  0  0  0  0  0
   15.7891   18.5780    0.6291 N   0  0  0  0  0  0  0  0  0  0  0  0
   15.1740   17.4694   -0.1163 C   0  0  0  0  0  0  0  0  0  0  0  0
   13.8907   16.9225    0.5115 C   0  0  0  0  0  0  0  0  0  0  0  0
   13.8598   15.6044    0.9890 C   0  0  0  0  0  0  0  0  0  0  0  0
   12.6600   15.0129    1.4197 C   0  0  0  0  0  0  0  0  0  0  0  0
   11.4404   15.7111    1.3891 C   0  0  0  0  0  0  0  0  0  0  0  0
   10.1905   14.9863    1.6507 C   0  0  0  0  0  0  0  0  0  0  0  0
    9.2037   15.1345    2.6107 C   0  0  0  0  0  0  0  0  0  0  0  0
    8.3571   14.0190    2.4550 C   0  0  0  0  0  0  0  0  0  0  0  0
    8.7138   13.2613    1.4208 N   0  0  0  0  0  0  0  0  0  0  0  0
    9.7812   13.8950    0.9092 N   0  0  0  0  0  0  0  0  0  0  0  0
   10.3724   13.3709   -0.3022 C   0  0  0  0  0  0  0  0  0  0  0  0
   11.4773   17.0494    0.9845 C   0  0  0  0  0  0  0  0  0  0  0  0
   12.6873   17.6469    0.5497 C   0  0  0  0  0  0  0  0  0  0  0  0
   17.7503   17.3331    1.6044 C   0  0  0  0  0  0  0  0  0  0  0  0
   16.8827   16.9258    2.6279 C   0  0  0  0  0  0  0  0  0  0  0  0
   17.0522   15.7220    3.2896 C   0  0  0  0  0  0  0  0  0  0  0  0
   18.1728   14.9525    2.9850 C   0  0  0  0  0  0  0  0  0  0  0  0
   18.6115   13.6795    3.3643 C   0  0  0  0  0  0  0  0  0  0  0  0
   19.8003   13.3766    2.8594 N   0  0  0  0  0  0  0  0  0  0  0  0
   20.1790   14.5181    2.2442 N   0  0  0  0  0  0  0  0  0  0  0  0
   21.5627   14.6381    1.8537 C   0  0  0  0  0  0  0  0  0  0  0  0
   19.1648   15.4485    2.1415 C   0  0  0  0  0  0  0  0  0  0  0  0
   18.9805   16.6495    1.4229 C   0  0  0  0  0  0  0  0  0  0  0  0
  1  2  1  0
  2  3  1  0
  3  4  1  6
  4  5  1  0
  5  6  1  0
  6  7  2  0
  7  8  1  0
  8  9  2  0
  9 10  1  0
 10 11  2  0
 11 12  1  0
 12 13  2  0
 13 14  1  0
 14 15  1  0
  9 16  1  0
 16 17  2  0
  3 18  1  0
 18 19  2  0
 19 20  1  0
 20 21  2  0
 21 22  1  0
 22 23  2  0
 23 24  1  0
 24 25  1  0
 24 26  1  0
 26 27  2  0
 17  6  1  0
 27 18  1  0
 14 10  1  0
 26 21  1  0
M  END
>  <energy_score>  (173) 
-29.647007

>  <inchikey>  (173) 
None

>  <smiles>  (173) 
None

>  <ref_pdb>  (173) 
A0486a

>  <alias>  (173) 
None

>  <HIPPO Pose ID>  (173) 
497817

>  <name>  (173) 
P497817

>  <HIPPO Compound ID>  (173) 
289733

>  <ref_mols>  (173) 
A0486a,A0717a

>  <distance_score>  (173) 
1.930532

>  <inspiration_score>  (173) 
None

$$$$
P497818
     RDKit          3D

 27 30  0  0  0  0  0  0  0  0999 V2000
   17.7448   19.8955    4.8357 C   0  0  0  0  0  0  0  0  0  0  0  0
   17.9220   18.6305    4.2141 O   0  0  0  0  0  0  0  0  0  0  0  0
   17.1200   18.4711    3.0414 C   0  0  2  0  0  0  0  0  0  0  0  0
   15.7332   18.1608    3.4712 N   0  0  0  0  0  0  0  0  0  0  0  0
   14.6819   18.8040    2.6764 C   0  0  0  0  0  0  0  0  0  0  0  0
   13.3951   17.9829    2.5807 C   0  0  0  0  0  0  0  0  0  0  0  0
   13.0973   17.2679    1.4121 C   0  0  0  0  0  0  0  0  0  0  0  0
   11.9325   16.4867    1.3074 C   0  0  0  0  0  0  0  0  0  0  0  0
   11.0048   16.3923    2.3579 C   0  0  0  0  0  0  0  0  0  0  0  0
    9.9022   15.4104    2.2693 C   0  0  0  0  0  0  0  0  0  0  0  0
    8.7370   15.2702    3.0746 C   0  0  0  0  0  0  0  0  0  0  0  0
    8.1496   14.0877    2.6848 C   0  0  0  0  0  0  0  0  0  0  0  0
    8.9319   13.5967    1.6889 N   0  0  0  0  0  0  0  0  0  0  0  0
    8.7442   12.3605    0.9691 C   0  0  0  0  0  0  0  0  0  0  0  0
    9.9935   14.3733    1.4151 N   0  0  0  0  0  0  0  0  0  0  0  0
   11.2751   17.1459    3.5118 C   0  0  0  0  0  0  0  0  0  0  0  0
   12.4582   17.9192    3.6250 C   0  0  0  0  0  0  0  0  0  0  0  0
   17.7444   17.3003    2.2464 C   0  0  0  0  0  0  0  0  0  0  0  0
   16.9391   16.6660    1.2957 C   0  0  0  0  0  0  0  0  0  0  0  0
   17.1844   15.3603    0.8967 C   0  0  0  0  0  0  0  0  0  0  0  0
   18.2979   14.7051    1.4215 C   0  0  0  0  0  0  0  0  0  0  0  0
   18.7469   13.3783    1.4151 C   0  0  0  0  0  0  0  0  0  0  0  0
   19.9025   13.2388    2.0521 N   0  0  0  0  0  0  0  0  0  0  0  0
   20.2710   14.5065    2.3311 N   0  0  0  0  0  0  0  0  0  0  0  0
   21.6575   14.7283    2.6659 C   0  0  0  0  0  0  0  0  0  0  0  0
   19.2520   15.4174    2.1461 C   0  0  0  0  0  0  0  0  0  0  0  0
   19.0258   16.7562    2.5256 C   0  0  0  0  0  0  0  0  0  0  0  0
  1  2  1  0
  2  3  1  0
  3  4  1  1
  4  5  1  0
  5  6  1  0
  6  7  2  0
  7  8  1  0
  8  9  2  0
  9 10  1  0
 10 11  1  0
 11 12  2  0
 12 13  1  0
 13 14  1  0
 13 15  1  0
  9 16  1  0
 16 17  2  0
  3 18  1  0
 18 19  2  0
 19 20  1  0
 20 21  2  0
 21 22  1  0
 22 23  2  0
 23 24  1  0
 24 25  1  0
 24 26  1  0
 26 27  2  0
 17  6  1  0
 27 18  1  0
 15 10  2  0
 26 21  1  0
M  END
>  <energy_score>  (174) 
-9.632786

>  <inchikey>  (174) 
None

>  <smiles>  (174) 
None

>  <ref_pdb>  (174) 
A0486a

>  <alias>  (174) 
None

>  <HIPPO Pose ID>  (174) 
497818

>  <name>  (174) 
P497818

>  <HIPPO Compound ID>  (174) 
289734

>  <ref_mols>  (174) 
A0486a,A0717a

>  <distance_score>  (174) 
1.821671

>  <inspiration_score>  (174) 
None

$$$$
P497819
     RDKit          3D

 27 30  0  0  0  0  0  0  0  0999 V2000
   18.7355   19.7617   -0.3187 C   0  0  0  0  0  0  0  0  0  0  0  0
   17.9401   18.5941   -0.4680 O   0  0  0  0  0  0  0  0  0  0  0  0
   17.0916   18.3604    0.6513 C   0  0  1  0  0  0  0  0  0  0  0  0
   15.8007   17.9032    0.1181 N   0  0  0  0  0  0  0  0  0  0  0  0
   14.6083   18.5452    0.6858 C   0  0  0  0  0  0  0  0  0  0  0  0
   13.4195   17.6121    0.9348 C   0  0  0  0  0  0  0  0  0  0  0  0
   13.4597   16.2363    0.6915 C   0  0  0  0  0  0  0  0  0  0  0  0
   12.3465   15.4167    0.9655 C   0  0  0  0  0  0  0  0  0  0  0  0
   11.1464   15.9272    1.5005 C   0  0  0  0  0  0  0  0  0  0  0  0
   10.0210   15.0125    1.7723 C   0  0  0  0  0  0  0  0  0  0  0  0
    8.8874   15.1835    2.6161 C   0  0  0  0  0  0  0  0  0  0  0  0
    8.2094   13.9859    2.5837 C   0  0  0  0  0  0  0  0  0  0  0  0
    8.9158   13.1851    1.7439 N   0  0  0  0  0  0  0  0  0  0  0  0
    8.6294   11.8115    1.4073 C   0  0  0  0  0  0  0  0  0  0  0  0
   10.0018   13.7820    1.2317 N   0  0  0  0  0  0  0  0  0  0  0  0
   11.1036   17.3019    1.7503 C   0  0  0  0  0  0  0  0  0  0  0  0
   12.2197   18.1278    1.4685 C   0  0  0  0  0  0  0  0  0  0  0  0
   17.6781   17.2776    1.5707 C   0  0  0  0  0  0  0  0  0  0  0  0
   16.8207   16.8338    2.5888 C   0  0  0  0  0  0  0  0  0  0  0  0
   17.0413   15.6485    3.2677 C   0  0  0  0  0  0  0  0  0  0  0  0
   18.1986   14.9304    2.9806 C   0  0  0  0  0  0  0  0  0  0  0  0
   18.6855   13.6805    3.3741 C   0  0  0  0  0  0  0  0  0  0  0  0
   19.8939   13.4255    2.8907 N   0  0  0  0  0  0  0  0  0  0  0  0
   20.2161   14.5614    2.2348 N   0  0  0  0  0  0  0  0  0  0  0  0
   21.5834   14.7111    1.8019 C   0  0  0  0  0  0  0  0  0  0  0  0
   19.1706   15.4568    2.1328 C   0  0  0  0  0  0  0  0  0  0  0  0
   18.9345   16.6394    1.3958 C   0  0  0  0  0  0  0  0  0  0  0  0
  1  2  1  0
  2  3  1  0
  3  4  1  6
  4  5  1  0
  5  6  1  0
  6  7  2  0
  7  8  1  0
  8  9  2  0
  9 10  1  0
 10 11  1  0
 11 12  2  0
 12 13  1  0
 13 14  1  0
 13 15  1  0
  9 16  1  0
 16 17  2  0
  3 18  1  0
 18 19  2  0
 19 20  1  0
 20 21  2  0
 21 22  1  0
 22 23  2  0
 23 24  1  0
 24 25  1  0
 24 26  1  0
 26 27  2  0
 17  6  1  0
 27 18  1  0
 15 10  2  0
 26 21  1  0
M  END
>  <energy_score>  (175) 
-18.412699

>  <inchikey>  (175) 
None

>  <smiles>  (175) 
None

>  <ref_pdb>  (175) 
A0486a

>  <alias>  (175) 
None

>  <HIPPO Pose ID>  (175) 
497819

>  <name>  (175) 
P497819

>  <HIPPO Compound ID>  (175) 
289734

>  <ref_mols>  (175) 
A0486a,A0717a

>  <distance_score>  (175) 
1.863879

>  <inspiration_score>  (175) 
None

$$$$
P497820
     RDKit          3D

 27 30  0  0  0  0  0  0  0  0999 V2000
   10.6481   13.5452    0.5282 C   0  0  0  0  0  0  0  0  0  0  0  0
    9.5433   13.9209    1.3844 N   0  0  0  0  0  0  0  0  0  0  0  0
    8.5722   13.0074    1.5537 N   0  0  0  0  0  0  0  0  0  0  0  0
    7.8143   13.5130    2.5203 C   0  0  0  0  0  0  0  0  0  0  0  0
    8.2582   14.7820    2.9272 C   0  0  0  0  0  0  0  0  0  0  0  0
    9.3804   15.0611    2.1600 C   0  0  0  0  0  0  0  0  0  0  0  0
   10.3350   16.1822    2.2349 C   0  0  0  0  0  0  0  0  0  0  0  0
   11.0838   16.5782    1.1196 C   0  0  0  0  0  0  0  0  0  0  0  0
   12.2234   17.3795    1.2584 C   0  0  0  0  0  0  0  0  0  0  0  0
   12.6278   17.8326    2.5182 C   0  0  0  0  0  0  0  0  0  0  0  0
   13.9585   18.5317    2.6933 C   0  0  0  0  0  0  0  0  0  0  0  0
   15.0283   17.6542    3.2076 N   0  0  0  0  0  0  0  0  0  0  0  0
   15.4859   16.6756    2.2259 C   0  0  2  0  0  0  0  0  0  0  0  0
   14.8413   15.4630    2.5438 O   0  0  0  0  0  0  0  0  0  0  0  0
   17.0126   16.4914    2.2125 C   0  0  0  0  0  0  0  0  0  0  0  0
   17.8155   17.5923    1.7597 C   0  0  0  0  0  0  0  0  0  0  0  0
   19.2133   17.5463    1.6399 C   0  0  0  0  0  0  0  0  0  0  0  0
   19.7285   16.3034    1.9968 C   0  0  0  0  0  0  0  0  0  0  0  0
   21.0461   15.9459    2.0007 C   0  0  0  0  0  0  0  0  0  0  0  0
   22.5405   17.0157    1.4986 Br  0  0  0  0  0  0  0  0  0  0  0  0
   21.0673   14.6642    2.4755 N   0  0  0  0  0  0  0  0  0  0  0  0
   22.2407   13.8909    2.8019 C   0  0  0  0  0  0  0  0  0  0  0  0
   19.8338   14.1384    2.6989 N   0  0  0  0  0  0  0  0  0  0  0  0
   18.9886   15.1550    2.4472 C   0  0  0  0  0  0  0  0  0  0  0  0
   17.5947   15.2369    2.5717 C   0  0  0  0  0  0  0  0  0  0  0  0
   11.7916   17.5756    3.6119 C   0  0  0  0  0  0  0  0  0  0  0  0
   10.6415   16.7847    3.4638 C   0  0  0  0  0  0  0  0  0  0  0  0
  1  2  1  0
  2  3  1  0
  3  4  2  0
  4  5  1  0
  5  6  2  0
  6  7  1  0
  7  8  2  0
  8  9  1  0
  9 10  2  0
 10 11  1  0
 11 12  1  0
 12 13  1  0
 13 14  1  1
 13 15  1  0
 15 16  1  0
 16 17  2  0
 17 18  1  0
 18 19  2  0
 19 20  1  0
 19 21  1  0
 21 22  1  0
 21 23  1  0
 23 24  2  0
 24 25  1  0
 10 26  1  0
 26 27  2  0
  6  2  1  0
 27  7  1  0
 25 15  2  0
 24 18  1  0
M  END
>  <energy_score>  (176) 
-36.573506

>  <inchikey>  (176) 
None

>  <smiles>  (176) 
None

>  <ref_pdb>  (176) 
A0486a

>  <alias>  (176) 
None

>  <HIPPO Pose ID>  (176) 
497820

>  <name>  (176) 
P497820

>  <HIPPO Compound ID>  (176) 
289735

>  <ref_mols>  (176) 
A0486a,A0717a

>  <distance_score>  (176) 
1.733407

>  <inspiration_score>  (176) 
None

$$$$
P497821
     RDKit          3D

 27 30  0  0  0  0  0  0  0  0999 V2000
    9.2291   14.2854   -0.6084 C   0  0  0  0  0  0  0  0  0  0  0  0
    8.8073   14.0668    0.7566 N   0  0  0  0  0  0  0  0  0  0  0  0
    7.8488   13.1542    0.9909 N   0  0  0  0  0  0  0  0  0  0  0  0
    7.6268   13.2523    2.3011 C   0  0  0  0  0  0  0  0  0  0  0  0
    8.4496   14.2165    2.9070 C   0  0  0  0  0  0  0  0  0  0  0  0
    9.2893   14.6609    1.8992 C   0  0  0  0  0  0  0  0  0  0  0  0
   10.5479   15.3935    1.9790 C   0  0  0  0  0  0  0  0  0  0  0  0
   10.6676   16.6320    2.6082 C   0  0  0  0  0  0  0  0  0  0  0  0
   11.9394   17.1885    2.8316 C   0  0  0  0  0  0  0  0  0  0  0  0
   13.1119   16.5061    2.4569 C   0  0  0  0  0  0  0  0  0  0  0  0
   14.4848   17.0742    2.7568 C   0  0  0  0  0  0  0  0  0  0  0  0
   15.0814   17.7216    1.6036 N   0  0  0  0  0  0  0  0  0  0  0  0
   15.9406   16.8819    0.7983 C   0  0  1  0  0  0  0  0  0  0  0  0
   16.0522   17.4927   -0.4782 O   0  0  0  0  0  0  0  0  0  0  0  0
   17.3546   16.7036    1.3568 C   0  0  0  0  0  0  0  0  0  0  0  0
   18.2254   17.8423    1.3793 C   0  0  0  0  0  0  0  0  0  0  0  0
   19.5825   17.7776    1.7147 C   0  0  0  0  0  0  0  0  0  0  0  0
   19.9807   16.4801    2.0142 C   0  0  0  0  0  0  0  0  0  0  0  0
   21.2634   16.0683    2.2260 C   0  0  0  0  0  0  0  0  0  0  0  0
   22.8494   17.1248    2.1301 Br  0  0  0  0  0  0  0  0  0  0  0  0
   21.1679   14.7336    2.5004 N   0  0  0  0  0  0  0  0  0  0  0  0
   22.2512   13.8599    2.8758 C   0  0  0  0  0  0  0  0  0  0  0  0
   19.9015   14.2375    2.4104 N   0  0  0  0  0  0  0  0  0  0  0  0
   19.1551   15.3035    2.0661 C   0  0  0  0  0  0  0  0  0  0  0  0
   17.7924   15.4018    1.7470 C   0  0  0  0  0  0  0  0  0  0  0  0
   12.9809   15.2798    1.8001 C   0  0  0  0  0  0  0  0  0  0  0  0
   11.7183   14.7422    1.5499 C   0  0  0  0  0  0  0  0  0  0  0  0
  1  2  1  0
  2  3  1  0
  3  4  2  0
  4  5  1  0
  5  6  2  0
  6  7  1  0
  7  8  2  0
  8  9  1  0
  9 10  2  0
 10 11  1  0
 11 12  1  0
 12 13  1  0
 13 14  1  6
 13 15  1  0
 15 16  1  0
 16 17  2  0
 17 18  1  0
 18 19  2  0
 19 20  1  0
 19 21  1  0
 21 22  1  0
 21 23  1  0
 23 24  2  0
 24 25  1  0
 10 26  1  0
 26 27  2  0
  6  2  1  0
 27  7  1  0
 25 15  2  0
 24 18  1  0
M  END
>  <energy_score>  (177) 
-25.817696

>  <inchikey>  (177) 
None

>  <smiles>  (177) 
None

>  <ref_pdb>  (177) 
A0486a

>  <alias>  (177) 
None

>  <HIPPO Pose ID>  (177) 
497821

>  <name>  (177) 
P497821

>  <HIPPO Compound ID>  (177) 
289735

>  <ref_mols>  (177) 
A0486a,A0717a

>  <distance_score>  (177) 
1.776725

>  <inspiration_score>  (177) 
None

$$$$
P497822
     RDKit          3D

 27 30  0  0  0  0  0  0  0  0999 V2000
    7.5334   11.8041    0.7255 C   0  0  0  0  0  0  0  0  0  0  0  0
    8.0099   12.9555    1.4519 N   0  0  0  0  0  0  0  0  0  0  0  0
    7.5174   13.4453    2.6206 C   0  0  0  0  0  0  0  0  0  0  0  0
    8.3213   14.5109    2.9502 C   0  0  0  0  0  0  0  0  0  0  0  0
    9.3063   14.5649    1.9288 C   0  0  0  0  0  0  0  0  0  0  0  0
   10.5619   15.3119    1.9179 C   0  0  0  0  0  0  0  0  0  0  0  0
   11.7102   14.6347    1.4693 C   0  0  0  0  0  0  0  0  0  0  0  0
   12.9857   15.1424    1.7020 C   0  0  0  0  0  0  0  0  0  0  0  0
   13.1535   16.3804    2.3254 C   0  0  0  0  0  0  0  0  0  0  0  0
   14.5504   16.9013    2.6018 C   0  0  0  0  0  0  0  0  0  0  0  0
   15.0996   17.6736    1.4921 N   0  0  0  0  0  0  0  0  0  0  0  0
   16.0445   16.9692    0.6458 C   0  0  2  0  0  0  0  0  0  0  0  0
   15.5028   15.7774    0.1271 O   0  0  0  0  0  0  0  0  0  0  0  0
   17.4175   16.7376    1.2779 C   0  0  0  0  0  0  0  0  0  0  0  0
   18.2725   17.8804    1.4024 C   0  0  0  0  0  0  0  0  0  0  0  0
   19.6164   17.8089    1.7873 C   0  0  0  0  0  0  0  0  0  0  0  0
   20.0135   16.5012    2.0416 C   0  0  0  0  0  0  0  0  0  0  0  0
   21.2941   16.0854    2.2612 C   0  0  0  0  0  0  0  0  0  0  0  0
   22.8797   17.1475    2.2199 Br  0  0  0  0  0  0  0  0  0  0  0  0
   21.1967   14.7417    2.4867 N   0  0  0  0  0  0  0  0  0  0  0  0
   22.2730   13.8548    2.8496 C   0  0  0  0  0  0  0  0  0  0  0  0
   19.9362   14.2465    2.3561 N   0  0  0  0  0  0  0  0  0  0  0  0
   19.1942   15.3181    2.0150 C   0  0  0  0  0  0  0  0  0  0  0  0
   17.8477   15.4231    1.6375 C   0  0  0  0  0  0  0  0  0  0  0  0
   12.0051   17.1068    2.6898 C   0  0  0  0  0  0  0  0  0  0  0  0
   10.7174   16.5703    2.5044 C   0  0  0  0  0  0  0  0  0  0  0  0
    9.0561   13.6480    0.9817 N   0  0  0  0  0  0  0  0  0  0  0  0
  1  2  1  0
  2  3  1  0
  3  4  2  0
  4  5  1  0
  5  6  1  0
  6  7  2  0
  7  8  1  0
  8  9  2  0
  9 10  1  0
 10 11  1  0
 11 12  1  0
 12 13  1  1
 12 14  1  0
 14 15  1  0
 15 16  2  0
 16 17  1  0
 17 18  2  0
 18 19  1  0
 18 20  1  0
 20 21  1  0
 20 22  1  0
 22 23  2  0
 23 24  1  0
  9 25  1  0
 25 26  2  0
  5 27  2  0
 27  2  1  0
 26  6  1  0
 24 14  2  0
 23 17  1  0
M  END
>  <energy_score>  (178) 
-44.496409

>  <inchikey>  (178) 
None

>  <smiles>  (178) 
None

>  <ref_pdb>  (178) 
A0486a

>  <alias>  (178) 
None

>  <HIPPO Pose ID>  (178) 
497822

>  <name>  (178) 
P497822

>  <HIPPO Compound ID>  (178) 
289736

>  <ref_mols>  (178) 
A0486a,A0717a

>  <distance_score>  (178) 
1.8597

>  <inspiration_score>  (178) 
None

$$$$
P497823
     RDKit          3D

 27 30  0  0  0  0  0  0  0  0999 V2000
    8.3153   11.4345    1.3860 C   0  0  0  0  0  0  0  0  0  0  0  0
    8.4203   12.7698    1.9218 N   0  0  0  0  0  0  0  0  0  0  0  0
    7.7112   13.2901    2.9571 C   0  0  0  0  0  0  0  0  0  0  0  0
    8.2010   14.5610    3.1476 C   0  0  0  0  0  0  0  0  0  0  0  0
    9.2255   14.7246    2.1782 C   0  0  0  0  0  0  0  0  0  0  0  0
   10.2120   15.8007    2.0252 C   0  0  0  0  0  0  0  0  0  0  0  0
   10.5004   16.7049    3.0547 C   0  0  0  0  0  0  0  0  0  0  0  0
   11.6452   17.5169    2.9885 C   0  0  0  0  0  0  0  0  0  0  0  0
   12.5043   17.4657    1.8797 C   0  0  0  0  0  0  0  0  0  0  0  0
   13.7804   18.2765    1.8361 C   0  0  0  0  0  0  0  0  0  0  0  0
   14.9879   17.4988    1.5736 N   0  0  0  0  0  0  0  0  0  0  0  0
   15.6250   16.8675    2.7076 C   0  0  1  0  0  0  0  0  0  0  0  0
   14.9379   15.6820    3.0483 O   0  0  0  0  0  0  0  0  0  0  0  0
   17.1059   16.5700    2.4133 C   0  0  0  0  0  0  0  0  0  0  0  0
   17.9172   17.6390    1.9003 C   0  0  0  0  0  0  0  0  0  0  0  0
   19.2910   17.5306    1.6397 C   0  0  0  0  0  0  0  0  0  0  0  0
   19.7814   16.2698    1.9617 C   0  0  0  0  0  0  0  0  0  0  0  0
   21.0877   15.8777    1.9098 C   0  0  0  0  0  0  0  0  0  0  0  0
   22.5868   16.8972    1.3244 Br  0  0  0  0  0  0  0  0  0  0  0  0
   21.0991   14.6148    2.4320 N   0  0  0  0  0  0  0  0  0  0  0  0
   22.2698   13.8548    2.7954 C   0  0  0  0  0  0  0  0  0  0  0  0
   19.8618   14.1104    2.6846 N   0  0  0  0  0  0  0  0  0  0  0  0
   19.0345   15.1511    2.4720 C   0  0  0  0  0  0  0  0  0  0  0  0
   17.6578   15.2848    2.7016 C   0  0  0  0  0  0  0  0  0  0  0  0
   12.1475   16.6498    0.8005 C   0  0  0  0  0  0  0  0  0  0  0  0
   11.0263   15.8216    0.8805 C   0  0  0  0  0  0  0  0  0  0  0  0
    9.3162   13.6257    1.4081 N   0  0  0  0  0  0  0  0  0  0  0  0
  1  2  1  0
  2  3  1  0
  3  4  2  0
  4  5  1  0
  5  6  1  0
  6  7  2  0
  7  8  1  0
  8  9  2  0
  9 10  1  0
 10 11  1  0
 11 12  1  0
 12 13  1  6
 12 14  1  0
 14 15  1  0
 15 16  2  0
 16 17  1  0
 17 18  2  0
 18 19  1  0
 18 20  1  0
 20 21  1  0
 20 22  1  0
 22 23  2  0
 23 24  1  0
  9 25  1  0
 25 26  2  0
  5 27  2  0
 27  2  1  0
 26  6  1  0
 24 14  2  0
 23 17  1  0
M  END
>  <energy_score>  (179) 
-32.682183

>  <inchikey>  (179) 
None

>  <smiles>  (179) 
None

>  <ref_pdb>  (179) 
A0486a

>  <alias>  (179) 
None

>  <HIPPO Pose ID>  (179) 
497823

>  <name>  (179) 
P497823

>  <HIPPO Compound ID>  (179) 
289736

>  <ref_mols>  (179) 
A0486a,A0717a

>  <distance_score>  (179) 
1.767144

>  <inspiration_score>  (179) 
None

$$$$
P497824
     RDKit          3D

 27 30  0  0  0  0  0  0  0  0999 V2000
   11.0395   13.5332    0.2478 C   0  0  0  0  0  0  0  0  0  0  0  0
   10.0617   14.0851    1.1606 N   0  0  0  0  0  0  0  0  0  0  0  0
    9.0326   13.2954    1.5124 N   0  0  0  0  0  0  0  0  0  0  0  0
    8.3994   13.9852    2.4557 C   0  0  0  0  0  0  0  0  0  0  0  0
    8.9989   15.2382    2.6807 C   0  0  0  0  0  0  0  0  0  0  0  0
   10.0840   15.3055    1.8173 C   0  0  0  0  0  0  0  0  0  0  0  0
   11.1289   16.3342    1.6427 C   0  0  0  0  0  0  0  0  0  0  0  0
   11.6315   16.6601    0.3710 C   0  0  0  0  0  0  0  0  0  0  0  0
   12.7551   17.4957    0.2025 C   0  0  0  0  0  0  0  0  0  0  0  0
   13.4156   18.0494    1.3050 C   0  0  0  0  0  0  0  0  0  0  0  0
   14.6679   18.9160    1.1445 C   0  0  0  0  0  0  0  0  0  0  0  0
   15.7119   18.2907    0.3201 N   0  0  0  0  0  0  0  0  0  0  0  0
   17.1010   18.4744    0.7685 C   0  0  2  0  0  0  0  0  0  0  0  0
   17.8063   18.6154   -0.4384 O   0  0  0  0  0  0  0  0  0  0  0  0
   17.6567   17.2965    1.5901 C   0  0  0  0  0  0  0  0  0  0  0  0
   16.7345   16.6812    2.4545 C   0  0  0  0  0  0  0  0  0  0  0  0
   16.9785   15.4749    3.0830 C   0  0  0  0  0  0  0  0  0  0  0  0
   18.2124   14.8713    2.8861 C   0  0  0  0  0  0  0  0  0  0  0  0
   18.7455   13.6474    3.2889 C   0  0  0  0  0  0  0  0  0  0  0  0
   20.0022   13.4943    2.9063 N   0  0  0  0  0  0  0  0  0  0  0  0
   20.3153   14.6797    2.3378 N   0  0  0  0  0  0  0  0  0  0  0  0
   21.7043   14.9018    2.0119 C   0  0  0  0  0  0  0  0  0  0  0  0
   19.2276   15.5249    2.1863 C   0  0  0  0  0  0  0  0  0  0  0  0
   18.9827   16.7687    1.5438 C   0  0  0  0  0  0  0  0  0  0  0  0
   20.2715   17.5787    0.7400 Cl  0  0  0  0  0  0  0  0  0  0  0  0
   12.8548   17.8079    2.5714 C   0  0  0  0  0  0  0  0  0  0  0  0
   11.7290   16.9701    2.7368 C   0  0  0  0  0  0  0  0  0  0  0  0
  1  2  1  0
  2  3  1  0
  3  4  2  0
  4  5  1  0
  5  6  2  0
  6  7  1  0
  7  8  2  0
  8  9  1  0
  9 10  2  0
 10 11  1  0
 11 12  1  0
 12 13  1  0
 13 14  1  6
 13 15  1  0
 15 16  2  0
 16 17  1  0
 17 18  2  0
 18 19  1  0
 19 20  2  0
 20 21  1  0
 21 22  1  0
 21 23  1  0
 23 24  2  0
 24 25  1  0
 10 26  1  0
 26 27  2  0
  6  2  1  0
 27  7  1  0
 24 15  1  0
 23 18  1  0
M  END
>  <energy_score>  (180) 
-42.214393

>  <inchikey>  (180) 
None

>  <smiles>  (180) 
None

>  <ref_pdb>  (180) 
A0486a

>  <alias>  (180) 
None

>  <HIPPO Pose ID>  (180) 
497824

>  <name>  (180) 
P497824

>  <HIPPO Compound ID>  (180) 
289737

>  <ref_mols>  (180) 
A0486a,A0717a

>  <distance_score>  (180) 
1.854694

>  <inspiration_score>  (180) 
None

$$$$
P497825
     RDKit          3D

 27 30  0  0  0  0  0  0  0  0999 V2000
   10.3974   13.3644   -0.2937 C   0  0  0  0  0  0  0  0  0  0  0  0
    9.8010   13.8948    0.9123 N   0  0  0  0  0  0  0  0  0  0  0  0
    8.7349   13.2605    1.4252 N   0  0  0  0  0  0  0  0  0  0  0  0
    8.3714   14.0240    2.4526 C   0  0  0  0  0  0  0  0  0  0  0  0
    9.2141   15.1432    2.6039 C   0  0  0  0  0  0  0  0  0  0  0  0
   10.2045   14.9923    1.6480 C   0  0  0  0  0  0  0  0  0  0  0  0
   11.4508   15.7218    1.3824 C   0  0  0  0  0  0  0  0  0  0  0  0
   12.6759   15.0335    1.4292 C   0  0  0  0  0  0  0  0  0  0  0  0
   13.8726   15.6237    0.9865 C   0  0  0  0  0  0  0  0  0  0  0  0
   13.8924   16.9308    0.4810 C   0  0  0  0  0  0  0  0  0  0  0  0
   15.1648   17.4807   -0.1653 C   0  0  0  0  0  0  0  0  0  0  0  0
   15.7870   18.6006    0.5465 N   0  0  0  0  0  0  0  0  0  0  0  0
   17.2429   18.4814    0.7128 C   0  0  1  0  0  0  0  0  0  0  0  0
   17.6592   19.6859    1.3153 O   0  0  0  0  0  0  0  0  0  0  0  0
   17.7276   17.3411    1.6020 C   0  0  0  0  0  0  0  0  0  0  0  0
   16.8724   16.9259    2.6338 C   0  0  0  0  0  0  0  0  0  0  0  0
   17.0502   15.7195    3.2881 C   0  0  0  0  0  0  0  0  0  0  0  0
   18.1694   14.9526    2.9752 C   0  0  0  0  0  0  0  0  0  0  0  0
   18.6059   13.6792    3.3531 C   0  0  0  0  0  0  0  0  0  0  0  0
   19.7921   13.3783    2.8442 N   0  0  0  0  0  0  0  0  0  0  0  0
   20.1833   14.5304    2.2544 N   0  0  0  0  0  0  0  0  0  0  0  0
   21.5834   14.6704    1.9270 C   0  0  0  0  0  0  0  0  0  0  0  0
   19.1614   15.4541    2.1321 C   0  0  0  0  0  0  0  0  0  0  0  0
   18.9594   16.6545    1.4133 C   0  0  0  0  0  0  0  0  0  0  0  0
   20.1236   17.1918    0.2656 Cl  0  0  0  0  0  0  0  0  0  0  0  0
   12.6837   17.6479    0.5038 C   0  0  0  0  0  0  0  0  0  0  0  0
   11.4781   17.0515    0.9502 C   0  0  0  0  0  0  0  0  0  0  0  0
  1  2  1  0
  2  3  1  0
  3  4  2  0
  4  5  1  0
  5  6  2  0
  6  7  1  0
  7  8  2  0
  8  9  1  0
  9 10  2  0
 10 11  1  0
 11 12  1  0
 12 13  1  0
 13 14  1  1
 13 15  1  0
 15 16  2  0
 16 17  1  0
 17 18  2  0
 18 19  1  0
 19 20  2  0
 20 21  1  0
 21 22  1  0
 21 23  1  0
 23 24  2  0
 24 25  1  0
 10 26  1  0
 26 27  2  0
  6  2  1  0
 27  7  1  0
 24 15  1  0
 23 18  1  0
M  END
>  <energy_score>  (181) 
-26.233333

>  <inchikey>  (181) 
None

>  <smiles>  (181) 
None

>  <ref_pdb>  (181) 
A0486a

>  <alias>  (181) 
None

>  <HIPPO Pose ID>  (181) 
497825

>  <name>  (181) 
P497825

>  <HIPPO Compound ID>  (181) 
289737

>  <ref_mols>  (181) 
A0486a,A0717a

>  <distance_score>  (181) 
1.922402

>  <inspiration_score>  (181) 
None

$$$$
P497826
     RDKit          3D

 27 30  0  0  0  0  0  0  0  0999 V2000
    8.8768   12.4401    0.9013 C   0  0  0  0  0  0  0  0  0  0  0  0
    8.9992   13.6550    1.6701 N   0  0  0  0  0  0  0  0  0  0  0  0
    8.1897   14.0659    2.6807 C   0  0  0  0  0  0  0  0  0  0  0  0
    8.7108   15.2641    3.1145 C   0  0  0  0  0  0  0  0  0  0  0  0
    9.8667   15.4982    2.3171 C   0  0  0  0  0  0  0  0  0  0  0  0
   10.9048   16.5444    2.4370 C   0  0  0  0  0  0  0  0  0  0  0  0
   11.7774   16.7857    1.3624 C   0  0  0  0  0  0  0  0  0  0  0  0
   12.8911   17.6358    1.4891 C   0  0  0  0  0  0  0  0  0  0  0  0
   13.1894   18.2738    2.7025 C   0  0  0  0  0  0  0  0  0  0  0  0
   14.4578   19.1257    2.8238 C   0  0  0  0  0  0  0  0  0  0  0  0
   15.6118   18.2895    3.1170 N   0  0  0  0  0  0  0  0  0  0  0  0
   16.9272   18.5970    2.5512 C   0  0  2  0  0  0  0  0  0  0  0  0
   16.8474   19.4823    1.4535 O   0  0  0  0  0  0  0  0  0  0  0  0
   17.5672   17.2743    2.1001 C   0  0  0  0  0  0  0  0  0  0  0  0
   16.6982   16.4077    1.4135 C   0  0  0  0  0  0  0  0  0  0  0  0
   16.9859   15.0676    1.2687 C   0  0  0  0  0  0  0  0  0  0  0  0
   16.0645   14.2012    0.7418 O   0  0  0  0  0  0  0  0  0  0  0  0
   18.2064   14.5928    1.7349 C   0  0  0  0  0  0  0  0  0  0  0  0
   18.7556   13.3144    1.8612 C   0  0  0  0  0  0  0  0  0  0  0  0
   19.9865   13.3473    2.3534 N   0  0  0  0  0  0  0  0  0  0  0  0
   20.2731   14.6623    2.4215 N   0  0  0  0  0  0  0  0  0  0  0  0
   21.6654   15.0181    2.5547 C   0  0  0  0  0  0  0  0  0  0  0  0
   19.1724   15.4752    2.2262 C   0  0  0  0  0  0  0  0  0  0  0  0
   18.8839   16.8502    2.4133 C   0  0  0  0  0  0  0  0  0  0  0  0
   12.3014   18.0679    3.7705 C   0  0  0  0  0  0  0  0  0  0  0  0
   11.1694   17.2250    3.6368 C   0  0  0  0  0  0  0  0  0  0  0  0
   10.0203   14.4961    1.4307 N   0  0  0  0  0  0  0  0  0  0  0  0
  1  2  1  0
  2  3  1  0
  3  4  2  0
  4  5  1  0
  5  6  1  0
  6  7  2  0
  7  8  1  0
  8  9  2  0
  9 10  1  0
 10 11  1  0
 11 12  1  0
 12 13  1  6
 12 14  1  0
 14 15  2  0
 15 16  1  0
 16 17  1  0
 16 18  2  0
 18 19  1  0
 19 20  2  0
 20 21  1  0
 21 22  1  0
 21 23  1  0
 23 24  2  0
  9 25  1  0
 25 26  2  0
  5 27  2  0
 27  2  1  0
 26  6  1  0
 24 14  1  0
 23 18  1  0
M  END
>  <energy_score>  (182) 
-32.736564

>  <inchikey>  (182) 
None

>  <smiles>  (182) 
None

>  <ref_pdb>  (182) 
A0486a

>  <alias>  (182) 
None

>  <HIPPO Pose ID>  (182) 
497826

>  <name>  (182) 
P497826

>  <HIPPO Compound ID>  (182) 
289739

>  <ref_mols>  (182) 
A0486a,A0717a

>  <distance_score>  (182) 
1.827569

>  <inspiration_score>  (182) 
None

$$$$
P497827
     RDKit          3D

 27 30  0  0  0  0  0  0  0  0999 V2000
    8.7180   11.9352    1.2713 C   0  0  0  0  0  0  0  0  0  0  0  0
    9.0064   13.2870    1.6866 N   0  0  0  0  0  0  0  0  0  0  0  0
    8.3210   14.0259    2.5978 C   0  0  0  0  0  0  0  0  0  0  0  0
    8.9861   15.2282    2.6809 C   0  0  0  0  0  0  0  0  0  0  0  0
   10.0899   15.1258    1.7876 C   0  0  0  0  0  0  0  0  0  0  0  0
   11.1940   16.0704    1.5271 C   0  0  0  0  0  0  0  0  0  0  0  0
   11.5621   17.0846    2.4171 C   0  0  0  0  0  0  0  0  0  0  0  0
   12.6905   17.9022    2.1622 C   0  0  0  0  0  0  0  0  0  0  0  0
   13.4937   17.7397    1.0127 C   0  0  0  0  0  0  0  0  0  0  0  0
   14.6746   18.6866    0.7578 C   0  0  0  0  0  0  0  0  0  0  0  0
   15.8326   18.1144    0.0468 N   0  0  0  0  0  0  0  0  0  0  0  0
   17.1760   18.3625    0.5977 C   0  0  1  0  0  0  0  0  0  0  0  0
   17.2642   19.6322    1.1993 O   0  0  0  0  0  0  0  0  0  0  0  0
   17.6537   17.2779    1.5610 C   0  0  0  0  0  0  0  0  0  0  0  0
   16.7357   16.8187    2.5111 C   0  0  0  0  0  0  0  0  0  0  0  0
   16.9166   15.6127    3.1605 C   0  0  0  0  0  0  0  0  0  0  0  0
   15.9156   15.0978    3.9479 O   0  0  0  0  0  0  0  0  0  0  0  0
   18.0986   14.9060    2.9540 C   0  0  0  0  0  0  0  0  0  0  0  0
   18.5716   13.6551    3.3599 C   0  0  0  0  0  0  0  0  0  0  0  0
   19.8010   13.4031    2.9261 N   0  0  0  0  0  0  0  0  0  0  0  0
   20.1634   14.5579    2.3265 N   0  0  0  0  0  0  0  0  0  0  0  0
   21.5533   14.7174    1.9724 C   0  0  0  0  0  0  0  0  0  0  0  0
   19.1203   15.4509    2.1764 C   0  0  0  0  0  0  0  0  0  0  0  0
   18.9243   16.6484    1.4527 C   0  0  0  0  0  0  0  0  0  0  0  0
   13.0969   16.7544    0.1038 C   0  0  0  0  0  0  0  0  0  0  0  0
   11.9815   15.9304    0.3663 C   0  0  0  0  0  0  0  0  0  0  0  0
   10.0734   13.9262    1.1812 N   0  0  0  0  0  0  0  0  0  0  0  0
  1  2  1  0
  2  3  1  0
  3  4  2  0
  4  5  1  0
  5  6  1  0
  6  7  2  0
  7  8  1  0
  8  9  2  0
  9 10  1  0
 10 11  1  0
 11 12  1  0
 12 13  1  1
 12 14  1  0
 14 15  2  0
 15 16  1  0
 16 17  1  0
 16 18  2  0
 18 19  1  0
 19 20  2  0
 20 21  1  0
 21 22  1  0
 21 23  1  0
 23 24  2  0
  9 25  1  0
 25 26  2  0
  5 27  2  0
 27  2  1  0
 26  6  1  0
 24 14  1  0
 23 18  1  0
M  END
>  <energy_score>  (183) 
-24.031706

>  <inchikey>  (183) 
None

>  <smiles>  (183) 
None

>  <ref_pdb>  (183) 
A0486a

>  <alias>  (183) 
None

>  <HIPPO Pose ID>  (183) 
497827

>  <name>  (183) 
P497827

>  <HIPPO Compound ID>  (183) 
289739

>  <ref_mols>  (183) 
A0486a,A0717a

>  <distance_score>  (183) 
1.866688

>  <inspiration_score>  (183) 
None

$$$$
P497828
     RDKit          3D

 27 30  0  0  0  0  0  0  0  0999 V2000
   11.3544   14.1185    0.5164 C   0  0  0  0  0  0  0  0  0  0  0  0
   10.2337   14.5159    1.3415 N   0  0  0  0  0  0  0  0  0  0  0  0
    9.1995   13.6582    1.4351 N   0  0  0  0  0  0  0  0  0  0  0  0
    8.4306   14.1805    2.3858 C   0  0  0  0  0  0  0  0  0  0  0  0
    8.9431   15.4002    2.8653 C   0  0  0  0  0  0  0  0  0  0  0  0
   10.1209   15.6283    2.1644 C   0  0  0  0  0  0  0  0  0  0  0  0
   11.1631   16.6695    2.3248 C   0  0  0  0  0  0  0  0  0  0  0  0
   11.5535   17.1247    3.5912 C   0  0  0  0  0  0  0  0  0  0  0  0
   12.7220   17.9003    3.7647 C   0  0  0  0  0  0  0  0  0  0  0  0
   13.5373   18.2697    2.6790 C   0  0  0  0  0  0  0  0  0  0  0  0
   14.8831   18.9544    2.9469 C   0  0  0  0  0  0  0  0  0  0  0  0
   15.7645   19.1230    1.7717 N   0  0  0  0  0  0  0  0  0  0  0  0
   17.1810   18.8343    2.0279 C   0  0  2  0  0  0  0  0  0  0  0  0
   17.9003   19.4826    1.0005 O   0  0  0  0  0  0  0  0  0  0  0  0
   17.5668   17.3533    1.9845 C   0  0  0  0  0  0  0  0  0  0  0  0
   16.5582   16.4255    1.7055 C   0  0  0  0  0  0  0  0  0  0  0  0
   16.7542   15.0650    1.8186 C   0  0  0  0  0  0  0  0  0  0  0  0
   15.6598   14.2586    1.6011 O   0  0  0  0  0  0  0  0  0  0  0  0
   18.0158   14.5843    2.1544 C   0  0  0  0  0  0  0  0  0  0  0  0
   18.5446   13.3140    2.3933 C   0  0  0  0  0  0  0  0  0  0  0  0
   19.8436   13.3467    2.6553 N   0  0  0  0  0  0  0  0  0  0  0  0
   20.1747   14.6475    2.5024 N   0  0  0  0  0  0  0  0  0  0  0  0
   21.5815   14.9743    2.4820 C   0  0  0  0  0  0  0  0  0  0  0  0
   19.0835   15.4740    2.3077 C   0  0  0  0  0  0  0  0  0  0  0  0
   18.8858   16.8774    2.2333 C   0  0  0  0  0  0  0  0  0  0  0  0
   13.0633   17.9415    1.4040 C   0  0  0  0  0  0  0  0  0  0  0  0
   11.8984   17.1595    1.2329 C   0  0  0  0  0  0  0  0  0  0  0  0
  1  2  1  0
  2  3  1  0
  3  4  2  0
  4  5  1  0
  5  6  2  0
  6  7  1  0
  7  8  2  0
  8  9  1  0
  9 10  2  0
 10 11  1  0
 11 12  1  0
 12 13  1  0
 13 14  1  6
 13 15  1  0
 15 16  2  0
 16 17  1  0
 17 18  1  0
 17 19  2  0
 19 20  1  0
 20 21  2  0
 21 22  1  0
 22 23  1  0
 22 24  1  0
 24 25  2  0
 10 26  1  0
 26 27  2  0
  6  2  1  0
 27  7  1  0
 25 15  1  0
 24 19  1  0
M  END
>  <energy_score>  (184) 
-34.245935

>  <inchikey>  (184) 
None

>  <smiles>  (184) 
None

>  <ref_pdb>  (184) 
A0486a

>  <alias>  (184) 
None

>  <HIPPO Pose ID>  (184) 
497828

>  <name>  (184) 
P497828

>  <HIPPO Compound ID>  (184) 
289740

>  <ref_mols>  (184) 
A0486a,A0717a

>  <distance_score>  (184) 
1.869729

>  <inspiration_score>  (184) 
None

$$$$
P497829
     RDKit          3D

 27 30  0  0  0  0  0  0  0  0999 V2000
   10.5277   13.5843   -0.3591 C   0  0  0  0  0  0  0  0  0  0  0  0
    9.8725   13.9578    0.8747 N   0  0  0  0  0  0  0  0  0  0  0  0
    8.8794   13.1744    1.3265 N   0  0  0  0  0  0  0  0  0  0  0  0
    8.4123   13.8268    2.3883 C   0  0  0  0  0  0  0  0  0  0  0  0
    9.1204   15.0212    2.6256 C   0  0  0  0  0  0  0  0  0  0  0  0
   10.1390   15.0435    1.6854 C   0  0  0  0  0  0  0  0  0  0  0  0
   11.2848   15.9435    1.4969 C   0  0  0  0  0  0  0  0  0  0  0  0
   11.1365   17.3186    1.3207 C   0  0  0  0  0  0  0  0  0  0  0  0
   12.2560   18.1374    1.0447 C   0  0  0  0  0  0  0  0  0  0  0  0
   13.5636   17.6164    0.9315 C   0  0  0  0  0  0  0  0  0  0  0  0
   14.7351   18.5816    0.7037 C   0  0  0  0  0  0  0  0  0  0  0  0
   15.9140   18.0725   -0.0126 N   0  0  0  0  0  0  0  0  0  0  0  0
   17.2445   18.3575    0.5441 C   0  0  1  0  0  0  0  0  0  0  0  0
   17.2892   19.6400    1.1247 O   0  0  0  0  0  0  0  0  0  0  0  0
   17.7344   17.3098    1.5392 C   0  0  0  0  0  0  0  0  0  0  0  0
   16.8719   16.9673    2.5842 C   0  0  0  0  0  0  0  0  0  0  0  0
   17.0057   15.7646    3.2525 C   0  0  0  0  0  0  0  0  0  0  0  0
   16.0305   15.3500    4.1255 O   0  0  0  0  0  0  0  0  0  0  0  0
   18.1090   14.9583    2.9787 C   0  0  0  0  0  0  0  0  0  0  0  0
   18.5175   13.6807    3.3765 C   0  0  0  0  0  0  0  0  0  0  0  0
   19.7073   13.3470    2.8893 N   0  0  0  0  0  0  0  0  0  0  0  0
   20.1171   14.4741    2.2678 N   0  0  0  0  0  0  0  0  0  0  0  0
   21.5092   14.5668    1.8964 C   0  0  0  0  0  0  0  0  0  0  0  0
   19.1183   15.4174    2.1332 C   0  0  0  0  0  0  0  0  0  0  0  0
   18.9524   16.5969    1.3759 C   0  0  0  0  0  0  0  0  0  0  0  0
   13.7086   16.2419    1.1492 C   0  0  0  0  0  0  0  0  0  0  0  0
   12.5912   15.4250    1.4253 C   0  0  0  0  0  0  0  0  0  0  0  0
  1  2  1  0
  2  3  1  0
  3  4  2  0
  4  5  1  0
  5  6  2  0
  6  7  1  0
  7  8  2  0
  8  9  1  0
  9 10  2  0
 10 11  1  0
 11 12  1  0
 12 13  1  0
 13 14  1  1
 13 15  1  0
 15 16  2  0
 16 17  1  0
 17 18  1  0
 17 19  2  0
 19 20  1  0
 20 21  2  0
 21 22  1  0
 22 23  1  0
 22 24  1  0
 24 25  2  0
 10 26  1  0
 26 27  2  0
  6  2  1  0
 27  7  1  0
 25 15  1  0
 24 19  1  0
M  END
>  <energy_score>  (185) 
-27.40283

>  <inchikey>  (185) 
None

>  <smiles>  (185) 
None

>  <ref_pdb>  (185) 
A0486a

>  <alias>  (185) 
None

>  <HIPPO Pose ID>  (185) 
497829

>  <name>  (185) 
P497829

>  <HIPPO Compound ID>  (185) 
289740

>  <ref_mols>  (185) 
A0486a,A0717a

>  <distance_score>  (185) 
1.905407

>  <inspiration_score>  (185) 
None

$$$$
P497830
     RDKit          3D

 27 30  0  0  0  0  0  0  0  0999 V2000
   22.6493   13.8208    1.8430 C   0  0  0  0  0  0  0  0  0  0  0  0
   21.6656   14.9808    1.8543 C   0  0  0  0  0  0  0  0  0  0  0  0
   20.3021   14.6689    2.2397 N   0  0  0  0  0  0  0  0  0  0  0  0
   20.0325   13.5007    2.8613 N   0  0  0  0  0  0  0  0  0  0  0  0
   18.8075   13.6733    3.3391 C   0  0  0  0  0  0  0  0  0  0  0  0
   18.2425   14.8896    2.9483 C   0  0  0  0  0  0  0  0  0  0  0  0
   17.0358   15.5273    3.2230 C   0  0  0  0  0  0  0  0  0  0  0  0
   16.7594   16.7221    2.5799 C   0  0  0  0  0  0  0  0  0  0  0  0
   17.6191   17.2593    1.6156 C   0  0  0  0  0  0  0  0  0  0  0  0
   17.0714   18.3568    0.7029 C   0  0  2  0  0  0  0  0  0  0  0  0
   17.1753   19.6170    1.3224 O   0  0  0  0  0  0  0  0  0  0  0  0
   15.7055   18.1002    0.2145 N   0  0  0  0  0  0  0  0  0  0  0  0
   14.5890   18.6641    0.9949 C   0  0  0  0  0  0  0  0  0  0  0  0
   13.3743   17.7465    1.1808 C   0  0  0  0  0  0  0  0  0  0  0  0
   12.5765   17.8575    2.3391 C   0  0  0  0  0  0  0  0  0  0  0  0
   11.4415   17.0399    2.5524 C   0  0  0  0  0  0  0  0  0  0  0  0
   11.0660   16.0759    1.6113 C   0  0  0  0  0  0  0  0  0  0  0  0
    9.9798   15.1056    1.8428 C   0  0  0  0  0  0  0  0  0  0  0  0
    8.8717   15.1642    2.7344 C   0  0  0  0  0  0  0  0  0  0  0  0
    8.2340   13.9492    2.6223 C   0  0  0  0  0  0  0  0  0  0  0  0
    8.9395   13.2458    1.6975 N   0  0  0  0  0  0  0  0  0  0  0  0
    8.6816   11.8990    1.2471 C   0  0  0  0  0  0  0  0  0  0  0  0
    9.9947   13.9184    1.2131 N   0  0  0  0  0  0  0  0  0  0  0  0
   11.8386   15.9983    0.4356 C   0  0  0  0  0  0  0  0  0  0  0  0
   12.9587   16.8256    0.2143 C   0  0  0  0  0  0  0  0  0  0  0  0
   18.9163   16.7016    1.4545 C   0  0  0  0  0  0  0  0  0  0  0  0
   19.1985   15.5002    2.1414 C   0  0  0  0  0  0  0  0  0  0  0  0
  1  2  1  0
  2  3  1  0
  3  4  1  0
  4  5  2  0
  5  6  1  0
  6  7  2  0
  7  8  1  0
  8  9  2  0
  9 10  1  0
 10 11  1  1
 10 12  1  0
 12 13  1  0
 13 14  1  0
 14 15  2  0
 15 16  1  0
 16 17  2  0
 17 18  1  0
 18 19  1  0
 19 20  2  0
 20 21  1  0
 21 22  1  0
 21 23  1  0
 17 24  1  0
 24 25  2  0
  9 26  1  0
 26 27  2  0
 27  3  1  0
 27  6  1  0
 25 14  1  0
 23 18  2  0
M  END
>  <energy_score>  (186) 
-8.561317

>  <inchikey>  (186) 
None

>  <smiles>  (186) 
None

>  <ref_pdb>  (186) 
A0486a

>  <alias>  (186) 
None

>  <HIPPO Pose ID>  (186) 
497830

>  <name>  (186) 
P497830

>  <HIPPO Compound ID>  (186) 
289741

>  <ref_mols>  (186) 
A0486a,A0717a

>  <distance_score>  (186) 
1.753365

>  <inspiration_score>  (186) 
None

$$$$
P497831
     RDKit          3D

 27 30  0  0  0  0  0  0  0  0999 V2000
   22.6393   13.8275    1.8403 C   0  0  0  0  0  0  0  0  0  0  0  0
   21.6533   14.9859    1.8476 C   0  0  0  0  0  0  0  0  0  0  0  0
   20.2928   14.6739    2.2434 N   0  0  0  0  0  0  0  0  0  0  0  0
   20.0278   13.5074    2.8725 N   0  0  0  0  0  0  0  0  0  0  0  0
   18.7956   13.6720    3.3342 C   0  0  0  0  0  0  0  0  0  0  0  0
   18.2293   14.8882    2.9463 C   0  0  0  0  0  0  0  0  0  0  0  0
   17.0166   15.5179    3.2127 C   0  0  0  0  0  0  0  0  0  0  0  0
   16.7427   16.7163    2.5752 C   0  0  0  0  0  0  0  0  0  0  0  0
   17.6091   17.2648    1.6193 C   0  0  0  0  0  0  0  0  0  0  0  0
   17.0369   18.3862    0.7468 C   0  0  1  0  0  0  0  0  0  0  0  0
   17.8689   18.5821   -0.3738 O   0  0  0  0  0  0  0  0  0  0  0  0
   15.7161   18.0562    0.1943 N   0  0  0  0  0  0  0  0  0  0  0  0
   14.5775   18.6661    0.9072 C   0  0  0  0  0  0  0  0  0  0  0  0
   13.3676   17.7508    1.1188 C   0  0  0  0  0  0  0  0  0  0  0  0
   12.5736   17.8749    2.2778 C   0  0  0  0  0  0  0  0  0  0  0  0
   11.4427   17.0547    2.5056 C   0  0  0  0  0  0  0  0  0  0  0  0
   11.0653   16.0778    1.5783 C   0  0  0  0  0  0  0  0  0  0  0  0
    9.9783   15.1108    1.8238 C   0  0  0  0  0  0  0  0  0  0  0  0
    8.8987   15.1612    2.7505 C   0  0  0  0  0  0  0  0  0  0  0  0
    8.2563   13.9483    2.6465 C   0  0  0  0  0  0  0  0  0  0  0  0
    8.9320   13.2536    1.6942 N   0  0  0  0  0  0  0  0  0  0  0  0
    8.6697   11.9050    1.2531 C   0  0  0  0  0  0  0  0  0  0  0  0
    9.9603   13.9371    1.1685 N   0  0  0  0  0  0  0  0  0  0  0  0
   11.8365   15.9859    0.4027 C   0  0  0  0  0  0  0  0  0  0  0  0
   12.9544   16.8125    0.1679 C   0  0  0  0  0  0  0  0  0  0  0  0
   18.9074   16.7090    1.4656 C   0  0  0  0  0  0  0  0  0  0  0  0
   19.1888   15.5052    2.1488 C   0  0  0  0  0  0  0  0  0  0  0  0
  1  2  1  0
  2  3  1  0
  3  4  1  0
  4  5  2  0
  5  6  1  0
  6  7  2  0
  7  8  1  0
  8  9  2  0
  9 10  1  0
 10 11  1  6
 10 12  1  0
 12 13  1  0
 13 14  1  0
 14 15  2  0
 15 16  1  0
 16 17  2  0
 17 18  1  0
 18 19  1  0
 19 20  2  0
 20 21  1  0
 21 22  1  0
 21 23  1  0
 17 24  1  0
 24 25  2  0
  9 26  1  0
 26 27  2  0
 27  3  1  0
 27  6  1  0
 25 14  1  0
 23 18  2  0
M  END
>  <energy_score>  (187) 
-20.38325

>  <inchikey>  (187) 
None

>  <smiles>  (187) 
None

>  <ref_pdb>  (187) 
A0486a

>  <alias>  (187) 
None

>  <HIPPO Pose ID>  (187) 
497831

>  <name>  (187) 
P497831

>  <HIPPO Compound ID>  (187) 
289741

>  <ref_mols>  (187) 
A0486a,A0717a

>  <distance_score>  (187) 
1.813103

>  <inspiration_score>  (187) 
None

$$$$
P497832
     RDKit          3D

 27 30  0  0  0  0  0  0  0  0999 V2000
   22.6504   13.8044    1.8731 C   0  0  0  0  0  0  0  0  0  0  0  0
   21.6542   14.9514    1.8121 C   0  0  0  0  0  0  0  0  0  0  0  0
   20.2877   14.6491    2.1953 N   0  0  0  0  0  0  0  0  0  0  0  0
   19.9989   13.4788    2.8041 N   0  0  0  0  0  0  0  0  0  0  0  0
   18.7975   13.6853    3.3276 C   0  0  0  0  0  0  0  0  0  0  0  0
   18.2572   14.9219    2.9631 C   0  0  0  0  0  0  0  0  0  0  0  0
   17.0920   15.6086    3.2939 C   0  0  0  0  0  0  0  0  0  0  0  0
   16.8422   16.8217    2.6734 C   0  0  0  0  0  0  0  0  0  0  0  0
   17.6635   17.3145    1.6557 C   0  0  0  0  0  0  0  0  0  0  0  0
   17.1166   18.4329    0.7716 C   0  0  2  0  0  0  0  0  0  0  0  0
   17.1808   19.6678    1.4461 O   0  0  0  0  0  0  0  0  0  0  0  0
   15.7668   18.1848    0.2441 N   0  0  0  0  0  0  0  0  0  0  0  0
   14.6231   18.6272    1.0562 C   0  0  0  0  0  0  0  0  0  0  0  0
   13.4386   17.6605    1.1818 C   0  0  0  0  0  0  0  0  0  0  0  0
   13.5804   16.2718    1.2812 C   0  0  0  0  0  0  0  0  0  0  0  0
   12.4627   15.4385    1.4849 C   0  0  0  0  0  0  0  0  0  0  0  0
   11.1591   15.9545    1.6033 C   0  0  0  0  0  0  0  0  0  0  0  0
   10.0189   15.0406    1.7451 C   0  0  0  0  0  0  0  0  0  0  0  0
    9.0211   14.9466    2.7027 C   0  0  0  0  0  0  0  0  0  0  0  0
    8.3314   13.7532    2.4126 C   0  0  0  0  0  0  0  0  0  0  0  0
    8.7861   13.1721    1.3046 N   0  0  0  0  0  0  0  0  0  0  0  0
    9.7507   14.0026    0.8755 N   0  0  0  0  0  0  0  0  0  0  0  0
   10.3797   13.7188   -0.3952 C   0  0  0  0  0  0  0  0  0  0  0  0
   11.0125   17.3395    1.5410 C   0  0  0  0  0  0  0  0  0  0  0  0
   12.1336   18.1757    1.3343 C   0  0  0  0  0  0  0  0  0  0  0  0
   18.9284   16.7079    1.4366 C   0  0  0  0  0  0  0  0  0  0  0  0
   19.2002   15.5031    2.1206 C   0  0  0  0  0  0  0  0  0  0  0  0
  1  2  1  0
  2  3  1  0
  3  4  1  0
  4  5  2  0
  5  6  1  0
  6  7  2  0
  7  8  1  0
  8  9  2  0
  9 10  1  0
 10 11  1  1
 10 12  1  0
 12 13  1  0
 13 14  1  0
 14 15  2  0
 15 16  1  0
 16 17  2  0
 17 18  1  0
 18 19  2  0
 19 20  1  0
 20 21  2  0
 21 22  1  0
 22 23  1  0
 17 24  1  0
 24 25  2  0
  9 26  1  0
 26 27  2  0
 27  3  1  0
 27  6  1  0
 25 14  1  0
 22 18  1  0
M  END
>  <energy_score>  (188) 
-16.752634

>  <inchikey>  (188) 
None

>  <smiles>  (188) 
None

>  <ref_pdb>  (188) 
A0486a

>  <alias>  (188) 
None

>  <HIPPO Pose ID>  (188) 
497832

>  <name>  (188) 
P497832

>  <HIPPO Compound ID>  (188) 
289742

>  <ref_mols>  (188) 
A0486a,A0717a

>  <distance_score>  (188) 
1.831441

>  <inspiration_score>  (188) 
None

$$$$
P497833
     RDKit          3D

 27 30  0  0  0  0  0  0  0  0999 V2000
   22.6658   13.8242    1.8898 C   0  0  0  0  0  0  0  0  0  0  0  0
   21.6831   14.9849    1.8747 C   0  0  0  0  0  0  0  0  0  0  0  0
   20.3130   14.6797    2.2429 N   0  0  0  0  0  0  0  0  0  0  0  0
   20.0194   13.4938    2.8182 N   0  0  0  0  0  0  0  0  0  0  0  0
   18.7945   13.6679    3.2948 C   0  0  0  0  0  0  0  0  0  0  0  0
   18.2474   14.9016    2.9352 C   0  0  0  0  0  0  0  0  0  0  0  0
   17.0478   15.5455    3.2239 C   0  0  0  0  0  0  0  0  0  0  0  0
   16.8039   16.7731    2.6337 C   0  0  0  0  0  0  0  0  0  0  0  0
   17.6826   17.3388    1.6995 C   0  0  0  0  0  0  0  0  0  0  0  0
   17.1723   18.5580    0.9220 C   0  0  1  0  0  0  0  0  0  0  0  0
   17.6635   18.6019   -0.4021 O   0  0  0  0  0  0  0  0  0  0  0  0
   15.7015   18.6801    0.8924 N   0  0  0  0  0  0  0  0  0  0  0  0
   15.0198   17.6989    0.0366 C   0  0  0  0  0  0  0  0  0  0  0  0
   13.7595   17.0864    0.6473 C   0  0  0  0  0  0  0  0  0  0  0  0
   12.5551   17.7966    0.7862 C   0  0  0  0  0  0  0  0  0  0  0  0
   11.3597   17.1528    1.1941 C   0  0  0  0  0  0  0  0  0  0  0  0
   11.3401   15.7824    1.4716 C   0  0  0  0  0  0  0  0  0  0  0  0
   10.1047   15.0260    1.7118 C   0  0  0  0  0  0  0  0  0  0  0  0
    9.1305   15.1102    2.6927 C   0  0  0  0  0  0  0  0  0  0  0  0
    8.3082   13.9816    2.5036 C   0  0  0  0  0  0  0  0  0  0  0  0
    8.6632   13.2795    1.4303 N   0  0  0  0  0  0  0  0  0  0  0  0
    9.6996   13.9659    0.9237 N   0  0  0  0  0  0  0  0  0  0  0  0
   10.2632   13.5224   -0.3321 C   0  0  0  0  0  0  0  0  0  0  0  0
   12.5638   15.0934    1.4075 C   0  0  0  0  0  0  0  0  0  0  0  0
   13.7481   15.7296    1.0005 C   0  0  0  0  0  0  0  0  0  0  0  0
   18.9705   16.7662    1.5272 C   0  0  0  0  0  0  0  0  0  0  0  0
   19.2211   15.5291    2.1617 C   0  0  0  0  0  0  0  0  0  0  0  0
  1  2  1  0
  2  3  1  0
  3  4  1  0
  4  5  2  0
  5  6  1  0
  6  7  2  0
  7  8  1  0
  8  9  2  0
  9 10  1  0
 10 11  1  6
 10 12  1  0
 12 13  1  0
 13 14  1  0
 14 15  2  0
 15 16  1  0
 16 17  2  0
 17 18  1  0
 18 19  2  0
 19 20  1  0
 20 21  2  0
 21 22  1  0
 22 23  1  0
 17 24  1  0
 24 25  2  0
  9 26  1  0
 26 27  2  0
 27  3  1  0
 27  6  1  0
 25 14  1  0
 22 18  1  0
M  END
>  <energy_score>  (189) 
-16.487678

>  <inchikey>  (189) 
None

>  <smiles>  (189) 
None

>  <ref_pdb>  (189) 
A0486a

>  <alias>  (189) 
None

>  <HIPPO Pose ID>  (189) 
497833

>  <name>  (189) 
P497833

>  <HIPPO Compound ID>  (189) 
289742

>  <ref_mols>  (189) 
A0486a,A0717a

>  <distance_score>  (189) 
1.7955

>  <inspiration_score>  (189) 
None

$$$$
P497834
     RDKit          3D

 27 30  0  0  0  0  0  0  0  0999 V2000
   17.8138   12.1020    1.1887 C   0  0  0  0  0  0  0  0  0  0  0  0
   18.5644   13.2917    1.6620 C   0  0  0  0  0  0  0  0  0  0  0  0
   19.6897   13.1624    2.3628 N   0  0  0  0  0  0  0  0  0  0  0  0
   20.1533   14.4259    2.4717 N   0  0  0  0  0  0  0  0  0  0  0  0
   21.5666   14.5950    2.7181 C   0  0  0  0  0  0  0  0  0  0  0  0
   19.2036   15.3771    2.1667 C   0  0  0  0  0  0  0  0  0  0  0  0
   19.0615   16.7635    2.3901 C   0  0  0  0  0  0  0  0  0  0  0  0
   17.8647   17.3696    1.9335 C   0  0  0  0  0  0  0  0  0  0  0  0
   17.3496   18.7247    2.4195 C   0  0  2  0  0  0  0  0  0  0  0  0
   17.8609   19.0211    3.7034 O   0  0  0  0  0  0  0  0  0  0  0  0
   15.8804   18.8222    2.4377 N   0  0  0  0  0  0  0  0  0  0  0  0
   15.2126   18.0242    3.4732 C   0  0  0  0  0  0  0  0  0  0  0  0
   13.8809   17.4208    3.0235 C   0  0  0  0  0  0  0  0  0  0  0  0
   13.8511   16.1292    2.4846 C   0  0  0  0  0  0  0  0  0  0  0  0
   12.6417   15.5130    2.1223 C   0  0  0  0  0  0  0  0  0  0  0  0
   11.3993   16.1505    2.2967 C   0  0  0  0  0  0  0  0  0  0  0  0
   10.1589   15.3926    2.0390 C   0  0  0  0  0  0  0  0  0  0  0  0
    9.0578   15.1530    2.8511 C   0  0  0  0  0  0  0  0  0  0  0  0
    8.3536   14.1012    2.2349 C   0  0  0  0  0  0  0  0  0  0  0  0
    8.8959   13.7550    1.0700 N   0  0  0  0  0  0  0  0  0  0  0  0
    9.9286   14.6062    0.9270 N   0  0  0  0  0  0  0  0  0  0  0  0
   10.6576   14.5891   -0.3215 C   0  0  0  0  0  0  0  0  0  0  0  0
   11.4227   17.4443    2.8280 C   0  0  0  0  0  0  0  0  0  0  0  0
   12.6470   18.0765    3.1723 C   0  0  0  0  0  0  0  0  0  0  0  0
   17.0564   16.6801    1.0218 C   0  0  0  0  0  0  0  0  0  0  0  0
   17.2067   15.3186    0.8106 C   0  0  0  0  0  0  0  0  0  0  0  0
   18.2333   14.6503    1.4782 C   0  0  0  0  0  0  0  0  0  0  0  0
  1  2  1  0
  2  3  2  0
  3  4  1  0
  4  5  1  0
  4  6  1  0
  6  7  2  0
  7  8  1  0
  8  9  1  0
  9 10  1  1
  9 11  1  0
 11 12  1  0
 12 13  1  0
 13 14  2  0
 14 15  1  0
 15 16  2  0
 16 17  1  0
 17 18  2  0
 18 19  1  0
 19 20  2  0
 20 21  1  0
 21 22  1  0
 16 23  1  0
 23 24  2  0
  8 25  2  0
 25 26  1  0
 26 27  2  0
 27  2  1  0
 27  6  1  0
 24 13  1  0
 21 17  1  0
M  END
>  <energy_score>  (190) 
-22.865062

>  <inchikey>  (190) 
None

>  <smiles>  (190) 
None

>  <ref_pdb>  (190) 
A0486a

>  <alias>  (190) 
None

>  <HIPPO Pose ID>  (190) 
497834

>  <name>  (190) 
P497834

>  <HIPPO Compound ID>  (190) 
289743

>  <ref_mols>  (190) 
A0486a,A0717a

>  <distance_score>  (190) 
1.805822

>  <inspiration_score>  (190) 
None

$$$$
P497835
     RDKit          3D

 27 30  0  0  0  0  0  0  0  0999 V2000
   17.7816   12.1103    1.2750 C   0  0  0  0  0  0  0  0  0  0  0  0
   18.5319   13.3130    1.7171 C   0  0  0  0  0  0  0  0  0  0  0  0
   19.7116   13.2058    2.3253 N   0  0  0  0  0  0  0  0  0  0  0  0
   20.1426   14.4794    2.4382 N   0  0  0  0  0  0  0  0  0  0  0  0
   21.5566   14.6786    2.6579 C   0  0  0  0  0  0  0  0  0  0  0  0
   19.1531   15.4117    2.2008 C   0  0  0  0  0  0  0  0  0  0  0  0
   18.9975   16.7972    2.4352 C   0  0  0  0  0  0  0  0  0  0  0  0
   17.7540   17.3766    2.0715 C   0  0  0  0  0  0  0  0  0  0  0  0
   17.2439   18.7044    2.6455 C   0  0  1  0  0  0  0  0  0  0  0  0
   17.3661   19.7488    1.7035 O   0  0  0  0  0  0  0  0  0  0  0  0
   15.8777   18.5865    3.2012 N   0  0  0  0  0  0  0  0  0  0  0  0
   14.7865   19.1099    2.3648 C   0  0  0  0  0  0  0  0  0  0  0  0
   13.5276   18.2357    2.3434 C   0  0  0  0  0  0  0  0  0  0  0  0
   12.9963   17.8037    1.1188 C   0  0  0  0  0  0  0  0  0  0  0  0
   11.8469   16.9918    1.0574 C   0  0  0  0  0  0  0  0  0  0  0  0
   11.1866   16.5554    2.2146 C   0  0  0  0  0  0  0  0  0  0  0  0
   10.1137   15.5353    2.1498 C   0  0  0  0  0  0  0  0  0  0  0  0
    8.9710   15.3639    2.9214 C   0  0  0  0  0  0  0  0  0  0  0  0
    8.3938   14.1501    2.5045 C   0  0  0  0  0  0  0  0  0  0  0  0
    9.0882   13.5826    1.5232 N   0  0  0  0  0  0  0  0  0  0  0  0
   10.1300   14.4119    1.3340 N   0  0  0  0  0  0  0  0  0  0  0  0
   11.1609   13.9731    0.4186 C   0  0  0  0  0  0  0  0  0  0  0  0
   11.6608   17.0700    3.4340 C   0  0  0  0  0  0  0  0  0  0  0  0
   12.8162   17.8879    3.4992 C   0  0  0  0  0  0  0  0  0  0  0  0
   16.8747   16.6624    1.2516 C   0  0  0  0  0  0  0  0  0  0  0  0
   17.0398   15.3053    1.0305 C   0  0  0  0  0  0  0  0  0  0  0  0
   18.1457   14.6637    1.5910 C   0  0  0  0  0  0  0  0  0  0  0  0
  1  2  1  0
  2  3  2  0
  3  4  1  0
  4  5  1  0
  4  6  1  0
  6  7  2  0
  7  8  1  0
  8  9  1  0
  9 10  1  6
  9 11  1  0
 11 12  1  0
 12 13  1  0
 13 14  2  0
 14 15  1  0
 15 16  2  0
 16 17  1  0
 17 18  2  0
 18 19  1  0
 19 20  2  0
 20 21  1  0
 21 22  1  0
 16 23  1  0
 23 24  2  0
  8 25  2  0
 25 26  1  0
 26 27  2  0
 27  2  1  0
 27  6  1  0
 24 13  1  0
 21 17  1  0
M  END
>  <energy_score>  (191) 
-15.119926

>  <inchikey>  (191) 
None

>  <smiles>  (191) 
None

>  <ref_pdb>  (191) 
A0486a

>  <alias>  (191) 
None

>  <HIPPO Pose ID>  (191) 
497835

>  <name>  (191) 
P497835

>  <HIPPO Compound ID>  (191) 
289743

>  <ref_mols>  (191) 
A0486a,A0717a

>  <distance_score>  (191) 
1.839855

>  <inspiration_score>  (191) 
None

$$$$
P497836
     RDKit          3D

 27 30  0  0  0  0  0  0  0  0999 V2000
   17.8749   12.1014    1.0959 C   0  0  0  0  0  0  0  0  0  0  0  0
   18.5876   13.3008    1.6033 C   0  0  0  0  0  0  0  0  0  0  0  0
   19.7552   13.1892    2.2340 N   0  0  0  0  0  0  0  0  0  0  0  0
   20.1595   14.4642    2.4087 N   0  0  0  0  0  0  0  0  0  0  0  0
   21.5635   14.6797    2.6681 C   0  0  0  0  0  0  0  0  0  0  0  0
   19.1572   15.3848    2.1911 C   0  0  0  0  0  0  0  0  0  0  0  0
   18.9637   16.7503    2.4932 C   0  0  0  0  0  0  0  0  0  0  0  0
   17.7041   17.3130    2.1636 C   0  0  0  0  0  0  0  0  0  0  0  0
   17.1093   18.5540    2.8394 C   0  0  2  0  0  0  0  0  0  0  0  0
   17.8836   18.8640    3.9798 O   0  0  0  0  0  0  0  0  0  0  0  0
   15.7495   18.3170    3.3653 N   0  0  0  0  0  0  0  0  0  0  0  0
   14.6738   18.8980    2.5433 C   0  0  0  0  0  0  0  0  0  0  0  0
   13.4028   18.0481    2.4894 C   0  0  0  0  0  0  0  0  0  0  0  0
   12.5003   17.9602    3.5618 C   0  0  0  0  0  0  0  0  0  0  0  0
   11.3261   17.1680    3.4793 C   0  0  0  0  0  0  0  0  0  0  0  0
   11.0299   16.4209    2.3277 C   0  0  0  0  0  0  0  0  0  0  0  0
    9.9311   15.4334    2.2586 C   0  0  0  0  0  0  0  0  0  0  0  0
    8.7719   15.2957    3.0730 C   0  0  0  0  0  0  0  0  0  0  0  0
    8.1827   14.1109    2.6928 C   0  0  0  0  0  0  0  0  0  0  0  0
    8.9586   13.6158    1.6937 N   0  0  0  0  0  0  0  0  0  0  0  0
    8.7675   12.3764    0.9801 C   0  0  0  0  0  0  0  0  0  0  0  0
   10.0174   14.3924    1.4093 N   0  0  0  0  0  0  0  0  0  0  0  0
   11.9245   16.5362    1.2510 C   0  0  0  0  0  0  0  0  0  0  0  0
   13.0795   17.3358    1.3255 C   0  0  0  0  0  0  0  0  0  0  0  0
   16.8802   16.6368    1.2593 C   0  0  0  0  0  0  0  0  0  0  0  0
   17.0842   15.3000    0.9564 C   0  0  0  0  0  0  0  0  0  0  0  0
   18.1815   14.6486    1.5208 C   0  0  0  0  0  0  0  0  0  0  0  0
  1  2  1  0
  2  3  2  0
  3  4  1  0
  4  5  1  0
  4  6  1  0
  6  7  2  0
  7  8  1  0
  8  9  1  0
  9 10  1  1
  9 11  1  0
 11 12  1  0
 12 13  1  0
 13 14  2  0
 14 15  1  0
 15 16  2  0
 16 17  1  0
 17 18  1  0
 18 19  2  0
 19 20  1  0
 20 21  1  0
 20 22  1  0
 16 23  1  0
 23 24  2  0
  8 25  2  0
 25 26  1  0
 26 27  2  0
 27  2  1  0
 27  6  1  0
 24 13  1  0
 22 17  2  0
M  END
>  <energy_score>  (192) 
-24.119092

>  <inchikey>  (192) 
None

>  <smiles>  (192) 
None

>  <ref_pdb>  (192) 
A0486a

>  <alias>  (192) 
None

>  <HIPPO Pose ID>  (192) 
497836

>  <name>  (192) 
P497836

>  <HIPPO Compound ID>  (192) 
289744

>  <ref_mols>  (192) 
A0486a,A0717a

>  <distance_score>  (192) 
1.81128

>  <inspiration_score>  (192) 
None

$$$$
P497837
     RDKit          3D

 27 30  0  0  0  0  0  0  0  0999 V2000
   17.8613   12.1214    1.1535 C   0  0  0  0  0  0  0  0  0  0  0  0
   18.5936   13.3157    1.6448 C   0  0  0  0  0  0  0  0  0  0  0  0
   19.6920   13.1944    2.3900 N   0  0  0  0  0  0  0  0  0  0  0  0
   20.1559   14.4592    2.4883 N   0  0  0  0  0  0  0  0  0  0  0  0
   21.5717   14.6300    2.7208 C   0  0  0  0  0  0  0  0  0  0  0  0
   19.2100   15.4067    2.1563 C   0  0  0  0  0  0  0  0  0  0  0  0
   19.0484   16.7927    2.3738 C   0  0  0  0  0  0  0  0  0  0  0  0
   17.8706   17.3906    1.8564 C   0  0  0  0  0  0  0  0  0  0  0  0
   17.3317   18.7357    2.3526 C   0  0  1  0  0  0  0  0  0  0  0  0
   17.7559   19.7491    1.4605 O   0  0  0  0  0  0  0  0  0  0  0  0
   15.8681   18.8218    2.4518 N   0  0  0  0  0  0  0  0  0  0  0  0
   15.2359   17.9214    3.4125 C   0  0  0  0  0  0  0  0  0  0  0  0
   13.8807   17.3639    2.9692 C   0  0  0  0  0  0  0  0  0  0  0  0
   12.6554   17.9384    3.3489 C   0  0  0  0  0  0  0  0  0  0  0  0
   11.4137   17.3246    3.0308 C   0  0  0  0  0  0  0  0  0  0  0  0
   11.3607   16.1303    2.2998 C   0  0  0  0  0  0  0  0  0  0  0  0
   10.1329   15.3238    2.1085 C   0  0  0  0  0  0  0  0  0  0  0  0
    8.8885   15.3922    2.7973 C   0  0  0  0  0  0  0  0  0  0  0  0
    8.1835   14.2737    2.4134 C   0  0  0  0  0  0  0  0  0  0  0  0
    8.9774   13.6238    1.5237 N   0  0  0  0  0  0  0  0  0  0  0  0
    8.6926   12.3780    0.8540 C   0  0  0  0  0  0  0  0  0  0  0  0
   10.1537   14.2359    1.3165 N   0  0  0  0  0  0  0  0  0  0  0  0
   12.5915   15.6017    1.8661 C   0  0  0  0  0  0  0  0  0  0  0  0
   13.8199   16.1939    2.2050 C   0  0  0  0  0  0  0  0  0  0  0  0
   17.1183   16.7021    0.9002 C   0  0  0  0  0  0  0  0  0  0  0  0
   17.2815   15.3383    0.7080 C   0  0  0  0  0  0  0  0  0  0  0  0
   18.2723   14.6731    1.4312 C   0  0  0  0  0  0  0  0  0  0  0  0
  1  2  1  0
  2  3  2  0
  3  4  1  0
  4  5  1  0
  4  6  1  0
  6  7  2  0
  7  8  1  0
  8  9  1  0
  9 10  1  6
  9 11  1  0
 11 12  1  0
 12 13  1  0
 13 14  2  0
 14 15  1  0
 15 16  2  0
 16 17  1  0
 17 18  1  0
 18 19  2  0
 19 20  1  0
 20 21  1  0
 20 22  1  0
 16 23  1  0
 23 24  2  0
  8 25  2  0
 25 26  1  0
 26 27  2  0
 27  2  1  0
 27  6  1  0
 24 13  1  0
 22 17  2  0
M  END
>  <energy_score>  (193) 
-9.712656

>  <inchikey>  (193) 
None

>  <smiles>  (193) 
None

>  <ref_pdb>  (193) 
A0486a

>  <alias>  (193) 
None

>  <HIPPO Pose ID>  (193) 
497837

>  <name>  (193) 
P497837

>  <HIPPO Compound ID>  (193) 
289744

>  <ref_mols>  (193) 
A0486a,A0717a

>  <distance_score>  (193) 
1.938015

>  <inspiration_score>  (193) 
None

$$$$
P497838
     RDKit          3D

 27 30  0  0  0  0  0  0  0  0999 V2000
   20.1941   17.9518    2.6781 C   0  0  0  0  0  0  0  0  0  0  0  0
   19.1346   16.9744    2.2554 C   0  0  0  0  0  0  0  0  0  0  0  0
   17.8091   17.4350    1.9481 C   0  0  0  0  0  0  0  0  0  0  0  0
   17.1375   18.7387    2.4424 C   0  0  2  0  0  0  0  0  0  0  0  0
   17.8462   19.2886    3.5332 O   0  0  0  0  0  0  0  0  0  0  0  0
   15.8021   18.4726    3.0055 N   0  0  0  0  0  0  0  0  0  0  0  0
   14.6728   18.8797    2.1516 C   0  0  0  0  0  0  0  0  0  0  0  0
   13.4437   17.9740    2.2787 C   0  0  0  0  0  0  0  0  0  0  0  0
   12.1362   18.4950    2.2339 C   0  0  0  0  0  0  0  0  0  0  0  0
   10.9973   17.6530    2.1921 C   0  0  0  0  0  0  0  0  0  0  0  0
   11.1367   16.2650    2.1537 C   0  0  0  0  0  0  0  0  0  0  0  0
   10.0024   15.3387    2.0327 C   0  0  0  0  0  0  0  0  0  0  0  0
    8.9449   15.0631    2.8856 C   0  0  0  0  0  0  0  0  0  0  0  0
    8.3378   13.9009    2.3693 C   0  0  0  0  0  0  0  0  0  0  0  0
    8.9027   13.5068    1.2291 N   0  0  0  0  0  0  0  0  0  0  0  0
    9.8586   14.4258    1.0076 N   0  0  0  0  0  0  0  0  0  0  0  0
   10.6236   14.3391   -0.2159 C   0  0  0  0  0  0  0  0  0  0  0  0
   12.4417   15.7463    2.2121 C   0  0  0  0  0  0  0  0  0  0  0  0
   13.5670   16.5802    2.2966 C   0  0  0  0  0  0  0  0  0  0  0  0
   16.9754   16.6160    1.1795 C   0  0  0  0  0  0  0  0  0  0  0  0
   17.1955   15.2590    1.0614 C   0  0  0  0  0  0  0  0  0  0  0  0
   18.3228   14.7232    1.6712 C   0  0  0  0  0  0  0  0  0  0  0  0
   18.7371   13.4108    1.9104 C   0  0  0  0  0  0  0  0  0  0  0  0
   19.9328   13.3674    2.4736 N   0  0  0  0  0  0  0  0  0  0  0  0
   20.3498   14.6553    2.4535 N   0  0  0  0  0  0  0  0  0  0  0  0
   21.7712   14.8471    2.6177 C   0  0  0  0  0  0  0  0  0  0  0  0
   19.3304   15.5575    2.1719 C   0  0  0  0  0  0  0  0  0  0  0  0
  1  2  1  0
  2  3  2  0
  3  4  1  0
  4  5  1  1
  4  6  1  0
  6  7  1  0
  7  8  1  0
  8  9  2  0
  9 10  1  0
 10 11  2  0
 11 12  1  0
 12 13  2  0
 13 14  1  0
 14 15  2  0
 15 16  1  0
 16 17  1  0
 11 18  1  0
 18 19  2  0
  3 20  1  0
 20 21  2  0
 21 22  1  0
 22 23  1  0
 23 24  2  0
 24 25  1  0
 25 26  1  0
 25 27  1  0
 27  2  1  0
 19  8  1  0
 27 22  2  0
 16 12  1  0
M  END
>  <energy_score>  (194) 
-20.303788

>  <inchikey>  (194) 
None

>  <smiles>  (194) 
None

>  <ref_pdb>  (194) 
A0486a

>  <alias>  (194) 
None

>  <HIPPO Pose ID>  (194) 
497838

>  <name>  (194) 
P497838

>  <HIPPO Compound ID>  (194) 
289745

>  <ref_mols>  (194) 
A0486a,A0717a

>  <distance_score>  (194) 
1.711968

>  <inspiration_score>  (194) 
None

$$$$
P497839
     RDKit          3D

 27 30  0  0  0  0  0  0  0  0999 V2000
   19.9507   17.9857    2.5660 C   0  0  0  0  0  0  0  0  0  0  0  0
   18.9119   16.9353    2.3004 C   0  0  0  0  0  0  0  0  0  0  0  0
   17.5332   17.3049    2.1449 C   0  0  0  0  0  0  0  0  0  0  0  0
   16.8646   18.6541    2.4949 C   0  0  2  0  0  0  0  0  0  0  0  0
   17.6045   19.3694    3.4569 O   0  0  0  0  0  0  0  0  0  0  0  0
   15.5548   18.4142    3.0939 N   0  0  0  0  0  0  0  0  0  0  0  0
   14.4073   19.1549    2.5960 C   0  0  0  0  0  0  0  0  0  0  0  0
   13.1583   18.2756    2.5204 C   0  0  0  0  0  0  0  0  0  0  0  0
   12.8759   17.5567    1.3500 C   0  0  0  0  0  0  0  0  0  0  0  0
   11.7711   16.6890    1.2716 C   0  0  0  0  0  0  0  0  0  0  0  0
   10.8923   16.5069    2.3529 C   0  0  0  0  0  0  0  0  0  0  0  0
    9.8534   15.4574    2.2822 C   0  0  0  0  0  0  0  0  0  0  0  0
    8.7036   15.2548    3.0969 C   0  0  0  0  0  0  0  0  0  0  0  0
    8.1711   14.0474    2.7047 C   0  0  0  0  0  0  0  0  0  0  0  0
    8.9685   13.6008    1.6997 N   0  0  0  0  0  0  0  0  0  0  0  0
    8.8301   12.3652    0.9676 C   0  0  0  0  0  0  0  0  0  0  0  0
    9.9932   14.4265    1.4272 N   0  0  0  0  0  0  0  0  0  0  0  0
   11.1459   17.2594    3.5108 C   0  0  0  0  0  0  0  0  0  0  0  0
   12.2676   18.1229    3.5960 C   0  0  0  0  0  0  0  0  0  0  0  0
   16.6266   16.3645    1.6275 C   0  0  0  0  0  0  0  0  0  0  0  0
   16.9241   15.0257    1.5201 C   0  0  0  0  0  0  0  0  0  0  0  0
   18.1870   14.6083    1.9115 C   0  0  0  0  0  0  0  0  0  0  0  0
   18.7418   13.3383    2.0589 C   0  0  0  0  0  0  0  0  0  0  0  0
   20.0091   13.3927    2.4280 N   0  0  0  0  0  0  0  0  0  0  0  0
   20.3033   14.7121    2.4132 N   0  0  0  0  0  0  0  0  0  0  0  0
   21.7079   15.0280    2.5104 C   0  0  0  0  0  0  0  0  0  0  0  0
   19.1921   15.5287    2.2365 C   0  0  0  0  0  0  0  0  0  0  0  0
  1  2  1  0
  2  3  2  0
  3  4  1  0
  4  5  1  1
  4  6  1  0
  6  7  1  0
  7  8  1  0
  8  9  2  0
  9 10  1  0
 10 11  2  0
 11 12  1  0
 12 13  1  0
 13 14  2  0
 14 15  1  0
 15 16  1  0
 15 17  1  0
 11 18  1  0
 18 19  2  0
  3 20  1  0
 20 21  2  0
 21 22  1  0
 22 23  1  0
 23 24  2  0
 24 25  1  0
 25 26  1  0
 25 27  1  0
 27  2  1  0
 19  8  1  0
 27 22  2  0
 17 12  2  0
M  END
>  <energy_score>  (195) 
-21.773343

>  <inchikey>  (195) 
None

>  <smiles>  (195) 
None

>  <ref_pdb>  (195) 
A0486a

>  <alias>  (195) 
None

>  <HIPPO Pose ID>  (195) 
497839

>  <name>  (195) 
P497839

>  <HIPPO Compound ID>  (195) 
289746

>  <ref_mols>  (195) 
A0486a,A0717a

>  <distance_score>  (195) 
1.806936

>  <inspiration_score>  (195) 
None

$$$$
P497840
     RDKit          3D

 27 30  0  0  0  0  0  0  0  0999 V2000
   10.6780   14.3543   -0.2953 C   0  0  0  0  0  0  0  0  0  0  0  0
    9.9093   14.4608    0.9242 N   0  0  0  0  0  0  0  0  0  0  0  0
    8.8704   13.6234    1.0956 N   0  0  0  0  0  0  0  0  0  0  0  0
    8.3301   14.0145    2.2478 C   0  0  0  0  0  0  0  0  0  0  0  0
    9.0238   15.1008    2.8142 C   0  0  0  0  0  0  0  0  0  0  0  0
   10.1145   15.3202    1.9847 C   0  0  0  0  0  0  0  0  0  0  0  0
   11.3322   16.1235    2.1869 C   0  0  0  0  0  0  0  0  0  0  0  0
   12.5847   15.4834    2.1651 C   0  0  0  0  0  0  0  0  0  0  0  0
   13.7730   16.1703    2.4577 C   0  0  0  0  0  0  0  0  0  0  0  0
   13.7689   17.5389    2.7490 C   0  0  0  0  0  0  0  0  0  0  0  0
   15.0750   18.2503    3.1007 C   0  0  0  0  0  0  0  0  0  0  0  0
   15.7172   18.9125    1.9609 N   0  0  0  0  0  0  0  0  0  0  0  0
   17.1816   18.7839    1.9115 C   0  0  2  0  0  0  0  0  0  0  0  0
   17.6038   19.5968    0.8418 O   0  0  0  0  0  0  0  0  0  0  0  0
   17.7382   17.3790    1.6701 C   0  0  0  0  0  0  0  0  0  0  0  0
   16.9311   16.4935    0.9476 C   0  0  0  0  0  0  0  0  0  0  0  0
   17.1370   15.1257    0.9864 C   0  0  0  0  0  0  0  0  0  0  0  0
   18.2351   14.6342    1.6853 C   0  0  0  0  0  0  0  0  0  0  0  0
   18.6364   13.3465    2.0530 C   0  0  0  0  0  0  0  0  0  0  0  0
   19.8104   13.3528    2.6673 N   0  0  0  0  0  0  0  0  0  0  0  0
   20.2348   14.6337    2.5320 N   0  0  0  0  0  0  0  0  0  0  0  0
   21.6658   14.8313    2.5890 C   0  0  0  0  0  0  0  0  0  0  0  0
   19.2171   15.5045    2.1725 C   0  0  0  0  0  0  0  0  0  0  0  0
   18.9895   16.9084    2.1680 C   0  0  0  0  0  0  0  0  0  0  0  0
   20.2404   18.1363    2.8830 Br  0  0  0  0  0  0  0  0  0  0  0  0
   12.5246   18.1921    2.7389 C   0  0  0  0  0  0  0  0  0  0  0  0
   11.3201   17.4899    2.4797 C   0  0  0  0  0  0  0  0  0  0  0  0
  1  2  1  0
  2  3  1  0
  3  4  2  0
  4  5  1  0
  5  6  2  0
  6  7  1  0
  7  8  2  0
  8  9  1  0
  9 10  2  0
 10 11  1  0
 11 12  1  0
 12 13  1  0
 13 14  1  6
 13 15  1  0
 15 16  2  0
 16 17  1  0
 17 18  2  0
 18 19  1  0
 19 20  2  0
 20 21  1  0
 21 22  1  0
 21 23  1  0
 23 24  2  0
 24 25  1  0
 10 26  1  0
 26 27  2  0
  6  2  1  0
 27  7  1  0
 24 15  1  0
 23 18  1  0
M  END
>  <energy_score>  (196) 
-45.655343

>  <inchikey>  (196) 
None

>  <smiles>  (196) 
None

>  <ref_pdb>  (196) 
A0486a

>  <alias>  (196) 
None

>  <HIPPO Pose ID>  (196) 
497840

>  <name>  (196) 
P497840

>  <HIPPO Compound ID>  (196) 
289747

>  <ref_mols>  (196) 
A0486a,A0717a

>  <distance_score>  (196) 
1.876252

>  <inspiration_score>  (196) 
None

$$$$
P497841
     RDKit          3D

 27 30  0  0  0  0  0  0  0  0999 V2000
   10.3259   13.6260   -0.3587 C   0  0  0  0  0  0  0  0  0  0  0  0
    9.7061   13.9571    0.9052 N   0  0  0  0  0  0  0  0  0  0  0  0
    8.7236   13.1588    1.3561 N   0  0  0  0  0  0  0  0  0  0  0  0
    8.2909   13.7711    2.4555 C   0  0  0  0  0  0  0  0  0  0  0  0
    9.0031   14.9580    2.7133 C   0  0  0  0  0  0  0  0  0  0  0  0
    9.9930   15.0154    1.7448 C   0  0  0  0  0  0  0  0  0  0  0  0
   11.1393   15.9164    1.5672 C   0  0  0  0  0  0  0  0  0  0  0  0
   12.4327   15.3857    1.4094 C   0  0  0  0  0  0  0  0  0  0  0  0
   13.5467   16.2072    1.1558 C   0  0  0  0  0  0  0  0  0  0  0  0
   13.4133   17.5968    1.0540 C   0  0  0  0  0  0  0  0  0  0  0  0
   14.6134   18.5279    0.8505 C   0  0  0  0  0  0  0  0  0  0  0  0
   15.7475   17.9084    0.1402 N   0  0  0  0  0  0  0  0  0  0  0  0
   17.1007   18.3109    0.5721 C   0  0  1  0  0  0  0  0  0  0  0  0
   17.1120   19.6155    1.1153 O   0  0  0  0  0  0  0  0  0  0  0  0
   17.7209   17.2865    1.5335 C   0  0  0  0  0  0  0  0  0  0  0  0
   16.9039   16.9025    2.6055 C   0  0  0  0  0  0  0  0  0  0  0  0
   17.1065   15.7201    3.2905 C   0  0  0  0  0  0  0  0  0  0  0  0
   18.2243   14.9557    2.9733 C   0  0  0  0  0  0  0  0  0  0  0  0
   18.6646   13.6882    3.3631 C   0  0  0  0  0  0  0  0  0  0  0  0
   19.8537   13.3912    2.8617 N   0  0  0  0  0  0  0  0  0  0  0  0
   20.2310   14.5317    2.2423 N   0  0  0  0  0  0  0  0  0  0  0  0
   21.6297   14.6656    1.9079 C   0  0  0  0  0  0  0  0  0  0  0  0
   19.2014   15.4469    2.1051 C   0  0  0  0  0  0  0  0  0  0  0  0
   18.9672   16.6226    1.3484 C   0  0  0  0  0  0  0  0  0  0  0  0
   20.2192   17.2110    0.0566 Br  0  0  0  0  0  0  0  0  0  0  0  0
   12.1246   18.1303    1.2534 C   0  0  0  0  0  0  0  0  0  0  0  0
   11.0045   17.3045    1.5043 C   0  0  0  0  0  0  0  0  0  0  0  0
  1  2  1  0
  2  3  1  0
  3  4  2  0
  4  5  1  0
  5  6  2  0
  6  7  1  0
  7  8  2  0
  8  9  1  0
  9 10  2  0
 10 11  1  0
 11 12  1  0
 12 13  1  0
 13 14  1  1
 13 15  1  0
 15 16  2  0
 16 17  1  0
 17 18  2  0
 18 19  1  0
 19 20  2  0
 20 21  1  0
 21 22  1  0
 21 23  1  0
 23 24  2  0
 24 25  1  0
 10 26  1  0
 26 27  2  0
  6  2  1  0
 27  7  1  0
 24 15  1  0
 23 18  1  0
M  END
>  <energy_score>  (197) 
-58.480608

>  <inchikey>  (197) 
None

>  <smiles>  (197) 
None

>  <ref_pdb>  (197) 
A0486a

>  <alias>  (197) 
None

>  <HIPPO Pose ID>  (197) 
497841

>  <name>  (197) 
P497841

>  <HIPPO Compound ID>  (197) 
289747

>  <ref_mols>  (197) 
A0486a,A0717a

>  <distance_score>  (197) 
1.787869

>  <inspiration_score>  (197) 
None

$$$$
P497842
     RDKit          3D

 27 30  0  0  0  0  0  0  0  0999 V2000
    8.7979   12.3007    0.9766 C   0  0  0  0  0  0  0  0  0  0  0  0
    8.9133   13.5391    1.7079 N   0  0  0  0  0  0  0  0  0  0  0  0
    8.1210   13.9628    2.7268 C   0  0  0  0  0  0  0  0  0  0  0  0
    8.6359   15.1770    3.1215 C   0  0  0  0  0  0  0  0  0  0  0  0
    9.7689   15.4083    2.2915 C   0  0  0  0  0  0  0  0  0  0  0  0
   10.7957   16.4690    2.3627 C   0  0  0  0  0  0  0  0  0  0  0  0
   11.0396   17.2227    3.5222 C   0  0  0  0  0  0  0  0  0  0  0  0
   12.1611   18.0838    3.6161 C   0  0  0  0  0  0  0  0  0  0  0  0
   13.0597   18.2300    2.5474 C   0  0  0  0  0  0  0  0  0  0  0  0
   14.3267   19.0861    2.6306 C   0  0  0  0  0  0  0  0  0  0  0  0
   15.4851   18.2348    2.8477 N   0  0  0  0  0  0  0  0  0  0  0  0
   16.7991   18.6074    2.3155 C   0  0  2  0  0  0  0  0  0  0  0  0
   16.6851   19.4391    1.1778 O   0  0  0  0  0  0  0  0  0  0  0  0
   17.5325   17.3050    1.9368 C   0  0  0  0  0  0  0  0  0  0  0  0
   16.7238   16.3850    1.2483 C   0  0  0  0  0  0  0  0  0  0  0  0
   17.0458   15.0474    1.1673 C   0  0  0  0  0  0  0  0  0  0  0  0
   18.2449   14.6246    1.7289 C   0  0  0  0  0  0  0  0  0  0  0  0
   18.7763   13.3560    1.9670 C   0  0  0  0  0  0  0  0  0  0  0  0
   19.9855   13.4221    2.4998 N   0  0  0  0  0  0  0  0  0  0  0  0
   20.2902   14.7394    2.4552 N   0  0  0  0  0  0  0  0  0  0  0  0
   21.6994   15.0478    2.5211 C   0  0  0  0  0  0  0  0  0  0  0  0
   19.1896   15.5460    2.2033 C   0  0  0  0  0  0  0  0  0  0  0  0
   18.8526   16.9267    2.3033 C   0  0  0  0  0  0  0  0  0  0  0  0
   20.0404   18.2257    2.9909 Br  0  0  0  0  0  0  0  0  0  0  0  0
   12.7833   17.5162    1.3724 C   0  0  0  0  0  0  0  0  0  0  0  0
   11.6784   16.6525    1.2849 C   0  0  0  0  0  0  0  0  0  0  0  0
    9.9095   14.3926    1.4192 N   0  0  0  0  0  0  0  0  0  0  0  0
  1  2  1  0
  2  3  1  0
  3  4  2  0
  4  5  1  0
  5  6  1  0
  6  7  2  0
  7  8  1  0
  8  9  2  0
  9 10  1  0
 10 11  1  0
 11 12  1  0
 12 13  1  6
 12 14  1  0
 14 15  2  0
 15 16  1  0
 16 17  2  0
 17 18  1  0
 18 19  2  0
 19 20  1  0
 20 21  1  0
 20 22  1  0
 22 23  2  0
 23 24  1  0
  9 25  1  0
 25 26  2  0
  5 27  2  0
 27  2  1  0
 26  6  1  0
 23 14  1  0
 22 17  1  0
M  END
>  <energy_score>  (198) 
-27.3569

>  <inchikey>  (198) 
None

>  <smiles>  (198) 
None

>  <ref_pdb>  (198) 
A0486a

>  <alias>  (198) 
None

>  <HIPPO Pose ID>  (198) 
497842

>  <name>  (198) 
P497842

>  <HIPPO Compound ID>  (198) 
289748

>  <ref_mols>  (198) 
A0486a,A0717a

>  <distance_score>  (198) 
1.769712

>  <inspiration_score>  (198) 
None

$$$$
P497843
     RDKit          3D

 27 30  0  0  0  0  0  0  0  0999 V2000
   19.5590   18.3441    0.6438 C   0  0  0  0  0  0  0  0  0  0  0  0
   18.8690   17.2637    1.4139 C   0  0  0  0  0  0  0  0  0  0  0  0
   17.4888   17.3420    1.8072 C   0  0  0  0  0  0  0  0  0  0  0  0
   16.6373   18.5760    1.4592 C   0  0  2  0  0  0  0  0  0  0  0  0
   17.0654   19.6378    2.2892 O   0  0  0  0  0  0  0  0  0  0  0  0
   15.2116   18.4286    1.7293 N   0  0  0  0  0  0  0  0  0  0  0  0
   14.4871   17.8485    0.5978 C   0  0  0  0  0  0  0  0  0  0  0  0
   13.2362   17.1070    1.0337 C   0  0  0  0  0  0  0  0  0  0  0  0
   12.0158   17.7585    1.2793 C   0  0  0  0  0  0  0  0  0  0  0  0
   10.8476   17.0293    1.5880 C   0  0  0  0  0  0  0  0  0  0  0  0
   10.8784   15.6348    1.6526 C   0  0  0  0  0  0  0  0  0  0  0  0
    9.6800   14.8175    1.8457 C   0  0  0  0  0  0  0  0  0  0  0  0
    8.7704   14.7418    2.8859 C   0  0  0  0  0  0  0  0  0  0  0  0
    7.9825   13.6088    2.6096 C   0  0  0  0  0  0  0  0  0  0  0  0
    8.2854   13.0608    1.4348 N   0  0  0  0  0  0  0  0  0  0  0  0
    9.2815   13.8307    0.9675 N   0  0  0  0  0  0  0  0  0  0  0  0
    9.8101   13.5389   -0.3462 C   0  0  0  0  0  0  0  0  0  0  0  0
   12.1152   14.9934    1.4674 C   0  0  0  0  0  0  0  0  0  0  0  0
   13.2745   15.7145    1.1658 C   0  0  0  0  0  0  0  0  0  0  0  0
   16.8666   16.2920    2.5822 C   0  0  0  0  0  0  0  0  0  0  0  0
   17.4814   15.1008    2.9973 C   0  0  0  0  0  0  0  0  0  0  0  0
   18.8004   15.0843    2.6012 C   0  0  0  0  0  0  0  0  0  0  0  0
   19.7083   14.1364    2.9756 C   0  0  0  0  0  0  0  0  0  0  0  0
   20.8948   14.5706    2.4686 N   0  0  0  0  0  0  0  0  0  0  0  0
   22.2040   14.0097    2.7040 C   0  0  0  0  0  0  0  0  0  0  0  0
   20.7905   15.6998    1.7487 N   0  0  0  0  0  0  0  0  0  0  0  0
   19.5082   16.0826    1.8628 C   0  0  0  0  0  0  0  0  0  0  0  0
  1  2  1  0
  2  3  2  0
  3  4  1  0
  4  5  1  1
  4  6  1  0
  6  7  1  0
  7  8  1  0
  8  9  2  0
  9 10  1  0
 10 11  2  0
 11 12  1  0
 12 13  2  0
 13 14  1  0
 14 15  2  0
 15 16  1  0
 16 17  1  0
 11 18  1  0
 18 19  2  0
  3 20  1  0
 20 21  2  0
 21 22  1  0
 22 23  2  0
 23 24  1  0
 24 25  1  0
 24 26  1  0
 26 27  2  0
 27  2  1  0
 19  8  1  0
 27 22  1  0
 16 12  1  0
M  END
>  <energy_score>  (199) 
-47.682106

>  <inchikey>  (199) 
None

>  <smiles>  (199) 
None

>  <ref_pdb>  (199) 
A0486a

>  <alias>  (199) 
None

>  <HIPPO Pose ID>  (199) 
497843

>  <name>  (199) 
P497843

>  <HIPPO Compound ID>  (199) 
289749

>  <ref_mols>  (199) 
A0486a,A0717a

>  <distance_score>  (199) 
1.903539

>  <inspiration_score>  (199) 
None

$$$$
P497844
     RDKit          3D

 27 30  0  0  0  0  0  0  0  0999 V2000
   19.3118   18.6273    3.1588 C   0  0  0  0  0  0  0  0  0  0  0  0
   18.8015   17.4115    2.4537 C   0  0  0  0  0  0  0  0  0  0  0  0
   17.4732   17.3152    1.9202 C   0  0  0  0  0  0  0  0  0  0  0  0
   16.4386   18.4270    2.1841 C   0  0  1  0  0  0  0  0  0  0  0  0
   16.7811   19.5628    1.4259 O   0  0  0  0  0  0  0  0  0  0  0  0
   15.0915   18.0474    1.8122 N   0  0  0  0  0  0  0  0  0  0  0  0
   14.0406   18.3134    2.7833 C   0  0  0  0  0  0  0  0  0  0  0  0
   12.7875   17.4867    2.5169 C   0  0  0  0  0  0  0  0  0  0  0  0
   11.5289   17.9037    2.9849 C   0  0  0  0  0  0  0  0  0  0  0  0
   10.3811   17.1000    2.8213 C   0  0  0  0  0  0  0  0  0  0  0  0
   10.4648   15.8642    2.1773 C   0  0  0  0  0  0  0  0  0  0  0  0
    9.3401   14.9314    2.0854 C   0  0  0  0  0  0  0  0  0  0  0  0
    8.5039   14.4291    3.0698 C   0  0  0  0  0  0  0  0  0  0  0  0
    7.8472   13.3350    2.4787 C   0  0  0  0  0  0  0  0  0  0  0  0
    8.1521   13.2055    1.1886 N   0  0  0  0  0  0  0  0  0  0  0  0
    8.9994   14.2225    0.9533 N   0  0  0  0  0  0  0  0  0  0  0  0
    9.4428   14.4387   -0.4054 C   0  0  0  0  0  0  0  0  0  0  0  0
   11.7232   15.4476    1.7138 C   0  0  0  0  0  0  0  0  0  0  0  0
   12.8626   16.2364    1.8910 C   0  0  0  0  0  0  0  0  0  0  0  0
   17.0470   16.1442    1.1849 C   0  0  0  0  0  0  0  0  0  0  0  0
   17.7946   14.9690    0.9952 C   0  0  0  0  0  0  0  0  0  0  0  0
   19.0315   15.0914    1.5872 C   0  0  0  0  0  0  0  0  0  0  0  0
   19.9964   14.1237    1.5944 C   0  0  0  0  0  0  0  0  0  0  0  0
   21.0308   14.6770    2.2851 N   0  0  0  0  0  0  0  0  0  0  0  0
   22.2898   14.0547    2.6191 C   0  0  0  0  0  0  0  0  0  0  0  0
   20.8098   15.9482    2.6584 N   0  0  0  0  0  0  0  0  0  0  0  0
   19.5579   16.2294    2.2706 C   0  0  0  0  0  0  0  0  0  0  0  0
  1  2  1  0
  2  3  2  0
  3  4  1  0
  4  5  1  6
  4  6  1  0
  6  7  1  0
  7  8  1  0
  8  9  2  0
  9 10  1  0
 10 11  2  0
 11 12  1  0
 12 13  2  0
 13 14  1  0
 14 15  2  0
 15 16  1  0
 16 17  1  0
 11 18  1  0
 18 19  2  0
  3 20  1  0
 20 21  2  0
 21 22  1  0
 22 23  2  0
 23 24  1  0
 24 25  1  0
 24 26  1  0
 26 27  2  0
 27  2  1  0
 19  8  1  0
 27 22  1  0
 16 12  1  0
M  END
>  <energy_score>  (200) 
-25.811703

>  <inchikey>  (200) 
None

>  <smiles>  (200) 
None

>  <ref_pdb>  (200) 
A0486a

>  <alias>  (200) 
None

>  <HIPPO Pose ID>  (200) 
497844

>  <name>  (200) 
P497844

>  <HIPPO Compound ID>  (200) 
289749

>  <ref_mols>  (200) 
A0486a,A0717a

>  <distance_score>  (200) 
1.777038

>  <inspiration_score>  (200) 
None

$$$$
P497845
     RDKit          3D

 27 30  0  0  0  0  0  0  0  0999 V2000
   19.5246   18.2837    0.5624 C   0  0  0  0  0  0  0  0  0  0  0  0
   18.8428   17.2193    1.3616 C   0  0  0  0  0  0  0  0  0  0  0  0
   17.4647   17.3015    1.7628 C   0  0  0  0  0  0  0  0  0  0  0  0
   16.6076   18.5263    1.3930 C   0  0  2  0  0  0  0  0  0  0  0  0
   17.0311   19.6303    2.1711 O   0  0  0  0  0  0  0  0  0  0  0  0
   15.1813   18.3802    1.6762 N   0  0  0  0  0  0  0  0  0  0  0  0
   14.4515   17.7898    0.5502 C   0  0  0  0  0  0  0  0  0  0  0  0
   13.1724   17.0700    0.9517 C   0  0  0  0  0  0  0  0  0  0  0  0
   12.2885   17.5250    1.9438 C   0  0  0  0  0  0  0  0  0  0  0  0
   11.1076   16.8134    2.2612 C   0  0  0  0  0  0  0  0  0  0  0  0
   10.7769   15.6315    1.5863 C   0  0  0  0  0  0  0  0  0  0  0  0
    9.6380   14.7734    1.9503 C   0  0  0  0  0  0  0  0  0  0  0  0
    8.5921   14.9880    2.8874 C   0  0  0  0  0  0  0  0  0  0  0  0
    7.8928   13.8046    2.9435 C   0  0  0  0  0  0  0  0  0  0  0  0
    8.5079   12.9679    2.0685 N   0  0  0  0  0  0  0  0  0  0  0  0
    8.1821   11.5848    1.8174 C   0  0  0  0  0  0  0  0  0  0  0  0
    9.5410   13.5363    1.4312 N   0  0  0  0  0  0  0  0  0  0  0  0
   11.6470   15.2077    0.5663 C   0  0  0  0  0  0  0  0  0  0  0  0
   12.8158   15.9107    0.2520 C   0  0  0  0  0  0  0  0  0  0  0  0
   16.8487   16.2650    2.5599 C   0  0  0  0  0  0  0  0  0  0  0  0
   17.4732   15.0882    3.0015 C   0  0  0  0  0  0  0  0  0  0  0  0
   18.7898   15.0666    2.5968 C   0  0  0  0  0  0  0  0  0  0  0  0
   19.7036   14.1305    2.9866 C   0  0  0  0  0  0  0  0  0  0  0  0
   20.8860   14.5614    2.4669 N   0  0  0  0  0  0  0  0  0  0  0  0
   22.2006   14.0215    2.7196 C   0  0  0  0  0  0  0  0  0  0  0  0
   20.7689   15.6625    1.7058 N   0  0  0  0  0  0  0  0  0  0  0  0
   19.4886   16.0490    1.8294 C   0  0  0  0  0  0  0  0  0  0  0  0
  1  2  1  0
  2  3  2  0
  3  4  1  0
  4  5  1  1
  4  6  1  0
  6  7  1  0
  7  8  1  0
  8  9  2  0
  9 10  1  0
 10 11  2  0
 11 12  1  0
 12 13  1  0
 13 14  2  0
 14 15  1  0
 15 16  1  0
 15 17  1  0
 11 18  1  0
 18 19  2  0
  3 20  1  0
 20 21  2  0
 21 22  1  0
 22 23  2  0
 23 24  1  0
 24 25  1  0
 24 26  1  0
 26 27  2  0
 27  2  1  0
 19  8  1  0
 27 22  1  0
 17 12  2  0
M  END
>  <energy_score>  (201) 
-50.066088

>  <inchikey>  (201) 
None

>  <smiles>  (201) 
None

>  <ref_pdb>  (201) 
A0486a

>  <alias>  (201) 
None

>  <HIPPO Pose ID>  (201) 
497845

>  <name>  (201) 
P497845

>  <HIPPO Compound ID>  (201) 
289750

>  <ref_mols>  (201) 
A0486a,A0717a

>  <distance_score>  (201) 
1.978916

>  <inspiration_score>  (201) 
None

$$$$
P497846
     RDKit          3D

 27 30  0  0  0  0  0  0  0  0999 V2000
   19.6203   18.3358    0.6313 C   0  0  0  0  0  0  0  0  0  0  0  0
   18.8954   17.2720    1.3916 C   0  0  0  0  0  0  0  0  0  0  0  0
   17.4980   17.3450    1.7293 C   0  0  0  0  0  0  0  0  0  0  0  0
   16.6364   18.5737    1.3635 C   0  0  1  0  0  0  0  0  0  0  0  0
   16.8675   18.9944    0.0365 O   0  0  0  0  0  0  0  0  0  0  0  0
   15.1930   18.4286    1.5822 N   0  0  0  0  0  0  0  0  0  0  0  0
   14.5208   17.6639    0.5233 C   0  0  0  0  0  0  0  0  0  0  0  0
   13.1968   17.0283    0.9280 C   0  0  0  0  0  0  0  0  0  0  0  0
   12.4288   17.3966    2.0439 C   0  0  0  0  0  0  0  0  0  0  0  0
   11.2257   16.7239    2.3627 C   0  0  0  0  0  0  0  0  0  0  0  0
   10.7644   15.6614    1.5743 C   0  0  0  0  0  0  0  0  0  0  0  0
    9.6325   14.8016    1.9516 C   0  0  0  0  0  0  0  0  0  0  0  0
    8.6101   15.0020    2.9167 C   0  0  0  0  0  0  0  0  0  0  0  0
    7.9126   13.8173    2.9715 C   0  0  0  0  0  0  0  0  0  0  0  0
    8.5073   12.9936    2.0698 N   0  0  0  0  0  0  0  0  0  0  0  0
    8.1759   11.6144    1.8048 C   0  0  0  0  0  0  0  0  0  0  0  0
    9.5253   13.5719    1.4177 N   0  0  0  0  0  0  0  0  0  0  0  0
   11.5102   15.3363    0.4289 C   0  0  0  0  0  0  0  0  0  0  0  0
   12.6961   16.0069    0.1088 C   0  0  0  0  0  0  0  0  0  0  0  0
   16.8640   16.3011    2.5063 C   0  0  0  0  0  0  0  0  0  0  0  0
   17.4720   15.1165    2.9533 C   0  0  0  0  0  0  0  0  0  0  0  0
   18.7981   15.0944    2.5829 C   0  0  0  0  0  0  0  0  0  0  0  0
   19.6958   14.1427    2.9729 C   0  0  0  0  0  0  0  0  0  0  0  0
   20.8919   14.5710    2.4833 N   0  0  0  0  0  0  0  0  0  0  0  0
   22.1950   14.0023    2.7324 C   0  0  0  0  0  0  0  0  0  0  0  0
   20.8053   15.7028    1.7666 N   0  0  0  0  0  0  0  0  0  0  0  0
   19.5213   16.0884    1.8551 C   0  0  0  0  0  0  0  0  0  0  0  0
  1  2  1  0
  2  3  2  0
  3  4  1  0
  4  5  1  6
  4  6  1  0
  6  7  1  0
  7  8  1  0
  8  9  2  0
  9 10  1  0
 10 11  2  0
 11 12  1  0
 12 13  1  0
 13 14  2  0
 14 15  1  0
 15 16  1  0
 15 17  1  0
 11 18  1  0
 18 19  2  0
  3 20  1  0
 20 21  2  0
 21 22  1  0
 22 23  2  0
 23 24  1  0
 24 25  1  0
 24 26  1  0
 26 27  2  0
 27  2  1  0
 19  8  1  0
 27 22  1  0
 17 12  2  0
M  END
>  <energy_score>  (202) 
-19.254191

>  <inchikey>  (202) 
None

>  <smiles>  (202) 
None

>  <ref_pdb>  (202) 
A0486a

>  <alias>  (202) 
None

>  <HIPPO Pose ID>  (202) 
497846

>  <name>  (202) 
P497846

>  <HIPPO Compound ID>  (202) 
289750

>  <ref_mols>  (202) 
A0486a,A0717a

>  <distance_score>  (202) 
1.971263

>  <inspiration_score>  (202) 
None

$$$$
P497847
     RDKit          3D

 27 30  0  0  0  0  0  0  0  0999 V2000
   16.6562   20.4448    3.9700 C   0  0  0  0  0  0  0  0  0  0  0  0
   16.9936   19.0728    3.8260 O   0  0  0  0  0  0  0  0  0  0  0  0
   16.4719   18.5005    2.6247 C   0  0  2  0  0  0  0  0  0  0  0  0
   15.0902   18.0918    2.9008 N   0  0  0  0  0  0  0  0  0  0  0  0
   14.1650   18.4053    1.8162 C   0  0  0  0  0  0  0  0  0  0  0  0
   12.8970   17.5729    1.8804 C   0  0  0  0  0  0  0  0  0  0  0  0
   11.9408   17.7393    2.8950 C   0  0  0  0  0  0  0  0  0  0  0  0
   10.7885   16.9271    2.9540 C   0  0  0  0  0  0  0  0  0  0  0  0
   10.5725   15.9184    2.0052 C   0  0  0  0  0  0  0  0  0  0  0  0
    9.5025   14.9132    2.1268 C   0  0  0  0  0  0  0  0  0  0  0  0
    8.4427   14.8195    3.0701 C   0  0  0  0  0  0  0  0  0  0  0  0
    7.8626   13.5899    2.8587 C   0  0  0  0  0  0  0  0  0  0  0  0
    8.5535   13.0266    1.8341 N   0  0  0  0  0  0  0  0  0  0  0  0
    8.3677   11.7052    1.2863 C   0  0  0  0  0  0  0  0  0  0  0  0
    9.5152   13.8204    1.3424 N   0  0  0  0  0  0  0  0  0  0  0  0
   11.5183   15.7866    0.9724 C   0  0  0  0  0  0  0  0  0  0  0  0
   12.6589   16.5953    0.9090 C   0  0  0  0  0  0  0  0  0  0  0  0
   17.4113   17.3332    2.2382 C   0  0  0  0  0  0  0  0  0  0  0  0
   16.8878   16.1880    1.5354 C   0  0  0  0  0  0  0  0  0  0  0  0
   17.6040   15.0057    1.2465 C   0  0  0  0  0  0  0  0  0  0  0  0
   18.9053   15.0960    1.7026 C   0  0  0  0  0  0  0  0  0  0  0  0
   19.8557   14.1156    1.6267 C   0  0  0  0  0  0  0  0  0  0  0  0
   20.9551   14.6533    2.2299 N   0  0  0  0  0  0  0  0  0  0  0  0
   22.2227   14.0119    2.4852 C   0  0  0  0  0  0  0  0  0  0  0  0
   20.7914   15.9318    2.6050 N   0  0  0  0  0  0  0  0  0  0  0  0
   19.5136   16.2207    2.3341 C   0  0  0  0  0  0  0  0  0  0  0  0
   18.7893   17.3942    2.5931 C   0  0  0  0  0  0  0  0  0  0  0  0
  1  2  1  0
  2  3  1  0
  3  4  1  1
  4  5  1  0
  5  6  1  0
  6  7  2  0
  7  8  1  0
  8  9  2  0
  9 10  1  0
 10 11  1  0
 11 12  2  0
 12 13  1  0
 13 14  1  0
 13 15  1  0
  9 16  1  0
 16 17  2  0
  3 18  1  0
 18 19  1  0
 19 20  2  0
 20 21  1  0
 21 22  2  0
 22 23  1  0
 23 24  1  0
 23 25  1  0
 25 26  2  0
 26 27  1  0
 17  6  1  0
 27 18  2  0
 15 10  2  0
 26 21  1  0
M  END
>  <energy_score>  (203) 
-36.699117

>  <inchikey>  (203) 
None

>  <smiles>  (203) 
None

>  <ref_pdb>  (203) 
A0486a

>  <alias>  (203) 
None

>  <HIPPO Pose ID>  (203) 
497847

>  <name>  (203) 
P497847

>  <HIPPO Compound ID>  (203) 
289751

>  <ref_mols>  (203) 
A0486a,A0717a

>  <distance_score>  (203) 
1.871874

>  <inspiration_score>  (203) 
None

$$$$
P497848
     RDKit          3D

 27 30  0  0  0  0  0  0  0  0999 V2000
   16.8126   20.1166   -0.6199 C   0  0  0  0  0  0  0  0  0  0  0  0
   17.1967   18.7996   -0.2532 O   0  0  0  0  0  0  0  0  0  0  0  0
   16.5873   18.3623    0.9605 C   0  0  1  0  0  0  0  0  0  0  0  0
   15.2105   17.9533    0.6642 N   0  0  0  0  0  0  0  0  0  0  0  0
   14.2189   18.4185    1.6351 C   0  0  0  0  0  0  0  0  0  0  0  0
   12.9254   17.6112    1.6628 C   0  0  0  0  0  0  0  0  0  0  0  0
   12.0916   17.6678    2.7964 C   0  0  0  0  0  0  0  0  0  0  0  0
   10.9313   16.8746    2.9018 C   0  0  0  0  0  0  0  0  0  0  0  0
   10.5799   15.9875    1.8784 C   0  0  0  0  0  0  0  0  0  0  0  0
    9.5406   14.9586    2.0426 C   0  0  0  0  0  0  0  0  0  0  0  0
    8.5014   14.8566    3.0077 C   0  0  0  0  0  0  0  0  0  0  0  0
    7.9432   13.6123    2.8245 C   0  0  0  0  0  0  0  0  0  0  0  0
    8.6276   13.0480    1.7955 N   0  0  0  0  0  0  0  0  0  0  0  0
    8.4558   11.7173    1.2657 C   0  0  0  0  0  0  0  0  0  0  0  0
    9.5691   13.8515    1.2802 N   0  0  0  0  0  0  0  0  0  0  0  0
   11.3652   16.0003    0.7121 C   0  0  0  0  0  0  0  0  0  0  0  0
   12.5069   16.8085    0.5969 C   0  0  0  0  0  0  0  0  0  0  0  0
   17.4529   17.2137    1.5346 C   0  0  0  0  0  0  0  0  0  0  0  0
   16.8400   16.2609    2.4294 C   0  0  0  0  0  0  0  0  0  0  0  0
   17.4720   15.1304    2.9826 C   0  0  0  0  0  0  0  0  0  0  0  0
   18.7941   15.0717    2.5901 C   0  0  0  0  0  0  0  0  0  0  0  0
   19.7044   14.1472    3.0158 C   0  0  0  0  0  0  0  0  0  0  0  0
   20.8879   14.5477    2.4704 N   0  0  0  0  0  0  0  0  0  0  0  0
   22.2006   14.0083    2.7332 C   0  0  0  0  0  0  0  0  0  0  0  0
   20.7763   15.6182    1.6661 N   0  0  0  0  0  0  0  0  0  0  0  0
   19.4927   15.9957    1.7553 C   0  0  0  0  0  0  0  0  0  0  0  0
   18.8351   17.1065    1.1982 C   0  0  0  0  0  0  0  0  0  0  0  0
  1  2  1  0
  2  3  1  0
  3  4  1  6
  4  5  1  0
  5  6  1  0
  6  7  2  0
  7  8  1  0
  8  9  2  0
  9 10  1  0
 10 11  1  0
 11 12  2  0
 12 13  1  0
 13 14  1  0
 13 15  1  0
  9 16  1  0
 16 17  2  0
  3 18  1  0
 18 19  1  0
 19 20  2  0
 20 21  1  0
 21 22  2  0
 22 23  1  0
 23 24  1  0
 23 25  1  0
 25 26  2  0
 26 27  1  0
 17  6  1  0
 27 18  2  0
 15 10  2  0
 26 21  1  0
M  END
>  <energy_score>  (204) 
-27.300646

>  <inchikey>  (204) 
None

>  <smiles>  (204) 
None

>  <ref_pdb>  (204) 
A0486a

>  <alias>  (204) 
None

>  <HIPPO Pose ID>  (204) 
497848

>  <name>  (204) 
P497848

>  <HIPPO Compound ID>  (204) 
289751

>  <ref_mols>  (204) 
A0486a,A0717a

>  <distance_score>  (204) 
1.883155

>  <inspiration_score>  (204) 
None

$$$$
P497849
     RDKit          3D

 27 30  0  0  0  0  0  0  0  0999 V2000
   17.0596   19.0389    4.7119 C   0  0  0  0  0  0  0  0  0  0  0  0
   16.2764   17.9285    4.2892 O   0  0  0  0  0  0  0  0  0  0  0  0
   16.2015   17.8105    2.8708 C   0  0  2  0  0  0  0  0  0  0  0  0
   15.0156   17.0472    2.4951 N   0  0  0  0  0  0  0  0  0  0  0  0
   13.7857   17.7870    2.8049 C   0  0  0  0  0  0  0  0  0  0  0  0
   12.5167   16.9961    2.5368 C   0  0  0  0  0  0  0  0  0  0  0  0
   12.4859   15.8989    1.6707 C   0  0  0  0  0  0  0  0  0  0  0  0
   11.3091   15.1738    1.4855 C   0  0  0  0  0  0  0  0  0  0  0  0
   10.1207   15.5290    2.1444 C   0  0  0  0  0  0  0  0  0  0  0  0
    8.9900   14.6093    2.0811 C   0  0  0  0  0  0  0  0  0  0  0  0
    8.2894   13.9889    3.1022 C   0  0  0  0  0  0  0  0  0  0  0  0
    7.5779   12.9482    2.4824 C   0  0  0  0  0  0  0  0  0  0  0  0
    7.7247   12.9600    1.1580 N   0  0  0  0  0  0  0  0  0  0  0  0
    8.5175   14.0210    0.9307 N   0  0  0  0  0  0  0  0  0  0  0  0
    8.7751   14.3972   -0.4405 C   0  0  0  0  0  0  0  0  0  0  0  0
   10.1277   16.6525    2.9708 C   0  0  0  0  0  0  0  0  0  0  0  0
   11.3136   17.3809    3.1593 C   0  0  0  0  0  0  0  0  0  0  0  0
   17.4697   17.1219    2.3559 C   0  0  0  0  0  0  0  0  0  0  0  0
   18.2900   17.8380    1.4219 C   0  0  0  0  0  0  0  0  0  0  0  0
   19.5317   17.3763    0.9644 C   0  0  0  0  0  0  0  0  0  0  0  0
   19.8645   16.1635    1.5437 C   0  0  0  0  0  0  0  0  0  0  0  0
   21.0887   15.5765    1.4387 C   0  0  0  0  0  0  0  0  0  0  0  0
   21.0349   14.5302    2.3119 N   0  0  0  0  0  0  0  0  0  0  0  0
   22.1945   13.8331    2.8131 C   0  0  0  0  0  0  0  0  0  0  0  0
   19.7951   14.2810    2.8029 N   0  0  0  0  0  0  0  0  0  0  0  0
   19.0841   15.3690    2.4470 C   0  0  0  0  0  0  0  0  0  0  0  0
   17.8249   15.8298    2.8545 C   0  0  0  0  0  0  0  0  0  0  0  0
  1  2  1  0
  2  3  1  0
  3  4  1  1
  4  5  1  0
  5  6  1  0
  6  7  2  0
  7  8  1  0
  8  9  2  0
  9 10  1  0
 10 11  2  0
 11 12  1  0
 12 13  2  0
 13 14  1  0
 14 15  1  0
  9 16  1  0
 16 17  2  0
  3 18  1  0
 18 19  1  0
 19 20  2  0
 20 21  1  0
 21 22  2  0
 22 23  1  0
 23 24  1  0
 23 25  1  0
 25 26  2  0
 26 27  1  0
 17  6  1  0
 27 18  2  0
 14 10  1  0
 26 21  1  0
M  END
>  <energy_score>  (205) 
-24.32923

>  <inchikey>  (205) 
None

>  <smiles>  (205) 
None

>  <ref_pdb>  (205) 
A0486a

>  <alias>  (205) 
None

>  <HIPPO Pose ID>  (205) 
497849

>  <name>  (205) 
P497849

>  <HIPPO Compound ID>  (205) 
289752

>  <ref_mols>  (205) 
A0486a,A0717a

>  <distance_score>  (205) 
1.628087

>  <inspiration_score>  (205) 
None

$$$$
P497850
     RDKit          3D

 27 30  0  0  0  0  0  0  0  0999 V2000
   17.0110   20.2310   -0.5786 C   0  0  0  0  0  0  0  0  0  0  0  0
   17.2891   18.8782   -0.2481 O   0  0  0  0  0  0  0  0  0  0  0  0
   16.6934   18.4779    0.9852 C   0  0  1  0  0  0  0  0  0  0  0  0
   15.2910   18.1419    0.7210 N   0  0  0  0  0  0  0  0  0  0  0  0
   14.3519   18.6261    1.7328 C   0  0  0  0  0  0  0  0  0  0  0  0
   13.0393   17.8536    1.7559 C   0  0  0  0  0  0  0  0  0  0  0  0
   12.3652   17.6400    2.9683 C   0  0  0  0  0  0  0  0  0  0  0  0
   11.2024   16.8501    3.0271 C   0  0  0  0  0  0  0  0  0  0  0  0
   10.6992   16.2193    1.8823 C   0  0  0  0  0  0  0  0  0  0  0  0
    9.6882   15.1499    1.9787 C   0  0  0  0  0  0  0  0  0  0  0  0
    8.6205   14.9830    2.8493 C   0  0  0  0  0  0  0  0  0  0  0  0
    8.0821   13.7156    2.5658 C   0  0  0  0  0  0  0  0  0  0  0  0
    8.7310   13.1099    1.5768 N   0  0  0  0  0  0  0  0  0  0  0  0
    9.7226   13.9615    1.2639 N   0  0  0  0  0  0  0  0  0  0  0  0
   10.7261   13.4880    0.3349 C   0  0  0  0  0  0  0  0  0  0  0  0
   11.2866   16.5638    0.6556 C   0  0  0  0  0  0  0  0  0  0  0  0
   12.4382   17.3655    0.5908 C   0  0  0  0  0  0  0  0  0  0  0  0
   17.5178   17.2900    1.5381 C   0  0  0  0  0  0  0  0  0  0  0  0
   16.8813   16.3431    2.4226 C   0  0  0  0  0  0  0  0  0  0  0  0
   17.4860   15.1915    2.9649 C   0  0  0  0  0  0  0  0  0  0  0  0
   18.8073   15.1047    2.5733 C   0  0  0  0  0  0  0  0  0  0  0  0
   19.6984   14.1615    2.9994 C   0  0  0  0  0  0  0  0  0  0  0  0
   20.8929   14.5459    2.4654 N   0  0  0  0  0  0  0  0  0  0  0  0
   22.1974   13.9954    2.7457 C   0  0  0  0  0  0  0  0  0  0  0  0
   20.8022   15.6143    1.6556 N   0  0  0  0  0  0  0  0  0  0  0  0
   19.5274   16.0191    1.7466 C   0  0  0  0  0  0  0  0  0  0  0  0
   18.8963   17.1494    1.1986 C   0  0  0  0  0  0  0  0  0  0  0  0
  1  2  1  0
  2  3  1  0
  3  4  1  6
  4  5  1  0
  5  6  1  0
  6  7  2  0
  7  8  1  0
  8  9  2  0
  9 10  1  0
 10 11  2  0
 11 12  1  0
 12 13  2  0
 13 14  1  0
 14 15  1  0
  9 16  1  0
 16 17  2  0
  3 18  1  0
 18 19  1  0
 19 20  2  0
 20 21  1  0
 21 22  2  0
 22 23  1  0
 23 24  1  0
 23 25  1  0
 25 26  2  0
 26 27  1  0
 17  6  1  0
 27 18  2  0
 14 10  1  0
 26 21  1  0
M  END
>  <energy_score>  (206) 
-29.790094

>  <inchikey>  (206) 
None

>  <smiles>  (206) 
None

>  <ref_pdb>  (206) 
A0486a

>  <alias>  (206) 
None

>  <HIPPO Pose ID>  (206) 
497850

>  <name>  (206) 
P497850

>  <HIPPO Compound ID>  (206) 
289752

>  <ref_mols>  (206) 
A0486a,A0717a

>  <distance_score>  (206) 
1.866861

>  <inspiration_score>  (206) 
None

$$$$
P497851
     RDKit          3D

 27 30  0  0  0  0  0  0  0  0999 V2000
   22.2475   16.0008    0.7024 C   0  0  0  0  0  0  0  0  0  0  0  0
   21.0271   15.6238    1.4576 C   0  0  0  0  0  0  0  0  0  0  0  0
   19.7938   16.2046    1.5798 C   0  0  0  0  0  0  0  0  0  0  0  0
   19.4308   17.4179    1.0130 C   0  0  0  0  0  0  0  0  0  0  0  0
   18.1766   17.8506    1.4674 C   0  0  0  0  0  0  0  0  0  0  0  0
   17.3617   17.1138    2.3880 C   0  0  0  0  0  0  0  0  0  0  0  0
   16.0710   17.7719    2.8763 C   0  0  2  0  0  0  0  0  0  0  0  0
   16.1058   17.8935    4.2855 O   0  0  0  0  0  0  0  0  0  0  0  0
   14.8896   17.0241    2.5114 N   0  0  0  0  0  0  0  0  0  0  0  0
   13.6791   17.8439    2.6542 C   0  0  0  0  0  0  0  0  0  0  0  0
   12.4102   17.0414    2.4459 C   0  0  0  0  0  0  0  0  0  0  0  0
   11.2314   17.3730    3.1366 C   0  0  0  0  0  0  0  0  0  0  0  0
   10.0628   16.6116    2.9810 C   0  0  0  0  0  0  0  0  0  0  0  0
   10.0536   15.5064    2.1280 C   0  0  0  0  0  0  0  0  0  0  0  0
    8.9414   14.5620    2.0903 C   0  0  0  0  0  0  0  0  0  0  0  0
    8.2671   13.9398    3.1279 C   0  0  0  0  0  0  0  0  0  0  0  0
    7.5496   12.8925    2.5279 C   0  0  0  0  0  0  0  0  0  0  0  0
    7.6632   12.9026    1.2006 N   0  0  0  0  0  0  0  0  0  0  0  0
    8.4539   13.9614    0.9523 N   0  0  0  0  0  0  0  0  0  0  0  0
    8.6810   14.3302   -0.4265 C   0  0  0  0  0  0  0  0  0  0  0  0
   11.2203   15.2057    1.4058 C   0  0  0  0  0  0  0  0  0  0  0  0
   12.3747   15.9728    1.5458 C   0  0  0  0  0  0  0  0  0  0  0  0
   17.7473   15.8288    2.8796 C   0  0  0  0  0  0  0  0  0  0  0  0
   19.0179   15.3927    2.4722 C   0  0  0  0  0  0  0  0  0  0  0  0
   19.7373   14.3113    2.8228 N   0  0  0  0  0  0  0  0  0  0  0  0
   20.9766   14.5694    2.3345 N   0  0  0  0  0  0  0  0  0  0  0  0
   22.1250   13.8597    2.8495 C   0  0  0  0  0  0  0  0  0  0  0  0
  1  2  1  0
  2  3  2  0
  3  4  1  0
  4  5  2  0
  5  6  1  0
  6  7  1  0
  7  8  1  1
  7  9  1  0
  9 10  1  0
 10 11  1  0
 11 12  2  0
 12 13  1  0
 13 14  2  0
 14 15  1  0
 15 16  2  0
 16 17  1  0
 17 18  2  0
 18 19  1  0
 19 20  1  0
 14 21  1  0
 21 22  2  0
  6 23  2  0
 23 24  1  0
 24 25  2  0
 25 26  1  0
 26 27  1  0
 26  2  1  0
 24  3  1  0
 22 11  1  0
 19 15  1  0
M  END
>  <energy_score>  (207) 
-34.710177

>  <inchikey>  (207) 
None

>  <smiles>  (207) 
None

>  <ref_pdb>  (207) 
A0486a

>  <alias>  (207) 
None

>  <HIPPO Pose ID>  (207) 
497851

>  <name>  (207) 
P497851

>  <HIPPO Compound ID>  (207) 
289753

>  <ref_mols>  (207) 
A0486a,A0717a

>  <distance_score>  (207) 
1.633252

>  <inspiration_score>  (207) 
None

$$$$
P497852
     RDKit          3D

 27 30  0  0  0  0  0  0  0  0999 V2000
   22.0802   16.4005    1.0313 C   0  0  0  0  0  0  0  0  0  0  0  0
   20.9421   15.7150    1.6924 C   0  0  0  0  0  0  0  0  0  0  0  0
   19.6286   16.0614    1.8704 C   0  0  0  0  0  0  0  0  0  0  0  0
   19.0523   17.2642    1.4812 C   0  0  0  0  0  0  0  0  0  0  0  0
   17.7264   17.3824    1.9365 C   0  0  0  0  0  0  0  0  0  0  0  0
   17.0470   16.3782    2.7066 C   0  0  0  0  0  0  0  0  0  0  0  0
   15.6312   16.5981    3.2777 C   0  0  1  0  0  0  0  0  0  0  0  0
   15.7635   16.4823    4.6873 O   0  0  0  0  0  0  0  0  0  0  0  0
   15.0603   17.8916    2.9454 N   0  0  0  0  0  0  0  0  0  0  0  0
   13.7444   18.2172    3.5141 C   0  0  0  0  0  0  0  0  0  0  0  0
   12.5441   17.4098    3.0643 C   0  0  0  0  0  0  0  0  0  0  0  0
   11.3507   17.4949    3.8068 C   0  0  0  0  0  0  0  0  0  0  0  0
   10.2080   16.7584    3.4509 C   0  0  0  0  0  0  0  0  0  0  0  0
   10.2347   15.8912    2.3550 C   0  0  0  0  0  0  0  0  0  0  0  0
    9.1719   14.9004    2.1378 C   0  0  0  0  0  0  0  0  0  0  0  0
    8.4347   14.1744    3.0640 C   0  0  0  0  0  0  0  0  0  0  0  0
    7.8174   13.1457    2.3347 C   0  0  0  0  0  0  0  0  0  0  0  0
    8.0410   13.2603    1.0274 N   0  0  0  0  0  0  0  0  0  0  0  0
    8.7845   14.3778    0.9223 N   0  0  0  0  0  0  0  0  0  0  0  0
    9.0438   14.8895   -0.4041 C   0  0  0  0  0  0  0  0  0  0  0  0
   11.4124   15.8487    1.5872 C   0  0  0  0  0  0  0  0  0  0  0  0
   12.5360   16.6200    1.9147 C   0  0  0  0  0  0  0  0  0  0  0  0
   17.6698   15.1254    3.0057 C   0  0  0  0  0  0  0  0  0  0  0  0
   19.0001   14.9947    2.5924 C   0  0  0  0  0  0  0  0  0  0  0  0
   19.8871   14.0078    2.8012 N   0  0  0  0  0  0  0  0  0  0  0  0
   21.0638   14.5233    2.3674 N   0  0  0  0  0  0  0  0  0  0  0  0
   22.3016   13.8631    2.7146 C   0  0  0  0  0  0  0  0  0  0  0  0
  1  2  1  0
  2  3  2  0
  3  4  1  0
  4  5  2  0
  5  6  1  0
  6  7  1  0
  7  8  1  1
  7  9  1  0
  9 10  1  0
 10 11  1  0
 11 12  2  0
 12 13  1  0
 13 14  2  0
 14 15  1  0
 15 16  2  0
 16 17  1  0
 17 18  2  0
 18 19  1  0
 19 20  1  0
 14 21  1  0
 21 22  2  0
  6 23  2  0
 23 24  1  0
 24 25  2  0
 25 26  1  0
 26 27  1  0
 26  2  1  0
 24  3  1  0
 22 11  1  0
 19 15  1  0
M  END
>  <energy_score>  (208) 
-40.532067

>  <inchikey>  (208) 
None

>  <smiles>  (208) 
None

>  <ref_pdb>  (208) 
A0486a

>  <alias>  (208) 
None

>  <HIPPO Pose ID>  (208) 
497852

>  <name>  (208) 
P497852

>  <HIPPO Compound ID>  (208) 
289753

>  <ref_mols>  (208) 
A0486a,A0717a

>  <distance_score>  (208) 
1.629365

>  <inspiration_score>  (208) 
None

$$$$
P497853
     RDKit          3D

 27 30  0  0  0  0  0  0  0  0999 V2000
   22.2971   16.5456    1.3588 C   0  0  0  0  0  0  0  0  0  0  0  0
   21.0705   15.8675    1.8474 C   0  0  0  0  0  0  0  0  0  0  0  0
   19.7638   16.2666    1.9343 C   0  0  0  0  0  0  0  0  0  0  0  0
   19.2937   17.5286    1.5975 C   0  0  0  0  0  0  0  0  0  0  0  0
   17.9311   17.6716    1.8969 C   0  0  0  0  0  0  0  0  0  0  0  0
   17.1135   16.6311    2.4586 C   0  0  0  0  0  0  0  0  0  0  0  0
   15.6511   16.9724    2.7921 C   0  0  2  0  0  0  0  0  0  0  0  0
   14.9492   15.8276    3.2257 O   0  0  0  0  0  0  0  0  0  0  0  0
   14.9836   17.5701    1.6577 N   0  0  0  0  0  0  0  0  0  0  0  0
   13.7629   18.3220    1.9329 C   0  0  0  0  0  0  0  0  0  0  0  0
   12.4992   17.4909    1.9568 C   0  0  0  0  0  0  0  0  0  0  0  0
   12.1627   16.6805    0.8672 C   0  0  0  0  0  0  0  0  0  0  0  0
   11.0433   15.8475    0.9240 C   0  0  0  0  0  0  0  0  0  0  0  0
   10.2101   15.8156    2.0551 C   0  0  0  0  0  0  0  0  0  0  0  0
    9.2236   14.7355    2.1836 C   0  0  0  0  0  0  0  0  0  0  0  0
    8.2084   14.5416    3.1578 C   0  0  0  0  0  0  0  0  0  0  0  0
    7.7221   13.2738    2.9382 C   0  0  0  0  0  0  0  0  0  0  0  0
    8.4240   12.7848    1.8828 N   0  0  0  0  0  0  0  0  0  0  0  0
    8.3259   11.4623    1.3153 C   0  0  0  0  0  0  0  0  0  0  0  0
    9.3048   13.6613    1.3790 N   0  0  0  0  0  0  0  0  0  0  0  0
   10.4804   16.7124    3.0958 C   0  0  0  0  0  0  0  0  0  0  0  0
   11.6232   17.5292    3.0529 C   0  0  0  0  0  0  0  0  0  0  0  0
   17.6461   15.3397    2.7559 C   0  0  0  0  0  0  0  0  0  0  0  0
   19.0135   15.1765    2.4908 C   0  0  0  0  0  0  0  0  0  0  0  0
   19.8361   14.1350    2.7078 N   0  0  0  0  0  0  0  0  0  0  0  0
   21.0709   14.6179    2.4175 N   0  0  0  0  0  0  0  0  0  0  0  0
   22.2412   13.8601    2.7950 C   0  0  0  0  0  0  0  0  0  0  0  0
  1  2  1  0
  2  3  2  0
  3  4  1  0
  4  5  2  0
  5  6  1  0
  6  7  1  0
  7  8  1  6
  7  9  1  0
  9 10  1  0
 10 11  1  0
 11 12  2  0
 12 13  1  0
 13 14  2  0
 14 15  1  0
 15 16  1  0
 16 17  2  0
 17 18  1  0
 18 19  1  0
 18 20  1  0
 14 21  1  0
 21 22  2  0
  6 23  2  0
 23 24  1  0
 24 25  2  0
 25 26  1  0
 26 27  1  0
 26  2  1  0
 24  3  1  0
 22 11  1  0
 20 15  2  0
M  END
>  <energy_score>  (209) 
-50.59435

>  <inchikey>  (209) 
None

>  <smiles>  (209) 
None

>  <ref_pdb>  (209) 
A0486a

>  <alias>  (209) 
None

>  <HIPPO Pose ID>  (209) 
497853

>  <name>  (209) 
P497853

>  <HIPPO Compound ID>  (209) 
289754

>  <ref_mols>  (209) 
A0486a,A0717a

>  <distance_score>  (209) 
1.755875

>  <inspiration_score>  (209) 
None

$$$$
P497854
     RDKit          3D

 27 30  0  0  0  0  0  0  0  0999 V2000
   22.0863   15.8962    0.5281 C   0  0  0  0  0  0  0  0  0  0  0  0
   20.9175   15.5307    1.3648 C   0  0  0  0  0  0  0  0  0  0  0  0
   19.6865   16.1039    1.5430 C   0  0  0  0  0  0  0  0  0  0  0  0
   19.2760   17.3013    0.9741 C   0  0  0  0  0  0  0  0  0  0  0  0
   18.0657   17.7507    1.5267 C   0  0  0  0  0  0  0  0  0  0  0  0
   17.3325   17.0454    2.5383 C   0  0  0  0  0  0  0  0  0  0  0  0
   16.1031   17.6921    3.1836 C   0  0  1  0  0  0  0  0  0  0  0  0
   16.2774   19.0943    3.2193 O   0  0  0  0  0  0  0  0  0  0  0  0
   14.8748   17.3903    2.4725 N   0  0  0  0  0  0  0  0  0  0  0  0
   13.7008   17.9776    3.1481 C   0  0  0  0  0  0  0  0  0  0  0  0
   12.3866   17.3169    2.7751 C   0  0  0  0  0  0  0  0  0  0  0  0
   12.2130   16.6297    1.5713 C   0  0  0  0  0  0  0  0  0  0  0  0
   11.0552   15.8814    1.3479 C   0  0  0  0  0  0  0  0  0  0  0  0
   10.0284   15.8188    2.3062 C   0  0  0  0  0  0  0  0  0  0  0  0
    9.0421   14.7329    2.2189 C   0  0  0  0  0  0  0  0  0  0  0  0
    8.1032   14.2947    3.1936 C   0  0  0  0  0  0  0  0  0  0  0  0
    7.6223   13.0924    2.7308 C   0  0  0  0  0  0  0  0  0  0  0  0
    8.2443   12.8794    1.5421 N   0  0  0  0  0  0  0  0  0  0  0  0
    8.1100   11.7249    0.6883 C   0  0  0  0  0  0  0  0  0  0  0  0
    9.0663   13.8754    1.1838 N   0  0  0  0  0  0  0  0  0  0  0  0
   10.1246   16.6484    3.4290 C   0  0  0  0  0  0  0  0  0  0  0  0
   11.2996   17.3793    3.6653 C   0  0  0  0  0  0  0  0  0  0  0  0
   17.7400   15.7559    2.9960 C   0  0  0  0  0  0  0  0  0  0  0  0
   18.9785   15.3134    2.5065 C   0  0  0  0  0  0  0  0  0  0  0  0
   19.7246   14.2432    2.8348 N   0  0  0  0  0  0  0  0  0  0  0  0
   20.9344   14.5107    2.2842 N   0  0  0  0  0  0  0  0  0  0  0  0
   22.1223   13.8587    2.7873 C   0  0  0  0  0  0  0  0  0  0  0  0
  1  2  1  0
  2  3  2  0
  3  4  1  0
  4  5  2  0
  5  6  1  0
  6  7  1  0
  7  8  1  6
  7  9  1  0
  9 10  1  0
 10 11  1  0
 11 12  2  0
 12 13  1  0
 13 14  2  0
 14 15  1  0
 15 16  1  0
 16 17  2  0
 17 18  1  0
 18 19  1  0
 18 20  1  0
 14 21  1  0
 21 22  2  0
  6 23  2  0
 23 24  1  0
 24 25  2  0
 25 26  1  0
 26 27  1  0
 26  2  1  0
 24  3  1  0
 22 11  1  0
 20 15  2  0
M  END
>  <energy_score>  (210) 
-24.946578

>  <inchikey>  (210) 
None

>  <smiles>  (210) 
None

>  <ref_pdb>  (210) 
A0486a

>  <alias>  (210) 
None

>  <HIPPO Pose ID>  (210) 
497854

>  <name>  (210) 
P497854

>  <HIPPO Compound ID>  (210) 
289754

>  <ref_mols>  (210) 
A0486a,A0717a

>  <distance_score>  (210) 
1.662932

>  <inspiration_score>  (210) 
None

$$$$
P497855
     RDKit          3D

 27 30  0  0  0  0  0  0  0  0999 V2000
   11.1868   14.2178    0.4988 C   0  0  0  0  0  0  0  0  0  0  0  0
   10.1023   14.5486    1.3976 N   0  0  0  0  0  0  0  0  0  0  0  0
    9.1000   13.6556    1.4972 N   0  0  0  0  0  0  0  0  0  0  0  0
    8.3455   14.1211    2.4874 C   0  0  0  0  0  0  0  0  0  0  0  0
    8.8427   15.3332    2.9998 C   0  0  0  0  0  0  0  0  0  0  0  0
    9.9992   15.6152    2.2818 C   0  0  0  0  0  0  0  0  0  0  0  0
   11.0243   16.6706    2.4776 C   0  0  0  0  0  0  0  0  0  0  0  0
   11.3751   17.1284    3.7603 C   0  0  0  0  0  0  0  0  0  0  0  0
   12.5078   17.9496    3.9745 C   0  0  0  0  0  0  0  0  0  0  0  0
   13.3142   18.3656    2.9069 C   0  0  0  0  0  0  0  0  0  0  0  0
   14.6130   19.1536    3.1040 C   0  0  0  0  0  0  0  0  0  0  0  0
   15.7393   18.2401    3.1893 N   0  0  0  0  0  0  0  0  0  0  0  0
   17.0597   18.6263    2.6914 C   0  0  2  0  0  0  0  0  0  0  0  0
   16.9819   19.6319    1.7020 O   0  0  0  0  0  0  0  0  0  0  0  0
   17.7081   17.3640    2.0979 C   0  0  0  0  0  0  0  0  0  0  0  0
   16.8761   16.6208    1.2451 C   0  0  0  0  0  0  0  0  0  0  0  0
   17.1209   15.2873    0.9778 C   0  0  0  0  0  0  0  0  0  0  0  0
   18.2546   14.6961    1.5366 C   0  0  0  0  0  0  0  0  0  0  0  0
   18.7226   13.3806    1.6480 C   0  0  0  0  0  0  0  0  0  0  0  0
   17.7850   11.8718    1.0283 Br  0  0  0  0  0  0  0  0  0  0  0  0
   19.8936   13.3068    2.2642 N   0  0  0  0  0  0  0  0  0  0  0  0
   20.2527   14.5985    2.4085 N   0  0  0  0  0  0  0  0  0  0  0  0
   21.6550   14.8661    2.6265 C   0  0  0  0  0  0  0  0  0  0  0  0
   19.2133   15.4833    2.1831 C   0  0  0  0  0  0  0  0  0  0  0  0
   18.9779   16.8525    2.4599 C   0  0  0  0  0  0  0  0  0  0  0  0
   12.9074   17.9931    1.6177 C   0  0  0  0  0  0  0  0  0  0  0  0
   11.7761   17.1793    1.4086 C   0  0  0  0  0  0  0  0  0  0  0  0
  1  2  1  0
  2  3  1  0
  3  4  2  0
  4  5  1  0
  5  6  2  0
  6  7  1  0
  7  8  2  0
  8  9  1  0
  9 10  2  0
 10 11  1  0
 11 12  1  0
 12 13  1  0
 13 14  1  6
 13 15  1  0
 15 16  2  0
 16 17  1  0
 17 18  2  0
 18 19  1  0
 19 20  1  0
 19 21  2  0
 21 22  1  0
 22 23  1  0
 22 24  1  0
 24 25  2  0
 10 26  1  0
 26 27  2  0
  6  2  1  0
 27  7  1  0
 25 15  1  0
 24 18  1  0
M  END
>  <energy_score>  (211) 
-13.113007

>  <inchikey>  (211) 
None

>  <smiles>  (211) 
None

>  <ref_pdb>  (211) 
A0486a

>  <alias>  (211) 
None

>  <HIPPO Pose ID>  (211) 
497855

>  <name>  (211) 
P497855

>  <HIPPO Compound ID>  (211) 
289755

>  <ref_mols>  (211) 
A0486a,A0717a

>  <distance_score>  (211) 
1.946984

>  <inspiration_score>  (211) 
None

$$$$
P497856
     RDKit          3D

 27 30  0  0  0  0  0  0  0  0999 V2000
   10.7175   14.5440   -0.3338 C   0  0  0  0  0  0  0  0  0  0  0  0
    9.9745   14.5854    0.9057 N   0  0  0  0  0  0  0  0  0  0  0  0
    8.9267   13.7527    1.0433 N   0  0  0  0  0  0  0  0  0  0  0  0
    8.3861   14.1066    2.2071 C   0  0  0  0  0  0  0  0  0  0  0  0
    9.0995   15.1534    2.8214 C   0  0  0  0  0  0  0  0  0  0  0  0
   10.2072   15.3769    2.0133 C   0  0  0  0  0  0  0  0  0  0  0  0
   11.4558   16.1201    2.2762 C   0  0  0  0  0  0  0  0  0  0  0  0
   12.6919   15.4615    2.1320 C   0  0  0  0  0  0  0  0  0  0  0  0
   13.9051   16.0623    2.5104 C   0  0  0  0  0  0  0  0  0  0  0  0
   13.9429   17.3601    3.0336 C   0  0  0  0  0  0  0  0  0  0  0  0
   15.2688   17.9515    3.5180 C   0  0  0  0  0  0  0  0  0  0  0  0
   15.9066   18.8801    2.5736 N   0  0  0  0  0  0  0  0  0  0  0  0
   17.3700   18.7475    2.4546 C   0  0  1  0  0  0  0  0  0  0  0  0
   17.9305   19.0339    3.7194 O   0  0  0  0  0  0  0  0  0  0  0  0
   17.8771   17.4014    1.9381 C   0  0  0  0  0  0  0  0  0  0  0  0
   17.0784   16.7137    1.0183 C   0  0  0  0  0  0  0  0  0  0  0  0
   17.2418   15.3536    0.7999 C   0  0  0  0  0  0  0  0  0  0  0  0
   18.2743   14.6858    1.4619 C   0  0  0  0  0  0  0  0  0  0  0  0
   18.6378   13.3446    1.6446 C   0  0  0  0  0  0  0  0  0  0  0  0
   17.6389   11.8820    1.0124 Br  0  0  0  0  0  0  0  0  0  0  0  0
   19.7602   13.2103    2.3383 N   0  0  0  0  0  0  0  0  0  0  0  0
   20.2058   14.4779    2.4551 N   0  0  0  0  0  0  0  0  0  0  0  0
   21.6174   14.6635    2.7004 C   0  0  0  0  0  0  0  0  0  0  0  0
   19.2405   15.4182    2.1539 C   0  0  0  0  0  0  0  0  0  0  0  0
   19.0811   16.7999    2.3876 C   0  0  0  0  0  0  0  0  0  0  0  0
   12.7174   18.0389    3.1450 C   0  0  0  0  0  0  0  0  0  0  0  0
   11.4901   17.4217    2.7869 C   0  0  0  0  0  0  0  0  0  0  0  0
  1  2  1  0
  2  3  1  0
  3  4  2  0
  4  5  1  0
  5  6  2  0
  6  7  1  0
  7  8  2  0
  8  9  1  0
  9 10  2  0
 10 11  1  0
 11 12  1  0
 12 13  1  0
 13 14  1  1
 13 15  1  0
 15 16  2  0
 16 17  1  0
 17 18  2  0
 18 19  1  0
 19 20  1  0
 19 21  2  0
 21 22  1  0
 22 23  1  0
 22 24  1  0
 24 25  2  0
 10 26  1  0
 26 27  2  0
  6  2  1  0
 27  7  1  0
 25 15  1  0
 24 18  1  0
M  END
>  <energy_score>  (212) 
-18.57883

>  <inchikey>  (212) 
None

>  <smiles>  (212) 
None

>  <ref_pdb>  (212) 
A0486a

>  <alias>  (212) 
None

>  <HIPPO Pose ID>  (212) 
497856

>  <name>  (212) 
P497856

>  <HIPPO Compound ID>  (212) 
289755

>  <ref_mols>  (212) 
A0486a,A0717a

>  <distance_score>  (212) 
1.814484

>  <inspiration_score>  (212) 
None

$$$$
P497857
     RDKit          3D

 27 30  0  0  0  0  0  0  0  0999 V2000
    8.7407   12.3216    1.0375 C   0  0  0  0  0  0  0  0  0  0  0  0
    8.9488   13.5779    1.7159 N   0  0  0  0  0  0  0  0  0  0  0  0
    8.1828   14.1098    2.7036 C   0  0  0  0  0  0  0  0  0  0  0  0
    8.7873   15.2978    3.0483 C   0  0  0  0  0  0  0  0  0  0  0  0
    9.9444   15.3994    2.2258 C   0  0  0  0  0  0  0  0  0  0  0  0
   11.0502   16.3808    2.2557 C   0  0  0  0  0  0  0  0  0  0  0  0
   11.3476   17.1814    3.3706 C   0  0  0  0  0  0  0  0  0  0  0  0
   12.5152   17.9880    3.4089 C   0  0  0  0  0  0  0  0  0  0  0  0
   13.4110   18.0325    2.3284 C   0  0  0  0  0  0  0  0  0  0  0  0
   14.6600   18.9182    2.3155 C   0  0  0  0  0  0  0  0  0  0  0  0
   15.7396   18.4696    3.2116 N   0  0  0  0  0  0  0  0  0  0  0  0
   17.1260   18.6437    2.7191 C   0  0  2  0  0  0  0  0  0  0  0  0
   17.2477   19.7400    1.8462 O   0  0  0  0  0  0  0  0  0  0  0  0
   17.7120   17.3764    2.0882 C   0  0  0  0  0  0  0  0  0  0  0  0
   16.8996   16.6623    1.2062 C   0  0  0  0  0  0  0  0  0  0  0  0
   17.1138   15.3174    0.9527 C   0  0  0  0  0  0  0  0  0  0  0  0
   18.2168   14.6925    1.5377 C   0  0  0  0  0  0  0  0  0  0  0  0
   18.6575   13.3678    1.6603 C   0  0  0  0  0  0  0  0  0  0  0  0
   17.7044   11.8738    1.0299 Br  0  0  0  0  0  0  0  0  0  0  0  0
   19.8178   13.2730    2.2962 N   0  0  0  0  0  0  0  0  0  0  0  0
   20.2041   14.5584    2.4279 N   0  0  0  0  0  0  0  0  0  0  0  0
   21.6120   14.8028    2.6382 C   0  0  0  0  0  0  0  0  0  0  0  0
   19.1824   15.4594    2.1947 C   0  0  0  0  0  0  0  0  0  0  0  0
   18.9674   16.8305    2.4648 C   0  0  0  0  0  0  0  0  0  0  0  0
   13.0917   17.2568    1.2046 C   0  0  0  0  0  0  0  0  0  0  0  0
   11.9430   16.4464    1.1734 C   0  0  0  0  0  0  0  0  0  0  0  0
   10.0151   14.3336    1.4065 N   0  0  0  0  0  0  0  0  0  0  0  0
  1  2  1  0
  2  3  1  0
  3  4  2  0
  4  5  1  0
  5  6  1  0
  6  7  2  0
  7  8  1  0
  8  9  2  0
  9 10  1  0
 10 11  1  0
 11 12  1  0
 12 13  1  6
 12 14  1  0
 14 15  2  0
 15 16  1  0
 16 17  2  0
 17 18  1  0
 18 19  1  0
 18 20  2  0
 20 21  1  0
 21 22  1  0
 21 23  1  0
 23 24  2  0
  9 25  1  0
 25 26  2  0
  5 27  2  0
 27  2  1  0
 26  6  1  0
 24 14  1  0
 23 17  1  0
M  END
>  <energy_score>  (213) 
-16.008728

>  <inchikey>  (213) 
None

>  <smiles>  (213) 
None

>  <ref_pdb>  (213) 
A0486a

>  <alias>  (213) 
None

>  <HIPPO Pose ID>  (213) 
497857

>  <name>  (213) 
P497857

>  <HIPPO Compound ID>  (213) 
289756

>  <ref_mols>  (213) 
A0486a,A0717a

>  <distance_score>  (213) 
1.815064

>  <inspiration_score>  (213) 
None

$$$$
P497858
     RDKit          3D

 27 30  0  0  0  0  0  0  0  0999 V2000
    8.6841   12.3995    0.8277 C   0  0  0  0  0  0  0  0  0  0  0  0
    8.9678   13.6367    1.5137 N   0  0  0  0  0  0  0  0  0  0  0  0
    8.1833   14.2630    2.4284 C   0  0  0  0  0  0  0  0  0  0  0  0
    8.8867   15.3785    2.8243 C   0  0  0  0  0  0  0  0  0  0  0  0
   10.1208   15.3325    2.1151 C   0  0  0  0  0  0  0  0  0  0  0  0
   11.3499   16.1370    2.3095 C   0  0  0  0  0  0  0  0  0  0  0  0
   12.5732   15.6282    1.8335 C   0  0  0  0  0  0  0  0  0  0  0  0
   13.8073   16.2032    2.1812 C   0  0  0  0  0  0  0  0  0  0  0  0
   13.8813   17.3356    2.9995 C   0  0  0  0  0  0  0  0  0  0  0  0
   15.2441   17.8547    3.4655 C   0  0  0  0  0  0  0  0  0  0  0  0
   15.8785   18.8190    2.5549 N   0  0  0  0  0  0  0  0  0  0  0  0
   17.3483   18.7243    2.4649 C   0  0  1  0  0  0  0  0  0  0  0  0
   17.8747   18.9840    3.7508 O   0  0  0  0  0  0  0  0  0  0  0  0
   17.8996   17.4058    1.9206 C   0  0  0  0  0  0  0  0  0  0  0  0
   17.1459   16.7360    0.9521 C   0  0  0  0  0  0  0  0  0  0  0  0
   17.3174   15.3780    0.7236 C   0  0  0  0  0  0  0  0  0  0  0  0
   18.3202   14.7013    1.4210 C   0  0  0  0  0  0  0  0  0  0  0  0
   18.6683   13.3577    1.6190 C   0  0  0  0  0  0  0  0  0  0  0  0
   17.6753   11.8990    0.9694 Br  0  0  0  0  0  0  0  0  0  0  0  0
   19.7698   13.2188    2.3457 N   0  0  0  0  0  0  0  0  0  0  0  0
   20.2218   14.4840    2.4627 N   0  0  0  0  0  0  0  0  0  0  0  0
   21.6340   14.6630    2.7091 C   0  0  0  0  0  0  0  0  0  0  0  0
   19.2648   15.4277    2.1478 C   0  0  0  0  0  0  0  0  0  0  0  0
   19.0946   16.8057    2.3941 C   0  0  0  0  0  0  0  0  0  0  0  0
   12.6626   17.8962    3.4189 C   0  0  0  0  0  0  0  0  0  0  0  0
   11.4153   17.2994    3.0895 C   0  0  0  0  0  0  0  0  0  0  0  0
   10.1333   14.2654    1.2955 N   0  0  0  0  0  0  0  0  0  0  0  0
  1  2  1  0
  2  3  1  0
  3  4  2  0
  4  5  1  0
  5  6  1  0
  6  7  2  0
  7  8  1  0
  8  9  2  0
  9 10  1  0
 10 11  1  0
 11 12  1  0
 12 13  1  1
 12 14  1  0
 14 15  2  0
 15 16  1  0
 16 17  2  0
 17 18  1  0
 18 19  1  0
 18 20  2  0
 20 21  1  0
 21 22  1  0
 21 23  1  0
 23 24  2  0
  9 25  1  0
 25 26  2  0
  5 27  2  0
 27  2  1  0
 26  6  1  0
 24 14  1  0
 23 17  1  0
M  END
>  <energy_score>  (214) 
-21.104839

>  <inchikey>  (214) 
None

>  <smiles>  (214) 
None

>  <ref_pdb>  (214) 
A0486a

>  <alias>  (214) 
None

>  <HIPPO Pose ID>  (214) 
497858

>  <name>  (214) 
P497858

>  <HIPPO Compound ID>  (214) 
289756

>  <ref_mols>  (214) 
A0486a,A0717a

>  <distance_score>  (214) 
1.863379

>  <inspiration_score>  (214) 
None

$$$$
P497859
     RDKit          3D

 28 31  0  0  0  0  0  0  0  0999 V2000
   10.3783   13.5991   -0.3852 C   0  0  0  0  0  0  0  0  0  0  0  0
    9.7686   13.9635    0.8746 N   0  0  0  0  0  0  0  0  0  0  0  0
    8.7855   13.1818    1.3514 N   0  0  0  0  0  0  0  0  0  0  0  0
    8.3593   13.8264    2.4349 C   0  0  0  0  0  0  0  0  0  0  0  0
    9.0817   15.0145    2.6596 C   0  0  0  0  0  0  0  0  0  0  0  0
   10.0690   15.0390    1.6872 C   0  0  0  0  0  0  0  0  0  0  0  0
   11.2216   15.9255    1.4769 C   0  0  0  0  0  0  0  0  0  0  0  0
   12.5116   15.3807    1.3433 C   0  0  0  0  0  0  0  0  0  0  0  0
   13.6310   16.1816    1.0455 C   0  0  0  0  0  0  0  0  0  0  0  0
   13.5085   17.5657    0.8741 C   0  0  0  0  0  0  0  0  0  0  0  0
   14.7093   18.4804    0.6086 C   0  0  0  0  0  0  0  0  0  0  0  0
   15.8933   17.7994    0.0803 N   0  0  0  0  0  0  0  0  0  0  0  0
   17.1907   18.2598    0.5676 C   0  0  2  0  0  0  0  0  0  0  0  0
   18.0359   18.4039   -0.5534 O   0  0  0  0  0  0  0  0  0  0  0  0
   17.7734   17.2339    1.5435 C   0  0  0  0  0  0  0  0  0  0  0  0
   16.9181   16.8576    2.5883 C   0  0  0  0  0  0  0  0  0  0  0  0
   17.1048   15.6817    3.2893 C   0  0  0  0  0  0  0  0  0  0  0  0
   18.2359   14.9201    3.0085 C   0  0  0  0  0  0  0  0  0  0  0  0
   18.6753   13.6609    3.4198 C   0  0  0  0  0  0  0  0  0  0  0  0
   19.8837   13.3656    2.9640 N   0  0  0  0  0  0  0  0  0  0  0  0
   20.2747   14.5029    2.3230 N   0  0  0  0  0  0  0  0  0  0  0  0
   21.7021   14.6921    2.0652 C   0  0  0  0  0  0  0  0  0  0  0  0
   22.1919   13.7595    1.2059 F   0  0  0  0  0  0  0  0  0  0  0  0
   21.9644   15.9079    1.5099 F   0  0  0  0  0  0  0  0  0  0  0  0
   19.2337   15.4074    2.1655 C   0  0  0  0  0  0  0  0  0  0  0  0
   19.0240   16.5763    1.3984 C   0  0  0  0  0  0  0  0  0  0  0  0
   12.2221   18.1151    1.0475 C   0  0  0  0  0  0  0  0  0  0  0  0
   11.0965   17.3095    1.3431 C   0  0  0  0  0  0  0  0  0  0  0  0
  1  2  1  0
  2  3  1  0
  3  4  2  0
  4  5  1  0
  5  6  2  0
  6  7  1  0
  7  8  2  0
  8  9  1  0
  9 10  2  0
 10 11  1  0
 11 12  1  0
 12 13  1  0
 13 14  1  6
 13 15  1  0
 15 16  2  0
 16 17  1  0
 17 18  2  0
 18 19  1  0
 19 20  2  0
 20 21  1  0
 21 22  1  0
 22 23  1  0
 22 24  1  0
 21 25  1  0
 25 26  2  0
 10 27  1  0
 27 28  2  0
  6  2  1  0
 28  7  1  0
 26 15  1  0
 25 18  1  0
M  END
>  <energy_score>  (215) 
-13.527946

>  <inchikey>  (215) 
None

>  <smiles>  (215) 
None

>  <ref_pdb>  (215) 
A0486a

>  <alias>  (215) 
None

>  <HIPPO Pose ID>  (215) 
497859

>  <name>  (215) 
P497859

>  <HIPPO Compound ID>  (215) 
289757

>  <ref_mols>  (215) 
A0486a,A0717a

>  <distance_score>  (215) 
1.767089

>  <inspiration_score>  (215) 
None

$$$$
P497860
     RDKit          3D

 28 31  0  0  0  0  0  0  0  0999 V2000
    8.6545   11.9093    1.2685 C   0  0  0  0  0  0  0  0  0  0  0  0
    8.9367   13.2587    1.6945 N   0  0  0  0  0  0  0  0  0  0  0  0
    8.2747   13.9721    2.6426 C   0  0  0  0  0  0  0  0  0  0  0  0
    8.9333   15.1776    2.7305 C   0  0  0  0  0  0  0  0  0  0  0  0
   10.0075   15.1033    1.7993 C   0  0  0  0  0  0  0  0  0  0  0  0
   11.1036   16.0552    1.5359 C   0  0  0  0  0  0  0  0  0  0  0  0
   11.8494   15.9572    0.3444 C   0  0  0  0  0  0  0  0  0  0  0  0
   12.9724   16.7710    0.0895 C   0  0  0  0  0  0  0  0  0  0  0  0
   13.4158   17.7023    1.0341 C   0  0  0  0  0  0  0  0  0  0  0  0
   14.6274   18.6072    0.7905 C   0  0  0  0  0  0  0  0  0  0  0  0
   15.7648   17.9595    0.1094 N   0  0  0  0  0  0  0  0  0  0  0  0
   17.0877   18.3309    0.6315 C   0  0  2  0  0  0  0  0  0  0  0  0
   17.9121   18.4529   -0.5055 O   0  0  0  0  0  0  0  0  0  0  0  0
   17.6631   17.2639    1.5679 C   0  0  0  0  0  0  0  0  0  0  0  0
   16.8174   16.8246    2.5949 C   0  0  0  0  0  0  0  0  0  0  0  0
   17.0497   15.6411    3.2737 C   0  0  0  0  0  0  0  0  0  0  0  0
   18.2055   14.9231    2.9773 C   0  0  0  0  0  0  0  0  0  0  0  0
   18.6961   13.6736    3.3642 C   0  0  0  0  0  0  0  0  0  0  0  0
   19.8870   13.4053    2.8468 N   0  0  0  0  0  0  0  0  0  0  0  0
   20.2296   14.5622    2.2165 N   0  0  0  0  0  0  0  0  0  0  0  0
   21.5787   14.7334    1.6815 C   0  0  0  0  0  0  0  0  0  0  0  0
   22.4870   13.8783    2.2198 F   0  0  0  0  0  0  0  0  0  0  0  0
   22.0438   15.9933    1.9067 F   0  0  0  0  0  0  0  0  0  0  0  0
   19.1700   15.4531    2.1248 C   0  0  0  0  0  0  0  0  0  0  0  0
   18.9263   16.6373    1.3954 C   0  0  0  0  0  0  0  0  0  0  0  0
   12.6515   17.8285    2.2120 C   0  0  0  0  0  0  0  0  0  0  0  0
   11.5147   17.0219    2.4599 C   0  0  0  0  0  0  0  0  0  0  0  0
    9.9714   13.9228    1.1571 N   0  0  0  0  0  0  0  0  0  0  0  0
  1  2  1  0
  2  3  1  0
  3  4  2  0
  4  5  1  0
  5  6  1  0
  6  7  2  0
  7  8  1  0
  8  9  2  0
  9 10  1  0
 10 11  1  0
 11 12  1  0
 12 13  1  6
 12 14  1  0
 14 15  2  0
 15 16  1  0
 16 17  2  0
 17 18  1  0
 18 19  2  0
 19 20  1  0
 20 21  1  0
 21 22  1  0
 21 23  1  0
 20 24  1  0
 24 25  2  0
  9 26  1  0
 26 27  2  0
  5 28  2  0
 28  2  1  0
 27  6  1  0
 25 14  1  0
 24 17  1  0
M  END
>  <energy_score>  (216) 
-18.393939

>  <inchikey>  (216) 
None

>  <smiles>  (216) 
None

>  <ref_pdb>  (216) 
A0486a

>  <alias>  (216) 
None

>  <HIPPO Pose ID>  (216) 
497860

>  <name>  (216) 
P497860

>  <HIPPO Compound ID>  (216) 
289758

>  <ref_mols>  (216) 
A0486a,A0717a

>  <distance_score>  (216) 
1.822419

>  <inspiration_score>  (216) 
None

$$$$
P497861
     RDKit          3D

 28 31  0  0  0  0  0  0  0  0999 V2000
   16.9467   13.9160    2.9307 C   0  0  0  0  0  0  0  0  0  0  0  0
   17.7615   15.1411    2.6635 C   0  0  0  0  0  0  0  0  0  0  0  0
   17.2365   16.4826    2.6433 C   0  0  0  0  0  0  0  0  0  0  0  0
   15.7758   16.8267    2.9964 C   0  0  2  0  0  0  0  0  0  0  0  0
   15.1592   15.8494    3.7976 O   0  0  0  0  0  0  0  0  0  0  0  0
   14.9845   17.0295    1.7947 N   0  0  0  0  0  0  0  0  0  0  0  0
   13.7552   17.7995    2.0407 C   0  0  0  0  0  0  0  0  0  0  0  0
   12.5039   16.9470    2.0588 C   0  0  0  0  0  0  0  0  0  0  0  0
   11.3668   17.3582    2.7757 C   0  0  0  0  0  0  0  0  0  0  0  0
   10.1864   16.5975    2.7631 C   0  0  0  0  0  0  0  0  0  0  0  0
   10.1233   15.4125    2.0289 C   0  0  0  0  0  0  0  0  0  0  0  0
    8.9737   14.5159    2.0802 C   0  0  0  0  0  0  0  0  0  0  0  0
    8.2902   13.9926    3.1644 C   0  0  0  0  0  0  0  0  0  0  0  0
    7.5185   12.9418    2.6420 C   0  0  0  0  0  0  0  0  0  0  0  0
    7.6046   12.8673    1.3149 N   0  0  0  0  0  0  0  0  0  0  0  0
    8.4353   13.8720    0.9891 N   0  0  0  0  0  0  0  0  0  0  0  0
    8.6509   14.1461   -0.4136 C   0  0  0  0  0  0  0  0  0  0  0  0
   11.2592   15.0082    1.3087 C   0  0  0  0  0  0  0  0  0  0  0  0
   12.4234   15.7722    1.3052 C   0  0  0  0  0  0  0  0  0  0  0  0
   18.0511   17.6222    2.2895 C   0  0  0  0  0  0  0  0  0  0  0  0
   19.4146   17.5589    1.9891 C   0  0  0  0  0  0  0  0  0  0  0  0
   19.8957   16.2673    2.1222 C   0  0  0  0  0  0  0  0  0  0  0  0
   21.2151   15.9180    2.0095 C   0  0  0  0  0  0  0  0  0  0  0  0
   22.4353   16.6947    1.6748 C   0  0  0  0  0  0  0  0  0  0  0  0
   21.2343   14.5959    2.3776 N   0  0  0  0  0  0  0  0  0  0  0  0
   22.4070   13.8087    2.6758 C   0  0  0  0  0  0  0  0  0  0  0  0
   20.0080   14.0420    2.5346 N   0  0  0  0  0  0  0  0  0  0  0  0
   19.1550   15.0811    2.4518 C   0  0  0  0  0  0  0  0  0  0  0  0
  1  2  1  0
  2  3  2  0
  3  4  1  0
  4  5  1  6
  4  6  1  0
  6  7  1  0
  7  8  1  0
  8  9  2  0
  9 10  1  0
 10 11  2  0
 11 12  1  0
 12 13  2  0
 13 14  1  0
 14 15  2  0
 15 16  1  0
 16 17  1  0
 11 18  1  0
 18 19  2  0
  3 20  1  0
 20 21  2  0
 21 22  1  0
 22 23  2  0
 23 24  1  0
 23 25  1  0
 25 26  1  0
 25 27  1  0
 27 28  2  0
 28  2  1  0
 19  8  1  0
 28 22  1  0
 16 12  1  0
M  END
>  <energy_score>  (217) 
-48.704482

>  <inchikey>  (217) 
None

>  <smiles>  (217) 
None

>  <ref_pdb>  (217) 
A0486a

>  <alias>  (217) 
None

>  <HIPPO Pose ID>  (217) 
497861

>  <name>  (217) 
P497861

>  <HIPPO Compound ID>  (217) 
289759

>  <ref_mols>  (217) 
A0486a,A0717a

>  <distance_score>  (217) 
1.692357

>  <inspiration_score>  (217) 
None

$$$$
P497862
     RDKit          3D

 28 31  0  0  0  0  0  0  0  0999 V2000
   16.7598   14.5981    2.4353 C   0  0  0  0  0  0  0  0  0  0  0  0
   17.7618   15.6869    2.2151 C   0  0  0  0  0  0  0  0  0  0  0  0
   17.4191   17.0573    1.9184 C   0  0  0  0  0  0  0  0  0  0  0  0
   15.9950   17.5839    1.7151 C   0  0  1  0  0  0  0  0  0  0  0  0
   15.7219   17.4651    0.3359 O   0  0  0  0  0  0  0  0  0  0  0  0
   14.9254   16.9435    2.4468 N   0  0  0  0  0  0  0  0  0  0  0  0
   13.6993   17.7595    2.3904 C   0  0  0  0  0  0  0  0  0  0  0  0
   12.4431   16.9195    2.3344 C   0  0  0  0  0  0  0  0  0  0  0  0
   12.4081   15.7538    1.5634 C   0  0  0  0  0  0  0  0  0  0  0  0
   11.2388   15.0061    1.4651 C   0  0  0  0  0  0  0  0  0  0  0  0
   10.0624   15.4101    2.1169 C   0  0  0  0  0  0  0  0  0  0  0  0
    8.9207   14.5051    2.1028 C   0  0  0  0  0  0  0  0  0  0  0  0
    8.2348   13.9185    3.1522 C   0  0  0  0  0  0  0  0  0  0  0  0
    7.4842   12.8849    2.5687 C   0  0  0  0  0  0  0  0  0  0  0  0
    7.5933   12.8717    1.2408 N   0  0  0  0  0  0  0  0  0  0  0  0
    8.4199   13.8975    0.9749 N   0  0  0  0  0  0  0  0  0  0  0  0
    8.6796   14.2226   -0.4091 C   0  0  0  0  0  0  0  0  0  0  0  0
   10.0800   16.5871    2.8664 C   0  0  0  0  0  0  0  0  0  0  0  0
   11.2610   17.3390    2.9682 C   0  0  0  0  0  0  0  0  0  0  0  0
   18.4261   18.0602    1.6688 C   0  0  0  0  0  0  0  0  0  0  0  0
   19.8011   17.8340    1.7012 C   0  0  0  0  0  0  0  0  0  0  0  0
   20.0832   16.5161    2.0022 C   0  0  0  0  0  0  0  0  0  0  0  0
   21.3514   16.0107    2.0777 C   0  0  0  0  0  0  0  0  0  0  0  0
   22.6916   16.6114    1.8539 C   0  0  0  0  0  0  0  0  0  0  0  0
   21.1591   14.7174    2.4831 N   0  0  0  0  0  0  0  0  0  0  0  0
   22.1974   13.8089    2.9030 C   0  0  0  0  0  0  0  0  0  0  0  0
   19.8594   14.3313    2.5438 N   0  0  0  0  0  0  0  0  0  0  0  0
   19.1578   15.4496    2.2675 C   0  0  0  0  0  0  0  0  0  0  0  0
  1  2  1  0
  2  3  2  0
  3  4  1  0
  4  5  1  6
  4  6  1  0
  6  7  1  0
  7  8  1  0
  8  9  2  0
  9 10  1  0
 10 11  2  0
 11 12  1  0
 12 13  2  0
 13 14  1  0
 14 15  2  0
 15 16  1  0
 16 17  1  0
 11 18  1  0
 18 19  2  0
  3 20  1  0
 20 21  2  0
 21 22  1  0
 22 23  2  0
 23 24  1  0
 23 25  1  0
 25 26  1  0
 25 27  1  0
 27 28  2  0
 28  2  1  0
 19  8  1  0
 28 22  1  0
 16 12  1  0
M  END
>  <energy_score>  (218) 
-39.858674

>  <inchikey>  (218) 
None

>  <smiles>  (218) 
None

>  <ref_pdb>  (218) 
A0486a

>  <alias>  (218) 
None

>  <HIPPO Pose ID>  (218) 
497862

>  <name>  (218) 
P497862

>  <HIPPO Compound ID>  (218) 
289759

>  <ref_mols>  (218) 
A0486a,A0717a

>  <distance_score>  (218) 
1.709011

>  <inspiration_score>  (218) 
None

$$$$
P497863
     RDKit          3D

 28 31  0  0  0  0  0  0  0  0999 V2000
   16.7562   14.0328    2.4479 C   0  0  0  0  0  0  0  0  0  0  0  0
   17.6278   15.2281    2.2226 C   0  0  0  0  0  0  0  0  0  0  0  0
   17.1133   16.5249    1.8655 C   0  0  0  0  0  0  0  0  0  0  0  0
   15.6169   16.7407    1.5685 C   0  0  2  0  0  0  0  0  0  0  0  0
   15.5023   17.1237    0.2045 O   0  0  0  0  0  0  0  0  0  0  0  0
   15.0429   17.7449    2.4523 N   0  0  0  0  0  0  0  0  0  0  0  0
   13.8121   18.3813    1.9760 C   0  0  0  0  0  0  0  0  0  0  0  0
   12.5718   17.5140    2.0130 C   0  0  0  0  0  0  0  0  0  0  0  0
   12.2976   16.6392    0.9582 C   0  0  0  0  0  0  0  0  0  0  0  0
   11.1812   15.8011    0.9997 C   0  0  0  0  0  0  0  0  0  0  0  0
   10.2908   15.8193    2.0862 C   0  0  0  0  0  0  0  0  0  0  0  0
    9.2811   14.7581    2.1969 C   0  0  0  0  0  0  0  0  0  0  0  0
    8.2042   14.6165    3.1123 C   0  0  0  0  0  0  0  0  0  0  0  0
    7.7009   13.3538    2.9006 C   0  0  0  0  0  0  0  0  0  0  0  0
    8.4514   12.8178    1.9021 N   0  0  0  0  0  0  0  0  0  0  0  0
    8.3464   11.4865    1.3560 C   0  0  0  0  0  0  0  0  0  0  0  0
    9.3900   13.6537    1.4383 N   0  0  0  0  0  0  0  0  0  0  0  0
   10.5182   16.7537    3.1051 C   0  0  0  0  0  0  0  0  0  0  0  0
   11.6577   17.5782    3.0769 C   0  0  0  0  0  0  0  0  0  0  0  0
   17.9676   17.6687    1.6725 C   0  0  0  0  0  0  0  0  0  0  0  0
   19.3619   17.6336    1.7578 C   0  0  0  0  0  0  0  0  0  0  0  0
   19.8196   16.3589    2.0513 C   0  0  0  0  0  0  0  0  0  0  0  0
   21.1412   16.0078    2.1245 C   0  0  0  0  0  0  0  0  0  0  0  0
   22.3980   16.7684    1.9012 C   0  0  0  0  0  0  0  0  0  0  0  0
   21.1114   14.6864    2.4943 N   0  0  0  0  0  0  0  0  0  0  0  0
   22.2529   13.8702    2.8349 C   0  0  0  0  0  0  0  0  0  0  0  0
   19.8665   14.1522    2.5668 N   0  0  0  0  0  0  0  0  0  0  0  0
   19.0374   15.1780    2.2958 C   0  0  0  0  0  0  0  0  0  0  0  0
  1  2  1  0
  2  3  2  0
  3  4  1  0
  4  5  1  6
  4  6  1  0
  6  7  1  0
  7  8  1  0
  8  9  2  0
  9 10  1  0
 10 11  2  0
 11 12  1  0
 12 13  1  0
 13 14  2  0
 14 15  1  0
 15 16  1  0
 15 17  1  0
 11 18  1  0
 18 19  2  0
  3 20  1  0
 20 21  2  0
 21 22  1  0
 22 23  2  0
 23 24  1  0
 23 25  1  0
 25 26  1  0
 25 27  1  0
 27 28  2  0
 28  2  1  0
 19  8  1  0
 28 22  1  0
 17 12  2  0
M  END
>  <energy_score>  (219) 
-43.357399

>  <inchikey>  (219) 
None

>  <smiles>  (219) 
None

>  <ref_pdb>  (219) 
A0486a

>  <alias>  (219) 
None

>  <HIPPO Pose ID>  (219) 
497863

>  <name>  (219) 
P497863

>  <HIPPO Compound ID>  (219) 
289760

>  <ref_mols>  (219) 
A0486a,A0717a

>  <distance_score>  (219) 
1.727936

>  <inspiration_score>  (219) 
None

$$$$
P497864
     RDKit          3D

 28 31  0  0  0  0  0  0  0  0999 V2000
   19.0172   18.5758    3.5119 C   0  0  0  0  0  0  0  0  0  0  0  0
   18.5836   17.4776    2.5937 C   0  0  0  0  0  0  0  0  0  0  0  0
   17.3057   17.4624    1.9528 C   0  0  0  0  0  0  0  0  0  0  0  0
   16.2141   18.4955    2.2951 C   0  0  1  0  0  0  0  0  0  0  0  0
   16.2387   19.4988    1.3091 O   0  0  0  0  0  0  0  0  0  0  0  0
   14.9074   17.8560    2.3120 N   0  0  0  0  0  0  0  0  0  0  0  0
   13.7694   18.7284    2.5973 C   0  0  0  0  0  0  0  0  0  0  0  0
   12.4833   17.9186    2.4953 C   0  0  0  0  0  0  0  0  0  0  0  0
   11.5824   17.8033    3.5642 C   0  0  0  0  0  0  0  0  0  0  0  0
   10.4709   16.9402    3.4843 C   0  0  0  0  0  0  0  0  0  0  0  0
   10.2503   16.1576    2.3408 C   0  0  0  0  0  0  0  0  0  0  0  0
    9.3029   15.0308    2.3248 C   0  0  0  0  0  0  0  0  0  0  0  0
    8.2483   14.7188    3.2249 C   0  0  0  0  0  0  0  0  0  0  0  0
    7.8105   13.4648    2.8666 C   0  0  0  0  0  0  0  0  0  0  0  0
    8.5721   13.0959    1.8042 N   0  0  0  0  0  0  0  0  0  0  0  0
    8.5181   11.8410    1.0948 C   0  0  0  0  0  0  0  0  0  0  0  0
    9.4693   14.0267    1.4436 N   0  0  0  0  0  0  0  0  0  0  0  0
   11.1039   16.3496    1.2428 C   0  0  0  0  0  0  0  0  0  0  0  0
   12.1960   17.2203    1.3143 C   0  0  0  0  0  0  0  0  0  0  0  0
   16.9608   16.4493    0.9790 C   0  0  0  0  0  0  0  0  0  0  0  0
   17.7509   15.3419    0.6376 C   0  0  0  0  0  0  0  0  0  0  0  0
   18.9314   15.3477    1.3540 C   0  0  0  0  0  0  0  0  0  0  0  0
   19.9273   14.4074    1.2424 C   0  0  0  0  0  0  0  0  0  0  0  0
   20.0405   13.2227    0.3600 C   0  0  0  0  0  0  0  0  0  0  0  0
   20.8636   14.8049    2.1620 N   0  0  0  0  0  0  0  0  0  0  0  0
   22.0819   14.1433    2.5747 C   0  0  0  0  0  0  0  0  0  0  0  0
   20.5714   15.9837    2.7402 N   0  0  0  0  0  0  0  0  0  0  0  0
   19.3662   16.3389    2.2837 C   0  0  0  0  0  0  0  0  0  0  0  0
  1  2  1  0
  2  3  2  0
  3  4  1  0
  4  5  1  6
  4  6  1  0
  6  7  1  0
  7  8  1  0
  8  9  2  0
  9 10  1  0
 10 11  2  0
 11 12  1  0
 12 13  1  0
 13 14  2  0
 14 15  1  0
 15 16  1  0
 15 17  1  0
 11 18  1  0
 18 19  2  0
  3 20  1  0
 20 21  2  0
 21 22  1  0
 22 23  2  0
 23 24  1  0
 23 25  1  0
 25 26  1  0
 25 27  1  0
 27 28  2  0
 28  2  1  0
 19  8  1  0
 28 22  1  0
 17 12  2  0
M  END
>  <energy_score>  (220) 
-32.265253

>  <inchikey>  (220) 
None

>  <smiles>  (220) 
None

>  <ref_pdb>  (220) 
A0486a

>  <alias>  (220) 
None

>  <HIPPO Pose ID>  (220) 
497864

>  <name>  (220) 
P497864

>  <HIPPO Compound ID>  (220) 
289760

>  <ref_mols>  (220) 
A0486a,A0717a

>  <distance_score>  (220) 
1.815416

>  <inspiration_score>  (220) 
None

$$$$
P497865
     RDKit          3D

 28 31  0  0  0  0  0  0  0  0999 V2000
   17.9208   12.0253    1.3740 C   0  0  0  0  0  0  0  0  0  0  0  0
   18.6131   13.2692    1.8002 C   0  0  0  0  0  0  0  0  0  0  0  0
   19.9294   13.3227    1.9574 N   0  0  0  0  0  0  0  0  0  0  0  0
   20.1928   14.6231    2.2231 N   0  0  0  0  0  0  0  0  0  0  0  0
   21.5865   14.9388    2.4292 C   0  0  0  0  0  0  0  0  0  0  0  0
   19.0642   15.4292    2.2678 C   0  0  0  0  0  0  0  0  0  0  0  0
   18.7917   16.8259    2.4566 C   0  0  0  0  0  0  0  0  0  0  0  0
   19.8620   17.8788    2.5327 C   0  0  0  0  0  0  0  0  0  0  0  0
   17.4062   17.1939    2.6182 C   0  0  0  0  0  0  0  0  0  0  0  0
   16.9120   18.5884    3.0462 C   0  0  2  0  0  0  0  0  0  0  0  0
   17.5546   18.8672    4.2773 O   0  0  0  0  0  0  0  0  0  0  0  0
   15.4794   18.7035    3.3535 N   0  0  0  0  0  0  0  0  0  0  0  0
   14.6102   18.9362    2.1851 C   0  0  0  0  0  0  0  0  0  0  0  0
   13.3336   18.0898    2.1963 C   0  0  0  0  0  0  0  0  0  0  0  0
   12.4322   18.0671    3.2737 C   0  0  0  0  0  0  0  0  0  0  0  0
   11.2799   17.2394    3.2598 C   0  0  0  0  0  0  0  0  0  0  0  0
   10.9988   16.4019    2.1694 C   0  0  0  0  0  0  0  0  0  0  0  0
    9.9200   15.3913    2.1772 C   0  0  0  0  0  0  0  0  0  0  0  0
    8.7706   15.2857    3.0101 C   0  0  0  0  0  0  0  0  0  0  0  0
    8.1859   14.0795    2.6956 C   0  0  0  0  0  0  0  0  0  0  0  0
    8.9553   13.5407    1.7142 N   0  0  0  0  0  0  0  0  0  0  0  0
    8.7616   12.2696    1.0593 C   0  0  0  0  0  0  0  0  0  0  0  0
   10.0092   14.3057    1.3861 N   0  0  0  0  0  0  0  0  0  0  0  0
   11.8830   16.4629    1.0783 C   0  0  0  0  0  0  0  0  0  0  0  0
   13.0194   17.2922    1.0860 C   0  0  0  0  0  0  0  0  0  0  0  0
   16.4171   16.2233    2.4302 C   0  0  0  0  0  0  0  0  0  0  0  0
   16.6979   14.9174    2.1015 C   0  0  0  0  0  0  0  0  0  0  0  0
   18.0250   14.5162    2.0621 C   0  0  0  0  0  0  0  0  0  0  0  0
  1  2  1  0
  2  3  2  0
  3  4  1  0
  4  5  1  0
  4  6  1  0
  6  7  2  0
  7  8  1  0
  7  9  1  0
  9 10  1  0
 10 11  1  1
 10 12  1  0
 12 13  1  0
 13 14  1  0
 14 15  2  0
 15 16  1  0
 16 17  2  0
 17 18  1  0
 18 19  1  0
 19 20  2  0
 20 21  1  0
 21 22  1  0
 21 23  1  0
 17 24  1  0
 24 25  2  0
  9 26  2  0
 26 27  1  0
 27 28  2  0
 28  2  1  0
 28  6  1  0
 25 14  1  0
 23 18  2  0
M  END
>  <energy_score>  (221) 
-35.256421

>  <inchikey>  (221) 
None

>  <smiles>  (221) 
None

>  <ref_pdb>  (221) 
A0486a

>  <alias>  (221) 
None

>  <HIPPO Pose ID>  (221) 
497865

>  <name>  (221) 
P497865

>  <HIPPO Compound ID>  (221) 
289761

>  <ref_mols>  (221) 
A0486a,A0717a

>  <distance_score>  (221) 
1.932825

>  <inspiration_score>  (221) 
None

$$$$
P497866
     RDKit          3D

 28 31  0  0  0  0  0  0  0  0999 V2000
   17.8088   12.1262    1.4807 C   0  0  0  0  0  0  0  0  0  0  0  0
   18.5532   13.3516    1.8670 C   0  0  0  0  0  0  0  0  0  0  0  0
   19.7209   13.2978    2.4980 N   0  0  0  0  0  0  0  0  0  0  0  0
   20.1602   14.5816    2.4829 N   0  0  0  0  0  0  0  0  0  0  0  0
   21.5929   14.7392    2.5879 C   0  0  0  0  0  0  0  0  0  0  0  0
   19.1605   15.5035    2.1937 C   0  0  0  0  0  0  0  0  0  0  0  0
   18.9652   16.9219    2.2966 C   0  0  0  0  0  0  0  0  0  0  0  0
   19.9409   17.9058    2.8801 C   0  0  0  0  0  0  0  0  0  0  0  0
   17.6928   17.4195    1.8455 C   0  0  0  0  0  0  0  0  0  0  0  0
   17.1260   18.8116    2.1850 C   0  0  1  0  0  0  0  0  0  0  0  0
   17.6933   19.7498    1.2971 O   0  0  0  0  0  0  0  0  0  0  0  0
   15.6648   18.9246    2.0320 N   0  0  0  0  0  0  0  0  0  0  0  0
   14.9020   18.3624    3.1598 C   0  0  0  0  0  0  0  0  0  0  0  0
   13.4871   17.8714    2.8272 C   0  0  0  0  0  0  0  0  0  0  0  0
   12.4964   17.8158    3.8274 C   0  0  0  0  0  0  0  0  0  0  0  0
   11.2672   17.1397    3.6271 C   0  0  0  0  0  0  0  0  0  0  0  0
   10.9990   16.4676    2.4260 C   0  0  0  0  0  0  0  0  0  0  0  0
    9.8964   15.4908    2.2824 C   0  0  0  0  0  0  0  0  0  0  0  0
    8.7291   15.3075    3.0772 C   0  0  0  0  0  0  0  0  0  0  0  0
    8.1584   14.1316    2.6444 C   0  0  0  0  0  0  0  0  0  0  0  0
    8.9505   13.6866    1.6346 N   0  0  0  0  0  0  0  0  0  0  0  0
    8.7820   12.4754    0.8690 C   0  0  0  0  0  0  0  0  0  0  0  0
   10.0027   14.4855    1.3931 N   0  0  0  0  0  0  0  0  0  0  0  0
   11.9498   16.6027    1.4008 C   0  0  0  0  0  0  0  0  0  0  0  0
   13.1624   17.2944    1.5942 C   0  0  0  0  0  0  0  0  0  0  0  0
   16.8654   16.5986    1.0767 C   0  0  0  0  0  0  0  0  0  0  0  0
   17.0606   15.2380    1.0016 C   0  0  0  0  0  0  0  0  0  0  0  0
   18.1658   14.6851    1.6412 C   0  0  0  0  0  0  0  0  0  0  0  0
  1  2  1  0
  2  3  2  0
  3  4  1  0
  4  5  1  0
  4  6  1  0
  6  7  2  0
  7  8  1  0
  7  9  1  0
  9 10  1  0
 10 11  1  6
 10 12  1  0
 12 13  1  0
 13 14  1  0
 14 15  2  0
 15 16  1  0
 16 17  2  0
 17 18  1  0
 18 19  1  0
 19 20  2  0
 20 21  1  0
 21 22  1  0
 21 23  1  0
 17 24  1  0
 24 25  2  0
  9 26  2  0
 26 27  1  0
 27 28  2  0
 28  2  1  0
 28  6  1  0
 25 14  1  0
 23 18  2  0
M  END
>  <energy_score>  (222) 
-24.429467

>  <inchikey>  (222) 
None

>  <smiles>  (222) 
None

>  <ref_pdb>  (222) 
A0486a

>  <alias>  (222) 
None

>  <HIPPO Pose ID>  (222) 
497866

>  <name>  (222) 
P497866

>  <HIPPO Compound ID>  (222) 
289761

>  <ref_mols>  (222) 
A0486a,A0717a

>  <distance_score>  (222) 
1.783763

>  <inspiration_score>  (222) 
None

$$$$
P497867
     RDKit          3D

 28 31  0  0  0  0  0  0  0  0999 V2000
   17.7775   12.1326    1.5506 C   0  0  0  0  0  0  0  0  0  0  0  0
   18.5318   13.3580    1.9177 C   0  0  0  0  0  0  0  0  0  0  0  0
   19.7689   13.3058    2.3944 N   0  0  0  0  0  0  0  0  0  0  0  0
   20.1773   14.5975    2.4170 N   0  0  0  0  0  0  0  0  0  0  0  0
   21.6003   14.7896    2.5757 C   0  0  0  0  0  0  0  0  0  0  0  0
   19.1543   15.5124    2.1931 C   0  0  0  0  0  0  0  0  0  0  0  0
   18.9991   16.9405    2.2352 C   0  0  0  0  0  0  0  0  0  0  0  0
   20.1168   17.8959    2.5499 C   0  0  0  0  0  0  0  0  0  0  0  0
   17.6764   17.4495    1.9704 C   0  0  0  0  0  0  0  0  0  0  0  0
   17.2108   18.9024    2.2249 C   0  0  2  0  0  0  0  0  0  0  0  0
   17.6268   19.3714    3.4934 O   0  0  0  0  0  0  0  0  0  0  0  0
   15.7541   19.1299    2.0960 N   0  0  0  0  0  0  0  0  0  0  0  0
   14.9405   18.6585    3.2324 C   0  0  0  0  0  0  0  0  0  0  0  0
   13.5466   18.1192    2.8901 C   0  0  0  0  0  0  0  0  0  0  0  0
   13.1092   17.8382    1.5917 C   0  0  0  0  0  0  0  0  0  0  0  0
   11.9138   17.1204    1.3578 C   0  0  0  0  0  0  0  0  0  0  0  0
   11.1168   16.6398    2.4087 C   0  0  0  0  0  0  0  0  0  0  0  0
   10.0551   15.6224    2.2041 C   0  0  0  0  0  0  0  0  0  0  0  0
    8.8955   15.3682    2.9286 C   0  0  0  0  0  0  0  0  0  0  0  0
    8.3712   14.1635    2.4264 C   0  0  0  0  0  0  0  0  0  0  0  0
    9.1113   13.6772    1.4355 N   0  0  0  0  0  0  0  0  0  0  0  0
   10.1272   14.5528    1.3207 N   0  0  0  0  0  0  0  0  0  0  0  0
   11.1923   14.2032    0.4062 C   0  0  0  0  0  0  0  0  0  0  0  0
   11.4713   17.0660    3.6967 C   0  0  0  0  0  0  0  0  0  0  0  0
   12.6694   17.7746    3.9339 C   0  0  0  0  0  0  0  0  0  0  0  0
   16.7150   16.5935    1.4247 C   0  0  0  0  0  0  0  0  0  0  0  0
   16.8941   15.2302    1.3516 C   0  0  0  0  0  0  0  0  0  0  0  0
   18.0922   14.6880    1.8022 C   0  0  0  0  0  0  0  0  0  0  0  0
  1  2  1  0
  2  3  2  0
  3  4  1  0
  4  5  1  0
  4  6  1  0
  6  7  2  0
  7  8  1  0
  7  9  1  0
  9 10  1  0
 10 11  1  1
 10 12  1  0
 12 13  1  0
 13 14  1  0
 14 15  2  0
 15 16  1  0
 16 17  2  0
 17 18  1  0
 18 19  2  0
 19 20  1  0
 20 21  2  0
 21 22  1  0
 22 23  1  0
 17 24  1  0
 24 25  2  0
  9 26  2  0
 26 27  1  0
 27 28  2  0
 28  2  1  0
 28  6  1  0
 25 14  1  0
 22 18  1  0
M  END
>  <energy_score>  (223) 
-26.756322

>  <inchikey>  (223) 
None

>  <smiles>  (223) 
None

>  <ref_pdb>  (223) 
A0486a

>  <alias>  (223) 
None

>  <HIPPO Pose ID>  (223) 
497867

>  <name>  (223) 
P497867

>  <HIPPO Compound ID>  (223) 
289762

>  <ref_mols>  (223) 
A0486a,A0717a

>  <distance_score>  (223) 
1.822383

>  <inspiration_score>  (223) 
None

$$$$
P497868
     RDKit          3D

 28 31  0  0  0  0  0  0  0  0999 V2000
   17.8188   12.1827    1.3977 C   0  0  0  0  0  0  0  0  0  0  0  0
   18.5974   13.3854    1.7866 C   0  0  0  0  0  0  0  0  0  0  0  0
   19.7406   13.2887    2.4553 N   0  0  0  0  0  0  0  0  0  0  0  0
   20.2267   14.5543    2.4614 N   0  0  0  0  0  0  0  0  0  0  0  0
   21.6553   14.6590    2.6483 C   0  0  0  0  0  0  0  0  0  0  0  0
   19.2697   15.5110    2.1457 C   0  0  0  0  0  0  0  0  0  0  0  0
   19.1137   16.9298    2.2691 C   0  0  0  0  0  0  0  0  0  0  0  0
   20.1127   17.8793    2.8687 C   0  0  0  0  0  0  0  0  0  0  0  0
   17.8431   17.4524    1.8467 C   0  0  0  0  0  0  0  0  0  0  0  0
   17.2255   18.7687    2.3574 C   0  0  1  0  0  0  0  0  0  0  0  0
   17.2122   19.7731    1.3656 O   0  0  0  0  0  0  0  0  0  0  0  0
   15.8898   18.5501    2.9575 N   0  0  0  0  0  0  0  0  0  0  0  0
   14.7338   18.9094    2.1157 C   0  0  0  0  0  0  0  0  0  0  0  0
   13.5161   17.9940    2.2849 C   0  0  0  0  0  0  0  0  0  0  0  0
   13.6491   16.6016    2.3002 C   0  0  0  0  0  0  0  0  0  0  0  0
   12.5248   15.7620    2.2276 C   0  0  0  0  0  0  0  0  0  0  0  0
   11.2154   16.2743    2.1719 C   0  0  0  0  0  0  0  0  0  0  0  0
   10.0794   15.3491    2.0407 C   0  0  0  0  0  0  0  0  0  0  0  0
    8.9916   15.1040    2.8651 C   0  0  0  0  0  0  0  0  0  0  0  0
    8.3837   13.9407    2.3524 C   0  0  0  0  0  0  0  0  0  0  0  0
    8.9776   13.5170    1.2382 N   0  0  0  0  0  0  0  0  0  0  0  0
    9.9521   14.4195    1.0277 N   0  0  0  0  0  0  0  0  0  0  0  0
   10.7461   14.3030   -0.1749 C   0  0  0  0  0  0  0  0  0  0  0  0
   11.0700   17.6616    2.2175 C   0  0  0  0  0  0  0  0  0  0  0  0
   12.2049   18.5082    2.2552 C   0  0  0  0  0  0  0  0  0  0  0  0
   17.0230   16.6949    1.0099 C   0  0  0  0  0  0  0  0  0  0  0  0
   17.2059   15.3353    0.8752 C   0  0  0  0  0  0  0  0  0  0  0  0
   18.2682   14.7333    1.5470 C   0  0  0  0  0  0  0  0  0  0  0  0
  1  2  1  0
  2  3  2  0
  3  4  1  0
  4  5  1  0
  4  6  1  0
  6  7  2  0
  7  8  1  0
  7  9  1  0
  9 10  1  0
 10 11  1  6
 10 12  1  0
 12 13  1  0
 13 14  1  0
 14 15  2  0
 15 16  1  0
 16 17  2  0
 17 18  1  0
 18 19  2  0
 19 20  1  0
 20 21  2  0
 21 22  1  0
 22 23  1  0
 17 24  1  0
 24 25  2  0
  9 26  2  0
 26 27  1  0
 27 28  2  0
 28  2  1  0
 28  6  1  0
 25 14  1  0
 22 18  1  0
M  END
>  <energy_score>  (224) 
-17.607937

>  <inchikey>  (224) 
None

>  <smiles>  (224) 
None

>  <ref_pdb>  (224) 
A0486a

>  <alias>  (224) 
None

>  <HIPPO Pose ID>  (224) 
497868

>  <name>  (224) 
P497868

>  <HIPPO Compound ID>  (224) 
289762

>  <ref_mols>  (224) 
A0486a,A0717a

>  <distance_score>  (224) 
1.731387

>  <inspiration_score>  (224) 
None

$$$$
P497869
     RDKit          3D

 28 31  0  0  0  0  0  0  0  0999 V2000
    8.4539   11.5897    1.3063 C   0  0  0  0  0  0  0  0  0  0  0  0
    8.5497   12.9197    1.8562 N   0  0  0  0  0  0  0  0  0  0  0  0
    7.8471   13.4223    2.9047 C   0  0  0  0  0  0  0  0  0  0  0  0
    8.3303   14.6951    3.1037 C   0  0  0  0  0  0  0  0  0  0  0  0
    9.3443   14.8790    2.1247 C   0  0  0  0  0  0  0  0  0  0  0  0
   10.3128   15.9738    1.9653 C   0  0  0  0  0  0  0  0  0  0  0  0
   11.1094   16.0250    0.8076 C   0  0  0  0  0  0  0  0  0  0  0  0
   12.1994   16.8968    0.7066 C   0  0  0  0  0  0  0  0  0  0  0  0
   12.5402   17.7370    1.7720 C   0  0  0  0  0  0  0  0  0  0  0  0
   13.8187   18.5617    1.7224 C   0  0  0  0  0  0  0  0  0  0  0  0
   14.9790   17.7037    1.4486 N   0  0  0  0  0  0  0  0  0  0  0  0
   16.2459   18.2519    1.9454 C   0  0  0  0  0  0  0  0  0  0  0  0
   17.3287   17.1796    2.0878 C   0  0  0  0  0  0  0  0  0  0  0  0
   17.0061   15.9885    2.8350 C   0  0  0  0  0  0  0  0  0  0  0  0
   17.8753   14.9051    3.0601 C   0  0  0  0  0  0  0  0  0  0  0  0
   19.1191   15.1692    2.5237 C   0  0  0  0  0  0  0  0  0  0  0  0
   20.2312   14.3926    2.6763 C   0  0  0  0  0  0  0  0  0  0  0  0
   21.2359   15.0666    2.0364 N   0  0  0  0  0  0  0  0  0  0  0  0
   22.6262   14.6265    1.8282 C   0  0  0  0  0  0  0  0  0  0  0  0
   22.6370   13.4675    0.8301 C   0  0  0  0  0  0  0  0  0  0  0  0
   23.5073   15.7555    1.2326 C   0  0  0  0  0  0  0  0  0  0  0  0
   23.2901   14.1969    3.1366 C   0  0  0  0  0  0  0  0  0  0  0  0
   20.8167   16.2279    1.4964 N   0  0  0  0  0  0  0  0  0  0  0  0
   19.5204   16.3336    1.8071 C   0  0  0  0  0  0  0  0  0  0  0  0
   18.6237   17.3836    1.5503 C   0  0  0  0  0  0  0  0  0  0  0  0
   11.6995   17.7510    2.8976 C   0  0  0  0  0  0  0  0  0  0  0  0
   10.5931   16.8852    2.9909 C   0  0  0  0  0  0  0  0  0  0  0  0
    9.4295   13.7899    1.3404 N   0  0  0  0  0  0  0  0  0  0  0  0
  1  2  1  0
  2  3  1  0
  3  4  2  0
  4  5  1  0
  5  6  1  0
  6  7  2  0
  7  8  1  0
  8  9  2  0
  9 10  1  0
 10 11  1  0
 11 12  1  0
 12 13  1  0
 13 14  1  0
 14 15  2  0
 15 16  1  0
 16 17  2  0
 17 18  1  0
 18 19  1  0
 19 20  1  0
 19 21  1  0
 19 22  1  0
 18 23  1  0
 23 24  2  0
 24 25  1  0
  9 26  1  0
 26 27  2  0
  5 28  2  0
 28  2  1  0
 27  6  1  0
 25 13  2  0
 24 16  1  0
M  END
>  <energy_score>  (225) 
-36.185968

>  <inchikey>  (225) 
None

>  <smiles>  (225) 
None

>  <ref_pdb>  (225) 
A0486a

>  <alias>  (225) 
None

>  <HIPPO Pose ID>  (225) 
497869

>  <name>  (225) 
P497869

>  <HIPPO Compound ID>  (225) 
289763

>  <ref_mols>  (225) 
A0486a,A0717a

>  <distance_score>  (225) 
1.914839

>  <inspiration_score>  (225) 
None

$$$$
P497870
     RDKit          3D

 28 31  0  0  0  0  0  0  0  0999 V2000
   10.8343   13.9176    0.3039 C   0  0  0  0  0  0  0  0  0  0  0  0
    9.8187   14.2684    1.2723 N   0  0  0  0  0  0  0  0  0  0  0  0
    8.8402   13.3691    1.4767 N   0  0  0  0  0  0  0  0  0  0  0  0
    8.1498   13.8639    2.4987 C   0  0  0  0  0  0  0  0  0  0  0  0
    8.6638   15.0997    2.9288 C   0  0  0  0  0  0  0  0  0  0  0  0
    9.7640   15.3647    2.1225 C   0  0  0  0  0  0  0  0  0  0  0  0
   10.7988   16.4176    2.2235 C   0  0  0  0  0  0  0  0  0  0  0  0
   11.2113   16.9009    3.4711 C   0  0  0  0  0  0  0  0  0  0  0  0
   12.4222   17.6018    3.6124 C   0  0  0  0  0  0  0  0  0  0  0  0
   13.2341   17.9065    2.5053 C   0  0  0  0  0  0  0  0  0  0  0  0
   14.5953   18.5375    2.7737 C   0  0  0  0  0  0  0  0  0  0  0  0
   15.4625   18.8816    1.6467 N   0  0  0  0  0  0  0  0  0  0  0  0
   16.0772   17.7948    0.8923 C   0  0  0  0  0  0  0  0  0  0  0  0
   17.1980   17.0121    1.5657 C   0  0  0  0  0  0  0  0  0  0  0  0
   16.8302   15.8972    2.3968 C   0  0  0  0  0  0  0  0  0  0  0  0
   17.7270   14.9391    2.9139 C   0  0  0  0  0  0  0  0  0  0  0  0
   19.0177   15.2033    2.4909 C   0  0  0  0  0  0  0  0  0  0  0  0
   20.1248   14.4440    2.7502 C   0  0  0  0  0  0  0  0  0  0  0  0
   21.1588   15.0754    2.1070 N   0  0  0  0  0  0  0  0  0  0  0  0
   22.5342   14.5893    1.8942 C   0  0  0  0  0  0  0  0  0  0  0  0
   22.5030   13.4737    0.8471 C   0  0  0  0  0  0  0  0  0  0  0  0
   23.1762   14.0847    3.1836 C   0  0  0  0  0  0  0  0  0  0  0  0
   23.4634   15.7073    1.3503 C   0  0  0  0  0  0  0  0  0  0  0  0
   20.7663   16.2062    1.4914 N   0  0  0  0  0  0  0  0  0  0  0  0
   19.4506   16.3063    1.6993 C   0  0  0  0  0  0  0  0  0  0  0  0
   18.5510   17.2777    1.2360 C   0  0  0  0  0  0  0  0  0  0  0  0
   12.7144   17.6040    1.2445 C   0  0  0  0  0  0  0  0  0  0  0  0
   11.5186   16.8698    1.1085 C   0  0  0  0  0  0  0  0  0  0  0  0
  1  2  1  0
  2  3  1  0
  3  4  2  0
  4  5  1  0
  5  6  2  0
  6  7  1  0
  7  8  2  0
  8  9  1  0
  9 10  2  0
 10 11  1  0
 11 12  1  0
 12 13  1  0
 13 14  1  0
 14 15  1  0
 15 16  2  0
 16 17  1  0
 17 18  2  0
 18 19  1  0
 19 20  1  0
 20 21  1  0
 20 22  1  0
 20 23  1  0
 19 24  1  0
 24 25  2  0
 25 26  1  0
 10 27  1  0
 27 28  2  0
  6  2  1  0
 28  7  1  0
 26 14  2  0
 25 17  1  0
M  END
>  <energy_score>  (226) 
-23.472769

>  <inchikey>  (226) 
None

>  <smiles>  (226) 
None

>  <ref_pdb>  (226) 
A0486a

>  <alias>  (226) 
None

>  <HIPPO Pose ID>  (226) 
497870

>  <name>  (226) 
P497870

>  <HIPPO Compound ID>  (226) 
289764

>  <ref_mols>  (226) 
A0486a,A0717a

>  <distance_score>  (226) 
1.941364

>  <inspiration_score>  (226) 
None

$$$$
P497871
     RDKit          3D

 28 31  0  0  0  0  0  0  0  0999 V2000
    8.0712   11.5381    0.8314 C   0  0  0  0  0  0  0  0  0  0  0  0
    8.2125   12.7507    1.6000 N   0  0  0  0  0  0  0  0  0  0  0  0
    7.5332   13.0872    2.7281 C   0  0  0  0  0  0  0  0  0  0  0  0
    8.0422   14.3019    3.1234 C   0  0  0  0  0  0  0  0  0  0  0  0
    9.0566   14.6160    2.1786 C   0  0  0  0  0  0  0  0  0  0  0  0
   10.0817   15.6644    2.2374 C   0  0  0  0  0  0  0  0  0  0  0  0
   11.2158   15.5384    1.4160 C   0  0  0  0  0  0  0  0  0  0  0  0
   12.3706   16.2857    1.6504 C   0  0  0  0  0  0  0  0  0  0  0  0
   12.4268   17.1857    2.7172 C   0  0  0  0  0  0  0  0  0  0  0  0
   13.7008   17.9109    3.1032 C   0  0  0  0  0  0  0  0  0  0  0  0
   14.9158   17.3115    2.5413 N   0  0  0  0  0  0  0  0  0  0  0  0
   16.1069   17.6328    3.2940 C   0  0  2  0  0  0  0  0  0  0  0  0
   16.2221   19.0318    3.4637 O   0  0  0  0  0  0  0  0  0  0  0  0
   17.3755   17.0751    2.6432 C   0  0  0  0  0  0  0  0  0  0  0  0
   18.1432   17.9022    1.7552 C   0  0  0  0  0  0  0  0  0  0  0  0
   19.3765   17.5267    1.2049 C   0  0  0  0  0  0  0  0  0  0  0  0
   19.7625   16.2737    1.6456 C   0  0  0  0  0  0  0  0  0  0  0  0
   20.9889   15.7333    1.4193 C   0  0  0  0  0  0  0  0  0  0  0  0
   21.0017   14.5798    2.1564 N   0  0  0  0  0  0  0  0  0  0  0  0
   22.1917   13.7615    2.3571 C   0  0  0  0  0  0  0  0  0  0  0  0
   23.3141   14.5271    2.3771 F   0  0  0  0  0  0  0  0  0  0  0  0
   22.3531   12.9150    1.3080 F   0  0  0  0  0  0  0  0  0  0  0  0
   19.7885   14.2672    2.7074 N   0  0  0  0  0  0  0  0  0  0  0  0
   19.0386   15.3655    2.4843 C   0  0  0  0  0  0  0  0  0  0  0  0
   17.7784   15.7422    2.9730 C   0  0  0  0  0  0  0  0  0  0  0  0
   11.2525   17.4044    3.4620 C   0  0  0  0  0  0  0  0  0  0  0  0
   10.0886   16.6552    3.2241 C   0  0  0  0  0  0  0  0  0  0  0  0
    9.1048   13.6751    1.2209 N   0  0  0  0  0  0  0  0  0  0  0  0
  1  2  1  0
  2  3  1  0
  3  4  2  0
  4  5  1  0
  5  6  1  0
  6  7  2  0
  7  8  1  0
  8  9  2  0
  9 10  1  0
 10 11  1  0
 11 12  1  0
 12 13  1  6
 12 14  1  0
 14 15  1  0
 15 16  2  0
 16 17  1  0
 17 18  2  0
 18 19  1  0
 19 20  1  0
 20 21  1  0
 20 22  1  0
 19 23  1  0
 23 24  2  0
 24 25  1  0
  9 26  1  0
 26 27  2  0
  5 28  2  0
 28  2  1  0
 27  6  1  0
 25 14  2  0
 24 17  1  0
M  END
>  <energy_score>  (227) 
-27.655988

>  <inchikey>  (227) 
None

>  <smiles>  (227) 
None

>  <ref_pdb>  (227) 
A0486a

>  <alias>  (227) 
None

>  <HIPPO Pose ID>  (227) 
497871

>  <name>  (227) 
P497871

>  <HIPPO Compound ID>  (227) 
289765

>  <ref_mols>  (227) 
A0486a,A0717a

>  <distance_score>  (227) 
1.683493

>  <inspiration_score>  (227) 
None

$$$$
P497872
     RDKit          3D

 28 31  0  0  0  0  0  0  0  0999 V2000
    8.1735   11.8364    0.9371 C   0  0  0  0  0  0  0  0  0  0  0  0
    8.4391   13.0916    1.5967 N   0  0  0  0  0  0  0  0  0  0  0  0
    7.7404   13.6398    2.6255 C   0  0  0  0  0  0  0  0  0  0  0  0
    8.3977   14.8053    2.9459 C   0  0  0  0  0  0  0  0  0  0  0  0
    9.5146   14.8687    2.0679 C   0  0  0  0  0  0  0  0  0  0  0  0
   10.6813   15.7644    2.1090 C   0  0  0  0  0  0  0  0  0  0  0  0
   11.8761   15.3291    1.5064 C   0  0  0  0  0  0  0  0  0  0  0  0
   13.0907   15.9844    1.7273 C   0  0  0  0  0  0  0  0  0  0  0  0
   13.1541   17.1208    2.5399 C   0  0  0  0  0  0  0  0  0  0  0  0
   14.5051   17.7392    2.8674 C   0  0  0  0  0  0  0  0  0  0  0  0
   15.0824   18.4583    1.7313 N   0  0  0  0  0  0  0  0  0  0  0  0
   16.5227   18.6806    1.8232 C   0  0  1  0  0  0  0  0  0  0  0  0
   16.7683   19.4377    2.9891 O   0  0  0  0  0  0  0  0  0  0  0  0
   17.4412   17.4523    1.7723 C   0  0  0  0  0  0  0  0  0  0  0  0
   17.0185   16.2634    1.0770 C   0  0  0  0  0  0  0  0  0  0  0  0
   17.7452   15.0558    0.9948 C   0  0  0  0  0  0  0  0  0  0  0  0
   18.9736   15.1832    1.6120 C   0  0  0  0  0  0  0  0  0  0  0  0
   19.9456   14.2242    1.6640 C   0  0  0  0  0  0  0  0  0  0  0  0
   20.9922   14.8195    2.3174 N   0  0  0  0  0  0  0  0  0  0  0  0
   22.2948   14.2307    2.6111 C   0  0  0  0  0  0  0  0  0  0  0  0
   22.6932   13.4072    1.6049 F   0  0  0  0  0  0  0  0  0  0  0  0
   22.2443   13.4866    3.7384 F   0  0  0  0  0  0  0  0  0  0  0  0
   20.7420   16.1051    2.6566 N   0  0  0  0  0  0  0  0  0  0  0  0
   19.4913   16.3473    2.2530 C   0  0  0  0  0  0  0  0  0  0  0  0
   18.7343   17.5230    2.3602 C   0  0  0  0  0  0  0  0  0  0  0  0
   11.9530   17.6099    3.0798 C   0  0  0  0  0  0  0  0  0  0  0  0
   10.7296   16.9366    2.8725 C   0  0  0  0  0  0  0  0  0  0  0  0
    9.4886   13.8311    1.2145 N   0  0  0  0  0  0  0  0  0  0  0  0
  1  2  1  0
  2  3  1  0
  3  4  2  0
  4  5  1  0
  5  6  1  0
  6  7  2  0
  7  8  1  0
  8  9  2  0
  9 10  1  0
 10 11  1  0
 11 12  1  0
 12 13  1  1
 12 14  1  0
 14 15  1  0
 15 16  2  0
 16 17  1  0
 17 18  2  0
 18 19  1  0
 19 20  1  0
 20 21  1  0
 20 22  1  0
 19 23  1  0
 23 24  2  0
 24 25  1  0
  9 26  1  0
 26 27  2  0
  5 28  2  0
 28  2  1  0
 27  6  1  0
 25 14  2  0
 24 17  1  0
M  END
>  <energy_score>  (228) 
-29.978987

>  <inchikey>  (228) 
None

>  <smiles>  (228) 
None

>  <ref_pdb>  (228) 
A0486a

>  <alias>  (228) 
None

>  <HIPPO Pose ID>  (228) 
497872

>  <name>  (228) 
P497872

>  <HIPPO Compound ID>  (228) 
289765

>  <ref_mols>  (228) 
A0486a,A0717a

>  <distance_score>  (228) 
1.900085

>  <inspiration_score>  (228) 
None

$$$$
P497873
     RDKit          3D

 28 31  0  0  0  0  0  0  0  0999 V2000
    9.5971   13.9900   -0.4394 C   0  0  0  0  0  0  0  0  0  0  0  0
    9.1347   13.9911    0.9304 N   0  0  0  0  0  0  0  0  0  0  0  0
    8.2621   13.0409    1.3045 N   0  0  0  0  0  0  0  0  0  0  0  0
    7.9431   13.3735    2.5541 C   0  0  0  0  0  0  0  0  0  0  0  0
    8.6203   14.5303    2.9826 C   0  0  0  0  0  0  0  0  0  0  0  0
    9.4826   14.8541    1.9482 C   0  0  0  0  0  0  0  0  0  0  0  0
   10.6082   15.7866    1.8849 C   0  0  0  0  0  0  0  0  0  0  0  0
   10.4985   17.1374    2.2140 C   0  0  0  0  0  0  0  0  0  0  0  0
   11.6225   17.9857    2.1377 C   0  0  0  0  0  0  0  0  0  0  0  0
   12.8830   17.5036    1.7375 C   0  0  0  0  0  0  0  0  0  0  0  0
   14.0961   18.4277    1.7267 C   0  0  0  0  0  0  0  0  0  0  0  0
   15.2205   17.8846    0.9749 N   0  0  0  0  0  0  0  0  0  0  0  0
   16.5286   18.3929    1.3322 C   0  0  2  0  0  0  0  0  0  0  0  0
   17.0331   19.0709    0.2043 O   0  0  0  0  0  0  0  0  0  0  0  0
   17.4598   17.2472    1.7452 C   0  0  0  0  0  0  0  0  0  0  0  0
   16.9036   16.2475    2.6282 C   0  0  0  0  0  0  0  0  0  0  0  0
   17.5678   15.0990    3.0875 C   0  0  0  0  0  0  0  0  0  0  0  0
   18.8639   15.0785    2.6173 C   0  0  0  0  0  0  0  0  0  0  0  0
   19.8041   14.1543    2.9665 C   0  0  0  0  0  0  0  0  0  0  0  0
   20.9524   14.5564    2.3380 N   0  0  0  0  0  0  0  0  0  0  0  0
   22.2502   13.8838    2.3907 C   0  0  0  0  0  0  0  0  0  0  0  0
   23.2901   14.7400    2.2471 F   0  0  0  0  0  0  0  0  0  0  0  0
   22.3561   12.9904    1.3727 F   0  0  0  0  0  0  0  0  0  0  0  0
   20.7793   15.6753    1.5938 N   0  0  0  0  0  0  0  0  0  0  0  0
   19.5042   16.0415    1.7798 C   0  0  0  0  0  0  0  0  0  0  0  0
   18.8103   17.1705    1.3091 C   0  0  0  0  0  0  0  0  0  0  0  0
   12.9882   16.1397    1.4395 C   0  0  0  0  0  0  0  0  0  0  0  0
   11.8717   15.3003    1.5093 C   0  0  0  0  0  0  0  0  0  0  0  0
  1  2  1  0
  2  3  1  0
  3  4  2  0
  4  5  1  0
  5  6  2  0
  6  7  1  0
  7  8  2  0
  8  9  1  0
  9 10  2  0
 10 11  1  0
 11 12  1  0
 12 13  1  0
 13 14  1  6
 13 15  1  0
 15 16  1  0
 16 17  2  0
 17 18  1  0
 18 19  2  0
 19 20  1  0
 20 21  1  0
 21 22  1  0
 21 23  1  0
 20 24  1  0
 24 25  2  0
 25 26  1  0
 10 27  1  0
 27 28  2  0
  6  2  1  0
 28  7  1  0
 26 15  2  0
 25 18  1  0
M  END
>  <energy_score>  (229) 
-29.258144

>  <inchikey>  (229) 
None

>  <smiles>  (229) 
None

>  <ref_pdb>  (229) 
A0486a

>  <alias>  (229) 
None

>  <HIPPO Pose ID>  (229) 
497873

>  <name>  (229) 
P497873

>  <HIPPO Compound ID>  (229) 
289766

>  <ref_mols>  (229) 
A0486a,A0717a

>  <distance_score>  (229) 
1.846571

>  <inspiration_score>  (229) 
None

$$$$
P497874
     RDKit          3D

 28 31  0  0  0  0  0  0  0  0999 V2000
    9.3549   14.1005   -0.3999 C   0  0  0  0  0  0  0  0  0  0  0  0
    8.9553   14.0250    0.9872 N   0  0  0  0  0  0  0  0  0  0  0  0
    8.0664   13.0800    1.3367 N   0  0  0  0  0  0  0  0  0  0  0  0
    7.8140   13.3380    2.6185 C   0  0  0  0  0  0  0  0  0  0  0  0
    8.5396   14.4475    3.0880 C   0  0  0  0  0  0  0  0  0  0  0  0
    9.3701   14.8119    2.0412 C   0  0  0  0  0  0  0  0  0  0  0  0
   10.5249   15.7101    1.9961 C   0  0  0  0  0  0  0  0  0  0  0  0
   11.7431   15.2222    1.4925 C   0  0  0  0  0  0  0  0  0  0  0  0
   12.8808   16.0295    1.4242 C   0  0  0  0  0  0  0  0  0  0  0  0
   12.8425   17.3551    1.8693 C   0  0  0  0  0  0  0  0  0  0  0  0
   14.0644   18.2393    1.7008 C   0  0  0  0  0  0  0  0  0  0  0  0
   15.1165   17.9453    2.6767 N   0  0  0  0  0  0  0  0  0  0  0  0
   16.4208   18.4409    2.2413 C   0  0  1  0  0  0  0  0  0  0  0  0
   16.8648   19.2664    3.2925 O   0  0  0  0  0  0  0  0  0  0  0  0
   17.4407   17.3261    1.9756 C   0  0  0  0  0  0  0  0  0  0  0  0
   17.0464   16.2227    1.1346 C   0  0  0  0  0  0  0  0  0  0  0  0
   17.8143   15.0639    0.8904 C   0  0  0  0  0  0  0  0  0  0  0  0
   19.0374   15.1456    1.5289 C   0  0  0  0  0  0  0  0  0  0  0  0
   20.0282   14.2031    1.4960 C   0  0  0  0  0  0  0  0  0  0  0  0
   21.0510   14.7376    2.2384 N   0  0  0  0  0  0  0  0  0  0  0  0
   22.3490   14.1270    2.5289 C   0  0  0  0  0  0  0  0  0  0  0  0
   22.6383   13.1564    1.6221 F   0  0  0  0  0  0  0  0  0  0  0  0
   23.3641   15.0294    2.4449 F   0  0  0  0  0  0  0  0  0  0  0  0
   20.7622   15.9672    2.7141 N   0  0  0  0  0  0  0  0  0  0  0  0
   19.5199   16.2370    2.3086 C   0  0  0  0  0  0  0  0  0  0  0  0
   18.7376   17.3752    2.5479 C   0  0  0  0  0  0  0  0  0  0  0  0
   11.6424   17.8321    2.4212 C   0  0  0  0  0  0  0  0  0  0  0  0
   10.4944   17.0169    2.4858 C   0  0  0  0  0  0  0  0  0  0  0  0
  1  2  1  0
  2  3  1  0
  3  4  2  0
  4  5  1  0
  5  6  2  0
  6  7  1  0
  7  8  2  0
  8  9  1  0
  9 10  2  0
 10 11  1  0
 11 12  1  0
 12 13  1  0
 13 14  1  1
 13 15  1  0
 15 16  1  0
 16 17  2  0
 17 18  1  0
 18 19  2  0
 19 20  1  0
 20 21  1  0
 21 22  1  0
 21 23  1  0
 20 24  1  0
 24 25  2  0
 25 26  1  0
 10 27  1  0
 27 28  2  0
  6  2  1  0
 28  7  1  0
 26 15  2  0
 25 18  1  0
M  END
>  <energy_score>  (230) 
-31.202819

>  <inchikey>  (230) 
None

>  <smiles>  (230) 
None

>  <ref_pdb>  (230) 
A0486a

>  <alias>  (230) 
None

>  <HIPPO Pose ID>  (230) 
497874

>  <name>  (230) 
P497874

>  <HIPPO Compound ID>  (230) 
289766

>  <ref_mols>  (230) 
A0486a,A0717a

>  <distance_score>  (230) 
1.821195

>  <inspiration_score>  (230) 
None

$$$$
P497875
     RDKit          3D

 28 31  0  0  0  0  0  0  0  0999 V2000
   22.6517   13.8180    1.8247 C   0  0  0  0  0  0  0  0  0  0  0  0
   21.6671   14.9775    1.8295 C   0  0  0  0  0  0  0  0  0  0  0  0
   20.3068   14.6692    2.2277 N   0  0  0  0  0  0  0  0  0  0  0  0
   20.0427   13.5050    2.8607 N   0  0  0  0  0  0  0  0  0  0  0  0
   18.8141   13.6751    3.3304 C   0  0  0  0  0  0  0  0  0  0  0  0
   18.2523   14.8950    2.9480 C   0  0  0  0  0  0  0  0  0  0  0  0
   17.0461   15.5296    3.2266 C   0  0  0  0  0  0  0  0  0  0  0  0
   16.7764   16.7308    2.5947 C   0  0  0  0  0  0  0  0  0  0  0  0
   17.6379   17.2810    1.6331 C   0  0  0  0  0  0  0  0  0  0  0  0
   17.0412   18.4208    0.7929 C   0  0  2  0  0  0  0  0  0  0  0  0
   15.7427   18.0079    0.2426 N   0  0  0  0  0  0  0  0  0  0  0  0
   14.5607   18.6193    0.8637 C   0  0  0  0  0  0  0  0  0  0  0  0
   13.3688   17.6784    1.0628 C   0  0  0  0  0  0  0  0  0  0  0  0
   13.3882   16.3289    0.6997 C   0  0  0  0  0  0  0  0  0  0  0  0
   12.2779   15.4954    0.9401 C   0  0  0  0  0  0  0  0  0  0  0  0
   11.1005   15.9649    1.5568 C   0  0  0  0  0  0  0  0  0  0  0  0
    9.9849   15.0312    1.8068 C   0  0  0  0  0  0  0  0  0  0  0  0
    8.8544   15.1656    2.6617 C   0  0  0  0  0  0  0  0  0  0  0  0
    8.1918   13.9605    2.6032 C   0  0  0  0  0  0  0  0  0  0  0  0
    8.9033   13.1905    1.7394 N   0  0  0  0  0  0  0  0  0  0  0  0
    8.6341   11.8214    1.3718 C   0  0  0  0  0  0  0  0  0  0  0  0
    9.9768   13.8150    1.2340 N   0  0  0  0  0  0  0  0  0  0  0  0
   11.0760   17.3149    1.9191 C   0  0  0  0  0  0  0  0  0  0  0  0
   12.1897   18.1552    1.6727 C   0  0  0  0  0  0  0  0  0  0  0  0
   17.8797   18.7231   -0.3179 O   0  0  0  0  0  0  0  0  0  0  0  0
   18.6412   19.9066   -0.1237 C   0  0  0  0  0  0  0  0  0  0  0  0
   18.9265   16.7123    1.4566 C   0  0  0  0  0  0  0  0  0  0  0  0
   19.2072   15.5069    2.1406 C   0  0  0  0  0  0  0  0  0  0  0  0
  1  2  1  0
  2  3  1  0
  3  4  1  0
  4  5  2  0
  5  6  1  0
  6  7  2  0
  7  8  1  0
  8  9  2  0
  9 10  1  0
 10 11  1  6
 11 12  1  0
 12 13  1  0
 13 14  2  0
 14 15  1  0
 15 16  2  0
 16 17  1  0
 17 18  1  0
 18 19  2  0
 19 20  1  0
 20 21  1  0
 20 22  1  0
 16 23  1  0
 23 24  2  0
 10 25  1  0
 25 26  1  0
  9 27  1  0
 27 28  2  0
 28  3  1  0
 28  6  1  0
 24 13  1  0
 22 17  2  0
M  END
>  <energy_score>  (231) 
-33.013358

>  <inchikey>  (231) 
None

>  <smiles>  (231) 
None

>  <ref_pdb>  (231) 
A0486a

>  <alias>  (231) 
None

>  <HIPPO Pose ID>  (231) 
497875

>  <name>  (231) 
P497875

>  <HIPPO Compound ID>  (231) 
289767

>  <ref_mols>  (231) 
A0486a,A0717a

>  <distance_score>  (231) 
1.827185

>  <inspiration_score>  (231) 
None

$$$$
P497876
     RDKit          3D

 28 31  0  0  0  0  0  0  0  0999 V2000
   22.5623   14.0721    1.6522 C   0  0  0  0  0  0  0  0  0  0  0  0
   21.6395   14.5661    2.7571 C   0  0  0  0  0  0  0  0  0  0  0  0
   20.2329   14.4143    2.4312 N   0  0  0  0  0  0  0  0  0  0  0  0
   19.7490   13.1584    2.3002 N   0  0  0  0  0  0  0  0  0  0  0  0
   18.6555   13.3233    1.5650 C   0  0  0  0  0  0  0  0  0  0  0  0
   18.3352   14.6768    1.3977 C   0  0  0  0  0  0  0  0  0  0  0  0
   17.3312   15.3668    0.7205 C   0  0  0  0  0  0  0  0  0  0  0  0
   17.1655   16.7202    0.9816 C   0  0  0  0  0  0  0  0  0  0  0  0
   17.9303   17.3656    1.9590 C   0  0  0  0  0  0  0  0  0  0  0  0
   17.3855   18.6704    2.5708 C   0  0  1  0  0  0  0  0  0  0  0  0
   15.9047   18.7745    2.5926 N   0  0  0  0  0  0  0  0  0  0  0  0
   15.2441   17.8360    3.5070 C   0  0  0  0  0  0  0  0  0  0  0  0
   13.8833   17.3261    3.0243 C   0  0  0  0  0  0  0  0  0  0  0  0
   13.8121   16.1811    2.2234 C   0  0  0  0  0  0  0  0  0  0  0  0
   12.5781   15.6125    1.8653 C   0  0  0  0  0  0  0  0  0  0  0  0
   11.3525   16.1418    2.3125 C   0  0  0  0  0  0  0  0  0  0  0  0
   10.1199   15.3455    2.1099 C   0  0  0  0  0  0  0  0  0  0  0  0
    8.9002   15.3665    2.8456 C   0  0  0  0  0  0  0  0  0  0  0  0
    8.1941   14.2583    2.4340 C   0  0  0  0  0  0  0  0  0  0  0  0
    8.9634   13.6616    1.4868 N   0  0  0  0  0  0  0  0  0  0  0  0
    8.6793   12.4353    0.7822 C   0  0  0  0  0  0  0  0  0  0  0  0
   10.1128   14.3113    1.2495 N   0  0  0  0  0  0  0  0  0  0  0  0
   11.4163   17.3153    3.0759 C   0  0  0  0  0  0  0  0  0  0  0  0
   12.6639   17.9053    3.4157 C   0  0  0  0  0  0  0  0  0  0  0  0
   17.9077   18.7868    3.8961 O   0  0  0  0  0  0  0  0  0  0  0  0
   17.9938   20.1367    4.3312 C   0  0  0  0  0  0  0  0  0  0  0  0
   19.1335   16.7523    2.4009 C   0  0  0  0  0  0  0  0  0  0  0  0
   19.2909   15.3778    2.1306 C   0  0  0  0  0  0  0  0  0  0  0  0
  1  2  1  0
  2  3  1  0
  3  4  1  0
  4  5  2  0
  5  6  1  0
  6  7  2  0
  7  8  1  0
  8  9  2  0
  9 10  1  0
 10 11  1  1
 11 12  1  0
 12 13  1  0
 13 14  2  0
 14 15  1  0
 15 16  2  0
 16 17  1  0
 17 18  1  0
 18 19  2  0
 19 20  1  0
 20 21  1  0
 20 22  1  0
 16 23  1  0
 23 24  2  0
 10 25  1  0
 25 26  1  0
  9 27  1  0
 27 28  2  0
 28  3  1  0
 28  6  1  0
 24 13  1  0
 22 17  2  0
M  END
>  <energy_score>  (232) 
-10.764997

>  <inchikey>  (232) 
None

>  <smiles>  (232) 
None

>  <ref_pdb>  (232) 
A0486a

>  <alias>  (232) 
None

>  <HIPPO Pose ID>  (232) 
497876

>  <name>  (232) 
P497876

>  <HIPPO Compound ID>  (232) 
289767

>  <ref_mols>  (232) 
A0486a,A0717a

>  <distance_score>  (232) 
1.793667

>  <inspiration_score>  (232) 
None

$$$$
P497877
     RDKit          3D

 28 31  0  0  0  0  0  0  0  0999 V2000
   22.5130   14.0969    1.6162 C   0  0  0  0  0  0  0  0  0  0  0  0
   21.6248   14.6013    2.7444 C   0  0  0  0  0  0  0  0  0  0  0  0
   20.2084   14.4369    2.4675 N   0  0  0  0  0  0  0  0  0  0  0  0
   19.7256   13.1756    2.3925 N   0  0  0  0  0  0  0  0  0  0  0  0
   18.6181   13.3102    1.6740 C   0  0  0  0  0  0  0  0  0  0  0  0
   18.2857   14.6554    1.4700 C   0  0  0  0  0  0  0  0  0  0  0  0
   17.2647   15.3123    0.7852 C   0  0  0  0  0  0  0  0  0  0  0  0
   17.1120   16.6773    0.9754 C   0  0  0  0  0  0  0  0  0  0  0  0
   17.9079   17.3763    1.8899 C   0  0  0  0  0  0  0  0  0  0  0  0
   17.4089   18.7376    2.3903 C   0  0  2  0  0  0  0  0  0  0  0  0
   15.9378   18.8541    2.4972 N   0  0  0  0  0  0  0  0  0  0  0  0
   15.3054   17.9607    3.4663 C   0  0  0  0  0  0  0  0  0  0  0  0
   13.9708   17.3670    3.0081 C   0  0  0  0  0  0  0  0  0  0  0  0
   12.7480   18.0489    3.1329 C   0  0  0  0  0  0  0  0  0  0  0  0
   11.5143   17.4351    2.7896 C   0  0  0  0  0  0  0  0  0  0  0  0
   11.4704   16.1336    2.2804 C   0  0  0  0  0  0  0  0  0  0  0  0
   10.2182   15.3957    2.0199 C   0  0  0  0  0  0  0  0  0  0  0  0
    9.1131   15.1676    2.8300 C   0  0  0  0  0  0  0  0  0  0  0  0
    8.3999   14.1218    2.2128 C   0  0  0  0  0  0  0  0  0  0  0  0
    8.9380   13.7743    1.0458 N   0  0  0  0  0  0  0  0  0  0  0  0
    9.9773   14.6171    0.9050 N   0  0  0  0  0  0  0  0  0  0  0  0
   10.7058   14.5980   -0.3435 C   0  0  0  0  0  0  0  0  0  0  0  0
   12.7031   15.4705    2.1256 C   0  0  0  0  0  0  0  0  0  0  0  0
   13.9228   16.0684    2.4883 C   0  0  0  0  0  0  0  0  0  0  0  0
   17.8789   19.6921    1.4456 O   0  0  0  0  0  0  0  0  0  0  0  0
   18.0652   20.9781    2.0202 C   0  0  0  0  0  0  0  0  0  0  0  0
   19.1023   16.7755    2.3696 C   0  0  0  0  0  0  0  0  0  0  0  0
   19.2539   15.3878    2.1572 C   0  0  0  0  0  0  0  0  0  0  0  0
  1  2  1  0
  2  3  1  0
  3  4  1  0
  4  5  2  0
  5  6  1  0
  6  7  2  0
  7  8  1  0
  8  9  2  0
  9 10  1  0
 10 11  1  6
 11 12  1  0
 12 13  1  0
 13 14  2  0
 14 15  1  0
 15 16  2  0
 16 17  1  0
 17 18  2  0
 18 19  1  0
 19 20  2  0
 20 21  1  0
 21 22  1  0
 16 23  1  0
 23 24  2  0
 10 25  1  0
 25 26  1  0
  9 27  1  0
 27 28  2  0
 28  3  1  0
 28  6  1  0
 24 13  1  0
 21 17  1  0
M  END
>  <energy_score>  (233) 
-31.588919

>  <inchikey>  (233) 
None

>  <smiles>  (233) 
None

>  <ref_pdb>  (233) 
A0486a

>  <alias>  (233) 
None

>  <HIPPO Pose ID>  (233) 
497877

>  <name>  (233) 
P497877

>  <HIPPO Compound ID>  (233) 
289768

>  <ref_mols>  (233) 
A0486a,A0717a

>  <distance_score>  (233) 
1.770793

>  <inspiration_score>  (233) 
None

$$$$
P497878
     RDKit          3D

 29 32  0  0  0  0  0  0  0  0999 V2000
    8.6294   14.4343   -0.3917 C   0  0  0  0  0  0  0  0  0  0  0  0
    8.4666   14.0371    0.9883 N   0  0  0  0  0  0  0  0  0  0  0  0
    7.6917   12.9686    1.2460 N   0  0  0  0  0  0  0  0  0  0  0  0
    7.5998   12.9542    2.5745 C   0  0  0  0  0  0  0  0  0  0  0  0
    8.3214   14.0046    3.1641 C   0  0  0  0  0  0  0  0  0  0  0  0
    8.9875   14.6258    2.1195 C   0  0  0  0  0  0  0  0  0  0  0  0
   10.0979   15.5781    2.1401 C   0  0  0  0  0  0  0  0  0  0  0  0
   10.1674   16.6207    3.0663 C   0  0  0  0  0  0  0  0  0  0  0  0
   11.3320   17.4001    3.1715 C   0  0  0  0  0  0  0  0  0  0  0  0
   12.4437   17.1730    2.3394 C   0  0  0  0  0  0  0  0  0  0  0  0
   13.6707   18.0564    2.4219 C   0  0  0  0  0  0  0  0  0  0  0  0
   14.9205   17.4058    2.8405 N   0  0  0  0  0  0  0  0  0  0  0  0
   15.6245   16.6672    1.8003 C   0  0  1  0  0  0  0  0  0  0  0  0
   15.4447   17.2568    0.5209 O   0  0  0  0  0  0  0  0  0  0  0  0
   17.1410   16.6122    2.0396 C   0  0  0  0  0  0  0  0  0  0  0  0
   17.8697   17.8542    2.0312 C   0  0  0  0  0  0  0  0  0  0  0  0
   19.2602   17.9464    2.1381 C   0  0  0  0  0  0  0  0  0  0  0  0
   19.8330   16.6901    2.2024 C   0  0  0  0  0  0  0  0  0  0  0  0
   21.1750   16.4732    2.1987 C   0  0  0  0  0  0  0  0  0  0  0  0
   21.3148   15.1148    2.1434 N   0  0  0  0  0  0  0  0  0  0  0  0
   22.5713   14.3836    1.9002 C   0  0  0  0  0  0  0  0  0  0  0  0
   22.3571   13.3444    0.7942 C   0  0  0  0  0  0  0  0  0  0  0  0
   23.7149   15.3030    1.3951 C   0  0  0  0  0  0  0  0  0  0  0  0
   23.0513   13.7314    3.1896 C   0  0  0  0  0  0  0  0  0  0  0  0
   20.1254   14.4476    2.2559 N   0  0  0  0  0  0  0  0  0  0  0  0
   19.1879   15.4121    2.2163 C   0  0  0  0  0  0  0  0  0  0  0  0
   17.7894   15.3453    2.1632 C   0  0  0  0  0  0  0  0  0  0  0  0
   12.3496   16.1571    1.3877 C   0  0  0  0  0  0  0  0  0  0  0  0
   11.2090   15.3560    1.3106 C   0  0  0  0  0  0  0  0  0  0  0  0
  1  2  1  0
  2  3  1  0
  3  4  2  0
  4  5  1  0
  5  6  2  0
  6  7  1  0
  7  8  2  0
  8  9  1  0
  9 10  2  0
 10 11  1  0
 11 12  1  0
 12 13  1  0
 13 14  1  6
 13 15  1  0
 15 16  1  0
 16 17  2  0
 17 18  1  0
 18 19  2  0
 19 20  1  0
 20 21  1  0
 21 22  1  0
 21 23  1  0
 21 24  1  0
 20 25  1  0
 25 26  2  0
 26 27  1  0
 10 28  1  0
 28 29  2  0
  6  2  1  0
 29  7  1  0
 27 15  2  0
 26 18  1  0
M  END
>  <energy_score>  (234) 
-52.447668

>  <inchikey>  (234) 
None

>  <smiles>  (234) 
None

>  <ref_pdb>  (234) 
A0486a

>  <alias>  (234) 
None

>  <HIPPO Pose ID>  (234) 
497878

>  <name>  (234) 
P497878

>  <HIPPO Compound ID>  (234) 
289769

>  <ref_mols>  (234) 
A0486a,A0717a

>  <distance_score>  (234) 
1.683828

>  <inspiration_score>  (234) 
None

$$$$
P497879
     RDKit          3D

 29 32  0  0  0  0  0  0  0  0999 V2000
    8.4645   11.8847    1.0105 C   0  0  0  0  0  0  0  0  0  0  0  0
    8.5311   13.1196    1.7528 N   0  0  0  0  0  0  0  0  0  0  0  0
    7.8095   13.4499    2.8553 C   0  0  0  0  0  0  0  0  0  0  0  0
    8.2621   14.6909    3.2406 C   0  0  0  0  0  0  0  0  0  0  0  0
    9.2836   15.0346    2.3128 C   0  0  0  0  0  0  0  0  0  0  0  0
   10.2505   16.1457    2.3464 C   0  0  0  0  0  0  0  0  0  0  0  0
   10.4736   16.9151    3.4985 C   0  0  0  0  0  0  0  0  0  0  0  0
   11.6126   17.7384    3.6062 C   0  0  0  0  0  0  0  0  0  0  0  0
   12.5352   17.8326    2.5544 C   0  0  0  0  0  0  0  0  0  0  0  0
   13.8549   18.5788    2.6915 C   0  0  0  0  0  0  0  0  0  0  0  0
   14.9560   17.6291    2.5399 N   0  0  0  0  0  0  0  0  0  0  0  0
   16.2885   18.1994    2.4621 C   0  0  2  0  0  0  0  0  0  0  0  0
   16.3529   19.0924    1.3750 O   0  0  0  0  0  0  0  0  0  0  0  0
   17.3524   17.1178    2.2176 C   0  0  0  0  0  0  0  0  0  0  0  0
   16.9540   15.8684    1.6107 C   0  0  0  0  0  0  0  0  0  0  0  0
   17.7955   14.7643    1.3776 C   0  0  0  0  0  0  0  0  0  0  0  0
   19.0860   15.0525    1.7708 C   0  0  0  0  0  0  0  0  0  0  0  0
   20.1637   14.2271    1.6151 C   0  0  0  0  0  0  0  0  0  0  0  0
   21.2409   14.9664    2.0239 N   0  0  0  0  0  0  0  0  0  0  0  0
   22.6733   14.6897    1.8153 C   0  0  0  0  0  0  0  0  0  0  0  0
   22.9269   13.4075    1.0120 C   0  0  0  0  0  0  0  0  0  0  0  0
   23.3065   15.8502    1.0107 C   0  0  0  0  0  0  0  0  0  0  0  0
   23.4073   14.5551    3.1495 C   0  0  0  0  0  0  0  0  0  0  0  0
   20.8824   16.1671    2.5341 N   0  0  0  0  0  0  0  0  0  0  0  0
   19.5647   16.2735    2.3284 C   0  0  0  0  0  0  0  0  0  0  0  0
   18.7054   17.3591    2.5716 C   0  0  0  0  0  0  0  0  0  0  0  0
   12.2475   17.1539    1.3626 C   0  0  0  0  0  0  0  0  0  0  0  0
   11.1284   16.3211    1.2643 C   0  0  0  0  0  0  0  0  0  0  0  0
    9.3970   14.0725    1.3788 N   0  0  0  0  0  0  0  0  0  0  0  0
  1  2  1  0
  2  3  1  0
  3  4  2  0
  4  5  1  0
  5  6  1  0
  6  7  2  0
  7  8  1  0
  8  9  2  0
  9 10  1  0
 10 11  1  0
 11 12  1  0
 12 13  1  6
 12 14  1  0
 14 15  1  0
 15 16  2  0
 16 17  1  0
 17 18  2  0
 18 19  1  0
 19 20  1  0
 20 21  1  0
 20 22  1  0
 20 23  1  0
 19 24  1  0
 24 25  2  0
 25 26  1  0
  9 27  1  0
 27 28  2  0
  5 29  2  0
 29  2  1  0
 28  6  1  0
 26 14  2  0
 25 17  1  0
M  END
>  <energy_score>  (235) 
-47.308497

>  <inchikey>  (235) 
None

>  <smiles>  (235) 
None

>  <ref_pdb>  (235) 
A0486a

>  <alias>  (235) 
None

>  <HIPPO Pose ID>  (235) 
497879

>  <name>  (235) 
P497879

>  <HIPPO Compound ID>  (235) 
289770

>  <ref_mols>  (235) 
A0486a,A0717a

>  <distance_score>  (235) 
1.871828

>  <inspiration_score>  (235) 
None

$$$$
P497880
     RDKit          3D

 29 32  0  0  0  0  0  0  0  0999 V2000
    7.6614   11.7016    0.7437 C   0  0  0  0  0  0  0  0  0  0  0  0
    8.0647   12.8777    1.4751 N   0  0  0  0  0  0  0  0  0  0  0  0
    7.5167   13.3522    2.6249 C   0  0  0  0  0  0  0  0  0  0  0  0
    8.2586   14.4581    2.9663 C   0  0  0  0  0  0  0  0  0  0  0  0
    9.2678   14.5551    1.9712 C   0  0  0  0  0  0  0  0  0  0  0  0
   10.4803   15.3743    1.9803 C   0  0  0  0  0  0  0  0  0  0  0  0
   10.5849   16.5776    2.6826 C   0  0  0  0  0  0  0  0  0  0  0  0
   11.8476   17.1551    2.9052 C   0  0  0  0  0  0  0  0  0  0  0  0
   13.0240   16.5334    2.4470 C   0  0  0  0  0  0  0  0  0  0  0  0
   14.3918   17.0809    2.7915 C   0  0  0  0  0  0  0  0  0  0  0  0
   14.9787   17.8334    1.6937 N   0  0  0  0  0  0  0  0  0  0  0  0
   15.9026   17.0662    0.8812 C   0  0  1  0  0  0  0  0  0  0  0  0
   16.0342   17.7881   -0.3250 O   0  0  0  0  0  0  0  0  0  0  0  0
   17.3038   16.9046    1.4666 C   0  0  0  0  0  0  0  0  0  0  0  0
   18.0604   18.0848    1.7843 C   0  0  0  0  0  0  0  0  0  0  0  0
   19.3941   18.0713    2.2087 C   0  0  0  0  0  0  0  0  0  0  0  0
   19.8942   16.7828    2.2214 C   0  0  0  0  0  0  0  0  0  0  0  0
   21.2131   16.4879    2.3732 C   0  0  0  0  0  0  0  0  0  0  0  0
   21.3034   15.1444    2.1329 N   0  0  0  0  0  0  0  0  0  0  0  0
   22.5491   14.3944    1.8905 C   0  0  0  0  0  0  0  0  0  0  0  0
   22.3343   13.3446    0.7940 C   0  0  0  0  0  0  0  0  0  0  0  0
   23.0211   13.7490    3.1850 C   0  0  0  0  0  0  0  0  0  0  0  0
   23.6920   15.3068    1.3715 C   0  0  0  0  0  0  0  0  0  0  0  0
   20.0822   14.5375    2.0411 N   0  0  0  0  0  0  0  0  0  0  0  0
   19.2107   15.5580    1.9423 C   0  0  0  0  0  0  0  0  0  0  0  0
   17.8560   15.5904    1.5872 C   0  0  0  0  0  0  0  0  0  0  0  0
   12.9045   15.3724    1.6798 C   0  0  0  0  0  0  0  0  0  0  0  0
   11.6505   14.8153    1.4338 C   0  0  0  0  0  0  0  0  0  0  0  0
    9.0944   13.6119    1.0324 N   0  0  0  0  0  0  0  0  0  0  0  0
  1  2  1  0
  2  3  1  0
  3  4  2  0
  4  5  1  0
  5  6  1  0
  6  7  2  0
  7  8  1  0
  8  9  2  0
  9 10  1  0
 10 11  1  0
 11 12  1  0
 12 13  1  6
 12 14  1  0
 14 15  1  0
 15 16  2  0
 16 17  1  0
 17 18  2  0
 18 19  1  0
 19 20  1  0
 20 21  1  0
 20 22  1  0
 20 23  1  0
 19 24  1  0
 24 25  2  0
 25 26  1  0
  9 27  1  0
 27 28  2  0
  5 29  2  0
 29  2  1  0
 28  6  1  0
 26 14  2  0
 25 17  1  0
M  END
>  <energy_score>  (236) 
-54.60094

>  <inchikey>  (236) 
None

>  <smiles>  (236) 
None

>  <ref_pdb>  (236) 
A0486a

>  <alias>  (236) 
None

>  <HIPPO Pose ID>  (236) 
497880

>  <name>  (236) 
P497880

>  <HIPPO Compound ID>  (236) 
289770

>  <ref_mols>  (236) 
A0486a,A0717a

>  <distance_score>  (236) 
1.952379

>  <inspiration_score>  (236) 
None

$$$$
P497881
     RDKit          3D

 32 35  0  0  0  0  0  0  0  0999 V2000
   11.0866   13.5276    0.3280 C   0  0  0  0  0  0  0  0  0  0  0  0
   10.0760   14.0823    1.2030 N   0  0  0  0  0  0  0  0  0  0  0  0
    9.0398   13.2896    1.5287 N   0  0  0  0  0  0  0  0  0  0  0  0
    8.3660   13.9884    2.4360 C   0  0  0  0  0  0  0  0  0  0  0  0
    8.9543   15.2436    2.6748 C   0  0  0  0  0  0  0  0  0  0  0  0
   10.0701   15.3076    1.8512 C   0  0  0  0  0  0  0  0  0  0  0  0
   11.1137   16.3422    1.7048 C   0  0  0  0  0  0  0  0  0  0  0  0
   11.6708   16.6479    0.4513 C   0  0  0  0  0  0  0  0  0  0  0  0
   12.7943   17.4893    0.3175 C   0  0  0  0  0  0  0  0  0  0  0  0
   13.3972   18.0749    1.4358 C   0  0  0  0  0  0  0  0  0  0  0  0
   14.6392   18.9601    1.3174 C   0  0  0  0  0  0  0  0  0  0  0  0
   15.6911   18.3678    0.4709 N   0  0  0  0  0  0  0  0  0  0  0  0
   17.0622   18.5941    0.9366 C   0  0  2  0  0  0  0  0  0  0  0  0
   17.8072   18.8175   -0.2438 O   0  0  0  0  0  0  0  0  0  0  0  0
   17.6372   17.3805    1.6811 C   0  0  0  0  0  0  0  0  0  0  0  0
   16.7800   16.7166    2.5676 C   0  0  0  0  0  0  0  0  0  0  0  0
   17.0978   15.4943    3.1351 C   0  0  0  0  0  0  0  0  0  0  0  0
   18.3290   14.9237    2.8295 C   0  0  0  0  0  0  0  0  0  0  0  0
   18.9184   13.6995    3.1355 C   0  0  0  0  0  0  0  0  0  0  0  0
   20.1228   13.5610    2.6025 N   0  0  0  0  0  0  0  0  0  0  0  0
   20.4008   14.7923    2.0524 N   0  0  0  0  0  0  0  0  0  0  0  0
   21.7129   15.0992    1.6173 C   0  0  0  0  0  0  0  0  0  0  0  0
   22.0185   16.2461    1.3287 O   0  0  0  0  0  0  0  0  0  0  0  0
   22.4849   13.9807    1.6192 O   0  0  0  0  0  0  0  0  0  0  0  0
   23.9384   14.0074    1.5633 C   0  0  0  0  0  0  0  0  0  0  0  0
   24.4551   14.1247    3.0002 C   0  0  0  0  0  0  0  0  0  0  0  0
   24.3753   12.6464    0.9993 C   0  0  0  0  0  0  0  0  0  0  0  0
   24.5162   15.1054    0.6642 C   0  0  0  0  0  0  0  0  0  0  0  0
   19.2670   15.6181    2.0708 C   0  0  0  0  0  0  0  0  0  0  0  0
   18.9533   16.8751    1.4979 C   0  0  0  0  0  0  0  0  0  0  0  0
   12.7807   17.8529    2.6801 C   0  0  0  0  0  0  0  0  0  0  0  0
   11.6576   17.0052    2.8122 C   0  0  0  0  0  0  0  0  0  0  0  0
  1  2  1  0
  2  3  1  0
  3  4  2  0
  4  5  1  0
  5  6  2  0
  6  7  1  0
  7  8  2  0
  8  9  1  0
  9 10  2  0
 10 11  1  0
 11 12  1  0
 12 13  1  0
 13 14  1  6
 13 15  1  0
 15 16  2  0
 16 17  1  0
 17 18  2  0
 18 19  1  0
 19 20  2  0
 20 21  1  0
 21 22  1  0
 22 23  2  0
 22 24  1  0
 24 25  1  0
 25 26  1  0
 25 27  1  0
 25 28  1  0
 21 29  1  0
 29 30  2  0
 10 31  1  0
 31 32  2  0
  6  2  1  0
 32  7  1  0
 30 15  1  0
 29 18  1  0
M  END
>  <energy_score>  (237) 
-40.56359

>  <inchikey>  (237) 
None

>  <smiles>  (237) 
None

>  <ref_pdb>  (237) 
A0486a

>  <alias>  (237) 
None

>  <HIPPO Pose ID>  (237) 
497881

>  <name>  (237) 
P497881

>  <HIPPO Compound ID>  (237) 
289771

>  <ref_mols>  (237) 
A0486a,A0717a

>  <distance_score>  (237) 
1.74801

>  <inspiration_score>  (237) 
None

$$$$
P497882
     RDKit          3D

 32 35  0  0  0  0  0  0  0  0999 V2000
    8.8029   12.4470    0.9466 C   0  0  0  0  0  0  0  0  0  0  0  0
    8.9977   13.6748    1.6792 N   0  0  0  0  0  0  0  0  0  0  0  0
    8.2118   14.1651    2.6727 C   0  0  0  0  0  0  0  0  0  0  0  0
    8.8035   15.3421    3.0726 C   0  0  0  0  0  0  0  0  0  0  0  0
    9.9753   15.4797    2.2762 C   0  0  0  0  0  0  0  0  0  0  0  0
   11.0795   16.4594    2.3725 C   0  0  0  0  0  0  0  0  0  0  0  0
   11.3827   17.1671    3.5474 C   0  0  0  0  0  0  0  0  0  0  0  0
   12.5656   17.9434    3.6565 C   0  0  0  0  0  0  0  0  0  0  0  0
   13.4705   18.0558    2.5885 C   0  0  0  0  0  0  0  0  0  0  0  0
   14.7551   18.8847    2.6734 C   0  0  0  0  0  0  0  0  0  0  0  0
   15.8030   18.2815    3.5146 N   0  0  0  0  0  0  0  0  0  0  0  0
   17.1803   18.5135    3.0348 C   0  0  1  0  0  0  0  0  0  0  0  0
   17.9305   18.7279    4.2122 O   0  0  0  0  0  0  0  0  0  0  0  0
   17.7874   17.3067    2.3050 C   0  0  0  0  0  0  0  0  0  0  0  0
   16.9416   16.5877    1.4553 C   0  0  0  0  0  0  0  0  0  0  0  0
   17.2276   15.2893    1.0722 C   0  0  0  0  0  0  0  0  0  0  0  0
   18.4268   14.7226    1.4964 C   0  0  0  0  0  0  0  0  0  0  0  0
   18.9450   13.4293    1.4532 C   0  0  0  0  0  0  0  0  0  0  0  0
   20.1594   13.3576    1.9717 N   0  0  0  0  0  0  0  0  0  0  0  0
   20.5267   14.6648    2.1869 N   0  0  0  0  0  0  0  0  0  0  0  0
   21.8994   14.9868    2.3513 C   0  0  0  0  0  0  0  0  0  0  0  0
   22.2570   16.1364    2.5593 O   0  0  0  0  0  0  0  0  0  0  0  0
   22.6608   13.8753    2.1488 O   0  0  0  0  0  0  0  0  0  0  0  0
   24.1121   13.8793    2.1016 C   0  0  0  0  0  0  0  0  0  0  0  0
   24.6630   14.9978    1.2410 C   0  0  0  0  0  0  0  0  0  0  0  0
   24.5330   12.5511    1.4553 C   0  0  0  0  0  0  0  0  0  0  0  0
   24.6981   13.9684    3.5004 C   0  0  0  0  0  0  0  0  0  0  0  0
   19.3996   15.5020    2.1236 C   0  0  0  0  0  0  0  0  0  0  0  0
   19.1132   16.8327    2.5108 C   0  0  0  0  0  0  0  0  0  0  0  0
   13.1364   17.3901    1.3996 C   0  0  0  0  0  0  0  0  0  0  0  0
   11.9734   16.6038    1.2989 C   0  0  0  0  0  0  0  0  0  0  0  0
   10.0702   14.4433    1.4215 N   0  0  0  0  0  0  0  0  0  0  0  0
  1  2  1  0
  2  3  1  0
  3  4  2  0
  4  5  1  0
  5  6  1  0
  6  7  2  0
  7  8  1  0
  8  9  2  0
  9 10  1  0
 10 11  1  0
 11 12  1  0
 12 13  1  1
 12 14  1  0
 14 15  2  0
 15 16  1  0
 16 17  2  0
 17 18  1  0
 18 19  2  0
 19 20  1  0
 20 21  1  0
 21 22  2  0
 21 23  1  0
 23 24  1  0
 24 25  1  0
 24 26  1  0
 24 27  1  0
 20 28  1  0
 28 29  2  0
  9 30  1  0
 30 31  2  0
  5 32  2  0
 32  2  1  0
 31  6  1  0
 29 14  1  0
 28 17  1  0
M  END
>  <energy_score>  (238) 
-32.893341

>  <inchikey>  (238) 
None

>  <smiles>  (238) 
None

>  <ref_pdb>  (238) 
A0486a

>  <alias>  (238) 
None

>  <HIPPO Pose ID>  (238) 
497882

>  <name>  (238) 
P497882

>  <HIPPO Compound ID>  (238) 
289772

>  <ref_mols>  (238) 
A0486a,A0717a

>  <distance_score>  (238) 
1.817291

>  <inspiration_score>  (238) 
None

$$$$
P497883
     RDKit          3D

 22 24  0  0  0  0  0  0  0  0999 V2000
   11.6855   14.5208   18.4365 C   0  0  0  0  0  0  0  0  0  0  0  0
   10.8908   14.9585   19.5744 C   0  0  0  0  0  0  0  0  0  0  0  0
    9.7819   15.7243   19.3881 O   0  0  0  0  0  0  0  0  0  0  0  0
    9.4125   16.0384   20.6588 C   0  0  0  0  0  0  0  0  0  0  0  0
   10.1429   15.4838   21.6017 N   0  0  0  0  0  0  0  0  0  0  0  0
   11.1367   14.8563   20.9136 C   0  0  0  0  0  0  0  0  0  0  0  0
   12.3623   14.2966   21.5153 C   0  0  0  0  0  0  0  0  0  0  0  0
   12.3058   14.1662   23.0095 C   0  0  0  0  0  0  0  0  0  0  0  0
   11.3563   13.2078   23.4471 N   0  0  0  0  0  0  0  0  0  0  0  0
   10.3299   13.2719   24.5719 C   0  0  0  0  0  0  0  0  0  0  0  0
   10.1426   14.0903   25.3768 O   0  0  0  0  0  0  0  0  0  0  0  0
    9.5422   12.0424   24.4892 C   0  0  0  0  0  0  0  0  0  0  0  0
    9.9164   11.0471   23.6634 N   0  0  0  0  0  0  0  0  0  0  0  0
    9.0761   10.0452   23.9496 N   0  0  0  0  0  0  0  0  0  0  0  0
    9.2500    8.8015   23.2388 C   0  0  0  0  0  0  0  0  0  0  0  0
    8.1503   10.3734   24.9116 C   0  0  0  0  0  0  0  0  0  0  0  0
    7.1308    9.6571   25.5380 C   0  0  0  0  0  0  0  0  0  0  0  0
    6.3384   10.3174   26.4800 C   0  0  0  0  0  0  0  0  0  0  0  0
    6.5624   11.6528   26.7790 C   0  0  0  0  0  0  0  0  0  0  0  0
    5.7917   12.2537   27.6954 F   0  0  0  0  0  0  0  0  0  0  0  0
    7.5878   12.3676   26.1742 C   0  0  0  0  0  0  0  0  0  0  0  0
    8.3965   11.7047   25.2349 C   0  0  0  0  0  0  0  0  0  0  0  0
  1  2  1  0
  2  3  1  0
  3  4  1  0
  4  5  2  0
  5  6  1  0
  6  7  1  0
  7  8  1  0
  8  9  1  0
  9 10  1  0
 10 11  2  0
 10 12  1  0
 12 13  2  0
 13 14  1  0
 14 15  1  0
 14 16  1  0
 16 17  2  0
 17 18  1  0
 18 19  2  0
 19 20  1  0
 19 21  1  0
 21 22  2  0
  6  2  2  0
 22 12  1  0
 22 16  1  0
M  END
>  <energy_score>  (239) 
-21.210933

>  <inchikey>  (239) 
None

>  <smiles>  (239) 
None

>  <ref_pdb>  (239) 
A2290a

>  <alias>  (239) 
None

>  <HIPPO Pose ID>  (239) 
497883

>  <name>  (239) 
P497883

>  <HIPPO Compound ID>  (239) 
250891

>  <ref_mols>  (239) 
A2290a,A3436a

>  <distance_score>  (239) 
0.738298

>  <inspiration_score>  (239) 
None

$$$$
P497884
     RDKit          3D

 22 24  0  0  0  0  0  0  0  0999 V2000
    8.5927   17.4018   20.7008 C   0  0  0  0  0  0  0  0  0  0  0  0
    9.5635   16.3208   20.4676 C   0  0  0  0  0  0  0  0  0  0  0  0
   10.3373   15.7219   21.3450 N   0  0  0  0  0  0  0  0  0  0  0  0
   11.1630   14.9388   20.5868 C   0  0  0  0  0  0  0  0  0  0  0  0
   12.3878   14.3359   21.1521 C   0  0  0  0  0  0  0  0  0  0  0  0
   12.3328   14.1895   22.6558 C   0  0  0  0  0  0  0  0  0  0  0  0
   11.3208   13.2806   23.0847 N   0  0  0  0  0  0  0  0  0  0  0  0
   10.4662   13.2717   24.3498 C   0  0  0  0  0  0  0  0  0  0  0  0
   10.3915   14.0455   25.2159 O   0  0  0  0  0  0  0  0  0  0  0  0
    9.6707   12.0407   24.3285 C   0  0  0  0  0  0  0  0  0  0  0  0
   10.0077   11.0205   23.5171 N   0  0  0  0  0  0  0  0  0  0  0  0
    9.1711   10.0323   23.8635 N   0  0  0  0  0  0  0  0  0  0  0  0
    9.3129    8.7637   23.1918 C   0  0  0  0  0  0  0  0  0  0  0  0
    8.2671   10.3951   24.8328 C   0  0  0  0  0  0  0  0  0  0  0  0
    7.2493    9.7034   25.4934 C   0  0  0  0  0  0  0  0  0  0  0  0
    6.4814   10.3975   26.4314 C   0  0  0  0  0  0  0  0  0  0  0  0
    6.7304   11.7367   26.6950 C   0  0  0  0  0  0  0  0  0  0  0  0
    5.9850   12.3699   27.6106 F   0  0  0  0  0  0  0  0  0  0  0  0
    7.7554   12.4241   26.0556 C   0  0  0  0  0  0  0  0  0  0  0  0
    8.5401   11.7306   25.1169 C   0  0  0  0  0  0  0  0  0  0  0  0
   10.7618   14.9994   19.2786 C   0  0  0  0  0  0  0  0  0  0  0  0
    9.7280   15.8804   19.1878 O   0  0  0  0  0  0  0  0  0  0  0  0
  1  2  1  0
  2  3  2  0
  3  4  1  0
  4  5  1  0
  5  6  1  0
  6  7  1  0
  7  8  1  0
  8  9  2  0
  8 10  1  0
 10 11  2  0
 11 12  1  0
 12 13  1  0
 12 14  1  0
 14 15  2  0
 15 16  1  0
 16 17  2  0
 17 18  1  0
 17 19  1  0
 19 20  2  0
  4 21  2  0
 21 22  1  0
 22  2  1  0
 20 10  1  0
 20 14  1  0
M  END
>  <energy_score>  (240) 
-10.521861

>  <inchikey>  (240) 
None

>  <smiles>  (240) 
None

>  <ref_pdb>  (240) 
A2290a

>  <alias>  (240) 
None

>  <HIPPO Pose ID>  (240) 
497884

>  <name>  (240) 
P497884

>  <HIPPO Compound ID>  (240) 
289825

>  <ref_mols>  (240) 
A2290a,A3436a

>  <distance_score>  (240) 
0.533466

>  <inspiration_score>  (240) 
None

$$$$
P497885
     RDKit          3D

 22 24  0  0  0  0  0  0  0  0999 V2000
   12.6559   15.0012   22.0682 C   0  0  0  0  0  0  0  0  0  0  0  0
   11.9101   13.9972   21.2454 C   0  0  2  0  0  0  0  0  0  0  0  0
   11.2887   14.5532   19.9653 C   0  0  0  0  0  0  0  0  0  0  0  0
   10.2368   15.5871   20.0247 C   0  0  0  0  0  0  0  0  0  0  0  0
    9.8739   16.4356   18.9998 C   0  0  0  0  0  0  0  0  0  0  0  0
    9.0104   17.3558   19.4876 O   0  0  0  0  0  0  0  0  0  0  0  0
    8.8537   16.9785   20.7807 C   0  0  0  0  0  0  0  0  0  0  0  0
    9.5237   15.9030   21.1428 N   0  0  0  0  0  0  0  0  0  0  0  0
   11.0675   13.1212   22.0164 N   0  0  0  0  0  0  0  0  0  0  0  0
   10.4702   13.2914   23.4228 C   0  0  0  0  0  0  0  0  0  0  0  0
   10.5008   14.2004   24.1522 O   0  0  0  0  0  0  0  0  0  0  0  0
    9.7536   12.0491   23.7589 C   0  0  0  0  0  0  0  0  0  0  0  0
   10.0250   10.9209   23.0831 N   0  0  0  0  0  0  0  0  0  0  0  0
    9.2582    9.9859   23.6526 N   0  0  0  0  0  0  0  0  0  0  0  0
    9.3292    8.6483   23.1219 C   0  0  0  0  0  0  0  0  0  0  0  0
    8.4454   10.4701   24.6475 C   0  0  0  0  0  0  0  0  0  0  0  0
    7.4791    9.8642   25.4596 C   0  0  0  0  0  0  0  0  0  0  0  0
    6.7999   10.6711   26.3750 C   0  0  0  0  0  0  0  0  0  0  0  0
    7.0879   12.0266   26.4700 C   0  0  0  0  0  0  0  0  0  0  0  0
    6.4343   12.7687   27.3744 F   0  0  0  0  0  0  0  0  0  0  0  0
    8.0526   12.6292   25.6647 C   0  0  0  0  0  0  0  0  0  0  0  0
    8.7452   11.8307   24.7361 C   0  0  0  0  0  0  0  0  0  0  0  0
  2  1  1  1
  2  3  1  0
  3  4  1  0
  4  5  2  0
  5  6  1  0
  6  7  1  0
  7  8  2  0
  2  9  1  0
  9 10  1  0
 10 11  2  0
 10 12  1  0
 12 13  2  0
 13 14  1  0
 14 15  1  0
 14 16  1  0
 16 17  2  0
 17 18  1  0
 18 19  2  0
 19 20  1  0
 19 21  1  0
 21 22  2  0
  8  4  1  0
 22 12  1  0
 22 16  1  0
M  END
>  <energy_score>  (241) 
-2.102867

>  <inchikey>  (241) 
None

>  <smiles>  (241) 
None

>  <ref_pdb>  (241) 
A2290a

>  <alias>  (241) 
None

>  <HIPPO Pose ID>  (241) 
497885

>  <name>  (241) 
P497885

>  <HIPPO Compound ID>  (241) 
191887

>  <ref_mols>  (241) 
A2290a,A3436a

>  <distance_score>  (241) 
0.710331

>  <inspiration_score>  (241) 
None

$$$$
P497886
     RDKit          3D

 22 24  0  0  0  0  0  0  0  0999 V2000
   12.8131   14.4570   21.7113 C   0  0  0  0  0  0  0  0  0  0  0  0
   11.3167   14.6094   21.7691 C   0  0  1  0  0  0  0  0  0  0  0  0
   10.7284   14.6531   20.3572 C   0  0  0  0  0  0  0  0  0  0  0  0
    9.9176   15.8538   20.0666 C   0  0  0  0  0  0  0  0  0  0  0  0
    9.8229   16.5783   18.9024 C   0  0  0  0  0  0  0  0  0  0  0  0
    9.0175   17.6481   19.1247 O   0  0  0  0  0  0  0  0  0  0  0  0
    8.6802   17.5238   20.4362 C   0  0  0  0  0  0  0  0  0  0  0  0
    9.1309   16.4365   21.0206 N   0  0  0  0  0  0  0  0  0  0  0  0
   10.7750   13.4863   22.4980 N   0  0  0  0  0  0  0  0  0  0  0  0
   10.3092   13.3749   23.9513 C   0  0  0  0  0  0  0  0  0  0  0  0
   10.3566   14.1477   24.8209 O   0  0  0  0  0  0  0  0  0  0  0  0
    9.6628   12.0706   24.1086 C   0  0  0  0  0  0  0  0  0  0  0  0
   10.0066   11.0316   23.3294 N   0  0  0  0  0  0  0  0  0  0  0  0
    9.2393   10.0208   23.7647 N   0  0  0  0  0  0  0  0  0  0  0  0
    9.3846    8.7343   23.1274 C   0  0  0  0  0  0  0  0  0  0  0  0
    8.3634   10.3876   24.7589 C   0  0  0  0  0  0  0  0  0  0  0  0
    7.3821    9.6895   25.4672 C   0  0  0  0  0  0  0  0  0  0  0  0
    6.6273   10.3901   26.4113 C   0  0  0  0  0  0  0  0  0  0  0  0
    6.8548   11.7407   26.6341 C   0  0  0  0  0  0  0  0  0  0  0  0
    6.1237   12.3814   27.5560 F   0  0  0  0  0  0  0  0  0  0  0  0
    7.8386   12.4366   25.9395 C   0  0  0  0  0  0  0  0  0  0  0  0
    8.6094   11.7378   24.9925 C   0  0  0  0  0  0  0  0  0  0  0  0
  2  1  1  6
  2  3  1  0
  3  4  1  0
  4  5  2  0
  5  6  1  0
  6  7  1  0
  7  8  2  0
  2  9  1  0
  9 10  1  0
 10 11  2  0
 10 12  1  0
 12 13  2  0
 13 14  1  0
 14 15  1  0
 14 16  1  0
 16 17  2  0
 17 18  1  0
 18 19  2  0
 19 20  1  0
 19 21  1  0
 21 22  2  0
  8  4  1  0
 22 12  1  0
 22 16  1  0
M  END
>  <energy_score>  (242) 
-35.719812

>  <inchikey>  (242) 
None

>  <smiles>  (242) 
None

>  <ref_pdb>  (242) 
A2290a

>  <alias>  (242) 
None

>  <HIPPO Pose ID>  (242) 
497886

>  <name>  (242) 
P497886

>  <HIPPO Compound ID>  (242) 
191887

>  <ref_mols>  (242) 
A2290a,A3436a

>  <distance_score>  (242) 
0.84842

>  <inspiration_score>  (242) 
None

$$$$
P497887
     RDKit          3D

 22 24  0  0  0  0  0  0  0  0999 V2000
   11.6966   14.4550   18.6093 C   0  0  0  0  0  0  0  0  0  0  0  0
   10.8338   15.0270   19.6373 C   0  0  0  0  0  0  0  0  0  0  0  0
    9.7565   15.7665   19.2307 O   0  0  0  0  0  0  0  0  0  0  0  0
    9.2965   16.3107   20.3849 C   0  0  0  0  0  0  0  0  0  0  0  0
    9.8905   15.8724   21.4616 N   0  0  0  0  0  0  0  0  0  0  0  0
   10.9664   15.1886   20.9932 C   0  0  0  0  0  0  0  0  0  0  0  0
   12.1433   14.9923   21.8619 C   0  0  0  0  0  0  0  0  0  0  0  0
   12.4684   13.5725   22.2064 C   0  0  0  0  0  0  0  0  0  0  0  0
   11.3850   12.8506   22.7595 N   0  0  0  0  0  0  0  0  0  0  0  0
   10.5988   13.0723   24.0543 C   0  0  0  0  0  0  0  0  0  0  0  0
   10.6633   13.9299   24.8400 O   0  0  0  0  0  0  0  0  0  0  0  0
    9.7039   11.9209   24.1764 C   0  0  0  0  0  0  0  0  0  0  0  0
    9.9426   10.8460   23.4069 N   0  0  0  0  0  0  0  0  0  0  0  0
    9.0864    9.9225   23.8366 N   0  0  0  0  0  0  0  0  0  0  0  0
    9.1635    8.6271   23.2140 C   0  0  0  0  0  0  0  0  0  0  0  0
    8.2419   10.3786   24.8188 C   0  0  0  0  0  0  0  0  0  0  0  0
    7.2082    9.7765   25.5388 C   0  0  0  0  0  0  0  0  0  0  0  0
    6.5128   10.5549   26.4683 C   0  0  0  0  0  0  0  0  0  0  0  0
    6.8471   11.8908   26.6695 C   0  0  0  0  0  0  0  0  0  0  0  0
    5.8874   12.9054   27.9449 Br  0  0  0  0  0  0  0  0  0  0  0  0
    7.8911   12.4884   25.9629 C   0  0  0  0  0  0  0  0  0  0  0  0
    8.5996   11.7110   25.0292 C   0  0  0  0  0  0  0  0  0  0  0  0
  1  2  1  0
  2  3  1  0
  3  4  1  0
  4  5  2  0
  5  6  1  0
  6  7  1  0
  7  8  1  0
  8  9  1  0
  9 10  1  0
 10 11  2  0
 10 12  1  0
 12 13  2  0
 13 14  1  0
 14 15  1  0
 14 16  1  0
 16 17  2  0
 17 18  1  0
 18 19  2  0
 19 20  1  0
 19 21  1  0
 21 22  2  0
  6  2  2  0
 22 12  1  0
 22 16  1  0
M  END
>  <energy_score>  (243) 
-15.168538

>  <inchikey>  (243) 
None

>  <smiles>  (243) 
None

>  <ref_pdb>  (243) 
A2290a

>  <alias>  (243) 
None

>  <HIPPO Pose ID>  (243) 
497887

>  <name>  (243) 
P497887

>  <HIPPO Compound ID>  (243) 
289826

>  <ref_mols>  (243) 
A2290a,A3436a

>  <distance_score>  (243) 
0.510567

>  <inspiration_score>  (243) 
None

$$$$
P497888
     RDKit          3D

 22 24  0  0  0  0  0  0  0  0999 V2000
    8.5921   17.3952   20.7109 C   0  0  0  0  0  0  0  0  0  0  0  0
    9.5605   16.3121   20.4776 C   0  0  0  0  0  0  0  0  0  0  0  0
   10.3313   15.7087   21.3549 N   0  0  0  0  0  0  0  0  0  0  0  0
   11.1568   14.9273   20.5950 C   0  0  0  0  0  0  0  0  0  0  0  0
   12.3866   14.3293   21.1529 C   0  0  0  0  0  0  0  0  0  0  0  0
   12.3599   14.2073   22.6592 C   0  0  0  0  0  0  0  0  0  0  0  0
   11.4154   13.2465   23.1263 N   0  0  0  0  0  0  0  0  0  0  0  0
   10.4879   13.2743   24.3403 C   0  0  0  0  0  0  0  0  0  0  0  0
   10.3958   14.0509   25.2027 O   0  0  0  0  0  0  0  0  0  0  0  0
    9.6870   12.0456   24.3062 C   0  0  0  0  0  0  0  0  0  0  0  0
   10.0354   11.0248   23.5012 N   0  0  0  0  0  0  0  0  0  0  0  0
    9.1958   10.0350   23.8371 N   0  0  0  0  0  0  0  0  0  0  0  0
    9.3413    8.7669   23.1640 C   0  0  0  0  0  0  0  0  0  0  0  0
    8.2898   10.3937   24.8062 C   0  0  0  0  0  0  0  0  0  0  0  0
    7.2801    9.6950   25.4694 C   0  0  0  0  0  0  0  0  0  0  0  0
    6.5010   10.3834   26.4034 C   0  0  0  0  0  0  0  0  0  0  0  0
    6.7310   11.7302   26.6639 C   0  0  0  0  0  0  0  0  0  0  0  0
    5.6552   12.6266   27.9344 Br  0  0  0  0  0  0  0  0  0  0  0  0
    7.7569   12.4218   26.0213 C   0  0  0  0  0  0  0  0  0  0  0  0
    8.5512   11.7313   25.0867 C   0  0  0  0  0  0  0  0  0  0  0  0
   10.7571   14.9924   19.2863 C   0  0  0  0  0  0  0  0  0  0  0  0
    9.7261   15.8764   19.1965 O   0  0  0  0  0  0  0  0  0  0  0  0
  1  2  1  0
  2  3  2  0
  3  4  1  0
  4  5  1  0
  5  6  1  0
  6  7  1  0
  7  8  1  0
  8  9  2  0
  8 10  1  0
 10 11  2  0
 11 12  1  0
 12 13  1  0
 12 14  1  0
 14 15  2  0
 15 16  1  0
 16 17  2  0
 17 18  1  0
 17 19  1  0
 19 20  2  0
  4 21  2  0
 21 22  1  0
 22  2  1  0
 20 10  1  0
 20 14  1  0
M  END
>  <energy_score>  (244) 
-5.165477

>  <inchikey>  (244) 
None

>  <smiles>  (244) 
None

>  <ref_pdb>  (244) 
A2290a

>  <alias>  (244) 
None

>  <HIPPO Pose ID>  (244) 
497888

>  <name>  (244) 
P497888

>  <HIPPO Compound ID>  (244) 
289827

>  <ref_mols>  (244) 
A2290a,A3436a

>  <distance_score>  (244) 
0.533051

>  <inspiration_score>  (244) 
None

$$$$
P497889
     RDKit          3D

 22 24  0  0  0  0  0  0  0  0999 V2000
   12.6750   15.0027   22.0438 C   0  0  0  0  0  0  0  0  0  0  0  0
   11.9310   13.9879   21.2307 C   0  0  2  0  0  0  0  0  0  0  0  0
   11.2788   14.5417   19.9653 C   0  0  0  0  0  0  0  0  0  0  0  0
   10.2332   15.5788   20.0345 C   0  0  0  0  0  0  0  0  0  0  0  0
    9.8710   16.4317   19.0128 C   0  0  0  0  0  0  0  0  0  0  0  0
    9.0093   17.3505   19.5051 O   0  0  0  0  0  0  0  0  0  0  0  0
    8.8496   16.9651   20.7951 C   0  0  0  0  0  0  0  0  0  0  0  0
    9.5180   15.8864   21.1530 N   0  0  0  0  0  0  0  0  0  0  0  0
   11.1337   13.0921   22.0323 N   0  0  0  0  0  0  0  0  0  0  0  0
   10.4284   13.3165   23.3779 C   0  0  0  0  0  0  0  0  0  0  0  0
   10.4408   14.2359   24.0932 O   0  0  0  0  0  0  0  0  0  0  0  0
    9.6873   12.0911   23.7281 C   0  0  0  0  0  0  0  0  0  0  0  0
    9.9581   10.9295   23.1077 N   0  0  0  0  0  0  0  0  0  0  0  0
    9.2160   10.0235   23.7550 N   0  0  0  0  0  0  0  0  0  0  0  0
    9.4176    8.6328   23.4420 C   0  0  0  0  0  0  0  0  0  0  0  0
    8.3798   10.5603   24.7019 C   0  0  0  0  0  0  0  0  0  0  0  0
    7.4178    9.9947   25.5488 C   0  0  0  0  0  0  0  0  0  0  0  0
    6.7379   10.8460   26.4230 C   0  0  0  0  0  0  0  0  0  0  0  0
    7.0190   12.2096   26.4470 C   0  0  0  0  0  0  0  0  0  0  0  0
    6.0884   13.3260   27.6576 Br  0  0  0  0  0  0  0  0  0  0  0  0
    7.9821   12.7677   25.6020 C   0  0  0  0  0  0  0  0  0  0  0  0
    8.6717   11.9226   24.7114 C   0  0  0  0  0  0  0  0  0  0  0  0
  2  1  1  1
  2  3  1  0
  3  4  1  0
  4  5  2  0
  5  6  1  0
  6  7  1  0
  7  8  2  0
  2  9  1  0
  9 10  1  0
 10 11  2  0
 10 12  1  0
 12 13  2  0
 13 14  1  0
 14 15  1  0
 14 16  1  0
 16 17  2  0
 17 18  1  0
 18 19  2  0
 19 20  1  0
 19 21  1  0
 21 22  2  0
  8  4  1  0
 22 12  1  0
 22 16  1  0
M  END
>  <energy_score>  (245) 
-4.733075

>  <inchikey>  (245) 
None

>  <smiles>  (245) 
None

>  <ref_pdb>  (245) 
A2290a

>  <alias>  (245) 
None

>  <HIPPO Pose ID>  (245) 
497889

>  <name>  (245) 
P497889

>  <HIPPO Compound ID>  (245) 
289828

>  <ref_mols>  (245) 
A2290a,A3436a

>  <distance_score>  (245) 
0.723725

>  <inspiration_score>  (245) 
None

$$$$
P497890
     RDKit          3D

 22 24  0  0  0  0  0  0  0  0999 V2000
   13.0015   13.4959   23.5207 C   0  0  0  0  0  0  0  0  0  0  0  0
   11.8356   14.1677   22.8380 C   0  0  1  0  0  0  0  0  0  0  0  0
   12.0644   14.3181   21.3425 C   0  0  0  0  0  0  0  0  0  0  0  0
   10.9374   14.9814   20.6539 C   0  0  0  0  0  0  0  0  0  0  0  0
   10.6858   15.0849   19.3104 C   0  0  0  0  0  0  0  0  0  0  0  0
    9.6847   15.9916   19.1341 O   0  0  0  0  0  0  0  0  0  0  0  0
    9.3770   16.3862   20.3965 C   0  0  0  0  0  0  0  0  0  0  0  0
   10.0459   15.7644   21.3359 N   0  0  0  0  0  0  0  0  0  0  0  0
   10.7453   13.3379   23.2123 N   0  0  0  0  0  0  0  0  0  0  0  0
    9.8383   13.3869   24.4327 C   0  0  0  0  0  0  0  0  0  0  0  0
    9.7804   14.1598   25.2988 O   0  0  0  0  0  0  0  0  0  0  0  0
    9.0467   12.1645   24.4086 C   0  0  0  0  0  0  0  0  0  0  0  0
    9.4126   11.1383   23.6124 N   0  0  0  0  0  0  0  0  0  0  0  0
    8.7215   10.1020   24.0996 N   0  0  0  0  0  0  0  0  0  0  0  0
    9.0728    8.7765   23.6569 C   0  0  0  0  0  0  0  0  0  0  0  0
    7.8092   10.4580   25.0624 C   0  0  0  0  0  0  0  0  0  0  0  0
    6.8582    9.7380   25.7808 C   0  0  0  0  0  0  0  0  0  0  0  0
    6.1079   10.4143   26.7450 C   0  0  0  0  0  0  0  0  0  0  0  0
    6.3059   11.7710   26.9780 C   0  0  0  0  0  0  0  0  0  0  0  0
    5.2746   12.6449   28.3002 Br  0  0  0  0  0  0  0  0  0  0  0  0
    7.2549   12.4920   26.2593 C   0  0  0  0  0  0  0  0  0  0  0  0
    8.0007   11.8163   25.2791 C   0  0  0  0  0  0  0  0  0  0  0  0
  2  1  1  1
  2  3  1  0
  3  4  1  0
  4  5  2  0
  5  6  1  0
  6  7  1  0
  7  8  2  0
  2  9  1  0
  9 10  1  0
 10 11  2  0
 10 12  1  0
 12 13  2  0
 13 14  1  0
 14 15  1  0
 14 16  1  0
 16 17  2  0
 17 18  1  0
 18 19  2  0
 19 20  1  0
 19 21  1  0
 21 22  2  0
  8  4  1  0
 22 12  1  0
 22 16  1  0
M  END
>  <energy_score>  (246) 
-15.444263

>  <inchikey>  (246) 
None

>  <smiles>  (246) 
None

>  <ref_pdb>  (246) 
A2290a

>  <alias>  (246) 
None

>  <HIPPO Pose ID>  (246) 
497890

>  <name>  (246) 
P497890

>  <HIPPO Compound ID>  (246) 
289828

>  <ref_mols>  (246) 
A2290a,A3436a

>  <distance_score>  (246) 
0.780241

>  <inspiration_score>  (246) 
None

$$$$
P497891
     RDKit          3D

 23 25  0  0  0  0  0  0  0  0999 V2000
    8.6054   17.3435   20.7100 C   0  0  0  0  0  0  0  0  0  0  0  0
    9.5757   16.2450   20.5749 C   0  0  0  0  0  0  0  0  0  0  0  0
   10.2549   15.6439   21.5304 N   0  0  0  0  0  0  0  0  0  0  0  0
   11.1747   14.8970   20.8654 C   0  0  0  0  0  0  0  0  0  0  0  0
   12.3702   14.3010   21.4932 C   0  0  0  0  0  0  0  0  0  0  0  0
   12.2600   14.1653   22.9841 C   0  0  0  0  0  0  0  0  0  0  0  0
   11.2320   13.2669   23.3670 N   0  0  0  0  0  0  0  0  0  0  0  0
   10.3132   13.2732   24.5811 C   0  0  0  0  0  0  0  0  0  0  0  0
   10.1924   14.0567   25.4319 O   0  0  0  0  0  0  0  0  0  0  0  0
    9.5398   12.0350   24.5158 C   0  0  0  0  0  0  0  0  0  0  0  0
    9.9265   11.0369   23.6981 N   0  0  0  0  0  0  0  0  0  0  0  0
    9.0733   10.0395   23.9692 N   0  0  0  0  0  0  0  0  0  0  0  0
    9.2366    8.8006   23.2472 C   0  0  0  0  0  0  0  0  0  0  0  0
    8.1468   10.3678   24.9304 C   0  0  0  0  0  0  0  0  0  0  0  0
    7.1186    9.6564   25.5443 C   0  0  0  0  0  0  0  0  0  0  0  0
    6.3178   10.3157   26.4810 C   0  0  0  0  0  0  0  0  0  0  0  0
    6.5413   11.6521   26.7907 C   0  0  0  0  0  0  0  0  0  0  0  0
    5.4336   12.5103   28.0601 Br  0  0  0  0  0  0  0  0  0  0  0  0
    7.5811   12.3608   26.1946 C   0  0  0  0  0  0  0  0  0  0  0  0
    8.3958   11.6952   25.2610 C   0  0  0  0  0  0  0  0  0  0  0  0
   10.9269   14.9727   19.5255 C   0  0  0  0  0  0  0  0  0  0  0  0
   11.7063   14.4798   18.4030 C   0  0  0  0  0  0  0  0  0  0  0  0
    9.8854   15.8237   19.3133 O   0  0  0  0  0  0  0  0  0  0  0  0
  1  2  1  0
  2  3  2  0
  3  4  1  0
  4  5  1  0
  5  6  1  0
  6  7  1  0
  7  8  1  0
  8  9  2  0
  8 10  1  0
 10 11  2  0
 11 12  1  0
 12 13  1  0
 12 14  1  0
 14 15  2  0
 15 16  1  0
 16 17  2  0
 17 18  1  0
 17 19  1  0
 19 20  2  0
  4 21  2  0
 21 22  1  0
 21 23  1  0
 23  2  1  0
 20 10  1  0
 20 14  1  0
M  END
>  <energy_score>  (247) 
-12.48772

>  <inchikey>  (247) 
None

>  <smiles>  (247) 
None

>  <ref_pdb>  (247) 
A2290a

>  <alias>  (247) 
None

>  <HIPPO Pose ID>  (247) 
497891

>  <name>  (247) 
P497891

>  <HIPPO Compound ID>  (247) 
289829

>  <ref_mols>  (247) 
A2290a,A3436a

>  <distance_score>  (247) 
0.713061

>  <inspiration_score>  (247) 
None

$$$$
P497892
     RDKit          3D

 23 25  0  0  0  0  0  0  0  0999 V2000
    8.6050   17.3257   20.7332 C   0  0  0  0  0  0  0  0  0  0  0  0
    9.5712   16.2236   20.5957 C   0  0  0  0  0  0  0  0  0  0  0  0
   10.2438   15.6094   21.5489 N   0  0  0  0  0  0  0  0  0  0  0  0
   11.1660   14.8700   20.8787 C   0  0  0  0  0  0  0  0  0  0  0  0
   12.3673   14.2755   21.4954 C   0  0  0  0  0  0  0  0  0  0  0  0
   12.2994   14.1667   22.9912 C   0  0  0  0  0  0  0  0  0  0  0  0
   11.3485   13.2124   23.4347 N   0  0  0  0  0  0  0  0  0  0  0  0
   10.3295   13.2807   24.5668 C   0  0  0  0  0  0  0  0  0  0  0  0
   10.1513   14.0998   25.3735 O   0  0  0  0  0  0  0  0  0  0  0  0
    9.5407   12.0513   24.4904 C   0  0  0  0  0  0  0  0  0  0  0  0
    9.9128   11.0565   23.6635 N   0  0  0  0  0  0  0  0  0  0  0  0
    9.0706   10.0545   23.9491 N   0  0  0  0  0  0  0  0  0  0  0  0
    9.2418    8.8097   23.2387 C   0  0  0  0  0  0  0  0  0  0  0  0
    8.1481   10.3833   24.9146 C   0  0  0  0  0  0  0  0  0  0  0  0
    7.1263    9.6686   25.5393 C   0  0  0  0  0  0  0  0  0  0  0  0
    6.3361   10.3289   26.4830 C   0  0  0  0  0  0  0  0  0  0  0  0
    6.5656   11.6622   26.7868 C   0  0  0  0  0  0  0  0  0  0  0  0
    5.7987   12.2639   27.7063 F   0  0  0  0  0  0  0  0  0  0  0  0
    7.5930   12.3755   26.1832 C   0  0  0  0  0  0  0  0  0  0  0  0
    8.3981   11.7133   25.2403 C   0  0  0  0  0  0  0  0  0  0  0  0
   10.9231   14.9608   19.5383 C   0  0  0  0  0  0  0  0  0  0  0  0
   11.7044   14.4797   18.4117 C   0  0  0  0  0  0  0  0  0  0  0  0
    9.8842   15.8148   19.3312 O   0  0  0  0  0  0  0  0  0  0  0  0
  1  2  1  0
  2  3  2  0
  3  4  1  0
  4  5  1  0
  5  6  1  0
  6  7  1  0
  7  8  1  0
  8  9  2  0
  8 10  1  0
 10 11  2  0
 11 12  1  0
 12 13  1  0
 12 14  1  0
 14 15  2  0
 15 16  1  0
 16 17  2  0
 17 18  1  0
 17 19  1  0
 19 20  2  0
  4 21  2  0
 21 22  1  0
 21 23  1  0
 23  2  1  0
 20 10  1  0
 20 14  1  0
M  END
>  <energy_score>  (248) 
-10.072784

>  <inchikey>  (248) 
None

>  <smiles>  (248) 
None

>  <ref_pdb>  (248) 
A2290a

>  <alias>  (248) 
None

>  <HIPPO Pose ID>  (248) 
497892

>  <name>  (248) 
P497892

>  <HIPPO Compound ID>  (248) 
289830

>  <ref_mols>  (248) 
A2290a,A3436a

>  <distance_score>  (248) 
0.714599

>  <inspiration_score>  (248) 
None

$$$$
P497893
     RDKit          3D

 24 26  0  0  0  0  0  0  0  0999 V2000
   11.6941   14.5073   18.4373 C   0  0  0  0  0  0  0  0  0  0  0  0
   10.8971   14.9685   19.5636 C   0  0  0  0  0  0  0  0  0  0  0  0
    9.8011   15.7490   19.3565 O   0  0  0  0  0  0  0  0  0  0  0  0
    9.4267   16.0893   20.6188 C   0  0  0  0  0  0  0  0  0  0  0  0
   10.1434   15.5407   21.5744 N   0  0  0  0  0  0  0  0  0  0  0  0
   11.1292   14.8790   20.9064 C   0  0  0  0  0  0  0  0  0  0  0  0
   12.3307   14.2949   21.5371 C   0  0  0  0  0  0  0  0  0  0  0  0
   12.2200   14.1420   23.0275 C   0  0  0  0  0  0  0  0  0  0  0  0
   11.1750   13.2616   23.4112 N   0  0  0  0  0  0  0  0  0  0  0  0
   10.2332   13.3044   24.6072 C   0  0  0  0  0  0  0  0  0  0  0  0
   10.1040   14.1083   25.4374 O   0  0  0  0  0  0  0  0  0  0  0  0
    9.4393   12.0782   24.5634 C   0  0  0  0  0  0  0  0  0  0  0  0
    9.8144   11.0479   23.7820 N   0  0  0  0  0  0  0  0  0  0  0  0
    8.9632   10.0675   24.1078 N   0  0  0  0  0  0  0  0  0  0  0  0
    9.1885    8.7506   23.5680 C   0  0  0  0  0  0  0  0  0  0  0  0
    8.0131   10.4483   25.0256 C   0  0  0  0  0  0  0  0  0  0  0  0
    6.9624    9.7641   25.6378 C   0  0  0  0  0  0  0  0  0  0  0  0
    6.1420   10.4682   26.5205 C   0  0  0  0  0  0  0  0  0  0  0  0
    6.3817   11.8195   26.7794 C   0  0  0  0  0  0  0  0  0  0  0  0
    5.5000   12.5331   27.7022 N   0  0  0  0  0  0  0  0  0  0  0  0
    5.9792   13.4905   28.3259 O   0  0  0  0  0  0  0  0  0  0  0  0
    4.3408   12.1112   27.8318 O   0  0  0  0  0  0  0  0  0  0  0  0
    7.4567   12.4983   26.1959 C   0  0  0  0  0  0  0  0  0  0  0  0
    8.2767   11.7843   25.3044 C   0  0  0  0  0  0  0  0  0  0  0  0
  1  2  1  0
  2  3  1  0
  3  4  1  0
  4  5  2  0
  5  6  1  0
  6  7  1  0
  7  8  1  0
  8  9  1  0
  9 10  1  0
 10 11  2  0
 10 12  1  0
 12 13  2  0
 13 14  1  0
 14 15  1  0
 14 16  1  0
 16 17  2  0
 17 18  1  0
 18 19  2  0
 19 20  1  0
 20 21  2  0
 20 22  1  0
 19 23  1  0
 23 24  2  0
  6  2  2  0
 24 12  1  0
 24 16  1  0
M  CHG  2  20   1  22  -1
M  END
>  <energy_score>  (249) 
-27.919868

>  <inchikey>  (249) 
None

>  <smiles>  (249) 
None

>  <ref_pdb>  (249) 
A2290a

>  <alias>  (249) 
None

>  <HIPPO Pose ID>  (249) 
497893

>  <name>  (249) 
P497893

>  <HIPPO Compound ID>  (249) 
289831

>  <ref_mols>  (249) 
A2290a,A3436a

>  <distance_score>  (249) 
0.779307

>  <inspiration_score>  (249) 
None

$$$$
P497894
     RDKit          3D

 24 26  0  0  0  0  0  0  0  0999 V2000
   12.6543   14.9827   22.0735 C   0  0  0  0  0  0  0  0  0  0  0  0
   11.9054   13.9815   21.2474 C   0  0  2  0  0  0  0  0  0  0  0  0
   11.2944   14.5469   19.9660 C   0  0  0  0  0  0  0  0  0  0  0  0
   10.2404   15.5790   20.0261 C   0  0  0  0  0  0  0  0  0  0  0  0
    9.8778   16.4290   19.0022 C   0  0  0  0  0  0  0  0  0  0  0  0
    9.0140   17.3482   19.4909 O   0  0  0  0  0  0  0  0  0  0  0  0
    8.8556   16.9685   20.7830 C   0  0  0  0  0  0  0  0  0  0  0  0
    9.5250   15.8921   21.1441 N   0  0  0  0  0  0  0  0  0  0  0  0
   11.0474   13.1184   22.0184 N   0  0  0  0  0  0  0  0  0  0  0  0
   10.4363   13.3067   23.4142 C   0  0  0  0  0  0  0  0  0  0  0  0
   10.4649   14.2222   24.1342 O   0  0  0  0  0  0  0  0  0  0  0  0
    9.7017   12.0809   23.7675 C   0  0  0  0  0  0  0  0  0  0  0  0
    9.9838   10.9201   23.1538 N   0  0  0  0  0  0  0  0  0  0  0  0
    9.2165   10.0168   23.7738 N   0  0  0  0  0  0  0  0  0  0  0  0
    9.4027    8.6273   23.4462 C   0  0  0  0  0  0  0  0  0  0  0  0
    8.3658   10.5553   24.7084 C   0  0  0  0  0  0  0  0  0  0  0  0
    7.3785    9.9884   25.5258 C   0  0  0  0  0  0  0  0  0  0  0  0
    6.6635   10.8385   26.3717 C   0  0  0  0  0  0  0  0  0  0  0  0
    6.9483   12.2075   26.3977 C   0  0  0  0  0  0  0  0  0  0  0  0
    6.1987   13.0736   27.3084 N   0  0  0  0  0  0  0  0  0  0  0  0
    6.7489   14.1188   27.6841 O   0  0  0  0  0  0  0  0  0  0  0  0
    5.0841   12.6841   27.6875 O   0  0  0  0  0  0  0  0  0  0  0  0
    7.9516   12.7689   25.5924 C   0  0  0  0  0  0  0  0  0  0  0  0
    8.6642   11.9166   24.7274 C   0  0  0  0  0  0  0  0  0  0  0  0
  2  1  1  1
  2  3  1  0
  3  4  1  0
  4  5  2  0
  5  6  1  0
  6  7  1  0
  7  8  2  0
  2  9  1  0
  9 10  1  0
 10 11  2  0
 10 12  1  0
 12 13  2  0
 13 14  1  0
 14 15  1  0
 14 16  1  0
 16 17  2  0
 17 18  1  0
 18 19  2  0
 19 20  1  0
 20 21  2  0
 20 22  1  0
 19 23  1  0
 23 24  2  0
  8  4  1  0
 24 12  1  0
 24 16  1  0
M  CHG  2  20   1  22  -1
M  END
>  <energy_score>  (250) 
-20.190989

>  <inchikey>  (250) 
None

>  <smiles>  (250) 
None

>  <ref_pdb>  (250) 
A2290a

>  <alias>  (250) 
None

>  <HIPPO Pose ID>  (250) 
497894

>  <name>  (250) 
P497894

>  <HIPPO Compound ID>  (250) 
289832

>  <ref_mols>  (250) 
A2290a,A3436a

>  <distance_score>  (250) 
0.717993

>  <inspiration_score>  (250) 
None

$$$$
P497895
     RDKit          3D

 24 26  0  0  0  0  0  0  0  0999 V2000
   12.7903   14.3425   21.8097 C   0  0  0  0  0  0  0  0  0  0  0  0
   11.3084   14.6093   21.7830 C   0  0  1  0  0  0  0  0  0  0  0  0
   10.8063   14.6887   20.3397 C   0  0  0  0  0  0  0  0  0  0  0  0
    9.9420   15.8552   20.0570 C   0  0  0  0  0  0  0  0  0  0  0  0
    9.8211   16.5809   18.8954 C   0  0  0  0  0  0  0  0  0  0  0  0
    9.0037   17.6386   19.1310 O   0  0  0  0  0  0  0  0  0  0  0  0
    8.6826   17.5038   20.4454 C   0  0  0  0  0  0  0  0  0  0  0  0
    9.1530   16.4197   21.0200 N   0  0  0  0  0  0  0  0  0  0  0  0
   10.6522   13.5291   22.4812 N   0  0  0  0  0  0  0  0  0  0  0  0
   10.2610   13.3891   23.9530 C   0  0  0  0  0  0  0  0  0  0  0  0
   10.3336   14.1517   24.8296 O   0  0  0  0  0  0  0  0  0  0  0  0
    9.6365   12.0765   24.1155 C   0  0  0  0  0  0  0  0  0  0  0  0
   10.0057   11.0393   23.3468 N   0  0  0  0  0  0  0  0  0  0  0  0
    9.2464   10.0196   23.7743 N   0  0  0  0  0  0  0  0  0  0  0  0
    9.4031    8.7370   23.1302 C   0  0  0  0  0  0  0  0  0  0  0  0
    8.3519   10.3807   24.7553 C   0  0  0  0  0  0  0  0  0  0  0  0
    7.3688    9.6695   25.4465 C   0  0  0  0  0  0  0  0  0  0  0  0
    6.5633   10.3617   26.3536 C   0  0  0  0  0  0  0  0  0  0  0  0
    6.7599   11.7284   26.5645 C   0  0  0  0  0  0  0  0  0  0  0  0
    5.8979   12.4311   27.5116 N   0  0  0  0  0  0  0  0  0  0  0  0
    6.3882   13.3892   28.1253 O   0  0  0  0  0  0  0  0  0  0  0  0
    4.7457   11.9998   27.6674 O   0  0  0  0  0  0  0  0  0  0  0  0
    7.7712   12.4370   25.9039 C   0  0  0  0  0  0  0  0  0  0  0  0
    8.5738   11.7355   24.9842 C   0  0  0  0  0  0  0  0  0  0  0  0
  2  1  1  6
  2  3  1  0
  3  4  1  0
  4  5  2  0
  5  6  1  0
  6  7  1  0
  7  8  2  0
  2  9  1  0
  9 10  1  0
 10 11  2  0
 10 12  1  0
 12 13  2  0
 13 14  1  0
 14 15  1  0
 14 16  1  0
 16 17  2  0
 17 18  1  0
 18 19  2  0
 19 20  1  0
 20 21  2  0
 20 22  1  0
 19 23  1  0
 23 24  2  0
  8  4  1  0
 24 12  1  0
 24 16  1  0
M  CHG  2  20   1  22  -1
M  END
>  <energy_score>  (251) 
-34.801689

>  <inchikey>  (251) 
None

>  <smiles>  (251) 
None

>  <ref_pdb>  (251) 
A2290a

>  <alias>  (251) 
None

>  <HIPPO Pose ID>  (251) 
497895

>  <name>  (251) 
P497895

>  <HIPPO Compound ID>  (251) 
289832

>  <ref_mols>  (251) 
A2290a,A3436a

>  <distance_score>  (251) 
0.847505

>  <inspiration_score>  (251) 
None

$$$$
P497896
     RDKit          3D

 24 26  0  0  0  0  0  0  0  0999 V2000
    8.5920   17.3862   20.7189 C   0  0  0  0  0  0  0  0  0  0  0  0
    9.5597   16.3024   20.4845 C   0  0  0  0  0  0  0  0  0  0  0  0
   10.3282   15.6938   21.3610 N   0  0  0  0  0  0  0  0  0  0  0  0
   11.1581   14.9199   20.5982 C   0  0  0  0  0  0  0  0  0  0  0  0
   12.3906   14.3255   21.1536 C   0  0  0  0  0  0  0  0  0  0  0  0
   12.3743   14.2119   22.6611 C   0  0  0  0  0  0  0  0  0  0  0  0
   11.4527   13.2355   23.1443 N   0  0  0  0  0  0  0  0  0  0  0  0
   10.5062   13.2707   24.3434 C   0  0  0  0  0  0  0  0  0  0  0  0
   10.3765   14.0698   25.1798 O   0  0  0  0  0  0  0  0  0  0  0  0
    9.7026   12.0438   24.3095 C   0  0  0  0  0  0  0  0  0  0  0  0
   10.0536   11.0159   23.5162 N   0  0  0  0  0  0  0  0  0  0  0  0
    9.2014   10.0352   23.8437 N   0  0  0  0  0  0  0  0  0  0  0  0
    9.3399    8.7672   23.1692 C   0  0  0  0  0  0  0  0  0  0  0  0
    8.2851   10.4047   24.7998 C   0  0  0  0  0  0  0  0  0  0  0  0
    7.2585    9.7130   25.4462 C   0  0  0  0  0  0  0  0  0  0  0  0
    6.4474   10.4137   26.3417 C   0  0  0  0  0  0  0  0  0  0  0  0
    6.6787   11.7692   26.5872 C   0  0  0  0  0  0  0  0  0  0  0  0
    5.8136   12.4793   27.5289 N   0  0  0  0  0  0  0  0  0  0  0  0
    6.2949   13.4540   28.1234 O   0  0  0  0  0  0  0  0  0  0  0  0
    4.6694   12.0348   27.7065 O   0  0  0  0  0  0  0  0  0  0  0  0
    7.7383   12.4530   25.9786 C   0  0  0  0  0  0  0  0  0  0  0  0
    8.5495   11.7441   25.0722 C   0  0  0  0  0  0  0  0  0  0  0  0
   10.7606   14.9904   19.2890 C   0  0  0  0  0  0  0  0  0  0  0  0
    9.7291   15.8737   19.2015 O   0  0  0  0  0  0  0  0  0  0  0  0
  1  2  1  0
  2  3  2  0
  3  4  1  0
  4  5  1  0
  5  6  1  0
  6  7  1  0
  7  8  1  0
  8  9  2  0
  8 10  1  0
 10 11  2  0
 11 12  1  0
 12 13  1  0
 12 14  1  0
 14 15  2  0
 15 16  1  0
 16 17  2  0
 17 18  1  0
 18 19  2  0
 18 20  1  0
 17 21  1  0
 21 22  2  0
  4 23  2  0
 23 24  1  0
 24  2  1  0
 22 10  1  0
 22 14  1  0
M  CHG  2  18   1  20  -1
M  END
>  <energy_score>  (252) 
-16.222605

>  <inchikey>  (252) 
None

>  <smiles>  (252) 
None

>  <ref_pdb>  (252) 
A2290a

>  <alias>  (252) 
None

>  <HIPPO Pose ID>  (252) 
497896

>  <name>  (252) 
P497896

>  <HIPPO Compound ID>  (252) 
289833

>  <ref_mols>  (252) 
A2290a,A3436a

>  <distance_score>  (252) 
0.533828

>  <inspiration_score>  (252) 
None

$$$$
P497897
     RDKit          3D

 24 26  0  0  0  0  0  0  0  0999 V2000
    8.5864   17.4086   20.6937 C   0  0  0  0  0  0  0  0  0  0  0  0
    9.5600   16.3313   20.4570 C   0  0  0  0  0  0  0  0  0  0  0  0
   10.3473   15.7464   21.3307 N   0  0  0  0  0  0  0  0  0  0  0  0
   11.1685   14.9601   20.5708 C   0  0  0  0  0  0  0  0  0  0  0  0
   12.4080   14.3785   21.1259 C   0  0  0  0  0  0  0  0  0  0  0  0
   12.3784   14.2782   22.6330 C   0  0  0  0  0  0  0  0  0  0  0  0
   11.4039   13.3416   23.0784 N   0  0  0  0  0  0  0  0  0  0  0  0
   10.5729   13.3068   24.3590 C   0  0  0  0  0  0  0  0  0  0  0  0
   10.4909   14.0776   25.2271 O   0  0  0  0  0  0  0  0  0  0  0  0
    9.8229   12.0504   24.3267 C   0  0  0  0  0  0  0  0  0  0  0  0
   10.2334   11.0596   23.5177 N   0  0  0  0  0  0  0  0  0  0  0  0
    9.4014   10.0257   23.7819 N   0  0  0  0  0  0  0  0  0  0  0  0
    9.5527    8.7768   23.0201 C   0  0  0  0  0  0  0  0  0  0  0  0
    9.9892    9.0111   21.7595 F   0  0  0  0  0  0  0  0  0  0  0  0
    8.3836    8.1179   22.9289 F   0  0  0  0  0  0  0  0  0  0  0  0
   10.4493    7.9244   23.5661 F   0  0  0  0  0  0  0  0  0  0  0  0
    8.4613   10.3478   24.7449 C   0  0  0  0  0  0  0  0  0  0  0  0
    7.4398    9.6225   25.3608 C   0  0  0  0  0  0  0  0  0  0  0  0
    6.6140   10.2772   26.2805 C   0  0  0  0  0  0  0  0  0  0  0  0
    6.8026   11.6208   26.5833 C   0  0  0  0  0  0  0  0  0  0  0  0
    7.8400   12.3371   25.9872 C   0  0  0  0  0  0  0  0  0  0  0  0
    8.6830   11.6846   25.0688 C   0  0  0  0  0  0  0  0  0  0  0  0
   10.7509   15.0037   19.2677 C   0  0  0  0  0  0  0  0  0  0  0  0
    9.7135   15.8809   19.1792 O   0  0  0  0  0  0  0  0  0  0  0  0
  1  2  1  0
  2  3  2  0
  3  4  1  0
  4  5  1  0
  5  6  1  0
  6  7  1  0
  7  8  1  0
  8  9  2  0
  8 10  1  0
 10 11  2  0
 11 12  1  0
 12 13  1  0
 13 14  1  0
 13 15  1  0
 13 16  1  0
 12 17  1  0
 17 18  2  0
 18 19  1  0
 19 20  2  0
 20 21  1  0
 21 22  2  0
  4 23  2  0
 23 24  1  0
 24  2  1  0
 22 10  1  0
 22 17  1  0
M  END
>  <energy_score>  (253) 
-34.305412

>  <inchikey>  (253) 
None

>  <smiles>  (253) 
None

>  <ref_pdb>  (253) 
A2290a

>  <alias>  (253) 
None

>  <HIPPO Pose ID>  (253) 
497897

>  <name>  (253) 
P497897

>  <HIPPO Compound ID>  (253) 
289834

>  <ref_mols>  (253) 
A2290a,A3436a

>  <distance_score>  (253) 
0.541163

>  <inspiration_score>  (253) 
None

$$$$
P497898
     RDKit          3D

 24 26  0  0  0  0  0  0  0  0999 V2000
   12.6894   15.0479   21.9728 C   0  0  0  0  0  0  0  0  0  0  0  0
   11.9265   14.0377   21.1718 C   0  0  2  0  0  0  0  0  0  0  0  0
   11.2990   14.5786   19.8890 C   0  0  0  0  0  0  0  0  0  0  0  0
   10.2397   15.6080   19.9667 C   0  0  0  0  0  0  0  0  0  0  0  0
    9.8637   16.4676   18.9562 C   0  0  0  0  0  0  0  0  0  0  0  0
    9.0023   17.3793   19.4639 O   0  0  0  0  0  0  0  0  0  0  0  0
    8.8644   16.9920   20.7564 C   0  0  0  0  0  0  0  0  0  0  0  0
    9.5439   15.9172   21.1011 N   0  0  0  0  0  0  0  0  0  0  0  0
   11.0402   13.2207   21.9566 N   0  0  0  0  0  0  0  0  0  0  0  0
   10.5597   13.3773   23.4064 C   0  0  0  0  0  0  0  0  0  0  0  0
   10.7428   14.2342   24.1750 O   0  0  0  0  0  0  0  0  0  0  0  0
    9.7746   12.1827   23.7471 C   0  0  0  0  0  0  0  0  0  0  0  0
    9.9982   11.0332   23.0906 N   0  0  0  0  0  0  0  0  0  0  0  0
    9.2456   10.1186   23.7398 N   0  0  0  0  0  0  0  0  0  0  0  0
    9.4849    8.6907   23.5244 C   0  0  0  0  0  0  0  0  0  0  0  0
    9.0665    8.2395   22.3291 F   0  0  0  0  0  0  0  0  0  0  0  0
   10.8027    8.3851   23.6061 F   0  0  0  0  0  0  0  0  0  0  0  0
    8.8219    7.9858   24.4664 F   0  0  0  0  0  0  0  0  0  0  0  0
    8.4148   10.6822   24.6926 C   0  0  0  0  0  0  0  0  0  0  0  0
    7.4293   10.1483   25.5387 C   0  0  0  0  0  0  0  0  0  0  0  0
    6.7762   11.0167   26.4165 C   0  0  0  0  0  0  0  0  0  0  0  0
    7.1020   12.3686   26.4598 C   0  0  0  0  0  0  0  0  0  0  0  0
    8.0938   12.8897   25.6229 C   0  0  0  0  0  0  0  0  0  0  0  0
    8.7569   12.0328   24.7246 C   0  0  0  0  0  0  0  0  0  0  0  0
  2  1  1  1
  2  3  1  0
  3  4  1  0
  4  5  2  0
  5  6  1  0
  6  7  1  0
  7  8  2  0
  2  9  1  0
  9 10  1  0
 10 11  2  0
 10 12  1  0
 12 13  2  0
 13 14  1  0
 14 15  1  0
 15 16  1  0
 15 17  1  0
 15 18  1  0
 14 19  1  0
 19 20  2  0
 20 21  1  0
 21 22  2  0
 22 23  1  0
 23 24  2  0
  8  4  1  0
 24 12  1  0
 24 19  1  0
M  END
>  <energy_score>  (254) 
-4.760028

>  <inchikey>  (254) 
None

>  <smiles>  (254) 
None

>  <ref_pdb>  (254) 
A2290a

>  <alias>  (254) 
None

>  <HIPPO Pose ID>  (254) 
497898

>  <name>  (254) 
P497898

>  <HIPPO Compound ID>  (254) 
289835

>  <ref_mols>  (254) 
A2290a,A3436a

>  <distance_score>  (254) 
0.758775

>  <inspiration_score>  (254) 
None

$$$$
P497899
     RDKit          3D

 24 26  0  0  0  0  0  0  0  0999 V2000
   13.0627   13.6498   23.3577 C   0  0  0  0  0  0  0  0  0  0  0  0
   11.8635   14.3169   22.7427 C   0  0  1  0  0  0  0  0  0  0  0  0
   12.0397   14.4470   21.2424 C   0  0  0  0  0  0  0  0  0  0  0  0
   10.8790   15.0805   20.5899 C   0  0  0  0  0  0  0  0  0  0  0  0
   10.6083   15.1828   19.2522 C   0  0  0  0  0  0  0  0  0  0  0  0
    9.6169   16.0998   19.0881 O   0  0  0  0  0  0  0  0  0  0  0  0
    9.3214   16.4874   20.3569 C   0  0  0  0  0  0  0  0  0  0  0  0
    9.9955   15.8571   21.2864 N   0  0  0  0  0  0  0  0  0  0  0  0
   10.8345   13.4315   23.1294 N   0  0  0  0  0  0  0  0  0  0  0  0
    9.9586   13.4156   24.3726 C   0  0  0  0  0  0  0  0  0  0  0  0
    9.8830   14.1720   25.2517 O   0  0  0  0  0  0  0  0  0  0  0  0
    9.2531   12.1490   24.3085 C   0  0  0  0  0  0  0  0  0  0  0  0
    9.6929   11.2211   23.4411 N   0  0  0  0  0  0  0  0  0  0  0  0
    9.0720   10.0846   23.8027 N   0  0  0  0  0  0  0  0  0  0  0  0
    9.4011    8.8503   23.0700 C   0  0  0  0  0  0  0  0  0  0  0  0
    9.9212    9.1120   21.8450 F   0  0  0  0  0  0  0  0  0  0  0  0
    8.3155    8.0814   22.8943 F   0  0  0  0  0  0  0  0  0  0  0  0
   10.3293    8.0962   23.6929 F   0  0  0  0  0  0  0  0  0  0  0  0
    8.1565   10.3111   24.8157 C   0  0  0  0  0  0  0  0  0  0  0  0
    7.2570    9.4925   25.4866 C   0  0  0  0  0  0  0  0  0  0  0  0
    6.4381   10.0527   26.4737 C   0  0  0  0  0  0  0  0  0  0  0  0
    6.5275   11.3989   26.8047 C   0  0  0  0  0  0  0  0  0  0  0  0
    7.4410   12.2181   26.1496 C   0  0  0  0  0  0  0  0  0  0  0  0
    8.2432   11.6633   25.1390 C   0  0  0  0  0  0  0  0  0  0  0  0
  2  1  1  1
  2  3  1  0
  3  4  1  0
  4  5  2  0
  5  6  1  0
  6  7  1  0
  7  8  2  0
  2  9  1  0
  9 10  1  0
 10 11  2  0
 10 12  1  0
 12 13  2  0
 13 14  1  0
 14 15  1  0
 15 16  1  0
 15 17  1  0
 15 18  1  0
 14 19  1  0
 19 20  2  0
 20 21  1  0
 21 22  2  0
 22 23  1  0
 23 24  2  0
  8  4  1  0
 24 12  1  0
 24 19  1  0
M  END
>  <energy_score>  (255) 
-1.705638

>  <inchikey>  (255) 
None

>  <smiles>  (255) 
None

>  <ref_pdb>  (255) 
A2290a

>  <alias>  (255) 
None

>  <HIPPO Pose ID>  (255) 
497899

>  <name>  (255) 
P497899

>  <HIPPO Compound ID>  (255) 
289835

>  <ref_mols>  (255) 
A2290a,A3436a

>  <distance_score>  (255) 
0.642356

>  <inspiration_score>  (255) 
None

$$$$
P497900
     RDKit          3D

 24 26  0  0  0  0  0  0  0  0999 V2000
   11.6893   14.5073   18.4042 C   0  0  0  0  0  0  0  0  0  0  0  0
   10.8926   14.9814   19.5245 C   0  0  0  0  0  0  0  0  0  0  0  0
    9.7836   15.7431   19.3193 O   0  0  0  0  0  0  0  0  0  0  0  0
    9.4290   16.1095   20.5810 C   0  0  0  0  0  0  0  0  0  0  0  0
   10.1697   15.5920   21.5352 N   0  0  0  0  0  0  0  0  0  0  0  0
   11.1516   14.9304   20.8626 C   0  0  0  0  0  0  0  0  0  0  0  0
   12.3857   14.3973   21.4718 C   0  0  0  0  0  0  0  0  0  0  0  0
   12.3031   14.2725   22.9622 C   0  0  0  0  0  0  0  0  0  0  0  0
   11.3167   13.3365   23.3511 N   0  0  0  0  0  0  0  0  0  0  0  0
   10.4092   13.3048   24.5729 C   0  0  0  0  0  0  0  0  0  0  0  0
   10.2654   14.0813   25.4263 O   0  0  0  0  0  0  0  0  0  0  0  0
    9.6857   12.0405   24.4880 C   0  0  0  0  0  0  0  0  0  0  0  0
   10.1353   11.0799   23.6615 N   0  0  0  0  0  0  0  0  0  0  0  0
    9.3131   10.0276   23.8727 N   0  0  0  0  0  0  0  0  0  0  0  0
    9.4980    8.8093   23.0672 C   0  0  0  0  0  0  0  0  0  0  0  0
    8.3415    8.1379   22.9290 F   0  0  0  0  0  0  0  0  0  0  0  0
   10.3958    7.9483   23.5958 F   0  0  0  0  0  0  0  0  0  0  0  0
    9.9558    9.0984   21.8254 F   0  0  0  0  0  0  0  0  0  0  0  0
    8.3518   10.3105   24.8281 C   0  0  0  0  0  0  0  0  0  0  0  0
    7.3327    9.5587   25.4085 C   0  0  0  0  0  0  0  0  0  0  0  0
    6.4817   10.1748   26.3322 C   0  0  0  0  0  0  0  0  0  0  0  0
    6.6417   11.5119   26.6739 C   0  0  0  0  0  0  0  0  0  0  0  0
    7.6756   12.2581   26.1135 C   0  0  0  0  0  0  0  0  0  0  0  0
    8.5413   11.6403   25.1935 C   0  0  0  0  0  0  0  0  0  0  0  0
  1  2  1  0
  2  3  1  0
  3  4  1  0
  4  5  2  0
  5  6  1  0
  6  7  1  0
  7  8  1  0
  8  9  1  0
  9 10  1  0
 10 11  2  0
 10 12  1  0
 12 13  2  0
 13 14  1  0
 14 15  1  0
 15 16  1  0
 15 17  1  0
 15 18  1  0
 14 19  1  0
 19 20  2  0
 20 21  1  0
 21 22  2  0
 22 23  1  0
 23 24  2  0
  6  2  2  0
 24 12  1  0
 24 19  1  0
M  END
>  <energy_score>  (256) 
-31.954831

>  <inchikey>  (256) 
None

>  <smiles>  (256) 
None

>  <ref_pdb>  (256) 
A2290a

>  <alias>  (256) 
None

>  <HIPPO Pose ID>  (256) 
497900

>  <name>  (256) 
P497900

>  <HIPPO Compound ID>  (256) 
289836

>  <ref_mols>  (256) 
A2290a,A3436a

>  <distance_score>  (256) 
0.699881

>  <inspiration_score>  (256) 
None

$$$$
P497901
     RDKit          3D

 25 27  0  0  0  0  0  0  0  0999 V2000
   14.4982   11.9546   24.9666 C   0  0  0  0  0  0  0  0  0  0  0  0
   13.6602   12.4914   23.9178 O   0  0  0  0  0  0  0  0  0  0  0  0
   12.7279   13.3995   24.2794 C   0  0  0  0  0  0  0  0  0  0  0  0
   12.4920   13.6671   25.4594 O   0  0  0  0  0  0  0  0  0  0  0  0
   11.8830   14.0123   23.1575 C   0  0  1  0  0  0  0  0  0  0  0  0
   12.2857   14.0677   21.6956 C   0  0  0  0  0  0  0  0  0  0  0  0
   11.2327   14.7506   20.8734 C   0  0  0  0  0  0  0  0  0  0  0  0
   11.0147   14.7816   19.5153 C   0  0  0  0  0  0  0  0  0  0  0  0
    9.9650   15.6211   19.2666 O   0  0  0  0  0  0  0  0  0  0  0  0
    9.6087   16.0754   20.4922 C   0  0  0  0  0  0  0  0  0  0  0  0
   10.2967   15.5551   21.4790 N   0  0  0  0  0  0  0  0  0  0  0  0
   10.7366   13.2091   23.4156 N   0  0  0  0  0  0  0  0  0  0  0  0
    9.5835   13.4159   24.3815 C   0  0  0  0  0  0  0  0  0  0  0  0
    9.3330   14.3124   25.0745 O   0  0  0  0  0  0  0  0  0  0  0  0
    8.8374   12.1703   24.3682 C   0  0  0  0  0  0  0  0  0  0  0  0
    9.2797   11.1253   23.6349 N   0  0  0  0  0  0  0  0  0  0  0  0
    8.6015   10.0883   24.1322 N   0  0  0  0  0  0  0  0  0  0  0  0
    8.9830    8.7670   23.7077 C   0  0  0  0  0  0  0  0  0  0  0  0
    7.6829   10.4393   25.0892 C   0  0  0  0  0  0  0  0  0  0  0  0
    6.7570    9.7119   25.8294 C   0  0  0  0  0  0  0  0  0  0  0  0
    5.9950   10.3859   26.7857 C   0  0  0  0  0  0  0  0  0  0  0  0
    6.1505   11.7526   26.9849 C   0  0  0  0  0  0  0  0  0  0  0  0
    5.1042   12.6245   28.2964 Br  0  0  0  0  0  0  0  0  0  0  0  0
    7.0615   12.4860   26.2324 C   0  0  0  0  0  0  0  0  0  0  0  0
    7.8161   11.8099   25.2593 C   0  0  0  0  0  0  0  0  0  0  0  0
  1  2  1  0
  2  3  1  0
  3  4  2  0
  3  5  1  0
  5  6  1  6
  6  7  1  0
  7  8  2  0
  8  9  1  0
  9 10  1  0
 10 11  2  0
  5 12  1  0
 12 13  1  0
 13 14  2  0
 13 15  1  0
 15 16  2  0
 16 17  1  0
 17 18  1  0
 17 19  1  0
 19 20  2  0
 20 21  1  0
 21 22  2  0
 22 23  1  0
 22 24  1  0
 24 25  2  0
 11  7  1  0
 25 15  1  0
 25 19  1  0
M  END
>  <energy_score>  (257) 
-1.107473

>  <inchikey>  (257) 
None

>  <smiles>  (257) 
None

>  <ref_pdb>  (257) 
A2290a

>  <alias>  (257) 
None

>  <HIPPO Pose ID>  (257) 
497901

>  <name>  (257) 
P497901

>  <HIPPO Compound ID>  (257) 
289837

>  <ref_mols>  (257) 
A2290a,A3436a

>  <distance_score>  (257) 
0.966811

>  <inspiration_score>  (257) 
None

$$$$
P497902
     RDKit          3D

 25 27  0  0  0  0  0  0  0  0999 V2000
    8.6049   17.3193   20.7386 C   0  0  0  0  0  0  0  0  0  0  0  0
    9.5696   16.2156   20.5990 C   0  0  0  0  0  0  0  0  0  0  0  0
   10.2406   15.5958   21.5502 N   0  0  0  0  0  0  0  0  0  0  0  0
   11.1689   14.8667   20.8769 C   0  0  0  0  0  0  0  0  0  0  0  0
   12.3748   14.2784   21.4903 C   0  0  0  0  0  0  0  0  0  0  0  0
   12.3092   14.1632   22.9856 C   0  0  0  0  0  0  0  0  0  0  0  0
   11.3608   13.2040   23.4259 N   0  0  0  0  0  0  0  0  0  0  0  0
   10.3353   13.2689   24.5510 C   0  0  0  0  0  0  0  0  0  0  0  0
   10.1475   14.0883   25.3543 O   0  0  0  0  0  0  0  0  0  0  0  0
    9.5495   12.0377   24.4748 C   0  0  0  0  0  0  0  0  0  0  0  0
    9.9301   11.0333   23.6631 N   0  0  0  0  0  0  0  0  0  0  0  0
    9.0837   10.0361   23.9525 N   0  0  0  0  0  0  0  0  0  0  0  0
    9.2478    8.7890   23.2456 C   0  0  0  0  0  0  0  0  0  0  0  0
    8.1485   10.3777   24.9011 C   0  0  0  0  0  0  0  0  0  0  0  0
    7.1185    9.6677   25.5168 C   0  0  0  0  0  0  0  0  0  0  0  0
    6.2898   10.3400   26.4179 C   0  0  0  0  0  0  0  0  0  0  0  0
    6.5047   11.6906   26.6974 C   0  0  0  0  0  0  0  0  0  0  0  0
    5.6205   12.3721   27.6415 N   0  0  0  0  0  0  0  0  0  0  0  0
    6.0897   13.3276   28.2759 O   0  0  0  0  0  0  0  0  0  0  0  0
    4.4708   11.9272   27.7770 O   0  0  0  0  0  0  0  0  0  0  0  0
    7.5642   12.3963   26.1184 C   0  0  0  0  0  0  0  0  0  0  0  0
    8.3914   11.7125   25.2085 C   0  0  0  0  0  0  0  0  0  0  0  0
   10.9249   14.9600   19.5369 C   0  0  0  0  0  0  0  0  0  0  0  0
   11.7071   14.4855   18.4078 C   0  0  0  0  0  0  0  0  0  0  0  0
    9.8828   15.8105   19.3333 O   0  0  0  0  0  0  0  0  0  0  0  0
  1  2  1  0
  2  3  2  0
  3  4  1  0
  4  5  1  0
  5  6  1  0
  6  7  1  0
  7  8  1  0
  8  9  2  0
  8 10  1  0
 10 11  2  0
 11 12  1  0
 12 13  1  0
 12 14  1  0
 14 15  2  0
 15 16  1  0
 16 17  2  0
 17 18  1  0
 18 19  2  0
 18 20  1  0
 17 21  1  0
 21 22  2  0
  4 23  2  0
 23 24  1  0
 23 25  1  0
 25  2  1  0
 22 10  1  0
 22 14  1  0
M  CHG  2  18   1  20  -1
M  END
>  <energy_score>  (258) 
-42.895939

>  <inchikey>  (258) 
None

>  <smiles>  (258) 
None

>  <ref_pdb>  (258) 
A2290a

>  <alias>  (258) 
None

>  <HIPPO Pose ID>  (258) 
497902

>  <name>  (258) 
P497902

>  <HIPPO Compound ID>  (258) 
289838

>  <ref_mols>  (258) 
A2290a,A3436a

>  <distance_score>  (258) 
0.707126

>  <inspiration_score>  (258) 
None

$$$$
P497903
     RDKit          3D

 25 27  0  0  0  0  0  0  0  0999 V2000
    5.1996   14.4801   28.5962 C   0  0  0  0  0  0  0  0  0  0  0  0
    6.0851   13.7256   27.7686 O   0  0  0  0  0  0  0  0  0  0  0  0
    5.6849   12.4504   27.5432 C   0  0  0  0  0  0  0  0  0  0  0  0
    4.7027   11.9116   28.0306 O   0  0  0  0  0  0  0  0  0  0  0  0
    6.6292   11.7600   26.6234 C   0  0  0  0  0  0  0  0  0  0  0  0
    6.4226   10.4017   26.3675 C   0  0  0  0  0  0  0  0  0  0  0  0
    7.2383    9.6982   25.4755 C   0  0  0  0  0  0  0  0  0  0  0  0
    8.2659   10.3881   24.8335 C   0  0  0  0  0  0  0  0  0  0  0  0
    8.5228   11.7264   25.1096 C   0  0  0  0  0  0  0  0  0  0  0  0
    7.6977   12.4298   26.0094 C   0  0  0  0  0  0  0  0  0  0  0  0
    9.6718   12.0349   24.3466 C   0  0  0  0  0  0  0  0  0  0  0  0
   10.4586   13.2713   24.3633 C   0  0  0  0  0  0  0  0  0  0  0  0
   10.3810   14.0479   25.2270 O   0  0  0  0  0  0  0  0  0  0  0  0
   11.3147   13.2785   23.0981 N   0  0  0  0  0  0  0  0  0  0  0  0
   12.3246   14.1887   22.6671 C   0  0  0  0  0  0  0  0  0  0  0  0
   12.3830   14.3317   21.1627 C   0  0  0  0  0  0  0  0  0  0  0  0
   11.1630   14.9402   20.5936 C   0  0  0  0  0  0  0  0  0  0  0  0
   10.7584   14.9926   19.2861 C   0  0  0  0  0  0  0  0  0  0  0  0
    9.7286   15.8781   19.1909 O   0  0  0  0  0  0  0  0  0  0  0  0
    9.5657   16.3252   20.4686 C   0  0  0  0  0  0  0  0  0  0  0  0
    8.5903   17.4027   20.6990 C   0  0  0  0  0  0  0  0  0  0  0  0
   10.3464   15.7370   21.3469 N   0  0  0  0  0  0  0  0  0  0  0  0
   10.0381   11.0070   23.5587 N   0  0  0  0  0  0  0  0  0  0  0  0
    9.1836   10.0246   23.8772 N   0  0  0  0  0  0  0  0  0  0  0  0
    9.3189    8.7645   23.1884 C   0  0  0  0  0  0  0  0  0  0  0  0
  1  2  1  0
  2  3  1  0
  3  4  2  0
  3  5  1  0
  5  6  2  0
  6  7  1  0
  7  8  2  0
  8  9  1  0
  9 10  2  0
  9 11  1  0
 11 12  1  0
 12 13  2  0
 12 14  1  0
 14 15  1  0
 15 16  1  0
 16 17  1  0
 17 18  2  0
 18 19  1  0
 19 20  1  0
 20 21  1  0
 20 22  2  0
 11 23  2  0
 23 24  1  0
 24 25  1  0
 10  5  1  0
 22 17  1  0
 24  8  1  0
M  END
>  <energy_score>  (259) 
-24.240014

>  <inchikey>  (259) 
None

>  <smiles>  (259) 
None

>  <ref_pdb>  (259) 
A2290a

>  <alias>  (259) 
None

>  <HIPPO Pose ID>  (259) 
497903

>  <name>  (259) 
P497903

>  <HIPPO Compound ID>  (259) 
289839

>  <ref_mols>  (259) 
A2290a,A3436a

>  <distance_score>  (259) 
0.539836

>  <inspiration_score>  (259) 
None

$$$$
P497904
     RDKit          3D

 25 27  0  0  0  0  0  0  0  0999 V2000
    5.6812   14.9748   28.0848 C   0  0  0  0  0  0  0  0  0  0  0  0
    6.5111   14.1248   27.2933 O   0  0  0  0  0  0  0  0  0  0  0  0
    6.1481   12.8186   27.3059 C   0  0  0  0  0  0  0  0  0  0  0  0
    5.2512   12.3320   27.9777 O   0  0  0  0  0  0  0  0  0  0  0  0
    7.0133   12.0266   26.3894 C   0  0  0  0  0  0  0  0  0  0  0  0
    6.7554   10.6569   26.2580 C   0  0  0  0  0  0  0  0  0  0  0  0
    7.5011    9.8583   25.3843 C   0  0  0  0  0  0  0  0  0  0  0  0
    8.5109   10.4734   24.6374 C   0  0  0  0  0  0  0  0  0  0  0  0
    8.8189   11.8242   24.7798 C   0  0  0  0  0  0  0  0  0  0  0  0
    8.0595   12.6175   25.6622 C   0  0  0  0  0  0  0  0  0  0  0  0
    9.9138   12.0503   23.9009 C   0  0  0  0  0  0  0  0  0  0  0  0
   10.6795   13.2929   23.6972 C   0  0  0  0  0  0  0  0  0  0  0  0
   10.7577   14.0998   24.5357 O   0  0  0  0  0  0  0  0  0  0  0  0
   11.2478   13.2809   22.2708 N   0  0  0  0  0  0  0  0  0  0  0  0
   11.9528   14.2970   21.5369 C   0  0  0  0  0  0  0  0  0  0  0  0
   11.2466   14.6494   20.2304 C   0  0  0  0  0  0  0  0  0  0  0  0
   10.0707   15.5259   20.3974 C   0  0  0  0  0  0  0  0  0  0  0  0
    9.2001   15.3442   21.4408 N   0  0  0  0  0  0  0  0  0  0  0  0
    8.3597   16.3428   21.3060 C   0  0  0  0  0  0  0  0  0  0  0  0
    8.5974   17.1663   20.2668 O   0  0  0  0  0  0  0  0  0  0  0  0
    9.5921   16.5351   19.5926 C   0  0  0  0  0  0  0  0  0  0  0  0
    9.8401   17.0801   18.2625 C   0  0  0  0  0  0  0  0  0  0  0  0
   10.2117   10.9424   23.2042 N   0  0  0  0  0  0  0  0  0  0  0  0
    9.3653   10.0099   23.6662 N   0  0  0  0  0  0  0  0  0  0  0  0
    9.4238    8.6915   23.0832 C   0  0  0  0  0  0  0  0  0  0  0  0
  1  2  1  0
  2  3  1  0
  3  4  2  0
  3  5  1  0
  5  6  2  0
  6  7  1  0
  7  8  2  0
  8  9  1  0
  9 10  2  0
  9 11  1  0
 11 12  1  0
 12 13  2  0
 12 14  1  0
 14 15  1  0
 15 16  1  0
 16 17  1  0
 17 18  1  0
 18 19  2  0
 19 20  1  0
 20 21  1  0
 21 22  1  0
 11 23  2  0
 23 24  1  0
 24 25  1  0
 10  5  1  0
 21 17  2  0
 24  8  1  0
M  END
>  <energy_score>  (260) 
-19.104063

>  <inchikey>  (260) 
None

>  <smiles>  (260) 
None

>  <ref_pdb>  (260) 
A2290a

>  <alias>  (260) 
None

>  <HIPPO Pose ID>  (260) 
497904

>  <name>  (260) 
P497904

>  <HIPPO Compound ID>  (260) 
289840

>  <ref_mols>  (260) 
A2290a,A3436a

>  <distance_score>  (260) 
0.856196

>  <inspiration_score>  (260) 
None

$$$$
P497905
     RDKit          3D

 25 27  0  0  0  0  0  0  0  0999 V2000
    4.4914   16.2239   25.2785 C   0  0  0  0  0  0  0  0  0  0  0  0
    5.7116   15.5211   25.0601 O   0  0  0  0  0  0  0  0  0  0  0  0
    5.8155   14.3455   25.7396 C   0  0  0  0  0  0  0  0  0  0  0  0
    4.9733   13.9361   26.5365 O   0  0  0  0  0  0  0  0  0  0  0  0
    7.0329   13.5973   25.4030 C   0  0  0  0  0  0  0  0  0  0  0  0
    8.1519   14.1550   24.8970 N   0  0  0  0  0  0  0  0  0  0  0  0
    8.9961   13.1102   24.7369 N   0  0  0  0  0  0  0  0  0  0  0  0
   10.3944   13.3862   24.9683 C   0  0  0  0  0  0  0  0  0  0  0  0
   11.3344   13.0165   23.8739 C   0  0  0  0  0  0  0  0  0  0  0  0
   12.1790   12.2299   24.0444 O   0  0  0  0  0  0  0  0  0  0  0  0
   11.0254   13.9021   22.6498 N   0  0  0  0  0  0  0  0  0  0  0  0
   11.7438   14.0749   21.4186 C   0  0  2  0  0  0  0  0  0  0  0  0
   12.8114   15.1012   21.6506 C   0  0  0  0  0  0  0  0  0  0  0  0
   10.8655   14.3537   20.2129 C   0  0  0  0  0  0  0  0  0  0  0  0
   10.0896   15.6011   20.1314 C   0  0  0  0  0  0  0  0  0  0  0  0
    9.8859   16.4140   19.0408 C   0  0  0  0  0  0  0  0  0  0  0  0
    9.0824   17.4392   19.4141 O   0  0  0  0  0  0  0  0  0  0  0  0
    8.8283   17.1796   20.7213 C   0  0  0  0  0  0  0  0  0  0  0  0
    9.3649   16.0698   21.1871 N   0  0  0  0  0  0  0  0  0  0  0  0
    8.3982   11.8888   24.9137 C   0  0  0  0  0  0  0  0  0  0  0  0
    8.8121   10.5835   24.6626 C   0  0  0  0  0  0  0  0  0  0  0  0
    7.9704    9.5690   25.1187 C   0  0  0  0  0  0  0  0  0  0  0  0
    6.8179    9.8449   25.8529 C   0  0  0  0  0  0  0  0  0  0  0  0
    6.4185   11.1567   26.0808 C   0  0  0  0  0  0  0  0  0  0  0  0
    7.1992   12.1929   25.5516 C   0  0  0  0  0  0  0  0  0  0  0  0
  1  2  1  0
  2  3  1  0
  3  4  2  0
  3  5  1  0
  5  6  2  0
  6  7  1  0
  7  8  1  0
  8  9  1  0
  9 10  2  0
  9 11  1  0
 11 12  1  0
 12 13  1  1
 12 14  1  0
 14 15  1  0
 15 16  2  0
 16 17  1  0
 17 18  1  0
 18 19  2  0
  7 20  1  0
 20 21  2  0
 21 22  1  0
 22 23  2  0
 23 24  1  0
 24 25  2  0
 25  5  1  0
 19 15  1  0
 25 20  1  0
M  END
>  <energy_score>  (261) 
-17.541923

>  <inchikey>  (261) 
None

>  <smiles>  (261) 
None

>  <ref_pdb>  (261) 
A2290a

>  <alias>  (261) 
None

>  <HIPPO Pose ID>  (261) 
497905

>  <name>  (261) 
P497905

>  <HIPPO Compound ID>  (261) 
289841

>  <ref_mols>  (261) 
A2290a,A3436a

>  <distance_score>  (261) 
1.701402

>  <inspiration_score>  (261) 
None

$$$$
P497906
     RDKit          3D

 25 27  0  0  0  0  0  0  0  0999 V2000
    8.3177   16.7512   28.1092 C   0  0  0  0  0  0  0  0  0  0  0  0
    8.6994   15.7062   27.2078 O   0  0  0  0  0  0  0  0  0  0  0  0
    7.8291   14.6471   27.2465 C   0  0  0  0  0  0  0  0  0  0  0  0
    6.8766   14.5985   28.0223 O   0  0  0  0  0  0  0  0  0  0  0  0
    8.1682   13.5374   26.3375 C   0  0  0  0  0  0  0  0  0  0  0  0
    9.1933   13.5352   25.4566 N   0  0  0  0  0  0  0  0  0  0  0  0
    9.1441   12.3047   24.8914 N   0  0  0  0  0  0  0  0  0  0  0  0
    9.9944   11.9015   23.7975 C   0  0  0  0  0  0  0  0  0  0  0  0
   11.1481   12.8238   23.5226 C   0  0  0  0  0  0  0  0  0  0  0  0
   12.1662   12.7752   24.0973 O   0  0  0  0  0  0  0  0  0  0  0  0
   10.7144   13.7003   22.3145 N   0  0  0  0  0  0  0  0  0  0  0  0
   11.4121   14.7623   21.6277 C   0  0  1  0  0  0  0  0  0  0  0  0
   12.8905   14.4912   21.6047 C   0  0  0  0  0  0  0  0  0  0  0  0
   10.8894   14.8216   20.1859 C   0  0  0  0  0  0  0  0  0  0  0  0
    9.9446   15.9325   19.9481 C   0  0  0  0  0  0  0  0  0  0  0  0
    9.7689   16.6844   18.8107 C   0  0  0  0  0  0  0  0  0  0  0  0
    8.9335   17.7128   19.1045 O   0  0  0  0  0  0  0  0  0  0  0  0
    8.6593   17.5332   20.4247 C   0  0  0  0  0  0  0  0  0  0  0  0
    9.1677   16.4415   20.9522 N   0  0  0  0  0  0  0  0  0  0  0  0
    8.1641   11.4953   25.3974 C   0  0  0  0  0  0  0  0  0  0  0  0
    7.8130   10.1771   25.1178 C   0  0  0  0  0  0  0  0  0  0  0  0
    6.7081    9.6794   25.8016 C   0  0  0  0  0  0  0  0  0  0  0  0
    6.0111   10.4315   26.7384 C   0  0  0  0  0  0  0  0  0  0  0  0
    6.3919   11.7401   27.0104 C   0  0  0  0  0  0  0  0  0  0  0  0
    7.4871   12.2837   26.3196 C   0  0  0  0  0  0  0  0  0  0  0  0
  1  2  1  0
  2  3  1  0
  3  4  2  0
  3  5  1  0
  5  6  2  0
  6  7  1  0
  7  8  1  0
  8  9  1  0
  9 10  2  0
  9 11  1  0
 11 12  1  0
 12 13  1  6
 12 14  1  0
 14 15  1  0
 15 16  2  0
 16 17  1  0
 17 18  1  0
 18 19  2  0
  7 20  1  0
 20 21  2  0
 21 22  1  0
 22 23  2  0
 23 24  1  0
 24 25  2  0
 25  5  1  0
 19 15  1  0
 25 20  1  0
M  END
>  <energy_score>  (262) 
-8.973323

>  <inchikey>  (262) 
None

>  <smiles>  (262) 
None

>  <ref_pdb>  (262) 
A2290a

>  <alias>  (262) 
None

>  <HIPPO Pose ID>  (262) 
497906

>  <name>  (262) 
P497906

>  <HIPPO Compound ID>  (262) 
289841

>  <ref_mols>  (262) 
A2290a,A3436a

>  <distance_score>  (262) 
1.699559

>  <inspiration_score>  (262) 
None

$$$$
P497907
     RDKit          3D

 25 27  0  0  0  0  0  0  0  0999 V2000
    4.0439   12.6687   28.7910 C   0  0  0  0  0  0  0  0  0  0  0  0
    4.8140   11.9180   27.8522 O   0  0  0  0  0  0  0  0  0  0  0  0
    6.0679   12.4022   27.6645 C   0  0  0  0  0  0  0  0  0  0  0  0
    6.5642   13.3584   28.2387 O   0  0  0  0  0  0  0  0  0  0  0  0
    6.7844   11.5996   26.6444 C   0  0  0  0  0  0  0  0  0  0  0  0
    6.4482   10.2740   26.3802 C   0  0  0  0  0  0  0  0  0  0  0  0
    7.1623    9.5280   25.4355 C   0  0  0  0  0  0  0  0  0  0  0  0
    8.2071   10.1274   24.7380 C   0  0  0  0  0  0  0  0  0  0  0  0
    8.5687   11.4362   25.0166 C   0  0  0  0  0  0  0  0  0  0  0  0
    7.8627   12.1887   25.9759 C   0  0  0  0  0  0  0  0  0  0  0  0
    9.7030   11.6430   24.2143 C   0  0  0  0  0  0  0  0  0  0  0  0
   10.6177   12.7451   24.2861 C   0  0  0  0  0  0  0  0  0  0  0  0
   10.6908   13.3975   25.2506 O   0  0  0  0  0  0  0  0  0  0  0  0
   11.3519   12.8686   22.9406 N   0  0  0  0  0  0  0  0  0  0  0  0
   12.2521   13.8652   22.4659 C   0  0  2  0  0  0  0  0  0  0  0  0
   11.8192   15.0858   23.2024 C   0  0  0  0  0  0  0  0  0  0  0  0
   12.2775   14.1739   20.9794 C   0  0  0  0  0  0  0  0  0  0  0  0
   11.0722   14.8302   20.3960 C   0  0  0  0  0  0  0  0  0  0  0  0
   10.8170   15.0254   19.0668 C   0  0  0  0  0  0  0  0  0  0  0  0
    9.7958   15.9173   18.9409 O   0  0  0  0  0  0  0  0  0  0  0  0
    9.4819   16.2327   20.2198 C   0  0  0  0  0  0  0  0  0  0  0  0
   10.1652   15.5715   21.1175 N   0  0  0  0  0  0  0  0  0  0  0  0
    9.9296   10.6456   23.3598 N   0  0  0  0  0  0  0  0  0  0  0  0
    9.0674    9.7064   23.7480 N   0  0  0  0  0  0  0  0  0  0  0  0
    9.1807    8.4381   23.0848 C   0  0  0  0  0  0  0  0  0  0  0  0
  1  2  1  0
  2  3  1  0
  3  4  2  0
  3  5  1  0
  5  6  2  0
  6  7  1  0
  7  8  2  0
  8  9  1  0
  9 10  2  0
  9 11  1  0
 11 12  1  0
 12 13  2  0
 12 14  1  0
 14 15  1  0
 15 16  1  1
 15 17  1  0
 17 18  1  0
 18 19  2  0
 19 20  1  0
 20 21  1  0
 21 22  2  0
 11 23  2  0
 23 24  1  0
 24 25  1  0
 10  5  1  0
 22 18  1  0
 24  8  1  0
M  END
>  <energy_score>  (263) 
-2.66247

>  <inchikey>  (263) 
None

>  <smiles>  (263) 
None

>  <ref_pdb>  (263) 
A2290a

>  <alias>  (263) 
None

>  <HIPPO Pose ID>  (263) 
497907

>  <name>  (263) 
P497907

>  <HIPPO Compound ID>  (263) 
289842

>  <ref_mols>  (263) 
A2290a,A3436a

>  <distance_score>  (263) 
0.586901

>  <inspiration_score>  (263) 
None

$$$$
P497908
     RDKit          3D

 25 27  0  0  0  0  0  0  0  0999 V2000
    3.4655   12.4962   29.2230 C   0  0  0  0  0  0  0  0  0  0  0  0
    4.2872   11.8511   28.2495 O   0  0  0  0  0  0  0  0  0  0  0  0
    5.4941   12.4474   28.0739 C   0  0  0  0  0  0  0  0  0  0  0  0
    5.9081   13.4253   28.6748 O   0  0  0  0  0  0  0  0  0  0  0  0
    6.2674   11.7417   27.0238 C   0  0  0  0  0  0  0  0  0  0  0  0
    6.0571   10.3903   26.7432 C   0  0  0  0  0  0  0  0  0  0  0  0
    6.8151    9.7290   25.7734 C   0  0  0  0  0  0  0  0  0  0  0  0
    7.7839   10.4524   25.0829 C   0  0  0  0  0  0  0  0  0  0  0  0
    7.9936   11.8024   25.3327 C   0  0  0  0  0  0  0  0  0  0  0  0
    7.2512   12.4586   26.3307 C   0  0  0  0  0  0  0  0  0  0  0  0
    9.0380   12.1609   24.4611 C   0  0  0  0  0  0  0  0  0  0  0  0
    9.8225   13.3897   24.4705 C   0  0  0  0  0  0  0  0  0  0  0  0
    9.7514   14.1804   25.3200 O   0  0  0  0  0  0  0  0  0  0  0  0
   10.7439   13.3204   23.2590 N   0  0  0  0  0  0  0  0  0  0  0  0
   11.8338   14.1485   22.8791 C   0  0  1  0  0  0  0  0  0  0  0  0
   12.9992   13.4736   23.5619 C   0  0  0  0  0  0  0  0  0  0  0  0
   12.0659   14.2922   21.3810 C   0  0  0  0  0  0  0  0  0  0  0  0
   10.9472   14.9600   20.6823 C   0  0  0  0  0  0  0  0  0  0  0  0
   10.6994   15.0578   19.3368 C   0  0  0  0  0  0  0  0  0  0  0  0
    9.6978   15.9634   19.1538 O   0  0  0  0  0  0  0  0  0  0  0  0
    9.3863   16.3626   20.4136 C   0  0  0  0  0  0  0  0  0  0  0  0
   10.0552   15.7477   21.3574 N   0  0  0  0  0  0  0  0  0  0  0  0
    9.3996   11.1429   23.6540 N   0  0  0  0  0  0  0  0  0  0  0  0
    8.6957   10.1051   24.1158 N   0  0  0  0  0  0  0  0  0  0  0  0
    9.0395    8.7845   23.6521 C   0  0  0  0  0  0  0  0  0  0  0  0
  1  2  1  0
  2  3  1  0
  3  4  2  0
  3  5  1  0
  5  6  2  0
  6  7  1  0
  7  8  2  0
  8  9  1  0
  9 10  2  0
  9 11  1  0
 11 12  1  0
 12 13  2  0
 12 14  1  0
 14 15  1  0
 15 16  1  1
 15 17  1  0
 17 18  1  0
 18 19  2  0
 19 20  1  0
 20 21  1  0
 21 22  2  0
 11 23  2  0
 23 24  1  0
 24 25  1  0
 10  5  1  0
 22 18  1  0
 24  8  1  0
M  END
>  <energy_score>  (264) 
-22.327593

>  <inchikey>  (264) 
None

>  <smiles>  (264) 
None

>  <ref_pdb>  (264) 
A2290a

>  <alias>  (264) 
None

>  <HIPPO Pose ID>  (264) 
497908

>  <name>  (264) 
P497908

>  <HIPPO Compound ID>  (264) 
289842

>  <ref_mols>  (264) 
A2290a,A3436a

>  <distance_score>  (264) 
0.815937

>  <inspiration_score>  (264) 
None

$$$$
P497909
     RDKit          3D

 25 27  0  0  0  0  0  0  0  0999 V2000
    7.1818   16.1749   28.0987 C   0  0  0  0  0  0  0  0  0  0  0  0
    7.3808   14.9693   27.3596 O   0  0  0  0  0  0  0  0  0  0  0  0
    8.5964   14.8772   26.7404 C   0  0  0  0  0  0  0  0  0  0  0  0
    9.4871   15.7169   26.8690 O   0  0  0  0  0  0  0  0  0  0  0  0
    8.7348   13.6573   25.9284 C   0  0  0  0  0  0  0  0  0  0  0  0
    9.7516   13.5226   25.0567 N   0  0  0  0  0  0  0  0  0  0  0  0
    9.5991   12.2946   24.5317 N   0  0  0  0  0  0  0  0  0  0  0  0
   10.4583   11.8175   23.4724 C   0  0  0  0  0  0  0  0  0  0  0  0
   11.6627   12.6972   23.1960 C   0  0  0  0  0  0  0  0  0  0  0  0
   12.6840   12.5764   23.7539 O   0  0  0  0  0  0  0  0  0  0  0  0
   11.2625   13.6294   22.0219 N   0  0  0  0  0  0  0  0  0  0  0  0
   12.0558   14.5304   21.2346 C   0  0  0  0  0  0  0  0  0  0  0  0
   11.4935   14.6307   19.8194 C   0  0  0  0  0  0  0  0  0  0  0  0
   10.3764   15.5815   19.6803 C   0  0  0  0  0  0  0  0  0  0  0  0
   10.1193   16.4239   18.6247 C   0  0  0  0  0  0  0  0  0  0  0  0
    9.2249   17.3466   19.0148 O   0  0  0  0  0  0  0  0  0  0  0  0
    9.0449   17.0438   20.3215 C   0  0  0  0  0  0  0  0  0  0  0  0
    8.3874   18.0746   21.0894 C   0  0  0  0  0  0  0  0  0  0  0  0
    9.5963   15.9266   20.7419 N   0  0  0  0  0  0  0  0  0  0  0  0
    8.5724   11.5772   25.0888 C   0  0  0  0  0  0  0  0  0  0  0  0
    8.1456   10.2603   24.9038 C   0  0  0  0  0  0  0  0  0  0  0  0
    7.0495    9.8425   25.6579 C   0  0  0  0  0  0  0  0  0  0  0  0
    6.4004   10.6964   26.5423 C   0  0  0  0  0  0  0  0  0  0  0  0
    6.8394   12.0103   26.7088 C   0  0  0  0  0  0  0  0  0  0  0  0
    7.9539   12.4598   25.9751 C   0  0  0  0  0  0  0  0  0  0  0  0
  1  2  1  0
  2  3  1  0
  3  4  2  0
  3  5  1  0
  5  6  2  0
  6  7  1  0
  7  8  1  0
  8  9  1  0
  9 10  2  0
  9 11  1  0
 11 12  1  0
 12 13  1  0
 13 14  1  0
 14 15  2  0
 15 16  1  0
 16 17  1  0
 17 18  1  0
 17 19  2  0
  7 20  1  0
 20 21  2  0
 21 22  1  0
 22 23  2  0
 23 24  1  0
 24 25  2  0
 25  5  1  0
 19 14  1  0
 25 20  1  0
M  END
>  <energy_score>  (265) 
-40.851664

>  <inchikey>  (265) 
None

>  <smiles>  (265) 
None

>  <ref_pdb>  (265) 
A2290a

>  <alias>  (265) 
None

>  <HIPPO Pose ID>  (265) 
497909

>  <name>  (265) 
P497909

>  <HIPPO Compound ID>  (265) 
289843

>  <ref_mols>  (265) 
A2290a,A3436a

>  <distance_score>  (265) 
1.55915

>  <inspiration_score>  (265) 
None

$$$$
P497910
     RDKit          3D

 25 27  0  0  0  0  0  0  0  0999 V2000
    8.4114   16.5061   28.0601 C   0  0  0  0  0  0  0  0  0  0  0  0
    8.7105   15.4047   27.1974 O   0  0  0  0  0  0  0  0  0  0  0  0
    7.8367   14.3640   27.3867 C   0  0  0  0  0  0  0  0  0  0  0  0
    6.9736   14.3768   28.2627 O   0  0  0  0  0  0  0  0  0  0  0  0
    8.0445   13.2051   26.5017 C   0  0  0  0  0  0  0  0  0  0  0  0
    9.0748   13.0479   25.6417 N   0  0  0  0  0  0  0  0  0  0  0  0
    8.7931   11.8791   25.0049 N   0  0  0  0  0  0  0  0  0  0  0  0
    9.4955   11.4651   23.8145 C   0  0  0  0  0  0  0  0  0  0  0  0
    9.8810   12.6723   23.0237 C   0  0  0  0  0  0  0  0  0  0  0  0
    9.1265   13.2425   22.3390 O   0  0  0  0  0  0  0  0  0  0  0  0
   11.3616   12.9873   23.3704 N   0  0  0  0  0  0  0  0  0  0  0  0
   12.1773   14.1087   23.0239 C   0  0  0  0  0  0  0  0  0  0  0  0
   12.3339   14.3515   21.5454 C   0  0  0  0  0  0  0  0  0  0  0  0
   11.1611   14.9541   20.8897 C   0  0  0  0  0  0  0  0  0  0  0  0
   10.2495   15.7359   21.5255 N   0  0  0  0  0  0  0  0  0  0  0  0
    9.4851   16.1955   20.5610 C   0  0  0  0  0  0  0  0  0  0  0  0
    9.8188   15.7637   19.3157 O   0  0  0  0  0  0  0  0  0  0  0  0
   10.9083   14.9805   19.5473 C   0  0  0  0  0  0  0  0  0  0  0  0
   11.6896   14.4707   18.4325 C   0  0  0  0  0  0  0  0  0  0  0  0
    7.7930   11.1642   25.5919 C   0  0  0  0  0  0  0  0  0  0  0  0
    7.3031    9.8859   25.3548 C   0  0  0  0  0  0  0  0  0  0  0  0
    6.1364    9.5475   26.0352 C   0  0  0  0  0  0  0  0  0  0  0  0
    5.5517   10.3876   26.9737 C   0  0  0  0  0  0  0  0  0  0  0  0
    6.0942   11.6379   27.2331 C   0  0  0  0  0  0  0  0  0  0  0  0
    7.2303   12.0367   26.5162 C   0  0  0  0  0  0  0  0  0  0  0  0
  1  2  1  0
  2  3  1  0
  3  4  2  0
  3  5  1  0
  5  6  2  0
  6  7  1  0
  7  8  1  0
  8  9  1  0
  9 10  2  0
  9 11  1  0
 11 12  1  0
 12 13  1  0
 13 14  1  0
 14 15  1  0
 15 16  2  0
 16 17  1  0
 17 18  1  0
 18 19  1  0
  7 20  1  0
 20 21  2  0
 21 22  1  0
 22 23  2  0
 23 24  1  0
 24 25  2  0
 25  5  1  0
 18 14  2  0
 25 20  1  0
M  END
>  <energy_score>  (266) 
-4.835412

>  <inchikey>  (266) 
None

>  <smiles>  (266) 
None

>  <ref_pdb>  (266) 
A2290a

>  <alias>  (266) 
None

>  <HIPPO Pose ID>  (266) 
497910

>  <name>  (266) 
P497910

>  <HIPPO Compound ID>  (266) 
289844

>  <ref_mols>  (266) 
A2290a,A3436a

>  <distance_score>  (266) 
1.648389

>  <inspiration_score>  (266) 
None

$$$$
P497911
     RDKit          3D

 25 27  0  0  0  0  0  0  0  0999 V2000
    8.6008   17.3352   20.7166 C   0  0  0  0  0  0  0  0  0  0  0  0
    9.5689   16.2355   20.5729 C   0  0  0  0  0  0  0  0  0  0  0  0
   10.2554   15.6331   21.5230 N   0  0  0  0  0  0  0  0  0  0  0  0
   11.1808   14.9034   20.8476 C   0  0  0  0  0  0  0  0  0  0  0  0
   12.4062   14.3449   21.4484 C   0  0  0  0  0  0  0  0  0  0  0  0
   12.3533   14.2545   22.9430 C   0  0  0  0  0  0  0  0  0  0  0  0
   11.4247   13.2801   23.3784 N   0  0  0  0  0  0  0  0  0  0  0  0
   10.4382   13.3005   24.5393 C   0  0  0  0  0  0  0  0  0  0  0  0
   10.2767   14.0892   25.3784 O   0  0  0  0  0  0  0  0  0  0  0  0
    9.6973   12.0449   24.4488 C   0  0  0  0  0  0  0  0  0  0  0  0
   10.1363   11.0781   23.6228 N   0  0  0  0  0  0  0  0  0  0  0  0
    9.3178   10.0277   23.8533 N   0  0  0  0  0  0  0  0  0  0  0  0
    9.5003    8.8012   23.0621 C   0  0  0  0  0  0  0  0  0  0  0  0
   10.4025    7.9460   23.5915 F   0  0  0  0  0  0  0  0  0  0  0  0
    8.3443    8.1277   22.9308 F   0  0  0  0  0  0  0  0  0  0  0  0
    9.9494    9.0742   21.8106 F   0  0  0  0  0  0  0  0  0  0  0  0
    8.3606   10.3191   24.8091 C   0  0  0  0  0  0  0  0  0  0  0  0
    7.3451    9.5712   25.4020 C   0  0  0  0  0  0  0  0  0  0  0  0
    6.5002   10.1952   26.3258 C   0  0  0  0  0  0  0  0  0  0  0  0
    6.6635   11.5349   26.6562 C   0  0  0  0  0  0  0  0  0  0  0  0
    7.6942   12.2765   26.0835 C   0  0  0  0  0  0  0  0  0  0  0  0
    8.5529   11.6524   25.1610 C   0  0  0  0  0  0  0  0  0  0  0  0
   10.9190   14.9733   19.5109 C   0  0  0  0  0  0  0  0  0  0  0  0
   11.7016   14.4865   18.3878 C   0  0  0  0  0  0  0  0  0  0  0  0
    9.8705   15.8170   19.3074 O   0  0  0  0  0  0  0  0  0  0  0  0
  1  2  1  0
  2  3  2  0
  3  4  1  0
  4  5  1  0
  5  6  1  0
  6  7  1  0
  7  8  1  0
  8  9  2  0
  8 10  1  0
 10 11  2  0
 11 12  1  0
 12 13  1  0
 13 14  1  0
 13 15  1  0
 13 16  1  0
 12 17  1  0
 17 18  2  0
 18 19  1  0
 19 20  2  0
 20 21  1  0
 21 22  2  0
  4 23  2  0
 23 24  1  0
 23 25  1  0
 25  2  1  0
 22 10  1  0
 22 17  1  0
M  END
>  <energy_score>  (267) 
-20.253316

>  <inchikey>  (267) 
None

>  <smiles>  (267) 
None

>  <ref_pdb>  (267) 
A2290a

>  <alias>  (267) 
None

>  <HIPPO Pose ID>  (267) 
497911

>  <name>  (267) 
P497911

>  <HIPPO Compound ID>  (267) 
289845

>  <ref_mols>  (267) 
A2290a,A3436a

>  <distance_score>  (267) 
0.679869

>  <inspiration_score>  (267) 
None

$$$$
P497912
     RDKit          3D

 25 27  0  0  0  0  0  0  0  0999 V2000
   12.6386   12.9903   24.1297 C   0  0  0  0  0  0  0  0  0  0  0  0
   12.8187   13.0531   22.7188 O   0  0  0  0  0  0  0  0  0  0  0  0
   12.5370   14.2467   22.1353 C   0  0  0  0  0  0  0  0  0  0  0  0
   13.4140   15.0183   21.7766 O   0  0  0  0  0  0  0  0  0  0  0  0
   11.0728   14.5314   21.9021 C   0  0  1  0  0  0  0  0  0  0  0  0
   10.8023   14.6610   20.4119 C   0  0  0  0  0  0  0  0  0  0  0  0
    9.9445   15.8219   20.0754 C   0  0  0  0  0  0  0  0  0  0  0  0
    9.8592   16.5328   18.9023 C   0  0  0  0  0  0  0  0  0  0  0  0
    9.0419   17.5988   19.1007 O   0  0  0  0  0  0  0  0  0  0  0  0
    8.6862   17.4876   20.4082 C   0  0  0  0  0  0  0  0  0  0  0  0
    9.1352   16.4088   21.0094 N   0  0  0  0  0  0  0  0  0  0  0  0
   10.2508   13.5242   22.5218 N   0  0  0  0  0  0  0  0  0  0  0  0
    9.4772   13.5466   23.8349 C   0  0  0  0  0  0  0  0  0  0  0  0
    9.3117   14.4070   24.5975 O   0  0  0  0  0  0  0  0  0  0  0  0
    9.0001   12.1962   24.0972 C   0  0  0  0  0  0  0  0  0  0  0  0
    9.4746   11.1440   23.4044 N   0  0  0  0  0  0  0  0  0  0  0  0
    8.8777   10.0900   23.9806 N   0  0  0  0  0  0  0  0  0  0  0  0
    9.2638    8.7666   23.5608 C   0  0  0  0  0  0  0  0  0  0  0  0
    7.9832   10.4367   24.9635 C   0  0  0  0  0  0  0  0  0  0  0  0
    7.0952    9.6986   25.7433 C   0  0  0  0  0  0  0  0  0  0  0  0
    6.3303   10.3750   26.6951 C   0  0  0  0  0  0  0  0  0  0  0  0
    6.4507   11.7476   26.8495 C   0  0  0  0  0  0  0  0  0  0  0  0
    5.7143   12.3662   27.7821 F   0  0  0  0  0  0  0  0  0  0  0  0
    7.3146   12.4920   26.0572 C   0  0  0  0  0  0  0  0  0  0  0  0
    8.0784   11.8153   25.0908 C   0  0  0  0  0  0  0  0  0  0  0  0
  1  2  1  0
  2  3  1  0
  3  4  2  0
  3  5  1  0
  5  6  1  6
  6  7  1  0
  7  8  2  0
  8  9  1  0
  9 10  1  0
 10 11  2  0
  5 12  1  0
 12 13  1  0
 13 14  2  0
 13 15  1  0
 15 16  2  0
 16 17  1  0
 17 18  1  0
 17 19  1  0
 19 20  2  0
 20 21  1  0
 21 22  2  0
 22 23  1  0
 22 24  1  0
 24 25  2  0
 11  7  1  0
 25 15  1  0
 25 19  1  0
M  END
>  <energy_score>  (268) 
-20.470727

>  <inchikey>  (268) 
None

>  <smiles>  (268) 
None

>  <ref_pdb>  (268) 
A2290a

>  <alias>  (268) 
None

>  <HIPPO Pose ID>  (268) 
497912

>  <name>  (268) 
P497912

>  <HIPPO Compound ID>  (268) 
289846

>  <ref_mols>  (268) 
A2290a,A3436a

>  <distance_score>  (268) 
1.009087

>  <inspiration_score>  (268) 
None

$$$$
P497913
     RDKit          3D

 26 28  0  0  0  0  0  0  0  0999 V2000
    3.6177   12.3514   28.8581 C   0  0  0  0  0  0  0  0  0  0  0  0
    4.4823   11.7259   27.9093 O   0  0  0  0  0  0  0  0  0  0  0  0
    5.7085   12.3025   27.8279 C   0  0  0  0  0  0  0  0  0  0  0  0
    6.1033   13.2523   28.4843 O   0  0  0  0  0  0  0  0  0  0  0  0
    6.5326   11.6147   26.8050 C   0  0  0  0  0  0  0  0  0  0  0  0
    6.3217   10.2754   26.4749 C   0  0  0  0  0  0  0  0  0  0  0  0
    7.1258    9.6336   25.5283 C   0  0  0  0  0  0  0  0  0  0  0  0
    8.1414   10.3592   24.9102 C   0  0  0  0  0  0  0  0  0  0  0  0
    8.3848   11.6858   25.2481 C   0  0  0  0  0  0  0  0  0  0  0  0
    7.5772   12.3295   26.2049 C   0  0  0  0  0  0  0  0  0  0  0  0
    9.5222   12.0385   24.4937 C   0  0  0  0  0  0  0  0  0  0  0  0
   10.3048   13.2730   24.5687 C   0  0  0  0  0  0  0  0  0  0  0  0
   10.1188   14.0935   25.3719 O   0  0  0  0  0  0  0  0  0  0  0  0
   11.3324   13.2045   23.4436 N   0  0  0  0  0  0  0  0  0  0  0  0
   12.2847   14.1609   23.0042 C   0  0  0  0  0  0  0  0  0  0  0  0
   12.3597   14.2710   21.5078 C   0  0  0  0  0  0  0  0  0  0  0  0
   11.1611   14.8651   20.8849 C   0  0  0  0  0  0  0  0  0  0  0  0
   10.2327   15.5992   21.5529 N   0  0  0  0  0  0  0  0  0  0  0  0
    9.5682   16.2199   20.5983 C   0  0  0  0  0  0  0  0  0  0  0  0
    8.6053   17.3253   20.7339 C   0  0  0  0  0  0  0  0  0  0  0  0
    9.8854   15.8131   19.3344 O   0  0  0  0  0  0  0  0  0  0  0  0
   10.9238   14.9588   19.5433 C   0  0  0  0  0  0  0  0  0  0  0  0
   11.7073   14.4804   18.4166 C   0  0  0  0  0  0  0  0  0  0  0  0
    9.8968   11.0505   23.6587 N   0  0  0  0  0  0  0  0  0  0  0  0
    9.0677   10.0403   23.9459 N   0  0  0  0  0  0  0  0  0  0  0  0
    9.2494    8.7993   23.2317 C   0  0  0  0  0  0  0  0  0  0  0  0
  1  2  1  0
  2  3  1  0
  3  4  2  0
  3  5  1  0
  5  6  2  0
  6  7  1  0
  7  8  2  0
  8  9  1  0
  9 10  2  0
  9 11  1  0
 11 12  1  0
 12 13  2  0
 12 14  1  0
 14 15  1  0
 15 16  1  0
 16 17  1  0
 17 18  1  0
 18 19  2  0
 19 20  1  0
 19 21  1  0
 21 22  1  0
 22 23  1  0
 11 24  2  0
 24 25  1  0
 25 26  1  0
 10  5  1  0
 22 17  2  0
 25  8  1  0
M  END
>  <energy_score>  (269) 
-17.487787

>  <inchikey>  (269) 
None

>  <smiles>  (269) 
None

>  <ref_pdb>  (269) 
A2290a

>  <alias>  (269) 
None

>  <HIPPO Pose ID>  (269) 
497913

>  <name>  (269) 
P497913

>  <HIPPO Compound ID>  (269) 
289847

>  <ref_mols>  (269) 
A2290a,A3436a

>  <distance_score>  (269) 
0.726927

>  <inspiration_score>  (269) 
None

$$$$
P497914
     RDKit          3D

 26 28  0  0  0  0  0  0  0  0999 V2000
    8.9967   16.4134   28.2013 C   0  0  0  0  0  0  0  0  0  0  0  0
    9.1574   15.4475   27.1589 O   0  0  0  0  0  0  0  0  0  0  0  0
    8.0798   14.6008   27.0540 C   0  0  0  0  0  0  0  0  0  0  0  0
    7.0509   14.7474   27.7088 O   0  0  0  0  0  0  0  0  0  0  0  0
    8.3094   13.4463   26.1697 C   0  0  0  0  0  0  0  0  0  0  0  0
    9.3455   13.3315   25.3171 N   0  0  0  0  0  0  0  0  0  0  0  0
    9.2337   12.0791   24.8113 N   0  0  0  0  0  0  0  0  0  0  0  0
   10.1354   11.5911   23.7953 C   0  0  0  0  0  0  0  0  0  0  0  0
   11.5055   12.2247   23.8667 C   0  0  0  0  0  0  0  0  0  0  0  0
   12.4401   11.6835   24.2899 O   0  0  0  0  0  0  0  0  0  0  0  0
   11.3707   13.5870   23.2006 N   0  0  0  0  0  0  0  0  0  0  0  0
   12.3537   14.5269   22.8294 C   0  0  0  0  0  0  0  0  0  0  0  0
   12.4467   14.5283   21.3411 C   0  0  0  0  0  0  0  0  0  0  0  0
   11.1872   15.0036   20.7425 C   0  0  0  0  0  0  0  0  0  0  0  0
   10.2294   15.6853   21.4232 N   0  0  0  0  0  0  0  0  0  0  0  0
    9.5424   16.2822   20.4724 C   0  0  0  0  0  0  0  0  0  0  0  0
    8.5834   17.3877   20.6271 C   0  0  0  0  0  0  0  0  0  0  0  0
    9.8389   15.8483   19.2075 O   0  0  0  0  0  0  0  0  0  0  0  0
   10.9028   15.0216   19.4146 C   0  0  0  0  0  0  0  0  0  0  0  0
   11.7010   14.5079   18.3170 C   0  0  0  0  0  0  0  0  0  0  0  0
    8.1848   11.3672   25.3192 C   0  0  0  0  0  0  0  0  0  0  0  0
    7.7529   10.0598   25.1133 C   0  0  0  0  0  0  0  0  0  0  0  0
    6.6054    9.6751   25.8044 C   0  0  0  0  0  0  0  0  0  0  0  0
    5.9412   10.5251   26.6790 C   0  0  0  0  0  0  0  0  0  0  0  0
    6.3979   11.8214   26.8764 C   0  0  0  0  0  0  0  0  0  0  0  0
    7.5372   12.2500   26.1764 C   0  0  0  0  0  0  0  0  0  0  0  0
  1  2  1  0
  2  3  1  0
  3  4  2  0
  3  5  1  0
  5  6  2  0
  6  7  1  0
  7  8  1  0
  8  9  1  0
  9 10  2  0
  9 11  1  0
 11 12  1  0
 12 13  1  0
 13 14  1  0
 14 15  1  0
 15 16  2  0
 16 17  1  0
 16 18  1  0
 18 19  1  0
 19 20  1  0
  7 21  1  0
 21 22  2  0
 22 23  1  0
 23 24  2  0
 24 25  1  0
 25 26  2  0
 26  5  1  0
 19 14  2  0
 26 21  1  0
M  END
>  <energy_score>  (270) 
-21.538638

>  <inchikey>  (270) 
None

>  <smiles>  (270) 
None

>  <ref_pdb>  (270) 
A2290a

>  <alias>  (270) 
None

>  <HIPPO Pose ID>  (270) 
497914

>  <name>  (270) 
P497914

>  <HIPPO Compound ID>  (270) 
289848

>  <ref_mols>  (270) 
A2290a,A3436a

>  <distance_score>  (270) 
1.462321

>  <inspiration_score>  (270) 
None

$$$$
P497915
     RDKit          3D

 27 29  0  0  0  0  0  0  0  0999 V2000
   14.0776   12.2866   25.1599 C   0  0  0  0  0  0  0  0  0  0  0  0
   13.0720   13.2588   24.8092 O   0  0  0  0  0  0  0  0  0  0  0  0
   12.7895   13.2269   23.4835 C   0  0  0  0  0  0  0  0  0  0  0  0
   13.2773   12.3754   22.7652 O   0  0  0  0  0  0  0  0  0  0  0  0
   11.7732   14.2005   22.9492 C   0  0  1  0  0  0  0  0  0  0  0  0
   12.0084   14.3943   21.4542 C   0  0  0  0  0  0  0  0  0  0  0  0
   10.8980   15.0512   20.7405 C   0  0  0  0  0  0  0  0  0  0  0  0
   10.6424   15.0931   19.3924 C   0  0  0  0  0  0  0  0  0  0  0  0
    9.6516   16.0019   19.1775 O   0  0  0  0  0  0  0  0  0  0  0  0
    9.3465   16.4485   20.4225 C   0  0  0  0  0  0  0  0  0  0  0  0
   10.0231   15.8725   21.3863 N   0  0  0  0  0  0  0  0  0  0  0  0
   10.6680   13.3796   23.3066 N   0  0  0  0  0  0  0  0  0  0  0  0
    9.7284   13.4523   24.4962 C   0  0  0  0  0  0  0  0  0  0  0  0
    9.6479   14.2396   25.3460 O   0  0  0  0  0  0  0  0  0  0  0  0
    8.9419   12.2272   24.4549 C   0  0  0  0  0  0  0  0  0  0  0  0
    9.3488   11.2096   23.6695 N   0  0  0  0  0  0  0  0  0  0  0  0
    8.6717   10.1544   24.1326 N   0  0  0  0  0  0  0  0  0  0  0  0
    9.0522    8.8392   23.6772 C   0  0  0  0  0  0  0  0  0  0  0  0
    7.7388   10.4888   25.0858 C   0  0  0  0  0  0  0  0  0  0  0  0
    6.7915    9.7407   25.7805 C   0  0  0  0  0  0  0  0  0  0  0  0
    5.9884   10.3957   26.7145 C   0  0  0  0  0  0  0  0  0  0  0  0
    6.1494   11.7634   26.9461 C   0  0  0  0  0  0  0  0  0  0  0  0
    5.2894   12.4229   27.9262 N   0  0  0  0  0  0  0  0  0  0  0  0
    4.1615   11.9428   28.1146 O   0  0  0  0  0  0  0  0  0  0  0  0
    5.7531   13.4019   28.5274 O   0  0  0  0  0  0  0  0  0  0  0  0
    7.1130   12.5148   26.2688 C   0  0  0  0  0  0  0  0  0  0  0  0
    7.8919   11.8535   25.3061 C   0  0  0  0  0  0  0  0  0  0  0  0
  1  2  1  0
  2  3  1  0
  3  4  2  0
  3  5  1  0
  5  6  1  6
  6  7  1  0
  7  8  2  0
  8  9  1  0
  9 10  1  0
 10 11  2  0
  5 12  1  0
 12 13  1  0
 13 14  2  0
 13 15  1  0
 15 16  2  0
 16 17  1  0
 17 18  1  0
 17 19  1  0
 19 20  2  0
 20 21  1  0
 21 22  2  0
 22 23  1  0
 23 24  2  0
 23 25  1  0
 22 26  1  0
 26 27  2  0
 11  7  1  0
 27 15  1  0
 27 19  1  0
M  CHG  2  23   1  25  -1
M  END
>  <energy_score>  (271) 
-14.732368

>  <inchikey>  (271) 
None

>  <smiles>  (271) 
None

>  <ref_pdb>  (271) 
A2290a

>  <alias>  (271) 
None

>  <HIPPO Pose ID>  (271) 
497915

>  <name>  (271) 
P497915

>  <HIPPO Compound ID>  (271) 
289849

>  <ref_mols>  (271) 
A2290a,A3436a

>  <distance_score>  (271) 
0.855717

>  <inspiration_score>  (271) 
None

$$$$
P497916
     RDKit          3D

 27 30  0  0  0  0  0  0  0  0999 V2000
    9.1433    8.7811   23.5959 C   0  0  0  0  0  0  0  0  0  0  0  0
    8.8877   10.1020   24.1132 N   0  0  0  0  0  0  0  0  0  0  0  0
    9.7089   11.0993   23.7583 N   0  0  0  0  0  0  0  0  0  0  0  0
    9.3485   12.1184   24.5633 C   0  0  0  0  0  0  0  0  0  0  0  0
   10.1577   13.3356   24.6337 C   0  0  0  0  0  0  0  0  0  0  0  0
    9.9976   14.1520   25.4462 O   0  0  0  0  0  0  0  0  0  0  0  0
   11.2138   13.2217   23.5419 N   0  0  0  0  0  0  0  0  0  0  0  0
   12.2369   14.1217   23.1520 C   0  0  0  0  0  0  0  0  0  0  0  0
   12.6131   14.0382   21.7038 C   0  0  0  0  0  0  0  0  0  0  0  0
   11.6207   14.5434   20.7664 C   0  0  0  0  0  0  0  0  0  0  0  0
   11.6683   14.4138   19.4058 C   0  0  0  0  0  0  0  0  0  0  0  0
   10.6567   15.1176   18.8945 O   0  0  0  0  0  0  0  0  0  0  0  0
   10.1060   15.7287   19.9676 C   0  0  0  0  0  0  0  0  0  0  0  0
    9.3139   16.8633   19.6271 C   0  0  0  0  0  0  0  0  0  0  0  0
    9.0752   17.1870   18.3003 C   0  0  0  0  0  0  0  0  0  0  0  0
    8.1964   18.1879   17.9999 C   0  0  0  0  0  0  0  0  0  0  0  0
    7.6634   18.9525   19.0120 C   0  0  0  0  0  0  0  0  0  0  0  0
    8.0655   18.7698   20.3033 C   0  0  0  0  0  0  0  0  0  0  0  0
    8.8137   17.6733   20.6218 C   0  0  0  0  0  0  0  0  0  0  0  0
   10.5776   15.3440   21.1336 N   0  0  0  0  0  0  0  0  0  0  0  0
    8.2128   11.8051   25.3355 C   0  0  0  0  0  0  0  0  0  0  0  0
    7.4273   12.4918   26.2758 C   0  0  0  0  0  0  0  0  0  0  0  0
    6.4019   11.7980   26.9053 C   0  0  0  0  0  0  0  0  0  0  0  0
    5.6495   12.4249   27.8199 F   0  0  0  0  0  0  0  0  0  0  0  0
    6.1540   10.4615   26.6289 C   0  0  0  0  0  0  0  0  0  0  0  0
    6.9275    9.7730   25.6928 C   0  0  0  0  0  0  0  0  0  0  0  0
    7.9541   10.4686   25.0525 C   0  0  0  0  0  0  0  0  0  0  0  0
  1  2  1  0
  2  3  1  0
  3  4  2  0
  4  5  1  0
  5  6  2  0
  5  7  1  0
  7  8  1  0
  8  9  1  0
  9 10  1  0
 10 11  2  0
 11 12  1  0
 12 13  1  0
 13 14  1  0
 14 15  2  0
 15 16  1  0
 16 17  2  0
 17 18  1  0
 18 19  2  0
 13 20  2  0
  4 21  1  0
 21 22  2  0
 22 23  1  0
 23 24  1  0
 23 25  2  0
 25 26  1  0
 26 27  2  0
 27  2  1  0
 20 10  1  0
 27 21  1  0
 19 14  1  0
M  END
>  <energy_score>  (272) 
-16.599524

>  <inchikey>  (272) 
None

>  <smiles>  (272) 
None

>  <ref_pdb>  (272) 
A2290a

>  <alias>  (272) 
None

>  <HIPPO Pose ID>  (272) 
497916

>  <name>  (272) 
P497916

>  <HIPPO Compound ID>  (272) 
289851

>  <ref_mols>  (272) 
A2290a,A3436a

>  <distance_score>  (272) 
1.008405

>  <inspiration_score>  (272) 
None

$$$$
P497917
     RDKit          3D

 27 30  0  0  0  0  0  0  0  0999 V2000
    8.5996   17.4321   20.6384 C   0  0  0  0  0  0  0  0  0  0  0  0
    9.5315   16.3050   20.4817 C   0  0  0  0  0  0  0  0  0  0  0  0
   10.1449   15.6304   21.4263 N   0  0  0  0  0  0  0  0  0  0  0  0
   11.0285   14.8333   20.7582 C   0  0  0  0  0  0  0  0  0  0  0  0
   12.1098   14.1314   21.4847 C   0  0  0  0  0  0  0  0  0  0  0  0
   12.1073   14.3898   22.9870 C   0  0  0  0  0  0  0  0  0  0  0  0
   10.9954   13.8141   23.6958 N   0  0  0  0  0  0  0  0  0  0  0  0
   10.4805   14.0661   25.1317 C   0  0  0  0  0  0  0  0  0  0  0  0
   10.9235   14.7230   25.9911 O   0  0  0  0  0  0  0  0  0  0  0  0
    9.2919   13.2171   25.3064 C   0  0  0  0  0  0  0  0  0  0  0  0
    9.1318   12.2114   24.4401 N   0  0  0  0  0  0  0  0  0  0  0  0
    8.2053   11.4442   25.0029 N   0  0  0  0  0  0  0  0  0  0  0  0
    8.0137   10.1370   24.4611 C   0  0  0  0  0  0  0  0  0  0  0  0
    9.3169    9.5605   24.1107 C   0  0  2  0  0  0  0  0  0  0  0  0
    9.9884   10.1752   22.9145 C   0  0  0  0  0  0  0  0  0  0  0  0
   10.4536    9.0422   22.2262 N   0  0  0  0  0  0  0  0  0  0  0  0
   10.3245    8.0202   23.1092 C   0  0  0  0  0  0  0  0  0  0  0  0
   11.1608    7.1787   23.3384 O   0  0  0  0  0  0  0  0  0  0  0  0
    9.2088    8.1984   23.8406 O   0  0  0  0  0  0  0  0  0  0  0  0
    7.5788   11.9805   26.0641 C   0  0  0  0  0  0  0  0  0  0  0  0
    6.5228   11.5080   26.8411 C   0  0  0  0  0  0  0  0  0  0  0  0
    6.1336   12.3193   27.8960 C   0  0  0  0  0  0  0  0  0  0  0  0
    6.7847   13.5281   28.1484 C   0  0  0  0  0  0  0  0  0  0  0  0
    7.8557   13.9708   27.3601 C   0  0  0  0  0  0  0  0  0  0  0  0
    8.2582   13.1781   26.2826 C   0  0  0  0  0  0  0  0  0  0  0  0
   10.8005   14.9487   19.4085 C   0  0  0  0  0  0  0  0  0  0  0  0
    9.8315   15.8910   19.2192 O   0  0  0  0  0  0  0  0  0  0  0  0
  1  2  1  0
  2  3  2  0
  3  4  1  0
  4  5  1  0
  5  6  1  0
  6  7  1  0
  7  8  1  0
  8  9  2  0
  8 10  1  0
 10 11  2  0
 11 12  1  0
 12 13  1  0
 14 13  1  6
 14 15  1  0
 15 16  1  0
 16 17  1  0
 17 18  2  0
 17 19  1  0
 12 20  1  0
 20 21  2  0
 21 22  1  0
 22 23  2  0
 23 24  1  0
 24 25  2  0
  4 26  2  0
 26 27  1  0
 27  2  1  0
 25 10  1  0
 19 14  1  0
 25 20  1  0
M  END
>  <energy_score>  (273) 
-25.321002

>  <inchikey>  (273) 
None

>  <smiles>  (273) 
None

>  <ref_pdb>  (273) 
A2290a

>  <alias>  (273) 
None

>  <HIPPO Pose ID>  (273) 
497917

>  <name>  (273) 
P497917

>  <HIPPO Compound ID>  (273) 
289854

>  <ref_mols>  (273) 
A2290a,A3436a

>  <distance_score>  (273) 
1.76231

>  <inspiration_score>  (273) 
None

$$$$
P497918
     RDKit          3D

 27 30  0  0  0  0  0  0  0  0999 V2000
    8.5858   17.4353   20.6486 C   0  0  0  0  0  0  0  0  0  0  0  0
    9.5384   16.3333   20.4474 C   0  0  0  0  0  0  0  0  0  0  0  0
   10.2401   15.7014   21.3587 N   0  0  0  0  0  0  0  0  0  0  0  0
   11.0976   14.9147   20.6426 C   0  0  0  0  0  0  0  0  0  0  0  0
   12.2713   14.2872   21.2865 C   0  0  0  0  0  0  0  0  0  0  0  0
   12.2910   14.4723   22.7954 C   0  0  0  0  0  0  0  0  0  0  0  0
   11.2254   13.7807   23.4546 N   0  0  0  0  0  0  0  0  0  0  0  0
   10.6784   13.9175   24.8909 C   0  0  0  0  0  0  0  0  0  0  0  0
   10.9592   14.6691   25.7399 O   0  0  0  0  0  0  0  0  0  0  0  0
    9.6831   12.8580   25.0206 C   0  0  0  0  0  0  0  0  0  0  0  0
    9.9371   11.7563   24.3107 N   0  0  0  0  0  0  0  0  0  0  0  0
    8.9496   10.9349   24.5981 N   0  0  0  0  0  0  0  0  0  0  0  0
    8.9984    9.6261   24.0387 C   0  0  0  0  0  0  0  0  0  0  0  0
   10.1371    9.4433   23.0270 C   0  0  1  0  0  0  0  0  0  0  0  0
   11.0105    8.2835   23.3516 C   0  0  0  0  0  0  0  0  0  0  0  0
   10.0441    7.2774   23.2689 N   0  0  0  0  0  0  0  0  0  0  0  0
    9.2211    7.6468   22.2415 C   0  0  0  0  0  0  0  0  0  0  0  0
    8.3959    6.9333   21.7252 O   0  0  0  0  0  0  0  0  0  0  0  0
    9.5359    8.9093   21.8757 O   0  0  0  0  0  0  0  0  0  0  0  0
    8.0449   11.4122   25.4879 C   0  0  0  0  0  0  0  0  0  0  0  0
    6.9165   10.8285   26.0691 C   0  0  0  0  0  0  0  0  0  0  0  0
    6.1819   11.6302   26.9374 C   0  0  0  0  0  0  0  0  0  0  0  0
    6.5683   12.9451   27.2029 C   0  0  0  0  0  0  0  0  0  0  0  0
    7.7151   13.5033   26.6222 C   0  0  0  0  0  0  0  0  0  0  0  0
    8.4769   12.7127   25.7534 C   0  0  0  0  0  0  0  0  0  0  0  0
   10.7709   14.9934   19.3132 C   0  0  0  0  0  0  0  0  0  0  0  0
    9.7639   15.9027   19.1744 O   0  0  0  0  0  0  0  0  0  0  0  0
  1  2  1  0
  2  3  2  0
  3  4  1  0
  4  5  1  0
  5  6  1  0
  6  7  1  0
  7  8  1  0
  8  9  2  0
  8 10  1  0
 10 11  2  0
 11 12  1  0
 12 13  1  0
 14 13  1  1
 14 15  1  0
 15 16  1  0
 16 17  1  0
 17 18  2  0
 17 19  1  0
 12 20  1  0
 20 21  2  0
 21 22  1  0
 22 23  2  0
 23 24  1  0
 24 25  2  0
  4 26  2  0
 26 27  1  0
 27  2  1  0
 25 10  1  0
 19 14  1  0
 25 20  1  0
M  END
>  <energy_score>  (274) 
-27.498361

>  <inchikey>  (274) 
None

>  <smiles>  (274) 
None

>  <ref_pdb>  (274) 
A2290a

>  <alias>  (274) 
None

>  <HIPPO Pose ID>  (274) 
497918

>  <name>  (274) 
P497918

>  <HIPPO Compound ID>  (274) 
289854

>  <ref_mols>  (274) 
A2290a,A3436a

>  <distance_score>  (274) 
1.182859

>  <inspiration_score>  (274) 
None

$$$$
P497919
     RDKit          3D

 27 29  0  0  0  0  0  0  0  0999 V2000
   14.4612   11.9699   24.9513 C   0  0  0  0  0  0  0  0  0  0  0  0
   13.6387   12.5309   23.9051 O   0  0  0  0  0  0  0  0  0  0  0  0
   12.7016   13.4311   24.2705 C   0  0  0  0  0  0  0  0  0  0  0  0
   12.4456   13.6798   25.4511 O   0  0  0  0  0  0  0  0  0  0  0  0
   11.8754   14.0616   23.1448 C   0  0  1  0  0  0  0  0  0  0  0  0
   12.2916   14.1067   21.6851 C   0  0  0  0  0  0  0  0  0  0  0  0
   11.2430   14.7876   20.8556 C   0  0  0  0  0  0  0  0  0  0  0  0
   11.0036   14.7767   19.5012 C   0  0  0  0  0  0  0  0  0  0  0  0
    9.9561   15.6159   19.2423 O   0  0  0  0  0  0  0  0  0  0  0  0
    9.6221   16.1120   20.4573 C   0  0  0  0  0  0  0  0  0  0  0  0
   10.3323   15.6316   21.4486 N   0  0  0  0  0  0  0  0  0  0  0  0
   10.7068   13.2855   23.3754 N   0  0  0  0  0  0  0  0  0  0  0  0
    9.5294   13.5241   24.3075 C   0  0  0  0  0  0  0  0  0  0  0  0
    9.2781   14.4315   24.9868 O   0  0  0  0  0  0  0  0  0  0  0  0
    8.7654   12.2921   24.2744 C   0  0  0  0  0  0  0  0  0  0  0  0
    9.1643   11.2852   23.4729 N   0  0  0  0  0  0  0  0  0  0  0  0
    8.5990   10.1948   24.0314 N   0  0  0  0  0  0  0  0  0  0  0  0
    9.1469    8.8683   23.7414 C   0  0  0  0  0  0  0  0  0  0  0  0
    8.7067    7.9978   24.6713 F   0  0  0  0  0  0  0  0  0  0  0  0
    8.7919    8.3681   22.5478 F   0  0  0  0  0  0  0  0  0  0  0  0
   10.5027    8.8829   23.7721 F   0  0  0  0  0  0  0  0  0  0  0  0
    7.6931   10.5212   25.0264 C   0  0  0  0  0  0  0  0  0  0  0  0
    6.8288    9.7637   25.8161 C   0  0  0  0  0  0  0  0  0  0  0  0
    6.0989   10.4101   26.8157 C   0  0  0  0  0  0  0  0  0  0  0  0
    6.2283   11.7770   27.0277 C   0  0  0  0  0  0  0  0  0  0  0  0
    7.0822   12.5338   26.2300 C   0  0  0  0  0  0  0  0  0  0  0  0
    7.7956   11.8941   25.2034 C   0  0  0  0  0  0  0  0  0  0  0  0
  1  2  1  0
  2  3  1  0
  3  4  2  0
  3  5  1  0
  5  6  1  6
  6  7  1  0
  7  8  2  0
  8  9  1  0
  9 10  1  0
 10 11  2  0
  5 12  1  0
 12 13  1  0
 13 14  2  0
 13 15  1  0
 15 16  2  0
 16 17  1  0
 17 18  1  0
 18 19  1  0
 18 20  1  0
 18 21  1  0
 17 22  1  0
 22 23  2  0
 23 24  1  0
 24 25  2  0
 25 26  1  0
 26 27  2  0
 11  7  1  0
 27 15  1  0
 27 22  1  0
M  END
>  <energy_score>  (275) 
-10.975621

>  <inchikey>  (275) 
None

>  <smiles>  (275) 
None

>  <ref_pdb>  (275) 
A2290a

>  <alias>  (275) 
None

>  <HIPPO Pose ID>  (275) 
497919

>  <name>  (275) 
P497919

>  <HIPPO Compound ID>  (275) 
289855

>  <ref_mols>  (275) 
A2290a,A3436a

>  <distance_score>  (275) 
0.955289

>  <inspiration_score>  (275) 
None

$$$$
P497920
     RDKit          3D

 27 30  0  0  0  0  0  0  0  0999 V2000
    9.1767    8.7729   23.5842 C   0  0  0  0  0  0  0  0  0  0  0  0
    8.9131   10.0918   24.1030 N   0  0  0  0  0  0  0  0  0  0  0  0
    9.7298   11.0929   23.7515 N   0  0  0  0  0  0  0  0  0  0  0  0
    9.3531   12.1140   24.5465 C   0  0  0  0  0  0  0  0  0  0  0  0
   10.1606   13.3316   24.6236 C   0  0  0  0  0  0  0  0  0  0  0  0
   10.0089   14.1372   25.4482 O   0  0  0  0  0  0  0  0  0  0  0  0
   11.2113   13.2265   23.5263 N   0  0  0  0  0  0  0  0  0  0  0  0
   12.2383   14.1250   23.1452 C   0  0  0  0  0  0  0  0  0  0  0  0
   12.6146   14.0453   21.6972 C   0  0  0  0  0  0  0  0  0  0  0  0
   11.6198   14.5481   20.7615 C   0  0  0  0  0  0  0  0  0  0  0  0
   11.6639   14.4157   19.4011 C   0  0  0  0  0  0  0  0  0  0  0  0
   10.6509   15.1187   18.8916 O   0  0  0  0  0  0  0  0  0  0  0  0
   10.1040   15.7322   19.9649 C   0  0  0  0  0  0  0  0  0  0  0  0
    9.3119   16.8666   19.6250 C   0  0  0  0  0  0  0  0  0  0  0  0
    8.8126   17.6762   20.6206 C   0  0  0  0  0  0  0  0  0  0  0  0
    8.0637   18.7721   20.3024 C   0  0  0  0  0  0  0  0  0  0  0  0
    7.6607   18.9543   19.0114 C   0  0  0  0  0  0  0  0  0  0  0  0
    8.1934   18.1902   17.9987 C   0  0  0  0  0  0  0  0  0  0  0  0
    9.0725   17.1896   18.2983 C   0  0  0  0  0  0  0  0  0  0  0  0
   10.5778   15.3494   21.1304 N   0  0  0  0  0  0  0  0  0  0  0  0
    8.2134   11.7959   25.3104 C   0  0  0  0  0  0  0  0  0  0  0  0
    7.4138   12.4824   26.2405 C   0  0  0  0  0  0  0  0  0  0  0  0
    6.3882   11.7845   26.8733 C   0  0  0  0  0  0  0  0  0  0  0  0
    5.2944   12.6736   28.1340 Br  0  0  0  0  0  0  0  0  0  0  0  0
    6.1643   10.4382   26.6058 C   0  0  0  0  0  0  0  0  0  0  0  0
    6.9529    9.7536   25.6786 C   0  0  0  0  0  0  0  0  0  0  0  0
    7.9714   10.4556   25.0353 C   0  0  0  0  0  0  0  0  0  0  0  0
  1  2  1  0
  2  3  1  0
  3  4  2  0
  4  5  1  0
  5  6  2  0
  5  7  1  0
  7  8  1  0
  8  9  1  0
  9 10  1  0
 10 11  2  0
 11 12  1  0
 12 13  1  0
 13 14  1  0
 14 15  2  0
 15 16  1  0
 16 17  2  0
 17 18  1  0
 18 19  2  0
 13 20  2  0
  4 21  1  0
 21 22  2  0
 22 23  1  0
 23 24  1  0
 23 25  2  0
 25 26  1  0
 26 27  2  0
 27  2  1  0
 20 10  1  0
 27 21  1  0
 19 14  1  0
M  END
>  <energy_score>  (276) 
-26.129523

>  <inchikey>  (276) 
None

>  <smiles>  (276) 
None

>  <ref_pdb>  (276) 
A2290a

>  <alias>  (276) 
None

>  <HIPPO Pose ID>  (276) 
497920

>  <name>  (276) 
P497920

>  <HIPPO Compound ID>  (276) 
289856

>  <ref_mols>  (276) 
A2290a,A3436a

>  <distance_score>  (276) 
0.998738

>  <inspiration_score>  (276) 
None

$$$$
P497921
     RDKit          3D

 27 30  0  0  0  0  0  0  0  0999 V2000
   12.6584   15.0792   22.0266 C   0  0  0  0  0  0  0  0  0  0  0  0
   11.6487   14.1034   21.5143 C   0  0  2  0  0  0  0  0  0  0  0  0
   11.0667   14.5143   20.1601 C   0  0  0  0  0  0  0  0  0  0  0  0
   10.1552   15.6780   20.0746 C   0  0  0  0  0  0  0  0  0  0  0  0
    9.8936   16.4672   18.9765 C   0  0  0  0  0  0  0  0  0  0  0  0
    9.0485   17.4598   19.3473 O   0  0  0  0  0  0  0  0  0  0  0  0
    8.8238   17.2050   20.6610 C   0  0  0  0  0  0  0  0  0  0  0  0
    9.4095   16.1232   21.1273 N   0  0  0  0  0  0  0  0  0  0  0  0
   10.6107   13.7693   22.4585 N   0  0  0  0  0  0  0  0  0  0  0  0
   10.5715   13.9035   23.9920 C   0  0  0  0  0  0  0  0  0  0  0  0
   11.3420   14.3771   24.7307 O   0  0  0  0  0  0  0  0  0  0  0  0
    9.3627   13.2009   24.4333 C   0  0  0  0  0  0  0  0  0  0  0  0
    8.8858   12.2523   23.6106 N   0  0  0  0  0  0  0  0  0  0  0  0
    8.1420   11.5168   24.4193 N   0  0  0  0  0  0  0  0  0  0  0  0
    8.0478   10.1368   24.1342 C   0  0  0  0  0  0  0  0  0  0  0  0
    9.3024    9.4165   24.3759 C   0  0  2  0  0  0  0  0  0  0  0  0
   10.4624    9.6993   23.4854 C   0  0  0  0  0  0  0  0  0  0  0  0
   10.0771    9.0342   22.3095 N   0  0  0  0  0  0  0  0  0  0  0  0
    9.2796    7.9966   22.6794 C   0  0  0  0  0  0  0  0  0  0  0  0
    8.8504    7.1154   21.9706 O   0  0  0  0  0  0  0  0  0  0  0  0
    9.0012    8.0895   24.0188 O   0  0  0  0  0  0  0  0  0  0  0  0
    7.7893   12.1026   25.5811 C   0  0  0  0  0  0  0  0  0  0  0  0
    6.9154   11.6930   26.5892 C   0  0  0  0  0  0  0  0  0  0  0  0
    6.8182   12.5296   27.6908 C   0  0  0  0  0  0  0  0  0  0  0  0
    7.5861   13.6925   27.7726 C   0  0  0  0  0  0  0  0  0  0  0  0
    8.4899   14.0569   26.7608 C   0  0  0  0  0  0  0  0  0  0  0  0
    8.5874   13.2423   25.6273 C   0  0  0  0  0  0  0  0  0  0  0  0
  2  1  1  1
  2  3  1  0
  3  4  1  0
  4  5  2  0
  5  6  1  0
  6  7  1  0
  7  8  2  0
  2  9  1  0
  9 10  1  0
 10 11  2  0
 10 12  1  0
 12 13  2  0
 13 14  1  0
 14 15  1  0
 16 15  1  6
 16 17  1  0
 17 18  1  0
 18 19  1  0
 19 20  2  0
 19 21  1  0
 14 22  1  0
 22 23  2  0
 23 24  1  0
 24 25  2  0
 25 26  1  0
 26 27  2  0
  8  4  1  0
 27 12  1  0
 21 16  1  0
 27 22  1  0
M  END
>  <energy_score>  (277) 
-23.589846

>  <inchikey>  (277) 
None

>  <smiles>  (277) 
None

>  <ref_pdb>  (277) 
A2290a

>  <alias>  (277) 
None

>  <HIPPO Pose ID>  (277) 
497921

>  <name>  (277) 
P497921

>  <HIPPO Compound ID>  (277) 
289858

>  <ref_mols>  (277) 
A2290a,A3436a

>  <distance_score>  (277) 
1.617116

>  <inspiration_score>  (277) 
None

$$$$
P497922
     RDKit          3D

 28 30  0  0  0  0  0  0  0  0999 V2000
    9.1968    8.9314   23.6274 C   0  0  0  0  0  0  0  0  0  0  0  0
    8.6000   10.2171   23.9049 N   0  0  0  0  0  0  0  0  0  0  0  0
    8.9109   11.2503   23.1066 N   0  0  0  0  0  0  0  0  0  0  0  0
    8.2213   12.2952   23.6156 C   0  0  0  0  0  0  0  0  0  0  0  0
    8.5142   13.6717   23.1807 C   0  0  0  0  0  0  0  0  0  0  0  0
    7.8935   14.5918   23.5218 O   0  0  0  0  0  0  0  0  0  0  0  0
    9.7854   13.5915   22.3395 N   0  0  0  0  0  0  0  0  0  0  0  0
   10.6228   14.6300   21.8151 C   0  0  2  0  0  0  0  0  0  0  0  0
   10.7157   14.7958   20.3269 C   0  0  0  0  0  0  0  0  0  0  0  0
    9.8915   15.9643   19.8925 C   0  0  0  0  0  0  0  0  0  0  0  0
    9.8790   16.6532   18.7047 C   0  0  0  0  0  0  0  0  0  0  0  0
    9.0470   17.7222   18.8209 O   0  0  0  0  0  0  0  0  0  0  0  0
    8.6272   17.6658   20.1118 C   0  0  0  0  0  0  0  0  0  0  0  0
    9.0768   16.6308   20.7816 N   0  0  0  0  0  0  0  0  0  0  0  0
   11.8809   14.2014   22.5281 C   0  0  0  0  0  0  0  0  0  0  0  0
   12.7727   13.5169   22.0616 O   0  0  0  0  0  0  0  0  0  0  0  0
   11.8111   14.6323   23.8316 O   0  0  0  0  0  0  0  0  0  0  0  0
   12.0252   13.7036   24.9265 C   0  0  0  0  0  0  0  0  0  0  0  0
   11.9260   14.5374   26.2284 C   0  0  0  0  0  0  0  0  0  0  0  0
   13.2815   12.8541   24.7205 C   0  0  0  0  0  0  0  0  0  0  0  0
   10.8396   12.7892   24.9695 C   0  0  0  0  0  0  0  0  0  0  0  0
    7.5668   11.9347   24.8191 C   0  0  0  0  0  0  0  0  0  0  0  0
    6.8664   12.6310   25.8199 C   0  0  0  0  0  0  0  0  0  0  0  0
    6.2932   11.8969   26.8496 C   0  0  0  0  0  0  0  0  0  0  0  0
    5.5994   12.5312   27.8043 F   0  0  0  0  0  0  0  0  0  0  0  0
    6.4023   10.5155   26.9012 C   0  0  0  0  0  0  0  0  0  0  0  0
    7.1424    9.8261   25.9400 C   0  0  0  0  0  0  0  0  0  0  0  0
    7.7615   10.5626   24.9343 C   0  0  0  0  0  0  0  0  0  0  0  0
  1  2  1  0
  2  3  1  0
  3  4  2  0
  4  5  1  0
  5  6  2  0
  5  7  1  0
  7  8  1  0
  8  9  1  6
  9 10  1  0
 10 11  2  0
 11 12  1  0
 12 13  1  0
 13 14  2  0
  8 15  1  0
 15 16  2  0
 15 17  1  0
 17 18  1  0
 18 19  1  0
 18 20  1  0
 18 21  1  0
  4 22  1  0
 22 23  2  0
 23 24  1  0
 24 25  1  0
 24 26  2  0
 26 27  1  0
 27 28  2  0
 28  2  1  0
 14 10  1  0
 28 22  1  0
M  END
>  <energy_score>  (278) 
-2.56079

>  <inchikey>  (278) 
None

>  <smiles>  (278) 
None

>  <ref_pdb>  (278) 
A2290a

>  <alias>  (278) 
None

>  <HIPPO Pose ID>  (278) 
497922

>  <name>  (278) 
P497922

>  <HIPPO Compound ID>  (278) 
289860

>  <ref_mols>  (278) 
A2290a,A3436a

>  <distance_score>  (278) 
1.402286

>  <inspiration_score>  (278) 
None

$$$$
P497923
     RDKit          3D

 28 31  0  0  0  0  0  0  0  0999 V2000
    9.1923    8.8342   23.2799 C   0  0  0  0  0  0  0  0  0  0  0  0
    8.9948   10.0765   23.9863 N   0  0  0  0  0  0  0  0  0  0  0  0
    9.8179   11.0914   23.6969 N   0  0  0  0  0  0  0  0  0  0  0  0
    9.4342   12.0782   24.5299 C   0  0  0  0  0  0  0  0  0  0  0  0
   10.2189   13.3076   24.6255 C   0  0  0  0  0  0  0  0  0  0  0  0
   10.0442   14.1147   25.4437 O   0  0  0  0  0  0  0  0  0  0  0  0
   11.2757   13.2208   23.5336 N   0  0  0  0  0  0  0  0  0  0  0  0
   12.2804   14.1404   23.1505 C   0  0  0  0  0  0  0  0  0  0  0  0
   12.6544   14.0604   21.7032 C   0  0  0  0  0  0  0  0  0  0  0  0
   11.6505   14.5444   20.7701 C   0  0  0  0  0  0  0  0  0  0  0  0
   11.6909   14.4044   19.4108 C   0  0  0  0  0  0  0  0  0  0  0  0
   10.6668   15.0911   18.9028 O   0  0  0  0  0  0  0  0  0  0  0  0
   10.1209   15.7052   19.9764 C   0  0  0  0  0  0  0  0  0  0  0  0
    9.3327   16.8406   19.6351 C   0  0  0  0  0  0  0  0  0  0  0  0
    8.8274   17.6522   20.6293 C   0  0  0  0  0  0  0  0  0  0  0  0
    8.0833   18.7492   20.3074 C   0  0  0  0  0  0  0  0  0  0  0  0
    7.7046   18.9134   19.0126 C   0  0  0  0  0  0  0  0  0  0  0  0
    6.7867   19.8198   18.7222 F   0  0  0  0  0  0  0  0  0  0  0  0
    8.2319   18.1569   17.9977 C   0  0  0  0  0  0  0  0  0  0  0  0
    9.1090   17.1622   18.3047 C   0  0  0  0  0  0  0  0  0  0  0  0
   10.6007   15.3323   21.1412 N   0  0  0  0  0  0  0  0  0  0  0  0
    8.3029   11.7218   25.2845 C   0  0  0  0  0  0  0  0  0  0  0  0
    7.5001   12.3687   26.2390 C   0  0  0  0  0  0  0  0  0  0  0  0
    6.4852   11.6404   26.8442 C   0  0  0  0  0  0  0  0  0  0  0  0
    5.7183   12.2268   27.7732 F   0  0  0  0  0  0  0  0  0  0  0  0
    6.2673   10.3076   26.5309 C   0  0  0  0  0  0  0  0  0  0  0  0
    7.0587    9.6618   25.5781 C   0  0  0  0  0  0  0  0  0  0  0  0
    8.0702   10.3899   24.9540 C   0  0  0  0  0  0  0  0  0  0  0  0
  1  2  1  0
  2  3  1  0
  3  4  2  0
  4  5  1  0
  5  6  2  0
  5  7  1  0
  7  8  1  0
  8  9  1  0
  9 10  1  0
 10 11  2  0
 11 12  1  0
 12 13  1  0
 13 14  1  0
 14 15  2  0
 15 16  1  0
 16 17  2  0
 17 18  1  0
 17 19  1  0
 19 20  2  0
 13 21  2  0
  4 22  1  0
 22 23  2  0
 23 24  1  0
 24 25  1  0
 24 26  2  0
 26 27  1  0
 27 28  2  0
 28  2  1  0
 21 10  1  0
 28 22  1  0
 20 14  1  0
M  END
>  <energy_score>  (279) 
-22.37753

>  <inchikey>  (279) 
None

>  <smiles>  (279) 
None

>  <ref_pdb>  (279) 
A2290a

>  <alias>  (279) 
None

>  <HIPPO Pose ID>  (279) 
497923

>  <name>  (279) 
P497923

>  <HIPPO Compound ID>  (279) 
289862

>  <ref_mols>  (279) 
A2290a,A3436a

>  <distance_score>  (279) 
0.983475

>  <inspiration_score>  (279) 
None

$$$$
P497924
     RDKit          3D

 28 31  0  0  0  0  0  0  0  0999 V2000
    9.2014    8.8340   23.2799 C   0  0  0  0  0  0  0  0  0  0  0  0
    9.0058   10.0690   24.0010 N   0  0  0  0  0  0  0  0  0  0  0  0
    9.8338   11.0868   23.7302 N   0  0  0  0  0  0  0  0  0  0  0  0
    9.4243   12.0741   24.5510 C   0  0  0  0  0  0  0  0  0  0  0  0
   10.1815   13.3203   24.6326 C   0  0  0  0  0  0  0  0  0  0  0  0
   10.0434   14.1009   25.4827 O   0  0  0  0  0  0  0  0  0  0  0  0
   11.1627   13.2894   23.4711 N   0  0  0  0  0  0  0  0  0  0  0  0
   12.2394   14.1500   23.1535 C   0  0  0  0  0  0  0  0  0  0  0  0
   12.6520   14.0746   21.7155 C   0  0  0  0  0  0  0  0  0  0  0  0
   11.6618   14.5585   20.7669 C   0  0  0  0  0  0  0  0  0  0  0  0
   11.7027   14.4078   19.4090 C   0  0  0  0  0  0  0  0  0  0  0  0
   10.6783   15.0914   18.8945 O   0  0  0  0  0  0  0  0  0  0  0  0
   10.1287   15.7093   19.9639 C   0  0  0  0  0  0  0  0  0  0  0  0
    9.3353   16.8405   19.6234 C   0  0  0  0  0  0  0  0  0  0  0  0
    8.8306   17.6487   20.6217 C   0  0  0  0  0  0  0  0  0  0  0  0
    8.0845   18.7456   20.3051 C   0  0  0  0  0  0  0  0  0  0  0  0
    7.7037   18.9128   19.0113 C   0  0  0  0  0  0  0  0  0  0  0  0
    6.7862   19.8205   18.7243 F   0  0  0  0  0  0  0  0  0  0  0  0
    8.2288   18.1581   17.9933 C   0  0  0  0  0  0  0  0  0  0  0  0
    9.1075   17.1633   18.2949 C   0  0  0  0  0  0  0  0  0  0  0  0
   10.6114   15.3488   21.1302 N   0  0  0  0  0  0  0  0  0  0  0  0
    8.2942   11.7065   25.3000 C   0  0  0  0  0  0  0  0  0  0  0  0
    7.4753   12.3495   26.2448 C   0  0  0  0  0  0  0  0  0  0  0  0
    6.4539   11.6167   26.8419 C   0  0  0  0  0  0  0  0  0  0  0  0
    5.3372   12.4437   28.1240 Br  0  0  0  0  0  0  0  0  0  0  0  0
    6.2541   10.2790   26.5225 C   0  0  0  0  0  0  0  0  0  0  0  0
    7.0624    9.6419   25.5771 C   0  0  0  0  0  0  0  0  0  0  0  0
    8.0741   10.3755   24.9642 C   0  0  0  0  0  0  0  0  0  0  0  0
  1  2  1  0
  2  3  1  0
  3  4  2  0
  4  5  1  0
  5  6  2  0
  5  7  1  0
  7  8  1  0
  8  9  1  0
  9 10  1  0
 10 11  2  0
 11 12  1  0
 12 13  1  0
 13 14  1  0
 14 15  2  0
 15 16  1  0
 16 17  2  0
 17 18  1  0
 17 19  1  0
 19 20  2  0
 13 21  2  0
  4 22  1  0
 22 23  2  0
 23 24  1  0
 24 25  1  0
 24 26  2  0
 26 27  1  0
 27 28  2  0
 28  2  1  0
 21 10  1  0
 28 22  1  0
 20 14  1  0
M  END
>  <energy_score>  (280) 
-31.166245

>  <inchikey>  (280) 
None

>  <smiles>  (280) 
None

>  <ref_pdb>  (280) 
A2290a

>  <alias>  (280) 
None

>  <HIPPO Pose ID>  (280) 
497924

>  <name>  (280) 
P497924

>  <HIPPO Compound ID>  (280) 
289863

>  <ref_mols>  (280) 
A2290a,A3436a

>  <distance_score>  (280) 
0.989516

>  <inspiration_score>  (280) 
None

$$$$
P497925
     RDKit          3D

 28 31  0  0  0  0  0  0  0  0999 V2000
    8.4717   18.2638   18.9151 C   0  0  0  0  0  0  0  0  0  0  0  0
    9.2706   17.1389   19.4279 C   0  0  0  0  0  0  0  0  0  0  0  0
    9.3408   16.6694   20.6501 N   0  0  0  0  0  0  0  0  0  0  0  0
   10.1611   15.5756   20.5420 C   0  0  0  0  0  0  0  0  0  0  0  0
   10.3551   14.6907   21.6879 C   0  0  0  0  0  0  0  0  0  0  0  0
    8.9415   14.3266   22.1112 C   0  0  0  0  0  0  0  0  0  0  0  0
    8.8816   13.5238   23.2679 N   0  0  0  0  0  0  0  0  0  0  0  0
    8.5956   13.8977   24.7249 C   0  0  0  0  0  0  0  0  0  0  0  0
    8.4390   14.9383   25.2200 O   0  0  0  0  0  0  0  0  0  0  0  0
    8.4527   12.6237   25.3966 C   0  0  0  0  0  0  0  0  0  0  0  0
    9.0742   11.5498   24.8929 N   0  0  0  0  0  0  0  0  0  0  0  0
    8.2832   10.5421   25.2493 N   0  0  0  0  0  0  0  0  0  0  0  0
    8.3609    9.3085   24.5159 C   0  0  0  0  0  0  0  0  0  0  0  0
    9.1229    9.4738   23.2159 C   0  0  2  0  0  0  0  0  0  0  0  0
    9.0737    8.2068   22.4272 C   0  0  0  0  0  0  0  0  0  0  0  0
    9.9704    7.4608   23.1771 N   0  0  0  0  0  0  0  0  0  0  0  0
   10.9396    8.3120   23.5545 C   0  0  0  0  0  0  0  0  0  0  0  0
   12.0214    7.9564   23.9242 O   0  0  0  0  0  0  0  0  0  0  0  0
   10.5122    9.5912   23.4808 O   0  0  0  0  0  0  0  0  0  0  0  0
    7.3298   10.8813   26.1609 C   0  0  0  0  0  0  0  0  0  0  0  0
    6.3406   10.1408   26.8007 C   0  0  0  0  0  0  0  0  0  0  0  0
    5.4659   10.8419   27.6264 C   0  0  0  0  0  0  0  0  0  0  0  0
    5.5573   12.2254   27.7714 C   0  0  0  0  0  0  0  0  0  0  0  0
    6.5330   12.9568   27.0974 C   0  0  0  0  0  0  0  0  0  0  0  0
    7.4484   12.2599   26.3060 C   0  0  0  0  0  0  0  0  0  0  0  0
   10.5960   15.4417   19.2558 C   0  0  0  0  0  0  0  0  0  0  0  0
   11.5824   14.5660   18.6173 C   0  0  0  0  0  0  0  0  0  0  0  0
   10.0096   16.4380   18.5247 O   0  0  0  0  0  0  0  0  0  0  0  0
  1  2  1  0
  2  3  2  0
  3  4  1  0
  4  5  1  0
  5  6  1  0
  6  7  1  0
  7  8  1  0
  8  9  2  0
  8 10  1  0
 10 11  2  0
 11 12  1  0
 12 13  1  0
 14 13  1  1
 14 15  1  0
 15 16  1  0
 16 17  1  0
 17 18  2  0
 17 19  1  0
 12 20  1  0
 20 21  2  0
 21 22  1  0
 22 23  2  0
 23 24  1  0
 24 25  2  0
  4 26  2  0
 26 27  1  0
 26 28  1  0
 28  2  1  0
 25 10  1  0
 19 14  1  0
 25 20  1  0
M  END
>  <energy_score>  (281) 
-23.696832

>  <inchikey>  (281) 
None

>  <smiles>  (281) 
None

>  <ref_pdb>  (281) 
A2290a

>  <alias>  (281) 
None

>  <HIPPO Pose ID>  (281) 
497925

>  <name>  (281) 
P497925

>  <HIPPO Compound ID>  (281) 
289865

>  <ref_mols>  (281) 
A2290a,A3436a

>  <distance_score>  (281) 
1.925326

>  <inspiration_score>  (281) 
None

$$$$
P497926
     RDKit          3D

 28 31  0  0  0  0  0  0  0  0999 V2000
    7.6835   19.2117   19.5787 C   0  0  0  0  0  0  0  0  0  0  0  0
    8.3418   17.9318   19.7639 C   0  0  0  0  0  0  0  0  0  0  0  0
    8.3257   17.2620   20.9686 C   0  0  0  0  0  0  0  0  0  0  0  0
    8.8426   16.0050   21.0206 C   0  0  0  0  0  0  0  0  0  0  0  0
    9.6426   15.6075   19.9683 C   0  0  0  0  0  0  0  0  0  0  0  0
   10.5966   14.6285   20.2811 C   0  0  0  0  0  0  0  0  0  0  0  0
   10.8338   14.2160   21.4977 N   0  0  0  0  0  0  0  0  0  0  0  0
   12.1547   13.9831   21.4479 C   0  0  0  0  0  0  0  0  0  0  0  0
   12.8749   13.7025   22.6729 C   0  0  0  0  0  0  0  0  0  0  0  0
   12.1217   13.9940   23.9391 C   0  0  0  0  0  0  0  0  0  0  0  0
   11.0235   13.1511   24.1626 N   0  0  0  0  0  0  0  0  0  0  0  0
    9.7724   13.3614   24.9904 C   0  0  0  0  0  0  0  0  0  0  0  0
    9.4707   14.2365   25.6905 O   0  0  0  0  0  0  0  0  0  0  0  0
    8.9982   12.1399   24.8177 C   0  0  0  0  0  0  0  0  0  0  0  0
    9.4528   11.1536   24.0173 N   0  0  0  0  0  0  0  0  0  0  0  0
    8.6499   10.1219   24.2912 N   0  0  0  0  0  0  0  0  0  0  0  0
    8.9881    8.8321   23.7421 C   0  0  0  0  0  0  0  0  0  0  0  0
    7.6696   10.4282   25.2039 C   0  0  0  0  0  0  0  0  0  0  0  0
    6.6513    9.6849   25.7904 C   0  0  0  0  0  0  0  0  0  0  0  0
    5.8267   10.3117   26.7269 C   0  0  0  0  0  0  0  0  0  0  0  0
    6.0053   11.6511   27.0506 C   0  0  0  0  0  0  0  0  0  0  0  0
    4.8592   12.4618   28.3175 Br  0  0  0  0  0  0  0  0  0  0  0  0
    7.0187   12.3993   26.4635 C   0  0  0  0  0  0  0  0  0  0  0  0
    7.8529   11.7657   25.5290 C   0  0  0  0  0  0  0  0  0  0  0  0
   12.6089   14.0906   20.1619 C   0  0  0  0  0  0  0  0  0  0  0  0
   11.5901   14.4771   19.3785 O   0  0  0  0  0  0  0  0  0  0  0  0
    9.7561   16.3319   18.8002 C   0  0  0  0  0  0  0  0  0  0  0  0
    9.0011   17.4406   18.6535 C   0  0  0  0  0  0  0  0  0  0  0  0
  1  2  1  0
  2  3  2  0
  3  4  1  0
  4  5  2  0
  5  6  1  0
  6  7  2  0
  7  8  1  0
  8  9  1  0
  9 10  1  0
 10 11  1  0
 11 12  1  0
 12 13  2  0
 12 14  1  0
 14 15  2  0
 15 16  1  0
 16 17  1  0
 16 18  1  0
 18 19  2  0
 19 20  1  0
 20 21  2  0
 21 22  1  0
 21 23  1  0
 23 24  2  0
  8 25  2  0
 25 26  1  0
  5 27  1  0
 27 28  2  0
 28  2  1  0
 26  6  1  0
 24 14  1  0
 24 18  1  0
M  END
>  <energy_score>  (282) 
-7.132841

>  <inchikey>  (282) 
None

>  <smiles>  (282) 
None

>  <ref_pdb>  (282) 
A2290a

>  <alias>  (282) 
None

>  <HIPPO Pose ID>  (282) 
497926

>  <name>  (282) 
P497926

>  <HIPPO Compound ID>  (282) 
289866

>  <ref_mols>  (282) 
A2290a,A3436a

>  <distance_score>  (282) 
1.692655

>  <inspiration_score>  (282) 
None

$$$$
P497927
     RDKit          3D

 28 30  0  0  0  0  0  0  0  0999 V2000
    6.8020   16.1083   27.8311 C   0  0  0  0  0  0  0  0  0  0  0  0
    7.2070   14.9073   27.1719 O   0  0  0  0  0  0  0  0  0  0  0  0
    8.5141   14.8943   26.7773 C   0  0  0  0  0  0  0  0  0  0  0  0
    9.3123   15.7977   27.0214 O   0  0  0  0  0  0  0  0  0  0  0  0
    8.8795   13.6823   26.0294 C   0  0  0  0  0  0  0  0  0  0  0  0
   10.0865   13.5927   25.4400 N   0  0  0  0  0  0  0  0  0  0  0  0
   10.0855   12.3967   24.8233 N   0  0  0  0  0  0  0  0  0  0  0  0
   11.1798   12.0923   23.9153 C   0  0  0  0  0  0  0  0  0  0  0  0
   11.3134   13.2069   22.9135 C   0  0  0  0  0  0  0  0  0  0  0  0
   12.2540   13.8869   22.8058 O   0  0  0  0  0  0  0  0  0  0  0  0
    9.9425   13.2726   22.2016 N   0  0  0  0  0  0  0  0  0  0  0  0
    9.4119   14.2456   21.2797 C   0  0  2  0  0  0  0  0  0  0  0  0
   10.3390   15.4020   21.0275 C   0  0  0  0  0  0  0  0  0  0  0  0
    9.6730   16.4411   20.2287 C   0  0  0  0  0  0  0  0  0  0  0  0
    9.7417   16.7114   18.8855 C   0  0  0  0  0  0  0  0  0  0  0  0
    8.9306   17.7694   18.6180 O   0  0  0  0  0  0  0  0  0  0  0  0
    8.4311   18.1082   19.8388 C   0  0  0  0  0  0  0  0  0  0  0  0
    8.8503   17.3533   20.8274 N   0  0  0  0  0  0  0  0  0  0  0  0
    7.9746   14.3367   21.8146 C   0  0  0  0  0  0  0  0  0  0  0  0
    7.2410   13.3433   21.7624 O   0  0  0  0  0  0  0  0  0  0  0  0
    7.6053   15.4744   22.4091 O   0  0  0  0  0  0  0  0  0  0  0  0
    6.3239   15.4386   23.0382 C   0  0  0  0  0  0  0  0  0  0  0  0
    8.9837   11.6296   25.1044 C   0  0  0  0  0  0  0  0  0  0  0  0
    8.6410   10.3157   24.7764 C   0  0  0  0  0  0  0  0  0  0  0  0
    7.4685    9.8095   25.3383 C   0  0  0  0  0  0  0  0  0  0  0  0
    6.6336   10.5951   26.1251 C   0  0  0  0  0  0  0  0  0  0  0  0
    6.9570   11.9270   26.3869 C   0  0  0  0  0  0  0  0  0  0  0  0
    8.1665   12.4500   25.8894 C   0  0  0  0  0  0  0  0  0  0  0  0
  1  2  1  0
  2  3  1  0
  3  4  2  0
  3  5  1  0
  5  6  2  0
  6  7  1  0
  7  8  1  0
  8  9  1  0
  9 10  2  0
  9 11  1  0
 11 12  1  0
 12 13  1  1
 13 14  1  0
 14 15  2  0
 15 16  1  0
 16 17  1  0
 17 18  2  0
 12 19  1  0
 19 20  2  0
 19 21  1  0
 21 22  1  0
  7 23  1  0
 23 24  2  0
 24 25  1  0
 25 26  2  0
 26 27  1  0
 27 28  2  0
 28  5  1  0
 18 14  1  0
 28 23  1  0
M  END
>  <energy_score>  (283) 
-1.56021

>  <inchikey>  (283) 
None

>  <smiles>  (283) 
None

>  <ref_pdb>  (283) 
A2290a

>  <alias>  (283) 
None

>  <HIPPO Pose ID>  (283) 
497927

>  <name>  (283) 
P497927

>  <HIPPO Compound ID>  (283) 
289869

>  <ref_mols>  (283) 
A2290a,A3436a

>  <distance_score>  (283) 
1.836773

>  <inspiration_score>  (283) 
None

$$$$
P497928
     RDKit          3D

 28 30  0  0  0  0  0  0  0  0999 V2000
    3.6803   12.0500   29.1894 C   0  0  0  0  0  0  0  0  0  0  0  0
    4.5157   11.4826   28.1793 O   0  0  0  0  0  0  0  0  0  0  0  0
    5.6486   12.1932   27.9477 C   0  0  0  0  0  0  0  0  0  0  0  0
    5.9889   13.2159   28.5187 O   0  0  0  0  0  0  0  0  0  0  0  0
    6.4429   11.5530   26.8725 C   0  0  0  0  0  0  0  0  0  0  0  0
    6.3734   10.1799   26.6296 C   0  0  0  0  0  0  0  0  0  0  0  0
    7.1579    9.5848   25.6372 C   0  0  0  0  0  0  0  0  0  0  0  0
    7.9992   10.3907   24.8809 C   0  0  0  0  0  0  0  0  0  0  0  0
    8.0541   11.7644   25.0853 C   0  0  0  0  0  0  0  0  0  0  0  0
    7.2977   12.3595   26.1106 C   0  0  0  0  0  0  0  0  0  0  0  0
    8.9439   12.2246   24.1015 C   0  0  0  0  0  0  0  0  0  0  0  0
    9.4730   13.5670   23.9126 C   0  0  0  0  0  0  0  0  0  0  0  0
    9.4216   14.3870   24.7346 O   0  0  0  0  0  0  0  0  0  0  0  0
   10.1408   13.5808   22.5410 N   0  0  0  0  0  0  0  0  0  0  0  0
   10.9765   14.5757   21.9149 C   0  0  2  0  0  0  0  0  0  0  0  0
   10.7868   14.7162   20.4230 C   0  0  0  0  0  0  0  0  0  0  0  0
    9.9256   15.8680   20.0682 C   0  0  0  0  0  0  0  0  0  0  0  0
    9.8391   16.5573   18.8824 C   0  0  0  0  0  0  0  0  0  0  0  0
    9.0215   17.6265   19.0607 O   0  0  0  0  0  0  0  0  0  0  0  0
    8.6682   17.5426   20.3706 C   0  0  0  0  0  0  0  0  0  0  0  0
    9.1338   16.4863   20.9984 N   0  0  0  0  0  0  0  0  0  0  0  0
   12.2398   13.8354   22.2447 C   0  0  0  0  0  0  0  0  0  0  0  0
   12.8186   13.0610   21.5080 O   0  0  0  0  0  0  0  0  0  0  0  0
   12.6007   14.0781   23.5307 O   0  0  0  0  0  0  0  0  0  0  0  0
   12.8095   12.8953   24.2855 C   0  0  0  0  0  0  0  0  0  0  0  0
    9.4211   11.2232   23.3382 N   0  0  0  0  0  0  0  0  0  0  0  0
    8.8734   10.1198   23.8556 N   0  0  0  0  0  0  0  0  0  0  0  0
    9.2099    8.8497   23.2557 C   0  0  0  0  0  0  0  0  0  0  0  0
  1  2  1  0
  2  3  1  0
  3  4  2  0
  3  5  1  0
  5  6  2  0
  6  7  1  0
  7  8  2  0
  8  9  1  0
  9 10  2  0
  9 11  1  0
 11 12  1  0
 12 13  2  0
 12 14  1  0
 14 15  1  0
 15 16  1  6
 16 17  1  0
 17 18  2  0
 18 19  1  0
 19 20  1  0
 20 21  2  0
 15 22  1  0
 22 23  2  0
 22 24  1  0
 24 25  1  0
 11 26  2  0
 26 27  1  0
 27 28  1  0
 10  5  1  0
 21 17  1  0
 27  8  1  0
M  END
>  <energy_score>  (284) 
-30.979049

>  <inchikey>  (284) 
None

>  <smiles>  (284) 
None

>  <ref_pdb>  (284) 
A2290a

>  <alias>  (284) 
None

>  <HIPPO Pose ID>  (284) 
497928

>  <name>  (284) 
P497928

>  <HIPPO Compound ID>  (284) 
289870

>  <ref_mols>  (284) 
A2290a,A3436a

>  <distance_score>  (284) 
1.036451

>  <inspiration_score>  (284) 
None

$$$$
P497929
     RDKit          3D

 29 32  0  0  0  0  0  0  0  0999 V2000
    8.9884    8.9675   23.8221 C   0  0  0  0  0  0  0  0  0  0  0  0
    8.6160   10.2464   24.3817 N   0  0  0  0  0  0  0  0  0  0  0  0
    9.3443   11.3178   24.0579 N   0  0  0  0  0  0  0  0  0  0  0  0
    8.9054   12.2890   24.8947 C   0  0  0  0  0  0  0  0  0  0  0  0
    9.6348   13.5615   24.9690 C   0  0  0  0  0  0  0  0  0  0  0  0
    9.4734   14.3999   25.7551 O   0  0  0  0  0  0  0  0  0  0  0  0
   10.6627   13.4338   23.8661 N   0  0  0  0  0  0  0  0  0  0  0  0
   11.6565   14.3407   23.4227 C   0  0  0  0  0  0  0  0  0  0  0  0
   12.0896   14.0990   21.9929 C   0  0  0  0  0  0  0  0  0  0  0  0
   12.4567   12.6564   21.9223 C   0  0  0  0  0  0  0  0  0  0  0  0
   13.2733   14.9902   21.7073 C   0  0  0  0  0  0  0  0  0  0  0  0
   11.1251   14.4693   20.9514 C   0  0  0  0  0  0  0  0  0  0  0  0
   11.3384   14.3631   19.5963 C   0  0  0  0  0  0  0  0  0  0  0  0
   10.4894   15.1837   18.9872 O   0  0  0  0  0  0  0  0  0  0  0  0
    9.8747   15.8071   20.0121 C   0  0  0  0  0  0  0  0  0  0  0  0
    9.2087   16.9924   19.6305 C   0  0  0  0  0  0  0  0  0  0  0  0
    9.0252   17.2693   18.2860 C   0  0  0  0  0  0  0  0  0  0  0  0
    8.1423   18.2419   17.9473 C   0  0  0  0  0  0  0  0  0  0  0  0
    7.5844   19.0185   18.9376 C   0  0  0  0  0  0  0  0  0  0  0  0
    7.9675   18.8978   20.2405 C   0  0  0  0  0  0  0  0  0  0  0  0
    8.7087   17.8230   20.6094 C   0  0  0  0  0  0  0  0  0  0  0  0
   10.1186   15.3365   21.2097 N   0  0  0  0  0  0  0  0  0  0  0  0
    7.8112   11.8617   25.6542 C   0  0  0  0  0  0  0  0  0  0  0  0
    6.9852   12.4597   26.6161 C   0  0  0  0  0  0  0  0  0  0  0  0
    5.9956   11.6786   27.2036 C   0  0  0  0  0  0  0  0  0  0  0  0
    4.8548   12.4443   28.5036 Br  0  0  0  0  0  0  0  0  0  0  0  0
    5.8316   10.3420   26.8550 C   0  0  0  0  0  0  0  0  0  0  0  0
    6.6501    9.7459   25.8946 C   0  0  0  0  0  0  0  0  0  0  0  0
    7.6441   10.5230   25.3097 C   0  0  0  0  0  0  0  0  0  0  0  0
  1  2  1  0
  2  3  1  0
  3  4  2  0
  4  5  1  0
  5  6  2  0
  5  7  1  0
  7  8  1  0
  8  9  1  0
  9 10  1  0
  9 11  1  0
  9 12  1  0
 12 13  2  0
 13 14  1  0
 14 15  1  0
 15 16  1  0
 16 17  2  0
 17 18  1  0
 18 19  2  0
 19 20  1  0
 20 21  2  0
 15 22  2  0
  4 23  1  0
 23 24  2  0
 24 25  1  0
 25 26  1  0
 25 27  2  0
 27 28  1  0
 28 29  2  0
 29  2  1  0
 22 12  1  0
 29 23  1  0
 21 16  1  0
M  END
>  <energy_score>  (285) 
-2.32094

>  <inchikey>  (285) 
None

>  <smiles>  (285) 
None

>  <ref_pdb>  (285) 
A2290a

>  <alias>  (285) 
None

>  <HIPPO Pose ID>  (285) 
497929

>  <name>  (285) 
P497929

>  <HIPPO Compound ID>  (285) 
289871

>  <ref_mols>  (285) 
A2290a,A3436a

>  <distance_score>  (285) 
1.275325

>  <inspiration_score>  (285) 
None

$$$$
P497930
     RDKit          3D

 29 32  0  0  0  0  0  0  0  0999 V2000
    9.1878    8.7666   23.5842 C   0  0  0  0  0  0  0  0  0  0  0  0
    8.9275   10.0855   24.1051 N   0  0  0  0  0  0  0  0  0  0  0  0
    9.7516   11.0825   23.7633 N   0  0  0  0  0  0  0  0  0  0  0  0
    9.3611   12.1108   24.5404 C   0  0  0  0  0  0  0  0  0  0  0  0
   10.1633   13.3310   24.6139 C   0  0  0  0  0  0  0  0  0  0  0  0
   10.0039   14.1397   25.4337 O   0  0  0  0  0  0  0  0  0  0  0  0
   11.2196   13.2254   23.5228 N   0  0  0  0  0  0  0  0  0  0  0  0
   12.2444   14.1267   23.1424 C   0  0  0  0  0  0  0  0  0  0  0  0
   12.6183   14.0490   21.6937 C   0  0  0  0  0  0  0  0  0  0  0  0
   11.6205   14.5494   20.7599 C   0  0  0  0  0  0  0  0  0  0  0  0
   11.6627   14.4163   19.3995 C   0  0  0  0  0  0  0  0  0  0  0  0
   10.6484   15.1183   18.8914 O   0  0  0  0  0  0  0  0  0  0  0  0
   10.1030   15.7321   19.9652 C   0  0  0  0  0  0  0  0  0  0  0  0
    9.3113   16.8669   19.6256 C   0  0  0  0  0  0  0  0  0  0  0  0
    9.0720   17.1898   18.2987 C   0  0  0  0  0  0  0  0  0  0  0  0
    8.1931   18.1905   17.9990 C   0  0  0  0  0  0  0  0  0  0  0  0
    7.6604   18.9546   19.0116 C   0  0  0  0  0  0  0  0  0  0  0  0
    8.0636   18.7726   20.3027 C   0  0  0  0  0  0  0  0  0  0  0  0
    8.8125   17.6768   20.6210 C   0  0  0  0  0  0  0  0  0  0  0  0
   10.5776   15.3488   21.1302 N   0  0  0  0  0  0  0  0  0  0  0  0
    8.2053   11.8017   25.2841 C   0  0  0  0  0  0  0  0  0  0  0  0
    7.3814   12.5045   26.1804 C   0  0  0  0  0  0  0  0  0  0  0  0
    6.3279   11.8069   26.7790 C   0  0  0  0  0  0  0  0  0  0  0  0
    5.4340   12.5095   27.6974 N   0  0  0  0  0  0  0  0  0  0  0  0
    4.2761   12.0787   27.8104 O   0  0  0  0  0  0  0  0  0  0  0  0
    5.8997   13.4682   28.3284 O   0  0  0  0  0  0  0  0  0  0  0  0
    6.1162   10.4479   26.5351 C   0  0  0  0  0  0  0  0  0  0  0  0
    6.9434    9.7545   25.6507 C   0  0  0  0  0  0  0  0  0  0  0  0
    7.9716   10.4565   25.0213 C   0  0  0  0  0  0  0  0  0  0  0  0
  1  2  1  0
  2  3  1  0
  3  4  2  0
  4  5  1  0
  5  6  2  0
  5  7  1  0
  7  8  1  0
  8  9  1  0
  9 10  1  0
 10 11  2  0
 11 12  1  0
 12 13  1  0
 13 14  1  0
 14 15  2  0
 15 16  1  0
 16 17  2  0
 17 18  1  0
 18 19  2  0
 13 20  2  0
  4 21  1  0
 21 22  2  0
 22 23  1  0
 23 24  1  0
 24 25  2  0
 24 26  1  0
 23 27  2  0
 27 28  1  0
 28 29  2  0
 29  2  1  0
 20 10  1  0
 29 21  1  0
 19 14  1  0
M  CHG  2  24   1  26  -1
M  END
>  <energy_score>  (286) 
-29.539312

>  <inchikey>  (286) 
None

>  <smiles>  (286) 
None

>  <ref_pdb>  (286) 
A2290a

>  <alias>  (286) 
None

>  <HIPPO Pose ID>  (286) 
497930

>  <name>  (286) 
P497930

>  <HIPPO Compound ID>  (286) 
289873

>  <ref_mols>  (286) 
A2290a,A3436a

>  <distance_score>  (286) 
0.994081

>  <inspiration_score>  (286) 
None

$$$$
P497931
     RDKit          3D

 29 32  0  0  0  0  0  0  0  0999 V2000
    8.9947    8.9850   23.8177 C   0  0  0  0  0  0  0  0  0  0  0  0
    8.6203   10.2631   24.3769 N   0  0  0  0  0  0  0  0  0  0  0  0
    9.3397   11.3380   24.0432 N   0  0  0  0  0  0  0  0  0  0  0  0
    8.9320   12.2956   24.9100 C   0  0  0  0  0  0  0  0  0  0  0  0
    9.6821   13.5539   24.9998 C   0  0  0  0  0  0  0  0  0  0  0  0
    9.6415   14.3061   25.8827 O   0  0  0  0  0  0  0  0  0  0  0  0
   10.5433   13.5450   23.7562 N   0  0  0  0  0  0  0  0  0  0  0  0
   11.6043   14.3966   23.3639 C   0  0  0  0  0  0  0  0  0  0  0  0
   12.0884   14.1054   21.9627 C   0  0  0  0  0  0  0  0  0  0  0  0
   12.4434   12.6573   21.9546 C   0  0  0  0  0  0  0  0  0  0  0  0
   13.2831   14.9846   21.6952 C   0  0  0  0  0  0  0  0  0  0  0  0
   11.1483   14.4603   20.8937 C   0  0  0  0  0  0  0  0  0  0  0  0
   11.3865   14.3673   19.5427 C   0  0  0  0  0  0  0  0  0  0  0  0
   10.5390   15.1887   18.9276 O   0  0  0  0  0  0  0  0  0  0  0  0
    9.8905   15.7849   19.9474 C   0  0  0  0  0  0  0  0  0  0  0  0
    9.2190   16.9728   19.5854 C   0  0  0  0  0  0  0  0  0  0  0  0
    8.7338   17.7905   20.5847 C   0  0  0  0  0  0  0  0  0  0  0  0
    7.9911   18.8746   20.2468 C   0  0  0  0  0  0  0  0  0  0  0  0
    7.5913   19.0182   18.9511 C   0  0  0  0  0  0  0  0  0  0  0  0
    8.1305   18.2504   17.9423 C   0  0  0  0  0  0  0  0  0  0  0  0
    9.0124   17.2659   18.2505 C   0  0  0  0  0  0  0  0  0  0  0  0
   10.1154   15.2988   21.1410 N   0  0  0  0  0  0  0  0  0  0  0  0
    7.8459   11.8664   25.6808 C   0  0  0  0  0  0  0  0  0  0  0  0
    7.0409   12.4560   26.6637 C   0  0  0  0  0  0  0  0  0  0  0  0
    6.0524   11.6751   27.2444 C   0  0  0  0  0  0  0  0  0  0  0  0
    5.2687   12.2074   28.1919 F   0  0  0  0  0  0  0  0  0  0  0  0
    5.8620   10.3504   26.8779 C   0  0  0  0  0  0  0  0  0  0  0  0
    6.6607    9.7577   25.8997 C   0  0  0  0  0  0  0  0  0  0  0  0
    7.6577   10.5347   25.3162 C   0  0  0  0  0  0  0  0  0  0  0  0
  1  2  1  0
  2  3  1  0
  3  4  2  0
  4  5  1  0
  5  6  2  0
  5  7  1  0
  7  8  1  0
  8  9  1  0
  9 10  1  0
  9 11  1  0
  9 12  1  0
 12 13  2  0
 13 14  1  0
 14 15  1  0
 15 16  1  0
 16 17  2  0
 17 18  1  0
 18 19  2  0
 19 20  1  0
 20 21  2  0
 15 22  2  0
  4 23  1  0
 23 24  2  0
 24 25  1  0
 25 26  1  0
 25 27  2  0
 27 28  1  0
 28 29  2  0
 29  2  1  0
 22 12  1  0
 29 23  1  0
 21 16  1  0
M  END
>  <energy_score>  (287) 
-25.953507

>  <inchikey>  (287) 
None

>  <smiles>  (287) 
None

>  <ref_pdb>  (287) 
A2290a

>  <alias>  (287) 
None

>  <HIPPO Pose ID>  (287) 
497931

>  <name>  (287) 
P497931

>  <HIPPO Compound ID>  (287) 
289874

>  <ref_mols>  (287) 
A2290a,A3436a

>  <distance_score>  (287) 
1.274591

>  <inspiration_score>  (287) 
None

$$$$
P497932
     RDKit          3D

 29 32  0  0  0  0  0  0  0  0999 V2000
   10.2054   14.1051   25.4417 O   0  0  0  0  0  0  0  0  0  0  0  0
   10.3319   13.3413   24.5746 C   0  0  0  0  0  0  0  0  0  0  0  0
   11.2720   13.3524   23.3784 N   0  0  0  0  0  0  0  0  0  0  0  0
   12.3148   14.2429   23.0374 C   0  0  0  0  0  0  0  0  0  0  0  0
   12.6851   14.1554   21.5893 C   0  0  0  0  0  0  0  0  0  0  0  0
   11.6491   14.6017   20.6740 C   0  0  0  0  0  0  0  0  0  0  0  0
   11.6428   14.4366   19.3178 C   0  0  0  0  0  0  0  0  0  0  0  0
   10.6007   15.1168   18.8370 O   0  0  0  0  0  0  0  0  0  0  0  0
   10.0892   15.7436   19.9171 C   0  0  0  0  0  0  0  0  0  0  0  0
    9.2976   16.8796   19.5941 C   0  0  0  0  0  0  0  0  0  0  0  0
    9.0453   17.2089   18.2723 C   0  0  0  0  0  0  0  0  0  0  0  0
    8.1676   18.2141   17.9926 C   0  0  0  0  0  0  0  0  0  0  0  0
    7.6477   18.9704   19.0181 C   0  0  0  0  0  0  0  0  0  0  0  0
    8.0629   18.7781   20.3042 C   0  0  0  0  0  0  0  0  0  0  0  0
    8.8133   17.6799   20.6048 C   0  0  0  0  0  0  0  0  0  0  0  0
   10.6028   15.3824   21.0697 N   0  0  0  0  0  0  0  0  0  0  0  0
    9.6118   12.0752   24.4836 C   0  0  0  0  0  0  0  0  0  0  0  0
   10.0703   11.1213   23.6534 N   0  0  0  0  0  0  0  0  0  0  0  0
    9.2723   10.0540   23.8751 N   0  0  0  0  0  0  0  0  0  0  0  0
    9.4839    8.8345   23.0775 C   0  0  0  0  0  0  0  0  0  0  0  0
    8.3435    8.1373   22.9395 F   0  0  0  0  0  0  0  0  0  0  0  0
   10.4000    7.9980   23.6133 F   0  0  0  0  0  0  0  0  0  0  0  0
    9.9417    9.1249   21.8357 F   0  0  0  0  0  0  0  0  0  0  0  0
    8.3134   10.3225   24.8365 C   0  0  0  0  0  0  0  0  0  0  0  0
    7.3114    9.5548   25.4245 C   0  0  0  0  0  0  0  0  0  0  0  0
    6.4604   10.1565   26.3576 C   0  0  0  0  0  0  0  0  0  0  0  0
    6.6052   11.4944   26.7032 C   0  0  0  0  0  0  0  0  0  0  0  0
    7.6217   12.2574   26.1346 C   0  0  0  0  0  0  0  0  0  0  0  0
    8.4836   11.6556   25.2010 C   0  0  0  0  0  0  0  0  0  0  0  0
  1  2  2  0
  2  3  1  0
  3  4  1  0
  4  5  1  0
  5  6  1  0
  6  7  2  0
  7  8  1  0
  8  9  1  0
  9 10  1  0
 10 11  2  0
 11 12  1  0
 12 13  2  0
 13 14  1  0
 14 15  2  0
  9 16  2  0
  2 17  1  0
 17 18  2  0
 18 19  1  0
 19 20  1  0
 20 21  1  0
 20 22  1  0
 20 23  1  0
 19 24  1  0
 24 25  2  0
 25 26  1  0
 26 27  2  0
 27 28  1  0
 28 29  2  0
 16  6  1  0
 29 17  1  0
 15 10  1  0
 29 24  1  0
M  END
>  <energy_score>  (288) 
-15.129727

>  <inchikey>  (288) 
None

>  <smiles>  (288) 
None

>  <ref_pdb>  (288) 
A2290a

>  <alias>  (288) 
None

>  <HIPPO Pose ID>  (288) 
497932

>  <name>  (288) 
P497932

>  <HIPPO Compound ID>  (288) 
289879

>  <ref_mols>  (288) 
A2290a,A3436a

>  <distance_score>  (288) 
0.917858

>  <inspiration_score>  (288) 
None

$$$$
P497933
     RDKit          3D

 30 33  0  0  0  0  0  0  0  0999 V2000
    9.1951    8.8257   23.2932 C   0  0  0  0  0  0  0  0  0  0  0  0
    9.0000   10.0641   24.0064 N   0  0  0  0  0  0  0  0  0  0  0  0
    9.8227   11.0794   23.7202 N   0  0  0  0  0  0  0  0  0  0  0  0
    9.4234   12.0707   24.5402 C   0  0  0  0  0  0  0  0  0  0  0  0
   10.1861   13.3133   24.6211 C   0  0  0  0  0  0  0  0  0  0  0  0
   10.0053   14.1214   25.4361 O   0  0  0  0  0  0  0  0  0  0  0  0
   11.1940   13.2675   23.4836 N   0  0  0  0  0  0  0  0  0  0  0  0
   12.2515   14.1478   23.1556 C   0  0  0  0  0  0  0  0  0  0  0  0
   12.6577   14.0760   21.7156 C   0  0  0  0  0  0  0  0  0  0  0  0
   11.6622   14.5533   20.7689 C   0  0  0  0  0  0  0  0  0  0  0  0
   11.7073   14.4078   19.4103 C   0  0  0  0  0  0  0  0  0  0  0  0
   10.6803   15.0877   18.8961 O   0  0  0  0  0  0  0  0  0  0  0  0
   10.1273   15.7019   19.9661 C   0  0  0  0  0  0  0  0  0  0  0  0
    9.3362   16.8356   19.6261 C   0  0  0  0  0  0  0  0  0  0  0  0
    9.1092   17.1601   18.2977 C   0  0  0  0  0  0  0  0  0  0  0  0
    8.2314   18.1560   17.9959 C   0  0  0  0  0  0  0  0  0  0  0  0
    7.7064   18.9109   19.0136 C   0  0  0  0  0  0  0  0  0  0  0  0
    6.7882   19.8182   18.7269 F   0  0  0  0  0  0  0  0  0  0  0  0
    8.0872   18.7427   20.3073 C   0  0  0  0  0  0  0  0  0  0  0  0
    8.8324   17.6448   20.6238 C   0  0  0  0  0  0  0  0  0  0  0  0
   10.6032   15.3320   21.1328 N   0  0  0  0  0  0  0  0  0  0  0  0
    8.2814   11.7170   25.2800 C   0  0  0  0  0  0  0  0  0  0  0  0
    7.4523   12.3785   26.2034 C   0  0  0  0  0  0  0  0  0  0  0  0
    6.4061   11.6515   26.7778 C   0  0  0  0  0  0  0  0  0  0  0  0
    5.5184   12.3075   27.7367 N   0  0  0  0  0  0  0  0  0  0  0  0
    5.9809   13.2557   28.3862 O   0  0  0  0  0  0  0  0  0  0  0  0
    4.3738   11.8485   27.8667 O   0  0  0  0  0  0  0  0  0  0  0  0
    6.2063   10.3031   26.4785 C   0  0  0  0  0  0  0  0  0  0  0  0
    7.0396    9.6533   25.5651 C   0  0  0  0  0  0  0  0  0  0  0  0
    8.0599   10.3819   24.9579 C   0  0  0  0  0  0  0  0  0  0  0  0
  1  2  1  0
  2  3  1  0
  3  4  2  0
  4  5  1  0
  5  6  2  0
  5  7  1  0
  7  8  1  0
  8  9  1  0
  9 10  1  0
 10 11  2  0
 11 12  1  0
 12 13  1  0
 13 14  1  0
 14 15  2  0
 15 16  1  0
 16 17  2  0
 17 18  1  0
 17 19  1  0
 19 20  2  0
 13 21  2  0
  4 22  1  0
 22 23  2  0
 23 24  1  0
 24 25  1  0
 25 26  2  0
 25 27  1  0
 24 28  2  0
 28 29  1  0
 29 30  2  0
 30  2  1  0
 21 10  1  0
 30 22  1  0
 20 14  1  0
M  CHG  2  25   1  27  -1
M  END
>  <energy_score>  (289) 
-10.927329

>  <inchikey>  (289) 
None

>  <smiles>  (289) 
None

>  <ref_pdb>  (289) 
A2290a

>  <alias>  (289) 
None

>  <HIPPO Pose ID>  (289) 
497933

>  <name>  (289) 
P497933

>  <HIPPO Compound ID>  (289) 
289883

>  <ref_mols>  (289) 
A2290a,A3436a

>  <distance_score>  (289) 
0.987896

>  <inspiration_score>  (289) 
None

$$$$
P497934
     RDKit          3D

 30 32  0  0  0  0  0  0  0  0999 V2000
    9.1645    8.9850   23.7182 C   0  0  0  0  0  0  0  0  0  0  0  0
    8.6420   10.2842   24.0748 N   0  0  0  0  0  0  0  0  0  0  0  0
    9.0298   11.3424   23.3554 N   0  0  0  0  0  0  0  0  0  0  0  0
    8.3347   12.3811   23.8722 C   0  0  0  0  0  0  0  0  0  0  0  0
    8.5235   13.7298   23.3171 C   0  0  0  0  0  0  0  0  0  0  0  0
    8.0188   14.6907   23.7261 O   0  0  0  0  0  0  0  0  0  0  0  0
    9.5602   13.5507   22.2194 N   0  0  0  0  0  0  0  0  0  0  0  0
   10.2833   14.5311   21.4385 C   0  0  2  0  0  0  0  0  0  0  0  0
    9.7274   14.8742   20.1035 C   0  0  0  0  0  0  0  0  0  0  0  0
    9.4817   16.3020   19.8828 C   0  0  0  0  0  0  0  0  0  0  0  0
    9.5690   16.9998   18.7039 C   0  0  0  0  0  0  0  0  0  0  0  0
    8.8947   18.1671   18.8632 O   0  0  0  0  0  0  0  0  0  0  0  0
    8.5014   18.1400   20.1676 C   0  0  0  0  0  0  0  0  0  0  0  0
    8.8629   17.0653   20.8317 N   0  0  0  0  0  0  0  0  0  0  0  0
   11.5697   13.7632   21.1917 C   0  0  0  0  0  0  0  0  0  0  0  0
   12.3528   13.9824   20.2710 O   0  0  0  0  0  0  0  0  0  0  0  0
   11.8071   12.8163   22.1943 O   0  0  0  0  0  0  0  0  0  0  0  0
   12.3783   13.3679   23.3816 C   0  0  0  0  0  0  0  0  0  0  0  0
   13.0438   12.2910   24.2160 C   0  0  0  0  0  0  0  0  0  0  0  0
   13.3324   14.3958   22.8697 C   0  0  0  0  0  0  0  0  0  0  0  0
   11.4144   13.9534   24.4148 C   0  0  0  0  0  0  0  0  0  0  0  0
    7.6197   11.9973   25.0195 C   0  0  0  0  0  0  0  0  0  0  0  0
    6.8355   12.6717   25.9685 C   0  0  0  0  0  0  0  0  0  0  0  0
    6.1413   11.8942   26.8986 C   0  0  0  0  0  0  0  0  0  0  0  0
    5.2725   12.5564   27.8659 N   0  0  0  0  0  0  0  0  0  0  0  0
    5.6399   13.6557   28.3022 O   0  0  0  0  0  0  0  0  0  0  0  0
    4.2426   11.9591   28.2119 O   0  0  0  0  0  0  0  0  0  0  0  0
    6.2273   10.5004   26.9070 C   0  0  0  0  0  0  0  0  0  0  0  0
    7.0474    9.8436   25.9897 C   0  0  0  0  0  0  0  0  0  0  0  0
    7.7613   10.6125   25.0750 C   0  0  0  0  0  0  0  0  0  0  0  0
  1  2  1  0
  2  3  1  0
  3  4  2  0
  4  5  1  0
  5  6  2  0
  5  7  1  0
  7  8  1  0
  8  9  1  6
  9 10  1  0
 10 11  2  0
 11 12  1  0
 12 13  1  0
 13 14  2  0
  8 15  1  0
 15 16  2  0
 15 17  1  0
 17 18  1  0
 18 19  1  0
 18 20  1  0
 18 21  1  0
  4 22  1  0
 22 23  2  0
 23 24  1  0
 24 25  1  0
 25 26  2  0
 25 27  1  0
 24 28  2  0
 28 29  1  0
 29 30  2  0
 30  2  1  0
 14 10  1  0
 30 22  1  0
M  CHG  2  25   1  27  -1
M  END
>  <energy_score>  (290) 
-21.844889

>  <inchikey>  (290) 
None

>  <smiles>  (290) 
None

>  <ref_pdb>  (290) 
A2290a

>  <alias>  (290) 
None

>  <HIPPO Pose ID>  (290) 
497934

>  <name>  (290) 
P497934

>  <HIPPO Compound ID>  (290) 
289885

>  <ref_mols>  (290) 
A2290a,A3436a

>  <distance_score>  (290) 
1.622746

>  <inspiration_score>  (290) 
None

$$$$
P497935
     RDKit          3D

 30 33  0  0  0  0  0  0  0  0999 V2000
    3.5376   12.2883   28.9178 C   0  0  0  0  0  0  0  0  0  0  0  0
    4.4082   11.6779   27.9645 O   0  0  0  0  0  0  0  0  0  0  0  0
    5.6247   12.2739   27.8783 C   0  0  0  0  0  0  0  0  0  0  0  0
    6.0075   13.2293   28.5337 O   0  0  0  0  0  0  0  0  0  0  0  0
    6.4549   11.6003   26.8507 C   0  0  0  0  0  0  0  0  0  0  0  0
    6.2590   10.2605   26.5135 C   0  0  0  0  0  0  0  0  0  0  0  0
    7.0683    9.6324   25.5621 C   0  0  0  0  0  0  0  0  0  0  0  0
    8.0745   10.3716   24.9461 C   0  0  0  0  0  0  0  0  0  0  0  0
    8.2991   11.7007   25.2875 C   0  0  0  0  0  0  0  0  0  0  0  0
    7.4892   12.3300   26.2511 C   0  0  0  0  0  0  0  0  0  0  0  0
    9.4285   12.0704   24.5327 C   0  0  0  0  0  0  0  0  0  0  0  0
   10.2120   13.3021   24.6276 C   0  0  0  0  0  0  0  0  0  0  0  0
   10.0590   14.0926   25.4663 O   0  0  0  0  0  0  0  0  0  0  0  0
   11.2496   13.2300   23.5149 N   0  0  0  0  0  0  0  0  0  0  0  0
   12.2567   14.1494   23.1344 C   0  0  0  0  0  0  0  0  0  0  0  0
   12.6298   14.0714   21.6854 C   0  0  0  0  0  0  0  0  0  0  0  0
   11.6247   14.5586   20.7533 C   0  0  0  0  0  0  0  0  0  0  0  0
   11.6605   14.4189   19.3936 C   0  0  0  0  0  0  0  0  0  0  0  0
   10.6418   15.1160   18.8875 O   0  0  0  0  0  0  0  0  0  0  0  0
   10.1004   15.7331   19.9613 C   0  0  0  0  0  0  0  0  0  0  0  0
    9.3093   16.8681   19.6226 C   0  0  0  0  0  0  0  0  0  0  0  0
    9.0691   17.1913   18.2961 C   0  0  0  0  0  0  0  0  0  0  0  0
    8.1907   18.1927   17.9980 C   0  0  0  0  0  0  0  0  0  0  0  0
    7.6592   18.9564   19.0116 C   0  0  0  0  0  0  0  0  0  0  0  0
    8.0632   18.7737   20.3023 C   0  0  0  0  0  0  0  0  0  0  0  0
    8.8119   17.6775   20.6193 C   0  0  0  0  0  0  0  0  0  0  0  0
   10.5803   15.3545   21.1254 N   0  0  0  0  0  0  0  0  0  0  0  0
    9.8224   11.0867   23.6997 N   0  0  0  0  0  0  0  0  0  0  0  0
    9.0060   10.0662   23.9830 N   0  0  0  0  0  0  0  0  0  0  0  0
    9.2108    8.8284   23.2702 C   0  0  0  0  0  0  0  0  0  0  0  0
  1  2  1  0
  2  3  1  0
  3  4  2  0
  3  5  1  0
  5  6  2  0
  6  7  1  0
  7  8  2  0
  8  9  1  0
  9 10  2  0
  9 11  1  0
 11 12  1  0
 12 13  2  0
 12 14  1  0
 14 15  1  0
 15 16  1  0
 16 17  1  0
 17 18  2  0
 18 19  1  0
 19 20  1  0
 20 21  1  0
 21 22  2  0
 22 23  1  0
 23 24  2  0
 24 25  1  0
 25 26  2  0
 20 27  2  0
 11 28  2  0
 28 29  1  0
 29 30  1  0
 10  5  1  0
 27 17  1  0
 29  8  1  0
 26 21  1  0
M  END
>  <energy_score>  (291) 
-26.88325

>  <inchikey>  (291) 
None

>  <smiles>  (291) 
None

>  <ref_pdb>  (291) 
A2290a

>  <alias>  (291) 
None

>  <HIPPO Pose ID>  (291) 
497935

>  <name>  (291) 
P497935

>  <HIPPO Compound ID>  (291) 
289892

>  <ref_mols>  (291) 
A2290a,A3436a

>  <distance_score>  (291) 
0.974508

>  <inspiration_score>  (291) 
None

$$$$
P497936
     RDKit          3D

 30 33  0  0  0  0  0  0  0  0999 V2000
   14.3771   11.9901   24.9248 C   0  0  0  0  0  0  0  0  0  0  0  0
   13.4850   12.5609   23.9456 O   0  0  0  0  0  0  0  0  0  0  0  0
   12.5639   13.4395   24.4004 C   0  0  0  0  0  0  0  0  0  0  0  0
   12.4067   13.6878   25.5963 O   0  0  0  0  0  0  0  0  0  0  0  0
   11.6594   14.0876   23.3526 C   0  0  1  0  0  0  0  0  0  0  0  0
   12.0131   13.9554   21.8730 C   0  0  0  0  0  0  0  0  0  0  0  0
   11.0664   14.7049   20.9885 C   0  0  0  0  0  0  0  0  0  0  0  0
   10.9688   14.7668   19.6169 C   0  0  0  0  0  0  0  0  0  0  0  0
    9.9866   15.6601   19.2952 O   0  0  0  0  0  0  0  0  0  0  0  0
    9.5520   16.1148   20.4944 C   0  0  0  0  0  0  0  0  0  0  0  0
   10.1223   15.5429   21.5271 N   0  0  0  0  0  0  0  0  0  0  0  0
   10.4053   13.4989   23.7424 N   0  0  0  0  0  0  0  0  0  0  0  0
    9.4464   13.8571   24.8937 C   0  0  0  0  0  0  0  0  0  0  0  0
    9.4813   14.7343   25.6619 O   0  0  0  0  0  0  0  0  0  0  0  0
    8.4587   12.7881   24.9413 C   0  0  0  0  0  0  0  0  0  0  0  0
    8.5481   11.8035   24.0366 N   0  0  0  0  0  0  0  0  0  0  0  0
    7.9690   10.7782   24.6512 N   0  0  0  0  0  0  0  0  0  0  0  0
    8.3986    9.4487   24.3151 C   0  0  0  0  0  0  0  0  0  0  0  0
    9.2488    9.4615   23.0693 C   0  0  2  0  0  0  0  0  0  0  0  0
    9.1492    8.1507   22.3727 C   0  0  0  0  0  0  0  0  0  0  0  0
   10.0089    7.4172   23.1777 N   0  0  0  0  0  0  0  0  0  0  0  0
   10.9860    8.2485   23.5727 C   0  0  0  0  0  0  0  0  0  0  0  0
   12.0319    7.8722   24.0244 O   0  0  0  0  0  0  0  0  0  0  0  0
   10.6106    9.5392   23.4531 O   0  0  0  0  0  0  0  0  0  0  0  0
    7.2214   11.1197   25.7326 C   0  0  0  0  0  0  0  0  0  0  0  0
    6.3964   10.3700   26.5683 C   0  0  0  0  0  0  0  0  0  0  0  0
    5.8583   11.0381   27.6645 C   0  0  0  0  0  0  0  0  0  0  0  0
    6.1611   12.3771   27.9180 C   0  0  0  0  0  0  0  0  0  0  0  0
    7.0123   13.1008   27.0801 C   0  0  0  0  0  0  0  0  0  0  0  0
    7.5285   12.4606   25.9504 C   0  0  0  0  0  0  0  0  0  0  0  0
  1  2  1  0
  2  3  1  0
  3  4  2  0
  3  5  1  0
  5  6  1  6
  6  7  1  0
  7  8  2  0
  8  9  1  0
  9 10  1  0
 10 11  2  0
  5 12  1  0
 12 13  1  0
 13 14  2  0
 13 15  1  0
 15 16  2  0
 16 17  1  0
 17 18  1  0
 19 18  1  1
 19 20  1  0
 20 21  1  0
 21 22  1  0
 22 23  2  0
 22 24  1  0
 17 25  1  0
 25 26  2  0
 26 27  1  0
 27 28  2  0
 28 29  1  0
 29 30  2  0
 11  7  1  0
 30 15  1  0
 24 19  1  0
 30 25  1  0
M  END
>  <energy_score>  (292) 
-35.463734

>  <inchikey>  (292) 
None

>  <smiles>  (292) 
None

>  <ref_pdb>  (292) 
A2290a

>  <alias>  (292) 
None

>  <HIPPO Pose ID>  (292) 
497936

>  <name>  (292) 
P497936

>  <HIPPO Compound ID>  (292) 
289894

>  <ref_mols>  (292) 
A2290a,A3436a

>  <distance_score>  (292) 
1.533607

>  <inspiration_score>  (292) 
None

$$$$
P497937
     RDKit          3D

 20 22  0  0  0  0  0  0  0  0999 V2000
   11.5557   13.0263   25.0874 N   0  0  0  0  0  0  0  0  0  0  0  0
   10.6004   12.7741   24.4735 C   0  0  0  0  0  0  0  0  0  0  0  0
    9.4007   12.4844   23.6460 C   0  0  2  0  0  0  0  0  0  0  0  0
    8.3086   13.5499   23.8622 C   0  0  0  0  0  0  0  0  0  0  0  0
    8.1126   14.5677   22.7411 C   0  0  0  0  0  0  0  0  0  0  0  0
    9.2398   15.3064   22.2351 N   0  0  0  0  0  0  0  0  0  0  0  0
   10.3340   15.7375   23.0786 C   0  0  0  0  0  0  0  0  0  0  0  0
   11.5807   15.3151   22.3230 C   0  0  0  0  0  0  0  0  0  0  0  0
   11.1551   15.4082   20.8755 C   0  0  0  0  0  0  0  0  0  0  0  0
    9.7169   14.9381   20.9096 C   0  0  0  0  0  0  0  0  0  0  0  0
    8.9366   11.1086   23.8509 N   0  0  0  0  0  0  0  0  0  0  0  0
    8.1756   10.7980   24.9102 C   0  0  0  0  0  0  0  0  0  0  0  0
    7.7063   11.6663   25.7625 N   0  0  0  0  0  0  0  0  0  0  0  0
    6.6724   11.0972   26.4631 C   0  0  0  0  0  0  0  0  0  0  0  0
    5.8037   11.9771   27.2793 C   0  0  0  0  0  0  0  0  0  0  0  0
    5.6362   13.3742   26.7433 C   0  0  0  0  0  0  0  0  0  0  0  0
    5.2012   14.4752   27.6699 C   0  0  0  0  0  0  0  0  0  0  0  0
    6.6009   14.4735   27.1171 C   0  0  0  0  0  0  0  0  0  0  0  0
    6.4883    9.7795   26.3897 N   0  0  0  0  0  0  0  0  0  0  0  0
    7.6118    9.2389   25.2757 S   0  0  0  0  0  0  0  0  0  0  0  0
  1  2  3  0
  3  2  1  1
  3  4  1  0
  4  5  1  0
  5  6  1  0
  6  7  1  0
  7  8  1  0
  8  9  1  0
  9 10  1  0
  3 11  1  0
 11 12  1  0
 12 13  2  0
 13 14  1  0
 14 15  1  0
 15 16  1  0
 16 17  1  0
 17 18  1  0
 14 19  2  0
 19 20  1  0
 10  6  1  0
 20 12  1  0
 18 16  1  0
M  END
>  <energy_score>  (293) 
-44.587799

>  <inchikey>  (293) 
None

>  <smiles>  (293) 
None

>  <ref_pdb>  (293) 
A4311a

>  <alias>  (293) 
None

>  <HIPPO Pose ID>  (293) 
497937

>  <name>  (293) 
P497937

>  <HIPPO Compound ID>  (293) 
289924

>  <ref_mols>  (293) 
A4311a,A1140a

>  <distance_score>  (293) 
1.233429

>  <inspiration_score>  (293) 
None

$$$$
P497938
     RDKit          3D

 20 22  0  0  0  0  0  0  0  0999 V2000
   11.2861   13.3247   25.3482 N   0  0  0  0  0  0  0  0  0  0  0  0
   10.4669   12.9792   24.5994 C   0  0  0  0  0  0  0  0  0  0  0  0
    9.4973   12.5688   23.5613 C   0  0  2  0  0  0  0  0  0  0  0  0
    8.2671   13.4821   23.4400 C   0  0  0  0  0  0  0  0  0  0  0  0
    8.5113   14.9855   23.4289 C   0  0  0  0  0  0  0  0  0  0  0  0
    9.3878   15.5253   22.4239 N   0  0  0  0  0  0  0  0  0  0  0  0
   10.7661   15.8110   22.7746 C   0  0  0  0  0  0  0  0  0  0  0  0
   11.5719   15.3998   21.5622 C   0  0  0  0  0  0  0  0  0  0  0  0
   10.5843   15.5303   20.4221 C   0  0  0  0  0  0  0  0  0  0  0  0
    9.2829   15.0690   21.0491 C   0  0  0  0  0  0  0  0  0  0  0  0
    9.1201   11.1573   23.6802 N   0  0  0  0  0  0  0  0  0  0  0  0
    8.3495   10.7610   24.7024 C   0  0  0  0  0  0  0  0  0  0  0  0
    7.8066   11.5722   25.5670 N   0  0  0  0  0  0  0  0  0  0  0  0
    6.8175   10.9167   26.2523 C   0  0  0  0  0  0  0  0  0  0  0  0
    5.9056   11.7193   27.1066 C   0  0  0  0  0  0  0  0  0  0  0  0
    5.6671   13.1308   26.6339 C   0  0  0  0  0  0  0  0  0  0  0  0
    5.2152   14.1804   27.6125 C   0  0  0  0  0  0  0  0  0  0  0  0
    6.5987   14.2537   27.0249 C   0  0  0  0  0  0  0  0  0  0  0  0
    6.7174    9.5923   26.1289 N   0  0  0  0  0  0  0  0  0  0  0  0
    7.9001    9.1553   25.0171 S   0  0  0  0  0  0  0  0  0  0  0  0
  1  2  3  0
  3  2  1  1
  3  4  1  0
  4  5  1  0
  5  6  1  0
  6  7  1  0
  7  8  1  0
  8  9  1  0
  9 10  1  0
  3 11  1  0
 11 12  1  0
 12 13  2  0
 13 14  1  0
 14 15  1  0
 15 16  1  0
 16 17  1  0
 17 18  1  0
 14 19  2  0
 19 20  1  0
 10  6  1  0
 20 12  1  0
 18 16  1  0
M  END
>  <energy_score>  (294) 
-44.135197

>  <inchikey>  (294) 
None

>  <smiles>  (294) 
None

>  <ref_pdb>  (294) 
A4311a

>  <alias>  (294) 
None

>  <HIPPO Pose ID>  (294) 
497938

>  <name>  (294) 
P497938

>  <HIPPO Compound ID>  (294) 
289924

>  <ref_mols>  (294) 
A4311a,A1140a

>  <distance_score>  (294) 
1.445432

>  <inspiration_score>  (294) 
None

$$$$
P497939
     RDKit          3D

 22 25  0  0  0  0  0  0  0  0999 V2000
   10.2424   12.9469   25.3491 O   0  0  0  0  0  0  0  0  0  0  0  0
    9.6466   12.0072   24.8532 C   0  0  0  0  0  0  0  0  0  0  0  0
    9.7787   11.5064   23.4591 C   0  0  0  0  0  0  0  0  0  0  0  0
    9.4886   10.0262   23.6612 C   0  0  0  0  0  0  0  0  0  0  0  0
    8.3242   10.0948   24.6115 C   0  0  0  0  0  0  0  0  0  0  0  0
    8.6023   11.2333   25.4485 N   0  0  0  0  0  0  0  0  0  0  0  0
    7.5119   12.0477   25.9122 C   0  0  2  0  0  0  0  0  0  0  0  0
    6.2794   11.3769   26.5179 C   0  0  0  0  0  0  0  0  0  0  0  0
    5.2116   12.4454   26.8742 C   0  0  0  0  0  0  0  0  0  0  0  0
    5.0173   13.6080   25.8451 C   0  0  0  0  0  0  0  0  0  0  0  0
    6.3767   14.0906   25.3665 C   0  0  2  0  0  0  0  0  0  0  0  0
    6.4836   15.2039   24.4118 N   0  0  0  0  0  0  0  0  0  0  0  0
    7.8073   15.5481   24.1853 C   0  0  0  0  0  0  0  0  0  0  0  0
    8.4523   15.4244   23.0432 N   0  0  0  0  0  0  0  0  0  0  0  0
    9.8283   15.6991   23.2591 C   0  0  0  0  0  0  0  0  0  0  0  0
   10.8554   15.6290   22.1644 C   0  0  0  0  0  0  0  0  0  0  0  0
   10.3410   16.0303   20.8250 C   0  0  0  0  0  0  0  0  0  0  0  0
   10.8038   15.3573   19.5569 C   0  0  0  0  0  0  0  0  0  0  0  0
    9.4519   15.0585   20.1361 C   0  0  0  0  0  0  0  0  0  0  0  0
   10.2368   16.0108   24.4871 N   0  0  0  0  0  0  0  0  0  0  0  0
    8.9118   15.9521   25.4648 S   0  0  0  0  0  0  0  0  0  0  0  0
    7.0257   12.8824   24.7482 C   0  0  0  0  0  0  0  0  0  0  0  0
  1  2  2  0
  2  3  1  0
  3  4  1  0
  4  5  1  0
  5  6  1  0
  7  6  1  6
  7  8  1  0
  8  9  1  0
  9 10  1  0
 10 11  1  0
 11 12  1  6
 12 13  1  0
 13 14  2  0
 14 15  1  0
 15 16  1  0
 16 17  1  0
 17 18  1  0
 18 19  1  0
 15 20  2  0
 20 21  1  0
 11 22  1  0
  6  2  1  0
 22  7  1  0
 21 13  1  0
 19 17  1  0
M  END
>  <energy_score>  (295) 
-63.936716

>  <inchikey>  (295) 
None

>  <smiles>  (295) 
None

>  <ref_pdb>  (295) 
A4311a

>  <alias>  (295) 
None

>  <HIPPO Pose ID>  (295) 
497939

>  <name>  (295) 
P497939

>  <HIPPO Compound ID>  (295) 
289925

>  <ref_mols>  (295) 
A4311a,A1140a

>  <distance_score>  (295) 
1.954011

>  <inspiration_score>  (295) 
None

$$$$
P497940
     RDKit          3D

 22 25  0  0  0  0  0  0  0  0999 V2000
    9.6927   12.8345   25.7568 O   0  0  0  0  0  0  0  0  0  0  0  0
    9.2849   11.9130   25.0731 C   0  0  0  0  0  0  0  0  0  0  0  0
    9.8884   11.5154   23.7763 C   0  0  0  0  0  0  0  0  0  0  0  0
    9.7554    9.9996   23.8417 C   0  0  0  0  0  0  0  0  0  0  0  0
    8.4439    9.8388   24.5200 C   0  0  0  0  0  0  0  0  0  0  0  0
    8.2553   10.9921   25.3696 N   0  0  0  0  0  0  0  0  0  0  0  0
    6.8683   11.4503   25.4581 C   0  0  1  0  0  0  0  0  0  0  0  0
    6.2009   11.4419   26.8341 C   0  0  0  0  0  0  0  0  0  0  0  0
    6.1029   12.7878   27.5479 C   0  0  0  0  0  0  0  0  0  0  0  0
    5.8446   13.9742   26.6042 C   0  0  0  0  0  0  0  0  0  0  0  0
    6.8936   13.9231   25.5105 C   0  0  2  0  0  0  0  0  0  0  0  0
    6.9918   15.1168   24.6665 N   0  0  0  0  0  0  0  0  0  0  0  0
    8.2905   15.3430   24.3013 C   0  0  0  0  0  0  0  0  0  0  0  0
    8.8235   15.0879   23.1273 N   0  0  0  0  0  0  0  0  0  0  0  0
   10.2038   15.3834   23.2014 C   0  0  0  0  0  0  0  0  0  0  0  0
   11.1128   15.2976   22.0124 C   0  0  0  0  0  0  0  0  0  0  0  0
   10.5104   15.8924   20.7859 C   0  0  0  0  0  0  0  0  0  0  0  0
   10.7331   15.3082   19.4156 C   0  0  0  0  0  0  0  0  0  0  0  0
    9.4321   15.0993   20.1374 C   0  0  0  0  0  0  0  0  0  0  0  0
   10.7192   15.7636   24.3648 N   0  0  0  0  0  0  0  0  0  0  0  0
    9.4774   15.8856   25.4338 S   0  0  0  0  0  0  0  0  0  0  0  0
    6.6296   12.7087   24.6479 C   0  0  0  0  0  0  0  0  0  0  0  0
  1  2  2  0
  2  3  1  0
  3  4  1  0
  4  5  1  0
  5  6  1  0
  7  6  1  1
  7  8  1  0
  8  9  1  0
  9 10  1  0
 10 11  1  0
 11 12  1  6
 12 13  1  0
 13 14  2  0
 14 15  1  0
 15 16  1  0
 16 17  1  0
 17 18  1  0
 18 19  1  0
 15 20  2  0
 20 21  1  0
 11 22  1  0
  6  2  1  0
 22  7  1  0
 21 13  1  0
 19 17  1  0
M  END
>  <energy_score>  (296) 
-32.974618

>  <inchikey>  (296) 
None

>  <smiles>  (296) 
None

>  <ref_pdb>  (296) 
A4311a

>  <alias>  (296) 
None

>  <HIPPO Pose ID>  (296) 
497940

>  <name>  (296) 
P497940

>  <HIPPO Compound ID>  (296) 
289925

>  <ref_mols>  (296) 
A4311a,A1140a

>  <distance_score>  (296) 
1.839909

>  <inspiration_score>  (296) 
None

$$$$
P497941
     RDKit          3D

 22 25  0  0  0  0  0  0  0  0999 V2000
   10.1927   11.6773   24.1958 O   0  0  0  0  0  0  0  0  0  0  0  0
    9.4942   10.6724   24.1584 C   0  0  0  0  0  0  0  0  0  0  0  0
    9.8812    9.3320   23.6175 C   0  0  0  0  0  0  0  0  0  0  0  0
    8.7570    8.4129   23.9629 C   0  0  0  0  0  0  0  0  0  0  0  0
    7.9351    9.1542   24.9669 C   0  0  0  0  0  0  0  0  0  0  0  0
    8.2231   10.5168   24.7178 N   0  0  0  0  0  0  0  0  0  0  0  0
    7.6668   11.5726   25.4933 C   0  0  2  0  0  0  0  0  0  0  0  0
    6.4162   11.2636   26.3216 C   0  0  0  0  0  0  0  0  0  0  0  0
    5.8410   12.5313   26.9700 C   0  0  0  0  0  0  0  0  0  0  0  0
    5.7859   13.7527   26.0245 C   0  0  0  0  0  0  0  0  0  0  0  0
    7.1222   13.9013   25.3082 C   0  0  2  0  0  0  0  0  0  0  0  0
    7.2424   15.0297   24.3976 N   0  0  0  0  0  0  0  0  0  0  0  0
    8.5291   15.2150   23.9798 C   0  0  0  0  0  0  0  0  0  0  0  0
    8.9567   14.9684   22.7666 N   0  0  0  0  0  0  0  0  0  0  0  0
   10.3540   15.1251   22.7534 C   0  0  0  0  0  0  0  0  0  0  0  0
   11.1529   14.9741   21.5012 C   0  0  0  0  0  0  0  0  0  0  0  0
   10.7002   15.7230   20.2873 C   0  0  0  0  0  0  0  0  0  0  0  0
    9.3341   15.5187   19.7165 C   0  0  0  0  0  0  0  0  0  0  0  0
    9.6756   16.8326   20.3459 C   0  0  0  0  0  0  0  0  0  0  0  0
   10.9832   15.4257   23.8880 N   0  0  0  0  0  0  0  0  0  0  0  0
    9.8259   15.6086   25.0420 S   0  0  0  0  0  0  0  0  0  0  0  0
    7.3373   12.6496   24.5048 C   0  0  0  0  0  0  0  0  0  0  0  0
  1  2  2  0
  2  3  1  0
  3  4  1  0
  4  5  1  0
  5  6  1  0
  7  6  1  6
  7  8  1  0
  8  9  1  0
  9 10  1  0
 10 11  1  0
 11 12  1  6
 12 13  1  0
 13 14  2  0
 14 15  1  0
 15 16  1  0
 16 17  1  0
 17 18  1  0
 18 19  1  0
 15 20  2  0
 20 21  1  0
 11 22  1  0
  6  2  1  0
 22  7  1  0
 21 13  1  0
 19 17  1  0
M  END
>  <energy_score>  (297) 
-34.213487

>  <inchikey>  (297) 
None

>  <smiles>  (297) 
None

>  <ref_pdb>  (297) 
A4311a

>  <alias>  (297) 
None

>  <HIPPO Pose ID>  (297) 
497941

>  <name>  (297) 
P497941

>  <HIPPO Compound ID>  (297) 
289925

>  <ref_mols>  (297) 
A4311a,A1140a

>  <distance_score>  (297) 
1.954569

>  <inspiration_score>  (297) 
None

$$$$
P497942
     RDKit          3D

 23 25  0  0  0  0  0  0  0  0999 V2000
   11.6442   15.5674   25.4947 C   0  0  0  0  0  0  0  0  0  0  0  0
   10.5385   15.6750   24.4621 C   0  0  2  0  0  0  0  0  0  0  0  0
    9.7002   14.5225   24.5640 O   0  0  0  0  0  0  0  0  0  0  0  0
   10.1062   13.3052   24.1317 C   0  0  0  0  0  0  0  0  0  0  0  0
   11.2237   12.9593   23.8063 O   0  0  0  0  0  0  0  0  0  0  0  0
    8.9083   12.4411   24.2350 C   0  0  0  0  0  0  0  0  0  0  0  0
    9.0489   11.0431   24.2007 C   0  0  0  0  0  0  0  0  0  0  0  0
    8.0909   10.2304   24.8114 C   0  0  0  0  0  0  0  0  0  0  0  0
    7.0526   10.8522   25.4863 C   0  0  0  0  0  0  0  0  0  0  0  0
    6.8920   12.2433   25.3935 C   0  0  0  0  0  0  0  0  0  0  0  0
    7.7242   13.0341   24.6686 C   0  0  0  0  0  0  0  0  0  0  0  0
    5.8629   12.7870   26.2057 N   0  0  0  0  0  0  0  0  0  0  0  0
    5.8111   11.6791   27.4887 S   0  0  0  0  0  0  0  0  0  0  0  0
    4.5021   11.6807   28.0920 O   0  0  0  0  0  0  0  0  0  0  0  0
    7.0334   11.9399   28.2284 O   0  0  0  0  0  0  0  0  0  0  0  0
    6.0936   10.2359   26.4564 C   0  0  0  0  0  0  0  0  0  0  0  0
   10.8354   15.8773   23.0097 C   0  0  0  0  0  0  0  0  0  0  0  0
   12.0925   15.7092   22.4577 C   0  0  0  0  0  0  0  0  0  0  0  0
   12.1966   15.5715   21.0873 C   0  0  0  0  0  0  0  0  0  0  0  0
   11.0566   15.6142   20.3131 C   0  0  0  0  0  0  0  0  0  0  0  0
   11.2217   15.0826   18.5346 Br  0  0  0  0  0  0  0  0  0  0  0  0
    9.8399   15.9093   20.7908 N   0  0  0  0  0  0  0  0  0  0  0  0
    9.7604   16.0452   22.1254 C   0  0  0  0  0  0  0  0  0  0  0  0
  2  1  1  1
  2  3  1  0
  3  4  1  0
  4  5  2  0
  4  6  1  0
  6  7  2  0
  7  8  1  0
  8  9  2  0
  9 10  1  0
 10 11  2  0
 10 12  1  0
 12 13  1  0
 13 14  2  0
 13 15  2  0
 13 16  1  0
  2 17  1  0
 17 18  2  0
 18 19  1  0
 19 20  2  0
 20 21  1  0
 20 22  1  0
 22 23  2  0
 11  6  1  0
 23 17  1  0
 16  9  1  0
M  END
>  <energy_score>  (298) 
-0.662775

>  <inchikey>  (298) 
None

>  <smiles>  (298) 
None

>  <ref_pdb>  (298) 
A4274b

>  <alias>  (298) 
None

>  <HIPPO Pose ID>  (298) 
497942

>  <name>  (298) 
P497942

>  <HIPPO Compound ID>  (298) 
290101

>  <ref_mols>  (298) 
A4274b,A2513a

>  <distance_score>  (298) 
1.921819

>  <inspiration_score>  (298) 
None

$$$$
P497943
     RDKit          3D

 23 25  0  0  0  0  0  0  0  0999 V2000
   11.6205   15.5938   24.7730 C   0  0  0  0  0  0  0  0  0  0  0  0
   10.5544   15.6731   23.6899 C   0  0  2  0  0  0  0  0  0  0  0  0
    9.6980   14.5318   23.7682 O   0  0  0  0  0  0  0  0  0  0  0  0
   10.1917   13.2778   23.7131 C   0  0  0  0  0  0  0  0  0  0  0  0
   11.3412   12.9233   23.5444 O   0  0  0  0  0  0  0  0  0  0  0  0
    9.0479   12.3926   24.0062 C   0  0  0  0  0  0  0  0  0  0  0  0
    9.1996   10.9946   24.0020 C   0  0  0  0  0  0  0  0  0  0  0  0
    8.2694   10.1776   24.6521 C   0  0  0  0  0  0  0  0  0  0  0  0
    7.2282   10.7913   25.3250 C   0  0  0  0  0  0  0  0  0  0  0  0
    7.0672   12.1785   25.2306 C   0  0  0  0  0  0  0  0  0  0  0  0
    7.8974   12.9814   24.5209 C   0  0  0  0  0  0  0  0  0  0  0  0
    5.9651   12.7121   25.9378 N   0  0  0  0  0  0  0  0  0  0  0  0
    5.8257   11.6127   27.2291 S   0  0  0  0  0  0  0  0  0  0  0  0
    6.9659   11.8735   28.0876 O   0  0  0  0  0  0  0  0  0  0  0  0
    4.4575   11.5759   27.6833 O   0  0  0  0  0  0  0  0  0  0  0  0
    6.2360   10.1668   26.2522 C   0  0  0  0  0  0  0  0  0  0  0  0
   10.8768   15.8280   22.2411 C   0  0  0  0  0  0  0  0  0  0  0  0
   12.0499   15.3652   21.6750 C   0  0  0  0  0  0  0  0  0  0  0  0
   12.1121   15.1878   20.3023 C   0  0  0  0  0  0  0  0  0  0  0  0
   11.0306   15.5342   19.5298 C   0  0  0  0  0  0  0  0  0  0  0  0
   11.0921   15.2738   18.2232 F   0  0  0  0  0  0  0  0  0  0  0  0
    9.9160   16.0912   20.0209 N   0  0  0  0  0  0  0  0  0  0  0  0
    9.8625   16.2209   21.3624 C   0  0  0  0  0  0  0  0  0  0  0  0
  2  1  1  1
  2  3  1  0
  3  4  1  0
  4  5  2  0
  4  6  1  0
  6  7  2  0
  7  8  1  0
  8  9  2  0
  9 10  1  0
 10 11  2  0
 10 12  1  0
 12 13  1  0
 13 14  2  0
 13 15  2  0
 13 16  1  0
  2 17  1  0
 17 18  2  0
 18 19  1  0
 19 20  2  0
 20 21  1  0
 20 22  1  0
 22 23  2  0
 11  6  1  0
 23 17  1  0
 16  9  1  0
M  END
>  <energy_score>  (299) 
-11.505932

>  <inchikey>  (299) 
None

>  <smiles>  (299) 
None

>  <ref_pdb>  (299) 
A4274b

>  <alias>  (299) 
None

>  <HIPPO Pose ID>  (299) 
497943

>  <name>  (299) 
P497943

>  <HIPPO Compound ID>  (299) 
290102

>  <ref_mols>  (299) 
A4274b,A2513a

>  <distance_score>  (299) 
1.827066

>  <inspiration_score>  (299) 
None

$$$$
P497944
     RDKit          3D

 23 25  0  0  0  0  0  0  0  0999 V2000
   10.8924   16.0141   24.6893 C   0  0  0  0  0  0  0  0  0  0  0  0
   11.1941   15.0147   23.5978 C   0  0  1  0  0  0  0  0  0  0  0  0
   10.1181   14.0868   23.6552 O   0  0  0  0  0  0  0  0  0  0  0  0
   10.4216   12.8074   23.9015 C   0  0  0  0  0  0  0  0  0  0  0  0
   11.5299   12.3212   23.9968 O   0  0  0  0  0  0  0  0  0  0  0  0
    9.1417   12.1165   24.1376 C   0  0  0  0  0  0  0  0  0  0  0  0
    9.0978   10.7139   24.1770 C   0  0  0  0  0  0  0  0  0  0  0  0
    8.0558   10.0684   24.8425 C   0  0  0  0  0  0  0  0  0  0  0  0
    7.1077   10.8476   25.4857 C   0  0  0  0  0  0  0  0  0  0  0  0
    7.1269   12.2426   25.3343 C   0  0  0  0  0  0  0  0  0  0  0  0
    8.0794   12.8896   24.6081 C   0  0  0  0  0  0  0  0  0  0  0  0
    6.1459   12.9396   26.0844 N   0  0  0  0  0  0  0  0  0  0  0  0
    5.9225   11.9135   27.4164 S   0  0  0  0  0  0  0  0  0  0  0  0
    7.1349   12.0903   28.1947 O   0  0  0  0  0  0  0  0  0  0  0  0
    4.6001   12.0877   27.9625 O   0  0  0  0  0  0  0  0  0  0  0  0
    6.0861   10.3854   26.4797 C   0  0  0  0  0  0  0  0  0  0  0  0
   11.1563   15.4474   22.1735 C   0  0  0  0  0  0  0  0  0  0  0  0
   11.7979   14.6234   21.2525 C   0  0  0  0  0  0  0  0  0  0  0  0
   11.6585   14.8337   19.8983 C   0  0  0  0  0  0  0  0  0  0  0  0
   10.8353   15.8490   19.4944 C   0  0  0  0  0  0  0  0  0  0  0  0
   10.6547   16.0071   18.1856 F   0  0  0  0  0  0  0  0  0  0  0  0
   10.1815   16.6712   20.3335 N   0  0  0  0  0  0  0  0  0  0  0  0
   10.3546   16.4530   21.6548 C   0  0  0  0  0  0  0  0  0  0  0  0
  2  1  1  1
  2  3  1  0
  3  4  1  0
  4  5  2  0
  4  6  1  0
  6  7  2  0
  7  8  1  0
  8  9  2  0
  9 10  1  0
 10 11  2  0
 10 12  1  0
 12 13  1  0
 13 14  2  0
 13 15  2  0
 13 16  1  0
  2 17  1  0
 17 18  2  0
 18 19  1  0
 19 20  2  0
 20 21  1  0
 20 22  1  0
 22 23  2  0
 11  6  1  0
 23 17  1  0
 16  9  1  0
M  END
>  <energy_score>  (300) 
-15.650038

>  <inchikey>  (300) 
None

>  <smiles>  (300) 
None

>  <ref_pdb>  (300) 
A4274b

>  <alias>  (300) 
None

>  <HIPPO Pose ID>  (300) 
497944

>  <name>  (300) 
P497944

>  <HIPPO Compound ID>  (300) 
290102

>  <ref_mols>  (300) 
A4274b,A2513a

>  <distance_score>  (300) 
1.955302

>  <inspiration_score>  (300) 
None

$$$$
P497945
     RDKit          3D

 24 26  0  0  0  0  0  0  0  0999 V2000
    9.6844   16.3651   26.2813 C   0  0  0  0  0  0  0  0  0  0  0  0
   11.1324   16.0661   25.9100 C   0  0  0  0  0  0  0  0  0  0  0  0
   11.3288   15.1055   24.7341 C   0  0  1  0  0  0  0  0  0  0  0  0
   10.3700   14.0578   24.8832 O   0  0  0  0  0  0  0  0  0  0  0  0
   10.5527   12.9433   24.1325 C   0  0  0  0  0  0  0  0  0  0  0  0
   11.5997   12.5854   23.6398 O   0  0  0  0  0  0  0  0  0  0  0  0
    9.2518   12.2339   24.1384 C   0  0  0  0  0  0  0  0  0  0  0  0
    9.2285   10.8299   24.1117 C   0  0  0  0  0  0  0  0  0  0  0  0
    8.1753   10.1416   24.7149 C   0  0  0  0  0  0  0  0  0  0  0  0
    7.1941   10.8862   25.3483 C   0  0  0  0  0  0  0  0  0  0  0  0
    7.1747   12.2829   25.2062 C   0  0  0  0  0  0  0  0  0  0  0  0
    8.1260   12.9648   24.5103 C   0  0  0  0  0  0  0  0  0  0  0  0
    6.1688   12.9457   25.9552 N   0  0  0  0  0  0  0  0  0  0  0  0
    5.9535   11.8988   27.2722 S   0  0  0  0  0  0  0  0  0  0  0  0
    7.1470   12.0946   28.0747 O   0  0  0  0  0  0  0  0  0  0  0  0
    4.6180   12.0260   27.7997 O   0  0  0  0  0  0  0  0  0  0  0  0
    6.1781   10.3854   26.3283 C   0  0  0  0  0  0  0  0  0  0  0  0
   11.1914   15.6429   23.3267 C   0  0  0  0  0  0  0  0  0  0  0  0
   12.3174   15.6531   22.5165 C   0  0  0  0  0  0  0  0  0  0  0  0
   12.1770   15.6505   21.1409 C   0  0  0  0  0  0  0  0  0  0  0  0
   10.9130   15.7121   20.6010 C   0  0  0  0  0  0  0  0  0  0  0  0
   10.7548   15.4367   18.7575 Br  0  0  0  0  0  0  0  0  0  0  0  0
    9.8032   15.8678   21.3421 N   0  0  0  0  0  0  0  0  0  0  0  0
    9.9678   15.8369   22.6843 C   0  0  0  0  0  0  0  0  0  0  0  0
  1  2  1  0
  3  2  1  1
  3  4  1  0
  4  5  1  0
  5  6  2  0
  5  7  1  0
  7  8  2  0
  8  9  1  0
  9 10  2  0
 10 11  1  0
 11 12  2  0
 11 13  1  0
 13 14  1  0
 14 15  2  0
 14 16  2  0
 14 17  1  0
  3 18  1  0
 18 19  2  0
 19 20  1  0
 20 21  2  0
 21 22  1  0
 21 23  1  0
 23 24  2  0
 12  7  1  0
 24 18  1  0
 17 10  1  0
M  END
>  <energy_score>  (301) 
-8.003698

>  <inchikey>  (301) 
None

>  <smiles>  (301) 
None

>  <ref_pdb>  (301) 
A4274b

>  <alias>  (301) 
None

>  <HIPPO Pose ID>  (301) 
497945

>  <name>  (301) 
P497945

>  <HIPPO Compound ID>  (301) 
290117

>  <ref_mols>  (301) 
A4274b,A2513a

>  <distance_score>  (301) 
1.975525

>  <inspiration_score>  (301) 
None

$$$$
P497946
     RDKit          3D

 26 28  0  0  0  0  0  0  0  0999 V2000
    7.7924   12.9817   22.4760 O   0  0  0  0  0  0  0  0  0  0  0  0
    7.9135   13.3321   23.6336 C   0  0  0  0  0  0  0  0  0  0  0  0
    8.5357   14.4419   24.0911 O   0  0  0  0  0  0  0  0  0  0  0  0
    9.9683   14.4664   23.8673 C   0  0  2  0  0  0  0  0  0  0  0  0
   10.3705   14.9856   22.5177 C   0  0  0  0  0  0  0  0  0  0  0  0
   11.7170   15.1654   22.2067 C   0  0  0  0  0  0  0  0  0  0  0  0
   12.0709   15.3922   20.8940 C   0  0  0  0  0  0  0  0  0  0  0  0
   11.0704   15.4665   19.9547 C   0  0  0  0  0  0  0  0  0  0  0  0
   11.4496   15.3885   18.3151 Cl  0  0  0  0  0  0  0  0  0  0  0  0
    9.7641   15.4789   20.2316 N   0  0  0  0  0  0  0  0  0  0  0  0
    9.4407   15.2513   21.5133 C   0  0  0  0  0  0  0  0  0  0  0  0
   10.6458   13.1320   24.2760 C   0  0  0  0  0  0  0  0  0  0  0  0
   11.9950   13.2381   24.3436 F   0  0  0  0  0  0  0  0  0  0  0  0
   10.2424   12.8382   25.5325 F   0  0  0  0  0  0  0  0  0  0  0  0
   10.3506   12.0574   23.5273 F   0  0  0  0  0  0  0  0  0  0  0  0
    7.4732   12.5199   24.7618 C   0  0  0  0  0  0  0  0  0  0  0  0
    7.6911   11.1308   24.7113 C   0  0  0  0  0  0  0  0  0  0  0  0
    7.1440   10.3139   25.6920 C   0  0  0  0  0  0  0  0  0  0  0  0
    6.4403   10.9081   26.7307 C   0  0  0  0  0  0  0  0  0  0  0  0
    6.3547   12.3010   26.8086 C   0  0  0  0  0  0  0  0  0  0  0  0
    6.8331   13.1305   25.8289 C   0  0  0  0  0  0  0  0  0  0  0  0
    5.6624   12.8108   27.9280 N   0  0  0  0  0  0  0  0  0  0  0  0
    5.3511   11.4956   28.9751 S   0  0  0  0  0  0  0  0  0  0  0  0
    3.9461   11.5487   29.3084 O   0  0  0  0  0  0  0  0  0  0  0  0
    6.3924   11.4724   29.9810 O   0  0  0  0  0  0  0  0  0  0  0  0
    5.6643   10.1824   27.7864 C   0  0  0  0  0  0  0  0  0  0  0  0
  1  2  2  0
  2  3  1  0
  4  3  1  6
  4  5  1  0
  5  6  2  0
  6  7  1  0
  7  8  2  0
  8  9  1  0
  8 10  1  0
 10 11  2  0
  4 12  1  0
 12 13  1  0
 12 14  1  0
 12 15  1  0
  2 16  1  0
 16 17  2  0
 17 18  1  0
 18 19  2  0
 19 20  1  0
 20 21  2  0
 20 22  1  0
 22 23  1  0
 23 24  2  0
 23 25  2  0
 23 26  1  0
 11  5  1  0
 21 16  1  0
 26 19  1  0
M  END
>  <energy_score>  (302) 
-11.658282

>  <inchikey>  (302) 
None

>  <smiles>  (302) 
None

>  <ref_pdb>  (302) 
A4274b

>  <alias>  (302) 
None

>  <HIPPO Pose ID>  (302) 
497946

>  <name>  (302) 
P497946

>  <HIPPO Compound ID>  (302) 
290146

>  <ref_mols>  (302) 
A4274b,A2513a

>  <distance_score>  (302) 
1.943518

>  <inspiration_score>  (302) 
None

$$$$
P497947
     RDKit          3D

 26 28  0  0  0  0  0  0  0  0999 V2000
    7.8392   13.0180   22.5392 O   0  0  0  0  0  0  0  0  0  0  0  0
    7.9165   13.3365   23.7096 C   0  0  0  0  0  0  0  0  0  0  0  0
    8.5168   14.4327   24.2291 O   0  0  0  0  0  0  0  0  0  0  0  0
    9.9513   14.4849   24.0256 C   0  0  2  0  0  0  0  0  0  0  0  0
   10.3507   15.0855   22.7126 C   0  0  0  0  0  0  0  0  0  0  0  0
   11.6961   15.2460   22.3903 C   0  0  0  0  0  0  0  0  0  0  0  0
   12.0334   15.4668   21.0744 C   0  0  0  0  0  0  0  0  0  0  0  0
   11.0169   15.5490   20.1488 C   0  0  0  0  0  0  0  0  0  0  0  0
   11.4553   15.2702   18.3709 Br  0  0  0  0  0  0  0  0  0  0  0  0
    9.7184   15.6250   20.4566 N   0  0  0  0  0  0  0  0  0  0  0  0
    9.4092   15.4062   21.7385 C   0  0  0  0  0  0  0  0  0  0  0  0
   10.6309   13.1250   24.3343 C   0  0  0  0  0  0  0  0  0  0  0  0
   10.3756   12.1172   23.4863 F   0  0  0  0  0  0  0  0  0  0  0  0
   11.9755   13.2399   24.4583 F   0  0  0  0  0  0  0  0  0  0  0  0
   10.1879   12.7148   25.5416 F   0  0  0  0  0  0  0  0  0  0  0  0
    7.4394   12.4988   24.8021 C   0  0  0  0  0  0  0  0  0  0  0  0
    7.6746   11.1140   24.7322 C   0  0  0  0  0  0  0  0  0  0  0  0
    7.1237   10.2773   25.6937 C   0  0  0  0  0  0  0  0  0  0  0  0
    6.3991   10.8473   26.7323 C   0  0  0  0  0  0  0  0  0  0  0  0
    6.2922   12.2372   26.8273 C   0  0  0  0  0  0  0  0  0  0  0  0
    6.7732   13.0857   25.8666 C   0  0  0  0  0  0  0  0  0  0  0  0
    5.5801   12.7235   27.9443 N   0  0  0  0  0  0  0  0  0  0  0  0
    5.2721   11.3911   28.9698 S   0  0  0  0  0  0  0  0  0  0  0  0
    6.2979   11.3708   29.9915 O   0  0  0  0  0  0  0  0  0  0  0  0
    3.8614   11.4203   29.2814 O   0  0  0  0  0  0  0  0  0  0  0  0
    5.6224   10.0974   27.7705 C   0  0  0  0  0  0  0  0  0  0  0  0
  1  2  2  0
  2  3  1  0
  4  3  1  6
  4  5  1  0
  5  6  2  0
  6  7  1  0
  7  8  2  0
  8  9  1  0
  8 10  1  0
 10 11  2  0
  4 12  1  0
 12 13  1  0
 12 14  1  0
 12 15  1  0
  2 16  1  0
 16 17  2  0
 17 18  1  0
 18 19  2  0
 19 20  1  0
 20 21  2  0
 20 22  1  0
 22 23  1  0
 23 24  2  0
 23 25  2  0
 23 26  1  0
 11  5  1  0
 21 16  1  0
 26 19  1  0
M  END
>  <energy_score>  (303) 
-3.960814

>  <inchikey>  (303) 
None

>  <smiles>  (303) 
None

>  <ref_pdb>  (303) 
A4274b

>  <alias>  (303) 
None

>  <HIPPO Pose ID>  (303) 
497947

>  <name>  (303) 
P497947

>  <HIPPO Compound ID>  (303) 
290149

>  <ref_mols>  (303) 
A4274b,A2513a

>  <distance_score>  (303) 
1.954717

>  <inspiration_score>  (303) 
None

$$$$
P497948
     RDKit          3D

 26 28  0  0  0  0  0  0  0  0999 V2000
    9.6472   12.5399   22.6653 O   0  0  0  0  0  0  0  0  0  0  0  0
    9.4978   12.9135   23.8114 C   0  0  0  0  0  0  0  0  0  0  0  0
   10.2507   13.8059   24.5089 O   0  0  0  0  0  0  0  0  0  0  0  0
   11.6156   13.9799   23.9851 C   0  0  2  0  0  0  0  0  0  0  0  0
   11.5378   14.5990   22.6142 C   0  0  0  0  0  0  0  0  0  0  0  0
   11.8616   13.9644   21.4245 C   0  0  0  0  0  0  0  0  0  0  0  0
   11.6864   14.4639   20.1726 N   0  0  0  0  0  0  0  0  0  0  0  0
   11.0115   15.6145   20.0860 C   0  0  0  0  0  0  0  0  0  0  0  0
   10.5848   16.2871   21.2107 C   0  0  0  0  0  0  0  0  0  0  0  0
    9.4387   17.7408   21.0970 Br  0  0  0  0  0  0  0  0  0  0  0  0
   10.9089   15.8248   22.4769 C   0  0  0  0  0  0  0  0  0  0  0  0
   12.3971   12.6817   24.2800 C   0  0  0  0  0  0  0  0  0  0  0  0
   11.5801   11.6151   24.2570 F   0  0  0  0  0  0  0  0  0  0  0  0
   12.9739   12.7319   25.4919 F   0  0  0  0  0  0  0  0  0  0  0  0
   13.4320   12.3874   23.5051 F   0  0  0  0  0  0  0  0  0  0  0  0
    8.4734   12.3200   24.6523 C   0  0  0  0  0  0  0  0  0  0  0  0
    8.3586   10.9173   24.6085 C   0  0  0  0  0  0  0  0  0  0  0  0
    7.4459   10.2708   25.4297 C   0  0  0  0  0  0  0  0  0  0  0  0
    6.6682   11.0378   26.2836 C   0  0  0  0  0  0  0  0  0  0  0  0
    6.8038   12.4301   26.2957 C   0  0  0  0  0  0  0  0  0  0  0  0
    7.6803   13.1016   25.4764 C   0  0  0  0  0  0  0  0  0  0  0  0
    5.9173   13.1172   27.1549 N   0  0  0  0  0  0  0  0  0  0  0  0
    5.2255   11.9444   28.1968 S   0  0  0  0  0  0  0  0  0  0  0  0
    6.0134   11.9166   29.4113 O   0  0  0  0  0  0  0  0  0  0  0  0
    3.7981   12.1685   28.1955 O   0  0  0  0  0  0  0  0  0  0  0  0
    5.6320   10.4935   27.2140 C   0  0  0  0  0  0  0  0  0  0  0  0
  1  2  2  0
  2  3  1  0
  4  3  1  6
  4  5  1  0
  5  6  2  0
  6  7  1  0
  7  8  2  0
  8  9  1  0
  9 10  1  0
  9 11  2  0
  4 12  1  0
 12 13  1  0
 12 14  1  0
 12 15  1  0
  2 16  1  0
 16 17  2  0
 17 18  1  0
 18 19  2  0
 19 20  1  0
 20 21  2  0
 20 22  1  0
 22 23  1  0
 23 24  2  0
 23 25  2  0
 23 26  1  0
 11  5  1  0
 21 16  1  0
 26 19  1  0
M  END
>  <energy_score>  (304) 
-19.890939

>  <inchikey>  (304) 
None

>  <smiles>  (304) 
None

>  <ref_pdb>  (304) 
A4274b

>  <alias>  (304) 
None

>  <HIPPO Pose ID>  (304) 
497948

>  <name>  (304) 
P497948

>  <HIPPO Compound ID>  (304) 
290151

>  <ref_mols>  (304) 
A4274b,A2513a

>  <distance_score>  (304) 
1.879254

>  <inspiration_score>  (304) 
None

$$$$
P497949
     RDKit          3D

 24 27  0  0  0  0  0  0  0  0999 V2000
   23.9297   11.3108   -2.4748 C   0  0  0  0  0  0  0  0  0  0  0  0
   23.5036   12.5024   -1.8246 O   0  0  0  0  0  0  0  0  0  0  0  0
   23.9619   12.7232   -0.5556 C   0  0  0  0  0  0  0  0  0  0  0  0
   24.8596   11.9002    0.1225 C   0  0  0  0  0  0  0  0  0  0  0  0
   25.1860   12.1748    1.4455 C   0  0  0  0  0  0  0  0  0  0  0  0
   24.5917   13.2523    2.0987 C   0  0  0  0  0  0  0  0  0  0  0  0
   23.7277   14.1270    1.4114 C   0  0  0  0  0  0  0  0  0  0  0  0
   23.4457   13.8794    0.0594 C   0  0  0  0  0  0  0  0  0  0  0  0
   22.5856   14.8221   -0.7642 C   0  0  0  0  0  0  0  0  0  0  0  0
   22.3168   16.2244   -0.2010 C   0  0  0  0  0  0  0  0  0  0  0  0
   23.0056   16.5158    1.1103 C   0  0  0  0  0  0  0  0  0  0  0  0
   23.0773   15.3273    2.0769 C   0  0  2  0  0  0  0  0  0  0  0  0
   23.9308   15.8255    3.1202 O   0  0  0  0  0  0  0  0  0  0  0  0
   21.6992   14.9920    2.7210 C   0  0  0  0  0  0  0  0  0  0  0  0
   20.5826   14.5411    1.8985 N   0  0  0  0  0  0  0  0  0  0  0  0
   19.4784   13.5014    2.1896 C   0  0  0  0  0  0  0  0  0  0  0  0
   19.2445   12.9004    3.1597 O   0  0  0  0  0  0  0  0  0  0  0  0
   18.5851   13.3790    0.9571 C   0  0  1  0  0  0  0  0  0  0  0  0
   17.6400   12.1488    0.9520 C   0  0  0  0  0  0  0  0  0  0  0  0
   16.2596   12.7858    0.9053 C   0  0  1  0  0  0  0  0  0  0  0  0
   15.9218   13.4576    2.2324 C   0  0  0  0  0  0  0  0  0  0  0  0
   16.7863   14.7149    2.1896 C   0  0  0  0  0  0  0  0  0  0  0  0
   17.5707   14.5180    0.8920 C   0  0  2  0  0  0  0  0  0  0  0  0
   16.5330   13.9252    0.0639 O   0  0  0  0  0  0  0  0  0  0  0  0
  1  2  1  0
  2  3  1  0
  3  4  2  0
  4  5  1  0
  5  6  2  0
  6  7  1  0
  7  8  2  0
  8  9  1  0
  9 10  1  0
 10 11  1  0
 11 12  1  0
 12 13  1  1
 12 14  1  0
 14 15  1  0
 15 16  1  0
 16 17  2  0
 18 16  1  1
 18 19  1  0
 20 19  1  1
 20 21  1  0
 21 22  1  0
 23 22  1  1
 23 24  1  0
  8  3  1  0
 23 18  1  0
 12  7  1  0
 24 20  1  0
M  END
>  <energy_score>  (305) 
-15.338723

>  <inchikey>  (305) 
None

>  <smiles>  (305) 
None

>  <ref_pdb>  (305) 
A0239a

>  <alias>  (305) 
None

>  <HIPPO Pose ID>  (305) 
497949

>  <name>  (305) 
P497949

>  <HIPPO Compound ID>  (305) 
290288

>  <ref_mols>  (305) 
A0239a,A0608a

>  <distance_score>  (305) 
1.89674

>  <inspiration_score>  (305) 
None

$$$$
P497950
     RDKit          3D

 24 27  0  0  0  0  0  0  0  0999 V2000
   16.7233    9.4852   -2.7205 C   0  0  0  0  0  0  0  0  0  0  0  0
   17.9636    9.8033   -2.0921 O   0  0  0  0  0  0  0  0  0  0  0  0
   17.8875   10.7373   -1.0982 C   0  0  0  0  0  0  0  0  0  0  0  0
   19.0583   11.4348   -0.8369 C   0  0  0  0  0  0  0  0  0  0  0  0
   19.0816   12.4481    0.1267 C   0  0  0  0  0  0  0  0  0  0  0  0
   17.9341   12.7920    0.8611 C   0  0  0  0  0  0  0  0  0  0  0  0
   16.7520   12.0697    0.5927 C   0  0  0  0  0  0  0  0  0  0  0  0
   16.7500   11.0290   -0.3549 C   0  0  0  0  0  0  0  0  0  0  0  0
   15.4619   12.3493    1.3154 C   0  0  0  0  0  0  0  0  0  0  0  0
   15.3906   13.7581    1.8778 C   0  0  0  0  0  0  0  0  0  0  0  0
   16.6512   14.0517    2.6740 C   0  0  0  0  0  0  0  0  0  0  0  0
   17.9127   14.0121    1.7857 C   0  0  2  0  0  0  0  0  0  0  0  0
   17.8563   15.1817    0.9376 O   0  0  0  0  0  0  0  0  0  0  0  0
   19.1152   14.2052    2.7451 C   0  0  0  0  0  0  0  0  0  0  0  0
   20.3431   14.5555    2.0836 N   0  0  0  0  0  0  0  0  0  0  0  0
   21.8129   14.3236    2.5063 C   0  0  0  0  0  0  0  0  0  0  0  0
   22.2537   13.8834    3.4880 O   0  0  0  0  0  0  0  0  0  0  0  0
   22.6496   14.7373    1.3060 C   0  0  2  0  0  0  0  0  0  0  0  0
   24.1392   14.3507    1.3463 C   0  0  0  0  0  0  0  0  0  0  0  0
   24.8059   15.6819    0.9572 C   0  0  1  0  0  0  0  0  0  0  0  0
   23.7818   16.3693    0.0680 C   0  0  0  0  0  0  0  0  0  0  0  0
   22.6992   16.2634    1.1219 C   0  0  2  0  0  0  0  0  0  0  0  0
   23.4215   16.9230    2.2972 C   0  0  0  0  0  0  0  0  0  0  0  0
   24.7941   16.5218    2.1281 O   0  0  0  0  0  0  0  0  0  0  0  0
  1  2  1  0
  2  3  1  0
  3  4  2  0
  4  5  1  0
  5  6  2  0
  6  7  1  0
  7  8  2  0
  7  9  1  0
  9 10  1  0
 10 11  1  0
 11 12  1  0
 12 13  1  6
 12 14  1  0
 14 15  1  0
 15 16  1  0
 16 17  2  0
 18 16  1  1
 18 19  1  0
 20 19  1  1
 20 21  1  0
 21 22  1  0
 22 23  1  1
 23 24  1  0
  8  3  1  0
 22 18  1  0
 12  6  1  0
 24 20  1  0
M  END
>  <energy_score>  (306) 
-58.904824

>  <inchikey>  (306) 
None

>  <smiles>  (306) 
None

>  <ref_pdb>  (306) 
A0239a

>  <alias>  (306) 
None

>  <HIPPO Pose ID>  (306) 
497950

>  <name>  (306) 
P497950

>  <HIPPO Compound ID>  (306) 
290290

>  <ref_mols>  (306) 
A0239a,A0608a

>  <distance_score>  (306) 
1.927855

>  <inspiration_score>  (306) 
None

$$$$
P497951
     RDKit          3D

 24 27  0  0  0  0  0  0  0  0999 V2000
   19.0812    9.7787   -3.1648 C   0  0  0  0  0  0  0  0  0  0  0  0
   18.0895    9.6827   -2.1459 O   0  0  0  0  0  0  0  0  0  0  0  0
   18.1454   10.6441   -1.1783 C   0  0  0  0  0  0  0  0  0  0  0  0
   19.2831   11.3410   -0.8118 C   0  0  0  0  0  0  0  0  0  0  0  0
   19.2224   12.3094    0.1988 C   0  0  0  0  0  0  0  0  0  0  0  0
   18.0286   12.6466    0.8526 C   0  0  0  0  0  0  0  0  0  0  0  0
   16.8729   11.9386    0.4553 C   0  0  0  0  0  0  0  0  0  0  0  0
   16.9543   10.9197   -0.5175 C   0  0  0  0  0  0  0  0  0  0  0  0
   15.5155   12.2202    1.0427 C   0  0  0  0  0  0  0  0  0  0  0  0
   15.4144   13.6122    1.6396 C   0  0  0  0  0  0  0  0  0  0  0  0
   16.5873   13.8432    2.5760 C   0  0  0  0  0  0  0  0  0  0  0  0
   17.9494   13.8231    1.8321 C   0  0  2  0  0  0  0  0  0  0  0  0
   17.9681   15.0414    1.0737 O   0  0  0  0  0  0  0  0  0  0  0  0
   19.0067   13.9165    2.9801 C   0  0  0  0  0  0  0  0  0  0  0  0
   20.3985   14.2130    2.7110 N   0  0  0  0  0  0  0  0  0  0  0  0
   21.0770   14.7878    1.4443 C   0  0  0  0  0  0  0  0  0  0  0  0
   20.6109   15.1827    0.4506 O   0  0  0  0  0  0  0  0  0  0  0  0
   22.5849   14.8110    1.7340 C   0  0  1  0  0  0  0  0  0  0  0  0
   23.4332   14.8130    0.4486 C   0  0  0  0  0  0  0  0  0  0  0  0
   24.0617   16.2155    0.4881 C   0  0  1  0  0  0  0  0  0  0  0  0
   23.0192   17.0849    1.1660 C   0  0  0  0  0  0  0  0  0  0  0  0
   22.9503   16.1646    2.3764 C   0  0  2  0  0  0  0  0  0  0  0  0
   24.4286   16.1438    2.7572 C   0  0  0  0  0  0  0  0  0  0  0  0
   25.1086   16.1631    1.4815 O   0  0  0  0  0  0  0  0  0  0  0  0
  1  2  1  0
  2  3  1  0
  3  4  2  0
  4  5  1  0
  5  6  2  0
  6  7  1  0
  7  8  2  0
  7  9  1  0
  9 10  1  0
 10 11  1  0
 11 12  1  0
 12 13  1  6
 12 14  1  0
 14 15  1  0
 15 16  1  0
 16 17  2  0
 18 16  1  6
 18 19  1  0
 20 19  1  1
 20 21  1  0
 21 22  1  0
 22 23  1  6
 23 24  1  0
  8  3  1  0
 22 18  1  0
 12  6  1  0
 24 20  1  0
M  END
>  <energy_score>  (307) 
-25.897442

>  <inchikey>  (307) 
None

>  <smiles>  (307) 
None

>  <ref_pdb>  (307) 
A0239a

>  <alias>  (307) 
None

>  <HIPPO Pose ID>  (307) 
497951

>  <name>  (307) 
P497951

>  <HIPPO Compound ID>  (307) 
290290

>  <ref_mols>  (307) 
A0239a,A0608a

>  <distance_score>  (307) 
1.781753

>  <inspiration_score>  (307) 
None

$$$$
P497952
     RDKit          3D

 24 27  0  0  0  0  0  0  0  0999 V2000
   16.7140    9.4895   -2.7592 C   0  0  0  0  0  0  0  0  0  0  0  0
   17.9555    9.7426   -2.1034 O   0  0  0  0  0  0  0  0  0  0  0  0
   17.8999   10.6871   -1.1181 C   0  0  0  0  0  0  0  0  0  0  0  0
   19.0809   11.3671   -0.8650 C   0  0  0  0  0  0  0  0  0  0  0  0
   19.1237   12.3832    0.0963 C   0  0  0  0  0  0  0  0  0  0  0  0
   17.9894   12.7543    0.8357 C   0  0  0  0  0  0  0  0  0  0  0  0
   16.7958   12.0448    0.5750 C   0  0  0  0  0  0  0  0  0  0  0  0
   16.7720   11.0008   -0.3710 C   0  0  0  0  0  0  0  0  0  0  0  0
   15.5092   12.3333    1.3019 C   0  0  0  0  0  0  0  0  0  0  0  0
   15.4741   13.7040    1.9511 C   0  0  0  0  0  0  0  0  0  0  0  0
   16.7642   13.9350    2.7219 C   0  0  0  0  0  0  0  0  0  0  0  0
   17.9956   13.9576    1.7812 C   0  0  2  0  0  0  0  0  0  0  0  0
   17.8195   15.1434    0.9919 O   0  0  0  0  0  0  0  0  0  0  0  0
   19.2213   14.1450    2.7286 C   0  0  0  0  0  0  0  0  0  0  0  0
   20.5320   14.3957    2.1664 N   0  0  0  0  0  0  0  0  0  0  0  0
   20.9468   15.1604    0.8893 C   0  0  0  0  0  0  0  0  0  0  0  0
   20.2934   15.6416    0.0502 O   0  0  0  0  0  0  0  0  0  0  0  0
   22.4718   15.3283    0.8476 C   0  0  2  0  0  0  0  0  0  0  0  0
   23.4129   14.1756    1.2487 C   0  0  0  0  0  0  0  0  0  0  0  0
   24.3771   14.9020    2.2009 C   0  0  2  0  0  0  0  0  0  0  0  0
   23.4539   15.8019    2.9993 C   0  0  0  0  0  0  0  0  0  0  0  0
   22.9374   16.4923    1.7534 C   0  0  1  0  0  0  0  0  0  0  0  0
   24.2690   16.9764    1.1899 C   0  0  0  0  0  0  0  0  0  0  0  0
   25.1395   15.8451    1.4037 O   0  0  0  0  0  0  0  0  0  0  0  0
  1  2  1  0
  2  3  1  0
  3  4  2  0
  4  5  1  0
  5  6  2  0
  6  7  1  0
  7  8  2  0
  7  9  1  0
  9 10  1  0
 10 11  1  0
 11 12  1  0
 12 13  1  6
 12 14  1  0
 14 15  1  0
 15 16  1  0
 16 17  2  0
 18 16  1  1
 18 19  1  0
 20 19  1  6
 20 21  1  0
 21 22  1  0
 22 23  1  6
 23 24  1  0
  8  3  1  0
 22 18  1  0
 12  6  1  0
 24 20  1  0
M  END
>  <energy_score>  (308) 
-12.34499

>  <inchikey>  (308) 
None

>  <smiles>  (308) 
None

>  <ref_pdb>  (308) 
A0239a

>  <alias>  (308) 
None

>  <HIPPO Pose ID>  (308) 
497952

>  <name>  (308) 
P497952

>  <HIPPO Compound ID>  (308) 
290290

>  <ref_mols>  (308) 
A0239a,A0608a

>  <distance_score>  (308) 
1.791512

>  <inspiration_score>  (308) 
None

$$$$
P497953
     RDKit          3D

 24 27  0  0  0  0  0  0  0  0999 V2000
   15.6454    9.0290   -2.4903 C   0  0  0  0  0  0  0  0  0  0  0  0
   16.7711    9.8906   -2.6143 O   0  0  0  0  0  0  0  0  0  0  0  0
   16.9082   10.8633   -1.6647 C   0  0  0  0  0  0  0  0  0  0  0  0
   18.0942   11.5859   -1.7294 C   0  0  0  0  0  0  0  0  0  0  0  0
   18.3696   12.5865   -0.7941 C   0  0  0  0  0  0  0  0  0  0  0  0
   17.4737   12.8864    0.2439 C   0  0  0  0  0  0  0  0  0  0  0  0
   16.2379   12.2145    0.2507 C   0  0  0  0  0  0  0  0  0  0  0  0
   15.9777   11.1901   -0.6822 C   0  0  0  0  0  0  0  0  0  0  0  0
   15.1707   12.5400    1.2589 C   0  0  0  0  0  0  0  0  0  0  0  0
   15.3587   13.9205    1.8716 C   0  0  0  0  0  0  0  0  0  0  0  0
   16.7679   14.0198    2.4312 C   0  0  0  0  0  0  0  0  0  0  0  0
   17.8368   13.9193    1.3162 C   0  0  2  0  0  0  0  0  0  0  0  0
   17.9327   15.2293    0.7380 O   0  0  0  0  0  0  0  0  0  0  0  0
   19.1680   13.5486    2.0199 C   0  0  0  0  0  0  0  0  0  0  0  0
   20.3748   14.2074    1.5806 N   0  0  0  0  0  0  0  0  0  0  0  0
   21.4836   13.7321    0.6116 C   0  0  0  0  0  0  0  0  0  0  0  0
   21.5550   12.7664   -0.0413 O   0  0  0  0  0  0  0  0  0  0  0  0
   22.6867   14.6968    0.6513 C   0  0  2  0  0  0  0  0  0  0  0  0
   23.8327   14.0925    1.4984 C   0  0  0  0  0  0  0  0  0  0  0  0
   24.2367   15.2810    2.3810 C   0  0  2  0  0  0  0  0  0  0  0  0
   22.9005   15.9180    2.7121 C   0  0  0  0  0  0  0  0  0  0  0  0
   22.5540   16.1155    1.2453 C   0  0  1  0  0  0  0  0  0  0  0  0
   23.7897   16.9075    0.8161 C   0  0  0  0  0  0  0  0  0  0  0  0
   24.8649   16.2662    1.5256 O   0  0  0  0  0  0  0  0  0  0  0  0
  1  2  1  0
  2  3  1  0
  3  4  2  0
  4  5  1  0
  5  6  2  0
  6  7  1  0
  7  8  2  0
  7  9  1  0
  9 10  1  0
 10 11  1  0
 11 12  1  0
 12 13  1  6
 12 14  1  0
 14 15  1  0
 15 16  1  0
 16 17  2  0
 18 16  1  1
 18 19  1  0
 20 19  1  6
 20 21  1  0
 21 22  1  0
 22 23  1  6
 23 24  1  0
  8  3  1  0
 22 18  1  0
 12  6  1  0
 24 20  1  0
M  END
>  <energy_score>  (309) 
-17.206214

>  <inchikey>  (309) 
None

>  <smiles>  (309) 
None

>  <ref_pdb>  (309) 
A0239a

>  <alias>  (309) 
None

>  <HIPPO Pose ID>  (309) 
497953

>  <name>  (309) 
P497953

>  <HIPPO Compound ID>  (309) 
290290

>  <ref_mols>  (309) 
A0239a,A0608a

>  <distance_score>  (309) 
1.644098

>  <inspiration_score>  (309) 
None

$$$$
P497954
     RDKit          3D

 24 27  0  0  0  0  0  0  0  0999 V2000
   23.9992   11.1408   -2.5306 C   0  0  0  0  0  0  0  0  0  0  0  0
   23.5568   12.3374   -1.9010 O   0  0  0  0  0  0  0  0  0  0  0  0
   23.9994   12.5813   -0.6309 C   0  0  0  0  0  0  0  0  0  0  0  0
   24.9110   11.7853    0.0609 C   0  0  0  0  0  0  0  0  0  0  0  0
   25.2580   12.1050    1.3678 C   0  0  0  0  0  0  0  0  0  0  0  0
   24.6773   13.2077    1.9875 C   0  0  0  0  0  0  0  0  0  0  0  0
   23.7902   14.0536    1.2877 C   0  0  0  0  0  0  0  0  0  0  0  0
   23.4675   13.7440   -0.0412 C   0  0  0  0  0  0  0  0  0  0  0  0
   22.6620   14.6875   -0.9151 C   0  0  0  0  0  0  0  0  0  0  0  0
   21.9386   15.8218   -0.1991 C   0  0  0  0  0  0  0  0  0  0  0  0
   22.7560   16.3695    0.9466 C   0  0  0  0  0  0  0  0  0  0  0  0
   23.1988   15.2889    1.9471 C   0  0  2  0  0  0  0  0  0  0  0  0
   24.2499   15.9528    2.6813 O   0  0  0  0  0  0  0  0  0  0  0  0
   22.0774   14.9274    2.9640 C   0  0  0  0  0  0  0  0  0  0  0  0
   20.6810   14.8743    2.5398 N   0  0  0  0  0  0  0  0  0  0  0  0
   19.5431   13.9036    2.9444 C   0  0  0  0  0  0  0  0  0  0  0  0
   19.5658   12.9527    3.6180 O   0  0  0  0  0  0  0  0  0  0  0  0
   18.2539   14.3464    2.2341 C   0  0  2  0  0  0  0  0  0  0  0  0
   16.9455   13.7909    2.8674 C   0  0  0  0  0  0  0  0  0  0  0  0
   16.3420   12.9663    1.7317 C   0  0  2  0  0  0  0  0  0  0  0  0
   17.5530   12.3629    1.0517 C   0  0  0  0  0  0  0  0  0  0  0  0
   18.1891   13.7301    0.8216 C   0  0  1  0  0  0  0  0  0  0  0  0
   17.0362   14.4112    0.0910 C   0  0  0  0  0  0  0  0  0  0  0  0
   15.8554   13.9351    0.7779 O   0  0  0  0  0  0  0  0  0  0  0  0
  1  2  1  0
  2  3  1  0
  3  4  2  0
  4  5  1  0
  5  6  2  0
  6  7  1  0
  7  8  2  0
  8  9  1  0
  9 10  1  0
 10 11  1  0
 11 12  1  0
 12 13  1  1
 12 14  1  0
 14 15  1  0
 15 16  1  0
 16 17  2  0
 18 16  1  1
 18 19  1  0
 20 19  1  1
 20 21  1  0
 21 22  1  0
 22 23  1  6
 23 24  1  0
  8  3  1  0
 22 18  1  0
 12  7  1  0
 24 20  1  0
M  END
>  <energy_score>  (310) 
-25.29202

>  <inchikey>  (310) 
None

>  <smiles>  (310) 
None

>  <ref_pdb>  (310) 
A0239a

>  <alias>  (310) 
None

>  <HIPPO Pose ID>  (310) 
497954

>  <name>  (310) 
P497954

>  <HIPPO Compound ID>  (310) 
290291

>  <ref_mols>  (310) 
A0239a,A0608a

>  <distance_score>  (310) 
1.971856

>  <inspiration_score>  (310) 
None

$$$$
P497955
     RDKit          3D

 24 27  0  0  0  0  0  0  0  0999 V2000
   15.0337    9.4997   -1.5470 C   0  0  0  0  0  0  0  0  0  0  0  0
   15.1874   10.5660   -0.6186 O   0  0  0  0  0  0  0  0  0  0  0  0
   16.4575   11.0391   -0.3984 C   0  0  0  0  0  0  0  0  0  0  0  0
   17.6019   10.5268   -1.0031 C   0  0  0  0  0  0  0  0  0  0  0  0
   18.8407   11.0860   -0.7189 C   0  0  0  0  0  0  0  0  0  0  0  0
   18.9476   12.1471    0.1833 C   0  0  0  0  0  0  0  0  0  0  0  0
   17.8247   12.6897    0.8243 C   0  0  0  0  0  0  0  0  0  0  0  0
   16.5609   12.1263    0.5057 C   0  0  0  0  0  0  0  0  0  0  0  0
   15.2833   12.6298    1.1402 C   0  0  0  0  0  0  0  0  0  0  0  0
   15.4072   13.9507    1.8759 C   0  0  0  0  0  0  0  0  0  0  0  0
   16.6994   13.9928    2.6715 C   0  0  0  0  0  0  0  0  0  0  0  0
   17.9326   13.9122    1.7399 C   0  0  2  0  0  0  0  0  0  0  0  0
   17.8657   15.0958    0.9320 O   0  0  0  0  0  0  0  0  0  0  0  0
   19.1636   14.0233    2.6937 C   0  0  0  0  0  0  0  0  0  0  0  0
   20.4936   14.2490    2.1562 N   0  0  0  0  0  0  0  0  0  0  0  0
   20.9419   14.8537    0.8046 C   0  0  0  0  0  0  0  0  0  0  0  0
   20.3120   15.1933   -0.1185 O   0  0  0  0  0  0  0  0  0  0  0  0
   22.4593   15.0975    0.8103 C   0  0  2  0  0  0  0  0  0  0  0  0
   23.4349   14.0595    1.3949 C   0  0  0  0  0  0  0  0  0  0  0  0
   24.3122   14.9492    2.2927 C   0  0  2  0  0  0  0  0  0  0  0  0
   23.3068   15.8900    2.9276 C   0  0  0  0  0  0  0  0  0  0  0  0
   22.8228   16.3897    1.5813 C   0  0  1  0  0  0  0  0  0  0  0  0
   24.1577   16.8721    1.0229 C   0  0  0  0  0  0  0  0  0  0  0  0
   25.0710   15.8287    1.4233 O   0  0  0  0  0  0  0  0  0  0  0  0
  1  2  1  0
  2  3  1  0
  3  4  2  0
  4  5  1  0
  5  6  2  0
  6  7  1  0
  7  8  2  0
  8  9  1  0
  9 10  1  0
 10 11  1  0
 11 12  1  0
 12 13  1  6
 12 14  1  0
 14 15  1  0
 15 16  1  0
 16 17  2  0
 18 16  1  1
 18 19  1  0
 20 19  1  6
 20 21  1  0
 21 22  1  0
 22 23  1  6
 23 24  1  0
  8  3  1  0
 22 18  1  0
 12  7  1  0
 24 20  1  0
M  END
>  <energy_score>  (311) 
-17.07216

>  <inchikey>  (311) 
None

>  <smiles>  (311) 
None

>  <ref_pdb>  (311) 
A0239a

>  <alias>  (311) 
None

>  <HIPPO Pose ID>  (311) 
497955

>  <name>  (311) 
P497955

>  <HIPPO Compound ID>  (311) 
290291

>  <ref_mols>  (311) 
A0239a,A0608a

>  <distance_score>  (311) 
1.689623

>  <inspiration_score>  (311) 
None

$$$$
P497956
     RDKit          3D

 24 27  0  0  0  0  0  0  0  0999 V2000
   14.5018    9.7310   -1.3507 C   0  0  0  0  0  0  0  0  0  0  0  0
   14.7608   10.8267   -0.4817 O   0  0  0  0  0  0  0  0  0  0  0  0
   16.0745   11.1320   -0.2231 C   0  0  0  0  0  0  0  0  0  0  0  0
   17.1588   10.4083   -0.7110 C   0  0  0  0  0  0  0  0  0  0  0  0
   18.4502   10.7876   -0.3734 C   0  0  0  0  0  0  0  0  0  0  0  0
   18.6655   11.8835    0.4632 C   0  0  0  0  0  0  0  0  0  0  0  0
   17.6094   12.6493    0.9721 C   0  0  0  0  0  0  0  0  0  0  0  0
   16.2950   12.2663    0.5970 C   0  0  0  0  0  0  0  0  0  0  0  0
   15.0826   13.0309    1.0768 C   0  0  0  0  0  0  0  0  0  0  0  0
   15.4022   14.4202    1.5929 C   0  0  0  0  0  0  0  0  0  0  0  0
   16.5832   14.3540    2.5405 C   0  0  0  0  0  0  0  0  0  0  0  0
   17.8745   13.9046    1.8155 C   0  0  2  0  0  0  0  0  0  0  0  0
   18.2264   14.9857    0.9440 O   0  0  0  0  0  0  0  0  0  0  0  0
   18.9400   13.7729    2.9496 C   0  0  0  0  0  0  0  0  0  0  0  0
   20.3376   14.0938    2.7212 N   0  0  0  0  0  0  0  0  0  0  0  0
   21.1406   14.2117    1.4005 C   0  0  0  0  0  0  0  0  0  0  0  0
   20.7850   14.1448    0.2912 O   0  0  0  0  0  0  0  0  0  0  0  0
   22.5902   14.5236    1.8084 C   0  0  1  0  0  0  0  0  0  0  0  0
   23.5715   14.4442    0.6214 C   0  0  0  0  0  0  0  0  0  0  0  0
   23.9815   15.9175    0.4526 C   0  0  1  0  0  0  0  0  0  0  0  0
   22.7589   16.7087    0.8815 C   0  0  0  0  0  0  0  0  0  0  0  0
   22.7019   16.0057    2.2294 C   0  0  2  0  0  0  0  0  0  0  0  0
   24.1240   16.2769    2.7172 C   0  0  0  0  0  0  0  0  0  0  0  0
   24.9190   16.2065    1.5134 O   0  0  0  0  0  0  0  0  0  0  0  0
  1  2  1  0
  2  3  1  0
  3  4  2  0
  4  5  1  0
  5  6  2  0
  6  7  1  0
  7  8  2  0
  8  9  1  0
  9 10  1  0
 10 11  1  0
 11 12  1  0
 12 13  1  6
 12 14  1  0
 14 15  1  0
 15 16  1  0
 16 17  2  0
 18 16  1  6
 18 19  1  0
 20 19  1  1
 20 21  1  0
 21 22  1  0
 22 23  1  1
 23 24  1  0
  8  3  1  0
 22 18  1  0
 12  7  1  0
 24 20  1  0
M  END
>  <energy_score>  (312) 
-29.897738

>  <inchikey>  (312) 
None

>  <smiles>  (312) 
None

>  <ref_pdb>  (312) 
A0239a

>  <alias>  (312) 
None

>  <HIPPO Pose ID>  (312) 
497956

>  <name>  (312) 
P497956

>  <HIPPO Compound ID>  (312) 
290291

>  <ref_mols>  (312) 
A0239a,A0608a

>  <distance_score>  (312) 
1.550559

>  <inspiration_score>  (312) 
None

$$$$
P497957
     RDKit          3D

 24 27  0  0  0  0  0  0  0  0999 V2000
   15.3072    9.3824   -1.7439 C   0  0  0  0  0  0  0  0  0  0  0  0
   15.3577   10.4458   -0.8025 O   0  0  0  0  0  0  0  0  0  0  0  0
   16.5747   11.0372   -0.5739 C   0  0  0  0  0  0  0  0  0  0  0  0
   17.7615   10.6733   -1.2086 C   0  0  0  0  0  0  0  0  0  0  0  0
   18.9346   11.3717   -0.9416 C   0  0  0  0  0  0  0  0  0  0  0  0
   18.9373   12.4106   -0.0106 C   0  0  0  0  0  0  0  0  0  0  0  0
   17.7755   12.7660    0.6959 C   0  0  0  0  0  0  0  0  0  0  0  0
   16.5725   12.0976    0.3631 C   0  0  0  0  0  0  0  0  0  0  0  0
   15.2587   12.4937    0.9973 C   0  0  0  0  0  0  0  0  0  0  0  0
   15.2751   13.8856    1.6075 C   0  0  0  0  0  0  0  0  0  0  0  0
   16.4870   14.0276    2.5061 C   0  0  0  0  0  0  0  0  0  0  0  0
   17.8004   13.9120    1.7071 C   0  0  2  0  0  0  0  0  0  0  0  0
   17.9382   15.1244    0.9510 O   0  0  0  0  0  0  0  0  0  0  0  0
   18.9256   13.8015    2.7718 C   0  0  0  0  0  0  0  0  0  0  0  0
   20.2340   14.2080    2.3255 N   0  0  0  0  0  0  0  0  0  0  0  0
   20.8730   15.6099    2.2407 C   0  0  0  0  0  0  0  0  0  0  0  0
   20.4698   16.6453    2.5899 O   0  0  0  0  0  0  0  0  0  0  0  0
   22.2247   15.4165    1.5388 C   0  0  2  0  0  0  0  0  0  0  0  0
   23.2117   14.4988    2.2991 C   0  0  0  0  0  0  0  0  0  0  0  0
   24.3950   15.4461    2.5363 C   0  0  2  0  0  0  0  0  0  0  0  0
   23.7225   16.7788    2.7992 C   0  0  0  0  0  0  0  0  0  0  0  0
   22.9970   16.7511    1.4683 C   0  0  1  0  0  0  0  0  0  0  0  0
   24.1857   16.5670    0.5371 C   0  0  0  0  0  0  0  0  0  0  0  0
   25.0320   15.6477    1.2520 O   0  0  0  0  0  0  0  0  0  0  0  0
  1  2  1  0
  2  3  1  0
  3  4  2  0
  4  5  1  0
  5  6  2  0
  6  7  1  0
  7  8  2  0
  8  9  1  0
  9 10  1  0
 10 11  1  0
 11 12  1  0
 12 13  1  6
 12 14  1  0
 14 15  1  0
 15 16  1  0
 16 17  2  0
 18 16  1  1
 18 19  1  0
 20 19  1  6
 20 21  1  0
 21 22  1  0
 22 23  1  6
 23 24  1  0
  8  3  1  0
 22 18  1  0
 12  7  1  0
 24 20  1  0
M  END
>  <energy_score>  (313) 
-40.513156

>  <inchikey>  (313) 
None

>  <smiles>  (313) 
None

>  <ref_pdb>  (313) 
A0239a

>  <alias>  (313) 
None

>  <HIPPO Pose ID>  (313) 
497957

>  <name>  (313) 
P497957

>  <HIPPO Compound ID>  (313) 
290291

>  <ref_mols>  (313) 
A0239a,A0608a

>  <distance_score>  (313) 
1.986708

>  <inspiration_score>  (313) 
None

$$$$
P497958
     RDKit          3D

 24 27  0  0  0  0  0  0  0  0999 V2000
   14.3693    9.7449   -1.1174 C   0  0  0  0  0  0  0  0  0  0  0  0
   14.7836   10.7398   -0.1885 O   0  0  0  0  0  0  0  0  0  0  0  0
   16.1130   11.0860   -0.1943 C   0  0  0  0  0  0  0  0  0  0  0  0
   17.1021   10.3870   -0.8840 C   0  0  0  0  0  0  0  0  0  0  0  0
   18.4168   10.8329   -0.8524 C   0  0  0  0  0  0  0  0  0  0  0  0
   18.7495   11.9848   -0.1399 C   0  0  0  0  0  0  0  0  0  0  0  0
   17.7864   12.7206    0.5704 C   0  0  0  0  0  0  0  0  0  0  0  0
   16.4533   12.2341    0.5610 C   0  0  0  0  0  0  0  0  0  0  0  0
   15.3365   12.9667    1.2707 C   0  0  0  0  0  0  0  0  0  0  0  0
   15.8226   13.9907    2.2815 C   0  0  0  0  0  0  0  0  0  0  0  0
   16.9057   14.8402    1.6466 C   0  0  0  0  0  0  0  0  0  0  0  0
   18.1679   14.0108    1.3187 C   0  0  2  0  0  0  0  0  0  0  0  0
   18.9348   14.8950    0.4926 O   0  0  0  0  0  0  0  0  0  0  0  0
   18.9143   13.7033    2.6552 C   0  0  0  0  0  0  0  0  0  0  0  0
   20.3424   13.9578    2.7675 N   0  0  0  0  0  0  0  0  0  0  0  0
   21.4584   13.9422    1.6852 C   0  0  0  0  0  0  0  0  0  0  0  0
   21.4129   13.6480    0.5570 O   0  0  0  0  0  0  0  0  0  0  0  0
   22.7301   14.4048    2.3913 C   0  0  1  0  0  0  0  0  0  0  0  0
   24.0534   14.0799    1.6719 C   0  0  0  0  0  0  0  0  0  0  0  0
   24.7445   15.4543    1.6610 C   0  0  2  0  0  0  0  0  0  0  0  0
   24.2366   16.1313    2.9243 C   0  0  0  0  0  0  0  0  0  0  0  0
   22.7896   15.9399    2.5231 C   0  0  1  0  0  0  0  0  0  0  0  0
   22.8326   16.6052    1.1460 C   0  0  0  0  0  0  0  0  0  0  0  0
   24.1199   16.2331    0.6168 O   0  0  0  0  0  0  0  0  0  0  0  0
  1  2  1  0
  2  3  1  0
  3  4  2  0
  4  5  1  0
  5  6  2  0
  6  7  1  0
  7  8  2  0
  8  9  1  0
  9 10  1  0
 10 11  1  0
 11 12  1  0
 12 13  1  6
 12 14  1  0
 14 15  1  0
 15 16  1  0
 16 17  2  0
 18 16  1  6
 18 19  1  0
 20 19  1  1
 20 21  1  0
 21 22  1  0
 22 23  1  6
 23 24  1  0
  8  3  1  0
 22 18  1  0
 12  7  1  0
 24 20  1  0
M  END
>  <energy_score>  (314) 
-26.862724

>  <inchikey>  (314) 
None

>  <smiles>  (314) 
None

>  <ref_pdb>  (314) 
A0239a

>  <alias>  (314) 
None

>  <HIPPO Pose ID>  (314) 
497958

>  <name>  (314) 
P497958

>  <HIPPO Compound ID>  (314) 
290291

>  <ref_mols>  (314) 
A0239a,A0608a

>  <distance_score>  (314) 
1.769981

>  <inspiration_score>  (314) 
None

$$$$
P497959
     RDKit          3D

 24 27  0  0  0  0  0  0  0  0999 V2000
   15.8980   17.8691    4.1807 C   0  0  0  0  0  0  0  0  0  0  0  0
   14.8615   16.9237    3.9449 O   0  0  0  0  0  0  0  0  0  0  0  0
   15.2000   15.7881    3.2636 C   0  0  0  0  0  0  0  0  0  0  0  0
   14.1234   14.9896    2.8976 C   0  0  0  0  0  0  0  0  0  0  0  0
   14.3254   13.8060    2.1922 C   0  0  0  0  0  0  0  0  0  0  0  0
   15.6197   13.3930    1.8459 C   0  0  0  0  0  0  0  0  0  0  0  0
   16.7298   14.1652    2.2387 C   0  0  0  0  0  0  0  0  0  0  0  0
   16.4891   15.3848    2.9173 C   0  0  0  0  0  0  0  0  0  0  0  0
   18.1604   13.7731    1.8456 C   0  0  1  0  0  0  0  0  0  0  0  0
   18.5096   14.7256    0.8333 O   0  0  0  0  0  0  0  0  0  0  0  0
   19.1210   13.9127    3.0676 C   0  0  0  0  0  0  0  0  0  0  0  0
   20.5497   14.0025    2.8397 N   0  0  0  0  0  0  0  0  0  0  0  0
   21.3647   13.9387    1.5230 C   0  0  0  0  0  0  0  0  0  0  0  0
   21.0181   13.7271    0.4293 O   0  0  0  0  0  0  0  0  0  0  0  0
   22.8038   14.3301    1.8987 C   0  0  1  0  0  0  0  0  0  0  0  0
   23.7767   14.2266    0.7069 C   0  0  0  0  0  0  0  0  0  0  0  0
   24.1075   15.7061    0.4374 C   0  0  1  0  0  0  0  0  0  0  0  0
   22.8522   16.4619    0.8352 C   0  0  0  0  0  0  0  0  0  0  0  0
   22.8506   15.8436    2.2252 C   0  0  2  0  0  0  0  0  0  0  0  0
   24.2629   16.2144    2.6722 C   0  0  0  0  0  0  0  0  0  0  0  0
   25.0426   16.1140    1.4611 O   0  0  0  0  0  0  0  0  0  0  0  0
   18.2361   12.3415    1.2676 C   0  0  0  0  0  0  0  0  0  0  0  0
   17.0920   12.0563    0.3044 C   0  0  0  0  0  0  0  0  0  0  0  0
   15.7696   12.1211    1.0512 C   0  0  0  0  0  0  0  0  0  0  0  0
  1  2  1  0
  2  3  1  0
  3  4  2  0
  4  5  1  0
  5  6  2  0
  6  7  1  0
  7  8  2  0
  7  9  1  0
  9 10  1  6
  9 11  1  0
 11 12  1  0
 12 13  1  0
 13 14  2  0
 15 13  1  6
 15 16  1  0
 17 16  1  1
 17 18  1  0
 18 19  1  0
 19 20  1  6
 20 21  1  0
  9 22  1  0
 22 23  1  0
 23 24  1  0
  8  3  1  0
 19 15  1  0
 24  6  1  0
 21 17  1  0
M  END
>  <energy_score>  (315) 
-27.215077

>  <inchikey>  (315) 
None

>  <smiles>  (315) 
None

>  <ref_pdb>  (315) 
A0239a

>  <alias>  (315) 
None

>  <HIPPO Pose ID>  (315) 
497959

>  <name>  (315) 
P497959

>  <HIPPO Compound ID>  (315) 
290292

>  <ref_mols>  (315) 
A0239a,A0608a

>  <distance_score>  (315) 
1.741037

>  <inspiration_score>  (315) 
None

$$$$
P497960
     RDKit          3D

 24 27  0  0  0  0  0  0  0  0999 V2000
   13.9062   17.5433    4.2380 C   0  0  0  0  0  0  0  0  0  0  0  0
   15.1855   16.9695    4.0043 O   0  0  0  0  0  0  0  0  0  0  0  0
   15.2197   15.8046    3.2907 C   0  0  0  0  0  0  0  0  0  0  0  0
   14.1228   15.0496    2.9000 C   0  0  0  0  0  0  0  0  0  0  0  0
   14.3090   13.8706    2.1757 C   0  0  0  0  0  0  0  0  0  0  0  0
   15.5961   13.4277    1.8316 C   0  0  0  0  0  0  0  0  0  0  0  0
   16.7210   14.1642    2.2433 C   0  0  0  0  0  0  0  0  0  0  0  0
   16.4994   15.3697    2.9434 C   0  0  0  0  0  0  0  0  0  0  0  0
   18.1443   13.7553    1.8520 C   0  0  1  0  0  0  0  0  0  0  0  0
   18.5106   14.7031    0.8411 O   0  0  0  0  0  0  0  0  0  0  0  0
   19.1066   13.8635    3.0773 C   0  0  0  0  0  0  0  0  0  0  0  0
   20.5139   14.1134    2.8396 N   0  0  0  0  0  0  0  0  0  0  0  0
   21.3659   13.9286    1.5600 C   0  0  0  0  0  0  0  0  0  0  0  0
   21.0505   13.6199    0.4806 O   0  0  0  0  0  0  0  0  0  0  0  0
   22.7956   14.3488    1.9427 C   0  0  1  0  0  0  0  0  0  0  0  0
   23.7950   14.1772    0.7804 C   0  0  0  0  0  0  0  0  0  0  0  0
   24.1339   15.6389    0.4354 C   0  0  1  0  0  0  0  0  0  0  0  0
   22.8701   16.4151    0.7606 C   0  0  0  0  0  0  0  0  0  0  0  0
   22.8371   15.8785    2.1832 C   0  0  2  0  0  0  0  0  0  0  0  0
   24.2393   16.2742    2.6402 C   0  0  0  0  0  0  0  0  0  0  0  0
   25.0461   16.1047    1.4551 O   0  0  0  0  0  0  0  0  0  0  0  0
   18.1956   12.3270    1.2616 C   0  0  0  0  0  0  0  0  0  0  0  0
   17.0528   12.0745    0.2869 C   0  0  0  0  0  0  0  0  0  0  0  0
   15.7240   12.1630    1.0215 C   0  0  0  0  0  0  0  0  0  0  0  0
  1  2  1  0
  2  3  1  0
  3  4  2  0
  4  5  1  0
  5  6  2  0
  6  7  1  0
  7  8  2  0
  7  9  1  0
  9 10  1  6
  9 11  1  0
 11 12  1  0
 12 13  1  0
 13 14  2  0
 15 13  1  6
 15 16  1  0
 17 16  1  1
 17 18  1  0
 18 19  1  0
 19 20  1  1
 20 21  1  0
  9 22  1  0
 22 23  1  0
 23 24  1  0
  8  3  1  0
 19 15  1  0
 24  6  1  0
 21 17  1  0
M  END
>  <energy_score>  (316) 
-18.756726

>  <inchikey>  (316) 
None

>  <smiles>  (316) 
None

>  <ref_pdb>  (316) 
A0239a

>  <alias>  (316) 
None

>  <HIPPO Pose ID>  (316) 
497960

>  <name>  (316) 
P497960

>  <HIPPO Compound ID>  (316) 
290292

>  <ref_mols>  (316) 
A0239a,A0608a

>  <distance_score>  (316) 
1.473425

>  <inspiration_score>  (316) 
None

$$$$
P497961
     RDKit          3D

 24 27  0  0  0  0  0  0  0  0999 V2000
   15.7834   18.1091    4.4129 C   0  0  0  0  0  0  0  0  0  0  0  0
   16.5149   16.8861    4.4284 O   0  0  0  0  0  0  0  0  0  0  0  0
   16.0240   15.9294    3.5822 C   0  0  0  0  0  0  0  0  0  0  0  0
   14.6730   15.6523    3.4162 C   0  0  0  0  0  0  0  0  0  0  0  0
   14.2835   14.6434    2.5367 C   0  0  0  0  0  0  0  0  0  0  0  0
   15.2356   13.9012    1.8166 C   0  0  0  0  0  0  0  0  0  0  0  0
   16.6091   14.1557    1.9991 C   0  0  0  0  0  0  0  0  0  0  0  0
   16.9781   15.1742    2.8975 C   0  0  0  0  0  0  0  0  0  0  0  0
   17.6541   13.4155    1.1740 C   0  0  1  0  0  0  0  0  0  0  0  0
   17.9801   14.2635    0.0613 O   0  0  0  0  0  0  0  0  0  0  0  0
   18.9395   13.0431    1.9465 C   0  0  0  0  0  0  0  0  0  0  0  0
   20.1519   13.7160    1.5237 N   0  0  0  0  0  0  0  0  0  0  0  0
   20.7380   15.0855    1.9405 C   0  0  0  0  0  0  0  0  0  0  0  0
   20.2986   15.9167    2.6288 O   0  0  0  0  0  0  0  0  0  0  0  0
   22.0920   15.2141    1.2286 C   0  0  2  0  0  0  0  0  0  0  0  0
   23.1447   14.1834    1.7020 C   0  0  0  0  0  0  0  0  0  0  0  0
   24.2716   15.0955    2.2043 C   0  0  2  0  0  0  0  0  0  0  0  0
   23.5151   16.2358    2.8550 C   0  0  0  0  0  0  0  0  0  0  0  0
   22.7704   16.5608    1.5754 C   0  0  1  0  0  0  0  0  0  0  0  0
   23.9552   16.7523    0.6397 C   0  0  0  0  0  0  0  0  0  0  0  0
   24.8692   15.7139    1.0390 O   0  0  0  0  0  0  0  0  0  0  0  0
   17.0970   12.1014    0.5834 C   0  0  0  0  0  0  0  0  0  0  0  0
   15.7679   12.3307   -0.1104 C   0  0  0  0  0  0  0  0  0  0  0  0
   14.7352   12.8160    0.8936 C   0  0  0  0  0  0  0  0  0  0  0  0
  1  2  1  0
  2  3  1  0
  3  4  2  0
  4  5  1  0
  5  6  2  0
  6  7  1  0
  7  8  2  0
  7  9  1  0
  9 10  1  6
  9 11  1  0
 11 12  1  0
 12 13  1  0
 13 14  2  0
 15 13  1  1
 15 16  1  0
 17 16  1  6
 17 18  1  0
 18 19  1  0
 19 20  1  6
 20 21  1  0
  9 22  1  0
 22 23  1  0
 23 24  1  0
  8  3  1  0
 19 15  1  0
 24  6  1  0
 21 17  1  0
M  END
>  <energy_score>  (317) 
-58.95709

>  <inchikey>  (317) 
None

>  <smiles>  (317) 
None

>  <ref_pdb>  (317) 
A0239a

>  <alias>  (317) 
None

>  <HIPPO Pose ID>  (317) 
497961

>  <name>  (317) 
P497961

>  <HIPPO Compound ID>  (317) 
290292

>  <ref_mols>  (317) 
A0239a,A0608a

>  <distance_score>  (317) 
1.84435

>  <inspiration_score>  (317) 
None

$$$$
P497962
     RDKit          3D

 24 27  0  0  0  0  0  0  0  0999 V2000
   13.8091   17.3679    4.2537 C   0  0  0  0  0  0  0  0  0  0  0  0
   15.1152   16.8675    4.0003 O   0  0  0  0  0  0  0  0  0  0  0  0
   15.2066   15.7158    3.2702 C   0  0  0  0  0  0  0  0  0  0  0  0
   14.1477   14.9169    2.8638 C   0  0  0  0  0  0  0  0  0  0  0  0
   14.3913   13.7521    2.1351 C   0  0  0  0  0  0  0  0  0  0  0  0
   15.6992   13.3723    1.7939 C   0  0  0  0  0  0  0  0  0  0  0  0
   16.7879   14.1632    2.2049 C   0  0  0  0  0  0  0  0  0  0  0  0
   16.5070   15.3459    2.9227 C   0  0  0  0  0  0  0  0  0  0  0  0
   18.2293   13.8242    1.8029 C   0  0  1  0  0  0  0  0  0  0  0  0
   18.5361   14.7619    0.7649 O   0  0  0  0  0  0  0  0  0  0  0  0
   19.1873   14.0396    3.0117 C   0  0  0  0  0  0  0  0  0  0  0  0
   20.6211   13.9961    2.8181 N   0  0  0  0  0  0  0  0  0  0  0  0
   21.4624   13.9978    1.5138 C   0  0  0  0  0  0  0  0  0  0  0  0
   21.1259   13.9566    0.3979 O   0  0  0  0  0  0  0  0  0  0  0  0
   22.9144   14.1402    1.9761 C   0  0  1  0  0  0  0  0  0  0  0  0
   23.9821   14.0140    0.8758 C   0  0  0  0  0  0  0  0  0  0  0  0
   24.7876   15.3087    1.0705 C   0  0  2  0  0  0  0  0  0  0  0  0
   24.7151   15.5507    2.5679 C   0  0  0  0  0  0  0  0  0  0  0  0
   23.2027   15.5419    2.5630 C   0  0  1  0  0  0  0  0  0  0  0  0
   22.9614   16.6244    1.5119 C   0  0  0  0  0  0  0  0  0  0  0  0
   23.9953   16.3926    0.5337 O   0  0  0  0  0  0  0  0  0  0  0  0
   18.3502   12.3870    1.2537 C   0  0  0  0  0  0  0  0  0  0  0  0
   17.2256   12.0571    0.2797 C   0  0  0  0  0  0  0  0  0  0  0  0
   15.8858   12.1067    0.9971 C   0  0  0  0  0  0  0  0  0  0  0  0
  1  2  1  0
  2  3  1  0
  3  4  2  0
  4  5  1  0
  5  6  2  0
  6  7  1  0
  7  8  2  0
  7  9  1  0
  9 10  1  6
  9 11  1  0
 11 12  1  0
 12 13  1  0
 13 14  2  0
 15 13  1  6
 15 16  1  0
 17 16  1  1
 17 18  1  0
 18 19  1  0
 19 20  1  6
 20 21  1  0
  9 22  1  0
 22 23  1  0
 23 24  1  0
  8  3  1  0
 19 15  1  0
 24  6  1  0
 21 17  1  0
M  END
>  <energy_score>  (318) 
-30.514776

>  <inchikey>  (318) 
None

>  <smiles>  (318) 
None

>  <ref_pdb>  (318) 
A0239a

>  <alias>  (318) 
None

>  <HIPPO Pose ID>  (318) 
497962

>  <name>  (318) 
P497962

>  <HIPPO Compound ID>  (318) 
290292

>  <ref_mols>  (318) 
A0239a,A0608a

>  <distance_score>  (318) 
1.875711

>  <inspiration_score>  (318) 
None

$$$$
P497963
     RDKit          3D

 25 27  0  0  0  0  0  0  0  0999 V2000
   23.9921   10.7571   -2.3612 C   0  0  0  0  0  0  0  0  0  0  0  0
   24.6905   10.8923   -1.1292 O   0  0  0  0  0  0  0  0  0  0  0  0
   24.5642   12.0703   -0.4699 C   0  0  0  0  0  0  0  0  0  0  0  0
   24.8892   12.0375    0.8816 C   0  0  0  0  0  0  0  0  0  0  0  0
   24.6414   13.1348    1.6862 C   0  0  0  0  0  0  0  0  0  0  0  0
   24.0750   14.2896    1.1290 C   0  0  0  0  0  0  0  0  0  0  0  0
   23.9332   14.3819   -0.2655 C   0  0  0  0  0  0  0  0  0  0  0  0
   24.1538   13.2538   -1.0552 C   0  0  0  0  0  0  0  0  0  0  0  0
   23.4207   15.6380   -0.9345 C   0  0  0  0  0  0  0  0  0  0  0  0
   23.4816   16.8770   -0.0411 C   0  0  0  0  0  0  0  0  0  0  0  0
   22.8454   16.5652    1.3014 C   0  0  0  0  0  0  0  0  0  0  0  0
   23.6143   15.4327    2.0155 C   0  0  2  0  0  0  0  0  0  0  0  0
   24.8049   16.0706    2.5204 O   0  0  0  0  0  0  0  0  0  0  0  0
   22.7941   14.9378    3.2320 C   0  0  0  0  0  0  0  0  0  0  0  0
   21.3744   14.6483    3.0916 N   0  0  0  0  0  0  0  0  0  0  0  0
   20.5693   14.1282    1.8744 C   0  0  0  0  0  0  0  0  0  0  0  0
   20.9060   13.9254    0.7773 O   0  0  0  0  0  0  0  0  0  0  0  0
   19.1175   14.0105    2.3632 C   0  0  0  0  0  0  0  0  0  0  0  0
   18.1536   13.6166    1.2241 C   0  0  1  0  0  0  0  0  0  0  0  0
   18.2267   12.1077    0.9712 C   0  0  0  0  0  0  0  0  0  0  0  0
   16.7271   14.1441    1.5073 C   0  0  1  0  0  0  0  0  0  0  0  0
   15.8448   14.2738    0.2700 C   0  0  0  0  0  0  0  0  0  0  0  0
   15.0526   12.9957    0.2329 C   0  0  0  0  0  0  0  0  0  0  0  0
   15.0224   12.5603    1.6773 C   0  0  0  0  0  0  0  0  0  0  0  0
   16.0190   13.2888    2.4117 O   0  0  0  0  0  0  0  0  0  0  0  0
  1  2  1  0
  2  3  1  0
  3  4  2  0
  4  5  1  0
  5  6  2  0
  6  7  1  0
  7  8  2  0
  7  9  1  0
  9 10  1  0
 10 11  1  0
 11 12  1  0
 12 13  1  1
 12 14  1  0
 14 15  1  0
 15 16  1  0
 16 17  2  0
 16 18  1  0
 18 19  1  0
 19 20  1  1
 19 21  1  0
 21 22  1  6
 22 23  1  0
 23 24  1  0
 24 25  1  0
  8  3  1  0
 25 21  1  0
 12  6  1  0
M  END
>  <energy_score>  (319) 
-33.480355

>  <inchikey>  (319) 
None

>  <smiles>  (319) 
None

>  <ref_pdb>  (319) 
A0239a

>  <alias>  (319) 
None

>  <HIPPO Pose ID>  (319) 
497963

>  <name>  (319) 
P497963

>  <HIPPO Compound ID>  (319) 
290303

>  <ref_mols>  (319) 
A0239a,A0608a

>  <distance_score>  (319) 
1.913811

>  <inspiration_score>  (319) 
None

$$$$
P497964
     RDKit          3D

 25 28  0  0  0  0  0  0  0  0999 V2000
   13.8199   17.1947    4.3868 C   0  0  0  0  0  0  0  0  0  0  0  0
   15.1325   16.6842    4.1916 O   0  0  0  0  0  0  0  0  0  0  0  0
   15.2486   15.5676    3.4122 C   0  0  0  0  0  0  0  0  0  0  0  0
   14.2070   14.7626    2.9768 C   0  0  0  0  0  0  0  0  0  0  0  0
   14.4712   13.6316    2.2039 C   0  0  0  0  0  0  0  0  0  0  0  0
   15.7834   13.3021    1.8320 C   0  0  0  0  0  0  0  0  0  0  0  0
   16.8552   14.1110    2.2544 C   0  0  0  0  0  0  0  0  0  0  0  0
   16.5534   15.2445    3.0401 C   0  0  0  0  0  0  0  0  0  0  0  0
   18.2761   13.8908    1.7250 C   0  0  1  0  0  0  0  0  0  0  0  0
   18.3657   14.8930    0.7040 O   0  0  0  0  0  0  0  0  0  0  0  0
   19.3639   14.1300    2.8195 C   0  0  0  0  0  0  0  0  0  0  0  0
   20.7625   14.2301    2.4237 N   0  0  0  0  0  0  0  0  0  0  0  0
   21.4020   14.6429    1.0639 C   0  0  0  0  0  0  0  0  0  0  0  0
   20.9015   14.8894    0.0349 O   0  0  0  0  0  0  0  0  0  0  0  0
   22.9329   14.8105    1.2683 C   0  0  1  0  0  0  0  0  0  0  0  0
   23.6488   13.2066    1.5811 Cl  0  0  0  0  0  0  0  0  0  0  0  0
   23.6346   15.4730    0.0578 C   0  0  0  0  0  0  0  0  0  0  0  0
   24.1297   16.7910    0.6566 C   0  0  1  0  0  0  0  0  0  0  0  0
   22.9695   17.7200    1.0169 C   0  0  0  0  0  0  0  0  0  0  0  0
   22.4451   17.0910    2.3055 C   0  0  0  0  0  0  0  0  0  0  0  0
   23.2811   15.8117    2.3924 C   0  0  2  0  0  0  0  0  0  0  0  0
   24.5608   16.3431    1.9573 O   0  0  0  0  0  0  0  0  0  0  0  0
   18.4561   12.4936    1.0998 C   0  0  0  0  0  0  0  0  0  0  0  0
   17.2913   12.1251    0.1883 C   0  0  0  0  0  0  0  0  0  0  0  0
   15.9957   12.0745    0.9837 C   0  0  0  0  0  0  0  0  0  0  0  0
  1  2  1  0
  2  3  1  0
  3  4  2  0
  4  5  1  0
  5  6  2  0
  6  7  1  0
  7  8  2  0
  7  9  1  0
  9 10  1  6
  9 11  1  0
 11 12  1  0
 12 13  1  0
 13 14  2  0
 13 15  1  0
 15 16  1  1
 15 17  1  0
 18 17  1  6
 18 19  1  0
 19 20  1  0
 21 20  1  6
 21 22  1  0
  9 23  1  0
 23 24  1  0
 24 25  1  0
  8  3  1  0
 21 15  1  0
 25  6  1  0
 22 18  1  0
M  END
>  <energy_score>  (320) 
-36.394671

>  <inchikey>  (320) 
None

>  <smiles>  (320) 
None

>  <ref_pdb>  (320) 
A0239a

>  <alias>  (320) 
None

>  <HIPPO Pose ID>  (320) 
497964

>  <name>  (320) 
P497964

>  <HIPPO Compound ID>  (320) 
290304

>  <ref_mols>  (320) 
A0239a,A0608a

>  <distance_score>  (320) 
1.505566

>  <inspiration_score>  (320) 
None

$$$$
P497965
     RDKit          3D

 25 28  0  0  0  0  0  0  0  0999 V2000
   13.9500   17.2822    4.4038 C   0  0  0  0  0  0  0  0  0  0  0  0
   15.2476   16.7212    4.2487 O   0  0  0  0  0  0  0  0  0  0  0  0
   15.3404   15.6045    3.4659 C   0  0  0  0  0  0  0  0  0  0  0  0
   14.2811   14.8112    3.0500 C   0  0  0  0  0  0  0  0  0  0  0  0
   14.5188   13.6830    2.2646 C   0  0  0  0  0  0  0  0  0  0  0  0
   15.8208   13.3409    1.8681 C   0  0  0  0  0  0  0  0  0  0  0  0
   16.9097   14.1335    2.2795 C   0  0  0  0  0  0  0  0  0  0  0  0
   16.6362   15.2673    3.0739 C   0  0  0  0  0  0  0  0  0  0  0  0
   18.3216   13.8943    1.7360 C   0  0  1  0  0  0  0  0  0  0  0  0
   18.4209   14.8980    0.7177 O   0  0  0  0  0  0  0  0  0  0  0  0
   19.4188   14.1139    2.8254 C   0  0  0  0  0  0  0  0  0  0  0  0
   20.8142   14.2231    2.4259 N   0  0  0  0  0  0  0  0  0  0  0  0
   21.4465   14.5843    1.0489 C   0  0  0  0  0  0  0  0  0  0  0  0
   20.9425   14.7726    0.0097 O   0  0  0  0  0  0  0  0  0  0  0  0
   22.9707   14.7878    1.2577 C   0  0  1  0  0  0  0  0  0  0  0  0
   23.7104   13.1990    1.5975 Cl  0  0  0  0  0  0  0  0  0  0  0  0
   23.6660   15.4474    0.0434 C   0  0  0  0  0  0  0  0  0  0  0  0
   24.1417   16.7780    0.6311 C   0  0  1  0  0  0  0  0  0  0  0  0
   22.9680   17.6970    0.9726 C   0  0  0  0  0  0  0  0  0  0  0  0
   22.4404   17.0748    2.2630 C   0  0  0  0  0  0  0  0  0  0  0  0
   23.2933   15.8083    2.3722 C   0  0  2  0  0  0  0  0  0  0  0  0
   24.5693   16.3515    1.9400 O   0  0  0  0  0  0  0  0  0  0  0  0
   18.4727   12.4951    1.1070 C   0  0  0  0  0  0  0  0  0  0  0  0
   17.2947   12.1491    0.2033 C   0  0  0  0  0  0  0  0  0  0  0  0
   16.0046   12.1161    1.0089 C   0  0  0  0  0  0  0  0  0  0  0  0
  1  2  1  0
  2  3  1  0
  3  4  2  0
  4  5  1  0
  5  6  2  0
  6  7  1  0
  7  8  2  0
  7  9  1  0
  9 10  1  6
  9 11  1  0
 11 12  1  0
 12 13  1  0
 13 14  2  0
 13 15  1  0
 15 16  1  1
 15 17  1  0
 18 17  1  6
 18 19  1  0
 19 20  1  0
 21 20  1  6
 21 22  1  0
  9 23  1  0
 23 24  1  0
 24 25  1  0
  8  3  1  0
 21 15  1  0
 25  6  1  0
 22 18  1  0
M  END
>  <energy_score>  (321) 
-31.950254

>  <inchikey>  (321) 
None

>  <smiles>  (321) 
None

>  <ref_pdb>  (321) 
A0239a

>  <alias>  (321) 
None

>  <HIPPO Pose ID>  (321) 
497965

>  <name>  (321) 
P497965

>  <HIPPO Compound ID>  (321) 
290304

>  <ref_mols>  (321) 
A0239a,A0608a

>  <distance_score>  (321) 
1.382142

>  <inspiration_score>  (321) 
None

$$$$
P497966
     RDKit          3D

 25 28  0  0  0  0  0  0  0  0999 V2000
   13.7881   17.1952    4.3743 C   0  0  0  0  0  0  0  0  0  0  0  0
   15.0990   16.6768    4.1908 O   0  0  0  0  0  0  0  0  0  0  0  0
   15.2173   15.5614    3.4100 C   0  0  0  0  0  0  0  0  0  0  0  0
   14.1739   14.7785    2.9381 C   0  0  0  0  0  0  0  0  0  0  0  0
   14.4400   13.6477    2.1654 C   0  0  0  0  0  0  0  0  0  0  0  0
   15.7563   13.2964    1.8306 C   0  0  0  0  0  0  0  0  0  0  0  0
   16.8294   14.0791    2.2954 C   0  0  0  0  0  0  0  0  0  0  0  0
   16.5270   15.2154    3.0767 C   0  0  0  0  0  0  0  0  0  0  0  0
   18.2656   13.8259    1.8280 C   0  0  1  0  0  0  0  0  0  0  0  0
   18.4453   14.8551    0.8464 O   0  0  0  0  0  0  0  0  0  0  0  0
   19.2914   13.9967    2.9919 C   0  0  0  0  0  0  0  0  0  0  0  0
   20.7066   14.1363    2.6873 N   0  0  0  0  0  0  0  0  0  0  0  0
   21.4226   14.4795    1.3505 C   0  0  0  0  0  0  0  0  0  0  0  0
   20.9878   14.6260    0.2738 O   0  0  0  0  0  0  0  0  0  0  0  0
   22.9294   14.7407    1.6310 C   0  0  2  0  0  0  0  0  0  0  0  0
   23.7620   13.1553    1.5547 Cl  0  0  0  0  0  0  0  0  0  0  0  0
   23.3251   15.5026    2.9096 C   0  0  0  0  0  0  0  0  0  0  0  0
   24.1142   16.7020    2.3733 C   0  0  2  0  0  0  0  0  0  0  0  0
   23.1620   17.7244    1.7642 C   0  0  0  0  0  0  0  0  0  0  0  0
   22.7592   17.0255    0.4708 C   0  0  0  0  0  0  0  0  0  0  0  0
   23.5131   15.6870    0.5614 C   0  0  1  0  0  0  0  0  0  0  0  0
   24.7348   16.1482    1.2000 O   0  0  0  0  0  0  0  0  0  0  0  0
   18.4351   12.4417    1.1710 C   0  0  0  0  0  0  0  0  0  0  0  0
   17.2918   12.1216    0.2154 C   0  0  0  0  0  0  0  0  0  0  0  0
   15.9731   12.0766    0.9727 C   0  0  0  0  0  0  0  0  0  0  0  0
  1  2  1  0
  2  3  1  0
  3  4  2  0
  4  5  1  0
  5  6  2  0
  6  7  1  0
  7  8  2  0
  7  9  1  0
  9 10  1  6
  9 11  1  0
 11 12  1  0
 12 13  1  0
 13 14  2  0
 13 15  1  0
 15 16  1  1
 15 17  1  0
 18 17  1  6
 18 19  1  0
 19 20  1  0
 21 20  1  1
 21 22  1  0
  9 23  1  0
 23 24  1  0
 24 25  1  0
  8  3  1  0
 21 15  1  0
 25  6  1  0
 22 18  1  0
M  END
>  <energy_score>  (322) 
-58.538309

>  <inchikey>  (322) 
None

>  <smiles>  (322) 
None

>  <ref_pdb>  (322) 
A0239a

>  <alias>  (322) 
None

>  <HIPPO Pose ID>  (322) 
497966

>  <name>  (322) 
P497966

>  <HIPPO Compound ID>  (322) 
290304

>  <ref_mols>  (322) 
A0239a,A0608a

>  <distance_score>  (322) 
1.601226

>  <inspiration_score>  (322) 
None

$$$$
P497967
     RDKit          3D

 25 28  0  0  0  0  0  0  0  0999 V2000
   13.8177   16.9408    4.5296 C   0  0  0  0  0  0  0  0  0  0  0  0
   15.0145   16.1702    4.5641 O   0  0  0  0  0  0  0  0  0  0  0  0
   15.1765   15.2901    3.5284 C   0  0  0  0  0  0  0  0  0  0  0  0
   14.1426   14.7318    2.7850 C   0  0  0  0  0  0  0  0  0  0  0  0
   14.4269   13.8326    1.7618 C   0  0  0  0  0  0  0  0  0  0  0  0
   15.7531   13.5034    1.4624 C   0  0  0  0  0  0  0  0  0  0  0  0
   16.8184   14.0662    2.1956 C   0  0  0  0  0  0  0  0  0  0  0  0
   16.5006   14.9450    3.2435 C   0  0  0  0  0  0  0  0  0  0  0  0
   18.2450   13.8393    1.6888 C   0  0  1  0  0  0  0  0  0  0  0  0
   18.3111   14.7401    0.5739 O   0  0  0  0  0  0  0  0  0  0  0  0
   19.3392   14.2144    2.7389 C   0  0  0  0  0  0  0  0  0  0  0  0
   20.7371   14.2914    2.3473 N   0  0  0  0  0  0  0  0  0  0  0  0
   21.3854   14.6896    0.9901 C   0  0  0  0  0  0  0  0  0  0  0  0
   20.8920   14.9407   -0.0400 O   0  0  0  0  0  0  0  0  0  0  0  0
   22.9160   14.8297    1.2108 C   0  0  1  0  0  0  0  0  0  0  0  0
   23.6034   13.2106    1.5060 Cl  0  0  0  0  0  0  0  0  0  0  0  0
   23.6418   15.5055    0.0242 C   0  0  0  0  0  0  0  0  0  0  0  0
   24.1482   16.8043    0.6558 C   0  0  1  0  0  0  0  0  0  0  0  0
   22.9965   17.7435    1.0169 C   0  0  0  0  0  0  0  0  0  0  0  0
   22.4456   17.0990    2.2866 C   0  0  0  0  0  0  0  0  0  0  0  0
   23.2608   15.8051    2.3603 C   0  0  2  0  0  0  0  0  0  0  0  0
   24.5546   16.3287    1.9559 O   0  0  0  0  0  0  0  0  0  0  0  0
   18.4432   12.3914    1.1919 C   0  0  0  0  0  0  0  0  0  0  0  0
   17.2170   11.7065    0.5742 C   0  0  0  0  0  0  0  0  0  0  0  0
   16.0589   12.6397    0.2688 C   0  0  0  0  0  0  0  0  0  0  0  0
  1  2  1  0
  2  3  1  0
  3  4  2  0
  4  5  1  0
  5  6  2  0
  6  7  1  0
  7  8  2  0
  7  9  1  0
  9 10  1  6
  9 11  1  0
 11 12  1  0
 12 13  1  0
 13 14  2  0
 13 15  1  0
 15 16  1  1
 15 17  1  0
 18 17  1  6
 18 19  1  0
 19 20  1  0
 21 20  1  6
 21 22  1  0
  9 23  1  0
 23 24  1  0
 24 25  1  0
  8  3  1  0
 21 15  1  0
 25  6  1  0
 22 18  1  0
M  END
>  <energy_score>  (323) 
-17.958215

>  <inchikey>  (323) 
None

>  <smiles>  (323) 
None

>  <ref_pdb>  (323) 
A0239a

>  <alias>  (323) 
None

>  <HIPPO Pose ID>  (323) 
497967

>  <name>  (323) 
P497967

>  <HIPPO Compound ID>  (323) 
290304

>  <ref_mols>  (323) 
A0239a,A0608a

>  <distance_score>  (323) 
1.478529

>  <inspiration_score>  (323) 
None

$$$$
P497968
     RDKit          3D

 25 27  0  0  0  0  0  0  0  0999 V2000
   21.8824   12.2446   -1.2431 C   0  0  0  0  0  0  0  0  0  0  0  0
   23.2063   12.6658   -1.5848 O   0  0  0  0  0  0  0  0  0  0  0  0
   23.8890   12.9439   -0.4352 C   0  0  0  0  0  0  0  0  0  0  0  0
   24.7351   11.9765    0.0940 C   0  0  0  0  0  0  0  0  0  0  0  0
   25.2767   12.1775    1.3553 C   0  0  0  0  0  0  0  0  0  0  0  0
   24.9283   13.3192    2.0795 C   0  0  0  0  0  0  0  0  0  0  0  0
   24.1270   14.3289    1.5032 C   0  0  0  0  0  0  0  0  0  0  0  0
   23.6695   14.1726    0.1934 C   0  0  0  0  0  0  0  0  0  0  0  0
   22.9148   15.2568   -0.5477 C   0  0  0  0  0  0  0  0  0  0  0  0
   22.9004   16.6623    0.0603 C   0  0  0  0  0  0  0  0  0  0  0  0
   23.6695   16.7961    1.3542 C   0  0  0  0  0  0  0  0  0  0  0  0
   23.6653   15.5563    2.2588 C   0  0  2  0  0  0  0  0  0  0  0  0
   24.6101   15.8952    3.2767 O   0  0  0  0  0  0  0  0  0  0  0  0
   22.2956   15.3243    2.9581 C   0  0  0  0  0  0  0  0  0  0  0  0
   21.1048   15.1137    2.1537 N   0  0  0  0  0  0  0  0  0  0  0  0
   19.9703   14.0661    2.2904 C   0  0  0  0  0  0  0  0  0  0  0  0
   19.7792   13.2625    3.1136 O   0  0  0  0  0  0  0  0  0  0  0  0
   19.0658   14.2675    1.0773 C   0  0  0  0  0  0  0  0  0  0  0  0
   17.9429   13.2233    0.9011 C   0  0  1  0  0  0  0  0  0  0  0  0
   18.4606   11.7919    0.8125 C   0  0  0  0  0  0  0  0  0  0  0  0
   16.8086   13.3831    1.9314 C   0  0  2  0  0  0  0  0  0  0  0  0
   15.6826   12.3674    1.8049 C   0  0  0  0  0  0  0  0  0  0  0  0
   14.8713   12.8954    0.6525 C   0  0  0  0  0  0  0  0  0  0  0  0
   14.9895   14.3903    0.8603 C   0  0  0  0  0  0  0  0  0  0  0  0
   16.1480   14.6397    1.6790 O   0  0  0  0  0  0  0  0  0  0  0  0
  1  2  1  0
  2  3  1  0
  3  4  2  0
  4  5  1  0
  5  6  2  0
  6  7  1  0
  7  8  2  0
  8  9  1  0
  9 10  1  0
 10 11  1  0
 11 12  1  0
 12 13  1  1
 12 14  1  0
 14 15  1  0
 15 16  1  0
 16 17  2  0
 16 18  1  0
 18 19  1  0
 19 20  1  1
 19 21  1  0
 21 22  1  6
 22 23  1  0
 23 24  1  0
 24 25  1  0
  8  3  1  0
 25 21  1  0
 12  7  1  0
M  END
>  <energy_score>  (324) 
-30.324853

>  <inchikey>  (324) 
None

>  <smiles>  (324) 
None

>  <ref_pdb>  (324) 
A0239a

>  <alias>  (324) 
None

>  <HIPPO Pose ID>  (324) 
497968

>  <name>  (324) 
P497968

>  <HIPPO Compound ID>  (324) 
290305

>  <ref_mols>  (324) 
A0239a,A0608a

>  <distance_score>  (324) 
1.910764

>  <inspiration_score>  (324) 
None

$$$$
P497969
     RDKit          3D

 25 27  0  0  0  0  0  0  0  0999 V2000
   23.5152   11.2398   -2.3732 C   0  0  0  0  0  0  0  0  0  0  0  0
   23.1254   12.3336   -1.5521 O   0  0  0  0  0  0  0  0  0  0  0  0
   23.9066   12.6126   -0.4648 C   0  0  0  0  0  0  0  0  0  0  0  0
   24.9200   11.7859    0.0201 C   0  0  0  0  0  0  0  0  0  0  0  0
   25.5956   12.1229    1.1895 C   0  0  0  0  0  0  0  0  0  0  0  0
   25.2695   13.2939    1.8682 C   0  0  0  0  0  0  0  0  0  0  0  0
   24.2978   14.1754    1.3567 C   0  0  0  0  0  0  0  0  0  0  0  0
   23.6107   13.8258    0.1817 C   0  0  0  0  0  0  0  0  0  0  0  0
   22.5049   14.7083   -0.3553 C   0  0  0  0  0  0  0  0  0  0  0  0
   22.6336   16.2080   -0.0777 C   0  0  0  0  0  0  0  0  0  0  0  0
   23.6387   16.5856    0.9931 C   0  0  0  0  0  0  0  0  0  0  0  0
   23.9724   15.4996    2.0299 C   0  0  2  0  0  0  0  0  0  0  0  0
   25.1507   16.0176    2.6674 O   0  0  0  0  0  0  0  0  0  0  0  0
   22.8864   15.3698    3.1238 C   0  0  0  0  0  0  0  0  0  0  0  0
   21.5110   15.3550    2.6699 N   0  0  0  0  0  0  0  0  0  0  0  0
   20.3785   14.3407    2.9363 C   0  0  0  0  0  0  0  0  0  0  0  0
   20.3532   13.4008    3.6239 O   0  0  0  0  0  0  0  0  0  0  0  0
   19.1930   14.7270    2.0447 C   0  0  2  0  0  0  0  0  0  0  0  0
   18.4353   15.9241    2.6044 C   0  0  0  0  0  0  0  0  0  0  0  0
   18.3030   13.4814    1.8882 C   0  0  0  0  0  0  0  0  0  0  0  0
   17.2356   13.6406    0.8119 C   0  0  2  0  0  0  0  0  0  0  0  0
   15.8447   13.9237    1.3565 C   0  0  0  0  0  0  0  0  0  0  0  0
   15.2839   12.5399    1.5555 C   0  0  0  0  0  0  0  0  0  0  0  0
   15.8831   11.7756    0.3996 C   0  0  0  0  0  0  0  0  0  0  0  0
   17.1508   12.3767    0.1269 O   0  0  0  0  0  0  0  0  0  0  0  0
  1  2  1  0
  2  3  1  0
  3  4  2  0
  4  5  1  0
  5  6  2  0
  6  7  1  0
  7  8  2  0
  8  9  1  0
  9 10  1  0
 10 11  1  0
 11 12  1  0
 12 13  1  1
 12 14  1  0
 14 15  1  0
 15 16  1  0
 16 17  2  0
 16 18  1  0
 18 19  1  1
 18 20  1  0
 21 20  1  1
 21 22  1  0
 22 23  1  0
 23 24  1  0
 24 25  1  0
  8  3  1  0
 25 21  1  0
 12  7  1  0
M  END
>  <energy_score>  (325) 
-5.213261

>  <inchikey>  (325) 
None

>  <smiles>  (325) 
None

>  <ref_pdb>  (325) 
A0239a

>  <alias>  (325) 
None

>  <HIPPO Pose ID>  (325) 
497969

>  <name>  (325) 
P497969

>  <HIPPO Compound ID>  (325) 
290306

>  <ref_mols>  (325) 
A0239a,A0608a

>  <distance_score>  (325) 
1.759577

>  <inspiration_score>  (325) 
None

$$$$
P497970
     RDKit          3D

 25 27  0  0  0  0  0  0  0  0999 V2000
   23.3770   11.2031   -2.4365 C   0  0  0  0  0  0  0  0  0  0  0  0
   23.0129   12.2548   -1.5511 O   0  0  0  0  0  0  0  0  0  0  0  0
   23.8668   12.5294   -0.5192 C   0  0  0  0  0  0  0  0  0  0  0  0
   24.9608   11.7421   -0.1580 C   0  0  0  0  0  0  0  0  0  0  0  0
   25.7295   12.0807    0.9523 C   0  0  0  0  0  0  0  0  0  0  0  0
   25.4052   13.2050    1.7070 C   0  0  0  0  0  0  0  0  0  0  0  0
   24.3274   14.0306    1.3383 C   0  0  0  0  0  0  0  0  0  0  0  0
   23.5639   13.6931    0.2065 C   0  0  0  0  0  0  0  0  0  0  0  0
   22.3798   14.5479   -0.1870 C   0  0  0  0  0  0  0  0  0  0  0  0
   22.5441   16.0466    0.0737 C   0  0  0  0  0  0  0  0  0  0  0  0
   23.4995   16.4127    1.1960 C   0  0  0  0  0  0  0  0  0  0  0  0
   23.9354   15.2672    2.1256 C   0  0  2  0  0  0  0  0  0  0  0  0
   25.1038   15.8102    2.7637 O   0  0  0  0  0  0  0  0  0  0  0  0
   22.8784   14.9440    3.2105 C   0  0  0  0  0  0  0  0  0  0  0  0
   21.4794   14.9626    2.8388 N   0  0  0  0  0  0  0  0  0  0  0  0
   20.3011   14.0972    3.3294 C   0  0  0  0  0  0  0  0  0  0  0  0
   20.2849   13.1828    4.0523 O   0  0  0  0  0  0  0  0  0  0  0  0
   18.9766   14.5115    2.6851 C   0  0  1  0  0  0  0  0  0  0  0  0
   18.8645   15.9351    2.1879 C   0  0  0  0  0  0  0  0  0  0  0  0
   18.6445   13.4505    1.6364 C   0  0  0  0  0  0  0  0  0  0  0  0
   17.2623   13.5440    1.0210 C   0  0  2  0  0  0  0  0  0  0  0  0
   16.1040   13.4967    2.0048 C   0  0  0  0  0  0  0  0  0  0  0  0
   15.0489   12.7842    1.1975 C   0  0  0  0  0  0  0  0  0  0  0  0
   15.8766   11.7512    0.4686 C   0  0  0  0  0  0  0  0  0  0  0  0
   17.1148   12.3985    0.1589 O   0  0  0  0  0  0  0  0  0  0  0  0
  1  2  1  0
  2  3  1  0
  3  4  2  0
  4  5  1  0
  5  6  2  0
  6  7  1  0
  7  8  2  0
  8  9  1  0
  9 10  1  0
 10 11  1  0
 11 12  1  0
 12 13  1  1
 12 14  1  0
 14 15  1  0
 15 16  1  0
 16 17  2  0
 16 18  1  0
 18 19  1  6
 18 20  1  0
 21 20  1  1
 21 22  1  0
 22 23  1  0
 23 24  1  0
 24 25  1  0
  8  3  1  0
 25 21  1  0
 12  7  1  0
M  END
>  <energy_score>  (326) 
-16.65896

>  <inchikey>  (326) 
None

>  <smiles>  (326) 
None

>  <ref_pdb>  (326) 
A0239a

>  <alias>  (326) 
None

>  <HIPPO Pose ID>  (326) 
497970

>  <name>  (326) 
P497970

>  <HIPPO Compound ID>  (326) 
290306

>  <ref_mols>  (326) 
A0239a,A0608a

>  <distance_score>  (326) 
1.615824

>  <inspiration_score>  (326) 
None

$$$$
P497971
     RDKit          3D

 25 27  0  0  0  0  0  0  0  0999 V2000
   23.4572   11.1723   -2.4593 C   0  0  0  0  0  0  0  0  0  0  0  0
   23.1029   12.2431   -1.5933 O   0  0  0  0  0  0  0  0  0  0  0  0
   23.9396   12.5057   -0.5446 C   0  0  0  0  0  0  0  0  0  0  0  0
   25.0271   11.7153   -0.1718 C   0  0  0  0  0  0  0  0  0  0  0  0
   25.7758   12.0434    0.9557 C   0  0  0  0  0  0  0  0  0  0  0  0
   25.4355   13.1575    1.7187 C   0  0  0  0  0  0  0  0  0  0  0  0
   24.3628   13.9839    1.3403 C   0  0  0  0  0  0  0  0  0  0  0  0
   23.6252   13.6616    0.1872 C   0  0  0  0  0  0  0  0  0  0  0  0
   22.4499   14.5223   -0.2174 C   0  0  0  0  0  0  0  0  0  0  0  0
   22.6152   16.0176    0.0603 C   0  0  0  0  0  0  0  0  0  0  0  0
   23.5328   16.3642    1.2205 C   0  0  0  0  0  0  0  0  0  0  0  0
   23.9368   15.1997    2.1424 C   0  0  2  0  0  0  0  0  0  0  0  0
   25.0758   15.7353    2.8355 O   0  0  0  0  0  0  0  0  0  0  0  0
   22.8381   14.8343    3.1759 C   0  0  0  0  0  0  0  0  0  0  0  0
   21.4537   14.9954    2.7856 N   0  0  0  0  0  0  0  0  0  0  0  0
   20.1985   14.1820    3.1781 C   0  0  0  0  0  0  0  0  0  0  0  0
   20.0962   13.2096    3.8152 O   0  0  0  0  0  0  0  0  0  0  0  0
   18.9344   14.8015    2.5655 C   0  0  1  0  0  0  0  0  0  0  0  0
   18.9648   16.2997    2.3350 C   0  0  0  0  0  0  0  0  0  0  0  0
   18.5842   14.0422    1.2868 C   0  0  0  0  0  0  0  0  0  0  0  0
   17.7005   12.8323    1.5398 C   0  0  1  0  0  0  0  0  0  0  0  0
   16.2531   13.1800    1.8543 C   0  0  0  0  0  0  0  0  0  0  0  0
   15.5316   11.9747    1.3106 C   0  0  0  0  0  0  0  0  0  0  0  0
   16.3267   11.6555    0.0675 C   0  0  0  0  0  0  0  0  0  0  0  0
   17.6773   12.0425    0.3389 O   0  0  0  0  0  0  0  0  0  0  0  0
  1  2  1  0
  2  3  1  0
  3  4  2  0
  4  5  1  0
  5  6  2  0
  6  7  1  0
  7  8  2  0
  8  9  1  0
  9 10  1  0
 10 11  1  0
 11 12  1  0
 12 13  1  1
 12 14  1  0
 14 15  1  0
 15 16  1  0
 16 17  2  0
 16 18  1  0
 18 19  1  6
 18 20  1  0
 21 20  1  6
 21 22  1  0
 22 23  1  0
 23 24  1  0
 24 25  1  0
  8  3  1  0
 25 21  1  0
 12  7  1  0
M  END
>  <energy_score>  (327) 
-15.324085

>  <inchikey>  (327) 
None

>  <smiles>  (327) 
None

>  <ref_pdb>  (327) 
A0239a

>  <alias>  (327) 
None

>  <HIPPO Pose ID>  (327) 
497971

>  <name>  (327) 
P497971

>  <HIPPO Compound ID>  (327) 
290306

>  <ref_mols>  (327) 
A0239a,A0608a

>  <distance_score>  (327) 
1.678172

>  <inspiration_score>  (327) 
None

$$$$
P497972
     RDKit          3D

 25 28  0  0  0  0  0  0  0  0999 V2000
   23.7084   11.1327   -2.4990 C   0  0  0  0  0  0  0  0  0  0  0  0
   23.1806   12.1962   -1.7155 O   0  0  0  0  0  0  0  0  0  0  0  0
   23.8477   12.5243   -0.5698 C   0  0  0  0  0  0  0  0  0  0  0  0
   24.9637   11.8497   -0.0716 C   0  0  0  0  0  0  0  0  0  0  0  0
   25.5216   12.2267    1.1474 C   0  0  0  0  0  0  0  0  0  0  0  0
   24.9680   13.2817    1.8691 C   0  0  0  0  0  0  0  0  0  0  0  0
   23.8773   14.0066    1.3540 C   0  0  0  0  0  0  0  0  0  0  0  0
   23.3172   13.6210    0.1258 C   0  0  0  0  0  0  0  0  0  0  0  0
   22.0820   14.3374   -0.3747 C   0  0  0  0  0  0  0  0  0  0  0  0
   22.0903   15.8487   -0.1269 C   0  0  0  0  0  0  0  0  0  0  0  0
   22.8110   16.2920    1.1326 C   0  0  0  0  0  0  0  0  0  0  0  0
   23.2237   15.1671    2.0914 C   0  0  2  0  0  0  0  0  0  0  0  0
   24.2006   15.8092    2.9310 O   0  0  0  0  0  0  0  0  0  0  0  0
   22.0644   14.6590    2.9954 C   0  0  0  0  0  0  0  0  0  0  0  0
   20.6658   14.8550    2.6124 N   0  0  0  0  0  0  0  0  0  0  0  0
   19.4437   13.9065    2.7407 C   0  0  0  0  0  0  0  0  0  0  0  0
   19.3819   12.7986    3.0996 O   0  0  0  0  0  0  0  0  0  0  0  0
   18.1680   14.6597    2.3136 C   0  0  2  0  0  0  0  0  0  0  0  0
   16.8667   13.9495    2.8059 C   0  0  0  0  0  0  0  0  0  0  0  0
   16.1695   13.0578    1.7757 C   0  0  2  0  0  0  0  0  0  0  0  0
   16.9723   11.8685    1.2810 C   0  0  0  0  0  0  0  0  0  0  0  0
   17.8347   12.4427    0.1768 C   0  0  0  0  0  0  0  0  0  0  0  0
   17.3276   13.8726    0.0281 C   0  0  2  0  0  0  0  0  0  0  0  0
   18.1517   14.8997    0.8019 C   0  0  0  0  0  0  0  0  0  0  0  0
   16.0118   13.8625    0.6039 O   0  0  0  0  0  0  0  0  0  0  0  0
  1  2  1  0
  2  3  1  0
  3  4  2  0
  4  5  1  0
  5  6  2  0
  6  7  1  0
  7  8  2  0
  8  9  1  0
  9 10  1  0
 10 11  1  0
 11 12  1  0
 12 13  1  1
 12 14  1  0
 14 15  1  0
 15 16  1  0
 16 17  2  0
 18 16  1  6
 18 19  1  0
 20 19  1  1
 20 21  1  0
 21 22  1  0
 23 22  1  1
 23 24  1  0
 23 25  1  0
  8  3  1  0
 24 18  1  0
 12  7  1  0
 25 20  1  0
M  END
>  <energy_score>  (328) 
-27.362721

>  <inchikey>  (328) 
None

>  <smiles>  (328) 
None

>  <ref_pdb>  (328) 
A0239a

>  <alias>  (328) 
None

>  <HIPPO Pose ID>  (328) 
497972

>  <name>  (328) 
P497972

>  <HIPPO Compound ID>  (328) 
290308

>  <ref_mols>  (328) 
A0239a,A0608a

>  <distance_score>  (328) 
1.966433

>  <inspiration_score>  (328) 
None

$$$$
P497973
     RDKit          3D

 25 28  0  0  0  0  0  0  0  0999 V2000
   25.5926   11.8274   -2.6816 C   0  0  0  0  0  0  0  0  0  0  0  0
   25.1441   13.0034   -2.0186 O   0  0  0  0  0  0  0  0  0  0  0  0
   25.2257   13.0116   -0.6574 C   0  0  0  0  0  0  0  0  0  0  0  0
   25.7889   12.0106    0.1305 C   0  0  0  0  0  0  0  0  0  0  0  0
   25.6507   12.0618    1.5150 C   0  0  0  0  0  0  0  0  0  0  0  0
   24.8296   13.0266    2.0963 C   0  0  0  0  0  0  0  0  0  0  0  0
   24.2290   14.0046    1.2908 C   0  0  0  0  0  0  0  0  0  0  0  0
   24.5976   14.1024   -0.0591 C   0  0  0  0  0  0  0  0  0  0  0  0
   24.1415   15.2968   -0.8777 C   0  0  0  0  0  0  0  0  0  0  0  0
   23.8032   16.4960    0.0154 C   0  0  0  0  0  0  0  0  0  0  0  0
   22.8264   16.1569    1.1354 C   0  0  0  0  0  0  0  0  0  0  0  0
   22.8955   14.6948    1.6078 C   0  0  2  0  0  0  0  0  0  0  0  0
   22.6154   14.7199    2.9953 O   0  0  0  0  0  0  0  0  0  0  0  0
   21.8660   13.7968    0.8348 C   0  0  0  0  0  0  0  0  0  0  0  0
   20.4521   13.9242    1.0295 N   0  0  0  0  0  0  0  0  0  0  0  0
   19.2911   12.9864    0.6125 C   0  0  0  0  0  0  0  0  0  0  0  0
   19.3133   11.9315    0.1158 O   0  0  0  0  0  0  0  0  0  0  0  0
   17.9743   13.6821    0.9172 C   0  0  2  0  0  0  0  0  0  0  0  0
   17.8855   14.2457    2.3411 C   0  0  0  0  0  0  0  0  0  0  0  0
   16.6606   13.5442    2.8992 C   0  0  1  0  0  0  0  0  0  0  0  0
   15.3532   14.0130    2.2741 C   0  0  0  0  0  0  0  0  0  0  0  0
   15.5245   13.3405    0.9428 C   0  0  0  0  0  0  0  0  0  0  0  0
   14.6976   13.3823    0.0447 O   0  0  0  0  0  0  0  0  0  0  0  0
   16.8543   12.6337    0.9095 C   0  0  2  0  0  0  0  0  0  0  0  0
   16.8030   12.2379    2.3159 O   0  0  0  0  0  0  0  0  0  0  0  0
  1  2  1  0
  2  3  1  0
  3  4  2  0
  4  5  1  0
  5  6  2  0
  6  7  1  0
  7  8  2  0
  8  9  1  0
  9 10  1  0
 10 11  1  0
 11 12  1  0
 12 13  1  1
 12 14  1  0
 14 15  1  0
 15 16  1  0
 16 17  2  0
 18 16  1  1
 18 19  1  0
 20 19  1  6
 20 21  1  0
 21 22  1  0
 22 23  2  0
 24 22  1  1
 24 25  1  0
  8  3  1  0
 24 18  1  0
 12  7  1  0
 25 20  1  0
M  END
>  <energy_score>  (329) 
-3.412752

>  <inchikey>  (329) 
None

>  <smiles>  (329) 
None

>  <ref_pdb>  (329) 
A0239a

>  <alias>  (329) 
None

>  <HIPPO Pose ID>  (329) 
497973

>  <name>  (329) 
P497973

>  <HIPPO Compound ID>  (329) 
290311

>  <ref_mols>  (329) 
A0239a,A0608a

>  <distance_score>  (329) 
1.873206

>  <inspiration_score>  (329) 
None

$$$$
P497974
     RDKit          3D

 25 27  0  0  0  0  0  0  0  0999 V2000
   23.6113   11.1008   -2.4663 C   0  0  0  0  0  0  0  0  0  0  0  0
   23.1274   12.1303   -1.6120 O   0  0  0  0  0  0  0  0  0  0  0  0
   23.8965   12.4599   -0.5316 C   0  0  0  0  0  0  0  0  0  0  0  0
   25.0158   11.7467   -0.0995 C   0  0  0  0  0  0  0  0  0  0  0  0
   25.6826   12.1280    1.0623 C   0  0  0  0  0  0  0  0  0  0  0  0
   25.2418   13.2321    1.7867 C   0  0  0  0  0  0  0  0  0  0  0  0
   24.1527   13.9976    1.3315 C   0  0  0  0  0  0  0  0  0  0  0  0
   23.4719   13.5983    0.1701 C   0  0  0  0  0  0  0  0  0  0  0  0
   22.2250   14.3418   -0.2517 C   0  0  0  0  0  0  0  0  0  0  0  0
   22.2619   15.8564   -0.0299 C   0  0  0  0  0  0  0  0  0  0  0  0
   23.2026   16.3215    1.0659 C   0  0  0  0  0  0  0  0  0  0  0  0
   23.6582   15.2384    2.0575 C   0  0  2  0  0  0  0  0  0  0  0  0
   24.7610   15.8715    2.7302 O   0  0  0  0  0  0  0  0  0  0  0  0
   22.5903   14.8852    3.1244 C   0  0  0  0  0  0  0  0  0  0  0  0
   21.1845   15.0965    2.8094 N   0  0  0  0  0  0  0  0  0  0  0  0
   19.9496   14.1998    3.0717 C   0  0  0  0  0  0  0  0  0  0  0  0
   19.8783   13.1219    3.5103 O   0  0  0  0  0  0  0  0  0  0  0  0
   18.7053   14.9578    2.6389 C   0  0  0  0  0  0  0  0  0  0  0  0
   18.4210   14.7559    1.1598 C   0  0  0  0  0  0  0  0  0  0  0  0
   17.4161   13.6770    0.7950 C   0  0  1  0  0  0  0  0  0  0  0  0
   17.7736   12.2508    1.1507 C   0  0  0  0  0  0  0  0  0  0  0  0
   16.4323   11.5846    0.9777 C   0  0  0  0  0  0  0  0  0  0  0  0
   15.4692   12.6440    1.4955 C   0  0  2  0  0  0  0  0  0  0  0  0
   14.1610   12.6861    0.7284 C   0  0  0  0  0  0  0  0  0  0  0  0
   16.1363   13.9170    1.4003 O   0  0  0  0  0  0  0  0  0  0  0  0
  1  2  1  0
  2  3  1  0
  3  4  2  0
  4  5  1  0
  5  6  2  0
  6  7  1  0
  7  8  2  0
  8  9  1  0
  9 10  1  0
 10 11  1  0
 11 12  1  0
 12 13  1  1
 12 14  1  0
 14 15  1  0
 15 16  1  0
 16 17  2  0
 16 18  1  0
 18 19  1  0
 20 19  1  1
 20 21  1  0
 21 22  1  0
 22 23  1  0
 23 24  1  6
 23 25  1  0
  8  3  1  0
 25 20  1  0
 12  7  1  0
M  END
>  <energy_score>  (330) 
-13.059613

>  <inchikey>  (330) 
None

>  <smiles>  (330) 
None

>  <ref_pdb>  (330) 
A0239a

>  <alias>  (330) 
None

>  <HIPPO Pose ID>  (330) 
497974

>  <name>  (330) 
P497974

>  <HIPPO Compound ID>  (330) 
290312

>  <ref_mols>  (330) 
A0239a,A0608a

>  <distance_score>  (330) 
1.850215

>  <inspiration_score>  (330) 
None

$$$$
P497975
     RDKit          3D

 25 27  0  0  0  0  0  0  0  0999 V2000
   24.0626   11.1210   -2.4977 C   0  0  0  0  0  0  0  0  0  0  0  0
   23.7492   12.3754   -1.9049 O   0  0  0  0  0  0  0  0  0  0  0  0
   24.2197   12.6073   -0.6435 C   0  0  0  0  0  0  0  0  0  0  0  0
   25.0175   11.7339    0.0901 C   0  0  0  0  0  0  0  0  0  0  0  0
   25.3612   12.0444    1.4017 C   0  0  0  0  0  0  0  0  0  0  0  0
   24.8591   13.1987    1.9974 C   0  0  0  0  0  0  0  0  0  0  0  0
   24.0657   14.1037    1.2646 C   0  0  0  0  0  0  0  0  0  0  0  0
   23.8331   13.8397   -0.0944 C   0  0  0  0  0  0  0  0  0  0  0  0
   23.1887   14.8740   -0.9970 C   0  0  0  0  0  0  0  0  0  0  0  0
   23.3310   16.2921   -0.4454 C   0  0  0  0  0  0  0  0  0  0  0  0
   22.7285   16.3043    0.9389 C   0  0  0  0  0  0  0  0  0  0  0  0
   23.5128   15.3752    1.9035 C   0  0  2  0  0  0  0  0  0  0  0  0
   24.6359   16.1777    2.3175 O   0  0  0  0  0  0  0  0  0  0  0  0
   22.6375   15.0700    3.1567 C   0  0  0  0  0  0  0  0  0  0  0  0
   21.2170   15.3293    2.9746 N   0  0  0  0  0  0  0  0  0  0  0  0
   20.0241   14.3545    2.8814 C   0  0  0  0  0  0  0  0  0  0  0  0
   19.9825   13.1980    3.0125 O   0  0  0  0  0  0  0  0  0  0  0  0
   18.7931   15.1622    2.4966 C   0  0  0  0  0  0  0  0  0  0  0  0
   17.9696   14.3785    1.4726 C   0  0  0  0  0  0  0  0  0  0  0  0
   17.1710   13.2155    2.0818 C   0  0  2  0  0  0  0  0  0  0  0  0
   17.3977   11.9012    1.3518 C   0  0  0  0  0  0  0  0  0  0  0  0
   16.5410   12.0473    0.1171 C   0  0  0  0  0  0  0  0  0  0  0  0
   15.4233   12.9846    0.5625 C   0  0  1  0  0  0  0  0  0  0  0  0
   14.0635   12.3178    0.6102 C   0  0  0  0  0  0  0  0  0  0  0  0
   15.7645   13.4712    1.8785 O   0  0  0  0  0  0  0  0  0  0  0  0
  1  2  1  0
  2  3  1  0
  3  4  2  0
  4  5  1  0
  5  6  2  0
  6  7  1  0
  7  8  2  0
  8  9  1  0
  9 10  1  0
 10 11  1  0
 11 12  1  0
 12 13  1  1
 12 14  1  0
 14 15  1  0
 15 16  1  0
 16 17  2  0
 16 18  1  0
 18 19  1  0
 20 19  1  6
 20 21  1  0
 21 22  1  0
 22 23  1  0
 23 24  1  1
 23 25  1  0
  8  3  1  0
 25 20  1  0
 12  7  1  0
M  END
>  <energy_score>  (331) 
-28.631216

>  <inchikey>  (331) 
None

>  <smiles>  (331) 
None

>  <ref_pdb>  (331) 
A0239a

>  <alias>  (331) 
None

>  <HIPPO Pose ID>  (331) 
497975

>  <name>  (331) 
P497975

>  <HIPPO Compound ID>  (331) 
290312

>  <ref_mols>  (331) 
A0239a,A0608a

>  <distance_score>  (331) 
1.618711

>  <inspiration_score>  (331) 
None

$$$$
P497976
     RDKit          3D

 25 27  0  0  0  0  0  0  0  0999 V2000
   23.6437   11.2232   -2.5204 C   0  0  0  0  0  0  0  0  0  0  0  0
   23.3025   12.3946   -1.7894 O   0  0  0  0  0  0  0  0  0  0  0  0
   23.9407   12.6009   -0.5967 C   0  0  0  0  0  0  0  0  0  0  0  0
   24.8849   11.7395   -0.0401 C   0  0  0  0  0  0  0  0  0  0  0  0
   25.4387   12.0260    1.2016 C   0  0  0  0  0  0  0  0  0  0  0  0
   25.0337   13.1626    1.8955 C   0  0  0  0  0  0  0  0  0  0  0  0
   24.1100   14.0692    1.3334 C   0  0  0  0  0  0  0  0  0  0  0  0
   23.5797   13.7924    0.0629 C   0  0  0  0  0  0  0  0  0  0  0  0
   22.7278   14.7938   -0.6951 C   0  0  0  0  0  0  0  0  0  0  0  0
   22.2515   16.0260    0.0653 C   0  0  0  0  0  0  0  0  0  0  0  0
   23.2253   16.4515    1.1389 C   0  0  0  0  0  0  0  0  0  0  0  0
   23.6660   15.3149    2.0797 C   0  0  2  0  0  0  0  0  0  0  0  0
   24.8183   15.8905    2.7245 O   0  0  0  0  0  0  0  0  0  0  0  0
   22.6000   14.9644    3.1602 C   0  0  0  0  0  0  0  0  0  0  0  0
   21.1938   15.0946    2.8192 N   0  0  0  0  0  0  0  0  0  0  0  0
   19.9915   14.1686    3.1357 C   0  0  0  0  0  0  0  0  0  0  0  0
   19.9583   13.1230    3.6512 O   0  0  0  0  0  0  0  0  0  0  0  0
   18.7407   14.8038    2.5534 C   0  0  0  0  0  0  0  0  0  0  0  0
   18.6610   14.4811    1.0690 C   0  0  0  0  0  0  0  0  0  0  0  0
   17.6283   13.4558    0.6414 C   0  0  1  0  0  0  0  0  0  0  0  0
   17.7134   12.0769    1.2553 C   0  0  0  0  0  0  0  0  0  0  0  0
   16.3376   11.5054    0.9592 C   0  0  0  0  0  0  0  0  0  0  0  0
   15.4904   12.7204    0.5870 C   0  0  1  0  0  0  0  0  0  0  0  0
   14.1442   12.7874    1.2690 C   0  0  0  0  0  0  0  0  0  0  0  0
   16.2861   13.8706    0.9341 O   0  0  0  0  0  0  0  0  0  0  0  0
  1  2  1  0
  2  3  1  0
  3  4  2  0
  4  5  1  0
  5  6  2  0
  6  7  1  0
  7  8  2  0
  8  9  1  0
  9 10  1  0
 10 11  1  0
 11 12  1  0
 12 13  1  1
 12 14  1  0
 14 15  1  0
 15 16  1  0
 16 17  2  0
 16 18  1  0
 18 19  1  0
 20 19  1  1
 20 21  1  0
 21 22  1  0
 22 23  1  0
 23 24  1  1
 23 25  1  0
  8  3  1  0
 25 20  1  0
 12  7  1  0
M  END
>  <energy_score>  (332) 
-43.604244

>  <inchikey>  (332) 
None

>  <smiles>  (332) 
None

>  <ref_pdb>  (332) 
A0239a

>  <alias>  (332) 
None

>  <HIPPO Pose ID>  (332) 
497976

>  <name>  (332) 
P497976

>  <HIPPO Compound ID>  (332) 
290312

>  <ref_mols>  (332) 
A0239a,A0608a

>  <distance_score>  (332) 
1.917885

>  <inspiration_score>  (332) 
None

$$$$
P497977
     RDKit          3D

 25 28  0  0  0  0  0  0  0  0999 V2000
   14.9563   17.9901    4.3569 C   0  0  0  0  0  0  0  0  0  0  0  0
   15.8838   16.9129    4.4641 O   0  0  0  0  0  0  0  0  0  0  0  0
   15.6490   15.9027    3.5736 C   0  0  0  0  0  0  0  0  0  0  0  0
   14.3959   15.3463    3.3485 C   0  0  0  0  0  0  0  0  0  0  0  0
   14.2662   14.2788    2.4593 C   0  0  0  0  0  0  0  0  0  0  0  0
   15.3848   13.7515    1.7940 C   0  0  0  0  0  0  0  0  0  0  0  0
   16.6483   14.3402    1.9837 C   0  0  0  0  0  0  0  0  0  0  0  0
   16.7645   15.3941    2.9123 C   0  0  0  0  0  0  0  0  0  0  0  0
   17.8803   13.8465    1.2315 C   0  0  1  0  0  0  0  0  0  0  0  0
   18.4702   14.9567    0.5367 O   0  0  0  0  0  0  0  0  0  0  0  0
   18.8775   13.2100    2.2308 C   0  0  0  0  0  0  0  0  0  0  0  0
   20.2344   13.7131    2.1682 N   0  0  0  0  0  0  0  0  0  0  0  0
   20.7919   15.1302    2.4289 C   0  0  0  0  0  0  0  0  0  0  0  0
   20.2573   16.0939    2.8088 O   0  0  0  0  0  0  0  0  0  0  0  0
   22.3104   15.0486    2.1891 C   0  0  1  0  0  0  0  0  0  0  0  0
   22.6955   14.6539    0.7485 C   0  0  0  0  0  0  0  0  0  0  0  0
   23.4325   15.9171    0.2627 C   0  0  1  0  0  0  0  0  0  0  0  0
   23.5714   16.0368   -1.2355 C   0  0  0  0  0  0  0  0  0  0  0  0
   22.7050   17.0516    0.9651 C   0  0  0  0  0  0  0  0  0  0  0  0
   22.9587   16.4426    2.3356 C   0  0  2  0  0  0  0  0  0  0  0  0
   24.4747   16.2875    2.2790 C   0  0  0  0  0  0  0  0  0  0  0  0
   24.7271   15.9214    0.9043 O   0  0  0  0  0  0  0  0  0  0  0  0
   17.5416   12.8251    0.1253 C   0  0  0  0  0  0  0  0  0  0  0  0
   16.4740   11.8358    0.5656 C   0  0  0  0  0  0  0  0  0  0  0  0
   15.1820   12.5916    0.8499 C   0  0  0  0  0  0  0  0  0  0  0  0
  1  2  1  0
  2  3  1  0
  3  4  2  0
  4  5  1  0
  5  6  2  0
  6  7  1  0
  7  8  2  0
  7  9  1  0
  9 10  1  6
  9 11  1  0
 11 12  1  0
 12 13  1  0
 13 14  2  0
 15 13  1  6
 15 16  1  0
 16 17  1  0
 17 18  1  6
 17 19  1  0
 19 20  1  0
 20 21  1  6
 21 22  1  0
  9 23  1  0
 23 24  1  0
 24 25  1  0
  8  3  1  0
 20 15  1  0
 25  6  1  0
 22 17  1  0
M  END
>  <energy_score>  (333) 
-17.867133

>  <inchikey>  (333) 
None

>  <smiles>  (333) 
None

>  <ref_pdb>  (333) 
A0239a

>  <alias>  (333) 
None

>  <HIPPO Pose ID>  (333) 
497977

>  <name>  (333) 
P497977

>  <HIPPO Compound ID>  (333) 
290313

>  <ref_mols>  (333) 
A0239a,A0608a

>  <distance_score>  (333) 
1.557569

>  <inspiration_score>  (333) 
None

$$$$
P497978
     RDKit          3D

 25 28  0  0  0  0  0  0  0  0999 V2000
   13.8137   17.4099    4.2649 C   0  0  0  0  0  0  0  0  0  0  0  0
   15.1073   16.8674    4.0348 O   0  0  0  0  0  0  0  0  0  0  0  0
   15.1739   15.7160    3.3016 C   0  0  0  0  0  0  0  0  0  0  0  0
   14.0970   14.9544    2.8717 C   0  0  0  0  0  0  0  0  0  0  0  0
   14.3151   13.7869    2.1388 C   0  0  0  0  0  0  0  0  0  0  0  0
   15.6152   13.3681    1.8151 C   0  0  0  0  0  0  0  0  0  0  0  0
   16.7212   14.1194    2.2522 C   0  0  0  0  0  0  0  0  0  0  0  0
   16.4670   15.3060    2.9737 C   0  0  0  0  0  0  0  0  0  0  0  0
   18.1539   13.7490    1.8539 C   0  0  1  0  0  0  0  0  0  0  0  0
   18.4775   14.7075    0.8381 O   0  0  0  0  0  0  0  0  0  0  0  0
   19.1228   13.9046    3.0658 C   0  0  0  0  0  0  0  0  0  0  0  0
   20.5510   13.9744    2.8291 N   0  0  0  0  0  0  0  0  0  0  0  0
   21.3532   13.9617    1.5032 C   0  0  0  0  0  0  0  0  0  0  0  0
   20.9926   13.8156    0.4031 O   0  0  0  0  0  0  0  0  0  0  0  0
   22.8042   14.3007    1.8827 C   0  0  1  0  0  0  0  0  0  0  0  0
   23.7701   14.1907    0.6863 C   0  0  0  0  0  0  0  0  0  0  0  0
   24.1368   15.6705    0.4373 C   0  0  1  0  0  0  0  0  0  0  0  0
   24.6874   15.9694   -0.9357 C   0  0  0  0  0  0  0  0  0  0  0  0
   22.8988   16.4521    0.8531 C   0  0  0  0  0  0  0  0  0  0  0  0
   22.8889   15.8085    2.2324 C   0  0  2  0  0  0  0  0  0  0  0  0
   24.3111   16.1380    2.6801 C   0  0  0  0  0  0  0  0  0  0  0  0
   25.0852   16.0402    1.4650 O   0  0  0  0  0  0  0  0  0  0  0  0
   18.2429   12.3219    1.2703 C   0  0  0  0  0  0  0  0  0  0  0  0
   17.1155   12.0426    0.2848 C   0  0  0  0  0  0  0  0  0  0  0  0
   15.7760   12.1095    1.0012 C   0  0  0  0  0  0  0  0  0  0  0  0
  1  2  1  0
  2  3  1  0
  3  4  2  0
  4  5  1  0
  5  6  2  0
  6  7  1  0
  7  8  2  0
  7  9  1  0
  9 10  1  6
  9 11  1  0
 11 12  1  0
 12 13  1  0
 13 14  2  0
 15 13  1  6
 15 16  1  0
 16 17  1  0
 17 18  1  6
 17 19  1  0
 19 20  1  0
 20 21  1  6
 21 22  1  0
  9 23  1  0
 23 24  1  0
 24 25  1  0
  8  3  1  0
 20 15  1  0
 25  6  1  0
 22 17  1  0
M  END
>  <energy_score>  (334) 
-23.763616

>  <inchikey>  (334) 
None

>  <smiles>  (334) 
None

>  <ref_pdb>  (334) 
A0239a

>  <alias>  (334) 
None

>  <HIPPO Pose ID>  (334) 
497978

>  <name>  (334) 
P497978

>  <HIPPO Compound ID>  (334) 
290313

>  <ref_mols>  (334) 
A0239a,A0608a

>  <distance_score>  (334) 
1.478359

>  <inspiration_score>  (334) 
None

$$$$
P497979
     RDKit          3D

 25 28  0  0  0  0  0  0  0  0999 V2000
   13.8448   17.5055    4.2752 C   0  0  0  0  0  0  0  0  0  0  0  0
   15.1139   16.9206    4.0146 O   0  0  0  0  0  0  0  0  0  0  0  0
   15.1266   15.7711    3.2762 C   0  0  0  0  0  0  0  0  0  0  0  0
   14.0156   15.0514    2.8599 C   0  0  0  0  0  0  0  0  0  0  0  0
   14.1775   13.8790    2.1189 C   0  0  0  0  0  0  0  0  0  0  0  0
   15.4544   13.4168    1.7678 C   0  0  0  0  0  0  0  0  0  0  0  0
   16.5903   14.1328    2.1824 C   0  0  0  0  0  0  0  0  0  0  0  0
   16.3984   15.3184    2.9236 C   0  0  0  0  0  0  0  0  0  0  0  0
   17.9838   13.7273    1.7302 C   0  0  1  0  0  0  0  0  0  0  0  0
   18.2973   14.6272    0.6502 O   0  0  0  0  0  0  0  0  0  0  0  0
   19.0441   13.8497    2.8549 C   0  0  0  0  0  0  0  0  0  0  0  0
   20.3392   14.2267    2.3477 N   0  0  0  0  0  0  0  0  0  0  0  0
   21.0279   15.6052    2.2857 C   0  0  0  0  0  0  0  0  0  0  0  0
   20.6885   16.6378    2.7040 O   0  0  0  0  0  0  0  0  0  0  0  0
   22.3232   15.4109    1.4908 C   0  0  2  0  0  0  0  0  0  0  0  0
   23.3118   14.3967    2.1106 C   0  0  0  0  0  0  0  0  0  0  0  0
   24.5438   15.2823    2.3595 C   0  0  2  0  0  0  0  0  0  0  0  0
   25.5735   14.6836    3.2830 C   0  0  0  0  0  0  0  0  0  0  0  0
   23.9325   16.6071    2.7844 C   0  0  0  0  0  0  0  0  0  0  0  0
   23.1398   16.7225    1.4957 C   0  0  1  0  0  0  0  0  0  0  0  0
   24.2670   16.5873    0.4852 C   0  0  0  0  0  0  0  0  0  0  0  0
   25.1188   15.5831    1.0651 O   0  0  0  0  0  0  0  0  0  0  0  0
   18.0452   12.3020    1.1435 C   0  0  0  0  0  0  0  0  0  0  0  0
   16.8798   12.0367    0.1998 C   0  0  0  0  0  0  0  0  0  0  0  0
   15.5635   12.1499    0.9555 C   0  0  0  0  0  0  0  0  0  0  0  0
  1  2  1  0
  2  3  1  0
  3  4  2  0
  4  5  1  0
  5  6  2  0
  6  7  1  0
  7  8  2  0
  7  9  1  0
  9 10  1  6
  9 11  1  0
 11 12  1  0
 12 13  1  0
 13 14  2  0
 15 13  1  1
 15 16  1  0
 16 17  1  0
 17 18  1  1
 17 19  1  0
 19 20  1  0
 20 21  1  6
 21 22  1  0
  9 23  1  0
 23 24  1  0
 24 25  1  0
  8  3  1  0
 20 15  1  0
 25  6  1  0
 22 17  1  0
M  END
>  <energy_score>  (335) 
-23.380349

>  <inchikey>  (335) 
None

>  <smiles>  (335) 
None

>  <ref_pdb>  (335) 
A0239a

>  <alias>  (335) 
None

>  <HIPPO Pose ID>  (335) 
497979

>  <name>  (335) 
P497979

>  <HIPPO Compound ID>  (335) 
290313

>  <ref_mols>  (335) 
A0239a,A0608a

>  <distance_score>  (335) 
1.719596

>  <inspiration_score>  (335) 
None

$$$$
P497980
     RDKit          3D

 25 28  0  0  0  0  0  0  0  0999 V2000
   15.7262   18.1129    4.4148 C   0  0  0  0  0  0  0  0  0  0  0  0
   16.4676   16.8959    4.4283 O   0  0  0  0  0  0  0  0  0  0  0  0
   15.9847   15.9364    3.5807 C   0  0  0  0  0  0  0  0  0  0  0  0
   14.6356   15.6567    3.4026 C   0  0  0  0  0  0  0  0  0  0  0  0
   14.2551   14.6460    2.5209 C   0  0  0  0  0  0  0  0  0  0  0  0
   15.2143   13.9033    1.8113 C   0  0  0  0  0  0  0  0  0  0  0  0
   16.5852   14.1592    2.0074 C   0  0  0  0  0  0  0  0  0  0  0  0
   16.9456   15.1815    2.9057 C   0  0  0  0  0  0  0  0  0  0  0  0
   17.6386   13.4161    1.1958 C   0  0  1  0  0  0  0  0  0  0  0  0
   17.9859   14.2652    0.0890 O   0  0  0  0  0  0  0  0  0  0  0  0
   18.9097   13.0422    1.9905 C   0  0  0  0  0  0  0  0  0  0  0  0
   20.1297   13.6961    1.5646 N   0  0  0  0  0  0  0  0  0  0  0  0
   20.7182   15.0738    1.9500 C   0  0  0  0  0  0  0  0  0  0  0  0
   20.2748   15.9266    2.6093 O   0  0  0  0  0  0  0  0  0  0  0  0
   22.0728   15.1861    1.2346 C   0  0  2  0  0  0  0  0  0  0  0  0
   23.1099   14.1377    1.7011 C   0  0  0  0  0  0  0  0  0  0  0  0
   24.2487   15.0329    2.2190 C   0  0  2  0  0  0  0  0  0  0  0  0
   25.2708   14.3242    3.0737 C   0  0  0  0  0  0  0  0  0  0  0  0
   23.5020   16.1832    2.8718 C   0  0  0  0  0  0  0  0  0  0  0  0
   22.7704   16.5216    1.5875 C   0  0  1  0  0  0  0  0  0  0  0  0
   23.9627   16.6985    0.6579 C   0  0  0  0  0  0  0  0  0  0  0  0
   24.8651   15.6521    1.0632 O   0  0  0  0  0  0  0  0  0  0  0  0
   17.0895   12.1042    0.5942 C   0  0  0  0  0  0  0  0  0  0  0  0
   15.7674   12.3358   -0.1120 C   0  0  0  0  0  0  0  0  0  0  0  0
   14.7248   12.8164    0.8843 C   0  0  0  0  0  0  0  0  0  0  0  0
  1  2  1  0
  2  3  1  0
  3  4  2  0
  4  5  1  0
  5  6  2  0
  6  7  1  0
  7  8  2  0
  7  9  1  0
  9 10  1  6
  9 11  1  0
 11 12  1  0
 12 13  1  0
 13 14  2  0
 15 13  1  1
 15 16  1  0
 16 17  1  0
 17 18  1  1
 17 19  1  0
 19 20  1  0
 20 21  1  6
 21 22  1  0
  9 23  1  0
 23 24  1  0
 24 25  1  0
  8  3  1  0
 20 15  1  0
 25  6  1  0
 22 17  1  0
M  END
>  <energy_score>  (336) 
-25.408

>  <inchikey>  (336) 
None

>  <smiles>  (336) 
None

>  <ref_pdb>  (336) 
A0239a

>  <alias>  (336) 
None

>  <HIPPO Pose ID>  (336) 
497980

>  <name>  (336) 
P497980

>  <HIPPO Compound ID>  (336) 
290313

>  <ref_mols>  (336) 
A0239a,A0608a

>  <distance_score>  (336) 
1.700463

>  <inspiration_score>  (336) 
None

$$$$
P497981
     RDKit          3D

 25 28  0  0  0  0  0  0  0  0999 V2000
   23.9448   11.3512   -2.4968 C   0  0  0  0  0  0  0  0  0  0  0  0
   23.6147   12.5879   -1.8749 O   0  0  0  0  0  0  0  0  0  0  0  0
   24.0633   12.7845   -0.6000 C   0  0  0  0  0  0  0  0  0  0  0  0
   24.8683   11.8983    0.1124 C   0  0  0  0  0  0  0  0  0  0  0  0
   25.1770   12.1591    1.4434 C   0  0  0  0  0  0  0  0  0  0  0  0
   24.6310   13.2727    2.0778 C   0  0  0  0  0  0  0  0  0  0  0  0
   23.8482   14.1989    1.3618 C   0  0  0  0  0  0  0  0  0  0  0  0
   23.6392   13.9840   -0.0075 C   0  0  0  0  0  0  0  0  0  0  0  0
   22.9662   15.0510   -0.8436 C   0  0  0  0  0  0  0  0  0  0  0  0
   23.2721   16.4426   -0.2917 C   0  0  0  0  0  0  0  0  0  0  0  0
   22.7555   16.5711    1.1249 C   0  0  0  0  0  0  0  0  0  0  0  0
   23.1892   15.3966    2.0422 C   0  0  2  0  0  0  0  0  0  0  0  0
   24.1369   15.9830    2.9418 O   0  0  0  0  0  0  0  0  0  0  0  0
   21.9401   14.9326    2.8400 C   0  0  0  0  0  0  0  0  0  0  0  0
   20.7970   14.4827    2.0519 N   0  0  0  0  0  0  0  0  0  0  0  0
   19.6121   13.5757    2.4354 C   0  0  0  0  0  0  0  0  0  0  0  0
   19.3217   13.1083    3.4600 O   0  0  0  0  0  0  0  0  0  0  0  0
   18.7791   13.3421    1.1759 C   0  0  1  0  0  0  0  0  0  0  0  0
   17.8446   12.1073    1.2223 C   0  0  0  0  0  0  0  0  0  0  0  0
   16.4759   12.7138    0.9227 C   0  0  2  0  0  0  0  0  0  0  0  0
   15.4596   11.7067    0.4658 C   0  0  0  0  0  0  0  0  0  0  0  0
   16.8195   13.8293   -0.0462 C   0  0  0  0  0  0  0  0  0  0  0  0
   17.7773   14.4821    0.9406 C   0  0  1  0  0  0  0  0  0  0  0  0
   16.8340   14.6255    2.1401 C   0  0  0  0  0  0  0  0  0  0  0  0
   16.0383   13.4189    2.1072 O   0  0  0  0  0  0  0  0  0  0  0  0
  1  2  1  0
  2  3  1  0
  3  4  2  0
  4  5  1  0
  5  6  2  0
  6  7  1  0
  7  8  2  0
  8  9  1  0
  9 10  1  0
 10 11  1  0
 11 12  1  0
 12 13  1  1
 12 14  1  0
 14 15  1  0
 15 16  1  0
 16 17  2  0
 18 16  1  1
 18 19  1  0
 19 20  1  0
 20 21  1  6
 20 22  1  0
 22 23  1  0
 23 24  1  1
 24 25  1  0
  8  3  1  0
 23 18  1  0
 12  7  1  0
 25 20  1  0
M  END
>  <energy_score>  (337) 
-33.210045

>  <inchikey>  (337) 
None

>  <smiles>  (337) 
None

>  <ref_pdb>  (337) 
A0239a

>  <alias>  (337) 
None

>  <HIPPO Pose ID>  (337) 
497981

>  <name>  (337) 
P497981

>  <HIPPO Compound ID>  (337) 
290314

>  <ref_mols>  (337) 
A0239a,A0608a

>  <distance_score>  (337) 
1.96554

>  <inspiration_score>  (337) 
None

$$$$
P497982
     RDKit          3D

 25 28  0  0  0  0  0  0  0  0999 V2000
   23.7427   11.1178   -2.5260 C   0  0  0  0  0  0  0  0  0  0  0  0
   23.2791   12.2420   -1.7880 O   0  0  0  0  0  0  0  0  0  0  0  0
   23.9152   12.5304   -0.6138 C   0  0  0  0  0  0  0  0  0  0  0  0
   24.9754   11.7985   -0.0776 C   0  0  0  0  0  0  0  0  0  0  0  0
   25.4928   12.1335    1.1701 C   0  0  0  0  0  0  0  0  0  0  0  0
   24.9499   13.1992    1.8828 C   0  0  0  0  0  0  0  0  0  0  0  0
   23.9196   13.9838    1.3294 C   0  0  0  0  0  0  0  0  0  0  0  0
   23.4097   13.6496    0.0669 C   0  0  0  0  0  0  0  0  0  0  0  0
   22.2482   14.4313   -0.5039 C   0  0  0  0  0  0  0  0  0  0  0  0
   22.2335   15.9252   -0.1715 C   0  0  0  0  0  0  0  0  0  0  0  0
   22.9406   16.3145    1.1118 C   0  0  0  0  0  0  0  0  0  0  0  0
   23.3012   15.1620    2.0598 C   0  0  2  0  0  0  0  0  0  0  0  0
   24.2950   15.7602    2.9143 O   0  0  0  0  0  0  0  0  0  0  0  0
   22.1151   14.7237    2.9576 C   0  0  0  0  0  0  0  0  0  0  0  0
   20.7455   14.6973    2.4544 N   0  0  0  0  0  0  0  0  0  0  0  0
   19.5118   13.8832    2.9314 C   0  0  0  0  0  0  0  0  0  0  0  0
   19.4233   13.0544    3.7483 O   0  0  0  0  0  0  0  0  0  0  0  0
   18.2329   14.3431    2.1483 C   0  0  2  0  0  0  0  0  0  0  0  0
   18.1169   15.8732    2.1322 C   0  0  0  0  0  0  0  0  0  0  0  0
   16.9186   13.7219    2.7402 C   0  0  0  0  0  0  0  0  0  0  0  0
   16.4506   12.7812    1.6342 C   0  0  1  0  0  0  0  0  0  0  0  0
   15.8704   13.5959    0.4880 C   0  0  0  0  0  0  0  0  0  0  0  0
   17.1329   14.1805   -0.1452 C   0  0  0  0  0  0  0  0  0  0  0  0
   18.2383   13.6614    0.7708 C   0  0  2  0  0  0  0  0  0  0  0  0
   17.7031   12.3463    1.0752 O   0  0  0  0  0  0  0  0  0  0  0  0
  1  2  1  0
  2  3  1  0
  3  4  2  0
  4  5  1  0
  5  6  2  0
  6  7  1  0
  7  8  2  0
  8  9  1  0
  9 10  1  0
 10 11  1  0
 11 12  1  0
 12 13  1  1
 12 14  1  0
 14 15  1  0
 15 16  1  0
 16 17  2  0
 16 18  1  0
 18 19  1  6
 18 20  1  0
 21 20  1  1
 21 22  1  0
 22 23  1  0
 24 23  1  6
 24 25  1  0
  8  3  1  0
 24 18  1  0
 12  7  1  0
 25 21  1  0
M  END
>  <energy_score>  (338) 
-12.091218

>  <inchikey>  (338) 
None

>  <smiles>  (338) 
None

>  <ref_pdb>  (338) 
A0239a

>  <alias>  (338) 
None

>  <HIPPO Pose ID>  (338) 
497982

>  <name>  (338) 
P497982

>  <HIPPO Compound ID>  (338) 
290315

>  <ref_mols>  (338) 
A0239a,A0608a

>  <distance_score>  (338) 
1.981763

>  <inspiration_score>  (338) 
None

$$$$
P497983
     RDKit          3D

 25 28  0  0  0  0  0  0  0  0999 V2000
   20.0568    9.4856   -2.8009 C   0  0  0  0  0  0  0  0  0  0  0  0
   18.9389    9.4897   -1.9198 O   0  0  0  0  0  0  0  0  0  0  0  0
   18.7540   10.6127   -1.1642 C   0  0  0  0  0  0  0  0  0  0  0  0
   19.6387   11.6778   -1.0620 C   0  0  0  0  0  0  0  0  0  0  0  0
   19.3576   12.7356   -0.1931 C   0  0  0  0  0  0  0  0  0  0  0  0
   18.1967   12.7554    0.6027 C   0  0  0  0  0  0  0  0  0  0  0  0
   17.2475   11.7412    0.3974 C   0  0  0  0  0  0  0  0  0  0  0  0
   17.5566   10.6599   -0.4484 C   0  0  0  0  0  0  0  0  0  0  0  0
   15.8899   11.7932    1.0478 C   0  0  0  0  0  0  0  0  0  0  0  0
   15.5075   13.2171    1.4386 C   0  0  0  0  0  0  0  0  0  0  0  0
   16.5975   13.8046    2.3190 C   0  0  0  0  0  0  0  0  0  0  0  0
   17.9611   13.8895    1.5940 C   0  0  2  0  0  0  0  0  0  0  0  0
   17.9564   15.1140    0.8467 O   0  0  0  0  0  0  0  0  0  0  0  0
   19.0293   13.9496    2.7176 C   0  0  0  0  0  0  0  0  0  0  0  0
   20.3730   14.2584    2.2880 N   0  0  0  0  0  0  0  0  0  0  0  0
   21.2188   15.5317    2.4844 C   0  0  0  0  0  0  0  0  0  0  0  0
   20.9379   16.5576    2.9556 O   0  0  0  0  0  0  0  0  0  0  0  0
   22.6282   15.2854    1.8574 C   0  0  1  0  0  0  0  0  0  0  0  0
   23.2454   13.8924    2.1519 C   0  0  0  0  0  0  0  0  0  0  0  0
   22.5805   15.5397    0.3319 C   0  0  0  0  0  0  0  0  0  0  0  0
   23.6034   16.6645    0.1579 C   0  0  1  0  0  0  0  0  0  0  0  0
   23.0573   17.9827    0.7017 C   0  0  0  0  0  0  0  0  0  0  0  0
   23.2826   17.8151    2.1965 C   0  0  0  0  0  0  0  0  0  0  0  0
   23.6755   16.3447    2.3036 C   0  0  2  0  0  0  0  0  0  0  0  0
   24.5803   16.2993    1.1566 O   0  0  0  0  0  0  0  0  0  0  0  0
  1  2  1  0
  2  3  1  0
  3  4  2  0
  4  5  1  0
  5  6  2  0
  6  7  1  0
  7  8  2  0
  7  9  1  0
  9 10  1  0
 10 11  1  0
 11 12  1  0
 12 13  1  6
 12 14  1  0
 14 15  1  0
 15 16  1  0
 16 17  2  0
 16 18  1  0
 18 19  1  6
 18 20  1  0
 21 20  1  1
 21 22  1  0
 22 23  1  0
 24 23  1  6
 24 25  1  0
  8  3  1  0
 24 18  1  0
 12  6  1  0
 25 21  1  0
M  END
>  <energy_score>  (339) 
-24.524902

>  <inchikey>  (339) 
None

>  <smiles>  (339) 
None

>  <ref_pdb>  (339) 
A0239a

>  <alias>  (339) 
None

>  <HIPPO Pose ID>  (339) 
497983

>  <name>  (339) 
P497983

>  <HIPPO Compound ID>  (339) 
290316

>  <ref_mols>  (339) 
A0239a,A0608a

>  <distance_score>  (339) 
1.811907

>  <inspiration_score>  (339) 
None

$$$$
P497984
     RDKit          3D

 25 28  0  0  0  0  0  0  0  0999 V2000
   13.6805    9.4276   -1.3629 C   0  0  0  0  0  0  0  0  0  0  0  0
   14.5227   10.2785   -2.1303 O   0  0  0  0  0  0  0  0  0  0  0  0
   15.3550   11.0979   -1.4207 C   0  0  0  0  0  0  0  0  0  0  0  0
   16.4551   11.5724   -2.1250 C   0  0  0  0  0  0  0  0  0  0  0  0
   17.3899   12.3996   -1.5007 C   0  0  0  0  0  0  0  0  0  0  0  0
   17.2530   12.7738   -0.1494 C   0  0  0  0  0  0  0  0  0  0  0  0
   16.0826   12.3804    0.5209 C   0  0  0  0  0  0  0  0  0  0  0  0
   15.1606   11.5173   -0.1061 C   0  0  0  0  0  0  0  0  0  0  0  0
   15.7747   12.8716    1.9063 C   0  0  0  0  0  0  0  0  0  0  0  0
   16.5705   14.1181    2.2749 C   0  0  0  0  0  0  0  0  0  0  0  0
   18.0547   13.8742    2.0215 C   0  0  0  0  0  0  0  0  0  0  0  0
   18.3408   13.6110    0.5269 C   0  0  2  0  0  0  0  0  0  0  0  0
   18.3670   14.8791   -0.1367 O   0  0  0  0  0  0  0  0  0  0  0  0
   19.6969   12.8708    0.3754 C   0  0  0  0  0  0  0  0  0  0  0  0
   20.8815   13.5907    0.7909 N   0  0  0  0  0  0  0  0  0  0  0  0
   21.7939   14.5637    0.0046 C   0  0  0  0  0  0  0  0  0  0  0  0
   21.6873   14.9938   -1.0738 O   0  0  0  0  0  0  0  0  0  0  0  0
   23.0329   14.8702    0.8885 C   0  0  1  0  0  0  0  0  0  0  0  0
   23.8420   13.5835    1.1621 C   0  0  0  0  0  0  0  0  0  0  0  0
   23.9667   15.9276    0.2277 C   0  0  0  0  0  0  0  0  0  0  0  0
   23.9591   17.0592    1.2543 C   0  0  1  0  0  0  0  0  0  0  0  0
   22.6128   17.7785    1.2702 C   0  0  0  0  0  0  0  0  0  0  0  0
   21.7200   16.7697    1.9902 C   0  0  0  0  0  0  0  0  0  0  0  0
   22.6717   15.5918    2.2013 C   0  0  2  0  0  0  0  0  0  0  0  0
   23.8993   16.3075    2.4850 O   0  0  0  0  0  0  0  0  0  0  0  0
  1  2  1  0
  2  3  1  0
  3  4  2  0
  4  5  1  0
  5  6  2  0
  6  7  1  0
  7  8  2  0
  7  9  1  0
  9 10  1  0
 10 11  1  0
 11 12  1  0
 12 13  1  6
 12 14  1  0
 14 15  1  0
 15 16  1  0
 16 17  2  0
 16 18  1  0
 18 19  1  1
 18 20  1  0
 21 20  1  6
 21 22  1  0
 22 23  1  0
 24 23  1  6
 24 25  1  0
  8  3  1  0
 24 18  1  0
 12  6  1  0
 25 21  1  0
M  END
>  <energy_score>  (340) 
-38.754529

>  <inchikey>  (340) 
None

>  <smiles>  (340) 
None

>  <ref_pdb>  (340) 
A0239a

>  <alias>  (340) 
None

>  <HIPPO Pose ID>  (340) 
497984

>  <name>  (340) 
P497984

>  <HIPPO Compound ID>  (340) 
290316

>  <ref_mols>  (340) 
A0239a,A0608a

>  <distance_score>  (340) 
1.5268

>  <inspiration_score>  (340) 
None

$$$$
P497985
     RDKit          3D

 25 28  0  0  0  0  0  0  0  0999 V2000
   16.8428    9.5637   -2.7719 C   0  0  0  0  0  0  0  0  0  0  0  0
   18.0709    9.7890   -2.0821 O   0  0  0  0  0  0  0  0  0  0  0  0
   18.0053   10.7176   -1.0826 C   0  0  0  0  0  0  0  0  0  0  0  0
   19.1907   11.3738   -0.7896 C   0  0  0  0  0  0  0  0  0  0  0  0
   19.2311   12.3630    0.1998 C   0  0  0  0  0  0  0  0  0  0  0  0
   18.0883   12.7369    0.9221 C   0  0  0  0  0  0  0  0  0  0  0  0
   16.8845   12.0668    0.6054 C   0  0  0  0  0  0  0  0  0  0  0  0
   16.8645   11.0397   -0.3592 C   0  0  0  0  0  0  0  0  0  0  0  0
   15.5772   12.3979    1.2755 C   0  0  0  0  0  0  0  0  0  0  0  0
   15.5618   13.7923    1.8724 C   0  0  0  0  0  0  0  0  0  0  0  0
   16.8003   13.9804    2.7318 C   0  0  0  0  0  0  0  0  0  0  0  0
   18.1095   13.9138    1.8989 C   0  0  2  0  0  0  0  0  0  0  0  0
   18.1114   15.1283    1.1345 O   0  0  0  0  0  0  0  0  0  0  0  0
   19.2482   13.9697    2.9683 C   0  0  0  0  0  0  0  0  0  0  0  0
   20.6317   14.1937    2.5946 N   0  0  0  0  0  0  0  0  0  0  0  0
   21.2372   14.9041    1.3595 C   0  0  0  0  0  0  0  0  0  0  0  0
   20.7181   15.3505    0.4145 O   0  0  0  0  0  0  0  0  0  0  0  0
   22.7725   14.9706    1.5516 C   0  0  2  0  0  0  0  0  0  0  0  0
   23.3870   13.5705    1.3603 C   0  0  0  0  0  0  0  0  0  0  0  0
   23.2485   15.5883    2.8855 C   0  0  0  0  0  0  0  0  0  0  0  0
   24.1446   16.7448    2.4339 C   0  0  2  0  0  0  0  0  0  0  0  0
   23.2917   17.9075    1.9446 C   0  0  0  0  0  0  0  0  0  0  0  0
   22.8058   17.3804    0.6015 C   0  0  0  0  0  0  0  0  0  0  0  0
   23.4031   15.9665    0.5553 C   0  0  1  0  0  0  0  0  0  0  0  0
   24.6792   16.2284    1.1995 O   0  0  0  0  0  0  0  0  0  0  0  0
  1  2  1  0
  2  3  1  0
  3  4  2  0
  4  5  1  0
  5  6  2  0
  6  7  1  0
  7  8  2  0
  7  9  1  0
  9 10  1  0
 10 11  1  0
 11 12  1  0
 12 13  1  6
 12 14  1  0
 14 15  1  0
 15 16  1  0
 16 17  2  0
 16 18  1  0
 18 19  1  6
 18 20  1  0
 21 20  1  6
 21 22  1  0
 22 23  1  0
 24 23  1  1
 24 25  1  0
  8  3  1  0
 24 18  1  0
 12  6  1  0
 25 21  1  0
M  END
>  <energy_score>  (341) 
-19.910072

>  <inchikey>  (341) 
None

>  <smiles>  (341) 
None

>  <ref_pdb>  (341) 
A0239a

>  <alias>  (341) 
None

>  <HIPPO Pose ID>  (341) 
497985

>  <name>  (341) 
P497985

>  <HIPPO Compound ID>  (341) 
290316

>  <ref_mols>  (341) 
A0239a,A0608a

>  <distance_score>  (341) 
1.586417

>  <inspiration_score>  (341) 
None

$$$$
P497986
     RDKit          3D

 25 28  0  0  0  0  0  0  0  0999 V2000
   16.5197    9.4006   -2.5004 C   0  0  0  0  0  0  0  0  0  0  0  0
   17.8025    9.6994   -1.9532 O   0  0  0  0  0  0  0  0  0  0  0  0
   17.8152   10.6667   -0.9887 C   0  0  0  0  0  0  0  0  0  0  0  0
   19.0401   11.2775   -0.7653 C   0  0  0  0  0  0  0  0  0  0  0  0
   19.1635   12.3067    0.1761 C   0  0  0  0  0  0  0  0  0  0  0  0
   18.0666   12.7667    0.9193 C   0  0  0  0  0  0  0  0  0  0  0  0
   16.8230   12.1394    0.6774 C   0  0  0  0  0  0  0  0  0  0  0  0
   16.7192   11.0758   -0.2405 C   0  0  0  0  0  0  0  0  0  0  0  0
   15.5579   12.5523    1.3822 C   0  0  0  0  0  0  0  0  0  0  0  0
   15.6258   13.9602    1.9408 C   0  0  0  0  0  0  0  0  0  0  0  0
   16.9115   14.1219    2.7342 C   0  0  0  0  0  0  0  0  0  0  0  0
   18.1728   13.9859    1.8377 C   0  0  2  0  0  0  0  0  0  0  0  0
   18.1673   15.1637    1.0178 O   0  0  0  0  0  0  0  0  0  0  0  0
   19.3682   14.0625    2.8403 C   0  0  0  0  0  0  0  0  0  0  0  0
   20.7358   14.2209    2.3837 N   0  0  0  0  0  0  0  0  0  0  0  0
   21.2964   14.8471    1.0792 C   0  0  0  0  0  0  0  0  0  0  0  0
   20.7405   15.2607    0.1393 O   0  0  0  0  0  0  0  0  0  0  0  0
   22.8390   14.9309    1.2220 C   0  0  1  0  0  0  0  0  0  0  0  0
   23.4843   13.5365    1.3238 C   0  0  0  0  0  0  0  0  0  0  0  0
   23.4837   15.7123    0.0394 C   0  0  0  0  0  0  0  0  0  0  0  0
   24.0698   16.9382    0.7397 C   0  0  1  0  0  0  0  0  0  0  0  0
   22.9671   17.8747    1.2301 C   0  0  0  0  0  0  0  0  0  0  0  0
   22.4524   17.1401    2.4645 C   0  0  0  0  0  0  0  0  0  0  0  0
   23.2438   15.8320    2.4108 C   0  0  2  0  0  0  0  0  0  0  0  0
   24.5281   16.3449    1.9741 O   0  0  0  0  0  0  0  0  0  0  0  0
  1  2  1  0
  2  3  1  0
  3  4  2  0
  4  5  1  0
  5  6  2  0
  6  7  1  0
  7  8  2  0
  7  9  1  0
  9 10  1  0
 10 11  1  0
 11 12  1  0
 12 13  1  6
 12 14  1  0
 14 15  1  0
 15 16  1  0
 16 17  2  0
 16 18  1  0
 18 19  1  1
 18 20  1  0
 21 20  1  6
 21 22  1  0
 22 23  1  0
 24 23  1  6
 24 25  1  0
  8  3  1  0
 24 18  1  0
 12  6  1  0
 25 21  1  0
M  END
>  <energy_score>  (342) 
-26.123856

>  <inchikey>  (342) 
None

>  <smiles>  (342) 
None

>  <ref_pdb>  (342) 
A0239a

>  <alias>  (342) 
None

>  <HIPPO Pose ID>  (342) 
497986

>  <name>  (342) 
P497986

>  <HIPPO Compound ID>  (342) 
290316

>  <ref_mols>  (342) 
A0239a,A0608a

>  <distance_score>  (342) 
1.372729

>  <inspiration_score>  (342) 
None

$$$$
P497987
     RDKit          3D

 25 28  0  0  0  0  0  0  0  0999 V2000
   13.6684    9.3487   -1.7513 C   0  0  0  0  0  0  0  0  0  0  0  0
   14.5647   10.2182   -2.4326 O   0  0  0  0  0  0  0  0  0  0  0  0
   15.3354   11.0280   -1.6466 C   0  0  0  0  0  0  0  0  0  0  0  0
   16.4317   11.5987   -2.2822 C   0  0  0  0  0  0  0  0  0  0  0  0
   17.3154   12.4156   -1.5728 C   0  0  0  0  0  0  0  0  0  0  0  0
   17.1348   12.6773   -0.2005 C   0  0  0  0  0  0  0  0  0  0  0  0
   15.9642   12.1886    0.4034 C   0  0  0  0  0  0  0  0  0  0  0  0
   15.0917   11.3434   -0.3125 C   0  0  0  0  0  0  0  0  0  0  0  0
   15.6053   12.5357    1.8190 C   0  0  0  0  0  0  0  0  0  0  0  0
   16.3883   13.7228    2.3593 C   0  0  0  0  0  0  0  0  0  0  0  0
   17.8732   13.5133    2.0936 C   0  0  0  0  0  0  0  0  0  0  0  0
   18.1690   13.4972    0.5804 C   0  0  2  0  0  0  0  0  0  0  0  0
   18.0790   14.8347    0.0791 O   0  0  0  0  0  0  0  0  0  0  0  0
   19.5810   12.9111    0.2868 C   0  0  0  0  0  0  0  0  0  0  0  0
   20.7226   13.4839    0.9649 N   0  0  0  0  0  0  0  0  0  0  0  0
   20.9460   14.9057    1.5285 C   0  0  0  0  0  0  0  0  0  0  0  0
   20.2165   15.8121    1.6023 O   0  0  0  0  0  0  0  0  0  0  0  0
   22.4216   14.9580    1.9648 C   0  0  1  0  0  0  0  0  0  0  0  0
   23.3897   14.6660    0.7926 C   0  0  0  0  0  0  0  0  0  0  0  0
   24.1087   16.0193    0.6282 C   0  0  1  0  0  0  0  0  0  0  0  0
   24.7924   16.2220   -0.7020 C   0  0  0  0  0  0  0  0  0  0  0  0
   23.0549   17.0465    1.0090 C   0  0  0  0  0  0  0  0  0  0  0  0
   22.8230   16.3939    2.3639 C   0  0  2  0  0  0  0  0  0  0  0  0
   24.2562   16.3785    2.8904 C   0  0  0  0  0  0  0  0  0  0  0  0
   25.0520   16.1171    1.7139 O   0  0  0  0  0  0  0  0  0  0  0  0
  1  2  1  0
  2  3  1  0
  3  4  2  0
  4  5  1  0
  5  6  2  0
  6  7  1  0
  7  8  2  0
  7  9  1  0
  9 10  1  0
 10 11  1  0
 11 12  1  0
 12 13  1  6
 12 14  1  0
 14 15  1  0
 15 16  1  0
 16 17  2  0
 18 16  1  6
 18 19  1  0
 19 20  1  0
 20 21  1  6
 20 22  1  0
 22 23  1  0
 23 24  1  1
 24 25  1  0
  8  3  1  0
 23 18  1  0
 12  6  1  0
 25 20  1  0
M  END
>  <energy_score>  (343) 
-22.226989

>  <inchikey>  (343) 
None

>  <smiles>  (343) 
None

>  <ref_pdb>  (343) 
A0239a

>  <alias>  (343) 
None

>  <HIPPO Pose ID>  (343) 
497987

>  <name>  (343) 
P497987

>  <HIPPO Compound ID>  (343) 
290317

>  <ref_mols>  (343) 
A0239a,A0608a

>  <distance_score>  (343) 
1.864533

>  <inspiration_score>  (343) 
None

$$$$
P497988
     RDKit          3D

 25 28  0  0  0  0  0  0  0  0999 V2000
   19.9710    9.5239   -2.7538 C   0  0  0  0  0  0  0  0  0  0  0  0
   18.8906    9.5049   -1.8267 O   0  0  0  0  0  0  0  0  0  0  0  0
   18.7263   10.6212   -1.0574 C   0  0  0  0  0  0  0  0  0  0  0  0
   19.6398   11.6543   -0.9243 C   0  0  0  0  0  0  0  0  0  0  0  0
   19.3811   12.7096   -0.0423 C   0  0  0  0  0  0  0  0  0  0  0  0
   18.2078   12.7788    0.7279 C   0  0  0  0  0  0  0  0  0  0  0  0
   17.2407   11.7788    0.5067 C   0  0  0  0  0  0  0  0  0  0  0  0
   17.5289   10.6955   -0.3493 C   0  0  0  0  0  0  0  0  0  0  0  0
   15.8822   11.8170    1.1585 C   0  0  0  0  0  0  0  0  0  0  0  0
   15.5216   13.1964    1.6892 C   0  0  0  0  0  0  0  0  0  0  0  0
   16.6727   13.7320    2.5251 C   0  0  0  0  0  0  0  0  0  0  0  0
   17.9492   13.9520    1.6743 C   0  0  2  0  0  0  0  0  0  0  0  0
   17.6547   15.1079    0.8791 O   0  0  0  0  0  0  0  0  0  0  0  0
   19.0725   14.2713    2.7160 C   0  0  0  0  0  0  0  0  0  0  0  0
   20.3810   14.6576    2.2353 N   0  0  0  0  0  0  0  0  0  0  0  0
   20.7876   15.6193    1.1002 C   0  0  0  0  0  0  0  0  0  0  0  0
   20.1343   16.3099    0.4248 O   0  0  0  0  0  0  0  0  0  0  0  0
   22.3163   15.6478    0.9559 C   0  0  2  0  0  0  0  0  0  0  0  0
   23.1505   14.3528    1.0681 C   0  0  0  0  0  0  0  0  0  0  0  0
   24.2559   14.8028    2.0409 C   0  0  2  0  0  0  0  0  0  0  0  0
   25.1122   13.6900    2.5934 C   0  0  0  0  0  0  0  0  0  0  0  0
   23.4922   15.6334    3.0587 C   0  0  0  0  0  0  0  0  0  0  0  0
   22.9720   16.5809    1.9975 C   0  0  1  0  0  0  0  0  0  0  0  0
   24.3068   17.0236    1.4059 C   0  0  0  0  0  0  0  0  0  0  0  0
   25.0584   15.7924    1.3448 O   0  0  0  0  0  0  0  0  0  0  0  0
  1  2  1  0
  2  3  1  0
  3  4  2  0
  4  5  1  0
  5  6  2  0
  6  7  1  0
  7  8  2  0
  7  9  1  0
  9 10  1  0
 10 11  1  0
 11 12  1  0
 12 13  1  6
 12 14  1  0
 14 15  1  0
 15 16  1  0
 16 17  2  0
 18 16  1  1
 18 19  1  0
 19 20  1  0
 20 21  1  1
 20 22  1  0
 22 23  1  0
 23 24  1  6
 24 25  1  0
  8  3  1  0
 23 18  1  0
 12  6  1  0
 25 20  1  0
M  END
>  <energy_score>  (344) 
-35.465027

>  <inchikey>  (344) 
None

>  <smiles>  (344) 
None

>  <ref_pdb>  (344) 
A0239a

>  <alias>  (344) 
None

>  <HIPPO Pose ID>  (344) 
497988

>  <name>  (344) 
P497988

>  <HIPPO Compound ID>  (344) 
290317

>  <ref_mols>  (344) 
A0239a,A0608a

>  <distance_score>  (344) 
1.922598

>  <inspiration_score>  (344) 
None

$$$$
P497989
     RDKit          3D

 25 28  0  0  0  0  0  0  0  0999 V2000
   16.8070    9.5064   -2.8348 C   0  0  0  0  0  0  0  0  0  0  0  0
   18.0332    9.7897   -2.1628 O   0  0  0  0  0  0  0  0  0  0  0  0
   17.9405   10.7246   -1.1711 C   0  0  0  0  0  0  0  0  0  0  0  0
   19.0969   11.4468   -0.9124 C   0  0  0  0  0  0  0  0  0  0  0  0
   19.0965   12.4650    0.0455 C   0  0  0  0  0  0  0  0  0  0  0  0
   17.9401   12.7851    0.7782 C   0  0  0  0  0  0  0  0  0  0  0  0
   16.7738   12.0365    0.5137 C   0  0  0  0  0  0  0  0  0  0  0  0
   16.7959   10.9920   -0.4289 C   0  0  0  0  0  0  0  0  0  0  0  0
   15.4760   12.2982    1.2301 C   0  0  0  0  0  0  0  0  0  0  0  0
   15.3737   13.7204    1.7539 C   0  0  0  0  0  0  0  0  0  0  0  0
   16.6166   14.0509    2.5621 C   0  0  0  0  0  0  0  0  0  0  0  0
   17.8970   14.0061    1.6988 C   0  0  2  0  0  0  0  0  0  0  0  0
   17.8691   15.1783    0.8556 O   0  0  0  0  0  0  0  0  0  0  0  0
   19.0703   14.1853    2.6900 C   0  0  0  0  0  0  0  0  0  0  0  0
   20.3423   14.4846    2.0893 N   0  0  0  0  0  0  0  0  0  0  0  0
   21.7731   14.3047    2.6335 C   0  0  0  0  0  0  0  0  0  0  0  0
   22.1479   13.8163    3.6190 O   0  0  0  0  0  0  0  0  0  0  0  0
   22.7183   14.8792    1.5817 C   0  0  2  0  0  0  0  0  0  0  0  0
   24.1912   14.4740    1.8122 C   0  0  0  0  0  0  0  0  0  0  0  0
   24.8412   15.8394    2.1061 C   0  0  2  0  0  0  0  0  0  0  0  0
   26.1953   15.7716    2.7683 C   0  0  0  0  0  0  0  0  0  0  0  0
   23.7595   16.6059    2.8530 C   0  0  0  0  0  0  0  0  0  0  0  0
   22.7577   16.4129    1.7293 C   0  0  1  0  0  0  0  0  0  0  0  0
   23.5668   16.9827    0.5711 C   0  0  0  0  0  0  0  0  0  0  0  0
   24.9123   16.5454    0.8405 O   0  0  0  0  0  0  0  0  0  0  0  0
  1  2  1  0
  2  3  1  0
  3  4  2  0
  4  5  1  0
  5  6  2  0
  6  7  1  0
  7  8  2  0
  7  9  1  0
  9 10  1  0
 10 11  1  0
 11 12  1  0
 12 13  1  6
 12 14  1  0
 14 15  1  0
 15 16  1  0
 16 17  2  0
 18 16  1  1
 18 19  1  0
 19 20  1  0
 20 21  1  1
 20 22  1  0
 22 23  1  0
 23 24  1  6
 24 25  1  0
  8  3  1  0
 23 18  1  0
 12  6  1  0
 25 20  1  0
M  END
>  <energy_score>  (345) 
-33.025837

>  <inchikey>  (345) 
None

>  <smiles>  (345) 
None

>  <ref_pdb>  (345) 
A0239a

>  <alias>  (345) 
None

>  <HIPPO Pose ID>  (345) 
497989

>  <name>  (345) 
P497989

>  <HIPPO Compound ID>  (345) 
290317

>  <ref_mols>  (345) 
A0239a,A0608a

>  <distance_score>  (345) 
1.776537

>  <inspiration_score>  (345) 
None

$$$$
P497990
     RDKit          3D

 25 29  0  0  0  0  0  0  0  0999 V2000
   24.2154   11.1733   -2.5288 C   0  0  0  0  0  0  0  0  0  0  0  0
   23.8248   12.4315   -1.9916 O   0  0  0  0  0  0  0  0  0  0  0  0
   24.1094   12.6629   -0.6769 C   0  0  0  0  0  0  0  0  0  0  0  0
   24.9059   11.8489    0.1235 C   0  0  0  0  0  0  0  0  0  0  0  0
   25.0636   12.1500    1.4706 C   0  0  0  0  0  0  0  0  0  0  0  0
   24.3683   13.2212    2.0287 C   0  0  0  0  0  0  0  0  0  0  0  0
   23.5733   14.0675    1.2293 C   0  0  0  0  0  0  0  0  0  0  0  0
   23.5344   13.8309   -0.1514 C   0  0  0  0  0  0  0  0  0  0  0  0
   22.8986   14.8350   -1.0932 C   0  0  0  0  0  0  0  0  0  0  0  0
   22.9103   16.2499   -0.5104 C   0  0  0  0  0  0  0  0  0  0  0  0
   22.1632   16.2184    0.8033 C   0  0  0  0  0  0  0  0  0  0  0  0
   22.8552   15.2784    1.8141 C   0  0  2  0  0  0  0  0  0  0  0  0
   23.8832   16.1076    2.4074 O   0  0  0  0  0  0  0  0  0  0  0  0
   21.8327   14.9193    2.9211 C   0  0  0  0  0  0  0  0  0  0  0  0
   20.4586   14.5292    2.6015 N   0  0  0  0  0  0  0  0  0  0  0  0
   19.4971   13.5774    3.3285 C   0  0  0  0  0  0  0  0  0  0  0  0
   19.6696   12.8927    4.2538 O   0  0  0  0  0  0  0  0  0  0  0  0
   18.0774   13.6216    2.7642 C   0  0  1  0  0  0  0  0  0  0  0  0
   17.5146   14.9813    2.3307 C   0  0  0  0  0  0  0  0  0  0  0  0
   17.0003   14.6444    0.9327 C   0  0  1  0  0  0  0  0  0  0  0  0
   18.0491   13.7434    0.4942 O   0  0  0  0  0  0  0  0  0  0  0  0
   17.8675   12.7426    1.5220 C   0  0  2  0  0  0  0  0  0  0  0  0
   16.3843   12.4204    1.4107 C   0  0  2  0  0  0  0  0  0  0  0  0
   15.5825   12.5541    0.1379 C   0  0  0  0  0  0  0  0  0  0  0  0
   15.7907   13.7388    1.0444 C   0  0  2  0  0  0  0  0  0  0  0  0
  1  2  1  0
  2  3  1  0
  3  4  2  0
  4  5  1  0
  5  6  2  0
  6  7  1  0
  7  8  2  0
  8  9  1  0
  9 10  1  0
 10 11  1  0
 11 12  1  0
 12 13  1  1
 12 14  1  0
 14 15  1  0
 15 16  1  0
 16 17  2  0
 18 16  1  6
 18 19  1  0
 20 19  1  1
 20 21  1  0
 22 21  1  6
 22 23  1  0
 23 24  1  6
 25 24  1  6
  8  3  1  0
 22 18  1  0
 25 23  1  0
 12  7  1  0
 25 20  1  0
M  END
>  <energy_score>  (346) 
-20.102934

>  <inchikey>  (346) 
None

>  <smiles>  (346) 
None

>  <ref_pdb>  (346) 
A0239a

>  <alias>  (346) 
None

>  <HIPPO Pose ID>  (346) 
497990

>  <name>  (346) 
P497990

>  <HIPPO Compound ID>  (346) 
290318

>  <ref_mols>  (346) 
A0239a,A0608a

>  <distance_score>  (346) 
1.899555

>  <inspiration_score>  (346) 
None

$$$$
P497991
     RDKit          3D

 25 29  0  0  0  0  0  0  0  0999 V2000
   22.8040   11.5389   -2.1906 C   0  0  0  0  0  0  0  0  0  0  0  0
   23.7747   12.5801   -2.0687 O   0  0  0  0  0  0  0  0  0  0  0  0
   24.1220   12.7458   -0.7589 C   0  0  0  0  0  0  0  0  0  0  0  0
   24.9820   11.8390   -0.1446 C   0  0  0  0  0  0  0  0  0  0  0  0
   25.2924   12.0031    1.1971 C   0  0  0  0  0  0  0  0  0  0  0  0
   24.6846   13.0293    1.9197 C   0  0  0  0  0  0  0  0  0  0  0  0
   23.8168   13.9529    1.2915 C   0  0  0  0  0  0  0  0  0  0  0  0
   23.6289   13.8655   -0.0875 C   0  0  0  0  0  0  0  0  0  0  0  0
   22.8960   14.9462   -0.8461 C   0  0  0  0  0  0  0  0  0  0  0  0
   22.9328   16.2930   -0.1198 C   0  0  0  0  0  0  0  0  0  0  0  0
   22.3331   16.1127    1.2582 C   0  0  0  0  0  0  0  0  0  0  0  0
   23.1140   15.0541    2.0696 C   0  0  2  0  0  0  0  0  0  0  0  0
   24.1612   15.8194    2.7089 O   0  0  0  0  0  0  0  0  0  0  0  0
   22.1968   14.4601    3.1664 C   0  0  0  0  0  0  0  0  0  0  0  0
   20.7818   14.1820    2.9066 N   0  0  0  0  0  0  0  0  0  0  0  0
   20.0838   13.5701    1.6523 C   0  0  0  0  0  0  0  0  0  0  0  0
   20.5240   13.2697    0.6136 O   0  0  0  0  0  0  0  0  0  0  0  0
   18.6223   13.3138    2.0460 C   0  0  1  0  0  0  0  0  0  0  0  0
   17.8627   14.6082    2.3878 C   0  0  0  0  0  0  0  0  0  0  0  0
   16.6921   14.5505    1.4084 C   0  0  1  0  0  0  0  0  0  0  0  0
   17.3614   13.9866    0.2594 O   0  0  0  0  0  0  0  0  0  0  0  0
   17.7820   12.7482    0.8767 C   0  0  2  0  0  0  0  0  0  0  0  0
   16.4658   12.2108    1.4144 C   0  0  2  0  0  0  0  0  0  0  0  0
   15.1209   12.5180    0.7934 C   0  0  0  0  0  0  0  0  0  0  0  0
   15.7356   13.4492    1.8080 C   0  0  2  0  0  0  0  0  0  0  0  0
  1  2  1  0
  2  3  1  0
  3  4  2  0
  4  5  1  0
  5  6  2  0
  6  7  1  0
  7  8  2  0
  8  9  1  0
  9 10  1  0
 10 11  1  0
 11 12  1  0
 12 13  1  1
 12 14  1  0
 14 15  1  0
 15 16  1  0
 16 17  2  0
 18 16  1  6
 18 19  1  0
 20 19  1  1
 20 21  1  0
 22 21  1  6
 22 23  1  0
 23 24  1  6
 25 24  1  6
  8  3  1  0
 22 18  1  0
 25 23  1  0
 12  7  1  0
 25 20  1  0
M  END
>  <energy_score>  (347) 
-19.054161

>  <inchikey>  (347) 
None

>  <smiles>  (347) 
None

>  <ref_pdb>  (347) 
A0239a

>  <alias>  (347) 
None

>  <HIPPO Pose ID>  (347) 
497991

>  <name>  (347) 
P497991

>  <HIPPO Compound ID>  (347) 
290318

>  <ref_mols>  (347) 
A0239a,A0608a

>  <distance_score>  (347) 
1.700271

>  <inspiration_score>  (347) 
None

$$$$
P497992
     RDKit          3D

 25 29  0  0  0  0  0  0  0  0999 V2000
   23.6392   11.0961   -2.4927 C   0  0  0  0  0  0  0  0  0  0  0  0
   23.1107   12.1182   -1.6562 O   0  0  0  0  0  0  0  0  0  0  0  0
   23.8438   12.4703   -0.5581 C   0  0  0  0  0  0  0  0  0  0  0  0
   24.9815   11.7994   -0.1087 C   0  0  0  0  0  0  0  0  0  0  0  0
   25.6183   12.2113    1.0583 C   0  0  0  0  0  0  0  0  0  0  0  0
   25.1164   13.2906    1.7829 C   0  0  0  0  0  0  0  0  0  0  0  0
   23.9872   13.9973    1.3298 C   0  0  0  0  0  0  0  0  0  0  0  0
   23.3600   13.5877    0.1403 C   0  0  0  0  0  0  0  0  0  0  0  0
   22.1218   14.3142   -0.3372 C   0  0  0  0  0  0  0  0  0  0  0  0
   22.1277   15.8268   -0.0915 C   0  0  0  0  0  0  0  0  0  0  0  0
   22.9588   16.2855    1.0929 C   0  0  0  0  0  0  0  0  0  0  0  0
   23.3838   15.1810    2.0701 C   0  0  2  0  0  0  0  0  0  0  0  0
   24.4089   15.8293    2.8442 O   0  0  0  0  0  0  0  0  0  0  0  0
   22.2346   14.7345    3.0189 C   0  0  0  0  0  0  0  0  0  0  0  0
   20.8411   14.8315    2.5950 N   0  0  0  0  0  0  0  0  0  0  0  0
   19.6343   13.9050    2.8873 C   0  0  0  0  0  0  0  0  0  0  0  0
   19.5848   12.8836    3.4460 O   0  0  0  0  0  0  0  0  0  0  0  0
   18.3699   14.5679    2.3874 C   0  0  1  0  0  0  0  0  0  0  0  0
   18.2640   14.8549    0.8862 C   0  0  0  0  0  0  0  0  0  0  0  0
   16.8169   14.4245    0.5856 C   0  0  2  0  0  0  0  0  0  0  0  0
   16.1929   14.6148    1.8780 O   0  0  0  0  0  0  0  0  0  0  0  0
   17.0868   13.7458    2.6233 C   0  0  1  0  0  0  0  0  0  0  0  0
   16.9895   12.4615    1.8207 C   0  0  1  0  0  0  0  0  0  0  0  0
   15.7260   12.0630    1.0877 C   0  0  0  0  0  0  0  0  0  0  0  0
   16.7721   12.9307    0.4304 C   0  0  1  0  0  0  0  0  0  0  0  0
  1  2  1  0
  2  3  1  0
  3  4  2  0
  4  5  1  0
  5  6  2  0
  6  7  1  0
  7  8  2  0
  8  9  1  0
  9 10  1  0
 10 11  1  0
 11 12  1  0
 12 13  1  1
 12 14  1  0
 14 15  1  0
 15 16  1  0
 16 17  2  0
 18 16  1  6
 18 19  1  0
 20 19  1  1
 20 21  1  0
 22 21  1  6
 22 23  1  0
 23 24  1  1
 25 24  1  1
  8  3  1  0
 22 18  1  0
 25 23  1  0
 12  7  1  0
 25 20  1  0
M  END
>  <energy_score>  (348) 
-23.656356

>  <inchikey>  (348) 
None

>  <smiles>  (348) 
None

>  <ref_pdb>  (348) 
A0239a

>  <alias>  (348) 
None

>  <HIPPO Pose ID>  (348) 
497992

>  <name>  (348) 
P497992

>  <HIPPO Compound ID>  (348) 
290318

>  <ref_mols>  (348) 
A0239a,A0608a

>  <distance_score>  (348) 
1.972823

>  <inspiration_score>  (348) 
None

$$$$
P497993
     RDKit          3D

 25 29  0  0  0  0  0  0  0  0999 V2000
   23.3980   11.2566   -2.5470 C   0  0  0  0  0  0  0  0  0  0  0  0
   23.0922   12.4332   -1.8080 O   0  0  0  0  0  0  0  0  0  0  0  0
   23.8044   12.6557   -0.6631 C   0  0  0  0  0  0  0  0  0  0  0  0
   24.7978   11.8135   -0.1610 C   0  0  0  0  0  0  0  0  0  0  0  0
   25.4062   12.1004    1.0572 C   0  0  0  0  0  0  0  0  0  0  0  0
   24.9968   13.2110    1.7890 C   0  0  0  0  0  0  0  0  0  0  0  0
   24.0190   14.0898    1.2818 C   0  0  0  0  0  0  0  0  0  0  0  0
   23.4607   13.8305    0.0230 C   0  0  0  0  0  0  0  0  0  0  0  0
   22.4856   14.8202   -0.5722 C   0  0  0  0  0  0  0  0  0  0  0  0
   22.8632   16.2562   -0.2178 C   0  0  0  0  0  0  0  0  0  0  0  0
   23.0395   16.4986    1.2712 C   0  0  0  0  0  0  0  0  0  0  0  0
   23.4953   15.2670    2.0868 C   0  0  2  0  0  0  0  0  0  0  0  0
   24.6024   15.7461    2.8666 O   0  0  0  0  0  0  0  0  0  0  0  0
   22.3531   14.7707    3.0214 C   0  0  0  0  0  0  0  0  0  0  0  0
   20.9810   14.7211    2.5197 N   0  0  0  0  0  0  0  0  0  0  0  0
   19.7765   13.8609    2.9718 C   0  0  0  0  0  0  0  0  0  0  0  0
   19.6726   13.1167    3.8621 O   0  0  0  0  0  0  0  0  0  0  0  0
   18.5916   14.1618    2.0492 C   0  0  1  0  0  0  0  0  0  0  0  0
   18.8138   13.6442    0.6153 C   0  0  0  0  0  0  0  0  0  0  0  0
   17.6354   12.6841    0.4304 C   0  0  1  0  0  0  0  0  0  0  0  0
   17.5938   12.1016    1.7463 O   0  0  0  0  0  0  0  0  0  0  0  0
   17.3490   13.3331    2.4679 C   0  0  2  0  0  0  0  0  0  0  0  0
   16.1152   13.8783    1.7694 C   0  0  2  0  0  0  0  0  0  0  0  0
   15.0910   12.9965    1.0879 C   0  0  0  0  0  0  0  0  0  0  0  0
   16.3330   13.4536    0.3634 C   0  0  2  0  0  0  0  0  0  0  0  0
  1  2  1  0
  2  3  1  0
  3  4  2  0
  4  5  1  0
  5  6  2  0
  6  7  1  0
  7  8  2  0
  8  9  1  0
  9 10  1  0
 10 11  1  0
 11 12  1  0
 12 13  1  1
 12 14  1  0
 14 15  1  0
 15 16  1  0
 16 17  2  0
 18 16  1  1
 18 19  1  0
 20 19  1  1
 20 21  1  0
 22 21  1  6
 22 23  1  0
 23 24  1  1
 25 24  1  1
  8  3  1  0
 22 18  1  0
 25 23  1  0
 12  7  1  0
 25 20  1  0
M  END
>  <energy_score>  (349) 
-6.50855

>  <inchikey>  (349) 
None

>  <smiles>  (349) 
None

>  <ref_pdb>  (349) 
A0239a

>  <alias>  (349) 
None

>  <HIPPO Pose ID>  (349) 
497993

>  <name>  (349) 
P497993

>  <HIPPO Compound ID>  (349) 
290318

>  <ref_mols>  (349) 
A0239a,A0608a

>  <distance_score>  (349) 
1.84909

>  <inspiration_score>  (349) 
None

$$$$
P497994
     RDKit          3D

 25 29  0  0  0  0  0  0  0  0999 V2000
   23.8910   11.3785   -2.5280 C   0  0  0  0  0  0  0  0  0  0  0  0
   23.5072   12.5530   -1.8222 O   0  0  0  0  0  0  0  0  0  0  0  0
   24.0027   12.7150   -0.5584 C   0  0  0  0  0  0  0  0  0  0  0  0
   24.9157   11.8586    0.0564 C   0  0  0  0  0  0  0  0  0  0  0  0
   25.3024   12.0850    1.3728 C   0  0  0  0  0  0  0  0  0  0  0  0
   24.7503   13.1457    2.0858 C   0  0  0  0  0  0  0  0  0  0  0  0
   23.8622   14.0466    1.4665 C   0  0  0  0  0  0  0  0  0  0  0  0
   23.5135   13.8468    0.1201 C   0  0  0  0  0  0  0  0  0  0  0  0
   22.6864   14.8589   -0.6599 C   0  0  0  0  0  0  0  0  0  0  0  0
   22.0846   16.0304    0.1189 C   0  0  0  0  0  0  0  0  0  0  0  0
   22.9166   16.3963    1.3230 C   0  0  0  0  0  0  0  0  0  0  0  0
   23.2204   15.1933    2.2315 C   0  0  2  0  0  0  0  0  0  0  0  0
   24.1504   15.7249    3.1811 O   0  0  0  0  0  0  0  0  0  0  0  0
   21.9495   14.7081    2.9923 C   0  0  0  0  0  0  0  0  0  0  0  0
   20.9085   14.0518    2.2178 N   0  0  0  0  0  0  0  0  0  0  0  0
   19.3742   13.9551    2.4649 C   0  0  0  0  0  0  0  0  0  0  0  0
   18.7077   14.4520    3.2842 O   0  0  0  0  0  0  0  0  0  0  0  0
   18.8044   13.1245    1.3201 C   0  0  2  0  0  0  0  0  0  0  0  0
   18.3199   14.0640    0.1978 C   0  0  0  0  0  0  0  0  0  0  0  0
   16.9165   13.5254   -0.0766 C   0  0  1  0  0  0  0  0  0  0  0  0
   17.1447   12.1168    0.1824 O   0  0  0  0  0  0  0  0  0  0  0  0
   17.5501   12.2679    1.5693 C   0  0  2  0  0  0  0  0  0  0  0  0
   16.3797   13.0339    2.1509 C   0  0  2  0  0  0  0  0  0  0  0  0
   14.9717   12.9414    1.5984 C   0  0  0  0  0  0  0  0  0  0  0  0
   15.9700   13.9181    1.0313 C   0  0  2  0  0  0  0  0  0  0  0  0
  1  2  1  0
  2  3  1  0
  3  4  2  0
  4  5  1  0
  5  6  2  0
  6  7  1  0
  7  8  2  0
  8  9  1  0
  9 10  1  0
 10 11  1  0
 11 12  1  0
 12 13  1  1
 12 14  1  0
 14 15  1  0
 15 16  1  0
 16 17  2  0
 18 16  1  1
 18 19  1  0
 20 19  1  1
 20 21  1  0
 22 21  1  6
 22 23  1  0
 23 24  1  6
 25 24  1  6
  8  3  1  0
 22 18  1  0
 25 23  1  0
 12  7  1  0
 25 20  1  0
M  END
>  <energy_score>  (350) 
-16.536753

>  <inchikey>  (350) 
None

>  <smiles>  (350) 
None

>  <ref_pdb>  (350) 
A0239a

>  <alias>  (350) 
None

>  <HIPPO Pose ID>  (350) 
497994

>  <name>  (350) 
P497994

>  <HIPPO Compound ID>  (350) 
290318

>  <ref_mols>  (350) 
A0239a,A0608a

>  <distance_score>  (350) 
1.969267

>  <inspiration_score>  (350) 
None

$$$$
P497995
     RDKit          3D

 25 29  0  0  0  0  0  0  0  0999 V2000
   23.0331   11.2744   -2.1464 C   0  0  0  0  0  0  0  0  0  0  0  0
   23.7289   12.5123   -1.9985 O   0  0  0  0  0  0  0  0  0  0  0  0
   24.1207   12.7192   -0.7065 C   0  0  0  0  0  0  0  0  0  0  0  0
   24.9752   11.8352   -0.0511 C   0  0  0  0  0  0  0  0  0  0  0  0
   25.3015   12.0615    1.2792 C   0  0  0  0  0  0  0  0  0  0  0  0
   24.7261   13.1370    1.9542 C   0  0  0  0  0  0  0  0  0  0  0  0
   23.8831   14.0507    1.2828 C   0  0  0  0  0  0  0  0  0  0  0  0
   23.6634   13.8829   -0.0852 C   0  0  0  0  0  0  0  0  0  0  0  0
   22.9187   14.9316   -0.8728 C   0  0  0  0  0  0  0  0  0  0  0  0
   23.1126   16.3210   -0.2628 C   0  0  0  0  0  0  0  0  0  0  0  0
   22.5588   16.3152    1.1447 C   0  0  0  0  0  0  0  0  0  0  0  0
   23.1897   15.1945    2.0111 C   0  0  2  0  0  0  0  0  0  0  0  0
   24.1995   15.8857    2.7718 O   0  0  0  0  0  0  0  0  0  0  0  0
   22.1213   14.6291    2.9845 C   0  0  0  0  0  0  0  0  0  0  0  0
   20.7367   14.5298    2.5239 N   0  0  0  0  0  0  0  0  0  0  0  0
   20.1131   13.6867    1.3775 C   0  0  0  0  0  0  0  0  0  0  0  0
   20.5965   12.8870    0.6783 O   0  0  0  0  0  0  0  0  0  0  0  0
   18.6104   14.0274    1.2715 C   0  0  2  0  0  0  0  0  0  0  0  0
   17.8643   14.1647    2.6150 C   0  0  0  0  0  0  0  0  0  0  0  0
   16.8123   13.0717    2.5230 C   0  0  2  0  0  0  0  0  0  0  0  0
   17.5765   12.0561    1.8460 O   0  0  0  0  0  0  0  0  0  0  0  0
   17.8490   12.8276    0.6462 C   0  0  1  0  0  0  0  0  0  0  0  0
   16.4331   13.1735    0.2142 C   0  0  2  0  0  0  0  0  0  0  0  0
   15.6744   14.4403    0.5059 C   0  0  0  0  0  0  0  0  0  0  0  0
   15.7169   13.3430    1.5281 C   0  0  2  0  0  0  0  0  0  0  0  0
  1  2  1  0
  2  3  1  0
  3  4  2  0
  4  5  1  0
  5  6  2  0
  6  7  1  0
  7  8  2  0
  8  9  1  0
  9 10  1  0
 10 11  1  0
 11 12  1  0
 12 13  1  1
 12 14  1  0
 14 15  1  0
 15 16  1  0
 16 17  2  0
 18 16  1  1
 18 19  1  0
 20 19  1  6
 20 21  1  0
 22 21  1  1
 22 23  1  0
 23 24  1  1
 25 24  1  1
  8  3  1  0
 22 18  1  0
 25 23  1  0
 12  7  1  0
 25 20  1  0
M  END
>  <energy_score>  (351) 
-14.470152

>  <inchikey>  (351) 
None

>  <smiles>  (351) 
None

>  <ref_pdb>  (351) 
A0239a

>  <alias>  (351) 
None

>  <HIPPO Pose ID>  (351) 
497995

>  <name>  (351) 
P497995

>  <HIPPO Compound ID>  (351) 
290318

>  <ref_mols>  (351) 
A0239a,A0608a

>  <distance_score>  (351) 
1.646868

>  <inspiration_score>  (351) 
None

$$$$
P497996
     RDKit          3D

 25 28  0  0  0  0  0  0  0  0999 V2000
   15.9128   17.7794    4.3101 C   0  0  0  0  0  0  0  0  0  0  0  0
   14.9592   16.7274    4.2030 O   0  0  0  0  0  0  0  0  0  0  0  0
   15.3231   15.6477    3.4472 C   0  0  0  0  0  0  0  0  0  0  0  0
   14.2713   14.8265    3.0619 C   0  0  0  0  0  0  0  0  0  0  0  0
   14.5037   13.6894    2.2928 C   0  0  0  0  0  0  0  0  0  0  0  0
   15.8043   13.3527    1.8924 C   0  0  0  0  0  0  0  0  0  0  0  0
   16.8910   14.1594    2.2868 C   0  0  0  0  0  0  0  0  0  0  0  0
   16.6191   15.3193    3.0518 C   0  0  0  0  0  0  0  0  0  0  0  0
   18.3081   13.8998    1.7596 C   0  0  1  0  0  0  0  0  0  0  0  0
   18.4399   14.9069    0.7486 O   0  0  0  0  0  0  0  0  0  0  0  0
   19.3912   14.0983    2.8675 C   0  0  0  0  0  0  0  0  0  0  0  0
   20.7935   14.1838    2.4863 N   0  0  0  0  0  0  0  0  0  0  0  0
   21.4481   14.4848    1.1101 C   0  0  0  0  0  0  0  0  0  0  0  0
   20.9626   14.6332    0.0575 O   0  0  0  0  0  0  0  0  0  0  0  0
   22.9709   14.6898    1.3293 C   0  0  1  0  0  0  0  0  0  0  0  0
   23.6656   13.3660    1.6636 C   0  0  0  0  0  0  0  0  0  0  0  0
   23.6453   15.3358    0.0810 C   0  0  0  0  0  0  0  0  0  0  0  0
   24.1328   16.6798    0.6266 C   0  0  1  0  0  0  0  0  0  0  0  0
   22.9657   17.6170    0.9345 C   0  0  0  0  0  0  0  0  0  0  0  0
   22.4198   17.0306    2.2324 C   0  0  0  0  0  0  0  0  0  0  0  0
   23.2743   15.7721    2.3948 C   0  0  2  0  0  0  0  0  0  0  0  0
   24.5540   16.2857    1.9478 O   0  0  0  0  0  0  0  0  0  0  0  0
   18.4519   12.4996    1.1292 C   0  0  0  0  0  0  0  0  0  0  0  0
   17.2719   12.1575    0.2281 C   0  0  0  0  0  0  0  0  0  0  0  0
   15.9878   12.1216    1.0421 C   0  0  0  0  0  0  0  0  0  0  0  0
  1  2  1  0
  2  3  1  0
  3  4  2  0
  4  5  1  0
  5  6  2  0
  6  7  1  0
  7  8  2  0
  7  9  1  0
  9 10  1  6
  9 11  1  0
 11 12  1  0
 12 13  1  0
 13 14  2  0
 13 15  1  0
 15 16  1  1
 15 17  1  0
 18 17  1  6
 18 19  1  0
 19 20  1  0
 21 20  1  6
 21 22  1  0
  9 23  1  0
 23 24  1  0
 24 25  1  0
  8  3  1  0
 21 15  1  0
 25  6  1  0
 22 18  1  0
M  END
>  <energy_score>  (352) 
-24.824744

>  <inchikey>  (352) 
None

>  <smiles>  (352) 
None

>  <ref_pdb>  (352) 
A0239a

>  <alias>  (352) 
None

>  <HIPPO Pose ID>  (352) 
497996

>  <name>  (352) 
P497996

>  <HIPPO Compound ID>  (352) 
290320

>  <ref_mols>  (352) 
A0239a,A0608a

>  <distance_score>  (352) 
1.419057

>  <inspiration_score>  (352) 
None

$$$$
P497997
     RDKit          3D

 25 28  0  0  0  0  0  0  0  0999 V2000
   13.9526   17.3002    4.3908 C   0  0  0  0  0  0  0  0  0  0  0  0
   15.2473   16.7320    4.2388 O   0  0  0  0  0  0  0  0  0  0  0  0
   15.3356   15.6129    3.4589 C   0  0  0  0  0  0  0  0  0  0  0  0
   14.2729   14.8249    3.0417 C   0  0  0  0  0  0  0  0  0  0  0  0
   14.5068   13.6934    2.2598 C   0  0  0  0  0  0  0  0  0  0  0  0
   15.8083   13.3417    1.8697 C   0  0  0  0  0  0  0  0  0  0  0  0
   16.9006   14.1277    2.2841 C   0  0  0  0  0  0  0  0  0  0  0  0
   16.6308   15.2667    3.0724 C   0  0  0  0  0  0  0  0  0  0  0  0
   18.3159   13.8721    1.7557 C   0  0  1  0  0  0  0  0  0  0  0  0
   18.4403   14.8690    0.7336 O   0  0  0  0  0  0  0  0  0  0  0  0
   19.4008   14.0855    2.8587 C   0  0  0  0  0  0  0  0  0  0  0  0
   20.8027   14.1722    2.4768 N   0  0  0  0  0  0  0  0  0  0  0  0
   21.4562   14.4711    1.0999 C   0  0  0  0  0  0  0  0  0  0  0  0
   20.9702   14.6165    0.0472 O   0  0  0  0  0  0  0  0  0  0  0  0
   22.9786   14.6787    1.3190 C   0  0  1  0  0  0  0  0  0  0  0  0
   23.6756   13.3563    1.6535 C   0  0  0  0  0  0  0  0  0  0  0  0
   23.6517   15.3265    0.0710 C   0  0  0  0  0  0  0  0  0  0  0  0
   24.1366   16.6714    0.6170 C   0  0  1  0  0  0  0  0  0  0  0  0
   22.9679   17.6065    0.9251 C   0  0  0  0  0  0  0  0  0  0  0  0
   22.4231   17.0188    2.2228 C   0  0  0  0  0  0  0  0  0  0  0  0
   23.2798   15.7617    2.3848 C   0  0  2  0  0  0  0  0  0  0  0  0
   24.5586   16.2780    1.9382 O   0  0  0  0  0  0  0  0  0  0  0  0
   18.4576   12.4683    1.1342 C   0  0  0  0  0  0  0  0  0  0  0  0
   17.2849   12.1317    0.2203 C   0  0  0  0  0  0  0  0  0  0  0  0
   15.9873   12.1137    1.0140 C   0  0  0  0  0  0  0  0  0  0  0  0
  1  2  1  0
  2  3  1  0
  3  4  2  0
  4  5  1  0
  5  6  2  0
  6  7  1  0
  7  8  2  0
  7  9  1  0
  9 10  1  6
  9 11  1  0
 11 12  1  0
 12 13  1  0
 13 14  2  0
 13 15  1  0
 15 16  1  1
 15 17  1  0
 18 17  1  6
 18 19  1  0
 19 20  1  0
 21 20  1  6
 21 22  1  0
  9 23  1  0
 23 24  1  0
 24 25  1  0
  8  3  1  0
 21 15  1  0
 25  6  1  0
 22 18  1  0
M  END
>  <energy_score>  (353) 
-19.301954

>  <inchikey>  (353) 
None

>  <smiles>  (353) 
None

>  <ref_pdb>  (353) 
A0239a

>  <alias>  (353) 
None

>  <HIPPO Pose ID>  (353) 
497997

>  <name>  (353) 
P497997

>  <HIPPO Compound ID>  (353) 
290320

>  <ref_mols>  (353) 
A0239a,A0608a

>  <distance_score>  (353) 
1.381736

>  <inspiration_score>  (353) 
None

$$$$
P497998
     RDKit          3D

 25 28  0  0  0  0  0  0  0  0999 V2000
   13.8218   17.2375    4.3573 C   0  0  0  0  0  0  0  0  0  0  0  0
   15.1299   16.7124    4.1729 O   0  0  0  0  0  0  0  0  0  0  0  0
   15.2405   15.5896    3.4017 C   0  0  0  0  0  0  0  0  0  0  0  0
   14.1921   14.8035    2.9465 C   0  0  0  0  0  0  0  0  0  0  0  0
   14.4509   13.6668    2.1798 C   0  0  0  0  0  0  0  0  0  0  0  0
   15.7645   13.3095    1.8394 C   0  0  0  0  0  0  0  0  0  0  0  0
   16.8428   14.0918    2.2928 C   0  0  0  0  0  0  0  0  0  0  0  0
   16.5473   15.2382    3.0620 C   0  0  0  0  0  0  0  0  0  0  0  0
   18.2792   13.8230    1.8322 C   0  0  1  0  0  0  0  0  0  0  0  0
   18.4760   14.8407    0.8424 O   0  0  0  0  0  0  0  0  0  0  0  0
   19.3001   13.9904    3.0026 C   0  0  0  0  0  0  0  0  0  0  0  0
   20.7174   14.1318    2.7082 N   0  0  0  0  0  0  0  0  0  0  0  0
   21.4441   14.4067    1.3682 C   0  0  0  0  0  0  0  0  0  0  0  0
   21.0230   14.4852    0.2813 O   0  0  0  0  0  0  0  0  0  0  0  0
   22.9373   14.7012    1.6618 C   0  0  2  0  0  0  0  0  0  0  0  0
   23.7109   13.3776    1.7329 C   0  0  0  0  0  0  0  0  0  0  0  0
   23.2639   15.5938    2.8849 C   0  0  0  0  0  0  0  0  0  0  0  0
   24.0644   16.7525    2.2812 C   0  0  2  0  0  0  0  0  0  0  0  0
   23.1259   17.7199    1.5744 C   0  0  0  0  0  0  0  0  0  0  0  0
   22.7416   16.9132    0.3403 C   0  0  0  0  0  0  0  0  0  0  0  0
   23.5115   15.5958    0.5390 C   0  0  1  0  0  0  0  0  0  0  0  0
   24.7148   16.1082    1.1706 O   0  0  0  0  0  0  0  0  0  0  0  0
   18.4358   12.4315    1.1862 C   0  0  0  0  0  0  0  0  0  0  0  0
   17.2912   12.1149    0.2309 C   0  0  0  0  0  0  0  0  0  0  0  0
   15.9719   12.0838    0.9876 C   0  0  0  0  0  0  0  0  0  0  0  0
  1  2  1  0
  2  3  1  0
  3  4  2  0
  4  5  1  0
  5  6  2  0
  6  7  1  0
  7  8  2  0
  7  9  1  0
  9 10  1  6
  9 11  1  0
 11 12  1  0
 12 13  1  0
 13 14  2  0
 13 15  1  0
 15 16  1  1
 15 17  1  0
 18 17  1  6
 18 19  1  0
 19 20  1  0
 21 20  1  1
 21 22  1  0
  9 23  1  0
 23 24  1  0
 24 25  1  0
  8  3  1  0
 21 15  1  0
 25  6  1  0
 22 18  1  0
M  END
>  <energy_score>  (354) 
-51.382333

>  <inchikey>  (354) 
None

>  <smiles>  (354) 
None

>  <ref_pdb>  (354) 
A0239a

>  <alias>  (354) 
None

>  <HIPPO Pose ID>  (354) 
497998

>  <name>  (354) 
P497998

>  <HIPPO Compound ID>  (354) 
290320

>  <ref_mols>  (354) 
A0239a,A0608a

>  <distance_score>  (354) 
1.542448

>  <inspiration_score>  (354) 
None

$$$$
P497999
     RDKit          3D

 25 28  0  0  0  0  0  0  0  0999 V2000
   13.9727   17.3315    4.3829 C   0  0  0  0  0  0  0  0  0  0  0  0
   15.2681   16.7714    4.2094 O   0  0  0  0  0  0  0  0  0  0  0  0
   15.3496   15.6431    3.4423 C   0  0  0  0  0  0  0  0  0  0  0  0
   14.2834   14.8515    3.0408 C   0  0  0  0  0  0  0  0  0  0  0  0
   14.5114   13.7133    2.2666 C   0  0  0  0  0  0  0  0  0  0  0  0
   15.8104   13.3556    1.8728 C   0  0  0  0  0  0  0  0  0  0  0  0
   16.9067   14.1413    2.2771 C   0  0  0  0  0  0  0  0  0  0  0  0
   16.6421   15.2909    3.0515 C   0  0  0  0  0  0  0  0  0  0  0  0
   18.3233   13.8687    1.7594 C   0  0  1  0  0  0  0  0  0  0  0  0
   18.4727   14.8600    0.7353 O   0  0  0  0  0  0  0  0  0  0  0  0
   19.4000   14.0703    2.8733 C   0  0  0  0  0  0  0  0  0  0  0  0
   20.8046   14.1744    2.5067 N   0  0  0  0  0  0  0  0  0  0  0  0
   21.4711   14.4129    1.1242 C   0  0  0  0  0  0  0  0  0  0  0  0
   20.9977   14.4850    0.0583 O   0  0  0  0  0  0  0  0  0  0  0  0
   22.9826   14.6737    1.3588 C   0  0  1  0  0  0  0  0  0  0  0  0
   23.7130   13.3749    1.7167 C   0  0  0  0  0  0  0  0  0  0  0  0
   23.6531   15.3247    0.1122 C   0  0  0  0  0  0  0  0  0  0  0  0
   24.1087   16.6833    0.6511 C   0  0  1  0  0  0  0  0  0  0  0  0
   22.9193   17.6014    0.9268 C   0  0  0  0  0  0  0  0  0  0  0  0
   22.3575   17.0145    2.2175 C   0  0  0  0  0  0  0  0  0  0  0  0
   23.2376   15.7779    2.4140 C   0  0  2  0  0  0  0  0  0  0  0  0
   24.5142   16.3177    1.9862 O   0  0  0  0  0  0  0  0  0  0  0  0
   18.4531   12.4598    1.1452 C   0  0  0  0  0  0  0  0  0  0  0  0
   17.2794   12.1289    0.2306 C   0  0  0  0  0  0  0  0  0  0  0  0
   15.9818   12.1216    1.0244 C   0  0  0  0  0  0  0  0  0  0  0  0
  1  2  1  0
  2  3  1  0
  3  4  2  0
  4  5  1  0
  5  6  2  0
  6  7  1  0
  7  8  2  0
  7  9  1  0
  9 10  1  6
  9 11  1  0
 11 12  1  0
 12 13  1  0
 13 14  2  0
 13 15  1  0
 15 16  1  1
 15 17  1  0
 18 17  1  6
 18 19  1  0
 19 20  1  0
 21 20  1  6
 21 22  1  0
  9 23  1  0
 23 24  1  0
 24 25  1  0
  8  3  1  0
 21 15  1  0
 25  6  1  0
 22 18  1  0
M  END
>  <energy_score>  (355) 
-51.873829

>  <inchikey>  (355) 
None

>  <smiles>  (355) 
None

>  <ref_pdb>  (355) 
A0239a

>  <alias>  (355) 
None

>  <HIPPO Pose ID>  (355) 
497999

>  <name>  (355) 
P497999

>  <HIPPO Compound ID>  (355) 
290320

>  <ref_mols>  (355) 
A0239a,A0608a

>  <distance_score>  (355) 
1.469831

>  <inspiration_score>  (355) 
None

$$$$
P498000
     RDKit          3D

 25 28  0  0  0  0  0  0  0  0999 V2000
   22.3617   11.5118   -1.9412 C   0  0  0  0  0  0  0  0  0  0  0  0
   23.3405   12.5490   -2.0104 O   0  0  0  0  0  0  0  0  0  0  0  0
   23.9259   12.7376   -0.7890 C   0  0  0  0  0  0  0  0  0  0  0  0
   24.8390   11.8020   -0.3023 C   0  0  0  0  0  0  0  0  0  0  0  0
   25.4262   12.0022    0.9383 C   0  0  0  0  0  0  0  0  0  0  0  0
   25.0812   13.1271    1.6824 C   0  0  0  0  0  0  0  0  0  0  0  0
   24.1880   14.0997    1.1702 C   0  0  0  0  0  0  0  0  0  0  0  0
   23.6292   13.9181   -0.0978 C   0  0  0  0  0  0  0  0  0  0  0  0
   22.7829   14.9787   -0.7725 C   0  0  0  0  0  0  0  0  0  0  0  0
   22.2511   16.1044    0.1155 C   0  0  0  0  0  0  0  0  0  0  0  0
   23.2442   16.4960    1.1809 C   0  0  0  0  0  0  0  0  0  0  0  0
   23.7997   15.3121    1.9890 C   0  0  2  0  0  0  0  0  0  0  0  0
   25.0085   15.8600    2.5581 O   0  0  0  0  0  0  0  0  0  0  0  0
   22.8972   14.9007    3.1733 C   0  0  0  0  0  0  0  0  0  0  0  0
   21.4556   14.7928    3.0428 N   0  0  0  0  0  0  0  0  0  0  0  0
   20.6059   13.9598    2.0888 C   0  0  0  0  0  0  0  0  0  0  0  0
   20.9171   13.2822    1.2009 O   0  0  0  0  0  0  0  0  0  0  0  0
   19.1750   14.0246    2.5124 C   0  0  1  0  0  0  0  0  0  0  0  0
   18.3351   15.2303    2.1726 C   0  0  0  0  0  0  0  0  0  0  0  0
   18.0772   13.9216    1.4759 C   0  0  2  0  0  0  0  0  0  0  0  0
   16.8129   13.1834    1.7536 C   0  0  1  0  0  0  0  0  0  0  0  0
   15.6173   13.8178    1.0522 C   0  0  0  0  0  0  0  0  0  0  0  0
   14.7379   12.6282    0.7752 C   0  0  0  0  0  0  0  0  0  0  0  0
   15.7625   11.5625    0.4615 C   0  0  0  0  0  0  0  0  0  0  0  0
   16.9154   11.8426    1.2662 O   0  0  0  0  0  0  0  0  0  0  0  0
  1  2  1  0
  2  3  1  0
  3  4  2  0
  4  5  1  0
  5  6  2  0
  6  7  1  0
  7  8  2  0
  8  9  1  0
  9 10  1  0
 10 11  1  0
 11 12  1  0
 12 13  1  1
 12 14  1  0
 14 15  1  0
 15 16  1  0
 16 17  2  0
 18 16  1  6
 18 19  1  0
 20 19  1  1
 20 21  1  0
 21 22  1  6
 22 23  1  0
 23 24  1  0
 24 25  1  0
  8  3  1  0
 20 18  1  0
 25 21  1  0
 12  7  1  0
M  END
>  <energy_score>  (356) 
-47.318281

>  <inchikey>  (356) 
None

>  <smiles>  (356) 
None

>  <ref_pdb>  (356) 
A0239a

>  <alias>  (356) 
None

>  <HIPPO Pose ID>  (356) 
498000

>  <name>  (356) 
P498000

>  <HIPPO Compound ID>  (356) 
290322

>  <ref_mols>  (356) 
A0239a,A0608a

>  <distance_score>  (356) 
1.698225

>  <inspiration_score>  (356) 
None

$$$$
P498001
     RDKit          3D

 25 28  0  0  0  0  0  0  0  0999 V2000
   23.7425   11.2143   -2.4456 C   0  0  0  0  0  0  0  0  0  0  0  0
   23.4173   12.4394   -1.8011 O   0  0  0  0  0  0  0  0  0  0  0  0
   23.9618   12.6692   -0.5677 C   0  0  0  0  0  0  0  0  0  0  0  0
   24.8361   11.8062    0.0902 C   0  0  0  0  0  0  0  0  0  0  0  0
   25.2874   12.1166    1.3678 C   0  0  0  0  0  0  0  0  0  0  0  0
   24.8561   13.2842    1.9903 C   0  0  0  0  0  0  0  0  0  0  0  0
   24.0210   14.2008    1.3173 C   0  0  0  0  0  0  0  0  0  0  0  0
   23.5838   13.8923    0.0204 C   0  0  0  0  0  0  0  0  0  0  0  0
   22.8119   14.8832   -0.8311 C   0  0  0  0  0  0  0  0  0  0  0  0
   22.3299   16.1598   -0.1508 C   0  0  0  0  0  0  0  0  0  0  0  0
   23.2595   16.6108    0.9488 C   0  0  0  0  0  0  0  0  0  0  0  0
   23.6098   15.5118    1.9660 C   0  0  2  0  0  0  0  0  0  0  0  0
   24.7515   16.0682    2.6462 O   0  0  0  0  0  0  0  0  0  0  0  0
   22.5016   15.3237    3.0345 C   0  0  0  0  0  0  0  0  0  0  0  0
   21.1259   15.1406    2.6034 N   0  0  0  0  0  0  0  0  0  0  0  0
   20.0763   14.1230    3.0416 C   0  0  0  0  0  0  0  0  0  0  0  0
   20.1609   13.2177    3.7614 O   0  0  0  0  0  0  0  0  0  0  0  0
   18.7545   14.3293    2.3882 C   0  0  1  0  0  0  0  0  0  0  0  0
   18.5466   14.6760    0.9375 C   0  0  0  0  0  0  0  0  0  0  0  0
   18.3686   13.2511    1.3809 C   0  0  2  0  0  0  0  0  0  0  0  0
   17.0592   12.5428    1.3707 C   0  0  1  0  0  0  0  0  0  0  0  0
   15.8528   13.2971    1.9091 C   0  0  0  0  0  0  0  0  0  0  0  0
   14.7233   12.7123    1.0977 C   0  0  0  0  0  0  0  0  0  0  0  0
   15.3807   12.5312   -0.2472 C   0  0  0  0  0  0  0  0  0  0  0  0
   16.7497   12.2072    0.0084 O   0  0  0  0  0  0  0  0  0  0  0  0
  1  2  1  0
  2  3  1  0
  3  4  2  0
  4  5  1  0
  5  6  2  0
  6  7  1  0
  7  8  2  0
  8  9  1  0
  9 10  1  0
 10 11  1  0
 11 12  1  0
 12 13  1  1
 12 14  1  0
 14 15  1  0
 15 16  1  0
 16 17  2  0
 18 16  1  6
 18 19  1  0
 20 19  1  6
 20 21  1  0
 21 22  1  6
 22 23  1  0
 23 24  1  0
 24 25  1  0
  8  3  1  0
 20 18  1  0
 25 21  1  0
 12  7  1  0
M  END
>  <energy_score>  (357) 
-31.112004

>  <inchikey>  (357) 
None

>  <smiles>  (357) 
None

>  <ref_pdb>  (357) 
A0239a

>  <alias>  (357) 
None

>  <HIPPO Pose ID>  (357) 
498001

>  <name>  (357) 
P498001

>  <HIPPO Compound ID>  (357) 
290322

>  <ref_mols>  (357) 
A0239a,A0608a

>  <distance_score>  (357) 
1.668046

>  <inspiration_score>  (357) 
None

$$$$
P498002
     RDKit          3D

 25 28  0  0  0  0  0  0  0  0999 V2000
   23.6584   11.2339   -2.3936 C   0  0  0  0  0  0  0  0  0  0  0  0
   23.2065   12.3484   -1.6346 O   0  0  0  0  0  0  0  0  0  0  0  0
   23.8875   12.6453   -0.4866 C   0  0  0  0  0  0  0  0  0  0  0  0
   24.8643   11.8350    0.0913 C   0  0  0  0  0  0  0  0  0  0  0  0
   25.4266   12.1867    1.3145 C   0  0  0  0  0  0  0  0  0  0  0  0
   25.0185   13.3524    1.9579 C   0  0  0  0  0  0  0  0  0  0  0  0
   24.0857   14.2190    1.3560 C   0  0  0  0  0  0  0  0  0  0  0  0
   23.5219   13.8609    0.1197 C   0  0  0  0  0  0  0  0  0  0  0  0
   22.4828   14.7415   -0.5457 C   0  0  0  0  0  0  0  0  0  0  0  0
   22.5345   16.2383   -0.2219 C   0  0  0  0  0  0  0  0  0  0  0  0
   23.4593   16.6186    0.9142 C   0  0  0  0  0  0  0  0  0  0  0  0
   23.6787   15.5417    1.9859 C   0  0  2  0  0  0  0  0  0  0  0  0
   24.7770   16.0684    2.7495 O   0  0  0  0  0  0  0  0  0  0  0  0
   22.4760   15.4261    2.9520 C   0  0  0  0  0  0  0  0  0  0  0  0
   21.1651   15.1659    2.3922 N   0  0  0  0  0  0  0  0  0  0  0  0
   20.1333   14.1005    2.7407 C   0  0  0  0  0  0  0  0  0  0  0  0
   20.1297   13.3040    3.5835 O   0  0  0  0  0  0  0  0  0  0  0  0
   18.9873   14.1283    1.7853 C   0  0  2  0  0  0  0  0  0  0  0  0
   17.6846   14.8135    2.1263 C   0  0  0  0  0  0  0  0  0  0  0  0
   17.7576   13.3096    2.1480 C   0  0  1  0  0  0  0  0  0  0  0  0
   17.1241   12.4152    1.1295 C   0  0  1  0  0  0  0  0  0  0  0  0
   15.7780   11.8839    1.6042 C   0  0  0  0  0  0  0  0  0  0  0  0
   14.9326   11.8938    0.3593 C   0  0  0  0  0  0  0  0  0  0  0  0
   15.4727   13.1030   -0.3575 C   0  0  0  0  0  0  0  0  0  0  0  0
   16.8779   13.1309   -0.0902 O   0  0  0  0  0  0  0  0  0  0  0  0
  1  2  1  0
  2  3  1  0
  3  4  2  0
  4  5  1  0
  5  6  2  0
  6  7  1  0
  7  8  2  0
  8  9  1  0
  9 10  1  0
 10 11  1  0
 11 12  1  0
 12 13  1  1
 12 14  1  0
 14 15  1  0
 15 16  1  0
 16 17  2  0
 18 16  1  1
 18 19  1  0
 20 19  1  6
 20 21  1  0
 21 22  1  1
 22 23  1  0
 23 24  1  0
 24 25  1  0
  8  3  1  0
 20 18  1  0
 25 21  1  0
 12  7  1  0
M  END
>  <energy_score>  (358) 
-31.829172

>  <inchikey>  (358) 
None

>  <smiles>  (358) 
None

>  <ref_pdb>  (358) 
A0239a

>  <alias>  (358) 
None

>  <HIPPO Pose ID>  (358) 
498002

>  <name>  (358) 
P498002

>  <HIPPO Compound ID>  (358) 
290322

>  <ref_mols>  (358) 
A0239a,A0608a

>  <distance_score>  (358) 
1.88067

>  <inspiration_score>  (358) 
None

$$$$
P498003
     RDKit          3D

 25 28  0  0  0  0  0  0  0  0999 V2000
   23.4872   11.1540   -2.4894 C   0  0  0  0  0  0  0  0  0  0  0  0
   23.0520   12.2013   -1.6308 O   0  0  0  0  0  0  0  0  0  0  0  0
   23.8469   12.5034   -0.5609 C   0  0  0  0  0  0  0  0  0  0  0  0
   24.9759   11.7799   -0.1713 C   0  0  0  0  0  0  0  0  0  0  0  0
   25.6797   12.1434    0.9747 C   0  0  0  0  0  0  0  0  0  0  0  0
   25.2543   13.2280    1.7368 C   0  0  0  0  0  0  0  0  0  0  0  0
   24.1400   13.9872    1.3394 C   0  0  0  0  0  0  0  0  0  0  0  0
   23.4428   13.6263    0.1754 C   0  0  0  0  0  0  0  0  0  0  0  0
   22.2153   14.4154   -0.2156 C   0  0  0  0  0  0  0  0  0  0  0  0
   22.3293   15.9246    0.0288 C   0  0  0  0  0  0  0  0  0  0  0  0
   23.2013   16.3209    1.2099 C   0  0  0  0  0  0  0  0  0  0  0  0
   23.6156   15.1694    2.1378 C   0  0  2  0  0  0  0  0  0  0  0  0
   24.7151   15.7099    2.8869 O   0  0  0  0  0  0  0  0  0  0  0  0
   22.4873   14.6984    3.1024 C   0  0  0  0  0  0  0  0  0  0  0  0
   21.0985   15.0072    2.7848 N   0  0  0  0  0  0  0  0  0  0  0  0
   19.8378   14.1426    2.8884 C   0  0  0  0  0  0  0  0  0  0  0  0
   19.6918   13.0728    3.3146 O   0  0  0  0  0  0  0  0  0  0  0  0
   18.6466   14.8936    2.4049 C   0  0  1  0  0  0  0  0  0  0  0  0
   18.4779   15.1880    0.9395 C   0  0  0  0  0  0  0  0  0  0  0  0
   17.5103   14.2568    1.6118 C   0  0  1  0  0  0  0  0  0  0  0  0
   17.4390   12.8090    1.2033 C   0  0  2  0  0  0  0  0  0  0  0  0
   17.0128   12.6346   -0.2527 C   0  0  0  0  0  0  0  0  0  0  0  0
   15.5056   12.6120   -0.1649 C   0  0  0  0  0  0  0  0  0  0  0  0
   15.2938   11.8737    1.1311 C   0  0  0  0  0  0  0  0  0  0  0  0
   16.3936   12.2048    1.9867 O   0  0  0  0  0  0  0  0  0  0  0  0
  1  2  1  0
  2  3  1  0
  3  4  2  0
  4  5  1  0
  5  6  2  0
  6  7  1  0
  7  8  2  0
  8  9  1  0
  9 10  1  0
 10 11  1  0
 11 12  1  0
 12 13  1  1
 12 14  1  0
 14 15  1  0
 15 16  1  0
 16 17  2  0
 18 16  1  6
 18 19  1  0
 20 19  1  6
 20 21  1  0
 21 22  1  6
 22 23  1  0
 23 24  1  0
 24 25  1  0
  8  3  1  0
 20 18  1  0
 25 21  1  0
 12  7  1  0
M  END
>  <energy_score>  (359) 
-41.26532

>  <inchikey>  (359) 
None

>  <smiles>  (359) 
None

>  <ref_pdb>  (359) 
A0239a

>  <alias>  (359) 
None

>  <HIPPO Pose ID>  (359) 
498003

>  <name>  (359) 
P498003

>  <HIPPO Compound ID>  (359) 
290322

>  <ref_mols>  (359) 
A0239a,A0608a

>  <distance_score>  (359) 
1.7984

>  <inspiration_score>  (359) 
None

$$$$
P498004
     RDKit          3D

 25 28  0  0  0  0  0  0  0  0999 V2000
   24.2087   11.0950   -2.5263 C   0  0  0  0  0  0  0  0  0  0  0  0
   23.9271   12.3739   -1.9708 O   0  0  0  0  0  0  0  0  0  0  0  0
   24.3096   12.5894   -0.6779 C   0  0  0  0  0  0  0  0  0  0  0  0
   25.0900   11.7245    0.0839 C   0  0  0  0  0  0  0  0  0  0  0  0
   25.3431   12.0164    1.4197 C   0  0  0  0  0  0  0  0  0  0  0  0
   24.7571   13.1338    2.0096 C   0  0  0  0  0  0  0  0  0  0  0  0
   23.9746   14.0248    1.2493 C   0  0  0  0  0  0  0  0  0  0  0  0
   23.8495   13.7950   -0.1286 C   0  0  0  0  0  0  0  0  0  0  0  0
   23.2357   14.8330   -1.0482 C   0  0  0  0  0  0  0  0  0  0  0  0
   23.2629   16.2347   -0.4384 C   0  0  0  0  0  0  0  0  0  0  0  0
   22.5496   16.1613    0.8909 C   0  0  0  0  0  0  0  0  0  0  0  0
   23.3048   15.2405    1.8829 C   0  0  2  0  0  0  0  0  0  0  0  0
   24.3502   16.0841    2.4090 O   0  0  0  0  0  0  0  0  0  0  0  0
   22.3534   14.8383    3.0542 C   0  0  0  0  0  0  0  0  0  0  0  0
   20.9358   15.0881    2.8247 N   0  0  0  0  0  0  0  0  0  0  0  0
   19.7378   14.1384    2.8772 C   0  0  0  0  0  0  0  0  0  0  0  0
   19.6759   13.0213    3.1863 O   0  0  0  0  0  0  0  0  0  0  0  0
   18.4855   14.8373    2.4395 C   0  0  2  0  0  0  0  0  0  0  0  0
   17.2025   14.5643    3.1887 C   0  0  0  0  0  0  0  0  0  0  0  0
   17.3199   14.1370    1.7496 C   0  0  2  0  0  0  0  0  0  0  0  0
   17.2532   12.6764    1.3883 C   0  0  1  0  0  0  0  0  0  0  0  0
   15.9099   12.0615    1.7685 C   0  0  0  0  0  0  0  0  0  0  0  0
   15.0583   12.2963    0.5486 C   0  0  0  0  0  0  0  0  0  0  0  0
   16.0757   12.1057   -0.5482 C   0  0  0  0  0  0  0  0  0  0  0  0
   17.3308   12.5811   -0.0438 O   0  0  0  0  0  0  0  0  0  0  0  0
  1  2  1  0
  2  3  1  0
  3  4  2  0
  4  5  1  0
  5  6  2  0
  6  7  1  0
  7  8  2  0
  8  9  1  0
  9 10  1  0
 10 11  1  0
 11 12  1  0
 12 13  1  1
 12 14  1  0
 14 15  1  0
 15 16  1  0
 16 17  2  0
 18 16  1  1
 18 19  1  0
 20 19  1  1
 20 21  1  0
 21 22  1  6
 22 23  1  0
 23 24  1  0
 24 25  1  0
  8  3  1  0
 20 18  1  0
 25 21  1  0
 12  7  1  0
M  END
>  <energy_score>  (360) 
-40.054441

>  <inchikey>  (360) 
None

>  <smiles>  (360) 
None

>  <ref_pdb>  (360) 
A0239a

>  <alias>  (360) 
None

>  <HIPPO Pose ID>  (360) 
498004

>  <name>  (360) 
P498004

>  <HIPPO Compound ID>  (360) 
290322

>  <ref_mols>  (360) 
A0239a,A0608a

>  <distance_score>  (360) 
1.866774

>  <inspiration_score>  (360) 
None

$$$$
P498005
     RDKit          3D

 25 28  0  0  0  0  0  0  0  0999 V2000
   23.5635   11.1232   -2.4494 C   0  0  0  0  0  0  0  0  0  0  0  0
   23.0709   12.1765   -1.6304 O   0  0  0  0  0  0  0  0  0  0  0  0
   23.8028   12.5087   -0.5256 C   0  0  0  0  0  0  0  0  0  0  0  0
   24.8861   11.7767   -0.0372 C   0  0  0  0  0  0  0  0  0  0  0  0
   25.5147   12.1620    1.1436 C   0  0  0  0  0  0  0  0  0  0  0  0
   25.0749   13.2925    1.8267 C   0  0  0  0  0  0  0  0  0  0  0  0
   24.0294   14.0819    1.3106 C   0  0  0  0  0  0  0  0  0  0  0  0
   23.3812   13.6746    0.1335 C   0  0  0  0  0  0  0  0  0  0  0  0
   22.1844   14.4515   -0.3713 C   0  0  0  0  0  0  0  0  0  0  0  0
   22.2581   15.9685   -0.1779 C   0  0  0  0  0  0  0  0  0  0  0  0
   23.1962   16.4359    0.9169 C   0  0  0  0  0  0  0  0  0  0  0  0
   23.5871   15.3802    1.9623 C   0  0  2  0  0  0  0  0  0  0  0  0
   24.7195   15.9883    2.6155 O   0  0  0  0  0  0  0  0  0  0  0  0
   22.4973   15.1921    3.0432 C   0  0  0  0  0  0  0  0  0  0  0  0
   21.1033   15.0792    2.6451 N   0  0  0  0  0  0  0  0  0  0  0  0
   20.0243   14.0932    3.0819 C   0  0  0  0  0  0  0  0  0  0  0  0
   20.0899   13.1636    3.7717 O   0  0  0  0  0  0  0  0  0  0  0  0
   18.6846   14.3543    2.4913 C   0  0  1  0  0  0  0  0  0  0  0  0
   18.3327   14.8719    1.1247 C   0  0  0  0  0  0  0  0  0  0  0  0
   18.3172   13.3895    1.3669 C   0  0  2  0  0  0  0  0  0  0  0  0
   17.1143   12.5117    1.4500 C   0  0  1  0  0  0  0  0  0  0  0  0
   15.8121   13.1370    1.9380 C   0  0  0  0  0  0  0  0  0  0  0  0
   14.9631   13.2407    0.6942 C   0  0  0  0  0  0  0  0  0  0  0  0
   15.4493   12.0604   -0.1041 C   0  0  0  0  0  0  0  0  0  0  0  0
   16.8559   11.9976    0.1336 O   0  0  0  0  0  0  0  0  0  0  0  0
  1  2  1  0
  2  3  1  0
  3  4  2  0
  4  5  1  0
  5  6  2  0
  6  7  1  0
  7  8  2  0
  8  9  1  0
  9 10  1  0
 10 11  1  0
 11 12  1  0
 12 13  1  1
 12 14  1  0
 14 15  1  0
 15 16  1  0
 16 17  2  0
 18 16  1  6
 18 19  1  0
 20 19  1  6
 20 21  1  0
 21 22  1  6
 22 23  1  0
 23 24  1  0
 24 25  1  0
  8  3  1  0
 20 18  1  0
 25 21  1  0
 12  7  1  0
M  END
>  <energy_score>  (361) 
-22.298371

>  <inchikey>  (361) 
None

>  <smiles>  (361) 
None

>  <ref_pdb>  (361) 
A0239a

>  <alias>  (361) 
None

>  <HIPPO Pose ID>  (361) 
498005

>  <name>  (361) 
P498005

>  <HIPPO Compound ID>  (361) 
290322

>  <ref_mols>  (361) 
A0239a,A0608a

>  <distance_score>  (361) 
1.679413

>  <inspiration_score>  (361) 
None

$$$$
P498006
     RDKit          3D

 25 28  0  0  0  0  0  0  0  0999 V2000
   23.5650   11.1557   -2.4479 C   0  0  0  0  0  0  0  0  0  0  0  0
   23.1080   12.2225   -1.6251 O   0  0  0  0  0  0  0  0  0  0  0  0
   23.8553   12.5267   -0.5217 C   0  0  0  0  0  0  0  0  0  0  0  0
   24.9036   11.7480   -0.0299 C   0  0  0  0  0  0  0  0  0  0  0  0
   25.5422   12.1032    1.1549 C   0  0  0  0  0  0  0  0  0  0  0  0
   25.1452   13.2468    1.8417 C   0  0  0  0  0  0  0  0  0  0  0  0
   24.1390   14.0832    1.3222 C   0  0  0  0  0  0  0  0  0  0  0  0
   23.4869   13.7125    0.1342 C   0  0  0  0  0  0  0  0  0  0  0  0
   22.3463   14.5535   -0.3960 C   0  0  0  0  0  0  0  0  0  0  0  0
   22.4907   16.0626   -0.1844 C   0  0  0  0  0  0  0  0  0  0  0  0
   23.4158   16.4745    0.9458 C   0  0  0  0  0  0  0  0  0  0  0  0
   23.7437   15.3900    1.9871 C   0  0  2  0  0  0  0  0  0  0  0  0
   24.8850   15.9424    2.6683 O   0  0  0  0  0  0  0  0  0  0  0  0
   22.6246   15.2344    3.0460 C   0  0  0  0  0  0  0  0  0  0  0  0
   21.2503   15.2176    2.5783 N   0  0  0  0  0  0  0  0  0  0  0  0
   20.1369   14.2000    2.8086 C   0  0  0  0  0  0  0  0  0  0  0  0
   20.1127   13.2486    3.4716 O   0  0  0  0  0  0  0  0  0  0  0  0
   18.9348   14.5134    1.9754 C   0  0  2  0  0  0  0  0  0  0  0  0
   17.6453   14.9265    2.6446 C   0  0  0  0  0  0  0  0  0  0  0  0
   17.7553   13.5554    2.0352 C   0  0  1  0  0  0  0  0  0  0  0  0
   16.9393   13.2225    0.8386 C   0  0  1  0  0  0  0  0  0  0  0  0
   17.3688   11.9543    0.1216 C   0  0  0  0  0  0  0  0  0  0  0  0
   16.0455   11.4351   -0.3906 C   0  0  0  0  0  0  0  0  0  0  0  0
   15.1378   11.7527    0.7670 C   0  0  0  0  0  0  0  0  0  0  0  0
   15.5848   13.0097    1.2805 O   0  0  0  0  0  0  0  0  0  0  0  0
  1  2  1  0
  2  3  1  0
  3  4  2  0
  4  5  1  0
  5  6  2  0
  6  7  1  0
  7  8  2  0
  8  9  1  0
  9 10  1  0
 10 11  1  0
 11 12  1  0
 12 13  1  1
 12 14  1  0
 14 15  1  0
 15 16  1  0
 16 17  2  0
 18 16  1  1
 18 19  1  0
 20 19  1  1
 20 21  1  0
 21 22  1  1
 22 23  1  0
 23 24  1  0
 24 25  1  0
  8  3  1  0
 20 18  1  0
 25 21  1  0
 12  7  1  0
M  END
>  <energy_score>  (362) 
-23.781124

>  <inchikey>  (362) 
None

>  <smiles>  (362) 
None

>  <ref_pdb>  (362) 
A0239a

>  <alias>  (362) 
None

>  <HIPPO Pose ID>  (362) 
498006

>  <name>  (362) 
P498006

>  <HIPPO Compound ID>  (362) 
290322

>  <ref_mols>  (362) 
A0239a,A0608a

>  <distance_score>  (362) 
1.910724

>  <inspiration_score>  (362) 
None

$$$$
P498007
     RDKit          3D

 25 28  0  0  0  0  0  0  0  0999 V2000
   23.6906   11.1987   -2.4181 C   0  0  0  0  0  0  0  0  0  0  0  0
   23.2031   12.2871   -1.6418 O   0  0  0  0  0  0  0  0  0  0  0  0
   23.8982   12.6052   -0.5076 C   0  0  0  0  0  0  0  0  0  0  0  0
   24.8649   11.7942    0.0858 C   0  0  0  0  0  0  0  0  0  0  0  0
   25.4690   12.1861    1.2760 C   0  0  0  0  0  0  0  0  0  0  0  0
   25.1112   13.3926    1.8703 C   0  0  0  0  0  0  0  0  0  0  0  0
   24.1791   14.2527    1.2548 C   0  0  0  0  0  0  0  0  0  0  0  0
   23.5639   13.8501    0.0572 C   0  0  0  0  0  0  0  0  0  0  0  0
   22.6326   14.7650   -0.7209 C   0  0  0  0  0  0  0  0  0  0  0  0
   22.2220   16.0737   -0.0516 C   0  0  0  0  0  0  0  0  0  0  0  0
   23.3136   16.6167    0.8344 C   0  0  0  0  0  0  0  0  0  0  0  0
   23.8196   15.5995    1.8681 C   0  0  2  0  0  0  0  0  0  0  0  0
   25.0129   16.2076    2.3864 O   0  0  0  0  0  0  0  0  0  0  0  0
   22.8331   15.4423    3.0494 C   0  0  0  0  0  0  0  0  0  0  0  0
   21.6575   14.6372    2.8013 N   0  0  0  0  0  0  0  0  0  0  0  0
   20.1769   15.0571    2.5599 C   0  0  0  0  0  0  0  0  0  0  0  0
   19.6724   16.1104    2.6020 O   0  0  0  0  0  0  0  0  0  0  0  0
   19.4201   13.7606    2.2874 C   0  0  0  0  0  0  0  0  0  0  0  0
   18.1267   13.8941    1.4897 C   0  0  2  0  0  0  0  0  0  0  0  0
   17.0212   14.6859    2.2007 C   0  0  0  0  0  0  0  0  0  0  0  0
   15.8589   13.7013    2.1777 C   0  0  1  0  0  0  0  0  0  0  0  0
   15.3506   13.4376    0.7621 C   0  0  0  0  0  0  0  0  0  0  0  0
   16.4470   12.5461    0.1801 C   0  0  0  0  0  0  0  0  0  0  0  0
   17.4563   12.5139    1.3198 C   0  0  2  0  0  0  0  0  0  0  0  0
   16.5610   12.4745    2.4603 O   0  0  0  0  0  0  0  0  0  0  0  0
  1  2  1  0
  2  3  1  0
  3  4  2  0
  4  5  1  0
  5  6  2  0
  6  7  1  0
  7  8  2  0
  8  9  1  0
  9 10  1  0
 10 11  1  0
 11 12  1  0
 12 13  1  1
 12 14  1  0
 14 15  1  0
 15 16  1  0
 16 17  2  0
 16 18  1  0
 19 18  1  1
 19 20  1  0
 21 20  1  6
 21 22  1  0
 22 23  1  0
 24 23  1  6
 24 25  1  0
  8  3  1  0
 24 19  1  0
 12  7  1  0
 25 21  1  0
M  END
>  <energy_score>  (363) 
-25.776721

>  <inchikey>  (363) 
None

>  <smiles>  (363) 
None

>  <ref_pdb>  (363) 
A0239a

>  <alias>  (363) 
None

>  <HIPPO Pose ID>  (363) 
498007

>  <name>  (363) 
P498007

>  <HIPPO Compound ID>  (363) 
290323

>  <ref_mols>  (363) 
A0239a,A0608a

>  <distance_score>  (363) 
1.951971

>  <inspiration_score>  (363) 
None

$$$$
P498008
     RDKit          3D

 25 28  0  0  0  0  0  0  0  0999 V2000
   23.4900   11.1830   -2.4098 C   0  0  0  0  0  0  0  0  0  0  0  0
   23.0319   12.1922   -1.5176 O   0  0  0  0  0  0  0  0  0  0  0  0
   23.8489   12.5129   -0.4691 C   0  0  0  0  0  0  0  0  0  0  0  0
   24.9517   11.7627   -0.0608 C   0  0  0  0  0  0  0  0  0  0  0  0
   25.6809   12.1468    1.0612 C   0  0  0  0  0  0  0  0  0  0  0  0
   25.3115   13.2829    1.7780 C   0  0  0  0  0  0  0  0  0  0  0  0
   24.2250   14.0730    1.3611 C   0  0  0  0  0  0  0  0  0  0  0  0
   23.4970   13.6835    0.2221 C   0  0  0  0  0  0  0  0  0  0  0  0
   22.3070   14.5034   -0.2229 C   0  0  0  0  0  0  0  0  0  0  0  0
   22.4522   16.0159   -0.0287 C   0  0  0  0  0  0  0  0  0  0  0  0
   23.4166   16.4365    1.0673 C   0  0  0  0  0  0  0  0  0  0  0  0
   23.7993   15.3435    2.0791 C   0  0  2  0  0  0  0  0  0  0  0  0
   24.9358   15.9162    2.7472 O   0  0  0  0  0  0  0  0  0  0  0  0
   22.6827   15.0884    3.1258 C   0  0  0  0  0  0  0  0  0  0  0  0
   21.2991   15.2062    2.6999 N   0  0  0  0  0  0  0  0  0  0  0  0
   20.1134   14.2289    2.8606 C   0  0  0  0  0  0  0  0  0  0  0  0
   20.0441   13.2131    3.4259 O   0  0  0  0  0  0  0  0  0  0  0  0
   18.9182   14.8242    2.1244 C   0  0  0  0  0  0  0  0  0  0  0  0
   17.6423   14.0674    2.4949 C   0  0  1  0  0  0  0  0  0  0  0  0
   16.3471   14.7815    2.0941 C   0  0  0  0  0  0  0  0  0  0  0  0
   15.4940   13.6270    1.5633 C   0  0  1  0  0  0  0  0  0  0  0  0
   15.9198   13.2633    0.1480 C   0  0  0  0  0  0  0  0  0  0  0  0
   17.2881   12.6281    0.3842 C   0  0  0  0  0  0  0  0  0  0  0  0
   17.4115   12.6694    1.9046 C   0  0  2  0  0  0  0  0  0  0  0  0
   16.0162   12.5002    2.3003 O   0  0  0  0  0  0  0  0  0  0  0  0
  1  2  1  0
  2  3  1  0
  3  4  2  0
  4  5  1  0
  5  6  2  0
  6  7  1  0
  7  8  2  0
  8  9  1  0
  9 10  1  0
 10 11  1  0
 11 12  1  0
 12 13  1  1
 12 14  1  0
 14 15  1  0
 15 16  1  0
 16 17  2  0
 16 18  1  0
 19 18  1  6
 19 20  1  0
 21 20  1  1
 21 22  1  0
 22 23  1  0
 24 23  1  6
 24 25  1  0
  8  3  1  0
 24 19  1  0
 12  7  1  0
 25 21  1  0
M  END
>  <energy_score>  (364) 
-17.4647

>  <inchikey>  (364) 
None

>  <smiles>  (364) 
None

>  <ref_pdb>  (364) 
A0239a

>  <alias>  (364) 
None

>  <HIPPO Pose ID>  (364) 
498008

>  <name>  (364) 
P498008

>  <HIPPO Compound ID>  (364) 
290323

>  <ref_mols>  (364) 
A0239a,A0608a

>  <distance_score>  (364) 
1.578552

>  <inspiration_score>  (364) 
None

$$$$
P498009
     RDKit          3D

 25 28  0  0  0  0  0  0  0  0999 V2000
   23.6400   11.1524   -2.5374 C   0  0  0  0  0  0  0  0  0  0  0  0
   23.2981   12.3411   -1.8356 O   0  0  0  0  0  0  0  0  0  0  0  0
   23.9228   12.5699   -0.6405 C   0  0  0  0  0  0  0  0  0  0  0  0
   24.8823   11.7339   -0.0695 C   0  0  0  0  0  0  0  0  0  0  0  0
   25.4311   12.0486    1.1682 C   0  0  0  0  0  0  0  0  0  0  0  0
   25.0054   13.1889    1.8417 C   0  0  0  0  0  0  0  0  0  0  0  0
   24.0603   14.0649    1.2665 C   0  0  0  0  0  0  0  0  0  0  0  0
   23.5333   13.7602    0.0028 C   0  0  0  0  0  0  0  0  0  0  0  0
   22.6597   14.7372   -0.7613 C   0  0  0  0  0  0  0  0  0  0  0  0
   22.1164   15.9257    0.0243 C   0  0  0  0  0  0  0  0  0  0  0  0
   23.1052   16.4196    1.0571 C   0  0  0  0  0  0  0  0  0  0  0  0
   23.6033   15.3123    2.0016 C   0  0  2  0  0  0  0  0  0  0  0  0
   24.7795   15.8824    2.6062 O   0  0  0  0  0  0  0  0  0  0  0  0
   22.5816   14.9321    3.1172 C   0  0  0  0  0  0  0  0  0  0  0  0
   21.1640   15.1752    2.8853 N   0  0  0  0  0  0  0  0  0  0  0  0
   19.9528   14.2195    2.9816 C   0  0  0  0  0  0  0  0  0  0  0  0
   19.8919   13.1106    3.3354 O   0  0  0  0  0  0  0  0  0  0  0  0
   18.6951   14.9565    2.5647 C   0  0  0  0  0  0  0  0  0  0  0  0
   18.1992   14.4895    1.2043 C   0  0  2  0  0  0  0  0  0  0  0  0
   16.7984   15.0316    0.8789 C   0  0  0  0  0  0  0  0  0  0  0  0
   16.0967   13.8035    0.2967 C   0  0  2  0  0  0  0  0  0  0  0  0
   15.6676   12.8531    1.4028 C   0  0  0  0  0  0  0  0  0  0  0  0
   17.0143   12.3216    1.8826 C   0  0  0  0  0  0  0  0  0  0  0  0
   18.0059   12.9889    0.9361 C   0  0  1  0  0  0  0  0  0  0  0  0
   17.2061   13.0737   -0.2744 O   0  0  0  0  0  0  0  0  0  0  0  0
  1  2  1  0
  2  3  1  0
  3  4  2  0
  4  5  1  0
  5  6  2  0
  6  7  1  0
  7  8  2  0
  8  9  1  0
  9 10  1  0
 10 11  1  0
 11 12  1  0
 12 13  1  1
 12 14  1  0
 14 15  1  0
 15 16  1  0
 16 17  2  0
 16 18  1  0
 19 18  1  1
 19 20  1  0
 21 20  1  1
 21 22  1  0
 22 23  1  0
 24 23  1  1
 24 25  1  0
  8  3  1  0
 24 19  1  0
 12  7  1  0
 25 21  1  0
M  END
>  <energy_score>  (365) 
-25.446884

>  <inchikey>  (365) 
None

>  <smiles>  (365) 
None

>  <ref_pdb>  (365) 
A0239a

>  <alias>  (365) 
None

>  <HIPPO Pose ID>  (365) 
498009

>  <name>  (365) 
P498009

>  <HIPPO Compound ID>  (365) 
290323

>  <ref_mols>  (365) 
A0239a,A0608a

>  <distance_score>  (365) 
1.855699

>  <inspiration_score>  (365) 
None

$$$$
P498010
     RDKit          3D

 25 28  0  0  0  0  0  0  0  0999 V2000
   24.1596   11.1285   -2.4837 C   0  0  0  0  0  0  0  0  0  0  0  0
   23.7641   12.4159   -2.0269 O   0  0  0  0  0  0  0  0  0  0  0  0
   24.0439   12.7388   -0.7238 C   0  0  0  0  0  0  0  0  0  0  0  0
   24.8073   11.9496    0.1368 C   0  0  0  0  0  0  0  0  0  0  0  0
   25.0344   12.3583    1.4474 C   0  0  0  0  0  0  0  0  0  0  0  0
   24.5143   13.5663    1.8997 C   0  0  0  0  0  0  0  0  0  0  0  0
   23.7713   14.4035    1.0445 C   0  0  0  0  0  0  0  0  0  0  0  0
   23.5229   13.9736   -0.2769 C   0  0  0  0  0  0  0  0  0  0  0  0
   22.7787   14.8480   -1.2634 C   0  0  0  0  0  0  0  0  0  0  0  0
   21.9840   15.9759   -0.6201 C   0  0  0  0  0  0  0  0  0  0  0  0
   22.8295   16.6942    0.4166 C   0  0  0  0  0  0  0  0  0  0  0  0
   23.3029   15.7630    1.5509 C   0  0  2  0  0  0  0  0  0  0  0  0
   24.4464   16.4524    2.1081 O   0  0  0  0  0  0  0  0  0  0  0  0
   22.2621   15.6667    2.7062 C   0  0  0  0  0  0  0  0  0  0  0  0
   20.8646   15.5599    2.3377 N   0  0  0  0  0  0  0  0  0  0  0  0
   19.9334   14.4832    2.4882 C   0  0  0  0  0  0  0  0  0  0  0  0
   20.0881   13.3665    2.8853 O   0  0  0  0  0  0  0  0  0  0  0  0
   18.5449   14.9528    2.0549 C   0  0  0  0  0  0  0  0  0  0  0  0
   17.5423   13.7896    2.0060 C   0  0  1  0  0  0  0  0  0  0  0  0
   16.1130   14.2932    1.7423 C   0  0  0  0  0  0  0  0  0  0  0  0
   15.7650   13.5973    0.4278 C   0  0  2  0  0  0  0  0  0  0  0  0
   15.5481   12.1024    0.6444 C   0  0  0  0  0  0  0  0  0  0  0  0
   16.9726   11.6030    0.8766 C   0  0  0  0  0  0  0  0  0  0  0  0
   17.7853   12.8918    0.7793 C   0  0  1  0  0  0  0  0  0  0  0  0
   17.0460   13.6123   -0.2391 O   0  0  0  0  0  0  0  0  0  0  0  0
  1  2  1  0
  2  3  1  0
  3  4  2  0
  4  5  1  0
  5  6  2  0
  6  7  1  0
  7  8  2  0
  8  9  1  0
  9 10  1  0
 10 11  1  0
 11 12  1  0
 12 13  1  1
 12 14  1  0
 14 15  1  0
 15 16  1  0
 16 17  2  0
 16 18  1  0
 19 18  1  6
 19 20  1  0
 21 20  1  1
 21 22  1  0
 22 23  1  0
 24 23  1  1
 24 25  1  0
  8  3  1  0
 24 19  1  0
 12  7  1  0
 25 21  1  0
M  END
>  <energy_score>  (366) 
-37.09117

>  <inchikey>  (366) 
None

>  <smiles>  (366) 
None

>  <ref_pdb>  (366) 
A0239a

>  <alias>  (366) 
None

>  <HIPPO Pose ID>  (366) 
498010

>  <name>  (366) 
P498010

>  <HIPPO Compound ID>  (366) 
290323

>  <ref_mols>  (366) 
A0239a,A0608a

>  <distance_score>  (366) 
1.931228

>  <inspiration_score>  (366) 
None

$$$$
P498011
     RDKit          3D

 25 28  0  0  0  0  0  0  0  0999 V2000
   24.1281   10.7733   -2.1648 C   0  0  0  0  0  0  0  0  0  0  0  0
   24.5838   10.9560   -0.8303 O   0  0  0  0  0  0  0  0  0  0  0  0
   24.4343   12.1770   -0.2615 C   0  0  0  0  0  0  0  0  0  0  0  0
   24.7281   12.2473    1.0984 C   0  0  0  0  0  0  0  0  0  0  0  0
   24.5408   13.4272    1.8028 C   0  0  0  0  0  0  0  0  0  0  0  0
   24.0708   14.5696    1.1383 C   0  0  0  0  0  0  0  0  0  0  0  0
   23.8289   14.5060   -0.2470 C   0  0  0  0  0  0  0  0  0  0  0  0
   24.0236   13.3092   -0.9384 C   0  0  0  0  0  0  0  0  0  0  0  0
   23.3643   15.7107   -1.0319 C   0  0  0  0  0  0  0  0  0  0  0  0
   22.6130   16.7231   -0.1751 C   0  0  0  0  0  0  0  0  0  0  0  0
   23.4456   17.0711    1.0407 C   0  0  0  0  0  0  0  0  0  0  0  0
   23.7904   15.8486    1.9153 C   0  0  2  0  0  0  0  0  0  0  0  0
   24.9929   16.2433    2.5933 O   0  0  0  0  0  0  0  0  0  0  0  0
   22.7055   15.6481    3.0040 C   0  0  0  0  0  0  0  0  0  0  0  0
   21.3275   15.5722    2.5575 N   0  0  0  0  0  0  0  0  0  0  0  0
   20.2756   14.4561    2.7368 C   0  0  0  0  0  0  0  0  0  0  0  0
   20.3746   13.3939    3.2031 O   0  0  0  0  0  0  0  0  0  0  0  0
   18.9529   14.9896    2.2087 C   0  0  0  0  0  0  0  0  0  0  0  0
   17.8843   13.8784    2.2089 C   0  0  1  0  0  0  0  0  0  0  0  0
   16.4745   14.4697    2.0674 C   0  0  0  0  0  0  0  0  0  0  0  0
   15.9905   13.8366    0.7676 C   0  0  2  0  0  0  0  0  0  0  0  0
   15.6966   12.3530    0.9612 C   0  0  0  0  0  0  0  0  0  0  0  0
   17.1005   11.7599    1.0541 C   0  0  0  0  0  0  0  0  0  0  0  0
   17.9846   12.9995    0.9489 C   0  0  1  0  0  0  0  0  0  0  0  0
   17.2194   13.7951    0.0068 O   0  0  0  0  0  0  0  0  0  0  0  0
  1  2  1  0
  2  3  1  0
  3  4  2  0
  4  5  1  0
  5  6  2  0
  6  7  1  0
  7  8  2  0
  7  9  1  0
  9 10  1  0
 10 11  1  0
 11 12  1  0
 12 13  1  1
 12 14  1  0
 14 15  1  0
 15 16  1  0
 16 17  2  0
 16 18  1  0
 19 18  1  6
 19 20  1  0
 21 20  1  1
 21 22  1  0
 22 23  1  0
 24 23  1  1
 24 25  1  0
  8  3  1  0
 24 19  1  0
 12  6  1  0
 25 21  1  0
M  END
>  <energy_score>  (367) 
-20.379026

>  <inchikey>  (367) 
None

>  <smiles>  (367) 
None

>  <ref_pdb>  (367) 
A0239a

>  <alias>  (367) 
None

>  <HIPPO Pose ID>  (367) 
498011

>  <name>  (367) 
P498011

>  <HIPPO Compound ID>  (367) 
290324

>  <ref_mols>  (367) 
A0239a,A0608a

>  <distance_score>  (367) 
1.979201

>  <inspiration_score>  (367) 
None

$$$$
P498012
     RDKit          3D

 25 28  0  0  0  0  0  0  0  0999 V2000
   15.2726    9.5681   -1.5597 C   0  0  0  0  0  0  0  0  0  0  0  0
   15.4149   10.6143   -0.6072 O   0  0  0  0  0  0  0  0  0  0  0  0
   16.6740   11.1200   -0.3995 C   0  0  0  0  0  0  0  0  0  0  0  0
   17.8190   10.6675   -1.0491 C   0  0  0  0  0  0  0  0  0  0  0  0
   19.0442   11.2651   -0.7830 C   0  0  0  0  0  0  0  0  0  0  0  0
   19.1394   12.3007    0.1497 C   0  0  0  0  0  0  0  0  0  0  0  0
   18.0171   12.7764    0.8432 C   0  0  0  0  0  0  0  0  0  0  0  0
   16.7637   12.1818    0.5354 C   0  0  0  0  0  0  0  0  0  0  0  0
   15.4862   12.6300    1.2108 C   0  0  0  0  0  0  0  0  0  0  0  0
   15.5831   13.9799    1.8955 C   0  0  0  0  0  0  0  0  0  0  0  0
   16.8656   14.0563    2.7032 C   0  0  0  0  0  0  0  0  0  0  0  0
   18.1171   13.9725    1.7932 C   0  0  2  0  0  0  0  0  0  0  0  0
   18.0865   15.1744    1.0094 O   0  0  0  0  0  0  0  0  0  0  0  0
   19.3265   14.0461    2.7814 C   0  0  0  0  0  0  0  0  0  0  0  0
   20.6828   14.2249    2.2942 N   0  0  0  0  0  0  0  0  0  0  0  0
   21.2123   14.9486    1.0222 C   0  0  0  0  0  0  0  0  0  0  0  0
   20.6320   15.4426    0.1353 O   0  0  0  0  0  0  0  0  0  0  0  0
   22.7566   15.0300    1.1415 C   0  0  1  0  0  0  0  0  0  0  0  0
   23.4116   13.3604    1.2502 Cl  0  0  0  0  0  0  0  0  0  0  0  0
   23.4281   15.7865   -0.0244 C   0  0  0  0  0  0  0  0  0  0  0  0
   24.0283   16.9973    0.6916 C   0  0  1  0  0  0  0  0  0  0  0  0
   22.9392   17.9381    1.2081 C   0  0  0  0  0  0  0  0  0  0  0  0
   22.4343   17.1948    2.4432 C   0  0  0  0  0  0  0  0  0  0  0  0
   23.2017   15.8749    2.3522 C   0  0  2  0  0  0  0  0  0  0  0  0
   24.4894   16.3839    1.9137 O   0  0  0  0  0  0  0  0  0  0  0  0
  1  2  1  0
  2  3  1  0
  3  4  2  0
  4  5  1  0
  5  6  2  0
  6  7  1  0
  7  8  2  0
  8  9  1  0
  9 10  1  0
 10 11  1  0
 11 12  1  0
 12 13  1  6
 12 14  1  0
 14 15  1  0
 15 16  1  0
 16 17  2  0
 16 18  1  0
 18 19  1  1
 18 20  1  0
 21 20  1  6
 21 22  1  0
 22 23  1  0
 24 23  1  6
 24 25  1  0
  8  3  1  0
 24 18  1  0
 12  7  1  0
 25 21  1  0
M  END
>  <energy_score>  (368) 
-49.394548

>  <inchikey>  (368) 
None

>  <smiles>  (368) 
None

>  <ref_pdb>  (368) 
A0239a

>  <alias>  (368) 
None

>  <HIPPO Pose ID>  (368) 
498012

>  <name>  (368) 
P498012

>  <HIPPO Compound ID>  (368) 
290326

>  <ref_mols>  (368) 
A0239a,A0608a

>  <distance_score>  (368) 
1.508297

>  <inspiration_score>  (368) 
None

$$$$
P498013
     RDKit          3D

 25 28  0  0  0  0  0  0  0  0999 V2000
   15.2726    9.5681   -1.5597 C   0  0  0  0  0  0  0  0  0  0  0  0
   15.4149   10.6143   -0.6072 O   0  0  0  0  0  0  0  0  0  0  0  0
   16.6740   11.1200   -0.3995 C   0  0  0  0  0  0  0  0  0  0  0  0
   17.8190   10.6675   -1.0491 C   0  0  0  0  0  0  0  0  0  0  0  0
   19.0442   11.2651   -0.7830 C   0  0  0  0  0  0  0  0  0  0  0  0
   19.1394   12.3007    0.1497 C   0  0  0  0  0  0  0  0  0  0  0  0
   18.0171   12.7764    0.8432 C   0  0  0  0  0  0  0  0  0  0  0  0
   16.7637   12.1818    0.5353 C   0  0  0  0  0  0  0  0  0  0  0  0
   15.4862   12.6300    1.2108 C   0  0  0  0  0  0  0  0  0  0  0  0
   15.5831   13.9799    1.8955 C   0  0  0  0  0  0  0  0  0  0  0  0
   16.8656   14.0563    2.7032 C   0  0  0  0  0  0  0  0  0  0  0  0
   18.1171   13.9725    1.7932 C   0  0  2  0  0  0  0  0  0  0  0  0
   18.0865   15.1744    1.0093 O   0  0  0  0  0  0  0  0  0  0  0  0
   19.3265   14.0461    2.7814 C   0  0  0  0  0  0  0  0  0  0  0  0
   20.6828   14.2249    2.2942 N   0  0  0  0  0  0  0  0  0  0  0  0
   21.2123   14.9486    1.0222 C   0  0  0  0  0  0  0  0  0  0  0  0
   20.6320   15.4426    0.1353 O   0  0  0  0  0  0  0  0  0  0  0  0
   22.7566   15.0300    1.1415 C   0  0  1  0  0  0  0  0  0  0  0  0
   23.4116   13.3604    1.2502 Cl  0  0  0  0  0  0  0  0  0  0  0  0
   23.4281   15.7865   -0.0244 C   0  0  0  0  0  0  0  0  0  0  0  0
   24.0283   16.9973    0.6915 C   0  0  1  0  0  0  0  0  0  0  0  0
   22.9392   17.9381    1.2081 C   0  0  0  0  0  0  0  0  0  0  0  0
   22.4343   17.1948    2.4432 C   0  0  0  0  0  0  0  0  0  0  0  0
   23.2017   15.8749    2.3522 C   0  0  2  0  0  0  0  0  0  0  0  0
   24.4894   16.3839    1.9137 O   0  0  0  0  0  0  0  0  0  0  0  0
  1  2  1  0
  2  3  1  0
  3  4  2  0
  4  5  1  0
  5  6  2  0
  6  7  1  0
  7  8  2  0
  8  9  1  0
  9 10  1  0
 10 11  1  0
 11 12  1  0
 12 13  1  6
 12 14  1  0
 14 15  1  0
 15 16  1  0
 16 17  2  0
 16 18  1  0
 18 19  1  1
 18 20  1  0
 21 20  1  6
 21 22  1  0
 22 23  1  0
 24 23  1  6
 24 25  1  0
  8  3  1  0
 24 18  1  0
 12  7  1  0
 25 21  1  0
M  END
>  <energy_score>  (369) 
-19.466097

>  <inchikey>  (369) 
None

>  <smiles>  (369) 
None

>  <ref_pdb>  (369) 
A0239a

>  <alias>  (369) 
None

>  <HIPPO Pose ID>  (369) 
498013

>  <name>  (369) 
P498013

>  <HIPPO Compound ID>  (369) 
290326

>  <ref_mols>  (369) 
A0239a,A0608a

>  <distance_score>  (369) 
1.49507

>  <inspiration_score>  (369) 
None

$$$$
P498014
     RDKit          3D

 25 28  0  0  0  0  0  0  0  0999 V2000
   15.5504    9.4763   -1.7636 C   0  0  0  0  0  0  0  0  0  0  0  0
   15.6028   10.5390   -0.8215 O   0  0  0  0  0  0  0  0  0  0  0  0
   16.8214   11.1171   -0.5751 C   0  0  0  0  0  0  0  0  0  0  0  0
   18.0081   10.7640   -1.2152 C   0  0  0  0  0  0  0  0  0  0  0  0
   19.1826   11.4550   -0.9328 C   0  0  0  0  0  0  0  0  0  0  0  0
   19.1877   12.4782    0.0155 C   0  0  0  0  0  0  0  0  0  0  0  0
   18.0235   12.8269    0.7196 C   0  0  0  0  0  0  0  0  0  0  0  0
   16.8191   12.1608    0.3799 C   0  0  0  0  0  0  0  0  0  0  0  0
   15.5048   12.5381    1.0279 C   0  0  0  0  0  0  0  0  0  0  0  0
   15.5068   13.9487    1.5907 C   0  0  0  0  0  0  0  0  0  0  0  0
   16.7145   14.1267    2.4881 C   0  0  0  0  0  0  0  0  0  0  0  0
   18.0439   13.9952    1.7070 C   0  0  2  0  0  0  0  0  0  0  0  0
   18.1991   15.2106    0.9571 O   0  0  0  0  0  0  0  0  0  0  0  0
   19.1424   13.9324    2.8049 C   0  0  0  0  0  0  0  0  0  0  0  0
   20.5017   14.2639    2.4401 N   0  0  0  0  0  0  0  0  0  0  0  0
   21.2921   15.5861    2.6010 C   0  0  0  0  0  0  0  0  0  0  0  0
   20.9441   16.6347    2.9825 O   0  0  0  0  0  0  0  0  0  0  0  0
   22.7426   15.3843    2.0806 C   0  0  2  0  0  0  0  0  0  0  0  0
   23.2805   13.6654    2.1577 Cl  0  0  0  0  0  0  0  0  0  0  0  0
   23.7645   16.2805    2.8135 C   0  0  0  0  0  0  0  0  0  0  0  0
   24.2592   17.1843    1.6858 C   0  0  2  0  0  0  0  0  0  0  0  0
   23.1683   18.1555    1.2342 C   0  0  0  0  0  0  0  0  0  0  0  0
   22.2700   17.2529    0.3904 C   0  0  0  0  0  0  0  0  0  0  0  0
   22.8868   15.8772    0.6331 C   0  0  1  0  0  0  0  0  0  0  0  0
   24.2940   16.2496    0.5841 O   0  0  0  0  0  0  0  0  0  0  0  0
  1  2  1  0
  2  3  1  0
  3  4  2  0
  4  5  1  0
  5  6  2  0
  6  7  1  0
  7  8  2  0
  8  9  1  0
  9 10  1  0
 10 11  1  0
 11 12  1  0
 12 13  1  6
 12 14  1  0
 14 15  1  0
 15 16  1  0
 16 17  2  0
 16 18  1  0
 18 19  1  6
 18 20  1  0
 21 20  1  1
 21 22  1  0
 22 23  1  0
 24 23  1  1
 24 25  1  0
  8  3  1  0
 24 18  1  0
 12  7  1  0
 25 21  1  0
M  END
>  <energy_score>  (370) 
-19.984328

>  <inchikey>  (370) 
None

>  <smiles>  (370) 
None

>  <ref_pdb>  (370) 
A0239a

>  <alias>  (370) 
None

>  <HIPPO Pose ID>  (370) 
498014

>  <name>  (370) 
P498014

>  <HIPPO Compound ID>  (370) 
290326

>  <ref_mols>  (370) 
A0239a,A0608a

>  <distance_score>  (370) 
1.928919

>  <inspiration_score>  (370) 
None

$$$$
P498015
     RDKit          3D

 25 28  0  0  0  0  0  0  0  0999 V2000
   15.2860    9.5556   -1.5804 C   0  0  0  0  0  0  0  0  0  0  0  0
   15.4174   10.6119   -0.6376 O   0  0  0  0  0  0  0  0  0  0  0  0
   16.6744   11.1184   -0.4193 C   0  0  0  0  0  0  0  0  0  0  0  0
   17.8244   10.6710   -1.0637 C   0  0  0  0  0  0  0  0  0  0  0  0
   19.0469   11.2690   -0.7865 C   0  0  0  0  0  0  0  0  0  0  0  0
   19.1346   12.2999    0.1521 C   0  0  0  0  0  0  0  0  0  0  0  0
   18.0068   12.7703    0.8403 C   0  0  0  0  0  0  0  0  0  0  0  0
   16.7563   12.1762    0.5207 C   0  0  0  0  0  0  0  0  0  0  0  0
   15.4737   12.6201    1.1895 C   0  0  0  0  0  0  0  0  0  0  0  0
   15.5651   13.9666    1.8817 C   0  0  0  0  0  0  0  0  0  0  0  0
   16.8411   14.0388    2.6998 C   0  0  0  0  0  0  0  0  0  0  0  0
   18.0995   13.9594    1.7994 C   0  0  2  0  0  0  0  0  0  0  0  0
   18.0770   15.1675    1.0245 O   0  0  0  0  0  0  0  0  0  0  0  0
   19.3008   14.0236    2.7973 C   0  0  0  0  0  0  0  0  0  0  0  0
   20.6611   14.2037    2.3208 N   0  0  0  0  0  0  0  0  0  0  0  0
   21.2018   14.9473    1.0641 C   0  0  0  0  0  0  0  0  0  0  0  0
   20.6289   15.4604    0.1828 O   0  0  0  0  0  0  0  0  0  0  0  0
   22.7478   15.0244    1.1842 C   0  0  1  0  0  0  0  0  0  0  0  0
   23.4075   13.3600    1.2996 Cl  0  0  0  0  0  0  0  0  0  0  0  0
   23.4217   15.7764    0.0159 C   0  0  0  0  0  0  0  0  0  0  0  0
   24.0137   16.9956    0.7244 C   0  0  1  0  0  0  0  0  0  0  0  0
   22.9184   17.9341    1.2314 C   0  0  0  0  0  0  0  0  0  0  0  0
   22.4160   17.1972    2.4715 C   0  0  0  0  0  0  0  0  0  0  0  0
   23.1891   15.8794    2.3901 C   0  0  2  0  0  0  0  0  0  0  0  0
   24.4754   16.3954    1.9539 O   0  0  0  0  0  0  0  0  0  0  0  0
  1  2  1  0
  2  3  1  0
  3  4  2  0
  4  5  1  0
  5  6  2  0
  6  7  1  0
  7  8  2  0
  8  9  1  0
  9 10  1  0
 10 11  1  0
 11 12  1  0
 12 13  1  6
 12 14  1  0
 14 15  1  0
 15 16  1  0
 16 17  2  0
 16 18  1  0
 18 19  1  1
 18 20  1  0
 21 20  1  6
 21 22  1  0
 22 23  1  0
 24 23  1  6
 24 25  1  0
  8  3  1  0
 24 18  1  0
 12  7  1  0
 25 21  1  0
M  END
>  <energy_score>  (371) 
-25.783884

>  <inchikey>  (371) 
None

>  <smiles>  (371) 
None

>  <ref_pdb>  (371) 
A0239a

>  <alias>  (371) 
None

>  <HIPPO Pose ID>  (371) 
498015

>  <name>  (371) 
P498015

>  <HIPPO Compound ID>  (371) 
290326

>  <ref_mols>  (371) 
A0239a,A0608a

>  <distance_score>  (371) 
1.516634

>  <inspiration_score>  (371) 
None

$$$$
P498016
     RDKit          3D

 25 28  0  0  0  0  0  0  0  0999 V2000
   16.2597    9.2202   -2.5169 C   0  0  0  0  0  0  0  0  0  0  0  0
   17.5503    9.5992   -2.0453 O   0  0  0  0  0  0  0  0  0  0  0  0
   17.5748   10.5763   -1.0909 C   0  0  0  0  0  0  0  0  0  0  0  0
   18.8161   11.1559   -0.8598 C   0  0  0  0  0  0  0  0  0  0  0  0
   18.9548   12.2032    0.0576 C   0  0  0  0  0  0  0  0  0  0  0  0
   17.8526   12.7003    0.7730 C   0  0  0  0  0  0  0  0  0  0  0  0
   16.5979   12.0988    0.5385 C   0  0  0  0  0  0  0  0  0  0  0  0
   16.4786   11.0264   -0.3643 C   0  0  0  0  0  0  0  0  0  0  0  0
   15.3475   12.5457    1.2485 C   0  0  0  0  0  0  0  0  0  0  0  0
   15.4304   13.9762    1.7494 C   0  0  0  0  0  0  0  0  0  0  0  0
   16.7192   14.1647    2.5305 C   0  0  0  0  0  0  0  0  0  0  0  0
   17.9659   13.9512    1.6433 C   0  0  2  0  0  0  0  0  0  0  0  0
   18.0435   15.0844    0.7512 O   0  0  0  0  0  0  0  0  0  0  0  0
   19.1784   14.0367    2.5969 C   0  0  0  0  0  0  0  0  0  0  0  0
   20.4453   14.3006    1.9634 N   0  0  0  0  0  0  0  0  0  0  0  0
   21.8678   14.4059    2.5657 C   0  0  0  0  0  0  0  0  0  0  0  0
   22.2430   14.2192    3.6539 O   0  0  0  0  0  0  0  0  0  0  0  0
   22.8657   14.8209    1.4606 C   0  0  1  0  0  0  0  0  0  0  0  0
   23.4328   13.2743    0.7226 Cl  0  0  0  0  0  0  0  0  0  0  0  0
   22.4289   15.8175    0.3680 C   0  0  0  0  0  0  0  0  0  0  0  0
   23.4833   16.9248    0.4788 C   0  0  1  0  0  0  0  0  0  0  0  0
   23.2098   17.7818    1.7063 C   0  0  0  0  0  0  0  0  0  0  0  0
   23.6297   16.8380    2.8287 C   0  0  0  0  0  0  0  0  0  0  0  0
   24.0638   15.5742    2.0725 C   0  0  2  0  0  0  0  0  0  0  0  0
   24.6509   16.1930    0.8932 O   0  0  0  0  0  0  0  0  0  0  0  0
  1  2  1  0
  2  3  1  0
  3  4  2  0
  4  5  1  0
  5  6  2  0
  6  7  1  0
  7  8  2  0
  7  9  1  0
  9 10  1  0
 10 11  1  0
 11 12  1  0
 12 13  1  6
 12 14  1  0
 14 15  1  0
 15 16  1  0
 16 17  2  0
 16 18  1  0
 18 19  1  6
 18 20  1  0
 21 20  1  1
 21 22  1  0
 22 23  1  0
 24 23  1  1
 24 25  1  0
  8  3  1  0
 24 18  1  0
 12  6  1  0
 25 21  1  0
M  END
>  <energy_score>  (372) 
-27.170213

>  <inchikey>  (372) 
None

>  <smiles>  (372) 
None

>  <ref_pdb>  (372) 
A0239a

>  <alias>  (372) 
None

>  <HIPPO Pose ID>  (372) 
498016

>  <name>  (372) 
P498016

>  <HIPPO Compound ID>  (372) 
290327

>  <ref_mols>  (372) 
A0239a,A0608a

>  <distance_score>  (372) 
1.87894

>  <inspiration_score>  (372) 
None

$$$$
P498017
     RDKit          3D

 25 28  0  0  0  0  0  0  0  0999 V2000
   16.6927    9.4890   -2.6390 C   0  0  0  0  0  0  0  0  0  0  0  0
   17.9588    9.7707   -2.0458 O   0  0  0  0  0  0  0  0  0  0  0  0
   17.9389   10.7195   -1.0631 C   0  0  0  0  0  0  0  0  0  0  0  0
   19.1372   11.3802   -0.8382 C   0  0  0  0  0  0  0  0  0  0  0  0
   19.2213   12.3963    0.1207 C   0  0  0  0  0  0  0  0  0  0  0  0
   18.1112   12.7872    0.8853 C   0  0  0  0  0  0  0  0  0  0  0  0
   16.8954   12.1077    0.6435 C   0  0  0  0  0  0  0  0  0  0  0  0
   16.8321   11.0600   -0.2962 C   0  0  0  0  0  0  0  0  0  0  0  0
   15.6218   12.4447    1.3734 C   0  0  0  0  0  0  0  0  0  0  0  0
   15.6325   13.8397    1.9694 C   0  0  0  0  0  0  0  0  0  0  0  0
   16.9209   14.0430    2.7499 C   0  0  0  0  0  0  0  0  0  0  0  0
   18.1716   13.9863    1.8324 C   0  0  2  0  0  0  0  0  0  0  0  0
   18.0938   15.1809    1.0398 O   0  0  0  0  0  0  0  0  0  0  0  0
   19.3840   14.0986    2.8114 C   0  0  0  0  0  0  0  0  0  0  0  0
   20.7317   14.2681    2.3054 N   0  0  0  0  0  0  0  0  0  0  0  0
   21.2524   15.0367    1.0582 C   0  0  0  0  0  0  0  0  0  0  0  0
   20.6668   15.5844    0.2076 O   0  0  0  0  0  0  0  0  0  0  0  0
   22.7992   15.0756    1.1501 C   0  0  1  0  0  0  0  0  0  0  0  0
   23.4177   13.3900    1.2265 Cl  0  0  0  0  0  0  0  0  0  0  0  0
   23.4678   15.8348   -0.0150 C   0  0  0  0  0  0  0  0  0  0  0  0
   24.0933   17.0279    0.7082 C   0  0  1  0  0  0  0  0  0  0  0  0
   23.0249   17.9750    1.2562 C   0  0  0  0  0  0  0  0  0  0  0  0
   22.5347   17.2234    2.4923 C   0  0  0  0  0  0  0  0  0  0  0  0
   23.2786   15.8929    2.3666 C   0  0  2  0  0  0  0  0  0  0  0  0
   24.5660   16.3897    1.9135 O   0  0  0  0  0  0  0  0  0  0  0  0
  1  2  1  0
  2  3  1  0
  3  4  2  0
  4  5  1  0
  5  6  2  0
  6  7  1  0
  7  8  2  0
  7  9  1  0
  9 10  1  0
 10 11  1  0
 11 12  1  0
 12 13  1  6
 12 14  1  0
 14 15  1  0
 15 16  1  0
 16 17  2  0
 16 18  1  0
 18 19  1  1
 18 20  1  0
 21 20  1  6
 21 22  1  0
 22 23  1  0
 24 23  1  6
 24 25  1  0
  8  3  1  0
 24 18  1  0
 12  6  1  0
 25 21  1  0
M  END
>  <energy_score>  (373) 
-20.648066

>  <inchikey>  (373) 
None

>  <smiles>  (373) 
None

>  <ref_pdb>  (373) 
A0239a

>  <alias>  (373) 
None

>  <HIPPO Pose ID>  (373) 
498017

>  <name>  (373) 
P498017

>  <HIPPO Compound ID>  (373) 
290327

>  <ref_mols>  (373) 
A0239a,A0608a

>  <distance_score>  (373) 
1.545652

>  <inspiration_score>  (373) 
None

$$$$
P498018
     RDKit          3D

 25 28  0  0  0  0  0  0  0  0999 V2000
   20.0835    9.3577   -2.6973 C   0  0  0  0  0  0  0  0  0  0  0  0
   19.0328    9.4160   -1.7366 O   0  0  0  0  0  0  0  0  0  0  0  0
   18.8745   10.6062   -1.0835 C   0  0  0  0  0  0  0  0  0  0  0  0
   19.7348   11.6896   -1.1643 C   0  0  0  0  0  0  0  0  0  0  0  0
   19.4811   12.8394   -0.4141 C   0  0  0  0  0  0  0  0  0  0  0  0
   18.3749   12.9446    0.4475 C   0  0  0  0  0  0  0  0  0  0  0  0
   17.4800   11.8592    0.4973 C   0  0  0  0  0  0  0  0  0  0  0  0
   17.7449   10.7059   -0.2698 C   0  0  0  0  0  0  0  0  0  0  0  0
   16.1812   11.9238    1.2612 C   0  0  0  0  0  0  0  0  0  0  0  0
   16.1435   13.0253    2.3112 C   0  0  0  0  0  0  0  0  0  0  0  0
   16.6881   14.3173    1.7459 C   0  0  0  0  0  0  0  0  0  0  0  0
   18.1598   14.2024    1.2870 C   0  0  2  0  0  0  0  0  0  0  0  0
   18.3095   15.3879    0.4924 O   0  0  0  0  0  0  0  0  0  0  0  0
   19.1004   14.2585    2.5423 C   0  0  0  0  0  0  0  0  0  0  0  0
   20.5361   14.3968    2.3271 N   0  0  0  0  0  0  0  0  0  0  0  0
   21.3217   15.1839    1.2444 C   0  0  0  0  0  0  0  0  0  0  0  0
   20.9388   15.7784    0.3140 O   0  0  0  0  0  0  0  0  0  0  0  0
   22.8327   15.0863    1.5604 C   0  0  2  0  0  0  0  0  0  0  0  0
   23.3442   13.3944    1.2153 Cl  0  0  0  0  0  0  0  0  0  0  0  0
   23.2490   15.4888    2.9798 C   0  0  0  0  0  0  0  0  0  0  0  0
   24.2485   16.6193    2.7255 C   0  0  2  0  0  0  0  0  0  0  0  0
   23.5190   17.8777    2.2660 C   0  0  0  0  0  0  0  0  0  0  0  0
   23.1903   17.5274    0.8213 C   0  0  0  0  0  0  0  0  0  0  0  0
   23.6628   16.0707    0.7166 C   0  0  1  0  0  0  0  0  0  0  0  0
   24.8785   16.1776    1.5069 O   0  0  0  0  0  0  0  0  0  0  0  0
  1  2  1  0
  2  3  1  0
  3  4  2  0
  4  5  1  0
  5  6  2  0
  6  7  1  0
  7  8  2  0
  7  9  1  0
  9 10  1  0
 10 11  1  0
 11 12  1  0
 12 13  1  6
 12 14  1  0
 14 15  1  0
 15 16  1  0
 16 17  2  0
 16 18  1  0
 18 19  1  6
 18 20  1  0
 21 20  1  6
 21 22  1  0
 22 23  1  0
 24 23  1  1
 24 25  1  0
  8  3  1  0
 24 18  1  0
 12  6  1  0
 25 21  1  0
M  END
>  <energy_score>  (374) 
-21.047702

>  <inchikey>  (374) 
None

>  <smiles>  (374) 
None

>  <ref_pdb>  (374) 
A0239a

>  <alias>  (374) 
None

>  <HIPPO Pose ID>  (374) 
498018

>  <name>  (374) 
P498018

>  <HIPPO Compound ID>  (374) 
290327

>  <ref_mols>  (374) 
A0239a,A0608a

>  <distance_score>  (374) 
1.866987

>  <inspiration_score>  (374) 
None

$$$$
P498019
     RDKit          3D

 25 28  0  0  0  0  0  0  0  0999 V2000
   16.7113    9.4992   -2.6713 C   0  0  0  0  0  0  0  0  0  0  0  0
   17.9726    9.7820   -2.0688 O   0  0  0  0  0  0  0  0  0  0  0  0
   17.9439   10.7248   -1.0806 C   0  0  0  0  0  0  0  0  0  0  0  0
   19.1403   11.3842   -0.8417 C   0  0  0  0  0  0  0  0  0  0  0  0
   19.2166   12.3941    0.1244 C   0  0  0  0  0  0  0  0  0  0  0  0
   18.1001   12.7802    0.8821 C   0  0  0  0  0  0  0  0  0  0  0  0
   16.8864   12.1020    0.6264 C   0  0  0  0  0  0  0  0  0  0  0  0
   16.8308   11.0604   -0.3205 C   0  0  0  0  0  0  0  0  0  0  0  0
   15.6078   12.4334    1.3499 C   0  0  0  0  0  0  0  0  0  0  0  0
   15.6130   13.8257    1.9527 C   0  0  0  0  0  0  0  0  0  0  0  0
   16.8946   14.0251    2.7451 C   0  0  0  0  0  0  0  0  0  0  0  0
   18.1531   13.9721    1.8384 C   0  0  2  0  0  0  0  0  0  0  0  0
   18.0854   15.1734    1.0547 O   0  0  0  0  0  0  0  0  0  0  0  0
   19.3566   14.0739    2.8285 C   0  0  0  0  0  0  0  0  0  0  0  0
   20.7091   14.2460    2.3347 N   0  0  0  0  0  0  0  0  0  0  0  0
   21.2415   15.0289    1.1004 C   0  0  0  0  0  0  0  0  0  0  0  0
   20.6636   15.5887    0.2519 O   0  0  0  0  0  0  0  0  0  0  0  0
   22.7895   15.0690    1.1958 C   0  0  1  0  0  0  0  0  0  0  0  0
   23.4174   13.3902    1.2845 Cl  0  0  0  0  0  0  0  0  0  0  0  0
   23.4603   15.8226    0.0276 C   0  0  0  0  0  0  0  0  0  0  0  0
   24.0746   17.0269    0.7417 C   0  0  1  0  0  0  0  0  0  0  0  0
   22.9974   17.9718    1.2757 C   0  0  0  0  0  0  0  0  0  0  0  0
   22.5080   17.2284    2.5173 C   0  0  0  0  0  0  0  0  0  0  0  0
   23.2606   15.9010    2.4065 C   0  0  2  0  0  0  0  0  0  0  0  0
   24.5467   16.4060    1.9572 O   0  0  0  0  0  0  0  0  0  0  0  0
  1  2  1  0
  2  3  1  0
  3  4  2  0
  4  5  1  0
  5  6  2  0
  6  7  1  0
  7  8  2  0
  7  9  1  0
  9 10  1  0
 10 11  1  0
 11 12  1  0
 12 13  1  6
 12 14  1  0
 14 15  1  0
 15 16  1  0
 16 17  2  0
 16 18  1  0
 18 19  1  1
 18 20  1  0
 21 20  1  6
 21 22  1  0
 22 23  1  0
 24 23  1  6
 24 25  1  0
  8  3  1  0
 24 18  1  0
 12  6  1  0
 25 21  1  0
M  END
>  <energy_score>  (375) 
-27.639811

>  <inchikey>  (375) 
None

>  <smiles>  (375) 
None

>  <ref_pdb>  (375) 
A0239a

>  <alias>  (375) 
None

>  <HIPPO Pose ID>  (375) 
498019

>  <name>  (375) 
P498019

>  <HIPPO Compound ID>  (375) 
290327

>  <ref_mols>  (375) 
A0239a,A0608a

>  <distance_score>  (375) 
1.564841

>  <inspiration_score>  (375) 
None

$$$$
P498020
     RDKit          3D

 25 28  0  0  0  0  0  0  0  0999 V2000
   23.5199   11.1552   -2.4212 C   0  0  0  0  0  0  0  0  0  0  0  0
   23.0687   12.2040   -1.5732 O   0  0  0  0  0  0  0  0  0  0  0  0
   23.8530   12.5235   -0.5001 C   0  0  0  0  0  0  0  0  0  0  0  0
   24.9394   11.7691   -0.0543 C   0  0  0  0  0  0  0  0  0  0  0  0
   25.6268   12.1448    1.0969 C   0  0  0  0  0  0  0  0  0  0  0  0
   25.2436   13.2876    1.7933 C   0  0  0  0  0  0  0  0  0  0  0  0
   24.1933   14.0966    1.3205 C   0  0  0  0  0  0  0  0  0  0  0  0
   23.4844   13.6988    0.1742 C   0  0  0  0  0  0  0  0  0  0  0  0
   22.2758   14.4911   -0.2742 C   0  0  0  0  0  0  0  0  0  0  0  0
   22.3696   16.0062   -0.0754 C   0  0  0  0  0  0  0  0  0  0  0  0
   23.3733   16.4571    0.9697 C   0  0  0  0  0  0  0  0  0  0  0  0
   23.7932   15.3959    2.0014 C   0  0  2  0  0  0  0  0  0  0  0  0
   24.9472   15.9936    2.6173 O   0  0  0  0  0  0  0  0  0  0  0  0
   22.7362   15.1822    3.1108 C   0  0  0  0  0  0  0  0  0  0  0  0
   21.3368   15.3077    2.7394 N   0  0  0  0  0  0  0  0  0  0  0  0
   20.1570   14.3381    2.9410 C   0  0  0  0  0  0  0  0  0  0  0  0
   20.1350   13.2525    3.3678 O   0  0  0  0  0  0  0  0  0  0  0  0
   18.8374   15.0334    2.4713 C   0  0  2  0  0  0  0  0  0  0  0  0
   17.5261   14.4222    3.0331 C   0  0  0  0  0  0  0  0  0  0  0  0
   17.3042   13.7065    1.6919 C   0  0  2  0  0  0  0  0  0  0  0  0
   15.8654   13.7316    1.1977 C   0  0  0  0  0  0  0  0  0  0  0  0
   15.8300   12.5424    0.2558 C   0  0  0  0  0  0  0  0  0  0  0  0
   16.7184   11.5278    0.9493 C   0  0  0  0  0  0  0  0  0  0  0  0
   17.7127   12.3165    1.6153 O   0  0  0  0  0  0  0  0  0  0  0  0
   18.3043   14.7059    1.0545 C   0  0  0  0  0  0  0  0  0  0  0  0
  1  2  1  0
  2  3  1  0
  3  4  2  0
  4  5  1  0
  5  6  2  0
  6  7  1  0
  7  8  2  0
  8  9  1  0
  9 10  1  0
 10 11  1  0
 11 12  1  0
 12 13  1  1
 12 14  1  0
 14 15  1  0
 15 16  1  0
 16 17  2  0
 18 16  1  1
 18 19  1  0
 20 19  1  1
 20 21  1  0
 21 22  1  0
 22 23  1  0
 23 24  1  0
 20 25  1  0
  8  3  1  0
 25 18  1  0
 12  7  1  0
 20 24  1  0
M  END
>  <energy_score>  (376) 
-14.070454

>  <inchikey>  (376) 
None

>  <smiles>  (376) 
None

>  <ref_pdb>  (376) 
A0239a

>  <alias>  (376) 
None

>  <HIPPO Pose ID>  (376) 
498020

>  <name>  (376) 
P498020

>  <HIPPO Compound ID>  (376) 
290328

>  <ref_mols>  (376) 
A0239a,A0608a

>  <distance_score>  (376) 
1.586661

>  <inspiration_score>  (376) 
None

$$$$
P498021
     RDKit          3D

 25 28  0  0  0  0  0  0  0  0999 V2000
   22.4267   11.6094   -1.9255 C   0  0  0  0  0  0  0  0  0  0  0  0
   23.4713   12.5792   -2.0067 O   0  0  0  0  0  0  0  0  0  0  0  0
   24.0569   12.7503   -0.7839 C   0  0  0  0  0  0  0  0  0  0  0  0
   24.8929   11.7676   -0.2580 C   0  0  0  0  0  0  0  0  0  0  0  0
   25.4449   11.9458    1.0031 C   0  0  0  0  0  0  0  0  0  0  0  0
   25.1075   13.0763    1.7442 C   0  0  0  0  0  0  0  0  0  0  0  0
   24.2706   14.0804    1.2054 C   0  0  0  0  0  0  0  0  0  0  0  0
   23.8300   13.9542   -0.1147 C   0  0  0  0  0  0  0  0  0  0  0  0
   23.1129   15.0879   -0.8077 C   0  0  0  0  0  0  0  0  0  0  0  0
   23.4806   16.4423   -0.1981 C   0  0  0  0  0  0  0  0  0  0  0  0
   23.1323   16.4375    1.2758 C   0  0  0  0  0  0  0  0  0  0  0  0
   23.8315   15.2752    2.0336 C   0  0  2  0  0  0  0  0  0  0  0  0
   25.0537   15.8449    2.5337 O   0  0  0  0  0  0  0  0  0  0  0  0
   22.9375   14.7868    3.2083 C   0  0  0  0  0  0  0  0  0  0  0  0
   21.5020   14.8430    2.9986 N   0  0  0  0  0  0  0  0  0  0  0  0
   20.6177   14.1558    1.9427 C   0  0  0  0  0  0  0  0  0  0  0  0
   20.8905   13.3751    1.1212 O   0  0  0  0  0  0  0  0  0  0  0  0
   19.1774   14.7552    2.0991 C   0  0  1  0  0  0  0  0  0  0  0  0
   18.1666   14.4615    0.9705 C   0  0  0  0  0  0  0  0  0  0  0  0
   17.4661   13.4418    1.8899 C   0  0  1  0  0  0  0  0  0  0  0  0
   15.9478   13.5201    1.8855 C   0  0  0  0  0  0  0  0  0  0  0  0
   15.5957   12.4944    0.8226 C   0  0  0  0  0  0  0  0  0  0  0  0
   16.6169   11.3941    1.0571 C   0  0  0  0  0  0  0  0  0  0  0  0
   17.7706   12.0569    1.5963 O   0  0  0  0  0  0  0  0  0  0  0  0
   18.2099   14.0654    3.0838 C   0  0  0  0  0  0  0  0  0  0  0  0
  1  2  1  0
  2  3  1  0
  3  4  2  0
  4  5  1  0
  5  6  2  0
  6  7  1  0
  7  8  2  0
  8  9  1  0
  9 10  1  0
 10 11  1  0
 11 12  1  0
 12 13  1  1
 12 14  1  0
 14 15  1  0
 15 16  1  0
 16 17  2  0
 18 16  1  6
 18 19  1  0
 20 19  1  6
 20 21  1  0
 21 22  1  0
 22 23  1  0
 23 24  1  0
 20 25  1  0
  8  3  1  0
 25 18  1  0
 12  7  1  0
 20 24  1  0
M  END
>  <energy_score>  (377) 
-23.183503

>  <inchikey>  (377) 
None

>  <smiles>  (377) 
None

>  <ref_pdb>  (377) 
A0239a

>  <alias>  (377) 
None

>  <HIPPO Pose ID>  (377) 
498021

>  <name>  (377) 
P498021

>  <HIPPO Compound ID>  (377) 
290328

>  <ref_mols>  (377) 
A0239a,A0608a

>  <distance_score>  (377) 
1.533197

>  <inspiration_score>  (377) 
None

$$$$
P498022
     RDKit          3D

 25 29  0  0  0  0  0  0  0  0999 V2000
   23.5618   11.2201   -2.4904 C   0  0  0  0  0  0  0  0  0  0  0  0
   23.0873   12.3246   -1.7297 O   0  0  0  0  0  0  0  0  0  0  0  0
   23.7411   12.6115   -0.5639 C   0  0  0  0  0  0  0  0  0  0  0  0
   24.7731   11.8458   -0.0193 C   0  0  0  0  0  0  0  0  0  0  0  0
   25.3166   12.1874    1.2145 C   0  0  0  0  0  0  0  0  0  0  0  0
   24.8215   13.2886    1.9080 C   0  0  0  0  0  0  0  0  0  0  0  0
   23.8126   14.1001    1.3526 C   0  0  0  0  0  0  0  0  0  0  0  0
   23.2888   13.7688    0.0942 C   0  0  0  0  0  0  0  0  0  0  0  0
   22.2089   14.6249   -0.5329 C   0  0  0  0  0  0  0  0  0  0  0  0
   22.2223   16.1150   -0.1676 C   0  0  0  0  0  0  0  0  0  0  0  0
   23.0618   16.4797    1.0392 C   0  0  0  0  0  0  0  0  0  0  0  0
   23.2950   15.3468    2.0445 C   0  0  2  0  0  0  0  0  0  0  0  0
   24.3722   15.8402    2.8634 O   0  0  0  0  0  0  0  0  0  0  0  0
   22.0563   15.0866    2.9480 C   0  0  0  0  0  0  0  0  0  0  0  0
   20.7272   14.8661    2.3942 N   0  0  0  0  0  0  0  0  0  0  0  0
   19.6178   13.8991    2.8227 C   0  0  0  0  0  0  0  0  0  0  0  0
   19.6141   13.0707    3.6368 O   0  0  0  0  0  0  0  0  0  0  0  0
   18.3736   13.9752    2.0075 C   0  0  1  0  0  0  0  0  0  0  0  0
   16.9873   13.6693    2.6013 C   0  0  0  0  0  0  0  0  0  0  0  0
   16.2598   13.4958    1.2518 C   0  0  1  0  0  0  0  0  0  0  0  0
   16.6039   14.7728    0.6187 O   0  0  0  0  0  0  0  0  0  0  0  0
   18.0697   14.7194    0.7496 C   0  0  2  0  0  0  0  0  0  0  0  0
   18.4328   13.2711    0.6774 C   0  0  2  0  0  0  0  0  0  0  0  0
   17.1649   12.5002    0.4734 C   0  0  1  0  0  0  0  0  0  0  0  0
   17.2644   11.2265    1.0626 O   0  0  0  0  0  0  0  0  0  0  0  0
  1  2  1  0
  2  3  1  0
  3  4  2  0
  4  5  1  0
  5  6  2  0
  6  7  1  0
  7  8  2  0
  8  9  1  0
  9 10  1  0
 10 11  1  0
 11 12  1  0
 12 13  1  1
 12 14  1  0
 14 15  1  0
 15 16  1  0
 16 17  2  0
 18 16  1  1
 18 19  1  0
 20 19  1  1
 20 21  1  0
 22 21  1  1
 22 23  1  0
 23 24  1  1
 24 25  1  1
  8  3  1  0
 22 18  1  0
 12  7  1  0
 23 18  1  0
 24 20  1  0
M  END
>  <energy_score>  (378) 
-6.384777

>  <inchikey>  (378) 
None

>  <smiles>  (378) 
None

>  <ref_pdb>  (378) 
A0239a

>  <alias>  (378) 
None

>  <HIPPO Pose ID>  (378) 
498022

>  <name>  (378) 
P498022

>  <HIPPO Compound ID>  (378) 
290330

>  <ref_mols>  (378) 
A0239a,A0608a

>  <distance_score>  (378) 
1.93833

>  <inspiration_score>  (378) 
None

$$$$
P498023
     RDKit          3D

 25 29  0  0  0  0  0  0  0  0999 V2000
   23.0927   11.6062   -2.2284 C   0  0  0  0  0  0  0  0  0  0  0  0
   23.9998   12.6878   -2.0092 O   0  0  0  0  0  0  0  0  0  0  0  0
   24.2651   12.8259   -0.6769 C   0  0  0  0  0  0  0  0  0  0  0  0
   25.0250   11.8751   -0.0023 C   0  0  0  0  0  0  0  0  0  0  0  0
   25.2273   12.0170    1.3622 C   0  0  0  0  0  0  0  0  0  0  0  0
   24.5967   13.0569    2.0458 C   0  0  0  0  0  0  0  0  0  0  0  0
   23.8336   14.0260    1.3578 C   0  0  0  0  0  0  0  0  0  0  0  0
   23.7824   13.9679   -0.0354 C   0  0  0  0  0  0  0  0  0  0  0  0
   23.2060   15.1053   -0.8447 C   0  0  0  0  0  0  0  0  0  0  0  0
   23.2212   16.4314   -0.0814 C   0  0  0  0  0  0  0  0  0  0  0  0
   22.4680   16.2568    1.2197 C   0  0  0  0  0  0  0  0  0  0  0  0
   23.0995   15.1416    2.0852 C   0  0  2  0  0  0  0  0  0  0  0  0
   24.1002   15.8430    2.8564 O   0  0  0  0  0  0  0  0  0  0  0  0
   22.0293   14.5887    3.0646 C   0  0  0  0  0  0  0  0  0  0  0  0
   20.6696   14.2758    2.6221 N   0  0  0  0  0  0  0  0  0  0  0  0
   20.1440   13.8409    1.2489 C   0  0  0  0  0  0  0  0  0  0  0  0
   20.7148   13.5876    0.2704 O   0  0  0  0  0  0  0  0  0  0  0  0
   18.6676   13.6705    1.2617 C   0  0  1  0  0  0  0  0  0  0  0  0
   17.6266   14.7316    1.5946 C   0  0  0  0  0  0  0  0  0  0  0  0
   16.3848   13.8436    1.3308 C   0  0  1  0  0  0  0  0  0  0  0  0
   16.6577   13.3732   -0.0202 O   0  0  0  0  0  0  0  0  0  0  0  0
   18.0082   12.8467    0.1840 C   0  0  2  0  0  0  0  0  0  0  0  0
   18.0662   12.3459    1.5889 C   0  0  2  0  0  0  0  0  0  0  0  0
   16.7086   12.5766    2.1595 C   0  0  2  0  0  0  0  0  0  0  0  0
   15.8807   11.4882    1.8570 O   0  0  0  0  0  0  0  0  0  0  0  0
  1  2  1  0
  2  3  1  0
  3  4  2  0
  4  5  1  0
  5  6  2  0
  6  7  1  0
  7  8  2  0
  8  9  1  0
  9 10  1  0
 10 11  1  0
 11 12  1  0
 12 13  1  1
 12 14  1  0
 14 15  1  0
 15 16  1  0
 16 17  2  0
 18 16  1  6
 18 19  1  0
 20 19  1  1
 20 21  1  0
 22 21  1  1
 22 23  1  0
 23 24  1  1
 24 25  1  6
  8  3  1  0
 22 18  1  0
 12  7  1  0
 23 18  1  0
 24 20  1  0
M  END
>  <energy_score>  (379) 
-11.941298

>  <inchikey>  (379) 
None

>  <smiles>  (379) 
None

>  <ref_pdb>  (379) 
A0239a

>  <alias>  (379) 
None

>  <HIPPO Pose ID>  (379) 
498023

>  <name>  (379) 
P498023

>  <HIPPO Compound ID>  (379) 
290330

>  <ref_mols>  (379) 
A0239a,A0608a

>  <distance_score>  (379) 
1.943231

>  <inspiration_score>  (379) 
None

$$$$
P498024
     RDKit          3D

 25 29  0  0  0  0  0  0  0  0999 V2000
   23.6008   11.3301   -2.6332 C   0  0  0  0  0  0  0  0  0  0  0  0
   23.5616   12.6357   -2.0693 O   0  0  0  0  0  0  0  0  0  0  0  0
   24.0238   12.7567   -0.7878 C   0  0  0  0  0  0  0  0  0  0  0  0
   24.9056   11.8559   -0.1862 C   0  0  0  0  0  0  0  0  0  0  0  0
   25.2997   12.0481    1.1311 C   0  0  0  0  0  0  0  0  0  0  0  0
   24.7731   13.1124    1.8551 C   0  0  0  0  0  0  0  0  0  0  0  0
   23.8964   14.0431    1.2542 C   0  0  0  0  0  0  0  0  0  0  0  0
   23.5656   13.8926   -0.0966 C   0  0  0  0  0  0  0  0  0  0  0  0
   22.7991   14.9618   -0.8559 C   0  0  0  0  0  0  0  0  0  0  0  0
   22.1165   16.0570   -0.0320 C   0  0  0  0  0  0  0  0  0  0  0  0
   22.8831   16.3947    1.2214 C   0  0  0  0  0  0  0  0  0  0  0  0
   23.2706   15.1662    2.0529 C   0  0  2  0  0  0  0  0  0  0  0  0
   24.3227   15.6579    2.9125 O   0  0  0  0  0  0  0  0  0  0  0  0
   22.1196   14.6204    2.9508 C   0  0  0  0  0  0  0  0  0  0  0  0
   20.7316   14.4806    2.5150 N   0  0  0  0  0  0  0  0  0  0  0  0
   20.1292   13.6981    1.3403 C   0  0  0  0  0  0  0  0  0  0  0  0
   20.6468   13.1030    0.4874 O   0  0  0  0  0  0  0  0  0  0  0  0
   18.6428   13.6423    1.4025 C   0  0  2  0  0  0  0  0  0  0  0  0
   17.6874   14.2730    0.3908 C   0  0  0  0  0  0  0  0  0  0  0  0
   16.4142   13.5377    0.8855 C   0  0  2  0  0  0  0  0  0  0  0  0
   16.4550   13.8642    2.3265 O   0  0  0  0  0  0  0  0  0  0  0  0
   17.8131   13.4064    2.6312 C   0  0  1  0  0  0  0  0  0  0  0  0
   18.0857   12.2725    1.6950 C   0  0  1  0  0  0  0  0  0  0  0  0
   16.8804   12.0548    0.8471 C   0  0  1  0  0  0  0  0  0  0  0  0
   16.0057   11.1716    1.4969 O   0  0  0  0  0  0  0  0  0  0  0  0
  1  2  1  0
  2  3  1  0
  3  4  2  0
  4  5  1  0
  5  6  2  0
  6  7  1  0
  7  8  2  0
  8  9  1  0
  9 10  1  0
 10 11  1  0
 11 12  1  0
 12 13  1  1
 12 14  1  0
 14 15  1  0
 15 16  1  0
 16 17  2  0
 18 16  1  1
 18 19  1  0
 20 19  1  6
 20 21  1  0
 22 21  1  6
 22 23  1  0
 23 24  1  6
 24 25  1  1
  8  3  1  0
 22 18  1  0
 12  7  1  0
 23 18  1  0
 24 20  1  0
M  END
>  <energy_score>  (380) 
-14.606099

>  <inchikey>  (380) 
None

>  <smiles>  (380) 
None

>  <ref_pdb>  (380) 
A0239a

>  <alias>  (380) 
None

>  <HIPPO Pose ID>  (380) 
498024

>  <name>  (380) 
P498024

>  <HIPPO Compound ID>  (380) 
290330

>  <ref_mols>  (380) 
A0239a,A0608a

>  <distance_score>  (380) 
1.870404

>  <inspiration_score>  (380) 
None

$$$$
P498025
     RDKit          3D

 25 28  0  0  0  0  0  0  0  0999 V2000
   24.1547   11.1356   -2.5454 C   0  0  0  0  0  0  0  0  0  0  0  0
   23.8028   12.3867   -1.9666 O   0  0  0  0  0  0  0  0  0  0  0  0
   24.2009   12.6127   -0.6798 C   0  0  0  0  0  0  0  0  0  0  0  0
   25.0127   11.7656    0.0696 C   0  0  0  0  0  0  0  0  0  0  0  0
   25.2822   12.0648    1.4002 C   0  0  0  0  0  0  0  0  0  0  0  0
   24.6850   13.1725    1.9971 C   0  0  0  0  0  0  0  0  0  0  0  0
   23.8689   14.0465    1.2506 C   0  0  0  0  0  0  0  0  0  0  0  0
   23.7196   13.8081   -0.1235 C   0  0  0  0  0  0  0  0  0  0  0  0
   23.0594   14.8277   -1.0323 C   0  0  0  0  0  0  0  0  0  0  0  0
   23.0598   16.2337   -0.4308 C   0  0  0  0  0  0  0  0  0  0  0  0
   22.3882   16.1499    0.9202 C   0  0  0  0  0  0  0  0  0  0  0  0
   23.2047   15.2634    1.8900 C   0  0  2  0  0  0  0  0  0  0  0  0
   24.2589   16.1333    2.3536 O   0  0  0  0  0  0  0  0  0  0  0  0
   22.3139   14.8754    3.1047 C   0  0  0  0  0  0  0  0  0  0  0  0
   20.8645   14.9340    2.9201 N   0  0  0  0  0  0  0  0  0  0  0  0
   19.7604   13.9492    3.3501 C   0  0  0  0  0  0  0  0  0  0  0  0
   19.8375   12.9012    3.8501 O   0  0  0  0  0  0  0  0  0  0  0  0
   18.4067   14.5130    2.9718 C   0  0  0  0  0  0  0  0  0  0  0  0
   18.0262   14.1775    1.5385 C   0  0  1  0  0  0  0  0  0  0  0  0
   18.0594   12.6849    1.1338 C   0  0  0  0  0  0  0  0  0  0  0  0
   16.6562   12.4631    0.5314 C   0  0  1  0  0  0  0  0  0  0  0  0
   15.6590   12.4627    1.6742 C   0  0  0  0  0  0  0  0  0  0  0  0
   15.6959   13.8304    2.1605 O   0  0  0  0  0  0  0  0  0  0  0  0
   16.5611   14.5364    1.2341 C   0  0  2  0  0  0  0  0  0  0  0  0
   16.3267   13.8125   -0.0767 C   0  0  0  0  0  0  0  0  0  0  0  0
  1  2  1  0
  2  3  1  0
  3  4  2  0
  4  5  1  0
  5  6  2  0
  6  7  1  0
  7  8  2  0
  8  9  1  0
  9 10  1  0
 10 11  1  0
 11 12  1  0
 12 13  1  1
 12 14  1  0
 14 15  1  0
 15 16  1  0
 16 17  2  0
 16 18  1  0
 19 18  1  1
 19 20  1  0
 21 20  1  1
 21 22  1  0
 22 23  1  0
 24 23  1  1
 24 25  1  0
  8  3  1  0
 24 19  1  0
 12  7  1  0
 25 21  1  0
M  END
>  <energy_score>  (381) 
-28.350719

>  <inchikey>  (381) 
None

>  <smiles>  (381) 
None

>  <ref_pdb>  (381) 
A0239a

>  <alias>  (381) 
None

>  <HIPPO Pose ID>  (381) 
498025

>  <name>  (381) 
P498025

>  <HIPPO Compound ID>  (381) 
290333

>  <ref_mols>  (381) 
A0239a,A0608a

>  <distance_score>  (381) 
1.828491

>  <inspiration_score>  (381) 
None

$$$$
P498026
     RDKit          3D

 25 28  0  0  0  0  0  0  0  0999 V2000
   23.5219   11.1885   -2.4054 C   0  0  0  0  0  0  0  0  0  0  0  0
   23.0649   12.2157   -1.5338 O   0  0  0  0  0  0  0  0  0  0  0  0
   23.8572   12.5249   -0.4634 C   0  0  0  0  0  0  0  0  0  0  0  0
   24.9402   11.7604   -0.0273 C   0  0  0  0  0  0  0  0  0  0  0  0
   25.6331   12.1225    1.1250 C   0  0  0  0  0  0  0  0  0  0  0  0
   25.2577   13.2608    1.8333 C   0  0  0  0  0  0  0  0  0  0  0  0
   24.2116   14.0805    1.3704 C   0  0  0  0  0  0  0  0  0  0  0  0
   23.5001   13.6981    0.2206 C   0  0  0  0  0  0  0  0  0  0  0  0
   22.3072   14.5122   -0.2273 C   0  0  0  0  0  0  0  0  0  0  0  0
   22.4343   16.0249   -0.0306 C   0  0  0  0  0  0  0  0  0  0  0  0
   23.4221   16.4555    1.0387 C   0  0  0  0  0  0  0  0  0  0  0  0
   23.8224   15.3775    2.0618 C   0  0  2  0  0  0  0  0  0  0  0  0
   24.9786   15.9508    2.6946 O   0  0  0  0  0  0  0  0  0  0  0  0
   22.7499   15.1710    3.1586 C   0  0  0  0  0  0  0  0  0  0  0  0
   21.3577   15.2328    2.7434 N   0  0  0  0  0  0  0  0  0  0  0  0
   20.2024   14.2318    2.9579 C   0  0  0  0  0  0  0  0  0  0  0  0
   20.1671   13.2392    3.5658 O   0  0  0  0  0  0  0  0  0  0  0  0
   18.9945   14.7546    2.1919 C   0  0  0  0  0  0  0  0  0  0  0  0
   17.8230   13.7758    2.3310 C   0  0  2  0  0  0  0  0  0  0  0  0
   17.9500   12.4913    1.4761 C   0  0  0  0  0  0  0  0  0  0  0  0
   16.6066   12.4550    0.7220 C   0  0  2  0  0  0  0  0  0  0  0  0
   16.6483   13.5585   -0.3227 C   0  0  0  0  0  0  0  0  0  0  0  0
   16.6443   14.7746    0.4706 O   0  0  0  0  0  0  0  0  0  0  0  0
   16.4851   14.3376    1.8387 C   0  0  1  0  0  0  0  0  0  0  0  0
   15.6421   13.0817    1.7121 C   0  0  0  0  0  0  0  0  0  0  0  0
  1  2  1  0
  2  3  1  0
  3  4  2  0
  4  5  1  0
  5  6  2  0
  6  7  1  0
  7  8  2  0
  8  9  1  0
  9 10  1  0
 10 11  1  0
 11 12  1  0
 12 13  1  1
 12 14  1  0
 14 15  1  0
 15 16  1  0
 16 17  2  0
 16 18  1  0
 19 18  1  6
 19 20  1  0
 21 20  1  1
 21 22  1  0
 22 23  1  0
 24 23  1  6
 24 25  1  0
  8  3  1  0
 24 19  1  0
 12  7  1  0
 25 21  1  0
M  END
>  <energy_score>  (382) 
-17.200615

>  <inchikey>  (382) 
None

>  <smiles>  (382) 
None

>  <ref_pdb>  (382) 
A0239a

>  <alias>  (382) 
None

>  <HIPPO Pose ID>  (382) 
498026

>  <name>  (382) 
P498026

>  <HIPPO Compound ID>  (382) 
290333

>  <ref_mols>  (382) 
A0239a,A0608a

>  <distance_score>  (382) 
1.607203

>  <inspiration_score>  (382) 
None

$$$$
P498027
     RDKit          3D

 25 28  0  0  0  0  0  0  0  0999 V2000
   23.5319   11.1796   -2.4215 C   0  0  0  0  0  0  0  0  0  0  0  0
   23.0745   12.2291   -1.5772 O   0  0  0  0  0  0  0  0  0  0  0  0
   23.8501   12.5447   -0.4963 C   0  0  0  0  0  0  0  0  0  0  0  0
   24.9115   11.7705   -0.0257 C   0  0  0  0  0  0  0  0  0  0  0  0
   25.5825   12.1374    1.1374 C   0  0  0  0  0  0  0  0  0  0  0  0
   25.2052   13.2886    1.8229 C   0  0  0  0  0  0  0  0  0  0  0  0
   24.1826   14.1185    1.3248 C   0  0  0  0  0  0  0  0  0  0  0  0
   23.4956   13.7350    0.1606 C   0  0  0  0  0  0  0  0  0  0  0  0
   22.3300   14.5604   -0.3406 C   0  0  0  0  0  0  0  0  0  0  0  0
   22.4340   16.0706   -0.1108 C   0  0  0  0  0  0  0  0  0  0  0  0
   23.4194   16.4969    0.9609 C   0  0  0  0  0  0  0  0  0  0  0  0
   23.7964   15.4257    1.9977 C   0  0  2  0  0  0  0  0  0  0  0  0
   24.9492   15.9957    2.6404 O   0  0  0  0  0  0  0  0  0  0  0  0
   22.7122   15.2412    3.0853 C   0  0  0  0  0  0  0  0  0  0  0  0
   21.3247   15.2640    2.6577 N   0  0  0  0  0  0  0  0  0  0  0  0
   20.1887   14.2446    2.8861 C   0  0  0  0  0  0  0  0  0  0  0  0
   20.1685   13.2661    3.5170 O   0  0  0  0  0  0  0  0  0  0  0  0
   18.9745   14.7356    2.1105 C   0  0  0  0  0  0  0  0  0  0  0  0
   17.8097   13.7557    2.2846 C   0  0  2  0  0  0  0  0  0  0  0  0
   17.9313   12.4569    1.4515 C   0  0  0  0  0  0  0  0  0  0  0  0
   16.5809   12.4055    0.7111 C   0  0  2  0  0  0  0  0  0  0  0  0
   16.6089   13.4925   -0.3515 C   0  0  0  0  0  0  0  0  0  0  0  0
   16.6070   14.7211    0.4222 O   0  0  0  0  0  0  0  0  0  0  0  0
   16.4643   14.3051    1.7986 C   0  0  1  0  0  0  0  0  0  0  0  0
   15.6246   13.0449    1.7010 C   0  0  0  0  0  0  0  0  0  0  0  0
  1  2  1  0
  2  3  1  0
  3  4  2  0
  4  5  1  0
  5  6  2  0
  6  7  1  0
  7  8  2  0
  8  9  1  0
  9 10  1  0
 10 11  1  0
 11 12  1  0
 12 13  1  1
 12 14  1  0
 14 15  1  0
 15 16  1  0
 16 17  2  0
 16 18  1  0
 19 18  1  6
 19 20  1  0
 21 20  1  1
 21 22  1  0
 22 23  1  0
 24 23  1  6
 24 25  1  0
  8  3  1  0
 24 19  1  0
 12  7  1  0
 25 21  1  0
M  END
>  <energy_score>  (383) 
-42.388843

>  <inchikey>  (383) 
None

>  <smiles>  (383) 
None

>  <ref_pdb>  (383) 
A0239a

>  <alias>  (383) 
None

>  <HIPPO Pose ID>  (383) 
498027

>  <name>  (383) 
P498027

>  <HIPPO Compound ID>  (383) 
290333

>  <ref_mols>  (383) 
A0239a,A0608a

>  <distance_score>  (383) 
1.759969

>  <inspiration_score>  (383) 
None

$$$$
P498028
     RDKit          3D

 26 28  0  0  0  0  0  0  0  0999 V2000
   23.9313   11.1118   -2.4845 C   0  0  0  0  0  0  0  0  0  0  0  0
   23.7174   12.3939   -1.9079 O   0  0  0  0  0  0  0  0  0  0  0  0
   24.2273   12.6131   -0.6595 C   0  0  0  0  0  0  0  0  0  0  0  0
   25.0088   11.7130    0.0590 C   0  0  0  0  0  0  0  0  0  0  0  0
   25.3988   12.0159    1.3597 C   0  0  0  0  0  0  0  0  0  0  0  0
   24.9620   13.1938    1.9599 C   0  0  0  0  0  0  0  0  0  0  0  0
   24.1897   14.1273    1.2407 C   0  0  0  0  0  0  0  0  0  0  0  0
   23.9074   13.8637   -0.1092 C   0  0  0  0  0  0  0  0  0  0  0  0
   23.2786   14.9171   -0.9997 C   0  0  0  0  0  0  0  0  0  0  0  0
   23.5127   16.3314   -0.4705 C   0  0  0  0  0  0  0  0  0  0  0  0
   22.9556   16.3921    0.9310 C   0  0  0  0  0  0  0  0  0  0  0  0
   23.7110   15.4255    1.8852 C   0  0  2  0  0  0  0  0  0  0  0  0
   24.8765   16.1742    2.2789 O   0  0  0  0  0  0  0  0  0  0  0  0
   22.8450   15.1641    3.1531 C   0  0  0  0  0  0  0  0  0  0  0  0
   21.4332   15.4376    2.9579 N   0  0  0  0  0  0  0  0  0  0  0  0
   20.2290   14.4738    2.8556 C   0  0  0  0  0  0  0  0  0  0  0  0
   20.1740   13.3193    2.9886 O   0  0  0  0  0  0  0  0  0  0  0  0
   19.0423   15.3488    2.4920 C   0  0  0  0  0  0  0  0  0  0  0  0
   17.7368   14.5672    2.3613 C   0  0  0  0  0  0  0  0  0  0  0  0
   17.4922   14.1100    0.9258 C   0  0  2  0  0  0  0  0  0  0  0  0
   16.0082   14.0481    0.5661 C   0  0  0  0  0  0  0  0  0  0  0  0
   15.7121   12.5644    0.4824 C   0  0  0  0  0  0  0  0  0  0  0  0
   14.5656   12.2487   -0.4694 C   0  0  0  0  0  0  0  0  0  0  0  0
   15.3696   12.0180    1.8584 C   0  0  0  0  0  0  0  0  0  0  0  0
   17.0546   12.0130    0.0269 C   0  0  0  0  0  0  0  0  0  0  0  0
   18.0337   12.7950    0.7262 O   0  0  0  0  0  0  0  0  0  0  0  0
  1  2  1  0
  2  3  1  0
  3  4  2  0
  4  5  1  0
  5  6  2  0
  6  7  1  0
  7  8  2  0
  8  9  1  0
  9 10  1  0
 10 11  1  0
 11 12  1  0
 12 13  1  1
 12 14  1  0
 14 15  1  0
 15 16  1  0
 16 17  2  0
 16 18  1  0
 18 19  1  0
 20 19  1  1
 20 21  1  0
 21 22  1  0
 22 23  1  0
 22 24  1  0
 22 25  1  0
 25 26  1  0
  8  3  1  0
 26 20  1  0
 12  7  1  0
M  END
>  <energy_score>  (384) 
-23.538152

>  <inchikey>  (384) 
None

>  <smiles>  (384) 
None

>  <ref_pdb>  (384) 
A0239a

>  <alias>  (384) 
None

>  <HIPPO Pose ID>  (384) 
498028

>  <name>  (384) 
P498028

>  <HIPPO Compound ID>  (384) 
290342

>  <ref_mols>  (384) 
A0239a,A0608a

>  <distance_score>  (384) 
1.689061

>  <inspiration_score>  (384) 
None

$$$$
P498029
     RDKit          3D

 26 28  0  0  0  0  0  0  0  0999 V2000
   23.7023   11.0913   -2.5426 C   0  0  0  0  0  0  0  0  0  0  0  0
   23.3191   12.2152   -1.7595 O   0  0  0  0  0  0  0  0  0  0  0  0
   24.0494   12.4743   -0.6339 C   0  0  0  0  0  0  0  0  0  0  0  0
   25.1187   11.7036   -0.1757 C   0  0  0  0  0  0  0  0  0  0  0  0
   25.7357   12.0124    1.0344 C   0  0  0  0  0  0  0  0  0  0  0  0
   25.2826   13.0888    1.7916 C   0  0  0  0  0  0  0  0  0  0  0  0
   24.2427   13.9076    1.3165 C   0  0  0  0  0  0  0  0  0  0  0  0
   23.6348   13.6029    0.0879 C   0  0  0  0  0  0  0  0  0  0  0  0
   22.4622   14.4290   -0.3894 C   0  0  0  0  0  0  0  0  0  0  0  0
   22.5615   15.9211   -0.0650 C   0  0  0  0  0  0  0  0  0  0  0  0
   23.2966   16.2568    1.2221 C   0  0  0  0  0  0  0  0  0  0  0  0
   23.6743   15.0646    2.1201 C   0  0  2  0  0  0  0  0  0  0  0  0
   24.6865   15.6217    2.9706 O   0  0  0  0  0  0  0  0  0  0  0  0
   22.5107   14.5595    3.0161 C   0  0  0  0  0  0  0  0  0  0  0  0
   21.1492   14.8002    2.5746 N   0  0  0  0  0  0  0  0  0  0  0  0
   19.8238   14.0904    2.9615 C   0  0  0  0  0  0  0  0  0  0  0  0
   19.6355   13.1551    3.6347 O   0  0  0  0  0  0  0  0  0  0  0  0
   18.6292   14.8897    2.3342 C   0  0  0  0  0  0  0  0  0  0  0  0
   18.8871   16.4095    2.4000 C   0  0  0  0  0  0  0  0  0  0  0  0
   17.3648   14.6429    3.1700 C   0  0  0  0  0  0  0  0  0  0  0  0
   18.4256   14.5115    0.8552 C   0  0  0  0  0  0  0  0  0  0  0  0
   17.6607   13.2595    0.4578 C   0  0  2  0  0  0  0  0  0  0  0  0
   16.1432   13.3177    0.5076 C   0  0  0  0  0  0  0  0  0  0  0  0
   15.8024   11.8565    0.3542 C   0  0  0  0  0  0  0  0  0  0  0  0
   16.9662   11.1534    1.0319 C   0  0  0  0  0  0  0  0  0  0  0  0
   18.0237   12.1095    1.2084 O   0  0  0  0  0  0  0  0  0  0  0  0
  1  2  1  0
  2  3  1  0
  3  4  2  0
  4  5  1  0
  5  6  2  0
  6  7  1  0
  7  8  2  0
  8  9  1  0
  9 10  1  0
 10 11  1  0
 11 12  1  0
 12 13  1  1
 12 14  1  0
 14 15  1  0
 15 16  1  0
 16 17  2  0
 16 18  1  0
 18 19  1  0
 18 20  1  0
 18 21  1  0
 22 21  1  1
 22 23  1  0
 23 24  1  0
 24 25  1  0
 25 26  1  0
  8  3  1  0
 26 22  1  0
 12  7  1  0
M  END
>  <energy_score>  (385) 
-19.940724

>  <inchikey>  (385) 
None

>  <smiles>  (385) 
None

>  <ref_pdb>  (385) 
A0239a

>  <alias>  (385) 
None

>  <HIPPO Pose ID>  (385) 
498029

>  <name>  (385) 
P498029

>  <HIPPO Compound ID>  (385) 
290343

>  <ref_mols>  (385) 
A0239a,A0608a

>  <distance_score>  (385) 
1.727352

>  <inspiration_score>  (385) 
None

$$$$
P498030
     RDKit          3D

 26 28  0  0  0  0  0  0  0  0999 V2000
   23.6354   10.8085   -2.3060 C   0  0  0  0  0  0  0  0  0  0  0  0
   24.4954   10.9119   -1.1774 O   0  0  0  0  0  0  0  0  0  0  0  0
   24.5101   12.0977   -0.5183 C   0  0  0  0  0  0  0  0  0  0  0  0
   24.9669   12.0519    0.7948 C   0  0  0  0  0  0  0  0  0  0  0  0
   24.9052   13.1790    1.5948 C   0  0  0  0  0  0  0  0  0  0  0  0
   24.3783   14.3726    1.0766 C   0  0  0  0  0  0  0  0  0  0  0  0
   24.0346   14.4452   -0.2820 C   0  0  0  0  0  0  0  0  0  0  0  0
   24.1173   13.3015   -1.0760 C   0  0  0  0  0  0  0  0  0  0  0  0
   23.5314   15.7274   -0.9014 C   0  0  0  0  0  0  0  0  0  0  0  0
   22.7619   16.6104    0.0779 C   0  0  0  0  0  0  0  0  0  0  0  0
   23.5742   16.8302    1.3355 C   0  0  0  0  0  0  0  0  0  0  0  0
   24.0795   15.5340    2.0036 C   0  0  2  0  0  0  0  0  0  0  0  0
   25.3202   15.9347    2.6122 O   0  0  0  0  0  0  0  0  0  0  0  0
   23.1445   15.0872    3.1535 C   0  0  0  0  0  0  0  0  0  0  0  0
   21.7169   14.9990    2.9342 N   0  0  0  0  0  0  0  0  0  0  0  0
   20.9095   14.2576    1.8339 C   0  0  0  0  0  0  0  0  0  0  0  0
   21.2754   13.6700    0.8941 O   0  0  0  0  0  0  0  0  0  0  0  0
   19.3937   14.4246    2.1723 C   0  0  0  0  0  0  0  0  0  0  0  0
   19.0519   15.9160    2.2973 C   0  0  0  0  0  0  0  0  0  0  0  0
   19.0765   13.6896    3.4705 C   0  0  0  0  0  0  0  0  0  0  0  0
   18.5361   13.8222    1.0198 C   0  0  0  0  0  0  0  0  0  0  0  0
   17.0582   13.5936    1.3589 C   0  0  1  0  0  0  0  0  0  0  0  0
   16.1576   13.6310    0.1318 C   0  0  0  0  0  0  0  0  0  0  0  0
   15.1924   12.5015    0.3816 C   0  0  0  0  0  0  0  0  0  0  0  0
   16.0903   11.4968    1.0556 C   0  0  0  0  0  0  0  0  0  0  0  0
   16.9160   12.2759    1.9266 O   0  0  0  0  0  0  0  0  0  0  0  0
  1  2  1  0
  2  3  1  0
  3  4  2  0
  4  5  1  0
  5  6  2  0
  6  7  1  0
  7  8  2  0
  7  9  1  0
  9 10  1  0
 10 11  1  0
 11 12  1  0
 12 13  1  1
 12 14  1  0
 14 15  1  0
 15 16  1  0
 16 17  2  0
 16 18  1  0
 18 19  1  0
 18 20  1  0
 18 21  1  0
 22 21  1  6
 22 23  1  0
 23 24  1  0
 24 25  1  0
 25 26  1  0
  8  3  1  0
 26 22  1  0
 12  6  1  0
M  END
>  <energy_score>  (386) 
-23.01349

>  <inchikey>  (386) 
None

>  <smiles>  (386) 
None

>  <ref_pdb>  (386) 
A0239a

>  <alias>  (386) 
None

>  <HIPPO Pose ID>  (386) 
498030

>  <name>  (386) 
P498030

>  <HIPPO Compound ID>  (386) 
290344

>  <ref_mols>  (386) 
A0239a,A0608a

>  <distance_score>  (386) 
1.983284

>  <inspiration_score>  (386) 
None

$$$$
P498031
     RDKit          3D

 26 28  0  0  0  0  0  0  0  0999 V2000
   23.8179   11.1941   -2.4670 C   0  0  0  0  0  0  0  0  0  0  0  0
   23.5688   12.4598   -1.8677 O   0  0  0  0  0  0  0  0  0  0  0  0
   24.0886   12.6801   -0.6241 C   0  0  0  0  0  0  0  0  0  0  0  0
   24.8770   11.7802    0.0870 C   0  0  0  0  0  0  0  0  0  0  0  0
   25.2766   12.0822    1.3845 C   0  0  0  0  0  0  0  0  0  0  0  0
   24.8453   13.2606    1.9881 C   0  0  0  0  0  0  0  0  0  0  0  0
   24.0714   14.1983    1.2751 C   0  0  0  0  0  0  0  0  0  0  0  0
   23.7733   13.9313   -0.0703 C   0  0  0  0  0  0  0  0  0  0  0  0
   23.1460   14.9918   -0.9536 C   0  0  0  0  0  0  0  0  0  0  0  0
   23.4493   16.4032   -0.4504 C   0  0  0  0  0  0  0  0  0  0  0  0
   22.9263   16.5146    0.9623 C   0  0  0  0  0  0  0  0  0  0  0  0
   23.6388   15.5168    1.9119 C   0  0  2  0  0  0  0  0  0  0  0  0
   24.8376   16.2081    2.3082 O   0  0  0  0  0  0  0  0  0  0  0  0
   22.7618   15.3075    3.1770 C   0  0  0  0  0  0  0  0  0  0  0  0
   21.3244   15.2470    2.9482 N   0  0  0  0  0  0  0  0  0  0  0  0
   20.2882   14.1670    3.3436 C   0  0  0  0  0  0  0  0  0  0  0  0
   20.4126   13.1975    3.9795 O   0  0  0  0  0  0  0  0  0  0  0  0
   18.9512   14.5308    2.6857 C   0  0  0  0  0  0  0  0  0  0  0  0
   19.0673   15.6546    1.9316 F   0  0  0  0  0  0  0  0  0  0  0  0
   17.9715   14.7983    3.5916 F   0  0  0  0  0  0  0  0  0  0  0  0
   18.5547   13.3557    1.8174 C   0  0  0  0  0  0  0  0  0  0  0  0
   17.2427   13.5344    1.0925 C   0  0  2  0  0  0  0  0  0  0  0  0
   16.0094   13.5804    1.9823 C   0  0  0  0  0  0  0  0  0  0  0  0
   14.9859   12.8590    1.1425 C   0  0  0  0  0  0  0  0  0  0  0  0
   15.8231   11.7725    0.5102 C   0  0  0  0  0  0  0  0  0  0  0  0
   17.0953   12.3723    0.2483 O   0  0  0  0  0  0  0  0  0  0  0  0
  1  2  1  0
  2  3  1  0
  3  4  2  0
  4  5  1  0
  5  6  2  0
  6  7  1  0
  7  8  2  0
  8  9  1  0
  9 10  1  0
 10 11  1  0
 11 12  1  0
 12 13  1  1
 12 14  1  0
 14 15  1  0
 15 16  1  0
 16 17  2  0
 16 18  1  0
 18 19  1  0
 18 20  1  0
 18 21  1  0
 22 21  1  1
 22 23  1  0
 23 24  1  0
 24 25  1  0
 25 26  1  0
  8  3  1  0
 26 22  1  0
 12  7  1  0
M  END
>  <energy_score>  (387) 
-26.82127

>  <inchikey>  (387) 
None

>  <smiles>  (387) 
None

>  <ref_pdb>  (387) 
A0239a

>  <alias>  (387) 
None

>  <HIPPO Pose ID>  (387) 
498031

>  <name>  (387) 
P498031

>  <HIPPO Compound ID>  (387) 
290345

>  <ref_mols>  (387) 
A0239a,A0608a

>  <distance_score>  (387) 
1.774035

>  <inspiration_score>  (387) 
None

$$$$
P498032
     RDKit          3D

 26 28  0  0  0  0  0  0  0  0999 V2000
   21.4422   12.4883   -0.9831 C   0  0  0  0  0  0  0  0  0  0  0  0
   22.7721   12.6626   -1.4729 O   0  0  0  0  0  0  0  0  0  0  0  0
   23.6443   12.9159   -0.4531 C   0  0  0  0  0  0  0  0  0  0  0  0
   24.6176   11.9535   -0.1919 C   0  0  0  0  0  0  0  0  0  0  0  0
   25.4693   12.1187    0.8920 C   0  0  0  0  0  0  0  0  0  0  0  0
   25.3278   13.2385    1.7090 C   0  0  0  0  0  0  0  0  0  0  0  0
   24.3818   14.2426    1.4076 C   0  0  0  0  0  0  0  0  0  0  0  0
   23.5664   14.1056    0.2790 C   0  0  0  0  0  0  0  0  0  0  0  0
   22.5824   15.1848   -0.1087 C   0  0  0  0  0  0  0  0  0  0  0  0
   22.9077   16.6092    0.3410 C   0  0  0  0  0  0  0  0  0  0  0  0
   23.9177   16.7227    1.4680 C   0  0  0  0  0  0  0  0  0  0  0  0
   24.1722   15.4525    2.2916 C   0  0  2  0  0  0  0  0  0  0  0  0
   25.4105   15.7177    2.9624 O   0  0  0  0  0  0  0  0  0  0  0  0
   23.0596   15.1707    3.3344 C   0  0  0  0  0  0  0  0  0  0  0  0
   21.6753   15.3236    2.9310 N   0  0  0  0  0  0  0  0  0  0  0  0
   20.4585   14.3637    3.1049 C   0  0  0  0  0  0  0  0  0  0  0  0
   20.3745   13.3417    3.6666 O   0  0  0  0  0  0  0  0  0  0  0  0
   19.2451   15.0355    2.4249 C   0  0  0  0  0  0  0  0  0  0  0  0
   19.6607   16.1357    1.7377 F   0  0  0  0  0  0  0  0  0  0  0  0
   18.3269   15.5118    3.3157 F   0  0  0  0  0  0  0  0  0  0  0  0
   18.5712   14.0888    1.4473 C   0  0  0  0  0  0  0  0  0  0  0  0
   17.6149   13.1278    2.1371 C   0  0  1  0  0  0  0  0  0  0  0  0
   16.1588   13.5734    2.0676 C   0  0  0  0  0  0  0  0  0  0  0  0
   15.6447   12.8658    0.8380 C   0  0  0  0  0  0  0  0  0  0  0  0
   16.4040   11.5609    0.8917 C   0  0  0  0  0  0  0  0  0  0  0  0
   17.6943   11.8751    1.4295 O   0  0  0  0  0  0  0  0  0  0  0  0
  1  2  1  0
  2  3  1  0
  3  4  2  0
  4  5  1  0
  5  6  2  0
  6  7  1  0
  7  8  2  0
  8  9  1  0
  9 10  1  0
 10 11  1  0
 11 12  1  0
 12 13  1  1
 12 14  1  0
 14 15  1  0
 15 16  1  0
 16 17  2  0
 16 18  1  0
 18 19  1  0
 18 20  1  0
 18 21  1  0
 22 21  1  6
 22 23  1  0
 23 24  1  0
 24 25  1  0
 25 26  1  0
  8  3  1  0
 26 22  1  0
 12  7  1  0
M  END
>  <energy_score>  (388) 
-20.169065

>  <inchikey>  (388) 
None

>  <smiles>  (388) 
None

>  <ref_pdb>  (388) 
A0239a

>  <alias>  (388) 
None

>  <HIPPO Pose ID>  (388) 
498032

>  <name>  (388) 
P498032

>  <HIPPO Compound ID>  (388) 
290345

>  <ref_mols>  (388) 
A0239a,A0608a

>  <distance_score>  (388) 
1.72702

>  <inspiration_score>  (388) 
None

$$$$
P498033
     RDKit          3D

 26 29  0  0  0  0  0  0  0  0999 V2000
   23.8257   11.2241   -2.5590 C   0  0  0  0  0  0  0  0  0  0  0  0
   23.3883   12.3688   -1.8362 O   0  0  0  0  0  0  0  0  0  0  0  0
   23.9644   12.5975   -0.6180 C   0  0  0  0  0  0  0  0  0  0  0  0
   24.9547   11.8030   -0.0397 C   0  0  0  0  0  0  0  0  0  0  0  0
   25.4064   12.0819    1.2461 C   0  0  0  0  0  0  0  0  0  0  0  0
   24.8446   13.1336    1.9651 C   0  0  0  0  0  0  0  0  0  0  0  0
   23.8704   13.9663    1.3832 C   0  0  0  0  0  0  0  0  0  0  0  0
   23.4696   13.7226    0.0617 C   0  0  0  0  0  0  0  0  0  0  0  0
   22.4629   14.6307   -0.6084 C   0  0  0  0  0  0  0  0  0  0  0  0
   22.4848   16.0944   -0.1491 C   0  0  0  0  0  0  0  0  0  0  0  0
   23.0565   16.3463    1.2358 C   0  0  0  0  0  0  0  0  0  0  0  0
   23.2151   15.1110    2.1334 C   0  0  2  0  0  0  0  0  0  0  0  0
   24.1372   15.5363    3.1476 O   0  0  0  0  0  0  0  0  0  0  0  0
   21.8735   14.6770    2.8061 C   0  0  0  0  0  0  0  0  0  0  0  0
   20.6584   14.6416    2.0017 N   0  0  0  0  0  0  0  0  0  0  0  0
   19.5076   13.6010    1.9602 C   0  0  0  0  0  0  0  0  0  0  0  0
   19.3199   12.6562    2.6167 O   0  0  0  0  0  0  0  0  0  0  0  0
   18.5088   14.0684    0.9241 C   0  0  2  0  0  0  0  0  0  0  0  0
   17.7003   15.2378    1.4993 C   0  0  0  0  0  0  0  0  0  0  0  0
   16.2734   14.7382    1.3425 C   0  0  1  0  0  0  0  0  0  0  0  0
   16.4024   14.0500    0.0685 O   0  0  0  0  0  0  0  0  0  0  0  0
   17.4024   13.0782    0.4946 C   0  0  2  0  0  0  0  0  0  0  0  0
   16.5794   12.3947    1.5930 C   0  0  2  0  0  0  0  0  0  0  0  0
   15.4706   11.6595    1.0223 O   0  0  0  0  0  0  0  0  0  0  0  0
   15.9917   13.6012    2.3372 C   0  0  2  0  0  0  0  0  0  0  0  0
   14.5905   13.4274    2.5636 O   0  0  0  0  0  0  0  0  0  0  0  0
  1  2  1  0
  2  3  1  0
  3  4  2  0
  4  5  1  0
  5  6  2  0
  6  7  1  0
  7  8  2  0
  8  9  1  0
  9 10  1  0
 10 11  1  0
 11 12  1  0
 12 13  1  1
 12 14  1  0
 14 15  1  0
 15 16  1  0
 16 17  2  0
 18 16  1  1
 18 19  1  0
 20 19  1  1
 20 21  1  0
 22 21  1  6
 22 23  1  0
 23 24  1  6
 23 25  1  0
 25 26  1  6
  8  3  1  0
 22 18  1  0
 12  7  1  0
 25 20  1  0
M  END
>  <energy_score>  (389) 
-26.458054

>  <inchikey>  (389) 
None

>  <smiles>  (389) 
None

>  <ref_pdb>  (389) 
A0239a

>  <alias>  (389) 
None

>  <HIPPO Pose ID>  (389) 
498033

>  <name>  (389) 
P498033

>  <HIPPO Compound ID>  (389) 
290348

>  <ref_mols>  (389) 
A0239a,A0608a

>  <distance_score>  (389) 
1.969957

>  <inspiration_score>  (389) 
None

$$$$
P498034
     RDKit          3D

 26 29  0  0  0  0  0  0  0  0999 V2000
   22.7107   11.3569   -2.1731 C   0  0  0  0  0  0  0  0  0  0  0  0
   23.4635   12.5641   -2.0523 O   0  0  0  0  0  0  0  0  0  0  0  0
   23.9332   12.7237   -0.7785 C   0  0  0  0  0  0  0  0  0  0  0  0
   24.9023   11.8587   -0.2679 C   0  0  0  0  0  0  0  0  0  0  0  0
   25.3628   12.0386    1.0276 C   0  0  0  0  0  0  0  0  0  0  0  0
   24.8306   13.0656    1.8027 C   0  0  0  0  0  0  0  0  0  0  0  0
   23.8765   13.9676    1.2708 C   0  0  0  0  0  0  0  0  0  0  0  0
   23.4520   13.8170   -0.0486 C   0  0  0  0  0  0  0  0  0  0  0  0
   22.5556   14.8293   -0.7299 C   0  0  0  0  0  0  0  0  0  0  0  0
   21.8879   15.8935    0.1427 C   0  0  0  0  0  0  0  0  0  0  0  0
   22.7230   16.2629    1.3400 C   0  0  0  0  0  0  0  0  0  0  0  0
   23.2555   15.0553    2.1194 C   0  0  2  0  0  0  0  0  0  0  0  0
   24.3120   15.6449    2.9108 O   0  0  0  0  0  0  0  0  0  0  0  0
   22.2378   14.4247    3.1046 C   0  0  0  0  0  0  0  0  0  0  0  0
   20.8042   14.2796    2.8544 N   0  0  0  0  0  0  0  0  0  0  0  0
   20.0454   13.5436    1.7051 C   0  0  0  0  0  0  0  0  0  0  0  0
   20.4535   13.0117    0.7487 O   0  0  0  0  0  0  0  0  0  0  0  0
   18.5607   13.5285    2.0970 C   0  0  1  0  0  0  0  0  0  0  0  0
   17.9907   14.9326    2.2958 C   0  0  0  0  0  0  0  0  0  0  0  0
   16.7015   14.8542    1.4954 C   0  0  1  0  0  0  0  0  0  0  0  0
   17.1901   14.1436    0.3303 O   0  0  0  0  0  0  0  0  0  0  0  0
   17.6207   12.9402    1.0119 C   0  0  2  0  0  0  0  0  0  0  0  0
   16.2651   12.5118    1.6071 C   0  0  2  0  0  0  0  0  0  0  0  0
   15.3327   12.0497    0.6156 O   0  0  0  0  0  0  0  0  0  0  0  0
   15.7426   13.8496    2.1590 C   0  0  2  0  0  0  0  0  0  0  0  0
   14.3816   14.0684    1.8022 O   0  0  0  0  0  0  0  0  0  0  0  0
  1  2  1  0
  2  3  1  0
  3  4  2  0
  4  5  1  0
  5  6  2  0
  6  7  1  0
  7  8  2  0
  8  9  1  0
  9 10  1  0
 10 11  1  0
 11 12  1  0
 12 13  1  1
 12 14  1  0
 14 15  1  0
 15 16  1  0
 16 17  2  0
 18 16  1  6
 18 19  1  0
 20 19  1  1
 20 21  1  0
 22 21  1  6
 22 23  1  0
 23 24  1  6
 23 25  1  0
 25 26  1  6
  8  3  1  0
 22 18  1  0
 12  7  1  0
 25 20  1  0
M  END
>  <energy_score>  (390) 
-17.669053

>  <inchikey>  (390) 
None

>  <smiles>  (390) 
None

>  <ref_pdb>  (390) 
A0239a

>  <alias>  (390) 
None

>  <HIPPO Pose ID>  (390) 
498034

>  <name>  (390) 
P498034

>  <HIPPO Compound ID>  (390) 
290348

>  <ref_mols>  (390) 
A0239a,A0608a

>  <distance_score>  (390) 
1.688142

>  <inspiration_score>  (390) 
None

$$$$
P498035
     RDKit          3D

 26 29  0  0  0  0  0  0  0  0999 V2000
   23.8546   11.2253   -2.5278 C   0  0  0  0  0  0  0  0  0  0  0  0
   23.3921   12.3525   -1.7933 O   0  0  0  0  0  0  0  0  0  0  0  0
   23.9676   12.5847   -0.5755 C   0  0  0  0  0  0  0  0  0  0  0  0
   24.9704   11.8033   -0.0017 C   0  0  0  0  0  0  0  0  0  0  0  0
   25.4227   12.0872    1.2831 C   0  0  0  0  0  0  0  0  0  0  0  0
   24.8516   13.1324    2.0052 C   0  0  0  0  0  0  0  0  0  0  0  0
   23.8648   13.9525    1.4280 C   0  0  0  0  0  0  0  0  0  0  0  0
   23.4601   13.7002    0.1098 C   0  0  0  0  0  0  0  0  0  0  0  0
   22.4367   14.5970   -0.5449 C   0  0  0  0  0  0  0  0  0  0  0  0
   22.4990   16.0695   -0.1218 C   0  0  0  0  0  0  0  0  0  0  0  0
   23.0367   16.3314    1.2752 C   0  0  0  0  0  0  0  0  0  0  0  0
   23.2018   15.0964    2.1737 C   0  0  2  0  0  0  0  0  0  0  0  0
   24.1212   15.5277    3.1875 O   0  0  0  0  0  0  0  0  0  0  0  0
   21.8584   14.6616    2.8457 C   0  0  0  0  0  0  0  0  0  0  0  0
   20.6318   14.6562    2.0548 N   0  0  0  0  0  0  0  0  0  0  0  0
   19.4926   13.6057    1.9699 C   0  0  0  0  0  0  0  0  0  0  0  0
   19.3242   12.6240    2.5752 O   0  0  0  0  0  0  0  0  0  0  0  0
   18.4871   14.1035    0.9557 C   0  0  2  0  0  0  0  0  0  0  0  0
   17.6803   15.2555    1.5643 C   0  0  0  0  0  0  0  0  0  0  0  0
   16.2533   14.7601    1.3944 C   0  0  1  0  0  0  0  0  0  0  0  0
   16.3803   14.1015    0.1048 O   0  0  0  0  0  0  0  0  0  0  0  0
   17.3816   13.1210    0.5065 C   0  0  2  0  0  0  0  0  0  0  0  0
   16.5628   12.4114    1.5917 C   0  0  2  0  0  0  0  0  0  0  0  0
   15.4564   11.6840    1.0067 O   0  0  0  0  0  0  0  0  0  0  0  0
   15.9719   13.6000    2.3616 C   0  0  2  0  0  0  0  0  0  0  0  0
   14.5705   13.4197    2.5808 O   0  0  0  0  0  0  0  0  0  0  0  0
  1  2  1  0
  2  3  1  0
  3  4  2  0
  4  5  1  0
  5  6  2  0
  6  7  1  0
  7  8  2  0
  8  9  1  0
  9 10  1  0
 10 11  1  0
 11 12  1  0
 12 13  1  1
 12 14  1  0
 14 15  1  0
 15 16  1  0
 16 17  2  0
 18 16  1  1
 18 19  1  0
 20 19  1  1
 20 21  1  0
 22 21  1  6
 22 23  1  0
 23 24  1  6
 23 25  1  0
 25 26  1  6
  8  3  1  0
 22 18  1  0
 12  7  1  0
 25 20  1  0
M  END
>  <energy_score>  (391) 
-21.024984

>  <inchikey>  (391) 
None

>  <smiles>  (391) 
None

>  <ref_pdb>  (391) 
A0239a

>  <alias>  (391) 
None

>  <HIPPO Pose ID>  (391) 
498035

>  <name>  (391) 
P498035

>  <HIPPO Compound ID>  (391) 
290348

>  <ref_mols>  (391) 
A0239a,A0608a

>  <distance_score>  (391) 
1.875326

>  <inspiration_score>  (391) 
None

$$$$
P498036
     RDKit          3D

 26 29  0  0  0  0  0  0  0  0999 V2000
   24.1694   11.2482   -2.6237 C   0  0  0  0  0  0  0  0  0  0  0  0
   23.7866   12.4883   -2.0402 O   0  0  0  0  0  0  0  0  0  0  0  0
   24.0953   12.6755   -0.7238 C   0  0  0  0  0  0  0  0  0  0  0  0
   24.9175   11.8416    0.0307 C   0  0  0  0  0  0  0  0  0  0  0  0
   25.0987   12.0935    1.3848 C   0  0  0  0  0  0  0  0  0  0  0  0
   24.3976   13.1308    1.9952 C   0  0  0  0  0  0  0  0  0  0  0  0
   23.5750   13.9938    1.2420 C   0  0  0  0  0  0  0  0  0  0  0  0
   23.5150   13.8141   -0.1444 C   0  0  0  0  0  0  0  0  0  0  0  0
   22.8465   14.8493   -1.0263 C   0  0  0  0  0  0  0  0  0  0  0  0
   22.8799   16.2397   -0.3856 C   0  0  0  0  0  0  0  0  0  0  0  0
   22.1526   16.1658    0.9389 C   0  0  0  0  0  0  0  0  0  0  0  0
   22.8205   15.1470    1.8909 C   0  0  2  0  0  0  0  0  0  0  0  0
   23.8096   15.9398    2.5876 O   0  0  0  0  0  0  0  0  0  0  0  0
   21.7680   14.6553    2.9188 C   0  0  0  0  0  0  0  0  0  0  0  0
   20.4040   14.2969    2.5201 N   0  0  0  0  0  0  0  0  0  0  0  0
   19.3129   13.5203    3.2778 C   0  0  0  0  0  0  0  0  0  0  0  0
   19.3508   12.9769    4.3054 O   0  0  0  0  0  0  0  0  0  0  0  0
   17.9458   13.5859    2.5700 C   0  0  1  0  0  0  0  0  0  0  0  0
   17.5873   14.9492    1.9925 C   0  0  0  0  0  0  0  0  0  0  0  0
   17.4351   14.6210    0.5124 C   0  0  1  0  0  0  0  0  0  0  0  0
   18.3870   13.5334    0.3383 O   0  0  0  0  0  0  0  0  0  0  0  0
   17.8336   12.6645    1.3616 C   0  0  2  0  0  0  0  0  0  0  0  0
   16.3794   12.5091    0.8512 C   0  0  1  0  0  0  0  0  0  0  0  0
   15.4187   12.2057    1.8518 O   0  0  0  0  0  0  0  0  0  0  0  0
   16.1074   13.8994    0.2548 C   0  0  2  0  0  0  0  0  0  0  0  0
   15.8693   13.7916   -1.1507 O   0  0  0  0  0  0  0  0  0  0  0  0
  1  2  1  0
  2  3  1  0
  3  4  2  0
  4  5  1  0
  5  6  2  0
  6  7  1  0
  7  8  2  0
  8  9  1  0
  9 10  1  0
 10 11  1  0
 11 12  1  0
 12 13  1  1
 12 14  1  0
 14 15  1  0
 15 16  1  0
 16 17  2  0
 18 16  1  6
 18 19  1  0
 20 19  1  1
 20 21  1  0
 22 21  1  6
 22 23  1  0
 23 24  1  1
 23 25  1  0
 25 26  1  6
  8  3  1  0
 22 18  1  0
 12  7  1  0
 25 20  1  0
M  END
>  <energy_score>  (392) 
-18.613844

>  <inchikey>  (392) 
None

>  <smiles>  (392) 
None

>  <ref_pdb>  (392) 
A0239a

>  <alias>  (392) 
None

>  <HIPPO Pose ID>  (392) 
498036

>  <name>  (392) 
P498036

>  <HIPPO Compound ID>  (392) 
290348

>  <ref_mols>  (392) 
A0239a,A0608a

>  <distance_score>  (392) 
1.832671

>  <inspiration_score>  (392) 
None

$$$$
P498037
     RDKit          3D

 26 29  0  0  0  0  0  0  0  0999 V2000
   23.8262   11.1774   -2.4573 C   0  0  0  0  0  0  0  0  0  0  0  0
   23.2601   12.2509   -1.7152 O   0  0  0  0  0  0  0  0  0  0  0  0
   23.8551   12.5754   -0.5281 C   0  0  0  0  0  0  0  0  0  0  0  0
   24.8820   11.8490    0.0725 C   0  0  0  0  0  0  0  0  0  0  0  0
   25.3620   12.2295    1.3208 C   0  0  0  0  0  0  0  0  0  0  0  0
   24.8061   13.3267    1.9779 C   0  0  0  0  0  0  0  0  0  0  0  0
   23.7927   14.0956    1.3737 C   0  0  0  0  0  0  0  0  0  0  0  0
   23.3422   13.7279    0.0931 C   0  0  0  0  0  0  0  0  0  0  0  0
   22.2756   14.5457   -0.6056 C   0  0  0  0  0  0  0  0  0  0  0  0
   22.2760   16.0467   -0.2924 C   0  0  0  0  0  0  0  0  0  0  0  0
   22.9950   16.4447    0.9806 C   0  0  0  0  0  0  0  0  0  0  0  0
   23.1761   15.3291    2.0179 C   0  0  2  0  0  0  0  0  0  0  0  0
   24.1272   15.9117    2.9277 O   0  0  0  0  0  0  0  0  0  0  0  0
   21.8604   15.0508    2.8048 C   0  0  0  0  0  0  0  0  0  0  0  0
   20.6086   14.7986    2.1078 N   0  0  0  0  0  0  0  0  0  0  0  0
   19.5265   13.7193    2.3460 C   0  0  0  0  0  0  0  0  0  0  0  0
   19.5077   12.8204    3.0860 O   0  0  0  0  0  0  0  0  0  0  0  0
   18.3428   14.0001    1.4206 C   0  0  2  0  0  0  0  0  0  0  0  0
   17.5785   15.1966    1.9815 C   0  0  0  0  0  0  0  0  0  0  0  0
   16.2204   14.5855    2.3109 C   0  0  2  0  0  0  0  0  0  0  0  0
   16.5751   13.2476    2.7231 O   0  0  0  0  0  0  0  0  0  0  0  0
   17.2760   12.8765    1.5041 C   0  0  1  0  0  0  0  0  0  0  0  0
   16.1559   13.0894    0.4635 C   0  0  1  0  0  0  0  0  0  0  0  0
   15.2233   12.0067    0.3966 O   0  0  0  0  0  0  0  0  0  0  0  0
   15.4035   14.2957    1.0508 C   0  0  2  0  0  0  0  0  0  0  0  0
   15.3515   15.3948    0.1540 O   0  0  0  0  0  0  0  0  0  0  0  0
  1  2  1  0
  2  3  1  0
  3  4  2  0
  4  5  1  0
  5  6  2  0
  6  7  1  0
  7  8  2  0
  8  9  1  0
  9 10  1  0
 10 11  1  0
 11 12  1  0
 12 13  1  1
 12 14  1  0
 14 15  1  0
 15 16  1  0
 16 17  2  0
 18 16  1  1
 18 19  1  0
 20 19  1  6
 20 21  1  0
 22 21  1  1
 22 23  1  0
 23 24  1  1
 23 25  1  0
 25 26  1  6
  8  3  1  0
 22 18  1  0
 12  7  1  0
 25 20  1  0
M  END
>  <energy_score>  (393) 
-22.960751

>  <inchikey>  (393) 
None

>  <smiles>  (393) 
None

>  <ref_pdb>  (393) 
A0239a

>  <alias>  (393) 
None

>  <HIPPO Pose ID>  (393) 
498037

>  <name>  (393) 
P498037

>  <HIPPO Compound ID>  (393) 
290348

>  <ref_mols>  (393) 
A0239a,A0608a

>  <distance_score>  (393) 
1.892638

>  <inspiration_score>  (393) 
None

$$$$
P498038
     RDKit          3D

 26 29  0  0  0  0  0  0  0  0999 V2000
   23.7935   11.2915   -2.6603 C   0  0  0  0  0  0  0  0  0  0  0  0
   23.6535   12.5766   -2.0658 O   0  0  0  0  0  0  0  0  0  0  0  0
   24.0797   12.6994   -0.7742 C   0  0  0  0  0  0  0  0  0  0  0  0
   24.9734   11.8293   -0.1490 C   0  0  0  0  0  0  0  0  0  0  0  0
   25.3027   12.0188    1.1875 C   0  0  0  0  0  0  0  0  0  0  0  0
   24.6823   13.0334    1.9108 C   0  0  0  0  0  0  0  0  0  0  0  0
   23.7756   13.9196    1.2891 C   0  0  0  0  0  0  0  0  0  0  0  0
   23.5624   13.8062   -0.0862 C   0  0  0  0  0  0  0  0  0  0  0  0
   22.7696   14.8608   -0.8272 C   0  0  0  0  0  0  0  0  0  0  0  0
   22.8065   16.2181   -0.1196 C   0  0  0  0  0  0  0  0  0  0  0  0
   22.2395   16.0452    1.2727 C   0  0  0  0  0  0  0  0  0  0  0  0
   23.0489   15.0027    2.0751 C   0  0  2  0  0  0  0  0  0  0  0  0
   24.0824   15.7942    2.7073 O   0  0  0  0  0  0  0  0  0  0  0  0
   22.1623   14.3670    3.1774 C   0  0  0  0  0  0  0  0  0  0  0  0
   20.7228   14.1771    2.9792 N   0  0  0  0  0  0  0  0  0  0  0  0
   19.9385   13.5612    1.7795 C   0  0  0  0  0  0  0  0  0  0  0  0
   20.3180   13.1855    0.7415 O   0  0  0  0  0  0  0  0  0  0  0  0
   18.4606   13.4903    2.2104 C   0  0  1  0  0  0  0  0  0  0  0  0
   17.8922   14.8903    2.4306 C   0  0  0  0  0  0  0  0  0  0  0  0
   16.7637   14.9439    1.4126 C   0  0  1  0  0  0  0  0  0  0  0  0
   17.2983   14.1450    0.3285 O   0  0  0  0  0  0  0  0  0  0  0  0
   17.5394   12.9392    1.1005 C   0  0  2  0  0  0  0  0  0  0  0  0
   16.1069   12.6772    1.6199 C   0  0  2  0  0  0  0  0  0  0  0  0
   15.2755   12.0330    0.6512 O   0  0  0  0  0  0  0  0  0  0  0  0
   15.5597   14.0991    1.8230 C   0  0  1  0  0  0  0  0  0  0  0  0
   15.1040   14.3230    3.1516 O   0  0  0  0  0  0  0  0  0  0  0  0
  1  2  1  0
  2  3  1  0
  3  4  2  0
  4  5  1  0
  5  6  2  0
  6  7  1  0
  7  8  2  0
  8  9  1  0
  9 10  1  0
 10 11  1  0
 11 12  1  0
 12 13  1  1
 12 14  1  0
 14 15  1  0
 15 16  1  0
 16 17  2  0
 18 16  1  6
 18 19  1  0
 20 19  1  1
 20 21  1  0
 22 21  1  6
 22 23  1  0
 23 24  1  6
 23 25  1  0
 25 26  1  1
  8  3  1  0
 22 18  1  0
 12  7  1  0
 25 20  1  0
M  END
>  <energy_score>  (394) 
-27.068672

>  <inchikey>  (394) 
None

>  <smiles>  (394) 
None

>  <ref_pdb>  (394) 
A0239a

>  <alias>  (394) 
None

>  <HIPPO Pose ID>  (394) 
498038

>  <name>  (394) 
P498038

>  <HIPPO Compound ID>  (394) 
290348

>  <ref_mols>  (394) 
A0239a,A0608a

>  <distance_score>  (394) 
1.750658

>  <inspiration_score>  (394) 
None

$$$$
P498039
     RDKit          3D

 26 29  0  0  0  0  0  0  0  0999 V2000
   23.8008   11.1841   -2.4816 C   0  0  0  0  0  0  0  0  0  0  0  0
   23.2488   12.2975   -1.7901 O   0  0  0  0  0  0  0  0  0  0  0  0
   23.7869   12.6127   -0.5741 C   0  0  0  0  0  0  0  0  0  0  0  0
   24.8044   11.8965    0.0573 C   0  0  0  0  0  0  0  0  0  0  0  0
   25.2288   12.2674    1.3287 C   0  0  0  0  0  0  0  0  0  0  0  0
   24.6264   13.3453    1.9742 C   0  0  0  0  0  0  0  0  0  0  0  0
   23.6264   14.1050    1.3364 C   0  0  0  0  0  0  0  0  0  0  0  0
   23.2280   13.7479    0.0391 C   0  0  0  0  0  0  0  0  0  0  0  0
   22.1640   14.5537   -0.6776 C   0  0  0  0  0  0  0  0  0  0  0  0
   22.1020   16.0479   -0.3273 C   0  0  0  0  0  0  0  0  0  0  0  0
   22.8237   16.4479    0.9437 C   0  0  0  0  0  0  0  0  0  0  0  0
   22.9848   15.3263    1.9740 C   0  0  2  0  0  0  0  0  0  0  0  0
   23.9412   15.8566    2.9117 O   0  0  0  0  0  0  0  0  0  0  0  0
   21.6540   15.0223    2.7268 C   0  0  0  0  0  0  0  0  0  0  0  0
   20.4099   14.7470    2.0131 N   0  0  0  0  0  0  0  0  0  0  0  0
   19.3769   13.6121    2.1982 C   0  0  0  0  0  0  0  0  0  0  0  0
   19.3975   12.6800    2.8955 O   0  0  0  0  0  0  0  0  0  0  0  0
   18.1197   13.9041    1.3574 C   0  0  2  0  0  0  0  0  0  0  0  0
   17.3301   15.0095    2.0567 C   0  0  0  0  0  0  0  0  0  0  0  0
   16.0907   14.2736    2.5670 C   0  0  2  0  0  0  0  0  0  0  0  0
   16.5862   12.9378    2.8041 O   0  0  0  0  0  0  0  0  0  0  0  0
   17.1313   12.7149    1.4696 C   0  0  1  0  0  0  0  0  0  0  0  0
   15.8195   12.8539    0.6804 C   0  0  2  0  0  0  0  0  0  0  0  0
   15.9758   13.1445   -0.6869 O   0  0  0  0  0  0  0  0  0  0  0  0
   15.1129   14.0040    1.4230 C   0  0  1  0  0  0  0  0  0  0  0  0
   13.8464   13.5721    1.9356 O   0  0  0  0  0  0  0  0  0  0  0  0
  1  2  1  0
  2  3  1  0
  3  4  2  0
  4  5  1  0
  5  6  2  0
  6  7  1  0
  7  8  2  0
  8  9  1  0
  9 10  1  0
 10 11  1  0
 11 12  1  0
 12 13  1  1
 12 14  1  0
 14 15  1  0
 15 16  1  0
 16 17  2  0
 18 16  1  1
 18 19  1  0
 20 19  1  6
 20 21  1  0
 22 21  1  1
 22 23  1  0
 23 24  1  6
 23 25  1  0
 25 26  1  1
  8  3  1  0
 22 18  1  0
 12  7  1  0
 25 20  1  0
M  END
>  <energy_score>  (395) 
-17.314192

>  <inchikey>  (395) 
None

>  <smiles>  (395) 
None

>  <ref_pdb>  (395) 
A0239a

>  <alias>  (395) 
None

>  <HIPPO Pose ID>  (395) 
498039

>  <name>  (395) 
P498039

>  <HIPPO Compound ID>  (395) 
290348

>  <ref_mols>  (395) 
A0239a,A0608a

>  <distance_score>  (395) 
1.882829

>  <inspiration_score>  (395) 
None

$$$$
P498040
     RDKit          3D

 26 29  0  0  0  0  0  0  0  0999 V2000
   22.7055   11.4294   -2.1748 C   0  0  0  0  0  0  0  0  0  0  0  0
   23.5414   12.5831   -2.0637 O   0  0  0  0  0  0  0  0  0  0  0  0
   23.9477   12.7518   -0.7694 C   0  0  0  0  0  0  0  0  0  0  0  0
   24.9063   11.8966   -0.2249 C   0  0  0  0  0  0  0  0  0  0  0  0
   25.3024   12.0699    1.0919 C   0  0  0  0  0  0  0  0  0  0  0  0
   24.7123   13.0764    1.8532 C   0  0  0  0  0  0  0  0  0  0  0  0
   23.7662   13.9681    1.2887 C   0  0  0  0  0  0  0  0  0  0  0  0
   23.4129   13.8298   -0.0541 C   0  0  0  0  0  0  0  0  0  0  0  0
   22.5437   14.8400   -0.7746 C   0  0  0  0  0  0  0  0  0  0  0  0
   21.7914   15.8538    0.0893 C   0  0  0  0  0  0  0  0  0  0  0  0
   22.5527   16.2317    1.3339 C   0  0  0  0  0  0  0  0  0  0  0  0
   23.0835   15.0306    2.1264 C   0  0  2  0  0  0  0  0  0  0  0  0
   24.0970   15.6426    2.9589 O   0  0  0  0  0  0  0  0  0  0  0  0
   22.0403   14.3697    3.0737 C   0  0  0  0  0  0  0  0  0  0  0  0
   20.6178   14.2204    2.7642 N   0  0  0  0  0  0  0  0  0  0  0  0
   19.9089   13.4607    1.6005 C   0  0  0  0  0  0  0  0  0  0  0  0
   20.3575   12.9069    0.6744 O   0  0  0  0  0  0  0  0  0  0  0  0
   18.3871   13.4447    1.9140 C   0  0  1  0  0  0  0  0  0  0  0  0
   17.8140   14.8551    2.0396 C   0  0  0  0  0  0  0  0  0  0  0  0
   16.8630   14.9268    0.8505 C   0  0  1  0  0  0  0  0  0  0  0  0
   17.5363   14.0889   -0.1151 O   0  0  0  0  0  0  0  0  0  0  0  0
   17.5913   12.8931    0.7121 C   0  0  2  0  0  0  0  0  0  0  0  0
   16.0781   12.6938    0.9468 C   0  0  1  0  0  0  0  0  0  0  0  0
   15.7263   11.8763    2.0360 O   0  0  0  0  0  0  0  0  0  0  0  0
   15.5688   14.1407    1.0813 C   0  0  1  0  0  0  0  0  0  0  0  0
   14.9178   14.4298    2.3125 O   0  0  0  0  0  0  0  0  0  0  0  0
  1  2  1  0
  2  3  1  0
  3  4  2  0
  4  5  1  0
  5  6  2  0
  6  7  1  0
  7  8  2  0
  8  9  1  0
  9 10  1  0
 10 11  1  0
 11 12  1  0
 12 13  1  1
 12 14  1  0
 14 15  1  0
 15 16  1  0
 16 17  2  0
 18 16  1  6
 18 19  1  0
 20 19  1  1
 20 21  1  0
 22 21  1  6
 22 23  1  0
 23 24  1  1
 23 25  1  0
 25 26  1  1
  8  3  1  0
 22 18  1  0
 12  7  1  0
 25 20  1  0
M  END
>  <energy_score>  (396) 
-16.943391

>  <inchikey>  (396) 
None

>  <smiles>  (396) 
None

>  <ref_pdb>  (396) 
A0239a

>  <alias>  (396) 
None

>  <HIPPO Pose ID>  (396) 
498040

>  <name>  (396) 
P498040

>  <HIPPO Compound ID>  (396) 
290348

>  <ref_mols>  (396) 
A0239a,A0608a

>  <distance_score>  (396) 
1.988746

>  <inspiration_score>  (396) 
None

$$$$
P498041
     RDKit          3D

 26 29  0  0  0  0  0  0  0  0999 V2000
   23.7372   11.2785   -2.7485 C   0  0  0  0  0  0  0  0  0  0  0  0
   23.4619   12.5133   -2.0986 O   0  0  0  0  0  0  0  0  0  0  0  0
   23.9584   12.6728   -0.8362 C   0  0  0  0  0  0  0  0  0  0  0  0
   24.8921   11.8280   -0.2337 C   0  0  0  0  0  0  0  0  0  0  0  0
   25.2913   12.0594    1.0768 C   0  0  0  0  0  0  0  0  0  0  0  0
   24.7003   13.0901    1.8010 C   0  0  0  0  0  0  0  0  0  0  0  0
   23.7445   13.9452    1.2076 C   0  0  0  0  0  0  0  0  0  0  0  0
   23.4590   13.7895   -0.1494 C   0  0  0  0  0  0  0  0  0  0  0  0
   22.6242   14.8231   -0.8729 C   0  0  0  0  0  0  0  0  0  0  0  0
   22.6794   16.1960   -0.1944 C   0  0  0  0  0  0  0  0  0  0  0  0
   22.1823   16.0519    1.2282 C   0  0  0  0  0  0  0  0  0  0  0  0
   23.0307   15.0261    2.0055 C   0  0  2  0  0  0  0  0  0  0  0  0
   24.1177   15.7953    2.5691 O   0  0  0  0  0  0  0  0  0  0  0  0
   22.2020   14.3607    3.1328 C   0  0  0  0  0  0  0  0  0  0  0  0
   20.7487   14.1763    3.0729 N   0  0  0  0  0  0  0  0  0  0  0  0
   19.8397   13.6345    1.9182 C   0  0  0  0  0  0  0  0  0  0  0  0
   20.1092   13.3303    0.8230 O   0  0  0  0  0  0  0  0  0  0  0  0
   18.4610   13.4625    2.5385 C   0  0  1  0  0  0  0  0  0  0  0  0
   17.7233   14.7681    2.7917 C   0  0  0  0  0  0  0  0  0  0  0  0
   16.2908   14.3868    2.4410 C   0  0  2  0  0  0  0  0  0  0  0  0
   16.2841   12.9578    2.7288 O   0  0  0  0  0  0  0  0  0  0  0  0
   17.3940   12.6052    1.8411 C   0  0  1  0  0  0  0  0  0  0  0  0
   16.7973   13.1000    0.5133 C   0  0  1  0  0  0  0  0  0  0  0  0
   15.7480   12.2147    0.0561 O   0  0  0  0  0  0  0  0  0  0  0  0
   16.1161   14.4177    0.9237 C   0  0  1  0  0  0  0  0  0  0  0  0
   14.7268   14.4261    0.5893 O   0  0  0  0  0  0  0  0  0  0  0  0
  1  2  1  0
  2  3  1  0
  3  4  2  0
  4  5  1  0
  5  6  2  0
  6  7  1  0
  7  8  2  0
  8  9  1  0
  9 10  1  0
 10 11  1  0
 11 12  1  0
 12 13  1  1
 12 14  1  0
 14 15  1  0
 15 16  1  0
 16 17  2  0
 18 16  1  6
 18 19  1  0
 20 19  1  6
 20 21  1  0
 22 21  1  1
 22 23  1  0
 23 24  1  1
 23 25  1  0
 25 26  1  1
  8  3  1  0
 22 18  1  0
 12  7  1  0
 25 20  1  0
M  END
>  <energy_score>  (397) 
-10.819289

>  <inchikey>  (397) 
None

>  <smiles>  (397) 
None

>  <ref_pdb>  (397) 
A0239a

>  <alias>  (397) 
None

>  <HIPPO Pose ID>  (397) 
498041

>  <name>  (397) 
P498041

>  <HIPPO Compound ID>  (397) 
290348

>  <ref_mols>  (397) 
A0239a,A0608a

>  <distance_score>  (397) 
1.745908

>  <inspiration_score>  (397) 
None

$$$$
P498042
     RDKit          3D

 26 29  0  0  0  0  0  0  0  0999 V2000
   23.5011   11.1929   -2.3989 C   0  0  0  0  0  0  0  0  0  0  0  0
   23.0574   12.1920   -1.4891 O   0  0  0  0  0  0  0  0  0  0  0  0
   23.8934   12.5034   -0.4526 C   0  0  0  0  0  0  0  0  0  0  0  0
   24.9977   11.7444   -0.0647 C   0  0  0  0  0  0  0  0  0  0  0  0
   25.7506   12.1215    1.0445 C   0  0  0  0  0  0  0  0  0  0  0  0
   25.4054   13.2605    1.7688 C   0  0  0  0  0  0  0  0  0  0  0  0
   24.3176   14.0580    1.3730 C   0  0  0  0  0  0  0  0  0  0  0  0
   23.5628   13.6735    0.2485 C   0  0  0  0  0  0  0  0  0  0  0  0
   22.3659   14.5002   -0.1641 C   0  0  0  0  0  0  0  0  0  0  0  0
   22.5363   16.0123    0.0117 C   0  0  0  0  0  0  0  0  0  0  0  0
   23.5366   16.4243    1.0799 C   0  0  0  0  0  0  0  0  0  0  0  0
   23.9141   15.3327    2.0978 C   0  0  2  0  0  0  0  0  0  0  0  0
   25.0611   15.8972    2.7532 O   0  0  0  0  0  0  0  0  0  0  0  0
   22.8028   15.0814    3.1540 C   0  0  0  0  0  0  0  0  0  0  0  0
   21.4391   15.3764    2.7623 N   0  0  0  0  0  0  0  0  0  0  0  0
   20.1826   14.5044    2.8021 C   0  0  0  0  0  0  0  0  0  0  0  0
   20.0512   13.3855    3.0827 O   0  0  0  0  0  0  0  0  0  0  0  0
   19.0086   15.3084    2.3379 C   0  0  1  0  0  0  0  0  0  0  0  0
   18.5625   15.1967    0.8976 C   0  0  0  0  0  0  0  0  0  0  0  0
   17.6516   14.7110    1.9994 C   0  0  1  0  0  0  0  0  0  0  0  0
   17.3066   13.2764    2.2834 C   0  0  2  0  0  0  0  0  0  0  0  0
   17.8639   12.2298    1.3254 C   0  0  0  0  0  0  0  0  0  0  0  0
   16.7733   12.1114    0.2914 C   0  0  0  0  0  0  0  0  0  0  0  0
   15.5408   12.2189    1.1637 C   0  0  2  0  0  0  0  0  0  0  0  0
   14.2996   12.6705    0.4222 C   0  0  0  0  0  0  0  0  0  0  0  0
   15.8618   13.1641    2.1990 O   0  0  0  0  0  0  0  0  0  0  0  0
  1  2  1  0
  2  3  1  0
  3  4  2  0
  4  5  1  0
  5  6  2  0
  6  7  1  0
  7  8  2  0
  8  9  1  0
  9 10  1  0
 10 11  1  0
 11 12  1  0
 12 13  1  1
 12 14  1  0
 14 15  1  0
 15 16  1  0
 16 17  2  0
 18 16  1  6
 18 19  1  0
 20 19  1  6
 20 21  1  0
 21 22  1  6
 22 23  1  0
 23 24  1  0
 24 25  1  6
 24 26  1  0
  8  3  1  0
 20 18  1  0
 26 21  1  0
 12  7  1  0
M  END
>  <energy_score>  (398) 
-30.653021

>  <inchikey>  (398) 
None

>  <smiles>  (398) 
None

>  <ref_pdb>  (398) 
A0239a

>  <alias>  (398) 
None

>  <HIPPO Pose ID>  (398) 
498042

>  <name>  (398) 
P498042

>  <HIPPO Compound ID>  (398) 
290349

>  <ref_mols>  (398) 
A0239a,A0608a

>  <distance_score>  (398) 
1.670364

>  <inspiration_score>  (398) 
None

$$$$
P498043
     RDKit          3D

 26 29  0  0  0  0  0  0  0  0999 V2000
   23.5484   11.2772   -2.5972 C   0  0  0  0  0  0  0  0  0  0  0  0
   23.5999   12.5868   -2.0445 O   0  0  0  0  0  0  0  0  0  0  0  0
   24.1593   12.7045   -0.8030 C   0  0  0  0  0  0  0  0  0  0  0  0
   24.9831   11.7475   -0.2099 C   0  0  0  0  0  0  0  0  0  0  0  0
   25.4447   11.9375    1.0874 C   0  0  0  0  0  0  0  0  0  0  0  0
   25.0250   13.0486    1.8111 C   0  0  0  0  0  0  0  0  0  0  0  0
   24.1942   14.0254    1.2224 C   0  0  0  0  0  0  0  0  0  0  0  0
   23.8560   13.8973   -0.1302 C   0  0  0  0  0  0  0  0  0  0  0  0
   23.1413   15.0140   -0.8659 C   0  0  0  0  0  0  0  0  0  0  0  0
   23.3156   16.3757   -0.1896 C   0  0  0  0  0  0  0  0  0  0  0  0
   22.8587   16.2746    1.2499 C   0  0  0  0  0  0  0  0  0  0  0  0
   23.6831   15.2150    2.0210 C   0  0  2  0  0  0  0  0  0  0  0  0
   24.8468   15.9422    2.4658 O   0  0  0  0  0  0  0  0  0  0  0  0
   22.8926   14.7541    3.2693 C   0  0  0  0  0  0  0  0  0  0  0  0
   21.4655   14.5016    3.1430 N   0  0  0  0  0  0  0  0  0  0  0  0
   20.6640   13.8929    1.9974 C   0  0  0  0  0  0  0  0  0  0  0  0
   21.0180   13.4232    0.9983 O   0  0  0  0  0  0  0  0  0  0  0  0
   19.2069   13.9581    2.2873 C   0  0  1  0  0  0  0  0  0  0  0  0
   18.4990   15.2684    2.5337 C   0  0  0  0  0  0  0  0  0  0  0  0
   18.3452   14.5804    1.2092 C   0  0  2  0  0  0  0  0  0  0  0  0
   17.0854   13.9397    0.7435 C   0  0  1  0  0  0  0  0  0  0  0  0
   17.3626   12.7056   -0.1140 C   0  0  0  0  0  0  0  0  0  0  0  0
   16.8274   11.5633    0.7080 C   0  0  0  0  0  0  0  0  0  0  0  0
   15.7424   12.2251    1.5286 C   0  0  2  0  0  0  0  0  0  0  0  0
   14.4086   12.3495    0.7995 C   0  0  0  0  0  0  0  0  0  0  0  0
   16.2448   13.5332    1.8384 O   0  0  0  0  0  0  0  0  0  0  0  0
  1  2  1  0
  2  3  1  0
  3  4  2  0
  4  5  1  0
  5  6  2  0
  6  7  1  0
  7  8  2  0
  8  9  1  0
  9 10  1  0
 10 11  1  0
 11 12  1  0
 12 13  1  1
 12 14  1  0
 14 15  1  0
 15 16  1  0
 16 17  2  0
 18 16  1  6
 18 19  1  0
 20 19  1  1
 20 21  1  0
 21 22  1  1
 22 23  1  0
 23 24  1  0
 24 25  1  6
 24 26  1  0
  8  3  1  0
 20 18  1  0
 26 21  1  0
 12  7  1  0
M  END
>  <energy_score>  (399) 
-46.571637

>  <inchikey>  (399) 
None

>  <smiles>  (399) 
None

>  <ref_pdb>  (399) 
A0239a

>  <alias>  (399) 
None

>  <HIPPO Pose ID>  (399) 
498043

>  <name>  (399) 
P498043

>  <HIPPO Compound ID>  (399) 
290349

>  <ref_mols>  (399) 
A0239a,A0608a

>  <distance_score>  (399) 
1.657029

>  <inspiration_score>  (399) 
None

$$$$
P498044
     RDKit          3D

 26 29  0  0  0  0  0  0  0  0999 V2000
   23.5045   11.1498   -2.4323 C   0  0  0  0  0  0  0  0  0  0  0  0
   23.0664   12.1911   -1.5678 O   0  0  0  0  0  0  0  0  0  0  0  0
   23.8710   12.5032   -0.5074 C   0  0  0  0  0  0  0  0  0  0  0  0
   24.9561   11.7376   -0.0779 C   0  0  0  0  0  0  0  0  0  0  0  0
   25.6620   12.1033    1.0654 C   0  0  0  0  0  0  0  0  0  0  0  0
   25.2969   13.2457    1.7715 C   0  0  0  0  0  0  0  0  0  0  0  0
   24.2479   14.0651    1.3145 C   0  0  0  0  0  0  0  0  0  0  0  0
   23.5234   13.6810    0.1734 C   0  0  0  0  0  0  0  0  0  0  0  0
   22.3225   14.4894   -0.2678 C   0  0  0  0  0  0  0  0  0  0  0  0
   22.4126   16.0001   -0.0350 C   0  0  0  0  0  0  0  0  0  0  0  0
   23.4470   16.4301    0.9875 C   0  0  0  0  0  0  0  0  0  0  0  0
   23.8616   15.3592    2.0117 C   0  0  2  0  0  0  0  0  0  0  0  0
   25.0227   15.9452    2.6239 O   0  0  0  0  0  0  0  0  0  0  0  0
   22.8123   15.1279    3.1281 C   0  0  0  0  0  0  0  0  0  0  0  0
   21.4295   15.4346    2.8087 N   0  0  0  0  0  0  0  0  0  0  0  0
   20.2038   14.5229    2.7195 C   0  0  0  0  0  0  0  0  0  0  0  0
   20.0864   13.3933    2.9613 O   0  0  0  0  0  0  0  0  0  0  0  0
   19.0256   15.3155    2.2435 C   0  0  1  0  0  0  0  0  0  0  0  0
   18.5592   15.1691    0.8136 C   0  0  0  0  0  0  0  0  0  0  0  0
   17.6643   14.7074    1.9388 C   0  0  1  0  0  0  0  0  0  0  0  0
   17.3237   13.2779    2.2551 C   0  0  2  0  0  0  0  0  0  0  0  0
   17.8594   12.2147    1.3030 C   0  0  0  0  0  0  0  0  0  0  0  0
   16.7544   12.0934    0.2851 C   0  0  0  0  0  0  0  0  0  0  0  0
   15.5344   12.2194    1.1722 C   0  0  2  0  0  0  0  0  0  0  0  0
   14.2890   12.6801    0.4433 C   0  0  0  0  0  0  0  0  0  0  0  0
   15.8774   13.1659    2.1997 O   0  0  0  0  0  0  0  0  0  0  0  0
  1  2  1  0
  2  3  1  0
  3  4  2  0
  4  5  1  0
  5  6  2  0
  6  7  1  0
  7  8  2  0
  8  9  1  0
  9 10  1  0
 10 11  1  0
 11 12  1  0
 12 13  1  1
 12 14  1  0
 14 15  1  0
 15 16  1  0
 16 17  2  0
 18 16  1  6
 18 19  1  0
 20 19  1  6
 20 21  1  0
 21 22  1  6
 22 23  1  0
 23 24  1  0
 24 25  1  6
 24 26  1  0
  8  3  1  0
 20 18  1  0
 26 21  1  0
 12  7  1  0
M  END
>  <energy_score>  (400) 
-29.079592

>  <inchikey>  (400) 
None

>  <smiles>  (400) 
None

>  <ref_pdb>  (400) 
A0239a

>  <alias>  (400) 
None

>  <HIPPO Pose ID>  (400) 
498044

>  <name>  (400) 
P498044

>  <HIPPO Compound ID>  (400) 
290349

>  <ref_mols>  (400) 
A0239a,A0608a

>  <distance_score>  (400) 
1.732994

>  <inspiration_score>  (400) 
None

$$$$
P498045
     RDKit          3D

 26 29  0  0  0  0  0  0  0  0999 V2000
   23.3131   11.3134   -2.4307 C   0  0  0  0  0  0  0  0  0  0  0  0
   23.3088   12.6092   -1.8464 O   0  0  0  0  0  0  0  0  0  0  0  0
   23.9617   12.7566   -0.6524 C   0  0  0  0  0  0  0  0  0  0  0  0
   24.8229   11.8089   -0.0977 C   0  0  0  0  0  0  0  0  0  0  0  0
   25.4070   12.0407    1.1423 C   0  0  0  0  0  0  0  0  0  0  0  0
   25.1067   13.2065    1.8384 C   0  0  0  0  0  0  0  0  0  0  0  0
   24.2675   14.1920    1.2777 C   0  0  0  0  0  0  0  0  0  0  0  0
   23.7238   13.9800    0.0027 C   0  0  0  0  0  0  0  0  0  0  0  0
   22.9519   15.0596   -0.7351 C   0  0  0  0  0  0  0  0  0  0  0  0
   22.6516   16.3635    0.0083 C   0  0  0  0  0  0  0  0  0  0  0  0
   23.6393   16.6497    1.1171 C   0  0  0  0  0  0  0  0  0  0  0  0
   23.9158   15.4530    2.0405 C   0  0  2  0  0  0  0  0  0  0  0  0
   25.0919   15.8394    2.7708 O   0  0  0  0  0  0  0  0  0  0  0  0
   22.7629   15.1837    3.0491 C   0  0  0  0  0  0  0  0  0  0  0  0
   21.4002   15.2746    2.5573 N   0  0  0  0  0  0  0  0  0  0  0  0
   20.5622   14.2735    1.7647 C   0  0  0  0  0  0  0  0  0  0  0  0
   20.8490   13.2459    1.3105 O   0  0  0  0  0  0  0  0  0  0  0  0
   19.1376   14.6866    1.6047 C   0  0  2  0  0  0  0  0  0  0  0  0
   18.2886   15.5903    2.4526 C   0  0  0  0  0  0  0  0  0  0  0  0
   18.2421   14.1051    2.6927 C   0  0  1  0  0  0  0  0  0  0  0  0
   17.1105   13.2044    2.3546 C   0  0  2  0  0  0  0  0  0  0  0  0
   17.4693   12.0734    1.4100 C   0  0  0  0  0  0  0  0  0  0  0  0
   16.1078   11.5900    0.9738 C   0  0  0  0  0  0  0  0  0  0  0  0
   15.2036   12.8063    1.1574 C   0  0  2  0  0  0  0  0  0  0  0  0
   14.5425   13.2659   -0.1218 C   0  0  0  0  0  0  0  0  0  0  0  0
   16.0140   13.8654    1.7101 O   0  0  0  0  0  0  0  0  0  0  0  0
  1  2  1  0
  2  3  1  0
  3  4  2  0
  4  5  1  0
  5  6  2  0
  6  7  1  0
  7  8  2  0
  8  9  1  0
  9 10  1  0
 10 11  1  0
 11 12  1  0
 12 13  1  1
 12 14  1  0
 14 15  1  0
 15 16  1  0
 16 17  2  0
 18 16  1  1
 18 19  1  0
 20 19  1  6
 20 21  1  0
 21 22  1  6
 22 23  1  0
 23 24  1  0
 24 25  1  6
 24 26  1  0
  8  3  1  0
 20 18  1  0
 26 21  1  0
 12  7  1  0
M  END
>  <energy_score>  (401) 
-17.947998

>  <inchikey>  (401) 
None

>  <smiles>  (401) 
None

>  <ref_pdb>  (401) 
A0239a

>  <alias>  (401) 
None

>  <HIPPO Pose ID>  (401) 
498045

>  <name>  (401) 
P498045

>  <HIPPO Compound ID>  (401) 
290349

>  <ref_mols>  (401) 
A0239a,A0608a

>  <distance_score>  (401) 
1.699528

>  <inspiration_score>  (401) 
None

$$$$
P498046
     RDKit          3D

 26 29  0  0  0  0  0  0  0  0999 V2000
   23.6759   11.1226   -2.5219 C   0  0  0  0  0  0  0  0  0  0  0  0
   23.3221   12.2995   -1.8069 O   0  0  0  0  0  0  0  0  0  0  0  0
   23.9781   12.5454   -0.6321 C   0  0  0  0  0  0  0  0  0  0  0  0
   24.9348   11.7058   -0.0613 C   0  0  0  0  0  0  0  0  0  0  0  0
   25.5099   12.0336    1.1617 C   0  0  0  0  0  0  0  0  0  0  0  0
   25.1253   13.1991    1.8155 C   0  0  0  0  0  0  0  0  0  0  0  0
   24.1962   14.0854    1.2304 C   0  0  0  0  0  0  0  0  0  0  0  0
   23.6229   13.7554   -0.0072 C   0  0  0  0  0  0  0  0  0  0  0  0
   22.7163   14.7121   -0.7601 C   0  0  0  0  0  0  0  0  0  0  0  0
   22.2219   15.9347    0.0053 C   0  0  0  0  0  0  0  0  0  0  0  0
   23.2694   16.4488    0.9661 C   0  0  0  0  0  0  0  0  0  0  0  0
   23.7966   15.3719    1.9340 C   0  0  2  0  0  0  0  0  0  0  0  0
   24.9748   15.9904    2.4828 O   0  0  0  0  0  0  0  0  0  0  0  0
   22.8305   15.0658    3.1110 C   0  0  0  0  0  0  0  0  0  0  0  0
   21.4412   15.4244    2.9186 N   0  0  0  0  0  0  0  0  0  0  0  0
   20.1977   14.5416    2.7531 C   0  0  0  0  0  0  0  0  0  0  0  0
   20.0788   13.3883    2.8210 O   0  0  0  0  0  0  0  0  0  0  0  0
   18.9875   15.4066    2.5607 C   0  0  2  0  0  0  0  0  0  0  0  0
   17.7021   15.0563    3.2907 C   0  0  0  0  0  0  0  0  0  0  0  0
   17.7310   15.0638    1.7899 C   0  0  2  0  0  0  0  0  0  0  0  0
   17.3635   13.8691    0.9865 C   0  0  1  0  0  0  0  0  0  0  0  0
   17.8386   12.4862    1.3761 C   0  0  0  0  0  0  0  0  0  0  0  0
   16.7263   11.6122    0.8534 C   0  0  0  0  0  0  0  0  0  0  0  0
   15.5149   12.4513    1.1946 C   0  0  2  0  0  0  0  0  0  0  0  0
   14.2916   12.1488    0.3560 C   0  0  0  0  0  0  0  0  0  0  0  0
   15.9152   13.8121    0.9922 O   0  0  0  0  0  0  0  0  0  0  0  0
  1  2  1  0
  2  3  1  0
  3  4  2  0
  4  5  1  0
  5  6  2  0
  6  7  1  0
  7  8  2  0
  8  9  1  0
  9 10  1  0
 10 11  1  0
 11 12  1  0
 12 13  1  1
 12 14  1  0
 14 15  1  0
 15 16  1  0
 16 17  2  0
 18 16  1  1
 18 19  1  0
 20 19  1  1
 20 21  1  0
 21 22  1  1
 22 23  1  0
 23 24  1  0
 24 25  1  6
 24 26  1  0
  8  3  1  0
 20 18  1  0
 26 21  1  0
 12  7  1  0
M  END
>  <energy_score>  (402) 
-24.541944

>  <inchikey>  (402) 
None

>  <smiles>  (402) 
None

>  <ref_pdb>  (402) 
A0239a

>  <alias>  (402) 
None

>  <HIPPO Pose ID>  (402) 
498046

>  <name>  (402) 
P498046

>  <HIPPO Compound ID>  (402) 
290349

>  <ref_mols>  (402) 
A0239a,A0608a

>  <distance_score>  (402) 
1.887022

>  <inspiration_score>  (402) 
None

$$$$
P498047
     RDKit          3D

 26 29  0  0  0  0  0  0  0  0999 V2000
   23.3625   11.3190   -2.6256 C   0  0  0  0  0  0  0  0  0  0  0  0
   23.4607   12.6173   -2.0531 O   0  0  0  0  0  0  0  0  0  0  0  0
   24.0973   12.7096   -0.8471 C   0  0  0  0  0  0  0  0  0  0  0  0
   24.9290   11.7253   -0.3117 C   0  0  0  0  0  0  0  0  0  0  0  0
   25.4770   11.8923    0.9547 C   0  0  0  0  0  0  0  0  0  0  0  0
   25.1352   13.0089    1.7086 C   0  0  0  0  0  0  0  0  0  0  0  0
   24.2940   14.0116    1.1800 C   0  0  0  0  0  0  0  0  0  0  0  0
   23.8688   13.9051   -0.1493 C   0  0  0  0  0  0  0  0  0  0  0  0
   23.1480   15.0505   -0.8349 C   0  0  0  0  0  0  0  0  0  0  0  0
   23.3788   16.4009   -0.1518 C   0  0  0  0  0  0  0  0  0  0  0  0
   23.0231   16.2964    1.3169 C   0  0  0  0  0  0  0  0  0  0  0  0
   23.8718   15.2081    2.0168 C   0  0  2  0  0  0  0  0  0  0  0  0
   25.0886   15.8988    2.3713 O   0  0  0  0  0  0  0  0  0  0  0  0
   23.1848   14.7568    3.3262 C   0  0  0  0  0  0  0  0  0  0  0  0
   21.7572   14.4854    3.3266 N   0  0  0  0  0  0  0  0  0  0  0  0
   20.8341   14.0275    2.2010 C   0  0  0  0  0  0  0  0  0  0  0  0
   21.0748   13.7188    1.1096 O   0  0  0  0  0  0  0  0  0  0  0  0
   19.4298   14.0114    2.6930 C   0  0  1  0  0  0  0  0  0  0  0  0
   18.5097   15.1754    2.4242 C   0  0  0  0  0  0  0  0  0  0  0  0
   18.2857   13.8733    1.7104 C   0  0  2  0  0  0  0  0  0  0  0  0
   17.1842   12.9352    2.0687 C   0  0  2  0  0  0  0  0  0  0  0  0
   17.3359   11.6070    1.3306 C   0  0  0  0  0  0  0  0  0  0  0  0
   16.3406   11.7350    0.2051 C   0  0  0  0  0  0  0  0  0  0  0  0
   15.2382   12.5092    0.8960 C   0  0  2  0  0  0  0  0  0  0  0  0
   14.2585   13.1667   -0.0457 C   0  0  0  0  0  0  0  0  0  0  0  0
   15.9141   13.4960    1.6918 O   0  0  0  0  0  0  0  0  0  0  0  0
  1  2  1  0
  2  3  1  0
  3  4  2  0
  4  5  1  0
  5  6  2  0
  6  7  1  0
  7  8  2  0
  8  9  1  0
  9 10  1  0
 10 11  1  0
 11 12  1  0
 12 13  1  1
 12 14  1  0
 14 15  1  0
 15 16  1  0
 16 17  2  0
 18 16  1  6
 18 19  1  0
 20 19  1  1
 20 21  1  0
 21 22  1  6
 22 23  1  0
 23 24  1  0
 24 25  1  6
 24 26  1  0
  8  3  1  0
 20 18  1  0
 26 21  1  0
 12  7  1  0
M  END
>  <energy_score>  (403) 
-28.048164

>  <inchikey>  (403) 
None

>  <smiles>  (403) 
None

>  <ref_pdb>  (403) 
A0239a

>  <alias>  (403) 
None

>  <HIPPO Pose ID>  (403) 
498047

>  <name>  (403) 
P498047

>  <HIPPO Compound ID>  (403) 
290349

>  <ref_mols>  (403) 
A0239a,A0608a

>  <distance_score>  (403) 
1.575513

>  <inspiration_score>  (403) 
None

$$$$
P498048
     RDKit          3D

 26 29  0  0  0  0  0  0  0  0999 V2000
   23.6461   11.3739   -2.2498 C   0  0  0  0  0  0  0  0  0  0  0  0
   23.1626   12.5111   -1.5448 O   0  0  0  0  0  0  0  0  0  0  0  0
   23.8154   12.8501   -0.3906 C   0  0  0  0  0  0  0  0  0  0  0  0
   24.6848   12.0111    0.3028 C   0  0  0  0  0  0  0  0  0  0  0  0
   25.2275   12.4227    1.5156 C   0  0  0  0  0  0  0  0  0  0  0  0
   24.9118   13.6787    2.0301 C   0  0  0  0  0  0  0  0  0  0  0  0
   24.0967   14.5727    1.3076 C   0  0  0  0  0  0  0  0  0  0  0  0
   23.5411   14.1473    0.0865 C   0  0  0  0  0  0  0  0  0  0  0  0
   22.6998   15.0675   -0.7833 C   0  0  0  0  0  0  0  0  0  0  0  0
   22.5800   16.5352   -0.3653 C   0  0  0  0  0  0  0  0  0  0  0  0
   23.6519   16.9554    0.6098 C   0  0  0  0  0  0  0  0  0  0  0  0
   23.8251   15.9939    1.7936 C   0  0  2  0  0  0  0  0  0  0  0  0
   24.9819   16.5067    2.4689 O   0  0  0  0  0  0  0  0  0  0  0  0
   22.6340   16.1099    2.7782 C   0  0  0  0  0  0  0  0  0  0  0  0
   21.3969   15.4683    2.3877 N   0  0  0  0  0  0  0  0  0  0  0  0
   20.7103   14.2394    2.9391 C   0  0  0  0  0  0  0  0  0  0  0  0
   20.9760   13.5761    3.8464 O   0  0  0  0  0  0  0  0  0  0  0  0
   19.5711   13.7948    2.0883 C   0  0  1  0  0  0  0  0  0  0  0  0
   18.4035   13.2498    2.9032 C   0  0  0  0  0  0  0  0  0  0  0  0
   18.1915   14.4060    1.9908 C   0  0  2  0  0  0  0  0  0  0  0  0
   17.2377   14.1652    0.8573 C   0  0  1  0  0  0  0  0  0  0  0  0
   17.5540   12.9722   -0.0506 C   0  0  0  0  0  0  0  0  0  0  0  0
   16.1916   12.4082   -0.3577 C   0  0  0  0  0  0  0  0  0  0  0  0
   15.4613   12.6496    0.9446 C   0  0  2  0  0  0  0  0  0  0  0  0
   13.9557   12.6752    0.7879 C   0  0  0  0  0  0  0  0  0  0  0  0
   15.9262   13.9243    1.4187 O   0  0  0  0  0  0  0  0  0  0  0  0
  1  2  1  0
  2  3  1  0
  3  4  2  0
  4  5  1  0
  5  6  2  0
  6  7  1  0
  7  8  2  0
  8  9  1  0
  9 10  1  0
 10 11  1  0
 11 12  1  0
 12 13  1  1
 12 14  1  0
 14 15  1  0
 15 16  1  0
 16 17  2  0
 18 16  1  1
 18 19  1  0
 20 19  1  1
 20 21  1  0
 21 22  1  1
 22 23  1  0
 23 24  1  0
 24 25  1  6
 24 26  1  0
  8  3  1  0
 20 18  1  0
 26 21  1  0
 12  7  1  0
M  END
>  <energy_score>  (404) 
-22.901877

>  <inchikey>  (404) 
None

>  <smiles>  (404) 
None

>  <ref_pdb>  (404) 
A0239a

>  <alias>  (404) 
None

>  <HIPPO Pose ID>  (404) 
498048

>  <name>  (404) 
P498048

>  <HIPPO Compound ID>  (404) 
290349

>  <ref_mols>  (404) 
A0239a,A0608a

>  <distance_score>  (404) 
1.851269

>  <inspiration_score>  (404) 
None

$$$$
P498049
     RDKit          3D

 26 29  0  0  0  0  0  0  0  0999 V2000
   23.5442   11.1159   -2.5651 C   0  0  0  0  0  0  0  0  0  0  0  0
   23.2530   12.3270   -1.8795 O   0  0  0  0  0  0  0  0  0  0  0  0
   23.9168   12.5658   -0.7081 C   0  0  0  0  0  0  0  0  0  0  0  0
   24.8893   11.7291   -0.1578 C   0  0  0  0  0  0  0  0  0  0  0  0
   25.4799   12.0517    1.0588 C   0  0  0  0  0  0  0  0  0  0  0  0
   25.0893   13.2057    1.7284 C   0  0  0  0  0  0  0  0  0  0  0  0
   24.1371   14.0843    1.1664 C   0  0  0  0  0  0  0  0  0  0  0  0
   23.5554   13.7656   -0.0675 C   0  0  0  0  0  0  0  0  0  0  0  0
   22.6239   14.7213   -0.7913 C   0  0  0  0  0  0  0  0  0  0  0  0
   22.1257   15.9351   -0.0107 C   0  0  0  0  0  0  0  0  0  0  0  0
   23.1495   16.4379    0.9775 C   0  0  0  0  0  0  0  0  0  0  0  0
   23.7062   15.3417    1.8992 C   0  0  2  0  0  0  0  0  0  0  0  0
   24.8774   15.9641    2.4646 O   0  0  0  0  0  0  0  0  0  0  0  0
   22.7653   14.9682    3.0704 C   0  0  0  0  0  0  0  0  0  0  0  0
   21.3411   15.2008    2.9353 N   0  0  0  0  0  0  0  0  0  0  0  0
   20.2308   14.2895    2.4116 C   0  0  0  0  0  0  0  0  0  0  0  0
   20.2868   13.2346    1.9326 O   0  0  0  0  0  0  0  0  0  0  0  0
   18.9108   14.9045    2.6926 C   0  0  1  0  0  0  0  0  0  0  0  0
   18.2798   15.8982    1.7579 C   0  0  0  0  0  0  0  0  0  0  0  0
   17.6239   14.5568    1.9956 C   0  0  1  0  0  0  0  0  0  0  0  0
   17.4681   13.6177    0.8427 C   0  0  1  0  0  0  0  0  0  0  0  0
   17.4773   12.1478    1.2111 C   0  0  0  0  0  0  0  0  0  0  0  0
   16.0612   11.9050    1.6601 C   0  0  0  0  0  0  0  0  0  0  0  0
   15.2410   12.8921    0.8537 C   0  0  2  0  0  0  0  0  0  0  0  0
   14.4580   12.2437   -0.2683 C   0  0  0  0  0  0  0  0  0  0  0  0
   16.1517   13.8574    0.3063 O   0  0  0  0  0  0  0  0  0  0  0  0
  1  2  1  0
  2  3  1  0
  3  4  2  0
  4  5  1  0
  5  6  2  0
  6  7  1  0
  7  8  2  0
  8  9  1  0
  9 10  1  0
 10 11  1  0
 11 12  1  0
 12 13  1  1
 12 14  1  0
 14 15  1  0
 15 16  1  0
 16 17  2  0
 18 16  1  6
 18 19  1  0
 20 19  1  6
 20 21  1  0
 21 22  1  1
 22 23  1  0
 23 24  1  0
 24 25  1  6
 24 26  1  0
  8  3  1  0
 20 18  1  0
 26 21  1  0
 12  7  1  0
M  END
>  <energy_score>  (405) 
-21.275432

>  <inchikey>  (405) 
None

>  <smiles>  (405) 
None

>  <ref_pdb>  (405) 
A0239a

>  <alias>  (405) 
None

>  <HIPPO Pose ID>  (405) 
498049

>  <name>  (405) 
P498049

>  <HIPPO Compound ID>  (405) 
290349

>  <ref_mols>  (405) 
A0239a,A0608a

>  <distance_score>  (405) 
1.941616

>  <inspiration_score>  (405) 
None

$$$$
P498050
     RDKit          3D

 26 29  0  0  0  0  0  0  0  0999 V2000
   23.4852   11.2209   -2.4269 C   0  0  0  0  0  0  0  0  0  0  0  0
   23.0953   12.2738   -1.5543 O   0  0  0  0  0  0  0  0  0  0  0  0
   23.9132   12.5388   -0.4906 C   0  0  0  0  0  0  0  0  0  0  0  0
   24.9769   11.7337   -0.0827 C   0  0  0  0  0  0  0  0  0  0  0  0
   25.7057   12.0627    1.0572 C   0  0  0  0  0  0  0  0  0  0  0  0
   25.3715   13.1947    1.7964 C   0  0  0  0  0  0  0  0  0  0  0  0
   24.3263   14.0388    1.3814 C   0  0  0  0  0  0  0  0  0  0  0  0
   23.6060   13.7125    0.2166 C   0  0  0  0  0  0  0  0  0  0  0  0
   22.4690   14.5988   -0.2439 C   0  0  0  0  0  0  0  0  0  0  0  0
   22.6584   16.0952    0.0231 C   0  0  0  0  0  0  0  0  0  0  0  0
   23.6198   16.4349    1.1498 C   0  0  0  0  0  0  0  0  0  0  0  0
   23.9328   15.2965    2.1379 C   0  0  2  0  0  0  0  0  0  0  0  0
   25.0735   15.8081    2.8451 O   0  0  0  0  0  0  0  0  0  0  0  0
   22.7823   15.0352    3.1524 C   0  0  0  0  0  0  0  0  0  0  0  0
   21.4442   15.3646    2.7101 N   0  0  0  0  0  0  0  0  0  0  0  0
   20.1855   14.4974    2.6155 C   0  0  0  0  0  0  0  0  0  0  0  0
   19.9999   13.4000    2.9489 O   0  0  0  0  0  0  0  0  0  0  0  0
   19.1157   15.2776    1.9283 C   0  0  2  0  0  0  0  0  0  0  0  0
   17.9281   15.8077    2.6935 C   0  0  0  0  0  0  0  0  0  0  0  0
   17.7300   14.7425    1.6475 C   0  0  2  0  0  0  0  0  0  0  0  0
   17.2069   13.4023    2.0639 C   0  0  2  0  0  0  0  0  0  0  0  0
   17.7164   12.2666    1.1729 C   0  0  0  0  0  0  0  0  0  0  0  0
   16.4532   11.5993    0.6786 C   0  0  0  0  0  0  0  0  0  0  0  0
   15.4875   12.7605    0.6593 C   0  0  1  0  0  0  0  0  0  0  0  0
   14.0291   12.3693    0.5861 C   0  0  0  0  0  0  0  0  0  0  0  0
   15.7682   13.4521    1.8873 O   0  0  0  0  0  0  0  0  0  0  0  0
  1  2  1  0
  2  3  1  0
  3  4  2  0
  4  5  1  0
  5  6  2  0
  6  7  1  0
  7  8  2  0
  8  9  1  0
  9 10  1  0
 10 11  1  0
 11 12  1  0
 12 13  1  1
 12 14  1  0
 14 15  1  0
 15 16  1  0
 16 17  2  0
 18 16  1  1
 18 19  1  0
 20 19  1  1
 20 21  1  0
 21 22  1  6
 22 23  1  0
 23 24  1  0
 24 25  1  1
 24 26  1  0
  8  3  1  0
 20 18  1  0
 26 21  1  0
 12  7  1  0
M  END
>  <energy_score>  (406) 
-27.915973

>  <inchikey>  (406) 
None

>  <smiles>  (406) 
None

>  <ref_pdb>  (406) 
A0239a

>  <alias>  (406) 
None

>  <HIPPO Pose ID>  (406) 
498050

>  <name>  (406) 
P498050

>  <HIPPO Compound ID>  (406) 
290349

>  <ref_mols>  (406) 
A0239a,A0608a

>  <distance_score>  (406) 
1.587159

>  <inspiration_score>  (406) 
None

$$$$
P498051
     RDKit          3D

 26 29  0  0  0  0  0  0  0  0999 V2000
   23.6847   11.3219   -2.3147 C   0  0  0  0  0  0  0  0  0  0  0  0
   23.2642   12.4336   -1.5330 O   0  0  0  0  0  0  0  0  0  0  0  0
   23.9884   12.7114   -0.4053 C   0  0  0  0  0  0  0  0  0  0  0  0
   24.9173   11.8496    0.1747 C   0  0  0  0  0  0  0  0  0  0  0  0
   25.5203   12.1870    1.3831 C   0  0  0  0  0  0  0  0  0  0  0  0
   25.1999   13.3883    2.0117 C   0  0  0  0  0  0  0  0  0  0  0  0
   24.3189   14.3039    1.4069 C   0  0  0  0  0  0  0  0  0  0  0  0
   23.7172   13.9614    0.1815 C   0  0  0  0  0  0  0  0  0  0  0  0
   22.7486   14.9000   -0.5103 C   0  0  0  0  0  0  0  0  0  0  0  0
   22.8341   16.3897   -0.1561 C   0  0  0  0  0  0  0  0  0  0  0  0
   23.8084   16.7247    0.9524 C   0  0  0  0  0  0  0  0  0  0  0  0
   23.9826   15.6509    2.0364 C   0  0  2  0  0  0  0  0  0  0  0  0
   25.0886   16.1359    2.8040 O   0  0  0  0  0  0  0  0  0  0  0  0
   22.7603   15.5815    2.9834 C   0  0  0  0  0  0  0  0  0  0  0  0
   21.5293   15.1585    2.3611 N   0  0  0  0  0  0  0  0  0  0  0  0
   20.4922   14.1522    2.8138 C   0  0  0  0  0  0  0  0  0  0  0  0
   20.4864   13.4375    3.7235 O   0  0  0  0  0  0  0  0  0  0  0  0
   19.3899   14.0625    1.8364 C   0  0  2  0  0  0  0  0  0  0  0  0
   18.4759   15.1842    1.4442 C   0  0  0  0  0  0  0  0  0  0  0  0
   17.9816   14.1165    2.3897 C   0  0  1  0  0  0  0  0  0  0  0  0
   16.9697   13.0833    2.0468 C   0  0  2  0  0  0  0  0  0  0  0  0
   17.3675   12.0297    1.0255 C   0  0  0  0  0  0  0  0  0  0  0  0
   16.0191   11.5803    0.5324 C   0  0  0  0  0  0  0  0  0  0  0  0
   15.2824   12.9064    0.4612 C   0  0  1  0  0  0  0  0  0  0  0  0
   13.7804   12.7571    0.5657 C   0  0  0  0  0  0  0  0  0  0  0  0
   15.7715   13.7079    1.5529 O   0  0  0  0  0  0  0  0  0  0  0  0
  1  2  1  0
  2  3  1  0
  3  4  2  0
  4  5  1  0
  5  6  2  0
  6  7  1  0
  7  8  2  0
  8  9  1  0
  9 10  1  0
 10 11  1  0
 11 12  1  0
 12 13  1  1
 12 14  1  0
 14 15  1  0
 15 16  1  0
 16 17  2  0
 18 16  1  1
 18 19  1  0
 20 19  1  6
 20 21  1  0
 21 22  1  6
 22 23  1  0
 23 24  1  0
 24 25  1  1
 24 26  1  0
  8  3  1  0
 20 18  1  0
 26 21  1  0
 12  7  1  0
M  END
>  <energy_score>  (407) 
-19.352567

>  <inchikey>  (407) 
None

>  <smiles>  (407) 
None

>  <ref_pdb>  (407) 
A0239a

>  <alias>  (407) 
None

>  <HIPPO Pose ID>  (407) 
498051

>  <name>  (407) 
P498051

>  <HIPPO Compound ID>  (407) 
290349

>  <ref_mols>  (407) 
A0239a,A0608a

>  <distance_score>  (407) 
1.762485

>  <inspiration_score>  (407) 
None

$$$$
P498052
     RDKit          3D

 26 29  0  0  0  0  0  0  0  0999 V2000
   23.5087   11.2138   -2.4199 C   0  0  0  0  0  0  0  0  0  0  0  0
   23.1154   12.2698   -1.5520 O   0  0  0  0  0  0  0  0  0  0  0  0
   23.9248   12.5334   -0.4816 C   0  0  0  0  0  0  0  0  0  0  0  0
   24.9823   11.7260   -0.0634 C   0  0  0  0  0  0  0  0  0  0  0  0
   25.7009   12.0536    1.0835 C   0  0  0  0  0  0  0  0  0  0  0  0
   25.3620   13.1861    1.8202 C   0  0  0  0  0  0  0  0  0  0  0  0
   24.3235   14.0331    1.3949 C   0  0  0  0  0  0  0  0  0  0  0  0
   23.6156   13.7090    0.2215 C   0  0  0  0  0  0  0  0  0  0  0  0
   22.4928   14.6043   -0.2561 C   0  0  0  0  0  0  0  0  0  0  0  0
   22.7058   16.0997   -0.0022 C   0  0  0  0  0  0  0  0  0  0  0  0
   23.6418   16.4346    1.1487 C   0  0  0  0  0  0  0  0  0  0  0  0
   23.9279   15.2946    2.1449 C   0  0  2  0  0  0  0  0  0  0  0  0
   25.0588   15.7975    2.8725 O   0  0  0  0  0  0  0  0  0  0  0  0
   22.7548   15.0490    3.1390 C   0  0  0  0  0  0  0  0  0  0  0  0
   21.4285   15.3555    2.6470 N   0  0  0  0  0  0  0  0  0  0  0  0
   20.1568   14.5022    2.6150 C   0  0  0  0  0  0  0  0  0  0  0  0
   19.9878   13.3904    2.9078 O   0  0  0  0  0  0  0  0  0  0  0  0
   19.0533   15.3055    2.0081 C   0  0  2  0  0  0  0  0  0  0  0  0
   17.8664   15.7574    2.8202 C   0  0  0  0  0  0  0  0  0  0  0  0
   17.6763   14.7502    1.7174 C   0  0  2  0  0  0  0  0  0  0  0  0
   17.1889   13.3783    2.0696 C   0  0  2  0  0  0  0  0  0  0  0  0
   17.7207   12.2987    1.1242 C   0  0  0  0  0  0  0  0  0  0  0  0
   16.4717   11.6272    0.6009 C   0  0  0  0  0  0  0  0  0  0  0  0
   15.4767   12.7628    0.6454 C   0  0  1  0  0  0  0  0  0  0  0  0
   14.0291   12.3356    0.5611 C   0  0  0  0  0  0  0  0  0  0  0  0
   15.7485   13.4004    1.9041 O   0  0  0  0  0  0  0  0  0  0  0  0
  1  2  1  0
  2  3  1  0
  3  4  2  0
  4  5  1  0
  5  6  2  0
  6  7  1  0
  7  8  2  0
  8  9  1  0
  9 10  1  0
 10 11  1  0
 11 12  1  0
 12 13  1  1
 12 14  1  0
 14 15  1  0
 15 16  1  0
 16 17  2  0
 18 16  1  1
 18 19  1  0
 20 19  1  1
 20 21  1  0
 21 22  1  6
 22 23  1  0
 23 24  1  0
 24 25  1  1
 24 26  1  0
  8  3  1  0
 20 18  1  0
 26 21  1  0
 12  7  1  0
M  END
>  <energy_score>  (408) 
-25.677472

>  <inchikey>  (408) 
None

>  <smiles>  (408) 
None

>  <ref_pdb>  (408) 
A0239a

>  <alias>  (408) 
None

>  <HIPPO Pose ID>  (408) 
498052

>  <name>  (408) 
P498052

>  <HIPPO Compound ID>  (408) 
290349

>  <ref_mols>  (408) 
A0239a,A0608a

>  <distance_score>  (408) 
1.584545

>  <inspiration_score>  (408) 
None

$$$$
P498053
     RDKit          3D

 26 29  0  0  0  0  0  0  0  0999 V2000
   23.2999   11.1474   -2.4214 C   0  0  0  0  0  0  0  0  0  0  0  0
   22.8650   12.0900   -1.4477 O   0  0  0  0  0  0  0  0  0  0  0  0
   23.7736   12.4520   -0.4925 C   0  0  0  0  0  0  0  0  0  0  0  0
   24.9153   11.7161   -0.1677 C   0  0  0  0  0  0  0  0  0  0  0  0
   25.7420   12.1284    0.8736 C   0  0  0  0  0  0  0  0  0  0  0  0
   25.4390   13.2883    1.5795 C   0  0  0  0  0  0  0  0  0  0  0  0
   24.3238   14.0735    1.2275 C   0  0  0  0  0  0  0  0  0  0  0  0
   23.4776   13.6387    0.1948 C   0  0  0  0  0  0  0  0  0  0  0  0
   22.2286   14.4280   -0.1255 C   0  0  0  0  0  0  0  0  0  0  0  0
   22.4289   15.9388   -0.0623 C   0  0  0  0  0  0  0  0  0  0  0  0
   23.3420   16.4386    1.0443 C   0  0  0  0  0  0  0  0  0  0  0  0
   23.9946   15.3738    1.9438 C   0  0  2  0  0  0  0  0  0  0  0  0
   25.2309   15.9880    2.3569 O   0  0  0  0  0  0  0  0  0  0  0  0
   23.1930   15.1082    3.2330 C   0  0  0  0  0  0  0  0  0  0  0  0
   21.8167   14.6752    3.1164 N   0  0  0  0  0  0  0  0  0  0  0  0
   20.5517   15.4624    2.7513 C   0  0  0  0  0  0  0  0  0  0  0  0
   20.4229   16.5669    2.4109 O   0  0  0  0  0  0  0  0  0  0  0  0
   19.3188   14.6301    2.9896 C   0  0  1  0  0  0  0  0  0  0  0  0
   17.9892   15.3704    3.0234 C   0  0  0  0  0  0  0  0  0  0  0  0
   18.2696   14.3810    1.9294 C   0  0  2  0  0  0  0  0  0  0  0  0
   17.4248   13.1512    1.9282 C   0  0  2  0  0  0  0  0  0  0  0  0
   17.8844   12.0972    0.9339 C   0  0  0  0  0  0  0  0  0  0  0  0
   16.5737   11.5232    0.4558 C   0  0  0  0  0  0  0  0  0  0  0  0
   15.7015   12.7616    0.4175 C   0  0  1  0  0  0  0  0  0  0  0  0
   14.2157   12.4684    0.4453 C   0  0  0  0  0  0  0  0  0  0  0  0
   16.0739   13.5169    1.5796 O   0  0  0  0  0  0  0  0  0  0  0  0
  1  2  1  0
  2  3  1  0
  3  4  2  0
  4  5  1  0
  5  6  2  0
  6  7  1  0
  7  8  2  0
  8  9  1  0
  9 10  1  0
 10 11  1  0
 11 12  1  0
 12 13  1  1
 12 14  1  0
 14 15  1  0
 15 16  1  0
 16 17  2  0
 18 16  1  6
 18 19  1  0
 20 19  1  1
 20 21  1  0
 21 22  1  6
 22 23  1  0
 23 24  1  0
 24 25  1  1
 24 26  1  0
  8  3  1  0
 20 18  1  0
 26 21  1  0
 12  7  1  0
M  END
>  <energy_score>  (409) 
-47.979913

>  <inchikey>  (409) 
None

>  <smiles>  (409) 
None

>  <ref_pdb>  (409) 
A0239a

>  <alias>  (409) 
None

>  <HIPPO Pose ID>  (409) 
498053

>  <name>  (409) 
P498053

>  <HIPPO Compound ID>  (409) 
290349

>  <ref_mols>  (409) 
A0239a,A0608a

>  <distance_score>  (409) 
1.944289

>  <inspiration_score>  (409) 
None

$$$$
P498054
     RDKit          3D

 26 29  0  0  0  0  0  0  0  0999 V2000
   24.3879   10.8914   -2.0796 C   0  0  0  0  0  0  0  0  0  0  0  0
   24.5548   11.0596   -0.6780 O   0  0  0  0  0  0  0  0  0  0  0  0
   24.4758   12.3124   -0.1677 C   0  0  0  0  0  0  0  0  0  0  0  0
   24.5323   12.4011    1.2199 C   0  0  0  0  0  0  0  0  0  0  0  0
   24.3118   13.6082    1.8684 C   0  0  0  0  0  0  0  0  0  0  0  0
   24.0620   14.7645    1.1193 C   0  0  0  0  0  0  0  0  0  0  0  0
   24.1580   14.6947   -0.2877 C   0  0  0  0  0  0  0  0  0  0  0  0
   24.3383   13.4614   -0.9203 C   0  0  0  0  0  0  0  0  0  0  0  0
   23.9685   15.9081   -1.1723 C   0  0  0  0  0  0  0  0  0  0  0  0
   24.0101   17.2357   -0.4244 C   0  0  0  0  0  0  0  0  0  0  0  0
   23.1545   17.1413    0.8211 C   0  0  0  0  0  0  0  0  0  0  0  0
   23.7301   16.0920    1.7951 C   0  0  2  0  0  0  0  0  0  0  0  0
   24.9640   16.6359    2.2830 O   0  0  0  0  0  0  0  0  0  0  0  0
   22.7566   16.0077    2.9946 C   0  0  0  0  0  0  0  0  0  0  0  0
   21.3721   15.7508    2.6560 N   0  0  0  0  0  0  0  0  0  0  0  0
   20.5017   14.5308    2.9130 C   0  0  0  0  0  0  0  0  0  0  0  0
   20.7241   13.5600    3.5046 O   0  0  0  0  0  0  0  0  0  0  0  0
   19.1476   14.6951    2.3309 C   0  0  1  0  0  0  0  0  0  0  0  0
   18.8475   15.0208    0.8931 C   0  0  0  0  0  0  0  0  0  0  0  0
   18.7441   13.5969    1.3650 C   0  0  2  0  0  0  0  0  0  0  0  0
   17.5014   12.8464    1.6766 C   0  0  2  0  0  0  0  0  0  0  0  0
   17.2872   11.6925    0.7206 C   0  0  0  0  0  0  0  0  0  0  0  0
   15.8352   11.3863    0.9562 C   0  0  0  0  0  0  0  0  0  0  0  0
   15.2292   12.7517    1.2472 C   0  0  2  0  0  0  0  0  0  0  0  0
   14.4576   13.3083    0.0678 C   0  0  0  0  0  0  0  0  0  0  0  0
   16.3116   13.6457    1.5789 O   0  0  0  0  0  0  0  0  0  0  0  0
  1  2  1  0
  2  3  1  0
  3  4  2  0
  4  5  1  0
  5  6  2  0
  6  7  1  0
  7  8  2  0
  7  9  1  0
  9 10  1  0
 10 11  1  0
 11 12  1  0
 12 13  1  1
 12 14  1  0
 14 15  1  0
 15 16  1  0
 16 17  2  0
 18 16  1  6
 18 19  1  0
 20 19  1  6
 20 21  1  0
 21 22  1  6
 22 23  1  0
 23 24  1  0
 24 25  1  6
 24 26  1  0
  8  3  1  0
 20 18  1  0
 26 21  1  0
 12  6  1  0
M  END
>  <energy_score>  (410) 
-28.453654

>  <inchikey>  (410) 
None

>  <smiles>  (410) 
None

>  <ref_pdb>  (410) 
A0239a

>  <alias>  (410) 
None

>  <HIPPO Pose ID>  (410) 
498054

>  <name>  (410) 
P498054

>  <HIPPO Compound ID>  (410) 
290350

>  <ref_mols>  (410) 
A0239a,A0608a

>  <distance_score>  (410) 
1.988091

>  <inspiration_score>  (410) 
None

$$$$
P498055
     RDKit          3D

 26 29  0  0  0  0  0  0  0  0999 V2000
   22.9674   11.3679   -2.1257 C   0  0  0  0  0  0  0  0  0  0  0  0
   23.7566   12.5497   -1.9762 O   0  0  0  0  0  0  0  0  0  0  0  0
   24.0934   12.7449   -0.6675 C   0  0  0  0  0  0  0  0  0  0  0  0
   24.9670   11.8778   -0.0162 C   0  0  0  0  0  0  0  0  0  0  0  0
   25.2498   12.0812    1.3272 C   0  0  0  0  0  0  0  0  0  0  0  0
   24.6100   13.1122    2.0160 C   0  0  0  0  0  0  0  0  0  0  0  0
   23.7434   14.0072    1.3487 C   0  0  0  0  0  0  0  0  0  0  0  0
   23.5675   13.8687   -0.0284 C   0  0  0  0  0  0  0  0  0  0  0  0
   22.8054   14.9096   -0.8082 C   0  0  0  0  0  0  0  0  0  0  0  0
   22.9496   16.2886   -0.1614 C   0  0  0  0  0  0  0  0  0  0  0  0
   22.3559   16.2334    1.2296 C   0  0  0  0  0  0  0  0  0  0  0  0
   22.9826   15.1024    2.0870 C   0  0  2  0  0  0  0  0  0  0  0  0
   23.9431   15.7995    2.9056 O   0  0  0  0  0  0  0  0  0  0  0  0
   21.8941   14.4672    3.0037 C   0  0  0  0  0  0  0  0  0  0  0  0
   20.5119   14.4127    2.5197 N   0  0  0  0  0  0  0  0  0  0  0  0
   19.8662   13.5417    1.4025 C   0  0  0  0  0  0  0  0  0  0  0  0
   20.3535   12.7950    0.6509 O   0  0  0  0  0  0  0  0  0  0  0  0
   18.3815   13.8958    1.3380 C   0  0  2  0  0  0  0  0  0  0  0  0
   17.5607   13.7642    2.6306 C   0  0  1  0  0  0  0  0  0  0  0  0
   16.4401   14.8016    2.5725 C   0  0  0  0  0  0  0  0  0  0  0  0
   15.5702   14.2416    1.4324 C   0  0  0  0  0  0  0  0  0  0  0  0
   16.2307   12.8893    1.1526 C   0  0  2  0  0  0  0  0  0  0  0  0
   16.7330   12.5817    2.4716 O   0  0  0  0  0  0  0  0  0  0  0  0
   17.5516   13.0237    0.3999 C   0  0  0  0  0  0  0  0  0  0  0  0
   18.0661   11.7893    0.2264 F   0  0  0  0  0  0  0  0  0  0  0  0
   17.3873   13.5981   -0.8072 F   0  0  0  0  0  0  0  0  0  0  0  0
  1  2  1  0
  2  3  1  0
  3  4  2  0
  4  5  1  0
  5  6  2  0
  6  7  1  0
  7  8  2  0
  8  9  1  0
  9 10  1  0
 10 11  1  0
 11 12  1  0
 12 13  1  1
 12 14  1  0
 14 15  1  0
 15 16  1  0
 16 17  2  0
 18 16  1  1
 18 19  1  0
 19 20  1  6
 20 21  1  0
 22 21  1  1
 22 23  1  0
 22 24  1  0
 24 25  1  0
 24 26  1  0
  8  3  1  0
 24 18  1  0
 12  7  1  0
 23 19  1  0
M  END
>  <energy_score>  (411) 
-7.166848

>  <inchikey>  (411) 
None

>  <smiles>  (411) 
None

>  <ref_pdb>  (411) 
A0239a

>  <alias>  (411) 
None

>  <HIPPO Pose ID>  (411) 
498055

>  <name>  (411) 
P498055

>  <HIPPO Compound ID>  (411) 
290351

>  <ref_mols>  (411) 
A0239a,A0608a

>  <distance_score>  (411) 
1.717372

>  <inspiration_score>  (411) 
None

$$$$
P498056
     RDKit          3D

 26 29  0  0  0  0  0  0  0  0999 V2000
   23.8118   11.1739   -2.4385 C   0  0  0  0  0  0  0  0  0  0  0  0
   23.2817   12.2573   -1.6844 O   0  0  0  0  0  0  0  0  0  0  0  0
   23.8947   12.5587   -0.5003 C   0  0  0  0  0  0  0  0  0  0  0  0
   24.9323   11.8241    0.0703 C   0  0  0  0  0  0  0  0  0  0  0  0
   25.4333   12.1849    1.3165 C   0  0  0  0  0  0  0  0  0  0  0  0
   24.8896   13.2716    2.0006 C   0  0  0  0  0  0  0  0  0  0  0  0
   23.8659   14.0487    1.4262 C   0  0  0  0  0  0  0  0  0  0  0  0
   23.3908   13.6991    0.1501 C   0  0  0  0  0  0  0  0  0  0  0  0
   22.3043   14.5178   -0.5133 C   0  0  0  0  0  0  0  0  0  0  0  0
   22.2726   16.0105   -0.1655 C   0  0  0  0  0  0  0  0  0  0  0  0
   23.0382   16.3959    1.0820 C   0  0  0  0  0  0  0  0  0  0  0  0
   23.2579   15.2685    2.0999 C   0  0  2  0  0  0  0  0  0  0  0  0
   24.2248   15.8537    2.9895 O   0  0  0  0  0  0  0  0  0  0  0  0
   21.9671   14.9627    2.9141 C   0  0  0  0  0  0  0  0  0  0  0  0
   20.7188   14.6251    2.2473 N   0  0  0  0  0  0  0  0  0  0  0  0
   19.5461   13.7198    2.7051 C   0  0  0  0  0  0  0  0  0  0  0  0
   19.4366   13.0473    3.6504 O   0  0  0  0  0  0  0  0  0  0  0  0
   18.4342   13.7884    1.6658 C   0  0  2  0  0  0  0  0  0  0  0  0
   17.1532   14.3410    2.3111 C   0  0  1  0  0  0  0  0  0  0  0  0
   16.2180   14.8336    1.2120 C   0  0  0  0  0  0  0  0  0  0  0  0
   15.7396   13.5122    0.5951 C   0  0  0  0  0  0  0  0  0  0  0  0
   16.4323   12.4735    1.4767 C   0  0  2  0  0  0  0  0  0  0  0  0
   16.3889   13.1806    2.7384 O   0  0  0  0  0  0  0  0  0  0  0  0
   17.9362   12.4245    1.1966 C   0  0  0  0  0  0  0  0  0  0  0  0
   18.1812   12.2606   -0.1184 F   0  0  0  0  0  0  0  0  0  0  0  0
   18.5241   11.3900    1.8255 F   0  0  0  0  0  0  0  0  0  0  0  0
  1  2  1  0
  2  3  1  0
  3  4  2  0
  4  5  1  0
  5  6  2  0
  6  7  1  0
  7  8  2  0
  8  9  1  0
  9 10  1  0
 10 11  1  0
 11 12  1  0
 12 13  1  1
 12 14  1  0
 14 15  1  0
 15 16  1  0
 16 17  2  0
 18 16  1  1
 18 19  1  0
 19 20  1  6
 20 21  1  0
 22 21  1  6
 22 23  1  0
 22 24  1  0
 24 25  1  0
 24 26  1  0
  8  3  1  0
 24 18  1  0
 12  7  1  0
 23 19  1  0
M  END
>  <energy_score>  (412) 
-15.961737

>  <inchikey>  (412) 
None

>  <smiles>  (412) 
None

>  <ref_pdb>  (412) 
A0239a

>  <alias>  (412) 
None

>  <HIPPO Pose ID>  (412) 
498056

>  <name>  (412) 
P498056

>  <HIPPO Compound ID>  (412) 
290351

>  <ref_mols>  (412) 
A0239a,A0608a

>  <distance_score>  (412) 
1.955009

>  <inspiration_score>  (412) 
None

$$$$
P498057
     RDKit          3D

 26 29  0  0  0  0  0  0  0  0999 V2000
   23.7224   11.4132   -2.5082 C   0  0  0  0  0  0  0  0  0  0  0  0
   23.6616   12.6847   -1.8731 O   0  0  0  0  0  0  0  0  0  0  0  0
   24.2369   12.7941   -0.6389 C   0  0  0  0  0  0  0  0  0  0  0  0
   24.9625   11.7914    0.0007 C   0  0  0  0  0  0  0  0  0  0  0  0
   25.4121   11.9822    1.3036 C   0  0  0  0  0  0  0  0  0  0  0  0
   25.0692   13.1421    1.9911 C   0  0  0  0  0  0  0  0  0  0  0  0
   24.3500   14.1700    1.3517 C   0  0  0  0  0  0  0  0  0  0  0  0
   24.0374   14.0304   -0.0065 C   0  0  0  0  0  0  0  0  0  0  0  0
   23.5030   15.2030   -0.8029 C   0  0  0  0  0  0  0  0  0  0  0  0
   23.7997   16.5475   -0.1381 C   0  0  0  0  0  0  0  0  0  0  0  0
   23.2457   16.5360    1.2686 C   0  0  0  0  0  0  0  0  0  0  0  0
   23.8706   15.4004    2.1187 C   0  0  2  0  0  0  0  0  0  0  0  0
   25.0009   15.9892    2.7624 O   0  0  0  0  0  0  0  0  0  0  0  0
   22.8252   14.9682    3.1773 C   0  0  0  0  0  0  0  0  0  0  0  0
   21.6098   14.4546    2.5745 N   0  0  0  0  0  0  0  0  0  0  0  0
   20.2203   15.1115    2.3975 C   0  0  0  0  0  0  0  0  0  0  0  0
   19.8140   16.1412    2.7785 O   0  0  0  0  0  0  0  0  0  0  0  0
   19.3217   14.1670    1.4713 C   0  0  2  0  0  0  0  0  0  0  0  0
   20.0425   13.7058    0.1928 C   0  0  0  0  0  0  0  0  0  0  0  0
   17.9378   14.7911    1.0860 C   0  0  0  0  0  0  0  0  0  0  0  0
   17.2824   13.4248    1.3337 C   0  0  1  0  0  0  0  0  0  0  0  0
   15.9044   13.4638    1.9676 C   0  0  0  0  0  0  0  0  0  0  0  0
   15.3125   12.1414    1.5189 C   0  0  0  0  0  0  0  0  0  0  0  0
   15.8646   11.9524    0.1246 C   0  0  0  0  0  0  0  0  0  0  0  0
   17.1561   12.5565    0.1772 O   0  0  0  0  0  0  0  0  0  0  0  0
   18.4953   13.0767    2.2244 C   0  0  0  0  0  0  0  0  0  0  0  0
  1  2  1  0
  2  3  1  0
  3  4  2  0
  4  5  1  0
  5  6  2  0
  6  7  1  0
  7  8  2  0
  8  9  1  0
  9 10  1  0
 10 11  1  0
 11 12  1  0
 12 13  1  1
 12 14  1  0
 14 15  1  0
 15 16  1  0
 16 17  2  0
 16 18  1  0
 18 19  1  6
 18 20  1  0
 21 20  1  6
 21 22  1  0
 22 23  1  0
 23 24  1  0
 24 25  1  0
 21 26  1  0
  8  3  1  0
 26 18  1  0
 12  7  1  0
 21 25  1  0
M  END
>  <energy_score>  (413) 
-40.869622

>  <inchikey>  (413) 
None

>  <smiles>  (413) 
None

>  <ref_pdb>  (413) 
A0239a

>  <alias>  (413) 
None

>  <HIPPO Pose ID>  (413) 
498057

>  <name>  (413) 
P498057

>  <HIPPO Compound ID>  (413) 
290353

>  <ref_mols>  (413) 
A0239a,A0608a

>  <distance_score>  (413) 
1.889063

>  <inspiration_score>  (413) 
None

$$$$
P498058
     RDKit          3D

 26 29  0  0  0  0  0  0  0  0999 V2000
   23.9411   11.1602   -2.5349 C   0  0  0  0  0  0  0  0  0  0  0  0
   23.4817   12.3338   -1.8756 O   0  0  0  0  0  0  0  0  0  0  0  0
   23.9949   12.6006   -0.6378 C   0  0  0  0  0  0  0  0  0  0  0  0
   24.9958   11.8578   -0.0108 C   0  0  0  0  0  0  0  0  0  0  0  0
   25.3800   12.1677    1.2898 C   0  0  0  0  0  0  0  0  0  0  0  0
   24.7512   13.2079    1.9701 C   0  0  0  0  0  0  0  0  0  0  0  0
   23.7766   13.9991    1.3318 C   0  0  0  0  0  0  0  0  0  0  0  0
   23.4214   13.7092    0.0064 C   0  0  0  0  0  0  0  0  0  0  0  0
   22.3525   14.5225   -0.6955 C   0  0  0  0  0  0  0  0  0  0  0  0
   22.2101   15.9842   -0.2512 C   0  0  0  0  0  0  0  0  0  0  0  0
   22.8258   16.3188    1.0924 C   0  0  0  0  0  0  0  0  0  0  0  0
   23.0344   15.1260    2.0315 C   0  0  2  0  0  0  0  0  0  0  0  0
   23.8591   15.6789    3.0714 O   0  0  0  0  0  0  0  0  0  0  0  0
   21.7141   14.6136    2.6782 C   0  0  0  0  0  0  0  0  0  0  0  0
   20.4556   14.7093    1.9436 N   0  0  0  0  0  0  0  0  0  0  0  0
   19.4348   13.6032    1.5371 C   0  0  0  0  0  0  0  0  0  0  0  0
   19.4872   12.4443    1.6619 O   0  0  0  0  0  0  0  0  0  0  0  0
   18.1871   14.3090    0.9911 C   0  0  2  0  0  0  0  0  0  0  0  0
   17.6030   15.1716    2.1276 C   0  0  0  0  0  0  0  0  0  0  0  0
   16.1829   14.6462    2.2465 C   0  0  2  0  0  0  0  0  0  0  0  0
   15.2158   15.5987    2.9142 C   0  0  0  0  0  0  0  0  0  0  0  0
   16.1591   13.2262    2.8031 C   0  0  0  0  0  0  0  0  0  0  0  0
   16.5778   12.3713    1.6237 C   0  0  0  0  0  0  0  0  0  0  0  0
   16.9398   13.4465    0.6072 C   0  0  2  0  0  0  0  0  0  0  0  0
   16.8063   12.9563   -0.8107 C   0  0  0  0  0  0  0  0  0  0  0  0
   15.8633   14.4063    0.8696 O   0  0  0  0  0  0  0  0  0  0  0  0
  1  2  1  0
  2  3  1  0
  3  4  2  0
  4  5  1  0
  5  6  2  0
  6  7  1  0
  7  8  2  0
  8  9  1  0
  9 10  1  0
 10 11  1  0
 11 12  1  0
 12 13  1  1
 12 14  1  0
 14 15  1  0
 15 16  1  0
 16 17  2  0
 18 16  1  1
 18 19  1  0
 19 20  1  0
 20 21  1  1
 20 22  1  0
 22 23  1  0
 23 24  1  0
 24 25  1  6
 24 26  1  0
  8  3  1  0
 24 18  1  0
 12  7  1  0
 26 20  1  0
M  END
>  <energy_score>  (414) 
-23.384514

>  <inchikey>  (414) 
None

>  <smiles>  (414) 
None

>  <ref_pdb>  (414) 
A0239a

>  <alias>  (414) 
None

>  <HIPPO Pose ID>  (414) 
498058

>  <name>  (414) 
P498058

>  <HIPPO Compound ID>  (414) 
290355

>  <ref_mols>  (414) 
A0239a,A0608a

>  <distance_score>  (414) 
1.933858

>  <inspiration_score>  (414) 
None

$$$$
P498059
     RDKit          3D

 27 31  0  0  0  0  0  0  0  0999 V2000
   23.5783   11.1121   -2.4921 C   0  0  0  0  0  0  0  0  0  0  0  0
   23.0935   12.1695   -1.6731 O   0  0  0  0  0  0  0  0  0  0  0  0
   23.8298   12.4984   -0.5703 C   0  0  0  0  0  0  0  0  0  0  0  0
   24.9322   11.7812   -0.1022 C   0  0  0  0  0  0  0  0  0  0  0  0
   25.5629   12.1604    1.0800 C   0  0  0  0  0  0  0  0  0  0  0  0
   25.0994   13.2637    1.7912 C   0  0  0  0  0  0  0  0  0  0  0  0
   24.0280   14.0330    1.3000 C   0  0  0  0  0  0  0  0  0  0  0  0
   23.3876   13.6419    0.1127 C   0  0  0  0  0  0  0  0  0  0  0  0
   22.1713   14.4044   -0.3706 C   0  0  0  0  0  0  0  0  0  0  0  0
   22.2031   15.9160   -0.1196 C   0  0  0  0  0  0  0  0  0  0  0  0
   23.1097   16.3619    1.0127 C   0  0  0  0  0  0  0  0  0  0  0  0
   23.5036   15.2668    2.0154 C   0  0  2  0  0  0  0  0  0  0  0  0
   24.5626   15.8847    2.7649 O   0  0  0  0  0  0  0  0  0  0  0  0
   22.3678   14.9013    3.0050 C   0  0  0  0  0  0  0  0  0  0  0  0
   20.9852   15.1019    2.5858 N   0  0  0  0  0  0  0  0  0  0  0  0
   19.7444   14.1881    2.7418 C   0  0  0  0  0  0  0  0  0  0  0  0
   19.6527   13.1026    3.1603 O   0  0  0  0  0  0  0  0  0  0  0  0
   18.5127   14.9485    2.2410 C   0  0  2  0  0  0  0  0  0  0  0  0
   17.2765   14.6736    3.1407 C   0  0  0  0  0  0  0  0  0  0  0  0
   16.2447   14.1586    2.1356 C   0  0  1  0  0  0  0  0  0  0  0  0
   16.6093   14.9522    0.9863 O   0  0  0  0  0  0  0  0  0  0  0  0
   17.9729   14.4735    0.8730 C   0  0  2  0  0  0  0  0  0  0  0  0
   17.8026   12.9872    0.8468 C   0  0  1  0  0  0  0  0  0  0  0  0
   16.6102   12.7668    1.7274 C   0  0  2  0  0  0  0  0  0  0  0  0
   16.6107   12.2963    0.3268 C   0  0  0  0  0  0  0  0  0  0  0  0
   16.7484   10.9611    0.0528 F   0  0  0  0  0  0  0  0  0  0  0  0
   15.8112   12.8493   -0.6407 F   0  0  0  0  0  0  0  0  0  0  0  0
  1  2  1  0
  2  3  1  0
  3  4  2  0
  4  5  1  0
  5  6  2  0
  6  7  1  0
  7  8  2  0
  8  9  1  0
  9 10  1  0
 10 11  1  0
 11 12  1  0
 12 13  1  1
 12 14  1  0
 14 15  1  0
 15 16  1  0
 16 17  2  0
 18 16  1  1
 18 19  1  0
 20 19  1  1
 20 21  1  0
 22 21  1  1
 22 23  1  0
 23 24  1  0
 24 25  1  6
 25 26  1  0
 25 27  1  0
  8  3  1  0
 22 18  1  0
 23 25  1  6
 12  7  1  0
 24 20  1  0
M  END
>  <energy_score>  (415) 
-27.515198

>  <inchikey>  (415) 
None

>  <smiles>  (415) 
None

>  <ref_pdb>  (415) 
A0239a

>  <alias>  (415) 
None

>  <HIPPO Pose ID>  (415) 
498059

>  <name>  (415) 
P498059

>  <HIPPO Compound ID>  (415) 
290361

>  <ref_mols>  (415) 
A0239a,A0608a

>  <distance_score>  (415) 
1.985282

>  <inspiration_score>  (415) 
None

$$$$
P498060
     RDKit          3D

 27 31  0  0  0  0  0  0  0  0999 V2000
   23.7729   11.1972   -2.4549 C   0  0  0  0  0  0  0  0  0  0  0  0
   23.2983   12.3596   -1.7862 O   0  0  0  0  0  0  0  0  0  0  0  0
   23.8477   12.6548   -0.5695 C   0  0  0  0  0  0  0  0  0  0  0  0
   24.7794   11.8619    0.0990 C   0  0  0  0  0  0  0  0  0  0  0  0
   25.2079   12.2191    1.3728 C   0  0  0  0  0  0  0  0  0  0  0  0
   24.7009   13.3654    1.9795 C   0  0  0  0  0  0  0  0  0  0  0  0
   23.8125   14.2150    1.2904 C   0  0  0  0  0  0  0  0  0  0  0  0
   23.3945   13.8605   -0.0014 C   0  0  0  0  0  0  0  0  0  0  0  0
   22.4784   14.7518   -0.8236 C   0  0  0  0  0  0  0  0  0  0  0  0
   22.2333   16.1826   -0.3298 C   0  0  0  0  0  0  0  0  0  0  0  0
   23.1286   16.5927    0.8118 C   0  0  0  0  0  0  0  0  0  0  0  0
   23.3044   15.5143    1.8871 C   0  0  2  0  0  0  0  0  0  0  0  0
   24.3159   16.0819    2.7388 O   0  0  0  0  0  0  0  0  0  0  0  0
   22.0301   15.3398    2.7518 C   0  0  0  0  0  0  0  0  0  0  0  0
   20.8062   14.7870    2.1887 N   0  0  0  0  0  0  0  0  0  0  0  0
   19.7540   13.8542    2.8096 C   0  0  0  0  0  0  0  0  0  0  0  0
   19.7371   13.3178    3.8429 O   0  0  0  0  0  0  0  0  0  0  0  0
   18.6172   13.5454    1.8133 C   0  0  1  0  0  0  0  0  0  0  0  0
   17.4063   12.9691    2.6105 C   0  0  0  0  0  0  0  0  0  0  0  0
   16.2407   13.8256    2.1460 C   0  0  1  0  0  0  0  0  0  0  0  0
   16.9117   15.0935    1.9957 O   0  0  0  0  0  0  0  0  0  0  0  0
   17.8948   14.6453    1.0324 C   0  0  2  0  0  0  0  0  0  0  0  0
   16.9962   14.0790   -0.0518 C   0  0  2  0  0  0  0  0  0  0  0  0
   15.8395   13.5162    0.7388 C   0  0  1  0  0  0  0  0  0  0  0  0
   16.5951   12.6564   -0.2007 C   0  0  0  0  0  0  0  0  0  0  0  0
   17.4121   11.6362    0.2202 F   0  0  0  0  0  0  0  0  0  0  0  0
   16.0071   12.2424   -1.3735 F   0  0  0  0  0  0  0  0  0  0  0  0
  1  2  1  0
  2  3  1  0
  3  4  2  0
  4  5  1  0
  5  6  2  0
  6  7  1  0
  7  8  2  0
  8  9  1  0
  9 10  1  0
 10 11  1  0
 11 12  1  0
 12 13  1  1
 12 14  1  0
 14 15  1  0
 15 16  1  0
 16 17  2  0
 18 16  1  1
 18 19  1  0
 20 19  1  6
 20 21  1  0
 22 21  1  1
 22 23  1  0
 23 24  1  0
 24 25  1  1
 25 26  1  0
 25 27  1  0
  8  3  1  0
 22 18  1  0
 23 25  1  1
 12  7  1  0
 24 20  1  0
M  END
>  <energy_score>  (416) 
-9.824695

>  <inchikey>  (416) 
None

>  <smiles>  (416) 
None

>  <ref_pdb>  (416) 
A0239a

>  <alias>  (416) 
None

>  <HIPPO Pose ID>  (416) 
498060

>  <name>  (416) 
P498060

>  <HIPPO Compound ID>  (416) 
290361

>  <ref_mols>  (416) 
A0239a,A0608a

>  <distance_score>  (416) 
1.882565

>  <inspiration_score>  (416) 
None

$$$$
P498061
     RDKit          3D

 27 31  0  0  0  0  0  0  0  0999 V2000
   24.3304   11.2050   -2.5133 C   0  0  0  0  0  0  0  0  0  0  0  0
   23.9917   12.4738   -1.9653 O   0  0  0  0  0  0  0  0  0  0  0  0
   24.2978   12.6822   -0.6508 C   0  0  0  0  0  0  0  0  0  0  0  0
   25.0920   11.8457    0.1292 C   0  0  0  0  0  0  0  0  0  0  0  0
   25.2680   12.1244    1.4796 C   0  0  0  0  0  0  0  0  0  0  0  0
   24.5862   13.1907    2.0630 C   0  0  0  0  0  0  0  0  0  0  0  0
   23.7767   14.0444    1.2865 C   0  0  0  0  0  0  0  0  0  0  0  0
   23.7345   13.8433   -0.1000 C   0  0  0  0  0  0  0  0  0  0  0  0
   23.0873   14.8574   -1.0233 C   0  0  0  0  0  0  0  0  0  0  0  0
   22.9354   16.2302   -0.3669 C   0  0  0  0  0  0  0  0  0  0  0  0
   22.1576   16.0345    0.9149 C   0  0  0  0  0  0  0  0  0  0  0  0
   22.9535   15.1698    1.9176 C   0  0  2  0  0  0  0  0  0  0  0  0
   23.8757   16.0945    2.5282 O   0  0  0  0  0  0  0  0  0  0  0  0
   21.9921   14.6046    3.0081 C   0  0  0  0  0  0  0  0  0  0  0  0
   20.5581   14.8431    2.8453 N   0  0  0  0  0  0  0  0  0  0  0  0
   19.3598   13.8686    2.9445 C   0  0  0  0  0  0  0  0  0  0  0  0
   19.3248   12.7448    3.2461 O   0  0  0  0  0  0  0  0  0  0  0  0
   18.0927   14.6315    2.6131 C   0  0  1  0  0  0  0  0  0  0  0  0
   17.9538   15.1040    1.1633 C   0  0  0  0  0  0  0  0  0  0  0  0
   16.4973   14.7333    0.8558 C   0  0  2  0  0  0  0  0  0  0  0  0
   15.8980   14.8443    2.1732 O   0  0  0  0  0  0  0  0  0  0  0  0
   16.7696   13.8670    2.8097 C   0  0  1  0  0  0  0  0  0  0  0  0
   16.5043   12.6600    1.9464 C   0  0  1  0  0  0  0  0  0  0  0  0
   16.2996   13.2739    0.5814 C   0  0  2  0  0  0  0  0  0  0  0  0
   17.2851   12.1885    0.7842 C   0  0  0  0  0  0  0  0  0  0  0  0
   18.6310   12.3971    0.6685 F   0  0  0  0  0  0  0  0  0  0  0  0
   17.0328   10.9524    0.2375 F   0  0  0  0  0  0  0  0  0  0  0  0
  1  2  1  0
  2  3  1  0
  3  4  2  0
  4  5  1  0
  5  6  2  0
  6  7  1  0
  7  8  2  0
  8  9  1  0
  9 10  1  0
 10 11  1  0
 11 12  1  0
 12 13  1  1
 12 14  1  0
 14 15  1  0
 15 16  1  0
 16 17  2  0
 18 16  1  6
 18 19  1  0
 20 19  1  1
 20 21  1  0
 22 21  1  6
 22 23  1  0
 23 24  1  0
 24 25  1  6
 25 26  1  0
 25 27  1  0
  8  3  1  0
 22 18  1  0
 23 25  1  6
 12  7  1  0
 24 20  1  0
M  END
>  <energy_score>  (417) 
-12.793146

>  <inchikey>  (417) 
None

>  <smiles>  (417) 
None

>  <ref_pdb>  (417) 
A0239a

>  <alias>  (417) 
None

>  <HIPPO Pose ID>  (417) 
498061

>  <name>  (417) 
P498061

>  <HIPPO Compound ID>  (417) 
290361

>  <ref_mols>  (417) 
A0239a,A0608a

>  <distance_score>  (417) 
1.960543

>  <inspiration_score>  (417) 
None

$$$$
P498062
     RDKit          3D

 27 30  0  0  0  0  0  0  0  0999 V2000
   24.1177   11.1217   -2.4888 C   0  0  0  0  0  0  0  0  0  0  0  0
   23.7262   12.3680   -1.9258 O   0  0  0  0  0  0  0  0  0  0  0  0
   24.0701   12.6033   -0.6242 C   0  0  0  0  0  0  0  0  0  0  0  0
   24.9371   11.8099    0.1240 C   0  0  0  0  0  0  0  0  0  0  0  0
   25.1866   12.1241    1.4538 C   0  0  0  0  0  0  0  0  0  0  0  0
   24.5472   13.2132    2.0407 C   0  0  0  0  0  0  0  0  0  0  0  0
   23.7050   14.0572    1.2863 C   0  0  0  0  0  0  0  0  0  0  0  0
   23.4912   13.7595   -0.0671 C   0  0  0  0  0  0  0  0  0  0  0  0
   22.7541   14.7059   -0.9959 C   0  0  0  0  0  0  0  0  0  0  0  0
   21.9902   15.8478   -0.3373 C   0  0  0  0  0  0  0  0  0  0  0  0
   22.7084   16.3751    0.8821 C   0  0  0  0  0  0  0  0  0  0  0  0
   23.0514   15.2808    1.9067 C   0  0  2  0  0  0  0  0  0  0  0  0
   24.0265   15.9383    2.7460 O   0  0  0  0  0  0  0  0  0  0  0  0
   21.8311   14.9243    2.8143 C   0  0  0  0  0  0  0  0  0  0  0  0
   20.4836   14.8471    2.2559 N   0  0  0  0  0  0  0  0  0  0  0  0
   19.4002   13.7495    2.3927 C   0  0  0  0  0  0  0  0  0  0  0  0
   19.3885   12.7761    3.0335 O   0  0  0  0  0  0  0  0  0  0  0  0
   18.1548   14.1544    1.5947 C   0  0  1  0  0  0  0  0  0  0  0  0
   17.5852   13.1346    0.5794 C   0  0  1  0  0  0  0  0  0  0  0  0
   18.2575   11.7810    0.5682 C   0  0  0  0  0  0  0  0  0  0  0  0
   19.5494   11.9522    0.1853 F   0  0  0  0  0  0  0  0  0  0  0  0
   17.6874   11.0253   -0.4092 F   0  0  0  0  0  0  0  0  0  0  0  0
   16.1289   12.9911    1.0244 C   0  0  2  0  0  0  0  0  0  0  0  0
   15.3606   14.3015    0.8529 C   0  0  0  0  0  0  0  0  0  0  0  0
   15.9070   15.1595    1.9979 C   0  0  0  0  0  0  0  0  0  0  0  0
   16.9744   14.2468    2.5827 C   0  0  1  0  0  0  0  0  0  0  0  0
   16.2838   12.9730    2.4540 O   0  0  0  0  0  0  0  0  0  0  0  0
  1  2  1  0
  2  3  1  0
  3  4  2  0
  4  5  1  0
  5  6  2  0
  6  7  1  0
  7  8  2  0
  8  9  1  0
  9 10  1  0
 10 11  1  0
 11 12  1  0
 12 13  1  1
 12 14  1  0
 14 15  1  0
 15 16  1  0
 16 17  2  0
 18 16  1  1
 18 19  1  0
 19 20  1  1
 20 21  1  0
 20 22  1  0
 19 23  1  0
 23 24  1  1
 24 25  1  0
 26 25  1  6
 26 27  1  0
  8  3  1  0
 26 18  1  0
 12  7  1  0
 27 23  1  0
M  END
>  <energy_score>  (418) 
-18.241071

>  <inchikey>  (418) 
None

>  <smiles>  (418) 
None

>  <ref_pdb>  (418) 
A0239a

>  <alias>  (418) 
None

>  <HIPPO Pose ID>  (418) 
498062

>  <name>  (418) 
P498062

>  <HIPPO Compound ID>  (418) 
290364

>  <ref_mols>  (418) 
A0239a,A0608a

>  <distance_score>  (418) 
1.910109

>  <inspiration_score>  (418) 
None

$$$$
P498063
     RDKit          3D

 27 30  0  0  0  0  0  0  0  0999 V2000
   23.9287   11.2485   -2.6308 C   0  0  0  0  0  0  0  0  0  0  0  0
   23.7195   12.5424   -2.0768 O   0  0  0  0  0  0  0  0  0  0  0  0
   24.0325   12.6977   -0.7569 C   0  0  0  0  0  0  0  0  0  0  0  0
   24.8826   11.8555   -0.0421 C   0  0  0  0  0  0  0  0  0  0  0  0
   25.0932   12.0779    1.3123 C   0  0  0  0  0  0  0  0  0  0  0  0
   24.3951   13.0938    1.9610 C   0  0  0  0  0  0  0  0  0  0  0  0
   23.5370   13.9590    1.2490 C   0  0  0  0  0  0  0  0  0  0  0  0
   23.4475   13.8137   -0.1396 C   0  0  0  0  0  0  0  0  0  0  0  0
   22.7328   14.8512   -0.9836 C   0  0  0  0  0  0  0  0  0  0  0  0
   22.7042   16.2274   -0.3133 C   0  0  0  0  0  0  0  0  0  0  0  0
   22.0468   16.1032    1.0448 C   0  0  0  0  0  0  0  0  0  0  0  0
   22.8026   15.0989    1.9364 C   0  0  2  0  0  0  0  0  0  0  0  0
   23.8531   15.9116    2.5311 O   0  0  0  0  0  0  0  0  0  0  0  0
   21.8766   14.6360    3.0874 C   0  0  0  0  0  0  0  0  0  0  0  0
   20.5018   14.1409    2.9454 N   0  0  0  0  0  0  0  0  0  0  0  0
   19.7302   13.6435    1.6852 C   0  0  0  0  0  0  0  0  0  0  0  0
   20.0480   13.6266    0.5625 O   0  0  0  0  0  0  0  0  0  0  0  0
   18.3734   13.1090    2.1832 C   0  0  2  0  0  0  0  0  0  0  0  0
   17.5021   12.2046    1.2783 C   0  0  2  0  0  0  0  0  0  0  0  0
   18.0329   11.7829   -0.0615 C   0  0  0  0  0  0  0  0  0  0  0  0
   19.0509   10.9070    0.1215 F   0  0  0  0  0  0  0  0  0  0  0  0
   17.0608   11.0918   -0.7160 F   0  0  0  0  0  0  0  0  0  0  0  0
   16.1779   12.9649    1.2185 C   0  0  2  0  0  0  0  0  0  0  0  0
   16.2652   14.2806    0.4569 C   0  0  0  0  0  0  0  0  0  0  0  0
   17.0958   15.1508    1.3988 C   0  0  0  0  0  0  0  0  0  0  0  0
   17.3692   14.2002    2.5550 C   0  0  1  0  0  0  0  0  0  0  0  0
   16.1082   13.4604    2.5802 O   0  0  0  0  0  0  0  0  0  0  0  0
  1  2  1  0
  2  3  1  0
  3  4  2  0
  4  5  1  0
  5  6  2  0
  6  7  1  0
  7  8  2  0
  8  9  1  0
  9 10  1  0
 10 11  1  0
 11 12  1  0
 12 13  1  1
 12 14  1  0
 14 15  1  0
 15 16  1  0
 16 17  2  0
 18 16  1  6
 18 19  1  0
 19 20  1  6
 20 21  1  0
 20 22  1  0
 19 23  1  0
 23 24  1  6
 24 25  1  0
 26 25  1  6
 26 27  1  0
  8  3  1  0
 26 18  1  0
 12  7  1  0
 27 23  1  0
M  END
>  <energy_score>  (419) 
-14.110237

>  <inchikey>  (419) 
None

>  <smiles>  (419) 
None

>  <ref_pdb>  (419) 
A0239a

>  <alias>  (419) 
None

>  <HIPPO Pose ID>  (419) 
498063

>  <name>  (419) 
P498063

>  <HIPPO Compound ID>  (419) 
290364

>  <ref_mols>  (419) 
A0239a,A0608a

>  <distance_score>  (419) 
1.754233

>  <inspiration_score>  (419) 
None

$$$$
P498064
     RDKit          3D

 27 30  0  0  0  0  0  0  0  0999 V2000
   23.7973   11.2219   -2.4774 C   0  0  0  0  0  0  0  0  0  0  0  0
   23.4301   12.4449   -1.8514 O   0  0  0  0  0  0  0  0  0  0  0  0
   23.9251   12.6821   -0.6011 C   0  0  0  0  0  0  0  0  0  0  0  0
   24.8434   11.8709    0.0638 C   0  0  0  0  0  0  0  0  0  0  0  0
   25.2197   12.1718    1.3692 C   0  0  0  0  0  0  0  0  0  0  0  0
   24.6553   13.2664    2.0205 C   0  0  0  0  0  0  0  0  0  0  0  0
   23.7660   14.1268    1.3472 C   0  0  0  0  0  0  0  0  0  0  0  0
   23.4395   13.8473    0.0122 C   0  0  0  0  0  0  0  0  0  0  0  0
   22.5586   14.8112   -0.7510 C   0  0  0  0  0  0  0  0  0  0  0  0
   22.8990   16.2483   -0.3698 C   0  0  0  0  0  0  0  0  0  0  0  0
   22.6996   16.5043    1.1098 C   0  0  0  0  0  0  0  0  0  0  0  0
   23.1204   15.3271    2.0289 C   0  0  2  0  0  0  0  0  0  0  0  0
   24.0896   15.9215    2.9090 O   0  0  0  0  0  0  0  0  0  0  0  0
   21.8962   14.8898    2.8801 C   0  0  0  0  0  0  0  0  0  0  0  0
   20.6488   14.5444    2.2029 N   0  0  0  0  0  0  0  0  0  0  0  0
   19.4705   13.6569    2.6623 C   0  0  0  0  0  0  0  0  0  0  0  0
   19.3467   13.0032    3.6174 O   0  0  0  0  0  0  0  0  0  0  0  0
   18.3486   13.7274    1.6222 C   0  0  1  0  0  0  0  0  0  0  0  0
   17.8010   12.3426    1.2231 C   0  0  2  0  0  0  0  0  0  0  0  0
   18.2481   11.9027   -0.1377 C   0  0  0  0  0  0  0  0  0  0  0  0
   17.8121   10.6467   -0.3882 F   0  0  0  0  0  0  0  0  0  0  0  0
   19.6025   11.8586   -0.1708 F   0  0  0  0  0  0  0  0  0  0  0  0
   16.2918   12.5213    1.3762 C   0  0  2  0  0  0  0  0  0  0  0  0
   15.6902   13.6193    0.4981 C   0  0  0  0  0  0  0  0  0  0  0  0
   16.2090   14.9020    1.1602 C   0  0  0  0  0  0  0  0  0  0  0  0
   17.0916   14.3404    2.2655 C   0  0  1  0  0  0  0  0  0  0  0  0
   16.2622   13.2045    2.6486 O   0  0  0  0  0  0  0  0  0  0  0  0
  1  2  1  0
  2  3  1  0
  3  4  2  0
  4  5  1  0
  5  6  2  0
  6  7  1  0
  7  8  2  0
  8  9  1  0
  9 10  1  0
 10 11  1  0
 11 12  1  0
 12 13  1  1
 12 14  1  0
 14 15  1  0
 15 16  1  0
 16 17  2  0
 18 16  1  1
 18 19  1  0
 19 20  1  6
 20 21  1  0
 20 22  1  0
 19 23  1  0
 23 24  1  6
 24 25  1  0
 26 25  1  6
 26 27  1  0
  8  3  1  0
 26 18  1  0
 12  7  1  0
 27 23  1  0
M  END
>  <energy_score>  (420) 
-16.818815

>  <inchikey>  (420) 
None

>  <smiles>  (420) 
None

>  <ref_pdb>  (420) 
A0239a

>  <alias>  (420) 
None

>  <HIPPO Pose ID>  (420) 
498064

>  <name>  (420) 
P498064

>  <HIPPO Compound ID>  (420) 
290364

>  <ref_mols>  (420) 
A0239a,A0608a

>  <distance_score>  (420) 
1.869743

>  <inspiration_score>  (420) 
None

$$$$
P498065
     RDKit          3D

 27 29  0  0  0  0  0  0  0  0999 V2000
   23.3729   11.4122   -2.4424 C   0  0  0  0  0  0  0  0  0  0  0  0
   23.2011   12.5856   -1.6575 O   0  0  0  0  0  0  0  0  0  0  0  0
   24.0098   12.7345   -0.5638 C   0  0  0  0  0  0  0  0  0  0  0  0
   24.9201   11.7794   -0.1089 C   0  0  0  0  0  0  0  0  0  0  0  0
   25.6489   12.0063    1.0549 C   0  0  0  0  0  0  0  0  0  0  0  0
   25.4470   13.1745    1.7820 C   0  0  0  0  0  0  0  0  0  0  0  0
   24.5542   14.1621    1.3240 C   0  0  0  0  0  0  0  0  0  0  0  0
   23.8562   13.9547    0.1203 C   0  0  0  0  0  0  0  0  0  0  0  0
   23.0039   15.0440   -0.5117 C   0  0  0  0  0  0  0  0  0  0  0  0
   22.7542   16.3196    0.2961 C   0  0  0  0  0  0  0  0  0  0  0  0
   23.8455   16.6020    1.3013 C   0  0  0  0  0  0  0  0  0  0  0  0
   24.2366   15.3922    2.1619 C   0  0  2  0  0  0  0  0  0  0  0  0
   25.4292   15.7939    2.8394 O   0  0  0  0  0  0  0  0  0  0  0  0
   23.1483   15.0081    3.2028 C   0  0  0  0  0  0  0  0  0  0  0  0
   21.9710   14.3903    2.6413 N   0  0  0  0  0  0  0  0  0  0  0  0
   20.5238   14.9256    2.5004 C   0  0  0  0  0  0  0  0  0  0  0  0
   20.0431   15.9175    2.8856 O   0  0  0  0  0  0  0  0  0  0  0  0
   19.7732   13.9342    1.6232 C   0  0  0  0  0  0  0  0  0  0  0  0
   18.4343   13.5330    2.2480 C   0  0  0  0  0  0  0  0  0  0  0  0
   17.2327   14.0506    1.4494 C   0  0  2  0  0  0  0  0  0  0  0  0
   17.1550   15.5819    1.4497 C   0  0  0  0  0  0  0  0  0  0  0  0
   15.9042   13.4460    1.9330 C   0  0  0  0  0  0  0  0  0  0  0  0
   15.4525   12.5417    0.7868 C   0  0  0  0  0  0  0  0  0  0  0  0
   13.9366   12.5244    0.6160 C   0  0  0  0  0  0  0  0  0  0  0  0
   15.9727   11.1153    0.9736 C   0  0  0  0  0  0  0  0  0  0  0  0
   16.1439   13.1692   -0.4076 C   0  0  0  0  0  0  0  0  0  0  0  0
   17.4095   13.6013    0.0901 O   0  0  0  0  0  0  0  0  0  0  0  0
  1  2  1  0
  2  3  1  0
  3  4  2  0
  4  5  1  0
  5  6  2  0
  6  7  1  0
  7  8  2  0
  8  9  1  0
  9 10  1  0
 10 11  1  0
 11 12  1  0
 12 13  1  1
 12 14  1  0
 14 15  1  0
 15 16  1  0
 16 17  2  0
 16 18  1  0
 18 19  1  0
 20 19  1  0
 20 21  1  6
 20 22  1  0
 22 23  1  0
 23 24  1  0
 23 25  1  0
 23 26  1  0
 26 27  1  0
  8  3  1  0
 27 20  1  0
 12  7  1  0
M  END
>  <energy_score>  (421) 
-39.139479

>  <inchikey>  (421) 
None

>  <smiles>  (421) 
None

>  <ref_pdb>  (421) 
A0239a

>  <alias>  (421) 
None

>  <HIPPO Pose ID>  (421) 
498065

>  <name>  (421) 
P498065

>  <HIPPO Compound ID>  (421) 
290367

>  <ref_mols>  (421) 
A0239a,A0608a

>  <distance_score>  (421) 
1.760466

>  <inspiration_score>  (421) 
None

$$$$
P498066
     RDKit          3D

 27 29  0  0  0  0  0  0  0  0999 V2000
   23.4897   11.2089   -2.4684 C   0  0  0  0  0  0  0  0  0  0  0  0
   23.1164   12.3397   -1.6911 O   0  0  0  0  0  0  0  0  0  0  0  0
   23.8524   12.6029   -0.5686 C   0  0  0  0  0  0  0  0  0  0  0  0
   24.8264   11.7563   -0.0389 C   0  0  0  0  0  0  0  0  0  0  0  0
   25.4884   12.1029    1.1337 C   0  0  0  0  0  0  0  0  0  0  0  0
   25.1703   13.2930    1.7798 C   0  0  0  0  0  0  0  0  0  0  0  0
   24.2166   14.1811    1.2398 C   0  0  0  0  0  0  0  0  0  0  0  0
   23.5610   13.8347    0.0480 C   0  0  0  0  0  0  0  0  0  0  0  0
   22.6474   14.8048   -0.6800 C   0  0  0  0  0  0  0  0  0  0  0  0
   22.2633   16.0866    0.0534 C   0  0  0  0  0  0  0  0  0  0  0  0
   23.3565   16.5714    0.9749 C   0  0  0  0  0  0  0  0  0  0  0  0
   23.8845   15.4921    1.9312 C   0  0  2  0  0  0  0  0  0  0  0  0
   25.1176   16.0281    2.4395 O   0  0  0  0  0  0  0  0  0  0  0  0
   22.9398   15.2371    3.1282 C   0  0  0  0  0  0  0  0  0  0  0  0
   21.6048   14.7505    2.8563 N   0  0  0  0  0  0  0  0  0  0  0  0
   20.2489   15.5045    2.8017 C   0  0  0  0  0  0  0  0  0  0  0  0
   20.0128   16.6456    2.8915 O   0  0  0  0  0  0  0  0  0  0  0  0
   19.1371   14.4668    2.7083 C   0  0  0  0  0  0  0  0  0  0  0  0
   18.9550   13.9157    1.3030 C   0  0  0  0  0  0  0  0  0  0  0  0
   17.6229   13.1878    1.0721 C   0  0  1  0  0  0  0  0  0  0  0  0
   17.4437   12.0701    2.0783 C   0  0  0  0  0  0  0  0  0  0  0  0
   16.4002   14.1016    1.0335 C   0  0  0  0  0  0  0  0  0  0  0  0
   15.4534   13.4357    0.0263 C   0  0  0  0  0  0  0  0  0  0  0  0
   14.2379   12.7910    0.7037 C   0  0  0  0  0  0  0  0  0  0  0  0
   14.9455   14.4700   -0.9909 C   0  0  0  0  0  0  0  0  0  0  0  0
   16.3266   12.3831   -0.6712 C   0  0  0  0  0  0  0  0  0  0  0  0
   17.6740   12.5860   -0.2256 O   0  0  0  0  0  0  0  0  0  0  0  0
  1  2  1  0
  2  3  1  0
  3  4  2  0
  4  5  1  0
  5  6  2  0
  6  7  1  0
  7  8  2  0
  8  9  1  0
  9 10  1  0
 10 11  1  0
 11 12  1  0
 12 13  1  1
 12 14  1  0
 14 15  1  0
 15 16  1  0
 16 17  2  0
 16 18  1  0
 18 19  1  0
 20 19  1  0
 20 21  1  1
 20 22  1  0
 22 23  1  0
 23 24  1  0
 23 25  1  0
 23 26  1  0
 26 27  1  0
  8  3  1  0
 27 20  1  0
 12  7  1  0
M  END
>  <energy_score>  (422) 
-47.278113

>  <inchikey>  (422) 
None

>  <smiles>  (422) 
None

>  <ref_pdb>  (422) 
A0239a

>  <alias>  (422) 
None

>  <HIPPO Pose ID>  (422) 
498066

>  <name>  (422) 
P498066

>  <HIPPO Compound ID>  (422) 
290367

>  <ref_mols>  (422) 
A0239a,A0608a

>  <distance_score>  (422) 
1.982818

>  <inspiration_score>  (422) 
None

$$$$
P498067
     RDKit          3D

 28 32  0  0  0  0  0  0  0  0999 V2000
   23.7892   11.3066   -2.5646 C   0  0  0  0  0  0  0  0  0  0  0  0
   23.8790   12.6379   -2.0673 O   0  0  0  0  0  0  0  0  0  0  0  0
   24.2129   12.7556   -0.7482 C   0  0  0  0  0  0  0  0  0  0  0  0
   24.9792   11.8253   -0.0488 C   0  0  0  0  0  0  0  0  0  0  0  0
   25.2116   12.0068    1.3082 C   0  0  0  0  0  0  0  0  0  0  0  0
   24.6062   13.0688    1.9750 C   0  0  0  0  0  0  0  0  0  0  0  0
   23.8350   14.0202    1.2756 C   0  0  0  0  0  0  0  0  0  0  0  0
   23.7492   13.9179   -0.1172 C   0  0  0  0  0  0  0  0  0  0  0  0
   23.1539   15.0364   -0.9505 C   0  0  0  0  0  0  0  0  0  0  0  0
   23.1567   16.3834   -0.2236 C   0  0  0  0  0  0  0  0  0  0  0  0
   22.4546   16.2354    1.1096 C   0  0  0  0  0  0  0  0  0  0  0  0
   23.1545   15.1767    1.9884 C   0  0  2  0  0  0  0  0  0  0  0  0
   24.2180   15.9207    2.6318 O   0  0  0  0  0  0  0  0  0  0  0  0
   22.1760   14.7139    3.0956 C   0  0  0  0  0  0  0  0  0  0  0  0
   20.8293   14.2119    2.8191 N   0  0  0  0  0  0  0  0  0  0  0  0
   20.1661   13.7845    1.4775 C   0  0  0  0  0  0  0  0  0  0  0  0
   20.6182   13.6961    0.4059 O   0  0  0  0  0  0  0  0  0  0  0  0
   18.7315   13.3638    1.7990 C   0  0  2  0  0  0  0  0  0  0  0  0
   17.9905   12.8013    0.6088 C   0  0  1  0  0  0  0  0  0  0  0  0
   17.6749   11.3706    0.3999 C   0  0  0  0  0  0  0  0  0  0  0  0
   18.4011   10.4280    0.6532 O   0  0  0  0  0  0  0  0  0  0  0  0
   16.4309   11.3069   -0.1846 O   0  0  0  0  0  0  0  0  0  0  0  0
   15.8802   12.6449   -0.2749 C   0  0  0  0  0  0  0  0  0  0  0  0
   16.6022   13.3460    0.8317 C   0  0  1  0  0  0  0  0  0  0  0  0
   15.9909   13.0985    2.2242 C   0  0  0  0  0  0  0  0  0  0  0  0
   16.7572   14.0900    3.0995 C   0  0  0  0  0  0  0  0  0  0  0  0
   17.8129   14.5687    2.1148 C   0  0  2  0  0  0  0  0  0  0  0  0
   16.9511   14.7231    0.9201 O   0  0  0  0  0  0  0  0  0  0  0  0
  1  2  1  0
  2  3  1  0
  3  4  2  0
  4  5  1  0
  5  6  2  0
  6  7  1  0
  7  8  2  0
  8  9  1  0
  9 10  1  0
 10 11  1  0
 11 12  1  0
 12 13  1  1
 12 14  1  0
 14 15  1  0
 15 16  1  0
 16 17  2  0
 18 16  1  6
 18 19  1  0
 19 20  1  1
 20 21  2  0
 20 22  1  0
 22 23  1  0
 24 23  1  6
 24 25  1  0
 25 26  1  0
 27 26  1  1
 27 28  1  0
  8  3  1  0
 27 18  1  0
 12  7  1  0
 24 19  1  0
 28 24  1  0
M  END
>  <energy_score>  (423) 
-7.403451

>  <inchikey>  (423) 
None

>  <smiles>  (423) 
None

>  <ref_pdb>  (423) 
A0239a

>  <alias>  (423) 
None

>  <HIPPO Pose ID>  (423) 
498067

>  <name>  (423) 
P498067

>  <HIPPO Compound ID>  (423) 
290373

>  <ref_mols>  (423) 
A0239a,A0608a

>  <distance_score>  (423) 
1.98492

>  <inspiration_score>  (423) 
None

$$$$
P498068
     RDKit          3D

 28 32  0  0  0  0  0  0  0  0999 V2000
   24.0084   11.2404   -2.4664 C   0  0  0  0  0  0  0  0  0  0  0  0
   23.6952   12.5131   -1.9136 O   0  0  0  0  0  0  0  0  0  0  0  0
   24.0179   12.7193   -0.6034 C   0  0  0  0  0  0  0  0  0  0  0  0
   24.8381   11.8881    0.1551 C   0  0  0  0  0  0  0  0  0  0  0  0
   25.0448   12.1645    1.5015 C   0  0  0  0  0  0  0  0  0  0  0  0
   24.3801   13.2327    2.1017 C   0  0  0  0  0  0  0  0  0  0  0  0
   23.5710   14.1022    1.3432 C   0  0  0  0  0  0  0  0  0  0  0  0
   23.4697   13.8813   -0.0370 C   0  0  0  0  0  0  0  0  0  0  0  0
   22.7937   14.9051   -0.9258 C   0  0  0  0  0  0  0  0  0  0  0  0
   22.9505   16.3183   -0.3649 C   0  0  0  0  0  0  0  0  0  0  0  0
   22.3336   16.3921    1.0131 C   0  0  0  0  0  0  0  0  0  0  0  0
   22.8932   15.3148    1.9661 C   0  0  2  0  0  0  0  0  0  0  0  0
   23.9475   16.0239    2.6674 O   0  0  0  0  0  0  0  0  0  0  0  0
   21.8015   14.9701    3.0146 C   0  0  0  0  0  0  0  0  0  0  0  0
   20.6287   14.1381    2.7440 N   0  0  0  0  0  0  0  0  0  0  0  0
   19.6716   14.1083    1.5151 C   0  0  0  0  0  0  0  0  0  0  0  0
   19.7218   14.6890    0.5027 O   0  0  0  0  0  0  0  0  0  0  0  0
   18.5230   13.1511    1.8444 C   0  0  1  0  0  0  0  0  0  0  0  0
   17.5320   13.7277    2.8539 C   0  0  1  0  0  0  0  0  0  0  0  0
   16.9089   15.0557    2.4134 C   0  0  0  0  0  0  0  0  0  0  0  0
   15.9461   14.6257    1.2960 C   0  0  0  0  0  0  0  0  0  0  0  0
   16.2232   13.1386    1.2364 C   0  0  1  0  0  0  0  0  0  0  0  0
   15.2939   12.2077    0.5217 C   0  0  0  0  0  0  0  0  0  0  0  0
   16.1177   11.0692    0.2139 O   0  0  0  0  0  0  0  0  0  0  0  0
   17.4418   11.3791    0.3764 C   0  0  0  0  0  0  0  0  0  0  0  0
   18.3637   10.5867    0.2574 O   0  0  0  0  0  0  0  0  0  0  0  0
   17.5945   12.8395    0.6692 C   0  0  2  0  0  0  0  0  0  0  0  0
   16.3966   12.8469    2.6483 O   0  0  0  0  0  0  0  0  0  0  0  0
  1  2  1  0
  2  3  1  0
  3  4  2  0
  4  5  1  0
  5  6  2  0
  6  7  1  0
  7  8  2  0
  8  9  1  0
  9 10  1  0
 10 11  1  0
 11 12  1  0
 12 13  1  1
 12 14  1  0
 14 15  1  0
 15 16  1  0
 16 17  2  0
 18 16  1  6
 18 19  1  0
 19 20  1  6
 20 21  1  0
 22 21  1  1
 22 23  1  0
 23 24  1  0
 24 25  1  0
 25 26  2  0
 27 25  1  1
 22 28  1  0
  8  3  1  0
 27 18  1  0
 12  7  1  0
 28 19  1  0
 27 22  1  0
M  END
>  <energy_score>  (424) 
-49.97421

>  <inchikey>  (424) 
None

>  <smiles>  (424) 
None

>  <ref_pdb>  (424) 
A0239a

>  <alias>  (424) 
None

>  <HIPPO Pose ID>  (424) 
498068

>  <name>  (424) 
P498068

>  <HIPPO Compound ID>  (424) 
290373

>  <ref_mols>  (424) 
A0239a,A0608a

>  <distance_score>  (424) 
1.824686

>  <inspiration_score>  (424) 
None

$$$$
P498069
     RDKit          3D

 28 32  0  0  0  0  0  0  0  0999 V2000
   23.9806   11.2429   -2.5511 C   0  0  0  0  0  0  0  0  0  0  0  0
   23.7659   12.5381   -2.0023 O   0  0  0  0  0  0  0  0  0  0  0  0
   24.0698   12.7032   -0.6817 C   0  0  0  0  0  0  0  0  0  0  0  0
   24.8778   11.8444    0.0594 C   0  0  0  0  0  0  0  0  0  0  0  0
   25.0706   12.0785    1.4150 C   0  0  0  0  0  0  0  0  0  0  0  0
   24.3935   13.1234    2.0403 C   0  0  0  0  0  0  0  0  0  0  0  0
   23.5898   14.0140    1.3000 C   0  0  0  0  0  0  0  0  0  0  0  0
   23.5212   13.8505   -0.0887 C   0  0  0  0  0  0  0  0  0  0  0  0
   22.8830   14.9132   -0.9611 C   0  0  0  0  0  0  0  0  0  0  0  0
   22.9585   16.3005   -0.3214 C   0  0  0  0  0  0  0  0  0  0  0  0
   22.2891   16.2754    1.0348 C   0  0  0  0  0  0  0  0  0  0  0  0
   22.8990   15.1971    1.9547 C   0  0  2  0  0  0  0  0  0  0  0  0
   23.9608   15.9245    2.6317 O   0  0  0  0  0  0  0  0  0  0  0  0
   21.8573   14.8197    3.0410 C   0  0  0  0  0  0  0  0  0  0  0  0
   20.5780   14.1393    2.8146 N   0  0  0  0  0  0  0  0  0  0  0  0
   19.7765   13.9041    1.4998 C   0  0  0  0  0  0  0  0  0  0  0  0
   19.9770   14.2833    0.4138 O   0  0  0  0  0  0  0  0  0  0  0  0
   18.5415   13.0674    1.8516 C   0  0  1  0  0  0  0  0  0  0  0  0
   17.5613   13.7506    2.8017 C   0  0  1  0  0  0  0  0  0  0  0  0
   17.0180   15.0794    2.2688 C   0  0  0  0  0  0  0  0  0  0  0  0
   16.0379   14.6318    1.1741 C   0  0  0  0  0  0  0  0  0  0  0  0
   16.2567   13.1342    1.1922 C   0  0  1  0  0  0  0  0  0  0  0  0
   15.3031   12.2072    0.5052 C   0  0  0  0  0  0  0  0  0  0  0  0
   16.0899   11.0302    0.2504 O   0  0  0  0  0  0  0  0  0  0  0  0
   17.4231   11.2993    0.4088 C   0  0  0  0  0  0  0  0  0  0  0  0
   18.3198   10.4752    0.3132 O   0  0  0  0  0  0  0  0  0  0  0  0
   17.6260   12.7589    0.6644 C   0  0  2  0  0  0  0  0  0  0  0  0
   16.3918   12.9090    2.6204 O   0  0  0  0  0  0  0  0  0  0  0  0
  1  2  1  0
  2  3  1  0
  3  4  2  0
  4  5  1  0
  5  6  2  0
  6  7  1  0
  7  8  2  0
  8  9  1  0
  9 10  1  0
 10 11  1  0
 11 12  1  0
 12 13  1  1
 12 14  1  0
 14 15  1  0
 15 16  1  0
 16 17  2  0
 18 16  1  6
 18 19  1  0
 19 20  1  6
 20 21  1  0
 22 21  1  1
 22 23  1  0
 23 24  1  0
 24 25  1  0
 25 26  2  0
 27 25  1  1
 22 28  1  0
  8  3  1  0
 27 18  1  0
 12  7  1  0
 28 19  1  0
 27 22  1  0
M  END
>  <energy_score>  (425) 
-61.554834

>  <inchikey>  (425) 
None

>  <smiles>  (425) 
None

>  <ref_pdb>  (425) 
A0239a

>  <alias>  (425) 
None

>  <HIPPO Pose ID>  (425) 
498069

>  <name>  (425) 
P498069

>  <HIPPO Compound ID>  (425) 
290373

>  <ref_mols>  (425) 
A0239a,A0608a

>  <distance_score>  (425) 
1.743247

>  <inspiration_score>  (425) 
None

$$$$
P498070
     RDKit          3D

 28 30  0  0  0  0  0  0  0  0999 V2000
   24.8582   11.7884   -0.8569 C   0  0  0  0  0  0  0  0  0  0  0  0
   25.1613   12.1677    0.4842 O   0  0  0  0  0  0  0  0  0  0  0  0
   26.2781   12.9393    0.5901 C   0  0  0  0  0  0  0  0  0  0  0  0
   27.0466   13.1915   -0.3300 O   0  0  0  0  0  0  0  0  0  0  0  0
   26.5067   13.3884    2.0121 C   0  0  0  0  0  0  0  0  0  0  0  0
   25.2975   14.0377    2.6862 C   0  0  0  0  0  0  0  0  0  0  0  0
   24.8143   15.3180    1.9563 C   0  0  2  0  0  0  0  0  0  0  0  0
   23.7340   16.0849    2.7048 C   0  0  0  0  0  0  0  0  0  0  0  0
   22.4750   15.3124    2.3748 C   0  0  0  0  0  0  0  0  0  0  0  0
   22.8305   14.5597    1.0877 C   0  0  1  0  0  0  0  0  0  0  0  0
   21.6811   14.6930    0.0552 C   0  0  0  0  0  0  0  0  0  0  0  0
   21.6898   15.3966   -0.8761 O   0  0  0  0  0  0  0  0  0  0  0  0
   20.5615   13.7613    0.6044 N   0  0  0  0  0  0  0  0  0  0  0  0
   19.2638   13.4378    0.0638 C   0  0  0  0  0  0  0  0  0  0  0  0
   18.2699   13.0732    1.2055 C   0  0  1  0  0  0  0  0  0  0  0  0
   18.8416   11.9834    1.9585 O   0  0  0  0  0  0  0  0  0  0  0  0
   18.1699   14.2726    2.1697 C   0  0  0  0  0  0  0  0  0  0  0  0
   16.9576   14.1827    3.0808 C   0  0  0  0  0  0  0  0  0  0  0  0
   15.6865   14.1828    2.2471 C   0  0  0  0  0  0  0  0  0  0  0  0
   15.7046   13.1076    1.1960 C   0  0  0  0  0  0  0  0  0  0  0  0
   14.4803   12.6423    0.6965 C   0  0  0  0  0  0  0  0  0  0  0  0
   14.4483   11.6570   -0.2848 C   0  0  0  0  0  0  0  0  0  0  0  0
   15.6318   11.1225   -0.7852 C   0  0  0  0  0  0  0  0  0  0  0  0
   15.4552   10.1691   -1.7481 O   0  0  0  0  0  0  0  0  0  0  0  0
   16.6220    9.6730   -2.3881 C   0  0  0  0  0  0  0  0  0  0  0  0
   16.8558   11.5802   -0.2889 C   0  0  0  0  0  0  0  0  0  0  0  0
   16.9144   12.6001    0.6812 C   0  0  0  0  0  0  0  0  0  0  0  0
   24.1445   14.9821    0.7316 O   0  0  0  0  0  0  0  0  0  0  0  0
  1  2  1  0
  2  3  1  0
  3  4  2  0
  3  5  1  0
  5  6  1  0
  7  6  1  1
  7  8  1  0
  8  9  1  0
  9 10  1  0
 10 11  1  6
 11 12  2  0
 11 13  1  0
 13 14  1  0
 14 15  1  0
 15 16  1  1
 15 17  1  0
 17 18  1  0
 18 19  1  0
 19 20  1  0
 20 21  2  0
 21 22  1  0
 22 23  2  0
 23 24  1  0
 24 25  1  0
 23 26  1  0
 26 27  2  0
 10 28  1  0
 28  7  1  0
 27 15  1  0
 27 20  1  0
M  END
>  <energy_score>  (426) 
-33.403236

>  <inchikey>  (426) 
None

>  <smiles>  (426) 
None

>  <ref_pdb>  (426) 
A0239a

>  <alias>  (426) 
None

>  <HIPPO Pose ID>  (426) 
498070

>  <name>  (426) 
P498070

>  <HIPPO Compound ID>  (426) 
290375

>  <ref_mols>  (426) 
A0239a,A0608a

>  <distance_score>  (426) 
1.91434

>  <inspiration_score>  (426) 
None

$$$$
P498071
     RDKit          3D

 28 31  0  0  0  0  0  0  0  0999 V2000
   26.6802   11.2591   -1.5065 C   0  0  0  0  0  0  0  0  0  0  0  0
   25.7418   12.3129   -1.3330 O   0  0  0  0  0  0  0  0  0  0  0  0
   25.3600   12.6078   -0.0484 C   0  0  0  0  0  0  0  0  0  0  0  0
   25.7385   11.8715    1.0738 C   0  0  0  0  0  0  0  0  0  0  0  0
   25.2868   12.2443    2.3341 C   0  0  0  0  0  0  0  0  0  0  0  0
   24.4291   13.3297    2.4852 C   0  0  0  0  0  0  0  0  0  0  0  0
   24.0362   14.1058    1.3841 C   0  0  0  0  0  0  0  0  0  0  0  0
   24.5398   13.7513    0.1058 C   0  0  0  0  0  0  0  0  0  0  0  0
   24.2258   14.6166   -1.1006 C   0  0  0  0  0  0  0  0  0  0  0  0
   23.8663   16.0616   -0.7407 C   0  0  0  0  0  0  0  0  0  0  0  0
   22.7830   16.0654    0.3185 C   0  0  0  0  0  0  0  0  0  0  0  0
   23.2915   15.4248    1.6200 C   0  0  2  0  0  0  0  0  0  0  0  0
   24.2798   16.3601    2.1211 O   0  0  0  0  0  0  0  0  0  0  0  0
   22.1398   15.4354    2.6784 C   0  0  0  0  0  0  0  0  0  0  0  0
   20.7939   15.2223    2.1818 N   0  0  0  0  0  0  0  0  0  0  0  0
   19.8011   14.0712    2.4417 C   0  0  0  0  0  0  0  0  0  0  0  0
   19.8793   13.1543    3.1544 O   0  0  0  0  0  0  0  0  0  0  0  0
   18.5808   14.2847    1.5187 C   0  0  1  0  0  0  0  0  0  0  0  0
   18.9869   14.1114    0.0432 C   0  0  0  0  0  0  0  0  0  0  0  0
   19.1323   12.6576   -0.3813 C   0  0  0  0  0  0  0  0  0  0  0  0
   17.8698   11.8647   -0.0932 C   0  0  0  0  0  0  0  0  0  0  0  0
   17.5008   11.9299    1.3783 C   0  0  0  0  0  0  0  0  0  0  0  0
   17.4176   13.3502    1.9728 C   0  0  2  0  0  0  0  0  0  0  0  0
   16.0341   14.0268    1.8560 C   0  0  1  0  0  0  0  0  0  0  0  0
   15.5122   14.3567    0.4691 C   0  0  0  0  0  0  0  0  0  0  0  0
   14.5003   13.2801    0.1878 C   0  0  0  0  0  0  0  0  0  0  0  0
   13.9403   13.0221    1.5561 C   0  0  0  0  0  0  0  0  0  0  0  0
   15.0262   13.1916    2.4785 O   0  0  0  0  0  0  0  0  0  0  0  0
  1  2  1  0
  2  3  1  0
  3  4  2  0
  4  5  1  0
  5  6  2  0
  6  7  1  0
  7  8  2  0
  8  9  1  0
  9 10  1  0
 10 11  1  0
 11 12  1  0
 12 13  1  1
 12 14  1  0
 14 15  1  0
 15 16  1  0
 16 17  2  0
 18 16  1  1
 18 19  1  0
 19 20  1  0
 20 21  1  0
 21 22  1  0
 23 22  1  6
 23 24  1  0
 24 25  1  6
 25 26  1  0
 26 27  1  0
 27 28  1  0
  8  3  1  0
 23 18  1  0
 28 24  1  0
 12  7  1  0
M  END
>  <energy_score>  (427) 
-26.506077

>  <inchikey>  (427) 
None

>  <smiles>  (427) 
None

>  <ref_pdb>  (427) 
A0239a

>  <alias>  (427) 
None

>  <HIPPO Pose ID>  (427) 
498071

>  <name>  (427) 
P498071

>  <HIPPO Compound ID>  (427) 
290376

>  <ref_mols>  (427) 
A0239a,A0608a

>  <distance_score>  (427) 
1.725142

>  <inspiration_score>  (427) 
None

$$$$
P498072
     RDKit          3D

 28 31  0  0  0  0  0  0  0  0999 V2000
   25.5820   11.4787   -2.4369 C   0  0  0  0  0  0  0  0  0  0  0  0
   25.0857   12.6988   -1.9006 O   0  0  0  0  0  0  0  0  0  0  0  0
   25.0136   12.7994   -0.5340 C   0  0  0  0  0  0  0  0  0  0  0  0
   25.5613   11.8720    0.3533 C   0  0  0  0  0  0  0  0  0  0  0  0
   25.4292   12.0551    1.7262 C   0  0  0  0  0  0  0  0  0  0  0  0
   24.7168   13.1456    2.2200 C   0  0  0  0  0  0  0  0  0  0  0  0
   24.1554   14.1036    1.3524 C   0  0  0  0  0  0  0  0  0  0  0  0
   24.3617   13.9518   -0.0356 C   0  0  0  0  0  0  0  0  0  0  0  0
   23.9019   15.0330   -0.9947 C   0  0  0  0  0  0  0  0  0  0  0  0
   23.7558   16.4027   -0.3232 C   0  0  0  0  0  0  0  0  0  0  0  0
   22.8302   16.2743    0.8684 C   0  0  0  0  0  0  0  0  0  0  0  0
   23.4229   15.3180    1.9283 C   0  0  2  0  0  0  0  0  0  0  0  0
   24.3805   16.1081    2.6491 O   0  0  0  0  0  0  0  0  0  0  0  0
   22.2796   14.9154    2.9010 C   0  0  0  0  0  0  0  0  0  0  0  0
   21.1417   14.3423    2.2169 N   0  0  0  0  0  0  0  0  0  0  0  0
   19.7005   14.8755    2.0444 C   0  0  0  0  0  0  0  0  0  0  0  0
   19.1852   15.8236    2.4925 O   0  0  0  0  0  0  0  0  0  0  0  0
   18.9212   13.9870    1.0445 C   0  0  1  0  0  0  0  0  0  0  0  0
   19.7207   13.1967    0.0008 C   0  0  0  0  0  0  0  0  0  0  0  0
   18.7876   12.5183   -0.9946 C   0  0  0  0  0  0  0  0  0  0  0  0
   17.7430   11.6283   -0.3213 C   0  0  0  0  0  0  0  0  0  0  0  0
   17.7280   11.7137    1.1999 C   0  0  0  0  0  0  0  0  0  0  0  0
   17.8623   13.1311    1.7855 C   0  0  2  0  0  0  0  0  0  0  0  0
   16.5141   13.8878    1.9215 C   0  0  1  0  0  0  0  0  0  0  0  0
   15.8553   14.3564    0.6250 C   0  0  0  0  0  0  0  0  0  0  0  0
   14.6327   13.4934    0.4816 C   0  0  0  0  0  0  0  0  0  0  0  0
   14.2831   13.2122    1.9111 C   0  0  0  0  0  0  0  0  0  0  0  0
   15.5307   13.0738    2.6047 O   0  0  0  0  0  0  0  0  0  0  0  0
  1  2  1  0
  2  3  1  0
  3  4  2  0
  4  5  1  0
  5  6  2  0
  6  7  1  0
  7  8  2  0
  8  9  1  0
  9 10  1  0
 10 11  1  0
 11 12  1  0
 12 13  1  1
 12 14  1  0
 14 15  1  0
 15 16  1  0
 16 17  2  0
 18 16  1  1
 18 19  1  0
 19 20  1  0
 20 21  1  0
 21 22  1  0
 23 22  1  6
 23 24  1  0
 24 25  1  6
 25 26  1  0
 26 27  1  0
 27 28  1  0
  8  3  1  0
 23 18  1  0
 28 24  1  0
 12  7  1  0
M  END
>  <energy_score>  (428) 
-44.501301

>  <inchikey>  (428) 
None

>  <smiles>  (428) 
None

>  <ref_pdb>  (428) 
A0239a

>  <alias>  (428) 
None

>  <HIPPO Pose ID>  (428) 
498072

>  <name>  (428) 
P498072

>  <HIPPO Compound ID>  (428) 
290376

>  <ref_mols>  (428) 
A0239a,A0608a

>  <distance_score>  (428) 
1.955451

>  <inspiration_score>  (428) 
None

$$$$
P498073
     RDKit          3D

 28 31  0  0  0  0  0  0  0  0999 V2000
   27.3312   10.5876    0.9764 C   0  0  0  0  0  0  0  0  0  0  0  0
   26.4964   11.2230    0.0147 O   0  0  0  0  0  0  0  0  0  0  0  0
   25.5472   12.0724    0.5096 C   0  0  0  0  0  0  0  0  0  0  0  0
   25.1349   12.1538    1.8326 C   0  0  0  0  0  0  0  0  0  0  0  0
   24.1482   13.0654    2.2283 C   0  0  0  0  0  0  0  0  0  0  0  0
   23.5414   13.9247    1.3087 C   0  0  0  0  0  0  0  0  0  0  0  0
   24.0160   13.8880   -0.0165 C   0  0  0  0  0  0  0  0  0  0  0  0
   24.9781   12.9385   -0.4126 C   0  0  0  0  0  0  0  0  0  0  0  0
   23.4929   14.8636   -1.0486 C   0  0  0  0  0  0  0  0  0  0  0  0
   22.9778   16.1644   -0.4238 C   0  0  0  0  0  0  0  0  0  0  0  0
   21.9340   15.8377    0.6331 C   0  0  0  0  0  0  0  0  0  0  0  0
   22.5435   14.9918    1.7642 C   0  0  2  0  0  0  0  0  0  0  0  0
   23.3513   15.9486    2.5130 O   0  0  0  0  0  0  0  0  0  0  0  0
   21.4061   14.5380    2.7393 C   0  0  0  0  0  0  0  0  0  0  0  0
   20.1822   13.8542    2.3071 N   0  0  0  0  0  0  0  0  0  0  0  0
   19.8838   13.0345    1.0163 C   0  0  0  0  0  0  0  0  0  0  0  0
   20.5424   12.8469    0.0710 O   0  0  0  0  0  0  0  0  0  0  0  0
   18.4819   12.3598    1.2155 C   0  0  2  0  0  0  0  0  0  0  0  0
   18.3743   10.9684    0.5493 C   0  0  0  0  0  0  0  0  0  0  0  0
   18.3813   10.9925   -0.9757 C   0  0  0  0  0  0  0  0  0  0  0  0
   17.3544   11.9712   -1.5235 C   0  0  0  0  0  0  0  0  0  0  0  0
   17.4223   13.3369   -0.8433 C   0  0  0  0  0  0  0  0  0  0  0  0
   17.2999   13.1759    0.6762 C   0  0  2  0  0  0  0  0  0  0  0  0
   16.9808   14.4832    1.4165 C   0  0  2  0  0  0  0  0  0  0  0  0
   16.3535   14.2425    2.7799 C   0  0  0  0  0  0  0  0  0  0  0  0
   14.9197   13.8872    2.4343 C   0  0  0  0  0  0  0  0  0  0  0  0
   14.6689   14.6020    1.1214 C   0  0  0  0  0  0  0  0  0  0  0  0
   15.9233   15.1770    0.7227 O   0  0  0  0  0  0  0  0  0  0  0  0
  1  2  1  0
  2  3  1  0
  3  4  2  0
  4  5  1  0
  5  6  2  0
  6  7  1  0
  7  8  2  0
  7  9  1  0
  9 10  1  0
 10 11  1  0
 11 12  1  0
 12 13  1  1
 12 14  1  0
 14 15  1  0
 15 16  1  0
 16 17  2  0
 18 16  1  6
 18 19  1  0
 19 20  1  0
 20 21  1  0
 21 22  1  0
 23 22  1  6
 23 24  1  0
 24 25  1  1
 25 26  1  0
 26 27  1  0
 27 28  1  0
  8  3  1  0
 23 18  1  0
 28 24  1  0
 12  6  1  0
M  END
>  <energy_score>  (429) 
-19.673046

>  <inchikey>  (429) 
None

>  <smiles>  (429) 
None

>  <ref_pdb>  (429) 
A0239a

>  <alias>  (429) 
None

>  <HIPPO Pose ID>  (429) 
498073

>  <name>  (429) 
P498073

>  <HIPPO Compound ID>  (429) 
290377

>  <ref_mols>  (429) 
A0239a,A0608a

>  <distance_score>  (429) 
1.954704

>  <inspiration_score>  (429) 
None

$$$$
P498074
     RDKit          3D

 28 31  0  0  0  0  0  0  0  0999 V2000
   27.3792   10.3346    0.3223 C   0  0  0  0  0  0  0  0  0  0  0  0
   27.0713   11.1031    1.4770 O   0  0  0  0  0  0  0  0  0  0  0  0
   26.0723   12.0263    1.3396 C   0  0  0  0  0  0  0  0  0  0  0  0
   25.1222   12.0504    0.3272 C   0  0  0  0  0  0  0  0  0  0  0  0
   24.1515   13.0583    0.2993 C   0  0  0  0  0  0  0  0  0  0  0  0
   24.1265   14.0845    1.2624 C   0  0  0  0  0  0  0  0  0  0  0  0
   25.0982   14.0646    2.2794 C   0  0  0  0  0  0  0  0  0  0  0  0
   26.0387   13.0183    2.3191 C   0  0  0  0  0  0  0  0  0  0  0  0
   25.2314   15.1731    3.2962 C   0  0  0  0  0  0  0  0  0  0  0  0
   24.1292   16.2293    3.2854 C   0  0  0  0  0  0  0  0  0  0  0  0
   23.6222   16.4785    1.8851 C   0  0  0  0  0  0  0  0  0  0  0  0
   23.0650   15.1880    1.2510 C   0  0  1  0  0  0  0  0  0  0  0  0
   22.7597   15.6138   -0.0758 O   0  0  0  0  0  0  0  0  0  0  0  0
   21.7818   14.7469    2.0320 C   0  0  0  0  0  0  0  0  0  0  0  0
   20.5955   14.4400    1.2629 N   0  0  0  0  0  0  0  0  0  0  0  0
   20.3424   13.3438    0.2028 C   0  0  0  0  0  0  0  0  0  0  0  0
   21.0717   12.5686   -0.2702 O   0  0  0  0  0  0  0  0  0  0  0  0
   18.8302   13.3773   -0.1116 C   0  0  1  0  0  0  0  0  0  0  0  0
   18.5861   12.6036   -1.4279 C   0  0  0  0  0  0  0  0  0  0  0  0
   17.1591   12.1105   -1.5758 C   0  0  0  0  0  0  0  0  0  0  0  0
   16.7708   11.1631   -0.4475 C   0  0  0  0  0  0  0  0  0  0  0  0
   17.5435   11.3832    0.8455 C   0  0  0  0  0  0  0  0  0  0  0  0
   18.0122   12.8226    1.0997 C   0  0  2  0  0  0  0  0  0  0  0  0
   16.9414   13.8014    1.6674 C   0  0  1  0  0  0  0  0  0  0  0  0
   16.0641   14.5961    0.7190 C   0  0  0  0  0  0  0  0  0  0  0  0
   14.7724   13.8332    0.6383 C   0  0  0  0  0  0  0  0  0  0  0  0
   14.7480   13.0096    1.8976 C   0  0  0  0  0  0  0  0  0  0  0  0
   16.0237   13.1253    2.5467 O   0  0  0  0  0  0  0  0  0  0  0  0
  1  2  1  0
  2  3  1  0
  3  4  2  0
  4  5  1  0
  5  6  2  0
  6  7  1  0
  7  8  2  0
  7  9  1  0
  9 10  1  0
 10 11  1  0
 11 12  1  0
 12 13  1  6
 12 14  1  0
 14 15  1  0
 15 16  1  0
 16 17  2  0
 18 16  1  1
 18 19  1  0
 19 20  1  0
 20 21  1  0
 21 22  1  0
 23 22  1  6
 23 24  1  0
 24 25  1  6
 25 26  1  0
 26 27  1  0
 27 28  1  0
  8  3  1  0
 23 18  1  0
 28 24  1  0
 12  6  1  0
M  END
>  <energy_score>  (430) 
-17.119315

>  <inchikey>  (430) 
None

>  <smiles>  (430) 
None

>  <ref_pdb>  (430) 
A0239a

>  <alias>  (430) 
None

>  <HIPPO Pose ID>  (430) 
498074

>  <name>  (430) 
P498074

>  <HIPPO Compound ID>  (430) 
290377

>  <ref_mols>  (430) 
A0239a,A0608a

>  <distance_score>  (430) 
1.98541

>  <inspiration_score>  (430) 
None

$$$$
P498075
     RDKit          3D

 28 31  0  0  0  0  0  0  0  0999 V2000
   28.3200   11.1654    1.7224 C   0  0  0  0  0  0  0  0  0  0  0  0
   27.1201   11.1473    0.9561 O   0  0  0  0  0  0  0  0  0  0  0  0
   26.2611   12.1938    1.1501 C   0  0  0  0  0  0  0  0  0  0  0  0
   25.0123   12.0519    0.5561 C   0  0  0  0  0  0  0  0  0  0  0  0
   24.0261   13.0274    0.7238 C   0  0  0  0  0  0  0  0  0  0  0  0
   24.2897   14.2013    1.4524 C   0  0  0  0  0  0  0  0  0  0  0  0
   25.5925   14.4008    1.9463 C   0  0  0  0  0  0  0  0  0  0  0  0
   26.5446   13.3702    1.8400 C   0  0  0  0  0  0  0  0  0  0  0  0
   25.9992   15.6947    2.6134 C   0  0  0  0  0  0  0  0  0  0  0  0
   25.0780   16.8554    2.2313 C   0  0  0  0  0  0  0  0  0  0  0  0
   23.6505   16.4547    2.5382 C   0  0  0  0  0  0  0  0  0  0  0  0
   23.2029   15.2532    1.6782 C   0  0  1  0  0  0  0  0  0  0  0  0
   22.8538   15.8099    0.4034 O   0  0  0  0  0  0  0  0  0  0  0  0
   21.9566   14.6707    2.3856 C   0  0  0  0  0  0  0  0  0  0  0  0
   20.7706   14.5119    1.5887 N   0  0  0  0  0  0  0  0  0  0  0  0
   19.5689   13.5700    1.7640 C   0  0  0  0  0  0  0  0  0  0  0  0
   19.3119   12.8277    2.6220 O   0  0  0  0  0  0  0  0  0  0  0  0
   18.5791   13.8127    0.6049 C   0  0  1  0  0  0  0  0  0  0  0  0
   19.1516   13.4414   -0.7743 C   0  0  0  0  0  0  0  0  0  0  0  0
   19.2963   11.9367   -0.9758 C   0  0  0  0  0  0  0  0  0  0  0  0
   18.0210   11.1633   -0.6575 C   0  0  0  0  0  0  0  0  0  0  0  0
   17.4401   11.5176    0.7030 C   0  0  0  0  0  0  0  0  0  0  0  0
   17.2463   13.0394    0.8273 C   0  0  1  0  0  0  0  0  0  0  0  0
   16.4688   13.4344    2.1115 C   0  0  1  0  0  0  0  0  0  0  0  0
   15.8359   14.8102    2.0197 C   0  0  0  0  0  0  0  0  0  0  0  0
   14.6040   14.5537    1.1770 C   0  0  0  0  0  0  0  0  0  0  0  0
   14.2584   13.1053    1.4590 C   0  0  0  0  0  0  0  0  0  0  0  0
   15.3115   12.5869    2.2823 O   0  0  0  0  0  0  0  0  0  0  0  0
  1  2  1  0
  2  3  1  0
  3  4  2  0
  4  5  1  0
  5  6  2  0
  6  7  1  0
  7  8  2  0
  7  9  1  0
  9 10  1  0
 10 11  1  0
 11 12  1  0
 12 13  1  6
 12 14  1  0
 14 15  1  0
 15 16  1  0
 16 17  2  0
 18 16  1  1
 18 19  1  0
 19 20  1  0
 20 21  1  0
 21 22  1  0
 23 22  1  1
 23 24  1  0
 24 25  1  6
 25 26  1  0
 26 27  1  0
 27 28  1  0
  8  3  1  0
 23 18  1  0
 28 24  1  0
 12  6  1  0
M  END
>  <energy_score>  (431) 
-44.095992

>  <inchikey>  (431) 
None

>  <smiles>  (431) 
None

>  <ref_pdb>  (431) 
A0239a

>  <alias>  (431) 
None

>  <HIPPO Pose ID>  (431) 
498075

>  <name>  (431) 
P498075

>  <HIPPO Compound ID>  (431) 
290377

>  <ref_mols>  (431) 
A0239a,A0608a

>  <distance_score>  (431) 
1.940431

>  <inspiration_score>  (431) 
None

$$$$
P498076
     RDKit          3D

 28 31  0  0  0  0  0  0  0  0999 V2000
   24.1959   11.1752   -2.4725 C   0  0  0  0  0  0  0  0  0  0  0  0
   23.7280   12.3993   -1.9199 O   0  0  0  0  0  0  0  0  0  0  0  0
   24.0572   12.6682   -0.6227 C   0  0  0  0  0  0  0  0  0  0  0  0
   24.8793   11.8774    0.1755 C   0  0  0  0  0  0  0  0  0  0  0  0
   25.0816   12.2167    1.5083 C   0  0  0  0  0  0  0  0  0  0  0  0
   24.4147   13.3111    2.0562 C   0  0  0  0  0  0  0  0  0  0  0  0
   23.5960   14.1353    1.2582 C   0  0  0  0  0  0  0  0  0  0  0  0
   23.4956   13.8489   -0.1106 C   0  0  0  0  0  0  0  0  0  0  0  0
   22.8031   14.8146   -1.0522 C   0  0  0  0  0  0  0  0  0  0  0  0
   22.8501   16.2506   -0.5283 C   0  0  0  0  0  0  0  0  0  0  0  0
   22.1740   16.2825    0.8216 C   0  0  0  0  0  0  0  0  0  0  0  0
   22.8925   15.3619    1.8320 C   0  0  2  0  0  0  0  0  0  0  0  0
   23.9137   16.1884    2.4238 O   0  0  0  0  0  0  0  0  0  0  0  0
   21.8530   15.0051    2.9159 C   0  0  0  0  0  0  0  0  0  0  0  0
   20.6212   14.3371    2.5046 N   0  0  0  0  0  0  0  0  0  0  0  0
   19.1337   14.7384    2.7221 C   0  0  0  0  0  0  0  0  0  0  0  0
   18.6711   15.7018    3.1948 O   0  0  0  0  0  0  0  0  0  0  0  0
   18.2451   13.5609    2.2952 C   0  0  2  0  0  0  0  0  0  0  0  0
   17.9382   13.3503    0.8102 C   0  0  1  0  0  0  0  0  0  0  0  0
   18.6758   12.1529    0.2835 C   0  0  0  0  0  0  0  0  0  0  0  0
   20.0065   12.3973    0.3545 F   0  0  0  0  0  0  0  0  0  0  0  0
   18.4410   11.0289    0.9834 F   0  0  0  0  0  0  0  0  0  0  0  0
   18.3756   11.9219   -1.0101 F   0  0  0  0  0  0  0  0  0  0  0  0
   16.4240   13.1089    0.8019 C   0  0  2  0  0  0  0  0  0  0  0  0
   15.6924   14.4385    0.9335 C   0  0  0  0  0  0  0  0  0  0  0  0
   15.9861   14.8129    2.3839 C   0  0  0  0  0  0  0  0  0  0  0  0
   16.8271   13.6330    2.8688 C   0  0  1  0  0  0  0  0  0  0  0  0
   16.1812   12.5644    2.1190 O   0  0  0  0  0  0  0  0  0  0  0  0
  1  2  1  0
  2  3  1  0
  3  4  2  0
  4  5  1  0
  5  6  2  0
  6  7  1  0
  7  8  2  0
  8  9  1  0
  9 10  1  0
 10 11  1  0
 11 12  1  0
 12 13  1  1
 12 14  1  0
 14 15  1  0
 15 16  1  0
 16 17  2  0
 18 16  1  6
 18 19  1  0
 19 20  1  1
 20 21  1  0
 20 22  1  0
 20 23  1  0
 19 24  1  0
 24 25  1  1
 25 26  1  0
 27 26  1  6
 27 28  1  0
  8  3  1  0
 27 18  1  0
 12  7  1  0
 28 24  1  0
M  END
>  <energy_score>  (432) 
-36.836683

>  <inchikey>  (432) 
None

>  <smiles>  (432) 
None

>  <ref_pdb>  (432) 
A0239a

>  <alias>  (432) 
None

>  <HIPPO Pose ID>  (432) 
498076

>  <name>  (432) 
P498076

>  <HIPPO Compound ID>  (432) 
290380

>  <ref_mols>  (432) 
A0239a,A0608a

>  <distance_score>  (432) 
1.995388

>  <inspiration_score>  (432) 
None

$$$$
P498077
     RDKit          3D

 28 31  0  0  0  0  0  0  0  0999 V2000
   23.9402   11.2324   -2.4306 C   0  0  0  0  0  0  0  0  0  0  0  0
   23.4379   12.3893   -1.7736 O   0  0  0  0  0  0  0  0  0  0  0  0
   23.9155   12.6597   -0.5222 C   0  0  0  0  0  0  0  0  0  0  0  0
   24.8801   11.9051    0.1438 C   0  0  0  0  0  0  0  0  0  0  0  0
   25.2275   12.2232    1.4527 C   0  0  0  0  0  0  0  0  0  0  0  0
   24.6033   13.2880    2.1005 C   0  0  0  0  0  0  0  0  0  0  0  0
   23.6728   14.0992    1.4233 C   0  0  0  0  0  0  0  0  0  0  0  0
   23.3488   13.7901    0.0921 C   0  0  0  0  0  0  0  0  0  0  0  0
   22.3340   14.6283   -0.6560 C   0  0  0  0  0  0  0  0  0  0  0  0
   22.3111   16.1169   -0.2932 C   0  0  0  0  0  0  0  0  0  0  0  0
   22.8998   16.4671    1.0589 C   0  0  0  0  0  0  0  0  0  0  0  0
   23.0069   15.3093    2.0618 C   0  0  2  0  0  0  0  0  0  0  0  0
   23.8744   15.8553    3.0734 O   0  0  0  0  0  0  0  0  0  0  0  0
   21.6416   15.0021    2.7494 C   0  0  0  0  0  0  0  0  0  0  0  0
   20.4286   14.8375    1.9560 N   0  0  0  0  0  0  0  0  0  0  0  0
   19.4090   13.6753    1.9096 C   0  0  0  0  0  0  0  0  0  0  0  0
   19.3396   12.7072    2.5521 O   0  0  0  0  0  0  0  0  0  0  0  0
   18.3275   14.0195    0.8878 C   0  0  1  0  0  0  0  0  0  0  0  0
   17.4956   12.8789    0.2532 C   0  0  1  0  0  0  0  0  0  0  0  0
   17.8909   11.4453    0.4464 C   0  0  0  0  0  0  0  0  0  0  0  0
   17.7592   10.9990    1.7008 F   0  0  0  0  0  0  0  0  0  0  0  0
   19.1638   11.2507    0.0428 F   0  0  0  0  0  0  0  0  0  0  0  0
   17.1110   10.6654   -0.3414 F   0  0  0  0  0  0  0  0  0  0  0  0
   16.0679   13.2032    0.6871 C   0  0  1  0  0  0  0  0  0  0  0  0
   15.7915   13.0591    2.1762 C   0  0  0  0  0  0  0  0  0  0  0  0
   16.6017   14.2039    2.7787 C   0  0  0  0  0  0  0  0  0  0  0  0
   17.2124   14.8497    1.5358 C   0  0  2  0  0  0  0  0  0  0  0  0
   16.1129   14.6497    0.5946 O   0  0  0  0  0  0  0  0  0  0  0  0
  1  2  1  0
  2  3  1  0
  3  4  2  0
  4  5  1  0
  5  6  2  0
  6  7  1  0
  7  8  2  0
  8  9  1  0
  9 10  1  0
 10 11  1  0
 11 12  1  0
 12 13  1  1
 12 14  1  0
 14 15  1  0
 15 16  1  0
 16 17  2  0
 18 16  1  1
 18 19  1  0
 19 20  1  1
 20 21  1  0
 20 22  1  0
 20 23  1  0
 19 24  1  0
 24 25  1  1
 25 26  1  0
 27 26  1  1
 27 28  1  0
  8  3  1  0
 27 18  1  0
 12  7  1  0
 28 24  1  0
M  END
>  <energy_score>  (433) 
-17.101132

>  <inchikey>  (433) 
None

>  <smiles>  (433) 
None

>  <ref_pdb>  (433) 
A0239a

>  <alias>  (433) 
None

>  <HIPPO Pose ID>  (433) 
498077

>  <name>  (433) 
P498077

>  <HIPPO Compound ID>  (433) 
290380

>  <ref_mols>  (433) 
A0239a,A0608a

>  <distance_score>  (433) 
1.966123

>  <inspiration_score>  (433) 
None

$$$$
P498078
     RDKit          3D

 28 30  0  0  0  0  0  0  0  0999 V2000
   24.0974   10.8492   -2.3829 C   0  0  0  0  0  0  0  0  0  0  0  0
   24.5627   10.9138   -1.0411 O   0  0  0  0  0  0  0  0  0  0  0  0
   24.5679   12.1218   -0.4272 C   0  0  0  0  0  0  0  0  0  0  0  0
   24.7920   12.0914    0.9446 C   0  0  0  0  0  0  0  0  0  0  0  0
   24.6400   13.2333    1.7100 C   0  0  0  0  0  0  0  0  0  0  0  0
   24.2838   14.4379    1.0916 C   0  0  0  0  0  0  0  0  0  0  0  0
   24.2524   14.5039   -0.3138 C   0  0  0  0  0  0  0  0  0  0  0  0
   24.3673   13.3318   -1.0635 C   0  0  0  0  0  0  0  0  0  0  0  0
   23.9888   15.7970   -1.0545 C   0  0  0  0  0  0  0  0  0  0  0  0
   24.0679   17.0420   -0.1727 C   0  0  0  0  0  0  0  0  0  0  0  0
   23.2769   16.8030    1.0985 C   0  0  0  0  0  0  0  0  0  0  0  0
   23.9103   15.6561    1.9197 C   0  0  2  0  0  0  0  0  0  0  0  0
   25.1140   16.2019    2.4679 O   0  0  0  0  0  0  0  0  0  0  0  0
   22.9590   15.2943    3.0836 C   0  0  0  0  0  0  0  0  0  0  0  0
   21.5757   15.0499    2.7222 N   0  0  0  0  0  0  0  0  0  0  0  0
   20.5447   14.0786    3.3185 C   0  0  0  0  0  0  0  0  0  0  0  0
   20.6627   13.2667    4.1423 O   0  0  0  0  0  0  0  0  0  0  0  0
   19.1496   14.2981    2.8003 C   0  0  2  0  0  0  0  0  0  0  0  0
   18.8305   13.3789    1.6337 C   0  0  0  0  0  0  0  0  0  0  0  0
   17.4358   13.5196    1.0436 C   0  0  2  0  0  0  0  0  0  0  0  0
   16.2788   13.3324    2.0138 C   0  0  0  0  0  0  0  0  0  0  0  0
   15.2343   12.6982    1.1308 C   0  0  0  0  0  0  0  0  0  0  0  0
   16.0786   11.7790    0.2806 C   0  0  0  0  0  0  0  0  0  0  0  0
   17.3091   12.4771    0.0577 O   0  0  0  0  0  0  0  0  0  0  0  0
   18.9079   15.7416    2.5659 C   0  0  0  0  0  0  0  0  0  0  0  0
   19.3537   16.1119    1.3487 F   0  0  0  0  0  0  0  0  0  0  0  0
   19.5280   16.5373    3.4537 F   0  0  0  0  0  0  0  0  0  0  0  0
   17.5953   16.0210    2.6559 F   0  0  0  0  0  0  0  0  0  0  0  0
  1  2  1  0
  2  3  1  0
  3  4  2  0
  4  5  1  0
  5  6  2  0
  6  7  1  0
  7  8  2  0
  7  9  1  0
  9 10  1  0
 10 11  1  0
 11 12  1  0
 12 13  1  1
 12 14  1  0
 14 15  1  0
 15 16  1  0
 16 17  2  0
 16 18  1  0
 18 19  1  6
 20 19  1  1
 20 21  1  0
 21 22  1  0
 22 23  1  0
 23 24  1  0
 18 25  1  0
 25 26  1  0
 25 27  1  0
 25 28  1  0
  8  3  1  0
 24 20  1  0
 12  6  1  0
M  END
>  <energy_score>  (434) 
-59.243942

>  <inchikey>  (434) 
None

>  <smiles>  (434) 
None

>  <ref_pdb>  (434) 
A0239a

>  <alias>  (434) 
None

>  <HIPPO Pose ID>  (434) 
498078

>  <name>  (434) 
P498078

>  <HIPPO Compound ID>  (434) 
290384

>  <ref_mols>  (434) 
A0239a,A0608a

>  <distance_score>  (434) 
1.895643

>  <inspiration_score>  (434) 
None

$$$$
P498079
     RDKit          3D

 28 30  0  0  0  0  0  0  0  0999 V2000
   23.1555   11.3508   -2.5191 C   0  0  0  0  0  0  0  0  0  0  0  0
   23.0438   12.5401   -1.7464 O   0  0  0  0  0  0  0  0  0  0  0  0
   23.8837   12.6686   -0.6749 C   0  0  0  0  0  0  0  0  0  0  0  0
   24.8447   11.7316   -0.2914 C   0  0  0  0  0  0  0  0  0  0  0  0
   25.5886   11.9269    0.8690 C   0  0  0  0  0  0  0  0  0  0  0  0
   25.3416   13.0371    1.6687 C   0  0  0  0  0  0  0  0  0  0  0  0
   24.3964   14.0066    1.2814 C   0  0  0  0  0  0  0  0  0  0  0  0
   23.7127   13.8467    0.0676 C   0  0  0  0  0  0  0  0  0  0  0  0
   22.7897   14.9372   -0.4252 C   0  0  0  0  0  0  0  0  0  0  0  0
   23.2661   16.3198    0.0104 C   0  0  0  0  0  0  0  0  0  0  0  0
   23.4945   16.4430    1.5072 C   0  0  0  0  0  0  0  0  0  0  0  0
   24.0210   15.1570    2.1979 C   0  0  2  0  0  0  0  0  0  0  0  0
   25.2157   15.5691    2.8699 O   0  0  0  0  0  0  0  0  0  0  0  0
   22.9744   14.6172    3.2128 C   0  0  0  0  0  0  0  0  0  0  0  0
   21.6020   14.5624    2.7452 N   0  0  0  0  0  0  0  0  0  0  0  0
   20.3720   13.8479    3.3354 C   0  0  0  0  0  0  0  0  0  0  0  0
   20.2823   13.1290    4.2457 O   0  0  0  0  0  0  0  0  0  0  0  0
   19.1286   14.1942    2.5702 C   0  0  2  0  0  0  0  0  0  0  0  0
   19.1766   13.7300    1.1192 C   0  0  0  0  0  0  0  0  0  0  0  0
   17.8685   13.1188    0.6301 C   0  0  2  0  0  0  0  0  0  0  0  0
   16.5696   13.8588    0.8948 C   0  0  0  0  0  0  0  0  0  0  0  0
   15.5588   12.7583    0.6596 C   0  0  0  0  0  0  0  0  0  0  0  0
   16.2945   11.4984    1.0872 C   0  0  0  0  0  0  0  0  0  0  0  0
   17.6772   11.8470    1.2601 O   0  0  0  0  0  0  0  0  0  0  0  0
   18.8963   15.6620    2.7510 C   0  0  0  0  0  0  0  0  0  0  0  0
   20.0036   16.3770    3.0313 F   0  0  0  0  0  0  0  0  0  0  0  0
   18.0102   15.8975    3.7435 F   0  0  0  0  0  0  0  0  0  0  0  0
   18.3813   16.2074    1.6289 F   0  0  0  0  0  0  0  0  0  0  0  0
  1  2  1  0
  2  3  1  0
  3  4  2  0
  4  5  1  0
  5  6  2  0
  6  7  1  0
  7  8  2  0
  8  9  1  0
  9 10  1  0
 10 11  1  0
 11 12  1  0
 12 13  1  1
 12 14  1  0
 14 15  1  0
 15 16  1  0
 16 17  2  0
 16 18  1  0
 18 19  1  6
 20 19  1  1
 20 21  1  0
 21 22  1  0
 22 23  1  0
 23 24  1  0
 18 25  1  0
 25 26  1  0
 25 27  1  0
 25 28  1  0
  8  3  1  0
 24 20  1  0
 12  7  1  0
M  END
>  <energy_score>  (435) 
-2.460618

>  <inchikey>  (435) 
None

>  <smiles>  (435) 
None

>  <ref_pdb>  (435) 
A0239a

>  <alias>  (435) 
None

>  <HIPPO Pose ID>  (435) 
498079

>  <name>  (435) 
P498079

>  <HIPPO Compound ID>  (435) 
290385

>  <ref_mols>  (435) 
A0239a,A0608a

>  <distance_score>  (435) 
1.501979

>  <inspiration_score>  (435) 
None

$$$$
P498080
     RDKit          3D

 28 30  0  0  0  0  0  0  0  0999 V2000
   23.6346   11.1048   -2.5306 C   0  0  0  0  0  0  0  0  0  0  0  0
   23.2143   12.1906   -1.7136 O   0  0  0  0  0  0  0  0  0  0  0  0
   23.9769   12.4801   -0.6171 C   0  0  0  0  0  0  0  0  0  0  0  0
   25.0849   11.7450   -0.1919 C   0  0  0  0  0  0  0  0  0  0  0  0
   25.7478   12.0939    0.9830 C   0  0  0  0  0  0  0  0  0  0  0  0
   25.2971   13.1695    1.7433 C   0  0  0  0  0  0  0  0  0  0  0  0
   24.2022   13.9371    1.3123 C   0  0  0  0  0  0  0  0  0  0  0  0
   23.5565   13.6020    0.1106 C   0  0  0  0  0  0  0  0  0  0  0  0
   22.3521   14.4025   -0.3293 C   0  0  0  0  0  0  0  0  0  0  0  0
   22.4328   15.9021   -0.0188 C   0  0  0  0  0  0  0  0  0  0  0  0
   23.2549   16.2616    1.2095 C   0  0  0  0  0  0  0  0  0  0  0  0
   23.6229   15.0835    2.1244 C   0  0  2  0  0  0  0  0  0  0  0  0
   24.6644   15.6105    2.9571 O   0  0  0  0  0  0  0  0  0  0  0  0
   22.4454   14.5495    2.9977 C   0  0  0  0  0  0  0  0  0  0  0  0
   21.0902   14.9627    2.6627 N   0  0  0  0  0  0  0  0  0  0  0  0
   19.7260   14.2493    2.9065 C   0  0  0  0  0  0  0  0  0  0  0  0
   19.4812   13.2624    3.4798 O   0  0  0  0  0  0  0  0  0  0  0  0
   18.6480   15.0842    2.2154 C   0  0  1  0  0  0  0  0  0  0  0  0
   18.3715   14.5782    0.7993 C   0  0  0  0  0  0  0  0  0  0  0  0
   17.4914   13.3738    0.5200 C   0  0  2  0  0  0  0  0  0  0  0  0
   15.9926   13.4886    0.7119 C   0  0  0  0  0  0  0  0  0  0  0  0
   15.5851   12.0398    0.5759 C   0  0  0  0  0  0  0  0  0  0  0  0
   16.7926   11.2796    1.1036 C   0  0  0  0  0  0  0  0  0  0  0  0
   17.8678   12.2227    1.2601 O   0  0  0  0  0  0  0  0  0  0  0  0
   17.4319   15.2490    3.0853 C   0  0  0  0  0  0  0  0  0  0  0  0
   17.7039   16.0763    4.1247 F   0  0  0  0  0  0  0  0  0  0  0  0
   16.8860   14.1258    3.5737 F   0  0  0  0  0  0  0  0  0  0  0  0
   16.4586   15.8942    2.3838 F   0  0  0  0  0  0  0  0  0  0  0  0
  1  2  1  0
  2  3  1  0
  3  4  2  0
  4  5  1  0
  5  6  2  0
  6  7  1  0
  7  8  2  0
  8  9  1  0
  9 10  1  0
 10 11  1  0
 11 12  1  0
 12 13  1  1
 12 14  1  0
 14 15  1  0
 15 16  1  0
 16 17  2  0
 16 18  1  0
 18 19  1  6
 20 19  1  1
 20 21  1  0
 21 22  1  0
 22 23  1  0
 23 24  1  0
 18 25  1  0
 25 26  1  0
 25 27  1  0
 25 28  1  0
  8  3  1  0
 24 20  1  0
 12  7  1  0
M  END
>  <energy_score>  (436) 
-12.311197

>  <inchikey>  (436) 
None

>  <smiles>  (436) 
None

>  <ref_pdb>  (436) 
A0239a

>  <alias>  (436) 
None

>  <HIPPO Pose ID>  (436) 
498080

>  <name>  (436) 
P498080

>  <HIPPO Compound ID>  (436) 
290385

>  <ref_mols>  (436) 
A0239a,A0608a

>  <distance_score>  (436) 
1.789675

>  <inspiration_score>  (436) 
None

$$$$
P498081
     RDKit          3D

 28 30  0  0  0  0  0  0  0  0999 V2000
   23.3217   11.4222   -2.3612 C   0  0  0  0  0  0  0  0  0  0  0  0
   23.2525   12.6081   -1.5793 O   0  0  0  0  0  0  0  0  0  0  0  0
   24.0974   12.6998   -0.5050 C   0  0  0  0  0  0  0  0  0  0  0  0
   24.9903   11.7073   -0.1025 C   0  0  0  0  0  0  0  0  0  0  0  0
   25.7337   11.8688    1.0633 C   0  0  0  0  0  0  0  0  0  0  0  0
   25.5641   13.0078    1.8440 C   0  0  0  0  0  0  0  0  0  0  0  0
   24.6992   14.0376    1.4335 C   0  0  0  0  0  0  0  0  0  0  0  0
   24.0019   13.9014    0.2205 C   0  0  0  0  0  0  0  0  0  0  0  0
   23.1144   15.0058   -0.3087 C   0  0  0  0  0  0  0  0  0  0  0  0
   23.3560   16.4203    0.2283 C   0  0  0  0  0  0  0  0  0  0  0  0
   24.2746   16.5227    1.4353 C   0  0  0  0  0  0  0  0  0  0  0  0
   24.4492   15.2597    2.2983 C   0  0  2  0  0  0  0  0  0  0  0  0
   25.6304   15.5310    3.0583 O   0  0  0  0  0  0  0  0  0  0  0  0
   23.2500   15.0073    3.2520 C   0  0  0  0  0  0  0  0  0  0  0  0
   21.9661   15.0494    2.6027 N   0  0  0  0  0  0  0  0  0  0  0  0
   20.6903   14.2157    2.8489 C   0  0  0  0  0  0  0  0  0  0  0  0
   20.5041   13.3153    3.5612 O   0  0  0  0  0  0  0  0  0  0  0  0
   19.6560   14.7131    1.8815 C   0  0  1  0  0  0  0  0  0  0  0  0
   18.7923   13.6024    1.2807 C   0  0  0  0  0  0  0  0  0  0  0  0
   17.6676   13.0253    2.1385 C   0  0  1  0  0  0  0  0  0  0  0  0
   16.3128   13.6938    1.9482 C   0  0  0  0  0  0  0  0  0  0  0  0
   15.7222   12.9466    0.7778 C   0  0  0  0  0  0  0  0  0  0  0  0
   16.2529   11.5470    0.9829 C   0  0  0  0  0  0  0  0  0  0  0  0
   17.4942   11.6686    1.6845 O   0  0  0  0  0  0  0  0  0  0  0  0
   18.9629   15.7787    2.6498 C   0  0  0  0  0  0  0  0  0  0  0  0
   19.8479   16.6346    3.2088 F   0  0  0  0  0  0  0  0  0  0  0  0
   18.2185   16.5126    1.7982 F   0  0  0  0  0  0  0  0  0  0  0  0
   18.1476   15.3374    3.6204 F   0  0  0  0  0  0  0  0  0  0  0  0
  1  2  1  0
  2  3  1  0
  3  4  2  0
  4  5  1  0
  5  6  2  0
  6  7  1  0
  7  8  2  0
  8  9  1  0
  9 10  1  0
 10 11  1  0
 11 12  1  0
 12 13  1  1
 12 14  1  0
 14 15  1  0
 15 16  1  0
 16 17  2  0
 16 18  1  0
 18 19  1  1
 20 19  1  6
 20 21  1  0
 21 22  1  0
 22 23  1  0
 23 24  1  0
 18 25  1  0
 25 26  1  0
 25 27  1  0
 25 28  1  0
  8  3  1  0
 24 20  1  0
 12  7  1  0
M  END
>  <energy_score>  (437) 
-4.670687

>  <inchikey>  (437) 
None

>  <smiles>  (437) 
None

>  <ref_pdb>  (437) 
A0239a

>  <alias>  (437) 
None

>  <HIPPO Pose ID>  (437) 
498081

>  <name>  (437) 
P498081

>  <HIPPO Compound ID>  (437) 
290385

>  <ref_mols>  (437) 
A0239a,A0608a

>  <distance_score>  (437) 
1.641115

>  <inspiration_score>  (437) 
None

$$$$
P498082
     RDKit          3D

 28 30  0  0  0  0  0  0  0  0999 V2000
   23.4857   11.2799   -2.3573 C   0  0  0  0  0  0  0  0  0  0  0  0
   23.1047   12.3532   -1.5052 O   0  0  0  0  0  0  0  0  0  0  0  0
   23.9113   12.6149   -0.4317 C   0  0  0  0  0  0  0  0  0  0  0  0
   24.9326   11.7798    0.0190 C   0  0  0  0  0  0  0  0  0  0  0  0
   25.6454   12.1079    1.1687 C   0  0  0  0  0  0  0  0  0  0  0  0
   25.3379   13.2697    1.8736 C   0  0  0  0  0  0  0  0  0  0  0  0
   24.3394   14.1477    1.4139 C   0  0  0  0  0  0  0  0  0  0  0  0
   23.6373   13.8197    0.2386 C   0  0  0  0  0  0  0  0  0  0  0  0
   22.5583   14.7405   -0.2845 C   0  0  0  0  0  0  0  0  0  0  0  0
   22.7976   16.2331   -0.0458 C   0  0  0  0  0  0  0  0  0  0  0  0
   23.7346   16.5692    1.1026 C   0  0  0  0  0  0  0  0  0  0  0  0
   23.9988   15.4485    2.1244 C   0  0  2  0  0  0  0  0  0  0  0  0
   25.1628   15.9264    2.8169 O   0  0  0  0  0  0  0  0  0  0  0  0
   22.8421   15.3041    3.1528 C   0  0  0  0  0  0  0  0  0  0  0  0
   21.4901   15.4462    2.6486 N   0  0  0  0  0  0  0  0  0  0  0  0
   20.2859   14.4727    2.7100 C   0  0  0  0  0  0  0  0  0  0  0  0
   20.1750   13.4409    3.2421 O   0  0  0  0  0  0  0  0  0  0  0  0
   19.1850   15.0334    1.8184 C   0  0  1  0  0  0  0  0  0  0  0  0
   18.4135   13.8805    1.1510 C   0  0  0  0  0  0  0  0  0  0  0  0
   17.4219   13.1078    2.0263 C   0  0  1  0  0  0  0  0  0  0  0  0
   15.9786   13.5736    1.8873 C   0  0  0  0  0  0  0  0  0  0  0  0
   15.4715   12.7630    0.7209 C   0  0  0  0  0  0  0  0  0  0  0  0
   16.1952   11.4503    0.9070 C   0  0  0  0  0  0  0  0  0  0  0  0
   17.4402   11.7494    1.5461 O   0  0  0  0  0  0  0  0  0  0  0  0
   18.3343   15.9945    2.5980 C   0  0  0  0  0  0  0  0  0  0  0  0
   19.0675   17.0077    3.1151 F   0  0  0  0  0  0  0  0  0  0  0  0
   17.4157   16.5682    1.7822 F   0  0  0  0  0  0  0  0  0  0  0  0
   17.6554   15.4307    3.6145 F   0  0  0  0  0  0  0  0  0  0  0  0
  1  2  1  0
  2  3  1  0
  3  4  2  0
  4  5  1  0
  5  6  2  0
  6  7  1  0
  7  8  2  0
  8  9  1  0
  9 10  1  0
 10 11  1  0
 11 12  1  0
 12 13  1  1
 12 14  1  0
 14 15  1  0
 15 16  1  0
 16 17  2  0
 16 18  1  0
 18 19  1  1
 20 19  1  6
 20 21  1  0
 21 22  1  0
 22 23  1  0
 23 24  1  0
 18 25  1  0
 25 26  1  0
 25 27  1  0
 25 28  1  0
  8  3  1  0
 24 20  1  0
 12  7  1  0
M  END
>  <energy_score>  (438) 
-6.855912

>  <inchikey>  (438) 
None

>  <smiles>  (438) 
None

>  <ref_pdb>  (438) 
A0239a

>  <alias>  (438) 
None

>  <HIPPO Pose ID>  (438) 
498082

>  <name>  (438) 
P498082

>  <HIPPO Compound ID>  (438) 
290385

>  <ref_mols>  (438) 
A0239a,A0608a

>  <distance_score>  (438) 
1.917857

>  <inspiration_score>  (438) 
None

$$$$
P498083
     RDKit          3D

 29 32  0  0  0  0  0  0  0  0999 V2000
   23.7067   11.1408   -2.4929 C   0  0  0  0  0  0  0  0  0  0  0  0
   23.3335   12.3110   -1.7770 O   0  0  0  0  0  0  0  0  0  0  0  0
   23.9708   12.5562   -0.5917 C   0  0  0  0  0  0  0  0  0  0  0  0
   24.9200   11.7175   -0.0082 C   0  0  0  0  0  0  0  0  0  0  0  0
   25.4763   12.0452    1.2233 C   0  0  0  0  0  0  0  0  0  0  0  0
   25.0837   13.2118    1.8710 C   0  0  0  0  0  0  0  0  0  0  0  0
   24.1650   14.1002    1.2727 C   0  0  0  0  0  0  0  0  0  0  0  0
   23.6066   13.7663    0.0286 C   0  0  0  0  0  0  0  0  0  0  0  0
   22.7120   14.7217   -0.7396 C   0  0  0  0  0  0  0  0  0  0  0  0
   22.2042   15.9380    0.0250 C   0  0  0  0  0  0  0  0  0  0  0  0
   23.2552   16.4680    0.9742 C   0  0  0  0  0  0  0  0  0  0  0  0
   23.7879   15.4051    1.9562 C   0  0  2  0  0  0  0  0  0  0  0  0
   24.9858   16.0211    2.4665 O   0  0  0  0  0  0  0  0  0  0  0  0
   22.8401   15.1587    3.1637 C   0  0  0  0  0  0  0  0  0  0  0  0
   21.4293   15.4214    2.9493 N   0  0  0  0  0  0  0  0  0  0  0  0
   20.2215   14.4550    2.9136 C   0  0  0  0  0  0  0  0  0  0  0  0
   20.1633   13.3105    3.1268 O   0  0  0  0  0  0  0  0  0  0  0  0
   18.9826   15.2612    2.5684 C   0  0  0  0  0  0  0  0  0  0  0  0
   18.2194   14.6051    1.4220 C   0  0  0  0  0  0  0  0  0  0  0  0
   16.7608   14.3322    1.7794 C   0  0  2  0  0  0  0  0  0  0  0  0
   16.5221   12.9793    2.4253 C   0  0  0  0  0  0  0  0  0  0  0  0
   15.3576   12.4030    1.6445 C   0  0  0  0  0  0  0  0  0  0  0  0
   15.5008   13.0424    0.2799 C   0  0  2  0  0  0  0  0  0  0  0  0
   16.4588   12.3181   -0.6941 C   0  0  0  0  0  0  0  0  0  0  0  0
   17.5127   11.6115   -0.0233 O   0  0  0  0  0  0  0  0  0  0  0  0
   17.6530   10.4079   -0.7741 C   0  0  0  0  0  0  0  0  0  0  0  0
   16.2524   10.1216   -1.2423 C   0  0  0  0  0  0  0  0  0  0  0  0
   15.7200   11.4121   -1.5329 O   0  0  0  0  0  0  0  0  0  0  0  0
   15.9849   14.3674    0.5725 O   0  0  0  0  0  0  0  0  0  0  0  0
  1  2  1  0
  2  3  1  0
  3  4  2  0
  4  5  1  0
  5  6  2  0
  6  7  1  0
  7  8  2  0
  8  9  1  0
  9 10  1  0
 10 11  1  0
 11 12  1  0
 12 13  1  1
 12 14  1  0
 14 15  1  0
 15 16  1  0
 16 17  2  0
 16 18  1  0
 18 19  1  0
 20 19  1  6
 20 21  1  0
 21 22  1  0
 22 23  1  0
 23 24  1  6
 24 25  1  0
 25 26  1  0
 26 27  1  0
 27 28  1  0
 23 29  1  0
  8  3  1  0
 29 20  1  0
 12  7  1  0
 28 24  1  0
M  END
>  <energy_score>  (439) 
-27.471101

>  <inchikey>  (439) 
None

>  <smiles>  (439) 
None

>  <ref_pdb>  (439) 
A0239a

>  <alias>  (439) 
None

>  <HIPPO Pose ID>  (439) 
498083

>  <name>  (439) 
P498083

>  <HIPPO Compound ID>  (439) 
290388

>  <ref_mols>  (439) 
A0239a,A0608a

>  <distance_score>  (439) 
1.965838

>  <inspiration_score>  (439) 
None

$$$$
P498084
     RDKit          3D

 29 32  0  0  0  0  0  0  0  0999 V2000
   23.0011   11.8418   -2.2403 C   0  0  0  0  0  0  0  0  0  0  0  0
   24.0832   12.7598   -2.0764 O   0  0  0  0  0  0  0  0  0  0  0  0
   24.4188   12.8588   -0.7561 C   0  0  0  0  0  0  0  0  0  0  0  0
   25.1122   11.8264   -0.1304 C   0  0  0  0  0  0  0  0  0  0  0  0
   25.3786   11.9173    1.2271 C   0  0  0  0  0  0  0  0  0  0  0  0
   24.8677   12.9906    1.9548 C   0  0  0  0  0  0  0  0  0  0  0  0
   24.1643   14.0359    1.3160 C   0  0  0  0  0  0  0  0  0  0  0  0
   24.0675   14.0267   -0.0771 C   0  0  0  0  0  0  0  0  0  0  0  0
   23.5628   15.2274   -0.8484 C   0  0  0  0  0  0  0  0  0  0  0  0
   23.5815   16.5182   -0.0251 C   0  0  0  0  0  0  0  0  0  0  0  0
   22.8539   16.2975    1.2864 C   0  0  0  0  0  0  0  0  0  0  0  0
   23.5178   15.1638    2.1028 C   0  0  2  0  0  0  0  0  0  0  0  0
   24.5815   15.8323    2.8109 O   0  0  0  0  0  0  0  0  0  0  0  0
   22.5080   14.6237    3.1476 C   0  0  0  0  0  0  0  0  0  0  0  0
   21.1574   14.2376    2.7500 N   0  0  0  0  0  0  0  0  0  0  0  0
   20.5932   13.8308    1.3639 C   0  0  0  0  0  0  0  0  0  0  0  0
   21.1034   13.8165    0.3147 O   0  0  0  0  0  0  0  0  0  0  0  0
   19.1366   13.4094    1.5018 C   0  0  0  0  0  0  0  0  0  0  0  0
   18.2324   14.3427    2.2895 C   0  0  0  0  0  0  0  0  0  0  0  0
   16.7479   14.1607    1.9847 C   0  0  2  0  0  0  0  0  0  0  0  0
   16.1842   12.8103    2.3642 C   0  0  0  0  0  0  0  0  0  0  0  0
   15.0414   12.6378    1.3950 C   0  0  0  0  0  0  0  0  0  0  0  0
   15.5910   13.2888    0.1388 C   0  0  2  0  0  0  0  0  0  0  0  0
   16.3450   12.3179   -0.7952 C   0  0  0  0  0  0  0  0  0  0  0  0
   17.2926   11.4867   -0.1053 O   0  0  0  0  0  0  0  0  0  0  0  0
   17.3227   10.3066   -0.9050 C   0  0  0  0  0  0  0  0  0  0  0  0
   15.8802   10.1433   -1.3012 C   0  0  0  0  0  0  0  0  0  0  0  0
   15.4172   11.4817   -1.5088 O   0  0  0  0  0  0  0  0  0  0  0  0
   16.4723   14.3425    0.5940 O   0  0  0  0  0  0  0  0  0  0  0  0
  1  2  1  0
  2  3  1  0
  3  4  2  0
  4  5  1  0
  5  6  2  0
  6  7  1  0
  7  8  2  0
  8  9  1  0
  9 10  1  0
 10 11  1  0
 11 12  1  0
 12 13  1  1
 12 14  1  0
 14 15  1  0
 15 16  1  0
 16 17  2  0
 16 18  1  0
 18 19  1  0
 20 19  1  6
 20 21  1  0
 21 22  1  0
 22 23  1  0
 23 24  1  1
 24 25  1  0
 25 26  1  0
 26 27  1  0
 27 28  1  0
 23 29  1  0
  8  3  1  0
 29 20  1  0
 12  7  1  0
 28 24  1  0
M  END
>  <energy_score>  (440) 
-28.679124

>  <inchikey>  (440) 
None

>  <smiles>  (440) 
None

>  <ref_pdb>  (440) 
A0239a

>  <alias>  (440) 
None

>  <HIPPO Pose ID>  (440) 
498084

>  <name>  (440) 
P498084

>  <HIPPO Compound ID>  (440) 
290388

>  <ref_mols>  (440) 
A0239a,A0608a

>  <distance_score>  (440) 
1.682902

>  <inspiration_score>  (440) 
None

$$$$
P498085
     RDKit          3D

 31 33  0  0  0  0  0  0  0  0999 V2000
   28.4394   12.3888    2.8083 C   0  0  0  0  0  0  0  0  0  0  0  0
   27.1799   13.0179    3.0191 O   0  0  0  0  0  0  0  0  0  0  0  0
   26.2444   12.8696    2.0258 C   0  0  0  0  0  0  0  0  0  0  0  0
   26.3424   11.9058    1.0202 C   0  0  0  0  0  0  0  0  0  0  0  0
   25.4090   11.8688   -0.0064 C   0  0  0  0  0  0  0  0  0  0  0  0
   24.3462   12.7660   -0.0096 C   0  0  0  0  0  0  0  0  0  0  0  0
   24.1762   13.7022    1.0319 C   0  0  0  0  0  0  0  0  0  0  0  0
   25.1566   13.7710    2.0475 C   0  0  0  0  0  0  0  0  0  0  0  0
   25.0444   14.7599    3.1931 C   0  0  0  0  0  0  0  0  0  0  0  0
   24.0244   15.8781    2.9738 C   0  0  0  0  0  0  0  0  0  0  0  0
   22.7351   15.2919    2.4200 C   0  0  0  0  0  0  0  0  0  0  0  0
   22.9859   14.6673    1.0342 C   0  0  1  0  0  0  0  0  0  0  0  0
   23.3348   15.7739    0.1771 O   0  0  0  0  0  0  0  0  0  0  0  0
   21.7020   13.9924    0.4632 C   0  0  0  0  0  0  0  0  0  0  0  0
   20.4437   14.4843    0.9776 N   0  0  0  0  0  0  0  0  0  0  0  0
   19.5894   14.0001    2.1732 C   0  0  0  0  0  0  0  0  0  0  0  0
   19.8057   13.1810    2.9727 O   0  0  0  0  0  0  0  0  0  0  0  0
   18.2936   14.7757    2.1353 C   0  0  2  0  0  0  0  0  0  0  0  0
   17.4503   14.5742    3.3907 C   0  0  0  0  0  0  0  0  0  0  0  0
   16.0834   14.3826    2.9843 O   0  0  0  0  0  0  0  0  0  0  0  0
   16.0399   14.6771    1.5870 C   0  0  2  0  0  0  0  0  0  0  0  0
   14.8214   14.0545    0.9441 C   0  0  0  0  0  0  0  0  0  0  0  0
   14.7262   12.5316    1.0079 C   0  0  0  0  0  0  0  0  0  0  0  0
   13.3683   12.0913    0.5028 C   0  0  0  0  0  0  0  0  0  0  0  0
   12.3400   12.7347    0.6654 O   0  0  0  0  0  0  0  0  0  0  0  0
   13.4698   10.9078   -0.1530 O   0  0  0  0  0  0  0  0  0  0  0  0
   12.3335   10.3552   -0.8701 C   0  0  0  0  0  0  0  0  0  0  0  0
   12.8352    9.0149   -1.4286 C   0  0  0  0  0  0  0  0  0  0  0  0
   11.1329   10.0902    0.0462 C   0  0  0  0  0  0  0  0  0  0  0  0
   11.9519   11.2641   -2.0447 C   0  0  0  0  0  0  0  0  0  0  0  0
   17.3844   14.2504    1.0464 C   0  0  0  0  0  0  0  0  0  0  0  0
  1  2  1  0
  2  3  1  0
  3  4  2  0
  4  5  1  0
  5  6  2  0
  6  7  1  0
  7  8  2  0
  8  9  1  0
  9 10  1  0
 10 11  1  0
 11 12  1  0
 12 13  1  6
 12 14  1  0
 14 15  1  0
 15 16  1  0
 16 17  2  0
 18 16  1  1
 18 19  1  0
 19 20  1  0
 20 21  1  0
 21 22  1  6
 22 23  1  0
 23 24  1  0
 24 25  2  0
 24 26  1  0
 26 27  1  0
 27 28  1  0
 27 29  1  0
 27 30  1  0
 21 31  1  0
  8  3  1  0
 31 18  1  0
 12  7  1  0
M  END
>  <energy_score>  (441) 
-28.761253

>  <inchikey>  (441) 
None

>  <smiles>  (441) 
None

>  <ref_pdb>  (441) 
A0239a

>  <alias>  (441) 
None

>  <HIPPO Pose ID>  (441) 
498085

>  <name>  (441) 
P498085

>  <HIPPO Compound ID>  (441) 
290391

>  <ref_mols>  (441) 
A0239a,A0608a

>  <distance_score>  (441) 
1.859221

>  <inspiration_score>  (441) 
None

$$$$
P498086
     RDKit          3D

 32 34  0  0  0  0  0  0  0  0999 V2000
   26.5784   10.4335   -1.1626 C   0  0  0  0  0  0  0  0  0  0  0  0
   25.5324   11.3952   -1.1229 O   0  0  0  0  0  0  0  0  0  0  0  0
   25.3756   12.1100    0.0393 C   0  0  0  0  0  0  0  0  0  0  0  0
   26.1692   11.9482    1.1753 C   0  0  0  0  0  0  0  0  0  0  0  0
   25.9290   12.7150    2.3115 C   0  0  0  0  0  0  0  0  0  0  0  0
   24.8821   13.6341    2.3306 C   0  0  0  0  0  0  0  0  0  0  0  0
   24.0357   13.7964    1.2184 C   0  0  0  0  0  0  0  0  0  0  0  0
   24.3215   13.0537    0.0453 C   0  0  0  0  0  0  0  0  0  0  0  0
   23.4825   13.2118   -1.2039 C   0  0  0  0  0  0  0  0  0  0  0  0
   22.6156   14.4635   -1.1966 C   0  0  0  0  0  0  0  0  0  0  0  0
   21.8623   14.5476    0.1201 C   0  0  0  0  0  0  0  0  0  0  0  0
   22.8374   14.7462    1.2995 C   0  0  2  0  0  0  0  0  0  0  0  0
   23.3615   16.0844    1.2067 O   0  0  0  0  0  0  0  0  0  0  0  0
   22.0921   14.6193    2.6628 C   0  0  0  0  0  0  0  0  0  0  0  0
   20.6713   14.9115    2.6155 N   0  0  0  0  0  0  0  0  0  0  0  0
   19.5401   14.1184    2.9721 C   0  0  0  0  0  0  0  0  0  0  0  0
   19.4665   12.9772    3.3287 O   0  0  0  0  0  0  0  0  0  0  0  0
   18.1838   14.8570    2.7535 C   0  0  2  0  0  0  0  0  0  0  0  0
   17.7018   14.5688    1.3265 C   0  0  0  0  0  0  0  0  0  0  0  0
   16.1761   14.6760    1.2004 C   0  0  1  0  0  0  0  0  0  0  0  0
   15.6764   14.2854   -0.1802 C   0  0  0  0  0  0  0  0  0  0  0  0
   15.5221   12.7894   -0.0668 C   0  0  0  0  0  0  0  0  0  0  0  0
   15.0826   12.6118    1.3696 C   0  0  0  0  0  0  0  0  0  0  0  0
   15.5430   13.7567    2.1115 O   0  0  0  0  0  0  0  0  0  0  0  0
   18.1020   16.2692    3.1064 N   0  0  0  0  0  0  0  0  0  0  0  0
   18.7530   17.3896    2.5771 C   0  0  0  0  0  0  0  0  0  0  0  0
   19.6039   17.4764    1.7519 O   0  0  0  0  0  0  0  0  0  0  0  0
   18.2431   18.4419    3.2640 O   0  0  0  0  0  0  0  0  0  0  0  0
   18.7470   19.7907    3.0621 C   0  0  0  0  0  0  0  0  0  0  0  0
   17.9257   20.6588    4.0275 C   0  0  0  0  0  0  0  0  0  0  0  0
   18.4934   20.2726    1.6301 C   0  0  0  0  0  0  0  0  0  0  0  0
   20.2263   19.8909    3.4513 C   0  0  0  0  0  0  0  0  0  0  0  0
  1  2  1  0
  2  3  1  0
  3  4  2  0
  4  5  1  0
  5  6  2  0
  6  7  1  0
  7  8  2  0
  8  9  1  0
  9 10  1  0
 10 11  1  0
 11 12  1  0
 12 13  1  6
 12 14  1  0
 14 15  1  0
 15 16  1  0
 16 17  2  0
 16 18  1  0
 18 19  1  6
 20 19  1  6
 20 21  1  0
 21 22  1  0
 22 23  1  0
 23 24  1  0
 18 25  1  0
 25 26  1  0
 26 27  2  0
 26 28  1  0
 28 29  1  0
 29 30  1  0
 29 31  1  0
 29 32  1  0
  8  3  1  0
 24 20  1  0
 12  7  1  0
M  END
>  <energy_score>  (442) 
-65.004539

>  <inchikey>  (442) 
None

>  <smiles>  (442) 
None

>  <ref_pdb>  (442) 
A0239a

>  <alias>  (442) 
None

>  <HIPPO Pose ID>  (442) 
498086

>  <name>  (442) 
P498086

>  <HIPPO Compound ID>  (442) 
290398

>  <ref_mols>  (442) 
A0239a,A0608a

>  <distance_score>  (442) 
1.954962

>  <inspiration_score>  (442) 
None

$$$$
P498087
     RDKit          3D

 32 35  0  0  0  0  0  0  0  0999 V2000
   26.8505   10.5751   -1.7386 C   0  0  0  0  0  0  0  0  0  0  0  0
   26.8904   10.7857   -0.3333 O   0  0  0  0  0  0  0  0  0  0  0  0
   26.1646   11.8429    0.1445 C   0  0  0  0  0  0  0  0  0  0  0  0
   26.0092   11.8711    1.5267 C   0  0  0  0  0  0  0  0  0  0  0  0
   25.2463   12.8714    2.1295 C   0  0  0  0  0  0  0  0  0  0  0  0
   24.6230   13.8757    1.3593 C   0  0  0  0  0  0  0  0  0  0  0  0
   24.8686   13.9063   -0.0228 C   0  0  0  0  0  0  0  0  0  0  0  0
   25.6059   12.8660   -0.6227 C   0  0  0  0  0  0  0  0  0  0  0  0
   24.3478   15.0321   -0.8890 C   0  0  0  0  0  0  0  0  0  0  0  0
   23.8983   16.2549   -0.0783 C   0  0  0  0  0  0  0  0  0  0  0  0
   22.9411   15.7872    1.0053 C   0  0  0  0  0  0  0  0  0  0  0  0
   23.6623   14.8750    2.0171 C   0  0  2  0  0  0  0  0  0  0  0  0
   24.4196   15.7841    2.8342 O   0  0  0  0  0  0  0  0  0  0  0  0
   22.6860   14.0780    2.9361 C   0  0  0  0  0  0  0  0  0  0  0  0
   21.2961   14.4505    2.9191 N   0  0  0  0  0  0  0  0  0  0  0  0
   20.2341   14.3048    1.8110 C   0  0  0  0  0  0  0  0  0  0  0  0
   20.2980   13.7919    0.7686 O   0  0  0  0  0  0  0  0  0  0  0  0
   18.9659   15.0696    2.2641 C   0  0  2  0  0  0  0  0  0  0  0  0
   17.8625   14.8823    1.2097 C   0  0  0  0  0  0  0  0  0  0  0  0
   17.1823   13.5480    1.1058 C   0  0  0  0  0  0  0  0  0  0  0  0
   15.9224   13.3561    1.6805 C   0  0  0  0  0  0  0  0  0  0  0  0
   15.2051   12.1990    1.3970 C   0  0  0  0  0  0  0  0  0  0  0  0
   15.7610   11.2019    0.5958 C   0  0  0  0  0  0  0  0  0  0  0  0
   17.0256   11.3736    0.0525 C   0  0  0  0  0  0  0  0  0  0  0  0
   17.7707   10.0767   -1.1012 Br  0  0  0  0  0  0  0  0  0  0  0  0
   17.7196   12.5486    0.2832 C   0  0  0  0  0  0  0  0  0  0  0  0
   19.3456   16.5661    2.3999 C   0  0  0  0  0  0  0  0  0  0  0  0
   18.2489   17.6309    2.5655 C   0  0  2  0  0  0  0  0  0  0  0  0
   17.1425   17.3704    3.5733 C   0  0  0  0  0  0  0  0  0  0  0  0
   16.0693   18.3197    3.0922 C   0  0  0  0  0  0  0  0  0  0  0  0
   16.2355   18.2871    1.5871 C   0  0  0  0  0  0  0  0  0  0  0  0
   17.5896   17.8943    1.3181 O   0  0  0  0  0  0  0  0  0  0  0  0
  1  2  1  0
  2  3  1  0
  3  4  2  0
  4  5  1  0
  5  6  2  0
  6  7  1  0
  7  8  2  0
  7  9  1  0
  9 10  1  0
 10 11  1  0
 11 12  1  0
 12 13  1  1
 12 14  1  0
 14 15  1  0
 15 16  1  0
 16 17  2  0
 16 18  1  0
 18 19  1  6
 19 20  1  0
 20 21  2  0
 21 22  1  0
 22 23  2  0
 23 24  1  0
 24 25  1  0
 24 26  2  0
 18 27  1  0
 28 27  1  6
 28 29  1  0
 29 30  1  0
 30 31  1  0
 31 32  1  0
  8  3  1  0
 26 20  1  0
 32 28  1  0
 12  6  1  0
M  END
>  <energy_score>  (443) 
-17.17923

>  <inchikey>  (443) 
None

>  <smiles>  (443) 
None

>  <ref_pdb>  (443) 
A0239a

>  <alias>  (443) 
None

>  <HIPPO Pose ID>  (443) 
498087

>  <name>  (443) 
P498087

>  <HIPPO Compound ID>  (443) 
290399

>  <ref_mols>  (443) 
A0239a,A0608a

>  <distance_score>  (443) 
1.762664

>  <inspiration_score>  (443) 
None

$$$$
P498088
     RDKit          3D

 32 35  0  0  0  0  0  0  0  0999 V2000
   25.5305   10.2047   -1.9816 C   0  0  0  0  0  0  0  0  0  0  0  0
   25.9154   10.5604   -0.6589 O   0  0  0  0  0  0  0  0  0  0  0  0
   25.3830   11.7165   -0.1597 C   0  0  0  0  0  0  0  0  0  0  0  0
   25.4805   11.8658    1.2188 C   0  0  0  0  0  0  0  0  0  0  0  0
   24.9253   12.9769    1.8570 C   0  0  0  0  0  0  0  0  0  0  0  0
   24.2905   13.9946    1.1197 C   0  0  0  0  0  0  0  0  0  0  0  0
   24.3014   13.8981   -0.2877 C   0  0  0  0  0  0  0  0  0  0  0  0
   24.8022   12.7373   -0.9068 C   0  0  0  0  0  0  0  0  0  0  0  0
   23.7775   15.0050   -1.1745 C   0  0  0  0  0  0  0  0  0  0  0  0
   23.6786   16.3498   -0.4558 C   0  0  0  0  0  0  0  0  0  0  0  0
   22.9153   16.1477    0.8363 C   0  0  0  0  0  0  0  0  0  0  0  0
   23.6873   15.2214    1.8102 C   0  0  2  0  0  0  0  0  0  0  0  0
   24.7745   16.0398    2.2828 O   0  0  0  0  0  0  0  0  0  0  0  0
   22.7831   14.8801    3.0414 C   0  0  0  0  0  0  0  0  0  0  0  0
   21.3724   15.1591    2.8400 N   0  0  0  0  0  0  0  0  0  0  0  0
   20.1349   14.2686    3.0604 C   0  0  0  0  0  0  0  0  0  0  0  0
   20.0568   13.1485    3.3643 O   0  0  0  0  0  0  0  0  0  0  0  0
   18.8923   15.0892    2.6961 C   0  0  2  0  0  0  0  0  0  0  0  0
   17.6138   14.2710    2.9893 C   0  0  0  0  0  0  0  0  0  0  0  0
   17.0957   13.2757    1.9796 C   0  0  0  0  0  0  0  0  0  0  0  0
   15.7060   13.1143    1.8673 C   0  0  0  0  0  0  0  0  0  0  0  0
   15.1663   12.1707    0.9967 C   0  0  0  0  0  0  0  0  0  0  0  0
   16.0073   11.3670    0.2333 C   0  0  0  0  0  0  0  0  0  0  0  0
   17.3851   11.5156    0.3364 C   0  0  0  0  0  0  0  0  0  0  0  0
   18.5143   10.4238   -0.7173 Br  0  0  0  0  0  0  0  0  0  0  0  0
   17.9306   12.4607    1.2014 C   0  0  0  0  0  0  0  0  0  0  0  0
   18.9314   15.6184    1.2588 C   0  0  0  0  0  0  0  0  0  0  0  0
   19.1217   17.1360    1.1668 C   0  0  1  0  0  0  0  0  0  0  0  0
   19.0256   17.6685   -0.2548 C   0  0  0  0  0  0  0  0  0  0  0  0
   18.5918   19.0924   -0.0136 C   0  0  0  0  0  0  0  0  0  0  0  0
   17.6382   18.9352    1.1515 C   0  0  0  0  0  0  0  0  0  0  0  0
   18.0980   17.8111    1.9201 O   0  0  0  0  0  0  0  0  0  0  0  0
  1  2  1  0
  2  3  1  0
  3  4  2  0
  4  5  1  0
  5  6  2  0
  6  7  1  0
  7  8  2  0
  7  9  1  0
  9 10  1  0
 10 11  1  0
 11 12  1  0
 12 13  1  1
 12 14  1  0
 14 15  1  0
 15 16  1  0
 16 17  2  0
 16 18  1  0
 18 19  1  6
 19 20  1  0
 20 21  2  0
 21 22  1  0
 22 23  2  0
 23 24  1  0
 24 25  1  0
 24 26  2  0
 18 27  1  0
 28 27  1  6
 28 29  1  0
 29 30  1  0
 30 31  1  0
 31 32  1  0
  8  3  1  0
 26 20  1  0
 32 28  1  0
 12  6  1  0
M  END
>  <energy_score>  (444) 
-37.249055

>  <inchikey>  (444) 
None

>  <smiles>  (444) 
None

>  <ref_pdb>  (444) 
A0239a

>  <alias>  (444) 
None

>  <HIPPO Pose ID>  (444) 
498088

>  <name>  (444) 
P498088

>  <HIPPO Compound ID>  (444) 
290399

>  <ref_mols>  (444) 
A0239a,A0608a

>  <distance_score>  (444) 
1.845616

>  <inspiration_score>  (444) 
None

$$$$
P498089
     RDKit          3D

 32 35  0  0  0  0  0  0  0  0999 V2000
   12.8590   13.9323    0.0091 C   0  0  0  0  0  0  0  0  0  0  0  0
   13.8757   14.4175    0.8805 O   0  0  0  0  0  0  0  0  0  0  0  0
   15.0169   13.6570    0.9611 C   0  0  0  0  0  0  0  0  0  0  0  0
   15.0579   12.2928    0.6718 C   0  0  0  0  0  0  0  0  0  0  0  0
   16.2455   11.5840    0.8171 C   0  0  0  0  0  0  0  0  0  0  0  0
   17.3904   12.2232    1.2804 C   0  0  0  0  0  0  0  0  0  0  0  0
   17.3835   13.5951    1.5890 C   0  0  0  0  0  0  0  0  0  0  0  0
   16.1830   14.3223    1.4050 C   0  0  0  0  0  0  0  0  0  0  0  0
   16.1092   15.8010    1.7171 C   0  0  0  0  0  0  0  0  0  0  0  0
   17.4753   16.4652    1.8306 C   0  0  0  0  0  0  0  0  0  0  0  0
   18.3794   15.6244    2.7162 C   0  0  0  0  0  0  0  0  0  0  0  0
   18.6675   14.2417    2.1052 C   0  0  1  0  0  0  0  0  0  0  0  0
   19.1579   13.3916    3.1660 O   0  0  0  0  0  0  0  0  0  0  0  0
   19.7552   14.3060    0.9873 C   0  0  0  0  0  0  0  0  0  0  0  0
   21.1111   14.1696    1.4896 N   0  0  0  0  0  0  0  0  0  0  0  0
   21.9823   15.1210    2.1222 C   0  0  0  0  0  0  0  0  0  0  0  0
   21.7859   16.2493    2.4690 O   0  0  0  0  0  0  0  0  0  0  0  0
   23.3441   14.4099    2.4421 C   0  0  2  0  0  0  0  0  0  0  0  0
   24.4789   15.4088    2.5473 C   0  0  0  0  0  0  0  0  0  0  0  0
   25.5997   14.4332    2.5841 C   0  0  2  0  0  0  0  0  0  0  0  0
   26.6093   14.6783    1.6116 O   0  0  0  0  0  0  0  0  0  0  0  0
   26.9141   13.4381    0.9589 C   0  0  0  0  0  0  0  0  0  0  0  0
   26.0162   12.3674    1.5528 C   0  0  0  0  0  0  0  0  0  0  0  0
   24.8791   13.1487    2.2048 C   0  0  2  0  0  0  0  0  0  0  0  0
   23.6070   13.3865    1.3518 N   0  0  0  0  0  0  0  0  0  0  0  0
   23.9487   13.5552   -0.0103 C   0  0  0  0  0  0  0  0  0  0  0  0
   24.2049   14.5457   -0.6315 O   0  0  0  0  0  0  0  0  0  0  0  0
   23.8485   12.3266   -0.5962 O   0  0  0  0  0  0  0  0  0  0  0  0
   23.9588   12.1679   -2.0367 C   0  0  0  0  0  0  0  0  0  0  0  0
   22.8556   12.9445   -2.7660 C   0  0  0  0  0  0  0  0  0  0  0  0
   23.7399   10.6684   -2.2884 C   0  0  0  0  0  0  0  0  0  0  0  0
   25.3553   12.5421   -2.5432 C   0  0  0  0  0  0  0  0  0  0  0  0
  1  2  1  0
  2  3  1  0
  3  4  2  0
  4  5  1  0
  5  6  2  0
  6  7  1  0
  7  8  2  0
  8  9  1  0
  9 10  1  0
 10 11  1  0
 11 12  1  0
 12 13  1  1
 12 14  1  0
 14 15  1  0
 15 16  1  0
 16 17  2  0
 18 16  1  6
 18 19  1  0
 20 19  1  6
 20 21  1  0
 21 22  1  0
 22 23  1  0
 24 23  1  6
 24 25  1  0
 25 26  1  0
 26 27  2  0
 26 28  1  0
 28 29  1  0
 29 30  1  0
 29 31  1  0
 29 32  1  0
  8  3  1  0
 25 18  1  0
 12  7  1  0
 24 20  1  0
M  END
>  <energy_score>  (445) 
-2.096265

>  <inchikey>  (445) 
None

>  <smiles>  (445) 
None

>  <ref_pdb>  (445) 
A0239a

>  <alias>  (445) 
None

>  <HIPPO Pose ID>  (445) 
498089

>  <name>  (445) 
P498089

>  <HIPPO Compound ID>  (445) 
290400

>  <ref_mols>  (445) 
A0239a,A0608a

>  <distance_score>  (445) 
1.805647

>  <inspiration_score>  (445) 
None

$$$$
P498090
     RDKit          3D

 32 35  0  0  0  0  0  0  0  0999 V2000
   15.9156   10.9310   -0.1754 C   0  0  0  0  0  0  0  0  0  0  0  0
   15.0953   11.6619    0.7280 O   0  0  0  0  0  0  0  0  0  0  0  0
   15.5815   12.8575    1.1725 C   0  0  0  0  0  0  0  0  0  0  0  0
   14.6597   13.6492    1.8488 C   0  0  0  0  0  0  0  0  0  0  0  0
   15.0141   14.9189    2.3034 C   0  0  0  0  0  0  0  0  0  0  0  0
   16.3106   15.4136    2.1034 C   0  0  0  0  0  0  0  0  0  0  0  0
   17.2783   14.5926    1.5012 C   0  0  0  0  0  0  0  0  0  0  0  0
   16.8824   13.3269    1.0086 C   0  0  0  0  0  0  0  0  0  0  0  0
   18.7242   15.0501    1.3067 C   0  0  2  0  0  0  0  0  0  0  0  0
   18.9651   15.0275   -0.1123 O   0  0  0  0  0  0  0  0  0  0  0  0
   19.6938   14.0510    2.0075 C   0  0  0  0  0  0  0  0  0  0  0  0
   21.0549   14.0903    1.5311 N   0  0  0  0  0  0  0  0  0  0  0  0
   22.0962   15.0548    1.7360 C   0  0  0  0  0  0  0  0  0  0  0  0
   22.1282   16.0360    2.4196 O   0  0  0  0  0  0  0  0  0  0  0  0
   23.2900   14.7038    0.7793 C   0  0  1  0  0  0  0  0  0  0  0  0
   24.5743   15.5084    1.0556 C   0  0  0  0  0  0  0  0  0  0  0  0
   25.5232   14.3968    0.8951 C   0  0  1  0  0  0  0  0  0  0  0  0
   26.6783   14.3390    1.7070 O   0  0  0  0  0  0  0  0  0  0  0  0
   26.8345   12.9372    2.0421 C   0  0  0  0  0  0  0  0  0  0  0  0
   25.5962   12.2064    1.5195 C   0  0  0  0  0  0  0  0  0  0  0  0
   24.5991   13.3499    1.4418 C   0  0  2  0  0  0  0  0  0  0  0  0
   23.4119   13.1383    0.5965 N   0  0  0  0  0  0  0  0  0  0  0  0
   23.2998   12.7969   -0.7624 C   0  0  0  0  0  0  0  0  0  0  0  0
   24.1390   12.6764   -1.6065 O   0  0  0  0  0  0  0  0  0  0  0  0
   21.9713   12.5783   -0.9784 O   0  0  0  0  0  0  0  0  0  0  0  0
   21.4787   12.1440   -2.2725 C   0  0  0  0  0  0  0  0  0  0  0  0
   22.0567   10.7792   -2.6634 C   0  0  0  0  0  0  0  0  0  0  0  0
   21.7305   13.2073   -3.3458 C   0  0  0  0  0  0  0  0  0  0  0  0
   19.9619   11.9890   -2.0782 C   0  0  0  0  0  0  0  0  0  0  0  0
   19.0018   16.4852    1.8059 C   0  0  0  0  0  0  0  0  0  0  0  0
   17.7812   17.3930    1.7051 C   0  0  0  0  0  0  0  0  0  0  0  0
   16.6420   16.8161    2.5392 C   0  0  0  0  0  0  0  0  0  0  0  0
  1  2  1  0
  2  3  1  0
  3  4  2  0
  4  5  1  0
  5  6  2  0
  6  7  1  0
  7  8  2  0
  7  9  1  0
  9 10  1  6
  9 11  1  0
 11 12  1  0
 12 13  1  0
 13 14  2  0
 15 13  1  1
 15 16  1  0
 17 16  1  1
 17 18  1  0
 18 19  1  0
 19 20  1  0
 21 20  1  6
 21 22  1  0
 22 23  1  0
 23 24  2  0
 23 25  1  0
 25 26  1  0
 26 27  1  0
 26 28  1  0
 26 29  1  0
  9 30  1  0
 30 31  1  0
 31 32  1  0
  8  3  1  0
 22 15  1  0
 32  6  1  0
 21 17  1  0
M  END
>  <energy_score>  (446) 
-8.70178

>  <inchikey>  (446) 
None

>  <smiles>  (446) 
None

>  <ref_pdb>  (446) 
A0239a

>  <alias>  (446) 
None

>  <HIPPO Pose ID>  (446) 
498090

>  <name>  (446) 
P498090

>  <HIPPO Compound ID>  (446) 
290402

>  <ref_mols>  (446) 
A0239a,A0608a

>  <distance_score>  (446) 
1.906524

>  <inspiration_score>  (446) 
None

$$$$
P498091
     RDKit          3D

 25 26  0  0  0  0  0  0  0  0999 V2000
   12.6022   13.1328   21.8355 N   0  0  0  0  0  0  0  0  0  0  0  0
   12.3327   13.7582   20.8845 C   0  0  0  0  0  0  0  0  0  0  0  0
   11.7839   14.5819   19.7490 C   0  0  0  0  0  0  0  0  0  0  0  0
   10.9372   15.7468   20.1489 N   0  0  0  0  0  0  0  0  0  0  0  0
   10.1222   16.3404   19.0664 C   0  0  0  0  0  0  0  0  0  0  0  0
    9.4565   17.6108   19.4431 C   0  0  0  0  0  0  0  0  0  0  0  0
    8.9353   18.6019   19.7496 N   0  0  0  0  0  0  0  0  0  0  0  0
   10.3109   15.5224   21.3821 C   0  0  0  0  0  0  0  0  0  0  0  0
   11.1230   15.4917   22.5300 C   0  0  0  0  0  0  0  0  0  0  0  0
   10.7004   14.8839   23.7053 C   0  0  0  0  0  0  0  0  0  0  0  0
    9.3888   14.4676   23.7856 C   0  0  0  0  0  0  0  0  0  0  0  0
    8.9386   13.7858   24.8949 N   0  0  0  0  0  0  0  0  0  0  0  0
    7.5319   13.2835   25.2540 C   0  0  0  0  0  0  0  0  0  0  0  0
    6.5192   13.4319   24.7089 O   0  0  0  0  0  0  0  0  0  0  0  0
    7.6694   12.4286   26.5010 C   0  0  0  0  0  0  0  0  0  0  0  0
    6.3774   11.7109   26.8952 C   0  0  0  0  0  0  0  0  0  0  0  0
    5.3923   12.5960   27.6771 C   0  0  1  0  0  0  0  0  0  0  0  0
    5.0049   13.9013   26.9803 C   0  0  0  0  0  0  0  0  0  0  0  0
    3.9431   14.6334   27.7770 C   0  0  0  0  0  0  0  0  0  0  0  0
    2.7083   13.7617   27.8779 C   0  0  0  0  0  0  0  0  0  0  0  0
    3.0232   12.3776   28.3909 C   0  0  0  0  0  0  0  0  0  0  0  0
    2.2100   11.7167   29.0292 O   0  0  0  0  0  0  0  0  0  0  0  0
    4.2134   11.8166   28.0234 N   0  0  0  0  0  0  0  0  0  0  0  0
    8.5088   14.6866   22.7237 C   0  0  0  0  0  0  0  0  0  0  0  0
    8.9714   15.1878   21.5160 C   0  0  0  0  0  0  0  0  0  0  0  0
  1  2  3  0
  2  3  1  0
  3  4  1  0
  4  5  1  0
  5  6  1  0
  6  7  3  0
  4  8  1  0
  8  9  2  0
  9 10  1  0
 10 11  2  0
 11 12  1  0
 12 13  1  0
 13 14  2  0
 13 15  1  0
 15 16  1  0
 17 16  1  6
 17 18  1  0
 18 19  1  0
 19 20  1  0
 20 21  1  0
 21 22  2  0
 21 23  1  0
 11 24  1  0
 24 25  2  0
 25  8  1  0
 23 17  1  0
M  END
>  <energy_score>  (447) 
-15.298517

>  <inchikey>  (447) 
None

>  <smiles>  (447) 
None

>  <ref_pdb>  (447) 
A3306a

>  <alias>  (447) 
None

>  <HIPPO Pose ID>  (447) 
498091

>  <name>  (447) 
P498091

>  <HIPPO Compound ID>  (447) 
290433

>  <ref_mols>  (447) 
A3306a,A4320a

>  <distance_score>  (447) 
1.652712

>  <inspiration_score>  (447) 
None

$$$$
P498092
     RDKit          3D

 23 26  0  0  0  0  0  0  0  0999 V2000
   16.3327   15.1720   31.3974 C   0  0  0  0  0  0  0  0  0  0  0  0
   16.3022   14.2407   30.2233 C   0  0  0  0  0  0  0  0  0  0  0  0
   17.1306   14.4709   29.1240 C   0  0  0  0  0  0  0  0  0  0  0  0
   17.0888   13.6208   28.0132 C   0  0  0  0  0  0  0  0  0  0  0  0
   16.2264   12.5101   27.9488 C   0  0  0  0  0  0  0  0  0  0  0  0
   16.1433   11.6034   26.6358 C   0  0  1  0  0  0  0  0  0  0  0  0
   16.0298   10.1260   26.7432 C   0  0  0  0  0  0  0  0  0  0  0  0
   15.1947   10.2818   25.5042 C   0  0  0  0  0  0  0  0  0  0  0  0
   14.7501   11.6859   25.9954 N   0  0  0  0  0  0  0  0  0  0  0  0
   14.2515   12.5092   24.8887 C   0  0  0  0  0  0  0  0  0  0  0  0
   14.8161   13.2410   24.1812 O   0  0  0  0  0  0  0  0  0  0  0  0
   12.7203   12.5375   24.6367 C   0  0  1  0  0  0  0  0  0  0  0  0
   12.3967   13.3578   23.3534 C   0  0  0  0  0  0  0  0  0  0  0  0
   10.9602   13.8584   23.3251 C   0  0  0  0  0  0  0  0  0  0  0  0
   10.0709   12.9299   24.0010 N   0  0  0  0  0  0  0  0  0  0  0  0
    8.6778   13.1938   23.7116 C   0  0  0  0  0  0  0  0  0  0  0  0
    7.8104   12.4434   24.7113 C   0  0  0  0  0  0  0  0  0  0  0  0
    8.3782   11.0859   25.1075 C   0  0  0  0  0  0  0  0  0  0  0  0
    9.4152   10.5254   24.1474 C   0  0  0  0  0  0  0  0  0  0  0  0
   10.5085   11.5435   23.8188 C   0  0  2  0  0  0  0  0  0  0  0  0
   11.7106   11.4163   24.7784 C   0  0  0  0  0  0  0  0  0  0  0  0
   15.4042   12.3036   29.0766 C   0  0  0  0  0  0  0  0  0  0  0  0
   15.4346   13.1498   30.1910 C   0  0  0  0  0  0  0  0  0  0  0  0
  1  2  1  0
  2  3  2  0
  3  4  1  0
  4  5  2  0
  6  5  1  1
  6  7  1  0
  7  8  1  0
  8  9  1  0
  9 10  1  0
 10 11  2  0
 12 10  1  6
 12 13  1  0
 13 14  1  0
 14 15  1  0
 15 16  1  0
 16 17  1  0
 17 18  1  0
 18 19  1  0
 20 19  1  1
 20 21  1  0
  5 22  1  0
 22 23  2  0
 23  2  1  0
  9  6  1  0
 21 12  1  0
 20 15  1  0
M  END
>  <energy_score>  (448) 
-4.057004

>  <inchikey>  (448) 
None

>  <smiles>  (448) 
None

>  <ref_pdb>  (448) 
A0875a

>  <alias>  (448) 
None

>  <HIPPO Pose ID>  (448) 
498092

>  <name>  (448) 
P498092

>  <HIPPO Compound ID>  (448) 
290503

>  <ref_mols>  (448) 
A4715a,A0875a

>  <distance_score>  (448) 
1.674073

>  <inspiration_score>  (448) 
None

$$$$
P498093
     RDKit          3D

 24 27  0  0  0  0  0  0  0  0999 V2000
   21.8735   11.9041   26.4571 C   0  0  0  0  0  0  0  0  0  0  0  0
   20.5062   12.1896   27.0016 C   0  0  0  0  0  0  0  0  0  0  0  0
   19.8790   13.4066   26.7373 C   0  0  0  0  0  0  0  0  0  0  0  0
   18.6042   13.6706   27.2495 C   0  0  0  0  0  0  0  0  0  0  0  0
   17.9075   12.7561   28.0651 C   0  0  0  0  0  0  0  0  0  0  0  0
   16.4970   13.1574   28.6903 C   0  0  2  0  0  0  0  0  0  0  0  0
   15.9307   12.4711   29.9077 C   0  0  0  0  0  0  0  0  0  0  0  0
   15.2596   11.6113   28.8840 C   0  0  0  0  0  0  0  0  0  0  0  0
   15.1843   12.8491   27.9433 N   0  0  0  0  0  0  0  0  0  0  0  0
   14.9382   12.4361   26.4976 C   0  0  0  0  0  0  0  0  0  0  0  0
   15.7025   12.1806   25.6369 O   0  0  0  0  0  0  0  0  0  0  0  0
   13.4053   12.3705   26.3087 C   0  0  1  0  0  0  0  0  0  0  0  0
   12.6318   13.5259   26.9023 C   0  0  0  0  0  0  0  0  0  0  0  0
   11.2486   13.7681   26.4078 C   0  0  0  0  0  0  0  0  0  0  0  0
   10.5749   14.5966   27.0239 O   0  0  0  0  0  0  0  0  0  0  0  0
   10.7573   13.0810   25.3338 N   0  0  0  0  0  0  0  0  0  0  0  0
    9.3960   13.4041   24.9067 C   0  0  0  0  0  0  0  0  0  0  0  0
    8.7355   12.3147   24.0808 C   0  0  0  0  0  0  0  0  0  0  0  0
    9.2426   10.9568   24.5270 C   0  0  0  0  0  0  0  0  0  0  0  0
   10.7541   10.8575   24.2908 C   0  0  0  0  0  0  0  0  0  0  0  0
   11.5198   12.1969   24.4795 C   0  0  2  0  0  0  0  0  0  0  0  0
   13.0139   12.0892   24.8560 C   0  0  0  0  0  0  0  0  0  0  0  0
   18.5801   11.5466   28.3327 C   0  0  0  0  0  0  0  0  0  0  0  0
   19.8513   11.2646   27.8146 C   0  0  0  0  0  0  0  0  0  0  0  0
  1  2  1  0
  2  3  2  0
  3  4  1  0
  4  5  2  0
  6  5  1  6
  6  7  1  0
  7  8  1  0
  8  9  1  0
  9 10  1  0
 10 11  2  0
 12 10  1  6
 12 13  1  0
 13 14  1  0
 14 15  2  0
 14 16  1  0
 16 17  1  0
 17 18  1  0
 18 19  1  0
 19 20  1  0
 21 20  1  1
 21 22  1  0
  5 23  1  0
 23 24  2  0
 24  2  1  0
  9  6  1  0
 22 12  1  0
 21 16  1  0
M  END
>  <energy_score>  (449) 
-10.086147

>  <inchikey>  (449) 
None

>  <smiles>  (449) 
None

>  <ref_pdb>  (449) 
A0875a

>  <alias>  (449) 
None

>  <HIPPO Pose ID>  (449) 
498093

>  <name>  (449) 
P498093

>  <HIPPO Compound ID>  (449) 
290537

>  <ref_mols>  (449) 
A4715a,A0875a

>  <distance_score>  (449) 
1.927294

>  <inspiration_score>  (449) 
None

$$$$
P498094
     RDKit          3D

 24 27  0  0  0  0  0  0  0  0999 V2000
   22.0127   13.0099   26.3206 C   0  0  0  0  0  0  0  0  0  0  0  0
   20.6504   12.6571   26.8370 C   0  0  0  0  0  0  0  0  0  0  0  0
   20.4073   11.4133   27.4148 C   0  0  0  0  0  0  0  0  0  0  0  0
   19.1206   11.0789   27.8548 C   0  0  0  0  0  0  0  0  0  0  0  0
   18.0138   11.9507   27.7295 C   0  0  0  0  0  0  0  0  0  0  0  0
   16.6092   11.5323   28.3643 C   0  0  1  0  0  0  0  0  0  0  0  0
   16.0861   12.2799   29.5646 C   0  0  0  0  0  0  0  0  0  0  0  0
   15.2965   13.0238   28.5363 C   0  0  0  0  0  0  0  0  0  0  0  0
   15.2417   11.7203   27.6764 N   0  0  0  0  0  0  0  0  0  0  0  0
   14.8936   12.0263   26.2176 C   0  0  0  0  0  0  0  0  0  0  0  0
   15.5945   12.2661   25.3012 O   0  0  0  0  0  0  0  0  0  0  0  0
   13.3595   11.9544   26.1439 C   0  0  1  0  0  0  0  0  0  0  0  0
   12.7331   13.2905   26.1890 C   0  0  0  0  0  0  0  0  0  0  0  0
   11.2740   13.4385   26.1794 C   0  0  0  0  0  0  0  0  0  0  0  0
   10.7438   14.3472   26.8121 O   0  0  0  0  0  0  0  0  0  0  0  0
   10.6181   12.5744   25.3468 N   0  0  0  0  0  0  0  0  0  0  0  0
    9.2723   13.0025   24.9817 C   0  0  0  0  0  0  0  0  0  0  0  0
    8.5496   12.0037   24.1151 C   0  0  0  0  0  0  0  0  0  0  0  0
    9.0064   10.6002   24.4520 C   0  0  0  0  0  0  0  0  0  0  0  0
   10.4936   10.4203   24.1649 C   0  0  0  0  0  0  0  0  0  0  0  0
   11.3416   11.6782   24.4508 C   0  0  2  0  0  0  0  0  0  0  0  0
   12.8124   11.3082   24.8918 C   0  0  0  0  0  0  0  0  0  0  0  0
   18.2925   13.1822   27.1094 C   0  0  0  0  0  0  0  0  0  0  0  0
   19.5798   13.5364   26.6796 C   0  0  0  0  0  0  0  0  0  0  0  0
  1  2  1  0
  2  3  2  0
  3  4  1  0
  4  5  2  0
  6  5  1  6
  6  7  1  0
  7  8  1  0
  8  9  1  0
  9 10  1  0
 10 11  2  0
 12 10  1  6
 12 13  1  0
 13 14  1  0
 14 15  2  0
 14 16  1  0
 16 17  1  0
 17 18  1  0
 18 19  1  0
 19 20  1  0
 21 20  1  1
 21 22  1  0
  5 23  1  0
 23 24  2  0
 24  2  1  0
  9  6  1  0
 22 12  1  0
 21 16  1  0
M  END
>  <energy_score>  (450) 
-3.022094

>  <inchikey>  (450) 
None

>  <smiles>  (450) 
None

>  <ref_pdb>  (450) 
A0875a

>  <alias>  (450) 
None

>  <HIPPO Pose ID>  (450) 
498094

>  <name>  (450) 
P498094

>  <HIPPO Compound ID>  (450) 
290537

>  <ref_mols>  (450) 
A4715a,A0875a

>  <distance_score>  (450) 
1.616035

>  <inspiration_score>  (450) 
None

$$$$
P498095
     RDKit          3D

 24 27  0  0  0  0  0  0  0  0999 V2000
   22.0106   11.6103   26.4909 C   0  0  0  0  0  0  0  0  0  0  0  0
   20.6160   11.9858   26.8894 C   0  0  0  0  0  0  0  0  0  0  0  0
   19.7426   11.0340   27.4148 C   0  0  0  0  0  0  0  0  0  0  0  0
   18.4252   11.3803   27.7502 C   0  0  0  0  0  0  0  0  0  0  0  0
   17.9124   12.6806   27.5664 C   0  0  0  0  0  0  0  0  0  0  0  0
   16.4826   13.1829   28.0717 C   0  0  2  0  0  0  0  0  0  0  0  0
   15.9648   12.7432   29.4192 C   0  0  0  0  0  0  0  0  0  0  0  0
   15.2263   11.7308   28.6031 C   0  0  0  0  0  0  0  0  0  0  0  0
   15.1278   12.7728   27.4514 N   0  0  0  0  0  0  0  0  0  0  0  0
   14.8060   12.0999   26.1130 C   0  0  0  0  0  0  0  0  0  0  0  0
   15.5256   11.6691   25.2834 O   0  0  0  0  0  0  0  0  0  0  0  0
   13.2668   12.0125   26.0588 C   0  0  1  0  0  0  0  0  0  0  0  0
   12.5673   13.3280   26.0781 C   0  0  0  0  0  0  0  0  0  0  0  0
   11.1022   13.4661   25.8434 C   0  0  0  0  0  0  0  0  0  0  0  0
   10.4392   14.2560   26.4992 O   0  0  0  0  0  0  0  0  0  0  0  0
   10.6629   12.7419   24.7565 N   0  0  0  0  0  0  0  0  0  0  0  0
    9.3087   12.9570   24.2521 C   0  0  0  0  0  0  0  0  0  0  0  0
    8.4061   11.7933   24.6439 C   0  0  0  0  0  0  0  0  0  0  0  0
    9.0023   10.4422   24.2075 C   0  0  0  0  0  0  0  0  0  0  0  0
   10.4508   10.5254   23.7212 C   0  0  0  0  0  0  0  0  0  0  0  0
   11.1694   11.3929   24.7286 C   0  0  1  0  0  0  0  0  0  0  0  0
   12.7097   11.3032   24.8399 C   0  0  0  0  0  0  0  0  0  0  0  0
   18.8194   13.6080   27.0074 C   0  0  0  0  0  0  0  0  0  0  0  0
   20.1394   13.2779   26.6765 C   0  0  0  0  0  0  0  0  0  0  0  0
  1  2  1  0
  2  3  2  0
  3  4  1  0
  4  5  2  0
  6  5  1  6
  6  7  1  0
  7  8  1  0
  8  9  1  0
  9 10  1  0
 10 11  2  0
 12 10  1  6
 12 13  1  0
 13 14  1  0
 14 15  2  0
 14 16  1  0
 16 17  1  0
 17 18  1  0
 18 19  1  0
 19 20  1  0
 21 20  1  6
 21 22  1  0
  5 23  1  0
 23 24  2  0
 24  2  1  0
  9  6  1  0
 22 12  1  0
 21 16  1  0
M  END
>  <energy_score>  (451) 
-0.462084

>  <inchikey>  (451) 
None

>  <smiles>  (451) 
None

>  <ref_pdb>  (451) 
A0875a

>  <alias>  (451) 
None

>  <HIPPO Pose ID>  (451) 
498095

>  <name>  (451) 
P498095

>  <HIPPO Compound ID>  (451) 
290537

>  <ref_mols>  (451) 
A4715a,A0875a

>  <distance_score>  (451) 
1.647214

>  <inspiration_score>  (451) 
None

$$$$
P498096
     RDKit          3D

 24 27  0  0  0  0  0  0  0  0999 V2000
   17.3699    7.7296   31.0763 C   0  0  0  0  0  0  0  0  0  0  0  0
   17.3380    8.3994   29.7342 C   0  0  0  0  0  0  0  0  0  0  0  0
   17.8544    7.7582   28.6080 C   0  0  0  0  0  0  0  0  0  0  0  0
   17.8329    8.4034   27.3776 C   0  0  0  0  0  0  0  0  0  0  0  0
   17.3006    9.6854   27.2677 C   0  0  0  0  0  0  0  0  0  0  0  0
   16.7895   10.3874   28.3778 C   0  0  0  0  0  0  0  0  0  0  0  0
   16.3561   11.8844   28.1860 C   0  0  2  0  0  0  0  0  0  0  0  0
   15.7963   12.7938   29.2645 C   0  0  2  0  0  0  0  0  0  0  0  0
   14.7289   12.3165   30.2354 C   0  0  0  0  0  0  0  0  0  0  0  0
   15.3062   13.5652   28.0472 C   0  0  0  0  0  0  0  0  0  0  0  0
   15.1117   12.1878   27.3395 N   0  0  0  0  0  0  0  0  0  0  0  0
   14.9516   12.3498   25.8418 C   0  0  0  0  0  0  0  0  0  0  0  0
   15.7627   12.3579   24.9838 O   0  0  0  0  0  0  0  0  0  0  0  0
   13.4858   12.5895   25.3957 C   0  0  2  0  0  0  0  0  0  0  0  0
   12.4990   13.2516   26.3062 C   0  0  0  0  0  0  0  0  0  0  0  0
   11.2365   13.6061   25.5639 C   0  0  0  0  0  0  0  0  0  0  0  0
   10.5727   12.3675   25.2591 N   0  0  0  0  0  0  0  0  0  0  0  0
    9.2413   12.6759   24.7393 C   0  0  0  0  0  0  0  0  0  0  0  0
    8.4600   11.3903   24.7240 C   0  0  0  0  0  0  0  0  0  0  0  0
    9.1914   10.3859   23.8588 C   0  0  0  0  0  0  0  0  0  0  0  0
   10.6461   10.1904   24.2306 C   0  0  0  0  0  0  0  0  0  0  0  0
   11.3898   11.5295   24.3554 C   0  0  2  0  0  0  0  0  0  0  0  0
   12.8537   11.3241   24.9009 C   0  0  0  0  0  0  0  0  0  0  0  0
   16.8331    9.7064   29.6095 C   0  0  0  0  0  0  0  0  0  0  0  0
  1  2  1  0
  2  3  2  0
  3  4  1  0
  4  5  2  0
  5  6  1  0
  7  6  1  1
  7  8  1  0
  8  9  1  1
  8 10  1  0
 10 11  1  0
 11 12  1  0
 12 13  2  0
 14 12  1  1
 14 15  1  0
 15 16  1  0
 16 17  1  0
 17 18  1  0
 18 19  1  0
 19 20  1  0
 20 21  1  0
 22 21  1  1
 22 23  1  0
  6 24  2  0
 24  2  1  0
 11  7  1  0
 23 14  1  0
 22 17  1  0
M  END
>  <energy_score>  (452) 
-37.924716

>  <inchikey>  (452) 
None

>  <smiles>  (452) 
None

>  <ref_pdb>  (452) 
A0875a

>  <alias>  (452) 
None

>  <HIPPO Pose ID>  (452) 
498096

>  <name>  (452) 
P498096

>  <HIPPO Compound ID>  (452) 
290543

>  <ref_mols>  (452) 
A4715a,A0875a

>  <distance_score>  (452) 
1.804855

>  <inspiration_score>  (452) 
None

$$$$
P498097
     RDKit          3D

 24 27  0  0  0  0  0  0  0  0999 V2000
   14.7969   12.3950   32.7557 C   0  0  0  0  0  0  0  0  0  0  0  0
   15.0278   12.9378   31.3774 C   0  0  0  0  0  0  0  0  0  0  0  0
   15.4049   14.2642   31.1872 C   0  0  0  0  0  0  0  0  0  0  0  0
   15.6314   14.7441   29.9027 C   0  0  0  0  0  0  0  0  0  0  0  0
   15.5191   13.8912   28.8006 C   0  0  0  0  0  0  0  0  0  0  0  0
   15.1892   12.5306   28.9371 C   0  0  0  0  0  0  0  0  0  0  0  0
   15.2297   11.4561   27.7590 C   0  0  2  0  0  0  0  0  0  0  0  0
   16.4924   11.2887   26.9473 C   0  0  1  0  0  0  0  0  0  0  0  0
   16.8734    9.8682   26.5669 C   0  0  0  0  0  0  0  0  0  0  0  0
   15.7525   12.1335   25.9527 C   0  0  0  0  0  0  0  0  0  0  0  0
   14.3911   11.5648   26.4575 N   0  0  0  0  0  0  0  0  0  0  0  0
   13.2215   12.4981   26.0939 C   0  0  0  0  0  0  0  0  0  0  0  0
   12.7476   13.3974   26.6948 O   0  0  0  0  0  0  0  0  0  0  0  0
   12.7652   12.0939   24.6833 C   0  0  2  0  0  0  0  0  0  0  0  0
   12.5291   13.2121   23.6681 C   0  0  0  0  0  0  0  0  0  0  0  0
   11.1294   13.8286   23.6437 C   0  0  0  0  0  0  0  0  0  0  0  0
   10.0944   12.8991   24.0377 N   0  0  0  0  0  0  0  0  0  0  0  0
    8.7493   13.3007   23.6970 C   0  0  0  0  0  0  0  0  0  0  0  0
    7.7745   12.5755   24.6218 C   0  0  0  0  0  0  0  0  0  0  0  0
    8.2414   11.1843   25.0389 C   0  0  0  0  0  0  0  0  0  0  0  0
    9.2549   10.5628   24.0891 C   0  0  0  0  0  0  0  0  0  0  0  0
   10.4203   11.5066   23.7879 C   0  0  2  0  0  0  0  0  0  0  0  0
   11.5146   11.2356   24.7989 C   0  0  0  0  0  0  0  0  0  0  0  0
   14.9303   12.0955   30.2603 C   0  0  0  0  0  0  0  0  0  0  0  0
  1  2  1  0
  2  3  2  0
  3  4  1  0
  4  5  2  0
  5  6  1  0
  7  6  1  6
  7  8  1  0
  8  9  1  6
  8 10  1  0
 10 11  1  0
 11 12  1  0
 12 13  2  0
 14 12  1  1
 14 15  1  0
 15 16  1  0
 16 17  1  0
 17 18  1  0
 18 19  1  0
 19 20  1  0
 20 21  1  0
 22 21  1  1
 22 23  1  0
  6 24  2  0
 24  2  1  0
 11  7  1  0
 23 14  1  0
 22 17  1  0
M  END
>  <energy_score>  (453) 
-11.029225

>  <inchikey>  (453) 
None

>  <smiles>  (453) 
None

>  <ref_pdb>  (453) 
A0875a

>  <alias>  (453) 
None

>  <HIPPO Pose ID>  (453) 
498097

>  <name>  (453) 
P498097

>  <HIPPO Compound ID>  (453) 
290543

>  <ref_mols>  (453) 
A4715a,A0875a

>  <distance_score>  (453) 
1.888807

>  <inspiration_score>  (453) 
None

$$$$
P498098
     RDKit          3D

 24 27  0  0  0  0  0  0  0  0999 V2000
   19.5375   16.0223   29.0268 C   0  0  0  0  0  0  0  0  0  0  0  0
   18.2632   15.2316   29.0075 C   0  0  0  0  0  0  0  0  0  0  0  0
   17.1684   15.6319   29.7729 C   0  0  0  0  0  0  0  0  0  0  0  0
   15.9776   14.9166   29.7098 C   0  0  0  0  0  0  0  0  0  0  0  0
   15.8684   13.8067   28.8694 C   0  0  0  0  0  0  0  0  0  0  0  0
   16.9438   13.3601   28.0773 C   0  0  0  0  0  0  0  0  0  0  0  0
   16.8601   12.0863   27.1233 C   0  0  1  0  0  0  0  0  0  0  0  0
   16.8109   10.6951   27.7409 C   0  0  1  0  0  0  0  0  0  0  0  0
   16.0665   10.4600   29.0457 C   0  0  0  0  0  0  0  0  0  0  0  0
   16.0927   10.3917   26.4500 C   0  0  0  0  0  0  0  0  0  0  0  0
   15.4963   11.8226   26.4794 N   0  0  0  0  0  0  0  0  0  0  0  0
   14.9550   12.2194   25.1381 C   0  0  0  0  0  0  0  0  0  0  0  0
   15.4771   12.7554   24.2421 O   0  0  0  0  0  0  0  0  0  0  0  0
   13.4459   11.9405   25.0212 C   0  0  1  0  0  0  0  0  0  0  0  0
   12.8234   12.5750   26.2339 C   0  0  0  0  0  0  0  0  0  0  0  0
   11.3671   12.9581   26.0971 C   0  0  0  0  0  0  0  0  0  0  0  0
   10.8273   13.4216   24.8393 N   0  0  0  0  0  0  0  0  0  0  0  0
    9.3675   13.5262   24.8992 C   0  0  0  0  0  0  0  0  0  0  0  0
    8.6004   12.2092   24.9573 C   0  0  0  0  0  0  0  0  0  0  0  0
    9.0839   11.2774   23.8792 C   0  0  0  0  0  0  0  0  0  0  0  0
   10.5934   11.1768   23.7846 C   0  0  0  0  0  0  0  0  0  0  0  0
   11.2470   12.5729   23.7417 C   0  0  2  0  0  0  0  0  0  0  0  0
   12.7717   12.6098   23.7959 C   0  0  0  0  0  0  0  0  0  0  0  0
   18.1348   14.1135   28.1689 C   0  0  0  0  0  0  0  0  0  0  0  0
  1  2  1  0
  2  3  2  0
  3  4  1  0
  4  5  2  0
  5  6  1  0
  7  6  1  1
  7  8  1  0
  8  9  1  1
  8 10  1  0
 10 11  1  0
 11 12  1  0
 12 13  2  0
 14 12  1  6
 14 15  1  0
 15 16  1  0
 16 17  1  0
 17 18  1  0
 18 19  1  0
 19 20  1  0
 20 21  1  0
 22 21  1  1
 22 23  1  0
  6 24  2  0
 24  2  1  0
 11  7  1  0
 23 14  1  0
 22 17  1  0
M  END
>  <energy_score>  (454) 
-16.580824

>  <inchikey>  (454) 
None

>  <smiles>  (454) 
None

>  <ref_pdb>  (454) 
A0875a

>  <alias>  (454) 
None

>  <HIPPO Pose ID>  (454) 
498098

>  <name>  (454) 
P498098

>  <HIPPO Compound ID>  (454) 
290543

>  <ref_mols>  (454) 
A4715a,A0875a

>  <distance_score>  (454) 
1.511397

>  <inspiration_score>  (454) 
None

$$$$
P498099
     RDKit          3D

 24 27  0  0  0  0  0  0  0  0999 V2000
   12.8008   11.0028   32.9913 C   0  0  0  0  0  0  0  0  0  0  0  0
   13.8120   10.5206   31.9961 C   0  0  0  0  0  0  0  0  0  0  0  0
   14.3903    9.2602   32.1497 C   0  0  0  0  0  0  0  0  0  0  0  0
   15.3371    8.8196   31.2394 C   0  0  0  0  0  0  0  0  0  0  0  0
   15.7020    9.6406   30.1725 C   0  0  0  0  0  0  0  0  0  0  0  0
   15.1358   10.9192   29.9526 C   0  0  0  0  0  0  0  0  0  0  0  0
   15.6487   11.7875   28.7305 C   0  0  2  0  0  0  0  0  0  0  0  0
   16.2067   13.1800   28.9108 C   0  0  2  0  0  0  0  0  0  0  0  0
   15.5177   14.2050   29.7950 C   0  0  0  0  0  0  0  0  0  0  0  0
   15.8994   13.2807   27.4344 C   0  0  0  0  0  0  0  0  0  0  0  0
   14.6880   12.3110   27.6472 N   0  0  0  0  0  0  0  0  0  0  0  0
   14.2379   11.6880   26.3400 C   0  0  0  0  0  0  0  0  0  0  0  0
   14.5828   10.6865   25.8108 O   0  0  0  0  0  0  0  0  0  0  0  0
   13.1443   12.5339   25.5600 C   0  0  2  0  0  0  0  0  0  0  0  0
   12.0978   13.3908   26.2543 C   0  0  0  0  0  0  0  0  0  0  0  0
   10.8417   13.8250   25.4218 C   0  0  0  0  0  0  0  0  0  0  0  0
   10.4157   12.8797   24.4130 N   0  0  0  0  0  0  0  0  0  0  0  0
    9.0067   12.9801   24.0437 C   0  0  0  0  0  0  0  0  0  0  0  0
    8.1722   11.8957   24.7166 C   0  0  0  0  0  0  0  0  0  0  0  0
    8.7406   10.4948   24.4481 C   0  0  0  0  0  0  0  0  0  0  0  0
   10.1820   10.4867   23.9781 C   0  0  0  0  0  0  0  0  0  0  0  0
   10.8683   11.5643   24.7700 C   0  0  1  0  0  0  0  0  0  0  0  0
   12.3721   11.5828   24.6392 C   0  0  0  0  0  0  0  0  0  0  0  0
   14.1828   11.3285   30.9023 C   0  0  0  0  0  0  0  0  0  0  0  0
  1  2  1  0
  2  3  2  0
  3  4  1  0
  4  5  2  0
  5  6  1  0
  7  6  1  1
  7  8  1  0
  8  9  1  1
  8 10  1  0
 10 11  1  0
 11 12  1  0
 12 13  2  0
 14 12  1  1
 14 15  1  0
 15 16  1  0
 16 17  1  0
 17 18  1  0
 18 19  1  0
 19 20  1  0
 20 21  1  0
 22 21  1  6
 22 23  1  0
  6 24  2  0
 24  2  1  0
 11  7  1  0
 23 14  1  0
 22 17  1  0
M  END
>  <energy_score>  (455) 
-0.766613

>  <inchikey>  (455) 
None

>  <smiles>  (455) 
None

>  <ref_pdb>  (455) 
A0875a

>  <alias>  (455) 
None

>  <HIPPO Pose ID>  (455) 
498099

>  <name>  (455) 
P498099

>  <HIPPO Compound ID>  (455) 
290543

>  <ref_mols>  (455) 
A4715a,A0875a

>  <distance_score>  (455) 
1.702549

>  <inspiration_score>  (455) 
None

$$$$
P498100
     RDKit          3D

 24 27  0  0  0  0  0  0  0  0999 V2000
   19.0544    7.7614   28.5499 C   0  0  0  0  0  0  0  0  0  0  0  0
   17.8703    8.5504   29.0227 C   0  0  0  0  0  0  0  0  0  0  0  0
   17.0701    8.0512   30.0520 C   0  0  0  0  0  0  0  0  0  0  0  0
   15.9674    8.7761   30.4896 C   0  0  0  0  0  0  0  0  0  0  0  0
   15.6637   10.0077   29.9036 C   0  0  0  0  0  0  0  0  0  0  0  0
   16.4505   10.5655   28.8745 C   0  0  0  0  0  0  0  0  0  0  0  0
   16.1780   12.0106   28.2636 C   0  0  2  0  0  0  0  0  0  0  0  0
   15.7518   13.1013   29.2477 C   0  0  1  0  0  0  0  0  0  0  0  0
   16.8549   13.9211   29.8851 C   0  0  0  0  0  0  0  0  0  0  0  0
   15.1123   13.6778   28.0195 C   0  0  0  0  0  0  0  0  0  0  0  0
   14.8462   12.2172   27.5315 N   0  0  0  0  0  0  0  0  0  0  0  0
   14.5252   12.1836   26.1262 C   0  0  0  0  0  0  0  0  0  0  0  0
   15.2412   12.0661   25.1629 O   0  0  0  0  0  0  0  0  0  0  0  0
   12.9871   12.2133   25.9593 C   0  0  1  0  0  0  0  0  0  0  0  0
   12.2915   13.5152   25.6967 C   0  0  0  0  0  0  0  0  0  0  0  0
   10.8226   13.5912   25.2844 C   0  0  0  0  0  0  0  0  0  0  0  0
   10.5273   12.6118   24.2589 N   0  0  0  0  0  0  0  0  0  0  0  0
    9.0987   12.6271   23.9226 C   0  0  0  0  0  0  0  0  0  0  0  0
    8.3424   11.5035   24.6200 C   0  0  0  0  0  0  0  0  0  0  0  0
    8.9376   10.1369   24.2554 C   0  0  0  0  0  0  0  0  0  0  0  0
   10.4202   10.1778   23.9258 C   0  0  0  0  0  0  0  0  0  0  0  0
   11.0093   11.3130   24.7215 C   0  0  1  0  0  0  0  0  0  0  0  0
   12.5355   11.3148   24.8454 C   0  0  0  0  0  0  0  0  0  0  0  0
   17.5520    9.7918   28.4489 C   0  0  0  0  0  0  0  0  0  0  0  0
  1  2  1  0
  2  3  2  0
  3  4  1  0
  4  5  2  0
  5  6  1  0
  7  6  1  1
  7  8  1  0
  8  9  1  6
  8 10  1  0
 10 11  1  0
 11 12  1  0
 12 13  2  0
 14 12  1  6
 14 15  1  0
 15 16  1  0
 16 17  1  0
 17 18  1  0
 18 19  1  0
 19 20  1  0
 20 21  1  0
 22 21  1  6
 22 23  1  0
  6 24  2  0
 24  2  1  0
 11  7  1  0
 23 14  1  0
 22 17  1  0
M  END
>  <energy_score>  (456) 
-29.065592

>  <inchikey>  (456) 
None

>  <smiles>  (456) 
None

>  <ref_pdb>  (456) 
A0875a

>  <alias>  (456) 
None

>  <HIPPO Pose ID>  (456) 
498100

>  <name>  (456) 
P498100

>  <HIPPO Compound ID>  (456) 
290543

>  <ref_mols>  (456) 
A4715a,A0875a

>  <distance_score>  (456) 
1.77448

>  <inspiration_score>  (456) 
None

$$$$
P498101
     RDKit          3D

 24 27  0  0  0  0  0  0  0  0999 V2000
   16.9481   16.8856   29.5966 C   0  0  0  0  0  0  0  0  0  0  0  0
   17.1393   15.6960   28.7039 C   0  0  0  0  0  0  0  0  0  0  0  0
   18.3425   15.5028   28.0293 C   0  0  0  0  0  0  0  0  0  0  0  0
   18.4849   14.4207   27.1690 C   0  0  0  0  0  0  0  0  0  0  0  0
   17.4190   13.5333   26.9673 C   0  0  0  0  0  0  0  0  0  0  0  0
   16.1859   13.6684   27.6278 C   0  0  0  0  0  0  0  0  0  0  0  0
   14.9746   12.6215   27.6032 C   0  0  2  0  0  0  0  0  0  0  0  0
   15.1945   11.3474   28.4394 C   0  0  2  0  0  0  0  0  0  0  0  0
   16.2182   11.2786   29.5565 C   0  0  0  0  0  0  0  0  0  0  0  0
   15.6386   10.7995   27.0928 C   0  0  0  0  0  0  0  0  0  0  0  0
   14.5266   11.5796   26.4485 N   0  0  0  0  0  0  0  0  0  0  0  0
   14.4485   12.2542   25.0869 C   0  0  0  0  0  0  0  0  0  0  0  0
   15.2707   12.3868   24.2560 O   0  0  0  0  0  0  0  0  0  0  0  0
   12.9860   12.7874   24.8267 C   0  0  1  0  0  0  0  0  0  0  0  0
   12.6960   13.3957   23.4580 C   0  0  0  0  0  0  0  0  0  0  0  0
   11.2792   13.9488   23.3311 C   0  0  0  0  0  0  0  0  0  0  0  0
   10.2892   12.9141   23.5599 N   0  0  0  0  0  0  0  0  0  0  0  0
    8.9100   13.4181   23.4415 C   0  0  0  0  0  0  0  0  0  0  0  0
    7.9277   12.8623   24.4862 C   0  0  0  0  0  0  0  0  0  0  0  0
    8.1718   11.4257   24.9208 C   0  0  0  0  0  0  0  0  0  0  0  0
    9.5893   10.9636   24.6606 C   0  0  0  0  0  0  0  0  0  0  0  0
   10.5067   12.1718   24.7783 C   0  0  1  0  0  0  0  0  0  0  0  0
   11.9332   11.7695   25.1002 C   0  0  0  0  0  0  0  0  0  0  0  0
   16.0891   14.7879   28.4932 C   0  0  0  0  0  0  0  0  0  0  0  0
  1  2  1  0
  2  3  2  0
  3  4  1  0
  4  5  2  0
  5  6  1  0
  7  6  1  6
  7  8  1  0
  8  9  1  1
  8 10  1  0
 10 11  1  0
 11 12  1  0
 12 13  2  0
 14 12  1  6
 14 15  1  0
 15 16  1  0
 16 17  1  0
 17 18  1  0
 18 19  1  0
 19 20  1  0
 20 21  1  0
 22 21  1  6
 22 23  1  0
  6 24  2  0
 24  2  1  0
 11  7  1  0
 23 14  1  0
 22 17  1  0
M  END
>  <energy_score>  (457) 
-17.780599

>  <inchikey>  (457) 
None

>  <smiles>  (457) 
None

>  <ref_pdb>  (457) 
A0875a

>  <alias>  (457) 
None

>  <HIPPO Pose ID>  (457) 
498101

>  <name>  (457) 
P498101

>  <HIPPO Compound ID>  (457) 
290543

>  <ref_mols>  (457) 
A4715a,A0875a

>  <distance_score>  (457) 
1.727676

>  <inspiration_score>  (457) 
None

$$$$
P498102
     RDKit          3D

 24 27  0  0  0  0  0  0  0  0999 V2000
   18.7160   11.7211   30.3684 C   0  0  0  0  0  0  0  0  0  0  0  0
   18.3426   10.5557   29.4868 C   0  0  0  0  0  0  0  0  0  0  0  0
   18.8565    9.3007   29.8716 C   0  0  0  0  0  0  0  0  0  0  0  0
   18.6359    8.1758   29.0987 C   0  0  0  0  0  0  0  0  0  0  0  0
   17.9300    8.3049   27.9163 C   0  0  0  0  0  0  0  0  0  0  0  0
   17.4020    9.5472   27.5113 C   0  0  0  0  0  0  0  0  0  0  0  0
   16.7129    9.5881   26.1783 C   0  0  0  0  0  0  0  0  0  0  0  0
   17.5203   10.7084   28.3236 C   0  0  0  0  0  0  0  0  0  0  0  0
   16.8341   12.1339   27.9230 C   0  0  2  0  0  0  0  0  0  0  0  0
   16.3246   13.0016   29.0725 C   0  0  0  0  0  0  0  0  0  0  0  0
   15.4349   13.5644   28.0198 C   0  0  0  0  0  0  0  0  0  0  0  0
   15.3607   12.1454   27.4041 N   0  0  0  0  0  0  0  0  0  0  0  0
   14.8319   12.1826   26.0662 C   0  0  0  0  0  0  0  0  0  0  0  0
   15.3944   12.2985   25.0054 O   0  0  0  0  0  0  0  0  0  0  0  0
   13.2858   12.0399   26.1138 C   0  0  1  0  0  0  0  0  0  0  0  0
   12.5666   13.3542   26.0917 C   0  0  0  0  0  0  0  0  0  0  0  0
   11.0947   13.4947   25.8366 C   0  0  0  0  0  0  0  0  0  0  0  0
   10.4747   12.2316   25.5362 N   0  0  0  0  0  0  0  0  0  0  0  0
    9.0776   12.5203   25.1911 C   0  0  0  0  0  0  0  0  0  0  0  0
    8.5236   11.6196   24.1284 C   0  0  0  0  0  0  0  0  0  0  0  0
    9.0528   10.2137   24.2720 C   0  0  0  0  0  0  0  0  0  0  0  0
   10.5678   10.1642   24.2124 C   0  0  0  0  0  0  0  0  0  0  0  0
   11.2384   11.5133   24.5158 C   0  0  2  0  0  0  0  0  0  0  0  0
   12.7483   11.3007   24.9012 C   0  0  0  0  0  0  0  0  0  0  0  0
  1  2  1  0
  2  3  2  0
  3  4  1  0
  4  5  2  0
  5  6  1  0
  6  7  1  0
  6  8  2  0
  9  8  1  1
  9 10  1  0
 10 11  1  0
 11 12  1  0
 12 13  1  0
 13 14  2  0
 15 13  1  6
 15 16  1  0
 16 17  1  0
 17 18  1  0
 18 19  1  0
 19 20  1  0
 20 21  1  0
 21 22  1  0
 23 22  1  1
 23 24  1  0
  8  2  1  0
 12  9  1  0
 24 15  1  0
 23 18  1  0
M  END
>  <energy_score>  (458) 
-8.912948

>  <inchikey>  (458) 
None

>  <smiles>  (458) 
None

>  <ref_pdb>  (458) 
A0875a

>  <alias>  (458) 
None

>  <HIPPO Pose ID>  (458) 
498102

>  <name>  (458) 
P498102

>  <HIPPO Compound ID>  (458) 
290544

>  <ref_mols>  (458) 
A4715a,A0875a

>  <distance_score>  (458) 
1.796046

>  <inspiration_score>  (458) 
None

$$$$
P498103
     RDKit          3D

 24 27  0  0  0  0  0  0  0  0999 V2000
   17.3660    8.7344   29.6510 C   0  0  0  0  0  0  0  0  0  0  0  0
   16.3371    9.8087   29.8928 C   0  0  0  0  0  0  0  0  0  0  0  0
   15.7580    9.8222   31.1791 C   0  0  0  0  0  0  0  0  0  0  0  0
   14.8999   10.8366   31.5712 C   0  0  0  0  0  0  0  0  0  0  0  0
   14.6453   11.8774   30.6969 C   0  0  0  0  0  0  0  0  0  0  0  0
   15.1934   11.8765   29.4012 C   0  0  0  0  0  0  0  0  0  0  0  0
   14.9393   13.1043   28.5592 C   0  0  0  0  0  0  0  0  0  0  0  0
   15.9781   10.7804   28.9134 C   0  0  0  0  0  0  0  0  0  0  0  0
   16.4593   10.7563   27.3602 C   0  0  1  0  0  0  0  0  0  0  0  0
   17.0422    9.5958   26.6577 C   0  0  0  0  0  0  0  0  0  0  0  0
   15.9883    9.7870   25.6617 C   0  0  0  0  0  0  0  0  0  0  0  0
   15.2958   11.0069   26.3250 N   0  0  0  0  0  0  0  0  0  0  0  0
   15.0860   12.1202   25.3394 C   0  0  0  0  0  0  0  0  0  0  0  0
   15.7782   13.0203   25.0558 O   0  0  0  0  0  0  0  0  0  0  0  0
   13.7783   11.9404   24.5326 C   0  0  2  0  0  0  0  0  0  0  0  0
   13.1617   13.2631   24.1153 C   0  0  0  0  0  0  0  0  0  0  0  0
   11.9997   13.2293   23.1560 C   0  0  0  0  0  0  0  0  0  0  0  0
   10.9273   12.4508   23.6991 N   0  0  0  0  0  0  0  0  0  0  0  0
    9.6055   13.0749   23.6848 C   0  0  0  0  0  0  0  0  0  0  0  0
    8.5838   12.3229   24.5512 C   0  0  0  0  0  0  0  0  0  0  0  0
    8.8244   10.8128   24.6017 C   0  0  0  0  0  0  0  0  0  0  0  0
   10.2946   10.4096   24.5287 C   0  0  0  0  0  0  0  0  0  0  0  0
   11.1971   11.6007   24.8291 C   0  0  1  0  0  0  0  0  0  0  0  0
   12.6606   11.1859   25.1644 C   0  0  0  0  0  0  0  0  0  0  0  0
  1  2  1  0
  2  3  2  0
  3  4  1  0
  4  5  2  0
  5  6  1  0
  6  7  1  0
  6  8  2  0
  9  8  1  1
  9 10  1  0
 10 11  1  0
 11 12  1  0
 12 13  1  0
 13 14  2  0
 15 13  1  1
 15 16  1  0
 16 17  1  0
 17 18  1  0
 18 19  1  0
 19 20  1  0
 20 21  1  0
 21 22  1  0
 23 22  1  6
 23 24  1  0
  8  2  1  0
 12  9  1  0
 24 15  1  0
 23 18  1  0
M  END
>  <energy_score>  (459) 
-4.090736

>  <inchikey>  (459) 
None

>  <smiles>  (459) 
None

>  <ref_pdb>  (459) 
A0875a

>  <alias>  (459) 
None

>  <HIPPO Pose ID>  (459) 
498103

>  <name>  (459) 
P498103

>  <HIPPO Compound ID>  (459) 
290544

>  <ref_mols>  (459) 
A4715a,A0875a

>  <distance_score>  (459) 
1.58078

>  <inspiration_score>  (459) 
None

$$$$
P498104
     RDKit          3D

 24 27  0  0  0  0  0  0  0  0999 V2000
   18.8515   11.4508   27.7614 C   0  0  0  0  0  0  0  0  0  0  0  0
   17.8870   12.6102   27.7678 C   0  0  0  0  0  0  0  0  0  0  0  0
   18.4957   13.8543   28.0647 C   0  0  0  0  0  0  0  0  0  0  0  0
   17.7418   14.9783   28.3390 C   0  0  0  0  0  0  0  0  0  0  0  0
   16.3694   14.8537   28.3723 C   0  0  0  0  0  0  0  0  0  0  0  0
   15.7476   13.6363   28.0240 C   0  0  0  0  0  0  0  0  0  0  0  0
   14.2768   13.5531   28.2859 C   0  0  0  0  0  0  0  0  0  0  0  0
   16.4711   12.4906   27.5839 C   0  0  0  0  0  0  0  0  0  0  0  0
   15.6558   11.1544   27.0862 C   0  0  2  0  0  0  0  0  0  0  0  0
   16.5131    9.9040   26.6440 C   0  0  0  0  0  0  0  0  0  0  0  0
   15.5567    9.6381   25.4703 C   0  0  0  0  0  0  0  0  0  0  0  0
   15.0746   10.9453   25.7420 N   0  0  0  0  0  0  0  0  0  0  0  0
   14.3025   11.7672   24.9852 C   0  0  0  0  0  0  0  0  0  0  0  0
   14.9729   12.4964   24.2482 O   0  0  0  0  0  0  0  0  0  0  0  0
   12.7433   11.9817   24.9986 C   0  0  1  0  0  0  0  0  0  0  0  0
   12.4379   13.1182   23.9908 C   0  0  0  0  0  0  0  0  0  0  0  0
   11.0861   13.7485   24.2606 C   0  0  0  0  0  0  0  0  0  0  0  0
   10.0577   12.7516   24.0647 N   0  0  0  0  0  0  0  0  0  0  0  0
    8.7156   13.3303   24.0369 C   0  0  0  0  0  0  0  0  0  0  0  0
    7.8305   12.8000   25.1532 C   0  0  0  0  0  0  0  0  0  0  0  0
    7.8065   11.2868   25.1717 C   0  0  0  0  0  0  0  0  0  0  0  0
    9.0812   10.6481   24.6368 C   0  0  0  0  0  0  0  0  0  0  0  0
   10.2401   11.5867   24.9354 C   0  0  1  0  0  0  0  0  0  0  0  0
   11.6134   10.9529   24.6763 C   0  0  0  0  0  0  0  0  0  0  0  0
  1  2  1  0
  2  3  2  0
  3  4  1  0
  4  5  2  0
  5  6  1  0
  6  7  1  0
  6  8  2  0
  9  8  1  6
  9 10  1  0
 10 11  1  0
 11 12  1  0
 12 13  1  0
 13 14  2  0
 15 13  1  6
 15 16  1  0
 16 17  1  0
 17 18  1  0
 18 19  1  0
 19 20  1  0
 20 21  1  0
 21 22  1  0
 23 22  1  6
 23 24  1  0
  8  2  1  0
 12  9  1  0
 24 15  1  0
 23 18  1  0
M  END
>  <energy_score>  (460) 
-13.288755

>  <inchikey>  (460) 
None

>  <smiles>  (460) 
None

>  <ref_pdb>  (460) 
A0875a

>  <alias>  (460) 
None

>  <HIPPO Pose ID>  (460) 
498104

>  <name>  (460) 
P498104

>  <HIPPO Compound ID>  (460) 
290544

>  <ref_mols>  (460) 
A4715a,A0875a

>  <distance_score>  (460) 
1.383248

>  <inspiration_score>  (460) 
None

$$$$
P498105
     RDKit          3D

 24 27  0  0  0  0  0  0  0  0999 V2000
   21.1626   15.3377   27.0983 C   0  0  0  0  0  0  0  0  0  0  0  0
   20.1857   14.2080   27.2192 C   0  0  0  0  0  0  0  0  0  0  0  0
   20.6096   12.8827   27.1500 C   0  0  0  0  0  0  0  0  0  0  0  0
   19.6789   11.8383   27.2166 C   0  0  0  0  0  0  0  0  0  0  0  0
   18.2868   12.0603   27.3216 C   0  0  0  0  0  0  0  0  0  0  0  0
   17.2573   10.8468   27.4405 C   0  0  2  0  0  0  0  0  0  0  0  0
   17.5257    9.5223   26.8198 C   0  0  1  0  0  0  0  0  0  0  0  0
   17.7326    8.3830   27.8031 C   0  0  0  0  0  0  0  0  0  0  0  0
   16.2440    9.7345   26.1080 C   0  0  0  0  0  0  0  0  0  0  0  0
   15.7758   10.9634   26.9530 N   0  0  0  0  0  0  0  0  0  0  0  0
   15.1030   12.0026   26.0873 C   0  0  0  0  0  0  0  0  0  0  0  0
   15.5555   12.9217   25.5149 O   0  0  0  0  0  0  0  0  0  0  0  0
   13.5465   11.7750   26.1112 C   0  0  1  0  0  0  0  0  0  0  0  0
   12.8687   13.1192   26.0411 C   0  0  0  0  0  0  0  0  0  0  0  0
   11.4040   13.3490   25.8256 C   0  0  0  0  0  0  0  0  0  0  0  0
   10.7017   12.1485   25.4878 N   0  0  0  0  0  0  0  0  0  0  0  0
    9.3651   12.5529   25.0121 C   0  0  0  0  0  0  0  0  0  0  0  0
    8.5173   11.3282   24.7910 C   0  0  0  0  0  0  0  0  0  0  0  0
    9.2299   10.4149   23.8190 C   0  0  0  0  0  0  0  0  0  0  0  0
   10.6539   10.0952   24.2207 C   0  0  0  0  0  0  0  0  0  0  0  0
   11.4623   11.3720   24.5012 C   0  0  2  0  0  0  0  0  0  0  0  0
   12.9635   11.0247   24.9416 C   0  0  0  0  0  0  0  0  0  0  0  0
   17.9015   13.4091   27.4164 C   0  0  0  0  0  0  0  0  0  0  0  0
   18.8219   14.4630   27.3513 C   0  0  0  0  0  0  0  0  0  0  0  0
  1  2  1  0
  2  3  2  0
  3  4  1  0
  4  5  2  0
  6  5  1  6
  6  7  1  0
  7  8  1  1
  7  9  1  0
  9 10  1  0
 10 11  1  0
 11 12  2  0
 13 11  1  6
 13 14  1  0
 14 15  1  0
 15 16  1  0
 16 17  1  0
 17 18  1  0
 18 19  1  0
 19 20  1  0
 21 20  1  1
 21 22  1  0
  5 23  1  0
 23 24  2  0
 24  2  1  0
 10  6  1  0
 22 13  1  0
 21 16  1  0
M  END
>  <energy_score>  (461) 
-19.314539

>  <inchikey>  (461) 
None

>  <smiles>  (461) 
None

>  <ref_pdb>  (461) 
A0875a

>  <alias>  (461) 
None

>  <HIPPO Pose ID>  (461) 
498105

>  <name>  (461) 
P498105

>  <HIPPO Compound ID>  (461) 
290545

>  <ref_mols>  (461) 
A4715a,A0875a

>  <distance_score>  (461) 
1.702387

>  <inspiration_score>  (461) 
None

$$$$
P498106
     RDKit          3D

 24 27  0  0  0  0  0  0  0  0999 V2000
   18.6689   14.7139   31.0915 C   0  0  0  0  0  0  0  0  0  0  0  0
   18.0477   13.6911   30.1888 C   0  0  0  0  0  0  0  0  0  0  0  0
   16.8078   13.1331   30.4963 C   0  0  0  0  0  0  0  0  0  0  0  0
   16.2134   12.2104   29.6290 C   0  0  0  0  0  0  0  0  0  0  0  0
   16.8110   11.8178   28.4126 C   0  0  0  0  0  0  0  0  0  0  0  0
   16.0812   10.7534   27.4572 C   0  0  2  0  0  0  0  0  0  0  0  0
   16.6691   10.2898   26.1464 C   0  0  1  0  0  0  0  0  0  0  0  0
   16.2617    8.9213   25.6340 C   0  0  0  0  0  0  0  0  0  0  0  0
   15.9172   11.4850   25.6138 C   0  0  0  0  0  0  0  0  0  0  0  0
   14.8263   11.2306   26.6915 N   0  0  0  0  0  0  0  0  0  0  0  0
   13.9576   12.4397   26.8909 C   0  0  0  0  0  0  0  0  0  0  0  0
   14.0760   13.3492   27.6291 O   0  0  0  0  0  0  0  0  0  0  0  0
   12.6895   12.3387   26.0224 C   0  0  1  0  0  0  0  0  0  0  0  0
   12.1105   13.6354   25.5973 C   0  0  0  0  0  0  0  0  0  0  0  0
   10.6683   13.6795   25.1534 C   0  0  0  0  0  0  0  0  0  0  0  0
   10.4241   12.6532   24.1611 N   0  0  0  0  0  0  0  0  0  0  0  0
    8.9867   12.6292   23.8576 C   0  0  0  0  0  0  0  0  0  0  0  0
    8.2791   11.5077   24.6041 C   0  0  0  0  0  0  0  0  0  0  0  0
    8.9022   10.1490   24.2464 C   0  0  0  0  0  0  0  0  0  0  0  0
   10.3759   10.2175   23.8630 C   0  0  0  0  0  0  0  0  0  0  0  0
   10.9479   11.3687   24.6429 C   0  0  1  0  0  0  0  0  0  0  0  0
   12.4775   11.3986   24.8705 C   0  0  0  0  0  0  0  0  0  0  0  0
   18.0593   12.4061   28.1285 C   0  0  0  0  0  0  0  0  0  0  0  0
   18.6651   13.3281   28.9916 C   0  0  0  0  0  0  0  0  0  0  0  0
  1  2  1  0
  2  3  2  0
  3  4  1  0
  4  5  2  0
  6  5  1  6
  6  7  1  0
  7  8  1  6
  7  9  1  0
  9 10  1  0
 10 11  1  0
 11 12  2  0
 13 11  1  6
 13 14  1  0
 14 15  1  0
 15 16  1  0
 16 17  1  0
 17 18  1  0
 18 19  1  0
 19 20  1  0
 21 20  1  6
 21 22  1  0
  5 23  1  0
 23 24  2  0
 24  2  1  0
 10  6  1  0
 22 13  1  0
 21 16  1  0
M  END
>  <energy_score>  (462) 
-5.250118

>  <inchikey>  (462) 
None

>  <smiles>  (462) 
None

>  <ref_pdb>  (462) 
A0875a

>  <alias>  (462) 
None

>  <HIPPO Pose ID>  (462) 
498106

>  <name>  (462) 
P498106

>  <HIPPO Compound ID>  (462) 
290545

>  <ref_mols>  (462) 
A4715a,A0875a

>  <distance_score>  (462) 
1.995363

>  <inspiration_score>  (462) 
None

$$$$
P498107
     RDKit          3D

 24 27  0  0  0  0  0  0  0  0999 V2000
   18.4647   18.4313   28.3588 C   0  0  0  0  0  0  0  0  0  0  0  0
   17.9821   17.0175   28.2372 C   0  0  0  0  0  0  0  0  0  0  0  0
   18.8570   15.9958   27.8683 C   0  0  0  0  0  0  0  0  0  0  0  0
   18.3886   14.6866   27.7101 C   0  0  0  0  0  0  0  0  0  0  0  0
   17.0341   14.3402   27.8986 C   0  0  0  0  0  0  0  0  0  0  0  0
   16.5491   12.8352   27.7237 C   0  0  1  0  0  0  0  0  0  0  0  0
   16.2379   12.0701   29.0039 C   0  0  1  0  0  0  0  0  0  0  0  0
   15.5406   12.7311   30.1853 C   0  0  0  0  0  0  0  0  0  0  0  0
   15.3405   11.2940   28.0928 C   0  0  0  0  0  0  0  0  0  0  0  0
   15.1122   12.5684   27.2248 N   0  0  0  0  0  0  0  0  0  0  0  0
   14.5910   12.2095   25.8287 C   0  0  0  0  0  0  0  0  0  0  0  0
   15.1786   11.9774   24.8303 O   0  0  0  0  0  0  0  0  0  0  0  0
   13.0430   12.1665   25.9132 C   0  0  1  0  0  0  0  0  0  0  0  0
   12.3368   13.4812   25.7332 C   0  0  0  0  0  0  0  0  0  0  0  0
   10.8626   13.6073   25.3551 C   0  0  0  0  0  0  0  0  0  0  0  0
   10.5147   12.6657   24.3162 N   0  0  0  0  0  0  0  0  0  0  0  0
    9.0908   12.7476   23.9725 C   0  0  0  0  0  0  0  0  0  0  0  0
    8.2780   11.6553   24.6557 C   0  0  0  0  0  0  0  0  0  0  0  0
    8.8374   10.2636   24.3273 C   0  0  0  0  0  0  0  0  0  0  0  0
   10.3076   10.2542   23.9477 C   0  0  0  0  0  0  0  0  0  0  0  0
   10.9519   11.3475   24.7528 C   0  0  1  0  0  0  0  0  0  0  0  0
   12.4756   11.2992   24.8241 C   0  0  0  0  0  0  0  0  0  0  0  0
   16.1779   15.3950   28.2671 C   0  0  0  0  0  0  0  0  0  0  0  0
   16.6344   16.7092   28.4245 C   0  0  0  0  0  0  0  0  0  0  0  0
  1  2  1  0
  2  3  2  0
  3  4  1  0
  4  5  2  0
  6  5  1  1
  6  7  1  0
  7  8  1  1
  7  9  1  0
  9 10  1  0
 10 11  1  0
 11 12  2  0
 13 11  1  6
 13 14  1  0
 14 15  1  0
 15 16  1  0
 16 17  1  0
 17 18  1  0
 18 19  1  0
 19 20  1  0
 21 20  1  6
 21 22  1  0
  5 23  1  0
 23 24  2  0
 24  2  1  0
 10  6  1  0
 22 13  1  0
 21 16  1  0
M  END
>  <energy_score>  (463) 
-11.843741

>  <inchikey>  (463) 
None

>  <smiles>  (463) 
None

>  <ref_pdb>  (463) 
A0875a

>  <alias>  (463) 
None

>  <HIPPO Pose ID>  (463) 
498107

>  <name>  (463) 
P498107

>  <HIPPO Compound ID>  (463) 
290545

>  <ref_mols>  (463) 
A4715a,A0875a

>  <distance_score>  (463) 
1.691363

>  <inspiration_score>  (463) 
None

$$$$
P498108
     RDKit          3D

 24 27  0  0  0  0  0  0  0  0999 V2000
   18.9828    7.0960   28.6123 C   0  0  0  0  0  0  0  0  0  0  0  0
   18.0301    8.2522   28.6155 C   0  0  0  0  0  0  0  0  0  0  0  0
   17.2020    8.4761   29.7133 C   0  0  0  0  0  0  0  0  0  0  0  0
   16.3060    9.5488   29.7102 C   0  0  0  0  0  0  0  0  0  0  0  0
   16.1853   10.4405   28.6191 C   0  0  0  0  0  0  0  0  0  0  0  0
   15.2567   11.7144   28.7557 C   0  0  1  0  0  0  0  0  0  0  0  0
   15.9610   13.0633   28.6491 C   0  0  2  0  0  0  0  0  0  0  0  0
   16.6077   13.6056   29.9083 C   0  0  0  0  0  0  0  0  0  0  0  0
   14.5741   13.5548   28.3583 C   0  0  0  0  0  0  0  0  0  0  0  0
   14.2542   12.1812   27.6683 N   0  0  0  0  0  0  0  0  0  0  0  0
   14.4009   12.2687   26.1520 C   0  0  0  0  0  0  0  0  0  0  0  0
   15.3423   12.0744   25.4622 O   0  0  0  0  0  0  0  0  0  0  0  0
   13.0563   12.7115   25.4713 C   0  0  2  0  0  0  0  0  0  0  0  0
   11.9758   13.4462   26.2340 C   0  0  0  0  0  0  0  0  0  0  0  0
   10.7216   13.8140   25.4018 C   0  0  0  0  0  0  0  0  0  0  0  0
   10.4008   12.8442   24.3695 N   0  0  0  0  0  0  0  0  0  0  0  0
    8.9887   12.8710   23.9903 C   0  0  0  0  0  0  0  0  0  0  0  0
    8.2120   11.7560   24.6804 C   0  0  0  0  0  0  0  0  0  0  0  0
    8.8210   10.3797   24.3736 C   0  0  0  0  0  0  0  0  0  0  0  0
   10.2778   10.4285   23.9467 C   0  0  0  0  0  0  0  0  0  0  0  0
   10.9106   11.5389   24.7419 C   0  0  1  0  0  0  0  0  0  0  0  0
   12.4268   11.5970   24.6740 C   0  0  0  0  0  0  0  0  0  0  0  0
   17.0214   10.1747   27.5198 C   0  0  0  0  0  0  0  0  0  0  0  0
   17.9196    9.0976   27.5089 C   0  0  0  0  0  0  0  0  0  0  0  0
  1  2  1  0
  2  3  2  0
  3  4  1  0
  4  5  2  0
  6  5  1  6
  6  7  1  0
  7  8  1  1
  7  9  1  0
  9 10  1  0
 10 11  1  0
 11 12  2  0
 13 11  1  1
 13 14  1  0
 14 15  1  0
 15 16  1  0
 16 17  1  0
 17 18  1  0
 18 19  1  0
 19 20  1  0
 21 20  1  6
 21 22  1  0
  5 23  1  0
 23 24  2  0
 24  2  1  0
 10  6  1  0
 22 13  1  0
 21 16  1  0
M  END
>  <energy_score>  (464) 
-7.248973

>  <inchikey>  (464) 
None

>  <smiles>  (464) 
None

>  <ref_pdb>  (464) 
A0875a

>  <alias>  (464) 
None

>  <HIPPO Pose ID>  (464) 
498108

>  <name>  (464) 
P498108

>  <HIPPO Compound ID>  (464) 
290545

>  <ref_mols>  (464) 
A4715a,A0875a

>  <distance_score>  (464) 
1.739319

>  <inspiration_score>  (464) 
None

$$$$
P498109
     RDKit          3D

 24 27  0  0  0  0  0  0  0  0999 V2000
   11.9823   14.6694   20.8264 C   0  0  0  0  0  0  0  0  0  0  0  0
   11.2502   15.1056   21.9954 N   0  0  0  0  0  0  0  0  0  0  0  0
    9.8150   15.4688   21.6300 C   0  0  0  0  0  0  0  0  0  0  0  0
    9.5036   14.9850   23.0381 C   0  0  1  0  0  0  0  0  0  0  0  0
    8.2879   14.4133   23.5266 N   0  0  0  0  0  0  0  0  0  0  0  0
    8.0106   13.0362   24.1391 C   0  0  0  0  0  0  0  0  0  0  0  0
    8.7115   12.1137   24.2746 O   0  0  0  0  0  0  0  0  0  0  0  0
    6.6100   12.9491   24.7388 C   0  0  2  0  0  0  0  0  0  0  0  0
    5.5037   14.0262   24.6480 C   0  0  0  0  0  0  0  0  0  0  0  0
    4.6225   14.2534   25.8902 C   0  0  0  0  0  0  0  0  0  0  0  0
    5.2330   13.7816   27.1385 N   0  0  0  0  0  0  0  0  0  0  0  0
    4.3757   14.0451   28.3029 C   0  0  0  0  0  0  0  0  0  0  0  0
    3.4986   12.8614   28.6963 C   0  0  0  0  0  0  0  0  0  0  0  0
    4.3329   11.6121   28.9818 C   0  0  0  0  0  0  0  0  0  0  0  0
    5.6860   11.6214   28.2839 C   0  0  0  0  0  0  0  0  0  0  0  0
    5.5891   12.3672   26.9666 C   0  0  2  0  0  0  0  0  0  0  0  0
    6.8387   12.3267   26.1321 C   0  0  0  0  0  0  0  0  0  0  0  0
   10.6278   13.9506   22.7371 C   0  0  2  0  0  0  0  0  0  0  0  0
   11.4926   13.3972   23.9280 C   0  0  0  0  0  0  0  0  0  0  0  0
   12.6239   12.6221   23.6893 C   0  0  0  0  0  0  0  0  0  0  0  0
   13.4681   12.1182   24.6854 C   0  0  0  0  0  0  0  0  0  0  0  0
   13.1999   12.4325   25.9964 C   0  0  0  0  0  0  0  0  0  0  0  0
   12.0753   13.1975   26.2768 C   0  0  0  0  0  0  0  0  0  0  0  0
   11.1996   13.6008   25.2735 C   0  0  0  0  0  0  0  0  0  0  0  0
  1  2  1  0
  2  3  1  0
  3  4  1  0
  4  5  1  6
  5  6  1  0
  6  7  2  0
  8  6  1  1
  8  9  1  0
  9 10  1  0
 10 11  1  0
 11 12  1  0
 12 13  1  0
 13 14  1  0
 14 15  1  0
 16 15  1  1
 16 17  1  0
  4 18  1  0
 18 19  1  1
 19 20  2  0
 20 21  1  0
 21 22  2  0
 22 23  1  0
 23 24  2  0
 18  2  1  0
 24 19  1  0
 17  8  1  0
 16 11  1  0
M  END
>  <energy_score>  (465) 
-9.005297

>  <inchikey>  (465) 
None

>  <smiles>  (465) 
None

>  <ref_pdb>  (465) 
A0875a

>  <alias>  (465) 
None

>  <HIPPO Pose ID>  (465) 
498109

>  <name>  (465) 
P498109

>  <HIPPO Compound ID>  (465) 
290556

>  <ref_mols>  (465) 
A4715a,A0875a

>  <distance_score>  (465) 
1.763716

>  <inspiration_score>  (465) 
None

$$$$
P498110
     RDKit          3D

 24 27  0  0  0  0  0  0  0  0999 V2000
   11.2253   14.6010   21.2742 C   0  0  0  0  0  0  0  0  0  0  0  0
   10.5772   15.1429   22.4741 N   0  0  0  0  0  0  0  0  0  0  0  0
    9.1075   15.3619   22.2241 C   0  0  0  0  0  0  0  0  0  0  0  0
    8.8325   13.9357   22.7580 C   0  0  2  0  0  0  0  0  0  0  0  0
    7.6739   13.6507   23.6307 N   0  0  0  0  0  0  0  0  0  0  0  0
    7.6172   13.1265   25.0965 C   0  0  0  0  0  0  0  0  0  0  0  0
    8.4788   12.9149   25.8595 O   0  0  0  0  0  0  0  0  0  0  0  0
    6.1531   12.8257   25.4908 C   0  0  2  0  0  0  0  0  0  0  0  0
    5.4242   13.9421   26.2096 C   0  0  0  0  0  0  0  0  0  0  0  0
    4.1126   13.6230   26.8884 C   0  0  0  0  0  0  0  0  0  0  0  0
    4.1747   12.3959   27.6680 N   0  0  0  0  0  0  0  0  0  0  0  0
    3.5309   12.5614   28.9777 C   0  0  0  0  0  0  0  0  0  0  0  0
    3.7736   11.3906   29.9275 C   0  0  0  0  0  0  0  0  0  0  0  0
    4.0151   10.1188   29.1404 C   0  0  0  0  0  0  0  0  0  0  0  0
    5.2372   10.2665   28.2521 C   0  0  0  0  0  0  0  0  0  0  0  0
    5.4572   11.6875   27.7032 C   0  0  1  0  0  0  0  0  0  0  0  0
    6.1845   11.5734   26.3572 C   0  0  0  0  0  0  0  0  0  0  0  0
   10.1735   14.1472   23.5028 C   0  0  1  0  0  0  0  0  0  0  0  0
   11.1662   12.9807   23.8514 C   0  0  0  0  0  0  0  0  0  0  0  0
   12.5335   13.2270   24.0450 C   0  0  0  0  0  0  0  0  0  0  0  0
   13.4126   12.3262   24.6294 C   0  0  0  0  0  0  0  0  0  0  0  0
   12.9448   11.0750   24.9479 C   0  0  0  0  0  0  0  0  0  0  0  0
   11.6080   10.7369   24.6841 C   0  0  0  0  0  0  0  0  0  0  0  0
   10.7373   11.6824   24.1512 C   0  0  0  0  0  0  0  0  0  0  0  0
  1  2  1  0
  2  3  1  0
  3  4  1  0
  4  5  1  1
  5  6  1  0
  6  7  2  0
  8  6  1  1
  8  9  1  0
  9 10  1  0
 10 11  1  0
 11 12  1  0
 12 13  1  0
 13 14  1  0
 14 15  1  0
 16 15  1  6
 16 17  1  0
  4 18  1  0
 18 19  1  6
 19 20  2  0
 20 21  1  0
 21 22  2  0
 22 23  1  0
 23 24  2  0
 18  2  1  0
 24 19  1  0
 17  8  1  0
 16 11  1  0
M  END
>  <energy_score>  (466) 
-0.05077

>  <inchikey>  (466) 
None

>  <smiles>  (466) 
None

>  <ref_pdb>  (466) 
A0875a

>  <alias>  (466) 
None

>  <HIPPO Pose ID>  (466) 
498110

>  <name>  (466) 
P498110

>  <HIPPO Compound ID>  (466) 
290556

>  <ref_mols>  (466) 
A4715a,A0875a

>  <distance_score>  (466) 
1.990828

>  <inspiration_score>  (466) 
None

$$$$
P498111
     RDKit          3D

 24 27  0  0  0  0  0  0  0  0999 V2000
   11.9124   14.8290   21.3787 C   0  0  0  0  0  0  0  0  0  0  0  0
   10.8986   15.3086   22.3106 N   0  0  0  0  0  0  0  0  0  0  0  0
    9.5227   15.1188   21.7383 C   0  0  0  0  0  0  0  0  0  0  0  0
    9.4182   13.7856   22.5010 C   0  0  2  0  0  0  0  0  0  0  0  0
    8.2289   13.4213   23.2821 N   0  0  0  0  0  0  0  0  0  0  0  0
    8.1021   12.8947   24.7263 C   0  0  0  0  0  0  0  0  0  0  0  0
    8.9251   12.5946   25.4963 O   0  0  0  0  0  0  0  0  0  0  0  0
    6.6422   12.6606   25.1088 C   0  0  2  0  0  0  0  0  0  0  0  0
    5.5615   13.7220   25.0051 C   0  0  0  0  0  0  0  0  0  0  0  0
    4.8872   14.0263   26.3469 C   0  0  0  0  0  0  0  0  0  0  0  0
    4.3946   12.8461   27.0524 N   0  0  0  0  0  0  0  0  0  0  0  0
    3.7312   13.2188   28.3034 C   0  0  0  0  0  0  0  0  0  0  0  0
    3.1644   11.9951   29.0131 C   0  0  0  0  0  0  0  0  0  0  0  0
    4.2075   10.8992   29.2052 C   0  0  0  0  0  0  0  0  0  0  0  0
    5.5484   11.2446   28.5861 C   0  0  0  0  0  0  0  0  0  0  0  0
    5.3629   11.7445   27.1547 C   0  0  2  0  0  0  0  0  0  0  0  0
    6.6901   12.0374   26.4983 C   0  0  0  0  0  0  0  0  0  0  0  0
   10.4970   14.3980   23.4092 C   0  0  1  0  0  0  0  0  0  0  0  0
   11.5386   13.5056   24.2134 C   0  0  0  0  0  0  0  0  0  0  0  0
   11.5276   13.5766   25.6170 C   0  0  0  0  0  0  0  0  0  0  0  0
   12.5447   13.0638   26.4115 C   0  0  0  0  0  0  0  0  0  0  0  0
   13.5252   12.2596   25.8772 C   0  0  0  0  0  0  0  0  0  0  0  0
   13.4921   12.0350   24.5220 C   0  0  0  0  0  0  0  0  0  0  0  0
   12.5162   12.6558   23.7062 C   0  0  0  0  0  0  0  0  0  0  0  0
  1  2  1  0
  2  3  1  0
  3  4  1  0
  4  5  1  1
  5  6  1  0
  6  7  2  0
  8  6  1  1
  8  9  1  0
  9 10  1  0
 10 11  1  0
 11 12  1  0
 12 13  1  0
 13 14  1  0
 14 15  1  0
 16 15  1  1
 16 17  1  0
  4 18  1  0
 18 19  1  6
 19 20  2  0
 20 21  1  0
 21 22  2  0
 22 23  1  0
 23 24  2  0
 18  2  1  0
 24 19  1  0
 17  8  1  0
 16 11  1  0
M  END
>  <energy_score>  (467) 
-3.686011

>  <inchikey>  (467) 
None

>  <smiles>  (467) 
None

>  <ref_pdb>  (467) 
A0875a

>  <alias>  (467) 
None

>  <HIPPO Pose ID>  (467) 
498111

>  <name>  (467) 
P498111

>  <HIPPO Compound ID>  (467) 
290556

>  <ref_mols>  (467) 
A4715a,A0875a

>  <distance_score>  (467) 
1.843189

>  <inspiration_score>  (467) 
None

$$$$
P498112
     RDKit          3D

 24 27  0  0  0  0  0  0  0  0999 V2000
   11.7089   14.5583   21.0636 C   0  0  0  0  0  0  0  0  0  0  0  0
   11.0656   15.1704   22.2289 N   0  0  0  0  0  0  0  0  0  0  0  0
    9.6051   15.3988   21.9340 C   0  0  0  0  0  0  0  0  0  0  0  0
    9.2956   14.0046   22.5238 C   0  0  2  0  0  0  0  0  0  0  0  0
    8.2363   13.8259   23.5115 N   0  0  0  0  0  0  0  0  0  0  0  0
    7.7522   12.5555   24.2441 C   0  0  0  0  0  0  0  0  0  0  0  0
    8.0717   11.4416   24.1158 O   0  0  0  0  0  0  0  0  0  0  0  0
    6.7791   12.9140   25.3562 C   0  0  1  0  0  0  0  0  0  0  0  0
    5.5245   13.7090   25.0657 C   0  0  0  0  0  0  0  0  0  0  0  0
    4.7215   13.9656   26.3397 C   0  0  0  0  0  0  0  0  0  0  0  0
    4.4447   12.7578   27.1144 N   0  0  0  0  0  0  0  0  0  0  0  0
    3.6714   13.0930   28.3172 C   0  0  0  0  0  0  0  0  0  0  0  0
    3.2357   11.8329   29.0540 C   0  0  0  0  0  0  0  0  0  0  0  0
    4.4334   10.9527   29.3644 C   0  0  0  0  0  0  0  0  0  0  0  0
    5.2652   10.6799   28.1261 C   0  0  0  0  0  0  0  0  0  0  0  0
    5.6564   11.9786   27.4167 C   0  0  1  0  0  0  0  0  0  0  0  0
    6.4741   11.6672   26.1688 C   0  0  0  0  0  0  0  0  0  0  0  0
   10.6300   14.2164   23.2747 C   0  0  1  0  0  0  0  0  0  0  0  0
   11.5827   13.0580   23.7465 C   0  0  0  0  0  0  0  0  0  0  0  0
   12.9388   13.2832   23.9684 C   0  0  0  0  0  0  0  0  0  0  0  0
   13.7947   12.4048   24.6332 C   0  0  0  0  0  0  0  0  0  0  0  0
   13.3168   11.1823   25.0227 C   0  0  0  0  0  0  0  0  0  0  0  0
   11.9825   10.8674   24.7672 C   0  0  0  0  0  0  0  0  0  0  0  0
   11.1500   11.7892   24.1286 C   0  0  0  0  0  0  0  0  0  0  0  0
  1  2  1  0
  2  3  1  0
  3  4  1  0
  4  5  1  1
  5  6  1  0
  6  7  2  0
  8  6  1  6
  8  9  1  0
  9 10  1  0
 10 11  1  0
 11 12  1  0
 12 13  1  0
 13 14  1  0
 14 15  1  0
 16 15  1  6
 16 17  1  0
  4 18  1  0
 18 19  1  6
 19 20  2  0
 20 21  1  0
 21 22  2  0
 22 23  1  0
 23 24  2  0
 18  2  1  0
 24 19  1  0
 17  8  1  0
 16 11  1  0
M  END
>  <energy_score>  (468) 
-12.097883

>  <inchikey>  (468) 
None

>  <smiles>  (468) 
None

>  <ref_pdb>  (468) 
A0875a

>  <alias>  (468) 
None

>  <HIPPO Pose ID>  (468) 
498112

>  <name>  (468) 
P498112

>  <HIPPO Compound ID>  (468) 
290556

>  <ref_mols>  (468) 
A4715a,A0875a

>  <distance_score>  (468) 
1.93188

>  <inspiration_score>  (468) 
None

$$$$
P498113
     RDKit          3D

 24 27  0  0  0  0  0  0  0  0999 V2000
   12.0202   14.3169   21.2836 C   0  0  0  0  0  0  0  0  0  0  0  0
   10.9082   14.9255   21.9759 N   0  0  0  0  0  0  0  0  0  0  0  0
    9.5704   14.4245   21.5444 C   0  0  0  0  0  0  0  0  0  0  0  0
    9.1201   14.7000   22.9836 C   0  0  1  0  0  0  0  0  0  0  0  0
    8.0658   14.0377   23.7663 N   0  0  0  0  0  0  0  0  0  0  0  0
    8.1497   13.2299   25.0933 C   0  0  0  0  0  0  0  0  0  0  0  0
    9.0796   12.9022   25.7238 O   0  0  0  0  0  0  0  0  0  0  0  0
    6.7716   12.9164   25.6954 C   0  0  1  0  0  0  0  0  0  0  0  0
    5.5069   13.6246   25.2659 C   0  0  0  0  0  0  0  0  0  0  0  0
    4.5946   13.7552   26.4713 C   0  0  0  0  0  0  0  0  0  0  0  0
    4.3517   12.5141   27.1963 N   0  0  0  0  0  0  0  0  0  0  0  0
    3.7429   12.7945   28.5017 C   0  0  0  0  0  0  0  0  0  0  0  0
    4.7988   13.1666   29.5489 C   0  0  0  0  0  0  0  0  0  0  0  0
    6.0491   12.2936   29.4261 C   0  0  0  0  0  0  0  0  0  0  0  0
    5.7299   11.0517   28.6179 C   0  0  0  0  0  0  0  0  0  0  0  0
    5.3571   11.4141   27.1760 C   0  0  2  0  0  0  0  0  0  0  0  0
    6.5092   11.5033   26.1239 C   0  0  0  0  0  0  0  0  0  0  0  0
   10.6061   14.3901   23.3307 C   0  0  1  0  0  0  0  0  0  0  0  0
   11.1311   12.9227   23.6933 C   0  0  0  0  0  0  0  0  0  0  0  0
   10.3960   11.7467   23.4662 C   0  0  0  0  0  0  0  0  0  0  0  0
   10.7396   10.5210   24.0255 C   0  0  0  0  0  0  0  0  0  0  0  0
   11.9047   10.4252   24.7702 C   0  0  0  0  0  0  0  0  0  0  0  0
   12.7204   11.5424   24.9620 C   0  0  0  0  0  0  0  0  0  0  0  0
   12.3241   12.7552   24.4171 C   0  0  0  0  0  0  0  0  0  0  0  0
  1  2  1  0
  2  3  1  0
  3  4  1  0
  4  5  1  1
  5  6  1  0
  6  7  2  0
  8  6  1  6
  8  9  1  0
  9 10  1  0
 10 11  1  0
 11 12  1  0
 12 13  1  0
 13 14  1  0
 14 15  1  0
 16 15  1  1
 16 17  1  0
  4 18  1  0
 18 19  1  6
 19 20  2  0
 20 21  1  0
 21 22  2  0
 22 23  1  0
 23 24  2  0
 18  2  1  0
 24 19  1  0
 17  8  1  0
 16 11  1  0
M  END
>  <energy_score>  (469) 
-16.218332

>  <inchikey>  (469) 
None

>  <smiles>  (469) 
None

>  <ref_pdb>  (469) 
A0875a

>  <alias>  (469) 
None

>  <HIPPO Pose ID>  (469) 
498113

>  <name>  (469) 
P498113

>  <HIPPO Compound ID>  (469) 
290556

>  <ref_mols>  (469) 
A4715a,A0875a

>  <distance_score>  (469) 
1.849297

>  <inspiration_score>  (469) 
None

$$$$
P498114
     RDKit          3D

 25 28  0  0  0  0  0  0  0  0999 V2000
   18.7646    6.8778   28.6403 C   0  0  0  0  0  0  0  0  0  0  0  0
   17.9481    8.1184   28.4394 C   0  0  0  0  0  0  0  0  0  0  0  0
   17.2345    8.6744   29.4999 C   0  0  0  0  0  0  0  0  0  0  0  0
   16.4626    9.8243   29.3047 C   0  0  0  0  0  0  0  0  0  0  0  0
   16.3656   10.4656   28.0516 C   0  0  0  0  0  0  0  0  0  0  0  0
   15.6534   11.8527   27.8605 C   0  0  2  0  0  0  0  0  0  0  0  0
   14.7083   12.3988   28.9214 C   0  0  1  0  0  0  0  0  0  0  0  0
   15.3135   13.1768   30.0766 C   0  0  0  0  0  0  0  0  0  0  0  0
   14.2365   13.2516   27.7590 C   0  0  0  0  0  0  0  0  0  0  0  0
   14.5058   12.0252   26.8350 N   0  0  0  0  0  0  0  0  0  0  0  0
   14.5387   12.4266   25.3722 C   0  0  0  0  0  0  0  0  0  0  0  0
   15.4420   12.7768   24.6970 O   0  0  0  0  0  0  0  0  0  0  0  0
   13.1916   12.2582   24.5802 C   0  0  2  0  0  0  0  0  0  0  0  0
   12.8131   13.3198   23.5125 C   0  0  0  0  0  0  0  0  0  0  0  0
   11.4210   13.9109   23.5726 C   0  0  0  0  0  0  0  0  0  0  0  0
   11.1825   15.0673   23.2466 O   0  0  0  0  0  0  0  0  0  0  0  0
   10.4213   13.0283   23.9219 N   0  0  0  0  0  0  0  0  0  0  0  0
    9.2460   13.5812   24.5650 C   0  0  0  0  0  0  0  0  0  0  0  0
    8.0650   12.6358   24.5882 C   0  0  0  0  0  0  0  0  0  0  0  0
    8.4902   11.2793   25.1090 C   0  0  0  0  0  0  0  0  0  0  0  0
    9.6125   10.6874   24.2816 C   0  0  0  0  0  0  0  0  0  0  0  0
   10.7833   11.6433   24.0623 C   0  0  2  0  0  0  0  0  0  0  0  0
   11.9436   11.5605   25.0690 C   0  0  0  0  0  0  0  0  0  0  0  0
   17.0766    9.8672   26.9958 C   0  0  0  0  0  0  0  0  0  0  0  0
   17.8525    8.7178   27.1808 C   0  0  0  0  0  0  0  0  0  0  0  0
  1  2  1  0
  2  3  2  0
  3  4  1  0
  4  5  2  0
  6  5  1  1
  6  7  1  0
  7  8  1  1
  7  9  1  0
  9 10  1  0
 10 11  1  0
 11 12  2  0
 13 11  1  1
 13 14  1  0
 14 15  1  0
 15 16  2  0
 15 17  1  0
 17 18  1  0
 18 19  1  0
 19 20  1  0
 20 21  1  0
 22 21  1  1
 22 23  1  0
  5 24  1  0
 24 25  2  0
 25  2  1  0
 10  6  1  0
 23 13  1  0
 22 17  1  0
M  END
>  <energy_score>  (470) 
-1.390975

>  <inchikey>  (470) 
None

>  <smiles>  (470) 
None

>  <ref_pdb>  (470) 
A0875a

>  <alias>  (470) 
None

>  <HIPPO Pose ID>  (470) 
498114

>  <name>  (470) 
P498114

>  <HIPPO Compound ID>  (470) 
290592

>  <ref_mols>  (470) 
A4715a,A0875a

>  <distance_score>  (470) 
1.341618

>  <inspiration_score>  (470) 
None

$$$$
P498115
     RDKit          3D

 25 28  0  0  0  0  0  0  0  0999 V2000
   16.3126   15.9159   31.3537 C   0  0  0  0  0  0  0  0  0  0  0  0
   16.3490   15.0278   30.1480 C   0  0  0  0  0  0  0  0  0  0  0  0
   15.4222   14.0004   29.9844 C   0  0  0  0  0  0  0  0  0  0  0  0
   15.4495   13.1883   28.8420 C   0  0  0  0  0  0  0  0  0  0  0  0
   16.3832   13.3662   27.8055 C   0  0  0  0  0  0  0  0  0  0  0  0
   16.4846   12.4605   26.4812 C   0  0  1  0  0  0  0  0  0  0  0  0
   16.8495   11.0171   26.5511 C   0  0  1  0  0  0  0  0  0  0  0  0
   16.5225   10.2207   27.7939 C   0  0  0  0  0  0  0  0  0  0  0  0
   16.0248   10.9177   25.2970 C   0  0  0  0  0  0  0  0  0  0  0  0
   15.2119   12.2012   25.6203 N   0  0  0  0  0  0  0  0  0  0  0  0
   13.8211   11.8751   26.0214 C   0  0  0  0  0  0  0  0  0  0  0  0
   13.3717   11.6596   27.0739 O   0  0  0  0  0  0  0  0  0  0  0  0
   12.9051   11.9607   24.7747 C   0  0  2  0  0  0  0  0  0  0  0  0
   12.3529   13.3567   24.8150 C   0  0  0  0  0  0  0  0  0  0  0  0
   10.8690   13.5090   24.8715 C   0  0  0  0  0  0  0  0  0  0  0  0
   10.3240   14.1633   25.7487 O   0  0  0  0  0  0  0  0  0  0  0  0
   10.2077   12.8318   23.8743 N   0  0  0  0  0  0  0  0  0  0  0  0
    8.8071   13.1597   23.6875 C   0  0  0  0  0  0  0  0  0  0  0  0
    7.9303   12.4001   24.6696 C   0  0  0  0  0  0  0  0  0  0  0  0
    8.4552   10.9934   24.9368 C   0  0  0  0  0  0  0  0  0  0  0  0
    9.4439   10.4804   23.8886 C   0  0  0  0  0  0  0  0  0  0  0  0
   10.6231   11.4432   23.6755 C   0  0  2  0  0  0  0  0  0  0  0  0
   11.6845   11.0534   24.7184 C   0  0  0  0  0  0  0  0  0  0  0  0
   17.3015   14.4215   28.0065 C   0  0  0  0  0  0  0  0  0  0  0  0
   17.2862   15.2412   29.1408 C   0  0  0  0  0  0  0  0  0  0  0  0
  1  2  1  0
  2  3  2  0
  3  4  1  0
  4  5  2  0
  6  5  1  1
  6  7  1  0
  7  8  1  1
  7  9  1  0
  9 10  1  0
 10 11  1  0
 11 12  2  0
 13 11  1  1
 13 14  1  0
 14 15  1  0
 15 16  2  0
 15 17  1  0
 17 18  1  0
 18 19  1  0
 19 20  1  0
 20 21  1  0
 22 21  1  1
 22 23  1  0
  5 24  1  0
 24 25  2  0
 25  2  1  0
 10  6  1  0
 23 13  1  0
 22 17  1  0
M  END
>  <energy_score>  (471) 
-1.734643

>  <inchikey>  (471) 
None

>  <smiles>  (471) 
None

>  <ref_pdb>  (471) 
A0875a

>  <alias>  (471) 
None

>  <HIPPO Pose ID>  (471) 
498115

>  <name>  (471) 
P498115

>  <HIPPO Compound ID>  (471) 
290592

>  <ref_mols>  (471) 
A4715a,A0875a

>  <distance_score>  (471) 
1.611439

>  <inspiration_score>  (471) 
None

$$$$
P498116
     RDKit          3D

 25 28  0  0  0  0  0  0  0  0999 V2000
   15.3936   14.1762   32.1047 C   0  0  0  0  0  0  0  0  0  0  0  0
   15.2344   13.6140   30.7245 C   0  0  0  0  0  0  0  0  0  0  0  0
   14.7632   12.3151   30.5419 C   0  0  0  0  0  0  0  0  0  0  0  0
   14.8265   11.7115   29.2823 C   0  0  0  0  0  0  0  0  0  0  0  0
   15.3722   12.3694   28.1631 C   0  0  0  0  0  0  0  0  0  0  0  0
   15.8617   11.6047   26.8639 C   0  0  1  0  0  0  0  0  0  0  0  0
   16.6640   10.3487   27.1951 C   0  0  2  0  0  0  0  0  0  0  0  0
   18.1446   10.5158   27.4708 C   0  0  0  0  0  0  0  0  0  0  0  0
   16.2314    9.9323   25.8300 C   0  0  0  0  0  0  0  0  0  0  0  0
   14.9230   10.6630   25.9567 N   0  0  0  0  0  0  0  0  0  0  0  0
   14.1416   11.4720   24.9409 C   0  0  0  0  0  0  0  0  0  0  0  0
   14.4172   11.7803   23.8413 O   0  0  0  0  0  0  0  0  0  0  0  0
   12.7775   11.7997   25.4961 C   0  0  1  0  0  0  0  0  0  0  0  0
   12.4402   13.2341   25.4020 C   0  0  0  0  0  0  0  0  0  0  0  0
   10.9852   13.5236   25.3412 C   0  0  0  0  0  0  0  0  0  0  0  0
   10.4387   14.1894   26.2096 O   0  0  0  0  0  0  0  0  0  0  0  0
   10.3751   13.0066   24.2271 N   0  0  0  0  0  0  0  0  0  0  0  0
    9.0299   13.4489   23.9054 C   0  0  0  0  0  0  0  0  0  0  0  0
    8.0075   12.6051   24.6537 C   0  0  0  0  0  0  0  0  0  0  0  0
    8.4689   11.1540   24.7681 C   0  0  0  0  0  0  0  0  0  0  0  0
    9.5059   10.7833   23.6937 C   0  0  0  0  0  0  0  0  0  0  0  0
   10.7699   11.6703   23.7880 C   0  0  2  0  0  0  0  0  0  0  0  0
   11.6628   10.9729   24.8208 C   0  0  0  0  0  0  0  0  0  0  0  0
   15.7329   13.7186   28.3589 C   0  0  0  0  0  0  0  0  0  0  0  0
   15.6756   14.3306   29.6137 C   0  0  0  0  0  0  0  0  0  0  0  0
  1  2  1  0
  2  3  2  0
  3  4  1  0
  4  5  2  0
  6  5  1  1
  6  7  1  0
  7  8  1  6
  7  9  1  0
  9 10  1  0
 10 11  1  0
 11 12  2  0
 13 11  1  6
 13 14  1  0
 14 15  1  0
 15 16  2  0
 15 17  1  0
 17 18  1  0
 18 19  1  0
 19 20  1  0
 20 21  1  0
 22 21  1  1
 22 23  1  0
  5 24  1  0
 24 25  2  0
 25  2  1  0
 10  6  1  0
 23 13  1  0
 22 17  1  0
M  END
>  <energy_score>  (472) 
-2.767204

>  <inchikey>  (472) 
None

>  <smiles>  (472) 
None

>  <ref_pdb>  (472) 
A0875a

>  <alias>  (472) 
None

>  <HIPPO Pose ID>  (472) 
498116

>  <name>  (472) 
P498116

>  <HIPPO Compound ID>  (472) 
290592

>  <ref_mols>  (472) 
A4715a,A0875a

>  <distance_score>  (472) 
1.099157

>  <inspiration_score>  (472) 
None

$$$$
P498117
     RDKit          3D

 25 28  0  0  0  0  0  0  0  0999 V2000
   18.4621   18.4477   28.2487 C   0  0  0  0  0  0  0  0  0  0  0  0
   18.0482   17.0126   28.1231 C   0  0  0  0  0  0  0  0  0  0  0  0
   16.7802   16.6001   28.5358 C   0  0  0  0  0  0  0  0  0  0  0  0
   16.4051   15.2555   28.4387 C   0  0  0  0  0  0  0  0  0  0  0  0
   17.2763   14.2685   27.9356 C   0  0  0  0  0  0  0  0  0  0  0  0
   16.8719   12.7340   27.8390 C   0  0  1  0  0  0  0  0  0  0  0  0
   16.5523   12.0452   29.1564 C   0  0  2  0  0  0  0  0  0  0  0  0
   17.6990   11.3521   29.8630 C   0  0  0  0  0  0  0  0  0  0  0  0
   15.6945   11.1882   28.2763 C   0  0  0  0  0  0  0  0  0  0  0  0
   15.4392   12.4303   27.3646 N   0  0  0  0  0  0  0  0  0  0  0  0
   14.9135   12.0180   25.9957 C   0  0  0  0  0  0  0  0  0  0  0  0
   15.4940   11.7598   25.0018 O   0  0  0  0  0  0  0  0  0  0  0  0
   13.3751   11.9424   26.1085 C   0  0  1  0  0  0  0  0  0  0  0  0
   12.7407   13.2734   26.2091 C   0  0  0  0  0  0  0  0  0  0  0  0
   11.2788   13.4400   26.2021 C   0  0  0  0  0  0  0  0  0  0  0  0
   10.7621   14.3561   26.8367 O   0  0  0  0  0  0  0  0  0  0  0  0
   10.5973   12.5893   25.3738 N   0  0  0  0  0  0  0  0  0  0  0  0
    9.2528   13.0329   25.0179 C   0  0  0  0  0  0  0  0  0  0  0  0
    8.5134   12.0445   24.1490 C   0  0  0  0  0  0  0  0  0  0  0  0
    8.9554   10.6349   24.4824 C   0  0  0  0  0  0  0  0  0  0  0  0
   10.4369   10.4393   24.1855 C   0  0  0  0  0  0  0  0  0  0  0  0
   11.2918   11.6900   24.4681 C   0  0  2  0  0  0  0  0  0  0  0  0
   12.7510   11.3073   24.8824 C   0  0  0  0  0  0  0  0  0  0  0  0
   18.5566   14.7124   27.5475 C   0  0  0  0  0  0  0  0  0  0  0  0
   18.9410   16.0547   27.6406 C   0  0  0  0  0  0  0  0  0  0  0  0
  1  2  1  0
  2  3  2  0
  3  4  1  0
  4  5  2  0
  6  5  1  1
  6  7  1  0
  7  8  1  6
  7  9  1  0
  9 10  1  0
 10 11  1  0
 11 12  2  0
 13 11  1  6
 13 14  1  0
 14 15  1  0
 15 16  2  0
 15 17  1  0
 17 18  1  0
 18 19  1  0
 19 20  1  0
 20 21  1  0
 22 21  1  1
 22 23  1  0
  5 24  1  0
 24 25  2  0
 25  2  1  0
 10  6  1  0
 23 13  1  0
 22 17  1  0
M  END
>  <energy_score>  (473) 
-9.294864

>  <inchikey>  (473) 
None

>  <smiles>  (473) 
None

>  <ref_pdb>  (473) 
A0875a

>  <alias>  (473) 
None

>  <HIPPO Pose ID>  (473) 
498117

>  <name>  (473) 
P498117

>  <HIPPO Compound ID>  (473) 
290592

>  <ref_mols>  (473) 
A4715a,A0875a

>  <distance_score>  (473) 
1.600965

>  <inspiration_score>  (473) 
None

$$$$
P498118
     RDKit          3D

 25 28  0  0  0  0  0  0  0  0999 V2000
   17.5090   16.9239   29.5369 C   0  0  0  0  0  0  0  0  0  0  0  0
   17.0471   15.6107   28.9830 C   0  0  0  0  0  0  0  0  0  0  0  0
   15.9318   14.9700   29.5187 C   0  0  0  0  0  0  0  0  0  0  0  0
   15.5146   13.7347   29.0125 C   0  0  0  0  0  0  0  0  0  0  0  0
   16.1917   13.0786   27.9621 C   0  0  0  0  0  0  0  0  0  0  0  0
   15.7356   11.6568   27.4756 C   0  0  2  0  0  0  0  0  0  0  0  0
   16.8471   10.5388   27.3180 C   0  0  1  0  0  0  0  0  0  0  0  0
   17.0549    9.6471   28.5246 C   0  0  0  0  0  0  0  0  0  0  0  0
   16.0875   10.0381   26.0351 C   0  0  0  0  0  0  0  0  0  0  0  0
   15.4743   11.3219   26.0943 N   0  0  0  0  0  0  0  0  0  0  0  0
   14.8281   12.0299   25.1276 C   0  0  0  0  0  0  0  0  0  0  0  0
   15.4414   12.7978   24.4083 O   0  0  0  0  0  0  0  0  0  0  0  0
   13.3197   11.9367   25.0312 C   0  0  1  0  0  0  0  0  0  0  0  0
   12.7896   12.6583   26.2382 C   0  0  0  0  0  0  0  0  0  0  0  0
   11.4727   13.3954   26.1113 C   0  0  0  0  0  0  0  0  0  0  0  0
   11.1364   14.2023   26.9750 O   0  0  0  0  0  0  0  0  0  0  0  0
   10.6553   13.0649   25.0631 N   0  0  0  0  0  0  0  0  0  0  0  0
    9.2543   13.4374   25.0295 C   0  0  0  0  0  0  0  0  0  0  0  0
    8.4155   12.3726   24.3207 C   0  0  0  0  0  0  0  0  0  0  0  0
    9.0959   11.0085   24.4098 C   0  0  0  0  0  0  0  0  0  0  0  0
   10.5083   11.0322   23.7951 C   0  0  0  0  0  0  0  0  0  0  0  0
   11.1401   12.4347   23.8676 C   0  0  2  0  0  0  0  0  0  0  0  0
   12.6537   12.5843   23.8190 C   0  0  0  0  0  0  0  0  0  0  0  0
   17.3171   13.7465   27.4509 C   0  0  0  0  0  0  0  0  0  0  0  0
   17.7472   14.9810   27.9544 C   0  0  0  0  0  0  0  0  0  0  0  0
  1  2  1  0
  2  3  2  0
  3  4  1  0
  4  5  2  0
  6  5  1  6
  6  7  1  0
  7  8  1  1
  7  9  1  0
  9 10  1  0
 10 11  1  0
 11 12  2  0
 13 11  1  6
 13 14  1  0
 14 15  1  0
 15 16  2  0
 15 17  1  0
 17 18  1  0
 18 19  1  0
 19 20  1  0
 20 21  1  0
 22 21  1  1
 22 23  1  0
  5 24  1  0
 24 25  2  0
 25  2  1  0
 10  6  1  0
 23 13  1  0
 22 17  1  0
M  END
>  <energy_score>  (474) 
-16.942317

>  <inchikey>  (474) 
None

>  <smiles>  (474) 
None

>  <ref_pdb>  (474) 
A0875a

>  <alias>  (474) 
None

>  <HIPPO Pose ID>  (474) 
498118

>  <name>  (474) 
P498118

>  <HIPPO Compound ID>  (474) 
290592

>  <ref_mols>  (474) 
A4715a,A0875a

>  <distance_score>  (474) 
1.374923

>  <inspiration_score>  (474) 
None

$$$$
P498119
     RDKit          3D

 25 28  0  0  0  0  0  0  0  0999 V2000
   14.9370   10.7806   32.7339 C   0  0  0  0  0  0  0  0  0  0  0  0
   15.2295   10.8730   31.2668 C   0  0  0  0  0  0  0  0  0  0  0  0
   14.6605   11.8803   30.4941 C   0  0  0  0  0  0  0  0  0  0  0  0
   14.9043   11.9325   29.1179 C   0  0  0  0  0  0  0  0  0  0  0  0
   15.7053   10.9857   28.4382 C   0  0  0  0  0  0  0  0  0  0  0  0
   15.9407   11.1578   26.8704 C   0  0  1  0  0  0  0  0  0  0  0  0
   16.4866   10.2121   25.8789 C   0  0  1  0  0  0  0  0  0  0  0  0
   17.3648    9.0357   26.2317 C   0  0  0  0  0  0  0  0  0  0  0  0
   15.0845   10.0359   25.4480 C   0  0  0  0  0  0  0  0  0  0  0  0
   14.6273   11.3943   26.0631 N   0  0  0  0  0  0  0  0  0  0  0  0
   14.3043   12.3873   25.0054 C   0  0  0  0  0  0  0  0  0  0  0  0
   14.9856   13.1743   24.4746 O   0  0  0  0  0  0  0  0  0  0  0  0
   12.7955   12.4661   24.6136 C   0  0  1  0  0  0  0  0  0  0  0  0
   12.5296   13.3069   23.3492 C   0  0  0  0  0  0  0  0  0  0  0  0
   11.1202   13.8458   23.3564 C   0  0  0  0  0  0  0  0  0  0  0  0
   10.8426   14.9813   22.9916 O   0  0  0  0  0  0  0  0  0  0  0  0
   10.1787   12.9068   23.7524 N   0  0  0  0  0  0  0  0  0  0  0  0
    8.7732   13.2477   23.6667 C   0  0  0  0  0  0  0  0  0  0  0  0
    7.9447   12.5239   24.7146 C   0  0  0  0  0  0  0  0  0  0  0  0
    8.4607   11.1374   25.0724 C   0  0  0  0  0  0  0  0  0  0  0  0
    9.4521   10.5470   24.0872 C   0  0  0  0  0  0  0  0  0  0  0  0
   10.5891   11.5093   23.7612 C   0  0  2  0  0  0  0  0  0  0  0  0
   11.7447   11.3811   24.7663 C   0  0  0  0  0  0  0  0  0  0  0  0
   16.2959   10.0109   29.2592 C   0  0  0  0  0  0  0  0  0  0  0  0
   16.0469    9.9354   30.6377 C   0  0  0  0  0  0  0  0  0  0  0  0
  1  2  1  0
  2  3  2  0
  3  4  1  0
  4  5  2  0
  6  5  1  1
  6  7  1  0
  7  8  1  1
  7  9  1  0
  9 10  1  0
 10 11  1  0
 11 12  2  0
 13 11  1  6
 13 14  1  0
 14 15  1  0
 15 16  2  0
 15 17  1  0
 17 18  1  0
 18 19  1  0
 19 20  1  0
 20 21  1  0
 22 21  1  1
 22 23  1  0
  5 24  1  0
 24 25  2  0
 25  2  1  0
 10  6  1  0
 23 13  1  0
 22 17  1  0
M  END
>  <energy_score>  (475) 
-18.828931

>  <inchikey>  (475) 
None

>  <smiles>  (475) 
None

>  <ref_pdb>  (475) 
A0875a

>  <alias>  (475) 
None

>  <HIPPO Pose ID>  (475) 
498119

>  <name>  (475) 
P498119

>  <HIPPO Compound ID>  (475) 
290592

>  <ref_mols>  (475) 
A4715a,A0875a

>  <distance_score>  (475) 
1.53185

>  <inspiration_score>  (475) 
None

$$$$
P498120
     RDKit          3D

 25 28  0  0  0  0  0  0  0  0999 V2000
   14.9172   11.7144   30.4115 C   0  0  0  0  0  0  0  0  0  0  0  0
   15.6421   10.3971   30.3032 C   0  0  0  0  0  0  0  0  0  0  0  0
   15.2869    9.4196   31.2556 C   0  0  0  0  0  0  0  0  0  0  0  0
   15.9147    8.1843   31.2896 C   0  0  0  0  0  0  0  0  0  0  0  0
   16.9191    7.9086   30.3780 C   0  0  0  0  0  0  0  0  0  0  0  0
   17.3018    8.8653   29.4202 C   0  0  0  0  0  0  0  0  0  0  0  0
   18.3907    8.4702   28.4506 C   0  0  0  0  0  0  0  0  0  0  0  0
   16.6722   10.1509   29.3446 C   0  0  0  0  0  0  0  0  0  0  0  0
   17.1290   11.2069   28.2086 C   0  0  2  0  0  0  0  0  0  0  0  0
   17.5247   12.6166   28.5725 C   0  0  0  0  0  0  0  0  0  0  0  0
   17.0732   12.8951   27.1679 C   0  0  0  0  0  0  0  0  0  0  0  0
   16.0072   11.7678   27.3330 N   0  0  0  0  0  0  0  0  0  0  0  0
   15.4768   11.3058   25.9922 C   0  0  0  0  0  0  0  0  0  0  0  0
   15.8585   10.4518   25.2744 O   0  0  0  0  0  0  0  0  0  0  0  0
   14.2661   12.1866   25.6041 C   0  0  2  0  0  0  0  0  0  0  0  0
   13.4730   12.6482   26.7711 C   0  0  0  0  0  0  0  0  0  0  0  0
   12.1480   13.3078   26.4377 C   0  0  0  0  0  0  0  0  0  0  0  0
   11.7126   14.1892   27.1724 O   0  0  0  0  0  0  0  0  0  0  0  0
   11.3987   12.8569   25.3869 N   0  0  0  0  0  0  0  0  0  0  0  0
   10.1409   13.5543   25.0577 C   0  0  0  0  0  0  0  0  0  0  0  0
    9.1597   12.7090   24.2497 C   0  0  0  0  0  0  0  0  0  0  0  0
    9.4018   11.2382   24.5155 C   0  0  0  0  0  0  0  0  0  0  0  0
   10.8303   10.8621   24.1057 C   0  0  0  0  0  0  0  0  0  0  0  0
   11.9149   11.9595   24.3954 C   0  0  2  0  0  0  0  0  0  0  0  0
   13.3190   11.3821   24.7426 C   0  0  0  0  0  0  0  0  0  0  0  0
  1  2  1  0
  2  3  2  0
  3  4  1  0
  4  5  2  0
  5  6  1  0
  6  7  1  0
  6  8  2  0
  9  8  1  1
  9 10  1  0
 10 11  1  0
 11 12  1  0
 12 13  1  0
 13 14  2  0
 15 13  1  1
 15 16  1  0
 16 17  1  0
 17 18  2  0
 17 19  1  0
 19 20  1  0
 20 21  1  0
 21 22  1  0
 22 23  1  0
 24 23  1  1
 24 25  1  0
  8  2  1  0
 12  9  1  0
 25 15  1  0
 24 19  1  0
M  END
>  <energy_score>  (476) 
-22.041064

>  <inchikey>  (476) 
None

>  <smiles>  (476) 
None

>  <ref_pdb>  (476) 
A0875a

>  <alias>  (476) 
None

>  <HIPPO Pose ID>  (476) 
498120

>  <name>  (476) 
P498120

>  <HIPPO Compound ID>  (476) 
290593

>  <ref_mols>  (476) 
A4715a,A0875a

>  <distance_score>  (476) 
1.669569

>  <inspiration_score>  (476) 
None

$$$$
P498121
     RDKit          3D

 25 28  0  0  0  0  0  0  0  0999 V2000
   18.0232    7.4602   28.9545 C   0  0  0  0  0  0  0  0  0  0  0  0
   17.0452    8.3613   29.6617 C   0  0  0  0  0  0  0  0  0  0  0  0
   16.5823    7.8939   30.9104 C   0  0  0  0  0  0  0  0  0  0  0  0
   15.7280    8.6540   31.6900 C   0  0  0  0  0  0  0  0  0  0  0  0
   15.3617    9.9126   31.2510 C   0  0  0  0  0  0  0  0  0  0  0  0
   15.8107   10.4039   30.0096 C   0  0  0  0  0  0  0  0  0  0  0  0
   15.4144   11.8208   29.6837 C   0  0  0  0  0  0  0  0  0  0  0  0
   16.5908    9.6026   29.1170 C   0  0  0  0  0  0  0  0  0  0  0  0
   16.9616   10.1500   27.6267 C   0  0  1  0  0  0  0  0  0  0  0  0
   17.4963    9.3513   26.5002 C   0  0  0  0  0  0  0  0  0  0  0  0
   16.1974    9.5794   25.8525 C   0  0  0  0  0  0  0  0  0  0  0  0
   15.7700   10.7509   26.7732 N   0  0  0  0  0  0  0  0  0  0  0  0
   15.6658   12.0412   26.0074 C   0  0  0  0  0  0  0  0  0  0  0  0
   16.4729   12.8677   25.7992 O   0  0  0  0  0  0  0  0  0  0  0  0
   14.2147   12.2908   25.5384 C   0  0  2  0  0  0  0  0  0  0  0  0
   13.4292   12.6863   26.7397 C   0  0  0  0  0  0  0  0  0  0  0  0
   12.0948   13.2991   26.3918 C   0  0  0  0  0  0  0  0  0  0  0  0
   11.6178   14.1800   27.1002 O   0  0  0  0  0  0  0  0  0  0  0  0
   11.3922   12.7816   25.3346 N   0  0  0  0  0  0  0  0  0  0  0  0
   10.1329   13.4442   24.9474 C   0  0  0  0  0  0  0  0  0  0  0  0
    9.1932   12.5494   24.1473 C   0  0  0  0  0  0  0  0  0  0  0  0
    9.4234   11.0987   24.5194 C   0  0  0  0  0  0  0  0  0  0  0  0
   10.8655   10.6906   24.1874 C   0  0  0  0  0  0  0  0  0  0  0  0
   11.9437   11.8097   24.4149 C   0  0  2  0  0  0  0  0  0  0  0  0
   13.3797   11.2658   24.8273 C   0  0  0  0  0  0  0  0  0  0  0  0
  1  2  1  0
  2  3  2  0
  3  4  1  0
  4  5  2  0
  5  6  1  0
  6  7  1  0
  6  8  2  0
  9  8  1  1
  9 10  1  0
 10 11  1  0
 11 12  1  0
 12 13  1  0
 13 14  2  0
 15 13  1  1
 15 16  1  0
 16 17  1  0
 17 18  2  0
 17 19  1  0
 19 20  1  0
 20 21  1  0
 21 22  1  0
 22 23  1  0
 24 23  1  1
 24 25  1  0
  8  2  1  0
 12  9  1  0
 25 15  1  0
 24 19  1  0
M  END
>  <energy_score>  (477) 
-11.227088

>  <inchikey>  (477) 
None

>  <smiles>  (477) 
None

>  <ref_pdb>  (477) 
A0875a

>  <alias>  (477) 
None

>  <HIPPO Pose ID>  (477) 
498121

>  <name>  (477) 
P498121

>  <HIPPO Compound ID>  (477) 
290593

>  <ref_mols>  (477) 
A4715a,A0875a

>  <distance_score>  (477) 
1.67412

>  <inspiration_score>  (477) 
None

$$$$
P498122
     RDKit          3D

 25 28  0  0  0  0  0  0  0  0999 V2000
   14.9118   11.7228   30.4106 C   0  0  0  0  0  0  0  0  0  0  0  0
   15.6370   10.4056   30.3036 C   0  0  0  0  0  0  0  0  0  0  0  0
   15.2809    9.4287   31.2562 C   0  0  0  0  0  0  0  0  0  0  0  0
   15.9086    8.1934   31.2914 C   0  0  0  0  0  0  0  0  0  0  0  0
   16.9137    7.9170   30.3808 C   0  0  0  0  0  0  0  0  0  0  0  0
   17.2973    8.8731   29.4229 C   0  0  0  0  0  0  0  0  0  0  0  0
   18.3868    8.4773   28.4543 C   0  0  0  0  0  0  0  0  0  0  0  0
   16.6679   10.1587   29.3460 C   0  0  0  0  0  0  0  0  0  0  0  0
   17.1256   11.2138   28.2094 C   0  0  2  0  0  0  0  0  0  0  0  0
   17.5198   12.6242   28.5725 C   0  0  0  0  0  0  0  0  0  0  0  0
   17.0692   12.9011   27.1674 C   0  0  0  0  0  0  0  0  0  0  0  0
   16.0041   11.7730   27.3325 N   0  0  0  0  0  0  0  0  0  0  0  0
   15.4751   11.3094   25.9917 C   0  0  0  0  0  0  0  0  0  0  0  0
   15.8582   10.4552   25.2748 O   0  0  0  0  0  0  0  0  0  0  0  0
   14.2636   12.1887   25.6028 C   0  0  2  0  0  0  0  0  0  0  0  0
   13.4700   12.6499   26.7697 C   0  0  0  0  0  0  0  0  0  0  0  0
   12.1447   13.3086   26.4362 C   0  0  0  0  0  0  0  0  0  0  0  0
   11.7083   14.1894   27.1710 O   0  0  0  0  0  0  0  0  0  0  0  0
   11.3961   12.8570   25.3853 N   0  0  0  0  0  0  0  0  0  0  0  0
   10.1386   13.5540   25.0549 C   0  0  0  0  0  0  0  0  0  0  0  0
    9.1584   12.7080   24.2466 C   0  0  0  0  0  0  0  0  0  0  0  0
    9.4000   11.2375   24.5147 C   0  0  0  0  0  0  0  0  0  0  0  0
   10.8290   10.8607   24.1067 C   0  0  0  0  0  0  0  0  0  0  0  0
   11.9129   11.9592   24.3944 C   0  0  2  0  0  0  0  0  0  0  0  0
   13.3172   11.3829   24.7420 C   0  0  0  0  0  0  0  0  0  0  0  0
  1  2  1  0
  2  3  2  0
  3  4  1  0
  4  5  2  0
  5  6  1  0
  6  7  1  0
  6  8  2  0
  9  8  1  1
  9 10  1  0
 10 11  1  0
 11 12  1  0
 12 13  1  0
 13 14  2  0
 15 13  1  1
 15 16  1  0
 16 17  1  0
 17 18  2  0
 17 19  1  0
 19 20  1  0
 20 21  1  0
 21 22  1  0
 22 23  1  0
 24 23  1  1
 24 25  1  0
  8  2  1  0
 12  9  1  0
 25 15  1  0
 24 19  1  0
M  END
>  <energy_score>  (478) 
-36.981999

>  <inchikey>  (478) 
None

>  <smiles>  (478) 
None

>  <ref_pdb>  (478) 
A0875a

>  <alias>  (478) 
None

>  <HIPPO Pose ID>  (478) 
498122

>  <name>  (478) 
P498122

>  <HIPPO Compound ID>  (478) 
290593

>  <ref_mols>  (478) 
A4715a,A0875a

>  <distance_score>  (478) 
1.700057

>  <inspiration_score>  (478) 
None

$$$$
P498123
     RDKit          3D

 25 28  0  0  0  0  0  0  0  0999 V2000
   17.4889    9.2446   27.2758 C   0  0  0  0  0  0  0  0  0  0  0  0
   18.4687   10.3890   27.2644 C   0  0  0  0  0  0  0  0  0  0  0  0
   19.7669   10.1008   26.7988 C   0  0  0  0  0  0  0  0  0  0  0  0
   20.7337   11.0865   26.7530 C   0  0  0  0  0  0  0  0  0  0  0  0
   20.4070   12.3655   27.1718 C   0  0  0  0  0  0  0  0  0  0  0  0
   19.1190   12.6823   27.6677 C   0  0  0  0  0  0  0  0  0  0  0  0
   18.9674   14.0989   28.1572 C   0  0  0  0  0  0  0  0  0  0  0  0
   18.0951   11.6873   27.7552 C   0  0  0  0  0  0  0  0  0  0  0  0
   16.6577   11.8490   28.4952 C   0  0  1  0  0  0  0  0  0  0  0  0
   16.2483   12.9834   29.3935 C   0  0  0  0  0  0  0  0  0  0  0  0
   15.5570   13.4806   28.1648 C   0  0  0  0  0  0  0  0  0  0  0  0
   15.3003   12.0090   27.7493 N   0  0  0  0  0  0  0  0  0  0  0  0
   14.9611   11.8982   26.2565 C   0  0  0  0  0  0  0  0  0  0  0  0
   15.6668   11.7436   25.3230 O   0  0  0  0  0  0  0  0  0  0  0  0
   13.4130   11.9193   26.1665 C   0  0  1  0  0  0  0  0  0  0  0  0
   12.7856   13.2549   26.1915 C   0  0  0  0  0  0  0  0  0  0  0  0
   11.3239   13.4126   26.1816 C   0  0  0  0  0  0  0  0  0  0  0  0
   10.7971   14.3275   26.8089 O   0  0  0  0  0  0  0  0  0  0  0  0
   10.6597   12.5525   25.3529 N   0  0  0  0  0  0  0  0  0  0  0  0
    9.3209   12.9960   24.9761 C   0  0  0  0  0  0  0  0  0  0  0  0
    8.5897   12.0027   24.1089 C   0  0  0  0  0  0  0  0  0  0  0  0
    9.0297   10.5949   24.4501 C   0  0  0  0  0  0  0  0  0  0  0  0
   10.5183   10.3990   24.1762 C   0  0  0  0  0  0  0  0  0  0  0  0
   11.3792   11.6487   24.4652 C   0  0  2  0  0  0  0  0  0  0  0  0
   12.8490   11.2688   24.9151 C   0  0  0  0  0  0  0  0  0  0  0  0
  1  2  1  0
  2  3  2  0
  3  4  1  0
  4  5  2  0
  5  6  1  0
  6  7  1  0
  6  8  2  0
  9  8  1  6
  9 10  1  0
 10 11  1  0
 11 12  1  0
 12 13  1  0
 13 14  2  0
 15 13  1  6
 15 16  1  0
 16 17  1  0
 17 18  2  0
 17 19  1  0
 19 20  1  0
 20 21  1  0
 21 22  1  0
 22 23  1  0
 24 23  1  1
 24 25  1  0
  8  2  1  0
 12  9  1  0
 25 15  1  0
 24 19  1  0
M  END
>  <energy_score>  (479) 
-0.921856

>  <inchikey>  (479) 
None

>  <smiles>  (479) 
None

>  <ref_pdb>  (479) 
A0875a

>  <alias>  (479) 
None

>  <HIPPO Pose ID>  (479) 
498123

>  <name>  (479) 
P498123

>  <HIPPO Compound ID>  (479) 
290593

>  <ref_mols>  (479) 
A4715a,A0875a

>  <distance_score>  (479) 
1.63419

>  <inspiration_score>  (479) 
None

$$$$
P498124
     RDKit          3D

 25 28  0  0  0  0  0  0  0  0999 V2000
   14.7279   11.8935   30.3568 C   0  0  0  0  0  0  0  0  0  0  0  0
   15.5930   12.9007   29.6417 C   0  0  0  0  0  0  0  0  0  0  0  0
   15.8689   14.0887   30.3466 C   0  0  0  0  0  0  0  0  0  0  0  0
   16.7612   15.0148   29.8427 C   0  0  0  0  0  0  0  0  0  0  0  0
   17.4181   14.7304   28.6588 C   0  0  0  0  0  0  0  0  0  0  0  0
   17.1307   13.5598   27.9239 C   0  0  0  0  0  0  0  0  0  0  0  0
   18.0361   13.2763   26.7639 C   0  0  0  0  0  0  0  0  0  0  0  0
   16.1273   12.6437   28.3354 C   0  0  0  0  0  0  0  0  0  0  0  0
   15.6082   11.3804   27.4893 C   0  0  2  0  0  0  0  0  0  0  0  0
   16.5706   10.2130   27.0736 C   0  0  0  0  0  0  0  0  0  0  0  0
   15.7147   10.0231   25.7606 C   0  0  0  0  0  0  0  0  0  0  0  0
   15.2753   11.3390   26.0752 N   0  0  0  0  0  0  0  0  0  0  0  0
   14.7140   12.2750   25.2899 C   0  0  0  0  0  0  0  0  0  0  0  0
   15.4989   13.0386   24.7320 O   0  0  0  0  0  0  0  0  0  0  0  0
   13.2287   12.5745   25.1054 C   0  0  2  0  0  0  0  0  0  0  0  0
   12.5897   13.0577   26.3760 C   0  0  0  0  0  0  0  0  0  0  0  0
   11.2366   13.6998   26.0926 C   0  0  0  0  0  0  0  0  0  0  0  0
   10.7691   14.5608   26.8252 O   0  0  0  0  0  0  0  0  0  0  0  0
   10.5874   13.1523   24.9984 N   0  0  0  0  0  0  0  0  0  0  0  0
    9.3822   13.6815   24.3934 C   0  0  0  0  0  0  0  0  0  0  0  0
    8.1739   12.8508   24.8074 C   0  0  0  0  0  0  0  0  0  0  0  0
    8.4484   11.3500   24.6855 C   0  0  0  0  0  0  0  0  0  0  0  0
    9.7808   11.0350   23.9945 C   0  0  0  0  0  0  0  0  0  0  0  0
   10.8281   11.7542   24.8293 C   0  0  1  0  0  0  0  0  0  0  0  0
   12.2837   11.5803   24.4757 C   0  0  0  0  0  0  0  0  0  0  0  0
  1  2  1  0
  2  3  2  0
  3  4  1  0
  4  5  2  0
  5  6  1  0
  6  7  1  0
  6  8  2  0
  9  8  1  6
  9 10  1  0
 10 11  1  0
 11 12  1  0
 12 13  1  0
 13 14  2  0
 15 13  1  1
 15 16  1  0
 16 17  1  0
 17 18  2  0
 17 19  1  0
 19 20  1  0
 20 21  1  0
 21 22  1  0
 22 23  1  0
 24 23  1  6
 24 25  1  0
  8  2  1  0
 12  9  1  0
 25 15  1  0
 24 19  1  0
M  END
>  <energy_score>  (480) 
-4.273056

>  <inchikey>  (480) 
None

>  <smiles>  (480) 
None

>  <ref_pdb>  (480) 
A0875a

>  <alias>  (480) 
None

>  <HIPPO Pose ID>  (480) 
498124

>  <name>  (480) 
P498124

>  <HIPPO Compound ID>  (480) 
290593

>  <ref_mols>  (480) 
A4715a,A0875a

>  <distance_score>  (480) 
1.289533

>  <inspiration_score>  (480) 
None

$$$$
P498125
     RDKit          3D

 25 28  0  0  0  0  0  0  0  0999 V2000
   19.5546   13.1592   27.3752 C   0  0  0  0  0  0  0  0  0  0  0  0
   18.6178   13.1271   28.5590 C   0  0  0  0  0  0  0  0  0  0  0  0
   18.9139   13.9852   29.6341 C   0  0  0  0  0  0  0  0  0  0  0  0
   18.0921   14.0356   30.7469 C   0  0  0  0  0  0  0  0  0  0  0  0
   16.9599   13.2377   30.7905 C   0  0  0  0  0  0  0  0  0  0  0  0
   16.6271   12.3779   29.7224 C   0  0  0  0  0  0  0  0  0  0  0  0
   15.3750   11.5602   29.9133 C   0  0  0  0  0  0  0  0  0  0  0  0
   17.4661   12.2754   28.5687 C   0  0  0  0  0  0  0  0  0  0  0  0
   17.1692   11.2979   27.3036 C   0  0  1  0  0  0  0  0  0  0  0  0
   16.8544    9.8436   27.5160 C   0  0  0  0  0  0  0  0  0  0  0  0
   16.0814   10.0343   26.2424 C   0  0  0  0  0  0  0  0  0  0  0  0
   15.7875   11.4920   26.6758 N   0  0  0  0  0  0  0  0  0  0  0  0
   15.3529   12.3271   25.5211 C   0  0  0  0  0  0  0  0  0  0  0  0
   15.9811   12.9704   24.7745 O   0  0  0  0  0  0  0  0  0  0  0  0
   13.8424   12.4192   25.3751 C   0  0  2  0  0  0  0  0  0  0  0  0
   13.2192   12.6931   26.6875 C   0  0  0  0  0  0  0  0  0  0  0  0
   11.8893   13.3535   26.4469 C   0  0  0  0  0  0  0  0  0  0  0  0
   11.5078   14.2719   27.1601 O   0  0  0  0  0  0  0  0  0  0  0  0
   11.1116   12.8600   25.4285 N   0  0  0  0  0  0  0  0  0  0  0  0
    9.8053   13.4697   25.1935 C   0  0  0  0  0  0  0  0  0  0  0  0
    8.7562   12.4152   24.9332 C   0  0  0  0  0  0  0  0  0  0  0  0
    9.1354   11.6481   23.6875 C   0  0  0  0  0  0  0  0  0  0  0  0
   10.6394   11.5545   23.4113 C   0  0  0  0  0  0  0  0  0  0  0  0
   11.4589   11.6545   24.7031 C   0  0  1  0  0  0  0  0  0  0  0  0
   12.9977   11.4951   24.5856 C   0  0  0  0  0  0  0  0  0  0  0  0
  1  2  1  0
  2  3  2  0
  3  4  1  0
  4  5  2  0
  5  6  1  0
  6  7  1  0
  6  8  2  0
  9  8  1  1
  9 10  1  0
 10 11  1  0
 11 12  1  0
 12 13  1  0
 13 14  2  0
 15 13  1  1
 15 16  1  0
 16 17  1  0
 17 18  2  0
 17 19  1  0
 19 20  1  0
 20 21  1  0
 21 22  1  0
 22 23  1  0
 24 23  1  6
 24 25  1  0
  8  2  1  0
 12  9  1  0
 25 15  1  0
 24 19  1  0
M  END
>  <energy_score>  (481) 
-10.654836

>  <inchikey>  (481) 
None

>  <smiles>  (481) 
None

>  <ref_pdb>  (481) 
A0875a

>  <alias>  (481) 
None

>  <HIPPO Pose ID>  (481) 
498125

>  <name>  (481) 
P498125

>  <HIPPO Compound ID>  (481) 
290593

>  <ref_mols>  (481) 
A4715a,A0875a

>  <distance_score>  (481) 
1.572044

>  <inspiration_score>  (481) 
None

$$$$
P498126
     RDKit          3D

 25 28  0  0  0  0  0  0  0  0999 V2000
   14.9725   10.5399   30.3653 C   0  0  0  0  0  0  0  0  0  0  0  0
   16.1428    9.7856   29.7855 C   0  0  0  0  0  0  0  0  0  0  0  0
   16.4358    8.5525   30.4071 C   0  0  0  0  0  0  0  0  0  0  0  0
   17.4836    7.7579   29.9713 C   0  0  0  0  0  0  0  0  0  0  0  0
   18.2627    8.1886   28.9117 C   0  0  0  0  0  0  0  0  0  0  0  0
   18.0117    9.4254   28.2887 C   0  0  0  0  0  0  0  0  0  0  0  0
   18.9058    9.8074   27.1373 C   0  0  0  0  0  0  0  0  0  0  0  0
   16.9455   10.2818   28.7098 C   0  0  0  0  0  0  0  0  0  0  0  0
   16.7173   11.7292   27.9903 C   0  0  2  0  0  0  0  0  0  0  0  0
   16.5769   12.9432   28.8739 C   0  0  0  0  0  0  0  0  0  0  0  0
   15.7077   13.4318   27.7695 C   0  0  0  0  0  0  0  0  0  0  0  0
   15.3129   11.9602   27.4131 N   0  0  0  0  0  0  0  0  0  0  0  0
   14.7954   11.8520   25.9769 C   0  0  0  0  0  0  0  0  0  0  0  0
   15.3756   11.6424   24.9703 O   0  0  0  0  0  0  0  0  0  0  0  0
   13.2603   11.9625   26.0439 C   0  0  1  0  0  0  0  0  0  0  0  0
   12.6299   13.3046   26.0661 C   0  0  0  0  0  0  0  0  0  0  0  0
   11.1556   13.4940   25.8792 C   0  0  0  0  0  0  0  0  0  0  0  0
   10.5410   14.3048   26.5581 O   0  0  0  0  0  0  0  0  0  0  0  0
   10.6542   12.7845   24.8086 N   0  0  0  0  0  0  0  0  0  0  0  0
    9.3086   13.0530   24.3085 C   0  0  0  0  0  0  0  0  0  0  0  0
    8.3552   11.9177   24.6707 C   0  0  0  0  0  0  0  0  0  0  0  0
    8.9188   10.5422   24.2685 C   0  0  0  0  0  0  0  0  0  0  0  0
   10.3599   10.5813   23.7661 C   0  0  0  0  0  0  0  0  0  0  0  0
   11.0977   11.4175   24.7807 C   0  0  1  0  0  0  0  0  0  0  0  0
   12.6202   11.2728   24.8525 C   0  0  0  0  0  0  0  0  0  0  0  0
  1  2  1  0
  2  3  2  0
  3  4  1  0
  4  5  2  0
  5  6  1  0
  6  7  1  0
  6  8  2  0
  9  8  1  1
  9 10  1  0
 10 11  1  0
 11 12  1  0
 12 13  1  0
 13 14  2  0
 15 13  1  6
 15 16  1  0
 16 17  1  0
 17 18  2  0
 17 19  1  0
 19 20  1  0
 20 21  1  0
 21 22  1  0
 22 23  1  0
 24 23  1  6
 24 25  1  0
  8  2  1  0
 12  9  1  0
 25 15  1  0
 24 19  1  0
M  END
>  <energy_score>  (482) 
-30.767688

>  <inchikey>  (482) 
None

>  <smiles>  (482) 
None

>  <ref_pdb>  (482) 
A0875a

>  <alias>  (482) 
None

>  <HIPPO Pose ID>  (482) 
498126

>  <name>  (482) 
P498126

>  <HIPPO Compound ID>  (482) 
290593

>  <ref_mols>  (482) 
A4715a,A0875a

>  <distance_score>  (482) 
1.508325

>  <inspiration_score>  (482) 
None

$$$$
P498127
     RDKit          3D

 25 28  0  0  0  0  0  0  0  0999 V2000
   21.6893   10.2382   26.6606 C   0  0  0  0  0  0  0  0  0  0  0  0
   20.3842    9.8324   27.2795 C   0  0  0  0  0  0  0  0  0  0  0  0
   20.1798    8.5232   27.7099 C   0  0  0  0  0  0  0  0  0  0  0  0
   18.9664    8.1599   28.2832 C   0  0  0  0  0  0  0  0  0  0  0  0
   17.9666    9.1173   28.4661 C   0  0  0  0  0  0  0  0  0  0  0  0
   18.1374   10.4673   28.0986 C   0  0  0  0  0  0  0  0  0  0  0  0
   17.0277   11.5505   28.4778 C   0  0  1  0  0  0  0  0  0  0  0  0
   17.3945   13.0076   28.6811 C   0  0  2  0  0  0  0  0  0  0  0  0
   16.5791   13.8071   29.6900 C   0  0  0  0  0  0  0  0  0  0  0  0
   16.9834   13.1050   27.2386 C   0  0  0  0  0  0  0  0  0  0  0  0
   15.9350   11.9851   27.4780 N   0  0  0  0  0  0  0  0  0  0  0  0
   15.4823   11.3557   26.1663 C   0  0  0  0  0  0  0  0  0  0  0  0
   15.9168   10.4336   25.5727 O   0  0  0  0  0  0  0  0  0  0  0  0
   14.2706   12.1831   25.6493 C   0  0  2  0  0  0  0  0  0  0  0  0
   13.4359   12.6763   26.7776 C   0  0  0  0  0  0  0  0  0  0  0  0
   12.1154   13.3149   26.4141 C   0  0  0  0  0  0  0  0  0  0  0  0
   11.6518   14.1951   27.1337 O   0  0  0  0  0  0  0  0  0  0  0  0
   11.4031   12.8457   25.3493 N   0  0  0  0  0  0  0  0  0  0  0  0
   10.1429   13.5234   24.9886 C   0  0  0  0  0  0  0  0  0  0  0  0
    9.1834   12.6518   24.1850 C   0  0  0  0  0  0  0  0  0  0  0  0
    9.4198   11.1924   24.5122 C   0  0  0  0  0  0  0  0  0  0  0  0
   10.8554   10.8016   24.1402 C   0  0  0  0  0  0  0  0  0  0  0  0
   11.9401   11.9098   24.4018 C   0  0  2  0  0  0  0  0  0  0  0  0
   13.3538   11.3431   24.7831 C   0  0  0  0  0  0  0  0  0  0  0  0
   19.3757   10.7846   27.4970 C   0  0  0  0  0  0  0  0  0  0  0  0
  1  2  1  0
  2  3  2  0
  3  4  1  0
  4  5  2  0
  5  6  1  0
  7  6  1  6
  7  8  1  0
  8  9  1  1
  8 10  1  0
 10 11  1  0
 11 12  1  0
 12 13  2  0
 14 12  1  1
 14 15  1  0
 15 16  1  0
 16 17  2  0
 16 18  1  0
 18 19  1  0
 19 20  1  0
 20 21  1  0
 21 22  1  0
 23 22  1  1
 23 24  1  0
  6 25  2  0
 25  2  1  0
 11  7  1  0
 24 14  1  0
 23 18  1  0
M  END
>  <energy_score>  (483) 
-2.70693

>  <inchikey>  (483) 
None

>  <smiles>  (483) 
None

>  <ref_pdb>  (483) 
A0875a

>  <alias>  (483) 
None

>  <HIPPO Pose ID>  (483) 
498127

>  <name>  (483) 
P498127

>  <HIPPO Compound ID>  (483) 
290594

>  <ref_mols>  (483) 
A4715a,A0875a

>  <distance_score>  (483) 
1.727672

>  <inspiration_score>  (483) 
None

$$$$
P498128
     RDKit          3D

 25 28  0  0  0  0  0  0  0  0999 V2000
   20.3232   16.4275   27.0061 C   0  0  0  0  0  0  0  0  0  0  0  0
   18.9842   16.0190   27.5446 C   0  0  0  0  0  0  0  0  0  0  0  0
   18.1074   16.9715   28.0658 C   0  0  0  0  0  0  0  0  0  0  0  0
   16.8499   16.5868   28.5212 C   0  0  0  0  0  0  0  0  0  0  0  0
   16.4574   15.2481   28.4476 C   0  0  0  0  0  0  0  0  0  0  0  0
   17.2998   14.2511   27.9158 C   0  0  0  0  0  0  0  0  0  0  0  0
   16.8762   12.7209   27.8378 C   0  0  1  0  0  0  0  0  0  0  0  0
   16.5458   12.0475   29.1606 C   0  0  2  0  0  0  0  0  0  0  0  0
   17.6836   11.3495   29.8766 C   0  0  0  0  0  0  0  0  0  0  0  0
   15.6821   11.1911   28.2851 C   0  0  0  0  0  0  0  0  0  0  0  0
   15.4418   12.4289   27.3630 N   0  0  0  0  0  0  0  0  0  0  0  0
   14.9146   12.0115   25.9963 C   0  0  0  0  0  0  0  0  0  0  0  0
   15.4943   11.7393   25.0057 O   0  0  0  0  0  0  0  0  0  0  0  0
   13.3756   11.9413   26.1084 C   0  0  1  0  0  0  0  0  0  0  0  0
   12.7424   13.2727   26.2085 C   0  0  0  0  0  0  0  0  0  0  0  0
   11.2804   13.4398   26.2020 C   0  0  0  0  0  0  0  0  0  0  0  0
   10.7641   14.3559   26.8370 O   0  0  0  0  0  0  0  0  0  0  0  0
   10.5982   12.5896   25.3738 N   0  0  0  0  0  0  0  0  0  0  0  0
    9.2539   13.0336   25.0178 C   0  0  0  0  0  0  0  0  0  0  0  0
    8.5138   12.0454   24.1491 C   0  0  0  0  0  0  0  0  0  0  0  0
    8.9553   10.6357   24.4828 C   0  0  0  0  0  0  0  0  0  0  0  0
   10.4366   10.4393   24.1857 C   0  0  0  0  0  0  0  0  0  0  0  0
   11.2921   11.6898   24.4680 C   0  0  2  0  0  0  0  0  0  0  0  0
   12.7511   11.3066   24.8822 C   0  0  0  0  0  0  0  0  0  0  0  0
   18.5689   14.6802   27.4694 C   0  0  0  0  0  0  0  0  0  0  0  0
  1  2  1  0
  2  3  2  0
  3  4  1  0
  4  5  2  0
  5  6  1  0
  7  6  1  1
  7  8  1  0
  8  9  1  6
  8 10  1  0
 10 11  1  0
 11 12  1  0
 12 13  2  0
 14 12  1  6
 14 15  1  0
 15 16  1  0
 16 17  2  0
 16 18  1  0
 18 19  1  0
 19 20  1  0
 20 21  1  0
 21 22  1  0
 23 22  1  1
 23 24  1  0
  6 25  2  0
 25  2  1  0
 11  7  1  0
 24 14  1  0
 23 18  1  0
M  END
>  <energy_score>  (484) 
-10.227785

>  <inchikey>  (484) 
None

>  <smiles>  (484) 
None

>  <ref_pdb>  (484) 
A0875a

>  <alias>  (484) 
None

>  <HIPPO Pose ID>  (484) 
498128

>  <name>  (484) 
P498128

>  <HIPPO Compound ID>  (484) 
290594

>  <ref_mols>  (484) 
A4715a,A0875a

>  <distance_score>  (484) 
1.599886

>  <inspiration_score>  (484) 
None

$$$$
P498129
     RDKit          3D

 25 28  0  0  0  0  0  0  0  0999 V2000
   18.8956    7.8816   28.3241 C   0  0  0  0  0  0  0  0  0  0  0  0
   17.6564    8.5552   28.8313 C   0  0  0  0  0  0  0  0  0  0  0  0
   17.0405    8.0913   29.9944 C   0  0  0  0  0  0  0  0  0  0  0  0
   15.9033    8.7275   30.4787 C   0  0  0  0  0  0  0  0  0  0  0  0
   15.3795    9.8365   29.8061 C   0  0  0  0  0  0  0  0  0  0  0  0
   15.9602   10.3479   28.6244 C   0  0  0  0  0  0  0  0  0  0  0  0
   15.5492   11.7256   27.9758 C   0  0  2  0  0  0  0  0  0  0  0  0
   15.0117   12.7644   28.9774 C   0  0  1  0  0  0  0  0  0  0  0  0
   16.0200   13.4962   29.8434 C   0  0  0  0  0  0  0  0  0  0  0  0
   14.5952   13.4686   27.7241 C   0  0  0  0  0  0  0  0  0  0  0  0
   14.3137   12.0738   27.0871 N   0  0  0  0  0  0  0  0  0  0  0  0
   14.1745   12.1709   25.5383 C   0  0  0  0  0  0  0  0  0  0  0  0
   14.9978   12.0785   24.6866 O   0  0  0  0  0  0  0  0  0  0  0  0
   12.7035   12.5543   25.1043 C   0  0  1  0  0  0  0  0  0  0  0  0
   12.6645   13.2819   23.7454 C   0  0  0  0  0  0  0  0  0  0  0  0
   11.2889   13.8785   23.5023 C   0  0  0  0  0  0  0  0  0  0  0  0
   11.1110   14.9943   23.0338 O   0  0  0  0  0  0  0  0  0  0  0  0
   10.2635   13.0003   23.8202 N   0  0  0  0  0  0  0  0  0  0  0  0
    8.8781   13.3720   23.6172 C   0  0  0  0  0  0  0  0  0  0  0  0
    7.9638   12.6803   24.6223 C   0  0  0  0  0  0  0  0  0  0  0  0
    8.3844   11.2633   24.9945 C   0  0  0  0  0  0  0  0  0  0  0  0
    9.4342   10.6644   24.0769 C   0  0  0  0  0  0  0  0  0  0  0  0
   10.6223   11.6004   23.8738 C   0  0  2  0  0  0  0  0  0  0  0  0
   11.6480   11.4564   25.0003 C   0  0  0  0  0  0  0  0  0  0  0  0
   17.1121    9.6655   28.1636 C   0  0  0  0  0  0  0  0  0  0  0  0
  1  2  1  0
  2  3  2  0
  3  4  1  0
  4  5  2  0
  5  6  1  0
  7  6  1  1
  7  8  1  0
  8  9  1  6
  8 10  1  0
 10 11  1  0
 11 12  1  0
 12 13  2  0
 14 12  1  6
 14 15  1  0
 15 16  1  0
 16 17  2  0
 16 18  1  0
 18 19  1  0
 19 20  1  0
 20 21  1  0
 21 22  1  0
 23 22  1  1
 23 24  1  0
  6 25  2  0
 25  2  1  0
 11  7  1  0
 24 14  1  0
 23 18  1  0
M  END
>  <energy_score>  (485) 
-14.696644

>  <inchikey>  (485) 
None

>  <smiles>  (485) 
None

>  <ref_pdb>  (485) 
A0875a

>  <alias>  (485) 
None

>  <HIPPO Pose ID>  (485) 
498129

>  <name>  (485) 
P498129

>  <HIPPO Compound ID>  (485) 
290594

>  <ref_mols>  (485) 
A4715a,A0875a

>  <distance_score>  (485) 
1.56878

>  <inspiration_score>  (485) 
None

$$$$
P498130
     RDKit          3D

 25 28  0  0  0  0  0  0  0  0999 V2000
   20.6783   14.0374   26.4775 C   0  0  0  0  0  0  0  0  0  0  0  0
   19.3348   14.4048   27.0357 C   0  0  0  0  0  0  0  0  0  0  0  0
   19.1418   15.6457   27.6426 C   0  0  0  0  0  0  0  0  0  0  0  0
   17.8884   15.9884   28.1348 C   0  0  0  0  0  0  0  0  0  0  0  0
   16.8188   15.0988   27.9991 C   0  0  0  0  0  0  0  0  0  0  0  0
   16.9478   13.8446   27.3579 C   0  0  0  0  0  0  0  0  0  0  0  0
   15.7151   12.8459   27.2796 C   0  0  2  0  0  0  0  0  0  0  0  0
   15.9364   11.3963   27.5652 C   0  0  1  0  0  0  0  0  0  0  0  0
   15.2412   10.9181   28.8236 C   0  0  0  0  0  0  0  0  0  0  0  0
   15.4561   11.1779   26.1705 C   0  0  0  0  0  0  0  0  0  0  0  0
   14.8318   12.5875   25.9977 N   0  0  0  0  0  0  0  0  0  0  0  0
   13.3957   12.5115   25.8402 C   0  0  0  0  0  0  0  0  0  0  0  0
   12.5210   12.5430   26.6628 O   0  0  0  0  0  0  0  0  0  0  0  0
   12.8843   12.2438   24.4107 C   0  0  2  0  0  0  0  0  0  0  0  0
   12.5491   13.3984   23.4822 C   0  0  0  0  0  0  0  0  0  0  0  0
   11.1353   13.9634   23.4799 C   0  0  0  0  0  0  0  0  0  0  0  0
   10.9078   15.0122   22.8746 O   0  0  0  0  0  0  0  0  0  0  0  0
   10.1235   13.2042   24.0345 N   0  0  0  0  0  0  0  0  0  0  0  0
    8.7365   13.6061   23.8204 C   0  0  0  0  0  0  0  0  0  0  0  0
    7.8176   13.0480   24.9018 C   0  0  0  0  0  0  0  0  0  0  0  0
    7.9033   11.5526   25.0823 C   0  0  0  0  0  0  0  0  0  0  0  0
    9.2177   10.9925   24.5976 C   0  0  0  0  0  0  0  0  0  0  0  0
   10.3543   12.0024   24.8182 C   0  0  1  0  0  0  0  0  0  0  0  0
   11.6326   11.3358   24.4024 C   0  0  0  0  0  0  0  0  0  0  0  0
   18.2431   13.5287   26.9057 C   0  0  0  0  0  0  0  0  0  0  0  0
  1  2  1  0
  2  3  2  0
  3  4  1  0
  4  5  2  0
  5  6  1  0
  7  6  1  6
  7  8  1  0
  8  9  1  1
  8 10  1  0
 10 11  1  0
 11 12  1  0
 12 13  2  0
 14 12  1  1
 14 15  1  0
 15 16  1  0
 16 17  2  0
 16 18  1  0
 18 19  1  0
 19 20  1  0
 20 21  1  0
 21 22  1  0
 23 22  1  6
 23 24  1  0
  6 25  2  0
 25  2  1  0
 11  7  1  0
 24 14  1  0
 23 18  1  0
M  END
>  <energy_score>  (486) 
-4.927043

>  <inchikey>  (486) 
None

>  <smiles>  (486) 
None

>  <ref_pdb>  (486) 
A0875a

>  <alias>  (486) 
None

>  <HIPPO Pose ID>  (486) 
498130

>  <name>  (486) 
P498130

>  <HIPPO Compound ID>  (486) 
290594

>  <ref_mols>  (486) 
A4715a,A0875a

>  <distance_score>  (486) 
1.982829

>  <inspiration_score>  (486) 
None

$$$$
P498131
     RDKit          3D

 25 28  0  0  0  0  0  0  0  0999 V2000
   11.5831   14.6311   21.0199 C   0  0  0  0  0  0  0  0  0  0  0  0
   10.8518   14.9526   22.2310 N   0  0  0  0  0  0  0  0  0  0  0  0
    9.3689   15.1555   21.9496 C   0  0  0  0  0  0  0  0  0  0  0  0
    9.1817   14.6141   23.3796 C   0  0  1  0  0  0  0  0  0  0  0  0
    8.0337   13.8622   23.8789 N   0  0  0  0  0  0  0  0  0  0  0  0
    7.8534   13.0553   25.1887 C   0  0  0  0  0  0  0  0  0  0  0  0
    8.6178   12.8038   26.0315 O   0  0  0  0  0  0  0  0  0  0  0  0
    6.4131   12.6123   25.3787 C   0  0  2  0  0  0  0  0  0  0  0  0
    5.5008   13.6234   26.0940 C   0  0  0  0  0  0  0  0  0  0  0  0
    5.6706   13.6418   27.6199 C   0  0  0  0  0  0  0  0  0  0  0  0
    5.6103   14.6567   28.3048 O   0  0  0  0  0  0  0  0  0  0  0  0
    5.8256   12.3968   28.1904 N   0  0  0  0  0  0  0  0  0  0  0  0
    5.6790   12.2301   29.6360 C   0  0  0  0  0  0  0  0  0  0  0  0
    4.3463   11.5554   29.9460 C   0  0  0  0  0  0  0  0  0  0  0  0
    4.1517   10.2620   29.1409 C   0  0  0  0  0  0  0  0  0  0  0  0
    5.2587   10.0159   28.1185 C   0  0  0  0  0  0  0  0  0  0  0  0
    5.5063   11.2820   27.3294 C   0  0  2  0  0  0  0  0  0  0  0  0
    6.4437   11.2594   26.1289 C   0  0  0  0  0  0  0  0  0  0  0  0
   10.4125   13.7367   22.9939 C   0  0  2  0  0  0  0  0  0  0  0  0
   11.4431   13.2750   24.0802 C   0  0  0  0  0  0  0  0  0  0  0  0
   12.5648   12.5405   23.7106 C   0  0  0  0  0  0  0  0  0  0  0  0
   13.5055   12.0178   24.6124 C   0  0  0  0  0  0  0  0  0  0  0  0
   13.3963   12.3193   25.9443 C   0  0  0  0  0  0  0  0  0  0  0  0
   12.3427   13.1271   26.3371 C   0  0  0  0  0  0  0  0  0  0  0  0
   11.3510   13.5269   25.4426 C   0  0  0  0  0  0  0  0  0  0  0  0
  1  2  1  0
  2  3  1  0
  3  4  1  0
  4  5  1  6
  5  6  1  0
  6  7  2  0
  8  6  1  1
  8  9  1  0
  9 10  1  0
 10 11  2  0
 10 12  1  0
 12 13  1  0
 13 14  1  0
 14 15  1  0
 15 16  1  0
 17 16  1  1
 17 18  1  0
  4 19  1  0
 19 20  1  1
 20 21  2  0
 21 22  1  0
 22 23  2  0
 23 24  1  0
 24 25  2  0
 19  2  1  0
 25 20  1  0
 18  8  1  0
 17 12  1  0
M  END
>  <energy_score>  (487) 
-13.348425

>  <inchikey>  (487) 
None

>  <smiles>  (487) 
None

>  <ref_pdb>  (487) 
A0875a

>  <alias>  (487) 
None

>  <HIPPO Pose ID>  (487) 
498131

>  <name>  (487) 
P498131

>  <HIPPO Compound ID>  (487) 
290595

>  <ref_mols>  (487) 
A4715a,A0875a

>  <distance_score>  (487) 
1.966286

>  <inspiration_score>  (487) 
None

$$$$
P498132
     RDKit          3D

 25 28  0  0  0  0  0  0  0  0999 V2000
   11.0933   14.5555   21.3500 C   0  0  0  0  0  0  0  0  0  0  0  0
   10.4619   15.0764   22.5676 N   0  0  0  0  0  0  0  0  0  0  0  0
    8.9807   15.2579   22.3578 C   0  0  0  0  0  0  0  0  0  0  0  0
    8.7572   13.8291   22.9088 C   0  0  2  0  0  0  0  0  0  0  0  0
    7.6228   13.5080   23.8045 N   0  0  0  0  0  0  0  0  0  0  0  0
    7.6094   13.0318   25.2873 C   0  0  0  0  0  0  0  0  0  0  0  0
    8.4874   12.8961   26.0464 O   0  0  0  0  0  0  0  0  0  0  0  0
    6.1894   12.6016   25.7011 C   0  0  2  0  0  0  0  0  0  0  0  0
    5.3993   13.5778   26.5429 C   0  0  0  0  0  0  0  0  0  0  0  0
    5.8046   13.6170   28.0049 C   0  0  0  0  0  0  0  0  0  0  0  0
    5.8342   14.6649   28.6456 O   0  0  0  0  0  0  0  0  0  0  0  0
    6.0605   12.3966   28.5934 N   0  0  0  0  0  0  0  0  0  0  0  0
    5.9650   12.3131   30.0540 C   0  0  0  0  0  0  0  0  0  0  0  0
    5.3501   10.9919   30.5189 C   0  0  0  0  0  0  0  0  0  0  0  0
    4.1872   10.5391   29.6237 C   0  0  0  0  0  0  0  0  0  0  0  0
    4.4058   10.7452   28.1182 C   0  0  0  0  0  0  0  0  0  0  0  0
    5.8282   11.1773   27.8479 C   0  0  1  0  0  0  0  0  0  0  0  0
    6.3173   11.2474   26.3985 C   0  0  0  0  0  0  0  0  0  0  0  0
   10.1138   14.0755   23.6116 C   0  0  1  0  0  0  0  0  0  0  0  0
   11.1371   12.9268   23.9267 C   0  0  0  0  0  0  0  0  0  0  0  0
   10.7414   11.6166   24.2222 C   0  0  0  0  0  0  0  0  0  0  0  0
   11.6490   10.6806   24.7095 C   0  0  0  0  0  0  0  0  0  0  0  0
   12.9841   11.0445   24.9519 C   0  0  0  0  0  0  0  0  0  0  0  0
   13.4153   12.3112   24.6423 C   0  0  0  0  0  0  0  0  0  0  0  0
   12.5036   13.1998   24.0894 C   0  0  0  0  0  0  0  0  0  0  0  0
  1  2  1  0
  2  3  1  0
  3  4  1  0
  4  5  1  1
  5  6  1  0
  6  7  2  0
  8  6  1  1
  8  9  1  0
  9 10  1  0
 10 11  2  0
 10 12  1  0
 12 13  1  0
 13 14  1  0
 14 15  1  0
 15 16  1  0
 17 16  1  6
 17 18  1  0
  4 19  1  0
 19 20  1  6
 20 21  2  0
 21 22  1  0
 22 23  2  0
 23 24  1  0
 24 25  2  0
 19  2  1  0
 25 20  1  0
 18  8  1  0
 17 12  1  0
M  END
>  <energy_score>  (488) 
-17.605524

>  <inchikey>  (488) 
None

>  <smiles>  (488) 
None

>  <ref_pdb>  (488) 
A0875a

>  <alias>  (488) 
None

>  <HIPPO Pose ID>  (488) 
498132

>  <name>  (488) 
P498132

>  <HIPPO Compound ID>  (488) 
290595

>  <ref_mols>  (488) 
A4715a,A0875a

>  <distance_score>  (488) 
1.874222

>  <inspiration_score>  (488) 
None

$$$$
P498133
     RDKit          3D

 31 33  0  0  0  0  0  0  0  0999 V2000
   10.4998    8.9986   23.9084 C   0  0  0  0  0  0  0  0  0  0  0  0
   11.4960    9.5856   24.7425 O   0  0  0  0  0  0  0  0  0  0  0  0
   11.6939   10.9249   24.5408 C   0  0  0  0  0  0  0  0  0  0  0  0
   12.9172   11.4203   24.9859 C   0  0  0  0  0  0  0  0  0  0  0  0
   13.3529   12.6414   24.5343 C   0  0  0  0  0  0  0  0  0  0  0  0
   12.5304   13.4115   23.7149 C   0  0  0  0  0  0  0  0  0  0  0  0
   11.2587   12.9999   23.3248 C   0  0  0  0  0  0  0  0  0  0  0  0
   10.2690   13.8531   22.4622 C   0  0  2  0  0  0  0  0  0  0  0  0
   10.6132   15.2447   22.0279 C   0  0  0  0  0  0  0  0  0  0  0  0
    9.1329   15.4597   22.1426 C   0  0  0  0  0  0  0  0  0  0  0  0
    9.0495   14.4642   23.2797 N   0  0  0  0  0  0  0  0  0  0  0  0
    8.0082   13.4089   23.5944 C   0  0  0  0  0  0  0  0  0  0  0  0
    7.0621   13.0667   22.9824 O   0  0  0  0  0  0  0  0  0  0  0  0
    8.2781   12.8282   25.0045 C   0  0  0  0  0  0  0  0  0  0  0  0
    7.0918   12.0713   25.6223 C   0  0  0  0  0  0  0  0  0  0  0  0
    6.2606   12.9225   26.5772 C   0  0  0  0  0  0  0  0  0  0  0  0
    5.0380   12.3301   27.1347 N   0  0  0  0  0  0  0  0  0  0  0  0
    4.0906   13.3647   27.5829 C   0  0  0  0  0  0  0  0  0  0  0  0
    4.4300   13.9493   28.9549 C   0  0  0  0  0  0  0  0  0  0  0  0
    4.7566   12.8614   29.9839 C   0  0  0  0  0  0  0  0  0  0  0  0
    4.0727   13.0826   31.2370 N   0  0  0  0  0  0  0  0  0  0  0  0
    4.5239   12.8320   32.6668 C   0  0  0  0  0  0  0  0  0  0  0  0
    5.5471   12.4782   33.0815 O   0  0  0  0  0  0  0  0  0  0  0  0
    3.4267   13.1090   33.4163 O   0  0  0  0  0  0  0  0  0  0  0  0
    3.4419   12.9715   34.8618 C   0  0  0  0  0  0  0  0  0  0  0  0
    4.4566   13.9240   35.5026 C   0  0  0  0  0  0  0  0  0  0  0  0
    3.6830   11.5159   35.2760 C   0  0  0  0  0  0  0  0  0  0  0  0
    2.0310   13.3838   35.3076 C   0  0  0  0  0  0  0  0  0  0  0  0
    4.4715   11.4619   29.4382 C   0  0  0  0  0  0  0  0  0  0  0  0
    5.2286   11.2662   28.1209 C   0  0  0  0  0  0  0  0  0  0  0  0
   10.9053   11.7052   23.7034 C   0  0  0  0  0  0  0  0  0  0  0  0
  1  2  1  0
  2  3  1  0
  3  4  2  0
  4  5  1  0
  5  6  2  0
  6  7  1  0
  8  7  1  1
  8  9  1  0
  9 10  1  0
 10 11  1  0
 11 12  1  0
 12 13  2  0
 12 14  1  0
 14 15  1  0
 15 16  1  0
 16 17  1  0
 17 18  1  0
 18 19  1  0
 19 20  1  0
 20 21  1  0
 21 22  1  0
 22 23  2  0
 22 24  1  0
 24 25  1  0
 25 26  1  0
 25 27  1  0
 25 28  1  0
 20 29  1  0
 29 30  1  0
  7 31  2  0
 31  3  1  0
 11  8  1  0
 30 17  1  0
M  END
>  <energy_score>  (489) 
-32.631323

>  <inchikey>  (489) 
None

>  <smiles>  (489) 
None

>  <ref_pdb>  (489) 
A0875a

>  <alias>  (489) 
None

>  <HIPPO Pose ID>  (489) 
498133

>  <name>  (489) 
P498133

>  <HIPPO Compound ID>  (489) 
290707

>  <ref_mols>  (489) 
A4715a,A0875a

>  <distance_score>  (489) 
1.293408

>  <inspiration_score>  (489) 
None

$$$$
P498134
     RDKit          3D

 31 33  0  0  0  0  0  0  0  0999 V2000
   10.3541    9.1061   23.8495 C   0  0  0  0  0  0  0  0  0  0  0  0
   11.2773    9.7306   24.7332 O   0  0  0  0  0  0  0  0  0  0  0  0
   11.4862   11.0597   24.4950 C   0  0  0  0  0  0  0  0  0  0  0  0
   12.7160   11.5417   24.9305 C   0  0  0  0  0  0  0  0  0  0  0  0
   13.1810   12.7328   24.4307 C   0  0  0  0  0  0  0  0  0  0  0  0
   12.3757   13.4953   23.5887 C   0  0  0  0  0  0  0  0  0  0  0  0
   11.0754   13.1135   23.2453 C   0  0  0  0  0  0  0  0  0  0  0  0
   10.1464   13.9698   22.3202 C   0  0  2  0  0  0  0  0  0  0  0  0
   10.5462   15.3662   21.9436 C   0  0  0  0  0  0  0  0  0  0  0  0
    9.0694   15.5887   21.8783 C   0  0  0  0  0  0  0  0  0  0  0  0
    8.8411   14.5940   22.9833 N   0  0  0  0  0  0  0  0  0  0  0  0
    7.8326   13.6129   23.1586 C   0  0  0  0  0  0  0  0  0  0  0  0
    6.9425   13.2662   22.4227 O   0  0  0  0  0  0  0  0  0  0  0  0
    7.8644   12.9951   24.5671 C   0  0  0  0  0  0  0  0  0  0  0  0
    6.4723   13.0997   25.2141 C   0  0  0  0  0  0  0  0  0  0  0  0
    6.4248   12.7268   26.6987 C   0  0  0  0  0  0  0  0  0  0  0  0
    5.5747   13.5429   27.6020 N   0  0  0  0  0  0  0  0  0  0  0  0
    4.2724   13.9179   27.0208 C   0  0  0  0  0  0  0  0  0  0  0  0
    3.4066   14.7363   27.9841 C   0  0  0  0  0  0  0  0  0  0  0  0
    3.1738   13.9783   29.2878 C   0  0  0  0  0  0  0  0  0  0  0  0
    2.2580   12.8689   29.0587 N   0  0  0  0  0  0  0  0  0  0  0  0
    2.1081   11.6416   29.7272 C   0  0  0  0  0  0  0  0  0  0  0  0
    2.7419   11.1513   30.6073 O   0  0  0  0  0  0  0  0  0  0  0  0
    1.0323   11.0418   29.1454 O   0  0  0  0  0  0  0  0  0  0  0  0
    0.5389    9.7646   29.6339 C   0  0  0  0  0  0  0  0  0  0  0  0
    1.5669    8.6520   29.3992 C   0  0  0  0  0  0  0  0  0  0  0  0
    0.1038    9.8496   31.1019 C   0  0  0  0  0  0  0  0  0  0  0  0
   -0.7034    9.4707   28.7787 C   0  0  0  0  0  0  0  0  0  0  0  0
    4.5332   13.5896   29.8731 C   0  0  0  0  0  0  0  0  0  0  0  0
    5.3866   12.8132   28.8728 C   0  0  0  0  0  0  0  0  0  0  0  0
   10.6801   11.8472   23.6842 C   0  0  0  0  0  0  0  0  0  0  0  0
  1  2  1  0
  2  3  1  0
  3  4  2  0
  4  5  1  0
  5  6  2  0
  6  7  1  0
  8  7  1  1
  8  9  1  0
  9 10  1  0
 10 11  1  0
 11 12  1  0
 12 13  2  0
 12 14  1  0
 14 15  1  0
 15 16  1  0
 16 17  1  0
 17 18  1  0
 18 19  1  0
 19 20  1  0
 20 21  1  0
 21 22  1  0
 22 23  2  0
 22 24  1  0
 24 25  1  0
 25 26  1  0
 25 27  1  0
 25 28  1  0
 20 29  1  0
 29 30  1  0
  7 31  2  0
 31  3  1  0
 11  8  1  0
 30 17  1  0
M  END
>  <energy_score>  (490) 
-44.08205

>  <inchikey>  (490) 
None

>  <smiles>  (490) 
None

>  <ref_pdb>  (490) 
A0875a

>  <alias>  (490) 
None

>  <HIPPO Pose ID>  (490) 
498134

>  <name>  (490) 
P498134

>  <HIPPO Compound ID>  (490) 
290707

>  <ref_mols>  (490) 
A4715a,A0875a

>  <distance_score>  (490) 
1.593817

>  <inspiration_score>  (490) 
None

$$$$
P498135
     RDKit          3D

 22 24  0  0  0  0  0  0  0  0999 V2000
   11.7587   14.0456   21.1768 C   0  0  0  0  0  0  0  0  0  0  0  0
   11.5188   15.5147   21.0798 C   0  0  2  0  0  0  0  0  0  0  0  0
   10.9069   16.2008   22.6582 S   0  0  0  0  0  0  0  0  0  0  0  0
   10.5086   14.8376   23.5809 C   0  0  0  0  0  0  0  0  0  0  0  0
   11.3708   14.2984   24.4021 N   0  0  0  0  0  0  0  0  0  0  0  0
   10.9308   13.0455   24.6637 N   0  0  0  0  0  0  0  0  0  0  0  0
    9.7511   12.8988   24.0982 C   0  0  0  0  0  0  0  0  0  0  0  0
    8.9011   11.7557   24.2480 C   0  0  0  0  0  0  0  0  0  0  0  0
    7.8452   11.8510   25.1482 C   0  0  0  0  0  0  0  0  0  0  0  0
    7.1394   10.7092   25.4268 C   0  0  0  0  0  0  0  0  0  0  0  0
    7.4321    9.5156   24.8865 N   0  0  0  0  0  0  0  0  0  0  0  0
    8.4537    9.4550   23.9983 C   0  0  0  0  0  0  0  0  0  0  0  0
    9.1921   10.5512   23.6236 C   0  0  0  0  0  0  0  0  0  0  0  0
    9.4111   14.0449   23.4385 N   0  0  0  0  0  0  0  0  0  0  0  0
    8.1941   14.2606   22.7019 C   0  0  0  0  0  0  0  0  0  0  0  0
   10.5942   15.7712   19.8932 C   0  0  0  0  0  0  0  0  0  0  0  0
   10.7449   15.2094   18.8111 O   0  0  0  0  0  0  0  0  0  0  0  0
    9.6064   16.7696   20.1491 C   0  0  0  0  0  0  0  0  0  0  0  0
    9.5743   18.1080   19.8656 C   0  0  0  0  0  0  0  0  0  0  0  0
    8.6770   18.6960   20.7524 C   0  0  0  0  0  0  0  0  0  0  0  0
    8.0438   17.6518   21.3833 C   0  0  0  0  0  0  0  0  0  0  0  0
    8.5823   16.4708   21.0032 O   0  0  0  0  0  0  0  0  0  0  0  0
  2  1  1  1
  2  3  1  0
  3  4  1  0
  4  5  2  0
  5  6  1  0
  6  7  2  0
  7  8  1  0
  8  9  2  0
  9 10  1  0
 10 11  2  0
 11 12  1  0
 12 13  2  0
  7 14  1  0
 14 15  1  0
  2 16  1  0
 16 17  2  0
 16 18  1  0
 18 19  2  0
 19 20  1  0
 20 21  2  0
 21 22  1  0
 14  4  1  0
 22 18  1  0
 13  8  1  0
M  END
>  <energy_score>  (491) 
-2.605288

>  <inchikey>  (491) 
None

>  <smiles>  (491) 
None

>  <ref_pdb>  (491) 
A4298a

>  <alias>  (491) 
None

>  <HIPPO Pose ID>  (491) 
498135

>  <name>  (491) 
P498135

>  <HIPPO Compound ID>  (491) 
290811

>  <ref_mols>  (491) 
A4298a,A1778a

>  <distance_score>  (491) 
1.91381

>  <inspiration_score>  (491) 
None

$$$$
P498136
     RDKit          3D

 24 27  0  0  0  0  0  0  0  0999 V2000
   11.6883   14.0804   21.2711 C   0  0  0  0  0  0  0  0  0  0  0  0
   11.3825   15.5429   21.2576 C   0  0  2  0  0  0  0  0  0  0  0  0
   10.5850   16.1014   22.8168 S   0  0  0  0  0  0  0  0  0  0  0  0
   10.2815   14.6812   23.6789 C   0  0  0  0  0  0  0  0  0  0  0  0
   11.2578   14.1069   24.3381 N   0  0  0  0  0  0  0  0  0  0  0  0
   10.9088   12.8126   24.5114 N   0  0  0  0  0  0  0  0  0  0  0  0
    9.6667   12.6674   24.0955 C   0  0  0  0  0  0  0  0  0  0  0  0
    8.8876   11.4729   24.2305 C   0  0  0  0  0  0  0  0  0  0  0  0
    7.8832   11.4481   25.1975 C   0  0  0  0  0  0  0  0  0  0  0  0
    7.2197   10.2711   25.4056 C   0  0  0  0  0  0  0  0  0  0  0  0
    7.5305    9.1431   24.7555 N   0  0  0  0  0  0  0  0  0  0  0  0
    8.5251    9.1857   23.8347 C   0  0  0  0  0  0  0  0  0  0  0  0
    9.2075   10.3310   23.5160 C   0  0  0  0  0  0  0  0  0  0  0  0
    9.1871   13.8640   23.6349 N   0  0  0  0  0  0  0  0  0  0  0  0
    7.7368   14.0785   23.3466 C   0  0  0  0  0  0  0  0  0  0  0  0
    7.0733   15.4045   23.1944 C   0  0  0  0  0  0  0  0  0  0  0  0
    7.1770   14.4624   22.0162 C   0  0  0  0  0  0  0  0  0  0  0  0
   10.5793   15.8671   19.9950 C   0  0  0  0  0  0  0  0  0  0  0  0
   10.7889   15.3120   18.9183 O   0  0  0  0  0  0  0  0  0  0  0  0
    9.6551   16.9406   20.1696 C   0  0  0  0  0  0  0  0  0  0  0  0
    9.6269   18.2415   19.7540 C   0  0  0  0  0  0  0  0  0  0  0  0
    8.7159   18.9331   20.5462 C   0  0  0  0  0  0  0  0  0  0  0  0
    8.0966   17.9579   21.2793 C   0  0  0  0  0  0  0  0  0  0  0  0
    8.6198   16.7489   21.0230 O   0  0  0  0  0  0  0  0  0  0  0  0
  2  1  1  1
  2  3  1  0
  3  4  1  0
  4  5  2  0
  5  6  1  0
  6  7  2  0
  7  8  1  0
  8  9  2  0
  9 10  1  0
 10 11  2  0
 11 12  1  0
 12 13  2  0
  7 14  1  0
 14 15  1  0
 15 16  1  0
 16 17  1  0
  2 18  1  0
 18 19  2  0
 18 20  1  0
 20 21  2  0
 21 22  1  0
 22 23  2  0
 23 24  1  0
 14  4  1  0
 17 15  1  0
 24 20  1  0
 13  8  1  0
M  END
>  <energy_score>  (492) 
-6.301802

>  <inchikey>  (492) 
None

>  <smiles>  (492) 
None

>  <ref_pdb>  (492) 
A4298a

>  <alias>  (492) 
None

>  <HIPPO Pose ID>  (492) 
498136

>  <name>  (492) 
P498136

>  <HIPPO Compound ID>  (492) 
290815

>  <ref_mols>  (492) 
A4298a,A1778a

>  <distance_score>  (492) 
1.965794

>  <inspiration_score>  (492) 
None

$$$$
P498137
     RDKit          3D

 28 31  0  0  0  0  0  0  0  0999 V2000
   11.9180   13.8201   23.0985 C   0  0  0  0  0  0  0  0  0  0  0  0
   11.2622   14.7849   22.1600 C   0  0  2  0  0  0  0  0  0  0  0  0
    9.4042   14.6579   22.2341 S   0  0  0  0  0  0  0  0  0  0  0  0
    9.2328   15.0310   23.8838 C   0  0  0  0  0  0  0  0  0  0  0  0
   10.0477   15.7822   24.5735 N   0  0  0  0  0  0  0  0  0  0  0  0
    9.6087   15.7634   25.8546 N   0  0  0  0  0  0  0  0  0  0  0  0
    8.4908   15.0499   25.9121 C   0  0  0  0  0  0  0  0  0  0  0  0
    7.6413   14.9968   27.0980 C   0  0  0  0  0  0  0  0  0  0  0  0
    6.2470   14.9515   27.0416 C   0  0  0  0  0  0  0  0  0  0  0  0
    5.5281   14.9380   28.2280 C   0  0  0  0  0  0  0  0  0  0  0  0
    6.0947   14.9881   29.4498 N   0  0  0  0  0  0  0  0  0  0  0  0
    7.4354   15.1078   29.4898 C   0  0  0  0  0  0  0  0  0  0  0  0
    8.2351   15.1264   28.3595 C   0  0  0  0  0  0  0  0  0  0  0  0
    8.3204   14.4341   24.6929 N   0  0  0  0  0  0  0  0  0  0  0  0
    7.4067   13.3867   24.3068 C   0  0  0  0  0  0  0  0  0  0  0  0
    8.0034   11.9964   24.3521 C   0  0  0  0  0  0  0  0  0  0  0  0
    9.0362   11.5516   23.5116 C   0  0  0  0  0  0  0  0  0  0  0  0
    9.3228   10.1975   23.3735 C   0  0  0  0  0  0  0  0  0  0  0  0
    8.6198    9.2677   24.1042 C   0  0  0  0  0  0  0  0  0  0  0  0
    7.6328    9.6915   24.9829 C   0  0  0  0  0  0  0  0  0  0  0  0
    7.3390   11.0421   25.1244 C   0  0  0  0  0  0  0  0  0  0  0  0
   11.6543   14.6586   20.6941 C   0  0  0  0  0  0  0  0  0  0  0  0
   12.3446   13.8078   20.1620 O   0  0  0  0  0  0  0  0  0  0  0  0
   10.9893   15.6460   19.9578 C   0  0  0  0  0  0  0  0  0  0  0  0
   10.5119   16.8509   20.3994 C   0  0  0  0  0  0  0  0  0  0  0  0
    9.6889   17.2703   19.3917 C   0  0  0  0  0  0  0  0  0  0  0  0
    9.5735   16.1965   18.5180 C   0  0  0  0  0  0  0  0  0  0  0  0
   10.4735   15.2558   18.7885 O   0  0  0  0  0  0  0  0  0  0  0  0
  2  1  1  1
  2  3  1  0
  3  4  1  0
  4  5  2  0
  5  6  1  0
  6  7  2  0
  7  8  1  0
  8  9  2  0
  9 10  1  0
 10 11  2  0
 11 12  1  0
 12 13  2  0
  7 14  1  0
 14 15  1  0
 15 16  1  0
 16 17  2  0
 17 18  1  0
 18 19  2  0
 19 20  1  0
 20 21  2  0
  2 22  1  0
 22 23  2  0
 22 24  1  0
 24 25  2  0
 25 26  1  0
 26 27  2  0
 27 28  1  0
 14  4  1  0
 21 16  1  0
 28 24  1  0
 13  8  1  0
M  END
>  <energy_score>  (493) 
-0.765736

>  <inchikey>  (493) 
None

>  <smiles>  (493) 
None

>  <ref_pdb>  (493) 
A4298a

>  <alias>  (493) 
None

>  <HIPPO Pose ID>  (493) 
498137

>  <name>  (493) 
P498137

>  <HIPPO Compound ID>  (493) 
290827

>  <ref_mols>  (493) 
A4298a,A1778a

>  <distance_score>  (493) 
1.985255

>  <inspiration_score>  (493) 
None

$$$$
P498138
     RDKit          3D

 19 21  0  0  0  0  0  0  0  0999 V2000
   12.7360   15.5945   22.1811 C   0  0  0  0  0  0  0  0  0  0  0  0
   11.8953   14.4921   21.6029 C   0  0  1  0  0  0  0  0  0  0  0  0
   10.8943   14.0181   22.5118 N   0  0  0  0  0  0  0  0  0  0  0  0
   10.8049   14.1232   24.0405 C   0  0  0  0  0  0  0  0  0  0  0  0
   11.4894   14.6773   24.7993 O   0  0  0  0  0  0  0  0  0  0  0  0
    9.6396   13.2959   24.4235 C   0  0  0  0  0  0  0  0  0  0  0  0
    9.5144   11.9498   23.9088 C   0  0  0  0  0  0  0  0  0  0  0  0
    8.5256   11.1995   24.3696 C   0  0  0  0  0  0  0  0  0  0  0  0
    7.6395   11.6885   25.2739 N   0  0  0  0  0  0  0  0  0  0  0  0
    7.6518   12.9564   25.7571 C   0  0  0  0  0  0  0  0  0  0  0  0
    6.8376   13.3293   26.5897 O   0  0  0  0  0  0  0  0  0  0  0  0
    8.7539   13.8153   25.2847 C   0  0  0  0  0  0  0  0  0  0  0  0
    6.6056   10.8098   25.7104 C   0  0  0  0  0  0  0  0  0  0  0  0
    6.8645    9.4579   25.1215 C   0  0  0  0  0  0  0  0  0  0  0  0
    8.2578    9.5701   23.9713 S   0  0  0  0  0  0  0  0  0  0  0  0
   11.0825   14.8502   20.3779 C   0  0  1  0  0  0  0  0  0  0  0  0
   10.2087   16.1015   20.2666 C   0  0  0  0  0  0  0  0  0  0  0  0
   10.6750   16.0403   18.8070 C   0  0  0  0  0  0  0  0  0  0  0  0
   11.8555   15.2699   19.2223 O   0  0  0  0  0  0  0  0  0  0  0  0
  2  1  1  1
  2  3  1  0
  3  4  1  0
  4  5  2  0
  4  6  1  0
  6  7  1  0
  7  8  2  0
  8  9  1  0
  9 10  1  0
 10 11  2  0
 10 12  1  0
  9 13  1  0
 13 14  1  0
 14 15  1  0
  2 16  1  0
 16 17  1  1
 17 18  1  0
 18 19  1  0
 12  6  2  0
 19 16  1  0
 15  8  1  0
M  END
>  <energy_score>  (494) 
-20.258617

>  <inchikey>  (494) 
None

>  <smiles>  (494) 
None

>  <ref_pdb>  (494) 
A3176a

>  <alias>  (494) 
None

>  <HIPPO Pose ID>  (494) 
498138

>  <name>  (494) 
P498138

>  <HIPPO Compound ID>  (494) 
290958

>  <ref_mols>  (494) 
A3176a,A2629a

>  <distance_score>  (494) 
1.911063

>  <inspiration_score>  (494) 
None

$$$$
P498139
     RDKit          3D

 19 21  0  0  0  0  0  0  0  0999 V2000
   12.3246   15.9396   22.2993 C   0  0  0  0  0  0  0  0  0  0  0  0
   11.3149   15.3157   21.3529 C   0  0  1  0  0  0  0  0  0  0  0  0
   10.5652   14.3973   22.1671 N   0  0  0  0  0  0  0  0  0  0  0  0
    9.2016   14.5670   22.8774 C   0  0  0  0  0  0  0  0  0  0  0  0
    8.4404   15.4482   22.8494 O   0  0  0  0  0  0  0  0  0  0  0  0
    8.8917   13.3050   23.5987 C   0  0  0  0  0  0  0  0  0  0  0  0
    9.4971   12.0791   23.1638 C   0  0  0  0  0  0  0  0  0  0  0  0
    9.0768   10.9463   23.6726 C   0  0  0  0  0  0  0  0  0  0  0  0
    8.0679   10.9120   24.5710 N   0  0  0  0  0  0  0  0  0  0  0  0
    7.4721   12.0137   25.1125 C   0  0  0  0  0  0  0  0  0  0  0  0
    6.6339   11.9347   26.0022 O   0  0  0  0  0  0  0  0  0  0  0  0
    7.9220   13.3058   24.5346 C   0  0  0  0  0  0  0  0  0  0  0  0
    7.5777    9.6083   24.8499 C   0  0  0  0  0  0  0  0  0  0  0  0
    8.3199    8.6214   23.9736 C   0  0  0  0  0  0  0  0  0  0  0  0
    9.6737    9.4412   23.1828 S   0  0  0  0  0  0  0  0  0  0  0  0
   10.3890   16.1899   20.5089 C   0  0  0  0  0  0  0  0  0  0  0  0
   10.6069   15.7381   19.0691 C   0  0  0  0  0  0  0  0  0  0  0  0
   11.2829   14.4837   19.1313 O   0  0  0  0  0  0  0  0  0  0  0  0
   12.1064   14.5507   20.2876 C   0  0  0  0  0  0  0  0  0  0  0  0
  2  1  1  1
  2  3  1  0
  3  4  1  0
  4  5  2  0
  4  6  1  0
  6  7  1  0
  7  8  2  0
  8  9  1  0
  9 10  1  0
 10 11  2  0
 10 12  1  0
  9 13  1  0
 13 14  1  0
 14 15  1  0
  2 16  1  0
 16 17  1  0
 17 18  1  0
 18 19  1  0
 19  2  1  0
 12  6  2  0
 15  8  1  0
M  END
>  <energy_score>  (495) 
-4.420134

>  <inchikey>  (495) 
None

>  <smiles>  (495) 
None

>  <ref_pdb>  (495) 
A3176a

>  <alias>  (495) 
None

>  <HIPPO Pose ID>  (495) 
498139

>  <name>  (495) 
P498139

>  <HIPPO Compound ID>  (495) 
290971

>  <ref_mols>  (495) 
A3176a,A2629a

>  <distance_score>  (495) 
1.820115

>  <inspiration_score>  (495) 
None

$$$$
P498140
     RDKit          3D

 20 20  0  0  0  0  0  0  0  0999 V2000
   12.7841   13.8519   24.4584 C   0  0  0  0  0  0  0  0  0  0  0  0
   12.6379   14.5035   23.2924 C   0  0  0  0  0  0  0  0  0  0  0  0
   11.7135   14.1518   22.1492 C   0  0  2  0  0  0  0  0  0  0  0  0
   11.2370   15.3832   21.3674 C   0  0  0  0  0  0  0  0  0  0  0  0
   10.5545   14.9861   20.1744 O   0  0  0  0  0  0  0  0  0  0  0  0
   11.3916   14.9875   19.0268 C   0  0  0  0  0  0  0  0  0  0  0  0
   10.5972   13.4092   22.6674 N   0  0  0  0  0  0  0  0  0  0  0  0
    9.6181   13.7415   23.8032 C   0  0  0  0  0  0  0  0  0  0  0  0
    9.5110   14.7049   24.4512 O   0  0  0  0  0  0  0  0  0  0  0  0
    8.7356   12.5868   24.1820 C   0  0  0  0  0  0  0  0  0  0  0  0
    8.9410   11.2654   23.8104 C   0  0  0  0  0  0  0  0  0  0  0  0
    8.1498   10.3003   24.3980 C   0  0  0  0  0  0  0  0  0  0  0  0
    7.1980   10.5702   25.3118 N   0  0  0  0  0  0  0  0  0  0  0  0
    6.9667   11.8591   25.6474 C   0  0  0  0  0  0  0  0  0  0  0  0
    5.7286   12.0362   26.9118 S   0  0  0  0  0  0  0  0  0  0  0  0
    5.0570   13.7685   26.8834 C   0  0  0  0  0  0  0  0  0  0  0  0
    6.0085   14.7347   27.6024 C   0  0  0  0  0  0  0  0  0  0  0  0
    3.7603   13.6890   27.7216 C   0  0  0  0  0  0  0  0  0  0  0  0
    4.6678   14.2691   25.4893 C   0  0  0  0  0  0  0  0  0  0  0  0
    7.7217   12.8716   25.0996 C   0  0  0  0  0  0  0  0  0  0  0  0
  1  2  2  0
  2  3  1  0
  3  4  1  1
  4  5  1  0
  5  6  1  0
  3  7  1  0
  7  8  1  0
  8  9  2  0
  8 10  1  0
 10 11  2  0
 11 12  1  0
 12 13  2  0
 13 14  1  0
 14 15  1  0
 15 16  1  0
 16 17  1  0
 16 18  1  0
 16 19  1  0
 14 20  2  0
 20 10  1  0
M  END
>  <energy_score>  (496) 
-0.212605

>  <inchikey>  (496) 
None

>  <smiles>  (496) 
None

>  <ref_pdb>  (496) 
A3176a

>  <alias>  (496) 
None

>  <HIPPO Pose ID>  (496) 
498140

>  <name>  (496) 
P498140

>  <HIPPO Compound ID>  (496) 
291028

>  <ref_mols>  (496) 
A3176a,A2629a

>  <distance_score>  (496) 
1.940412

>  <inspiration_score>  (496) 
None

$$$$
P498141
     RDKit          3D

 20 20  0  0  0  0  0  0  0  0999 V2000
   12.5364   14.4492   24.7985 C   0  0  0  0  0  0  0  0  0  0  0  0
   12.7068   14.4674   23.2853 C   0  0  0  0  0  0  0  0  0  0  0  0
   11.5166   14.9482   22.4610 C   0  0  1  0  0  0  0  0  0  0  0  0
   11.8048   14.8356   20.9666 C   0  0  0  0  0  0  0  0  0  0  0  0
   10.6779   15.3247   20.2498 O   0  0  0  0  0  0  0  0  0  0  0  0
   10.8961   15.2981   18.8467 C   0  0  0  0  0  0  0  0  0  0  0  0
   10.3538   14.2312   22.9065 N   0  0  0  0  0  0  0  0  0  0  0  0
    9.4723   14.4367   24.1345 C   0  0  0  0  0  0  0  0  0  0  0  0
    9.4945   15.2676   24.9487 O   0  0  0  0  0  0  0  0  0  0  0  0
    8.4942   13.3412   24.3751 C   0  0  0  0  0  0  0  0  0  0  0  0
    8.6895   12.0162   23.9999 C   0  0  0  0  0  0  0  0  0  0  0  0
    7.9956   11.0501   24.7069 C   0  0  0  0  0  0  0  0  0  0  0  0
    7.2134   11.3232   25.7763 N   0  0  0  0  0  0  0  0  0  0  0  0
    7.0005   12.6193   26.0810 C   0  0  0  0  0  0  0  0  0  0  0  0
    6.3627   13.0946   27.6947 S   0  0  0  0  0  0  0  0  0  0  0  0
    4.7746   12.2103   27.8417 C   0  0  0  0  0  0  0  0  0  0  0  0
    4.3039   12.4018   29.2948 C   0  0  0  0  0  0  0  0  0  0  0  0
    4.9536   10.7204   27.5796 C   0  0  0  0  0  0  0  0  0  0  0  0
    3.7569   12.8612   26.9054 C   0  0  0  0  0  0  0  0  0  0  0  0
    7.5618   13.6406   25.3584 C   0  0  0  0  0  0  0  0  0  0  0  0
  1  2  1  0
  3  2  1  1
  3  4  1  0
  4  5  1  0
  5  6  1  0
  3  7  1  0
  7  8  1  0
  8  9  2  0
  8 10  1  0
 10 11  2  0
 11 12  1  0
 12 13  2  0
 13 14  1  0
 14 15  1  0
 15 16  1  0
 16 17  1  0
 16 18  1  0
 16 19  1  0
 14 20  2  0
 20 10  1  0
M  END
>  <energy_score>  (497) 
-1.557439

>  <inchikey>  (497) 
None

>  <smiles>  (497) 
None

>  <ref_pdb>  (497) 
A3176a

>  <alias>  (497) 
None

>  <HIPPO Pose ID>  (497) 
498141

>  <name>  (497) 
P498141

>  <HIPPO Compound ID>  (497) 
291039

>  <ref_mols>  (497) 
A3176a,A2629a

>  <distance_score>  (497) 
1.983996

>  <inspiration_score>  (497) 
None

$$$$
P498142
     RDKit          3D

 20 21  0  0  0  0  0  0  0  0999 V2000
   12.4861   15.0192   22.9657 C   0  0  0  0  0  0  0  0  0  0  0  0
   11.1470   15.0352   22.2724 C   0  0  2  0  0  0  0  0  0  0  0  0
   10.3995   13.8702   22.6419 N   0  0  0  0  0  0  0  0  0  0  0  0
    9.7930   13.4602   23.9935 C   0  0  0  0  0  0  0  0  0  0  0  0
    9.8696   13.9668   25.0414 O   0  0  0  0  0  0  0  0  0  0  0  0
    9.0166   12.1944   23.9744 C   0  0  0  0  0  0  0  0  0  0  0  0
    9.4063   11.0782   23.2556 C   0  0  0  0  0  0  0  0  0  0  0  0
    8.7902    9.8818   23.5560 C   0  0  0  0  0  0  0  0  0  0  0  0
    7.8049    9.7735   24.4727 N   0  0  0  0  0  0  0  0  0  0  0  0
    7.3867   10.8783   25.1342 C   0  0  0  0  0  0  0  0  0  0  0  0
    6.1245   10.5394   26.3302 S   0  0  0  0  0  0  0  0  0  0  0  0
    5.5030   12.1114   27.0997 C   0  0  0  0  0  0  0  0  0  0  0  0
    4.9357   13.0882   26.0778 C   0  0  0  0  0  0  0  0  0  0  0  0
    4.3557   11.6779   28.0460 C   0  0  0  0  0  0  0  0  0  0  0  0
    6.4891   12.8675   27.9976 C   0  0  0  0  0  0  0  0  0  0  0  0
    7.9790   12.0957   24.9064 C   0  0  0  0  0  0  0  0  0  0  0  0
   11.3572   15.2921   20.8069 C   0  0  1  0  0  0  0  0  0  0  0  0
   12.3302   14.5521   19.8920 C   0  0  0  0  0  0  0  0  0  0  0  0
   11.2784   14.8943   18.8334 C   0  0  0  0  0  0  0  0  0  0  0  0
   10.2670   14.9491   19.9090 O   0  0  0  0  0  0  0  0  0  0  0  0
  2  1  1  1
  2  3  1  0
  3  4  1  0
  4  5  2  0
  4  6  1  0
  6  7  2  0
  7  8  1  0
  8  9  2  0
  9 10  1  0
 10 11  1  0
 11 12  1  0
 12 13  1  0
 12 14  1  0
 12 15  1  0
 10 16  2  0
  2 17  1  0
 17 18  1  6
 18 19  1  0
 19 20  1  0
 16  6  1  0
 20 17  1  0
M  END
>  <energy_score>  (498) 
-4.832376

>  <inchikey>  (498) 
None

>  <smiles>  (498) 
None

>  <ref_pdb>  (498) 
A3176a

>  <alias>  (498) 
None

>  <HIPPO Pose ID>  (498) 
498142

>  <name>  (498) 
P498142

>  <HIPPO Compound ID>  (498) 
291043

>  <ref_mols>  (498) 
A3176a,A2629a

>  <distance_score>  (498) 
1.876781

>  <inspiration_score>  (498) 
None

$$$$
P498143
     RDKit          3D

 20 21  0  0  0  0  0  0  0  0999 V2000
   12.6275   14.8573   23.3262 C   0  0  0  0  0  0  0  0  0  0  0  0
   11.8550   14.1571   22.2230 C   0  0  1  0  0  0  0  0  0  0  0  0
   10.7270   13.4739   22.8028 N   0  0  0  0  0  0  0  0  0  0  0  0
    9.3693   14.0069   23.2560 C   0  0  0  0  0  0  0  0  0  0  0  0
    8.9093   15.0689   23.1657 O   0  0  0  0  0  0  0  0  0  0  0  0
    8.6037   12.9809   24.0079 C   0  0  0  0  0  0  0  0  0  0  0  0
    8.6492   11.6145   23.7687 C   0  0  0  0  0  0  0  0  0  0  0  0
    7.9861   10.7903   24.6571 C   0  0  0  0  0  0  0  0  0  0  0  0
    7.3286   11.2390   25.7501 N   0  0  0  0  0  0  0  0  0  0  0  0
    7.2620   12.5730   25.9357 C   0  0  0  0  0  0  0  0  0  0  0  0
    6.6301   13.2300   27.4741 S   0  0  0  0  0  0  0  0  0  0  0  0
    5.0209   12.4067   27.7154 C   0  0  0  0  0  0  0  0  0  0  0  0
    4.0320   12.9559   26.6863 C   0  0  0  0  0  0  0  0  0  0  0  0
    4.5448   12.8503   29.1159 C   0  0  0  0  0  0  0  0  0  0  0  0
    5.0694   10.8772   27.7110 C   0  0  0  0  0  0  0  0  0  0  0  0
    7.8813   13.4640   25.0883 C   0  0  0  0  0  0  0  0  0  0  0  0
   11.4495   15.1722   21.1588 C   0  0  2  0  0  0  0  0  0  0  0  0
   10.1883   15.0327   20.3050 C   0  0  0  0  0  0  0  0  0  0  0  0
   11.1331   15.1119   19.1141 C   0  0  0  0  0  0  0  0  0  0  0  0
   12.2859   14.9776   19.9754 O   0  0  0  0  0  0  0  0  0  0  0  0
  2  1  1  1
  2  3  1  0
  3  4  1  0
  4  5  2  0
  4  6  1  0
  6  7  2  0
  7  8  1  0
  8  9  2  0
  9 10  1  0
 10 11  1  0
 11 12  1  0
 12 13  1  0
 12 14  1  0
 12 15  1  0
 10 16  2  0
  2 17  1  0
 17 18  1  6
 18 19  1  0
 19 20  1  0
 16  6  1  0
 20 17  1  0
M  END
>  <energy_score>  (499) 
-18.38333

>  <inchikey>  (499) 
None

>  <smiles>  (499) 
None

>  <ref_pdb>  (499) 
A3176a

>  <alias>  (499) 
None

>  <HIPPO Pose ID>  (499) 
498143

>  <name>  (499) 
P498143

>  <HIPPO Compound ID>  (499) 
291043

>  <ref_mols>  (499) 
A3176a,A2629a

>  <distance_score>  (499) 
1.905545

>  <inspiration_score>  (499) 
None

$$$$
P498144
     RDKit          3D

 20 21  0  0  0  0  0  0  0  0999 V2000
    9.3343   15.9709   21.1921 C   0  0  0  0  0  0  0  0  0  0  0  0
   10.5860   15.3099   21.7339 C   0  0  1  0  0  0  0  0  0  0  0  0
   10.1689   14.0412   22.2760 N   0  0  0  0  0  0  0  0  0  0  0  0
    9.6841   13.6679   23.6915 C   0  0  0  0  0  0  0  0  0  0  0  0
    9.6193   14.3116   24.6634 O   0  0  0  0  0  0  0  0  0  0  0  0
    9.1100   12.2986   23.8347 C   0  0  0  0  0  0  0  0  0  0  0  0
    9.5483   11.1698   23.1766 C   0  0  0  0  0  0  0  0  0  0  0  0
    8.9742    9.9594   23.5162 C   0  0  0  0  0  0  0  0  0  0  0  0
    7.9764    9.8444   24.4180 N   0  0  0  0  0  0  0  0  0  0  0  0
    7.4921   10.9575   25.0146 C   0  0  0  0  0  0  0  0  0  0  0  0
    6.1781   10.6248   26.1579 S   0  0  0  0  0  0  0  0  0  0  0  0
    5.5319   12.2050   26.8995 C   0  0  0  0  0  0  0  0  0  0  0  0
    6.5596   12.9653   27.7274 C   0  0  0  0  0  0  0  0  0  0  0  0
    4.8949   13.1867   25.9092 C   0  0  0  0  0  0  0  0  0  0  0  0
    4.4397   11.7735   27.9096 C   0  0  0  0  0  0  0  0  0  0  0  0
    8.0391   12.1872   24.7352 C   0  0  0  0  0  0  0  0  0  0  0  0
   11.7173   15.3783   20.7230 C   0  0  1  0  0  0  0  0  0  0  0  0
   12.4862   14.3364   19.9270 C   0  0  0  0  0  0  0  0  0  0  0  0
   11.7050   14.8122   18.7240 C   0  0  0  0  0  0  0  0  0  0  0  0
   11.2176   15.9340   19.4636 O   0  0  0  0  0  0  0  0  0  0  0  0
  2  1  1  6
  2  3  1  0
  3  4  1  0
  4  5  2  0
  4  6  1  0
  6  7  2  0
  7  8  1  0
  8  9  2  0
  9 10  1  0
 10 11  1  0
 11 12  1  0
 12 13  1  0
 12 14  1  0
 12 15  1  0
 10 16  2  0
  2 17  1  0
 17 18  1  6
 18 19  1  0
 19 20  1  0
 16  6  1  0
 20 17  1  0
M  END
>  <energy_score>  (500) 
-3.923568

>  <inchikey>  (500) 
None

>  <smiles>  (500) 
None

>  <ref_pdb>  (500) 
A3176a

>  <alias>  (500) 
None

>  <HIPPO Pose ID>  (500) 
498144

>  <name>  (500) 
P498144

>  <HIPPO Compound ID>  (500) 
291043

>  <ref_mols>  (500) 
A3176a,A2629a

>  <distance_score>  (500) 
1.985084

>  <inspiration_score>  (500) 
None

$$$$
P498145
     RDKit          3D

 20 22  0  0  0  0  0  0  0  0999 V2000
   12.8882   14.7687   23.2037 C   0  0  0  0  0  0  0  0  0  0  0  0
   11.6505   15.4609   22.6883 C   0  0  2  0  0  0  0  0  0  0  0  0
   10.5834   14.6396   23.1180 N   0  0  0  0  0  0  0  0  0  0  0  0
    9.9266   14.4949   24.5066 C   0  0  0  0  0  0  0  0  0  0  0  0
   10.1101   15.0849   25.4937 O   0  0  0  0  0  0  0  0  0  0  0  0
    9.0202   13.3231   24.4021 C   0  0  0  0  0  0  0  0  0  0  0  0
    9.5873   12.1973   23.6936 C   0  0  0  0  0  0  0  0  0  0  0  0
    8.9853   11.0340   23.7405 C   0  0  0  0  0  0  0  0  0  0  0  0
    7.8745   10.8510   24.4894 N   0  0  0  0  0  0  0  0  0  0  0  0
    7.3178   11.8203   25.2851 C   0  0  0  0  0  0  0  0  0  0  0  0
    6.4436   11.5734   26.1087 O   0  0  0  0  0  0  0  0  0  0  0  0
    7.9303   13.1757   25.1715 C   0  0  0  0  0  0  0  0  0  0  0  0
    7.5537    9.4751   24.6924 C   0  0  0  0  0  0  0  0  0  0  0  0
    8.3880    8.6153   23.7571 C   0  0  0  0  0  0  0  0  0  0  0  0
    9.6203    9.6442   23.0131 S   0  0  0  0  0  0  0  0  0  0  0  0
   11.6833   15.6260   21.1786 C   0  0  2  0  0  0  0  0  0  0  0  0
   10.4030   16.1711   20.5684 C   0  0  0  0  0  0  0  0  0  0  0  0
   10.5773   15.8664   19.1032 C   0  0  0  0  0  0  0  0  0  0  0  0
   11.5302   14.6960   19.0910 C   0  0  0  0  0  0  0  0  0  0  0  0
   11.9093   14.4132   20.4505 O   0  0  0  0  0  0  0  0  0  0  0  0
  2  1  1  6
  2  3  1  0
  3  4  1  0
  4  5  2  0
  4  6  1  0
  6  7  1  0
  7  8  2  0
  8  9  1  0
  9 10  1  0
 10 11  2  0
 10 12  1  0
  9 13  1  0
 13 14  1  0
 14 15  1  0
  2 16  1  0
 16 17  1  6
 17 18  1  0
 18 19  1  0
 19 20  1  0
 12  6  2  0
 20 16  1  0
 15  8  1  0
M  END
>  <energy_score>  (501) 
-9.806562

>  <inchikey>  (501) 
None

>  <smiles>  (501) 
None

>  <ref_pdb>  (501) 
A3176a

>  <alias>  (501) 
None

>  <HIPPO Pose ID>  (501) 
498145

>  <name>  (501) 
P498145

>  <HIPPO Compound ID>  (501) 
291060

>  <ref_mols>  (501) 
A3176a,A2629a

>  <distance_score>  (501) 
1.734593

>  <inspiration_score>  (501) 
None

$$$$
P498146
     RDKit          3D

 21 21  0  0  0  0  0  0  0  0999 V2000
   11.1938   15.0937   19.2676 C   0  0  0  0  0  0  0  0  0  0  0  0
   10.8639   15.2894   20.6365 O   0  0  0  0  0  0  0  0  0  0  0  0
   11.7787   14.6444   21.5217 C   0  0  0  0  0  0  0  0  0  0  0  0
   11.2494   14.7552   22.9706 C   0  0  1  0  0  0  0  0  0  0  0  0
   10.2390   13.7778   23.3238 N   0  0  0  0  0  0  0  0  0  0  0  0
    8.8542   13.5238   22.7325 C   0  0  0  0  0  0  0  0  0  0  0  0
    8.3272   14.0036   21.8181 O   0  0  0  0  0  0  0  0  0  0  0  0
    8.1913   12.5679   23.6281 C   0  0  0  0  0  0  0  0  0  0  0  0
    8.5230   11.2231   23.6222 C   0  0  0  0  0  0  0  0  0  0  0  0
    8.0378   10.4573   24.6566 C   0  0  0  0  0  0  0  0  0  0  0  0
    7.3750   10.9740   25.7159 N   0  0  0  0  0  0  0  0  0  0  0  0
    7.0998   12.2965   25.7021 C   0  0  0  0  0  0  0  0  0  0  0  0
    6.6167   13.0826   27.2201 S   0  0  0  0  0  0  0  0  0  0  0  0
    4.9903   12.3614   27.6823 C   0  0  0  0  0  0  0  0  0  0  0  0
    4.9942   10.8324   27.6967 C   0  0  0  0  0  0  0  0  0  0  0  0
    4.7011   12.8505   29.1147 C   0  0  0  0  0  0  0  0  0  0  0  0
    3.9265   12.9395   26.7503 C   0  0  0  0  0  0  0  0  0  0  0  0
    7.4671   13.1222   24.6636 C   0  0  0  0  0  0  0  0  0  0  0  0
   12.3822   14.6597   24.0263 C   0  0  0  0  0  0  0  0  0  0  0  0
   11.9950   15.2929   25.3704 C   0  0  0  0  0  0  0  0  0  0  0  0
   12.8353   13.2339   24.3263 C   0  0  0  0  0  0  0  0  0  0  0  0
  1  2  1  0
  2  3  1  0
  4  3  1  6
  4  5  1  0
  5  6  1  0
  6  7  2  0
  6  8  1  0
  8  9  2  0
  9 10  1  0
 10 11  2  0
 11 12  1  0
 12 13  1  0
 13 14  1  0
 14 15  1  0
 14 16  1  0
 14 17  1  0
 12 18  2  0
  4 19  1  0
 19 20  1  0
 19 21  1  0
 18  8  1  0
M  END
>  <energy_score>  (502) 
-10.14882

>  <inchikey>  (502) 
None

>  <smiles>  (502) 
None

>  <ref_pdb>  (502) 
A3176a

>  <alias>  (502) 
None

>  <HIPPO Pose ID>  (502) 
498146

>  <name>  (502) 
P498146

>  <HIPPO Compound ID>  (502) 
291064

>  <ref_mols>  (502) 
A3176a,A2629a

>  <distance_score>  (502) 
1.980624

>  <inspiration_score>  (502) 
None

$$$$
P498147
     RDKit          3D

 21 21  0  0  0  0  0  0  0  0999 V2000
   13.3851   13.5923   25.2386 C   0  0  0  0  0  0  0  0  0  0  0  0
   12.7097   13.6127   23.9925 O   0  0  0  0  0  0  0  0  0  0  0  0
   12.4958   14.9450   23.4824 C   0  0  0  0  0  0  0  0  0  0  0  0
   11.3810   14.9254   22.4187 C   0  0  1  0  0  0  0  0  0  0  0  0
   11.9411   14.5960   21.0415 C   0  0  0  0  0  0  0  0  0  0  0  0
   10.9858   14.9485   19.9123 C   0  0  0  0  0  0  0  0  0  0  0  0
   11.5925   14.5976   18.6719 O   0  0  0  0  0  0  0  0  0  0  0  0
   10.3866   14.0107   22.9384 N   0  0  0  0  0  0  0  0  0  0  0  0
    8.8946   13.8907   22.6375 C   0  0  0  0  0  0  0  0  0  0  0  0
    8.2344   14.4544   21.8676 O   0  0  0  0  0  0  0  0  0  0  0  0
    8.3027   12.9462   23.6056 C   0  0  0  0  0  0  0  0  0  0  0  0
    8.5935   11.5930   23.6281 C   0  0  0  0  0  0  0  0  0  0  0  0
    8.1091   10.8670   24.6969 C   0  0  0  0  0  0  0  0  0  0  0  0
    7.4682   11.4201   25.7555 N   0  0  0  0  0  0  0  0  0  0  0  0
    7.2161   12.7471   25.7114 C   0  0  0  0  0  0  0  0  0  0  0  0
    6.6621   13.5738   27.2005 S   0  0  0  0  0  0  0  0  0  0  0  0
    4.9624   12.9258   27.4918 C   0  0  0  0  0  0  0  0  0  0  0  0
    4.5131   13.5127   28.8431 C   0  0  0  0  0  0  0  0  0  0  0  0
    4.9348   11.3999   27.5974 C   0  0  0  0  0  0  0  0  0  0  0  0
    4.0238   13.4421   26.4003 C   0  0  0  0  0  0  0  0  0  0  0  0
    7.6005   13.5345   24.6459 C   0  0  0  0  0  0  0  0  0  0  0  0
  1  2  1  0
  2  3  1  0
  4  3  1  1
  4  5  1  0
  5  6  1  0
  6  7  1  0
  4  8  1  0
  8  9  1  0
  9 10  2  0
  9 11  1  0
 11 12  2  0
 12 13  1  0
 13 14  2  0
 14 15  1  0
 15 16  1  0
 16 17  1  0
 17 18  1  0
 17 19  1  0
 17 20  1  0
 15 21  2  0
 21 11  1  0
M  END
>  <energy_score>  (503) 
-12.043315

>  <inchikey>  (503) 
None

>  <smiles>  (503) 
None

>  <ref_pdb>  (503) 
A3176a

>  <alias>  (503) 
None

>  <HIPPO Pose ID>  (503) 
498147

>  <name>  (503) 
P498147

>  <HIPPO Compound ID>  (503) 
291066

>  <ref_mols>  (503) 
A3176a,A2629a

>  <distance_score>  (503) 
1.918952

>  <inspiration_score>  (503) 
None

$$$$
P498148
     RDKit          3D

 21 21  0  0  0  0  0  0  0  0999 V2000
   10.1203   16.1276   19.0442 C   0  0  0  0  0  0  0  0  0  0  0  0
   10.1529   15.3734   20.2615 O   0  0  0  0  0  0  0  0  0  0  0  0
   11.1720   14.4761   20.3188 C   0  0  0  0  0  0  0  0  0  0  0  0
   11.8968   14.1713   19.3730 O   0  0  0  0  0  0  0  0  0  0  0  0
   11.4006   13.9502   21.7478 C   0  0  1  0  0  0  0  0  0  0  0  0
   11.9199   15.0721   22.6287 C   0  0  0  0  0  0  0  0  0  0  0  0
   13.2585   15.8779   21.8678 Cl  0  0  0  0  0  0  0  0  0  0  0  0
   10.3205   13.3030   22.4740 N   0  0  0  0  0  0  0  0  0  0  0  0
    9.1015   13.8978   23.1803 C   0  0  0  0  0  0  0  0  0  0  0  0
    8.7210   14.9946   23.2311 O   0  0  0  0  0  0  0  0  0  0  0  0
    8.3614   12.8946   24.0055 C   0  0  0  0  0  0  0  0  0  0  0  0
    8.4058   11.5160   23.8532 C   0  0  0  0  0  0  0  0  0  0  0  0
    7.7858   10.7422   24.8184 C   0  0  0  0  0  0  0  0  0  0  0  0
    7.1753   11.2460   25.9144 N   0  0  0  0  0  0  0  0  0  0  0  0
    7.1052   12.5856   26.0290 C   0  0  0  0  0  0  0  0  0  0  0  0
    6.5275   13.3170   27.5611 S   0  0  0  0  0  0  0  0  0  0  0  0
    4.8118   12.6858   27.7770 C   0  0  0  0  0  0  0  0  0  0  0  0
    4.7767   11.1634   27.9314 C   0  0  0  0  0  0  0  0  0  0  0  0
    4.2931   13.3146   29.0842 C   0  0  0  0  0  0  0  0  0  0  0  0
    3.9367   13.1730   26.6229 C   0  0  0  0  0  0  0  0  0  0  0  0
    7.6845   13.4263   25.1013 C   0  0  0  0  0  0  0  0  0  0  0  0
  1  2  1  0
  2  3  1  0
  3  4  2  0
  3  5  1  0
  5  6  1  1
  6  7  1  0
  5  8  1  0
  8  9  1  0
  9 10  2  0
  9 11  1  0
 11 12  2  0
 12 13  1  0
 13 14  2  0
 14 15  1  0
 15 16  1  0
 16 17  1  0
 17 18  1  0
 17 19  1  0
 17 20  1  0
 15 21  2  0
 21 11  1  0
M  END
>  <energy_score>  (504) 
-3.214707

>  <inchikey>  (504) 
None

>  <smiles>  (504) 
None

>  <ref_pdb>  (504) 
A3176a

>  <alias>  (504) 
None

>  <HIPPO Pose ID>  (504) 
498148

>  <name>  (504) 
P498148

>  <HIPPO Compound ID>  (504) 
291068

>  <ref_mols>  (504) 
A3176a,A2629a

>  <distance_score>  (504) 
1.944288

>  <inspiration_score>  (504) 
None

$$$$
P498149
     RDKit          3D

 21 21  0  0  0  0  0  0  0  0999 V2000
   10.2129   16.0128   19.2587 C   0  0  0  0  0  0  0  0  0  0  0  0
   10.3112   15.1966   20.4342 O   0  0  0  0  0  0  0  0  0  0  0  0
   11.5148   14.6081   20.6313 C   0  0  0  0  0  0  0  0  0  0  0  0
   12.4628   14.6625   19.8528 O   0  0  0  0  0  0  0  0  0  0  0  0
   11.6494   13.9356   21.9958 C   0  0  1  0  0  0  0  0  0  0  0  0
   12.3373   14.9064   22.9679 C   0  0  0  0  0  0  0  0  0  0  0  0
   12.6373   14.1445   24.6231 S   0  0  0  0  0  0  0  0  0  0  0  0
   10.4965   13.3366   22.6430 N   0  0  0  0  0  0  0  0  0  0  0  0
    9.2673   13.9832   23.2782 C   0  0  0  0  0  0  0  0  0  0  0  0
    8.9386   15.0962   23.3196 O   0  0  0  0  0  0  0  0  0  0  0  0
    8.4372   12.9953   24.0379 C   0  0  0  0  0  0  0  0  0  0  0  0
    8.4334   11.6183   23.8552 C   0  0  0  0  0  0  0  0  0  0  0  0
    7.7743   10.8445   24.7948 C   0  0  0  0  0  0  0  0  0  0  0  0
    7.1571   11.3461   25.8875 N   0  0  0  0  0  0  0  0  0  0  0  0
    7.1263   12.6852   26.0253 C   0  0  0  0  0  0  0  0  0  0  0  0
    6.5310   13.4047   27.5560 S   0  0  0  0  0  0  0  0  0  0  0  0
    4.8077   12.7822   27.7392 C   0  0  0  0  0  0  0  0  0  0  0  0
    4.7651   11.2619   27.9130 C   0  0  0  0  0  0  0  0  0  0  0  0
    3.9571   13.2542   26.5605 C   0  0  0  0  0  0  0  0  0  0  0  0
    4.2624   13.4297   29.0264 C   0  0  0  0  0  0  0  0  0  0  0  0
    7.7528   13.5267   25.1278 C   0  0  0  0  0  0  0  0  0  0  0  0
  1  2  1  0
  2  3  1  0
  3  4  2  0
  3  5  1  0
  5  6  1  1
  6  7  1  0
  5  8  1  0
  8  9  1  0
  9 10  2  0
  9 11  1  0
 11 12  2  0
 12 13  1  0
 13 14  2  0
 14 15  1  0
 15 16  1  0
 16 17  1  0
 17 18  1  0
 17 19  1  0
 17 20  1  0
 15 21  2  0
 21 11  1  0
M  END
>  <energy_score>  (505) 
-9.13599

>  <inchikey>  (505) 
None

>  <smiles>  (505) 
None

>  <ref_pdb>  (505) 
A3176a

>  <alias>  (505) 
None

>  <HIPPO Pose ID>  (505) 
498149

>  <name>  (505) 
P498149

>  <HIPPO Compound ID>  (505) 
291086

>  <ref_mols>  (505) 
A3176a,A2629a

>  <distance_score>  (505) 
1.914648

>  <inspiration_score>  (505) 
None

$$$$
P498150
     RDKit          3D

 21 21  0  0  0  0  0  0  0  0999 V2000
   11.2382   14.9691   19.2846 C   0  0  0  0  0  0  0  0  0  0  0  0
   11.0255   14.8428   20.6843 O   0  0  0  0  0  0  0  0  0  0  0  0
   12.1410   14.2472   21.3745 C   0  0  0  0  0  0  0  0  0  0  0  0
   11.8973   14.3170   22.8992 C   0  0  0  0  0  0  0  0  0  0  0  0
   12.0117   15.7760   23.2359 C   0  0  0  0  0  0  0  0  0  0  0  0
   12.8553   13.6169   23.8547 C   0  0  0  0  0  0  0  0  0  0  0  0
   10.5952   13.8311   23.2634 N   0  0  0  0  0  0  0  0  0  0  0  0
    9.8168   13.9674   24.5629 C   0  0  0  0  0  0  0  0  0  0  0  0
   10.0640   14.5599   25.5310 O   0  0  0  0  0  0  0  0  0  0  0  0
    8.6259   13.1254   24.5764 C   0  0  0  0  0  0  0  0  0  0  0  0
    8.6917   11.7550   24.3696 C   0  0  0  0  0  0  0  0  0  0  0  0
    7.6185   11.0167   24.8096 C   0  0  0  0  0  0  0  0  0  0  0  0
    6.5294   11.5706   25.3883 N   0  0  0  0  0  0  0  0  0  0  0  0
    6.4676   12.9170   25.4695 C   0  0  0  0  0  0  0  0  0  0  0  0
    5.0196   13.7256   26.1239 S   0  0  0  0  0  0  0  0  0  0  0  0
    4.4897   12.5548   27.4049 C   0  0  0  0  0  0  0  0  0  0  0  0
    5.5719   11.9061   28.2367 C   0  0  0  0  0  0  0  0  0  0  0  0
    6.0255   10.7586   27.6937 F   0  0  0  0  0  0  0  0  0  0  0  0
    6.6239   12.7133   28.4874 F   0  0  0  0  0  0  0  0  0  0  0  0
    5.0570   11.5635   29.4494 F   0  0  0  0  0  0  0  0  0  0  0  0
    7.4922   13.7286   25.0687 C   0  0  0  0  0  0  0  0  0  0  0  0
  1  2  1  0
  2  3  1  0
  3  4  1  0
  4  5  1  0
  4  6  1  0
  4  7  1  0
  7  8  1  0
  8  9  2  0
  8 10  1  0
 10 11  2  0
 11 12  1  0
 12 13  2  0
 13 14  1  0
 14 15  1  0
 15 16  1  0
 16 17  1  0
 17 18  1  0
 17 19  1  0
 17 20  1  0
 14 21  2  0
 21 10  1  0
M  END
>  <energy_score>  (506) 
-16.878396

>  <inchikey>  (506) 
None

>  <smiles>  (506) 
None

>  <ref_pdb>  (506) 
A3176a

>  <alias>  (506) 
None

>  <HIPPO Pose ID>  (506) 
498150

>  <name>  (506) 
P498150

>  <HIPPO Compound ID>  (506) 
291104

>  <ref_mols>  (506) 
A3176a,A2629a

>  <distance_score>  (506) 
1.971433

>  <inspiration_score>  (506) 
None

$$$$
P498151
     RDKit          3D

 21 22  0  0  0  0  0  0  0  0999 V2000
   10.0098   15.5207   21.5645 C   0  0  0  0  0  0  0  0  0  0  0  0
   11.0920   14.5053   21.8319 C   0  0  1  0  0  0  0  0  0  0  0  0
   10.5002   13.2985   22.3410 N   0  0  0  0  0  0  0  0  0  0  0  0
   10.1536   12.8888   23.7726 C   0  0  0  0  0  0  0  0  0  0  0  0
   10.3601   13.4281   24.7828 O   0  0  0  0  0  0  0  0  0  0  0  0
    9.3360   11.6393   23.8278 C   0  0  0  0  0  0  0  0  0  0  0  0
    9.5060   10.5329   23.0168 C   0  0  0  0  0  0  0  0  0  0  0  0
    8.7746    9.4004   23.2983 C   0  0  0  0  0  0  0  0  0  0  0  0
    7.8138    9.3692   24.2384 N   0  0  0  0  0  0  0  0  0  0  0  0
    7.5916   10.4724   24.9730 C   0  0  0  0  0  0  0  0  0  0  0  0
    6.3346   10.2537   26.1832 S   0  0  0  0  0  0  0  0  0  0  0  0
    5.4449   11.8264   26.3630 C   0  0  0  0  0  0  0  0  0  0  0  0
    6.1444   13.1568   26.3594 C   0  0  0  0  0  0  0  0  0  0  0  0
    5.2907   14.1199   26.7478 F   0  0  0  0  0  0  0  0  0  0  0  0
    6.5909   13.5216   25.1440 F   0  0  0  0  0  0  0  0  0  0  0  0
    7.1678   13.1816   27.2363 F   0  0  0  0  0  0  0  0  0  0  0  0
    8.3896   11.5813   24.8442 C   0  0  0  0  0  0  0  0  0  0  0  0
   11.8601   14.1396   20.5766 C   0  0  2  0  0  0  0  0  0  0  0  0
   12.7534   15.1889   20.0279 C   0  0  0  0  0  0  0  0  0  0  0  0
   11.7350   15.3475   18.9045 C   0  0  0  0  0  0  0  0  0  0  0  0
   11.0743   14.1456   19.3490 O   0  0  0  0  0  0  0  0  0  0  0  0
  2  1  1  6
  2  3  1  0
  3  4  1  0
  4  5  2  0
  4  6  1  0
  6  7  2  0
  7  8  1  0
  8  9  2  0
  9 10  1  0
 10 11  1  0
 11 12  1  0
 12 13  1  0
 13 14  1  0
 13 15  1  0
 13 16  1  0
 10 17  2  0
  2 18  1  0
 18 19  1  6
 19 20  1  0
 20 21  1  0
 17  6  1  0
 21 18  1  0
M  END
>  <energy_score>  (507) 
-2.604008

>  <inchikey>  (507) 
None

>  <smiles>  (507) 
None

>  <ref_pdb>  (507) 
A3176a

>  <alias>  (507) 
None

>  <HIPPO Pose ID>  (507) 
498151

>  <name>  (507) 
P498151

>  <HIPPO Compound ID>  (507) 
291122

>  <ref_mols>  (507) 
A3176a,A2629a

>  <distance_score>  (507) 
1.510556

>  <inspiration_score>  (507) 
None

$$$$
P498152
     RDKit          3D

 21 22  0  0  0  0  0  0  0  0999 V2000
   11.2109   15.4196   18.6697 C   0  0  0  0  0  0  0  0  0  0  0  0
   11.7123   15.5796   19.9892 O   0  0  0  0  0  0  0  0  0  0  0  0
   11.3113   14.5238   20.8324 C   0  0  0  0  0  0  0  0  0  0  0  0
   11.1110   15.0593   22.2401 C   0  0  2  0  0  0  0  0  0  0  0  0
   12.2141   15.1226   23.2513 C   0  0  0  0  0  0  0  0  0  0  0  0
   11.8107   13.7152   23.5239 C   0  0  0  0  0  0  0  0  0  0  0  0
   10.3436   14.0318   23.0599 N   0  0  0  0  0  0  0  0  0  0  0  0
    9.4254   14.2033   24.2270 C   0  0  0  0  0  0  0  0  0  0  0  0
    9.1415   15.1680   24.8365 O   0  0  0  0  0  0  0  0  0  0  0  0
    8.7318   12.9153   24.5395 C   0  0  0  0  0  0  0  0  0  0  0  0
    9.0054   11.7042   23.9110 C   0  0  0  0  0  0  0  0  0  0  0  0
    8.2891   10.5911   24.3073 C   0  0  0  0  0  0  0  0  0  0  0  0
    7.3179   10.6272   25.2412 N   0  0  0  0  0  0  0  0  0  0  0  0
    7.0136   11.8204   25.7874 C   0  0  0  0  0  0  0  0  0  0  0  0
    5.6871   11.8056   26.9741 S   0  0  0  0  0  0  0  0  0  0  0  0
    4.6830   13.2355   26.4073 C   0  0  0  0  0  0  0  0  0  0  0  0
    4.7315   14.4051   27.3733 C   0  0  0  0  0  0  0  0  0  0  0  0
    3.9748   15.4287   26.9156 F   0  0  0  0  0  0  0  0  0  0  0  0
    4.2502   14.0683   28.5917 F   0  0  0  0  0  0  0  0  0  0  0  0
    5.9878   14.8726   27.5425 F   0  0  0  0  0  0  0  0  0  0  0  0
    7.7131   12.9677   25.4807 C   0  0  0  0  0  0  0  0  0  0  0  0
  1  2  1  0
  2  3  1  0
  4  3  1  6
  4  5  1  0
  5  6  1  0
  6  7  1  0
  7  8  1  0
  8  9  2  0
  8 10  1  0
 10 11  2  0
 11 12  1  0
 12 13  2  0
 13 14  1  0
 14 15  1  0
 15 16  1  0
 16 17  1  0
 17 18  1  0
 17 19  1  0
 17 20  1  0
 14 21  2  0
  7  4  1  0
 21 10  1  0
M  END
>  <energy_score>  (508) 
-2.448788

>  <inchikey>  (508) 
None

>  <smiles>  (508) 
None

>  <ref_pdb>  (508) 
A3176a

>  <alias>  (508) 
None

>  <HIPPO Pose ID>  (508) 
498152

>  <name>  (508) 
P498152

>  <HIPPO Compound ID>  (508) 
291124

>  <ref_mols>  (508) 
A3176a,A2629a

>  <distance_score>  (508) 
1.94841

>  <inspiration_score>  (508) 
None

$$$$
P498153
     RDKit          3D

 22 22  0  0  0  0  0  0  0  0999 V2000
   11.1229   15.0675   19.2163 C   0  0  0  0  0  0  0  0  0  0  0  0
   10.7631   15.1278   20.5908 O   0  0  0  0  0  0  0  0  0  0  0  0
   11.7942   14.6412   21.4536 C   0  0  0  0  0  0  0  0  0  0  0  0
   11.3427   14.8494   22.9075 C   0  0  1  0  0  0  0  0  0  0  0  0
   10.2291   14.0322   23.3230 N   0  0  0  0  0  0  0  0  0  0  0  0
    9.0377   14.3597   24.2235 C   0  0  0  0  0  0  0  0  0  0  0  0
    8.7179   15.3641   24.7157 O   0  0  0  0  0  0  0  0  0  0  0  0
    8.2300   13.1520   24.5895 C   0  0  0  0  0  0  0  0  0  0  0  0
    8.3278   11.8790   24.0409 C   0  0  0  0  0  0  0  0  0  0  0  0
    7.7030   10.8357   24.7106 C   0  0  0  0  0  0  0  0  0  0  0  0
    7.0016   10.9772   25.8597 N   0  0  0  0  0  0  0  0  0  0  0  0
    6.8857   12.2257   26.3479 C   0  0  0  0  0  0  0  0  0  0  0  0
    6.1217   12.4542   27.9578 S   0  0  0  0  0  0  0  0  0  0  0  0
    4.3744   12.3323   27.4883 C   0  0  0  0  0  0  0  0  0  0  0  0
    3.9073   13.4921   26.6377 C   0  0  0  0  0  0  0  0  0  0  0  0
    4.6557   13.6112   25.5265 F   0  0  0  0  0  0  0  0  0  0  0  0
    2.6202   13.3108   26.2628 F   0  0  0  0  0  0  0  0  0  0  0  0
    3.9690   14.6594   27.3152 F   0  0  0  0  0  0  0  0  0  0  0  0
    7.4790   13.3137   25.7493 C   0  0  0  0  0  0  0  0  0  0  0  0
   12.4574   14.6459   23.9653 C   0  0  0  0  0  0  0  0  0  0  0  0
   12.1349   15.2997   25.3198 C   0  0  0  0  0  0  0  0  0  0  0  0
   12.7446   13.1790   24.2616 C   0  0  0  0  0  0  0  0  0  0  0  0
  1  2  1  0
  2  3  1  0
  4  3  1  6
  4  5  1  0
  5  6  1  0
  6  7  2  0
  6  8  1  0
  8  9  2  0
  9 10  1  0
 10 11  2  0
 11 12  1  0
 12 13  1  0
 13 14  1  0
 14 15  1  0
 15 16  1  0
 15 17  1  0
 15 18  1  0
 12 19  2  0
  4 20  1  0
 20 21  1  0
 20 22  1  0
 19  8  1  0
M  END
>  <energy_score>  (509) 
-8.034748

>  <inchikey>  (509) 
None

>  <smiles>  (509) 
None

>  <ref_pdb>  (509) 
A3176a

>  <alias>  (509) 
None

>  <HIPPO Pose ID>  (509) 
498153

>  <name>  (509) 
P498153

>  <HIPPO Compound ID>  (509) 
291130

>  <ref_mols>  (509) 
A3176a,A2629a

>  <distance_score>  (509) 
1.978479

>  <inspiration_score>  (509) 
None

$$$$
P498154
     RDKit          3D

 22 22  0  0  0  0  0  0  0  0999 V2000
   10.8006   15.4839   18.7330 C   0  0  0  0  0  0  0  0  0  0  0  0
   10.6360   15.5678   20.1455 O   0  0  0  0  0  0  0  0  0  0  0  0
   11.4794   14.7782   20.8636 C   0  0  0  0  0  0  0  0  0  0  0  0
   12.3768   14.0901   20.3989 O   0  0  0  0  0  0  0  0  0  0  0  0
   11.1495   14.9133   22.3445 C   0  0  2  0  0  0  0  0  0  0  0  0
   12.4458   14.9259   23.1504 C   0  0  0  0  0  0  0  0  0  0  0  0
   12.1631   15.2210   24.5302 O   0  0  0  0  0  0  0  0  0  0  0  0
   10.2861   13.8932   22.9040 N   0  0  0  0  0  0  0  0  0  0  0  0
    8.8190   13.5843   22.6395 C   0  0  0  0  0  0  0  0  0  0  0  0
    8.0792   14.0450   21.8747 O   0  0  0  0  0  0  0  0  0  0  0  0
    8.3496   12.6014   23.6248 C   0  0  0  0  0  0  0  0  0  0  0  0
    8.7196   11.2694   23.5800 C   0  0  0  0  0  0  0  0  0  0  0  0
    8.2154   10.4522   24.5677 C   0  0  0  0  0  0  0  0  0  0  0  0
    7.4653   10.8999   25.6029 N   0  0  0  0  0  0  0  0  0  0  0  0
    7.1494   12.2128   25.6271 C   0  0  0  0  0  0  0  0  0  0  0  0
    6.2728   12.8520   27.0394 S   0  0  0  0  0  0  0  0  0  0  0  0
    5.0715   11.5072   27.3308 C   0  0  0  0  0  0  0  0  0  0  0  0
    4.8652   11.2069   28.8028 C   0  0  0  0  0  0  0  0  0  0  0  0
    5.9912   10.7438   29.3924 F   0  0  0  0  0  0  0  0  0  0  0  0
    4.4526   12.2929   29.4928 F   0  0  0  0  0  0  0  0  0  0  0  0
    3.9140   10.2543   28.9559 F   0  0  0  0  0  0  0  0  0  0  0  0
    7.5646   13.0923   24.6528 C   0  0  0  0  0  0  0  0  0  0  0  0
  1  2  1  0
  2  3  1  0
  3  4  2  0
  3  5  1  0
  5  6  1  1
  6  7  1  0
  5  8  1  0
  8  9  1  0
  9 10  2  0
  9 11  1  0
 11 12  2  0
 12 13  1  0
 13 14  2  0
 14 15  1  0
 15 16  1  0
 16 17  1  0
 17 18  1  0
 18 19  1  0
 18 20  1  0
 18 21  1  0
 15 22  2  0
 22 11  1  0
M  END
>  <energy_score>  (510) 
-4.649918

>  <inchikey>  (510) 
None

>  <smiles>  (510) 
None

>  <ref_pdb>  (510) 
A3176a

>  <alias>  (510) 
None

>  <HIPPO Pose ID>  (510) 
498154

>  <name>  (510) 
P498154

>  <HIPPO Compound ID>  (510) 
291136

>  <ref_mols>  (510) 
A3176a,A2629a

>  <distance_score>  (510) 
1.942911

>  <inspiration_score>  (510) 
None

$$$$
P498155
     RDKit          3D

 22 23  0  0  0  0  0  0  0  0999 V2000
   10.4434   10.0079   24.6822 C   0  0  0  0  0  0  0  0  0  0  0  0
   10.7093   11.3584   24.2642 O   0  0  0  0  0  0  0  0  0  0  0  0
    9.6654   11.8614   23.5570 C   0  0  0  0  0  0  0  0  0  0  0  0
    8.6067   11.2536   23.4155 O   0  0  0  0  0  0  0  0  0  0  0  0
    9.8473   13.2883   23.0044 C   0  0  2  0  0  0  0  0  0  0  0  0
   11.2844   13.7599   22.9143 C   0  0  0  0  0  0  0  0  0  0  0  0
   11.0398   15.1784   22.5077 C   0  0  0  0  0  0  0  0  0  0  0  0
    9.5263   15.2024   22.5676 C   0  0  0  0  0  0  0  0  0  0  0  0
    9.0332   14.3925   23.7271 N   0  0  0  0  0  0  0  0  0  0  0  0
    7.7098   13.9127   24.0466 C   0  0  0  0  0  0  0  0  0  0  0  0
    6.6887   13.9670   23.4168 O   0  0  0  0  0  0  0  0  0  0  0  0
    7.7798   13.3507   25.5201 C   0  0  1  0  0  0  0  0  0  0  0  0
    8.6341   14.2732   26.4150 C   0  0  0  0  0  0  0  0  0  0  0  0
    6.1344   13.0585   26.3093 S   0  0  0  0  0  0  0  0  0  0  0  0
    5.6984   14.7362   26.6460 C   0  0  0  0  0  0  0  0  0  0  0  0
    5.3834   15.1897   27.9141 C   0  0  0  0  0  0  0  0  0  0  0  0
    5.2693   16.5681   28.1141 C   0  0  0  0  0  0  0  0  0  0  0  0
    5.4654   17.4438   27.0435 C   0  0  0  0  0  0  0  0  0  0  0  0
    5.4062   19.3023   27.3765 Br  0  0  0  0  0  0  0  0  0  0  0  0
    5.7299   16.8874   25.8040 C   0  0  0  0  0  0  0  0  0  0  0  0
    6.0654   17.8510   24.2301 Br  0  0  0  0  0  0  0  0  0  0  0  0
    5.8432   15.5658   25.6135 N   0  0  0  0  0  0  0  0  0  0  0  0
  1  2  1  0
  2  3  1  0
  3  4  2  0
  5  3  1  1
  5  6  1  0
  6  7  1  0
  7  8  1  0
  8  9  1  0
  9 10  1  0
 10 11  2  0
 10 12  1  0
 12 13  1  1
 12 14  1  0
 14 15  1  0
 15 16  2  0
 16 17  1  0
 17 18  2  0
 18 19  1  0
 18 20  1  0
 20 21  1  0
 20 22  2  0
  9  5  1  0
 22 15  1  0
M  END
>  <energy_score>  (511) 
-39.481693

>  <inchikey>  (511) 
None

>  <smiles>  (511) 
None

>  <ref_pdb>  (511) 
A4237a

>  <alias>  (511) 
None

>  <HIPPO Pose ID>  (511) 
498155

>  <name>  (511) 
P498155

>  <HIPPO Compound ID>  (511) 
291505

>  <ref_mols>  (511) 
A4237a,A1778a

>  <distance_score>  (511) 
1.943871

>  <inspiration_score>  (511) 
None

$$$$
P498156
     RDKit          3D

 23 24  0  0  0  0  0  0  0  0999 V2000
    9.4893   10.5593   24.3487 C   0  0  0  0  0  0  0  0  0  0  0  0
    9.5902   11.9755   24.4841 O   0  0  0  0  0  0  0  0  0  0  0  0
   10.2611   12.5675   23.3660 C   0  0  0  0  0  0  0  0  0  0  0  0
   10.0190   14.1020   23.2765 C   0  0  1  0  0  0  0  0  0  0  0  0
   11.1646   14.7489   22.4788 C   0  0  2  0  0  0  0  0  0  0  0  0
   12.1047   15.4185   23.3011 O   0  0  0  0  0  0  0  0  0  0  0  0
   10.3858   15.6793   21.6265 C   0  0  1  0  0  0  0  0  0  0  0  0
   11.0135   15.8269   20.3683 O   0  0  0  0  0  0  0  0  0  0  0  0
    9.1656   14.8061   21.6050 C   0  0  0  0  0  0  0  0  0  0  0  0
    8.5550   14.5750   22.9423 N   0  0  0  0  0  0  0  0  0  0  0  0
    7.6056   13.5946   23.3798 C   0  0  0  0  0  0  0  0  0  0  0  0
    7.1302   12.6543   22.7987 O   0  0  0  0  0  0  0  0  0  0  0  0
    7.1293   13.9664   24.8001 C   0  0  2  0  0  0  0  0  0  0  0  0
    6.5916   12.7764   25.5854 C   0  0  0  0  0  0  0  0  0  0  0  0
    5.7654   15.1779   24.5828 S   0  0  0  0  0  0  0  0  0  0  0  0
    6.1785   16.4280   25.7620 C   0  0  0  0  0  0  0  0  0  0  0  0
    7.4716   16.8975   25.9453 C   0  0  0  0  0  0  0  0  0  0  0  0
    7.6959   17.9103   26.8724 C   0  0  0  0  0  0  0  0  0  0  0  0
    6.6177   18.4746   27.5462 C   0  0  0  0  0  0  0  0  0  0  0  0
    6.9817   19.9034   28.7302 Br  0  0  0  0  0  0  0  0  0  0  0  0
    5.3509   17.9595   27.2957 C   0  0  0  0  0  0  0  0  0  0  0  0
    3.7939   18.6346   28.1602 Br  0  0  0  0  0  0  0  0  0  0  0  0
    5.1280   16.9325   26.4410 N   0  0  0  0  0  0  0  0  0  0  0  0
  1  2  1  0
  2  3  1  0
  4  3  1  6
  4  5  1  0
  5  6  1  1
  5  7  1  0
  7  8  1  6
  7  9  1  0
  9 10  1  0
 10 11  1  0
 11 12  2  0
 11 13  1  0
 13 14  1  6
 13 15  1  0
 15 16  1  0
 16 17  2  0
 17 18  1  0
 18 19  2  0
 19 20  1  0
 19 21  1  0
 21 22  1  0
 21 23  2  0
 10  4  1  0
 23 16  1  0
M  END
>  <energy_score>  (512) 
-26.18626

>  <inchikey>  (512) 
None

>  <smiles>  (512) 
None

>  <ref_pdb>  (512) 
A4237a

>  <alias>  (512) 
None

>  <HIPPO Pose ID>  (512) 
498156

>  <name>  (512) 
P498156

>  <HIPPO Compound ID>  (512) 
291538

>  <ref_mols>  (512) 
A4237a,A1778a

>  <distance_score>  (512) 
1.967778

>  <inspiration_score>  (512) 
None

$$$$
P498157
     RDKit          3D

 24 25  0  0  0  0  0  0  0  0999 V2000
   10.7695   15.5846   19.4024 C   0  0  0  0  0  0  0  0  0  0  0  0
    9.4284   15.4037   19.8145 O   0  0  0  0  0  0  0  0  0  0  0  0
    9.1868   15.5935   21.2110 C   0  0  0  0  0  0  0  0  0  0  0  0
    9.8952   14.5300   22.0973 C   0  0  1  0  0  0  0  0  0  0  0  0
   11.2331   15.0661   22.5712 C   0  0  0  0  0  0  0  0  0  0  0  0
   11.4823   14.1333   23.6982 C   0  0  0  0  0  0  0  0  0  0  0  0
   10.2389   13.2536   23.6202 C   0  0  1  0  0  0  0  0  0  0  0  0
   10.2020   12.4672   24.9603 C   0  0  0  0  0  0  0  0  0  0  0  0
    9.2535   11.4097   25.0299 O   0  0  0  0  0  0  0  0  0  0  0  0
    9.5510   10.2652   24.2398 C   0  0  0  0  0  0  0  0  0  0  0  0
    9.0213   14.1706   23.3059 N   0  0  0  0  0  0  0  0  0  0  0  0
    7.7943   13.4216   23.3883 C   0  0  0  0  0  0  0  0  0  0  0  0
    7.1918   12.8122   22.5410 O   0  0  0  0  0  0  0  0  0  0  0  0
    7.1816   13.5692   24.8080 C   0  0  2  0  0  0  0  0  0  0  0  0
    6.5151   12.2967   25.3254 C   0  0  0  0  0  0  0  0  0  0  0  0
    5.8926   14.8840   24.6465 S   0  0  0  0  0  0  0  0  0  0  0  0
    6.4280   16.1424   25.7641 C   0  0  0  0  0  0  0  0  0  0  0  0
    7.7567   16.4875   25.9627 C   0  0  0  0  0  0  0  0  0  0  0  0
    8.0599   17.5248   26.8415 C   0  0  0  0  0  0  0  0  0  0  0  0
    7.0288   18.2341   27.4519 C   0  0  0  0  0  0  0  0  0  0  0  0
    7.5062   19.6818   28.5718 Br  0  0  0  0  0  0  0  0  0  0  0  0
    5.7229   17.8389   27.1894 C   0  0  0  0  0  0  0  0  0  0  0  0
    4.2219   18.7152   27.9662 Br  0  0  0  0  0  0  0  0  0  0  0  0
    5.4215   16.7933   26.3842 N   0  0  0  0  0  0  0  0  0  0  0  0
  1  2  1  0
  2  3  1  0
  4  3  1  1
  4  5  1  0
  5  6  1  0
  6  7  1  0
  7  8  1  1
  8  9  1  0
  9 10  1  0
  7 11  1  0
 11 12  1  0
 12 13  2  0
 12 14  1  0
 14 15  1  6
 14 16  1  0
 16 17  1  0
 17 18  2  0
 18 19  1  0
 19 20  2  0
 20 21  1  0
 20 22  1  0
 22 23  1  0
 22 24  2  0
 11  4  1  0
 24 17  1  0
M  END
>  <energy_score>  (513) 
-6.567721

>  <inchikey>  (513) 
None

>  <smiles>  (513) 
None

>  <ref_pdb>  (513) 
A4237a

>  <alias>  (513) 
None

>  <HIPPO Pose ID>  (513) 
498157

>  <name>  (513) 
P498157

>  <HIPPO Compound ID>  (513) 
291578

>  <ref_mols>  (513) 
A4237a,A1778a

>  <distance_score>  (513) 
1.861115

>  <inspiration_score>  (513) 
None

$$$$
P498158
     RDKit          3D

 26 28  0  0  0  0  0  0  0  0999 V2000
    9.2115   17.2212   20.9865 C   0  0  0  0  0  0  0  0  0  0  0  0
    9.5543   16.3122   21.6874 C   0  0  0  0  0  0  0  0  0  0  0  0
   10.2223   15.2511   22.4262 C   0  0  2  0  0  0  0  0  0  0  0  0
   11.4207   15.8550   23.1343 C   0  0  0  0  0  0  0  0  0  0  0  0
   11.7362   14.7377   24.0681 C   0  0  0  0  0  0  0  0  0  0  0  0
   10.6741   13.7281   23.6197 C   0  0  2  0  0  0  0  0  0  0  0  0
   10.6996   12.5922   24.6914 C   0  0  0  0  0  0  0  0  0  0  0  0
   10.7033   12.7683   25.9017 O   0  0  0  0  0  0  0  0  0  0  0  0
   10.6526   11.3698   24.0976 O   0  0  0  0  0  0  0  0  0  0  0  0
   10.4236   10.1983   24.8814 C   0  0  0  0  0  0  0  0  0  0  0  0
   11.0138   13.1428   22.2668 C   0  0  0  0  0  0  0  0  0  0  0  0
   10.6370   14.2520   21.3691 C   0  0  0  0  0  0  0  0  0  0  0  0
    9.3666   14.5546   23.4936 N   0  0  0  0  0  0  0  0  0  0  0  0
    8.1443   13.6438   23.3522 C   0  0  0  0  0  0  0  0  0  0  0  0
    7.6277   13.2041   22.3860 O   0  0  0  0  0  0  0  0  0  0  0  0
    7.6902   13.2527   24.7691 C   0  0  2  0  0  0  0  0  0  0  0  0
    7.4620   11.7448   24.8306 C   0  0  0  0  0  0  0  0  0  0  0  0
    6.1347   14.0410   25.2356 S   0  0  0  0  0  0  0  0  0  0  0  0
    6.6211   15.6097   25.8819 C   0  0  0  0  0  0  0  0  0  0  0  0
    7.7779   15.8438   26.6129 C   0  0  0  0  0  0  0  0  0  0  0  0
    7.9664   17.0950   27.1948 C   0  0  0  0  0  0  0  0  0  0  0  0
    6.9839   18.0712   27.0568 C   0  0  0  0  0  0  0  0  0  0  0  0
    7.2408   19.7070   27.9633 Br  0  0  0  0  0  0  0  0  0  0  0  0
    5.8512   17.7592   26.3176 C   0  0  0  0  0  0  0  0  0  0  0  0
    4.3611   18.9361   26.2128 Br  0  0  0  0  0  0  0  0  0  0  0  0
    5.6704   16.5530   25.7348 N   0  0  0  0  0  0  0  0  0  0  0  0
  1  2  3  0
  3  2  1  6
  3  4  1  0
  4  5  1  0
  5  6  1  0
  6  7  1  1
  7  8  2  0
  7  9  1  0
  9 10  1  0
  6 11  1  0
 11 12  1  0
  6 13  1  0
 13 14  1  0
 14 15  2  0
 14 16  1  0
 16 17  1  6
 16 18  1  0
 18 19  1  0
 19 20  2  0
 20 21  1  0
 21 22  2  0
 22 23  1  0
 22 24  1  0
 24 25  1  0
 24 26  2  0
 12  3  1  0
 26 19  1  0
 13  3  1  0
M  END
>  <energy_score>  (514) 
-7.706439

>  <inchikey>  (514) 
None

>  <smiles>  (514) 
None

>  <ref_pdb>  (514) 
A4237a

>  <alias>  (514) 
None

>  <HIPPO Pose ID>  (514) 
498158

>  <name>  (514) 
P498158

>  <HIPPO Compound ID>  (514) 
291643

>  <ref_mols>  (514) 
A4237a,A1778a

>  <distance_score>  (514) 
1.969287

>  <inspiration_score>  (514) 
None

$$$$
P498159
     RDKit          3D

 27 29  0  0  0  0  0  0  0  0999 V2000
   10.4456   15.3144   18.8542 C   0  0  0  0  0  0  0  0  0  0  0  0
   10.8104   15.3463   20.2233 O   0  0  0  0  0  0  0  0  0  0  0  0
    9.7806   14.9091   21.1244 C   0  0  0  0  0  0  0  0  0  0  0  0
   10.4351   14.6357   22.5087 C   0  0  2  0  0  0  0  0  0  0  0  0
   11.2439   15.8589   22.8694 C   0  0  0  0  0  0  0  0  0  0  0  0
   11.5660   15.4828   24.2583 C   0  0  0  0  0  0  0  0  0  0  0  0
   10.7902   14.1765   24.4220 C   0  0  2  0  0  0  0  0  0  0  0  0
   10.8155   13.9913   25.9649 C   0  0  0  0  0  0  0  0  0  0  0  0
   11.4359   13.1065   26.5396 O   0  0  0  0  0  0  0  0  0  0  0  0
   10.1445   14.9893   26.6030 O   0  0  0  0  0  0  0  0  0  0  0  0
   10.3467   15.1194   28.0147 C   0  0  0  0  0  0  0  0  0  0  0  0
   11.5599   13.0372   23.7980 C   0  0  0  0  0  0  0  0  0  0  0  0
   11.2942   13.3741   22.3719 C   0  0  0  0  0  0  0  0  0  0  0  0
    9.4421   14.3074   23.6449 N   0  0  0  0  0  0  0  0  0  0  0  0
    8.5548   13.0866   23.8655 C   0  0  0  0  0  0  0  0  0  0  0  0
    8.4825   12.0771   23.2600 O   0  0  0  0  0  0  0  0  0  0  0  0
    7.6729   13.3004   25.0962 C   0  0  2  0  0  0  0  0  0  0  0  0
    7.2514   11.9303   25.6213 C   0  0  0  0  0  0  0  0  0  0  0  0
    6.1903   14.2272   24.6007 S   0  0  0  0  0  0  0  0  0  0  0  0
    6.3720   15.7482   25.4858 C   0  0  0  0  0  0  0  0  0  0  0  0
    7.5882   16.3726   25.6934 C   0  0  0  0  0  0  0  0  0  0  0  0
    7.6506   17.5301   26.4577 C   0  0  0  0  0  0  0  0  0  0  0  0
    6.4757   18.1067   26.9089 C   0  0  0  0  0  0  0  0  0  0  0  0
    6.6223   19.7191   27.8748 Br  0  0  0  0  0  0  0  0  0  0  0  0
    5.2837   17.4606   26.6099 C   0  0  0  0  0  0  0  0  0  0  0  0
    3.5981   18.1420   27.1799 Br  0  0  0  0  0  0  0  0  0  0  0  0
    5.2252   16.2802   25.9442 N   0  0  0  0  0  0  0  0  0  0  0  0
  1  2  1  0
  2  3  1  0
  4  3  1  6
  4  5  1  0
  5  6  1  0
  6  7  1  0
  7  8  1  1
  8  9  2  0
  8 10  1  0
 10 11  1  0
  7 12  1  0
 12 13  1  0
  7 14  1  0
 14 15  1  0
 15 16  2  0
 15 17  1  0
 17 18  1  6
 17 19  1  0
 19 20  1  0
 20 21  2  0
 21 22  1  0
 22 23  2  0
 23 24  1  0
 23 25  1  0
 25 26  1  0
 25 27  2  0
 13  4  1  0
 27 20  1  0
 14  4  1  0
M  END
>  <energy_score>  (515) 
-34.330745

>  <inchikey>  (515) 
None

>  <smiles>  (515) 
None

>  <ref_pdb>  (515) 
A4237a

>  <alias>  (515) 
None

>  <HIPPO Pose ID>  (515) 
498159

>  <name>  (515) 
P498159

>  <HIPPO Compound ID>  (515) 
291666

>  <ref_mols>  (515) 
A4237a,A1778a

>  <distance_score>  (515) 
1.91036

>  <inspiration_score>  (515) 
None

$$$$
P498160
     RDKit          3D

 27 29  0  0  0  0  0  0  0  0999 V2000
    9.4241   17.4118   20.8162 C   0  0  0  0  0  0  0  0  0  0  0  0
    8.3883   16.6174   21.4003 O   0  0  0  0  0  0  0  0  0  0  0  0
    8.5580   16.1999   22.6709 C   0  0  0  0  0  0  0  0  0  0  0  0
    7.8358   16.5871   23.5861 O   0  0  0  0  0  0  0  0  0  0  0  0
    9.6947   15.1865   22.9006 C   0  0  2  0  0  0  0  0  0  0  0  0
   10.9018   15.8939   23.4902 C   0  0  0  0  0  0  0  0  0  0  0  0
   11.5175   14.7519   24.2148 C   0  0  0  0  0  0  0  0  0  0  0  0
   10.5479   13.6362   23.8086 C   0  0  2  0  0  0  0  0  0  0  0  0
   10.8743   12.4284   24.7108 C   0  0  0  0  0  0  0  0  0  0  0  0
   10.1949   11.3203   24.3269 F   0  0  0  0  0  0  0  0  0  0  0  0
   12.1932   12.1238   24.5985 F   0  0  0  0  0  0  0  0  0  0  0  0
   10.7416   13.2353   22.3544 C   0  0  0  0  0  0  0  0  0  0  0  0
   10.0512   14.3700   21.6688 C   0  0  0  0  0  0  0  0  0  0  0  0
    9.1208   14.2188   23.9547 N   0  0  0  0  0  0  0  0  0  0  0  0
    8.0598   13.1267   23.8284 C   0  0  0  0  0  0  0  0  0  0  0  0
    7.4934   12.7200   22.8770 O   0  0  0  0  0  0  0  0  0  0  0  0
    7.7196   12.6515   25.2497 C   0  0  2  0  0  0  0  0  0  0  0  0
    7.4683   11.1496   25.2598 C   0  0  0  0  0  0  0  0  0  0  0  0
    6.1689   13.4400   25.8051 S   0  0  0  0  0  0  0  0  0  0  0  0
    6.6268   15.1087   26.1851 C   0  0  0  0  0  0  0  0  0  0  0  0
    7.7939   15.4506   26.8555 C   0  0  0  0  0  0  0  0  0  0  0  0
    7.9723   16.7683   27.2717 C   0  0  0  0  0  0  0  0  0  0  0  0
    6.9758   17.7077   27.0208 C   0  0  0  0  0  0  0  0  0  0  0  0
    7.1956   19.4344   27.7583 Br  0  0  0  0  0  0  0  0  0  0  0  0
    5.8446   17.2915   26.3300 C   0  0  0  0  0  0  0  0  0  0  0  0
    4.3634   18.4472   26.0432 Br  0  0  0  0  0  0  0  0  0  0  0  0
    5.6565   16.0104   25.9353 N   0  0  0  0  0  0  0  0  0  0  0  0
  1  2  1  0
  2  3  1  0
  3  4  2  0
  5  3  1  6
  5  6  1  0
  6  7  1  0
  7  8  1  0
  8  9  1  1
  9 10  1  0
  9 11  1  0
  8 12  1  0
 12 13  1  0
  8 14  1  0
 14 15  1  0
 15 16  2  0
 15 17  1  0
 17 18  1  6
 17 19  1  0
 19 20  1  0
 20 21  2  0
 21 22  1  0
 22 23  2  0
 23 24  1  0
 23 25  1  0
 25 26  1  0
 25 27  2  0
 13  5  1  0
 27 20  1  0
 14  5  1  0
M  END
>  <energy_score>  (516) 
-12.302253

>  <inchikey>  (516) 
None

>  <smiles>  (516) 
None

>  <ref_pdb>  (516) 
A4237a

>  <alias>  (516) 
None

>  <HIPPO Pose ID>  (516) 
498160

>  <name>  (516) 
P498160

>  <HIPPO Compound ID>  (516) 
291669

>  <ref_mols>  (516) 
A4237a,A1778a

>  <distance_score>  (516) 
1.558178

>  <inspiration_score>  (516) 
None

$$$$
P498161
     RDKit          3D

 24 27  0  0  0  0  0  0  0  0999 V2000
   13.4011   12.9508   23.0830 O   0  0  0  0  0  0  0  0  0  0  0  0
   12.4169   13.5167   22.8107 C   0  0  0  0  0  0  0  0  0  0  0  0
   12.4441   14.8369   22.0669 C   0  0  0  0  0  0  0  0  0  0  0  0
   12.3294   14.8123   20.5475 C   0  0  1  0  0  0  0  0  0  0  0  0
   10.9602   14.5454   20.1452 N   0  0  0  0  0  0  0  0  0  0  0  0
   10.3696   15.6570   19.5828 C   0  0  0  0  0  0  0  0  0  0  0  0
    9.2983   15.7499   19.0309 O   0  0  0  0  0  0  0  0  0  0  0  0
   11.3131   16.7499   19.6491 C   0  0  0  0  0  0  0  0  0  0  0  0
   11.1348   18.0776   19.3060 C   0  0  0  0  0  0  0  0  0  0  0  0
   12.2552   18.9039   19.2971 C   0  0  0  0  0  0  0  0  0  0  0  0
   13.5116   18.3675   19.6043 C   0  0  0  0  0  0  0  0  0  0  0  0
   13.6399   17.0278   20.0005 C   0  0  0  0  0  0  0  0  0  0  0  0
   12.5234   16.2208   20.0452 C   0  0  0  0  0  0  0  0  0  0  0  0
   10.9378   13.1362   23.0652 N   0  0  0  0  0  0  0  0  0  0  0  0
   10.3631   11.9385   23.6209 C   0  0  2  0  0  0  0  0  0  0  0  0
    9.7214   11.1414   22.5227 C   0  0  0  0  0  0  0  0  0  0  0  0
    9.3514    9.7272   22.9085 C   0  0  0  0  0  0  0  0  0  0  0  0
    9.3792    9.5229   24.3838 C   0  0  0  0  0  0  0  0  0  0  0  0
    8.9013   10.6375   25.2084 N   0  0  0  0  0  0  0  0  0  0  0  0
    7.4452   10.6028   25.3549 C   0  0  0  0  0  0  0  0  0  0  0  0
    6.9461   11.7602   26.2193 C   0  0  0  0  0  0  0  0  0  0  0  0
    7.4001   13.0522   25.8104 O   0  0  0  0  0  0  0  0  0  0  0  0
    8.2503   13.0279   24.6561 C   0  0  0  0  0  0  0  0  0  0  0  0
    9.3948   12.0028   24.8164 C   0  0  2  0  0  0  0  0  0  0  0  0
  1  2  2  0
  2  3  1  0
  4  3  1  1
  4  5  1  0
  5  6  1  0
  6  7  2  0
  6  8  1  0
  8  9  2  0
  9 10  1  0
 10 11  2  0
 11 12  1  0
 12 13  2  0
  2 14  1  0
 15 14  1  6
 15 16  1  0
 16 17  1  0
 17 18  1  0
 18 19  1  0
 19 20  1  0
 20 21  1  0
 21 22  1  0
 22 23  1  0
 24 23  1  6
 13  4  1  0
 24 15  1  0
 13  8  1  0
 24 19  1  0
M  END
>  <energy_score>  (517) 
-7.56669

>  <inchikey>  (517) 
None

>  <smiles>  (517) 
None

>  <ref_pdb>  (517) 
A2293a

>  <alias>  (517) 
None

>  <HIPPO Pose ID>  (517) 
498161

>  <name>  (517) 
P498161

>  <HIPPO Compound ID>  (517) 
291883

>  <ref_mols>  (517) 
A4943b,A2293a

>  <distance_score>  (517) 
1.227898

>  <inspiration_score>  (517) 
None

$$$$
P498162
     RDKit          3D

 24 27  0  0  0  0  0  0  0  0999 V2000
   12.5105   12.7613   23.9718 O   0  0  0  0  0  0  0  0  0  0  0  0
   11.9129   13.1135   23.0296 C   0  0  0  0  0  0  0  0  0  0  0  0
   12.5812   14.0038   21.9385 C   0  0  0  0  0  0  0  0  0  0  0  0
   11.7417   15.0938   21.3256 C   0  0  2  0  0  0  0  0  0  0  0  0
   10.6458   14.5943   20.5138 N   0  0  0  0  0  0  0  0  0  0  0  0
   10.2015   15.6325   19.7179 C   0  0  0  0  0  0  0  0  0  0  0  0
    9.2482   15.6025   18.9798 O   0  0  0  0  0  0  0  0  0  0  0  0
   11.1810   16.7032   19.7635 C   0  0  0  0  0  0  0  0  0  0  0  0
   11.1657   17.9080   19.1008 C   0  0  0  0  0  0  0  0  0  0  0  0
   12.3421   18.6421   19.0820 C   0  0  0  0  0  0  0  0  0  0  0  0
   13.4993   18.1024   19.6581 C   0  0  0  0  0  0  0  0  0  0  0  0
   13.4615   16.8821   20.3592 C   0  0  0  0  0  0  0  0  0  0  0  0
   12.2607   16.2218   20.4837 C   0  0  0  0  0  0  0  0  0  0  0  0
   10.4763   12.7593   22.5596 N   0  0  0  0  0  0  0  0  0  0  0  0
    9.5099   11.8205   23.1035 C   0  0  1  0  0  0  0  0  0  0  0  0
   10.0524   10.4062   22.8788 C   0  0  0  0  0  0  0  0  0  0  0  0
    9.1584    9.2708   23.3067 C   0  0  0  0  0  0  0  0  0  0  0  0
    8.5209    9.5646   24.6311 C   0  0  0  0  0  0  0  0  0  0  0  0
    7.9327   10.8940   24.7067 N   0  0  0  0  0  0  0  0  0  0  0  0
    7.2144   11.0287   25.9794 C   0  0  0  0  0  0  0  0  0  0  0  0
    6.6988   12.4435   26.1886 C   0  0  0  0  0  0  0  0  0  0  0  0
    7.7898   13.3618   26.1388 O   0  0  0  0  0  0  0  0  0  0  0  0
    8.3973   13.3397   24.8338 C   0  0  0  0  0  0  0  0  0  0  0  0
    8.9858   11.9518   24.5440 C   0  0  2  0  0  0  0  0  0  0  0  0
  1  2  2  0
  2  3  1  0
  4  3  1  6
  4  5  1  0
  5  6  1  0
  6  7  2  0
  6  8  1  0
  8  9  2  0
  9 10  1  0
 10 11  2  0
 11 12  1  0
 12 13  2  0
  2 14  1  0
 15 14  1  1
 15 16  1  0
 16 17  1  0
 17 18  1  0
 18 19  1  0
 19 20  1  0
 20 21  1  0
 21 22  1  0
 22 23  1  0
 24 23  1  6
 13  4  1  0
 24 15  1  0
 13  8  1  0
 24 19  1  0
M  END
>  <energy_score>  (518) 
-2.870533

>  <inchikey>  (518) 
None

>  <smiles>  (518) 
None

>  <ref_pdb>  (518) 
A2293a

>  <alias>  (518) 
None

>  <HIPPO Pose ID>  (518) 
498162

>  <name>  (518) 
P498162

>  <HIPPO Compound ID>  (518) 
291883

>  <ref_mols>  (518) 
A4943b,A2293a

>  <distance_score>  (518) 
1.551913

>  <inspiration_score>  (518) 
None

$$$$
P498163
     RDKit          3D

 24 27  0  0  0  0  0  0  0  0999 V2000
   12.6084   12.7615   23.3217 O   0  0  0  0  0  0  0  0  0  0  0  0
   11.7815   13.4242   22.8237 C   0  0  0  0  0  0  0  0  0  0  0  0
   12.1185   14.7339   22.1222 C   0  0  0  0  0  0  0  0  0  0  0  0
   12.1047   14.7618   20.5958 C   0  0  1  0  0  0  0  0  0  0  0  0
   10.7487   14.6045   20.0988 N   0  0  0  0  0  0  0  0  0  0  0  0
   10.2756   15.7609   19.5159 C   0  0  0  0  0  0  0  0  0  0  0  0
    9.2575   15.9436   18.8885 O   0  0  0  0  0  0  0  0  0  0  0  0
   11.2907   16.7773   19.6613 C   0  0  0  0  0  0  0  0  0  0  0  0
   11.2313   18.1097   19.2967 C   0  0  0  0  0  0  0  0  0  0  0  0
   12.4145   18.8399   19.3146 C   0  0  0  0  0  0  0  0  0  0  0  0
   13.6080   18.2055   19.6826 C   0  0  0  0  0  0  0  0  0  0  0  0
   13.6099   16.8673   20.1110 C   0  0  0  0  0  0  0  0  0  0  0  0
   12.4326   16.1542   20.1216 C   0  0  0  0  0  0  0  0  0  0  0  0
   10.2356   13.2325   22.7614 N   0  0  0  0  0  0  0  0  0  0  0  0
    9.3974   12.1269   23.2217 C   0  0  1  0  0  0  0  0  0  0  0  0
   10.0121   10.8444   22.7024 C   0  0  0  0  0  0  0  0  0  0  0  0
    9.2160    9.6141   23.0237 C   0  0  0  0  0  0  0  0  0  0  0  0
    9.1560    9.4938   24.5025 C   0  0  0  0  0  0  0  0  0  0  0  0
    8.7011   10.6690   25.2319 N   0  0  0  0  0  0  0  0  0  0  0  0
    7.2595   10.6978   25.4205 C   0  0  0  0  0  0  0  0  0  0  0  0
    6.8696   11.7386   26.4769 C   0  0  0  0  0  0  0  0  0  0  0  0
    7.7583   12.8608   26.5499 O   0  0  0  0  0  0  0  0  0  0  0  0
    8.3387   13.1613   25.2747 C   0  0  0  0  0  0  0  0  0  0  0  0
    9.2187   11.9932   24.7600 C   0  0  2  0  0  0  0  0  0  0  0  0
  1  2  2  0
  2  3  1  0
  4  3  1  1
  4  5  1  0
  5  6  1  0
  6  7  2  0
  6  8  1  0
  8  9  2  0
  9 10  1  0
 10 11  2  0
 11 12  1  0
 12 13  2  0
  2 14  1  0
 15 14  1  1
 15 16  1  0
 16 17  1  0
 17 18  1  0
 18 19  1  0
 19 20  1  0
 20 21  1  0
 21 22  1  0
 22 23  1  0
 24 23  1  6
 13  4  1  0
 24 15  1  0
 13  8  1  0
 24 19  1  0
M  END
>  <energy_score>  (519) 
-1.911729

>  <inchikey>  (519) 
None

>  <smiles>  (519) 
None

>  <ref_pdb>  (519) 
A2293a

>  <alias>  (519) 
None

>  <HIPPO Pose ID>  (519) 
498163

>  <name>  (519) 
P498163

>  <HIPPO Compound ID>  (519) 
291883

>  <ref_mols>  (519) 
A4943b,A2293a

>  <distance_score>  (519) 
1.131736

>  <inspiration_score>  (519) 
None

$$$$
P498164
     RDKit          3D

 24 27  0  0  0  0  0  0  0  0999 V2000
   13.1861   12.9748   23.0141 O   0  0  0  0  0  0  0  0  0  0  0  0
   12.1987   13.5459   22.7562 C   0  0  0  0  0  0  0  0  0  0  0  0
   12.2377   14.8727   22.0354 C   0  0  0  0  0  0  0  0  0  0  0  0
   12.2126   14.8391   20.5148 C   0  0  1  0  0  0  0  0  0  0  0  0
   10.8580   14.6061   20.0502 N   0  0  0  0  0  0  0  0  0  0  0  0
   10.3070   15.7444   19.4992 C   0  0  0  0  0  0  0  0  0  0  0  0
    9.2597   15.8740   18.9081 O   0  0  0  0  0  0  0  0  0  0  0  0
   11.2752   16.8118   19.6201 C   0  0  0  0  0  0  0  0  0  0  0  0
   11.1428   18.1486   19.3004 C   0  0  0  0  0  0  0  0  0  0  0  0
   12.2922   18.9344   19.3039 C   0  0  0  0  0  0  0  0  0  0  0  0
   13.5283   18.3526   19.6138 C   0  0  0  0  0  0  0  0  0  0  0  0
   13.6085   17.0069   20.0007 C   0  0  0  0  0  0  0  0  0  0  0  0
   12.4636   16.2404   20.0250 C   0  0  0  0  0  0  0  0  0  0  0  0
   10.7191   13.1981   23.0839 N   0  0  0  0  0  0  0  0  0  0  0  0
   10.1496   12.0326   23.7102 C   0  0  2  0  0  0  0  0  0  0  0  0
    9.9756   10.9636   22.6549 C   0  0  0  0  0  0  0  0  0  0  0  0
    9.8758    9.5932   23.2755 C   0  0  0  0  0  0  0  0  0  0  0  0
    8.6791    9.5798   24.2063 C   0  0  0  0  0  0  0  0  0  0  0  0
    8.5729   10.7381   25.1060 N   0  0  0  0  0  0  0  0  0  0  0  0
    7.2810   10.7235   25.8164 C   0  0  0  0  0  0  0  0  0  0  0  0
    6.7859   12.1137   26.2331 C   0  0  0  0  0  0  0  0  0  0  0  0
    7.8813   12.9359   26.6287 O   0  0  0  0  0  0  0  0  0  0  0  0
    8.7704   13.1987   25.5256 C   0  0  0  0  0  0  0  0  0  0  0  0
    8.8143   12.0716   24.4766 C   0  0  1  0  0  0  0  0  0  0  0  0
  1  2  2  0
  2  3  1  0
  4  3  1  1
  4  5  1  0
  5  6  1  0
  6  7  2  0
  6  8  1  0
  8  9  2  0
  9 10  1  0
 10 11  2  0
 11 12  1  0
 12 13  2  0
  2 14  1  0
 15 14  1  6
 15 16  1  0
 16 17  1  0
 17 18  1  0
 18 19  1  0
 19 20  1  0
 20 21  1  0
 21 22  1  0
 22 23  1  0
 24 23  1  1
 13  4  1  0
 24 15  1  0
 13  8  1  0
 24 19  1  0
M  END
>  <energy_score>  (520) 
-4.898019

>  <inchikey>  (520) 
None

>  <smiles>  (520) 
None

>  <ref_pdb>  (520) 
A2293a

>  <alias>  (520) 
None

>  <HIPPO Pose ID>  (520) 
498164

>  <name>  (520) 
P498164

>  <HIPPO Compound ID>  (520) 
291883

>  <ref_mols>  (520) 
A4943b,A2293a

>  <distance_score>  (520) 
1.160478

>  <inspiration_score>  (520) 
None

$$$$
P498165
     RDKit          3D

 24 27  0  0  0  0  0  0  0  0999 V2000
   12.5682   12.8047   23.2784 O   0  0  0  0  0  0  0  0  0  0  0  0
   11.7304   13.4868   22.8248 C   0  0  0  0  0  0  0  0  0  0  0  0
   12.0556   14.8000   22.1343 C   0  0  0  0  0  0  0  0  0  0  0  0
   12.0825   14.8004   20.6078 C   0  0  1  0  0  0  0  0  0  0  0  0
   10.7375   14.6458   20.0819 N   0  0  0  0  0  0  0  0  0  0  0  0
   10.2743   15.8044   19.4960 C   0  0  0  0  0  0  0  0  0  0  0  0
    9.2594   15.9900   18.8634 O   0  0  0  0  0  0  0  0  0  0  0  0
   11.2990   16.8123   19.6462 C   0  0  0  0  0  0  0  0  0  0  0  0
   11.2589   18.1415   19.2708 C   0  0  0  0  0  0  0  0  0  0  0  0
   12.4509   18.8574   19.2900 C   0  0  0  0  0  0  0  0  0  0  0  0
   13.6339   18.2142   19.6758 C   0  0  0  0  0  0  0  0  0  0  0  0
   13.6170   16.8810   20.1174 C   0  0  0  0  0  0  0  0  0  0  0  0
   12.4312   16.1822   20.1227 C   0  0  0  0  0  0  0  0  0  0  0  0
   10.1860   13.2707   22.7396 N   0  0  0  0  0  0  0  0  0  0  0  0
    9.3696   12.1223   23.1120 C   0  0  1  0  0  0  0  0  0  0  0  0
   10.1779   10.8528   22.9725 C   0  0  0  0  0  0  0  0  0  0  0  0
    9.5369    9.5388   23.3444 C   0  0  0  0  0  0  0  0  0  0  0  0
    8.4409    9.6802   24.3674 C   0  0  0  0  0  0  0  0  0  0  0  0
    8.5442   10.8771   25.1989 N   0  0  0  0  0  0  0  0  0  0  0  0
    7.3889   10.9189   26.1234 C   0  0  0  0  0  0  0  0  0  0  0  0
    7.4347   12.1774   26.9891 C   0  0  0  0  0  0  0  0  0  0  0  0
    7.4833   13.3644   26.1997 O   0  0  0  0  0  0  0  0  0  0  0  0
    8.5992   13.3503   25.2829 C   0  0  0  0  0  0  0  0  0  0  0  0
    8.4832   12.1289   24.3737 C   0  0  1  0  0  0  0  0  0  0  0  0
  1  2  2  0
  2  3  1  0
  4  3  1  1
  4  5  1  0
  5  6  1  0
  6  7  2  0
  6  8  1  0
  8  9  2  0
  9 10  1  0
 10 11  2  0
 11 12  1  0
 12 13  2  0
  2 14  1  0
 15 14  1  1
 15 16  1  0
 16 17  1  0
 17 18  1  0
 18 19  1  0
 19 20  1  0
 20 21  1  0
 21 22  1  0
 22 23  1  0
 24 23  1  1
 13  4  1  0
 24 15  1  0
 13  8  1  0
 24 19  1  0
M  END
>  <energy_score>  (521) 
-28.768672

>  <inchikey>  (521) 
None

>  <smiles>  (521) 
None

>  <ref_pdb>  (521) 
A2293a

>  <alias>  (521) 
None

>  <HIPPO Pose ID>  (521) 
498165

>  <name>  (521) 
P498165

>  <HIPPO Compound ID>  (521) 
291883

>  <ref_mols>  (521) 
A4943b,A2293a

>  <distance_score>  (521) 
1.297035

>  <inspiration_score>  (521) 
None

$$$$
P498166
     RDKit          3D

 25 27  0  0  0  0  0  0  0  0999 V2000
    5.5805   13.1211   27.1442 C   0  0  0  0  0  0  0  0  0  0  0  0
    5.6611   11.7388   26.7788 O   0  0  0  0  0  0  0  0  0  0  0  0
    6.4212   11.3168   25.7264 C   0  0  0  0  0  0  0  0  0  0  0  0
    6.3752   10.1353   25.3895 O   0  0  0  0  0  0  0  0  0  0  0  0
    7.3544   12.3716   25.1016 C   0  0  0  0  0  0  0  0  0  0  0  0
    7.9683   11.9670   23.8097 N   0  0  0  0  0  0  0  0  0  0  0  0
    8.7771   10.7416   23.9051 C   0  0  0  0  0  0  0  0  0  0  0  0
   10.2185   11.0080   23.5459 C   0  0  0  0  0  0  0  0  0  0  0  0
   10.6896   12.2161   24.3472 C   0  0  0  0  0  0  0  0  0  0  0  0
   10.0283   13.4809   23.8223 C   0  0  1  0  0  0  0  0  0  0  0  0
   10.8898   14.2226   22.9151 N   0  0  0  0  0  0  0  0  0  0  0  0
   12.3081   13.8834   22.3617 C   0  0  0  0  0  0  0  0  0  0  0  0
   13.0267   12.9952   22.6128 O   0  0  0  0  0  0  0  0  0  0  0  0
   12.7239   15.0105   21.4428 C   0  0  0  0  0  0  0  0  0  0  0  0
   12.1274   15.0387   20.0401 C   0  0  1  0  0  0  0  0  0  0  0  0
   10.6824   15.0754   20.1172 N   0  0  0  0  0  0  0  0  0  0  0  0
   10.2242   16.3700   20.1542 C   0  0  0  0  0  0  0  0  0  0  0  0
    9.1741   16.7789   20.5896 O   0  0  0  0  0  0  0  0  0  0  0  0
   11.2969   17.2235   19.6835 C   0  0  0  0  0  0  0  0  0  0  0  0
   11.3045   18.5943   19.5001 C   0  0  0  0  0  0  0  0  0  0  0  0
   12.5044   19.1752   19.0983 C   0  0  0  0  0  0  0  0  0  0  0  0
   13.6297   18.3687   18.8534 C   0  0  0  0  0  0  0  0  0  0  0  0
   13.5858   16.9814   19.0508 C   0  0  0  0  0  0  0  0  0  0  0  0
   12.4143   16.4188   19.5051 C   0  0  0  0  0  0  0  0  0  0  0  0
    8.6744   13.1070   23.1810 C   0  0  0  0  0  0  0  0  0  0  0  0
  1  2  1  0
  2  3  1  0
  3  4  2  0
  3  5  1  0
  5  6  1  0
  6  7  1  0
  7  8  1  0
  8  9  1  0
  9 10  1  0
 10 11  1  6
 11 12  1  0
 12 13  2  0
 12 14  1  0
 15 14  1  1
 15 16  1  0
 16 17  1  0
 17 18  2  0
 17 19  1  0
 19 20  2  0
 20 21  1  0
 21 22  2  0
 22 23  1  0
 23 24  2  0
 10 25  1  0
 25  6  1  0
 24 15  1  0
 24 19  1  0
M  END
>  <energy_score>  (522) 
-12.870399

>  <inchikey>  (522) 
None

>  <smiles>  (522) 
None

>  <ref_pdb>  (522) 
A2293a

>  <alias>  (522) 
None

>  <HIPPO Pose ID>  (522) 
498166

>  <name>  (522) 
P498166

>  <HIPPO Compound ID>  (522) 
291885

>  <ref_mols>  (522) 
A4943b,A2293a

>  <distance_score>  (522) 
1.912535

>  <inspiration_score>  (522) 
None

$$$$
P498167
     RDKit          3D

 25 28  0  0  0  0  0  0  0  0999 V2000
    9.4450   14.5536   20.1987 C   0  0  0  0  0  0  0  0  0  0  0  0
   10.3613   15.4895   20.7271 N   0  0  0  0  0  0  0  0  0  0  0  0
   10.0026   16.8006   20.5225 C   0  0  0  0  0  0  0  0  0  0  0  0
    8.8972   17.2720   20.6593 O   0  0  0  0  0  0  0  0  0  0  0  0
   11.1692   17.5085   20.0515 C   0  0  0  0  0  0  0  0  0  0  0  0
   11.2281   18.8259   19.6344 C   0  0  0  0  0  0  0  0  0  0  0  0
   12.4667   19.2953   19.2286 C   0  0  0  0  0  0  0  0  0  0  0  0
   13.5742   18.4291   19.2221 C   0  0  0  0  0  0  0  0  0  0  0  0
   13.4667   17.0898   19.6445 C   0  0  0  0  0  0  0  0  0  0  0  0
   12.2457   16.6278   20.0862 C   0  0  0  0  0  0  0  0  0  0  0  0
   11.8048   15.2750   20.6134 C   0  0  1  0  0  0  0  0  0  0  0  0
   12.2728   14.9603   22.0372 C   0  0  0  0  0  0  0  0  0  0  0  0
   11.9195   13.5900   22.6189 C   0  0  0  0  0  0  0  0  0  0  0  0
   12.7626   12.7885   22.7715 O   0  0  0  0  0  0  0  0  0  0  0  0
   10.3666   13.4832   22.8234 N   0  0  0  0  0  0  0  0  0  0  0  0
    9.5257   12.3241   23.1683 C   0  0  1  0  0  0  0  0  0  0  0  0
   10.3227   11.0566   23.0071 C   0  0  0  0  0  0  0  0  0  0  0  0
    9.6882    9.7208   23.3122 C   0  0  0  0  0  0  0  0  0  0  0  0
    8.5355    9.8145   24.2732 C   0  0  0  0  0  0  0  0  0  0  0  0
    8.6087   10.9770   25.1565 N   0  0  0  0  0  0  0  0  0  0  0  0
    7.4276   10.9706   26.0469 C   0  0  0  0  0  0  0  0  0  0  0  0
    7.4395   12.1900   26.9662 C   0  0  0  0  0  0  0  0  0  0  0  0
    7.5044   13.4088   26.2282 O   0  0  0  0  0  0  0  0  0  0  0  0
    8.6507   13.4439   25.3498 C   0  0  0  0  0  0  0  0  0  0  0  0
    8.5759   12.2687   24.3838 C   0  0  1  0  0  0  0  0  0  0  0  0
  1  2  1  0
  2  3  1  0
  3  4  2  0
  3  5  1  0
  5  6  2  0
  6  7  1  0
  7  8  2  0
  8  9  1  0
  9 10  2  0
 10 11  1  0
 11 12  1  1
 12 13  1  0
 13 14  2  0
 13 15  1  0
 16 15  1  1
 16 17  1  0
 17 18  1  0
 18 19  1  0
 19 20  1  0
 20 21  1  0
 21 22  1  0
 22 23  1  0
 23 24  1  0
 25 24  1  1
 11  2  1  0
 25 16  1  0
 10  5  1  0
 25 20  1  0
M  END
>  <energy_score>  (523) 
-9.835609

>  <inchikey>  (523) 
None

>  <smiles>  (523) 
None

>  <ref_pdb>  (523) 
A2293a

>  <alias>  (523) 
None

>  <HIPPO Pose ID>  (523) 
498167

>  <name>  (523) 
P498167

>  <HIPPO Compound ID>  (523) 
291886

>  <ref_mols>  (523) 
A4943b,A2293a

>  <distance_score>  (523) 
1.52943

>  <inspiration_score>  (523) 
None

$$$$
P498168
     RDKit          3D

 20 22  0  0  0  0  0  0  0  0999 V2000
   11.8468   14.3888   18.9962 C   0  0  0  0  0  0  0  0  0  0  0  0
   12.8044   15.2069   19.6791 N   0  0  0  0  0  0  0  0  0  0  0  0
   13.5214   16.1419   18.9147 C   0  0  0  0  0  0  0  0  0  0  0  0
   13.6352   16.1390   17.6972 O   0  0  0  0  0  0  0  0  0  0  0  0
   13.9158   17.2911   19.8244 C   0  0  2  0  0  0  0  0  0  0  0  0
   15.1890   17.7385   19.7351 F   0  0  0  0  0  0  0  0  0  0  0  0
   13.6159   16.7525   21.2107 C   0  0  0  0  0  0  0  0  0  0  0  0
   12.4453   15.8485   20.9160 C   0  0  2  0  0  0  0  0  0  0  0  0
   11.8079   15.0733   22.0763 C   0  0  0  0  0  0  0  0  0  0  0  0
   11.1661   15.6544   22.9419 O   0  0  0  0  0  0  0  0  0  0  0  0
   11.9538   13.7229   22.0858 O   0  0  0  0  0  0  0  0  0  0  0  0
   11.6288   13.0667   23.3419 C   0  0  0  0  0  0  0  0  0  0  0  0
   10.1626   12.6969   23.5938 C   0  0  0  0  0  0  0  0  0  0  0  0
    9.8967   11.2416   23.7989 N   0  0  0  0  0  0  0  0  0  0  0  0
   10.1683   10.2872   22.8738 C   0  0  0  0  0  0  0  0  0  0  0  0
    9.4698    9.1705   23.2436 C   0  0  0  0  0  0  0  0  0  0  0  0
    8.7554    9.5883   24.3767 C   0  0  0  0  0  0  0  0  0  0  0  0
    9.0576   10.8239   24.7637 N   0  0  0  0  0  0  0  0  0  0  0  0
    8.9915   13.5122   23.0646 C   0  0  0  0  0  0  0  0  0  0  0  0
    9.3986   13.6887   24.4832 C   0  0  0  0  0  0  0  0  0  0  0  0
  1  2  1  0
  2  3  1  0
  3  4  2  0
  3  5  1  0
  5  6  1  1
  5  7  1  0
  7  8  1  0
  8  9  1  1
  9 10  2  0
  9 11  1  0
 11 12  1  0
 12 13  1  0
 13 14  1  0
 14 15  1  0
 15 16  2  0
 16 17  1  0
 17 18  2  0
 13 19  1  0
 19 20  1  0
  8  2  1  0
 20 13  1  0
 18 14  1  0
M  END
>  <energy_score>  (524) 
-10.530468

>  <inchikey>  (524) 
None

>  <smiles>  (524) 
None

>  <ref_pdb>  (524) 
A2629a

>  <alias>  (524) 
None

>  <HIPPO Pose ID>  (524) 
498168

>  <name>  (524) 
P498168

>  <HIPPO Compound ID>  (524) 
291925

>  <ref_mols>  (524) 
A3956a,A2629a

>  <distance_score>  (524) 
1.51744

>  <inspiration_score>  (524) 
None

$$$$
P498169
     RDKit          3D

 20 22  0  0  0  0  0  0  0  0999 V2000
   10.9928   13.6632   20.6505 C   0  0  0  0  0  0  0  0  0  0  0  0
   11.9958   14.6673   20.6070 N   0  0  0  0  0  0  0  0  0  0  0  0
   12.3864   15.2589   19.4209 C   0  0  0  0  0  0  0  0  0  0  0  0
   12.0310   14.9442   18.2909 O   0  0  0  0  0  0  0  0  0  0  0  0
   13.2922   16.4071   19.7798 C   0  0  1  0  0  0  0  0  0  0  0  0
   12.7719   17.6053   19.3860 F   0  0  0  0  0  0  0  0  0  0  0  0
   13.3932   16.3745   21.3069 C   0  0  0  0  0  0  0  0  0  0  0  0
   12.2773   15.4690   21.7690 C   0  0  2  0  0  0  0  0  0  0  0  0
   12.4349   14.4680   22.9168 C   0  0  0  0  0  0  0  0  0  0  0  0
   13.4278   13.8568   23.2741 O   0  0  0  0  0  0  0  0  0  0  0  0
   11.2042   14.2525   23.4847 O   0  0  0  0  0  0  0  0  0  0  0  0
   11.1449   13.1306   24.3677 C   0  0  0  0  0  0  0  0  0  0  0  0
    9.7238   12.6239   24.4166 C   0  0  0  0  0  0  0  0  0  0  0  0
    9.5673   11.2098   24.0146 N   0  0  0  0  0  0  0  0  0  0  0  0
   10.1617   10.6210   22.9456 C   0  0  0  0  0  0  0  0  0  0  0  0
    9.8006    9.3017   22.9750 C   0  0  0  0  0  0  0  0  0  0  0  0
    8.9575    9.2324   24.0850 C   0  0  0  0  0  0  0  0  0  0  0  0
    8.8008   10.3824   24.7278 N   0  0  0  0  0  0  0  0  0  0  0  0
    8.5777   13.5993   24.1847 C   0  0  0  0  0  0  0  0  0  0  0  0
    8.8761   13.1424   25.5758 C   0  0  0  0  0  0  0  0  0  0  0  0
  1  2  1  0
  2  3  1  0
  3  4  2  0
  3  5  1  0
  5  6  1  1
  5  7  1  0
  7  8  1  0
  8  9  1  1
  9 10  2  0
  9 11  1  0
 11 12  1  0
 12 13  1  0
 13 14  1  0
 14 15  1  0
 15 16  2  0
 16 17  1  0
 17 18  2  0
 13 19  1  0
 19 20  1  0
  8  2  1  0
 20 13  1  0
 18 14  1  0
M  END
>  <energy_score>  (525) 
-8.91293

>  <inchikey>  (525) 
None

>  <smiles>  (525) 
None

>  <ref_pdb>  (525) 
A2629a

>  <alias>  (525) 
None

>  <HIPPO Pose ID>  (525) 
498169

>  <name>  (525) 
P498169

>  <HIPPO Compound ID>  (525) 
291925

>  <ref_mols>  (525) 
A3956a,A2629a

>  <distance_score>  (525) 
1.535347

>  <inspiration_score>  (525) 
None

$$$$
P498170
     RDKit          3D

 20 22  0  0  0  0  0  0  0  0999 V2000
   12.6373   16.3008   21.7845 C   0  0  0  0  0  0  0  0  0  0  0  0
   12.6238   15.4733   20.6307 N   0  0  0  0  0  0  0  0  0  0  0  0
   12.7485   16.0290   19.3720 C   0  0  0  0  0  0  0  0  0  0  0  0
   12.9827   17.1814   19.0600 O   0  0  0  0  0  0  0  0  0  0  0  0
   12.4186   14.9701   18.3865 C   0  0  2  0  0  0  0  0  0  0  0  0
   11.2627   15.2532   17.7315 F   0  0  0  0  0  0  0  0  0  0  0  0
   12.2344   13.7256   19.2258 C   0  0  0  0  0  0  0  0  0  0  0  0
   11.7693   14.3220   20.5185 C   0  0  1  0  0  0  0  0  0  0  0  0
   11.3271   13.5123   21.7153 C   0  0  0  0  0  0  0  0  0  0  0  0
   10.2727   12.8928   21.6829 O   0  0  0  0  0  0  0  0  0  0  0  0
   12.0950   13.5954   22.8217 O   0  0  0  0  0  0  0  0  0  0  0  0
   11.7022   12.8293   23.9896 C   0  0  0  0  0  0  0  0  0  0  0  0
   10.2148   12.6711   24.2790 C   0  0  0  0  0  0  0  0  0  0  0  0
    9.6820   11.2866   24.0564 N   0  0  0  0  0  0  0  0  0  0  0  0
   10.0826   10.3972   23.1046 C   0  0  0  0  0  0  0  0  0  0  0  0
    9.3823    9.2423   23.3260 C   0  0  0  0  0  0  0  0  0  0  0  0
    8.5693    9.5599   24.4208 C   0  0  0  0  0  0  0  0  0  0  0  0
    8.7715   10.7785   24.9019 N   0  0  0  0  0  0  0  0  0  0  0  0
    9.3042   13.8868   24.1149 C   0  0  0  0  0  0  0  0  0  0  0  0
    9.6309   13.4229   25.4877 C   0  0  0  0  0  0  0  0  0  0  0  0
  1  2  1  0
  2  3  1  0
  3  4  2  0
  3  5  1  0
  5  6  1  1
  5  7  1  0
  7  8  1  0
  8  9  1  1
  9 10  2  0
  9 11  1  0
 11 12  1  0
 12 13  1  0
 13 14  1  0
 14 15  1  0
 15 16  2  0
 16 17  1  0
 17 18  2  0
 13 19  1  0
 19 20  1  0
  8  2  1  0
 20 13  1  0
 18 14  1  0
M  END
>  <energy_score>  (526) 
-13.765918

>  <inchikey>  (526) 
None

>  <smiles>  (526) 
None

>  <ref_pdb>  (526) 
A2629a

>  <alias>  (526) 
None

>  <HIPPO Pose ID>  (526) 
498170

>  <name>  (526) 
P498170

>  <HIPPO Compound ID>  (526) 
291925

>  <ref_mols>  (526) 
A3956a,A2629a

>  <distance_score>  (526) 
1.623592

>  <inspiration_score>  (526) 
None

$$$$
P498171
     RDKit          3D

 20 22  0  0  0  0  0  0  0  0999 V2000
   11.9140   14.0330   19.2780 C   0  0  0  0  0  0  0  0  0  0  0  0
   12.4407   15.2811   19.7068 N   0  0  0  0  0  0  0  0  0  0  0  0
   12.7376   16.3308   18.8605 C   0  0  0  0  0  0  0  0  0  0  0  0
   12.4996   16.3815   17.6615 O   0  0  0  0  0  0  0  0  0  0  0  0
   13.3526   17.4225   19.6929 C   0  0  1  0  0  0  0  0  0  0  0  0
   12.9505   18.6793   19.3643 F   0  0  0  0  0  0  0  0  0  0  0  0
   12.8873   17.0777   21.0967 C   0  0  0  0  0  0  0  0  0  0  0  0
   12.7450   15.5604   21.0909 C   0  0  1  0  0  0  0  0  0  0  0  0
   11.7777   14.9905   22.1505 C   0  0  0  0  0  0  0  0  0  0  0  0
   11.0426   15.6537   22.8654 O   0  0  0  0  0  0  0  0  0  0  0  0
   11.8760   13.6282   22.2694 O   0  0  0  0  0  0  0  0  0  0  0  0
   11.4970   13.0862   23.5522 C   0  0  0  0  0  0  0  0  0  0  0  0
   10.0361   12.6979   23.7307 C   0  0  0  0  0  0  0  0  0  0  0  0
    9.7859   11.2357   23.8121 N   0  0  0  0  0  0  0  0  0  0  0  0
   10.1639   10.3397   22.8677 C   0  0  0  0  0  0  0  0  0  0  0  0
    9.5476    9.1586   23.1805 C   0  0  0  0  0  0  0  0  0  0  0  0
    8.7749    9.4832   24.3047 C   0  0  0  0  0  0  0  0  0  0  0  0
    8.9537   10.7275   24.7330 N   0  0  0  0  0  0  0  0  0  0  0  0
    8.8711   13.5668   23.2723 C   0  0  0  0  0  0  0  0  0  0  0  0
    9.2709   13.6009   24.7037 C   0  0  0  0  0  0  0  0  0  0  0  0
  1  2  1  0
  2  3  1  0
  3  4  2  0
  3  5  1  0
  5  6  1  6
  5  7  1  0
  7  8  1  0
  8  9  1  1
  9 10  2  0
  9 11  1  0
 11 12  1  0
 12 13  1  0
 13 14  1  0
 14 15  1  0
 15 16  2  0
 16 17  1  0
 17 18  2  0
 13 19  1  0
 19 20  1  0
  8  2  1  0
 20 13  1  0
 18 14  1  0
M  END
>  <energy_score>  (527) 
-14.71477

>  <inchikey>  (527) 
None

>  <smiles>  (527) 
None

>  <ref_pdb>  (527) 
A2629a

>  <alias>  (527) 
None

>  <HIPPO Pose ID>  (527) 
498171

>  <name>  (527) 
P498171

>  <HIPPO Compound ID>  (527) 
291925

>  <ref_mols>  (527) 
A3956a,A2629a

>  <distance_score>  (527) 
1.428157

>  <inspiration_score>  (527) 
None

$$$$
P498172
     RDKit          3D

 20 22  0  0  0  0  0  0  0  0999 V2000
   12.1533   13.6326   18.5620 C   0  0  0  0  0  0  0  0  0  0  0  0
   11.5765   14.7976   19.2350 C   0  0  0  0  0  0  0  0  0  0  0  0
   12.6136   15.5576   19.8554 N   0  0  0  0  0  0  0  0  0  0  0  0
   13.4997   16.2766   19.0725 C   0  0  0  0  0  0  0  0  0  0  0  0
   13.6376   16.1843   17.8641 O   0  0  0  0  0  0  0  0  0  0  0  0
   14.1120   17.3293   19.9427 C   0  0  0  0  0  0  0  0  0  0  0  0
   13.7068   16.9042   21.3447 C   0  0  0  0  0  0  0  0  0  0  0  0
   12.3832   16.2374   21.1067 C   0  0  2  0  0  0  0  0  0  0  0  0
   11.6364   15.4010   22.1636 C   0  0  0  0  0  0  0  0  0  0  0  0
   10.7937   15.8966   22.9043 O   0  0  0  0  0  0  0  0  0  0  0  0
   11.8658   14.0623   22.1868 O   0  0  0  0  0  0  0  0  0  0  0  0
   10.6212   13.3103   22.2836 C   0  0  0  0  0  0  0  0  0  0  0  0
   10.2823   12.7104   23.6317 C   0  0  0  0  0  0  0  0  0  0  0  0
    9.6523   11.3525   23.6109 N   0  0  0  0  0  0  0  0  0  0  0  0
   10.1370   10.2832   22.9293 C   0  0  0  0  0  0  0  0  0  0  0  0
    9.4782    9.1823   23.4052 C   0  0  0  0  0  0  0  0  0  0  0  0
    8.5941    9.7057   24.3611 C   0  0  0  0  0  0  0  0  0  0  0  0
    8.6788   11.0269   24.4821 N   0  0  0  0  0  0  0  0  0  0  0  0
   11.1775   13.0504   24.7807 C   0  0  0  0  0  0  0  0  0  0  0  0
    9.8175   13.6638   24.7358 C   0  0  0  0  0  0  0  0  0  0  0  0
  1  2  1  0
  2  3  1  0
  3  4  1  0
  4  5  2  0
  4  6  1  0
  6  7  1  0
  7  8  1  0
  8  9  1  1
  9 10  2  0
  9 11  1  0
 11 12  1  0
 12 13  1  0
 13 14  1  0
 14 15  1  0
 15 16  2  0
 16 17  1  0
 17 18  2  0
 13 19  1  0
 19 20  1  0
  8  3  1  0
 20 13  1  0
 18 14  1  0
M  END
>  <energy_score>  (528) 
-15.834944

>  <inchikey>  (528) 
None

>  <smiles>  (528) 
None

>  <ref_pdb>  (528) 
A2629a

>  <alias>  (528) 
None

>  <HIPPO Pose ID>  (528) 
498172

>  <name>  (528) 
P498172

>  <HIPPO Compound ID>  (528) 
291926

>  <ref_mols>  (528) 
A3956a,A2629a

>  <distance_score>  (528) 
1.689628

>  <inspiration_score>  (528) 
None

$$$$
P498173
     RDKit          3D

 21 22  0  0  0  0  0  0  0  0999 V2000
   11.8352   14.6581   18.6181 C   0  0  0  0  0  0  0  0  0  0  0  0
   12.3023   15.7110   19.4575 N   0  0  0  0  0  0  0  0  0  0  0  0
   12.7732   16.9021   18.9007 C   0  0  0  0  0  0  0  0  0  0  0  0
   12.5555   17.2708   17.7538 O   0  0  0  0  0  0  0  0  0  0  0  0
   13.5602   17.6405   19.9533 C   0  0  1  0  0  0  0  0  0  0  0  0
   13.1989   18.9401   20.1247 F   0  0  0  0  0  0  0  0  0  0  0  0
   13.2554   16.8509   21.2111 C   0  0  0  0  0  0  0  0  0  0  0  0
   12.9683   15.4545   20.7039 C   0  0  1  0  0  0  0  0  0  0  0  0
   12.4317   14.5216   21.8043 C   0  0  0  0  0  0  0  0  0  0  0  0
   13.0186   14.3466   22.8686 O   0  0  0  0  0  0  0  0  0  0  0  0
   11.3084   13.8318   21.4807 O   0  0  0  0  0  0  0  0  0  0  0  0
   10.9328   12.7663   22.3823 C   0  0  0  0  0  0  0  0  0  0  0  0
    9.7518   13.1449   23.2759 C   0  0  0  0  0  0  0  0  0  0  0  0
   10.2865   14.1260   24.2983 C   0  0  0  0  0  0  0  0  0  0  0  0
    8.5960   13.8231   22.5034 C   0  0  0  0  0  0  0  0  0  0  0  0
    9.2097   12.0070   24.0126 N   0  0  0  0  0  0  0  0  0  0  0  0
    8.2863   12.1569   24.9976 C   0  0  0  0  0  0  0  0  0  0  0  0
    7.8560   10.9125   25.3053 C   0  0  0  0  0  0  0  0  0  0  0  0
    6.3548   10.7397   26.6391 I   0  0  0  0  0  0  0  0  0  0  0  0
    8.6072   10.0458   24.4935 C   0  0  0  0  0  0  0  0  0  0  0  0
    9.4404   10.7231   23.6906 N   0  0  0  0  0  0  0  0  0  0  0  0
  1  2  1  0
  2  3  1  0
  3  4  2  0
  3  5  1  0
  5  6  1  1
  5  7  1  0
  7  8  1  0
  8  9  1  1
  9 10  2  0
  9 11  1  0
 11 12  1  0
 12 13  1  0
 13 14  1  0
 13 15  1  0
 13 16  1  0
 16 17  1  0
 17 18  2  0
 18 19  1  0
 18 20  1  0
 20 21  2  0
  8  2  1  0
 21 16  1  0
M  END
>  <energy_score>  (529) 
-42.230629

>  <inchikey>  (529) 
None

>  <smiles>  (529) 
None

>  <ref_pdb>  (529) 
A2629a

>  <alias>  (529) 
None

>  <HIPPO Pose ID>  (529) 
498173

>  <name>  (529) 
P498173

>  <HIPPO Compound ID>  (529) 
291927

>  <ref_mols>  (529) 
A3956a,A2629a

>  <distance_score>  (529) 
1.878194

>  <inspiration_score>  (529) 
None

$$$$
P498174
     RDKit          3D

 21 23  0  0  0  0  0  0  0  0999 V2000
   13.0034   16.9711   16.1013 C   0  0  0  0  0  0  0  0  0  0  0  0
   12.4473   16.5034   17.4272 C   0  0  0  0  0  0  0  0  0  0  0  0
   13.3520   15.6303   18.2806 C   0  0  0  0  0  0  0  0  0  0  0  0
   13.4893   16.1315   19.6199 N   0  0  0  0  0  0  0  0  0  0  0  0
   14.1098   17.3779   19.7803 C   0  0  0  0  0  0  0  0  0  0  0  0
   14.7980   17.9865   18.9748 O   0  0  0  0  0  0  0  0  0  0  0  0
   13.6788   17.9079   21.0955 C   0  0  0  0  0  0  0  0  0  0  0  0
   12.2721   17.3417   21.1324 C   0  0  0  0  0  0  0  0  0  0  0  0
   12.4167   15.9376   20.5665 C   0  0  2  0  0  0  0  0  0  0  0  0
   12.4767   14.9410   21.7381 C   0  0  0  0  0  0  0  0  0  0  0  0
   13.4093   14.8324   22.5175 O   0  0  0  0  0  0  0  0  0  0  0  0
   11.3164   14.2165   21.8721 O   0  0  0  0  0  0  0  0  0  0  0  0
   11.3746   13.1748   22.8666 C   0  0  0  0  0  0  0  0  0  0  0  0
    9.9997   12.8205   23.4339 C   0  0  0  0  0  0  0  0  0  0  0  0
    9.7966   11.3759   23.7841 N   0  0  0  0  0  0  0  0  0  0  0  0
   10.0980   10.3416   22.9530 C   0  0  0  0  0  0  0  0  0  0  0  0
    9.4175    9.2494   23.4179 C   0  0  0  0  0  0  0  0  0  0  0  0
    8.6783    9.7512   24.4991 C   0  0  0  0  0  0  0  0  0  0  0  0
    8.9503   11.0239   24.7741 N   0  0  0  0  0  0  0  0  0  0  0  0
    9.4329   13.9115   24.3344 C   0  0  0  0  0  0  0  0  0  0  0  0
    8.7209   13.5810   23.0729 C   0  0  0  0  0  0  0  0  0  0  0  0
  1  2  1  0
  2  3  1  0
  3  4  1  0
  4  5  1  0
  5  6  2  0
  5  7  1  0
  7  8  1  0
  8  9  1  0
  9 10  1  1
 10 11  2  0
 10 12  1  0
 12 13  1  0
 13 14  1  0
 14 15  1  0
 15 16  1  0
 16 17  2  0
 17 18  1  0
 18 19  2  0
 14 20  1  0
 20 21  1  0
  9  4  1  0
 21 14  1  0
 19 15  1  0
M  END
>  <energy_score>  (530) 
-12.334364

>  <inchikey>  (530) 
None

>  <smiles>  (530) 
None

>  <ref_pdb>  (530) 
A2629a

>  <alias>  (530) 
None

>  <HIPPO Pose ID>  (530) 
498174

>  <name>  (530) 
P498174

>  <HIPPO Compound ID>  (530) 
291930

>  <ref_mols>  (530) 
A3956a,A2629a

>  <distance_score>  (530) 
1.810019

>  <inspiration_score>  (530) 
None

$$$$
P498175
     RDKit          3D

 18 19  0  0  0  0  0  0  0  0999 V2000
    9.4241    8.4322   23.1844 C   0  0  0  0  0  0  0  0  0  0  0  0
    8.6585    9.2272   24.0915 O   0  0  0  0  0  0  0  0  0  0  0  0
    8.7475   10.5536   23.8594 C   0  0  0  0  0  0  0  0  0  0  0  0
    9.3866   11.0738   22.9613 O   0  0  0  0  0  0  0  0  0  0  0  0
    7.9198   11.3181   24.8200 C   0  0  0  0  0  0  0  0  0  0  0  0
    6.8863   10.6975   25.5306 C   0  0  0  0  0  0  0  0  0  0  0  0
    6.1337   11.4567   26.4179 C   0  0  0  0  0  0  0  0  0  0  0  0
    5.1271   10.8549   27.3560 C   0  0  0  0  0  0  0  0  0  0  0  0
    3.9360   11.6737   27.8093 C   0  0  0  0  0  0  0  0  0  0  0  0
    5.0607   11.4194   28.7628 C   0  0  0  0  0  0  0  0  0  0  0  0
    6.3365   12.7879   26.5475 N   0  0  0  0  0  0  0  0  0  0  0  0
    7.3241   13.3625   25.8522 C   0  0  0  0  0  0  0  0  0  0  0  0
    8.1865   12.6795   25.0142 C   0  0  0  0  0  0  0  0  0  0  0  0
    9.3072   13.3200   24.4541 N   0  0  0  0  0  0  0  0  0  0  0  0
   10.1412   14.0113   25.3761 N   0  0  0  0  0  0  0  0  0  0  0  0
    8.9750   13.9847   23.1697 C   0  0  0  0  0  0  0  0  0  0  0  0
   10.2440   14.2268   22.3606 C   0  0  0  0  0  0  0  0  0  0  0  0
   11.1275   14.9525   23.1108 F   0  0  0  0  0  0  0  0  0  0  0  0
  1  2  1  0
  2  3  1  0
  3  4  2  0
  3  5  1  0
  5  6  2  0
  6  7  1  0
  7  8  1  0
  8  9  1  0
  9 10  1  0
  7 11  2  0
 11 12  1  0
 12 13  2  0
 13 14  1  0
 14 15  1  0
 14 16  1  0
 16 17  1  0
 17 18  1  0
 13  5  1  0
 10  8  1  0
M  END
>  <energy_score>  (531) 
-27.948667

>  <inchikey>  (531) 
None

>  <smiles>  (531) 
None

>  <ref_pdb>  (531) 
A0514a

>  <alias>  (531) 
None

>  <HIPPO Pose ID>  (531) 
498175

>  <name>  (531) 
P498175

>  <HIPPO Compound ID>  (531) 
292528

>  <ref_mols>  (531) 
A4331a,A0514a

>  <distance_score>  (531) 
1.469598

>  <inspiration_score>  (531) 
None

$$$$
P498176
     RDKit          3D

 18 20  0  0  0  0  0  0  0  0999 V2000
    9.3731    8.6438   23.0031 C   0  0  0  0  0  0  0  0  0  0  0  0
    8.5085    9.4659   23.7885 O   0  0  0  0  0  0  0  0  0  0  0  0
    9.0113   10.6985   24.0261 C   0  0  0  0  0  0  0  0  0  0  0  0
   10.0981   11.0967   23.6417 O   0  0  0  0  0  0  0  0  0  0  0  0
    8.0718   11.5055   24.8512 C   0  0  0  0  0  0  0  0  0  0  0  0
    7.0605   10.8501   25.5695 C   0  0  0  0  0  0  0  0  0  0  0  0
    6.2361   11.5873   26.4093 C   0  0  0  0  0  0  0  0  0  0  0  0
    5.1899   10.9501   27.2762 C   0  0  0  0  0  0  0  0  0  0  0  0
    5.1371   11.3181   28.7409 C   0  0  0  0  0  0  0  0  0  0  0  0
    4.0674   11.8154   27.8193 C   0  0  0  0  0  0  0  0  0  0  0  0
    6.3849   12.9253   26.5328 N   0  0  0  0  0  0  0  0  0  0  0  0
    7.3114   13.5479   25.7927 C   0  0  0  0  0  0  0  0  0  0  0  0
    8.2042   12.9023   24.9565 C   0  0  0  0  0  0  0  0  0  0  0  0
    9.0966   13.7380   24.2346 N   0  0  0  0  0  0  0  0  0  0  0  0
   10.4674   13.6024   24.5489 N   0  0  0  0  0  0  0  0  0  0  0  0
    8.8076   13.7475   22.7886 C   0  0  0  0  0  0  0  0  0  0  0  0
    9.4415   14.6868   21.8178 C   0  0  0  0  0  0  0  0  0  0  0  0
    7.9748   14.8089   22.1465 C   0  0  0  0  0  0  0  0  0  0  0  0
  1  2  1  0
  2  3  1  0
  3  4  2  0
  3  5  1  0
  5  6  2  0
  6  7  1  0
  7  8  1  0
  8  9  1  0
  9 10  1  0
  7 11  2  0
 11 12  1  0
 12 13  2  0
 13 14  1  0
 14 15  1  0
 14 16  1  0
 16 17  1  0
 17 18  1  0
 13  5  1  0
 18 16  1  0
 10  8  1  0
M  END
>  <energy_score>  (532) 
-33.000277

>  <inchikey>  (532) 
None

>  <smiles>  (532) 
None

>  <ref_pdb>  (532) 
A0514a

>  <alias>  (532) 
None

>  <HIPPO Pose ID>  (532) 
498176

>  <name>  (532) 
P498176

>  <HIPPO Compound ID>  (532) 
292530

>  <ref_mols>  (532) 
A4331a,A0514a

>  <distance_score>  (532) 
1.814425

>  <inspiration_score>  (532) 
None

$$$$
P498177
     RDKit          3D

 18 19  0  0  0  0  0  0  0  0999 V2000
   10.8500   14.8726   21.8192 C   0  0  0  0  0  0  0  0  0  0  0  0
    9.8826   14.3983   22.3472 C   0  0  0  0  0  0  0  0  0  0  0  0
    8.7519   13.8598   23.1094 C   0  0  0  0  0  0  0  0  0  0  0  0
    9.2559   13.0124   24.2342 N   0  0  0  0  0  0  0  0  0  0  0  0
   10.3158   13.5869   25.0353 N   0  0  0  0  0  0  0  0  0  0  0  0
    8.1478   12.5781   25.0067 C   0  0  0  0  0  0  0  0  0  0  0  0
    7.4824   13.4916   25.8209 C   0  0  0  0  0  0  0  0  0  0  0  0
    6.4390   13.2067   26.6159 N   0  0  0  0  0  0  0  0  0  0  0  0
    5.9530   11.9503   26.6193 C   0  0  0  0  0  0  0  0  0  0  0  0
    4.7689   11.6628   27.4912 C   0  0  0  0  0  0  0  0  0  0  0  0
    4.5811   12.4285   28.7775 C   0  0  0  0  0  0  0  0  0  0  0  0
    3.6928   12.7203   27.6062 C   0  0  0  0  0  0  0  0  0  0  0  0
    6.5443   10.9677   25.8512 C   0  0  0  0  0  0  0  0  0  0  0  0
    7.6583   11.2693   25.0494 C   0  0  0  0  0  0  0  0  0  0  0  0
    8.2258   10.0806   24.3859 C   0  0  0  0  0  0  0  0  0  0  0  0
    7.8258    8.9680   24.7010 O   0  0  0  0  0  0  0  0  0  0  0  0
    9.1669   10.3373   23.4609 O   0  0  0  0  0  0  0  0  0  0  0  0
    9.7004    9.1398   22.8899 C   0  0  0  0  0  0  0  0  0  0  0  0
  1  2  3  0
  2  3  1  0
  3  4  1  0
  4  5  1  0
  4  6  1  0
  6  7  2  0
  7  8  1  0
  8  9  2  0
  9 10  1  0
 10 11  1  0
 11 12  1  0
  9 13  1  0
 13 14  2  0
 14 15  1  0
 15 16  2  0
 15 17  1  0
 17 18  1  0
 14  6  1  0
 12 10  1  0
M  END
>  <energy_score>  (533) 
-33.27106

>  <inchikey>  (533) 
None

>  <smiles>  (533) 
None

>  <ref_pdb>  (533) 
A0514a

>  <alias>  (533) 
None

>  <HIPPO Pose ID>  (533) 
498177

>  <name>  (533) 
P498177

>  <HIPPO Compound ID>  (533) 
292531

>  <ref_mols>  (533) 
A4331a,A0514a

>  <distance_score>  (533) 
1.712619

>  <inspiration_score>  (533) 
None

$$$$
P498178
     RDKit          3D

 18 19  0  0  0  0  0  0  0  0999 V2000
    9.3437   15.2419   21.0177 C   0  0  0  0  0  0  0  0  0  0  0  0
    9.8903   14.3652   22.1248 C   0  0  0  0  0  0  0  0  0  0  0  0
    8.7821   13.9362   23.0831 C   0  0  0  0  0  0  0  0  0  0  0  0
    9.3023   13.0213   24.1413 N   0  0  0  0  0  0  0  0  0  0  0  0
   10.3945   13.5493   24.9068 N   0  0  0  0  0  0  0  0  0  0  0  0
    8.2067   12.5965   24.9441 C   0  0  0  0  0  0  0  0  0  0  0  0
    7.5534   13.5167   25.7619 C   0  0  0  0  0  0  0  0  0  0  0  0
    6.5160   13.2418   26.5715 N   0  0  0  0  0  0  0  0  0  0  0  0
    6.0191   11.9901   26.5823 C   0  0  0  0  0  0  0  0  0  0  0  0
    4.8326   11.7131   27.4555 C   0  0  0  0  0  0  0  0  0  0  0  0
    4.6501   12.4812   28.7409 C   0  0  0  0  0  0  0  0  0  0  0  0
    3.7639   12.7781   27.5691 C   0  0  0  0  0  0  0  0  0  0  0  0
    6.6019   11.0000   25.8181 C   0  0  0  0  0  0  0  0  0  0  0  0
    7.7132   11.2892   25.0064 C   0  0  0  0  0  0  0  0  0  0  0  0
    8.2646   10.0882   24.3513 C   0  0  0  0  0  0  0  0  0  0  0  0
    7.8499    8.9826   24.6748 O   0  0  0  0  0  0  0  0  0  0  0  0
    9.2113   10.3229   23.4269 O   0  0  0  0  0  0  0  0  0  0  0  0
    9.7206    9.1130   22.8620 C   0  0  0  0  0  0  0  0  0  0  0  0
  1  2  1  0
  2  3  1  0
  3  4  1  0
  4  5  1  0
  4  6  1  0
  6  7  2  0
  7  8  1  0
  8  9  2  0
  9 10  1  0
 10 11  1  0
 11 12  1  0
  9 13  1  0
 13 14  2  0
 14 15  1  0
 15 16  2  0
 15 17  1  0
 17 18  1  0
 14  6  1  0
 12 10  1  0
M  END
>  <energy_score>  (534) 
-35.820938

>  <inchikey>  (534) 
None

>  <smiles>  (534) 
None

>  <ref_pdb>  (534) 
A0514a

>  <alias>  (534) 
None

>  <HIPPO Pose ID>  (534) 
498178

>  <name>  (534) 
P498178

>  <HIPPO Compound ID>  (534) 
292532

>  <ref_mols>  (534) 
A4331a,A0514a

>  <distance_score>  (534) 
1.865243

>  <inspiration_score>  (534) 
None

$$$$
P498179
     RDKit          3D

 18 19  0  0  0  0  0  0  0  0999 V2000
    9.0948    8.3683   22.8903 C   0  0  0  0  0  0  0  0  0  0  0  0
    8.2694    9.2087   23.7000 O   0  0  0  0  0  0  0  0  0  0  0  0
    8.9163   10.3499   24.0080 C   0  0  0  0  0  0  0  0  0  0  0  0
   10.0815   10.5826   23.7251 O   0  0  0  0  0  0  0  0  0  0  0  0
    8.0549   11.2905   24.7637 C   0  0  0  0  0  0  0  0  0  0  0  0
    7.0028   10.8419   25.5750 C   0  0  0  0  0  0  0  0  0  0  0  0
    6.3223   11.7747   26.3552 C   0  0  0  0  0  0  0  0  0  0  0  0
    5.1234   11.4848   27.1951 C   0  0  0  0  0  0  0  0  0  0  0  0
    5.1414   10.6176   28.4142 C   0  0  0  0  0  0  0  0  0  0  0  0
    5.0795   12.1048   28.5804 C   0  0  0  0  0  0  0  0  0  0  0  0
    6.6963   13.0697   26.3929 N   0  0  0  0  0  0  0  0  0  0  0  0
    7.6589   13.4815   25.5633 C   0  0  0  0  0  0  0  0  0  0  0  0
    8.3424   12.6598   24.6822 C   0  0  0  0  0  0  0  0  0  0  0  0
    9.2240   13.1880   23.7162 N   0  0  0  0  0  0  0  0  0  0  0  0
   10.5949   13.1686   24.1466 N   0  0  0  0  0  0  0  0  0  0  0  0
    8.7308   14.3952   23.0136 C   0  0  0  0  0  0  0  0  0  0  0  0
    7.3544   14.2114   22.3824 C   0  0  0  0  0  0  0  0  0  0  0  0
    9.6983   14.8058   21.9002 C   0  0  0  0  0  0  0  0  0  0  0  0
  1  2  1  0
  2  3  1  0
  3  4  2  0
  3  5  1  0
  5  6  2  0
  6  7  1  0
  7  8  1  0
  8  9  1  0
  9 10  1  0
  7 11  2  0
 11 12  1  0
 12 13  2  0
 13 14  1  0
 14 15  1  0
 14 16  1  0
 16 17  1  0
 16 18  1  0
 13  5  1  0
 10  8  1  0
M  END
>  <energy_score>  (535) 
-25.706418

>  <inchikey>  (535) 
None

>  <smiles>  (535) 
None

>  <ref_pdb>  (535) 
A0514a

>  <alias>  (535) 
None

>  <HIPPO Pose ID>  (535) 
498179

>  <name>  (535) 
P498179

>  <HIPPO Compound ID>  (535) 
292533

>  <ref_mols>  (535) 
A4331a,A0514a

>  <distance_score>  (535) 
1.473901

>  <inspiration_score>  (535) 
None

$$$$
P498180
     RDKit          3D

 19 20  0  0  0  0  0  0  0  0999 V2000
    9.5097    9.0287   23.1328 C   0  0  0  0  0  0  0  0  0  0  0  0
    8.4886    9.7806   23.7904 O   0  0  0  0  0  0  0  0  0  0  0  0
    8.8604   11.0369   24.1438 C   0  0  0  0  0  0  0  0  0  0  0  0
    9.9561   11.5280   23.9448 O   0  0  0  0  0  0  0  0  0  0  0  0
    7.7432   11.7246   24.8363 C   0  0  0  0  0  0  0  0  0  0  0  0
    6.9625   10.8817   25.6597 C   0  0  0  0  0  0  0  0  0  0  0  0
    6.0277   11.4263   26.5175 C   0  0  0  0  0  0  0  0  0  0  0  0
    5.2119   10.6089   27.4683 C   0  0  0  0  0  0  0  0  0  0  0  0
    5.3130   10.9105   28.9445 C   0  0  0  0  0  0  0  0  0  0  0  0
    4.0644   11.2747   28.2038 C   0  0  0  0  0  0  0  0  0  0  0  0
    5.8744   12.7532   26.5895 N   0  0  0  0  0  0  0  0  0  0  0  0
    6.5722   13.5335   25.7464 C   0  0  0  0  0  0  0  0  0  0  0  0
    7.5097   13.1166   24.7971 C   0  0  0  0  0  0  0  0  0  0  0  0
    8.0807   14.1147   23.9485 N   0  0  0  0  0  0  0  0  0  0  0  0
    7.3376   15.3466   23.9279 N   0  0  0  0  0  0  0  0  0  0  0  0
    8.5358   13.6939   22.6136 C   0  0  0  0  0  0  0  0  0  0  0  0
    9.9252   14.2015   22.1996 C   0  0  0  0  0  0  0  0  0  0  0  0
   10.9489   14.3551   23.3237 C   0  0  0  0  0  0  0  0  0  0  0  0
    9.8285   15.4067   21.2616 C   0  0  0  0  0  0  0  0  0  0  0  0
  1  2  1  0
  2  3  1  0
  3  4  2  0
  3  5  1  0
  5  6  2  0
  6  7  1  0
  7  8  1  0
  8  9  1  0
  9 10  1  0
  7 11  2  0
 11 12  1  0
 12 13  2  0
 13 14  1  0
 14 15  1  0
 14 16  1  0
 16 17  1  0
 17 18  1  0
 17 19  1  0
 13  5  1  0
 10  8  1  0
M  END
>  <energy_score>  (536) 
-20.901771

>  <inchikey>  (536) 
None

>  <smiles>  (536) 
None

>  <ref_pdb>  (536) 
A0514a

>  <alias>  (536) 
None

>  <HIPPO Pose ID>  (536) 
498180

>  <name>  (536) 
P498180

>  <HIPPO Compound ID>  (536) 
292536

>  <ref_mols>  (536) 
A4331a,A0514a

>  <distance_score>  (536) 
1.870571

>  <inspiration_score>  (536) 
None

$$$$
P498181
     RDKit          3D

 19 20  0  0  0  0  0  0  0  0999 V2000
    9.4353    8.4049   23.1992 C   0  0  0  0  0  0  0  0  0  0  0  0
    8.7110    9.2629   24.0807 O   0  0  0  0  0  0  0  0  0  0  0  0
    8.8448   10.5711   23.7785 C   0  0  0  0  0  0  0  0  0  0  0  0
    9.4834   11.0193   22.8448 O   0  0  0  0  0  0  0  0  0  0  0  0
    8.0900   11.4165   24.7267 C   0  0  0  0  0  0  0  0  0  0  0  0
    7.0265   10.8754   25.4576 C   0  0  0  0  0  0  0  0  0  0  0  0
    6.3374   11.6936   26.3409 C   0  0  0  0  0  0  0  0  0  0  0  0
    5.2048   11.1900   27.1896 C   0  0  0  0  0  0  0  0  0  0  0  0
    5.0787   11.6698   28.6171 C   0  0  0  0  0  0  0  0  0  0  0  0
    4.1117   12.1647   27.5865 C   0  0  0  0  0  0  0  0  0  0  0  0
    6.6812   12.9943   26.4990 N   0  0  0  0  0  0  0  0  0  0  0  0
    7.6824   13.5028   25.7631 C   0  0  0  0  0  0  0  0  0  0  0  0
    8.4451   12.7663   24.8758 C   0  0  0  0  0  0  0  0  0  0  0  0
    9.5206   13.3533   24.1721 N   0  0  0  0  0  0  0  0  0  0  0  0
   10.4785   14.0625   24.9522 N   0  0  0  0  0  0  0  0  0  0  0  0
    9.0251   13.9994   22.9210 C   0  0  0  0  0  0  0  0  0  0  0  0
   10.0790   14.1343   21.8335 C   0  0  0  0  0  0  0  0  0  0  0  0
    9.9004   14.7538   20.7934 O   0  0  0  0  0  0  0  0  0  0  0  0
   11.2154   13.4362   22.0374 O   0  0  0  0  0  0  0  0  0  0  0  0
  1  2  1  0
  2  3  1  0
  3  4  2  0
  3  5  1  0
  5  6  2  0
  6  7  1  0
  7  8  1  0
  8  9  1  0
  9 10  1  0
  7 11  2  0
 11 12  1  0
 12 13  2  0
 13 14  1  0
 14 15  1  0
 14 16  1  0
 16 17  1  0
 17 18  2  0
 17 19  1  0
 13  5  1  0
 10  8  1  0
M  END
>  <energy_score>  (537) 
-50.97259

>  <inchikey>  (537) 
None

>  <smiles>  (537) 
None

>  <ref_pdb>  (537) 
A0514a

>  <alias>  (537) 
None

>  <HIPPO Pose ID>  (537) 
498181

>  <name>  (537) 
P498181

>  <HIPPO Compound ID>  (537) 
292540

>  <ref_mols>  (537) 
A4331a,A0514a

>  <distance_score>  (537) 
1.975156

>  <inspiration_score>  (537) 
None

$$$$
P498182
     RDKit          3D

 19 20  0  0  0  0  0  0  0  0999 V2000
    9.3860    8.4559   23.1029 C   0  0  0  0  0  0  0  0  0  0  0  0
    8.6362    9.2656   24.0119 O   0  0  0  0  0  0  0  0  0  0  0  0
    8.7981   10.5925   23.8330 C   0  0  0  0  0  0  0  0  0  0  0  0
    9.5090   11.1175   22.9930 O   0  0  0  0  0  0  0  0  0  0  0  0
    7.9769   11.3611   24.7991 C   0  0  0  0  0  0  0  0  0  0  0  0
    6.9361   10.7519   25.5090 C   0  0  0  0  0  0  0  0  0  0  0  0
    6.2080   11.5132   26.4154 C   0  0  0  0  0  0  0  0  0  0  0  0
    5.1692   10.9237   27.3269 C   0  0  0  0  0  0  0  0  0  0  0  0
    3.9759   11.7591   27.7428 C   0  0  0  0  0  0  0  0  0  0  0  0
    5.0657   11.4881   28.7314 C   0  0  0  0  0  0  0  0  0  0  0  0
    6.4598   12.8328   26.5836 N   0  0  0  0  0  0  0  0  0  0  0  0
    7.4461   13.4031   25.8817 C   0  0  0  0  0  0  0  0  0  0  0  0
    8.2678   12.7175   25.0061 C   0  0  0  0  0  0  0  0  0  0  0  0
    9.3584   13.3629   24.3844 N   0  0  0  0  0  0  0  0  0  0  0  0
   10.2071   14.1136   25.2480 N   0  0  0  0  0  0  0  0  0  0  0  0
    8.9012   14.0234   23.1331 C   0  0  0  0  0  0  0  0  0  0  0  0
   10.0710   14.2972   22.1985 C   0  0  0  0  0  0  0  0  0  0  0  0
   11.0373   14.9953   22.8623 F   0  0  0  0  0  0  0  0  0  0  0  0
    9.6506   15.0800   21.1731 F   0  0  0  0  0  0  0  0  0  0  0  0
  1  2  1  0
  2  3  1  0
  3  4  2  0
  3  5  1  0
  5  6  2  0
  6  7  1  0
  7  8  1  0
  8  9  1  0
  9 10  1  0
  7 11  2  0
 11 12  1  0
 12 13  2  0
 13 14  1  0
 14 15  1  0
 14 16  1  0
 16 17  1  0
 17 18  1  0
 17 19  1  0
 13  5  1  0
 10  8  1  0
M  END
>  <energy_score>  (538) 
-38.931392

>  <inchikey>  (538) 
None

>  <smiles>  (538) 
None

>  <ref_pdb>  (538) 
A0514a

>  <alias>  (538) 
None

>  <HIPPO Pose ID>  (538) 
498182

>  <name>  (538) 
P498182

>  <HIPPO Compound ID>  (538) 
292542

>  <ref_mols>  (538) 
A4331a,A0514a

>  <distance_score>  (538) 
1.356384

>  <inspiration_score>  (538) 
None

$$$$
P498183
     RDKit          3D

 19 21  0  0  0  0  0  0  0  0999 V2000
    9.1437    8.5279   23.0439 C   0  0  0  0  0  0  0  0  0  0  0  0
    8.3593    9.3929   23.8740 O   0  0  0  0  0  0  0  0  0  0  0  0
    8.9171   10.6166   24.0090 C   0  0  0  0  0  0  0  0  0  0  0  0
    9.9854   10.9412   23.5183 O   0  0  0  0  0  0  0  0  0  0  0  0
    8.0743   11.5265   24.8355 C   0  0  0  0  0  0  0  0  0  0  0  0
    6.9303   11.0741   25.5049 C   0  0  0  0  0  0  0  0  0  0  0  0
    6.2161   11.9799   26.2875 C   0  0  0  0  0  0  0  0  0  0  0  0
    4.9738   11.6572   27.0447 C   0  0  0  0  0  0  0  0  0  0  0  0
    4.9135   10.6196   28.1231 C   0  0  0  0  0  0  0  0  0  0  0  0
    4.9306   12.0685   28.5036 C   0  0  0  0  0  0  0  0  0  0  0  0
    6.5980   13.2686   26.4189 N   0  0  0  0  0  0  0  0  0  0  0  0
    7.6772   13.6880   25.7567 C   0  0  0  0  0  0  0  0  0  0  0  0
    8.4667   12.8701   24.9685 C   0  0  0  0  0  0  0  0  0  0  0  0
    9.6022   13.3996   24.3201 N   0  0  0  0  0  0  0  0  0  0  0  0
   10.5121   14.1229   25.1415 N   0  0  0  0  0  0  0  0  0  0  0  0
    9.1989   13.9835   23.0253 C   0  0  0  0  0  0  0  0  0  0  0  0
   10.3472   13.9524   22.0740 C   0  0  0  0  0  0  0  0  0  0  0  0
   10.4992   15.0533   21.0550 C   0  0  0  0  0  0  0  0  0  0  0  0
   11.5489   14.8568   22.1116 C   0  0  0  0  0  0  0  0  0  0  0  0
  1  2  1  0
  2  3  1  0
  3  4  2  0
  3  5  1  0
  5  6  2  0
  6  7  1  0
  7  8  1  0
  8  9  1  0
  9 10  1  0
  7 11  2  0
 11 12  1  0
 12 13  2  0
 13 14  1  0
 14 15  1  0
 14 16  1  0
 16 17  1  0
 17 18  1  0
 18 19  1  0
 13  5  1  0
 19 17  1  0
 10  8  1  0
M  END
>  <energy_score>  (539) 
-36.031033

>  <inchikey>  (539) 
None

>  <smiles>  (539) 
None

>  <ref_pdb>  (539) 
A0514a

>  <alias>  (539) 
None

>  <HIPPO Pose ID>  (539) 
498183

>  <name>  (539) 
P498183

>  <HIPPO Compound ID>  (539) 
292543

>  <ref_mols>  (539) 
A4331a,A0514a

>  <distance_score>  (539) 
1.5768

>  <inspiration_score>  (539) 
None

$$$$
P498184
     RDKit          3D

 19 20  0  0  0  0  0  0  0  0999 V2000
    9.3467    8.4760   23.0478 C   0  0  0  0  0  0  0  0  0  0  0  0
    8.5785    9.2752   23.9502 O   0  0  0  0  0  0  0  0  0  0  0  0
    8.8579   10.5957   23.8892 C   0  0  0  0  0  0  0  0  0  0  0  0
    9.6776   11.1048   23.1457 O   0  0  0  0  0  0  0  0  0  0  0  0
    8.0200   11.3567   24.8533 C   0  0  0  0  0  0  0  0  0  0  0  0
    6.9563   10.7402   25.5240 C   0  0  0  0  0  0  0  0  0  0  0  0
    6.2090   11.4837   26.4298 C   0  0  0  0  0  0  0  0  0  0  0  0
    5.1164   10.8881   27.2690 C   0  0  0  0  0  0  0  0  0  0  0  0
    5.0313   11.2673   28.7303 C   0  0  0  0  0  0  0  0  0  0  0  0
    4.0118   11.8007   27.7730 C   0  0  0  0  0  0  0  0  0  0  0  0
    6.4693   12.7933   26.6448 N   0  0  0  0  0  0  0  0  0  0  0  0
    7.4727   13.3753   25.9788 C   0  0  0  0  0  0  0  0  0  0  0  0
    8.3130   12.7064   25.1059 C   0  0  0  0  0  0  0  0  0  0  0  0
    9.4089   13.3768   24.5095 N   0  0  0  0  0  0  0  0  0  0  0  0
   10.2057   14.1764   25.3827 N   0  0  0  0  0  0  0  0  0  0  0  0
    8.9193   14.0239   23.2686 C   0  0  0  0  0  0  0  0  0  0  0  0
   10.0921   14.2756   22.3371 C   0  0  0  0  0  0  0  0  0  0  0  0
    9.5484   15.2839   20.9537 S   0  0  0  0  0  0  0  0  0  0  0  0
   11.0753   15.2143   20.0067 C   0  0  0  0  0  0  0  0  0  0  0  0
  1  2  1  0
  2  3  1  0
  3  4  2  0
  3  5  1  0
  5  6  2  0
  6  7  1  0
  7  8  1  0
  8  9  1  0
  9 10  1  0
  7 11  2  0
 11 12  1  0
 12 13  2  0
 13 14  1  0
 14 15  1  0
 14 16  1  0
 16 17  1  0
 17 18  1  0
 18 19  1  0
 13  5  1  0
 10  8  1  0
M  END
>  <energy_score>  (540) 
-41.128694

>  <inchikey>  (540) 
None

>  <smiles>  (540) 
None

>  <ref_pdb>  (540) 
A0514a

>  <alias>  (540) 
None

>  <HIPPO Pose ID>  (540) 
498184

>  <name>  (540) 
P498184

>  <HIPPO Compound ID>  (540) 
292545

>  <ref_mols>  (540) 
A4331a,A0514a

>  <distance_score>  (540) 
1.744154

>  <inspiration_score>  (540) 
None

$$$$
P498185
     RDKit          3D

 19 20  0  0  0  0  0  0  0  0999 V2000
    9.4240   15.0169   21.1216 C   0  0  0  0  0  0  0  0  0  0  0  0
    9.9222   14.5876   22.2915 C   0  0  0  0  0  0  0  0  0  0  0  0
   11.3999   14.6830   22.5506 C   0  0  0  0  0  0  0  0  0  0  0  0
    9.0170   14.2116   23.4352 C   0  0  0  0  0  0  0  0  0  0  0  0
    9.0395   12.7726   23.7638 N   0  0  0  0  0  0  0  0  0  0  0  0
   10.3190   12.1541   23.8867 N   0  0  0  0  0  0  0  0  0  0  0  0
    8.0517   12.3627   24.6999 C   0  0  0  0  0  0  0  0  0  0  0  0
    7.3766   13.2980   25.4910 C   0  0  0  0  0  0  0  0  0  0  0  0
    6.4198   13.0398   26.4019 N   0  0  0  0  0  0  0  0  0  0  0  0
    5.9980   11.7763   26.5522 C   0  0  0  0  0  0  0  0  0  0  0  0
    4.8916   11.5197   27.5294 C   0  0  0  0  0  0  0  0  0  0  0  0
    4.8587   12.2820   28.8312 C   0  0  0  0  0  0  0  0  0  0  0  0
    3.8629   12.6070   27.7595 C   0  0  0  0  0  0  0  0  0  0  0  0
    6.5915   10.7637   25.8319 C   0  0  0  0  0  0  0  0  0  0  0  0
    7.6353   11.0411   24.9240 C   0  0  0  0  0  0  0  0  0  0  0  0
    8.1682    9.8095   24.3093 C   0  0  0  0  0  0  0  0  0  0  0  0
    7.8428    8.7208   24.7527 O   0  0  0  0  0  0  0  0  0  0  0  0
    9.0173    9.9967   23.2890 O   0  0  0  0  0  0  0  0  0  0  0  0
    9.5763    8.7873   22.7847 C   0  0  0  0  0  0  0  0  0  0  0  0
  1  2  2  0
  2  3  1  0
  2  4  1  0
  4  5  1  0
  5  6  1  0
  5  7  1  0
  7  8  2  0
  8  9  1  0
  9 10  2  0
 10 11  1  0
 11 12  1  0
 12 13  1  0
 10 14  1  0
 14 15  2  0
 15 16  1  0
 16 17  2  0
 16 18  1  0
 18 19  1  0
 15  7  1  0
 13 11  1  0
M  END
>  <energy_score>  (541) 
-22.395231

>  <inchikey>  (541) 
None

>  <smiles>  (541) 
None

>  <ref_pdb>  (541) 
A0514a

>  <alias>  (541) 
None

>  <HIPPO Pose ID>  (541) 
498185

>  <name>  (541) 
P498185

>  <HIPPO Compound ID>  (541) 
292546

>  <ref_mols>  (541) 
A4331a,A0514a

>  <distance_score>  (541) 
1.98475

>  <inspiration_score>  (541) 
None

$$$$
P498186
     RDKit          3D

 19 20  0  0  0  0  0  0  0  0999 V2000
    9.3597    8.5895   22.9517 C   0  0  0  0  0  0  0  0  0  0  0  0
    8.4210    9.4000   23.6545 O   0  0  0  0  0  0  0  0  0  0  0  0
    8.9075   10.6192   23.9664 C   0  0  0  0  0  0  0  0  0  0  0  0
   10.0513   11.0072   23.7955 O   0  0  0  0  0  0  0  0  0  0  0  0
    7.8761   11.4229   24.6348 C   0  0  0  0  0  0  0  0  0  0  0  0
    7.1102   10.7827   25.6206 C   0  0  0  0  0  0  0  0  0  0  0  0
    6.2447   11.5275   26.4056 C   0  0  0  0  0  0  0  0  0  0  0  0
    5.3780   10.9151   27.4659 C   0  0  0  0  0  0  0  0  0  0  0  0
    5.4463   11.4644   28.8710 C   0  0  0  0  0  0  0  0  0  0  0  0
    4.2336   11.7324   28.0358 C   0  0  0  0  0  0  0  0  0  0  0  0
    6.1835   12.8646   26.2710 N   0  0  0  0  0  0  0  0  0  0  0  0
    6.8441   13.4362   25.2530 C   0  0  0  0  0  0  0  0  0  0  0  0
    7.6631   12.7707   24.3462 C   0  0  0  0  0  0  0  0  0  0  0  0
    7.9682   13.4503   23.1695 N   0  0  0  0  0  0  0  0  0  0  0  0
    6.8435   13.7398   22.3285 N   0  0  0  0  0  0  0  0  0  0  0  0
    9.2700   13.4587   22.5040 C   0  0  0  0  0  0  0  0  0  0  0  0
   10.2952   14.2940   23.2296 C   0  0  2  0  0  0  0  0  0  0  0  0
   11.2476   14.8951   22.2089 C   0  0  0  0  0  0  0  0  0  0  0  0
   11.0486   13.5844   24.2105 O   0  0  0  0  0  0  0  0  0  0  0  0
  1  2  1  0
  2  3  1  0
  3  4  2  0
  3  5  1  0
  5  6  2  0
  6  7  1  0
  7  8  1  0
  8  9  1  0
  9 10  1  0
  7 11  2  0
 11 12  1  0
 12 13  2  0
 13 14  1  0
 14 15  1  0
 14 16  1  0
 16 17  1  0
 17 18  1  6
 17 19  1  0
 13  5  1  0
 10  8  1  0
M  END
>  <energy_score>  (542) 
-30.917104

>  <inchikey>  (542) 
None

>  <smiles>  (542) 
None

>  <ref_pdb>  (542) 
A0514a

>  <alias>  (542) 
None

>  <HIPPO Pose ID>  (542) 
498186

>  <name>  (542) 
P498186

>  <HIPPO Compound ID>  (542) 
292547

>  <ref_mols>  (542) 
A4331a,A0514a

>  <distance_score>  (542) 
1.832721

>  <inspiration_score>  (542) 
None

$$$$
P498187
     RDKit          3D

 19 20  0  0  0  0  0  0  0  0999 V2000
    9.3509    8.5788   23.4824 C   0  0  0  0  0  0  0  0  0  0  0  0
    8.5431    9.3558   24.3737 O   0  0  0  0  0  0  0  0  0  0  0  0
    8.5605   10.6650   24.0326 C   0  0  0  0  0  0  0  0  0  0  0  0
    9.1233   11.1097   23.0482 O   0  0  0  0  0  0  0  0  0  0  0  0
    7.8004   11.5073   24.9792 C   0  0  0  0  0  0  0  0  0  0  0  0
    6.7028   10.9909   25.6791 C   0  0  0  0  0  0  0  0  0  0  0  0
    5.9769   11.8525   26.4968 C   0  0  0  0  0  0  0  0  0  0  0  0
    4.8094   11.4639   27.3360 C   0  0  0  0  0  0  0  0  0  0  0  0
    4.8687   10.3992   28.3855 C   0  0  0  0  0  0  0  0  0  0  0  0
    4.8831   11.8374   28.8043 C   0  0  0  0  0  0  0  0  0  0  0  0
    6.2863   13.1596   26.6063 N   0  0  0  0  0  0  0  0  0  0  0  0
    7.3386   13.6268   25.9350 C   0  0  0  0  0  0  0  0  0  0  0  0
    8.1643   12.8535   25.1362 C   0  0  0  0  0  0  0  0  0  0  0  0
    9.3240   13.4256   24.5511 N   0  0  0  0  0  0  0  0  0  0  0  0
   10.1239   14.1713   25.4620 N   0  0  0  0  0  0  0  0  0  0  0  0
    8.9340   14.0475   23.2566 C   0  0  0  0  0  0  0  0  0  0  0  0
   10.1232   14.4656   22.3880 C   0  0  1  0  0  0  0  0  0  0  0  0
   11.2893   13.5061   22.3908 C   0  0  0  0  0  0  0  0  0  0  0  0
    9.6455   14.6930   21.0640 O   0  0  0  0  0  0  0  0  0  0  0  0
  1  2  1  0
  2  3  1  0
  3  4  2  0
  3  5  1  0
  5  6  2  0
  6  7  1  0
  7  8  1  0
  8  9  1  0
  9 10  1  0
  7 11  2  0
 11 12  1  0
 12 13  2  0
 13 14  1  0
 14 15  1  0
 14 16  1  0
 16 17  1  0
 17 18  1  6
 17 19  1  0
 13  5  1  0
 10  8  1  0
M  END
>  <energy_score>  (543) 
-39.055874

>  <inchikey>  (543) 
None

>  <smiles>  (543) 
None

>  <ref_pdb>  (543) 
A0514a

>  <alias>  (543) 
None

>  <HIPPO Pose ID>  (543) 
498187

>  <name>  (543) 
P498187

>  <HIPPO Compound ID>  (543) 
292547

>  <ref_mols>  (543) 
A4331a,A0514a

>  <distance_score>  (543) 
1.832047

>  <inspiration_score>  (543) 
None

$$$$
P498188
     RDKit          3D

 19 20  0  0  0  0  0  0  0  0999 V2000
   11.0325   15.1977   20.3011 C   0  0  0  0  0  0  0  0  0  0  0  0
   10.0129   14.8128   21.2653 C   0  0  0  0  0  0  0  0  0  0  0  0
    9.2174   14.4955   22.1027 C   0  0  0  0  0  0  0  0  0  0  0  0
    8.3181   14.1384   23.1942 C   0  0  0  0  0  0  0  0  0  0  0  0
    8.8163   12.9364   23.9088 N   0  0  0  0  0  0  0  0  0  0  0  0
   10.1891   12.8694   24.3087 N   0  0  0  0  0  0  0  0  0  0  0  0
    7.9175   12.4783   24.8900 C   0  0  0  0  0  0  0  0  0  0  0  0
    7.3101   13.3748   25.7642 C   0  0  0  0  0  0  0  0  0  0  0  0
    6.3821   13.0625   26.6810 N   0  0  0  0  0  0  0  0  0  0  0  0
    5.9637   11.7878   26.7659 C   0  0  0  0  0  0  0  0  0  0  0  0
    4.8897   11.4802   27.7634 C   0  0  0  0  0  0  0  0  0  0  0  0
    3.5949   12.2549   27.7016 C   0  0  0  0  0  0  0  0  0  0  0  0
    4.5553   12.5103   28.8228 C   0  0  0  0  0  0  0  0  0  0  0  0
    6.5361   10.8102   25.9774 C   0  0  0  0  0  0  0  0  0  0  0  0
    7.5518   11.1423   25.0635 C   0  0  0  0  0  0  0  0  0  0  0  0
    8.1407    9.9704   24.3869 C   0  0  0  0  0  0  0  0  0  0  0  0
    7.7504    8.8525   24.6910 O   0  0  0  0  0  0  0  0  0  0  0  0
    9.1163   10.2317   23.4977 O   0  0  0  0  0  0  0  0  0  0  0  0
    9.6685    9.0497   22.9151 C   0  0  0  0  0  0  0  0  0  0  0  0
  1  2  1  0
  2  3  3  0
  3  4  1  0
  4  5  1  0
  5  6  1  0
  5  7  1  0
  7  8  2  0
  8  9  1  0
  9 10  2  0
 10 11  1  0
 11 12  1  0
 12 13  1  0
 10 14  1  0
 14 15  2  0
 15 16  1  0
 16 17  2  0
 16 18  1  0
 18 19  1  0
 15  7  1  0
 13 11  1  0
M  END
>  <energy_score>  (544) 
-28.009583

>  <inchikey>  (544) 
None

>  <smiles>  (544) 
None

>  <ref_pdb>  (544) 
A0514a

>  <alias>  (544) 
None

>  <HIPPO Pose ID>  (544) 
498188

>  <name>  (544) 
P498188

>  <HIPPO Compound ID>  (544) 
292548

>  <ref_mols>  (544) 
A4331a,A0514a

>  <distance_score>  (544) 
1.357933

>  <inspiration_score>  (544) 
None

$$$$
P498189
     RDKit          3D

 19 20  0  0  0  0  0  0  0  0999 V2000
   10.8206   15.3488   20.2261 C   0  0  0  0  0  0  0  0  0  0  0  0
    9.6209   15.1129   21.1160 C   0  0  0  0  0  0  0  0  0  0  0  0
   10.0272   14.2222   22.2756 C   0  0  0  0  0  0  0  0  0  0  0  0
    8.8375   13.8851   23.1536 C   0  0  0  0  0  0  0  0  0  0  0  0
    9.2381   12.9470   24.2304 N   0  0  0  0  0  0  0  0  0  0  0  0
   10.3913   13.2702   24.9998 N   0  0  0  0  0  0  0  0  0  0  0  0
    8.1102   12.6068   25.0077 C   0  0  0  0  0  0  0  0  0  0  0  0
    7.4567   13.5904   25.7445 C   0  0  0  0  0  0  0  0  0  0  0  0
    6.3703   13.3968   26.5030 N   0  0  0  0  0  0  0  0  0  0  0  0
    5.8518   12.1580   26.5645 C   0  0  0  0  0  0  0  0  0  0  0  0
    4.6430   12.0007   27.4215 C   0  0  0  0  0  0  0  0  0  0  0  0
    4.6946   11.1984   28.6897 C   0  0  0  0  0  0  0  0  0  0  0  0
    4.6386   12.6953   28.7658 C   0  0  0  0  0  0  0  0  0  0  0  0
    6.4336   11.1009   25.8879 C   0  0  0  0  0  0  0  0  0  0  0  0
    7.5760   11.3197   25.1024 C   0  0  0  0  0  0  0  0  0  0  0  0
    8.1179   10.0982   24.4731 C   0  0  0  0  0  0  0  0  0  0  0  0
    7.6807    9.0042   24.8035 O   0  0  0  0  0  0  0  0  0  0  0  0
    9.0698   10.3117   23.5452 O   0  0  0  0  0  0  0  0  0  0  0  0
    9.6084    9.1066   22.9974 C   0  0  0  0  0  0  0  0  0  0  0  0
  1  2  1  0
  2  3  1  0
  3  4  1  0
  4  5  1  0
  5  6  1  0
  5  7  1  0
  7  8  2  0
  8  9  1  0
  9 10  2  0
 10 11  1  0
 11 12  1  0
 12 13  1  0
 10 14  1  0
 14 15  2  0
 15 16  1  0
 16 17  2  0
 16 18  1  0
 18 19  1  0
 15  7  1  0
 13 11  1  0
M  END
>  <energy_score>  (545) 
-34.7238

>  <inchikey>  (545) 
None

>  <smiles>  (545) 
None

>  <ref_pdb>  (545) 
A0514a

>  <alias>  (545) 
None

>  <HIPPO Pose ID>  (545) 
498189

>  <name>  (545) 
P498189

>  <HIPPO Compound ID>  (545) 
292550

>  <ref_mols>  (545) 
A4331a,A0514a

>  <distance_score>  (545) 
1.782796

>  <inspiration_score>  (545) 
None

$$$$
P498190
     RDKit          3D

 19 20  0  0  0  0  0  0  0  0999 V2000
    9.3893    8.5579   23.0601 C   0  0  0  0  0  0  0  0  0  0  0  0
    8.6096    9.3417   23.9680 O   0  0  0  0  0  0  0  0  0  0  0  0
    8.8279   10.6756   23.8989 C   0  0  0  0  0  0  0  0  0  0  0  0
    9.6106   11.2098   23.1320 O   0  0  0  0  0  0  0  0  0  0  0  0
    7.9809   11.3968   24.8948 C   0  0  0  0  0  0  0  0  0  0  0  0
    6.9806   10.6880   25.5847 C   0  0  0  0  0  0  0  0  0  0  0  0
    6.1945   11.3447   26.5236 C   0  0  0  0  0  0  0  0  0  0  0  0
    5.1369   10.6601   27.3367 C   0  0  0  0  0  0  0  0  0  0  0  0
    5.0638   10.9437   28.8196 C   0  0  0  0  0  0  0  0  0  0  0  0
    4.0118   11.5032   27.9140 C   0  0  0  0  0  0  0  0  0  0  0  0
    6.3851   12.6503   26.7971 N   0  0  0  0  0  0  0  0  0  0  0  0
    7.3110   13.3208   26.1066 C   0  0  0  0  0  0  0  0  0  0  0  0
    8.1344   12.7745   25.1332 C   0  0  0  0  0  0  0  0  0  0  0  0
    9.0067   13.6658   24.4782 N   0  0  0  0  0  0  0  0  0  0  0  0
   10.3768   13.3009   24.5008 N   0  0  0  0  0  0  0  0  0  0  0  0
    8.3908   14.4462   23.3385 C   0  0  0  0  0  0  0  0  0  0  0  0
    7.5217   15.5907   23.9086 C   0  0  0  0  0  0  0  0  0  0  0  0
    9.4622   14.8321   22.2880 C   0  0  0  0  0  0  0  0  0  0  0  0
    7.4025   13.6486   22.5274 C   0  0  0  0  0  0  0  0  0  0  0  0
  1  2  1  0
  2  3  1  0
  3  4  2  0
  3  5  1  0
  5  6  2  0
  6  7  1  0
  7  8  1  0
  8  9  1  0
  9 10  1  0
  7 11  2  0
 11 12  1  0
 12 13  2  0
 13 14  1  0
 14 15  1  0
 14 16  1  0
 16 17  1  0
 16 18  1  0
 16 19  1  0
 13  5  1  0
 10  8  1  0
M  END
>  <energy_score>  (546) 
-42.178882

>  <inchikey>  (546) 
None

>  <smiles>  (546) 
None

>  <ref_pdb>  (546) 
A0514a

>  <alias>  (546) 
None

>  <HIPPO Pose ID>  (546) 
498190

>  <name>  (546) 
P498190

>  <HIPPO Compound ID>  (546) 
292551

>  <ref_mols>  (546) 
A4331a,A0514a

>  <distance_score>  (546) 
1.84768

>  <inspiration_score>  (546) 
None

$$$$
P498191
     RDKit          3D

 19 21  0  0  0  0  0  0  0  0999 V2000
    9.6246    9.1810   23.0082 C   0  0  0  0  0  0  0  0  0  0  0  0
    9.1468   10.4068   23.5782 O   0  0  0  0  0  0  0  0  0  0  0  0
    8.1699   10.2203   24.4880 C   0  0  0  0  0  0  0  0  0  0  0  0
    7.6959    9.1315   24.7890 O   0  0  0  0  0  0  0  0  0  0  0  0
    7.6578   11.4485   25.1425 C   0  0  0  0  0  0  0  0  0  0  0  0
    6.5126   11.2012   25.9222 C   0  0  0  0  0  0  0  0  0  0  0  0
    5.9033   12.2305   26.6161 C   0  0  0  0  0  0  0  0  0  0  0  0
    4.6767   12.0292   27.4370 C   0  0  0  0  0  0  0  0  0  0  0  0
    4.7137   11.2061   28.6922 C   0  0  0  0  0  0  0  0  0  0  0  0
    4.6164   12.6998   28.7910 C   0  0  0  0  0  0  0  0  0  0  0  0
    6.4016   13.4769   26.5893 N   0  0  0  0  0  0  0  0  0  0  0  0
    7.4788   13.7091   25.8278 C   0  0  0  0  0  0  0  0  0  0  0  0
    8.1568   12.7558   25.0737 C   0  0  0  0  0  0  0  0  0  0  0  0
    9.1948   13.2740   24.2589 N   0  0  0  0  0  0  0  0  0  0  0  0
   10.4653   12.6896   24.4592 N   0  0  0  0  0  0  0  0  0  0  0  0
    8.8396   13.5481   22.8863 C   0  0  0  0  0  0  0  0  0  0  0  0
    7.8131   14.6724   22.6710 C   0  0  0  0  0  0  0  0  0  0  0  0
    8.6661   15.1190   21.4669 C   0  0  0  0  0  0  0  0  0  0  0  0
    9.8604   14.3943   22.1050 C   0  0  0  0  0  0  0  0  0  0  0  0
  1  2  1  0
  2  3  1  0
  3  4  2  0
  3  5  1  0
  5  6  2  0
  6  7  1  0
  7  8  1  0
  8  9  1  0
  9 10  1  0
  7 11  2  0
 11 12  1  0
 12 13  2  0
 13 14  1  0
 14 15  1  0
 14 16  1  0
 16 17  1  0
 17 18  1  0
 18 19  1  0
 13  5  1  0
 19 16  1  0
 10  8  1  0
M  END
>  <energy_score>  (547) 
-24.423745

>  <inchikey>  (547) 
None

>  <smiles>  (547) 
None

>  <ref_pdb>  (547) 
A0514a

>  <alias>  (547) 
None

>  <HIPPO Pose ID>  (547) 
498191

>  <name>  (547) 
P498191

>  <HIPPO Compound ID>  (547) 
292552

>  <ref_mols>  (547) 
A4331a,A0514a

>  <distance_score>  (547) 
1.725667

>  <inspiration_score>  (547) 
None

$$$$
P498192
     RDKit          3D

 19 20  0  0  0  0  0  0  0  0999 V2000
    9.2874    8.5081   23.2502 C   0  0  0  0  0  0  0  0  0  0  0  0
    8.5849    9.3846   24.1404 O   0  0  0  0  0  0  0  0  0  0  0  0
    8.8073   10.6933   23.8853 C   0  0  0  0  0  0  0  0  0  0  0  0
    9.5259   11.1182   22.9978 O   0  0  0  0  0  0  0  0  0  0  0  0
    8.0571   11.5730   24.8145 C   0  0  0  0  0  0  0  0  0  0  0  0
    6.9129   11.1163   25.4806 C   0  0  0  0  0  0  0  0  0  0  0  0
    6.2207   12.0072   26.2960 C   0  0  0  0  0  0  0  0  0  0  0  0
    4.9670   11.6856   27.0341 C   0  0  0  0  0  0  0  0  0  0  0  0
    4.8917   10.6386   28.1033 C   0  0  0  0  0  0  0  0  0  0  0  0
    4.9051   12.0846   28.4952 C   0  0  0  0  0  0  0  0  0  0  0  0
    6.6298   13.2816   26.4635 N   0  0  0  0  0  0  0  0  0  0  0  0
    7.7150   13.7030   25.8106 C   0  0  0  0  0  0  0  0  0  0  0  0
    8.4926   12.8963   24.9975 C   0  0  0  0  0  0  0  0  0  0  0  0
    9.6810   13.4046   24.4128 N   0  0  0  0  0  0  0  0  0  0  0  0
   10.5104   14.1773   25.2832 N   0  0  0  0  0  0  0  0  0  0  0  0
    9.3242   14.0292   23.1056 C   0  0  0  0  0  0  0  0  0  0  0  0
   10.5831   14.2989   22.2998 C   0  0  0  0  0  0  0  0  0  0  0  0
   10.2859   15.0555   21.0956 C   0  0  0  0  0  0  0  0  0  0  0  0
   10.0946   15.6637   20.1309 N   0  0  0  0  0  0  0  0  0  0  0  0
  1  2  1  0
  2  3  1  0
  3  4  2  0
  3  5  1  0
  5  6  2  0
  6  7  1  0
  7  8  1  0
  8  9  1  0
  9 10  1  0
  7 11  2  0
 11 12  1  0
 12 13  2  0
 13 14  1  0
 14 15  1  0
 14 16  1  0
 16 17  1  0
 17 18  1  0
 18 19  3  0
 13  5  1  0
 10  8  1  0
M  END
>  <energy_score>  (548) 
-37.84191

>  <inchikey>  (548) 
None

>  <smiles>  (548) 
None

>  <ref_pdb>  (548) 
A0514a

>  <alias>  (548) 
None

>  <HIPPO Pose ID>  (548) 
498192

>  <name>  (548) 
P498192

>  <HIPPO Compound ID>  (548) 
292553

>  <ref_mols>  (548) 
A4331a,A0514a

>  <distance_score>  (548) 
1.585946

>  <inspiration_score>  (548) 
None

$$$$
P498193
     RDKit          3D

 19 21  0  0  0  0  0  0  0  0999 V2000
    9.2737    8.4910   22.9659 C   0  0  0  0  0  0  0  0  0  0  0  0
    8.3869    9.2297   23.8075 O   0  0  0  0  0  0  0  0  0  0  0  0
    8.8601   10.4587   24.1080 C   0  0  0  0  0  0  0  0  0  0  0  0
    9.9442   10.8913   23.7558 O   0  0  0  0  0  0  0  0  0  0  0  0
    7.8698   11.2194   24.9173 C   0  0  0  0  0  0  0  0  0  0  0  0
    6.8592   10.5435   25.6131 C   0  0  0  0  0  0  0  0  0  0  0  0
    6.0265   11.2614   26.4642 C   0  0  0  0  0  0  0  0  0  0  0  0
    5.0812   10.6079   27.4288 C   0  0  0  0  0  0  0  0  0  0  0  0
    3.8941   11.3787   27.9695 C   0  0  0  0  0  0  0  0  0  0  0  0
    5.0792   11.1378   28.8509 C   0  0  0  0  0  0  0  0  0  0  0  0
    6.1159   12.6040   26.5607 N   0  0  0  0  0  0  0  0  0  0  0  0
    7.0738   13.2363   25.8792 C   0  0  0  0  0  0  0  0  0  0  0  0
    8.0093   12.6052   25.0765 C   0  0  0  0  0  0  0  0  0  0  0  0
    9.0394   13.3665   24.4746 N   0  0  0  0  0  0  0  0  0  0  0  0
    9.6136   14.3366   25.3176 N   0  0  0  0  0  0  0  0  0  0  0  0
    9.0057   13.5499   23.0322 C   0  0  0  0  0  0  0  0  0  0  0  0
   10.2404   14.2082   22.3848 C   0  0  0  0  0  0  0  0  0  0  0  0
    9.1594   15.0747   21.2120 S   0  0  0  0  0  0  0  0  0  0  0  0
    8.0022   14.6087   22.5342 C   0  0  0  0  0  0  0  0  0  0  0  0
  1  2  1  0
  2  3  1  0
  3  4  2  0
  3  5  1  0
  5  6  2  0
  6  7  1  0
  7  8  1  0
  8  9  1  0
  9 10  1  0
  7 11  2  0
 11 12  1  0
 12 13  2  0
 13 14  1  0
 14 15  1  0
 14 16  1  0
 16 17  1  0
 17 18  1  0
 18 19  1  0
 13  5  1  0
 19 16  1  0
 10  8  1  0
M  END
>  <energy_score>  (549) 
-27.39519

>  <inchikey>  (549) 
None

>  <smiles>  (549) 
None

>  <ref_pdb>  (549) 
A0514a

>  <alias>  (549) 
None

>  <HIPPO Pose ID>  (549) 
498193

>  <name>  (549) 
P498193

>  <HIPPO Compound ID>  (549) 
292556

>  <ref_mols>  (549) 
A4331a,A0514a

>  <distance_score>  (549) 
1.575181

>  <inspiration_score>  (549) 
None

$$$$
P498194
     RDKit          3D

 19 21  0  0  0  0  0  0  0  0999 V2000
    9.3064    8.7912   23.0848 C   0  0  0  0  0  0  0  0  0  0  0  0
    8.5121    9.7057   23.8496 O   0  0  0  0  0  0  0  0  0  0  0  0
    9.0965   10.9176   24.0154 C   0  0  0  0  0  0  0  0  0  0  0  0
   10.1923   11.2224   23.5796 O   0  0  0  0  0  0  0  0  0  0  0  0
    8.2264   11.8262   24.8150 C   0  0  0  0  0  0  0  0  0  0  0  0
    7.1423   11.2837   25.5330 C   0  0  0  0  0  0  0  0  0  0  0  0
    6.3682   12.1213   26.3278 C   0  0  0  0  0  0  0  0  0  0  0  0
    5.1216   11.7046   27.0300 C   0  0  0  0  0  0  0  0  0  0  0  0
    5.0878   10.7105   28.1489 C   0  0  0  0  0  0  0  0  0  0  0  0
    4.9393   12.1684   28.4611 C   0  0  0  0  0  0  0  0  0  0  0  0
    6.6729   13.4240   26.4770 N   0  0  0  0  0  0  0  0  0  0  0  0
    7.6802   13.9307   25.7559 C   0  0  0  0  0  0  0  0  0  0  0  0
    8.4803   13.2077   24.8845 C   0  0  0  0  0  0  0  0  0  0  0  0
    9.3292   13.9838   24.0839 N   0  0  0  0  0  0  0  0  0  0  0  0
   10.6722   14.0131   24.3727 N   0  0  0  0  0  0  0  0  0  0  0  0
   11.2678   14.2812   23.2515 C   0  0  0  0  0  0  0  0  0  0  0  0
   10.3837   14.4799   22.0667 C   0  0  0  0  0  0  0  0  0  0  0  0
    9.1163   13.8879   22.6394 C   0  0  2  0  0  0  0  0  0  0  0  0
    7.8326   14.5510   22.1863 C   0  0  0  0  0  0  0  0  0  0  0  0
  1  2  1  0
  2  3  1  0
  3  4  2  0
  3  5  1  0
  5  6  2  0
  6  7  1  0
  7  8  1  0
  8  9  1  0
  9 10  1  0
  7 11  2  0
 11 12  1  0
 12 13  2  0
 13 14  1  0
 14 15  1  0
 15 16  2  0
 16 17  1  0
 17 18  1  0
 18 19  1  1
 13  5  1  0
 18 14  1  0
 10  8  1  0
M  END
>  <energy_score>  (550) 
-42.152853

>  <inchikey>  (550) 
None

>  <smiles>  (550) 
None

>  <ref_pdb>  (550) 
A0514a

>  <alias>  (550) 
None

>  <HIPPO Pose ID>  (550) 
498194

>  <name>  (550) 
P498194

>  <HIPPO Compound ID>  (550) 
292557

>  <ref_mols>  (550) 
A4331a,A0514a

>  <distance_score>  (550) 
1.765059

>  <inspiration_score>  (550) 
None

$$$$
P498195
     RDKit          3D

 19 21  0  0  0  0  0  0  0  0999 V2000
    9.4560    8.3633   23.1919 C   0  0  0  0  0  0  0  0  0  0  0  0
    8.7308    9.2086   24.0813 O   0  0  0  0  0  0  0  0  0  0  0  0
    8.8505   10.5186   23.7752 C   0  0  0  0  0  0  0  0  0  0  0  0
    9.4823   10.9602   22.8337 O   0  0  0  0  0  0  0  0  0  0  0  0
    8.0880   11.3480   24.7383 C   0  0  0  0  0  0  0  0  0  0  0  0
    7.0825   10.7748   25.5270 C   0  0  0  0  0  0  0  0  0  0  0  0
    6.3647   11.5855   26.3949 C   0  0  0  0  0  0  0  0  0  0  0  0
    5.2592   11.0583   27.2648 C   0  0  0  0  0  0  0  0  0  0  0  0
    5.1539   11.5335   28.6952 C   0  0  0  0  0  0  0  0  0  0  0  0
    4.1555   12.0116   27.6873 C   0  0  0  0  0  0  0  0  0  0  0  0
    6.6499   12.9038   26.5119 N   0  0  0  0  0  0  0  0  0  0  0  0
    7.5784   13.4398   25.7044 C   0  0  0  0  0  0  0  0  0  0  0  0
    8.3285   12.7265   24.7899 C   0  0  0  0  0  0  0  0  0  0  0  0
    9.1678   13.3622   23.8934 N   0  0  0  0  0  0  0  0  0  0  0  0
   10.5019   13.5408   24.1735 N   0  0  0  0  0  0  0  0  0  0  0  0
   10.9508   14.2231   23.1643 C   0  0  0  0  0  0  0  0  0  0  0  0
    9.9173   14.6356   22.1622 C   0  0  0  0  0  0  0  0  0  0  0  0
    8.6866   14.4350   23.0387 C   0  0  1  0  0  0  0  0  0  0  0  0
    7.4380   14.1532   22.2511 C   0  0  0  0  0  0  0  0  0  0  0  0
  1  2  1  0
  2  3  1  0
  3  4  2  0
  3  5  1  0
  5  6  2  0
  6  7  1  0
  7  8  1  0
  8  9  1  0
  9 10  1  0
  7 11  2  0
 11 12  1  0
 12 13  2  0
 13 14  1  0
 14 15  1  0
 15 16  2  0
 16 17  1  0
 17 18  1  0
 18 19  1  6
 13  5  1  0
 18 14  1  0
 10  8  1  0
M  END
>  <energy_score>  (551) 
-35.506514

>  <inchikey>  (551) 
None

>  <smiles>  (551) 
None

>  <ref_pdb>  (551) 
A0514a

>  <alias>  (551) 
None

>  <HIPPO Pose ID>  (551) 
498195

>  <name>  (551) 
P498195

>  <HIPPO Compound ID>  (551) 
292557

>  <ref_mols>  (551) 
A4331a,A0514a

>  <distance_score>  (551) 
1.688568

>  <inspiration_score>  (551) 
None

$$$$
P498196
     RDKit          3D

 19 20  0  0  0  0  0  0  0  0999 V2000
   10.1518   15.7148   20.2494 C   0  0  0  0  0  0  0  0  0  0  0  0
   10.1670   14.9900   21.2027 C   0  0  0  0  0  0  0  0  0  0  0  0
   10.3507   14.1006   22.3406 C   0  0  0  0  0  0  0  0  0  0  0  0
    9.0611   13.8272   23.1066 C   0  0  0  0  0  0  0  0  0  0  0  0
    9.3377   12.9024   24.2387 N   0  0  0  0  0  0  0  0  0  0  0  0
   10.4176   13.2434   25.1051 N   0  0  0  0  0  0  0  0  0  0  0  0
    8.1604   12.5493   24.9302 C   0  0  0  0  0  0  0  0  0  0  0  0
    7.4608   13.5089   25.6534 C   0  0  0  0  0  0  0  0  0  0  0  0
    6.4102   13.2645   26.4538 N   0  0  0  0  0  0  0  0  0  0  0  0
    5.9570   11.9996   26.5584 C   0  0  0  0  0  0  0  0  0  0  0  0
    4.8269   11.7406   27.5097 C   0  0  0  0  0  0  0  0  0  0  0  0
    3.5812   12.5875   27.4235 C   0  0  0  0  0  0  0  0  0  0  0  0
    4.5194   12.7696   28.5777 C   0  0  0  0  0  0  0  0  0  0  0  0
    6.5498   10.9798   25.8409 C   0  0  0  0  0  0  0  0  0  0  0  0
    7.6641   11.2464   25.0283 C   0  0  0  0  0  0  0  0  0  0  0  0
    8.2296   10.0402   24.3957 C   0  0  0  0  0  0  0  0  0  0  0  0
    7.8267    8.9362   24.7357 O   0  0  0  0  0  0  0  0  0  0  0  0
    9.1531   10.2747   23.4455 O   0  0  0  0  0  0  0  0  0  0  0  0
    9.6815    9.0691   22.8920 C   0  0  0  0  0  0  0  0  0  0  0  0
  1  2  3  0
  2  3  1  0
  3  4  1  0
  4  5  1  0
  5  6  1  0
  5  7  1  0
  7  8  2  0
  8  9  1  0
  9 10  2  0
 10 11  1  0
 11 12  1  0
 12 13  1  0
 10 14  1  0
 14 15  2  0
 15 16  1  0
 16 17  2  0
 16 18  1  0
 18 19  1  0
 15  7  1  0
 13 11  1  0
M  END
>  <energy_score>  (552) 
-28.022364

>  <inchikey>  (552) 
None

>  <smiles>  (552) 
None

>  <ref_pdb>  (552) 
A0514a

>  <alias>  (552) 
None

>  <HIPPO Pose ID>  (552) 
498196

>  <name>  (552) 
P498196

>  <HIPPO Compound ID>  (552) 
292558

>  <ref_mols>  (552) 
A4331a,A0514a

>  <distance_score>  (552) 
1.483891

>  <inspiration_score>  (552) 
None

$$$$
P498197
     RDKit          3D

 19 20  0  0  0  0  0  0  0  0999 V2000
   10.5615   15.3711   20.0428 C   0  0  0  0  0  0  0  0  0  0  0  0
    9.7651   15.2596   21.1116 C   0  0  0  0  0  0  0  0  0  0  0  0
   10.1024   14.3352   22.2346 C   0  0  0  0  0  0  0  0  0  0  0  0
    8.8932   13.8874   23.0596 C   0  0  0  0  0  0  0  0  0  0  0  0
    9.3247   12.9930   24.1777 N   0  0  0  0  0  0  0  0  0  0  0  0
   10.3774   13.5253   24.9961 N   0  0  0  0  0  0  0  0  0  0  0  0
    8.1857   12.5916   24.9249 C   0  0  0  0  0  0  0  0  0  0  0  0
    7.5097   13.5247   25.7075 C   0  0  0  0  0  0  0  0  0  0  0  0
    6.4651   13.2568   26.5097 N   0  0  0  0  0  0  0  0  0  0  0  0
    5.9861   11.9983   26.5494 C   0  0  0  0  0  0  0  0  0  0  0  0
    4.8125   11.7223   27.4400 C   0  0  0  0  0  0  0  0  0  0  0  0
    4.6619   12.4811   28.7353 C   0  0  0  0  0  0  0  0  0  0  0  0
    3.7522   12.7916   27.5852 C   0  0  0  0  0  0  0  0  0  0  0  0
    6.5803   10.9995   25.8053 C   0  0  0  0  0  0  0  0  0  0  0  0
    7.6950   11.2839   24.9977 C   0  0  0  0  0  0  0  0  0  0  0  0
    8.2593   10.0797   24.3597 C   0  0  0  0  0  0  0  0  0  0  0  0
    7.8563    8.9742   24.6967 O   0  0  0  0  0  0  0  0  0  0  0  0
    9.1978   10.3147   23.4265 O   0  0  0  0  0  0  0  0  0  0  0  0
    9.7135    9.1048   22.8678 C   0  0  0  0  0  0  0  0  0  0  0  0
  1  2  2  0
  2  3  1  0
  3  4  1  0
  4  5  1  0
  5  6  1  0
  5  7  1  0
  7  8  2  0
  8  9  1  0
  9 10  2  0
 10 11  1  0
 11 12  1  0
 12 13  1  0
 10 14  1  0
 14 15  2  0
 15 16  1  0
 16 17  2  0
 16 18  1  0
 18 19  1  0
 15  7  1  0
 13 11  1  0
M  END
>  <energy_score>  (553) 
-27.206018

>  <inchikey>  (553) 
None

>  <smiles>  (553) 
None

>  <ref_pdb>  (553) 
A0514a

>  <alias>  (553) 
None

>  <HIPPO Pose ID>  (553) 
498197

>  <name>  (553) 
P498197

>  <HIPPO Compound ID>  (553) 
292559

>  <ref_mols>  (553) 
A4331a,A0514a

>  <distance_score>  (553) 
1.614681

>  <inspiration_score>  (553) 
None

$$$$
P498198
     RDKit          3D

 19 20  0  0  0  0  0  0  0  0999 V2000
   11.2854   14.2476   23.0225 C   0  0  0  0  0  0  0  0  0  0  0  0
   10.0410   14.1530   22.5316 C   0  0  0  0  0  0  0  0  0  0  0  0
    8.8182   13.5042   23.1505 C   0  0  2  0  0  0  0  0  0  0  0  0
    7.5719   14.3063   22.7604 C   0  0  0  0  0  0  0  0  0  0  0  0
    8.9468   13.3047   24.6327 N   0  0  0  0  0  0  0  0  0  0  0  0
    9.4503   14.4311   25.3889 N   0  0  0  0  0  0  0  0  0  0  0  0
    7.8048   12.6757   25.2052 C   0  0  0  0  0  0  0  0  0  0  0  0
    6.9089   13.4755   25.9225 C   0  0  0  0  0  0  0  0  0  0  0  0
    5.8901   13.0476   26.6759 N   0  0  0  0  0  0  0  0  0  0  0  0
    5.6441   11.7318   26.7250 C   0  0  0  0  0  0  0  0  0  0  0  0
    4.5695   11.2714   27.6575 C   0  0  0  0  0  0  0  0  0  0  0  0
    4.4848   11.8911   29.0313 C   0  0  0  0  0  0  0  0  0  0  0  0
    3.4497   12.2296   28.0019 C   0  0  0  0  0  0  0  0  0  0  0  0
    6.3929   10.8549   25.9698 C   0  0  0  0  0  0  0  0  0  0  0  0
    7.4861   11.3095   25.1999 C   0  0  0  0  0  0  0  0  0  0  0  0
    8.1748   10.1791   24.5363 C   0  0  0  0  0  0  0  0  0  0  0  0
    7.8038    9.0334   24.7588 O   0  0  0  0  0  0  0  0  0  0  0  0
    9.1634   10.5074   23.6905 O   0  0  0  0  0  0  0  0  0  0  0  0
    9.7203    9.3612   23.0369 C   0  0  0  0  0  0  0  0  0  0  0  0
  1  2  2  0
  2  3  1  0
  3  4  1  1
  3  5  1  0
  5  6  1  0
  5  7  1  0
  7  8  2  0
  8  9  1  0
  9 10  2  0
 10 11  1  0
 11 12  1  0
 12 13  1  0
 10 14  1  0
 14 15  2  0
 15 16  1  0
 16 17  2  0
 16 18  1  0
 18 19  1  0
 15  7  1  0
 13 11  1  0
M  END
>  <energy_score>  (554) 
-22.5719

>  <inchikey>  (554) 
None

>  <smiles>  (554) 
None

>  <ref_pdb>  (554) 
A0514a

>  <alias>  (554) 
None

>  <HIPPO Pose ID>  (554) 
498198

>  <name>  (554) 
P498198

>  <HIPPO Compound ID>  (554) 
292560

>  <ref_mols>  (554) 
A4331a,A0514a

>  <distance_score>  (554) 
1.863125

>  <inspiration_score>  (554) 
None

$$$$
P498199
     RDKit          3D

 19 20  0  0  0  0  0  0  0  0999 V2000
    9.1134    8.5387   23.0468 C   0  0  0  0  0  0  0  0  0  0  0  0
    8.3073    9.3897   23.8728 O   0  0  0  0  0  0  0  0  0  0  0  0
    8.8802   10.6005   24.0616 C   0  0  0  0  0  0  0  0  0  0  0  0
    9.9685   10.9189   23.6132 O   0  0  0  0  0  0  0  0  0  0  0  0
    8.0231   11.4996   24.8858 C   0  0  0  0  0  0  0  0  0  0  0  0
    6.8966   11.0296   25.5722 C   0  0  0  0  0  0  0  0  0  0  0  0
    6.1725   11.9287   26.3543 C   0  0  0  0  0  0  0  0  0  0  0  0
    4.9481   11.5911   27.1340 C   0  0  0  0  0  0  0  0  0  0  0  0
    4.9139   10.5498   28.2089 C   0  0  0  0  0  0  0  0  0  0  0  0
    4.9359   11.9971   28.5951 C   0  0  0  0  0  0  0  0  0  0  0  0
    6.5288   13.2255   26.4705 N   0  0  0  0  0  0  0  0  0  0  0  0
    7.5946   13.6600   25.7961 C   0  0  0  0  0  0  0  0  0  0  0  0
    8.3861   12.8522   25.0003 C   0  0  0  0  0  0  0  0  0  0  0  0
    9.4754   13.4072   24.3031 N   0  0  0  0  0  0  0  0  0  0  0  0
   10.4144   14.1249   25.0843 N   0  0  0  0  0  0  0  0  0  0  0  0
    9.0099   14.0042   23.0401 C   0  0  0  0  0  0  0  0  0  0  0  0
   10.0659   13.8905   21.9572 C   0  0  0  0  0  0  0  0  0  0  0  0
   11.1716   14.9187   21.9145 C   0  0  0  0  0  0  0  0  0  0  0  0
   12.0741   14.8121   23.0044 O   0  0  0  0  0  0  0  0  0  0  0  0
  1  2  1  0
  2  3  1  0
  3  4  2  0
  3  5  1  0
  5  6  2  0
  6  7  1  0
  7  8  1  0
  8  9  1  0
  9 10  1  0
  7 11  2  0
 11 12  1  0
 12 13  2  0
 13 14  1  0
 14 15  1  0
 14 16  1  0
 16 17  1  0
 17 18  1  0
 18 19  1  0
 13  5  1  0
 10  8  1  0
M  END
>  <energy_score>  (555) 
-44.338933

>  <inchikey>  (555) 
None

>  <smiles>  (555) 
None

>  <ref_pdb>  (555) 
A0514a

>  <alias>  (555) 
None

>  <HIPPO Pose ID>  (555) 
498199

>  <name>  (555) 
P498199

>  <HIPPO Compound ID>  (555) 
292561

>  <ref_mols>  (555) 
A4331a,A0514a

>  <distance_score>  (555) 
1.811943

>  <inspiration_score>  (555) 
None

$$$$
P498200
     RDKit          3D

 19 20  0  0  0  0  0  0  0  0999 V2000
   10.5126   15.5776   20.3155 C   0  0  0  0  0  0  0  0  0  0  0  0
    9.4338   15.0829   21.0987 O   0  0  0  0  0  0  0  0  0  0  0  0
    9.9468   14.3206   22.1798 C   0  0  0  0  0  0  0  0  0  0  0  0
    8.7929   13.8319   23.0364 C   0  0  0  0  0  0  0  0  0  0  0  0
    9.2605   13.0810   24.2223 N   0  0  0  0  0  0  0  0  0  0  0  0
   10.4384   12.3282   24.1694 N   0  0  0  0  0  0  0  0  0  0  0  0
    8.1621   12.5586   24.9403 C   0  0  0  0  0  0  0  0  0  0  0  0
    7.4398   13.4866   25.6914 C   0  0  0  0  0  0  0  0  0  0  0  0
    6.4106   13.2101   26.5069 N   0  0  0  0  0  0  0  0  0  0  0  0
    5.9888   11.9372   26.5978 C   0  0  0  0  0  0  0  0  0  0  0  0
    4.8671   11.6425   27.5483 C   0  0  0  0  0  0  0  0  0  0  0  0
    3.6136   12.4814   27.4924 C   0  0  0  0  0  0  0  0  0  0  0  0
    4.5587   12.6421   28.6439 C   0  0  0  0  0  0  0  0  0  0  0  0
    6.6043   10.9437   25.8618 C   0  0  0  0  0  0  0  0  0  0  0  0
    7.7085   11.2376   25.0352 C   0  0  0  0  0  0  0  0  0  0  0  0
    8.2407   10.0249   24.3750 C   0  0  0  0  0  0  0  0  0  0  0  0
    7.8814    8.9208   24.7625 O   0  0  0  0  0  0  0  0  0  0  0  0
    9.0783   10.2337   23.3405 O   0  0  0  0  0  0  0  0  0  0  0  0
    9.6172    9.0105   22.8305 C   0  0  0  0  0  0  0  0  0  0  0  0
  1  2  1  0
  2  3  1  0
  3  4  1  0
  4  5  1  0
  5  6  1  0
  5  7  1  0
  7  8  2  0
  8  9  1  0
  9 10  2  0
 10 11  1  0
 11 12  1  0
 12 13  1  0
 10 14  1  0
 14 15  2  0
 15 16  1  0
 16 17  2  0
 16 18  1  0
 18 19  1  0
 15  7  1  0
 13 11  1  0
M  END
>  <energy_score>  (556) 
-42.023756

>  <inchikey>  (556) 
None

>  <smiles>  (556) 
None

>  <ref_pdb>  (556) 
A0514a

>  <alias>  (556) 
None

>  <HIPPO Pose ID>  (556) 
498200

>  <name>  (556) 
P498200

>  <HIPPO Compound ID>  (556) 
292562

>  <ref_mols>  (556) 
A4331a,A0514a

>  <distance_score>  (556) 
1.384638

>  <inspiration_score>  (556) 
None

$$$$
P498201
     RDKit          3D

 19 20  0  0  0  0  0  0  0  0999 V2000
    9.6787    8.3227   23.3663 C   0  0  0  0  0  0  0  0  0  0  0  0
    8.7320    9.0300   24.1595 O   0  0  0  0  0  0  0  0  0  0  0  0
    8.7454   10.3360   23.8179 C   0  0  0  0  0  0  0  0  0  0  0  0
    9.3766   10.7951   22.8801 O   0  0  0  0  0  0  0  0  0  0  0  0
    7.9381   11.1418   24.7610 C   0  0  0  0  0  0  0  0  0  0  0  0
    6.9323   10.5664   25.5411 C   0  0  0  0  0  0  0  0  0  0  0  0
    6.2094   11.3806   26.4044 C   0  0  0  0  0  0  0  0  0  0  0  0
    5.1476   10.8515   27.3250 C   0  0  0  0  0  0  0  0  0  0  0  0
    5.1199   11.3296   28.7589 C   0  0  0  0  0  0  0  0  0  0  0  0
    4.0651   11.8016   27.8077 C   0  0  0  0  0  0  0  0  0  0  0  0
    6.4612   12.7074   26.4929 N   0  0  0  0  0  0  0  0  0  0  0  0
    7.4098   13.2402   25.7120 C   0  0  0  0  0  0  0  0  0  0  0  0
    8.1890   12.5158   24.8305 C   0  0  0  0  0  0  0  0  0  0  0  0
    9.1805   13.1222   24.0645 N   0  0  0  0  0  0  0  0  0  0  0  0
   10.5039   12.9481   24.5667 N   0  0  0  0  0  0  0  0  0  0  0  0
    8.8476   14.3282   23.2842 C   0  0  2  0  0  0  0  0  0  0  0  0
    7.5389   14.2090   22.5090 C   0  0  0  0  0  0  0  0  0  0  0  0
    9.9751   14.6230   22.2629 C   0  0  0  0  0  0  0  0  0  0  0  0
   11.2035   14.9646   22.9298 O   0  0  0  0  0  0  0  0  0  0  0  0
  1  2  1  0
  2  3  1  0
  3  4  2  0
  3  5  1  0
  5  6  2  0
  6  7  1  0
  7  8  1  0
  8  9  1  0
  9 10  1  0
  7 11  2  0
 11 12  1  0
 12 13  2  0
 13 14  1  0
 14 15  1  0
 14 16  1  0
 16 17  1  6
 16 18  1  0
 18 19  1  0
 13  5  1  0
 10  8  1  0
M  END
>  <energy_score>  (557) 
-30.146544

>  <inchikey>  (557) 
None

>  <smiles>  (557) 
None

>  <ref_pdb>  (557) 
A0514a

>  <alias>  (557) 
None

>  <HIPPO Pose ID>  (557) 
498201

>  <name>  (557) 
P498201

>  <HIPPO Compound ID>  (557) 
292563

>  <ref_mols>  (557) 
A4331a,A0514a

>  <distance_score>  (557) 
1.543869

>  <inspiration_score>  (557) 
None

$$$$
P498202
     RDKit          3D

 19 20  0  0  0  0  0  0  0  0999 V2000
    9.1643    8.6639   23.0860 C   0  0  0  0  0  0  0  0  0  0  0  0
    8.3697    9.5599   23.8717 O   0  0  0  0  0  0  0  0  0  0  0  0
    8.9717   10.7574   24.0726 C   0  0  0  0  0  0  0  0  0  0  0  0
   10.0887   11.0314   23.6653 O   0  0  0  0  0  0  0  0  0  0  0  0
    8.1079   11.6860   24.8573 C   0  0  0  0  0  0  0  0  0  0  0  0
    6.9935   11.1811   25.5512 C   0  0  0  0  0  0  0  0  0  0  0  0
    6.2267   12.0500   26.3230 C   0  0  0  0  0  0  0  0  0  0  0  0
    5.0034   11.6647   27.0813 C   0  0  0  0  0  0  0  0  0  0  0  0
    4.9901   10.6331   28.1663 C   0  0  0  0  0  0  0  0  0  0  0  0
    4.9396   12.0836   28.5371 C   0  0  0  0  0  0  0  0  0  0  0  0
    6.5365   13.3553   26.4354 N   0  0  0  0  0  0  0  0  0  0  0  0
    7.5820   13.8261   25.7513 C   0  0  0  0  0  0  0  0  0  0  0  0
    8.4066   13.0598   24.9421 C   0  0  0  0  0  0  0  0  0  0  0  0
    9.4236   13.7783   24.2758 N   0  0  0  0  0  0  0  0  0  0  0  0
   10.7349   13.4457   24.7510 N   0  0  0  0  0  0  0  0  0  0  0  0
    9.2399   13.8276   22.7897 C   0  0  1  0  0  0  0  0  0  0  0  0
    7.8179   14.2423   22.3909 C   0  0  0  0  0  0  0  0  0  0  0  0
   10.2374   14.7529   22.0500 C   0  0  0  0  0  0  0  0  0  0  0  0
   11.4375   15.0413   22.7712 O   0  0  0  0  0  0  0  0  0  0  0  0
  1  2  1  0
  2  3  1  0
  3  4  2  0
  3  5  1  0
  5  6  2  0
  6  7  1  0
  7  8  1  0
  8  9  1  0
  9 10  1  0
  7 11  2  0
 11 12  1  0
 12 13  2  0
 13 14  1  0
 14 15  1  0
 14 16  1  0
 16 17  1  1
 16 18  1  0
 18 19  1  0
 13  5  1  0
 10  8  1  0
M  END
>  <energy_score>  (558) 
-34.030016

>  <inchikey>  (558) 
None

>  <smiles>  (558) 
None

>  <ref_pdb>  (558) 
A0514a

>  <alias>  (558) 
None

>  <HIPPO Pose ID>  (558) 
498202

>  <name>  (558) 
P498202

>  <HIPPO Compound ID>  (558) 
292563

>  <ref_mols>  (558) 
A4331a,A0514a

>  <distance_score>  (558) 
1.494584

>  <inspiration_score>  (558) 
None

$$$$
P498203
     RDKit          3D

 19 20  0  0  0  0  0  0  0  0999 V2000
   11.4535   13.8821   22.6847 C   0  0  0  0  0  0  0  0  0  0  0  0
   10.0251   14.2078   22.3047 C   0  0  0  0  0  0  0  0  0  0  0  0
    8.8952   13.4897   23.0675 C   0  0  2  0  0  0  0  0  0  0  0  0
    7.5847   14.2267   22.7664 C   0  0  0  0  0  0  0  0  0  0  0  0
    9.1444   13.2455   24.5241 N   0  0  0  0  0  0  0  0  0  0  0  0
    9.8314   14.2681   25.2514 N   0  0  0  0  0  0  0  0  0  0  0  0
    8.0020   12.7026   25.1750 C   0  0  0  0  0  0  0  0  0  0  0  0
    7.2058   13.5688   25.9285 C   0  0  0  0  0  0  0  0  0  0  0  0
    6.1706   13.2139   26.7012 N   0  0  0  0  0  0  0  0  0  0  0  0
    5.8005   11.9237   26.7247 C   0  0  0  0  0  0  0  0  0  0  0  0
    4.6822   11.5440   27.6453 C   0  0  0  0  0  0  0  0  0  0  0  0
    3.4126   12.3603   27.6358 C   0  0  0  0  0  0  0  0  0  0  0  0
    4.3504   12.4664   28.7997 C   0  0  0  0  0  0  0  0  0  0  0  0
    6.4631   10.9929   25.9516 C   0  0  0  0  0  0  0  0  0  0  0  0
    7.5804   11.3640   25.1745 C   0  0  0  0  0  0  0  0  0  0  0  0
    8.1927   10.1896   24.5108 C   0  0  0  0  0  0  0  0  0  0  0  0
    7.7573    9.0690   24.7457 O   0  0  0  0  0  0  0  0  0  0  0  0
    9.2075   10.4545   23.6714 O   0  0  0  0  0  0  0  0  0  0  0  0
    9.7154    9.2775   23.0317 C   0  0  0  0  0  0  0  0  0  0  0  0
  1  2  1  0
  2  3  1  0
  3  4  1  1
  3  5  1  0
  5  6  1  0
  5  7  1  0
  7  8  2  0
  8  9  1  0
  9 10  2  0
 10 11  1  0
 11 12  1  0
 12 13  1  0
 10 14  1  0
 14 15  2  0
 15 16  1  0
 16 17  2  0
 16 18  1  0
 18 19  1  0
 15  7  1  0
 13 11  1  0
M  END
>  <energy_score>  (559) 
-23.362195

>  <inchikey>  (559) 
None

>  <smiles>  (559) 
None

>  <ref_pdb>  (559) 
A0514a

>  <alias>  (559) 
None

>  <HIPPO Pose ID>  (559) 
498203

>  <name>  (559) 
P498203

>  <HIPPO Compound ID>  (559) 
292564

>  <ref_mols>  (559) 
A4331a,A0514a

>  <distance_score>  (559) 
1.580684

>  <inspiration_score>  (559) 
None

$$$$
P498204
     RDKit          3D

 19 20  0  0  0  0  0  0  0  0999 V2000
   11.4437   14.6493   22.5914 C   0  0  0  0  0  0  0  0  0  0  0  0
   10.0219   14.4505   22.0850 C   0  0  0  0  0  0  0  0  0  0  0  0
    8.9370   14.1797   23.1477 C   0  0  1  0  0  0  0  0  0  0  0  0
    7.5802   14.3171   22.4405 C   0  0  0  0  0  0  0  0  0  0  0  0
    9.0595   12.8564   23.8187 N   0  0  0  0  0  0  0  0  0  0  0  0
   10.3312   12.3890   24.1956 N   0  0  0  0  0  0  0  0  0  0  0  0
    8.0599   12.5140   24.7518 C   0  0  0  0  0  0  0  0  0  0  0  0
    7.4503   13.4906   25.5383 C   0  0  0  0  0  0  0  0  0  0  0  0
    6.4581   13.2920   26.4195 N   0  0  0  0  0  0  0  0  0  0  0  0
    5.9731   12.0495   26.5605 C   0  0  0  0  0  0  0  0  0  0  0  0
    4.8239   11.8940   27.4986 C   0  0  0  0  0  0  0  0  0  0  0  0
    5.0024   11.2554   28.8450 C   0  0  0  0  0  0  0  0  0  0  0  0
    4.8100   12.7399   28.7543 C   0  0  0  0  0  0  0  0  0  0  0  0
    6.5343   10.9890   25.8753 C   0  0  0  0  0  0  0  0  0  0  0  0
    7.5997   11.2103   24.9812 C   0  0  0  0  0  0  0  0  0  0  0  0
    8.1228    9.9681   24.3708 C   0  0  0  0  0  0  0  0  0  0  0  0
    7.7482    8.8860   24.8006 O   0  0  0  0  0  0  0  0  0  0  0  0
    8.9927   10.1368   23.3599 O   0  0  0  0  0  0  0  0  0  0  0  0
    9.5585    8.9180   22.8838 C   0  0  0  0  0  0  0  0  0  0  0  0
  1  2  1  0
  2  3  1  0
  3  4  1  6
  3  5  1  0
  5  6  1  0
  5  7  1  0
  7  8  2  0
  8  9  1  0
  9 10  2  0
 10 11  1  0
 11 12  1  0
 12 13  1  0
 10 14  1  0
 14 15  2  0
 15 16  1  0
 16 17  2  0
 16 18  1  0
 18 19  1  0
 15  7  1  0
 13 11  1  0
M  END
>  <energy_score>  (560) 
-30.838698

>  <inchikey>  (560) 
None

>  <smiles>  (560) 
None

>  <ref_pdb>  (560) 
A0514a

>  <alias>  (560) 
None

>  <HIPPO Pose ID>  (560) 
498204

>  <name>  (560) 
P498204

>  <HIPPO Compound ID>  (560) 
292564

>  <ref_mols>  (560) 
A4331a,A0514a

>  <distance_score>  (560) 
1.524039

>  <inspiration_score>  (560) 
None

$$$$
P498205
     RDKit          3D

 20 21  0  0  0  0  0  0  0  0999 V2000
    6.7812   15.5209   22.5357 C   0  0  0  0  0  0  0  0  0  0  0  0
    7.4690   14.1668   22.4474 C   0  0  0  0  0  0  0  0  0  0  0  0
    8.8772   14.1645   23.0828 C   0  0  0  0  0  0  0  0  0  0  0  0
   10.0020   14.4244   22.0532 C   0  0  0  0  0  0  0  0  0  0  0  0
    9.7492   15.4492   20.9646 C   0  0  0  0  0  0  0  0  0  0  0  0
    9.1162   12.8650   23.7984 N   0  0  0  0  0  0  0  0  0  0  0  0
   10.4489   12.4834   24.1238 N   0  0  0  0  0  0  0  0  0  0  0  0
    8.1744   12.5255   24.7957 C   0  0  0  0  0  0  0  0  0  0  0  0
    7.6110   13.5096   25.6060 C   0  0  0  0  0  0  0  0  0  0  0  0
    6.6000   13.3339   26.4721 N   0  0  0  0  0  0  0  0  0  0  0  0
    6.0548   12.1121   26.5736 C   0  0  0  0  0  0  0  0  0  0  0  0
    4.8583   11.9864   27.4552 C   0  0  0  0  0  0  0  0  0  0  0  0
    4.9613   11.3528   28.8121 C   0  0  0  0  0  0  0  0  0  0  0  0
    4.7923   12.8394   28.7032 C   0  0  0  0  0  0  0  0  0  0  0  0
    6.5923   11.0402   25.8885 C   0  0  0  0  0  0  0  0  0  0  0  0
    7.6765   11.2341   25.0120 C   0  0  0  0  0  0  0  0  0  0  0  0
    8.1537    9.9825   24.3869 C   0  0  0  0  0  0  0  0  0  0  0  0
    7.6638    8.9153   24.7257 O   0  0  0  0  0  0  0  0  0  0  0  0
    9.1454   10.1314   23.4901 O   0  0  0  0  0  0  0  0  0  0  0  0
    9.6071    8.9040   22.9263 C   0  0  0  0  0  0  0  0  0  0  0  0
  1  2  1  0
  2  3  1  0
  3  4  1  0
  4  5  1  0
  3  6  1  0
  6  7  1  0
  6  8  1  0
  8  9  2  0
  9 10  1  0
 10 11  2  0
 11 12  1  0
 12 13  1  0
 13 14  1  0
 11 15  1  0
 15 16  2  0
 16 17  1  0
 17 18  2  0
 17 19  1  0
 19 20  1  0
 16  8  1  0
 14 12  1  0
M  END
>  <energy_score>  (561) 
-35.94483

>  <inchikey>  (561) 
None

>  <smiles>  (561) 
None

>  <ref_pdb>  (561) 
A0514a

>  <alias>  (561) 
None

>  <HIPPO Pose ID>  (561) 
498205

>  <name>  (561) 
P498205

>  <HIPPO Compound ID>  (561) 
292566

>  <ref_mols>  (561) 
A4331a,A0514a

>  <distance_score>  (561) 
1.939177

>  <inspiration_score>  (561) 
None

$$$$
P498206
     RDKit          3D

 20 21  0  0  0  0  0  0  0  0999 V2000
    9.2590    8.5408   23.0102 C   0  0  0  0  0  0  0  0  0  0  0  0
    8.4147    9.3200   23.8606 O   0  0  0  0  0  0  0  0  0  0  0  0
    8.9031   10.5639   24.0859 C   0  0  0  0  0  0  0  0  0  0  0  0
    9.9571   10.9715   23.6347 O   0  0  0  0  0  0  0  0  0  0  0  0
    7.9843   11.3516   24.9511 C   0  0  0  0  0  0  0  0  0  0  0  0
    6.9242   10.7166   25.6128 C   0  0  0  0  0  0  0  0  0  0  0  0
    6.1139   11.4609   26.4616 C   0  0  0  0  0  0  0  0  0  0  0  0
    5.0980   10.8350   27.3729 C   0  0  0  0  0  0  0  0  0  0  0  0
    3.8995   11.6381   27.8344 C   0  0  0  0  0  0  0  0  0  0  0  0
    5.0193   11.3709   28.7901 C   0  0  0  0  0  0  0  0  0  0  0  0
    6.2791   12.7950   26.5938 N   0  0  0  0  0  0  0  0  0  0  0  0
    7.2865   13.3892   25.9473 C   0  0  0  0  0  0  0  0  0  0  0  0
    8.2030   12.7254   25.1474 C   0  0  0  0  0  0  0  0  0  0  0  0
    9.2845   13.4298   24.5815 N   0  0  0  0  0  0  0  0  0  0  0  0
   10.1609   13.9964   25.5571 N   0  0  0  0  0  0  0  0  0  0  0  0
    8.9115   14.3091   23.4310 C   0  0  2  0  0  0  0  0  0  0  0  0
    7.7763   13.7568   22.5874 C   0  0  0  0  0  0  0  0  0  0  0  0
   10.1861   14.6284   22.5887 C   0  0  0  0  0  0  0  0  0  0  0  0
    9.8874   15.3227   21.2591 C   0  0  0  0  0  0  0  0  0  0  0  0
   11.1132   13.4538   22.3653 C   0  0  0  0  0  0  0  0  0  0  0  0
  1  2  1  0
  2  3  1  0
  3  4  2  0
  3  5  1  0
  5  6  2  0
  6  7  1  0
  7  8  1  0
  8  9  1  0
  9 10  1  0
  7 11  2  0
 11 12  1  0
 12 13  2  0
 13 14  1  0
 14 15  1  0
 14 16  1  0
 16 17  1  6
 16 18  1  0
 18 19  1  0
 18 20  1  0
 13  5  1  0
 10  8  1  0
M  END
>  <energy_score>  (562) 
-31.301077

>  <inchikey>  (562) 
None

>  <smiles>  (562) 
None

>  <ref_pdb>  (562) 
A0514a

>  <alias>  (562) 
None

>  <HIPPO Pose ID>  (562) 
498206

>  <name>  (562) 
P498206

>  <HIPPO Compound ID>  (562) 
292569

>  <ref_mols>  (562) 
A4331a,A0514a

>  <distance_score>  (562) 
1.488482

>  <inspiration_score>  (562) 
None

$$$$
P498207
     RDKit          3D

 20 21  0  0  0  0  0  0  0  0999 V2000
    9.2179    8.5595   23.0331 C   0  0  0  0  0  0  0  0  0  0  0  0
    8.3052    9.2781   23.8700 O   0  0  0  0  0  0  0  0  0  0  0  0
    8.7458   10.5191   24.1807 C   0  0  0  0  0  0  0  0  0  0  0  0
    9.8221   10.9717   23.8335 O   0  0  0  0  0  0  0  0  0  0  0  0
    7.7365   11.2551   24.9886 C   0  0  0  0  0  0  0  0  0  0  0  0
    6.8196   10.5327   25.7719 C   0  0  0  0  0  0  0  0  0  0  0  0
    6.0256   11.2181   26.6864 C   0  0  0  0  0  0  0  0  0  0  0  0
    5.3948   10.5969   27.8905 C   0  0  0  0  0  0  0  0  0  0  0  0
    4.2631    9.6303   27.8928 C   0  0  0  0  0  0  0  0  0  0  0  0
    3.9955   11.0703   28.2246 C   0  0  0  0  0  0  0  0  0  0  0  0
    5.9573   12.5589   26.6850 N   0  0  0  0  0  0  0  0  0  0  0  0
    6.8150   13.2295   25.9125 C   0  0  0  0  0  0  0  0  0  0  0  0
    7.7958   12.6499   25.1136 C   0  0  0  0  0  0  0  0  0  0  0  0
    8.8198   13.4696   24.6025 N   0  0  0  0  0  0  0  0  0  0  0  0
    9.1894   14.5336   25.4671 N   0  0  0  0  0  0  0  0  0  0  0  0
    8.8313   13.6631   23.1217 C   0  0  1  0  0  0  0  0  0  0  0  0
    7.5654   14.3906   22.6605 C   0  0  0  0  0  0  0  0  0  0  0  0
   10.1445   14.3580   22.6895 C   0  0  0  0  0  0  0  0  0  0  0  0
   10.1577   14.9012   21.2702 C   0  0  0  0  0  0  0  0  0  0  0  0
   11.3822   13.5170   22.9502 C   0  0  0  0  0  0  0  0  0  0  0  0
  1  2  1  0
  2  3  1  0
  3  4  2  0
  3  5  1  0
  5  6  2  0
  6  7  1  0
  7  8  1  0
  8  9  1  0
  9 10  1  0
  7 11  2  0
 11 12  1  0
 12 13  2  0
 13 14  1  0
 14 15  1  0
 14 16  1  0
 16 17  1  1
 16 18  1  0
 18 19  1  0
 18 20  1  0
 13  5  1  0
 10  8  1  0
M  END
>  <energy_score>  (563) 
-35.600105

>  <inchikey>  (563) 
None

>  <smiles>  (563) 
None

>  <ref_pdb>  (563) 
A0514a

>  <alias>  (563) 
None

>  <HIPPO Pose ID>  (563) 
498207

>  <name>  (563) 
P498207

>  <HIPPO Compound ID>  (563) 
292569

>  <ref_mols>  (563) 
A4331a,A0514a

>  <distance_score>  (563) 
1.977675

>  <inspiration_score>  (563) 
None

$$$$
P498208
     RDKit          3D

 20 21  0  0  0  0  0  0  0  0999 V2000
    9.4071    8.6052   23.0226 C   0  0  0  0  0  0  0  0  0  0  0  0
    8.5405    9.3644   23.8673 O   0  0  0  0  0  0  0  0  0  0  0  0
    8.9225   10.6514   24.0245 C   0  0  0  0  0  0  0  0  0  0  0  0
    9.9286   11.1480   23.5488 O   0  0  0  0  0  0  0  0  0  0  0  0
    7.9280   11.3920   24.8461 C   0  0  0  0  0  0  0  0  0  0  0  0
    6.9203   10.6991   25.5300 C   0  0  0  0  0  0  0  0  0  0  0  0
    6.0425   11.4092   26.3394 C   0  0  0  0  0  0  0  0  0  0  0  0
    5.1364   10.7400   27.3314 C   0  0  0  0  0  0  0  0  0  0  0  0
    3.9576   11.4881   27.9180 C   0  0  0  0  0  0  0  0  0  0  0  0
    5.1786   11.2663   28.7542 C   0  0  0  0  0  0  0  0  0  0  0  0
    6.0566   12.7594   26.3689 N   0  0  0  0  0  0  0  0  0  0  0  0
    7.0055   13.4076   25.6877 C   0  0  0  0  0  0  0  0  0  0  0  0
    8.0320   12.7834   24.9968 C   0  0  0  0  0  0  0  0  0  0  0  0
    9.1483   13.5309   24.5603 N   0  0  0  0  0  0  0  0  0  0  0  0
    9.7025   14.4462   25.5077 N   0  0  0  0  0  0  0  0  0  0  0  0
    8.9631   14.0318   23.1785 C   0  0  0  0  0  0  0  0  0  0  0  0
   10.2625   14.0078   22.3633 C   0  0  2  0  0  0  0  0  0  0  0  0
   11.5684   14.2357   23.1153 C   0  0  0  0  0  0  0  0  0  0  0  0
   10.1727   14.9672   21.2588 C   0  0  0  0  0  0  0  0  0  0  0  0
   10.1503   15.7211   20.3803 N   0  0  0  0  0  0  0  0  0  0  0  0
  1  2  1  0
  2  3  1  0
  3  4  2  0
  3  5  1  0
  5  6  2  0
  6  7  1  0
  7  8  1  0
  8  9  1  0
  9 10  1  0
  7 11  2  0
 11 12  1  0
 12 13  2  0
 13 14  1  0
 14 15  1  0
 14 16  1  0
 16 17  1  0
 17 18  1  1
 17 19  1  0
 19 20  3  0
 13  5  1  0
 10  8  1  0
M  END
>  <energy_score>  (564) 
-21.041088

>  <inchikey>  (564) 
None

>  <smiles>  (564) 
None

>  <ref_pdb>  (564) 
A0514a

>  <alias>  (564) 
None

>  <HIPPO Pose ID>  (564) 
498208

>  <name>  (564) 
P498208

>  <HIPPO Compound ID>  (564) 
292570

>  <ref_mols>  (564) 
A4331a,A0514a

>  <distance_score>  (564) 
1.512146

>  <inspiration_score>  (564) 
None

$$$$
P498209
     RDKit          3D

 20 21  0  0  0  0  0  0  0  0999 V2000
    9.3456    8.5915   23.0166 C   0  0  0  0  0  0  0  0  0  0  0  0
    8.4858    9.3705   23.8503 O   0  0  0  0  0  0  0  0  0  0  0  0
    8.9267   10.6363   24.0394 C   0  0  0  0  0  0  0  0  0  0  0  0
    9.9708   11.0768   23.5955 O   0  0  0  0  0  0  0  0  0  0  0  0
    7.9636   11.4203   24.8553 C   0  0  0  0  0  0  0  0  0  0  0  0
    6.9261   10.7589   25.5275 C   0  0  0  0  0  0  0  0  0  0  0  0
    6.0771   11.4907   26.3458 C   0  0  0  0  0  0  0  0  0  0  0  0
    5.0866   10.8448   27.2685 C   0  0  0  0  0  0  0  0  0  0  0  0
    5.1293   11.2121   28.7348 C   0  0  0  0  0  0  0  0  0  0  0  0
    3.9944   11.6971   27.8882 C   0  0  0  0  0  0  0  0  0  0  0  0
    6.1698   12.8349   26.4187 N   0  0  0  0  0  0  0  0  0  0  0  0
    7.1457   13.4572   25.7495 C   0  0  0  0  0  0  0  0  0  0  0  0
    8.1301   12.8063   25.0238 C   0  0  0  0  0  0  0  0  0  0  0  0
    9.2719   13.5185   24.5860 N   0  0  0  0  0  0  0  0  0  0  0  0
    9.8313   14.4529   25.5087 N   0  0  0  0  0  0  0  0  0  0  0  0
    9.1095   13.9844   23.1830 C   0  0  0  0  0  0  0  0  0  0  0  0
   10.4340   14.4897   22.6114 C   0  0  1  0  0  0  0  0  0  0  0  0
   11.5497   13.4776   22.6469 C   0  0  0  0  0  0  0  0  0  0  0  0
   10.2428   15.0267   21.2679 C   0  0  0  0  0  0  0  0  0  0  0  0
   10.1250   15.4754   20.2085 N   0  0  0  0  0  0  0  0  0  0  0  0
  1  2  1  0
  2  3  1  0
  3  4  2  0
  3  5  1  0
  5  6  2  0
  6  7  1  0
  7  8  1  0
  8  9  1  0
  9 10  1  0
  7 11  2  0
 11 12  1  0
 12 13  2  0
 13 14  1  0
 14 15  1  0
 14 16  1  0
 16 17  1  0
 17 18  1  6
 17 19  1  0
 19 20  3  0
 13  5  1  0
 10  8  1  0
M  END
>  <energy_score>  (565) 
-32.078382

>  <inchikey>  (565) 
None

>  <smiles>  (565) 
None

>  <ref_pdb>  (565) 
A0514a

>  <alias>  (565) 
None

>  <HIPPO Pose ID>  (565) 
498209

>  <name>  (565) 
P498209

>  <HIPPO Compound ID>  (565) 
292570

>  <ref_mols>  (565) 
A4331a,A0514a

>  <distance_score>  (565) 
1.467933

>  <inspiration_score>  (565) 
None

$$$$
P498210
     RDKit          3D

 20 21  0  0  0  0  0  0  0  0999 V2000
    9.3464    8.3984   22.9245 C   0  0  0  0  0  0  0  0  0  0  0  0
    8.4909    9.1718   23.7566 O   0  0  0  0  0  0  0  0  0  0  0  0
    8.9813   10.4042   23.9849 C   0  0  0  0  0  0  0  0  0  0  0  0
   10.0724   10.8252   23.6346 O   0  0  0  0  0  0  0  0  0  0  0  0
    7.9763   11.2149   24.6974 C   0  0  0  0  0  0  0  0  0  0  0  0
    7.0415   10.6367   25.5560 C   0  0  0  0  0  0  0  0  0  0  0  0
    6.1631   11.4667   26.2435 C   0  0  0  0  0  0  0  0  0  0  0  0
    5.2927   10.9595   27.3593 C   0  0  0  0  0  0  0  0  0  0  0  0
    4.0937   11.7588   27.8209 C   0  0  0  0  0  0  0  0  0  0  0  0
    5.3294   11.7312   28.6657 C   0  0  0  0  0  0  0  0  0  0  0  0
    6.1241   12.7998   26.0057 N   0  0  0  0  0  0  0  0  0  0  0  0
    6.9715   13.3278   25.1065 C   0  0  0  0  0  0  0  0  0  0  0  0
    7.9841   12.5985   24.5028 C   0  0  0  0  0  0  0  0  0  0  0  0
    8.8661   13.1853   23.5240 N   0  0  0  0  0  0  0  0  0  0  0  0
    9.6742   13.5026   24.8425 N   0  0  0  0  0  0  0  0  0  0  0  0
    8.7028   14.4280   22.6634 C   0  0  0  0  0  0  0  0  0  0  0  0
    7.8540   15.2401   22.6552 O   0  0  0  0  0  0  0  0  0  0  0  0
    9.9919   14.4384   21.8492 C   0  0  0  0  0  0  0  0  0  0  0  0
   10.0032   15.7031   20.5878 S   0  0  0  0  0  0  0  0  0  0  0  0
   11.4064   15.0943   19.6446 C   0  0  0  0  0  0  0  0  0  0  0  0
  1  2  1  0
  2  3  1  0
  3  4  2  0
  3  5  1  0
  5  6  2  0
  6  7  1  0
  7  8  1  0
  8  9  1  0
  9 10  1  0
  7 11  2  0
 11 12  1  0
 12 13  2  0
 13 14  1  0
 14 15  1  0
 14 16  1  0
 16 17  2  0
 16 18  1  0
 18 19  1  0
 19 20  1  0
 13  5  1  0
 10  8  1  0
M  END
>  <energy_score>  (566) 
-4.604222

>  <inchikey>  (566) 
None

>  <smiles>  (566) 
None

>  <ref_pdb>  (566) 
A0514a

>  <alias>  (566) 
None

>  <HIPPO Pose ID>  (566) 
498210

>  <name>  (566) 
P498210

>  <HIPPO Compound ID>  (566) 
292571

>  <ref_mols>  (566) 
A4331a,A0514a

>  <distance_score>  (566) 
1.794576

>  <inspiration_score>  (566) 
None

$$$$
P498211
     RDKit          3D

 20 22  0  0  0  0  0  0  0  0999 V2000
    9.7088    8.9329   22.9072 C   0  0  0  0  0  0  0  0  0  0  0  0
    9.1939   10.1160   23.5172 O   0  0  0  0  0  0  0  0  0  0  0  0
    8.2068    9.8667   24.3992 C   0  0  0  0  0  0  0  0  0  0  0  0
    7.8016    8.7661   24.7266 O   0  0  0  0  0  0  0  0  0  0  0  0
    7.6345   11.0781   25.0069 C   0  0  0  0  0  0  0  0  0  0  0  0
    6.5492   10.8420   25.8596 C   0  0  0  0  0  0  0  0  0  0  0  0
    5.9678   11.8991   26.5272 C   0  0  0  0  0  0  0  0  0  0  0  0
    4.8253   11.7006   27.4768 C   0  0  0  0  0  0  0  0  0  0  0  0
    4.7863   12.4859   28.7643 C   0  0  0  0  0  0  0  0  0  0  0  0
    3.8295   12.8248   27.6615 C   0  0  0  0  0  0  0  0  0  0  0  0
    6.4376   13.1521   26.3599 N   0  0  0  0  0  0  0  0  0  0  0  0
    7.4499   13.3654   25.5030 C   0  0  0  0  0  0  0  0  0  0  0  0
    8.1129   12.3729   24.8035 C   0  0  0  0  0  0  0  0  0  0  0  0
    9.1699   12.6748   23.9551 N   0  0  0  0  0  0  0  0  0  0  0  0
    9.2588   13.6829   23.0437 C   0  0  0  0  0  0  0  0  0  0  0  0
   10.3609   13.8892   22.3920 N   0  0  0  0  0  0  0  0  0  0  0  0
   10.1370   14.9592   21.6056 N   0  0  0  0  0  0  0  0  0  0  0  0
   10.9722   15.2036   20.4419 C   0  0  0  0  0  0  0  0  0  0  0  0
    8.7239   15.2168   21.3970 C   0  0  0  0  0  0  0  0  0  0  0  0
    8.1244   14.5800   22.6360 C   0  0  0  0  0  0  0  0  0  0  0  0
  1  2  1  0
  2  3  1  0
  3  4  2  0
  3  5  1  0
  5  6  2  0
  6  7  1  0
  7  8  1  0
  8  9  1  0
  9 10  1  0
  7 11  2  0
 11 12  1  0
 12 13  2  0
 13 14  1  0
 14 15  1  0
 15 16  2  0
 16 17  1  0
 17 18  1  0
 17 19  1  0
 19 20  1  0
 13  5  1  0
 20 15  1  0
 10  8  1  0
M  END
>  <energy_score>  (567) 
-31.550476

>  <inchikey>  (567) 
None

>  <smiles>  (567) 
None

>  <ref_pdb>  (567) 
A0514a

>  <alias>  (567) 
None

>  <HIPPO Pose ID>  (567) 
498211

>  <name>  (567) 
P498211

>  <HIPPO Compound ID>  (567) 
292572

>  <ref_mols>  (567) 
A4331a,A0514a

>  <distance_score>  (567) 
1.938878

>  <inspiration_score>  (567) 
None

$$$$
P498212
     RDKit          3D

 20 21  0  0  0  0  0  0  0  0999 V2000
    9.2539    8.4564   22.9729 C   0  0  0  0  0  0  0  0  0  0  0  0
    8.3977    9.2231   23.8209 O   0  0  0  0  0  0  0  0  0  0  0  0
    8.8671   10.4735   24.0351 C   0  0  0  0  0  0  0  0  0  0  0  0
    9.9194   10.8941   23.5896 O   0  0  0  0  0  0  0  0  0  0  0  0
    7.9194   11.2610   24.8677 C   0  0  0  0  0  0  0  0  0  0  0  0
    6.8940   10.6243   25.5774 C   0  0  0  0  0  0  0  0  0  0  0  0
    6.0818   11.3815   26.4138 C   0  0  0  0  0  0  0  0  0  0  0  0
    5.1152   10.7668   27.3845 C   0  0  0  0  0  0  0  0  0  0  0  0
    3.9263   11.5641   27.8794 C   0  0  0  0  0  0  0  0  0  0  0  0
    5.0926   11.3393   28.7896 C   0  0  0  0  0  0  0  0  0  0  0  0
    6.2055   12.7251   26.4803 N   0  0  0  0  0  0  0  0  0  0  0  0
    7.1807   13.3191   25.7862 C   0  0  0  0  0  0  0  0  0  0  0  0
    8.1021   12.6447   25.0046 C   0  0  0  0  0  0  0  0  0  0  0  0
    9.1743   13.3363   24.4149 N   0  0  0  0  0  0  0  0  0  0  0  0
    9.9341   14.1370   25.2898 N   0  0  0  0  0  0  0  0  0  0  0  0
    8.8315   13.8309   23.0681 C   0  0  0  0  0  0  0  0  0  0  0  0
   10.0523   13.7325   22.1579 C   0  0  0  0  0  0  0  0  0  0  0  0
   10.8515   15.0115   22.0375 C   0  0  0  0  0  0  0  0  0  0  0  0
   12.3027   14.7437   21.7026 C   0  0  0  0  0  0  0  0  0  0  0  0
   10.2040   15.9063   20.9740 C   0  0  0  0  0  0  0  0  0  0  0  0
  1  2  1  0
  2  3  1  0
  3  4  2  0
  3  5  1  0
  5  6  2  0
  6  7  1  0
  7  8  1  0
  8  9  1  0
  9 10  1  0
  7 11  2  0
 11 12  1  0
 12 13  2  0
 13 14  1  0
 14 15  1  0
 14 16  1  0
 16 17  1  0
 17 18  1  0
 18 19  1  0
 18 20  1  0
 13  5  1  0
 10  8  1  0
M  END
>  <energy_score>  (568) 
-30.6581

>  <inchikey>  (568) 
None

>  <smiles>  (568) 
None

>  <ref_pdb>  (568) 
A0514a

>  <alias>  (568) 
None

>  <HIPPO Pose ID>  (568) 
498212

>  <name>  (568) 
P498212

>  <HIPPO Compound ID>  (568) 
292573

>  <ref_mols>  (568) 
A4331a,A0514a

>  <distance_score>  (568) 
1.585932

>  <inspiration_score>  (568) 
None

$$$$
P498213
     RDKit          3D

 20 21  0  0  0  0  0  0  0  0999 V2000
   10.5157   15.4582   20.3315 C   0  0  0  0  0  0  0  0  0  0  0  0
    9.4179   14.8463   20.9987 O   0  0  0  0  0  0  0  0  0  0  0  0
    9.8524   14.2531   22.2137 C   0  0  0  0  0  0  0  0  0  0  0  0
    8.6803   13.6088   22.9739 C   0  0  2  0  0  0  0  0  0  0  0  0
    7.4207   14.4716   22.9133 C   0  0  0  0  0  0  0  0  0  0  0  0
    9.1035   13.2774   24.3613 N   0  0  0  0  0  0  0  0  0  0  0  0
   10.4124   12.8005   24.5198 N   0  0  0  0  0  0  0  0  0  0  0  0
    8.0920   12.6615   25.1220 C   0  0  0  0  0  0  0  0  0  0  0  0
    7.4052   13.5232   25.9761 C   0  0  0  0  0  0  0  0  0  0  0  0
    6.3884   13.1827   26.7803 N   0  0  0  0  0  0  0  0  0  0  0  0
    5.9301   11.9197   26.7327 C   0  0  0  0  0  0  0  0  0  0  0  0
    4.7380   11.5795   27.5725 C   0  0  0  0  0  0  0  0  0  0  0  0
    4.4874   12.3254   28.8595 C   0  0  0  0  0  0  0  0  0  0  0  0
    3.6239   12.6000   27.6658 C   0  0  0  0  0  0  0  0  0  0  0  0
    6.5474   10.9817   25.9303 C   0  0  0  0  0  0  0  0  0  0  0  0
    7.6547   11.3321   25.1325 C   0  0  0  0  0  0  0  0  0  0  0  0
    8.2138   10.1573   24.4278 C   0  0  0  0  0  0  0  0  0  0  0  0
    7.7812    9.0406   24.6828 O   0  0  0  0  0  0  0  0  0  0  0  0
    9.2041   10.4133   23.5530 O   0  0  0  0  0  0  0  0  0  0  0  0
    9.7032    9.2189   22.9377 C   0  0  0  0  0  0  0  0  0  0  0  0
  1  2  1  0
  2  3  1  0
  3  4  1  0
  4  5  1  1
  4  6  1  0
  6  7  1  0
  6  8  1  0
  8  9  2  0
  9 10  1  0
 10 11  2  0
 11 12  1  0
 12 13  1  0
 13 14  1  0
 11 15  1  0
 15 16  2  0
 16 17  1  0
 17 18  2  0
 17 19  1  0
 19 20  1  0
 16  8  1  0
 14 12  1  0
M  END
>  <energy_score>  (569) 
-34.643913

>  <inchikey>  (569) 
None

>  <smiles>  (569) 
None

>  <ref_pdb>  (569) 
A0514a

>  <alias>  (569) 
None

>  <HIPPO Pose ID>  (569) 
498213

>  <name>  (569) 
P498213

>  <HIPPO Compound ID>  (569) 
292574

>  <ref_mols>  (569) 
A4331a,A0514a

>  <distance_score>  (569) 
1.6222

>  <inspiration_score>  (569) 
None

$$$$
P498214
     RDKit          3D

 20 21  0  0  0  0  0  0  0  0999 V2000
   10.6799   15.5120   20.3448 C   0  0  0  0  0  0  0  0  0  0  0  0
    9.5609   15.3058   21.1921 O   0  0  0  0  0  0  0  0  0  0  0  0
    9.8964   14.3739   22.2088 C   0  0  0  0  0  0  0  0  0  0  0  0
    8.7381   14.1616   23.2013 C   0  0  1  0  0  0  0  0  0  0  0  0
    7.3947   14.2109   22.4777 C   0  0  0  0  0  0  0  0  0  0  0  0
    8.9551   12.8781   23.9199 N   0  0  0  0  0  0  0  0  0  0  0  0
   10.2919   12.6234   24.3088 N   0  0  0  0  0  0  0  0  0  0  0  0
    7.9838   12.4723   24.8472 C   0  0  0  0  0  0  0  0  0  0  0  0
    7.3518   13.4007   25.6684 C   0  0  0  0  0  0  0  0  0  0  0  0
    6.4175   13.1181   26.5894 N   0  0  0  0  0  0  0  0  0  0  0  0
    5.9873   11.8498   26.7087 C   0  0  0  0  0  0  0  0  0  0  0  0
    4.9083   11.5754   27.7111 C   0  0  0  0  0  0  0  0  0  0  0  0
    3.6181   12.3547   27.6254 C   0  0  0  0  0  0  0  0  0  0  0  0
    4.5768   12.6340   28.7427 C   0  0  0  0  0  0  0  0  0  0  0  0
    6.5522   10.8475   25.9476 C   0  0  0  0  0  0  0  0  0  0  0  0
    7.5838   11.1455   25.0402 C   0  0  0  0  0  0  0  0  0  0  0  0
    8.1496    9.9481   24.3855 C   0  0  0  0  0  0  0  0  0  0  0  0
    7.7537    8.8417   24.7195 O   0  0  0  0  0  0  0  0  0  0  0  0
    9.1175   10.1771   23.4793 O   0  0  0  0  0  0  0  0  0  0  0  0
    9.6547    8.9807   22.9155 C   0  0  0  0  0  0  0  0  0  0  0  0
  1  2  1  0
  2  3  1  0
  3  4  1  0
  4  5  1  6
  4  6  1  0
  6  7  1  0
  6  8  1  0
  8  9  2  0
  9 10  1  0
 10 11  2  0
 11 12  1  0
 12 13  1  0
 13 14  1  0
 11 15  1  0
 15 16  2  0
 16 17  1  0
 17 18  2  0
 17 19  1  0
 19 20  1  0
 16  8  1  0
 14 12  1  0
M  END
>  <energy_score>  (570) 
-38.301586

>  <inchikey>  (570) 
None

>  <smiles>  (570) 
None

>  <ref_pdb>  (570) 
A0514a

>  <alias>  (570) 
None

>  <HIPPO Pose ID>  (570) 
498214

>  <name>  (570) 
P498214

>  <HIPPO Compound ID>  (570) 
292574

>  <ref_mols>  (570) 
A4331a,A0514a

>  <distance_score>  (570) 
1.426764

>  <inspiration_score>  (570) 
None

$$$$
P498215
     RDKit          3D

 20 21  0  0  0  0  0  0  0  0999 V2000
    9.3866    8.4701   23.1496 C   0  0  0  0  0  0  0  0  0  0  0  0
    8.6316    9.2734   24.0614 O   0  0  0  0  0  0  0  0  0  0  0  0
    8.7659   10.6011   23.8648 C   0  0  0  0  0  0  0  0  0  0  0  0
    9.4402   11.1271   22.9983 O   0  0  0  0  0  0  0  0  0  0  0  0
    7.9535   11.3741   24.8310 C   0  0  0  0  0  0  0  0  0  0  0  0
    6.9186   10.7610   25.5463 C   0  0  0  0  0  0  0  0  0  0  0  0
    6.1821   11.5238   26.4431 C   0  0  0  0  0  0  0  0  0  0  0  0
    5.1514   10.9318   27.3615 C   0  0  0  0  0  0  0  0  0  0  0  0
    3.9450   11.7540   27.7643 C   0  0  0  0  0  0  0  0  0  0  0  0
    5.0387   11.5152   28.7573 C   0  0  0  0  0  0  0  0  0  0  0  0
    6.4178   12.8482   26.5929 N   0  0  0  0  0  0  0  0  0  0  0  0
    7.4052   13.4203   25.8937 C   0  0  0  0  0  0  0  0  0  0  0  0
    8.2366   12.7350   25.0267 C   0  0  0  0  0  0  0  0  0  0  0  0
    9.3317   13.3857   24.4133 N   0  0  0  0  0  0  0  0  0  0  0  0
   10.1712   14.1343   25.2915 N   0  0  0  0  0  0  0  0  0  0  0  0
    8.8760   14.0648   23.1624 C   0  0  0  0  0  0  0  0  0  0  0  0
   10.0406   14.4396   22.2534 C   0  0  0  0  0  0  0  0  0  0  0  0
   11.0177   15.0807   22.9427 F   0  0  0  0  0  0  0  0  0  0  0  0
    9.6251   15.2487   21.2555 F   0  0  0  0  0  0  0  0  0  0  0  0
   10.6110   13.3604   21.7020 F   0  0  0  0  0  0  0  0  0  0  0  0
  1  2  1  0
  2  3  1  0
  3  4  2  0
  3  5  1  0
  5  6  2  0
  6  7  1  0
  7  8  1  0
  8  9  1  0
  9 10  1  0
  7 11  2  0
 11 12  1  0
 12 13  2  0
 13 14  1  0
 14 15  1  0
 14 16  1  0
 16 17  1  0
 17 18  1  0
 17 19  1  0
 17 20  1  0
 13  5  1  0
 10  8  1  0
M  END
>  <energy_score>  (571) 
-25.299423

>  <inchikey>  (571) 
None

>  <smiles>  (571) 
None

>  <ref_pdb>  (571) 
A0514a

>  <alias>  (571) 
None

>  <HIPPO Pose ID>  (571) 
498215

>  <name>  (571) 
P498215

>  <HIPPO Compound ID>  (571) 
292576

>  <ref_mols>  (571) 
A4331a,A0514a

>  <distance_score>  (571) 
1.422731

>  <inspiration_score>  (571) 
None

$$$$
P498216
     RDKit          3D

 20 21  0  0  0  0  0  0  0  0999 V2000
    9.4452    8.7311   23.0572 C   0  0  0  0  0  0  0  0  0  0  0  0
    8.5169    9.4563   23.8658 O   0  0  0  0  0  0  0  0  0  0  0  0
    8.8756   10.7428   24.0923 C   0  0  0  0  0  0  0  0  0  0  0  0
    9.9067   11.2583   23.7023 O   0  0  0  0  0  0  0  0  0  0  0  0
    7.8204   11.4353   24.8812 C   0  0  0  0  0  0  0  0  0  0  0  0
    6.8697   10.6667   25.5712 C   0  0  0  0  0  0  0  0  0  0  0  0
    5.9356   11.3032   26.3768 C   0  0  0  0  0  0  0  0  0  0  0  0
    5.1096   10.5719   27.3917 C   0  0  0  0  0  0  0  0  0  0  0  0
    3.9357   11.2532   28.0631 C   0  0  0  0  0  0  0  0  0  0  0  0
    5.2112   11.0650   28.8231 C   0  0  0  0  0  0  0  0  0  0  0  0
    5.8273   12.6457   26.3899 N   0  0  0  0  0  0  0  0  0  0  0  0
    6.7266   13.3630   25.7104 C   0  0  0  0  0  0  0  0  0  0  0  0
    7.8095   12.8327   25.0226 C   0  0  0  0  0  0  0  0  0  0  0  0
    8.8616   13.6843   24.6078 N   0  0  0  0  0  0  0  0  0  0  0  0
    9.1594   14.7745   25.4847 N   0  0  0  0  0  0  0  0  0  0  0  0
    8.7689   14.0110   23.1600 C   0  0  0  0  0  0  0  0  0  0  0  0
   10.1742   14.2614   22.5912 C   0  0  0  0  0  0  0  0  0  0  0  0
   10.2215   14.6079   21.1683 N   0  0  0  0  0  0  0  0  0  0  0  0
   11.6230   14.6924   20.7440 C   0  0  0  0  0  0  0  0  0  0  0  0
    9.5666   15.8550   20.8095 C   0  0  0  0  0  0  0  0  0  0  0  0
  1  2  1  0
  2  3  1  0
  3  4  2  0
  3  5  1  0
  5  6  2  0
  6  7  1  0
  7  8  1  0
  8  9  1  0
  9 10  1  0
  7 11  2  0
 11 12  1  0
 12 13  2  0
 13 14  1  0
 14 15  1  0
 14 16  1  0
 16 17  1  0
 17 18  1  0
 18 19  1  0
 18 20  1  0
 13  5  1  0
 10  8  1  0
M  END
>  <energy_score>  (572) 
-26.676831

>  <inchikey>  (572) 
None

>  <smiles>  (572) 
None

>  <ref_pdb>  (572) 
A0514a

>  <alias>  (572) 
None

>  <HIPPO Pose ID>  (572) 
498216

>  <name>  (572) 
P498216

>  <HIPPO Compound ID>  (572) 
292577

>  <ref_mols>  (572) 
A4331a,A0514a

>  <distance_score>  (572) 
1.596353

>  <inspiration_score>  (572) 
None

$$$$
P498217
     RDKit          3D

 20 22  0  0  0  0  0  0  0  0999 V2000
    9.6518    8.3416   23.3578 C   0  0  0  0  0  0  0  0  0  0  0  0
    8.7424    9.0802   24.1656 O   0  0  0  0  0  0  0  0  0  0  0  0
    8.7666   10.3821   23.8113 C   0  0  0  0  0  0  0  0  0  0  0  0
    9.3841   10.8294   22.8583 O   0  0  0  0  0  0  0  0  0  0  0  0
    7.9970   11.2109   24.7611 C   0  0  0  0  0  0  0  0  0  0  0  0
    6.9582   10.6573   25.5178 C   0  0  0  0  0  0  0  0  0  0  0  0
    6.2461   11.4815   26.3801 C   0  0  0  0  0  0  0  0  0  0  0  0
    5.2030   10.9616   27.3294 C   0  0  0  0  0  0  0  0  0  0  0  0
    4.0177   11.8320   27.6930 C   0  0  0  0  0  0  0  0  0  0  0  0
    5.1061   11.6140   28.6961 C   0  0  0  0  0  0  0  0  0  0  0  0
    6.5154   12.8055   26.4620 N   0  0  0  0  0  0  0  0  0  0  0  0
    7.4983   13.3145   25.7075 C   0  0  0  0  0  0  0  0  0  0  0  0
    8.3011   12.5728   24.8594 C   0  0  0  0  0  0  0  0  0  0  0  0
    9.3511   13.1965   24.1941 N   0  0  0  0  0  0  0  0  0  0  0  0
   10.6617   12.7118   24.4226 N   0  0  0  0  0  0  0  0  0  0  0  0
    9.0743   14.2133   23.1637 C   0  0  2  0  0  0  0  0  0  0  0  0
    7.6847   14.1849   22.5365 C   0  0  0  0  0  0  0  0  0  0  0  0
   10.1070   14.1433   22.0645 C   0  0  0  0  0  0  0  0  0  0  0  0
   11.4250   14.8706   22.1051 C   0  0  0  0  0  0  0  0  0  0  0  0
   10.3574   15.3034   21.1360 C   0  0  0  0  0  0  0  0  0  0  0  0
  1  2  1  0
  2  3  1  0
  3  4  2  0
  3  5  1  0
  5  6  2  0
  6  7  1  0
  7  8  1  0
  8  9  1  0
  9 10  1  0
  7 11  2  0
 11 12  1  0
 12 13  2  0
 13 14  1  0
 14 15  1  0
 14 16  1  0
 16 17  1  6
 16 18  1  0
 18 19  1  0
 19 20  1  0
 13  5  1  0
 20 18  1  0
 10  8  1  0
M  END
>  <energy_score>  (573) 
-42.491943

>  <inchikey>  (573) 
None

>  <smiles>  (573) 
None

>  <ref_pdb>  (573) 
A0514a

>  <alias>  (573) 
None

>  <HIPPO Pose ID>  (573) 
498217

>  <name>  (573) 
P498217

>  <HIPPO Compound ID>  (573) 
292579

>  <ref_mols>  (573) 
A4331a,A0514a

>  <distance_score>  (573) 
1.724279

>  <inspiration_score>  (573) 
None

$$$$
P498218
     RDKit          3D

 20 22  0  0  0  0  0  0  0  0999 V2000
    9.3109    8.5239   22.9510 C   0  0  0  0  0  0  0  0  0  0  0  0
    8.5096    9.3855   23.7601 O   0  0  0  0  0  0  0  0  0  0  0  0
    9.0632   10.6076   23.9383 C   0  0  0  0  0  0  0  0  0  0  0  0
   10.1435   10.9452   23.4868 O   0  0  0  0  0  0  0  0  0  0  0  0
    8.1861   11.4756   24.7689 C   0  0  0  0  0  0  0  0  0  0  0  0
    7.1196   10.8870   25.4731 C   0  0  0  0  0  0  0  0  0  0  0  0
    6.3326   11.6699   26.3082 C   0  0  0  0  0  0  0  0  0  0  0  0
    5.2810   11.0911   27.2144 C   0  0  0  0  0  0  0  0  0  0  0  0
    4.0839   11.9285   27.6134 C   0  0  0  0  0  0  0  0  0  0  0  0
    5.1685   11.6717   28.6115 C   0  0  0  0  0  0  0  0  0  0  0  0
    6.5490   12.9974   26.4150 N   0  0  0  0  0  0  0  0  0  0  0  0
    7.5552   13.5514   25.7230 C   0  0  0  0  0  0  0  0  0  0  0  0
    8.4321   12.8541   24.9037 C   0  0  0  0  0  0  0  0  0  0  0  0
    9.4642   13.6200   24.3060 N   0  0  0  0  0  0  0  0  0  0  0  0
   10.7714   13.2021   24.7385 N   0  0  0  0  0  0  0  0  0  0  0  0
    9.2651   13.8293   22.8271 C   0  0  1  0  0  0  0  0  0  0  0  0
    7.8246   14.2457   22.4966 C   0  0  0  0  0  0  0  0  0  0  0  0
   10.2789   14.8373   22.3078 C   0  0  0  0  0  0  0  0  0  0  0  0
    9.9923   15.7592   21.1377 C   0  0  0  0  0  0  0  0  0  0  0  0
   10.9846   14.6653   20.9920 C   0  0  0  0  0  0  0  0  0  0  0  0
  1  2  1  0
  2  3  1  0
  3  4  2  0
  3  5  1  0
  5  6  2  0
  6  7  1  0
  7  8  1  0
  8  9  1  0
  9 10  1  0
  7 11  2  0
 11 12  1  0
 12 13  2  0
 13 14  1  0
 14 15  1  0
 14 16  1  0
 16 17  1  1
 16 18  1  0
 18 19  1  0
 19 20  1  0
 13  5  1  0
 20 18  1  0
 10  8  1  0
M  END
>  <energy_score>  (574) 
-48.049774

>  <inchikey>  (574) 
None

>  <smiles>  (574) 
None

>  <ref_pdb>  (574) 
A0514a

>  <alias>  (574) 
None

>  <HIPPO Pose ID>  (574) 
498218

>  <name>  (574) 
P498218

>  <HIPPO Compound ID>  (574) 
292579

>  <ref_mols>  (574) 
A4331a,A0514a

>  <distance_score>  (574) 
1.902193

>  <inspiration_score>  (574) 
None

$$$$
P498219
     RDKit          3D

 20 22  0  0  0  0  0  0  0  0999 V2000
    8.9609    8.1249   22.6430 C   0  0  0  0  0  0  0  0  0  0  0  0
    8.1165    8.9364   23.4474 O   0  0  0  0  0  0  0  0  0  0  0  0
    8.8758    9.7958   24.1391 C   0  0  0  0  0  0  0  0  0  0  0  0
   10.0893    9.7234   24.2260 O   0  0  0  0  0  0  0  0  0  0  0  0
    8.0475   10.8821   24.6820 C   0  0  0  0  0  0  0  0  0  0  0  0
    6.9932   10.5058   25.5258 C   0  0  0  0  0  0  0  0  0  0  0  0
    6.2855   11.4895   26.1907 C   0  0  0  0  0  0  0  0  0  0  0  0
    5.2723   11.1840   27.2597 C   0  0  0  0  0  0  0  0  0  0  0  0
    4.1177   12.1311   27.5031 C   0  0  0  0  0  0  0  0  0  0  0  0
    5.2459   12.0789   28.4857 C   0  0  0  0  0  0  0  0  0  0  0  0
    6.5537   12.7883   25.9592 N   0  0  0  0  0  0  0  0  0  0  0  0
    7.5193   13.1184   25.0773 C   0  0  0  0  0  0  0  0  0  0  0  0
    8.3654   12.2288   24.4264 C   0  0  0  0  0  0  0  0  0  0  0  0
    9.4322   12.6564   23.6186 N   0  0  0  0  0  0  0  0  0  0  0  0
    9.9946   11.7517   22.7073 N   0  0  0  0  0  0  0  0  0  0  0  0
    9.7279   14.0799   23.3940 C   0  0  2  0  0  0  0  0  0  0  0  0
    9.0925   14.5664   22.0863 C   0  0  0  0  0  0  0  0  0  0  0  0
   10.1689   14.7981   21.0420 C   0  0  0  0  0  0  0  0  0  0  0  0
   11.7320   15.0633   21.8671 S   0  0  0  0  0  0  0  0  0  0  0  0
   11.2516   14.2772   23.3991 C   0  0  0  0  0  0  0  0  0  0  0  0
  1  2  1  0
  2  3  1  0
  3  4  2  0
  3  5  1  0
  5  6  2  0
  6  7  1  0
  7  8  1  0
  8  9  1  0
  9 10  1  0
  7 11  2  0
 11 12  1  0
 12 13  2  0
 13 14  1  0
 14 15  1  0
 16 14  1  6
 16 17  1  0
 17 18  1  0
 18 19  1  0
 19 20  1  0
 13  5  1  0
 20 16  1  0
 10  8  1  0
M  END
>  <energy_score>  (575) 
-32.030544

>  <inchikey>  (575) 
None

>  <smiles>  (575) 
None

>  <ref_pdb>  (575) 
A0514a

>  <alias>  (575) 
None

>  <HIPPO Pose ID>  (575) 
498219

>  <name>  (575) 
P498219

>  <HIPPO Compound ID>  (575) 
292581

>  <ref_mols>  (575) 
A4331a,A0514a

>  <distance_score>  (575) 
1.902698

>  <inspiration_score>  (575) 
None

$$$$
P498220
     RDKit          3D

 20 22  0  0  0  0  0  0  0  0999 V2000
    9.3667    8.5549   22.9174 C   0  0  0  0  0  0  0  0  0  0  0  0
    8.5465    9.4320   23.6859 O   0  0  0  0  0  0  0  0  0  0  0  0
    9.1462   10.6109   23.9563 C   0  0  0  0  0  0  0  0  0  0  0  0
   10.2822   10.9159   23.6375 O   0  0  0  0  0  0  0  0  0  0  0  0
    8.2452   11.4904   24.7396 C   0  0  0  0  0  0  0  0  0  0  0  0
    7.1502   10.9135   25.4080 C   0  0  0  0  0  0  0  0  0  0  0  0
    6.3619   11.6998   26.2372 C   0  0  0  0  0  0  0  0  0  0  0  0
    5.2559   11.1325   27.0807 C   0  0  0  0  0  0  0  0  0  0  0  0
    5.1794   11.5190   28.5407 C   0  0  0  0  0  0  0  0  0  0  0  0
    4.1672   12.0640   27.5821 C   0  0  0  0  0  0  0  0  0  0  0  0
    6.6114   13.0189   26.3783 N   0  0  0  0  0  0  0  0  0  0  0  0
    7.6316   13.5626   25.6989 C   0  0  0  0  0  0  0  0  0  0  0  0
    8.5172   12.8585   24.8948 C   0  0  0  0  0  0  0  0  0  0  0  0
    9.6007   13.6005   24.3713 N   0  0  0  0  0  0  0  0  0  0  0  0
   10.8653   13.3319   24.9425 N   0  0  0  0  0  0  0  0  0  0  0  0
    9.5828   13.7460   22.8926 C   0  0  1  0  0  0  0  0  0  0  0  0
    8.3700   14.5610   22.4719 C   0  0  0  0  0  0  0  0  0  0  0  0
    8.6769   15.2697   21.1743 C   0  0  0  0  0  0  0  0  0  0  0  0
   10.4394   15.2714   20.8725 S   0  0  0  0  0  0  0  0  0  0  0  0
   10.8598   14.4248   22.3886 C   0  0  0  0  0  0  0  0  0  0  0  0
  1  2  1  0
  2  3  1  0
  3  4  2  0
  3  5  1  0
  5  6  2  0
  6  7  1  0
  7  8  1  0
  8  9  1  0
  9 10  1  0
  7 11  2  0
 11 12  1  0
 12 13  2  0
 13 14  1  0
 14 15  1  0
 16 14  1  1
 16 17  1  0
 17 18  1  0
 18 19  1  0
 19 20  1  0
 13  5  1  0
 20 16  1  0
 10  8  1  0
M  END
>  <energy_score>  (576) 
-40.385869

>  <inchikey>  (576) 
None

>  <smiles>  (576) 
None

>  <ref_pdb>  (576) 
A0514a

>  <alias>  (576) 
None

>  <HIPPO Pose ID>  (576) 
498220

>  <name>  (576) 
P498220

>  <HIPPO Compound ID>  (576) 
292581

>  <ref_mols>  (576) 
A4331a,A0514a

>  <distance_score>  (576) 
1.860413

>  <inspiration_score>  (576) 
None

$$$$
P498221
     RDKit          3D

 20 22  0  0  0  0  0  0  0  0999 V2000
    9.2444    8.6047   23.0209 C   0  0  0  0  0  0  0  0  0  0  0  0
    8.4648    9.5091   23.8082 O   0  0  0  0  0  0  0  0  0  0  0  0
    9.0474   10.7213   23.9459 C   0  0  0  0  0  0  0  0  0  0  0  0
   10.1515   11.0134   23.5166 O   0  0  0  0  0  0  0  0  0  0  0  0
    8.2162   11.6465   24.7577 C   0  0  0  0  0  0  0  0  0  0  0  0
    7.0867   11.1705   25.4473 C   0  0  0  0  0  0  0  0  0  0  0  0
    6.3473   12.0574   26.2250 C   0  0  0  0  0  0  0  0  0  0  0  0
    5.0926   11.7107   26.9506 C   0  0  0  0  0  0  0  0  0  0  0  0
    5.0271   10.7179   28.0702 C   0  0  0  0  0  0  0  0  0  0  0  0
    4.9670   12.1809   28.3867 C   0  0  0  0  0  0  0  0  0  0  0  0
    6.7026   13.3511   26.3483 N   0  0  0  0  0  0  0  0  0  0  0  0
    7.7380   13.8001   25.6336 C   0  0  0  0  0  0  0  0  0  0  0  0
    8.5580   13.0051   24.8478 C   0  0  0  0  0  0  0  0  0  0  0  0
    9.5942   13.6808   24.1662 N   0  0  0  0  0  0  0  0  0  0  0  0
   10.9440   13.3357   24.4099 N   0  0  0  0  0  0  0  0  0  0  0  0
    9.3655   14.0578   22.8774 C   0  0  0  0  0  0  0  0  0  0  0  0
    8.2580   13.9931   22.1667 N   0  0  0  0  0  0  0  0  0  0  0  0
    8.4890   14.6496   20.9827 N   0  0  0  0  0  0  0  0  0  0  0  0
    9.7235   15.0911   20.9927 C   0  0  0  0  0  0  0  0  0  0  0  0
   10.3295   14.6811   22.1311 N   0  0  0  0  0  0  0  0  0  0  0  0
  1  2  1  0
  2  3  1  0
  3  4  2  0
  3  5  1  0
  5  6  2  0
  6  7  1  0
  7  8  1  0
  8  9  1  0
  9 10  1  0
  7 11  2  0
 11 12  1  0
 12 13  2  0
 13 14  1  0
 14 15  1  0
 14 16  1  0
 16 17  2  0
 17 18  1  0
 18 19  2  0
 19 20  1  0
 13  5  1  0
 20 16  1  0
 10  8  1  0
M  END
>  <energy_score>  (577) 
-36.365744

>  <inchikey>  (577) 
None

>  <smiles>  (577) 
None

>  <ref_pdb>  (577) 
A0514a

>  <alias>  (577) 
None

>  <HIPPO Pose ID>  (577) 
498221

>  <name>  (577) 
P498221

>  <HIPPO Compound ID>  (577) 
292582

>  <ref_mols>  (577) 
A4331a,A0514a

>  <distance_score>  (577) 
1.77048

>  <inspiration_score>  (577) 
None

$$$$
P498222
     RDKit          3D

 20 21  0  0  0  0  0  0  0  0999 V2000
    9.3421    8.5314   23.4007 C   0  0  0  0  0  0  0  0  0  0  0  0
    8.5938    9.3628   24.2947 O   0  0  0  0  0  0  0  0  0  0  0  0
    8.6617   10.6664   23.9400 C   0  0  0  0  0  0  0  0  0  0  0  0
    9.2332   11.0844   22.9494 O   0  0  0  0  0  0  0  0  0  0  0  0
    7.9486   11.5391   24.8959 C   0  0  0  0  0  0  0  0  0  0  0  0
    6.8263   11.0742   25.5891 C   0  0  0  0  0  0  0  0  0  0  0  0
    6.1535   11.9615   26.4228 C   0  0  0  0  0  0  0  0  0  0  0  0
    4.9109   11.6349   27.1768 C   0  0  0  0  0  0  0  0  0  0  0  0
    4.8590   10.5855   28.2444 C   0  0  0  0  0  0  0  0  0  0  0  0
    4.8673   12.0314   28.6385 C   0  0  0  0  0  0  0  0  0  0  0  0
    6.5715   13.2328   26.5958 N   0  0  0  0  0  0  0  0  0  0  0  0
    7.6415   13.6583   25.9187 C   0  0  0  0  0  0  0  0  0  0  0  0
    8.3831   12.8629   25.0630 C   0  0  0  0  0  0  0  0  0  0  0  0
    9.5085   13.3967   24.3893 N   0  0  0  0  0  0  0  0  0  0  0  0
   10.4340   14.1117   25.2054 N   0  0  0  0  0  0  0  0  0  0  0  0
    9.0220   14.0733   23.1608 C   0  0  0  0  0  0  0  0  0  0  0  0
   10.1454   14.6560   22.2993 C   0  0  2  0  0  0  0  0  0  0  0  0
    9.5544   15.1878   21.0037 C   0  0  0  0  0  0  0  0  0  0  0  0
   11.3521   13.7586   22.1266 C   0  0  0  0  0  0  0  0  0  0  0  0
   12.3640   14.1708   23.0678 O   0  0  0  0  0  0  0  0  0  0  0  0
  1  2  1  0
  2  3  1  0
  3  4  2  0
  3  5  1  0
  5  6  2  0
  6  7  1  0
  7  8  1  0
  8  9  1  0
  9 10  1  0
  7 11  2  0
 11 12  1  0
 12 13  2  0
 13 14  1  0
 14 15  1  0
 14 16  1  0
 16 17  1  0
 17 18  1  6
 17 19  1  0
 19 20  1  0
 13  5  1  0
 10  8  1  0
M  END
>  <energy_score>  (578) 
-31.438018

>  <inchikey>  (578) 
None

>  <smiles>  (578) 
None

>  <ref_pdb>  (578) 
A0514a

>  <alias>  (578) 
None

>  <HIPPO Pose ID>  (578) 
498222

>  <name>  (578) 
P498222

>  <HIPPO Compound ID>  (578) 
292583

>  <ref_mols>  (578) 
A4331a,A0514a

>  <distance_score>  (578) 
1.758896

>  <inspiration_score>  (578) 
None

$$$$
P498223
     RDKit          3D

 20 21  0  0  0  0  0  0  0  0999 V2000
    9.4630    8.7158   23.0538 C   0  0  0  0  0  0  0  0  0  0  0  0
    8.5425    9.4384   23.8749 O   0  0  0  0  0  0  0  0  0  0  0  0
    8.8773   10.7358   24.0700 C   0  0  0  0  0  0  0  0  0  0  0  0
    9.8747   11.2751   23.6286 O   0  0  0  0  0  0  0  0  0  0  0  0
    7.8305   11.4137   24.8815 C   0  0  0  0  0  0  0  0  0  0  0  0
    6.8852   10.6369   25.5706 C   0  0  0  0  0  0  0  0  0  0  0  0
    5.9403   11.2642   26.3703 C   0  0  0  0  0  0  0  0  0  0  0  0
    5.0708   10.5231   27.3385 C   0  0  0  0  0  0  0  0  0  0  0  0
    5.2405   10.8207   28.8114 C   0  0  0  0  0  0  0  0  0  0  0  0
    4.0042   11.2827   28.1076 C   0  0  0  0  0  0  0  0  0  0  0  0
    5.8285   12.6049   26.3902 N   0  0  0  0  0  0  0  0  0  0  0  0
    6.7254   13.3312   25.7189 C   0  0  0  0  0  0  0  0  0  0  0  0
    7.8088   12.8100   25.0244 C   0  0  0  0  0  0  0  0  0  0  0  0
    8.8459   13.6738   24.5932 N   0  0  0  0  0  0  0  0  0  0  0  0
    9.1379   14.7533   25.4903 N   0  0  0  0  0  0  0  0  0  0  0  0
    8.6824   14.0534   23.1690 C   0  0  0  0  0  0  0  0  0  0  0  0
   10.0048   14.0999   22.3831 C   0  0  1  0  0  0  0  0  0  0  0  0
    9.8859   15.0732   21.2069 C   0  0  0  0  0  0  0  0  0  0  0  0
   11.2774   14.2491   23.2193 C   0  0  0  0  0  0  0  0  0  0  0  0
   12.3775   14.7362   22.4681 O   0  0  0  0  0  0  0  0  0  0  0  0
  1  2  1  0
  2  3  1  0
  3  4  2  0
  3  5  1  0
  5  6  2  0
  6  7  1  0
  7  8  1  0
  8  9  1  0
  9 10  1  0
  7 11  2  0
 11 12  1  0
 12 13  2  0
 13 14  1  0
 14 15  1  0
 14 16  1  0
 16 17  1  0
 17 18  1  6
 17 19  1  0
 19 20  1  0
 13  5  1  0
 10  8  1  0
M  END
>  <energy_score>  (579) 
-25.727043

>  <inchikey>  (579) 
None

>  <smiles>  (579) 
None

>  <ref_pdb>  (579) 
A0514a

>  <alias>  (579) 
None

>  <HIPPO Pose ID>  (579) 
498223

>  <name>  (579) 
P498223

>  <HIPPO Compound ID>  (579) 
292583

>  <ref_mols>  (579) 
A4331a,A0514a

>  <distance_score>  (579) 
1.702126

>  <inspiration_score>  (579) 
None

$$$$
P498224
     RDKit          3D

 20 21  0  0  0  0  0  0  0  0999 V2000
   10.7837   15.0599   20.3738 C   0  0  0  0  0  0  0  0  0  0  0  0
    9.5519   15.0300   21.2622 C   0  0  0  0  0  0  0  0  0  0  0  0
    9.8232   14.5427   22.6864 C   0  0  2  0  0  0  0  0  0  0  0  0
   11.1295   14.9546   23.1322 O   0  0  0  0  0  0  0  0  0  0  0  0
    9.6665   13.0378   22.9003 C   0  0  0  0  0  0  0  0  0  0  0  0
    9.7694   12.6527   24.3335 N   0  0  0  0  0  0  0  0  0  0  0  0
   10.8282   13.2175   25.0999 N   0  0  0  0  0  0  0  0  0  0  0  0
    8.5169   12.5159   24.9559 C   0  0  0  0  0  0  0  0  0  0  0  0
    7.9273   13.5897   25.6075 C   0  0  0  0  0  0  0  0  0  0  0  0
    6.7478   13.5516   26.2521 N   0  0  0  0  0  0  0  0  0  0  0  0
    6.0670   12.3898   26.2794 C   0  0  0  0  0  0  0  0  0  0  0  0
    4.7582   12.3936   26.9968 C   0  0  0  0  0  0  0  0  0  0  0  0
    4.5791   11.6266   28.2782 C   0  0  0  0  0  0  0  0  0  0  0  0
    4.6678   13.1235   28.3178 C   0  0  0  0  0  0  0  0  0  0  0  0
    6.5685   11.2556   25.6715 C   0  0  0  0  0  0  0  0  0  0  0  0
    7.7909   11.3188   24.9912 C   0  0  0  0  0  0  0  0  0  0  0  0
    8.2266   10.0290   24.4228 C   0  0  0  0  0  0  0  0  0  0  0  0
    7.7109    8.9857   24.7956 O   0  0  0  0  0  0  0  0  0  0  0  0
    9.1650   10.1520   23.4672 O   0  0  0  0  0  0  0  0  0  0  0  0
    9.6166    8.9080   22.9381 C   0  0  0  0  0  0  0  0  0  0  0  0
  1  2  1  0
  2  3  1  0
  3  4  1  6
  3  5  1  0
  5  6  1  0
  6  7  1  0
  6  8  1  0
  8  9  2  0
  9 10  1  0
 10 11  2  0
 11 12  1  0
 12 13  1  0
 13 14  1  0
 11 15  1  0
 15 16  2  0
 16 17  1  0
 17 18  2  0
 17 19  1  0
 19 20  1  0
 16  8  1  0
 14 12  1  0
M  END
>  <energy_score>  (580) 
-38.044663

>  <inchikey>  (580) 
None

>  <smiles>  (580) 
None

>  <ref_pdb>  (580) 
A0514a

>  <alias>  (580) 
None

>  <HIPPO Pose ID>  (580) 
498224

>  <name>  (580) 
P498224

>  <HIPPO Compound ID>  (580) 
292585

>  <ref_mols>  (580) 
A4331a,A0514a

>  <distance_score>  (580) 
1.589853

>  <inspiration_score>  (580) 
None

$$$$
P498225
     RDKit          3D

 20 21  0  0  0  0  0  0  0  0999 V2000
   10.8859   15.2698   20.1009 C   0  0  0  0  0  0  0  0  0  0  0  0
    9.7314   15.1590   21.0811 C   0  0  0  0  0  0  0  0  0  0  0  0
   10.1109   14.2647   22.2571 C   0  0  1  0  0  0  0  0  0  0  0  0
   11.1272   14.8913   23.0714 O   0  0  0  0  0  0  0  0  0  0  0  0
    8.8814   13.9331   23.1241 C   0  0  0  0  0  0  0  0  0  0  0  0
    9.2121   12.8656   24.1073 N   0  0  0  0  0  0  0  0  0  0  0  0
   10.4184   13.0289   24.8559 N   0  0  0  0  0  0  0  0  0  0  0  0
    8.1124   12.4996   24.9040 C   0  0  0  0  0  0  0  0  0  0  0  0
    7.4591   13.4477   25.6827 C   0  0  0  0  0  0  0  0  0  0  0  0
    6.4388   13.1956   26.5195 N   0  0  0  0  0  0  0  0  0  0  0  0
    5.9776   11.9339   26.6170 C   0  0  0  0  0  0  0  0  0  0  0  0
    4.8586   11.6761   27.5812 C   0  0  0  0  0  0  0  0  0  0  0  0
    3.6010   12.5050   27.4857 C   0  0  0  0  0  0  0  0  0  0  0  0
    4.5414   12.7198   28.6323 C   0  0  0  0  0  0  0  0  0  0  0  0
    6.5508   10.9183   25.8780 C   0  0  0  0  0  0  0  0  0  0  0  0
    7.6371   11.1927   25.0308 C   0  0  0  0  0  0  0  0  0  0  0  0
    8.2017    9.9936   24.3850 C   0  0  0  0  0  0  0  0  0  0  0  0
    7.8064    8.8867   24.7227 O   0  0  0  0  0  0  0  0  0  0  0  0
    9.1295   10.2301   23.4388 O   0  0  0  0  0  0  0  0  0  0  0  0
    9.6798    9.0294   22.9000 C   0  0  0  0  0  0  0  0  0  0  0  0
  1  2  1  0
  2  3  1  0
  3  4  1  1
  3  5  1  0
  5  6  1  0
  6  7  1  0
  6  8  1  0
  8  9  2  0
  9 10  1  0
 10 11  2  0
 11 12  1  0
 12 13  1  0
 13 14  1  0
 11 15  1  0
 15 16  2  0
 16 17  1  0
 17 18  2  0
 17 19  1  0
 19 20  1  0
 16  8  1  0
 14 12  1  0
M  END
>  <energy_score>  (581) 
-31.241178

>  <inchikey>  (581) 
None

>  <smiles>  (581) 
None

>  <ref_pdb>  (581) 
A0514a

>  <alias>  (581) 
None

>  <HIPPO Pose ID>  (581) 
498225

>  <name>  (581) 
P498225

>  <HIPPO Compound ID>  (581) 
292585

>  <ref_mols>  (581) 
A4331a,A0514a

>  <distance_score>  (581) 
1.357011

>  <inspiration_score>  (581) 
None

$$$$
P498226
     RDKit          3D

 20 22  0  0  0  0  0  0  0  0999 V2000
    9.1112    8.4557   22.9353 C   0  0  0  0  0  0  0  0  0  0  0  0
    8.3465    9.3905   23.7014 O   0  0  0  0  0  0  0  0  0  0  0  0
    9.0811   10.4860   23.9978 C   0  0  0  0  0  0  0  0  0  0  0  0
   10.2583   10.6097   23.7116 O   0  0  0  0  0  0  0  0  0  0  0  0
    8.2781   11.5313   24.6873 C   0  0  0  0  0  0  0  0  0  0  0  0
    7.0670   11.1761   25.3050 C   0  0  0  0  0  0  0  0  0  0  0  0
    6.3639   12.1424   26.0149 C   0  0  0  0  0  0  0  0  0  0  0  0
    5.0851   11.8926   26.7427 C   0  0  0  0  0  0  0  0  0  0  0  0
    4.9744   10.9266   27.8865 C   0  0  0  0  0  0  0  0  0  0  0  0
    4.9870   12.3976   28.1696 C   0  0  0  0  0  0  0  0  0  0  0  0
    6.8049   13.4123   26.0957 N   0  0  0  0  0  0  0  0  0  0  0  0
    7.9592   13.7335   25.4953 C   0  0  0  0  0  0  0  0  0  0  0  0
    8.7755   12.8446   24.8126 C   0  0  0  0  0  0  0  0  0  0  0  0
   10.0512   13.2598   24.4048 N   0  0  0  0  0  0  0  0  0  0  0  0
   10.7984   14.1212   25.2505 N   0  0  0  0  0  0  0  0  0  0  0  0
   10.3657   13.2263   22.9596 C   0  0  0  0  0  0  0  0  0  0  0  0
   10.3768   14.5979   22.3267 C   0  0  0  0  0  0  0  0  0  0  0  0
    9.1761   15.0008   21.4390 C   0  0  0  0  0  0  0  0  0  0  0  0
   10.1726   15.7622   20.5470 C   0  0  0  0  0  0  0  0  0  0  0  0
   11.2868   14.8718   21.1194 C   0  0  0  0  0  0  0  0  0  0  0  0
  1  2  1  0
  2  3  1  0
  3  4  2  0
  3  5  1  0
  5  6  2  0
  6  7  1  0
  7  8  1  0
  8  9  1  0
  9 10  1  0
  7 11  2  0
 11 12  1  0
 12 13  2  0
 13 14  1  0
 14 15  1  0
 14 16  1  0
 16 17  1  0
 17 18  1  0
 18 19  1  0
 19 20  1  0
 13  5  1  0
 20 17  1  0
 10  8  1  0
M  END
>  <energy_score>  (582) 
-34.026229

>  <inchikey>  (582) 
None

>  <smiles>  (582) 
None

>  <ref_pdb>  (582) 
A0514a

>  <alias>  (582) 
None

>  <HIPPO Pose ID>  (582) 
498226

>  <name>  (582) 
P498226

>  <HIPPO Compound ID>  (582) 
292587

>  <ref_mols>  (582) 
A4331a,A0514a

>  <distance_score>  (582) 
1.699248

>  <inspiration_score>  (582) 
None

$$$$
P498227
     RDKit          3D

 20 22  0  0  0  0  0  0  0  0999 V2000
    9.4541    8.3767   23.3711 C   0  0  0  0  0  0  0  0  0  0  0  0
    8.6591    9.1915   24.2338 O   0  0  0  0  0  0  0  0  0  0  0  0
    8.7370   10.4851   23.8601 C   0  0  0  0  0  0  0  0  0  0  0  0
    9.3002   10.8874   22.8567 O   0  0  0  0  0  0  0  0  0  0  0  0
    8.0611   11.3780   24.8196 C   0  0  0  0  0  0  0  0  0  0  0  0
    6.9138   10.9846   25.5123 C   0  0  0  0  0  0  0  0  0  0  0  0
    6.2712   11.9333   26.3024 C   0  0  0  0  0  0  0  0  0  0  0  0
    5.0007   11.6912   27.0443 C   0  0  0  0  0  0  0  0  0  0  0  0
    4.8889   10.6988   28.1616 C   0  0  0  0  0  0  0  0  0  0  0  0
    4.9348   12.1620   28.4834 C   0  0  0  0  0  0  0  0  0  0  0  0
    6.7423   13.1937   26.4305 N   0  0  0  0  0  0  0  0  0  0  0  0
    7.8428   13.5398   25.7548 C   0  0  0  0  0  0  0  0  0  0  0  0
    8.5583   12.6799   24.9437 C   0  0  0  0  0  0  0  0  0  0  0  0
    9.7127   13.0941   24.2665 N   0  0  0  0  0  0  0  0  0  0  0  0
   10.9025   13.1008   25.0397 N   0  0  0  0  0  0  0  0  0  0  0  0
    9.5194   14.2108   23.3448 C   0  0  0  0  0  0  0  0  0  0  0  0
    8.2932   14.1682   22.4593 C   0  0  0  0  0  0  0  0  0  0  0  0
    8.6577   15.0773   21.2967 C   0  0  0  0  0  0  0  0  0  0  0  0
   10.1700   15.1252   21.1982 C   0  0  0  0  0  0  0  0  0  0  0  0
   10.6827   14.3061   22.3637 C   0  0  0  0  0  0  0  0  0  0  0  0
  1  2  1  0
  2  3  1  0
  3  4  2  0
  3  5  1  0
  5  6  2  0
  6  7  1  0
  7  8  1  0
  8  9  1  0
  9 10  1  0
  7 11  2  0
 11 12  1  0
 12 13  2  0
 13 14  1  0
 14 15  1  0
 14 16  1  0
 16 17  1  0
 17 18  1  0
 18 19  1  0
 19 20  1  0
 13  5  1  0
 20 16  1  0
 10  8  1  0
M  END
>  <energy_score>  (583) 
-57.391228

>  <inchikey>  (583) 
None

>  <smiles>  (583) 
None

>  <ref_pdb>  (583) 
A0514a

>  <alias>  (583) 
None

>  <HIPPO Pose ID>  (583) 
498227

>  <name>  (583) 
P498227

>  <HIPPO Compound ID>  (583) 
292588

>  <ref_mols>  (583) 
A4331a,A0514a

>  <distance_score>  (583) 
1.570875

>  <inspiration_score>  (583) 
None

$$$$
P498228
     RDKit          3D

 20 22  0  0  0  0  0  0  0  0999 V2000
    9.5172    8.5062   23.0228 C   0  0  0  0  0  0  0  0  0  0  0  0
    8.8300    9.4303   23.8595 O   0  0  0  0  0  0  0  0  0  0  0  0
    9.1969   10.7166   23.6793 C   0  0  0  0  0  0  0  0  0  0  0  0
   10.0465   11.1138   22.9056 O   0  0  0  0  0  0  0  0  0  0  0  0
    8.3879   11.6138   24.5264 C   0  0  0  0  0  0  0  0  0  0  0  0
    7.4079   11.0748   25.3798 C   0  0  0  0  0  0  0  0  0  0  0  0
    6.5889   11.9265   26.1070 C   0  0  0  0  0  0  0  0  0  0  0  0
    5.5841   11.4161   27.1070 C   0  0  0  0  0  0  0  0  0  0  0  0
    4.3344   12.2145   27.4045 C   0  0  0  0  0  0  0  0  0  0  0  0
    5.4407   12.1737   28.4126 C   0  0  0  0  0  0  0  0  0  0  0  0
    6.7092   13.2670   25.9739 N   0  0  0  0  0  0  0  0  0  0  0  0
    7.6069   13.7649   25.0987 C   0  0  0  0  0  0  0  0  0  0  0  0
    8.5121   12.9982   24.3906 C   0  0  0  0  0  0  0  0  0  0  0  0
    9.3713   13.6311   23.4781 N   0  0  0  0  0  0  0  0  0  0  0  0
    8.7850   14.4013   22.5115 N   0  0  0  0  0  0  0  0  0  0  0  0
    9.7688   14.9307   21.8482 C   0  0  0  0  0  0  0  0  0  0  0  0
    9.5946   15.9168   20.7651 C   0  0  0  0  0  0  0  0  0  0  0  0
   11.1244   14.5023   22.2861 C   0  0  0  0  0  0  0  0  0  0  0  0
   10.7725   13.7552   23.5231 C   0  0  0  0  0  0  0  0  0  0  0  0
   11.5789   13.4407   24.3797 O   0  0  0  0  0  0  0  0  0  0  0  0
  1  2  1  0
  2  3  1  0
  3  4  2  0
  3  5  1  0
  5  6  2  0
  6  7  1  0
  7  8  1  0
  8  9  1  0
  9 10  1  0
  7 11  2  0
 11 12  1  0
 12 13  2  0
 13 14  1  0
 14 15  1  0
 15 16  2  0
 16 17  1  0
 16 18  1  0
 18 19  1  0
 19 20  2  0
 13  5  1  0
 19 14  1  0
 10  8  1  0
M  END
>  <energy_score>  (584) 
-31.178193

>  <inchikey>  (584) 
None

>  <smiles>  (584) 
None

>  <ref_pdb>  (584) 
A0514a

>  <alias>  (584) 
None

>  <HIPPO Pose ID>  (584) 
498228

>  <name>  (584) 
P498228

>  <HIPPO Compound ID>  (584) 
292589

>  <ref_mols>  (584) 
A4331a,A0514a

>  <distance_score>  (584) 
1.810613

>  <inspiration_score>  (584) 
None

$$$$
P498229
     RDKit          3D

 20 22  0  0  0  0  0  0  0  0999 V2000
    9.4878    8.3750   23.3939 C   0  0  0  0  0  0  0  0  0  0  0  0
    8.6659    9.1769   24.2427 O   0  0  0  0  0  0  0  0  0  0  0  0
    8.7271   10.4678   23.8548 C   0  0  0  0  0  0  0  0  0  0  0  0
    9.2842   10.8643   22.8454 O   0  0  0  0  0  0  0  0  0  0  0  0
    8.0535   11.3644   24.8114 C   0  0  0  0  0  0  0  0  0  0  0  0
    6.9100   10.9738   25.5116 C   0  0  0  0  0  0  0  0  0  0  0  0
    6.2750   11.9241   26.3055 C   0  0  0  0  0  0  0  0  0  0  0  0
    5.0038   11.6885   27.0484 C   0  0  0  0  0  0  0  0  0  0  0  0
    4.8887   10.7025   28.1711 C   0  0  0  0  0  0  0  0  0  0  0  0
    4.9381   12.1672   28.4849 C   0  0  0  0  0  0  0  0  0  0  0  0
    6.7545   13.1808   26.4350 N   0  0  0  0  0  0  0  0  0  0  0  0
    7.8480   13.5266   25.7482 C   0  0  0  0  0  0  0  0  0  0  0  0
    8.5517   12.6666   24.9269 C   0  0  0  0  0  0  0  0  0  0  0  0
    9.6930   13.0815   24.2265 N   0  0  0  0  0  0  0  0  0  0  0  0
   10.8973   13.0834   24.9781 N   0  0  0  0  0  0  0  0  0  0  0  0
    9.4743   14.2072   23.3193 C   0  0  2  0  0  0  0  0  0  0  0  0
    8.2305   14.1953   22.4742 C   0  0  0  0  0  0  0  0  0  0  0  0
    8.6239   15.0999   21.3264 C   0  0  0  0  0  0  0  0  0  0  0  0
   10.0387   15.0765   21.1936 O   0  0  0  0  0  0  0  0  0  0  0  0
   10.5721   14.3226   22.2752 C   0  0  0  0  0  0  0  0  0  0  0  0
  1  2  1  0
  2  3  1  0
  3  4  2  0
  3  5  1  0
  5  6  2  0
  6  7  1  0
  7  8  1  0
  8  9  1  0
  9 10  1  0
  7 11  2  0
 11 12  1  0
 12 13  2  0
 13 14  1  0
 14 15  1  0
 16 14  1  6
 16 17  1  0
 17 18  1  0
 18 19  1  0
 19 20  1  0
 13  5  1  0
 20 16  1  0
 10  8  1  0
M  END
>  <energy_score>  (585) 
-32.055471

>  <inchikey>  (585) 
None

>  <smiles>  (585) 
None

>  <ref_pdb>  (585) 
A0514a

>  <alias>  (585) 
None

>  <HIPPO Pose ID>  (585) 
498229

>  <name>  (585) 
P498229

>  <HIPPO Compound ID>  (585) 
292593

>  <ref_mols>  (585) 
A4331a,A0514a

>  <distance_score>  (585) 
1.759962

>  <inspiration_score>  (585) 
None

$$$$
P498230
     RDKit          3D

 20 22  0  0  0  0  0  0  0  0999 V2000
    9.4879    8.2947   23.4866 C   0  0  0  0  0  0  0  0  0  0  0  0
    8.6070    9.0018   24.3651 O   0  0  0  0  0  0  0  0  0  0  0  0
    8.5360   10.2776   23.9451 C   0  0  0  0  0  0  0  0  0  0  0  0
    9.0127   10.6577   22.8894 O   0  0  0  0  0  0  0  0  0  0  0  0
    7.8817   11.1936   24.8951 C   0  0  0  0  0  0  0  0  0  0  0  0
    6.7270   10.8372   25.5894 C   0  0  0  0  0  0  0  0  0  0  0  0
    6.1209   11.8089   26.3830 C   0  0  0  0  0  0  0  0  0  0  0  0
    4.8709   11.6043   27.1688 C   0  0  0  0  0  0  0  0  0  0  0  0
    4.7663   10.5957   28.2718 C   0  0  0  0  0  0  0  0  0  0  0  0
    4.8871   12.0492   28.6177 C   0  0  0  0  0  0  0  0  0  0  0  0
    6.6244   13.0574   26.4986 N   0  0  0  0  0  0  0  0  0  0  0  0
    7.7426   13.3652   25.8388 C   0  0  0  0  0  0  0  0  0  0  0  0
    8.4341   12.4751   25.0417 C   0  0  0  0  0  0  0  0  0  0  0  0
    9.6478   12.8405   24.4275 N   0  0  0  0  0  0  0  0  0  0  0  0
   10.5904   13.5246   25.2476 N   0  0  0  0  0  0  0  0  0  0  0  0
    9.4068   13.2699   23.0231 C   0  0  2  0  0  0  0  0  0  0  0  0
   10.5988   13.0204   22.1559 C   0  0  0  0  0  0  0  0  0  0  0  0
   11.5541   14.1461   22.4072 C   0  0  0  0  0  0  0  0  0  0  0  0
   10.7269   15.1479   22.9799 O   0  0  0  0  0  0  0  0  0  0  0  0
    9.3425   14.7404   22.8650 C   0  0  0  0  0  0  0  0  0  0  0  0
  1  2  1  0
  2  3  1  0
  3  4  2  0
  3  5  1  0
  5  6  2  0
  6  7  1  0
  7  8  1  0
  8  9  1  0
  9 10  1  0
  7 11  2  0
 11 12  1  0
 12 13  2  0
 13 14  1  0
 14 15  1  0
 16 14  1  1
 16 17  1  0
 17 18  1  0
 18 19  1  0
 19 20  1  0
 13  5  1  0
 20 16  1  0
 10  8  1  0
M  END
>  <energy_score>  (586) 
-22.429116

>  <inchikey>  (586) 
None

>  <smiles>  (586) 
None

>  <ref_pdb>  (586) 
A0514a

>  <alias>  (586) 
None

>  <HIPPO Pose ID>  (586) 
498230

>  <name>  (586) 
P498230

>  <HIPPO Compound ID>  (586) 
292593

>  <ref_mols>  (586) 
A4331a,A0514a

>  <distance_score>  (586) 
1.766725

>  <inspiration_score>  (586) 
None

$$$$
P498231
     RDKit          3D

 20 21  0  0  0  0  0  0  0  0999 V2000
   12.2922   15.2978   21.2352 C   0  0  0  0  0  0  0  0  0  0  0  0
   12.0430   14.3478   22.3707 C   0  0  0  0  0  0  0  0  0  0  0  0
   10.8624   14.7020   23.0793 O   0  0  0  0  0  0  0  0  0  0  0  0
    9.6723   14.4515   22.3041 C   0  0  0  0  0  0  0  0  0  0  0  0
    8.5280   14.1586   23.2710 C   0  0  0  0  0  0  0  0  0  0  0  0
    8.7536   12.8736   23.9724 N   0  0  0  0  0  0  0  0  0  0  0  0
   10.0335   12.6230   24.5354 N   0  0  0  0  0  0  0  0  0  0  0  0
    7.7175   12.4307   24.8045 C   0  0  0  0  0  0  0  0  0  0  0  0
    6.9435   13.3317   25.5275 C   0  0  0  0  0  0  0  0  0  0  0  0
    6.0144   13.0046   26.4380 N   0  0  0  0  0  0  0  0  0  0  0  0
    5.7660   11.7033   26.6666 C   0  0  0  0  0  0  0  0  0  0  0  0
    4.7830   11.3727   27.7473 C   0  0  0  0  0  0  0  0  0  0  0  0
    3.5191   12.1880   27.8753 C   0  0  0  0  0  0  0  0  0  0  0  0
    4.6127   12.3562   28.8871 C   0  0  0  0  0  0  0  0  0  0  0  0
    6.4375   10.7257   25.9614 C   0  0  0  0  0  0  0  0  0  0  0  0
    7.4369   11.0817   25.0416 C   0  0  0  0  0  0  0  0  0  0  0  0
    8.1074    9.9242   24.4116 C   0  0  0  0  0  0  0  0  0  0  0  0
    7.8142    8.7970   24.7811 O   0  0  0  0  0  0  0  0  0  0  0  0
    9.0090   10.2017   23.4485 O   0  0  0  0  0  0  0  0  0  0  0  0
    9.6233    9.0284   22.9122 C   0  0  0  0  0  0  0  0  0  0  0  0
  1  2  1  0
  2  3  1  0
  3  4  1  0
  4  5  1  0
  5  6  1  0
  6  7  1  0
  6  8  1  0
  8  9  2  0
  9 10  1  0
 10 11  2  0
 11 12  1  0
 12 13  1  0
 13 14  1  0
 11 15  1  0
 15 16  2  0
 16 17  1  0
 17 18  2  0
 17 19  1  0
 19 20  1  0
 16  8  1  0
 14 12  1  0
M  END
>  <energy_score>  (587) 
-35.60164

>  <inchikey>  (587) 
None

>  <smiles>  (587) 
None

>  <ref_pdb>  (587) 
A0514a

>  <alias>  (587) 
None

>  <HIPPO Pose ID>  (587) 
498231

>  <name>  (587) 
P498231

>  <HIPPO Compound ID>  (587) 
292594

>  <ref_mols>  (587) 
A4331a,A0514a

>  <distance_score>  (587) 
1.369543

>  <inspiration_score>  (587) 
None

$$$$
P498232
     RDKit          3D

 20 21  0  0  0  0  0  0  0  0999 V2000
    9.0918    8.3486   22.8785 C   0  0  0  0  0  0  0  0  0  0  0  0
    8.2829    9.1979   23.6937 O   0  0  0  0  0  0  0  0  0  0  0  0
    8.9488   10.3293   23.9979 C   0  0  0  0  0  0  0  0  0  0  0  0
   10.1119   10.5458   23.6949 O   0  0  0  0  0  0  0  0  0  0  0  0
    8.0986   11.2864   24.7485 C   0  0  0  0  0  0  0  0  0  0  0  0
    7.0067   10.8666   25.5213 C   0  0  0  0  0  0  0  0  0  0  0  0
    6.3208   11.8194   26.2727 C   0  0  0  0  0  0  0  0  0  0  0  0
    5.0989   11.5581   27.0874 C   0  0  0  0  0  0  0  0  0  0  0  0
    5.0611   10.6384   28.2672 C   0  0  0  0  0  0  0  0  0  0  0  0
    5.0738   12.1185   28.4976 C   0  0  0  0  0  0  0  0  0  0  0  0
    6.7128   13.1102   26.3072 N   0  0  0  0  0  0  0  0  0  0  0  0
    7.7245   13.4925   25.5248 C   0  0  0  0  0  0  0  0  0  0  0  0
    8.4352   12.6458   24.6906 C   0  0  0  0  0  0  0  0  0  0  0  0
    9.4264   13.1360   23.8211 N   0  0  0  0  0  0  0  0  0  0  0  0
   10.7359   13.0952   24.4239 N   0  0  0  0  0  0  0  0  0  0  0  0
    9.0597   14.3405   23.0245 C   0  0  2  0  0  0  0  0  0  0  0  0
    7.7204   14.2126   22.3065 C   0  0  0  0  0  0  0  0  0  0  0  0
   10.2035   14.7109   22.0537 C   0  0  0  0  0  0  0  0  0  0  0  0
   11.3982   14.7094   22.3346 O   0  0  0  0  0  0  0  0  0  0  0  0
    9.8181   15.1161   20.8303 O   0  0  0  0  0  0  0  0  0  0  0  0
  1  2  1  0
  2  3  1  0
  3  4  2  0
  3  5  1  0
  5  6  2  0
  6  7  1  0
  7  8  1  0
  8  9  1  0
  9 10  1  0
  7 11  2  0
 11 12  1  0
 12 13  2  0
 13 14  1  0
 14 15  1  0
 14 16  1  0
 16 17  1  6
 16 18  1  0
 18 19  2  0
 18 20  1  0
 13  5  1  0
 10  8  1  0
M  END
>  <energy_score>  (588) 
-50.673862

>  <inchikey>  (588) 
None

>  <smiles>  (588) 
None

>  <ref_pdb>  (588) 
A0514a

>  <alias>  (588) 
None

>  <HIPPO Pose ID>  (588) 
498232

>  <name>  (588) 
P498232

>  <HIPPO Compound ID>  (588) 
292596

>  <ref_mols>  (588) 
A4331a,A0514a

>  <distance_score>  (588) 
1.602576

>  <inspiration_score>  (588) 
None

$$$$
P498233
     RDKit          3D

 20 21  0  0  0  0  0  0  0  0999 V2000
    9.4165    8.6076   23.0029 C   0  0  0  0  0  0  0  0  0  0  0  0
    8.5029    9.3359   23.8231 O   0  0  0  0  0  0  0  0  0  0  0  0
    8.9151   10.5933   24.0977 C   0  0  0  0  0  0  0  0  0  0  0  0
    9.9781   11.0784   23.7539 O   0  0  0  0  0  0  0  0  0  0  0  0
    7.8737   11.3232   24.8647 C   0  0  0  0  0  0  0  0  0  0  0  0
    6.8995   10.5894   25.5607 C   0  0  0  0  0  0  0  0  0  0  0  0
    5.9913   11.2585   26.3684 C   0  0  0  0  0  0  0  0  0  0  0  0
    5.0783   10.5600   27.3291 C   0  0  0  0  0  0  0  0  0  0  0  0
    5.2136   10.8830   28.8003 C   0  0  0  0  0  0  0  0  0  0  0  0
    4.0114   11.3644   28.0514 C   0  0  0  0  0  0  0  0  0  0  0  0
    5.9582   12.6023   26.4029 N   0  0  0  0  0  0  0  0  0  0  0  0
    6.8700   13.2883   25.7113 C   0  0  0  0  0  0  0  0  0  0  0  0
    7.9093   12.7220   24.9837 C   0  0  0  0  0  0  0  0  0  0  0  0
    8.9518   13.5489   24.4981 N   0  0  0  0  0  0  0  0  0  0  0  0
    9.2741   14.6716   25.3062 N   0  0  0  0  0  0  0  0  0  0  0  0
    8.9479   13.7045   22.9940 C   0  0  1  0  0  0  0  0  0  0  0  0
    7.7464   14.4886   22.4897 C   0  0  0  0  0  0  0  0  0  0  0  0
   10.2861   14.2659   22.4840 C   0  0  0  0  0  0  0  0  0  0  0  0
   10.4804   14.6521   21.3419 O   0  0  0  0  0  0  0  0  0  0  0  0
   11.2463   14.2756   23.4507 O   0  0  0  0  0  0  0  0  0  0  0  0
  1  2  1  0
  2  3  1  0
  3  4  2  0
  3  5  1  0
  5  6  2  0
  6  7  1  0
  7  8  1  0
  8  9  1  0
  9 10  1  0
  7 11  2  0
 11 12  1  0
 12 13  2  0
 13 14  1  0
 14 15  1  0
 14 16  1  0
 16 17  1  1
 16 18  1  0
 18 19  2  0
 18 20  1  0
 13  5  1  0
 10  8  1  0
M  END
>  <energy_score>  (589) 
-62.893667

>  <inchikey>  (589) 
None

>  <smiles>  (589) 
None

>  <ref_pdb>  (589) 
A0514a

>  <alias>  (589) 
None

>  <HIPPO Pose ID>  (589) 
498233

>  <name>  (589) 
P498233

>  <HIPPO Compound ID>  (589) 
292596

>  <ref_mols>  (589) 
A4331a,A0514a

>  <distance_score>  (589) 
1.713992

>  <inspiration_score>  (589) 
None

$$$$
P498234
     RDKit          3D

 20 22  0  0  0  0  0  0  0  0999 V2000
    9.2114    8.5492   23.0277 C   0  0  0  0  0  0  0  0  0  0  0  0
    8.4669    9.4513   23.8511 O   0  0  0  0  0  0  0  0  0  0  0  0
    9.0228   10.6828   23.9172 C   0  0  0  0  0  0  0  0  0  0  0  0
   10.0745   10.9912   23.3815 O   0  0  0  0  0  0  0  0  0  0  0  0
    8.2153   11.6133   24.7493 C   0  0  0  0  0  0  0  0  0  0  0  0
    7.0686   11.1621   25.4252 C   0  0  0  0  0  0  0  0  0  0  0  0
    6.3331   12.0692   26.1833 C   0  0  0  0  0  0  0  0  0  0  0  0
    5.0773   11.7436   26.9178 C   0  0  0  0  0  0  0  0  0  0  0  0
    5.0049   10.7422   28.0301 C   0  0  0  0  0  0  0  0  0  0  0  0
    4.9802   12.2035   28.3594 C   0  0  0  0  0  0  0  0  0  0  0  0
    6.6987   13.3621   26.2848 N   0  0  0  0  0  0  0  0  0  0  0  0
    7.7711   13.7822   25.6070 C   0  0  0  0  0  0  0  0  0  0  0  0
    8.5925   12.9621   24.8515 C   0  0  0  0  0  0  0  0  0  0  0  0
    9.7082   13.5791   24.2471 N   0  0  0  0  0  0  0  0  0  0  0  0
   11.0004   13.1231   24.6386 N   0  0  0  0  0  0  0  0  0  0  0  0
    9.6079   14.0112   22.9409 C   0  0  0  0  0  0  0  0  0  0  0  0
    8.4826   14.0689   22.2488 N   0  0  0  0  0  0  0  0  0  0  0  0
    8.6315   14.7327   21.0523 N   0  0  0  0  0  0  0  0  0  0  0  0
    9.8654   15.1363   20.8555 C   0  0  0  0  0  0  0  0  0  0  0  0
   10.9679   14.6216   22.0448 S   0  0  0  0  0  0  0  0  0  0  0  0
  1  2  1  0
  2  3  1  0
  3  4  2  0
  3  5  1  0
  5  6  2  0
  6  7  1  0
  7  8  1  0
  8  9  1  0
  9 10  1  0
  7 11  2  0
 11 12  1  0
 12 13  2  0
 13 14  1  0
 14 15  1  0
 14 16  1  0
 16 17  2  0
 17 18  1  0
 18 19  2  0
 19 20  1  0
 13  5  1  0
 20 16  1  0
 10  8  1  0
M  END
>  <energy_score>  (590) 
-82.466455

>  <inchikey>  (590) 
None

>  <smiles>  (590) 
None

>  <ref_pdb>  (590) 
A0514a

>  <alias>  (590) 
None

>  <HIPPO Pose ID>  (590) 
498234

>  <name>  (590) 
P498234

>  <HIPPO Compound ID>  (590) 
292597

>  <ref_mols>  (590) 
A4331a,A0514a

>  <distance_score>  (590) 
1.699253

>  <inspiration_score>  (590) 
None

$$$$
P498235
     RDKit          3D

 20 22  0  0  0  0  0  0  0  0999 V2000
    9.3907    8.3916   23.2678 C   0  0  0  0  0  0  0  0  0  0  0  0
    8.6802    9.2967   24.1134 O   0  0  0  0  0  0  0  0  0  0  0  0
    8.8981   10.5864   23.7857 C   0  0  0  0  0  0  0  0  0  0  0  0
    9.5849   10.9646   22.8512 O   0  0  0  0  0  0  0  0  0  0  0  0
    8.2298   11.5116   24.7229 C   0  0  0  0  0  0  0  0  0  0  0  0
    7.0742   11.1087   25.4092 C   0  0  0  0  0  0  0  0  0  0  0  0
    6.4031   12.0423   26.1919 C   0  0  0  0  0  0  0  0  0  0  0  0
    5.1145   11.7774   26.8944 C   0  0  0  0  0  0  0  0  0  0  0  0
    4.9907   10.8204   28.0418 C   0  0  0  0  0  0  0  0  0  0  0  0
    4.9666   12.2944   28.3115 C   0  0  0  0  0  0  0  0  0  0  0  0
    6.8537   13.3073   26.3225 N   0  0  0  0  0  0  0  0  0  0  0  0
    7.9373   13.6777   25.6290 C   0  0  0  0  0  0  0  0  0  0  0  0
    8.6954   12.8288   24.8377 C   0  0  0  0  0  0  0  0  0  0  0  0
    9.8230   13.3874   24.1883 N   0  0  0  0  0  0  0  0  0  0  0  0
   11.0589   12.6921   24.2661 N   0  0  0  0  0  0  0  0  0  0  0  0
    9.6013   14.0280   22.9879 C   0  0  0  0  0  0  0  0  0  0  0  0
    8.4149   14.4160   22.5636 N   0  0  0  0  0  0  0  0  0  0  0  0
    8.5948   15.2175   21.4580 C   0  0  0  0  0  0  0  0  0  0  0  0
    9.7883   15.3582   20.9006 N   0  0  0  0  0  0  0  0  0  0  0  0
   10.8410   14.5141   21.8672 S   0  0  0  0  0  0  0  0  0  0  0  0
  1  2  1  0
  2  3  1  0
  3  4  2  0
  3  5  1  0
  5  6  2  0
  6  7  1  0
  7  8  1  0
  8  9  1  0
  9 10  1  0
  7 11  2  0
 11 12  1  0
 12 13  2  0
 13 14  1  0
 14 15  1  0
 14 16  1  0
 16 17  2  0
 17 18  1  0
 18 19  2  0
 19 20  1  0
 13  5  1  0
 20 16  1  0
 10  8  1  0
M  END
>  <energy_score>  (591) 
-80.606002

>  <inchikey>  (591) 
None

>  <smiles>  (591) 
None

>  <ref_pdb>  (591) 
A0514a

>  <alias>  (591) 
None

>  <HIPPO Pose ID>  (591) 
498235

>  <name>  (591) 
P498235

>  <HIPPO Compound ID>  (591) 
292598

>  <ref_mols>  (591) 
A4331a,A0514a

>  <distance_score>  (591) 
1.662258

>  <inspiration_score>  (591) 
None

$$$$
P498236
     RDKit          3D

 20 21  0  0  0  0  0  0  0  0999 V2000
    9.5274    8.2234   23.5011 C   0  0  0  0  0  0  0  0  0  0  0  0
    8.6228    8.9186   24.3650 O   0  0  0  0  0  0  0  0  0  0  0  0
    8.5484   10.1881   23.9288 C   0  0  0  0  0  0  0  0  0  0  0  0
    9.0396   10.5392   22.8707 O   0  0  0  0  0  0  0  0  0  0  0  0
    7.8857   11.1130   24.8706 C   0  0  0  0  0  0  0  0  0  0  0  0
    6.7379   10.7388   25.5752 C   0  0  0  0  0  0  0  0  0  0  0  0
    6.1404   11.6834   26.4083 C   0  0  0  0  0  0  0  0  0  0  0  0
    4.8855   11.4772   27.1846 C   0  0  0  0  0  0  0  0  0  0  0  0
    4.7483   10.4376   28.2528 C   0  0  0  0  0  0  0  0  0  0  0  0
    4.9083   11.8745   28.6478 C   0  0  0  0  0  0  0  0  0  0  0  0
    6.6595   12.9159   26.5745 N   0  0  0  0  0  0  0  0  0  0  0  0
    7.7628   13.2400   25.9012 C   0  0  0  0  0  0  0  0  0  0  0  0
    8.4322   12.3950   25.0358 C   0  0  0  0  0  0  0  0  0  0  0  0
    9.6009   12.8296   24.4013 N   0  0  0  0  0  0  0  0  0  0  0  0
   10.6365   13.3532   25.1826 N   0  0  0  0  0  0  0  0  0  0  0  0
    9.4950   13.0331   22.9431 C   0  0  0  0  0  0  0  0  0  0  0  0
    9.4743   14.4819   22.4992 C   0  0  0  0  0  0  0  0  0  0  0  0
    8.2006   15.0900   23.1371 C   0  0  0  0  0  0  0  0  0  0  0  0
    9.2302   14.6427   21.0075 C   0  0  0  0  0  0  0  0  0  0  0  0
   10.9235   14.9896   22.6292 C   0  0  0  0  0  0  0  0  0  0  0  0
  1  2  1  0
  2  3  1  0
  3  4  2  0
  3  5  1  0
  5  6  2  0
  6  7  1  0
  7  8  1  0
  8  9  1  0
  9 10  1  0
  7 11  2  0
 11 12  1  0
 12 13  2  0
 13 14  1  0
 14 15  1  0
 14 16  1  0
 16 17  1  0
 17 18  1  0
 17 19  1  0
 17 20  1  0
 13  5  1  0
 10  8  1  0
M  END
>  <energy_score>  (592) 
-21.089113

>  <inchikey>  (592) 
None

>  <smiles>  (592) 
None

>  <ref_pdb>  (592) 
A0514a

>  <alias>  (592) 
None

>  <HIPPO Pose ID>  (592) 
498236

>  <name>  (592) 
P498236

>  <HIPPO Compound ID>  (592) 
292599

>  <ref_mols>  (592) 
A4331a,A0514a

>  <distance_score>  (592) 
1.566014

>  <inspiration_score>  (592) 
None

$$$$
P498237
     RDKit          3D

 20 22  0  0  0  0  0  0  0  0999 V2000
    9.4717    8.9196   23.1327 C   0  0  0  0  0  0  0  0  0  0  0  0
    8.6558    9.7626   23.9530 O   0  0  0  0  0  0  0  0  0  0  0  0
    9.0928   11.0446   24.0513 C   0  0  0  0  0  0  0  0  0  0  0  0
   10.0971   11.4705   23.5077 O   0  0  0  0  0  0  0  0  0  0  0  0
    8.1802   11.8501   24.9237 C   0  0  0  0  0  0  0  0  0  0  0  0
    7.1991   11.1584   25.6572 C   0  0  0  0  0  0  0  0  0  0  0  0
    6.3344   11.8603   26.4833 C   0  0  0  0  0  0  0  0  0  0  0  0
    5.3284   11.1724   27.3624 C   0  0  0  0  0  0  0  0  0  0  0  0
    4.0470   11.8831   27.7389 C   0  0  0  0  0  0  0  0  0  0  0  0
    5.1312   11.7242   28.7593 C   0  0  0  0  0  0  0  0  0  0  0  0
    6.4170   13.2043   26.5873 N   0  0  0  0  0  0  0  0  0  0  0  0
    7.3189   13.8670   25.8456 C   0  0  0  0  0  0  0  0  0  0  0  0
    8.2337   13.2647   24.9973 C   0  0  0  0  0  0  0  0  0  0  0  0
    8.9991   14.1509   24.1615 N   0  0  0  0  0  0  0  0  0  0  0  0
   10.4023   13.9287   24.2870 N   0  0  0  0  0  0  0  0  0  0  0  0
    8.4453   14.4883   22.8246 C   0  0  0  0  0  0  0  0  0  0  0  0
    7.5115   13.4489   22.3439 C   0  0  0  0  0  0  0  0  0  0  0  0
    9.3771   15.0519   21.7410 C   0  0  0  0  0  0  0  0  0  0  0  0
    8.4454   16.1298   21.4833 O   0  0  0  0  0  0  0  0  0  0  0  0
    7.6064   15.7458   22.6100 C   0  0  0  0  0  0  0  0  0  0  0  0
  1  2  1  0
  2  3  1  0
  3  4  2  0
  3  5  1  0
  5  6  2  0
  6  7  1  0
  7  8  1  0
  8  9  1  0
  9 10  1  0
  7 11  2  0
 11 12  1  0
 12 13  2  0
 13 14  1  0
 14 15  1  0
 14 16  1  0
 16 17  1  0
 16 18  1  0
 18 19  1  0
 19 20  1  0
 13  5  1  0
 20 16  1  0
 10  8  1  0
M  END
>  <energy_score>  (593) 
-19.529163

>  <inchikey>  (593) 
None

>  <smiles>  (593) 
None

>  <ref_pdb>  (593) 
A0514a

>  <alias>  (593) 
None

>  <HIPPO Pose ID>  (593) 
498237

>  <name>  (593) 
P498237

>  <HIPPO Compound ID>  (593) 
292601

>  <ref_mols>  (593) 
A4331a,A0514a

>  <distance_score>  (593) 
1.686533

>  <inspiration_score>  (593) 
None

$$$$
P498238
     RDKit          3D

 20 21  0  0  0  0  0  0  0  0999 V2000
   10.5241   15.9476   18.9795 C   0  0  0  0  0  0  0  0  0  0  0  0
   10.7680   15.2542   20.1946 O   0  0  0  0  0  0  0  0  0  0  0  0
    9.6200   15.2075   21.0333 C   0  0  0  0  0  0  0  0  0  0  0  0
   10.0044   14.3260   22.2022 C   0  0  0  0  0  0  0  0  0  0  0  0
    8.8227   13.9528   23.0832 C   0  0  0  0  0  0  0  0  0  0  0  0
    9.2673   13.0338   24.1729 N   0  0  0  0  0  0  0  0  0  0  0  0
   10.3426   13.5405   24.9777 N   0  0  0  0  0  0  0  0  0  0  0  0
    8.1447   12.6251   24.9389 C   0  0  0  0  0  0  0  0  0  0  0  0
    7.4755   13.5564   25.7288 C   0  0  0  0  0  0  0  0  0  0  0  0
    6.4491   13.2833   26.5514 N   0  0  0  0  0  0  0  0  0  0  0  0
    5.9862   12.0205   26.6132 C   0  0  0  0  0  0  0  0  0  0  0  0
    4.8580   11.7359   27.5587 C   0  0  0  0  0  0  0  0  0  0  0  0
    3.5890   12.5451   27.4518 C   0  0  0  0  0  0  0  0  0  0  0  0
    4.5086   12.7639   28.6144 C   0  0  0  0  0  0  0  0  0  0  0  0
    6.5659   11.0245   25.8536 C   0  0  0  0  0  0  0  0  0  0  0  0
    7.6637   11.3137   25.0234 C   0  0  0  0  0  0  0  0  0  0  0  0
    8.2249   10.1101   24.3788 C   0  0  0  0  0  0  0  0  0  0  0  0
    7.8164    9.0038   24.7075 O   0  0  0  0  0  0  0  0  0  0  0  0
    9.1724   10.3452   23.4544 O   0  0  0  0  0  0  0  0  0  0  0  0
    9.6966    9.1376   22.8971 C   0  0  0  0  0  0  0  0  0  0  0  0
  1  2  1  0
  2  3  1  0
  3  4  1  0
  4  5  1  0
  5  6  1  0
  6  7  1  0
  6  8  1  0
  8  9  2  0
  9 10  1  0
 10 11  2  0
 11 12  1  0
 12 13  1  0
 13 14  1  0
 11 15  1  0
 15 16  2  0
 16 17  1  0
 17 18  2  0
 17 19  1  0
 19 20  1  0
 16  8  1  0
 14 12  1  0
M  END
>  <energy_score>  (594) 
-25.19316

>  <inchikey>  (594) 
None

>  <smiles>  (594) 
None

>  <ref_pdb>  (594) 
A0514a

>  <alias>  (594) 
None

>  <HIPPO Pose ID>  (594) 
498238

>  <name>  (594) 
P498238

>  <HIPPO Compound ID>  (594) 
292603

>  <ref_mols>  (594) 
A4331a,A0514a

>  <distance_score>  (594) 
1.680436

>  <inspiration_score>  (594) 
None

$$$$
P498239
     RDKit          3D

 20 22  0  0  0  0  0  0  0  0999 V2000
    9.3490    8.5047   23.3776 C   0  0  0  0  0  0  0  0  0  0  0  0
    8.6028    9.3477   24.2630 O   0  0  0  0  0  0  0  0  0  0  0  0
    8.6995   10.6501   23.9153 C   0  0  0  0  0  0  0  0  0  0  0  0
    9.3061   11.0668   22.9446 O   0  0  0  0  0  0  0  0  0  0  0  0
    7.9733   11.5340   24.8515 C   0  0  0  0  0  0  0  0  0  0  0  0
    6.8443   11.0834   25.5422 C   0  0  0  0  0  0  0  0  0  0  0  0
    6.1640   11.9885   26.3507 C   0  0  0  0  0  0  0  0  0  0  0  0
    4.9281   11.6729   27.1210 C   0  0  0  0  0  0  0  0  0  0  0  0
    4.8829   10.6371   28.2025 C   0  0  0  0  0  0  0  0  0  0  0  0
    4.9008   12.0877   28.5783 C   0  0  0  0  0  0  0  0  0  0  0  0
    6.5709   13.2687   26.4849 N   0  0  0  0  0  0  0  0  0  0  0  0
    7.6434   13.6823   25.8059 C   0  0  0  0  0  0  0  0  0  0  0  0
    8.4100   12.8600   25.0004 C   0  0  0  0  0  0  0  0  0  0  0  0
    9.5895   13.3478   24.3852 N   0  0  0  0  0  0  0  0  0  0  0  0
   10.4750   14.0736   25.2359 N   0  0  0  0  0  0  0  0  0  0  0  0
    9.2130   14.0172   23.1084 C   0  0  0  0  0  0  0  0  0  0  0  0
   10.3780   14.0797   22.1459 C   0  0  0  0  0  0  0  0  0  0  0  0
   10.3688   15.1976   21.0959 C   0  0  0  0  0  0  0  0  0  0  0  0
   11.7737   15.4686   21.3361 O   0  0  0  0  0  0  0  0  0  0  0  0
   11.7258   14.6782   22.5378 C   0  0  0  0  0  0  0  0  0  0  0  0
  1  2  1  0
  2  3  1  0
  3  4  2  0
  3  5  1  0
  5  6  2  0
  6  7  1  0
  7  8  1  0
  8  9  1  0
  9 10  1  0
  7 11  2  0
 11 12  1  0
 12 13  2  0
 13 14  1  0
 14 15  1  0
 14 16  1  0
 16 17  1  0
 17 18  1  0
 18 19  1  0
 19 20  1  0
 13  5  1  0
 20 17  1  0
 10  8  1  0
M  END
>  <energy_score>  (595) 
-40.933016

>  <inchikey>  (595) 
None

>  <smiles>  (595) 
None

>  <ref_pdb>  (595) 
A0514a

>  <alias>  (595) 
None

>  <HIPPO Pose ID>  (595) 
498239

>  <name>  (595) 
P498239

>  <HIPPO Compound ID>  (595) 
292604

>  <ref_mols>  (595) 
A4331a,A0514a

>  <distance_score>  (595) 
1.593626

>  <inspiration_score>  (595) 
None

$$$$
P498240
     RDKit          3D

 20 22  0  0  0  0  0  0  0  0999 V2000
    9.3420    8.5522   23.0953 C   0  0  0  0  0  0  0  0  0  0  0  0
    8.5273    9.3837   23.9281 O   0  0  0  0  0  0  0  0  0  0  0  0
    8.7048   10.7148   23.7527 C   0  0  0  0  0  0  0  0  0  0  0  0
    9.5036   11.2001   22.9782 O   0  0  0  0  0  0  0  0  0  0  0  0
    7.8248   11.5022   24.6540 C   0  0  0  0  0  0  0  0  0  0  0  0
    7.0641   10.8067   25.6110 C   0  0  0  0  0  0  0  0  0  0  0  0
    6.2908   11.5076   26.5242 C   0  0  0  0  0  0  0  0  0  0  0  0
    5.3736   10.8326   27.5010 C   0  0  0  0  0  0  0  0  0  0  0  0
    5.3346   11.3128   28.9320 C   0  0  0  0  0  0  0  0  0  0  0  0
    4.1834   11.6158   28.0243 C   0  0  0  0  0  0  0  0  0  0  0  0
    6.3444   12.8508   26.5793 N   0  0  0  0  0  0  0  0  0  0  0  0
    6.9748   13.4987   25.5886 C   0  0  0  0  0  0  0  0  0  0  0  0
    7.6859   12.8970   24.5553 C   0  0  0  0  0  0  0  0  0  0  0  0
    7.9734   13.6822   23.4117 N   0  0  0  0  0  0  0  0  0  0  0  0
    6.9511   14.6069   23.0473 N   0  0  0  0  0  0  0  0  0  0  0  0
    9.1820   14.0155   22.8672 C   0  0  0  0  0  0  0  0  0  0  0  0
    9.3728   14.5577   21.6034 C   0  0  0  0  0  0  0  0  0  0  0  0
   10.7297   14.8317   21.2901 C   0  0  0  0  0  0  0  0  0  0  0  0
   11.5542   14.5080   22.3354 C   0  0  0  0  0  0  0  0  0  0  0  0
   10.6994   13.8749   23.6710 S   0  0  0  0  0  0  0  0  0  0  0  0
  1  2  1  0
  2  3  1  0
  3  4  2  0
  3  5  1  0
  5  6  2  0
  6  7  1  0
  7  8  1  0
  8  9  1  0
  9 10  1  0
  7 11  2  0
 11 12  1  0
 12 13  2  0
 13 14  1  0
 14 15  1  0
 14 16  1  0
 16 17  2  0
 17 18  1  0
 18 19  2  0
 19 20  1  0
 13  5  1  0
 20 16  1  0
 10  8  1  0
M  END
>  <energy_score>  (596) 
-41.668409

>  <inchikey>  (596) 
None

>  <smiles>  (596) 
None

>  <ref_pdb>  (596) 
A0514a

>  <alias>  (596) 
None

>  <HIPPO Pose ID>  (596) 
498240

>  <name>  (596) 
P498240

>  <HIPPO Compound ID>  (596) 
292605

>  <ref_mols>  (596) 
A4331a,A0514a

>  <distance_score>  (596) 
1.994745

>  <inspiration_score>  (596) 
None

$$$$
P498241
     RDKit          3D

 20 21  0  0  0  0  0  0  0  0999 V2000
   11.1343   14.4700   22.7853 C   0  0  0  0  0  0  0  0  0  0  0  0
    9.6576   14.5462   22.4242 C   0  0  0  0  0  0  0  0  0  0  0  0
    8.5358   14.2095   23.4809 C   0  0  0  0  0  0  0  0  0  0  0  0
    7.7025   15.3993   24.0079 C   0  0  0  0  0  0  0  0  0  0  0  0
    7.5266   13.4536   22.6556 C   0  0  0  0  0  0  0  0  0  0  0  0
    9.0468   13.3066   24.5930 N   0  0  0  0  0  0  0  0  0  0  0  0
   10.1189   13.8545   25.3595 N   0  0  0  0  0  0  0  0  0  0  0  0
    8.0160   12.7031   25.3668 C   0  0  0  0  0  0  0  0  0  0  0  0
    7.3564   13.4693   26.3278 C   0  0  0  0  0  0  0  0  0  0  0  0
    6.3446   13.0657   27.1052 N   0  0  0  0  0  0  0  0  0  0  0  0
    5.8556   11.8287   26.9321 C   0  0  0  0  0  0  0  0  0  0  0  0
    4.6730   11.4400   27.7613 C   0  0  0  0  0  0  0  0  0  0  0  0
    3.4045   12.2514   27.6333 C   0  0  0  0  0  0  0  0  0  0  0  0
    4.2278   12.3612   28.8786 C   0  0  0  0  0  0  0  0  0  0  0  0
    6.4459   10.9677   26.0321 C   0  0  0  0  0  0  0  0  0  0  0  0
    7.5568   11.3810   25.2665 C   0  0  0  0  0  0  0  0  0  0  0  0
    8.1351   10.2615   24.4934 C   0  0  0  0  0  0  0  0  0  0  0  0
    7.6902    9.1307   24.6508 O   0  0  0  0  0  0  0  0  0  0  0  0
    9.1622   10.5790   23.6874 O   0  0  0  0  0  0  0  0  0  0  0  0
    9.7028    9.4323   23.0223 C   0  0  0  0  0  0  0  0  0  0  0  0
  1  2  1  0
  2  3  1  0
  3  4  1  0
  3  5  1  0
  3  6  1  0
  6  7  1  0
  6  8  1  0
  8  9  2  0
  9 10  1  0
 10 11  2  0
 11 12  1  0
 12 13  1  0
 13 14  1  0
 11 15  1  0
 15 16  2  0
 16 17  1  0
 17 18  2  0
 17 19  1  0
 19 20  1  0
 16  8  1  0
 14 12  1  0
M  END
>  <energy_score>  (597) 
-26.452558

>  <inchikey>  (597) 
None

>  <smiles>  (597) 
None

>  <ref_pdb>  (597) 
A0514a

>  <alias>  (597) 
None

>  <HIPPO Pose ID>  (597) 
498241

>  <name>  (597) 
P498241

>  <HIPPO Compound ID>  (597) 
292606

>  <ref_mols>  (597) 
A4331a,A0514a

>  <distance_score>  (597) 
1.898227

>  <inspiration_score>  (597) 
None

$$$$
P498242
     RDKit          3D

 20 22  0  0  0  0  0  0  0  0999 V2000
    9.3334    8.5644   22.9564 C   0  0  0  0  0  0  0  0  0  0  0  0
    8.4794    9.4120   23.7228 O   0  0  0  0  0  0  0  0  0  0  0  0
    9.0399   10.6109   24.0031 C   0  0  0  0  0  0  0  0  0  0  0  0
   10.1688   10.9412   23.6833 O   0  0  0  0  0  0  0  0  0  0  0  0
    8.0921   11.4664   24.7605 C   0  0  0  0  0  0  0  0  0  0  0  0
    7.0662   10.8458   25.4921 C   0  0  0  0  0  0  0  0  0  0  0  0
    6.2392   11.6180   26.2962 C   0  0  0  0  0  0  0  0  0  0  0  0
    5.2065   11.0171   27.2055 C   0  0  0  0  0  0  0  0  0  0  0  0
    5.1985   11.4259   28.6608 C   0  0  0  0  0  0  0  0  0  0  0  0
    4.1071   11.9065   27.7562 C   0  0  0  0  0  0  0  0  0  0  0  0
    6.3851   12.9583   26.3529 N   0  0  0  0  0  0  0  0  0  0  0  0
    7.3485   13.5411   25.6245 C   0  0  0  0  0  0  0  0  0  0  0  0
    8.2526   12.8609   24.8248 C   0  0  0  0  0  0  0  0  0  0  0  0
    9.2468   13.6486   24.2019 N   0  0  0  0  0  0  0  0  0  0  0  0
   10.5169   13.5200   24.8373 N   0  0  0  0  0  0  0  0  0  0  0  0
    9.2079   13.5388   22.7283 C   0  0  0  0  0  0  0  0  0  0  0  0
    9.5473   14.8239   22.0560 C   0  0  2  0  0  0  0  0  0  0  0  0
   10.1436   14.8101   20.6774 C   0  0  0  0  0  0  0  0  0  0  0  0
   10.9668   15.3131   21.8003 C   0  0  2  0  0  0  0  0  0  0  0  0
   12.1934   14.5676   22.1631 C   0  0  0  0  0  0  0  0  0  0  0  0
  1  2  1  0
  2  3  1  0
  3  4  2  0
  3  5  1  0
  5  6  2  0
  6  7  1  0
  7  8  1  0
  8  9  1  0
  9 10  1  0
  7 11  2  0
 11 12  1  0
 12 13  2  0
 13 14  1  0
 14 15  1  0
 14 16  1  0
 17 16  1  1
 17 18  1  0
 18 19  1  0
 19 20  1  1
 13  5  1  0
 19 17  1  0
 10  8  1  0
M  END
>  <energy_score>  (598) 
-39.795319

>  <inchikey>  (598) 
None

>  <smiles>  (598) 
None

>  <ref_pdb>  (598) 
A0514a

>  <alias>  (598) 
None

>  <HIPPO Pose ID>  (598) 
498242

>  <name>  (598) 
P498242

>  <HIPPO Compound ID>  (598) 
292608

>  <ref_mols>  (598) 
A4331a,A0514a

>  <distance_score>  (598) 
1.625034

>  <inspiration_score>  (598) 
None

$$$$
P498243
     RDKit          3D

 20 22  0  0  0  0  0  0  0  0999 V2000
    9.2758    8.4587   22.9434 C   0  0  0  0  0  0  0  0  0  0  0  0
    8.4348    9.2635   23.7682 O   0  0  0  0  0  0  0  0  0  0  0  0
    8.9420   10.4997   23.9711 C   0  0  0  0  0  0  0  0  0  0  0  0
   10.0181   10.8866   23.5501 O   0  0  0  0  0  0  0  0  0  0  0  0
    8.0114   11.3196   24.7884 C   0  0  0  0  0  0  0  0  0  0  0  0
    6.9847   10.7223   25.5285 C   0  0  0  0  0  0  0  0  0  0  0  0
    6.2042   11.5192   26.3579 C   0  0  0  0  0  0  0  0  0  0  0  0
    5.2032   10.9492   27.3233 C   0  0  0  0  0  0  0  0  0  0  0  0
    4.0063   11.7748   27.7461 C   0  0  0  0  0  0  0  0  0  0  0  0
    5.1365   11.5712   28.7057 C   0  0  0  0  0  0  0  0  0  0  0  0
    6.3853   12.8593   26.4118 N   0  0  0  0  0  0  0  0  0  0  0  0
    7.3526   13.4190   25.6752 C   0  0  0  0  0  0  0  0  0  0  0  0
    8.2197   12.7027   24.8720 C   0  0  0  0  0  0  0  0  0  0  0  0
    9.2680   13.3452   24.1909 N   0  0  0  0  0  0  0  0  0  0  0  0
   10.2388   13.9766   25.0208 N   0  0  0  0  0  0  0  0  0  0  0  0
    8.7753   14.0574   22.9976 C   0  0  0  0  0  0  0  0  0  0  0  0
    9.8628   14.1153   21.9710 C   0  0  1  0  0  0  0  0  0  0  0  0
    9.9889   15.3112   21.0557 C   0  0  0  0  0  0  0  0  0  0  0  0
   11.0456   15.0260   22.0852 C   0  0  2  0  0  0  0  0  0  0  0  0
   12.3837   14.5597   21.7017 C   0  0  0  0  0  0  0  0  0  0  0  0
  1  2  1  0
  2  3  1  0
  3  4  2  0
  3  5  1  0
  5  6  2  0
  6  7  1  0
  7  8  1  0
  8  9  1  0
  9 10  1  0
  7 11  2  0
 11 12  1  0
 12 13  2  0
 13 14  1  0
 14 15  1  0
 14 16  1  0
 17 16  1  1
 17 18  1  0
 18 19  1  0
 19 20  1  6
 13  5  1  0
 19 17  1  0
 10  8  1  0
M  END
>  <energy_score>  (599) 
-29.17369

>  <inchikey>  (599) 
None

>  <smiles>  (599) 
None

>  <ref_pdb>  (599) 
A0514a

>  <alias>  (599) 
None

>  <HIPPO Pose ID>  (599) 
498243

>  <name>  (599) 
P498243

>  <HIPPO Compound ID>  (599) 
292608

>  <ref_mols>  (599) 
A4331a,A0514a

>  <distance_score>  (599) 
1.566845

>  <inspiration_score>  (599) 
None

$$$$
P498244
     RDKit          3D

 20 22  0  0  0  0  0  0  0  0999 V2000
    9.2598    8.4071   22.9326 C   0  0  0  0  0  0  0  0  0  0  0  0
    8.4459    9.2022   23.7936 O   0  0  0  0  0  0  0  0  0  0  0  0
    8.9315   10.4542   23.9485 C   0  0  0  0  0  0  0  0  0  0  0  0
    9.9629   10.8600   23.4439 O   0  0  0  0  0  0  0  0  0  0  0  0
    8.0243   11.2663   24.8015 C   0  0  0  0  0  0  0  0  0  0  0  0
    6.9631   10.6753   25.4980 C   0  0  0  0  0  0  0  0  0  0  0  0
    6.1826   11.4653   26.3343 C   0  0  0  0  0  0  0  0  0  0  0  0
    5.1275   10.8956   27.2381 C   0  0  0  0  0  0  0  0  0  0  0  0
    5.1178   11.3145   28.6914 C   0  0  0  0  0  0  0  0  0  0  0  0
    4.0470   11.8177   27.7750 C   0  0  0  0  0  0  0  0  0  0  0  0
    6.3913   12.7973   26.4348 N   0  0  0  0  0  0  0  0  0  0  0  0
    7.4004   13.3479   25.7503 C   0  0  0  0  0  0  0  0  0  0  0  0
    8.2791   12.6348   24.9553 C   0  0  0  0  0  0  0  0  0  0  0  0
    9.4000   13.2601   24.3905 N   0  0  0  0  0  0  0  0  0  0  0  0
   10.2806   13.8640   25.3187 N   0  0  0  0  0  0  0  0  0  0  0  0
    9.0933   13.9228   23.1094 C   0  0  0  0  0  0  0  0  0  0  0  0
   10.3044   13.9259   22.2306 C   0  0  2  0  0  0  0  0  0  0  0  0
   11.5418   14.7275   22.5164 C   0  0  0  0  0  0  0  0  0  0  0  0
   10.6318   15.1395   21.3881 C   0  0  1  0  0  0  0  0  0  0  0  0
   11.1992   15.0611   20.0212 C   0  0  0  0  0  0  0  0  0  0  0  0
  1  2  1  0
  2  3  1  0
  3  4  2  0
  3  5  1  0
  5  6  2  0
  6  7  1  0
  7  8  1  0
  8  9  1  0
  9 10  1  0
  7 11  2  0
 11 12  1  0
 12 13  2  0
 13 14  1  0
 14 15  1  0
 14 16  1  0
 17 16  1  1
 17 18  1  0
 18 19  1  0
 19 20  1  6
 13  5  1  0
 19 17  1  0
 10  8  1  0
M  END
>  <energy_score>  (600) 
-37.018954

>  <inchikey>  (600) 
None

>  <smiles>  (600) 
None

>  <ref_pdb>  (600) 
A0514a

>  <alias>  (600) 
None

>  <HIPPO Pose ID>  (600) 
498244

>  <name>  (600) 
P498244

>  <HIPPO Compound ID>  (600) 
292608

>  <ref_mols>  (600) 
A4331a,A0514a

>  <distance_score>  (600) 
1.67034

>  <inspiration_score>  (600) 
None

$$$$
P498245
     RDKit          3D

 20 22  0  0  0  0  0  0  0  0999 V2000
    9.2882    8.4655   22.9439 C   0  0  0  0  0  0  0  0  0  0  0  0
    8.4483    9.2706   23.7709 O   0  0  0  0  0  0  0  0  0  0  0  0
    8.9456   10.5113   23.9634 C   0  0  0  0  0  0  0  0  0  0  0  0
   10.0147   10.9121   23.5368 O   0  0  0  0  0  0  0  0  0  0  0  0
    8.0126   11.3245   24.7862 C   0  0  0  0  0  0  0  0  0  0  0  0
    6.9829   10.7230   25.5185 C   0  0  0  0  0  0  0  0  0  0  0  0
    6.2048   11.5129   26.3576 C   0  0  0  0  0  0  0  0  0  0  0  0
    5.2001   10.9339   27.3139 C   0  0  0  0  0  0  0  0  0  0  0  0
    4.0084   11.7608   27.7498 C   0  0  0  0  0  0  0  0  0  0  0  0
    5.1366   11.5337   28.7062 C   0  0  0  0  0  0  0  0  0  0  0  0
    6.3907   12.8519   26.4326 N   0  0  0  0  0  0  0  0  0  0  0  0
    7.3578   13.4156   25.6983 C   0  0  0  0  0  0  0  0  0  0  0  0
    8.2221   12.7060   24.8852 C   0  0  0  0  0  0  0  0  0  0  0  0
    9.2692   13.3564   24.2107 N   0  0  0  0  0  0  0  0  0  0  0  0
   10.2339   13.9872   25.0465 N   0  0  0  0  0  0  0  0  0  0  0  0
    8.7797   14.0597   23.0113 C   0  0  0  0  0  0  0  0  0  0  0  0
    9.8672   14.1084   21.9847 C   0  0  1  0  0  0  0  0  0  0  0  0
    9.9905   15.2946   21.0555 C   0  0  0  0  0  0  0  0  0  0  0  0
   11.0490   15.0217   22.0856 C   0  0  2  0  0  0  0  0  0  0  0  0
   12.3862   14.5518   21.7055 C   0  0  0  0  0  0  0  0  0  0  0  0
  1  2  1  0
  2  3  1  0
  3  4  2  0
  3  5  1  0
  5  6  2  0
  6  7  1  0
  7  8  1  0
  8  9  1  0
  9 10  1  0
  7 11  2  0
 11 12  1  0
 12 13  2  0
 13 14  1  0
 14 15  1  0
 14 16  1  0
 17 16  1  1
 17 18  1  0
 18 19  1  0
 19 20  1  6
 13  5  1  0
 19 17  1  0
 10  8  1  0
M  END
>  <energy_score>  (601) 
-35.528189

>  <inchikey>  (601) 
None

>  <smiles>  (601) 
None

>  <ref_pdb>  (601) 
A0514a

>  <alias>  (601) 
None

>  <HIPPO Pose ID>  (601) 
498245

>  <name>  (601) 
P498245

>  <HIPPO Compound ID>  (601) 
292608

>  <ref_mols>  (601) 
A4331a,A0514a

>  <distance_score>  (601) 
1.620548

>  <inspiration_score>  (601) 
None

$$$$
P498246
     RDKit          3D

 20 21  0  0  0  0  0  0  0  0999 V2000
   12.7259   15.2639   21.6810 C   0  0  0  0  0  0  0  0  0  0  0  0
   11.9297   14.5259   22.1838 C   0  0  0  0  0  0  0  0  0  0  0  0
   10.9456   13.5865   22.7065 C   0  0  0  0  0  0  0  0  0  0  0  0
    9.5526   14.1312   22.4565 C   0  0  0  0  0  0  0  0  0  0  0  0
    8.4544   13.4539   23.2496 C   0  0  0  0  0  0  0  0  0  0  0  0
    8.8140   13.2161   24.6670 N   0  0  0  0  0  0  0  0  0  0  0  0
    9.3418   14.3307   25.3994 N   0  0  0  0  0  0  0  0  0  0  0  0
    7.7013   12.6044   25.3091 C   0  0  0  0  0  0  0  0  0  0  0  0
    6.8450   13.4055   26.0635 C   0  0  0  0  0  0  0  0  0  0  0  0
    5.8293   12.9700   26.8152 N   0  0  0  0  0  0  0  0  0  0  0  0
    5.5788   11.6525   26.8507 C   0  0  0  0  0  0  0  0  0  0  0  0
    4.5288   11.1908   27.8104 C   0  0  0  0  0  0  0  0  0  0  0  0
    3.2575   11.9924   27.9570 C   0  0  0  0  0  0  0  0  0  0  0  0
    4.2833   12.0276   29.0491 C   0  0  0  0  0  0  0  0  0  0  0  0
    6.3051   10.7770   26.0698 C   0  0  0  0  0  0  0  0  0  0  0  0
    7.3813   11.2409   25.2906 C   0  0  0  0  0  0  0  0  0  0  0  0
    8.0811   10.1429   24.5879 C   0  0  0  0  0  0  0  0  0  0  0  0
    7.7230    8.9875   24.7713 O   0  0  0  0  0  0  0  0  0  0  0  0
    9.0777   10.5124   23.7631 O   0  0  0  0  0  0  0  0  0  0  0  0
    9.6772    9.3977   23.0930 C   0  0  0  0  0  0  0  0  0  0  0  0
  1  2  3  0
  2  3  1  0
  3  4  1  0
  4  5  1  0
  5  6  1  0
  6  7  1  0
  6  8  1  0
  8  9  2  0
  9 10  1  0
 10 11  2  0
 11 12  1  0
 12 13  1  0
 13 14  1  0
 11 15  1  0
 15 16  2  0
 16 17  1  0
 17 18  2  0
 17 19  1  0
 19 20  1  0
 16  8  1  0
 14 12  1  0
M  END
>  <energy_score>  (602) 
-25.672705

>  <inchikey>  (602) 
None

>  <smiles>  (602) 
None

>  <ref_pdb>  (602) 
A0514a

>  <alias>  (602) 
None

>  <HIPPO Pose ID>  (602) 
498246

>  <name>  (602) 
P498246

>  <HIPPO Compound ID>  (602) 
292609

>  <ref_mols>  (602) 
A4331a,A0514a

>  <distance_score>  (602) 
1.692765

>  <inspiration_score>  (602) 
None

$$$$
P498247
     RDKit          3D

 20 21  0  0  0  0  0  0  0  0999 V2000
    9.6886    8.3384   23.3823 C   0  0  0  0  0  0  0  0  0  0  0  0
    8.7338    9.0492   24.1637 O   0  0  0  0  0  0  0  0  0  0  0  0
    8.7473   10.3553   23.8115 C   0  0  0  0  0  0  0  0  0  0  0  0
    9.4150   10.7967   22.8912 O   0  0  0  0  0  0  0  0  0  0  0  0
    7.9064   11.1744   24.7180 C   0  0  0  0  0  0  0  0  0  0  0  0
    6.9527   10.5772   25.5501 C   0  0  0  0  0  0  0  0  0  0  0  0
    6.2116   11.3797   26.4084 C   0  0  0  0  0  0  0  0  0  0  0  0
    5.2474   10.8254   27.4186 C   0  0  0  0  0  0  0  0  0  0  0  0
    4.0359   11.6382   27.8254 C   0  0  0  0  0  0  0  0  0  0  0  0
    5.1848   11.5030   28.7749 C   0  0  0  0  0  0  0  0  0  0  0  0
    6.3854   12.7192   26.4315 N   0  0  0  0  0  0  0  0  0  0  0  0
    7.2754   13.2743   25.5993 C   0  0  0  0  0  0  0  0  0  0  0  0
    8.0711   12.5669   24.7153 C   0  0  0  0  0  0  0  0  0  0  0  0
    8.9925   13.2141   23.8867 N   0  0  0  0  0  0  0  0  0  0  0  0
   10.3556   13.0233   24.2809 N   0  0  0  0  0  0  0  0  0  0  0  0
    8.5741   14.4538   23.1786 C   0  0  2  0  0  0  0  0  0  0  0  0
    7.2422   14.2991   22.4520 C   0  0  0  0  0  0  0  0  0  0  0  0
    9.6141   14.9032   22.1301 C   0  0  0  0  0  0  0  0  0  0  0  0
    9.7436   13.9821   21.1553 F   0  0  0  0  0  0  0  0  0  0  0  0
   10.8344   15.0285   22.7264 F   0  0  0  0  0  0  0  0  0  0  0  0
  1  2  1  0
  2  3  1  0
  3  4  2  0
  3  5  1  0
  5  6  2  0
  6  7  1  0
  7  8  1  0
  8  9  1  0
  9 10  1  0
  7 11  2  0
 11 12  1  0
 12 13  2  0
 13 14  1  0
 14 15  1  0
 14 16  1  0
 16 17  1  6
 16 18  1  0
 18 19  1  0
 18 20  1  0
 13  5  1  0
 10  8  1  0
M  END
>  <energy_score>  (603) 
-27.432135

>  <inchikey>  (603) 
None

>  <smiles>  (603) 
None

>  <ref_pdb>  (603) 
A0514a

>  <alias>  (603) 
None

>  <HIPPO Pose ID>  (603) 
498247

>  <name>  (603) 
P498247

>  <HIPPO Compound ID>  (603) 
292611

>  <ref_mols>  (603) 
A4331a,A0514a

>  <distance_score>  (603) 
1.385627

>  <inspiration_score>  (603) 
None

$$$$
P498248
     RDKit          3D

 20 21  0  0  0  0  0  0  0  0999 V2000
    9.3319    8.4636   22.9827 C   0  0  0  0  0  0  0  0  0  0  0  0
    8.4739    9.1981   23.8557 O   0  0  0  0  0  0  0  0  0  0  0  0
    8.8505   10.4839   24.0169 C   0  0  0  0  0  0  0  0  0  0  0  0
    9.8297   10.9951   23.4977 O   0  0  0  0  0  0  0  0  0  0  0  0
    7.8903   11.2073   24.8974 C   0  0  0  0  0  0  0  0  0  0  0  0
    6.8733   10.5195   25.5729 C   0  0  0  0  0  0  0  0  0  0  0  0
    6.0616   11.2109   26.4661 C   0  0  0  0  0  0  0  0  0  0  0  0
    5.0473   10.5426   27.3445 C   0  0  0  0  0  0  0  0  0  0  0  0
    5.0707   10.8423   28.8265 C   0  0  0  0  0  0  0  0  0  0  0  0
    3.9625   11.3929   27.9852 C   0  0  0  0  0  0  0  0  0  0  0  0
    6.2038   12.5384   26.6576 N   0  0  0  0  0  0  0  0  0  0  0  0
    7.1597   13.1831   25.9881 C   0  0  0  0  0  0  0  0  0  0  0  0
    8.0532   12.5825   25.1144 C   0  0  0  0  0  0  0  0  0  0  0  0
    9.0721   13.3508   24.5232 N   0  0  0  0  0  0  0  0  0  0  0  0
    9.6897   14.3030   25.3691 N   0  0  0  0  0  0  0  0  0  0  0  0
    8.8040   13.6707   23.0867 C   0  0  1  0  0  0  0  0  0  0  0  0
    7.6326   14.6368   22.9262 C   0  0  0  0  0  0  0  0  0  0  0  0
   10.0807   14.1011   22.3494 C   0  0  0  0  0  0  0  0  0  0  0  0
    9.7593   14.7502   21.2016 F   0  0  0  0  0  0  0  0  0  0  0  0
   10.8141   14.9671   23.0976 F   0  0  0  0  0  0  0  0  0  0  0  0
  1  2  1  0
  2  3  1  0
  3  4  2  0
  3  5  1  0
  5  6  2  0
  6  7  1  0
  7  8  1  0
  8  9  1  0
  9 10  1  0
  7 11  2  0
 11 12  1  0
 12 13  2  0
 13 14  1  0
 14 15  1  0
 14 16  1  0
 16 17  1  1
 16 18  1  0
 18 19  1  0
 18 20  1  0
 13  5  1  0
 10  8  1  0
M  END
>  <energy_score>  (604) 
-31.086486

>  <inchikey>  (604) 
None

>  <smiles>  (604) 
None

>  <ref_pdb>  (604) 
A0514a

>  <alias>  (604) 
None

>  <HIPPO Pose ID>  (604) 
498248

>  <name>  (604) 
P498248

>  <HIPPO Compound ID>  (604) 
292611

>  <ref_mols>  (604) 
A4331a,A0514a

>  <distance_score>  (604) 
1.674581

>  <inspiration_score>  (604) 
None

$$$$
P498249
     RDKit          3D

 20 21  0  0  0  0  0  0  0  0999 V2000
    9.4021    8.4704   23.2699 C   0  0  0  0  0  0  0  0  0  0  0  0
    8.6258    9.2324   24.1973 O   0  0  0  0  0  0  0  0  0  0  0  0
    8.6422   10.5593   23.9387 C   0  0  0  0  0  0  0  0  0  0  0  0
    9.2237   11.0794   23.0034 O   0  0  0  0  0  0  0  0  0  0  0  0
    7.8262   11.3104   24.9203 C   0  0  0  0  0  0  0  0  0  0  0  0
    6.7933   10.6746   25.6143 C   0  0  0  0  0  0  0  0  0  0  0  0
    6.0400   11.4164   26.5146 C   0  0  0  0  0  0  0  0  0  0  0  0
    5.0377   10.7978   27.4442 C   0  0  0  0  0  0  0  0  0  0  0  0
    3.8309   11.5978   27.8879 C   0  0  0  0  0  0  0  0  0  0  0  0
    4.9524   11.3610   28.8501 C   0  0  0  0  0  0  0  0  0  0  0  0
    6.2341   12.7473   26.6616 N   0  0  0  0  0  0  0  0  0  0  0  0
    7.2204   13.3392   25.9870 C   0  0  0  0  0  0  0  0  0  0  0  0
    8.1005   12.6627   25.1653 C   0  0  0  0  0  0  0  0  0  0  0  0
    9.1900   13.3478   24.6206 N   0  0  0  0  0  0  0  0  0  0  0  0
    8.8757   13.9673   23.3257 C   0  0  0  0  0  0  0  0  0  0  0  0
   10.1675   14.0381   22.5043 C   0  0  0  0  0  0  0  0  0  0  0  0
   10.3578   15.2383   21.6943 N   0  0  0  0  0  0  0  0  0  0  0  0
    9.1978   15.6770   20.9466 C   0  0  0  0  0  0  0  0  0  0  0  0
   11.4376   15.1868   20.9560 N   0  0  0  0  0  0  0  0  0  0  0  0
   12.4407   15.3307   21.6631 O   0  0  0  0  0  0  0  0  0  0  0  0
  1  2  1  0
  2  3  1  0
  3  4  2  0
  3  5  1  0
  5  6  2  0
  6  7  1  0
  7  8  1  0
  8  9  1  0
  9 10  1  0
  7 11  2  0
 11 12  1  0
 12 13  2  0
 13 14  1  0
 14 15  1  0
 15 16  1  0
 16 17  1  0
 17 18  1  0
 17 19  1  0
 19 20  2  0
 13  5  1  0
 10  8  1  0
M  END
>  <energy_score>  (605) 
-36.293296

>  <inchikey>  (605) 
None

>  <smiles>  (605) 
None

>  <ref_pdb>  (605) 
A0514a

>  <alias>  (605) 
None

>  <HIPPO Pose ID>  (605) 
498249

>  <name>  (605) 
P498249

>  <HIPPO Compound ID>  (605) 
292612

>  <ref_mols>  (605) 
A4331a,A0514a

>  <distance_score>  (605) 
1.915626

>  <inspiration_score>  (605) 
None

$$$$
P498250
     RDKit          3D

 20 21  0  0  0  0  0  0  0  0999 V2000
    9.5144    8.9940   23.1124 C   0  0  0  0  0  0  0  0  0  0  0  0
    8.4984    9.7343   23.7916 O   0  0  0  0  0  0  0  0  0  0  0  0
    8.8499   10.9998   24.1196 C   0  0  0  0  0  0  0  0  0  0  0  0
    9.9195   11.5286   23.8699 O   0  0  0  0  0  0  0  0  0  0  0  0
    7.7594   11.6658   24.8742 C   0  0  0  0  0  0  0  0  0  0  0  0
    6.9423   10.8161   25.6504 C   0  0  0  0  0  0  0  0  0  0  0  0
    6.1041   11.3597   26.6046 C   0  0  0  0  0  0  0  0  0  0  0  0
    5.1857   10.5479   27.4618 C   0  0  0  0  0  0  0  0  0  0  0  0
    5.1704   10.7955   28.9510 C   0  0  0  0  0  0  0  0  0  0  0  0
    4.0113   11.2499   28.1194 C   0  0  0  0  0  0  0  0  0  0  0  0
    6.1411   12.6750   26.8598 N   0  0  0  0  0  0  0  0  0  0  0  0
    6.8638   13.4694   26.0593 C   0  0  0  0  0  0  0  0  0  0  0  0
    7.6237   13.0649   24.9619 C   0  0  0  0  0  0  0  0  0  0  0  0
    8.1238   14.0807   24.1021 N   0  0  0  0  0  0  0  0  0  0  0  0
    7.4401   15.3500   24.2382 N   0  0  0  0  0  0  0  0  0  0  0  0
    8.4445   13.7373   22.7007 C   0  0  0  0  0  0  0  0  0  0  0  0
    9.7119   14.3892   22.1488 C   0  0  0  0  0  0  0  0  0  0  0  0
   10.9407   14.3513   23.0321 C   0  0  0  0  0  0  0  0  0  0  0  0
    9.4220   15.6576   21.7724 F   0  0  0  0  0  0  0  0  0  0  0  0
   10.0184   13.7766   20.9777 F   0  0  0  0  0  0  0  0  0  0  0  0
  1  2  1  0
  2  3  1  0
  3  4  2  0
  3  5  1  0
  5  6  2  0
  6  7  1  0
  7  8  1  0
  8  9  1  0
  9 10  1  0
  7 11  2  0
 11 12  1  0
 12 13  2  0
 13 14  1  0
 14 15  1  0
 14 16  1  0
 16 17  1  0
 17 18  1  0
 17 19  1  0
 17 20  1  0
 13  5  1  0
 10  8  1  0
M  END
>  <energy_score>  (606) 
-34.533898

>  <inchikey>  (606) 
None

>  <smiles>  (606) 
None

>  <ref_pdb>  (606) 
A0514a

>  <alias>  (606) 
None

>  <HIPPO Pose ID>  (606) 
498250

>  <name>  (606) 
P498250

>  <HIPPO Compound ID>  (606) 
292614

>  <ref_mols>  (606) 
A4331a,A0514a

>  <distance_score>  (606) 
1.84631

>  <inspiration_score>  (606) 
None

$$$$
P498251
     RDKit          3D

 20 22  0  0  0  0  0  0  0  0999 V2000
    9.2559    8.5371   22.9573 C   0  0  0  0  0  0  0  0  0  0  0  0
    8.5006    9.4882   23.7055 O   0  0  0  0  0  0  0  0  0  0  0  0
    9.1414   10.6691   23.8253 C   0  0  0  0  0  0  0  0  0  0  0  0
   10.2698   10.9122   23.4342 O   0  0  0  0  0  0  0  0  0  0  0  0
    8.3507   11.6608   24.5680 C   0  0  0  0  0  0  0  0  0  0  0  0
    7.2882   11.2730   25.3907 C   0  0  0  0  0  0  0  0  0  0  0  0
    6.6409   12.2538   26.1271 C   0  0  0  0  0  0  0  0  0  0  0  0
    5.3394   12.0137   26.8261 C   0  0  0  0  0  0  0  0  0  0  0  0
    5.2124   11.2359   28.1019 C   0  0  0  0  0  0  0  0  0  0  0  0
    5.0828   12.7293   28.1348 C   0  0  0  0  0  0  0  0  0  0  0  0
    7.1098   13.5258   26.1606 N   0  0  0  0  0  0  0  0  0  0  0  0
    8.0859   13.8902   25.3051 C   0  0  0  0  0  0  0  0  0  0  0  0
    8.7221   13.0085   24.4578 C   0  0  0  0  0  0  0  0  0  0  0  0
    9.3397   13.4866   23.2660 N   0  0  0  0  0  0  0  0  0  0  0  0
    8.4062   13.8402   22.2720 C   0  0  0  0  0  0  0  0  0  0  0  0
    7.3121   13.3236   22.0871 O   0  0  0  0  0  0  0  0  0  0  0  0
    8.9502   14.9829   21.4896 C   0  0  0  0  0  0  0  0  0  0  0  0
   10.4092   14.9198   21.8537 C   0  0  0  0  0  0  0  0  0  0  0  0
   10.4150   14.4219   23.2497 N   0  0  0  0  0  0  0  0  0  0  0  0
   11.7158   13.7808   23.4325 C   0  0  0  0  0  0  0  0  0  0  0  0
  1  2  1  0
  2  3  1  0
  3  4  2  0
  3  5  1  0
  5  6  2  0
  6  7  1  0
  7  8  1  0
  8  9  1  0
  9 10  1  0
  7 11  2  0
 11 12  1  0
 12 13  2  0
 13 14  1  0
 14 15  1  0
 15 16  2  0
 15 17  1  0
 17 18  1  0
 18 19  1  0
 19 20  1  0
 13  5  1  0
 19 14  1  0
 10  8  1  0
M  END
>  <energy_score>  (607) 
-26.735629

>  <inchikey>  (607) 
None

>  <smiles>  (607) 
None

>  <ref_pdb>  (607) 
A0514a

>  <alias>  (607) 
None

>  <HIPPO Pose ID>  (607) 
498251

>  <name>  (607) 
P498251

>  <HIPPO Compound ID>  (607) 
292618

>  <ref_mols>  (607) 
A4331a,A0514a

>  <distance_score>  (607) 
1.788884

>  <inspiration_score>  (607) 
None

$$$$
P498252
     RDKit          3D

 20 22  0  0  0  0  0  0  0  0999 V2000
    9.3351    8.4665   22.9486 C   0  0  0  0  0  0  0  0  0  0  0  0
    8.5552    9.3093   23.7928 O   0  0  0  0  0  0  0  0  0  0  0  0
    9.0438   10.5661   23.8787 C   0  0  0  0  0  0  0  0  0  0  0  0
   10.0657   10.9556   23.3405 O   0  0  0  0  0  0  0  0  0  0  0  0
    8.1765   11.4173   24.7267 C   0  0  0  0  0  0  0  0  0  0  0  0
    7.0981   10.8567   25.4287 C   0  0  0  0  0  0  0  0  0  0  0  0
    6.3125   11.6764   26.2285 C   0  0  0  0  0  0  0  0  0  0  0  0
    5.2723   11.1353   27.1708 C   0  0  0  0  0  0  0  0  0  0  0  0
    4.0893   11.9922   27.5690 C   0  0  0  0  0  0  0  0  0  0  0  0
    5.1931   11.7591   28.5519 C   0  0  0  0  0  0  0  0  0  0  0  0
    6.5221   13.0112   26.2657 N   0  0  0  0  0  0  0  0  0  0  0  0
    7.5405   13.5343   25.5654 C   0  0  0  0  0  0  0  0  0  0  0  0
    8.4488   12.7862   24.8391 C   0  0  0  0  0  0  0  0  0  0  0  0
    9.5867   13.4454   24.3328 N   0  0  0  0  0  0  0  0  0  0  0  0
   10.8551   13.0371   24.8524 N   0  0  0  0  0  0  0  0  0  0  0  0
    9.5655   14.0233   23.0679 C   0  0  0  0  0  0  0  0  0  0  0  0
    8.5158   14.2198   22.3420 N   0  0  0  0  0  0  0  0  0  0  0  0
    8.8485   15.1003   21.2067 C   0  0  0  0  0  0  0  0  0  0  0  0
   10.3310   15.2009   20.9359 C   0  0  0  0  0  0  0  0  0  0  0  0
   11.1076   14.5617   22.4062 S   0  0  0  0  0  0  0  0  0  0  0  0
  1  2  1  0
  2  3  1  0
  3  4  2  0
  3  5  1  0
  5  6  2  0
  6  7  1  0
  7  8  1  0
  8  9  1  0
  9 10  1  0
  7 11  2  0
 11 12  1  0
 12 13  2  0
 13 14  1  0
 14 15  1  0
 14 16  1  0
 16 17  2  0
 17 18  1  0
 18 19  1  0
 19 20  1  0
 13  5  1  0
 20 16  1  0
 10  8  1  0
M  END
>  <energy_score>  (608) 
-41.832537

>  <inchikey>  (608) 
None

>  <smiles>  (608) 
None

>  <ref_pdb>  (608) 
A0514a

>  <alias>  (608) 
None

>  <HIPPO Pose ID>  (608) 
498252

>  <name>  (608) 
P498252

>  <HIPPO Compound ID>  (608) 
292619

>  <ref_mols>  (608) 
A4331a,A0514a

>  <distance_score>  (608) 
1.771157

>  <inspiration_score>  (608) 
None

$$$$
P498253
     RDKit          3D

 20 21  0  0  0  0  0  0  0  0999 V2000
    9.0977    8.3400   22.8463 C   0  0  0  0  0  0  0  0  0  0  0  0
    8.1801    9.1476   23.5840 O   0  0  0  0  0  0  0  0  0  0  0  0
    8.7878   10.2476   24.0728 C   0  0  0  0  0  0  0  0  0  0  0  0
    9.9784   10.4529   23.9601 O   0  0  0  0  0  0  0  0  0  0  0  0
    7.8048   11.1340   24.7452 C   0  0  0  0  0  0  0  0  0  0  0  0
    6.8887   10.4538   25.5758 C   0  0  0  0  0  0  0  0  0  0  0  0
    5.9719   11.1619   26.3352 C   0  0  0  0  0  0  0  0  0  0  0  0
    5.1875   10.5573   27.4604 C   0  0  0  0  0  0  0  0  0  0  0  0
    4.0157   11.3012   28.0666 C   0  0  0  0  0  0  0  0  0  0  0  0
    5.3112   11.2363   28.8133 C   0  0  0  0  0  0  0  0  0  0  0  0
    5.8342   12.4814   26.1669 N   0  0  0  0  0  0  0  0  0  0  0  0
    6.6765   13.1027   25.3320 C   0  0  0  0  0  0  0  0  0  0  0  0
    7.7787   12.5388   24.6744 C   0  0  0  0  0  0  0  0  0  0  0  0
    8.6815   13.4433   24.0697 N   0  0  0  0  0  0  0  0  0  0  0  0
    8.7609   14.7208   24.6815 N   0  0  0  0  0  0  0  0  0  0  0  0
    9.8803   12.9619   23.3631 C   0  0  0  0  0  0  0  0  0  0  0  0
   10.7297   13.9805   22.5865 C   0  0  0  0  0  0  0  0  0  0  0  0
   11.6656   14.6929   23.5391 C   0  0  0  0  0  0  0  0  0  0  0  0
    9.9225   14.8554   21.6327 C   0  0  0  0  0  0  0  0  0  0  0  0
   11.7066   13.2816   21.7910 O   0  0  0  0  0  0  0  0  0  0  0  0
  1  2  1  0
  2  3  1  0
  3  4  2  0
  3  5  1  0
  5  6  2  0
  6  7  1  0
  7  8  1  0
  8  9  1  0
  9 10  1  0
  7 11  2  0
 11 12  1  0
 12 13  2  0
 13 14  1  0
 14 15  1  0
 14 16  1  0
 16 17  1  0
 17 18  1  0
 17 19  1  0
 17 20  1  0
 13  5  1  0
 10  8  1  0
M  END
>  <energy_score>  (609) 
-27.781864

>  <inchikey>  (609) 
None

>  <smiles>  (609) 
None

>  <ref_pdb>  (609) 
A0514a

>  <alias>  (609) 
None

>  <HIPPO Pose ID>  (609) 
498253

>  <name>  (609) 
P498253

>  <HIPPO Compound ID>  (609) 
292620

>  <ref_mols>  (609) 
A4331a,A0514a

>  <distance_score>  (609) 
1.623524

>  <inspiration_score>  (609) 
None

$$$$
P498254
     RDKit          3D

 20 22  0  0  0  0  0  0  0  0999 V2000
    9.4773    8.9362   23.1398 C   0  0  0  0  0  0  0  0  0  0  0  0
    8.6185    9.7351   23.9593 O   0  0  0  0  0  0  0  0  0  0  0  0
    9.0769   10.9885   24.1937 C   0  0  0  0  0  0  0  0  0  0  0  0
   10.1352   11.4378   23.7842 O   0  0  0  0  0  0  0  0  0  0  0  0
    8.1086   11.7518   25.0393 C   0  0  0  0  0  0  0  0  0  0  0  0
    7.1058   11.0369   25.7113 C   0  0  0  0  0  0  0  0  0  0  0  0
    6.2146   11.7178   26.5270 C   0  0  0  0  0  0  0  0  0  0  0  0
    5.1657   11.0093   27.3311 C   0  0  0  0  0  0  0  0  0  0  0  0
    5.0581   11.3115   28.8068 C   0  0  0  0  0  0  0  0  0  0  0  0
    3.9984   11.8109   27.8742 C   0  0  0  0  0  0  0  0  0  0  0  0
    6.2929   13.0592   26.6797 N   0  0  0  0  0  0  0  0  0  0  0  0
    7.2045   13.7445   25.9759 C   0  0  0  0  0  0  0  0  0  0  0  0
    8.1492   13.1619   25.1502 C   0  0  0  0  0  0  0  0  0  0  0  0
    8.9611   14.0665   24.3901 N   0  0  0  0  0  0  0  0  0  0  0  0
   10.3522   13.9450   24.6731 N   0  0  0  0  0  0  0  0  0  0  0  0
    8.5935   14.3307   22.9843 C   0  0  0  0  0  0  0  0  0  0  0  0
    7.6871   13.2900   22.4495 C   0  0  0  0  0  0  0  0  0  0  0  0
    7.7756   15.5766   22.6204 C   0  0  0  0  0  0  0  0  0  0  0  0
    8.7600   15.7790   21.4222 C   0  0  0  0  0  0  0  0  0  0  0  0
    9.7413   14.7827   22.0458 C   0  0  0  0  0  0  0  0  0  0  0  0
  1  2  1  0
  2  3  1  0
  3  4  2  0
  3  5  1  0
  5  6  2  0
  6  7  1  0
  7  8  1  0
  8  9  1  0
  9 10  1  0
  7 11  2  0
 11 12  1  0
 12 13  2  0
 13 14  1  0
 14 15  1  0
 14 16  1  0
 16 17  1  0
 16 18  1  0
 18 19  1  0
 19 20  1  0
 13  5  1  0
 20 16  1  0
 10  8  1  0
M  END
>  <energy_score>  (610) 
-18.251364

>  <inchikey>  (610) 
None

>  <smiles>  (610) 
None

>  <ref_pdb>  (610) 
A0514a

>  <alias>  (610) 
None

>  <HIPPO Pose ID>  (610) 
498254

>  <name>  (610) 
P498254

>  <HIPPO Compound ID>  (610) 
292623

>  <ref_mols>  (610) 
A4331a,A0514a

>  <distance_score>  (610) 
1.952529

>  <inspiration_score>  (610) 
None

$$$$
P498255
     RDKit          3D

 20 23  0  0  0  0  0  0  0  0999 V2000
    8.8914    8.0818   22.5852 C   0  0  0  0  0  0  0  0  0  0  0  0
    8.0622    8.9136   23.3888 O   0  0  0  0  0  0  0  0  0  0  0  0
    8.8497    9.7330   24.0868 C   0  0  0  0  0  0  0  0  0  0  0  0
   10.0575    9.6114   24.1812 O   0  0  0  0  0  0  0  0  0  0  0  0
    8.0910   10.8567   24.6388 C   0  0  0  0  0  0  0  0  0  0  0  0
    7.0159   10.6160   25.5082 C   0  0  0  0  0  0  0  0  0  0  0  0
    6.3626   11.7063   26.0655 C   0  0  0  0  0  0  0  0  0  0  0  0
    5.1984   11.6405   27.0008 C   0  0  0  0  0  0  0  0  0  0  0  0
    5.1950   10.8967   28.3003 C   0  0  0  0  0  0  0  0  0  0  0  0
    5.3313   12.3891   28.3148 C   0  0  0  0  0  0  0  0  0  0  0  0
    6.7420   12.9616   25.7670 N   0  0  0  0  0  0  0  0  0  0  0  0
    7.7261   13.1528   24.8704 C   0  0  0  0  0  0  0  0  0  0  0  0
    8.4682   12.1534   24.2640 C   0  0  0  0  0  0  0  0  0  0  0  0
    9.4746   12.4210   23.2871 N   0  0  0  0  0  0  0  0  0  0  0  0
   10.7746   11.9676   23.6324 N   0  0  0  0  0  0  0  0  0  0  0  0
    9.5640   13.6015   22.5576 C   0  0  0  0  0  0  0  0  0  0  0  0
    8.5072   14.5293   21.9708 C   0  0  0  0  0  0  0  0  0  0  0  0
    9.8551   15.3287   21.8065 C   0  0  0  0  0  0  0  0  0  0  0  0
   10.5023   13.9922   21.3901 C   0  0  0  0  0  0  0  0  0  0  0  0
   10.1971   14.7809   23.2536 C   0  0  0  0  0  0  0  0  0  0  0  0
  1  2  1  0
  2  3  1  0
  3  4  2  0
  3  5  1  0
  5  6  2  0
  6  7  1  0
  7  8  1  0
  8  9  1  0
  9 10  1  0
  7 11  2  0
 11 12  1  0
 12 13  2  0
 13 14  1  0
 14 15  1  0
 14 16  1  0
 16 17  1  0
 17 18  1  0
 18 19  1  0
 18 20  1  0
 13  5  1  0
 19 16  1  0
 10  8  1  0
 20 16  1  0
M  END
>  <energy_score>  (611) 
-24.557354

>  <inchikey>  (611) 
None

>  <smiles>  (611) 
None

>  <ref_pdb>  (611) 
A0514a

>  <alias>  (611) 
None

>  <HIPPO Pose ID>  (611) 
498255

>  <name>  (611) 
P498255

>  <HIPPO Compound ID>  (611) 
292624

>  <ref_mols>  (611) 
A4331a,A0514a

>  <distance_score>  (611) 
1.399567

>  <inspiration_score>  (611) 
None

$$$$
P498256
     RDKit          3D

 20 22  0  0  0  0  0  0  0  0999 V2000
    9.3233    8.6769   23.0364 C   0  0  0  0  0  0  0  0  0  0  0  0
    8.4505    9.4562   23.8600 O   0  0  0  0  0  0  0  0  0  0  0  0
    8.9197   10.7031   24.1076 C   0  0  0  0  0  0  0  0  0  0  0  0
    9.9883   11.1315   23.7104 O   0  0  0  0  0  0  0  0  0  0  0  0
    7.9784   11.4630   24.9733 C   0  0  0  0  0  0  0  0  0  0  0  0
    6.9373   10.7957   25.6311 C   0  0  0  0  0  0  0  0  0  0  0  0
    6.1282   11.5080   26.5066 C   0  0  0  0  0  0  0  0  0  0  0  0
    5.0658   10.8573   27.3414 C   0  0  0  0  0  0  0  0  0  0  0  0
    4.9866   11.2034   28.8105 C   0  0  0  0  0  0  0  0  0  0  0  0
    3.9360   11.7183   27.8764 C   0  0  0  0  0  0  0  0  0  0  0  0
    6.3090   12.8322   26.7069 N   0  0  0  0  0  0  0  0  0  0  0  0
    7.2806   13.4661   26.0410 C   0  0  0  0  0  0  0  0  0  0  0  0
    8.1647   12.8387   25.1843 C   0  0  0  0  0  0  0  0  0  0  0  0
    9.1617   13.6008   24.5381 N   0  0  0  0  0  0  0  0  0  0  0  0
   10.1746   14.1299   25.3585 N   0  0  0  0  0  0  0  0  0  0  0  0
    8.6561   14.4810   23.4548 C   0  0  2  0  0  0  0  0  0  0  0  0
    8.1804   13.7791   22.2367 C   0  0  0  0  0  0  0  0  0  0  0  0
    9.4158   14.6400   22.1395 C   0  0  0  0  0  0  0  0  0  0  0  0
    9.2389   15.7991   21.2025 C   0  0  0  0  0  0  0  0  0  0  0  0
   10.8132   14.0914   22.1078 C   0  0  0  0  0  0  0  0  0  0  0  0
  1  2  1  0
  2  3  1  0
  3  4  2  0
  3  5  1  0
  5  6  2  0
  6  7  1  0
  7  8  1  0
  8  9  1  0
  9 10  1  0
  7 11  2  0
 11 12  1  0
 12 13  2  0
 13 14  1  0
 14 15  1  0
 16 14  1  1
 16 17  1  0
 17 18  1  0
 18 19  1  0
 18 20  1  0
 13  5  1  0
 18 16  1  0
 10  8  1  0
M  END
>  <energy_score>  (612) 
-34.245276

>  <inchikey>  (612) 
None

>  <smiles>  (612) 
None

>  <ref_pdb>  (612) 
A0514a

>  <alias>  (612) 
None

>  <HIPPO Pose ID>  (612) 
498256

>  <name>  (612) 
P498256

>  <HIPPO Compound ID>  (612) 
292625

>  <ref_mols>  (612) 
A4331a,A0514a

>  <distance_score>  (612) 
1.642964

>  <inspiration_score>  (612) 
None

$$$$
P498257
     RDKit          3D

 20 22  0  0  0  0  0  0  0  0999 V2000
    9.6353    8.2185   23.3515 C   0  0  0  0  0  0  0  0  0  0  0  0
    8.6886    8.8486   24.2078 O   0  0  0  0  0  0  0  0  0  0  0  0
    8.6081   10.1479   23.8682 C   0  0  0  0  0  0  0  0  0  0  0  0
    9.1584   10.6400   22.8978 O   0  0  0  0  0  0  0  0  0  0  0  0
    7.8394   10.9234   24.8566 C   0  0  0  0  0  0  0  0  0  0  0  0
    6.7766   10.3901   25.5819 C   0  0  0  0  0  0  0  0  0  0  0  0
    6.1150   11.2108   26.4910 C   0  0  0  0  0  0  0  0  0  0  0  0
    5.0044   10.7303   27.3787 C   0  0  0  0  0  0  0  0  0  0  0  0
    4.9474   11.2164   28.8099 C   0  0  0  0  0  0  0  0  0  0  0  0
    3.9505   11.7331   27.8206 C   0  0  0  0  0  0  0  0  0  0  0  0
    6.4719   12.5056   26.6600 N   0  0  0  0  0  0  0  0  0  0  0  0
    7.4844   12.9960   25.9416 C   0  0  0  0  0  0  0  0  0  0  0  0
    8.2279   12.2454   25.0546 C   0  0  0  0  0  0  0  0  0  0  0  0
    9.3275   12.7941   24.3666 N   0  0  0  0  0  0  0  0  0  0  0  0
   10.3445   13.2974   25.1876 N   0  0  0  0  0  0  0  0  0  0  0  0
    8.9226   13.5048   23.1310 C   0  0  1  0  0  0  0  0  0  0  0  0
    8.4329   14.8816   23.3169 C   0  0  0  0  0  0  0  0  0  0  0  0
    9.6511   14.6214   22.4189 C   0  0  0  0  0  0  0  0  0  0  0  0
    9.3683   14.9851   20.9933 C   0  0  0  0  0  0  0  0  0  0  0  0
   11.1208   14.7597   22.7222 C   0  0  0  0  0  0  0  0  0  0  0  0
  1  2  1  0
  2  3  1  0
  3  4  2  0
  3  5  1  0
  5  6  2  0
  6  7  1  0
  7  8  1  0
  8  9  1  0
  9 10  1  0
  7 11  2  0
 11 12  1  0
 12 13  2  0
 13 14  1  0
 14 15  1  0
 16 14  1  1
 16 17  1  0
 17 18  1  0
 18 19  1  0
 18 20  1  0
 13  5  1  0
 18 16  1  0
 10  8  1  0
M  END
>  <energy_score>  (613) 
-26.710571

>  <inchikey>  (613) 
None

>  <smiles>  (613) 
None

>  <ref_pdb>  (613) 
A0514a

>  <alias>  (613) 
None

>  <HIPPO Pose ID>  (613) 
498257

>  <name>  (613) 
P498257

>  <HIPPO Compound ID>  (613) 
292625

>  <ref_mols>  (613) 
A4331a,A0514a

>  <distance_score>  (613) 
1.730203

>  <inspiration_score>  (613) 
None

$$$$
P498258
     RDKit          3D

 20 22  0  0  0  0  0  0  0  0999 V2000
    9.7139    8.6825   23.3854 C   0  0  0  0  0  0  0  0  0  0  0  0
    8.7579    9.3942   24.1724 O   0  0  0  0  0  0  0  0  0  0  0  0
    8.8388   10.7350   23.9867 C   0  0  0  0  0  0  0  0  0  0  0  0
    9.5638   11.2671   23.1636 O   0  0  0  0  0  0  0  0  0  0  0  0
    7.9499   11.4655   24.9305 C   0  0  0  0  0  0  0  0  0  0  0  0
    6.9484   10.7486   25.6059 C   0  0  0  0  0  0  0  0  0  0  0  0
    6.0959   11.4186   26.4730 C   0  0  0  0  0  0  0  0  0  0  0  0
    5.0952   10.7147   27.3387 C   0  0  0  0  0  0  0  0  0  0  0  0
    5.0918   11.0159   28.8199 C   0  0  0  0  0  0  0  0  0  0  0  0
    3.9732   11.5235   27.9647 C   0  0  0  0  0  0  0  0  0  0  0  0
    6.1772   12.7549   26.6325 N   0  0  0  0  0  0  0  0  0  0  0  0
    7.1141   13.4306   25.9616 C   0  0  0  0  0  0  0  0  0  0  0  0
    8.0578   12.8528   25.1271 C   0  0  0  0  0  0  0  0  0  0  0  0
    9.0099   13.7426   24.5780 N   0  0  0  0  0  0  0  0  0  0  0  0
   10.3603   13.3460   24.5781 N   0  0  0  0  0  0  0  0  0  0  0  0
    8.4948   14.5943   23.4635 C   0  0  2  0  0  0  0  0  0  0  0  0
    7.9993   13.9449   22.2083 C   0  0  0  0  0  0  0  0  0  0  0  0
    9.2205   14.7642   22.1615 C   0  0  0  0  0  0  0  0  0  0  0  0
    9.1914   15.9151   21.4199 F   0  0  0  0  0  0  0  0  0  0  0  0
   10.5040   14.2801   22.1027 F   0  0  0  0  0  0  0  0  0  0  0  0
  1  2  1  0
  2  3  1  0
  3  4  2  0
  3  5  1  0
  5  6  2  0
  6  7  1  0
  7  8  1  0
  8  9  1  0
  9 10  1  0
  7 11  2  0
 11 12  1  0
 12 13  2  0
 13 14  1  0
 14 15  1  0
 16 14  1  1
 16 17  1  0
 17 18  1  0
 18 19  1  0
 18 20  1  0
 13  5  1  0
 18 16  1  0
 10  8  1  0
M  END
>  <energy_score>  (614) 
-23.393212

>  <inchikey>  (614) 
None

>  <smiles>  (614) 
None

>  <ref_pdb>  (614) 
A0514a

>  <alias>  (614) 
None

>  <HIPPO Pose ID>  (614) 
498258

>  <name>  (614) 
P498258

>  <HIPPO Compound ID>  (614) 
292626

>  <ref_mols>  (614) 
A4331a,A0514a

>  <distance_score>  (614) 
1.706252

>  <inspiration_score>  (614) 
None

$$$$
P498259
     RDKit          3D

 20 22  0  0  0  0  0  0  0  0999 V2000
    9.5856    8.2436   23.3762 C   0  0  0  0  0  0  0  0  0  0  0  0
    8.7529    9.0301   24.2230 O   0  0  0  0  0  0  0  0  0  0  0  0
    8.7813   10.3070   23.7943 C   0  0  0  0  0  0  0  0  0  0  0  0
    9.3456   10.6649   22.7789 O   0  0  0  0  0  0  0  0  0  0  0  0
    8.0825   11.2245   24.7051 C   0  0  0  0  0  0  0  0  0  0  0  0
    6.9851   10.7739   25.4473 C   0  0  0  0  0  0  0  0  0  0  0  0
    6.3547   11.6612   26.3087 C   0  0  0  0  0  0  0  0  0  0  0  0
    5.2294   11.2519   27.2194 C   0  0  0  0  0  0  0  0  0  0  0  0
    4.0615   12.1918   27.4297 C   0  0  0  0  0  0  0  0  0  0  0  0
    5.0586   11.9999   28.5286 C   0  0  0  0  0  0  0  0  0  0  0  0
    6.7749   12.9446   26.4099 N   0  0  0  0  0  0  0  0  0  0  0  0
    7.8271   13.3535   25.6820 C   0  0  0  0  0  0  0  0  0  0  0  0
    8.5493   12.5387   24.8331 C   0  0  0  0  0  0  0  0  0  0  0  0
    9.7069   13.0219   24.1921 N   0  0  0  0  0  0  0  0  0  0  0  0
   10.7499   13.5295   24.9795 N   0  0  0  0  0  0  0  0  0  0  0  0
    9.6266   13.3848   22.7609 C   0  0  1  0  0  0  0  0  0  0  0  0
    8.6445   14.4546   22.3524 C   0  0  0  0  0  0  0  0  0  0  0  0
   10.0929   14.6585   22.1596 C   0  0  0  0  0  0  0  0  0  0  0  0
   11.0009   15.3046   22.9557 F   0  0  0  0  0  0  0  0  0  0  0  0
   10.5663   14.7193   20.8756 F   0  0  0  0  0  0  0  0  0  0  0  0
  1  2  1  0
  2  3  1  0
  3  4  2  0
  3  5  1  0
  5  6  2  0
  6  7  1  0
  7  8  1  0
  8  9  1  0
  9 10  1  0
  7 11  2  0
 11 12  1  0
 12 13  2  0
 13 14  1  0
 14 15  1  0
 16 14  1  1
 16 17  1  0
 17 18  1  0
 18 19  1  0
 18 20  1  0
 13  5  1  0
 18 16  1  0
 10  8  1  0
M  END
>  <energy_score>  (615) 
-31.856987

>  <inchikey>  (615) 
None

>  <smiles>  (615) 
None

>  <ref_pdb>  (615) 
A0514a

>  <alias>  (615) 
None

>  <HIPPO Pose ID>  (615) 
498259

>  <name>  (615) 
P498259

>  <HIPPO Compound ID>  (615) 
292626

>  <ref_mols>  (615) 
A4331a,A0514a

>  <distance_score>  (615) 
1.34094

>  <inspiration_score>  (615) 
None

$$$$
P498260
     RDKit          3D

 20 21  0  0  0  0  0  0  0  0999 V2000
   10.8474   15.3723   20.2213 C   0  0  0  0  0  0  0  0  0  0  0  0
    9.5961   15.2868   21.0701 C   0  0  0  0  0  0  0  0  0  0  0  0
    9.8738   14.3944   22.2668 C   0  0  0  0  0  0  0  0  0  0  0  0
    8.7181   14.2023   23.2669 C   0  0  1  0  0  0  0  0  0  0  0  0
    7.3815   14.0697   22.5521 C   0  0  0  0  0  0  0  0  0  0  0  0
    9.0869   13.0331   24.1378 N   0  0  0  0  0  0  0  0  0  0  0  0
   10.3078   13.2713   24.8607 N   0  0  0  0  0  0  0  0  0  0  0  0
    8.0465   12.5954   24.9851 C   0  0  0  0  0  0  0  0  0  0  0  0
    7.4105   13.4931   25.8376 C   0  0  0  0  0  0  0  0  0  0  0  0
    6.4080   13.1875   26.6770 N   0  0  0  0  0  0  0  0  0  0  0  0
    5.9326   11.9273   26.6858 C   0  0  0  0  0  0  0  0  0  0  0  0
    4.7609   11.6298   27.5701 C   0  0  0  0  0  0  0  0  0  0  0  0
    4.5753   12.3978   28.8548 C   0  0  0  0  0  0  0  0  0  0  0  0
    3.6759   12.6782   27.6891 C   0  0  0  0  0  0  0  0  0  0  0  0
    6.5190   10.9517   25.9068 C   0  0  0  0  0  0  0  0  0  0  0  0
    7.6004   11.2717   25.0697 C   0  0  0  0  0  0  0  0  0  0  0  0
    8.1737   10.0900   24.3951 C   0  0  0  0  0  0  0  0  0  0  0  0
    7.7693    8.9740   24.6934 O   0  0  0  0  0  0  0  0  0  0  0  0
    9.1429   10.3446   23.4975 O   0  0  0  0  0  0  0  0  0  0  0  0
    9.6899    9.1508   22.9334 C   0  0  0  0  0  0  0  0  0  0  0  0
  1  2  1  0
  2  3  1  0
  3  4  1  0
  4  5  1  6
  4  6  1  0
  6  7  1  0
  6  8  1  0
  8  9  2  0
  9 10  1  0
 10 11  2  0
 11 12  1  0
 12 13  1  0
 13 14  1  0
 11 15  1  0
 15 16  2  0
 16 17  1  0
 17 18  2  0
 17 19  1  0
 19 20  1  0
 16  8  1  0
 14 12  1  0
M  END
>  <energy_score>  (616) 
-42.861869

>  <inchikey>  (616) 
None

>  <smiles>  (616) 
None

>  <ref_pdb>  (616) 
A0514a

>  <alias>  (616) 
None

>  <HIPPO Pose ID>  (616) 
498260

>  <name>  (616) 
P498260

>  <HIPPO Compound ID>  (616) 
292627

>  <ref_mols>  (616) 
A4331a,A0514a

>  <distance_score>  (616) 
1.600306

>  <inspiration_score>  (616) 
None

$$$$
P498261
     RDKit          3D

 20 21  0  0  0  0  0  0  0  0999 V2000
    9.3497    8.5776   22.9728 C   0  0  0  0  0  0  0  0  0  0  0  0
    8.4533    9.3412   23.7790 O   0  0  0  0  0  0  0  0  0  0  0  0
    8.8546   10.6205   23.9632 C   0  0  0  0  0  0  0  0  0  0  0  0
    9.8893   11.0958   23.5278 O   0  0  0  0  0  0  0  0  0  0  0  0
    7.8881   11.3451   24.8303 C   0  0  0  0  0  0  0  0  0  0  0  0
    6.9300   10.6390   25.5735 C   0  0  0  0  0  0  0  0  0  0  0  0
    6.1559   11.3232   26.5018 C   0  0  0  0  0  0  0  0  0  0  0  0
    5.1842   10.6488   27.4253 C   0  0  0  0  0  0  0  0  0  0  0  0
    3.9718   11.4107   27.9216 C   0  0  0  0  0  0  0  0  0  0  0  0
    5.1136   11.1537   28.8539 C   0  0  0  0  0  0  0  0  0  0  0  0
    6.3219   12.6466   26.7002 N   0  0  0  0  0  0  0  0  0  0  0  0
    7.2142   13.3082   25.9572 C   0  0  0  0  0  0  0  0  0  0  0  0
    8.0055   12.7331   24.9799 C   0  0  0  0  0  0  0  0  0  0  0  0
    8.8932   13.5116   24.2246 N   0  0  0  0  0  0  0  0  0  0  0  0
   10.0613   13.9126   24.9537 N   0  0  0  0  0  0  0  0  0  0  0  0
    8.2986   14.4684   23.2221 C   0  0  0  0  0  0  0  0  0  0  0  0
    7.2142   13.8416   22.3667 C   0  0  0  0  0  0  0  0  0  0  0  0
    7.5309   15.6207   23.9008 C   0  0  0  0  0  0  0  0  0  0  0  0
    9.4329   14.8018   22.1896 C   0  0  0  0  0  0  0  0  0  0  0  0
    8.9913   15.5619   21.0757 O   0  0  0  0  0  0  0  0  0  0  0  0
  1  2  1  0
  2  3  1  0
  3  4  2  0
  3  5  1  0
  5  6  2  0
  6  7  1  0
  7  8  1  0
  8  9  1  0
  9 10  1  0
  7 11  2  0
 11 12  1  0
 12 13  2  0
 13 14  1  0
 14 15  1  0
 14 16  1  0
 16 17  1  0
 16 18  1  0
 16 19  1  0
 19 20  1  0
 13  5  1  0
 10  8  1  0
M  END
>  <energy_score>  (617) 
-26.064189

>  <inchikey>  (617) 
None

>  <smiles>  (617) 
None

>  <ref_pdb>  (617) 
A0514a

>  <alias>  (617) 
None

>  <HIPPO Pose ID>  (617) 
498261

>  <name>  (617) 
P498261

>  <HIPPO Compound ID>  (617) 
292628

>  <ref_mols>  (617) 
A4331a,A0514a

>  <distance_score>  (617) 
1.56272

>  <inspiration_score>  (617) 
None

$$$$
P498262
     RDKit          3D

 20 22  0  0  0  0  0  0  0  0999 V2000
    9.7069    8.6182   23.4254 C   0  0  0  0  0  0  0  0  0  0  0  0
    8.7203    9.3038   24.1978 O   0  0  0  0  0  0  0  0  0  0  0  0
    8.7686   10.6431   23.9878 C   0  0  0  0  0  0  0  0  0  0  0  0
    9.5010   11.1733   23.1742 O   0  0  0  0  0  0  0  0  0  0  0  0
    7.8113   11.3685   24.8623 C   0  0  0  0  0  0  0  0  0  0  0  0
    6.8424   10.6449   25.5725 C   0  0  0  0  0  0  0  0  0  0  0  0
    5.9713   11.3243   26.4125 C   0  0  0  0  0  0  0  0  0  0  0  0
    5.1001   10.6302   27.4164 C   0  0  0  0  0  0  0  0  0  0  0  0
    3.9099   11.3462   28.0193 C   0  0  0  0  0  0  0  0  0  0  0  0
    5.1490   11.1585   28.8380 C   0  0  0  0  0  0  0  0  0  0  0  0
    5.9530   12.6710   26.4518 N   0  0  0  0  0  0  0  0  0  0  0  0
    6.8718   13.3485   25.7576 C   0  0  0  0  0  0  0  0  0  0  0  0
    7.8888   12.7640   25.0186 C   0  0  0  0  0  0  0  0  0  0  0  0
    8.9726   13.5521   24.5585 N   0  0  0  0  0  0  0  0  0  0  0  0
    9.4080   14.5901   25.4397 N   0  0  0  0  0  0  0  0  0  0  0  0
    8.7702   13.9708   23.1501 C   0  0  0  0  0  0  0  0  0  0  0  0
   10.1213   14.1105   22.4519 C   0  0  0  0  0  0  0  0  0  0  0  0
    9.9963   14.8277   21.1456 C   0  0  0  0  0  0  0  0  0  0  0  0
   11.1236   14.8134   20.1340 C   0  0  0  0  0  0  0  0  0  0  0  0
   10.8524   16.0312   20.9396 C   0  0  0  0  0  0  0  0  0  0  0  0
  1  2  1  0
  2  3  1  0
  3  4  2  0
  3  5  1  0
  5  6  2  0
  6  7  1  0
  7  8  1  0
  8  9  1  0
  9 10  1  0
  7 11  2  0
 11 12  1  0
 12 13  2  0
 13 14  1  0
 14 15  1  0
 14 16  1  0
 16 17  1  0
 17 18  1  0
 18 19  1  0
 19 20  1  0
 13  5  1  0
 20 18  1  0
 10  8  1  0
M  END
>  <energy_score>  (618) 
-23.936032

>  <inchikey>  (618) 
None

>  <smiles>  (618) 
None

>  <ref_pdb>  (618) 
A0514a

>  <alias>  (618) 
None

>  <HIPPO Pose ID>  (618) 
498262

>  <name>  (618) 
P498262

>  <HIPPO Compound ID>  (618) 
292629

>  <ref_mols>  (618) 
A4331a,A0514a

>  <distance_score>  (618) 
1.897997

>  <inspiration_score>  (618) 
None

$$$$
P498263
     RDKit          3D

 20 21  0  0  0  0  0  0  0  0999 V2000
   11.4747   13.9417   22.6419 C   0  0  0  0  0  0  0  0  0  0  0  0
   10.0298   14.2258   22.2928 C   0  0  0  0  0  0  0  0  0  0  0  0
    8.9331   13.4894   23.0887 C   0  0  2  0  0  0  0  0  0  0  0  0
    7.5877   14.1628   22.7610 C   0  0  0  0  0  0  0  0  0  0  0  0
    7.3444   14.0097   21.4293 F   0  0  0  0  0  0  0  0  0  0  0  0
    9.2070   13.2652   24.5499 N   0  0  0  0  0  0  0  0  0  0  0  0
    9.9642   14.2518   25.2495 N   0  0  0  0  0  0  0  0  0  0  0  0
    8.0486   12.7942   25.2258 C   0  0  0  0  0  0  0  0  0  0  0  0
    7.2986   13.7238   25.9533 C   0  0  0  0  0  0  0  0  0  0  0  0
    6.1927   13.4588   26.6554 N   0  0  0  0  0  0  0  0  0  0  0  0
    5.7251   12.2026   26.6510 C   0  0  0  0  0  0  0  0  0  0  0  0
    4.5084   11.9612   27.4732 C   0  0  0  0  0  0  0  0  0  0  0  0
    4.5538   11.0607   28.6739 C   0  0  0  0  0  0  0  0  0  0  0  0
    4.4840   12.5463   28.8679 C   0  0  0  0  0  0  0  0  0  0  0  0
    6.3694   11.2023   25.9483 C   0  0  0  0  0  0  0  0  0  0  0  0
    7.5440   11.4830   25.2252 C   0  0  0  0  0  0  0  0  0  0  0  0
    8.1131   10.2677   24.5920 C   0  0  0  0  0  0  0  0  0  0  0  0
    7.6148    9.1724   24.8178 O   0  0  0  0  0  0  0  0  0  0  0  0
    9.1686   10.4844   23.7887 O   0  0  0  0  0  0  0  0  0  0  0  0
    9.6591    9.2994   23.1479 C   0  0  0  0  0  0  0  0  0  0  0  0
  1  2  1  0
  3  2  1  1
  3  4  1  0
  4  5  1  0
  3  6  1  0
  6  7  1  0
  6  8  1  0
  8  9  2  0
  9 10  1  0
 10 11  2  0
 11 12  1  0
 12 13  1  0
 13 14  1  0
 11 15  1  0
 15 16  2  0
 16 17  1  0
 17 18  2  0
 17 19  1  0
 19 20  1  0
 16  8  1  0
 14 12  1  0
M  END
>  <energy_score>  (619) 
-25.520678

>  <inchikey>  (619) 
None

>  <smiles>  (619) 
None

>  <ref_pdb>  (619) 
A0514a

>  <alias>  (619) 
None

>  <HIPPO Pose ID>  (619) 
498263

>  <name>  (619) 
P498263

>  <HIPPO Compound ID>  (619) 
292630

>  <ref_mols>  (619) 
A4331a,A0514a

>  <distance_score>  (619) 
1.763275

>  <inspiration_score>  (619) 
None

$$$$
P498264
     RDKit          3D

 20 21  0  0  0  0  0  0  0  0999 V2000
   10.4264   14.9736   21.0386 C   0  0  0  0  0  0  0  0  0  0  0  0
    9.1035   14.5501   21.6686 C   0  0  0  0  0  0  0  0  0  0  0  0
    9.1972   13.5188   22.8165 C   0  0  1  0  0  0  0  0  0  0  0  0
    9.9687   14.0578   24.0009 C   0  0  0  0  0  0  0  0  0  0  0  0
   11.1308   14.6116   23.5841 F   0  0  0  0  0  0  0  0  0  0  0  0
    7.8311   13.0144   23.1721 N   0  0  0  0  0  0  0  0  0  0  0  0
    6.7077   13.5661   22.4626 N   0  0  0  0  0  0  0  0  0  0  0  0
    7.5294   12.6519   24.4934 C   0  0  0  0  0  0  0  0  0  0  0  0
    7.0206   13.6147   25.3610 C   0  0  0  0  0  0  0  0  0  0  0  0
    6.4178   13.3624   26.5333 N   0  0  0  0  0  0  0  0  0  0  0  0
    6.1740   12.0803   26.8596 C   0  0  0  0  0  0  0  0  0  0  0  0
    5.3244   11.8079   28.0605 C   0  0  0  0  0  0  0  0  0  0  0  0
    3.8590   12.1623   27.9972 C   0  0  0  0  0  0  0  0  0  0  0  0
    4.7793   12.9640   28.8690 C   0  0  0  0  0  0  0  0  0  0  0  0
    6.6895   11.0533   26.0979 C   0  0  0  0  0  0  0  0  0  0  0  0
    7.4406   11.3368   24.9506 C   0  0  0  0  0  0  0  0  0  0  0  0
    8.0104   10.1347   24.3247 C   0  0  0  0  0  0  0  0  0  0  0  0
    7.5706    9.0332   24.6185 O   0  0  0  0  0  0  0  0  0  0  0  0
    9.0637   10.3861   23.5260 O   0  0  0  0  0  0  0  0  0  0  0  0
    9.6398    9.1958   22.9758 C   0  0  0  0  0  0  0  0  0  0  0  0
  1  2  1  0
  3  2  1  6
  3  4  1  0
  4  5  1  0
  3  6  1  0
  6  7  1  0
  6  8  1  0
  8  9  2  0
  9 10  1  0
 10 11  2  0
 11 12  1  0
 12 13  1  0
 13 14  1  0
 11 15  1  0
 15 16  2  0
 16 17  1  0
 17 18  2  0
 17 19  1  0
 19 20  1  0
 16  8  1  0
 14 12  1  0
M  END
>  <energy_score>  (620) 
-20.361892

>  <inchikey>  (620) 
None

>  <smiles>  (620) 
None

>  <ref_pdb>  (620) 
A0514a

>  <alias>  (620) 
None

>  <HIPPO Pose ID>  (620) 
498264

>  <name>  (620) 
P498264

>  <HIPPO Compound ID>  (620) 
292630

>  <ref_mols>  (620) 
A4331a,A0514a

>  <distance_score>  (620) 
1.783807

>  <inspiration_score>  (620) 
None

$$$$
P498265
     RDKit          3D

 20 21  0  0  0  0  0  0  0  0999 V2000
    9.3739    8.4916   23.3365 C   0  0  0  0  0  0  0  0  0  0  0  0
    8.6102    9.2713   24.2609 O   0  0  0  0  0  0  0  0  0  0  0  0
    8.6238   10.5874   23.9511 C   0  0  0  0  0  0  0  0  0  0  0  0
    9.1630   11.0621   22.9668 O   0  0  0  0  0  0  0  0  0  0  0  0
    7.8903   11.3979   24.9480 C   0  0  0  0  0  0  0  0  0  0  0  0
    6.9251   10.8344   25.7886 C   0  0  0  0  0  0  0  0  0  0  0  0
    6.3116   11.6561   26.7305 C   0  0  0  0  0  0  0  0  0  0  0  0
    5.5144   11.1697   27.8956 C   0  0  0  0  0  0  0  0  0  0  0  0
    4.4534   10.1267   27.8426 C   0  0  0  0  0  0  0  0  0  0  0  0
    4.0629   11.5784   27.9271 C   0  0  0  0  0  0  0  0  0  0  0  0
    6.5245   12.9891   26.7572 N   0  0  0  0  0  0  0  0  0  0  0  0
    7.4366   13.5083   25.9292 C   0  0  0  0  0  0  0  0  0  0  0  0
    8.2065   12.7581   25.0585 C   0  0  0  0  0  0  0  0  0  0  0  0
    9.3031   13.3351   24.3851 N   0  0  0  0  0  0  0  0  0  0  0  0
   10.3123   13.8555   25.2294 N   0  0  0  0  0  0  0  0  0  0  0  0
    8.8411   14.1134   23.2197 C   0  0  0  0  0  0  0  0  0  0  0  0
   10.0031   14.4095   22.2912 C   0  0  0  0  0  0  0  0  0  0  0  0
    9.5354   15.2350   21.1242 C   0  0  0  0  0  0  0  0  0  0  0  0
   10.5172   15.2607   20.1950 F   0  0  0  0  0  0  0  0  0  0  0  0
    8.4565   14.6232   20.5763 F   0  0  0  0  0  0  0  0  0  0  0  0
  1  2  1  0
  2  3  1  0
  3  4  2  0
  3  5  1  0
  5  6  2  0
  6  7  1  0
  7  8  1  0
  8  9  1  0
  9 10  1  0
  7 11  2  0
 11 12  1  0
 12 13  2  0
 13 14  1  0
 14 15  1  0
 14 16  1  0
 16 17  1  0
 17 18  1  0
 18 19  1  0
 18 20  1  0
 13  5  1  0
 10  8  1  0
M  END
>  <energy_score>  (621) 
-17.135097

>  <inchikey>  (621) 
None

>  <smiles>  (621) 
None

>  <ref_pdb>  (621) 
A0514a

>  <alias>  (621) 
None

>  <HIPPO Pose ID>  (621) 
498265

>  <name>  (621) 
P498265

>  <HIPPO Compound ID>  (621) 
292631

>  <ref_mols>  (621) 
A4331a,A0514a

>  <distance_score>  (621) 
1.956946

>  <inspiration_score>  (621) 
None

$$$$
P498266
     RDKit          3D

 20 21  0  0  0  0  0  0  0  0999 V2000
    9.4211    8.4087   23.1443 C   0  0  0  0  0  0  0  0  0  0  0  0
    8.6437    9.2043   24.0396 O   0  0  0  0  0  0  0  0  0  0  0  0
    8.7380   10.5299   23.8086 C   0  0  0  0  0  0  0  0  0  0  0  0
    9.3958   11.0529   22.9268 O   0  0  0  0  0  0  0  0  0  0  0  0
    7.9217   11.2900   24.7800 C   0  0  0  0  0  0  0  0  0  0  0  0
    6.9090   10.6725   25.5208 C   0  0  0  0  0  0  0  0  0  0  0  0
    6.1896   11.4315   26.4362 C   0  0  0  0  0  0  0  0  0  0  0  0
    5.1202   10.8505   27.3144 C   0  0  0  0  0  0  0  0  0  0  0  0
    5.0630   11.2604   28.7683 C   0  0  0  0  0  0  0  0  0  0  0  0
    4.0230   11.7709   27.8204 C   0  0  0  0  0  0  0  0  0  0  0  0
    6.4534   12.7462   26.6192 N   0  0  0  0  0  0  0  0  0  0  0  0
    7.4042   13.3248   25.8784 C   0  0  0  0  0  0  0  0  0  0  0  0
    8.1790   12.6544   24.9464 C   0  0  0  0  0  0  0  0  0  0  0  0
    9.2145   13.3175   24.2583 N   0  0  0  0  0  0  0  0  0  0  0  0
   10.2492   13.7394   25.1771 N   0  0  0  0  0  0  0  0  0  0  0  0
    8.7363   14.3541   23.2888 C   0  0  2  0  0  0  0  0  0  0  0  0
    7.3716   14.1202   22.6415 C   0  0  0  0  0  0  0  0  0  0  0  0
    9.7267   14.5419   22.1163 C   0  0  0  0  0  0  0  0  0  0  0  0
   11.1108   14.7030   22.5368 C   0  0  0  0  0  0  0  0  0  0  0  0
   12.1760   14.7647   22.9919 N   0  0  0  0  0  0  0  0  0  0  0  0
  1  2  1  0
  2  3  1  0
  3  4  2  0
  3  5  1  0
  5  6  2  0
  6  7  1  0
  7  8  1  0
  8  9  1  0
  9 10  1  0
  7 11  2  0
 11 12  1  0
 12 13  2  0
 13 14  1  0
 14 15  1  0
 14 16  1  0
 16 17  1  6
 16 18  1  0
 18 19  1  0
 19 20  3  0
 13  5  1  0
 10  8  1  0
M  END
>  <energy_score>  (622) 
-39.222661

>  <inchikey>  (622) 
None

>  <smiles>  (622) 
None

>  <ref_pdb>  (622) 
A0514a

>  <alias>  (622) 
None

>  <HIPPO Pose ID>  (622) 
498266

>  <name>  (622) 
P498266

>  <HIPPO Compound ID>  (622) 
292633

>  <ref_mols>  (622) 
A4331a,A0514a

>  <distance_score>  (622) 
1.546858

>  <inspiration_score>  (622) 
None

$$$$
P498267
     RDKit          3D

 20 21  0  0  0  0  0  0  0  0999 V2000
    9.2670    8.7964   23.1289 C   0  0  0  0  0  0  0  0  0  0  0  0
    8.4756    9.6942   23.9190 O   0  0  0  0  0  0  0  0  0  0  0  0
    8.9845   10.9479   23.9949 C   0  0  0  0  0  0  0  0  0  0  0  0
   10.0156   11.3067   23.4521 O   0  0  0  0  0  0  0  0  0  0  0  0
    8.1325   11.8334   24.8423 C   0  0  0  0  0  0  0  0  0  0  0  0
    7.0842   11.2711   25.5933 C   0  0  0  0  0  0  0  0  0  0  0  0
    6.3222   12.0954   26.4151 C   0  0  0  0  0  0  0  0  0  0  0  0
    5.0979   11.6573   27.1433 C   0  0  0  0  0  0  0  0  0  0  0  0
    5.1050   10.6670   28.2654 C   0  0  0  0  0  0  0  0  0  0  0  0
    4.9362   12.1231   28.5760 C   0  0  0  0  0  0  0  0  0  0  0  0
    6.6135   13.4022   26.5687 N   0  0  0  0  0  0  0  0  0  0  0  0
    7.5859   13.9344   25.8212 C   0  0  0  0  0  0  0  0  0  0  0  0
    8.3520   13.2271   24.9065 C   0  0  0  0  0  0  0  0  0  0  0  0
    9.1604   14.0298   24.0457 N   0  0  0  0  0  0  0  0  0  0  0  0
   10.5495   13.7786   24.2533 N   0  0  0  0  0  0  0  0  0  0  0  0
    8.6012   14.0111   22.6437 C   0  0  1  0  0  0  0  0  0  0  0  0
    7.0938   14.3244   22.6261 C   0  0  0  0  0  0  0  0  0  0  0  0
    9.2100   14.9686   21.6119 C   0  0  0  0  0  0  0  0  0  0  0  0
   10.6495   14.8863   21.4668 C   0  0  0  0  0  0  0  0  0  0  0  0
   11.8051   14.8211   21.4116 N   0  0  0  0  0  0  0  0  0  0  0  0
  1  2  1  0
  2  3  1  0
  3  4  2  0
  3  5  1  0
  5  6  2  0
  6  7  1  0
  7  8  1  0
  8  9  1  0
  9 10  1  0
  7 11  2  0
 11 12  1  0
 12 13  2  0
 13 14  1  0
 14 15  1  0
 14 16  1  0
 16 17  1  1
 16 18  1  0
 18 19  1  0
 19 20  3  0
 13  5  1  0
 10  8  1  0
M  END
>  <energy_score>  (623) 
-27.1419

>  <inchikey>  (623) 
None

>  <smiles>  (623) 
None

>  <ref_pdb>  (623) 
A0514a

>  <alias>  (623) 
None

>  <HIPPO Pose ID>  (623) 
498267

>  <name>  (623) 
P498267

>  <HIPPO Compound ID>  (623) 
292633

>  <ref_mols>  (623) 
A4331a,A0514a

>  <distance_score>  (623) 
1.666175

>  <inspiration_score>  (623) 
None

$$$$
P498268
     RDKit          3D

 20 21  0  0  0  0  0  0  0  0999 V2000
    9.7134    8.5326   23.3945 C   0  0  0  0  0  0  0  0  0  0  0  0
    8.7594    9.2630   24.1632 O   0  0  0  0  0  0  0  0  0  0  0  0
    8.8140   10.5842   23.8760 C   0  0  0  0  0  0  0  0  0  0  0  0
    9.4767   11.0752   22.9800 O   0  0  0  0  0  0  0  0  0  0  0  0
    7.9857   11.3629   24.8237 C   0  0  0  0  0  0  0  0  0  0  0  0
    6.9353   10.7513   25.5166 C   0  0  0  0  0  0  0  0  0  0  0  0
    6.1977   11.5084   26.4174 C   0  0  0  0  0  0  0  0  0  0  0  0
    5.1148   10.9233   27.2764 C   0  0  0  0  0  0  0  0  0  0  0  0
    5.0398   11.3274   28.7315 C   0  0  0  0  0  0  0  0  0  0  0  0
    4.0103   11.8394   27.7730 C   0  0  0  0  0  0  0  0  0  0  0  0
    6.4584   12.8227   26.6062 N   0  0  0  0  0  0  0  0  0  0  0  0
    7.4542   13.3959   25.9186 C   0  0  0  0  0  0  0  0  0  0  0  0
    8.2815   12.7160   25.0431 C   0  0  0  0  0  0  0  0  0  0  0  0
    9.3787   13.3685   24.4329 N   0  0  0  0  0  0  0  0  0  0  0  0
   10.2148   14.1196   25.3122 N   0  0  0  0  0  0  0  0  0  0  0  0
    8.8994   14.0555   23.2115 C   0  0  0  0  0  0  0  0  0  0  0  0
   10.0823   14.3283   22.2971 C   0  0  0  0  0  0  0  0  0  0  0  0
    9.6698   15.1245   21.0778 C   0  0  0  0  0  0  0  0  0  0  0  0
   10.8367   15.2293   20.1133 C   0  0  0  0  0  0  0  0  0  0  0  0
   10.4335   16.0416   19.0278 O   0  0  0  0  0  0  0  0  0  0  0  0
  1  2  1  0
  2  3  1  0
  3  4  2  0
  3  5  1  0
  5  6  2  0
  6  7  1  0
  7  8  1  0
  8  9  1  0
  9 10  1  0
  7 11  2  0
 11 12  1  0
 12 13  2  0
 13 14  1  0
 14 15  1  0
 14 16  1  0
 16 17  1  0
 17 18  1  0
 18 19  1  0
 19 20  1  0
 13  5  1  0
 10  8  1  0
M  END
>  <energy_score>  (624) 
-28.73019

>  <inchikey>  (624) 
None

>  <smiles>  (624) 
None

>  <ref_pdb>  (624) 
A0514a

>  <alias>  (624) 
None

>  <HIPPO Pose ID>  (624) 
498268

>  <name>  (624) 
P498268

>  <HIPPO Compound ID>  (624) 
292634

>  <ref_mols>  (624) 
A4331a,A0514a

>  <distance_score>  (624) 
1.731093

>  <inspiration_score>  (624) 
None

$$$$
P498269
     RDKit          3D

 21 23  0  0  0  0  0  0  0  0999 V2000
    9.4581    8.4623   23.4722 C   0  0  0  0  0  0  0  0  0  0  0  0
    8.5294    9.2561   24.2188 O   0  0  0  0  0  0  0  0  0  0  0  0
    8.5808   10.5413   23.7982 C   0  0  0  0  0  0  0  0  0  0  0  0
    9.2979   10.9214   22.8901 O   0  0  0  0  0  0  0  0  0  0  0  0
    7.7569   11.4589   24.6238 C   0  0  0  0  0  0  0  0  0  0  0  0
    7.0910   11.0031   25.7610 C   0  0  0  0  0  0  0  0  0  0  0  0
    6.5033   11.9347   26.6103 C   0  0  0  0  0  0  0  0  0  0  0  0
    5.7784   11.5788   27.8692 C   0  0  0  0  0  0  0  0  0  0  0  0
    4.7179   10.5254   27.9401 C   0  0  0  0  0  0  0  0  0  0  0  0
    4.3196   11.9732   27.9311 C   0  0  0  0  0  0  0  0  0  0  0  0
    6.5970   13.2617   26.3799 N   0  0  0  0  0  0  0  0  0  0  0  0
    7.1362   13.6697   25.2219 C   0  0  0  0  0  0  0  0  0  0  0  0
    7.7025   12.8210   24.2847 C   0  0  0  0  0  0  0  0  0  0  0  0
    7.9837   13.2673   22.9799 N   0  0  0  0  0  0  0  0  0  0  0  0
    6.7667   13.5268   22.2257 N   0  0  0  0  0  0  0  0  0  0  0  0
    8.9939   14.3276   22.8231 C   0  0  2  0  0  0  0  0  0  0  0  0
    9.4609   14.4619   21.3960 C   0  0  0  0  0  0  0  0  0  0  0  0
   10.7517   15.2317   21.4767 C   0  0  0  0  0  0  0  0  0  0  0  0
   11.2232   15.1122   22.8275 O   0  0  0  0  0  0  0  0  0  0  0  0
   10.3211   14.2603   23.5642 C   0  0  2  0  0  0  0  0  0  0  0  0
   11.0804   12.9774   23.6877 C   0  0  0  0  0  0  0  0  0  0  0  0
  1  2  1  0
  2  3  1  0
  3  4  2  0
  3  5  1  0
  5  6  2  0
  6  7  1  0
  7  8  1  0
  8  9  1  0
  9 10  1  0
  7 11  2  0
 11 12  1  0
 12 13  2  0
 13 14  1  0
 14 15  1  0
 16 14  1  6
 16 17  1  0
 17 18  1  0
 18 19  1  0
 19 20  1  0
 20 21  1  6
 13  5  1  0
 20 16  1  0
 10  8  1  0
M  END
>  <energy_score>  (625) 
-30.580233

>  <inchikey>  (625) 
None

>  <smiles>  (625) 
None

>  <ref_pdb>  (625) 
A0514a

>  <alias>  (625) 
None

>  <HIPPO Pose ID>  (625) 
498269

>  <name>  (625) 
P498269

>  <HIPPO Compound ID>  (625) 
292636

>  <ref_mols>  (625) 
A4331a,A0514a

>  <distance_score>  (625) 
1.743397

>  <inspiration_score>  (625) 
None

$$$$
P498270
     RDKit          3D

 21 23  0  0  0  0  0  0  0  0999 V2000
    9.7118    9.3379   23.0398 C   0  0  0  0  0  0  0  0  0  0  0  0
    9.1497   10.5012   23.6560 O   0  0  0  0  0  0  0  0  0  0  0  0
    8.1945   10.1939   24.5480 C   0  0  0  0  0  0  0  0  0  0  0  0
    7.8653    9.0511   24.8430 O   0  0  0  0  0  0  0  0  0  0  0  0
    7.4874   11.3447   25.1560 C   0  0  0  0  0  0  0  0  0  0  0  0
    6.3830   10.9139   25.9209 C   0  0  0  0  0  0  0  0  0  0  0  0
    5.6269   11.8168   26.6371 C   0  0  0  0  0  0  0  0  0  0  0  0
    4.5999   11.3841   27.6364 C   0  0  0  0  0  0  0  0  0  0  0  0
    3.3508   12.2083   27.8304 C   0  0  0  0  0  0  0  0  0  0  0  0
    4.4225   12.2335   28.8783 C   0  0  0  0  0  0  0  0  0  0  0  0
    5.8468   13.1329   26.5121 N   0  0  0  0  0  0  0  0  0  0  0  0
    6.8774   13.5378   25.7604 C   0  0  0  0  0  0  0  0  0  0  0  0
    7.8104   12.7110   25.1312 C   0  0  0  0  0  0  0  0  0  0  0  0
    9.0178   13.2973   24.6670 N   0  0  0  0  0  0  0  0  0  0  0  0
    9.5199   14.3891   25.4613 N   0  0  0  0  0  0  0  0  0  0  0  0
    9.0522   13.5078   23.1983 C   0  0  1  0  0  0  0  0  0  0  0  0
    7.9749   14.4228   22.6449 C   0  0  0  0  0  0  0  0  0  0  0  0
    8.6204   15.0197   21.3996 C   0  0  0  0  0  0  0  0  0  0  0  0
   10.0052   14.6768   21.4037 O   0  0  0  0  0  0  0  0  0  0  0  0
   10.3056   14.2316   22.7230 C   0  0  2  0  0  0  0  0  0  0  0  0
   11.5755   13.4429   22.7817 C   0  0  0  0  0  0  0  0  0  0  0  0
  1  2  1  0
  2  3  1  0
  3  4  2  0
  3  5  1  0
  5  6  2  0
  6  7  1  0
  7  8  1  0
  8  9  1  0
  9 10  1  0
  7 11  2  0
 11 12  1  0
 12 13  2  0
 13 14  1  0
 14 15  1  0
 16 14  1  1
 16 17  1  0
 17 18  1  0
 18 19  1  0
 19 20  1  0
 20 21  1  6
 13  5  1  0
 20 16  1  0
 10  8  1  0
M  END
>  <energy_score>  (626) 
-37.977561

>  <inchikey>  (626) 
None

>  <smiles>  (626) 
None

>  <ref_pdb>  (626) 
A0514a

>  <alias>  (626) 
None

>  <HIPPO Pose ID>  (626) 
498270

>  <name>  (626) 
P498270

>  <HIPPO Compound ID>  (626) 
292636

>  <ref_mols>  (626) 
A4331a,A0514a

>  <distance_score>  (626) 
1.736089

>  <inspiration_score>  (626) 
None

$$$$
P498271
     RDKit          3D

 21 23  0  0  0  0  0  0  0  0999 V2000
    9.3797    8.4114   23.3203 C   0  0  0  0  0  0  0  0  0  0  0  0
    8.6305    9.2461   24.2084 O   0  0  0  0  0  0  0  0  0  0  0  0
    8.7385   10.5467   23.8699 C   0  0  0  0  0  0  0  0  0  0  0  0
    9.3378   10.9743   22.8993 O   0  0  0  0  0  0  0  0  0  0  0  0
    8.0548   11.4269   24.8368 C   0  0  0  0  0  0  0  0  0  0  0  0
    6.8980   11.0236   25.5072 C   0  0  0  0  0  0  0  0  0  0  0  0
    6.2557   11.9526   26.3205 C   0  0  0  0  0  0  0  0  0  0  0  0
    4.9769   11.6974   27.0420 C   0  0  0  0  0  0  0  0  0  0  0  0
    4.8566   10.6902   28.1454 C   0  0  0  0  0  0  0  0  0  0  0  0
    4.8867   12.1495   28.4857 C   0  0  0  0  0  0  0  0  0  0  0  0
    6.7343   13.2056   26.4913 N   0  0  0  0  0  0  0  0  0  0  0  0
    7.8303   13.5711   25.8232 C   0  0  0  0  0  0  0  0  0  0  0  0
    8.5560   12.7243   25.0048 C   0  0  0  0  0  0  0  0  0  0  0  0
    9.7274   13.1599   24.3573 N   0  0  0  0  0  0  0  0  0  0  0  0
   10.8257   13.5034   25.1932 N   0  0  0  0  0  0  0  0  0  0  0  0
    9.4635   14.1691   23.3243 C   0  0  2  0  0  0  0  0  0  0  0  0
    8.1606   14.1471   22.5709 C   0  0  0  0  0  0  0  0  0  0  0  0
    8.4933   15.0284   21.3840 C   0  0  0  0  0  0  0  0  0  0  0  0
    9.9001   14.9817   21.1678 O   0  0  0  0  0  0  0  0  0  0  0  0
   10.4633   14.1381   22.1800 C   0  0  1  0  0  0  0  0  0  0  0  0
   11.8577   14.6185   22.5052 C   0  0  0  0  0  0  0  0  0  0  0  0
  1  2  1  0
  2  3  1  0
  3  4  2  0
  3  5  1  0
  5  6  2  0
  6  7  1  0
  7  8  1  0
  8  9  1  0
  9 10  1  0
  7 11  2  0
 11 12  1  0
 12 13  2  0
 13 14  1  0
 14 15  1  0
 16 14  1  1
 16 17  1  0
 17 18  1  0
 18 19  1  0
 19 20  1  0
 20 21  1  1
 13  5  1  0
 20 16  1  0
 10  8  1  0
M  END
>  <energy_score>  (627) 
-32.816803

>  <inchikey>  (627) 
None

>  <smiles>  (627) 
None

>  <ref_pdb>  (627) 
A0514a

>  <alias>  (627) 
None

>  <HIPPO Pose ID>  (627) 
498271

>  <name>  (627) 
P498271

>  <HIPPO Compound ID>  (627) 
292636

>  <ref_mols>  (627) 
A4331a,A0514a

>  <distance_score>  (627) 
1.666863

>  <inspiration_score>  (627) 
None

$$$$
P498272
     RDKit          3D

 21 23  0  0  0  0  0  0  0  0999 V2000
    9.3555    8.5075   22.8976 C   0  0  0  0  0  0  0  0  0  0  0  0
    8.5147    9.3899   23.6331 O   0  0  0  0  0  0  0  0  0  0  0  0
    9.1068   10.5761   23.8908 C   0  0  0  0  0  0  0  0  0  0  0  0
   10.2585   10.8652   23.6224 O   0  0  0  0  0  0  0  0  0  0  0  0
    8.1575   11.4787   24.5736 C   0  0  0  0  0  0  0  0  0  0  0  0
    7.1397   10.9071   25.3582 C   0  0  0  0  0  0  0  0  0  0  0  0
    6.3128   11.7311   26.1072 C   0  0  0  0  0  0  0  0  0  0  0  0
    5.3490   11.1915   27.1291 C   0  0  0  0  0  0  0  0  0  0  0  0
    4.1580   12.0162   27.5665 C   0  0  0  0  0  0  0  0  0  0  0  0
    5.3282   11.8667   28.4878 C   0  0  0  0  0  0  0  0  0  0  0  0
    6.4268   13.0735   26.0244 N   0  0  0  0  0  0  0  0  0  0  0  0
    7.3855   13.6027   25.2432 C   0  0  0  0  0  0  0  0  0  0  0  0
    8.3232   12.8688   24.5319 C   0  0  0  0  0  0  0  0  0  0  0  0
    9.3980   13.5897   23.9823 N   0  0  0  0  0  0  0  0  0  0  0  0
   10.6541   13.3837   24.6458 N   0  0  0  0  0  0  0  0  0  0  0  0
    9.4622   13.6605   22.4842 C   0  0  0  0  0  0  0  0  0  0  0  0
   10.2606   14.8543   22.1062 C   0  0  2  0  0  0  0  0  0  0  0  0
    9.8536   15.8939   21.1495 C   0  0  0  0  0  0  0  0  0  0  0  0
   11.1436   15.1158   20.8612 C   0  0  0  0  0  0  0  0  0  0  0  0
   12.5198   15.4187   21.3943 C   0  0  0  0  0  0  0  0  0  0  0  0
   11.1553   14.8900   19.3752 C   0  0  0  0  0  0  0  0  0  0  0  0
  1  2  1  0
  2  3  1  0
  3  4  2  0
  3  5  1  0
  5  6  2  0
  6  7  1  0
  7  8  1  0
  8  9  1  0
  9 10  1  0
  7 11  2  0
 11 12  1  0
 12 13  2  0
 13 14  1  0
 14 15  1  0
 14 16  1  0
 17 16  1  6
 17 18  1  0
 18 19  1  0
 19 20  1  0
 19 21  1  0
 13  5  1  0
 19 17  1  0
 10  8  1  0
M  END
>  <energy_score>  (628) 
-19.41797

>  <inchikey>  (628) 
None

>  <smiles>  (628) 
None

>  <ref_pdb>  (628) 
A0514a

>  <alias>  (628) 
None

>  <HIPPO Pose ID>  (628) 
498272

>  <name>  (628) 
P498272

>  <HIPPO Compound ID>  (628) 
292637

>  <ref_mols>  (628) 
A4331a,A0514a

>  <distance_score>  (628) 
1.591917

>  <inspiration_score>  (628) 
None

$$$$
P498273
     RDKit          3D

 21 23  0  0  0  0  0  0  0  0999 V2000
    9.3194    8.6410   23.0014 C   0  0  0  0  0  0  0  0  0  0  0  0
    8.4460    9.4736   23.7684 O   0  0  0  0  0  0  0  0  0  0  0  0
    8.9993   10.6654   24.0950 C   0  0  0  0  0  0  0  0  0  0  0  0
   10.1311   11.0040   23.7994 O   0  0  0  0  0  0  0  0  0  0  0  0
    8.0385   11.5046   24.8680 C   0  0  0  0  0  0  0  0  0  0  0  0
    7.0027   10.8332   25.5467 C   0  0  0  0  0  0  0  0  0  0  0  0
    6.1509   11.5439   26.3801 C   0  0  0  0  0  0  0  0  0  0  0  0
    5.1818   10.8756   27.3120 C   0  0  0  0  0  0  0  0  0  0  0  0
    3.9769   11.6341   27.8279 C   0  0  0  0  0  0  0  0  0  0  0  0
    5.1379   11.3877   28.7393 C   0  0  0  0  0  0  0  0  0  0  0  0
    6.2444   12.8838   26.4801 N   0  0  0  0  0  0  0  0  0  0  0  0
    7.2174   13.5135   25.8097 C   0  0  0  0  0  0  0  0  0  0  0  0
    8.1943   12.8953   25.0377 C   0  0  0  0  0  0  0  0  0  0  0  0
    9.2097   13.7394   24.5609 N   0  0  0  0  0  0  0  0  0  0  0  0
   10.1172   14.2792   25.5088 N   0  0  0  0  0  0  0  0  0  0  0  0
    9.6769   13.5636   23.1934 C   0  0  0  0  0  0  0  0  0  0  0  0
    9.3840   14.7603   22.3524 C   0  0  2  0  0  0  0  0  0  0  0  0
    9.4224   14.3946   20.9272 C   0  0  0  0  0  0  0  0  0  0  0  0
   10.3430   15.4650   21.3402 C   0  0  0  0  0  0  0  0  0  0  0  0
   11.8199   15.1607   21.3634 C   0  0  0  0  0  0  0  0  0  0  0  0
    9.9808   16.7298   20.6153 C   0  0  0  0  0  0  0  0  0  0  0  0
  1  2  1  0
  2  3  1  0
  3  4  2  0
  3  5  1  0
  5  6  2  0
  6  7  1  0
  7  8  1  0
  8  9  1  0
  9 10  1  0
  7 11  2  0
 11 12  1  0
 12 13  2  0
 13 14  1  0
 14 15  1  0
 14 16  1  0
 17 16  1  1
 17 18  1  0
 18 19  1  0
 19 20  1  0
 19 21  1  0
 13  5  1  0
 19 17  1  0
 10  8  1  0
M  END
>  <energy_score>  (629) 
-29.291813

>  <inchikey>  (629) 
None

>  <smiles>  (629) 
None

>  <ref_pdb>  (629) 
A0514a

>  <alias>  (629) 
None

>  <HIPPO Pose ID>  (629) 
498273

>  <name>  (629) 
P498273

>  <HIPPO Compound ID>  (629) 
292637

>  <ref_mols>  (629) 
A4331a,A0514a

>  <distance_score>  (629) 
1.610306

>  <inspiration_score>  (629) 
None

$$$$
P498274
     RDKit          3D

 21 23  0  0  0  0  0  0  0  0999 V2000
    9.3767    8.5166   22.9619 C   0  0  0  0  0  0  0  0  0  0  0  0
    8.5069    9.2835   23.7927 O   0  0  0  0  0  0  0  0  0  0  0  0
    8.9308   10.5527   23.9760 C   0  0  0  0  0  0  0  0  0  0  0  0
    9.9599   11.0248   23.5241 O   0  0  0  0  0  0  0  0  0  0  0  0
    7.9679   11.2969   24.8296 C   0  0  0  0  0  0  0  0  0  0  0  0
    6.9420   10.6305   25.5134 C   0  0  0  0  0  0  0  0  0  0  0  0
    6.1251   11.3510   26.3776 C   0  0  0  0  0  0  0  0  0  0  0  0
    5.1115   10.7040   27.2744 C   0  0  0  0  0  0  0  0  0  0  0  0
    5.1380   11.0371   28.7493 C   0  0  0  0  0  0  0  0  0  0  0  0
    4.0279   11.5674   27.8977 C   0  0  0  0  0  0  0  0  0  0  0  0
    6.2643   12.6867   26.5209 N   0  0  0  0  0  0  0  0  0  0  0  0
    7.2273   13.3113   25.8381 C   0  0  0  0  0  0  0  0  0  0  0  0
    8.1402   12.6737   25.0140 C   0  0  0  0  0  0  0  0  0  0  0  0
    9.2130   13.3923   24.4351 N   0  0  0  0  0  0  0  0  0  0  0  0
    9.8773   14.2491   25.3386 N   0  0  0  0  0  0  0  0  0  0  0  0
    9.0201   13.9833   23.2179 C   0  0  0  0  0  0  0  0  0  0  0  0
    7.8899   14.2730   22.4777 C   0  0  0  0  0  0  0  0  0  0  0  0
    8.2473   14.8316   21.2867 N   0  0  0  0  0  0  0  0  0  0  0  0
    9.5639   14.9006   21.2422 N   0  0  0  0  0  0  0  0  0  0  0  0
   10.0370   14.3430   22.3655 N   0  0  0  0  0  0  0  0  0  0  0  0
   11.4549   14.2105   22.5286 C   0  0  0  0  0  0  0  0  0  0  0  0
  1  2  1  0
  2  3  1  0
  3  4  2  0
  3  5  1  0
  5  6  2  0
  6  7  1  0
  7  8  1  0
  8  9  1  0
  9 10  1  0
  7 11  2  0
 11 12  1  0
 12 13  2  0
 13 14  1  0
 14 15  1  0
 14 16  1  0
 16 17  2  0
 17 18  1  0
 18 19  2  0
 19 20  1  0
 20 21  1  0
 13  5  1  0
 20 16  1  0
 10  8  1  0
M  END
>  <energy_score>  (630) 
-30.801878

>  <inchikey>  (630) 
None

>  <smiles>  (630) 
None

>  <ref_pdb>  (630) 
A0514a

>  <alias>  (630) 
None

>  <HIPPO Pose ID>  (630) 
498274

>  <name>  (630) 
P498274

>  <HIPPO Compound ID>  (630) 
292638

>  <ref_mols>  (630) 
A4331a,A0514a

>  <distance_score>  (630) 
1.65346

>  <inspiration_score>  (630) 
None

$$$$
P498275
     RDKit          3D

 21 23  0  0  0  0  0  0  0  0999 V2000
    9.5537    8.6910   22.9766 C   0  0  0  0  0  0  0  0  0  0  0  0
    8.8141    9.6165   23.7673 O   0  0  0  0  0  0  0  0  0  0  0  0
    9.1937   10.9080   23.6272 C   0  0  0  0  0  0  0  0  0  0  0  0
   10.0893   11.3119   22.9122 O   0  0  0  0  0  0  0  0  0  0  0  0
    8.4096   11.7732   24.5295 C   0  0  0  0  0  0  0  0  0  0  0  0
    7.4458   11.1972   25.3807 C   0  0  0  0  0  0  0  0  0  0  0  0
    6.7432   12.0018   26.2647 C   0  0  0  0  0  0  0  0  0  0  0  0
    5.6735   11.4577   27.1766 C   0  0  0  0  0  0  0  0  0  0  0  0
    4.3925   12.2402   27.3666 C   0  0  0  0  0  0  0  0  0  0  0  0
    5.3940   12.1835   28.4776 C   0  0  0  0  0  0  0  0  0  0  0  0
    7.0277   13.3213   26.3576 N   0  0  0  0  0  0  0  0  0  0  0  0
    7.8919   13.8676   25.4775 C   0  0  0  0  0  0  0  0  0  0  0  0
    8.6227   13.1582   24.5394 C   0  0  0  0  0  0  0  0  0  0  0  0
    9.0570   13.9160   23.4162 N   0  0  0  0  0  0  0  0  0  0  0  0
   10.4059   14.1790   23.2523 N   0  0  0  0  0  0  0  0  0  0  0  0
   10.7778   14.7394   22.1303 C   0  0  0  0  0  0  0  0  0  0  0  0
   12.2298   14.8748   21.7904 C   0  0  0  0  0  0  0  0  0  0  0  0
    9.8618   15.3245   21.1052 C   0  0  0  0  0  0  0  0  0  0  0  0
    8.4226   15.0867   21.3960 C   0  0  0  0  0  0  0  0  0  0  0  0
    8.1587   14.0035   22.3691 C   0  0  0  0  0  0  0  0  0  0  0  0
    7.1495   13.3072   22.2582 O   0  0  0  0  0  0  0  0  0  0  0  0
  1  2  1  0
  2  3  1  0
  3  4  2  0
  3  5  1  0
  5  6  2  0
  6  7  1  0
  7  8  1  0
  8  9  1  0
  9 10  1  0
  7 11  2  0
 11 12  1  0
 12 13  2  0
 13 14  1  0
 14 15  1  0
 15 16  2  0
 16 17  1  0
 16 18  1  0
 18 19  1  0
 19 20  1  0
 20 21  2  0
 13  5  1  0
 20 14  1  0
 10  8  1  0
M  END
>  <energy_score>  (631) 
-22.126354

>  <inchikey>  (631) 
None

>  <smiles>  (631) 
None

>  <ref_pdb>  (631) 
A0514a

>  <alias>  (631) 
None

>  <HIPPO Pose ID>  (631) 
498275

>  <name>  (631) 
P498275

>  <HIPPO Compound ID>  (631) 
292639

>  <ref_mols>  (631) 
A4331a,A0514a

>  <distance_score>  (631) 
1.937078

>  <inspiration_score>  (631) 
None

$$$$
P498276
     RDKit          3D

 21 23  0  0  0  0  0  0  0  0999 V2000
    9.3078    8.6008   23.0505 C   0  0  0  0  0  0  0  0  0  0  0  0
    8.4063    9.3340   23.8855 O   0  0  0  0  0  0  0  0  0  0  0  0
    8.8057   10.6044   24.1216 C   0  0  0  0  0  0  0  0  0  0  0  0
    9.8490   11.0871   23.7213 O   0  0  0  0  0  0  0  0  0  0  0  0
    7.7901   11.3462   24.9138 C   0  0  0  0  0  0  0  0  0  0  0  0
    6.7981   10.6372   25.6010 C   0  0  0  0  0  0  0  0  0  0  0  0
    5.9092   11.3340   26.4084 C   0  0  0  0  0  0  0  0  0  0  0  0
    5.0388   10.6529   27.4223 C   0  0  0  0  0  0  0  0  0  0  0  0
    3.8610   11.3816   28.0334 C   0  0  0  0  0  0  0  0  0  0  0  0
    5.1066   11.1876   28.8408 C   0  0  0  0  0  0  0  0  0  0  0  0
    5.8853   12.6836   26.4236 N   0  0  0  0  0  0  0  0  0  0  0  0
    6.8254   13.3477   25.7455 C   0  0  0  0  0  0  0  0  0  0  0  0
    7.8663   12.7419   25.0601 C   0  0  0  0  0  0  0  0  0  0  0  0
    8.9796   13.5133   24.6596 N   0  0  0  0  0  0  0  0  0  0  0  0
    9.3946   14.5380   25.5697 N   0  0  0  0  0  0  0  0  0  0  0  0
    8.8899   13.8959   23.2316 C   0  0  0  0  0  0  0  0  0  0  0  0
   10.2441   14.3772   22.7671 C   0  0  2  0  0  0  0  0  0  0  0  0
   10.3290   14.8969   21.3593 C   0  0  0  0  0  0  0  0  0  0  0  0
   11.8334   14.9447   21.1612 C   0  0  0  0  0  0  0  0  0  0  0  0
   12.4249   14.0764   22.1491 O   0  0  0  0  0  0  0  0  0  0  0  0
   11.3587   13.3777   22.7953 C   0  0  0  0  0  0  0  0  0  0  0  0
  1  2  1  0
  2  3  1  0
  3  4  2  0
  3  5  1  0
  5  6  2  0
  6  7  1  0
  7  8  1  0
  8  9  1  0
  9 10  1  0
  7 11  2  0
 11 12  1  0
 12 13  2  0
 13 14  1  0
 14 15  1  0
 14 16  1  0
 17 16  1  6
 17 18  1  0
 18 19  1  0
 19 20  1  0
 20 21  1  0
 13  5  1  0
 21 17  1  0
 10  8  1  0
M  END
>  <energy_score>  (632) 
-35.235492

>  <inchikey>  (632) 
None

>  <smiles>  (632) 
None

>  <ref_pdb>  (632) 
A0514a

>  <alias>  (632) 
None

>  <HIPPO Pose ID>  (632) 
498276

>  <name>  (632) 
P498276

>  <HIPPO Compound ID>  (632) 
292643

>  <ref_mols>  (632) 
A4331a,A0514a

>  <distance_score>  (632) 
1.880979

>  <inspiration_score>  (632) 
None

$$$$
P498277
     RDKit          3D

 21 23  0  0  0  0  0  0  0  0999 V2000
    9.3214    8.4997   22.9656 C   0  0  0  0  0  0  0  0  0  0  0  0
    8.5132    9.3042   23.8244 O   0  0  0  0  0  0  0  0  0  0  0  0
    8.9659   10.5727   23.9450 C   0  0  0  0  0  0  0  0  0  0  0  0
    9.9689   11.0068   23.4076 O   0  0  0  0  0  0  0  0  0  0  0  0
    8.0798   11.3643   24.8383 C   0  0  0  0  0  0  0  0  0  0  0  0
    7.0050   10.7596   25.5041 C   0  0  0  0  0  0  0  0  0  0  0  0
    6.2355   11.5209   26.3759 C   0  0  0  0  0  0  0  0  0  0  0  0
    5.1459   10.9337   27.2255 C   0  0  0  0  0  0  0  0  0  0  0  0
    5.0761   11.3190   28.6862 C   0  0  0  0  0  0  0  0  0  0  0  0
    4.0483   11.8503   27.7367 C   0  0  0  0  0  0  0  0  0  0  0  0
    6.4801   12.8384   26.5547 N   0  0  0  0  0  0  0  0  0  0  0  0
    7.4915   13.4100   25.8916 C   0  0  0  0  0  0  0  0  0  0  0  0
    8.3570   12.7227   25.0568 C   0  0  0  0  0  0  0  0  0  0  0  0
    9.4625   13.3865   24.4632 N   0  0  0  0  0  0  0  0  0  0  0  0
   10.2519   14.1693   25.3593 N   0  0  0  0  0  0  0  0  0  0  0  0
    8.9738   14.0698   23.2472 C   0  0  0  0  0  0  0  0  0  0  0  0
   10.0278   14.1417   22.1605 C   0  0  1  0  0  0  0  0  0  0  0  0
    9.6256   15.0779   21.0500 C   0  0  0  0  0  0  0  0  0  0  0  0
   10.9221   15.2006   20.2948 C   0  0  0  0  0  0  0  0  0  0  0  0
   11.9489   15.2386   21.2973 O   0  0  0  0  0  0  0  0  0  0  0  0
   11.4342   14.6042   22.4751 C   0  0  0  0  0  0  0  0  0  0  0  0
  1  2  1  0
  2  3  1  0
  3  4  2  0
  3  5  1  0
  5  6  2  0
  6  7  1  0
  7  8  1  0
  8  9  1  0
  9 10  1  0
  7 11  2  0
 11 12  1  0
 12 13  2  0
 13 14  1  0
 14 15  1  0
 14 16  1  0
 17 16  1  1
 17 18  1  0
 18 19  1  0
 19 20  1  0
 20 21  1  0
 13  5  1  0
 21 17  1  0
 10  8  1  0
M  END
>  <energy_score>  (633) 
-33.186995

>  <inchikey>  (633) 
None

>  <smiles>  (633) 
None

>  <ref_pdb>  (633) 
A0514a

>  <alias>  (633) 
None

>  <HIPPO Pose ID>  (633) 
498277

>  <name>  (633) 
P498277

>  <HIPPO Compound ID>  (633) 
292643

>  <ref_mols>  (633) 
A4331a,A0514a

>  <distance_score>  (633) 
1.643304

>  <inspiration_score>  (633) 
None

$$$$
P498278
     RDKit          3D

 21 23  0  0  0  0  0  0  0  0999 V2000
    9.3611    8.5826   23.0114 C   0  0  0  0  0  0  0  0  0  0  0  0
    8.4976    9.3513   23.8514 O   0  0  0  0  0  0  0  0  0  0  0  0
    8.9181   10.6253   24.0302 C   0  0  0  0  0  0  0  0  0  0  0  0
    9.9345   11.0970   23.5533 O   0  0  0  0  0  0  0  0  0  0  0  0
    7.9576   11.3717   24.8887 C   0  0  0  0  0  0  0  0  0  0  0  0
    6.9337   10.6964   25.5662 C   0  0  0  0  0  0  0  0  0  0  0  0
    6.0898   11.4149   26.4052 C   0  0  0  0  0  0  0  0  0  0  0  0
    5.1361   10.7537   27.3575 C   0  0  0  0  0  0  0  0  0  0  0  0
    3.9416   11.5167   27.8914 C   0  0  0  0  0  0  0  0  0  0  0  0
    5.1195   11.2756   28.7822 C   0  0  0  0  0  0  0  0  0  0  0  0
    6.1708   12.7608   26.4944 N   0  0  0  0  0  0  0  0  0  0  0  0
    7.1395   13.3939   25.8272 C   0  0  0  0  0  0  0  0  0  0  0  0
    8.1098   12.7539   25.0735 C   0  0  0  0  0  0  0  0  0  0  0  0
    9.1974   13.4878   24.5472 N   0  0  0  0  0  0  0  0  0  0  0  0
    9.8787   14.3473   25.4589 N   0  0  0  0  0  0  0  0  0  0  0  0
    8.7984   14.0939   23.2643 C   0  0  0  0  0  0  0  0  0  0  0  0
    9.9380   14.1150   22.2576 C   0  0  0  0  0  0  0  0  0  0  0  0
   11.3603   14.4621   22.6935 C   0  0  0  0  0  0  0  0  0  0  0  0
   12.0012   15.1447   21.4885 C   0  0  0  0  0  0  0  0  0  0  0  0
   10.9524   15.1433   20.3846 C   0  0  0  0  0  0  0  0  0  0  0  0
    9.6355   15.0770   21.1202 C   0  0  0  0  0  0  0  0  0  0  0  0
  1  2  1  0
  2  3  1  0
  3  4  2  0
  3  5  1  0
  5  6  2  0
  6  7  1  0
  7  8  1  0
  8  9  1  0
  9 10  1  0
  7 11  2  0
 11 12  1  0
 12 13  2  0
 13 14  1  0
 14 15  1  0
 14 16  1  0
 16 17  1  0
 17 18  1  0
 18 19  1  0
 19 20  1  0
 20 21  1  0
 13  5  1  0
 21 17  1  0
 10  8  1  0
M  END
>  <energy_score>  (634) 
-22.384969

>  <inchikey>  (634) 
None

>  <smiles>  (634) 
None

>  <ref_pdb>  (634) 
A0514a

>  <alias>  (634) 
None

>  <HIPPO Pose ID>  (634) 
498278

>  <name>  (634) 
P498278

>  <HIPPO Compound ID>  (634) 
292644

>  <ref_mols>  (634) 
A4331a,A0514a

>  <distance_score>  (634) 
1.820069

>  <inspiration_score>  (634) 
None

$$$$
P498279
     RDKit          3D

 21 23  0  0  0  0  0  0  0  0999 V2000
    9.0166    8.3167   22.8836 C   0  0  0  0  0  0  0  0  0  0  0  0
    8.2302    9.1589   23.7312 O   0  0  0  0  0  0  0  0  0  0  0  0
    8.9373   10.2600   24.0582 C   0  0  0  0  0  0  0  0  0  0  0  0
   10.0943   10.4330   23.7113 O   0  0  0  0  0  0  0  0  0  0  0  0
    8.1378   11.2535   24.8273 C   0  0  0  0  0  0  0  0  0  0  0  0
    6.9344   10.9247   25.4575 C   0  0  0  0  0  0  0  0  0  0  0  0
    6.2828   11.9135   26.1947 C   0  0  0  0  0  0  0  0  0  0  0  0
    4.9980   11.7191   26.9266 C   0  0  0  0  0  0  0  0  0  0  0  0
    4.8473   10.7477   28.0593 C   0  0  0  0  0  0  0  0  0  0  0  0
    4.9334   12.2131   28.3593 C   0  0  0  0  0  0  0  0  0  0  0  0
    6.7771   13.1655   26.3071 N   0  0  0  0  0  0  0  0  0  0  0  0
    7.9226   13.4607   25.6890 C   0  0  0  0  0  0  0  0  0  0  0  0
    8.6584   12.5520   24.9548 C   0  0  0  0  0  0  0  0  0  0  0  0
    9.8578   12.9399   24.3580 N   0  0  0  0  0  0  0  0  0  0  0  0
   10.8599   13.5622   25.1380 N   0  0  0  0  0  0  0  0  0  0  0  0
    9.7756   13.1391   22.8949 C   0  0  0  0  0  0  0  0  0  0  0  0
    9.8647   14.6158   22.5959 C   0  0  2  0  0  0  0  0  0  0  0  0
    9.5774   15.0678   21.1914 C   0  0  0  0  0  0  0  0  0  0  0  0
   10.9253   15.0478   20.5291 C   0  0  0  0  0  0  0  0  0  0  0  0
   11.9171   15.1905   21.6623 C   0  0  0  0  0  0  0  0  0  0  0  0
   11.2100   15.0413   22.8966 O   0  0  0  0  0  0  0  0  0  0  0  0
  1  2  1  0
  2  3  1  0
  3  4  2  0
  3  5  1  0
  5  6  2  0
  6  7  1  0
  7  8  1  0
  8  9  1  0
  9 10  1  0
  7 11  2  0
 11 12  1  0
 12 13  2  0
 13 14  1  0
 14 15  1  0
 14 16  1  0
 17 16  1  6
 17 18  1  0
 18 19  1  0
 19 20  1  0
 20 21  1  0
 13  5  1  0
 21 17  1  0
 10  8  1  0
M  END
>  <energy_score>  (635) 
-19.661421

>  <inchikey>  (635) 
None

>  <smiles>  (635) 
None

>  <ref_pdb>  (635) 
A0514a

>  <alias>  (635) 
None

>  <HIPPO Pose ID>  (635) 
498279

>  <name>  (635) 
P498279

>  <HIPPO Compound ID>  (635) 
292645

>  <ref_mols>  (635) 
A4331a,A0514a

>  <distance_score>  (635) 
1.419675

>  <inspiration_score>  (635) 
None

$$$$
P498280
     RDKit          3D

 21 23  0  0  0  0  0  0  0  0999 V2000
    9.5983    8.5268   23.4698 C   0  0  0  0  0  0  0  0  0  0  0  0
    8.6184    9.1941   24.2688 O   0  0  0  0  0  0  0  0  0  0  0  0
    8.6263   10.5246   24.0164 C   0  0  0  0  0  0  0  0  0  0  0  0
    9.2890   11.0403   23.1318 O   0  0  0  0  0  0  0  0  0  0  0  0
    7.7589   11.2765   24.9606 C   0  0  0  0  0  0  0  0  0  0  0  0
    6.8255   10.6187   25.7726 C   0  0  0  0  0  0  0  0  0  0  0  0
    6.1277   11.3608   26.7225 C   0  0  0  0  0  0  0  0  0  0  0  0
    5.4321   10.7812   27.9107 C   0  0  0  0  0  0  0  0  0  0  0  0
    4.3246    9.7881   27.8792 C   0  0  0  0  0  0  0  0  0  0  0  0
    4.0071   11.2364   28.1290 C   0  0  0  0  0  0  0  0  0  0  0  0
    6.1909   12.7060   26.7571 N   0  0  0  0  0  0  0  0  0  0  0  0
    7.0637   13.3180   25.9539 C   0  0  0  0  0  0  0  0  0  0  0  0
    7.9439   12.6592   25.1087 C   0  0  0  0  0  0  0  0  0  0  0  0
    9.0360   13.3599   24.5432 N   0  0  0  0  0  0  0  0  0  0  0  0
    9.6814   14.2534   25.4447 N   0  0  0  0  0  0  0  0  0  0  0  0
    8.6722   13.8498   23.1939 C   0  0  0  0  0  0  0  0  0  0  0  0
    9.8736   14.4164   22.4704 C   0  0  1  0  0  0  0  0  0  0  0  0
   11.1596   13.6451   22.3854 C   0  0  0  0  0  0  0  0  0  0  0  0
   11.9088   14.5030   21.3850 C   0  0  0  0  0  0  0  0  0  0  0  0
   10.8159   15.1417   20.5372 C   0  0  0  0  0  0  0  0  0  0  0  0
    9.5594   14.7894   21.1323 O   0  0  0  0  0  0  0  0  0  0  0  0
  1  2  1  0
  2  3  1  0
  3  4  2  0
  3  5  1  0
  5  6  2  0
  6  7  1  0
  7  8  1  0
  8  9  1  0
  9 10  1  0
  7 11  2  0
 11 12  1  0
 12 13  2  0
 13 14  1  0
 14 15  1  0
 14 16  1  0
 17 16  1  6
 17 18  1  0
 18 19  1  0
 19 20  1  0
 20 21  1  0
 13  5  1  0
 21 17  1  0
 10  8  1  0
M  END
>  <energy_score>  (636) 
-37.506087

>  <inchikey>  (636) 
None

>  <smiles>  (636) 
None

>  <ref_pdb>  (636) 
A0514a

>  <alias>  (636) 
None

>  <HIPPO Pose ID>  (636) 
498280

>  <name>  (636) 
P498280

>  <HIPPO Compound ID>  (636) 
292645

>  <ref_mols>  (636) 
A4331a,A0514a

>  <distance_score>  (636) 
1.928018

>  <inspiration_score>  (636) 
None

$$$$
P498281
     RDKit          3D

 21 22  0  0  0  0  0  0  0  0999 V2000
    9.3217    8.5831   23.3480 C   0  0  0  0  0  0  0  0  0  0  0  0
    8.6094    9.4120   24.2742 O   0  0  0  0  0  0  0  0  0  0  0  0
    8.6355   10.7168   23.9264 C   0  0  0  0  0  0  0  0  0  0  0  0
    9.1491   11.1727   22.9211 O   0  0  0  0  0  0  0  0  0  0  0  0
    7.9353   11.5642   24.9089 C   0  0  0  0  0  0  0  0  0  0  0  0
    6.8370   11.0775   25.6238 C   0  0  0  0  0  0  0  0  0  0  0  0
    6.1645   11.9536   26.4688 C   0  0  0  0  0  0  0  0  0  0  0  0
    4.9294   11.6100   27.2275 C   0  0  0  0  0  0  0  0  0  0  0  0
    4.8983   10.5691   28.3033 C   0  0  0  0  0  0  0  0  0  0  0  0
    4.8771   12.0183   28.6854 C   0  0  0  0  0  0  0  0  0  0  0  0
    6.5704   13.2304   26.6416 N   0  0  0  0  0  0  0  0  0  0  0  0
    7.6154   13.6766   25.9400 C   0  0  0  0  0  0  0  0  0  0  0  0
    8.3444   12.8981   25.0585 C   0  0  0  0  0  0  0  0  0  0  0  0
    9.4170   13.4643   24.3164 N   0  0  0  0  0  0  0  0  0  0  0  0
   10.3688   14.1807   25.1014 N   0  0  0  0  0  0  0  0  0  0  0  0
    8.8223   14.1600   23.1548 C   0  0  0  0  0  0  0  0  0  0  0  0
    9.6951   14.4732   21.9652 C   0  0  0  0  0  0  0  0  0  0  0  0
   11.4336   14.1657   21.9639 S   0  0  0  0  0  0  0  0  0  0  0  0
   12.0989   15.4910   22.7228 N   0  0  0  0  0  0  0  0  0  0  0  0
   11.8452   13.0668   22.8021 O   0  0  0  0  0  0  0  0  0  0  0  0
   11.9251   14.3740   20.6203 O   0  0  0  0  0  0  0  0  0  0  0  0
  1  2  1  0
  2  3  1  0
  3  4  2  0
  3  5  1  0
  5  6  2  0
  6  7  1  0
  7  8  1  0
  8  9  1  0
  9 10  1  0
  7 11  2  0
 11 12  1  0
 12 13  2  0
 13 14  1  0
 14 15  1  0
 14 16  1  0
 16 17  1  0
 17 18  1  0
 18 19  1  0
 18 20  2  0
 18 21  2  0
 13  5  1  0
 10  8  1  0
M  END
>  <energy_score>  (637) 
-30.430458

>  <inchikey>  (637) 
None

>  <smiles>  (637) 
None

>  <ref_pdb>  (637) 
A0514a

>  <alias>  (637) 
None

>  <HIPPO Pose ID>  (637) 
498281

>  <name>  (637) 
P498281

>  <HIPPO Compound ID>  (637) 
292648

>  <ref_mols>  (637) 
A4331a,A0514a

>  <distance_score>  (637) 
1.63642

>  <inspiration_score>  (637) 
None

$$$$
P498282
     RDKit          3D

 21 23  0  0  0  0  0  0  0  0999 V2000
    9.5720    9.2123   23.0922 C   0  0  0  0  0  0  0  0  0  0  0  0
    8.5231   10.0323   23.6084 O   0  0  0  0  0  0  0  0  0  0  0  0
    8.9273   11.2355   24.0879 C   0  0  0  0  0  0  0  0  0  0  0  0
   10.0530   11.6842   24.0391 O   0  0  0  0  0  0  0  0  0  0  0  0
    7.7862   11.8737   24.7781 C   0  0  0  0  0  0  0  0  0  0  0  0
    7.0044   10.9868   25.5566 C   0  0  0  0  0  0  0  0  0  0  0  0
    6.0329   11.4785   26.4123 C   0  0  0  0  0  0  0  0  0  0  0  0
    5.3031   10.6186   27.3970 C   0  0  0  0  0  0  0  0  0  0  0  0
    4.0736   11.1435   28.1066 C   0  0  0  0  0  0  0  0  0  0  0  0
    5.3693   11.0431   28.8502 C   0  0  0  0  0  0  0  0  0  0  0  0
    5.8012   12.7980   26.4906 N   0  0  0  0  0  0  0  0  0  0  0  0
    6.5297   13.6177   25.7255 C   0  0  0  0  0  0  0  0  0  0  0  0
    7.5361   13.2464   24.8299 C   0  0  0  0  0  0  0  0  0  0  0  0
    8.1786   14.3439   24.2218 N   0  0  0  0  0  0  0  0  0  0  0  0
    8.8281   14.3908   23.0211 C   0  0  0  0  0  0  0  0  0  0  0  0
   10.0285   14.0068   22.7646 N   0  0  0  0  0  0  0  0  0  0  0  0
   10.3242   14.4118   21.5084 N   0  0  0  0  0  0  0  0  0  0  0  0
   11.7215   14.6738   21.1963 C   0  0  0  0  0  0  0  0  0  0  0  0
    9.3360   15.3144   20.9296 C   0  0  2  0  0  0  0  0  0  0  0  0
    9.7410   16.7501   20.6277 C   0  0  0  0  0  0  0  0  0  0  0  0
    8.1696   15.1256   21.8825 C   0  0  0  0  0  0  0  0  0  0  0  0
  1  2  1  0
  2  3  1  0
  3  4  2  0
  3  5  1  0
  5  6  2  0
  6  7  1  0
  7  8  1  0
  8  9  1  0
  9 10  1  0
  7 11  2  0
 11 12  1  0
 12 13  2  0
 13 14  1  0
 14 15  1  0
 15 16  2  0
 16 17  1  0
 17 18  1  0
 17 19  1  0
 19 20  1  1
 19 21  1  0
 13  5  1  0
 21 15  1  0
 10  8  1  0
M  END
>  <energy_score>  (638) 
-0.764968

>  <inchikey>  (638) 
None

>  <smiles>  (638) 
None

>  <ref_pdb>  (638) 
A0514a

>  <alias>  (638) 
None

>  <HIPPO Pose ID>  (638) 
498282

>  <name>  (638) 
P498282

>  <HIPPO Compound ID>  (638) 
292652

>  <ref_mols>  (638) 
A4331a,A0514a

>  <distance_score>  (638) 
1.830666

>  <inspiration_score>  (638) 
None

$$$$
P498283
     RDKit          3D

 21 23  0  0  0  0  0  0  0  0999 V2000
    9.2487    8.5349   22.9962 C   0  0  0  0  0  0  0  0  0  0  0  0
    8.3733    9.2719   23.8546 O   0  0  0  0  0  0  0  0  0  0  0  0
    8.8276   10.5179   24.1151 C   0  0  0  0  0  0  0  0  0  0  0  0
    9.8745   10.9744   23.6954 O   0  0  0  0  0  0  0  0  0  0  0  0
    7.9010   11.2503   25.0238 C   0  0  0  0  0  0  0  0  0  0  0  0
    6.8026   10.6034   25.6024 C   0  0  0  0  0  0  0  0  0  0  0  0
    6.0140   11.2953   26.5169 C   0  0  0  0  0  0  0  0  0  0  0  0
    4.9836   10.6318   27.3817 C   0  0  0  0  0  0  0  0  0  0  0  0
    3.8122   11.4351   27.9118 C   0  0  0  0  0  0  0  0  0  0  0  0
    4.9255   11.0587   28.8368 C   0  0  0  0  0  0  0  0  0  0  0  0
    6.2208   12.6068   26.7742 N   0  0  0  0  0  0  0  0  0  0  0  0
    7.2626   13.2118   26.2154 C   0  0  0  0  0  0  0  0  0  0  0  0
    8.1847   12.5690   25.4066 C   0  0  0  0  0  0  0  0  0  0  0  0
    9.3248   13.2890   24.9935 N   0  0  0  0  0  0  0  0  0  0  0  0
    9.2412   13.9371   23.7954 C   0  0  0  0  0  0  0  0  0  0  0  0
   10.1745   13.9319   22.9060 N   0  0  0  0  0  0  0  0  0  0  0  0
    9.6997   14.5939   21.8461 N   0  0  0  0  0  0  0  0  0  0  0  0
   10.6333   15.2753   20.9663 C   0  0  0  0  0  0  0  0  0  0  0  0
    8.3917   15.2042   22.0663 C   0  0  1  0  0  0  0  0  0  0  0  0
    7.3633   14.5369   21.2213 C   0  0  0  0  0  0  0  0  0  0  0  0
    8.0555   14.8013   23.4859 C   0  0  0  0  0  0  0  0  0  0  0  0
  1  2  1  0
  2  3  1  0
  3  4  2  0
  3  5  1  0
  5  6  2  0
  6  7  1  0
  7  8  1  0
  8  9  1  0
  9 10  1  0
  7 11  2  0
 11 12  1  0
 12 13  2  0
 13 14  1  0
 14 15  1  0
 15 16  2  0
 16 17  1  0
 17 18  1  0
 17 19  1  0
 19 20  1  6
 19 21  1  0
 13  5  1  0
 21 15  1  0
 10  8  1  0
M  END
>  <energy_score>  (639) 
-7.135324

>  <inchikey>  (639) 
None

>  <smiles>  (639) 
None

>  <ref_pdb>  (639) 
A0514a

>  <alias>  (639) 
None

>  <HIPPO Pose ID>  (639) 
498283

>  <name>  (639) 
P498283

>  <HIPPO Compound ID>  (639) 
292652

>  <ref_mols>  (639) 
A4331a,A0514a

>  <distance_score>  (639) 
1.736719

>  <inspiration_score>  (639) 
None

$$$$
P498284
     RDKit          3D

 21 22  0  0  0  0  0  0  0  0999 V2000
    9.3793    8.7235   23.3187 C   0  0  0  0  0  0  0  0  0  0  0  0
    8.5938    9.4302   24.2877 O   0  0  0  0  0  0  0  0  0  0  0  0
    8.4652   10.7541   24.0449 C   0  0  0  0  0  0  0  0  0  0  0  0
    8.9130   11.3466   23.0782 O   0  0  0  0  0  0  0  0  0  0  0  0
    7.6168   11.4157   25.0608 C   0  0  0  0  0  0  0  0  0  0  0  0
    6.7378   10.6635   25.8508 C   0  0  0  0  0  0  0  0  0  0  0  0
    5.9859   11.3219   26.8156 C   0  0  0  0  0  0  0  0  0  0  0  0
    5.3454   10.6548   27.9858 C   0  0  0  0  0  0  0  0  0  0  0  0
    4.2505    9.6477   27.9293 C   0  0  0  0  0  0  0  0  0  0  0  0
    3.9201   11.0700   28.2800 C   0  0  0  0  0  0  0  0  0  0  0  0
    5.9324   12.6655   26.8726 N   0  0  0  0  0  0  0  0  0  0  0  0
    6.7734   13.3643   26.1069 C   0  0  0  0  0  0  0  0  0  0  0  0
    7.7107   12.8016   25.2540 C   0  0  0  0  0  0  0  0  0  0  0  0
    8.7779   13.5930   24.7689 N   0  0  0  0  0  0  0  0  0  0  0  0
    9.2694   14.5072   25.7481 N   0  0  0  0  0  0  0  0  0  0  0  0
    8.5129   14.1237   23.4239 C   0  0  0  0  0  0  0  0  0  0  0  0
    9.7277   14.2456   22.5268 C   0  0  0  0  0  0  0  0  0  0  0  0
   11.3494   14.0385   23.2280 S   0  0  0  0  0  0  0  0  0  0  0  0
   12.3287   14.7894   21.9617 C   0  0  0  0  0  0  0  0  0  0  0  0
   11.5431   14.8490   24.4166 O   0  0  0  0  0  0  0  0  0  0  0  0
   11.6968   12.6390   23.3101 O   0  0  0  0  0  0  0  0  0  0  0  0
  1  2  1  0
  2  3  1  0
  3  4  2  0
  3  5  1  0
  5  6  2  0
  6  7  1  0
  7  8  1  0
  8  9  1  0
  9 10  1  0
  7 11  2  0
 11 12  1  0
 12 13  2  0
 13 14  1  0
 14 15  1  0
 14 16  1  0
 16 17  1  0
 17 18  1  0
 18 19  1  0
 18 20  2  0
 18 21  2  0
 13  5  1  0
 10  8  1  0
M  END
>  <energy_score>  (640) 
-32.391442

>  <inchikey>  (640) 
None

>  <smiles>  (640) 
None

>  <ref_pdb>  (640) 
A0514a

>  <alias>  (640) 
None

>  <HIPPO Pose ID>  (640) 
498284

>  <name>  (640) 
P498284

>  <HIPPO Compound ID>  (640) 
292653

>  <ref_mols>  (640) 
A4331a,A0514a

>  <distance_score>  (640) 
1.826404

>  <inspiration_score>  (640) 
None

$$$$
P498285
     RDKit          3D

 21 23  0  0  0  0  0  0  0  0999 V2000
    9.6042    8.5618   23.4757 C   0  0  0  0  0  0  0  0  0  0  0  0
    8.7528    9.4487   24.2010 O   0  0  0  0  0  0  0  0  0  0  0  0
    8.9574   10.7286   23.8087 C   0  0  0  0  0  0  0  0  0  0  0  0
    9.7114   11.0571   22.9106 O   0  0  0  0  0  0  0  0  0  0  0  0
    8.1590   11.6845   24.6033 C   0  0  0  0  0  0  0  0  0  0  0  0
    7.0164   11.2678   25.2991 C   0  0  0  0  0  0  0  0  0  0  0  0
    6.2845   12.2202   25.9989 C   0  0  0  0  0  0  0  0  0  0  0  0
    5.0611   11.9222   26.8011 C   0  0  0  0  0  0  0  0  0  0  0  0
    5.0359   10.9366   27.9317 C   0  0  0  0  0  0  0  0  0  0  0  0
    5.0486   12.4031   28.2388 C   0  0  0  0  0  0  0  0  0  0  0  0
    6.6358   13.5245   25.9914 N   0  0  0  0  0  0  0  0  0  0  0  0
    7.7336   13.8997   25.3181 C   0  0  0  0  0  0  0  0  0  0  0  0
    8.5607   13.0274   24.6382 C   0  0  0  0  0  0  0  0  0  0  0  0
    9.8319   13.4759   24.2285 N   0  0  0  0  0  0  0  0  0  0  0  0
   10.8445   13.2438   25.1867 N   0  0  0  0  0  0  0  0  0  0  0  0
   10.2098   14.0445   23.0507 C   0  0  0  0  0  0  0  0  0  0  0  0
   11.5461   14.3072   22.6757 C   0  0  0  0  0  0  0  0  0  0  0  0
   11.6513   14.9527   21.5274 N   0  0  0  0  0  0  0  0  0  0  0  0
   10.3862   15.0672   21.1222 N   0  0  0  0  0  0  0  0  0  0  0  0
   10.1612   15.7694   19.8879 C   0  0  0  0  0  0  0  0  0  0  0  0
    9.4675   14.5143   21.9908 C   0  0  0  0  0  0  0  0  0  0  0  0
  1  2  1  0
  2  3  1  0
  3  4  2  0
  3  5  1  0
  5  6  2  0
  6  7  1  0
  7  8  1  0
  8  9  1  0
  9 10  1  0
  7 11  2  0
 11 12  1  0
 12 13  2  0
 13 14  1  0
 14 15  1  0
 14 16  1  0
 16 17  1  0
 17 18  2  0
 18 19  1  0
 19 20  1  0
 19 21  1  0
 13  5  1  0
 21 16  2  0
 10  8  1  0
M  END
>  <energy_score>  (641) 
-44.658911

>  <inchikey>  (641) 
None

>  <smiles>  (641) 
None

>  <ref_pdb>  (641) 
A0514a

>  <alias>  (641) 
None

>  <HIPPO Pose ID>  (641) 
498285

>  <name>  (641) 
P498285

>  <HIPPO Compound ID>  (641) 
292657

>  <ref_mols>  (641) 
A4331a,A0514a

>  <distance_score>  (641) 
1.687782

>  <inspiration_score>  (641) 
None

$$$$
P498286
     RDKit          3D

 21 23  0  0  0  0  0  0  0  0999 V2000
    9.6677    8.5649   23.4074 C   0  0  0  0  0  0  0  0  0  0  0  0
    8.6886    9.2514   24.1892 O   0  0  0  0  0  0  0  0  0  0  0  0
    8.7255   10.5831   23.9536 C   0  0  0  0  0  0  0  0  0  0  0  0
    9.4045   11.1183   23.0955 O   0  0  0  0  0  0  0  0  0  0  0  0
    7.8584   11.3215   24.9037 C   0  0  0  0  0  0  0  0  0  0  0  0
    6.8413   10.6642   25.6023 C   0  0  0  0  0  0  0  0  0  0  0  0
    6.0789   11.3880   26.5112 C   0  0  0  0  0  0  0  0  0  0  0  0
    5.0823   10.7477   27.4329 C   0  0  0  0  0  0  0  0  0  0  0  0
    3.8746   11.5350   27.8975 C   0  0  0  0  0  0  0  0  0  0  0  0
    5.0011   11.2836   28.8497 C   0  0  0  0  0  0  0  0  0  0  0  0
    6.2628   12.7176   26.6822 N   0  0  0  0  0  0  0  0  0  0  0  0
    7.2336   13.3325   26.0004 C   0  0  0  0  0  0  0  0  0  0  0  0
    8.0921   12.6870   25.1303 C   0  0  0  0  0  0  0  0  0  0  0  0
    9.1548   13.3923   24.5276 N   0  0  0  0  0  0  0  0  0  0  0  0
    9.9359   14.2159   25.3992 N   0  0  0  0  0  0  0  0  0  0  0  0
    8.6697   14.0008   23.2588 C   0  0  0  0  0  0  0  0  0  0  0  0
    9.7396   14.4235   22.3074 C   0  0  0  0  0  0  0  0  0  0  0  0
    9.5051   15.2723   21.1861 C   0  0  0  0  0  0  0  0  0  0  0  0
   10.6422   15.4861   20.4462 C   0  0  0  0  0  0  0  0  0  0  0  0
   12.0196   14.8082   21.1903 S   0  0  0  0  0  0  0  0  0  0  0  0
   11.0666   14.0451   22.3697 C   0  0  0  0  0  0  0  0  0  0  0  0
  1  2  1  0
  2  3  1  0
  3  4  2  0
  3  5  1  0
  5  6  2  0
  6  7  1  0
  7  8  1  0
  8  9  1  0
  9 10  1  0
  7 11  2  0
 11 12  1  0
 12 13  2  0
 13 14  1  0
 14 15  1  0
 14 16  1  0
 16 17  1  0
 17 18  1  0
 18 19  2  0
 19 20  1  0
 20 21  1  0
 13  5  1  0
 21 17  2  0
 10  8  1  0
M  END
>  <energy_score>  (642) 
-41.045685

>  <inchikey>  (642) 
None

>  <smiles>  (642) 
None

>  <ref_pdb>  (642) 
A0514a

>  <alias>  (642) 
None

>  <HIPPO Pose ID>  (642) 
498286

>  <name>  (642) 
P498286

>  <HIPPO Compound ID>  (642) 
292658

>  <ref_mols>  (642) 
A4331a,A0514a

>  <distance_score>  (642) 
1.435738

>  <inspiration_score>  (642) 
None

$$$$
P498287
     RDKit          3D

 21 23  0  0  0  0  0  0  0  0999 V2000
    9.7179    8.5463   23.3943 C   0  0  0  0  0  0  0  0  0  0  0  0
    8.7621    9.2867   24.1520 O   0  0  0  0  0  0  0  0  0  0  0  0
    8.8639   10.6128   23.8940 C   0  0  0  0  0  0  0  0  0  0  0  0
    9.6060   11.0928   23.0559 O   0  0  0  0  0  0  0  0  0  0  0  0
    7.9801   11.4084   24.7769 C   0  0  0  0  0  0  0  0  0  0  0  0
    6.9440   10.7872   25.4850 C   0  0  0  0  0  0  0  0  0  0  0  0
    6.1422   11.5595   26.3157 C   0  0  0  0  0  0  0  0  0  0  0  0
    5.1652   10.9583   27.2861 C   0  0  0  0  0  0  0  0  0  0  0  0
    3.9754   11.7637   27.7633 C   0  0  0  0  0  0  0  0  0  0  0  0
    5.1334   11.5440   28.6855 C   0  0  0  0  0  0  0  0  0  0  0  0
    6.2828   12.9033   26.3684 N   0  0  0  0  0  0  0  0  0  0  0  0
    7.2753   13.4825   25.6800 C   0  0  0  0  0  0  0  0  0  0  0  0
    8.1949   12.7866   24.9195 C   0  0  0  0  0  0  0  0  0  0  0  0
    9.3328   13.4896   24.4787 N   0  0  0  0  0  0  0  0  0  0  0  0
   10.5717   13.0523   25.0593 N   0  0  0  0  0  0  0  0  0  0  0  0
    9.5010   14.0349   23.2388 C   0  0  0  0  0  0  0  0  0  0  0  0
    8.5032   14.4545   22.3399 C   0  0  0  0  0  0  0  0  0  0  0  0
    9.2006   14.9416   21.2585 C   0  0  0  0  0  0  0  0  0  0  0  0
   10.5182   14.7591   21.5369 N   0  0  0  0  0  0  0  0  0  0  0  0
   11.6604   15.0719   20.7238 C   0  0  0  0  0  0  0  0  0  0  0  0
   10.7262   14.2666   22.7564 N   0  0  0  0  0  0  0  0  0  0  0  0
  1  2  1  0
  2  3  1  0
  3  4  2  0
  3  5  1  0
  5  6  2  0
  6  7  1  0
  7  8  1  0
  8  9  1  0
  9 10  1  0
  7 11  2  0
 11 12  1  0
 12 13  2  0
 13 14  1  0
 14 15  1  0
 14 16  1  0
 16 17  1  0
 17 18  2  0
 18 19  1  0
 19 20  1  0
 19 21  1  0
 13  5  1  0
 21 16  2  0
 10  8  1  0
M  END
>  <energy_score>  (643) 
-21.380749

>  <inchikey>  (643) 
None

>  <smiles>  (643) 
None

>  <ref_pdb>  (643) 
A0514a

>  <alias>  (643) 
None

>  <HIPPO Pose ID>  (643) 
498287

>  <name>  (643) 
P498287

>  <HIPPO Compound ID>  (643) 
292659

>  <ref_mols>  (643) 
A4331a,A0514a

>  <distance_score>  (643) 
1.963213

>  <inspiration_score>  (643) 
None

$$$$
P498288
     RDKit          3D

 21 22  0  0  0  0  0  0  0  0999 V2000
    9.4132    8.5359   23.0892 C   0  0  0  0  0  0  0  0  0  0  0  0
    8.6788    9.3436   24.0124 O   0  0  0  0  0  0  0  0  0  0  0  0
    8.8768   10.6737   23.8771 C   0  0  0  0  0  0  0  0  0  0  0  0
    9.6069   11.2019   23.0576 O   0  0  0  0  0  0  0  0  0  0  0  0
    8.0505   11.4238   24.8557 C   0  0  0  0  0  0  0  0  0  0  0  0
    6.9696   10.8013   25.4966 C   0  0  0  0  0  0  0  0  0  0  0  0
    6.2082   11.5331   26.3996 C   0  0  0  0  0  0  0  0  0  0  0  0
    5.1548   10.9128   27.2728 C   0  0  0  0  0  0  0  0  0  0  0  0
    3.9719   11.7419   27.7310 C   0  0  0  0  0  0  0  0  0  0  0  0
    5.0575   11.4073   28.7041 C   0  0  0  0  0  0  0  0  0  0  0  0
    6.4451   12.8478   26.6086 N   0  0  0  0  0  0  0  0  0  0  0  0
    7.4763   13.4264   25.9828 C   0  0  0  0  0  0  0  0  0  0  0  0
    8.3566   12.7626   25.1441 C   0  0  0  0  0  0  0  0  0  0  0  0
    9.5096   13.4214   24.6422 N   0  0  0  0  0  0  0  0  0  0  0  0
   10.2990   14.1003   25.6054 N   0  0  0  0  0  0  0  0  0  0  0  0
    9.1352   14.1467   23.4091 C   0  0  0  0  0  0  0  0  0  0  0  0
   10.3811   14.4933   22.5769 C   0  0  0  0  0  0  0  0  0  0  0  0
   10.0931   15.2260   21.2534 C   0  0  0  0  0  0  0  0  0  0  0  0
    8.7415   14.8445   20.7411 C   0  0  0  0  0  0  0  0  0  0  0  0
   11.2372   15.0079   20.2773 C   0  0  0  0  0  0  0  0  0  0  0  0
    9.9603   16.6323   21.3117 O   0  0  0  0  0  0  0  0  0  0  0  0
  1  2  1  0
  2  3  1  0
  3  4  2  0
  3  5  1  0
  5  6  2  0
  6  7  1  0
  7  8  1  0
  8  9  1  0
  9 10  1  0
  7 11  2  0
 11 12  1  0
 12 13  2  0
 13 14  1  0
 14 15  1  0
 14 16  1  0
 16 17  1  0
 17 18  1  0
 18 19  1  0
 18 20  1  0
 18 21  1  0
 13  5  1  0
 10  8  1  0
M  END
>  <energy_score>  (644) 
-33.153014

>  <inchikey>  (644) 
None

>  <smiles>  (644) 
None

>  <ref_pdb>  (644) 
A0514a

>  <alias>  (644) 
None

>  <HIPPO Pose ID>  (644) 
498288

>  <name>  (644) 
P498288

>  <HIPPO Compound ID>  (644) 
292660

>  <ref_mols>  (644) 
A4331a,A0514a

>  <distance_score>  (644) 
1.54082

>  <inspiration_score>  (644) 
None

$$$$
P498289
     RDKit          3D

 21 22  0  0  0  0  0  0  0  0999 V2000
    9.1988    8.7630   23.5988 C   0  0  0  0  0  0  0  0  0  0  0  0
    8.5223    9.5397   24.5970 O   0  0  0  0  0  0  0  0  0  0  0  0
    8.3379   10.8082   24.1748 C   0  0  0  0  0  0  0  0  0  0  0  0
    8.6029   11.2149   23.0621 O   0  0  0  0  0  0  0  0  0  0  0  0
    7.7074   11.6821   25.1574 C   0  0  0  0  0  0  0  0  0  0  0  0
    6.5683   11.2101   25.8084 C   0  0  0  0  0  0  0  0  0  0  0  0
    5.8742   12.0939   26.6160 C   0  0  0  0  0  0  0  0  0  0  0  0
    4.6559   11.7254   27.3868 C   0  0  0  0  0  0  0  0  0  0  0  0
    4.6773   10.6547   28.4367 C   0  0  0  0  0  0  0  0  0  0  0  0
    4.6371   12.0943   28.8542 C   0  0  0  0  0  0  0  0  0  0  0  0
    6.2651   13.3760   26.7668 N   0  0  0  0  0  0  0  0  0  0  0  0
    7.3648   13.8016   26.1299 C   0  0  0  0  0  0  0  0  0  0  0  0
    8.1631   13.0008   25.3333 C   0  0  0  0  0  0  0  0  0  0  0  0
    9.3916   13.4930   24.8111 N   0  0  0  0  0  0  0  0  0  0  0  0
   10.0894   14.4025   25.6801 N   0  0  0  0  0  0  0  0  0  0  0  0
    9.1708   14.0451   23.4477 C   0  0  0  0  0  0  0  0  0  0  0  0
   10.4354   14.0284   22.5509 C   0  0  0  0  0  0  0  0  0  0  0  0
   10.9788   12.6089   22.4739 C   0  0  0  0  0  0  0  0  0  0  0  0
   10.0028   14.6055   21.1960 C   0  0  0  0  0  0  0  0  0  0  0  0
   11.6946   14.7938   22.9499 C   0  0  0  0  0  0  0  0  0  0  0  0
   12.2344   14.3500   24.1860 O   0  0  0  0  0  0  0  0  0  0  0  0
  1  2  1  0
  2  3  1  0
  3  4  2  0
  3  5  1  0
  5  6  2  0
  6  7  1  0
  7  8  1  0
  8  9  1  0
  9 10  1  0
  7 11  2  0
 11 12  1  0
 12 13  2  0
 13 14  1  0
 14 15  1  0
 14 16  1  0
 16 17  1  0
 17 18  1  0
 17 19  1  0
 17 20  1  0
 20 21  1  0
 13  5  1  0
 10  8  1  0
M  END
>  <energy_score>  (645) 
-28.884269

>  <inchikey>  (645) 
None

>  <smiles>  (645) 
None

>  <ref_pdb>  (645) 
A0514a

>  <alias>  (645) 
None

>  <HIPPO Pose ID>  (645) 
498289

>  <name>  (645) 
P498289

>  <HIPPO Compound ID>  (645) 
292661

>  <ref_mols>  (645) 
A4331a,A0514a

>  <distance_score>  (645) 
1.762869

>  <inspiration_score>  (645) 
None

$$$$
P498290
     RDKit          3D

 21 22  0  0  0  0  0  0  0  0999 V2000
    9.3484    8.6817   23.0690 C   0  0  0  0  0  0  0  0  0  0  0  0
    8.4397    9.4057   23.9030 O   0  0  0  0  0  0  0  0  0  0  0  0
    8.8087   10.6930   24.1157 C   0  0  0  0  0  0  0  0  0  0  0  0
    9.8320   11.1954   23.6879 O   0  0  0  0  0  0  0  0  0  0  0  0
    7.7918   11.3974   24.9463 C   0  0  0  0  0  0  0  0  0  0  0  0
    6.8187   10.6646   25.6354 C   0  0  0  0  0  0  0  0  0  0  0  0
    5.9361   11.3368   26.4714 C   0  0  0  0  0  0  0  0  0  0  0  0
    5.0552   10.6270   27.4556 C   0  0  0  0  0  0  0  0  0  0  0  0
    3.8548   11.3317   28.0506 C   0  0  0  0  0  0  0  0  0  0  0  0
    5.0838   11.1384   28.8834 C   0  0  0  0  0  0  0  0  0  0  0  0
    5.9192   12.6853   26.5361 N   0  0  0  0  0  0  0  0  0  0  0  0
    6.8399   13.3745   25.8585 C   0  0  0  0  0  0  0  0  0  0  0  0
    7.8485   12.7903   25.1129 C   0  0  0  0  0  0  0  0  0  0  0  0
    8.8930   13.5851   24.6057 N   0  0  0  0  0  0  0  0  0  0  0  0
    9.4762   14.5234   25.5074 N   0  0  0  0  0  0  0  0  0  0  0  0
    8.5444   14.1080   23.2685 C   0  0  0  0  0  0  0  0  0  0  0  0
    9.8294   14.2523   22.4827 C   0  0  0  0  0  0  0  0  0  0  0  0
    9.6432   15.0762   21.2195 C   0  0  0  0  0  0  0  0  0  0  0  0
   10.7948   14.9292   20.3352 N   0  0  0  0  0  0  0  0  0  0  0  0
   10.6419   15.7699   19.1482 C   0  0  0  0  0  0  0  0  0  0  0  0
   12.0820   15.1224   20.9916 C   0  0  0  0  0  0  0  0  0  0  0  0
  1  2  1  0
  2  3  1  0
  3  4  2  0
  3  5  1  0
  5  6  2  0
  6  7  1  0
  7  8  1  0
  8  9  1  0
  9 10  1  0
  7 11  2  0
 11 12  1  0
 12 13  2  0
 13 14  1  0
 14 15  1  0
 14 16  1  0
 16 17  1  0
 17 18  1  0
 18 19  1  0
 19 20  1  0
 19 21  1  0
 13  5  1  0
 10  8  1  0
M  END
>  <energy_score>  (646) 
-43.619761

>  <inchikey>  (646) 
None

>  <smiles>  (646) 
None

>  <ref_pdb>  (646) 
A0514a

>  <alias>  (646) 
None

>  <HIPPO Pose ID>  (646) 
498290

>  <name>  (646) 
P498290

>  <HIPPO Compound ID>  (646) 
292663

>  <ref_mols>  (646) 
A4331a,A0514a

>  <distance_score>  (646) 
1.535487

>  <inspiration_score>  (646) 
None

$$$$
P498291
     RDKit          3D

 21 23  0  0  0  0  0  0  0  0999 V2000
    9.3109    8.6484   23.0870 C   0  0  0  0  0  0  0  0  0  0  0  0
    8.3797    9.3252   23.9384 O   0  0  0  0  0  0  0  0  0  0  0  0
    8.7308   10.6019   24.2171 C   0  0  0  0  0  0  0  0  0  0  0  0
    9.7551   11.1360   23.8322 O   0  0  0  0  0  0  0  0  0  0  0  0
    7.6804   11.2779   25.0292 C   0  0  0  0  0  0  0  0  0  0  0  0
    6.7270   10.5037   25.7009 C   0  0  0  0  0  0  0  0  0  0  0  0
    5.8040   11.1319   26.5264 C   0  0  0  0  0  0  0  0  0  0  0  0
    4.9708   10.3942   27.5280 C   0  0  0  0  0  0  0  0  0  0  0  0
    3.7944   11.0750   28.1956 C   0  0  0  0  0  0  0  0  0  0  0  0
    5.0644   10.8764   28.9634 C   0  0  0  0  0  0  0  0  0  0  0  0
    5.7067   12.4741   26.5745 N   0  0  0  0  0  0  0  0  0  0  0  0
    6.6071   13.1996   25.9135 C   0  0  0  0  0  0  0  0  0  0  0  0
    7.6738   12.6738   25.1999 C   0  0  0  0  0  0  0  0  0  0  0  0
    8.6959   13.5384   24.7364 N   0  0  0  0  0  0  0  0  0  0  0  0
    8.9440   14.7078   25.5295 N   0  0  0  0  0  0  0  0  0  0  0  0
    8.5315   13.7564   23.2846 C   0  0  0  0  0  0  0  0  0  0  0  0
    9.7811   14.3806   22.7119 C   0  0  2  0  0  0  0  0  0  0  0  0
    9.5273   14.9333   21.3256 C   0  0  0  0  0  0  0  0  0  0  0  0
   10.8486   15.4228   20.7780 C   0  0  0  0  0  0  0  0  0  0  0  0
   12.1439   14.6026   21.7466 S   0  0  0  0  0  0  0  0  0  0  0  0
   11.0147   13.5197   22.6541 C   0  0  0  0  0  0  0  0  0  0  0  0
  1  2  1  0
  2  3  1  0
  3  4  2  0
  3  5  1  0
  5  6  2  0
  6  7  1  0
  7  8  1  0
  8  9  1  0
  9 10  1  0
  7 11  2  0
 11 12  1  0
 12 13  2  0
 13 14  1  0
 14 15  1  0
 14 16  1  0
 17 16  1  6
 17 18  1  0
 18 19  1  0
 19 20  1  0
 20 21  1  0
 13  5  1  0
 21 17  1  0
 10  8  1  0
M  END
>  <energy_score>  (647) 
-36.878266

>  <inchikey>  (647) 
None

>  <smiles>  (647) 
None

>  <ref_pdb>  (647) 
A0514a

>  <alias>  (647) 
None

>  <HIPPO Pose ID>  (647) 
498291

>  <name>  (647) 
P498291

>  <HIPPO Compound ID>  (647) 
292664

>  <ref_mols>  (647) 
A4331a,A0514a

>  <distance_score>  (647) 
1.550788

>  <inspiration_score>  (647) 
None

$$$$
P498292
     RDKit          3D

 21 23  0  0  0  0  0  0  0  0999 V2000
    9.4994    8.2971   23.4634 C   0  0  0  0  0  0  0  0  0  0  0  0
    8.6950    9.1054   24.3261 O   0  0  0  0  0  0  0  0  0  0  0  0
    8.7098   10.3669   23.8597 C   0  0  0  0  0  0  0  0  0  0  0  0
    9.2155   10.6858   22.8002 O   0  0  0  0  0  0  0  0  0  0  0  0
    8.0787   11.3428   24.7608 C   0  0  0  0  0  0  0  0  0  0  0  0
    6.8993   11.0191   25.4348 C   0  0  0  0  0  0  0  0  0  0  0  0
    6.2840   12.0114   26.1892 C   0  0  0  0  0  0  0  0  0  0  0  0
    5.0051   11.8253   26.9342 C   0  0  0  0  0  0  0  0  0  0  0  0
    4.8745   10.8705   28.0840 C   0  0  0  0  0  0  0  0  0  0  0  0
    4.9426   12.3427   28.3571 C   0  0  0  0  0  0  0  0  0  0  0  0
    6.8001   13.2571   26.2785 N   0  0  0  0  0  0  0  0  0  0  0  0
    7.9332   13.5392   25.6244 C   0  0  0  0  0  0  0  0  0  0  0  0
    8.6541   12.6195   24.8862 C   0  0  0  0  0  0  0  0  0  0  0  0
    9.9271   12.9449   24.3631 N   0  0  0  0  0  0  0  0  0  0  0  0
   10.7862   13.7511   25.1655 N   0  0  0  0  0  0  0  0  0  0  0  0
    9.8778   13.1859   22.8835 C   0  0  0  0  0  0  0  0  0  0  0  0
   10.2431   14.6067   22.5284 C   0  0  1  0  0  0  0  0  0  0  0  0
   11.7512   14.8353   22.4638 C   0  0  0  0  0  0  0  0  0  0  0  0
   12.2092   14.6464   21.0461 C   0  0  0  0  0  0  0  0  0  0  0  0
   10.8826   15.2798   20.0253 S   0  0  0  0  0  0  0  0  0  0  0  0
    9.5887   15.1290   21.2569 C   0  0  0  0  0  0  0  0  0  0  0  0
  1  2  1  0
  2  3  1  0
  3  4  2  0
  3  5  1  0
  5  6  2  0
  6  7  1  0
  7  8  1  0
  8  9  1  0
  9 10  1  0
  7 11  2  0
 11 12  1  0
 12 13  2  0
 13 14  1  0
 14 15  1  0
 14 16  1  0
 17 16  1  6
 17 18  1  0
 18 19  1  0
 19 20  1  0
 20 21  1  0
 13  5  1  0
 21 17  1  0
 10  8  1  0
M  END
>  <energy_score>  (648) 
-28.655361

>  <inchikey>  (648) 
None

>  <smiles>  (648) 
None

>  <ref_pdb>  (648) 
A0514a

>  <alias>  (648) 
None

>  <HIPPO Pose ID>  (648) 
498292

>  <name>  (648) 
P498292

>  <HIPPO Compound ID>  (648) 
292664

>  <ref_mols>  (648) 
A4331a,A0514a

>  <distance_score>  (648) 
1.781445

>  <inspiration_score>  (648) 
None

$$$$
P498293
     RDKit          3D

 21 23  0  0  0  0  0  0  0  0999 V2000
    9.5687    9.2375   23.0619 C   0  0  0  0  0  0  0  0  0  0  0  0
    9.1064   10.4825   23.6024 O   0  0  0  0  0  0  0  0  0  0  0  0
    7.9830   10.3813   24.3391 C   0  0  0  0  0  0  0  0  0  0  0  0
    7.3294    9.3707   24.5517 O   0  0  0  0  0  0  0  0  0  0  0  0
    7.6352   11.6494   24.9979 C   0  0  0  0  0  0  0  0  0  0  0  0
    6.8641   11.4943   26.1498 C   0  0  0  0  0  0  0  0  0  0  0  0
    6.5492   12.5874   26.9376 C   0  0  0  0  0  0  0  0  0  0  0  0
    5.6224   12.4388   28.1008 C   0  0  0  0  0  0  0  0  0  0  0  0
    4.1373   12.3585   27.8425 C   0  0  0  0  0  0  0  0  0  0  0  0
    4.7167   13.5918   28.4669 C   0  0  0  0  0  0  0  0  0  0  0  0
    7.0442   13.8036   26.6619 N   0  0  0  0  0  0  0  0  0  0  0  0
    7.6702   13.9526   25.4821 C   0  0  0  0  0  0  0  0  0  0  0  0
    7.9670   12.9325   24.5805 C   0  0  0  0  0  0  0  0  0  0  0  0
    8.3031   13.2773   23.2451 N   0  0  0  0  0  0  0  0  0  0  0  0
    7.2533   14.0607   22.7014 N   0  0  0  0  0  0  0  0  0  0  0  0
    9.5834   13.7978   22.8425 C   0  0  0  0  0  0  0  0  0  0  0  0
   10.7127   13.5720   23.6024 C   0  0  0  0  0  0  0  0  0  0  0  0
   11.8833   14.1115   23.1296 C   0  0  0  0  0  0  0  0  0  0  0  0
   11.9766   14.8425   22.0126 N   0  0  0  0  0  0  0  0  0  0  0  0
   10.8413   14.9811   21.3182 C   0  0  0  0  0  0  0  0  0  0  0  0
    9.6436   14.5015   21.6843 N   0  0  0  0  0  0  0  0  0  0  0  0
  1  2  1  0
  2  3  1  0
  3  4  2  0
  3  5  1  0
  5  6  2  0
  6  7  1  0
  7  8  1  0
  8  9  1  0
  9 10  1  0
  7 11  2  0
 11 12  1  0
 12 13  2  0
 13 14  1  0
 14 15  1  0
 14 16  1  0
 16 17  2  0
 17 18  1  0
 18 19  2  0
 19 20  1  0
 20 21  2  0
 13  5  1  0
 21 16  1  0
 10  8  1  0
M  END
>  <energy_score>  (649) 
-29.47791

>  <inchikey>  (649) 
None

>  <smiles>  (649) 
None

>  <ref_pdb>  (649) 
A0514a

>  <alias>  (649) 
None

>  <HIPPO Pose ID>  (649) 
498293

>  <name>  (649) 
P498293

>  <HIPPO Compound ID>  (649) 
292665

>  <ref_mols>  (649) 
A4331a,A0514a

>  <distance_score>  (649) 
1.942439

>  <inspiration_score>  (649) 
None

$$$$
P498294
     RDKit          3D

 21 22  0  0  0  0  0  0  0  0999 V2000
   10.5628   15.4252   20.5115 C   0  0  0  0  0  0  0  0  0  0  0  0
    9.3856   14.8956   21.3062 C   0  0  0  0  0  0  0  0  0  0  0  0
    9.7525   14.3101   22.6689 C   0  0  0  0  0  0  0  0  0  0  0  0
   10.9849   13.4172   22.7238 C   0  0  0  0  0  0  0  0  0  0  0  0
   12.1861   14.1600   23.2700 C   0  0  0  0  0  0  0  0  0  0  0  0
    8.5260   13.6684   23.3166 C   0  0  0  0  0  0  0  0  0  0  0  0
    8.8332   13.2286   24.7031 N   0  0  0  0  0  0  0  0  0  0  0  0
    9.4808   14.2226   25.5249 N   0  0  0  0  0  0  0  0  0  0  0  0
    7.6614   12.6608   25.2616 C   0  0  0  0  0  0  0  0  0  0  0  0
    6.7628   13.4964   25.9165 C   0  0  0  0  0  0  0  0  0  0  0  0
    5.7427   13.0807   26.6720 N   0  0  0  0  0  0  0  0  0  0  0  0
    5.5127   11.7590   26.7709 C   0  0  0  0  0  0  0  0  0  0  0  0
    4.4506   11.3229   27.7288 C   0  0  0  0  0  0  0  0  0  0  0  0
    4.4134   11.9524   29.1000 C   0  0  0  0  0  0  0  0  0  0  0  0
    3.3560   12.3001   28.0962 C   0  0  0  0  0  0  0  0  0  0  0  0
    6.2638   10.8537   26.0496 C   0  0  0  0  0  0  0  0  0  0  0  0
    7.3474   11.2973   25.2765 C   0  0  0  0  0  0  0  0  0  0  0  0
    8.0594   10.1923   24.6014 C   0  0  0  0  0  0  0  0  0  0  0  0
    7.7491    9.0340   24.8441 O   0  0  0  0  0  0  0  0  0  0  0  0
    9.0013   10.5681   23.7185 O   0  0  0  0  0  0  0  0  0  0  0  0
    9.6354    9.4508   23.0868 C   0  0  0  0  0  0  0  0  0  0  0  0
  1  2  1  0
  2  3  1  0
  3  4  1  0
  4  5  1  0
  3  6  1  0
  6  7  1  0
  7  8  1  0
  7  9  1  0
  9 10  2  0
 10 11  1  0
 11 12  2  0
 12 13  1  0
 13 14  1  0
 14 15  1  0
 12 16  1  0
 16 17  2  0
 17 18  1  0
 18 19  2  0
 18 20  1  0
 20 21  1  0
 17  9  1  0
 15 13  1  0
M  END
>  <energy_score>  (650) 
-33.680838

>  <inchikey>  (650) 
None

>  <smiles>  (650) 
None

>  <ref_pdb>  (650) 
A0514a

>  <alias>  (650) 
None

>  <HIPPO Pose ID>  (650) 
498294

>  <name>  (650) 
P498294

>  <HIPPO Compound ID>  (650) 
292666

>  <ref_mols>  (650) 
A4331a,A0514a

>  <distance_score>  (650) 
1.762982

>  <inspiration_score>  (650) 
None

$$$$
P498295
     RDKit          3D

 21 22  0  0  0  0  0  0  0  0999 V2000
    9.2888    8.4447   22.9265 C   0  0  0  0  0  0  0  0  0  0  0  0
    8.4624    9.2865   23.7251 O   0  0  0  0  0  0  0  0  0  0  0  0
    9.0183   10.5025   23.9241 C   0  0  0  0  0  0  0  0  0  0  0  0
   10.1174   10.8388   23.5211 O   0  0  0  0  0  0  0  0  0  0  0  0
    8.1167   11.3667   24.7227 C   0  0  0  0  0  0  0  0  0  0  0  0
    7.0609   10.8131   25.4564 C   0  0  0  0  0  0  0  0  0  0  0  0
    6.3058   11.6414   26.2767 C   0  0  0  0  0  0  0  0  0  0  0  0
    5.2170   11.1162   27.1691 C   0  0  0  0  0  0  0  0  0  0  0  0
    5.1637   11.5765   28.6081 C   0  0  0  0  0  0  0  0  0  0  0  0
    4.1348   12.0707   27.6393 C   0  0  0  0  0  0  0  0  0  0  0  0
    6.5639   12.9677   26.3572 N   0  0  0  0  0  0  0  0  0  0  0  0
    7.5492   13.4883   25.6101 C   0  0  0  0  0  0  0  0  0  0  0  0
    8.3782   12.7412   24.7933 C   0  0  0  0  0  0  0  0  0  0  0  0
    9.4367   13.3434   24.0859 N   0  0  0  0  0  0  0  0  0  0  0  0
   10.4503   13.9159   24.8929 N   0  0  0  0  0  0  0  0  0  0  0  0
    8.9567   14.0877   22.9011 C   0  0  0  0  0  0  0  0  0  0  0  0
    9.8899   13.9161   21.6946 C   0  0  0  0  0  0  0  0  0  0  0  0
   10.8259   15.0247   21.1772 C   0  0  0  0  0  0  0  0  0  0  0  0
   11.9250   15.2835   22.1846 C   0  0  0  0  0  0  0  0  0  0  0  0
   10.0129   16.2535   20.7593 C   0  0  0  0  0  0  0  0  0  0  0  0
   11.6308   14.5853   19.9271 C   0  0  0  0  0  0  0  0  0  0  0  0
  1  2  1  0
  2  3  1  0
  3  4  2  0
  3  5  1  0
  5  6  2  0
  6  7  1  0
  7  8  1  0
  8  9  1  0
  9 10  1  0
  7 11  2  0
 11 12  1  0
 12 13  2  0
 13 14  1  0
 14 15  1  0
 14 16  1  0
 16 17  1  0
 17 18  1  0
 18 19  1  0
 18 20  1  0
 18 21  1  0
 13  5  1  0
 10  8  1  0
M  END
>  <energy_score>  (651) 
-36.417078

>  <inchikey>  (651) 
None

>  <smiles>  (651) 
None

>  <ref_pdb>  (651) 
A0514a

>  <alias>  (651) 
None

>  <HIPPO Pose ID>  (651) 
498295

>  <name>  (651) 
P498295

>  <HIPPO Compound ID>  (651) 
292669

>  <ref_mols>  (651) 
A4331a,A0514a

>  <distance_score>  (651) 
1.759768

>  <inspiration_score>  (651) 
None

$$$$
P498296
     RDKit          3D

 21 23  0  0  0  0  0  0  0  0999 V2000
    9.5837    9.0503   22.9911 C   0  0  0  0  0  0  0  0  0  0  0  0
    8.9762   10.2953   23.3319 O   0  0  0  0  0  0  0  0  0  0  0  0
    8.0776   10.2093   24.3301 C   0  0  0  0  0  0  0  0  0  0  0  0
    7.7605    9.1854   24.9204 O   0  0  0  0  0  0  0  0  0  0  0  0
    7.4607   11.5138   24.6812 C   0  0  0  0  0  0  0  0  0  0  0  0
    6.4435   11.4201   25.6283 C   0  0  0  0  0  0  0  0  0  0  0  0
    5.8685   12.5647   26.1421 C   0  0  0  0  0  0  0  0  0  0  0  0
    4.9061   12.4626   27.2903 C   0  0  0  0  0  0  0  0  0  0  0  0
    3.5864   13.1805   27.2258 C   0  0  0  0  0  0  0  0  0  0  0  0
    4.6565   13.6763   28.1553 C   0  0  0  0  0  0  0  0  0  0  0  0
    6.1947   13.7786   25.6552 N   0  0  0  0  0  0  0  0  0  0  0  0
    7.1555   13.8559   24.7126 C   0  0  0  0  0  0  0  0  0  0  0  0
    7.9202   12.7837   24.2751 C   0  0  0  0  0  0  0  0  0  0  0  0
    9.2693   12.9574   23.8919 N   0  0  0  0  0  0  0  0  0  0  0  0
   10.0438   12.7750   25.0809 N   0  0  0  0  0  0  0  0  0  0  0  0
    9.7721   14.1577   23.1879 C   0  0  2  0  0  0  0  0  0  0  0  0
    9.0637   14.5468   21.9001 C   0  0  0  0  0  0  0  0  0  0  0  0
   10.0625   14.8350   20.7900 C   0  0  0  0  0  0  0  0  0  0  0  0
   11.3375   15.5472   21.1909 C   0  0  0  0  0  0  0  0  0  0  0  0
   11.8471   15.2170   22.4748 O   0  0  0  0  0  0  0  0  0  0  0  0
   11.3010   14.0098   22.9678 C   0  0  0  0  0  0  0  0  0  0  0  0
  1  2  1  0
  2  3  1  0
  3  4  2  0
  3  5  1  0
  5  6  2  0
  6  7  1  0
  7  8  1  0
  8  9  1  0
  9 10  1  0
  7 11  2  0
 11 12  1  0
 12 13  2  0
 13 14  1  0
 14 15  1  0
 16 14  1  6
 16 17  1  0
 17 18  1  0
 18 19  1  0
 19 20  1  0
 20 21  1  0
 13  5  1  0
 21 16  1  0
 10  8  1  0
M  END
>  <energy_score>  (652) 
-12.558411

>  <inchikey>  (652) 
None

>  <smiles>  (652) 
None

>  <ref_pdb>  (652) 
A0514a

>  <alias>  (652) 
None

>  <HIPPO Pose ID>  (652) 
498296

>  <name>  (652) 
P498296

>  <HIPPO Compound ID>  (652) 
292670

>  <ref_mols>  (652) 
A4331a,A0514a

>  <distance_score>  (652) 
1.847241

>  <inspiration_score>  (652) 
None

$$$$
P498297
     RDKit          3D

 21 22  0  0  0  0  0  0  0  0999 V2000
    9.2353    8.3853   22.8722 C   0  0  0  0  0  0  0  0  0  0  0  0
    8.3743    9.1899   23.6730 O   0  0  0  0  0  0  0  0  0  0  0  0
    8.9354   10.3806   23.9643 C   0  0  0  0  0  0  0  0  0  0  0  0
   10.0634   10.7250   23.6527 O   0  0  0  0  0  0  0  0  0  0  0  0
    7.9929   11.2165   24.7444 C   0  0  0  0  0  0  0  0  0  0  0  0
    7.0137   10.6168   25.5449 C   0  0  0  0  0  0  0  0  0  0  0  0
    6.2271   11.4198   26.3594 C   0  0  0  0  0  0  0  0  0  0  0  0
    5.2030   10.8626   27.3054 C   0  0  0  0  0  0  0  0  0  0  0  0
    5.2101   11.3304   28.7429 C   0  0  0  0  0  0  0  0  0  0  0  0
    4.1146   11.7832   27.8292 C   0  0  0  0  0  0  0  0  0  0  0  0
    6.3987   12.7598   26.3888 N   0  0  0  0  0  0  0  0  0  0  0  0
    7.3044   13.3173   25.5737 C   0  0  0  0  0  0  0  0  0  0  0  0
    8.1234   12.6108   24.7092 C   0  0  0  0  0  0  0  0  0  0  0  0
    9.0346   13.2556   23.8583 N   0  0  0  0  0  0  0  0  0  0  0  0
   10.3580   13.2976   24.4265 N   0  0  0  0  0  0  0  0  0  0  0  0
    8.5497   14.4636   23.1193 C   0  0  2  0  0  0  0  0  0  0  0  0
    7.2099   14.2533   22.4238 C   0  0  0  0  0  0  0  0  0  0  0  0
    9.5590   14.9020   22.0350 C   0  0  0  0  0  0  0  0  0  0  0  0
    9.1759   16.0317   21.4057 F   0  0  0  0  0  0  0  0  0  0  0  0
    9.6957   13.9674   21.0817 F   0  0  0  0  0  0  0  0  0  0  0  0
   10.7846   15.1115   22.5811 F   0  0  0  0  0  0  0  0  0  0  0  0
  1  2  1  0
  2  3  1  0
  3  4  2  0
  3  5  1  0
  5  6  2  0
  6  7  1  0
  7  8  1  0
  8  9  1  0
  9 10  1  0
  7 11  2  0
 11 12  1  0
 12 13  2  0
 13 14  1  0
 14 15  1  0
 14 16  1  0
 16 17  1  6
 16 18  1  0
 18 19  1  0
 18 20  1  0
 18 21  1  0
 13  5  1  0
 10  8  1  0
M  END
>  <energy_score>  (653) 
-29.202246

>  <inchikey>  (653) 
None

>  <smiles>  (653) 
None

>  <ref_pdb>  (653) 
A0514a

>  <alias>  (653) 
None

>  <HIPPO Pose ID>  (653) 
498297

>  <name>  (653) 
P498297

>  <HIPPO Compound ID>  (653) 
292671

>  <ref_mols>  (653) 
A4331a,A0514a

>  <distance_score>  (653) 
1.748389

>  <inspiration_score>  (653) 
None

$$$$
P498298
     RDKit          3D

 21 22  0  0  0  0  0  0  0  0999 V2000
    9.5563    9.1186   23.1343 C   0  0  0  0  0  0  0  0  0  0  0  0
    8.5268    9.8357   23.8177 O   0  0  0  0  0  0  0  0  0  0  0  0
    8.8300   11.1216   24.1213 C   0  0  0  0  0  0  0  0  0  0  0  0
    9.8595   11.6984   23.8187 O   0  0  0  0  0  0  0  0  0  0  0  0
    7.7424   11.7278   24.9362 C   0  0  0  0  0  0  0  0  0  0  0  0
    6.9151   10.8268   25.6447 C   0  0  0  0  0  0  0  0  0  0  0  0
    6.0948   11.2984   26.6512 C   0  0  0  0  0  0  0  0  0  0  0  0
    5.1502   10.4431   27.4321 C   0  0  0  0  0  0  0  0  0  0  0  0
    5.1097   10.5840   28.9345 C   0  0  0  0  0  0  0  0  0  0  0  0
    3.9758   11.1202   28.1168 C   0  0  0  0  0  0  0  0  0  0  0  0
    6.1730   12.5794   27.0326 N   0  0  0  0  0  0  0  0  0  0  0  0
    6.9071   13.4265   26.3030 C   0  0  0  0  0  0  0  0  0  0  0  0
    7.6285   13.1147   25.1508 C   0  0  0  0  0  0  0  0  0  0  0  0
    8.1152   14.1995   24.3636 N   0  0  0  0  0  0  0  0  0  0  0  0
    7.5686   15.4913   24.7576 N   0  0  0  0  0  0  0  0  0  0  0  0
    8.2713   13.9771   22.8865 C   0  0  1  0  0  0  0  0  0  0  0  0
    7.0233   14.4316   22.1334 C   0  0  0  0  0  0  0  0  0  0  0  0
    9.5369   14.5908   22.2597 C   0  0  0  0  0  0  0  0  0  0  0  0
    9.9455   13.8376   21.2216 F   0  0  0  0  0  0  0  0  0  0  0  0
    9.2887   15.8039   21.7225 F   0  0  0  0  0  0  0  0  0  0  0  0
   10.5615   14.6941   23.1332 F   0  0  0  0  0  0  0  0  0  0  0  0
  1  2  1  0
  2  3  1  0
  3  4  2  0
  3  5  1  0
  5  6  2  0
  6  7  1  0
  7  8  1  0
  8  9  1  0
  9 10  1  0
  7 11  2  0
 11 12  1  0
 12 13  2  0
 13 14  1  0
 14 15  1  0
 14 16  1  0
 16 17  1  6
 16 18  1  0
 18 19  1  0
 18 20  1  0
 18 21  1  0
 13  5  1  0
 10  8  1  0
M  END
>  <energy_score>  (654) 
-17.626894

>  <inchikey>  (654) 
None

>  <smiles>  (654) 
None

>  <ref_pdb>  (654) 
A0514a

>  <alias>  (654) 
None

>  <HIPPO Pose ID>  (654) 
498298

>  <name>  (654) 
P498298

>  <HIPPO Compound ID>  (654) 
292671

>  <ref_mols>  (654) 
A4331a,A0514a

>  <distance_score>  (654) 
1.895474

>  <inspiration_score>  (654) 
None

$$$$
P498299
     RDKit          3D

 21 23  0  0  0  0  0  0  0  0999 V2000
    9.2903    8.6218   23.0213 C   0  0  0  0  0  0  0  0  0  0  0  0
    8.3904    9.4020   23.8144 O   0  0  0  0  0  0  0  0  0  0  0  0
    8.8810   10.6253   24.1213 C   0  0  0  0  0  0  0  0  0  0  0  0
    9.9832   11.0279   23.8078 O   0  0  0  0  0  0  0  0  0  0  0  0
    7.8923   11.4178   24.8888 C   0  0  0  0  0  0  0  0  0  0  0  0
    6.8714   10.7407   25.5696 C   0  0  0  0  0  0  0  0  0  0  0  0
    5.9833   11.4665   26.3485 C   0  0  0  0  0  0  0  0  0  0  0  0
    5.0384   10.8122   27.3112 C   0  0  0  0  0  0  0  0  0  0  0  0
    5.1383   11.1904   28.7719 C   0  0  0  0  0  0  0  0  0  0  0  0
    3.9590   11.6485   27.9725 C   0  0  0  0  0  0  0  0  0  0  0  0
    6.0022   12.8156   26.3522 N   0  0  0  0  0  0  0  0  0  0  0  0
    6.9706   13.4487   25.6808 C   0  0  0  0  0  0  0  0  0  0  0  0
    8.0099   12.8123   25.0182 C   0  0  0  0  0  0  0  0  0  0  0  0
    9.1487   13.5609   24.6177 N   0  0  0  0  0  0  0  0  0  0  0  0
    9.6242   14.5075   25.5899 N   0  0  0  0  0  0  0  0  0  0  0  0
    8.9825   14.0805   23.2387 C   0  0  0  0  0  0  0  0  0  0  0  0
   10.2912   14.4375   22.4880 C   0  0  0  0  0  0  0  0  0  0  0  0
    9.9404   15.2235   21.2155 C   0  0  0  0  0  0  0  0  0  0  0  0
   11.6372   14.8925   23.1842 C   0  0  0  0  0  0  0  0  0  0  0  0
   11.9709   13.4233   23.3727 C   0  0  0  0  0  0  0  0  0  0  0  0
   11.1478   13.2064   22.1183 C   0  0  0  0  0  0  0  0  0  0  0  0
  1  2  1  0
  2  3  1  0
  3  4  2  0
  3  5  1  0
  5  6  2  0
  6  7  1  0
  7  8  1  0
  8  9  1  0
  9 10  1  0
  7 11  2  0
 11 12  1  0
 12 13  2  0
 13 14  1  0
 14 15  1  0
 14 16  1  0
 16 17  1  0
 17 18  1  0
 17 19  1  0
 19 20  1  0
 20 21  1  0
 13  5  1  0
 21 17  1  0
 10  8  1  0
M  END
>  <energy_score>  (655) 
-24.099973

>  <inchikey>  (655) 
None

>  <smiles>  (655) 
None

>  <ref_pdb>  (655) 
A0514a

>  <alias>  (655) 
None

>  <HIPPO Pose ID>  (655) 
498299

>  <name>  (655) 
P498299

>  <HIPPO Compound ID>  (655) 
292672

>  <ref_mols>  (655) 
A4331a,A0514a

>  <distance_score>  (655) 
1.887975

>  <inspiration_score>  (655) 
None

$$$$
P498300
     RDKit          3D

 21 23  0  0  0  0  0  0  0  0999 V2000
    9.3069    8.5565   23.4131 C   0  0  0  0  0  0  0  0  0  0  0  0
    8.5216    9.3551   24.3075 O   0  0  0  0  0  0  0  0  0  0  0  0
    8.5926   10.6710   24.0088 C   0  0  0  0  0  0  0  0  0  0  0  0
    9.1948   11.1386   23.0582 O   0  0  0  0  0  0  0  0  0  0  0  0
    7.8539   11.5022   24.9863 C   0  0  0  0  0  0  0  0  0  0  0  0
    6.7320   11.0069   25.6576 C   0  0  0  0  0  0  0  0  0  0  0  0
    6.0473   11.8631   26.5165 C   0  0  0  0  0  0  0  0  0  0  0  0
    4.8189   11.5045   27.2771 C   0  0  0  0  0  0  0  0  0  0  0  0
    4.7774   10.4016   28.2881 C   0  0  0  0  0  0  0  0  0  0  0  0
    4.8157   11.8239   28.7586 C   0  0  0  0  0  0  0  0  0  0  0  0
    6.4439   13.1360   26.7270 N   0  0  0  0  0  0  0  0  0  0  0  0
    7.5092   13.5916   26.0692 C   0  0  0  0  0  0  0  0  0  0  0  0
    8.2703   12.8254   25.2032 C   0  0  0  0  0  0  0  0  0  0  0  0
    9.3986   13.3978   24.5607 N   0  0  0  0  0  0  0  0  0  0  0  0
   10.2426   14.1916   25.4099 N   0  0  0  0  0  0  0  0  0  0  0  0
    8.8876   14.0392   23.3125 C   0  0  0  0  0  0  0  0  0  0  0  0
    9.9379   14.4355   22.3321 C   0  0  0  0  0  0  0  0  0  0  0  0
   11.2971   14.1993   22.3217 C   0  0  0  0  0  0  0  0  0  0  0  0
   11.9231   14.7582   21.1777 C   0  0  0  0  0  0  0  0  0  0  0  0
   11.0035   15.2866   20.3023 C   0  0  0  0  0  0  0  0  0  0  0  0
    9.4441   15.3296   20.9691 S   0  0  0  0  0  0  0  0  0  0  0  0
  1  2  1  0
  2  3  1  0
  3  4  2  0
  3  5  1  0
  5  6  2  0
  6  7  1  0
  7  8  1  0
  8  9  1  0
  9 10  1  0
  7 11  2  0
 11 12  1  0
 12 13  2  0
 13 14  1  0
 14 15  1  0
 14 16  1  0
 16 17  1  0
 17 18  2  0
 18 19  1  0
 19 20  2  0
 20 21  1  0
 13  5  1  0
 21 17  1  0
 10  8  1  0
M  END
>  <energy_score>  (656) 
-38.756963

>  <inchikey>  (656) 
None

>  <smiles>  (656) 
None

>  <ref_pdb>  (656) 
A0514a

>  <alias>  (656) 
None

>  <HIPPO Pose ID>  (656) 
498300

>  <name>  (656) 
P498300

>  <HIPPO Compound ID>  (656) 
292673

>  <ref_mols>  (656) 
A4331a,A0514a

>  <distance_score>  (656) 
1.60804

>  <inspiration_score>  (656) 
None

$$$$
P498301
     RDKit          3D

 21 23  0  0  0  0  0  0  0  0999 V2000
    9.3148    8.5099   22.9404 C   0  0  0  0  0  0  0  0  0  0  0  0
    8.5248    9.3461   23.7851 O   0  0  0  0  0  0  0  0  0  0  0  0
    9.0118   10.6025   23.9013 C   0  0  0  0  0  0  0  0  0  0  0  0
   10.0527   10.9916   23.3974 O   0  0  0  0  0  0  0  0  0  0  0  0
    8.1258   11.4297   24.7660 C   0  0  0  0  0  0  0  0  0  0  0  0
    7.0776   10.8229   25.4777 C   0  0  0  0  0  0  0  0  0  0  0  0
    6.2815   11.5977   26.3133 C   0  0  0  0  0  0  0  0  0  0  0  0
    5.2643   11.0028   27.2473 C   0  0  0  0  0  0  0  0  0  0  0  0
    4.0672   11.8216   27.6836 C   0  0  0  0  0  0  0  0  0  0  0  0
    5.1854   11.5808   28.6481 C   0  0  0  0  0  0  0  0  0  0  0  0
    6.4577   12.9347   26.3969 N   0  0  0  0  0  0  0  0  0  0  0  0
    7.4351   13.5070   25.6798 C   0  0  0  0  0  0  0  0  0  0  0  0
    8.3434   12.8102   24.9005 C   0  0  0  0  0  0  0  0  0  0  0  0
    9.3983   13.5588   24.3195 N   0  0  0  0  0  0  0  0  0  0  0  0
   10.6897   13.1458   24.7039 N   0  0  0  0  0  0  0  0  0  0  0  0
    9.2192   13.9532   23.0136 C   0  0  0  0  0  0  0  0  0  0  0  0
    8.0776   13.9009   22.3433 N   0  0  0  0  0  0  0  0  0  0  0  0
    8.2387   14.5461   21.1496 N   0  0  0  0  0  0  0  0  0  0  0  0
    9.4749   14.9631   21.0858 C   0  0  0  0  0  0  0  0  0  0  0  0
   10.1501   14.5465   22.1906 N   0  0  0  0  0  0  0  0  0  0  0  0
   11.5583   14.7429   22.3561 C   0  0  0  0  0  0  0  0  0  0  0  0
  1  2  1  0
  2  3  1  0
  3  4  2  0
  3  5  1  0
  5  6  2  0
  6  7  1  0
  7  8  1  0
  8  9  1  0
  9 10  1  0
  7 11  2  0
 11 12  1  0
 12 13  2  0
 13 14  1  0
 14 15  1  0
 14 16  1  0
 16 17  2  0
 17 18  1  0
 18 19  2  0
 19 20  1  0
 20 21  1  0
 13  5  1  0
 20 16  1  0
 10  8  1  0
M  END
>  <energy_score>  (657) 
-25.200963

>  <inchikey>  (657) 
None

>  <smiles>  (657) 
None

>  <ref_pdb>  (657) 
A0514a

>  <alias>  (657) 
None

>  <HIPPO Pose ID>  (657) 
498301

>  <name>  (657) 
P498301

>  <HIPPO Compound ID>  (657) 
292674

>  <ref_mols>  (657) 
A4331a,A0514a

>  <distance_score>  (657) 
1.436591

>  <inspiration_score>  (657) 
None

$$$$
P498302
     RDKit          3D

 21 23  0  0  0  0  0  0  0  0999 V2000
    9.2500    8.5628   22.9578 C   0  0  0  0  0  0  0  0  0  0  0  0
    8.3644    9.4548   23.6342 O   0  0  0  0  0  0  0  0  0  0  0  0
    8.9238   10.6651   23.8561 C   0  0  0  0  0  0  0  0  0  0  0  0
   10.0811   10.9570   23.6240 O   0  0  0  0  0  0  0  0  0  0  0  0
    7.9707   11.5710   24.5172 C   0  0  0  0  0  0  0  0  0  0  0  0
    7.2472   11.0240   25.5870 C   0  0  0  0  0  0  0  0  0  0  0  0
    6.4169   11.8234   26.3590 C   0  0  0  0  0  0  0  0  0  0  0  0
    5.6186   11.2787   27.5111 C   0  0  0  0  0  0  0  0  0  0  0  0
    4.2794   11.8930   27.8501 C   0  0  0  0  0  0  0  0  0  0  0  0
    5.4577   12.1466   28.7417 C   0  0  0  0  0  0  0  0  0  0  0  0
    6.3196   13.1346   26.1131 N   0  0  0  0  0  0  0  0  0  0  0  0
    6.9348   13.6077   25.0179 C   0  0  0  0  0  0  0  0  0  0  0  0
    7.7843   12.9062   24.1541 C   0  0  0  0  0  0  0  0  0  0  0  0
    8.2534   13.5468   22.9931 N   0  0  0  0  0  0  0  0  0  0  0  0
    7.3709   14.5215   22.5040 N   0  0  0  0  0  0  0  0  0  0  0  0
    9.7076   13.6220   22.6478 C   0  0  1  0  0  0  0  0  0  0  0  0
    9.9591   14.6663   21.5372 C   0  0  0  0  0  0  0  0  0  0  0  0
   11.3944   14.7615   21.0596 C   0  0  0  0  0  0  0  0  0  0  0  0
   12.3798   15.0475   22.1622 C   0  0  0  0  0  0  0  0  0  0  0  0
   12.3207   13.8367   23.5211 S   0  0  0  0  0  0  0  0  0  0  0  0
   10.5621   13.8623   23.8863 C   0  0  0  0  0  0  0  0  0  0  0  0
  1  2  1  0
  2  3  1  0
  3  4  2  0
  3  5  1  0
  5  6  2  0
  6  7  1  0
  7  8  1  0
  8  9  1  0
  9 10  1  0
  7 11  2  0
 11 12  1  0
 12 13  2  0
 13 14  1  0
 14 15  1  0
 16 14  1  1
 16 17  1  0
 17 18  1  0
 18 19  1  0
 19 20  1  0
 20 21  1  0
 13  5  1  0
 21 16  1  0
 10  8  1  0
M  END
>  <energy_score>  (658) 
-43.75715

>  <inchikey>  (658) 
None

>  <smiles>  (658) 
None

>  <ref_pdb>  (658) 
A0514a

>  <alias>  (658) 
None

>  <HIPPO Pose ID>  (658) 
498302

>  <name>  (658) 
P498302

>  <HIPPO Compound ID>  (658) 
292676

>  <ref_mols>  (658) 
A4331a,A0514a

>  <distance_score>  (658) 
1.893868

>  <inspiration_score>  (658) 
None

$$$$
P498303
     RDKit          3D

 21 23  0  0  0  0  0  0  0  0999 V2000
    9.2166    8.3437   22.8867 C   0  0  0  0  0  0  0  0  0  0  0  0
    8.3897    9.1538   23.7168 O   0  0  0  0  0  0  0  0  0  0  0  0
    8.9850   10.3247   23.9976 C   0  0  0  0  0  0  0  0  0  0  0  0
   10.1296   10.6384   23.7040 O   0  0  0  0  0  0  0  0  0  0  0  0
    8.0849   11.2548   24.7036 C   0  0  0  0  0  0  0  0  0  0  0  0
    6.9691   10.8024   25.4045 C   0  0  0  0  0  0  0  0  0  0  0  0
    6.2147   11.7363   26.0997 C   0  0  0  0  0  0  0  0  0  0  0  0
    5.1744   11.3337   27.1100 C   0  0  0  0  0  0  0  0  0  0  0  0
    4.0207   12.2583   27.4275 C   0  0  0  0  0  0  0  0  0  0  0  0
    5.1339   12.1051   28.4166 C   0  0  0  0  0  0  0  0  0  0  0  0
    6.4655   13.0639   25.9785 N   0  0  0  0  0  0  0  0  0  0  0  0
    7.5256   13.4823   25.2674 C   0  0  0  0  0  0  0  0  0  0  0  0
    8.4376   12.6120   24.7190 C   0  0  0  0  0  0  0  0  0  0  0  0
    9.7136   13.0504   24.3368 N   0  0  0  0  0  0  0  0  0  0  0  0
   10.0132   13.7936   23.2311 C   0  0  0  0  0  0  0  0  0  0  0  0
    9.2703   14.3526   22.3339 N   0  0  0  0  0  0  0  0  0  0  0  0
   10.1671   14.9474   21.4462 N   0  0  0  0  0  0  0  0  0  0  0  0
    9.7491   15.7437   20.3416 C   0  0  0  0  0  0  0  0  0  0  0  0
   11.4998   14.8308   21.7818 C   0  0  0  0  0  0  0  0  0  0  0  0
   12.4917   15.2961   21.2545 O   0  0  0  0  0  0  0  0  0  0  0  0
   11.4878   13.9880   22.9904 C   0  0  0  0  0  0  0  0  0  0  0  0
  1  2  1  0
  2  3  1  0
  3  4  2  0
  3  5  1  0
  5  6  2  0
  6  7  1  0
  7  8  1  0
  8  9  1  0
  9 10  1  0
  7 11  2  0
 11 12  1  0
 12 13  2  0
 13 14  1  0
 14 15  1  0
 15 16  2  0
 16 17  1  0
 17 18  1  0
 17 19  1  0
 19 20  2  0
 19 21  1  0
 13  5  1  0
 21 15  1  0
 10  8  1  0
M  END
>  <energy_score>  (659) 
-13.49978

>  <inchikey>  (659) 
None

>  <smiles>  (659) 
None

>  <ref_pdb>  (659) 
A0514a

>  <alias>  (659) 
None

>  <HIPPO Pose ID>  (659) 
498303

>  <name>  (659) 
P498303

>  <HIPPO Compound ID>  (659) 
292678

>  <ref_mols>  (659) 
A4331a,A0514a

>  <distance_score>  (659) 
1.614172

>  <inspiration_score>  (659) 
None

$$$$
P498304
     RDKit          3D

 21 23  0  0  0  0  0  0  0  0999 V2000
    9.1979    8.3348   22.8384 C   0  0  0  0  0  0  0  0  0  0  0  0
    8.3663    9.1577   23.6502 O   0  0  0  0  0  0  0  0  0  0  0  0
    8.9742   10.3218   23.9494 C   0  0  0  0  0  0  0  0  0  0  0  0
   10.1210   10.6088   23.6510 O   0  0  0  0  0  0  0  0  0  0  0  0
    8.0627   11.2028   24.7195 C   0  0  0  0  0  0  0  0  0  0  0  0
    7.0290   10.6389   25.4792 C   0  0  0  0  0  0  0  0  0  0  0  0
    6.2389   11.4670   26.2630 C   0  0  0  0  0  0  0  0  0  0  0  0
    5.1992   10.9407   27.2101 C   0  0  0  0  0  0  0  0  0  0  0  0
    5.2235   11.4080   28.6481 C   0  0  0  0  0  0  0  0  0  0  0  0
    4.1376   11.8896   27.7380 C   0  0  0  0  0  0  0  0  0  0  0  0
    6.4283   12.8040   26.2656 N   0  0  0  0  0  0  0  0  0  0  0  0
    7.3847   13.3299   25.4878 C   0  0  0  0  0  0  0  0  0  0  0  0
    8.2656   12.5920   24.7126 C   0  0  0  0  0  0  0  0  0  0  0  0
    9.3233   13.2044   24.0208 N   0  0  0  0  0  0  0  0  0  0  0  0
   10.6077   12.9956   24.5934 N   0  0  0  0  0  0  0  0  0  0  0  0
    9.0704   14.5008   23.3396 C   0  0  2  0  0  0  0  0  0  0  0  0
    8.0033   14.4145   22.2603 C   0  0  0  0  0  0  0  0  0  0  0  0
    8.6811   14.0760   21.0412 O   0  0  0  0  0  0  0  0  0  0  0  0
   10.0979   14.0393   21.2927 C   0  0  0  0  0  0  0  0  0  0  0  0
   10.2703   14.9290   22.4663 C   0  0  2  0  0  0  0  0  0  0  0  0
   11.5296   14.8670   23.1111 O   0  0  0  0  0  0  0  0  0  0  0  0
  1  2  1  0
  2  3  1  0
  3  4  2  0
  3  5  1  0
  5  6  2  0
  6  7  1  0
  7  8  1  0
  8  9  1  0
  9 10  1  0
  7 11  2  0
 11 12  1  0
 12 13  2  0
 13 14  1  0
 14 15  1  0
 16 14  1  6
 16 17  1  0
 17 18  1  0
 18 19  1  0
 19 20  1  0
 20 21  1  1
 13  5  1  0
 20 16  1  0
 10  8  1  0
M  END
>  <energy_score>  (660) 
-63.229464

>  <inchikey>  (660) 
None

>  <smiles>  (660) 
None

>  <ref_pdb>  (660) 
A0514a

>  <alias>  (660) 
None

>  <HIPPO Pose ID>  (660) 
498304

>  <name>  (660) 
P498304

>  <HIPPO Compound ID>  (660) 
292679

>  <ref_mols>  (660) 
A4331a,A0514a

>  <distance_score>  (660) 
1.780215

>  <inspiration_score>  (660) 
None

$$$$
P498305
     RDKit          3D

 21 23  0  0  0  0  0  0  0  0999 V2000
    9.6860    9.1582   22.9407 C   0  0  0  0  0  0  0  0  0  0  0  0
    9.1681   10.3639   23.5149 O   0  0  0  0  0  0  0  0  0  0  0  0
    8.0870   10.1447   24.2868 C   0  0  0  0  0  0  0  0  0  0  0  0
    7.5835    9.0573   24.5282 O   0  0  0  0  0  0  0  0  0  0  0  0
    7.5692   11.3482   24.9526 C   0  0  0  0  0  0  0  0  0  0  0  0
    6.7379   11.0493   26.0395 C   0  0  0  0  0  0  0  0  0  0  0  0
    6.2106   12.0645   26.8063 C   0  0  0  0  0  0  0  0  0  0  0  0
    5.1932   11.7837   27.8697 C   0  0  0  0  0  0  0  0  0  0  0  0
    5.0969   12.6729   29.0815 C   0  0  0  0  0  0  0  0  0  0  0  0
    4.0424   12.7558   28.0199 C   0  0  0  0  0  0  0  0  0  0  0  0
    6.5782   13.3425   26.5888 N   0  0  0  0  0  0  0  0  0  0  0  0
    7.2888   13.6209   25.4810 C   0  0  0  0  0  0  0  0  0  0  0  0
    7.7510   12.6782   24.5691 C   0  0  0  0  0  0  0  0  0  0  0  0
    7.9926   13.0937   23.2602 N   0  0  0  0  0  0  0  0  0  0  0  0
    6.8384   13.5590   22.5524 N   0  0  0  0  0  0  0  0  0  0  0  0
    9.3301   13.4141   22.7369 C   0  0  1  0  0  0  0  0  0  0  0  0
    9.2843   14.4952   21.6534 C   0  0  0  0  0  0  0  0  0  0  0  0
   10.6165   14.9844   21.4849 O   0  0  0  0  0  0  0  0  0  0  0  0
   11.3404   14.5873   22.6429 C   0  0  0  0  0  0  0  0  0  0  0  0
   10.3309   14.0605   23.6626 C   0  0  2  0  0  0  0  0  0  0  0  0
   10.9577   13.2090   24.6028 O   0  0  0  0  0  0  0  0  0  0  0  0
  1  2  1  0
  2  3  1  0
  3  4  2  0
  3  5  1  0
  5  6  2  0
  6  7  1  0
  7  8  1  0
  8  9  1  0
  9 10  1  0
  7 11  2  0
 11 12  1  0
 12 13  2  0
 13 14  1  0
 14 15  1  0
 16 14  1  1
 16 17  1  0
 17 18  1  0
 18 19  1  0
 19 20  1  0
 20 21  1  1
 13  5  1  0
 20 16  1  0
 10  8  1  0
M  END
>  <energy_score>  (661) 
-24.520943

>  <inchikey>  (661) 
None

>  <smiles>  (661) 
None

>  <ref_pdb>  (661) 
A0514a

>  <alias>  (661) 
None

>  <HIPPO Pose ID>  (661) 
498305

>  <name>  (661) 
P498305

>  <HIPPO Compound ID>  (661) 
292679

>  <ref_mols>  (661) 
A4331a,A0514a

>  <distance_score>  (661) 
1.992741

>  <inspiration_score>  (661) 
None

$$$$
P498306
     RDKit          3D

 21 23  0  0  0  0  0  0  0  0999 V2000
    9.4999    8.2785   23.2477 C   0  0  0  0  0  0  0  0  0  0  0  0
    8.7063    9.0743   24.1222 O   0  0  0  0  0  0  0  0  0  0  0  0
    8.7949   10.3808   23.8053 C   0  0  0  0  0  0  0  0  0  0  0  0
    9.4240   10.8315   22.8635 O   0  0  0  0  0  0  0  0  0  0  0  0
    8.0213   11.2128   24.7510 C   0  0  0  0  0  0  0  0  0  0  0  0
    6.9808   10.6770   25.5149 C   0  0  0  0  0  0  0  0  0  0  0  0
    6.2636   11.5258   26.3477 C   0  0  0  0  0  0  0  0  0  0  0  0
    5.2215   11.0296   27.3115 C   0  0  0  0  0  0  0  0  0  0  0  0
    4.0325   11.9037   27.6512 C   0  0  0  0  0  0  0  0  0  0  0  0
    5.1233   11.7206   28.6590 C   0  0  0  0  0  0  0  0  0  0  0  0
    6.5259   12.8542   26.3847 N   0  0  0  0  0  0  0  0  0  0  0  0
    7.5204   13.3453   25.6309 C   0  0  0  0  0  0  0  0  0  0  0  0
    8.3304   12.5758   24.8197 C   0  0  0  0  0  0  0  0  0  0  0  0
    9.4117   13.1166   24.1288 N   0  0  0  0  0  0  0  0  0  0  0  0
   10.6840   12.9559   24.7507 N   0  0  0  0  0  0  0  0  0  0  0  0
    9.2016   14.2906   23.2780 C   0  0  2  0  0  0  0  0  0  0  0  0
    8.0017   14.2613   22.3472 C   0  0  0  0  0  0  0  0  0  0  0  0
    8.4428   14.6187   21.0279 O   0  0  0  0  0  0  0  0  0  0  0  0
    9.7487   15.1824   21.1412 C   0  0  0  0  0  0  0  0  0  0  0  0
   10.3741   14.4535   22.3081 C   0  0  1  0  0  0  0  0  0  0  0  0
   11.4813   15.1093   22.9301 O   0  0  0  0  0  0  0  0  0  0  0  0
  1  2  1  0
  2  3  1  0
  3  4  2  0
  3  5  1  0
  5  6  2  0
  6  7  1  0
  7  8  1  0
  8  9  1  0
  9 10  1  0
  7 11  2  0
 11 12  1  0
 12 13  2  0
 13 14  1  0
 14 15  1  0
 16 14  1  6
 16 17  1  0
 17 18  1  0
 18 19  1  0
 19 20  1  0
 20 21  1  1
 13  5  1  0
 20 16  1  0
 10  8  1  0
M  END
>  <energy_score>  (662) 
-34.613809

>  <inchikey>  (662) 
None

>  <smiles>  (662) 
None

>  <ref_pdb>  (662) 
A0514a

>  <alias>  (662) 
None

>  <HIPPO Pose ID>  (662) 
498306

>  <name>  (662) 
P498306

>  <HIPPO Compound ID>  (662) 
292679

>  <ref_mols>  (662) 
A4331a,A0514a

>  <distance_score>  (662) 
1.723812

>  <inspiration_score>  (662) 
None

$$$$
P498307
     RDKit          3D

 21 23  0  0  0  0  0  0  0  0999 V2000
    9.2421    8.4538   22.9120 C   0  0  0  0  0  0  0  0  0  0  0  0
    8.4513    9.3472   23.6948 O   0  0  0  0  0  0  0  0  0  0  0  0
    9.1017   10.5009   23.9582 C   0  0  0  0  0  0  0  0  0  0  0  0
   10.2403   10.7512   23.6024 O   0  0  0  0  0  0  0  0  0  0  0  0
    8.2475   11.4427   24.7255 C   0  0  0  0  0  0  0  0  0  0  0  0
    7.1462   10.9214   25.4271 C   0  0  0  0  0  0  0  0  0  0  0  0
    6.3743   11.7658   26.2128 C   0  0  0  0  0  0  0  0  0  0  0  0
    5.2957   11.2564   27.1302 C   0  0  0  0  0  0  0  0  0  0  0  0
    4.1117   12.1362   27.4701 C   0  0  0  0  0  0  0  0  0  0  0  0
    5.1754   11.9046   28.4968 C   0  0  0  0  0  0  0  0  0  0  0  0
    6.6326   13.0911   26.2584 N   0  0  0  0  0  0  0  0  0  0  0  0
    7.6800   13.5791   25.5744 C   0  0  0  0  0  0  0  0  0  0  0  0
    8.5565   12.8153   24.8179 C   0  0  0  0  0  0  0  0  0  0  0  0
    9.6821   13.5004   24.2692 N   0  0  0  0  0  0  0  0  0  0  0  0
   10.9321   13.0083   24.7948 N   0  0  0  0  0  0  0  0  0  0  0  0
    9.5923   13.5626   22.7782 C   0  0  1  0  0  0  0  0  0  0  0  0
    8.3907   14.3326   22.2595 C   0  0  0  0  0  0  0  0  0  0  0  0
    8.7782   14.8161   20.9764 O   0  0  0  0  0  0  0  0  0  0  0  0
   10.1680   15.1607   21.0537 C   0  0  0  0  0  0  0  0  0  0  0  0
   10.7821   14.2783   22.1278 C   0  0  1  0  0  0  0  0  0  0  0  0
   11.5405   15.0132   23.0892 O   0  0  0  0  0  0  0  0  0  0  0  0
  1  2  1  0
  2  3  1  0
  3  4  2  0
  3  5  1  0
  5  6  2  0
  6  7  1  0
  7  8  1  0
  8  9  1  0
  9 10  1  0
  7 11  2  0
 11 12  1  0
 12 13  2  0
 13 14  1  0
 14 15  1  0
 16 14  1  1
 16 17  1  0
 17 18  1  0
 18 19  1  0
 19 20  1  0
 20 21  1  1
 13  5  1  0
 20 16  1  0
 10  8  1  0
M  END
>  <energy_score>  (663) 
-53.712989

>  <inchikey>  (663) 
None

>  <smiles>  (663) 
None

>  <ref_pdb>  (663) 
A0514a

>  <alias>  (663) 
None

>  <HIPPO Pose ID>  (663) 
498307

>  <name>  (663) 
P498307

>  <HIPPO Compound ID>  (663) 
292679

>  <ref_mols>  (663) 
A4331a,A0514a

>  <distance_score>  (663) 
1.405141

>  <inspiration_score>  (663) 
None

$$$$
P498308
     RDKit          3D

 21 23  0  0  0  0  0  0  0  0999 V2000
    9.4867    8.5706   23.4921 C   0  0  0  0  0  0  0  0  0  0  0  0
    8.5938    9.2389   24.3877 O   0  0  0  0  0  0  0  0  0  0  0  0
    8.4756   10.5497   24.0714 C   0  0  0  0  0  0  0  0  0  0  0  0
    8.9788   11.0548   23.0876 O   0  0  0  0  0  0  0  0  0  0  0  0
    7.6341   11.2910   25.0293 C   0  0  0  0  0  0  0  0  0  0  0  0
    6.6359   10.5955   25.7186 C   0  0  0  0  0  0  0  0  0  0  0  0
    5.8325   11.2881   26.6098 C   0  0  0  0  0  0  0  0  0  0  0  0
    4.8538   10.6125   27.5190 C   0  0  0  0  0  0  0  0  0  0  0  0
    4.8727   10.9758   28.9859 C   0  0  0  0  0  0  0  0  0  0  0  0
    3.7367   11.4395   28.1277 C   0  0  0  0  0  0  0  0  0  0  0  0
    5.9395   12.6242   26.7535 N   0  0  0  0  0  0  0  0  0  0  0  0
    6.8973   13.2724   26.0852 C   0  0  0  0  0  0  0  0  0  0  0  0
    7.8219   12.6659   25.2517 C   0  0  0  0  0  0  0  0  0  0  0  0
    8.9318   13.4047   24.7865 N   0  0  0  0  0  0  0  0  0  0  0  0
    9.4592   14.3319   25.7367 N   0  0  0  0  0  0  0  0  0  0  0  0
    8.7350   13.9143   23.4113 C   0  0  0  0  0  0  0  0  0  0  0  0
   10.0221   13.7380   22.6411 C   0  0  1  0  0  0  0  0  0  0  0  0
   10.3338   14.7033   21.4851 C   0  0  0  0  0  0  0  0  0  0  0  0
   11.8161   14.3651   21.7770 C   0  0  1  0  0  0  0  0  0  0  0  0
   12.7870   15.4554   21.5048 C   0  0  0  0  0  0  0  0  0  0  0  0
   11.4006   14.1295   23.2318 C   0  0  0  0  0  0  0  0  0  0  0  0
  1  2  1  0
  2  3  1  0
  3  4  2  0
  3  5  1  0
  5  6  2  0
  6  7  1  0
  7  8  1  0
  8  9  1  0
  9 10  1  0
  7 11  2  0
 11 12  1  0
 12 13  2  0
 13 14  1  0
 14 15  1  0
 14 16  1  0
 17 16  1  1
 17 18  1  0
 18 19  1  0
 19 20  1  1
 19 21  1  0
 13  5  1  0
 21 17  1  0
 10  8  1  0
M  END
>  <energy_score>  (664) 
-28.352495

>  <inchikey>  (664) 
None

>  <smiles>  (664) 
None

>  <ref_pdb>  (664) 
A0514a

>  <alias>  (664) 
None

>  <HIPPO Pose ID>  (664) 
498308

>  <name>  (664) 
P498308

>  <HIPPO Compound ID>  (664) 
292680

>  <ref_mols>  (664) 
A4331a,A0514a

>  <distance_score>  (664) 
1.716166

>  <inspiration_score>  (664) 
None

$$$$
P498309
     RDKit          3D

 21 23  0  0  0  0  0  0  0  0999 V2000
    9.5883    8.2083   23.4102 C   0  0  0  0  0  0  0  0  0  0  0  0
    8.7119    8.9286   24.2737 O   0  0  0  0  0  0  0  0  0  0  0  0
    8.6797   10.2069   23.8584 C   0  0  0  0  0  0  0  0  0  0  0  0
    9.1894   10.5877   22.8204 O   0  0  0  0  0  0  0  0  0  0  0  0
    7.9998   11.1052   24.8071 C   0  0  0  0  0  0  0  0  0  0  0  0
    6.8813   10.6659   25.5175 C   0  0  0  0  0  0  0  0  0  0  0  0
    6.2552   11.5560   26.3807 C   0  0  0  0  0  0  0  0  0  0  0  0
    5.1195   11.1563   27.2816 C   0  0  0  0  0  0  0  0  0  0  0  0
    3.9678   12.1154   27.4991 C   0  0  0  0  0  0  0  0  0  0  0  0
    4.9569   11.8929   28.5989 C   0  0  0  0  0  0  0  0  0  0  0  0
    6.6842   12.8366   26.4986 N   0  0  0  0  0  0  0  0  0  0  0  0
    7.7589   13.2329   25.8012 C   0  0  0  0  0  0  0  0  0  0  0  0
    8.4991   12.4064   24.9807 C   0  0  0  0  0  0  0  0  0  0  0  0
    9.6938   12.8465   24.3865 N   0  0  0  0  0  0  0  0  0  0  0  0
   10.6626   13.5085   25.1688 N   0  0  0  0  0  0  0  0  0  0  0  0
    9.5469   13.1295   22.9482 C   0  0  0  0  0  0  0  0  0  0  0  0
    9.7255   14.5868   22.6269 C   0  0  1  0  0  0  0  0  0  0  0  0
   11.0991   14.9549   21.9942 C   0  0  0  0  0  0  0  0  0  0  0  0
   10.3977   14.8439   20.6268 C   0  0  2  0  0  0  0  0  0  0  0  0
   10.6298   15.7595   19.4560 C   0  0  0  0  0  0  0  0  0  0  0  0
    9.0574   15.0829   21.3353 C   0  0  0  0  0  0  0  0  0  0  0  0
  1  2  1  0
  2  3  1  0
  3  4  2  0
  3  5  1  0
  5  6  2  0
  6  7  1  0
  7  8  1  0
  8  9  1  0
  9 10  1  0
  7 11  2  0
 11 12  1  0
 12 13  2  0
 13 14  1  0
 14 15  1  0
 14 16  1  0
 17 16  1  6
 17 18  1  0
 18 19  1  0
 19 20  1  6
 19 21  1  0
 13  5  1  0
 21 17  1  0
 10  8  1  0
M  END
>  <energy_score>  (665) 
-21.614505

>  <inchikey>  (665) 
None

>  <smiles>  (665) 
None

>  <ref_pdb>  (665) 
A0514a

>  <alias>  (665) 
None

>  <HIPPO Pose ID>  (665) 
498309

>  <name>  (665) 
P498309

>  <HIPPO Compound ID>  (665) 
292680

>  <ref_mols>  (665) 
A4331a,A0514a

>  <distance_score>  (665) 
1.266603

>  <inspiration_score>  (665) 
None

$$$$
P498310
     RDKit          3D

 21 23  0  0  0  0  0  0  0  0999 V2000
    9.2379    8.8419   23.1468 C   0  0  0  0  0  0  0  0  0  0  0  0
    8.4340    9.7890   23.8619 O   0  0  0  0  0  0  0  0  0  0  0  0
    9.0083   11.0125   23.9595 C   0  0  0  0  0  0  0  0  0  0  0  0
   10.1364   11.2788   23.5831 O   0  0  0  0  0  0  0  0  0  0  0  0
    8.0771   11.9984   24.5721 C   0  0  0  0  0  0  0  0  0  0  0  0
    6.9554   11.5663   25.2845 C   0  0  0  0  0  0  0  0  0  0  0  0
    6.1290   12.5062   25.8957 C   0  0  0  0  0  0  0  0  0  0  0  0
    4.9698   12.1437   26.7675 C   0  0  0  0  0  0  0  0  0  0  0  0
    5.0557   11.1474   27.8879 C   0  0  0  0  0  0  0  0  0  0  0  0
    5.0327   12.6111   28.2077 C   0  0  0  0  0  0  0  0  0  0  0  0
    6.3381   13.8276   25.7559 N   0  0  0  0  0  0  0  0  0  0  0  0
    7.4191   14.2212   25.0745 C   0  0  0  0  0  0  0  0  0  0  0  0
    8.3570   13.3707   24.5125 C   0  0  0  0  0  0  0  0  0  0  0  0
    9.6285   13.9101   24.2467 N   0  0  0  0  0  0  0  0  0  0  0  0
   10.5785   13.5225   25.2388 N   0  0  0  0  0  0  0  0  0  0  0  0
   10.2226   14.2949   23.0212 C   0  0  0  0  0  0  0  0  0  0  0  0
    9.5024   14.6366   21.8933 C   0  0  0  0  0  0  0  0  0  0  0  0
   10.2134   15.0546   20.7779 C   0  0  0  0  0  0  0  0  0  0  0  0
   11.5914   15.0446   20.8289 C   0  0  0  0  0  0  0  0  0  0  0  0
   12.2757   14.7694   21.9485 N   0  0  0  0  0  0  0  0  0  0  0  0
   11.5828   14.4174   23.0449 N   0  0  0  0  0  0  0  0  0  0  0  0
  1  2  1  0
  2  3  1  0
  3  4  2  0
  3  5  1  0
  5  6  2  0
  6  7  1  0
  7  8  1  0
  8  9  1  0
  9 10  1  0
  7 11  2  0
 11 12  1  0
 12 13  2  0
 13 14  1  0
 14 15  1  0
 14 16  1  0
 16 17  2  0
 17 18  1  0
 18 19  2  0
 19 20  1  0
 20 21  2  0
 13  5  1  0
 21 16  1  0
 10  8  1  0
M  END
>  <energy_score>  (666) 
-49.17876

>  <inchikey>  (666) 
None

>  <smiles>  (666) 
None

>  <ref_pdb>  (666) 
A0514a

>  <alias>  (666) 
None

>  <HIPPO Pose ID>  (666) 
498310

>  <name>  (666) 
P498310

>  <HIPPO Compound ID>  (666) 
292682

>  <ref_mols>  (666) 
A4331a,A0514a

>  <distance_score>  (666) 
1.632912

>  <inspiration_score>  (666) 
None

$$$$
P498311
     RDKit          3D

 21 23  0  0  0  0  0  0  0  0999 V2000
    9.2918    8.4679   22.9128 C   0  0  0  0  0  0  0  0  0  0  0  0
    8.4960    9.3099   23.7449 O   0  0  0  0  0  0  0  0  0  0  0  0
    9.0333   10.5355   23.9168 C   0  0  0  0  0  0  0  0  0  0  0  0
   10.1056   10.9004   23.4648 O   0  0  0  0  0  0  0  0  0  0  0  0
    8.1837   11.3746   24.7969 C   0  0  0  0  0  0  0  0  0  0  0  0
    7.1008   10.7967   25.4797 C   0  0  0  0  0  0  0  0  0  0  0  0
    6.3367   11.5798   26.3364 C   0  0  0  0  0  0  0  0  0  0  0  0
    5.2219   11.0208   27.1732 C   0  0  0  0  0  0  0  0  0  0  0  0
    5.1287   11.4187   28.6290 C   0  0  0  0  0  0  0  0  0  0  0  0
    4.1316   11.9624   27.6540 C   0  0  0  0  0  0  0  0  0  0  0  0
    6.6047   12.8939   26.4998 N   0  0  0  0  0  0  0  0  0  0  0  0
    7.5955   13.4451   25.7867 C   0  0  0  0  0  0  0  0  0  0  0  0
    8.4631   12.7384   24.9675 C   0  0  0  0  0  0  0  0  0  0  0  0
    9.4819   13.4880   24.3287 N   0  0  0  0  0  0  0  0  0  0  0  0
   10.8250   13.1384   24.5258 N   0  0  0  0  0  0  0  0  0  0  0  0
    9.1801   13.9799   23.0910 C   0  0  0  0  0  0  0  0  0  0  0  0
    7.9621   14.0592   22.5939 N   0  0  0  0  0  0  0  0  0  0  0  0
    8.1252   14.8567   21.5150 C   0  0  0  0  0  0  0  0  0  0  0  0
    9.3764   15.1353   21.1824 N   0  0  0  0  0  0  0  0  0  0  0  0
   10.0505   14.5651   22.1975 N   0  0  0  0  0  0  0  0  0  0  0  0
   11.4740   14.7330   22.2623 C   0  0  0  0  0  0  0  0  0  0  0  0
  1  2  1  0
  2  3  1  0
  3  4  2  0
  3  5  1  0
  5  6  2  0
  6  7  1  0
  7  8  1  0
  8  9  1  0
  9 10  1  0
  7 11  2  0
 11 12  1  0
 12 13  2  0
 13 14  1  0
 14 15  1  0
 14 16  1  0
 16 17  2  0
 17 18  1  0
 18 19  2  0
 19 20  1  0
 20 21  1  0
 13  5  1  0
 20 16  1  0
 10  8  1  0
M  END
>  <energy_score>  (667) 
-57.640187

>  <inchikey>  (667) 
None

>  <smiles>  (667) 
None

>  <ref_pdb>  (667) 
A0514a

>  <alias>  (667) 
None

>  <HIPPO Pose ID>  (667) 
498311

>  <name>  (667) 
P498311

>  <HIPPO Compound ID>  (667) 
292685

>  <ref_mols>  (667) 
A4331a,A0514a

>  <distance_score>  (667) 
1.834201

>  <inspiration_score>  (667) 
None

$$$$
P498312
     RDKit          3D

 21 23  0  0  0  0  0  0  0  0999 V2000
    9.5079    8.7992   22.9695 C   0  0  0  0  0  0  0  0  0  0  0  0
    8.6124    9.7233   23.5844 O   0  0  0  0  0  0  0  0  0  0  0  0
    9.1651   10.9368   23.8321 C   0  0  0  0  0  0  0  0  0  0  0  0
   10.3336   11.2245   23.6613 O   0  0  0  0  0  0  0  0  0  0  0  0
    8.1291   11.8174   24.4235 C   0  0  0  0  0  0  0  0  0  0  0  0
    7.1772   11.2178   25.2613 C   0  0  0  0  0  0  0  0  0  0  0  0
    6.2669   11.9993   25.9637 C   0  0  0  0  0  0  0  0  0  0  0  0
    5.4003   11.4100   27.0451 C   0  0  0  0  0  0  0  0  0  0  0  0
    4.1896   12.1564   27.5567 C   0  0  0  0  0  0  0  0  0  0  0  0
    5.4265   12.0926   28.3987 C   0  0  0  0  0  0  0  0  0  0  0  0
    6.2024   13.3286   25.7681 N   0  0  0  0  0  0  0  0  0  0  0  0
    7.0957   13.8841   24.9376 C   0  0  0  0  0  0  0  0  0  0  0  0
    8.1501   13.2115   24.3210 C   0  0  0  0  0  0  0  0  0  0  0  0
    9.2872   14.0241   23.9991 N   0  0  0  0  0  0  0  0  0  0  0  0
   10.1211   13.9642   25.2146 C   0  0  0  0  0  0  0  0  0  0  0  0
    9.8658   13.9053   22.6857 N   0  0  0  0  0  0  0  0  0  0  0  0
    9.1406   14.8012   21.7479 C   0  0  0  0  0  0  0  0  0  0  0  0
    9.9415   15.6704   20.7518 C   0  0  0  0  0  0  0  0  0  0  0  0
   11.2953   15.8981   21.1148 O   0  0  0  0  0  0  0  0  0  0  0  0
   11.9292   14.6701   21.4163 C   0  0  0  0  0  0  0  0  0  0  0  0
   11.3238   14.1675   22.7098 C   0  0  0  0  0  0  0  0  0  0  0  0
  1  2  1  0
  2  3  1  0
  3  4  2  0
  3  5  1  0
  5  6  2  0
  6  7  1  0
  7  8  1  0
  8  9  1  0
  9 10  1  0
  7 11  2  0
 11 12  1  0
 12 13  2  0
 13 14  1  0
 14 15  1  0
 14 16  1  0
 16 17  1  0
 17 18  1  0
 18 19  1  0
 19 20  1  0
 20 21  1  0
 13  5  1  0
 21 16  1  0
 10  8  1  0
M  END
>  <energy_score>  (668) 
-36.176142

>  <inchikey>  (668) 
None

>  <smiles>  (668) 
None

>  <ref_pdb>  (668) 
A0514a

>  <alias>  (668) 
None

>  <HIPPO Pose ID>  (668) 
498312

>  <name>  (668) 
P498312

>  <HIPPO Compound ID>  (668) 
292687

>  <ref_mols>  (668) 
A4331a,A0514a

>  <distance_score>  (668) 
1.982162

>  <inspiration_score>  (668) 
None

$$$$
P498313
     RDKit          3D

 21 23  0  0  0  0  0  0  0  0999 V2000
    9.5122    8.7780   23.0195 C   0  0  0  0  0  0  0  0  0  0  0  0
    8.6424    9.6677   23.7200 O   0  0  0  0  0  0  0  0  0  0  0  0
    9.1460   10.9173   23.8678 C   0  0  0  0  0  0  0  0  0  0  0  0
   10.2614   11.2717   23.5403 O   0  0  0  0  0  0  0  0  0  0  0  0
    8.1186   11.7902   24.4820 C   0  0  0  0  0  0  0  0  0  0  0  0
    7.1260   11.2125   25.2801 C   0  0  0  0  0  0  0  0  0  0  0  0
    6.2202   12.0223   25.9549 C   0  0  0  0  0  0  0  0  0  0  0  0
    5.2815   11.4503   26.9809 C   0  0  0  0  0  0  0  0  0  0  0  0
    5.4215   11.8992   28.4172 C   0  0  0  0  0  0  0  0  0  0  0  0
    4.2348   12.3400   27.6184 C   0  0  0  0  0  0  0  0  0  0  0  0
    6.2033   13.3556   25.7642 N   0  0  0  0  0  0  0  0  0  0  0  0
    7.1449   13.8894   24.9751 C   0  0  0  0  0  0  0  0  0  0  0  0
    8.1899   13.1829   24.3912 C   0  0  0  0  0  0  0  0  0  0  0  0
    9.3990   13.8908   24.1856 N   0  0  0  0  0  0  0  0  0  0  0  0
   10.1437   13.9724   25.3956 N   0  0  0  0  0  0  0  0  0  0  0  0
   10.0828   14.1777   22.9770 C   0  0  0  0  0  0  0  0  0  0  0  0
    9.4423   14.6864   21.8562 C   0  0  0  0  0  0  0  0  0  0  0  0
   10.2360   15.1911   20.8379 C   0  0  0  0  0  0  0  0  0  0  0  0
   11.5852   15.1881   20.8725 N   0  0  0  0  0  0  0  0  0  0  0  0
   12.2160   14.6349   21.9181 N   0  0  0  0  0  0  0  0  0  0  0  0
   11.4739   14.1212   22.9125 C   0  0  0  0  0  0  0  0  0  0  0  0
  1  2  1  0
  2  3  1  0
  3  4  2  0
  3  5  1  0
  5  6  2  0
  6  7  1  0
  7  8  1  0
  8  9  1  0
  9 10  1  0
  7 11  2  0
 11 12  1  0
 12 13  2  0
 13 14  1  0
 14 15  1  0
 14 16  1  0
 16 17  2  0
 17 18  1  0
 18 19  2  0
 19 20  1  0
 20 21  2  0
 13  5  1  0
 21 16  1  0
 10  8  1  0
M  END
>  <energy_score>  (669) 
-28.297965

>  <inchikey>  (669) 
None

>  <smiles>  (669) 
None

>  <ref_pdb>  (669) 
A0514a

>  <alias>  (669) 
None

>  <HIPPO Pose ID>  (669) 
498313

>  <name>  (669) 
P498313

>  <HIPPO Compound ID>  (669) 
292690

>  <ref_mols>  (669) 
A4331a,A0514a

>  <distance_score>  (669) 
1.99387

>  <inspiration_score>  (669) 
None

$$$$
P498314
     RDKit          3D

 21 23  0  0  0  0  0  0  0  0999 V2000
    9.7745    8.9559   22.9890 C   0  0  0  0  0  0  0  0  0  0  0  0
    8.9083   10.0233   23.3545 O   0  0  0  0  0  0  0  0  0  0  0  0
    9.4979   11.2232   23.5730 C   0  0  0  0  0  0  0  0  0  0  0  0
   10.6815   11.4827   23.5001 O   0  0  0  0  0  0  0  0  0  0  0  0
    8.4362   12.1538   23.9918 C   0  0  0  0  0  0  0  0  0  0  0  0
    7.4918   11.5889   24.8887 C   0  0  0  0  0  0  0  0  0  0  0  0
    6.5488   12.3865   25.5062 C   0  0  0  0  0  0  0  0  0  0  0  0
    5.6588   11.8462   26.5984 C   0  0  0  0  0  0  0  0  0  0  0  0
    4.4669   12.6320   27.0929 C   0  0  0  0  0  0  0  0  0  0  0  0
    5.6972   12.5455   27.9425 C   0  0  0  0  0  0  0  0  0  0  0  0
    6.4896   13.6972   25.2008 N   0  0  0  0  0  0  0  0  0  0  0  0
    7.3938   14.2134   24.3207 C   0  0  0  0  0  0  0  0  0  0  0  0
    8.4335   13.5257   23.6880 C   0  0  0  0  0  0  0  0  0  0  0  0
    9.5079   14.3131   23.2078 N   0  0  0  0  0  0  0  0  0  0  0  0
   10.4308   14.2945   24.2494 N   0  0  0  0  0  0  0  0  0  0  0  0
   11.6110   14.2199   23.7456 C   0  0  0  0  0  0  0  0  0  0  0  0
   11.7192   14.3386   22.2873 C   0  0  0  0  0  0  0  0  0  0  0  0
   10.2691   14.1492   21.8934 C   0  0  2  0  0  0  0  0  0  0  0  0
    9.9328   15.0542   20.6490 C   0  0  0  0  0  0  0  0  0  0  0  0
   11.0072   14.9394   19.5246 C   0  0  0  0  0  0  0  0  0  0  0  0
    9.7808   16.5541   20.8147 C   0  0  0  0  0  0  0  0  0  0  0  0
  1  2  1  0
  2  3  1  0
  3  4  2  0
  3  5  1  0
  5  6  2  0
  6  7  1  0
  7  8  1  0
  8  9  1  0
  9 10  1  0
  7 11  2  0
 11 12  1  0
 12 13  2  0
 13 14  1  0
 14 15  1  0
 15 16  2  0
 16 17  1  0
 17 18  1  0
 18 19  1  6
 19 20  1  0
 19 21  1  0
 13  5  1  0
 18 14  1  0
 10  8  1  0
M  END
>  <energy_score>  (670) 
-22.986528

>  <inchikey>  (670) 
None

>  <smiles>  (670) 
None

>  <ref_pdb>  (670) 
A0514a

>  <alias>  (670) 
None

>  <HIPPO Pose ID>  (670) 
498314

>  <name>  (670) 
P498314

>  <HIPPO Compound ID>  (670) 
292692

>  <ref_mols>  (670) 
A4331a,A0514a

>  <distance_score>  (670) 
1.870355

>  <inspiration_score>  (670) 
None

$$$$
P498315
     RDKit          3D

 21 22  0  0  0  0  0  0  0  0999 V2000
    9.3137    8.5266   23.3261 C   0  0  0  0  0  0  0  0  0  0  0  0
    8.5920    9.3765   24.2239 O   0  0  0  0  0  0  0  0  0  0  0  0
    8.7174   10.6868   23.9148 C   0  0  0  0  0  0  0  0  0  0  0  0
    9.3433   11.1213   22.9642 O   0  0  0  0  0  0  0  0  0  0  0  0
    7.9948   11.5494   24.8757 C   0  0  0  0  0  0  0  0  0  0  0  0
    6.8679   11.0824   25.5609 C   0  0  0  0  0  0  0  0  0  0  0  0
    6.1917   11.9659   26.3967 C   0  0  0  0  0  0  0  0  0  0  0  0
    4.9395   11.6403   27.1352 C   0  0  0  0  0  0  0  0  0  0  0  0
    4.8695   10.5866   28.1973 C   0  0  0  0  0  0  0  0  0  0  0  0
    4.8784   12.0307   28.5979 C   0  0  0  0  0  0  0  0  0  0  0  0
    6.6122   13.2351   26.5814 N   0  0  0  0  0  0  0  0  0  0  0  0
    7.6827   13.6651   25.9097 C   0  0  0  0  0  0  0  0  0  0  0  0
    8.4284   12.8726   25.0543 C   0  0  0  0  0  0  0  0  0  0  0  0
    9.5545   13.4103   24.3765 N   0  0  0  0  0  0  0  0  0  0  0  0
   10.4736   14.1287   25.1937 N   0  0  0  0  0  0  0  0  0  0  0  0
    9.0352   14.1125   23.1723 C   0  0  0  0  0  0  0  0  0  0  0  0
   10.1644   14.4317   22.2176 C   0  0  0  0  0  0  0  0  0  0  0  0
    9.6131   15.1644   21.0323 C   0  0  0  0  0  0  0  0  0  0  0  0
   10.5409   15.2320   20.0610 F   0  0  0  0  0  0  0  0  0  0  0  0
    8.5238   14.5170   20.5641 F   0  0  0  0  0  0  0  0  0  0  0  0
    9.2270   16.4146   21.3225 F   0  0  0  0  0  0  0  0  0  0  0  0
  1  2  1  0
  2  3  1  0
  3  4  2  0
  3  5  1  0
  5  6  2  0
  6  7  1  0
  7  8  1  0
  8  9  1  0
  9 10  1  0
  7 11  2  0
 11 12  1  0
 12 13  2  0
 13 14  1  0
 14 15  1  0
 14 16  1  0
 16 17  1  0
 17 18  1  0
 18 19  1  0
 18 20  1  0
 18 21  1  0
 13  5  1  0
 10  8  1  0
M  END
>  <energy_score>  (671) 
-32.145185

>  <inchikey>  (671) 
None

>  <smiles>  (671) 
None

>  <ref_pdb>  (671) 
A0514a

>  <alias>  (671) 
None

>  <HIPPO Pose ID>  (671) 
498315

>  <name>  (671) 
P498315

>  <HIPPO Compound ID>  (671) 
292694

>  <ref_mols>  (671) 
A4331a,A0514a

>  <distance_score>  (671) 
1.553245

>  <inspiration_score>  (671) 
None

$$$$
P498316
     RDKit          3D

 21 23  0  0  0  0  0  0  0  0999 V2000
    9.2098    8.3280   22.8400 C   0  0  0  0  0  0  0  0  0  0  0  0
    8.3501    9.1215   23.6508 O   0  0  0  0  0  0  0  0  0  0  0  0
    8.9102   10.3105   23.9464 C   0  0  0  0  0  0  0  0  0  0  0  0
   10.0394   10.6464   23.6327 O   0  0  0  0  0  0  0  0  0  0  0  0
    7.9667   11.1370   24.7393 C   0  0  0  0  0  0  0  0  0  0  0  0
    6.9772   10.5188   25.5176 C   0  0  0  0  0  0  0  0  0  0  0  0
    6.1823   11.2958   26.3500 C   0  0  0  0  0  0  0  0  0  0  0  0
    5.1723   10.7167   27.2970 C   0  0  0  0  0  0  0  0  0  0  0  0
    5.2131   11.1386   28.7485 C   0  0  0  0  0  0  0  0  0  0  0  0
    4.1026   11.6292   27.8740 C   0  0  0  0  0  0  0  0  0  0  0  0
    6.3397   12.6334   26.4055 N   0  0  0  0  0  0  0  0  0  0  0  0
    7.2450   13.2106   25.6076 C   0  0  0  0  0  0  0  0  0  0  0  0
    8.1013   12.5310   24.7503 C   0  0  0  0  0  0  0  0  0  0  0  0
    9.0764   13.2132   23.9896 N   0  0  0  0  0  0  0  0  0  0  0  0
   10.3877   13.0802   24.5142 N   0  0  0  0  0  0  0  0  0  0  0  0
    8.6973   14.5653   23.5771 C   0  0  0  0  0  0  0  0  0  0  0  0
    9.2029   15.0449   22.2098 C   0  0  2  0  0  0  0  0  0  0  0  0
    8.5583   14.3002   21.1087 C   0  0  0  0  0  0  0  0  0  0  0  0
   10.6572   15.2664   21.8568 C   0  0  0  0  0  0  0  0  0  0  0  0
   11.8958   15.0964   22.6964 C   0  0  0  0  0  0  0  0  0  0  0  0
   11.5951   14.1052   21.6333 C   0  0  0  0  0  0  0  0  0  0  0  0
  1  2  1  0
  2  3  1  0
  3  4  2  0
  3  5  1  0
  5  6  2  0
  6  7  1  0
  7  8  1  0
  8  9  1  0
  9 10  1  0
  7 11  2  0
 11 12  1  0
 12 13  2  0
 13 14  1  0
 14 15  1  0
 14 16  1  0
 16 17  1  0
 17 18  1  6
 17 19  1  0
 19 20  1  0
 20 21  1  0
 13  5  1  0
 21 19  1  0
 10  8  1  0
M  END
>  <energy_score>  (672) 
-16.063915

>  <inchikey>  (672) 
None

>  <smiles>  (672) 
None

>  <ref_pdb>  (672) 
A0514a

>  <alias>  (672) 
None

>  <HIPPO Pose ID>  (672) 
498316

>  <name>  (672) 
P498316

>  <HIPPO Compound ID>  (672) 
292696

>  <ref_mols>  (672) 
A4331a,A0514a

>  <distance_score>  (672) 
1.65545

>  <inspiration_score>  (672) 
None

$$$$
P498317
     RDKit          3D

 21 23  0  0  0  0  0  0  0  0999 V2000
    9.3680    8.6746   23.0471 C   0  0  0  0  0  0  0  0  0  0  0  0
    8.4440    9.4114   23.8532 O   0  0  0  0  0  0  0  0  0  0  0  0
    8.8461   10.6779   24.1171 C   0  0  0  0  0  0  0  0  0  0  0  0
    9.9009   11.1580   23.7518 O   0  0  0  0  0  0  0  0  0  0  0  0
    7.8023   11.4052   24.8863 C   0  0  0  0  0  0  0  0  0  0  0  0
    6.8499   10.6469   25.5873 C   0  0  0  0  0  0  0  0  0  0  0  0
    5.9091   11.2932   26.3742 C   0  0  0  0  0  0  0  0  0  0  0  0
    5.0952   10.5821   27.4126 C   0  0  0  0  0  0  0  0  0  0  0  0
    3.9209   11.2709   28.0749 C   0  0  0  0  0  0  0  0  0  0  0  0
    5.2040   11.1145   28.8296 C   0  0  0  0  0  0  0  0  0  0  0  0
    5.7852   12.6319   26.3440 N   0  0  0  0  0  0  0  0  0  0  0  0
    6.6952   13.3403   25.6667 C   0  0  0  0  0  0  0  0  0  0  0  0
    7.7966   12.8070   25.0078 C   0  0  0  0  0  0  0  0  0  0  0  0
    8.8628   13.6628   24.6330 N   0  0  0  0  0  0  0  0  0  0  0  0
    9.0625   14.8120   25.4581 N   0  0  0  0  0  0  0  0  0  0  0  0
    8.9534   13.8768   23.1692 C   0  0  0  0  0  0  0  0  0  0  0  0
   10.3467   14.3612   22.7291 C   0  0  1  0  0  0  0  0  0  0  0  0
   11.5115   13.5770   23.3066 C   0  0  0  0  0  0  0  0  0  0  0  0
   10.4319   14.4485   21.2384 C   0  0  0  0  0  0  0  0  0  0  0  0
   10.2892   15.7414   20.4862 C   0  0  0  0  0  0  0  0  0  0  0  0
   11.6293   15.0738   20.5762 C   0  0  0  0  0  0  0  0  0  0  0  0
  1  2  1  0
  2  3  1  0
  3  4  2  0
  3  5  1  0
  5  6  2  0
  6  7  1  0
  7  8  1  0
  8  9  1  0
  9 10  1  0
  7 11  2  0
 11 12  1  0
 12 13  2  0
 13 14  1  0
 14 15  1  0
 14 16  1  0
 16 17  1  0
 17 18  1  6
 17 19  1  0
 19 20  1  0
 20 21  1  0
 13  5  1  0
 21 19  1  0
 10  8  1  0
M  END
>  <energy_score>  (673) 
-39.14895

>  <inchikey>  (673) 
None

>  <smiles>  (673) 
None

>  <ref_pdb>  (673) 
A0514a

>  <alias>  (673) 
None

>  <HIPPO Pose ID>  (673) 
498317

>  <name>  (673) 
P498317

>  <HIPPO Compound ID>  (673) 
292696

>  <ref_mols>  (673) 
A4331a,A0514a

>  <distance_score>  (673) 
1.806439

>  <inspiration_score>  (673) 
None

$$$$
P498318
     RDKit          3D

 21 23  0  0  0  0  0  0  0  0999 V2000
    9.2642    8.6199   22.9856 C   0  0  0  0  0  0  0  0  0  0  0  0
    8.4634    9.5657   23.6997 O   0  0  0  0  0  0  0  0  0  0  0  0
    9.1237   10.7176   23.9499 C   0  0  0  0  0  0  0  0  0  0  0  0
   10.2939   10.9291   23.6844 O   0  0  0  0  0  0  0  0  0  0  0  0
    8.2512   11.7038   24.6296 C   0  0  0  0  0  0  0  0  0  0  0  0
    7.1147   11.2576   25.3291 C   0  0  0  0  0  0  0  0  0  0  0  0
    6.3526   12.1806   26.0367 C   0  0  0  0  0  0  0  0  0  0  0  0
    5.1183   11.8521   26.8082 C   0  0  0  0  0  0  0  0  0  0  0  0
    5.0777   10.8658   27.9360 C   0  0  0  0  0  0  0  0  0  0  0  0
    5.0561   12.3314   28.2454 C   0  0  0  0  0  0  0  0  0  0  0  0
    6.6817   13.4877   26.0612 N   0  0  0  0  0  0  0  0  0  0  0  0
    7.7489   13.8994   25.3652 C   0  0  0  0  0  0  0  0  0  0  0  0
    8.5924   13.0655   24.6492 C   0  0  0  0  0  0  0  0  0  0  0  0
    9.7363   13.6808   24.0716 N   0  0  0  0  0  0  0  0  0  0  0  0
   10.9390   13.4442   24.7984 N   0  0  0  0  0  0  0  0  0  0  0  0
    9.9310   13.7189   22.6298 C   0  0  0  0  0  0  0  0  0  0  0  0
    8.8983   14.5638   21.8765 C   0  0  0  0  0  0  0  0  0  0  0  0
   10.0648   15.2925   21.1646 C   0  0  0  0  0  0  0  0  0  0  0  0
    9.9343   16.6293   21.0954 F   0  0  0  0  0  0  0  0  0  0  0  0
   10.3619   14.8999   19.9160 F   0  0  0  0  0  0  0  0  0  0  0  0
   11.0259   14.7100   22.2057 C   0  0  0  0  0  0  0  0  0  0  0  0
  1  2  1  0
  2  3  1  0
  3  4  2  0
  3  5  1  0
  5  6  2  0
  6  7  1  0
  7  8  1  0
  8  9  1  0
  9 10  1  0
  7 11  2  0
 11 12  1  0
 12 13  2  0
 13 14  1  0
 14 15  1  0
 14 16  1  0
 16 17  1  0
 17 18  1  0
 18 19  1  0
 18 20  1  0
 18 21  1  0
 13  5  1  0
 21 16  1  0
 10  8  1  0
M  END
>  <energy_score>  (674) 
-46.512818

>  <inchikey>  (674) 
None

>  <smiles>  (674) 
None

>  <ref_pdb>  (674) 
A0514a

>  <alias>  (674) 
None

>  <HIPPO Pose ID>  (674) 
498318

>  <name>  (674) 
P498318

>  <HIPPO Compound ID>  (674) 
292697

>  <ref_mols>  (674) 
A4331a,A0514a

>  <distance_score>  (674) 
1.528581

>  <inspiration_score>  (674) 
None

$$$$
P498319
     RDKit          3D

 21 22  0  0  0  0  0  0  0  0999 V2000
    9.4346    8.4063   23.1975 C   0  0  0  0  0  0  0  0  0  0  0  0
    8.6745    9.1924   24.1167 O   0  0  0  0  0  0  0  0  0  0  0  0
    8.7407   10.5156   23.8669 C   0  0  0  0  0  0  0  0  0  0  0  0
    9.3666   11.0357   22.9606 O   0  0  0  0  0  0  0  0  0  0  0  0
    7.9101   11.2914   24.8164 C   0  0  0  0  0  0  0  0  0  0  0  0
    6.9055   10.6670   25.5613 C   0  0  0  0  0  0  0  0  0  0  0  0
    6.1190   11.4441   26.3979 C   0  0  0  0  0  0  0  0  0  0  0  0
    5.1523   10.8589   27.3861 C   0  0  0  0  0  0  0  0  0  0  0  0
    3.9521   11.6633   27.8383 C   0  0  0  0  0  0  0  0  0  0  0  0
    5.1117   11.4849   28.7677 C   0  0  0  0  0  0  0  0  0  0  0  0
    6.2519   12.7886   26.4231 N   0  0  0  0  0  0  0  0  0  0  0  0
    7.2060   13.3746   25.6919 C   0  0  0  0  0  0  0  0  0  0  0  0
    8.1229   12.6770   24.9245 C   0  0  0  0  0  0  0  0  0  0  0  0
    9.2201   13.2930   24.2906 N   0  0  0  0  0  0  0  0  0  0  0  0
    8.8245   14.1425   23.1707 C   0  0  0  0  0  0  0  0  0  0  0  0
   10.0438   14.3961   22.2944 C   0  0  0  0  0  0  0  0  0  0  0  0
    9.7236   15.2210   21.0689 C   0  0  0  0  0  0  0  0  0  0  0  0
   10.8775   15.2536   20.2478 O   0  0  0  0  0  0  0  0  0  0  0  0
   10.0839   13.8766   25.1811 N   0  0  0  0  0  0  0  0  0  0  0  0
   11.2095   13.3771   25.2206 O   0  0  0  0  0  0  0  0  0  0  0  0
    9.6787   14.8245   25.8617 O   0  0  0  0  0  0  0  0  0  0  0  0
  1  2  1  0
  2  3  1  0
  3  4  2  0
  3  5  1  0
  5  6  2  0
  6  7  1  0
  7  8  1  0
  8  9  1  0
  9 10  1  0
  7 11  2  0
 11 12  1  0
 12 13  2  0
 13 14  1  0
 14 15  1  0
 15 16  1  0
 16 17  1  0
 17 18  1  0
 14 19  1  0
 19 20  2  0
 19 21  1  0
 13  5  1  0
 10  8  1  0
M  CHG  2  19   1  21  -1
M  END
>  <energy_score>  (675) 
-30.472603

>  <inchikey>  (675) 
None

>  <smiles>  (675) 
None

>  <ref_pdb>  (675) 
A0514a

>  <alias>  (675) 
None

>  <HIPPO Pose ID>  (675) 
498319

>  <name>  (675) 
P498319

>  <HIPPO Compound ID>  (675) 
292698

>  <ref_mols>  (675) 
A4331a,A0514a

>  <distance_score>  (675) 
1.841822

>  <inspiration_score>  (675) 
None

$$$$
P498320
     RDKit          3D

 21 22  0  0  0  0  0  0  0  0999 V2000
    9.2766    8.4835   22.9524 C   0  0  0  0  0  0  0  0  0  0  0  0
    8.4711    9.3046   23.7983 O   0  0  0  0  0  0  0  0  0  0  0  0
    9.0032   10.5342   23.9875 C   0  0  0  0  0  0  0  0  0  0  0  0
   10.0632   10.9039   23.5173 O   0  0  0  0  0  0  0  0  0  0  0  0
    8.1216   11.3714   24.8418 C   0  0  0  0  0  0  0  0  0  0  0  0
    7.0151   10.7990   25.4866 C   0  0  0  0  0  0  0  0  0  0  0  0
    6.2415   11.5860   26.3298 C   0  0  0  0  0  0  0  0  0  0  0  0
    5.1392   11.0243   27.1807 C   0  0  0  0  0  0  0  0  0  0  0  0
    5.0664   11.4316   28.6355 C   0  0  0  0  0  0  0  0  0  0  0  0
    4.0482   11.9582   27.6731 C   0  0  0  0  0  0  0  0  0  0  0  0
    6.4996   12.9030   26.4839 N   0  0  0  0  0  0  0  0  0  0  0  0
    7.5512   13.4358   25.8488 C   0  0  0  0  0  0  0  0  0  0  0  0
    8.4354   12.7234   25.0555 C   0  0  0  0  0  0  0  0  0  0  0  0
    9.5938   13.3396   24.5678 N   0  0  0  0  0  0  0  0  0  0  0  0
   10.4514   13.9145   25.5460 N   0  0  0  0  0  0  0  0  0  0  0  0
    9.5459   14.0050   23.2388 C   0  0  2  0  0  0  0  0  0  0  0  0
    8.2010   13.9286   22.5277 C   0  0  0  0  0  0  0  0  0  0  0  0
   10.7334   13.5397   22.4051 C   0  0  0  0  0  0  0  0  0  0  0  0
   11.2785   14.6549   21.5709 C   0  0  0  0  0  0  0  0  0  0  0  0
   12.3636   15.1856   21.7431 O   0  0  0  0  0  0  0  0  0  0  0  0
   10.4271   15.0621   20.6169 O   0  0  0  0  0  0  0  0  0  0  0  0
  1  2  1  0
  2  3  1  0
  3  4  2  0
  3  5  1  0
  5  6  2  0
  6  7  1  0
  7  8  1  0
  8  9  1  0
  9 10  1  0
  7 11  2  0
 11 12  1  0
 12 13  2  0
 13 14  1  0
 14 15  1  0
 14 16  1  0
 16 17  1  6
 16 18  1  0
 18 19  1  0
 19 20  2  0
 19 21  1  0
 13  5  1  0
 10  8  1  0
M  END
>  <energy_score>  (676) 
-36.703509

>  <inchikey>  (676) 
None

>  <smiles>  (676) 
None

>  <ref_pdb>  (676) 
A0514a

>  <alias>  (676) 
None

>  <HIPPO Pose ID>  (676) 
498320

>  <name>  (676) 
P498320

>  <HIPPO Compound ID>  (676) 
292699

>  <ref_mols>  (676) 
A4331a,A0514a

>  <distance_score>  (676) 
1.773759

>  <inspiration_score>  (676) 
None

$$$$
P498321
     RDKit          3D

 21 22  0  0  0  0  0  0  0  0999 V2000
    9.3311    8.5595   22.9621 C   0  0  0  0  0  0  0  0  0  0  0  0
    8.5161    9.4233   23.7534 O   0  0  0  0  0  0  0  0  0  0  0  0
    9.0672   10.6463   23.9408 C   0  0  0  0  0  0  0  0  0  0  0  0
   10.1530   10.9825   23.5038 O   0  0  0  0  0  0  0  0  0  0  0  0
    8.1763   11.5129   24.7567 C   0  0  0  0  0  0  0  0  0  0  0  0
    7.1158   10.9131   25.4599 C   0  0  0  0  0  0  0  0  0  0  0  0
    6.3163   11.6879   26.2894 C   0  0  0  0  0  0  0  0  0  0  0  0
    5.2358   11.0997   27.1512 C   0  0  0  0  0  0  0  0  0  0  0  0
    5.1716   11.4959   28.6087 C   0  0  0  0  0  0  0  0  0  0  0  0
    4.1320   12.0079   27.6611 C   0  0  0  0  0  0  0  0  0  0  0  0
    6.5262   13.0153   26.4074 N   0  0  0  0  0  0  0  0  0  0  0  0
    7.5245   13.5801   25.7115 C   0  0  0  0  0  0  0  0  0  0  0  0
    8.4036   12.8951   24.8847 C   0  0  0  0  0  0  0  0  0  0  0  0
    9.4328   13.6719   24.2970 N   0  0  0  0  0  0  0  0  0  0  0  0
   10.7296   13.2964   24.7790 N   0  0  0  0  0  0  0  0  0  0  0  0
    9.2806   13.8420   22.8105 C   0  0  1  0  0  0  0  0  0  0  0  0
    7.8789   14.3432   22.4390 C   0  0  0  0  0  0  0  0  0  0  0  0
   10.3363   14.7966   22.2390 C   0  0  0  0  0  0  0  0  0  0  0  0
   11.4740   14.0554   21.6449 C   0  0  0  0  0  0  0  0  0  0  0  0
   12.2179   13.3159   22.2699 O   0  0  0  0  0  0  0  0  0  0  0  0
   11.5785   14.2631   20.3255 O   0  0  0  0  0  0  0  0  0  0  0  0
  1  2  1  0
  2  3  1  0
  3  4  2  0
  3  5  1  0
  5  6  2  0
  6  7  1  0
  7  8  1  0
  8  9  1  0
  9 10  1  0
  7 11  2  0
 11 12  1  0
 12 13  2  0
 13 14  1  0
 14 15  1  0
 14 16  1  0
 16 17  1  1
 16 18  1  0
 18 19  1  0
 19 20  2  0
 19 21  1  0
 13  5  1  0
 10  8  1  0
M  END
>  <energy_score>  (677) 
-46.553063

>  <inchikey>  (677) 
None

>  <smiles>  (677) 
None

>  <ref_pdb>  (677) 
A0514a

>  <alias>  (677) 
None

>  <HIPPO Pose ID>  (677) 
498321

>  <name>  (677) 
P498321

>  <HIPPO Compound ID>  (677) 
292699

>  <ref_mols>  (677) 
A4331a,A0514a

>  <distance_score>  (677) 
1.854474

>  <inspiration_score>  (677) 
None

$$$$
P498322
     RDKit          3D

 21 23  0  0  0  0  0  0  0  0999 V2000
    9.6572    8.6327   23.4053 C   0  0  0  0  0  0  0  0  0  0  0  0
    8.6050    9.2995   24.1062 O   0  0  0  0  0  0  0  0  0  0  0  0
    8.6178   10.6337   23.8645 C   0  0  0  0  0  0  0  0  0  0  0  0
    9.3620   11.1735   23.0683 O   0  0  0  0  0  0  0  0  0  0  0  0
    7.6930   11.3662   24.7611 C   0  0  0  0  0  0  0  0  0  0  0  0
    6.9454   10.6637   25.7112 C   0  0  0  0  0  0  0  0  0  0  0  0
    6.2087   11.3692   26.6518 C   0  0  0  0  0  0  0  0  0  0  0  0
    5.2847   10.7056   27.6276 C   0  0  0  0  0  0  0  0  0  0  0  0
    5.2282   11.2051   29.0511 C   0  0  0  0  0  0  0  0  0  0  0  0
    4.0895   11.4988   28.1243 C   0  0  0  0  0  0  0  0  0  0  0  0
    6.3024   12.7118   26.7393 N   0  0  0  0  0  0  0  0  0  0  0  0
    6.9034   13.3708   25.7433 C   0  0  0  0  0  0  0  0  0  0  0  0
    7.5442   12.7577   24.6777 C   0  0  0  0  0  0  0  0  0  0  0  0
    7.6872   13.4901   23.4765 N   0  0  0  0  0  0  0  0  0  0  0  0
    6.5533   14.2902   23.1450 N   0  0  0  0  0  0  0  0  0  0  0  0
    8.8474   13.9785   22.9524 C   0  0  0  0  0  0  0  0  0  0  0  0
   10.1457   13.9246   23.4272 C   0  0  0  0  0  0  0  0  0  0  0  0
   11.1353   14.3961   22.5866 N   0  0  0  0  0  0  0  0  0  0  0  0
   10.5976   14.7426   21.4377 C   0  0  0  0  0  0  0  0  0  0  0  0
   11.3433   15.1170   20.2109 C   0  0  0  0  0  0  0  0  0  0  0  0
    8.8931   14.7435   21.4092 S   0  0  0  0  0  0  0  0  0  0  0  0
  1  2  1  0
  2  3  1  0
  3  4  2  0
  3  5  1  0
  5  6  2  0
  6  7  1  0
  7  8  1  0
  8  9  1  0
  9 10  1  0
  7 11  2  0
 11 12  1  0
 12 13  2  0
 13 14  1  0
 14 15  1  0
 14 16  1  0
 16 17  2  0
 17 18  1  0
 18 19  2  0
 19 20  1  0
 19 21  1  0
 13  5  1  0
 21 16  1  0
 10  8  1  0
M  END
>  <energy_score>  (678) 
-100.864643

>  <inchikey>  (678) 
None

>  <smiles>  (678) 
None

>  <ref_pdb>  (678) 
A0514a

>  <alias>  (678) 
None

>  <HIPPO Pose ID>  (678) 
498322

>  <name>  (678) 
P498322

>  <HIPPO Compound ID>  (678) 
292700

>  <ref_mols>  (678) 
A4331a,A0514a

>  <distance_score>  (678) 
1.916847

>  <inspiration_score>  (678) 
None

$$$$
P498323
     RDKit          3D

 21 23  0  0  0  0  0  0  0  0999 V2000
    9.4379    8.6170   22.9304 C   0  0  0  0  0  0  0  0  0  0  0  0
    8.5822    9.5293   23.6117 O   0  0  0  0  0  0  0  0  0  0  0  0
    9.1843   10.7022   23.9147 C   0  0  0  0  0  0  0  0  0  0  0  0
   10.3569   10.9631   23.7173 O   0  0  0  0  0  0  0  0  0  0  0  0
    8.1992   11.6192   24.5324 C   0  0  0  0  0  0  0  0  0  0  0  0
    7.1529   11.0304   25.2711 C   0  0  0  0  0  0  0  0  0  0  0  0
    6.2864   11.8329   25.9979 C   0  0  0  0  0  0  0  0  0  0  0  0
    5.3326   11.2641   27.0141 C   0  0  0  0  0  0  0  0  0  0  0  0
    4.1628   12.0828   27.5154 C   0  0  0  0  0  0  0  0  0  0  0  0
    5.3536   11.8832   28.3996 C   0  0  0  0  0  0  0  0  0  0  0  0
    6.3649   13.1764   25.9150 N   0  0  0  0  0  0  0  0  0  0  0  0
    7.3645   13.7220   25.1948 C   0  0  0  0  0  0  0  0  0  0  0  0
    8.3608   13.0142   24.5290 C   0  0  0  0  0  0  0  0  0  0  0  0
    9.5245   13.7485   24.2152 N   0  0  0  0  0  0  0  0  0  0  0  0
   10.4737   13.5765   25.2828 N   0  0  0  0  0  0  0  0  0  0  0  0
   10.0778   13.7061   22.8297 C   0  0  2  0  0  0  0  0  0  0  0  0
   11.5257   14.2474   22.8079 C   0  0  0  0  0  0  0  0  0  0  0  0
   11.7179   15.0335   21.5354 C   0  0  0  0  0  0  0  0  0  0  0  0
   10.4565   14.8004   20.7522 C   0  0  2  0  0  0  0  0  0  0  0  0
   10.2459   15.8575   19.7006 C   0  0  0  0  0  0  0  0  0  0  0  0
    9.3471   14.5537   21.7864 C   0  0  0  0  0  0  0  0  0  0  0  0
  1  2  1  0
  2  3  1  0
  3  4  2  0
  3  5  1  0
  5  6  2  0
  6  7  1  0
  7  8  1  0
  8  9  1  0
  9 10  1  0
  7 11  2  0
 11 12  1  0
 12 13  2  0
 13 14  1  0
 14 15  1  0
 16 14  1  1
 16 17  1  0
 17 18  1  0
 18 19  1  0
 19 20  1  1
 19 21  1  0
 13  5  1  0
 21 16  1  0
 10  8  1  0
M  END
>  <energy_score>  (679) 
-21.527285

>  <inchikey>  (679) 
None

>  <smiles>  (679) 
None

>  <ref_pdb>  (679) 
A0514a

>  <alias>  (679) 
None

>  <HIPPO Pose ID>  (679) 
498323

>  <name>  (679) 
P498323

>  <HIPPO Compound ID>  (679) 
292701

>  <ref_mols>  (679) 
A4331a,A0514a

>  <distance_score>  (679) 
1.57487

>  <inspiration_score>  (679) 
None

$$$$
P498324
     RDKit          3D

 21 23  0  0  0  0  0  0  0  0999 V2000
    9.2008    8.5582   23.0135 C   0  0  0  0  0  0  0  0  0  0  0  0
    8.4354    9.4853   23.7886 O   0  0  0  0  0  0  0  0  0  0  0  0
    9.0897   10.6556   23.9805 C   0  0  0  0  0  0  0  0  0  0  0  0
   10.2147   10.8813   23.5681 O   0  0  0  0  0  0  0  0  0  0  0  0
    8.2679   11.6274   24.7535 C   0  0  0  0  0  0  0  0  0  0  0  0
    7.0998   11.1894   25.4049 C   0  0  0  0  0  0  0  0  0  0  0  0
    6.3586   12.0986   26.1539 C   0  0  0  0  0  0  0  0  0  0  0  0
    5.0878   11.7771   26.8645 C   0  0  0  0  0  0  0  0  0  0  0  0
    4.9970   10.7800   27.9804 C   0  0  0  0  0  0  0  0  0  0  0  0
    4.9613   12.2426   28.3023 C   0  0  0  0  0  0  0  0  0  0  0  0
    6.7383   13.3838   26.2756 N   0  0  0  0  0  0  0  0  0  0  0  0
    7.8420   13.7884   25.6381 C   0  0  0  0  0  0  0  0  0  0  0  0
    8.6604   12.9733   24.8690 C   0  0  0  0  0  0  0  0  0  0  0  0
    9.7945   13.6061   24.3064 N   0  0  0  0  0  0  0  0  0  0  0  0
   11.0310   13.1291   24.8291 N   0  0  0  0  0  0  0  0  0  0  0  0
    9.6976   13.7500   22.8302 C   0  0  1  0  0  0  0  0  0  0  0  0
    8.4800   14.5510   22.4049 C   0  0  0  0  0  0  0  0  0  0  0  0
    8.8880   15.2598   21.1306 C   0  0  0  0  0  0  0  0  0  0  0  0
   10.4017   15.3915   21.1326 C   0  0  2  0  0  0  0  0  0  0  0  0
   11.0958   15.1514   19.8042 C   0  0  0  0  0  0  0  0  0  0  0  0
   10.9016   14.4845   22.2479 C   0  0  0  0  0  0  0  0  0  0  0  0
  1  2  1  0
  2  3  1  0
  3  4  2  0
  3  5  1  0
  5  6  2  0
  6  7  1  0
  7  8  1  0
  8  9  1  0
  9 10  1  0
  7 11  2  0
 11 12  1  0
 12 13  2  0
 13 14  1  0
 14 15  1  0
 16 14  1  1
 16 17  1  0
 17 18  1  0
 18 19  1  0
 19 20  1  6
 19 21  1  0
 13  5  1  0
 21 16  1  0
 10  8  1  0
M  END
>  <energy_score>  (680) 
-40.930045

>  <inchikey>  (680) 
None

>  <smiles>  (680) 
None

>  <ref_pdb>  (680) 
A0514a

>  <alias>  (680) 
None

>  <HIPPO Pose ID>  (680) 
498324

>  <name>  (680) 
P498324

>  <HIPPO Compound ID>  (680) 
292701

>  <ref_mols>  (680) 
A4331a,A0514a

>  <distance_score>  (680) 
1.916313

>  <inspiration_score>  (680) 
None

$$$$
P498325
     RDKit          3D

 21 23  0  0  0  0  0  0  0  0999 V2000
    9.3602    8.5993   22.9914 C   0  0  0  0  0  0  0  0  0  0  0  0
    8.4511    9.3784   23.7673 O   0  0  0  0  0  0  0  0  0  0  0  0
    8.9535   10.5890   24.1137 C   0  0  0  0  0  0  0  0  0  0  0  0
   10.0794   10.9621   23.8544 O   0  0  0  0  0  0  0  0  0  0  0  0
    7.9206   11.3811   24.8201 C   0  0  0  0  0  0  0  0  0  0  0  0
    6.9107   10.6787   25.5004 C   0  0  0  0  0  0  0  0  0  0  0  0
    5.9603   11.3828   26.2219 C   0  0  0  0  0  0  0  0  0  0  0  0
    5.1236   10.7439   27.2910 C   0  0  0  0  0  0  0  0  0  0  0  0
    3.9767   11.4983   27.9297 C   0  0  0  0  0  0  0  0  0  0  0  0
    5.2572   11.3307   28.6852 C   0  0  0  0  0  0  0  0  0  0  0  0
    5.8607   12.7178   26.1005 N   0  0  0  0  0  0  0  0  0  0  0  0
    6.8266   13.3702   25.4423 C   0  0  0  0  0  0  0  0  0  0  0  0
    7.9718   12.7786   24.9167 C   0  0  0  0  0  0  0  0  0  0  0  0
    9.1416   13.5584   24.7753 N   0  0  0  0  0  0  0  0  0  0  0  0
    9.3089   14.5703   25.8231 N   0  0  0  0  0  0  0  0  0  0  0  0
    9.4742   14.1079   23.4537 C   0  0  2  0  0  0  0  0  0  0  0  0
    8.3509   14.5534   22.5503 C   0  0  0  0  0  0  0  0  0  0  0  0
    9.1166   15.0641   21.3296 C   0  0  0  0  0  0  0  0  0  0  0  0
   10.4977   14.3724   21.3626 C   0  0  1  0  0  0  0  0  0  0  0  0
   11.6734   15.3249   21.5350 C   0  0  0  0  0  0  0  0  0  0  0  0
   10.4190   13.3828   22.5357 C   0  0  0  0  0  0  0  0  0  0  0  0
  1  2  1  0
  2  3  1  0
  3  4  2  0
  3  5  1  0
  5  6  2  0
  6  7  1  0
  7  8  1  0
  8  9  1  0
  9 10  1  0
  7 11  2  0
 11 12  1  0
 12 13  2  0
 13 14  1  0
 14 15  1  0
 16 14  1  1
 16 17  1  0
 17 18  1  0
 18 19  1  0
 19 20  1  1
 19 21  1  0
 13  5  1  0
 21 16  1  0
 10  8  1  0
M  END
>  <energy_score>  (681) 
-8.800371

>  <inchikey>  (681) 
None

>  <smiles>  (681) 
None

>  <ref_pdb>  (681) 
A0514a

>  <alias>  (681) 
None

>  <HIPPO Pose ID>  (681) 
498325

>  <name>  (681) 
P498325

>  <HIPPO Compound ID>  (681) 
292701

>  <ref_mols>  (681) 
A4331a,A0514a

>  <distance_score>  (681) 
1.636332

>  <inspiration_score>  (681) 
None

$$$$
P498326
     RDKit          3D

 21 23  0  0  0  0  0  0  0  0999 V2000
    9.2884    8.5374   23.0077 C   0  0  0  0  0  0  0  0  0  0  0  0
    8.3788    9.2652   23.8358 O   0  0  0  0  0  0  0  0  0  0  0  0
    8.8291   10.5031   24.1498 C   0  0  0  0  0  0  0  0  0  0  0  0
    9.9174   10.9381   23.8182 O   0  0  0  0  0  0  0  0  0  0  0  0
    7.7978   11.2553   24.9191 C   0  0  0  0  0  0  0  0  0  0  0  0
    6.8073   10.5375   25.6058 C   0  0  0  0  0  0  0  0  0  0  0  0
    5.9127   11.2196   26.4204 C   0  0  0  0  0  0  0  0  0  0  0  0
    5.0432   10.5342   27.4318 C   0  0  0  0  0  0  0  0  0  0  0  0
    3.8744   11.2664   28.0580 C   0  0  0  0  0  0  0  0  0  0  0  0
    5.1242   11.0569   28.8545 C   0  0  0  0  0  0  0  0  0  0  0  0
    5.8852   12.5635   26.4499 N   0  0  0  0  0  0  0  0  0  0  0  0
    6.8360   13.2345   25.7939 C   0  0  0  0  0  0  0  0  0  0  0  0
    7.8665   12.6501   25.0702 C   0  0  0  0  0  0  0  0  0  0  0  0
    8.9376   13.4525   24.6451 N   0  0  0  0  0  0  0  0  0  0  0  0
    9.2938   14.5062   25.5160 N   0  0  0  0  0  0  0  0  0  0  0  0
    9.0857   13.5815   23.1905 C   0  0  1  0  0  0  0  0  0  0  0  0
    8.2078   14.6397   22.5310 C   0  0  0  0  0  0  0  0  0  0  0  0
    9.0443   15.2021   21.3759 C   0  0  0  0  0  0  0  0  0  0  0  0
   10.3652   14.4435   21.4000 C   0  0  1  0  0  0  0  0  0  0  0  0
   11.5761   15.1998   20.9158 C   0  0  0  0  0  0  0  0  0  0  0  0
   10.5101   13.9377   22.8145 C   0  0  0  0  0  0  0  0  0  0  0  0
  1  2  1  0
  2  3  1  0
  3  4  2  0
  3  5  1  0
  5  6  2  0
  6  7  1  0
  7  8  1  0
  8  9  1  0
  9 10  1  0
  7 11  2  0
 11 12  1  0
 12 13  2  0
 13 14  1  0
 14 15  1  0
 16 14  1  1
 16 17  1  0
 17 18  1  0
 18 19  1  0
 19 20  1  1
 19 21  1  0
 13  5  1  0
 21 16  1  0
 10  8  1  0
M  END
>  <energy_score>  (682) 
-43.68472

>  <inchikey>  (682) 
None

>  <smiles>  (682) 
None

>  <ref_pdb>  (682) 
A0514a

>  <alias>  (682) 
None

>  <HIPPO Pose ID>  (682) 
498326

>  <name>  (682) 
P498326

>  <HIPPO Compound ID>  (682) 
292701

>  <ref_mols>  (682) 
A4331a,A0514a

>  <distance_score>  (682) 
1.796242

>  <inspiration_score>  (682) 
None

$$$$
P498327
     RDKit          3D

 21 22  0  0  0  0  0  0  0  0999 V2000
    9.3855    8.4447   23.1796 C   0  0  0  0  0  0  0  0  0  0  0  0
    8.6213    9.2377   24.0918 O   0  0  0  0  0  0  0  0  0  0  0  0
    8.7317   10.5666   23.8804 C   0  0  0  0  0  0  0  0  0  0  0  0
    9.3870   11.0861   22.9957 O   0  0  0  0  0  0  0  0  0  0  0  0
    7.9231   11.3306   24.8596 C   0  0  0  0  0  0  0  0  0  0  0  0
    6.8935   10.7124   25.5773 C   0  0  0  0  0  0  0  0  0  0  0  0
    6.1612   11.4691   26.4840 C   0  0  0  0  0  0  0  0  0  0  0  0
    5.1311   10.8723   27.3996 C   0  0  0  0  0  0  0  0  0  0  0  0
    3.9228   11.6921   27.8028 C   0  0  0  0  0  0  0  0  0  0  0  0
    5.0152   11.4519   28.7968 C   0  0  0  0  0  0  0  0  0  0  0  0
    6.3974   12.7919   26.6459 N   0  0  0  0  0  0  0  0  0  0  0  0
    7.3772   13.3695   25.9416 C   0  0  0  0  0  0  0  0  0  0  0  0
    8.2007   12.6900   25.0629 C   0  0  0  0  0  0  0  0  0  0  0  0
    9.2684   13.3548   24.4189 N   0  0  0  0  0  0  0  0  0  0  0  0
   10.1390   14.0980   25.2724 N   0  0  0  0  0  0  0  0  0  0  0  0
    8.7405   14.0424   23.2197 C   0  0  0  0  0  0  0  0  0  0  0  0
    9.8853   14.3285   22.2675 C   0  0  0  0  0  0  0  0  0  0  0  0
    9.4552   15.2336   21.1279 C   0  0  0  0  0  0  0  0  0  0  0  0
   10.6675   15.6481   20.3280 C   0  0  0  0  0  0  0  0  0  0  0  0
   11.6796   15.9593   21.1818 F   0  0  0  0  0  0  0  0  0  0  0  0
   11.1197   14.6363   19.5641 F   0  0  0  0  0  0  0  0  0  0  0  0
  1  2  1  0
  2  3  1  0
  3  4  2  0
  3  5  1  0
  5  6  2  0
  6  7  1  0
  7  8  1  0
  8  9  1  0
  9 10  1  0
  7 11  2  0
 11 12  1  0
 12 13  2  0
 13 14  1  0
 14 15  1  0
 14 16  1  0
 16 17  1  0
 17 18  1  0
 18 19  1  0
 19 20  1  0
 19 21  1  0
 13  5  1  0
 10  8  1  0
M  END
>  <energy_score>  (683) 
-37.542946

>  <inchikey>  (683) 
None

>  <smiles>  (683) 
None

>  <ref_pdb>  (683) 
A0514a

>  <alias>  (683) 
None

>  <HIPPO Pose ID>  (683) 
498327

>  <name>  (683) 
P498327

>  <HIPPO Compound ID>  (683) 
292702

>  <ref_mols>  (683) 
A4331a,A0514a

>  <distance_score>  (683) 
1.385674

>  <inspiration_score>  (683) 
None

$$$$
P498328
     RDKit          3D

 21 22  0  0  0  0  0  0  0  0999 V2000
    8.5032    9.0102   23.6180 C   0  0  0  0  0  0  0  0  0  0  0  0
    9.4559   10.0466   23.7990 O   0  0  0  0  0  0  0  0  0  0  0  0
    9.2066   11.3018   24.2109 C   0  0  0  0  0  0  0  0  0  0  0  0
   10.1297   12.1145   24.1738 O   0  0  0  0  0  0  0  0  0  0  0  0
    7.8963   11.7120   24.8122 C   0  0  0  0  0  0  0  0  0  0  0  0
    7.1835   10.9000   25.7037 C   0  0  0  0  0  0  0  0  0  0  0  0
    6.1534   11.4617   26.4622 C   0  0  0  0  0  0  0  0  0  0  0  0
    5.6230   10.8631   27.7320 C   0  0  0  0  0  0  0  0  0  0  0  0
    4.5932    9.7881   27.7942 C   0  0  0  0  0  0  0  0  0  0  0  0
    4.1953   11.2009   28.1082 C   0  0  0  0  0  0  0  0  0  0  0  0
    5.7153   12.7097   26.2255 N   0  0  0  0  0  0  0  0  0  0  0  0
    6.3701   13.4636   25.3390 C   0  0  0  0  0  0  0  0  0  0  0  0
    7.5094   13.0534   24.6664 C   0  0  0  0  0  0  0  0  0  0  0  0
    8.3489   13.9948   24.0624 N   0  0  0  0  0  0  0  0  0  0  0  0
    9.2612   14.5741   25.0007 N   0  0  0  0  0  0  0  0  0  0  0  0
    7.8557   14.8343   22.9094 C   0  0  0  0  0  0  0  0  0  0  0  0
    6.9279   14.0692   21.9967 C   0  0  0  0  0  0  0  0  0  0  0  0
    7.0870   16.0550   23.3900 C   0  0  0  0  0  0  0  0  0  0  0  0
    9.0740   15.1018   21.9588 C   0  0  0  0  0  0  0  0  0  0  0  0
    9.0407   15.7652   20.9344 O   0  0  0  0  0  0  0  0  0  0  0  0
   10.1964   14.4300   22.3280 O   0  0  0  0  0  0  0  0  0  0  0  0
  1  2  1  0
  2  3  1  0
  3  4  2  0
  3  5  1  0
  5  6  2  0
  6  7  1  0
  7  8  1  0
  8  9  1  0
  9 10  1  0
  7 11  2  0
 11 12  1  0
 12 13  2  0
 13 14  1  0
 14 15  1  0
 14 16  1  0
 16 17  1  0
 16 18  1  0
 16 19  1  0
 19 20  2  0
 19 21  1  0
 13  5  1  0
 10  8  1  0
M  END
>  <energy_score>  (684) 
-38.963012

>  <inchikey>  (684) 
None

>  <smiles>  (684) 
None

>  <ref_pdb>  (684) 
A0514a

>  <alias>  (684) 
None

>  <HIPPO Pose ID>  (684) 
498328

>  <name>  (684) 
P498328

>  <HIPPO Compound ID>  (684) 
292703

>  <ref_mols>  (684) 
A4331a,A0514a

>  <distance_score>  (684) 
1.798127

>  <inspiration_score>  (684) 
None

$$$$
P498329
     RDKit          3D

 21 22  0  0  0  0  0  0  0  0999 V2000
    9.4064    8.4329   23.3929 C   0  0  0  0  0  0  0  0  0  0  0  0
    8.5989    9.2473   24.2492 O   0  0  0  0  0  0  0  0  0  0  0  0
    8.6590   10.5425   23.8739 C   0  0  0  0  0  0  0  0  0  0  0  0
    9.2556   10.9518   22.8949 O   0  0  0  0  0  0  0  0  0  0  0  0
    7.9412   11.4278   24.8135 C   0  0  0  0  0  0  0  0  0  0  0  0
    6.8583   10.9728   25.5727 C   0  0  0  0  0  0  0  0  0  0  0  0
    6.2066   11.8836   26.3994 C   0  0  0  0  0  0  0  0  0  0  0  0
    4.9841   11.5814   27.1973 C   0  0  0  0  0  0  0  0  0  0  0  0
    4.9597   10.5876   28.3165 C   0  0  0  0  0  0  0  0  0  0  0  0
    4.9642   12.0512   28.6385 C   0  0  0  0  0  0  0  0  0  0  0  0
    6.6253   13.1618   26.5210 N   0  0  0  0  0  0  0  0  0  0  0  0
    7.6512   13.5767   25.7736 C   0  0  0  0  0  0  0  0  0  0  0  0
    8.3439   12.7684   24.8890 C   0  0  0  0  0  0  0  0  0  0  0  0
    9.4208   13.2747   24.1300 N   0  0  0  0  0  0  0  0  0  0  0  0
   10.6129   13.4019   24.8961 N   0  0  0  0  0  0  0  0  0  0  0  0
    9.0594   14.4321   23.2434 C   0  0  2  0  0  0  0  0  0  0  0  0
    7.7189   14.2158   22.5099 C   0  0  0  0  0  0  0  0  0  0  0  0
   10.2228   14.8370   22.2301 C   0  0  0  0  0  0  0  0  0  0  0  0
   10.5347   13.6720   21.3568 C   0  0  0  0  0  0  0  0  0  0  0  0
    9.8038   15.9065   21.1650 C   0  0  0  0  0  0  0  0  0  0  0  0
   11.6276   15.1180   22.8175 C   0  0  0  0  0  0  0  0  0  0  0  0
  1  2  1  0
  2  3  1  0
  3  4  2  0
  3  5  1  0
  5  6  2  0
  6  7  1  0
  7  8  1  0
  8  9  1  0
  9 10  1  0
  7 11  2  0
 11 12  1  0
 12 13  2  0
 13 14  1  0
 14 15  1  0
 14 16  1  0
 16 17  1  6
 16 18  1  0
 18 19  1  0
 18 20  1  0
 18 21  1  0
 13  5  1  0
 10  8  1  0
M  END
>  <energy_score>  (685) 
-25.867767

>  <inchikey>  (685) 
None

>  <smiles>  (685) 
None

>  <ref_pdb>  (685) 
A0514a

>  <alias>  (685) 
None

>  <HIPPO Pose ID>  (685) 
498329

>  <name>  (685) 
P498329

>  <HIPPO Compound ID>  (685) 
292706

>  <ref_mols>  (685) 
A4331a,A0514a

>  <distance_score>  (685) 
1.771687

>  <inspiration_score>  (685) 
None

$$$$
P498330
     RDKit          3D

 21 22  0  0  0  0  0  0  0  0999 V2000
    9.1867    8.7314   23.1244 C   0  0  0  0  0  0  0  0  0  0  0  0
    8.1830    9.4175   23.8826 O   0  0  0  0  0  0  0  0  0  0  0  0
    8.5873   10.6351   24.3176 C   0  0  0  0  0  0  0  0  0  0  0  0
    9.7024   11.0826   24.1572 O   0  0  0  0  0  0  0  0  0  0  0  0
    7.5002   11.3612   25.0019 C   0  0  0  0  0  0  0  0  0  0  0  0
    6.6320   10.5607   25.7605 C   0  0  0  0  0  0  0  0  0  0  0  0
    5.6719   11.1624   26.5497 C   0  0  0  0  0  0  0  0  0  0  0  0
    4.9606   10.4429   27.6507 C   0  0  0  0  0  0  0  0  0  0  0  0
    3.7885   11.0885   28.3555 C   0  0  0  0  0  0  0  0  0  0  0  0
    5.1203   11.0318   29.0397 C   0  0  0  0  0  0  0  0  0  0  0  0
    5.4362   12.4780   26.4582 N   0  0  0  0  0  0  0  0  0  0  0  0
    6.2644   13.2233   25.7170 C   0  0  0  0  0  0  0  0  0  0  0  0
    7.3887   12.7657   25.0344 C   0  0  0  0  0  0  0  0  0  0  0  0
    8.3131   13.7179   24.5444 N   0  0  0  0  0  0  0  0  0  0  0  0
    8.1988   15.0526   25.0575 N   0  0  0  0  0  0  0  0  0  0  0  0
    8.7667   13.5921   23.1317 C   0  0  1  0  0  0  0  0  0  0  0  0
    7.7576   14.3131   22.2218 C   0  0  0  0  0  0  0  0  0  0  0  0
   10.2892   13.9816   22.9366 C   0  0  0  0  0  0  0  0  0  0  0  0
   10.4880   15.0152   21.8015 C   0  0  0  0  0  0  0  0  0  0  0  0
   11.0471   14.3069   24.2451 C   0  0  0  0  0  0  0  0  0  0  0  0
   11.1124   12.7732   22.4578 C   0  0  0  0  0  0  0  0  0  0  0  0
  1  2  1  0
  2  3  1  0
  3  4  2  0
  3  5  1  0
  5  6  2  0
  6  7  1  0
  7  8  1  0
  8  9  1  0
  9 10  1  0
  7 11  2  0
 11 12  1  0
 12 13  2  0
 13 14  1  0
 14 15  1  0
 14 16  1  0
 16 17  1  6
 16 18  1  0
 18 19  1  0
 18 20  1  0
 18 21  1  0
 13  5  1  0
 10  8  1  0
M  END
>  <energy_score>  (686) 
-13.849978

>  <inchikey>  (686) 
None

>  <smiles>  (686) 
None

>  <ref_pdb>  (686) 
A0514a

>  <alias>  (686) 
None

>  <HIPPO Pose ID>  (686) 
498330

>  <name>  (686) 
P498330

>  <HIPPO Compound ID>  (686) 
292706

>  <ref_mols>  (686) 
A4331a,A0514a

>  <distance_score>  (686) 
1.739019

>  <inspiration_score>  (686) 
None

$$$$
P498331
     RDKit          3D

 21 22  0  0  0  0  0  0  0  0999 V2000
    9.6898    8.5958   23.3976 C   0  0  0  0  0  0  0  0  0  0  0  0
    8.6854    9.2563   24.1690 O   0  0  0  0  0  0  0  0  0  0  0  0
    8.7319   10.5993   23.9920 C   0  0  0  0  0  0  0  0  0  0  0  0
    9.4788   11.1594   23.2088 O   0  0  0  0  0  0  0  0  0  0  0  0
    7.7674   11.2974   24.8815 C   0  0  0  0  0  0  0  0  0  0  0  0
    6.7990   10.5758   25.5888 C   0  0  0  0  0  0  0  0  0  0  0  0
    5.9478   11.2565   26.4516 C   0  0  0  0  0  0  0  0  0  0  0  0
    5.0644   10.5602   27.4436 C   0  0  0  0  0  0  0  0  0  0  0  0
    3.8773   11.2829   28.0455 C   0  0  0  0  0  0  0  0  0  0  0  0
    5.1083   11.0733   28.8709 C   0  0  0  0  0  0  0  0  0  0  0  0
    5.9592   12.6034   26.5309 N   0  0  0  0  0  0  0  0  0  0  0  0
    6.8894   13.2771   25.8508 C   0  0  0  0  0  0  0  0  0  0  0  0
    7.8627   12.6850   25.0639 C   0  0  0  0  0  0  0  0  0  0  0  0
    8.9308   13.4574   24.5681 N   0  0  0  0  0  0  0  0  0  0  0  0
    9.5071   14.3439   25.5176 N   0  0  0  0  0  0  0  0  0  0  0  0
    8.6331   13.9719   23.2093 C   0  0  0  0  0  0  0  0  0  0  0  0
    9.9451   14.2186   22.4866 C   0  0  0  0  0  0  0  0  0  0  0  0
    9.7316   14.7510   21.1908 O   0  0  0  0  0  0  0  0  0  0  0  0
   10.8684   15.4556   20.6608 C   0  0  0  0  0  0  0  0  0  0  0  0
   12.2279   14.9822   21.1819 C   0  0  0  0  0  0  0  0  0  0  0  0
   10.8340   15.3531   19.1416 C   0  0  0  0  0  0  0  0  0  0  0  0
  1  2  1  0
  2  3  1  0
  3  4  2  0
  3  5  1  0
  5  6  2  0
  6  7  1  0
  7  8  1  0
  8  9  1  0
  9 10  1  0
  7 11  2  0
 11 12  1  0
 12 13  2  0
 13 14  1  0
 14 15  1  0
 14 16  1  0
 16 17  1  0
 17 18  1  0
 18 19  1  0
 19 20  1  0
 19 21  1  0
 13  5  1  0
 10  8  1  0
M  END
>  <energy_score>  (687) 
-31.743928

>  <inchikey>  (687) 
None

>  <smiles>  (687) 
None

>  <ref_pdb>  (687) 
A0514a

>  <alias>  (687) 
None

>  <HIPPO Pose ID>  (687) 
498331

>  <name>  (687) 
P498331

>  <HIPPO Compound ID>  (687) 
292707

>  <ref_mols>  (687) 
A4331a,A0514a

>  <distance_score>  (687) 
1.414065

>  <inspiration_score>  (687) 
None

$$$$
P498332
     RDKit          3D

 21 23  0  0  0  0  0  0  0  0999 V2000
    9.7323    8.3019   23.3598 C   0  0  0  0  0  0  0  0  0  0  0  0
    8.8181    9.0799   24.1235 O   0  0  0  0  0  0  0  0  0  0  0  0
    8.8887   10.3669   23.7236 C   0  0  0  0  0  0  0  0  0  0  0  0
    9.6001   10.7667   22.8187 O   0  0  0  0  0  0  0  0  0  0  0  0
    8.0376   11.2481   24.5500 C   0  0  0  0  0  0  0  0  0  0  0  0
    7.0573   10.7150   25.3947 C   0  0  0  0  0  0  0  0  0  0  0  0
    6.2904   11.5830   26.1582 C   0  0  0  0  0  0  0  0  0  0  0  0
    5.3409   11.1035   27.2222 C   0  0  0  0  0  0  0  0  0  0  0  0
    4.1503   11.9506   27.6161 C   0  0  0  0  0  0  0  0  0  0  0  0
    5.3257   11.8588   28.5384 C   0  0  0  0  0  0  0  0  0  0  0  0
    6.4322   12.9220   26.0319 N   0  0  0  0  0  0  0  0  0  0  0  0
    7.3485   13.4169   25.1825 C   0  0  0  0  0  0  0  0  0  0  0  0
    8.2291   12.6360   24.4576 C   0  0  0  0  0  0  0  0  0  0  0  0
    9.3258   13.2079   23.7580 N   0  0  0  0  0  0  0  0  0  0  0  0
   10.5881   12.9343   24.3603 N   0  0  0  0  0  0  0  0  0  0  0  0
    9.2870   14.4680   23.0570 C   0  0  0  0  0  0  0  0  0  0  0  0
   10.6437   14.7915   22.3681 C   0  0  0  0  0  0  0  0  0  0  0  0
    9.8241   15.5286   21.0083 S   0  0  0  0  0  0  0  0  0  0  0  0
   10.4399   15.0275   19.8064 O   0  0  0  0  0  0  0  0  0  0  0  0
    9.4480   16.9131   21.1337 O   0  0  0  0  0  0  0  0  0  0  0  0
    8.5436   14.5109   21.7133 C   0  0  0  0  0  0  0  0  0  0  0  0
  1  2  1  0
  2  3  1  0
  3  4  2  0
  3  5  1  0
  5  6  2  0
  6  7  1  0
  7  8  1  0
  8  9  1  0
  9 10  1  0
  7 11  2  0
 11 12  1  0
 12 13  2  0
 13 14  1  0
 14 15  1  0
 14 16  1  0
 16 17  1  0
 17 18  1  0
 18 19  2  0
 18 20  2  0
 18 21  1  0
 13  5  1  0
 21 16  1  0
 10  8  1  0
M  END
>  <energy_score>  (688) 
-37.204356

>  <inchikey>  (688) 
None

>  <smiles>  (688) 
None

>  <ref_pdb>  (688) 
A0514a

>  <alias>  (688) 
None

>  <HIPPO Pose ID>  (688) 
498332

>  <name>  (688) 
P498332

>  <HIPPO Compound ID>  (688) 
292708

>  <ref_mols>  (688) 
A4331a,A0514a

>  <distance_score>  (688) 
1.350894

>  <inspiration_score>  (688) 
None

$$$$
P498333
     RDKit          3D

 21 23  0  0  0  0  0  0  0  0999 V2000
    9.3475    8.5904   22.9904 C   0  0  0  0  0  0  0  0  0  0  0  0
    8.4699    9.3607   23.8136 O   0  0  0  0  0  0  0  0  0  0  0  0
    8.9257   10.6116   24.0534 C   0  0  0  0  0  0  0  0  0  0  0  0
    9.9926   11.0533   23.6666 O   0  0  0  0  0  0  0  0  0  0  0  0
    7.9503   11.3652   24.8849 C   0  0  0  0  0  0  0  0  0  0  0  0
    6.9317   10.6881   25.5691 C   0  0  0  0  0  0  0  0  0  0  0  0
    6.0897   11.4045   26.4116 C   0  0  0  0  0  0  0  0  0  0  0  0
    5.1357   10.7411   27.3619 C   0  0  0  0  0  0  0  0  0  0  0  0
    3.9439   11.5057   27.8999 C   0  0  0  0  0  0  0  0  0  0  0  0
    5.1204   11.2544   28.7897 C   0  0  0  0  0  0  0  0  0  0  0  0
    6.1753   12.7492   26.5101 N   0  0  0  0  0  0  0  0  0  0  0  0
    7.1258   13.3837   25.8192 C   0  0  0  0  0  0  0  0  0  0  0  0
    8.0849   12.7507   25.0424 C   0  0  0  0  0  0  0  0  0  0  0  0
    9.1495   13.4912   24.4956 N   0  0  0  0  0  0  0  0  0  0  0  0
   10.0276   14.0576   25.4808 N   0  0  0  0  0  0  0  0  0  0  0  0
    8.7591   14.4473   23.4354 C   0  0  2  0  0  0  0  0  0  0  0  0
    7.6037   14.0205   22.5406 C   0  0  0  0  0  0  0  0  0  0  0  0
    9.9638   14.7883   22.5382 C   0  0  0  0  0  0  0  0  0  0  0  0
   11.4770   14.7580   22.9915 C   0  0  0  0  0  0  0  0  0  0  0  0
   11.7938   14.4152   21.5395 C   0  0  0  0  0  0  0  0  0  0  0  0
   10.4153   13.7513   21.5301 C   0  0  0  0  0  0  0  0  0  0  0  0
  1  2  1  0
  2  3  1  0
  3  4  2  0
  3  5  1  0
  5  6  2  0
  6  7  1  0
  7  8  1  0
  8  9  1  0
  9 10  1  0
  7 11  2  0
 11 12  1  0
 12 13  2  0
 13 14  1  0
 14 15  1  0
 14 16  1  0
 16 17  1  6
 16 18  1  0
 18 19  1  0
 19 20  1  0
 20 21  1  0
 13  5  1  0
 21 18  1  0
 10  8  1  0
M  END
>  <energy_score>  (689) 
-38.120478

>  <inchikey>  (689) 
None

>  <smiles>  (689) 
None

>  <ref_pdb>  (689) 
A0514a

>  <alias>  (689) 
None

>  <HIPPO Pose ID>  (689) 
498333

>  <name>  (689) 
P498333

>  <HIPPO Compound ID>  (689) 
292709

>  <ref_mols>  (689) 
A4331a,A0514a

>  <distance_score>  (689) 
1.622882

>  <inspiration_score>  (689) 
None

$$$$
P498334
     RDKit          3D

 21 23  0  0  0  0  0  0  0  0999 V2000
    9.1802    8.6421   23.1017 C   0  0  0  0  0  0  0  0  0  0  0  0
    8.3516    9.4629   23.9356 O   0  0  0  0  0  0  0  0  0  0  0  0
    8.8603   10.7018   24.1360 C   0  0  0  0  0  0  0  0  0  0  0  0
    9.9323   11.0826   23.6912 O   0  0  0  0  0  0  0  0  0  0  0  0
    7.9351   11.5409   24.9612 C   0  0  0  0  0  0  0  0  0  0  0  0
    6.9942   10.9143   25.7903 C   0  0  0  0  0  0  0  0  0  0  0  0
    6.2665   11.6922   26.6882 C   0  0  0  0  0  0  0  0  0  0  0  0
    5.5324   11.1435   27.8683 C   0  0  0  0  0  0  0  0  0  0  0  0
    4.5110   10.0615   27.8117 C   0  0  0  0  0  0  0  0  0  0  0  0
    4.0684   11.4916   27.9688 C   0  0  0  0  0  0  0  0  0  0  0  0
    6.3221   13.0391   26.6736 N   0  0  0  0  0  0  0  0  0  0  0  0
    7.1897   13.6284   25.8436 C   0  0  0  0  0  0  0  0  0  0  0  0
    8.0650   12.9450   25.0145 C   0  0  0  0  0  0  0  0  0  0  0  0
    9.0727   13.7355   24.3960 N   0  0  0  0  0  0  0  0  0  0  0  0
   10.3375   13.4152   24.9652 N   0  0  0  0  0  0  0  0  0  0  0  0
    8.8953   13.7399   22.9130 C   0  0  1  0  0  0  0  0  0  0  0  0
    7.6739   14.5557   22.4933 C   0  0  0  0  0  0  0  0  0  0  0  0
   10.1310   14.0769   22.0659 C   0  0  0  0  0  0  0  0  0  0  0  0
   11.5385   14.5008   22.5633 C   0  0  0  0  0  0  0  0  0  0  0  0
   11.7558   15.1281   21.1855 C   0  0  0  0  0  0  0  0  0  0  0  0
   10.2234   15.2903   21.0926 C   0  0  0  0  0  0  0  0  0  0  0  0
  1  2  1  0
  2  3  1  0
  3  4  2  0
  3  5  1  0
  5  6  2  0
  6  7  1  0
  7  8  1  0
  8  9  1  0
  9 10  1  0
  7 11  2  0
 11 12  1  0
 12 13  2  0
 13 14  1  0
 14 15  1  0
 14 16  1  0
 16 17  1  1
 16 18  1  0
 18 19  1  0
 19 20  1  0
 20 21  1  0
 13  5  1  0
 21 18  1  0
 10  8  1  0
M  END
>  <energy_score>  (690) 
-21.673

>  <inchikey>  (690) 
None

>  <smiles>  (690) 
None

>  <ref_pdb>  (690) 
A0514a

>  <alias>  (690) 
None

>  <HIPPO Pose ID>  (690) 
498334

>  <name>  (690) 
P498334

>  <HIPPO Compound ID>  (690) 
292709

>  <ref_mols>  (690) 
A4331a,A0514a

>  <distance_score>  (690) 
1.879163

>  <inspiration_score>  (690) 
None

$$$$
P498335
     RDKit          3D

 21 23  0  0  0  0  0  0  0  0999 V2000
    9.5537    9.0292   23.1158 C   0  0  0  0  0  0  0  0  0  0  0  0
    8.7057    9.9347   23.8256 O   0  0  0  0  0  0  0  0  0  0  0  0
    9.2694   11.1324   24.1112 C   0  0  0  0  0  0  0  0  0  0  0  0
   10.3983   11.4792   23.8137 O   0  0  0  0  0  0  0  0  0  0  0  0
    8.3215   11.9781   24.8846 C   0  0  0  0  0  0  0  0  0  0  0  0
    7.2992   11.3165   25.5877 C   0  0  0  0  0  0  0  0  0  0  0  0
    6.4074   12.0524   26.3472 C   0  0  0  0  0  0  0  0  0  0  0  0
    5.3164   11.3970   27.1439 C   0  0  0  0  0  0  0  0  0  0  0  0
    5.1779   11.7300   28.6097 C   0  0  0  0  0  0  0  0  0  0  0  0
    4.1601   12.2427   27.6377 C   0  0  0  0  0  0  0  0  0  0  0  0
    6.5233   13.3966   26.4308 N   0  0  0  0  0  0  0  0  0  0  0  0
    7.4631   14.0257   25.6990 C   0  0  0  0  0  0  0  0  0  0  0  0
    8.4014   13.3921   24.8978 C   0  0  0  0  0  0  0  0  0  0  0  0
    9.2714   14.2398   24.1355 N   0  0  0  0  0  0  0  0  0  0  0  0
   10.6199   14.1650   24.6292 N   0  0  0  0  0  0  0  0  0  0  0  0
    9.0500   14.2340   22.6058 C   0  0  0  0  0  0  0  0  0  0  0  0
    7.7973   13.4439   22.3263 C   0  0  0  0  0  0  0  0  0  0  0  0
   10.3332   13.8323   21.8443 C   0  0  0  0  0  0  0  0  0  0  0  0
   11.0966   15.1204   21.6045 C   0  0  0  0  0  0  0  0  0  0  0  0
    9.9780   16.0159   21.1152 C   0  0  0  0  0  0  0  0  0  0  0  0
    8.7101   15.5328   21.8268 C   0  0  0  0  0  0  0  0  0  0  0  0
  1  2  1  0
  2  3  1  0
  3  4  2  0
  3  5  1  0
  5  6  2  0
  6  7  1  0
  7  8  1  0
  8  9  1  0
  9 10  1  0
  7 11  2  0
 11 12  1  0
 12 13  2  0
 13 14  1  0
 14 15  1  0
 14 16  1  0
 16 17  1  0
 16 18  1  0
 18 19  1  0
 19 20  1  0
 20 21  1  0
 13  5  1  0
 21 16  1  0
 10  8  1  0
M  END
>  <energy_score>  (691) 
-40.7747

>  <inchikey>  (691) 
None

>  <smiles>  (691) 
None

>  <ref_pdb>  (691) 
A0514a

>  <alias>  (691) 
None

>  <HIPPO Pose ID>  (691) 
498335

>  <name>  (691) 
P498335

>  <HIPPO Compound ID>  (691) 
292710

>  <ref_mols>  (691) 
A4331a,A0514a

>  <distance_score>  (691) 
1.826633

>  <inspiration_score>  (691) 
None

$$$$
P498336
     RDKit          3D

 21 23  0  0  0  0  0  0  0  0999 V2000
    9.3947    8.5856   23.0085 C   0  0  0  0  0  0  0  0  0  0  0  0
    8.5379    9.3581   23.8504 O   0  0  0  0  0  0  0  0  0  0  0  0
    8.9296   10.6472   23.9822 C   0  0  0  0  0  0  0  0  0  0  0  0
    9.9185   11.1312   23.4624 O   0  0  0  0  0  0  0  0  0  0  0  0
    7.9881   11.3843   24.8682 C   0  0  0  0  0  0  0  0  0  0  0  0
    6.9650   10.7059   25.5472 C   0  0  0  0  0  0  0  0  0  0  0  0
    6.1418   11.4122   26.4175 C   0  0  0  0  0  0  0  0  0  0  0  0
    5.1653   10.7432   27.3410 C   0  0  0  0  0  0  0  0  0  0  0  0
    3.9725   11.5136   27.8697 C   0  0  0  0  0  0  0  0  0  0  0  0
    5.1286   11.2325   28.7767 C   0  0  0  0  0  0  0  0  0  0  0  0
    6.2599   12.7500   26.5611 N   0  0  0  0  0  0  0  0  0  0  0  0
    7.2166   13.3868   25.8820 C   0  0  0  0  0  0  0  0  0  0  0  0
    8.1492   12.7619   25.0655 C   0  0  0  0  0  0  0  0  0  0  0  0
    9.1999   13.5113   24.5008 N   0  0  0  0  0  0  0  0  0  0  0  0
   10.0689   14.1080   25.4816 N   0  0  0  0  0  0  0  0  0  0  0  0
    8.7883   14.4262   23.3886 C   0  0  2  0  0  0  0  0  0  0  0  0
    7.5294   13.9943   22.6407 C   0  0  0  0  0  0  0  0  0  0  0  0
    9.9848   14.7032   22.4145 C   0  0  0  0  0  0  0  0  0  0  0  0
   11.3855   14.4395   22.9160 C   0  0  0  0  0  0  0  0  0  0  0  0
    9.8341   15.8410   21.3860 C   0  0  0  0  0  0  0  0  0  0  0  0
    9.8298   14.4419   20.9429 C   0  0  0  0  0  0  0  0  0  0  0  0
  1  2  1  0
  2  3  1  0
  3  4  2  0
  3  5  1  0
  5  6  2  0
  6  7  1  0
  7  8  1  0
  8  9  1  0
  9 10  1  0
  7 11  2  0
 11 12  1  0
 12 13  2  0
 13 14  1  0
 14 15  1  0
 14 16  1  0
 16 17  1  6
 16 18  1  0
 18 19  1  0
 18 20  1  0
 20 21  1  0
 13  5  1  0
 21 18  1  0
 10  8  1  0
M  END
>  <energy_score>  (692) 
-19.429671

>  <inchikey>  (692) 
None

>  <smiles>  (692) 
None

>  <ref_pdb>  (692) 
A0514a

>  <alias>  (692) 
None

>  <HIPPO Pose ID>  (692) 
498336

>  <name>  (692) 
P498336

>  <HIPPO Compound ID>  (692) 
292711

>  <ref_mols>  (692) 
A4331a,A0514a

>  <distance_score>  (692) 
1.565811

>  <inspiration_score>  (692) 
None

$$$$
P498337
     RDKit          3D

 21 23  0  0  0  0  0  0  0  0999 V2000
    9.3986    8.6315   22.9985 C   0  0  0  0  0  0  0  0  0  0  0  0
    8.4653    9.3624   23.7943 O   0  0  0  0  0  0  0  0  0  0  0  0
    8.8913   10.6055   24.1198 C   0  0  0  0  0  0  0  0  0  0  0  0
    9.9694   11.0756   23.8068 O   0  0  0  0  0  0  0  0  0  0  0  0
    7.8360   11.3150   24.8920 C   0  0  0  0  0  0  0  0  0  0  0  0
    6.8799   10.5378   25.5745 C   0  0  0  0  0  0  0  0  0  0  0  0
    5.9368   11.1556   26.3844 C   0  0  0  0  0  0  0  0  0  0  0  0
    5.0557   10.4126   27.3401 C   0  0  0  0  0  0  0  0  0  0  0  0
    5.2274   10.6867   28.8175 C   0  0  0  0  0  0  0  0  0  0  0  0
    3.9990   11.1775   28.1198 C   0  0  0  0  0  0  0  0  0  0  0  0
    5.8409   12.4917   26.4328 N   0  0  0  0  0  0  0  0  0  0  0  0
    6.7544   13.2161   25.7804 C   0  0  0  0  0  0  0  0  0  0  0  0
    7.8256   12.7095   25.0440 C   0  0  0  0  0  0  0  0  0  0  0  0
    8.8243   13.6132   24.6049 N   0  0  0  0  0  0  0  0  0  0  0  0
    8.9087   14.7762   25.4192 N   0  0  0  0  0  0  0  0  0  0  0  0
    8.9577   13.7407   23.1192 C   0  0  1  0  0  0  0  0  0  0  0  0
    7.7187   14.4135   22.5172 C   0  0  0  0  0  0  0  0  0  0  0  0
   10.3118   14.3652   22.6827 C   0  0  0  0  0  0  0  0  0  0  0  0
   11.4882   14.1274   23.5970 C   0  0  0  0  0  0  0  0  0  0  0  0
   10.3920   15.5022   21.6490 C   0  0  0  0  0  0  0  0  0  0  0  0
   10.6766   14.1265   21.2359 C   0  0  0  0  0  0  0  0  0  0  0  0
  1  2  1  0
  2  3  1  0
  3  4  2  0
  3  5  1  0
  5  6  2  0
  6  7  1  0
  7  8  1  0
  8  9  1  0
  9 10  1  0
  7 11  2  0
 11 12  1  0
 12 13  2  0
 13 14  1  0
 14 15  1  0
 14 16  1  0
 16 17  1  1
 16 18  1  0
 18 19  1  0
 18 20  1  0
 20 21  1  0
 13  5  1  0
 21 18  1  0
 10  8  1  0
M  END
>  <energy_score>  (693) 
-26.525219

>  <inchikey>  (693) 
None

>  <smiles>  (693) 
None

>  <ref_pdb>  (693) 
A0514a

>  <alias>  (693) 
None

>  <HIPPO Pose ID>  (693) 
498337

>  <name>  (693) 
P498337

>  <HIPPO Compound ID>  (693) 
292711

>  <ref_mols>  (693) 
A4331a,A0514a

>  <distance_score>  (693) 
1.949743

>  <inspiration_score>  (693) 
None

$$$$
P498338
     RDKit          3D

 21 23  0  0  0  0  0  0  0  0999 V2000
    9.1856    8.5412   23.0293 C   0  0  0  0  0  0  0  0  0  0  0  0
    8.4036    9.4324   23.8310 O   0  0  0  0  0  0  0  0  0  0  0  0
    8.9900   10.6412   23.9744 C   0  0  0  0  0  0  0  0  0  0  0  0
   10.0918   10.9313   23.5401 O   0  0  0  0  0  0  0  0  0  0  0  0
    8.1257   11.5939   24.7204 C   0  0  0  0  0  0  0  0  0  0  0  0
    6.9429   11.1748   25.3453 C   0  0  0  0  0  0  0  0  0  0  0  0
    6.1985   12.1109   26.0589 C   0  0  0  0  0  0  0  0  0  0  0  0
    4.9764   11.8035   26.8563 C   0  0  0  0  0  0  0  0  0  0  0  0
    4.9440   10.7777   27.9498 C   0  0  0  0  0  0  0  0  0  0  0  0
    4.9867   12.2302   28.3125 C   0  0  0  0  0  0  0  0  0  0  0  0
    6.5508   13.4128   26.1030 N   0  0  0  0  0  0  0  0  0  0  0  0
    7.6799   13.7923   25.4985 C   0  0  0  0  0  0  0  0  0  0  0  0
    8.5471   12.9276   24.8567 C   0  0  0  0  0  0  0  0  0  0  0  0
    9.8601   13.3390   24.5515 N   0  0  0  0  0  0  0  0  0  0  0  0
   10.5777   13.9650   25.6246 N   0  0  0  0  0  0  0  0  0  0  0  0
   10.2265   13.8265   23.3237 C   0  0  0  0  0  0  0  0  0  0  0  0
    9.4749   14.3345   22.3670 N   0  0  0  0  0  0  0  0  0  0  0  0
   10.3393   14.8956   21.4073 C   0  0  0  0  0  0  0  0  0  0  0  0
    9.8217   15.6618   20.2687 C   0  0  0  0  0  0  0  0  0  0  0  0
   11.6537   14.7927   21.5451 N   0  0  0  0  0  0  0  0  0  0  0  0
   11.9007   13.8833   22.8851 S   0  0  0  0  0  0  0  0  0  0  0  0
  1  2  1  0
  2  3  1  0
  3  4  2  0
  3  5  1  0
  5  6  2  0
  6  7  1  0
  7  8  1  0
  8  9  1  0
  9 10  1  0
  7 11  2  0
 11 12  1  0
 12 13  2  0
 13 14  1  0
 14 15  1  0
 14 16  1  0
 16 17  2  0
 17 18  1  0
 18 19  1  0
 18 20  2  0
 20 21  1  0
 13  5  1  0
 21 16  1  0
 10  8  1  0
M  END
>  <energy_score>  (694) 
-99.907659

>  <inchikey>  (694) 
None

>  <smiles>  (694) 
None

>  <ref_pdb>  (694) 
A0514a

>  <alias>  (694) 
None

>  <HIPPO Pose ID>  (694) 
498338

>  <name>  (694) 
P498338

>  <HIPPO Compound ID>  (694) 
292712

>  <ref_mols>  (694) 
A4331a,A0514a

>  <distance_score>  (694) 
1.764469

>  <inspiration_score>  (694) 
None

$$$$
P498339
     RDKit          3D

 21 22  0  0  0  0  0  0  0  0999 V2000
    7.0718   15.4986   22.3872 C   0  0  0  0  0  0  0  0  0  0  0  0
    7.6370   14.0859   22.4461 C   0  0  0  0  0  0  0  0  0  0  0  0
    9.0642   14.0520   23.0345 C   0  0  2  0  0  0  0  0  0  0  0  0
   10.0655   14.0811   21.8602 C   0  0  0  0  0  0  0  0  0  0  0  0
    9.9385   14.7573   20.8499 O   0  0  0  0  0  0  0  0  0  0  0  0
   11.1255   13.2538   21.9891 O   0  0  0  0  0  0  0  0  0  0  0  0
    9.2974   12.8838   23.9647 N   0  0  0  0  0  0  0  0  0  0  0  0
   10.5794   12.8337   24.6043 N   0  0  0  0  0  0  0  0  0  0  0  0
    8.2514   12.5883   24.8567 C   0  0  0  0  0  0  0  0  0  0  0  0
    7.6626   13.5954   25.6153 C   0  0  0  0  0  0  0  0  0  0  0  0
    6.5992   13.4426   26.4182 N   0  0  0  0  0  0  0  0  0  0  0  0
    6.0325   12.2250   26.5021 C   0  0  0  0  0  0  0  0  0  0  0  0
    4.8005   12.1199   27.3358 C   0  0  0  0  0  0  0  0  0  0  0  0
    4.8163   11.3939   28.6504 C   0  0  0  0  0  0  0  0  0  0  0  0
    4.7488   12.8925   28.6348 C   0  0  0  0  0  0  0  0  0  0  0  0
    6.5760   11.1387   25.8432 C   0  0  0  0  0  0  0  0  0  0  0  0
    7.7023   11.3114   25.0234 C   0  0  0  0  0  0  0  0  0  0  0  0
    8.1873   10.0599   24.4054 C   0  0  0  0  0  0  0  0  0  0  0  0
    7.7252    8.9872   24.7695 O   0  0  0  0  0  0  0  0  0  0  0  0
    9.1229   10.2267   23.4535 O   0  0  0  0  0  0  0  0  0  0  0  0
    9.6237    8.9979   22.9283 C   0  0  0  0  0  0  0  0  0  0  0  0
  1  2  1  0
  3  2  1  6
  3  4  1  0
  4  5  2  0
  4  6  1  0
  3  7  1  0
  7  8  1  0
  7  9  1  0
  9 10  2  0
 10 11  1  0
 11 12  2  0
 12 13  1  0
 13 14  1  0
 14 15  1  0
 12 16  1  0
 16 17  2  0
 17 18  1  0
 18 19  2  0
 18 20  1  0
 20 21  1  0
 17  9  1  0
 15 13  1  0
M  END
>  <energy_score>  (695) 
-44.059094

>  <inchikey>  (695) 
None

>  <smiles>  (695) 
None

>  <ref_pdb>  (695) 
A0514a

>  <alias>  (695) 
None

>  <HIPPO Pose ID>  (695) 
498339

>  <name>  (695) 
P498339

>  <HIPPO Compound ID>  (695) 
292715

>  <ref_mols>  (695) 
A4331a,A0514a

>  <distance_score>  (695) 
1.735116

>  <inspiration_score>  (695) 
None

$$$$
P498340
     RDKit          3D

 21 23  0  0  0  0  0  0  0  0999 V2000
    9.2676    8.3965   22.9327 C   0  0  0  0  0  0  0  0  0  0  0  0
    8.3092    9.0593   23.7537 O   0  0  0  0  0  0  0  0  0  0  0  0
    8.7106   10.3017   24.0951 C   0  0  0  0  0  0  0  0  0  0  0  0
    9.8037   10.7717   23.8463 O   0  0  0  0  0  0  0  0  0  0  0  0
    7.5998   10.9757   24.8123 C   0  0  0  0  0  0  0  0  0  0  0  0
    6.8203   10.2520   25.7284 C   0  0  0  0  0  0  0  0  0  0  0  0
    5.8371   10.9063   26.4596 C   0  0  0  0  0  0  0  0  0  0  0  0
    5.0820   10.2846   27.6004 C   0  0  0  0  0  0  0  0  0  0  0  0
    4.2773   11.2004   28.2238 F   0  0  0  0  0  0  0  0  0  0  0  0
    4.2561    9.2680   27.2410 F   0  0  0  0  0  0  0  0  0  0  0  0
    5.8910    9.8053   28.5883 F   0  0  0  0  0  0  0  0  0  0  0  0
    5.5123   12.1843   26.2054 N   0  0  0  0  0  0  0  0  0  0  0  0
    6.1798   12.8027   25.2264 C   0  0  0  0  0  0  0  0  0  0  0  0
    7.2945   12.3082   24.5449 C   0  0  0  0  0  0  0  0  0  0  0  0
    8.0102   13.0840   23.6142 N   0  0  0  0  0  0  0  0  0  0  0  0
    7.5072   14.4049   23.2478 C   0  0  0  0  0  0  0  0  0  0  0  0
    8.5132   14.6914   22.1309 C   0  0  0  0  0  0  0  0  0  0  0  0
    9.8192   14.1235   22.7189 C   0  0  0  0  0  0  0  0  0  0  0  0
    9.3756   13.4453   23.9813 N   0  0  0  0  0  0  0  0  0  0  0  0
    9.1083   14.4729   25.0117 C   0  0  0  0  0  0  0  0  0  0  0  0
    7.8498   15.2005   24.5167 C   0  0  0  0  0  0  0  0  0  0  0  0
  1  2  1  0
  2  3  1  0
  3  4  2  0
  3  5  1  0
  5  6  2  0
  6  7  1  0
  7  8  1  0
  8  9  1  0
  8 10  1  0
  8 11  1  0
  7 12  2  0
 12 13  1  0
 13 14  2  0
 14 15  1  0
 15 16  1  0
 16 17  1  0
 17 18  1  0
 19 18  1  0
 19 20  1  0
 20 21  1  0
 14  5  1  0
 19 15  1  0
 21 16  1  0
M  END
>  <energy_score>  (696) 
-21.100168

>  <inchikey>  (696) 
None

>  <smiles>  (696) 
None

>  <ref_pdb>  (696) 
A0514a

>  <alias>  (696) 
None

>  <HIPPO Pose ID>  (696) 
498340

>  <name>  (696) 
P498340

>  <HIPPO Compound ID>  (696) 
292716

>  <ref_mols>  (696) 
A4331a,A0514a

>  <distance_score>  (696) 
1.969801

>  <inspiration_score>  (696) 
None

$$$$
P498341
     RDKit          3D

 22 23  0  0  0  0  0  0  0  0999 V2000
    9.3743    8.6798   23.0643 C   0  0  0  0  0  0  0  0  0  0  0  0
    8.5652    9.4719   23.9407 O   0  0  0  0  0  0  0  0  0  0  0  0
    8.9381   10.7717   24.0139 C   0  0  0  0  0  0  0  0  0  0  0  0
    9.8662   11.2670   23.4008 O   0  0  0  0  0  0  0  0  0  0  0  0
    8.0642   11.5186   24.9637 C   0  0  0  0  0  0  0  0  0  0  0  0
    6.9769   10.8771   25.5745 C   0  0  0  0  0  0  0  0  0  0  0  0
    6.1951   11.5854   26.4786 C   0  0  0  0  0  0  0  0  0  0  0  0
    5.1279   10.9391   27.3147 C   0  0  0  0  0  0  0  0  0  0  0  0
    3.9219   11.7465   27.7495 C   0  0  0  0  0  0  0  0  0  0  0  0
    4.9849   11.4141   28.7482 C   0  0  0  0  0  0  0  0  0  0  0  0
    6.4238   12.8956   26.7255 N   0  0  0  0  0  0  0  0  0  0  0  0
    7.4571   13.5005   26.1297 C   0  0  0  0  0  0  0  0  0  0  0  0
    8.3480   12.8613   25.2843 C   0  0  0  0  0  0  0  0  0  0  0  0
    9.4650   13.5694   24.7596 N   0  0  0  0  0  0  0  0  0  0  0  0
   10.2227   14.3798   25.6559 N   0  0  0  0  0  0  0  0  0  0  0  0
    8.9965   14.2373   23.5301 C   0  0  0  0  0  0  0  0  0  0  0  0
   10.1883   14.5430   22.6238 C   0  0  0  0  0  0  0  0  0  0  0  0
    9.8653   15.1403   21.2448 C   0  0  0  0  0  0  0  0  0  0  0  0
    8.4498   14.7529   20.8944 C   0  0  0  0  0  0  0  0  0  0  0  0
    9.9170   16.6337   20.9251 C   0  0  0  0  0  0  0  0  0  0  0  0
   10.7761   14.5682   20.3009 O   0  0  0  0  0  0  0  0  0  0  0  0
   12.1568   14.6553   20.6295 C   0  0  0  0  0  0  0  0  0  0  0  0
  1  2  1  0
  2  3  1  0
  3  4  2  0
  3  5  1  0
  5  6  2  0
  6  7  1  0
  7  8  1  0
  8  9  1  0
  9 10  1  0
  7 11  2  0
 11 12  1  0
 12 13  2  0
 13 14  1  0
 14 15  1  0
 14 16  1  0
 16 17  1  0
 17 18  1  0
 18 19  1  0
 18 20  1  0
 18 21  1  0
 21 22  1  0
 13  5  1  0
 10  8  1  0
M  END
>  <energy_score>  (697) 
-25.857028

>  <inchikey>  (697) 
None

>  <smiles>  (697) 
None

>  <ref_pdb>  (697) 
A0514a

>  <alias>  (697) 
None

>  <HIPPO Pose ID>  (697) 
498341

>  <name>  (697) 
P498341

>  <HIPPO Compound ID>  (697) 
292717

>  <ref_mols>  (697) 
A4331a,A0514a

>  <distance_score>  (697) 
1.560273

>  <inspiration_score>  (697) 
None

$$$$
P498342
     RDKit          3D

 22 24  0  0  0  0  0  0  0  0999 V2000
    9.3486    8.5178   22.9455 C   0  0  0  0  0  0  0  0  0  0  0  0
    8.6009    9.4084   23.7720 O   0  0  0  0  0  0  0  0  0  0  0  0
    9.0991   10.6651   23.8005 C   0  0  0  0  0  0  0  0  0  0  0  0
   10.1069   11.0284   23.2188 O   0  0  0  0  0  0  0  0  0  0  0  0
    8.2698   11.5413   24.6687 C   0  0  0  0  0  0  0  0  0  0  0  0
    7.1925   10.9858   25.3833 C   0  0  0  0  0  0  0  0  0  0  0  0
    6.4256   11.7983   26.2078 C   0  0  0  0  0  0  0  0  0  0  0  0
    5.3594   11.2513   27.1190 C   0  0  0  0  0  0  0  0  0  0  0  0
    4.1620   12.1049   27.4793 C   0  0  0  0  0  0  0  0  0  0  0  0
    5.2313   11.8685   28.4989 C   0  0  0  0  0  0  0  0  0  0  0  0
    6.6673   13.1259   26.2852 N   0  0  0  0  0  0  0  0  0  0  0  0
    7.6756   13.6491   25.5659 C   0  0  0  0  0  0  0  0  0  0  0  0
    8.5576   12.9117   24.7919 C   0  0  0  0  0  0  0  0  0  0  0  0
    9.6630   13.6071   24.2201 N   0  0  0  0  0  0  0  0  0  0  0  0
   10.9251   13.0817   24.5697 N   0  0  0  0  0  0  0  0  0  0  0  0
    9.5062   14.0553   22.9222 C   0  0  0  0  0  0  0  0  0  0  0  0
    8.3473   14.1253   22.2930 N   0  0  0  0  0  0  0  0  0  0  0  0
    8.5272   14.7169   21.0826 N   0  0  0  0  0  0  0  0  0  0  0  0
    9.8011   15.0052   20.9477 C   0  0  0  0  0  0  0  0  0  0  0  0
   10.4087   15.6914   19.7823 C   0  0  0  0  0  0  0  0  0  0  0  0
   10.4694   14.5915   22.0756 N   0  0  0  0  0  0  0  0  0  0  0  0
   11.8763   14.7684   22.2981 C   0  0  0  0  0  0  0  0  0  0  0  0
  1  2  1  0
  2  3  1  0
  3  4  2  0
  3  5  1  0
  5  6  2  0
  6  7  1  0
  7  8  1  0
  8  9  1  0
  9 10  1  0
  7 11  2  0
 11 12  1  0
 12 13  2  0
 13 14  1  0
 14 15  1  0
 14 16  1  0
 16 17  2  0
 17 18  1  0
 18 19  2  0
 19 20  1  0
 19 21  1  0
 21 22  1  0
 13  5  1  0
 21 16  1  0
 10  8  1  0
M  END
>  <energy_score>  (698) 
-51.003053

>  <inchikey>  (698) 
None

>  <smiles>  (698) 
None

>  <ref_pdb>  (698) 
A0514a

>  <alias>  (698) 
None

>  <HIPPO Pose ID>  (698) 
498342

>  <name>  (698) 
P498342

>  <HIPPO Compound ID>  (698) 
292718

>  <ref_mols>  (698) 
A4331a,A0514a

>  <distance_score>  (698) 
1.647298

>  <inspiration_score>  (698) 
None

$$$$
P498343
     RDKit          3D

 22 24  0  0  0  0  0  0  0  0999 V2000
    9.4073    8.6010   22.9948 C   0  0  0  0  0  0  0  0  0  0  0  0
    8.5223    9.3701   23.8097 O   0  0  0  0  0  0  0  0  0  0  0  0
    8.9301   10.6470   23.9905 C   0  0  0  0  0  0  0  0  0  0  0  0
    9.9644   11.1257   23.5604 O   0  0  0  0  0  0  0  0  0  0  0  0
    7.9200   11.3888   24.7901 C   0  0  0  0  0  0  0  0  0  0  0  0
    6.9533   10.6999   25.5333 C   0  0  0  0  0  0  0  0  0  0  0  0
    6.0761   11.4222   26.3336 C   0  0  0  0  0  0  0  0  0  0  0  0
    5.1910   10.7684   27.3552 C   0  0  0  0  0  0  0  0  0  0  0  0
    3.9955   11.5080   27.9174 C   0  0  0  0  0  0  0  0  0  0  0  0
    5.2240   11.3478   28.7573 C   0  0  0  0  0  0  0  0  0  0  0  0
    6.0676   12.7738   26.3205 N   0  0  0  0  0  0  0  0  0  0  0  0
    6.9787   13.4170   25.5826 C   0  0  0  0  0  0  0  0  0  0  0  0
    7.9752   12.7858   24.8567 C   0  0  0  0  0  0  0  0  0  0  0  0
    9.0194   13.5370   24.2903 N   0  0  0  0  0  0  0  0  0  0  0  0
    9.8020   14.2806   25.2172 N   0  0  0  0  0  0  0  0  0  0  0  0
    8.6192   14.2138   23.0410 C   0  0  0  0  0  0  0  0  0  0  0  0
    9.7608   14.2345   22.0368 C   0  0  0  0  0  0  0  0  0  0  0  0
   11.2384   14.3275   22.4408 C   0  0  0  0  0  0  0  0  0  0  0  0
   11.4843   15.1765   21.1859 C   0  0  0  0  0  0  0  0  0  0  0  0
   11.9673   14.5691   20.0841 F   0  0  0  0  0  0  0  0  0  0  0  0
   12.3082   16.2033   21.4606 F   0  0  0  0  0  0  0  0  0  0  0  0
    9.9698   15.4549   21.1160 C   0  0  0  0  0  0  0  0  0  0  0  0
  1  2  1  0
  2  3  1  0
  3  4  2  0
  3  5  1  0
  5  6  2  0
  6  7  1  0
  7  8  1  0
  8  9  1  0
  9 10  1  0
  7 11  2  0
 11 12  1  0
 12 13  2  0
 13 14  1  0
 14 15  1  0
 14 16  1  0
 16 17  1  0
 17 18  1  0
 18 19  1  0
 19 20  1  0
 19 21  1  0
 19 22  1  0
 13  5  1  0
 22 17  1  0
 10  8  1  0
M  END
>  <energy_score>  (699) 
-33.411135

>  <inchikey>  (699) 
None

>  <smiles>  (699) 
None

>  <ref_pdb>  (699) 
A0514a

>  <alias>  (699) 
None

>  <HIPPO Pose ID>  (699) 
498343

>  <name>  (699) 
P498343

>  <HIPPO Compound ID>  (699) 
292719

>  <ref_mols>  (699) 
A4331a,A0514a

>  <distance_score>  (699) 
1.756428

>  <inspiration_score>  (699) 
None

$$$$
P498344
     RDKit          3D

 22 23  0  0  0  0  0  0  0  0999 V2000
   12.2118   15.2493   21.2622 C   0  0  0  0  0  0  0  0  0  0  0  0
   12.1088   14.0720   22.1952 C   0  0  0  0  0  0  0  0  0  0  0  0
   10.9102   14.0051   22.9636 O   0  0  0  0  0  0  0  0  0  0  0  0
    9.7305   13.9423   22.2978 C   0  0  0  0  0  0  0  0  0  0  0  0
    9.5692   14.2415   21.1220 O   0  0  0  0  0  0  0  0  0  0  0  0
    8.5858   13.4392   23.1747 C   0  0  2  0  0  0  0  0  0  0  0  0
    7.4126   14.4056   23.0613 C   0  0  0  0  0  0  0  0  0  0  0  0
    8.9783   13.1171   24.5911 N   0  0  0  0  0  0  0  0  0  0  0  0
    9.7541   14.0665   25.3283 N   0  0  0  0  0  0  0  0  0  0  0  0
    7.8996   12.5529   25.3116 C   0  0  0  0  0  0  0  0  0  0  0  0
    7.1766   13.3675   26.1816 C   0  0  0  0  0  0  0  0  0  0  0  0
    6.1417   12.9821   26.9347 N   0  0  0  0  0  0  0  0  0  0  0  0
    5.7191   11.7102   26.8434 C   0  0  0  0  0  0  0  0  0  0  0  0
    4.5438   11.3239   27.6835 C   0  0  0  0  0  0  0  0  0  0  0  0
    4.3007   12.0279   28.9961 C   0  0  0  0  0  0  0  0  0  0  0  0
    3.4172   12.3267   27.8233 C   0  0  0  0  0  0  0  0  0  0  0  0
    6.3592   10.8157   26.0099 C   0  0  0  0  0  0  0  0  0  0  0  0
    7.4687   11.2231   25.2468 C   0  0  0  0  0  0  0  0  0  0  0  0
    8.1037   10.1021   24.5229 C   0  0  0  0  0  0  0  0  0  0  0  0
    7.7136    8.9610   24.7243 O   0  0  0  0  0  0  0  0  0  0  0  0
    9.0938   10.4373   23.6746 O   0  0  0  0  0  0  0  0  0  0  0  0
    9.6804    9.2947   23.0421 C   0  0  0  0  0  0  0  0  0  0  0  0
  1  2  1  0
  2  3  1  0
  3  4  1  0
  4  5  2  0
  4  6  1  0
  6  7  1  1
  6  8  1  0
  8  9  1  0
  8 10  1  0
 10 11  2  0
 11 12  1  0
 12 13  2  0
 13 14  1  0
 14 15  1  0
 15 16  1  0
 13 17  1  0
 17 18  2  0
 18 19  1  0
 19 20  2  0
 19 21  1  0
 21 22  1  0
 18 10  1  0
 16 14  1  0
M  END
>  <energy_score>  (700) 
-29.651313

>  <inchikey>  (700) 
None

>  <smiles>  (700) 
None

>  <ref_pdb>  (700) 
A0514a

>  <alias>  (700) 
None

>  <HIPPO Pose ID>  (700) 
498344

>  <name>  (700) 
P498344

>  <HIPPO Compound ID>  (700) 
292720

>  <ref_mols>  (700) 
A4331a,A0514a

>  <distance_score>  (700) 
1.783805

>  <inspiration_score>  (700) 
None

$$$$
P498345
     RDKit          3D

 22 23  0  0  0  0  0  0  0  0999 V2000
   12.3323   15.3482   21.1825 C   0  0  0  0  0  0  0  0  0  0  0  0
   11.9956   14.2406   22.1286 C   0  0  0  0  0  0  0  0  0  0  0  0
   10.8518   14.5595   22.9162 O   0  0  0  0  0  0  0  0  0  0  0  0
    9.6463   14.4272   22.2767 C   0  0  0  0  0  0  0  0  0  0  0  0
    9.4838   14.4090   21.0674 O   0  0  0  0  0  0  0  0  0  0  0  0
    8.5560   14.2128   23.3260 C   0  0  1  0  0  0  0  0  0  0  0  0
    7.2094   14.3342   22.6181 C   0  0  0  0  0  0  0  0  0  0  0  0
    8.7603   12.8787   23.9803 N   0  0  0  0  0  0  0  0  0  0  0  0
   10.0634   12.5252   24.4422 N   0  0  0  0  0  0  0  0  0  0  0  0
    7.7807   12.4368   24.8792 C   0  0  0  0  0  0  0  0  0  0  0  0
    7.1189   13.3330   25.7111 C   0  0  0  0  0  0  0  0  0  0  0  0
    6.1832   13.0113   26.6147 N   0  0  0  0  0  0  0  0  0  0  0  0
    5.8057   11.7242   26.7200 C   0  0  0  0  0  0  0  0  0  0  0  0
    4.7158   11.4055   27.6954 C   0  0  0  0  0  0  0  0  0  0  0  0
    4.6619   12.1405   29.0117 C   0  0  0  0  0  0  0  0  0  0  0  0
    3.6511   12.4519   27.9498 C   0  0  0  0  0  0  0  0  0  0  0  0
    6.4228   10.7472   25.9663 C   0  0  0  0  0  0  0  0  0  0  0  0
    7.4413   11.0919   25.0638 C   0  0  0  0  0  0  0  0  0  0  0  0
    8.0713    9.9241   24.4093 C   0  0  0  0  0  0  0  0  0  0  0  0
    7.7521    8.8016   24.7700 O   0  0  0  0  0  0  0  0  0  0  0  0
    8.9927   10.1892   23.4619 O   0  0  0  0  0  0  0  0  0  0  0  0
    9.5902    9.0099   22.9163 C   0  0  0  0  0  0  0  0  0  0  0  0
  1  2  1  0
  2  3  1  0
  3  4  1  0
  4  5  2  0
  4  6  1  0
  6  7  1  6
  6  8  1  0
  8  9  1  0
  8 10  1  0
 10 11  2  0
 11 12  1  0
 12 13  2  0
 13 14  1  0
 14 15  1  0
 15 16  1  0
 13 17  1  0
 17 18  2  0
 18 19  1  0
 19 20  2  0
 19 21  1  0
 21 22  1  0
 18 10  1  0
 16 14  1  0
M  END
>  <energy_score>  (701) 
-39.180746

>  <inchikey>  (701) 
None

>  <smiles>  (701) 
None

>  <ref_pdb>  (701) 
A0514a

>  <alias>  (701) 
None

>  <HIPPO Pose ID>  (701) 
498345

>  <name>  (701) 
P498345

>  <HIPPO Compound ID>  (701) 
292720

>  <ref_mols>  (701) 
A4331a,A0514a

>  <distance_score>  (701) 
1.614783

>  <inspiration_score>  (701) 
None

$$$$
P498346
     RDKit          3D

 22 25  0  0  0  0  0  0  0  0999 V2000
    9.1201    8.3014   22.7693 C   0  0  0  0  0  0  0  0  0  0  0  0
    8.3473    9.2170   23.5367 O   0  0  0  0  0  0  0  0  0  0  0  0
    9.1053   10.2598   23.9233 C   0  0  0  0  0  0  0  0  0  0  0  0
   10.2982   10.3647   23.7185 O   0  0  0  0  0  0  0  0  0  0  0  0
    8.3227   11.2490   24.6800 C   0  0  0  0  0  0  0  0  0  0  0  0
    7.2385   10.7688   25.4443 C   0  0  0  0  0  0  0  0  0  0  0  0
    6.5254   11.6391   26.2551 C   0  0  0  0  0  0  0  0  0  0  0  0
    5.4094   11.1911   27.1604 C   0  0  0  0  0  0  0  0  0  0  0  0
    4.2377   12.1156   27.4194 C   0  0  0  0  0  0  0  0  0  0  0  0
    5.2518   11.8935   28.4964 C   0  0  0  0  0  0  0  0  0  0  0  0
    6.8712   12.9401   26.3197 N   0  0  0  0  0  0  0  0  0  0  0  0
    7.8685   13.3855   25.5392 C   0  0  0  0  0  0  0  0  0  0  0  0
    8.6549   12.6090   24.6872 C   0  0  0  0  0  0  0  0  0  0  0  0
    9.5425   13.3077   23.8626 N   0  0  0  0  0  0  0  0  0  0  0  0
   10.9290   12.9077   23.5841 C   0  0  0  0  0  0  0  0  0  0  0  0
   11.7655   14.1363   23.2398 C   0  0  0  0  0  0  0  0  0  0  0  0
   11.2764   14.7152   21.9229 C   0  0  0  0  0  0  0  0  0  0  0  0
    9.7953   14.7847   21.9126 C   0  0  0  0  0  0  0  0  0  0  0  0
    9.0457   15.5642   21.1727 N   0  0  0  0  0  0  0  0  0  0  0  0
    7.7827   15.3502   21.6285 C   0  0  0  0  0  0  0  0  0  0  0  0
    7.7278   14.3271   22.5336 C   0  0  0  0  0  0  0  0  0  0  0  0
    9.0342   14.0550   22.8000 N   0  0  0  0  0  0  0  0  0  0  0  0
  1  2  1  0
  2  3  1  0
  3  4  2  0
  3  5  1  0
  5  6  2  0
  6  7  1  0
  7  8  1  0
  8  9  1  0
  9 10  1  0
  7 11  2  0
 11 12  1  0
 12 13  2  0
 13 14  1  0
 14 15  1  0
 15 16  1  0
 16 17  1  0
 17 18  1  0
 18 19  2  0
 19 20  1  0
 20 21  2  0
 21 22  1  0
 13  5  1  0
 22 14  1  0
 10  8  1  0
 22 18  1  0
M  END
>  <energy_score>  (702) 
-21.212969

>  <inchikey>  (702) 
None

>  <smiles>  (702) 
None

>  <ref_pdb>  (702) 
A0514a

>  <alias>  (702) 
None

>  <HIPPO Pose ID>  (702) 
498346

>  <name>  (702) 
P498346

>  <HIPPO Compound ID>  (702) 
292721

>  <ref_mols>  (702) 
A4331a,A0514a

>  <distance_score>  (702) 
1.869443

>  <inspiration_score>  (702) 
None

$$$$
P498347
     RDKit          3D

 22 23  0  0  0  0  0  0  0  0999 V2000
    9.8510    9.3440   22.8042 C   0  0  0  0  0  0  0  0  0  0  0  0
    9.6240   10.6867   23.2610 O   0  0  0  0  0  0  0  0  0  0  0  0
    8.4630   10.7912   23.9248 C   0  0  0  0  0  0  0  0  0  0  0  0
    7.6279    9.8978   24.0267 O   0  0  0  0  0  0  0  0  0  0  0  0
    8.2675   12.0573   24.6547 C   0  0  0  0  0  0  0  0  0  0  0  0
    7.4265   11.8232   25.7325 C   0  0  0  0  0  0  0  0  0  0  0  0
    7.0974   12.8295   26.6115 C   0  0  0  0  0  0  0  0  0  0  0  0
    6.1741   12.4146   27.7123 C   0  0  0  0  0  0  0  0  0  0  0  0
    6.6073   12.7702   28.9542 F   0  0  0  0  0  0  0  0  0  0  0  0
    6.0760   11.0471   27.7484 F   0  0  0  0  0  0  0  0  0  0  0  0
    4.9018   12.8753   27.5895 F   0  0  0  0  0  0  0  0  0  0  0  0
    7.6292   14.0637   26.5304 N   0  0  0  0  0  0  0  0  0  0  0  0
    8.3610   14.3070   25.4226 C   0  0  0  0  0  0  0  0  0  0  0  0
    8.6632   13.3773   24.4046 C   0  0  0  0  0  0  0  0  0  0  0  0
    8.7330   13.9709   23.1375 N   0  0  0  0  0  0  0  0  0  0  0  0
    7.4493   13.8201   22.4759 N   0  0  0  0  0  0  0  0  0  0  0  0
    9.9086   13.9043   22.2565 C   0  0  2  0  0  0  0  0  0  0  0  0
   11.2803   14.3993   22.7229 C   0  0  0  0  0  0  0  0  0  0  0  0
   11.8836   15.1715   21.5099 C   0  0  0  0  0  0  0  0  0  0  0  0
   10.9092   14.9330   20.3614 C   0  0  2  0  0  0  0  0  0  0  0  0
   10.7536   15.8856   19.1996 C   0  0  0  0  0  0  0  0  0  0  0  0
    9.6068   14.8464   21.0952 C   0  0  0  0  0  0  0  0  0  0  0  0
  1  2  1  0
  2  3  1  0
  3  4  2  0
  3  5  1  0
  5  6  2  0
  6  7  1  0
  7  8  1  0
  8  9  1  0
  8 10  1  0
  8 11  1  0
  7 12  2  0
 12 13  1  0
 13 14  2  0
 14 15  1  0
 15 16  1  0
 17 15  1  1
 17 18  1  0
 18 19  1  0
 19 20  1  0
 20 21  1  6
 20 22  1  0
 14  5  1  0
 22 17  1  0
M  END
>  <energy_score>  (703) 
-9.820149

>  <inchikey>  (703) 
None

>  <smiles>  (703) 
None

>  <ref_pdb>  (703) 
A0514a

>  <alias>  (703) 
None

>  <HIPPO Pose ID>  (703) 
498347

>  <name>  (703) 
P498347

>  <HIPPO Compound ID>  (703) 
292722

>  <ref_mols>  (703) 
A4331a,A0514a

>  <distance_score>  (703) 
1.87932

>  <inspiration_score>  (703) 
None

$$$$
P498348
     RDKit          3D

 22 23  0  0  0  0  0  0  0  0999 V2000
    9.2604    8.4487   22.9337 C   0  0  0  0  0  0  0  0  0  0  0  0
    8.3265    9.2318   23.6746 O   0  0  0  0  0  0  0  0  0  0  0  0
    8.8034   10.4604   23.9437 C   0  0  0  0  0  0  0  0  0  0  0  0
    9.9261   10.8654   23.7092 O   0  0  0  0  0  0  0  0  0  0  0  0
    7.8162   11.2775   24.6538 C   0  0  0  0  0  0  0  0  0  0  0  0
    7.0132   10.6824   25.6234 C   0  0  0  0  0  0  0  0  0  0  0  0
    6.2476   11.5089   26.4307 C   0  0  0  0  0  0  0  0  0  0  0  0
    5.3373   10.9254   27.4774 C   0  0  0  0  0  0  0  0  0  0  0  0
    4.3154   11.7599   27.8141 F   0  0  0  0  0  0  0  0  0  0  0  0
    4.7483    9.7603   27.0915 F   0  0  0  0  0  0  0  0  0  0  0  0
    5.9894   10.6367   28.6410 F   0  0  0  0  0  0  0  0  0  0  0  0
    6.3234   12.8636   26.3558 N   0  0  0  0  0  0  0  0  0  0  0  0
    7.0234   13.3987   25.3406 C   0  0  0  0  0  0  0  0  0  0  0  0
    7.7474   12.6548   24.4190 C   0  0  0  0  0  0  0  0  0  0  0  0
    8.1392   13.2332   23.1758 N   0  0  0  0  0  0  0  0  0  0  0  0
    7.0045   13.7141   22.4253 N   0  0  0  0  0  0  0  0  0  0  0  0
    9.3582   14.0275   23.0622 C   0  0  0  0  0  0  0  0  0  0  0  0
    9.4664   14.8497   21.7481 C   0  0  0  0  0  0  0  0  0  0  0  0
   11.2206   14.6597   21.8222 S   0  0  0  0  0  0  0  0  0  0  0  0
   11.9174   15.3994   22.8506 O   0  0  0  0  0  0  0  0  0  0  0  0
   11.7716   14.4564   20.5064 O   0  0  0  0  0  0  0  0  0  0  0  0
   10.6097   13.2142   22.6270 C   0  0  0  0  0  0  0  0  0  0  0  0
  1  2  1  0
  2  3  1  0
  3  4  2  0
  3  5  1  0
  5  6  2  0
  6  7  1  0
  7  8  1  0
  8  9  1  0
  8 10  1  0
  8 11  1  0
  7 12  2  0
 12 13  1  0
 13 14  2  0
 14 15  1  0
 15 16  1  0
 15 17  1  0
 17 18  1  0
 18 19  1  0
 19 20  2  0
 19 21  2  0
 19 22  1  0
 14  5  1  0
 22 17  1  0
M  END
>  <energy_score>  (704) 
-32.116608

>  <inchikey>  (704) 
None

>  <smiles>  (704) 
None

>  <ref_pdb>  (704) 
A0514a

>  <alias>  (704) 
None

>  <HIPPO Pose ID>  (704) 
498348

>  <name>  (704) 
P498348

>  <HIPPO Compound ID>  (704) 
292724

>  <ref_mols>  (704) 
A4331a,A0514a

>  <distance_score>  (704) 
1.580065

>  <inspiration_score>  (704) 
None

$$$$
P498349
     RDKit          3D

 22 23  0  0  0  0  0  0  0  0999 V2000
    9.7386    8.4862   23.3772 C   0  0  0  0  0  0  0  0  0  0  0  0
    8.7996    9.2013   24.1754 O   0  0  0  0  0  0  0  0  0  0  0  0
    8.8129   10.5201   23.8701 C   0  0  0  0  0  0  0  0  0  0  0  0
    9.4405   11.0090   22.9521 O   0  0  0  0  0  0  0  0  0  0  0  0
    7.9865   11.2860   24.8257 C   0  0  0  0  0  0  0  0  0  0  0  0
    6.9669   10.6424   25.5303 C   0  0  0  0  0  0  0  0  0  0  0  0
    6.2273   11.3841   26.4404 C   0  0  0  0  0  0  0  0  0  0  0  0
    5.2184   10.7226   27.3348 C   0  0  0  0  0  0  0  0  0  0  0  0
    4.1533   11.5260   27.6069 F   0  0  0  0  0  0  0  0  0  0  0  0
    4.7011    9.5787   26.8132 F   0  0  0  0  0  0  0  0  0  0  0  0
    5.7493   10.3707   28.5418 F   0  0  0  0  0  0  0  0  0  0  0  0
    6.4395   12.7080   26.6438 N   0  0  0  0  0  0  0  0  0  0  0  0
    7.3936   13.3095   25.9200 C   0  0  0  0  0  0  0  0  0  0  0  0
    8.2328   12.6524   25.0268 C   0  0  0  0  0  0  0  0  0  0  0  0
    9.2939   13.3344   24.3961 N   0  0  0  0  0  0  0  0  0  0  0  0
   10.3327   13.7459   25.2784 N   0  0  0  0  0  0  0  0  0  0  0  0
    8.8576   14.4050   23.4654 C   0  0  2  0  0  0  0  0  0  0  0  0
    7.6118   14.0862   22.6356 C   0  0  0  0  0  0  0  0  0  0  0  0
    9.9843   14.8125   22.4939 C   0  0  0  0  0  0  0  0  0  0  0  0
   10.3656   13.8027   21.4358 C   0  0  0  0  0  0  0  0  0  0  0  0
   11.6863   14.5558   21.2634 C   0  0  0  0  0  0  0  0  0  0  0  0
   11.5432   14.8453   22.7672 C   0  0  0  0  0  0  0  0  0  0  0  0
  1  2  1  0
  2  3  1  0
  3  4  2  0
  3  5  1  0
  5  6  2  0
  6  7  1  0
  7  8  1  0
  8  9  1  0
  8 10  1  0
  8 11  1  0
  7 12  2  0
 12 13  1  0
 13 14  2  0
 14 15  1  0
 15 16  1  0
 15 17  1  0
 17 18  1  6
 17 19  1  0
 19 20  1  0
 20 21  1  0
 21 22  1  0
 14  5  1  0
 22 19  1  0
M  END
>  <energy_score>  (705) 
-34.957369

>  <inchikey>  (705) 
None

>  <smiles>  (705) 
None

>  <ref_pdb>  (705) 
A0514a

>  <alias>  (705) 
None

>  <HIPPO Pose ID>  (705) 
498349

>  <name>  (705) 
P498349

>  <HIPPO Compound ID>  (705) 
292725

>  <ref_mols>  (705) 
A4331a,A0514a

>  <distance_score>  (705) 
1.035425

>  <inspiration_score>  (705) 
None

$$$$
P498350
     RDKit          3D

 22 23  0  0  0  0  0  0  0  0999 V2000
    9.2554    8.5746   23.0326 C   0  0  0  0  0  0  0  0  0  0  0  0
    8.4199    9.4172   23.8305 O   0  0  0  0  0  0  0  0  0  0  0  0
    8.9599   10.6384   24.0519 C   0  0  0  0  0  0  0  0  0  0  0  0
   10.0526   10.9900   23.6384 O   0  0  0  0  0  0  0  0  0  0  0  0
    8.0432   11.4876   24.8697 C   0  0  0  0  0  0  0  0  0  0  0  0
    6.9972   10.8887   25.5851 C   0  0  0  0  0  0  0  0  0  0  0  0
    6.2155   11.6805   26.4286 C   0  0  0  0  0  0  0  0  0  0  0  0
    5.2302   11.0609   27.3772 C   0  0  0  0  0  0  0  0  0  0  0  0
    4.7302    9.8934   26.9178 F   0  0  0  0  0  0  0  0  0  0  0  0
    4.1397   11.8326   27.6509 F   0  0  0  0  0  0  0  0  0  0  0  0
    5.7923   10.7620   28.5863 F   0  0  0  0  0  0  0  0  0  0  0  0
    6.3943   13.0148   26.5485 N   0  0  0  0  0  0  0  0  0  0  0  0
    7.3768   13.5711   25.8291 C   0  0  0  0  0  0  0  0  0  0  0  0
    8.2543   12.8711   25.0054 C   0  0  0  0  0  0  0  0  0  0  0  0
    9.3004   13.6330   24.4471 N   0  0  0  0  0  0  0  0  0  0  0  0
   10.5696   13.2912   25.0041 N   0  0  0  0  0  0  0  0  0  0  0  0
    9.2040   13.7844   22.9629 C   0  0  1  0  0  0  0  0  0  0  0  0
    7.8724   14.4251   22.5599 C   0  0  0  0  0  0  0  0  0  0  0  0
   10.3902   14.6027   22.4559 C   0  0  0  0  0  0  0  0  0  0  0  0
   10.4235   15.1863   21.0334 C   0  0  0  0  0  0  0  0  0  0  0  0
   11.9192   14.8465   20.9821 C   0  0  0  0  0  0  0  0  0  0  0  0
   11.6915   13.8556   22.1323 C   0  0  0  0  0  0  0  0  0  0  0  0
  1  2  1  0
  2  3  1  0
  3  4  2  0
  3  5  1  0
  5  6  2  0
  6  7  1  0
  7  8  1  0
  8  9  1  0
  8 10  1  0
  8 11  1  0
  7 12  2  0
 12 13  1  0
 13 14  2  0
 14 15  1  0
 15 16  1  0
 15 17  1  0
 17 18  1  1
 17 19  1  0
 19 20  1  0
 20 21  1  0
 21 22  1  0
 14  5  1  0
 22 19  1  0
M  END
>  <energy_score>  (706) 
-33.369216

>  <inchikey>  (706) 
None

>  <smiles>  (706) 
None

>  <ref_pdb>  (706) 
A0514a

>  <alias>  (706) 
None

>  <HIPPO Pose ID>  (706) 
498350

>  <name>  (706) 
P498350

>  <HIPPO Compound ID>  (706) 
292725

>  <ref_mols>  (706) 
A4331a,A0514a

>  <distance_score>  (706) 
1.364845

>  <inspiration_score>  (706) 
None

$$$$
P498351
     RDKit          3D

 22 23  0  0  0  0  0  0  0  0999 V2000
    9.2584    8.6192   22.9717 C   0  0  0  0  0  0  0  0  0  0  0  0
    8.4908    9.5939   23.6817 O   0  0  0  0  0  0  0  0  0  0  0  0
    9.2036   10.7070   23.9660 C   0  0  0  0  0  0  0  0  0  0  0  0
   10.3832   10.8598   23.7102 O   0  0  0  0  0  0  0  0  0  0  0  0
    8.3775   11.7136   24.6734 C   0  0  0  0  0  0  0  0  0  0  0  0
    7.2104   11.2790   25.3321 C   0  0  0  0  0  0  0  0  0  0  0  0
    6.4722   12.1952   26.0742 C   0  0  0  0  0  0  0  0  0  0  0  0
    5.2984   11.7769   26.9196 C   0  0  0  0  0  0  0  0  0  0  0  0
    5.0418   10.4463   26.8648 F   0  0  0  0  0  0  0  0  0  0  0  0
    5.4964   12.0312   28.2490 F   0  0  0  0  0  0  0  0  0  0  0  0
    4.1235   12.3875   26.5966 F   0  0  0  0  0  0  0  0  0  0  0  0
    6.8263   13.4991   26.1479 N   0  0  0  0  0  0  0  0  0  0  0  0
    7.9355   13.8900   25.4922 C   0  0  0  0  0  0  0  0  0  0  0  0
    8.7837   13.0581   24.7654 C   0  0  0  0  0  0  0  0  0  0  0  0
    9.9701   13.6411   24.2791 N   0  0  0  0  0  0  0  0  0  0  0  0
   11.1294   13.2869   25.0245 N   0  0  0  0  0  0  0  0  0  0  0  0
   10.1168   13.9530   22.8129 C   0  0  0  0  0  0  0  0  0  0  0  0
    8.7333   14.1232   22.1468 C   0  0  0  0  0  0  0  0  0  0  0  0
   10.9345   15.2301   22.6205 C   0  0  0  0  0  0  0  0  0  0  0  0
   12.1354   15.0594   21.7429 C   0  0  0  0  0  0  0  0  0  0  0  0
   11.6944   13.8983   20.9585 C   0  0  0  0  0  0  0  0  0  0  0  0
   11.0757   13.0420   22.0754 C   0  0  0  0  0  0  0  0  0  0  0  0
  1  2  1  0
  2  3  1  0
  3  4  2  0
  3  5  1  0
  5  6  2  0
  6  7  1  0
  7  8  1  0
  8  9  1  0
  8 10  1  0
  8 11  1  0
  7 12  2  0
 12 13  1  0
 13 14  2  0
 14 15  1  0
 15 16  1  0
 15 17  1  0
 17 18  1  0
 17 19  1  0
 19 20  1  0
 20 21  1  0
 21 22  1  0
 14  5  1  0
 22 17  1  0
M  END
>  <energy_score>  (707) 
-20.756447

>  <inchikey>  (707) 
None

>  <smiles>  (707) 
None

>  <ref_pdb>  (707) 
A0514a

>  <alias>  (707) 
None

>  <HIPPO Pose ID>  (707) 
498351

>  <name>  (707) 
P498351

>  <HIPPO Compound ID>  (707) 
292726

>  <ref_mols>  (707) 
A4331a,A0514a

>  <distance_score>  (707) 
1.84091

>  <inspiration_score>  (707) 
None

$$$$
P498352
     RDKit          3D

 22 23  0  0  0  0  0  0  0  0999 V2000
    9.2828    8.5937   22.9706 C   0  0  0  0  0  0  0  0  0  0  0  0
    8.4861    9.5280   23.7021 O   0  0  0  0  0  0  0  0  0  0  0  0
    9.1338   10.6926   23.9350 C   0  0  0  0  0  0  0  0  0  0  0  0
   10.2919   10.9165   23.6317 O   0  0  0  0  0  0  0  0  0  0  0  0
    8.2544   11.6589   24.6395 C   0  0  0  0  0  0  0  0  0  0  0  0
    7.1581   11.1725   25.3720 C   0  0  0  0  0  0  0  0  0  0  0  0
    6.3985   12.0675   26.1223 C   0  0  0  0  0  0  0  0  0  0  0  0
    5.3169   11.5931   27.0561 C   0  0  0  0  0  0  0  0  0  0  0  0
    4.9847   10.2936   26.8596 F   0  0  0  0  0  0  0  0  0  0  0  0
    5.6945   11.6625   28.3668 F   0  0  0  0  0  0  0  0  0  0  0  0
    4.1442   12.2799   26.9603 F   0  0  0  0  0  0  0  0  0  0  0  0
    6.6657   13.3937   26.1389 N   0  0  0  0  0  0  0  0  0  0  0  0
    7.7059   13.8383   25.4118 C   0  0  0  0  0  0  0  0  0  0  0  0
    8.5602   13.0304   24.6701 C   0  0  0  0  0  0  0  0  0  0  0  0
    9.7024   13.6622   24.1011 N   0  0  0  0  0  0  0  0  0  0  0  0
   10.8908   13.3386   24.8350 N   0  0  0  0  0  0  0  0  0  0  0  0
    9.8871   13.7159   22.6545 C   0  0  0  0  0  0  0  0  0  0  0  0
   10.9780   14.7075   22.2243 C   0  0  0  0  0  0  0  0  0  0  0  0
   10.0118   15.2886   21.1864 C   0  0  0  0  0  0  0  0  0  0  0  0
   10.3090   14.8895   19.9403 F   0  0  0  0  0  0  0  0  0  0  0  0
    9.8871   16.6246   21.1132 F   0  0  0  0  0  0  0  0  0  0  0  0
    8.8494   14.5631   21.9103 C   0  0  0  0  0  0  0  0  0  0  0  0
  1  2  1  0
  2  3  1  0
  3  4  2  0
  3  5  1  0
  5  6  2  0
  6  7  1  0
  7  8  1  0
  8  9  1  0
  8 10  1  0
  8 11  1  0
  7 12  2  0
 12 13  1  0
 13 14  2  0
 14 15  1  0
 15 16  1  0
 15 17  1  0
 17 18  1  0
 18 19  1  0
 19 20  1  0
 19 21  1  0
 19 22  1  0
 14  5  1  0
 22 17  1  0
M  END
>  <energy_score>  (708) 
-36.669345

>  <inchikey>  (708) 
None

>  <smiles>  (708) 
None

>  <ref_pdb>  (708) 
A0514a

>  <alias>  (708) 
None

>  <HIPPO Pose ID>  (708) 
498352

>  <name>  (708) 
P498352

>  <HIPPO Compound ID>  (708) 
292729

>  <ref_mols>  (708) 
A4331a,A0514a

>  <distance_score>  (708) 
1.43461

>  <inspiration_score>  (708) 
None

$$$$
P498353
     RDKit          3D

 22 22  0  0  0  0  0  0  0  0999 V2000
    9.4667    8.3918   23.1103 C   0  0  0  0  0  0  0  0  0  0  0  0
    8.7123    9.1758   24.0309 O   0  0  0  0  0  0  0  0  0  0  0  0
    8.7981   10.5027   23.8142 C   0  0  0  0  0  0  0  0  0  0  0  0
    9.4403   11.0432   22.9331 O   0  0  0  0  0  0  0  0  0  0  0  0
    7.9671   11.2459   24.7883 C   0  0  0  0  0  0  0  0  0  0  0  0
    6.9838   10.5881   25.5305 C   0  0  0  0  0  0  0  0  0  0  0  0
    6.2176   11.3346   26.4139 C   0  0  0  0  0  0  0  0  0  0  0  0
    5.2316   10.6753   27.3371 C   0  0  0  0  0  0  0  0  0  0  0  0
    4.1830   11.4867   27.6469 F   0  0  0  0  0  0  0  0  0  0  0  0
    4.6874    9.5427   26.8195 F   0  0  0  0  0  0  0  0  0  0  0  0
    5.7962   10.3098   28.5234 F   0  0  0  0  0  0  0  0  0  0  0  0
    6.3728   12.6736   26.5534 N   0  0  0  0  0  0  0  0  0  0  0  0
    7.2927   13.2901   25.8019 C   0  0  0  0  0  0  0  0  0  0  0  0
    8.1560   12.6309   24.9311 C   0  0  0  0  0  0  0  0  0  0  0  0
    9.1736   13.3073   24.2139 N   0  0  0  0  0  0  0  0  0  0  0  0
    8.6066   14.3057   23.3138 C   0  0  0  0  0  0  0  0  0  0  0  0
    9.4480   14.5499   22.0572 C   0  0  0  0  0  0  0  0  0  0  0  0
   10.9342   14.2287   22.0805 C   0  0  0  0  0  0  0  0  0  0  0  0
   11.6628   15.0148   23.0026 O   0  0  0  0  0  0  0  0  0  0  0  0
   10.1299   13.7787   25.0901 N   0  0  0  0  0  0  0  0  0  0  0  0
    9.8525   14.7613   25.7884 O   0  0  0  0  0  0  0  0  0  0  0  0
   11.1615   13.1066   25.1557 O   0  0  0  0  0  0  0  0  0  0  0  0
  1  2  1  0
  2  3  1  0
  3  4  2  0
  3  5  1  0
  5  6  2  0
  6  7  1  0
  7  8  1  0
  8  9  1  0
  8 10  1  0
  8 11  1  0
  7 12  2  0
 12 13  1  0
 13 14  2  0
 14 15  1  0
 15 16  1  0
 16 17  1  0
 17 18  1  0
 18 19  1  0
 15 20  1  0
 20 21  2  0
 20 22  1  0
 14  5  1  0
M  CHG  2  20   1  22  -1
M  END
>  <energy_score>  (709) 
-46.616469

>  <inchikey>  (709) 
None

>  <smiles>  (709) 
None

>  <ref_pdb>  (709) 
A0514a

>  <alias>  (709) 
None

>  <HIPPO Pose ID>  (709) 
498353

>  <name>  (709) 
P498353

>  <HIPPO Compound ID>  (709) 
292730

>  <ref_mols>  (709) 
A4331a,A0514a

>  <distance_score>  (709) 
1.008015

>  <inspiration_score>  (709) 
None

$$$$
P498354
     RDKit          3D

 22 22  0  0  0  0  0  0  0  0999 V2000
    9.7502    8.3708   23.3414 C   0  0  0  0  0  0  0  0  0  0  0  0
    8.8273    9.1055   24.1342 O   0  0  0  0  0  0  0  0  0  0  0  0
    8.8534   10.4120   23.7865 C   0  0  0  0  0  0  0  0  0  0  0  0
    9.4754   10.8675   22.8436 O   0  0  0  0  0  0  0  0  0  0  0  0
    8.0472   11.2105   24.7335 C   0  0  0  0  0  0  0  0  0  0  0  0
    7.0276   10.6209   25.4791 C   0  0  0  0  0  0  0  0  0  0  0  0
    6.3175   11.4224   26.3630 C   0  0  0  0  0  0  0  0  0  0  0  0
    5.2920   10.8233   27.2840 C   0  0  0  0  0  0  0  0  0  0  0  0
    4.2339   11.6485   27.5133 F   0  0  0  0  0  0  0  0  0  0  0  0
    5.8082   10.5153   28.5096 F   0  0  0  0  0  0  0  0  0  0  0  0
    4.7616    9.6598   26.8146 F   0  0  0  0  0  0  0  0  0  0  0  0
    6.5725   12.7478   26.5114 N   0  0  0  0  0  0  0  0  0  0  0  0
    7.5374   13.2926   25.7512 C   0  0  0  0  0  0  0  0  0  0  0  0
    8.3247   12.5767   24.8624 C   0  0  0  0  0  0  0  0  0  0  0  0
    9.3588   13.1774   24.1460 N   0  0  0  0  0  0  0  0  0  0  0  0
   10.5977   13.2224   24.8400 N   0  0  0  0  0  0  0  0  0  0  0  0
    9.0213   14.2527   23.1760 C   0  0  2  0  0  0  0  0  0  0  0  0
    7.6775   14.0581   22.4716 C   0  0  0  0  0  0  0  0  0  0  0  0
   10.1967   14.3781   22.1757 C   0  0  0  0  0  0  0  0  0  0  0  0
    9.9882   15.3548   21.0601 C   0  0  0  0  0  0  0  0  0  0  0  0
    9.1241   16.2054   20.9905 O   0  0  0  0  0  0  0  0  0  0  0  0
   10.8860   15.2077   20.0694 O   0  0  0  0  0  0  0  0  0  0  0  0
  1  2  1  0
  2  3  1  0
  3  4  2  0
  3  5  1  0
  5  6  2  0
  6  7  1  0
  7  8  1  0
  8  9  1  0
  8 10  1  0
  8 11  1  0
  7 12  2  0
 12 13  1  0
 13 14  2  0
 14 15  1  0
 15 16  1  0
 15 17  1  0
 17 18  1  6
 17 19  1  0
 19 20  1  0
 20 21  2  0
 20 22  1  0
 14  5  1  0
M  END
>  <energy_score>  (710) 
-41.185202

>  <inchikey>  (710) 
None

>  <smiles>  (710) 
None

>  <ref_pdb>  (710) 
A0514a

>  <alias>  (710) 
None

>  <HIPPO Pose ID>  (710) 
498354

>  <name>  (710) 
P498354

>  <HIPPO Compound ID>  (710) 
292731

>  <ref_mols>  (710) 
A4331a,A0514a

>  <distance_score>  (710) 
1.22857

>  <inspiration_score>  (710) 
None

$$$$
P498355
     RDKit          3D

 22 22  0  0  0  0  0  0  0  0999 V2000
    9.1943    8.5773   23.0484 C   0  0  0  0  0  0  0  0  0  0  0  0
    8.2694    9.3099   23.8613 O   0  0  0  0  0  0  0  0  0  0  0  0
    8.7436   10.5247   24.2186 C   0  0  0  0  0  0  0  0  0  0  0  0
    9.8556   10.9367   23.9451 O   0  0  0  0  0  0  0  0  0  0  0  0
    7.7185   11.3037   24.9622 C   0  0  0  0  0  0  0  0  0  0  0  0
    6.7781   10.6015   25.7348 C   0  0  0  0  0  0  0  0  0  0  0  0
    5.9301   11.3162   26.5793 C   0  0  0  0  0  0  0  0  0  0  0  0
    5.1438   10.6431   27.6674 C   0  0  0  0  0  0  0  0  0  0  0  0
    4.2916    9.7163   27.1866 F   0  0  0  0  0  0  0  0  0  0  0  0
    5.9381   10.0049   28.5741 F   0  0  0  0  0  0  0  0  0  0  0  0
    4.3672   11.4883   28.4069 F   0  0  0  0  0  0  0  0  0  0  0  0
    5.8619   12.6579   26.5584 N   0  0  0  0  0  0  0  0  0  0  0  0
    6.7482   13.3016   25.7929 C   0  0  0  0  0  0  0  0  0  0  0  0
    7.7638   12.7060   25.0381 C   0  0  0  0  0  0  0  0  0  0  0  0
    8.7967   13.5301   24.5588 N   0  0  0  0  0  0  0  0  0  0  0  0
    9.0108   14.6903   25.3317 N   0  0  0  0  0  0  0  0  0  0  0  0
    9.1180   13.5268   23.1118 C   0  0  1  0  0  0  0  0  0  0  0  0
    8.0526   14.2971   22.3272 C   0  0  0  0  0  0  0  0  0  0  0  0
   10.5381   14.0195   22.7937 C   0  0  0  0  0  0  0  0  0  0  0  0
   11.6042   13.6090   23.7743 C   0  0  0  0  0  0  0  0  0  0  0  0
   12.4203   12.7107   23.6857 O   0  0  0  0  0  0  0  0  0  0  0  0
   11.6760   14.4063   24.8670 O   0  0  0  0  0  0  0  0  0  0  0  0
  1  2  1  0
  2  3  1  0
  3  4  2  0
  3  5  1  0
  5  6  2  0
  6  7  1  0
  7  8  1  0
  8  9  1  0
  8 10  1  0
  8 11  1  0
  7 12  2  0
 12 13  1  0
 13 14  2  0
 14 15  1  0
 15 16  1  0
 15 17  1  0
 17 18  1  6
 17 19  1  0
 19 20  1  0
 20 21  2  0
 20 22  1  0
 14  5  1  0
M  END
>  <energy_score>  (711) 
-38.197642

>  <inchikey>  (711) 
None

>  <smiles>  (711) 
None

>  <ref_pdb>  (711) 
A0514a

>  <alias>  (711) 
None

>  <HIPPO Pose ID>  (711) 
498355

>  <name>  (711) 
P498355

>  <HIPPO Compound ID>  (711) 
292731

>  <ref_mols>  (711) 
A4331a,A0514a

>  <distance_score>  (711) 
1.443263

>  <inspiration_score>  (711) 
None

$$$$
P498356
     RDKit          3D

 22 22  0  0  0  0  0  0  0  0999 V2000
   12.6303   15.5039   21.5298 C   0  0  0  0  0  0  0  0  0  0  0  0
   11.7972   14.6147   20.6404 C   0  0  0  0  0  0  0  0  0  0  0  0
   10.5386   14.3289   21.2638 O   0  0  0  0  0  0  0  0  0  0  0  0
   10.6252   13.5446   22.3716 C   0  0  0  0  0  0  0  0  0  0  0  0
   11.6535   13.0287   22.8033 O   0  0  0  0  0  0  0  0  0  0  0  0
    9.2741   13.4828   23.0694 C   0  0  0  0  0  0  0  0  0  0  0  0
    9.4786   13.0368   24.4757 N   0  0  0  0  0  0  0  0  0  0  0  0
   10.2971   13.9394   25.2516 N   0  0  0  0  0  0  0  0  0  0  0  0
    8.2537   12.6377   25.0625 C   0  0  0  0  0  0  0  0  0  0  0  0
    7.5133   13.5536   25.8098 C   0  0  0  0  0  0  0  0  0  0  0  0
    6.4479   13.2501   26.5756 N   0  0  0  0  0  0  0  0  0  0  0  0
    6.0210   11.9670   26.5843 C   0  0  0  0  0  0  0  0  0  0  0  0
    4.9318   11.5894   27.5486 C   0  0  0  0  0  0  0  0  0  0  0  0
    3.8309   12.3762   27.4303 F   0  0  0  0  0  0  0  0  0  0  0  0
    5.3291   11.6805   28.8512 F   0  0  0  0  0  0  0  0  0  0  0  0
    4.4806   10.3100   27.4043 F   0  0  0  0  0  0  0  0  0  0  0  0
    6.6171   11.0002   25.8044 C   0  0  0  0  0  0  0  0  0  0  0  0
    7.7478   11.3258   25.0405 C   0  0  0  0  0  0  0  0  0  0  0  0
    8.3250   10.1345   24.3836 C   0  0  0  0  0  0  0  0  0  0  0  0
    7.9345    9.0205   24.7080 O   0  0  0  0  0  0  0  0  0  0  0  0
    9.2307   10.3905   23.4248 O   0  0  0  0  0  0  0  0  0  0  0  0
    9.7421    9.1814   22.8560 C   0  0  0  0  0  0  0  0  0  0  0  0
  1  2  1  0
  2  3  1  0
  3  4  1  0
  4  5  2  0
  4  6  1  0
  6  7  1  0
  7  8  1  0
  7  9  1  0
  9 10  2  0
 10 11  1  0
 11 12  2  0
 12 13  1  0
 13 14  1  0
 13 15  1  0
 13 16  1  0
 12 17  1  0
 17 18  2  0
 18 19  1  0
 19 20  2  0
 19 21  1  0
 21 22  1  0
 18  9  1  0
M  END
>  <energy_score>  (712) 
-45.308765

>  <inchikey>  (712) 
None

>  <smiles>  (712) 
None

>  <ref_pdb>  (712) 
A0514a

>  <alias>  (712) 
None

>  <HIPPO Pose ID>  (712) 
498356

>  <name>  (712) 
P498356

>  <HIPPO Compound ID>  (712) 
292732

>  <ref_mols>  (712) 
A4331a,A0514a

>  <distance_score>  (712) 
1.369983

>  <inspiration_score>  (712) 
None

$$$$
P498357
     RDKit          3D

 22 23  0  0  0  0  0  0  0  0999 V2000
    9.1356    8.4897   22.9224 C   0  0  0  0  0  0  0  0  0  0  0  0
    8.2741    9.4029   23.6093 O   0  0  0  0  0  0  0  0  0  0  0  0
    8.8828   10.5864   23.8369 C   0  0  0  0  0  0  0  0  0  0  0  0
   10.0440   10.8312   23.5768 O   0  0  0  0  0  0  0  0  0  0  0  0
    7.9904   11.5260   24.5435 C   0  0  0  0  0  0  0  0  0  0  0  0
    7.1829   11.0016   25.5504 C   0  0  0  0  0  0  0  0  0  0  0  0
    6.4806   11.8690   26.3761 C   0  0  0  0  0  0  0  0  0  0  0  0
    5.4980   11.3138   27.3782 C   0  0  0  0  0  0  0  0  0  0  0  0
    4.4014   12.1021   27.5479 F   0  0  0  0  0  0  0  0  0  0  0  0
    6.0409   11.1460   28.6185 F   0  0  0  0  0  0  0  0  0  0  0  0
    5.0110   10.0886   27.0274 F   0  0  0  0  0  0  0  0  0  0  0  0
    6.6626   13.2076   26.3304 N   0  0  0  0  0  0  0  0  0  0  0  0
    7.3881   13.6833   25.3032 C   0  0  0  0  0  0  0  0  0  0  0  0
    8.0082   12.9095   24.3207 C   0  0  0  0  0  0  0  0  0  0  0  0
    8.4273   13.4882   23.0732 N   0  0  0  0  0  0  0  0  0  0  0  0
    7.2819   14.2944   22.5811 C   0  0  0  0  0  0  0  0  0  0  0  0
    9.6562   14.2454   23.0903 N   0  0  0  0  0  0  0  0  0  0  0  0
    9.9699   14.7312   21.7029 C   0  0  0  0  0  0  0  0  0  0  0  0
   11.4718   14.8879   21.4061 C   0  0  0  0  0  0  0  0  0  0  0  0
   12.1942   15.2567   22.5827 O   0  0  0  0  0  0  0  0  0  0  0  0
   12.0304   14.2883   23.6181 C   0  0  0  0  0  0  0  0  0  0  0  0
   10.7945   13.4213   23.4954 C   0  0  0  0  0  0  0  0  0  0  0  0
  1  2  1  0
  2  3  1  0
  3  4  2  0
  3  5  1  0
  5  6  2  0
  6  7  1  0
  7  8  1  0
  8  9  1  0
  8 10  1  0
  8 11  1  0
  7 12  2  0
 12 13  1  0
 13 14  2  0
 14 15  1  0
 15 16  1  0
 15 17  1  0
 17 18  1  0
 18 19  1  0
 19 20  1  0
 20 21  1  0
 21 22  1  0
 14  5  1  0
 22 17  1  0
M  END
>  <energy_score>  (713) 
-33.50365

>  <inchikey>  (713) 
None

>  <smiles>  (713) 
None

>  <ref_pdb>  (713) 
A0514a

>  <alias>  (713) 
None

>  <HIPPO Pose ID>  (713) 
498357

>  <name>  (713) 
P498357

>  <HIPPO Compound ID>  (713) 
292733

>  <ref_mols>  (713) 
A4331a,A0514a

>  <distance_score>  (713) 
1.836928

>  <inspiration_score>  (713) 
None

$$$$
P498358
     RDKit          3D

 22 23  0  0  0  0  0  0  0  0999 V2000
    9.5141    8.7333   22.9553 C   0  0  0  0  0  0  0  0  0  0  0  0
    8.5733    9.5832   23.6064 O   0  0  0  0  0  0  0  0  0  0  0  0
    9.0616   10.8119   23.9086 C   0  0  0  0  0  0  0  0  0  0  0  0
   10.2075   11.1717   23.7366 O   0  0  0  0  0  0  0  0  0  0  0  0
    7.9641   11.5826   24.5427 C   0  0  0  0  0  0  0  0  0  0  0  0
    7.1057   10.8680   25.3921 C   0  0  0  0  0  0  0  0  0  0  0  0
    6.1041   11.5331   26.0921 C   0  0  0  0  0  0  0  0  0  0  0  0
    5.3179   10.8213   27.1588 C   0  0  0  0  0  0  0  0  0  0  0  0
    4.2418   11.5339   27.5981 F   0  0  0  0  0  0  0  0  0  0  0  0
    4.8331    9.6160   26.7607 F   0  0  0  0  0  0  0  0  0  0  0  0
    6.0598   10.5652   28.2768 F   0  0  0  0  0  0  0  0  0  0  0  0
    5.8281   12.8339   25.8884 N   0  0  0  0  0  0  0  0  0  0  0  0
    6.6109   13.4745   25.0165 C   0  0  0  0  0  0  0  0  0  0  0  0
    7.7897   12.9622   24.4479 C   0  0  0  0  0  0  0  0  0  0  0  0
    8.7787   13.9406   24.1541 N   0  0  0  0  0  0  0  0  0  0  0  0
    9.0863   14.6229   25.4250 C   0  0  0  0  0  0  0  0  0  0  0  0
    9.7064   13.7912   23.0932 N   0  0  0  0  0  0  0  0  0  0  0  0
    9.2952   14.5943   21.9291 C   0  0  0  0  0  0  0  0  0  0  0  0
   10.3744   14.8666   20.8768 C   0  0  0  0  0  0  0  0  0  0  0  0
   11.7742   15.0953   21.3965 C   0  0  0  0  0  0  0  0  0  0  0  0
   12.1068   14.0259   22.4067 C   0  0  0  0  0  0  0  0  0  0  0  0
   11.0915   13.9982   23.5204 C   0  0  0  0  0  0  0  0  0  0  0  0
  1  2  1  0
  2  3  1  0
  3  4  2  0
  3  5  1  0
  5  6  2  0
  6  7  1  0
  7  8  1  0
  8  9  1  0
  8 10  1  0
  8 11  1  0
  7 12  2  0
 12 13  1  0
 13 14  2  0
 14 15  1  0
 15 16  1  0
 15 17  1  0
 17 18  1  0
 18 19  1  0
 19 20  1  0
 20 21  1  0
 21 22  1  0
 14  5  1  0
 22 17  1  0
M  END
>  <energy_score>  (714) 
-32.916748

>  <inchikey>  (714) 
None

>  <smiles>  (714) 
None

>  <ref_pdb>  (714) 
A0514a

>  <alias>  (714) 
None

>  <HIPPO Pose ID>  (714) 
498358

>  <name>  (714) 
P498358

>  <HIPPO Compound ID>  (714) 
292734

>  <ref_mols>  (714) 
A4331a,A0514a

>  <distance_score>  (714) 
1.556483

>  <inspiration_score>  (714) 
None

$$$$
P498359
     RDKit          3D

 22 23  0  0  0  0  0  0  0  0999 V2000
    9.3753    8.7068   22.9774 C   0  0  0  0  0  0  0  0  0  0  0  0
    8.5058    9.5962   23.6802 O   0  0  0  0  0  0  0  0  0  0  0  0
    9.0233   10.8353   23.8350 C   0  0  0  0  0  0  0  0  0  0  0  0
   10.1286   11.1995   23.4841 O   0  0  0  0  0  0  0  0  0  0  0  0
    8.0982   11.6928   24.5966 C   0  0  0  0  0  0  0  0  0  0  0  0
    7.2958   11.1051   25.5736 C   0  0  0  0  0  0  0  0  0  0  0  0
    6.4950   11.9122   26.3728 C   0  0  0  0  0  0  0  0  0  0  0  0
    5.5174   11.2774   27.3341 C   0  0  0  0  0  0  0  0  0  0  0  0
    4.3865   12.0108   27.5147 F   0  0  0  0  0  0  0  0  0  0  0  0
    6.0481   11.0801   28.5745 F   0  0  0  0  0  0  0  0  0  0  0  0
    5.0948   10.0487   26.9199 F   0  0  0  0  0  0  0  0  0  0  0  0
    6.5580   13.2606   26.3185 N   0  0  0  0  0  0  0  0  0  0  0  0
    7.2686   13.7913   25.3109 C   0  0  0  0  0  0  0  0  0  0  0  0
    8.0186   13.0702   24.3827 C   0  0  0  0  0  0  0  0  0  0  0  0
    8.3452   13.6925   23.1530 N   0  0  0  0  0  0  0  0  0  0  0  0
    7.2126   14.0272   22.3935 N   0  0  0  0  0  0  0  0  0  0  0  0
    9.6043   14.1560   22.6848 C   0  0  0  0  0  0  0  0  0  0  0  0
   10.7758   13.9833   23.4078 C   0  0  0  0  0  0  0  0  0  0  0  0
   11.9655   14.4005   22.8447 C   0  0  0  0  0  0  0  0  0  0  0  0
   12.0509   15.0500   21.6723 N   0  0  0  0  0  0  0  0  0  0  0  0
   10.9289   15.2621   20.9680 N   0  0  0  0  0  0  0  0  0  0  0  0
    9.7534   14.8137   21.4604 C   0  0  0  0  0  0  0  0  0  0  0  0
  1  2  1  0
  2  3  1  0
  3  4  2  0
  3  5  1  0
  5  6  2  0
  6  7  1  0
  7  8  1  0
  8  9  1  0
  8 10  1  0
  8 11  1  0
  7 12  2  0
 12 13  1  0
 13 14  2  0
 14 15  1  0
 15 16  1  0
 15 17  1  0
 17 18  2  0
 18 19  1  0
 19 20  2  0
 20 21  1  0
 21 22  2  0
 14  5  1  0
 22 17  1  0
M  END
>  <energy_score>  (715) 
-38.873171

>  <inchikey>  (715) 
None

>  <smiles>  (715) 
None

>  <ref_pdb>  (715) 
A0514a

>  <alias>  (715) 
None

>  <HIPPO Pose ID>  (715) 
498359

>  <name>  (715) 
P498359

>  <HIPPO Compound ID>  (715) 
292736

>  <ref_mols>  (715) 
A4331a,A0514a

>  <distance_score>  (715) 
1.428051

>  <inspiration_score>  (715) 
None

$$$$
P498360
     RDKit          3D

 22 23  0  0  0  0  0  0  0  0999 V2000
    9.3649    8.4946   23.1919 C   0  0  0  0  0  0  0  0  0  0  0  0
    8.6975    9.4426   24.0277 O   0  0  0  0  0  0  0  0  0  0  0  0
    8.9872   10.7291   23.7295 C   0  0  0  0  0  0  0  0  0  0  0  0
    9.7664   11.0916   22.8674 O   0  0  0  0  0  0  0  0  0  0  0  0
    8.1738   11.6689   24.5321 C   0  0  0  0  0  0  0  0  0  0  0  0
    7.0542   11.2335   25.2362 C   0  0  0  0  0  0  0  0  0  0  0  0
    6.3073   12.1638   25.9541 C   0  0  0  0  0  0  0  0  0  0  0  0
    5.1858   11.7074   26.8512 C   0  0  0  0  0  0  0  0  0  0  0  0
    5.3953   12.0465   28.1532 F   0  0  0  0  0  0  0  0  0  0  0  0
    3.9675   12.2251   26.5304 F   0  0  0  0  0  0  0  0  0  0  0  0
    5.0217   10.3513   26.8615 F   0  0  0  0  0  0  0  0  0  0  0  0
    6.5863   13.4870   25.9349 N   0  0  0  0  0  0  0  0  0  0  0  0
    7.6734   13.8695   25.2486 C   0  0  0  0  0  0  0  0  0  0  0  0
    8.5490   13.0142   24.5892 C   0  0  0  0  0  0  0  0  0  0  0  0
    9.8568   13.4026   24.3061 N   0  0  0  0  0  0  0  0  0  0  0  0
   10.5786   13.6762   25.4932 N   0  0  0  0  0  0  0  0  0  0  0  0
   10.2373   14.2037   23.1263 C   0  0  2  0  0  0  0  0  0  0  0  0
    9.1742   14.4644   22.0745 C   0  0  0  0  0  0  0  0  0  0  0  0
    9.6516   15.3736   20.9390 C   0  0  0  0  0  0  0  0  0  0  0  0
   11.0188   15.0898   20.3403 C   0  0  0  0  0  0  0  0  0  0  0  0
   12.3093   15.0119   21.5922 S   0  0  0  0  0  0  0  0  0  0  0  0
   11.5588   13.6952   22.5659 C   0  0  0  0  0  0  0  0  0  0  0  0
  1  2  1  0
  2  3  1  0
  3  4  2  0
  3  5  1  0
  5  6  2  0
  6  7  1  0
  7  8  1  0
  8  9  1  0
  8 10  1  0
  8 11  1  0
  7 12  2  0
 12 13  1  0
 13 14  2  0
 14 15  1  0
 15 16  1  0
 17 15  1  1
 17 18  1  0
 18 19  1  0
 19 20  1  0
 20 21  1  0
 21 22  1  0
 14  5  1  0
 22 17  1  0
M  END
>  <energy_score>  (716) 
-32.567696

>  <inchikey>  (716) 
None

>  <smiles>  (716) 
None

>  <ref_pdb>  (716) 
A0514a

>  <alias>  (716) 
None

>  <HIPPO Pose ID>  (716) 
498360

>  <name>  (716) 
P498360

>  <HIPPO Compound ID>  (716) 
292737

>  <ref_mols>  (716) 
A4331a,A0514a

>  <distance_score>  (716) 
1.639602

>  <inspiration_score>  (716) 
None

$$$$
P498361
     RDKit          3D

 22 23  0  0  0  0  0  0  0  0999 V2000
    9.3244    8.6673   22.9820 C   0  0  0  0  0  0  0  0  0  0  0  0
    8.3736    9.4902   23.6607 O   0  0  0  0  0  0  0  0  0  0  0  0
    8.8651   10.7091   23.9920 C   0  0  0  0  0  0  0  0  0  0  0  0
   10.0109   11.0619   23.8091 O   0  0  0  0  0  0  0  0  0  0  0  0
    7.8105   11.5045   24.6628 C   0  0  0  0  0  0  0  0  0  0  0  0
    7.0523   10.7711   25.5989 C   0  0  0  0  0  0  0  0  0  0  0  0
    6.0563   11.3888   26.3405 C   0  0  0  0  0  0  0  0  0  0  0  0
    5.2892   10.6610   27.4069 C   0  0  0  0  0  0  0  0  0  0  0  0
    4.2885   11.4149   27.9422 F   0  0  0  0  0  0  0  0  0  0  0  0
    4.6954    9.5263   26.9517 F   0  0  0  0  0  0  0  0  0  0  0  0
    6.0672   10.2815   28.4603 F   0  0  0  0  0  0  0  0  0  0  0  0
    5.7145   12.6598   26.1248 N   0  0  0  0  0  0  0  0  0  0  0  0
    6.3991   13.3023   25.1751 C   0  0  0  0  0  0  0  0  0  0  0  0
    7.5495   12.8671   24.4804 C   0  0  0  0  0  0  0  0  0  0  0  0
    8.2343   13.8540   23.7576 N   0  0  0  0  0  0  0  0  0  0  0  0
    8.0936   15.1539   24.3028 N   0  0  0  0  0  0  0  0  0  0  0  0
    9.4708   13.6874   22.9420 C   0  0  1  0  0  0  0  0  0  0  0  0
    9.4299   14.6484   21.7271 C   0  0  0  0  0  0  0  0  0  0  0  0
   10.7288   14.8479   20.9522 C   0  0  0  0  0  0  0  0  0  0  0  0
   12.0032   15.0251   21.7516 C   0  0  0  0  0  0  0  0  0  0  0  0
   12.2532   13.7569   23.0171 S   0  0  0  0  0  0  0  0  0  0  0  0
   10.6838   13.8520   23.8581 C   0  0  0  0  0  0  0  0  0  0  0  0
  1  2  1  0
  2  3  1  0
  3  4  2  0
  3  5  1  0
  5  6  2  0
  6  7  1  0
  7  8  1  0
  8  9  1  0
  8 10  1  0
  8 11  1  0
  7 12  2  0
 12 13  1  0
 13 14  2  0
 14 15  1  0
 15 16  1  0
 17 15  1  1
 17 18  1  0
 18 19  1  0
 19 20  1  0
 20 21  1  0
 21 22  1  0
 14  5  1  0
 22 17  1  0
M  END
>  <energy_score>  (717) 
-28.010759

>  <inchikey>  (717) 
None

>  <smiles>  (717) 
None

>  <ref_pdb>  (717) 
A0514a

>  <alias>  (717) 
None

>  <HIPPO Pose ID>  (717) 
498361

>  <name>  (717) 
P498361

>  <HIPPO Compound ID>  (717) 
292737

>  <ref_mols>  (717) 
A4331a,A0514a

>  <distance_score>  (717) 
1.748908

>  <inspiration_score>  (717) 
None

$$$$
P498362
     RDKit          3D

 22 23  0  0  0  0  0  0  0  0999 V2000
    9.5238    8.7355   22.9551 C   0  0  0  0  0  0  0  0  0  0  0  0
    8.6574    9.6774   23.5828 O   0  0  0  0  0  0  0  0  0  0  0  0
    9.2408   10.8696   23.8420 C   0  0  0  0  0  0  0  0  0  0  0  0
   10.4062   11.1560   23.6364 O   0  0  0  0  0  0  0  0  0  0  0  0
    8.2377   11.7792   24.4435 C   0  0  0  0  0  0  0  0  0  0  0  0
    7.2355   11.1981   25.2274 C   0  0  0  0  0  0  0  0  0  0  0  0
    6.3693   12.0091   25.9501 C   0  0  0  0  0  0  0  0  0  0  0  0
    5.4396   11.3743   26.9549 C   0  0  0  0  0  0  0  0  0  0  0  0
    4.2706   12.0465   27.1340 F   0  0  0  0  0  0  0  0  0  0  0  0
    5.0872   10.0985   26.6220 F   0  0  0  0  0  0  0  0  0  0  0  0
    6.0032   11.2717   28.1952 F   0  0  0  0  0  0  0  0  0  0  0  0
    6.4087   13.3555   25.8674 N   0  0  0  0  0  0  0  0  0  0  0  0
    7.3732   13.8861   25.0923 C   0  0  0  0  0  0  0  0  0  0  0  0
    8.3592   13.1752   24.4027 C   0  0  0  0  0  0  0  0  0  0  0  0
    9.5302   13.8904   24.0783 N   0  0  0  0  0  0  0  0  0  0  0  0
   10.4861   13.6285   25.1121 N   0  0  0  0  0  0  0  0  0  0  0  0
   10.0289   13.9096   22.6537 C   0  0  0  0  0  0  0  0  0  0  0  0
    9.1289   14.7945   21.7780 C   0  0  0  0  0  0  0  0  0  0  0  0
    9.8417   15.6870   20.7658 C   0  0  0  0  0  0  0  0  0  0  0  0
   11.1783   15.9954   21.1001 O   0  0  0  0  0  0  0  0  0  0  0  0
   11.9622   14.8452   21.3165 C   0  0  0  0  0  0  0  0  0  0  0  0
   11.5210   14.2933   22.6373 C   0  0  0  0  0  0  0  0  0  0  0  0
  1  2  1  0
  2  3  1  0
  3  4  2  0
  3  5  1  0
  5  6  2  0
  6  7  1  0
  7  8  1  0
  8  9  1  0
  8 10  1  0
  8 11  1  0
  7 12  2  0
 12 13  1  0
 13 14  2  0
 14 15  1  0
 15 16  1  0
 15 17  1  0
 17 18  1  0
 18 19  1  0
 19 20  1  0
 20 21  1  0
 21 22  1  0
 14  5  1  0
 22 17  1  0
M  END
>  <energy_score>  (718) 
-25.683638

>  <inchikey>  (718) 
None

>  <smiles>  (718) 
None

>  <ref_pdb>  (718) 
A0514a

>  <alias>  (718) 
None

>  <HIPPO Pose ID>  (718) 
498362

>  <name>  (718) 
P498362

>  <HIPPO Compound ID>  (718) 
292739

>  <ref_mols>  (718) 
A4331a,A0514a

>  <distance_score>  (718) 
1.758189

>  <inspiration_score>  (718) 
None

$$$$
P498363
     RDKit          3D

 22 23  0  0  0  0  0  0  0  0999 V2000
    9.4338    8.7394   22.9883 C   0  0  0  0  0  0  0  0  0  0  0  0
    8.5551    9.6250   23.6839 O   0  0  0  0  0  0  0  0  0  0  0  0
    9.0506   10.8754   23.8188 C   0  0  0  0  0  0  0  0  0  0  0  0
   10.1428   11.2618   23.4494 O   0  0  0  0  0  0  0  0  0  0  0  0
    8.1208   11.7226   24.5858 C   0  0  0  0  0  0  0  0  0  0  0  0
    7.3126   11.1227   25.5515 C   0  0  0  0  0  0  0  0  0  0  0  0
    6.4978   11.9182   26.3481 C   0  0  0  0  0  0  0  0  0  0  0  0
    5.5215   11.2689   27.2996 C   0  0  0  0  0  0  0  0  0  0  0  0
    4.3824   11.9896   27.4840 F   0  0  0  0  0  0  0  0  0  0  0  0
    5.1110   10.0375   26.8790 F   0  0  0  0  0  0  0  0  0  0  0  0
    6.0481   11.0679   28.5421 F   0  0  0  0  0  0  0  0  0  0  0  0
    6.5463   13.2669   26.3005 N   0  0  0  0  0  0  0  0  0  0  0  0
    7.2580   13.8064   25.2969 C   0  0  0  0  0  0  0  0  0  0  0  0
    8.0407   13.1012   24.3839 C   0  0  0  0  0  0  0  0  0  0  0  0
    8.4122   13.7557   23.1926 N   0  0  0  0  0  0  0  0  0  0  0  0
    7.3336   13.8770   22.2922 N   0  0  0  0  0  0  0  0  0  0  0  0
    9.6765   14.1677   22.6986 C   0  0  0  0  0  0  0  0  0  0  0  0
   10.8427   14.0229   23.4277 C   0  0  0  0  0  0  0  0  0  0  0  0
   12.0470   14.3837   22.8401 C   0  0  0  0  0  0  0  0  0  0  0  0
   12.0396   14.9351   21.5763 C   0  0  0  0  0  0  0  0  0  0  0  0
   10.8998   15.1403   20.9031 N   0  0  0  0  0  0  0  0  0  0  0  0
    9.7193   14.7491   21.4687 N   0  0  0  0  0  0  0  0  0  0  0  0
  1  2  1  0
  2  3  1  0
  3  4  2  0
  3  5  1  0
  5  6  2  0
  6  7  1  0
  7  8  1  0
  8  9  1  0
  8 10  1  0
  8 11  1  0
  7 12  2  0
 12 13  1  0
 13 14  2  0
 14 15  1  0
 15 16  1  0
 15 17  1  0
 17 18  2  0
 18 19  1  0
 19 20  2  0
 20 21  1  0
 21 22  2  0
 14  5  1  0
 22 17  1  0
M  END
>  <energy_score>  (719) 
-41.064397

>  <inchikey>  (719) 
None

>  <smiles>  (719) 
None

>  <ref_pdb>  (719) 
A0514a

>  <alias>  (719) 
None

>  <HIPPO Pose ID>  (719) 
498363

>  <name>  (719) 
P498363

>  <HIPPO Compound ID>  (719) 
292740

>  <ref_mols>  (719) 
A4331a,A0514a

>  <distance_score>  (719) 
1.613977

>  <inspiration_score>  (719) 
None

$$$$
P498364
     RDKit          3D

 22 23  0  0  0  0  0  0  0  0999 V2000
    9.2470    8.4977   22.9167 C   0  0  0  0  0  0  0  0  0  0  0  0
    8.4053    9.3970   23.6384 O   0  0  0  0  0  0  0  0  0  0  0  0
    9.0480   10.5345   23.9780 C   0  0  0  0  0  0  0  0  0  0  0  0
   10.2309   10.7504   23.7932 O   0  0  0  0  0  0  0  0  0  0  0  0
    8.1182   11.4866   24.6269 C   0  0  0  0  0  0  0  0  0  0  0  0
    7.0448   10.9602   25.3641 C   0  0  0  0  0  0  0  0  0  0  0  0
    6.2352   11.8315   26.0839 C   0  0  0  0  0  0  0  0  0  0  0  0
    5.1803   11.3301   27.0303 C   0  0  0  0  0  0  0  0  0  0  0  0
    5.5149   11.5730   28.3269 F   0  0  0  0  0  0  0  0  0  0  0  0
    3.9581   11.9086   26.8591 F   0  0  0  0  0  0  0  0  0  0  0  0
    4.9727    9.9866   26.9503 F   0  0  0  0  0  0  0  0  0  0  0  0
    6.4269   13.1708   26.0636 N   0  0  0  0  0  0  0  0  0  0  0  0
    7.4408   13.6508   25.3271 C   0  0  0  0  0  0  0  0  0  0  0  0
    8.3534   12.8723   24.6208 C   0  0  0  0  0  0  0  0  0  0  0  0
    9.4730   13.5585   24.1074 N   0  0  0  0  0  0  0  0  0  0  0  0
   10.5922   13.5083   24.9775 N   0  0  0  0  0  0  0  0  0  0  0  0
    9.7518   13.3713   22.6533 C   0  0  0  0  0  0  0  0  0  0  0  0
   10.5064   14.5515   22.0192 C   0  0  0  0  0  0  0  0  0  0  0  0
    9.4762   15.5151   21.4154 C   0  0  0  0  0  0  0  0  0  0  0  0
   11.7968   14.8681   22.8796 C   0  0  0  0  0  0  0  0  0  0  0  0
   12.4315   15.4284   21.6303 C   0  0  0  0  0  0  0  0  0  0  0  0
   11.6030   14.3751   20.8904 C   0  0  0  0  0  0  0  0  0  0  0  0
  1  2  1  0
  2  3  1  0
  3  4  2  0
  3  5  1  0
  5  6  2  0
  6  7  1  0
  7  8  1  0
  8  9  1  0
  8 10  1  0
  8 11  1  0
  7 12  2  0
 12 13  1  0
 13 14  2  0
 14 15  1  0
 15 16  1  0
 15 17  1  0
 17 18  1  0
 18 19  1  0
 18 20  1  0
 20 21  1  0
 21 22  1  0
 14  5  1  0
 22 18  1  0
M  END
>  <energy_score>  (720) 
-24.705261

>  <inchikey>  (720) 
None

>  <smiles>  (720) 
None

>  <ref_pdb>  (720) 
A0514a

>  <alias>  (720) 
None

>  <HIPPO Pose ID>  (720) 
498364

>  <name>  (720) 
P498364

>  <HIPPO Compound ID>  (720) 
292743

>  <ref_mols>  (720) 
A4331a,A0514a

>  <distance_score>  (720) 
1.36717

>  <inspiration_score>  (720) 
None

$$$$
P498365
     RDKit          3D

 22 23  0  0  0  0  0  0  0  0999 V2000
    9.5686    8.4105   23.3902 C   0  0  0  0  0  0  0  0  0  0  0  0
    8.8523    9.2770   24.2700 O   0  0  0  0  0  0  0  0  0  0  0  0
    8.8819   10.5517   23.8305 C   0  0  0  0  0  0  0  0  0  0  0  0
    9.4003   10.9065   22.7936 O   0  0  0  0  0  0  0  0  0  0  0  0
    8.1302   11.4588   24.7144 C   0  0  0  0  0  0  0  0  0  0  0  0
    7.0448   10.9124   25.4034 C   0  0  0  0  0  0  0  0  0  0  0  0
    6.2756   11.7257   26.2227 C   0  0  0  0  0  0  0  0  0  0  0  0
    5.2883   11.1083   27.1763 C   0  0  0  0  0  0  0  0  0  0  0  0
    4.1647   11.8544   27.3512 F   0  0  0  0  0  0  0  0  0  0  0  0
    4.8634    9.8728   26.7910 F   0  0  0  0  0  0  0  0  0  0  0  0
    5.8194   10.9295   28.4225 F   0  0  0  0  0  0  0  0  0  0  0  0
    6.4537   13.0591   26.2795 N   0  0  0  0  0  0  0  0  0  0  0  0
    7.4821   13.5550   25.5787 C   0  0  0  0  0  0  0  0  0  0  0  0
    8.4463   12.8124   24.8864 C   0  0  0  0  0  0  0  0  0  0  0  0
    9.7105   13.3977   24.6423 N   0  0  0  0  0  0  0  0  0  0  0  0
   10.1305   14.3594   25.6061 N   0  0  0  0  0  0  0  0  0  0  0  0
   10.1796   13.6123   23.2433 C   0  0  0  0  0  0  0  0  0  0  0  0
    9.0970   14.3111   22.4281 C   0  0  0  0  0  0  0  0  0  0  0  0
    9.5721   14.6638   21.0512 C   0  0  0  0  0  0  0  0  0  0  0  0
   11.0369   15.6602   20.9914 S   0  0  0  0  0  0  0  0  0  0  0  0
   12.1375   14.5577   21.8689 C   0  0  0  0  0  0  0  0  0  0  0  0
   11.5841   14.2525   23.2406 C   0  0  0  0  0  0  0  0  0  0  0  0
  1  2  1  0
  2  3  1  0
  3  4  2  0
  3  5  1  0
  5  6  2  0
  6  7  1  0
  7  8  1  0
  8  9  1  0
  8 10  1  0
  8 11  1  0
  7 12  2  0
 12 13  1  0
 13 14  2  0
 14 15  1  0
 15 16  1  0
 15 17  1  0
 17 18  1  0
 18 19  1  0
 19 20  1  0
 20 21  1  0
 21 22  1  0
 14  5  1  0
 22 17  1  0
M  END
>  <energy_score>  (721) 
-35.515805

>  <inchikey>  (721) 
None

>  <smiles>  (721) 
None

>  <ref_pdb>  (721) 
A0514a

>  <alias>  (721) 
None

>  <HIPPO Pose ID>  (721) 
498365

>  <name>  (721) 
P498365

>  <HIPPO Compound ID>  (721) 
292744

>  <ref_mols>  (721) 
A4331a,A0514a

>  <distance_score>  (721) 
1.761378

>  <inspiration_score>  (721) 
None

$$$$
P498366
     RDKit          3D

 22 23  0  0  0  0  0  0  0  0999 V2000
    9.4487    8.7463   22.9874 C   0  0  0  0  0  0  0  0  0  0  0  0
    8.5904    9.6475   23.6878 O   0  0  0  0  0  0  0  0  0  0  0  0
    9.0681   10.9113   23.7539 C   0  0  0  0  0  0  0  0  0  0  0  0
   10.1351   11.2947   23.3186 O   0  0  0  0  0  0  0  0  0  0  0  0
    8.1515   11.7748   24.5196 C   0  0  0  0  0  0  0  0  0  0  0  0
    7.3576   11.1802   25.5059 C   0  0  0  0  0  0  0  0  0  0  0  0
    6.5266   11.9709   26.2897 C   0  0  0  0  0  0  0  0  0  0  0  0
    5.5582   11.3209   27.2499 C   0  0  0  0  0  0  0  0  0  0  0  0
    4.4026   12.0192   27.4156 F   0  0  0  0  0  0  0  0  0  0  0  0
    6.0818   11.1534   28.4983 F   0  0  0  0  0  0  0  0  0  0  0  0
    5.1773   10.0735   26.8484 F   0  0  0  0  0  0  0  0  0  0  0  0
    6.5482   13.3157   26.2120 N   0  0  0  0  0  0  0  0  0  0  0  0
    7.2463   13.8483   25.1923 C   0  0  0  0  0  0  0  0  0  0  0  0
    8.0461   13.1484   24.2830 C   0  0  0  0  0  0  0  0  0  0  0  0
    8.4681   13.7921   23.0861 N   0  0  0  0  0  0  0  0  0  0  0  0
    7.4041   14.4694   22.4764 N   0  0  0  0  0  0  0  0  0  0  0  0
    9.7755   14.1881   22.7069 C   0  0  0  0  0  0  0  0  0  0  0  0
   10.8947   14.0418   23.5063 C   0  0  0  0  0  0  0  0  0  0  0  0
   12.1450   14.4368   23.1757 N   0  0  0  0  0  0  0  0  0  0  0  0
   12.2817   14.9705   21.9473 C   0  0  0  0  0  0  0  0  0  0  0  0
   11.2932   15.1803   21.0762 N   0  0  0  0  0  0  0  0  0  0  0  0
   10.0695   14.7909   21.4864 C   0  0  0  0  0  0  0  0  0  0  0  0
  1  2  1  0
  2  3  1  0
  3  4  2  0
  3  5  1  0
  5  6  2  0
  6  7  1  0
  7  8  1  0
  8  9  1  0
  8 10  1  0
  8 11  1  0
  7 12  2  0
 12 13  1  0
 13 14  2  0
 14 15  1  0
 15 16  1  0
 15 17  1  0
 17 18  2  0
 18 19  1  0
 19 20  2  0
 20 21  1  0
 21 22  2  0
 14  5  1  0
 22 17  1  0
M  END
>  <energy_score>  (722) 
-49.4855

>  <inchikey>  (722) 
None

>  <smiles>  (722) 
None

>  <ref_pdb>  (722) 
A0514a

>  <alias>  (722) 
None

>  <HIPPO Pose ID>  (722) 
498366

>  <name>  (722) 
P498366

>  <HIPPO Compound ID>  (722) 
292745

>  <ref_mols>  (722) 
A4331a,A0514a

>  <distance_score>  (722) 
1.835743

>  <inspiration_score>  (722) 
None

$$$$
P498367
     RDKit          3D

 22 22  0  0  0  0  0  0  0  0999 V2000
    9.3032    8.8574   23.1589 C   0  0  0  0  0  0  0  0  0  0  0  0
    8.3670    9.5739   23.9761 O   0  0  0  0  0  0  0  0  0  0  0  0
    8.7286   10.8570   24.2228 C   0  0  0  0  0  0  0  0  0  0  0  0
    9.7535   11.3795   23.8272 O   0  0  0  0  0  0  0  0  0  0  0  0
    7.6973   11.5375   25.0582 C   0  0  0  0  0  0  0  0  0  0  0  0
    6.7838   10.7666   25.7888 C   0  0  0  0  0  0  0  0  0  0  0  0
    5.9140   11.4135   26.6642 C   0  0  0  0  0  0  0  0  0  0  0  0
    5.1176   10.6414   27.6748 C   0  0  0  0  0  0  0  0  0  0  0  0
    4.3885    9.6631   27.1036 F   0  0  0  0  0  0  0  0  0  0  0  0
    4.2183   11.3924   28.3751 F   0  0  0  0  0  0  0  0  0  0  0  0
    5.9020   10.0440   28.6167 F   0  0  0  0  0  0  0  0  0  0  0  0
    5.8192   12.7570   26.7350 N   0  0  0  0  0  0  0  0  0  0  0  0
    6.6721   13.4716   25.9974 C   0  0  0  0  0  0  0  0  0  0  0  0
    7.6900   12.9357   25.2142 C   0  0  0  0  0  0  0  0  0  0  0  0
    8.6890   13.7904   24.6989 N   0  0  0  0  0  0  0  0  0  0  0  0
    9.0907   14.8638   25.5511 N   0  0  0  0  0  0  0  0  0  0  0  0
    8.4295   14.1378   23.2837 C   0  0  0  0  0  0  0  0  0  0  0  0
    9.7527   14.2581   22.5507 C   0  0  0  0  0  0  0  0  0  0  0  0
    9.6086   15.0617   21.2638 C   0  0  0  0  0  0  0  0  0  0  0  0
   10.7774   14.9214   20.4022 N   0  0  0  0  0  0  0  0  0  0  0  0
   12.0514   15.1324   21.0770 C   0  0  0  0  0  0  0  0  0  0  0  0
   10.6396   15.7509   19.2056 C   0  0  0  0  0  0  0  0  0  0  0  0
  1  2  1  0
  2  3  1  0
  3  4  2  0
  3  5  1  0
  5  6  2  0
  6  7  1  0
  7  8  1  0
  8  9  1  0
  8 10  1  0
  8 11  1  0
  7 12  2  0
 12 13  1  0
 13 14  2  0
 14 15  1  0
 15 16  1  0
 15 17  1  0
 17 18  1  0
 18 19  1  0
 19 20  1  0
 20 21  1  0
 20 22  1  0
 14  5  1  0
M  END
>  <energy_score>  (723) 
-26.276889

>  <inchikey>  (723) 
None

>  <smiles>  (723) 
None

>  <ref_pdb>  (723) 
A0514a

>  <alias>  (723) 
None

>  <HIPPO Pose ID>  (723) 
498367

>  <name>  (723) 
P498367

>  <HIPPO Compound ID>  (723) 
292746

>  <ref_mols>  (723) 
A4331a,A0514a

>  <distance_score>  (723) 
1.275028

>  <inspiration_score>  (723) 
None

$$$$
P498368
     RDKit          3D

 22 23  0  0  0  0  0  0  0  0999 V2000
    9.4556    8.7705   23.0097 C   0  0  0  0  0  0  0  0  0  0  0  0
    8.6250    9.7142   23.6884 O   0  0  0  0  0  0  0  0  0  0  0  0
    9.2024   10.9275   23.8492 C   0  0  0  0  0  0  0  0  0  0  0  0
   10.3485   11.2138   23.5495 O   0  0  0  0  0  0  0  0  0  0  0  0
    8.2412   11.8672   24.4814 C   0  0  0  0  0  0  0  0  0  0  0  0
    7.1483   11.3679   25.1908 C   0  0  0  0  0  0  0  0  0  0  0  0
    6.3107   12.2551   25.8615 C   0  0  0  0  0  0  0  0  0  0  0  0
    5.2343   11.7295   26.7771 C   0  0  0  0  0  0  0  0  0  0  0  0
    5.4862   12.0201   28.0845 F   0  0  0  0  0  0  0  0  0  0  0  0
    5.1058   10.3700   26.7378 F   0  0  0  0  0  0  0  0  0  0  0  0
    3.9901   12.2257   26.5283 F   0  0  0  0  0  0  0  0  0  0  0  0
    6.4768   13.5960   25.7976 N   0  0  0  0  0  0  0  0  0  0  0  0
    7.5259   14.0481   25.0904 C   0  0  0  0  0  0  0  0  0  0  0  0
    8.4792   13.2470   24.4747 C   0  0  0  0  0  0  0  0  0  0  0  0
    9.7386   13.8152   24.1860 N   0  0  0  0  0  0  0  0  0  0  0  0
   10.6847   13.4923   25.1851 N   0  0  0  0  0  0  0  0  0  0  0  0
   10.2020   14.2433   22.9017 C   0  0  0  0  0  0  0  0  0  0  0  0
   11.5736   14.3696   22.6789 C   0  0  0  0  0  0  0  0  0  0  0  0
   11.9816   14.9534   21.5110 C   0  0  0  0  0  0  0  0  0  0  0  0
   11.1205   15.4012   20.6029 N   0  0  0  0  0  0  0  0  0  0  0  0
    9.8282   15.2049   20.8800 C   0  0  0  0  0  0  0  0  0  0  0  0
    9.3107   14.6269   21.9765 N   0  0  0  0  0  0  0  0  0  0  0  0
  1  2  1  0
  2  3  1  0
  3  4  2  0
  3  5  1  0
  5  6  2  0
  6  7  1  0
  7  8  1  0
  8  9  1  0
  8 10  1  0
  8 11  1  0
  7 12  2  0
 12 13  1  0
 13 14  2  0
 14 15  1  0
 15 16  1  0
 15 17  1  0
 17 18  2  0
 18 19  1  0
 19 20  2  0
 20 21  1  0
 21 22  2  0
 14  5  1  0
 22 17  1  0
M  END
>  <energy_score>  (724) 
-23.305939

>  <inchikey>  (724) 
None

>  <smiles>  (724) 
None

>  <ref_pdb>  (724) 
A0514a

>  <alias>  (724) 
None

>  <HIPPO Pose ID>  (724) 
498368

>  <name>  (724) 
P498368

>  <HIPPO Compound ID>  (724) 
292747

>  <ref_mols>  (724) 
A4331a,A0514a

>  <distance_score>  (724) 
1.929509

>  <inspiration_score>  (724) 
None

$$$$
P498369
     RDKit          3D

 22 23  0  0  0  0  0  0  0  0999 V2000
    9.4701    8.7973   23.0248 C   0  0  0  0  0  0  0  0  0  0  0  0
    8.5967    9.7309   23.6622 O   0  0  0  0  0  0  0  0  0  0  0  0
    9.1724   10.9259   23.9221 C   0  0  0  0  0  0  0  0  0  0  0  0
   10.3398   11.2119   23.7255 O   0  0  0  0  0  0  0  0  0  0  0  0
    8.1780   11.8498   24.5212 C   0  0  0  0  0  0  0  0  0  0  0  0
    7.1241   11.2980   25.2580 C   0  0  0  0  0  0  0  0  0  0  0  0
    6.2541   12.1381   25.9477 C   0  0  0  0  0  0  0  0  0  0  0  0
    5.2256   11.5671   26.8893 C   0  0  0  0  0  0  0  0  0  0  0  0
    5.5413   11.8239   28.1901 F   0  0  0  0  0  0  0  0  0  0  0  0
    3.9684   12.0638   26.7198 F   0  0  0  0  0  0  0  0  0  0  0  0
    5.1081   10.2104   26.8135 F   0  0  0  0  0  0  0  0  0  0  0  0
    6.3583   13.4826   25.8938 N   0  0  0  0  0  0  0  0  0  0  0  0
    7.3554   13.9841   25.1535 C   0  0  0  0  0  0  0  0  0  0  0  0
    8.3353   13.2416   24.4938 C   0  0  0  0  0  0  0  0  0  0  0  0
    9.4864   13.9557   24.1122 N   0  0  0  0  0  0  0  0  0  0  0  0
   10.5219   13.8174   25.0756 N   0  0  0  0  0  0  0  0  0  0  0  0
    9.8994   13.9404   22.6794 C   0  0  2  0  0  0  0  0  0  0  0  0
   11.3284   14.5045   22.5384 C   0  0  0  0  0  0  0  0  0  0  0  0
   11.6814   14.9507   21.1393 C   0  0  0  0  0  0  0  0  0  0  0  0
   10.5423   15.7146   20.4962 C   0  0  0  0  0  0  0  0  0  0  0  0
    9.3526   14.9426   20.5153 O   0  0  0  0  0  0  0  0  0  0  0  0
    8.8695   14.6760   21.8144 C   0  0  0  0  0  0  0  0  0  0  0  0
  1  2  1  0
  2  3  1  0
  3  4  2  0
  3  5  1  0
  5  6  2  0
  6  7  1  0
  7  8  1  0
  8  9  1  0
  8 10  1  0
  8 11  1  0
  7 12  2  0
 12 13  1  0
 13 14  2  0
 14 15  1  0
 15 16  1  0
 17 15  1  1
 17 18  1  0
 18 19  1  0
 19 20  1  0
 20 21  1  0
 21 22  1  0
 14  5  1  0
 22 17  1  0
M  END
>  <energy_score>  (725) 
-37.883867

>  <inchikey>  (725) 
None

>  <smiles>  (725) 
None

>  <ref_pdb>  (725) 
A0514a

>  <alias>  (725) 
None

>  <HIPPO Pose ID>  (725) 
498369

>  <name>  (725) 
P498369

>  <HIPPO Compound ID>  (725) 
292748

>  <ref_mols>  (725) 
A4331a,A0514a

>  <distance_score>  (725) 
1.969857

>  <inspiration_score>  (725) 
None

$$$$
P498370
     RDKit          3D

 22 23  0  0  0  0  0  0  0  0999 V2000
    9.4435    8.7348   22.9534 C   0  0  0  0  0  0  0  0  0  0  0  0
    8.5391    9.6323   23.5941 O   0  0  0  0  0  0  0  0  0  0  0  0
    9.0775   10.8453   23.8544 C   0  0  0  0  0  0  0  0  0  0  0  0
   10.2176   11.1837   23.6019 O   0  0  0  0  0  0  0  0  0  0  0  0
    8.1198   11.6879   24.5914 C   0  0  0  0  0  0  0  0  0  0  0  0
    7.3067   11.0165   25.5196 C   0  0  0  0  0  0  0  0  0  0  0  0
    6.4566   11.7323   26.3517 C   0  0  0  0  0  0  0  0  0  0  0  0
    5.4913   11.0147   27.2575 C   0  0  0  0  0  0  0  0  0  0  0  0
    4.3638   11.7306   27.5242 F   0  0  0  0  0  0  0  0  0  0  0  0
    5.0621    9.8277   26.7440 F   0  0  0  0  0  0  0  0  0  0  0  0
    6.0333   10.7052   28.4722 F   0  0  0  0  0  0  0  0  0  0  0  0
    6.4734   13.0721   26.3886 N   0  0  0  0  0  0  0  0  0  0  0  0
    7.1745   13.6738   25.4139 C   0  0  0  0  0  0  0  0  0  0  0  0
    7.9909   13.0681   24.4384 C   0  0  0  0  0  0  0  0  0  0  0  0
    8.4090   13.8790   23.3810 N   0  0  0  0  0  0  0  0  0  0  0  0
    7.3661   14.7016   22.9195 N   0  0  0  0  0  0  0  0  0  0  0  0
    9.7113   13.8393   22.6634 C   0  0  1  0  0  0  0  0  0  0  0  0
    9.7166   14.8083   21.4667 C   0  0  0  0  0  0  0  0  0  0  0  0
   11.0771   15.0129   20.8361 C   0  0  0  0  0  0  0  0  0  0  0  0
   12.2198   14.7489   21.7923 C   0  0  0  0  0  0  0  0  0  0  0  0
   11.8466   15.0313   23.1387 O   0  0  0  0  0  0  0  0  0  0  0  0
   10.8922   14.0882   23.6218 C   0  0  0  0  0  0  0  0  0  0  0  0
  1  2  1  0
  2  3  1  0
  3  4  2  0
  3  5  1  0
  5  6  2  0
  6  7  1  0
  7  8  1  0
  8  9  1  0
  8 10  1  0
  8 11  1  0
  7 12  2  0
 12 13  1  0
 13 14  2  0
 14 15  1  0
 15 16  1  0
 17 15  1  1
 17 18  1  0
 18 19  1  0
 19 20  1  0
 20 21  1  0
 21 22  1  0
 14  5  1  0
 22 17  1  0
M  END
>  <energy_score>  (726) 
-20.965274

>  <inchikey>  (726) 
None

>  <smiles>  (726) 
None

>  <ref_pdb>  (726) 
A0514a

>  <alias>  (726) 
None

>  <HIPPO Pose ID>  (726) 
498370

>  <name>  (726) 
P498370

>  <HIPPO Compound ID>  (726) 
292748

>  <ref_mols>  (726) 
A4331a,A0514a

>  <distance_score>  (726) 
1.764521

>  <inspiration_score>  (726) 
None

$$$$
P498371
     RDKit          3D

 22 23  0  0  0  0  0  0  0  0999 V2000
    9.3433    8.8344   23.1069 C   0  0  0  0  0  0  0  0  0  0  0  0
    8.5106    9.7473   23.8312 O   0  0  0  0  0  0  0  0  0  0  0  0
    9.0507   10.9846   23.9559 C   0  0  0  0  0  0  0  0  0  0  0  0
   10.1739   11.2939   23.6039 O   0  0  0  0  0  0  0  0  0  0  0  0
    8.0685   11.9124   24.5774 C   0  0  0  0  0  0  0  0  0  0  0  0
    7.0168   11.4131   25.3483 C   0  0  0  0  0  0  0  0  0  0  0  0
    6.1636   12.3082   25.9969 C   0  0  0  0  0  0  0  0  0  0  0  0
    5.1729   11.8196   27.0223 C   0  0  0  0  0  0  0  0  0  0  0  0
    5.0187   10.4718   27.0124 F   0  0  0  0  0  0  0  0  0  0  0  0
    5.5619   12.1152   28.2984 F   0  0  0  0  0  0  0  0  0  0  0  0
    3.9156   12.3263   26.8825 F   0  0  0  0  0  0  0  0  0  0  0  0
    6.2508   13.6456   25.8267 N   0  0  0  0  0  0  0  0  0  0  0  0
    7.2486   14.0956   25.0566 C   0  0  0  0  0  0  0  0  0  0  0  0
    8.2447   13.2984   24.5041 C   0  0  0  0  0  0  0  0  0  0  0  0
    9.5015   13.8999   24.2838 N   0  0  0  0  0  0  0  0  0  0  0  0
   10.2719   13.9857   25.4785 N   0  0  0  0  0  0  0  0  0  0  0  0
   10.1121   14.1585   23.0268 C   0  0  0  0  0  0  0  0  0  0  0  0
   11.5103   14.1231   22.9204 C   0  0  0  0  0  0  0  0  0  0  0  0
   12.2112   14.5556   21.8564 N   0  0  0  0  0  0  0  0  0  0  0  0
   11.4488   14.9742   20.8325 C   0  0  0  0  0  0  0  0  0  0  0  0
   10.0667   15.0089   20.9047 C   0  0  0  0  0  0  0  0  0  0  0  0
    9.3637   14.5851   21.9856 N   0  0  0  0  0  0  0  0  0  0  0  0
  1  2  1  0
  2  3  1  0
  3  4  2  0
  3  5  1  0
  5  6  2  0
  6  7  1  0
  7  8  1  0
  8  9  1  0
  8 10  1  0
  8 11  1  0
  7 12  2  0
 12 13  1  0
 13 14  2  0
 14 15  1  0
 15 16  1  0
 15 17  1  0
 17 18  2  0
 18 19  1  0
 19 20  2  0
 20 21  1  0
 21 22  2  0
 14  5  1  0
 22 17  1  0
M  END
>  <energy_score>  (727) 
-6.565343

>  <inchikey>  (727) 
None

>  <smiles>  (727) 
None

>  <ref_pdb>  (727) 
A0514a

>  <alias>  (727) 
None

>  <HIPPO Pose ID>  (727) 
498371

>  <name>  (727) 
P498371

>  <HIPPO Compound ID>  (727) 
292752

>  <ref_mols>  (727) 
A4331a,A0514a

>  <distance_score>  (727) 
1.550656

>  <inspiration_score>  (727) 
None

$$$$
P498372
     RDKit          3D

 22 23  0  0  0  0  0  0  0  0999 V2000
    9.5426    8.7937   22.9875 C   0  0  0  0  0  0  0  0  0  0  0  0
    8.6797    9.7062   23.6645 O   0  0  0  0  0  0  0  0  0  0  0  0
    9.2067   10.9410   23.8350 C   0  0  0  0  0  0  0  0  0  0  0  0
   10.3214   11.2927   23.4953 O   0  0  0  0  0  0  0  0  0  0  0  0
    8.2384   11.8056   24.5540 C   0  0  0  0  0  0  0  0  0  0  0  0
    7.2018   11.2050   25.2701 C   0  0  0  0  0  0  0  0  0  0  0  0
    6.3711   11.9916   26.0594 C   0  0  0  0  0  0  0  0  0  0  0  0
    5.4077   11.3186   27.0050 C   0  0  0  0  0  0  0  0  0  0  0  0
    4.2394   11.9929   27.1772 F   0  0  0  0  0  0  0  0  0  0  0  0
    5.9347   11.1584   28.2557 F   0  0  0  0  0  0  0  0  0  0  0  0
    5.0590   10.0607   26.6080 F   0  0  0  0  0  0  0  0  0  0  0  0
    6.4782   13.3380   26.1039 N   0  0  0  0  0  0  0  0  0  0  0  0
    7.4700   13.8920   25.3849 C   0  0  0  0  0  0  0  0  0  0  0  0
    8.4209   13.1900   24.6504 C   0  0  0  0  0  0  0  0  0  0  0  0
    9.6184   13.8611   24.3325 N   0  0  0  0  0  0  0  0  0  0  0  0
   10.6843   13.5171   25.2279 N   0  0  0  0  0  0  0  0  0  0  0  0
   10.0645   14.2629   23.0432 C   0  0  0  0  0  0  0  0  0  0  0  0
    9.1889   14.4891   22.0603 N   0  0  0  0  0  0  0  0  0  0  0  0
    9.7174   14.9769   20.9246 C   0  0  0  0  0  0  0  0  0  0  0  0
   11.0573   15.1668   20.6987 C   0  0  0  0  0  0  0  0  0  0  0  0
   11.8730   14.9221   21.7642 C   0  0  0  0  0  0  0  0  0  0  0  0
   11.4034   14.5106   22.9498 N   0  0  0  0  0  0  0  0  0  0  0  0
  1  2  1  0
  2  3  1  0
  3  4  2  0
  3  5  1  0
  5  6  2  0
  6  7  1  0
  7  8  1  0
  8  9  1  0
  8 10  1  0
  8 11  1  0
  7 12  2  0
 12 13  1  0
 13 14  2  0
 14 15  1  0
 15 16  1  0
 15 17  1  0
 17 18  2  0
 18 19  1  0
 19 20  2  0
 20 21  1  0
 21 22  2  0
 14  5  1  0
 22 17  1  0
M  END
>  <energy_score>  (728) 
-50.928504

>  <inchikey>  (728) 
None

>  <smiles>  (728) 
None

>  <ref_pdb>  (728) 
A0514a

>  <alias>  (728) 
None

>  <HIPPO Pose ID>  (728) 
498372

>  <name>  (728) 
P498372

>  <HIPPO Compound ID>  (728) 
292753

>  <ref_mols>  (728) 
A4331a,A0514a

>  <distance_score>  (728) 
1.876526

>  <inspiration_score>  (728) 
None

$$$$
P498373
     RDKit          3D

 22 23  0  0  0  0  0  0  0  0999 V2000
    9.6249    8.7092   22.9403 C   0  0  0  0  0  0  0  0  0  0  0  0
    8.8902    9.6198   23.7494 O   0  0  0  0  0  0  0  0  0  0  0  0
    9.2432   10.9201   23.6174 C   0  0  0  0  0  0  0  0  0  0  0  0
   10.1263   11.3482   22.9042 O   0  0  0  0  0  0  0  0  0  0  0  0
    8.4283   11.7488   24.5288 C   0  0  0  0  0  0  0  0  0  0  0  0
    7.4675   11.1173   25.3418 C   0  0  0  0  0  0  0  0  0  0  0  0
    6.6947   11.8817   26.2025 C   0  0  0  0  0  0  0  0  0  0  0  0
    5.6069   11.2298   27.0243 C   0  0  0  0  0  0  0  0  0  0  0  0
    4.4870   11.9915   27.1572 F   0  0  0  0  0  0  0  0  0  0  0  0
    5.1894   10.0412   26.5016 F   0  0  0  0  0  0  0  0  0  0  0  0
    6.0138   10.9382   28.2944 F   0  0  0  0  0  0  0  0  0  0  0  0
    6.9114   13.2115   26.3490 N   0  0  0  0  0  0  0  0  0  0  0  0
    7.7851   13.8058   25.5024 C   0  0  0  0  0  0  0  0  0  0  0  0
    8.5759   13.1432   24.5682 C   0  0  0  0  0  0  0  0  0  0  0  0
    9.0098   13.9401   23.4682 N   0  0  0  0  0  0  0  0  0  0  0  0
   10.3659   14.1613   23.2839 N   0  0  0  0  0  0  0  0  0  0  0  0
   10.7411   14.7180   22.1598 C   0  0  0  0  0  0  0  0  0  0  0  0
   12.1936   14.8278   21.8090 C   0  0  0  0  0  0  0  0  0  0  0  0
    9.8276   15.3213   21.1409 C   0  0  0  0  0  0  0  0  0  0  0  0
    8.3865   15.0946   21.4339 C   0  0  0  0  0  0  0  0  0  0  0  0
    8.1241   14.0098   22.4059 C   0  0  0  0  0  0  0  0  0  0  0  0
    7.1326   13.2902   22.2805 O   0  0  0  0  0  0  0  0  0  0  0  0
  1  2  1  0
  2  3  1  0
  3  4  2  0
  3  5  1  0
  5  6  2  0
  6  7  1  0
  7  8  1  0
  8  9  1  0
  8 10  1  0
  8 11  1  0
  7 12  2  0
 12 13  1  0
 13 14  2  0
 14 15  1  0
 15 16  1  0
 16 17  2  0
 17 18  1  0
 17 19  1  0
 19 20  1  0
 20 21  1  0
 21 22  2  0
 14  5  1  0
 21 15  1  0
M  END
>  <energy_score>  (729) 
-11.809037

>  <inchikey>  (729) 
None

>  <smiles>  (729) 
None

>  <ref_pdb>  (729) 
A0514a

>  <alias>  (729) 
None

>  <HIPPO Pose ID>  (729) 
498373

>  <name>  (729) 
P498373

>  <HIPPO Compound ID>  (729) 
292755

>  <ref_mols>  (729) 
A4331a,A0514a

>  <distance_score>  (729) 
1.996724

>  <inspiration_score>  (729) 
None

$$$$
P498374
     RDKit          3D

 22 24  0  0  0  0  0  0  0  0999 V2000
    5.2099   15.8173   25.0366 C   0  0  0  0  0  0  0  0  0  0  0  0
    6.5259   15.3813   24.6924 O   0  0  0  0  0  0  0  0  0  0  0  0
    6.5990   14.8420   23.4511 C   0  0  0  0  0  0  0  0  0  0  0  0
    5.6688   14.6688   22.6789 O   0  0  0  0  0  0  0  0  0  0  0  0
    8.0022   14.5689   23.0761 C   0  0  0  0  0  0  0  0  0  0  0  0
    8.3183   14.9724   21.7909 C   0  0  0  0  0  0  0  0  0  0  0  0
    9.6262   14.9257   21.3382 C   0  0  0  0  0  0  0  0  0  0  0  0
    9.8698   15.3932   19.9521 C   0  0  0  0  0  0  0  0  0  0  0  0
   11.2347   15.5040   19.3915 C   0  0  0  0  0  0  0  0  0  0  0  0
   10.3949   16.7433   19.7072 C   0  0  0  0  0  0  0  0  0  0  0  0
   10.6337   14.4979   22.1355 N   0  0  0  0  0  0  0  0  0  0  0  0
   10.3107   14.0668   23.3682 C   0  0  0  0  0  0  0  0  0  0  0  0
    9.0154   14.0644   23.8939 C   0  0  0  0  0  0  0  0  0  0  0  0
    8.7974   13.5482   25.1972 N   0  0  0  0  0  0  0  0  0  0  0  0
    8.7428   14.5787   26.1852 N   0  0  0  0  0  0  0  0  0  0  0  0
    7.9151   12.4248   25.3974 C   0  0  0  0  0  0  0  0  0  0  0  0
    6.8331   12.5228   26.2984 C   0  0  0  0  0  0  0  0  0  0  0  0
    5.9771   11.4520   26.5406 C   0  0  0  0  0  0  0  0  0  0  0  0
    6.1927   10.2449   25.8980 C   0  0  0  0  0  0  0  0  0  0  0  0
    7.2561   10.1110   25.0108 C   0  0  0  0  0  0  0  0  0  0  0  0
    8.1275   11.1821   24.7504 C   0  0  0  0  0  0  0  0  0  0  0  0
    9.2371   10.9201   23.7703 C   0  0  0  0  0  0  0  0  0  0  0  0
  1  2  1  0
  2  3  1  0
  3  4  2  0
  3  5  1  0
  5  6  2  0
  6  7  1  0
  7  8  1  0
  8  9  1  0
  9 10  1  0
  7 11  2  0
 11 12  1  0
 12 13  2  0
 13 14  1  0
 14 15  1  0
 14 16  1  0
 16 17  2  0
 17 18  1  0
 18 19  2  0
 19 20  1  0
 20 21  2  0
 21 22  1  0
 13  5  1  0
 21 16  1  0
 10  8  1  0
M  END
>  <energy_score>  (730) 
-38.104207

>  <inchikey>  (730) 
None

>  <smiles>  (730) 
None

>  <ref_pdb>  (730) 
A0514a

>  <alias>  (730) 
None

>  <HIPPO Pose ID>  (730) 
498374

>  <name>  (730) 
P498374

>  <HIPPO Compound ID>  (730) 
292757

>  <ref_mols>  (730) 
A4331a,A0514a

>  <distance_score>  (730) 
1.665558

>  <inspiration_score>  (730) 
None

$$$$
P498375
     RDKit          3D

 22 24  0  0  0  0  0  0  0  0999 V2000
    9.3682    8.7292   23.0055 C   0  0  0  0  0  0  0  0  0  0  0  0
    8.5313    9.6241   23.7427 O   0  0  0  0  0  0  0  0  0  0  0  0
    9.0281   10.8800   23.8256 C   0  0  0  0  0  0  0  0  0  0  0  0
   10.0881   11.2632   23.3691 O   0  0  0  0  0  0  0  0  0  0  0  0
    8.1435   11.7329   24.6411 C   0  0  0  0  0  0  0  0  0  0  0  0
    7.3302   11.1615   25.6183 C   0  0  0  0  0  0  0  0  0  0  0  0
    6.5750   11.9789   26.4508 C   0  0  0  0  0  0  0  0  0  0  0  0
    5.5591   11.4048   27.4010 C   0  0  0  0  0  0  0  0  0  0  0  0
    5.3953   12.0029   28.7759 C   0  0  0  0  0  0  0  0  0  0  0  0
    4.3406   12.2407   27.7393 C   0  0  0  0  0  0  0  0  0  0  0  0
    6.7131   13.3199   26.4185 N   0  0  0  0  0  0  0  0  0  0  0  0
    7.4263   13.8452   25.4136 C   0  0  0  0  0  0  0  0  0  0  0  0
    8.1003   13.1115   24.4477 C   0  0  0  0  0  0  0  0  0  0  0  0
    8.2913   13.7050   23.1796 N   0  0  0  0  0  0  0  0  0  0  0  0
    7.0740   13.9418   22.4970 N   0  0  0  0  0  0  0  0  0  0  0  0
    9.5082   14.2193   22.6292 C   0  0  0  0  0  0  0  0  0  0  0  0
    9.4766   14.7779   21.3548 C   0  0  0  0  0  0  0  0  0  0  0  0
   10.6596   15.1807   20.7807 C   0  0  0  0  0  0  0  0  0  0  0  0
   10.6484   15.7780   19.4050 C   0  0  0  0  0  0  0  0  0  0  0  0
   11.8259   15.0728   21.4346 N   0  0  0  0  0  0  0  0  0  0  0  0
   11.7596   14.5320   22.6576 C   0  0  0  0  0  0  0  0  0  0  0  0
   10.6567   14.1568   23.3292 N   0  0  0  0  0  0  0  0  0  0  0  0
  1  2  1  0
  2  3  1  0
  3  4  2  0
  3  5  1  0
  5  6  2  0
  6  7  1  0
  7  8  1  0
  8  9  1  0
  9 10  1  0
  7 11  2  0
 11 12  1  0
 12 13  2  0
 13 14  1  0
 14 15  1  0
 14 16  1  0
 16 17  2  0
 17 18  1  0
 18 19  1  0
 18 20  2  0
 20 21  1  0
 21 22  2  0
 13  5  1  0
 22 16  1  0
 10  8  1  0
M  END
>  <energy_score>  (731) 
-30.33089

>  <inchikey>  (731) 
None

>  <smiles>  (731) 
None

>  <ref_pdb>  (731) 
A0514a

>  <alias>  (731) 
None

>  <HIPPO Pose ID>  (731) 
498375

>  <name>  (731) 
P498375

>  <HIPPO Compound ID>  (731) 
292760

>  <ref_mols>  (731) 
A4331a,A0514a

>  <distance_score>  (731) 
1.929211

>  <inspiration_score>  (731) 
None

$$$$
P498376
     RDKit          3D

 22 24  0  0  0  0  0  0  0  0999 V2000
    9.1584    8.4383   22.9425 C   0  0  0  0  0  0  0  0  0  0  0  0
    8.2549    9.2033   23.7452 O   0  0  0  0  0  0  0  0  0  0  0  0
    8.8144   10.3601   24.1650 C   0  0  0  0  0  0  0  0  0  0  0  0
    9.9623   10.6756   23.9219 O   0  0  0  0  0  0  0  0  0  0  0  0
    7.8308   11.1955   24.9088 C   0  0  0  0  0  0  0  0  0  0  0  0
    6.8172   10.5116   25.6022 C   0  0  0  0  0  0  0  0  0  0  0  0
    5.9342   11.2193   26.4024 C   0  0  0  0  0  0  0  0  0  0  0  0
    5.0024   10.5623   27.3741 C   0  0  0  0  0  0  0  0  0  0  0  0
    5.1346   10.9231   28.8369 C   0  0  0  0  0  0  0  0  0  0  0  0
    3.9448   11.4036   28.0673 C   0  0  0  0  0  0  0  0  0  0  0  0
    5.9474   12.5617   26.4200 N   0  0  0  0  0  0  0  0  0  0  0  0
    6.9024   13.2006   25.7384 C   0  0  0  0  0  0  0  0  0  0  0  0
    7.9404   12.5963   25.0360 C   0  0  0  0  0  0  0  0  0  0  0  0
    9.0259   13.3970   24.6243 N   0  0  0  0  0  0  0  0  0  0  0  0
    9.2891   14.5943   25.3439 N   0  0  0  0  0  0  0  0  0  0  0  0
    9.4459   13.3143   23.2094 C   0  0  0  0  0  0  0  0  0  0  0  0
   10.9699   13.1956   23.1302 C   0  0  0  0  0  0  0  0  0  0  0  0
   11.7967   14.4553   23.0501 C   0  0  0  0  0  0  0  0  0  0  0  0
   11.9196   15.0456   21.6604 C   0  0  0  0  0  0  0  0  0  0  0  0
   10.6461   15.5672   21.0176 C   0  0  0  0  0  0  0  0  0  0  0  0
    9.4702   14.6214   21.0398 C   0  0  0  0  0  0  0  0  0  0  0  0
    8.7494   14.3552   22.3444 C   0  0  0  0  0  0  0  0  0  0  0  0
  1  2  1  0
  2  3  1  0
  3  4  2  0
  3  5  1  0
  5  6  2  0
  6  7  1  0
  7  8  1  0
  8  9  1  0
  9 10  1  0
  7 11  2  0
 11 12  1  0
 12 13  2  0
 13 14  1  0
 14 15  1  0
 14 16  1  0
 16 17  1  0
 17 18  1  0
 18 19  1  0
 19 20  1  0
 20 21  1  0
 21 22  1  0
 13  5  1  0
 22 16  1  0
 10  8  1  0
M  END
>  <energy_score>  (732) 
-32.867641

>  <inchikey>  (732) 
None

>  <smiles>  (732) 
None

>  <ref_pdb>  (732) 
A0514a

>  <alias>  (732) 
None

>  <HIPPO Pose ID>  (732) 
498376

>  <name>  (732) 
P498376

>  <HIPPO Compound ID>  (732) 
292762

>  <ref_mols>  (732) 
A4331a,A0514a

>  <distance_score>  (732) 
1.952735

>  <inspiration_score>  (732) 
None

$$$$
P498377
     RDKit          3D

 22 23  0  0  0  0  0  0  0  0999 V2000
   12.2702   15.1117   20.9660 C   0  0  0  0  0  0  0  0  0  0  0  0
   11.0177   15.0378   20.1085 C   0  0  0  0  0  0  0  0  0  0  0  0
    9.5289   15.1946   21.0801 S   0  0  0  0  0  0  0  0  0  0  0  0
    8.4173   14.4366   20.5587 O   0  0  0  0  0  0  0  0  0  0  0  0
    9.3473   16.6007   21.3271 O   0  0  0  0  0  0  0  0  0  0  0  0
    9.9626   14.3194   22.5397 C   0  0  0  0  0  0  0  0  0  0  0  0
    8.7524   13.9603   23.3593 C   0  0  0  0  0  0  0  0  0  0  0  0
    9.1690   12.9965   24.4102 N   0  0  0  0  0  0  0  0  0  0  0  0
   10.2809   13.3503   25.2198 N   0  0  0  0  0  0  0  0  0  0  0  0
    8.0407   12.5610   25.1382 C   0  0  0  0  0  0  0  0  0  0  0  0
    7.3429   13.4645   25.9324 C   0  0  0  0  0  0  0  0  0  0  0  0
    6.3034   13.1589   26.7195 N   0  0  0  0  0  0  0  0  0  0  0  0
    5.8548   11.8891   26.7333 C   0  0  0  0  0  0  0  0  0  0  0  0
    4.7115   11.5755   27.6490 C   0  0  0  0  0  0  0  0  0  0  0  0
    3.4566   12.4106   27.5653 C   0  0  0  0  0  0  0  0  0  0  0  0
    4.3645   12.5591   28.7476 C   0  0  0  0  0  0  0  0  0  0  0  0
    6.4564   10.9205   25.9541 C   0  0  0  0  0  0  0  0  0  0  0  0
    7.5673   11.2467   25.1587 C   0  0  0  0  0  0  0  0  0  0  0  0
    8.1548   10.0843   24.4648 C   0  0  0  0  0  0  0  0  0  0  0  0
    7.7691    8.9589   24.7515 O   0  0  0  0  0  0  0  0  0  0  0  0
    9.0916   10.3720   23.5409 O   0  0  0  0  0  0  0  0  0  0  0  0
    9.6533    9.1945   22.9545 C   0  0  0  0  0  0  0  0  0  0  0  0
  1  2  1  0
  2  3  1  0
  3  4  2  0
  3  5  2  0
  3  6  1  0
  6  7  1  0
  7  8  1  0
  8  9  1  0
  8 10  1  0
 10 11  2  0
 11 12  1  0
 12 13  2  0
 13 14  1  0
 14 15  1  0
 15 16  1  0
 13 17  1  0
 17 18  2  0
 18 19  1  0
 19 20  2  0
 19 21  1  0
 21 22  1  0
 18 10  1  0
 16 14  1  0
M  END
>  <energy_score>  (733) 
-32.637617

>  <inchikey>  (733) 
None

>  <smiles>  (733) 
None

>  <ref_pdb>  (733) 
A0514a

>  <alias>  (733) 
None

>  <HIPPO Pose ID>  (733) 
498377

>  <name>  (733) 
P498377

>  <HIPPO Compound ID>  (733) 
292764

>  <ref_mols>  (733) 
A4331a,A0514a

>  <distance_score>  (733) 
1.456875

>  <inspiration_score>  (733) 
None

$$$$
P498378
     RDKit          3D

 22 23  0  0  0  0  0  0  0  0999 V2000
    9.3151    8.5248   23.3321 C   0  0  0  0  0  0  0  0  0  0  0  0
    8.5685    9.3554   24.2302 O   0  0  0  0  0  0  0  0  0  0  0  0
    8.6675   10.6667   23.9262 C   0  0  0  0  0  0  0  0  0  0  0  0
    9.2611   11.1260   22.9655 O   0  0  0  0  0  0  0  0  0  0  0  0
    7.9504   11.5154   24.9015 C   0  0  0  0  0  0  0  0  0  0  0  0
    6.8231   11.0494   25.5838 C   0  0  0  0  0  0  0  0  0  0  0  0
    6.1491   11.9353   26.4197 C   0  0  0  0  0  0  0  0  0  0  0  0
    4.9036   11.6105   27.1697 C   0  0  0  0  0  0  0  0  0  0  0  0
    4.8393   10.5442   28.2191 C   0  0  0  0  0  0  0  0  0  0  0  0
    4.8680   11.9828   28.6381 C   0  0  0  0  0  0  0  0  0  0  0  0
    6.5674   13.2064   26.6014 N   0  0  0  0  0  0  0  0  0  0  0  0
    7.6488   13.6284   25.9419 C   0  0  0  0  0  0  0  0  0  0  0  0
    8.3935   12.8327   25.0904 C   0  0  0  0  0  0  0  0  0  0  0  0
    9.5331   13.3536   24.4355 N   0  0  0  0  0  0  0  0  0  0  0  0
   10.4657   14.0322   25.2734 N   0  0  0  0  0  0  0  0  0  0  0  0
    9.0785   14.0817   23.2202 C   0  0  0  0  0  0  0  0  0  0  0  0
   10.2485   14.3376   22.2653 C   0  0  2  0  0  0  0  0  0  0  0  0
   11.3372   15.0490   22.9237 O   0  0  0  0  0  0  0  0  0  0  0  0
    9.7001   15.0764   21.0515 C   0  0  0  0  0  0  0  0  0  0  0  0
   10.6230   15.1089   20.0719 F   0  0  0  0  0  0  0  0  0  0  0  0
    8.5769   14.4823   20.5984 F   0  0  0  0  0  0  0  0  0  0  0  0
    9.3807   16.3512   21.3325 F   0  0  0  0  0  0  0  0  0  0  0  0
  1  2  1  0
  2  3  1  0
  3  4  2  0
  3  5  1  0
  5  6  2  0
  6  7  1  0
  7  8  1  0
  8  9  1  0
  9 10  1  0
  7 11  2  0
 11 12  1  0
 12 13  2  0
 13 14  1  0
 14 15  1  0
 14 16  1  0
 16 17  1  0
 17 18  1  1
 17 19  1  0
 19 20  1  0
 19 21  1  0
 19 22  1  0
 13  5  1  0
 10  8  1  0
M  END
>  <energy_score>  (734) 
-43.449734

>  <inchikey>  (734) 
None

>  <smiles>  (734) 
None

>  <ref_pdb>  (734) 
A0514a

>  <alias>  (734) 
None

>  <HIPPO Pose ID>  (734) 
498378

>  <name>  (734) 
P498378

>  <HIPPO Compound ID>  (734) 
292771

>  <ref_mols>  (734) 
A4331a,A0514a

>  <distance_score>  (734) 
1.530477

>  <inspiration_score>  (734) 
None

$$$$
P498379
     RDKit          3D

 22 23  0  0  0  0  0  0  0  0999 V2000
    9.4324    8.4993   23.0720 C   0  0  0  0  0  0  0  0  0  0  0  0
    8.6925    9.3190   23.9778 O   0  0  0  0  0  0  0  0  0  0  0  0
    8.8720   10.6450   23.8069 C   0  0  0  0  0  0  0  0  0  0  0  0
    9.5951   11.1687   22.9776 O   0  0  0  0  0  0  0  0  0  0  0  0
    8.0436   11.4126   24.7652 C   0  0  0  0  0  0  0  0  0  0  0  0
    6.9988   10.7949   25.4664 C   0  0  0  0  0  0  0  0  0  0  0  0
    6.2518   11.5482   26.3636 C   0  0  0  0  0  0  0  0  0  0  0  0
    5.2182   10.9454   27.2730 C   0  0  0  0  0  0  0  0  0  0  0  0
    4.0278   11.7732   27.7123 C   0  0  0  0  0  0  0  0  0  0  0  0
    5.1272   11.4897   28.6864 C   0  0  0  0  0  0  0  0  0  0  0  0
    6.4836   12.8716   26.5257 N   0  0  0  0  0  0  0  0  0  0  0  0
    7.4712   13.4501   25.8314 C   0  0  0  0  0  0  0  0  0  0  0  0
    8.3216   12.7712   24.9736 C   0  0  0  0  0  0  0  0  0  0  0  0
    9.4324   13.4356   24.3798 N   0  0  0  0  0  0  0  0  0  0  0  0
   10.1847   14.2297   25.2990 N   0  0  0  0  0  0  0  0  0  0  0  0
    8.9626   14.0937   23.1350 C   0  0  0  0  0  0  0  0  0  0  0  0
   10.0199   14.2933   22.0432 C   0  0  1  0  0  0  0  0  0  0  0  0
    9.6444   15.4483   21.2490 O   0  0  0  0  0  0  0  0  0  0  0  0
   11.4820   14.3076   22.4708 C   0  0  0  0  0  0  0  0  0  0  0  0
   11.9178   13.1408   22.9899 F   0  0  0  0  0  0  0  0  0  0  0  0
   11.7442   15.2489   23.4033 F   0  0  0  0  0  0  0  0  0  0  0  0
   12.2820   14.6003   21.4164 F   0  0  0  0  0  0  0  0  0  0  0  0
  1  2  1  0
  2  3  1  0
  3  4  2  0
  3  5  1  0
  5  6  2  0
  6  7  1  0
  7  8  1  0
  8  9  1  0
  9 10  1  0
  7 11  2  0
 11 12  1  0
 12 13  2  0
 13 14  1  0
 14 15  1  0
 14 16  1  0
 16 17  1  0
 17 18  1  1
 17 19  1  0
 19 20  1  0
 19 21  1  0
 19 22  1  0
 13  5  1  0
 10  8  1  0
M  END
>  <energy_score>  (735) 
-35.864621

>  <inchikey>  (735) 
None

>  <smiles>  (735) 
None

>  <ref_pdb>  (735) 
A0514a

>  <alias>  (735) 
None

>  <HIPPO Pose ID>  (735) 
498379

>  <name>  (735) 
P498379

>  <HIPPO Compound ID>  (735) 
292771

>  <ref_mols>  (735) 
A4331a,A0514a

>  <distance_score>  (735) 
1.558641

>  <inspiration_score>  (735) 
None

$$$$
P498380
     RDKit          3D

 22 23  0  0  0  0  0  0  0  0999 V2000
    9.3765    8.5399   23.1098 C   0  0  0  0  0  0  0  0  0  0  0  0
    8.5720    9.2966   24.0180 O   0  0  0  0  0  0  0  0  0  0  0  0
    8.6770   10.6393   23.8811 C   0  0  0  0  0  0  0  0  0  0  0  0
    9.3922   11.2029   23.0731 O   0  0  0  0  0  0  0  0  0  0  0  0
    7.8093   11.3348   24.8663 C   0  0  0  0  0  0  0  0  0  0  0  0
    6.8446   10.6261   25.5942 C   0  0  0  0  0  0  0  0  0  0  0  0
    6.1082   11.2933   26.5638 C   0  0  0  0  0  0  0  0  0  0  0  0
    5.0668   10.6279   27.4116 C   0  0  0  0  0  0  0  0  0  0  0  0
    5.0035   10.9586   28.8849 C   0  0  0  0  0  0  0  0  0  0  0  0
    3.9431   11.4854   27.9690 C   0  0  0  0  0  0  0  0  0  0  0  0
    6.3335   12.5956   26.8347 N   0  0  0  0  0  0  0  0  0  0  0  0
    7.2309   13.2641   26.1061 C   0  0  0  0  0  0  0  0  0  0  0  0
    7.9807   12.7082   25.0864 C   0  0  0  0  0  0  0  0  0  0  0  0
    8.8908   13.4925   24.3706 N   0  0  0  0  0  0  0  0  0  0  0  0
   10.0213   13.9174   25.1532 N   0  0  0  0  0  0  0  0  0  0  0  0
    8.3263   14.4572   23.3339 C   0  0  0  0  0  0  0  0  0  0  0  0
    7.5321   15.5912   24.0030 C   0  0  0  0  0  0  0  0  0  0  0  0
    7.3080   13.8058   22.4256 C   0  0  0  0  0  0  0  0  0  0  0  0
    9.5302   14.8483   22.3921 C   0  0  0  0  0  0  0  0  0  0  0  0
   10.7136   14.7578   22.7254 O   0  0  0  0  0  0  0  0  0  0  0  0
    9.1173   15.3402   21.1923 O   0  0  0  0  0  0  0  0  0  0  0  0
   10.1677   15.8255   20.3506 C   0  0  0  0  0  0  0  0  0  0  0  0
  1  2  1  0
  2  3  1  0
  3  4  2  0
  3  5  1  0
  5  6  2  0
  6  7  1  0
  7  8  1  0
  8  9  1  0
  9 10  1  0
  7 11  2  0
 11 12  1  0
 12 13  2  0
 13 14  1  0
 14 15  1  0
 14 16  1  0
 16 17  1  0
 16 18  1  0
 16 19  1  0
 19 20  2  0
 19 21  1  0
 21 22  1  0
 13  5  1  0
 10  8  1  0
M  END
>  <energy_score>  (736) 
-56.012674

>  <inchikey>  (736) 
None

>  <smiles>  (736) 
None

>  <ref_pdb>  (736) 
A0514a

>  <alias>  (736) 
None

>  <HIPPO Pose ID>  (736) 
498380

>  <name>  (736) 
P498380

>  <HIPPO Compound ID>  (736) 
292772

>  <ref_mols>  (736) 
A4331a,A0514a

>  <distance_score>  (736) 
1.674406

>  <inspiration_score>  (736) 
None

$$$$
P498381
     RDKit          3D

 22 24  0  0  0  0  0  0  0  0999 V2000
    9.5316    8.7199   23.0160 C   0  0  0  0  0  0  0  0  0  0  0  0
    8.6295    9.5744   23.7139 O   0  0  0  0  0  0  0  0  0  0  0  0
    9.1067   10.8301   23.8885 C   0  0  0  0  0  0  0  0  0  0  0  0
   10.2282   11.2076   23.6114 O   0  0  0  0  0  0  0  0  0  0  0  0
    8.0389   11.6752   24.4613 C   0  0  0  0  0  0  0  0  0  0  0  0
    7.0843   11.0892   25.2972 C   0  0  0  0  0  0  0  0  0  0  0  0
    6.1456   11.8898   25.9349 C   0  0  0  0  0  0  0  0  0  0  0  0
    5.2707   11.3473   27.0298 C   0  0  0  0  0  0  0  0  0  0  0  0
    5.4941   11.8407   28.4410 C   0  0  0  0  0  0  0  0  0  0  0  0
    4.2611   12.2556   27.7020 C   0  0  0  0  0  0  0  0  0  0  0  0
    6.0356   13.1974   25.6362 N   0  0  0  0  0  0  0  0  0  0  0  0
    6.9250   13.7299   24.7870 C   0  0  0  0  0  0  0  0  0  0  0  0
    8.0478   13.0634   24.3102 C   0  0  0  0  0  0  0  0  0  0  0  0
    9.2735   13.7797   24.2730 N   0  0  0  0  0  0  0  0  0  0  0  0
    9.5314   14.5035   25.4861 N   0  0  0  0  0  0  0  0  0  0  0  0
   10.1235   14.1073   23.1690 C   0  0  0  0  0  0  0  0  0  0  0  0
   11.4850   14.1337   23.4452 C   0  0  0  0  0  0  0  0  0  0  0  0
   12.3093   14.6483   22.4876 C   0  0  0  0  0  0  0  0  0  0  0  0
   11.8727   15.1311   21.3361 N   0  0  0  0  0  0  0  0  0  0  0  0
   10.5552   15.0459   21.1254 C   0  0  0  0  0  0  0  0  0  0  0  0
   10.0926   15.7058   19.8784 C   0  0  0  0  0  0  0  0  0  0  0  0
    9.6380   14.5295   21.9881 N   0  0  0  0  0  0  0  0  0  0  0  0
  1  2  1  0
  2  3  1  0
  3  4  2  0
  3  5  1  0
  5  6  2  0
  6  7  1  0
  7  8  1  0
  8  9  1  0
  9 10  1  0
  7 11  2  0
 11 12  1  0
 12 13  2  0
 13 14  1  0
 14 15  1  0
 14 16  1  0
 16 17  2  0
 17 18  1  0
 18 19  2  0
 19 20  1  0
 20 21  1  0
 20 22  2  0
 13  5  1  0
 22 16  1  0
 10  8  1  0
M  END
>  <energy_score>  (737) 
-9.337431

>  <inchikey>  (737) 
None

>  <smiles>  (737) 
None

>  <ref_pdb>  (737) 
A0514a

>  <alias>  (737) 
None

>  <HIPPO Pose ID>  (737) 
498381

>  <name>  (737) 
P498381

>  <HIPPO Compound ID>  (737) 
292773

>  <ref_mols>  (737) 
A4331a,A0514a

>  <distance_score>  (737) 
1.523071

>  <inspiration_score>  (737) 
None

$$$$
P498382
     RDKit          3D

 22 24  0  0  0  0  0  0  0  0999 V2000
    9.3957    8.7018   23.0546 C   0  0  0  0  0  0  0  0  0  0  0  0
    8.5265    9.4464   23.9134 O   0  0  0  0  0  0  0  0  0  0  0  0
    8.8602   10.7523   24.0444 C   0  0  0  0  0  0  0  0  0  0  0  0
    9.8205   11.2838   23.5149 O   0  0  0  0  0  0  0  0  0  0  0  0
    7.8959   11.4528   24.9427 C   0  0  0  0  0  0  0  0  0  0  0  0
    6.9175   10.7194   25.6270 C   0  0  0  0  0  0  0  0  0  0  0  0
    6.0795   11.3757   26.5192 C   0  0  0  0  0  0  0  0  0  0  0  0
    5.0834   10.6589   27.3793 C   0  0  0  0  0  0  0  0  0  0  0  0
    5.0707   10.9518   28.8618 C   0  0  0  0  0  0  0  0  0  0  0  0
    3.9530   11.4572   28.0039 C   0  0  0  0  0  0  0  0  0  0  0  0
    6.1687   12.7096   26.7117 N   0  0  0  0  0  0  0  0  0  0  0  0
    7.0758   13.4049   26.0266 C   0  0  0  0  0  0  0  0  0  0  0  0
    7.9922   12.8400   25.1566 C   0  0  0  0  0  0  0  0  0  0  0  0
    8.8783   13.7021   24.4827 N   0  0  0  0  0  0  0  0  0  0  0  0
    8.3832   13.9512   23.1259 C   0  0  0  0  0  0  0  0  0  0  0  0
    9.4789   14.4171   22.2396 C   0  0  0  0  0  0  0  0  0  0  0  0
    9.2393   14.9236   21.0717 N   0  0  0  0  0  0  0  0  0  0  0  0
   10.4686   15.2436   20.5546 N   0  0  0  0  0  0  0  0  0  0  0  0
   10.5715   15.8511   19.2495 C   0  0  0  0  0  0  0  0  0  0  0  0
   11.5259   15.0449   21.4413 C   0  0  0  0  0  0  0  0  0  0  0  0
   12.6902   15.3850   21.3636 O   0  0  0  0  0  0  0  0  0  0  0  0
   10.9258   14.3087   22.5885 C   0  0  0  0  0  0  0  0  0  0  0  0
  1  2  1  0
  2  3  1  0
  3  4  2  0
  3  5  1  0
  5  6  2  0
  6  7  1  0
  7  8  1  0
  8  9  1  0
  9 10  1  0
  7 11  2  0
 11 12  1  0
 12 13  2  0
 13 14  1  0
 14 15  1  0
 15 16  1  0
 16 17  2  0
 17 18  1  0
 18 19  1  0
 18 20  1  0
 20 21  2  0
 20 22  1  0
 13  5  1  0
 22 16  1  0
 10  8  1  0
M  END
>  <energy_score>  (738) 
-26.447253

>  <inchikey>  (738) 
None

>  <smiles>  (738) 
None

>  <ref_pdb>  (738) 
A0514a

>  <alias>  (738) 
None

>  <HIPPO Pose ID>  (738) 
498382

>  <name>  (738) 
P498382

>  <HIPPO Compound ID>  (738) 
292775

>  <ref_mols>  (738) 
A4331a,A0514a

>  <distance_score>  (738) 
1.559596

>  <inspiration_score>  (738) 
None

$$$$
P498383
     RDKit          3D

 22 23  0  0  0  0  0  0  0  0999 V2000
    9.4297    8.7568   23.0847 C   0  0  0  0  0  0  0  0  0  0  0  0
    8.4713    9.4532   23.8860 O   0  0  0  0  0  0  0  0  0  0  0  0
    8.8000   10.7441   24.1332 C   0  0  0  0  0  0  0  0  0  0  0  0
    9.8223   11.2891   23.7608 O   0  0  0  0  0  0  0  0  0  0  0  0
    7.7174   11.4040   24.9121 C   0  0  0  0  0  0  0  0  0  0  0  0
    6.8150   10.6098   25.6338 C   0  0  0  0  0  0  0  0  0  0  0  0
    5.8617   11.2238   26.4339 C   0  0  0  0  0  0  0  0  0  0  0  0
    5.0862   10.4869   27.4824 C   0  0  0  0  0  0  0  0  0  0  0  0
    3.9056   11.1414   28.1676 C   0  0  0  0  0  0  0  0  0  0  0  0
    5.2060   11.0165   28.8992 C   0  0  0  0  0  0  0  0  0  0  0  0
    5.6850   12.5583   26.4087 N   0  0  0  0  0  0  0  0  0  0  0  0
    6.5413   13.3002   25.7024 C   0  0  0  0  0  0  0  0  0  0  0  0
    7.6356   12.8021   25.0105 C   0  0  0  0  0  0  0  0  0  0  0  0
    8.6206   13.6909   24.5273 N   0  0  0  0  0  0  0  0  0  0  0  0
    8.8790   14.8372   25.3392 N   0  0  0  0  0  0  0  0  0  0  0  0
    8.4774   13.9284   23.0708 C   0  0  0  0  0  0  0  0  0  0  0  0
    9.8417   14.1771   22.4556 C   0  0  0  0  0  0  0  0  0  0  0  0
    9.7319   14.4805   21.0657 O   0  0  0  0  0  0  0  0  0  0  0  0
   10.7430   15.3890   20.5710 C   0  0  0  0  0  0  0  0  0  0  0  0
   11.0249   15.0964   19.0936 C   0  0  0  0  0  0  0  0  0  0  0  0
   12.0850   15.2385   21.3224 C   0  0  0  0  0  0  0  0  0  0  0  0
   10.0905   16.7761   20.6176 C   0  0  0  0  0  0  0  0  0  0  0  0
  1  2  1  0
  2  3  1  0
  3  4  2  0
  3  5  1  0
  5  6  2  0
  6  7  1  0
  7  8  1  0
  8  9  1  0
  9 10  1  0
  7 11  2  0
 11 12  1  0
 12 13  2  0
 13 14  1  0
 14 15  1  0
 14 16  1  0
 16 17  1  0
 17 18  1  0
 18 19  1  0
 19 20  1  0
 19 21  1  0
 19 22  1  0
 13  5  1  0
 10  8  1  0
M  END
>  <energy_score>  (739) 
-30.113254

>  <inchikey>  (739) 
None

>  <smiles>  (739) 
None

>  <ref_pdb>  (739) 
A0514a

>  <alias>  (739) 
None

>  <HIPPO Pose ID>  (739) 
498383

>  <name>  (739) 
P498383

>  <HIPPO Compound ID>  (739) 
292779

>  <ref_mols>  (739) 
A4331a,A0514a

>  <distance_score>  (739) 
1.540045

>  <inspiration_score>  (739) 
None

$$$$
P498384
     RDKit          3D

 22 24  0  0  0  0  0  0  0  0999 V2000
    9.3304    8.8067   23.0687 C   0  0  0  0  0  0  0  0  0  0  0  0
    8.4952    9.7648   23.7239 O   0  0  0  0  0  0  0  0  0  0  0  0
    9.1215   10.9418   23.9602 C   0  0  0  0  0  0  0  0  0  0  0  0
   10.2992   11.1659   23.7546 O   0  0  0  0  0  0  0  0  0  0  0  0
    8.1708   11.9217   24.5241 C   0  0  0  0  0  0  0  0  0  0  0  0
    7.2683   11.4496   25.4859 C   0  0  0  0  0  0  0  0  0  0  0  0
    6.4920   12.3528   26.2015 C   0  0  0  0  0  0  0  0  0  0  0  0
    5.7970   11.9946   27.4778 C   0  0  0  0  0  0  0  0  0  0  0  0
    4.8887   10.8159   27.6250 C   0  0  0  0  0  0  0  0  0  0  0  0
    4.3067   12.2003   27.5397 C   0  0  0  0  0  0  0  0  0  0  0  0
    6.4428   13.6490   25.8600 N   0  0  0  0  0  0  0  0  0  0  0  0
    7.2813   14.0747   24.9044 C   0  0  0  0  0  0  0  0  0  0  0  0
    8.2681   13.3003   24.2968 C   0  0  0  0  0  0  0  0  0  0  0  0
    9.4267   14.0099   23.8982 N   0  0  0  0  0  0  0  0  0  0  0  0
   10.3000   14.1703   25.0232 N   0  0  0  0  0  0  0  0  0  0  0  0
   10.0403   13.7538   22.5545 C   0  0  2  0  0  0  0  0  0  0  0  0
   11.5590   13.6273   22.5993 C   0  0  0  0  0  0  0  0  0  0  0  0
   12.2059   14.9601   22.4120 C   0  0  0  0  0  0  0  0  0  0  0  0
   11.9453   15.4152   21.1142 O   0  0  0  0  0  0  0  0  0  0  0  0
   10.5826   15.6554   20.8008 C   0  0  1  0  0  0  0  0  0  0  0  0
   10.5295   15.5539   19.2797 C   0  0  0  0  0  0  0  0  0  0  0  0
    9.5397   14.7704   21.5159 C   0  0  0  0  0  0  0  0  0  0  0  0
  1  2  1  0
  2  3  1  0
  3  4  2  0
  3  5  1  0
  5  6  2  0
  6  7  1  0
  7  8  1  0
  8  9  1  0
  9 10  1  0
  7 11  2  0
 11 12  1  0
 12 13  2  0
 13 14  1  0
 14 15  1  0
 16 14  1  1
 16 17  1  0
 17 18  1  0
 18 19  1  0
 19 20  1  0
 20 21  1  6
 20 22  1  0
 13  5  1  0
 22 16  1  0
 10  8  1  0
M  END
>  <energy_score>  (740) 
-22.579431

>  <inchikey>  (740) 
None

>  <smiles>  (740) 
None

>  <ref_pdb>  (740) 
A0514a

>  <alias>  (740) 
None

>  <HIPPO Pose ID>  (740) 
498384

>  <name>  (740) 
P498384

>  <HIPPO Compound ID>  (740) 
292781

>  <ref_mols>  (740) 
A4331a,A0514a

>  <distance_score>  (740) 
1.797568

>  <inspiration_score>  (740) 
None

$$$$
P498385
     RDKit          3D

 22 24  0  0  0  0  0  0  0  0999 V2000
    9.0496    8.5855   23.0607 C   0  0  0  0  0  0  0  0  0  0  0  0
    8.2168    9.4855   23.8028 O   0  0  0  0  0  0  0  0  0  0  0  0
    8.8360   10.6649   24.0089 C   0  0  0  0  0  0  0  0  0  0  0  0
   10.0009   10.9081   23.7445 O   0  0  0  0  0  0  0  0  0  0  0  0
    7.9879   11.6454   24.6996 C   0  0  0  0  0  0  0  0  0  0  0  0
    7.2670   11.2726   25.8257 C   0  0  0  0  0  0  0  0  0  0  0  0
    6.6900   12.2607   26.6208 C   0  0  0  0  0  0  0  0  0  0  0  0
    5.8874   11.9567   27.8468 C   0  0  0  0  0  0  0  0  0  0  0  0
    4.8179   10.9066   27.8823 C   0  0  0  0  0  0  0  0  0  0  0  0
    4.4288   12.3544   27.8099 C   0  0  0  0  0  0  0  0  0  0  0  0
    6.8508   13.5697   26.3511 N   0  0  0  0  0  0  0  0  0  0  0  0
    7.4429   13.8873   25.1929 C   0  0  0  0  0  0  0  0  0  0  0  0
    8.0060   12.9798   24.3042 C   0  0  0  0  0  0  0  0  0  0  0  0
    8.2580   13.3478   22.9634 N   0  0  0  0  0  0  0  0  0  0  0  0
    7.0391   13.7292   22.3339 N   0  0  0  0  0  0  0  0  0  0  0  0
    9.4496   14.2404   22.7602 C   0  0  1  0  0  0  0  0  0  0  0  0
   10.7431   13.4473   22.8279 C   0  0  0  0  0  0  0  0  0  0  0  0
   11.9632   14.1790   22.3168 C   0  0  0  0  0  0  0  0  0  0  0  0
   11.6842   15.5168   21.9747 O   0  0  0  0  0  0  0  0  0  0  0  0
   10.6634   15.6517   20.9838 C   0  0  1  0  0  0  0  0  0  0  0  0
   11.1240   15.1625   19.6184 C   0  0  0  0  0  0  0  0  0  0  0  0
    9.3538   15.0125   21.4377 C   0  0  0  0  0  0  0  0  0  0  0  0
  1  2  1  0
  2  3  1  0
  3  4  2  0
  3  5  1  0
  5  6  2  0
  6  7  1  0
  7  8  1  0
  8  9  1  0
  9 10  1  0
  7 11  2  0
 11 12  1  0
 12 13  2  0
 13 14  1  0
 14 15  1  0
 16 14  1  6
 16 17  1  0
 17 18  1  0
 18 19  1  0
 19 20  1  0
 20 21  1  6
 20 22  1  0
 13  5  1  0
 22 16  1  0
 10  8  1  0
M  END
>  <energy_score>  (741) 
-24.735891

>  <inchikey>  (741) 
None

>  <smiles>  (741) 
None

>  <ref_pdb>  (741) 
A0514a

>  <alias>  (741) 
None

>  <HIPPO Pose ID>  (741) 
498385

>  <name>  (741) 
P498385

>  <HIPPO Compound ID>  (741) 
292781

>  <ref_mols>  (741) 
A4331a,A0514a

>  <distance_score>  (741) 
1.966393

>  <inspiration_score>  (741) 
None

$$$$
P498386
     RDKit          3D

 22 24  0  0  0  0  0  0  0  0999 V2000
    9.5944    8.9007   23.0559 C   0  0  0  0  0  0  0  0  0  0  0  0
    8.6577    9.7823   23.6734 O   0  0  0  0  0  0  0  0  0  0  0  0
    9.1218   11.0388   23.8752 C   0  0  0  0  0  0  0  0  0  0  0  0
   10.2476   11.4289   23.6394 O   0  0  0  0  0  0  0  0  0  0  0  0
    8.0409   11.8614   24.4619 C   0  0  0  0  0  0  0  0  0  0  0  0
    7.1071   11.2123   25.2818 C   0  0  0  0  0  0  0  0  0  0  0  0
    6.1551   11.9476   25.9767 C   0  0  0  0  0  0  0  0  0  0  0  0
    5.3369   11.3235   27.0742 C   0  0  0  0  0  0  0  0  0  0  0  0
    4.1458   12.0468   27.6601 C   0  0  0  0  0  0  0  0  0  0  0  0
    5.4204   11.9719   28.4426 C   0  0  0  0  0  0  0  0  0  0  0  0
    6.0150   13.2690   25.7680 N   0  0  0  0  0  0  0  0  0  0  0  0
    6.8906   13.8690   24.9499 C   0  0  0  0  0  0  0  0  0  0  0  0
    8.0049   13.2554   24.3789 C   0  0  0  0  0  0  0  0  0  0  0  0
    9.1391   14.0937   24.2324 N   0  0  0  0  0  0  0  0  0  0  0  0
    9.7100   14.4202   25.5251 N   0  0  0  0  0  0  0  0  0  0  0  0
   10.0711   14.1905   23.1579 C   0  0  0  0  0  0  0  0  0  0  0  0
   11.3768   14.1961   23.5336 N   0  0  0  0  0  0  0  0  0  0  0  0
   12.2750   14.5161   22.6009 C   0  0  0  0  0  0  0  0  0  0  0  0
   11.9604   14.9196   21.3441 C   0  0  0  0  0  0  0  0  0  0  0  0
   10.6192   14.9567   21.0630 C   0  0  0  0  0  0  0  0  0  0  0  0
   10.2021   15.6245   19.7949 C   0  0  0  0  0  0  0  0  0  0  0  0
    9.6547   14.5445   21.9297 N   0  0  0  0  0  0  0  0  0  0  0  0
  1  2  1  0
  2  3  1  0
  3  4  2  0
  3  5  1  0
  5  6  2  0
  6  7  1  0
  7  8  1  0
  8  9  1  0
  9 10  1  0
  7 11  2  0
 11 12  1  0
 12 13  2  0
 13 14  1  0
 14 15  1  0
 14 16  1  0
 16 17  2  0
 17 18  1  0
 18 19  2  0
 19 20  1  0
 20 21  1  0
 20 22  2  0
 13  5  1  0
 22 16  1  0
 10  8  1  0
M  END
>  <energy_score>  (742) 
-29.240685

>  <inchikey>  (742) 
None

>  <smiles>  (742) 
None

>  <ref_pdb>  (742) 
A0514a

>  <alias>  (742) 
None

>  <HIPPO Pose ID>  (742) 
498386

>  <name>  (742) 
P498386

>  <HIPPO Compound ID>  (742) 
292785

>  <ref_mols>  (742) 
A4331a,A0514a

>  <distance_score>  (742) 
1.783584

>  <inspiration_score>  (742) 
None

$$$$
P498387
     RDKit          3D

 22 24  0  0  0  0  0  0  0  0999 V2000
   10.4570   16.1665   19.0087 C   0  0  0  0  0  0  0  0  0  0  0  0
   10.2375   16.0548   20.5145 C   0  0  0  0  0  0  0  0  0  0  0  0
    9.7945   14.6567   20.8230 C   0  0  0  0  0  0  0  0  0  0  0  0
    9.9641   14.1403   22.1836 C   0  0  0  0  0  0  0  0  0  0  0  0
    9.0663   13.4114   22.7713 N   0  0  0  0  0  0  0  0  0  0  0  0
    9.5921   13.0732   23.9989 N   0  0  0  0  0  0  0  0  0  0  0  0
    8.5692   12.7564   24.9102 C   0  0  0  0  0  0  0  0  0  0  0  0
    8.0330   13.7771   25.6767 C   0  0  0  0  0  0  0  0  0  0  0  0
    6.9212   13.6622   26.4293 N   0  0  0  0  0  0  0  0  0  0  0  0
    6.2370   12.5000   26.4023 C   0  0  0  0  0  0  0  0  0  0  0  0
    4.9271   12.4451   27.1167 C   0  0  0  0  0  0  0  0  0  0  0  0
    4.7879   11.6915   28.4102 C   0  0  0  0  0  0  0  0  0  0  0  0
    4.7763   13.1922   28.4201 C   0  0  0  0  0  0  0  0  0  0  0  0
    6.7215   11.4110   25.7084 C   0  0  0  0  0  0  0  0  0  0  0  0
    7.8972   11.5281   24.9528 C   0  0  0  0  0  0  0  0  0  0  0  0
    8.3062   10.2503   24.3338 C   0  0  0  0  0  0  0  0  0  0  0  0
    7.7132    9.2170   24.6185 O   0  0  0  0  0  0  0  0  0  0  0  0
    9.3642   10.3448   23.5099 O   0  0  0  0  0  0  0  0  0  0  0  0
    9.7410    9.0883   22.9392 C   0  0  0  0  0  0  0  0  0  0  0  0
   10.7628   13.8233   24.2561 C   0  0  0  0  0  0  0  0  0  0  0  0
   11.3301   14.1188   25.2910 O   0  0  0  0  0  0  0  0  0  0  0  0
   11.2309   14.2833   22.9286 C   0  0  0  0  0  0  0  0  0  0  0  0
  1  2  1  0
  2  3  1  0
  3  4  1  0
  4  5  2  0
  5  6  1  0
  6  7  1  0
  7  8  2  0
  8  9  1  0
  9 10  2  0
 10 11  1  0
 11 12  1  0
 12 13  1  0
 10 14  1  0
 14 15  2  0
 15 16  1  0
 16 17  2  0
 16 18  1  0
 18 19  1  0
  6 20  1  0
 20 21  2  0
 20 22  1  0
 22  4  1  0
 15  7  1  0
 13 11  1  0
M  END
>  <energy_score>  (743) 
-19.329584

>  <inchikey>  (743) 
None

>  <smiles>  (743) 
None

>  <ref_pdb>  (743) 
A0514a

>  <alias>  (743) 
None

>  <HIPPO Pose ID>  (743) 
498387

>  <name>  (743) 
P498387

>  <HIPPO Compound ID>  (743) 
292787

>  <ref_mols>  (743) 
A4331a,A0514a

>  <distance_score>  (743) 
1.708299

>  <inspiration_score>  (743) 
None

$$$$
P498388
     RDKit          3D

 22 23  0  0  0  0  0  0  0  0999 V2000
    9.6033    8.1814   23.3667 C   0  0  0  0  0  0  0  0  0  0  0  0
    8.7316    8.9210   24.2155 O   0  0  0  0  0  0  0  0  0  0  0  0
    8.7414   10.2009   23.8055 C   0  0  0  0  0  0  0  0  0  0  0  0
    9.2980   10.5896   22.7934 O   0  0  0  0  0  0  0  0  0  0  0  0
    8.0497   11.1005   24.7430 C   0  0  0  0  0  0  0  0  0  0  0  0
    6.9298   10.6739   25.4588 C   0  0  0  0  0  0  0  0  0  0  0  0
    6.3151   11.5737   26.3206 C   0  0  0  0  0  0  0  0  0  0  0  0
    5.1743   11.1903   27.2235 C   0  0  0  0  0  0  0  0  0  0  0  0
    4.0330   12.1629   27.4360 C   0  0  0  0  0  0  0  0  0  0  0  0
    5.0185   11.9342   28.5377 C   0  0  0  0  0  0  0  0  0  0  0  0
    6.7618   12.8484   26.4353 N   0  0  0  0  0  0  0  0  0  0  0  0
    7.8378   13.2323   25.7311 C   0  0  0  0  0  0  0  0  0  0  0  0
    8.5601   12.3958   24.9056 C   0  0  0  0  0  0  0  0  0  0  0  0
    9.7555   12.8082   24.3001 N   0  0  0  0  0  0  0  0  0  0  0  0
   10.7768   13.3675   25.0990 N   0  0  0  0  0  0  0  0  0  0  0  0
    9.6159   13.1676   22.8613 C   0  0  0  0  0  0  0  0  0  0  0  0
    9.5976   14.6435   22.6683 C   0  0  0  0  0  0  0  0  0  0  0  0
    8.5692   15.1057   23.4432 F   0  0  0  0  0  0  0  0  0  0  0  0
   10.7644   15.1276   23.1860 F   0  0  0  0  0  0  0  0  0  0  0  0
    9.4256   15.1102   21.2479 C   0  0  0  0  0  0  0  0  0  0  0  0
   10.4882   14.7257   20.5014 F   0  0  0  0  0  0  0  0  0  0  0  0
    8.3230   14.5151   20.7201 F   0  0  0  0  0  0  0  0  0  0  0  0
  1  2  1  0
  2  3  1  0
  3  4  2  0
  3  5  1  0
  5  6  2  0
  6  7  1  0
  7  8  1  0
  8  9  1  0
  9 10  1  0
  7 11  2  0
 11 12  1  0
 12 13  2  0
 13 14  1  0
 14 15  1  0
 14 16  1  0
 16 17  1  0
 17 18  1  0
 17 19  1  0
 17 20  1  0
 20 21  1  0
 20 22  1  0
 13  5  1  0
 10  8  1  0
M  END
>  <energy_score>  (744) 
-34.500699

>  <inchikey>  (744) 
None

>  <smiles>  (744) 
None

>  <ref_pdb>  (744) 
A0514a

>  <alias>  (744) 
None

>  <HIPPO Pose ID>  (744) 
498388

>  <name>  (744) 
P498388

>  <HIPPO Compound ID>  (744) 
292789

>  <ref_mols>  (744) 
A4331a,A0514a

>  <distance_score>  (744) 
1.231598

>  <inspiration_score>  (744) 
None

$$$$
P498389
     RDKit          3D

 22 24  0  0  0  0  0  0  0  0999 V2000
    9.5807    8.0314   23.3591 C   0  0  0  0  0  0  0  0  0  0  0  0
    8.6723    8.7477   24.1865 O   0  0  0  0  0  0  0  0  0  0  0  0
    8.5915    9.9796   23.6669 C   0  0  0  0  0  0  0  0  0  0  0  0
    9.0616   10.2777   22.5834 O   0  0  0  0  0  0  0  0  0  0  0  0
    7.9820   10.9609   24.5627 C   0  0  0  0  0  0  0  0  0  0  0  0
    6.9490   10.5890   25.4270 C   0  0  0  0  0  0  0  0  0  0  0  0
    6.4497   11.5415   26.2980 C   0  0  0  0  0  0  0  0  0  0  0  0
    5.3286   11.2600   27.2616 C   0  0  0  0  0  0  0  0  0  0  0  0
    4.1743   12.2353   27.3528 C   0  0  0  0  0  0  0  0  0  0  0  0
    5.1613   12.1577   28.4743 C   0  0  0  0  0  0  0  0  0  0  0  0
    7.0010   12.7758   26.3512 N   0  0  0  0  0  0  0  0  0  0  0  0
    7.9839   13.0998   25.4869 C   0  0  0  0  0  0  0  0  0  0  0  0
    8.5116   12.2644   24.5246 C   0  0  0  0  0  0  0  0  0  0  0  0
    9.5168   12.6459   23.6232 N   0  0  0  0  0  0  0  0  0  0  0  0
   10.7241   11.8679   23.6664 N   0  0  0  0  0  0  0  0  0  0  0  0
    9.6448   13.9910   22.9671 C   0  0  0  0  0  0  0  0  0  0  0  0
    8.3087   14.7569   23.0575 C   0  0  0  0  0  0  0  0  0  0  0  0
    9.9013   13.9339   21.4473 C   0  0  0  0  0  0  0  0  0  0  0  0
   10.8625   14.9953   20.8972 C   0  0  0  0  0  0  0  0  0  0  0  0
   12.1540   14.9594   21.5071 O   0  0  0  0  0  0  0  0  0  0  0  0
   12.1784   14.2047   22.7132 C   0  0  0  0  0  0  0  0  0  0  0  0
   10.9494   14.5596   23.5319 C   0  0  0  0  0  0  0  0  0  0  0  0
  1  2  1  0
  2  3  1  0
  3  4  2  0
  3  5  1  0
  5  6  2  0
  6  7  1  0
  7  8  1  0
  8  9  1  0
  9 10  1  0
  7 11  2  0
 11 12  1  0
 12 13  2  0
 13 14  1  0
 14 15  1  0
 14 16  1  0
 16 17  1  0
 16 18  1  0
 18 19  1  0
 19 20  1  0
 20 21  1  0
 21 22  1  0
 13  5  1  0
 22 16  1  0
 10  8  1  0
M  END
>  <energy_score>  (745) 
-5.345422

>  <inchikey>  (745) 
None

>  <smiles>  (745) 
None

>  <ref_pdb>  (745) 
A0514a

>  <alias>  (745) 
None

>  <HIPPO Pose ID>  (745) 
498389

>  <name>  (745) 
P498389

>  <HIPPO Compound ID>  (745) 
292790

>  <ref_mols>  (745) 
A4331a,A0514a

>  <distance_score>  (745) 
1.450673

>  <inspiration_score>  (745) 
None

$$$$
P498390
     RDKit          3D

 22 24  0  0  0  0  0  0  0  0999 V2000
    5.6300   15.5295   22.8512 C   0  0  0  0  0  0  0  0  0  0  0  0
    7.0503   15.4168   22.9201 O   0  0  0  0  0  0  0  0  0  0  0  0
    7.5382   14.2729   22.3926 C   0  0  0  0  0  0  0  0  0  0  0  0
    6.9208   13.3406   21.9184 O   0  0  0  0  0  0  0  0  0  0  0  0
    8.9880   14.3603   22.4172 C   0  0  0  0  0  0  0  0  0  0  0  0
    9.5474   14.9737   21.3019 C   0  0  0  0  0  0  0  0  0  0  0  0
   10.9208   15.0125   21.1747 C   0  0  0  0  0  0  0  0  0  0  0  0
   11.6336   15.3473   19.9178 C   0  0  0  0  0  0  0  0  0  0  0  0
   11.6467   14.6115   18.6257 C   0  0  0  0  0  0  0  0  0  0  0  0
   10.8935   15.8940   18.7053 C   0  0  0  0  0  0  0  0  0  0  0  0
   11.7090   14.7576   22.2433 N   0  0  0  0  0  0  0  0  0  0  0  0
   11.1456   14.1372   23.2860 C   0  0  0  0  0  0  0  0  0  0  0  0
    9.8061   13.7366   23.3483 C   0  0  0  0  0  0  0  0  0  0  0  0
    9.5290   12.4928   23.9329 N   0  0  0  0  0  0  0  0  0  0  0  0
   10.6185   11.5912   23.7219 N   0  0  0  0  0  0  0  0  0  0  0  0
    8.5097   12.1553   24.9563 C   0  0  1  0  0  0  0  0  0  0  0  0
    7.6960   13.3272   25.5159 C   0  0  0  0  0  0  0  0  0  0  0  0
    6.7504   12.9056   26.6439 C   0  0  0  0  0  0  0  0  0  0  0  0
    5.8633   11.7323   26.2596 C   0  0  0  0  0  0  0  0  0  0  0  0
    6.6472   10.5813   25.6546 C   0  0  0  0  0  0  0  0  0  0  0  0
    7.5782   11.0160   24.5187 C   0  0  2  0  0  0  0  0  0  0  0  0
    8.2623    9.7700   23.9640 C   0  0  0  0  0  0  0  0  0  0  0  0
  1  2  1  0
  2  3  1  0
  3  4  2  0
  3  5  1  0
  5  6  2  0
  6  7  1  0
  7  8  1  0
  8  9  1  0
  9 10  1  0
  7 11  2  0
 11 12  1  0
 12 13  2  0
 13 14  1  0
 14 15  1  0
 16 14  1  6
 16 17  1  0
 17 18  1  0
 18 19  1  0
 19 20  1  0
 20 21  1  0
 21 22  1  1
 13  5  1  0
 21 16  1  0
 10  8  1  0
M  END
>  <energy_score>  (746) 
-5.137683

>  <inchikey>  (746) 
None

>  <smiles>  (746) 
None

>  <ref_pdb>  (746) 
A0514a

>  <alias>  (746) 
None

>  <HIPPO Pose ID>  (746) 
498390

>  <name>  (746) 
P498390

>  <HIPPO Compound ID>  (746) 
292791

>  <ref_mols>  (746) 
A4331a,A0514a

>  <distance_score>  (746) 
1.467449

>  <inspiration_score>  (746) 
None

$$$$
P498391
     RDKit          3D

 22 24  0  0  0  0  0  0  0  0999 V2000
    5.5734   15.8647   23.9699 C   0  0  0  0  0  0  0  0  0  0  0  0
    6.9555   15.5556   23.7840 O   0  0  0  0  0  0  0  0  0  0  0  0
    7.1816   14.5976   22.8616 C   0  0  0  0  0  0  0  0  0  0  0  0
    6.3795   13.8959   22.2681 O   0  0  0  0  0  0  0  0  0  0  0  0
    8.5955   14.5408   22.5382 C   0  0  0  0  0  0  0  0  0  0  0  0
    8.8058   15.0813   21.2758 C   0  0  0  0  0  0  0  0  0  0  0  0
   10.0604   15.1888   20.7306 C   0  0  0  0  0  0  0  0  0  0  0  0
   10.1594   15.5037   19.2614 C   0  0  0  0  0  0  0  0  0  0  0  0
   11.5187   15.4937   18.6752 C   0  0  0  0  0  0  0  0  0  0  0  0
   10.6365   16.7422   18.6320 C   0  0  0  0  0  0  0  0  0  0  0  0
   11.1268   14.8418   21.4802 N   0  0  0  0  0  0  0  0  0  0  0  0
   10.8986   14.3230   22.7165 C   0  0  0  0  0  0  0  0  0  0  0  0
    9.6477   14.1078   23.3251 C   0  0  0  0  0  0  0  0  0  0  0  0
    9.5681   13.5708   24.6066 N   0  0  0  0  0  0  0  0  0  0  0  0
   10.5863   14.0167   25.4906 N   0  0  0  0  0  0  0  0  0  0  0  0
    8.5705   12.5834   25.1095 C   0  0  1  0  0  0  0  0  0  0  0  0
    7.3812   13.2570   25.8030 C   0  0  0  0  0  0  0  0  0  0  0  0
    6.5632   12.3060   26.6594 C   0  0  0  0  0  0  0  0  0  0  0  0
    6.2102   11.0172   25.9371 C   0  0  0  0  0  0  0  0  0  0  0  0
    7.3075   10.4259   25.0549 C   0  0  0  0  0  0  0  0  0  0  0  0
    8.1145   11.4401   24.2115 C   0  0  2  0  0  0  0  0  0  0  0  0
    9.2447   10.6871   23.5061 C   0  0  0  0  0  0  0  0  0  0  0  0
  1  2  1  0
  2  3  1  0
  3  4  2  0
  3  5  1  0
  5  6  2  0
  6  7  1  0
  7  8  1  0
  8  9  1  0
  9 10  1  0
  7 11  2  0
 11 12  1  0
 12 13  2  0
 13 14  1  0
 14 15  1  0
 16 14  1  6
 16 17  1  0
 17 18  1  0
 18 19  1  0
 19 20  1  0
 20 21  1  0
 21 22  1  1
 13  5  1  0
 21 16  1  0
 10  8  1  0
M  END
>  <energy_score>  (747) 
-24.896204

>  <inchikey>  (747) 
None

>  <smiles>  (747) 
None

>  <ref_pdb>  (747) 
A0514a

>  <alias>  (747) 
None

>  <HIPPO Pose ID>  (747) 
498391

>  <name>  (747) 
P498391

>  <HIPPO Compound ID>  (747) 
292791

>  <ref_mols>  (747) 
A4331a,A0514a

>  <distance_score>  (747) 
1.238864

>  <inspiration_score>  (747) 
None

$$$$
P498392
     RDKit          3D

 22 24  0  0  0  0  0  0  0  0999 V2000
    6.5810   16.3027   23.4017 C   0  0  0  0  0  0  0  0  0  0  0  0
    6.2869   14.9516   23.1205 O   0  0  0  0  0  0  0  0  0  0  0  0
    7.1932   14.1888   22.4943 C   0  0  0  0  0  0  0  0  0  0  0  0
    6.8408   13.2770   21.7599 O   0  0  0  0  0  0  0  0  0  0  0  0
    8.6349   14.3648   22.6692 C   0  0  0  0  0  0  0  0  0  0  0  0
    9.3079   14.6986   21.4800 C   0  0  0  0  0  0  0  0  0  0  0  0
   10.6921   14.7625   21.4339 C   0  0  0  0  0  0  0  0  0  0  0  0
   11.4647   15.2704   20.2463 C   0  0  0  0  0  0  0  0  0  0  0  0
   11.6400   14.6357   18.9030 C   0  0  0  0  0  0  0  0  0  0  0  0
   10.7518   15.8266   19.0151 C   0  0  0  0  0  0  0  0  0  0  0  0
   11.4022   14.4943   22.5586 N   0  0  0  0  0  0  0  0  0  0  0  0
   10.7271   14.1758   23.6910 C   0  0  0  0  0  0  0  0  0  0  0  0
    9.3358   14.1021   23.8437 C   0  0  0  0  0  0  0  0  0  0  0  0
    8.8187   13.8372   25.1135 N   0  0  0  0  0  0  0  0  0  0  0  0
    8.9253   14.9430   26.0166 N   0  0  0  0  0  0  0  0  0  0  0  0
    7.8758   12.7398   25.4598 C   0  0  1  0  0  0  0  0  0  0  0  0
    6.4059   13.0751   25.3899 C   0  0  0  0  0  0  0  0  0  0  0  0
    5.5737   12.1217   26.2453 C   0  0  0  0  0  0  0  0  0  0  0  0
    6.0589   10.6729   26.2401 C   0  0  0  0  0  0  0  0  0  0  0  0
    7.0550   10.3382   25.1408 C   0  0  0  0  0  0  0  0  0  0  0  0
    8.2398   11.3007   25.0461 C   0  0  1  0  0  0  0  0  0  0  0  0
    9.0177   11.0529   23.7620 C   0  0  0  0  0  0  0  0  0  0  0  0
  1  2  1  0
  2  3  1  0
  3  4  2  0
  3  5  1  0
  5  6  2  0
  6  7  1  0
  7  8  1  0
  8  9  1  0
  9 10  1  0
  7 11  2  0
 11 12  1  0
 12 13  2  0
 13 14  1  0
 14 15  1  0
 16 14  1  6
 16 17  1  0
 17 18  1  0
 18 19  1  0
 19 20  1  0
 20 21  1  0
 21 22  1  6
 13  5  1  0
 21 16  1  0
 10  8  1  0
M  END
>  <energy_score>  (748) 
-4.195345

>  <inchikey>  (748) 
None

>  <smiles>  (748) 
None

>  <ref_pdb>  (748) 
A0514a

>  <alias>  (748) 
None

>  <HIPPO Pose ID>  (748) 
498392

>  <name>  (748) 
P498392

>  <HIPPO Compound ID>  (748) 
292791

>  <ref_mols>  (748) 
A4331a,A0514a

>  <distance_score>  (748) 
1.31019

>  <inspiration_score>  (748) 
None

$$$$
P498393
     RDKit          3D

 22 23  0  0  0  0  0  0  0  0999 V2000
    5.7498   14.6744   22.1601 C   0  0  0  0  0  0  0  0  0  0  0  0
    6.8587   13.7767   22.1649 O   0  0  0  0  0  0  0  0  0  0  0  0
    8.0104   14.4026   22.7561 C   0  0  0  0  0  0  0  0  0  0  0  0
    9.0463   13.3157   23.0782 C   0  0  0  0  0  0  0  0  0  0  0  0
   10.3549   13.5945   22.3324 C   0  0  0  0  0  0  0  0  0  0  0  0
   11.0296   14.7569   22.8376 O   0  0  0  0  0  0  0  0  0  0  0  0
   12.0682   15.1155   21.9363 C   0  0  0  0  0  0  0  0  0  0  0  0
    9.3027   13.0633   24.5347 N   0  0  0  0  0  0  0  0  0  0  0  0
   10.1297   13.9981   25.2384 N   0  0  0  0  0  0  0  0  0  0  0  0
    8.1175   12.6737   25.2017 C   0  0  0  0  0  0  0  0  0  0  0  0
    7.4342   13.6269   25.9563 C   0  0  0  0  0  0  0  0  0  0  0  0
    6.3030   13.4204   26.6406 N   0  0  0  0  0  0  0  0  0  0  0  0
    5.7592   12.1944   26.6035 C   0  0  0  0  0  0  0  0  0  0  0  0
    4.5105   12.0164   27.3946 C   0  0  0  0  0  0  0  0  0  0  0  0
    4.4826   11.1220   28.6006 C   0  0  0  0  0  0  0  0  0  0  0  0
    4.4715   12.6106   28.7851 C   0  0  0  0  0  0  0  0  0  0  0  0
    6.3555   11.1657   25.8974 C   0  0  0  0  0  0  0  0  0  0  0  0
    7.5461   11.3943   25.1862 C   0  0  0  0  0  0  0  0  0  0  0  0
    8.0920   10.1659   24.5608 C   0  0  0  0  0  0  0  0  0  0  0  0
    7.5730    9.0834   24.7974 O   0  0  0  0  0  0  0  0  0  0  0  0
    9.1574   10.3564   23.7599 O   0  0  0  0  0  0  0  0  0  0  0  0
    9.6389    9.1627   23.1307 C   0  0  0  0  0  0  0  0  0  0  0  0
  1  2  1  0
  2  3  1  0
  3  4  1  0
  4  5  1  0
  5  6  1  0
  6  7  1  0
  4  8  1  0
  8  9  1  0
  8 10  1  0
 10 11  2  0
 11 12  1  0
 12 13  2  0
 13 14  1  0
 14 15  1  0
 15 16  1  0
 13 17  1  0
 17 18  2  0
 18 19  1  0
 19 20  2  0
 19 21  1  0
 21 22  1  0
 18 10  1  0
 16 14  1  0
M  END
>  <energy_score>  (749) 
-47.821025

>  <inchikey>  (749) 
None

>  <smiles>  (749) 
None

>  <ref_pdb>  (749) 
A0514a

>  <alias>  (749) 
None

>  <HIPPO Pose ID>  (749) 
498393

>  <name>  (749) 
P498393

>  <HIPPO Compound ID>  (749) 
292792

>  <ref_mols>  (749) 
A4331a,A0514a

>  <distance_score>  (749) 
1.717485

>  <inspiration_score>  (749) 
None

$$$$
P498394
     RDKit          3D

 22 24  0  0  0  0  0  0  0  0999 V2000
   10.5318   15.9573   18.8651 C   0  0  0  0  0  0  0  0  0  0  0  0
   10.6782   15.2771   20.1028 O   0  0  0  0  0  0  0  0  0  0  0  0
    9.4910   15.3341   20.8744 C   0  0  0  0  0  0  0  0  0  0  0  0
    9.7284   14.4055   22.0075 C   0  0  0  0  0  0  0  0  0  0  0  0
    8.8149   13.6746   22.5796 N   0  0  0  0  0  0  0  0  0  0  0  0
    9.4389   13.0360   23.6497 N   0  0  0  0  0  0  0  0  0  0  0  0
    8.5197   12.6730   24.6608 C   0  0  0  0  0  0  0  0  0  0  0  0
    7.9603   13.6748   25.4377 C   0  0  0  0  0  0  0  0  0  0  0  0
    6.9526   13.4957   26.3207 N   0  0  0  0  0  0  0  0  0  0  0  0
    6.3755   12.2782   26.4160 C   0  0  0  0  0  0  0  0  0  0  0  0
    5.1773   12.1040   27.3042 C   0  0  0  0  0  0  0  0  0  0  0  0
    5.1025   12.8280   28.6230 C   0  0  0  0  0  0  0  0  0  0  0  0
    4.2301   13.2684   27.4856 C   0  0  0  0  0  0  0  0  0  0  0  0
    6.8828   11.2159   25.6996 C   0  0  0  0  0  0  0  0  0  0  0  0
    7.9690   11.3994   24.8266 C   0  0  0  0  0  0  0  0  0  0  0  0
    8.4042   10.1360   24.2098 C   0  0  0  0  0  0  0  0  0  0  0  0
    7.8771    9.0806   24.5364 O   0  0  0  0  0  0  0  0  0  0  0  0
    9.4101   10.2742   23.3330 O   0  0  0  0  0  0  0  0  0  0  0  0
    9.8057    9.0198   22.7802 C   0  0  0  0  0  0  0  0  0  0  0  0
   10.7076   13.6229   23.8893 C   0  0  0  0  0  0  0  0  0  0  0  0
   11.4041   13.6625   24.8871 O   0  0  0  0  0  0  0  0  0  0  0  0
   11.0724   14.3035   22.6272 C   0  0  0  0  0  0  0  0  0  0  0  0
  1  2  1  0
  2  3  1  0
  3  4  1  0
  4  5  2  0
  5  6  1  0
  6  7  1  0
  7  8  2  0
  8  9  1  0
  9 10  2  0
 10 11  1  0
 11 12  1  0
 12 13  1  0
 10 14  1  0
 14 15  2  0
 15 16  1  0
 16 17  2  0
 16 18  1  0
 18 19  1  0
  6 20  1  0
 20 21  2  0
 20 22  1  0
 22  4  1  0
 15  7  1  0
 13 11  1  0
M  END
>  <energy_score>  (750) 
-26.830191

>  <inchikey>  (750) 
None

>  <smiles>  (750) 
None

>  <ref_pdb>  (750) 
A0514a

>  <alias>  (750) 
None

>  <HIPPO Pose ID>  (750) 
498394

>  <name>  (750) 
P498394

>  <HIPPO Compound ID>  (750) 
292798

>  <ref_mols>  (750) 
A4331a,A0514a

>  <distance_score>  (750) 
1.675791

>  <inspiration_score>  (750) 
None

$$$$
P498395
     RDKit          3D

 22 25  0  0  0  0  0  0  0  0999 V2000
    9.6957    8.4391   23.4162 C   0  0  0  0  0  0  0  0  0  0  0  0
    8.8653    9.3644   24.1117 O   0  0  0  0  0  0  0  0  0  0  0  0
    9.0811   10.6199   23.6597 C   0  0  0  0  0  0  0  0  0  0  0  0
    9.8532   10.9108   22.7665 O   0  0  0  0  0  0  0  0  0  0  0  0
    8.2733   11.6089   24.3994 C   0  0  0  0  0  0  0  0  0  0  0  0
    7.2012   11.1979   25.1964 C   0  0  0  0  0  0  0  0  0  0  0  0
    6.4884   12.1365   25.9330 C   0  0  0  0  0  0  0  0  0  0  0  0
    5.4268   11.7158   26.9182 C   0  0  0  0  0  0  0  0  0  0  0  0
    4.2262   12.5988   27.1648 C   0  0  0  0  0  0  0  0  0  0  0  0
    5.2963   12.5007   28.2083 C   0  0  0  0  0  0  0  0  0  0  0  0
    6.7756   13.4511   25.8385 N   0  0  0  0  0  0  0  0  0  0  0  0
    7.7945   13.8225   25.0430 C   0  0  0  0  0  0  0  0  0  0  0  0
    8.6224   12.9603   24.3338 C   0  0  0  0  0  0  0  0  0  0  0  0
    9.8942   13.3782   23.8656 N   0  0  0  0  0  0  0  0  0  0  0  0
   10.7489   13.6507   24.9791 N   0  0  0  0  0  0  0  0  0  0  0  0
    9.8872   14.3973   22.7969 C   0  0  2  0  0  0  0  0  0  0  0  0
    9.7999   13.9071   21.3651 C   0  0  0  0  0  0  0  0  0  0  0  0
   10.7600   14.7978   20.5220 C   0  0  2  0  0  0  0  0  0  0  0  0
   12.2105   14.3631   20.6508 C   0  0  0  0  0  0  0  0  0  0  0  0
   12.3867   14.3286   22.1528 C   0  0  0  0  0  0  0  0  0  0  0  0
   11.2018   15.1520   22.6463 C   0  0  1  0  0  0  0  0  0  0  0  0
   10.8306   15.9861   21.4119 C   0  0  0  0  0  0  0  0  0  0  0  0
  1  2  1  0
  2  3  1  0
  3  4  2  0
  3  5  1  0
  5  6  2  0
  6  7  1  0
  7  8  1  0
  8  9  1  0
  9 10  1  0
  7 11  2  0
 11 12  1  0
 12 13  2  0
 13 14  1  0
 14 15  1  0
 16 14  1  1
 16 17  1  0
 18 17  1  1
 18 19  1  0
 19 20  1  0
 21 20  1  6
 21 22  1  0
 13  5  1  0
 21 16  1  0
 10  8  1  0
 22 18  1  0
M  END
>  <energy_score>  (751) 
-19.554981

>  <inchikey>  (751) 
None

>  <smiles>  (751) 
None

>  <ref_pdb>  (751) 
A0514a

>  <alias>  (751) 
None

>  <HIPPO Pose ID>  (751) 
498395

>  <name>  (751) 
P498395

>  <HIPPO Compound ID>  (751) 
292800

>  <ref_mols>  (751) 
A4331a,A0514a

>  <distance_score>  (751) 
1.733849

>  <inspiration_score>  (751) 
None

$$$$
P498396
     RDKit          3D

 22 24  0  0  0  0  0  0  0  0999 V2000
    9.4201    8.5870   23.0265 C   0  0  0  0  0  0  0  0  0  0  0  0
    8.5140    9.3097   23.8601 O   0  0  0  0  0  0  0  0  0  0  0  0
    8.8973   10.5838   24.0865 C   0  0  0  0  0  0  0  0  0  0  0  0
    9.9421   11.0996   23.7246 O   0  0  0  0  0  0  0  0  0  0  0  0
    7.8261   11.3026   24.8132 C   0  0  0  0  0  0  0  0  0  0  0  0
    6.9373   10.6271   25.6476 C   0  0  0  0  0  0  0  0  0  0  0  0
    5.9603   11.3567   26.3135 C   0  0  0  0  0  0  0  0  0  0  0  0
    5.1299   10.7616   27.4105 C   0  0  0  0  0  0  0  0  0  0  0  0
    5.3689   11.2460   28.8226 C   0  0  0  0  0  0  0  0  0  0  0  0
    4.1047   11.6271   28.1201 C   0  0  0  0  0  0  0  0  0  0  0  0
    5.7617   12.6689   26.0543 N   0  0  0  0  0  0  0  0  0  0  0  0
    6.5710   13.2874   25.1822 C   0  0  0  0  0  0  0  0  0  0  0  0
    7.6941   12.6833   24.6360 C   0  0  0  0  0  0  0  0  0  0  0  0
    8.5664   13.3511   23.7087 N   0  0  0  0  0  0  0  0  0  0  0  0
    9.0973   13.9738   25.0848 N   0  0  0  0  0  0  0  0  0  0  0  0
    8.2816   14.4277   22.6936 C   0  0  0  0  0  0  0  0  0  0  0  0
    7.2944   15.0282   22.4788 O   0  0  0  0  0  0  0  0  0  0  0  0
    9.5185   14.6533   21.9228 C   0  0  0  0  0  0  0  0  0  0  0  0
   10.7901   14.2283   22.2808 C   0  0  0  0  0  0  0  0  0  0  0  0
   11.9536   14.8165   21.1827 S   0  0  0  0  0  0  0  0  0  0  0  0
   10.6833   15.4371   20.2181 C   0  0  0  0  0  0  0  0  0  0  0  0
    9.4785   15.3567   20.7331 N   0  0  0  0  0  0  0  0  0  0  0  0
  1  2  1  0
  2  3  1  0
  3  4  2  0
  3  5  1  0
  5  6  2  0
  6  7  1  0
  7  8  1  0
  8  9  1  0
  9 10  1  0
  7 11  2  0
 11 12  1  0
 12 13  2  0
 13 14  1  0
 14 15  1  0
 14 16  1  0
 16 17  2  0
 16 18  1  0
 18 19  2  0
 19 20  1  0
 20 21  1  0
 21 22  2  0
 13  5  1  0
 22 18  1  0
 10  8  1  0
M  END
>  <energy_score>  (752) 
-26.018729

>  <inchikey>  (752) 
None

>  <smiles>  (752) 
None

>  <ref_pdb>  (752) 
A0514a

>  <alias>  (752) 
None

>  <HIPPO Pose ID>  (752) 
498396

>  <name>  (752) 
P498396

>  <HIPPO Compound ID>  (752) 
292816

>  <ref_mols>  (752) 
A4331a,A0514a

>  <distance_score>  (752) 
1.693129

>  <inspiration_score>  (752) 
None

$$$$
P498397
     RDKit          3D

 22 23  0  0  0  0  0  0  0  0999 V2000
   10.4747   16.0315   18.9312 C   0  0  0  0  0  0  0  0  0  0  0  0
   10.8170   15.2234   20.1621 C   0  0  0  0  0  0  0  0  0  0  0  0
    9.6377   15.0603   21.1006 C   0  0  0  0  0  0  0  0  0  0  0  0
    9.1603   16.2677   21.4505 F   0  0  0  0  0  0  0  0  0  0  0  0
    8.5960   14.4140   20.5347 F   0  0  0  0  0  0  0  0  0  0  0  0
   10.0744   14.2732   22.3080 C   0  0  0  0  0  0  0  0  0  0  0  0
    8.8839   13.9184   23.1736 C   0  0  0  0  0  0  0  0  0  0  0  0
    9.3331   13.0678   24.3129 N   0  0  0  0  0  0  0  0  0  0  0  0
   10.3746   13.6439   25.1120 N   0  0  0  0  0  0  0  0  0  0  0  0
    8.1738   12.7069   25.0531 C   0  0  0  0  0  0  0  0  0  0  0  0
    7.5114   13.6807   25.7985 C   0  0  0  0  0  0  0  0  0  0  0  0
    6.4065   13.4776   26.5286 N   0  0  0  0  0  0  0  0  0  0  0  0
    5.8674   12.2468   26.5396 C   0  0  0  0  0  0  0  0  0  0  0  0
    4.6288   12.0810   27.3511 C   0  0  0  0  0  0  0  0  0  0  0  0
    4.6240   11.2307   28.5892 C   0  0  0  0  0  0  0  0  0  0  0  0
    4.5915   12.7247   28.7191 C   0  0  0  0  0  0  0  0  0  0  0  0
    6.4528   11.2019   25.8493 C   0  0  0  0  0  0  0  0  0  0  0  0
    7.6180   11.4234   25.0978 C   0  0  0  0  0  0  0  0  0  0  0  0
    8.1515   10.1973   24.4688 C   0  0  0  0  0  0  0  0  0  0  0  0
    7.6954    9.1058   24.7837 O   0  0  0  0  0  0  0  0  0  0  0  0
    9.1280   10.4043   23.5649 O   0  0  0  0  0  0  0  0  0  0  0  0
    9.6358    9.1892   23.0051 C   0  0  0  0  0  0  0  0  0  0  0  0
  1  2  1  0
  2  3  1  0
  3  4  1  0
  3  5  1  0
  3  6  1  0
  6  7  1  0
  7  8  1  0
  8  9  1  0
  8 10  1  0
 10 11  2  0
 11 12  1  0
 12 13  2  0
 13 14  1  0
 14 15  1  0
 15 16  1  0
 13 17  1  0
 17 18  2  0
 18 19  1  0
 19 20  2  0
 19 21  1  0
 21 22  1  0
 18 10  1  0
 16 14  1  0
M  END
>  <energy_score>  (753) 
-41.827804

>  <inchikey>  (753) 
None

>  <smiles>  (753) 
None

>  <ref_pdb>  (753) 
A0514a

>  <alias>  (753) 
None

>  <HIPPO Pose ID>  (753) 
498397

>  <name>  (753) 
P498397

>  <HIPPO Compound ID>  (753) 
292818

>  <ref_mols>  (753) 
A4331a,A0514a

>  <distance_score>  (753) 
1.518596

>  <inspiration_score>  (753) 
None

$$$$
P498398
     RDKit          3D

 22 24  0  0  0  0  0  0  0  0999 V2000
    9.3971    8.5310   22.9842 C   0  0  0  0  0  0  0  0  0  0  0  0
    8.6467    9.4129   23.8159 O   0  0  0  0  0  0  0  0  0  0  0  0
    9.0901   10.6905   23.7965 C   0  0  0  0  0  0  0  0  0  0  0  0
   10.0543   11.0833   23.1624 O   0  0  0  0  0  0  0  0  0  0  0  0
    8.2671   11.5511   24.6828 C   0  0  0  0  0  0  0  0  0  0  0  0
    7.1856   10.9895   25.3864 C   0  0  0  0  0  0  0  0  0  0  0  0
    6.4275   11.7906   26.2301 C   0  0  0  0  0  0  0  0  0  0  0  0
    5.3475   11.2385   27.1210 C   0  0  0  0  0  0  0  0  0  0  0  0
    4.1564   12.1002   27.4838 C   0  0  0  0  0  0  0  0  0  0  0  0
    5.2107   11.8309   28.5108 C   0  0  0  0  0  0  0  0  0  0  0  0
    6.6890   13.1115   26.3438 N   0  0  0  0  0  0  0  0  0  0  0  0
    7.6967   13.6412   25.6304 C   0  0  0  0  0  0  0  0  0  0  0  0
    8.5628   12.9162   24.8274 C   0  0  0  0  0  0  0  0  0  0  0  0
    9.6401   13.6269   24.2339 N   0  0  0  0  0  0  0  0  0  0  0  0
   10.9494   13.1667   24.5505 N   0  0  0  0  0  0  0  0  0  0  0  0
    9.4754   14.0555   22.9350 C   0  0  0  0  0  0  0  0  0  0  0  0
    8.3427   14.0809   22.2582 N   0  0  0  0  0  0  0  0  0  0  0  0
    8.5653   14.6698   21.0485 N   0  0  0  0  0  0  0  0  0  0  0  0
    9.8373   14.9953   20.9709 C   0  0  0  0  0  0  0  0  0  0  0  0
   10.4829   15.6921   19.8406 C   0  0  0  0  0  0  0  0  0  0  0  0
   10.4640   14.6237   22.1329 N   0  0  0  0  0  0  0  0  0  0  0  0
   11.8515   14.9035   22.4813 N   0  0  0  0  0  0  0  0  0  0  0  0
  1  2  1  0
  2  3  1  0
  3  4  2  0
  3  5  1  0
  5  6  2  0
  6  7  1  0
  7  8  1  0
  8  9  1  0
  9 10  1  0
  7 11  2  0
 11 12  1  0
 12 13  2  0
 13 14  1  0
 14 15  1  0
 14 16  1  0
 16 17  2  0
 17 18  1  0
 18 19  2  0
 19 20  1  0
 19 21  1  0
 21 22  1  0
 13  5  1  0
 21 16  1  0
 10  8  1  0
M  END
>  <energy_score>  (754) 
-38.092956

>  <inchikey>  (754) 
None

>  <smiles>  (754) 
None

>  <ref_pdb>  (754) 
A0514a

>  <alias>  (754) 
None

>  <HIPPO Pose ID>  (754) 
498398

>  <name>  (754) 
P498398

>  <HIPPO Compound ID>  (754) 
292820

>  <ref_mols>  (754) 
A4331a,A0514a

>  <distance_score>  (754) 
1.691118

>  <inspiration_score>  (754) 
None

$$$$
P498399
     RDKit          3D

 22 25  0  0  0  0  0  0  0  0999 V2000
    9.5651    8.3190   23.3759 C   0  0  0  0  0  0  0  0  0  0  0  0
    8.8923    9.1583   24.3118 O   0  0  0  0  0  0  0  0  0  0  0  0
    8.7886   10.4024   23.8164 C   0  0  0  0  0  0  0  0  0  0  0  0
    9.1127   10.7228   22.6958 O   0  0  0  0  0  0  0  0  0  0  0  0
    8.1798   11.3531   24.7370 C   0  0  0  0  0  0  0  0  0  0  0  0
    7.1552   10.8696   25.5662 C   0  0  0  0  0  0  0  0  0  0  0  0
    6.4240   11.7651   26.3262 C   0  0  0  0  0  0  0  0  0  0  0  0
    5.3670   11.3237   27.3006 C   0  0  0  0  0  0  0  0  0  0  0  0
    4.1319   12.1728   27.5038 C   0  0  0  0  0  0  0  0  0  0  0  0
    5.1836   12.1347   28.5687 C   0  0  0  0  0  0  0  0  0  0  0  0
    6.6718   13.0902   26.2430 N   0  0  0  0  0  0  0  0  0  0  0  0
    7.6041   13.5347   25.3760 C   0  0  0  0  0  0  0  0  0  0  0  0
    8.4376   12.7232   24.6231 C   0  0  0  0  0  0  0  0  0  0  0  0
    9.4281   13.3454   23.8056 N   0  0  0  0  0  0  0  0  0  0  0  0
    9.1324   14.4745   23.0314 C   0  0  0  0  0  0  0  0  0  0  0  0
    8.0026   14.9145   22.8604 O   0  0  0  0  0  0  0  0  0  0  0  0
   10.3843   14.9795   22.2845 C   0  0  0  0  0  0  0  0  0  0  0  0
   11.6890   15.0156   23.1083 C   0  0  0  0  0  0  0  0  0  0  0  0
   11.6732   13.9268   24.1729 C   0  0  0  0  0  0  0  0  0  0  0  0
   10.7750   12.8641   23.7032 N   0  0  0  0  0  0  0  0  0  0  0  0
   11.1076   12.6918   22.2503 C   0  0  0  0  0  0  0  0  0  0  0  0
   10.6270   13.8462   21.3527 C   0  0  0  0  0  0  0  0  0  0  0  0
  1  2  1  0
  2  3  1  0
  3  4  2  0
  3  5  1  0
  5  6  2  0
  6  7  1  0
  7  8  1  0
  8  9  1  0
  9 10  1  0
  7 11  2  0
 11 12  1  0
 12 13  2  0
 13 14  1  0
 14 15  1  0
 15 16  2  0
 15 17  1  0
 17 18  1  0
 18 19  1  0
 19 20  1  0
 20 21  1  0
 21 22  1  0
 13  5  1  0
 20 14  1  0
 10  8  1  0
 22 17  1  0
M  END
>  <energy_score>  (755) 
-15.118113

>  <inchikey>  (755) 
None

>  <smiles>  (755) 
None

>  <ref_pdb>  (755) 
A0514a

>  <alias>  (755) 
None

>  <HIPPO Pose ID>  (755) 
498399

>  <name>  (755) 
P498399

>  <HIPPO Compound ID>  (755) 
292821

>  <ref_mols>  (755) 
A4331a,A0514a

>  <distance_score>  (755) 
1.836543

>  <inspiration_score>  (755) 
None

$$$$
P498400
     RDKit          3D

 22 24  0  0  0  0  0  0  0  0999 V2000
    9.4020    8.7913   23.0846 C   0  0  0  0  0  0  0  0  0  0  0  0
    8.5297    9.6784   23.7907 O   0  0  0  0  0  0  0  0  0  0  0  0
    9.0330   10.9289   23.9254 C   0  0  0  0  0  0  0  0  0  0  0  0
   10.1498   11.2845   23.6030 O   0  0  0  0  0  0  0  0  0  0  0  0
    7.9972   11.8103   24.5023 C   0  0  0  0  0  0  0  0  0  0  0  0
    7.1548   11.3059   25.4944 C   0  0  0  0  0  0  0  0  0  0  0  0
    6.3080   12.1799   26.1659 C   0  0  0  0  0  0  0  0  0  0  0  0
    5.7320   11.8617   27.5108 C   0  0  0  0  0  0  0  0  0  0  0  0
    4.8302   10.6975   27.7699 C   0  0  0  0  0  0  0  0  0  0  0  0
    4.2573   12.0870   27.7170 C   0  0  0  0  0  0  0  0  0  0  0  0
    6.0909   13.4304   25.7174 N   0  0  0  0  0  0  0  0  0  0  0  0
    6.8648   13.8754   24.7166 C   0  0  0  0  0  0  0  0  0  0  0  0
    7.9708   13.1833   24.2332 C   0  0  0  0  0  0  0  0  0  0  0  0
    9.1770   13.9545   24.2060 N   0  0  0  0  0  0  0  0  0  0  0  0
    9.6907   14.1137   25.5422 N   0  0  0  0  0  0  0  0  0  0  0  0
   10.1038   14.0900   23.1293 C   0  0  0  0  0  0  0  0  0  0  0  0
   11.4731   13.9511   23.4063 C   0  0  0  0  0  0  0  0  0  0  0  0
   12.4698   14.3728   22.6091 N   0  0  0  0  0  0  0  0  0  0  0  0
   12.0533   14.8941   21.4417 C   0  0  0  0  0  0  0  0  0  0  0  0
   10.7082   14.9980   21.1031 C   0  0  0  0  0  0  0  0  0  0  0  0
   10.3306   15.6828   19.8324 C   0  0  0  0  0  0  0  0  0  0  0  0
    9.7055   14.5947   21.9411 N   0  0  0  0  0  0  0  0  0  0  0  0
  1  2  1  0
  2  3  1  0
  3  4  2  0
  3  5  1  0
  5  6  2  0
  6  7  1  0
  7  8  1  0
  8  9  1  0
  9 10  1  0
  7 11  2  0
 11 12  1  0
 12 13  2  0
 13 14  1  0
 14 15  1  0
 14 16  1  0
 16 17  2  0
 17 18  1  0
 18 19  2  0
 19 20  1  0
 20 21  1  0
 20 22  2  0
 13  5  1  0
 22 16  1  0
 10  8  1  0
M  END
>  <energy_score>  (756) 
-9.421019

>  <inchikey>  (756) 
None

>  <smiles>  (756) 
None

>  <ref_pdb>  (756) 
A0514a

>  <alias>  (756) 
None

>  <HIPPO Pose ID>  (756) 
498400

>  <name>  (756) 
P498400

>  <HIPPO Compound ID>  (756) 
292824

>  <ref_mols>  (756) 
A4331a,A0514a

>  <distance_score>  (756) 
1.980645

>  <inspiration_score>  (756) 
None

$$$$
P498401
     RDKit          3D

 23 25  0  0  0  0  0  0  0  0999 V2000
    9.3709    8.4781   22.9728 C   0  0  0  0  0  0  0  0  0  0  0  0
    8.4691    9.2013   23.8074 O   0  0  0  0  0  0  0  0  0  0  0  0
    8.8728   10.4645   24.0412 C   0  0  0  0  0  0  0  0  0  0  0  0
    9.9260   10.9681   23.6844 O   0  0  0  0  0  0  0  0  0  0  0  0
    7.8218   11.1967   24.7784 C   0  0  0  0  0  0  0  0  0  0  0  0
    6.9350   10.5459   25.6335 C   0  0  0  0  0  0  0  0  0  0  0  0
    6.0204   11.3070   26.3536 C   0  0  0  0  0  0  0  0  0  0  0  0
    5.2185   10.7373   27.4876 C   0  0  0  0  0  0  0  0  0  0  0  0
    4.0171   11.4821   28.0278 C   0  0  0  0  0  0  0  0  0  0  0  0
    5.2930   11.4756   28.8115 C   0  0  0  0  0  0  0  0  0  0  0  0
    5.8861   12.6366   26.1403 N   0  0  0  0  0  0  0  0  0  0  0  0
    6.6928   13.2379   25.2556 C   0  0  0  0  0  0  0  0  0  0  0  0
    7.7382   12.5833   24.6240 C   0  0  0  0  0  0  0  0  0  0  0  0
    8.5620   13.2560   23.6595 N   0  0  0  0  0  0  0  0  0  0  0  0
    9.3958   13.5534   24.9900 N   0  0  0  0  0  0  0  0  0  0  0  0
    8.3203   14.5175   22.8698 C   0  0  0  0  0  0  0  0  0  0  0  0
    7.4323   15.2877   22.9192 O   0  0  0  0  0  0  0  0  0  0  0  0
    9.4360   14.7027   21.9538 C   0  0  0  0  0  0  0  0  0  0  0  0
    9.3159   15.2736   20.7825 N   0  0  0  0  0  0  0  0  0  0  0  0
   10.5804   15.3808   20.2297 C   0  0  0  0  0  0  0  0  0  0  0  0
   10.6825   15.8782   18.8436 C   0  0  0  0  0  0  0  0  0  0  0  0
   11.6521   15.0109   20.9400 N   0  0  0  0  0  0  0  0  0  0  0  0
   11.0668   14.3360   22.3378 S   0  0  0  0  0  0  0  0  0  0  0  0
  1  2  1  0
  2  3  1  0
  3  4  2  0
  3  5  1  0
  5  6  2  0
  6  7  1  0
  7  8  1  0
  8  9  1  0
  9 10  1  0
  7 11  2  0
 11 12  1  0
 12 13  2  0
 13 14  1  0
 14 15  1  0
 14 16  1  0
 16 17  2  0
 16 18  1  0
 18 19  2  0
 19 20  1  0
 20 21  1  0
 20 22  2  0
 22 23  1  0
 13  5  1  0
 23 18  1  0
 10  8  1  0
M  END
>  <energy_score>  (757) 
-5.938816

>  <inchikey>  (757) 
None

>  <smiles>  (757) 
None

>  <ref_pdb>  (757) 
A0514a

>  <alias>  (757) 
None

>  <HIPPO Pose ID>  (757) 
498401

>  <name>  (757) 
P498401

>  <HIPPO Compound ID>  (757) 
292827

>  <ref_mols>  (757) 
A4331a,A0514a

>  <distance_score>  (757) 
1.783868

>  <inspiration_score>  (757) 
None

$$$$
P498402
     RDKit          3D

 23 24  0  0  0  0  0  0  0  0999 V2000
    9.2624    8.5488   22.9667 C   0  0  0  0  0  0  0  0  0  0  0  0
    8.4744    9.4467   23.7481 O   0  0  0  0  0  0  0  0  0  0  0  0
    9.0856   10.6364   23.9410 C   0  0  0  0  0  0  0  0  0  0  0  0
   10.2146   10.9130   23.5731 O   0  0  0  0  0  0  0  0  0  0  0  0
    8.2272   11.5589   24.7237 C   0  0  0  0  0  0  0  0  0  0  0  0
    7.1196   11.0842   25.4378 C   0  0  0  0  0  0  0  0  0  0  0  0
    6.4070   11.9829   26.2301 C   0  0  0  0  0  0  0  0  0  0  0  0
    5.2957   11.5259   27.1373 C   0  0  0  0  0  0  0  0  0  0  0  0
    4.9145   10.2490   26.9003 F   0  0  0  0  0  0  0  0  0  0  0  0
    5.6674   11.5444   28.4518 F   0  0  0  0  0  0  0  0  0  0  0  0
    4.1553   12.2651   27.0534 F   0  0  0  0  0  0  0  0  0  0  0  0
    6.7392   13.2955   26.3084 N   0  0  0  0  0  0  0  0  0  0  0  0
    7.7678   13.7347   25.5656 C   0  0  0  0  0  0  0  0  0  0  0  0
    8.5884   12.9126   24.8066 C   0  0  0  0  0  0  0  0  0  0  0  0
    9.7232   13.4397   24.1407 N   0  0  0  0  0  0  0  0  0  0  0  0
   10.7340   14.0355   24.9370 N   0  0  0  0  0  0  0  0  0  0  0  0
    9.5271   14.0149   22.9121 C   0  0  0  0  0  0  0  0  0  0  0  0
    8.3685   14.1028   22.2886 N   0  0  0  0  0  0  0  0  0  0  0  0
    8.5533   14.7487   21.1070 N   0  0  0  0  0  0  0  0  0  0  0  0
    9.8341   15.0150   20.9749 C   0  0  0  0  0  0  0  0  0  0  0  0
   10.4393   15.7255   19.8261 C   0  0  0  0  0  0  0  0  0  0  0  0
   10.5003   14.5358   22.0772 N   0  0  0  0  0  0  0  0  0  0  0  0
   11.9233   14.5366   22.2677 C   0  0  0  0  0  0  0  0  0  0  0  0
  1  2  1  0
  2  3  1  0
  3  4  2  0
  3  5  1  0
  5  6  2  0
  6  7  1  0
  7  8  1  0
  8  9  1  0
  8 10  1  0
  8 11  1  0
  7 12  2  0
 12 13  1  0
 13 14  2  0
 14 15  1  0
 15 16  1  0
 15 17  1  0
 17 18  2  0
 18 19  1  0
 19 20  2  0
 20 21  1  0
 20 22  1  0
 22 23  1  0
 14  5  1  0
 22 17  1  0
M  END
>  <energy_score>  (758) 
-52.460091

>  <inchikey>  (758) 
None

>  <smiles>  (758) 
None

>  <ref_pdb>  (758) 
A0514a

>  <alias>  (758) 
None

>  <HIPPO Pose ID>  (758) 
498402

>  <name>  (758) 
P498402

>  <HIPPO Compound ID>  (758) 
292828

>  <ref_mols>  (758) 
A4331a,A0514a

>  <distance_score>  (758) 
1.281661

>  <inspiration_score>  (758) 
None

$$$$
P498403
     RDKit          3D

 23 23  0  0  0  0  0  0  0  0999 V2000
   12.2521   14.7941   20.5327 C   0  0  0  0  0  0  0  0  0  0  0  0
   10.8360   15.3300   20.5208 C   0  0  0  0  0  0  0  0  0  0  0  0
    9.9171   14.4542   21.1803 O   0  0  0  0  0  0  0  0  0  0  0  0
   10.1873   14.1995   22.4881 C   0  0  0  0  0  0  0  0  0  0  0  0
   11.2077   14.5446   23.0813 O   0  0  0  0  0  0  0  0  0  0  0  0
    9.0169   13.4398   23.1240 C   0  0  2  0  0  0  0  0  0  0  0  0
    7.7155   14.2126   22.8907 C   0  0  0  0  0  0  0  0  0  0  0  0
    9.2830   13.0861   24.5678 N   0  0  0  0  0  0  0  0  0  0  0  0
   10.0595   14.0163   25.3468 N   0  0  0  0  0  0  0  0  0  0  0  0
    8.1190   12.6063   25.2181 C   0  0  0  0  0  0  0  0  0  0  0  0
    7.3853   13.5002   26.0072 C   0  0  0  0  0  0  0  0  0  0  0  0
    6.2834   13.2014   26.7099 N   0  0  0  0  0  0  0  0  0  0  0  0
    5.8198   11.9375   26.6380 C   0  0  0  0  0  0  0  0  0  0  0  0
    4.6170   11.6060   27.4698 C   0  0  0  0  0  0  0  0  0  0  0  0
    4.7184   12.1006   28.7309 F   0  0  0  0  0  0  0  0  0  0  0  0
    4.4016   10.2676   27.6209 F   0  0  0  0  0  0  0  0  0  0  0  0
    3.4504   12.1072   26.9709 F   0  0  0  0  0  0  0  0  0  0  0  0
    6.4460   10.9748   25.8712 C   0  0  0  0  0  0  0  0  0  0  0  0
    7.6124   11.2994   25.1558 C   0  0  0  0  0  0  0  0  0  0  0  0
    8.2025   10.1195   24.4869 C   0  0  0  0  0  0  0  0  0  0  0  0
    7.7615    9.0061   24.7370 O   0  0  0  0  0  0  0  0  0  0  0  0
    9.1959   10.3777   23.6193 O   0  0  0  0  0  0  0  0  0  0  0  0
    9.7142    9.1906   23.0100 C   0  0  0  0  0  0  0  0  0  0  0  0
  1  2  1  0
  2  3  1  0
  3  4  1  0
  4  5  2  0
  4  6  1  0
  6  7  1  1
  6  8  1  0
  8  9  1  0
  8 10  1  0
 10 11  2  0
 11 12  1  0
 12 13  2  0
 13 14  1  0
 14 15  1  0
 14 16  1  0
 14 17  1  0
 13 18  1  0
 18 19  2  0
 19 20  1  0
 20 21  2  0
 20 22  1  0
 22 23  1  0
 19 10  1  0
M  END
>  <energy_score>  (759) 
-44.923787

>  <inchikey>  (759) 
None

>  <smiles>  (759) 
None

>  <ref_pdb>  (759) 
A0514a

>  <alias>  (759) 
None

>  <HIPPO Pose ID>  (759) 
498403

>  <name>  (759) 
P498403

>  <HIPPO Compound ID>  (759) 
292829

>  <ref_mols>  (759) 
A4331a,A0514a

>  <distance_score>  (759) 
1.36639

>  <inspiration_score>  (759) 
None

$$$$
P498404
     RDKit          3D

 23 23  0  0  0  0  0  0  0  0999 V2000
   10.6525   15.5925   19.1094 C   0  0  0  0  0  0  0  0  0  0  0  0
   10.3744   16.1806   20.4728 C   0  0  0  0  0  0  0  0  0  0  0  0
    9.4413   15.3736   21.1922 O   0  0  0  0  0  0  0  0  0  0  0  0
    9.9395   14.7073   22.2664 C   0  0  0  0  0  0  0  0  0  0  0  0
   11.1309   14.5760   22.5413 O   0  0  0  0  0  0  0  0  0  0  0  0
    8.8077   14.2063   23.1845 C   0  0  1  0  0  0  0  0  0  0  0  0
    7.4599   14.1570   22.4725 C   0  0  0  0  0  0  0  0  0  0  0  0
    9.1784   12.8852   23.8060 N   0  0  0  0  0  0  0  0  0  0  0  0
    9.8894   11.9962   22.9818 N   0  0  0  0  0  0  0  0  0  0  0  0
    8.2645   12.3636   24.7533 C   0  0  0  0  0  0  0  0  0  0  0  0
    7.6379   13.2264   25.6602 C   0  0  0  0  0  0  0  0  0  0  0  0
    6.6895   12.8932   26.5607 N   0  0  0  0  0  0  0  0  0  0  0  0
    6.2544   11.6156   26.5734 C   0  0  0  0  0  0  0  0  0  0  0  0
    5.1863   11.2428   27.5628 C   0  0  0  0  0  0  0  0  0  0  0  0
    4.1846   12.1608   27.6293 F   0  0  0  0  0  0  0  0  0  0  0  0
    4.5763   10.0542   27.2944 F   0  0  0  0  0  0  0  0  0  0  0  0
    5.6761   11.1182   28.8310 F   0  0  0  0  0  0  0  0  0  0  0  0
    6.8347   10.6576   25.7726 C   0  0  0  0  0  0  0  0  0  0  0  0
    7.8715   11.0255   24.8998 C   0  0  0  0  0  0  0  0  0  0  0  0
    8.3695    9.8700   24.1540 C   0  0  0  0  0  0  0  0  0  0  0  0
    7.5845    9.0730   23.6832 O   0  0  0  0  0  0  0  0  0  0  0  0
    9.7055    9.7496   24.1390 O   0  0  0  0  0  0  0  0  0  0  0  0
   10.1374    8.5975   23.4223 C   0  0  0  0  0  0  0  0  0  0  0  0
  1  2  1  0
  2  3  1  0
  3  4  1  0
  4  5  2  0
  4  6  1  0
  6  7  1  6
  6  8  1  0
  8  9  1  0
  8 10  1  0
 10 11  2  0
 11 12  1  0
 12 13  2  0
 13 14  1  0
 14 15  1  0
 14 16  1  0
 14 17  1  0
 13 18  1  0
 18 19  2  0
 19 20  1  0
 20 21  2  0
 20 22  1  0
 22 23  1  0
 19 10  1  0
M  END
>  <energy_score>  (760) 
-41.010381

>  <inchikey>  (760) 
None

>  <smiles>  (760) 
None

>  <ref_pdb>  (760) 
A0514a

>  <alias>  (760) 
None

>  <HIPPO Pose ID>  (760) 
498404

>  <name>  (760) 
P498404

>  <HIPPO Compound ID>  (760) 
292829

>  <ref_mols>  (760) 
A4331a,A0514a

>  <distance_score>  (760) 
1.22068

>  <inspiration_score>  (760) 
None

$$$$
P498405
     RDKit          3D

 23 25  0  0  0  0  0  0  0  0999 V2000
    9.8304    8.0500   23.3540 C   0  0  0  0  0  0  0  0  0  0  0  0
    8.8516    8.6892   24.1490 O   0  0  0  0  0  0  0  0  0  0  0  0
    8.7326    9.9511   23.7125 C   0  0  0  0  0  0  0  0  0  0  0  0
    9.3431   10.4064   22.7619 O   0  0  0  0  0  0  0  0  0  0  0  0
    7.8315   10.7258   24.5805 C   0  0  0  0  0  0  0  0  0  0  0  0
    6.9713   10.0978   25.5029 C   0  0  0  0  0  0  0  0  0  0  0  0
    6.1129   10.8616   26.2849 C   0  0  0  0  0  0  0  0  0  0  0  0
    5.2245   10.3187   27.3693 C   0  0  0  0  0  0  0  0  0  0  0  0
    4.3488   11.2598   27.8373 F   0  0  0  0  0  0  0  0  0  0  0  0
    4.4507    9.2763   26.9718 F   0  0  0  0  0  0  0  0  0  0  0  0
    5.9149    9.8996   28.4673 F   0  0  0  0  0  0  0  0  0  0  0  0
    6.0317   12.1836   26.1147 N   0  0  0  0  0  0  0  0  0  0  0  0
    6.7692   12.7330   25.1464 C   0  0  0  0  0  0  0  0  0  0  0  0
    7.7795   12.0997   24.3986 C   0  0  0  0  0  0  0  0  0  0  0  0
    8.5870   12.8211   23.4699 N   0  0  0  0  0  0  0  0  0  0  0  0
   10.0708   12.8464   23.6907 C   0  0  0  0  0  0  0  0  0  0  0  0
   10.5219   13.9443   24.6823 C   0  0  0  0  0  0  0  0  0  0  0  0
    9.3302   14.6723   25.3257 C   0  0  0  0  0  0  0  0  0  0  0  0
    8.3679   15.0150   24.2418 C   0  0  0  0  0  0  0  0  0  0  0  0
    7.5141   15.9916   24.0930 N   0  0  0  0  0  0  0  0  0  0  0  0
    6.9625   15.7873   22.8431 C   0  0  0  0  0  0  0  0  0  0  0  0
    7.3852   14.6012   22.2971 C   0  0  0  0  0  0  0  0  0  0  0  0
    8.2050   14.1044   23.2438 N   0  0  0  0  0  0  0  0  0  0  0  0
  1  2  1  0
  2  3  1  0
  3  4  2  0
  3  5  1  0
  5  6  2  0
  6  7  1  0
  7  8  1  0
  8  9  1  0
  8 10  1  0
  8 11  1  0
  7 12  2  0
 12 13  1  0
 13 14  2  0
 14 15  1  0
 15 16  1  0
 16 17  1  0
 17 18  1  0
 18 19  1  0
 19 20  2  0
 20 21  1  0
 21 22  2  0
 22 23  1  0
 14  5  1  0
 23 15  1  0
 23 19  1  0
M  END
>  <energy_score>  (761) 
-3.755225

>  <inchikey>  (761) 
None

>  <smiles>  (761) 
None

>  <ref_pdb>  (761) 
A0514a

>  <alias>  (761) 
None

>  <HIPPO Pose ID>  (761) 
498405

>  <name>  (761) 
P498405

>  <HIPPO Compound ID>  (761) 
292830

>  <ref_mols>  (761) 
A4331a,A0514a

>  <distance_score>  (761) 
1.931041

>  <inspiration_score>  (761) 
None

$$$$
P498406
     RDKit          3D

 23 24  0  0  0  0  0  0  0  0999 V2000
    9.2434    8.6019   22.9965 C   0  0  0  0  0  0  0  0  0  0  0  0
    8.4464    9.4780   23.8005 O   0  0  0  0  0  0  0  0  0  0  0  0
    9.0118   10.6948   23.9679 C   0  0  0  0  0  0  0  0  0  0  0  0
   10.1228   11.0099   23.5758 O   0  0  0  0  0  0  0  0  0  0  0  0
    8.1286   11.5942   24.7604 C   0  0  0  0  0  0  0  0  0  0  0  0
    7.0250   11.0892   25.4634 C   0  0  0  0  0  0  0  0  0  0  0  0
    6.2982   11.9582   26.2780 C   0  0  0  0  0  0  0  0  0  0  0  0
    5.1932   11.4644   27.1751 C   0  0  0  0  0  0  0  0  0  0  0  0
    4.8709   10.1695   26.9447 F   0  0  0  0  0  0  0  0  0  0  0  0
    5.5406   11.5080   28.4956 F   0  0  0  0  0  0  0  0  0  0  0  0
    4.0235   12.1533   27.0663 F   0  0  0  0  0  0  0  0  0  0  0  0
    6.6105   13.2726   26.3893 N   0  0  0  0  0  0  0  0  0  0  0  0
    7.6477   13.7399   25.6718 C   0  0  0  0  0  0  0  0  0  0  0  0
    8.4722   12.9518   24.8809 C   0  0  0  0  0  0  0  0  0  0  0  0
    9.6298   13.4926   24.2720 N   0  0  0  0  0  0  0  0  0  0  0  0
   10.5709   14.1304   25.1293 N   0  0  0  0  0  0  0  0  0  0  0  0
    9.5340   14.0436   23.0181 C   0  0  0  0  0  0  0  0  0  0  0  0
    8.4529   14.1907   22.2781 N   0  0  0  0  0  0  0  0  0  0  0  0
    8.8209   14.7261   21.0712 N   0  0  0  0  0  0  0  0  0  0  0  0
   10.1333   14.8471   21.0482 C   0  0  0  0  0  0  0  0  0  0  0  0
   10.9566   15.2752   19.8959 C   0  0  0  0  0  0  0  0  0  0  0  0
   10.6276   14.4669   22.2687 N   0  0  0  0  0  0  0  0  0  0  0  0
   12.0274   14.4357   22.6735 N   0  0  0  0  0  0  0  0  0  0  0  0
  1  2  1  0
  2  3  1  0
  3  4  2  0
  3  5  1  0
  5  6  2  0
  6  7  1  0
  7  8  1  0
  8  9  1  0
  8 10  1  0
  8 11  1  0
  7 12  2  0
 12 13  1  0
 13 14  2  0
 14 15  1  0
 15 16  1  0
 15 17  1  0
 17 18  2  0
 18 19  1  0
 19 20  2  0
 20 21  1  0
 20 22  1  0
 22 23  1  0
 14  5  1  0
 22 17  1  0
M  END
>  <energy_score>  (762) 
-41.573624

>  <inchikey>  (762) 
None

>  <smiles>  (762) 
None

>  <ref_pdb>  (762) 
A0514a

>  <alias>  (762) 
None

>  <HIPPO Pose ID>  (762) 
498406

>  <name>  (762) 
P498406

>  <HIPPO Compound ID>  (762) 
292835

>  <ref_mols>  (762) 
A4331a,A0514a

>  <distance_score>  (762) 
1.283734

>  <inspiration_score>  (762) 
None

$$$$
P498407
     RDKit          3D

 23 24  0  0  0  0  0  0  0  0999 V2000
    9.4901    8.7107   23.0697 C   0  0  0  0  0  0  0  0  0  0  0  0
    8.6977    9.5855   23.8770 O   0  0  0  0  0  0  0  0  0  0  0  0
    8.9830   10.8998   23.7266 C   0  0  0  0  0  0  0  0  0  0  0  0
    9.8347   11.3571   22.9909 O   0  0  0  0  0  0  0  0  0  0  0  0
    8.1134   11.7284   24.5963 C   0  0  0  0  0  0  0  0  0  0  0  0
    7.3147   11.1167   25.5632 C   0  0  0  0  0  0  0  0  0  0  0  0
    6.5042   11.8996   26.3788 C   0  0  0  0  0  0  0  0  0  0  0  0
    5.5270   11.2371   27.3212 C   0  0  0  0  0  0  0  0  0  0  0  0
    4.3833   11.9534   27.4997 F   0  0  0  0  0  0  0  0  0  0  0  0
    5.1243   10.0070   26.8923 F   0  0  0  0  0  0  0  0  0  0  0  0
    6.0445   11.0342   28.5670 F   0  0  0  0  0  0  0  0  0  0  0  0
    6.5481   13.2496   26.3520 N   0  0  0  0  0  0  0  0  0  0  0  0
    7.2621   13.8079   25.3632 C   0  0  0  0  0  0  0  0  0  0  0  0
    8.0173   13.1127   24.4221 C   0  0  0  0  0  0  0  0  0  0  0  0
    8.3837   13.7678   23.2301 N   0  0  0  0  0  0  0  0  0  0  0  0
    7.3103   14.2072   22.4244 N   0  0  0  0  0  0  0  0  0  0  0  0
    9.6678   14.1782   22.8797 C   0  0  0  0  0  0  0  0  0  0  0  0
   10.6906   14.1548   23.6899 N   0  0  0  0  0  0  0  0  0  0  0  0
   11.9624   14.5707   23.2430 N   0  0  0  0  0  0  0  0  0  0  0  0
   12.1012   14.9441   22.0075 C   0  0  0  0  0  0  0  0  0  0  0  0
   10.9654   14.9874   21.0461 C   0  0  0  0  0  0  0  0  0  0  0  0
   11.1296   15.3132   19.8844 O   0  0  0  0  0  0  0  0  0  0  0  0
    9.7806   14.6496   21.5991 N   0  0  0  0  0  0  0  0  0  0  0  0
  1  2  1  0
  2  3  1  0
  3  4  2  0
  3  5  1  0
  5  6  2  0
  6  7  1  0
  7  8  1  0
  8  9  1  0
  8 10  1  0
  8 11  1  0
  7 12  2  0
 12 13  1  0
 13 14  2  0
 14 15  1  0
 15 16  1  0
 15 17  1  0
 17 18  2  0
 18 19  1  0
 19 20  2  0
 20 21  1  0
 21 22  2  0
 21 23  1  0
 14  5  1  0
 23 17  1  0
M  END
>  <energy_score>  (763) 
-47.785356

>  <inchikey>  (763) 
None

>  <smiles>  (763) 
None

>  <ref_pdb>  (763) 
A0514a

>  <alias>  (763) 
None

>  <HIPPO Pose ID>  (763) 
498407

>  <name>  (763) 
P498407

>  <HIPPO Compound ID>  (763) 
292842

>  <ref_mols>  (763) 
A4331a,A0514a

>  <distance_score>  (763) 
1.774357

>  <inspiration_score>  (763) 
None

$$$$
P498408
     RDKit          3D

 23 24  0  0  0  0  0  0  0  0999 V2000
    9.5958    8.7454   22.9940 C   0  0  0  0  0  0  0  0  0  0  0  0
    8.7523    9.5895   23.7732 O   0  0  0  0  0  0  0  0  0  0  0  0
    9.0431   10.9090   23.7061 C   0  0  0  0  0  0  0  0  0  0  0  0
    9.9533   11.4051   23.0722 O   0  0  0  0  0  0  0  0  0  0  0  0
    8.1258   11.6680   24.5861 C   0  0  0  0  0  0  0  0  0  0  0  0
    7.2581   10.9641   25.4379 C   0  0  0  0  0  0  0  0  0  0  0  0
    6.4349   11.6724   26.3034 C   0  0  0  0  0  0  0  0  0  0  0  0
    5.4581   10.9502   27.1938 C   0  0  0  0  0  0  0  0  0  0  0  0
    4.3397   11.6783   27.4653 F   0  0  0  0  0  0  0  0  0  0  0  0
    5.0212    9.7734   26.6682 F   0  0  0  0  0  0  0  0  0  0  0  0
    5.9956   10.6271   28.4070 F   0  0  0  0  0  0  0  0  0  0  0  0
    6.5015   13.0218   26.4093 N   0  0  0  0  0  0  0  0  0  0  0  0
    7.2690   13.6789   25.5212 C   0  0  0  0  0  0  0  0  0  0  0  0
    8.0970   13.0678   24.5893 C   0  0  0  0  0  0  0  0  0  0  0  0
    8.5574   13.9095   23.5500 N   0  0  0  0  0  0  0  0  0  0  0  0
    9.8910   14.1316   23.4760 N   0  0  0  0  0  0  0  0  0  0  0  0
   10.4637   14.5923   22.4046 C   0  0  0  0  0  0  0  0  0  0  0  0
   12.1925   14.6944   22.4061 S   0  0  0  0  0  0  0  0  0  0  0  0
   12.4502   13.7380   23.9125 C   0  0  0  0  0  0  0  0  0  0  0  0
    9.6994   15.1874   20.9860 S   0  0  0  0  0  0  0  0  0  0  0  0
    8.0491   15.2629   21.6355 C   0  0  0  0  0  0  0  0  0  0  0  0
    7.7493   14.0611   22.4464 C   0  0  0  0  0  0  0  0  0  0  0  0
    6.8310   13.3023   22.1606 O   0  0  0  0  0  0  0  0  0  0  0  0
  1  2  1  0
  2  3  1  0
  3  4  2  0
  3  5  1  0
  5  6  2  0
  6  7  1  0
  7  8  1  0
  8  9  1  0
  8 10  1  0
  8 11  1  0
  7 12  2  0
 12 13  1  0
 13 14  2  0
 14 15  1  0
 15 16  1  0
 16 17  2  0
 17 18  1  0
 18 19  1  0
 17 20  1  0
 20 21  1  0
 21 22  1  0
 22 23  2  0
 14  5  1  0
 22 15  1  0
M  END
>  <energy_score>  (764) 
-25.839569

>  <inchikey>  (764) 
None

>  <smiles>  (764) 
None

>  <ref_pdb>  (764) 
A0514a

>  <alias>  (764) 
None

>  <HIPPO Pose ID>  (764) 
498408

>  <name>  (764) 
P498408

>  <HIPPO Compound ID>  (764) 
292843

>  <ref_mols>  (764) 
A4331a,A0514a

>  <distance_score>  (764) 
1.638894

>  <inspiration_score>  (764) 
None

$$$$
P498409
     RDKit          3D

 23 24  0  0  0  0  0  0  0  0999 V2000
    9.3545    8.5026   22.9995 C   0  0  0  0  0  0  0  0  0  0  0  0
    8.4594    9.2293   23.8415 O   0  0  0  0  0  0  0  0  0  0  0  0
    8.8674   10.4958   24.0678 C   0  0  0  0  0  0  0  0  0  0  0  0
    9.9153   10.9869   23.6874 O   0  0  0  0  0  0  0  0  0  0  0  0
    7.8170   11.2307   24.8127 C   0  0  0  0  0  0  0  0  0  0  0  0
    6.9162   10.5629   25.6417 C   0  0  0  0  0  0  0  0  0  0  0  0
    5.9751   11.3174   26.3334 C   0  0  0  0  0  0  0  0  0  0  0  0
    5.1524   10.6948   27.4308 C   0  0  0  0  0  0  0  0  0  0  0  0
    4.1745   11.5238   27.8917 F   0  0  0  0  0  0  0  0  0  0  0  0
    4.5232    9.5495   27.0564 F   0  0  0  0  0  0  0  0  0  0  0  0
    5.9045   10.3658   28.5221 F   0  0  0  0  0  0  0  0  0  0  0  0
    5.8095   12.6498   26.1241 N   0  0  0  0  0  0  0  0  0  0  0  0
    6.6359   13.2593   25.2561 C   0  0  0  0  0  0  0  0  0  0  0  0
    7.7281   12.6228   24.6723 C   0  0  0  0  0  0  0  0  0  0  0  0
    8.6531   13.2945   23.7940 N   0  0  0  0  0  0  0  0  0  0  0  0
    9.2318   13.7520   25.2033 N   0  0  0  0  0  0  0  0  0  0  0  0
    8.4555   14.4738   22.8728 C   0  0  0  0  0  0  0  0  0  0  0  0
    7.5189   15.1694   22.7166 O   0  0  0  0  0  0  0  0  0  0  0  0
    9.7531   14.6806   22.2299 C   0  0  0  0  0  0  0  0  0  0  0  0
   10.8943   14.4526   22.8687 N   0  0  0  0  0  0  0  0  0  0  0  0
   11.9312   14.6623   21.9888 C   0  0  0  0  0  0  0  0  0  0  0  0
   11.5618   15.0362   20.7172 C   0  0  0  0  0  0  0  0  0  0  0  0
    9.8879   15.3705   20.6867 S   0  0  0  0  0  0  0  0  0  0  0  0
  1  2  1  0
  2  3  1  0
  3  4  2  0
  3  5  1  0
  5  6  2  0
  6  7  1  0
  7  8  1  0
  8  9  1  0
  8 10  1  0
  8 11  1  0
  7 12  2  0
 12 13  1  0
 13 14  2  0
 14 15  1  0
 15 16  1  0
 15 17  1  0
 17 18  2  0
 17 19  1  0
 19 20  2  0
 20 21  1  0
 21 22  2  0
 22 23  1  0
 14  5  1  0
 23 19  1  0
M  END
>  <energy_score>  (765) 
-21.822754

>  <inchikey>  (765) 
None

>  <smiles>  (765) 
None

>  <ref_pdb>  (765) 
A0514a

>  <alias>  (765) 
None

>  <HIPPO Pose ID>  (765) 
498409

>  <name>  (765) 
P498409

>  <HIPPO Compound ID>  (765) 
292847

>  <ref_mols>  (765) 
A4331a,A0514a

>  <distance_score>  (765) 
1.210661

>  <inspiration_score>  (765) 
None

$$$$
P498410
     RDKit          3D

 23 24  0  0  0  0  0  0  0  0999 V2000
   10.9760   15.4321   18.8067 C   0  0  0  0  0  0  0  0  0  0  0  0
   10.9954   15.4850   20.2242 O   0  0  0  0  0  0  0  0  0  0  0  0
    9.6993   15.4520   20.8000 C   0  0  0  0  0  0  0  0  0  0  0  0
    9.7882   14.4924   21.9317 C   0  0  0  0  0  0  0  0  0  0  0  0
    8.7834   13.8370   22.4397 N   0  0  0  0  0  0  0  0  0  0  0  0
    9.3009   13.0754   23.4780 N   0  0  0  0  0  0  0  0  0  0  0  0
    8.3423   12.6826   24.4383 C   0  0  0  0  0  0  0  0  0  0  0  0
    7.6129   13.6727   25.0893 C   0  0  0  0  0  0  0  0  0  0  0  0
    6.6425   13.4434   25.9997 N   0  0  0  0  0  0  0  0  0  0  0  0
    6.2929   12.1585   26.2351 C   0  0  0  0  0  0  0  0  0  0  0  0
    5.3542   11.8514   27.3647 C   0  0  0  0  0  0  0  0  0  0  0  0
    4.3865   12.7786   27.5650 F   0  0  0  0  0  0  0  0  0  0  0  0
    6.0665   11.7691   28.5210 F   0  0  0  0  0  0  0  0  0  0  0  0
    4.7081   10.6579   27.2438 F   0  0  0  0  0  0  0  0  0  0  0  0
    6.9253   11.1079   25.6092 C   0  0  0  0  0  0  0  0  0  0  0  0
    7.9707   11.3622   24.7118 C   0  0  0  0  0  0  0  0  0  0  0  0
    8.5223   10.1155   24.1619 C   0  0  0  0  0  0  0  0  0  0  0  0
    8.1311    9.0336   24.5801 O   0  0  0  0  0  0  0  0  0  0  0  0
    9.4359   10.2926   23.1982 O   0  0  0  0  0  0  0  0  0  0  0  0
    9.8495    9.0359   22.6704 C   0  0  0  0  0  0  0  0  0  0  0  0
   10.6180   13.4863   23.7912 C   0  0  0  0  0  0  0  0  0  0  0  0
   11.2887   13.3368   24.7956 O   0  0  0  0  0  0  0  0  0  0  0  0
   11.0847   14.2564   22.6175 C   0  0  0  0  0  0  0  0  0  0  0  0
  1  2  1  0
  2  3  1  0
  3  4  1  0
  4  5  2  0
  5  6  1  0
  6  7  1  0
  7  8  2  0
  8  9  1  0
  9 10  2  0
 10 11  1  0
 11 12  1  0
 11 13  1  0
 11 14  1  0
 10 15  1  0
 15 16  2  0
 16 17  1  0
 17 18  2  0
 17 19  1  0
 19 20  1  0
  6 21  1  0
 21 22  2  0
 21 23  1  0
 23  4  1  0
 16  7  1  0
M  END
>  <energy_score>  (766) 
-23.3036

>  <inchikey>  (766) 
None

>  <smiles>  (766) 
None

>  <ref_pdb>  (766) 
A0514a

>  <alias>  (766) 
None

>  <HIPPO Pose ID>  (766) 
498410

>  <name>  (766) 
P498410

>  <HIPPO Compound ID>  (766) 
292854

>  <ref_mols>  (766) 
A4331a,A0514a

>  <distance_score>  (766) 
1.725628

>  <inspiration_score>  (766) 
None

$$$$
P498411
     RDKit          3D

 23 25  0  0  0  0  0  0  0  0999 V2000
    9.5802    8.3588   23.4140 C   0  0  0  0  0  0  0  0  0  0  0  0
    8.7916    9.2754   24.1682 O   0  0  0  0  0  0  0  0  0  0  0  0
    8.9459   10.5238   23.6757 C   0  0  0  0  0  0  0  0  0  0  0  0
    9.6329   10.7972   22.7091 O   0  0  0  0  0  0  0  0  0  0  0  0
    8.1883   11.5200   24.4648 C   0  0  0  0  0  0  0  0  0  0  0  0
    7.1006   11.1446   25.2468 C   0  0  0  0  0  0  0  0  0  0  0  0
    6.4139   12.1284   25.9512 C   0  0  0  0  0  0  0  0  0  0  0  0
    5.2585   11.7513   26.8472 C   0  0  0  0  0  0  0  0  0  0  0  0
    5.4427   12.1607   28.1321 F   0  0  0  0  0  0  0  0  0  0  0  0
    4.0611   12.2720   26.4620 F   0  0  0  0  0  0  0  0  0  0  0  0
    5.0639   10.4015   26.9305 F   0  0  0  0  0  0  0  0  0  0  0  0
    6.7624   13.4362   25.8898 N   0  0  0  0  0  0  0  0  0  0  0  0
    7.8028   13.7649   25.1037 C   0  0  0  0  0  0  0  0  0  0  0  0
    8.5836   12.8617   24.3979 C   0  0  0  0  0  0  0  0  0  0  0  0
    9.8085   13.2025   23.8145 N   0  0  0  0  0  0  0  0  0  0  0  0
   10.8854   13.0569   24.7266 N   0  0  0  0  0  0  0  0  0  0  0  0
    9.9564   14.4120   23.0108 C   0  0  2  0  0  0  0  0  0  0  0  0
    8.7937   14.7733   22.0872 C   0  0  0  0  0  0  0  0  0  0  0  0
    9.5268   15.1242   20.8055 C   0  0  1  0  0  0  0  0  0  0  0  0
   10.4991   16.2794   20.8793 C   0  0  0  0  0  0  0  0  0  0  0  0
   11.7172   15.6812   21.6476 C   0  0  0  0  0  0  0  0  0  0  0  0
   11.1925   14.3342   22.0792 C   0  0  2  0  0  0  0  0  0  0  0  0
   10.5341   14.0211   20.7752 C   0  0  0  0  0  0  0  0  0  0  0  0
  1  2  1  0
  2  3  1  0
  3  4  2  0
  3  5  1  0
  5  6  2  0
  6  7  1  0
  7  8  1  0
  8  9  1  0
  8 10  1  0
  8 11  1  0
  7 12  2  0
 12 13  1  0
 13 14  2  0
 14 15  1  0
 15 16  1  0
 17 15  1  6
 17 18  1  0
 19 18  1  1
 19 20  1  0
 20 21  1  0
 22 21  1  6
 22 23  1  0
 14  5  1  0
 22 17  1  0
 23 19  1  0
M  END
>  <energy_score>  (767) 
-21.743697

>  <inchikey>  (767) 
None

>  <smiles>  (767) 
None

>  <ref_pdb>  (767) 
A0514a

>  <alias>  (767) 
None

>  <HIPPO Pose ID>  (767) 
498411

>  <name>  (767) 
P498411

>  <HIPPO Compound ID>  (767) 
292856

>  <ref_mols>  (767) 
A4331a,A0514a

>  <distance_score>  (767) 
1.980929

>  <inspiration_score>  (767) 
None

$$$$
P498412
     RDKit          3D

 23 23  0  0  0  0  0  0  0  0999 V2000
    5.3486   14.9382   22.6562 C   0  0  0  0  0  0  0  0  0  0  0  0
    6.5033   14.4659   23.3362 O   0  0  0  0  0  0  0  0  0  0  0  0
    7.6123   14.3112   22.4545 C   0  0  0  0  0  0  0  0  0  0  0  0
    8.9475   14.1780   23.2144 C   0  0  0  0  0  0  0  0  0  0  0  0
   10.1111   14.2966   22.2126 C   0  0  0  0  0  0  0  0  0  0  0  0
    9.8122   15.1935   21.1574 O   0  0  0  0  0  0  0  0  0  0  0  0
   10.9184   15.3239   20.2804 C   0  0  0  0  0  0  0  0  0  0  0  0
    9.1301   12.9140   24.0011 N   0  0  0  0  0  0  0  0  0  0  0  0
   10.4273   12.6699   24.5405 N   0  0  0  0  0  0  0  0  0  0  0  0
    8.1124   12.5714   24.9032 C   0  0  0  0  0  0  0  0  0  0  0  0
    7.5510   13.5289   25.7502 C   0  0  0  0  0  0  0  0  0  0  0  0
    6.5515   13.3189   26.6246 N   0  0  0  0  0  0  0  0  0  0  0  0
    6.0027   12.0883   26.6471 C   0  0  0  0  0  0  0  0  0  0  0  0
    4.7890   11.8953   27.5071 C   0  0  0  0  0  0  0  0  0  0  0  0
    4.4752   10.5873   27.6874 F   0  0  0  0  0  0  0  0  0  0  0  0
    3.6575   12.4588   26.9916 F   0  0  0  0  0  0  0  0  0  0  0  0
    4.9239   12.4040   28.7661 F   0  0  0  0  0  0  0  0  0  0  0  0
    6.5206   11.0425   25.9020 C   0  0  0  0  0  0  0  0  0  0  0  0
    7.6103   11.2739   25.0486 C   0  0  0  0  0  0  0  0  0  0  0  0
    8.1294   10.0498   24.3997 C   0  0  0  0  0  0  0  0  0  0  0  0
    7.6980    8.9610   24.7545 O   0  0  0  0  0  0  0  0  0  0  0  0
    9.0741   10.2410   23.4594 O   0  0  0  0  0  0  0  0  0  0  0  0
    9.5999    9.0222   22.9314 C   0  0  0  0  0  0  0  0  0  0  0  0
  1  2  1  0
  2  3  1  0
  3  4  1  0
  4  5  1  0
  5  6  1  0
  6  7  1  0
  4  8  1  0
  8  9  1  0
  8 10  1  0
 10 11  2  0
 11 12  1  0
 12 13  2  0
 13 14  1  0
 14 15  1  0
 14 16  1  0
 14 17  1  0
 13 18  1  0
 18 19  2  0
 19 20  1  0
 20 21  2  0
 20 22  1  0
 22 23  1  0
 19 10  1  0
M  END
>  <energy_score>  (768) 
-32.716499

>  <inchikey>  (768) 
None

>  <smiles>  (768) 
None

>  <ref_pdb>  (768) 
A0514a

>  <alias>  (768) 
None

>  <HIPPO Pose ID>  (768) 
498412

>  <name>  (768) 
P498412

>  <HIPPO Compound ID>  (768) 
292858

>  <ref_mols>  (768) 
A4331a,A0514a

>  <distance_score>  (768) 
1.366565

>  <inspiration_score>  (768) 
None

$$$$
P498413
     RDKit          3D

 23 24  0  0  0  0  0  0  0  0999 V2000
    9.4605    8.8704   23.0759 C   0  0  0  0  0  0  0  0  0  0  0  0
    8.5581    9.8059   23.6689 O   0  0  0  0  0  0  0  0  0  0  0  0
    9.1156   11.0162   23.9111 C   0  0  0  0  0  0  0  0  0  0  0  0
   10.2923   11.2932   23.7785 O   0  0  0  0  0  0  0  0  0  0  0  0
    8.0675   11.9525   24.3719 C   0  0  0  0  0  0  0  0  0  0  0  0
    7.1005   11.4520   25.2544 C   0  0  0  0  0  0  0  0  0  0  0  0
    6.1821   12.3257   25.8327 C   0  0  0  0  0  0  0  0  0  0  0  0
    5.2960   11.8654   26.9636 C   0  0  0  0  0  0  0  0  0  0  0  0
    5.1051   10.5215   26.9693 F   0  0  0  0  0  0  0  0  0  0  0  0
    5.8385   12.1457   28.1857 F   0  0  0  0  0  0  0  0  0  0  0  0
    4.0452   12.4040   26.9665 F   0  0  0  0  0  0  0  0  0  0  0  0
    6.1231   13.6271   25.4888 N   0  0  0  0  0  0  0  0  0  0  0  0
    7.0374   14.0728   24.6119 C   0  0  0  0  0  0  0  0  0  0  0  0
    8.1110   13.3293   24.1097 C   0  0  0  0  0  0  0  0  0  0  0  0
    9.2855   14.0765   23.8981 N   0  0  0  0  0  0  0  0  0  0  0  0
    9.9837   14.1797   25.1610 N   0  0  0  0  0  0  0  0  0  0  0  0
   10.1311   13.9618   22.6586 C   0  0  2  0  0  0  0  0  0  0  0  0
   11.5938   14.2947   23.0302 C   0  0  0  0  0  0  0  0  0  0  0  0
   12.4524   14.6446   21.8561 C   0  0  0  0  0  0  0  0  0  0  0  0
   11.8097   15.6294   21.0886 O   0  0  0  0  0  0  0  0  0  0  0  0
   10.6784   15.0680   20.4435 C   0  0  2  0  0  0  0  0  0  0  0  0
   10.3037   15.9920   19.3094 C   0  0  0  0  0  0  0  0  0  0  0  0
    9.5877   14.8196   21.4903 C   0  0  0  0  0  0  0  0  0  0  0  0
  1  2  1  0
  2  3  1  0
  3  4  2  0
  3  5  1  0
  5  6  2  0
  6  7  1  0
  7  8  1  0
  8  9  1  0
  8 10  1  0
  8 11  1  0
  7 12  2  0
 12 13  1  0
 13 14  2  0
 14 15  1  0
 15 16  1  0
 17 15  1  1
 17 18  1  0
 18 19  1  0
 19 20  1  0
 20 21  1  0
 21 22  1  6
 21 23  1  0
 14  5  1  0
 23 17  1  0
M  END
>  <energy_score>  (769) 
-34.270865

>  <inchikey>  (769) 
None

>  <smiles>  (769) 
None

>  <ref_pdb>  (769) 
A0514a

>  <alias>  (769) 
None

>  <HIPPO Pose ID>  (769) 
498413

>  <name>  (769) 
P498413

>  <HIPPO Compound ID>  (769) 
292864

>  <ref_mols>  (769) 
A4331a,A0514a

>  <distance_score>  (769) 
1.695044

>  <inspiration_score>  (769) 
None

$$$$
P498414
     RDKit          3D

 23 24  0  0  0  0  0  0  0  0999 V2000
    9.4893    8.6703   23.0438 C   0  0  0  0  0  0  0  0  0  0  0  0
    8.6143    9.5276   23.7765 O   0  0  0  0  0  0  0  0  0  0  0  0
    9.1000   10.7818   23.9290 C   0  0  0  0  0  0  0  0  0  0  0  0
   10.2038   11.1598   23.5870 O   0  0  0  0  0  0  0  0  0  0  0  0
    8.0499   11.6461   24.5120 C   0  0  0  0  0  0  0  0  0  0  0  0
    7.0406   11.0851   25.2965 C   0  0  0  0  0  0  0  0  0  0  0  0
    6.0909   11.9235   25.8735 C   0  0  0  0  0  0  0  0  0  0  0  0
    5.1908   11.4180   26.9697 C   0  0  0  0  0  0  0  0  0  0  0  0
    5.6654   11.7692   28.1984 F   0  0  0  0  0  0  0  0  0  0  0  0
    3.9161   11.9003   26.9287 F   0  0  0  0  0  0  0  0  0  0  0  0
    5.0748   10.0605   27.0012 F   0  0  0  0  0  0  0  0  0  0  0  0
    6.0108   13.2363   25.5686 N   0  0  0  0  0  0  0  0  0  0  0  0
    6.9594   13.7296   24.7630 C   0  0  0  0  0  0  0  0  0  0  0  0
    8.1093   13.0363   24.3811 C   0  0  0  0  0  0  0  0  0  0  0  0
    9.3405   13.7061   24.4693 N   0  0  0  0  0  0  0  0  0  0  0  0
    9.4348   14.5354   25.6475 N   0  0  0  0  0  0  0  0  0  0  0  0
   10.1262   14.2002   23.3292 C   0  0  1  0  0  0  0  0  0  0  0  0
   11.6094   14.0731   23.6655 C   0  0  0  0  0  0  0  0  0  0  0  0
   12.4437   14.3821   22.4450 C   0  0  0  0  0  0  0  0  0  0  0  0
   11.7849   15.3304   21.6359 O   0  0  0  0  0  0  0  0  0  0  0  0
   10.6985   14.7030   20.9565 C   0  0  2  0  0  0  0  0  0  0  0  0
    9.8816   15.7988   20.3266 C   0  0  0  0  0  0  0  0  0  0  0  0
    9.8571   13.8031   21.9092 C   0  0  0  0  0  0  0  0  0  0  0  0
  1  2  1  0
  2  3  1  0
  3  4  2  0
  3  5  1  0
  5  6  2  0
  6  7  1  0
  7  8  1  0
  8  9  1  0
  8 10  1  0
  8 11  1  0
  7 12  2  0
 12 13  1  0
 13 14  2  0
 14 15  1  0
 15 16  1  0
 17 15  1  1
 17 18  1  0
 18 19  1  0
 19 20  1  0
 20 21  1  0
 21 22  1  1
 21 23  1  0
 14  5  1  0
 23 17  1  0
M  END
>  <energy_score>  (770) 
-5.034437

>  <inchikey>  (770) 
None

>  <smiles>  (770) 
None

>  <ref_pdb>  (770) 
A0514a

>  <alias>  (770) 
None

>  <HIPPO Pose ID>  (770) 
498414

>  <name>  (770) 
P498414

>  <HIPPO Compound ID>  (770) 
292864

>  <ref_mols>  (770) 
A4331a,A0514a

>  <distance_score>  (770) 
1.815609

>  <inspiration_score>  (770) 
None

$$$$
P498415
     RDKit          3D

 23 24  0  0  0  0  0  0  0  0999 V2000
    9.5158    8.7591   22.9643 C   0  0  0  0  0  0  0  0  0  0  0  0
    8.6348    9.7028   23.5713 O   0  0  0  0  0  0  0  0  0  0  0  0
    9.2246   10.8814   23.8718 C   0  0  0  0  0  0  0  0  0  0  0  0
   10.3994   11.1534   23.7257 O   0  0  0  0  0  0  0  0  0  0  0  0
    8.2216   11.8001   24.4499 C   0  0  0  0  0  0  0  0  0  0  0  0
    7.2451   11.2088   25.2622 C   0  0  0  0  0  0  0  0  0  0  0  0
    6.3601   12.0068   25.9739 C   0  0  0  0  0  0  0  0  0  0  0  0
    5.4406   11.3655   26.9846 C   0  0  0  0  0  0  0  0  0  0  0  0
    4.2721   12.0338   27.1758 F   0  0  0  0  0  0  0  0  0  0  0  0
    6.0188   11.2650   28.2182 F   0  0  0  0  0  0  0  0  0  0  0  0
    5.0920   10.0896   26.6519 F   0  0  0  0  0  0  0  0  0  0  0  0
    6.3645   13.3502   25.8620 N   0  0  0  0  0  0  0  0  0  0  0  0
    7.2839   13.8885   25.0402 C   0  0  0  0  0  0  0  0  0  0  0  0
    8.2963   13.1972   24.3627 C   0  0  0  0  0  0  0  0  0  0  0  0
    9.4011   13.9757   23.9473 N   0  0  0  0  0  0  0  0  0  0  0  0
   10.2726   14.2030   25.0597 N   0  0  0  0  0  0  0  0  0  0  0  0
   10.0259   13.7427   22.5959 C   0  0  2  0  0  0  0  0  0  0  0  0
   11.5449   13.6217   22.6387 C   0  0  0  0  0  0  0  0  0  0  0  0
   12.1927   14.9531   22.4462 C   0  0  0  0  0  0  0  0  0  0  0  0
   11.9278   15.4183   21.1536 O   0  0  0  0  0  0  0  0  0  0  0  0
   10.5636   15.6497   20.8418 C   0  0  1  0  0  0  0  0  0  0  0  0
   10.5118   15.5518   19.3207 C   0  0  0  0  0  0  0  0  0  0  0  0
    9.5230   14.7605   21.5583 C   0  0  0  0  0  0  0  0  0  0  0  0
  1  2  1  0
  2  3  1  0
  3  4  2  0
  3  5  1  0
  5  6  2  0
  6  7  1  0
  7  8  1  0
  8  9  1  0
  8 10  1  0
  8 11  1  0
  7 12  2  0
 12 13  1  0
 13 14  2  0
 14 15  1  0
 15 16  1  0
 17 15  1  1
 17 18  1  0
 18 19  1  0
 19 20  1  0
 20 21  1  0
 21 22  1  6
 21 23  1  0
 14  5  1  0
 23 17  1  0
M  END
>  <energy_score>  (771) 
-39.912178

>  <inchikey>  (771) 
None

>  <smiles>  (771) 
None

>  <ref_pdb>  (771) 
A0514a

>  <alias>  (771) 
None

>  <HIPPO Pose ID>  (771) 
498415

>  <name>  (771) 
P498415

>  <HIPPO Compound ID>  (771) 
292864

>  <ref_mols>  (771) 
A4331a,A0514a

>  <distance_score>  (771) 
1.735851

>  <inspiration_score>  (771) 
None

$$$$
P498416
     RDKit          3D

 23 24  0  0  0  0  0  0  0  0999 V2000
    9.6475    8.4337   23.4579 C   0  0  0  0  0  0  0  0  0  0  0  0
    8.8203    9.3873   24.1203 O   0  0  0  0  0  0  0  0  0  0  0  0
    9.0407   10.6186   23.6099 C   0  0  0  0  0  0  0  0  0  0  0  0
    9.8144   10.8643   22.7019 O   0  0  0  0  0  0  0  0  0  0  0  0
    8.2009   11.6473   24.2628 C   0  0  0  0  0  0  0  0  0  0  0  0
    7.1267   11.2996   25.0727 C   0  0  0  0  0  0  0  0  0  0  0  0
    6.3870   12.3156   25.6659 C   0  0  0  0  0  0  0  0  0  0  0  0
    5.2893   11.9588   26.6423 C   0  0  0  0  0  0  0  0  0  0  0  0
    5.5426   12.4095   27.9034 F   0  0  0  0  0  0  0  0  0  0  0  0
    4.0618   12.4533   26.3161 F   0  0  0  0  0  0  0  0  0  0  0  0
    5.1099   10.6103   26.7852 F   0  0  0  0  0  0  0  0  0  0  0  0
    6.6403   13.6289   25.4272 N   0  0  0  0  0  0  0  0  0  0  0  0
    7.6891   13.9262   24.6293 C   0  0  0  0  0  0  0  0  0  0  0  0
    8.5579   12.9946   24.0825 C   0  0  0  0  0  0  0  0  0  0  0  0
    9.8927   13.2854   23.8105 N   0  0  0  0  0  0  0  0  0  0  0  0
   10.6098   13.1352   25.0405 N   0  0  0  0  0  0  0  0  0  0  0  0
   10.4386   14.2915   22.8762 C   0  0  1  0  0  0  0  0  0  0  0  0
   11.9608   14.0988   22.7936 C   0  0  0  0  0  0  0  0  0  0  0  0
   12.5738   15.2249   22.0208 C   0  0  0  0  0  0  0  0  0  0  0  0
   12.0563   15.2464   20.7284 O   0  0  0  0  0  0  0  0  0  0  0  0
   10.6569   15.4932   20.6771 C   0  0  1  0  0  0  0  0  0  0  0  0
   10.3967   15.5777   19.1904 C   0  0  0  0  0  0  0  0  0  0  0  0
    9.8705   14.4177   21.4657 C   0  0  0  0  0  0  0  0  0  0  0  0
  1  2  1  0
  2  3  1  0
  3  4  2  0
  3  5  1  0
  5  6  2  0
  6  7  1  0
  7  8  1  0
  8  9  1  0
  8 10  1  0
  8 11  1  0
  7 12  2  0
 12 13  1  0
 13 14  2  0
 14 15  1  0
 15 16  1  0
 17 15  1  6
 17 18  1  0
 18 19  1  0
 19 20  1  0
 20 21  1  0
 21 22  1  6
 21 23  1  0
 14  5  1  0
 23 17  1  0
M  END
>  <energy_score>  (772) 
-26.102999

>  <inchikey>  (772) 
None

>  <smiles>  (772) 
None

>  <ref_pdb>  (772) 
A0514a

>  <alias>  (772) 
None

>  <HIPPO Pose ID>  (772) 
498416

>  <name>  (772) 
P498416

>  <HIPPO Compound ID>  (772) 
292864

>  <ref_mols>  (772) 
A4331a,A0514a

>  <distance_score>  (772) 
1.714943

>  <inspiration_score>  (772) 
None

$$$$
P498417
     RDKit          3D

 23 24  0  0  0  0  0  0  0  0999 V2000
    9.6188    8.8681   22.9994 C   0  0  0  0  0  0  0  0  0  0  0  0
    8.7180    9.7948   23.6017 O   0  0  0  0  0  0  0  0  0  0  0  0
    9.2331   11.0284   23.8091 C   0  0  0  0  0  0  0  0  0  0  0  0
   10.3748   11.3797   23.5794 O   0  0  0  0  0  0  0  0  0  0  0  0
    8.1970   11.8881   24.4276 C   0  0  0  0  0  0  0  0  0  0  0  0
    7.1917   11.2665   25.1746 C   0  0  0  0  0  0  0  0  0  0  0  0
    6.3142   12.0410   25.9235 C   0  0  0  0  0  0  0  0  0  0  0  0
    5.4161   11.3633   26.9286 C   0  0  0  0  0  0  0  0  0  0  0  0
    4.2312   11.9984   27.1365 F   0  0  0  0  0  0  0  0  0  0  0  0
    5.1015   10.0790   26.5939 F   0  0  0  0  0  0  0  0  0  0  0  0
    6.0018   11.2674   28.1613 F   0  0  0  0  0  0  0  0  0  0  0  0
    6.3308   13.3911   25.8835 N   0  0  0  0  0  0  0  0  0  0  0  0
    7.2932   13.9630   25.1370 C   0  0  0  0  0  0  0  0  0  0  0  0
    8.3061   13.2838   24.4581 C   0  0  0  0  0  0  0  0  0  0  0  0
    9.5241   13.9839   24.2981 N   0  0  0  0  0  0  0  0  0  0  0  0
   10.3563   13.7776   25.4648 N   0  0  0  0  0  0  0  0  0  0  0  0
   10.2933   14.2500   23.1258 C   0  0  0  0  0  0  0  0  0  0  0  0
   11.6271   14.3735   23.3818 N   0  0  0  0  0  0  0  0  0  0  0  0
   12.4218   14.7112   22.3681 C   0  0  0  0  0  0  0  0  0  0  0  0
   11.9698   15.0033   21.1299 C   0  0  0  0  0  0  0  0  0  0  0  0
   10.6080   14.9927   20.9915 C   0  0  0  0  0  0  0  0  0  0  0  0
   10.0593   15.6366   19.7677 C   0  0  0  0  0  0  0  0  0  0  0  0
    9.7412   14.5739   21.9533 N   0  0  0  0  0  0  0  0  0  0  0  0
  1  2  1  0
  2  3  1  0
  3  4  2  0
  3  5  1  0
  5  6  2  0
  6  7  1  0
  7  8  1  0
  8  9  1  0
  8 10  1  0
  8 11  1  0
  7 12  2  0
 12 13  1  0
 13 14  2  0
 14 15  1  0
 15 16  1  0
 15 17  1  0
 17 18  2  0
 18 19  1  0
 19 20  2  0
 20 21  1  0
 21 22  1  0
 21 23  2  0
 14  5  1  0
 23 17  1  0
M  END
>  <energy_score>  (773) 
-28.030221

>  <inchikey>  (773) 
None

>  <smiles>  (773) 
None

>  <ref_pdb>  (773) 
A0514a

>  <alias>  (773) 
None

>  <HIPPO Pose ID>  (773) 
498417

>  <name>  (773) 
P498417

>  <HIPPO Compound ID>  (773) 
292868

>  <ref_mols>  (773) 
A4331a,A0514a

>  <distance_score>  (773) 
1.642066

>  <inspiration_score>  (773) 
None

$$$$
P498418
     RDKit          3D

 23 24  0  0  0  0  0  0  0  0999 V2000
    9.4577    8.8956   23.0870 C   0  0  0  0  0  0  0  0  0  0  0  0
    8.5783    9.8416   23.7020 O   0  0  0  0  0  0  0  0  0  0  0  0
    9.1365   11.0606   23.8813 C   0  0  0  0  0  0  0  0  0  0  0  0
   10.3025   11.3522   23.6903 O   0  0  0  0  0  0  0  0  0  0  0  0
    8.1114   12.0076   24.3790 C   0  0  0  0  0  0  0  0  0  0  0  0
    7.0784   11.5372   25.1948 C   0  0  0  0  0  0  0  0  0  0  0  0
    6.2037   12.4545   25.7746 C   0  0  0  0  0  0  0  0  0  0  0  0
    5.2312   12.0212   26.8453 C   0  0  0  0  0  0  0  0  0  0  0  0
    5.1325   10.6719   26.9669 F   0  0  0  0  0  0  0  0  0  0  0  0
    5.6085   12.4517   28.0864 F   0  0  0  0  0  0  0  0  0  0  0  0
    3.9543   12.4607   26.6646 F   0  0  0  0  0  0  0  0  0  0  0  0
    6.2546   13.7752   25.4873 N   0  0  0  0  0  0  0  0  0  0  0  0
    7.2358   14.1953   24.6720 C   0  0  0  0  0  0  0  0  0  0  0  0
    8.2627   13.3887   24.1925 C   0  0  0  0  0  0  0  0  0  0  0  0
    9.5453   13.9891   24.1060 N   0  0  0  0  0  0  0  0  0  0  0  0
   10.1981   14.0209   25.3770 N   0  0  0  0  0  0  0  0  0  0  0  0
   10.3476   14.2774   22.9526 C   0  0  0  0  0  0  0  0  0  0  0  0
   11.7264   14.3161   23.1421 C   0  0  0  0  0  0  0  0  0  0  0  0
   12.4907   14.8539   22.1522 C   0  0  0  0  0  0  0  0  0  0  0  0
   11.9858   15.2899   21.0164 N   0  0  0  0  0  0  0  0  0  0  0  0
   10.6634   15.1738   20.8718 C   0  0  0  0  0  0  0  0  0  0  0  0
   10.1509   15.7881   19.6233 C   0  0  0  0  0  0  0  0  0  0  0  0
    9.7962   14.6736   21.7915 N   0  0  0  0  0  0  0  0  0  0  0  0
  1  2  1  0
  2  3  1  0
  3  4  2  0
  3  5  1  0
  5  6  2  0
  6  7  1  0
  7  8  1  0
  8  9  1  0
  8 10  1  0
  8 11  1  0
  7 12  2  0
 12 13  1  0
 13 14  2  0
 14 15  1  0
 15 16  1  0
 15 17  1  0
 17 18  2  0
 18 19  1  0
 19 20  2  0
 20 21  1  0
 21 22  1  0
 21 23  2  0
 14  5  1  0
 23 17  1  0
M  END
>  <energy_score>  (774) 
-6.790269

>  <inchikey>  (774) 
None

>  <smiles>  (774) 
None

>  <ref_pdb>  (774) 
A0514a

>  <alias>  (774) 
None

>  <HIPPO Pose ID>  (774) 
498418

>  <name>  (774) 
P498418

>  <HIPPO Compound ID>  (774) 
292869

>  <ref_mols>  (774) 
A4331a,A0514a

>  <distance_score>  (774) 
1.517044

>  <inspiration_score>  (774) 
None

$$$$
P498419
     RDKit          3D

 23 24  0  0  0  0  0  0  0  0999 V2000
    9.4194    8.5751   23.0513 C   0  0  0  0  0  0  0  0  0  0  0  0
    8.5563    9.2793   23.9474 O   0  0  0  0  0  0  0  0  0  0  0  0
    8.7622   10.6108   23.9864 C   0  0  0  0  0  0  0  0  0  0  0  0
    9.5872   11.2341   23.3381 O   0  0  0  0  0  0  0  0  0  0  0  0
    7.8505   11.2686   24.9550 C   0  0  0  0  0  0  0  0  0  0  0  0
    6.8690   10.5450   25.6305 C   0  0  0  0  0  0  0  0  0  0  0  0
    6.0739   11.2195   26.5492 C   0  0  0  0  0  0  0  0  0  0  0  0
    5.0982   10.4900   27.4231 C   0  0  0  0  0  0  0  0  0  0  0  0
    4.0430   11.2762   27.7809 F   0  0  0  0  0  0  0  0  0  0  0  0
    4.5566    9.3859   26.8459 F   0  0  0  0  0  0  0  0  0  0  0  0
    5.6622   10.0626   28.5903 F   0  0  0  0  0  0  0  0  0  0  0  0
    6.1918   12.5502   26.7883 N   0  0  0  0  0  0  0  0  0  0  0  0
    7.1094   13.2293   26.0981 C   0  0  0  0  0  0  0  0  0  0  0  0
    7.9915   12.6429   25.2053 C   0  0  0  0  0  0  0  0  0  0  0  0
    8.9223   13.4716   24.5626 N   0  0  0  0  0  0  0  0  0  0  0  0
    8.2750   14.1888   23.4579 C   0  0  0  0  0  0  0  0  0  0  0  0
    9.3340   14.6182   22.5044 C   0  0  0  0  0  0  0  0  0  0  0  0
   10.6078   14.5239   22.7441 N   0  0  0  0  0  0  0  0  0  0  0  0
   11.2071   15.0146   21.6221 N   0  0  0  0  0  0  0  0  0  0  0  0
   12.6209   15.0853   21.4983 C   0  0  0  0  0  0  0  0  0  0  0  0
   10.3384   15.4283   20.6191 C   0  0  0  0  0  0  0  0  0  0  0  0
   10.5900   15.8538   19.5094 O   0  0  0  0  0  0  0  0  0  0  0  0
    8.9822   15.2389   21.1999 C   0  0  0  0  0  0  0  0  0  0  0  0
  1  2  1  0
  2  3  1  0
  3  4  2  0
  3  5  1  0
  5  6  2  0
  6  7  1  0
  7  8  1  0
  8  9  1  0
  8 10  1  0
  8 11  1  0
  7 12  2  0
 12 13  1  0
 13 14  2  0
 14 15  1  0
 15 16  1  0
 16 17  1  0
 17 18  2  0
 18 19  1  0
 19 20  1  0
 19 21  1  0
 21 22  2  0
 21 23  1  0
 14  5  1  0
 23 17  1  0
M  END
>  <energy_score>  (775) 
-22.282139

>  <inchikey>  (775) 
None

>  <smiles>  (775) 
None

>  <ref_pdb>  (775) 
A0514a

>  <alias>  (775) 
None

>  <HIPPO Pose ID>  (775) 
498419

>  <name>  (775) 
P498419

>  <HIPPO Compound ID>  (775) 
292871

>  <ref_mols>  (775) 
A4331a,A0514a

>  <distance_score>  (775) 
1.108353

>  <inspiration_score>  (775) 
None

$$$$
P498420
     RDKit          3D

 23 24  0  0  0  0  0  0  0  0999 V2000
    9.5645    8.1624   23.3392 C   0  0  0  0  0  0  0  0  0  0  0  0
    8.7380    8.8921   24.2368 O   0  0  0  0  0  0  0  0  0  0  0  0
    8.6187   10.1427   23.7655 C   0  0  0  0  0  0  0  0  0  0  0  0
    8.9997   10.5042   22.6646 O   0  0  0  0  0  0  0  0  0  0  0  0
    8.0781   11.0873   24.7367 C   0  0  0  0  0  0  0  0  0  0  0  0
    6.9710   10.6803   25.4802 C   0  0  0  0  0  0  0  0  0  0  0  0
    6.3783   11.6110   26.3111 C   0  0  0  0  0  0  0  0  0  0  0  0
    5.2935   11.1981   27.2702 C   0  0  0  0  0  0  0  0  0  0  0  0
    4.2431   12.0605   27.3031 F   0  0  0  0  0  0  0  0  0  0  0  0
    4.7625    9.9739   26.9926 F   0  0  0  0  0  0  0  0  0  0  0  0
    5.7493   11.1038   28.5543 F   0  0  0  0  0  0  0  0  0  0  0  0
    6.8112   12.8965   26.3681 N   0  0  0  0  0  0  0  0  0  0  0  0
    7.8776   13.2520   25.6172 C   0  0  0  0  0  0  0  0  0  0  0  0
    8.6180   12.3880   24.8192 C   0  0  0  0  0  0  0  0  0  0  0  0
    9.8686   12.7875   24.2810 N   0  0  0  0  0  0  0  0  0  0  0  0
   10.7558   11.7707   23.8170 N   0  0  0  0  0  0  0  0  0  0  0  0
    9.9640   14.0885   23.5633 C   0  0  0  0  0  0  0  0  0  0  0  0
    9.3346   13.9061   22.1885 C   0  0  0  0  0  0  0  0  0  0  0  0
    9.2471   15.1072   21.2748 C   0  0  0  0  0  0  0  0  0  0  0  0
   10.5492   15.5797   20.6549 C   0  0  0  0  0  0  0  0  0  0  0  0
   11.8003   14.8331   21.0723 C   0  0  0  0  0  0  0  0  0  0  0  0
   12.2160   15.1169   22.4839 C   0  0  0  0  0  0  0  0  0  0  0  0
   11.4573   14.5063   23.6448 C   0  0  0  0  0  0  0  0  0  0  0  0
  1  2  1  0
  2  3  1  0
  3  4  2  0
  3  5  1  0
  5  6  2  0
  6  7  1  0
  7  8  1  0
  8  9  1  0
  8 10  1  0
  8 11  1  0
  7 12  2  0
 12 13  1  0
 13 14  2  0
 14 15  1  0
 15 16  1  0
 15 17  1  0
 17 18  1  0
 18 19  1  0
 19 20  1  0
 20 21  1  0
 21 22  1  0
 22 23  1  0
 14  5  1  0
 23 17  1  0
M  END
>  <energy_score>  (776) 
-16.989482

>  <inchikey>  (776) 
None

>  <smiles>  (776) 
None

>  <ref_pdb>  (776) 
A0514a

>  <alias>  (776) 
None

>  <HIPPO Pose ID>  (776) 
498420

>  <name>  (776) 
P498420

>  <HIPPO Compound ID>  (776) 
292881

>  <ref_mols>  (776) 
A4331a,A0514a

>  <distance_score>  (776) 
1.681419

>  <inspiration_score>  (776) 
None

$$$$
P498421
     RDKit          3D

 23 24  0  0  0  0  0  0  0  0999 V2000
    9.4025    8.7356   23.0370 C   0  0  0  0  0  0  0  0  0  0  0  0
    8.5502    9.6015   23.7903 O   0  0  0  0  0  0  0  0  0  0  0  0
    8.9558   10.8952   23.8035 C   0  0  0  0  0  0  0  0  0  0  0  0
    9.9547   11.3168   23.2554 O   0  0  0  0  0  0  0  0  0  0  0  0
    8.0480   11.7118   24.6462 C   0  0  0  0  0  0  0  0  0  0  0  0
    7.2548   11.0748   25.6008 C   0  0  0  0  0  0  0  0  0  0  0  0
    6.4411   11.8345   26.4355 C   0  0  0  0  0  0  0  0  0  0  0  0
    5.4792   11.1459   27.3716 C   0  0  0  0  0  0  0  0  0  0  0  0
    4.3461   11.8657   27.5989 F   0  0  0  0  0  0  0  0  0  0  0  0
    6.0208   10.8957   28.5990 F   0  0  0  0  0  0  0  0  0  0  0  0
    5.0568    9.9353   26.9093 F   0  0  0  0  0  0  0  0  0  0  0  0
    6.4728   13.1847   26.4420 N   0  0  0  0  0  0  0  0  0  0  0  0
    7.1743   13.7674   25.4602 C   0  0  0  0  0  0  0  0  0  0  0  0
    7.9350   13.0975   24.5041 C   0  0  0  0  0  0  0  0  0  0  0  0
    8.2691   13.8110   23.3330 N   0  0  0  0  0  0  0  0  0  0  0  0
    7.1878   13.9401   22.4374 N   0  0  0  0  0  0  0  0  0  0  0  0
    9.5857   14.1495   22.9029 C   0  0  0  0  0  0  0  0  0  0  0  0
    9.7996   14.5592   21.5920 C   0  0  0  0  0  0  0  0  0  0  0  0
   11.0976   14.7660   21.1877 C   0  0  0  0  0  0  0  0  0  0  0  0
   11.3946   15.0620   19.7515 C   0  0  0  0  0  0  0  0  0  0  0  0
   12.1316   14.6266   22.0339 N   0  0  0  0  0  0  0  0  0  0  0  0
   11.8232   14.2406   23.2734 C   0  0  0  0  0  0  0  0  0  0  0  0
   10.6015   14.0554   23.7855 N   0  0  0  0  0  0  0  0  0  0  0  0
  1  2  1  0
  2  3  1  0
  3  4  2  0
  3  5  1  0
  5  6  2  0
  6  7  1  0
  7  8  1  0
  8  9  1  0
  8 10  1  0
  8 11  1  0
  7 12  2  0
 12 13  1  0
 13 14  2  0
 14 15  1  0
 15 16  1  0
 15 17  1  0
 17 18  2  0
 18 19  1  0
 19 20  1  0
 19 21  2  0
 21 22  1  0
 22 23  2  0
 14  5  1  0
 23 17  1  0
M  END
>  <energy_score>  (777) 
-44.668214

>  <inchikey>  (777) 
None

>  <smiles>  (777) 
None

>  <ref_pdb>  (777) 
A0514a

>  <alias>  (777) 
None

>  <HIPPO Pose ID>  (777) 
498421

>  <name>  (777) 
P498421

>  <HIPPO Compound ID>  (777) 
292884

>  <ref_mols>  (777) 
A4331a,A0514a

>  <distance_score>  (777) 
1.814605

>  <inspiration_score>  (777) 
None

$$$$
P498422
     RDKit          3D

 23 24  0  0  0  0  0  0  0  0999 V2000
    9.3688    8.5025   23.1515 C   0  0  0  0  0  0  0  0  0  0  0  0
    8.6152    9.2466   24.1131 O   0  0  0  0  0  0  0  0  0  0  0  0
    8.6596   10.5857   23.9394 C   0  0  0  0  0  0  0  0  0  0  0  0
    9.2519   11.1628   23.0440 O   0  0  0  0  0  0  0  0  0  0  0  0
    7.8916   11.2791   24.9975 C   0  0  0  0  0  0  0  0  0  0  0  0
    6.8445   10.6196   25.6555 C   0  0  0  0  0  0  0  0  0  0  0  0
    6.1062   11.3102   26.6094 C   0  0  0  0  0  0  0  0  0  0  0  0
    5.0470   10.6702   27.4574 C   0  0  0  0  0  0  0  0  0  0  0  0
    3.8450   11.4864   27.8903 C   0  0  0  0  0  0  0  0  0  0  0  0
    4.9090   11.1556   28.8880 C   0  0  0  0  0  0  0  0  0  0  0  0
    6.3598   12.6079   26.8845 N   0  0  0  0  0  0  0  0  0  0  0  0
    7.3528   13.2207   26.2386 C   0  0  0  0  0  0  0  0  0  0  0  0
    8.1721   12.6172   25.2970 C   0  0  0  0  0  0  0  0  0  0  0  0
    9.1877   13.3962   24.7367 N   0  0  0  0  0  0  0  0  0  0  0  0
   10.5047   12.8964   24.8175 N   0  0  0  0  0  0  0  0  0  0  0  0
    8.7813   14.4514   23.7524 C   0  0  2  0  0  0  0  0  0  0  0  0
    7.3359   14.2986   23.2657 C   0  0  0  0  0  0  0  0  0  0  0  0
    9.9088   14.5944   22.6739 C   0  0  0  0  0  0  0  0  0  0  0  0
    9.8018   15.2627   21.2862 C   0  0  0  0  0  0  0  0  0  0  0  0
    9.8408   16.7553   20.9628 C   0  0  0  0  0  0  0  0  0  0  0  0
    8.5019   14.8320   20.7047 C   0  0  0  0  0  0  0  0  0  0  0  0
   10.8398   14.6973   20.4570 O   0  0  0  0  0  0  0  0  0  0  0  0
   12.1677   14.7919   20.9540 C   0  0  0  0  0  0  0  0  0  0  0  0
  1  2  1  0
  2  3  1  0
  3  4  2  0
  3  5  1  0
  5  6  2  0
  6  7  1  0
  7  8  1  0
  8  9  1  0
  9 10  1  0
  7 11  2  0
 11 12  1  0
 12 13  2  0
 13 14  1  0
 14 15  1  0
 14 16  1  0
 16 17  1  6
 16 18  1  0
 18 19  1  0
 19 20  1  0
 19 21  1  0
 19 22  1  0
 22 23  1  0
 13  5  1  0
 10  8  1  0
M  END
>  <energy_score>  (778) 
-18.027408

>  <inchikey>  (778) 
None

>  <smiles>  (778) 
None

>  <ref_pdb>  (778) 
A0514a

>  <alias>  (778) 
None

>  <HIPPO Pose ID>  (778) 
498422

>  <name>  (778) 
P498422

>  <HIPPO Compound ID>  (778) 
292891

>  <ref_mols>  (778) 
A4331a,A0514a

>  <distance_score>  (778) 
1.524427

>  <inspiration_score>  (778) 
None

$$$$
P498423
     RDKit          3D

 23 24  0  0  0  0  0  0  0  0999 V2000
    9.3507    8.5340   23.0026 C   0  0  0  0  0  0  0  0  0  0  0  0
    8.5397    9.3145   23.8822 O   0  0  0  0  0  0  0  0  0  0  0  0
    8.8947   10.6180   23.9382 C   0  0  0  0  0  0  0  0  0  0  0  0
    9.8111   11.1192   23.3119 O   0  0  0  0  0  0  0  0  0  0  0  0
    8.0303   11.3553   24.8999 C   0  0  0  0  0  0  0  0  0  0  0  0
    6.9554   10.7107   25.5341 C   0  0  0  0  0  0  0  0  0  0  0  0
    6.2193   11.3974   26.4935 C   0  0  0  0  0  0  0  0  0  0  0  0
    5.1402   10.7605   27.3210 C   0  0  0  0  0  0  0  0  0  0  0  0
    3.9626   11.5972   27.7835 C   0  0  0  0  0  0  0  0  0  0  0  0
    5.0155   11.2000   28.7679 C   0  0  0  0  0  0  0  0  0  0  0  0
    6.5074   12.6789   26.8068 N   0  0  0  0  0  0  0  0  0  0  0  0
    7.5191   13.2850   26.1800 C   0  0  0  0  0  0  0  0  0  0  0  0
    8.3340   12.6859   25.2296 C   0  0  0  0  0  0  0  0  0  0  0  0
    9.3847   13.4294   24.6295 N   0  0  0  0  0  0  0  0  0  0  0  0
   10.1987   14.2242   25.4908 N   0  0  0  0  0  0  0  0  0  0  0  0
    8.9012   14.0501   23.3531 C   0  0  1  0  0  0  0  0  0  0  0  0
    7.7380   15.0100   23.6341 C   0  0  0  0  0  0  0  0  0  0  0  0
   10.1210   14.5728   22.5403 C   0  0  0  0  0  0  0  0  0  0  0  0
    9.9019   15.1757   21.1328 C   0  0  0  0  0  0  0  0  0  0  0  0
    8.5286   14.8189   20.6685 C   0  0  0  0  0  0  0  0  0  0  0  0
   10.0186   16.6808   20.9240 C   0  0  0  0  0  0  0  0  0  0  0  0
   10.9366   14.5423   20.3656 O   0  0  0  0  0  0  0  0  0  0  0  0
   11.1786   14.9537   19.0295 C   0  0  0  0  0  0  0  0  0  0  0  0
  1  2  1  0
  2  3  1  0
  3  4  2  0
  3  5  1  0
  5  6  2  0
  6  7  1  0
  7  8  1  0
  8  9  1  0
  9 10  1  0
  7 11  2  0
 11 12  1  0
 12 13  2  0
 13 14  1  0
 14 15  1  0
 14 16  1  0
 16 17  1  1
 16 18  1  0
 18 19  1  0
 19 20  1  0
 19 21  1  0
 19 22  1  0
 22 23  1  0
 13  5  1  0
 10  8  1  0
M  END
>  <energy_score>  (779) 
-28.4318

>  <inchikey>  (779) 
None

>  <smiles>  (779) 
None

>  <ref_pdb>  (779) 
A0514a

>  <alias>  (779) 
None

>  <HIPPO Pose ID>  (779) 
498423

>  <name>  (779) 
P498423

>  <HIPPO Compound ID>  (779) 
292891

>  <ref_mols>  (779) 
A4331a,A0514a

>  <distance_score>  (779) 
1.796181

>  <inspiration_score>  (779) 
None

$$$$
P498424
     RDKit          3D

 23 25  0  0  0  0  0  0  0  0999 V2000
    9.6196    8.2190   23.4504 C   0  0  0  0  0  0  0  0  0  0  0  0
    8.8161    9.1280   24.1925 O   0  0  0  0  0  0  0  0  0  0  0  0
    8.8591   10.3230   23.5698 C   0  0  0  0  0  0  0  0  0  0  0  0
    9.4012   10.4980   22.4920 O   0  0  0  0  0  0  0  0  0  0  0  0
    8.2155   11.3980   24.3544 C   0  0  0  0  0  0  0  0  0  0  0  0
    7.1659   11.0561   25.2136 C   0  0  0  0  0  0  0  0  0  0  0  0
    6.5313   12.0640   25.9135 C   0  0  0  0  0  0  0  0  0  0  0  0
    5.4754   11.7613   26.9464 C   0  0  0  0  0  0  0  0  0  0  0  0
    4.2713   12.6619   27.0845 C   0  0  0  0  0  0  0  0  0  0  0  0
    5.3379   12.6903   28.1362 C   0  0  0  0  0  0  0  0  0  0  0  0
    6.8818   13.3603   25.7181 N   0  0  0  0  0  0  0  0  0  0  0  0
    7.8851   13.6637   24.8561 C   0  0  0  0  0  0  0  0  0  0  0  0
    8.6520   12.7353   24.1811 C   0  0  0  0  0  0  0  0  0  0  0  0
    9.8563   13.0543   23.5478 N   0  0  0  0  0  0  0  0  0  0  0  0
   10.8734   12.1048   23.8082 N   0  0  0  0  0  0  0  0  0  0  0  0
   10.2128   14.2913   22.7573 C   0  0  1  0  0  0  0  0  0  0  0  0
   11.7252   14.5013   22.8993 C   0  0  0  0  0  0  0  0  0  0  0  0
   12.3815   15.4598   21.9635 C   0  0  0  0  0  0  0  0  0  0  0  0
   11.9855   15.2617   20.6508 O   0  0  0  0  0  0  0  0  0  0  0  0
   10.5956   15.3652   20.3763 C   0  0  0  0  0  0  0  0  0  0  0  0
    9.9960   16.7662   20.5443 C   0  0  0  0  0  0  0  0  0  0  0  0
   10.6788   15.1748   18.8590 C   0  0  0  0  0  0  0  0  0  0  0  0
    9.8368   14.2972   21.2577 C   0  0  0  0  0  0  0  0  0  0  0  0
  1  2  1  0
  2  3  1  0
  3  4  2  0
  3  5  1  0
  5  6  2  0
  6  7  1  0
  7  8  1  0
  8  9  1  0
  9 10  1  0
  7 11  2  0
 11 12  1  0
 12 13  2  0
 13 14  1  0
 14 15  1  0
 16 14  1  6
 16 17  1  0
 17 18  1  0
 18 19  1  0
 19 20  1  0
 20 21  1  0
 20 22  1  0
 20 23  1  0
 13  5  1  0
 23 16  1  0
 10  8  1  0
M  END
>  <energy_score>  (780) 
-25.126157

>  <inchikey>  (780) 
None

>  <smiles>  (780) 
None

>  <ref_pdb>  (780) 
A0514a

>  <alias>  (780) 
None

>  <HIPPO Pose ID>  (780) 
498424

>  <name>  (780) 
P498424

>  <HIPPO Compound ID>  (780) 
292899

>  <ref_mols>  (780) 
A4331a,A0514a

>  <distance_score>  (780) 
1.728548

>  <inspiration_score>  (780) 
None

$$$$
P498425
     RDKit          3D

 23 25  0  0  0  0  0  0  0  0999 V2000
    9.2088    8.3442   22.8213 C   0  0  0  0  0  0  0  0  0  0  0  0
    8.4381    9.3093   23.5240 O   0  0  0  0  0  0  0  0  0  0  0  0
    9.1875   10.3939   23.8119 C   0  0  0  0  0  0  0  0  0  0  0  0
   10.3920   10.4773   23.6680 O   0  0  0  0  0  0  0  0  0  0  0  0
    8.3247   11.4770   24.3201 C   0  0  0  0  0  0  0  0  0  0  0  0
    7.2348   11.1285   25.1245 C   0  0  0  0  0  0  0  0  0  0  0  0
    6.4876   12.1387   25.6989 C   0  0  0  0  0  0  0  0  0  0  0  0
    5.4114   11.8304   26.7057 C   0  0  0  0  0  0  0  0  0  0  0  0
    5.5245   12.4006   28.1002 C   0  0  0  0  0  0  0  0  0  0  0  0
    4.4723   12.9219   27.1702 C   0  0  0  0  0  0  0  0  0  0  0  0
    6.7576   13.4370   25.4149 N   0  0  0  0  0  0  0  0  0  0  0  0
    7.8013   13.7495   24.6058 C   0  0  0  0  0  0  0  0  0  0  0  0
    8.6789   12.8216   24.0793 C   0  0  0  0  0  0  0  0  0  0  0  0
    9.9751   13.1467   23.6700 N   0  0  0  0  0  0  0  0  0  0  0  0
   10.8827   13.0090   24.7884 N   0  0  0  0  0  0  0  0  0  0  0  0
   10.4145   14.2399   22.7560 C   0  0  1  0  0  0  0  0  0  0  0  0
   11.9408   14.1488   22.6146 C   0  0  0  0  0  0  0  0  0  0  0  0
   12.4739   15.3871   21.9622 C   0  0  0  0  0  0  0  0  0  0  0  0
   11.5188   16.0433   21.1894 O   0  0  0  0  0  0  0  0  0  0  0  0
   10.7653   15.1947   20.3611 C   0  0  0  0  0  0  0  0  0  0  0  0
    9.9548   16.1695   19.5495 C   0  0  0  0  0  0  0  0  0  0  0  0
   11.6942   14.5072   19.3425 C   0  0  0  0  0  0  0  0  0  0  0  0
    9.8755   14.3021   21.3195 C   0  0  0  0  0  0  0  0  0  0  0  0
  1  2  1  0
  2  3  1  0
  3  4  2  0
  3  5  1  0
  5  6  2  0
  6  7  1  0
  7  8  1  0
  8  9  1  0
  9 10  1  0
  7 11  2  0
 11 12  1  0
 12 13  2  0
 13 14  1  0
 14 15  1  0
 16 14  1  6
 16 17  1  0
 17 18  1  0
 18 19  1  0
 19 20  1  0
 20 21  1  0
 20 22  1  0
 20 23  1  0
 13  5  1  0
 23 16  1  0
 10  8  1  0
M  END
>  <energy_score>  (781) 
-15.57734

>  <inchikey>  (781) 
None

>  <smiles>  (781) 
None

>  <ref_pdb>  (781) 
A0514a

>  <alias>  (781) 
None

>  <HIPPO Pose ID>  (781) 
498425

>  <name>  (781) 
P498425

>  <HIPPO Compound ID>  (781) 
292899

>  <ref_mols>  (781) 
A4331a,A0514a

>  <distance_score>  (781) 
1.82155

>  <inspiration_score>  (781) 
None

$$$$
P498426
     RDKit          3D

 23 25  0  0  0  0  0  0  0  0999 V2000
    9.6032    8.9560   22.8177 C   0  0  0  0  0  0  0  0  0  0  0  0
    8.9968   10.1377   23.3342 O   0  0  0  0  0  0  0  0  0  0  0  0
    8.1575    9.8936   24.3537 C   0  0  0  0  0  0  0  0  0  0  0  0
    7.8465    8.7795   24.7494 O   0  0  0  0  0  0  0  0  0  0  0  0
    7.6033   11.0761   25.0417 C   0  0  0  0  0  0  0  0  0  0  0  0
    6.5567   10.7701   25.9302 C   0  0  0  0  0  0  0  0  0  0  0  0
    6.0191   11.7547   26.7347 C   0  0  0  0  0  0  0  0  0  0  0  0
    4.9091   11.4808   27.7030 C   0  0  0  0  0  0  0  0  0  0  0  0
    3.6426   12.2988   27.6086 C   0  0  0  0  0  0  0  0  0  0  0  0
    4.5788   12.5188   28.7566 C   0  0  0  0  0  0  0  0  0  0  0  0
    6.5047   13.0076   26.6918 N   0  0  0  0  0  0  0  0  0  0  0  0
    7.4600   13.2969   25.7960 C   0  0  0  0  0  0  0  0  0  0  0  0
    8.0444   12.3960   24.9102 C   0  0  0  0  0  0  0  0  0  0  0  0
    8.9878   12.8229   23.9637 N   0  0  0  0  0  0  0  0  0  0  0  0
   10.3109   12.4115   24.2578 N   0  0  0  0  0  0  0  0  0  0  0  0
    8.7705   14.1601   23.3311 C   0  0  2  0  0  0  0  0  0  0  0  0
    7.3387   14.2660   22.7584 C   0  0  0  0  0  0  0  0  0  0  0  0
    9.7708   14.5621   22.2781 C   0  0  0  0  0  0  0  0  0  0  0  0
   11.1784   14.6924   22.3583 C   0  0  0  0  0  0  0  0  0  0  0  0
   11.7358   15.1190   21.2249 N   0  0  0  0  0  0  0  0  0  0  0  0
   10.6833   15.2743   20.3993 N   0  0  0  0  0  0  0  0  0  0  0  0
   10.8283   15.7026   19.0299 C   0  0  0  0  0  0  0  0  0  0  0  0
    9.4978   15.0024   21.0046 C   0  0  0  0  0  0  0  0  0  0  0  0
  1  2  1  0
  2  3  1  0
  3  4  2  0
  3  5  1  0
  5  6  2  0
  6  7  1  0
  7  8  1  0
  8  9  1  0
  9 10  1  0
  7 11  2  0
 11 12  1  0
 12 13  2  0
 13 14  1  0
 14 15  1  0
 14 16  1  0
 16 17  1  6
 16 18  1  0
 18 19  1  0
 19 20  2  0
 20 21  1  0
 21 22  1  0
 21 23  1  0
 13  5  1  0
 23 18  2  0
 10  8  1  0
M  END
>  <energy_score>  (782) 
-27.552784

>  <inchikey>  (782) 
None

>  <smiles>  (782) 
None

>  <ref_pdb>  (782) 
A0514a

>  <alias>  (782) 
None

>  <HIPPO Pose ID>  (782) 
498426

>  <name>  (782) 
P498426

>  <HIPPO Compound ID>  (782) 
292902

>  <ref_mols>  (782) 
A4331a,A0514a

>  <distance_score>  (782) 
1.340484

>  <inspiration_score>  (782) 
None

$$$$
P498427
     RDKit          3D

 23 25  0  0  0  0  0  0  0  0999 V2000
    9.3097    8.6115   23.0487 C   0  0  0  0  0  0  0  0  0  0  0  0
    8.3895    9.2973   23.9039 O   0  0  0  0  0  0  0  0  0  0  0  0
    8.7368   10.5794   24.1566 C   0  0  0  0  0  0  0  0  0  0  0  0
    9.7428   11.1248   23.7352 O   0  0  0  0  0  0  0  0  0  0  0  0
    7.7242   11.2386   25.0328 C   0  0  0  0  0  0  0  0  0  0  0  0
    6.7578   10.4735   25.6971 C   0  0  0  0  0  0  0  0  0  0  0  0
    5.9222   11.0882   26.6228 C   0  0  0  0  0  0  0  0  0  0  0  0
    4.9375   10.3453   27.4701 C   0  0  0  0  0  0  0  0  0  0  0  0
    4.9612   10.5737   28.9636 C   0  0  0  0  0  0  0  0  0  0  0  0
    3.8309   11.1301   28.1551 C   0  0  0  0  0  0  0  0  0  0  0  0
    6.0063   12.4085   26.8766 N   0  0  0  0  0  0  0  0  0  0  0  0
    6.9037   13.1306   26.2101 C   0  0  0  0  0  0  0  0  0  0  0  0
    7.7906   12.6186   25.2757 C   0  0  0  0  0  0  0  0  0  0  0  0
    8.6722   13.4985   24.6278 N   0  0  0  0  0  0  0  0  0  0  0  0
    9.1547   14.5769   25.4149 N   0  0  0  0  0  0  0  0  0  0  0  0
    8.3202   13.7190   23.1881 C   0  0  1  0  0  0  0  0  0  0  0  0
    6.9950   14.4739   23.0455 C   0  0  0  0  0  0  0  0  0  0  0  0
    9.4043   14.3447   22.3844 C   0  0  0  0  0  0  0  0  0  0  0  0
    9.2956   15.2503   21.3090 C   0  0  0  0  0  0  0  0  0  0  0  0
   10.4775   15.5901   20.8089 N   0  0  0  0  0  0  0  0  0  0  0  0
   11.3422   14.9412   21.5936 N   0  0  0  0  0  0  0  0  0  0  0  0
   12.7405   15.1713   21.4253 C   0  0  0  0  0  0  0  0  0  0  0  0
   10.7611   14.1523   22.5274 C   0  0  0  0  0  0  0  0  0  0  0  0
  1  2  1  0
  2  3  1  0
  3  4  2  0
  3  5  1  0
  5  6  2  0
  6  7  1  0
  7  8  1  0
  8  9  1  0
  9 10  1  0
  7 11  2  0
 11 12  1  0
 12 13  2  0
 13 14  1  0
 14 15  1  0
 14 16  1  0
 16 17  1  1
 16 18  1  0
 18 19  1  0
 19 20  2  0
 20 21  1  0
 21 22  1  0
 21 23  1  0
 13  5  1  0
 23 18  2  0
 10  8  1  0
M  END
>  <energy_score>  (783) 
-45.079015

>  <inchikey>  (783) 
None

>  <smiles>  (783) 
None

>  <ref_pdb>  (783) 
A0514a

>  <alias>  (783) 
None

>  <HIPPO Pose ID>  (783) 
498427

>  <name>  (783) 
P498427

>  <HIPPO Compound ID>  (783) 
292902

>  <ref_mols>  (783) 
A4331a,A0514a

>  <distance_score>  (783) 
1.96654

>  <inspiration_score>  (783) 
None

$$$$
P498428
     RDKit          3D

 23 25  0  0  0  0  0  0  0  0999 V2000
    9.5437    8.8243   23.5497 C   0  0  0  0  0  0  0  0  0  0  0  0
    8.6511    9.7555   24.1683 O   0  0  0  0  0  0  0  0  0  0  0  0
    8.9419   11.0292   23.8148 C   0  0  0  0  0  0  0  0  0  0  0  0
    9.8381   11.3471   23.0516 O   0  0  0  0  0  0  0  0  0  0  0  0
    8.0388   12.0124   24.4574 C   0  0  0  0  0  0  0  0  0  0  0  0
    6.9333   11.6064   25.2045 C   0  0  0  0  0  0  0  0  0  0  0  0
    6.1324   12.5711   25.8095 C   0  0  0  0  0  0  0  0  0  0  0  0
    4.9817   12.2362   26.7051 C   0  0  0  0  0  0  0  0  0  0  0  0
    5.0772   11.2597   27.8427 C   0  0  0  0  0  0  0  0  0  0  0  0
    5.0638   12.7293   28.1354 C   0  0  0  0  0  0  0  0  0  0  0  0
    6.3537   13.8883   25.6303 N   0  0  0  0  0  0  0  0  0  0  0  0
    7.4237   14.2533   24.9115 C   0  0  0  0  0  0  0  0  0  0  0  0
    8.3433   13.3776   24.3599 C   0  0  0  0  0  0  0  0  0  0  0  0
    9.6602   13.8478   24.1875 N   0  0  0  0  0  0  0  0  0  0  0  0
   10.5019   13.4246   25.2616 N   0  0  0  0  0  0  0  0  0  0  0  0
   10.3963   14.3039   23.0707 C   0  0  0  0  0  0  0  0  0  0  0  0
    9.8519   14.6705   21.8643 C   0  0  0  0  0  0  0  0  0  0  0  0
   10.7554   15.1861   20.9610 C   0  0  0  0  0  0  0  0  0  0  0  0
   10.3191   15.7894   19.3756 S   0  0  0  0  0  0  0  0  0  0  0  0
   11.6311   14.9688   18.4301 C   0  0  0  0  0  0  0  0  0  0  0  0
   12.0609   15.3281   21.2044 N   0  0  0  0  0  0  0  0  0  0  0  0
   12.4917   14.9115   22.3625 C   0  0  0  0  0  0  0  0  0  0  0  0
   11.7293   14.4380   23.3336 N   0  0  0  0  0  0  0  0  0  0  0  0
  1  2  1  0
  2  3  1  0
  3  4  2  0
  3  5  1  0
  5  6  2  0
  6  7  1  0
  7  8  1  0
  8  9  1  0
  9 10  1  0
  7 11  2  0
 11 12  1  0
 12 13  2  0
 13 14  1  0
 14 15  1  0
 14 16  1  0
 16 17  2  0
 17 18  1  0
 18 19  1  0
 19 20  1  0
 18 21  2  0
 21 22  1  0
 22 23  2  0
 13  5  1  0
 23 16  1  0
 10  8  1  0
M  END
>  <energy_score>  (784) 
-22.12993

>  <inchikey>  (784) 
None

>  <smiles>  (784) 
None

>  <ref_pdb>  (784) 
A0514a

>  <alias>  (784) 
None

>  <HIPPO Pose ID>  (784) 
498428

>  <name>  (784) 
P498428

>  <HIPPO Compound ID>  (784) 
292908

>  <ref_mols>  (784) 
A4331a,A0514a

>  <distance_score>  (784) 
1.793821

>  <inspiration_score>  (784) 
None

$$$$
P498429
     RDKit          3D

 23 25  0  0  0  0  0  0  0  0999 V2000
    9.1915    8.8064   23.1101 C   0  0  0  0  0  0  0  0  0  0  0  0
    8.2305    9.5588   23.8624 O   0  0  0  0  0  0  0  0  0  0  0  0
    8.6241   10.8246   24.1391 C   0  0  0  0  0  0  0  0  0  0  0  0
    9.7023   11.2919   23.8119 O   0  0  0  0  0  0  0  0  0  0  0  0
    7.6222   11.5522   24.9894 C   0  0  0  0  0  0  0  0  0  0  0  0
    6.6819   10.7649   25.6744 C   0  0  0  0  0  0  0  0  0  0  0  0
    5.9884   11.3200   26.7311 C   0  0  0  0  0  0  0  0  0  0  0  0
    4.9421   10.5868   27.5086 C   0  0  0  0  0  0  0  0  0  0  0  0
    4.8062   10.8396   28.9913 C   0  0  0  0  0  0  0  0  0  0  0  0
    3.7805   11.3989   28.0549 C   0  0  0  0  0  0  0  0  0  0  0  0
    6.2789   12.5606   27.1653 N   0  0  0  0  0  0  0  0  0  0  0  0
    7.1364   13.3180   26.4656 C   0  0  0  0  0  0  0  0  0  0  0  0
    7.7755   12.9431   25.2772 C   0  0  0  0  0  0  0  0  0  0  0  0
    8.7849   13.6454   24.3965 N   0  0  0  0  0  0  0  0  0  0  0  0
    8.0739   14.8546   24.9900 N   0  0  0  0  0  0  0  0  0  0  0  0
    8.8748   13.7485   22.8845 C   0  0  0  0  0  0  0  0  0  0  0  0
    8.1341   13.3723   22.0505 O   0  0  0  0  0  0  0  0  0  0  0  0
   10.1607   14.3405   22.5249 C   0  0  0  0  0  0  0  0  0  0  0  0
   11.5852   14.0033   23.4345 S   0  0  0  0  0  0  0  0  0  0  0  0
   12.4961   14.8858   22.3000 C   0  0  0  0  0  0  0  0  0  0  0  0
   11.8332   15.4533   21.3340 N   0  0  0  0  0  0  0  0  0  0  0  0
   10.5038   15.1204   21.4362 C   0  0  0  0  0  0  0  0  0  0  0  0
    9.6264   15.6883   20.4153 C   0  0  0  0  0  0  0  0  0  0  0  0
  1  2  1  0
  2  3  1  0
  3  4  2  0
  3  5  1  0
  5  6  2  0
  6  7  1  0
  7  8  1  0
  8  9  1  0
  9 10  1  0
  7 11  2  0
 11 12  1  0
 12 13  2  0
 13 14  1  0
 14 15  1  0
 14 16  1  0
 16 17  2  0
 16 18  1  0
 18 19  1  0
 19 20  1  0
 20 21  2  0
 21 22  1  0
 22 23  1  0
 13  5  1  0
 22 18  2  0
 10  8  1  0
M  END
>  <energy_score>  (785) 
-18.196013

>  <inchikey>  (785) 
None

>  <smiles>  (785) 
None

>  <ref_pdb>  (785) 
A0514a

>  <alias>  (785) 
None

>  <HIPPO Pose ID>  (785) 
498429

>  <name>  (785) 
P498429

>  <HIPPO Compound ID>  (785) 
292910

>  <ref_mols>  (785) 
A4331a,A0514a

>  <distance_score>  (785) 
1.769142

>  <inspiration_score>  (785) 
None

$$$$
P498430
     RDKit          3D

 23 24  0  0  0  0  0  0  0  0999 V2000
   11.8731   14.0833   23.9246 C   0  0  0  0  0  0  0  0  0  0  0  0
   12.3643   14.2086   22.4930 C   0  0  0  0  0  0  0  0  0  0  0  0
   11.9289   15.2957   21.5134 C   0  0  0  0  0  0  0  0  0  0  0  0
   10.7338   15.0696   20.5881 C   0  0  0  0  0  0  0  0  0  0  0  0
    9.3250   15.1782   21.1706 C   0  0  0  0  0  0  0  0  0  0  0  0
    9.2281   14.3848   22.4410 C   0  0  0  0  0  0  0  0  0  0  0  0
    7.8868   14.1393   23.1052 C   0  0  2  0  0  0  0  0  0  0  0  0
    6.8458   15.2414   22.9067 C   0  0  0  0  0  0  0  0  0  0  0  0
    8.1768   13.8662   24.5467 N   0  0  0  0  0  0  0  0  0  0  0  0
    8.5036   14.9783   25.3932 N   0  0  0  0  0  0  0  0  0  0  0  0
    7.3304   12.8895   25.1043 C   0  0  0  0  0  0  0  0  0  0  0  0
    6.2509   13.3059   25.8684 C   0  0  0  0  0  0  0  0  0  0  0  0
    5.4790   12.5030   26.5999 N   0  0  0  0  0  0  0  0  0  0  0  0
    5.7304   11.1812   26.5787 C   0  0  0  0  0  0  0  0  0  0  0  0
    5.0244   10.3762   27.6224 C   0  0  0  0  0  0  0  0  0  0  0  0
    3.8376   10.9540   28.3615 C   0  0  0  0  0  0  0  0  0  0  0  0
    5.1650   10.8643   29.0508 C   0  0  0  0  0  0  0  0  0  0  0  0
    6.6913   10.6417   25.7367 C   0  0  0  0  0  0  0  0  0  0  0  0
    7.5138   11.5007   24.9949 C   0  0  0  0  0  0  0  0  0  0  0  0
    8.6219   10.9056   24.1975 C   0  0  0  0  0  0  0  0  0  0  0  0
    9.6009   11.5079   23.8009 O   0  0  0  0  0  0  0  0  0  0  0  0
    8.3918    9.5859   23.9808 O   0  0  0  0  0  0  0  0  0  0  0  0
    9.4004    8.9335   23.2011 C   0  0  0  0  0  0  0  0  0  0  0  0
  1  2  1  0
  2  3  1  0
  3  4  1  0
  4  5  1  0
  5  6  1  0
  6  7  1  0
  7  8  1  1
  7  9  1  0
  9 10  1  0
  9 11  1  0
 11 12  2  0
 12 13  1  0
 13 14  2  0
 14 15  1  0
 15 16  1  0
 16 17  1  0
 14 18  1  0
 18 19  2  0
 19 20  1  0
 20 21  2  0
 20 22  1  0
 22 23  1  0
 19 11  1  0
 17 15  1  0
M  END
>  <energy_score>  (786) 
-7.275265

>  <inchikey>  (786) 
None

>  <smiles>  (786) 
None

>  <ref_pdb>  (786) 
A0514a

>  <alias>  (786) 
None

>  <HIPPO Pose ID>  (786) 
498430

>  <name>  (786) 
P498430

>  <HIPPO Compound ID>  (786) 
292915

>  <ref_mols>  (786) 
A4331a,A0514a

>  <distance_score>  (786) 
1.580544

>  <inspiration_score>  (786) 
None

$$$$
P498431
     RDKit          3D

 23 24  0  0  0  0  0  0  0  0999 V2000
   10.2609   15.9317   19.6653 C   0  0  0  0  0  0  0  0  0  0  0  0
   11.4672   15.0515   19.9299 C   0  0  0  0  0  0  0  0  0  0  0  0
   12.2663   15.4017   21.1808 C   0  0  0  0  0  0  0  0  0  0  0  0
   12.3109   14.3274   22.2446 C   0  0  0  0  0  0  0  0  0  0  0  0
   11.2153   14.4159   23.2709 C   0  0  0  0  0  0  0  0  0  0  0  0
    9.8002   14.2368   22.7134 C   0  0  0  0  0  0  0  0  0  0  0  0
    9.1308   12.9792   23.2436 C   0  0  1  0  0  0  0  0  0  0  0  0
   10.1055   11.8584   22.9410 C   0  0  0  0  0  0  0  0  0  0  0  0
    8.8073   13.0615   24.6871 N   0  0  0  0  0  0  0  0  0  0  0  0
    9.0810   14.3003   25.3700 N   0  0  0  0  0  0  0  0  0  0  0  0
    7.6262   12.3789   25.0790 C   0  0  0  0  0  0  0  0  0  0  0  0
    6.6114   13.0974   25.6996 C   0  0  0  0  0  0  0  0  0  0  0  0
    5.6297   12.5649   26.4339 N   0  0  0  0  0  0  0  0  0  0  0  0
    5.5788   11.2274   26.5596 C   0  0  0  0  0  0  0  0  0  0  0  0
    4.7210   10.7003   27.6685 C   0  0  0  0  0  0  0  0  0  0  0  0
    3.5503   11.5119   28.1748 C   0  0  0  0  0  0  0  0  0  0  0  0
    4.8001   11.4296   28.9971 C   0  0  0  0  0  0  0  0  0  0  0  0
    6.3796   10.4106   25.7851 C   0  0  0  0  0  0  0  0  0  0  0  0
    7.4008   10.9899   25.0314 C   0  0  0  0  0  0  0  0  0  0  0  0
    8.3301   10.0268   24.4460 C   0  0  0  0  0  0  0  0  0  0  0  0
    9.5007   10.0085   24.7327 O   0  0  0  0  0  0  0  0  0  0  0  0
    7.7972    9.1821   23.5550 O   0  0  0  0  0  0  0  0  0  0  0  0
    8.8107    8.3829   22.9106 C   0  0  0  0  0  0  0  0  0  0  0  0
  1  2  1  0
  2  3  1  0
  3  4  1  0
  4  5  1  0
  5  6  1  0
  6  7  1  0
  7  8  1  1
  7  9  1  0
  9 10  1  0
  9 11  1  0
 11 12  2  0
 12 13  1  0
 13 14  2  0
 14 15  1  0
 15 16  1  0
 16 17  1  0
 14 18  1  0
 18 19  2  0
 19 20  1  0
 20 21  2  0
 20 22  1  0
 22 23  1  0
 19 11  1  0
 17 15  1  0
M  END
>  <energy_score>  (787) 
-14.353489

>  <inchikey>  (787) 
None

>  <smiles>  (787) 
None

>  <ref_pdb>  (787) 
A0514a

>  <alias>  (787) 
None

>  <HIPPO Pose ID>  (787) 
498431

>  <name>  (787) 
P498431

>  <HIPPO Compound ID>  (787) 
292915

>  <ref_mols>  (787) 
A4331a,A0514a

>  <distance_score>  (787) 
1.564347

>  <inspiration_score>  (787) 
None

$$$$
P498432
     RDKit          3D

 23 25  0  0  0  0  0  0  0  0999 V2000
    5.6380   15.4427   23.3679 C   0  0  0  0  0  0  0  0  0  0  0  0
    7.0584   15.3118   23.4134 O   0  0  0  0  0  0  0  0  0  0  0  0
    7.5450   14.3748   22.5683 C   0  0  0  0  0  0  0  0  0  0  0  0
    6.9167   13.5910   21.8756 O   0  0  0  0  0  0  0  0  0  0  0  0
    9.0089   14.4416   22.5352 C   0  0  0  0  0  0  0  0  0  0  0  0
    9.5852   14.7585   21.3159 C   0  0  0  0  0  0  0  0  0  0  0  0
   10.9653   14.7838   21.2017 C   0  0  0  0  0  0  0  0  0  0  0  0
   11.6714   15.2105   19.9574 C   0  0  0  0  0  0  0  0  0  0  0  0
   10.9078   15.8291   18.7881 C   0  0  0  0  0  0  0  0  0  0  0  0
   11.6719   14.5618   18.6204 C   0  0  0  0  0  0  0  0  0  0  0  0
   11.7559   14.5250   22.2829 N   0  0  0  0  0  0  0  0  0  0  0  0
   11.1721   14.2283   23.4578 C   0  0  0  0  0  0  0  0  0  0  0  0
    9.8021   14.1813   23.6533 C   0  0  0  0  0  0  0  0  0  0  0  0
    9.2668   13.7939   24.9088 N   0  0  0  0  0  0  0  0  0  0  0  0
    8.8637   14.8904   25.7076 N   0  0  0  0  0  0  0  0  0  0  0  0
    8.5095   12.5805   24.9716 C   0  0  0  0  0  0  0  0  0  0  0  0
    8.9592   11.4864   24.2233 C   0  0  0  0  0  0  0  0  0  0  0  0
    8.2994   10.2874   24.2895 C   0  0  0  0  0  0  0  0  0  0  0  0
    8.8343    9.1383   23.4973 C   0  0  0  0  0  0  0  0  0  0  0  0
    7.2236   10.1274   25.0828 N   0  0  0  0  0  0  0  0  0  0  0  0
    6.7758   11.1975   25.7717 C   0  0  0  0  0  0  0  0  0  0  0  0
    5.6072   10.9980   26.6527 C   0  0  0  0  0  0  0  0  0  0  0  0
    7.3734   12.4347   25.7448 C   0  0  0  0  0  0  0  0  0  0  0  0
  1  2  1  0
  2  3  1  0
  3  4  2  0
  3  5  1  0
  5  6  2  0
  6  7  1  0
  7  8  1  0
  8  9  1  0
  9 10  1  0
  7 11  2  0
 11 12  1  0
 12 13  2  0
 13 14  1  0
 14 15  1  0
 14 16  1  0
 16 17  2  0
 17 18  1  0
 18 19  1  0
 18 20  2  0
 20 21  1  0
 21 22  1  0
 21 23  2  0
 13  5  1  0
 23 16  1  0
 10  8  1  0
M  END
>  <energy_score>  (788) 
-43.899994

>  <inchikey>  (788) 
None

>  <smiles>  (788) 
None

>  <ref_pdb>  (788) 
A0514a

>  <alias>  (788) 
None

>  <HIPPO Pose ID>  (788) 
498432

>  <name>  (788) 
P498432

>  <HIPPO Compound ID>  (788) 
292916

>  <ref_mols>  (788) 
A4331a,A0514a

>  <distance_score>  (788) 
1.884148

>  <inspiration_score>  (788) 
None

$$$$
P498433
     RDKit          3D

 23 25  0  0  0  0  0  0  0  0999 V2000
    9.3496    8.5589   22.9323 C   0  0  0  0  0  0  0  0  0  0  0  0
    8.4762    9.4374   23.6367 O   0  0  0  0  0  0  0  0  0  0  0  0
    9.0564   10.6205   23.9422 C   0  0  0  0  0  0  0  0  0  0  0  0
   10.2173   10.9014   23.7209 O   0  0  0  0  0  0  0  0  0  0  0  0
    8.0796   11.5222   24.5884 C   0  0  0  0  0  0  0  0  0  0  0  0
    7.0815   10.9013   25.3690 C   0  0  0  0  0  0  0  0  0  0  0  0
    6.2099   11.6742   26.1187 C   0  0  0  0  0  0  0  0  0  0  0  0
    5.2548   11.0799   27.1133 C   0  0  0  0  0  0  0  0  0  0  0  0
    5.3511   11.5200   28.5567 C   0  0  0  0  0  0  0  0  0  0  0  0
    4.1844   11.9605   27.7300 C   0  0  0  0  0  0  0  0  0  0  0  0
    6.2545   13.0160   26.0407 N   0  0  0  0  0  0  0  0  0  0  0  0
    7.1883   13.5915   25.2655 C   0  0  0  0  0  0  0  0  0  0  0  0
    8.1897   12.9218   24.5638 C   0  0  0  0  0  0  0  0  0  0  0  0
    9.2416   13.7243   24.0847 N   0  0  0  0  0  0  0  0  0  0  0  0
   10.0550   14.2526   25.1294 N   0  0  0  0  0  0  0  0  0  0  0  0
    9.8344   13.5514   22.7090 C   0  0  2  0  0  0  0  0  0  0  0  0
   11.3455   13.3856   22.7545 C   0  0  0  0  0  0  0  0  0  0  0  0
   12.0877   14.6869   22.8153 C   0  0  0  0  0  0  0  0  0  0  0  0
   12.0816   15.4634   21.5404 C   0  0  0  0  0  0  0  0  0  0  0  0
   10.5764   15.3901   20.6421 S   0  0  0  0  0  0  0  0  0  0  0  0
   10.9168   14.5322   19.5287 O   0  0  0  0  0  0  0  0  0  0  0  0
   10.1250   16.7384   20.3677 O   0  0  0  0  0  0  0  0  0  0  0  0
    9.3368   14.6071   21.7159 C   0  0  0  0  0  0  0  0  0  0  0  0
  1  2  1  0
  2  3  1  0
  3  4  2  0
  3  5  1  0
  5  6  2  0
  6  7  1  0
  7  8  1  0
  8  9  1  0
  9 10  1  0
  7 11  2  0
 11 12  1  0
 12 13  2  0
 13 14  1  0
 14 15  1  0
 16 14  1  1
 16 17  1  0
 17 18  1  0
 18 19  1  0
 19 20  1  0
 20 21  2  0
 20 22  2  0
 20 23  1  0
 13  5  1  0
 23 16  1  0
 10  8  1  0
M  END
>  <energy_score>  (789) 
-47.975467

>  <inchikey>  (789) 
None

>  <smiles>  (789) 
None

>  <ref_pdb>  (789) 
A0514a

>  <alias>  (789) 
None

>  <HIPPO Pose ID>  (789) 
498433

>  <name>  (789) 
P498433

>  <HIPPO Compound ID>  (789) 
292917

>  <ref_mols>  (789) 
A4331a,A0514a

>  <distance_score>  (789) 
1.917642

>  <inspiration_score>  (789) 
None

$$$$
P498434
     RDKit          3D

 23 25  0  0  0  0  0  0  0  0999 V2000
    9.2995    8.6490   23.0451 C   0  0  0  0  0  0  0  0  0  0  0  0
    8.4966    9.5891   23.7617 O   0  0  0  0  0  0  0  0  0  0  0  0
    9.0910   10.7999   23.8872 C   0  0  0  0  0  0  0  0  0  0  0  0
   10.2332   11.0493   23.5472 O   0  0  0  0  0  0  0  0  0  0  0  0
    8.1468   11.7921   24.4579 C   0  0  0  0  0  0  0  0  0  0  0  0
    7.0420   11.3598   25.2087 C   0  0  0  0  0  0  0  0  0  0  0  0
    6.2119   12.3161   25.7770 C   0  0  0  0  0  0  0  0  0  0  0  0
    5.0722   12.0187   26.6974 C   0  0  0  0  0  0  0  0  0  0  0  0
    5.1393   11.0543   27.8440 C   0  0  0  0  0  0  0  0  0  0  0  0
    5.2054   12.5253   28.1208 C   0  0  0  0  0  0  0  0  0  0  0  0
    6.4027   13.6314   25.5417 N   0  0  0  0  0  0  0  0  0  0  0  0
    7.4519   14.0253   24.8010 C   0  0  0  0  0  0  0  0  0  0  0  0
    8.4110   13.1653   24.2949 C   0  0  0  0  0  0  0  0  0  0  0  0
    9.6814   13.6468   24.0098 N   0  0  0  0  0  0  0  0  0  0  0  0
   10.4557   13.9265   25.1898 N   0  0  0  0  0  0  0  0  0  0  0  0
   10.1505   14.3675   22.7939 C   0  0  1  0  0  0  0  0  0  0  0  0
   11.5372   13.8277   22.4487 C   0  0  0  0  0  0  0  0  0  0  0  0
   12.2962   14.8595   21.6409 C   0  0  0  0  0  0  0  0  0  0  0  0
   11.7196   14.9327   20.2718 C   0  0  0  0  0  0  0  0  0  0  0  0
   10.1284   15.6512   20.3191 S   0  0  0  0  0  0  0  0  0  0  0  0
    9.6337   15.4377   18.9849 O   0  0  0  0  0  0  0  0  0  0  0  0
   10.2334   17.0127   20.7743 O   0  0  0  0  0  0  0  0  0  0  0  0
    9.2405   14.6278   21.5930 C   0  0  0  0  0  0  0  0  0  0  0  0
  1  2  1  0
  2  3  1  0
  3  4  2  0
  3  5  1  0
  5  6  2  0
  6  7  1  0
  7  8  1  0
  8  9  1  0
  9 10  1  0
  7 11  2  0
 11 12  1  0
 12 13  2  0
 13 14  1  0
 14 15  1  0
 16 14  1  1
 16 17  1  0
 17 18  1  0
 18 19  1  0
 19 20  1  0
 20 21  2  0
 20 22  2  0
 20 23  1  0
 13  5  1  0
 23 16  1  0
 10  8  1  0
M  END
>  <energy_score>  (790) 
-36.92822

>  <inchikey>  (790) 
None

>  <smiles>  (790) 
None

>  <ref_pdb>  (790) 
A0514a

>  <alias>  (790) 
None

>  <HIPPO Pose ID>  (790) 
498434

>  <name>  (790) 
P498434

>  <HIPPO Compound ID>  (790) 
292917

>  <ref_mols>  (790) 
A4331a,A0514a

>  <distance_score>  (790) 
1.9199

>  <inspiration_score>  (790) 
None

$$$$
P498435
     RDKit          3D

 23 25  0  0  0  0  0  0  0  0999 V2000
    9.1512    8.3410   22.8847 C   0  0  0  0  0  0  0  0  0  0  0  0
    8.3423    9.2316   23.6505 O   0  0  0  0  0  0  0  0  0  0  0  0
    8.9916   10.3996   23.8640 C   0  0  0  0  0  0  0  0  0  0  0  0
   10.1609   10.5850   23.5782 O   0  0  0  0  0  0  0  0  0  0  0  0
    8.0510   11.4059   24.4271 C   0  0  0  0  0  0  0  0  0  0  0  0
    7.0369   11.0041   25.2924 C   0  0  0  0  0  0  0  0  0  0  0  0
    6.2456   11.9701   25.9007 C   0  0  0  0  0  0  0  0  0  0  0  0
    5.3089   11.6105   27.0251 C   0  0  0  0  0  0  0  0  0  0  0  0
    4.1248   12.4886   27.3523 C   0  0  0  0  0  0  0  0  0  0  0  0
    5.3193   12.4941   28.2571 C   0  0  0  0  0  0  0  0  0  0  0  0
    6.3477   13.2721   25.5569 N   0  0  0  0  0  0  0  0  0  0  0  0
    7.3147   13.6343   24.6945 C   0  0  0  0  0  0  0  0  0  0  0  0
    8.2788   12.7749   24.1936 C   0  0  0  0  0  0  0  0  0  0  0  0
    9.5782   13.1978   23.8680 N   0  0  0  0  0  0  0  0  0  0  0  0
   10.3466   12.8912   25.0346 N   0  0  0  0  0  0  0  0  0  0  0  0
    9.9134   14.5193   23.2710 C   0  0  0  0  0  0  0  0  0  0  0  0
   11.4352   14.8184   23.4760 C   0  0  0  0  0  0  0  0  0  0  0  0
   12.2511   14.4918   22.2912 C   0  0  1  0  0  0  0  0  0  0  0  0
   12.1681   13.0225   22.1004 C   0  0  0  0  0  0  0  0  0  0  0  0
   11.7908   15.2969   21.2427 O   0  0  0  0  0  0  0  0  0  0  0  0
   10.5351   14.8932   20.7428 C   0  0  2  0  0  0  0  0  0  0  0  0
   10.2429   15.8499   19.6079 C   0  0  0  0  0  0  0  0  0  0  0  0
    9.4300   14.7596   21.8161 C   0  0  0  0  0  0  0  0  0  0  0  0
  1  2  1  0
  2  3  1  0
  3  4  2  0
  3  5  1  0
  5  6  2  0
  6  7  1  0
  7  8  1  0
  8  9  1  0
  9 10  1  0
  7 11  2  0
 11 12  1  0
 12 13  2  0
 13 14  1  0
 14 15  1  0
 14 16  1  0
 16 17  1  0
 17 18  1  0
 18 19  1  6
 18 20  1  0
 20 21  1  0
 21 22  1  6
 21 23  1  0
 13  5  1  0
 23 16  1  0
 10  8  1  0
M  END
>  <energy_score>  (791) 
-5.69362

>  <inchikey>  (791) 
None

>  <smiles>  (791) 
None

>  <ref_pdb>  (791) 
A0514a

>  <alias>  (791) 
None

>  <HIPPO Pose ID>  (791) 
498435

>  <name>  (791) 
P498435

>  <HIPPO Compound ID>  (791) 
292919

>  <ref_mols>  (791) 
A4331a,A0514a

>  <distance_score>  (791) 
1.361273

>  <inspiration_score>  (791) 
None

$$$$
P498436
     RDKit          3D

 23 25  0  0  0  0  0  0  0  0999 V2000
    9.0740    8.5799   23.0705 C   0  0  0  0  0  0  0  0  0  0  0  0
    8.2107    9.4567   23.8040 O   0  0  0  0  0  0  0  0  0  0  0  0
    8.7573   10.6815   23.9624 C   0  0  0  0  0  0  0  0  0  0  0  0
    9.8993   10.9792   23.6556 O   0  0  0  0  0  0  0  0  0  0  0  0
    7.8294   11.6173   24.6286 C   0  0  0  0  0  0  0  0  0  0  0  0
    7.2037   11.2102   25.8035 C   0  0  0  0  0  0  0  0  0  0  0  0
    6.5002   12.1379   26.5682 C   0  0  0  0  0  0  0  0  0  0  0  0
    5.8395   11.7970   27.8658 C   0  0  0  0  0  0  0  0  0  0  0  0
    4.8205   10.7043   27.9894 C   0  0  0  0  0  0  0  0  0  0  0  0
    4.3711   12.1362   27.9897 C   0  0  0  0  0  0  0  0  0  0  0  0
    6.3989   13.4220   26.1956 N   0  0  0  0  0  0  0  0  0  0  0  0
    6.9050   13.7557   25.0033 C   0  0  0  0  0  0  0  0  0  0  0  0
    7.6304   12.9167   24.1631 C   0  0  0  0  0  0  0  0  0  0  0  0
    8.0226   13.3849   22.9074 N   0  0  0  0  0  0  0  0  0  0  0  0
    7.0105   13.9414   22.1305 N   0  0  0  0  0  0  0  0  0  0  0  0
    9.4486   13.6413   22.6033 C   0  0  0  0  0  0  0  0  0  0  0  0
   10.2656   13.8392   23.8544 C   0  0  0  0  0  0  0  0  0  0  0  0
   11.6928   13.8526   23.3861 C   0  0  2  0  0  0  0  0  0  0  0  0
   12.5477   13.6110   24.6054 C   0  0  0  0  0  0  0  0  0  0  0  0
   11.9104   15.1056   22.7524 O   0  0  0  0  0  0  0  0  0  0  0  0
   11.1455   15.2651   21.5325 C   0  0  1  0  0  0  0  0  0  0  0  0
   11.9104   14.6786   20.3648 C   0  0  0  0  0  0  0  0  0  0  0  0
    9.6831   14.7984   21.6269 C   0  0  0  0  0  0  0  0  0  0  0  0
  1  2  1  0
  2  3  1  0
  3  4  2  0
  3  5  1  0
  5  6  2  0
  6  7  1  0
  7  8  1  0
  8  9  1  0
  9 10  1  0
  7 11  2  0
 11 12  1  0
 12 13  2  0
 13 14  1  0
 14 15  1  0
 14 16  1  0
 16 17  1  0
 17 18  1  0
 18 19  1  1
 18 20  1  0
 20 21  1  0
 21 22  1  6
 21 23  1  0
 13  5  1  0
 23 16  1  0
 10  8  1  0
M  END
>  <energy_score>  (792) 
-33.865185

>  <inchikey>  (792) 
None

>  <smiles>  (792) 
None

>  <ref_pdb>  (792) 
A0514a

>  <alias>  (792) 
None

>  <HIPPO Pose ID>  (792) 
498436

>  <name>  (792) 
P498436

>  <HIPPO Compound ID>  (792) 
292919

>  <ref_mols>  (792) 
A4331a,A0514a

>  <distance_score>  (792) 
1.986842

>  <inspiration_score>  (792) 
None

$$$$
P498437
     RDKit          3D

 23 25  0  0  0  0  0  0  0  0999 V2000
    9.3739    8.4973   23.2075 C   0  0  0  0  0  0  0  0  0  0  0  0
    8.6138    9.2553   24.1541 O   0  0  0  0  0  0  0  0  0  0  0  0
    8.6575   10.5899   23.9500 C   0  0  0  0  0  0  0  0  0  0  0  0
    9.2548   11.1450   23.0466 O   0  0  0  0  0  0  0  0  0  0  0  0
    7.8542   11.3092   24.9636 C   0  0  0  0  0  0  0  0  0  0  0  0
    6.8205   10.6548   25.6409 C   0  0  0  0  0  0  0  0  0  0  0  0
    6.0723   11.3662   26.5700 C   0  0  0  0  0  0  0  0  0  0  0  0
    4.9975   10.7384   27.4053 C   0  0  0  0  0  0  0  0  0  0  0  0
    4.9113   11.0973   28.8711 C   0  0  0  0  0  0  0  0  0  0  0  0
    3.8785   11.6247   27.9244 C   0  0  0  0  0  0  0  0  0  0  0  0
    6.3069   12.6769   26.8083 N   0  0  0  0  0  0  0  0  0  0  0  0
    7.2794   13.2905   26.1302 C   0  0  0  0  0  0  0  0  0  0  0  0
    8.1105   12.6637   25.2176 C   0  0  0  0  0  0  0  0  0  0  0  0
    9.1482   13.3812   24.5969 N   0  0  0  0  0  0  0  0  0  0  0  0
   10.0887   13.9417   25.5238 N   0  0  0  0  0  0  0  0  0  0  0  0
    8.6800   14.2874   23.5073 C   0  0  2  0  0  0  0  0  0  0  0  0
    7.4599   13.8483   22.7220 C   0  0  0  0  0  0  0  0  0  0  0  0
    9.8680   14.6211   22.5845 C   0  0  0  0  0  0  0  0  0  0  0  0
    9.4730   15.2693   21.2469 C   0  0  0  0  0  0  0  0  0  0  0  0
   10.6901   15.5408   20.3810 C   0  0  0  0  0  0  0  0  0  0  0  0
   11.8526   15.5673   21.2038 O   0  0  0  0  0  0  0  0  0  0  0  0
   12.1438   14.2629   21.7015 C   0  0  0  0  0  0  0  0  0  0  0  0
   10.9331   13.5762   22.3353 C   0  0  0  0  0  0  0  0  0  0  0  0
  1  2  1  0
  2  3  1  0
  3  4  2  0
  3  5  1  0
  5  6  2  0
  6  7  1  0
  7  8  1  0
  8  9  1  0
  9 10  1  0
  7 11  2  0
 11 12  1  0
 12 13  2  0
 13 14  1  0
 14 15  1  0
 14 16  1  0
 16 17  1  6
 16 18  1  0
 18 19  1  0
 19 20  1  0
 20 21  1  0
 21 22  1  0
 22 23  1  0
 13  5  1  0
 23 18  1  0
 10  8  1  0
M  END
>  <energy_score>  (793) 
-35.018277

>  <inchikey>  (793) 
None

>  <smiles>  (793) 
None

>  <ref_pdb>  (793) 
A0514a

>  <alias>  (793) 
None

>  <HIPPO Pose ID>  (793) 
498437

>  <name>  (793) 
P498437

>  <HIPPO Compound ID>  (793) 
292923

>  <ref_mols>  (793) 
A4331a,A0514a

>  <distance_score>  (793) 
1.772329

>  <inspiration_score>  (793) 
None

$$$$
P498438
     RDKit          3D

 23 25  0  0  0  0  0  0  0  0999 V2000
    9.3601    8.5762   23.0317 C   0  0  0  0  0  0  0  0  0  0  0  0
    8.4493    9.2822   23.8757 O   0  0  0  0  0  0  0  0  0  0  0  0
    8.8155   10.5609   24.1193 C   0  0  0  0  0  0  0  0  0  0  0  0
    9.8293   11.0861   23.6914 O   0  0  0  0  0  0  0  0  0  0  0  0
    7.7996   11.2404   24.9733 C   0  0  0  0  0  0  0  0  0  0  0  0
    6.8251   10.4810   25.6392 C   0  0  0  0  0  0  0  0  0  0  0  0
    5.9562   11.1063   26.5261 C   0  0  0  0  0  0  0  0  0  0  0  0
    4.9950   10.3672   27.4041 C   0  0  0  0  0  0  0  0  0  0  0  0
    5.0690   10.5987   28.8959 C   0  0  0  0  0  0  0  0  0  0  0  0
    3.9110   11.1510   28.1256 C   0  0  0  0  0  0  0  0  0  0  0  0
    5.9936   12.4365   26.7177 N   0  0  0  0  0  0  0  0  0  0  0  0
    6.9024   13.1500   26.0547 C   0  0  0  0  0  0  0  0  0  0  0  0
    7.8534   12.6260   25.1860 C   0  0  0  0  0  0  0  0  0  0  0  0
    8.7966   13.5037   24.5947 N   0  0  0  0  0  0  0  0  0  0  0  0
    9.0952   14.6254   25.4035 N   0  0  0  0  0  0  0  0  0  0  0  0
    8.5364   13.6786   23.1323 C   0  0  1  0  0  0  0  0  0  0  0  0
    7.3015   14.5457   22.8671 C   0  0  0  0  0  0  0  0  0  0  0  0
    9.8036   14.0080   22.2964 C   0  0  0  0  0  0  0  0  0  0  0  0
   11.1279   14.1835   23.0422 C   0  0  0  0  0  0  0  0  0  0  0  0
   12.2457   14.4937   22.0713 C   0  0  0  0  0  0  0  0  0  0  0  0
   11.9129   15.6308   21.2955 O   0  0  0  0  0  0  0  0  0  0  0  0
   10.8380   15.3401   20.4075 C   0  0  0  0  0  0  0  0  0  0  0  0
    9.5806   15.0670   21.2074 C   0  0  0  0  0  0  0  0  0  0  0  0
  1  2  1  0
  2  3  1  0
  3  4  2  0
  3  5  1  0
  5  6  2  0
  6  7  1  0
  7  8  1  0
  8  9  1  0
  9 10  1  0
  7 11  2  0
 11 12  1  0
 12 13  2  0
 13 14  1  0
 14 15  1  0
 14 16  1  0
 16 17  1  1
 16 18  1  0
 18 19  1  0
 19 20  1  0
 20 21  1  0
 21 22  1  0
 22 23  1  0
 13  5  1  0
 23 18  1  0
 10  8  1  0
M  END
>  <energy_score>  (794) 
-54.263422

>  <inchikey>  (794) 
None

>  <smiles>  (794) 
None

>  <ref_pdb>  (794) 
A0514a

>  <alias>  (794) 
None

>  <HIPPO Pose ID>  (794) 
498438

>  <name>  (794) 
P498438

>  <HIPPO Compound ID>  (794) 
292923

>  <ref_mols>  (794) 
A4331a,A0514a

>  <distance_score>  (794) 
1.454483

>  <inspiration_score>  (794) 
None

$$$$
P498439
     RDKit          3D

 23 24  0  0  0  0  0  0  0  0999 V2000
    9.2986    8.5967   23.4146 C   0  0  0  0  0  0  0  0  0  0  0  0
    8.5570    9.4053   24.3358 O   0  0  0  0  0  0  0  0  0  0  0  0
    8.5804   10.7127   23.9955 C   0  0  0  0  0  0  0  0  0  0  0  0
    9.1091   11.1680   22.9973 O   0  0  0  0  0  0  0  0  0  0  0  0
    7.8710   11.5609   24.9715 C   0  0  0  0  0  0  0  0  0  0  0  0
    6.7483   11.0803   25.6497 C   0  0  0  0  0  0  0  0  0  0  0  0
    6.0676   11.9551   26.4890 C   0  0  0  0  0  0  0  0  0  0  0  0
    4.8366   11.6071   27.2508 C   0  0  0  0  0  0  0  0  0  0  0  0
    4.8046   10.5278   28.2887 C   0  0  0  0  0  0  0  0  0  0  0  0
    4.8180   11.9623   28.7232 C   0  0  0  0  0  0  0  0  0  0  0  0
    6.4727   13.2301   26.6708 N   0  0  0  0  0  0  0  0  0  0  0  0
    7.5487   13.6679   26.0137 C   0  0  0  0  0  0  0  0  0  0  0  0
    8.3051   12.8829   25.1628 C   0  0  0  0  0  0  0  0  0  0  0  0
    9.4556   13.4145   24.5294 N   0  0  0  0  0  0  0  0  0  0  0  0
   10.3333   14.1597   25.3736 N   0  0  0  0  0  0  0  0  0  0  0  0
    9.0172   14.0988   23.2728 C   0  0  0  0  0  0  0  0  0  0  0  0
   10.2063   14.3720   22.3601 C   0  0  0  0  0  0  0  0  0  0  0  0
   10.7930   13.1872   22.0450 F   0  0  0  0  0  0  0  0  0  0  0  0
   11.1698   15.0702   23.0270 F   0  0  0  0  0  0  0  0  0  0  0  0
    9.7217   15.0950   21.1201 C   0  0  0  0  0  0  0  0  0  0  0  0
    8.6583   14.4342   20.5965 F   0  0  0  0  0  0  0  0  0  0  0  0
    9.2762   16.3411   21.3670 F   0  0  0  0  0  0  0  0  0  0  0  0
   10.6825   15.1887   20.1805 F   0  0  0  0  0  0  0  0  0  0  0  0
  1  2  1  0
  2  3  1  0
  3  4  2  0
  3  5  1  0
  5  6  2  0
  6  7  1  0
  7  8  1  0
  8  9  1  0
  9 10  1  0
  7 11  2  0
 11 12  1  0
 12 13  2  0
 13 14  1  0
 14 15  1  0
 14 16  1  0
 16 17  1  0
 17 18  1  0
 17 19  1  0
 17 20  1  0
 20 21  1  0
 20 22  1  0
 20 23  1  0
 13  5  1  0
 10  8  1  0
M  END
>  <energy_score>  (795) 
-29.238129

>  <inchikey>  (795) 
None

>  <smiles>  (795) 
None

>  <ref_pdb>  (795) 
A0514a

>  <alias>  (795) 
None

>  <HIPPO Pose ID>  (795) 
498439

>  <name>  (795) 
P498439

>  <HIPPO Compound ID>  (795) 
292931

>  <ref_mols>  (795) 
A4331a,A0514a

>  <distance_score>  (795) 
1.574737

>  <inspiration_score>  (795) 
None

$$$$
P498440
     RDKit          3D

 23 25  0  0  0  0  0  0  0  0999 V2000
    9.0998    8.7034   23.2361 C   0  0  0  0  0  0  0  0  0  0  0  0
    8.1363    9.3086   24.1142 O   0  0  0  0  0  0  0  0  0  0  0  0
    8.4412   10.5831   24.4440 C   0  0  0  0  0  0  0  0  0  0  0  0
    9.4808   11.1459   24.1463 O   0  0  0  0  0  0  0  0  0  0  0  0
    7.3159   11.2454   25.1676 C   0  0  0  0  0  0  0  0  0  0  0  0
    6.4579   10.4867   25.9446 C   0  0  0  0  0  0  0  0  0  0  0  0
    5.4378   11.1430   26.6060 C   0  0  0  0  0  0  0  0  0  0  0  0
    4.7432   10.5341   27.7784 C   0  0  0  0  0  0  0  0  0  0  0  0
    5.2544   10.8967   29.1540 C   0  0  0  0  0  0  0  0  0  0  0  0
    3.9342   11.4303   28.6971 C   0  0  0  0  0  0  0  0  0  0  0  0
    5.0881   12.4083   26.2917 N   0  0  0  0  0  0  0  0  0  0  0  0
    5.8844   13.1067   25.4718 C   0  0  0  0  0  0  0  0  0  0  0  0
    7.1236   12.6407   25.0600 C   0  0  0  0  0  0  0  0  0  0  0  0
    8.1799   13.2928   24.3187 N   0  0  0  0  0  0  0  0  0  0  0  0
    7.9251   14.3846   25.4478 N   0  0  0  0  0  0  0  0  0  0  0  0
    8.1777   13.9117   22.9524 C   0  0  0  0  0  0  0  0  0  0  0  0
    7.2952   14.0818   22.1962 O   0  0  0  0  0  0  0  0  0  0  0  0
    9.5776   14.1801   22.7149 C   0  0  0  0  0  0  0  0  0  0  0  0
   10.6454   13.8872   23.5536 C   0  0  0  0  0  0  0  0  0  0  0  0
   11.8623   14.3337   23.1643 N   0  0  0  0  0  0  0  0  0  0  0  0
   11.7163   14.8479   21.9683 C   0  0  0  0  0  0  0  0  0  0  0  0
   12.8294   15.4588   21.2695 C   0  0  0  0  0  0  0  0  0  0  0  0
   10.1433   14.9224   21.3044 S   0  0  0  0  0  0  0  0  0  0  0  0
  1  2  1  0
  2  3  1  0
  3  4  2  0
  3  5  1  0
  5  6  2  0
  6  7  1  0
  7  8  1  0
  8  9  1  0
  9 10  1  0
  7 11  2  0
 11 12  1  0
 12 13  2  0
 13 14  1  0
 14 15  1  0
 14 16  1  0
 16 17  2  0
 16 18  1  0
 18 19  2  0
 19 20  1  0
 20 21  2  0
 21 22  1  0
 21 23  1  0
 13  5  1  0
 23 18  1  0
 10  8  1  0
M  END
>  <energy_score>  (796) 
-5.234822

>  <inchikey>  (796) 
None

>  <smiles>  (796) 
None

>  <ref_pdb>  (796) 
A0514a

>  <alias>  (796) 
None

>  <HIPPO Pose ID>  (796) 
498440

>  <name>  (796) 
P498440

>  <HIPPO Compound ID>  (796) 
292935

>  <ref_mols>  (796) 
A4331a,A0514a

>  <distance_score>  (796) 
1.858012

>  <inspiration_score>  (796) 
None

$$$$
P498441
     RDKit          3D

 23 24  0  0  0  0  0  0  0  0999 V2000
    9.6265    8.9108   23.4476 C   0  0  0  0  0  0  0  0  0  0  0  0
    8.6053    9.5257   24.2375 O   0  0  0  0  0  0  0  0  0  0  0  0
    8.5750   10.8788   24.1240 C   0  0  0  0  0  0  0  0  0  0  0  0
    9.3025   11.5173   23.3845 O   0  0  0  0  0  0  0  0  0  0  0  0
    7.5033   11.4619   24.9801 C   0  0  0  0  0  0  0  0  0  0  0  0
    6.6476   10.6028   25.6825 C   0  0  0  0  0  0  0  0  0  0  0  0
    5.6765   11.1449   26.5119 C   0  0  0  0  0  0  0  0  0  0  0  0
    4.9749   10.3484   27.5658 C   0  0  0  0  0  0  0  0  0  0  0  0
    3.8248   10.9490   28.3443 C   0  0  0  0  0  0  0  0  0  0  0  0
    5.1695   10.8249   28.9926 C   0  0  0  0  0  0  0  0  0  0  0  0
    5.4178   12.4640   26.5177 N   0  0  0  0  0  0  0  0  0  0  0  0
    6.2566   13.2722   25.8690 C   0  0  0  0  0  0  0  0  0  0  0  0
    7.3692   12.8490   25.1583 C   0  0  0  0  0  0  0  0  0  0  0  0
    8.3425   13.7955   24.8271 N   0  0  0  0  0  0  0  0  0  0  0  0
    8.5941   14.7862   25.8273 N   0  0  0  0  0  0  0  0  0  0  0  0
    8.4192   14.1980   23.4053 C   0  0  0  0  0  0  0  0  0  0  0  0
    9.8853   14.4144   23.0921 C   0  0  0  0  0  0  0  0  0  0  0  0
   10.7803   14.3442   23.9363 O   0  0  0  0  0  0  0  0  0  0  0  0
   10.0578   14.7286   21.7783 O   0  0  0  0  0  0  0  0  0  0  0  0
   11.4115   14.6683   21.2915 C   0  0  0  0  0  0  0  0  0  0  0  0
   12.3140   15.7441   21.8387 C   0  0  0  0  0  0  0  0  0  0  0  0
   12.0061   13.3430   21.7160 C   0  0  0  0  0  0  0  0  0  0  0  0
   11.3826   14.8858   19.7743 C   0  0  0  0  0  0  0  0  0  0  0  0
  1  2  1  0
  2  3  1  0
  3  4  2  0
  3  5  1  0
  5  6  2  0
  6  7  1  0
  7  8  1  0
  8  9  1  0
  9 10  1  0
  7 11  2  0
 11 12  1  0
 12 13  2  0
 13 14  1  0
 14 15  1  0
 14 16  1  0
 16 17  1  0
 17 18  2  0
 17 19  1  0
 19 20  1  0
 20 21  1  0
 20 22  1  0
 20 23  1  0
 13  5  1  0
 10  8  1  0
M  END
>  <energy_score>  (797) 
-42.218809

>  <inchikey>  (797) 
None

>  <smiles>  (797) 
None

>  <ref_pdb>  (797) 
A0514a

>  <alias>  (797) 
None

>  <HIPPO Pose ID>  (797) 
498441

>  <name>  (797) 
P498441

>  <HIPPO Compound ID>  (797) 
292937

>  <ref_mols>  (797) 
A4331a,A0514a

>  <distance_score>  (797) 
1.612873

>  <inspiration_score>  (797) 
None

$$$$
P498442
     RDKit          3D

 23 25  0  0  0  0  0  0  0  0999 V2000
    9.5629    8.1126   23.5835 C   0  0  0  0  0  0  0  0  0  0  0  0
    8.6612    8.9037   24.3616 O   0  0  0  0  0  0  0  0  0  0  0  0
    8.5704   10.0741   23.7184 C   0  0  0  0  0  0  0  0  0  0  0  0
    9.0251   10.2178   22.5952 O   0  0  0  0  0  0  0  0  0  0  0  0
    7.9964   11.1945   24.4724 C   0  0  0  0  0  0  0  0  0  0  0  0
    6.9900   10.9618   25.4124 C   0  0  0  0  0  0  0  0  0  0  0  0
    6.3943   12.0630   26.0067 C   0  0  0  0  0  0  0  0  0  0  0  0
    5.2107   11.9793   26.9184 C   0  0  0  0  0  0  0  0  0  0  0  0
    5.1953   11.2060   28.2026 C   0  0  0  0  0  0  0  0  0  0  0  0
    5.3030   12.7012   28.2465 C   0  0  0  0  0  0  0  0  0  0  0  0
    6.8105   13.3198   25.7267 N   0  0  0  0  0  0  0  0  0  0  0  0
    7.7620   13.5168   24.7918 C   0  0  0  0  0  0  0  0  0  0  0  0
    8.4152   12.5010   24.1233 C   0  0  0  0  0  0  0  0  0  0  0  0
    9.3992   12.7449   23.1281 N   0  0  0  0  0  0  0  0  0  0  0  0
   10.6135   11.9537   23.2323 N   0  0  0  0  0  0  0  0  0  0  0  0
    9.7697   13.9370   22.6034 C   0  0  0  0  0  0  0  0  0  0  0  0
    9.3648   14.3118   21.3472 O   0  0  0  0  0  0  0  0  0  0  0  0
   10.3490   15.2085   20.9514 C   0  0  0  0  0  0  0  0  0  0  0  0
   10.3192   15.7777   19.5898 C   0  0  0  0  0  0  0  0  0  0  0  0
   11.2851   15.4260   21.8504 N   0  0  0  0  0  0  0  0  0  0  0  0
   10.8853   14.6692   22.8942 C   0  0  0  0  0  0  0  0  0  0  0  0
   11.5865   14.5124   24.1069 C   0  0  0  0  0  0  0  0  0  0  0  0
   12.0242   14.3475   25.1676 N   0  0  0  0  0  0  0  0  0  0  0  0
  1  2  1  0
  2  3  1  0
  3  4  2  0
  3  5  1  0
  5  6  2  0
  6  7  1  0
  7  8  1  0
  8  9  1  0
  9 10  1  0
  7 11  2  0
 11 12  1  0
 12 13  2  0
 13 14  1  0
 14 15  1  0
 14 16  1  0
 16 17  1  0
 17 18  1  0
 18 19  1  0
 18 20  2  0
 20 21  1  0
 21 22  1  0
 22 23  3  0
 13  5  1  0
 21 16  2  0
 10  8  1  0
M  END
>  <energy_score>  (798) 
-17.230934

>  <inchikey>  (798) 
None

>  <smiles>  (798) 
None

>  <ref_pdb>  (798) 
A0514a

>  <alias>  (798) 
None

>  <HIPPO Pose ID>  (798) 
498442

>  <name>  (798) 
P498442

>  <HIPPO Compound ID>  (798) 
292940

>  <ref_mols>  (798) 
A4331a,A0514a

>  <distance_score>  (798) 
1.479076

>  <inspiration_score>  (798) 
None

$$$$
P498443
     RDKit          3D

 23 25  0  0  0  0  0  0  0  0999 V2000
    9.3488    8.7136   23.0262 C   0  0  0  0  0  0  0  0  0  0  0  0
    8.5028    9.6071   23.7580 O   0  0  0  0  0  0  0  0  0  0  0  0
    8.9285   10.8915   23.7594 C   0  0  0  0  0  0  0  0  0  0  0  0
    9.9559   11.2917   23.2478 O   0  0  0  0  0  0  0  0  0  0  0  0
    8.0078   11.7561   24.5332 C   0  0  0  0  0  0  0  0  0  0  0  0
    7.2628   11.1594   25.5579 C   0  0  0  0  0  0  0  0  0  0  0  0
    6.4327   11.9280   26.3634 C   0  0  0  0  0  0  0  0  0  0  0  0
    5.5381   11.3046   27.3985 C   0  0  0  0  0  0  0  0  0  0  0  0
    5.5188   11.8672   28.7984 C   0  0  0  0  0  0  0  0  0  0  0  0
    4.3439   12.0933   27.8982 C   0  0  0  0  0  0  0  0  0  0  0  0
    6.3934   13.2636   26.2338 N   0  0  0  0  0  0  0  0  0  0  0  0
    7.0292   13.8010   25.1834 C   0  0  0  0  0  0  0  0  0  0  0  0
    7.8436   13.1228   24.2777 C   0  0  0  0  0  0  0  0  0  0  0  0
    8.2922   13.8117   23.1206 N   0  0  0  0  0  0  0  0  0  0  0  0
    7.2985   14.5958   22.5296 N   0  0  0  0  0  0  0  0  0  0  0  0
    9.6129   14.1157   22.7881 C   0  0  0  0  0  0  0  0  0  0  0  0
   10.6516   13.9126   23.6091 C   0  0  0  0  0  0  0  0  0  0  0  0
   12.0192   14.1119   23.1298 C   0  0  0  0  0  0  0  0  0  0  0  0
   12.9402   13.7162   23.8393 O   0  0  0  0  0  0  0  0  0  0  0  0
   12.1638   14.7346   21.9288 N   0  0  0  0  0  0  0  0  0  0  0  0
   11.1269   14.9312   21.0695 C   0  0  0  0  0  0  0  0  0  0  0  0
   11.2704   15.3193   19.9171 O   0  0  0  0  0  0  0  0  0  0  0  0
    9.8882   14.6639   21.5597 N   0  0  0  0  0  0  0  0  0  0  0  0
  1  2  1  0
  2  3  1  0
  3  4  2  0
  3  5  1  0
  5  6  2  0
  6  7  1  0
  7  8  1  0
  8  9  1  0
  9 10  1  0
  7 11  2  0
 11 12  1  0
 12 13  2  0
 13 14  1  0
 14 15  1  0
 14 16  1  0
 16 17  2  0
 17 18  1  0
 18 19  2  0
 18 20  1  0
 20 21  1  0
 21 22  2  0
 21 23  1  0
 13  5  1  0
 23 16  1  0
 10  8  1  0
M  END
>  <energy_score>  (799) 
-58.608044

>  <inchikey>  (799) 
None

>  <smiles>  (799) 
None

>  <ref_pdb>  (799) 
A0514a

>  <alias>  (799) 
None

>  <HIPPO Pose ID>  (799) 
498443

>  <name>  (799) 
P498443

>  <HIPPO Compound ID>  (799) 
292943

>  <ref_mols>  (799) 
A4331a,A0514a

>  <distance_score>  (799) 
1.891516

>  <inspiration_score>  (799) 
None

$$$$
P498444
     RDKit          3D

 23 25  0  0  0  0  0  0  0  0999 V2000
    9.3535    8.5991   23.0264 C   0  0  0  0  0  0  0  0  0  0  0  0
    8.5212    9.3801   23.8883 O   0  0  0  0  0  0  0  0  0  0  0  0
    8.8426   10.6924   23.9277 C   0  0  0  0  0  0  0  0  0  0  0  0
    9.7676   11.2103   23.3267 O   0  0  0  0  0  0  0  0  0  0  0  0
    7.9429   11.4265   24.8558 C   0  0  0  0  0  0  0  0  0  0  0  0
    6.9717   10.7513   25.6044 C   0  0  0  0  0  0  0  0  0  0  0  0
    6.2175   11.4628   26.5327 C   0  0  0  0  0  0  0  0  0  0  0  0
    5.2138   10.8095   27.4386 C   0  0  0  0  0  0  0  0  0  0  0  0
    3.9800   11.5795   27.8621 C   0  0  0  0  0  0  0  0  0  0  0  0
    5.0816   11.3508   28.8488 C   0  0  0  0  0  0  0  0  0  0  0  0
    6.4068   12.7912   26.7244 N   0  0  0  0  0  0  0  0  0  0  0  0
    7.2947   13.4361   25.9619 C   0  0  0  0  0  0  0  0  0  0  0  0
    8.0929   12.8048   25.0367 C   0  0  0  0  0  0  0  0  0  0  0  0
    8.8454   13.6377   24.2180 N   0  0  0  0  0  0  0  0  0  0  0  0
   10.1920   13.8618   24.5193 N   0  0  0  0  0  0  0  0  0  0  0  0
   10.7083   14.2805   23.3981 C   0  0  0  0  0  0  0  0  0  0  0  0
    9.7206   14.3825   22.3302 C   0  0  0  0  0  0  0  0  0  0  0  0
    9.7857   14.8808   21.1025 C   0  0  0  0  0  0  0  0  0  0  0  0
   10.8617   15.3022   20.3515 N   0  0  0  0  0  0  0  0  0  0  0  0
   10.6416   15.8950   19.0218 C   0  0  0  0  0  0  0  0  0  0  0  0
   12.2264   14.8772   20.6410 C   0  0  0  0  0  0  0  0  0  0  0  0
    8.4973   13.8106   22.8778 C   0  0  0  0  0  0  0  0  0  0  0  0
    7.4829   13.4924   22.2833 O   0  0  0  0  0  0  0  0  0  0  0  0
  1  2  1  0
  2  3  1  0
  3  4  2  0
  3  5  1  0
  5  6  2  0
  6  7  1  0
  7  8  1  0
  8  9  1  0
  9 10  1  0
  7 11  2  0
 11 12  1  0
 12 13  2  0
 13 14  1  0
 14 15  1  0
 15 16  2  0
 16 17  1  0
 17 18  2  0
 18 19  1  0
 19 20  1  0
 19 21  1  0
 17 22  1  0
 22 23  2  0
 13  5  1  0
 22 14  1  0
 10  8  1  0
M  END
>  <energy_score>  (800) 
-31.426341

>  <inchikey>  (800) 
None

>  <smiles>  (800) 
None

>  <ref_pdb>  (800) 
A0514a

>  <alias>  (800) 
None

>  <HIPPO Pose ID>  (800) 
498444

>  <name>  (800) 
P498444

>  <HIPPO Compound ID>  (800) 
292947

>  <ref_mols>  (800) 
A4331a,A0514a

>  <distance_score>  (800) 
1.761842

>  <inspiration_score>  (800) 
None

$$$$
P498445
     RDKit          3D

 23 25  0  0  0  0  0  0  0  0999 V2000
    9.3581    8.5997   23.0304 C   0  0  0  0  0  0  0  0  0  0  0  0
    8.5172    9.3780   23.8861 O   0  0  0  0  0  0  0  0  0  0  0  0
    8.8426   10.6894   23.9344 C   0  0  0  0  0  0  0  0  0  0  0  0
    9.7650   11.2081   23.3307 O   0  0  0  0  0  0  0  0  0  0  0  0
    7.9412   11.4208   24.8628 C   0  0  0  0  0  0  0  0  0  0  0  0
    6.9766   10.7408   25.6161 C   0  0  0  0  0  0  0  0  0  0  0  0
    6.2104   11.4520   26.5347 C   0  0  0  0  0  0  0  0  0  0  0  0
    5.2190   10.7943   27.4508 C   0  0  0  0  0  0  0  0  0  0  0  0
    3.9788   11.5522   27.8769 C   0  0  0  0  0  0  0  0  0  0  0  0
    5.0906   11.3462   28.8573 C   0  0  0  0  0  0  0  0  0  0  0  0
    6.3776   12.7854   26.7073 N   0  0  0  0  0  0  0  0  0  0  0  0
    7.2665   13.4329   25.9481 C   0  0  0  0  0  0  0  0  0  0  0  0
    8.0785   12.8015   25.0351 C   0  0  0  0  0  0  0  0  0  0  0  0
    8.8319   13.6351   24.2181 N   0  0  0  0  0  0  0  0  0  0  0  0
   10.1778   13.8578   24.5214 N   0  0  0  0  0  0  0  0  0  0  0  0
   10.6969   14.2779   23.4022 C   0  0  0  0  0  0  0  0  0  0  0  0
    9.7115   14.3797   22.3319 C   0  0  0  0  0  0  0  0  0  0  0  0
    9.7796   14.8776   21.1042 C   0  0  0  0  0  0  0  0  0  0  0  0
   10.8570   15.2987   20.3553 N   0  0  0  0  0  0  0  0  0  0  0  0
   10.6407   15.8921   19.0254 C   0  0  0  0  0  0  0  0  0  0  0  0
   12.2228   14.8817   20.6519 C   0  0  0  0  0  0  0  0  0  0  0  0
    8.4876   13.8057   22.8767 C   0  0  0  0  0  0  0  0  0  0  0  0
    7.4766   13.4792   22.2802 O   0  0  0  0  0  0  0  0  0  0  0  0
  1  2  1  0
  2  3  1  0
  3  4  2  0
  3  5  1  0
  5  6  2  0
  6  7  1  0
  7  8  1  0
  8  9  1  0
  9 10  1  0
  7 11  2  0
 11 12  1  0
 12 13  2  0
 13 14  1  0
 14 15  1  0
 15 16  2  0
 16 17  1  0
 17 18  2  0
 18 19  1  0
 19 20  1  0
 19 21  1  0
 17 22  1  0
 22 23  2  0
 13  5  1  0
 22 14  1  0
 10  8  1  0
M  END
>  <energy_score>  (801) 
-40.603354

>  <inchikey>  (801) 
None

>  <smiles>  (801) 
None

>  <ref_pdb>  (801) 
A0514a

>  <alias>  (801) 
None

>  <HIPPO Pose ID>  (801) 
498445

>  <name>  (801) 
P498445

>  <HIPPO Compound ID>  (801) 
292947

>  <ref_mols>  (801) 
A4331a,A0514a

>  <distance_score>  (801) 
1.406628

>  <inspiration_score>  (801) 
None

$$$$
P498446
     RDKit          3D

 23 25  0  0  0  0  0  0  0  0999 V2000
    9.1895    8.7459   23.1317 C   0  0  0  0  0  0  0  0  0  0  0  0
    8.3718    9.6172   23.9241 O   0  0  0  0  0  0  0  0  0  0  0  0
    8.9161   10.8460   24.0957 C   0  0  0  0  0  0  0  0  0  0  0  0
   10.0233   11.1690   23.7010 O   0  0  0  0  0  0  0  0  0  0  0  0
    8.0046   11.7512   24.8507 C   0  0  0  0  0  0  0  0  0  0  0  0
    6.8499   11.2518   25.4711 C   0  0  0  0  0  0  0  0  0  0  0  0
    6.0553   12.1277   26.2051 C   0  0  0  0  0  0  0  0  0  0  0  0
    4.8734   11.7343   27.0228 C   0  0  0  0  0  0  0  0  0  0  0  0
    4.9098   10.6573   28.0642 C   0  0  0  0  0  0  0  0  0  0  0  0
    4.9268   12.0913   28.4962 C   0  0  0  0  0  0  0  0  0  0  0  0
    6.3243   13.4469   26.2643 N   0  0  0  0  0  0  0  0  0  0  0  0
    7.4148   13.9101   25.6515 C   0  0  0  0  0  0  0  0  0  0  0  0
    8.3417   13.1069   25.0150 C   0  0  0  0  0  0  0  0  0  0  0  0
    9.6056   13.6410   24.6852 N   0  0  0  0  0  0  0  0  0  0  0  0
   10.3169   14.3424   25.7168 N   0  0  0  0  0  0  0  0  0  0  0  0
    9.9607   14.0125   23.3569 C   0  0  0  0  0  0  0  0  0  0  0  0
   11.3191   14.0811   23.0398 C   0  0  0  0  0  0  0  0  0  0  0  0
   11.8184   14.4910   21.8599 N   0  0  0  0  0  0  0  0  0  0  0  0
   10.8818   14.8073   20.9435 C   0  0  0  0  0  0  0  0  0  0  0  0
   11.3569   14.9394   19.6068 C   0  0  0  0  0  0  0  0  0  0  0  0
   11.7691   14.9028   18.5248 N   0  0  0  0  0  0  0  0  0  0  0  0
    9.5255   14.7748   21.2401 C   0  0  0  0  0  0  0  0  0  0  0  0
    9.0300   14.3480   22.4365 N   0  0  0  0  0  0  0  0  0  0  0  0
  1  2  1  0
  2  3  1  0
  3  4  2  0
  3  5  1  0
  5  6  2  0
  6  7  1  0
  7  8  1  0
  8  9  1  0
  9 10  1  0
  7 11  2  0
 11 12  1  0
 12 13  2  0
 13 14  1  0
 14 15  1  0
 14 16  1  0
 16 17  2  0
 17 18  1  0
 18 19  2  0
 19 20  1  0
 20 21  3  0
 19 22  1  0
 22 23  2  0
 13  5  1  0
 23 16  1  0
 10  8  1  0
M  END
>  <energy_score>  (802) 
-34.863319

>  <inchikey>  (802) 
None

>  <smiles>  (802) 
None

>  <ref_pdb>  (802) 
A0514a

>  <alias>  (802) 
None

>  <HIPPO Pose ID>  (802) 
498446

>  <name>  (802) 
P498446

>  <HIPPO Compound ID>  (802) 
292951

>  <ref_mols>  (802) 
A4331a,A0514a

>  <distance_score>  (802) 
1.630463

>  <inspiration_score>  (802) 
None

$$$$
P498447
     RDKit          3D

 23 25  0  0  0  0  0  0  0  0999 V2000
    9.1852    8.7394   23.1162 C   0  0  0  0  0  0  0  0  0  0  0  0
    8.3749    9.6294   23.8928 O   0  0  0  0  0  0  0  0  0  0  0  0
    8.8967   10.8736   24.0017 C   0  0  0  0  0  0  0  0  0  0  0  0
    9.9755   11.2147   23.5452 O   0  0  0  0  0  0  0  0  0  0  0  0
    8.0283   11.7724   24.8073 C   0  0  0  0  0  0  0  0  0  0  0  0
    6.9571   11.2585   25.5477 C   0  0  0  0  0  0  0  0  0  0  0  0
    6.2569   12.1202   26.3856 C   0  0  0  0  0  0  0  0  0  0  0  0
    5.0252   11.7368   27.1327 C   0  0  0  0  0  0  0  0  0  0  0  0
    5.0169   10.7214   28.2337 C   0  0  0  0  0  0  0  0  0  0  0  0
    4.9196   12.1771   28.5777 C   0  0  0  0  0  0  0  0  0  0  0  0
    6.6331   13.4082   26.5548 N   0  0  0  0  0  0  0  0  0  0  0  0
    7.6303   13.8979   25.8095 C   0  0  0  0  0  0  0  0  0  0  0  0
    8.3401   13.1376   24.9110 C   0  0  0  0  0  0  0  0  0  0  0  0
    9.2249   13.8199   24.0718 N   0  0  0  0  0  0  0  0  0  0  0  0
   10.4885   14.0995   24.5412 N   0  0  0  0  0  0  0  0  0  0  0  0
   11.2218   14.2219   23.4806 C   0  0  0  0  0  0  0  0  0  0  0  0
   10.5146   13.9458   22.1875 C   0  0  2  0  0  0  0  0  0  0  0  0
   10.6848   15.0114   21.1360 C   0  0  0  0  0  0  0  0  0  0  0  0
   12.0334   14.8468   20.4955 C   0  0  0  0  0  0  0  0  0  0  0  0
   12.2848   14.3897   19.3973 O   0  0  0  0  0  0  0  0  0  0  0  0
   13.0196   15.2510   21.3261 O   0  0  0  0  0  0  0  0  0  0  0  0
    9.1119   13.7486   22.6807 C   0  0  0  0  0  0  0  0  0  0  0  0
    8.0984   13.5003   22.0457 O   0  0  0  0  0  0  0  0  0  0  0  0
  1  2  1  0
  2  3  1  0
  3  4  2  0
  3  5  1  0
  5  6  2  0
  6  7  1  0
  7  8  1  0
  8  9  1  0
  9 10  1  0
  7 11  2  0
 11 12  1  0
 12 13  2  0
 13 14  1  0
 14 15  1  0
 15 16  2  0
 16 17  1  0
 17 18  1  6
 18 19  1  0
 19 20  2  0
 19 21  1  0
 17 22  1  0
 22 23  2  0
 13  5  1  0
 22 14  1  0
 10  8  1  0
M  END
>  <energy_score>  (803) 
-41.977537

>  <inchikey>  (803) 
None

>  <smiles>  (803) 
None

>  <ref_pdb>  (803) 
A0514a

>  <alias>  (803) 
None

>  <HIPPO Pose ID>  (803) 
498447

>  <name>  (803) 
P498447

>  <HIPPO Compound ID>  (803) 
292953

>  <ref_mols>  (803) 
A4331a,A0514a

>  <distance_score>  (803) 
1.599612

>  <inspiration_score>  (803) 
None

$$$$
P498448
     RDKit          3D

 23 25  0  0  0  0  0  0  0  0999 V2000
    9.2120    8.3301   22.8523 C   0  0  0  0  0  0  0  0  0  0  0  0
    8.4100    9.1603   23.6853 O   0  0  0  0  0  0  0  0  0  0  0  0
    8.9967   10.3534   23.8893 C   0  0  0  0  0  0  0  0  0  0  0  0
   10.0921   10.6937   23.4782 O   0  0  0  0  0  0  0  0  0  0  0  0
    8.1477   11.2325   24.7091 C   0  0  0  0  0  0  0  0  0  0  0  0
    7.1197   10.7360   25.5141 C   0  0  0  0  0  0  0  0  0  0  0  0
    6.4432   11.6187   26.3492 C   0  0  0  0  0  0  0  0  0  0  0  0
    5.3621   11.1699   27.2956 C   0  0  0  0  0  0  0  0  0  0  0  0
    4.1555   12.0557   27.5230 C   0  0  0  0  0  0  0  0  0  0  0  0
    5.1896   11.9299   28.5973 C   0  0  0  0  0  0  0  0  0  0  0  0
    6.7780   12.9345   26.3949 N   0  0  0  0  0  0  0  0  0  0  0  0
    7.7285   13.3997   25.5692 C   0  0  0  0  0  0  0  0  0  0  0  0
    8.4501   12.5912   24.7215 C   0  0  0  0  0  0  0  0  0  0  0  0
    9.2363   13.1728   23.7249 N   0  0  0  0  0  0  0  0  0  0  0  0
   10.4036   13.8467   24.0430 N   0  0  0  0  0  0  0  0  0  0  0  0
   10.6321   14.6114   23.0205 C   0  0  0  0  0  0  0  0  0  0  0  0
    9.4299   14.7706   22.1449 C   0  0  1  0  0  0  0  0  0  0  0  0
    9.4932   15.3034   20.7546 C   0  0  0  0  0  0  0  0  0  0  0  0
   10.7858   15.2039   20.0051 C   0  0  0  0  0  0  0  0  0  0  0  0
   11.8450   14.7674   20.4113 O   0  0  0  0  0  0  0  0  0  0  0  0
   10.6121   15.7281   18.7776 O   0  0  0  0  0  0  0  0  0  0  0  0
    8.6146   13.6029   22.5434 C   0  0  0  0  0  0  0  0  0  0  0  0
    7.5466   13.2456   22.0748 O   0  0  0  0  0  0  0  0  0  0  0  0
  1  2  1  0
  2  3  1  0
  3  4  2  0
  3  5  1  0
  5  6  2  0
  6  7  1  0
  7  8  1  0
  8  9  1  0
  9 10  1  0
  7 11  2  0
 11 12  1  0
 12 13  2  0
 13 14  1  0
 14 15  1  0
 15 16  2  0
 16 17  1  0
 17 18  1  6
 18 19  1  0
 19 20  2  0
 19 21  1  0
 17 22  1  0
 22 23  2  0
 13  5  1  0
 22 14  1  0
 10  8  1  0
M  END
>  <energy_score>  (804) 
-11.878038

>  <inchikey>  (804) 
None

>  <smiles>  (804) 
None

>  <ref_pdb>  (804) 
A0514a

>  <alias>  (804) 
None

>  <HIPPO Pose ID>  (804) 
498448

>  <name>  (804) 
P498448

>  <HIPPO Compound ID>  (804) 
292953

>  <ref_mols>  (804) 
A4331a,A0514a

>  <distance_score>  (804) 
1.286305

>  <inspiration_score>  (804) 
None

$$$$
P498449
     RDKit          3D

 23 24  0  0  0  0  0  0  0  0999 V2000
    9.2521    8.6608   23.5513 C   0  0  0  0  0  0  0  0  0  0  0  0
    8.5263    9.4596   24.4955 O   0  0  0  0  0  0  0  0  0  0  0  0
    8.4998   10.7546   24.1176 C   0  0  0  0  0  0  0  0  0  0  0  0
    8.9623   11.1828   23.0792 O   0  0  0  0  0  0  0  0  0  0  0  0
    7.8207   11.6330   25.0756 C   0  0  0  0  0  0  0  0  0  0  0  0
    6.6671   11.1685   25.7111 C   0  0  0  0  0  0  0  0  0  0  0  0
    5.9556   12.0577   26.5028 C   0  0  0  0  0  0  0  0  0  0  0  0
    4.7361   11.6975   27.2761 C   0  0  0  0  0  0  0  0  0  0  0  0
    4.7375   10.6175   28.3157 C   0  0  0  0  0  0  0  0  0  0  0  0
    4.7300   12.0529   28.7480 C   0  0  0  0  0  0  0  0  0  0  0  0
    6.3281   13.3484   26.6364 N   0  0  0  0  0  0  0  0  0  0  0  0
    7.4254   13.7718   26.0026 C   0  0  0  0  0  0  0  0  0  0  0  0
    8.2649   12.9552   25.2631 C   0  0  0  0  0  0  0  0  0  0  0  0
    9.5153   13.4547   24.7791 N   0  0  0  0  0  0  0  0  0  0  0  0
   10.2731   14.2421   25.7018 N   0  0  0  0  0  0  0  0  0  0  0  0
    9.2640   14.1149   23.4677 C   0  0  0  0  0  0  0  0  0  0  0  0
   10.5245   14.2801   22.5794 C   0  0  0  0  0  0  0  0  0  0  0  0
   11.7475   15.0318   23.0881 C   0  0  0  0  0  0  0  0  0  0  0  0
   11.1155   12.9085   22.3181 C   0  0  0  0  0  0  0  0  0  0  0  0
    9.8706   15.0803   21.0695 S   0  0  0  0  0  0  0  0  0  0  0  0
   11.1470   14.9597   19.8447 C   0  0  0  0  0  0  0  0  0  0  0  0
    9.7160   16.5024   21.2642 O   0  0  0  0  0  0  0  0  0  0  0  0
    8.6826   14.3373   20.7063 O   0  0  0  0  0  0  0  0  0  0  0  0
  1  2  1  0
  2  3  1  0
  3  4  2  0
  3  5  1  0
  5  6  2  0
  6  7  1  0
  7  8  1  0
  8  9  1  0
  9 10  1  0
  7 11  2  0
 11 12  1  0
 12 13  2  0
 13 14  1  0
 14 15  1  0
 14 16  1  0
 16 17  1  0
 17 18  1  0
 17 19  1  0
 17 20  1  0
 20 21  1  0
 20 22  2  0
 20 23  2  0
 13  5  1  0
 10  8  1  0
M  END
>  <energy_score>  (805) 
-36.807619

>  <inchikey>  (805) 
None

>  <smiles>  (805) 
None

>  <ref_pdb>  (805) 
A0514a

>  <alias>  (805) 
None

>  <HIPPO Pose ID>  (805) 
498449

>  <name>  (805) 
P498449

>  <HIPPO Compound ID>  (805) 
292955

>  <ref_mols>  (805) 
A4331a,A0514a

>  <distance_score>  (805) 
1.627911

>  <inspiration_score>  (805) 
None

$$$$
P498450
     RDKit          3D

 23 25  0  0  0  0  0  0  0  0999 V2000
    9.2173    8.5788   23.0610 C   0  0  0  0  0  0  0  0  0  0  0  0
    8.4737    9.4715   23.8963 O   0  0  0  0  0  0  0  0  0  0  0  0
    9.0120   10.7114   23.9587 C   0  0  0  0  0  0  0  0  0  0  0  0
   10.0445   11.0418   23.3998 O   0  0  0  0  0  0  0  0  0  0  0  0
    8.1996   11.6264   24.8032 C   0  0  0  0  0  0  0  0  0  0  0  0
    7.0240   11.1825   25.4296 C   0  0  0  0  0  0  0  0  0  0  0  0
    6.2803   12.0899   26.1796 C   0  0  0  0  0  0  0  0  0  0  0  0
    5.0215   11.7629   26.9074 C   0  0  0  0  0  0  0  0  0  0  0  0
    4.9454   10.7363   27.9972 C   0  0  0  0  0  0  0  0  0  0  0  0
    4.9360   12.1896   28.3601 C   0  0  0  0  0  0  0  0  0  0  0  0
    6.6492   13.3811   26.2951 N   0  0  0  0  0  0  0  0  0  0  0  0
    7.7621   13.7891   25.6798 C   0  0  0  0  0  0  0  0  0  0  0  0
    8.6059   12.9594   24.9637 C   0  0  0  0  0  0  0  0  0  0  0  0
    9.7990   13.5315   24.4870 N   0  0  0  0  0  0  0  0  0  0  0  0
   11.0284   13.0448   25.0311 N   0  0  0  0  0  0  0  0  0  0  0  0
    9.9127   14.0638   23.1794 C   0  0  0  0  0  0  0  0  0  0  0  0
    8.8162   14.3896   22.4894 N   0  0  0  0  0  0  0  0  0  0  0  0
    9.0293   14.9986   21.3097 C   0  0  0  0  0  0  0  0  0  0  0  0
   10.2737   15.2301   20.7733 C   0  0  0  0  0  0  0  0  0  0  0  0
   10.4382   15.8052   19.4980 C   0  0  0  0  0  0  0  0  0  0  0  0
   10.5490   16.2829   18.4537 N   0  0  0  0  0  0  0  0  0  0  0  0
   11.3373   14.8467   21.5357 C   0  0  0  0  0  0  0  0  0  0  0  0
   11.1746   14.2848   22.7441 N   0  0  0  0  0  0  0  0  0  0  0  0
  1  2  1  0
  2  3  1  0
  3  4  2  0
  3  5  1  0
  5  6  2  0
  6  7  1  0
  7  8  1  0
  8  9  1  0
  9 10  1  0
  7 11  2  0
 11 12  1  0
 12 13  2  0
 13 14  1  0
 14 15  1  0
 14 16  1  0
 16 17  2  0
 17 18  1  0
 18 19  2  0
 19 20  1  0
 20 21  3  0
 19 22  1  0
 22 23  2  0
 13  5  1  0
 23 16  1  0
 10  8  1  0
M  END
>  <energy_score>  (806) 
-48.304555

>  <inchikey>  (806) 
None

>  <smiles>  (806) 
None

>  <ref_pdb>  (806) 
A0514a

>  <alias>  (806) 
None

>  <HIPPO Pose ID>  (806) 
498450

>  <name>  (806) 
P498450

>  <HIPPO Compound ID>  (806) 
292958

>  <ref_mols>  (806) 
A4331a,A0514a

>  <distance_score>  (806) 
1.689083

>  <inspiration_score>  (806) 
None

$$$$
P498451
     RDKit          3D

 23 25  0  0  0  0  0  0  0  0999 V2000
    9.4743    8.4582   23.0766 C   0  0  0  0  0  0  0  0  0  0  0  0
    8.8099    9.3294   23.9899 O   0  0  0  0  0  0  0  0  0  0  0  0
    8.9401   10.6399   23.7081 C   0  0  0  0  0  0  0  0  0  0  0  0
    9.5756   11.1170   22.7901 O   0  0  0  0  0  0  0  0  0  0  0  0
    8.2107   11.4651   24.6903 C   0  0  0  0  0  0  0  0  0  0  0  0
    7.1736   10.8549   25.4129 C   0  0  0  0  0  0  0  0  0  0  0  0
    6.4463   11.6140   26.3154 C   0  0  0  0  0  0  0  0  0  0  0  0
    5.3911   10.9764   27.1800 C   0  0  0  0  0  0  0  0  0  0  0  0
    4.2985   11.7680   27.3613 F   0  0  0  0  0  0  0  0  0  0  0  0
    5.8575   10.6885   28.4315 F   0  0  0  0  0  0  0  0  0  0  0  0
    4.9273    9.7971   26.6880 F   0  0  0  0  0  0  0  0  0  0  0  0
    6.7086   12.9286   26.5156 N   0  0  0  0  0  0  0  0  0  0  0  0
    7.6718   13.5011   25.7722 C   0  0  0  0  0  0  0  0  0  0  0  0
    8.4928   12.8324   24.8656 C   0  0  0  0  0  0  0  0  0  0  0  0
    9.4517   13.6208   24.1934 N   0  0  0  0  0  0  0  0  0  0  0  0
   10.8650   13.2142   24.3242 C   0  0  0  0  0  0  0  0  0  0  0  0
   11.8234   14.1824   23.6523 C   0  0  0  0  0  0  0  0  0  0  0  0
   11.5174   14.3571   22.1791 C   0  0  0  0  0  0  0  0  0  0  0  0
   10.0678   14.4855   21.9617 C   0  0  0  0  0  0  0  0  0  0  0  0
    9.4458   14.9816   20.9213 N   0  0  0  0  0  0  0  0  0  0  0  0
    8.1044   14.8553   21.1481 N   0  0  0  0  0  0  0  0  0  0  0  0
    7.9356   14.3375   22.3406 C   0  0  0  0  0  0  0  0  0  0  0  0
    9.1536   14.0646   22.8918 N   0  0  0  0  0  0  0  0  0  0  0  0
  1  2  1  0
  2  3  1  0
  3  4  2  0
  3  5  1  0
  5  6  2  0
  6  7  1  0
  7  8  1  0
  8  9  1  0
  8 10  1  0
  8 11  1  0
  7 12  2  0
 12 13  1  0
 13 14  2  0
 14 15  1  0
 15 16  1  0
 16 17  1  0
 17 18  1  0
 18 19  1  0
 19 20  2  0
 20 21  1  0
 21 22  2  0
 22 23  1  0
 14  5  1  0
 23 15  1  0
 23 19  1  0
M  END
>  <energy_score>  (807) 
-29.449307

>  <inchikey>  (807) 
None

>  <smiles>  (807) 
None

>  <ref_pdb>  (807) 
A0514a

>  <alias>  (807) 
None

>  <HIPPO Pose ID>  (807) 
498451

>  <name>  (807) 
P498451

>  <HIPPO Compound ID>  (807) 
292963

>  <ref_mols>  (807) 
A4331a,A0514a

>  <distance_score>  (807) 
1.456565

>  <inspiration_score>  (807) 
None

$$$$
P498452
     RDKit          3D

 23 24  0  0  0  0  0  0  0  0999 V2000
    9.4060    8.6934   22.9803 C   0  0  0  0  0  0  0  0  0  0  0  0
    8.5361    9.5496   23.7212 O   0  0  0  0  0  0  0  0  0  0  0  0
    9.0199   10.8022   23.8695 C   0  0  0  0  0  0  0  0  0  0  0  0
   10.1055   11.2080   23.4985 O   0  0  0  0  0  0  0  0  0  0  0  0
    8.0926   11.6332   24.6539 C   0  0  0  0  0  0  0  0  0  0  0  0
    7.2657   11.0362   25.6006 C   0  0  0  0  0  0  0  0  0  0  0  0
    6.4714   11.8425   26.4077 C   0  0  0  0  0  0  0  0  0  0  0  0
    5.4830   11.2055   27.3536 C   0  0  0  0  0  0  0  0  0  0  0  0
    4.3673   11.9562   27.5571 F   0  0  0  0  0  0  0  0  0  0  0  0
    6.0134   10.9669   28.5878 F   0  0  0  0  0  0  0  0  0  0  0  0
    5.0348    9.9942   26.9142 F   0  0  0  0  0  0  0  0  0  0  0  0
    6.5550   13.1912   26.3835 N   0  0  0  0  0  0  0  0  0  0  0  0
    7.2780   13.7293   25.3891 C   0  0  0  0  0  0  0  0  0  0  0  0
    8.0407   13.0141   24.4703 C   0  0  0  0  0  0  0  0  0  0  0  0
    8.3935   13.6430   23.2651 N   0  0  0  0  0  0  0  0  0  0  0  0
    7.2987   13.7663   22.3797 N   0  0  0  0  0  0  0  0  0  0  0  0
    9.6279   14.0995   22.7569 C   0  0  0  0  0  0  0  0  0  0  0  0
   10.8270   14.0553   23.4571 C   0  0  0  0  0  0  0  0  0  0  0  0
   11.9967   14.5407   22.9724 N   0  0  0  0  0  0  0  0  0  0  0  0
   11.9266   15.0444   21.7100 C   0  0  0  0  0  0  0  0  0  0  0  0
   10.7429   15.0986   20.9841 C   0  0  0  0  0  0  0  0  0  0  0  0
   10.6501   15.7201   19.6301 C   0  0  0  0  0  0  0  0  0  0  0  0
    9.5846   14.6503   21.5146 N   0  0  0  0  0  0  0  0  0  0  0  0
  1  2  1  0
  2  3  1  0
  3  4  2  0
  3  5  1  0
  5  6  2  0
  6  7  1  0
  7  8  1  0
  8  9  1  0
  8 10  1  0
  8 11  1  0
  7 12  2  0
 12 13  1  0
 13 14  2  0
 14 15  1  0
 15 16  1  0
 15 17  1  0
 17 18  2  0
 18 19  1  0
 19 20  2  0
 20 21  1  0
 21 22  1  0
 21 23  2  0
 14  5  1  0
 23 17  1  0
M  END
>  <energy_score>  (808) 
-42.958966

>  <inchikey>  (808) 
None

>  <smiles>  (808) 
None

>  <ref_pdb>  (808) 
A0514a

>  <alias>  (808) 
None

>  <HIPPO Pose ID>  (808) 
498452

>  <name>  (808) 
P498452

>  <HIPPO Compound ID>  (808) 
292964

>  <ref_mols>  (808) 
A4331a,A0514a

>  <distance_score>  (808) 
1.539881

>  <inspiration_score>  (808) 
None

$$$$
P498453
     RDKit          3D

 23 24  0  0  0  0  0  0  0  0999 V2000
    9.2003    8.6179   23.1274 C   0  0  0  0  0  0  0  0  0  0  0  0
    8.2376    9.2802   23.9580 O   0  0  0  0  0  0  0  0  0  0  0  0
    8.5763   10.5580   24.2337 C   0  0  0  0  0  0  0  0  0  0  0  0
    9.6305   11.0894   23.9231 O   0  0  0  0  0  0  0  0  0  0  0  0
    7.4938   11.2546   24.9790 C   0  0  0  0  0  0  0  0  0  0  0  0
    6.6456   10.5665   25.8467 C   0  0  0  0  0  0  0  0  0  0  0  0
    5.7179   11.2897   26.5993 C   0  0  0  0  0  0  0  0  0  0  0  0
    4.9114   10.5840   27.6744 C   0  0  0  0  0  0  0  0  0  0  0  0
    5.6644   10.3346   28.7843 F   0  0  0  0  0  0  0  0  0  0  0  0
    3.8211   11.2789   28.1082 F   0  0  0  0  0  0  0  0  0  0  0  0
    4.4256    9.3767   27.2747 F   0  0  0  0  0  0  0  0  0  0  0  0
    5.5636   12.6337   26.4615 N   0  0  0  0  0  0  0  0  0  0  0  0
    6.3352   13.2699   25.5503 C   0  0  0  0  0  0  0  0  0  0  0  0
    7.3546   12.6464   24.8364 C   0  0  0  0  0  0  0  0  0  0  0  0
    8.1030   13.3234   23.8049 N   0  0  0  0  0  0  0  0  0  0  0  0
    9.0986   13.5750   25.0391 N   0  0  0  0  0  0  0  0  0  0  0  0
    7.8459   14.5405   23.1136 C   0  0  0  0  0  0  0  0  0  0  0  0
    6.9829   15.3621   23.2724 O   0  0  0  0  0  0  0  0  0  0  0  0
    8.9382   14.7364   22.1437 C   0  0  0  0  0  0  0  0  0  0  0  0
    8.9725   15.7529   21.2151 C   0  0  0  0  0  0  0  0  0  0  0  0
   10.4236   15.6984   20.3237 S   0  0  0  0  0  0  0  0  0  0  0  0
   10.9665   14.4094   21.2982 C   0  0  0  0  0  0  0  0  0  0  0  0
   10.1210   13.9886   22.2119 N   0  0  0  0  0  0  0  0  0  0  0  0
  1  2  1  0
  2  3  1  0
  3  4  2  0
  3  5  1  0
  5  6  2  0
  6  7  1  0
  7  8  1  0
  8  9  1  0
  8 10  1  0
  8 11  1  0
  7 12  2  0
 12 13  1  0
 13 14  2  0
 14 15  1  0
 15 16  1  0
 15 17  1  0
 17 18  2  0
 17 19  1  0
 19 20  2  0
 20 21  1  0
 21 22  1  0
 22 23  2  0
 14  5  1  0
 23 19  1  0
M  END
>  <energy_score>  (809) 
-14.724396

>  <inchikey>  (809) 
None

>  <smiles>  (809) 
None

>  <ref_pdb>  (809) 
A0514a

>  <alias>  (809) 
None

>  <HIPPO Pose ID>  (809) 
498453

>  <name>  (809) 
P498453

>  <HIPPO Compound ID>  (809) 
292965

>  <ref_mols>  (809) 
A4331a,A0514a

>  <distance_score>  (809) 
1.50867

>  <inspiration_score>  (809) 
None

$$$$
P498454
     RDKit          3D

 23 24  0  0  0  0  0  0  0  0999 V2000
   12.2443   14.7669   20.6313 C   0  0  0  0  0  0  0  0  0  0  0  0
   10.8193   15.2659   20.5230 C   0  0  0  0  0  0  0  0  0  0  0  0
    9.8695   14.4126   21.1743 O   0  0  0  0  0  0  0  0  0  0  0  0
   10.0800   14.2033   22.5015 C   0  0  0  0  0  0  0  0  0  0  0  0
   11.1059   14.4988   23.1116 O   0  0  0  0  0  0  0  0  0  0  0  0
    8.8012   13.6407   23.1492 C   0  0  2  0  0  0  0  0  0  0  0  0
    7.7775   14.7928   23.1439 C   0  0  0  0  0  0  0  0  0  0  0  0
    6.3327   14.4182   22.8941 C   0  0  0  0  0  0  0  0  0  0  0  0
    9.1097   13.0711   24.5124 N   0  0  0  0  0  0  0  0  0  0  0  0
   10.0566   13.7436   25.3512 N   0  0  0  0  0  0  0  0  0  0  0  0
    7.9888   12.5686   25.1970 C   0  0  0  0  0  0  0  0  0  0  0  0
    7.3051   13.4061   26.0755 C   0  0  0  0  0  0  0  0  0  0  0  0
    6.2642   13.0584   26.8413 N   0  0  0  0  0  0  0  0  0  0  0  0
    5.8047   11.7973   26.7646 C   0  0  0  0  0  0  0  0  0  0  0  0
    4.6606   11.4363   27.6603 C   0  0  0  0  0  0  0  0  0  0  0  0
    3.4158   12.2917   27.6333 C   0  0  0  0  0  0  0  0  0  0  0  0
    4.3259   12.3510   28.8210 C   0  0  0  0  0  0  0  0  0  0  0  0
    6.4017   10.8823   25.9203 C   0  0  0  0  0  0  0  0  0  0  0  0
    7.5142   11.2553   25.1435 C   0  0  0  0  0  0  0  0  0  0  0  0
    8.1388   10.1126   24.4494 C   0  0  0  0  0  0  0  0  0  0  0  0
    7.8050    8.9737   24.7470 O   0  0  0  0  0  0  0  0  0  0  0  0
    9.0575   10.4334   23.5187 O   0  0  0  0  0  0  0  0  0  0  0  0
    9.6589    9.2685   22.9447 C   0  0  0  0  0  0  0  0  0  0  0  0
  1  2  1  0
  2  3  1  0
  3  4  1  0
  4  5  2  0
  4  6  1  0
  6  7  1  1
  7  8  1  0
  6  9  1  0
  9 10  1  0
  9 11  1  0
 11 12  2  0
 12 13  1  0
 13 14  2  0
 14 15  1  0
 15 16  1  0
 16 17  1  0
 14 18  1  0
 18 19  2  0
 19 20  1  0
 20 21  2  0
 20 22  1  0
 22 23  1  0
 19 11  1  0
 17 15  1  0
M  END
>  <energy_score>  (810) 
-30.736713

>  <inchikey>  (810) 
None

>  <smiles>  (810) 
None

>  <ref_pdb>  (810) 
A0514a

>  <alias>  (810) 
None

>  <HIPPO Pose ID>  (810) 
498454

>  <name>  (810) 
P498454

>  <HIPPO Compound ID>  (810) 
292966

>  <ref_mols>  (810) 
A4331a,A0514a

>  <distance_score>  (810) 
1.555378

>  <inspiration_score>  (810) 
None

$$$$
P498455
     RDKit          3D

 24 24  0  0  0  0  0  0  0  0999 V2000
   11.1741   15.1397   19.0220 C   0  0  0  0  0  0  0  0  0  0  0  0
   11.3411   14.9654   20.5137 C   0  0  0  0  0  0  0  0  0  0  0  0
   10.1229   14.4506   21.0685 O   0  0  0  0  0  0  0  0  0  0  0  0
   10.1876   14.2909   22.4168 C   0  0  0  0  0  0  0  0  0  0  0  0
   11.1885   14.5214   23.0957 O   0  0  0  0  0  0  0  0  0  0  0  0
    8.8408   13.7583   22.9775 C   0  0  2  0  0  0  0  0  0  0  0  0
    7.8032   14.8817   22.8661 C   0  0  0  0  0  0  0  0  0  0  0  0
    6.3867   14.4615   22.5353 C   0  0  0  0  0  0  0  0  0  0  0  0
    9.0404   13.2521   24.3848 N   0  0  0  0  0  0  0  0  0  0  0  0
   10.2800   12.6440   24.6972 N   0  0  0  0  0  0  0  0  0  0  0  0
    7.9376   12.6469   25.0124 C   0  0  0  0  0  0  0  0  0  0  0  0
    7.1760   13.4785   25.8394 C   0  0  0  0  0  0  0  0  0  0  0  0
    6.1841   13.0851   26.6600 N   0  0  0  0  0  0  0  0  0  0  0  0
    5.8715   11.7726   26.6749 C   0  0  0  0  0  0  0  0  0  0  0  0
    4.8536   11.3051   27.6775 C   0  0  0  0  0  0  0  0  0  0  0  0
    3.7668   12.1197   27.7272 F   0  0  0  0  0  0  0  0  0  0  0  0
    5.3526   11.2521   28.9462 F   0  0  0  0  0  0  0  0  0  0  0  0
    4.3626   10.0574   27.4314 F   0  0  0  0  0  0  0  0  0  0  0  0
    6.5270   10.8639   25.8712 C   0  0  0  0  0  0  0  0  0  0  0  0
    7.5863   11.2882   25.0459 C   0  0  0  0  0  0  0  0  0  0  0  0
    8.2421   10.1427   24.3760 C   0  0  0  0  0  0  0  0  0  0  0  0
    7.9574    9.0035   24.7253 O   0  0  0  0  0  0  0  0  0  0  0  0
    9.1146   10.4409   23.3930 O   0  0  0  0  0  0  0  0  0  0  0  0
    9.6866    9.2498   22.8373 C   0  0  0  0  0  0  0  0  0  0  0  0
  1  2  1  0
  2  3  1  0
  3  4  1  0
  4  5  2  0
  4  6  1  0
  6  7  1  1
  7  8  1  0
  6  9  1  0
  9 10  1  0
  9 11  1  0
 11 12  2  0
 12 13  1  0
 13 14  2  0
 14 15  1  0
 15 16  1  0
 15 17  1  0
 15 18  1  0
 14 19  1  0
 19 20  2  0
 20 21  1  0
 21 22  2  0
 21 23  1  0
 23 24  1  0
 20 11  1  0
M  END
>  <energy_score>  (811) 
-29.565061

>  <inchikey>  (811) 
None

>  <smiles>  (811) 
None

>  <ref_pdb>  (811) 
A0514a

>  <alias>  (811) 
None

>  <HIPPO Pose ID>  (811) 
498455

>  <name>  (811) 
P498455

>  <HIPPO Compound ID>  (811) 
292967

>  <ref_mols>  (811) 
A4331a,A0514a

>  <distance_score>  (811) 
1.248518

>  <inspiration_score>  (811) 
None

$$$$
P498456
     RDKit          3D

 24 24  0  0  0  0  0  0  0  0999 V2000
   12.2423   15.2086   21.1184 C   0  0  0  0  0  0  0  0  0  0  0  0
   12.0548   13.9726   21.9502 C   0  0  0  0  0  0  0  0  0  0  0  0
   10.6766   13.8750   22.2783 O   0  0  0  0  0  0  0  0  0  0  0  0
   10.3828   14.1285   23.5702 C   0  0  0  0  0  0  0  0  0  0  0  0
   11.2179   14.3367   24.4549 O   0  0  0  0  0  0  0  0  0  0  0  0
    8.8679   14.2391   23.8005 C   0  0  1  0  0  0  0  0  0  0  0  0
    7.9619   13.7789   22.6647 C   0  0  0  0  0  0  0  0  0  0  0  0
    6.6227   14.5091   22.6138 C   0  0  0  0  0  0  0  0  0  0  0  0
    8.6033   13.7628   25.1773 N   0  0  0  0  0  0  0  0  0  0  0  0
    8.9256   14.6764   26.2445 N   0  0  0  0  0  0  0  0  0  0  0  0
    7.5501   12.8915   25.4437 C   0  0  0  0  0  0  0  0  0  0  0  0
    6.4582   13.3964   26.1425 C   0  0  0  0  0  0  0  0  0  0  0  0
    5.4937   12.6614   26.6898 N   0  0  0  0  0  0  0  0  0  0  0  0
    5.5915   11.3233   26.5571 C   0  0  0  0  0  0  0  0  0  0  0  0
    4.7324   10.5499   27.5067 C   0  0  0  0  0  0  0  0  0  0  0  0
    5.2923   10.5456   28.7445 F   0  0  0  0  0  0  0  0  0  0  0  0
    4.5308    9.2571   27.1596 F   0  0  0  0  0  0  0  0  0  0  0  0
    3.4797   11.0718   27.6814 F   0  0  0  0  0  0  0  0  0  0  0  0
    6.5602   10.7086   25.7685 C   0  0  0  0  0  0  0  0  0  0  0  0
    7.5515   11.5071   25.1841 C   0  0  0  0  0  0  0  0  0  0  0  0
    8.6304   10.8672   24.3718 C   0  0  0  0  0  0  0  0  0  0  0  0
    9.6123   11.4504   23.9453 O   0  0  0  0  0  0  0  0  0  0  0  0
    8.3477    9.5642   24.1267 O   0  0  0  0  0  0  0  0  0  0  0  0
    9.2908    8.9142   23.2640 C   0  0  0  0  0  0  0  0  0  0  0  0
  1  2  1  0
  2  3  1  0
  3  4  1  0
  4  5  2  0
  4  6  1  0
  6  7  1  6
  7  8  1  0
  6  9  1  0
  9 10  1  0
  9 11  1  0
 11 12  2  0
 12 13  1  0
 13 14  2  0
 14 15  1  0
 15 16  1  0
 15 17  1  0
 15 18  1  0
 14 19  1  0
 19 20  2  0
 20 21  1  0
 21 22  2  0
 21 23  1  0
 23 24  1  0
 20 11  1  0
M  END
>  <energy_score>  (812) 
-40.341668

>  <inchikey>  (812) 
None

>  <smiles>  (812) 
None

>  <ref_pdb>  (812) 
A0514a

>  <alias>  (812) 
None

>  <HIPPO Pose ID>  (812) 
498456

>  <name>  (812) 
P498456

>  <HIPPO Compound ID>  (812) 
292967

>  <ref_mols>  (812) 
A4331a,A0514a

>  <distance_score>  (812) 
1.698839

>  <inspiration_score>  (812) 
None

$$$$
P498457
     RDKit          3D

 24 25  0  0  0  0  0  0  0  0999 V2000
    9.2270    8.7815   23.1524 C   0  0  0  0  0  0  0  0  0  0  0  0
    8.3141    9.5129   23.9809 O   0  0  0  0  0  0  0  0  0  0  0  0
    8.6939   10.7942   24.2074 C   0  0  0  0  0  0  0  0  0  0  0  0
    9.7387   11.2835   23.8138 O   0  0  0  0  0  0  0  0  0  0  0  0
    7.6790   11.5113   25.0359 C   0  0  0  0  0  0  0  0  0  0  0  0
    6.7177   10.7920   25.7547 C   0  0  0  0  0  0  0  0  0  0  0  0
    5.8832   11.4868   26.6316 C   0  0  0  0  0  0  0  0  0  0  0  0
    5.0558   10.7470   27.6464 C   0  0  0  0  0  0  0  0  0  0  0  0
    4.4061    9.6992   27.1025 F   0  0  0  0  0  0  0  0  0  0  0  0
    5.8212   10.2362   28.6550 F   0  0  0  0  0  0  0  0  0  0  0  0
    4.0920   11.4963   28.2513 F   0  0  0  0  0  0  0  0  0  0  0  0
    5.8778   12.8354   26.7206 N   0  0  0  0  0  0  0  0  0  0  0  0
    6.7765   13.5064   25.9905 C   0  0  0  0  0  0  0  0  0  0  0  0
    7.7601   12.9031   25.2166 C   0  0  0  0  0  0  0  0  0  0  0  0
    8.8622   13.6652   24.7676 N   0  0  0  0  0  0  0  0  0  0  0  0
    9.3773   14.6332   25.7016 N   0  0  0  0  0  0  0  0  0  0  0  0
    8.9985   14.0321   23.3908 C   0  0  0  0  0  0  0  0  0  0  0  0
    7.9221   14.0718   22.5792 N   0  0  0  0  0  0  0  0  0  0  0  0
    8.1322   14.7018   21.3958 C   0  0  0  0  0  0  0  0  0  0  0  0
    9.3639   15.1461   20.9488 C   0  0  0  0  0  0  0  0  0  0  0  0
   10.4610   14.9867   21.6859 N   0  0  0  0  0  0  0  0  0  0  0  0
   10.2506   14.4354   22.9006 C   0  0  0  0  0  0  0  0  0  0  0  0
   11.3210   14.4154   23.7681 O   0  0  0  0  0  0  0  0  0  0  0  0
   12.4797   14.1023   23.0260 C   0  0  0  0  0  0  0  0  0  0  0  0
  1  2  1  0
  2  3  1  0
  3  4  2  0
  3  5  1  0
  5  6  2  0
  6  7  1  0
  7  8  1  0
  8  9  1  0
  8 10  1  0
  8 11  1  0
  7 12  2  0
 12 13  1  0
 13 14  2  0
 14 15  1  0
 15 16  1  0
 15 17  1  0
 17 18  2  0
 18 19  1  0
 19 20  2  0
 20 21  1  0
 21 22  2  0
 22 23  1  0
 23 24  1  0
 14  5  1  0
 22 17  1  0
M  END
>  <energy_score>  (813) 
-39.008813

>  <inchikey>  (813) 
None

>  <smiles>  (813) 
None

>  <ref_pdb>  (813) 
A0514a

>  <alias>  (813) 
None

>  <HIPPO Pose ID>  (813) 
498457

>  <name>  (813) 
P498457

>  <HIPPO Compound ID>  (813) 
292973

>  <ref_mols>  (813) 
A4331a,A0514a

>  <distance_score>  (813) 
1.538601

>  <inspiration_score>  (813) 
None

$$$$
P498458
     RDKit          3D

 24 25  0  0  0  0  0  0  0  0999 V2000
    9.3605    8.7859   23.0843 C   0  0  0  0  0  0  0  0  0  0  0  0
    8.3556    9.3909   23.9025 O   0  0  0  0  0  0  0  0  0  0  0  0
    8.6393   10.6601   24.2661 C   0  0  0  0  0  0  0  0  0  0  0  0
    9.6577   11.2783   23.9991 O   0  0  0  0  0  0  0  0  0  0  0  0
    7.5697   11.2055   25.1433 C   0  0  0  0  0  0  0  0  0  0  0  0
    6.6920   10.3424   25.8021 C   0  0  0  0  0  0  0  0  0  0  0  0
    5.8854   10.8624   26.8050 C   0  0  0  0  0  0  0  0  0  0  0  0
    4.8856   10.0424   27.5575 C   0  0  0  0  0  0  0  0  0  0  0  0
    3.8621   10.8295   28.0087 F   0  0  0  0  0  0  0  0  0  0  0  0
    4.2842    9.0764   26.8160 F   0  0  0  0  0  0  0  0  0  0  0  0
    5.4064    9.4359   28.6587 F   0  0  0  0  0  0  0  0  0  0  0  0
    5.9723   12.1492   27.2129 N   0  0  0  0  0  0  0  0  0  0  0  0
    6.7436   12.9736   26.5091 C   0  0  0  0  0  0  0  0  0  0  0  0
    7.5127   12.5741   25.4303 C   0  0  0  0  0  0  0  0  0  0  0  0
    8.0930   13.5814   24.6485 N   0  0  0  0  0  0  0  0  0  0  0  0
    7.7985   14.8852   25.0297 N   0  0  0  0  0  0  0  0  0  0  0  0
    7.8071   15.5532   23.9294 C   0  0  0  0  0  0  0  0  0  0  0  0
    8.5856   14.8413   22.8734 C   0  0  2  0  0  0  0  0  0  0  0  0
    8.4215   15.2746   21.4505 C   0  0  0  0  0  0  0  0  0  0  0  0
    9.7610   15.1636   20.7659 C   0  0  0  0  0  0  0  0  0  0  0  0
   10.2109   15.9184   19.9270 O   0  0  0  0  0  0  0  0  0  0  0  0
   10.4022   14.0354   21.1265 O   0  0  0  0  0  0  0  0  0  0  0  0
    8.1460   13.4963   23.2472 C   0  0  0  0  0  0  0  0  0  0  0  0
    7.7452   12.6392   22.4941 O   0  0  0  0  0  0  0  0  0  0  0  0
  1  2  1  0
  2  3  1  0
  3  4  2  0
  3  5  1  0
  5  6  2  0
  6  7  1  0
  7  8  1  0
  8  9  1  0
  8 10  1  0
  8 11  1  0
  7 12  2  0
 12 13  1  0
 13 14  2  0
 14 15  1  0
 15 16  1  0
 16 17  2  0
 17 18  1  0
 18 19  1  6
 19 20  1  0
 20 21  2  0
 20 22  1  0
 18 23  1  0
 23 24  2  0
 14  5  1  0
 23 15  1  0
M  END
>  <energy_score>  (814) 
-26.510883

>  <inchikey>  (814) 
None

>  <smiles>  (814) 
None

>  <ref_pdb>  (814) 
A0514a

>  <alias>  (814) 
None

>  <HIPPO Pose ID>  (814) 
498458

>  <name>  (814) 
P498458

>  <HIPPO Compound ID>  (814) 
292974

>  <ref_mols>  (814) 
A4331a,A0514a

>  <distance_score>  (814) 
1.662594

>  <inspiration_score>  (814) 
None

$$$$
P498459
     RDKit          3D

 24 25  0  0  0  0  0  0  0  0999 V2000
    9.5228    8.6734   23.0318 C   0  0  0  0  0  0  0  0  0  0  0  0
    8.7431    9.5444   23.8505 O   0  0  0  0  0  0  0  0  0  0  0  0
    9.0674   10.8531   23.7412 C   0  0  0  0  0  0  0  0  0  0  0  0
    9.9567   11.3074   23.0457 O   0  0  0  0  0  0  0  0  0  0  0  0
    8.1980   11.6710   24.6217 C   0  0  0  0  0  0  0  0  0  0  0  0
    7.1606   11.0723   25.3522 C   0  0  0  0  0  0  0  0  0  0  0  0
    6.3917   11.8679   26.1965 C   0  0  0  0  0  0  0  0  0  0  0  0
    5.2760   11.2949   27.0247 C   0  0  0  0  0  0  0  0  0  0  0  0
    5.5081   11.4514   28.3573 F   0  0  0  0  0  0  0  0  0  0  0  0
    4.0656   11.8805   26.8047 F   0  0  0  0  0  0  0  0  0  0  0  0
    5.0883    9.9581   26.8432 F   0  0  0  0  0  0  0  0  0  0  0  0
    6.6357   13.1930   26.3614 N   0  0  0  0  0  0  0  0  0  0  0  0
    7.5979   13.7540   25.6130 C   0  0  0  0  0  0  0  0  0  0  0  0
    8.4103   13.0477   24.7461 C   0  0  0  0  0  0  0  0  0  0  0  0
    9.2985   13.8041   23.9786 N   0  0  0  0  0  0  0  0  0  0  0  0
   10.6272   13.8527   24.3436 N   0  0  0  0  0  0  0  0  0  0  0  0
   11.2507   14.3076   23.2992 C   0  0  0  0  0  0  0  0  0  0  0  0
   10.3492   14.7321   22.1748 C   0  0  1  0  0  0  0  0  0  0  0  0
   10.7199   14.5372   20.7439 C   0  0  0  0  0  0  0  0  0  0  0  0
   12.1676   14.5679   20.3710 C   0  0  0  0  0  0  0  0  0  0  0  0
   12.6444   14.1052   19.3493 O   0  0  0  0  0  0  0  0  0  0  0  0
   12.9530   15.2308   21.2391 O   0  0  0  0  0  0  0  0  0  0  0  0
    9.0666   14.0738   22.6210 C   0  0  0  0  0  0  0  0  0  0  0  0
    8.0522   13.8408   21.9843 O   0  0  0  0  0  0  0  0  0  0  0  0
  1  2  1  0
  2  3  1  0
  3  4  2  0
  3  5  1  0
  5  6  2  0
  6  7  1  0
  7  8  1  0
  8  9  1  0
  8 10  1  0
  8 11  1  0
  7 12  2  0
 12 13  1  0
 13 14  2  0
 14 15  1  0
 15 16  1  0
 16 17  2  0
 17 18  1  0
 18 19  1  6
 19 20  1  0
 20 21  2  0
 20 22  1  0
 18 23  1  0
 23 24  2  0
 14  5  1  0
 23 15  1  0
M  END
>  <energy_score>  (815) 
-41.330622

>  <inchikey>  (815) 
None

>  <smiles>  (815) 
None

>  <ref_pdb>  (815) 
A0514a

>  <alias>  (815) 
None

>  <HIPPO Pose ID>  (815) 
498459

>  <name>  (815) 
P498459

>  <HIPPO Compound ID>  (815) 
292974

>  <ref_mols>  (815) 
A4331a,A0514a

>  <distance_score>  (815) 
1.336606

>  <inspiration_score>  (815) 
None

$$$$
P498460
     RDKit          3D

 24 25  0  0  0  0  0  0  0  0999 V2000
    9.2923    8.6676   23.0564 C   0  0  0  0  0  0  0  0  0  0  0  0
    8.4565    9.5047   23.8623 O   0  0  0  0  0  0  0  0  0  0  0  0
    8.9523   10.7543   24.0315 C   0  0  0  0  0  0  0  0  0  0  0  0
   10.0255   11.1338   23.5989 O   0  0  0  0  0  0  0  0  0  0  0  0
    8.0177   11.5948   24.8331 C   0  0  0  0  0  0  0  0  0  0  0  0
    6.9327   11.0027   25.4929 C   0  0  0  0  0  0  0  0  0  0  0  0
    6.1318   11.7980   26.3120 C   0  0  0  0  0  0  0  0  0  0  0  0
    5.1440   11.1876   27.2638 C   0  0  0  0  0  0  0  0  0  0  0  0
    4.7920    9.9318   26.9074 F   0  0  0  0  0  0  0  0  0  0  0  0
    3.9707   11.8705   27.3809 F   0  0  0  0  0  0  0  0  0  0  0  0
    5.6463   11.0716   28.5282 F   0  0  0  0  0  0  0  0  0  0  0  0
    6.2983   13.1346   26.4115 N   0  0  0  0  0  0  0  0  0  0  0  0
    7.3370   13.6796   25.7646 C   0  0  0  0  0  0  0  0  0  0  0  0
    8.2812   12.9601   25.0417 C   0  0  0  0  0  0  0  0  0  0  0  0
    9.5244   13.5575   24.7265 N   0  0  0  0  0  0  0  0  0  0  0  0
   10.1211   14.3053   25.7944 N   0  0  0  0  0  0  0  0  0  0  0  0
    9.8838   13.9523   23.4045 C   0  0  0  0  0  0  0  0  0  0  0  0
   11.2415   13.9519   23.0745 C   0  0  0  0  0  0  0  0  0  0  0  0
   11.7535   14.3886   21.9092 N   0  0  0  0  0  0  0  0  0  0  0  0
   10.8296   14.7802   21.0083 C   0  0  0  0  0  0  0  0  0  0  0  0
   11.3076   14.9527   19.6766 C   0  0  0  0  0  0  0  0  0  0  0  0
   11.7111   14.9576   18.5907 N   0  0  0  0  0  0  0  0  0  0  0  0
    9.4741   14.7952   21.3109 C   0  0  0  0  0  0  0  0  0  0  0  0
    8.9664   14.3647   22.5030 N   0  0  0  0  0  0  0  0  0  0  0  0
  1  2  1  0
  2  3  1  0
  3  4  2  0
  3  5  1  0
  5  6  2  0
  6  7  1  0
  7  8  1  0
  8  9  1  0
  8 10  1  0
  8 11  1  0
  7 12  2  0
 12 13  1  0
 13 14  2  0
 14 15  1  0
 15 16  1  0
 15 17  1  0
 17 18  2  0
 18 19  1  0
 19 20  2  0
 20 21  1  0
 21 22  3  0
 20 23  1  0
 23 24  2  0
 14  5  1  0
 24 17  1  0
M  END
>  <energy_score>  (816) 
-38.443816

>  <inchikey>  (816) 
None

>  <smiles>  (816) 
None

>  <ref_pdb>  (816) 
A0514a

>  <alias>  (816) 
None

>  <HIPPO Pose ID>  (816) 
498460

>  <name>  (816) 
P498460

>  <HIPPO Compound ID>  (816) 
292980

>  <ref_mols>  (816) 
A4331a,A0514a

>  <distance_score>  (816) 
1.357732

>  <inspiration_score>  (816) 
None

$$$$
P498461
     RDKit          3D

 24 25  0  0  0  0  0  0  0  0999 V2000
    9.4453    8.6152   23.0186 C   0  0  0  0  0  0  0  0  0  0  0  0
    8.6013    9.3891   23.8725 O   0  0  0  0  0  0  0  0  0  0  0  0
    8.8879   10.7109   23.8881 C   0  0  0  0  0  0  0  0  0  0  0  0
    9.7758   11.2472   23.2515 O   0  0  0  0  0  0  0  0  0  0  0  0
    7.9888   11.4192   24.8374 C   0  0  0  0  0  0  0  0  0  0  0  0
    7.0310   10.7109   25.5669 C   0  0  0  0  0  0  0  0  0  0  0  0
    6.2672   11.3984   26.5038 C   0  0  0  0  0  0  0  0  0  0  0  0
    5.2565   10.6788   27.3489 C   0  0  0  0  0  0  0  0  0  0  0  0
    4.1756   11.4526   27.6452 F   0  0  0  0  0  0  0  0  0  0  0  0
    4.7599    9.5578   26.7588 F   0  0  0  0  0  0  0  0  0  0  0  0
    5.7714   10.2687   28.5440 F   0  0  0  0  0  0  0  0  0  0  0  0
    6.4378   12.7213   26.7597 N   0  0  0  0  0  0  0  0  0  0  0  0
    7.3158   13.3960   26.0060 C   0  0  0  0  0  0  0  0  0  0  0  0
    8.1134   12.7973   25.0515 C   0  0  0  0  0  0  0  0  0  0  0  0
    8.8454   13.6582   24.2416 N   0  0  0  0  0  0  0  0  0  0  0  0
   10.1969   13.8691   24.5301 N   0  0  0  0  0  0  0  0  0  0  0  0
   10.7097   14.2863   23.4065 C   0  0  0  0  0  0  0  0  0  0  0  0
    9.7176   14.3886   22.3424 C   0  0  0  0  0  0  0  0  0  0  0  0
    9.7802   14.8774   21.1107 C   0  0  0  0  0  0  0  0  0  0  0  0
   10.8551   15.2886   20.3533 N   0  0  0  0  0  0  0  0  0  0  0  0
   12.2238   14.8828   20.6507 C   0  0  0  0  0  0  0  0  0  0  0  0
   10.6368   15.8919   19.0282 C   0  0  0  0  0  0  0  0  0  0  0  0
    8.4962   13.8198   22.8980 C   0  0  0  0  0  0  0  0  0  0  0  0
    7.4860   13.4778   22.3082 O   0  0  0  0  0  0  0  0  0  0  0  0
  1  2  1  0
  2  3  1  0
  3  4  2  0
  3  5  1  0
  5  6  2  0
  6  7  1  0
  7  8  1  0
  8  9  1  0
  8 10  1  0
  8 11  1  0
  7 12  2  0
 12 13  1  0
 13 14  2  0
 14 15  1  0
 15 16  1  0
 16 17  2  0
 17 18  1  0
 18 19  2  0
 19 20  1  0
 20 21  1  0
 20 22  1  0
 18 23  1  0
 23 24  2  0
 14  5  1  0
 23 15  1  0
M  END
>  <energy_score>  (817) 
-25.538803

>  <inchikey>  (817) 
None

>  <smiles>  (817) 
None

>  <ref_pdb>  (817) 
A0514a

>  <alias>  (817) 
None

>  <HIPPO Pose ID>  (817) 
498461

>  <name>  (817) 
P498461

>  <HIPPO Compound ID>  (817) 
292984

>  <ref_mols>  (817) 
A4331a,A0514a

>  <distance_score>  (817) 
1.044344

>  <inspiration_score>  (817) 
None

$$$$
P498462
     RDKit          3D

 24 25  0  0  0  0  0  0  0  0999 V2000
    9.2656    8.6596   23.0795 C   0  0  0  0  0  0  0  0  0  0  0  0
    8.4249    9.4383   23.9422 O   0  0  0  0  0  0  0  0  0  0  0  0
    8.7781   10.7409   24.0218 C   0  0  0  0  0  0  0  0  0  0  0  0
    9.7483   11.2407   23.4789 O   0  0  0  0  0  0  0  0  0  0  0  0
    7.8530   11.4934   24.9164 C   0  0  0  0  0  0  0  0  0  0  0  0
    6.8455   10.8419   25.6384 C   0  0  0  0  0  0  0  0  0  0  0  0
    6.0604   11.5959   26.5109 C   0  0  0  0  0  0  0  0  0  0  0  0
    4.9957   10.9783   27.3713 C   0  0  0  0  0  0  0  0  0  0  0  0
    5.3140   11.0876   28.6893 F   0  0  0  0  0  0  0  0  0  0  0  0
    4.7905    9.6539   27.1462 F   0  0  0  0  0  0  0  0  0  0  0  0
    3.7719   11.5708   27.2538 F   0  0  0  0  0  0  0  0  0  0  0  0
    6.2579   12.9254   26.7126 N   0  0  0  0  0  0  0  0  0  0  0  0
    7.1901   13.5382   25.9750 C   0  0  0  0  0  0  0  0  0  0  0  0
    8.0101   12.8767   25.0830 C   0  0  0  0  0  0  0  0  0  0  0  0
    8.7844   13.6862   24.2571 N   0  0  0  0  0  0  0  0  0  0  0  0
   10.1309   13.8996   24.5696 N   0  0  0  0  0  0  0  0  0  0  0  0
   10.6685   14.2808   23.4442 C   0  0  0  0  0  0  0  0  0  0  0  0
    9.6967   14.3721   22.3608 C   0  0  0  0  0  0  0  0  0  0  0  0
    9.7743   14.8604   21.1291 C   0  0  0  0  0  0  0  0  0  0  0  0
   10.8531   15.2868   20.3847 N   0  0  0  0  0  0  0  0  0  0  0  0
   10.6413   15.8775   19.0529 C   0  0  0  0  0  0  0  0  0  0  0  0
   12.2206   14.8896   20.6960 C   0  0  0  0  0  0  0  0  0  0  0  0
    8.4624   13.8200   22.9043 C   0  0  0  0  0  0  0  0  0  0  0  0
    7.4569   13.4884   22.3022 O   0  0  0  0  0  0  0  0  0  0  0  0
  1  2  1  0
  2  3  1  0
  3  4  2  0
  3  5  1  0
  5  6  2  0
  6  7  1  0
  7  8  1  0
  8  9  1  0
  8 10  1  0
  8 11  1  0
  7 12  2  0
 12 13  1  0
 13 14  2  0
 14 15  1  0
 15 16  1  0
 16 17  2  0
 17 18  1  0
 18 19  2  0
 19 20  1  0
 20 21  1  0
 20 22  1  0
 18 23  1  0
 23 24  2  0
 14  5  1  0
 23 15  1  0
M  END
>  <energy_score>  (818) 
-42.975083

>  <inchikey>  (818) 
None

>  <smiles>  (818) 
None

>  <ref_pdb>  (818) 
A0514a

>  <alias>  (818) 
None

>  <HIPPO Pose ID>  (818) 
498462

>  <name>  (818) 
P498462

>  <HIPPO Compound ID>  (818) 
292984

>  <ref_mols>  (818) 
A4331a,A0514a

>  <distance_score>  (818) 
1.158449

>  <inspiration_score>  (818) 
None

$$$$
P498463
     RDKit          3D

 24 25  0  0  0  0  0  0  0  0999 V2000
    9.5315    8.7941   23.0096 C   0  0  0  0  0  0  0  0  0  0  0  0
    8.6070    9.6130   23.7266 O   0  0  0  0  0  0  0  0  0  0  0  0
    8.9417   10.9207   23.7788 C   0  0  0  0  0  0  0  0  0  0  0  0
    9.9465   11.4314   23.3217 O   0  0  0  0  0  0  0  0  0  0  0  0
    7.9365   11.6736   24.5541 C   0  0  0  0  0  0  0  0  0  0  0  0
    7.2009   10.9770   25.5314 C   0  0  0  0  0  0  0  0  0  0  0  0
    6.3064   11.6729   26.3305 C   0  0  0  0  0  0  0  0  0  0  0  0
    5.4171   10.9523   27.3111 C   0  0  0  0  0  0  0  0  0  0  0  0
    4.3076   11.6659   27.6517 F   0  0  0  0  0  0  0  0  0  0  0  0
    4.9586    9.7607   26.8393 F   0  0  0  0  0  0  0  0  0  0  0  0
    6.0466   10.6606   28.4866 F   0  0  0  0  0  0  0  0  0  0  0  0
    6.2043   13.0186   26.2671 N   0  0  0  0  0  0  0  0  0  0  0  0
    6.8375   13.6418   25.2511 C   0  0  0  0  0  0  0  0  0  0  0  0
    7.6864   13.0353   24.3214 C   0  0  0  0  0  0  0  0  0  0  0  0
    7.9603   13.7108   23.1033 N   0  0  0  0  0  0  0  0  0  0  0  0
    6.8368   14.3539   22.4976 N   0  0  0  0  0  0  0  0  0  0  0  0
    9.1227   14.1153   22.5211 C   0  0  0  0  0  0  0  0  0  0  0  0
    9.0105   14.6134   21.2304 O   0  0  0  0  0  0  0  0  0  0  0  0
   10.2669   15.0445   20.8960 C   0  0  0  0  0  0  0  0  0  0  0  0
   10.4442   15.7224   19.5958 C   0  0  0  0  0  0  0  0  0  0  0  0
   11.1629   14.8518   21.8320 N   0  0  0  0  0  0  0  0  0  0  0  0
   10.4526   14.2563   22.8430 C   0  0  0  0  0  0  0  0  0  0  0  0
   11.0888   14.0711   24.0892 C   0  0  0  0  0  0  0  0  0  0  0  0
   11.6325   14.0372   25.1142 N   0  0  0  0  0  0  0  0  0  0  0  0
  1  2  1  0
  2  3  1  0
  3  4  2  0
  3  5  1  0
  5  6  2  0
  6  7  1  0
  7  8  1  0
  8  9  1  0
  8 10  1  0
  8 11  1  0
  7 12  2  0
 12 13  1  0
 13 14  2  0
 14 15  1  0
 15 16  1  0
 15 17  1  0
 17 18  1  0
 18 19  1  0
 19 20  1  0
 19 21  2  0
 21 22  1  0
 22 23  1  0
 23 24  3  0
 14  5  1  0
 22 17  2  0
M  END
>  <energy_score>  (819) 
-52.092607

>  <inchikey>  (819) 
None

>  <smiles>  (819) 
None

>  <ref_pdb>  (819) 
A0514a

>  <alias>  (819) 
None

>  <HIPPO Pose ID>  (819) 
498463

>  <name>  (819) 
P498463

>  <HIPPO Compound ID>  (819) 
292990

>  <ref_mols>  (819) 
A4331a,A0514a

>  <distance_score>  (819) 
1.354872

>  <inspiration_score>  (819) 
None

$$$$
P498464
     RDKit          3D

 24 25  0  0  0  0  0  0  0  0999 V2000
    9.6101    8.8304   23.0084 C   0  0  0  0  0  0  0  0  0  0  0  0
    8.7212    9.7573   23.6266 O   0  0  0  0  0  0  0  0  0  0  0  0
    9.2309   11.0033   23.7700 C   0  0  0  0  0  0  0  0  0  0  0  0
   10.3559   11.3519   23.4702 O   0  0  0  0  0  0  0  0  0  0  0  0
    8.2084   11.8870   24.3740 C   0  0  0  0  0  0  0  0  0  0  0  0
    7.2133   11.2973   25.1588 C   0  0  0  0  0  0  0  0  0  0  0  0
    6.3385   12.1032   25.8759 C   0  0  0  0  0  0  0  0  0  0  0  0
    5.4382   11.4628   26.9065 C   0  0  0  0  0  0  0  0  0  0  0  0
    4.2557   12.1048   27.0946 F   0  0  0  0  0  0  0  0  0  0  0  0
    5.1193   10.1714   26.5996 F   0  0  0  0  0  0  0  0  0  0  0  0
    6.0284   11.3947   28.1367 F   0  0  0  0  0  0  0  0  0  0  0  0
    6.3542   13.4494   25.7691 N   0  0  0  0  0  0  0  0  0  0  0  0
    7.3154   13.9920   24.9973 C   0  0  0  0  0  0  0  0  0  0  0  0
    8.3202   13.2844   24.3344 C   0  0  0  0  0  0  0  0  0  0  0  0
    9.5527   13.9615   24.1566 N   0  0  0  0  0  0  0  0  0  0  0  0
   10.3861   13.7208   25.3082 N   0  0  0  0  0  0  0  0  0  0  0  0
   10.3268   14.2933   23.0090 C   0  0  0  0  0  0  0  0  0  0  0  0
    9.7985   14.6225   21.7834 C   0  0  0  0  0  0  0  0  0  0  0  0
   10.7242   15.0921   20.8670 C   0  0  0  0  0  0  0  0  0  0  0  0
   10.3779   15.6235   19.5945 C   0  0  0  0  0  0  0  0  0  0  0  0
   10.1464   16.0830   18.5595 N   0  0  0  0  0  0  0  0  0  0  0  0
   12.0420   15.1866   21.0826 N   0  0  0  0  0  0  0  0  0  0  0  0
   12.4468   14.8499   22.2805 C   0  0  0  0  0  0  0  0  0  0  0  0
   11.6597   14.4363   23.2684 N   0  0  0  0  0  0  0  0  0  0  0  0
  1  2  1  0
  2  3  1  0
  3  4  2  0
  3  5  1  0
  5  6  2  0
  6  7  1  0
  7  8  1  0
  8  9  1  0
  8 10  1  0
  8 11  1  0
  7 12  2  0
 12 13  1  0
 13 14  2  0
 14 15  1  0
 15 16  1  0
 15 17  1  0
 17 18  2  0
 18 19  1  0
 19 20  1  0
 20 21  3  0
 19 22  2  0
 22 23  1  0
 23 24  2  0
 14  5  1  0
 24 17  1  0
M  END
>  <energy_score>  (820) 
-11.579858

>  <inchikey>  (820) 
None

>  <smiles>  (820) 
None

>  <ref_pdb>  (820) 
A0514a

>  <alias>  (820) 
None

>  <HIPPO Pose ID>  (820) 
498464

>  <name>  (820) 
P498464

>  <HIPPO Compound ID>  (820) 
292992

>  <ref_mols>  (820) 
A4331a,A0514a

>  <distance_score>  (820) 
1.64046

>  <inspiration_score>  (820) 
None

$$$$
P498465
     RDKit          3D

 24 25  0  0  0  0  0  0  0  0999 V2000
    9.2054    8.5800   23.0626 C   0  0  0  0  0  0  0  0  0  0  0  0
    8.3710    9.3661   23.9226 O   0  0  0  0  0  0  0  0  0  0  0  0
    8.8167   10.6323   24.0856 C   0  0  0  0  0  0  0  0  0  0  0  0
    9.8312   11.0773   23.5784 O   0  0  0  0  0  0  0  0  0  0  0  0
    7.9259   11.4068   24.9978 C   0  0  0  0  0  0  0  0  0  0  0  0
    6.8982   10.7824   25.7096 C   0  0  0  0  0  0  0  0  0  0  0  0
    6.1665   11.5420   26.6252 C   0  0  0  0  0  0  0  0  0  0  0  0
    5.2080   10.8870   27.5777 C   0  0  0  0  0  0  0  0  0  0  0  0
    4.5435    9.8558   27.0199 F   0  0  0  0  0  0  0  0  0  0  0  0
    5.8413   10.3745   28.6743 F   0  0  0  0  0  0  0  0  0  0  0  0
    4.2394   11.7159   28.0632 F   0  0  0  0  0  0  0  0  0  0  0  0
    6.3775   12.8663   26.8178 N   0  0  0  0  0  0  0  0  0  0  0  0
    7.3368   13.4506   26.0937 C   0  0  0  0  0  0  0  0  0  0  0  0
    8.1629   12.7774   25.2006 C   0  0  0  0  0  0  0  0  0  0  0  0
    9.1860   13.4761   24.5364 N   0  0  0  0  0  0  0  0  0  0  0  0
   10.1617   14.0513   25.4249 N   0  0  0  0  0  0  0  0  0  0  0  0
    8.6903   14.3521   23.4424 C   0  0  2  0  0  0  0  0  0  0  0  0
    7.4943   13.8307   22.6729 C   0  0  0  0  0  0  0  0  0  0  0  0
    9.8697   14.6744   22.5006 C   0  0  0  0  0  0  0  0  0  0  0  0
    9.4657   15.3037   21.1612 C   0  0  0  0  0  0  0  0  0  0  0  0
   10.6772   15.5519   20.2804 C   0  0  0  0  0  0  0  0  0  0  0  0
   11.8456   15.5863   21.0937 O   0  0  0  0  0  0  0  0  0  0  0  0
   12.1417   14.2913   21.6068 C   0  0  0  0  0  0  0  0  0  0  0  0
   10.9399   13.6260   22.2773 C   0  0  0  0  0  0  0  0  0  0  0  0
  1  2  1  0
  2  3  1  0
  3  4  2  0
  3  5  1  0
  5  6  2  0
  6  7  1  0
  7  8  1  0
  8  9  1  0
  8 10  1  0
  8 11  1  0
  7 12  2  0
 12 13  1  0
 13 14  2  0
 14 15  1  0
 15 16  1  0
 15 17  1  0
 17 18  1  6
 17 19  1  0
 19 20  1  0
 20 21  1  0
 21 22  1  0
 22 23  1  0
 23 24  1  0
 14  5  1  0
 24 19  1  0
M  END
>  <energy_score>  (821) 
-23.157649

>  <inchikey>  (821) 
None

>  <smiles>  (821) 
None

>  <ref_pdb>  (821) 
A0514a

>  <alias>  (821) 
None

>  <HIPPO Pose ID>  (821) 
498465

>  <name>  (821) 
P498465

>  <HIPPO Compound ID>  (821) 
293003

>  <ref_mols>  (821) 
A4331a,A0514a

>  <distance_score>  (821) 
1.201173

>  <inspiration_score>  (821) 
None

$$$$
P498466
     RDKit          3D

 24 25  0  0  0  0  0  0  0  0999 V2000
    9.3226    8.6239   23.0295 C   0  0  0  0  0  0  0  0  0  0  0  0
    8.3883    9.3197   23.8595 O   0  0  0  0  0  0  0  0  0  0  0  0
    8.7759   10.5769   24.1713 C   0  0  0  0  0  0  0  0  0  0  0  0
    9.8212   11.0885   23.8156 O   0  0  0  0  0  0  0  0  0  0  0  0
    7.7534   11.2485   25.0233 C   0  0  0  0  0  0  0  0  0  0  0  0
    6.7982   10.4586   25.6798 C   0  0  0  0  0  0  0  0  0  0  0  0
    5.9417   11.0620   26.5895 C   0  0  0  0  0  0  0  0  0  0  0  0
    5.0035   10.2766   27.4542 C   0  0  0  0  0  0  0  0  0  0  0  0
    3.9745   11.0542   27.9053 F   0  0  0  0  0  0  0  0  0  0  0  0
    4.4173    9.2237   26.8325 F   0  0  0  0  0  0  0  0  0  0  0  0
    5.6095    9.7819   28.5714 F   0  0  0  0  0  0  0  0  0  0  0  0
    5.9640   12.3895   26.8337 N   0  0  0  0  0  0  0  0  0  0  0  0
    6.8388   13.1296   26.1540 C   0  0  0  0  0  0  0  0  0  0  0  0
    7.7893   12.6369   25.2627 C   0  0  0  0  0  0  0  0  0  0  0  0
    8.7121   13.5406   24.6803 N   0  0  0  0  0  0  0  0  0  0  0  0
    9.0111   14.7232   25.4309 N   0  0  0  0  0  0  0  0  0  0  0  0
    8.5009   13.6931   23.2044 C   0  0  1  0  0  0  0  0  0  0  0  0
    7.1819   14.4236   22.9188 C   0  0  0  0  0  0  0  0  0  0  0  0
    9.7209   14.3851   22.5822 C   0  0  0  0  0  0  0  0  0  0  0  0
   10.9904   13.5570   22.5875 C   0  0  0  0  0  0  0  0  0  0  0  0
   12.1521   14.3233   21.9685 C   0  0  0  0  0  0  0  0  0  0  0  0
   11.7730   15.5768   21.4165 O   0  0  0  0  0  0  0  0  0  0  0  0
   10.7119   15.4046   20.4827 C   0  0  0  0  0  0  0  0  0  0  0  0
    9.4441   15.0279   21.2250 C   0  0  0  0  0  0  0  0  0  0  0  0
  1  2  1  0
  2  3  1  0
  3  4  2  0
  3  5  1  0
  5  6  2  0
  6  7  1  0
  7  8  1  0
  8  9  1  0
  8 10  1  0
  8 11  1  0
  7 12  2  0
 12 13  1  0
 13 14  2  0
 14 15  1  0
 15 16  1  0
 15 17  1  0
 17 18  1  1
 17 19  1  0
 19 20  1  0
 20 21  1  0
 21 22  1  0
 22 23  1  0
 23 24  1  0
 14  5  1  0
 24 19  1  0
M  END
>  <energy_score>  (822) 
-49.982118

>  <inchikey>  (822) 
None

>  <smiles>  (822) 
None

>  <ref_pdb>  (822) 
A0514a

>  <alias>  (822) 
None

>  <HIPPO Pose ID>  (822) 
498466

>  <name>  (822) 
P498466

>  <HIPPO Compound ID>  (822) 
293003

>  <ref_mols>  (822) 
A4331a,A0514a

>  <distance_score>  (822) 
1.091636

>  <inspiration_score>  (822) 
None

$$$$
P498467
     RDKit          3D

 24 25  0  0  0  0  0  0  0  0999 V2000
    9.5113    8.8946   23.0848 C   0  0  0  0  0  0  0  0  0  0  0  0
    8.5455    9.7664   23.6737 O   0  0  0  0  0  0  0  0  0  0  0  0
    9.0169   11.0104   23.9319 C   0  0  0  0  0  0  0  0  0  0  0  0
   10.1682   11.3734   23.7945 O   0  0  0  0  0  0  0  0  0  0  0  0
    7.9057   11.8526   24.4232 C   0  0  0  0  0  0  0  0  0  0  0  0
    7.0218   11.2477   25.3261 C   0  0  0  0  0  0  0  0  0  0  0  0
    6.0383   12.0138   25.9435 C   0  0  0  0  0  0  0  0  0  0  0  0
    5.2203   11.4357   27.0686 C   0  0  0  0  0  0  0  0  0  0  0  0
    5.7056   11.8138   28.2822 F   0  0  0  0  0  0  0  0  0  0  0  0
    5.2203   10.0720   27.0848 F   0  0  0  0  0  0  0  0  0  0  0  0
    3.9086   11.8041   27.0658 F   0  0  0  0  0  0  0  0  0  0  0  0
    5.8457   13.3117   25.6399 N   0  0  0  0  0  0  0  0  0  0  0  0
    6.6753   13.8547   24.7348 C   0  0  0  0  0  0  0  0  0  0  0  0
    7.7922   13.2266   24.1675 C   0  0  0  0  0  0  0  0  0  0  0  0
    8.8445   14.1025   23.8414 N   0  0  0  0  0  0  0  0  0  0  0  0
    9.5400   14.4122   25.0726 N   0  0  0  0  0  0  0  0  0  0  0  0
    9.6715   13.9691   22.5901 C   0  0  1  0  0  0  0  0  0  0  0  0
    9.1714   14.8796   21.4166 C   0  0  0  0  0  0  0  0  0  0  0  0
   10.2789   15.0462   20.3651 C   0  0  1  0  0  0  0  0  0  0  0  0
   10.1248   15.9666   19.1817 C   0  0  0  0  0  0  0  0  0  0  0  0
   11.3941   15.5583   21.0193 O   0  0  0  0  0  0  0  0  0  0  0  0
   12.0043   14.5340   21.7488 C   0  0  1  0  0  0  0  0  0  0  0  0
   13.2012   15.2489   22.2041 C   0  0  0  0  0  0  0  0  0  0  0  0
   11.1548   14.1693   22.9311 C   0  0  0  0  0  0  0  0  0  0  0  0
  1  2  1  0
  2  3  1  0
  3  4  2  0
  3  5  1  0
  5  6  2  0
  6  7  1  0
  7  8  1  0
  8  9  1  0
  8 10  1  0
  8 11  1  0
  7 12  2  0
 12 13  1  0
 13 14  2  0
 14 15  1  0
 15 16  1  0
 17 15  1  1
 17 18  1  0
 18 19  1  0
 19 20  1  6
 19 21  1  0
 21 22  1  0
 22 23  1  1
 22 24  1  0
 14  5  1  0
 24 17  1  0
M  END
>  <energy_score>  (823) 
-17.916835

>  <inchikey>  (823) 
None

>  <smiles>  (823) 
None

>  <ref_pdb>  (823) 
A0514a

>  <alias>  (823) 
None

>  <HIPPO Pose ID>  (823) 
498467

>  <name>  (823) 
P498467

>  <HIPPO Compound ID>  (823) 
293005

>  <ref_mols>  (823) 
A4331a,A0514a

>  <distance_score>  (823) 
1.770314

>  <inspiration_score>  (823) 
None

$$$$
P498468
     RDKit          3D

 24 25  0  0  0  0  0  0  0  0999 V2000
    9.5223    9.0797   23.0255 C   0  0  0  0  0  0  0  0  0  0  0  0
    9.0087   10.3829   23.2963 O   0  0  0  0  0  0  0  0  0  0  0  0
    8.1523   10.4331   24.3390 C   0  0  0  0  0  0  0  0  0  0  0  0
    7.8038    9.4667   25.0070 O   0  0  0  0  0  0  0  0  0  0  0  0
    7.5847   11.7897   24.5910 C   0  0  0  0  0  0  0  0  0  0  0  0
    6.5417   11.7926   25.5121 C   0  0  0  0  0  0  0  0  0  0  0  0
    5.9483   12.9901   25.8608 C   0  0  0  0  0  0  0  0  0  0  0  0
    4.8580   12.9595   26.9050 C   0  0  0  0  0  0  0  0  0  0  0  0
    5.0568   11.9693   27.8259 F   0  0  0  0  0  0  0  0  0  0  0  0
    4.7518   14.1047   27.6361 F   0  0  0  0  0  0  0  0  0  0  0  0
    3.6162   12.7205   26.3940 F   0  0  0  0  0  0  0  0  0  0  0  0
    6.3080   14.1601   25.2838 N   0  0  0  0  0  0  0  0  0  0  0  0
    7.3201   14.1327   24.3855 C   0  0  0  0  0  0  0  0  0  0  0  0
    8.0622   13.0108   24.0531 C   0  0  0  0  0  0  0  0  0  0  0  0
    9.3524   13.0908   23.5360 N   0  0  0  0  0  0  0  0  0  0  0  0
   10.2094   12.6765   24.6255 N   0  0  0  0  0  0  0  0  0  0  0  0
    9.9700   14.1824   22.7058 C   0  0  2  0  0  0  0  0  0  0  0  0
    9.2438   14.6831   21.4187 C   0  0  0  0  0  0  0  0  0  0  0  0
   10.2875   15.0391   20.3325 C   0  0  1  0  0  0  0  0  0  0  0  0
   10.0602   15.9855   19.1882 C   0  0  0  0  0  0  0  0  0  0  0  0
   11.3595   15.6281   21.0041 O   0  0  0  0  0  0  0  0  0  0  0  0
   12.1750   14.5925   21.4674 C   0  0  1  0  0  0  0  0  0  0  0  0
   13.2029   15.3545   22.1776 C   0  0  0  0  0  0  0  0  0  0  0  0
   11.4020   13.6935   22.3939 C   0  0  0  0  0  0  0  0  0  0  0  0
  1  2  1  0
  2  3  1  0
  3  4  2  0
  3  5  1  0
  5  6  2  0
  6  7  1  0
  7  8  1  0
  8  9  1  0
  8 10  1  0
  8 11  1  0
  7 12  2  0
 12 13  1  0
 13 14  2  0
 14 15  1  0
 15 16  1  0
 17 15  1  6
 17 18  1  0
 18 19  1  0
 19 20  1  6
 19 21  1  0
 21 22  1  0
 22 23  1  1
 22 24  1  0
 14  5  1  0
 24 17  1  0
M  END
>  <energy_score>  (824) 
-19.873716

>  <inchikey>  (824) 
None

>  <smiles>  (824) 
None

>  <ref_pdb>  (824) 
A0514a

>  <alias>  (824) 
None

>  <HIPPO Pose ID>  (824) 
498468

>  <name>  (824) 
P498468

>  <HIPPO Compound ID>  (824) 
293005

>  <ref_mols>  (824) 
A4331a,A0514a

>  <distance_score>  (824) 
1.867055

>  <inspiration_score>  (824) 
None

$$$$
P498469
     RDKit          3D

 24 25  0  0  0  0  0  0  0  0999 V2000
    9.2570    8.5562   22.9583 C   0  0  0  0  0  0  0  0  0  0  0  0
    8.3576    9.4332   23.6370 O   0  0  0  0  0  0  0  0  0  0  0  0
    8.8710   10.6704   23.8198 C   0  0  0  0  0  0  0  0  0  0  0  0
   10.0105   11.0020   23.5506 O   0  0  0  0  0  0  0  0  0  0  0  0
    7.8862   11.5438   24.4923 C   0  0  0  0  0  0  0  0  0  0  0  0
    7.1900   10.9707   25.5632 C   0  0  0  0  0  0  0  0  0  0  0  0
    6.3256   11.7494   26.3211 C   0  0  0  0  0  0  0  0  0  0  0  0
    5.4573   11.1172   27.3781 C   0  0  0  0  0  0  0  0  0  0  0  0
    4.3562   11.8552   27.6865 F   0  0  0  0  0  0  0  0  0  0  0  0
    6.1120   10.9087   28.5562 F   0  0  0  0  0  0  0  0  0  0  0  0
    4.9850    9.8939   27.0050 F   0  0  0  0  0  0  0  0  0  0  0  0
    6.2056   13.0714   26.1222 N   0  0  0  0  0  0  0  0  0  0  0  0
    6.7949   13.5638   25.0192 C   0  0  0  0  0  0  0  0  0  0  0  0
    7.6336   12.8744   24.1304 C   0  0  0  0  0  0  0  0  0  0  0  0
    8.0517   13.5137   22.9432 N   0  0  0  0  0  0  0  0  0  0  0  0
    7.1342   14.4443   22.4480 N   0  0  0  0  0  0  0  0  0  0  0  0
    9.4928   13.6790   22.6373 C   0  0  0  0  0  0  0  0  0  0  0  0
    9.7976   14.8017   21.6318 C   0  0  0  0  0  0  0  0  0  0  0  0
   11.2672   15.2346   21.5661 C   0  0  2  0  0  0  0  0  0  0  0  0
   12.0276   14.6407   20.4013 C   0  0  0  0  0  0  0  0  0  0  0  0
   12.0003   15.0559   22.7973 O   0  0  0  0  0  0  0  0  0  0  0  0
   11.7391   13.8106   23.4286 C   0  0  1  0  0  0  0  0  0  0  0  0
   12.5824   13.5463   24.6508 C   0  0  0  0  0  0  0  0  0  0  0  0
   10.3093   13.8405   23.8909 C   0  0  0  0  0  0  0  0  0  0  0  0
  1  2  1  0
  2  3  1  0
  3  4  2  0
  3  5  1  0
  5  6  2  0
  6  7  1  0
  7  8  1  0
  8  9  1  0
  8 10  1  0
  8 11  1  0
  7 12  2  0
 12 13  1  0
 13 14  2  0
 14 15  1  0
 15 16  1  0
 15 17  1  0
 17 18  1  0
 18 19  1  0
 19 20  1  6
 19 21  1  0
 21 22  1  0
 22 23  1  1
 22 24  1  0
 14  5  1  0
 24 17  1  0
M  END
>  <energy_score>  (825) 
-20.271274

>  <inchikey>  (825) 
None

>  <smiles>  (825) 
None

>  <ref_pdb>  (825) 
A0514a

>  <alias>  (825) 
None

>  <HIPPO Pose ID>  (825) 
498469

>  <name>  (825) 
P498469

>  <HIPPO Compound ID>  (825) 
293005

>  <ref_mols>  (825) 
A4331a,A0514a

>  <distance_score>  (825) 
1.929027

>  <inspiration_score>  (825) 
None

$$$$
P498470
     RDKit          3D

 24 25  0  0  0  0  0  0  0  0999 V2000
    9.5444    8.8255   23.0278 C   0  0  0  0  0  0  0  0  0  0  0  0
    8.6435    9.7437   23.6472 O   0  0  0  0  0  0  0  0  0  0  0  0
    9.1727   10.9667   23.8753 C   0  0  0  0  0  0  0  0  0  0  0  0
   10.3277   11.2981   23.6826 O   0  0  0  0  0  0  0  0  0  0  0  0
    8.1243   11.8575   24.4228 C   0  0  0  0  0  0  0  0  0  0  0  0
    7.1286   11.2744   25.2318 C   0  0  0  0  0  0  0  0  0  0  0  0
    6.2265   12.1012   25.8939 C   0  0  0  0  0  0  0  0  0  0  0  0
    5.3288   11.5692   26.9792 C   0  0  0  0  0  0  0  0  0  0  0  0
    5.0718   10.2453   26.8581 F   0  0  0  0  0  0  0  0  0  0  0  0
    4.1062   12.1675   27.0554 F   0  0  0  0  0  0  0  0  0  0  0  0
    5.8907   11.7042   28.2190 F   0  0  0  0  0  0  0  0  0  0  0  0
    6.2219   13.4395   25.7079 N   0  0  0  0  0  0  0  0  0  0  0  0
    7.1605   13.9684   24.9012 C   0  0  0  0  0  0  0  0  0  0  0  0
    8.1954   13.2551   24.2917 C   0  0  0  0  0  0  0  0  0  0  0  0
    9.3439   14.0122   23.9949 N   0  0  0  0  0  0  0  0  0  0  0  0
   10.2213   14.0286   25.1404 N   0  0  0  0  0  0  0  0  0  0  0  0
    9.9967   14.0571   22.6135 C   0  0  2  0  0  0  0  0  0  0  0  0
   11.4932   14.4372   22.8137 C   0  0  0  0  0  0  0  0  0  0  0  0
   12.2656   15.1580   21.7385 C   0  0  0  0  0  0  0  0  0  0  0  0
   11.6922   14.9442   20.3927 C   0  0  0  0  0  0  0  0  0  0  0  0
   10.1327   15.7264   20.3057 S   0  0  0  0  0  0  0  0  0  0  0  0
   10.2587   17.1169   20.6638 O   0  0  0  0  0  0  0  0  0  0  0  0
    9.6791   15.4321   18.9717 O   0  0  0  0  0  0  0  0  0  0  0  0
    9.1664   14.8671   21.5869 C   0  0  0  0  0  0  0  0  0  0  0  0
  1  2  1  0
  2  3  1  0
  3  4  2  0
  3  5  1  0
  5  6  2  0
  6  7  1  0
  7  8  1  0
  8  9  1  0
  8 10  1  0
  8 11  1  0
  7 12  2  0
 12 13  1  0
 13 14  2  0
 14 15  1  0
 15 16  1  0
 17 15  1  1
 17 18  1  0
 18 19  1  0
 19 20  1  0
 20 21  1  0
 21 22  2  0
 21 23  2  0
 21 24  1  0
 14  5  1  0
 24 17  1  0
M  END
>  <energy_score>  (826) 
-16.180721

>  <inchikey>  (826) 
None

>  <smiles>  (826) 
None

>  <ref_pdb>  (826) 
A0514a

>  <alias>  (826) 
None

>  <HIPPO Pose ID>  (826) 
498470

>  <name>  (826) 
P498470

>  <HIPPO Compound ID>  (826) 
293009

>  <ref_mols>  (826) 
A4331a,A0514a

>  <distance_score>  (826) 
1.615158

>  <inspiration_score>  (826) 
None

$$$$
P498471
     RDKit          3D

 24 25  0  0  0  0  0  0  0  0999 V2000
    9.8684    8.6205   23.3008 C   0  0  0  0  0  0  0  0  0  0  0  0
    8.9655    9.4912   23.9734 O   0  0  0  0  0  0  0  0  0  0  0  0
    9.1625   10.7917   23.6580 C   0  0  0  0  0  0  0  0  0  0  0  0
    9.9885   11.2089   22.8704 O   0  0  0  0  0  0  0  0  0  0  0  0
    8.2206   11.6582   24.3933 C   0  0  0  0  0  0  0  0  0  0  0  0
    7.2044   11.0586   25.1533 C   0  0  0  0  0  0  0  0  0  0  0  0
    6.3799   11.8651   25.9204 C   0  0  0  0  0  0  0  0  0  0  0  0
    5.4415   11.2403   26.9210 C   0  0  0  0  0  0  0  0  0  0  0  0
    4.2943   11.9453   27.1187 F   0  0  0  0  0  0  0  0  0  0  0  0
    6.0085   11.1028   28.1561 F   0  0  0  0  0  0  0  0  0  0  0  0
    5.0519    9.9819   26.5689 F   0  0  0  0  0  0  0  0  0  0  0  0
    6.4733   13.2158   25.8855 N   0  0  0  0  0  0  0  0  0  0  0  0
    7.4498   13.7650   25.1265 C   0  0  0  0  0  0  0  0  0  0  0  0
    8.4019   13.0532   24.3985 C   0  0  0  0  0  0  0  0  0  0  0  0
    9.6128   13.6721   24.1101 N   0  0  0  0  0  0  0  0  0  0  0  0
   10.4733   13.7225   25.2553 N   0  0  0  0  0  0  0  0  0  0  0  0
   10.1074   14.3138   22.8496 C   0  0  1  0  0  0  0  0  0  0  0  0
   11.4988   13.7855   22.5007 C   0  0  0  0  0  0  0  0  0  0  0  0
   12.2641   14.8329   21.7173 C   0  0  0  0  0  0  0  0  0  0  0  0
   11.7040   14.9219   20.3417 C   0  0  0  0  0  0  0  0  0  0  0  0
   10.1070   15.6296   20.3758 S   0  0  0  0  0  0  0  0  0  0  0  0
    9.6272   15.4263   19.0349 O   0  0  0  0  0  0  0  0  0  0  0  0
   10.2127   16.9920   20.8287 O   0  0  0  0  0  0  0  0  0  0  0  0
    9.1979   14.6026   21.6512 C   0  0  0  0  0  0  0  0  0  0  0  0
  1  2  1  0
  2  3  1  0
  3  4  2  0
  3  5  1  0
  5  6  2  0
  6  7  1  0
  7  8  1  0
  8  9  1  0
  8 10  1  0
  8 11  1  0
  7 12  2  0
 12 13  1  0
 13 14  2  0
 14 15  1  0
 15 16  1  0
 17 15  1  1
 17 18  1  0
 18 19  1  0
 19 20  1  0
 20 21  1  0
 21 22  2  0
 21 23  2  0
 21 24  1  0
 14  5  1  0
 24 17  1  0
M  END
>  <energy_score>  (827) 
-21.256469

>  <inchikey>  (827) 
None

>  <smiles>  (827) 
None

>  <ref_pdb>  (827) 
A0514a

>  <alias>  (827) 
None

>  <HIPPO Pose ID>  (827) 
498471

>  <name>  (827) 
P498471

>  <HIPPO Compound ID>  (827) 
293009

>  <ref_mols>  (827) 
A4331a,A0514a

>  <distance_score>  (827) 
1.624141

>  <inspiration_score>  (827) 
None

$$$$
P498472
     RDKit          3D

 24 24  0  0  0  0  0  0  0  0999 V2000
   11.7939   14.7931   18.9596 C   0  0  0  0  0  0  0  0  0  0  0  0
   11.1227   15.1899   20.2588 C   0  0  0  0  0  0  0  0  0  0  0  0
   12.0843   15.2472   21.4510 C   0  0  0  0  0  0  0  0  0  0  0  0
   12.0569   14.0485   22.3965 C   0  0  0  0  0  0  0  0  0  0  0  0
   10.8838   13.9124   23.3658 C   0  0  0  0  0  0  0  0  0  0  0  0
    9.5290   14.0531   22.6965 C   0  0  0  0  0  0  0  0  0  0  0  0
    8.2881   13.5503   23.4283 C   0  0  2  0  0  0  0  0  0  0  0  0
    7.0751   14.3735   22.9944 C   0  0  0  0  0  0  0  0  0  0  0  0
    8.4641   13.4986   24.8988 N   0  0  0  0  0  0  0  0  0  0  0  0
    8.8318   14.7330   25.5328 N   0  0  0  0  0  0  0  0  0  0  0  0
    7.4633   12.7177   25.5427 C   0  0  0  0  0  0  0  0  0  0  0  0
    6.5771   13.3640   26.4124 C   0  0  0  0  0  0  0  0  0  0  0  0
    5.6487   12.7765   27.1785 N   0  0  0  0  0  0  0  0  0  0  0  0
    5.4968   11.4453   27.0617 C   0  0  0  0  0  0  0  0  0  0  0  0
    4.4975   10.7904   27.9646 C   0  0  0  0  0  0  0  0  0  0  0  0
    3.4026   11.5787   28.1343 F   0  0  0  0  0  0  0  0  0  0  0  0
    4.9930   10.5423   29.2093 F   0  0  0  0  0  0  0  0  0  0  0  0
    4.0216    9.5993   27.5087 F   0  0  0  0  0  0  0  0  0  0  0  0
    6.2573   10.7034   26.1891 C   0  0  0  0  0  0  0  0  0  0  0  0
    7.2687   11.3245   25.4319 C   0  0  0  0  0  0  0  0  0  0  0  0
    8.0284   10.3140   24.6551 C   0  0  0  0  0  0  0  0  0  0  0  0
    7.6794    9.1407   24.6749 O   0  0  0  0  0  0  0  0  0  0  0  0
    9.0969   10.7714   23.9870 O   0  0  0  0  0  0  0  0  0  0  0  0
    9.7224    9.7628   23.1905 C   0  0  0  0  0  0  0  0  0  0  0  0
  1  2  1  0
  2  3  1  0
  3  4  1  0
  4  5  1  0
  5  6  1  0
  6  7  1  0
  7  8  1  1
  7  9  1  0
  9 10  1  0
  9 11  1  0
 11 12  2  0
 12 13  1  0
 13 14  2  0
 14 15  1  0
 15 16  1  0
 15 17  1  0
 15 18  1  0
 14 19  1  0
 19 20  2  0
 20 21  1  0
 21 22  2  0
 21 23  1  0
 23 24  1  0
 20 11  1  0
M  END
>  <energy_score>  (828) 
-16.615856

>  <inchikey>  (828) 
None

>  <smiles>  (828) 
None

>  <ref_pdb>  (828) 
A0514a

>  <alias>  (828) 
None

>  <HIPPO Pose ID>  (828) 
498472

>  <name>  (828) 
P498472

>  <HIPPO Compound ID>  (828) 
293013

>  <ref_mols>  (828) 
A4331a,A0514a

>  <distance_score>  (828) 
1.445928

>  <inspiration_score>  (828) 
None

$$$$
P498473
     RDKit          3D

 24 24  0  0  0  0  0  0  0  0999 V2000
   10.3436   15.9287   19.8924 C   0  0  0  0  0  0  0  0  0  0  0  0
   11.3388   14.8615   20.3092 C   0  0  0  0  0  0  0  0  0  0  0  0
   12.1466   15.1695   21.5674 C   0  0  0  0  0  0  0  0  0  0  0  0
   12.1050   14.0508   22.6080 C   0  0  0  0  0  0  0  0  0  0  0  0
   10.9258   14.0470   23.5738 C   0  0  0  0  0  0  0  0  0  0  0  0
    9.5639   14.1119   22.8982 C   0  0  0  0  0  0  0  0  0  0  0  0
    8.3436   14.3164   23.7956 C   0  0  1  0  0  0  0  0  0  0  0  0
    7.0815   13.9178   23.0623 C   0  0  0  0  0  0  0  0  0  0  0  0
    8.5528   13.7254   25.1548 N   0  0  0  0  0  0  0  0  0  0  0  0
    9.0648   14.7347   26.0875 N   0  0  0  0  0  0  0  0  0  0  0  0
    7.4772   12.9480   25.6566 C   0  0  0  0  0  0  0  0  0  0  0  0
    6.5104   13.5684   26.4482 C   0  0  0  0  0  0  0  0  0  0  0  0
    5.5531   12.9410   27.1461 N   0  0  0  0  0  0  0  0  0  0  0  0
    5.4648   11.5997   27.0279 C   0  0  0  0  0  0  0  0  0  0  0  0
    4.4718   10.8966   27.9019 C   0  0  0  0  0  0  0  0  0  0  0  0
    3.3063   11.5917   27.9758 F   0  0  0  0  0  0  0  0  0  0  0  0
    4.9113   10.7405   29.1821 F   0  0  0  0  0  0  0  0  0  0  0  0
    4.1280    9.6511   27.4741 F   0  0  0  0  0  0  0  0  0  0  0  0
    6.2834   10.8887   26.1837 C   0  0  0  0  0  0  0  0  0  0  0  0
    7.3068   11.5573   25.4936 C   0  0  0  0  0  0  0  0  0  0  0  0
    8.1178   10.6098   24.7031 C   0  0  0  0  0  0  0  0  0  0  0  0
    7.9639    9.4011   24.8264 O   0  0  0  0  0  0  0  0  0  0  0  0
    8.9760   11.1897   23.8540 O   0  0  0  0  0  0  0  0  0  0  0  0
    9.7237   10.2210   23.1255 C   0  0  0  0  0  0  0  0  0  0  0  0
  1  2  1  0
  2  3  1  0
  3  4  1  0
  4  5  1  0
  5  6  1  0
  6  7  1  0
  7  8  1  6
  7  9  1  0
  9 10  1  0
  9 11  1  0
 11 12  2  0
 12 13  1  0
 13 14  2  0
 14 15  1  0
 15 16  1  0
 15 17  1  0
 15 18  1  0
 14 19  1  0
 19 20  2  0
 20 21  1  0
 21 22  2  0
 21 23  1  0
 23 24  1  0
 20 11  1  0
M  END
>  <energy_score>  (829) 
-26.687986

>  <inchikey>  (829) 
None

>  <smiles>  (829) 
None

>  <ref_pdb>  (829) 
A0514a

>  <alias>  (829) 
None

>  <HIPPO Pose ID>  (829) 
498473

>  <name>  (829) 
P498473

>  <HIPPO Compound ID>  (829) 
293013

>  <ref_mols>  (829) 
A4331a,A0514a

>  <distance_score>  (829) 
1.489275

>  <inspiration_score>  (829) 
None

$$$$
P498474
     RDKit          3D

 24 25  0  0  0  0  0  0  0  0999 V2000
    5.9197   15.3734   23.6650 C   0  0  0  0  0  0  0  0  0  0  0  0
    7.3309   15.2968   23.4692 O   0  0  0  0  0  0  0  0  0  0  0  0
    7.7118   14.3359   22.6018 C   0  0  0  0  0  0  0  0  0  0  0  0
    7.0360   13.4627   22.0816 O   0  0  0  0  0  0  0  0  0  0  0  0
    9.1196   14.5360   22.2505 C   0  0  0  0  0  0  0  0  0  0  0  0
    9.2737   15.0642   20.9818 C   0  0  0  0  0  0  0  0  0  0  0  0
   10.5305   15.3115   20.4712 C   0  0  0  0  0  0  0  0  0  0  0  0
   10.6100   15.8134   19.0284 C   0  0  0  0  0  0  0  0  0  0  0  0
    9.5389   15.4282   18.2901 F   0  0  0  0  0  0  0  0  0  0  0  0
   11.7130   15.3638   18.3852 F   0  0  0  0  0  0  0  0  0  0  0  0
   10.5648   17.1680   18.9512 F   0  0  0  0  0  0  0  0  0  0  0  0
   11.6374   15.0920   21.2266 N   0  0  0  0  0  0  0  0  0  0  0  0
   11.4560   14.5780   22.4696 C   0  0  0  0  0  0  0  0  0  0  0  0
   10.2242   14.2674   23.0601 C   0  0  0  0  0  0  0  0  0  0  0  0
   10.0899   13.7577   24.3867 N   0  0  0  0  0  0  0  0  0  0  0  0
   11.2744   13.5733   25.1390 N   0  0  0  0  0  0  0  0  0  0  0  0
    9.0950   12.7758   24.6867 C   0  0  0  0  0  0  0  0  0  0  0  0
    8.0250   13.0925   25.5244 C   0  0  0  0  0  0  0  0  0  0  0  0
    7.0531   12.1439   25.8141 C   0  0  0  0  0  0  0  0  0  0  0  0
    5.8743   12.5550   26.6325 C   0  0  0  0  0  0  0  0  0  0  0  0
    7.1876   10.8547   25.2823 C   0  0  0  0  0  0  0  0  0  0  0  0
    8.2723   10.5247   24.4608 C   0  0  0  0  0  0  0  0  0  0  0  0
    8.5101    9.1543   23.9323 C   0  0  0  0  0  0  0  0  0  0  0  0
    9.1821   11.5072   24.1194 C   0  0  0  0  0  0  0  0  0  0  0  0
  1  2  1  0
  2  3  1  0
  3  4  2  0
  3  5  1  0
  5  6  2  0
  6  7  1  0
  7  8  1  0
  8  9  1  0
  8 10  1  0
  8 11  1  0
  7 12  2  0
 12 13  1  0
 13 14  2  0
 14 15  1  0
 15 16  1  0
 15 17  1  0
 17 18  2  0
 18 19  1  0
 19 20  1  0
 19 21  2  0
 21 22  1  0
 22 23  1  0
 22 24  2  0
 14  5  1  0
 24 17  1  0
M  END
>  <energy_score>  (830) 
-37.942413

>  <inchikey>  (830) 
None

>  <smiles>  (830) 
None

>  <ref_pdb>  (830) 
A0514a

>  <alias>  (830) 
None

>  <HIPPO Pose ID>  (830) 
498474

>  <name>  (830) 
P498474

>  <HIPPO Compound ID>  (830) 
293014

>  <ref_mols>  (830) 
A4331a,A0514a

>  <distance_score>  (830) 
1.814155

>  <inspiration_score>  (830) 
None

$$$$
P498475
     RDKit          3D

 24 25  0  0  0  0  0  0  0  0999 V2000
    9.5040    8.8405   23.0577 C   0  0  0  0  0  0  0  0  0  0  0  0
    8.6279    9.7610   23.7103 O   0  0  0  0  0  0  0  0  0  0  0  0
    9.1458   11.0062   23.8400 C   0  0  0  0  0  0  0  0  0  0  0  0
   10.2751   11.3341   23.5285 O   0  0  0  0  0  0  0  0  0  0  0  0
    8.1303   11.9203   24.4190 C   0  0  0  0  0  0  0  0  0  0  0  0
    7.0873   11.3829   25.1762 C   0  0  0  0  0  0  0  0  0  0  0  0
    6.2008   12.2411   25.8205 C   0  0  0  0  0  0  0  0  0  0  0  0
    5.2065   11.6905   26.8119 C   0  0  0  0  0  0  0  0  0  0  0  0
    5.5491   11.9856   28.0963 F   0  0  0  0  0  0  0  0  0  0  0  0
    3.9361   12.1569   26.6551 F   0  0  0  0  0  0  0  0  0  0  0  0
    5.1082   10.3285   26.7747 F   0  0  0  0  0  0  0  0  0  0  0  0
    6.2583   13.5826   25.6707 N   0  0  0  0  0  0  0  0  0  0  0  0
    7.2711   14.0733   24.9381 C   0  0  0  0  0  0  0  0  0  0  0  0
    8.2818   13.3134   24.3534 C   0  0  0  0  0  0  0  0  0  0  0  0
    9.5375   13.9455   24.2151 N   0  0  0  0  0  0  0  0  0  0  0  0
   10.3465   13.6712   25.3696 N   0  0  0  0  0  0  0  0  0  0  0  0
   10.3248   14.2878   23.0865 C   0  0  0  0  0  0  0  0  0  0  0  0
    9.8098   14.6455   21.8639 C   0  0  0  0  0  0  0  0  0  0  0  0
   10.7385   15.1352   20.9701 C   0  0  0  0  0  0  0  0  0  0  0  0
   10.3226   15.7801   19.3943 S   0  0  0  0  0  0  0  0  0  0  0  0
   11.6355   14.9772   18.4364 C   0  0  0  0  0  0  0  0  0  0  0  0
   12.0441   15.2409   21.2291 N   0  0  0  0  0  0  0  0  0  0  0  0
   12.4451   14.8350   22.4031 C   0  0  0  0  0  0  0  0  0  0  0  0
   11.6551   14.3943   23.3685 N   0  0  0  0  0  0  0  0  0  0  0  0
  1  2  1  0
  2  3  1  0
  3  4  2  0
  3  5  1  0
  5  6  2  0
  6  7  1  0
  7  8  1  0
  8  9  1  0
  8 10  1  0
  8 11  1  0
  7 12  2  0
 12 13  1  0
 13 14  2  0
 14 15  1  0
 15 16  1  0
 15 17  1  0
 17 18  2  0
 18 19  1  0
 19 20  1  0
 20 21  1  0
 19 22  2  0
 22 23  1  0
 23 24  2  0
 14  5  1  0
 24 17  1  0
M  END
>  <energy_score>  (831) 
-39.766199

>  <inchikey>  (831) 
None

>  <smiles>  (831) 
None

>  <ref_pdb>  (831) 
A0514a

>  <alias>  (831) 
None

>  <HIPPO Pose ID>  (831) 
498475

>  <name>  (831) 
P498475

>  <HIPPO Compound ID>  (831) 
293022

>  <ref_mols>  (831) 
A4331a,A0514a

>  <distance_score>  (831) 
1.780954

>  <inspiration_score>  (831) 
None

$$$$
P498476
     RDKit          3D

 24 25  0  0  0  0  0  0  0  0999 V2000
    9.5312    8.3009   23.2908 C   0  0  0  0  0  0  0  0  0  0  0  0
    8.7592    9.1719   24.1102 O   0  0  0  0  0  0  0  0  0  0  0  0
    8.8968   10.4525   23.7123 C   0  0  0  0  0  0  0  0  0  0  0  0
    9.5544   10.8205   22.7543 O   0  0  0  0  0  0  0  0  0  0  0  0
    8.1601   11.3726   24.6019 C   0  0  0  0  0  0  0  0  0  0  0  0
    7.0575   10.9136   25.3382 C   0  0  0  0  0  0  0  0  0  0  0  0
    6.3600   11.8272   26.1184 C   0  0  0  0  0  0  0  0  0  0  0  0
    5.2029   11.4123   26.9885 C   0  0  0  0  0  0  0  0  0  0  0  0
    5.4159   11.7206   28.2989 F   0  0  0  0  0  0  0  0  0  0  0  0
    4.9519   10.0738   26.9700 F   0  0  0  0  0  0  0  0  0  0  0  0
    4.0257   12.0220   26.6700 F   0  0  0  0  0  0  0  0  0  0  0  0
    6.7148   13.1359   26.1788 N   0  0  0  0  0  0  0  0  0  0  0  0
    7.7703   13.5407   25.4447 C   0  0  0  0  0  0  0  0  0  0  0  0
    8.5548   12.7188   24.6461 C   0  0  0  0  0  0  0  0  0  0  0  0
    9.7024   13.2153   24.0305 N   0  0  0  0  0  0  0  0  0  0  0  0
   10.9381   12.6260   24.3792 N   0  0  0  0  0  0  0  0  0  0  0  0
    9.7055   14.2304   22.9639 C   0  0  2  0  0  0  0  0  0  0  0  0
    8.3592   14.7765   22.5434 C   0  0  0  0  0  0  0  0  0  0  0  0
    8.5811   15.6768   21.3315 C   0  0  0  0  0  0  0  0  0  0  0  0
    9.9347   16.1380   21.2314 O   0  0  0  0  0  0  0  0  0  0  0  0
   10.8667   15.1044   20.8990 C   0  0  0  0  0  0  0  0  0  0  0  0
   12.2607   15.4330   21.4075 C   0  0  0  0  0  0  0  0  0  0  0  0
   10.9399   15.0829   19.3686 C   0  0  0  0  0  0  0  0  0  0  0  0
   10.4353   13.8346   21.6661 C   0  0  0  0  0  0  0  0  0  0  0  0
  1  2  1  0
  2  3  1  0
  3  4  2  0
  3  5  1  0
  5  6  2  0
  6  7  1  0
  7  8  1  0
  8  9  1  0
  8 10  1  0
  8 11  1  0
  7 12  2  0
 12 13  1  0
 13 14  2  0
 14 15  1  0
 15 16  1  0
 17 15  1  1
 17 18  1  0
 18 19  1  0
 19 20  1  0
 20 21  1  0
 21 22  1  0
 21 23  1  0
 21 24  1  0
 14  5  1  0
 24 17  1  0
M  END
>  <energy_score>  (832) 
-35.183702

>  <inchikey>  (832) 
None

>  <smiles>  (832) 
None

>  <ref_pdb>  (832) 
A0514a

>  <alias>  (832) 
None

>  <HIPPO Pose ID>  (832) 
498476

>  <name>  (832) 
P498476

>  <HIPPO Compound ID>  (832) 
293025

>  <ref_mols>  (832) 
A4331a,A0514a

>  <distance_score>  (832) 
1.59941

>  <inspiration_score>  (832) 
None

$$$$
P498477
     RDKit          3D

 24 25  0  0  0  0  0  0  0  0999 V2000
    9.6564    8.1973   23.4257 C   0  0  0  0  0  0  0  0  0  0  0  0
    8.8598    9.1133   24.1609 O   0  0  0  0  0  0  0  0  0  0  0  0
    8.9055   10.3064   23.5352 C   0  0  0  0  0  0  0  0  0  0  0  0
    9.4586   10.4848   22.4643 O   0  0  0  0  0  0  0  0  0  0  0  0
    8.2354   11.3661   24.3213 C   0  0  0  0  0  0  0  0  0  0  0  0
    7.1947   10.9898   25.1741 C   0  0  0  0  0  0  0  0  0  0  0  0
    6.5506   11.9801   25.8902 C   0  0  0  0  0  0  0  0  0  0  0  0
    5.5373   11.5972   26.9438 C   0  0  0  0  0  0  0  0  0  0  0  0
    4.4336   12.3914   26.9790 F   0  0  0  0  0  0  0  0  0  0  0  0
    6.0645   11.6422   28.2055 F   0  0  0  0  0  0  0  0  0  0  0  0
    5.0684   10.3218   26.8098 F   0  0  0  0  0  0  0  0  0  0  0  0
    6.8763   13.2941   25.7401 N   0  0  0  0  0  0  0  0  0  0  0  0
    7.8717   13.6247   24.8730 C   0  0  0  0  0  0  0  0  0  0  0  0
    8.6476   12.7157   24.1726 C   0  0  0  0  0  0  0  0  0  0  0  0
    9.8498   13.0559   23.5465 N   0  0  0  0  0  0  0  0  0  0  0  0
   10.8806   12.1247   23.8230 N   0  0  0  0  0  0  0  0  0  0  0  0
   10.1989   14.2967   22.7556 C   0  0  1  0  0  0  0  0  0  0  0  0
   11.7109   14.5200   22.9028 C   0  0  0  0  0  0  0  0  0  0  0  0
   12.3714   15.4649   21.9551 C   0  0  0  0  0  0  0  0  0  0  0  0
   11.9777   15.2484   20.6445 O   0  0  0  0  0  0  0  0  0  0  0  0
   10.5883   15.3630   20.3706 C   0  0  0  0  0  0  0  0  0  0  0  0
    9.9929   16.7659   20.5411 C   0  0  0  0  0  0  0  0  0  0  0  0
   10.6720   15.1764   18.8532 C   0  0  0  0  0  0  0  0  0  0  0  0
    9.8284   14.2968   21.2539 C   0  0  0  0  0  0  0  0  0  0  0  0
  1  2  1  0
  2  3  1  0
  3  4  2  0
  3  5  1  0
  5  6  2  0
  6  7  1  0
  7  8  1  0
  8  9  1  0
  8 10  1  0
  8 11  1  0
  7 12  2  0
 12 13  1  0
 13 14  2  0
 14 15  1  0
 15 16  1  0
 17 15  1  6
 17 18  1  0
 18 19  1  0
 19 20  1  0
 20 21  1  0
 21 22  1  0
 21 23  1  0
 21 24  1  0
 14  5  1  0
 24 17  1  0
M  END
>  <energy_score>  (833) 
-28.314664

>  <inchikey>  (833) 
None

>  <smiles>  (833) 
None

>  <ref_pdb>  (833) 
A0514a

>  <alias>  (833) 
None

>  <HIPPO Pose ID>  (833) 
498477

>  <name>  (833) 
P498477

>  <HIPPO Compound ID>  (833) 
293025

>  <ref_mols>  (833) 
A4331a,A0514a

>  <distance_score>  (833) 
1.581752

>  <inspiration_score>  (833) 
None

$$$$
P498478
     RDKit          3D

 24 25  0  0  0  0  0  0  0  0999 V2000
    9.7607    8.5426   23.3421 C   0  0  0  0  0  0  0  0  0  0  0  0
    8.7830    9.2337   24.1156 O   0  0  0  0  0  0  0  0  0  0  0  0
    8.8120   10.5644   23.8764 C   0  0  0  0  0  0  0  0  0  0  0  0
    9.4640   11.1111   23.0062 O   0  0  0  0  0  0  0  0  0  0  0  0
    7.9546   11.2747   24.8532 C   0  0  0  0  0  0  0  0  0  0  0  0
    6.9530   10.5953   25.5482 C   0  0  0  0  0  0  0  0  0  0  0  0
    6.2019   11.3043   26.4769 C   0  0  0  0  0  0  0  0  0  0  0  0
    5.1937   10.6145   27.3479 C   0  0  0  0  0  0  0  0  0  0  0  0
    4.1333   11.4191   27.6453 F   0  0  0  0  0  0  0  0  0  0  0  0
    4.6618    9.4973   26.7857 F   0  0  0  0  0  0  0  0  0  0  0  0
    5.7158   10.2203   28.5449 F   0  0  0  0  0  0  0  0  0  0  0  0
    6.3910   12.6267   26.7182 N   0  0  0  0  0  0  0  0  0  0  0  0
    7.3400   13.2580   26.0170 C   0  0  0  0  0  0  0  0  0  0  0  0
    8.1687   12.6395   25.0898 C   0  0  0  0  0  0  0  0  0  0  0  0
    9.1775   13.3618   24.4370 N   0  0  0  0  0  0  0  0  0  0  0  0
   10.2057   13.8216   25.3281 N   0  0  0  0  0  0  0  0  0  0  0  0
    8.6853   14.3238   23.3975 C   0  0  2  0  0  0  0  0  0  0  0  0
    7.3667   13.9579   22.7113 C   0  0  0  0  0  0  0  0  0  0  0  0
    9.6845   14.6505   22.3248 C   0  0  0  0  0  0  0  0  0  0  0  0
   11.0135   14.2081   22.1552 C   0  0  0  0  0  0  0  0  0  0  0  0
   11.6114   14.7636   21.0991 N   0  0  0  0  0  0  0  0  0  0  0  0
   10.5989   15.3839   20.4649 N   0  0  0  0  0  0  0  0  0  0  0  0
   10.7027   15.8152   19.0920 C   0  0  0  0  0  0  0  0  0  0  0  0
    9.4783   15.4668   21.2305 C   0  0  0  0  0  0  0  0  0  0  0  0
  1  2  1  0
  2  3  1  0
  3  4  2  0
  3  5  1  0
  5  6  2  0
  6  7  1  0
  7  8  1  0
  8  9  1  0
  8 10  1  0
  8 11  1  0
  7 12  2  0
 12 13  1  0
 13 14  2  0
 14 15  1  0
 15 16  1  0
 15 17  1  0
 17 18  1  6
 17 19  1  0
 19 20  1  0
 20 21  2  0
 21 22  1  0
 22 23  1  0
 22 24  1  0
 14  5  1  0
 24 19  2  0
M  END
>  <energy_score>  (834) 
-29.092571

>  <inchikey>  (834) 
None

>  <smiles>  (834) 
None

>  <ref_pdb>  (834) 
A0514a

>  <alias>  (834) 
None

>  <HIPPO Pose ID>  (834) 
498478

>  <name>  (834) 
P498478

>  <HIPPO Compound ID>  (834) 
293027

>  <ref_mols>  (834) 
A4331a,A0514a

>  <distance_score>  (834) 
1.035165

>  <inspiration_score>  (834) 
None

$$$$
P498479
     RDKit          3D

 24 25  0  0  0  0  0  0  0  0999 V2000
    9.2573    8.8269   23.1747 C   0  0  0  0  0  0  0  0  0  0  0  0
    8.3179    9.5179   24.0107 O   0  0  0  0  0  0  0  0  0  0  0  0
    8.6788   10.7912   24.2971 C   0  0  0  0  0  0  0  0  0  0  0  0
    9.7110   11.3227   23.9294 O   0  0  0  0  0  0  0  0  0  0  0  0
    7.6417   11.4659   25.1341 C   0  0  0  0  0  0  0  0  0  0  0  0
    6.7330   10.6797   25.8547 C   0  0  0  0  0  0  0  0  0  0  0  0
    5.8886   11.3016   26.7721 C   0  0  0  0  0  0  0  0  0  0  0  0
    5.0665   10.5044   27.7393 C   0  0  0  0  0  0  0  0  0  0  0  0
    4.3164    9.5713   27.1211 F   0  0  0  0  0  0  0  0  0  0  0  0
    4.1799   11.2441   28.4685 F   0  0  0  0  0  0  0  0  0  0  0  0
    5.8272    9.8459   28.6599 F   0  0  0  0  0  0  0  0  0  0  0  0
    5.8378   12.6391   26.9231 N   0  0  0  0  0  0  0  0  0  0  0  0
    6.6694   13.3714   26.1806 C   0  0  0  0  0  0  0  0  0  0  0  0
    7.6328   12.8643   25.3109 C   0  0  0  0  0  0  0  0  0  0  0  0
    8.5417   13.7613   24.7091 N   0  0  0  0  0  0  0  0  0  0  0  0
    8.8442   14.9564   25.4246 N   0  0  0  0  0  0  0  0  0  0  0  0
    8.3991   13.8417   23.2220 C   0  0  1  0  0  0  0  0  0  0  0  0
    7.1468   14.6340   22.8330 C   0  0  0  0  0  0  0  0  0  0  0  0
    9.6182   14.2898   22.4930 C   0  0  0  0  0  0  0  0  0  0  0  0
   10.9623   14.1677   22.9136 C   0  0  0  0  0  0  0  0  0  0  0  0
   11.8323   14.5670   21.9847 N   0  0  0  0  0  0  0  0  0  0  0  0
   11.0372   14.8497   20.9299 N   0  0  0  0  0  0  0  0  0  0  0  0
   11.5721   15.0020   19.6027 C   0  0  0  0  0  0  0  0  0  0  0  0
    9.7110   14.8403   21.2358 C   0  0  0  0  0  0  0  0  0  0  0  0
  1  2  1  0
  2  3  1  0
  3  4  2  0
  3  5  1  0
  5  6  2  0
  6  7  1  0
  7  8  1  0
  8  9  1  0
  8 10  1  0
  8 11  1  0
  7 12  2  0
 12 13  1  0
 13 14  2  0
 14 15  1  0
 15 16  1  0
 15 17  1  0
 17 18  1  1
 17 19  1  0
 19 20  1  0
 20 21  2  0
 21 22  1  0
 22 23  1  0
 22 24  1  0
 14  5  1  0
 24 19  2  0
M  END
>  <energy_score>  (835) 
-42.562299

>  <inchikey>  (835) 
None

>  <smiles>  (835) 
None

>  <ref_pdb>  (835) 
A0514a

>  <alias>  (835) 
None

>  <HIPPO Pose ID>  (835) 
498479

>  <name>  (835) 
P498479

>  <HIPPO Compound ID>  (835) 
293027

>  <ref_mols>  (835) 
A4331a,A0514a

>  <distance_score>  (835) 
1.235931

>  <inspiration_score>  (835) 
None

$$$$
P498480
     RDKit          3D

 24 25  0  0  0  0  0  0  0  0999 V2000
    9.2757    8.5875   23.0040 C   0  0  0  0  0  0  0  0  0  0  0  0
    8.4929    9.4865   23.7919 O   0  0  0  0  0  0  0  0  0  0  0  0
    9.0844   10.6940   23.9517 C   0  0  0  0  0  0  0  0  0  0  0  0
   10.1911   10.9806   23.5326 O   0  0  0  0  0  0  0  0  0  0  0  0
    8.2145   11.6162   24.7281 C   0  0  0  0  0  0  0  0  0  0  0  0
    7.0316   11.1634   25.3132 C   0  0  0  0  0  0  0  0  0  0  0  0
    6.2728   12.0435   26.0851 C   0  0  0  0  0  0  0  0  0  0  0  0
    5.1241   11.5468   26.9186 C   0  0  0  0  0  0  0  0  0  0  0  0
    5.3106   11.8010   28.2437 F   0  0  0  0  0  0  0  0  0  0  0  0
    3.9239   12.1098   26.6093 F   0  0  0  0  0  0  0  0  0  0  0  0
    4.9435   10.1965   26.8399 F   0  0  0  0  0  0  0  0  0  0  0  0
    6.5840   13.3493   26.2160 N   0  0  0  0  0  0  0  0  0  0  0  0
    7.7197   13.7540   25.6417 C   0  0  0  0  0  0  0  0  0  0  0  0
    8.6201   12.9312   24.9714 C   0  0  0  0  0  0  0  0  0  0  0  0
    9.9383   13.3813   24.7097 N   0  0  0  0  0  0  0  0  0  0  0  0
   10.5314   14.0386   25.8125 N   0  0  0  0  0  0  0  0  0  0  0  0
   10.3110   13.8807   23.4370 C   0  0  0  0  0  0  0  0  0  0  0  0
   11.6441   14.1367   23.1592 C   0  0  0  0  0  0  0  0  0  0  0  0
   11.8975   14.8221   22.0059 C   0  0  0  0  0  0  0  0  0  0  0  0
   13.1946   15.3266   21.5662 C   0  0  0  0  0  0  0  0  0  0  0  0
   10.9465   15.1892   21.1783 N   0  0  0  0  0  0  0  0  0  0  0  0
    9.7203   14.8446   21.5045 C   0  0  0  0  0  0  0  0  0  0  0  0
    8.7020   15.4182   20.6546 C   0  0  0  0  0  0  0  0  0  0  0  0
    9.3321   14.2026   22.5966 N   0  0  0  0  0  0  0  0  0  0  0  0
  1  2  1  0
  2  3  1  0
  3  4  2  0
  3  5  1  0
  5  6  2  0
  6  7  1  0
  7  8  1  0
  8  9  1  0
  8 10  1  0
  8 11  1  0
  7 12  2  0
 12 13  1  0
 13 14  2  0
 14 15  1  0
 15 16  1  0
 15 17  1  0
 17 18  2  0
 18 19  1  0
 19 20  1  0
 19 21  2  0
 21 22  1  0
 22 23  1  0
 22 24  2  0
 14  5  1  0
 24 17  1  0
M  END
>  <energy_score>  (836) 
-34.756114

>  <inchikey>  (836) 
None

>  <smiles>  (836) 
None

>  <ref_pdb>  (836) 
A0514a

>  <alias>  (836) 
None

>  <HIPPO Pose ID>  (836) 
498480

>  <name>  (836) 
P498480

>  <HIPPO Compound ID>  (836) 
293029

>  <ref_mols>  (836) 
A4331a,A0514a

>  <distance_score>  (836) 
1.833478

>  <inspiration_score>  (836) 
None

$$$$
P498481
     RDKit          3D

 24 24  0  0  0  0  0  0  0  0999 V2000
    9.4234    8.5231   23.0664 C   0  0  0  0  0  0  0  0  0  0  0  0
    8.6625    9.2637   24.0227 O   0  0  0  0  0  0  0  0  0  0  0  0
    8.7626   10.6066   23.9101 C   0  0  0  0  0  0  0  0  0  0  0  0
    9.4236   11.1995   23.0769 O   0  0  0  0  0  0  0  0  0  0  0  0
    7.9561   11.2686   24.9642 C   0  0  0  0  0  0  0  0  0  0  0  0
    6.9244   10.5654   25.5950 C   0  0  0  0  0  0  0  0  0  0  0  0
    6.1706   11.2175   26.5630 C   0  0  0  0  0  0  0  0  0  0  0  0
    5.1281   10.4964   27.3626 C   0  0  0  0  0  0  0  0  0  0  0  0
    4.0641   11.2978   27.6549 F   0  0  0  0  0  0  0  0  0  0  0  0
    5.6043   10.0468   28.5588 F   0  0  0  0  0  0  0  0  0  0  0  0
    4.6122    9.4098   26.7313 F   0  0  0  0  0  0  0  0  0  0  0  0
    6.3838   12.5095   26.9078 N   0  0  0  0  0  0  0  0  0  0  0  0
    7.3557   13.1660   26.2690 C   0  0  0  0  0  0  0  0  0  0  0  0
    8.1918   12.6073   25.3060 C   0  0  0  0  0  0  0  0  0  0  0  0
    9.1887   13.4292   24.7751 N   0  0  0  0  0  0  0  0  0  0  0  0
   10.5214   12.9769   24.8889 N   0  0  0  0  0  0  0  0  0  0  0  0
    8.7697   14.4627   23.7735 C   0  0  2  0  0  0  0  0  0  0  0  0
    7.3235   14.2907   23.2970 C   0  0  0  0  0  0  0  0  0  0  0  0
    9.8934   14.5957   22.6901 C   0  0  0  0  0  0  0  0  0  0  0  0
    9.7815   15.2557   21.2995 C   0  0  0  0  0  0  0  0  0  0  0  0
    8.4784   14.8211   20.7260 C   0  0  0  0  0  0  0  0  0  0  0  0
    9.8227   16.7469   20.9677 C   0  0  0  0  0  0  0  0  0  0  0  0
   10.8184   14.6856   20.4739 O   0  0  0  0  0  0  0  0  0  0  0  0
   12.1479   14.7912   20.9617 C   0  0  0  0  0  0  0  0  0  0  0  0
  1  2  1  0
  2  3  1  0
  3  4  2  0
  3  5  1  0
  5  6  2  0
  6  7  1  0
  7  8  1  0
  8  9  1  0
  8 10  1  0
  8 11  1  0
  7 12  2  0
 12 13  1  0
 13 14  2  0
 14 15  1  0
 15 16  1  0
 15 17  1  0
 17 18  1  6
 17 19  1  0
 19 20  1  0
 20 21  1  0
 20 22  1  0
 20 23  1  0
 23 24  1  0
 14  5  1  0
M  END
>  <energy_score>  (837) 
-19.256309

>  <inchikey>  (837) 
None

>  <smiles>  (837) 
None

>  <ref_pdb>  (837) 
A0514a

>  <alias>  (837) 
None

>  <HIPPO Pose ID>  (837) 
498481

>  <name>  (837) 
P498481

>  <HIPPO Compound ID>  (837) 
293034

>  <ref_mols>  (837) 
A4331a,A0514a

>  <distance_score>  (837) 
1.127418

>  <inspiration_score>  (837) 
None

$$$$
P498482
     RDKit          3D

 24 24  0  0  0  0  0  0  0  0999 V2000
    9.4525    8.7018   23.0049 C   0  0  0  0  0  0  0  0  0  0  0  0
    8.5521    9.4327   23.8392 O   0  0  0  0  0  0  0  0  0  0  0  0
    8.9299   10.7115   24.0718 C   0  0  0  0  0  0  0  0  0  0  0  0
    9.9362   11.2348   23.6317 O   0  0  0  0  0  0  0  0  0  0  0  0
    7.9541   11.3721   24.9899 C   0  0  0  0  0  0  0  0  0  0  0  0
    6.9440   10.5939   25.5796 C   0  0  0  0  0  0  0  0  0  0  0  0
    6.1250   11.1695   26.5408 C   0  0  0  0  0  0  0  0  0  0  0  0
    5.1152   10.3740   27.3075 C   0  0  0  0  0  0  0  0  0  0  0  0
    4.0372   11.1323   27.6641 F   0  0  0  0  0  0  0  0  0  0  0  0
    5.6172    9.8739   28.4738 F   0  0  0  0  0  0  0  0  0  0  0  0
    4.6141    9.3125   26.6266 F   0  0  0  0  0  0  0  0  0  0  0  0
    6.2526   12.4573   26.9239 N   0  0  0  0  0  0  0  0  0  0  0  0
    7.1845   13.1926   26.3138 C   0  0  0  0  0  0  0  0  0  0  0  0
    8.0844   12.7283   25.3532 C   0  0  0  0  0  0  0  0  0  0  0  0
    9.0490   13.6265   24.8109 N   0  0  0  0  0  0  0  0  0  0  0  0
    9.4732   14.7084   25.6352 N   0  0  0  0  0  0  0  0  0  0  0  0
    8.7140   13.9657   23.3883 C   0  0  1  0  0  0  0  0  0  0  0  0
    7.4211   14.8014   23.3456 C   0  0  0  0  0  0  0  0  0  0  0  0
    9.9959   14.4835   22.6597 C   0  0  0  0  0  0  0  0  0  0  0  0
    9.8988   15.0798   21.2303 C   0  0  0  0  0  0  0  0  0  0  0  0
   10.1601   16.5609   20.9993 C   0  0  0  0  0  0  0  0  0  0  0  0
    8.5275   14.8583   20.6940 C   0  0  0  0  0  0  0  0  0  0  0  0
   10.8710   14.3318   20.4953 O   0  0  0  0  0  0  0  0  0  0  0  0
   11.3398   14.8194   19.2469 C   0  0  0  0  0  0  0  0  0  0  0  0
  1  2  1  0
  2  3  1  0
  3  4  2  0
  3  5  1  0
  5  6  2  0
  6  7  1  0
  7  8  1  0
  8  9  1  0
  8 10  1  0
  8 11  1  0
  7 12  2  0
 12 13  1  0
 13 14  2  0
 14 15  1  0
 15 16  1  0
 15 17  1  0
 17 18  1  1
 17 19  1  0
 19 20  1  0
 20 21  1  0
 20 22  1  0
 20 23  1  0
 23 24  1  0
 14  5  1  0
M  END
>  <energy_score>  (838) 
-30.810255

>  <inchikey>  (838) 
None

>  <smiles>  (838) 
None

>  <ref_pdb>  (838) 
A0514a

>  <alias>  (838) 
None

>  <HIPPO Pose ID>  (838) 
498482

>  <name>  (838) 
P498482

>  <HIPPO Compound ID>  (838) 
293034

>  <ref_mols>  (838) 
A4331a,A0514a

>  <distance_score>  (838) 
1.145956

>  <inspiration_score>  (838) 
None

$$$$
P498483
     RDKit          3D

 24 25  0  0  0  0  0  0  0  0999 V2000
    9.2566    8.7735   23.1170 C   0  0  0  0  0  0  0  0  0  0  0  0
    8.2825    9.3914   23.9676 O   0  0  0  0  0  0  0  0  0  0  0  0
    8.6006   10.6589   24.3287 C   0  0  0  0  0  0  0  0  0  0  0  0
    9.6315   11.2196   24.0150 O   0  0  0  0  0  0  0  0  0  0  0  0
    7.5521   11.2439   25.2075 C   0  0  0  0  0  0  0  0  0  0  0  0
    6.6384   10.3922   25.8202 C   0  0  0  0  0  0  0  0  0  0  0  0
    5.7584   10.9072   26.7649 C   0  0  0  0  0  0  0  0  0  0  0  0
    4.8205   10.0091   27.4829 C   0  0  0  0  0  0  0  0  0  0  0  0
    5.3703    9.3984   28.5671 F   0  0  0  0  0  0  0  0  0  0  0  0
    4.3587    9.0349   26.6652 F   0  0  0  0  0  0  0  0  0  0  0  0
    3.7237   10.6803   27.9337 F   0  0  0  0  0  0  0  0  0  0  0  0
    5.6937   12.2056   27.0969 N   0  0  0  0  0  0  0  0  0  0  0  0
    6.5331   13.0058   26.4528 C   0  0  0  0  0  0  0  0  0  0  0  0
    7.5033   12.6030   25.5319 C   0  0  0  0  0  0  0  0  0  0  0  0
    8.3808   13.5928   25.0384 N   0  0  0  0  0  0  0  0  0  0  0  0
    8.8680   14.4349   26.0706 N   0  0  0  0  0  0  0  0  0  0  0  0
    7.7564   14.3096   23.8989 C   0  0  0  0  0  0  0  0  0  0  0  0
    8.2260   13.7577   22.5614 C   0  0  0  0  0  0  0  0  0  0  0  0
    9.5543   14.0617   22.0468 N   0  0  0  0  0  0  0  0  0  0  0  0
   10.6449   14.0541   23.0029 C   0  0  0  0  0  0  0  0  0  0  0  0
   12.0074   14.1130   22.3366 C   0  0  0  0  0  0  0  0  0  0  0  0
   12.1104   15.2293   21.3169 C   0  0  0  0  0  0  0  0  0  0  0  0
   10.9303   15.1923   20.3598 C   0  0  0  0  0  0  0  0  0  0  0  0
    9.5970   15.1581   21.0927 C   0  0  0  0  0  0  0  0  0  0  0  0
  1  2  1  0
  2  3  1  0
  3  4  2  0
  3  5  1  0
  5  6  2  0
  6  7  1  0
  7  8  1  0
  8  9  1  0
  8 10  1  0
  8 11  1  0
  7 12  2  0
 12 13  1  0
 13 14  2  0
 14 15  1  0
 15 16  1  0
 15 17  1  0
 17 18  1  0
 18 19  1  0
 19 20  1  0
 20 21  1  0
 21 22  1  0
 22 23  1  0
 23 24  1  0
 14  5  1  0
 24 19  1  0
M  END
>  <energy_score>  (839) 
-38.126285

>  <inchikey>  (839) 
None

>  <smiles>  (839) 
None

>  <ref_pdb>  (839) 
A0514a

>  <alias>  (839) 
None

>  <HIPPO Pose ID>  (839) 
498483

>  <name>  (839) 
P498483

>  <HIPPO Compound ID>  (839) 
293036

>  <ref_mols>  (839) 
A4331a,A0514a

>  <distance_score>  (839) 
1.907765

>  <inspiration_score>  (839) 
None

$$$$
P498484
     RDKit          3D

 24 26  0  0  0  0  0  0  0  0999 V2000
    9.4419    8.6825   23.0219 C   0  0  0  0  0  0  0  0  0  0  0  0
    8.5760    9.4775   23.8349 O   0  0  0  0  0  0  0  0  0  0  0  0
    8.9544   10.7704   23.9485 C   0  0  0  0  0  0  0  0  0  0  0  0
    9.9590   11.2567   23.4570 O   0  0  0  0  0  0  0  0  0  0  0  0
    7.9774   11.5265   24.7800 C   0  0  0  0  0  0  0  0  0  0  0  0
    6.9708   10.8382   25.4728 C   0  0  0  0  0  0  0  0  0  0  0  0
    6.1192   11.5450   26.3128 C   0  0  0  0  0  0  0  0  0  0  0  0
    5.1424   10.8658   27.2271 C   0  0  0  0  0  0  0  0  0  0  0  0
    5.1904   11.1957   28.7020 C   0  0  0  0  0  0  0  0  0  0  0  0
    4.0454   11.6904   27.8751 C   0  0  0  0  0  0  0  0  0  0  0  0
    6.1963   12.8904   26.4169 N   0  0  0  0  0  0  0  0  0  0  0  0
    7.1457   13.5387   25.7328 C   0  0  0  0  0  0  0  0  0  0  0  0
    8.0931   12.9179   24.9377 C   0  0  0  0  0  0  0  0  0  0  0  0
    9.1703   13.7197   24.4931 N   0  0  0  0  0  0  0  0  0  0  0  0
   10.3688   13.4254   25.1684 N   0  0  0  0  0  0  0  0  0  0  0  0
    9.2912   14.1332   23.1797 C   0  0  0  0  0  0  0  0  0  0  0  0
    7.9197   14.5547   22.2141 S   0  0  0  0  0  0  0  0  0  0  0  0
    8.7582   14.9802   20.8663 N   0  0  0  0  0  0  0  0  0  0  0  0
   10.0564   14.8392   21.0872 C   0  0  0  0  0  0  0  0  0  0  0  0
   11.2462   15.1138   19.8323 S   0  0  0  0  0  0  0  0  0  0  0  0
   10.4063   16.2581   18.7274 C   0  0  0  0  0  0  0  0  0  0  0  0
   10.4040   14.3933   22.3776 C   0  0  0  0  0  0  0  0  0  0  0  0
   11.7209   14.2268   22.8487 C   0  0  0  0  0  0  0  0  0  0  0  0
   12.6557   14.0584   23.5097 N   0  0  0  0  0  0  0  0  0  0  0  0
  1  2  1  0
  2  3  1  0
  3  4  2  0
  3  5  1  0
  5  6  2  0
  6  7  1  0
  7  8  1  0
  8  9  1  0
  9 10  1  0
  7 11  2  0
 11 12  1  0
 12 13  2  0
 13 14  1  0
 14 15  1  0
 14 16  1  0
 16 17  1  0
 17 18  1  0
 18 19  2  0
 19 20  1  0
 20 21  1  0
 19 22  1  0
 22 23  1  0
 23 24  3  0
 13  5  1  0
 22 16  2  0
 10  8  1  0
M  END
>  <energy_score>  (840) 
-71.359648

>  <inchikey>  (840) 
None

>  <smiles>  (840) 
None

>  <ref_pdb>  (840) 
A0514a

>  <alias>  (840) 
None

>  <HIPPO Pose ID>  (840) 
498484

>  <name>  (840) 
P498484

>  <HIPPO Compound ID>  (840) 
293050

>  <ref_mols>  (840) 
A4331a,A0514a

>  <distance_score>  (840) 
1.850969

>  <inspiration_score>  (840) 
None

$$$$
P498485
     RDKit          3D

 24 25  0  0  0  0  0  0  0  0999 V2000
    9.4975    9.0776   23.3013 C   0  0  0  0  0  0  0  0  0  0  0  0
    8.4867    9.7016   24.0996 O   0  0  0  0  0  0  0  0  0  0  0  0
    8.6858   11.0262   24.3239 C   0  0  0  0  0  0  0  0  0  0  0  0
    9.6330   11.6612   23.9011 O   0  0  0  0  0  0  0  0  0  0  0  0
    7.5576   11.5923   25.1158 C   0  0  0  0  0  0  0  0  0  0  0  0
    6.6821   10.6997   25.7495 C   0  0  0  0  0  0  0  0  0  0  0  0
    5.6596   11.2016   26.5372 C   0  0  0  0  0  0  0  0  0  0  0  0
    4.9481   10.3668   27.5524 C   0  0  0  0  0  0  0  0  0  0  0  0
    3.7973   10.9389   28.3504 C   0  0  0  0  0  0  0  0  0  0  0  0
    5.1393   10.7843   28.9975 C   0  0  0  0  0  0  0  0  0  0  0  0
    5.3656   12.5137   26.5487 N   0  0  0  0  0  0  0  0  0  0  0  0
    6.2032   13.3507   25.9364 C   0  0  0  0  0  0  0  0  0  0  0  0
    7.3814   12.9751   25.3079 C   0  0  0  0  0  0  0  0  0  0  0  0
    8.3301   13.9684   25.0267 N   0  0  0  0  0  0  0  0  0  0  0  0
    8.5106   14.9808   26.0486 N   0  0  0  0  0  0  0  0  0  0  0  0
    8.4286   14.4868   23.6317 C   0  0  2  0  0  0  0  0  0  0  0  0
    7.6047   13.7866   22.5812 C   0  0  0  0  0  0  0  0  0  0  0  0
    9.9168   14.4968   23.2621 C   0  0  0  0  0  0  0  0  0  0  0  0
   10.8322   14.3292   24.0680 O   0  0  0  0  0  0  0  0  0  0  0  0
   10.0875   14.8097   21.9410 O   0  0  0  0  0  0  0  0  0  0  0  0
   11.4164   14.6722   21.4050 C   0  0  0  0  0  0  0  0  0  0  0  0
   11.3488   14.9027   19.8927 C   0  0  0  0  0  0  0  0  0  0  0  0
   11.9476   13.3102   21.7974 C   0  0  0  0  0  0  0  0  0  0  0  0
   12.3820   15.7030   21.9241 C   0  0  0  0  0  0  0  0  0  0  0  0
  1  2  1  0
  2  3  1  0
  3  4  2  0
  3  5  1  0
  5  6  2  0
  6  7  1  0
  7  8  1  0
  8  9  1  0
  9 10  1  0
  7 11  2  0
 11 12  1  0
 12 13  2  0
 13 14  1  0
 14 15  1  0
 14 16  1  0
 16 17  1  6
 16 18  1  0
 18 19  2  0
 18 20  1  0
 20 21  1  0
 21 22  1  0
 21 23  1  0
 21 24  1  0
 13  5  1  0
 10  8  1  0
M  END
>  <energy_score>  (841) 
-37.388403

>  <inchikey>  (841) 
None

>  <smiles>  (841) 
None

>  <ref_pdb>  (841) 
A0514a

>  <alias>  (841) 
None

>  <HIPPO Pose ID>  (841) 
498485

>  <name>  (841) 
P498485

>  <HIPPO Compound ID>  (841) 
293061

>  <ref_mols>  (841) 
A4331a,A0514a

>  <distance_score>  (841) 
1.564818

>  <inspiration_score>  (841) 
None

$$$$
P498486
     RDKit          3D

 24 25  0  0  0  0  0  0  0  0999 V2000
    9.4100    8.9108   23.1875 C   0  0  0  0  0  0  0  0  0  0  0  0
    8.3890    9.5379   23.9707 O   0  0  0  0  0  0  0  0  0  0  0  0
    8.6400   10.8350   24.2750 C   0  0  0  0  0  0  0  0  0  0  0  0
    9.6494   11.4394   23.9585 O   0  0  0  0  0  0  0  0  0  0  0  0
    7.4904   11.4218   25.0197 C   0  0  0  0  0  0  0  0  0  0  0  0
    6.6633   10.5493   25.7424 C   0  0  0  0  0  0  0  0  0  0  0  0
    5.6734   11.0716   26.5622 C   0  0  0  0  0  0  0  0  0  0  0  0
    4.9893   10.2725   27.6242 C   0  0  0  0  0  0  0  0  0  0  0  0
    3.8406   10.8652   28.4114 C   0  0  0  0  0  0  0  0  0  0  0  0
    5.1920   10.7542   29.0481 C   0  0  0  0  0  0  0  0  0  0  0  0
    5.3821   12.3821   26.5592 N   0  0  0  0  0  0  0  0  0  0  0  0
    6.1749   13.1980   25.8648 C   0  0  0  0  0  0  0  0  0  0  0  0
    7.2857   12.8071   25.1271 C   0  0  0  0  0  0  0  0  0  0  0  0
    8.1246   13.8138   24.6465 N   0  0  0  0  0  0  0  0  0  0  0  0
    8.2182   14.9852   25.4534 N   0  0  0  0  0  0  0  0  0  0  0  0
    8.3890   13.8793   23.1916 C   0  0  1  0  0  0  0  0  0  0  0  0
    7.3327   14.6948   22.4693 C   0  0  0  0  0  0  0  0  0  0  0  0
    9.8126   14.3791   23.0025 C   0  0  0  0  0  0  0  0  0  0  0  0
   10.6484   14.4157   23.9065 O   0  0  0  0  0  0  0  0  0  0  0  0
   10.0521   14.7002   21.7011 O   0  0  0  0  0  0  0  0  0  0  0  0
   11.4261   14.6388   21.2836 C   0  0  0  0  0  0  0  0  0  0  0  0
   11.4587   14.8378   19.7633 C   0  0  0  0  0  0  0  0  0  0  0  0
   12.3026   15.7253   21.8507 C   0  0  0  0  0  0  0  0  0  0  0  0
   11.9935   13.3166   21.7598 C   0  0  0  0  0  0  0  0  0  0  0  0
  1  2  1  0
  2  3  1  0
  3  4  2  0
  3  5  1  0
  5  6  2  0
  6  7  1  0
  7  8  1  0
  8  9  1  0
  9 10  1  0
  7 11  2  0
 11 12  1  0
 12 13  2  0
 13 14  1  0
 14 15  1  0
 14 16  1  0
 16 17  1  6
 16 18  1  0
 18 19  2  0
 18 20  1  0
 20 21  1  0
 21 22  1  0
 21 23  1  0
 21 24  1  0
 13  5  1  0
 10  8  1  0
M  END
>  <energy_score>  (842) 
-31.448242

>  <inchikey>  (842) 
None

>  <smiles>  (842) 
None

>  <ref_pdb>  (842) 
A0514a

>  <alias>  (842) 
None

>  <HIPPO Pose ID>  (842) 
498486

>  <name>  (842) 
P498486

>  <HIPPO Compound ID>  (842) 
293061

>  <ref_mols>  (842) 
A4331a,A0514a

>  <distance_score>  (842) 
1.659525

>  <inspiration_score>  (842) 
None

$$$$
P498487
     RDKit          3D

 24 27  0  0  0  0  0  0  0  0999 V2000
    9.4916    8.7107   23.0492 C   0  0  0  0  0  0  0  0  0  0  0  0
    8.6950    9.5138   23.9234 O   0  0  0  0  0  0  0  0  0  0  0  0
    8.8842   10.8503   23.8186 C   0  0  0  0  0  0  0  0  0  0  0  0
    9.6697   11.3857   23.0624 O   0  0  0  0  0  0  0  0  0  0  0  0
    8.0218   11.5676   24.7924 C   0  0  0  0  0  0  0  0  0  0  0  0
    7.1310   10.8273   25.5925 C   0  0  0  0  0  0  0  0  0  0  0  0
    6.3329   11.4770   26.5269 C   0  0  0  0  0  0  0  0  0  0  0  0
    5.3184   10.7649   27.3723 C   0  0  0  0  0  0  0  0  0  0  0  0
    5.2262   11.0944   28.8435 C   0  0  0  0  0  0  0  0  0  0  0  0
    4.1489   11.5660   27.9177 C   0  0  0  0  0  0  0  0  0  0  0  0
    6.4527   12.8047   26.7329 N   0  0  0  0  0  0  0  0  0  0  0  0
    7.2146   13.5124   25.8932 C   0  0  0  0  0  0  0  0  0  0  0  0
    8.0129   12.9625   24.9042 C   0  0  0  0  0  0  0  0  0  0  0  0
    8.4091   13.8738   23.9184 N   0  0  0  0  0  0  0  0  0  0  0  0
    9.6923   13.9964   23.4576 N   0  0  0  0  0  0  0  0  0  0  0  0
    9.5806   14.6219   22.3163 C   0  0  0  0  0  0  0  0  0  0  0  0
   10.6264   14.8848   21.3862 C   0  0  0  0  0  0  0  0  0  0  0  0
   11.9235   14.4497   21.3745 C   0  0  0  0  0  0  0  0  0  0  0  0
   12.4492   14.5513   20.0583 C   0  0  0  0  0  0  0  0  0  0  0  0
   11.5998   15.1448   19.1582 C   0  0  0  0  0  0  0  0  0  0  0  0
   10.2576   15.7681   19.9619 S   0  0  0  0  0  0  0  0  0  0  0  0
    8.1755   14.9806   21.9431 C   0  0  0  0  0  0  0  0  0  0  0  0
    7.4387   14.3623   23.0440 C   0  0  0  0  0  0  0  0  0  0  0  0
    6.2300   14.2596   23.0966 O   0  0  0  0  0  0  0  0  0  0  0  0
  1  2  1  0
  2  3  1  0
  3  4  2  0
  3  5  1  0
  5  6  2  0
  6  7  1  0
  7  8  1  0
  8  9  1  0
  9 10  1  0
  7 11  2  0
 11 12  1  0
 12 13  2  0
 13 14  1  0
 14 15  1  0
 15 16  2  0
 16 17  1  0
 17 18  2  0
 18 19  1  0
 19 20  2  0
 20 21  1  0
 16 22  1  0
 22 23  1  0
 23 24  2  0
 13  5  1  0
 23 14  1  0
 10  8  1  0
 21 17  1  0
M  END
>  <energy_score>  (843) 
-29.027892

>  <inchikey>  (843) 
None

>  <smiles>  (843) 
None

>  <ref_pdb>  (843) 
A0514a

>  <alias>  (843) 
None

>  <HIPPO Pose ID>  (843) 
498487

>  <name>  (843) 
P498487

>  <HIPPO Compound ID>  (843) 
293065

>  <ref_mols>  (843) 
A4331a,A0514a

>  <distance_score>  (843) 
1.941492

>  <inspiration_score>  (843) 
None

$$$$
P498488
     RDKit          3D

 24 26  0  0  0  0  0  0  0  0999 V2000
    9.3909    8.6090   23.0100 C   0  0  0  0  0  0  0  0  0  0  0  0
    8.5800    9.4073   23.8748 O   0  0  0  0  0  0  0  0  0  0  0  0
    8.9854   10.6927   23.9714 C   0  0  0  0  0  0  0  0  0  0  0  0
    9.9622   11.1661   23.4187 O   0  0  0  0  0  0  0  0  0  0  0  0
    8.0834   11.4716   24.8582 C   0  0  0  0  0  0  0  0  0  0  0  0
    6.9990   10.8415   25.4881 C   0  0  0  0  0  0  0  0  0  0  0  0
    6.1785   11.5846   26.3273 C   0  0  0  0  0  0  0  0  0  0  0  0
    5.1605   10.9559   27.2354 C   0  0  0  0  0  0  0  0  0  0  0  0
    3.9771   11.7639   27.7265 C   0  0  0  0  0  0  0  0  0  0  0  0
    5.1048   11.4664   28.6635 C   0  0  0  0  0  0  0  0  0  0  0  0
    6.3449   12.9196   26.4562 N   0  0  0  0  0  0  0  0  0  0  0  0
    7.3839   13.5068   25.8551 C   0  0  0  0  0  0  0  0  0  0  0  0
    8.3272   12.8319   25.1010 C   0  0  0  0  0  0  0  0  0  0  0  0
    9.4812   13.5601   24.7497 N   0  0  0  0  0  0  0  0  0  0  0  0
   10.7225   13.0827   25.2694 N   0  0  0  0  0  0  0  0  0  0  0  0
    9.6651   14.1130   23.4959 C   0  0  0  0  0  0  0  0  0  0  0  0
   10.8827   14.3256   23.0950 N   0  0  0  0  0  0  0  0  0  0  0  0
   11.1004   14.8812   21.8712 C   0  0  0  0  0  0  0  0  0  0  0  0
   12.5340   15.1842   21.6171 C   0  0  0  0  0  0  0  0  0  0  0  0
   10.1253   15.1609   20.9952 C   0  0  0  0  0  0  0  0  0  0  0  0
   10.3255   15.7918   19.6572 C   0  0  0  0  0  0  0  0  0  0  0  0
    8.7717   14.7822   21.4453 C   0  0  0  0  0  0  0  0  0  0  0  0
    7.7972   14.6607   20.7240 O   0  0  0  0  0  0  0  0  0  0  0  0
    8.6042   14.4576   22.7422 N   0  0  0  0  0  0  0  0  0  0  0  0
  1  2  1  0
  2  3  1  0
  3  4  2  0
  3  5  1  0
  5  6  2  0
  6  7  1  0
  7  8  1  0
  8  9  1  0
  9 10  1  0
  7 11  2  0
 11 12  1  0
 12 13  2  0
 13 14  1  0
 14 15  1  0
 14 16  1  0
 16 17  2  0
 17 18  1  0
 18 19  1  0
 18 20  2  0
 20 21  1  0
 20 22  1  0
 22 23  2  0
 22 24  1  0
 13  5  1  0
 24 16  1  0
 10  8  1  0
M  END
>  <energy_score>  (844) 
-62.564176

>  <inchikey>  (844) 
None

>  <smiles>  (844) 
None

>  <ref_pdb>  (844) 
A0514a

>  <alias>  (844) 
None

>  <HIPPO Pose ID>  (844) 
498488

>  <name>  (844) 
P498488

>  <HIPPO Compound ID>  (844) 
293066

>  <ref_mols>  (844) 
A4331a,A0514a

>  <distance_score>  (844) 
1.899099

>  <inspiration_score>  (844) 
None

$$$$
P498489
     RDKit          3D

 24 26  0  0  0  0  0  0  0  0999 V2000
    6.2877   15.2992   23.4561 C   0  0  0  0  0  0  0  0  0  0  0  0
    7.6958   15.1876   23.2459 O   0  0  0  0  0  0  0  0  0  0  0  0
    8.0636   14.1453   22.4695 C   0  0  0  0  0  0  0  0  0  0  0  0
    7.3621   13.2216   22.0971 O   0  0  0  0  0  0  0  0  0  0  0  0
    9.4520   14.3387   22.0356 C   0  0  0  0  0  0  0  0  0  0  0  0
    9.5222   15.0930   20.8706 C   0  0  0  0  0  0  0  0  0  0  0  0
   10.7368   15.4009   20.2965 C   0  0  0  0  0  0  0  0  0  0  0  0
   10.8541   16.1296   18.9805 C   0  0  0  0  0  0  0  0  0  0  0  0
    9.8293   16.4286   17.9497 C   0  0  0  0  0  0  0  0  0  0  0  0
   10.1113   17.4694   18.9472 C   0  0  0  0  0  0  0  0  0  0  0  0
   11.8690   15.1075   20.9663 N   0  0  0  0  0  0  0  0  0  0  0  0
   11.7772   14.3726   22.0991 C   0  0  0  0  0  0  0  0  0  0  0  0
   10.6055   13.8640   22.6574 C   0  0  0  0  0  0  0  0  0  0  0  0
   10.6563   12.9486   23.7234 N   0  0  0  0  0  0  0  0  0  0  0  0
   11.8214   12.9480   24.5282 N   0  0  0  0  0  0  0  0  0  0  0  0
    9.7640   11.7523   23.6681 C   0  0  0  0  0  0  0  0  0  0  0  0
    8.6320   11.8520   24.6677 C   0  0  0  0  0  0  0  0  0  0  0  0
    7.7207   10.8122   24.8871 C   0  0  0  0  0  0  0  0  0  0  0  0
    6.6348   11.0097   25.7466 C   0  0  0  0  0  0  0  0  0  0  0  0
    6.4420   12.2463   26.3691 C   0  0  0  0  0  0  0  0  0  0  0  0
    5.0558   12.5128   27.4295 S   0  0  0  0  0  0  0  0  0  0  0  0
    4.6691   14.2485   27.0827 C   0  0  0  0  0  0  0  0  0  0  0  0
    7.3665   13.2560   26.1801 C   0  0  0  0  0  0  0  0  0  0  0  0
    8.4412   13.0565   25.3444 C   0  0  0  0  0  0  0  0  0  0  0  0
  1  2  1  0
  2  3  1  0
  3  4  2  0
  3  5  1  0
  5  6  2  0
  6  7  1  0
  7  8  1  0
  8  9  1  0
  9 10  1  0
  7 11  2  0
 11 12  1  0
 12 13  2  0
 13 14  1  0
 14 15  1  0
 14 16  1  0
 16 17  1  0
 17 18  2  0
 18 19  1  0
 19 20  2  0
 20 21  1  0
 21 22  1  0
 20 23  1  0
 23 24  2  0
 13  5  1  0
 24 17  1  0
 10  8  1  0
M  END
>  <energy_score>  (845) 
-14.798132

>  <inchikey>  (845) 
None

>  <smiles>  (845) 
None

>  <ref_pdb>  (845) 
A0514a

>  <alias>  (845) 
None

>  <HIPPO Pose ID>  (845) 
498489

>  <name>  (845) 
P498489

>  <HIPPO Compound ID>  (845) 
293071

>  <ref_mols>  (845) 
A4331a,A0514a

>  <distance_score>  (845) 
1.803303

>  <inspiration_score>  (845) 
None

$$$$
P498490
     RDKit          3D

 24 26  0  0  0  0  0  0  0  0999 V2000
   12.0448   15.2799   21.3601 C   0  0  0  0  0  0  0  0  0  0  0  0
   11.6121   14.1550   22.2644 C   0  0  0  0  0  0  0  0  0  0  0  0
   10.4780   14.5069   23.0684 O   0  0  0  0  0  0  0  0  0  0  0  0
    9.2599   14.3861   22.4341 C   0  0  0  0  0  0  0  0  0  0  0  0
    9.1466   14.3454   21.2117 O   0  0  0  0  0  0  0  0  0  0  0  0
    8.0669   14.1962   23.4875 C   0  0  0  0  0  0  0  0  0  0  0  0
    8.1886   12.9058   24.1867 N   0  0  0  0  0  0  0  0  0  0  0  0
    9.4838   12.6168   24.7408 N   0  0  0  0  0  0  0  0  0  0  0  0
    7.1805   12.2243   24.9079 C   0  0  0  0  0  0  0  0  0  0  0  0
    6.1217   12.8890   25.5154 C   0  0  0  0  0  0  0  0  0  0  0  0
    5.3068   12.3910   26.4518 N   0  0  0  0  0  0  0  0  0  0  0  0
    5.4554   11.1127   26.7951 C   0  0  0  0  0  0  0  0  0  0  0  0
    4.7388   10.6541   28.0205 C   0  0  0  0  0  0  0  0  0  0  0  0
    3.5616   11.4382   28.5507 C   0  0  0  0  0  0  0  0  0  0  0  0
    4.8837   11.5288   29.2522 C   0  0  0  0  0  0  0  0  0  0  0  0
    6.3002   10.3045   26.0722 C   0  0  0  0  0  0  0  0  0  0  0  0
    7.1877   10.8506   25.1355 C   0  0  0  0  0  0  0  0  0  0  0  0
    8.0385    9.8467   24.4623 C   0  0  0  0  0  0  0  0  0  0  0  0
    7.9370    8.6752   24.7865 O   0  0  0  0  0  0  0  0  0  0  0  0
    8.8783   10.2855   23.5010 O   0  0  0  0  0  0  0  0  0  0  0  0
    9.6311    9.2117   22.9267 C   0  0  0  0  0  0  0  0  0  0  0  0
    7.7203   15.3348   24.4911 C   0  0  0  0  0  0  0  0  0  0  0  0
    6.7661   15.9003   23.4220 C   0  0  0  0  0  0  0  0  0  0  0  0
    6.6854   14.4876   22.8150 C   0  0  0  0  0  0  0  0  0  0  0  0
  1  2  1  0
  2  3  1  0
  3  4  1  0
  4  5  2  0
  4  6  1  0
  6  7  1  0
  7  8  1  0
  7  9  1  0
  9 10  2  0
 10 11  1  0
 11 12  2  0
 12 13  1  0
 13 14  1  0
 14 15  1  0
 12 16  1  0
 16 17  2  0
 17 18  1  0
 18 19  2  0
 18 20  1  0
 20 21  1  0
  6 22  1  0
 22 23  1  0
 23 24  1  0
 24  6  1  0
 17  9  1  0
 15 13  1  0
M  END
>  <energy_score>  (846) 
-17.552382

>  <inchikey>  (846) 
None

>  <smiles>  (846) 
None

>  <ref_pdb>  (846) 
A0514a

>  <alias>  (846) 
None

>  <HIPPO Pose ID>  (846) 
498490

>  <name>  (846) 
P498490

>  <HIPPO Compound ID>  (846) 
293072

>  <ref_mols>  (846) 
A4331a,A0514a

>  <distance_score>  (846) 
1.658153

>  <inspiration_score>  (846) 
None

$$$$
P498491
     RDKit          3D

 24 26  0  0  0  0  0  0  0  0999 V2000
    9.3614    8.8622   23.0765 C   0  0  0  0  0  0  0  0  0  0  0  0
    8.4618    9.7399   23.7632 O   0  0  0  0  0  0  0  0  0  0  0  0
    8.9009   11.0210   23.8351 C   0  0  0  0  0  0  0  0  0  0  0  0
    9.9716   11.4237   23.4256 O   0  0  0  0  0  0  0  0  0  0  0  0
    7.9183   11.8510   24.5659 C   0  0  0  0  0  0  0  0  0  0  0  0
    7.2789   11.2659   25.6632 C   0  0  0  0  0  0  0  0  0  0  0  0
    6.4030   12.0092   26.4433 C   0  0  0  0  0  0  0  0  0  0  0  0
    5.6628   11.4031   27.6032 C   0  0  0  0  0  0  0  0  0  0  0  0
    4.2844   11.9106   27.9586 C   0  0  0  0  0  0  0  0  0  0  0  0
    5.4510   12.2512   28.8380 C   0  0  0  0  0  0  0  0  0  0  0  0
    6.1906   13.3109   26.1910 N   0  0  0  0  0  0  0  0  0  0  0  0
    6.7347   13.8215   25.0771 C   0  0  0  0  0  0  0  0  0  0  0  0
    7.5930   13.1595   24.2055 C   0  0  0  0  0  0  0  0  0  0  0  0
    7.9249   13.7690   22.9809 N   0  0  0  0  0  0  0  0  0  0  0  0
    6.8358   14.3190   22.2706 N   0  0  0  0  0  0  0  0  0  0  0  0
    9.1949   14.2436   22.5808 C   0  0  0  0  0  0  0  0  0  0  0  0
   10.2205   14.1433   23.4154 N   0  0  0  0  0  0  0  0  0  0  0  0
   11.4306   14.3196   22.8739 C   0  0  0  0  0  0  0  0  0  0  0  0
   12.5148   13.7809   23.7244 C   0  0  0  0  0  0  0  0  0  0  0  0
   11.6388   14.8073   21.5956 C   0  0  0  0  0  0  0  0  0  0  0  0
   10.5057   15.0541   20.8513 C   0  0  0  0  0  0  0  0  0  0  0  0
   10.5529   15.6035   19.4456 C   0  0  0  0  0  0  0  0  0  0  0  0
   11.5658   14.9965   18.6569 O   0  0  0  0  0  0  0  0  0  0  0  0
    9.2801   14.7757   21.3423 N   0  0  0  0  0  0  0  0  0  0  0  0
  1  2  1  0
  2  3  1  0
  3  4  2  0
  3  5  1  0
  5  6  2  0
  6  7  1  0
  7  8  1  0
  8  9  1  0
  9 10  1  0
  7 11  2  0
 11 12  1  0
 12 13  2  0
 13 14  1  0
 14 15  1  0
 14 16  1  0
 16 17  2  0
 17 18  1  0
 18 19  1  0
 18 20  2  0
 20 21  1  0
 21 22  1  0
 22 23  1  0
 21 24  2  0
 13  5  1  0
 24 16  1  0
 10  8  1  0
M  END
>  <energy_score>  (847) 
-35.030669

>  <inchikey>  (847) 
None

>  <smiles>  (847) 
None

>  <ref_pdb>  (847) 
A0514a

>  <alias>  (847) 
None

>  <HIPPO Pose ID>  (847) 
498491

>  <name>  (847) 
P498491

>  <HIPPO Compound ID>  (847) 
293073

>  <ref_mols>  (847) 
A4331a,A0514a

>  <distance_score>  (847) 
1.868093

>  <inspiration_score>  (847) 
None

$$$$
P498492
     RDKit          3D

 24 26  0  0  0  0  0  0  0  0999 V2000
    4.7849   14.9237   22.8611 C   0  0  0  0  0  0  0  0  0  0  0  0
    4.6052   14.9033   24.2780 O   0  0  0  0  0  0  0  0  0  0  0  0
    5.7444   15.1960   24.9410 C   0  0  0  0  0  0  0  0  0  0  0  0
    6.8524   15.4096   24.4730 O   0  0  0  0  0  0  0  0  0  0  0  0
    5.4574   15.3356   26.3734 C   0  0  0  0  0  0  0  0  0  0  0  0
    5.3616   16.6819   26.7724 C   0  0  0  0  0  0  0  0  0  0  0  0
    5.1132   17.0071   28.0956 C   0  0  0  0  0  0  0  0  0  0  0  0
    5.0121   18.4440   28.5429 C   0  0  0  0  0  0  0  0  0  0  0  0
    6.1322   19.4198   28.2577 C   0  0  0  0  0  0  0  0  0  0  0  0
    5.9008   18.9430   29.6596 C   0  0  0  0  0  0  0  0  0  0  0  0
    4.9399   16.0275   29.0057 N   0  0  0  0  0  0  0  0  0  0  0  0
    5.0297   14.7343   28.5865 C   0  0  0  0  0  0  0  0  0  0  0  0
    5.3066   14.2861   27.2905 C   0  0  0  0  0  0  0  0  0  0  0  0
    5.4049   12.8791   27.0375 N   0  0  0  0  0  0  0  0  0  0  0  0
    4.5577   12.0749   27.8395 N   0  0  0  0  0  0  0  0  0  0  0  0
    6.3701   12.1963   26.2319 C   0  0  0  0  0  0  0  0  0  0  0  0
    6.2710   10.8363   25.8947 C   0  0  0  0  0  0  0  0  0  0  0  0
    7.2251   10.2105   25.0735 C   0  0  0  0  0  0  0  0  0  0  0  0
    8.2876   10.9300   24.5381 C   0  0  0  0  0  0  0  0  0  0  0  0
    9.2362   10.4401   23.6880 O   0  0  0  0  0  0  0  0  0  0  0  0
    9.1771    9.0695   23.3236 C   0  0  0  0  0  0  0  0  0  0  0  0
    8.4318   12.2710   24.8928 C   0  0  0  0  0  0  0  0  0  0  0  0
    9.5180   13.1322   24.3142 C   0  0  0  0  0  0  0  0  0  0  0  0
    7.5080   12.8579   25.7694 C   0  0  0  0  0  0  0  0  0  0  0  0
  1  2  1  0
  2  3  1  0
  3  4  2  0
  3  5  1  0
  5  6  2  0
  6  7  1  0
  7  8  1  0
  8  9  1  0
  9 10  1  0
  7 11  2  0
 11 12  1  0
 12 13  2  0
 13 14  1  0
 14 15  1  0
 14 16  1  0
 16 17  2  0
 17 18  1  0
 18 19  2  0
 19 20  1  0
 20 21  1  0
 19 22  1  0
 22 23  1  0
 22 24  2  0
 13  5  1  0
 24 16  1  0
 10  8  1  0
M  END
>  <energy_score>  (848) 
-58.930705

>  <inchikey>  (848) 
None

>  <smiles>  (848) 
None

>  <ref_pdb>  (848) 
A0514a

>  <alias>  (848) 
None

>  <HIPPO Pose ID>  (848) 
498492

>  <name>  (848) 
P498492

>  <HIPPO Compound ID>  (848) 
293074

>  <ref_mols>  (848) 
A4331a,A0514a

>  <distance_score>  (848) 
1.25954

>  <inspiration_score>  (848) 
None

$$$$
P498493
     RDKit          3D

 24 26  0  0  0  0  0  0  0  0999 V2000
    9.5648    8.8130   22.9956 C   0  0  0  0  0  0  0  0  0  0  0  0
    8.6188    9.6487   23.6593 O   0  0  0  0  0  0  0  0  0  0  0  0
    9.0564   10.9085   23.8915 C   0  0  0  0  0  0  0  0  0  0  0  0
   10.1670   11.3349   23.6389 O   0  0  0  0  0  0  0  0  0  0  0  0
    7.9747   11.6851   24.5393 C   0  0  0  0  0  0  0  0  0  0  0  0
    7.0438   10.9781   25.3252 C   0  0  0  0  0  0  0  0  0  0  0  0
    6.1152   11.6771   26.0826 C   0  0  0  0  0  0  0  0  0  0  0  0
    5.2993   11.0135   27.1568 C   0  0  0  0  0  0  0  0  0  0  0  0
    4.1202   11.7272   27.7816 C   0  0  0  0  0  0  0  0  0  0  0  0
    5.3990   11.6072   28.5498 C   0  0  0  0  0  0  0  0  0  0  0  0
    6.0158   13.0182   25.9838 N   0  0  0  0  0  0  0  0  0  0  0  0
    6.9115   13.6792   25.2297 C   0  0  0  0  0  0  0  0  0  0  0  0
    7.9528   13.0879   24.5227 C   0  0  0  0  0  0  0  0  0  0  0  0
    9.0366   13.9460   24.1913 N   0  0  0  0  0  0  0  0  0  0  0  0
    9.9886   13.9134   25.2438 N   0  0  0  0  0  0  0  0  0  0  0  0
    9.6022   14.1492   22.9484 C   0  0  0  0  0  0  0  0  0  0  0  0
   10.9167   14.1437   22.5071 C   0  0  0  0  0  0  0  0  0  0  0  0
   12.0309   13.8124   23.2939 C   0  0  0  0  0  0  0  0  0  0  0  0
   12.8467   13.5593   24.0770 N   0  0  0  0  0  0  0  0  0  0  0  0
   10.9395   14.5797   21.1794 C   0  0  0  0  0  0  0  0  0  0  0  0
   12.0950   14.7448   20.2733 C   0  0  0  0  0  0  0  0  0  0  0  0
    9.7158   14.8895   20.7781 N   0  0  0  0  0  0  0  0  0  0  0  0
    8.9431   14.6552   21.8443 N   0  0  0  0  0  0  0  0  0  0  0  0
    7.6113   15.1503   21.7393 C   0  0  0  0  0  0  0  0  0  0  0  0
  1  2  1  0
  2  3  1  0
  3  4  2  0
  3  5  1  0
  5  6  2  0
  6  7  1  0
  7  8  1  0
  8  9  1  0
  9 10  1  0
  7 11  2  0
 11 12  1  0
 12 13  2  0
 13 14  1  0
 14 15  1  0
 14 16  1  0
 16 17  2  0
 17 18  1  0
 18 19  3  0
 17 20  1  0
 20 21  1  0
 20 22  2  0
 22 23  1  0
 23 24  1  0
 13  5  1  0
 23 16  1  0
 10  8  1  0
M  END
>  <energy_score>  (849) 
-40.776786

>  <inchikey>  (849) 
None

>  <smiles>  (849) 
None

>  <ref_pdb>  (849) 
A0514a

>  <alias>  (849) 
None

>  <HIPPO Pose ID>  (849) 
498493

>  <name>  (849) 
P498493

>  <HIPPO Compound ID>  (849) 
293077

>  <ref_mols>  (849) 
A4331a,A0514a

>  <distance_score>  (849) 
1.91952

>  <inspiration_score>  (849) 
None

$$$$
P498494
     RDKit          3D

 24 26  0  0  0  0  0  0  0  0999 V2000
    9.2755    8.6845   23.0637 C   0  0  0  0  0  0  0  0  0  0  0  0
    8.3786    9.4692   23.8565 O   0  0  0  0  0  0  0  0  0  0  0  0
    8.7848   10.7481   24.0317 C   0  0  0  0  0  0  0  0  0  0  0  0
    9.8355   11.2035   23.6148 O   0  0  0  0  0  0  0  0  0  0  0  0
    7.8109   11.5234   24.8443 C   0  0  0  0  0  0  0  0  0  0  0  0
    6.8797   10.8366   25.6298 C   0  0  0  0  0  0  0  0  0  0  0  0
    6.0881   11.5548   26.5158 C   0  0  0  0  0  0  0  0  0  0  0  0
    5.1024   10.8915   27.4304 C   0  0  0  0  0  0  0  0  0  0  0  0
    5.0750   11.2931   28.8860 C   0  0  0  0  0  0  0  0  0  0  0  0
    3.9587   11.7199   27.9835 C   0  0  0  0  0  0  0  0  0  0  0  0
    6.2122   12.8982   26.6387 N   0  0  0  0  0  0  0  0  0  0  0  0
    7.0654   13.5542   25.8438 C   0  0  0  0  0  0  0  0  0  0  0  0
    7.8791   12.9245   24.9332 C   0  0  0  0  0  0  0  0  0  0  0  0
    8.6891   13.7569   24.1445 N   0  0  0  0  0  0  0  0  0  0  0  0
    9.9525   13.9537   24.6473 N   0  0  0  0  0  0  0  0  0  0  0  0
   10.7454   13.9698   23.6187 C   0  0  0  0  0  0  0  0  0  0  0  0
   12.2123   13.8697   23.7940 C   0  0  0  0  0  0  0  0  0  0  0  0
   10.0584   13.8347   22.2867 C   0  0  2  0  0  0  0  0  0  0  0  0
   10.1624   14.9767   21.3073 C   0  0  0  0  0  0  0  0  0  0  0  0
   11.5998   15.1562   20.9416 C   0  0  0  0  0  0  0  0  0  0  0  0
   12.2332   14.4247   20.2047 O   0  0  0  0  0  0  0  0  0  0  0  0
   12.1684   16.1835   21.6026 O   0  0  0  0  0  0  0  0  0  0  0  0
    8.6477   13.6305   22.7524 C   0  0  0  0  0  0  0  0  0  0  0  0
    7.6746   13.3388   22.0743 O   0  0  0  0  0  0  0  0  0  0  0  0
  1  2  1  0
  2  3  1  0
  3  4  2  0
  3  5  1  0
  5  6  2  0
  6  7  1  0
  7  8  1  0
  8  9  1  0
  9 10  1  0
  7 11  2  0
 11 12  1  0
 12 13  2  0
 13 14  1  0
 14 15  1  0
 15 16  2  0
 16 17  1  0
 16 18  1  0
 18 19  1  6
 19 20  1  0
 20 21  2  0
 20 22  1  0
 18 23  1  0
 23 24  2  0
 13  5  1  0
 23 14  1  0
 10  8  1  0
M  END
>  <energy_score>  (850) 
-28.26417

>  <inchikey>  (850) 
None

>  <smiles>  (850) 
None

>  <ref_pdb>  (850) 
A0514a

>  <alias>  (850) 
None

>  <HIPPO Pose ID>  (850) 
498494

>  <name>  (850) 
P498494

>  <HIPPO Compound ID>  (850) 
293079

>  <ref_mols>  (850) 
A4331a,A0514a

>  <distance_score>  (850) 
1.61345

>  <inspiration_score>  (850) 
None

$$$$
P498495
     RDKit          3D

 24 26  0  0  0  0  0  0  0  0999 V2000
    9.7234    8.5188   23.3937 C   0  0  0  0  0  0  0  0  0  0  0  0
    8.7371    9.2023   24.1641 O   0  0  0  0  0  0  0  0  0  0  0  0
    8.7355   10.5267   23.8864 C   0  0  0  0  0  0  0  0  0  0  0  0
    9.4134   11.0494   23.0184 O   0  0  0  0  0  0  0  0  0  0  0  0
    7.8257   11.2627   24.7959 C   0  0  0  0  0  0  0  0  0  0  0  0
    6.8817   10.5908   25.5770 C   0  0  0  0  0  0  0  0  0  0  0  0
    6.0659   11.3270   26.4317 C   0  0  0  0  0  0  0  0  0  0  0  0
    5.1076   10.6868   27.3913 C   0  0  0  0  0  0  0  0  0  0  0  0
    5.1680   11.0911   28.8464 C   0  0  0  0  0  0  0  0  0  0  0  0
    4.0117   11.5378   28.0077 C   0  0  0  0  0  0  0  0  0  0  0  0
    6.1405   12.6773   26.4871 N   0  0  0  0  0  0  0  0  0  0  0  0
    7.0120   13.3125   25.7009 C   0  0  0  0  0  0  0  0  0  0  0  0
    7.8927   12.6538   24.8755 C   0  0  0  0  0  0  0  0  0  0  0  0
    8.8150   13.4527   24.2115 N   0  0  0  0  0  0  0  0  0  0  0  0
   10.1396   13.2881   24.5641 N   0  0  0  0  0  0  0  0  0  0  0  0
   10.8191   13.7269   23.5470 C   0  0  0  0  0  0  0  0  0  0  0  0
   12.2854   13.6279   23.4744 C   0  0  0  0  0  0  0  0  0  0  0  0
    9.9639   14.3785   22.5041 C   0  0  1  0  0  0  0  0  0  0  0  0
   10.3051   14.4869   21.0574 C   0  0  0  0  0  0  0  0  0  0  0  0
   11.7126   14.9261   20.8050 C   0  0  0  0  0  0  0  0  0  0  0  0
   12.4949   14.3349   20.0817 O   0  0  0  0  0  0  0  0  0  0  0  0
   12.0725   16.0264   21.4973 O   0  0  0  0  0  0  0  0  0  0  0  0
    8.6355   13.7951   22.8587 C   0  0  0  0  0  0  0  0  0  0  0  0
    7.6495   13.6536   22.1581 O   0  0  0  0  0  0  0  0  0  0  0  0
  1  2  1  0
  2  3  1  0
  3  4  2  0
  3  5  1  0
  5  6  2  0
  6  7  1  0
  7  8  1  0
  8  9  1  0
  9 10  1  0
  7 11  2  0
 11 12  1  0
 12 13  2  0
 13 14  1  0
 14 15  1  0
 15 16  2  0
 16 17  1  0
 16 18  1  0
 18 19  1  6
 19 20  1  0
 20 21  2  0
 20 22  1  0
 18 23  1  0
 23 24  2  0
 13  5  1  0
 23 14  1  0
 10  8  1  0
M  END
>  <energy_score>  (851) 
-21.681143

>  <inchikey>  (851) 
None

>  <smiles>  (851) 
None

>  <ref_pdb>  (851) 
A0514a

>  <alias>  (851) 
None

>  <HIPPO Pose ID>  (851) 
498495

>  <name>  (851) 
P498495

>  <HIPPO Compound ID>  (851) 
293079

>  <ref_mols>  (851) 
A4331a,A0514a

>  <distance_score>  (851) 
1.624319

>  <inspiration_score>  (851) 
None

$$$$
P498496
     RDKit          3D

 24 26  0  0  0  0  0  0  0  0999 V2000
    9.2721    8.6727   23.0726 C   0  0  0  0  0  0  0  0  0  0  0  0
    8.3547    9.4204   23.8773 O   0  0  0  0  0  0  0  0  0  0  0  0
    8.7150   10.7123   24.0580 C   0  0  0  0  0  0  0  0  0  0  0  0
    9.7474   11.2086   23.6392 O   0  0  0  0  0  0  0  0  0  0  0  0
    7.7133   11.4426   24.8801 C   0  0  0  0  0  0  0  0  0  0  0  0
    6.8122   10.7267   25.6718 C   0  0  0  0  0  0  0  0  0  0  0  0
    6.0140   11.4200   26.5735 C   0  0  0  0  0  0  0  0  0  0  0  0
    5.0597   10.7302   27.5001 C   0  0  0  0  0  0  0  0  0  0  0  0
    5.0604   11.1153   28.9605 C   0  0  0  0  0  0  0  0  0  0  0  0
    3.9167   11.5348   28.0896 C   0  0  0  0  0  0  0  0  0  0  0  0
    6.1032   12.7650   26.7062 N   0  0  0  0  0  0  0  0  0  0  0  0
    6.9239   13.4479   25.9032 C   0  0  0  0  0  0  0  0  0  0  0  0
    7.7348   12.8418   24.9754 C   0  0  0  0  0  0  0  0  0  0  0  0
    8.5021   13.6938   24.1792 N   0  0  0  0  0  0  0  0  0  0  0  0
    9.7323   13.9944   24.6909 N   0  0  0  0  0  0  0  0  0  0  0  0
   10.5115   14.1158   23.6615 C   0  0  0  0  0  0  0  0  0  0  0  0
   11.9591   14.2977   23.8308 C   0  0  0  0  0  0  0  0  0  0  0  0
    9.8601   13.9104   22.3245 C   0  0  2  0  0  0  0  0  0  0  0  0
    9.8452   15.0539   21.3313 C   0  0  0  0  0  0  0  0  0  0  0  0
   10.9023   14.9564   20.2417 C   0  0  2  0  0  0  0  0  0  0  0  0
   12.3228   14.9632   20.7390 C   0  0  0  0  0  0  0  0  0  0  0  0
   10.6631   16.0168   19.3347 O   0  0  0  0  0  0  0  0  0  0  0  0
    8.4708   13.5829   22.7901 C   0  0  0  0  0  0  0  0  0  0  0  0
    7.5284   13.2155   22.1059 O   0  0  0  0  0  0  0  0  0  0  0  0
  1  2  1  0
  2  3  1  0
  3  4  2  0
  3  5  1  0
  5  6  2  0
  6  7  1  0
  7  8  1  0
  8  9  1  0
  9 10  1  0
  7 11  2  0
 11 12  1  0
 12 13  2  0
 13 14  1  0
 14 15  1  0
 15 16  2  0
 16 17  1  0
 16 18  1  0
 18 19  1  6
 19 20  1  0
 20 21  1  1
 20 22  1  0
 18 23  1  0
 23 24  2  0
 13  5  1  0
 23 14  1  0
 10  8  1  0
M  END
>  <energy_score>  (852) 
-40.216633

>  <inchikey>  (852) 
None

>  <smiles>  (852) 
None

>  <ref_pdb>  (852) 
A0514a

>  <alias>  (852) 
None

>  <HIPPO Pose ID>  (852) 
498496

>  <name>  (852) 
P498496

>  <HIPPO Compound ID>  (852) 
293081

>  <ref_mols>  (852) 
A4331a,A0514a

>  <distance_score>  (852) 
1.587548

>  <inspiration_score>  (852) 
None

$$$$
P498497
     RDKit          3D

 24 26  0  0  0  0  0  0  0  0999 V2000
    9.3072    8.5410   23.0323 C   0  0  0  0  0  0  0  0  0  0  0  0
    8.4374    9.2548   23.9157 O   0  0  0  0  0  0  0  0  0  0  0  0
    8.6927   10.5809   23.9814 C   0  0  0  0  0  0  0  0  0  0  0  0
    9.6005   11.1446   23.3943 O   0  0  0  0  0  0  0  0  0  0  0  0
    7.7413   11.2589   24.9030 C   0  0  0  0  0  0  0  0  0  0  0  0
    6.8167   10.5379   25.6624 C   0  0  0  0  0  0  0  0  0  0  0  0
    6.0313   11.2146   26.5935 C   0  0  0  0  0  0  0  0  0  0  0  0
    5.0458   10.5256   27.4875 C   0  0  0  0  0  0  0  0  0  0  0  0
    5.0392   10.8687   28.9589 C   0  0  0  0  0  0  0  0  0  0  0  0
    3.9191   11.3480   28.0887 C   0  0  0  0  0  0  0  0  0  0  0  0
    6.1525   12.5490   26.7855 N   0  0  0  0  0  0  0  0  0  0  0  0
    6.9930   13.2372   26.0160 C   0  0  0  0  0  0  0  0  0  0  0  0
    7.7975   12.6420   25.0745 C   0  0  0  0  0  0  0  0  0  0  0  0
    8.5420   13.5140   24.3020 N   0  0  0  0  0  0  0  0  0  0  0  0
    9.8499   13.7041   24.6747 N   0  0  0  0  0  0  0  0  0  0  0  0
   10.4336   14.1435   23.5990 C   0  0  0  0  0  0  0  0  0  0  0  0
   11.8995   14.2803   23.5147 C   0  0  0  0  0  0  0  0  0  0  0  0
    9.4712   14.4826   22.4953 C   0  0  1  0  0  0  0  0  0  0  0  0
    9.8422   14.3944   21.0608 C   0  0  0  0  0  0  0  0  0  0  0  0
   10.6794   15.5420   20.5094 C   0  0  2  0  0  0  0  0  0  0  0  0
   10.7442   15.4911   18.9884 C   0  0  0  0  0  0  0  0  0  0  0  0
   11.9928   15.4619   21.0446 O   0  0  0  0  0  0  0  0  0  0  0  0
    8.3166   13.6491   22.9274 C   0  0  0  0  0  0  0  0  0  0  0  0
    7.3839   13.2445   22.2562 O   0  0  0  0  0  0  0  0  0  0  0  0
  1  2  1  0
  2  3  1  0
  3  4  2  0
  3  5  1  0
  5  6  2  0
  6  7  1  0
  7  8  1  0
  8  9  1  0
  9 10  1  0
  7 11  2  0
 11 12  1  0
 12 13  2  0
 13 14  1  0
 14 15  1  0
 15 16  2  0
 16 17  1  0
 16 18  1  0
 18 19  1  6
 19 20  1  0
 20 21  1  6
 20 22  1  0
 18 23  1  0
 23 24  2  0
 13  5  1  0
 23 14  1  0
 10  8  1  0
M  END
>  <energy_score>  (853) 
-41.164629

>  <inchikey>  (853) 
None

>  <smiles>  (853) 
None

>  <ref_pdb>  (853) 
A0514a

>  <alias>  (853) 
None

>  <HIPPO Pose ID>  (853) 
498497

>  <name>  (853) 
P498497

>  <HIPPO Compound ID>  (853) 
293081

>  <ref_mols>  (853) 
A4331a,A0514a

>  <distance_score>  (853) 
1.732344

>  <inspiration_score>  (853) 
None

$$$$
P498498
     RDKit          3D

 24 26  0  0  0  0  0  0  0  0999 V2000
    9.2494    8.6736   23.0847 C   0  0  0  0  0  0  0  0  0  0  0  0
    8.3176    9.4065   23.8874 O   0  0  0  0  0  0  0  0  0  0  0  0
    8.6701   10.6970   24.0901 C   0  0  0  0  0  0  0  0  0  0  0  0
    9.7104   11.1996   23.6991 O   0  0  0  0  0  0  0  0  0  0  0  0
    7.6458   11.4189   24.8921 C   0  0  0  0  0  0  0  0  0  0  0  0
    6.7629   10.6925   25.6936 C   0  0  0  0  0  0  0  0  0  0  0  0
    5.9459   11.3791   26.5833 C   0  0  0  0  0  0  0  0  0  0  0  0
    5.0264   10.6782   27.5356 C   0  0  0  0  0  0  0  0  0  0  0  0
    5.0702   11.0624   28.9954 C   0  0  0  0  0  0  0  0  0  0  0  0
    3.8933   11.4677   28.1626 C   0  0  0  0  0  0  0  0  0  0  0  0
    5.9891   12.7287   26.6863 N   0  0  0  0  0  0  0  0  0  0  0  0
    6.7945   13.4199   25.8760 C   0  0  0  0  0  0  0  0  0  0  0  0
    7.6290   12.8201   24.9653 C   0  0  0  0  0  0  0  0  0  0  0  0
    8.4059   13.6810   24.1866 N   0  0  0  0  0  0  0  0  0  0  0  0
    9.6105   13.9802   24.7436 N   0  0  0  0  0  0  0  0  0  0  0  0
   10.4434   14.0446   23.7540 C   0  0  0  0  0  0  0  0  0  0  0  0
   11.8824   14.1360   24.0362 C   0  0  0  0  0  0  0  0  0  0  0  0
    9.8507   13.8594   22.3756 C   0  0  2  0  0  0  0  0  0  0  0  0
    9.7786   14.9909   21.3611 C   0  0  0  0  0  0  0  0  0  0  0  0
   11.0112   15.3060   20.5208 C   0  0  1  0  0  0  0  0  0  0  0  0
   12.3388   15.2843   21.2258 C   0  0  0  0  0  0  0  0  0  0  0  0
   11.1544   14.4379   19.4208 O   0  0  0  0  0  0  0  0  0  0  0  0
    8.4397   13.5376   22.8026 C   0  0  0  0  0  0  0  0  0  0  0  0
    7.5155   13.1744   22.0924 O   0  0  0  0  0  0  0  0  0  0  0  0
  1  2  1  0
  2  3  1  0
  3  4  2  0
  3  5  1  0
  5  6  2  0
  6  7  1  0
  7  8  1  0
  8  9  1  0
  9 10  1  0
  7 11  2  0
 11 12  1  0
 12 13  2  0
 13 14  1  0
 14 15  1  0
 15 16  2  0
 16 17  1  0
 16 18  1  0
 18 19  1  6
 19 20  1  0
 20 21  1  1
 20 22  1  0
 18 23  1  0
 23 24  2  0
 13  5  1  0
 23 14  1  0
 10  8  1  0
M  END
>  <energy_score>  (854) 
-18.578049

>  <inchikey>  (854) 
None

>  <smiles>  (854) 
None

>  <ref_pdb>  (854) 
A0514a

>  <alias>  (854) 
None

>  <HIPPO Pose ID>  (854) 
498498

>  <name>  (854) 
P498498

>  <HIPPO Compound ID>  (854) 
293081

>  <ref_mols>  (854) 
A4331a,A0514a

>  <distance_score>  (854) 
1.622211

>  <inspiration_score>  (854) 
None

$$$$
P498499
     RDKit          3D

 24 26  0  0  0  0  0  0  0  0999 V2000
    9.6377    8.5667   23.4507 C   0  0  0  0  0  0  0  0  0  0  0  0
    8.6213    9.1960   24.2337 O   0  0  0  0  0  0  0  0  0  0  0  0
    8.5597   10.5236   23.9813 C   0  0  0  0  0  0  0  0  0  0  0  0
    9.2058   11.0877   23.1136 O   0  0  0  0  0  0  0  0  0  0  0  0
    7.6355   11.2116   24.9190 C   0  0  0  0  0  0  0  0  0  0  0  0
    6.7096   10.4990   25.6788 C   0  0  0  0  0  0  0  0  0  0  0  0
    5.8854   11.1943   26.5600 C   0  0  0  0  0  0  0  0  0  0  0  0
    4.9592   10.5077   27.5159 C   0  0  0  0  0  0  0  0  0  0  0  0
    5.0483   10.8668   28.9811 C   0  0  0  0  0  0  0  0  0  0  0  0
    3.8649   11.3203   28.1840 C   0  0  0  0  0  0  0  0  0  0  0  0
    5.9214   12.5453   26.6545 N   0  0  0  0  0  0  0  0  0  0  0  0
    6.7766   13.2211   25.8902 C   0  0  0  0  0  0  0  0  0  0  0  0
    7.6717   12.6014   25.0530 C   0  0  0  0  0  0  0  0  0  0  0  0
    8.6040   13.4365   24.4544 N   0  0  0  0  0  0  0  0  0  0  0  0
    9.9127   13.2003   24.8149 N   0  0  0  0  0  0  0  0  0  0  0  0
   10.6227   13.5631   23.7916 C   0  0  0  0  0  0  0  0  0  0  0  0
   12.0802   13.3414   23.7703 C   0  0  0  0  0  0  0  0  0  0  0  0
    9.8192   14.2842   22.7475 C   0  0  1  0  0  0  0  0  0  0  0  0
   10.0964   14.2744   21.2831 C   0  0  0  0  0  0  0  0  0  0  0  0
   11.0169   15.3708   20.7592 C   0  0  1  0  0  0  0  0  0  0  0  0
   12.3502   15.3720   21.4756 C   0  0  0  0  0  0  0  0  0  0  0  0
   11.2947   15.1304   19.3879 O   0  0  0  0  0  0  0  0  0  0  0  0
    8.4543   13.7881   23.1030 C   0  0  0  0  0  0  0  0  0  0  0  0
    7.4714   13.6859   22.3899 O   0  0  0  0  0  0  0  0  0  0  0  0
  1  2  1  0
  2  3  1  0
  3  4  2  0
  3  5  1  0
  5  6  2  0
  6  7  1  0
  7  8  1  0
  8  9  1  0
  9 10  1  0
  7 11  2  0
 11 12  1  0
 12 13  2  0
 13 14  1  0
 14 15  1  0
 15 16  2  0
 16 17  1  0
 16 18  1  0
 18 19  1  6
 19 20  1  0
 20 21  1  1
 20 22  1  0
 18 23  1  0
 23 24  2  0
 13  5  1  0
 23 14  1  0
 10  8  1  0
M  END
>  <energy_score>  (855) 
-33.934978

>  <inchikey>  (855) 
None

>  <smiles>  (855) 
None

>  <ref_pdb>  (855) 
A0514a

>  <alias>  (855) 
None

>  <HIPPO Pose ID>  (855) 
498499

>  <name>  (855) 
P498499

>  <HIPPO Compound ID>  (855) 
293081

>  <ref_mols>  (855) 
A4331a,A0514a

>  <distance_score>  (855) 
1.837448

>  <inspiration_score>  (855) 
None

$$$$
P498500
     RDKit          3D

 24 26  0  0  0  0  0  0  0  0999 V2000
    5.4583   15.2769   24.1281 C   0  0  0  0  0  0  0  0  0  0  0  0
    6.8609   15.1102   23.9308 O   0  0  0  0  0  0  0  0  0  0  0  0
    7.1611   14.3347   22.8682 C   0  0  0  0  0  0  0  0  0  0  0  0
    6.4187   13.6803   22.1532 O   0  0  0  0  0  0  0  0  0  0  0  0
    8.5746   14.4283   22.5510 C   0  0  0  0  0  0  0  0  0  0  0  0
    8.7830   15.0330   21.3232 C   0  0  0  0  0  0  0  0  0  0  0  0
   10.0475   15.1709   20.8023 C   0  0  0  0  0  0  0  0  0  0  0  0
   10.1443   15.4971   19.3356 C   0  0  0  0  0  0  0  0  0  0  0  0
   11.4962   15.4889   18.7352 C   0  0  0  0  0  0  0  0  0  0  0  0
   10.6139   16.7387   18.7099 C   0  0  0  0  0  0  0  0  0  0  0  0
   11.1179   14.8208   21.5567 N   0  0  0  0  0  0  0  0  0  0  0  0
   10.8921   14.2493   22.7707 C   0  0  0  0  0  0  0  0  0  0  0  0
    9.6348   13.9931   23.3252 C   0  0  0  0  0  0  0  0  0  0  0  0
    9.5045   13.3904   24.5995 N   0  0  0  0  0  0  0  0  0  0  0  0
   10.0685   14.2106   25.6104 N   0  0  0  0  0  0  0  0  0  0  0  0
    8.4570   12.4661   24.9684 C   0  0  0  0  0  0  0  0  0  0  0  0
    7.4480   12.8379   25.8861 C   0  0  0  0  0  0  0  0  0  0  0  0
    6.4588   11.9404   26.3154 C   0  0  0  0  0  0  0  0  0  0  0  0
    5.3538   12.3980   27.2202 C   0  0  0  0  0  0  0  0  0  0  0  0
    6.4814   10.6353   25.8337 C   0  0  0  0  0  0  0  0  0  0  0  0
    7.4596   10.2425   24.9202 C   0  0  0  0  0  0  0  0  0  0  0  0
    8.4302   11.1435   24.4584 C   0  0  0  0  0  0  0  0  0  0  0  0
    9.3836   10.8070   23.5308 O   0  0  0  0  0  0  0  0  0  0  0  0
    9.5237    9.4299   23.1811 C   0  0  0  0  0  0  0  0  0  0  0  0
  1  2  1  0
  2  3  1  0
  3  4  2  0
  3  5  1  0
  5  6  2  0
  6  7  1  0
  7  8  1  0
  8  9  1  0
  9 10  1  0
  7 11  2  0
 11 12  1  0
 12 13  2  0
 13 14  1  0
 14 15  1  0
 14 16  1  0
 16 17  2  0
 17 18  1  0
 18 19  1  0
 18 20  2  0
 20 21  1  0
 21 22  2  0
 22 23  1  0
 23 24  1  0
 13  5  1  0
 22 16  1  0
 10  8  1  0
M  END
>  <energy_score>  (856) 
-17.819348

>  <inchikey>  (856) 
None

>  <smiles>  (856) 
None

>  <ref_pdb>  (856) 
A0514a

>  <alias>  (856) 
None

>  <HIPPO Pose ID>  (856) 
498500

>  <name>  (856) 
P498500

>  <HIPPO Compound ID>  (856) 
293084

>  <ref_mols>  (856) 
A4331a,A0514a

>  <distance_score>  (856) 
1.112055

>  <inspiration_score>  (856) 
None

$$$$
P498501
     RDKit          3D

 24 25  0  0  0  0  0  0  0  0999 V2000
    9.3418    8.7434   23.0701 C   0  0  0  0  0  0  0  0  0  0  0  0
    8.4843    9.5929   23.8420 O   0  0  0  0  0  0  0  0  0  0  0  0
    8.8202   10.9058   23.8088 C   0  0  0  0  0  0  0  0  0  0  0  0
    9.7895   11.3600   23.2342 O   0  0  0  0  0  0  0  0  0  0  0  0
    7.8641   11.7065   24.6196 C   0  0  0  0  0  0  0  0  0  0  0  0
    7.1721   11.0613   25.6465 C   0  0  0  0  0  0  0  0  0  0  0  0
    6.3019   11.7870   26.4523 C   0  0  0  0  0  0  0  0  0  0  0  0
    5.4350   11.0759   27.4578 C   0  0  0  0  0  0  0  0  0  0  0  0
    4.3142   11.7770   27.7864 F   0  0  0  0  0  0  0  0  0  0  0  0
    4.9916    9.8639   27.0219 F   0  0  0  0  0  0  0  0  0  0  0  0
    6.0772   10.8264   28.6362 F   0  0  0  0  0  0  0  0  0  0  0  0
    6.1724   13.1245   26.3535 N   0  0  0  0  0  0  0  0  0  0  0  0
    6.7583   13.6959   25.2924 C   0  0  0  0  0  0  0  0  0  0  0  0
    7.5863   13.0566   24.3703 C   0  0  0  0  0  0  0  0  0  0  0  0
    7.9475   13.7447   23.1974 N   0  0  0  0  0  0  0  0  0  0  0  0
    6.8935   14.3945   22.5219 N   0  0  0  0  0  0  0  0  0  0  0  0
    9.2432   14.1590   22.8313 C   0  0  0  0  0  0  0  0  0  0  0  0
    9.3752   14.7089   21.6102 N   0  0  0  0  0  0  0  0  0  0  0  0
   10.6159   14.9694   21.1746 C   0  0  0  0  0  0  0  0  0  0  0  0
   10.6979   15.6216   19.8347 C   0  0  0  0  0  0  0  0  0  0  0  0
   11.7268   14.6878   21.9428 C   0  0  0  0  0  0  0  0  0  0  0  0
   11.4764   14.1688   23.2008 C   0  0  0  0  0  0  0  0  0  0  0  0
   12.5181   13.6042   24.0925 C   0  0  0  0  0  0  0  0  0  0  0  0
   10.2447   14.0081   23.6946 N   0  0  0  0  0  0  0  0  0  0  0  0
  1  2  1  0
  2  3  1  0
  3  4  2  0
  3  5  1  0
  5  6  2  0
  6  7  1  0
  7  8  1  0
  8  9  1  0
  8 10  1  0
  8 11  1  0
  7 12  2  0
 12 13  1  0
 13 14  2  0
 14 15  1  0
 15 16  1  0
 15 17  1  0
 17 18  2  0
 18 19  1  0
 19 20  1  0
 19 21  2  0
 21 22  1  0
 22 23  1  0
 22 24  2  0
 14  5  1  0
 24 17  1  0
M  END
>  <energy_score>  (857) 
-36.315636

>  <inchikey>  (857) 
None

>  <smiles>  (857) 
None

>  <ref_pdb>  (857) 
A0514a

>  <alias>  (857) 
None

>  <HIPPO Pose ID>  (857) 
498501

>  <name>  (857) 
P498501

>  <HIPPO Compound ID>  (857) 
293093

>  <ref_mols>  (857) 
A4331a,A0514a

>  <distance_score>  (857) 
1.768714

>  <inspiration_score>  (857) 
None

$$$$
P498502
     RDKit          3D

 16 17  0  0  0  0  0  0  0  0999 V2000
   10.0615   11.7335   23.4313 C   0  0  0  0  0  0  0  0  0  0  0  0
    9.1086   11.6476   24.5378 N   0  0  0  0  0  0  0  0  0  0  0  0
    8.4681   10.3415   24.4641 C   0  0  0  0  0  0  0  0  0  0  0  0
    7.4412   10.1379   25.5516 C   0  0  0  0  0  0  0  0  0  0  0  0
    6.6106   11.3062   26.0204 C   0  0  0  0  0  0  0  0  0  0  0  0
    7.1843   12.6721   25.7192 C   0  0  0  0  0  0  0  0  0  0  0  0
    8.1353   12.7511   24.5225 C   0  0  1  0  0  0  0  0  0  0  0  0
    8.7985   14.1469   24.5772 C   0  0  0  0  0  0  0  0  0  0  0  0
    9.2437   14.5771   23.2840 N   0  0  0  0  0  0  0  0  0  0  0  0
   10.6702   14.8012   22.7381 C   0  0  0  0  0  0  0  0  0  0  0  0
   11.7020   14.7452   23.2764 O   0  0  0  0  0  0  0  0  0  0  0  0
   10.5392   15.0812   21.2840 C   0  0  0  0  0  0  0  0  0  0  0  0
   11.5128   14.7836   20.4151 C   0  0  0  0  0  0  0  0  0  0  0  0
   11.0774   15.0125   19.0107 C   0  0  0  0  0  0  0  0  0  0  0  0
    9.8515   15.8920   19.1901 C   0  0  0  0  0  0  0  0  0  0  0  0
    9.3363   15.6282   20.5925 C   0  0  0  0  0  0  0  0  0  0  0  0
  1  2  1  0
  2  3  1  0
  3  4  1  0
  4  5  1  0
  5  6  1  0
  6  7  1  0
  7  8  1  1
  8  9  1  0
  9 10  1  0
 10 11  2  0
 10 12  1  0
 12 13  2  0
 13 14  1  0
 14 15  1  0
 15 16  1  0
  7  2  1  0
 16 12  1  0
M  END
>  <energy_score>  (858) 
-8.091473

>  <inchikey>  (858) 
None

>  <smiles>  (858) 
None

>  <ref_pdb>  (858) 
A3436a

>  <alias>  (858) 
None

>  <HIPPO Pose ID>  (858) 
498502

>  <name>  (858) 
P498502

>  <HIPPO Compound ID>  (858) 
293170

>  <ref_mols>  (858) 
A4320a,A3436a

>  <distance_score>  (858) 
1.713601

>  <inspiration_score>  (858) 
None

$$$$
P498503
     RDKit          3D

 17 18  0  0  0  0  0  0  0  0999 V2000
    5.9230   11.4164   27.5153 C   0  0  0  0  0  0  0  0  0  0  0  0
    6.4863   11.4747   26.0892 C   0  0  2  0  0  0  0  0  0  0  0  0
    7.3217   10.2646   25.7111 C   0  0  0  0  0  0  0  0  0  0  0  0
    8.3451   10.4115   24.6046 C   0  0  0  0  0  0  0  0  0  0  0  0
    9.0506   11.6836   24.6572 N   0  0  0  0  0  0  0  0  0  0  0  0
   10.0095   11.7036   23.5492 C   0  0  0  0  0  0  0  0  0  0  0  0
    8.1154   12.8206   24.6089 C   0  0  2  0  0  0  0  0  0  0  0  0
    8.8275   14.1890   24.6178 C   0  0  0  0  0  0  0  0  0  0  0  0
    9.2632   14.5790   23.3077 N   0  0  0  0  0  0  0  0  0  0  0  0
   10.6855   14.7744   22.7412 C   0  0  0  0  0  0  0  0  0  0  0  0
   11.7223   14.7241   23.2702 O   0  0  0  0  0  0  0  0  0  0  0  0
   10.5433   15.0520   21.2870 C   0  0  0  0  0  0  0  0  0  0  0  0
   11.5164   14.7693   20.4125 C   0  0  0  0  0  0  0  0  0  0  0  0
   11.0767   15.0088   19.0112 C   0  0  0  0  0  0  0  0  0  0  0  0
    9.8481   15.8822   19.2012 C   0  0  0  0  0  0  0  0  0  0  0  0
    9.3370   15.6021   20.6028 C   0  0  0  0  0  0  0  0  0  0  0  0
    7.1695   12.8053   25.8185 C   0  0  0  0  0  0  0  0  0  0  0  0
  2  1  1  1
  2  3  1  0
  3  4  1  0
  4  5  1  0
  5  6  1  0
  5  7  1  0
  7  8  1  1
  8  9  1  0
  9 10  1  0
 10 11  2  0
 10 12  1  0
 12 13  2  0
 13 14  1  0
 14 15  1  0
 15 16  1  0
  7 17  1  0
 17  2  1  0
 16 12  1  0
M  END
>  <energy_score>  (859) 
-10.424144

>  <inchikey>  (859) 
None

>  <smiles>  (859) 
None

>  <ref_pdb>  (859) 
A3436a

>  <alias>  (859) 
None

>  <HIPPO Pose ID>  (859) 
498503

>  <name>  (859) 
P498503

>  <HIPPO Compound ID>  (859) 
293172

>  <ref_mols>  (859) 
A3436a,A4320a

>  <distance_score>  (859) 
1.796218

>  <inspiration_score>  (859) 
None

$$$$
P498504
     RDKit          3D

 17 18  0  0  0  0  0  0  0  0999 V2000
    9.0712    8.5514   23.5373 C   0  0  0  0  0  0  0  0  0  0  0  0
    9.6406    9.9545   23.6032 C   0  0  0  0  0  0  0  0  0  0  0  0
    9.0950   10.9572   24.5520 N   0  0  0  0  0  0  0  0  0  0  0  0
    7.7466   10.6802   24.9765 C   0  0  0  0  0  0  0  0  0  0  0  0
    7.1044   11.7050   25.8812 C   0  0  0  0  0  0  0  0  0  0  0  0
    7.1925   13.0912   25.2838 C   0  0  0  0  0  0  0  0  0  0  0  0
    8.6150   13.4186   24.8996 C   0  0  0  0  0  0  0  0  0  0  0  0
    9.2696   12.3301   24.0365 C   0  0  1  0  0  0  0  0  0  0  0  0
   10.7554   12.7004   23.9030 C   0  0  0  0  0  0  0  0  0  0  0  0
   10.9964   13.3361   22.6546 N   0  0  0  0  0  0  0  0  0  0  0  0
   11.5358   14.7178   22.3403 C   0  0  0  0  0  0  0  0  0  0  0  0
   11.9452   15.5395   23.0411 O   0  0  0  0  0  0  0  0  0  0  0  0
   11.3531   14.9053   20.8961 C   0  0  0  0  0  0  0  0  0  0  0  0
   12.4084   14.4330   19.9896 C   0  0  0  0  0  0  0  0  0  0  0  0
   10.2832   15.5605   20.5146 C   0  0  0  0  0  0  0  0  0  0  0  0
    9.6427   16.1198   19.4001 C   0  0  0  0  0  0  0  0  0  0  0  0
    9.0858   16.2082   20.8551 C   0  0  0  0  0  0  0  0  0  0  0  0
  1  2  1  0
  2  3  1  0
  3  4  1  0
  4  5  1  0
  5  6  1  0
  6  7  1  0
  7  8  1  0
  8  9  1  1
  9 10  1  0
 10 11  1  0
 11 12  2  0
 11 13  1  0
 13 14  1  0
 13 15  2  3
 15 16  1  0
 16 17  1  0
  8  3  1  0
 17 15  1  0
M  END
>  <energy_score>  (860) 
-32.284148

>  <inchikey>  (860) 
None

>  <smiles>  (860) 
None

>  <ref_pdb>  (860) 
A3436a

>  <alias>  (860) 
None

>  <HIPPO Pose ID>  (860) 
498504

>  <name>  (860) 
P498504

>  <HIPPO Compound ID>  (860) 
293187

>  <ref_mols>  (860) 
A3436a,A4320a

>  <distance_score>  (860) 
1.908791

>  <inspiration_score>  (860) 
None

$$$$
P498505
     RDKit          3D

 17 18  0  0  0  0  0  0  0  0999 V2000
   10.9323   12.5151   24.0125 C   0  0  0  0  0  0  0  0  0  0  0  0
    9.7415   11.7701   24.3718 N   0  0  0  0  0  0  0  0  0  0  0  0
    9.7170   10.4621   23.7149 C   0  0  0  0  0  0  0  0  0  0  0  0
    8.5831    9.5965   24.2192 C   0  0  0  0  0  0  0  0  0  0  0  0
    7.6354   10.2424   25.2399 C   0  0  0  0  0  0  0  0  0  0  0  0
    7.5409   11.7645   25.2409 C   0  0  0  0  0  0  0  0  0  0  0  0
    8.4507   12.4322   24.2192 C   0  0  1  0  0  0  0  0  0  0  0  0
    8.3900   13.9575   24.3913 C   0  0  0  0  0  0  0  0  0  0  0  0
    8.7192   14.5917   23.1426 N   0  0  0  0  0  0  0  0  0  0  0  0
    9.9667   15.0633   22.6312 C   0  0  0  0  0  0  0  0  0  0  0  0
   11.0454   15.1250   23.1394 O   0  0  0  0  0  0  0  0  0  0  0  0
    9.7530   15.5518   21.2679 C   0  0  0  0  0  0  0  0  0  0  0  0
   10.5467   15.2671   20.2401 C   0  0  0  0  0  0  0  0  0  0  0  0
   12.1392   14.3871   20.2184 Br  0  0  0  0  0  0  0  0  0  0  0  0
   10.0667   15.9121   19.0016 C   0  0  0  0  0  0  0  0  0  0  0  0
    9.1839   17.0147   19.5638 C   0  0  0  0  0  0  0  0  0  0  0  0
    8.6787   16.5143   20.9011 C   0  0  0  0  0  0  0  0  0  0  0  0
  1  2  1  0
  2  3  1  0
  3  4  1  0
  4  5  1  0
  5  6  1  0
  6  7  1  0
  7  8  1  1
  8  9  1  0
  9 10  1  0
 10 11  2  0
 10 12  1  0
 12 13  2  0
 13 14  1  0
 13 15  1  0
 15 16  1  0
 16 17  1  0
  7  2  1  0
 17 12  1  0
M  END
>  <energy_score>  (861) 
-4.475279

>  <inchikey>  (861) 
None

>  <smiles>  (861) 
None

>  <ref_pdb>  (861) 
A3436a

>  <alias>  (861) 
None

>  <HIPPO Pose ID>  (861) 
498505

>  <name>  (861) 
P498505

>  <HIPPO Compound ID>  (861) 
293198

>  <ref_mols>  (861) 
A4320a,A3436a

>  <distance_score>  (861) 
1.614393

>  <inspiration_score>  (861) 
None

$$$$
P498506
     RDKit          3D

 17 18  0  0  0  0  0  0  0  0999 V2000
   10.8109   12.6419   23.9633 C   0  0  0  0  0  0  0  0  0  0  0  0
    9.6874   11.8155   24.3704 N   0  0  0  0  0  0  0  0  0  0  0  0
    9.7044   10.5102   23.6882 C   0  0  0  0  0  0  0  0  0  0  0  0
    8.6217    9.5669   24.1637 C   0  0  0  0  0  0  0  0  0  0  0  0
    7.6614   10.1196   25.2197 C   0  0  0  0  0  0  0  0  0  0  0  0
    7.4982   11.6268   25.3014 C   0  0  0  0  0  0  0  0  0  0  0  0
    8.3395   12.3905   24.2945 C   0  0  1  0  0  0  0  0  0  0  0  0
    8.1756   13.8964   24.5598 C   0  0  0  0  0  0  0  0  0  0  0  0
    8.6325   14.5884   23.3962 N   0  0  0  0  0  0  0  0  0  0  0  0
    7.9189   14.8909   22.0723 C   0  0  0  0  0  0  0  0  0  0  0  0
    6.8223   14.6935   21.7460 O   0  0  0  0  0  0  0  0  0  0  0  0
    8.9717   15.4261   21.1899 C   0  0  0  0  0  0  0  0  0  0  0  0
    9.9351   14.5535   20.8555 C   0  0  0  0  0  0  0  0  0  0  0  0
   10.9434   14.9155   19.8338 C   0  0  0  0  0  0  0  0  0  0  0  0
   10.2833   15.9037   18.9025 C   0  0  0  0  0  0  0  0  0  0  0  0
    9.8175   17.0611   19.5972 O   0  0  0  0  0  0  0  0  0  0  0  0
    8.8880   16.8119   20.6524 C   0  0  0  0  0  0  0  0  0  0  0  0
  1  2  1  0
  2  3  1  0
  3  4  1  0
  4  5  1  0
  5  6  1  0
  6  7  1  0
  7  8  1  1
  8  9  1  0
  9 10  1  0
 10 11  2  0
 10 12  1  0
 12 13  2  0
 13 14  1  0
 14 15  1  0
 15 16  1  0
 16 17  1  0
  7  2  1  0
 17 12  1  0
M  END
>  <energy_score>  (862) 
-14.813219

>  <inchikey>  (862) 
None

>  <smiles>  (862) 
None

>  <ref_pdb>  (862) 
A3436a

>  <alias>  (862) 
None

>  <HIPPO Pose ID>  (862) 
498506

>  <name>  (862) 
P498506

>  <HIPPO Compound ID>  (862) 
293205

>  <ref_mols>  (862) 
A3436a,A4320a

>  <distance_score>  (862) 
1.98355

>  <inspiration_score>  (862) 
None

$$$$
P498507
     RDKit          3D

 17 18  0  0  0  0  0  0  0  0999 V2000
    9.7733   10.4354   23.0607 C   0  0  0  0  0  0  0  0  0  0  0  0
    8.6820   11.0098   23.8184 N   0  0  0  0  0  0  0  0  0  0  0  0
    8.1889    9.9828   24.7362 C   0  0  0  0  0  0  0  0  0  0  0  0
    7.0301   10.4240   25.6197 C   0  0  0  0  0  0  0  0  0  0  0  0
    6.9633   11.9109   25.9547 C   0  0  2  0  0  0  0  0  0  0  0  0
    5.6093   12.3179   26.1381 O   0  0  0  0  0  0  0  0  0  0  0  0
    7.6881   12.8349   24.9789 C   0  0  0  0  0  0  0  0  0  0  0  0
    9.0221   12.2058   24.6041 C   0  0  2  0  0  0  0  0  0  0  0  0
   10.1398   13.1747   24.1822 C   0  0  0  0  0  0  0  0  0  0  0  0
    9.9998   13.8663   22.9522 N   0  0  0  0  0  0  0  0  0  0  0  0
    8.8458   14.7094   22.4131 C   0  0  0  0  0  0  0  0  0  0  0  0
    7.7916   14.9124   22.8544 O   0  0  0  0  0  0  0  0  0  0  0  0
    9.3038   15.3892   21.1845 C   0  0  0  0  0  0  0  0  0  0  0  0
   10.1140   14.9147   20.2367 C   0  0  0  0  0  0  0  0  0  0  0  0
   10.0629   15.7484   19.0189 C   0  0  0  0  0  0  0  0  0  0  0  0
    9.2888   16.9774   19.4602 C   0  0  0  0  0  0  0  0  0  0  0  0
    8.7218   16.7103   20.8330 C   0  0  0  0  0  0  0  0  0  0  0  0
  1  2  1  0
  2  3  1  0
  3  4  1  0
  4  5  1  0
  5  6  1  6
  5  7  1  0
  7  8  1  0
  8  9  1  6
  9 10  1  0
 10 11  1  0
 11 12  2  0
 11 13  1  0
 13 14  2  0
 14 15  1  0
 15 16  1  0
 16 17  1  0
  8  2  1  0
 17 13  1  0
M  END
>  <energy_score>  (863) 
-7.876896

>  <inchikey>  (863) 
None

>  <smiles>  (863) 
None

>  <ref_pdb>  (863) 
A3436a

>  <alias>  (863) 
None

>  <HIPPO Pose ID>  (863) 
498507

>  <name>  (863) 
P498507

>  <HIPPO Compound ID>  (863) 
293224

>  <ref_mols>  (863) 
A3436a,A4320a

>  <distance_score>  (863) 
1.977127

>  <inspiration_score>  (863) 
None

$$$$
P498508
     RDKit          3D

 18 20  0  0  0  0  0  0  0  0999 V2000
   11.4751   12.8082   24.3327 C   0  0  0  0  0  0  0  0  0  0  0  0
   10.1677   12.1989   24.3190 N   0  0  0  0  0  0  0  0  0  0  0  0
    9.8327   11.4174   23.1588 C   0  0  0  0  0  0  0  0  0  0  0  0
    9.1703   10.1716   23.6839 C   0  0  0  0  0  0  0  0  0  0  0  0
    8.1731   10.4744   24.7949 C   0  0  0  0  0  0  0  0  0  0  0  0
    7.7705   11.9554   24.7956 C   0  0  0  0  0  0  0  0  0  0  0  0
    9.0047   12.8848   24.8572 C   0  0  2  0  0  0  0  0  0  0  0  0
    8.6571   14.2840   24.3510 C   0  0  0  0  0  0  0  0  0  0  0  0
    9.1403   14.5729   23.0370 N   0  0  0  0  0  0  0  0  0  0  0  0
   10.4298   14.9993   22.5832 C   0  0  0  0  0  0  0  0  0  0  0  0
   11.4131   15.2995   23.1933 O   0  0  0  0  0  0  0  0  0  0  0  0
   10.4214   15.0893   21.1205 C   0  0  0  0  0  0  0  0  0  0  0  0
   11.4501   14.7688   20.3298 C   0  0  0  0  0  0  0  0  0  0  0  0
   11.0838   14.9639   18.9023 C   0  0  0  0  0  0  0  0  0  0  0  0
    9.8515   15.8501   19.0152 C   0  0  0  0  0  0  0  0  0  0  0  0
    9.2484   15.6001   20.3755 C   0  0  0  0  0  0  0  0  0  0  0  0
    9.0750    9.0300   22.6814 C   0  0  0  0  0  0  0  0  0  0  0  0
    9.9356    8.8636   23.8337 C   0  0  0  0  0  0  0  0  0  0  0  0
  1  2  1  0
  2  3  1  0
  3  4  1  0
  4  5  1  0
  5  6  1  0
  6  7  1  0
  7  8  1  6
  8  9  1  0
  9 10  1  0
 10 11  2  0
 10 12  1  0
 12 13  2  0
 13 14  1  0
 14 15  1  0
 15 16  1  0
  4 17  1  0
 17 18  1  0
  7  2  1  0
 16 12  1  0
 18  4  1  0
M  END
>  <energy_score>  (864) 
-8.112142

>  <inchikey>  (864) 
None

>  <smiles>  (864) 
None

>  <ref_pdb>  (864) 
A3436a

>  <alias>  (864) 
None

>  <HIPPO Pose ID>  (864) 
498508

>  <name>  (864) 
P498508

>  <HIPPO Compound ID>  (864) 
293227

>  <ref_mols>  (864) 
A4320a,A3436a

>  <distance_score>  (864) 
1.804215

>  <inspiration_score>  (864) 
None

$$$$
P498509
     RDKit          3D

 18 19  0  0  0  0  0  0  0  0999 V2000
   10.0188   11.5380   22.9906 C   0  0  0  0  0  0  0  0  0  0  0  0
    8.8227   11.7558   23.7828 N   0  0  0  0  0  0  0  0  0  0  0  0
    8.4461   10.4858   24.4057 C   0  0  0  0  0  0  0  0  0  0  0  0
    7.3341   10.6156   25.4409 C   0  0  0  0  0  0  0  0  0  0  0  0
    6.8805   12.0134   25.8858 C   0  0  0  0  0  0  0  0  0  0  0  0
    7.5938   13.2512   25.2771 C   0  0  0  0  0  0  0  0  0  0  0  0
    7.5857   14.3627   26.3617 C   0  0  0  0  0  0  0  0  0  0  0  0
    6.8206   13.8779   24.0961 C   0  0  0  0  0  0  0  0  0  0  0  0
    9.0026   12.7879   24.8322 C   0  0  2  0  0  0  0  0  0  0  0  0
   10.0344   13.9155   24.6531 C   0  0  0  0  0  0  0  0  0  0  0  0
   10.1365   14.4360   23.3369 N   0  0  0  0  0  0  0  0  0  0  0  0
   11.3681   14.7834   22.4981 C   0  0  0  0  0  0  0  0  0  0  0  0
   12.4951   14.7722   22.7757 O   0  0  0  0  0  0  0  0  0  0  0  0
   10.9105   15.0706   21.1211 C   0  0  0  0  0  0  0  0  0  0  0  0
   11.7194   14.7981   20.0911 C   0  0  0  0  0  0  0  0  0  0  0  0
   11.0658   15.0716   18.7910 C   0  0  0  0  0  0  0  0  0  0  0  0
    9.8599   15.8995   19.2056 C   0  0  0  0  0  0  0  0  0  0  0  0
    9.5854   15.5768   20.6668 C   0  0  0  0  0  0  0  0  0  0  0  0
  1  2  1  0
  2  3  1  0
  3  4  1  0
  4  5  1  0
  5  6  1  0
  6  7  1  0
  6  8  1  0
  6  9  1  0
  9 10  1  6
 10 11  1  0
 11 12  1  0
 12 13  2  0
 12 14  1  0
 14 15  2  0
 15 16  1  0
 16 17  1  0
 17 18  1  0
  9  2  1  0
 18 14  1  0
M  END
>  <energy_score>  (865) 
-11.206068

>  <inchikey>  (865) 
None

>  <smiles>  (865) 
None

>  <ref_pdb>  (865) 
A3436a

>  <alias>  (865) 
None

>  <HIPPO Pose ID>  (865) 
498509

>  <name>  (865) 
P498509

>  <HIPPO Compound ID>  (865) 
293230

>  <ref_mols>  (865) 
A3436a,A4320a

>  <distance_score>  (865) 
1.957259

>  <inspiration_score>  (865) 
None

$$$$
P498510
     RDKit          3D

 18 19  0  0  0  0  0  0  0  0999 V2000
    8.8375   10.3860   23.8304 C   0  0  0  0  0  0  0  0  0  0  0  0
    8.1144   10.7589   25.1460 C   0  0  0  0  0  0  0  0  0  0  0  0
    7.1175    9.6871   25.5470 C   0  0  0  0  0  0  0  0  0  0  0  0
    7.7186   12.1386   25.5393 N   0  0  0  0  0  0  0  0  0  0  0  0
    6.5008   12.2431   26.3593 C   0  0  0  0  0  0  0  0  0  0  0  0
    6.0703   13.6462   26.7503 C   0  0  0  0  0  0  0  0  0  0  0  0
    5.9880   14.5101   25.5154 C   0  0  0  0  0  0  0  0  0  0  0  0
    7.3678   14.5711   24.9038 C   0  0  0  0  0  0  0  0  0  0  0  0
    7.9739   13.1942   24.5638 C   0  0  1  0  0  0  0  0  0  0  0  0
    9.4935   13.4373   24.3986 C   0  0  0  0  0  0  0  0  0  0  0  0
    9.7774   14.0829   23.1547 N   0  0  0  0  0  0  0  0  0  0  0  0
   11.1135   14.5182   22.5401 C   0  0  0  0  0  0  0  0  0  0  0  0
   12.1890   14.4913   22.9794 O   0  0  0  0  0  0  0  0  0  0  0  0
   10.8129   14.9561   21.1508 C   0  0  0  0  0  0  0  0  0  0  0  0
   11.6850   14.7383   20.1607 C   0  0  0  0  0  0  0  0  0  0  0  0
   11.1004   15.0653   18.8352 C   0  0  0  0  0  0  0  0  0  0  0  0
    9.8851   15.8997   19.2050 C   0  0  0  0  0  0  0  0  0  0  0  0
    9.5361   15.5415   20.6396 C   0  0  0  0  0  0  0  0  0  0  0  0
  1  2  1  0
  2  3  1  0
  2  4  1  0
  4  5  1  0
  5  6  1  0
  6  7  1  0
  7  8  1  0
  8  9  1  0
  9 10  1  1
 10 11  1  0
 11 12  1  0
 12 13  2  0
 12 14  1  0
 14 15  2  0
 15 16  1  0
 16 17  1  0
 17 18  1  0
  9  4  1  0
 18 14  1  0
M  END
>  <energy_score>  (866) 
-14.135726

>  <inchikey>  (866) 
None

>  <smiles>  (866) 
None

>  <ref_pdb>  (866) 
A3436a

>  <alias>  (866) 
None

>  <HIPPO Pose ID>  (866) 
498510

>  <name>  (866) 
P498510

>  <HIPPO Compound ID>  (866) 
293231

>  <ref_mols>  (866) 
A3436a,A4320a

>  <distance_score>  (866) 
1.807667

>  <inspiration_score>  (866) 
None

$$$$
P498511
     RDKit          3D

 18 18  0  0  0  0  0  0  0  0999 V2000
    9.1087   15.8321   18.7240 C   0  0  0  0  0  0  0  0  0  0  0  0
   10.5111   15.4553   18.8914 C   0  0  0  0  0  0  0  0  0  0  0  0
   10.7683   15.3406   20.3603 C   0  0  0  0  0  0  0  0  0  0  0  0
    9.8552   16.0106   21.3417 C   0  0  0  0  0  0  0  0  0  0  0  0
   11.8416   14.6430   20.7284 C   0  0  0  0  0  0  0  0  0  0  0  0
   12.7399   14.0446   19.7546 C   0  0  0  0  0  0  0  0  0  0  0  0
   12.1243   14.5000   22.1564 C   0  0  0  0  0  0  0  0  0  0  0  0
   12.8093   15.2128   22.7518 O   0  0  0  0  0  0  0  0  0  0  0  0
   11.2702   13.3381   22.6238 N   0  0  0  0  0  0  0  0  0  0  0  0
   10.9994   12.8596   23.9337 C   0  0  0  0  0  0  0  0  0  0  0  0
    9.5053   12.5085   24.0699 C   0  0  2  0  0  0  0  0  0  0  0  0
    8.8888   13.4928   25.0779 C   0  0  0  0  0  0  0  0  0  0  0  0
    7.5290   13.0873   25.6075 C   0  0  0  0  0  0  0  0  0  0  0  0
    7.1126   11.7570   25.0529 C   0  0  0  0  0  0  0  0  0  0  0  0
    8.1730   10.7055   25.1269 C   0  0  0  0  0  0  0  0  0  0  0  0
    9.3664   11.0769   24.3898 N   0  0  0  0  0  0  0  0  0  0  0  0
    9.5521   10.2406   23.2098 C   0  0  0  0  0  0  0  0  0  0  0  0
    9.8934    8.7869   23.4456 C   0  0  0  0  0  0  0  0  0  0  0  0
  1  2  1  0
  2  3  1  0
  3  4  1  0
  3  5  2  0
  5  6  1  0
  5  7  1  0
  7  8  2  0
  7  9  1  0
  9 10  1  0
 11 10  1  1
 11 12  1  0
 12 13  1  0
 13 14  1  0
 14 15  1  0
 15 16  1  0
 16 17  1  0
 17 18  1  0
 16 11  1  0
M  END
>  <energy_score>  (867) 
-14.183308

>  <inchikey>  (867) 
None

>  <smiles>  (867) 
None

>  <ref_pdb>  (867) 
A3436a

>  <alias>  (867) 
None

>  <HIPPO Pose ID>  (867) 
498511

>  <name>  (867) 
P498511

>  <HIPPO Compound ID>  (867) 
293240

>  <ref_mols>  (867) 
A4320a,A3436a

>  <distance_score>  (867) 
1.928576

>  <inspiration_score>  (867) 
None

$$$$
P498512
     RDKit          3D

 18 18  0  0  0  0  0  0  0  0999 V2000
    9.3778   17.2553   19.8330 C   0  0  0  0  0  0  0  0  0  0  0  0
    9.9138   15.8572   19.6037 C   0  0  0  0  0  0  0  0  0  0  0  0
    9.9240   15.1678   20.9390 C   0  0  0  0  0  0  0  0  0  0  0  0
    8.5386   14.8816   21.4661 C   0  0  0  0  0  0  0  0  0  0  0  0
   11.0622   14.9363   21.6295 C   0  0  0  0  0  0  0  0  0  0  0  0
   12.4608   15.1817   21.2189 C   0  0  0  0  0  0  0  0  0  0  0  0
   11.0013   14.2335   22.9251 C   0  0  0  0  0  0  0  0  0  0  0  0
   11.1955   14.7004   23.9684 O   0  0  0  0  0  0  0  0  0  0  0  0
   10.5924   12.8173   22.5358 N   0  0  0  0  0  0  0  0  0  0  0  0
   10.2476   11.7114   23.3367 C   0  0  0  0  0  0  0  0  0  0  0  0
    8.8027   11.7432   23.8092 C   0  0  2  0  0  0  0  0  0  0  0  0
    8.6347   12.8395   24.8606 C   0  0  0  0  0  0  0  0  0  0  0  0
    7.2260   12.9073   25.3924 C   0  0  0  0  0  0  0  0  0  0  0  0
    6.7611   11.5829   25.9415 C   0  0  0  0  0  0  0  0  0  0  0  0
    7.5782   10.3999   25.4759 C   0  0  0  0  0  0  0  0  0  0  0  0
    8.2278   10.4354   24.1766 N   0  0  0  0  0  0  0  0  0  0  0  0
    9.0826    9.2454   24.0626 C   0  0  0  0  0  0  0  0  0  0  0  0
    9.3029    8.5467   22.7492 C   0  0  0  0  0  0  0  0  0  0  0  0
  1  2  1  0
  2  3  1  0
  3  4  1  0
  3  5  2  0
  5  6  1  0
  5  7  1  0
  7  8  2  0
  7  9  1  0
  9 10  1  0
 11 10  1  1
 11 12  1  0
 12 13  1  0
 13 14  1  0
 14 15  1  0
 15 16  1  0
 16 17  1  0
 17 18  1  0
 16 11  1  0
M  END
>  <energy_score>  (868) 
-36.307179

>  <inchikey>  (868) 
None

>  <smiles>  (868) 
None

>  <ref_pdb>  (868) 
A3436a

>  <alias>  (868) 
None

>  <HIPPO Pose ID>  (868) 
498512

>  <name>  (868) 
P498512

>  <HIPPO Compound ID>  (868) 
293240

>  <ref_mols>  (868) 
A3436a,A4320a

>  <distance_score>  (868) 
1.987392

>  <inspiration_score>  (868) 
None

$$$$
P498513
     RDKit          3D

 18 20  0  0  0  0  0  0  0  0999 V2000
   11.0919   14.2842   19.4190 C   0  0  0  0  0  0  0  0  0  0  0  0
   10.2708   14.0578   20.6487 N   0  0  0  0  0  0  0  0  0  0  0  0
    9.3479   15.1447   20.8590 C   0  0  0  0  0  0  0  0  0  0  0  0
   10.1362   16.4195   20.9796 C   0  0  0  0  0  0  0  0  0  0  0  0
   11.5477   16.1526   21.5822 C   0  0  0  0  0  0  0  0  0  0  0  0
   11.5436   15.0456   22.5871 C   0  0  0  0  0  0  0  0  0  0  0  0
   11.1079   13.7806   21.8626 C   0  0  1  0  0  0  0  0  0  0  0  0
   10.5261   12.7723   22.8901 C   0  0  0  0  0  0  0  0  0  0  0  0
    9.4345   13.2107   23.7315 N   0  0  0  0  0  0  0  0  0  0  0  0
    9.4472   13.9509   25.0838 C   0  0  0  0  0  0  0  0  0  0  0  0
   10.3364   14.3921   25.6955 O   0  0  0  0  0  0  0  0  0  0  0  0
    8.0458   13.9284   25.5785 C   0  0  0  0  0  0  0  0  0  0  0  0
    7.4330   14.6229   26.5563 C   0  0  0  0  0  0  0  0  0  0  0  0
    6.1753   13.7675   26.4892 C   0  0  2  0  0  0  0  0  0  0  0  0
    5.9774   12.7155   27.5836 C   0  0  0  0  0  0  0  0  0  0  0  0
    5.9733   11.3926   26.8298 C   0  0  0  0  0  0  0  0  0  0  0  0
    7.0439   11.5732   25.7666 C   0  0  0  0  0  0  0  0  0  0  0  0
    6.8789   13.0273   25.3275 C   0  0  2  0  0  0  0  0  0  0  0  0
  1  2  1  0
  2  3  1  0
  3  4  1  0
  4  5  1  0
  5  6  1  0
  6  7  1  0
  7  8  1  1
  8  9  1  0
  9 10  1  0
 10 11  2  0
 10 12  1  0
 12 13  2  0
 13 14  1  0
 14 15  1  1
 15 16  1  0
 16 17  1  0
 18 17  1  1
  7  2  1  0
 18 12  1  0
 18 14  1  0
M  END
>  <energy_score>  (869) 
-6.873443

>  <inchikey>  (869) 
None

>  <smiles>  (869) 
None

>  <ref_pdb>  (869) 
A3436a

>  <alias>  (869) 
None

>  <HIPPO Pose ID>  (869) 
498513

>  <name>  (869) 
P498513

>  <HIPPO Compound ID>  (869) 
293256

>  <ref_mols>  (869) 
A3436a,A4320a

>  <distance_score>  (869) 
1.656906

>  <inspiration_score>  (869) 
None

$$$$
P498514
     RDKit          3D

 18 20  0  0  0  0  0  0  0  0999 V2000
    9.4030   15.7953   19.3644 O   0  0  0  0  0  0  0  0  0  0  0  0
   10.0877   15.1191   20.1216 C   0  0  0  0  0  0  0  0  0  0  0  0
   11.5377   14.8746   19.8797 C   0  0  0  0  0  0  0  0  0  0  0  0
   12.2868   15.1680   21.1624 C   0  0  0  0  0  0  0  0  0  0  0  0
   11.8588   14.1598   22.1997 C   0  0  0  0  0  0  0  0  0  0  0  0
   10.3608   14.3011   22.4548 C   0  0  2  0  0  0  0  0  0  0  0  0
    9.8819   13.1060   23.2892 C   0  0  0  0  0  0  0  0  0  0  0  0
    8.8095   13.4379   24.1913 N   0  0  0  0  0  0  0  0  0  0  0  0
    8.8273   14.1994   25.5269 C   0  0  0  0  0  0  0  0  0  0  0  0
    9.6987   14.7460   26.0725 O   0  0  0  0  0  0  0  0  0  0  0  0
    7.4734   14.0330   26.1094 C   0  0  0  0  0  0  0  0  0  0  0  0
    6.9005   14.6232   27.1743 C   0  0  0  0  0  0  0  0  0  0  0  0
    5.7198   13.6663   27.1699 C   0  0  2  0  0  0  0  0  0  0  0  0
    5.7306   12.5177   28.1798 C   0  0  0  0  0  0  0  0  0  0  0  0
    5.7142   11.2653   27.3145 C   0  0  0  0  0  0  0  0  0  0  0  0
    6.6472   11.6077   26.1682 C   0  0  0  0  0  0  0  0  0  0  0  0
    6.3414   13.0782   25.8833 C   0  0  2  0  0  0  0  0  0  0  0  0
    9.5629   14.5116   21.2388 N   0  0  0  0  0  0  0  0  0  0  0  0
  1  2  2  0
  2  3  1  0
  3  4  1  0
  4  5  1  0
  5  6  1  0
  6  7  1  6
  7  8  1  0
  8  9  1  0
  9 10  2  0
  9 11  1  0
 11 12  2  0
 12 13  1  0
 13 14  1  1
 14 15  1  0
 15 16  1  0
 17 16  1  1
  6 18  1  0
 18  2  1  0
 17 11  1  0
 17 13  1  0
M  END
>  <energy_score>  (870) 
-22.817848

>  <inchikey>  (870) 
None

>  <smiles>  (870) 
None

>  <ref_pdb>  (870) 
A3436a

>  <alias>  (870) 
None

>  <HIPPO Pose ID>  (870) 
498514

>  <name>  (870) 
P498514

>  <HIPPO Compound ID>  (870) 
293258

>  <ref_mols>  (870) 
A4320a,A3436a

>  <distance_score>  (870) 
1.776564

>  <inspiration_score>  (870) 
None

$$$$
P498515
     RDKit          3D

 18 20  0  0  0  0  0  0  0  0999 V2000
   11.2676   15.1699   19.0351 O   0  0  0  0  0  0  0  0  0  0  0  0
   11.1251   14.9142   20.2238 C   0  0  0  0  0  0  0  0  0  0  0  0
   12.0755   15.3325   21.3048 C   0  0  0  0  0  0  0  0  0  0  0  0
   12.0644   14.3332   22.4417 C   0  0  0  0  0  0  0  0  0  0  0  0
   10.6818   14.3351   23.0493 C   0  0  0  0  0  0  0  0  0  0  0  0
    9.6354   13.9466   22.0095 C   0  0  1  0  0  0  0  0  0  0  0  0
    8.2461   14.5892   22.1861 C   0  0  0  0  0  0  0  0  0  0  0  0
    7.6117   14.3863   23.4588 N   0  0  0  0  0  0  0  0  0  0  0  0
    7.7698   13.2595   24.4793 C   0  0  0  0  0  0  0  0  0  0  0  0
    8.4949   12.3513   24.4928 O   0  0  0  0  0  0  0  0  0  0  0  0
    6.8203   13.4927   25.5955 C   0  0  0  0  0  0  0  0  0  0  0  0
    5.6886   14.2097   25.7479 C   0  0  0  0  0  0  0  0  0  0  0  0
    5.4371   13.6561   27.1427 C   0  0  1  0  0  0  0  0  0  0  0  0
    4.2939   12.6689   27.3729 C   0  0  0  0  0  0  0  0  0  0  0  0
    4.9875   11.3599   27.7516 C   0  0  0  0  0  0  0  0  0  0  0  0
    6.1642   11.3260   26.8029 C   0  0  0  0  0  0  0  0  0  0  0  0
    6.6669   12.7600   26.8877 C   0  0  1  0  0  0  0  0  0  0  0  0
   10.0554   14.1956   20.6376 N   0  0  0  0  0  0  0  0  0  0  0  0
  1  2  2  0
  2  3  1  0
  3  4  1  0
  4  5  1  0
  5  6  1  0
  6  7  1  1
  7  8  1  0
  8  9  1  0
  9 10  2  0
  9 11  1  0
 11 12  2  0
 12 13  1  0
 13 14  1  6
 14 15  1  0
 15 16  1  0
 17 16  1  6
  6 18  1  0
 18  2  1  0
 17 11  1  0
 17 13  1  0
M  END
>  <energy_score>  (871) 
-2.50671

>  <inchikey>  (871) 
None

>  <smiles>  (871) 
None

>  <ref_pdb>  (871) 
A3436a

>  <alias>  (871) 
None

>  <HIPPO Pose ID>  (871) 
498515

>  <name>  (871) 
P498515

>  <HIPPO Compound ID>  (871) 
293258

>  <ref_mols>  (871) 
A3436a,A4320a

>  <distance_score>  (871) 
1.906436

>  <inspiration_score>  (871) 
None

$$$$
P498516
     RDKit          3D

 18 19  0  0  0  0  0  0  0  0999 V2000
    5.6564   11.0664   27.5775 C   0  0  0  0  0  0  0  0  0  0  0  0
    6.3008   11.2764   26.2009 C   0  0  2  0  0  0  0  0  0  0  0  0
    7.1717   10.1142   25.7741 C   0  0  0  0  0  0  0  0  0  0  0  0
    8.2009   10.3358   24.6919 C   0  0  0  0  0  0  0  0  0  0  0  0
    8.9303   11.5816   24.8498 N   0  0  0  0  0  0  0  0  0  0  0  0
    9.8654   11.6589   23.7182 C   0  0  0  0  0  0  0  0  0  0  0  0
    8.0022   12.7318   24.9337 C   0  0  2  0  0  0  0  0  0  0  0  0
    8.7123   14.0879   25.1129 C   0  0  0  0  0  0  0  0  0  0  0  0
    9.2800   14.5091   23.8774 N   0  0  0  0  0  0  0  0  0  0  0  0
   10.7440   14.6611   23.4555 C   0  0  0  0  0  0  0  0  0  0  0  0
   11.7220   14.5410   24.0717 O   0  0  0  0  0  0  0  0  0  0  0  0
   10.6549   14.9107   22.0104 C   0  0  0  0  0  0  0  0  0  0  0  0
   11.5241   15.5075   21.1924 C   0  0  0  0  0  0  0  0  0  0  0  0
   10.6139   15.3360   19.9679 C   0  0  0  0  0  0  0  0  0  0  0  0
    9.7328   16.4929   19.5162 C   0  0  0  0  0  0  0  0  0  0  0  0
   11.3302   14.6669   18.8064 C   0  0  0  0  0  0  0  0  0  0  0  0
    9.7385   14.4846   20.9116 C   0  0  0  0  0  0  0  0  0  0  0  0
    7.0180   12.6083   26.1103 C   0  0  0  0  0  0  0  0  0  0  0  0
  2  1  1  1
  2  3  1  0
  3  4  1  0
  4  5  1  0
  5  6  1  0
  5  7  1  0
  7  8  1  1
  8  9  1  0
  9 10  1  0
 10 11  2  0
 10 12  1  0
 12 13  2  0
 13 14  1  0
 14 15  1  0
 14 16  1  0
 14 17  1  0
  7 18  1  0
 18  2  1  0
 17 12  1  0
M  END
>  <energy_score>  (872) 
-30.369072

>  <inchikey>  (872) 
None

>  <smiles>  (872) 
None

>  <ref_pdb>  (872) 
A3436a

>  <alias>  (872) 
None

>  <HIPPO Pose ID>  (872) 
498516

>  <name>  (872) 
P498516

>  <HIPPO Compound ID>  (872) 
293286

>  <ref_mols>  (872) 
A3436a,A4320a

>  <distance_score>  (872) 
1.816034

>  <inspiration_score>  (872) 
None

$$$$
P498517
     RDKit          3D

 18 19  0  0  0  0  0  0  0  0999 V2000
    9.9199   11.5844   23.7496 C   0  0  0  0  0  0  0  0  0  0  0  0
    8.9234   11.5870   24.8375 N   0  0  0  0  0  0  0  0  0  0  0  0
    8.1908   10.3356   24.7242 C   0  0  0  0  0  0  0  0  0  0  0  0
    7.0086   10.2074   25.6582 C   0  0  0  0  0  0  0  0  0  0  0  0
    6.5856   11.4433   26.4081 C   0  0  2  0  0  0  0  0  0  0  0  0
    5.2180   11.3303   26.8089 O   0  0  0  0  0  0  0  0  0  0  0  0
    6.8585   12.7592   25.7358 C   0  0  0  0  0  0  0  0  0  0  0  0
    8.0338   12.7625   24.7608 C   0  0  1  0  0  0  0  0  0  0  0  0
    8.7854   14.0848   25.0047 C   0  0  0  0  0  0  0  0  0  0  0  0
    9.3743   14.5036   23.7866 N   0  0  0  0  0  0  0  0  0  0  0  0
   10.8416   14.6285   23.3854 C   0  0  0  0  0  0  0  0  0  0  0  0
   11.8084   14.4822   24.0113 O   0  0  0  0  0  0  0  0  0  0  0  0
   10.7469   14.8913   21.9483 C   0  0  0  0  0  0  0  0  0  0  0  0
   11.6065   15.4818   21.1195 C   0  0  0  0  0  0  0  0  0  0  0  0
   10.6621   15.3349   19.9151 C   0  0  0  0  0  0  0  0  0  0  0  0
    9.7730   16.4986   19.4970 C   0  0  0  0  0  0  0  0  0  0  0  0
   11.3452   14.6682   18.7359 C   0  0  0  0  0  0  0  0  0  0  0  0
    9.7958   14.4900   20.8682 C   0  0  0  0  0  0  0  0  0  0  0  0
  1  2  1  0
  2  3  1  0
  3  4  1  0
  4  5  1  0
  5  6  1  6
  5  7  1  0
  7  8  1  0
  8  9  1  1
  9 10  1  0
 10 11  1  0
 11 12  2  0
 11 13  1  0
 13 14  2  0
 14 15  1  0
 15 16  1  0
 15 17  1  0
 15 18  1  0
  8  2  1  0
 18 13  1  0
M  END
>  <energy_score>  (873) 
-30.074798

>  <inchikey>  (873) 
None

>  <smiles>  (873) 
None

>  <ref_pdb>  (873) 
A3436a

>  <alias>  (873) 
None

>  <HIPPO Pose ID>  (873) 
498517

>  <name>  (873) 
P498517

>  <HIPPO Compound ID>  (873) 
293292

>  <ref_mols>  (873) 
A4320a,A3436a

>  <distance_score>  (873) 
1.780434

>  <inspiration_score>  (873) 
None

$$$$
P498518
     RDKit          3D

 18 19  0  0  0  0  0  0  0  0999 V2000
    9.3194    9.4799   23.3136 C   0  0  0  0  0  0  0  0  0  0  0  0
    8.3341   10.3626   23.9448 N   0  0  0  0  0  0  0  0  0  0  0  0
    7.9719    9.8966   25.2453 C   0  0  0  0  0  0  0  0  0  0  0  0
    6.7778   10.5547   25.8787 C   0  0  0  0  0  0  0  0  0  0  0  0
    6.7995   12.0669   25.7954 C   0  0  1  0  0  0  0  0  0  0  0  0
    7.2172   12.5893   27.0603 O   0  0  0  0  0  0  0  0  0  0  0  0
    7.6315   12.6895   24.6768 C   0  0  0  0  0  0  0  0  0  0  0  0
    8.6341   11.7798   23.9358 C   0  0  1  0  0  0  0  0  0  0  0  0
   10.0831   12.1657   24.2339 C   0  0  0  0  0  0  0  0  0  0  0  0
   10.4288   13.0684   23.2214 N   0  0  0  0  0  0  0  0  0  0  0  0
   11.0375   14.4414   23.3002 C   0  0  0  0  0  0  0  0  0  0  0  0
   11.4305   15.0363   24.2088 O   0  0  0  0  0  0  0  0  0  0  0  0
   10.9022   14.8529   21.9070 C   0  0  0  0  0  0  0  0  0  0  0  0
   11.6566   15.5978   21.1123 C   0  0  0  0  0  0  0  0  0  0  0  0
   10.6819   15.4514   19.9234 C   0  0  0  0  0  0  0  0  0  0  0  0
    9.7731   16.6025   19.5207 C   0  0  0  0  0  0  0  0  0  0  0  0
   11.3277   14.7513   18.7371 C   0  0  0  0  0  0  0  0  0  0  0  0
    9.8308   14.6115   20.8834 C   0  0  0  0  0  0  0  0  0  0  0  0
  1  2  1  0
  2  3  1  0
  3  4  1  0
  4  5  1  0
  5  6  1  1
  5  7  1  0
  7  8  1  0
  8  9  1  1
  9 10  1  0
 10 11  1  0
 11 12  2  0
 11 13  1  0
 13 14  2  0
 14 15  1  0
 15 16  1  0
 15 17  1  0
 15 18  1  0
  8  2  1  0
 18 13  1  0
M  END
>  <energy_score>  (874) 
-12.794961

>  <inchikey>  (874) 
None

>  <smiles>  (874) 
None

>  <ref_pdb>  (874) 
A3436a

>  <alias>  (874) 
None

>  <HIPPO Pose ID>  (874) 
498518

>  <name>  (874) 
P498518

>  <HIPPO Compound ID>  (874) 
293292

>  <ref_mols>  (874) 
A3436a,A4320a

>  <distance_score>  (874) 
1.746563

>  <inspiration_score>  (874) 
None

$$$$
P498519
     RDKit          3D

 18 19  0  0  0  0  0  0  0  0999 V2000
    6.1980   10.5628   26.3236 C   0  0  0  0  0  0  0  0  0  0  0  0
    7.1522   11.0356   25.2388 C   0  0  2  0  0  0  0  0  0  0  0  0
    8.2798   10.0805   24.9208 C   0  0  0  0  0  0  0  0  0  0  0  0
    9.3120   10.6058   23.9369 C   0  0  0  0  0  0  0  0  0  0  0  0
    9.6645   11.9431   24.4205 N   0  0  0  0  0  0  0  0  0  0  0  0
   10.9369   12.4261   23.9324 C   0  0  0  0  0  0  0  0  0  0  0  0
    8.5269   12.8572   24.2876 C   0  0  2  0  0  0  0  0  0  0  0  0
    8.8347   14.3486   24.3539 C   0  0  0  0  0  0  0  0  0  0  0  0
    9.2934   14.7572   23.0564 N   0  0  0  0  0  0  0  0  0  0  0  0
   10.7150   15.0960   22.5555 C   0  0  0  0  0  0  0  0  0  0  0  0
   11.7224   15.1705   23.1362 O   0  0  0  0  0  0  0  0  0  0  0  0
   10.6168   15.2303   21.0945 C   0  0  0  0  0  0  0  0  0  0  0  0
   11.5849   14.7953   20.2839 C   0  0  0  0  0  0  0  0  0  0  0  0
   11.1795   14.8857   18.8595 C   0  0  0  0  0  0  0  0  0  0  0  0
   10.0045   15.8236   18.9379 C   0  0  0  0  0  0  0  0  0  0  0  0
    9.4421   15.7315   20.3377 C   0  0  2  0  0  0  0  0  0  0  0  0
    8.9231   17.0899   20.7685 C   0  0  0  0  0  0  0  0  0  0  0  0
    7.5256   12.4960   25.3785 C   0  0  0  0  0  0  0  0  0  0  0  0
  2  1  1  1
  2  3  1  0
  3  4  1  0
  4  5  1  0
  5  6  1  0
  5  7  1  0
  7  8  1  1
  8  9  1  0
  9 10  1  0
 10 11  2  0
 10 12  1  0
 12 13  2  0
 13 14  1  0
 14 15  1  0
 15 16  1  0
 16 17  1  1
  7 18  1  0
 18  2  1  0
 16 12  1  0
M  END
>  <energy_score>  (875) 
-17.324101

>  <inchikey>  (875) 
None

>  <smiles>  (875) 
None

>  <ref_pdb>  (875) 
A3436a

>  <alias>  (875) 
None

>  <HIPPO Pose ID>  (875) 
498519

>  <name>  (875) 
P498519

>  <HIPPO Compound ID>  (875) 
293310

>  <ref_mols>  (875) 
A3436a,A4320a

>  <distance_score>  (875) 
1.764417

>  <inspiration_score>  (875) 
None

$$$$
P498520
     RDKit          3D

 18 20  0  0  0  0  0  0  0  0999 V2000
   10.1859    9.0532   23.4749 C   0  0  0  0  0  0  0  0  0  0  0  0
    9.3408    9.8642   24.3668 N   0  0  0  0  0  0  0  0  0  0  0  0
    8.1470    9.0989   24.5564 C   0  0  0  0  0  0  0  0  0  0  0  0
    7.1047    9.7685   25.4401 C   0  0  0  0  0  0  0  0  0  0  0  0
    7.1969   11.2592   25.6196 C   0  0  0  0  0  0  0  0  0  0  0  0
    7.9254   11.9883   24.5312 C   0  0  0  0  0  0  0  0  0  0  0  0
    9.0956   11.2143   23.8824 C   0  0  1  0  0  0  0  0  0  0  0  0
   10.3094   12.1147   24.0191 C   0  0  0  0  0  0  0  0  0  0  0  0
   10.1299   13.1962   23.1454 N   0  0  0  0  0  0  0  0  0  0  0  0
   10.7298   14.5753   23.1597 C   0  0  0  0  0  0  0  0  0  0  0  0
   11.4158   15.0853   23.9337 O   0  0  0  0  0  0  0  0  0  0  0  0
   10.1457   15.1751   21.9744 C   0  0  0  0  0  0  0  0  0  0  0  0
    8.8432   15.2592   21.6384 C   0  0  0  0  0  0  0  0  0  0  0  0
    8.7949   16.1395   20.4223 C   0  0  2  0  0  0  0  0  0  0  0  0
    9.5122   15.4777   19.2608 C   0  0  0  0  0  0  0  0  0  0  0  0
   10.7889   15.2548   19.6258 C   0  0  0  0  0  0  0  0  0  0  0  0
   10.9425   15.9113   20.9828 C   0  0  1  0  0  0  0  0  0  0  0  0
    9.9398   17.0532   20.7304 C   0  0  0  0  0  0  0  0  0  0  0  0
  1  2  1  0
  2  3  1  0
  3  4  1  0
  4  5  1  0
  5  6  1  0
  6  7  1  0
  7  8  1  1
  8  9  1  0
  9 10  1  0
 10 11  2  0
 10 12  1  0
 12 13  2  0
 14 13  1  1
 14 15  1  0
 15 16  2  0
 17 16  1  6
 17 18  1  0
  7  2  1  0
 17 12  1  0
 18 14  1  0
M  END
>  <energy_score>  (876) 
-13.497912

>  <inchikey>  (876) 
None

>  <smiles>  (876) 
None

>  <ref_pdb>  (876) 
A3436a

>  <alias>  (876) 
None

>  <HIPPO Pose ID>  (876) 
498520

>  <name>  (876) 
P498520

>  <HIPPO Compound ID>  (876) 
293320

>  <ref_mols>  (876) 
A4320a,A3436a

>  <distance_score>  (876) 
1.606669

>  <inspiration_score>  (876) 
None

$$$$
P498521
     RDKit          3D

 18 19  0  0  0  0  0  0  0  0999 V2000
    9.2955    8.4933   23.2496 C   0  0  0  0  0  0  0  0  0  0  0  0
    9.6592    9.9556   23.4031 C   0  0  0  0  0  0  0  0  0  0  0  0
    8.6603   10.8585   23.9765 N   0  0  0  0  0  0  0  0  0  0  0  0
    7.9032   10.2544   25.0707 C   0  0  0  0  0  0  0  0  0  0  0  0
    6.8990   11.1684   25.7662 C   0  0  0  0  0  0  0  0  0  0  0  0
    7.0604   12.6782   25.5718 C   0  0  0  0  0  0  0  0  0  0  0  0
    8.0691   13.1131   24.5086 C   0  0  0  0  0  0  0  0  0  0  0  0
    9.2179   12.1213   24.5032 C   0  0  2  0  0  0  0  0  0  0  0  0
   10.5831   12.6701   24.0943 C   0  0  0  0  0  0  0  0  0  0  0  0
   10.6716   13.4084   22.9025 N   0  0  0  0  0  0  0  0  0  0  0  0
   11.3572   14.7344   22.6101 C   0  0  0  0  0  0  0  0  0  0  0  0
   12.0242   15.3971   23.2816 O   0  0  0  0  0  0  0  0  0  0  0  0
   10.9320   15.1239   21.2754 C   0  0  0  0  0  0  0  0  0  0  0  0
   11.6014   14.7155   20.1911 C   0  0  0  0  0  0  0  0  0  0  0  0
   11.0166   14.9658   18.8396 C   0  0  0  0  0  0  0  0  0  0  0  0
    9.7347   15.7896   18.9288 C   0  0  0  0  0  0  0  0  0  0  0  0
    8.9474   15.4232   20.0590 O   0  0  0  0  0  0  0  0  0  0  0  0
    9.6191   15.8159   21.2406 C   0  0  0  0  0  0  0  0  0  0  0  0
  1  2  1  0
  2  3  1  0
  3  4  1  0
  4  5  1  0
  5  6  1  0
  6  7  1  0
  7  8  1  0
  8  9  1  6
  9 10  1  0
 10 11  1  0
 11 12  2  0
 11 13  1  0
 13 14  2  0
 14 15  1  0
 15 16  1  0
 16 17  1  0
 17 18  1  0
  8  3  1  0
 18 13  1  0
M  END
>  <energy_score>  (877) 
-11.900742

>  <inchikey>  (877) 
None

>  <smiles>  (877) 
None

>  <ref_pdb>  (877) 
A3436a

>  <alias>  (877) 
None

>  <HIPPO Pose ID>  (877) 
498521

>  <name>  (877) 
P498521

>  <HIPPO Compound ID>  (877) 
293333

>  <ref_mols>  (877) 
A4320a,A3436a

>  <distance_score>  (877) 
1.980518

>  <inspiration_score>  (877) 
None

$$$$
P498522
     RDKit          3D

 18 19  0  0  0  0  0  0  0  0999 V2000
    9.9563   11.3649   23.0940 C   0  0  0  0  0  0  0  0  0  0  0  0
    8.7277   11.4688   23.8429 N   0  0  0  0  0  0  0  0  0  0  0  0
    8.4122   10.1647   24.4250 C   0  0  0  0  0  0  0  0  0  0  0  0
    7.3155   10.2060   25.4963 C   0  0  0  0  0  0  0  0  0  0  0  0
    6.6805   11.5475   25.8748 C   0  0  1  0  0  0  0  0  0  0  0  0
    6.7354   11.6997   27.3081 O   0  0  0  0  0  0  0  0  0  0  0  0
    7.3165   12.7798   25.2576 C   0  0  0  0  0  0  0  0  0  0  0  0
    8.7637   12.4847   24.9023 C   0  0  2  0  0  0  0  0  0  0  0  0
    9.5971   13.7804   24.8452 C   0  0  0  0  0  0  0  0  0  0  0  0
    9.7901   14.3368   23.5567 N   0  0  0  0  0  0  0  0  0  0  0  0
    8.7775   14.6585   22.4463 C   0  0  0  0  0  0  0  0  0  0  0  0
    7.6363   14.4477   22.3830 O   0  0  0  0  0  0  0  0  0  0  0  0
    9.5636   15.2372   21.3405 C   0  0  0  0  0  0  0  0  0  0  0  0
   10.5937   14.5154   20.8794 C   0  0  0  0  0  0  0  0  0  0  0  0
   11.2815   14.8909   19.6348 C   0  0  0  0  0  0  0  0  0  0  0  0
   10.3915   15.8055   18.8275 C   0  0  0  0  0  0  0  0  0  0  0  0
    9.8577   16.8913   19.5815 O   0  0  0  0  0  0  0  0  0  0  0  0
    9.1042   16.5140   20.7319 C   0  0  0  0  0  0  0  0  0  0  0  0
  1  2  1  0
  2  3  1  0
  3  4  1  0
  4  5  1  0
  5  6  1  1
  5  7  1  0
  7  8  1  0
  8  9  1  6
  9 10  1  0
 10 11  1  0
 11 12  2  0
 11 13  1  0
 13 14  2  0
 14 15  1  0
 15 16  1  0
 16 17  1  0
 17 18  1  0
  8  2  1  0
 18 13  1  0
M  END
>  <energy_score>  (878) 
-2.772713

>  <inchikey>  (878) 
None

>  <smiles>  (878) 
None

>  <ref_pdb>  (878) 
A3436a

>  <alias>  (878) 
None

>  <HIPPO Pose ID>  (878) 
498522

>  <name>  (878) 
P498522

>  <HIPPO Compound ID>  (878) 
293334

>  <ref_mols>  (878) 
A3436a,A4320a

>  <distance_score>  (878) 
1.937491

>  <inspiration_score>  (878) 
None

$$$$
P498523
     RDKit          3D

 18 19  0  0  0  0  0  0  0  0999 V2000
   10.0006   11.3608   23.5771 C   0  0  0  0  0  0  0  0  0  0  0  0
    9.0491   11.3714   24.6928 N   0  0  0  0  0  0  0  0  0  0  0  0
    8.2900   10.1437   24.5910 C   0  0  0  0  0  0  0  0  0  0  0  0
    7.2273   10.0365   25.6543 C   0  0  0  0  0  0  0  0  0  0  0  0
    6.4724   11.2613   26.1065 C   0  0  0  0  0  0  0  0  0  0  0  0
    7.1760   12.5722   25.8553 C   0  0  0  0  0  0  0  0  0  0  0  0
    8.1873   12.5580   24.7116 C   0  0  1  0  0  0  0  0  0  0  0  0
    9.0261   13.8432   24.8065 C   0  0  0  0  0  0  0  0  0  0  0  0
    9.4401   14.1808   23.4855 N   0  0  0  0  0  0  0  0  0  0  0  0
   10.8533   14.4445   22.9115 C   0  0  0  0  0  0  0  0  0  0  0  0
   11.8870   14.5016   23.4467 O   0  0  0  0  0  0  0  0  0  0  0  0
   10.6821   14.7224   21.4476 C   0  0  0  0  0  0  0  0  0  0  0  0
   11.7245   14.4635   20.5294 C   0  0  0  0  0  0  0  0  0  0  0  0
   12.4751   14.2405   19.6750 N   0  0  0  0  0  0  0  0  0  0  0  0
    9.5777   15.3894   21.0756 C   0  0  0  0  0  0  0  0  0  0  0  0
    9.2835   16.0846   19.8443 C   0  0  0  0  0  0  0  0  0  0  0  0
    8.3770   17.3202   19.9633 C   0  0  0  0  0  0  0  0  0  0  0  0
    9.8189   17.4521   19.9011 C   0  0  0  0  0  0  0  0  0  0  0  0
  1  2  1  0
  2  3  1  0
  3  4  1  0
  4  5  1  0
  5  6  1  0
  6  7  1  0
  7  8  1  1
  8  9  1  0
  9 10  1  0
 10 11  2  0
 10 12  1  0
 12 13  1  0
 13 14  3  0
 12 15  2  0
 15 16  1  0
 16 17  1  0
 17 18  1  0
  7  2  1  0
 18 16  1  0
M  END
>  <energy_score>  (879) 
-46.682478

>  <inchikey>  (879) 
None

>  <smiles>  (879) 
None

>  <ref_pdb>  (879) 
A3436a

>  <alias>  (879) 
None

>  <HIPPO Pose ID>  (879) 
498523

>  <name>  (879) 
P498523

>  <HIPPO Compound ID>  (879) 
293335

>  <ref_mols>  (879) 
A4320a,A3436a

>  <distance_score>  (879) 
1.857149

>  <inspiration_score>  (879) 
None

$$$$
P498524
     RDKit          3D

 18 18  0  0  0  0  0  0  0  0999 V2000
   11.1039   14.2653   22.9935 C   0  0  0  0  0  0  0  0  0  0  0  0
    9.7003   13.8599   22.5718 C   0  0  0  0  0  0  0  0  0  0  0  0
    8.7944   13.7673   23.7554 C   0  0  0  0  0  0  0  0  0  0  0  0
    8.3511   12.7184   24.4740 C   0  0  0  0  0  0  0  0  0  0  0  0
    8.5592   11.2180   24.3818 C   0  0  0  0  0  0  0  0  0  0  0  0
    9.5646   10.6378   23.4125 C   0  0  0  0  0  0  0  0  0  0  0  0
    9.5755    9.1129   23.3838 C   0  0  0  0  0  0  0  0  0  0  0  0
    7.6723   13.1508   25.7583 C   0  0  0  0  0  0  0  0  0  0  0  0
    8.1125   13.9869   26.4382 O   0  0  0  0  0  0  0  0  0  0  0  0
    6.4590   12.2346   25.9669 N   0  0  0  0  0  0  0  0  0  0  0  0
    5.5937   12.0874   27.0856 C   0  0  0  0  0  0  0  0  0  0  0  0
    5.3250   13.3625   27.8861 C   0  0  1  0  0  0  0  0  0  0  0  0
    4.9004   14.5577   27.0307 C   0  0  0  0  0  0  0  0  0  0  0  0
    3.5564   14.2931   26.3756 C   0  0  0  0  0  0  0  0  0  0  0  0
    2.5088   13.9387   27.4198 C   0  0  0  0  0  0  0  0  0  0  0  0
    2.9845   12.9620   28.4752 C   0  0  0  0  0  0  0  0  0  0  0  0
    2.2391   12.1598   29.0266 O   0  0  0  0  0  0  0  0  0  0  0  0
    4.2922   13.0618   28.8668 N   0  0  0  0  0  0  0  0  0  0  0  0
  1  2  1  0
  2  3  1  0
  3  4  2  0
  4  5  1  0
  5  6  1  0
  6  7  1  0
  4  8  1  0
  8  9  2  0
  8 10  1  0
 10 11  1  0
 12 11  1  6
 12 13  1  0
 13 14  1  0
 14 15  1  0
 15 16  1  0
 16 17  2  0
 16 18  1  0
 18 12  1  0
M  END
>  <energy_score>  (880) 
-27.275593

>  <inchikey>  (880) 
None

>  <smiles>  (880) 
None

>  <ref_pdb>  (880) 
A3436a

>  <alias>  (880) 
None

>  <HIPPO Pose ID>  (880) 
498524

>  <name>  (880) 
P498524

>  <HIPPO Compound ID>  (880) 
293348

>  <ref_mols>  (880) 
A4320a,A3436a

>  <distance_score>  (880) 
1.33512

>  <inspiration_score>  (880) 
None

$$$$
P498525
     RDKit          3D

 18 19  0  0  0  0  0  0  0  0999 V2000
   10.6797   15.2642   18.6621 C   0  0  0  0  0  0  0  0  0  0  0  0
   10.5885   14.7542   20.0700 C   0  0  1  0  0  0  0  0  0  0  0  0
   11.9458   14.4901   20.6973 C   0  0  0  0  0  0  0  0  0  0  0  0
   11.8086   14.1063   22.1673 C   0  0  0  0  0  0  0  0  0  0  0  0
   10.4559   13.6284   22.4821 N   0  0  0  0  0  0  0  0  0  0  0  0
   10.4480   13.0045   23.7967 C   0  0  0  0  0  0  0  0  0  0  0  0
    9.4822   14.7374   22.3163 C   0  0  2  0  0  0  0  0  0  0  0  0
    7.9667   14.3893   22.3310 C   0  0  0  0  0  0  0  0  0  0  0  0
    7.4288   13.8164   23.5431 N   0  0  0  0  0  0  0  0  0  0  0  0
    7.7175   14.1443   25.0155 C   0  0  0  0  0  0  0  0  0  0  0  0
    8.4905   14.8745   25.4884 O   0  0  0  0  0  0  0  0  0  0  0  0
    6.8446   13.2679   25.8295 C   0  0  0  0  0  0  0  0  0  0  0  0
    5.9013   13.8861   26.5525 C   0  0  0  0  0  0  0  0  0  0  0  0
    5.0133   13.1438   27.4948 C   0  0  0  0  0  0  0  0  0  0  0  0
    5.6029   11.7912   27.8950 C   0  0  0  0  0  0  0  0  0  0  0  0
    6.0785   11.0138   26.6744 C   0  0  0  0  0  0  0  0  0  0  0  0
    7.0939   11.7886   25.8329 C   0  0  0  0  0  0  0  0  0  0  0  0
    9.7563   15.5850   21.0249 C   0  0  0  0  0  0  0  0  0  0  0  0
  2  1  1  6
  2  3  1  0
  3  4  1  0
  4  5  1  0
  5  6  1  0
  5  7  1  0
  7  8  1  6
  8  9  1  0
  9 10  1  0
 10 11  2  0
 10 12  1  0
 12 13  2  0
 13 14  1  0
 14 15  1  0
 15 16  1  0
 16 17  1  0
  7 18  1  0
 18  2  1  0
 17 12  1  0
M  END
>  <energy_score>  (881) 
-20.138245

>  <inchikey>  (881) 
None

>  <smiles>  (881) 
None

>  <ref_pdb>  (881) 
A3436a

>  <alias>  (881) 
None

>  <HIPPO Pose ID>  (881) 
498525

>  <name>  (881) 
P498525

>  <HIPPO Compound ID>  (881) 
293352

>  <ref_mols>  (881) 
A3436a,A4320a

>  <distance_score>  (881) 
1.835923

>  <inspiration_score>  (881) 
None

$$$$
P498526
     RDKit          3D

 18 19  0  0  0  0  0  0  0  0999 V2000
   10.9291   15.2603   18.6612 C   0  0  0  0  0  0  0  0  0  0  0  0
   10.6765   14.7696   20.0549 C   0  0  1  0  0  0  0  0  0  0  0  0
   11.8990   14.6186   20.9386 C   0  0  0  0  0  0  0  0  0  0  0  0
   11.6013   14.9181   22.4016 C   0  0  0  0  0  0  0  0  0  0  0  0
   10.3176   14.4294   22.9429 N   0  0  0  0  0  0  0  0  0  0  0  0
   10.4913   13.0430   23.3920 C   0  0  0  0  0  0  0  0  0  0  0  0
    9.1856   14.5309   21.9761 C   0  0  1  0  0  0  0  0  0  0  0  0
    7.7497   14.8402   22.4883 C   0  0  0  0  0  0  0  0  0  0  0  0
    7.3131   14.0837   23.6377 N   0  0  0  0  0  0  0  0  0  0  0  0
    7.7771   14.1357   25.1025 C   0  0  0  0  0  0  0  0  0  0  0  0
    8.6371   14.7412   25.6008 O   0  0  0  0  0  0  0  0  0  0  0  0
    6.8889   13.2305   25.8610 C   0  0  0  0  0  0  0  0  0  0  0  0
    5.9196   13.8234   26.5710 C   0  0  0  0  0  0  0  0  0  0  0  0
    5.0078   13.0482   27.4614 C   0  0  0  0  0  0  0  0  0  0  0  0
    5.6046   11.6946   27.8463 C   0  0  0  0  0  0  0  0  0  0  0  0
    6.1235   10.9512   26.6214 C   0  0  0  0  0  0  0  0  0  0  0  0
    7.1418   11.7566   25.8113 C   0  0  0  0  0  0  0  0  0  0  0  0
    9.5242   15.4449   20.7761 C   0  0  0  0  0  0  0  0  0  0  0  0
  2  1  1  6
  2  3  1  0
  3  4  1  0
  4  5  1  0
  5  6  1  0
  5  7  1  0
  7  8  1  1
  8  9  1  0
  9 10  1  0
 10 11  2  0
 10 12  1  0
 12 13  2  0
 13 14  1  0
 14 15  1  0
 15 16  1  0
 16 17  1  0
  7 18  1  0
 18  2  1  0
 17 12  1  0
M  END
>  <energy_score>  (882) 
-3.848681

>  <inchikey>  (882) 
None

>  <smiles>  (882) 
None

>  <ref_pdb>  (882) 
A3436a

>  <alias>  (882) 
None

>  <HIPPO Pose ID>  (882) 
498526

>  <name>  (882) 
P498526

>  <HIPPO Compound ID>  (882) 
293352

>  <ref_mols>  (882) 
A4320a,A3436a

>  <distance_score>  (882) 
1.747766

>  <inspiration_score>  (882) 
None

$$$$
P498527
     RDKit          3D

 24 27  0  0  0  0  0  0  0  0999 V2000
   19.7298   -8.7241   18.6860 C   0  0  0  0  0  0  0  0  0  0  0  0
   19.9303   -7.4757   17.8805 C   0  0  0  0  0  0  0  0  0  0  0  0
   19.8504   -7.5139   16.4980 C   0  0  0  0  0  0  0  0  0  0  0  0
   20.2054   -6.3766   15.7926 C   0  0  0  0  0  0  0  0  0  0  0  0
   20.6098   -5.2400   16.4849 C   0  0  0  0  0  0  0  0  0  0  0  0
   20.6141   -5.2402   17.8788 C   0  0  0  0  0  0  0  0  0  0  0  0
   20.9217   -4.0529   18.5698 N   0  0  0  0  0  0  0  0  0  0  0  0
   21.1235   -4.2116   20.0114 C   0  0  0  0  0  0  0  0  0  0  0  0
   19.7536   -4.0453   20.6514 C   0  0  0  0  0  0  0  0  0  0  0  0
   18.9815   -3.1509   19.6786 C   0  0  2  0  0  0  0  0  0  0  0  0
   17.6097   -3.6138   19.4532 N   0  0  0  0  0  0  0  0  0  0  0  0
   17.5300   -4.7861   18.5836 C   0  0  0  0  0  0  0  0  0  0  0  0
   16.1557   -5.0592   18.0801 C   0  0  0  0  0  0  0  0  0  0  0  0
   15.2421   -4.0214   17.7753 C   0  0  0  0  0  0  0  0  0  0  0  0
   13.9695   -4.2345   17.1983 C   0  0  0  0  0  0  0  0  0  0  0  0
   13.4887   -5.5107   16.8689 C   0  0  0  0  0  0  0  0  0  0  0  0
   14.3421   -6.5743   17.1734 C   0  0  0  0  0  0  0  0  0  0  0  0
   14.1913   -7.8955   16.9663 N   0  0  0  0  0  0  0  0  0  0  0  0
   15.3105   -8.4393   17.4832 N   0  0  0  0  0  0  0  0  0  0  0  0
   15.4488   -9.8745   17.4937 C   0  0  0  0  0  0  0  0  0  0  0  0
   16.2133   -7.5326   17.9501 C   0  0  0  0  0  0  0  0  0  0  0  0
   15.6248   -6.3141   17.7557 C   0  0  0  0  0  0  0  0  0  0  0  0
   19.8981   -3.0032   18.4259 C   0  0  0  0  0  0  0  0  0  0  0  0
   20.2941   -6.3630   18.5650 N   0  0  0  0  0  0  0  0  0  0  0  0
  1  2  1  0
  2  3  2  0
  3  4  1  0
  4  5  2  0
  5  6  1  0
  6  7  1  0
  7  8  1  0
  8  9  1  0
  9 10  1  0
 10 11  1  6
 11 12  1  0
 12 13  1  0
 13 14  2  0
 14 15  1  0
 15 16  2  0
 16 17  1  0
 17 18  2  0
 18 19  1  0
 19 20  1  0
 19 21  1  0
 21 22  2  0
 10 23  1  0
  6 24  2  0
 24  2  1  0
 23  7  1  0
 22 13  1  0
 22 17  1  0
M  END
>  <energy_score>  (883) 
-21.454037

>  <inchikey>  (883) 
None

>  <smiles>  (883) 
None

>  <ref_pdb>  (883) 
A1105b

>  <alias>  (883) 
None

>  <HIPPO Pose ID>  (883) 
498527

>  <name>  (883) 
P498527

>  <HIPPO Compound ID>  (883) 
293401

>  <ref_mols>  (883) 
A0497a,A1105b

>  <distance_score>  (883) 
1.688178

>  <inspiration_score>  (883) 
None

$$$$
P498528
     RDKit          3D

 24 27  0  0  0  0  0  0  0  0999 V2000
   15.9601   -8.4064   18.2003 C   0  0  0  0  0  0  0  0  0  0  0  0
   17.1122   -8.2047   17.3536 N   0  0  0  0  0  0  0  0  0  0  0  0
   18.3512   -7.7895   17.7496 C   0  0  0  0  0  0  0  0  0  0  0  0
   19.0688   -7.6526   16.5918 C   0  0  0  0  0  0  0  0  0  0  0  0
   20.3900   -7.2001   16.4684 C   0  0  0  0  0  0  0  0  0  0  0  0
   21.3406   -6.7386   17.5367 C   0  0  0  0  0  0  0  0  0  0  0  0
   21.3017   -5.2927   17.6435 N   0  0  0  0  0  0  0  0  0  0  0  0
   22.3705   -4.6625   18.4267 C   0  0  2  0  0  0  0  0  0  0  0  0
   22.7179   -5.2875   19.7757 C   0  0  0  0  0  0  0  0  0  0  0  0
   21.6549   -4.7610   20.7363 C   0  0  0  0  0  0  0  0  0  0  0  0
   21.1826   -3.4792   20.1703 N   0  0  0  0  0  0  0  0  0  0  0  0
   19.7913   -3.4649   19.8992 C   0  0  0  0  0  0  0  0  0  0  0  0
   19.1896   -4.6320   19.5665 N   0  0  0  0  0  0  0  0  0  0  0  0
   17.9006   -4.5978   19.1753 C   0  0  0  0  0  0  0  0  0  0  0  0
   17.1243   -3.4650   19.1577 C   0  0  0  0  0  0  0  0  0  0  0  0
   17.7155   -2.2844   19.5611 C   0  0  0  0  0  0  0  0  0  0  0  0
   19.0653   -2.2669   19.9037 C   0  0  0  0  0  0  0  0  0  0  0  0
   19.7721   -0.7545   20.3553 Cl  0  0  0  0  0  0  0  0  0  0  0  0
   21.9256   -3.2519   18.8978 C   0  0  0  0  0  0  0  0  0  0  0  0
   20.7756   -7.1914   15.1007 C   0  0  0  0  0  0  0  0  0  0  0  0
   19.9566   -7.6424   14.0218 C   0  0  0  0  0  0  0  0  0  0  0  0
   18.6433   -8.1229   14.1950 C   0  0  0  0  0  0  0  0  0  0  0  0
   18.1988   -8.0966   15.5259 C   0  0  0  0  0  0  0  0  0  0  0  0
   17.0066   -8.4578   16.0344 N   0  0  0  0  0  0  0  0  0  0  0  0
  1  2  1  0
  2  3  1  0
  3  4  2  0
  4  5  1  0
  5  6  1  0
  6  7  1  0
  8  7  1  1
  8  9  1  0
  9 10  1  0
 10 11  1  0
 11 12  1  0
 12 13  2  0
 13 14  1  0
 14 15  2  0
 15 16  1  0
 16 17  2  0
 17 18  1  0
 11 19  1  0
  5 20  2  0
 20 21  1  0
 21 22  2  0
 22 23  1  0
 23 24  2  0
 24  2  1  0
 23  4  1  0
 19  8  1  0
 17 12  1  0
M  END
>  <energy_score>  (884) 
-39.768861

>  <inchikey>  (884) 
None

>  <smiles>  (884) 
None

>  <ref_pdb>  (884) 
A1105b

>  <alias>  (884) 
None

>  <HIPPO Pose ID>  (884) 
498528

>  <name>  (884) 
P498528

>  <HIPPO Compound ID>  (884) 
293402

>  <ref_mols>  (884) 
A0497a,A1105b

>  <distance_score>  (884) 
1.77395

>  <inspiration_score>  (884) 
None

$$$$
P498529
     RDKit          3D

 24 27  0  0  0  0  0  0  0  0999 V2000
   15.3099   -7.9916   17.7439 C   0  0  0  0  0  0  0  0  0  0  0  0
   16.6045   -7.8974   17.1112 N   0  0  0  0  0  0  0  0  0  0  0  0
   17.7230   -7.3287   17.6460 C   0  0  0  0  0  0  0  0  0  0  0  0
   18.6730   -7.4259   16.6637 C   0  0  0  0  0  0  0  0  0  0  0  0
   19.9927   -6.9605   16.7314 C   0  0  0  0  0  0  0  0  0  0  0  0
   20.6533   -6.2823   17.8904 C   0  0  0  0  0  0  0  0  0  0  0  0
   21.4886   -7.2007   18.6730 N   0  0  0  0  0  0  0  0  0  0  0  0
   21.9151   -6.6594   19.9782 C   0  0  1  0  0  0  0  0  0  0  0  0
   22.8085   -5.4140   19.9168 C   0  0  0  0  0  0  0  0  0  0  0  0
   22.3385   -4.5384   21.0775 C   0  0  0  0  0  0  0  0  0  0  0  0
   20.9190   -4.8637   21.2900 N   0  0  0  0  0  0  0  0  0  0  0  0
   20.0181   -4.1151   20.4905 C   0  0  0  0  0  0  0  0  0  0  0  0
   20.5057   -3.4815   19.3962 N   0  0  0  0  0  0  0  0  0  0  0  0
   19.6352   -2.9849   18.4898 C   0  0  0  0  0  0  0  0  0  0  0  0
   18.2686   -3.0492   18.6317 C   0  0  0  0  0  0  0  0  0  0  0  0
   17.7650   -3.5769   19.8091 C   0  0  0  0  0  0  0  0  0  0  0  0
   18.6376   -4.1186   20.7536 C   0  0  0  0  0  0  0  0  0  0  0  0
   17.9979   -4.7614   22.2256 Cl  0  0  0  0  0  0  0  0  0  0  0  0
   20.7837   -6.3080   20.9857 C   0  0  0  0  0  0  0  0  0  0  0  0
   20.6650   -7.1982   15.5043 C   0  0  0  0  0  0  0  0  0  0  0  0
   20.0740   -7.8406   14.3723 C   0  0  0  0  0  0  0  0  0  0  0  0
   18.7456   -8.3159   14.3543 C   0  0  0  0  0  0  0  0  0  0  0  0
   18.0408   -8.0845   15.5470 C   0  0  0  0  0  0  0  0  0  0  0  0
   16.7732   -8.4005   15.8700 N   0  0  0  0  0  0  0  0  0  0  0  0
  1  2  1  0
  2  3  1  0
  3  4  2  0
  4  5  1  0
  5  6  1  0
  6  7  1  0
  8  7  1  6
  8  9  1  0
  9 10  1  0
 10 11  1  0
 11 12  1  0
 12 13  2  0
 13 14  1  0
 14 15  2  0
 15 16  1  0
 16 17  2  0
 17 18  1  0
 11 19  1  0
  5 20  2  0
 20 21  1  0
 21 22  2  0
 22 23  1  0
 23 24  2  0
 24  2  1  0
 23  4  1  0
 19  8  1  0
 17 12  1  0
M  END
>  <energy_score>  (885) 
-51.795091

>  <inchikey>  (885) 
None

>  <smiles>  (885) 
None

>  <ref_pdb>  (885) 
A1105b

>  <alias>  (885) 
None

>  <HIPPO Pose ID>  (885) 
498529

>  <name>  (885) 
P498529

>  <HIPPO Compound ID>  (885) 
293402

>  <ref_mols>  (885) 
A0497a,A1105b

>  <distance_score>  (885) 
1.070028

>  <inspiration_score>  (885) 
None

$$$$
P498530
     RDKit          3D

 24 27  0  0  0  0  0  0  0  0999 V2000
   16.2025   -7.8015   18.1568 C   0  0  0  0  0  0  0  0  0  0  0  0
   17.2471   -7.8260   17.1616 N   0  0  0  0  0  0  0  0  0  0  0  0
   18.5544   -7.4731   17.3409 C   0  0  0  0  0  0  0  0  0  0  0  0
   19.1365   -7.5846   16.1069 C   0  0  0  0  0  0  0  0  0  0  0  0
   20.4696   -7.3145   15.7514 C   0  0  0  0  0  0  0  0  0  0  0  0
   21.6451   -6.8882   16.5880 C   0  0  0  0  0  0  0  0  0  0  0  0
   22.1226   -5.5318   16.2634 N   0  0  0  0  0  0  0  0  0  0  0  0
   21.4125   -4.5576   17.0812 C   0  0  2  0  0  0  0  0  0  0  0  0
   21.4392   -3.1177   16.5771 C   0  0  0  0  0  0  0  0  0  0  0  0
   20.9157   -2.3477   17.8026 C   0  0  0  0  0  0  0  0  0  0  0  0
   21.2689   -3.1858   18.9770 N   0  0  0  0  0  0  0  0  0  0  0  0
   20.1128   -3.4505   19.7308 C   0  0  0  0  0  0  0  0  0  0  0  0
   19.4983   -2.3746   20.2724 N   0  0  0  0  0  0  0  0  0  0  0  0
   18.4154   -2.5757   21.0534 C   0  0  0  0  0  0  0  0  0  0  0  0
   17.8654   -3.8118   21.3198 C   0  0  0  0  0  0  0  0  0  0  0  0
   18.4543   -4.9134   20.7414 C   0  0  0  0  0  0  0  0  0  0  0  0
   19.5864   -4.7306   19.9647 C   0  0  0  0  0  0  0  0  0  0  0  0
   20.1620   -5.8456   19.4993 F   0  0  0  0  0  0  0  0  0  0  0  0
   22.0365   -4.3280   18.4678 C   0  0  0  0  0  0  0  0  0  0  0  0
   20.6646   -7.5606   14.3643 C   0  0  0  0  0  0  0  0  0  0  0  0
   19.6667   -8.0485   13.4736 C   0  0  0  0  0  0  0  0  0  0  0  0
   18.3512   -8.3408   13.8755 C   0  0  0  0  0  0  0  0  0  0  0  0
   18.0965   -8.0843   15.2309 C   0  0  0  0  0  0  0  0  0  0  0  0
   16.9570   -8.2600   15.9219 N   0  0  0  0  0  0  0  0  0  0  0  0
  1  2  1  0
  2  3  1  0
  3  4  2  0
  4  5  1  0
  5  6  1  0
  6  7  1  0
  8  7  1  6
  8  9  1  0
  9 10  1  0
 10 11  1  0
 11 12  1  0
 12 13  2  0
 13 14  1  0
 14 15  2  0
 15 16  1  0
 16 17  2  0
 17 18  1  0
 11 19  1  0
  5 20  2  0
 20 21  1  0
 21 22  2  0
 22 23  1  0
 23 24  2  0
 24  2  1  0
 23  4  1  0
 19  8  1  0
 17 12  1  0
M  END
>  <energy_score>  (886) 
-36.531533

>  <inchikey>  (886) 
None

>  <smiles>  (886) 
None

>  <ref_pdb>  (886) 
A1105b

>  <alias>  (886) 
None

>  <HIPPO Pose ID>  (886) 
498530

>  <name>  (886) 
P498530

>  <HIPPO Compound ID>  (886) 
293403

>  <ref_mols>  (886) 
A0497a,A1105b

>  <distance_score>  (886) 
1.987207

>  <inspiration_score>  (886) 
None

$$$$
P498531
     RDKit          3D

 24 27  0  0  0  0  0  0  0  0999 V2000
   15.5412   -7.9326   17.9654 C   0  0  0  0  0  0  0  0  0  0  0  0
   16.8548   -7.9951   17.3683 N   0  0  0  0  0  0  0  0  0  0  0  0
   18.0440   -8.1461   18.0221 C   0  0  0  0  0  0  0  0  0  0  0  0
   19.0040   -8.0503   17.0487 C   0  0  0  0  0  0  0  0  0  0  0  0
   20.3961   -8.1441   17.2168 C   0  0  0  0  0  0  0  0  0  0  0  0
   21.1624   -8.6004   18.4368 C   0  0  0  0  0  0  0  0  0  0  0  0
   21.8699   -7.5530   19.1851 N   0  0  0  0  0  0  0  0  0  0  0  0
   20.9326   -6.6837   19.8890 C   0  0  1  0  0  0  0  0  0  0  0  0
   20.2577   -7.2810   21.1242 C   0  0  0  0  0  0  0  0  0  0  0  0
   19.6128   -6.0531   21.7977 C   0  0  0  0  0  0  0  0  0  0  0  0
   20.2959   -4.8609   21.2262 N   0  0  0  0  0  0  0  0  0  0  0  0
   19.5006   -4.1440   20.2798 C   0  0  0  0  0  0  0  0  0  0  0  0
   20.1010   -3.7624   19.1258 N   0  0  0  0  0  0  0  0  0  0  0  0
   19.3510   -3.3450   18.0868 C   0  0  0  0  0  0  0  0  0  0  0  0
   17.9847   -3.2269   18.1464 C   0  0  0  0  0  0  0  0  0  0  0  0
   17.3705   -3.4668   19.3618 C   0  0  0  0  0  0  0  0  0  0  0  0
   18.1325   -3.9071   20.4424 C   0  0  0  0  0  0  0  0  0  0  0  0
   17.5111   -4.1558   21.6061 F   0  0  0  0  0  0  0  0  0  0  0  0
   21.5048   -5.4026   20.5394 C   0  0  0  0  0  0  0  0  0  0  0  0
   21.0528   -7.8947   15.9787 C   0  0  0  0  0  0  0  0  0  0  0  0
   20.3864   -7.6944   14.7309 C   0  0  0  0  0  0  0  0  0  0  0  0
   18.9864   -7.7236   14.5936 C   0  0  0  0  0  0  0  0  0  0  0  0
   18.2934   -7.8728   15.8036 C   0  0  0  0  0  0  0  0  0  0  0  0
   16.9698   -7.9280   16.0301 N   0  0  0  0  0  0  0  0  0  0  0  0
  1  2  1  0
  2  3  1  0
  3  4  2  0
  4  5  1  0
  5  6  1  0
  6  7  1  0
  8  7  1  1
  8  9  1  0
  9 10  1  0
 10 11  1  0
 11 12  1  0
 12 13  2  0
 13 14  1  0
 14 15  2  0
 15 16  1  0
 16 17  2  0
 17 18  1  0
 11 19  1  0
  5 20  2  0
 20 21  1  0
 21 22  2  0
 22 23  1  0
 23 24  2  0
 24  2  1  0
 23  4  1  0
 19  8  1  0
 17 12  1  0
M  END
>  <energy_score>  (887) 
-41.234684

>  <inchikey>  (887) 
None

>  <smiles>  (887) 
None

>  <ref_pdb>  (887) 
A1105b

>  <alias>  (887) 
None

>  <HIPPO Pose ID>  (887) 
498531

>  <name>  (887) 
P498531

>  <HIPPO Compound ID>  (887) 
293403

>  <ref_mols>  (887) 
A0497a,A1105b

>  <distance_score>  (887) 
1.377738

>  <inspiration_score>  (887) 
None

$$$$
P498532
     RDKit          3D

 24 27  0  0  0  0  0  0  0  0999 V2000
   18.0220   -7.9100   16.1169 C   0  0  0  0  0  0  0  0  0  0  0  0
   19.2760   -7.0915   16.1058 C   0  0  0  0  0  0  0  0  0  0  0  0
   20.4066   -7.5743   15.4820 C   0  0  0  0  0  0  0  0  0  0  0  0
   21.5430   -6.7813   15.4786 C   0  0  0  0  0  0  0  0  0  0  0  0
   21.5238   -5.5444   16.1130 C   0  0  0  0  0  0  0  0  0  0  0  0
   20.3746   -5.1230   16.7678 C   0  0  0  0  0  0  0  0  0  0  0  0
   20.3801   -3.8817   17.4380 N   0  0  0  0  0  0  0  0  0  0  0  0
   21.2231   -3.8563   18.6348 C   0  0  0  0  0  0  0  0  0  0  0  0
   20.2948   -4.2317   19.7781 C   0  0  0  0  0  0  0  0  0  0  0  0
   18.9657   -3.5940   19.3758 C   0  0  2  0  0  0  0  0  0  0  0  0
   17.8299   -4.3363   19.9270 N   0  0  0  0  0  0  0  0  0  0  0  0
   17.5460   -5.5677   19.1743 C   0  0  0  0  0  0  0  0  0  0  0  0
   16.2834   -5.5761   18.3187 C   0  0  0  0  0  0  0  0  0  0  0  0
   15.6456   -4.3953   17.8644 C   0  0  0  0  0  0  0  0  0  0  0  0
   14.3996   -4.4194   17.2410 C   0  0  0  0  0  0  0  0  0  0  0  0
   13.7595   -5.6264   16.9791 C   0  0  0  0  0  0  0  0  0  0  0  0
   14.3815   -6.8061   17.3937 C   0  0  0  0  0  0  0  0  0  0  0  0
   15.5919   -6.7958   18.0784 C   0  0  0  0  0  0  0  0  0  0  0  0
   15.7855   -8.1527   18.4430 C   0  0  0  0  0  0  0  0  0  0  0  0
   14.8697   -8.9741   17.9283 N   0  0  0  0  0  0  0  0  0  0  0  0
   14.0279   -8.1297   17.2992 N   0  0  0  0  0  0  0  0  0  0  0  0
   12.9041   -8.6932   16.5947 C   0  0  0  0  0  0  0  0  0  0  0  0
   19.0554   -3.3939   17.8359 C   0  0  0  0  0  0  0  0  0  0  0  0
   19.2715   -5.9021   16.7477 N   0  0  0  0  0  0  0  0  0  0  0  0
  1  2  1  0
  2  3  2  0
  3  4  1  0
  4  5  2  0
  5  6  1  0
  6  7  1  0
  7  8  1  0
  8  9  1  0
  9 10  1  0
 10 11  1  6
 11 12  1  0
 12 13  1  0
 13 14  2  0
 14 15  1  0
 15 16  2  0
 16 17  1  0
 17 18  2  0
 18 19  1  0
 19 20  2  0
 20 21  1  0
 21 22  1  0
 10 23  1  0
  6 24  2  0
 24  2  1  0
 23  7  1  0
 18 13  1  0
 21 17  1  0
M  END
>  <energy_score>  (888) 
-23.215837

>  <inchikey>  (888) 
None

>  <smiles>  (888) 
None

>  <ref_pdb>  (888) 
A1105b

>  <alias>  (888) 
None

>  <HIPPO Pose ID>  (888) 
498532

>  <name>  (888) 
P498532

>  <HIPPO Compound ID>  (888) 
293404

>  <ref_mols>  (888) 
A0497a,A1105b

>  <distance_score>  (888) 
1.808185

>  <inspiration_score>  (888) 
None

$$$$
P498533
     RDKit          3D

 24 27  0  0  0  0  0  0  0  0999 V2000
   19.7687   -8.8060   18.5357 C   0  0  0  0  0  0  0  0  0  0  0  0
   19.9359   -7.5076   17.8036 C   0  0  0  0  0  0  0  0  0  0  0  0
   19.8643   -7.4702   16.4218 C   0  0  0  0  0  0  0  0  0  0  0  0
   20.2028   -6.2886   15.7844 C   0  0  0  0  0  0  0  0  0  0  0  0
   20.5768   -5.1822   16.5412 C   0  0  0  0  0  0  0  0  0  0  0  0
   20.5688   -5.2578   17.9320 C   0  0  0  0  0  0  0  0  0  0  0  0
   20.8597   -4.1102   18.6960 N   0  0  0  0  0  0  0  0  0  0  0  0
   21.0103   -4.3630   20.1330 C   0  0  0  0  0  0  0  0  0  0  0  0
   19.6138   -4.2493   20.7260 C   0  0  0  0  0  0  0  0  0  0  0  0
   18.8875   -3.2727   19.7997 C   0  0  2  0  0  0  0  0  0  0  0  0
   17.5083   -3.7027   19.5121 N   0  0  0  0  0  0  0  0  0  0  0  0
   17.4597   -4.7622   18.4965 C   0  0  0  0  0  0  0  0  0  0  0  0
   16.0778   -5.0963   18.0118 C   0  0  0  0  0  0  0  0  0  0  0  0
   15.1595   -4.0753   17.7017 C   0  0  0  0  0  0  0  0  0  0  0  0
   13.9236   -4.3641   17.1545 C   0  0  0  0  0  0  0  0  0  0  0  0
   13.5554   -5.6796   16.8973 C   0  0  0  0  0  0  0  0  0  0  0  0
   14.4368   -6.7037   17.2344 C   0  0  0  0  0  0  0  0  0  0  0  0
   15.6840   -6.4354   17.7748 C   0  0  0  0  0  0  0  0  0  0  0  0
   16.2536   -7.7134   17.9620 C   0  0  0  0  0  0  0  0  0  0  0  0
   15.4713   -8.7126   17.5474 N   0  0  0  0  0  0  0  0  0  0  0  0
   14.3540   -8.0701   17.1503 N   0  0  0  0  0  0  0  0  0  0  0  0
   13.2193   -8.8439   16.7119 C   0  0  0  0  0  0  0  0  0  0  0  0
   19.8519   -3.0443   18.5927 C   0  0  0  0  0  0  0  0  0  0  0  0
   20.2688   -6.4246   18.5488 N   0  0  0  0  0  0  0  0  0  0  0  0
  1  2  1  0
  2  3  2  0
  3  4  1  0
  4  5  2  0
  5  6  1  0
  6  7  1  0
  7  8  1  0
  8  9  1  0
  9 10  1  0
 10 11  1  6
 11 12  1  0
 12 13  1  0
 13 14  2  0
 14 15  1  0
 15 16  2  0
 16 17  1  0
 17 18  2  0
 18 19  1  0
 19 20  2  0
 20 21  1  0
 21 22  1  0
 10 23  1  0
  6 24  2  0
 24  2  1  0
 23  7  1  0
 18 13  1  0
 21 17  1  0
M  END
>  <energy_score>  (889) 
-19.439671

>  <inchikey>  (889) 
None

>  <smiles>  (889) 
None

>  <ref_pdb>  (889) 
A1105b

>  <alias>  (889) 
None

>  <HIPPO Pose ID>  (889) 
498533

>  <name>  (889) 
P498533

>  <HIPPO Compound ID>  (889) 
293404

>  <ref_mols>  (889) 
A0497a,A1105b

>  <distance_score>  (889) 
1.688427

>  <inspiration_score>  (889) 
None

$$$$
P498534
     RDKit          3D

 24 27  0  0  0  0  0  0  0  0999 V2000
   13.1407   -4.0633   16.9966 C   0  0  0  0  0  0  0  0  0  0  0  0
   14.4732   -4.1827   17.4440 N   0  0  0  0  0  0  0  0  0  0  0  0
   15.1273   -3.0670   17.7807 N   0  0  0  0  0  0  0  0  0  0  0  0
   16.3149   -3.5155   18.1309 C   0  0  0  0  0  0  0  0  0  0  0  0
   16.3401   -4.9195   18.1289 C   0  0  0  0  0  0  0  0  0  0  0  0
   17.2324   -5.8383   18.6692 C   0  0  0  0  0  0  0  0  0  0  0  0
   18.3495   -5.2085   19.4169 C   0  0  0  0  0  0  0  0  0  0  0  0
   19.0466   -6.0180   20.3891 N   0  0  0  0  0  0  0  0  0  0  0  0
   20.2799   -5.3477   20.8913 C   0  0  2  0  0  0  0  0  0  0  0  0
   20.5518   -3.8701   20.5344 C   0  0  0  0  0  0  0  0  0  0  0  0
   21.2344   -3.8972   19.1503 C   0  0  0  0  0  0  0  0  0  0  0  0
   21.6900   -5.2963   18.9717 N   0  0  0  0  0  0  0  0  0  0  0  0
   21.1349   -5.9843   17.8716 C   0  0  0  0  0  0  0  0  0  0  0  0
   20.5122   -7.1772   18.0867 N   0  0  0  0  0  0  0  0  0  0  0  0
   19.8356   -7.7479   17.0601 C   0  0  0  0  0  0  0  0  0  0  0  0
   19.7689   -7.2174   15.7896 C   0  0  0  0  0  0  0  0  0  0  0  0
   20.4776   -6.0528   15.5438 C   0  0  0  0  0  0  0  0  0  0  0  0
   21.1616   -5.4360   16.5822 C   0  0  0  0  0  0  0  0  0  0  0  0
   21.8123   -4.2877   16.3368 F   0  0  0  0  0  0  0  0  0  0  0  0
   21.5522   -5.9807   20.2695 C   0  0  0  0  0  0  0  0  0  0  0  0
   16.9199   -7.1976   18.5305 C   0  0  0  0  0  0  0  0  0  0  0  0
   15.7368   -7.6120   17.9041 C   0  0  0  0  0  0  0  0  0  0  0  0
   14.7986   -6.6871   17.4465 C   0  0  0  0  0  0  0  0  0  0  0  0
   15.1394   -5.3449   17.6134 C   0  0  0  0  0  0  0  0  0  0  0  0
  1  2  1  0
  2  3  1  0
  3  4  2  0
  4  5  1  0
  5  6  2  0
  6  7  1  0
  7  8  1  0
  9  8  1  6
  9 10  1  0
 10 11  1  0
 11 12  1  0
 12 13  1  0
 13 14  2  0
 14 15  1  0
 15 16  2  0
 16 17  1  0
 17 18  2  0
 18 19  1  0
 12 20  1  0
  6 21  1  0
 21 22  2  0
 22 23  1  0
 23 24  2  0
 24  2  1  0
 24  5  1  0
 20  9  1  0
 18 13  1  0
M  END
>  <energy_score>  (890) 
-11.038141

>  <inchikey>  (890) 
None

>  <smiles>  (890) 
None

>  <ref_pdb>  (890) 
A1105b

>  <alias>  (890) 
None

>  <HIPPO Pose ID>  (890) 
498534

>  <name>  (890) 
P498534

>  <HIPPO Compound ID>  (890) 
293406

>  <ref_mols>  (890) 
A0497a,A1105b

>  <distance_score>  (890) 
1.861127

>  <inspiration_score>  (890) 
None

$$$$
P498535
     RDKit          3D

 25 29  0  0  0  0  0  0  0  0999 V2000
   16.1828   -7.5319   18.2179 C   0  0  0  0  0  0  0  0  0  0  0  0
   17.2572   -7.6365   17.2609 N   0  0  0  0  0  0  0  0  0  0  0  0
   18.5545   -7.2557   17.4519 C   0  0  0  0  0  0  0  0  0  0  0  0
   19.1749   -7.4914   16.2529 C   0  0  0  0  0  0  0  0  0  0  0  0
   20.5204   -7.2479   15.9274 C   0  0  0  0  0  0  0  0  0  0  0  0
   21.6394   -6.7661   16.8074 C   0  0  0  0  0  0  0  0  0  0  0  0
   21.3773   -5.4458   17.3081 N   0  0  0  0  0  0  0  0  0  0  0  0
   22.1970   -5.0064   18.4465 C   0  0  0  0  0  0  0  0  0  0  0  0
   22.2507   -3.4695   18.2099 C   0  0  1  0  0  0  0  0  0  0  0  0
   22.6469   -3.5124   16.7296 C   0  0  0  0  0  0  0  0  0  0  0  0
   21.4067   -4.3150   16.3493 C   0  0  2  0  0  0  0  0  0  0  0  0
   20.3109   -3.3391   16.8490 C   0  0  0  0  0  0  0  0  0  0  0  0
   20.8749   -2.8483   18.1426 N   0  0  0  0  0  0  0  0  0  0  0  0
   20.0917   -3.0966   19.2729 C   0  0  0  0  0  0  0  0  0  0  0  0
   18.6958   -3.0862   19.2308 C   0  0  0  0  0  0  0  0  0  0  0  0
   17.9660   -3.5614   20.3205 C   0  0  0  0  0  0  0  0  0  0  0  0
   18.6505   -4.0083   21.4377 C   0  0  0  0  0  0  0  0  0  0  0  0
   17.8259   -4.7699   22.9405 Br  0  0  0  0  0  0  0  0  0  0  0  0
   20.0188   -3.8696   21.4561 C   0  0  0  0  0  0  0  0  0  0  0  0
   20.7360   -3.3957   20.4217 N   0  0  0  0  0  0  0  0  0  0  0  0
   20.7617   -7.5602   14.5646 C   0  0  0  0  0  0  0  0  0  0  0  0
   19.7856   -8.0881   13.6691 C   0  0  0  0  0  0  0  0  0  0  0  0
   18.4564   -8.3610   14.0453 C   0  0  0  0  0  0  0  0  0  0  0  0
   18.1614   -8.0344   15.3777 C   0  0  0  0  0  0  0  0  0  0  0  0
   17.0039   -8.1659   16.0472 N   0  0  0  0  0  0  0  0  0  0  0  0
  1  2  1  0
  2  3  1  0
  3  4  2  0
  4  5  1  0
  5  6  1  0
  6  7  1  0
  7  8  1  0
  9  8  1  6
  9 10  1  0
 10 11  1  0
 11 12  1  1
 12 13  1  0
 13 14  1  0
 14 15  2  0
 15 16  1  0
 16 17  2  0
 17 18  1  0
 17 19  1  0
 19 20  2  0
  5 21  2  0
 21 22  1  0
 22 23  2  0
 23 24  1  0
 24 25  2  0
 25  2  1  0
 24  4  1  0
 11  7  1  0
 20 14  1  0
 13  9  1  0
M  END
>  <energy_score>  (891) 
-35.699324

>  <inchikey>  (891) 
None

>  <smiles>  (891) 
None

>  <ref_pdb>  (891) 
A1105b

>  <alias>  (891) 
None

>  <HIPPO Pose ID>  (891) 
498535

>  <name>  (891) 
P498535

>  <HIPPO Compound ID>  (891) 
293407

>  <ref_mols>  (891) 
A0497a,A1105b

>  <distance_score>  (891) 
1.401836

>  <inspiration_score>  (891) 
None

$$$$
P498536
     RDKit          3D

 25 29  0  0  0  0  0  0  0  0999 V2000
   15.1721   -8.3322   17.3465 C   0  0  0  0  0  0  0  0  0  0  0  0
   16.5676   -8.3044   16.9777 N   0  0  0  0  0  0  0  0  0  0  0  0
   17.6323   -8.4608   17.8121 C   0  0  0  0  0  0  0  0  0  0  0  0
   18.7322   -8.2093   17.0364 C   0  0  0  0  0  0  0  0  0  0  0  0
   20.0676   -8.2119   17.4629 C   0  0  0  0  0  0  0  0  0  0  0  0
   20.5875   -8.6412   18.8146 C   0  0  0  0  0  0  0  0  0  0  0  0
   20.1823   -7.7232   19.8410 N   0  0  0  0  0  0  0  0  0  0  0  0
   21.1007   -6.6369   20.2046 C   0  0  0  0  0  0  0  0  0  0  0  0
   20.5399   -6.2613   21.6135 C   0  0  2  0  0  0  0  0  0  0  0  0
   20.4915   -7.6833   22.1873 C   0  0  0  0  0  0  0  0  0  0  0  0
   19.5485   -8.1693   21.0909 C   0  0  1  0  0  0  0  0  0  0  0  0
   18.3717   -7.1833   21.3607 C   0  0  0  0  0  0  0  0  0  0  0  0
   19.0587   -5.8746   21.5507 N   0  0  0  0  0  0  0  0  0  0  0  0
   18.9416   -4.8553   20.5834 C   0  0  0  0  0  0  0  0  0  0  0  0
   18.2369   -5.0156   19.3853 C   0  0  0  0  0  0  0  0  0  0  0  0
   18.5976   -4.2709   18.2625 C   0  0  0  0  0  0  0  0  0  0  0  0
   19.6259   -3.3581   18.3841 C   0  0  0  0  0  0  0  0  0  0  0  0
   20.5767   -2.7383   16.8830 Br  0  0  0  0  0  0  0  0  0  0  0  0
   20.1085   -3.0842   19.6463 C   0  0  0  0  0  0  0  0  0  0  0  0
   19.7743   -3.7988   20.7441 N   0  0  0  0  0  0  0  0  0  0  0  0
   20.9170   -7.8416   16.3842 C   0  0  0  0  0  0  0  0  0  0  0  0
   20.4711   -7.5961   15.0460 C   0  0  0  0  0  0  0  0  0  0  0  0
   19.1237   -7.6982   14.6491 C   0  0  0  0  0  0  0  0  0  0  0  0
   18.2414   -7.9855   15.7001 C   0  0  0  0  0  0  0  0  0  0  0  0
   16.9060   -8.1430   15.6855 N   0  0  0  0  0  0  0  0  0  0  0  0
  1  2  1  0
  2  3  1  0
  3  4  2  0
  4  5  1  0
  5  6  1  0
  6  7  1  0
  7  8  1  0
  9  8  1  6
  9 10  1  0
 10 11  1  0
 11 12  1  1
 12 13  1  0
 13 14  1  0
 14 15  2  0
 15 16  1  0
 16 17  2  0
 17 18  1  0
 17 19  1  0
 19 20  2  0
  5 21  2  0
 21 22  1  0
 22 23  2  0
 23 24  1  0
 24 25  2  0
 25  2  1  0
 24  4  1  0
 11  7  1  0
 20 14  1  0
 13  9  1  0
M  END
>  <energy_score>  (892) 
-12.044858

>  <inchikey>  (892) 
None

>  <smiles>  (892) 
None

>  <ref_pdb>  (892) 
A1105b

>  <alias>  (892) 
None

>  <HIPPO Pose ID>  (892) 
498536

>  <name>  (892) 
P498536

>  <HIPPO Compound ID>  (892) 
293407

>  <ref_mols>  (892) 
A0497a,A1105b

>  <distance_score>  (892) 
1.348496

>  <inspiration_score>  (892) 
None

$$$$
P498537
     RDKit          3D

 25 28  0  0  0  0  0  0  0  0999 V2000
   15.8990   -7.8430   18.3730 C   0  0  0  0  0  0  0  0  0  0  0  0
   17.0715   -7.8189   17.5316 N   0  0  0  0  0  0  0  0  0  0  0  0
   18.3679   -7.6530   17.9339 C   0  0  0  0  0  0  0  0  0  0  0  0
   19.1036   -7.6794   16.7786 C   0  0  0  0  0  0  0  0  0  0  0  0
   20.4971   -7.5820   16.6600 C   0  0  0  0  0  0  0  0  0  0  0  0
   21.5539   -7.6317   17.7275 C   0  0  0  0  0  0  0  0  0  0  0  0
   21.9431   -6.3823   18.3639 N   0  0  0  0  0  0  0  0  0  0  0  0
   22.2514   -5.2730   17.4431 C   0  0  2  0  0  0  0  0  0  0  0  0
   23.2847   -4.3482   18.0841 C   0  0  0  0  0  0  0  0  0  0  0  0
   22.4754   -3.5784   19.1256 C   0  0  0  0  0  0  0  0  0  0  0  0
   21.1149   -3.4889   18.5593 N   0  0  0  0  0  0  0  0  0  0  0  0
   20.0498   -3.6729   19.4517 C   0  0  0  0  0  0  0  0  0  0  0  0
   20.3390   -4.0493   20.7224 N   0  0  0  0  0  0  0  0  0  0  0  0
   19.3392   -4.2149   21.6128 C   0  0  0  0  0  0  0  0  0  0  0  0
   18.0113   -4.0193   21.3141 C   0  0  0  0  0  0  0  0  0  0  0  0
   17.6957   -3.6351   20.0234 C   0  0  0  0  0  0  0  0  0  0  0  0
   18.7124   -3.4634   19.0896 C   0  0  0  0  0  0  0  0  0  0  0  0
   18.2281   -2.9339   17.5475 Cl  0  0  0  0  0  0  0  0  0  0  0  0
   21.0607   -4.2967   17.3158 C   0  0  0  0  0  0  0  0  0  0  0  0
   20.8660   -7.5858   15.2844 C   0  0  0  0  0  0  0  0  0  0  0  0
   19.9532   -7.7477   14.2003 C   0  0  0  0  0  0  0  0  0  0  0  0
   20.6550   -7.7615   12.4339 Br  0  0  0  0  0  0  0  0  0  0  0  0
   18.5721   -7.9343   14.3646 C   0  0  0  0  0  0  0  0  0  0  0  0
   18.1567   -7.8720   15.7014 C   0  0  0  0  0  0  0  0  0  0  0  0
   16.9219   -8.0117   16.2087 N   0  0  0  0  0  0  0  0  0  0  0  0
  1  2  1  0
  2  3  1  0
  3  4  2  0
  4  5  1  0
  5  6  1  0
  6  7  1  0
  8  7  1  1
  8  9  1  0
  9 10  1  0
 10 11  1  0
 11 12  1  0
 12 13  2  0
 13 14  1  0
 14 15  2  0
 15 16  1  0
 16 17  2  0
 17 18  1  0
 11 19  1  0
  5 20  2  0
 20 21  1  0
 21 22  1  0
 21 23  2  0
 23 24  1  0
 24 25  2  0
 25  2  1  0
 24  4  1  0
 19  8  1  0
 17 12  1  0
M  END
>  <energy_score>  (893) 
-38.776426

>  <inchikey>  (893) 
None

>  <smiles>  (893) 
None

>  <ref_pdb>  (893) 
A1105b

>  <alias>  (893) 
None

>  <HIPPO Pose ID>  (893) 
498537

>  <name>  (893) 
P498537

>  <HIPPO Compound ID>  (893) 
293409

>  <ref_mols>  (893) 
A0497a,A1105b

>  <distance_score>  (893) 
1.241468

>  <inspiration_score>  (893) 
None

$$$$
P498538
     RDKit          3D

 25 28  0  0  0  0  0  0  0  0999 V2000
   18.3479   -7.9191   16.3091 C   0  0  0  0  0  0  0  0  0  0  0  0
   19.3530   -6.8287   16.2420 C   0  0  0  0  0  0  0  0  0  0  0  0
   20.3960   -6.8628   15.3407 C   0  0  0  0  0  0  0  0  0  0  0  0
   21.2905   -5.8015   15.3302 C   0  0  0  0  0  0  0  0  0  0  0  0
   21.1136   -4.7373   16.2081 C   0  0  0  0  0  0  0  0  0  0  0  0
   20.0413   -4.7574   17.0846 C   0  0  0  0  0  0  0  0  0  0  0  0
   19.8483   -3.6874   17.9967 N   0  0  0  0  0  0  0  0  0  0  0  0
   20.6879   -3.8404   19.1999 C   0  0  0  0  0  0  0  0  0  0  0  0
   19.7145   -3.8558   20.3902 C   0  0  0  0  0  0  0  0  0  0  0  0
   18.4181   -4.4310   19.8010 C   0  0  2  0  0  0  0  0  0  0  0  0
   18.6253   -5.8802   19.6899 N   0  0  0  0  0  0  0  0  0  0  0  0
   17.5394   -6.8438   19.6737 C   0  0  0  0  0  0  0  0  0  0  0  0
   16.4315   -6.7873   18.6484 C   0  0  0  0  0  0  0  0  0  0  0  0
   15.7893   -5.6201   18.1570 C   0  0  0  0  0  0  0  0  0  0  0  0
   14.5941   -5.5827   17.3817 C   0  0  0  0  0  0  0  0  0  0  0  0
   13.9013   -3.8841   16.9967 Br  0  0  0  0  0  0  0  0  0  0  0  0
   13.9038   -6.7112   16.9400 C   0  0  0  0  0  0  0  0  0  0  0  0
   14.5009   -7.8940   17.3738 C   0  0  0  0  0  0  0  0  0  0  0  0
   14.1252   -9.1628   17.1354 N   0  0  0  0  0  0  0  0  0  0  0  0
   14.9967   -9.9103   17.8336 N   0  0  0  0  0  0  0  0  0  0  0  0
   14.8465  -11.3457   17.8234 C   0  0  0  0  0  0  0  0  0  0  0  0
   15.9425   -9.2014   18.5076 C   0  0  0  0  0  0  0  0  0  0  0  0
   15.6884   -7.8894   18.2015 C   0  0  0  0  0  0  0  0  0  0  0  0
   18.4448   -3.6340   18.4567 C   0  0  0  0  0  0  0  0  0  0  0  0
   19.1921   -5.8163   17.1103 N   0  0  0  0  0  0  0  0  0  0  0  0
  1  2  1  0
  2  3  2  0
  3  4  1  0
  4  5  2  0
  5  6  1  0
  6  7  1  0
  7  8  1  0
  8  9  1  0
  9 10  1  0
 10 11  1  6
 11 12  1  0
 12 13  1  0
 13 14  2  0
 14 15  1  0
 15 16  1  0
 15 17  2  0
 17 18  1  0
 18 19  2  0
 19 20  1  0
 20 21  1  0
 20 22  1  0
 22 23  2  0
 10 24  1  0
  6 25  2  0
 25  2  1  0
 24  7  1  0
 23 13  1  0
 23 18  1  0
M  END
>  <energy_score>  (894) 
-13.663434

>  <inchikey>  (894) 
None

>  <smiles>  (894) 
None

>  <ref_pdb>  (894) 
A1105b

>  <alias>  (894) 
None

>  <HIPPO Pose ID>  (894) 
498538

>  <name>  (894) 
P498538

>  <HIPPO Compound ID>  (894) 
293410

>  <ref_mols>  (894) 
A0497a,A1105b

>  <distance_score>  (894) 
1.993938

>  <inspiration_score>  (894) 
None

$$$$
P498539
     RDKit          3D

 25 28  0  0  0  0  0  0  0  0999 V2000
   19.3051   -9.1942   17.4140 C   0  0  0  0  0  0  0  0  0  0  0  0
   19.7976   -7.8085   17.1301 C   0  0  0  0  0  0  0  0  0  0  0  0
   19.9064   -7.3748   15.8225 C   0  0  0  0  0  0  0  0  0  0  0  0
   20.5693   -6.1840   15.5886 C   0  0  0  0  0  0  0  0  0  0  0  0
   21.0665   -5.4517   16.6620 C   0  0  0  0  0  0  0  0  0  0  0  0
   20.8342   -5.8779   17.9690 C   0  0  0  0  0  0  0  0  0  0  0  0
   21.1852   -5.0862   19.0829 N   0  0  0  0  0  0  0  0  0  0  0  0
   20.9422   -3.6264   18.9310 C   0  0  0  0  0  0  0  0  0  0  0  0
   19.9589   -3.2475   20.0454 C   0  0  0  0  0  0  0  0  0  0  0  0
   19.2809   -4.5637   20.4309 C   0  0  1  0  0  0  0  0  0  0  0  0
   18.2081   -5.1059   19.5760 N   0  0  0  0  0  0  0  0  0  0  0  0
   17.4385   -4.1658   18.7950 C   0  0  1  0  0  0  0  0  0  0  0  0
   18.2319   -3.5719   17.7928 O   0  0  0  0  0  0  0  0  0  0  0  0
   16.2159   -4.7679   18.1476 C   0  0  0  0  0  0  0  0  0  0  0  0
   15.1806   -3.8726   17.7567 C   0  0  0  0  0  0  0  0  0  0  0  0
   13.9584   -4.2527   17.1531 C   0  0  0  0  0  0  0  0  0  0  0  0
   13.6274   -5.5860   16.8847 C   0  0  0  0  0  0  0  0  0  0  0  0
   14.5889   -6.5210   17.2737 C   0  0  0  0  0  0  0  0  0  0  0  0
   14.5522   -7.8601   17.1648 N   0  0  0  0  0  0  0  0  0  0  0  0
   15.6434   -8.2673   17.8334 N   0  0  0  0  0  0  0  0  0  0  0  0
   15.7972   -9.6722   18.1192 C   0  0  0  0  0  0  0  0  0  0  0  0
   16.4765   -7.2577   18.2173 C   0  0  0  0  0  0  0  0  0  0  0  0
   15.8343   -6.0973   17.8729 C   0  0  0  0  0  0  0  0  0  0  0  0
   20.5257   -5.4940   20.3482 C   0  0  0  0  0  0  0  0  0  0  0  0
   20.2355   -7.0764   18.1833 N   0  0  0  0  0  0  0  0  0  0  0  0
  1  2  1  0
  2  3  2  0
  3  4  1  0
  4  5  2  0
  5  6  1  0
  6  7  1  0
  7  8  1  0
  8  9  1  0
  9 10  1  0
 10 11  1  6
 11 12  1  0
 12 13  1  6
 12 14  1  0
 14 15  2  0
 15 16  1  0
 16 17  2  0
 17 18  1  0
 18 19  2  0
 19 20  1  0
 20 21  1  0
 20 22  1  0
 22 23  2  0
 10 24  1  0
  6 25  2  0
 25  2  1  0
 24  7  1  0
 23 14  1  0
 23 18  1  0
M  END
>  <energy_score>  (895) 
-25.722664

>  <inchikey>  (895) 
None

>  <smiles>  (895) 
None

>  <ref_pdb>  (895) 
A1105b

>  <alias>  (895) 
None

>  <HIPPO Pose ID>  (895) 
498539

>  <name>  (895) 
P498539

>  <HIPPO Compound ID>  (895) 
293411

>  <ref_mols>  (895) 
A0497a,A1105b

>  <distance_score>  (895) 
1.191765

>  <inspiration_score>  (895) 
None

$$$$
P498540
     RDKit          3D

 25 28  0  0  0  0  0  0  0  0999 V2000
   18.1665   -7.6979   16.1147 C   0  0  0  0  0  0  0  0  0  0  0  0
   19.4133   -6.9097   16.3159 C   0  0  0  0  0  0  0  0  0  0  0  0
   20.1873   -6.5962   15.2154 C   0  0  0  0  0  0  0  0  0  0  0  0
   21.3135   -5.8202   15.4029 C   0  0  0  0  0  0  0  0  0  0  0  0
   21.6192   -5.3696   16.6782 C   0  0  0  0  0  0  0  0  0  0  0  0
   20.7898   -5.6894   17.7516 C   0  0  0  0  0  0  0  0  0  0  0  0
   21.0646   -5.1384   19.0190 N   0  0  0  0  0  0  0  0  0  0  0  0
   21.0259   -3.6583   19.0145 C   0  0  0  0  0  0  0  0  0  0  0  0
   20.1272   -3.2344   20.1775 C   0  0  0  0  0  0  0  0  0  0  0  0
   19.3078   -4.4656   20.5393 C   0  0  1  0  0  0  0  0  0  0  0  0
   17.9089   -4.5763   20.1144 N   0  0  0  0  0  0  0  0  0  0  0  0
   17.4636   -3.9505   18.8755 C   0  0  1  0  0  0  0  0  0  0  0  0
   18.4486   -3.8292   17.8991 O   0  0  0  0  0  0  0  0  0  0  0  0
   16.2480   -4.6058   18.2604 C   0  0  0  0  0  0  0  0  0  0  0  0
   15.1984   -3.7879   17.7643 C   0  0  0  0  0  0  0  0  0  0  0  0
   14.0076   -4.2590   17.1465 C   0  0  0  0  0  0  0  0  0  0  0  0
   13.7226   -5.6204   16.9678 C   0  0  0  0  0  0  0  0  0  0  0  0
   14.6922   -6.4815   17.4865 C   0  0  0  0  0  0  0  0  0  0  0  0
   14.6986   -7.8263   17.5223 N   0  0  0  0  0  0  0  0  0  0  0  0
   15.7646   -8.1239   18.2873 N   0  0  0  0  0  0  0  0  0  0  0  0
   15.9854   -9.4932   18.6819 C   0  0  0  0  0  0  0  0  0  0  0  0
   16.5510   -7.0530   18.5987 C   0  0  0  0  0  0  0  0  0  0  0  0
   15.8987   -5.9599   18.0919 C   0  0  0  0  0  0  0  0  0  0  0  0
   20.2163   -5.6347   20.1075 C   0  0  0  0  0  0  0  0  0  0  0  0
   19.7097   -6.4845   17.5675 N   0  0  0  0  0  0  0  0  0  0  0  0
  1  2  1  0
  2  3  2  0
  3  4  1  0
  4  5  2  0
  5  6  1  0
  6  7  1  0
  7  8  1  0
  8  9  1  0
  9 10  1  0
 10 11  1  6
 11 12  1  0
 12 13  1  6
 12 14  1  0
 14 15  2  0
 15 16  1  0
 16 17  2  0
 17 18  1  0
 18 19  2  0
 19 20  1  0
 20 21  1  0
 20 22  1  0
 22 23  2  0
 10 24  1  0
  6 25  2  0
 25  2  1  0
 24  7  1  0
 23 14  1  0
 23 18  1  0
M  END
>  <energy_score>  (896) 
-27.329354

>  <inchikey>  (896) 
None

>  <smiles>  (896) 
None

>  <ref_pdb>  (896) 
A1105b

>  <alias>  (896) 
None

>  <HIPPO Pose ID>  (896) 
498540

>  <name>  (896) 
P498540

>  <HIPPO Compound ID>  (896) 
293411

>  <ref_mols>  (896) 
A0497a,A1105b

>  <distance_score>  (896) 
1.833472

>  <inspiration_score>  (896) 
None

$$$$
P498541
     RDKit          3D

 25 28  0  0  0  0  0  0  0  0999 V2000
   19.2422   -8.6354   17.5361 C   0  0  0  0  0  0  0  0  0  0  0  0
   20.0026   -7.4533   17.0579 C   0  0  0  0  0  0  0  0  0  0  0  0
   20.0385   -7.1407   15.7109 C   0  0  0  0  0  0  0  0  0  0  0  0
   20.7819   -6.0404   15.3188 C   0  0  0  0  0  0  0  0  0  0  0  0
   21.3932   -5.2500   16.2843 C   0  0  0  0  0  0  0  0  0  0  0  0
   21.2587   -5.5873   17.6307 C   0  0  0  0  0  0  0  0  0  0  0  0
   21.5130   -4.5775   18.6199 N   0  0  0  0  0  0  0  0  0  0  0  0
   21.5058   -5.1240   19.9945 C   0  0  0  0  0  0  0  0  0  0  0  0
   20.1027   -4.8967   20.5827 C   0  0  0  0  0  0  0  0  0  0  0  0
   19.2586   -4.4928   19.3820 C   0  0  1  0  0  0  0  0  0  0  0  0
   17.9895   -3.9208   19.7762 N   0  0  0  0  0  0  0  0  0  0  0  0
   17.1308   -3.5945   18.6519 C   0  0  1  0  0  0  0  0  0  0  0  0
   17.8581   -3.0106   17.5966 O   0  0  0  0  0  0  0  0  0  0  0  0
   16.1172   -4.5886   18.1207 C   0  0  0  0  0  0  0  0  0  0  0  0
   14.9369   -4.0050   17.5697 C   0  0  0  0  0  0  0  0  0  0  0  0
   13.8404   -4.7022   17.0069 C   0  0  0  0  0  0  0  0  0  0  0  0
   13.7729   -6.0952   16.9253 C   0  0  0  0  0  0  0  0  0  0  0  0
   14.8693   -6.7372   17.4977 C   0  0  0  0  0  0  0  0  0  0  0  0
   15.0579   -8.0567   17.6539 N   0  0  0  0  0  0  0  0  0  0  0  0
   16.1009   -8.1296   18.4886 N   0  0  0  0  0  0  0  0  0  0  0  0
   16.3633   -9.3814   19.1579 C   0  0  0  0  0  0  0  0  0  0  0  0
   16.7646   -6.9448   18.6641 C   0  0  0  0  0  0  0  0  0  0  0  0
   15.9920   -5.9914   18.0542 C   0  0  0  0  0  0  0  0  0  0  0  0
   20.3168   -3.6832   18.5804 C   0  0  0  0  0  0  0  0  0  0  0  0
   20.6560   -6.7394   18.0004 N   0  0  0  0  0  0  0  0  0  0  0  0
  1  2  1  0
  2  3  2  0
  3  4  1  0
  4  5  2  0
  5  6  1  0
  6  7  1  0
  7  8  1  0
  8  9  1  0
  9 10  1  0
 10 11  1  1
 11 12  1  0
 12 13  1  6
 12 14  1  0
 14 15  2  0
 15 16  1  0
 16 17  2  0
 17 18  1  0
 18 19  2  0
 19 20  1  0
 20 21  1  0
 20 22  1  0
 22 23  2  0
 10 24  1  0
  6 25  2  0
 25  2  1  0
 24  7  1  0
 23 14  1  0
 23 18  1  0
M  END
>  <energy_score>  (897) 
-14.111201

>  <inchikey>  (897) 
None

>  <smiles>  (897) 
None

>  <ref_pdb>  (897) 
A1105b

>  <alias>  (897) 
None

>  <HIPPO Pose ID>  (897) 
498541

>  <name>  (897) 
P498541

>  <HIPPO Compound ID>  (897) 
293411

>  <ref_mols>  (897) 
A0497a,A1105b

>  <distance_score>  (897) 
1.693197

>  <inspiration_score>  (897) 
None

$$$$
P498542
     RDKit          3D

 25 28  0  0  0  0  0  0  0  0999 V2000
   19.1080   -8.8368   18.6712 C   0  0  0  0  0  0  0  0  0  0  0  0
   19.6999   -7.9701   17.6164 C   0  0  0  0  0  0  0  0  0  0  0  0
   19.5017   -8.2021   16.2672 C   0  0  0  0  0  0  0  0  0  0  0  0
   20.1822   -7.4047   15.3550 C   0  0  0  0  0  0  0  0  0  0  0  0
   21.0063   -6.3831   15.8117 C   0  0  0  0  0  0  0  0  0  0  0  0
   21.1000   -6.1569   17.1831 C   0  0  0  0  0  0  0  0  0  0  0  0
   21.6035   -4.8851   17.6374 N   0  0  0  0  0  0  0  0  0  0  0  0
   21.6709   -4.8190   19.1225 C   0  0  0  0  0  0  0  0  0  0  0  0
   20.3370   -4.2310   19.6170 C   0  0  0  0  0  0  0  0  0  0  0  0
   19.4792   -4.1971   18.3551 C   0  0  1  0  0  0  0  0  0  0  0  0
   18.3254   -3.3471   18.3917 N   0  0  0  0  0  0  0  0  0  0  0  0
   17.2848   -3.9868   19.1237 C   0  0  1  0  0  0  0  0  0  0  0  0
   16.8806   -3.0079   20.0425 O   0  0  0  0  0  0  0  0  0  0  0  0
   16.1422   -4.4645   18.2685 C   0  0  0  0  0  0  0  0  0  0  0  0
   15.1535   -3.5653   17.8139 C   0  0  0  0  0  0  0  0  0  0  0  0
   13.9671   -3.9322   17.1244 C   0  0  0  0  0  0  0  0  0  0  0  0
   13.6117   -5.2546   16.8460 C   0  0  0  0  0  0  0  0  0  0  0  0
   14.5449   -6.1930   17.2732 C   0  0  0  0  0  0  0  0  0  0  0  0
   14.4930   -7.5314   17.1786 N   0  0  0  0  0  0  0  0  0  0  0  0
   15.5109   -7.9441   17.9485 N   0  0  0  0  0  0  0  0  0  0  0  0
   15.5425   -9.3294   18.3475 C   0  0  0  0  0  0  0  0  0  0  0  0
   16.3485   -6.9437   18.3526 C   0  0  0  0  0  0  0  0  0  0  0  0
   15.7597   -5.7809   17.9356 C   0  0  0  0  0  0  0  0  0  0  0  0
   20.5409   -3.9007   17.2852 C   0  0  0  0  0  0  0  0  0  0  0  0
   20.4978   -6.9875   18.0701 N   0  0  0  0  0  0  0  0  0  0  0  0
  1  2  1  0
  2  3  2  0
  3  4  1  0
  4  5  2  0
  5  6  1  0
  6  7  1  0
  7  8  1  0
  8  9  1  0
  9 10  1  0
 10 11  1  1
 11 12  1  0
 12 13  1  1
 12 14  1  0
 14 15  2  0
 15 16  1  0
 16 17  2  0
 17 18  1  0
 18 19  2  0
 19 20  1  0
 20 21  1  0
 20 22  1  0
 22 23  2  0
 10 24  1  0
  6 25  2  0
 25  2  1  0
 24  7  1  0
 23 14  1  0
 23 18  1  0
M  END
>  <energy_score>  (898) 
-18.923379

>  <inchikey>  (898) 
None

>  <smiles>  (898) 
None

>  <ref_pdb>  (898) 
A1105b

>  <alias>  (898) 
None

>  <HIPPO Pose ID>  (898) 
498542

>  <name>  (898) 
P498542

>  <HIPPO Compound ID>  (898) 
293411

>  <ref_mols>  (898) 
A0497a,A1105b

>  <distance_score>  (898) 
1.964902

>  <inspiration_score>  (898) 
None

$$$$
P498543
     RDKit          3D

 25 28  0  0  0  0  0  0  0  0999 V2000
   16.1586   -6.6516   17.8449 C   0  0  0  0  0  0  0  0  0  0  0  0
   17.2536   -7.1165   17.0298 N   0  0  0  0  0  0  0  0  0  0  0  0
   18.5188   -6.5985   16.9887 C   0  0  0  0  0  0  0  0  0  0  0  0
   19.1505   -7.2608   15.9678 C   0  0  0  0  0  0  0  0  0  0  0  0
   20.4466   -7.0392   15.4564 C   0  0  0  0  0  0  0  0  0  0  0  0
   21.4846   -6.0127   15.8378 C   0  0  2  0  0  0  0  0  0  0  0  0
   22.6712   -6.2034   15.0904 O   0  0  0  0  0  0  0  0  0  0  0  0
   21.9102   -6.0960   17.2259 N   0  0  0  0  0  0  0  0  0  0  0  0
   22.4267   -4.7888   17.6834 C   0  0  2  0  0  0  0  0  0  0  0  0
   22.8978   -4.8736   19.1385 C   0  0  0  0  0  0  0  0  0  0  0  0
   22.5925   -3.4822   19.6790 C   0  0  0  0  0  0  0  0  0  0  0  0
   21.3017   -3.1449   19.0580 N   0  0  0  0  0  0  0  0  0  0  0  0
   20.1591   -3.5129   19.7900 C   0  0  0  0  0  0  0  0  0  0  0  0
   20.3620   -4.0315   21.0272 N   0  0  0  0  0  0  0  0  0  0  0  0
   19.3085   -4.3225   21.8157 C   0  0  0  0  0  0  0  0  0  0  0  0
   18.0016   -4.1260   21.4419 C   0  0  0  0  0  0  0  0  0  0  0  0
   17.7658   -3.6228   20.1760 C   0  0  0  0  0  0  0  0  0  0  0  0
   18.8403   -3.3160   19.3439 C   0  0  0  0  0  0  0  0  0  0  0  0
   18.4138   -2.6815   17.8179 Cl  0  0  0  0  0  0  0  0  0  0  0  0
   21.3716   -3.6503   17.6801 C   0  0  0  0  0  0  0  0  0  0  0  0
   20.6580   -7.8860   14.3306 C   0  0  0  0  0  0  0  0  0  0  0  0
   19.7248   -8.8274   13.8121 C   0  0  0  0  0  0  0  0  0  0  0  0
   18.4524   -9.0307   14.3640 C   0  0  0  0  0  0  0  0  0  0  0  0
   18.1749   -8.2100   15.4642 C   0  0  0  0  0  0  0  0  0  0  0  0
   17.0483   -8.1467   16.1907 N   0  0  0  0  0  0  0  0  0  0  0  0
  1  2  1  0
  2  3  1  0
  3  4  2  0
  4  5  1  0
  5  6  1  0
  6  7  1  6
  6  8  1  0
  9  8  1  1
  9 10  1  0
 10 11  1  0
 11 12  1  0
 12 13  1  0
 13 14  2  0
 14 15  1  0
 15 16  2  0
 16 17  1  0
 17 18  2  0
 18 19  1  0
 12 20  1  0
  5 21  2  0
 21 22  1  0
 22 23  2  0
 23 24  1  0
 24 25  2  0
 25  2  1  0
 24  4  1  0
 20  9  1  0
 18 13  1  0
M  END
>  <energy_score>  (899) 
-42.954933

>  <inchikey>  (899) 
None

>  <smiles>  (899) 
None

>  <ref_pdb>  (899) 
A1105b

>  <alias>  (899) 
None

>  <HIPPO Pose ID>  (899) 
498543

>  <name>  (899) 
P498543

>  <HIPPO Compound ID>  (899) 
293412

>  <ref_mols>  (899) 
A0497a,A1105b

>  <distance_score>  (899) 
1.493864

>  <inspiration_score>  (899) 
None

$$$$
P498544
     RDKit          3D

 25 28  0  0  0  0  0  0  0  0999 V2000
   15.4726   -8.9464   17.3340 C   0  0  0  0  0  0  0  0  0  0  0  0
   16.7844   -8.7679   16.7598 N   0  0  0  0  0  0  0  0  0  0  0  0
   17.9713   -8.7453   17.4320 C   0  0  0  0  0  0  0  0  0  0  0  0
   18.8956   -8.3552   16.4992 C   0  0  0  0  0  0  0  0  0  0  0  0
   20.2513   -8.0843   16.7334 C   0  0  0  0  0  0  0  0  0  0  0  0
   20.9755   -8.2423   18.0425 C   0  0  1  0  0  0  0  0  0  0  0  0
   22.3627   -8.4496   17.8483 O   0  0  0  0  0  0  0  0  0  0  0  0
   20.7878   -7.0731   18.8543 N   0  0  0  0  0  0  0  0  0  0  0  0
   21.1076   -7.2463   20.2752 C   0  0  2  0  0  0  0  0  0  0  0  0
   20.0368   -8.0346   21.0321 C   0  0  0  0  0  0  0  0  0  0  0  0
   18.8870   -7.0352   21.1978 C   0  0  0  0  0  0  0  0  0  0  0  0
   19.5176   -5.7198   21.1781 N   0  0  0  0  0  0  0  0  0  0  0  0
   19.0663   -4.5949   20.5139 C   0  0  0  0  0  0  0  0  0  0  0  0
   19.6065   -3.4526   21.0228 N   0  0  0  0  0  0  0  0  0  0  0  0
   19.3162   -2.2670   20.4553 C   0  0  0  0  0  0  0  0  0  0  0  0
   18.4805   -2.1220   19.3763 C   0  0  0  0  0  0  0  0  0  0  0  0
   17.9172   -3.2634   18.8428 C   0  0  0  0  0  0  0  0  0  0  0  0
   18.2089   -4.5112   19.4014 C   0  0  0  0  0  0  0  0  0  0  0  0
   17.5062   -5.8105   18.5307 Cl  0  0  0  0  0  0  0  0  0  0  0  0
   20.9769   -5.8889   21.0023 C   0  0  0  0  0  0  0  0  0  0  0  0
   20.8664   -7.6290   15.5341 C   0  0  0  0  0  0  0  0  0  0  0  0
   20.2182   -7.5767   14.2621 C   0  0  0  0  0  0  0  0  0  0  0  0
   18.8714   -7.9416   14.0642 C   0  0  0  0  0  0  0  0  0  0  0  0
   18.1964   -8.2913   15.2418 C   0  0  0  0  0  0  0  0  0  0  0  0
   16.9077   -8.6306   15.4246 N   0  0  0  0  0  0  0  0  0  0  0  0
  1  2  1  0
  2  3  1  0
  3  4  2  0
  4  5  1  0
  5  6  1  0
  6  7  1  6
  6  8  1  0
  9  8  1  6
  9 10  1  0
 10 11  1  0
 11 12  1  0
 12 13  1  0
 13 14  2  0
 14 15  1  0
 15 16  2  0
 16 17  1  0
 17 18  2  0
 18 19  1  0
 12 20  1  0
  5 21  2  0
 21 22  1  0
 22 23  2  0
 23 24  1  0
 24 25  2  0
 25  2  1  0
 24  4  1  0
 20  9  1  0
 18 13  1  0
M  END
>  <energy_score>  (900) 
-33.636812

>  <inchikey>  (900) 
None

>  <smiles>  (900) 
None

>  <ref_pdb>  (900) 
A1105b

>  <alias>  (900) 
None

>  <HIPPO Pose ID>  (900) 
498544

>  <name>  (900) 
P498544

>  <HIPPO Compound ID>  (900) 
293412

>  <ref_mols>  (900) 
A0497a,A1105b

>  <distance_score>  (900) 
1.411076

>  <inspiration_score>  (900) 
None

$$$$
P498545
     RDKit          3D

 25 28  0  0  0  0  0  0  0  0999 V2000
   15.7409   -7.1658   17.5965 C   0  0  0  0  0  0  0  0  0  0  0  0
   16.9697   -7.4101   16.8784 N   0  0  0  0  0  0  0  0  0  0  0  0
   18.0087   -6.5401   16.7335 C   0  0  0  0  0  0  0  0  0  0  0  0
   18.9276   -7.1800   15.9431 C   0  0  0  0  0  0  0  0  0  0  0  0
   20.1601   -6.6823   15.4683 C   0  0  0  0  0  0  0  0  0  0  0  0
   20.7507   -5.3059   15.6047 C   0  0  2  0  0  0  0  0  0  0  0  0
   20.8398   -4.8018   14.2777 O   0  0  0  0  0  0  0  0  0  0  0  0
   22.0882   -5.2121   16.1885 N   0  0  0  0  0  0  0  0  0  0  0  0
   22.2343   -5.8375   17.5250 C   0  0  1  0  0  0  0  0  0  0  0  0
   23.3026   -5.0682   18.3374 C   0  0  0  0  0  0  0  0  0  0  0  0
   22.5235   -3.9839   19.1250 C   0  0  0  0  0  0  0  0  0  0  0  0
   21.1193   -4.2559   18.8139 N   0  0  0  0  0  0  0  0  0  0  0  0
   20.1324   -3.9639   19.7598 C   0  0  0  0  0  0  0  0  0  0  0  0
   20.3253   -4.3645   21.0363 N   0  0  0  0  0  0  0  0  0  0  0  0
   19.2723   -4.3086   21.8775 C   0  0  0  0  0  0  0  0  0  0  0  0
   18.0136   -3.8711   21.5132 C   0  0  0  0  0  0  0  0  0  0  0  0
   17.8238   -3.4199   20.2170 C   0  0  0  0  0  0  0  0  0  0  0  0
   18.8945   -3.4523   19.3358 C   0  0  0  0  0  0  0  0  0  0  0  0
   18.6524   -2.8468   17.7557 Cl  0  0  0  0  0  0  0  0  0  0  0  0
   21.0559   -5.6874   18.4951 C   0  0  0  0  0  0  0  0  0  0  0  0
   20.7956   -7.6537   14.6511 C   0  0  0  0  0  0  0  0  0  0  0  0
   20.2498   -8.9286   14.3314 C   0  0  0  0  0  0  0  0  0  0  0  0
   19.0044   -9.3798   14.8085 C   0  0  0  0  0  0  0  0  0  0  0  0
   18.3423   -8.4666   15.6419 C   0  0  0  0  0  0  0  0  0  0  0  0
   17.1508   -8.5904   16.2551 N   0  0  0  0  0  0  0  0  0  0  0  0
  1  2  1  0
  2  3  1  0
  3  4  2  0
  4  5  1  0
  5  6  1  0
  6  7  1  6
  6  8  1  0
  9  8  1  6
  9 10  1  0
 10 11  1  0
 11 12  1  0
 12 13  1  0
 13 14  2  0
 14 15  1  0
 15 16  2  0
 16 17  1  0
 17 18  2  0
 18 19  1  0
 12 20  1  0
  5 21  2  0
 21 22  1  0
 22 23  2  0
 23 24  1  0
 24 25  2  0
 25  2  1  0
 24  4  1  0
 20  9  1  0
 18 13  1  0
M  END
>  <energy_score>  (901) 
-42.671589

>  <inchikey>  (901) 
None

>  <smiles>  (901) 
None

>  <ref_pdb>  (901) 
A1105b

>  <alias>  (901) 
None

>  <HIPPO Pose ID>  (901) 
498545

>  <name>  (901) 
P498545

>  <HIPPO Compound ID>  (901) 
293412

>  <ref_mols>  (901) 
A0497a,A1105b

>  <distance_score>  (901) 
1.479269

>  <inspiration_score>  (901) 
None

$$$$
P498546
     RDKit          3D

 25 28  0  0  0  0  0  0  0  0999 V2000
   15.5861   -8.0928   17.9554 C   0  0  0  0  0  0  0  0  0  0  0  0
   16.8630   -8.0552   17.2815 N   0  0  0  0  0  0  0  0  0  0  0  0
   18.0904   -7.9484   17.8683 C   0  0  0  0  0  0  0  0  0  0  0  0
   18.9784   -7.8439   16.8303 C   0  0  0  0  0  0  0  0  0  0  0  0
   20.3737   -7.6976   16.9248 C   0  0  0  0  0  0  0  0  0  0  0  0
   21.2436   -7.7426   18.1620 C   0  0  2  0  0  0  0  0  0  0  0  0
   20.9578   -8.9175   18.9031 O   0  0  0  0  0  0  0  0  0  0  0  0
   21.0790   -6.5501   18.9556 N   0  0  0  0  0  0  0  0  0  0  0  0
   21.5858   -6.6117   20.3364 C   0  0  2  0  0  0  0  0  0  0  0  0
   20.6036   -7.2888   21.3177 C   0  0  0  0  0  0  0  0  0  0  0  0
   19.9960   -6.1741   22.1766 C   0  0  0  0  0  0  0  0  0  0  0  0
   20.3668   -4.9177   21.5303 N   0  0  0  0  0  0  0  0  0  0  0  0
   19.5284   -4.3245   20.5725 C   0  0  0  0  0  0  0  0  0  0  0  0
   19.9774   -3.1575   20.0519 N   0  0  0  0  0  0  0  0  0  0  0  0
   19.3717   -2.6583   18.9513 C   0  0  0  0  0  0  0  0  0  0  0  0
   18.2789   -3.2367   18.3400 C   0  0  0  0  0  0  0  0  0  0  0  0
   17.7502   -4.3750   18.9178 C   0  0  0  0  0  0  0  0  0  0  0  0
   18.3679   -4.9128   20.0450 C   0  0  0  0  0  0  0  0  0  0  0  0
   17.8930   -6.0787   20.5095 F   0  0  0  0  0  0  0  0  0  0  0  0
   21.6985   -5.1787   20.9282 C   0  0  0  0  0  0  0  0  0  0  0  0
   20.9341   -7.5657   15.6240 C   0  0  0  0  0  0  0  0  0  0  0  0
   20.1939   -7.6640   14.4054 C   0  0  0  0  0  0  0  0  0  0  0  0
   18.8059   -7.8993   14.3603 C   0  0  0  0  0  0  0  0  0  0  0  0
   18.1961   -7.9594   15.6221 C   0  0  0  0  0  0  0  0  0  0  0  0
   16.9042   -8.1565   15.9392 N   0  0  0  0  0  0  0  0  0  0  0  0
  1  2  1  0
  2  3  1  0
  3  4  2  0
  4  5  1  0
  5  6  1  0
  6  7  1  1
  6  8  1  0
  9  8  1  6
  9 10  1  0
 10 11  1  0
 11 12  1  0
 12 13  1  0
 13 14  2  0
 14 15  1  0
 15 16  2  0
 16 17  1  0
 17 18  2  0
 18 19  1  0
 12 20  1  0
  5 21  2  0
 21 22  1  0
 22 23  2  0
 23 24  1  0
 24 25  2  0
 25  2  1  0
 24  4  1  0
 20  9  1  0
 18 13  1  0
M  END
>  <energy_score>  (902) 
-36.837213

>  <inchikey>  (902) 
None

>  <smiles>  (902) 
None

>  <ref_pdb>  (902) 
A1105b

>  <alias>  (902) 
None

>  <HIPPO Pose ID>  (902) 
498546

>  <name>  (902) 
P498546

>  <HIPPO Compound ID>  (902) 
293413

>  <ref_mols>  (902) 
A0497a,A1105b

>  <distance_score>  (902) 
0.922575

>  <inspiration_score>  (902) 
None

$$$$
P498547
     RDKit          3D

 25 28  0  0  0  0  0  0  0  0999 V2000
   16.0080   -7.4604   18.1949 C   0  0  0  0  0  0  0  0  0  0  0  0
   17.1653   -7.5470   17.3383 N   0  0  0  0  0  0  0  0  0  0  0  0
   18.4496   -7.2163   17.6700 C   0  0  0  0  0  0  0  0  0  0  0  0
   19.1787   -7.4185   16.5266 C   0  0  0  0  0  0  0  0  0  0  0  0
   20.5614   -7.2369   16.3429 C   0  0  0  0  0  0  0  0  0  0  0  0
   21.6620   -6.9632   17.3329 C   0  0  2  0  0  0  0  0  0  0  0  0
   21.5569   -7.8844   18.3974 O   0  0  0  0  0  0  0  0  0  0  0  0
   21.6779   -5.6575   17.9348 N   0  0  0  0  0  0  0  0  0  0  0  0
   21.9300   -4.5599   16.9763 C   0  0  2  0  0  0  0  0  0  0  0  0
   22.9508   -3.5611   17.5263 C   0  0  0  0  0  0  0  0  0  0  0  0
   22.1599   -2.7770   18.5747 C   0  0  0  0  0  0  0  0  0  0  0  0
   20.7730   -2.7838   18.0865 N   0  0  0  0  0  0  0  0  0  0  0  0
   19.7782   -3.0956   19.0316 C   0  0  0  0  0  0  0  0  0  0  0  0
   20.1315   -3.3649   20.3152 N   0  0  0  0  0  0  0  0  0  0  0  0
   19.1624   -3.6756   21.1997 C   0  0  0  0  0  0  0  0  0  0  0  0
   17.8204   -3.7206   20.8836 C   0  0  0  0  0  0  0  0  0  0  0  0
   17.4438   -3.4301   19.5810 C   0  0  0  0  0  0  0  0  0  0  0  0
   18.4254   -3.1060   18.6601 C   0  0  0  0  0  0  0  0  0  0  0  0
   18.0416   -2.7723   17.4217 F   0  0  0  0  0  0  0  0  0  0  0  0
   20.6953   -3.6419   16.8771 C   0  0  0  0  0  0  0  0  0  0  0  0
   20.8965   -7.4662   14.9751 C   0  0  0  0  0  0  0  0  0  0  0  0
   19.9854   -7.8876   13.9621 C   0  0  0  0  0  0  0  0  0  0  0  0
   18.6248   -8.1339   14.2091 C   0  0  0  0  0  0  0  0  0  0  0  0
   18.2293   -7.8711   15.5290 C   0  0  0  0  0  0  0  0  0  0  0  0
   17.0138   -8.0067   16.0834 N   0  0  0  0  0  0  0  0  0  0  0  0
  1  2  1  0
  2  3  1  0
  3  4  2  0
  4  5  1  0
  5  6  1  0
  6  7  1  1
  6  8  1  0
  9  8  1  1
  9 10  1  0
 10 11  1  0
 11 12  1  0
 12 13  1  0
 13 14  2  0
 14 15  1  0
 15 16  2  0
 16 17  1  0
 17 18  2  0
 18 19  1  0
 12 20  1  0
  5 21  2  0
 21 22  1  0
 22 23  2  0
 23 24  1  0
 24 25  2  0
 25  2  1  0
 24  4  1  0
 20  9  1  0
 18 13  1  0
M  END
>  <energy_score>  (903) 
-51.150705

>  <inchikey>  (903) 
None

>  <smiles>  (903) 
None

>  <ref_pdb>  (903) 
A1105b

>  <alias>  (903) 
None

>  <HIPPO Pose ID>  (903) 
498547

>  <name>  (903) 
P498547

>  <HIPPO Compound ID>  (903) 
293413

>  <ref_mols>  (903) 
A0497a,A1105b

>  <distance_score>  (903) 
1.622979

>  <inspiration_score>  (903) 
None

$$$$
P498548
     RDKit          3D

 25 28  0  0  0  0  0  0  0  0999 V2000
   15.5506   -8.2330   17.9146 C   0  0  0  0  0  0  0  0  0  0  0  0
   16.8396   -8.1546   17.2680 N   0  0  0  0  0  0  0  0  0  0  0  0
   18.0562   -8.0466   17.8806 C   0  0  0  0  0  0  0  0  0  0  0  0
   18.9772   -7.8932   16.8751 C   0  0  0  0  0  0  0  0  0  0  0  0
   20.3738   -7.7030   16.9692 C   0  0  0  0  0  0  0  0  0  0  0  0
   21.3679   -7.6575   18.1214 C   0  0  2  0  0  0  0  0  0  0  0  0
   22.4255   -8.5462   17.8080 O   0  0  0  0  0  0  0  0  0  0  0  0
   20.9464   -8.0850   19.4478 N   0  0  0  0  0  0  0  0  0  0  0  0
   20.3004   -6.9877   20.1522 C   0  0  1  0  0  0  0  0  0  0  0  0
   19.5661   -7.3873   21.4324 C   0  0  0  0  0  0  0  0  0  0  0  0
   19.2441   -6.0254   22.0889 C   0  0  0  0  0  0  0  0  0  0  0  0
   20.0927   -5.0205   21.3939 N   0  0  0  0  0  0  0  0  0  0  0  0
   19.4197   -4.2352   20.4065 C   0  0  0  0  0  0  0  0  0  0  0  0
   20.0885   -3.9929   19.2500 N   0  0  0  0  0  0  0  0  0  0  0  0
   19.4269   -3.5118   18.1772 C   0  0  0  0  0  0  0  0  0  0  0  0
   18.0906   -3.2002   18.1947 C   0  0  0  0  0  0  0  0  0  0  0  0
   17.4233   -3.3107   19.4011 C   0  0  0  0  0  0  0  0  0  0  0  0
   18.0945   -3.8054   20.5189 C   0  0  0  0  0  0  0  0  0  0  0  0
   17.4134   -3.9095   21.6692 F   0  0  0  0  0  0  0  0  0  0  0  0
   21.1517   -5.8273   20.7219 C   0  0  0  0  0  0  0  0  0  0  0  0
   20.9044   -7.5354   15.6443 C   0  0  0  0  0  0  0  0  0  0  0  0
   20.1749   -7.6360   14.4238 C   0  0  0  0  0  0  0  0  0  0  0  0
   18.8009   -7.9031   14.3826 C   0  0  0  0  0  0  0  0  0  0  0  0
   18.2001   -8.0007   15.6454 C   0  0  0  0  0  0  0  0  0  0  0  0
   16.9053   -8.2203   15.9313 N   0  0  0  0  0  0  0  0  0  0  0  0
  1  2  1  0
  2  3  1  0
  3  4  2  0
  4  5  1  0
  5  6  1  0
  6  7  1  6
  6  8  1  0
  9  8  1  1
  9 10  1  0
 10 11  1  0
 11 12  1  0
 12 13  1  0
 13 14  2  0
 14 15  1  0
 15 16  2  0
 16 17  1  0
 17 18  2  0
 18 19  1  0
 12 20  1  0
  5 21  2  0
 21 22  1  0
 22 23  2  0
 23 24  1  0
 24 25  2  0
 25  2  1  0
 24  4  1  0
 20  9  1  0
 18 13  1  0
M  END
>  <energy_score>  (904) 
-24.18065

>  <inchikey>  (904) 
None

>  <smiles>  (904) 
None

>  <ref_pdb>  (904) 
A1105b

>  <alias>  (904) 
None

>  <HIPPO Pose ID>  (904) 
498548

>  <name>  (904) 
P498548

>  <HIPPO Compound ID>  (904) 
293413

>  <ref_mols>  (904) 
A0497a,A1105b

>  <distance_score>  (904) 
1.989475

>  <inspiration_score>  (904) 
None

$$$$
P498549
     RDKit          3D

 25 28  0  0  0  0  0  0  0  0999 V2000
   15.5927   -7.6230   17.9866 C   0  0  0  0  0  0  0  0  0  0  0  0
   16.8454   -7.6322   17.2676 N   0  0  0  0  0  0  0  0  0  0  0  0
   18.0450   -7.1661   17.7282 C   0  0  0  0  0  0  0  0  0  0  0  0
   18.9091   -7.3001   16.6723 C   0  0  0  0  0  0  0  0  0  0  0  0
   20.2684   -6.9459   16.6419 C   0  0  0  0  0  0  0  0  0  0  0  0
   21.1252   -6.4766   17.7921 C   0  0  1  0  0  0  0  0  0  0  0  0
   21.9636   -7.5499   18.1926 O   0  0  0  0  0  0  0  0  0  0  0  0
   21.9513   -5.3341   17.4598 N   0  0  0  0  0  0  0  0  0  0  0  0
   22.7853   -4.8495   18.5743 C   0  0  1  0  0  0  0  0  0  0  0  0
   23.3797   -3.4951   18.1798 C   0  0  0  0  0  0  0  0  0  0  0  0
   22.2852   -2.4807   18.5352 C   0  0  0  0  0  0  0  0  0  0  0  0
   21.4646   -3.1272   19.5690 N   0  0  0  0  0  0  0  0  0  0  0  0
   20.0809   -3.2440   19.4190 C   0  0  0  0  0  0  0  0  0  0  0  0
   19.4055   -3.4557   20.5815 N   0  0  0  0  0  0  0  0  0  0  0  0
   18.0615   -3.5678   20.5355 C   0  0  0  0  0  0  0  0  0  0  0  0
   17.3284   -3.5442   19.3645 C   0  0  0  0  0  0  0  0  0  0  0  0
   18.0105   -3.3932   18.1736 C   0  0  0  0  0  0  0  0  0  0  0  0
   19.3861   -3.2160   18.1999 C   0  0  0  0  0  0  0  0  0  0  0  0
   20.0068   -3.0537   17.0231 F   0  0  0  0  0  0  0  0  0  0  0  0
   22.0542   -4.4421   19.8743 C   0  0  0  0  0  0  0  0  0  0  0  0
   20.8068   -7.2262   15.3515 C   0  0  0  0  0  0  0  0  0  0  0  0
   20.0768   -7.7936   14.2623 C   0  0  0  0  0  0  0  0  0  0  0  0
   18.7227   -8.1642   14.3512 C   0  0  0  0  0  0  0  0  0  0  0  0
   18.1421   -7.8966   15.6003 C   0  0  0  0  0  0  0  0  0  0  0  0
   16.8912   -8.1459   16.0233 N   0  0  0  0  0  0  0  0  0  0  0  0
  1  2  1  0
  2  3  1  0
  3  4  2  0
  4  5  1  0
  5  6  1  0
  6  7  1  6
  6  8  1  0
  9  8  1  6
  9 10  1  0
 10 11  1  0
 11 12  1  0
 12 13  1  0
 13 14  2  0
 14 15  1  0
 15 16  2  0
 16 17  1  0
 17 18  2  0
 18 19  1  0
 12 20  1  0
  5 21  2  0
 21 22  1  0
 22 23  2  0
 23 24  1  0
 24 25  2  0
 25  2  1  0
 24  4  1  0
 20  9  1  0
 18 13  1  0
M  END
>  <energy_score>  (905) 
-35.369669

>  <inchikey>  (905) 
None

>  <smiles>  (905) 
None

>  <ref_pdb>  (905) 
A1105b

>  <alias>  (905) 
None

>  <HIPPO Pose ID>  (905) 
498549

>  <name>  (905) 
P498549

>  <HIPPO Compound ID>  (905) 
293413

>  <ref_mols>  (905) 
A0497a,A1105b

>  <distance_score>  (905) 
1.022872

>  <inspiration_score>  (905) 
None

$$$$
P498550
     RDKit          3D

 25 28  0  0  0  0  0  0  0  0999 V2000
   15.6838   -7.5207   18.0421 C   0  0  0  0  0  0  0  0  0  0  0  0
   16.8777   -7.6049   17.2346 N   0  0  0  0  0  0  0  0  0  0  0  0
   18.1042   -7.0905   17.5510 C   0  0  0  0  0  0  0  0  0  0  0  0
   18.8881   -7.3452   16.4563 C   0  0  0  0  0  0  0  0  0  0  0  0
   20.2310   -6.9871   16.2749 C   0  0  0  0  0  0  0  0  0  0  0  0
   21.1656   -6.2990   17.2271 C   0  0  0  0  0  0  0  0  0  0  0  0
   21.7241   -5.1086   16.5910 N   0  0  0  0  0  0  0  0  0  0  0  0
   22.6844   -4.3530   17.4197 C   0  0  1  0  0  0  0  0  0  0  0  0
   22.7314   -2.9096   16.9017 C   0  0  0  0  0  0  0  0  0  0  0  0
   21.4483   -2.3007   17.4891 C   0  0  0  0  0  0  0  0  0  0  0  0
   21.2788   -3.0084   18.7580 N   0  0  0  0  0  0  0  0  0  0  0  0
   20.0727   -3.2594   19.3750 C   0  0  0  0  0  0  0  0  0  0  0  0
   20.1630   -3.8269   20.6085 N   0  0  0  0  0  0  0  0  0  0  0  0
   19.0413   -4.0330   21.3214 C   0  0  0  0  0  0  0  0  0  0  0  0
   17.7829   -3.7325   20.8540 C   0  0  0  0  0  0  0  0  0  0  0  0
   17.6619   -3.2165   19.5735 C   0  0  0  0  0  0  0  0  0  0  0  0
   18.8148   -2.9573   18.8424 C   0  0  0  0  0  0  0  0  0  0  0  0
   18.6675   -2.4108   17.6307 F   0  0  0  0  0  0  0  0  0  0  0  0
   22.2846   -4.0684   18.8855 C   0  0  0  0  0  0  0  0  0  0  0  0
   20.6694   -7.3724   14.9780 C   0  0  0  0  0  0  0  0  0  0  0  0
   19.8552   -8.0382   14.0162 C   0  0  0  0  0  0  0  0  0  0  0  0
   20.6199   -8.4495   12.3254 Br  0  0  0  0  0  0  0  0  0  0  0  0
   18.5205   -8.4140   14.2437 C   0  0  0  0  0  0  0  0  0  0  0  0
   18.0442   -8.0386   15.5079 C   0  0  0  0  0  0  0  0  0  0  0  0
   16.8298   -8.2389   16.0465 N   0  0  0  0  0  0  0  0  0  0  0  0
  1  2  1  0
  2  3  1  0
  3  4  2  0
  4  5  1  0
  5  6  1  0
  6  7  1  0
  8  7  1  6
  8  9  1  0
  9 10  1  0
 10 11  1  0
 11 12  1  0
 12 13  2  0
 13 14  1  0
 14 15  2  0
 15 16  1  0
 16 17  2  0
 17 18  1  0
 11 19  1  0
  5 20  2  0
 20 21  1  0
 21 22  1  0
 21 23  2  0
 23 24  1  0
 24 25  2  0
 25  2  1  0
 24  4  1  0
 19  8  1  0
 17 12  1  0
M  END
>  <energy_score>  (906) 
-38.952326

>  <inchikey>  (906) 
None

>  <smiles>  (906) 
None

>  <ref_pdb>  (906) 
A1105b

>  <alias>  (906) 
None

>  <HIPPO Pose ID>  (906) 
498550

>  <name>  (906) 
P498550

>  <HIPPO Compound ID>  (906) 
293414

>  <ref_mols>  (906) 
A0497a,A1105b

>  <distance_score>  (906) 
1.116072

>  <inspiration_score>  (906) 
None

$$$$
P498551
     RDKit          3D

 25 28  0  0  0  0  0  0  0  0999 V2000
   13.0392   -3.9860   17.1750 C   0  0  0  0  0  0  0  0  0  0  0  0
   14.3036   -4.0922   17.7813 N   0  0  0  0  0  0  0  0  0  0  0  0
   14.8893   -3.0005   18.2820 N   0  0  0  0  0  0  0  0  0  0  0  0
   16.1288   -3.4061   18.4766 C   0  0  0  0  0  0  0  0  0  0  0  0
   16.2667   -4.7656   18.1444 C   0  0  0  0  0  0  0  0  0  0  0  0
   17.3238   -5.6498   18.1727 C   0  0  0  0  0  0  0  0  0  0  0  0
   18.6813   -5.1189   18.4476 C   0  0  1  0  0  0  0  0  0  0  0  0
   18.8169   -3.8259   17.8801 O   0  0  0  0  0  0  0  0  0  0  0  0
   18.9958   -5.1032   19.8621 N   0  0  0  0  0  0  0  0  0  0  0  0
   20.4435   -4.9530   20.1482 C   0  0  2  0  0  0  0  0  0  0  0  0
   21.1811   -3.8044   19.4613 C   0  0  0  0  0  0  0  0  0  0  0  0
   21.6939   -4.3915   18.1316 C   0  0  0  0  0  0  0  0  0  0  0  0
   21.7742   -5.8620   18.3368 N   0  0  0  0  0  0  0  0  0  0  0  0
   21.2584   -6.7405   17.3680 C   0  0  0  0  0  0  0  0  0  0  0  0
   20.8042   -7.9443   17.8194 N   0  0  0  0  0  0  0  0  0  0  0  0
   20.0543   -8.7244   17.0081 C   0  0  0  0  0  0  0  0  0  0  0  0
   19.7241   -8.3932   15.7136 C   0  0  0  0  0  0  0  0  0  0  0  0
   20.2501   -7.2210   15.2063 C   0  0  0  0  0  0  0  0  0  0  0  0
   21.0360   -6.4067   16.0160 C   0  0  0  0  0  0  0  0  0  0  0  0
   21.4546   -5.2659   15.4564 F   0  0  0  0  0  0  0  0  0  0  0  0
   21.3548   -6.1449   19.7310 C   0  0  0  0  0  0  0  0  0  0  0  0
   17.0464   -7.0099   17.9286 C   0  0  0  0  0  0  0  0  0  0  0  0
   15.7741   -7.4532   17.5692 C   0  0  0  0  0  0  0  0  0  0  0  0
   14.7290   -6.5498   17.4473 C   0  0  0  0  0  0  0  0  0  0  0  0
   15.0317   -5.2228   17.7622 C   0  0  0  0  0  0  0  0  0  0  0  0
  1  2  1  0
  2  3  1  0
  3  4  2  0
  4  5  1  0
  5  6  2  0
  6  7  1  0
  7  8  1  1
  7  9  1  0
 10  9  1  6
 10 11  1  0
 11 12  1  0
 12 13  1  0
 13 14  1  0
 14 15  2  0
 15 16  1  0
 16 17  2  0
 17 18  1  0
 18 19  2  0
 19 20  1  0
 13 21  1  0
  6 22  1  0
 22 23  2  0
 23 24  1  0
 24 25  2  0
 25  2  1  0
 25  5  1  0
 21 10  1  0
 19 14  1  0
M  END
>  <energy_score>  (907) 
-22.37561

>  <inchikey>  (907) 
None

>  <smiles>  (907) 
None

>  <ref_pdb>  (907) 
A1105b

>  <alias>  (907) 
None

>  <HIPPO Pose ID>  (907) 
498551

>  <name>  (907) 
P498551

>  <HIPPO Compound ID>  (907) 
293415

>  <ref_mols>  (907) 
A0497a,A1105b

>  <distance_score>  (907) 
1.804632

>  <inspiration_score>  (907) 
None

$$$$
P498552
     RDKit          3D

 25 28  0  0  0  0  0  0  0  0999 V2000
   19.0317   -8.7161   17.9588 C   0  0  0  0  0  0  0  0  0  0  0  0
   19.6109   -7.4974   17.3277 C   0  0  0  0  0  0  0  0  0  0  0  0
   19.8534   -7.4440   15.9705 C   0  0  0  0  0  0  0  0  0  0  0  0
   20.5068   -6.3288   15.4727 C   0  0  0  0  0  0  0  0  0  0  0  0
   20.8619   -5.2934   16.3336 C   0  0  0  0  0  0  0  0  0  0  0  0
   20.5302   -5.3686   17.6839 C   0  0  0  0  0  0  0  0  0  0  0  0
   20.7306   -4.2809   18.5439 N   0  0  0  0  0  0  0  0  0  0  0  0
   20.2917   -2.9678   18.0182 C   0  0  0  0  0  0  0  0  0  0  0  0
   19.6763   -2.2416   19.2163 C   0  0  0  0  0  0  0  0  0  0  0  0
   19.0818   -3.3633   20.0611 C   0  0  1  0  0  0  0  0  0  0  0  0
   17.6902   -3.6106   19.6091 N   0  0  0  0  0  0  0  0  0  0  0  0
   17.5170   -4.7392   18.7199 C   0  0  1  0  0  0  0  0  0  0  0  0
   17.8117   -5.8496   19.5171 O   0  0  0  0  0  0  0  0  0  0  0  0
   16.1253   -4.9512   18.1500 C   0  0  0  0  0  0  0  0  0  0  0  0
   15.3266   -3.8485   17.8029 C   0  0  0  0  0  0  0  0  0  0  0  0
   14.0869   -4.0117   17.1972 C   0  0  0  0  0  0  0  0  0  0  0  0
   13.5890   -5.2737   16.8981 C   0  0  0  0  0  0  0  0  0  0  0  0
   14.3561   -6.3815   17.2383 C   0  0  0  0  0  0  0  0  0  0  0  0
   15.5834   -6.2431   17.8737 C   0  0  0  0  0  0  0  0  0  0  0  0
   15.9306   -7.5794   18.1734 C   0  0  0  0  0  0  0  0  0  0  0  0
   15.1273   -8.4912   17.6247 N   0  0  0  0  0  0  0  0  0  0  0  0
   14.1579   -7.7313   17.0847 N   0  0  0  0  0  0  0  0  0  0  0  0
   13.0678   -8.3914   16.4127 C   0  0  0  0  0  0  0  0  0  0  0  0
   20.2395   -4.3977   19.9331 C   0  0  0  0  0  0  0  0  0  0  0  0
   19.9385   -6.4896   18.1694 N   0  0  0  0  0  0  0  0  0  0  0  0
  1  2  1  0
  2  3  2  0
  3  4  1  0
  4  5  2  0
  5  6  1  0
  6  7  1  0
  7  8  1  0
  8  9  1  0
  9 10  1  0
 10 11  1  6
 11 12  1  0
 12 13  1  1
 12 14  1  0
 14 15  2  0
 15 16  1  0
 16 17  2  0
 17 18  1  0
 18 19  2  0
 19 20  1  0
 20 21  2  0
 21 22  1  0
 22 23  1  0
 10 24  1  0
  6 25  2  0
 25  2  1  0
 24  7  1  0
 19 14  1  0
 22 18  1  0
M  END
>  <energy_score>  (908) 
-32.025077

>  <inchikey>  (908) 
None

>  <smiles>  (908) 
None

>  <ref_pdb>  (908) 
A1105b

>  <alias>  (908) 
None

>  <HIPPO Pose ID>  (908) 
498552

>  <name>  (908) 
P498552

>  <HIPPO Compound ID>  (908) 
293417

>  <ref_mols>  (908) 
A0497a,A1105b

>  <distance_score>  (908) 
1.747619

>  <inspiration_score>  (908) 
None

$$$$
P498553
     RDKit          3D

 25 28  0  0  0  0  0  0  0  0999 V2000
   19.2859   -9.5313   17.1672 C   0  0  0  0  0  0  0  0  0  0  0  0
   19.7561   -8.1321   16.8976 C   0  0  0  0  0  0  0  0  0  0  0  0
   19.8346   -7.6714   15.5973 C   0  0  0  0  0  0  0  0  0  0  0  0
   20.4177   -6.4363   15.3781 C   0  0  0  0  0  0  0  0  0  0  0  0
   20.8611   -5.6845   16.4596 C   0  0  0  0  0  0  0  0  0  0  0  0
   20.6676   -6.1507   17.7577 C   0  0  0  0  0  0  0  0  0  0  0  0
   20.9633   -5.3661   18.8743 N   0  0  0  0  0  0  0  0  0  0  0  0
   20.8591   -3.8933   18.7698 C   0  0  0  0  0  0  0  0  0  0  0  0
   20.1995   -3.4522   20.0788 C   0  0  0  0  0  0  0  0  0  0  0  0
   19.3584   -4.6582   20.4958 C   0  0  1  0  0  0  0  0  0  0  0  0
   17.9934   -4.8345   19.9468 N   0  0  0  0  0  0  0  0  0  0  0  0
   17.7389   -4.4109   18.5763 C   0  0  2  0  0  0  0  0  0  0  0  0
   17.8175   -3.0044   18.5627 O   0  0  0  0  0  0  0  0  0  0  0  0
   16.3670   -4.8502   18.0795 C   0  0  0  0  0  0  0  0  0  0  0  0
   15.3522   -3.9022   17.8083 C   0  0  0  0  0  0  0  0  0  0  0  0
   14.1087   -4.2624   17.3006 C   0  0  0  0  0  0  0  0  0  0  0  0
   13.7994   -5.5945   17.0628 C   0  0  0  0  0  0  0  0  0  0  0  0
   14.7604   -6.5518   17.3839 C   0  0  0  0  0  0  0  0  0  0  0  0
   16.0199   -6.2111   17.8671 C   0  0  0  0  0  0  0  0  0  0  0  0
   16.6438   -7.4615   18.0745 C   0  0  0  0  0  0  0  0  0  0  0  0
   15.8828   -8.5051   17.7359 N   0  0  0  0  0  0  0  0  0  0  0  0
   14.7327   -7.9230   17.3485 N   0  0  0  0  0  0  0  0  0  0  0  0
   13.6040   -8.7485   16.9953 C   0  0  0  0  0  0  0  0  0  0  0  0
   20.3400   -5.8014   20.1330 C   0  0  0  0  0  0  0  0  0  0  0  0
   20.1622   -7.3921   17.9578 N   0  0  0  0  0  0  0  0  0  0  0  0
  1  2  1  0
  2  3  2  0
  3  4  1  0
  4  5  2  0
  5  6  1  0
  6  7  1  0
  7  8  1  0
  8  9  1  0
  9 10  1  0
 10 11  1  6
 11 12  1  0
 12 13  1  1
 12 14  1  0
 14 15  2  0
 15 16  1  0
 16 17  2  0
 17 18  1  0
 18 19  2  0
 19 20  1  0
 20 21  2  0
 21 22  1  0
 22 23  1  0
 10 24  1  0
  6 25  2  0
 25  2  1  0
 24  7  1  0
 19 14  1  0
 22 18  1  0
M  END
>  <energy_score>  (909) 
-34.042677

>  <inchikey>  (909) 
None

>  <smiles>  (909) 
None

>  <ref_pdb>  (909) 
A1105b

>  <alias>  (909) 
None

>  <HIPPO Pose ID>  (909) 
498553

>  <name>  (909) 
P498553

>  <HIPPO Compound ID>  (909) 
293417

>  <ref_mols>  (909) 
A0497a,A1105b

>  <distance_score>  (909) 
1.477019

>  <inspiration_score>  (909) 
None

$$$$
P498554
     RDKit          3D

 25 28  0  0  0  0  0  0  0  0999 V2000
   19.4718   -9.4955   17.6783 C   0  0  0  0  0  0  0  0  0  0  0  0
   19.8841   -8.1164   17.2588 C   0  0  0  0  0  0  0  0  0  0  0  0
   19.8548   -7.7567   15.9250 C   0  0  0  0  0  0  0  0  0  0  0  0
   20.3616   -6.5183   15.5780 C   0  0  0  0  0  0  0  0  0  0  0  0
   20.8285   -5.6636   16.5728 C   0  0  0  0  0  0  0  0  0  0  0  0
   20.7299   -6.0255   17.9157 C   0  0  0  0  0  0  0  0  0  0  0  0
   21.0510   -5.1566   18.9651 N   0  0  0  0  0  0  0  0  0  0  0  0
   21.0458   -3.6984   18.7517 C   0  0  0  0  0  0  0  0  0  0  0  0
   20.1685   -3.0961   19.8545 C   0  0  0  0  0  0  0  0  0  0  0  0
   19.3458   -4.2551   20.4015 C   0  0  1  0  0  0  0  0  0  0  0  0
   17.9912   -4.5260   19.8943 N   0  0  0  0  0  0  0  0  0  0  0  0
   17.5281   -3.9008   18.6608 C   0  0  1  0  0  0  0  0  0  0  0  0
   18.4890   -3.8574   17.6450 O   0  0  0  0  0  0  0  0  0  0  0  0
   16.2709   -4.5611   18.1255 C   0  0  0  0  0  0  0  0  0  0  0  0
   15.1744   -3.7419   17.7944 C   0  0  0  0  0  0  0  0  0  0  0  0
   13.9987   -4.2575   17.2630 C   0  0  0  0  0  0  0  0  0  0  0  0
   13.8416   -5.6243   17.0638 C   0  0  0  0  0  0  0  0  0  0  0  0
   14.8985   -6.4539   17.4351 C   0  0  0  0  0  0  0  0  0  0  0  0
   16.0971   -5.9563   17.9372 C   0  0  0  0  0  0  0  0  0  0  0  0
   16.8509   -7.1175   18.2144 C   0  0  0  0  0  0  0  0  0  0  0  0
   16.2212   -8.2529   17.8954 N   0  0  0  0  0  0  0  0  0  0  0  0
   15.0276   -7.8193   17.4539 N   0  0  0  0  0  0  0  0  0  0  0  0
   14.0068   -8.7771   17.1076 C   0  0  0  0  0  0  0  0  0  0  0  0
   20.3195   -5.4433   20.2103 C   0  0  0  0  0  0  0  0  0  0  0  0
   20.3352   -7.2843   18.2294 N   0  0  0  0  0  0  0  0  0  0  0  0
  1  2  1  0
  2  3  2  0
  3  4  1  0
  4  5  2  0
  5  6  1  0
  6  7  1  0
  7  8  1  0
  8  9  1  0
  9 10  1  0
 10 11  1  6
 11 12  1  0
 12 13  1  6
 12 14  1  0
 14 15  2  0
 15 16  1  0
 16 17  2  0
 17 18  1  0
 18 19  2  0
 19 20  1  0
 20 21  2  0
 21 22  1  0
 22 23  1  0
 10 24  1  0
  6 25  2  0
 25  2  1  0
 24  7  1  0
 19 14  1  0
 22 18  1  0
M  END
>  <energy_score>  (910) 
-11.317137

>  <inchikey>  (910) 
None

>  <smiles>  (910) 
None

>  <ref_pdb>  (910) 
A1105b

>  <alias>  (910) 
None

>  <HIPPO Pose ID>  (910) 
498554

>  <name>  (910) 
P498554

>  <HIPPO Compound ID>  (910) 
293417

>  <ref_mols>  (910) 
A0497a,A1105b

>  <distance_score>  (910) 
1.529471

>  <inspiration_score>  (910) 
None

$$$$
P498555
     RDKit          3D

 25 28  0  0  0  0  0  0  0  0999 V2000
   18.5592   -8.7533   17.2704 C   0  0  0  0  0  0  0  0  0  0  0  0
   19.3284   -7.5019   17.0282 C   0  0  0  0  0  0  0  0  0  0  0  0
   19.6932   -7.1567   15.7403 C   0  0  0  0  0  0  0  0  0  0  0  0
   20.5855   -6.1126   15.5727 C   0  0  0  0  0  0  0  0  0  0  0  0
   21.0667   -5.4399   16.6895 C   0  0  0  0  0  0  0  0  0  0  0  0
   20.6030   -5.7794   17.9600 C   0  0  0  0  0  0  0  0  0  0  0  0
   21.0131   -5.0435   19.0969 N   0  0  0  0  0  0  0  0  0  0  0  0
   20.8055   -3.5786   18.9472 C   0  0  0  0  0  0  0  0  0  0  0  0
   19.8307   -3.1782   20.0610 C   0  0  0  0  0  0  0  0  0  0  0  0
   19.1187   -4.4768   20.4455 C   0  0  1  0  0  0  0  0  0  0  0  0
   18.0290   -4.9882   19.5956 N   0  0  0  0  0  0  0  0  0  0  0  0
   17.2786   -4.0318   18.8173 C   0  0  1  0  0  0  0  0  0  0  0  0
   18.0894   -3.4468   17.8223 O   0  0  0  0  0  0  0  0  0  0  0  0
   16.0475   -4.6271   18.1475 C   0  0  0  0  0  0  0  0  0  0  0  0
   15.1018   -3.6927   17.6899 C   0  0  0  0  0  0  0  0  0  0  0  0
   13.9300   -4.0695   17.0610 C   0  0  0  0  0  0  0  0  0  0  0  0
   13.6174   -5.4082   16.8885 C   0  0  0  0  0  0  0  0  0  0  0  0
   14.5060   -6.3579   17.3802 C   0  0  0  0  0  0  0  0  0  0  0  0
   15.6997   -5.9977   18.0001 C   0  0  0  0  0  0  0  0  0  0  0  0
   16.1947   -7.2345   18.4691 C   0  0  0  0  0  0  0  0  0  0  0  0
   15.4760   -8.2925   18.0823 N   0  0  0  0  0  0  0  0  0  0  0  0
   14.4367   -7.7258   17.4486 N   0  0  0  0  0  0  0  0  0  0  0  0
   13.3650   -8.5713   16.9854 C   0  0  0  0  0  0  0  0  0  0  0  0
   20.3341   -5.4421   20.3540 C   0  0  0  0  0  0  0  0  0  0  0  0
   19.7380   -6.8142   18.1150 N   0  0  0  0  0  0  0  0  0  0  0  0
  1  2  1  0
  2  3  2  0
  3  4  1  0
  4  5  2  0
  5  6  1  0
  6  7  1  0
  7  8  1  0
  8  9  1  0
  9 10  1  0
 10 11  1  6
 11 12  1  0
 12 13  1  6
 12 14  1  0
 14 15  2  0
 15 16  1  0
 16 17  2  0
 17 18  1  0
 18 19  2  0
 19 20  1  0
 20 21  2  0
 21 22  1  0
 22 23  1  0
 10 24  1  0
  6 25  2  0
 25  2  1  0
 24  7  1  0
 19 14  1  0
 22 18  1  0
M  END
>  <energy_score>  (911) 
-29.356031

>  <inchikey>  (911) 
None

>  <smiles>  (911) 
None

>  <ref_pdb>  (911) 
A1105b

>  <alias>  (911) 
None

>  <HIPPO Pose ID>  (911) 
498555

>  <name>  (911) 
P498555

>  <HIPPO Compound ID>  (911) 
293417

>  <ref_mols>  (911) 
A0497a,A1105b

>  <distance_score>  (911) 
1.526223

>  <inspiration_score>  (911) 
None

$$$$
P498556
     RDKit          3D

 26 29  0  0  0  0  0  0  0  0999 V2000
   18.7970   -2.8189   17.8043 C   0  0  0  0  0  0  0  0  0  0  0  0
   18.7468   -4.1921   18.1057 O   0  0  0  0  0  0  0  0  0  0  0  0
   17.7399   -4.5567   19.0185 C   0  0  2  0  0  0  0  0  0  0  0  0
   18.2317   -5.6319   19.8485 N   0  0  0  0  0  0  0  0  0  0  0  0
   19.3824   -5.4887   20.7304 C   0  0  2  0  0  0  0  0  0  0  0  0
   20.3428   -4.3110   20.5825 C   0  0  0  0  0  0  0  0  0  0  0  0
   21.3453   -4.7298   19.4971 C   0  0  0  0  0  0  0  0  0  0  0  0
   21.2361   -6.2004   19.3711 N   0  0  0  0  0  0  0  0  0  0  0  0
   20.7975   -6.6599   18.1004 C   0  0  0  0  0  0  0  0  0  0  0  0
   20.0028   -7.7611   18.0483 N   0  0  0  0  0  0  0  0  0  0  0  0
   19.4507   -8.1108   16.8616 C   0  0  0  0  0  0  0  0  0  0  0  0
   19.6711   -7.4443   15.6759 C   0  0  0  0  0  0  0  0  0  0  0  0
   20.5803   -6.4028   15.6911 C   0  0  0  0  0  0  0  0  0  0  0  0
   21.1699   -6.0345   16.8944 C   0  0  0  0  0  0  0  0  0  0  0  0
   22.0937   -5.0582   16.8621 F   0  0  0  0  0  0  0  0  0  0  0  0
   20.3771   -6.6604   20.4865 C   0  0  0  0  0  0  0  0  0  0  0  0
   16.4603   -4.9360   18.2520 C   0  0  0  0  0  0  0  0  0  0  0  0
   15.5425   -3.8973   17.9481 C   0  0  0  0  0  0  0  0  0  0  0  0
   14.3002   -4.1365   17.3655 C   0  0  0  0  0  0  0  0  0  0  0  0
   13.8951   -5.4283   17.0633 C   0  0  0  0  0  0  0  0  0  0  0  0
   14.7773   -6.4693   17.3544 C   0  0  0  0  0  0  0  0  0  0  0  0
   16.0356   -6.2543   17.9179 C   0  0  0  0  0  0  0  0  0  0  0  0
   16.5337   -7.5667   18.1010 C   0  0  0  0  0  0  0  0  0  0  0  0
   15.7222   -8.5243   17.6453 N   0  0  0  0  0  0  0  0  0  0  0  0
   14.6484   -7.8305   17.2304 N   0  0  0  0  0  0  0  0  0  0  0  0
   13.4881   -8.5486   16.7634 C   0  0  0  0  0  0  0  0  0  0  0  0
  1  2  1  0
  2  3  1  0
  3  4  1  6
  5  4  1  6
  5  6  1  0
  6  7  1  0
  7  8  1  0
  8  9  1  0
  9 10  2  0
 10 11  1  0
 11 12  2  0
 12 13  1  0
 13 14  2  0
 14 15  1  0
  8 16  1  0
  3 17  1  0
 17 18  2  0
 18 19  1  0
 19 20  2  0
 20 21  1  0
 21 22  2  0
 22 23  1  0
 23 24  2  0
 24 25  1  0
 25 26  1  0
 16  5  1  0
 22 17  1  0
 14  9  1  0
 25 21  1  0
M  END
>  <energy_score>  (912) 
-20.774107

>  <inchikey>  (912) 
None

>  <smiles>  (912) 
None

>  <ref_pdb>  (912) 
A1105b

>  <alias>  (912) 
None

>  <HIPPO Pose ID>  (912) 
498556

>  <name>  (912) 
P498556

>  <HIPPO Compound ID>  (912) 
293418

>  <ref_mols>  (912) 
A0497a,A1105b

>  <distance_score>  (912) 
1.350137

>  <inspiration_score>  (912) 
None

$$$$
P498557
     RDKit          3D

 26 29  0  0  0  0  0  0  0  0999 V2000
   18.0370   -2.3299   19.4496 C   0  0  0  0  0  0  0  0  0  0  0  0
   18.3604   -3.3083   18.4811 O   0  0  0  0  0  0  0  0  0  0  0  0
   17.9052   -4.6490   18.6919 C   0  0  1  0  0  0  0  0  0  0  0  0
   18.1083   -5.1010   20.0699 N   0  0  0  0  0  0  0  0  0  0  0  0
   19.4750   -5.4439   20.4995 C   0  0  2  0  0  0  0  0  0  0  0  0
   20.6391   -4.5016   20.1890 C   0  0  0  0  0  0  0  0  0  0  0  0
   21.1723   -4.9692   18.8349 C   0  0  0  0  0  0  0  0  0  0  0  0
   20.8516   -6.4077   18.7704 N   0  0  0  0  0  0  0  0  0  0  0  0
   20.3862   -6.8575   17.5225 C   0  0  0  0  0  0  0  0  0  0  0  0
   19.3398   -7.7225   17.4936 N   0  0  0  0  0  0  0  0  0  0  0  0
   18.7940   -8.0482   16.3032 C   0  0  0  0  0  0  0  0  0  0  0  0
   19.2595   -7.5759   15.0964 C   0  0  0  0  0  0  0  0  0  0  0  0
   20.3711   -6.7487   15.1060 C   0  0  0  0  0  0  0  0  0  0  0  0
   20.9453   -6.4015   16.3183 C   0  0  0  0  0  0  0  0  0  0  0  0
   22.0241   -5.6008   16.3058 F   0  0  0  0  0  0  0  0  0  0  0  0
   20.0373   -6.7756   19.9404 C   0  0  0  0  0  0  0  0  0  0  0  0
   16.4856   -4.9320   18.1725 C   0  0  0  0  0  0  0  0  0  0  0  0
   15.6084   -3.8927   17.7941 C   0  0  0  0  0  0  0  0  0  0  0  0
   14.3317   -4.1236   17.2812 C   0  0  0  0  0  0  0  0  0  0  0  0
   13.8604   -5.4144   17.0979 C   0  0  0  0  0  0  0  0  0  0  0  0
   14.6904   -6.4633   17.4888 C   0  0  0  0  0  0  0  0  0  0  0  0
   15.9610   -6.2516   18.0244 C   0  0  0  0  0  0  0  0  0  0  0  0
   16.3851   -7.5573   18.3706 C   0  0  0  0  0  0  0  0  0  0  0  0
   15.5387   -8.5188   17.9925 N   0  0  0  0  0  0  0  0  0  0  0  0
   14.4980   -7.8220   17.5050 N   0  0  0  0  0  0  0  0  0  0  0  0
   13.3144   -8.5396   17.1026 C   0  0  0  0  0  0  0  0  0  0  0  0
  1  2  1  0
  2  3  1  0
  3  4  1  1
  5  4  1  6
  5  6  1  0
  6  7  1  0
  7  8  1  0
  8  9  1  0
  9 10  2  0
 10 11  1  0
 11 12  2  0
 12 13  1  0
 13 14  2  0
 14 15  1  0
  8 16  1  0
  3 17  1  0
 17 18  2  0
 18 19  1  0
 19 20  2  0
 20 21  1  0
 21 22  2  0
 22 23  1  0
 23 24  2  0
 24 25  1  0
 25 26  1  0
 16  5  1  0
 22 17  1  0
 14  9  1  0
 25 21  1  0
M  END
>  <energy_score>  (913) 
-48.284717

>  <inchikey>  (913) 
None

>  <smiles>  (913) 
None

>  <ref_pdb>  (913) 
A1105b

>  <alias>  (913) 
None

>  <HIPPO Pose ID>  (913) 
498557

>  <name>  (913) 
P498557

>  <HIPPO Compound ID>  (913) 
293418

>  <ref_mols>  (913) 
A0497a,A1105b

>  <distance_score>  (913) 
1.561619

>  <inspiration_score>  (913) 
None

$$$$
P498558
     RDKit          3D

 26 29  0  0  0  0  0  0  0  0999 V2000
   18.7484   -2.0803   19.0764 C   0  0  0  0  0  0  0  0  0  0  0  0
   18.3636   -3.2395   18.3528 O   0  0  0  0  0  0  0  0  0  0  0  0
   17.5215   -4.1014   19.1012 C   0  0  2  0  0  0  0  0  0  0  0  0
   18.2565   -5.1257   19.8486 N   0  0  0  0  0  0  0  0  0  0  0  0
   19.7232   -4.9934   19.8202 C   0  0  1  0  0  0  0  0  0  0  0  0
   20.3412   -6.0223   20.7520 C   0  0  0  0  0  0  0  0  0  0  0  0
   20.3278   -7.2830   19.8986 C   0  0  0  0  0  0  0  0  0  0  0  0
   20.6946   -6.8100   18.5560 N   0  0  0  0  0  0  0  0  0  0  0  0
   20.1632   -7.5492   17.4854 C   0  0  0  0  0  0  0  0  0  0  0  0
   19.4127   -8.6386   17.7672 N   0  0  0  0  0  0  0  0  0  0  0  0
   18.6734   -9.1730   16.7716 C   0  0  0  0  0  0  0  0  0  0  0  0
   18.6979   -8.7285   15.4641 C   0  0  0  0  0  0  0  0  0  0  0  0
   19.5818   -7.7162   15.1417 C   0  0  0  0  0  0  0  0  0  0  0  0
   20.3374   -7.1463   16.1499 C   0  0  0  0  0  0  0  0  0  0  0  0
   21.2237   -6.2069   15.8027 F   0  0  0  0  0  0  0  0  0  0  0  0
   20.3925   -5.3622   18.4661 C   0  0  0  0  0  0  0  0  0  0  0  0
   16.3555   -4.6340   18.2526 C   0  0  0  0  0  0  0  0  0  0  0  0
   15.3894   -3.6787   17.8532 C   0  0  0  0  0  0  0  0  0  0  0  0
   14.1863   -4.0218   17.2432 C   0  0  0  0  0  0  0  0  0  0  0  0
   13.8585   -5.3478   17.0193 C   0  0  0  0  0  0  0  0  0  0  0  0
   14.7861   -6.3128   17.4043 C   0  0  0  0  0  0  0  0  0  0  0  0
   16.0151   -5.9914   17.9861 C   0  0  0  0  0  0  0  0  0  0  0  0
   16.5623   -7.2604   18.2810 C   0  0  0  0  0  0  0  0  0  0  0  0
   15.8018   -8.2899   17.8921 N   0  0  0  0  0  0  0  0  0  0  0  0
   14.7192   -7.6825   17.3862 N   0  0  0  0  0  0  0  0  0  0  0  0
   13.6016   -8.4867   16.9579 C   0  0  0  0  0  0  0  0  0  0  0  0
  1  2  1  0
  2  3  1  0
  3  4  1  6
  5  4  1  6
  5  6  1  0
  6  7  1  0
  7  8  1  0
  8  9  1  0
  9 10  2  0
 10 11  1  0
 11 12  2  0
 12 13  1  0
 13 14  2  0
 14 15  1  0
  8 16  1  0
  3 17  1  0
 17 18  2  0
 18 19  1  0
 19 20  2  0
 20 21  1  0
 21 22  2  0
 22 23  1  0
 23 24  2  0
 24 25  1  0
 25 26  1  0
 16  5  1  0
 22 17  1  0
 14  9  1  0
 25 21  1  0
M  END
>  <energy_score>  (914) 
-34.385578

>  <inchikey>  (914) 
None

>  <smiles>  (914) 
None

>  <ref_pdb>  (914) 
A1105b

>  <alias>  (914) 
None

>  <HIPPO Pose ID>  (914) 
498558

>  <name>  (914) 
P498558

>  <HIPPO Compound ID>  (914) 
293418

>  <ref_mols>  (914) 
A0497a,A1105b

>  <distance_score>  (914) 
1.822292

>  <inspiration_score>  (914) 
None

$$$$
P498559
     RDKit          3D

 26 29  0  0  0  0  0  0  0  0999 V2000
   18.7348   -2.7538   18.0460 C   0  0  0  0  0  0  0  0  0  0  0  0
   18.0990   -3.5155   19.0487 O   0  0  0  0  0  0  0  0  0  0  0  0
   17.9002   -4.8827   18.7102 C   0  0  1  0  0  0  0  0  0  0  0  0
   18.1295   -5.6367   19.9406 N   0  0  0  0  0  0  0  0  0  0  0  0
   19.5096   -5.8266   20.4195 C   0  0  2  0  0  0  0  0  0  0  0  0
   20.6306   -4.8489   20.0679 C   0  0  0  0  0  0  0  0  0  0  0  0
   21.2544   -5.3932   18.7738 C   0  0  0  0  0  0  0  0  0  0  0  0
   20.9073   -6.8259   18.7297 N   0  0  0  0  0  0  0  0  0  0  0  0
   20.3676   -7.2814   17.5161 C   0  0  0  0  0  0  0  0  0  0  0  0
   19.3232   -8.1385   17.5589 N   0  0  0  0  0  0  0  0  0  0  0  0
   18.7087   -8.4790   16.4011 C   0  0  0  0  0  0  0  0  0  0  0  0
   19.0692   -7.9973   15.1635 C   0  0  0  0  0  0  0  0  0  0  0  0
   20.1880   -7.1917   15.0955 C   0  0  0  0  0  0  0  0  0  0  0  0
   20.8585   -6.8710   16.2656 C   0  0  0  0  0  0  0  0  0  0  0  0
   21.9925   -6.1725   16.1487 F   0  0  0  0  0  0  0  0  0  0  0  0
   20.1563   -7.1612   19.9504 C   0  0  0  0  0  0  0  0  0  0  0  0
   16.4714   -5.1090   18.1635 C   0  0  0  0  0  0  0  0  0  0  0  0
   15.6202   -4.0042   17.9016 C   0  0  0  0  0  0  0  0  0  0  0  0
   14.3409   -4.1409   17.3674 C   0  0  0  0  0  0  0  0  0  0  0  0
   13.8283   -5.3914   17.0631 C   0  0  0  0  0  0  0  0  0  0  0  0
   14.6164   -6.5025   17.3575 C   0  0  0  0  0  0  0  0  0  0  0  0
   15.8954   -6.3905   17.9061 C   0  0  0  0  0  0  0  0  0  0  0  0
   16.2529   -7.7396   18.1417 C   0  0  0  0  0  0  0  0  0  0  0  0
   15.3736   -8.6271   17.6744 N   0  0  0  0  0  0  0  0  0  0  0  0
   14.3706   -7.8479   17.2390 N   0  0  0  0  0  0  0  0  0  0  0  0
   13.1792   -8.4808   16.7316 C   0  0  0  0  0  0  0  0  0  0  0  0
  1  2  1  0
  2  3  1  0
  3  4  1  1
  5  4  1  6
  5  6  1  0
  6  7  1  0
  7  8  1  0
  8  9  1  0
  9 10  2  0
 10 11  1  0
 11 12  2  0
 12 13  1  0
 13 14  2  0
 14 15  1  0
  8 16  1  0
  3 17  1  0
 17 18  2  0
 18 19  1  0
 19 20  2  0
 20 21  1  0
 21 22  2  0
 22 23  1  0
 23 24  2  0
 24 25  1  0
 25 26  1  0
 16  5  1  0
 22 17  1  0
 14  9  1  0
 25 21  1  0
M  END
>  <energy_score>  (915) 
-21.833037

>  <inchikey>  (915) 
None

>  <smiles>  (915) 
None

>  <ref_pdb>  (915) 
A1105b

>  <alias>  (915) 
None

>  <HIPPO Pose ID>  (915) 
498559

>  <name>  (915) 
P498559

>  <HIPPO Compound ID>  (915) 
293418

>  <ref_mols>  (915) 
A0497a,A1105b

>  <distance_score>  (915) 
1.605514

>  <inspiration_score>  (915) 
None

$$$$
P498560
     RDKit          3D

 26 29  0  0  0  0  0  0  0  0999 V2000
   18.8386   -2.0403   19.1893 C   0  0  0  0  0  0  0  0  0  0  0  0
   18.2876   -3.0985   18.4177 O   0  0  0  0  0  0  0  0  0  0  0  0
   17.4786   -3.9643   19.1975 C   0  0  2  0  0  0  0  0  0  0  0  0
   18.2796   -4.7505   20.1358 N   0  0  0  0  0  0  0  0  0  0  0  0
   19.3922   -5.4477   19.5161 C   0  0  2  0  0  0  0  0  0  0  0  0
   20.1533   -6.2757   20.5404 C   0  0  0  0  0  0  0  0  0  0  0  0
   21.4083   -6.7456   19.7839 C   0  0  0  0  0  0  0  0  0  0  0  0
   21.5933   -5.8170   18.6421 N   0  0  0  0  0  0  0  0  0  0  0  0
   21.2001   -6.4233   17.4019 C   0  0  0  0  0  0  0  0  0  0  0  0
   21.6626   -5.8441   16.2239 C   0  0  0  0  0  0  0  0  0  0  0  0
   21.0223   -6.1390   15.0305 C   0  0  0  0  0  0  0  0  0  0  0  0
   19.9211   -6.9791   15.0443 C   0  0  0  0  0  0  0  0  0  0  0  0
   19.5321   -7.5419   16.2450 C   0  0  0  0  0  0  0  0  0  0  0  0
   18.2830   -8.3482   16.3071 C   0  0  0  0  0  0  0  0  0  0  0  0
   20.2039   -7.3362   17.3961 N   0  0  0  0  0  0  0  0  0  0  0  0
   20.5868   -4.7270   18.8472 C   0  0  0  0  0  0  0  0  0  0  0  0
   16.3919   -4.6462   18.3326 C   0  0  0  0  0  0  0  0  0  0  0  0
   15.4259   -3.7408   17.8107 C   0  0  0  0  0  0  0  0  0  0  0  0
   14.2464   -4.1350   17.1883 C   0  0  0  0  0  0  0  0  0  0  0  0
   13.9456   -5.4778   17.0524 C   0  0  0  0  0  0  0  0  0  0  0  0
   14.8602   -6.4003   17.5622 C   0  0  0  0  0  0  0  0  0  0  0  0
   16.0642   -6.0291   18.1771 C   0  0  0  0  0  0  0  0  0  0  0  0
   16.5642   -7.2751   18.6433 C   0  0  0  0  0  0  0  0  0  0  0  0
   15.8069   -8.3269   18.3193 N   0  0  0  0  0  0  0  0  0  0  0  0
   14.7729   -7.7655   17.6776 N   0  0  0  0  0  0  0  0  0  0  0  0
   13.6668   -8.5972   17.2708 C   0  0  0  0  0  0  0  0  0  0  0  0
  1  2  1  0
  2  3  1  0
  3  4  1  6
  5  4  1  1
  5  6  1  0
  6  7  1  0
  7  8  1  0
  8  9  1  0
  9 10  2  0
 10 11  1  0
 11 12  2  0
 12 13  1  0
 13 14  1  0
 13 15  2  0
  8 16  1  0
  3 17  1  0
 17 18  2  0
 18 19  1  0
 19 20  2  0
 20 21  1  0
 21 22  2  0
 22 23  1  0
 23 24  2  0
 24 25  1  0
 25 26  1  0
 16  5  1  0
 22 17  1  0
 15  9  1  0
 25 21  1  0
M  END
>  <energy_score>  (916) 
-35.544048

>  <inchikey>  (916) 
None

>  <smiles>  (916) 
None

>  <ref_pdb>  (916) 
A1105b

>  <alias>  (916) 
None

>  <HIPPO Pose ID>  (916) 
498560

>  <name>  (916) 
P498560

>  <HIPPO Compound ID>  (916) 
293419

>  <ref_mols>  (916) 
A0497a,A1105b

>  <distance_score>  (916) 
1.679148

>  <inspiration_score>  (916) 
None

$$$$
P498561
     RDKit          3D

 26 29  0  0  0  0  0  0  0  0999 V2000
   18.7115   -3.1190   17.4591 C   0  0  0  0  0  0  0  0  0  0  0  0
   18.2689   -3.0190   18.7878 O   0  0  0  0  0  0  0  0  0  0  0  0
   17.5091   -4.1309   19.2380 C   0  0  2  0  0  0  0  0  0  0  0  0
   18.3511   -5.1861   19.7867 N   0  0  0  0  0  0  0  0  0  0  0  0
   19.5299   -4.6839   20.5192 C   0  0  1  0  0  0  0  0  0  0  0  0
   19.9866   -5.7574   21.4969 C   0  0  0  0  0  0  0  0  0  0  0  0
   20.7682   -6.7652   20.6356 C   0  0  0  0  0  0  0  0  0  0  0  0
   21.2241   -6.0053   19.4449 N   0  0  0  0  0  0  0  0  0  0  0  0
   20.8264   -6.5423   18.2023 C   0  0  0  0  0  0  0  0  0  0  0  0
   21.1306   -5.8794   17.0125 C   0  0  0  0  0  0  0  0  0  0  0  0
   20.5728   -6.3059   15.8114 C   0  0  0  0  0  0  0  0  0  0  0  0
   19.7672   -7.4311   15.7988 C   0  0  0  0  0  0  0  0  0  0  0  0
   19.5820   -8.1129   16.9879 C   0  0  0  0  0  0  0  0  0  0  0  0
   18.8851   -9.4415   16.9878 C   0  0  0  0  0  0  0  0  0  0  0  0
   20.0945   -7.6770   18.1664 N   0  0  0  0  0  0  0  0  0  0  0  0
   20.8186   -4.5945   19.6598 C   0  0  0  0  0  0  0  0  0  0  0  0
   16.3688   -4.6350   18.3227 C   0  0  0  0  0  0  0  0  0  0  0  0
   15.4013   -3.6777   17.9335 C   0  0  0  0  0  0  0  0  0  0  0  0
   14.2143   -4.0211   17.2922 C   0  0  0  0  0  0  0  0  0  0  0  0
   13.9039   -5.3458   17.0304 C   0  0  0  0  0  0  0  0  0  0  0  0
   14.8352   -6.3126   17.4050 C   0  0  0  0  0  0  0  0  0  0  0  0
   16.0501   -5.9961   18.0182 C   0  0  0  0  0  0  0  0  0  0  0  0
   16.5993   -7.2735   18.3028 C   0  0  0  0  0  0  0  0  0  0  0  0
   15.8617   -8.2939   17.8563 N   0  0  0  0  0  0  0  0  0  0  0  0
   14.7780   -7.6825   17.3563 N   0  0  0  0  0  0  0  0  0  0  0  0
   13.6679   -8.4833   16.9016 C   0  0  0  0  0  0  0  0  0  0  0  0
  1  2  1  0
  2  3  1  0
  3  4  1  6
  5  4  1  6
  5  6  1  0
  6  7  1  0
  7  8  1  0
  8  9  1  0
  9 10  2  0
 10 11  1  0
 11 12  2  0
 12 13  1  0
 13 14  1  0
 13 15  2  0
  8 16  1  0
  3 17  1  0
 17 18  2  0
 18 19  1  0
 19 20  2  0
 20 21  1  0
 21 22  2  0
 22 23  1  0
 23 24  2  0
 24 25  1  0
 25 26  1  0
 16  5  1  0
 22 17  1  0
 15  9  1  0
 25 21  1  0
M  END
>  <energy_score>  (917) 
-26.676556

>  <inchikey>  (917) 
None

>  <smiles>  (917) 
None

>  <ref_pdb>  (917) 
A1105b

>  <alias>  (917) 
None

>  <HIPPO Pose ID>  (917) 
498561

>  <name>  (917) 
P498561

>  <HIPPO Compound ID>  (917) 
293419

>  <ref_mols>  (917) 
A0497a,A1105b

>  <distance_score>  (917) 
1.662195

>  <inspiration_score>  (917) 
None

$$$$
P498562
     RDKit          3D

 26 29  0  0  0  0  0  0  0  0999 V2000
   17.8042   -2.2867   19.6516 C   0  0  0  0  0  0  0  0  0  0  0  0
   18.2497   -3.1435   18.6161 O   0  0  0  0  0  0  0  0  0  0  0  0
   17.9013   -4.5242   18.7457 C   0  0  1  0  0  0  0  0  0  0  0  0
   18.1365   -5.0258   20.1070 N   0  0  0  0  0  0  0  0  0  0  0  0
   19.5317   -5.1641   20.5760 C   0  0  2  0  0  0  0  0  0  0  0  0
   20.5845   -4.0991   20.2705 C   0  0  0  0  0  0  0  0  0  0  0  0
   21.1875   -4.5245   18.9357 C   0  0  0  0  0  0  0  0  0  0  0  0
   21.0330   -5.9943   18.8906 N   0  0  0  0  0  0  0  0  0  0  0  0
   20.5770   -6.4807   17.6547 C   0  0  0  0  0  0  0  0  0  0  0  0
   21.1639   -6.0244   16.4722 C   0  0  0  0  0  0  0  0  0  0  0  0
   20.6284   -6.3887   15.2483 C   0  0  0  0  0  0  0  0  0  0  0  0
   19.5446   -7.2443   15.2208 C   0  0  0  0  0  0  0  0  0  0  0  0
   19.0543   -7.7281   16.4204 C   0  0  0  0  0  0  0  0  0  0  0  0
   17.9639   -8.7384   16.4009 C   0  0  0  0  0  0  0  0  0  0  0  0
   19.5440   -7.3564   17.6220 N   0  0  0  0  0  0  0  0  0  0  0  0
   20.2693   -6.4306   20.0685 C   0  0  0  0  0  0  0  0  0  0  0  0
   16.4946   -4.8734   18.2044 C   0  0  0  0  0  0  0  0  0  0  0  0
   15.6160   -3.8665   17.7490 C   0  0  0  0  0  0  0  0  0  0  0  0
   14.3470   -4.1277   17.2318 C   0  0  0  0  0  0  0  0  0  0  0  0
   13.8792   -5.4270   17.1240 C   0  0  0  0  0  0  0  0  0  0  0  0
   14.6985   -6.4446   17.6088 C   0  0  0  0  0  0  0  0  0  0  0  0
   15.9689   -6.1996   18.1347 C   0  0  0  0  0  0  0  0  0  0  0  0
   16.3787   -7.4773   18.5904 C   0  0  0  0  0  0  0  0  0  0  0  0
   15.4972   -8.4491   18.3443 N   0  0  0  0  0  0  0  0  0  0  0  0
   14.4822   -7.7917   17.7588 N   0  0  0  0  0  0  0  0  0  0  0  0
   13.2932   -8.5299   17.4152 C   0  0  0  0  0  0  0  0  0  0  0  0
  1  2  1  0
  2  3  1  0
  3  4  1  1
  5  4  1  6
  5  6  1  0
  6  7  1  0
  7  8  1  0
  8  9  1  0
  9 10  2  0
 10 11  1  0
 11 12  2  0
 12 13  1  0
 13 14  1  0
 13 15  2  0
  8 16  1  0
  3 17  1  0
 17 18  2  0
 18 19  1  0
 19 20  2  0
 20 21  1  0
 21 22  2  0
 22 23  1  0
 23 24  2  0
 24 25  1  0
 25 26  1  0
 16  5  1  0
 22 17  1  0
 15  9  1  0
 25 21  1  0
M  END
>  <energy_score>  (918) 
-14.746629

>  <inchikey>  (918) 
None

>  <smiles>  (918) 
None

>  <ref_pdb>  (918) 
A1105b

>  <alias>  (918) 
None

>  <HIPPO Pose ID>  (918) 
498562

>  <name>  (918) 
P498562

>  <HIPPO Compound ID>  (918) 
293419

>  <ref_mols>  (918) 
A0497a,A1105b

>  <distance_score>  (918) 
1.748838

>  <inspiration_score>  (918) 
None

$$$$
P498563
     RDKit          3D

 26 29  0  0  0  0  0  0  0  0999 V2000
   18.2237   -2.1799   19.4631 C   0  0  0  0  0  0  0  0  0  0  0  0
   18.1046   -2.9413   18.2745 O   0  0  0  0  0  0  0  0  0  0  0  0
   17.8244   -4.3287   18.4493 C   0  0  1  0  0  0  0  0  0  0  0  0
   18.2802   -4.8209   19.7671 N   0  0  0  0  0  0  0  0  0  0  0  0
   19.5737   -5.4581   19.5607 C   0  0  2  0  0  0  0  0  0  0  0  0
   20.3567   -5.9343   20.7690 C   0  0  0  0  0  0  0  0  0  0  0  0
   21.7012   -6.3970   20.1317 C   0  0  0  0  0  0  0  0  0  0  0  0
   21.7670   -5.7792   18.7711 N   0  0  0  0  0  0  0  0  0  0  0  0
   21.3731   -6.6827   17.7166 C   0  0  0  0  0  0  0  0  0  0  0  0
   21.3384   -6.1926   16.4063 C   0  0  0  0  0  0  0  0  0  0  0  0
   20.5759   -6.8491   15.4487 C   0  0  0  0  0  0  0  0  0  0  0  0
   19.9137   -8.0173   15.7911 C   0  0  0  0  0  0  0  0  0  0  0  0
   20.0797   -8.5169   17.0736 C   0  0  0  0  0  0  0  0  0  0  0  0
   19.4863   -9.8423   17.4486 C   0  0  0  0  0  0  0  0  0  0  0  0
   20.8101   -7.8766   18.0209 N   0  0  0  0  0  0  0  0  0  0  0  0
   20.7150   -4.7265   18.8054 C   0  0  0  0  0  0  0  0  0  0  0  0
   16.4057   -4.7358   18.0825 C   0  0  0  0  0  0  0  0  0  0  0  0
   15.3930   -3.7735   17.9126 C   0  0  0  0  0  0  0  0  0  0  0  0
   14.1319   -4.1111   17.4308 C   0  0  0  0  0  0  0  0  0  0  0  0
   13.8021   -5.4281   17.1383 C   0  0  0  0  0  0  0  0  0  0  0  0
   14.7658   -6.4041   17.3768 C   0  0  0  0  0  0  0  0  0  0  0  0
   16.0484   -6.0886   17.8126 C   0  0  0  0  0  0  0  0  0  0  0  0
   16.6978   -7.3448   17.8592 C   0  0  0  0  0  0  0  0  0  0  0  0
   15.9110   -8.3691   17.5216 N   0  0  0  0  0  0  0  0  0  0  0  0
   14.7316   -7.7709   17.2696 N   0  0  0  0  0  0  0  0  0  0  0  0
   13.5796   -8.5765   16.9467 C   0  0  0  0  0  0  0  0  0  0  0  0
  1  2  1  0
  2  3  1  0
  3  4  1  1
  5  4  1  1
  5  6  1  0
  6  7  1  0
  7  8  1  0
  8  9  1  0
  9 10  2  0
 10 11  1  0
 11 12  2  0
 12 13  1  0
 13 14  1  0
 13 15  2  0
  8 16  1  0
  3 17  1  0
 17 18  2  0
 18 19  1  0
 19 20  2  0
 20 21  1  0
 21 22  2  0
 22 23  1  0
 23 24  2  0
 24 25  1  0
 25 26  1  0
 16  5  1  0
 22 17  1  0
 15  9  1  0
 25 21  1  0
M  END
>  <energy_score>  (919) 
-21.530851

>  <inchikey>  (919) 
None

>  <smiles>  (919) 
None

>  <ref_pdb>  (919) 
A1105b

>  <alias>  (919) 
None

>  <HIPPO Pose ID>  (919) 
498563

>  <name>  (919) 
P498563

>  <HIPPO Compound ID>  (919) 
293419

>  <ref_mols>  (919) 
A0497a,A1105b

>  <distance_score>  (919) 
1.976903

>  <inspiration_score>  (919) 
None

$$$$
P498564
     RDKit          3D

 26 29  0  0  0  0  0  0  0  0999 V2000
   18.9587   -2.1918   18.9474 C   0  0  0  0  0  0  0  0  0  0  0  0
   18.3610   -3.3026   18.2996 O   0  0  0  0  0  0  0  0  0  0  0  0
   17.4755   -4.0327   19.1269 C   0  0  2  0  0  0  0  0  0  0  0  0
   18.1820   -4.8262   20.1369 N   0  0  0  0  0  0  0  0  0  0  0  0
   19.2893   -5.5970   19.5878 C   0  0  2  0  0  0  0  0  0  0  0  0
   19.9645   -6.4355   20.6652 C   0  0  0  0  0  0  0  0  0  0  0  0
   21.2386   -6.9838   19.9891 C   0  0  0  0  0  0  0  0  0  0  0  0
   21.4395   -6.1896   18.7532 N   0  0  0  0  0  0  0  0  0  0  0  0
   20.9648   -6.8752   17.5754 C   0  0  0  0  0  0  0  0  0  0  0  0
   20.0945   -7.9085   17.7393 N   0  0  0  0  0  0  0  0  0  0  0  0
   19.3322   -8.2786   16.6876 C   0  0  0  0  0  0  0  0  0  0  0  0
   19.4344   -7.7120   15.4352 C   0  0  0  0  0  0  0  0  0  0  0  0
   20.4165   -6.7513   15.2304 C   0  0  0  0  0  0  0  0  0  0  0  0
   21.2060   -6.3346   16.2972 C   0  0  0  0  0  0  0  0  0  0  0  0
   22.4142   -5.1322   16.0094 Cl  0  0  0  0  0  0  0  0  0  0  0  0
   20.5453   -5.0003   18.9071 C   0  0  0  0  0  0  0  0  0  0  0  0
   16.3531   -4.6950   18.2932 C   0  0  0  0  0  0  0  0  0  0  0  0
   15.3697   -3.7701   17.8363 C   0  0  0  0  0  0  0  0  0  0  0  0
   14.1833   -4.1445   17.2192 C   0  0  0  0  0  0  0  0  0  0  0  0
   13.9006   -5.4809   17.0100 C   0  0  0  0  0  0  0  0  0  0  0  0
   14.8500   -6.4198   17.4161 C   0  0  0  0  0  0  0  0  0  0  0  0
   16.0556   -6.0735   18.0422 C   0  0  0  0  0  0  0  0  0  0  0  0
   16.5924   -7.3485   18.3709 C   0  0  0  0  0  0  0  0  0  0  0  0
   15.8913   -8.3845   17.8992 N   0  0  0  0  0  0  0  0  0  0  0  0
   14.8112   -7.7911   17.3760 N   0  0  0  0  0  0  0  0  0  0  0  0
   13.7219   -8.6064   16.8969 C   0  0  0  0  0  0  0  0  0  0  0  0
  1  2  1  0
  2  3  1  0
  3  4  1  6
  5  4  1  1
  5  6  1  0
  6  7  1  0
  7  8  1  0
  8  9  1  0
  9 10  2  0
 10 11  1  0
 11 12  2  0
 12 13  1  0
 13 14  2  0
 14 15  1  0
  8 16  1  0
  3 17  1  0
 17 18  2  0
 18 19  1  0
 19 20  2  0
 20 21  1  0
 21 22  2  0
 22 23  1  0
 23 24  2  0
 24 25  1  0
 25 26  1  0
 16  5  1  0
 22 17  1  0
 14  9  1  0
 25 21  1  0
M  END
>  <energy_score>  (920) 
-19.7743

>  <inchikey>  (920) 
None

>  <smiles>  (920) 
None

>  <ref_pdb>  (920) 
A1105b

>  <alias>  (920) 
None

>  <HIPPO Pose ID>  (920) 
498564

>  <name>  (920) 
P498564

>  <HIPPO Compound ID>  (920) 
293420

>  <ref_mols>  (920) 
A0497a,A1105b

>  <distance_score>  (920) 
1.548569

>  <inspiration_score>  (920) 
None

$$$$
P498565
     RDKit          3D

 26 29  0  0  0  0  0  0  0  0999 V2000
   18.2270   -2.0956   19.3534 C   0  0  0  0  0  0  0  0  0  0  0  0
   18.2971   -3.2643   18.5487 O   0  0  0  0  0  0  0  0  0  0  0  0
   17.6051   -4.3491   19.1436 C   0  0  2  0  0  0  0  0  0  0  0  0
   18.4948   -5.4541   19.3796 N   0  0  0  0  0  0  0  0  0  0  0  0
   19.6496   -5.3503   20.2711 C   0  0  2  0  0  0  0  0  0  0  0  0
   20.6908   -4.2566   20.0422 C   0  0  0  0  0  0  0  0  0  0  0  0
   21.3991   -4.6786   18.7573 C   0  0  0  0  0  0  0  0  0  0  0  0
   21.3597   -6.1632   18.7605 N   0  0  0  0  0  0  0  0  0  0  0  0
   20.8584   -6.6646   17.5317 C   0  0  0  0  0  0  0  0  0  0  0  0
   19.7350   -7.4254   17.5797 N   0  0  0  0  0  0  0  0  0  0  0  0
   19.1192   -7.7780   16.4310 C   0  0  0  0  0  0  0  0  0  0  0  0
   19.5713   -7.4130   15.1870 C   0  0  0  0  0  0  0  0  0  0  0  0
   20.7567   -6.6977   15.1148 C   0  0  0  0  0  0  0  0  0  0  0  0
   21.4266   -6.3408   16.2844 C   0  0  0  0  0  0  0  0  0  0  0  0
   22.9461   -5.5276   16.1094 Cl  0  0  0  0  0  0  0  0  0  0  0  0
   20.5827   -6.5704   19.9690 C   0  0  0  0  0  0  0  0  0  0  0  0
   16.3973   -4.7831   18.2775 C   0  0  0  0  0  0  0  0  0  0  0  0
   15.4710   -3.7872   17.8848 C   0  0  0  0  0  0  0  0  0  0  0  0
   14.2540   -4.0807   17.2731 C   0  0  0  0  0  0  0  0  0  0  0  0
   13.8782   -5.3919   17.0284 C   0  0  0  0  0  0  0  0  0  0  0  0
   14.7642   -6.3992   17.4063 C   0  0  0  0  0  0  0  0  0  0  0  0
   15.9935   -6.1325   18.0123 C   0  0  0  0  0  0  0  0  0  0  0  0
   16.4803   -7.4316   18.3198 C   0  0  0  0  0  0  0  0  0  0  0  0
   15.7109   -8.4226   17.8602 N   0  0  0  0  0  0  0  0  0  0  0  0
   14.6517   -7.7664   17.3594 N   0  0  0  0  0  0  0  0  0  0  0  0
   13.5183   -8.5255   16.8909 C   0  0  0  0  0  0  0  0  0  0  0  0
  1  2  1  0
  2  3  1  0
  3  4  1  6
  5  4  1  6
  5  6  1  0
  6  7  1  0
  7  8  1  0
  8  9  1  0
  9 10  2  0
 10 11  1  0
 11 12  2  0
 12 13  1  0
 13 14  2  0
 14 15  1  0
  8 16  1  0
  3 17  1  0
 17 18  2  0
 18 19  1  0
 19 20  2  0
 20 21  1  0
 21 22  2  0
 22 23  1  0
 23 24  2  0
 24 25  1  0
 25 26  1  0
 16  5  1  0
 22 17  1  0
 14  9  1  0
 25 21  1  0
M  END
>  <energy_score>  (921) 
-39.76245

>  <inchikey>  (921) 
None

>  <smiles>  (921) 
None

>  <ref_pdb>  (921) 
A1105b

>  <alias>  (921) 
None

>  <HIPPO Pose ID>  (921) 
498565

>  <name>  (921) 
P498565

>  <HIPPO Compound ID>  (921) 
293420

>  <ref_mols>  (921) 
A0497a,A1105b

>  <distance_score>  (921) 
1.428986

>  <inspiration_score>  (921) 
None

$$$$
P498566
     RDKit          3D

 26 29  0  0  0  0  0  0  0  0999 V2000
   18.7946   -2.2677   18.4340 C   0  0  0  0  0  0  0  0  0  0  0  0
   17.9929   -2.7797   19.4503 O   0  0  0  0  0  0  0  0  0  0  0  0
   17.6287   -4.1415   19.4072 C   0  0  2  0  0  0  0  0  0  0  0  0
   18.6227   -5.0613   19.9190 N   0  0  0  0  0  0  0  0  0  0  0  0
   19.9865   -4.9656   19.4227 C   0  0  1  0  0  0  0  0  0  0  0  0
   20.7772   -6.1508   19.9661 C   0  0  0  0  0  0  0  0  0  0  0  0
   21.8513   -6.4023   18.9178 C   0  0  0  0  0  0  0  0  0  0  0  0
   21.2474   -6.0436   17.6313 N   0  0  0  0  0  0  0  0  0  0  0  0
   20.5903   -7.0886   16.9421 C   0  0  0  0  0  0  0  0  0  0  0  0
   20.1350   -8.1429   17.6638 N   0  0  0  0  0  0  0  0  0  0  0  0
   19.2876   -9.0009   17.0579 C   0  0  0  0  0  0  0  0  0  0  0  0
   18.8696   -8.8761   15.7488 C   0  0  0  0  0  0  0  0  0  0  0  0
   19.3915   -7.8416   14.9907 C   0  0  0  0  0  0  0  0  0  0  0  0
   20.2748   -6.9454   15.5749 C   0  0  0  0  0  0  0  0  0  0  0  0
   20.9101   -5.6926   14.5724 Cl  0  0  0  0  0  0  0  0  0  0  0  0
   20.2363   -4.9967   17.8902 C   0  0  0  0  0  0  0  0  0  0  0  0
   16.5766   -4.6192   18.3736 C   0  0  0  0  0  0  0  0  0  0  0  0
   15.5850   -3.6696   18.0065 C   0  0  0  0  0  0  0  0  0  0  0  0
   14.3869   -4.0122   17.3789 C   0  0  0  0  0  0  0  0  0  0  0  0
   14.0818   -5.3336   17.1028 C   0  0  0  0  0  0  0  0  0  0  0  0
   15.0398   -6.2911   17.4331 C   0  0  0  0  0  0  0  0  0  0  0  0
   16.2706   -5.9732   18.0202 C   0  0  0  0  0  0  0  0  0  0  0  0
   16.8510   -7.2501   18.2230 C   0  0  0  0  0  0  0  0  0  0  0  0
   16.1023   -8.2714   17.7978 N   0  0  0  0  0  0  0  0  0  0  0  0
   14.9913   -7.6612   17.3596 N   0  0  0  0  0  0  0  0  0  0  0  0
   13.8636   -8.4583   16.9412 C   0  0  0  0  0  0  0  0  0  0  0  0
  1  2  1  0
  2  3  1  0
  3  4  1  6
  5  4  1  6
  5  6  1  0
  6  7  1  0
  7  8  1  0
  8  9  1  0
  9 10  2  0
 10 11  1  0
 11 12  2  0
 12 13  1  0
 13 14  2  0
 14 15  1  0
  8 16  1  0
  3 17  1  0
 17 18  2  0
 18 19  1  0
 19 20  2  0
 20 21  1  0
 21 22  2  0
 22 23  1  0
 23 24  2  0
 24 25  1  0
 25 26  1  0
 16  5  1  0
 22 17  1  0
 14  9  1  0
 25 21  1  0
M  END
>  <energy_score>  (922) 
-27.980035

>  <inchikey>  (922) 
None

>  <smiles>  (922) 
None

>  <ref_pdb>  (922) 
A1105b

>  <alias>  (922) 
None

>  <HIPPO Pose ID>  (922) 
498566

>  <name>  (922) 
P498566

>  <HIPPO Compound ID>  (922) 
293420

>  <ref_mols>  (922) 
A0497a,A1105b

>  <distance_score>  (922) 
1.773391

>  <inspiration_score>  (922) 
None

$$$$
P498567
     RDKit          3D

 26 29  0  0  0  0  0  0  0  0999 V2000
   18.7355   -2.8416   17.7649 C   0  0  0  0  0  0  0  0  0  0  0  0
   18.6777   -4.2101   18.0922 O   0  0  0  0  0  0  0  0  0  0  0  0
   17.6653   -4.5525   19.0078 C   0  0  2  0  0  0  0  0  0  0  0  0
   18.1578   -5.6537   19.8207 N   0  0  0  0  0  0  0  0  0  0  0  0
   19.2715   -5.4256   20.7583 C   0  0  2  0  0  0  0  0  0  0  0  0
   20.1786   -4.2032   20.6332 C   0  0  0  0  0  0  0  0  0  0  0  0
   21.2420   -4.5820   19.5920 C   0  0  0  0  0  0  0  0  0  0  0  0
   21.2103   -6.0613   19.4742 N   0  0  0  0  0  0  0  0  0  0  0  0
   20.8262   -6.5029   18.1783 C   0  0  0  0  0  0  0  0  0  0  0  0
   19.7764   -7.3661   18.0896 N   0  0  0  0  0  0  0  0  0  0  0  0
   19.2867   -7.6831   16.8663 C   0  0  0  0  0  0  0  0  0  0  0  0
   19.7803   -7.1832   15.6850 C   0  0  0  0  0  0  0  0  0  0  0  0
   20.9035   -6.3772   15.7523 C   0  0  0  0  0  0  0  0  0  0  0  0
   21.4590   -6.0633   16.9945 C   0  0  0  0  0  0  0  0  0  0  0  0
   22.9489   -5.1753   16.9845 Cl  0  0  0  0  0  0  0  0  0  0  0  0
   20.3468   -6.5445   20.5792 C   0  0  0  0  0  0  0  0  0  0  0  0
   16.3798   -4.9372   18.2480 C   0  0  0  0  0  0  0  0  0  0  0  0
   15.4933   -3.8855   17.9026 C   0  0  0  0  0  0  0  0  0  0  0  0
   14.2580   -4.1081   17.3019 C   0  0  0  0  0  0  0  0  0  0  0  0
   13.8309   -5.3951   17.0148 C   0  0  0  0  0  0  0  0  0  0  0  0
   14.6744   -6.4529   17.3530 C   0  0  0  0  0  0  0  0  0  0  0  0
   15.9168   -6.2586   17.9598 C   0  0  0  0  0  0  0  0  0  0  0  0
   16.3387   -7.5847   18.2374 C   0  0  0  0  0  0  0  0  0  0  0  0
   15.5394   -8.5274   17.7319 N   0  0  0  0  0  0  0  0  0  0  0  0
   14.5104   -7.8119   17.2492 N   0  0  0  0  0  0  0  0  0  0  0  0
   13.3613   -8.5124   16.7314 C   0  0  0  0  0  0  0  0  0  0  0  0
  1  2  1  0
  2  3  1  0
  3  4  1  6
  5  4  1  6
  5  6  1  0
  6  7  1  0
  7  8  1  0
  8  9  1  0
  9 10  2  0
 10 11  1  0
 11 12  2  0
 12 13  1  0
 13 14  2  0
 14 15  1  0
  8 16  1  0
  3 17  1  0
 17 18  2  0
 18 19  1  0
 19 20  2  0
 20 21  1  0
 21 22  2  0
 22 23  1  0
 23 24  2  0
 24 25  1  0
 25 26  1  0
 16  5  1  0
 22 17  1  0
 14  9  1  0
 25 21  1  0
M  END
>  <energy_score>  (923) 
-28.448763

>  <inchikey>  (923) 
None

>  <smiles>  (923) 
None

>  <ref_pdb>  (923) 
A1105b

>  <alias>  (923) 
None

>  <HIPPO Pose ID>  (923) 
498567

>  <name>  (923) 
P498567

>  <HIPPO Compound ID>  (923) 
293420

>  <ref_mols>  (923) 
A0497a,A1105b

>  <distance_score>  (923) 
1.351489

>  <inspiration_score>  (923) 
None

$$$$
P498568
     RDKit          3D

 26 29  0  0  0  0  0  0  0  0999 V2000
   19.0279   -2.9652   17.6305 C   0  0  0  0  0  0  0  0  0  0  0  0
   18.7989   -4.2583   18.1572 O   0  0  0  0  0  0  0  0  0  0  0  0
   17.7165   -4.2993   19.0487 C   0  0  2  0  0  0  0  0  0  0  0  0
   17.9982   -5.0186   20.2989 N   0  0  0  0  0  0  0  0  0  0  0  0
   19.3667   -5.3312   20.7298 C   0  0  2  0  0  0  0  0  0  0  0  0
   20.5034   -4.3456   20.4891 C   0  0  0  0  0  0  0  0  0  0  0  0
   21.3444   -4.9393   19.3471 C   0  0  0  0  0  0  0  0  0  0  0  0
   20.9030   -6.3355   19.1648 N   0  0  0  0  0  0  0  0  0  0  0  0
   20.4688   -6.6907   17.8691 C   0  0  0  0  0  0  0  0  0  0  0  0
   19.4328   -7.5643   17.7364 N   0  0  0  0  0  0  0  0  0  0  0  0
   18.9373   -7.7983   16.5012 C   0  0  0  0  0  0  0  0  0  0  0  0
   19.4565   -7.2617   15.3447 C   0  0  0  0  0  0  0  0  0  0  0  0
   20.5772   -6.4591   15.4539 C   0  0  0  0  0  0  0  0  0  0  0  0
   21.0963   -6.1922   16.7126 C   0  0  0  0  0  0  0  0  0  0  0  0
   22.2110   -5.4442   16.7851 F   0  0  0  0  0  0  0  0  0  0  0  0
   19.9706   -6.6694   20.2441 C   0  0  0  0  0  0  0  0  0  0  0  0
   16.4558   -4.7688   18.3278 C   0  0  0  0  0  0  0  0  0  0  0  0
   15.4829   -3.8126   17.9037 C   0  0  0  0  0  0  0  0  0  0  0  0
   14.2361   -4.1123   17.2737 C   0  0  0  0  0  0  0  0  0  0  0  0
   13.8131   -5.4167   16.9902 C   0  0  0  0  0  0  0  0  0  0  0  0
   14.7111   -6.4058   17.3991 C   0  0  0  0  0  0  0  0  0  0  0  0
   14.5924   -7.7431   17.2975 N   0  0  0  0  0  0  0  0  0  0  0  0
   15.6318   -8.2121   18.0100 N   0  0  0  0  0  0  0  0  0  0  0  0
   15.7480   -9.6309   18.2374 C   0  0  0  0  0  0  0  0  0  0  0  0
   16.4769   -7.2495   18.4684 C   0  0  0  0  0  0  0  0  0  0  0  0
   15.9667   -6.0580   18.0368 C   0  0  0  0  0  0  0  0  0  0  0  0
  1  2  1  0
  2  3  1  0
  3  4  1  1
  5  4  1  6
  5  6  1  0
  6  7  1  0
  7  8  1  0
  8  9  1  0
  9 10  2  0
 10 11  1  0
 11 12  2  0
 12 13  1  0
 13 14  2  0
 14 15  1  0
  8 16  1  0
  3 17  1  0
 17 18  2  0
 18 19  1  0
 19 20  2  0
 20 21  1  0
 21 22  2  0
 22 23  1  0
 23 24  1  0
 23 25  1  0
 25 26  2  0
 16  5  1  0
 26 17  1  0
 14  9  1  0
 26 21  1  0
M  END
>  <energy_score>  (924) 
-17.665101

>  <inchikey>  (924) 
None

>  <smiles>  (924) 
None

>  <ref_pdb>  (924) 
A1105b

>  <alias>  (924) 
None

>  <HIPPO Pose ID>  (924) 
498568

>  <name>  (924) 
P498568

>  <HIPPO Compound ID>  (924) 
293421

>  <ref_mols>  (924) 
A0497a,A1105b

>  <distance_score>  (924) 
1.520811

>  <inspiration_score>  (924) 
None

$$$$
P498569
     RDKit          3D

 26 29  0  0  0  0  0  0  0  0999 V2000
   18.9315   -2.9430   17.6749 C   0  0  0  0  0  0  0  0  0  0  0  0
   18.3277   -3.3758   18.8748 O   0  0  0  0  0  0  0  0  0  0  0  0
   17.9710   -4.7495   18.8635 C   0  0  1  0  0  0  0  0  0  0  0  0
   18.0246   -5.1476   20.2681 N   0  0  0  0  0  0  0  0  0  0  0  0
   19.3383   -5.5067   20.8296 C   0  0  2  0  0  0  0  0  0  0  0  0
   20.4766   -4.4955   20.7144 C   0  0  0  0  0  0  0  0  0  0  0  0
   21.2870   -4.9312   19.4901 C   0  0  0  0  0  0  0  0  0  0  0  0
   20.9634   -6.3516   19.2628 N   0  0  0  0  0  0  0  0  0  0  0  0
   20.6800   -6.7491   17.9467 C   0  0  0  0  0  0  0  0  0  0  0  0
   19.7554   -7.7249   17.7624 N   0  0  0  0  0  0  0  0  0  0  0  0
   19.2847   -7.9555   16.5162 C   0  0  0  0  0  0  0  0  0  0  0  0
   19.7312   -7.2967   15.3929 C   0  0  0  0  0  0  0  0  0  0  0  0
   20.7629   -6.3872   15.5497 C   0  0  0  0  0  0  0  0  0  0  0  0
   21.2547   -6.1322   16.8232 C   0  0  0  0  0  0  0  0  0  0  0  0
   22.2489   -5.2379   16.9485 F   0  0  0  0  0  0  0  0  0  0  0  0
   20.0066   -6.7945   20.2920 C   0  0  0  0  0  0  0  0  0  0  0  0
   16.5969   -4.9814   18.2603 C   0  0  0  0  0  0  0  0  0  0  0  0
   15.6653   -3.9404   17.9818 C   0  0  0  0  0  0  0  0  0  0  0  0
   14.3665   -4.1274   17.4115 C   0  0  0  0  0  0  0  0  0  0  0  0
   13.8483   -5.3829   17.0591 C   0  0  0  0  0  0  0  0  0  0  0  0
   14.7034   -6.4495   17.3514 C   0  0  0  0  0  0  0  0  0  0  0  0
   14.5156   -7.7689   17.1595 N   0  0  0  0  0  0  0  0  0  0  0  0
   15.5806   -8.3402   17.7512 N   0  0  0  0  0  0  0  0  0  0  0  0
   15.6369   -9.7770   17.8589 C   0  0  0  0  0  0  0  0  0  0  0  0
   16.5099   -7.4576   18.2101 C   0  0  0  0  0  0  0  0  0  0  0  0
   16.0086   -6.2169   17.9293 C   0  0  0  0  0  0  0  0  0  0  0  0
  1  2  1  0
  2  3  1  0
  3  4  1  1
  5  4  1  6
  5  6  1  0
  6  7  1  0
  7  8  1  0
  8  9  1  0
  9 10  2  0
 10 11  1  0
 11 12  2  0
 12 13  1  0
 13 14  2  0
 14 15  1  0
  8 16  1  0
  3 17  1  0
 17 18  2  0
 18 19  1  0
 19 20  2  0
 20 21  1  0
 21 22  2  0
 22 23  1  0
 23 24  1  0
 23 25  1  0
 25 26  2  0
 16  5  1  0
 26 17  1  0
 14  9  1  0
 26 21  1  0
M  END
>  <energy_score>  (925) 
-57.130803

>  <inchikey>  (925) 
None

>  <smiles>  (925) 
None

>  <ref_pdb>  (925) 
A1105b

>  <alias>  (925) 
None

>  <HIPPO Pose ID>  (925) 
498569

>  <name>  (925) 
P498569

>  <HIPPO Compound ID>  (925) 
293421

>  <ref_mols>  (925) 
A0497a,A1105b

>  <distance_score>  (925) 
1.255151

>  <inspiration_score>  (925) 
None

$$$$
P498570
     RDKit          3D

 26 29  0  0  0  0  0  0  0  0999 V2000
   18.4409   -2.2377   19.1958 C   0  0  0  0  0  0  0  0  0  0  0  0
   18.3856   -3.4673   18.4891 O   0  0  0  0  0  0  0  0  0  0  0  0
   17.5819   -4.4231   19.1547 C   0  0  2  0  0  0  0  0  0  0  0  0
   18.3517   -5.5864   19.4881 N   0  0  0  0  0  0  0  0  0  0  0  0
   19.5128   -5.5698   20.3662 C   0  0  2  0  0  0  0  0  0  0  0  0
   20.6633   -4.5950   20.1241 C   0  0  0  0  0  0  0  0  0  0  0  0
   21.3406   -5.1112   18.8557 C   0  0  0  0  0  0  0  0  0  0  0  0
   21.1013   -6.5791   18.8577 N   0  0  0  0  0  0  0  0  0  0  0  0
   20.5429   -6.9836   17.6148 C   0  0  0  0  0  0  0  0  0  0  0  0
   19.3420   -7.6241   17.5987 N   0  0  0  0  0  0  0  0  0  0  0  0
   18.7482   -7.8349   16.4028 C   0  0  0  0  0  0  0  0  0  0  0  0
   19.2937   -7.4636   15.1929 C   0  0  0  0  0  0  0  0  0  0  0  0
   20.5416   -6.8638   15.1965 C   0  0  0  0  0  0  0  0  0  0  0  0
   21.1765   -6.6400   16.4069 C   0  0  0  0  0  0  0  0  0  0  0  0
   22.3829   -6.0489   16.3998 F   0  0  0  0  0  0  0  0  0  0  0  0
   20.2938   -6.8909   20.0652 C   0  0  0  0  0  0  0  0  0  0  0  0
   16.3692   -4.8152   18.2931 C   0  0  0  0  0  0  0  0  0  0  0  0
   15.4630   -3.8043   17.8623 C   0  0  0  0  0  0  0  0  0  0  0  0
   14.2134   -4.0297   17.2127 C   0  0  0  0  0  0  0  0  0  0  0  0
   13.7145   -5.3031   16.9229 C   0  0  0  0  0  0  0  0  0  0  0  0
   14.5426   -6.3489   17.3305 C   0  0  0  0  0  0  0  0  0  0  0  0
   14.3361   -7.6730   17.2063 N   0  0  0  0  0  0  0  0  0  0  0  0
   15.3229   -8.2210   17.9319 N   0  0  0  0  0  0  0  0  0  0  0  0
   15.3313   -9.6468   18.1463 C   0  0  0  0  0  0  0  0  0  0  0  0
   16.2296   -7.3247   18.4100 C   0  0  0  0  0  0  0  0  0  0  0  0
   15.8084   -6.0874   17.9908 C   0  0  0  0  0  0  0  0  0  0  0  0
  1  2  1  0
  2  3  1  0
  3  4  1  6
  5  4  1  6
  5  6  1  0
  6  7  1  0
  7  8  1  0
  8  9  1  0
  9 10  2  0
 10 11  1  0
 11 12  2  0
 12 13  1  0
 13 14  2  0
 14 15  1  0
  8 16  1  0
  3 17  1  0
 17 18  2  0
 18 19  1  0
 19 20  2  0
 20 21  1  0
 21 22  2  0
 22 23  1  0
 23 24  1  0
 23 25  1  0
 25 26  2  0
 16  5  1  0
 26 17  1  0
 14  9  1  0
 26 21  1  0
M  END
>  <energy_score>  (926) 
-39.130533

>  <inchikey>  (926) 
None

>  <smiles>  (926) 
None

>  <ref_pdb>  (926) 
A1105b

>  <alias>  (926) 
None

>  <HIPPO Pose ID>  (926) 
498570

>  <name>  (926) 
P498570

>  <HIPPO Compound ID>  (926) 
293421

>  <ref_mols>  (926) 
A0497a,A1105b

>  <distance_score>  (926) 
1.517624

>  <inspiration_score>  (926) 
None

$$$$
P498571
     RDKit          3D

 26 29  0  0  0  0  0  0  0  0999 V2000
   18.9437   -2.3617   18.5258 C   0  0  0  0  0  0  0  0  0  0  0  0
   17.7931   -3.0364   18.9871 O   0  0  0  0  0  0  0  0  0  0  0  0
   17.7729   -4.4245   18.6890 C   0  0  1  0  0  0  0  0  0  0  0  0
   18.0853   -5.0915   19.9444 N   0  0  0  0  0  0  0  0  0  0  0  0
   19.4928   -5.0168   20.3710 C   0  0  1  0  0  0  0  0  0  0  0  0
   19.7245   -6.2131   21.2770 C   0  0  0  0  0  0  0  0  0  0  0  0
   19.9119   -7.3574   20.2684 C   0  0  0  0  0  0  0  0  0  0  0  0
   20.6094   -6.7420   19.1241 N   0  0  0  0  0  0  0  0  0  0  0  0
   20.1896   -7.1160   17.8318 C   0  0  0  0  0  0  0  0  0  0  0  0
   19.2155   -8.0477   17.6843 N   0  0  0  0  0  0  0  0  0  0  0  0
   18.7138   -8.2532   16.4457 C   0  0  0  0  0  0  0  0  0  0  0  0
   19.1596   -7.6108   15.3091 C   0  0  0  0  0  0  0  0  0  0  0  0
   20.2219   -6.7340   15.4343 C   0  0  0  0  0  0  0  0  0  0  0  0
   20.7508   -6.5033   16.6925 C   0  0  0  0  0  0  0  0  0  0  0  0
   21.7859   -5.6531   16.8001 F   0  0  0  0  0  0  0  0  0  0  0  0
   20.6133   -5.2821   19.3328 C   0  0  0  0  0  0  0  0  0  0  0  0
   16.3894   -4.7977   18.1689 C   0  0  0  0  0  0  0  0  0  0  0  0
   15.4257   -3.8143   17.8051 C   0  0  0  0  0  0  0  0  0  0  0  0
   14.1468   -4.0750   17.2295 C   0  0  0  0  0  0  0  0  0  0  0  0
   13.6747   -5.3633   16.9581 C   0  0  0  0  0  0  0  0  0  0  0  0
   14.5447   -6.3803   17.3493 C   0  0  0  0  0  0  0  0  0  0  0  0
   14.3807   -7.7139   17.2605 N   0  0  0  0  0  0  0  0  0  0  0  0
   15.4245   -8.2096   17.9478 N   0  0  0  0  0  0  0  0  0  0  0  0
   15.4820   -9.6240   18.2202 C   0  0  0  0  0  0  0  0  0  0  0  0
   16.3273   -7.2722   18.3428 C   0  0  0  0  0  0  0  0  0  0  0  0
   15.8332   -6.0694   17.9284 C   0  0  0  0  0  0  0  0  0  0  0  0
  1  2  1  0
  2  3  1  0
  3  4  1  1
  5  4  1  6
  5  6  1  0
  6  7  1  0
  7  8  1  0
  8  9  1  0
  9 10  2  0
 10 11  1  0
 11 12  2  0
 12 13  1  0
 13 14  2  0
 14 15  1  0
  8 16  1  0
  3 17  1  0
 17 18  2  0
 18 19  1  0
 19 20  2  0
 20 21  1  0
 21 22  2  0
 22 23  1  0
 23 24  1  0
 23 25  1  0
 25 26  2  0
 16  5  1  0
 26 17  1  0
 14  9  1  0
 26 21  1  0
M  END
>  <energy_score>  (927) 
-40.512902

>  <inchikey>  (927) 
None

>  <smiles>  (927) 
None

>  <ref_pdb>  (927) 
A1105b

>  <alias>  (927) 
None

>  <HIPPO Pose ID>  (927) 
498571

>  <name>  (927) 
P498571

>  <HIPPO Compound ID>  (927) 
293421

>  <ref_mols>  (927) 
A0497a,A1105b

>  <distance_score>  (927) 
1.72291

>  <inspiration_score>  (927) 
None

$$$$
P498572
     RDKit          3D

 26 29  0  0  0  0  0  0  0  0999 V2000
   13.1694   -4.1011   16.9935 C   0  0  0  0  0  0  0  0  0  0  0  0
   14.4698   -4.1289   17.5477 N   0  0  0  0  0  0  0  0  0  0  0  0
   14.9786   -2.9874   18.0168 N   0  0  0  0  0  0  0  0  0  0  0  0
   16.1767   -3.3383   18.4331 C   0  0  0  0  0  0  0  0  0  0  0  0
   16.3752   -4.7218   18.2929 C   0  0  0  0  0  0  0  0  0  0  0  0
   17.3701   -5.5793   18.7621 C   0  0  0  0  0  0  0  0  0  0  0  0
   18.4313   -4.9473   19.6145 C   0  0  2  0  0  0  0  0  0  0  0  0
   18.9363   -3.8766   18.8518 O   0  0  0  0  0  0  0  0  0  0  0  0
   19.4446   -5.8639   20.0278 N   0  0  0  0  0  0  0  0  0  0  0  0
   20.6877   -5.3432   20.6032 C   0  0  2  0  0  0  0  0  0  0  0  0
   21.1617   -3.9111   20.3402 C   0  0  0  0  0  0  0  0  0  0  0  0
   21.8215   -3.9456   18.9527 C   0  0  0  0  0  0  0  0  0  0  0  0
   22.1675   -5.3664   18.6899 N   0  0  0  0  0  0  0  0  0  0  0  0
   21.4524   -5.9681   17.6150 C   0  0  0  0  0  0  0  0  0  0  0  0
   20.3132   -5.4063   17.1559 N   0  0  0  0  0  0  0  0  0  0  0  0
   19.5284   -6.1252   16.3119 C   0  0  0  0  0  0  0  0  0  0  0  0
   19.8468   -7.3657   15.8117 C   0  0  0  0  0  0  0  0  0  0  0  0
   21.0574   -7.9050   16.2025 C   0  0  0  0  0  0  0  0  0  0  0  0
   21.8564   -7.2108   17.1076 C   0  0  0  0  0  0  0  0  0  0  0  0
   22.9889   -7.7929   17.5365 F   0  0  0  0  0  0  0  0  0  0  0  0
   21.8741   -6.1095   19.9452 C   0  0  0  0  0  0  0  0  0  0  0  0
   17.2091   -6.9507   18.4733 C   0  0  0  0  0  0  0  0  0  0  0  0
   16.0837   -7.4266   17.7900 C   0  0  0  0  0  0  0  0  0  0  0  0
   15.9391   -9.2788   17.4275 Br  0  0  0  0  0  0  0  0  0  0  0  0
   15.0530   -6.5779   17.3986 C   0  0  0  0  0  0  0  0  0  0  0  0
   15.2462   -5.2261   17.6847 C   0  0  0  0  0  0  0  0  0  0  0  0
  1  2  1  0
  2  3  1  0
  3  4  2  0
  4  5  1  0
  5  6  2  0
  6  7  1  0
  7  8  1  6
  7  9  1  0
 10  9  1  6
 10 11  1  0
 11 12  1  0
 12 13  1  0
 13 14  1  0
 14 15  2  0
 15 16  1  0
 16 17  2  0
 17 18  1  0
 18 19  2  0
 19 20  1  0
 13 21  1  0
  6 22  1  0
 22 23  2  0
 23 24  1  0
 23 25  1  0
 25 26  2  0
 26  2  1  0
 26  5  1  0
 21 10  1  0
 19 14  1  0
M  END
>  <energy_score>  (928) 
-12.752658

>  <inchikey>  (928) 
None

>  <smiles>  (928) 
None

>  <ref_pdb>  (928) 
A1105b

>  <alias>  (928) 
None

>  <HIPPO Pose ID>  (928) 
498572

>  <name>  (928) 
P498572

>  <HIPPO Compound ID>  (928) 
293422

>  <ref_mols>  (928) 
A0497a,A1105b

>  <distance_score>  (928) 
1.909126

>  <inspiration_score>  (928) 
None

$$$$
P498573
     RDKit          3D

 26 29  0  0  0  0  0  0  0  0999 V2000
   13.0785   -3.9712   17.1240 C   0  0  0  0  0  0  0  0  0  0  0  0
   14.3609   -4.0752   17.6954 N   0  0  0  0  0  0  0  0  0  0  0  0
   14.9527   -2.9829   18.1868 N   0  0  0  0  0  0  0  0  0  0  0  0
   16.1779   -3.4014   18.4291 C   0  0  0  0  0  0  0  0  0  0  0  0
   16.3044   -4.7732   18.1501 C   0  0  0  0  0  0  0  0  0  0  0  0
   17.3338   -5.6837   18.2980 C   0  0  0  0  0  0  0  0  0  0  0  0
   18.6593   -5.1959   18.7546 C   0  0  1  0  0  0  0  0  0  0  0  0
   18.9337   -3.9349   18.1694 O   0  0  0  0  0  0  0  0  0  0  0  0
   18.7340   -5.0893   20.1942 N   0  0  0  0  0  0  0  0  0  0  0  0
   20.1118   -5.0841   20.7312 C   0  0  2  0  0  0  0  0  0  0  0  0
   20.9623   -3.8744   20.3510 C   0  0  0  0  0  0  0  0  0  0  0  0
   21.7308   -4.3002   19.0943 C   0  0  0  0  0  0  0  0  0  0  0  0
   21.7880   -5.7843   19.1216 N   0  0  0  0  0  0  0  0  0  0  0  0
   21.4925   -6.4735   17.9261 C   0  0  0  0  0  0  0  0  0  0  0  0
   20.8570   -7.6755   18.0259 N   0  0  0  0  0  0  0  0  0  0  0  0
   20.2404   -8.1906   16.9352 C   0  0  0  0  0  0  0  0  0  0  0  0
   20.2532   -7.5921   15.6937 C   0  0  0  0  0  0  0  0  0  0  0  0
   21.0158   -6.4442   15.5463 C   0  0  0  0  0  0  0  0  0  0  0  0
   21.6645   -5.9039   16.6531 C   0  0  0  0  0  0  0  0  0  0  0  0
   22.3839   -4.7840   16.4773 F   0  0  0  0  0  0  0  0  0  0  0  0
   21.0550   -6.2526   20.3233 C   0  0  0  0  0  0  0  0  0  0  0  0
   17.0521   -7.0416   18.0445 C   0  0  0  0  0  0  0  0  0  0  0  0
   15.7993   -7.4542   17.5943 C   0  0  0  0  0  0  0  0  0  0  0  0
   15.4925   -9.2869   17.2440 Br  0  0  0  0  0  0  0  0  0  0  0  0
   14.7721   -6.5414   17.4021 C   0  0  0  0  0  0  0  0  0  0  0  0
   15.0796   -5.2135   17.7117 C   0  0  0  0  0  0  0  0  0  0  0  0
  1  2  1  0
  2  3  1  0
  3  4  2  0
  4  5  1  0
  5  6  2  0
  6  7  1  0
  7  8  1  6
  7  9  1  0
 10  9  1  6
 10 11  1  0
 11 12  1  0
 12 13  1  0
 13 14  1  0
 14 15  2  0
 15 16  1  0
 16 17  2  0
 17 18  1  0
 18 19  2  0
 19 20  1  0
 13 21  1  0
  6 22  1  0
 22 23  2  0
 23 24  1  0
 23 25  1  0
 25 26  2  0
 26  2  1  0
 26  5  1  0
 21 10  1  0
 19 14  1  0
M  END
>  <energy_score>  (929) 
-45.47006

>  <inchikey>  (929) 
None

>  <smiles>  (929) 
None

>  <ref_pdb>  (929) 
A1105b

>  <alias>  (929) 
None

>  <HIPPO Pose ID>  (929) 
498573

>  <name>  (929) 
P498573

>  <HIPPO Compound ID>  (929) 
293422

>  <ref_mols>  (929) 
A0497a,A1105b

>  <distance_score>  (929) 
1.915639

>  <inspiration_score>  (929) 
None

$$$$
P498574
     RDKit          3D

 26 29  0  0  0  0  0  0  0  0999 V2000
   18.9246   -2.5226   18.6044 C   0  0  0  0  0  0  0  0  0  0  0  0
   18.4897   -3.7906   18.1494 O   0  0  0  0  0  0  0  0  0  0  0  0
   17.5853   -4.4239   19.0315 C   0  0  2  0  0  0  0  0  0  0  0  0
   18.2237   -5.5191   19.7414 N   0  0  0  0  0  0  0  0  0  0  0  0
   19.4676   -5.1745   20.4443 C   0  0  1  0  0  0  0  0  0  0  0  0
   19.8256   -6.3465   21.3473 C   0  0  0  0  0  0  0  0  0  0  0  0
   20.4741   -7.3752   20.4028 C   0  0  0  0  0  0  0  0  0  0  0  0
   21.0339   -6.5882   19.2799 N   0  0  0  0  0  0  0  0  0  0  0  0
   20.5319   -6.9176   17.9942 C   0  0  0  0  0  0  0  0  0  0  0  0
   21.0877   -6.2863   16.8773 C   0  0  0  0  0  0  0  0  0  0  0  0
   20.4882   -6.4223   15.6352 C   0  0  0  0  0  0  0  0  0  0  0  0
   19.3686   -7.2251   15.5158 C   0  0  0  0  0  0  0  0  0  0  0  0
   18.9028   -7.8874   16.6390 C   0  0  0  0  0  0  0  0  0  0  0  0
   17.7646   -8.8501   16.4837 C   0  0  0  0  0  0  0  0  0  0  0  0
   19.4682   -7.7449   17.8649 N   0  0  0  0  0  0  0  0  0  0  0  0
   20.7547   -5.1607   19.5765 C   0  0  0  0  0  0  0  0  0  0  0  0
   16.3450   -4.8521   18.2484 C   0  0  0  0  0  0  0  0  0  0  0  0
   15.4757   -3.8287   17.7686 C   0  0  0  0  0  0  0  0  0  0  0  0
   14.2170   -4.0313   17.1343 C   0  0  0  0  0  0  0  0  0  0  0  0
   13.6690   -5.2969   16.9153 C   0  0  0  0  0  0  0  0  0  0  0  0
   14.4408   -6.3492   17.4068 C   0  0  0  0  0  0  0  0  0  0  0  0
   14.1478   -7.6615   17.4169 N   0  0  0  0  0  0  0  0  0  0  0  0
   15.0633   -8.1789   18.2512 N   0  0  0  0  0  0  0  0  0  0  0  0
   14.9048   -9.5356   18.7126 C   0  0  0  0  0  0  0  0  0  0  0  0
   16.0778   -7.3229   18.5705 C   0  0  0  0  0  0  0  0  0  0  0  0
   15.7269   -6.1083   18.0372 C   0  0  0  0  0  0  0  0  0  0  0  0
  1  2  1  0
  2  3  1  0
  3  4  1  6
  5  4  1  6
  5  6  1  0
  6  7  1  0
  7  8  1  0
  8  9  1  0
  9 10  2  0
 10 11  1  0
 11 12  2  0
 12 13  1  0
 13 14  1  0
 13 15  2  0
  8 16  1  0
  3 17  1  0
 17 18  2  0
 18 19  1  0
 19 20  2  0
 20 21  1  0
 21 22  2  0
 22 23  1  0
 23 24  1  0
 23 25  1  0
 25 26  2  0
 16  5  1  0
 26 17  1  0
 15  9  1  0
 26 21  1  0
M  END
>  <energy_score>  (930) 
-28.506259

>  <inchikey>  (930) 
None

>  <smiles>  (930) 
None

>  <ref_pdb>  (930) 
A1105b

>  <alias>  (930) 
None

>  <HIPPO Pose ID>  (930) 
498574

>  <name>  (930) 
P498574

>  <HIPPO Compound ID>  (930) 
293423

>  <ref_mols>  (930) 
A0497a,A1105b

>  <distance_score>  (930) 
1.475944

>  <inspiration_score>  (930) 
None

$$$$
P498575
     RDKit          3D

 26 29  0  0  0  0  0  0  0  0999 V2000
   18.8293   -2.9218   17.7899 C   0  0  0  0  0  0  0  0  0  0  0  0
   18.2776   -3.5055   18.9500 O   0  0  0  0  0  0  0  0  0  0  0  0
   17.9612   -4.8814   18.7999 C   0  0  1  0  0  0  0  0  0  0  0  0
   18.0456   -5.4974   20.1273 N   0  0  0  0  0  0  0  0  0  0  0  0
   19.3634   -5.6610   20.7617 C   0  0  2  0  0  0  0  0  0  0  0  0
   20.4029   -4.5467   20.6845 C   0  0  0  0  0  0  0  0  0  0  0  0
   21.2728   -4.8924   19.4725 C   0  0  0  0  0  0  0  0  0  0  0  0
   21.0567   -6.3260   19.1997 N   0  0  0  0  0  0  0  0  0  0  0  0
   20.7453   -6.7331   17.8986 C   0  0  0  0  0  0  0  0  0  0  0  0
   21.1659   -6.0111   16.7813 C   0  0  0  0  0  0  0  0  0  0  0  0
   20.6635   -6.3153   15.5220 C   0  0  0  0  0  0  0  0  0  0  0  0
   19.8120   -7.3939   15.3755 C   0  0  0  0  0  0  0  0  0  0  0  0
   19.5348   -8.1604   16.4916 C   0  0  0  0  0  0  0  0  0  0  0  0
   18.7971   -9.4546   16.3297 C   0  0  0  0  0  0  0  0  0  0  0  0
   19.9833   -7.8405   17.7296 N   0  0  0  0  0  0  0  0  0  0  0  0
   20.1894   -6.8716   20.2549 C   0  0  0  0  0  0  0  0  0  0  0  0
   16.5758   -5.0801   18.2002 C   0  0  0  0  0  0  0  0  0  0  0  0
   15.6532   -4.0145   17.9808 C   0  0  0  0  0  0  0  0  0  0  0  0
   14.3440   -4.1571   17.4289 C   0  0  0  0  0  0  0  0  0  0  0  0
   13.7986   -5.3907   17.0493 C   0  0  0  0  0  0  0  0  0  0  0  0
   14.6367   -6.4823   17.2924 C   0  0  0  0  0  0  0  0  0  0  0  0
   14.4107   -7.7903   17.0733 N   0  0  0  0  0  0  0  0  0  0  0  0
   15.4818   -8.4030   17.6059 N   0  0  0  0  0  0  0  0  0  0  0  0
   15.4788   -9.8415   17.7096 C   0  0  0  0  0  0  0  0  0  0  0  0
   16.4684   -7.5566   18.0183 C   0  0  0  0  0  0  0  0  0  0  0  0
   15.9638   -6.2964   17.8378 C   0  0  0  0  0  0  0  0  0  0  0  0
  1  2  1  0
  2  3  1  0
  3  4  1  1
  5  4  1  6
  5  6  1  0
  6  7  1  0
  7  8  1  0
  8  9  1  0
  9 10  2  0
 10 11  1  0
 11 12  2  0
 12 13  1  0
 13 14  1  0
 13 15  2  0
  8 16  1  0
  3 17  1  0
 17 18  2  0
 18 19  1  0
 19 20  2  0
 20 21  1  0
 21 22  2  0
 22 23  1  0
 23 24  1  0
 23 25  1  0
 25 26  2  0
 16  5  1  0
 26 17  1  0
 15  9  1  0
 26 21  1  0
M  END
>  <energy_score>  (931) 
-28.655601

>  <inchikey>  (931) 
None

>  <smiles>  (931) 
None

>  <ref_pdb>  (931) 
A1105b

>  <alias>  (931) 
None

>  <HIPPO Pose ID>  (931) 
498575

>  <name>  (931) 
P498575

>  <HIPPO Compound ID>  (931) 
293423

>  <ref_mols>  (931) 
A0497a,A1105b

>  <distance_score>  (931) 
1.420572

>  <inspiration_score>  (931) 
None

$$$$
P498576
     RDKit          3D

 26 29  0  0  0  0  0  0  0  0999 V2000
   18.2274   -2.0886   19.4884 C   0  0  0  0  0  0  0  0  0  0  0  0
   18.1206   -3.1085   18.5050 O   0  0  0  0  0  0  0  0  0  0  0  0
   17.6276   -4.3175   19.0560 C   0  0  2  0  0  0  0  0  0  0  0  0
   18.6428   -5.3399   19.0958 N   0  0  0  0  0  0  0  0  0  0  0  0
   19.9995   -5.0235   19.5630 C   0  0  2  0  0  0  0  0  0  0  0  0
   20.8288   -4.0344   18.7377 C   0  0  0  0  0  0  0  0  0  0  0  0
   21.0833   -4.7852   17.4263 C   0  0  0  0  0  0  0  0  0  0  0  0
   21.1798   -6.2140   17.8187 N   0  0  0  0  0  0  0  0  0  0  0  0
   20.4131   -7.1047   17.0390 C   0  0  0  0  0  0  0  0  0  0  0  0
   19.7574   -8.0827   17.7180 N   0  0  0  0  0  0  0  0  0  0  0  0
   18.8649   -8.8594   17.0771 C   0  0  0  0  0  0  0  0  0  0  0  0
   18.5549   -8.7291   15.7478 C   0  0  0  0  0  0  0  0  0  0  0  0
   19.2855   -7.8139   15.0171 C   0  0  0  0  0  0  0  0  0  0  0  0
   20.2532   -7.0272   15.6415 C   0  0  0  0  0  0  0  0  0  0  0  0
   21.1945   -6.0705   14.5658 Cl  0  0  0  0  0  0  0  0  0  0  0  0
   20.8969   -6.2742   19.2881 C   0  0  0  0  0  0  0  0  0  0  0  0
   16.3999   -4.7655   18.2613 C   0  0  0  0  0  0  0  0  0  0  0  0
   15.4258   -3.8053   17.8567 C   0  0  0  0  0  0  0  0  0  0  0  0
   14.1799   -4.0957   17.2272 C   0  0  0  0  0  0  0  0  0  0  0  0
   13.7486   -5.3962   16.9457 C   0  0  0  0  0  0  0  0  0  0  0  0
   14.6359   -6.3929   17.3552 C   0  0  0  0  0  0  0  0  0  0  0  0
   14.4947   -7.7275   17.2695 N   0  0  0  0  0  0  0  0  0  0  0  0
   15.5097   -8.2050   18.0070 N   0  0  0  0  0  0  0  0  0  0  0  0
   15.5196   -9.6058   18.3487 C   0  0  0  0  0  0  0  0  0  0  0  0
   16.4070   -7.2604   18.4081 C   0  0  0  0  0  0  0  0  0  0  0  0
   15.9001   -6.0596   17.9823 C   0  0  0  0  0  0  0  0  0  0  0  0
  1  2  1  0
  2  3  1  0
  3  4  1  6
  5  4  1  6
  5  6  1  0
  6  7  1  0
  7  8  1  0
  8  9  1  0
  9 10  2  0
 10 11  1  0
 11 12  2  0
 12 13  1  0
 13 14  2  0
 14 15  1  0
  8 16  1  0
  3 17  1  0
 17 18  2  0
 18 19  1  0
 19 20  2  0
 20 21  1  0
 21 22  2  0
 22 23  1  0
 23 24  1  0
 23 25  1  0
 25 26  2  0
 16  5  1  0
 26 17  1  0
 14  9  1  0
 26 21  1  0
M  END
>  <energy_score>  (932) 
-38.10608

>  <inchikey>  (932) 
None

>  <smiles>  (932) 
None

>  <ref_pdb>  (932) 
A1105b

>  <alias>  (932) 
None

>  <HIPPO Pose ID>  (932) 
498576

>  <name>  (932) 
P498576

>  <HIPPO Compound ID>  (932) 
293424

>  <ref_mols>  (932) 
A0497a,A1105b

>  <distance_score>  (932) 
1.632239

>  <inspiration_score>  (932) 
None

$$$$
P498577
     RDKit          3D

 26 29  0  0  0  0  0  0  0  0999 V2000
   18.6185   -2.3501   18.5909 C   0  0  0  0  0  0  0  0  0  0  0  0
   17.7625   -3.3114   19.1786 O   0  0  0  0  0  0  0  0  0  0  0  0
   17.8167   -4.5887   18.5452 C   0  0  1  0  0  0  0  0  0  0  0  0
   18.4903   -5.5174   19.4526 N   0  0  0  0  0  0  0  0  0  0  0  0
   19.8743   -5.0788   19.7490 C   0  0  1  0  0  0  0  0  0  0  0  0
   20.5902   -6.1353   20.5847 C   0  0  0  0  0  0  0  0  0  0  0  0
   21.4558   -6.9534   19.6083 C   0  0  0  0  0  0  0  0  0  0  0  0
   21.2927   -6.3444   18.2702 N   0  0  0  0  0  0  0  0  0  0  0  0
   20.4411   -7.0504   17.3928 C   0  0  0  0  0  0  0  0  0  0  0  0
   19.7225   -8.0760   17.9223 N   0  0  0  0  0  0  0  0  0  0  0  0
   18.8589   -8.7482   17.1339 C   0  0  0  0  0  0  0  0  0  0  0  0
   18.6084   -8.4310   15.8212 C   0  0  0  0  0  0  0  0  0  0  0  0
   19.3476   -7.4071   15.2627 C   0  0  0  0  0  0  0  0  0  0  0  0
   20.2855   -6.7201   16.0303 C   0  0  0  0  0  0  0  0  0  0  0  0
   21.1988   -5.5341   15.1816 Cl  0  0  0  0  0  0  0  0  0  0  0  0
   20.8333   -4.9673   18.5263 C   0  0  0  0  0  0  0  0  0  0  0  0
   16.4090   -4.9911   18.1318 C   0  0  0  0  0  0  0  0  0  0  0  0
   15.4657   -3.9791   17.7663 C   0  0  0  0  0  0  0  0  0  0  0  0
   14.1728   -4.2006   17.2174 C   0  0  0  0  0  0  0  0  0  0  0  0
   13.6730   -5.4788   16.9566 C   0  0  0  0  0  0  0  0  0  0  0  0
   14.5145   -6.5213   17.3509 C   0  0  0  0  0  0  0  0  0  0  0  0
   14.3061   -7.8474   17.2655 N   0  0  0  0  0  0  0  0  0  0  0  0
   15.3159   -8.3758   17.9736 N   0  0  0  0  0  0  0  0  0  0  0  0
   15.2833   -9.7818   18.2927 C   0  0  0  0  0  0  0  0  0  0  0  0
   16.2666   -7.4752   18.3545 C   0  0  0  0  0  0  0  0  0  0  0  0
   15.8199   -6.2547   17.9228 C   0  0  0  0  0  0  0  0  0  0  0  0
  1  2  1  0
  2  3  1  0
  3  4  1  1
  5  4  1  6
  5  6  1  0
  6  7  1  0
  7  8  1  0
  8  9  1  0
  9 10  2  0
 10 11  1  0
 11 12  2  0
 12 13  1  0
 13 14  2  0
 14 15  1  0
  8 16  1  0
  3 17  1  0
 17 18  2  0
 18 19  1  0
 19 20  2  0
 20 21  1  0
 21 22  2  0
 22 23  1  0
 23 24  1  0
 23 25  1  0
 25 26  2  0
 16  5  1  0
 26 17  1  0
 14  9  1  0
 26 21  1  0
M  END
>  <energy_score>  (933) 
-38.133827

>  <inchikey>  (933) 
None

>  <smiles>  (933) 
None

>  <ref_pdb>  (933) 
A1105b

>  <alias>  (933) 
None

>  <HIPPO Pose ID>  (933) 
498577

>  <name>  (933) 
P498577

>  <HIPPO Compound ID>  (933) 
293424

>  <ref_mols>  (933) 
A0497a,A1105b

>  <distance_score>  (933) 
1.740741

>  <inspiration_score>  (933) 
None

$$$$
P498578
     RDKit          3D

 26 29  0  0  0  0  0  0  0  0999 V2000
   18.2308   -2.0246   19.3480 C   0  0  0  0  0  0  0  0  0  0  0  0
   18.1904   -3.1381   18.4663 O   0  0  0  0  0  0  0  0  0  0  0  0
   17.6107   -4.2833   19.0804 C   0  0  2  0  0  0  0  0  0  0  0  0
   18.6077   -5.2985   19.3965 N   0  0  0  0  0  0  0  0  0  0  0  0
   19.9761   -4.7724   19.5631 C   0  0  1  0  0  0  0  0  0  0  0  0
   20.8370   -5.8173   20.2735 C   0  0  0  0  0  0  0  0  0  0  0  0
   21.8906   -6.2809   19.2617 C   0  0  0  0  0  0  0  0  0  0  0  0
   21.4645   -5.7881   17.9439 N   0  0  0  0  0  0  0  0  0  0  0  0
   20.6501   -6.6932   17.2209 C   0  0  0  0  0  0  0  0  0  0  0  0
   20.0838   -7.7226   17.9060 N   0  0  0  0  0  0  0  0  0  0  0  0
   19.2126   -8.5264   17.2635 C   0  0  0  0  0  0  0  0  0  0  0  0
   18.8389   -8.3625   15.9498 C   0  0  0  0  0  0  0  0  0  0  0  0
   19.4473   -7.3483   15.2327 C   0  0  0  0  0  0  0  0  0  0  0  0
   20.3719   -6.5131   15.8529 C   0  0  0  0  0  0  0  0  0  0  0  0
   21.1333   -5.3317   14.8567 Cl  0  0  0  0  0  0  0  0  0  0  0  0
   20.7271   -4.5336   18.2176 C   0  0  0  0  0  0  0  0  0  0  0  0
   16.4277   -4.7891   18.2582 C   0  0  0  0  0  0  0  0  0  0  0  0
   15.4357   -3.8503   17.8373 C   0  0  0  0  0  0  0  0  0  0  0  0
   14.1943   -4.1668   17.2130 C   0  0  0  0  0  0  0  0  0  0  0  0
   13.7919   -5.4785   16.9395 C   0  0  0  0  0  0  0  0  0  0  0  0
   14.7037   -6.4552   17.3478 C   0  0  0  0  0  0  0  0  0  0  0  0
   14.5948   -7.7924   17.2530 N   0  0  0  0  0  0  0  0  0  0  0  0
   15.6214   -8.2528   17.9834 N   0  0  0  0  0  0  0  0  0  0  0  0
   15.6979   -9.6651   18.2647 C   0  0  0  0  0  0  0  0  0  0  0  0
   16.4742   -7.2860   18.4278 C   0  0  0  0  0  0  0  0  0  0  0  0
   15.9588   -6.0953   17.9834 C   0  0  0  0  0  0  0  0  0  0  0  0
  1  2  1  0
  2  3  1  0
  3  4  1  6
  5  4  1  6
  5  6  1  0
  6  7  1  0
  7  8  1  0
  8  9  1  0
  9 10  2  0
 10 11  1  0
 11 12  2  0
 12 13  1  0
 13 14  2  0
 14 15  1  0
  8 16  1  0
  3 17  1  0
 17 18  2  0
 18 19  1  0
 19 20  2  0
 20 21  1  0
 21 22  2  0
 22 23  1  0
 23 24  1  0
 23 25  1  0
 25 26  2  0
 16  5  1  0
 26 17  1  0
 14  9  1  0
 26 21  1  0
M  END
>  <energy_score>  (934) 
-28.28909

>  <inchikey>  (934) 
None

>  <smiles>  (934) 
None

>  <ref_pdb>  (934) 
A1105b

>  <alias>  (934) 
None

>  <HIPPO Pose ID>  (934) 
498578

>  <name>  (934) 
P498578

>  <HIPPO Compound ID>  (934) 
293424

>  <ref_mols>  (934) 
A0497a,A1105b

>  <distance_score>  (934) 
1.403459

>  <inspiration_score>  (934) 
None

$$$$
P498579
     RDKit          3D

 26 29  0  0  0  0  0  0  0  0999 V2000
   18.6644   -2.3623   18.6393 C   0  0  0  0  0  0  0  0  0  0  0  0
   17.7513   -3.2733   19.2188 O   0  0  0  0  0  0  0  0  0  0  0  0
   17.8212   -4.5902   18.6758 C   0  0  1  0  0  0  0  0  0  0  0  0
   18.3139   -5.4919   19.7181 N   0  0  0  0  0  0  0  0  0  0  0  0
   19.5782   -5.0414   20.3349 C   0  0  1  0  0  0  0  0  0  0  0  0
   20.0823   -6.1336   21.2665 C   0  0  0  0  0  0  0  0  0  0  0  0
   20.7802   -7.1384   20.3333 C   0  0  0  0  0  0  0  0  0  0  0  0
   21.2165   -6.3559   19.1550 N   0  0  0  0  0  0  0  0  0  0  0  0
   20.7305   -6.7809   17.8939 C   0  0  0  0  0  0  0  0  0  0  0  0
   19.6611   -7.6155   17.8615 N   0  0  0  0  0  0  0  0  0  0  0  0
   19.0797   -7.8667   16.6655 C   0  0  0  0  0  0  0  0  0  0  0  0
   19.4923   -7.3161   15.4731 C   0  0  0  0  0  0  0  0  0  0  0  0
   20.6156   -6.5060   15.4883 C   0  0  0  0  0  0  0  0  0  0  0  0
   21.2598   -6.2522   16.6955 C   0  0  0  0  0  0  0  0  0  0  0  0
   22.6913   -5.2785   16.6578 Cl  0  0  0  0  0  0  0  0  0  0  0  0
   20.8051   -4.9515   19.3923 C   0  0  0  0  0  0  0  0  0  0  0  0
   16.4408   -4.9817   18.1565 C   0  0  0  0  0  0  0  0  0  0  0  0
   15.4942   -3.9707   17.7966 C   0  0  0  0  0  0  0  0  0  0  0  0
   14.2028   -4.1928   17.2407 C   0  0  0  0  0  0  0  0  0  0  0  0
   13.7069   -5.4695   16.9644 C   0  0  0  0  0  0  0  0  0  0  0  0
   14.5604   -6.5131   17.3302 C   0  0  0  0  0  0  0  0  0  0  0  0
   14.3643   -7.8382   17.2046 N   0  0  0  0  0  0  0  0  0  0  0  0
   15.3986   -8.3817   17.8637 N   0  0  0  0  0  0  0  0  0  0  0  0
   15.4207   -9.8072   18.0810 C   0  0  0  0  0  0  0  0  0  0  0  0
   16.3343   -7.4817   18.2807 C   0  0  0  0  0  0  0  0  0  0  0  0
   15.8649   -6.2487   17.9094 C   0  0  0  0  0  0  0  0  0  0  0  0
  1  2  1  0
  2  3  1  0
  3  4  1  1
  5  4  1  6
  5  6  1  0
  6  7  1  0
  7  8  1  0
  8  9  1  0
  9 10  2  0
 10 11  1  0
 11 12  2  0
 12 13  1  0
 13 14  2  0
 14 15  1  0
  8 16  1  0
  3 17  1  0
 17 18  2  0
 18 19  1  0
 19 20  2  0
 20 21  1  0
 21 22  2  0
 22 23  1  0
 23 24  1  0
 23 25  1  0
 25 26  2  0
 16  5  1  0
 26 17  1  0
 14  9  1  0
 26 21  1  0
M  END
>  <energy_score>  (935) 
-33.479538

>  <inchikey>  (935) 
None

>  <smiles>  (935) 
None

>  <ref_pdb>  (935) 
A1105b

>  <alias>  (935) 
None

>  <HIPPO Pose ID>  (935) 
498579

>  <name>  (935) 
P498579

>  <HIPPO Compound ID>  (935) 
293424

>  <ref_mols>  (935) 
A0497a,A1105b

>  <distance_score>  (935) 
1.281967

>  <inspiration_score>  (935) 
None

$$$$
P498580
     RDKit          3D

 26 29  0  0  0  0  0  0  0  0999 V2000
   18.9616   -8.1659   19.1478 C   0  0  0  0  0  0  0  0  0  0  0  0
   18.7991   -8.3313   17.6762 C   0  0  0  0  0  0  0  0  0  0  0  0
   19.2861   -7.7154   16.5303 C   0  0  0  0  0  0  0  0  0  0  0  0
   20.1661   -6.6105   16.3608 C   0  0  0  0  0  0  0  0  0  0  0  0
   20.7208   -5.5463   17.2936 C   0  0  2  0  0  0  0  0  0  0  0  0
   21.1649   -6.0467   18.5369 O   0  0  0  0  0  0  0  0  0  0  0  0
   19.8909   -4.3510   17.3927 N   0  0  0  0  0  0  0  0  0  0  0  0
   19.1564   -4.1834   18.6501 C   0  0  1  0  0  0  0  0  0  0  0  0
   18.3629   -2.8851   18.6361 C   0  0  0  0  0  0  0  0  0  0  0  0
   17.0181   -3.2637   18.0303 C   0  0  0  0  0  0  0  0  0  0  0  0
   16.7831   -4.6136   18.4810 N   0  0  0  0  0  0  0  0  0  0  0  0
   15.8029   -5.4609   17.9874 C   0  0  0  0  0  0  0  0  0  0  0  0
   15.9876   -6.7897   18.2084 N   0  0  0  0  0  0  0  0  0  0  0  0
   15.0375   -7.6751   17.8269 C   0  0  0  0  0  0  0  0  0  0  0  0
   13.8720   -7.3413   17.1916 C   0  0  0  0  0  0  0  0  0  0  0  0
   13.6647   -6.0037   16.9716 C   0  0  0  0  0  0  0  0  0  0  0  0
   14.6050   -5.0638   17.3880 C   0  0  0  0  0  0  0  0  0  0  0  0
   14.1236   -3.4727   17.0722 Cl  0  0  0  0  0  0  0  0  0  0  0  0
   18.0457   -5.2123   18.8920 C   0  0  0  0  0  0  0  0  0  0  0  0
   20.5200   -6.4698   14.9766 C   0  0  0  0  0  0  0  0  0  0  0  0
   20.0522   -7.2795   13.9079 C   0  0  0  0  0  0  0  0  0  0  0  0
   19.1157   -8.2993   14.0905 C   0  0  0  0  0  0  0  0  0  0  0  0
   18.7454   -8.5101   15.4262 C   0  0  0  0  0  0  0  0  0  0  0  0
   17.9039   -9.4429   15.8844 N   0  0  0  0  0  0  0  0  0  0  0  0
   17.9861   -9.3442   17.2154 N   0  0  0  0  0  0  0  0  0  0  0  0
   17.3813  -10.4019   17.9982 C   0  0  0  0  0  0  0  0  0  0  0  0
  1  2  1  0
  2  3  2  0
  3  4  1  0
  4  5  1  0
  5  6  1  1
  5  7  1  0
  8  7  1  6
  8  9  1  0
  9 10  1  0
 10 11  1  0
 11 12  1  0
 12 13  2  0
 13 14  1  0
 14 15  2  0
 15 16  1  0
 16 17  2  0
 17 18  1  0
 11 19  1  0
  4 20  2  0
 20 21  1  0
 21 22  2  0
 22 23  1  0
 23 24  2  0
 24 25  1  0
 25 26  1  0
 25  2  1  0
 23  3  1  0
 19  8  1  0
 17 12  1  0
M  END
>  <energy_score>  (936) 
-31.447431

>  <inchikey>  (936) 
None

>  <smiles>  (936) 
None

>  <ref_pdb>  (936) 
A1105b

>  <alias>  (936) 
None

>  <HIPPO Pose ID>  (936) 
498580

>  <name>  (936) 
P498580

>  <HIPPO Compound ID>  (936) 
293425

>  <ref_mols>  (936) 
A0497a,A1105b

>  <distance_score>  (936) 
1.649014

>  <inspiration_score>  (936) 
None

$$$$
P498581
     RDKit          3D

 26 29  0  0  0  0  0  0  0  0999 V2000
   18.0749   -8.5289   19.1633 C   0  0  0  0  0  0  0  0  0  0  0  0
   18.1833   -8.5499   17.6782 C   0  0  0  0  0  0  0  0  0  0  0  0
   19.0561   -8.0419   16.7258 C   0  0  0  0  0  0  0  0  0  0  0  0
   20.2879   -7.3510   16.8911 C   0  0  0  0  0  0  0  0  0  0  0  0
   21.0445   -7.0069   18.1488 C   0  0  1  0  0  0  0  0  0  0  0  0
   22.3216   -7.6149   18.0622 O   0  0  0  0  0  0  0  0  0  0  0  0
   21.3172   -5.6008   18.3797 N   0  0  0  0  0  0  0  0  0  0  0  0
   20.1678   -4.7287   18.6618 C   0  0  1  0  0  0  0  0  0  0  0  0
   19.8083   -3.8605   17.4644 C   0  0  0  0  0  0  0  0  0  0  0  0
   18.4741   -3.2543   17.8780 C   0  0  0  0  0  0  0  0  0  0  0  0
   17.8069   -4.2792   18.7067 N   0  0  0  0  0  0  0  0  0  0  0  0
   16.5770   -4.7291   18.1607 C   0  0  0  0  0  0  0  0  0  0  0  0
   16.3891   -6.0189   17.8186 N   0  0  0  0  0  0  0  0  0  0  0  0
   15.1791   -6.4021   17.3356 C   0  0  0  0  0  0  0  0  0  0  0  0
   14.0961   -5.5666   17.1769 C   0  0  0  0  0  0  0  0  0  0  0  0
   14.2541   -4.2548   17.5659 C   0  0  0  0  0  0  0  0  0  0  0  0
   15.4866   -3.8530   18.0800 C   0  0  0  0  0  0  0  0  0  0  0  0
   15.6083   -2.3093   18.7788 Cl  0  0  0  0  0  0  0  0  0  0  0  0
   18.7901   -5.3051   19.0490 C   0  0  0  0  0  0  0  0  0  0  0  0
   20.8465   -7.0195   15.6151 C   0  0  0  0  0  0  0  0  0  0  0  0
   20.2650   -7.3238   14.3531 C   0  0  0  0  0  0  0  0  0  0  0  0
   19.0458   -8.0021   14.2217 C   0  0  0  0  0  0  0  0  0  0  0  0
   18.4451   -8.3574   15.4388 C   0  0  0  0  0  0  0  0  0  0  0  0
   17.2979   -9.0271   15.6175 N   0  0  0  0  0  0  0  0  0  0  0  0
   17.1953   -9.1693   16.9458 N   0  0  0  0  0  0  0  0  0  0  0  0
   16.1192   -9.9903   17.4601 C   0  0  0  0  0  0  0  0  0  0  0  0
  1  2  1  0
  2  3  2  0
  3  4  1  0
  4  5  1  0
  5  6  1  6
  5  7  1  0
  8  7  1  6
  8  9  1  0
  9 10  1  0
 10 11  1  0
 11 12  1  0
 12 13  2  0
 13 14  1  0
 14 15  2  0
 15 16  1  0
 16 17  2  0
 17 18  1  0
 11 19  1  0
  4 20  2  0
 20 21  1  0
 21 22  2  0
 22 23  1  0
 23 24  2  0
 24 25  1  0
 25 26  1  0
 25  2  1  0
 23  3  1  0
 19  8  1  0
 17 12  1  0
M  END
>  <energy_score>  (937) 
-34.032207

>  <inchikey>  (937) 
None

>  <smiles>  (937) 
None

>  <ref_pdb>  (937) 
A1105b

>  <alias>  (937) 
None

>  <HIPPO Pose ID>  (937) 
498581

>  <name>  (937) 
P498581

>  <HIPPO Compound ID>  (937) 
293425

>  <ref_mols>  (937) 
A0497a,A1105b

>  <distance_score>  (937) 
1.658308

>  <inspiration_score>  (937) 
None

$$$$
P498582
     RDKit          3D

 26 29  0  0  0  0  0  0  0  0999 V2000
   18.4108   -7.9252   16.2304 C   0  0  0  0  0  0  0  0  0  0  0  0
   19.6364   -7.0816   16.3202 C   0  0  0  0  0  0  0  0  0  0  0  0
   20.2249   -6.6379   15.1529 C   0  0  0  0  0  0  0  0  0  0  0  0
   21.2569   -5.7251   15.2469 C   0  0  0  0  0  0  0  0  0  0  0  0
   21.6153   -5.2355   16.4949 C   0  0  0  0  0  0  0  0  0  0  0  0
   20.9524   -5.6792   17.6369 C   0  0  0  0  0  0  0  0  0  0  0  0
   21.1577   -5.0217   18.8637 N   0  0  0  0  0  0  0  0  0  0  0  0
   20.9284   -3.5575   18.7866 C   0  0  0  0  0  0  0  0  0  0  0  0
   20.1030   -3.1844   20.0169 C   0  0  0  0  0  0  0  0  0  0  0  0
   19.3793   -4.4646   20.4122 C   0  0  1  0  0  0  0  0  0  0  0  0
   17.9866   -4.6293   19.9536 N   0  0  0  0  0  0  0  0  0  0  0  0
   17.7555   -4.6429   18.5173 C   0  0  2  0  0  0  0  0  0  0  0  0
   18.0841   -3.3951   17.9315 O   0  0  0  0  0  0  0  0  0  0  0  0
   16.3369   -4.9997   18.1366 C   0  0  0  0  0  0  0  0  0  0  0  0
   15.4039   -3.9703   17.8147 C   0  0  0  0  0  0  0  0  0  0  0  0
   14.1228   -4.1793   17.2486 C   0  0  0  0  0  0  0  0  0  0  0  0
   13.6278   -5.4525   16.9570 C   0  0  0  0  0  0  0  0  0  0  0  0
   14.4438   -6.5118   17.3631 C   0  0  0  0  0  0  0  0  0  0  0  0
   14.2165   -7.8281   17.2542 N   0  0  0  0  0  0  0  0  0  0  0  0
   15.2023   -8.3934   17.9656 N   0  0  0  0  0  0  0  0  0  0  0  0
   15.1436   -9.8192   18.1972 C   0  0  0  0  0  0  0  0  0  0  0  0
   16.1496   -7.5121   18.4379 C   0  0  0  0  0  0  0  0  0  0  0  0
   17.2349   -7.9624   19.3450 C   0  0  0  0  0  0  0  0  0  0  0  0
   15.7410   -6.2760   17.9643 C   0  0  0  0  0  0  0  0  0  0  0  0
   20.4166   -5.5474   20.0194 C   0  0  0  0  0  0  0  0  0  0  0  0
   20.0475   -6.6789   17.5467 N   0  0  0  0  0  0  0  0  0  0  0  0
  1  2  1  0
  2  3  2  0
  3  4  1  0
  4  5  2  0
  5  6  1  0
  6  7  1  0
  7  8  1  0
  8  9  1  0
  9 10  1  0
 10 11  1  6
 11 12  1  0
 12 13  1  1
 12 14  1  0
 14 15  2  0
 15 16  1  0
 16 17  2  0
 17 18  1  0
 18 19  2  0
 19 20  1  0
 20 21  1  0
 20 22  1  0
 22 23  1  0
 22 24  2  0
 10 25  1  0
  6 26  2  0
 26  2  1  0
 25  7  1  0
 24 14  1  0
 24 18  1  0
M  END
>  <energy_score>  (938) 
-27.47596

>  <inchikey>  (938) 
None

>  <smiles>  (938) 
None

>  <ref_pdb>  (938) 
A1105b

>  <alias>  (938) 
None

>  <HIPPO Pose ID>  (938) 
498582

>  <name>  (938) 
P498582

>  <HIPPO Compound ID>  (938) 
293426

>  <ref_mols>  (938) 
A0497a,A1105b

>  <distance_score>  (938) 
1.584433

>  <inspiration_score>  (938) 
None

$$$$
P498583
     RDKit          3D

 26 29  0  0  0  0  0  0  0  0999 V2000
   18.3786   -8.4722   16.5326 C   0  0  0  0  0  0  0  0  0  0  0  0
   19.4453   -7.4373   16.4827 C   0  0  0  0  0  0  0  0  0  0  0  0
   19.9059   -7.0037   15.2540 C   0  0  0  0  0  0  0  0  0  0  0  0
   20.8838   -6.0282   15.2272 C   0  0  0  0  0  0  0  0  0  0  0  0
   21.3178   -5.4731   16.4219 C   0  0  0  0  0  0  0  0  0  0  0  0
   20.7611   -5.8904   17.6306 C   0  0  0  0  0  0  0  0  0  0  0  0
   21.0553   -5.1862   18.8126 N   0  0  0  0  0  0  0  0  0  0  0  0
   20.9100   -3.7132   18.7015 C   0  0  0  0  0  0  0  0  0  0  0  0
   20.1348   -3.2623   19.9395 C   0  0  0  0  0  0  0  0  0  0  0  0
   19.3659   -4.4963   20.3925 C   0  0  1  0  0  0  0  0  0  0  0  0
   17.9692   -4.6352   19.9391 N   0  0  0  0  0  0  0  0  0  0  0  0
   17.7294   -4.6547   18.5037 C   0  0  2  0  0  0  0  0  0  0  0  0
   18.0684   -3.4113   17.9130 O   0  0  0  0  0  0  0  0  0  0  0  0
   16.3062   -5.0014   18.1301 C   0  0  0  0  0  0  0  0  0  0  0  0
   15.3895   -3.9628   17.7921 C   0  0  0  0  0  0  0  0  0  0  0  0
   14.1112   -4.1595   17.2181 C   0  0  0  0  0  0  0  0  0  0  0  0
   13.6016   -5.4283   16.9366 C   0  0  0  0  0  0  0  0  0  0  0  0
   14.3949   -6.4945   17.3672 C   0  0  0  0  0  0  0  0  0  0  0  0
   14.1394   -7.8074   17.2857 N   0  0  0  0  0  0  0  0  0  0  0  0
   15.0892   -8.3727   18.0441 N   0  0  0  0  0  0  0  0  0  0  0  0
   14.9752   -9.7839   18.3363 C   0  0  0  0  0  0  0  0  0  0  0  0
   16.0513   -7.5014   18.5059 C   0  0  0  0  0  0  0  0  0  0  0  0
   17.0926   -7.9492   19.4647 C   0  0  0  0  0  0  0  0  0  0  0  0
   15.6918   -6.2723   17.9750 C   0  0  0  0  0  0  0  0  0  0  0  0
   20.3588   -5.6288   20.0276 C   0  0  0  0  0  0  0  0  0  0  0  0
   19.8864   -6.9282   17.6551 N   0  0  0  0  0  0  0  0  0  0  0  0
  1  2  1  0
  2  3  2  0
  3  4  1  0
  4  5  2  0
  5  6  1  0
  6  7  1  0
  7  8  1  0
  8  9  1  0
  9 10  1  0
 10 11  1  6
 11 12  1  0
 12 13  1  1
 12 14  1  0
 14 15  2  0
 15 16  1  0
 16 17  2  0
 17 18  1  0
 18 19  2  0
 19 20  1  0
 20 21  1  0
 20 22  1  0
 22 23  1  0
 22 24  2  0
 10 25  1  0
  6 26  2  0
 26  2  1  0
 25  7  1  0
 24 14  1  0
 24 18  1  0
M  END
>  <energy_score>  (939) 
-35.033951

>  <inchikey>  (939) 
None

>  <smiles>  (939) 
None

>  <ref_pdb>  (939) 
A1105b

>  <alias>  (939) 
None

>  <HIPPO Pose ID>  (939) 
498583

>  <name>  (939) 
P498583

>  <HIPPO Compound ID>  (939) 
293426

>  <ref_mols>  (939) 
A0497a,A1105b

>  <distance_score>  (939) 
1.836026

>  <inspiration_score>  (939) 
None

$$$$
P498584
     RDKit          3D

 26 29  0  0  0  0  0  0  0  0999 V2000
   18.1397   -7.9147   16.3486 C   0  0  0  0  0  0  0  0  0  0  0  0
   19.3536   -7.0585   16.4284 C   0  0  0  0  0  0  0  0  0  0  0  0
   20.0171   -6.7445   15.2554 C   0  0  0  0  0  0  0  0  0  0  0  0
   21.1346   -5.9360   15.3224 C   0  0  0  0  0  0  0  0  0  0  0  0
   21.5414   -5.4514   16.5546 C   0  0  0  0  0  0  0  0  0  0  0  0
   20.8161   -5.7683   17.7034 C   0  0  0  0  0  0  0  0  0  0  0  0
   21.1990   -5.1483   18.9226 N   0  0  0  0  0  0  0  0  0  0  0  0
   20.9064   -3.6874   18.8614 C   0  0  0  0  0  0  0  0  0  0  0  0
   19.9884   -3.3920   20.0489 C   0  0  0  0  0  0  0  0  0  0  0  0
   19.3204   -4.7282   20.3594 C   0  0  1  0  0  0  0  0  0  0  0  0
   18.2191   -5.1996   19.5217 N   0  0  0  0  0  0  0  0  0  0  0  0
   17.3554   -4.2512   18.8958 C   0  0  1  0  0  0  0  0  0  0  0  0
   18.0599   -3.5068   17.9233 O   0  0  0  0  0  0  0  0  0  0  0  0
   16.1478   -4.8919   18.2336 C   0  0  0  0  0  0  0  0  0  0  0  0
   15.1971   -3.9525   17.7233 C   0  0  0  0  0  0  0  0  0  0  0  0
   13.9908   -4.2739   17.0732 C   0  0  0  0  0  0  0  0  0  0  0  0
   13.5997   -5.5925   16.8501 C   0  0  0  0  0  0  0  0  0  0  0  0
   14.4508   -6.5750   17.3635 C   0  0  0  0  0  0  0  0  0  0  0  0
   14.2954   -7.9016   17.2845 N   0  0  0  0  0  0  0  0  0  0  0  0
   15.2513   -8.3911   18.0807 N   0  0  0  0  0  0  0  0  0  0  0  0
   15.2726   -9.8203   18.3017 C   0  0  0  0  0  0  0  0  0  0  0  0
   16.0865   -7.4438   18.6367 C   0  0  0  0  0  0  0  0  0  0  0  0
   17.0919   -7.8564   19.6627 C   0  0  0  0  0  0  0  0  0  0  0  0
   15.6784   -6.2354   18.0701 C   0  0  0  0  0  0  0  0  0  0  0  0
   20.5308   -5.6738   20.1327 C   0  0  0  0  0  0  0  0  0  0  0  0
   19.7363   -6.5926   17.6411 N   0  0  0  0  0  0  0  0  0  0  0  0
  1  2  1  0
  2  3  2  0
  3  4  1  0
  4  5  2  0
  5  6  1  0
  6  7  1  0
  7  8  1  0
  8  9  1  0
  9 10  1  0
 10 11  1  6
 11 12  1  0
 12 13  1  6
 12 14  1  0
 14 15  2  0
 15 16  1  0
 16 17  2  0
 17 18  1  0
 18 19  2  0
 19 20  1  0
 20 21  1  0
 20 22  1  0
 22 23  1  0
 22 24  2  0
 10 25  1  0
  6 26  2  0
 26  2  1  0
 25  7  1  0
 24 14  1  0
 24 18  1  0
M  END
>  <energy_score>  (940) 
-33.006544

>  <inchikey>  (940) 
None

>  <smiles>  (940) 
None

>  <ref_pdb>  (940) 
A1105b

>  <alias>  (940) 
None

>  <HIPPO Pose ID>  (940) 
498584

>  <name>  (940) 
P498584

>  <HIPPO Compound ID>  (940) 
293426

>  <ref_mols>  (940) 
A0497a,A1105b

>  <distance_score>  (940) 
1.874887

>  <inspiration_score>  (940) 
None

$$$$
P498585
     RDKit          3D

 26 29  0  0  0  0  0  0  0  0999 V2000
   19.2745   -8.9877   16.8319 C   0  0  0  0  0  0  0  0  0  0  0  0
   19.8695   -7.6204   16.6803 C   0  0  0  0  0  0  0  0  0  0  0  0
   20.0208   -7.1000   15.4097 C   0  0  0  0  0  0  0  0  0  0  0  0
   20.7426   -5.9298   15.2692 C   0  0  0  0  0  0  0  0  0  0  0  0
   21.2338   -5.2866   16.3985 C   0  0  0  0  0  0  0  0  0  0  0  0
   20.9539   -5.7889   17.6674 C   0  0  0  0  0  0  0  0  0  0  0  0
   21.3002   -5.0575   18.8262 N   0  0  0  0  0  0  0  0  0  0  0  0
   20.9611   -3.6085   18.7536 C   0  0  0  0  0  0  0  0  0  0  0  0
   20.0464   -3.3336   19.9517 C   0  0  0  0  0  0  0  0  0  0  0  0
   19.4385   -4.6949   20.2853 C   0  0  1  0  0  0  0  0  0  0  0  0
   18.3595   -5.2217   19.4398 N   0  0  0  0  0  0  0  0  0  0  0  0
   17.4496   -4.3006   18.8313 C   0  0  1  0  0  0  0  0  0  0  0  0
   18.1130   -3.5288   17.8508 O   0  0  0  0  0  0  0  0  0  0  0  0
   16.2398   -4.9490   18.1878 C   0  0  0  0  0  0  0  0  0  0  0  0
   15.2354   -4.0234   17.7514 C   0  0  0  0  0  0  0  0  0  0  0  0
   14.0157   -4.3620   17.1299 C   0  0  0  0  0  0  0  0  0  0  0  0
   13.6673   -5.6841   16.8548 C   0  0  0  0  0  0  0  0  0  0  0  0
   14.5874   -6.6512   17.2730 C   0  0  0  0  0  0  0  0  0  0  0  0
   14.4944   -7.9780   17.1217 N   0  0  0  0  0  0  0  0  0  0  0  0
   15.5148   -8.4622   17.8389 N   0  0  0  0  0  0  0  0  0  0  0  0
   15.6022   -9.8979   17.9882 C   0  0  0  0  0  0  0  0  0  0  0  0
   16.2980   -7.5037   18.4443 C   0  0  0  0  0  0  0  0  0  0  0  0
   17.2770   -7.8909   19.4961 C   0  0  0  0  0  0  0  0  0  0  0  0
   15.8258   -6.2933   17.9502 C   0  0  0  0  0  0  0  0  0  0  0  0
   20.7073   -5.5732   20.0836 C   0  0  0  0  0  0  0  0  0  0  0  0
   20.3144   -6.9792   17.7913 N   0  0  0  0  0  0  0  0  0  0  0  0
  1  2  1  0
  2  3  2  0
  3  4  1  0
  4  5  2  0
  5  6  1  0
  6  7  1  0
  7  8  1  0
  8  9  1  0
  9 10  1  0
 10 11  1  6
 11 12  1  0
 12 13  1  6
 12 14  1  0
 14 15  2  0
 15 16  1  0
 16 17  2  0
 17 18  1  0
 18 19  2  0
 19 20  1  0
 20 21  1  0
 20 22  1  0
 22 23  1  0
 22 24  2  0
 10 25  1  0
  6 26  2  0
 26  2  1  0
 25  7  1  0
 24 14  1  0
 24 18  1  0
M  END
>  <energy_score>  (941) 
-54.834343

>  <inchikey>  (941) 
None

>  <smiles>  (941) 
None

>  <ref_pdb>  (941) 
A1105b

>  <alias>  (941) 
None

>  <HIPPO Pose ID>  (941) 
498585

>  <name>  (941) 
P498585

>  <HIPPO Compound ID>  (941) 
293426

>  <ref_mols>  (941) 
A0497a,A1105b

>  <distance_score>  (941) 
1.535894

>  <inspiration_score>  (941) 
None

$$$$
P498586
     RDKit          3D

 26 29  0  0  0  0  0  0  0  0999 V2000
   18.4032   -8.2728   19.1695 C   0  0  0  0  0  0  0  0  0  0  0  0
   18.2642   -8.2894   17.6951 C   0  0  0  0  0  0  0  0  0  0  0  0
   19.0166   -7.8387   16.6247 C   0  0  0  0  0  0  0  0  0  0  0  0
   20.2464   -7.1256   16.6122 C   0  0  0  0  0  0  0  0  0  0  0  0
   21.0922   -6.5632   17.7439 C   0  0  1  0  0  0  0  0  0  0  0  0
   22.0888   -5.6711   17.2719 O   0  0  0  0  0  0  0  0  0  0  0  0
   20.4323   -5.8615   18.8243 N   0  0  0  0  0  0  0  0  0  0  0  0
   19.3123   -5.0163   18.4420 C   0  0  2  0  0  0  0  0  0  0  0  0
   19.6215   -3.5609   18.1523 C   0  0  0  0  0  0  0  0  0  0  0  0
   18.2285   -2.9214   18.1911 C   0  0  0  0  0  0  0  0  0  0  0  0
   17.4173   -3.7786   19.0905 N   0  0  0  0  0  0  0  0  0  0  0  0
   16.3057   -4.3158   18.3642 C   0  0  0  0  0  0  0  0  0  0  0  0
   16.2502   -5.6249   18.0178 N   0  0  0  0  0  0  0  0  0  0  0  0
   15.1198   -6.0836   17.4274 C   0  0  0  0  0  0  0  0  0  0  0  0
   14.0180   -5.3045   17.1499 C   0  0  0  0  0  0  0  0  0  0  0  0
   14.0785   -3.9687   17.4961 C   0  0  0  0  0  0  0  0  0  0  0  0
   15.2178   -3.4805   18.1205 C   0  0  0  0  0  0  0  0  0  0  0  0
   15.2578   -2.2129   18.5534 F   0  0  0  0  0  0  0  0  0  0  0  0
   18.3159   -4.8244   19.5881 C   0  0  0  0  0  0  0  0  0  0  0  0
   20.7199   -7.0129   15.2623 C   0  0  0  0  0  0  0  0  0  0  0  0
   20.0508   -7.4842   14.0980 C   0  0  0  0  0  0  0  0  0  0  0  0
   18.8103   -8.1297   14.1449 C   0  0  0  0  0  0  0  0  0  0  0  0
   18.3026   -8.3052   15.4399 C   0  0  0  0  0  0  0  0  0  0  0  0
   17.1632   -8.9190   15.7886 N   0  0  0  0  0  0  0  0  0  0  0  0
   17.1746   -8.9101   17.1287 N   0  0  0  0  0  0  0  0  0  0  0  0
   16.1248   -9.6251   17.8243 C   0  0  0  0  0  0  0  0  0  0  0  0
  1  2  1  0
  2  3  2  0
  3  4  1  0
  4  5  1  0
  5  6  1  6
  5  7  1  0
  8  7  1  1
  8  9  1  0
  9 10  1  0
 10 11  1  0
 11 12  1  0
 12 13  2  0
 13 14  1  0
 14 15  2  0
 15 16  1  0
 16 17  2  0
 17 18  1  0
 11 19  1  0
  4 20  2  0
 20 21  1  0
 21 22  2  0
 22 23  1  0
 23 24  2  0
 24 25  1  0
 25 26  1  0
 25  2  1  0
 23  3  1  0
 19  8  1  0
 17 12  1  0
M  END
>  <energy_score>  (942) 
-32.354947

>  <inchikey>  (942) 
None

>  <smiles>  (942) 
None

>  <ref_pdb>  (942) 
A1105b

>  <alias>  (942) 
None

>  <HIPPO Pose ID>  (942) 
498586

>  <name>  (942) 
P498586

>  <HIPPO Compound ID>  (942) 
293427

>  <ref_mols>  (942) 
A0497a,A1105b

>  <distance_score>  (942) 
1.600085

>  <inspiration_score>  (942) 
None

$$$$
P498587
     RDKit          3D

 26 29  0  0  0  0  0  0  0  0999 V2000
   18.2036   -8.1930   19.2615 C   0  0  0  0  0  0  0  0  0  0  0  0
   18.1954   -8.2618   17.7812 C   0  0  0  0  0  0  0  0  0  0  0  0
   19.0302   -7.7980   16.7807 C   0  0  0  0  0  0  0  0  0  0  0  0
   20.2623   -7.1006   16.8885 C   0  0  0  0  0  0  0  0  0  0  0  0
   21.0339   -6.6765   18.1222 C   0  0  1  0  0  0  0  0  0  0  0  0
   22.2005   -5.9246   17.8431 O   0  0  0  0  0  0  0  0  0  0  0  0
   20.3015   -5.9891   19.1592 N   0  0  0  0  0  0  0  0  0  0  0  0
   19.7586   -4.6551   18.9195 C   0  0  1  0  0  0  0  0  0  0  0  0
   19.3717   -4.2046   17.5190 C   0  0  0  0  0  0  0  0  0  0  0  0
   18.4051   -3.0682   17.8101 C   0  0  0  0  0  0  0  0  0  0  0  0
   17.5830   -3.5535   18.9331 N   0  0  0  0  0  0  0  0  0  0  0  0
   16.4365   -4.1993   18.3693 C   0  0  0  0  0  0  0  0  0  0  0  0
   16.4352   -5.5060   18.0270 N   0  0  0  0  0  0  0  0  0  0  0  0
   15.3022   -6.0174   17.4784 C   0  0  0  0  0  0  0  0  0  0  0  0
   14.1437   -5.3038   17.2546 C   0  0  0  0  0  0  0  0  0  0  0  0
   14.1427   -3.9735   17.6200 C   0  0  0  0  0  0  0  0  0  0  0  0
   15.2867   -3.4280   18.1892 C   0  0  0  0  0  0  0  0  0  0  0  0
   15.2780   -2.1586   18.6193 F   0  0  0  0  0  0  0  0  0  0  0  0
   18.4500   -4.4426   19.7260 C   0  0  0  0  0  0  0  0  0  0  0  0
   20.8200   -6.9047   15.5828 C   0  0  0  0  0  0  0  0  0  0  0  0
   20.2257   -7.3115   14.3534 C   0  0  0  0  0  0  0  0  0  0  0  0
   18.9950   -7.9772   14.2855 C   0  0  0  0  0  0  0  0  0  0  0  0
   18.4038   -8.2195   15.5337 C   0  0  0  0  0  0  0  0  0  0  0  0
   17.2568   -8.8682   15.7823 N   0  0  0  0  0  0  0  0  0  0  0  0
   17.1761   -8.9069   17.1207 N   0  0  0  0  0  0  0  0  0  0  0  0
   16.0849   -9.6512   17.7139 C   0  0  0  0  0  0  0  0  0  0  0  0
  1  2  1  0
  2  3  2  0
  3  4  1  0
  4  5  1  0
  5  6  1  6
  5  7  1  0
  8  7  1  6
  8  9  1  0
  9 10  1  0
 10 11  1  0
 11 12  1  0
 12 13  2  0
 13 14  1  0
 14 15  2  0
 15 16  1  0
 16 17  2  0
 17 18  1  0
 11 19  1  0
  4 20  2  0
 20 21  1  0
 21 22  2  0
 22 23  1  0
 23 24  2  0
 24 25  1  0
 25 26  1  0
 25  2  1  0
 23  3  1  0
 19  8  1  0
 17 12  1  0
M  END
>  <energy_score>  (943) 
-27.089668

>  <inchikey>  (943) 
None

>  <smiles>  (943) 
None

>  <ref_pdb>  (943) 
A1105b

>  <alias>  (943) 
None

>  <HIPPO Pose ID>  (943) 
498587

>  <name>  (943) 
P498587

>  <HIPPO Compound ID>  (943) 
293427

>  <ref_mols>  (943) 
A0497a,A1105b

>  <distance_score>  (943) 
1.415595

>  <inspiration_score>  (943) 
None

$$$$
P498588
     RDKit          3D

 26 29  0  0  0  0  0  0  0  0999 V2000
   18.0791   -8.1585   19.0947 C   0  0  0  0  0  0  0  0  0  0  0  0
   18.0554   -8.2689   17.6143 C   0  0  0  0  0  0  0  0  0  0  0  0
   18.8246   -7.7934   16.5644 C   0  0  0  0  0  0  0  0  0  0  0  0
   19.9592   -6.9472   16.5810 C   0  0  0  0  0  0  0  0  0  0  0  0
   20.5448   -6.1581   17.7159 C   0  0  1  0  0  0  0  0  0  0  0  0
   21.9556   -6.1508   17.6297 O   0  0  0  0  0  0  0  0  0  0  0  0
   20.1345   -4.7659   17.6618 N   0  0  0  0  0  0  0  0  0  0  0  0
   19.9537   -4.2112   19.0145 C   0  0  1  0  0  0  0  0  0  0  0  0
   19.7542   -2.7035   18.9273 C   0  0  0  0  0  0  0  0  0  0  0  0
   18.2801   -2.5611   18.5566 C   0  0  0  0  0  0  0  0  0  0  0  0
   17.6142   -3.7148   19.1732 N   0  0  0  0  0  0  0  0  0  0  0  0
   16.5349   -4.2258   18.4298 C   0  0  0  0  0  0  0  0  0  0  0  0
   16.5024   -5.5239   18.0612 N   0  0  0  0  0  0  0  0  0  0  0  0
   15.3692   -6.0039   17.4778 C   0  0  0  0  0  0  0  0  0  0  0  0
   14.2349   -5.2619   17.2305 C   0  0  0  0  0  0  0  0  0  0  0  0
   14.2682   -3.9318   17.5904 C   0  0  0  0  0  0  0  0  0  0  0  0
   15.4122   -3.4207   18.1983 C   0  0  0  0  0  0  0  0  0  0  0  0
   15.3976   -2.1591   18.6544 F   0  0  0  0  0  0  0  0  0  0  0  0
   18.6307   -4.6300   19.6910 C   0  0  0  0  0  0  0  0  0  0  0  0
   20.5033   -6.8076   15.2657 C   0  0  0  0  0  0  0  0  0  0  0  0
   19.9947   -7.4307   14.0939 C   0  0  0  0  0  0  0  0  0  0  0  0
   18.8455   -8.2327   14.1001 C   0  0  0  0  0  0  0  0  0  0  0  0
   18.2627   -8.4000   15.3660 C   0  0  0  0  0  0  0  0  0  0  0  0
   17.1684   -9.1075   15.6752 N   0  0  0  0  0  0  0  0  0  0  0  0
   17.0829   -9.0353   17.0100 N   0  0  0  0  0  0  0  0  0  0  0  0
   16.0364   -9.7949   17.6622 C   0  0  0  0  0  0  0  0  0  0  0  0
  1  2  1  0
  2  3  2  0
  3  4  1  0
  4  5  1  0
  5  6  1  6
  5  7  1  0
  8  7  1  6
  8  9  1  0
  9 10  1  0
 10 11  1  0
 11 12  1  0
 12 13  2  0
 13 14  1  0
 14 15  2  0
 15 16  1  0
 16 17  2  0
 17 18  1  0
 11 19  1  0
  4 20  2  0
 20 21  1  0
 21 22  2  0
 22 23  1  0
 23 24  2  0
 24 25  1  0
 25 26  1  0
 25  2  1  0
 23  3  1  0
 19  8  1  0
 17 12  1  0
M  END
>  <energy_score>  (944) 
-68.223498

>  <inchikey>  (944) 
None

>  <smiles>  (944) 
None

>  <ref_pdb>  (944) 
A1105b

>  <alias>  (944) 
None

>  <HIPPO Pose ID>  (944) 
498588

>  <name>  (944) 
P498588

>  <HIPPO Compound ID>  (944) 
293427

>  <ref_mols>  (944) 
A0497a,A1105b

>  <distance_score>  (944) 
1.443333

>  <inspiration_score>  (944) 
None

$$$$
P498589
     RDKit          3D

 26 29  0  0  0  0  0  0  0  0999 V2000
   15.7269   -8.1537   18.2195 C   0  0  0  0  0  0  0  0  0  0  0  0
   16.9875   -8.0908   17.5179 N   0  0  0  0  0  0  0  0  0  0  0  0
   18.2330   -8.1790   18.0674 C   0  0  0  0  0  0  0  0  0  0  0  0
   19.1160   -8.0005   17.0340 C   0  0  0  0  0  0  0  0  0  0  0  0
   20.5287   -8.0219   17.0878 C   0  0  0  0  0  0  0  0  0  0  0  0
   21.4282   -8.4805   18.2212 C   0  0  2  0  0  0  0  0  0  0  0  0
   20.7470   -9.1469   19.2627 O   0  0  0  0  0  0  0  0  0  0  0  0
   22.3308   -7.5068   18.8215 N   0  0  0  0  0  0  0  0  0  0  0  0
   21.6615   -6.3433   19.4026 C   0  0  2  0  0  0  0  0  0  0  0  0
   22.6537   -5.3658   20.0560 C   0  0  0  0  0  0  0  0  0  0  0  0
   21.8428   -4.6256   21.1439 C   0  0  0  0  0  0  0  0  0  0  0  0
   20.4770   -5.1994   21.1054 N   0  0  0  0  0  0  0  0  0  0  0  0
   19.6049   -4.4734   20.2329 C   0  0  0  0  0  0  0  0  0  0  0  0
   20.0818   -3.3735   19.6048 N   0  0  0  0  0  0  0  0  0  0  0  0
   19.3670   -2.8600   18.5803 C   0  0  0  0  0  0  0  0  0  0  0  0
   18.1578   -3.3647   18.1489 C   0  0  0  0  0  0  0  0  0  0  0  0
   17.6219   -4.4358   18.8388 C   0  0  0  0  0  0  0  0  0  0  0  0
   18.3369   -4.9772   19.9016 C   0  0  0  0  0  0  0  0  0  0  0  0
   17.8339   -6.0449   20.5430 F   0  0  0  0  0  0  0  0  0  0  0  0
   20.6762   -6.5662   20.5680 C   0  0  0  0  0  0  0  0  0  0  0  0
   21.0447   -7.7260   15.7820 C   0  0  0  0  0  0  0  0  0  0  0  0
   22.9364   -7.5852   15.4915 Br  0  0  0  0  0  0  0  0  0  0  0  0
   20.2549   -7.5694   14.5976 C   0  0  0  0  0  0  0  0  0  0  0  0
   18.8564   -7.6842   14.5866 C   0  0  0  0  0  0  0  0  0  0  0  0
   18.2883   -7.8584   15.8529 C   0  0  0  0  0  0  0  0  0  0  0  0
   16.9903   -7.9668   16.1807 N   0  0  0  0  0  0  0  0  0  0  0  0
  1  2  1  0
  2  3  1  0
  3  4  2  0
  4  5  1  0
  5  6  1  0
  6  7  1  1
  6  8  1  0
  9  8  1  1
  9 10  1  0
 10 11  1  0
 11 12  1  0
 12 13  1  0
 13 14  2  0
 14 15  1  0
 15 16  2  0
 16 17  1  0
 17 18  2  0
 18 19  1  0
 12 20  1  0
  5 21  2  0
 21 22  1  0
 21 23  1  0
 23 24  2  0
 24 25  1  0
 25 26  2  0
 26  2  1  0
 25  4  1  0
 20  9  1  0
 18 13  1  0
M  END
>  <energy_score>  (945) 
-51.921922

>  <inchikey>  (945) 
None

>  <smiles>  (945) 
None

>  <ref_pdb>  (945) 
A1105b

>  <alias>  (945) 
None

>  <HIPPO Pose ID>  (945) 
498589

>  <name>  (945) 
P498589

>  <HIPPO Compound ID>  (945) 
293428

>  <ref_mols>  (945) 
A0497a,A1105b

>  <distance_score>  (945) 
1.103648

>  <inspiration_score>  (945) 
None

$$$$
P498590
     RDKit          3D

 26 29  0  0  0  0  0  0  0  0999 V2000
   16.0324   -6.6929   17.7149 C   0  0  0  0  0  0  0  0  0  0  0  0
   17.1935   -7.1590   16.9957 N   0  0  0  0  0  0  0  0  0  0  0  0
   18.2997   -6.4281   16.6688 C   0  0  0  0  0  0  0  0  0  0  0  0
   19.0833   -7.2579   15.9079 C   0  0  0  0  0  0  0  0  0  0  0  0
   20.2971   -6.9478   15.2470 C   0  0  0  0  0  0  0  0  0  0  0  0
   20.8727   -5.5831   15.0288 C   0  0  2  0  0  0  0  0  0  0  0  0
   21.0549   -5.3572   13.6426 O   0  0  0  0  0  0  0  0  0  0  0  0
   22.1261   -5.2759   15.7019 N   0  0  0  0  0  0  0  0  0  0  0  0
   21.8512   -4.8823   17.0898 C   0  0  1  0  0  0  0  0  0  0  0  0
   23.0960   -4.5067   17.8859 C   0  0  0  0  0  0  0  0  0  0  0  0
   22.4761   -3.8851   19.1474 C   0  0  0  0  0  0  0  0  0  0  0  0
   21.2339   -3.2284   18.6799 N   0  0  0  0  0  0  0  0  0  0  0  0
   20.0956   -3.4005   19.4888 C   0  0  0  0  0  0  0  0  0  0  0  0
   20.2517   -3.9757   20.7047 N   0  0  0  0  0  0  0  0  0  0  0  0
   19.1644   -4.1731   21.4783 C   0  0  0  0  0  0  0  0  0  0  0  0
   17.8844   -3.8204   21.1065 C   0  0  0  0  0  0  0  0  0  0  0  0
   17.7034   -3.2217   19.8708 C   0  0  0  0  0  0  0  0  0  0  0  0
   18.8157   -2.9843   19.0772 C   0  0  0  0  0  0  0  0  0  0  0  0
   18.6281   -2.3304   17.9223 F   0  0  0  0  0  0  0  0  0  0  0  0
   21.0258   -3.5867   17.2726 C   0  0  0  0  0  0  0  0  0  0  0  0
   20.8260   -8.1192   14.6401 C   0  0  0  0  0  0  0  0  0  0  0  0
   22.5331   -8.1125   13.7639 Br  0  0  0  0  0  0  0  0  0  0  0  0
   20.1592   -9.3819   14.6076 C   0  0  0  0  0  0  0  0  0  0  0  0
   18.9062   -9.6230   15.1981 C   0  0  0  0  0  0  0  0  0  0  0  0
   18.3823   -8.5217   15.8810 C   0  0  0  0  0  0  0  0  0  0  0  0
   17.2283   -8.4308   16.5605 N   0  0  0  0  0  0  0  0  0  0  0  0
  1  2  1  0
  2  3  1  0
  3  4  2  0
  4  5  1  0
  5  6  1  0
  6  7  1  6
  6  8  1  0
  9  8  1  6
  9 10  1  0
 10 11  1  0
 11 12  1  0
 12 13  1  0
 13 14  2  0
 14 15  1  0
 15 16  2  0
 16 17  1  0
 17 18  2  0
 18 19  1  0
 12 20  1  0
  5 21  2  0
 21 22  1  0
 21 23  1  0
 23 24  2  0
 24 25  1  0
 25 26  2  0
 26  2  1  0
 25  4  1  0
 20  9  1  0
 18 13  1  0
M  END
>  <energy_score>  (946) 
-42.065391

>  <inchikey>  (946) 
None

>  <smiles>  (946) 
None

>  <ref_pdb>  (946) 
A1105b

>  <alias>  (946) 
None

>  <HIPPO Pose ID>  (946) 
498590

>  <name>  (946) 
P498590

>  <HIPPO Compound ID>  (946) 
293428

>  <ref_mols>  (946) 
A0497a,A1105b

>  <distance_score>  (946) 
1.581806

>  <inspiration_score>  (946) 
None

$$$$
P498591
     RDKit          3D

 26 29  0  0  0  0  0  0  0  0999 V2000
   15.6429   -7.3273   17.8983 C   0  0  0  0  0  0  0  0  0  0  0  0
   16.8534   -7.4098   17.1158 N   0  0  0  0  0  0  0  0  0  0  0  0
   17.9092   -6.5485   17.1710 C   0  0  0  0  0  0  0  0  0  0  0  0
   18.7631   -6.9432   16.1734 C   0  0  0  0  0  0  0  0  0  0  0  0
   19.9600   -6.3148   15.7655 C   0  0  0  0  0  0  0  0  0  0  0  0
   20.6026   -5.0508   16.2918 C   0  0  1  0  0  0  0  0  0  0  0  0
   19.6554   -4.1896   16.8850 O   0  0  0  0  0  0  0  0  0  0  0  0
   21.6402   -5.3738   17.2397 N   0  0  0  0  0  0  0  0  0  0  0  0
   22.5929   -4.3259   17.6157 C   0  0  1  0  0  0  0  0  0  0  0  0
   22.3769   -2.8564   17.2346 C   0  0  0  0  0  0  0  0  0  0  0  0
   21.5129   -2.2607   18.3467 C   0  0  0  0  0  0  0  0  0  0  0  0
   21.6634   -3.1722   19.4959 N   0  0  0  0  0  0  0  0  0  0  0  0
   20.3997   -3.4930   19.9940 C   0  0  0  0  0  0  0  0  0  0  0  0
   19.6885   -2.4318   20.4533 N   0  0  0  0  0  0  0  0  0  0  0  0
   18.4817   -2.6470   21.0099 C   0  0  0  0  0  0  0  0  0  0  0  0
   17.9022   -3.8882   21.1395 C   0  0  0  0  0  0  0  0  0  0  0  0
   18.5922   -4.9759   20.6454 C   0  0  0  0  0  0  0  0  0  0  0  0
   19.8528   -4.7798   20.0916 C   0  0  0  0  0  0  0  0  0  0  0  0
   20.5175   -5.8866   19.7301 F   0  0  0  0  0  0  0  0  0  0  0  0
   22.6416   -4.2068   19.1533 C   0  0  0  0  0  0  0  0  0  0  0  0
   20.5390   -7.0575   14.6890 C   0  0  0  0  0  0  0  0  0  0  0  0
   22.2125   -6.5260   13.9115 Br  0  0  0  0  0  0  0  0  0  0  0  0
   19.9634   -8.2254   14.0944 C   0  0  0  0  0  0  0  0  0  0  0  0
   18.7464   -8.7899   14.5129 C   0  0  0  0  0  0  0  0  0  0  0  0
   18.1486   -8.1148   15.5845 C   0  0  0  0  0  0  0  0  0  0  0  0
   16.9890   -8.3911   16.2035 N   0  0  0  0  0  0  0  0  0  0  0  0
  1  2  1  0
  2  3  1  0
  3  4  2  0
  4  5  1  0
  5  6  1  0
  6  7  1  1
  6  8  1  0
  9  8  1  1
  9 10  1  0
 10 11  1  0
 11 12  1  0
 12 13  1  0
 13 14  2  0
 14 15  1  0
 15 16  2  0
 16 17  1  0
 17 18  2  0
 18 19  1  0
 12 20  1  0
  5 21  2  0
 21 22  1  0
 21 23  1  0
 23 24  2  0
 24 25  1  0
 25 26  2  0
 26  2  1  0
 25  4  1  0
 20  9  1  0
 18 13  1  0
M  END
>  <energy_score>  (947) 
-29.468432

>  <inchikey>  (947) 
None

>  <smiles>  (947) 
None

>  <ref_pdb>  (947) 
A1105b

>  <alias>  (947) 
None

>  <HIPPO Pose ID>  (947) 
498591

>  <name>  (947) 
P498591

>  <HIPPO Compound ID>  (947) 
293428

>  <ref_mols>  (947) 
A0497a,A1105b

>  <distance_score>  (947) 
1.548145

>  <inspiration_score>  (947) 
None

$$$$
P498592
     RDKit          3D

 26 29  0  0  0  0  0  0  0  0999 V2000
   15.7609   -7.8780   18.1880 C   0  0  0  0  0  0  0  0  0  0  0  0
   16.9764   -7.8345   17.4104 N   0  0  0  0  0  0  0  0  0  0  0  0
   18.2162   -7.4842   17.8586 C   0  0  0  0  0  0  0  0  0  0  0  0
   19.0413   -7.5367   16.7630 C   0  0  0  0  0  0  0  0  0  0  0  0
   20.4245   -7.2450   16.7072 C   0  0  0  0  0  0  0  0  0  0  0  0
   21.4052   -7.0044   17.8456 C   0  0  2  0  0  0  0  0  0  0  0  0
   22.5857   -7.7664   17.6297 O   0  0  0  0  0  0  0  0  0  0  0  0
   20.9265   -7.4450   19.1430 N   0  0  0  0  0  0  0  0  0  0  0  0
   21.7961   -7.0327   20.2629 C   0  0  2  0  0  0  0  0  0  0  0  0
   21.1044   -7.4414   21.5617 C   0  0  0  0  0  0  0  0  0  0  0  0
   20.0538   -6.3436   21.7528 C   0  0  0  0  0  0  0  0  0  0  0  0
   20.6327   -5.1199   21.1441 N   0  0  0  0  0  0  0  0  0  0  0  0
   19.7520   -4.4608   20.2545 C   0  0  0  0  0  0  0  0  0  0  0  0
   20.1979   -4.1959   19.0026 N   0  0  0  0  0  0  0  0  0  0  0  0
   19.3514   -3.6994   18.0751 C   0  0  0  0  0  0  0  0  0  0  0  0
   18.0419   -3.3843   18.3352 C   0  0  0  0  0  0  0  0  0  0  0  0
   17.6002   -3.5359   19.6371 C   0  0  0  0  0  0  0  0  0  0  0  0
   18.4535   -4.0659   20.6118 C   0  0  0  0  0  0  0  0  0  0  0  0
   17.8699   -4.1473   22.2368 Cl  0  0  0  0  0  0  0  0  0  0  0  0
   21.9246   -5.5124   20.5316 C   0  0  0  0  0  0  0  0  0  0  0  0
   20.8133   -7.1981   15.3261 C   0  0  0  0  0  0  0  0  0  0  0  0
   22.5447   -6.5420   14.8093 Br  0  0  0  0  0  0  0  0  0  0  0  0
   19.9912   -7.5847   14.2161 C   0  0  0  0  0  0  0  0  0  0  0  0
   18.6591   -8.0057   14.3495 C   0  0  0  0  0  0  0  0  0  0  0  0
   18.1779   -7.9193   15.6605 C   0  0  0  0  0  0  0  0  0  0  0  0
   16.9361   -8.1668   16.1085 N   0  0  0  0  0  0  0  0  0  0  0  0
  1  2  1  0
  2  3  1  0
  3  4  2  0
  4  5  1  0
  5  6  1  0
  6  7  1  6
  6  8  1  0
  9  8  1  6
  9 10  1  0
 10 11  1  0
 11 12  1  0
 12 13  1  0
 13 14  2  0
 14 15  1  0
 15 16  2  0
 16 17  1  0
 17 18  2  0
 18 19  1  0
 12 20  1  0
  5 21  2  0
 21 22  1  0
 21 23  1  0
 23 24  2  0
 24 25  1  0
 25 26  2  0
 26  2  1  0
 25  4  1  0
 20  9  1  0
 18 13  1  0
M  END
>  <energy_score>  (948) 
-54.92356

>  <inchikey>  (948) 
None

>  <smiles>  (948) 
None

>  <ref_pdb>  (948) 
A1105b

>  <alias>  (948) 
None

>  <HIPPO Pose ID>  (948) 
498592

>  <name>  (948) 
P498592

>  <HIPPO Compound ID>  (948) 
293429

>  <ref_mols>  (948) 
A0497a,A1105b

>  <distance_score>  (948) 
1.16302

>  <inspiration_score>  (948) 
None

$$$$
P498593
     RDKit          3D

 26 29  0  0  0  0  0  0  0  0999 V2000
   15.5994   -8.4079   17.7055 C   0  0  0  0  0  0  0  0  0  0  0  0
   16.8929   -8.2162   17.0924 N   0  0  0  0  0  0  0  0  0  0  0  0
   18.0775   -8.0070   17.7359 C   0  0  0  0  0  0  0  0  0  0  0  0
   19.0007   -7.7802   16.7481 C   0  0  0  0  0  0  0  0  0  0  0  0
   20.3709   -7.4873   16.9198 C   0  0  0  0  0  0  0  0  0  0  0  0
   21.0991   -7.4541   18.2412 C   0  0  1  0  0  0  0  0  0  0  0  0
   22.1607   -8.3829   18.2229 O   0  0  0  0  0  0  0  0  0  0  0  0
   21.6190   -6.1491   18.5680 N   0  0  0  0  0  0  0  0  0  0  0  0
   22.3140   -5.9948   19.8651 C   0  0  2  0  0  0  0  0  0  0  0  0
   21.7888   -6.7650   21.1014 C   0  0  0  0  0  0  0  0  0  0  0  0
   21.1449   -5.7189   22.0206 C   0  0  0  0  0  0  0  0  0  0  0  0
   20.9772   -4.5263   21.1976 N   0  0  0  0  0  0  0  0  0  0  0  0
   19.8522   -4.2489   20.4176 C   0  0  0  0  0  0  0  0  0  0  0  0
   19.9877   -3.1070   19.6939 N   0  0  0  0  0  0  0  0  0  0  0  0
   19.1276   -2.8257   18.6944 C   0  0  0  0  0  0  0  0  0  0  0  0
   18.0713   -3.6263   18.3505 C   0  0  0  0  0  0  0  0  0  0  0  0
   17.8636   -4.7506   19.1258 C   0  0  0  0  0  0  0  0  0  0  0  0
   18.7189   -5.0535   20.2004 C   0  0  0  0  0  0  0  0  0  0  0  0
   18.3027   -6.4690   21.0996 Cl  0  0  0  0  0  0  0  0  0  0  0  0
   22.2048   -4.5194   20.3519 C   0  0  0  0  0  0  0  0  0  0  0  0
   20.9721   -7.3049   15.6364 C   0  0  0  0  0  0  0  0  0  0  0  0
   22.8231   -6.8306   15.4725 Br  0  0  0  0  0  0  0  0  0  0  0  0
   20.2948   -7.4813   14.3827 C   0  0  0  0  0  0  0  0  0  0  0  0
   18.9401   -7.8462   14.2719 C   0  0  0  0  0  0  0  0  0  0  0  0
   18.2870   -7.9635   15.5040 C   0  0  0  0  0  0  0  0  0  0  0  0
   17.0024   -8.2704   15.7540 N   0  0  0  0  0  0  0  0  0  0  0  0
  1  2  1  0
  2  3  1  0
  3  4  2  0
  4  5  1  0
  5  6  1  0
  6  7  1  6
  6  8  1  0
  9  8  1  6
  9 10  1  0
 10 11  1  0
 11 12  1  0
 12 13  1  0
 13 14  2  0
 14 15  1  0
 15 16  2  0
 16 17  1  0
 17 18  2  0
 18 19  1  0
 12 20  1  0
  5 21  2  0
 21 22  1  0
 21 23  1  0
 23 24  2  0
 24 25  1  0
 25 26  2  0
 26  2  1  0
 25  4  1  0
 20  9  1  0
 18 13  1  0
M  END
>  <energy_score>  (949) 
-45.749129

>  <inchikey>  (949) 
None

>  <smiles>  (949) 
None

>  <ref_pdb>  (949) 
A1105b

>  <alias>  (949) 
None

>  <HIPPO Pose ID>  (949) 
498593

>  <name>  (949) 
P498593

>  <HIPPO Compound ID>  (949) 
293429

>  <ref_mols>  (949) 
A0497a,A1105b

>  <distance_score>  (949) 
1.011193

>  <inspiration_score>  (949) 
None

$$$$
P498594
     RDKit          3D

 26 29  0  0  0  0  0  0  0  0999 V2000
   16.1416   -7.7350   18.1788 C   0  0  0  0  0  0  0  0  0  0  0  0
   17.2535   -7.7535   17.2587 N   0  0  0  0  0  0  0  0  0  0  0  0
   18.5476   -7.4088   17.5319 C   0  0  0  0  0  0  0  0  0  0  0  0
   19.2215   -7.4866   16.3380 C   0  0  0  0  0  0  0  0  0  0  0  0
   20.5856   -7.2018   16.0703 C   0  0  0  0  0  0  0  0  0  0  0  0
   21.7320   -6.9149   17.0220 C   0  0  2  0  0  0  0  0  0  0  0  0
   21.4265   -7.2272   18.3701 O   0  0  0  0  0  0  0  0  0  0  0  0
   22.3809   -5.6066   16.8859 N   0  0  0  0  0  0  0  0  0  0  0  0
   21.7711   -4.5431   17.6579 C   0  0  1  0  0  0  0  0  0  0  0  0
   22.5120   -3.2092   17.6945 C   0  0  0  0  0  0  0  0  0  0  0  0
   21.4850   -2.3203   18.4297 C   0  0  0  0  0  0  0  0  0  0  0  0
   20.1511   -2.8827   18.0929 N   0  0  0  0  0  0  0  0  0  0  0  0
   19.4623   -3.3276   19.2544 C   0  0  0  0  0  0  0  0  0  0  0  0
   19.5852   -4.6357   19.6313 N   0  0  0  0  0  0  0  0  0  0  0  0
   18.9431   -5.0799   20.7289 C   0  0  0  0  0  0  0  0  0  0  0  0
   18.1333   -4.2833   21.4937 C   0  0  0  0  0  0  0  0  0  0  0  0
   18.0056   -2.9574   21.1136 C   0  0  0  0  0  0  0  0  0  0  0  0
   18.6848   -2.4547   20.0088 C   0  0  0  0  0  0  0  0  0  0  0  0
   18.5834   -0.7579   19.7313 Cl  0  0  0  0  0  0  0  0  0  0  0  0
   20.3931   -4.0318   17.1993 C   0  0  0  0  0  0  0  0  0  0  0  0
   20.8235   -7.3653   14.6645 C   0  0  0  0  0  0  0  0  0  0  0  0
   22.5532   -7.0181   13.9001 Br  0  0  0  0  0  0  0  0  0  0  0  0
   19.8607   -7.8189   13.7072 C   0  0  0  0  0  0  0  0  0  0  0  0
   18.5392   -8.1534   14.0358 C   0  0  0  0  0  0  0  0  0  0  0  0
   18.2263   -7.9513   15.3841 C   0  0  0  0  0  0  0  0  0  0  0  0
   17.0506   -8.1606   15.9965 N   0  0  0  0  0  0  0  0  0  0  0  0
  1  2  1  0
  2  3  1  0
  3  4  2  0
  4  5  1  0
  5  6  1  0
  6  7  1  1
  6  8  1  0
  9  8  1  6
  9 10  1  0
 10 11  1  0
 11 12  1  0
 12 13  1  0
 13 14  2  0
 14 15  1  0
 15 16  2  0
 16 17  1  0
 17 18  2  0
 18 19  1  0
 12 20  1  0
  5 21  2  0
 21 22  1  0
 21 23  1  0
 23 24  2  0
 24 25  1  0
 25 26  2  0
 26  2  1  0
 25  4  1  0
 20  9  1  0
 18 13  1  0
M  END
>  <energy_score>  (950) 
-47.832776

>  <inchikey>  (950) 
None

>  <smiles>  (950) 
None

>  <ref_pdb>  (950) 
A1105b

>  <alias>  (950) 
None

>  <HIPPO Pose ID>  (950) 
498594

>  <name>  (950) 
P498594

>  <HIPPO Compound ID>  (950) 
293429

>  <ref_mols>  (950) 
A0497a,A1105b

>  <distance_score>  (950) 
1.714141

>  <inspiration_score>  (950) 
None

$$$$
P498595
     RDKit          3D

 26 29  0  0  0  0  0  0  0  0999 V2000
   15.8507   -7.4818   18.1019 C   0  0  0  0  0  0  0  0  0  0  0  0
   17.0056   -7.5465   17.2387 N   0  0  0  0  0  0  0  0  0  0  0  0
   18.2177   -6.9567   17.4647 C   0  0  0  0  0  0  0  0  0  0  0  0
   18.9661   -7.2283   16.3471 C   0  0  0  0  0  0  0  0  0  0  0  0
   20.2850   -6.8049   16.0830 C   0  0  0  0  0  0  0  0  0  0  0  0
   21.1746   -6.0270   17.0141 C   0  0  1  0  0  0  0  0  0  0  0  0
   22.4257   -6.6772   17.1287 O   0  0  0  0  0  0  0  0  0  0  0  0
   21.3591   -4.6756   16.5278 N   0  0  0  0  0  0  0  0  0  0  0  0
   22.3782   -3.8867   17.2424 C   0  0  1  0  0  0  0  0  0  0  0  0
   22.1316   -2.4051   16.9664 C   0  0  0  0  0  0  0  0  0  0  0  0
   21.0303   -2.0390   17.9616 C   0  0  0  0  0  0  0  0  0  0  0  0
   21.2354   -2.9330   19.1043 N   0  0  0  0  0  0  0  0  0  0  0  0
   20.1358   -3.4479   19.7781 C   0  0  0  0  0  0  0  0  0  0  0  0
   20.2893   -4.7037   20.2736 N   0  0  0  0  0  0  0  0  0  0  0  0
   19.3385   -5.2657   21.0366 C   0  0  0  0  0  0  0  0  0  0  0  0
   18.1583   -4.6410   21.3302 C   0  0  0  0  0  0  0  0  0  0  0  0
   17.9460   -3.3837   20.7946 C   0  0  0  0  0  0  0  0  0  0  0  0
   18.9477   -2.7544   20.0531 C   0  0  0  0  0  0  0  0  0  0  0  0
   18.6698   -1.0791   19.7312 Cl  0  0  0  0  0  0  0  0  0  0  0  0
   22.3321   -3.8673   18.7850 C   0  0  0  0  0  0  0  0  0  0  0  0
   20.6529   -7.2130   14.7626 C   0  0  0  0  0  0  0  0  0  0  0  0
   22.3497   -6.7341   13.9990 Br  0  0  0  0  0  0  0  0  0  0  0  0
   19.8273   -7.9900   13.8849 C   0  0  0  0  0  0  0  0  0  0  0  0
   18.5350   -8.4308   14.2174 C   0  0  0  0  0  0  0  0  0  0  0  0
   18.1085   -8.0106   15.4825 C   0  0  0  0  0  0  0  0  0  0  0  0
   16.9314   -8.2374   16.0868 N   0  0  0  0  0  0  0  0  0  0  0  0
  1  2  1  0
  2  3  1  0
  3  4  2  0
  4  5  1  0
  5  6  1  0
  6  7  1  6
  6  8  1  0
  9  8  1  6
  9 10  1  0
 10 11  1  0
 11 12  1  0
 12 13  1  0
 13 14  2  0
 14 15  1  0
 15 16  2  0
 16 17  1  0
 17 18  2  0
 18 19  1  0
 12 20  1  0
  5 21  2  0
 21 22  1  0
 21 23  1  0
 23 24  2  0
 24 25  1  0
 25 26  2  0
 26  2  1  0
 25  4  1  0
 20  9  1  0
 18 13  1  0
M  END
>  <energy_score>  (951) 
-79.457818

>  <inchikey>  (951) 
None

>  <smiles>  (951) 
None

>  <ref_pdb>  (951) 
A1105b

>  <alias>  (951) 
None

>  <HIPPO Pose ID>  (951) 
498595

>  <name>  (951) 
P498595

>  <HIPPO Compound ID>  (951) 
293429

>  <ref_mols>  (951) 
A0497a,A1105b

>  <distance_score>  (951) 
1.456694

>  <inspiration_score>  (951) 
None

$$$$
P498596
     RDKit          3D

 26 29  0  0  0  0  0  0  0  0999 V2000
   18.5346   -8.6683   16.9844 C   0  0  0  0  0  0  0  0  0  0  0  0
   19.3515   -7.4673   16.6747 C   0  0  0  0  0  0  0  0  0  0  0  0
   19.7244   -7.2269   15.3638 C   0  0  0  0  0  0  0  0  0  0  0  0
   20.5945   -6.1839   15.1086 C   0  0  0  0  0  0  0  0  0  0  0  0
   21.0279   -5.3935   16.1602 C   0  0  0  0  0  0  0  0  0  0  0  0
   20.5659   -5.6475   17.4514 C   0  0  0  0  0  0  0  0  0  0  0  0
   20.9438   -4.7611   18.4870 N   0  0  0  0  0  0  0  0  0  0  0  0
   20.3431   -3.4202   18.2576 C   0  0  0  0  0  0  0  0  0  0  0  0
   19.5594   -3.1098   19.5291 C   0  0  0  0  0  0  0  0  0  0  0  0
   19.2035   -4.4832   20.1028 C   0  0  1  0  0  0  0  0  0  0  0  0
   18.0887   -5.2952   19.5641 N   0  0  0  0  0  0  0  0  0  0  0  0
   17.2270   -4.7654   18.5169 C   0  0  2  0  0  0  0  0  0  0  0  0
   16.7508   -3.5339   18.9996 O   0  0  0  0  0  0  0  0  0  0  0  0
   16.0741   -5.7204   18.1436 C   0  0  0  0  0  0  0  0  0  0  0  0
   14.8733   -5.3177   17.4839 C   0  0  0  0  0  0  0  0  0  0  0  0
   14.4088   -3.5270   17.2408 Br  0  0  0  0  0  0  0  0  0  0  0  0
   13.8127   -6.1577   17.0040 C   0  0  0  0  0  0  0  0  0  0  0  0
   13.7825   -7.5362   17.1567 C   0  0  0  0  0  0  0  0  0  0  0  0
   14.8478   -7.9909   17.9250 C   0  0  0  0  0  0  0  0  0  0  0  0
   15.0556   -9.2464   18.3539 N   0  0  0  0  0  0  0  0  0  0  0  0
   16.0884   -9.1380   19.1953 N   0  0  0  0  0  0  0  0  0  0  0  0
   16.5123  -10.3012   19.9366 C   0  0  0  0  0  0  0  0  0  0  0  0
   16.6411   -7.8933   19.2542 C   0  0  0  0  0  0  0  0  0  0  0  0
   15.9164   -7.1085   18.3888 C   0  0  0  0  0  0  0  0  0  0  0  0
   20.5573   -5.1982   19.8409 C   0  0  0  0  0  0  0  0  0  0  0  0
   19.7396   -6.6930   17.7115 N   0  0  0  0  0  0  0  0  0  0  0  0
  1  2  1  0
  2  3  2  0
  3  4  1  0
  4  5  2  0
  5  6  1  0
  6  7  1  0
  7  8  1  0
  8  9  1  0
  9 10  1  0
 10 11  1  6
 11 12  1  0
 12 13  1  1
 12 14  1  0
 14 15  2  0
 15 16  1  0
 15 17  1  0
 17 18  2  0
 18 19  1  0
 19 20  2  0
 20 21  1  0
 21 22  1  0
 21 23  1  0
 23 24  2  0
 10 25  1  0
  6 26  2  0
 26  2  1  0
 25  7  1  0
 24 14  1  0
 24 19  1  0
M  END
>  <energy_score>  (952) 
-26.292512

>  <inchikey>  (952) 
None

>  <smiles>  (952) 
None

>  <ref_pdb>  (952) 
A1105b

>  <alias>  (952) 
None

>  <HIPPO Pose ID>  (952) 
498596

>  <name>  (952) 
P498596

>  <HIPPO Compound ID>  (952) 
293430

>  <ref_mols>  (952) 
A0497a,A1105b

>  <distance_score>  (952) 
1.957467

>  <inspiration_score>  (952) 
None

$$$$
P498597
     RDKit          3D

 26 29  0  0  0  0  0  0  0  0999 V2000
   18.1190   -8.8413   19.2653 C   0  0  0  0  0  0  0  0  0  0  0  0
   19.2831   -8.1502   18.6431 C   0  0  0  0  0  0  0  0  0  0  0  0
   19.9607   -8.6082   17.5273 C   0  0  0  0  0  0  0  0  0  0  0  0
   20.9672   -7.8098   16.9870 C   0  0  0  0  0  0  0  0  0  0  0  0
   21.3030   -6.6101   17.6086 C   0  0  0  0  0  0  0  0  0  0  0  0
   20.6281   -6.2394   18.7669 C   0  0  0  0  0  0  0  0  0  0  0  0
   20.9156   -5.0443   19.4443 N   0  0  0  0  0  0  0  0  0  0  0  0
   20.8348   -3.8248   18.6047 C   0  0  0  0  0  0  0  0  0  0  0  0
   19.9041   -2.8717   19.3583 C   0  0  0  0  0  0  0  0  0  0  0  0
   18.9936   -3.7951   20.1609 C   0  0  1  0  0  0  0  0  0  0  0  0
   17.7662   -4.3206   19.5312 N   0  0  0  0  0  0  0  0  0  0  0  0
   17.7644   -4.6621   18.1049 C   0  0  2  0  0  0  0  0  0  0  0  0
   17.9387   -3.4703   17.3679 O   0  0  0  0  0  0  0  0  0  0  0  0
   16.4605   -5.3323   17.7100 C   0  0  0  0  0  0  0  0  0  0  0  0
   15.1866   -4.7272   17.8338 C   0  0  0  0  0  0  0  0  0  0  0  0
   15.1073   -2.9444   18.3787 Br  0  0  0  0  0  0  0  0  0  0  0  0
   13.9198   -5.3345   17.5703 C   0  0  0  0  0  0  0  0  0  0  0  0
   13.7774   -6.6728   17.1833 C   0  0  0  0  0  0  0  0  0  0  0  0
   15.0002   -7.2977   16.9532 C   0  0  0  0  0  0  0  0  0  0  0  0
   15.2321   -8.5166   16.4354 N   0  0  0  0  0  0  0  0  0  0  0  0
   16.5459   -8.5098   16.1593 N   0  0  0  0  0  0  0  0  0  0  0  0
   17.1102   -9.6187   15.4291 C   0  0  0  0  0  0  0  0  0  0  0  0
   17.1847   -7.3621   16.5187 C   0  0  0  0  0  0  0  0  0  0  0  0
   16.2529   -6.6102   17.1785 C   0  0  0  0  0  0  0  0  0  0  0  0
   20.0347   -4.8366   20.6165 C   0  0  0  0  0  0  0  0  0  0  0  0
   19.6344   -7.0145   19.2518 N   0  0  0  0  0  0  0  0  0  0  0  0
  1  2  1  0
  2  3  2  0
  3  4  1  0
  4  5  2  0
  5  6  1  0
  6  7  1  0
  7  8  1  0
  8  9  1  0
  9 10  1  0
 10 11  1  6
 11 12  1  0
 12 13  1  6
 12 14  1  0
 14 15  2  0
 15 16  1  0
 15 17  1  0
 17 18  2  0
 18 19  1  0
 19 20  2  0
 20 21  1  0
 21 22  1  0
 21 23  1  0
 23 24  2  0
 10 25  1  0
  6 26  2  0
 26  2  1  0
 25  7  1  0
 24 14  1  0
 24 19  1  0
M  END
>  <energy_score>  (953) 
-26.067813

>  <inchikey>  (953) 
None

>  <smiles>  (953) 
None

>  <ref_pdb>  (953) 
A1105b

>  <alias>  (953) 
None

>  <HIPPO Pose ID>  (953) 
498597

>  <name>  (953) 
P498597

>  <HIPPO Compound ID>  (953) 
293430

>  <ref_mols>  (953) 
A0497a,A1105b

>  <distance_score>  (953) 
1.90458

>  <inspiration_score>  (953) 
None

$$$$
P498598
     RDKit          3D

 26 29  0  0  0  0  0  0  0  0999 V2000
   18.5496   -8.4799   16.7273 C   0  0  0  0  0  0  0  0  0  0  0  0
   19.4866   -7.3316   16.6350 C   0  0  0  0  0  0  0  0  0  0  0  0
   19.8912   -6.8816   15.3928 C   0  0  0  0  0  0  0  0  0  0  0  0
   20.8302   -5.8682   15.3376 C   0  0  0  0  0  0  0  0  0  0  0  0
   21.3031   -5.3146   16.5188 C   0  0  0  0  0  0  0  0  0  0  0  0
   20.8106   -5.7631   17.7436 C   0  0  0  0  0  0  0  0  0  0  0  0
   21.2051   -5.0967   18.9330 N   0  0  0  0  0  0  0  0  0  0  0  0
   20.7641   -3.6730   18.9152 C   0  0  0  0  0  0  0  0  0  0  0  0
   19.7659   -3.5218   20.0700 C   0  0  0  0  0  0  0  0  0  0  0  0
   19.3208   -4.9461   20.4111 C   0  0  1  0  0  0  0  0  0  0  0  0
   18.2608   -5.6148   19.6371 N   0  0  0  0  0  0  0  0  0  0  0  0
   17.3758   -4.8015   18.8388 C   0  0  1  0  0  0  0  0  0  0  0  0
   18.0831   -4.0952   17.8466 O   0  0  0  0  0  0  0  0  0  0  0  0
   16.2225   -5.5887   18.2155 C   0  0  0  0  0  0  0  0  0  0  0  0
   15.0929   -4.9028   17.6949 C   0  0  0  0  0  0  0  0  0  0  0  0
   14.9649   -3.0800   18.0623 Br  0  0  0  0  0  0  0  0  0  0  0  0
   13.9415   -5.4641   17.0639 C   0  0  0  0  0  0  0  0  0  0  0  0
   13.7522   -6.8404   16.9255 C   0  0  0  0  0  0  0  0  0  0  0  0
   14.7370   -7.5854   17.5761 C   0  0  0  0  0  0  0  0  0  0  0  0
   14.7850   -8.9159   17.7547 N   0  0  0  0  0  0  0  0  0  0  0  0
   15.7954   -9.0939   18.6197 N   0  0  0  0  0  0  0  0  0  0  0  0
   16.0527  -10.4162   19.1360 C   0  0  0  0  0  0  0  0  0  0  0  0
   16.4852   -7.9581   18.9221 C   0  0  0  0  0  0  0  0  0  0  0  0
   15.8940   -6.9562   18.1955 C   0  0  0  0  0  0  0  0  0  0  0  0
   20.6655   -5.6900   20.1750 C   0  0  0  0  0  0  0  0  0  0  0  0
   19.9255   -6.7942   17.7942 N   0  0  0  0  0  0  0  0  0  0  0  0
  1  2  1  0
  2  3  2  0
  3  4  1  0
  4  5  2  0
  5  6  1  0
  6  7  1  0
  7  8  1  0
  8  9  1  0
  9 10  1  0
 10 11  1  6
 11 12  1  0
 12 13  1  6
 12 14  1  0
 14 15  2  0
 15 16  1  0
 15 17  1  0
 17 18  2  0
 18 19  1  0
 19 20  2  0
 20 21  1  0
 21 22  1  0
 21 23  1  0
 23 24  2  0
 10 25  1  0
  6 26  2  0
 26  2  1  0
 25  7  1  0
 24 14  1  0
 24 19  1  0
M  END
>  <energy_score>  (954) 
-34.843286

>  <inchikey>  (954) 
None

>  <smiles>  (954) 
None

>  <ref_pdb>  (954) 
A1105b

>  <alias>  (954) 
None

>  <HIPPO Pose ID>  (954) 
498598

>  <name>  (954) 
P498598

>  <HIPPO Compound ID>  (954) 
293430

>  <ref_mols>  (954) 
A0497a,A1105b

>  <distance_score>  (954) 
1.726459

>  <inspiration_score>  (954) 
None

$$$$
P498599
     RDKit          3D

 26 30  0  0  0  0  0  0  0  0999 V2000
   16.2464   -7.5690   18.2929 C   0  0  0  0  0  0  0  0  0  0  0  0
   17.2990   -7.6476   17.3096 N   0  0  0  0  0  0  0  0  0  0  0  0
   18.5959   -7.2533   17.4736 C   0  0  0  0  0  0  0  0  0  0  0  0
   19.1899   -7.4649   16.2572 C   0  0  0  0  0  0  0  0  0  0  0  0
   20.5230   -7.1953   15.9031 C   0  0  0  0  0  0  0  0  0  0  0  0
   21.6579   -6.7093   16.7605 C   0  0  0  0  0  0  0  0  0  0  0  0
   21.3855   -5.4039   17.2901 N   0  0  0  0  0  0  0  0  0  0  0  0
   22.2152   -4.9738   18.4257 C   0  0  0  0  0  0  0  0  0  0  0  0
   22.2337   -3.4311   18.2252 C   0  0  1  0  0  0  0  0  0  0  0  0
   22.6125   -3.4314   16.7397 C   0  0  0  0  0  0  0  0  0  0  0  0
   21.3838   -4.2503   16.3561 C   0  0  2  0  0  0  0  0  0  0  0  0
   20.2773   -3.3054   16.8901 C   0  0  0  0  0  0  0  0  0  0  0  0
   20.8447   -2.8431   18.1911 N   0  0  0  0  0  0  0  0  0  0  0  0
   20.0757   -3.1208   19.3205 C   0  0  0  0  0  0  0  0  0  0  0  0
   18.6803   -3.0924   19.2940 C   0  0  0  0  0  0  0  0  0  0  0  0
   17.9568   -3.5754   20.3840 C   0  0  0  0  0  0  0  0  0  0  0  0
   18.6469   -4.0526   21.4850 C   0  0  0  0  0  0  0  0  0  0  0  0
   17.8260   -4.8146   22.9900 Br  0  0  0  0  0  0  0  0  0  0  0  0
   20.0177   -3.9413   21.4871 C   0  0  0  0  0  0  0  0  0  0  0  0
   20.7291   -3.4606   20.4528 N   0  0  0  0  0  0  0  0  0  0  0  0
   20.7315   -7.4769   14.5292 C   0  0  0  0  0  0  0  0  0  0  0  0
   19.7328   -8.0033   13.6579 C   0  0  0  0  0  0  0  0  0  0  0  0
   20.2059   -8.3148   11.8426 Br  0  0  0  0  0  0  0  0  0  0  0  0
   18.4206   -8.3122   14.0558 C   0  0  0  0  0  0  0  0  0  0  0  0
   18.1617   -8.0094   15.3993 C   0  0  0  0  0  0  0  0  0  0  0  0
   17.0236   -8.1654   16.0959 N   0  0  0  0  0  0  0  0  0  0  0  0
  1  2  1  0
  2  3  1  0
  3  4  2  0
  4  5  1  0
  5  6  1  0
  6  7  1  0
  7  8  1  0
  9  8  1  6
  9 10  1  0
 10 11  1  0
 11 12  1  1
 12 13  1  0
 13 14  1  0
 14 15  2  0
 15 16  1  0
 16 17  2  0
 17 18  1  0
 17 19  1  0
 19 20  2  0
  5 21  2  0
 21 22  1  0
 22 23  1  0
 22 24  2  0
 24 25  1  0
 25 26  2  0
 26  2  1  0
 25  4  1  0
 11  7  1  0
 20 14  1  0
 13  9  1  0
M  END
>  <energy_score>  (955) 
-32.385116

>  <inchikey>  (955) 
None

>  <smiles>  (955) 
None

>  <ref_pdb>  (955) 
A1105b

>  <alias>  (955) 
None

>  <HIPPO Pose ID>  (955) 
498599

>  <name>  (955) 
P498599

>  <HIPPO Compound ID>  (955) 
293431

>  <ref_mols>  (955) 
A0497a,A1105b

>  <distance_score>  (955) 
1.41552

>  <inspiration_score>  (955) 
None

$$$$
P498600
     RDKit          3D

 26 29  0  0  0  0  0  0  0  0999 V2000
   15.8925   -6.9105   17.8053 C   0  0  0  0  0  0  0  0  0  0  0  0
   17.1454   -7.0922   17.1116 N   0  0  0  0  0  0  0  0  0  0  0  0
   18.1888   -6.2112   17.0731 C   0  0  0  0  0  0  0  0  0  0  0  0
   19.0981   -6.7496   16.1995 C   0  0  0  0  0  0  0  0  0  0  0  0
   20.3035   -6.1812   15.7329 C   0  0  0  0  0  0  0  0  0  0  0  0
   20.8947   -4.7915   15.8632 C   0  0  1  0  0  0  0  0  0  0  0  0
   20.0455   -3.8471   16.4788 O   0  0  0  0  0  0  0  0  0  0  0  0
   22.2590   -4.7215   16.4158 N   0  0  0  0  0  0  0  0  0  0  0  0
   22.2091   -4.5078   17.8592 C   0  0  2  0  0  0  0  0  0  0  0  0
   23.4847   -4.0460   18.5538 C   0  0  0  0  0  0  0  0  0  0  0  0
   23.0937   -4.1963   20.0428 C   0  0  0  0  0  0  0  0  0  0  0  0
   22.0156   -5.2201   20.0820 N   0  0  0  0  0  0  0  0  0  0  0  0
   20.7119   -4.7233   20.4127 C   0  0  0  0  0  0  0  0  0  0  0  0
   20.4737   -3.4025   20.5639 N   0  0  0  0  0  0  0  0  0  0  0  0
   19.1893   -3.0077   20.7323 C   0  0  0  0  0  0  0  0  0  0  0  0
   18.1053   -3.8655   20.7772 C   0  0  0  0  0  0  0  0  0  0  0  0
   18.3573   -5.2182   20.6657 C   0  0  0  0  0  0  0  0  0  0  0  0
   19.6571   -5.6436   20.4966 C   0  0  0  0  0  0  0  0  0  0  0  0
   19.8789   -6.9660   20.4067 F   0  0  0  0  0  0  0  0  0  0  0  0
   21.9070   -5.7510   18.7017 C   0  0  0  0  0  0  0  0  0  0  0  0
   20.9355   -7.0889   14.8354 C   0  0  0  0  0  0  0  0  0  0  0  0
   20.4030   -8.3431   14.4350 C   0  0  0  0  0  0  0  0  0  0  0  0
   21.1117   -9.0688   13.5555 F   0  0  0  0  0  0  0  0  0  0  0  0
   19.1819   -8.8597   14.8795 C   0  0  0  0  0  0  0  0  0  0  0  0
   18.5273   -8.0232   15.7906 C   0  0  0  0  0  0  0  0  0  0  0  0
   17.3376   -8.2096   16.3864 N   0  0  0  0  0  0  0  0  0  0  0  0
  1  2  1  0
  2  3  1  0
  3  4  2  0
  4  5  1  0
  5  6  1  0
  6  7  1  1
  6  8  1  0
  9  8  1  6
  9 10  1  0
 10 11  1  0
 11 12  1  0
 12 13  1  0
 13 14  2  0
 14 15  1  0
 15 16  2  0
 16 17  1  0
 17 18  2  0
 18 19  1  0
 12 20  1  0
  5 21  2  0
 21 22  1  0
 22 23  1  0
 22 24  2  0
 24 25  1  0
 25 26  2  0
 26  2  1  0
 25  4  1  0
 20  9  1  0
 18 13  1  0
M  END
>  <energy_score>  (956) 
-36.109386

>  <inchikey>  (956) 
None

>  <smiles>  (956) 
None

>  <ref_pdb>  (956) 
A1105b

>  <alias>  (956) 
None

>  <HIPPO Pose ID>  (956) 
498600

>  <name>  (956) 
P498600

>  <HIPPO Compound ID>  (956) 
293433

>  <ref_mols>  (956) 
A0497a,A1105b

>  <distance_score>  (956) 
1.663829

>  <inspiration_score>  (956) 
None

$$$$
P498601
     RDKit          3D

 26 29  0  0  0  0  0  0  0  0999 V2000
   15.5920   -8.0213   17.6555 C   0  0  0  0  0  0  0  0  0  0  0  0
   16.8300   -7.9216   16.9195 N   0  0  0  0  0  0  0  0  0  0  0  0
   17.8797   -7.1024   17.2056 C   0  0  0  0  0  0  0  0  0  0  0  0
   18.7908   -7.3026   16.2012 C   0  0  0  0  0  0  0  0  0  0  0  0
   20.0162   -6.6310   16.0067 C   0  0  0  0  0  0  0  0  0  0  0  0
   20.6228   -5.4949   16.7874 C   0  0  2  0  0  0  0  0  0  0  0  0
   21.3104   -6.0361   17.8852 O   0  0  0  0  0  0  0  0  0  0  0  0
   19.5848   -4.6258   17.2617 N   0  0  0  0  0  0  0  0  0  0  0  0
   19.9352   -3.2308   17.5112 C   0  0  1  0  0  0  0  0  0  0  0  0
   18.5829   -2.6107   17.8862 C   0  0  0  0  0  0  0  0  0  0  0  0
   18.7687   -1.9303   19.2353 C   0  0  0  0  0  0  0  0  0  0  0  0
   19.9032   -2.6282   19.8361 N   0  0  0  0  0  0  0  0  0  0  0  0
   19.6520   -3.8647   20.4496 C   0  0  0  0  0  0  0  0  0  0  0  0
   20.7333   -4.4463   21.0162 N   0  0  0  0  0  0  0  0  0  0  0  0
   20.6351   -5.7137   21.4622 C   0  0  0  0  0  0  0  0  0  0  0  0
   19.5003   -6.4839   21.3442 C   0  0  0  0  0  0  0  0  0  0  0  0
   18.3843   -5.8922   20.7950 C   0  0  0  0  0  0  0  0  0  0  0  0
   18.4393   -4.5622   20.3998 C   0  0  0  0  0  0  0  0  0  0  0  0
   17.3085   -4.0174   19.9362 F   0  0  0  0  0  0  0  0  0  0  0  0
   20.8395   -2.8735   18.7132 C   0  0  0  0  0  0  0  0  0  0  0  0
   20.6534   -7.1152   14.8361 C   0  0  0  0  0  0  0  0  0  0  0  0
   20.1030   -8.1069   13.9785 C   0  0  0  0  0  0  0  0  0  0  0  0
   20.8118   -8.4511   12.8913 F   0  0  0  0  0  0  0  0  0  0  0  0
   18.8671   -8.7384   14.1823 C   0  0  0  0  0  0  0  0  0  0  0  0
   18.2059   -8.3040   15.3378 C   0  0  0  0  0  0  0  0  0  0  0  0
   17.0068   -8.6790   15.8191 N   0  0  0  0  0  0  0  0  0  0  0  0
  1  2  1  0
  2  3  1  0
  3  4  2  0
  4  5  1  0
  5  6  1  0
  6  7  1  1
  6  8  1  0
  9  8  1  1
  9 10  1  0
 10 11  1  0
 11 12  1  0
 12 13  1  0
 13 14  2  0
 14 15  1  0
 15 16  2  0
 16 17  1  0
 17 18  2  0
 18 19  1  0
 12 20  1  0
  5 21  2  0
 21 22  1  0
 22 23  1  0
 22 24  2  0
 24 25  1  0
 25 26  2  0
 26  2  1  0
 25  4  1  0
 20  9  1  0
 18 13  1  0
M  END
>  <energy_score>  (957) 
-34.589538

>  <inchikey>  (957) 
None

>  <smiles>  (957) 
None

>  <ref_pdb>  (957) 
A1105b

>  <alias>  (957) 
None

>  <HIPPO Pose ID>  (957) 
498601

>  <name>  (957) 
P498601

>  <HIPPO Compound ID>  (957) 
293433

>  <ref_mols>  (957) 
A0497a,A1105b

>  <distance_score>  (957) 
1.639001

>  <inspiration_score>  (957) 
None

$$$$
P498602
     RDKit          3D

 26 29  0  0  0  0  0  0  0  0999 V2000
   15.5231   -7.4203   17.8950 C   0  0  0  0  0  0  0  0  0  0  0  0
   16.7492   -7.5198   17.1383 N   0  0  0  0  0  0  0  0  0  0  0  0
   17.9413   -6.9371   17.4621 C   0  0  0  0  0  0  0  0  0  0  0  0
   18.7760   -7.2280   16.4149 C   0  0  0  0  0  0  0  0  0  0  0  0
   20.1150   -6.8278   16.2725 C   0  0  0  0  0  0  0  0  0  0  0  0
   20.9276   -6.0527   17.2663 C   0  0  1  0  0  0  0  0  0  0  0  0
   21.3621   -6.9886   18.2270 O   0  0  0  0  0  0  0  0  0  0  0  0
   22.1300   -5.4391   16.7188 N   0  0  0  0  0  0  0  0  0  0  0  0
   22.5551   -4.2194   17.4372 C   0  0  1  0  0  0  0  0  0  0  0  0
   21.8741   -2.9768   16.8371 C   0  0  0  0  0  0  0  0  0  0  0  0
   21.7535   -2.0174   18.0058 C   0  0  0  0  0  0  0  0  0  0  0  0
   21.5431   -2.8789   19.1588 N   0  0  0  0  0  0  0  0  0  0  0  0
   20.2647   -3.1715   19.6258 C   0  0  0  0  0  0  0  0  0  0  0  0
   20.2326   -3.7188   20.8670 N   0  0  0  0  0  0  0  0  0  0  0  0
   19.0391   -3.9586   21.4411 C   0  0  0  0  0  0  0  0  0  0  0  0
   17.8331   -3.7082   20.8239 C   0  0  0  0  0  0  0  0  0  0  0  0
   17.8428   -3.2195   19.5277 C   0  0  0  0  0  0  0  0  0  0  0  0
   19.0662   -2.9350   18.9338 C   0  0  0  0  0  0  0  0  0  0  0  0
   19.0541   -2.4447   17.6884 F   0  0  0  0  0  0  0  0  0  0  0  0
   22.3613   -4.0871   18.9786 C   0  0  0  0  0  0  0  0  0  0  0  0
   20.6324   -7.3319   15.0480 C   0  0  0  0  0  0  0  0  0  0  0  0
   19.8847   -8.0979   14.1103 C   0  0  0  0  0  0  0  0  0  0  0  0
   20.5097   -8.4905   12.9885 F   0  0  0  0  0  0  0  0  0  0  0  0
   18.5504   -8.4849   14.2879 C   0  0  0  0  0  0  0  0  0  0  0  0
   18.0024   -8.0284   15.4926 C   0  0  0  0  0  0  0  0  0  0  0  0
   16.7725   -8.2337   15.9940 N   0  0  0  0  0  0  0  0  0  0  0  0
  1  2  1  0
  2  3  1  0
  3  4  2  0
  4  5  1  0
  5  6  1  0
  6  7  1  1
  6  8  1  0
  9  8  1  6
  9 10  1  0
 10 11  1  0
 11 12  1  0
 12 13  1  0
 13 14  2  0
 14 15  1  0
 15 16  2  0
 16 17  1  0
 17 18  2  0
 18 19  1  0
 12 20  1  0
  5 21  2  0
 21 22  1  0
 22 23  1  0
 22 24  2  0
 24 25  1  0
 25 26  2  0
 26  2  1  0
 25  4  1  0
 20  9  1  0
 18 13  1  0
M  END
>  <energy_score>  (958) 
-48.424194

>  <inchikey>  (958) 
None

>  <smiles>  (958) 
None

>  <ref_pdb>  (958) 
A1105b

>  <alias>  (958) 
None

>  <HIPPO Pose ID>  (958) 
498602

>  <name>  (958) 
P498602

>  <HIPPO Compound ID>  (958) 
293433

>  <ref_mols>  (958) 
A0497a,A1105b

>  <distance_score>  (958) 
1.085203

>  <inspiration_score>  (958) 
None

$$$$
P498603
     RDKit          3D

 26 29  0  0  0  0  0  0  0  0999 V2000
   18.6282   -8.6774   16.8817 C   0  0  0  0  0  0  0  0  0  0  0  0
   19.4963   -7.4813   16.7315 C   0  0  0  0  0  0  0  0  0  0  0  0
   19.9209   -7.0996   15.4730 C   0  0  0  0  0  0  0  0  0  0  0  0
   20.7849   -6.0258   15.3745 C   0  0  0  0  0  0  0  0  0  0  0  0
   21.1393   -5.3326   16.5240 C   0  0  0  0  0  0  0  0  0  0  0  0
   20.6038   -5.7045   17.7576 C   0  0  0  0  0  0  0  0  0  0  0  0
   20.7802   -4.8839   18.8861 N   0  0  0  0  0  0  0  0  0  0  0  0
   20.5838   -3.4375   18.6400 C   0  0  0  0  0  0  0  0  0  0  0  0
   19.8104   -2.9118   19.8467 C   0  0  0  0  0  0  0  0  0  0  0  0
   19.0180   -4.1127   20.3502 C   0  0  1  0  0  0  0  0  0  0  0  0
   17.6477   -4.2392   19.8276 N   0  0  0  0  0  0  0  0  0  0  0  0
   17.4977   -4.4869   18.4062 C   0  0  2  0  0  0  0  0  0  0  0  0
   17.5475   -3.2482   17.7308 O   0  0  0  0  0  0  0  0  0  0  0  0
   16.2388   -5.2378   18.0696 C   0  0  0  0  0  0  0  0  0  0  0  0
   15.0664   -4.6631   17.5153 C   0  0  0  0  0  0  0  0  0  0  0  0
   13.9701   -5.4243   16.9808 C   0  0  0  0  0  0  0  0  0  0  0  0
   13.9348   -6.8430   16.9460 C   0  0  0  0  0  0  0  0  0  0  0  0
   12.9719   -7.6876   16.1956 C   0  0  0  0  0  0  0  0  0  0  0  0
   14.9541   -7.4105   17.7164 C   0  0  0  0  0  0  0  0  0  0  0  0
   15.1285   -8.7008   18.0622 N   0  0  0  0  0  0  0  0  0  0  0  0
   16.1454   -8.6667   18.9352 N   0  0  0  0  0  0  0  0  0  0  0  0
   16.4874   -9.8647   19.6615 C   0  0  0  0  0  0  0  0  0  0  0  0
   16.7761   -7.4617   19.0109 C   0  0  0  0  0  0  0  0  0  0  0  0
   16.0334   -6.6165   18.2293 C   0  0  0  0  0  0  0  0  0  0  0  0
   20.0166   -5.2670   20.0888 C   0  0  0  0  0  0  0  0  0  0  0  0
   19.8387   -6.8192   17.8572 N   0  0  0  0  0  0  0  0  0  0  0  0
  1  2  1  0
  2  3  2  0
  3  4  1  0
  4  5  2  0
  5  6  1  0
  6  7  1  0
  7  8  1  0
  8  9  1  0
  9 10  1  0
 10 11  1  6
 11 12  1  0
 12 13  1  6
 12 14  1  0
 14 15  2  0
 15 16  1  0
 16 17  2  0
 17 18  1  0
 17 19  1  0
 19 20  2  0
 20 21  1  0
 21 22  1  0
 21 23  1  0
 23 24  2  0
 10 25  1  0
  6 26  2  0
 26  2  1  0
 25  7  1  0
 24 14  1  0
 24 19  1  0
M  END
>  <energy_score>  (959) 
-30.141549

>  <inchikey>  (959) 
None

>  <smiles>  (959) 
None

>  <ref_pdb>  (959) 
A1105b

>  <alias>  (959) 
None

>  <HIPPO Pose ID>  (959) 
498603

>  <name>  (959) 
P498603

>  <HIPPO Compound ID>  (959) 
293434

>  <ref_mols>  (959) 
A0497a,A1105b

>  <distance_score>  (959) 
1.885792

>  <inspiration_score>  (959) 
None

$$$$
P498604
     RDKit          3D

 26 29  0  0  0  0  0  0  0  0999 V2000
   19.9804   -9.3201   17.4453 C   0  0  0  0  0  0  0  0  0  0  0  0
   20.2066   -7.8813   17.0964 C   0  0  0  0  0  0  0  0  0  0  0  0
   20.2078   -7.4954   15.7692 C   0  0  0  0  0  0  0  0  0  0  0  0
   20.6156   -6.2098   15.4705 C   0  0  0  0  0  0  0  0  0  0  0  0
   20.9427   -5.3376   16.5030 C   0  0  0  0  0  0  0  0  0  0  0  0
   20.7963   -5.7375   17.8313 C   0  0  0  0  0  0  0  0  0  0  0  0
   20.8738   -4.8303   18.8932 N   0  0  0  0  0  0  0  0  0  0  0  0
   20.6347   -3.3966   18.6398 C   0  0  0  0  0  0  0  0  0  0  0  0
   19.8492   -2.8897   19.8484 C   0  0  0  0  0  0  0  0  0  0  0  0
   19.1021   -4.1152   20.3635 C   0  0  1  0  0  0  0  0  0  0  0  0
   17.7443   -4.3154   19.8229 N   0  0  0  0  0  0  0  0  0  0  0  0
   17.6314   -4.5657   18.3978 C   0  0  2  0  0  0  0  0  0  0  0  0
   17.6583   -3.3260   17.7217 O   0  0  0  0  0  0  0  0  0  0  0  0
   16.3892   -5.3279   18.0377 C   0  0  0  0  0  0  0  0  0  0  0  0
   15.1730   -4.7461   17.5879 C   0  0  0  0  0  0  0  0  0  0  0  0
   14.0610   -5.4976   17.0744 C   0  0  0  0  0  0  0  0  0  0  0  0
   14.0513   -6.9137   16.9626 C   0  0  0  0  0  0  0  0  0  0  0  0
   13.0164   -7.7267   16.2758 C   0  0  0  0  0  0  0  0  0  0  0  0
   15.1604   -7.5088   17.5789 C   0  0  0  0  0  0  0  0  0  0  0  0
   15.4147   -8.8168   17.7803 N   0  0  0  0  0  0  0  0  0  0  0  0
   16.5311   -8.8249   18.5247 N   0  0  0  0  0  0  0  0  0  0  0  0
   16.9608  -10.0643   19.1229 C   0  0  0  0  0  0  0  0  0  0  0  0
   17.1215   -7.6057   18.6522 C   0  0  0  0  0  0  0  0  0  0  0  0
   16.2519   -6.7218   18.0730 C   0  0  0  0  0  0  0  0  0  0  0  0
   20.1494   -5.2298   20.1170 C   0  0  0  0  0  0  0  0  0  0  0  0
   20.5020   -7.0305   18.1092 N   0  0  0  0  0  0  0  0  0  0  0  0
  1  2  1  0
  2  3  2  0
  3  4  1  0
  4  5  2  0
  5  6  1  0
  6  7  1  0
  7  8  1  0
  8  9  1  0
  9 10  1  0
 10 11  1  6
 11 12  1  0
 12 13  1  6
 12 14  1  0
 14 15  2  0
 15 16  1  0
 16 17  2  0
 17 18  1  0
 17 19  1  0
 19 20  2  0
 20 21  1  0
 21 22  1  0
 21 23  1  0
 23 24  2  0
 10 25  1  0
  6 26  2  0
 26  2  1  0
 25  7  1  0
 24 14  1  0
 24 19  1  0
M  END
>  <energy_score>  (960) 
-39.676538

>  <inchikey>  (960) 
None

>  <smiles>  (960) 
None

>  <ref_pdb>  (960) 
A1105b

>  <alias>  (960) 
None

>  <HIPPO Pose ID>  (960) 
498604

>  <name>  (960) 
P498604

>  <HIPPO Compound ID>  (960) 
293434

>  <ref_mols>  (960) 
A0497a,A1105b

>  <distance_score>  (960) 
1.839402

>  <inspiration_score>  (960) 
None

$$$$
P498605
     RDKit          3D

 26 29  0  0  0  0  0  0  0  0999 V2000
   20.7437   -9.3870   17.9483 C   0  0  0  0  0  0  0  0  0  0  0  0
   20.5333   -7.9794   17.4781 C   0  0  0  0  0  0  0  0  0  0  0  0
   20.2328   -7.7319   16.1515 C   0  0  0  0  0  0  0  0  0  0  0  0
   20.2887   -6.4243   15.7151 C   0  0  0  0  0  0  0  0  0  0  0  0
   20.5999   -5.4120   16.6189 C   0  0  0  0  0  0  0  0  0  0  0  0
   20.7715   -5.6976   17.9715 C   0  0  0  0  0  0  0  0  0  0  0  0
   20.9492   -4.7247   18.9519 N   0  0  0  0  0  0  0  0  0  0  0  0
   20.8136   -3.2867   18.6821 C   0  0  0  0  0  0  0  0  0  0  0  0
   19.8780   -2.7239   19.7590 C   0  0  0  0  0  0  0  0  0  0  0  0
   19.1805   -3.9310   20.3698 C   0  0  1  0  0  0  0  0  0  0  0  0
   17.8342   -4.3261   19.9290 N   0  0  0  0  0  0  0  0  0  0  0  0
   17.2970   -3.9213   18.6298 C   0  0  1  0  0  0  0  0  0  0  0  0
   18.2686   -3.6850   17.6513 O   0  0  0  0  0  0  0  0  0  0  0  0
   16.2557   -4.8807   18.1001 C   0  0  0  0  0  0  0  0  0  0  0  0
   14.9918   -4.4254   17.6246 C   0  0  0  0  0  0  0  0  0  0  0  0
   13.9670   -5.2718   17.0793 C   0  0  0  0  0  0  0  0  0  0  0  0
   14.0948   -6.6753   16.9337 C   0  0  0  0  0  0  0  0  0  0  0  0
   13.1006   -7.5834   16.3058 C   0  0  0  0  0  0  0  0  0  0  0  0
   15.2932   -7.1603   17.4700 C   0  0  0  0  0  0  0  0  0  0  0  0
   15.6917   -8.4411   17.5768 N   0  0  0  0  0  0  0  0  0  0  0  0
   16.8317   -8.3704   18.2736 N   0  0  0  0  0  0  0  0  0  0  0  0
   17.3981   -9.5876   18.7954 C   0  0  0  0  0  0  0  0  0  0  0  0
   17.2825   -7.1043   18.4798 C   0  0  0  0  0  0  0  0  0  0  0  0
   16.3025   -6.2806   17.9999 C   0  0  0  0  0  0  0  0  0  0  0  0
   20.2554   -5.0329   20.2094 C   0  0  0  0  0  0  0  0  0  0  0  0
   20.7933   -6.9947   18.3723 N   0  0  0  0  0  0  0  0  0  0  0  0
  1  2  1  0
  2  3  2  0
  3  4  1  0
  4  5  2  0
  5  6  1  0
  6  7  1  0
  7  8  1  0
  8  9  1  0
  9 10  1  0
 10 11  1  6
 11 12  1  0
 12 13  1  6
 12 14  1  0
 14 15  2  0
 15 16  1  0
 16 17  2  0
 17 18  1  0
 17 19  1  0
 19 20  2  0
 20 21  1  0
 21 22  1  0
 21 23  1  0
 23 24  2  0
 10 25  1  0
  6 26  2  0
 26  2  1  0
 25  7  1  0
 24 14  1  0
 24 19  1  0
M  END
>  <energy_score>  (961) 
-12.625867

>  <inchikey>  (961) 
None

>  <smiles>  (961) 
None

>  <ref_pdb>  (961) 
A1105b

>  <alias>  (961) 
None

>  <HIPPO Pose ID>  (961) 
498605

>  <name>  (961) 
P498605

>  <HIPPO Compound ID>  (961) 
293434

>  <ref_mols>  (961) 
A0497a,A1105b

>  <distance_score>  (961) 
1.506466

>  <inspiration_score>  (961) 
None

$$$$
P498606
     RDKit          3D

 26 29  0  0  0  0  0  0  0  0999 V2000
   17.8898   -8.3056   19.4824 C   0  0  0  0  0  0  0  0  0  0  0  0
   19.1966   -7.6932   19.0902 C   0  0  0  0  0  0  0  0  0  0  0  0
   19.9934   -8.2099   18.0821 C   0  0  0  0  0  0  0  0  0  0  0  0
   21.0957   -7.4713   17.6648 C   0  0  0  0  0  0  0  0  0  0  0  0
   21.3959   -6.2702   18.3030 C   0  0  0  0  0  0  0  0  0  0  0  0
   20.6024   -5.8425   19.3676 C   0  0  0  0  0  0  0  0  0  0  0  0
   20.8582   -4.6280   20.0407 N   0  0  0  0  0  0  0  0  0  0  0  0
   20.8242   -3.4646   19.1177 C   0  0  0  0  0  0  0  0  0  0  0  0
   19.7731   -2.5143   19.6971 C   0  0  0  0  0  0  0  0  0  0  0  0
   18.8066   -3.4299   20.4455 C   0  0  1  0  0  0  0  0  0  0  0  0
   17.8537   -4.2454   19.6763 N   0  0  0  0  0  0  0  0  0  0  0  0
   17.2903   -3.6970   18.4578 C   0  0  1  0  0  0  0  0  0  0  0  0
   18.2885   -3.4113   17.5066 O   0  0  0  0  0  0  0  0  0  0  0  0
   16.2815   -4.6597   17.8958 C   0  0  0  0  0  0  0  0  0  0  0  0
   14.8951   -4.3915   17.9196 C   0  0  0  0  0  0  0  0  0  0  0  0
   13.8862   -5.3388   17.5564 C   0  0  0  0  0  0  0  0  0  0  0  0
   14.1416   -6.6789   17.1678 C   0  0  0  0  0  0  0  0  0  0  0  0
   13.1212   -7.7175   16.8904 C   0  0  0  0  0  0  0  0  0  0  0  0
   15.5073   -6.9205   17.0123 C   0  0  0  0  0  0  0  0  0  0  0  0
   16.1098   -8.0028   16.4811 N   0  0  0  0  0  0  0  0  0  0  0  0
   17.3555   -7.5770   16.2322 N   0  0  0  0  0  0  0  0  0  0  0  0
   18.1667   -8.3046   15.2874 C   0  0  0  0  0  0  0  0  0  0  0  0
   17.6665   -6.3963   16.8353 C   0  0  0  0  0  0  0  0  0  0  0  0
   16.4900   -5.9311   17.3511 C   0  0  0  0  0  0  0  0  0  0  0  0
   19.8719   -4.3392   21.1230 C   0  0  0  0  0  0  0  0  0  0  0  0
   19.5286   -6.5665   19.7489 N   0  0  0  0  0  0  0  0  0  0  0  0
  1  2  1  0
  2  3  2  0
  3  4  1  0
  4  5  2  0
  5  6  1  0
  6  7  1  0
  7  8  1  0
  8  9  1  0
  9 10  1  0
 10 11  1  6
 11 12  1  0
 12 13  1  6
 12 14  1  0
 14 15  2  0
 15 16  1  0
 16 17  2  0
 17 18  1  0
 17 19  1  0
 19 20  2  0
 20 21  1  0
 21 22  1  0
 21 23  1  0
 23 24  2  0
 10 25  1  0
  6 26  2  0
 26  2  1  0
 25  7  1  0
 24 14  1  0
 24 19  1  0
M  END
>  <energy_score>  (962) 
-25.893327

>  <inchikey>  (962) 
None

>  <smiles>  (962) 
None

>  <ref_pdb>  (962) 
A1105b

>  <alias>  (962) 
None

>  <HIPPO Pose ID>  (962) 
498606

>  <name>  (962) 
P498606

>  <HIPPO Compound ID>  (962) 
293434

>  <ref_mols>  (962) 
A0497a,A1105b

>  <distance_score>  (962) 
1.925493

>  <inspiration_score>  (962) 
None

$$$$
P498607
     RDKit          3D

 26 29  0  0  0  0  0  0  0  0999 V2000
   18.0243   -8.6824   13.0690 C   0  0  0  0  0  0  0  0  0  0  0  0
   18.7612   -8.1611   14.2567 C   0  0  0  0  0  0  0  0  0  0  0  0
   20.1335   -7.8394   14.1932 C   0  0  0  0  0  0  0  0  0  0  0  0
   20.9001   -7.4198   15.3205 C   0  0  0  0  0  0  0  0  0  0  0  0
   20.4158   -7.2878   16.6585 C   0  0  0  0  0  0  0  0  0  0  0  0
   21.4190   -6.9721   17.7592 C   0  0  2  0  0  0  0  0  0  0  0  0
   22.5463   -7.8079   17.5564 O   0  0  0  0  0  0  0  0  0  0  0  0
   20.9339   -7.2599   19.0949 N   0  0  0  0  0  0  0  0  0  0  0  0
   21.8843   -6.8896   20.1696 C   0  0  2  0  0  0  0  0  0  0  0  0
   21.2741   -7.3402   21.5000 C   0  0  0  0  0  0  0  0  0  0  0  0
   20.2239   -6.2639   21.8029 C   0  0  0  0  0  0  0  0  0  0  0  0
   20.7090   -5.0351   21.1285 N   0  0  0  0  0  0  0  0  0  0  0  0
   19.7600   -4.4283   20.2806 C   0  0  0  0  0  0  0  0  0  0  0  0
   20.1027   -4.2914   18.9784 N   0  0  0  0  0  0  0  0  0  0  0  0
   19.2191   -3.7958   18.0859 C   0  0  0  0  0  0  0  0  0  0  0  0
   17.9500   -3.4061   18.4250 C   0  0  0  0  0  0  0  0  0  0  0  0
   17.5968   -3.4900   19.7610 C   0  0  0  0  0  0  0  0  0  0  0  0
   18.4957   -4.0029   20.7030 C   0  0  0  0  0  0  0  0  0  0  0  0
   17.9994   -4.0548   22.3558 Cl  0  0  0  0  0  0  0  0  0  0  0  0
   21.9947   -5.3744   20.4630 C   0  0  0  0  0  0  0  0  0  0  0  0
   19.0240   -7.5265   16.6689 C   0  0  0  0  0  0  0  0  0  0  0  0
   18.1484   -7.4145   17.7204 C   0  0  0  0  0  0  0  0  0  0  0  0
   16.9248   -7.7627   17.2248 N   0  0  0  0  0  0  0  0  0  0  0  0
   15.6725   -7.7441   17.9438 C   0  0  0  0  0  0  0  0  0  0  0  0
   16.9416   -8.1640   15.9445 N   0  0  0  0  0  0  0  0  0  0  0  0
   18.2103   -7.9656   15.5409 C   0  0  0  0  0  0  0  0  0  0  0  0
  1  2  1  0
  2  3  2  0
  3  4  1  0
  4  5  2  0
  5  6  1  0
  6  7  1  6
  6  8  1  0
  9  8  1  6
  9 10  1  0
 10 11  1  0
 11 12  1  0
 12 13  1  0
 13 14  2  0
 14 15  1  0
 15 16  2  0
 16 17  1  0
 17 18  2  0
 18 19  1  0
 12 20  1  0
  5 21  1  0
 21 22  2  0
 22 23  1  0
 23 24  1  0
 23 25  1  0
 25 26  2  0
 26  2  1  0
 20  9  1  0
 26 21  1  0
 18 13  1  0
M  END
>  <energy_score>  (963) 
-61.190448

>  <inchikey>  (963) 
None

>  <smiles>  (963) 
None

>  <ref_pdb>  (963) 
A1105b

>  <alias>  (963) 
None

>  <HIPPO Pose ID>  (963) 
498607

>  <name>  (963) 
P498607

>  <HIPPO Compound ID>  (963) 
293435

>  <ref_mols>  (963) 
A0497a,A1105b

>  <distance_score>  (963) 
1.201124

>  <inspiration_score>  (963) 
None

$$$$
P498608
     RDKit          3D

 26 29  0  0  0  0  0  0  0  0999 V2000
   17.9769   -8.6882   12.9378 C   0  0  0  0  0  0  0  0  0  0  0  0
   18.7423   -8.1693   14.1087 C   0  0  0  0  0  0  0  0  0  0  0  0
   20.0966   -7.7839   13.9986 C   0  0  0  0  0  0  0  0  0  0  0  0
   20.8898   -7.3516   15.1029 C   0  0  0  0  0  0  0  0  0  0  0  0
   20.4533   -7.2696   16.4603 C   0  0  0  0  0  0  0  0  0  0  0  0
   21.4817   -6.8675   17.5044 C   0  0  1  0  0  0  0  0  0  0  0  0
   21.9185   -5.5535   17.2246 O   0  0  0  0  0  0  0  0  0  0  0  0
   21.0275   -6.9466   18.8764 N   0  0  0  0  0  0  0  0  0  0  0  0
   22.0582   -6.5951   19.8788 C   0  0  2  0  0  0  0  0  0  0  0  0
   21.6037   -7.1452   21.2480 C   0  0  0  0  0  0  0  0  0  0  0  0
   21.1179   -5.9391   22.0663 C   0  0  0  0  0  0  0  0  0  0  0  0
   21.1069   -4.8008   21.1543 N   0  0  0  0  0  0  0  0  0  0  0  0
   19.9991   -4.2996   20.4751 C   0  0  0  0  0  0  0  0  0  0  0  0
   20.2774   -3.1551   19.7989 N   0  0  0  0  0  0  0  0  0  0  0  0
   19.4432   -2.7146   18.8366 C   0  0  0  0  0  0  0  0  0  0  0  0
   18.2743   -3.3464   18.4995 C   0  0  0  0  0  0  0  0  0  0  0  0
   17.9193   -4.4530   19.2496 C   0  0  0  0  0  0  0  0  0  0  0  0
   18.7508   -4.9157   20.2844 C   0  0  0  0  0  0  0  0  0  0  0  0
   18.2091   -6.3210   21.1301 Cl  0  0  0  0  0  0  0  0  0  0  0  0
   22.2066   -5.0807   20.1915 C   0  0  0  0  0  0  0  0  0  0  0  0
   19.0913   -7.6204   16.5255 C   0  0  0  0  0  0  0  0  0  0  0  0
   18.2946   -7.6916   17.6365 C   0  0  0  0  0  0  0  0  0  0  0  0
   17.0569   -8.0496   17.1913 N   0  0  0  0  0  0  0  0  0  0  0  0
   15.8587   -8.1784   17.9866 C   0  0  0  0  0  0  0  0  0  0  0  0
   17.0085   -8.3350   15.8799 N   0  0  0  0  0  0  0  0  0  0  0  0
   18.2443   -8.0552   15.4235 C   0  0  0  0  0  0  0  0  0  0  0  0
  1  2  1  0
  2  3  2  0
  3  4  1  0
  4  5  2  0
  5  6  1  0
  6  7  1  6
  6  8  1  0
  9  8  1  6
  9 10  1  0
 10 11  1  0
 11 12  1  0
 12 13  1  0
 13 14  2  0
 14 15  1  0
 15 16  2  0
 16 17  1  0
 17 18  2  0
 18 19  1  0
 12 20  1  0
  5 21  1  0
 21 22  2  0
 22 23  1  0
 23 24  1  0
 23 25  1  0
 25 26  2  0
 26  2  1  0
 20  9  1  0
 26 21  1  0
 18 13  1  0
M  END
>  <energy_score>  (964) 
-23.235098

>  <inchikey>  (964) 
None

>  <smiles>  (964) 
None

>  <ref_pdb>  (964) 
A1105b

>  <alias>  (964) 
None

>  <HIPPO Pose ID>  (964) 
498608

>  <name>  (964) 
P498608

>  <HIPPO Compound ID>  (964) 
293435

>  <ref_mols>  (964) 
A0497a,A1105b

>  <distance_score>  (964) 
1.141764

>  <inspiration_score>  (964) 
None

$$$$
P498609
     RDKit          3D

 26 29  0  0  0  0  0  0  0  0999 V2000
   18.4495  -10.6354   14.8437 C   0  0  0  0  0  0  0  0  0  0  0  0
   19.0215   -9.2851   15.1216 C   0  0  0  0  0  0  0  0  0  0  0  0
   20.2556   -8.8776   14.5618 C   0  0  0  0  0  0  0  0  0  0  0  0
   20.8355   -7.5941   14.7653 C   0  0  0  0  0  0  0  0  0  0  0  0
   20.2566   -6.5584   15.5436 C   0  0  0  0  0  0  0  0  0  0  0  0
   20.8160   -5.1674   15.4844 C   0  0  2  0  0  0  0  0  0  0  0  0
   21.0334   -4.8598   14.1194 O   0  0  0  0  0  0  0  0  0  0  0  0
   22.0696   -4.9443   16.1816 N   0  0  0  0  0  0  0  0  0  0  0  0
   21.8235   -4.5046   17.5561 C   0  0  1  0  0  0  0  0  0  0  0  0
   23.1148   -4.2048   18.3116 C   0  0  0  0  0  0  0  0  0  0  0  0
   22.6780   -3.2970   19.4733 C   0  0  0  0  0  0  0  0  0  0  0  0
   21.3232   -2.7868   19.1443 N   0  0  0  0  0  0  0  0  0  0  0  0
   20.2920   -3.4153   19.9012 C   0  0  0  0  0  0  0  0  0  0  0  0
   20.5379   -4.6465   20.4114 N   0  0  0  0  0  0  0  0  0  0  0  0
   19.5542   -5.2947   21.0588 C   0  0  0  0  0  0  0  0  0  0  0  0
   18.2917   -4.7786   21.2254 C   0  0  0  0  0  0  0  0  0  0  0  0
   18.0176   -3.5284   20.6920 C   0  0  0  0  0  0  0  0  0  0  0  0
   19.0286   -2.8218   20.0473 C   0  0  0  0  0  0  0  0  0  0  0  0
   18.7014   -1.1957   19.5885 Cl  0  0  0  0  0  0  0  0  0  0  0  0
   21.0847   -3.1512   17.7306 C   0  0  0  0  0  0  0  0  0  0  0  0
   19.0584   -7.0062   16.1285 C   0  0  0  0  0  0  0  0  0  0  0  0
   18.2095   -6.2902   16.9324 C   0  0  0  0  0  0  0  0  0  0  0  0
   17.1258   -7.0987   17.1180 N   0  0  0  0  0  0  0  0  0  0  0  0
   15.8904   -6.7459   17.7752 C   0  0  0  0  0  0  0  0  0  0  0  0
   17.2530   -8.3283   16.5867 N   0  0  0  0  0  0  0  0  0  0  0  0
   18.4257   -8.2939   15.9278 C   0  0  0  0  0  0  0  0  0  0  0  0
  1  2  1  0
  2  3  2  0
  3  4  1  0
  4  5  2  0
  5  6  1  0
  6  7  1  6
  6  8  1  0
  9  8  1  6
  9 10  1  0
 10 11  1  0
 11 12  1  0
 12 13  1  0
 13 14  2  0
 14 15  1  0
 15 16  2  0
 16 17  1  0
 17 18  2  0
 18 19  1  0
 12 20  1  0
  5 21  1  0
 21 22  2  0
 22 23  1  0
 23 24  1  0
 23 25  1  0
 25 26  2  0
 26  2  1  0
 20  9  1  0
 26 21  1  0
 18 13  1  0
M  END
>  <energy_score>  (965) 
-42.73876

>  <inchikey>  (965) 
None

>  <smiles>  (965) 
None

>  <ref_pdb>  (965) 
A1105b

>  <alias>  (965) 
None

>  <HIPPO Pose ID>  (965) 
498609

>  <name>  (965) 
P498609

>  <HIPPO Compound ID>  (965) 
293435

>  <ref_mols>  (965) 
A0497a,A1105b

>  <distance_score>  (965) 
1.631622

>  <inspiration_score>  (965) 
None

$$$$
P498610
     RDKit          3D

 26 29  0  0  0  0  0  0  0  0999 V2000
   17.8362   -8.7934   12.9653 C   0  0  0  0  0  0  0  0  0  0  0  0
   18.7265   -8.1723   13.9886 C   0  0  0  0  0  0  0  0  0  0  0  0
   20.0567   -7.7987   13.6866 C   0  0  0  0  0  0  0  0  0  0  0  0
   20.9684   -7.2556   14.6406 C   0  0  0  0  0  0  0  0  0  0  0  0
   20.6773   -7.0252   16.0134 C   0  0  0  0  0  0  0  0  0  0  0  0
   21.7616   -6.5987   16.9660 C   0  0  1  0  0  0  0  0  0  0  0  0
   22.8117   -7.5427   16.8749 O   0  0  0  0  0  0  0  0  0  0  0  0
   22.3957   -5.3123   16.6810 N   0  0  0  0  0  0  0  0  0  0  0  0
   21.8030   -4.2557   17.4974 C   0  0  1  0  0  0  0  0  0  0  0  0
   22.5970   -2.9540   17.6000 C   0  0  0  0  0  0  0  0  0  0  0  0
   21.5603   -1.9445   18.1552 C   0  0  0  0  0  0  0  0  0  0  0  0
   20.2235   -2.5671   17.9538 N   0  0  0  0  0  0  0  0  0  0  0  0
   19.6386   -3.1170   19.1350 C   0  0  0  0  0  0  0  0  0  0  0  0
   20.3826   -3.1480   20.2722 N   0  0  0  0  0  0  0  0  0  0  0  0
   20.0188   -3.9748   21.2756 C   0  0  0  0  0  0  0  0  0  0  0  0
   18.9684   -4.8553   21.1887 C   0  0  0  0  0  0  0  0  0  0  0  0
   18.1918   -4.7884   20.0498 C   0  0  0  0  0  0  0  0  0  0  0  0
   18.4365   -3.8350   19.0718 C   0  0  0  0  0  0  0  0  0  0  0  0
   17.2641   -3.6961   17.8211 Cl  0  0  0  0  0  0  0  0  0  0  0  0
   20.4608   -3.6862   17.0091 C   0  0  0  0  0  0  0  0  0  0  0  0
   19.3385   -7.3749   16.2749 C   0  0  0  0  0  0  0  0  0  0  0  0
   18.6836   -7.3121   17.4779 C   0  0  0  0  0  0  0  0  0  0  0  0
   17.4084   -7.7303   17.2172 N   0  0  0  0  0  0  0  0  0  0  0  0
   16.3011   -7.7659   18.1422 C   0  0  0  0  0  0  0  0  0  0  0  0
   17.2188   -8.1760   15.9640 N   0  0  0  0  0  0  0  0  0  0  0  0
   18.3813   -7.9295   15.3338 C   0  0  0  0  0  0  0  0  0  0  0  0
  1  2  1  0
  2  3  2  0
  3  4  1  0
  4  5  2  0
  5  6  1  0
  6  7  1  6
  6  8  1  0
  9  8  1  6
  9 10  1  0
 10 11  1  0
 11 12  1  0
 12 13  1  0
 13 14  2  0
 14 15  1  0
 15 16  2  0
 16 17  1  0
 17 18  2  0
 18 19  1  0
 12 20  1  0
  5 21  1  0
 21 22  2  0
 22 23  1  0
 23 24  1  0
 23 25  1  0
 25 26  2  0
 26  2  1  0
 20  9  1  0
 26 21  1  0
 18 13  1  0
M  END
>  <energy_score>  (966) 
-36.33942

>  <inchikey>  (966) 
None

>  <smiles>  (966) 
None

>  <ref_pdb>  (966) 
A1105b

>  <alias>  (966) 
None

>  <HIPPO Pose ID>  (966) 
498610

>  <name>  (966) 
P498610

>  <HIPPO Compound ID>  (966) 
293435

>  <ref_mols>  (966) 
A0497a,A1105b

>  <distance_score>  (966) 
1.253263

>  <inspiration_score>  (966) 
None

$$$$
P498611
     RDKit          3D

 26 29  0  0  0  0  0  0  0  0999 V2000
   17.8201   -9.5280   13.3788 C   0  0  0  0  0  0  0  0  0  0  0  0
   18.6007   -8.6352   14.2839 C   0  0  0  0  0  0  0  0  0  0  0  0
   19.9467   -8.2979   14.0102 C   0  0  0  0  0  0  0  0  0  0  0  0
   20.7408   -7.4593   14.8459 C   0  0  0  0  0  0  0  0  0  0  0  0
   20.2888   -6.8337   16.0409 C   0  0  0  0  0  0  0  0  0  0  0  0
   21.1889   -5.9394   16.8498 C   0  0  1  0  0  0  0  0  0  0  0  0
   22.1094   -6.7645   17.5276 O   0  0  0  0  0  0  0  0  0  0  0  0
   21.9747   -5.0486   16.0037 N   0  0  0  0  0  0  0  0  0  0  0  0
   22.3191   -3.7345   16.5823 C   0  0  2  0  0  0  0  0  0  0  0  0
   23.2675   -3.7459   17.7782 C   0  0  0  0  0  0  0  0  0  0  0  0
   22.3523   -3.7367   18.9940 C   0  0  0  0  0  0  0  0  0  0  0  0
   21.1442   -3.0385   18.5422 N   0  0  0  0  0  0  0  0  0  0  0  0
   19.9951   -3.2618   19.2848 C   0  0  0  0  0  0  0  0  0  0  0  0
   20.1710   -3.7571   20.5377 N   0  0  0  0  0  0  0  0  0  0  0  0
   19.0951   -3.9826   21.3147 C   0  0  0  0  0  0  0  0  0  0  0  0
   17.8023   -3.7409   20.9086 C   0  0  0  0  0  0  0  0  0  0  0  0
   17.5970   -3.2510   19.6285 C   0  0  0  0  0  0  0  0  0  0  0  0
   18.6996   -2.9895   18.8259 C   0  0  0  0  0  0  0  0  0  0  0  0
   18.4748   -2.4454   17.6240 F   0  0  0  0  0  0  0  0  0  0  0  0
   21.1177   -2.9012   17.0863 C   0  0  0  0  0  0  0  0  0  0  0  0
   18.9539   -7.1918   16.2882 C   0  0  0  0  0  0  0  0  0  0  0  0
   18.1704   -6.7806   17.3353 C   0  0  0  0  0  0  0  0  0  0  0  0
   16.9494   -7.3492   17.1094 N   0  0  0  0  0  0  0  0  0  0  0  0
   15.7502   -7.1279   17.8814 C   0  0  0  0  0  0  0  0  0  0  0  0
   16.9068   -8.1730   16.0461 N   0  0  0  0  0  0  0  0  0  0  0  0
   18.1190   -8.0534   15.4751 C   0  0  0  0  0  0  0  0  0  0  0  0
  1  2  1  0
  2  3  2  0
  3  4  1  0
  4  5  2  0
  5  6  1  0
  6  7  1  6
  6  8  1  0
  9  8  1  1
  9 10  1  0
 10 11  1  0
 11 12  1  0
 12 13  1  0
 13 14  2  0
 14 15  1  0
 15 16  2  0
 16 17  1  0
 17 18  2  0
 18 19  1  0
 12 20  1  0
  5 21  1  0
 21 22  2  0
 22 23  1  0
 23 24  1  0
 23 25  1  0
 25 26  2  0
 26  2  1  0
 20  9  1  0
 26 21  1  0
 18 13  1  0
M  END
>  <energy_score>  (967) 
-45.238659

>  <inchikey>  (967) 
None

>  <smiles>  (967) 
None

>  <ref_pdb>  (967) 
A1105b

>  <alias>  (967) 
None

>  <HIPPO Pose ID>  (967) 
498611

>  <name>  (967) 
P498611

>  <HIPPO Compound ID>  (967) 
293436

>  <ref_mols>  (967) 
A0497a,A1105b

>  <distance_score>  (967) 
1.132074

>  <inspiration_score>  (967) 
None

$$$$
P498612
     RDKit          3D

 26 29  0  0  0  0  0  0  0  0999 V2000
   18.2985   -9.6937   13.4411 C   0  0  0  0  0  0  0  0  0  0  0  0
   18.8165   -8.6693   14.3941 C   0  0  0  0  0  0  0  0  0  0  0  0
   20.1053   -8.1004   14.2415 C   0  0  0  0  0  0  0  0  0  0  0  0
   20.6518   -7.1175   15.1205 C   0  0  0  0  0  0  0  0  0  0  0  0
   19.9804   -6.5774   16.2497 C   0  0  0  0  0  0  0  0  0  0  0  0
   20.6075   -5.5343   17.1229 C   0  0  2  0  0  0  0  0  0  0  0  0
   21.0845   -4.4877   16.3015 O   0  0  0  0  0  0  0  0  0  0  0  0
   21.7723   -5.9735   17.8616 N   0  0  0  0  0  0  0  0  0  0  0  0
   21.5856   -6.9781   18.9182 C   0  0  1  0  0  0  0  0  0  0  0  0
   22.6862   -6.7503   19.9580 C   0  0  0  0  0  0  0  0  0  0  0  0
   22.1405   -5.5796   20.7924 C   0  0  0  0  0  0  0  0  0  0  0  0
   20.6683   -5.7409   20.7698 N   0  0  0  0  0  0  0  0  0  0  0  0
   19.9237   -4.5850   20.4390 C   0  0  0  0  0  0  0  0  0  0  0  0
   20.5661   -3.4457   20.0929 N   0  0  0  0  0  0  0  0  0  0  0  0
   19.8440   -2.4209   19.5905 C   0  0  0  0  0  0  0  0  0  0  0  0
   18.4748   -2.4498   19.4305 C   0  0  0  0  0  0  0  0  0  0  0  0
   17.7971   -3.5827   19.8411 C   0  0  0  0  0  0  0  0  0  0  0  0
   18.5225   -4.6420   20.3748 C   0  0  0  0  0  0  0  0  0  0  0  0
   17.8729   -5.7499   20.7657 F   0  0  0  0  0  0  0  0  0  0  0  0
   20.3625   -6.8661   19.8560 C   0  0  0  0  0  0  0  0  0  0  0  0
   18.6969   -7.1369   16.3535 C   0  0  0  0  0  0  0  0  0  0  0  0
   17.7212   -6.7895   17.2501 C   0  0  0  0  0  0  0  0  0  0  0  0
   16.6527   -7.5813   16.9507 N   0  0  0  0  0  0  0  0  0  0  0  0
   15.3639   -7.5512   17.6029 C   0  0  0  0  0  0  0  0  0  0  0  0
   16.8694   -8.4393   15.9350 N   0  0  0  0  0  0  0  0  0  0  0  0
   18.1085   -8.1431   15.4956 C   0  0  0  0  0  0  0  0  0  0  0  0
  1  2  1  0
  2  3  2  0
  3  4  1  0
  4  5  2  0
  5  6  1  0
  6  7  1  6
  6  8  1  0
  9  8  1  6
  9 10  1  0
 10 11  1  0
 11 12  1  0
 12 13  1  0
 13 14  2  0
 14 15  1  0
 15 16  2  0
 16 17  1  0
 17 18  2  0
 18 19  1  0
 12 20  1  0
  5 21  1  0
 21 22  2  0
 22 23  1  0
 23 24  1  0
 23 25  1  0
 25 26  2  0
 26  2  1  0
 20  9  1  0
 26 21  1  0
 18 13  1  0
M  END
>  <energy_score>  (968) 
-37.604537

>  <inchikey>  (968) 
None

>  <smiles>  (968) 
None

>  <ref_pdb>  (968) 
A1105b

>  <alias>  (968) 
None

>  <HIPPO Pose ID>  (968) 
498612

>  <name>  (968) 
P498612

>  <HIPPO Compound ID>  (968) 
293436

>  <ref_mols>  (968) 
A0497a,A1105b

>  <distance_score>  (968) 
1.072815

>  <inspiration_score>  (968) 
None

$$$$
P498613
     RDKit          3D

 26 29  0  0  0  0  0  0  0  0999 V2000
   18.2921  -10.0387   13.9302 C   0  0  0  0  0  0  0  0  0  0  0  0
   18.7928   -8.8299   14.6479 C   0  0  0  0  0  0  0  0  0  0  0  0
   20.0389   -8.2415   14.3238 C   0  0  0  0  0  0  0  0  0  0  0  0
   20.5593   -7.0817   14.9683 C   0  0  0  0  0  0  0  0  0  0  0  0
   19.9016   -6.3631   16.0045 C   0  0  0  0  0  0  0  0  0  0  0  0
   20.5006   -5.0719   16.4992 C   0  0  1  0  0  0  0  0  0  0  0  0
   19.4969   -4.2068   16.9743 O   0  0  0  0  0  0  0  0  0  0  0  0
   21.4645   -5.2973   17.5502 N   0  0  0  0  0  0  0  0  0  0  0  0
   22.4910   -4.2521   17.7574 C   0  0  1  0  0  0  0  0  0  0  0  0
   22.3630   -2.8734   17.0957 C   0  0  0  0  0  0  0  0  0  0  0  0
   21.3934   -2.0991   17.9901 C   0  0  0  0  0  0  0  0  0  0  0  0
   21.4671   -2.7591   19.3056 N   0  0  0  0  0  0  0  0  0  0  0  0
   20.2489   -3.1904   19.8564 C   0  0  0  0  0  0  0  0  0  0  0  0
   20.2841   -4.2899   20.6539 N   0  0  0  0  0  0  0  0  0  0  0  0
   19.1660   -4.6803   21.2944 C   0  0  0  0  0  0  0  0  0  0  0  0
   17.9571   -4.0359   21.1718 C   0  0  0  0  0  0  0  0  0  0  0  0
   17.8799   -2.9538   20.3140 C   0  0  0  0  0  0  0  0  0  0  0  0
   19.0358   -2.5052   19.6896 C   0  0  0  0  0  0  0  0  0  0  0  0
   18.9558   -1.3515   19.0110 F   0  0  0  0  0  0  0  0  0  0  0  0
   22.5211   -3.7925   19.2379 C   0  0  0  0  0  0  0  0  0  0  0  0
   18.6936   -6.9971   16.3359 C   0  0  0  0  0  0  0  0  0  0  0  0
   17.7910   -6.6076   17.2912 C   0  0  0  0  0  0  0  0  0  0  0  0
   16.7411   -7.4677   17.1643 N   0  0  0  0  0  0  0  0  0  0  0  0
   15.4890   -7.3949   17.8799 C   0  0  0  0  0  0  0  0  0  0  0  0
   16.9269   -8.4411   16.2517 N   0  0  0  0  0  0  0  0  0  0  0  0
   18.1225   -8.1651   15.6974 C   0  0  0  0  0  0  0  0  0  0  0  0
  1  2  1  0
  2  3  2  0
  3  4  1  0
  4  5  2  0
  5  6  1  0
  6  7  1  1
  6  8  1  0
  9  8  1  1
  9 10  1  0
 10 11  1  0
 11 12  1  0
 12 13  1  0
 13 14  2  0
 14 15  1  0
 15 16  2  0
 16 17  1  0
 17 18  2  0
 18 19  1  0
 12 20  1  0
  5 21  1  0
 21 22  2  0
 22 23  1  0
 23 24  1  0
 23 25  1  0
 25 26  2  0
 26  2  1  0
 20  9  1  0
 26 21  1  0
 18 13  1  0
M  END
>  <energy_score>  (969) 
-37.729927

>  <inchikey>  (969) 
None

>  <smiles>  (969) 
None

>  <ref_pdb>  (969) 
A1105b

>  <alias>  (969) 
None

>  <HIPPO Pose ID>  (969) 
498613

>  <name>  (969) 
P498613

>  <HIPPO Compound ID>  (969) 
293436

>  <ref_mols>  (969) 
A0497a,A1105b

>  <distance_score>  (969) 
1.365037

>  <inspiration_score>  (969) 
None

$$$$
P498614
     RDKit          3D

 26 30  0  0  0  0  0  0  0  0999 V2000
   15.2014   -9.3010   16.9619 C   0  0  0  0  0  0  0  0  0  0  0  0
   16.5427   -8.8176   16.7396 N   0  0  0  0  0  0  0  0  0  0  0  0
   17.5051   -8.6298   17.6848 C   0  0  0  0  0  0  0  0  0  0  0  0
   18.5630   -8.0601   17.0299 C   0  0  0  0  0  0  0  0  0  0  0  0
   19.7703   -7.6091   17.5847 C   0  0  0  0  0  0  0  0  0  0  0  0
   20.3000   -7.5571   19.0134 C   0  0  2  0  0  0  0  0  0  0  0  0
   21.3672   -8.4925   19.0626 O   0  0  0  0  0  0  0  0  0  0  0  0
   19.4094   -7.8791   20.1364 N   0  0  0  0  0  0  0  0  0  0  0  0
   18.2623   -6.9389   20.2343 C   0  0  0  0  0  0  0  0  0  0  0  0
   18.4282   -6.2602   21.6090 C   0  0  1  0  0  0  0  0  0  0  0  0
   18.8988   -7.4805   22.4023 C   0  0  0  0  0  0  0  0  0  0  0  0
   20.0968   -7.6843   21.4769 C   0  0  2  0  0  0  0  0  0  0  0  0
   20.7752   -6.2880   21.6990 C   0  0  0  0  0  0  0  0  0  0  0  0
   19.6013   -5.3612   21.6439 N   0  0  0  0  0  0  0  0  0  0  0  0
   19.7119   -4.3709   20.6696 C   0  0  0  0  0  0  0  0  0  0  0  0
   18.6275   -3.9110   19.9148 C   0  0  0  0  0  0  0  0  0  0  0  0
   18.8586   -3.3569   18.6512 C   0  0  0  0  0  0  0  0  0  0  0  0
   20.1691   -3.1613   18.2547 C   0  0  0  0  0  0  0  0  0  0  0  0
   20.6959   -2.7070   16.5152 Br  0  0  0  0  0  0  0  0  0  0  0  0
   21.1667   -3.3978   19.1709 C   0  0  0  0  0  0  0  0  0  0  0  0
   20.9583   -3.9752   20.3655 N   0  0  0  0  0  0  0  0  0  0  0  0
   20.6159   -7.1447   16.5202 C   0  0  0  0  0  0  0  0  0  0  0  0
   20.3015   -7.1693   15.1260 C   0  0  0  0  0  0  0  0  0  0  0  0
   19.0843   -7.6575   14.6287 C   0  0  0  0  0  0  0  0  0  0  0  0
   18.1960   -8.0845   15.6245 C   0  0  0  0  0  0  0  0  0  0  0  0
   16.9526   -8.5783   15.4840 N   0  0  0  0  0  0  0  0  0  0  0  0
  1  2  1  0
  2  3  1  0
  3  4  2  0
  4  5  1  0
  5  6  1  0
  6  7  1  6
  6  8  1  0
  8  9  1  0
 10  9  1  6
 10 11  1  0
 11 12  1  0
 12 13  1  6
 13 14  1  0
 14 15  1  0
 15 16  2  0
 16 17  1  0
 17 18  2  0
 18 19  1  0
 18 20  1  0
 20 21  2  0
  5 22  2  0
 22 23  1  0
 23 24  2  0
 24 25  1  0
 25 26  2  0
 26  2  1  0
 25  4  1  0
 12  8  1  0
 21 15  1  0
 14 10  1  0
M  END
>  <energy_score>  (970) 
-24.040287

>  <inchikey>  (970) 
None

>  <smiles>  (970) 
None

>  <ref_pdb>  (970) 
A1105b

>  <alias>  (970) 
None

>  <HIPPO Pose ID>  (970) 
498614

>  <name>  (970) 
P498614

>  <HIPPO Compound ID>  (970) 
293437

>  <ref_mols>  (970) 
A0497a,A1105b

>  <distance_score>  (970) 
1.830945

>  <inspiration_score>  (970) 
None

$$$$
P498615
     RDKit          3D

 26 30  0  0  0  0  0  0  0  0999 V2000
   16.3183   -7.5010   18.3437 C   0  0  0  0  0  0  0  0  0  0  0  0
   17.3607   -7.5903   17.3511 N   0  0  0  0  0  0  0  0  0  0  0  0
   18.6694   -7.2300   17.5088 C   0  0  0  0  0  0  0  0  0  0  0  0
   19.2516   -7.4565   16.2883 C   0  0  0  0  0  0  0  0  0  0  0  0
   20.5954   -7.2406   15.9297 C   0  0  0  0  0  0  0  0  0  0  0  0
   21.7488   -6.8170   16.8042 C   0  0  1  0  0  0  0  0  0  0  0  0
   22.9913   -7.0285   16.1576 O   0  0  0  0  0  0  0  0  0  0  0  0
   21.6462   -5.4610   17.2222 N   0  0  0  0  0  0  0  0  0  0  0  0
   22.3328   -4.9939   18.4233 C   0  0  0  0  0  0  0  0  0  0  0  0
   22.3234   -3.4551   18.1781 C   0  0  1  0  0  0  0  0  0  0  0  0
   22.7767   -3.4647   16.7116 C   0  0  0  0  0  0  0  0  0  0  0  0
   21.6026   -4.3376   16.2750 C   0  0  2  0  0  0  0  0  0  0  0  0
   20.4268   -3.4413   16.7500 C   0  0  0  0  0  0  0  0  0  0  0  0
   20.9249   -2.9121   18.0542 N   0  0  0  0  0  0  0  0  0  0  0  0
   20.1185   -3.1514   19.1655 C   0  0  0  0  0  0  0  0  0  0  0  0
   18.7247   -3.1646   19.0897 C   0  0  0  0  0  0  0  0  0  0  0  0
   17.9763   -3.6049   20.1824 C   0  0  0  0  0  0  0  0  0  0  0  0
   18.6421   -4.0023   21.3304 C   0  0  0  0  0  0  0  0  0  0  0  0
   17.8025   -4.7147   22.8477 Br  0  0  0  0  0  0  0  0  0  0  0  0
   20.0087   -3.8543   21.3711 C   0  0  0  0  0  0  0  0  0  0  0  0
   20.7419   -3.4131   20.3349 N   0  0  0  0  0  0  0  0  0  0  0  0
   20.7740   -7.5346   14.5487 C   0  0  0  0  0  0  0  0  0  0  0  0
   19.7615   -8.0299   13.6755 C   0  0  0  0  0  0  0  0  0  0  0  0
   18.4429   -8.2837   14.0906 C   0  0  0  0  0  0  0  0  0  0  0  0
   18.2001   -7.9677   15.4351 C   0  0  0  0  0  0  0  0  0  0  0  0
   17.0612   -8.0875   16.1367 N   0  0  0  0  0  0  0  0  0  0  0  0
  1  2  1  0
  2  3  1  0
  3  4  2  0
  4  5  1  0
  5  6  1  0
  6  7  1  6
  6  8  1  0
  8  9  1  0
 10  9  1  6
 10 11  1  0
 11 12  1  0
 12 13  1  1
 13 14  1  0
 14 15  1  0
 15 16  2  0
 16 17  1  0
 17 18  2  0
 18 19  1  0
 18 20  1  0
 20 21  2  0
  5 22  2  0
 22 23  1  0
 23 24  2  0
 24 25  1  0
 25 26  2  0
 26  2  1  0
 25  4  1  0
 12  8  1  0
 21 15  1  0
 14 10  1  0
M  END
>  <energy_score>  (971) 
-36.583585

>  <inchikey>  (971) 
None

>  <smiles>  (971) 
None

>  <ref_pdb>  (971) 
A1105b

>  <alias>  (971) 
None

>  <HIPPO Pose ID>  (971) 
498615

>  <name>  (971) 
P498615

>  <HIPPO Compound ID>  (971) 
293437

>  <ref_mols>  (971) 
A0497a,A1105b

>  <distance_score>  (971) 
1.381513

>  <inspiration_score>  (971) 
None

$$$$
P498616
     RDKit          3D

 26 30  0  0  0  0  0  0  0  0999 V2000
   16.3150   -6.4886   17.9074 C   0  0  0  0  0  0  0  0  0  0  0  0
   17.4461   -6.9161   17.1237 N   0  0  0  0  0  0  0  0  0  0  0  0
   18.5690   -6.1886   16.8496 C   0  0  0  0  0  0  0  0  0  0  0  0
   19.2882   -6.9169   15.9413 C   0  0  0  0  0  0  0  0  0  0  0  0
   20.4593   -6.5704   15.2313 C   0  0  0  0  0  0  0  0  0  0  0  0
   21.2600   -5.3127   14.9472 C   0  0  1  0  0  0  0  0  0  0  0  0
   20.7195   -4.7095   13.7800 O   0  0  0  0  0  0  0  0  0  0  0  0
   21.5979   -4.2966   15.8857 N   0  0  0  0  0  0  0  0  0  0  0  0
   20.6798   -3.2858   16.3874 C   0  0  0  0  0  0  0  0  0  0  0  0
   21.4293   -2.8015   17.6430 C   0  0  2  0  0  0  0  0  0  0  0  0
   22.8880   -2.9766   17.1908 C   0  0  0  0  0  0  0  0  0  0  0  0
   22.6837   -4.4581   16.8503 C   0  0  1  0  0  0  0  0  0  0  0  0
   22.1676   -4.9854   18.2099 C   0  0  0  0  0  0  0  0  0  0  0  0
   21.3583   -3.8364   18.6758 N   0  0  0  0  0  0  0  0  0  0  0  0
   20.3483   -4.1059   19.5393 C   0  0  0  0  0  0  0  0  0  0  0  0
   19.1672   -3.3778   19.6355 C   0  0  0  0  0  0  0  0  0  0  0  0
   18.2739   -3.6597   20.6744 C   0  0  0  0  0  0  0  0  0  0  0  0
   18.6118   -4.6429   21.5936 C   0  0  0  0  0  0  0  0  0  0  0  0
   17.7109   -4.9184   23.2125 Br  0  0  0  0  0  0  0  0  0  0  0  0
   19.7566   -5.3693   21.3884 C   0  0  0  0  0  0  0  0  0  0  0  0
   20.6061   -5.1210   20.3874 N   0  0  0  0  0  0  0  0  0  0  0  0
   20.8159   -7.6827   14.3901 C   0  0  0  0  0  0  0  0  0  0  0  0
   20.1186   -8.9135   14.2561 C   0  0  0  0  0  0  0  0  0  0  0  0
   18.9418   -9.1926   14.9519 C   0  0  0  0  0  0  0  0  0  0  0  0
   18.5300   -8.1617   15.8042 C   0  0  0  0  0  0  0  0  0  0  0  0
   17.4271   -8.1364   16.5689 N   0  0  0  0  0  0  0  0  0  0  0  0
  1  2  1  0
  2  3  1  0
  3  4  2  0
  4  5  1  0
  5  6  1  0
  6  7  1  6
  6  8  1  0
  8  9  1  0
 10  9  1  6
 10 11  1  0
 11 12  1  0
 12 13  1  1
 13 14  1  0
 14 15  1  0
 15 16  2  0
 16 17  1  0
 17 18  2  0
 18 19  1  0
 18 20  1  0
 20 21  2  0
  5 22  2  0
 22 23  1  0
 23 24  2  0
 24 25  1  0
 25 26  2  0
 26  2  1  0
 25  4  1  0
 12  8  1  0
 21 15  1  0
 14 10  1  0
M  END
>  <energy_score>  (972) 
-22.03469

>  <inchikey>  (972) 
None

>  <smiles>  (972) 
None

>  <ref_pdb>  (972) 
A1105b

>  <alias>  (972) 
None

>  <HIPPO Pose ID>  (972) 
498616

>  <name>  (972) 
P498616

>  <HIPPO Compound ID>  (972) 
293437

>  <ref_mols>  (972) 
A0497a,A1105b

>  <distance_score>  (972) 
1.721232

>  <inspiration_score>  (972) 
None

$$$$
P498617
     RDKit          3D

 26 29  0  0  0  0  0  0  0  0999 V2000
   15.9985   -7.2943   18.1256 C   0  0  0  0  0  0  0  0  0  0  0  0
   17.1356   -7.4392   17.2499 N   0  0  0  0  0  0  0  0  0  0  0  0
   18.4071   -6.9981   17.4934 C   0  0  0  0  0  0  0  0  0  0  0  0
   19.1120   -7.2944   16.3559 C   0  0  0  0  0  0  0  0  0  0  0  0
   20.4671   -7.0289   16.0975 C   0  0  0  0  0  0  0  0  0  0  0  0
   21.5077   -6.4162   16.9952 C   0  0  1  0  0  0  0  0  0  0  0  0
   22.4014   -7.4439   17.3664 O   0  0  0  0  0  0  0  0  0  0  0  0
   22.3321   -5.4123   16.3254 N   0  0  0  0  0  0  0  0  0  0  0  0
   22.2627   -4.0751   16.9304 C   0  0  2  0  0  0  0  0  0  0  0  0
   22.9105   -3.9775   18.3117 C   0  0  0  0  0  0  0  0  0  0  0  0
   22.2725   -2.7111   18.8634 C   0  0  0  0  0  0  0  0  0  0  0  0
   20.8716   -2.7993   18.4266 N   0  0  0  0  0  0  0  0  0  0  0  0
   19.9581   -3.2973   19.3691 C   0  0  0  0  0  0  0  0  0  0  0  0
   20.4366   -3.6538   20.5888 N   0  0  0  0  0  0  0  0  0  0  0  0
   19.5780   -4.0356   21.5602 C   0  0  0  0  0  0  0  0  0  0  0  0
   18.2123   -4.0616   21.4067 C   0  0  0  0  0  0  0  0  0  0  0  0
   17.7134   -3.7065   20.1694 C   0  0  0  0  0  0  0  0  0  0  0  0
   18.5779   -3.3691   19.1351 C   0  0  0  0  0  0  0  0  0  0  0  0
   17.8123   -3.0736   17.6417 Cl  0  0  0  0  0  0  0  0  0  0  0  0
   20.8503   -3.4614   17.1080 C   0  0  0  0  0  0  0  0  0  0  0  0
   20.8042   -7.4987   14.7938 C   0  0  0  0  0  0  0  0  0  0  0  0
   19.8945   -8.1196   13.8893 C   0  0  0  0  0  0  0  0  0  0  0  0
   20.5452   -8.6442   12.1823 Br  0  0  0  0  0  0  0  0  0  0  0  0
   18.5498   -8.3805   14.1884 C   0  0  0  0  0  0  0  0  0  0  0  0
   18.1738   -7.9504   15.4674 C   0  0  0  0  0  0  0  0  0  0  0  0
   16.9812   -8.0691   16.0715 N   0  0  0  0  0  0  0  0  0  0  0  0
  1  2  1  0
  2  3  1  0
  3  4  2  0
  4  5  1  0
  5  6  1  0
  6  7  1  6
  6  8  1  0
  9  8  1  1
  9 10  1  0
 10 11  1  0
 11 12  1  0
 12 13  1  0
 13 14  2  0
 14 15  1  0
 15 16  2  0
 16 17  1  0
 17 18  2  0
 18 19  1  0
 12 20  1  0
  5 21  2  0
 21 22  1  0
 22 23  1  0
 22 24  2  0
 24 25  1  0
 25 26  2  0
 26  2  1  0
 25  4  1  0
 20  9  1  0
 18 13  1  0
M  END
>  <energy_score>  (973) 
-56.696904

>  <inchikey>  (973) 
None

>  <smiles>  (973) 
None

>  <ref_pdb>  (973) 
A1105b

>  <alias>  (973) 
None

>  <HIPPO Pose ID>  (973) 
498617

>  <name>  (973) 
P498617

>  <HIPPO Compound ID>  (973) 
293438

>  <ref_mols>  (973) 
A0497a,A1105b

>  <distance_score>  (973) 
1.209028

>  <inspiration_score>  (973) 
None

$$$$
P498618
     RDKit          3D

 26 29  0  0  0  0  0  0  0  0999 V2000
   15.3950   -7.6652   17.7453 C   0  0  0  0  0  0  0  0  0  0  0  0
   16.6540   -7.6415   17.0371 N   0  0  0  0  0  0  0  0  0  0  0  0
   17.6498   -6.7246   17.1992 C   0  0  0  0  0  0  0  0  0  0  0  0
   18.6151   -7.0633   16.2864 C   0  0  0  0  0  0  0  0  0  0  0  0
   19.8214   -6.3885   16.0247 C   0  0  0  0  0  0  0  0  0  0  0  0
   20.3563   -5.1089   16.6006 C   0  0  1  0  0  0  0  0  0  0  0  0
   19.3308   -4.3246   17.1675 O   0  0  0  0  0  0  0  0  0  0  0  0
   21.4822   -5.1870   17.5146 N   0  0  0  0  0  0  0  0  0  0  0  0
   21.6077   -6.3785   18.3666 C   0  0  1  0  0  0  0  0  0  0  0  0
   22.8578   -6.2175   19.2374 C   0  0  0  0  0  0  0  0  0  0  0  0
   22.3934   -5.3408   20.4045 C   0  0  0  0  0  0  0  0  0  0  0  0
   20.9497   -5.6164   20.5609 N   0  0  0  0  0  0  0  0  0  0  0  0
   20.0987   -4.4845   20.4739 C   0  0  0  0  0  0  0  0  0  0  0  0
   20.5366   -3.3874   19.8094 N   0  0  0  0  0  0  0  0  0  0  0  0
   19.6417   -2.4223   19.5057 C   0  0  0  0  0  0  0  0  0  0  0  0
   18.3121   -2.4651   19.8675 C   0  0  0  0  0  0  0  0  0  0  0  0
   17.8874   -3.5400   20.6330 C   0  0  0  0  0  0  0  0  0  0  0  0
   18.7795   -4.5606   20.9483 C   0  0  0  0  0  0  0  0  0  0  0  0
   18.2487   -5.8688   21.9470 Cl  0  0  0  0  0  0  0  0  0  0  0  0
   20.5552   -6.5574   19.4783 C   0  0  0  0  0  0  0  0  0  0  0  0
   20.5314   -7.0404   14.9788 C   0  0  0  0  0  0  0  0  0  0  0  0
   20.0607   -8.1922   14.2846 C   0  0  0  0  0  0  0  0  0  0  0  0
   21.1442   -8.9028   12.8945 Br  0  0  0  0  0  0  0  0  0  0  0  0
   18.8386   -8.8311   14.5592 C   0  0  0  0  0  0  0  0  0  0  0  0
   18.1117   -8.2301   15.5973 C   0  0  0  0  0  0  0  0  0  0  0  0
   16.9138   -8.5761   16.1010 N   0  0  0  0  0  0  0  0  0  0  0  0
  1  2  1  0
  2  3  1  0
  3  4  2  0
  4  5  1  0
  5  6  1  0
  6  7  1  1
  6  8  1  0
  9  8  1  1
  9 10  1  0
 10 11  1  0
 11 12  1  0
 12 13  1  0
 13 14  2  0
 14 15  1  0
 15 16  2  0
 16 17  1  0
 17 18  2  0
 18 19  1  0
 12 20  1  0
  5 21  2  0
 21 22  1  0
 22 23  1  0
 22 24  2  0
 24 25  1  0
 25 26  2  0
 26  2  1  0
 25  4  1  0
 20  9  1  0
 18 13  1  0
M  END
>  <energy_score>  (974) 
-46.23932

>  <inchikey>  (974) 
None

>  <smiles>  (974) 
None

>  <ref_pdb>  (974) 
A1105b

>  <alias>  (974) 
None

>  <HIPPO Pose ID>  (974) 
498618

>  <name>  (974) 
P498618

>  <HIPPO Compound ID>  (974) 
293438

>  <ref_mols>  (974) 
A0497a,A1105b

>  <distance_score>  (974) 
1.370792

>  <inspiration_score>  (974) 
None

$$$$
P498619
     RDKit          3D

 26 29  0  0  0  0  0  0  0  0999 V2000
   15.7437   -7.0802   17.8527 C   0  0  0  0  0  0  0  0  0  0  0  0
   16.9510   -7.2853   17.0885 N   0  0  0  0  0  0  0  0  0  0  0  0
   18.0883   -6.5325   17.1525 C   0  0  0  0  0  0  0  0  0  0  0  0
   18.8986   -7.0211   16.1623 C   0  0  0  0  0  0  0  0  0  0  0  0
   20.1537   -6.5242   15.7731 C   0  0  0  0  0  0  0  0  0  0  0  0
   20.8869   -5.3218   16.2987 C   0  0  2  0  0  0  0  0  0  0  0  0
   21.8529   -4.8963   15.3486 O   0  0  0  0  0  0  0  0  0  0  0  0
   21.5668   -5.6215   17.5466 N   0  0  0  0  0  0  0  0  0  0  0  0
   22.5183   -4.5704   17.9547 C   0  0  2  0  0  0  0  0  0  0  0  0
   22.9021   -4.7804   19.4337 C   0  0  0  0  0  0  0  0  0  0  0  0
   22.6765   -3.4216   20.1027 C   0  0  0  0  0  0  0  0  0  0  0  0
   21.6353   -2.7793   19.2800 N   0  0  0  0  0  0  0  0  0  0  0  0
   20.3209   -3.1103   19.6691 C   0  0  0  0  0  0  0  0  0  0  0  0
   20.1498   -3.5445   20.9449 N   0  0  0  0  0  0  0  0  0  0  0  0
   18.9076   -3.7770   21.4050 C   0  0  0  0  0  0  0  0  0  0  0  0
   17.7741   -3.6011   20.6458 C   0  0  0  0  0  0  0  0  0  0  0  0
   17.9153   -3.1937   19.3314 C   0  0  0  0  0  0  0  0  0  0  0  0
   19.1926   -2.9271   18.8499 C   0  0  0  0  0  0  0  0  0  0  0  0
   19.2896   -2.4460   17.6037 F   0  0  0  0  0  0  0  0  0  0  0  0
   22.0223   -3.1007   17.9030 C   0  0  0  0  0  0  0  0  0  0  0  0
   20.6689   -7.3087   14.7041 C   0  0  0  0  0  0  0  0  0  0  0  0
   19.9835   -8.4020   14.0984 C   0  0  0  0  0  0  0  0  0  0  0  0
   20.8337   -9.3026   12.6563 Br  0  0  0  0  0  0  0  0  0  0  0  0
   18.7153   -8.8533   14.4976 C   0  0  0  0  0  0  0  0  0  0  0  0
   18.1791   -8.1255   15.5676 C   0  0  0  0  0  0  0  0  0  0  0  0
   16.9980   -8.2866   16.1874 N   0  0  0  0  0  0  0  0  0  0  0  0
  1  2  1  0
  2  3  1  0
  3  4  2  0
  4  5  1  0
  5  6  1  0
  6  7  1  6
  6  8  1  0
  9  8  1  1
  9 10  1  0
 10 11  1  0
 11 12  1  0
 12 13  1  0
 13 14  2  0
 14 15  1  0
 15 16  2  0
 16 17  1  0
 17 18  2  0
 18 19  1  0
 12 20  1  0
  5 21  2  0
 21 22  1  0
 22 23  1  0
 22 24  2  0
 24 25  1  0
 25 26  2  0
 26  2  1  0
 25  4  1  0
 20  9  1  0
 18 13  1  0
M  END
>  <energy_score>  (975) 
-48.26273

>  <inchikey>  (975) 
None

>  <smiles>  (975) 
None

>  <ref_pdb>  (975) 
A1105b

>  <alias>  (975) 
None

>  <HIPPO Pose ID>  (975) 
498619

>  <name>  (975) 
P498619

>  <HIPPO Compound ID>  (975) 
293440

>  <ref_mols>  (975) 
A0497a,A1105b

>  <distance_score>  (975) 
1.200041

>  <inspiration_score>  (975) 
None

$$$$
P498620
     RDKit          3D

 26 29  0  0  0  0  0  0  0  0999 V2000
   16.1532   -7.7346   18.4251 C   0  0  0  0  0  0  0  0  0  0  0  0
   17.2106   -7.7262   17.4437 N   0  0  0  0  0  0  0  0  0  0  0  0
   18.5252   -7.4178   17.6582 C   0  0  0  0  0  0  0  0  0  0  0  0
   19.1303   -7.5691   16.4373 C   0  0  0  0  0  0  0  0  0  0  0  0
   20.4916   -7.4054   16.1331 C   0  0  0  0  0  0  0  0  0  0  0  0
   21.6464   -7.1306   17.0539 C   0  0  1  0  0  0  0  0  0  0  0  0
   22.5902   -8.1685   16.8961 O   0  0  0  0  0  0  0  0  0  0  0  0
   22.3648   -5.9038   16.7490 N   0  0  0  0  0  0  0  0  0  0  0  0
   21.6568   -4.7451   17.2836 C   0  0  2  0  0  0  0  0  0  0  0  0
   22.1635   -3.4198   16.7293 C   0  0  0  0  0  0  0  0  0  0  0  0
   21.6175   -2.3921   17.7255 C   0  0  0  0  0  0  0  0  0  0  0  0
   21.3891   -3.1271   18.9791 N   0  0  0  0  0  0  0  0  0  0  0  0
   20.1048   -3.1938   19.5277 C   0  0  0  0  0  0  0  0  0  0  0  0
   20.0912   -3.4510   20.8594 N   0  0  0  0  0  0  0  0  0  0  0  0
   18.9100   -3.6262   21.4735 C   0  0  0  0  0  0  0  0  0  0  0  0
   17.7020   -3.5844   20.8134 C   0  0  0  0  0  0  0  0  0  0  0  0
   17.6936   -3.3530   19.4462 C   0  0  0  0  0  0  0  0  0  0  0  0
   18.9047   -3.1460   18.8021 C   0  0  0  0  0  0  0  0  0  0  0  0
   18.8841   -2.9516   17.4783 F   0  0  0  0  0  0  0  0  0  0  0  0
   21.8647   -4.5080   18.7884 C   0  0  0  0  0  0  0  0  0  0  0  0
   20.7042   -7.6195   14.7402 C   0  0  0  0  0  0  0  0  0  0  0  0
   19.6889   -7.9858   13.8111 C   0  0  0  0  0  0  0  0  0  0  0  0
   20.1820   -8.2331   11.9926 Br  0  0  0  0  0  0  0  0  0  0  0  0
   18.3468   -8.1950   14.1620 C   0  0  0  0  0  0  0  0  0  0  0  0
   18.0835   -7.9642   15.5186 C   0  0  0  0  0  0  0  0  0  0  0  0
   16.9207   -8.0802   16.1798 N   0  0  0  0  0  0  0  0  0  0  0  0
  1  2  1  0
  2  3  1  0
  3  4  2  0
  4  5  1  0
  5  6  1  0
  6  7  1  6
  6  8  1  0
  9  8  1  6
  9 10  1  0
 10 11  1  0
 11 12  1  0
 12 13  1  0
 13 14  2  0
 14 15  1  0
 15 16  2  0
 16 17  1  0
 17 18  2  0
 18 19  1  0
 12 20  1  0
  5 21  2  0
 21 22  1  0
 22 23  1  0
 22 24  2  0
 24 25  1  0
 25 26  2  0
 26  2  1  0
 25  4  1  0
 20  9  1  0
 18 13  1  0
M  END
>  <energy_score>  (976) 
-42.389906

>  <inchikey>  (976) 
None

>  <smiles>  (976) 
None

>  <ref_pdb>  (976) 
A1105b

>  <alias>  (976) 
None

>  <HIPPO Pose ID>  (976) 
498620

>  <name>  (976) 
P498620

>  <HIPPO Compound ID>  (976) 
293440

>  <ref_mols>  (976) 
A0497a,A1105b

>  <distance_score>  (976) 
1.800648

>  <inspiration_score>  (976) 
None

$$$$
P498621
     RDKit          3D

 26 29  0  0  0  0  0  0  0  0999 V2000
   15.5046   -7.7338   18.0605 C   0  0  0  0  0  0  0  0  0  0  0  0
   16.7423   -7.7498   17.3165 N   0  0  0  0  0  0  0  0  0  0  0  0
   17.9693   -7.3610   17.7743 C   0  0  0  0  0  0  0  0  0  0  0  0
   18.8076   -7.4962   16.6988 C   0  0  0  0  0  0  0  0  0  0  0  0
   20.1814   -7.2174   16.6707 C   0  0  0  0  0  0  0  0  0  0  0  0
   21.0449   -6.8076   17.8339 C   0  0  1  0  0  0  0  0  0  0  0  0
   21.3234   -7.9607   18.6144 O   0  0  0  0  0  0  0  0  0  0  0  0
   22.3485   -6.2890   17.4528 N   0  0  0  0  0  0  0  0  0  0  0  0
   22.4132   -4.8226   17.3550 C   0  0  1  0  0  0  0  0  0  0  0  0
   21.4115   -4.1720   16.3918 C   0  0  0  0  0  0  0  0  0  0  0  0
   21.2298   -2.7856   16.9782 C   0  0  0  0  0  0  0  0  0  0  0  0
   21.2232   -3.0241   18.4224 N   0  0  0  0  0  0  0  0  0  0  0  0
   20.0430   -3.2630   19.1303 C   0  0  0  0  0  0  0  0  0  0  0  0
   20.2052   -3.6467   20.4265 N   0  0  0  0  0  0  0  0  0  0  0  0
   19.1236   -3.8561   21.2016 C   0  0  0  0  0  0  0  0  0  0  0  0
   17.8311   -3.7149   20.7534 C   0  0  0  0  0  0  0  0  0  0  0  0
   17.6362   -3.3519   19.4309 C   0  0  0  0  0  0  0  0  0  0  0  0
   18.7444   -3.1055   18.6260 C   0  0  0  0  0  0  0  0  0  0  0  0
   18.5032   -2.7045   17.3742 F   0  0  0  0  0  0  0  0  0  0  0  0
   22.2636   -4.0346   18.6907 C   0  0  0  0  0  0  0  0  0  0  0  0
   20.6873   -7.4467   15.3581 C   0  0  0  0  0  0  0  0  0  0  0  0
   19.9050   -7.9011   14.2537 C   0  0  0  0  0  0  0  0  0  0  0  0
   20.7681   -8.1224   12.5748 Br  0  0  0  0  0  0  0  0  0  0  0  0
   18.5376   -8.2111   14.3367 C   0  0  0  0  0  0  0  0  0  0  0  0
   17.9959   -7.9881   15.6101 C   0  0  0  0  0  0  0  0  0  0  0  0
   16.7411   -8.1931   16.0441 N   0  0  0  0  0  0  0  0  0  0  0  0
  1  2  1  0
  2  3  1  0
  3  4  2  0
  4  5  1  0
  5  6  1  0
  6  7  1  1
  6  8  1  0
  9  8  1  1
  9 10  1  0
 10 11  1  0
 11 12  1  0
 12 13  1  0
 13 14  2  0
 14 15  1  0
 15 16  2  0
 16 17  1  0
 17 18  2  0
 18 19  1  0
 12 20  1  0
  5 21  2  0
 21 22  1  0
 22 23  1  0
 22 24  2  0
 24 25  1  0
 25 26  2  0
 26  2  1  0
 25  4  1  0
 20  9  1  0
 18 13  1  0
M  END
>  <energy_score>  (977) 
-47.040206

>  <inchikey>  (977) 
None

>  <smiles>  (977) 
None

>  <ref_pdb>  (977) 
A1105b

>  <alias>  (977) 
None

>  <HIPPO Pose ID>  (977) 
498621

>  <name>  (977) 
P498621

>  <HIPPO Compound ID>  (977) 
293440

>  <ref_mols>  (977) 
A0497a,A1105b

>  <distance_score>  (977) 
1.002915

>  <inspiration_score>  (977) 
None

$$$$
P498622
     RDKit          3D

 26 29  0  0  0  0  0  0  0  0999 V2000
   19.5675   -9.2233   17.2036 C   0  0  0  0  0  0  0  0  0  0  0  0
   20.0175   -7.8087   16.9839 C   0  0  0  0  0  0  0  0  0  0  0  0
   19.9660   -7.2714   15.7121 C   0  0  0  0  0  0  0  0  0  0  0  0
   20.6204   -6.0731   15.4891 C   0  0  0  0  0  0  0  0  0  0  0  0
   21.2626   -5.4292   16.5427 C   0  0  0  0  0  0  0  0  0  0  0  0
   21.1847   -5.9503   17.8321 C   0  0  0  0  0  0  0  0  0  0  0  0
   21.6809   -5.2356   18.9478 N   0  0  0  0  0  0  0  0  0  0  0  0
   21.3446   -3.7852   18.9696 C   0  0  0  0  0  0  0  0  0  0  0  0
   20.4317   -3.5763   20.1890 C   0  0  0  0  0  0  0  0  0  0  0  0
   19.9302   -4.9757   20.5561 C   0  0  1  0  0  0  0  0  0  0  0  0
   18.8072   -5.5739   19.8105 N   0  0  0  0  0  0  0  0  0  0  0  0
   17.9534   -4.6911   19.0675 C   0  0  1  0  0  0  0  0  0  0  0  0
   18.6438   -3.9704   18.0693 O   0  0  0  0  0  0  0  0  0  0  0  0
   16.8001   -5.4104   18.4024 C   0  0  0  0  0  0  0  0  0  0  0  0
   15.8592   -4.5399   17.8619 C   0  0  0  0  0  0  0  0  0  0  0  0
   14.6762   -5.0090   17.3460 C   0  0  0  0  0  0  0  0  0  0  0  0
   13.6005   -3.6993   16.6538 Br  0  0  0  0  0  0  0  0  0  0  0  0
   14.3339   -6.3493   17.2900 C   0  0  0  0  0  0  0  0  0  0  0  0
   15.2735   -7.2272   17.8249 C   0  0  0  0  0  0  0  0  0  0  0  0
   16.4841   -6.7949   18.3744 C   0  0  0  0  0  0  0  0  0  0  0  0
   17.0515   -7.9838   18.8864 C   0  0  0  0  0  0  0  0  0  0  0  0
   16.3269   -9.0773   18.6357 N   0  0  0  0  0  0  0  0  0  0  0  0
   15.2400   -8.5856   18.0169 N   0  0  0  0  0  0  0  0  0  0  0  0
   14.1492   -9.4700   17.6850 C   0  0  0  0  0  0  0  0  0  0  0  0
   21.2325   -5.7779   20.2542 C   0  0  0  0  0  0  0  0  0  0  0  0
   20.5907   -7.1567   18.0290 N   0  0  0  0  0  0  0  0  0  0  0  0
  1  2  1  0
  2  3  2  0
  3  4  1  0
  4  5  2  0
  5  6  1  0
  6  7  1  0
  7  8  1  0
  8  9  1  0
  9 10  1  0
 10 11  1  6
 11 12  1  0
 12 13  1  6
 12 14  1  0
 14 15  2  0
 15 16  1  0
 16 17  1  0
 16 18  2  0
 18 19  1  0
 19 20  2  0
 20 21  1  0
 21 22  2  0
 22 23  1  0
 23 24  1  0
 10 25  1  0
  6 26  2  0
 26  2  1  0
 25  7  1  0
 20 14  1  0
 23 19  1  0
M  END
>  <energy_score>  (978) 
-23.555128

>  <inchikey>  (978) 
None

>  <smiles>  (978) 
None

>  <ref_pdb>  (978) 
A1105b

>  <alias>  (978) 
None

>  <HIPPO Pose ID>  (978) 
498622

>  <name>  (978) 
P498622

>  <HIPPO Compound ID>  (978) 
293441

>  <ref_mols>  (978) 
A0497a,A1105b

>  <distance_score>  (978) 
1.783775

>  <inspiration_score>  (978) 
None

$$$$
P498623
     RDKit          3D

 26 29  0  0  0  0  0  0  0  0999 V2000
   19.8251   -9.5474   17.0810 C   0  0  0  0  0  0  0  0  0  0  0  0
   20.2097   -8.1082   16.9018 C   0  0  0  0  0  0  0  0  0  0  0  0
   20.1621   -7.5372   15.6439 C   0  0  0  0  0  0  0  0  0  0  0  0
   20.7059   -6.2754   15.4838 C   0  0  0  0  0  0  0  0  0  0  0  0
   21.2183   -5.6015   16.5885 C   0  0  0  0  0  0  0  0  0  0  0  0
   21.1137   -6.1638   17.8606 C   0  0  0  0  0  0  0  0  0  0  0  0
   21.3279   -5.4183   19.0276 N   0  0  0  0  0  0  0  0  0  0  0  0
   21.2213   -3.9437   18.9800 C   0  0  0  0  0  0  0  0  0  0  0  0
   20.4346   -3.5338   20.2274 C   0  0  0  0  0  0  0  0  0  0  0  0
   19.6245   -4.7693   20.6120 C   0  0  1  0  0  0  0  0  0  0  0  0
   18.2516   -4.8236   20.0681 N   0  0  0  0  0  0  0  0  0  0  0  0
   18.1632   -5.0076   18.6335 C   0  0  2  0  0  0  0  0  0  0  0  0
   18.4174   -3.7680   17.9977 O   0  0  0  0  0  0  0  0  0  0  0  0
   16.8148   -5.5218   18.2230 C   0  0  0  0  0  0  0  0  0  0  0  0
   15.8412   -4.5967   17.8785 C   0  0  0  0  0  0  0  0  0  0  0  0
   14.6204   -5.0202   17.4085 C   0  0  0  0  0  0  0  0  0  0  0  0
   13.5799   -3.6738   16.7363 Br  0  0  0  0  0  0  0  0  0  0  0  0
   14.2374   -6.3495   17.3092 C   0  0  0  0  0  0  0  0  0  0  0  0
   15.1904   -7.2718   17.7262 C   0  0  0  0  0  0  0  0  0  0  0  0
   16.4549   -6.8899   18.1701 C   0  0  0  0  0  0  0  0  0  0  0  0
   17.0772   -8.1088   18.5074 C   0  0  0  0  0  0  0  0  0  0  0  0
   16.3172   -9.1779   18.2546 N   0  0  0  0  0  0  0  0  0  0  0  0
   15.1604   -8.6380   17.8306 N   0  0  0  0  0  0  0  0  0  0  0  0
   14.0322   -9.4922   17.5502 C   0  0  0  0  0  0  0  0  0  0  0  0
   20.6058   -5.9075   20.2237 C   0  0  0  0  0  0  0  0  0  0  0  0
   20.6820   -7.4445   17.9863 N   0  0  0  0  0  0  0  0  0  0  0  0
  1  2  1  0
  2  3  2  0
  3  4  1  0
  4  5  2  0
  5  6  1  0
  6  7  1  0
  7  8  1  0
  8  9  1  0
  9 10  1  0
 10 11  1  6
 11 12  1  0
 12 13  1  6
 12 14  1  0
 14 15  2  0
 15 16  1  0
 16 17  1  0
 16 18  2  0
 18 19  1  0
 19 20  2  0
 20 21  1  0
 21 22  2  0
 22 23  1  0
 23 24  1  0
 10 25  1  0
  6 26  2  0
 26  2  1  0
 25  7  1  0
 20 14  1  0
 23 19  1  0
M  END
>  <energy_score>  (979) 
-24.480124

>  <inchikey>  (979) 
None

>  <smiles>  (979) 
None

>  <ref_pdb>  (979) 
A1105b

>  <alias>  (979) 
None

>  <HIPPO Pose ID>  (979) 
498623

>  <name>  (979) 
P498623

>  <HIPPO Compound ID>  (979) 
293441

>  <ref_mols>  (979) 
A0497a,A1105b

>  <distance_score>  (979) 
1.588537

>  <inspiration_score>  (979) 
None

$$$$
P498624
     RDKit          3D

 26 29  0  0  0  0  0  0  0  0999 V2000
   18.9759   -8.3970   16.9874 C   0  0  0  0  0  0  0  0  0  0  0  0
   19.8372   -7.1919   16.8545 C   0  0  0  0  0  0  0  0  0  0  0  0
   20.0670   -6.6551   15.6039 C   0  0  0  0  0  0  0  0  0  0  0  0
   20.9547   -5.5995   15.5060 C   0  0  0  0  0  0  0  0  0  0  0  0
   21.5390   -5.0853   16.6587 C   0  0  0  0  0  0  0  0  0  0  0  0
   21.2081   -5.6127   17.9046 C   0  0  0  0  0  0  0  0  0  0  0  0
   21.6610   -4.9875   19.0928 N   0  0  0  0  0  0  0  0  0  0  0  0
   21.2412   -3.5606   19.1710 C   0  0  0  0  0  0  0  0  0  0  0  0
   20.2765   -3.4607   20.3629 C   0  0  0  0  0  0  0  0  0  0  0  0
   19.8333   -4.8984   20.6522 C   0  0  1  0  0  0  0  0  0  0  0  0
   18.7332   -5.5147   19.8851 N   0  0  0  0  0  0  0  0  0  0  0  0
   17.8787   -4.6368   19.1361 C   0  0  1  0  0  0  0  0  0  0  0  0
   18.5819   -3.8955   18.1629 O   0  0  0  0  0  0  0  0  0  0  0  0
   16.7429   -5.3598   18.4371 C   0  0  0  0  0  0  0  0  0  0  0  0
   15.8431   -4.4884   17.8339 C   0  0  0  0  0  0  0  0  0  0  0  0
   14.6601   -4.9442   17.3057 C   0  0  0  0  0  0  0  0  0  0  0  0
   13.6198   -3.6306   16.5735 Br  0  0  0  0  0  0  0  0  0  0  0  0
   14.2857   -6.2752   17.2709 C   0  0  0  0  0  0  0  0  0  0  0  0
   15.1744   -7.1545   17.8785 C   0  0  0  0  0  0  0  0  0  0  0  0
   16.3684   -6.7317   18.4719 C   0  0  0  0  0  0  0  0  0  0  0  0
   16.8385   -7.9034   19.1113 C   0  0  0  0  0  0  0  0  0  0  0  0
   16.1113   -8.9905   18.8400 N   0  0  0  0  0  0  0  0  0  0  0  0
   15.0836   -8.4996   18.1300 N   0  0  0  0  0  0  0  0  0  0  0  0
   13.9838   -9.3654   17.7800 C   0  0  0  0  0  0  0  0  0  0  0  0
   21.1713   -5.6314   20.3352 C   0  0  0  0  0  0  0  0  0  0  0  0
   20.3979   -6.6955   17.9838 N   0  0  0  0  0  0  0  0  0  0  0  0
  1  2  1  0
  2  3  2  0
  3  4  1  0
  4  5  2  0
  5  6  1  0
  6  7  1  0
  7  8  1  0
  8  9  1  0
  9 10  1  0
 10 11  1  6
 11 12  1  0
 12 13  1  6
 12 14  1  0
 14 15  2  0
 15 16  1  0
 16 17  1  0
 16 18  2  0
 18 19  1  0
 19 20  2  0
 20 21  1  0
 21 22  2  0
 22 23  1  0
 23 24  1  0
 10 25  1  0
  6 26  2  0
 26  2  1  0
 25  7  1  0
 20 14  1  0
 23 19  1  0
M  END
>  <energy_score>  (980) 
-51.086384

>  <inchikey>  (980) 
None

>  <smiles>  (980) 
None

>  <ref_pdb>  (980) 
A1105b

>  <alias>  (980) 
None

>  <HIPPO Pose ID>  (980) 
498624

>  <name>  (980) 
P498624

>  <HIPPO Compound ID>  (980) 
293441

>  <ref_mols>  (980) 
A0497a,A1105b

>  <distance_score>  (980) 
1.894176

>  <inspiration_score>  (980) 
None

$$$$
P498625
     RDKit          3D

 26 29  0  0  0  0  0  0  0  0999 V2000
   18.4962   -8.4560   19.5767 C   0  0  0  0  0  0  0  0  0  0  0  0
   19.7106   -7.7964   19.0122 C   0  0  0  0  0  0  0  0  0  0  0  0
   20.3459   -8.2379   17.8649 C   0  0  0  0  0  0  0  0  0  0  0  0
   21.3790   -7.4662   17.3453 C   0  0  0  0  0  0  0  0  0  0  0  0
   21.7609   -6.2977   18.0011 C   0  0  0  0  0  0  0  0  0  0  0  0
   21.1064   -5.9208   19.1737 C   0  0  0  0  0  0  0  0  0  0  0  0
   21.3951   -4.7075   19.8428 N   0  0  0  0  0  0  0  0  0  0  0  0
   21.3497   -3.5254   18.9449 C   0  0  0  0  0  0  0  0  0  0  0  0
   20.1681   -2.6720   19.4209 C   0  0  0  0  0  0  0  0  0  0  0  0
   19.2930   -3.6184   20.2424 C   0  0  1  0  0  0  0  0  0  0  0  0
   18.3433   -4.5073   19.5458 N   0  0  0  0  0  0  0  0  0  0  0  0
   18.0075   -4.1829   18.1723 C   0  0  1  0  0  0  0  0  0  0  0  0
   19.0669   -4.3792   17.2819 O   0  0  0  0  0  0  0  0  0  0  0  0
   16.8381   -5.0296   17.7435 C   0  0  0  0  0  0  0  0  0  0  0  0
   15.6147   -4.4268   17.9334 C   0  0  0  0  0  0  0  0  0  0  0  0
   14.4618   -5.1357   17.7166 C   0  0  0  0  0  0  0  0  0  0  0  0
   12.9633   -4.1730   18.0307 Br  0  0  0  0  0  0  0  0  0  0  0  0
   14.3891   -6.4707   17.3657 C   0  0  0  0  0  0  0  0  0  0  0  0
   15.6146   -7.0555   17.1151 C   0  0  0  0  0  0  0  0  0  0  0  0
   16.8125   -6.3456   17.2161 C   0  0  0  0  0  0  0  0  0  0  0  0
   17.7294   -7.2126   16.5965 C   0  0  0  0  0  0  0  0  0  0  0  0
   17.2333   -8.4250   16.3220 N   0  0  0  0  0  0  0  0  0  0  0  0
   15.9540   -8.3183   16.7086 N   0  0  0  0  0  0  0  0  0  0  0  0
   15.0713   -9.4494   16.5601 C   0  0  0  0  0  0  0  0  0  0  0  0
   20.4297   -4.4221   20.9381 C   0  0  0  0  0  0  0  0  0  0  0  0
   20.1214   -6.6995   19.6780 N   0  0  0  0  0  0  0  0  0  0  0  0
  1  2  1  0
  2  3  2  0
  3  4  1  0
  4  5  2  0
  5  6  1  0
  6  7  1  0
  7  8  1  0
  8  9  1  0
  9 10  1  0
 10 11  1  6
 11 12  1  0
 12 13  1  6
 12 14  1  0
 14 15  2  0
 15 16  1  0
 16 17  1  0
 16 18  2  0
 18 19  1  0
 19 20  2  0
 20 21  1  0
 21 22  2  0
 22 23  1  0
 23 24  1  0
 10 25  1  0
  6 26  2  0
 26  2  1  0
 25  7  1  0
 20 14  1  0
 23 19  1  0
M  END
>  <energy_score>  (981) 
-17.159992

>  <inchikey>  (981) 
None

>  <smiles>  (981) 
None

>  <ref_pdb>  (981) 
A1105b

>  <alias>  (981) 
None

>  <HIPPO Pose ID>  (981) 
498625

>  <name>  (981) 
P498625

>  <HIPPO Compound ID>  (981) 
293441

>  <ref_mols>  (981) 
A0497a,A1105b

>  <distance_score>  (981) 
1.753935

>  <inspiration_score>  (981) 
None

$$$$
P498626
     RDKit          3D

 26 29  0  0  0  0  0  0  0  0999 V2000
   15.7614   -8.2649   18.0118 C   0  0  0  0  0  0  0  0  0  0  0  0
   16.9781   -8.0793   17.2558 N   0  0  0  0  0  0  0  0  0  0  0  0
   18.1895   -7.6819   17.7451 C   0  0  0  0  0  0  0  0  0  0  0  0
   19.0155   -7.5535   16.6610 C   0  0  0  0  0  0  0  0  0  0  0  0
   20.3593   -7.1266   16.6309 C   0  0  0  0  0  0  0  0  0  0  0  0
   21.3143   -6.6418   17.7105 C   0  0  2  0  0  0  0  0  0  0  0  0
   22.6230   -7.0395   17.3412 O   0  0  0  0  0  0  0  0  0  0  0  0
   21.0831   -7.1827   19.0398 N   0  0  0  0  0  0  0  0  0  0  0  0
   22.0727   -6.7248   20.0533 C   0  0  2  0  0  0  0  0  0  0  0  0
   21.5712   -7.1333   21.4568 C   0  0  0  0  0  0  0  0  0  0  0  0
   21.1077   -5.8371   22.1411 C   0  0  0  0  0  0  0  0  0  0  0  0
   21.1517   -4.8012   21.1150 N   0  0  0  0  0  0  0  0  0  0  0  0
   20.0838   -4.3172   20.3693 C   0  0  0  0  0  0  0  0  0  0  0  0
   20.4270   -3.2559   19.5949 N   0  0  0  0  0  0  0  0  0  0  0  0
   19.5988   -2.8252   18.6214 C   0  0  0  0  0  0  0  0  0  0  0  0
   18.3719   -3.3830   18.3701 C   0  0  0  0  0  0  0  0  0  0  0  0
   17.9642   -4.4103   19.2026 C   0  0  0  0  0  0  0  0  0  0  0  0
   18.7997   -4.8683   20.2360 C   0  0  0  0  0  0  0  0  0  0  0  0
   18.2126   -6.1983   21.1681 Cl  0  0  0  0  0  0  0  0  0  0  0  0
   22.2686   -5.1957   20.2258 C   0  0  0  0  0  0  0  0  0  0  0  0
   20.7974   -7.1112   15.2673 C   0  0  0  0  0  0  0  0  0  0  0  0
   20.0364   -7.5447   14.1465 C   0  0  0  0  0  0  0  0  0  0  0  0
   20.6144   -7.4889   12.9357 F   0  0  0  0  0  0  0  0  0  0  0  0
   18.7268   -8.0221   14.2268 C   0  0  0  0  0  0  0  0  0  0  0  0
   18.2105   -7.9882   15.5262 C   0  0  0  0  0  0  0  0  0  0  0  0
   16.9788   -8.3366   15.9380 N   0  0  0  0  0  0  0  0  0  0  0  0
  1  2  1  0
  2  3  1  0
  3  4  2  0
  4  5  1  0
  5  6  1  0
  6  7  1  6
  6  8  1  0
  9  8  1  6
  9 10  1  0
 10 11  1  0
 11 12  1  0
 12 13  1  0
 13 14  2  0
 14 15  1  0
 15 16  2  0
 16 17  1  0
 17 18  2  0
 18 19  1  0
 12 20  1  0
  5 21  2  0
 21 22  1  0
 22 23  1  0
 22 24  2  0
 24 25  1  0
 25 26  2  0
 26  2  1  0
 25  4  1  0
 20  9  1  0
 18 13  1  0
M  END
>  <energy_score>  (982) 
-39.808898

>  <inchikey>  (982) 
None

>  <smiles>  (982) 
None

>  <ref_pdb>  (982) 
A1105b

>  <alias>  (982) 
None

>  <HIPPO Pose ID>  (982) 
498626

>  <name>  (982) 
P498626

>  <HIPPO Compound ID>  (982) 
293442

>  <ref_mols>  (982) 
A0497a,A1105b

>  <distance_score>  (982) 
0.961311

>  <inspiration_score>  (982) 
None

$$$$
P498627
     RDKit          3D

 26 29  0  0  0  0  0  0  0  0999 V2000
   15.5260   -8.9672   17.4991 C   0  0  0  0  0  0  0  0  0  0  0  0
   16.8029   -8.7541   16.8601 N   0  0  0  0  0  0  0  0  0  0  0  0
   18.0237   -8.7027   17.4701 C   0  0  0  0  0  0  0  0  0  0  0  0
   18.8959   -8.3183   16.4858 C   0  0  0  0  0  0  0  0  0  0  0  0
   20.2645   -8.0477   16.6390 C   0  0  0  0  0  0  0  0  0  0  0  0
   21.0647   -8.1695   17.9043 C   0  0  1  0  0  0  0  0  0  0  0  0
   22.4315   -8.3453   17.6096 O   0  0  0  0  0  0  0  0  0  0  0  0
   20.9582   -6.9761   18.7019 N   0  0  0  0  0  0  0  0  0  0  0  0
   21.2288   -7.1737   20.1381 C   0  0  2  0  0  0  0  0  0  0  0  0
   20.1683   -7.9862   20.8928 C   0  0  0  0  0  0  0  0  0  0  0  0
   18.9998   -7.0138   21.0839 C   0  0  0  0  0  0  0  0  0  0  0  0
   19.6070   -5.6943   21.0150 N   0  0  0  0  0  0  0  0  0  0  0  0
   19.0955   -4.5459   20.4582 C   0  0  0  0  0  0  0  0  0  0  0  0
   19.6231   -3.4183   21.0013 N   0  0  0  0  0  0  0  0  0  0  0  0
   19.2588   -2.2163   20.5158 C   0  0  0  0  0  0  0  0  0  0  0  0
   18.3565   -2.0462   19.4936 C   0  0  0  0  0  0  0  0  0  0  0  0
   17.8078   -3.1785   18.9253 C   0  0  0  0  0  0  0  0  0  0  0  0
   18.1830   -4.4375   19.3950 C   0  0  0  0  0  0  0  0  0  0  0  0
   17.5454   -5.7333   18.4714 Cl  0  0  0  0  0  0  0  0  0  0  0  0
   21.0683   -5.8148   20.8561 C   0  0  0  0  0  0  0  0  0  0  0  0
   20.8139   -7.6454   15.3916 C   0  0  0  0  0  0  0  0  0  0  0  0
   20.0887   -7.6227   14.1667 C   0  0  0  0  0  0  0  0  0  0  0  0
   20.7501   -7.2662   13.0535 F   0  0  0  0  0  0  0  0  0  0  0  0
   18.7358   -7.9693   14.0425 C   0  0  0  0  0  0  0  0  0  0  0  0
   18.1309   -8.2834   15.2632 C   0  0  0  0  0  0  0  0  0  0  0  0
   16.8535   -8.6127   15.5224 N   0  0  0  0  0  0  0  0  0  0  0  0
  1  2  1  0
  2  3  1  0
  3  4  2  0
  4  5  1  0
  5  6  1  0
  6  7  1  6
  6  8  1  0
  9  8  1  6
  9 10  1  0
 10 11  1  0
 11 12  1  0
 12 13  1  0
 13 14  2  0
 14 15  1  0
 15 16  2  0
 16 17  1  0
 17 18  2  0
 18 19  1  0
 12 20  1  0
  5 21  2  0
 21 22  1  0
 22 23  1  0
 22 24  2  0
 24 25  1  0
 25 26  2  0
 26  2  1  0
 25  4  1  0
 20  9  1  0
 18 13  1  0
M  END
>  <energy_score>  (983) 
-42.923216

>  <inchikey>  (983) 
None

>  <smiles>  (983) 
None

>  <ref_pdb>  (983) 
A1105b

>  <alias>  (983) 
None

>  <HIPPO Pose ID>  (983) 
498627

>  <name>  (983) 
P498627

>  <HIPPO Compound ID>  (983) 
293442

>  <ref_mols>  (983) 
A0497a,A1105b

>  <distance_score>  (983) 
1.5009

>  <inspiration_score>  (983) 
None

$$$$
P498628
     RDKit          3D

 26 29  0  0  0  0  0  0  0  0999 V2000
   15.2360   -7.9719   17.6650 C   0  0  0  0  0  0  0  0  0  0  0  0
   16.5938   -7.8679   17.1831 N   0  0  0  0  0  0  0  0  0  0  0  0
   17.6963   -7.5641   17.9269 C   0  0  0  0  0  0  0  0  0  0  0  0
   18.7288   -7.5061   17.0273 C   0  0  0  0  0  0  0  0  0  0  0  0
   20.0750   -7.2362   17.3204 C   0  0  0  0  0  0  0  0  0  0  0  0
   20.6824   -7.1764   18.6928 C   0  0  1  0  0  0  0  0  0  0  0  0
   21.2449   -8.4463   18.9502 O   0  0  0  0  0  0  0  0  0  0  0  0
   21.7300   -6.1890   18.8639 N   0  0  0  0  0  0  0  0  0  0  0  0
   22.1445   -6.0599   20.2850 C   0  0  1  0  0  0  0  0  0  0  0  0
   23.1192   -4.8883   20.4336 C   0  0  0  0  0  0  0  0  0  0  0  0
   22.2489   -3.6641   20.7505 C   0  0  0  0  0  0  0  0  0  0  0  0
   20.9099   -4.1763   21.1308 N   0  0  0  0  0  0  0  0  0  0  0  0
   19.9028   -3.8956   20.1750 C   0  0  0  0  0  0  0  0  0  0  0  0
   20.2947   -3.6694   18.8983 N   0  0  0  0  0  0  0  0  0  0  0  0
   19.3608   -3.4384   17.9502 C   0  0  0  0  0  0  0  0  0  0  0  0
   18.0103   -3.4208   18.2039 C   0  0  0  0  0  0  0  0  0  0  0  0
   17.5979   -3.6329   19.5094 C   0  0  0  0  0  0  0  0  0  0  0  0
   18.5405   -3.8961   20.5072 C   0  0  0  0  0  0  0  0  0  0  0  0
   17.9953   -4.1841   22.1199 Cl  0  0  0  0  0  0  0  0  0  0  0  0
   21.0574   -5.6349   21.3072 C   0  0  0  0  0  0  0  0  0  0  0  0
   20.8276   -7.2013   16.1147 C   0  0  0  0  0  0  0  0  0  0  0  0
   20.2857   -7.4638   14.8211 C   0  0  0  0  0  0  0  0  0  0  0  0
   21.1238   -7.4200   13.7728 F   0  0  0  0  0  0  0  0  0  0  0  0
   18.9468   -7.8045   14.5769 C   0  0  0  0  0  0  0  0  0  0  0  0
   18.1586   -7.8048   15.7344 C   0  0  0  0  0  0  0  0  0  0  0  0
   16.8522   -8.0902   15.8794 N   0  0  0  0  0  0  0  0  0  0  0  0
  1  2  1  0
  2  3  1  0
  3  4  2  0
  4  5  1  0
  5  6  1  0
  6  7  1  6
  6  8  1  0
  9  8  1  6
  9 10  1  0
 10 11  1  0
 11 12  1  0
 12 13  1  0
 13 14  2  0
 14 15  1  0
 15 16  2  0
 16 17  1  0
 17 18  2  0
 18 19  1  0
 12 20  1  0
  5 21  2  0
 21 22  1  0
 22 23  1  0
 22 24  2  0
 24 25  1  0
 25 26  2  0
 26  2  1  0
 25  4  1  0
 20  9  1  0
 18 13  1  0
M  END
>  <energy_score>  (984) 
-68.01417

>  <inchikey>  (984) 
None

>  <smiles>  (984) 
None

>  <ref_pdb>  (984) 
A1105b

>  <alias>  (984) 
None

>  <HIPPO Pose ID>  (984) 
498628

>  <name>  (984) 
P498628

>  <HIPPO Compound ID>  (984) 
293442

>  <ref_mols>  (984) 
A0497a,A1105b

>  <distance_score>  (984) 
1.134043

>  <inspiration_score>  (984) 
None

$$$$
P498629
     RDKit          3D

 26 29  0  0  0  0  0  0  0  0999 V2000
   18.0521   -8.7365   19.3272 C   0  0  0  0  0  0  0  0  0  0  0  0
   19.1913   -7.9960   18.7168 C   0  0  0  0  0  0  0  0  0  0  0  0
   19.8946   -8.4289   17.6056 C   0  0  0  0  0  0  0  0  0  0  0  0
   20.8780   -7.5952   17.0791 C   0  0  0  0  0  0  0  0  0  0  0  0
   21.1639   -6.3866   17.7097 C   0  0  0  0  0  0  0  0  0  0  0  0
   20.4617   -6.0373   18.8604 C   0  0  0  0  0  0  0  0  0  0  0  0
   20.7129   -4.8505   19.5559 N   0  0  0  0  0  0  0  0  0  0  0  0
   20.7462   -3.6177   18.7408 C   0  0  0  0  0  0  0  0  0  0  0  0
   19.8904   -2.6059   19.5051 C   0  0  0  0  0  0  0  0  0  0  0  0
   18.8943   -3.4568   20.2863 C   0  0  1  0  0  0  0  0  0  0  0  0
   17.6207   -3.8136   19.6344 N   0  0  0  0  0  0  0  0  0  0  0  0
   17.6548   -4.2332   18.2395 C   0  0  2  0  0  0  0  0  0  0  0  0
   17.8489   -3.0957   17.4334 O   0  0  0  0  0  0  0  0  0  0  0  0
   16.3567   -4.8780   17.8482 C   0  0  0  0  0  0  0  0  0  0  0  0
   15.1065   -4.2215   17.9693 C   0  0  0  0  0  0  0  0  0  0  0  0
   13.8587   -4.8386   17.6941 C   0  0  0  0  0  0  0  0  0  0  0  0
   12.7599   -4.1026   17.8832 F   0  0  0  0  0  0  0  0  0  0  0  0
   13.7042   -6.1656   17.2682 C   0  0  0  0  0  0  0  0  0  0  0  0
   14.9084   -6.8324   17.0935 C   0  0  0  0  0  0  0  0  0  0  0  0
   15.1263   -8.0715   16.6157 N   0  0  0  0  0  0  0  0  0  0  0  0
   16.4487   -8.0992   16.3808 N   0  0  0  0  0  0  0  0  0  0  0  0
   17.0000   -9.2079   15.6408 C   0  0  0  0  0  0  0  0  0  0  0  0
   17.0986   -6.9606   16.7508 C   0  0  0  0  0  0  0  0  0  0  0  0
   16.1568   -6.1714   17.3478 C   0  0  0  0  0  0  0  0  0  0  0  0
   19.8071   -4.6239   20.7043 C   0  0  0  0  0  0  0  0  0  0  0  0
   19.4854   -6.8433   19.3279 N   0  0  0  0  0  0  0  0  0  0  0  0
  1  2  1  0
  2  3  2  0
  3  4  1  0
  4  5  2  0
  5  6  1  0
  6  7  1  0
  7  8  1  0
  8  9  1  0
  9 10  1  0
 10 11  1  6
 11 12  1  0
 12 13  1  6
 12 14  1  0
 14 15  2  0
 15 16  1  0
 16 17  1  0
 16 18  2  0
 18 19  1  0
 19 20  2  0
 20 21  1  0
 21 22  1  0
 21 23  1  0
 23 24  2  0
 10 25  1  0
  6 26  2  0
 26  2  1  0
 25  7  1  0
 24 14  1  0
 24 19  1  0
M  END
>  <energy_score>  (985) 
-30.643247

>  <inchikey>  (985) 
None

>  <smiles>  (985) 
None

>  <ref_pdb>  (985) 
A1105b

>  <alias>  (985) 
None

>  <HIPPO Pose ID>  (985) 
498629

>  <name>  (985) 
P498629

>  <HIPPO Compound ID>  (985) 
293443

>  <ref_mols>  (985) 
A0497a,A1105b

>  <distance_score>  (985) 
1.861993

>  <inspiration_score>  (985) 
None

$$$$
P498630
     RDKit          3D

 26 29  0  0  0  0  0  0  0  0999 V2000
   17.8184   -8.6939   19.3615 C   0  0  0  0  0  0  0  0  0  0  0  0
   19.0261   -8.0823   18.7359 C   0  0  0  0  0  0  0  0  0  0  0  0
   19.7080   -8.6442   17.6695 C   0  0  0  0  0  0  0  0  0  0  0  0
   20.7704   -7.9389   17.1091 C   0  0  0  0  0  0  0  0  0  0  0  0
   21.1738   -6.7395   17.6842 C   0  0  0  0  0  0  0  0  0  0  0  0
   20.5009   -6.2746   18.8098 C   0  0  0  0  0  0  0  0  0  0  0  0
   20.9348   -5.1250   19.4918 N   0  0  0  0  0  0  0  0  0  0  0  0
   20.8770   -3.9113   18.6465 C   0  0  0  0  0  0  0  0  0  0  0  0
   20.0081   -2.9277   19.4260 C   0  0  0  0  0  0  0  0  0  0  0  0
   19.0972   -3.8171   20.2815 C   0  0  1  0  0  0  0  0  0  0  0  0
   17.9434   -4.5056   19.6608 N   0  0  0  0  0  0  0  0  0  0  0  0
   17.5123   -3.9971   18.3741 C   0  0  2  0  0  0  0  0  0  0  0  0
   17.2081   -2.6474   18.5849 O   0  0  0  0  0  0  0  0  0  0  0  0
   16.2784   -4.7189   17.9146 C   0  0  0  0  0  0  0  0  0  0  0  0
   14.9782   -4.1683   18.0238 C   0  0  0  0  0  0  0  0  0  0  0  0
   13.7844   -4.8716   17.7277 C   0  0  0  0  0  0  0  0  0  0  0  0
   12.6387   -4.2139   17.9224 F   0  0  0  0  0  0  0  0  0  0  0  0
   13.7281   -6.2025   17.2930 C   0  0  0  0  0  0  0  0  0  0  0  0
   14.9846   -6.7636   17.1110 C   0  0  0  0  0  0  0  0  0  0  0  0
   15.3048   -7.9712   16.6123 N   0  0  0  0  0  0  0  0  0  0  0  0
   16.6163   -7.8648   16.3358 N   0  0  0  0  0  0  0  0  0  0  0  0
   17.2175   -8.8456   15.4649 C   0  0  0  0  0  0  0  0  0  0  0  0
   17.1908   -6.7173   16.7988 C   0  0  0  0  0  0  0  0  0  0  0  0
   16.1799   -6.0133   17.3893 C   0  0  0  0  0  0  0  0  0  0  0  0
   20.1559   -4.8460   20.7256 C   0  0  0  0  0  0  0  0  0  0  0  0
   19.4138   -6.9230   19.2840 N   0  0  0  0  0  0  0  0  0  0  0  0
  1  2  1  0
  2  3  2  0
  3  4  1  0
  4  5  2  0
  5  6  1  0
  6  7  1  0
  7  8  1  0
  8  9  1  0
  9 10  1  0
 10 11  1  6
 11 12  1  0
 12 13  1  1
 12 14  1  0
 14 15  2  0
 15 16  1  0
 16 17  1  0
 16 18  2  0
 18 19  1  0
 19 20  2  0
 20 21  1  0
 21 22  1  0
 21 23  1  0
 23 24  2  0
 10 25  1  0
  6 26  2  0
 26  2  1  0
 25  7  1  0
 24 14  1  0
 24 19  1  0
M  END
>  <energy_score>  (986) 
-31.246342

>  <inchikey>  (986) 
None

>  <smiles>  (986) 
None

>  <ref_pdb>  (986) 
A1105b

>  <alias>  (986) 
None

>  <HIPPO Pose ID>  (986) 
498630

>  <name>  (986) 
P498630

>  <HIPPO Compound ID>  (986) 
293443

>  <ref_mols>  (986) 
A0497a,A1105b

>  <distance_score>  (986) 
1.921981

>  <inspiration_score>  (986) 
None

$$$$
P498631
     RDKit          3D

 26 29  0  0  0  0  0  0  0  0999 V2000
   19.2476   -9.1863   17.3420 C   0  0  0  0  0  0  0  0  0  0  0  0
   19.7693   -7.8059   17.0844 C   0  0  0  0  0  0  0  0  0  0  0  0
   19.8830   -7.3505   15.7846 C   0  0  0  0  0  0  0  0  0  0  0  0
   20.5754   -6.1730   15.5688 C   0  0  0  0  0  0  0  0  0  0  0  0
   21.0968   -5.4737   16.6526 C   0  0  0  0  0  0  0  0  0  0  0  0
   20.8600   -5.9177   17.9527 C   0  0  0  0  0  0  0  0  0  0  0  0
   21.2411   -5.1541   19.0772 N   0  0  0  0  0  0  0  0  0  0  0  0
   21.0028   -3.6907   18.9632 C   0  0  0  0  0  0  0  0  0  0  0  0
   20.0250   -3.3339   20.0901 C   0  0  0  0  0  0  0  0  0  0  0  0
   19.3565   -4.6589   20.4623 C   0  0  1  0  0  0  0  0  0  0  0  0
   18.2715   -5.1884   19.6151 N   0  0  0  0  0  0  0  0  0  0  0  0
   17.5103   -4.2440   18.8354 C   0  0  1  0  0  0  0  0  0  0  0  0
   18.3032   -3.6447   17.8348 O   0  0  0  0  0  0  0  0  0  0  0  0
   16.2913   -4.8423   18.1825 C   0  0  0  0  0  0  0  0  0  0  0  0
   15.2928   -3.9372   17.7459 C   0  0  0  0  0  0  0  0  0  0  0  0
   14.0851   -4.3140   17.1268 C   0  0  0  0  0  0  0  0  0  0  0  0
   13.3236   -3.3273   16.6551 F   0  0  0  0  0  0  0  0  0  0  0  0
   13.6921   -5.6325   16.9006 C   0  0  0  0  0  0  0  0  0  0  0  0
   14.6257   -6.5752   17.3282 C   0  0  0  0  0  0  0  0  0  0  0  0
   14.5630   -7.9151   17.2497 N   0  0  0  0  0  0  0  0  0  0  0  0
   15.6404   -8.3329   17.9343 N   0  0  0  0  0  0  0  0  0  0  0  0
   15.7709   -9.7373   18.2363 C   0  0  0  0  0  0  0  0  0  0  0  0
   16.4881   -7.3328   18.3117 C   0  0  0  0  0  0  0  0  0  0  0  0
   15.8776   -6.1669   17.9330 C   0  0  0  0  0  0  0  0  0  0  0  0
   20.6023   -5.5852   20.3456 C   0  0  0  0  0  0  0  0  0  0  0  0
   20.2285   -7.1027   18.1489 N   0  0  0  0  0  0  0  0  0  0  0  0
  1  2  1  0
  2  3  2  0
  3  4  1  0
  4  5  2  0
  5  6  1  0
  6  7  1  0
  7  8  1  0
  8  9  1  0
  9 10  1  0
 10 11  1  6
 11 12  1  0
 12 13  1  6
 12 14  1  0
 14 15  2  0
 15 16  1  0
 16 17  1  0
 16 18  2  0
 18 19  1  0
 19 20  2  0
 20 21  1  0
 21 22  1  0
 21 23  1  0
 23 24  2  0
 10 25  1  0
  6 26  2  0
 26  2  1  0
 25  7  1  0
 24 14  1  0
 24 19  1  0
M  END
>  <energy_score>  (987) 
-35.981911

>  <inchikey>  (987) 
None

>  <smiles>  (987) 
None

>  <ref_pdb>  (987) 
A1105b

>  <alias>  (987) 
None

>  <HIPPO Pose ID>  (987) 
498631

>  <name>  (987) 
P498631

>  <HIPPO Compound ID>  (987) 
293443

>  <ref_mols>  (987) 
A0497a,A1105b

>  <distance_score>  (987) 
1.204539

>  <inspiration_score>  (987) 
None

$$$$
P498632
     RDKit          3D

 26 29  0  0  0  0  0  0  0  0999 V2000
   19.6327   -9.2957   17.5957 C   0  0  0  0  0  0  0  0  0  0  0  0
   19.9603   -7.8725   17.2633 C   0  0  0  0  0  0  0  0  0  0  0  0
   19.8885   -7.4407   15.9516 C   0  0  0  0  0  0  0  0  0  0  0  0
   20.3983   -6.1912   15.6544 C   0  0  0  0  0  0  0  0  0  0  0  0
   20.9220   -5.4043   16.6741 C   0  0  0  0  0  0  0  0  0  0  0  0
   20.8849   -5.8498   17.9958 C   0  0  0  0  0  0  0  0  0  0  0  0
   21.2779   -5.0011   19.0515 N   0  0  0  0  0  0  0  0  0  0  0  0
   21.0827   -5.5428   20.4135 C   0  0  0  0  0  0  0  0  0  0  0  0
   20.1954   -4.5365   21.1572 C   0  0  0  0  0  0  0  0  0  0  0  0
   19.4494   -3.8201   20.0414 C   0  0  2  0  0  0  0  0  0  0  0  0
   18.3400   -4.6953   19.5960 N   0  0  0  0  0  0  0  0  0  0  0  0
   17.4597   -3.9926   18.6893 C   0  0  1  0  0  0  0  0  0  0  0  0
   18.1756   -3.3913   17.6363 O   0  0  0  0  0  0  0  0  0  0  0  0
   16.3251   -4.8076   18.1371 C   0  0  0  0  0  0  0  0  0  0  0  0
   15.2118   -4.0726   17.6698 C   0  0  0  0  0  0  0  0  0  0  0  0
   14.0547   -4.6406   17.1087 C   0  0  0  0  0  0  0  0  0  0  0  0
   13.1766   -3.7764   16.6123 F   0  0  0  0  0  0  0  0  0  0  0  0
   13.8215   -6.0091   16.9653 C   0  0  0  0  0  0  0  0  0  0  0  0
   14.8669   -6.7902   17.4556 C   0  0  0  0  0  0  0  0  0  0  0  0
   14.9574   -8.1293   17.5087 N   0  0  0  0  0  0  0  0  0  0  0  0
   16.0629   -8.3519   18.2380 N   0  0  0  0  0  0  0  0  0  0  0  0
   16.3083   -9.6844   18.7326 C   0  0  0  0  0  0  0  0  0  0  0  0
   16.8104   -7.2357   18.4811 C   0  0  0  0  0  0  0  0  0  0  0  0
   16.0703   -6.1867   18.0033 C   0  0  0  0  0  0  0  0  0  0  0  0
   20.6264   -3.6713   19.0345 C   0  0  0  0  0  0  0  0  0  0  0  0
   20.4358   -7.0970   18.2698 N   0  0  0  0  0  0  0  0  0  0  0  0
  1  2  1  0
  2  3  2  0
  3  4  1  0
  4  5  2  0
  5  6  1  0
  6  7  1  0
  7  8  1  0
  8  9  1  0
  9 10  1  0
 10 11  1  6
 11 12  1  0
 12 13  1  6
 12 14  1  0
 14 15  2  0
 15 16  1  0
 16 17  1  0
 16 18  2  0
 18 19  1  0
 19 20  2  0
 20 21  1  0
 21 22  1  0
 21 23  1  0
 23 24  2  0
 10 25  1  0
  6 26  2  0
 26  2  1  0
 25  7  1  0
 24 14  1  0
 24 19  1  0
M  END
>  <energy_score>  (988) 
-42.804366

>  <inchikey>  (988) 
None

>  <smiles>  (988) 
None

>  <ref_pdb>  (988) 
A1105b

>  <alias>  (988) 
None

>  <HIPPO Pose ID>  (988) 
498632

>  <name>  (988) 
P498632

>  <HIPPO Compound ID>  (988) 
293443

>  <ref_mols>  (988) 
A0497a,A1105b

>  <distance_score>  (988) 
1.774044

>  <inspiration_score>  (988) 
None

$$$$
P498633
     RDKit          3D

 27 30  0  0  0  0  0  0  0  0999 V2000
   17.9200   -8.5343   16.5679 C   0  0  0  0  0  0  0  0  0  0  0  0
   19.0295   -7.5266   16.5411 C   0  0  0  0  0  0  0  0  0  0  0  0
   19.5297   -7.1536   15.3042 C   0  0  0  0  0  0  0  0  0  0  0  0
   20.5994   -6.2801   15.2538 C   0  0  0  0  0  0  0  0  0  0  0  0
   21.1177   -5.7833   16.4370 C   0  0  0  0  0  0  0  0  0  0  0  0
   20.5444   -6.1478   17.6570 C   0  0  0  0  0  0  0  0  0  0  0  0
   21.0350   -5.5373   18.8336 N   0  0  0  0  0  0  0  0  0  0  0  0
   20.8786   -4.0569   18.7975 C   0  0  0  0  0  0  0  0  0  0  0  0
   20.1437   -3.7017   20.0874 C   0  0  0  0  0  0  0  0  0  0  0  0
   19.3493   -4.9651   20.4274 C   0  0  1  0  0  0  0  0  0  0  0  0
   18.0804   -5.3003   19.7442 N   0  0  0  0  0  0  0  0  0  0  0  0
   17.6053   -4.4403   18.6785 C   0  0  2  0  0  0  0  0  0  0  0  0
   17.4804   -3.1375   19.2068 O   0  0  0  0  0  0  0  0  0  0  0  0
   16.2489   -4.8568   18.1318 C   0  0  0  0  0  0  0  0  0  0  0  0
   15.3513   -3.8543   17.6621 C   0  0  0  0  0  0  0  0  0  0  0  0
   14.0831   -4.0797   17.0694 C   0  0  0  0  0  0  0  0  0  0  0  0
   13.5529   -5.3562   16.8883 C   0  0  0  0  0  0  0  0  0  0  0  0
   14.3334   -6.3875   17.4069 C   0  0  0  0  0  0  0  0  0  0  0  0
   14.0498   -7.7003   17.4636 N   0  0  0  0  0  0  0  0  0  0  0  0
   14.9948   -8.1925   18.2967 N   0  0  0  0  0  0  0  0  0  0  0  0
   14.8749   -9.5422   18.8313 C   0  0  0  0  0  0  0  0  0  0  0  0
   15.5265   -9.6762   20.0215 F   0  0  0  0  0  0  0  0  0  0  0  0
   15.4327  -10.4550   17.9879 F   0  0  0  0  0  0  0  0  0  0  0  0
   16.0079   -7.3074   18.5605 C   0  0  0  0  0  0  0  0  0  0  0  0
   15.6289   -6.1177   17.9958 C   0  0  0  0  0  0  0  0  0  0  0  0
   20.4368   -6.0226   20.0887 C   0  0  0  0  0  0  0  0  0  0  0  0
   19.5210   -7.0414   17.7122 N   0  0  0  0  0  0  0  0  0  0  0  0
  1  2  1  0
  2  3  2  0
  3  4  1  0
  4  5  2  0
  5  6  1  0
  6  7  1  0
  7  8  1  0
  8  9  1  0
  9 10  1  0
 10 11  1  6
 11 12  1  0
 12 13  1  1
 12 14  1  0
 14 15  2  0
 15 16  1  0
 16 17  2  0
 17 18  1  0
 18 19  2  0
 19 20  1  0
 20 21  1  0
 21 22  1  0
 21 23  1  0
 20 24  1  0
 24 25  2  0
 10 26  1  0
  6 27  2  0
 27  2  1  0
 26  7  1  0
 25 14  1  0
 25 18  1  0
M  END
>  <energy_score>  (989) 
-39.347223

>  <inchikey>  (989) 
None

>  <smiles>  (989) 
None

>  <ref_pdb>  (989) 
A1105b

>  <alias>  (989) 
None

>  <HIPPO Pose ID>  (989) 
498633

>  <name>  (989) 
P498633

>  <HIPPO Compound ID>  (989) 
293445

>  <ref_mols>  (989) 
A0497a,A1105b

>  <distance_score>  (989) 
1.476798

>  <inspiration_score>  (989) 
None

$$$$
P498634
     RDKit          3D

 27 30  0  0  0  0  0  0  0  0999 V2000
   18.4397   -8.7891   17.1883 C   0  0  0  0  0  0  0  0  0  0  0  0
   19.2649   -7.5764   16.9516 C   0  0  0  0  0  0  0  0  0  0  0  0
   19.6242   -7.2226   15.6653 C   0  0  0  0  0  0  0  0  0  0  0  0
   20.5237   -6.1857   15.5064 C   0  0  0  0  0  0  0  0  0  0  0  0
   20.9977   -5.5187   16.6297 C   0  0  0  0  0  0  0  0  0  0  0  0
   20.5285   -5.8593   17.9004 C   0  0  0  0  0  0  0  0  0  0  0  0
   20.9464   -5.1449   19.0397 N   0  0  0  0  0  0  0  0  0  0  0  0
   20.9828   -3.6729   18.8999 C   0  0  0  0  0  0  0  0  0  0  0  0
   20.0893   -3.1016   20.0063 C   0  0  0  0  0  0  0  0  0  0  0  0
   19.2502   -4.2720   20.5036 C   0  0  1  0  0  0  0  0  0  0  0  0
   17.8805   -4.4737   20.0113 N   0  0  0  0  0  0  0  0  0  0  0  0
   17.4544   -3.8728   18.7528 C   0  0  1  0  0  0  0  0  0  0  0  0
   18.4403   -3.7978   17.7646 O   0  0  0  0  0  0  0  0  0  0  0  0
   16.2045   -4.4950   18.1761 C   0  0  0  0  0  0  0  0  0  0  0  0
   15.1680   -3.6463   17.7170 C   0  0  0  0  0  0  0  0  0  0  0  0
   13.9644   -4.0716   17.0967 C   0  0  0  0  0  0  0  0  0  0  0  0
   13.6340   -5.4166   16.9066 C   0  0  0  0  0  0  0  0  0  0  0  0
   14.5716   -6.3075   17.4231 C   0  0  0  0  0  0  0  0  0  0  0  0
   14.5019   -7.6465   17.5024 N   0  0  0  0  0  0  0  0  0  0  0  0
   15.5107   -7.9617   18.3522 N   0  0  0  0  0  0  0  0  0  0  0  0
   15.4979   -9.2425   19.0500 C   0  0  0  0  0  0  0  0  0  0  0  0
   15.9784  -10.2462   18.2649 F   0  0  0  0  0  0  0  0  0  0  0  0
   16.2744   -9.2249   20.1706 F   0  0  0  0  0  0  0  0  0  0  0  0
   16.3976   -6.9348   18.5503 C   0  0  0  0  0  0  0  0  0  0  0  0
   15.8068   -5.8311   18.0030 C   0  0  0  0  0  0  0  0  0  0  0  0
   20.1935   -5.4699   20.2585 C   0  0  0  0  0  0  0  0  0  0  0  0
   19.6969   -6.9182   18.0453 N   0  0  0  0  0  0  0  0  0  0  0  0
  1  2  1  0
  2  3  2  0
  3  4  1  0
  4  5  2  0
  5  6  1  0
  6  7  1  0
  7  8  1  0
  8  9  1  0
  9 10  1  0
 10 11  1  6
 11 12  1  0
 12 13  1  6
 12 14  1  0
 14 15  2  0
 15 16  1  0
 16 17  2  0
 17 18  1  0
 18 19  2  0
 19 20  1  0
 20 21  1  0
 21 22  1  0
 21 23  1  0
 20 24  1  0
 24 25  2  0
 10 26  1  0
  6 27  2  0
 27  2  1  0
 26  7  1  0
 25 14  1  0
 25 18  1  0
M  END
>  <energy_score>  (990) 
-17.12125

>  <inchikey>  (990) 
None

>  <smiles>  (990) 
None

>  <ref_pdb>  (990) 
A1105b

>  <alias>  (990) 
None

>  <HIPPO Pose ID>  (990) 
498634

>  <name>  (990) 
P498634

>  <HIPPO Compound ID>  (990) 
293445

>  <ref_mols>  (990) 
A0497a,A1105b

>  <distance_score>  (990) 
1.73584

>  <inspiration_score>  (990) 
None

$$$$
P498635
     RDKit          3D

 27 30  0  0  0  0  0  0  0  0999 V2000
   19.2637   -9.1960   17.4391 C   0  0  0  0  0  0  0  0  0  0  0  0
   19.7690   -7.8163   17.1479 C   0  0  0  0  0  0  0  0  0  0  0  0
   19.8902   -7.3925   15.8382 C   0  0  0  0  0  0  0  0  0  0  0  0
   20.5627   -6.2075   15.6002 C   0  0  0  0  0  0  0  0  0  0  0  0
   21.0609   -5.4726   16.6715 C   0  0  0  0  0  0  0  0  0  0  0  0
   20.8200   -5.8900   17.9796 C   0  0  0  0  0  0  0  0  0  0  0  0
   21.1767   -5.0985   19.0916 N   0  0  0  0  0  0  0  0  0  0  0  0
   20.9420   -3.6384   18.9385 C   0  0  0  0  0  0  0  0  0  0  0  0
   19.9585   -3.2545   20.0512 C   0  0  0  0  0  0  0  0  0  0  0  0
   19.2743   -4.5678   20.4371 C   0  0  1  0  0  0  0  0  0  0  0  0
   18.2001   -5.1051   19.5797 N   0  0  0  0  0  0  0  0  0  0  0  0
   17.4390   -4.1612   18.7966 C   0  0  1  0  0  0  0  0  0  0  0  0
   18.2350   -3.5686   17.7957 O   0  0  0  0  0  0  0  0  0  0  0  0
   16.2128   -4.7537   18.1469 C   0  0  0  0  0  0  0  0  0  0  0  0
   15.1891   -3.8472   17.7519 C   0  0  0  0  0  0  0  0  0  0  0  0
   13.9643   -4.2126   17.1461 C   0  0  0  0  0  0  0  0  0  0  0  0
   13.6156   -5.5416   16.8854 C   0  0  0  0  0  0  0  0  0  0  0  0
   14.5613   -6.4875   17.2851 C   0  0  0  0  0  0  0  0  0  0  0  0
   14.4934   -7.8260   17.1983 N   0  0  0  0  0  0  0  0  0  0  0  0
   15.5846   -8.2538   17.8765 N   0  0  0  0  0  0  0  0  0  0  0  0
   15.7037   -9.6626   18.2345 C   0  0  0  0  0  0  0  0  0  0  0  0
   16.5655   -9.8558   19.2718 F   0  0  0  0  0  0  0  0  0  0  0  0
   16.1820  -10.4020   17.1960 F   0  0  0  0  0  0  0  0  0  0  0  0
   16.4407   -7.2445   18.2319 C   0  0  0  0  0  0  0  0  0  0  0  0
   15.8141   -6.0791   17.8785 C   0  0  0  0  0  0  0  0  0  0  0  0
   20.5162   -5.5024   20.3577 C   0  0  0  0  0  0  0  0  0  0  0  0
   20.2051   -7.0790   18.1979 N   0  0  0  0  0  0  0  0  0  0  0  0
  1  2  1  0
  2  3  2  0
  3  4  1  0
  4  5  2  0
  5  6  1  0
  6  7  1  0
  7  8  1  0
  8  9  1  0
  9 10  1  0
 10 11  1  6
 11 12  1  0
 12 13  1  6
 12 14  1  0
 14 15  2  0
 15 16  1  0
 16 17  2  0
 17 18  1  0
 18 19  2  0
 19 20  1  0
 20 21  1  0
 21 22  1  0
 21 23  1  0
 20 24  1  0
 24 25  2  0
 10 26  1  0
  6 27  2  0
 27  2  1  0
 26  7  1  0
 25 14  1  0
 25 18  1  0
M  END
>  <energy_score>  (991) 
-50.055743

>  <inchikey>  (991) 
None

>  <smiles>  (991) 
None

>  <ref_pdb>  (991) 
A1105b

>  <alias>  (991) 
None

>  <HIPPO Pose ID>  (991) 
498635

>  <name>  (991) 
P498635

>  <HIPPO Compound ID>  (991) 
293445

>  <ref_mols>  (991) 
A0497a,A1105b

>  <distance_score>  (991) 
1.431659

>  <inspiration_score>  (991) 
None

$$$$
P498636
     RDKit          3D

 27 30  0  0  0  0  0  0  0  0999 V2000
   17.9478   -8.6060   19.4183 C   0  0  0  0  0  0  0  0  0  0  0  0
   19.1250   -7.8782   18.8660 C   0  0  0  0  0  0  0  0  0  0  0  0
   19.8728   -8.3222   17.7891 C   0  0  0  0  0  0  0  0  0  0  0  0
   20.9023   -7.5145   17.3163 C   0  0  0  0  0  0  0  0  0  0  0  0
   21.2056   -6.3320   17.9841 C   0  0  0  0  0  0  0  0  0  0  0  0
   20.4617   -5.9738   19.1067 C   0  0  0  0  0  0  0  0  0  0  0  0
   20.7724   -4.8315   19.8711 N   0  0  0  0  0  0  0  0  0  0  0  0
   20.8021   -3.5865   19.0677 C   0  0  0  0  0  0  0  0  0  0  0  0
   19.7489   -2.6679   19.6950 C   0  0  0  0  0  0  0  0  0  0  0  0
   18.7849   -3.6101   20.4171 C   0  0  1  0  0  0  0  0  0  0  0  0
   17.7819   -4.3522   19.6433 N   0  0  0  0  0  0  0  0  0  0  0  0
   17.3082   -3.7616   18.4114 C   0  0  1  0  0  0  0  0  0  0  0  0
   18.3379   -3.6945   17.4608 O   0  0  0  0  0  0  0  0  0  0  0  0
   16.1435   -4.5624   17.8987 C   0  0  0  0  0  0  0  0  0  0  0  0
   14.8332   -4.0295   17.9466 C   0  0  0  0  0  0  0  0  0  0  0  0
   13.6595   -4.7477   17.5921 C   0  0  0  0  0  0  0  0  0  0  0  0
   13.6622   -6.0953   17.1895 C   0  0  0  0  0  0  0  0  0  0  0  0
   14.9322   -6.6542   17.1036 C   0  0  0  0  0  0  0  0  0  0  0  0
   15.2803   -7.8727   16.6570 N   0  0  0  0  0  0  0  0  0  0  0  0
   16.6182   -7.7766   16.4615 N   0  0  0  0  0  0  0  0  0  0  0  0
   17.2791   -8.7693   15.6176 C   0  0  0  0  0  0  0  0  0  0  0  0
   18.4315   -8.3050   15.0625 F   0  0  0  0  0  0  0  0  0  0  0  0
   17.6048   -9.8929   16.3124 F   0  0  0  0  0  0  0  0  0  0  0  0
   17.1512   -6.6039   16.9293 C   0  0  0  0  0  0  0  0  0  0  0  0
   16.1006   -5.8818   17.4214 C   0  0  0  0  0  0  0  0  0  0  0  0
   19.8246   -4.5992   20.9938 C   0  0  0  0  0  0  0  0  0  0  0  0
   19.4144   -6.7336   19.5006 N   0  0  0  0  0  0  0  0  0  0  0  0
  1  2  1  0
  2  3  2  0
  3  4  1  0
  4  5  2  0
  5  6  1  0
  6  7  1  0
  7  8  1  0
  8  9  1  0
  9 10  1  0
 10 11  1  6
 11 12  1  0
 12 13  1  6
 12 14  1  0
 14 15  2  0
 15 16  1  0
 16 17  2  0
 17 18  1  0
 18 19  2  0
 19 20  1  0
 20 21  1  0
 21 22  1  0
 21 23  1  0
 20 24  1  0
 24 25  2  0
 10 26  1  0
  6 27  2  0
 27  2  1  0
 26  7  1  0
 25 14  1  0
 25 18  1  0
M  END
>  <energy_score>  (992) 
-36.210594

>  <inchikey>  (992) 
None

>  <smiles>  (992) 
None

>  <ref_pdb>  (992) 
A1105b

>  <alias>  (992) 
None

>  <HIPPO Pose ID>  (992) 
498636

>  <name>  (992) 
P498636

>  <HIPPO Compound ID>  (992) 
293445

>  <ref_mols>  (992) 
A0497a,A1105b

>  <distance_score>  (992) 
1.933288

>  <inspiration_score>  (992) 
None

$$$$
P498637
     RDKit          3D

 27 30  0  0  0  0  0  0  0  0999 V2000
   15.5805   -8.9767   18.0551 O   0  0  0  0  0  0  0  0  0  0  0  0
   16.5263   -8.0689   17.5262 C   0  0  2  0  0  0  0  0  0  0  0  0
   17.7416   -8.3426   18.2582 N   0  0  0  0  0  0  0  0  0  0  0  0
   18.9994   -8.0626   17.5472 C   0  0  2  0  0  0  0  0  0  0  0  0
   19.1091   -6.9520   16.4874 C   0  0  0  0  0  0  0  0  0  0  0  0
   20.1500   -7.4796   15.5160 C   0  0  0  0  0  0  0  0  0  0  0  0
   19.9294   -8.9315   15.4950 N   0  0  0  0  0  0  0  0  0  0  0  0
   18.9839   -9.3783   14.5436 C   0  0  0  0  0  0  0  0  0  0  0  0
   18.2097   -8.4867   13.8880 N   0  0  0  0  0  0  0  0  0  0  0  0
   17.3590   -8.9664   12.9580 C   0  0  0  0  0  0  0  0  0  0  0  0
   17.2063  -10.3070   12.6413 C   0  0  0  0  0  0  0  0  0  0  0  0
   17.9903  -11.2250   13.3185 C   0  0  0  0  0  0  0  0  0  0  0  0
   18.8870  -10.7570   14.2688 C   0  0  0  0  0  0  0  0  0  0  0  0
   19.6558  -11.6466   14.9181 F   0  0  0  0  0  0  0  0  0  0  0  0
   19.4910   -9.3376   16.8396 C   0  0  0  0  0  0  0  0  0  0  0  0
   15.9669   -6.6732   17.6569 C   0  0  0  0  0  0  0  0  0  0  0  0
   14.6464   -6.3873   17.1884 C   0  0  0  0  0  0  0  0  0  0  0  0
   14.0291   -5.1032   17.1935 C   0  0  0  0  0  0  0  0  0  0  0  0
   14.6655   -3.9539   17.6764 C   0  0  0  0  0  0  0  0  0  0  0  0
   15.9492   -4.1742   18.1850 C   0  0  0  0  0  0  0  0  0  0  0  0
   16.7734   -3.3010   18.7912 N   0  0  0  0  0  0  0  0  0  0  0  0
   17.8431   -4.0309   19.1571 N   0  0  0  0  0  0  0  0  0  0  0  0
   18.9670   -3.4237   19.8560 C   0  0  0  0  0  0  0  0  0  0  0  0
   19.1735   -4.0116   21.0636 F   0  0  0  0  0  0  0  0  0  0  0  0
   20.1245   -3.5850   19.1568 F   0  0  0  0  0  0  0  0  0  0  0  0
   17.7274   -5.3570   18.8495 C   0  0  0  0  0  0  0  0  0  0  0  0
   16.5474   -5.4941   18.1629 C   0  0  0  0  0  0  0  0  0  0  0  0
  2  1  1  1
  2  3  1  0
  4  3  1  6
  4  5  1  0
  5  6  1  0
  6  7  1  0
  7  8  1  0
  8  9  2  0
  9 10  1  0
 10 11  2  0
 11 12  1  0
 12 13  2  0
 13 14  1  0
  7 15  1  0
  2 16  1  0
 16 17  2  0
 17 18  1  0
 18 19  2  0
 19 20  1  0
 20 21  2  0
 21 22  1  0
 22 23  1  0
 23 24  1  0
 23 25  1  0
 22 26  1  0
 26 27  2  0
 15  4  1  0
 27 16  1  0
 13  8  1  0
 27 20  1  0
M  END
>  <energy_score>  (993) 
-35.103629

>  <inchikey>  (993) 
None

>  <smiles>  (993) 
None

>  <ref_pdb>  (993) 
A1105b

>  <alias>  (993) 
None

>  <HIPPO Pose ID>  (993) 
498637

>  <name>  (993) 
P498637

>  <HIPPO Compound ID>  (993) 
293446

>  <ref_mols>  (993) 
A0497a,A1105b

>  <distance_score>  (993) 
1.903265

>  <inspiration_score>  (993) 
None

$$$$
P498638
     RDKit          3D

 27 30  0  0  0  0  0  0  0  0999 V2000
   17.2377   -8.1147   19.3759 O   0  0  0  0  0  0  0  0  0  0  0  0
   16.3789   -7.9698   18.2673 C   0  0  2  0  0  0  0  0  0  0  0  0
   16.9911   -8.6587   17.1741 N   0  0  0  0  0  0  0  0  0  0  0  0
   18.0157   -8.0077   16.3636 C   0  0  1  0  0  0  0  0  0  0  0  0
   19.0898   -7.0397   16.8578 C   0  0  0  0  0  0  0  0  0  0  0  0
   20.1521   -7.0869   15.7505 C   0  0  0  0  0  0  0  0  0  0  0  0
   20.0022   -8.4198   15.1238 N   0  0  0  0  0  0  0  0  0  0  0  0
   19.6613   -8.2791   13.7556 C   0  0  0  0  0  0  0  0  0  0  0  0
   18.3829   -8.5320   13.3734 N   0  0  0  0  0  0  0  0  0  0  0  0
   18.0835   -8.4724   12.0633 C   0  0  0  0  0  0  0  0  0  0  0  0
   18.9877   -8.1322   11.0740 C   0  0  0  0  0  0  0  0  0  0  0  0
   20.2906   -7.8464   11.4560 C   0  0  0  0  0  0  0  0  0  0  0  0
   20.6412   -7.9257   12.8046 C   0  0  0  0  0  0  0  0  0  0  0  0
   22.2919   -7.6196   13.2223 Cl  0  0  0  0  0  0  0  0  0  0  0  0
   18.9411   -9.1200   15.8596 C   0  0  0  0  0  0  0  0  0  0  0  0
   15.9585   -6.5678   17.9797 C   0  0  0  0  0  0  0  0  0  0  0  0
   14.7071   -6.2616   17.3695 C   0  0  0  0  0  0  0  0  0  0  0  0
   14.1949   -4.9425   17.2072 C   0  0  0  0  0  0  0  0  0  0  0  0
   14.8914   -3.7984   17.6303 C   0  0  0  0  0  0  0  0  0  0  0  0
   16.1252   -4.0503   18.2416 C   0  0  0  0  0  0  0  0  0  0  0  0
   16.9615   -3.2054   18.8729 N   0  0  0  0  0  0  0  0  0  0  0  0
   17.8740   -4.0062   19.4709 N   0  0  0  0  0  0  0  0  0  0  0  0
   18.7622   -3.4948   20.5046 C   0  0  0  0  0  0  0  0  0  0  0  0
   20.0664   -3.6705   20.1678 F   0  0  0  0  0  0  0  0  0  0  0  0
   18.5757   -4.1550   21.6822 F   0  0  0  0  0  0  0  0  0  0  0  0
   17.7459   -5.3208   19.1366 C   0  0  0  0  0  0  0  0  0  0  0  0
   16.6168   -5.3940   18.3606 C   0  0  0  0  0  0  0  0  0  0  0  0
  2  1  1  1
  2  3  1  0
  4  3  1  1
  4  5  1  0
  5  6  1  0
  6  7  1  0
  7  8  1  0
  8  9  2  0
  9 10  1  0
 10 11  2  0
 11 12  1  0
 12 13  2  0
 13 14  1  0
  7 15  1  0
  2 16  1  0
 16 17  2  0
 17 18  1  0
 18 19  2  0
 19 20  1  0
 20 21  2  0
 21 22  1  0
 22 23  1  0
 23 24  1  0
 23 25  1  0
 22 26  1  0
 26 27  2  0
 15  4  1  0
 27 16  1  0
 13  8  1  0
 27 20  1  0
M  END
>  <energy_score>  (994) 
-41.094456

>  <inchikey>  (994) 
None

>  <smiles>  (994) 
None

>  <ref_pdb>  (994) 
A1105b

>  <alias>  (994) 
None

>  <HIPPO Pose ID>  (994) 
498638

>  <name>  (994) 
P498638

>  <HIPPO Compound ID>  (994) 
293447

>  <ref_mols>  (994) 
A0497a,A1105b

>  <distance_score>  (994) 
1.887802

>  <inspiration_score>  (994) 
None

$$$$
P498639
     RDKit          3D

 27 30  0  0  0  0  0  0  0  0999 V2000
   16.2619   -8.5199   19.1900 O   0  0  0  0  0  0  0  0  0  0  0  0
   16.5302   -7.9795   17.9169 C   0  0  2  0  0  0  0  0  0  0  0  0
   17.9573   -8.1193   17.7230 N   0  0  0  0  0  0  0  0  0  0  0  0
   18.4582   -7.4173   16.5418 C   0  0  1  0  0  0  0  0  0  0  0  0
   19.9643   -7.5325   16.3846 C   0  0  0  0  0  0  0  0  0  0  0  0
   20.1344   -7.1861   14.9098 C   0  0  0  0  0  0  0  0  0  0  0  0
   18.9446   -7.7437   14.2202 N   0  0  0  0  0  0  0  0  0  0  0  0
   19.2027   -8.9844   13.6160 C   0  0  0  0  0  0  0  0  0  0  0  0
   19.9351   -9.8702   14.3255 N   0  0  0  0  0  0  0  0  0  0  0  0
   20.1423  -11.0829   13.7873 C   0  0  0  0  0  0  0  0  0  0  0  0
   19.6524  -11.4846   12.5566 C   0  0  0  0  0  0  0  0  0  0  0  0
   18.8919  -10.5784   11.8311 C   0  0  0  0  0  0  0  0  0  0  0  0
   18.6548   -9.3129   12.3640 C   0  0  0  0  0  0  0  0  0  0  0  0
   17.6817   -8.2144   11.4539 Cl  0  0  0  0  0  0  0  0  0  0  0  0
   17.9217   -8.0081   15.2484 C   0  0  0  0  0  0  0  0  0  0  0  0
   16.0064   -6.5773   17.8554 C   0  0  0  0  0  0  0  0  0  0  0  0
   14.7144   -6.2864   17.3283 C   0  0  0  0  0  0  0  0  0  0  0  0
   14.1511   -4.9810   17.2474 C   0  0  0  0  0  0  0  0  0  0  0  0
   14.8200   -3.8336   17.7012 C   0  0  0  0  0  0  0  0  0  0  0  0
   16.0736   -4.0713   18.2759 C   0  0  0  0  0  0  0  0  0  0  0  0
   16.8917   -3.2220   18.9235 N   0  0  0  0  0  0  0  0  0  0  0  0
   17.8546   -4.0066   19.4534 N   0  0  0  0  0  0  0  0  0  0  0  0
   18.7395   -3.5078   20.4968 C   0  0  0  0  0  0  0  0  0  0  0  0
   20.0445   -3.6764   20.1591 F   0  0  0  0  0  0  0  0  0  0  0  0
   18.5535   -4.1948   21.6594 F   0  0  0  0  0  0  0  0  0  0  0  0
   17.7802   -5.3099   19.0512 C   0  0  0  0  0  0  0  0  0  0  0  0
   16.6217   -5.4019   18.3180 C   0  0  0  0  0  0  0  0  0  0  0  0
  2  1  1  1
  2  3  1  0
  4  3  1  1
  4  5  1  0
  5  6  1  0
  6  7  1  0
  7  8  1  0
  8  9  2  0
  9 10  1  0
 10 11  2  0
 11 12  1  0
 12 13  2  0
 13 14  1  0
  7 15  1  0
  2 16  1  0
 16 17  2  0
 17 18  1  0
 18 19  2  0
 19 20  1  0
 20 21  2  0
 21 22  1  0
 22 23  1  0
 23 24  1  0
 23 25  1  0
 22 26  1  0
 26 27  2  0
 15  4  1  0
 27 16  1  0
 13  8  1  0
 27 20  1  0
M  END
>  <energy_score>  (995) 
-52.70654

>  <inchikey>  (995) 
None

>  <smiles>  (995) 
None

>  <ref_pdb>  (995) 
A1105b

>  <alias>  (995) 
None

>  <HIPPO Pose ID>  (995) 
498639

>  <name>  (995) 
P498639

>  <HIPPO Compound ID>  (995) 
293447

>  <ref_mols>  (995) 
A0497a,A1105b

>  <distance_score>  (995) 
1.979188

>  <inspiration_score>  (995) 
None

$$$$
P498640
     RDKit          3D

 27 30  0  0  0  0  0  0  0  0999 V2000
   16.9248   -8.4611   18.6201 O   0  0  0  0  0  0  0  0  0  0  0  0
   16.4669   -7.8624   17.4290 C   0  0  2  0  0  0  0  0  0  0  0  0
   17.4857   -7.9581   16.4091 N   0  0  0  0  0  0  0  0  0  0  0  0
   18.7283   -7.1558   16.5234 C   0  0  1  0  0  0  0  0  0  0  0  0
   19.7215   -7.8241   17.4587 C   0  0  0  0  0  0  0  0  0  0  0  0
   20.1869   -9.0197   16.6335 C   0  0  0  0  0  0  0  0  0  0  0  0
   20.1392   -8.5721   15.2175 N   0  0  0  0  0  0  0  0  0  0  0  0
   19.3644   -9.4458   14.4109 C   0  0  0  0  0  0  0  0  0  0  0  0
   18.2191   -8.9711   13.8465 N   0  0  0  0  0  0  0  0  0  0  0  0
   17.4960   -9.7884   13.0616 C   0  0  0  0  0  0  0  0  0  0  0  0
   17.8451  -11.0940   12.7752 C   0  0  0  0  0  0  0  0  0  0  0  0
   19.0208  -11.5862   13.3224 C   0  0  0  0  0  0  0  0  0  0  0  0
   19.7967  -10.7614   14.1399 C   0  0  0  0  0  0  0  0  0  0  0  0
   21.2867  -11.4146   14.7314 Cl  0  0  0  0  0  0  0  0  0  0  0  0
   19.5920   -7.2012   15.2364 C   0  0  0  0  0  0  0  0  0  0  0  0
   15.9420   -6.4862   17.6566 C   0  0  0  0  0  0  0  0  0  0  0  0
   14.6582   -6.0639   17.2081 C   0  0  0  0  0  0  0  0  0  0  0  0
   14.1701   -4.7287   17.3113 C   0  0  0  0  0  0  0  0  0  0  0  0
   14.9269   -3.6837   17.8666 C   0  0  0  0  0  0  0  0  0  0  0  0
   16.1789   -4.0606   18.3580 C   0  0  0  0  0  0  0  0  0  0  0  0
   17.1058   -3.3301   19.0037 N   0  0  0  0  0  0  0  0  0  0  0  0
   18.0661   -4.2197   19.3462 N   0  0  0  0  0  0  0  0  0  0  0  0
   19.2874   -3.7812   20.0043 C   0  0  0  0  0  0  0  0  0  0  0  0
   19.1726   -3.8281   21.3540 F   0  0  0  0  0  0  0  0  0  0  0  0
   20.3435   -4.5804   19.6810 F   0  0  0  0  0  0  0  0  0  0  0  0
   17.7637   -5.5034   19.0034 C   0  0  0  0  0  0  0  0  0  0  0  0
   16.6152   -5.4217   18.2605 C   0  0  0  0  0  0  0  0  0  0  0  0
  2  1  1  1
  2  3  1  0
  4  3  1  6
  4  5  1  0
  5  6  1  0
  6  7  1  0
  7  8  1  0
  8  9  2  0
  9 10  1  0
 10 11  2  0
 11 12  1  0
 12 13  2  0
 13 14  1  0
  7 15  1  0
  2 16  1  0
 16 17  2  0
 17 18  1  0
 18 19  2  0
 19 20  1  0
 20 21  2  0
 21 22  1  0
 22 23  1  0
 23 24  1  0
 23 25  1  0
 22 26  1  0
 26 27  2  0
 15  4  1  0
 27 16  1  0
 13  8  1  0
 27 20  1  0
M  END
>  <energy_score>  (996) 
-39.257906

>  <inchikey>  (996) 
None

>  <smiles>  (996) 
None

>  <ref_pdb>  (996) 
A1105b

>  <alias>  (996) 
None

>  <HIPPO Pose ID>  (996) 
498640

>  <name>  (996) 
P498640

>  <HIPPO Compound ID>  (996) 
293447

>  <ref_mols>  (996) 
A0497a,A1105b

>  <distance_score>  (996) 
1.856287

>  <inspiration_score>  (996) 
None

$$$$
P498641
     RDKit          3D

 27 30  0  0  0  0  0  0  0  0999 V2000
   16.4039   -9.5195   13.5842 C   0  0  0  0  0  0  0  0  0  0  0  0
   17.3475   -8.5574   13.1193 O   0  0  0  0  0  0  0  0  0  0  0  0
   18.2883   -8.2202   14.0738 C   0  0  0  0  0  0  0  0  0  0  0  0
   19.5821   -7.9250   13.6220 C   0  0  0  0  0  0  0  0  0  0  0  0
   20.6586   -7.6228   14.4997 C   0  0  0  0  0  0  0  0  0  0  0  0
   20.5851   -7.5640   15.9248 C   0  0  0  0  0  0  0  0  0  0  0  0
   21.8732   -7.5029   16.7160 C   0  0  1  0  0  0  0  0  0  0  0  0
   22.9841   -7.1787   15.9029 O   0  0  0  0  0  0  0  0  0  0  0  0
   21.9806   -6.6444   17.8675 N   0  0  0  0  0  0  0  0  0  0  0  0
   21.3700   -5.3265   17.7530 C   0  0  2  0  0  0  0  0  0  0  0  0
   21.6036   -4.4339   16.5357 C   0  0  0  0  0  0  0  0  0  0  0  0
   21.2005   -3.0334   17.0449 C   0  0  0  0  0  0  0  0  0  0  0  0
   21.1503   -3.1284   18.5225 N   0  0  0  0  0  0  0  0  0  0  0  0
   19.9267   -3.1414   19.2179 C   0  0  0  0  0  0  0  0  0  0  0  0
   20.0416   -3.3612   20.5590 N   0  0  0  0  0  0  0  0  0  0  0  0
   18.9378   -3.5364   21.3042 C   0  0  0  0  0  0  0  0  0  0  0  0
   17.6685   -3.5084   20.7816 C   0  0  0  0  0  0  0  0  0  0  0  0
   17.5183   -3.2504   19.4289 C   0  0  0  0  0  0  0  0  0  0  0  0
   18.6504   -3.0415   18.6497 C   0  0  0  0  0  0  0  0  0  0  0  0
   18.4470   -2.7789   17.3569 F   0  0  0  0  0  0  0  0  0  0  0  0
   21.8632   -4.3764   18.8610 C   0  0  0  0  0  0  0  0  0  0  0  0
   19.2487   -7.7641   16.3335 C   0  0  0  0  0  0  0  0  0  0  0  0
   18.7481   -7.7340   17.6108 C   0  0  0  0  0  0  0  0  0  0  0  0
   17.4047   -7.9456   17.4781 N   0  0  0  0  0  0  0  0  0  0  0  0
   16.4154   -7.9117   18.5282 C   0  0  0  0  0  0  0  0  0  0  0  0
   17.0127   -8.2498   16.2319 N   0  0  0  0  0  0  0  0  0  0  0  0
   18.1134   -8.0868   15.4723 C   0  0  0  0  0  0  0  0  0  0  0  0
  1  2  1  0
  2  3  1  0
  3  4  2  0
  4  5  1  0
  5  6  2  0
  6  7  1  0
  7  8  1  6
  7  9  1  0
 10  9  1  6
 10 11  1  0
 11 12  1  0
 12 13  1  0
 13 14  1  0
 14 15  2  0
 15 16  1  0
 16 17  2  0
 17 18  1  0
 18 19  2  0
 19 20  1  0
 13 21  1  0
  6 22  1  0
 22 23  2  0
 23 24  1  0
 24 25  1  0
 24 26  1  0
 26 27  2  0
 27  3  1  0
 21 10  1  0
 27 22  1  0
 19 14  1  0
M  END
>  <energy_score>  (997) 
-33.385492

>  <inchikey>  (997) 
None

>  <smiles>  (997) 
None

>  <ref_pdb>  (997) 
A1105b

>  <alias>  (997) 
None

>  <HIPPO Pose ID>  (997) 
498641

>  <name>  (997) 
P498641

>  <HIPPO Compound ID>  (997) 
293448

>  <ref_mols>  (997) 
A0497a,A1105b

>  <distance_score>  (997) 
1.340482

>  <inspiration_score>  (997) 
None

$$$$
P498642
     RDKit          3D

 27 30  0  0  0  0  0  0  0  0999 V2000
   17.1543   -9.1613   13.2307 C   0  0  0  0  0  0  0  0  0  0  0  0
   18.1862   -8.1820   13.1409 O   0  0  0  0  0  0  0  0  0  0  0  0
   18.8252   -7.9816   14.3497 C   0  0  0  0  0  0  0  0  0  0  0  0
   20.2176   -7.7905   14.3262 C   0  0  0  0  0  0  0  0  0  0  0  0
   21.0123   -7.7166   15.5097 C   0  0  0  0  0  0  0  0  0  0  0  0
   20.5092   -7.7947   16.8445 C   0  0  0  0  0  0  0  0  0  0  0  0
   21.4623   -8.0929   17.9844 C   0  0  2  0  0  0  0  0  0  0  0  0
   20.8287   -8.5159   19.1717 O   0  0  0  0  0  0  0  0  0  0  0  0
   22.4523   -7.0823   18.3178 N   0  0  0  0  0  0  0  0  0  0  0  0
   21.8731   -5.8765   18.9056 C   0  0  1  0  0  0  0  0  0  0  0  0
   22.7982   -5.2606   19.9554 C   0  0  0  0  0  0  0  0  0  0  0  0
   22.2594   -3.8313   20.1203 C   0  0  0  0  0  0  0  0  0  0  0  0
   21.4621   -3.5562   18.9064 N   0  0  0  0  0  0  0  0  0  0  0  0
   20.0582   -3.4481   19.1234 C   0  0  0  0  0  0  0  0  0  0  0  0
   19.5377   -3.6760   20.3554 N   0  0  0  0  0  0  0  0  0  0  0  0
   18.1932   -3.6860   20.4792 C   0  0  0  0  0  0  0  0  0  0  0  0
   17.3225   -3.5182   19.4164 C   0  0  0  0  0  0  0  0  0  0  0  0
   17.8492   -3.2869   18.1613 C   0  0  0  0  0  0  0  0  0  0  0  0
   19.2197   -3.1954   18.0268 C   0  0  0  0  0  0  0  0  0  0  0  0
   19.7428   -2.8898   16.8299 F   0  0  0  0  0  0  0  0  0  0  0  0
   21.7034   -4.6729   17.9636 C   0  0  0  0  0  0  0  0  0  0  0  0
   19.1015   -7.8030   16.8182 C   0  0  0  0  0  0  0  0  0  0  0  0
   18.2555   -7.7559   17.8950 C   0  0  0  0  0  0  0  0  0  0  0  0
   16.9995   -7.8347   17.3718 N   0  0  0  0  0  0  0  0  0  0  0  0
   15.7567   -7.7738   18.1039 C   0  0  0  0  0  0  0  0  0  0  0  0
   16.9649   -8.0204   16.0405 N   0  0  0  0  0  0  0  0  0  0  0  0
   18.2497   -7.9231   15.6430 C   0  0  0  0  0  0  0  0  0  0  0  0
  1  2  1  0
  2  3  1  0
  3  4  2  0
  4  5  1  0
  5  6  2  0
  6  7  1  0
  7  8  1  1
  7  9  1  0
 10  9  1  6
 10 11  1  0
 11 12  1  0
 12 13  1  0
 13 14  1  0
 14 15  2  0
 15 16  1  0
 16 17  2  0
 17 18  1  0
 18 19  2  0
 19 20  1  0
 13 21  1  0
  6 22  1  0
 22 23  2  0
 23 24  1  0
 24 25  1  0
 24 26  1  0
 26 27  2  0
 27  3  1  0
 21 10  1  0
 27 22  1  0
 19 14  1  0
M  END
>  <energy_score>  (998) 
-65.822882

>  <inchikey>  (998) 
None

>  <smiles>  (998) 
None

>  <ref_pdb>  (998) 
A1105b

>  <alias>  (998) 
None

>  <HIPPO Pose ID>  (998) 
498642

>  <name>  (998) 
P498642

>  <HIPPO Compound ID>  (998) 
293448

>  <ref_mols>  (998) 
A0497a,A1105b

>  <distance_score>  (998) 
1.209617

>  <inspiration_score>  (998) 
None

$$$$
P498643
     RDKit          3D

 27 30  0  0  0  0  0  0  0  0999 V2000
   17.2042  -10.5172   14.2512 C   0  0  0  0  0  0  0  0  0  0  0  0
   18.4150   -9.8883   13.8496 O   0  0  0  0  0  0  0  0  0  0  0  0
   18.7881   -8.7943   14.6096 C   0  0  0  0  0  0  0  0  0  0  0  0
   20.0259   -8.2053   14.2817 C   0  0  0  0  0  0  0  0  0  0  0  0
   20.5488   -7.0592   14.9432 C   0  0  0  0  0  0  0  0  0  0  0  0
   19.8950   -6.3608   15.9961 C   0  0  0  0  0  0  0  0  0  0  0  0
   20.4954   -5.0733   16.5022 C   0  0  1  0  0  0  0  0  0  0  0  0
   19.4909   -4.2103   16.9795 O   0  0  0  0  0  0  0  0  0  0  0  0
   21.4547   -5.3080   17.5548 N   0  0  0  0  0  0  0  0  0  0  0  0
   22.4888   -4.2707   17.7658 C   0  0  1  0  0  0  0  0  0  0  0  0
   22.3732   -2.8906   17.1046 C   0  0  0  0  0  0  0  0  0  0  0  0
   21.4030   -2.1118   17.9945 C   0  0  0  0  0  0  0  0  0  0  0  0
   21.4690   -2.7715   19.3106 N   0  0  0  0  0  0  0  0  0  0  0  0
   20.2471   -3.1947   19.8594 C   0  0  0  0  0  0  0  0  0  0  0  0
   20.2740   -4.2932   20.6586 N   0  0  0  0  0  0  0  0  0  0  0  0
   19.1527   -4.6751   21.2984 C   0  0  0  0  0  0  0  0  0  0  0  0
   17.9480   -4.0237   21.1722 C   0  0  0  0  0  0  0  0  0  0  0  0
   17.8789   -2.9430   20.3120 C   0  0  0  0  0  0  0  0  0  0  0  0
   19.0386   -2.5025   19.6891 C   0  0  0  0  0  0  0  0  0  0  0  0
   18.9673   -1.3493   19.0087 F   0  0  0  0  0  0  0  0  0  0  0  0
   22.5168   -3.8116   19.2465 C   0  0  0  0  0  0  0  0  0  0  0  0
   18.6877   -6.9987   16.3305 C   0  0  0  0  0  0  0  0  0  0  0  0
   17.7984   -6.6131   17.2996 C   0  0  0  0  0  0  0  0  0  0  0  0
   16.7412   -7.4618   17.1727 N   0  0  0  0  0  0  0  0  0  0  0  0
   15.4948   -7.3836   17.8979 C   0  0  0  0  0  0  0  0  0  0  0  0
   16.9109   -8.4280   16.2513 N   0  0  0  0  0  0  0  0  0  0  0  0
   18.1037   -8.1602   15.6789 C   0  0  0  0  0  0  0  0  0  0  0  0
  1  2  1  0
  2  3  1  0
  3  4  2  0
  4  5  1  0
  5  6  2  0
  6  7  1  0
  7  8  1  1
  7  9  1  0
 10  9  1  1
 10 11  1  0
 11 12  1  0
 12 13  1  0
 13 14  1  0
 14 15  2  0
 15 16  1  0
 16 17  2  0
 17 18  1  0
 18 19  2  0
 19 20  1  0
 13 21  1  0
  6 22  1  0
 22 23  2  0
 23 24  1  0
 24 25  1  0
 24 26  1  0
 26 27  2  0
 27  3  1  0
 21 10  1  0
 27 22  1  0
 19 14  1  0
M  END
>  <energy_score>  (999) 
-52.383503

>  <inchikey>  (999) 
None

>  <smiles>  (999) 
None

>  <ref_pdb>  (999) 
A1105b

>  <alias>  (999) 
None

>  <HIPPO Pose ID>  (999) 
498643

>  <name>  (999) 
P498643

>  <HIPPO Compound ID>  (999) 
293448

>  <ref_mols>  (999) 
A0497a,A1105b

>  <distance_score>  (999) 
1.364324

>  <inspiration_score>  (999) 
None

$$$$
P498644
     RDKit          3D

 27 30  0  0  0  0  0  0  0  0999 V2000
   16.7078   -9.3733   13.4031 C   0  0  0  0  0  0  0  0  0  0  0  0
   17.6716   -8.3670   13.0996 O   0  0  0  0  0  0  0  0  0  0  0  0
   18.5268   -8.1254   14.1580 C   0  0  0  0  0  0  0  0  0  0  0  0
   19.8777   -7.9024   13.8604 C   0  0  0  0  0  0  0  0  0  0  0  0
   20.8689   -7.7289   14.8655 C   0  0  0  0  0  0  0  0  0  0  0  0
   20.6414   -7.7303   16.2790 C   0  0  0  0  0  0  0  0  0  0  0  0
   21.8786   -7.8034   17.1539 C   0  0  2  0  0  0  0  0  0  0  0  0
   22.3092   -9.1494   17.1470 O   0  0  0  0  0  0  0  0  0  0  0  0
   21.7914   -7.4458   18.5510 N   0  0  0  0  0  0  0  0  0  0  0  0
   21.5645   -6.0166   18.7192 C   0  0  2  0  0  0  0  0  0  0  0  0
   22.7637   -5.1022   18.4412 C   0  0  0  0  0  0  0  0  0  0  0  0
   22.4545   -3.8136   19.2291 C   0  0  0  0  0  0  0  0  0  0  0  0
   21.2743   -4.1078   20.0502 N   0  0  0  0  0  0  0  0  0  0  0  0
   19.9903   -3.6507   19.7263 C   0  0  0  0  0  0  0  0  0  0  0  0
   19.1542   -3.7105   20.7975 N   0  0  0  0  0  0  0  0  0  0  0  0
   17.8354   -3.5287   20.6155 C   0  0  0  0  0  0  0  0  0  0  0  0
   17.2585   -3.3355   19.3804 C   0  0  0  0  0  0  0  0  0  0  0  0
   18.0951   -3.2424   18.2836 C   0  0  0  0  0  0  0  0  0  0  0  0
   19.4771   -3.3475   18.4474 C   0  0  0  0  0  0  0  0  0  0  0  0
   20.4082   -3.1527   17.0029 Cl  0  0  0  0  0  0  0  0  0  0  0  0
   21.2017   -5.5812   20.1474 C   0  0  0  0  0  0  0  0  0  0  0  0
   19.2542   -7.8211   16.5326 C   0  0  0  0  0  0  0  0  0  0  0  0
   18.6011   -7.7569   17.7383 C   0  0  0  0  0  0  0  0  0  0  0  0
   17.2726   -7.8911   17.4452 N   0  0  0  0  0  0  0  0  0  0  0  0
   16.1714   -7.8273   18.3764 C   0  0  0  0  0  0  0  0  0  0  0  0
   17.0122   -8.1325   16.1530 N   0  0  0  0  0  0  0  0  0  0  0  0
   18.2038   -8.0274   15.5334 C   0  0  0  0  0  0  0  0  0  0  0  0
  1  2  1  0
  2  3  1  0
  3  4  2  0
  4  5  1  0
  5  6  2  0
  6  7  1  0
  7  8  1  1
  7  9  1  0
 10  9  1  1
 10 11  1  0
 11 12  1  0
 12 13  1  0
 13 14  1  0
 14 15  2  0
 15 16  1  0
 16 17  2  0
 17 18  1  0
 18 19  2  0
 19 20  1  0
 13 21  1  0
  6 22  1  0
 22 23  2  0
 23 24  1  0
 24 25  1  0
 24 26  1  0
 26 27  2  0
 27  3  1  0
 21 10  1  0
 27 22  1  0
 19 14  1  0
M  END
>  <energy_score>  (1000) 
-36.670794

>  <inchikey>  (1000) 
None

>  <smiles>  (1000) 
None

>  <ref_pdb>  (1000) 
A1105b

>  <alias>  (1000) 
None

>  <HIPPO Pose ID>  (1000) 
498644

>  <name>  (1000) 
P498644

>  <HIPPO Compound ID>  (1000) 
293449

>  <ref_mols>  (1000) 
A0497a,A1105b

>  <distance_score>  (1000) 
1.385723

>  <inspiration_score>  (1000) 
None

$$$$
P498645
     RDKit          3D

 27 30  0  0  0  0  0  0  0  0999 V2000
   17.0805   -9.2227   13.0530 C   0  0  0  0  0  0  0  0  0  0  0  0
   18.1015   -8.2353   12.9439 O   0  0  0  0  0  0  0  0  0  0  0  0
   18.7537   -7.9917   14.1384 C   0  0  0  0  0  0  0  0  0  0  0  0
   20.1019   -7.5893   14.0696 C   0  0  0  0  0  0  0  0  0  0  0  0
   20.9188   -7.3735   15.2215 C   0  0  0  0  0  0  0  0  0  0  0  0
   20.4898   -7.5432   16.5674 C   0  0  0  0  0  0  0  0  0  0  0  0
   21.4437   -7.5022   17.7389 C   0  0  1  0  0  0  0  0  0  0  0  0
   22.7289   -7.9159   17.3244 O   0  0  0  0  0  0  0  0  0  0  0  0
   21.5827   -6.1791   18.2956 N   0  0  0  0  0  0  0  0  0  0  0  0
   22.2606   -6.1086   19.6094 C   0  0  2  0  0  0  0  0  0  0  0  0
   21.6268   -6.9546   20.7391 C   0  0  0  0  0  0  0  0  0  0  0  0
   21.1660   -5.9542   21.8027 C   0  0  0  0  0  0  0  0  0  0  0  0
   21.0023   -4.6929   21.0879 N   0  0  0  0  0  0  0  0  0  0  0  0
   19.8612   -4.3312   20.3630 C   0  0  0  0  0  0  0  0  0  0  0  0
   20.0151   -3.1649   19.6855 N   0  0  0  0  0  0  0  0  0  0  0  0
   19.1589   -2.8325   18.6988 C   0  0  0  0  0  0  0  0  0  0  0  0
   18.0770   -3.5940   18.3434 C   0  0  0  0  0  0  0  0  0  0  0  0
   17.8352   -4.7266   19.0976 C   0  0  0  0  0  0  0  0  0  0  0  0
   18.6911   -5.0817   20.1549 C   0  0  0  0  0  0  0  0  0  0  0  0
   18.2227   -6.4766   21.0613 Cl  0  0  0  0  0  0  0  0  0  0  0  0
   22.1920   -4.6631   20.1888 C   0  0  0  0  0  0  0  0  0  0  0  0
   19.1114   -7.8227   16.5914 C   0  0  0  0  0  0  0  0  0  0  0  0
   18.3412   -8.0026   17.7086 C   0  0  0  0  0  0  0  0  0  0  0  0
   17.0773   -8.2175   17.2450 N   0  0  0  0  0  0  0  0  0  0  0  0
   15.8800   -8.3672   18.0388 C   0  0  0  0  0  0  0  0  0  0  0  0
   16.9948   -8.3333   15.9082 N   0  0  0  0  0  0  0  0  0  0  0  0
   18.2347   -8.0507   15.4549 C   0  0  0  0  0  0  0  0  0  0  0  0
  1  2  1  0
  2  3  1  0
  3  4  2  0
  4  5  1  0
  5  6  2  0
  6  7  1  0
  7  8  1  6
  7  9  1  0
 10  9  1  6
 10 11  1  0
 11 12  1  0
 12 13  1  0
 13 14  1  0
 14 15  2  0
 15 16  1  0
 16 17  2  0
 17 18  1  0
 18 19  2  0
 19 20  1  0
 13 21  1  0
  6 22  1  0
 22 23  2  0
 23 24  1  0
 24 25  1  0
 24 26  1  0
 26 27  2  0
 27  3  1  0
 21 10  1  0
 27 22  1  0
 19 14  1  0
M  END
>  <energy_score>  (1001) 
-40.739602

>  <inchikey>  (1001) 
None

>  <smiles>  (1001) 
None

>  <ref_pdb>  (1001) 
A1105b

>  <alias>  (1001) 
None

>  <HIPPO Pose ID>  (1001) 
498645

>  <name>  (1001) 
P498645

>  <HIPPO Compound ID>  (1001) 
293449

>  <ref_mols>  (1001) 
A0497a,A1105b

>  <distance_score>  (1001) 
1.052275

>  <inspiration_score>  (1001) 
None

$$$$
P498646
     RDKit          3D

 27 30  0  0  0  0  0  0  0  0999 V2000
   16.5425   -9.7663   13.8056 C   0  0  0  0  0  0  0  0  0  0  0  0
   17.6041   -9.0252   13.2148 O   0  0  0  0  0  0  0  0  0  0  0  0
   18.4069   -8.3538   14.1195 C   0  0  0  0  0  0  0  0  0  0  0  0
   19.6723   -7.9563   13.6568 C   0  0  0  0  0  0  0  0  0  0  0  0
   20.6139   -7.2623   14.4646 C   0  0  0  0  0  0  0  0  0  0  0  0
   20.4114   -6.8634   15.8192 C   0  0  0  0  0  0  0  0  0  0  0  0
   21.5816   -6.2255   16.5226 C   0  0  2  0  0  0  0  0  0  0  0  0
   22.4282   -7.2797   16.9340 O   0  0  0  0  0  0  0  0  0  0  0  0
   21.2758   -5.4411   17.6932 N   0  0  0  0  0  0  0  0  0  0  0  0
   22.4253   -4.5829   18.0686 C   0  0  1  0  0  0  0  0  0  0  0  0
   22.4330   -3.2397   17.3197 C   0  0  0  0  0  0  0  0  0  0  0  0
   21.7848   -2.2196   18.2628 C   0  0  0  0  0  0  0  0  0  0  0  0
   21.4575   -2.9499   19.4821 N   0  0  0  0  0  0  0  0  0  0  0  0
   20.1839   -3.2108   19.9501 C   0  0  0  0  0  0  0  0  0  0  0  0
   20.1660   -3.4813   21.2826 N   0  0  0  0  0  0  0  0  0  0  0  0
   19.0001   -3.7495   21.8929 C   0  0  0  0  0  0  0  0  0  0  0  0
   17.7952   -3.7819   21.2366 C   0  0  0  0  0  0  0  0  0  0  0  0
   17.7856   -3.5398   19.8741 C   0  0  0  0  0  0  0  0  0  0  0  0
   18.9858   -3.2559   19.2207 C   0  0  0  0  0  0  0  0  0  0  0  0
   18.8660   -3.0920   17.5250 Cl  0  0  0  0  0  0  0  0  0  0  0  0
   22.3147   -4.1391   19.5391 C   0  0  0  0  0  0  0  0  0  0  0  0
   19.1267   -7.2521   16.2438 C   0  0  0  0  0  0  0  0  0  0  0  0
   18.5565   -7.0470   17.4734 C   0  0  0  0  0  0  0  0  0  0  0  0
   17.3023   -7.5744   17.3818 N   0  0  0  0  0  0  0  0  0  0  0  0
   16.2873   -7.5567   18.4059 C   0  0  0  0  0  0  0  0  0  0  0  0
   17.0331   -8.1792   16.2140 N   0  0  0  0  0  0  0  0  0  0  0  0
   18.1292   -7.9735   15.4568 C   0  0  0  0  0  0  0  0  0  0  0  0
  1  2  1  0
  2  3  1  0
  3  4  2  0
  4  5  1  0
  5  6  2  0
  6  7  1  0
  7  8  1  1
  7  9  1  0
 10  9  1  6
 10 11  1  0
 11 12  1  0
 12 13  1  0
 13 14  1  0
 14 15  2  0
 15 16  1  0
 16 17  2  0
 17 18  1  0
 18 19  2  0
 19 20  1  0
 13 21  1  0
  6 22  1  0
 22 23  2  0
 23 24  1  0
 24 25  1  0
 24 26  1  0
 26 27  2  0
 27  3  1  0
 21 10  1  0
 27 22  1  0
 19 14  1  0
M  END
>  <energy_score>  (1002) 
-63.431782

>  <inchikey>  (1002) 
None

>  <smiles>  (1002) 
None

>  <ref_pdb>  (1002) 
A1105b

>  <alias>  (1002) 
None

>  <HIPPO Pose ID>  (1002) 
498646

>  <name>  (1002) 
P498646

>  <HIPPO Compound ID>  (1002) 
293449

>  <ref_mols>  (1002) 
A0497a,A1105b

>  <distance_score>  (1002) 
1.255033

>  <inspiration_score>  (1002) 
None

$$$$
P498647
     RDKit          3D

 27 30  0  0  0  0  0  0  0  0999 V2000
   16.9182   -9.4741   13.3241 C   0  0  0  0  0  0  0  0  0  0  0  0
   17.9770   -8.6162   12.9122 O   0  0  0  0  0  0  0  0  0  0  0  0
   18.7339   -8.1147   13.9553 C   0  0  0  0  0  0  0  0  0  0  0  0
   20.0399   -7.6932   13.6423 C   0  0  0  0  0  0  0  0  0  0  0  0
   20.9507   -7.1737   14.6068 C   0  0  0  0  0  0  0  0  0  0  0  0
   20.6680   -7.0002   15.9907 C   0  0  0  0  0  0  0  0  0  0  0  0
   21.7576   -6.5901   16.9465 C   0  0  1  0  0  0  0  0  0  0  0  0
   22.8042   -7.5350   16.8314 O   0  0  0  0  0  0  0  0  0  0  0  0
   22.3924   -5.2998   16.6836 N   0  0  0  0  0  0  0  0  0  0  0  0
   21.7917   -4.2525   17.5059 C   0  0  1  0  0  0  0  0  0  0  0  0
   22.5834   -2.9509   17.6274 C   0  0  0  0  0  0  0  0  0  0  0  0
   21.5413   -1.9467   18.1821 C   0  0  0  0  0  0  0  0  0  0  0  0
   20.2070   -2.5709   17.9692 N   0  0  0  0  0  0  0  0  0  0  0  0
   19.6197   -3.1340   19.1430 C   0  0  0  0  0  0  0  0  0  0  0  0
   20.3590   -3.1709   20.2830 N   0  0  0  0  0  0  0  0  0  0  0  0
   19.9965   -4.0099   21.2766 C   0  0  0  0  0  0  0  0  0  0  0  0
   18.9533   -4.8977   21.1756 C   0  0  0  0  0  0  0  0  0  0  0  0
   18.1810   -4.8253   20.0340 C   0  0  0  0  0  0  0  0  0  0  0  0
   18.4224   -3.8590   19.0678 C   0  0  0  0  0  0  0  0  0  0  0  0
   17.2523   -3.7122   17.8159 Cl  0  0  0  0  0  0  0  0  0  0  0  0
   20.4519   -3.6798   17.0144 C   0  0  0  0  0  0  0  0  0  0  0  0
   19.3356   -7.3772   16.2583 C   0  0  0  0  0  0  0  0  0  0  0  0
   18.6959   -7.3439   17.4705 C   0  0  0  0  0  0  0  0  0  0  0  0
   17.4207   -7.7628   17.2168 N   0  0  0  0  0  0  0  0  0  0  0  0
   16.3240   -7.8195   18.1537 C   0  0  0  0  0  0  0  0  0  0  0  0
   17.2180   -8.1869   15.9590 N   0  0  0  0  0  0  0  0  0  0  0  0
   18.3702   -7.9217   15.3110 C   0  0  0  0  0  0  0  0  0  0  0  0
  1  2  1  0
  2  3  1  0
  3  4  2  0
  4  5  1  0
  5  6  2  0
  6  7  1  0
  7  8  1  6
  7  9  1  0
 10  9  1  6
 10 11  1  0
 11 12  1  0
 12 13  1  0
 13 14  1  0
 14 15  2  0
 15 16  1  0
 16 17  2  0
 17 18  1  0
 18 19  2  0
 19 20  1  0
 13 21  1  0
  6 22  1  0
 22 23  2  0
 23 24  1  0
 24 25  1  0
 24 26  1  0
 26 27  2  0
 27  3  1  0
 21 10  1  0
 27 22  1  0
 19 14  1  0
M  END
>  <energy_score>  (1003) 
-42.570239

>  <inchikey>  (1003) 
None

>  <smiles>  (1003) 
None

>  <ref_pdb>  (1003) 
A1105b

>  <alias>  (1003) 
None

>  <HIPPO Pose ID>  (1003) 
498647

>  <name>  (1003) 
P498647

>  <HIPPO Compound ID>  (1003) 
293449

>  <ref_mols>  (1003) 
A0497a,A1105b

>  <distance_score>  (1003) 
1.250587

>  <inspiration_score>  (1003) 
None

$$$$
P498648
     RDKit          3D

 27 30  0  0  0  0  0  0  0  0999 V2000
   19.1066   -9.0989   12.1605 C   0  0  0  0  0  0  0  0  0  0  0  0
   18.2339   -8.7962   13.2379 O   0  0  0  0  0  0  0  0  0  0  0  0
   18.8150   -8.2831   14.3625 C   0  0  0  0  0  0  0  0  0  0  0  0
   20.1677   -7.9038   14.5191 C   0  0  0  0  0  0  0  0  0  0  0  0
   20.7122   -7.3843   15.7383 C   0  0  0  0  0  0  0  0  0  0  0  0
   19.9721   -7.1600   16.9277 C   0  0  0  0  0  0  0  0  0  0  0  0
   20.5778   -6.6406   18.2040 C   0  0  2  0  0  0  0  0  0  0  0  0
   21.6733   -5.8095   17.8905 O   0  0  0  0  0  0  0  0  0  0  0  0
   21.0380   -7.7101   19.0793 N   0  0  0  0  0  0  0  0  0  0  0  0
   21.0005   -7.4043   20.5224 C   0  0  2  0  0  0  0  0  0  0  0  0
   19.5896   -7.5941   21.1147 C   0  0  0  0  0  0  0  0  0  0  0  0
   19.4266   -6.4609   22.1231 C   0  0  0  0  0  0  0  0  0  0  0  0
   20.2299   -5.3658   21.5736 N   0  0  0  0  0  0  0  0  0  0  0  0
   19.6499   -4.4714   20.6637 C   0  0  0  0  0  0  0  0  0  0  0  0
   18.2877   -4.1880   20.6487 C   0  0  0  0  0  0  0  0  0  0  0  0
   17.7327   -3.4636   19.5919 C   0  0  0  0  0  0  0  0  0  0  0  0
   18.5596   -2.9566   18.6065 C   0  0  0  0  0  0  0  0  0  0  0  0
   19.9199   -3.1424   18.7420 C   0  0  0  0  0  0  0  0  0  0  0  0
   20.8740   -2.5270   17.7602 C   0  0  0  0  0  0  0  0  0  0  0  0
   20.4547   -3.8919   19.7418 N   0  0  0  0  0  0  0  0  0  0  0  0
   21.4642   -6.0181   21.0711 C   0  0  0  0  0  0  0  0  0  0  0  0
   18.6294   -7.5075   16.7232 C   0  0  0  0  0  0  0  0  0  0  0  0
   17.6090   -7.3417   17.6231 C   0  0  0  0  0  0  0  0  0  0  0  0
   16.4978   -7.8102   16.9894 N   0  0  0  0  0  0  0  0  0  0  0  0
   15.1489   -7.7881   17.5053 C   0  0  0  0  0  0  0  0  0  0  0  0
   16.7330   -8.3239   15.7682 N   0  0  0  0  0  0  0  0  0  0  0  0
   18.0367   -8.0664   15.5272 C   0  0  0  0  0  0  0  0  0  0  0  0
  1  2  1  0
  2  3  1  0
  3  4  2  0
  4  5  1  0
  5  6  2  0
  6  7  1  0
  7  8  1  6
  7  9  1  0
 10  9  1  6
 10 11  1  0
 11 12  1  0
 12 13  1  0
 13 14  1  0
 14 15  2  0
 15 16  1  0
 16 17  2  0
 17 18  1  0
 18 19  1  0
 18 20  2  0
 13 21  1  0
  6 22  1  0
 22 23  2  0
 23 24  1  0
 24 25  1  0
 24 26  1  0
 26 27  2  0
 27  3  1  0
 21 10  1  0
 27 22  1  0
 20 14  1  0
M  END
>  <energy_score>  (1004) 
-36.325543

>  <inchikey>  (1004) 
None

>  <smiles>  (1004) 
None

>  <ref_pdb>  (1004) 
A1105b

>  <alias>  (1004) 
None

>  <HIPPO Pose ID>  (1004) 
498648

>  <name>  (1004) 
P498648

>  <HIPPO Compound ID>  (1004) 
293450

>  <ref_mols>  (1004) 
A0497a,A1105b

>  <distance_score>  (1004) 
1.004163

>  <inspiration_score>  (1004) 
None

$$$$
P498649
     RDKit          3D

 27 30  0  0  0  0  0  0  0  0999 V2000
   16.5328   -9.5211   13.3428 C   0  0  0  0  0  0  0  0  0  0  0  0
   17.6073   -8.6472   13.0079 O   0  0  0  0  0  0  0  0  0  0  0  0
   18.3906   -8.3038   14.0937 C   0  0  0  0  0  0  0  0  0  0  0  0
   19.7511   -8.0431   13.8449 C   0  0  0  0  0  0  0  0  0  0  0  0
   20.6817   -7.7216   14.8719 C   0  0  0  0  0  0  0  0  0  0  0  0
   20.3604   -7.6028   16.2541 C   0  0  0  0  0  0  0  0  0  0  0  0
   21.4416   -7.3714   17.2797 C   0  0  1  0  0  0  0  0  0  0  0  0
   22.2846   -8.5076   17.3747 O   0  0  0  0  0  0  0  0  0  0  0  0
   22.2916   -6.2491   16.9190 N   0  0  0  0  0  0  0  0  0  0  0  0
   21.6029   -5.0066   17.2473 C   0  0  2  0  0  0  0  0  0  0  0  0
   22.0365   -3.8074   16.4233 C   0  0  0  0  0  0  0  0  0  0  0  0
   21.3859   -2.6463   17.1897 C   0  0  0  0  0  0  0  0  0  0  0  0
   21.2485   -3.1189   18.5821 N   0  0  0  0  0  0  0  0  0  0  0  0
   20.0024   -3.1778   19.2094 C   0  0  0  0  0  0  0  0  0  0  0  0
   18.7795   -3.1909   18.5403 C   0  0  0  0  0  0  0  0  0  0  0  0
   17.6062   -3.3775   19.2627 C   0  0  0  0  0  0  0  0  0  0  0  0
   17.6829   -3.5339   20.6380 C   0  0  0  0  0  0  0  0  0  0  0  0
   18.9205   -3.5300   21.2491 C   0  0  0  0  0  0  0  0  0  0  0  0
   19.0377   -3.6600   22.7364 C   0  0  0  0  0  0  0  0  0  0  0  0
   20.0579   -3.3600   20.5516 N   0  0  0  0  0  0  0  0  0  0  0  0
   21.8437   -4.4628   18.6631 C   0  0  0  0  0  0  0  0  0  0  0  0
   18.9802   -7.7664   16.4499 C   0  0  0  0  0  0  0  0  0  0  0  0
   18.2954   -7.6099   17.6269 C   0  0  0  0  0  0  0  0  0  0  0  0
   16.9900   -7.8548   17.3099 N   0  0  0  0  0  0  0  0  0  0  0  0
   15.8553   -7.7547   18.1972 C   0  0  0  0  0  0  0  0  0  0  0  0
   16.7914   -8.2422   16.0370 N   0  0  0  0  0  0  0  0  0  0  0  0
   17.9951   -8.1206   15.4429 C   0  0  0  0  0  0  0  0  0  0  0  0
  1  2  1  0
  2  3  1  0
  3  4  2  0
  4  5  1  0
  5  6  2  0
  6  7  1  0
  7  8  1  6
  7  9  1  0
 10  9  1  6
 10 11  1  0
 11 12  1  0
 12 13  1  0
 13 14  1  0
 14 15  2  0
 15 16  1  0
 16 17  2  0
 17 18  1  0
 18 19  1  0
 18 20  2  0
 13 21  1  0
  6 22  1  0
 22 23  2  0
 23 24  1  0
 24 25  1  0
 24 26  1  0
 26 27  2  0
 27  3  1  0
 21 10  1  0
 27 22  1  0
 20 14  1  0
M  END
>  <energy_score>  (1005) 
-47.516382

>  <inchikey>  (1005) 
None

>  <smiles>  (1005) 
None

>  <ref_pdb>  (1005) 
A1105b

>  <alias>  (1005) 
None

>  <HIPPO Pose ID>  (1005) 
498649

>  <name>  (1005) 
P498649

>  <HIPPO Compound ID>  (1005) 
293450

>  <ref_mols>  (1005) 
A0497a,A1105b

>  <distance_score>  (1005) 
1.149437

>  <inspiration_score>  (1005) 
None

$$$$
P498650
     RDKit          3D

 27 30  0  0  0  0  0  0  0  0999 V2000
   16.7361   -9.7261   13.4914 C   0  0  0  0  0  0  0  0  0  0  0  0
   17.9287   -9.0315   13.1441 O   0  0  0  0  0  0  0  0  0  0  0  0
   18.5612   -8.4116   14.2068 C   0  0  0  0  0  0  0  0  0  0  0  0
   19.9064   -8.0501   14.0090 C   0  0  0  0  0  0  0  0  0  0  0  0
   20.7001   -7.4177   15.0068 C   0  0  0  0  0  0  0  0  0  0  0  0
   20.2468   -7.0515   16.3096 C   0  0  0  0  0  0  0  0  0  0  0  0
   21.2210   -6.3802   17.2507 C   0  0  2  0  0  0  0  0  0  0  0  0
   20.7692   -6.4505   18.5767 O   0  0  0  0  0  0  0  0  0  0  0  0
   21.4098   -5.0017   16.8616 N   0  0  0  0  0  0  0  0  0  0  0  0
   22.5449   -4.3112   17.5030 C   0  0  1  0  0  0  0  0  0  0  0  0
   22.6611   -2.9291   16.8520 C   0  0  0  0  0  0  0  0  0  0  0  0
   21.4657   -2.1794   17.4530 C   0  0  0  0  0  0  0  0  0  0  0  0
   21.3226   -2.7453   18.7992 N   0  0  0  0  0  0  0  0  0  0  0  0
   20.0932   -3.0437   19.3636 C   0  0  0  0  0  0  0  0  0  0  0  0
   18.8747   -2.9839   18.6908 C   0  0  0  0  0  0  0  0  0  0  0  0
   17.6958   -3.2953   19.3630 C   0  0  0  0  0  0  0  0  0  0  0  0
   17.7587   -3.6332   20.7049 C   0  0  0  0  0  0  0  0  0  0  0  0
   18.9926   -3.7143   21.3169 C   0  0  0  0  0  0  0  0  0  0  0  0
   19.0995   -4.0634   22.7694 C   0  0  0  0  0  0  0  0  0  0  0  0
   20.1344   -3.4339   20.6607 N   0  0  0  0  0  0  0  0  0  0  0  0
   22.2927   -3.8492   18.9578 C   0  0  0  0  0  0  0  0  0  0  0  0
   18.8844   -7.3761   16.4536 C   0  0  0  0  0  0  0  0  0  0  0  0
   18.0780   -7.1154   17.5312 C   0  0  0  0  0  0  0  0  0  0  0  0
   16.8516   -7.6055   17.1938 N   0  0  0  0  0  0  0  0  0  0  0  0
   15.6523   -7.5168   17.9930 C   0  0  0  0  0  0  0  0  0  0  0  0
   16.8076   -8.2194   15.9987 N   0  0  0  0  0  0  0  0  0  0  0  0
   18.0379   -8.0460   15.4735 C   0  0  0  0  0  0  0  0  0  0  0  0
  1  2  1  0
  2  3  1  0
  3  4  2  0
  4  5  1  0
  5  6  2  0
  6  7  1  0
  7  8  1  1
  7  9  1  0
 10  9  1  6
 10 11  1  0
 11 12  1  0
 12 13  1  0
 13 14  1  0
 14 15  2  0
 15 16  1  0
 16 17  2  0
 17 18  1  0
 18 19  1  0
 18 20  2  0
 13 21  1  0
  6 22  1  0
 22 23  2  0
 23 24  1  0
 24 25  1  0
 24 26  1  0
 26 27  2  0
 27  3  1  0
 21 10  1  0
 27 22  1  0
 20 14  1  0
M  END
>  <energy_score>  (1006) 
-37.578021

>  <inchikey>  (1006) 
None

>  <smiles>  (1006) 
None

>  <ref_pdb>  (1006) 
A1105b

>  <alias>  (1006) 
None

>  <HIPPO Pose ID>  (1006) 
498650

>  <name>  (1006) 
P498650

>  <HIPPO Compound ID>  (1006) 
293450

>  <ref_mols>  (1006) 
A0497a,A1105b

>  <distance_score>  (1006) 
1.031799

>  <inspiration_score>  (1006) 
None

$$$$
P498651
     RDKit          3D

 27 30  0  0  0  0  0  0  0  0999 V2000
   16.7553   -9.4565   13.3745 C   0  0  0  0  0  0  0  0  0  0  0  0
   17.7925   -8.5423   13.0295 O   0  0  0  0  0  0  0  0  0  0  0  0
   18.5664   -8.1693   14.1120 C   0  0  0  0  0  0  0  0  0  0  0  0
   19.9266   -7.9045   13.8699 C   0  0  0  0  0  0  0  0  0  0  0  0
   20.8492   -7.5584   14.8989 C   0  0  0  0  0  0  0  0  0  0  0  0
   20.5188   -7.4026   16.2756 C   0  0  0  0  0  0  0  0  0  0  0  0
   21.5872   -7.2133   17.3162 C   0  0  1  0  0  0  0  0  0  0  0  0
   22.4608   -8.3222   17.2343 O   0  0  0  0  0  0  0  0  0  0  0  0
   22.4408   -6.0506   17.1364 N   0  0  0  0  0  0  0  0  0  0  0  0
   21.8504   -4.8638   17.7483 C   0  0  1  0  0  0  0  0  0  0  0  0
   22.8399   -3.7070   17.8633 C   0  0  0  0  0  0  0  0  0  0  0  0
   21.9363   -2.5027   18.1674 C   0  0  0  0  0  0  0  0  0  0  0  0
   20.5868   -2.8697   17.6834 N   0  0  0  0  0  0  0  0  0  0  0  0
   19.6298   -3.0550   18.7179 C   0  0  0  0  0  0  0  0  0  0  0  0
   18.2865   -3.1305   18.3535 C   0  0  0  0  0  0  0  0  0  0  0  0
   17.3306   -3.4060   19.3179 C   0  0  0  0  0  0  0  0  0  0  0  0
   17.7392   -3.5949   20.6314 C   0  0  0  0  0  0  0  0  0  0  0  0
   19.0887   -3.5181   20.9328 C   0  0  0  0  0  0  0  0  0  0  0  0
   19.5564   -3.6918   22.3456 C   0  0  0  0  0  0  0  0  0  0  0  0
   20.0253   -3.2583   19.9958 N   0  0  0  0  0  0  0  0  0  0  0  0
   20.7129   -4.1638   16.9807 C   0  0  0  0  0  0  0  0  0  0  0  0
   19.1355   -7.5801   16.4622 C   0  0  0  0  0  0  0  0  0  0  0  0
   18.4397   -7.4324   17.6346 C   0  0  0  0  0  0  0  0  0  0  0  0
   17.1413   -7.7061   17.3132 N   0  0  0  0  0  0  0  0  0  0  0  0
   16.0025   -7.6321   18.1970 C   0  0  0  0  0  0  0  0  0  0  0  0
   16.9538   -8.0955   16.0405 N   0  0  0  0  0  0  0  0  0  0  0  0
   18.1607   -7.9664   15.4544 C   0  0  0  0  0  0  0  0  0  0  0  0
  1  2  1  0
  2  3  1  0
  3  4  2  0
  4  5  1  0
  5  6  2  0
  6  7  1  0
  7  8  1  6
  7  9  1  0
 10  9  1  6
 10 11  1  0
 11 12  1  0
 12 13  1  0
 13 14  1  0
 14 15  2  0
 15 16  1  0
 16 17  2  0
 17 18  1  0
 18 19  1  0
 18 20  2  0
 13 21  1  0
  6 22  1  0
 22 23  2  0
 23 24  1  0
 24 25  1  0
 24 26  1  0
 26 27  2  0
 27  3  1  0
 21 10  1  0
 27 22  1  0
 20 14  1  0
M  END
>  <energy_score>  (1007) 
-50.143193

>  <inchikey>  (1007) 
None

>  <smiles>  (1007) 
None

>  <ref_pdb>  (1007) 
A1105b

>  <alias>  (1007) 
None

>  <HIPPO Pose ID>  (1007) 
498651

>  <name>  (1007) 
P498651

>  <HIPPO Compound ID>  (1007) 
293450

>  <ref_mols>  (1007) 
A0497a,A1105b

>  <distance_score>  (1007) 
1.099716

>  <inspiration_score>  (1007) 
None

$$$$
P498652
     RDKit          3D

 27 30  0  0  0  0  0  0  0  0999 V2000
   18.6315   -9.0704   17.3364 C   0  0  0  0  0  0  0  0  0  0  0  0
   19.3649   -7.8040   17.0686 C   0  0  0  0  0  0  0  0  0  0  0  0
   19.7313   -7.4643   15.7803 C   0  0  0  0  0  0  0  0  0  0  0  0
   20.5433   -6.3581   15.6054 C   0  0  0  0  0  0  0  0  0  0  0  0
   20.9291   -5.6126   16.7138 C   0  0  0  0  0  0  0  0  0  0  0  0
   20.4540   -5.9496   17.9811 C   0  0  0  0  0  0  0  0  0  0  0  0
   20.6754   -5.1324   19.0945 N   0  0  0  0  0  0  0  0  0  0  0  0
   20.7296   -3.6742   18.8726 C   0  0  0  0  0  0  0  0  0  0  0  0
   19.9595   -3.0490   20.0345 C   0  0  0  0  0  0  0  0  0  0  0  0
   18.9880   -4.1333   20.4893 C   0  0  1  0  0  0  0  0  0  0  0  0
   17.6466   -4.0929   19.8826 N   0  0  0  0  0  0  0  0  0  0  0  0
   17.5603   -4.3343   18.4561 C   0  0  2  0  0  0  0  0  0  0  0  0
   17.9431   -3.1658   17.7615 O   0  0  0  0  0  0  0  0  0  0  0  0
   16.1682   -4.7387   18.0310 C   0  0  0  0  0  0  0  0  0  0  0  0
   15.1993   -3.7743   17.7176 C   0  0  0  0  0  0  0  0  0  0  0  0
   13.9736   -4.1279   17.1724 C   0  0  0  0  0  0  0  0  0  0  0  0
   13.6399   -5.4611   16.9576 C   0  0  0  0  0  0  0  0  0  0  0  0
   14.5352   -6.4329   17.3924 C   0  0  0  0  0  0  0  0  0  0  0  0
   15.7631   -6.0914   17.9420 C   0  0  0  0  0  0  0  0  0  0  0  0
   16.2884   -7.3197   18.3812 C   0  0  0  0  0  0  0  0  0  0  0  0
   15.5560   -8.3760   18.0208 N   0  0  0  0  0  0  0  0  0  0  0  0
   14.4819   -7.8065   17.4176 N   0  0  0  0  0  0  0  0  0  0  0  0
   13.4512   -8.6565   16.8402 C   0  0  0  0  0  0  0  0  0  0  0  0
   12.9756   -8.1574   15.6623 F   0  0  0  0  0  0  0  0  0  0  0  0
   12.3827   -8.8045   17.6647 F   0  0  0  0  0  0  0  0  0  0  0  0
   19.8307   -5.4109   20.2727 C   0  0  0  0  0  0  0  0  0  0  0  0
   19.7070   -7.0678   18.1438 N   0  0  0  0  0  0  0  0  0  0  0  0
  1  2  1  0
  2  3  2  0
  3  4  1  0
  4  5  2  0
  5  6  1  0
  6  7  1  0
  7  8  1  0
  8  9  1  0
  9 10  1  0
 10 11  1  6
 11 12  1  0
 12 13  1  6
 12 14  1  0
 14 15  2  0
 15 16  1  0
 16 17  2  0
 17 18  1  0
 18 19  2  0
 19 20  1  0
 20 21  2  0
 21 22  1  0
 22 23  1  0
 23 24  1  0
 23 25  1  0
 10 26  1  0
  6 27  2  0
 27  2  1  0
 26  7  1  0
 19 14  1  0
 22 18  1  0
M  END
>  <energy_score>  (1008) 
-30.313748

>  <inchikey>  (1008) 
None

>  <smiles>  (1008) 
None

>  <ref_pdb>  (1008) 
A1105b

>  <alias>  (1008) 
None

>  <HIPPO Pose ID>  (1008) 
498652

>  <name>  (1008) 
P498652

>  <HIPPO Compound ID>  (1008) 
293451

>  <ref_mols>  (1008) 
A0497a,A1105b

>  <distance_score>  (1008) 
1.727285

>  <inspiration_score>  (1008) 
None

$$$$
P498653
     RDKit          3D

 27 30  0  0  0  0  0  0  0  0999 V2000
   19.4825   -9.5243   17.3905 C   0  0  0  0  0  0  0  0  0  0  0  0
   19.9005   -8.1276   17.0348 C   0  0  0  0  0  0  0  0  0  0  0  0
   19.9677   -7.7455   15.7083 C   0  0  0  0  0  0  0  0  0  0  0  0
   20.5204   -6.5121   15.4134 C   0  0  0  0  0  0  0  0  0  0  0  0
   20.9483   -5.6868   16.4475 C   0  0  0  0  0  0  0  0  0  0  0  0
   20.7561   -6.0717   17.7734 C   0  0  0  0  0  0  0  0  0  0  0  0
   20.9960   -5.2016   18.8389 N   0  0  0  0  0  0  0  0  0  0  0  0
   20.8892   -3.7422   18.6256 C   0  0  0  0  0  0  0  0  0  0  0  0
   20.1384   -3.1977   19.8426 C   0  0  0  0  0  0  0  0  0  0  0  0
   19.3314   -4.3833   20.3555 C   0  0  1  0  0  0  0  0  0  0  0  0
   17.9696   -4.5870   19.8243 N   0  0  0  0  0  0  0  0  0  0  0  0
   17.7782   -4.5319   18.3816 C   0  0  2  0  0  0  0  0  0  0  0  0
   18.0296   -3.2412   17.8604 O   0  0  0  0  0  0  0  0  0  0  0  0
   16.3738   -4.9489   17.9945 C   0  0  0  0  0  0  0  0  0  0  0  0
   15.3547   -3.9904   17.8084 C   0  0  0  0  0  0  0  0  0  0  0  0
   14.0968   -4.3438   17.3335 C   0  0  0  0  0  0  0  0  0  0  0  0
   13.7881   -5.6729   17.0564 C   0  0  0  0  0  0  0  0  0  0  0  0
   14.7512   -6.6408   17.3430 C   0  0  0  0  0  0  0  0  0  0  0  0
   16.0153   -6.3057   17.8101 C   0  0  0  0  0  0  0  0  0  0  0  0
   16.6469   -7.5496   18.0158 C   0  0  0  0  0  0  0  0  0  0  0  0
   15.9012   -8.5939   17.6501 N   0  0  0  0  0  0  0  0  0  0  0  0
   14.7380   -8.0134   17.2531 N   0  0  0  0  0  0  0  0  0  0  0  0
   13.6504   -8.8336   16.7397 C   0  0  0  0  0  0  0  0  0  0  0  0
   12.5208   -8.7138   17.4849 F   0  0  0  0  0  0  0  0  0  0  0  0
   13.3167   -8.4729   15.4665 F   0  0  0  0  0  0  0  0  0  0  0  0
   20.3252   -5.5444   20.1030 C   0  0  0  0  0  0  0  0  0  0  0  0
   20.2770   -7.3102   18.0479 N   0  0  0  0  0  0  0  0  0  0  0  0
  1  2  1  0
  2  3  2  0
  3  4  1  0
  4  5  2  0
  5  6  1  0
  6  7  1  0
  7  8  1  0
  8  9  1  0
  9 10  1  0
 10 11  1  6
 11 12  1  0
 12 13  1  1
 12 14  1  0
 14 15  2  0
 15 16  1  0
 16 17  2  0
 17 18  1  0
 18 19  2  0
 19 20  1  0
 20 21  2  0
 21 22  1  0
 22 23  1  0
 23 24  1  0
 23 25  1  0
 10 26  1  0
  6 27  2  0
 27  2  1  0
 26  7  1  0
 19 14  1  0
 22 18  1  0
M  END
>  <energy_score>  (1009) 
-33.326987

>  <inchikey>  (1009) 
None

>  <smiles>  (1009) 
None

>  <ref_pdb>  (1009) 
A1105b

>  <alias>  (1009) 
None

>  <HIPPO Pose ID>  (1009) 
498653

>  <name>  (1009) 
P498653

>  <HIPPO Compound ID>  (1009) 
293451

>  <ref_mols>  (1009) 
A0497a,A1105b

>  <distance_score>  (1009) 
1.43487

>  <inspiration_score>  (1009) 
None

$$$$
P498654
     RDKit          3D

 27 30  0  0  0  0  0  0  0  0999 V2000
   18.6179   -8.2419   16.8496 C   0  0  0  0  0  0  0  0  0  0  0  0
   19.5730   -7.1034   16.8007 C   0  0  0  0  0  0  0  0  0  0  0  0
   20.0476   -6.6777   15.5749 C   0  0  0  0  0  0  0  0  0  0  0  0
   20.9975   -5.6744   15.5571 C   0  0  0  0  0  0  0  0  0  0  0  0
   21.4111   -5.1081   16.7564 C   0  0  0  0  0  0  0  0  0  0  0  0
   20.8463   -5.5283   17.9596 C   0  0  0  0  0  0  0  0  0  0  0  0
   21.1551   -4.8543   19.1660 N   0  0  0  0  0  0  0  0  0  0  0  0
   20.8283   -3.4053   19.0804 C   0  0  0  0  0  0  0  0  0  0  0  0
   19.7901   -3.1431   20.1760 C   0  0  0  0  0  0  0  0  0  0  0  0
   19.1631   -4.5090   20.4634 C   0  0  1  0  0  0  0  0  0  0  0  0
   18.1225   -5.0426   19.5647 N   0  0  0  0  0  0  0  0  0  0  0  0
   17.3346   -4.0877   18.8226 C   0  0  1  0  0  0  0  0  0  0  0  0
   18.1216   -3.4478   17.8436 O   0  0  0  0  0  0  0  0  0  0  0  0
   16.1106   -4.6950   18.1505 C   0  0  0  0  0  0  0  0  0  0  0  0
   15.1523   -3.7706   17.6904 C   0  0  0  0  0  0  0  0  0  0  0  0
   13.9749   -4.1636   17.0807 C   0  0  0  0  0  0  0  0  0  0  0  0
   13.6766   -5.5087   16.9231 C   0  0  0  0  0  0  0  0  0  0  0  0
   14.5769   -6.4484   17.4223 C   0  0  0  0  0  0  0  0  0  0  0  0
   15.7717   -6.0705   18.0304 C   0  0  0  0  0  0  0  0  0  0  0  0
   16.2846   -7.2936   18.5216 C   0  0  0  0  0  0  0  0  0  0  0  0
   15.5696   -8.3637   18.1681 N   0  0  0  0  0  0  0  0  0  0  0  0
   14.5156   -7.8219   17.5114 N   0  0  0  0  0  0  0  0  0  0  0  0
   13.3941   -8.6688   17.1189 C   0  0  0  0  0  0  0  0  0  0  0  0
   12.6700   -8.1347   16.0938 F   0  0  0  0  0  0  0  0  0  0  0  0
   13.8015   -9.8922   16.6756 F   0  0  0  0  0  0  0  0  0  0  0  0
   20.4448   -5.3836   20.3553 C   0  0  0  0  0  0  0  0  0  0  0  0
   19.9579   -6.5496   17.9742 N   0  0  0  0  0  0  0  0  0  0  0  0
  1  2  1  0
  2  3  2  0
  3  4  1  0
  4  5  2  0
  5  6  1  0
  6  7  1  0
  7  8  1  0
  8  9  1  0
  9 10  1  0
 10 11  1  6
 11 12  1  0
 12 13  1  6
 12 14  1  0
 14 15  2  0
 15 16  1  0
 16 17  2  0
 17 18  1  0
 18 19  2  0
 19 20  1  0
 20 21  2  0
 21 22  1  0
 22 23  1  0
 23 24  1  0
 23 25  1  0
 10 26  1  0
  6 27  2  0
 27  2  1  0
 26  7  1  0
 19 14  1  0
 22 18  1  0
M  END
>  <energy_score>  (1010) 
-30.525826

>  <inchikey>  (1010) 
None

>  <smiles>  (1010) 
None

>  <ref_pdb>  (1010) 
A1105b

>  <alias>  (1010) 
None

>  <HIPPO Pose ID>  (1010) 
498654

>  <name>  (1010) 
P498654

>  <HIPPO Compound ID>  (1010) 
293451

>  <ref_mols>  (1010) 
A0497a,A1105b

>  <distance_score>  (1010) 
1.710102

>  <inspiration_score>  (1010) 
None

$$$$
P498655
     RDKit          3D

 27 30  0  0  0  0  0  0  0  0999 V2000
   18.6580   -8.7674   17.3300 C   0  0  0  0  0  0  0  0  0  0  0  0
   19.3776   -7.4924   17.0619 C   0  0  0  0  0  0  0  0  0  0  0  0
   19.7293   -7.1584   15.7676 C   0  0  0  0  0  0  0  0  0  0  0  0
   20.5911   -6.0921   15.5815 C   0  0  0  0  0  0  0  0  0  0  0  0
   21.0579   -5.3900   16.6865 C   0  0  0  0  0  0  0  0  0  0  0  0
   20.6083   -5.7227   17.9636 C   0  0  0  0  0  0  0  0  0  0  0  0
   21.0066   -4.9661   19.0897 N   0  0  0  0  0  0  0  0  0  0  0  0
   20.7793   -3.5064   18.9243 C   0  0  0  0  0  0  0  0  0  0  0  0
   19.8067   -3.1075   20.0411 C   0  0  0  0  0  0  0  0  0  0  0  0
   19.1137   -4.4113   20.4425 C   0  0  1  0  0  0  0  0  0  0  0  0
   18.0310   -4.9481   19.5988 N   0  0  0  0  0  0  0  0  0  0  0  0
   17.2547   -4.0109   18.8228 C   0  0  1  0  0  0  0  0  0  0  0  0
   18.0474   -3.4053   17.8260 O   0  0  0  0  0  0  0  0  0  0  0  0
   16.0414   -4.6425   18.1527 C   0  0  0  0  0  0  0  0  0  0  0  0
   15.0698   -3.7398   17.6863 C   0  0  0  0  0  0  0  0  0  0  0  0
   13.9109   -4.1581   17.0583 C   0  0  0  0  0  0  0  0  0  0  0  0
   13.6457   -5.5082   16.8786 C   0  0  0  0  0  0  0  0  0  0  0  0
   14.5677   -6.4254   17.3707 C   0  0  0  0  0  0  0  0  0  0  0  0
   15.7377   -6.0239   18.0087 C   0  0  0  0  0  0  0  0  0  0  0  0
   16.2680   -7.2406   18.4902 C   0  0  0  0  0  0  0  0  0  0  0  0
   15.6050   -8.3260   18.0816 N   0  0  0  0  0  0  0  0  0  0  0  0
   14.5667   -7.7999   17.3929 N   0  0  0  0  0  0  0  0  0  0  0  0
   13.6152   -8.6826   16.7346 C   0  0  0  0  0  0  0  0  0  0  0  0
   12.3952   -8.6628   17.3301 F   0  0  0  0  0  0  0  0  0  0  0  0
   13.4162   -8.3250   15.4321 F   0  0  0  0  0  0  0  0  0  0  0  0
   20.3425   -5.3599   20.3559 C   0  0  0  0  0  0  0  0  0  0  0  0
   19.7673   -6.7744   18.1361 N   0  0  0  0  0  0  0  0  0  0  0  0
  1  2  1  0
  2  3  2  0
  3  4  1  0
  4  5  2  0
  5  6  1  0
  6  7  1  0
  7  8  1  0
  8  9  1  0
  9 10  1  0
 10 11  1  6
 11 12  1  0
 12 13  1  6
 12 14  1  0
 14 15  2  0
 15 16  1  0
 16 17  2  0
 17 18  1  0
 18 19  2  0
 19 20  1  0
 20 21  2  0
 21 22  1  0
 22 23  1  0
 23 24  1  0
 23 25  1  0
 10 26  1  0
  6 27  2  0
 27  2  1  0
 26  7  1  0
 19 14  1  0
 22 18  1  0
M  END
>  <energy_score>  (1011) 
-35.910182

>  <inchikey>  (1011) 
None

>  <smiles>  (1011) 
None

>  <ref_pdb>  (1011) 
A1105b

>  <alias>  (1011) 
None

>  <HIPPO Pose ID>  (1011) 
498655

>  <name>  (1011) 
P498655

>  <HIPPO Compound ID>  (1011) 
293451

>  <ref_mols>  (1011) 
A0497a,A1105b

>  <distance_score>  (1011) 
1.71819

>  <inspiration_score>  (1011) 
None

$$$$
P498656
     RDKit          3D

 27 30  0  0  0  0  0  0  0  0999 V2000
   18.1368   -3.5160   17.7890 O   0  0  0  0  0  0  0  0  0  0  0  0
   17.3669   -4.1522   18.7855 C   0  0  2  0  0  0  0  0  0  0  0  0
   18.1663   -5.1040   19.5186 N   0  0  0  0  0  0  0  0  0  0  0  0
   19.2443   -4.5904   20.3796 C   0  0  2  0  0  0  0  0  0  0  0  0
   19.9157   -3.2646   20.0280 C   0  0  0  0  0  0  0  0  0  0  0  0
   20.8832   -3.6080   18.8908 C   0  0  0  0  0  0  0  0  0  0  0  0
   21.1688   -5.0646   19.0161 N   0  0  0  0  0  0  0  0  0  0  0  0
   20.8292   -5.7837   17.8404 C   0  0  0  0  0  0  0  0  0  0  0  0
   19.8953   -6.7701   17.9456 N   0  0  0  0  0  0  0  0  0  0  0  0
   19.4681   -7.4035   16.8282 C   0  0  0  0  0  0  0  0  0  0  0  0
   19.9108   -7.1016   15.5634 C   0  0  0  0  0  0  0  0  0  0  0  0
   20.9032   -6.1416   15.4434 C   0  0  0  0  0  0  0  0  0  0  0  0
   21.3896   -5.4942   16.5810 C   0  0  0  0  0  0  0  0  0  0  0  0
   22.7012   -4.3828   16.3623 Cl  0  0  0  0  0  0  0  0  0  0  0  0
   20.4859   -5.5222   20.2532 C   0  0  0  0  0  0  0  0  0  0  0  0
   16.1455   -4.7843   18.1326 C   0  0  0  0  0  0  0  0  0  0  0  0
   15.1300   -3.8875   17.7362 C   0  0  0  0  0  0  0  0  0  0  0  0
   13.9544   -4.3192   17.1463 C   0  0  0  0  0  0  0  0  0  0  0  0
   13.7270   -5.6717   16.9246 C   0  0  0  0  0  0  0  0  0  0  0  0
   14.7049   -6.5790   17.3303 C   0  0  0  0  0  0  0  0  0  0  0  0
   15.8924   -6.1715   17.9323 C   0  0  0  0  0  0  0  0  0  0  0  0
   16.5161   -7.3963   18.2755 C   0  0  0  0  0  0  0  0  0  0  0  0
   15.8810   -8.4762   17.8129 N   0  0  0  0  0  0  0  0  0  0  0  0
   14.7517   -7.9531   17.2769 N   0  0  0  0  0  0  0  0  0  0  0  0
   13.7599   -8.8300   16.6705 C   0  0  0  0  0  0  0  0  0  0  0  0
   13.7149   -8.6587   15.3174 F   0  0  0  0  0  0  0  0  0  0  0  0
   12.5033   -8.5835   17.1274 F   0  0  0  0  0  0  0  0  0  0  0  0
  2  1  1  6
  2  3  1  0
  4  3  1  6
  4  5  1  0
  5  6  1  0
  6  7  1  0
  7  8  1  0
  8  9  2  0
  9 10  1  0
 10 11  2  0
 11 12  1  0
 12 13  2  0
 13 14  1  0
  7 15  1  0
  2 16  1  0
 16 17  2  0
 17 18  1  0
 18 19  2  0
 19 20  1  0
 20 21  2  0
 21 22  1  0
 22 23  2  0
 23 24  1  0
 24 25  1  0
 25 26  1  0
 25 27  1  0
 15  4  1  0
 21 16  1  0
 13  8  1  0
 24 20  1  0
M  END
>  <energy_score>  (1012) 
-41.002916

>  <inchikey>  (1012) 
None

>  <smiles>  (1012) 
None

>  <ref_pdb>  (1012) 
A1105b

>  <alias>  (1012) 
None

>  <HIPPO Pose ID>  (1012) 
498656

>  <name>  (1012) 
P498656

>  <HIPPO Compound ID>  (1012) 
293452

>  <ref_mols>  (1012) 
A0497a,A1105b

>  <distance_score>  (1012) 
1.466733

>  <inspiration_score>  (1012) 
None

$$$$
P498657
     RDKit          3D

 27 30  0  0  0  0  0  0  0  0999 V2000
   18.0222   -3.1937   17.8717 O   0  0  0  0  0  0  0  0  0  0  0  0
   17.7997   -4.4790   18.4045 C   0  0  1  0  0  0  0  0  0  0  0  0
   17.9797   -4.5067   19.8494 N   0  0  0  0  0  0  0  0  0  0  0  0
   19.3532   -4.3158   20.3545 C   0  0  2  0  0  0  0  0  0  0  0  0
   20.1714   -3.1411   19.8378 C   0  0  0  0  0  0  0  0  0  0  0  0
   20.9393   -3.6991   18.6394 C   0  0  0  0  0  0  0  0  0  0  0  0
   21.1296   -5.1411   18.9221 N   0  0  0  0  0  0  0  0  0  0  0  0
   20.9523   -6.0306   17.8458 C   0  0  0  0  0  0  0  0  0  0  0  0
   20.3473   -5.5785   16.7275 N   0  0  0  0  0  0  0  0  0  0  0  0
   19.9014   -6.4651   15.8110 C   0  0  0  0  0  0  0  0  0  0  0  0
   20.0821   -7.8227   15.8964 C   0  0  0  0  0  0  0  0  0  0  0  0
   20.8154   -8.2892   16.9695 C   0  0  0  0  0  0  0  0  0  0  0  0
   21.2654   -7.3958   17.9436 C   0  0  0  0  0  0  0  0  0  0  0  0
   22.1685   -8.0564   19.2668 Cl  0  0  0  0  0  0  0  0  0  0  0  0
   20.3192   -5.5002   20.1043 C   0  0  0  0  0  0  0  0  0  0  0  0
   16.4229   -4.9561   17.9963 C   0  0  0  0  0  0  0  0  0  0  0  0
   15.3569   -4.0413   17.8509 C   0  0  0  0  0  0  0  0  0  0  0  0
   14.1059   -4.4436   17.3967 C   0  0  0  0  0  0  0  0  0  0  0  0
   13.8522   -5.7817   17.1046 C   0  0  0  0  0  0  0  0  0  0  0  0
   14.8754   -6.7064   17.3248 C   0  0  0  0  0  0  0  0  0  0  0  0
   16.1415   -6.3232   17.7494 C   0  0  0  0  0  0  0  0  0  0  0  0
   16.8668   -7.5354   17.8160 C   0  0  0  0  0  0  0  0  0  0  0  0
   16.1461   -8.6037   17.4678 N   0  0  0  0  0  0  0  0  0  0  0  0
   14.9239   -8.0745   17.1910 N   0  0  0  0  0  0  0  0  0  0  0  0
   13.8392   -8.9316   16.7318 C   0  0  0  0  0  0  0  0  0  0  0  0
   13.5488   -8.6941   15.4201 F   0  0  0  0  0  0  0  0  0  0  0  0
   12.6877   -8.7236   17.4249 F   0  0  0  0  0  0  0  0  0  0  0  0
  2  1  1  1
  2  3  1  0
  4  3  1  6
  4  5  1  0
  5  6  1  0
  6  7  1  0
  7  8  1  0
  8  9  2  0
  9 10  1  0
 10 11  2  0
 11 12  1  0
 12 13  2  0
 13 14  1  0
  7 15  1  0
  2 16  1  0
 16 17  2  0
 17 18  1  0
 18 19  2  0
 19 20  1  0
 20 21  2  0
 21 22  1  0
 22 23  2  0
 23 24  1  0
 24 25  1  0
 25 26  1  0
 25 27  1  0
 15  4  1  0
 21 16  1  0
 13  8  1  0
 24 20  1  0
M  END
>  <energy_score>  (1013) 
-40.56919

>  <inchikey>  (1013) 
None

>  <smiles>  (1013) 
None

>  <ref_pdb>  (1013) 
A1105b

>  <alias>  (1013) 
None

>  <HIPPO Pose ID>  (1013) 
498657

>  <name>  (1013) 
P498657

>  <HIPPO Compound ID>  (1013) 
293452

>  <ref_mols>  (1013) 
A0497a,A1105b

>  <distance_score>  (1013) 
1.749016

>  <inspiration_score>  (1013) 
None

$$$$
P498658
     RDKit          3D

 27 30  0  0  0  0  0  0  0  0999 V2000
   18.1441   -3.5269   17.7924 O   0  0  0  0  0  0  0  0  0  0  0  0
   17.3674   -4.1553   18.7863 C   0  0  2  0  0  0  0  0  0  0  0  0
   18.1593   -5.1116   19.5225 N   0  0  0  0  0  0  0  0  0  0  0  0
   19.2404   -4.6001   20.3813 C   0  0  2  0  0  0  0  0  0  0  0  0
   19.9326   -3.2880   20.0176 C   0  0  0  0  0  0  0  0  0  0  0  0
   20.8983   -3.6575   18.8870 C   0  0  0  0  0  0  0  0  0  0  0  0
   21.1648   -5.1179   19.0338 N   0  0  0  0  0  0  0  0  0  0  0  0
   20.8238   -5.8411   17.8611 C   0  0  0  0  0  0  0  0  0  0  0  0
   19.8736   -6.8125   17.9647 N   0  0  0  0  0  0  0  0  0  0  0  0
   19.4405   -7.4381   16.8451 C   0  0  0  0  0  0  0  0  0  0  0  0
   19.8909   -7.1433   15.5813 C   0  0  0  0  0  0  0  0  0  0  0  0
   20.9022   -6.2032   15.4650 C   0  0  0  0  0  0  0  0  0  0  0  0
   21.3978   -5.5668   16.6046 C   0  0  0  0  0  0  0  0  0  0  0  0
   22.7421   -4.4956   16.3945 Cl  0  0  0  0  0  0  0  0  0  0  0  0
   20.4681   -5.5516   20.2703 C   0  0  0  0  0  0  0  0  0  0  0  0
   16.1434   -4.7827   18.1328 C   0  0  0  0  0  0  0  0  0  0  0  0
   15.1331   -3.8819   17.7333 C   0  0  0  0  0  0  0  0  0  0  0  0
   13.9562   -4.3091   17.1422 C   0  0  0  0  0  0  0  0  0  0  0  0
   13.7226   -5.6608   16.9225 C   0  0  0  0  0  0  0  0  0  0  0  0
   14.6949   -6.5722   17.3321 C   0  0  0  0  0  0  0  0  0  0  0  0
   15.8827   -6.1691   17.9363 C   0  0  0  0  0  0  0  0  0  0  0  0
   16.4976   -7.3963   18.2875 C   0  0  0  0  0  0  0  0  0  0  0  0
   15.8583   -8.4745   17.8264 N   0  0  0  0  0  0  0  0  0  0  0  0
   14.7360   -7.9464   17.2808 N   0  0  0  0  0  0  0  0  0  0  0  0
   13.7447   -8.8198   16.6690 C   0  0  0  0  0  0  0  0  0  0  0  0
   13.6909   -8.6334   15.3181 F   0  0  0  0  0  0  0  0  0  0  0  0
   12.4897   -8.5852   17.1362 F   0  0  0  0  0  0  0  0  0  0  0  0
  2  1  1  6
  2  3  1  0
  4  3  1  6
  4  5  1  0
  5  6  1  0
  6  7  1  0
  7  8  1  0
  8  9  2  0
  9 10  1  0
 10 11  2  0
 11 12  1  0
 12 13  2  0
 13 14  1  0
  7 15  1  0
  2 16  1  0
 16 17  2  0
 17 18  1  0
 18 19  2  0
 19 20  1  0
 20 21  2  0
 21 22  1  0
 22 23  2  0
 23 24  1  0
 24 25  1  0
 25 26  1  0
 25 27  1  0
 15  4  1  0
 21 16  1  0
 13  8  1  0
 24 20  1  0
M  END
>  <energy_score>  (1014) 
-51.306731

>  <inchikey>  (1014) 
None

>  <smiles>  (1014) 
None

>  <ref_pdb>  (1014) 
A1105b

>  <alias>  (1014) 
None

>  <HIPPO Pose ID>  (1014) 
498658

>  <name>  (1014) 
P498658

>  <HIPPO Compound ID>  (1014) 
293452

>  <ref_mols>  (1014) 
A0497a,A1105b

>  <distance_score>  (1014) 
1.174384

>  <inspiration_score>  (1014) 
None

$$$$
P498659
     RDKit          3D

 27 30  0  0  0  0  0  0  0  0999 V2000
   17.9329   -3.2288   17.7191 O   0  0  0  0  0  0  0  0  0  0  0  0
   17.6680   -4.4779   18.3258 C   0  0  1  0  0  0  0  0  0  0  0  0
   17.9072   -4.3671   19.7522 N   0  0  0  0  0  0  0  0  0  0  0  0
   19.3245   -4.4205   20.1741 C   0  0  2  0  0  0  0  0  0  0  0  0
   20.2661   -3.3882   19.5621 C   0  0  0  0  0  0  0  0  0  0  0  0
   20.7994   -4.0541   18.2878 C   0  0  0  0  0  0  0  0  0  0  0  0
   20.7393   -5.5037   18.5399 N   0  0  0  0  0  0  0  0  0  0  0  0
   20.4416   -6.4397   17.5498 C   0  0  0  0  0  0  0  0  0  0  0  0
   19.9591   -7.6264   18.0149 N   0  0  0  0  0  0  0  0  0  0  0  0
   19.4499   -8.5406   17.1631 C   0  0  0  0  0  0  0  0  0  0  0  0
   19.4046   -8.3668   15.8049 C   0  0  0  0  0  0  0  0  0  0  0  0
   19.9870   -7.2222   15.2969 C   0  0  0  0  0  0  0  0  0  0  0  0
   20.5372   -6.2627   16.1547 C   0  0  0  0  0  0  0  0  0  0  0  0
   21.2876   -4.9468   15.3347 Cl  0  0  0  0  0  0  0  0  0  0  0  0
   20.0862   -5.7301   19.8532 C   0  0  0  0  0  0  0  0  0  0  0  0
   16.2596   -4.9028   17.9956 C   0  0  0  0  0  0  0  0  0  0  0  0
   15.2475   -3.9512   17.7662 C   0  0  0  0  0  0  0  0  0  0  0  0
   14.0046   -4.3221   17.2715 C   0  0  0  0  0  0  0  0  0  0  0  0
   13.7086   -5.6581   17.0118 C   0  0  0  0  0  0  0  0  0  0  0  0
   14.6603   -6.6181   17.3518 C   0  0  0  0  0  0  0  0  0  0  0  0
   15.9039   -6.2664   17.8566 C   0  0  0  0  0  0  0  0  0  0  0  0
   16.5181   -7.5028   18.1434 C   0  0  0  0  0  0  0  0  0  0  0  0
   15.8040   -8.5595   17.7484 N   0  0  0  0  0  0  0  0  0  0  0  0
   14.6578   -7.9921   17.2868 N   0  0  0  0  0  0  0  0  0  0  0  0
   13.6033   -8.8286   16.7333 C   0  0  0  0  0  0  0  0  0  0  0  0
   13.2973   -8.4611   15.4550 F   0  0  0  0  0  0  0  0  0  0  0  0
   12.4510   -8.7434   17.4475 F   0  0  0  0  0  0  0  0  0  0  0  0
  2  1  1  6
  2  3  1  0
  4  3  1  6
  4  5  1  0
  5  6  1  0
  6  7  1  0
  7  8  1  0
  8  9  2  0
  9 10  1  0
 10 11  2  0
 11 12  1  0
 12 13  2  0
 13 14  1  0
  7 15  1  0
  2 16  1  0
 16 17  2  0
 17 18  1  0
 18 19  2  0
 19 20  1  0
 20 21  2  0
 21 22  1  0
 22 23  2  0
 23 24  1  0
 24 25  1  0
 25 26  1  0
 25 27  1  0
 15  4  1  0
 21 16  1  0
 13  8  1  0
 24 20  1  0
M  END
>  <energy_score>  (1015) 
-37.879827

>  <inchikey>  (1015) 
None

>  <smiles>  (1015) 
None

>  <ref_pdb>  (1015) 
A1105b

>  <alias>  (1015) 
None

>  <HIPPO Pose ID>  (1015) 
498659

>  <name>  (1015) 
P498659

>  <HIPPO Compound ID>  (1015) 
293452

>  <ref_mols>  (1015) 
A0497a,A1105b

>  <distance_score>  (1015) 
1.375599

>  <inspiration_score>  (1015) 
None

$$$$
P498660
     RDKit          3D

 27 31  0  0  0  0  0  0  0  0999 V2000
   15.6686   -8.1398   18.1713 C   0  0  0  0  0  0  0  0  0  0  0  0
   16.8568   -8.2280   17.3550 N   0  0  0  0  0  0  0  0  0  0  0  0
   18.1417   -8.3751   17.7920 C   0  0  0  0  0  0  0  0  0  0  0  0
   18.9209   -8.2973   16.6681 C   0  0  0  0  0  0  0  0  0  0  0  0
   20.3241   -8.3545   16.5905 C   0  0  0  0  0  0  0  0  0  0  0  0
   21.3566   -8.7302   17.6308 C   0  0  2  0  0  0  0  0  0  0  0  0
   20.9980   -9.9483   18.2787 O   0  0  0  0  0  0  0  0  0  0  0  0
   21.8057   -7.7456   18.5850 N   0  0  0  0  0  0  0  0  0  0  0  0
   21.1539   -7.7548   19.9094 C   0  0  0  0  0  0  0  0  0  0  0  0
   21.0307   -6.2487   20.2207 C   0  0  1  0  0  0  0  0  0  0  0  0
   22.2942   -5.7250   19.5319 C   0  0  0  0  0  0  0  0  0  0  0  0
   21.8873   -6.3226   18.1836 C   0  0  2  0  0  0  0  0  0  0  0  0
   20.5257   -5.5832   18.0229 C   0  0  0  0  0  0  0  0  0  0  0  0
   19.9061   -5.7639   19.3700 N   0  0  0  0  0  0  0  0  0  0  0  0
   19.2962   -4.5746   19.7579 C   0  0  0  0  0  0  0  0  0  0  0  0
   18.0816   -4.2343   19.1575 C   0  0  0  0  0  0  0  0  0  0  0  0
   17.5576   -2.9636   19.3488 C   0  0  0  0  0  0  0  0  0  0  0  0
   18.2797   -2.0722   20.1243 C   0  0  0  0  0  0  0  0  0  0  0  0
   17.7531   -0.2847   20.3787 Br  0  0  0  0  0  0  0  0  0  0  0  0
   19.4448   -2.5051   20.7295 C   0  0  0  0  0  0  0  0  0  0  0  0
   19.9538   -3.7403   20.5827 N   0  0  0  0  0  0  0  0  0  0  0  0
   20.7409   -8.1040   15.2474 C   0  0  0  0  0  0  0  0  0  0  0  0
   19.8584   -7.9406   14.1409 C   0  0  0  0  0  0  0  0  0  0  0  0
   20.6191   -7.6877   12.4178 Br  0  0  0  0  0  0  0  0  0  0  0  0
   18.4614   -7.9985   14.2473 C   0  0  0  0  0  0  0  0  0  0  0  0
   18.0021   -8.1390   15.5632 C   0  0  0  0  0  0  0  0  0  0  0  0
   16.7388   -8.1905   16.0158 N   0  0  0  0  0  0  0  0  0  0  0  0
  1  2  1  0
  2  3  1  0
  3  4  2  0
  4  5  1  0
  5  6  1  0
  6  7  1  1
  6  8  1  0
  8  9  1  0
 10  9  1  6
 10 11  1  0
 11 12  1  0
 12 13  1  1
 13 14  1  0
 14 15  1  0
 15 16  2  0
 16 17  1  0
 17 18  2  0
 18 19  1  0
 18 20  1  0
 20 21  2  0
  5 22  2  0
 22 23  1  0
 23 24  1  0
 23 25  2  0
 25 26  1  0
 26 27  2  0
 27  2  1  0
 26  4  1  0
 12  8  1  0
 21 15  1  0
 14 10  1  0
M  END
>  <energy_score>  (1016) 
-39.802862

>  <inchikey>  (1016) 
None

>  <smiles>  (1016) 
None

>  <ref_pdb>  (1016) 
A1105b

>  <alias>  (1016) 
None

>  <HIPPO Pose ID>  (1016) 
498660

>  <name>  (1016) 
P498660

>  <HIPPO Compound ID>  (1016) 
293454

>  <ref_mols>  (1016) 
A0497a,A1105b

>  <distance_score>  (1016) 
1.542584

>  <inspiration_score>  (1016) 
None

$$$$
P498661
     RDKit          3D

 27 31  0  0  0  0  0  0  0  0999 V2000
   15.6434   -7.6843   17.9521 C   0  0  0  0  0  0  0  0  0  0  0  0
   16.8612   -7.6638   17.1759 N   0  0  0  0  0  0  0  0  0  0  0  0
   18.0616   -7.1439   17.5694 C   0  0  0  0  0  0  0  0  0  0  0  0
   18.8932   -7.3091   16.4919 C   0  0  0  0  0  0  0  0  0  0  0  0
   20.2452   -6.9355   16.4059 C   0  0  0  0  0  0  0  0  0  0  0  0
   21.0929   -6.3661   17.5058 C   0  0  1  0  0  0  0  0  0  0  0  0
   21.7107   -7.4905   18.1132 O   0  0  0  0  0  0  0  0  0  0  0  0
   22.1746   -5.4567   17.1163 N   0  0  0  0  0  0  0  0  0  0  0  0
   22.6830   -4.7678   18.3519 C   0  0  0  0  0  0  0  0  0  0  0  0
   22.4002   -3.2697   18.0956 C   0  0  1  0  0  0  0  0  0  0  0  0
   22.7870   -3.2385   16.6160 C   0  0  0  0  0  0  0  0  0  0  0  0
   21.7412   -4.2971   16.2571 C   0  0  2  0  0  0  0  0  0  0  0  0
   20.4699   -3.5571   16.7558 C   0  0  0  0  0  0  0  0  0  0  0  0
   20.9363   -2.9660   18.0262 N   0  0  0  0  0  0  0  0  0  0  0  0
   20.1585   -3.2285   19.1430 C   0  0  0  0  0  0  0  0  0  0  0  0
   18.7623   -3.2094   19.0838 C   0  0  0  0  0  0  0  0  0  0  0  0
   18.0147   -3.6383   20.1807 C   0  0  0  0  0  0  0  0  0  0  0  0
   18.6845   -4.0699   21.3137 C   0  0  0  0  0  0  0  0  0  0  0  0
   17.8326   -4.7329   22.8477 Br  0  0  0  0  0  0  0  0  0  0  0  0
   20.0583   -3.9848   21.3279 C   0  0  0  0  0  0  0  0  0  0  0  0
   20.7920   -3.5521   20.2862 N   0  0  0  0  0  0  0  0  0  0  0  0
   20.7598   -7.2757   15.1252 C   0  0  0  0  0  0  0  0  0  0  0  0
   19.9973   -7.8898   14.0866 C   0  0  0  0  0  0  0  0  0  0  0  0
   20.8612   -8.2346   12.4289 Br  0  0  0  0  0  0  0  0  0  0  0  0
   18.6496   -8.2683   14.2166 C   0  0  0  0  0  0  0  0  0  0  0  0
   18.1049   -7.9592   15.4707 C   0  0  0  0  0  0  0  0  0  0  0  0
   16.8675   -8.1975   15.9383 N   0  0  0  0  0  0  0  0  0  0  0  0
  1  2  1  0
  2  3  1  0
  3  4  2  0
  4  5  1  0
  5  6  1  0
  6  7  1  6
  6  8  1  0
  8  9  1  0
 10  9  1  6
 10 11  1  0
 11 12  1  0
 12 13  1  1
 13 14  1  0
 14 15  1  0
 15 16  2  0
 16 17  1  0
 17 18  2  0
 18 19  1  0
 18 20  1  0
 20 21  2  0
  5 22  2  0
 22 23  1  0
 23 24  1  0
 23 25  2  0
 25 26  1  0
 26 27  2  0
 27  2  1  0
 26  4  1  0
 12  8  1  0
 21 15  1  0
 14 10  1  0
M  END
>  <energy_score>  (1017) 
-57.864294

>  <inchikey>  (1017) 
None

>  <smiles>  (1017) 
None

>  <ref_pdb>  (1017) 
A1105b

>  <alias>  (1017) 
None

>  <HIPPO Pose ID>  (1017) 
498661

>  <name>  (1017) 
P498661

>  <HIPPO Compound ID>  (1017) 
293454

>  <ref_mols>  (1017) 
A0497a,A1105b

>  <distance_score>  (1017) 
1.192897

>  <inspiration_score>  (1017) 
None

$$$$
P498662
     RDKit          3D

 27 31  0  0  0  0  0  0  0  0999 V2000
   16.2005   -8.4269   18.1275 C   0  0  0  0  0  0  0  0  0  0  0  0
   17.3344   -8.2270   17.2557 N   0  0  0  0  0  0  0  0  0  0  0  0
   18.6246   -7.9708   17.6283 C   0  0  0  0  0  0  0  0  0  0  0  0
   19.3186   -7.7990   16.4590 C   0  0  0  0  0  0  0  0  0  0  0  0
   20.6884   -7.5019   16.3030 C   0  0  0  0  0  0  0  0  0  0  0  0
   21.7998   -7.3678   17.3258 C   0  0  2  0  0  0  0  0  0  0  0  0
   21.9934   -8.6512   17.8953 O   0  0  0  0  0  0  0  0  0  0  0  0
   21.5019   -6.4261   18.3747 N   0  0  0  0  0  0  0  0  0  0  0  0
   21.3700   -5.0268   17.8604 C   0  0  0  0  0  0  0  0  0  0  0  0
   22.0032   -4.1994   19.0149 C   0  0  2  0  0  0  0  0  0  0  0  0
   23.2916   -5.0151   19.1459 C   0  0  0  0  0  0  0  0  0  0  0  0
   22.5260   -6.2981   19.4568 C   0  0  1  0  0  0  0  0  0  0  0  0
   21.7827   -5.8098   20.7377 C   0  0  0  0  0  0  0  0  0  0  0  0
   21.3035   -4.4574   20.3429 N   0  0  0  0  0  0  0  0  0  0  0  0
   19.9327   -4.2175   20.1452 C   0  0  0  0  0  0  0  0  0  0  0  0
   19.0064   -5.2526   20.0362 C   0  0  0  0  0  0  0  0  0  0  0  0
   17.8242   -5.0362   19.3480 C   0  0  0  0  0  0  0  0  0  0  0  0
   17.4951   -3.7665   18.9293 C   0  0  0  0  0  0  0  0  0  0  0  0
   15.8414   -3.5173   18.0803 Br  0  0  0  0  0  0  0  0  0  0  0  0
   18.3881   -2.7539   19.2001 C   0  0  0  0  0  0  0  0  0  0  0  0
   19.5941   -2.9575   19.7869 N   0  0  0  0  0  0  0  0  0  0  0  0
   21.0024   -7.4142   14.9166 C   0  0  0  0  0  0  0  0  0  0  0  0
   20.0779   -7.6528   13.8566 C   0  0  0  0  0  0  0  0  0  0  0  0
   20.7158   -7.5205   12.0697 Br  0  0  0  0  0  0  0  0  0  0  0  0
   18.7320   -7.9998   14.0519 C   0  0  0  0  0  0  0  0  0  0  0  0
   18.3591   -8.0459   15.4007 C   0  0  0  0  0  0  0  0  0  0  0  0
   17.1589   -8.3402   15.9282 N   0  0  0  0  0  0  0  0  0  0  0  0
  1  2  1  0
  2  3  1  0
  3  4  2  0
  4  5  1  0
  5  6  1  0
  6  7  1  1
  6  8  1  0
  8  9  1  0
 10  9  1  6
 10 11  1  0
 11 12  1  0
 12 13  1  1
 13 14  1  0
 14 15  1  0
 15 16  2  0
 16 17  1  0
 17 18  2  0
 18 19  1  0
 18 20  1  0
 20 21  2  0
  5 22  2  0
 22 23  1  0
 23 24  1  0
 23 25  2  0
 25 26  1  0
 26 27  2  0
 27  2  1  0
 26  4  1  0
 12  8  1  0
 21 15  1  0
 14 10  1  0
M  END
>  <energy_score>  (1018) 
-19.713372

>  <inchikey>  (1018) 
None

>  <smiles>  (1018) 
None

>  <ref_pdb>  (1018) 
A1105b

>  <alias>  (1018) 
None

>  <HIPPO Pose ID>  (1018) 
498662

>  <name>  (1018) 
P498662

>  <HIPPO Compound ID>  (1018) 
293454

>  <ref_mols>  (1018) 
A0497a,A1105b

>  <distance_score>  (1018) 
1.243704

>  <inspiration_score>  (1018) 
None

$$$$
P498663
     RDKit          3D

 27 31  0  0  0  0  0  0  0  0999 V2000
   15.7027   -7.3491   17.6672 C   0  0  0  0  0  0  0  0  0  0  0  0
   16.9325   -7.4499   16.9159 N   0  0  0  0  0  0  0  0  0  0  0  0
   17.9496   -6.5414   16.9025 C   0  0  0  0  0  0  0  0  0  0  0  0
   18.8788   -7.0236   16.0139 C   0  0  0  0  0  0  0  0  0  0  0  0
   20.0963   -6.4307   15.6021 C   0  0  0  0  0  0  0  0  0  0  0  0
   20.7231   -5.0862   15.9237 C   0  0  1  0  0  0  0  0  0  0  0  0
   19.8082   -4.2381   16.5888 O   0  0  0  0  0  0  0  0  0  0  0  0
   22.0563   -5.1419   16.5671 N   0  0  0  0  0  0  0  0  0  0  0  0
   22.4376   -3.7636   17.0515 C   0  0  0  0  0  0  0  0  0  0  0  0
   22.4445   -3.9138   18.5972 C   0  0  2  0  0  0  0  0  0  0  0  0
   23.1668   -5.2590   18.6630 C   0  0  0  0  0  0  0  0  0  0  0  0
   22.0880   -5.9579   17.8281 C   0  0  1  0  0  0  0  0  0  0  0  0
   20.9055   -5.6770   18.7706 C   0  0  0  0  0  0  0  0  0  0  0  0
   21.0494   -4.2150   18.9683 N   0  0  0  0  0  0  0  0  0  0  0  0
   20.3789   -3.8419   20.0978 C   0  0  0  0  0  0  0  0  0  0  0  0
   18.9948   -3.6572   19.9744 C   0  0  0  0  0  0  0  0  0  0  0  0
   18.1836   -3.8942   21.0724 C   0  0  0  0  0  0  0  0  0  0  0  0
   18.7915   -4.3209   22.2405 C   0  0  0  0  0  0  0  0  0  0  0  0
   17.8349   -5.0066   23.7018 Br  0  0  0  0  0  0  0  0  0  0  0  0
   20.1724   -4.3203   22.3146 C   0  0  0  0  0  0  0  0  0  0  0  0
   20.9816   -4.0575   21.2750 N   0  0  0  0  0  0  0  0  0  0  0  0
   20.7391   -7.2591   14.6412 C   0  0  0  0  0  0  0  0  0  0  0  0
   20.2102   -8.4846   14.1471 C   0  0  0  0  0  0  0  0  0  0  0  0
   21.2171   -9.4300   12.8412 Br  0  0  0  0  0  0  0  0  0  0  0  0
   18.9858   -9.0356   14.5587 C   0  0  0  0  0  0  0  0  0  0  0  0
   18.3196   -8.2680   15.5235 C   0  0  0  0  0  0  0  0  0  0  0  0
   17.1362   -8.5109   16.1139 N   0  0  0  0  0  0  0  0  0  0  0  0
  1  2  1  0
  2  3  1  0
  3  4  2  0
  4  5  1  0
  5  6  1  0
  6  7  1  1
  6  8  1  0
  8  9  1  0
 10  9  1  6
 10 11  1  0
 11 12  1  0
 12 13  1  1
 13 14  1  0
 14 15  1  0
 15 16  2  0
 16 17  1  0
 17 18  2  0
 18 19  1  0
 18 20  1  0
 20 21  2  0
  5 22  2  0
 22 23  1  0
 23 24  1  0
 23 25  2  0
 25 26  1  0
 26 27  2  0
 27  2  1  0
 26  4  1  0
 12  8  1  0
 21 15  1  0
 14 10  1  0
M  END
>  <energy_score>  (1019) 
-13.469655

>  <inchikey>  (1019) 
None

>  <smiles>  (1019) 
None

>  <ref_pdb>  (1019) 
A1105b

>  <alias>  (1019) 
None

>  <HIPPO Pose ID>  (1019) 
498663

>  <name>  (1019) 
P498663

>  <HIPPO Compound ID>  (1019) 
293454

>  <ref_mols>  (1019) 
A0497a,A1105b

>  <distance_score>  (1019) 
1.670867

>  <inspiration_score>  (1019) 
None

$$$$
P498664
     RDKit          3D

 27 30  0  0  0  0  0  0  0  0999 V2000
   18.6555   -2.5524   18.5252 C   0  0  0  0  0  0  0  0  0  0  0  0
   17.7751   -3.4580   19.1686 O   0  0  0  0  0  0  0  0  0  0  0  0
   17.7684   -4.7605   18.5812 C   0  0  1  0  0  0  0  0  0  0  0  0
   18.3710   -5.6828   19.5236 N   0  0  0  0  0  0  0  0  0  0  0  0
   19.7461   -5.3192   19.9108 C   0  0  1  0  0  0  0  0  0  0  0  0
   20.2918   -6.4283   20.7960 C   0  0  0  0  0  0  0  0  0  0  0  0
   20.7151   -7.5210   19.8000 C   0  0  0  0  0  0  0  0  0  0  0  0
   21.0700   -6.8130   18.5514 N   0  0  0  0  0  0  0  0  0  0  0  0
   20.3612   -7.2120   17.3892 C   0  0  0  0  0  0  0  0  0  0  0  0
   19.0927   -7.6822   17.4999 N   0  0  0  0  0  0  0  0  0  0  0  0
   18.3936   -7.8853   16.3599 C   0  0  0  0  0  0  0  0  0  0  0  0
   18.8830   -7.6413   15.0956 C   0  0  0  0  0  0  0  0  0  0  0  0
   20.1826   -7.1846   14.9783 C   0  0  0  0  0  0  0  0  0  0  0  0
   20.9286   -6.9834   16.1258 C   0  0  0  0  0  0  0  0  0  0  0  0
   22.1960   -6.5750   15.9908 F   0  0  0  0  0  0  0  0  0  0  0  0
   20.8092   -5.3692   18.7779 C   0  0  0  0  0  0  0  0  0  0  0  0
   16.3395   -5.1411   18.1734 C   0  0  0  0  0  0  0  0  0  0  0  0
   15.4854   -4.0615   17.7601 C   0  0  0  0  0  0  0  0  0  0  0  0
   14.1988   -4.1800   17.1859 C   0  0  0  0  0  0  0  0  0  0  0  0
   13.6254   -5.4150   16.9092 C   0  0  0  0  0  0  0  0  0  0  0  0
   14.3663   -6.5244   17.3242 C   0  0  0  0  0  0  0  0  0  0  0  0
   14.0439   -7.8145   17.1635 N   0  0  0  0  0  0  0  0  0  0  0  0
   14.9376   -8.4658   17.9117 N   0  0  0  0  0  0  0  0  0  0  0  0
   14.7772   -9.8952   18.0625 C   0  0  0  0  0  0  0  0  0  0  0  0
   15.8761   -7.6617   18.5205 C   0  0  0  0  0  0  0  0  0  0  0  0
   16.7266   -8.2473   19.5937 C   0  0  0  0  0  0  0  0  0  0  0  0
   15.6619   -6.3916   17.9882 C   0  0  0  0  0  0  0  0  0  0  0  0
  1  2  1  0
  2  3  1  0
  3  4  1  1
  5  4  1  6
  5  6  1  0
  6  7  1  0
  7  8  1  0
  8  9  1  0
  9 10  2  0
 10 11  1  0
 11 12  2  0
 12 13  1  0
 13 14  2  0
 14 15  1  0
  8 16  1  0
  3 17  1  0
 17 18  2  0
 18 19  1  0
 19 20  2  0
 20 21  1  0
 21 22  2  0
 22 23  1  0
 23 24  1  0
 23 25  1  0
 25 26  1  0
 25 27  2  0
 16  5  1  0
 27 17  1  0
 14  9  1  0
 27 21  1  0
M  END
>  <energy_score>  (1020) 
-62.756392

>  <inchikey>  (1020) 
None

>  <smiles>  (1020) 
None

>  <ref_pdb>  (1020) 
A1105b

>  <alias>  (1020) 
None

>  <HIPPO Pose ID>  (1020) 
498664

>  <name>  (1020) 
P498664

>  <HIPPO Compound ID>  (1020) 
293455

>  <ref_mols>  (1020) 
A0497a,A1105b

>  <distance_score>  (1020) 
1.694117

>  <inspiration_score>  (1020) 
None

$$$$
P498665
     RDKit          3D

 27 30  0  0  0  0  0  0  0  0999 V2000
   18.2011   -2.1933   19.4820 C   0  0  0  0  0  0  0  0  0  0  0  0
   18.1149   -3.2216   18.5063 O   0  0  0  0  0  0  0  0  0  0  0  0
   17.6505   -4.4421   19.0620 C   0  0  2  0  0  0  0  0  0  0  0  0
   18.6755   -5.4374   19.0336 N   0  0  0  0  0  0  0  0  0  0  0  0
   20.0231   -5.1727   19.5253 C   0  0  2  0  0  0  0  0  0  0  0  0
   20.8689   -4.1176   18.8061 C   0  0  0  0  0  0  0  0  0  0  0  0
   21.1612   -4.7450   17.4384 C   0  0  0  0  0  0  0  0  0  0  0  0
   21.1973   -6.2087   17.6938 N   0  0  0  0  0  0  0  0  0  0  0  0
   20.3754   -6.9199   16.7869 C   0  0  0  0  0  0  0  0  0  0  0  0
   19.4446   -7.7771   17.2824 N   0  0  0  0  0  0  0  0  0  0  0  0
   18.5842   -8.3725   16.4328 C   0  0  0  0  0  0  0  0  0  0  0  0
   18.6064   -8.1969   15.0709 C   0  0  0  0  0  0  0  0  0  0  0  0
   19.5877   -7.3761   14.5490 C   0  0  0  0  0  0  0  0  0  0  0  0
   20.4627   -6.7244   15.4018 C   0  0  0  0  0  0  0  0  0  0  0  0
   21.3427   -5.8808   14.8479 F   0  0  0  0  0  0  0  0  0  0  0  0
   20.8849   -6.4134   19.1339 C   0  0  0  0  0  0  0  0  0  0  0  0
   16.4089   -4.9225   18.3006 C   0  0  0  0  0  0  0  0  0  0  0  0
   15.4782   -3.9379   17.8369 C   0  0  0  0  0  0  0  0  0  0  0  0
   14.2364   -4.1957   17.1981 C   0  0  0  0  0  0  0  0  0  0  0  0
   13.7832   -5.4878   16.9302 C   0  0  0  0  0  0  0  0  0  0  0  0
   14.6211   -6.5110   17.3849 C   0  0  0  0  0  0  0  0  0  0  0  0
   14.4220   -7.8326   17.2841 N   0  0  0  0  0  0  0  0  0  0  0  0
   15.3541   -8.3639   18.0841 N   0  0  0  0  0  0  0  0  0  0  0  0
   15.2857   -9.7846   18.3447 C   0  0  0  0  0  0  0  0  0  0  0  0
   16.2188   -7.4527   18.6484 C   0  0  0  0  0  0  0  0  0  0  0  0
   17.1549   -7.8809   19.7265 C   0  0  0  0  0  0  0  0  0  0  0  0
   15.8736   -6.2319   18.0782 C   0  0  0  0  0  0  0  0  0  0  0  0
  1  2  1  0
  2  3  1  0
  3  4  1  6
  5  4  1  6
  5  6  1  0
  6  7  1  0
  7  8  1  0
  8  9  1  0
  9 10  2  0
 10 11  1  0
 11 12  2  0
 12 13  1  0
 13 14  2  0
 14 15  1  0
  8 16  1  0
  3 17  1  0
 17 18  2  0
 18 19  1  0
 19 20  2  0
 20 21  1  0
 21 22  2  0
 22 23  1  0
 23 24  1  0
 23 25  1  0
 25 26  1  0
 25 27  2  0
 16  5  1  0
 27 17  1  0
 14  9  1  0
 27 21  1  0
M  END
>  <energy_score>  (1021) 
-28.818662

>  <inchikey>  (1021) 
None

>  <smiles>  (1021) 
None

>  <ref_pdb>  (1021) 
A1105b

>  <alias>  (1021) 
None

>  <HIPPO Pose ID>  (1021) 
498665

>  <name>  (1021) 
P498665

>  <HIPPO Compound ID>  (1021) 
293455

>  <ref_mols>  (1021) 
A0497a,A1105b

>  <distance_score>  (1021) 
1.712037

>  <inspiration_score>  (1021) 
None

$$$$
P498666
     RDKit          3D

 27 31  0  0  0  0  0  0  0  0999 V2000
   15.5815   -8.1360   18.0448 C   0  0  0  0  0  0  0  0  0  0  0  0
   16.8515   -8.1023   17.3577 N   0  0  0  0  0  0  0  0  0  0  0  0
   18.0903   -8.0311   17.9292 C   0  0  0  0  0  0  0  0  0  0  0  0
   18.9655   -7.8664   16.8877 C   0  0  0  0  0  0  0  0  0  0  0  0
   20.3614   -7.6930   16.9520 C   0  0  0  0  0  0  0  0  0  0  0  0
   21.3230   -7.7571   18.1280 C   0  0  2  0  0  0  0  0  0  0  0  0
   21.1947   -8.9783   18.8427 O   0  0  0  0  0  0  0  0  0  0  0  0
   21.2409   -6.6071   18.9837 N   0  0  0  0  0  0  0  0  0  0  0  0
   20.2636   -6.6576   20.0846 C   0  0  0  0  0  0  0  0  0  0  0  0
   20.9773   -5.8352   21.1902 C   0  0  1  0  0  0  0  0  0  0  0  0
   22.3585   -6.4847   21.0772 C   0  0  0  0  0  0  0  0  0  0  0  0
   22.4885   -6.1029   19.6079 C   0  0  2  0  0  0  0  0  0  0  0  0
   22.3511   -4.5513   19.7580 C   0  0  0  0  0  0  0  0  0  0  0  0
   21.2341   -4.4086   20.7537 N   0  0  0  0  0  0  0  0  0  0  0  0
   20.0585   -3.8475   20.1982 C   0  0  0  0  0  0  0  0  0  0  0  0
   18.9130   -3.7514   20.9787 C   0  0  0  0  0  0  0  0  0  0  0  0
   17.6862   -3.5566   20.3557 C   0  0  0  0  0  0  0  0  0  0  0  0
   17.6193   -3.4877   18.9746 C   0  0  0  0  0  0  0  0  0  0  0  0
   15.9611   -3.5970   18.0967 Br  0  0  0  0  0  0  0  0  0  0  0  0
   18.8041   -3.4424   18.2808 C   0  0  0  0  0  0  0  0  0  0  0  0
   20.0077   -3.5750   18.8805 N   0  0  0  0  0  0  0  0  0  0  0  0
   20.8709   -7.5050   15.6316 C   0  0  0  0  0  0  0  0  0  0  0  0
   20.0975   -7.5862   14.4396 C   0  0  0  0  0  0  0  0  0  0  0  0
   20.7355   -7.4328   13.2681 F   0  0  0  0  0  0  0  0  0  0  0  0
   18.7254   -7.8522   14.4115 C   0  0  0  0  0  0  0  0  0  0  0  0
   18.1567   -7.9562   15.6853 C   0  0  0  0  0  0  0  0  0  0  0  0
   16.8744   -8.1844   16.0162 N   0  0  0  0  0  0  0  0  0  0  0  0
  1  2  1  0
  2  3  1  0
  3  4  2  0
  4  5  1  0
  5  6  1  0
  6  7  1  1
  6  8  1  0
  8  9  1  0
 10  9  1  6
 10 11  1  0
 11 12  1  0
 12 13  1  1
 13 14  1  0
 14 15  1  0
 15 16  2  0
 16 17  1  0
 17 18  2  0
 18 19  1  0
 18 20  1  0
 20 21  2  0
  5 22  2  0
 22 23  1  0
 23 24  1  0
 23 25  2  0
 25 26  1  0
 26 27  2  0
 27  2  1  0
 26  4  1  0
 12  8  1  0
 21 15  1  0
 14 10  1  0
M  END
>  <energy_score>  (1022) 
-28.234262

>  <inchikey>  (1022) 
None

>  <smiles>  (1022) 
None

>  <ref_pdb>  (1022) 
A1105b

>  <alias>  (1022) 
None

>  <HIPPO Pose ID>  (1022) 
498666

>  <name>  (1022) 
P498666

>  <HIPPO Compound ID>  (1022) 
293456

>  <ref_mols>  (1022) 
A0497a,A1105b

>  <distance_score>  (1022) 
1.486824

>  <inspiration_score>  (1022) 
None

$$$$
P498667
     RDKit          3D

 27 31  0  0  0  0  0  0  0  0999 V2000
   16.2328   -7.6468   18.3218 C   0  0  0  0  0  0  0  0  0  0  0  0
   17.2935   -7.6973   17.3448 N   0  0  0  0  0  0  0  0  0  0  0  0
   18.5894   -7.3047   17.5271 C   0  0  0  0  0  0  0  0  0  0  0  0
   19.1912   -7.4792   16.3078 C   0  0  0  0  0  0  0  0  0  0  0  0
   20.5266   -7.1910   15.9695 C   0  0  0  0  0  0  0  0  0  0  0  0
   21.6419   -6.7338   16.8763 C   0  0  1  0  0  0  0  0  0  0  0  0
   22.9212   -6.8876   16.2816 O   0  0  0  0  0  0  0  0  0  0  0  0
   21.4358   -5.3960   17.3242 N   0  0  0  0  0  0  0  0  0  0  0  0
   22.2431   -4.9573   18.4706 C   0  0  0  0  0  0  0  0  0  0  0  0
   22.2948   -3.4216   18.2308 C   0  0  1  0  0  0  0  0  0  0  0  0
   22.7243   -3.4661   16.7605 C   0  0  0  0  0  0  0  0  0  0  0  0
   21.4977   -4.2769   16.3550 C   0  0  2  0  0  0  0  0  0  0  0  0
   20.3909   -3.2944   16.8226 C   0  0  0  0  0  0  0  0  0  0  0  0
   20.9118   -2.8156   18.1393 N   0  0  0  0  0  0  0  0  0  0  0  0
   20.1095   -3.0727   19.2516 C   0  0  0  0  0  0  0  0  0  0  0  0
   18.7149   -3.0887   19.1832 C   0  0  0  0  0  0  0  0  0  0  0  0
   17.9724   -3.5672   20.2638 C   0  0  0  0  0  0  0  0  0  0  0  0
   18.6435   -3.9916   21.3981 C   0  0  0  0  0  0  0  0  0  0  0  0
   17.8103   -4.7557   22.8944 Br  0  0  0  0  0  0  0  0  0  0  0  0
   20.0084   -3.8298   21.4407 C   0  0  0  0  0  0  0  0  0  0  0  0
   20.7357   -3.3548   20.4153 N   0  0  0  0  0  0  0  0  0  0  0  0
   20.7201   -7.3994   14.5782 C   0  0  0  0  0  0  0  0  0  0  0  0
   19.7292   -7.9063   13.6938 C   0  0  0  0  0  0  0  0  0  0  0  0
   20.0686   -8.0674   12.4046 F   0  0  0  0  0  0  0  0  0  0  0  0
   18.4281   -8.2549   14.0772 C   0  0  0  0  0  0  0  0  0  0  0  0
   18.1666   -7.9995   15.4279 C   0  0  0  0  0  0  0  0  0  0  0  0
   17.0290   -8.1858   16.1172 N   0  0  0  0  0  0  0  0  0  0  0  0
  1  2  1  0
  2  3  1  0
  3  4  2  0
  4  5  1  0
  5  6  1  0
  6  7  1  6
  6  8  1  0
  8  9  1  0
 10  9  1  6
 10 11  1  0
 11 12  1  0
 12 13  1  1
 13 14  1  0
 14 15  1  0
 15 16  2  0
 16 17  1  0
 17 18  2  0
 18 19  1  0
 18 20  1  0
 20 21  2  0
  5 22  2  0
 22 23  1  0
 23 24  1  0
 23 25  2  0
 25 26  1  0
 26 27  2  0
 27  2  1  0
 26  4  1  0
 12  8  1  0
 21 15  1  0
 14 10  1  0
M  END
>  <energy_score>  (1023) 
-32.556533

>  <inchikey>  (1023) 
None

>  <smiles>  (1023) 
None

>  <ref_pdb>  (1023) 
A1105b

>  <alias>  (1023) 
None

>  <HIPPO Pose ID>  (1023) 
498667

>  <name>  (1023) 
P498667

>  <HIPPO Compound ID>  (1023) 
293456

>  <ref_mols>  (1023) 
A0497a,A1105b

>  <distance_score>  (1023) 
1.38018

>  <inspiration_score>  (1023) 
None

$$$$
P498668
     RDKit          3D

 27 31  0  0  0  0  0  0  0  0999 V2000
   16.1929   -8.4412   18.1576 C   0  0  0  0  0  0  0  0  0  0  0  0
   17.3190   -8.2413   17.2754 N   0  0  0  0  0  0  0  0  0  0  0  0
   18.6131   -7.9864   17.6364 C   0  0  0  0  0  0  0  0  0  0  0  0
   19.2958   -7.8110   16.4610 C   0  0  0  0  0  0  0  0  0  0  0  0
   20.6642   -7.5113   16.2918 C   0  0  0  0  0  0  0  0  0  0  0  0
   21.7854   -7.3790   17.3026 C   0  0  2  0  0  0  0  0  0  0  0  0
   21.9808   -8.6613   17.8729 O   0  0  0  0  0  0  0  0  0  0  0  0
   21.4977   -6.4343   18.3516 N   0  0  0  0  0  0  0  0  0  0  0  0
   21.3637   -5.0368   17.8356 C   0  0  0  0  0  0  0  0  0  0  0  0
   22.0041   -4.2077   18.9845 C   0  0  2  0  0  0  0  0  0  0  0  0
   23.2921   -5.0249   19.1113 C   0  0  0  0  0  0  0  0  0  0  0  0
   22.5262   -6.3059   19.4291 C   0  0  1  0  0  0  0  0  0  0  0  0
   21.7895   -5.8121   20.7123 C   0  0  0  0  0  0  0  0  0  0  0  0
   21.3105   -4.4598   20.3150 N   0  0  0  0  0  0  0  0  0  0  0  0
   19.9385   -4.2188   20.1242 C   0  0  0  0  0  0  0  0  0  0  0  0
   19.0110   -5.2540   20.0235 C   0  0  0  0  0  0  0  0  0  0  0  0
   17.8246   -5.0391   19.3421 C   0  0  0  0  0  0  0  0  0  0  0  0
   17.4915   -3.7700   18.9253 C   0  0  0  0  0  0  0  0  0  0  0  0
   15.8361   -3.5243   18.0788 Br  0  0  0  0  0  0  0  0  0  0  0  0
   18.3845   -2.7562   19.1918 C   0  0  0  0  0  0  0  0  0  0  0  0
   19.5985   -2.9592   19.7645 N   0  0  0  0  0  0  0  0  0  0  0  0
   20.9585   -7.4136   14.9033 C   0  0  0  0  0  0  0  0  0  0  0  0
   20.0225   -7.6469   13.8581 C   0  0  0  0  0  0  0  0  0  0  0  0
   20.4612   -7.5384   12.5936 F   0  0  0  0  0  0  0  0  0  0  0  0
   18.6837   -8.0005   14.0601 C   0  0  0  0  0  0  0  0  0  0  0  0
   18.3250   -8.0543   15.4106 C   0  0  0  0  0  0  0  0  0  0  0  0
   17.1310   -8.3518   15.9495 N   0  0  0  0  0  0  0  0  0  0  0  0
  1  2  1  0
  2  3  1  0
  3  4  2  0
  4  5  1  0
  5  6  1  0
  6  7  1  1
  6  8  1  0
  8  9  1  0
 10  9  1  6
 10 11  1  0
 11 12  1  0
 12 13  1  1
 13 14  1  0
 14 15  1  0
 15 16  2  0
 16 17  1  0
 17 18  2  0
 18 19  1  0
 18 20  1  0
 20 21  2  0
  5 22  2  0
 22 23  1  0
 23 24  1  0
 23 25  2  0
 25 26  1  0
 26 27  2  0
 27  2  1  0
 26  4  1  0
 12  8  1  0
 21 15  1  0
 14 10  1  0
M  END
>  <energy_score>  (1024) 
-30.394653

>  <inchikey>  (1024) 
None

>  <smiles>  (1024) 
None

>  <ref_pdb>  (1024) 
A1105b

>  <alias>  (1024) 
None

>  <HIPPO Pose ID>  (1024) 
498668

>  <name>  (1024) 
P498668

>  <HIPPO Compound ID>  (1024) 
293456

>  <ref_mols>  (1024) 
A0497a,A1105b

>  <distance_score>  (1024) 
1.246363

>  <inspiration_score>  (1024) 
None

$$$$
P498669
     RDKit          3D

 27 31  0  0  0  0  0  0  0  0999 V2000
   16.0679   -7.6265   18.3062 C   0  0  0  0  0  0  0  0  0  0  0  0
   17.1713   -7.6618   17.3768 N   0  0  0  0  0  0  0  0  0  0  0  0
   18.4383   -7.1969   17.5982 C   0  0  0  0  0  0  0  0  0  0  0  0
   19.1151   -7.4322   16.4297 C   0  0  0  0  0  0  0  0  0  0  0  0
   20.4554   -7.1224   16.1415 C   0  0  0  0  0  0  0  0  0  0  0  0
   21.4997   -6.4550   17.0087 C   0  0  1  0  0  0  0  0  0  0  0  0
   22.5551   -7.3817   17.1831 O   0  0  0  0  0  0  0  0  0  0  0  0
   22.0409   -5.2678   16.3550 N   0  0  0  0  0  0  0  0  0  0  0  0
   20.9633   -4.2425   16.2269 C   0  0  0  0  0  0  0  0  0  0  0  0
   21.5236   -3.0168   16.9526 C   0  0  2  0  0  0  0  0  0  0  0  0
   22.9889   -3.1346   16.5143 C   0  0  0  0  0  0  0  0  0  0  0  0
   23.1215   -4.5417   17.0986 C   0  0  1  0  0  0  0  0  0  0  0  0
   22.7800   -4.2113   18.5714 C   0  0  0  0  0  0  0  0  0  0  0  0
   21.6349   -3.2753   18.4047 N   0  0  0  0  0  0  0  0  0  0  0  0
   20.6092   -3.4998   19.2853 C   0  0  0  0  0  0  0  0  0  0  0  0
   19.2526   -3.3329   19.0149 C   0  0  0  0  0  0  0  0  0  0  0  0
   18.3058   -3.6851   19.9910 C   0  0  0  0  0  0  0  0  0  0  0  0
   18.7564   -4.1603   21.2157 C   0  0  0  0  0  0  0  0  0  0  0  0
   17.6783   -4.6273   22.6676 Br  0  0  0  0  0  0  0  0  0  0  0  0
   20.1077   -4.2566   21.4234 C   0  0  0  0  0  0  0  0  0  0  0  0
   21.0142   -3.9309   20.4987 N   0  0  0  0  0  0  0  0  0  0  0  0
   20.7463   -7.4736   14.7919 C   0  0  0  0  0  0  0  0  0  0  0  0
   19.8223   -8.0672   13.8914 C   0  0  0  0  0  0  0  0  0  0  0  0
   20.2468   -8.3339   12.6458 F   0  0  0  0  0  0  0  0  0  0  0  0
   18.5013   -8.3919   14.2186 C   0  0  0  0  0  0  0  0  0  0  0  0
   18.1575   -8.0467   15.5309 C   0  0  0  0  0  0  0  0  0  0  0  0
   16.9830   -8.2078   16.1611 N   0  0  0  0  0  0  0  0  0  0  0  0
  1  2  1  0
  2  3  1  0
  3  4  2  0
  4  5  1  0
  5  6  1  0
  6  7  1  6
  6  8  1  0
  8  9  1  0
 10  9  1  6
 10 11  1  0
 11 12  1  0
 12 13  1  1
 13 14  1  0
 14 15  1  0
 15 16  2  0
 16 17  1  0
 17 18  2  0
 18 19  1  0
 18 20  1  0
 20 21  2  0
  5 22  2  0
 22 23  1  0
 23 24  1  0
 23 25  2  0
 25 26  1  0
 26 27  2  0
 27  2  1  0
 26  4  1  0
 12  8  1  0
 21 15  1  0
 14 10  1  0
M  END
>  <energy_score>  (1025) 
-36.315178

>  <inchikey>  (1025) 
None

>  <smiles>  (1025) 
None

>  <ref_pdb>  (1025) 
A1105b

>  <alias>  (1025) 
None

>  <HIPPO Pose ID>  (1025) 
498669

>  <name>  (1025) 
P498669

>  <HIPPO Compound ID>  (1025) 
293456

>  <ref_mols>  (1025) 
A0497a,A1105b

>  <distance_score>  (1025) 
1.335822

>  <inspiration_score>  (1025) 
None

$$$$
P498670
     RDKit          3D

 27 30  0  0  0  0  0  0  0  0999 V2000
   18.7187   -2.7458   18.0423 C   0  0  0  0  0  0  0  0  0  0  0  0
   18.1969   -3.2967   19.2236 O   0  0  0  0  0  0  0  0  0  0  0  0
   17.8169   -4.6671   19.2086 C   0  0  2  0  0  0  0  0  0  0  0  0
   18.8901   -5.6323   19.2353 N   0  0  0  0  0  0  0  0  0  0  0  0
   20.2620   -5.1433   19.1958 C   0  0  1  0  0  0  0  0  0  0  0  0
   21.1565   -6.1299   19.9264 C   0  0  0  0  0  0  0  0  0  0  0  0
   21.3746   -7.2666   18.9199 C   0  0  0  0  0  0  0  0  0  0  0  0
   21.2110   -6.6644   17.5771 N   0  0  0  0  0  0  0  0  0  0  0  0
   20.2419   -7.2777   16.7480 C   0  0  0  0  0  0  0  0  0  0  0  0
   19.2816   -8.0408   17.3301 N   0  0  0  0  0  0  0  0  0  0  0  0
   18.3164   -8.5748   16.5566 C   0  0  0  0  0  0  0  0  0  0  0  0
   18.2099   -8.3692   15.2057 C   0  0  0  0  0  0  0  0  0  0  0  0
   19.1953   -7.6170   14.5997 C   0  0  0  0  0  0  0  0  0  0  0  0
   20.2195   -7.0645   15.3601 C   0  0  0  0  0  0  0  0  0  0  0  0
   21.4056   -6.1785   14.4945 Cl  0  0  0  0  0  0  0  0  0  0  0  0
   20.8783   -5.2306   17.7723 C   0  0  0  0  0  0  0  0  0  0  0  0
   16.5931   -5.0511   18.3679 C   0  0  0  0  0  0  0  0  0  0  0  0
   15.7034   -4.0181   17.9181 C   0  0  0  0  0  0  0  0  0  0  0  0
   14.4464   -4.2064   17.2745 C   0  0  0  0  0  0  0  0  0  0  0  0
   13.9288   -5.4697   16.9845 C   0  0  0  0  0  0  0  0  0  0  0  0
   14.7127   -6.5334   17.4438 C   0  0  0  0  0  0  0  0  0  0  0  0
   14.4403   -7.8428   17.3599 N   0  0  0  0  0  0  0  0  0  0  0  0
   15.2906   -8.4053   18.2270 N   0  0  0  0  0  0  0  0  0  0  0  0
   15.0834   -9.7959   18.5671 C   0  0  0  0  0  0  0  0  0  0  0  0
   16.2242   -7.5441   18.7632 C   0  0  0  0  0  0  0  0  0  0  0  0
   17.1179   -7.9993   19.8684 C   0  0  0  0  0  0  0  0  0  0  0  0
   15.9784   -6.3227   18.1426 C   0  0  0  0  0  0  0  0  0  0  0  0
  1  2  1  0
  2  3  1  0
  3  4  1  6
  5  4  1  6
  5  6  1  0
  6  7  1  0
  7  8  1  0
  8  9  1  0
  9 10  2  0
 10 11  1  0
 11 12  2  0
 12 13  1  0
 13 14  2  0
 14 15  1  0
  8 16  1  0
  3 17  1  0
 17 18  2  0
 18 19  1  0
 19 20  2  0
 20 21  1  0
 21 22  2  0
 22 23  1  0
 23 24  1  0
 23 25  1  0
 25 26  1  0
 25 27  2  0
 16  5  1  0
 27 17  1  0
 14  9  1  0
 27 21  1  0
M  END
>  <energy_score>  (1026) 
-45.934191

>  <inchikey>  (1026) 
None

>  <smiles>  (1026) 
None

>  <ref_pdb>  (1026) 
A1105b

>  <alias>  (1026) 
None

>  <HIPPO Pose ID>  (1026) 
498670

>  <name>  (1026) 
P498670

>  <HIPPO Compound ID>  (1026) 
293457

>  <ref_mols>  (1026) 
A0497a,A1105b

>  <distance_score>  (1026) 
1.831145

>  <inspiration_score>  (1026) 
None

$$$$
P498671
     RDKit          3D

 27 30  0  0  0  0  0  0  0  0999 V2000
   18.8374   -3.0262   17.6258 C   0  0  0  0  0  0  0  0  0  0  0  0
   18.2773   -3.4531   18.8482 O   0  0  0  0  0  0  0  0  0  0  0  0
   17.9530   -4.8401   18.8825 C   0  0  1  0  0  0  0  0  0  0  0  0
   18.0880   -5.1906   20.2929 N   0  0  0  0  0  0  0  0  0  0  0  0
   19.4575   -5.4113   20.8079 C   0  0  2  0  0  0  0  0  0  0  0  0
   20.4724   -4.2786   20.6645 C   0  0  0  0  0  0  0  0  0  0  0  0
   21.3293   -4.6417   19.4455 C   0  0  0  0  0  0  0  0  0  0  0  0
   21.1647   -6.0923   19.2220 N   0  0  0  0  0  0  0  0  0  0  0  0
   20.8499   -6.4975   17.9113 C   0  0  0  0  0  0  0  0  0  0  0  0
   19.8197   -7.3713   17.7657 N   0  0  0  0  0  0  0  0  0  0  0  0
   19.2991   -7.6054   16.5415 C   0  0  0  0  0  0  0  0  0  0  0  0
   19.8091   -7.0657   15.3885 C   0  0  0  0  0  0  0  0  0  0  0  0
   20.9445   -6.2792   15.4983 C   0  0  0  0  0  0  0  0  0  0  0  0
   21.4890   -6.0085   16.7565 C   0  0  0  0  0  0  0  0  0  0  0  0
   22.9552   -5.0871   16.7898 Cl  0  0  0  0  0  0  0  0  0  0  0  0
   20.2864   -6.6148   20.2864 C   0  0  0  0  0  0  0  0  0  0  0  0
   16.5600   -5.1092   18.3086 C   0  0  0  0  0  0  0  0  0  0  0  0
   15.6733   -4.0205   18.0142 C   0  0  0  0  0  0  0  0  0  0  0  0
   14.3871   -4.1267   17.4145 C   0  0  0  0  0  0  0  0  0  0  0  0
   13.8352   -5.3427   17.0135 C   0  0  0  0  0  0  0  0  0  0  0  0
   14.6282   -6.4580   17.2989 C   0  0  0  0  0  0  0  0  0  0  0  0
   14.3591   -7.7415   17.0195 N   0  0  0  0  0  0  0  0  0  0  0  0
   15.3284   -8.4219   17.6417 N   0  0  0  0  0  0  0  0  0  0  0  0
   15.2615   -9.8661   17.6258 C   0  0  0  0  0  0  0  0  0  0  0  0
   16.2322   -7.6396   18.3214 C   0  0  0  0  0  0  0  0  0  0  0  0
   17.1416   -8.2635   19.3108 C   0  0  0  0  0  0  0  0  0  0  0  0
   15.9264   -6.3383   17.9575 C   0  0  0  0  0  0  0  0  0  0  0  0
  1  2  1  0
  2  3  1  0
  3  4  1  1
  5  4  1  6
  5  6  1  0
  6  7  1  0
  7  8  1  0
  8  9  1  0
  9 10  2  0
 10 11  1  0
 11 12  2  0
 12 13  1  0
 13 14  2  0
 14 15  1  0
  8 16  1  0
  3 17  1  0
 17 18  2  0
 18 19  1  0
 19 20  2  0
 20 21  1  0
 21 22  2  0
 22 23  1  0
 23 24  1  0
 23 25  1  0
 25 26  1  0
 25 27  2  0
 16  5  1  0
 27 17  1  0
 14  9  1  0
 27 21  1  0
M  END
>  <energy_score>  (1027) 
-42.919686

>  <inchikey>  (1027) 
None

>  <smiles>  (1027) 
None

>  <ref_pdb>  (1027) 
A1105b

>  <alias>  (1027) 
None

>  <HIPPO Pose ID>  (1027) 
498671

>  <name>  (1027) 
P498671

>  <HIPPO Compound ID>  (1027) 
293457

>  <ref_mols>  (1027) 
A0497a,A1105b

>  <distance_score>  (1027) 
1.546379

>  <inspiration_score>  (1027) 
None

$$$$
P498672
     RDKit          3D

 27 30  0  0  0  0  0  0  0  0999 V2000
   18.7782   -2.4700   18.7494 C   0  0  0  0  0  0  0  0  0  0  0  0
   18.4735   -3.7414   18.2048 O   0  0  0  0  0  0  0  0  0  0  0  0
   17.6885   -4.5486   19.0637 C   0  0  2  0  0  0  0  0  0  0  0  0
   18.4919   -5.5961   19.6517 N   0  0  0  0  0  0  0  0  0  0  0  0
   19.7214   -5.1435   20.3187 C   0  0  1  0  0  0  0  0  0  0  0  0
   20.2622   -6.2840   21.1701 C   0  0  0  0  0  0  0  0  0  0  0  0
   21.0351   -7.1828   20.1890 C   0  0  0  0  0  0  0  0  0  0  0  0
   21.3939   -6.3156   19.0446 N   0  0  0  0  0  0  0  0  0  0  0  0
   20.8741   -6.7216   17.7915 C   0  0  0  0  0  0  0  0  0  0  0  0
   21.1482   -5.9597   16.6554 C   0  0  0  0  0  0  0  0  0  0  0  0
   20.4754   -6.2160   15.4700 C   0  0  0  0  0  0  0  0  0  0  0  0
   19.5703   -7.2601   15.4168 C   0  0  0  0  0  0  0  0  0  0  0  0
   19.4113   -8.0464   16.5427 C   0  0  0  0  0  0  0  0  0  0  0  0
   18.5731   -9.2849   16.4552 C   0  0  0  0  0  0  0  0  0  0  0  0
   20.0536   -7.7928   17.7101 N   0  0  0  0  0  0  0  0  0  0  0  0
   20.9505   -4.9435   19.3920 C   0  0  0  0  0  0  0  0  0  0  0  0
   16.4602   -5.0433   18.2917 C   0  0  0  0  0  0  0  0  0  0  0  0
   15.5699   -4.0050   17.8431 C   0  0  0  0  0  0  0  0  0  0  0  0
   14.3093   -4.1846   17.2200 C   0  0  0  0  0  0  0  0  0  0  0  0
   13.7974   -5.4460   16.9317 C   0  0  0  0  0  0  0  0  0  0  0  0
   14.6020   -6.5177   17.3341 C   0  0  0  0  0  0  0  0  0  0  0  0
   14.3393   -7.8202   17.1727 N   0  0  0  0  0  0  0  0  0  0  0  0
   15.2690   -8.4340   17.9102 N   0  0  0  0  0  0  0  0  0  0  0  0
   15.1554   -9.8677   18.0623 C   0  0  0  0  0  0  0  0  0  0  0  0
   16.1745   -7.5919   18.5196 C   0  0  0  0  0  0  0  0  0  0  0  0
   17.0835   -8.1248   19.5702 C   0  0  0  0  0  0  0  0  0  0  0  0
   15.8793   -6.3247   18.0251 C   0  0  0  0  0  0  0  0  0  0  0  0
  1  2  1  0
  2  3  1  0
  3  4  1  6
  5  4  1  6
  5  6  1  0
  6  7  1  0
  7  8  1  0
  8  9  1  0
  9 10  2  0
 10 11  1  0
 11 12  2  0
 12 13  1  0
 13 14  1  0
 13 15  2  0
  8 16  1  0
  3 17  1  0
 17 18  2  0
 18 19  1  0
 19 20  2  0
 20 21  1  0
 21 22  2  0
 22 23  1  0
 23 24  1  0
 23 25  1  0
 25 26  1  0
 25 27  2  0
 16  5  1  0
 27 17  1  0
 15  9  1  0
 27 21  1  0
M  END
>  <energy_score>  (1028) 
-38.610401

>  <inchikey>  (1028) 
None

>  <smiles>  (1028) 
None

>  <ref_pdb>  (1028) 
A1105b

>  <alias>  (1028) 
None

>  <HIPPO Pose ID>  (1028) 
498672

>  <name>  (1028) 
P498672

>  <HIPPO Compound ID>  (1028) 
293458

>  <ref_mols>  (1028) 
A0497a,A1105b

>  <distance_score>  (1028) 
1.751242

>  <inspiration_score>  (1028) 
None

$$$$
P498673
     RDKit          3D

 27 30  0  0  0  0  0  0  0  0999 V2000
   18.5271   -2.2913   18.7632 C   0  0  0  0  0  0  0  0  0  0  0  0
   17.5937   -3.2259   19.2683 O   0  0  0  0  0  0  0  0  0  0  0  0
   17.7224   -4.5409   18.7244 C   0  0  1  0  0  0  0  0  0  0  0  0
   18.2626   -5.4102   19.7478 N   0  0  0  0  0  0  0  0  0  0  0  0
   19.4346   -4.8886   20.4654 C   0  0  1  0  0  0  0  0  0  0  0  0
   19.9103   -5.9837   21.4025 C   0  0  0  0  0  0  0  0  0  0  0  0
   20.6610   -6.9370   20.4679 C   0  0  0  0  0  0  0  0  0  0  0  0
   21.2354   -6.0857   19.4009 N   0  0  0  0  0  0  0  0  0  0  0  0
   20.8929   -6.4502   18.0765 C   0  0  0  0  0  0  0  0  0  0  0  0
   21.6539   -5.9178   17.0333 C   0  0  0  0  0  0  0  0  0  0  0  0
   21.2164   -6.0404   15.7244 C   0  0  0  0  0  0  0  0  0  0  0  0
   20.0373   -6.7144   15.4779 C   0  0  0  0  0  0  0  0  0  0  0  0
   19.3514   -7.2631   16.5475 C   0  0  0  0  0  0  0  0  0  0  0  0
   18.0914   -8.0028   16.2747 C   0  0  0  0  0  0  0  0  0  0  0  0
   19.7604   -7.1400   17.8329 N   0  0  0  0  0  0  0  0  0  0  0  0
   20.7269   -4.7123   19.6304 C   0  0  0  0  0  0  0  0  0  0  0  0
   16.3498   -5.0089   18.2168 C   0  0  0  0  0  0  0  0  0  0  0  0
   15.4507   -3.9847   17.7600 C   0  0  0  0  0  0  0  0  0  0  0  0
   14.1800   -4.1768   17.1684 C   0  0  0  0  0  0  0  0  0  0  0  0
   13.6653   -5.4428   16.9190 C   0  0  0  0  0  0  0  0  0  0  0  0
   14.4562   -6.5041   17.3651 C   0  0  0  0  0  0  0  0  0  0  0  0
   14.1932   -7.8096   17.2315 N   0  0  0  0  0  0  0  0  0  0  0  0
   15.1242   -8.4069   17.9789 N   0  0  0  0  0  0  0  0  0  0  0  0
   15.0367   -9.8422   18.1348 C   0  0  0  0  0  0  0  0  0  0  0  0
   16.0299   -7.5516   18.5713 C   0  0  0  0  0  0  0  0  0  0  0  0
   16.9465   -8.0847   19.6183 C   0  0  0  0  0  0  0  0  0  0  0  0
   15.7386   -6.2955   18.0394 C   0  0  0  0  0  0  0  0  0  0  0  0
  1  2  1  0
  2  3  1  0
  3  4  1  1
  5  4  1  6
  5  6  1  0
  6  7  1  0
  7  8  1  0
  8  9  1  0
  9 10  2  0
 10 11  1  0
 11 12  2  0
 12 13  1  0
 13 14  1  0
 13 15  2  0
  8 16  1  0
  3 17  1  0
 17 18  2  0
 18 19  1  0
 19 20  2  0
 20 21  1  0
 21 22  2  0
 22 23  1  0
 23 24  1  0
 23 25  1  0
 25 26  1  0
 25 27  2  0
 16  5  1  0
 27 17  1  0
 15  9  1  0
 27 21  1  0
M  END
>  <energy_score>  (1029) 
-30.497393

>  <inchikey>  (1029) 
None

>  <smiles>  (1029) 
None

>  <ref_pdb>  (1029) 
A1105b

>  <alias>  (1029) 
None

>  <HIPPO Pose ID>  (1029) 
498673

>  <name>  (1029) 
P498673

>  <HIPPO Compound ID>  (1029) 
293458

>  <ref_mols>  (1029) 
A0497a,A1105b

>  <distance_score>  (1029) 
1.935028

>  <inspiration_score>  (1029) 
None

$$$$
P498674
     RDKit          3D

 27 30  0  0  0  0  0  0  0  0999 V2000
   18.9092   -2.8357   17.7605 C   0  0  0  0  0  0  0  0  0  0  0  0
   18.6689   -4.2051   17.9863 O   0  0  0  0  0  0  0  0  0  0  0  0
   17.7317   -4.4669   19.0016 C   0  0  2  0  0  0  0  0  0  0  0  0
   18.3154   -5.3101   20.0266 N   0  0  0  0  0  0  0  0  0  0  0  0
   19.6066   -4.8828   20.5853 C   0  0  1  0  0  0  0  0  0  0  0  0
   20.0890   -6.0242   21.4764 C   0  0  0  0  0  0  0  0  0  0  0  0
   20.7886   -6.9970   20.5039 C   0  0  0  0  0  0  0  0  0  0  0  0
   21.3101   -6.1597   19.4084 N   0  0  0  0  0  0  0  0  0  0  0  0
   20.8599   -6.5018   18.1003 C   0  0  0  0  0  0  0  0  0  0  0  0
   21.4723   -5.8562   17.0177 C   0  0  0  0  0  0  0  0  0  0  0  0
   20.9530   -5.9870   15.7395 C   0  0  0  0  0  0  0  0  0  0  0  0
   19.8378   -6.7786   15.5573 C   0  0  0  0  0  0  0  0  0  0  0  0
   19.3149   -7.4468   16.6512 C   0  0  0  0  0  0  0  0  0  0  0  0
   18.1251   -8.3150   16.4484 C   0  0  0  0  0  0  0  0  0  0  0  0
   19.8345   -7.3574   17.8973 N   0  0  0  0  0  0  0  0  0  0  0  0
   20.8817   -4.7711   19.7017 C   0  0  0  0  0  0  0  0  0  0  0  0
   16.4449   -4.9828   18.3391 C   0  0  0  0  0  0  0  0  0  0  0  0
   15.5619   -3.9549   17.8508 C   0  0  0  0  0  0  0  0  0  0  0  0
   14.3038   -4.1410   17.2215 C   0  0  0  0  0  0  0  0  0  0  0  0
   13.7763   -5.4032   16.9736 C   0  0  0  0  0  0  0  0  0  0  0  0
   14.5520   -6.4649   17.4472 C   0  0  0  0  0  0  0  0  0  0  0  0
   14.2563   -7.7677   17.3648 N   0  0  0  0  0  0  0  0  0  0  0  0
   15.1535   -8.3544   18.1620 N   0  0  0  0  0  0  0  0  0  0  0  0
   14.9857   -9.7637   18.4395 C   0  0  0  0  0  0  0  0  0  0  0  0
   16.1158   -7.5107   18.6733 C   0  0  0  0  0  0  0  0  0  0  0  0
   17.1125   -8.0302   19.6429 C   0  0  0  0  0  0  0  0  0  0  0  0
   15.8320   -6.2600   18.1335 C   0  0  0  0  0  0  0  0  0  0  0  0
  1  2  1  0
  2  3  1  0
  3  4  1  1
  5  4  1  6
  5  6  1  0
  6  7  1  0
  7  8  1  0
  8  9  1  0
  9 10  2  0
 10 11  1  0
 11 12  2  0
 12 13  1  0
 13 14  1  0
 13 15  2  0
  8 16  1  0
  3 17  1  0
 17 18  2  0
 18 19  1  0
 19 20  2  0
 20 21  1  0
 21 22  2  0
 22 23  1  0
 23 24  1  0
 23 25  1  0
 25 26  1  0
 25 27  2  0
 16  5  1  0
 27 17  1  0
 15  9  1  0
 27 21  1  0
M  END
>  <energy_score>  (1030) 
-24.607231

>  <inchikey>  (1030) 
None

>  <smiles>  (1030) 
None

>  <ref_pdb>  (1030) 
A1105b

>  <alias>  (1030) 
None

>  <HIPPO Pose ID>  (1030) 
498674

>  <name>  (1030) 
P498674

>  <HIPPO Compound ID>  (1030) 
293458

>  <ref_mols>  (1030) 
A0497a,A1105b

>  <distance_score>  (1030) 
1.726555

>  <inspiration_score>  (1030) 
None

$$$$
P498675
     RDKit          3D

 27 30  0  0  0  0  0  0  0  0999 V2000
   18.8592   -3.0145   17.6311 C   0  0  0  0  0  0  0  0  0  0  0  0
   18.2621   -3.3683   18.8588 O   0  0  0  0  0  0  0  0  0  0  0  0
   17.9189   -4.7467   18.9515 C   0  0  1  0  0  0  0  0  0  0  0  0
   18.0235   -5.0335   20.3786 N   0  0  0  0  0  0  0  0  0  0  0  0
   19.3798   -5.2444   20.9257 C   0  0  2  0  0  0  0  0  0  0  0  0
   20.3754   -4.0878   20.8428 C   0  0  0  0  0  0  0  0  0  0  0  0
   21.3156   -4.4245   19.6817 C   0  0  0  0  0  0  0  0  0  0  0  0
   21.1926   -5.8744   19.4412 N   0  0  0  0  0  0  0  0  0  0  0  0
   20.9818   -6.2375   18.0997 C   0  0  0  0  0  0  0  0  0  0  0  0
   21.7578   -5.6820   17.0831 C   0  0  0  0  0  0  0  0  0  0  0  0
   21.3912   -5.8491   15.7533 C   0  0  0  0  0  0  0  0  0  0  0  0
   20.2592   -6.5816   15.4552 C   0  0  0  0  0  0  0  0  0  0  0  0
   19.5739   -7.1780   16.4950 C   0  0  0  0  0  0  0  0  0  0  0  0
   18.3061   -7.8998   16.2027 C   0  0  0  0  0  0  0  0  0  0  0  0
   19.9593   -7.0620   17.7870 N   0  0  0  0  0  0  0  0  0  0  0  0
   20.2361   -6.4293   20.4132 C   0  0  0  0  0  0  0  0  0  0  0  0
   16.5355   -5.0332   18.3603 C   0  0  0  0  0  0  0  0  0  0  0  0
   15.6626   -3.9602   17.9882 C   0  0  0  0  0  0  0  0  0  0  0  0
   14.3870   -4.0946   17.3688 C   0  0  0  0  0  0  0  0  0  0  0  0
   13.8328   -5.3283   17.0274 C   0  0  0  0  0  0  0  0  0  0  0  0
   14.6068   -6.4287   17.4042 C   0  0  0  0  0  0  0  0  0  0  0  0
   14.3297   -7.7259   17.2112 N   0  0  0  0  0  0  0  0  0  0  0  0
   15.2698   -8.3699   17.9139 N   0  0  0  0  0  0  0  0  0  0  0  0
   15.1834   -9.8105   17.9981 C   0  0  0  0  0  0  0  0  0  0  0  0
   16.1839   -7.5518   18.5386 C   0  0  0  0  0  0  0  0  0  0  0  0
   17.1259   -8.1088   19.5402 C   0  0  0  0  0  0  0  0  0  0  0  0
   15.8907   -6.2757   18.0813 C   0  0  0  0  0  0  0  0  0  0  0  0
  1  2  1  0
  2  3  1  0
  3  4  1  1
  5  4  1  6
  5  6  1  0
  6  7  1  0
  7  8  1  0
  8  9  1  0
  9 10  2  0
 10 11  1  0
 11 12  2  0
 12 13  1  0
 13 14  1  0
 13 15  2  0
  8 16  1  0
  3 17  1  0
 17 18  2  0
 18 19  1  0
 19 20  2  0
 20 21  1  0
 21 22  2  0
 22 23  1  0
 23 24  1  0
 23 25  1  0
 25 26  1  0
 25 27  2  0
 16  5  1  0
 27 17  1  0
 15  9  1  0
 27 21  1  0
M  END
>  <energy_score>  (1031) 
-55.281331

>  <inchikey>  (1031) 
None

>  <smiles>  (1031) 
None

>  <ref_pdb>  (1031) 
A1105b

>  <alias>  (1031) 
None

>  <HIPPO Pose ID>  (1031) 
498675

>  <name>  (1031) 
P498675

>  <HIPPO Compound ID>  (1031) 
293458

>  <ref_mols>  (1031) 
A0497a,A1105b

>  <distance_score>  (1031) 
1.57783

>  <inspiration_score>  (1031) 
None

$$$$
P498676
     RDKit          3D

 27 30  0  0  0  0  0  0  0  0999 V2000
   18.0900   -3.3344   17.7813 O   0  0  0  0  0  0  0  0  0  0  0  0
   17.4255   -4.0869   18.7724 C   0  0  2  0  0  0  0  0  0  0  0  0
   18.2972   -5.0704   19.3578 N   0  0  0  0  0  0  0  0  0  0  0  0
   19.5071   -4.6340   20.0656 C   0  0  2  0  0  0  0  0  0  0  0  0
   20.3905   -3.5880   19.3950 C   0  0  0  0  0  0  0  0  0  0  0  0
   21.0037   -4.3569   18.2213 C   0  0  0  0  0  0  0  0  0  0  0  0
   21.1396   -5.7613   18.7030 N   0  0  0  0  0  0  0  0  0  0  0  0
   20.6419   -6.7306   17.7975 C   0  0  0  0  0  0  0  0  0  0  0  0
   19.9591   -7.7950   18.2926 N   0  0  0  0  0  0  0  0  0  0  0  0
   19.3607   -8.6468   17.4266 C   0  0  0  0  0  0  0  0  0  0  0  0
   19.4014   -8.5148   16.0551 C   0  0  0  0  0  0  0  0  0  0  0  0
   20.1821   -7.5011   15.5366 C   0  0  0  0  0  0  0  0  0  0  0  0
   20.8356   -6.6392   16.4062 C   0  0  0  0  0  0  0  0  0  0  0  0
   21.6654   -5.7442   15.8588 F   0  0  0  0  0  0  0  0  0  0  0  0
   20.5228   -5.8157   20.0540 C   0  0  0  0  0  0  0  0  0  0  0  0
   16.1786   -4.6923   18.1345 C   0  0  0  0  0  0  0  0  0  0  0  0
   15.1560   -3.7837   17.7901 C   0  0  0  0  0  0  0  0  0  0  0  0
   13.9662   -4.1922   17.2082 C   0  0  0  0  0  0  0  0  0  0  0  0
   13.7192   -5.5354   16.9604 C   0  0  0  0  0  0  0  0  0  0  0  0
   14.6988   -6.4568   17.3224 C   0  0  0  0  0  0  0  0  0  0  0  0
   15.9090   -6.0677   17.8904 C   0  0  0  0  0  0  0  0  0  0  0  0
   16.5501   -7.2981   18.1505 C   0  0  0  0  0  0  0  0  0  0  0  0
   15.8762   -8.3705   17.7276 N   0  0  0  0  0  0  0  0  0  0  0  0
   14.7326   -7.8301   17.2420 N   0  0  0  0  0  0  0  0  0  0  0  0
   13.7056   -8.6900   16.6713 C   0  0  0  0  0  0  0  0  0  0  0  0
   12.5333   -8.6111   17.3539 F   0  0  0  0  0  0  0  0  0  0  0  0
   13.4263   -8.3442   15.3811 F   0  0  0  0  0  0  0  0  0  0  0  0
  2  1  1  6
  2  3  1  0
  4  3  1  6
  4  5  1  0
  5  6  1  0
  6  7  1  0
  7  8  1  0
  8  9  2  0
  9 10  1  0
 10 11  2  0
 11 12  1  0
 12 13  2  0
 13 14  1  0
  7 15  1  0
  2 16  1  0
 16 17  2  0
 17 18  1  0
 18 19  2  0
 19 20  1  0
 20 21  2  0
 21 22  1  0
 22 23  2  0
 23 24  1  0
 24 25  1  0
 25 26  1  0
 25 27  1  0
 15  4  1  0
 21 16  1  0
 13  8  1  0
 24 20  1  0
M  END
>  <energy_score>  (1032) 
-37.857019

>  <inchikey>  (1032) 
None

>  <smiles>  (1032) 
None

>  <ref_pdb>  (1032) 
A1105b

>  <alias>  (1032) 
None

>  <HIPPO Pose ID>  (1032) 
498676

>  <name>  (1032) 
P498676

>  <HIPPO Compound ID>  (1032) 
293459

>  <ref_mols>  (1032) 
A0497a,A1105b

>  <distance_score>  (1032) 
1.607303

>  <inspiration_score>  (1032) 
None

$$$$
P498677
     RDKit          3D

 27 30  0  0  0  0  0  0  0  0999 V2000
   17.6978   -3.0531   18.5254 O   0  0  0  0  0  0  0  0  0  0  0  0
   17.6293   -4.4592   18.5027 C   0  0  1  0  0  0  0  0  0  0  0  0
   18.0297   -4.9055   19.8267 N   0  0  0  0  0  0  0  0  0  0  0  0
   19.4711   -4.7831   20.1611 C   0  0  2  0  0  0  0  0  0  0  0  0
   20.3153   -3.6621   19.5465 C   0  0  0  0  0  0  0  0  0  0  0  0
   20.7618   -4.2149   18.1845 C   0  0  0  0  0  0  0  0  0  0  0  0
   20.7500   -5.6856   18.3534 N   0  0  0  0  0  0  0  0  0  0  0  0
   20.2242   -6.4713   17.3222 C   0  0  0  0  0  0  0  0  0  0  0  0
   19.4933   -7.5654   17.6719 N   0  0  0  0  0  0  0  0  0  0  0  0
   18.9704   -8.3481   16.7020 C   0  0  0  0  0  0  0  0  0  0  0  0
   19.1136   -8.1024   15.3576 C   0  0  0  0  0  0  0  0  0  0  0  0
   19.8739   -7.0103   14.9866 C   0  0  0  0  0  0  0  0  0  0  0  0
   20.4283   -6.1938   15.9617 C   0  0  0  0  0  0  0  0  0  0  0  0
   21.1400   -5.1431   15.5339 F   0  0  0  0  0  0  0  0  0  0  0  0
   20.3132   -6.0071   19.7192 C   0  0  0  0  0  0  0  0  0  0  0  0
   16.2344   -4.9085   18.0870 C   0  0  0  0  0  0  0  0  0  0  0  0
   15.2510   -3.9483   17.7568 C   0  0  0  0  0  0  0  0  0  0  0  0
   14.0197   -4.2986   17.2207 C   0  0  0  0  0  0  0  0  0  0  0  0
   13.7017   -5.6297   16.9885 C   0  0  0  0  0  0  0  0  0  0  0  0
   14.6210   -6.6006   17.3794 C   0  0  0  0  0  0  0  0  0  0  0  0
   15.8525   -6.2715   17.9375 C   0  0  0  0  0  0  0  0  0  0  0  0
   16.4016   -7.5290   18.2742 C   0  0  0  0  0  0  0  0  0  0  0  0
   15.6738   -8.5691   17.8614 N   0  0  0  0  0  0  0  0  0  0  0  0
   14.5796   -7.9745   17.3249 N   0  0  0  0  0  0  0  0  0  0  0  0
   13.5372   -8.7888   16.7166 C   0  0  0  0  0  0  0  0  0  0  0  0
   12.3874   -8.7746   17.4387 F   0  0  0  0  0  0  0  0  0  0  0  0
   13.2198   -8.3467   15.4651 F   0  0  0  0  0  0  0  0  0  0  0  0
  2  1  1  1
  2  3  1  0
  4  3  1  6
  4  5  1  0
  5  6  1  0
  6  7  1  0
  7  8  1  0
  8  9  2  0
  9 10  1  0
 10 11  2  0
 11 12  1  0
 12 13  2  0
 13 14  1  0
  7 15  1  0
  2 16  1  0
 16 17  2  0
 17 18  1  0
 18 19  2  0
 19 20  1  0
 20 21  2  0
 21 22  1  0
 22 23  2  0
 23 24  1  0
 24 25  1  0
 25 26  1  0
 25 27  1  0
 15  4  1  0
 21 16  1  0
 13  8  1  0
 24 20  1  0
M  END
>  <energy_score>  (1033) 
-45.598162

>  <inchikey>  (1033) 
None

>  <smiles>  (1033) 
None

>  <ref_pdb>  (1033) 
A1105b

>  <alias>  (1033) 
None

>  <HIPPO Pose ID>  (1033) 
498677

>  <name>  (1033) 
P498677

>  <HIPPO Compound ID>  (1033) 
293459

>  <ref_mols>  (1033) 
A0497a,A1105b

>  <distance_score>  (1033) 
1.652033

>  <inspiration_score>  (1033) 
None

$$$$
P498678
     RDKit          3D

 27 30  0  0  0  0  0  0  0  0999 V2000
   17.9778   -3.2445   17.7521 O   0  0  0  0  0  0  0  0  0  0  0  0
   17.3885   -4.0414   18.7530 C   0  0  2  0  0  0  0  0  0  0  0  0
   18.3222   -4.9822   19.3111 N   0  0  0  0  0  0  0  0  0  0  0  0
   19.5717   -4.4945   19.9118 C   0  0  2  0  0  0  0  0  0  0  0  0
   20.3429   -3.3862   19.2006 C   0  0  0  0  0  0  0  0  0  0  0  0
   20.8852   -4.0838   17.9466 C   0  0  0  0  0  0  0  0  0  0  0  0
   21.0917   -5.4998   18.3495 N   0  0  0  0  0  0  0  0  0  0  0  0
   20.5466   -6.4838   17.4969 C   0  0  0  0  0  0  0  0  0  0  0  0
   20.1572   -7.6565   18.0703 N   0  0  0  0  0  0  0  0  0  0  0  0
   19.5340   -8.5883   17.3142 C   0  0  0  0  0  0  0  0  0  0  0  0
   19.2822   -8.4469   15.9683 C   0  0  0  0  0  0  0  0  0  0  0  0
   19.7507   -7.3047   15.3514 C   0  0  0  0  0  0  0  0  0  0  0  0
   20.4034   -6.3358   16.1033 C   0  0  0  0  0  0  0  0  0  0  0  0
   20.8571   -5.2762   15.4206 F   0  0  0  0  0  0  0  0  0  0  0  0
   20.6395   -5.6174   19.7615 C   0  0  0  0  0  0  0  0  0  0  0  0
   16.1653   -4.7022   18.1302 C   0  0  0  0  0  0  0  0  0  0  0  0
   15.1072   -3.8334   17.7870 C   0  0  0  0  0  0  0  0  0  0  0  0
   13.9319   -4.2889   17.2136 C   0  0  0  0  0  0  0  0  0  0  0  0
   13.7361   -5.6423   16.9742 C   0  0  0  0  0  0  0  0  0  0  0  0
   14.7524   -6.5239   17.3373 C   0  0  0  0  0  0  0  0  0  0  0  0
   15.9531   -6.0879   17.8908 C   0  0  0  0  0  0  0  0  0  0  0  0
   16.6549   -7.2912   18.1298 C   0  0  0  0  0  0  0  0  0  0  0  0
   16.0063   -8.3907   17.7359 N   0  0  0  0  0  0  0  0  0  0  0  0
   14.8345   -7.8953   17.2689 N   0  0  0  0  0  0  0  0  0  0  0  0
   13.8248   -8.7937   16.7273 C   0  0  0  0  0  0  0  0  0  0  0  0
   13.6236   -8.5672   15.3969 F   0  0  0  0  0  0  0  0  0  0  0  0
   12.6163   -8.6335   17.3303 F   0  0  0  0  0  0  0  0  0  0  0  0
  2  1  1  6
  2  3  1  0
  4  3  1  6
  4  5  1  0
  5  6  1  0
  6  7  1  0
  7  8  1  0
  8  9  2  0
  9 10  1  0
 10 11  2  0
 11 12  1  0
 12 13  2  0
 13 14  1  0
  7 15  1  0
  2 16  1  0
 16 17  2  0
 17 18  1  0
 18 19  2  0
 19 20  1  0
 20 21  2  0
 21 22  1  0
 22 23  2  0
 23 24  1  0
 24 25  1  0
 25 26  1  0
 25 27  1  0
 15  4  1  0
 21 16  1  0
 13  8  1  0
 24 20  1  0
M  END
>  <energy_score>  (1034) 
-29.999301

>  <inchikey>  (1034) 
None

>  <smiles>  (1034) 
None

>  <ref_pdb>  (1034) 
A1105b

>  <alias>  (1034) 
None

>  <HIPPO Pose ID>  (1034) 
498678

>  <name>  (1034) 
P498678

>  <HIPPO Compound ID>  (1034) 
293459

>  <ref_mols>  (1034) 
A0497a,A1105b

>  <distance_score>  (1034) 
1.486936

>  <inspiration_score>  (1034) 
None

$$$$
P498679
     RDKit          3D

 27 30  0  0  0  0  0  0  0  0999 V2000
   17.7895   -3.0590   18.6497 O   0  0  0  0  0  0  0  0  0  0  0  0
   17.6960   -4.4642   18.5966 C   0  0  1  0  0  0  0  0  0  0  0  0
   17.9742   -4.9467   19.9407 N   0  0  0  0  0  0  0  0  0  0  0  0
   19.3612   -4.8558   20.4436 C   0  0  2  0  0  0  0  0  0  0  0  0
   20.2531   -3.6855   20.0322 C   0  0  0  0  0  0  0  0  0  0  0  0
   20.8739   -4.1310   18.7062 C   0  0  0  0  0  0  0  0  0  0  0  0
   20.8885   -5.6153   18.7684 N   0  0  0  0  0  0  0  0  0  0  0  0
   20.4631   -6.2600   17.5926 C   0  0  0  0  0  0  0  0  0  0  0  0
   19.5237   -7.2434   17.6778 N   0  0  0  0  0  0  0  0  0  0  0  0
   19.0780   -7.8074   16.5312 C   0  0  0  0  0  0  0  0  0  0  0  0
   19.5086   -7.4422   15.2743 C   0  0  0  0  0  0  0  0  0  0  0  0
   20.4894   -6.4686   15.1819 C   0  0  0  0  0  0  0  0  0  0  0  0
   20.9763   -5.8859   16.3410 C   0  0  0  0  0  0  0  0  0  0  0  0
   21.9360   -4.9526   16.2356 F   0  0  0  0  0  0  0  0  0  0  0  0
   20.2555   -6.0465   20.0181 C   0  0  0  0  0  0  0  0  0  0  0  0
   16.3108   -4.8772   18.1014 C   0  0  0  0  0  0  0  0  0  0  0  0
   15.3529   -3.8902   17.7725 C   0  0  0  0  0  0  0  0  0  0  0  0
   14.1086   -4.2016   17.2412 C   0  0  0  0  0  0  0  0  0  0  0  0
   13.7437   -5.5215   17.0263 C   0  0  0  0  0  0  0  0  0  0  0  0
   14.6374   -6.5208   17.4101 C   0  0  0  0  0  0  0  0  0  0  0  0
   15.8926   -6.2295   17.9398 C   0  0  0  0  0  0  0  0  0  0  0  0
   16.4142   -7.5044   18.2615 C   0  0  0  0  0  0  0  0  0  0  0  0
   15.6229   -8.5185   17.9111 N   0  0  0  0  0  0  0  0  0  0  0  0
   14.5298   -7.8945   17.4085 N   0  0  0  0  0  0  0  0  0  0  0  0
   13.3427   -8.6633   17.0483 C   0  0  0  0  0  0  0  0  0  0  0  0
   12.6590   -8.0964   16.0131 F   0  0  0  0  0  0  0  0  0  0  0  0
   13.6455   -9.9270   16.6369 F   0  0  0  0  0  0  0  0  0  0  0  0
  2  1  1  1
  2  3  1  0
  4  3  1  6
  4  5  1  0
  5  6  1  0
  6  7  1  0
  7  8  1  0
  8  9  2  0
  9 10  1  0
 10 11  2  0
 11 12  1  0
 12 13  2  0
 13 14  1  0
  7 15  1  0
  2 16  1  0
 16 17  2  0
 17 18  1  0
 18 19  2  0
 19 20  1  0
 20 21  2  0
 21 22  1  0
 22 23  2  0
 23 24  1  0
 24 25  1  0
 25 26  1  0
 25 27  1  0
 15  4  1  0
 21 16  1  0
 13  8  1  0
 24 20  1  0
M  END
>  <energy_score>  (1035) 
-34.397476

>  <inchikey>  (1035) 
None

>  <smiles>  (1035) 
None

>  <ref_pdb>  (1035) 
A1105b

>  <alias>  (1035) 
None

>  <HIPPO Pose ID>  (1035) 
498679

>  <name>  (1035) 
P498679

>  <HIPPO Compound ID>  (1035) 
293459

>  <ref_mols>  (1035) 
A0497a,A1105b

>  <distance_score>  (1035) 
1.530343

>  <inspiration_score>  (1035) 
None

$$$$
P498680
     RDKit          3D

 27 31  0  0  0  0  0  0  0  0999 V2000
   16.3186   -7.6308   18.3613 C   0  0  0  0  0  0  0  0  0  0  0  0
   17.3489   -7.6872   17.3530 N   0  0  0  0  0  0  0  0  0  0  0  0
   18.6490   -7.2923   17.4908 C   0  0  0  0  0  0  0  0  0  0  0  0
   19.2220   -7.4866   16.2579 C   0  0  0  0  0  0  0  0  0  0  0  0
   20.5599   -7.2055   15.8859 C   0  0  0  0  0  0  0  0  0  0  0  0
   21.6389   -6.7608   16.8455 C   0  0  1  0  0  0  0  0  0  0  0  0
   22.9699   -6.9608   16.4197 O   0  0  0  0  0  0  0  0  0  0  0  0
   21.4438   -5.4116   17.2756 N   0  0  0  0  0  0  0  0  0  0  0  0
   22.2114   -4.9801   18.4528 C   0  0  0  0  0  0  0  0  0  0  0  0
   22.2800   -3.4440   18.2178 C   0  0  1  0  0  0  0  0  0  0  0  0
   22.7206   -3.4807   16.7496 C   0  0  0  0  0  0  0  0  0  0  0  0
   21.4945   -4.2833   16.3283 C   0  0  2  0  0  0  0  0  0  0  0  0
   20.3793   -3.3138   16.8046 C   0  0  0  0  0  0  0  0  0  0  0  0
   20.9057   -2.8243   18.1120 N   0  0  0  0  0  0  0  0  0  0  0  0
   20.1019   -3.0689   19.2284 C   0  0  0  0  0  0  0  0  0  0  0  0
   18.7075   -3.0879   19.1613 C   0  0  0  0  0  0  0  0  0  0  0  0
   17.9681   -3.5623   20.2461 C   0  0  0  0  0  0  0  0  0  0  0  0
   18.6419   -3.9790   21.3820 C   0  0  0  0  0  0  0  0  0  0  0  0
   17.8124   -4.7405   22.8814 Br  0  0  0  0  0  0  0  0  0  0  0  0
   20.0062   -3.8124   21.4222 C   0  0  0  0  0  0  0  0  0  0  0  0
   20.7306   -3.3406   20.3926 N   0  0  0  0  0  0  0  0  0  0  0  0
   20.7053   -7.4317   14.4851 C   0  0  0  0  0  0  0  0  0  0  0  0
   22.3146   -7.0026   13.5324 Br  0  0  0  0  0  0  0  0  0  0  0  0
   19.6821   -7.9700   13.6335 C   0  0  0  0  0  0  0  0  0  0  0  0
   18.3907   -8.3084   14.0719 C   0  0  0  0  0  0  0  0  0  0  0  0
   18.1701   -8.0202   15.4216 C   0  0  0  0  0  0  0  0  0  0  0  0
   17.0482   -8.1841   16.1397 N   0  0  0  0  0  0  0  0  0  0  0  0
  1  2  1  0
  2  3  1  0
  3  4  2  0
  4  5  1  0
  5  6  1  0
  6  7  1  6
  6  8  1  0
  8  9  1  0
 10  9  1  6
 10 11  1  0
 11 12  1  0
 12 13  1  1
 13 14  1  0
 14 15  1  0
 15 16  2  0
 16 17  1  0
 17 18  2  0
 18 19  1  0
 18 20  1  0
 20 21  2  0
  5 22  2  0
 22 23  1  0
 22 24  1  0
 24 25  2  0
 25 26  1  0
 26 27  2  0
 27  2  1  0
 26  4  1  0
 12  8  1  0
 21 15  1  0
 14 10  1  0
M  END
>  <energy_score>  (1036) 
-49.765597

>  <inchikey>  (1036) 
None

>  <smiles>  (1036) 
None

>  <ref_pdb>  (1036) 
A1105b

>  <alias>  (1036) 
None

>  <HIPPO Pose ID>  (1036) 
498680

>  <name>  (1036) 
P498680

>  <HIPPO Compound ID>  (1036) 
293460

>  <ref_mols>  (1036) 
A0497a,A1105b

>  <distance_score>  (1036) 
1.40402

>  <inspiration_score>  (1036) 
None

$$$$
P498681
     RDKit          3D

 27 31  0  0  0  0  0  0  0  0999 V2000
   15.8052   -8.1612   18.0175 C   0  0  0  0  0  0  0  0  0  0  0  0
   16.9741   -8.1018   17.1719 N   0  0  0  0  0  0  0  0  0  0  0  0
   18.2214   -7.6907   17.5372 C   0  0  0  0  0  0  0  0  0  0  0  0
   18.9750   -7.7299   16.3897 C   0  0  0  0  0  0  0  0  0  0  0  0
   20.3233   -7.3244   16.2355 C   0  0  0  0  0  0  0  0  0  0  0  0
   21.2358   -6.7630   17.2912 C   0  0  2  0  0  0  0  0  0  0  0  0
   21.0551   -7.4738   18.5058 O   0  0  0  0  0  0  0  0  0  0  0  0
   21.0516   -5.3815   17.6299 N   0  0  0  0  0  0  0  0  0  0  0  0
   19.7271   -4.7728   17.4074 C   0  0  0  0  0  0  0  0  0  0  0  0
   20.0980   -3.2855   17.2244 C   0  0  2  0  0  0  0  0  0  0  0  0
   21.2585   -3.4765   16.2437 C   0  0  0  0  0  0  0  0  0  0  0  0
   22.0333   -4.3582   17.2107 C   0  0  1  0  0  0  0  0  0  0  0  0
   22.1621   -3.3294   18.3810 C   0  0  0  0  0  0  0  0  0  0  0  0
   20.7839   -2.7357   18.4502 N   0  0  0  0  0  0  0  0  0  0  0  0
   20.0765   -3.0689   19.6225 C   0  0  0  0  0  0  0  0  0  0  0  0
   18.6989   -2.8471   19.7121 C   0  0  0  0  0  0  0  0  0  0  0  0
   17.9762   -3.4302   20.7546 C   0  0  0  0  0  0  0  0  0  0  0  0
   18.6523   -4.1717   21.7098 C   0  0  0  0  0  0  0  0  0  0  0  0
   17.8223   -4.9922   23.1799 Br  0  0  0  0  0  0  0  0  0  0  0  0
   20.0189   -4.2702   21.6049 C   0  0  0  0  0  0  0  0  0  0  0  0
   20.7283   -3.7271   20.6025 N   0  0  0  0  0  0  0  0  0  0  0  0
   20.6949   -7.4320   14.8632 C   0  0  0  0  0  0  0  0  0  0  0  0
   22.4299   -6.8817   14.2621 Br  0  0  0  0  0  0  0  0  0  0  0  0
   19.8451   -7.9359   13.8249 C   0  0  0  0  0  0  0  0  0  0  0  0
   18.5187   -8.3574   14.0360 C   0  0  0  0  0  0  0  0  0  0  0  0
   18.0857   -8.2174   15.3604 C   0  0  0  0  0  0  0  0  0  0  0  0
   16.8755   -8.4790   15.8827 N   0  0  0  0  0  0  0  0  0  0  0  0
  1  2  1  0
  2  3  1  0
  3  4  2  0
  4  5  1  0
  5  6  1  0
  6  7  1  1
  6  8  1  0
  8  9  1  0
 10  9  1  1
 10 11  1  0
 11 12  1  0
 12 13  1  1
 13 14  1  0
 14 15  1  0
 15 16  2  0
 16 17  1  0
 17 18  2  0
 18 19  1  0
 18 20  1  0
 20 21  2  0
  5 22  2  0
 22 23  1  0
 22 24  1  0
 24 25  2  0
 25 26  1  0
 26 27  2  0
 27  2  1  0
 26  4  1  0
 12  8  1  0
 21 15  1  0
 14 10  1  0
M  END
>  <energy_score>  (1037) 
-41.970931

>  <inchikey>  (1037) 
None

>  <smiles>  (1037) 
None

>  <ref_pdb>  (1037) 
A1105b

>  <alias>  (1037) 
None

>  <HIPPO Pose ID>  (1037) 
498681

>  <name>  (1037) 
P498681

>  <HIPPO Compound ID>  (1037) 
293460

>  <ref_mols>  (1037) 
A0497a,A1105b

>  <distance_score>  (1037) 
1.622242

>  <inspiration_score>  (1037) 
None

$$$$
P498682
     RDKit          3D

 27 31  0  0  0  0  0  0  0  0999 V2000
   15.9624   -7.3461   17.7788 C   0  0  0  0  0  0  0  0  0  0  0  0
   17.1684   -7.4575   16.9927 N   0  0  0  0  0  0  0  0  0  0  0  0
   18.1963   -6.5600   16.9551 C   0  0  0  0  0  0  0  0  0  0  0  0
   19.0715   -7.0119   15.9943 C   0  0  0  0  0  0  0  0  0  0  0  0
   20.2551   -6.3871   15.4950 C   0  0  0  0  0  0  0  0  0  0  0  0
   20.8339   -5.0320   15.8545 C   0  0  1  0  0  0  0  0  0  0  0  0
   20.0338   -4.3873   16.8226 O   0  0  0  0  0  0  0  0  0  0  0  0
   22.2613   -4.9135   16.1856 N   0  0  0  0  0  0  0  0  0  0  0  0
   22.5186   -3.6350   16.9150 C   0  0  0  0  0  0  0  0  0  0  0  0
   23.0904   -4.1237   18.2508 C   0  0  2  0  0  0  0  0  0  0  0  0
   24.0554   -5.1719   17.6725 C   0  0  0  0  0  0  0  0  0  0  0  0
   22.9075   -5.9635   17.0288 C   0  0  1  0  0  0  0  0  0  0  0  0
   22.1352   -6.3066   18.3153 C   0  0  0  0  0  0  0  0  0  0  0  0
   22.1395   -4.9901   18.9872 N   0  0  0  0  0  0  0  0  0  0  0  0
   21.0165   -4.7006   19.6949 C   0  0  0  0  0  0  0  0  0  0  0  0
   20.4390   -3.4473   19.8220 C   0  0  0  0  0  0  0  0  0  0  0  0
   19.3303   -3.2912   20.6576 C   0  0  0  0  0  0  0  0  0  0  0  0
   18.8794   -4.3865   21.3743 C   0  0  0  0  0  0  0  0  0  0  0  0
   17.7691   -4.2309   22.8581 Br  0  0  0  0  0  0  0  0  0  0  0  0
   19.4290   -5.6125   21.1239 C   0  0  0  0  0  0  0  0  0  0  0  0
   20.4552   -5.7761   20.2874 N   0  0  0  0  0  0  0  0  0  0  0  0
   20.7621   -7.1554   14.4015 C   0  0  0  0  0  0  0  0  0  0  0  0
   22.2478   -6.5458   13.3463 Br  0  0  0  0  0  0  0  0  0  0  0  0
   20.2000   -8.3856   13.9302 C   0  0  0  0  0  0  0  0  0  0  0  0
   19.0440   -8.9747   14.4665 C   0  0  0  0  0  0  0  0  0  0  0  0
   18.4682   -8.2421   15.5094 C   0  0  0  0  0  0  0  0  0  0  0  0
   17.3344   -8.5121   16.1778 N   0  0  0  0  0  0  0  0  0  0  0  0
  1  2  1  0
  2  3  1  0
  3  4  2  0
  4  5  1  0
  5  6  1  0
  6  7  1  1
  6  8  1  0
  8  9  1  0
 10  9  1  6
 10 11  1  0
 11 12  1  0
 12 13  1  1
 13 14  1  0
 14 15  1  0
 15 16  2  0
 16 17  1  0
 17 18  2  0
 18 19  1  0
 18 20  1  0
 20 21  2  0
  5 22  2  0
 22 23  1  0
 22 24  1  0
 24 25  2  0
 25 26  1  0
 26 27  2  0
 27  2  1  0
 26  4  1  0
 12  8  1  0
 21 15  1  0
 14 10  1  0
M  END
>  <energy_score>  (1038) 
-28.628562

>  <inchikey>  (1038) 
None

>  <smiles>  (1038) 
None

>  <ref_pdb>  (1038) 
A1105b

>  <alias>  (1038) 
None

>  <HIPPO Pose ID>  (1038) 
498682

>  <name>  (1038) 
P498682

>  <HIPPO Compound ID>  (1038) 
293460

>  <ref_mols>  (1038) 
A0497a,A1105b

>  <distance_score>  (1038) 
1.963275

>  <inspiration_score>  (1038) 
None

$$$$
P498683
     RDKit          3D

 27 31  0  0  0  0  0  0  0  0999 V2000
   18.1926  -10.7498   14.5306 C   0  0  0  0  0  0  0  0  0  0  0  0
   18.7899   -9.4688   15.0117 C   0  0  0  0  0  0  0  0  0  0  0  0
   20.0955   -9.0736   14.6253 C   0  0  0  0  0  0  0  0  0  0  0  0
   20.7113   -7.8589   15.0338 C   0  0  0  0  0  0  0  0  0  0  0  0
   20.0966   -6.8961   15.8711 C   0  0  0  0  0  0  0  0  0  0  0  0
   20.6656   -5.5132   15.9827 C   0  0  2  0  0  0  0  0  0  0  0  0
   20.5620   -4.9749   14.6662 O   0  0  0  0  0  0  0  0  0  0  0  0
   22.0597   -5.4215   16.4022 N   0  0  0  0  0  0  0  0  0  0  0  0
   22.2174   -5.6702   17.8627 C   0  0  0  0  0  0  0  0  0  0  0  0
   22.7896   -4.3279   18.3948 C   0  0  1  0  0  0  0  0  0  0  0  0
   23.6937   -3.9512   17.2287 C   0  0  0  0  0  0  0  0  0  0  0  0
   22.5327   -3.9975   16.2467 C   0  0  2  0  0  0  0  0  0  0  0  0
   21.5827   -2.9355   16.9083 C   0  0  0  0  0  0  0  0  0  0  0  0
   21.7213   -3.2717   18.3363 N   0  0  0  0  0  0  0  0  0  0  0  0
   20.6828   -3.5104   19.2092 C   0  0  0  0  0  0  0  0  0  0  0  0
   19.3387   -3.2178   18.9796 C   0  0  0  0  0  0  0  0  0  0  0  0
   18.3782   -3.5575   19.9480 C   0  0  0  0  0  0  0  0  0  0  0  0
   18.8028   -4.1497   21.1293 C   0  0  0  0  0  0  0  0  0  0  0  0
   17.7067   -4.5447   22.5901 Br  0  0  0  0  0  0  0  0  0  0  0  0
   20.1410   -4.3996   21.2904 C   0  0  0  0  0  0  0  0  0  0  0  0
   21.0603   -4.0924   20.3686 N   0  0  0  0  0  0  0  0  0  0  0  0
   18.8213   -7.3262   16.2713 C   0  0  0  0  0  0  0  0  0  0  0  0
   17.9262   -6.6387   17.0490 C   0  0  0  0  0  0  0  0  0  0  0  0
   16.8087   -7.4212   17.0836 N   0  0  0  0  0  0  0  0  0  0  0  0
   15.5576   -7.1064   17.7333 C   0  0  0  0  0  0  0  0  0  0  0  0
   16.9231   -8.5777   16.4032 N   0  0  0  0  0  0  0  0  0  0  0  0
   18.1568   -8.5428   15.8675 C   0  0  0  0  0  0  0  0  0  0  0  0
  1  2  1  0
  2  3  2  0
  3  4  1  0
  4  5  2  0
  5  6  1  0
  6  7  1  6
  6  8  1  0
  8  9  1  0
 10  9  1  6
 10 11  1  0
 11 12  1  0
 12 13  1  1
 13 14  1  0
 14 15  1  0
 15 16  2  0
 16 17  1  0
 17 18  2  0
 18 19  1  0
 18 20  1  0
 20 21  2  0
  5 22  1  0
 22 23  2  0
 23 24  1  0
 24 25  1  0
 24 26  1  0
 26 27  2  0
 27  2  1  0
 12  8  1  0
 21 15  1  0
 27 22  1  0
 14 10  1  0
M  END
>  <energy_score>  (1039) 
-45.337898

>  <inchikey>  (1039) 
None

>  <smiles>  (1039) 
None

>  <ref_pdb>  (1039) 
A1105b

>  <alias>  (1039) 
None

>  <HIPPO Pose ID>  (1039) 
498683

>  <name>  (1039) 
P498683

>  <HIPPO Compound ID>  (1039) 
293461

>  <ref_mols>  (1039) 
A0497a,A1105b

>  <distance_score>  (1039) 
1.477625

>  <inspiration_score>  (1039) 
None

$$$$
P498684
     RDKit          3D

 27 31  0  0  0  0  0  0  0  0999 V2000
   18.5750   -8.1763   13.3738 C   0  0  0  0  0  0  0  0  0  0  0  0
   19.1171   -7.8766   14.7299 C   0  0  0  0  0  0  0  0  0  0  0  0
   20.5020   -7.7058   14.9473 C   0  0  0  0  0  0  0  0  0  0  0  0
   21.1021   -7.6808   16.2442 C   0  0  0  0  0  0  0  0  0  0  0  0
   20.4023   -7.8393   17.4808 C   0  0  0  0  0  0  0  0  0  0  0  0
   21.1590   -8.3458   18.6944 C   0  0  2  0  0  0  0  0  0  0  0  0
   20.4742   -9.4680   19.2356 O   0  0  0  0  0  0  0  0  0  0  0  0
   21.5573   -7.5227   19.8012 N   0  0  0  0  0  0  0  0  0  0  0  0
   20.5398   -6.9451   20.6813 C   0  0  0  0  0  0  0  0  0  0  0  0
   21.2763   -5.6876   21.2251 C   0  0  1  0  0  0  0  0  0  0  0  0
   22.7410   -6.1336   21.1253 C   0  0  0  0  0  0  0  0  0  0  0  0
   22.6014   -6.4956   19.6445 C   0  0  2  0  0  0  0  0  0  0  0  0
   22.1013   -5.1282   19.0858 C   0  0  0  0  0  0  0  0  0  0  0  0
   21.2468   -4.6159   20.2021 N   0  0  0  0  0  0  0  0  0  0  0  0
   20.0102   -4.1214   19.8110 C   0  0  0  0  0  0  0  0  0  0  0  0
   18.9618   -3.9484   20.7055 C   0  0  0  0  0  0  0  0  0  0  0  0
   17.6902   -3.6599   20.2210 C   0  0  0  0  0  0  0  0  0  0  0  0
   17.4840   -3.5778   18.8568 C   0  0  0  0  0  0  0  0  0  0  0  0
   15.7487   -3.5366   18.1384 Br  0  0  0  0  0  0  0  0  0  0  0  0
   18.5902   -3.6190   18.0475 C   0  0  0  0  0  0  0  0  0  0  0  0
   19.8354   -3.8468   18.5104 N   0  0  0  0  0  0  0  0  0  0  0  0
   19.0170   -7.8196   17.2277 C   0  0  0  0  0  0  0  0  0  0  0  0
   18.0056   -7.8976   18.1491 C   0  0  0  0  0  0  0  0  0  0  0  0
   16.8515   -7.9077   17.4224 N   0  0  0  0  0  0  0  0  0  0  0  0
   15.5052   -7.9013   17.9437 C   0  0  0  0  0  0  0  0  0  0  0  0
   17.0372   -7.9878   16.0933 N   0  0  0  0  0  0  0  0  0  0  0  0
   18.3677   -7.8657   15.9258 C   0  0  0  0  0  0  0  0  0  0  0  0
  1  2  1  0
  2  3  2  0
  3  4  1  0
  4  5  2  0
  5  6  1  0
  6  7  1  1
  6  8  1  0
  8  9  1  0
 10  9  1  6
 10 11  1  0
 11 12  1  0
 12 13  1  6
 13 14  1  0
 14 15  1  0
 15 16  2  0
 16 17  1  0
 17 18  2  0
 18 19  1  0
 18 20  1  0
 20 21  2  0
  5 22  1  0
 22 23  2  0
 23 24  1  0
 24 25  1  0
 24 26  1  0
 26 27  2  0
 27  2  1  0
 12  8  1  0
 21 15  1  0
 27 22  1  0
 14 10  1  0
M  END
>  <energy_score>  (1040) 
-47.42181

>  <inchikey>  (1040) 
None

>  <smiles>  (1040) 
None

>  <ref_pdb>  (1040) 
A1105b

>  <alias>  (1040) 
None

>  <HIPPO Pose ID>  (1040) 
498684

>  <name>  (1040) 
P498684

>  <HIPPO Compound ID>  (1040) 
293461

>  <ref_mols>  (1040) 
A0497a,A1105b

>  <distance_score>  (1040) 
1.531236

>  <inspiration_score>  (1040) 
None

$$$$
P498685
     RDKit          3D

 27 31  0  0  0  0  0  0  0  0999 V2000
   18.8907  -10.5968   14.1267 C   0  0  0  0  0  0  0  0  0  0  0  0
   19.3305   -9.2676   14.6432 C   0  0  0  0  0  0  0  0  0  0  0  0
   20.5696   -8.6961   14.2564 C   0  0  0  0  0  0  0  0  0  0  0  0
   21.0449   -7.4288   14.7070 C   0  0  0  0  0  0  0  0  0  0  0  0
   20.3426   -6.5759   15.5918 C   0  0  0  0  0  0  0  0  0  0  0  0
   20.8420   -5.1963   15.9261 C   0  0  2  0  0  0  0  0  0  0  0  0
   20.7695   -4.4920   14.6957 O   0  0  0  0  0  0  0  0  0  0  0  0
   22.2210   -5.0459   16.4110 N   0  0  0  0  0  0  0  0  0  0  0  0
   22.3166   -3.7662   17.1920 C   0  0  0  0  0  0  0  0  0  0  0  0
   22.7897   -4.2100   18.5987 C   0  0  2  0  0  0  0  0  0  0  0  0
   23.7993   -5.2699   18.1384 C   0  0  0  0  0  0  0  0  0  0  0  0
   22.7209   -6.0626   17.3893 C   0  0  1  0  0  0  0  0  0  0  0  0
   21.7796   -6.3518   18.5845 C   0  0  0  0  0  0  0  0  0  0  0  0
   21.7851   -5.0576   19.3227 N   0  0  0  0  0  0  0  0  0  0  0  0
   20.5165   -4.5211   19.5642 C   0  0  0  0  0  0  0  0  0  0  0  0
   19.4770   -5.3780   19.9127 C   0  0  0  0  0  0  0  0  0  0  0  0
   18.1777   -4.9942   19.6457 C   0  0  0  0  0  0  0  0  0  0  0  0
   17.9299   -3.7235   19.1631 C   0  0  0  0  0  0  0  0  0  0  0  0
   16.2224   -3.2824   18.5278 Br  0  0  0  0  0  0  0  0  0  0  0  0
   18.9925   -2.8516   19.0727 C   0  0  0  0  0  0  0  0  0  0  0  0
   20.2766   -3.2222   19.2936 N   0  0  0  0  0  0  0  0  0  0  0  0
   19.1131   -7.1652   15.9457 C   0  0  0  0  0  0  0  0  0  0  0  0
   18.1136   -6.5945   16.6844 C   0  0  0  0  0  0  0  0  0  0  0  0
   17.1096   -7.5126   16.7317 N   0  0  0  0  0  0  0  0  0  0  0  0
   15.8304   -7.3556   17.3829 C   0  0  0  0  0  0  0  0  0  0  0  0
   17.3820   -8.6523   16.0696 N   0  0  0  0  0  0  0  0  0  0  0  0
   18.5943   -8.4445   15.5185 C   0  0  0  0  0  0  0  0  0  0  0  0
  1  2  1  0
  2  3  2  0
  3  4  1  0
  4  5  2  0
  5  6  1  0
  6  7  1  6
  6  8  1  0
  8  9  1  0
 10  9  1  6
 10 11  1  0
 11 12  1  0
 12 13  1  1
 13 14  1  0
 14 15  1  0
 15 16  2  0
 16 17  1  0
 17 18  2  0
 18 19  1  0
 18 20  1  0
 20 21  2  0
  5 22  1  0
 22 23  2  0
 23 24  1  0
 24 25  1  0
 24 26  1  0
 26 27  2  0
 27  2  1  0
 12  8  1  0
 21 15  1  0
 27 22  1  0
 14 10  1  0
M  END
>  <energy_score>  (1041) 
-40.598604

>  <inchikey>  (1041) 
None

>  <smiles>  (1041) 
None

>  <ref_pdb>  (1041) 
A1105b

>  <alias>  (1041) 
None

>  <HIPPO Pose ID>  (1041) 
498685

>  <name>  (1041) 
P498685

>  <HIPPO Compound ID>  (1041) 
293461

>  <ref_mols>  (1041) 
A0497a,A1105b

>  <distance_score>  (1041) 
1.382076

>  <inspiration_score>  (1041) 
None

$$$$
P498686
     RDKit          3D

 27 31  0  0  0  0  0  0  0  0999 V2000
   17.6091   -9.0883   13.2052 C   0  0  0  0  0  0  0  0  0  0  0  0
   18.5192   -8.4387   14.1929 C   0  0  0  0  0  0  0  0  0  0  0  0
   19.8623   -8.1344   13.8724 C   0  0  0  0  0  0  0  0  0  0  0  0
   20.7766   -7.5267   14.7816 C   0  0  0  0  0  0  0  0  0  0  0  0
   20.4724   -7.1483   16.1199 C   0  0  0  0  0  0  0  0  0  0  0  0
   21.5121   -6.4752   16.9904 C   0  0  1  0  0  0  0  0  0  0  0  0
   22.5758   -7.3925   17.1719 O   0  0  0  0  0  0  0  0  0  0  0  0
   22.0485   -5.2823   16.3393 N   0  0  0  0  0  0  0  0  0  0  0  0
   20.9652   -4.2608   16.2251 C   0  0  0  0  0  0  0  0  0  0  0  0
   21.5226   -3.0400   16.9620 C   0  0  2  0  0  0  0  0  0  0  0  0
   22.9873   -3.1464   16.5190 C   0  0  0  0  0  0  0  0  0  0  0  0
   23.1274   -4.5589   17.0888 C   0  0  1  0  0  0  0  0  0  0  0  0
   22.7875   -4.2458   18.5659 C   0  0  0  0  0  0  0  0  0  0  0  0
   21.6384   -3.3151   18.4093 N   0  0  0  0  0  0  0  0  0  0  0  0
   20.6137   -3.5423   19.2898 C   0  0  0  0  0  0  0  0  0  0  0  0
   19.2593   -3.3439   19.0288 C   0  0  0  0  0  0  0  0  0  0  0  0
   18.3104   -3.6857   20.0061 C   0  0  0  0  0  0  0  0  0  0  0  0
   18.7575   -4.1837   21.2230 C   0  0  0  0  0  0  0  0  0  0  0  0
   17.6774   -4.6263   22.6811 Br  0  0  0  0  0  0  0  0  0  0  0  0
   20.1071   -4.3194   21.4192 C   0  0  0  0  0  0  0  0  0  0  0  0
   21.0153   -4.0057   20.4923 N   0  0  0  0  0  0  0  0  0  0  0  0
   19.1272   -7.4408   16.3998 C   0  0  0  0  0  0  0  0  0  0  0  0
   18.4491   -7.1789   17.5624 C   0  0  0  0  0  0  0  0  0  0  0  0
   17.1797   -7.6340   17.3440 N   0  0  0  0  0  0  0  0  0  0  0  0
   16.0751   -7.5722   18.2701 C   0  0  0  0  0  0  0  0  0  0  0  0
   16.9883   -8.1961   16.1377 N   0  0  0  0  0  0  0  0  0  0  0  0
   18.1680   -8.0616   15.5061 C   0  0  0  0  0  0  0  0  0  0  0  0
  1  2  1  0
  2  3  2  0
  3  4  1  0
  4  5  2  0
  5  6  1  0
  6  7  1  6
  6  8  1  0
  8  9  1  0
 10  9  1  6
 10 11  1  0
 11 12  1  0
 12 13  1  1
 13 14  1  0
 14 15  1  0
 15 16  2  0
 16 17  1  0
 17 18  2  0
 18 19  1  0
 18 20  1  0
 20 21  2  0
  5 22  1  0
 22 23  2  0
 23 24  1  0
 24 25  1  0
 24 26  1  0
 26 27  2  0
 27  2  1  0
 12  8  1  0
 21 15  1  0
 27 22  1  0
 14 10  1  0
M  END
>  <energy_score>  (1042) 
-45.104529

>  <inchikey>  (1042) 
None

>  <smiles>  (1042) 
None

>  <ref_pdb>  (1042) 
A1105b

>  <alias>  (1042) 
None

>  <HIPPO Pose ID>  (1042) 
498686

>  <name>  (1042) 
P498686

>  <HIPPO Compound ID>  (1042) 
293461

>  <ref_mols>  (1042) 
A0497a,A1105b

>  <distance_score>  (1042) 
1.351272

>  <inspiration_score>  (1042) 
None

$$$$
P498687
     RDKit          3D

 27 31  0  0  0  0  0  0  0  0999 V2000
   18.1894   -8.3134   19.3616 C   0  0  0  0  0  0  0  0  0  0  0  0
   18.3003   -8.4151   17.8830 C   0  0  0  0  0  0  0  0  0  0  0  0
   19.1019   -7.7862   16.9500 C   0  0  0  0  0  0  0  0  0  0  0  0
   20.0887   -6.8041   17.1750 C   0  0  0  0  0  0  0  0  0  0  0  0
   20.3327   -6.0002   18.4337 C   0  0  1  0  0  0  0  0  0  0  0  0
   21.6540   -6.2703   18.8670 O   0  0  0  0  0  0  0  0  0  0  0  0
   20.2414   -4.5517   18.3030 N   0  0  0  0  0  0  0  0  0  0  0  0
   19.2842   -4.0953   17.2665 C   0  0  0  0  0  0  0  0  0  0  0  0
   18.4680   -2.9823   17.9467 C   0  0  2  0  0  0  0  0  0  0  0  0
   19.5260   -2.4460   18.9121 C   0  0  0  0  0  0  0  0  0  0  0  0
   19.7510   -3.8339   19.5131 C   0  0  1  0  0  0  0  0  0  0  0  0
   18.2837   -4.1584   19.9529 C   0  0  0  0  0  0  0  0  0  0  0  0
   17.4523   -3.5209   18.9016 N   0  0  0  0  0  0  0  0  0  0  0  0
   16.4803   -4.3253   18.3029 C   0  0  0  0  0  0  0  0  0  0  0  0
   15.2724   -3.7725   17.8718 C   0  0  0  0  0  0  0  0  0  0  0  0
   14.2499   -4.5914   17.3570 C   0  0  0  0  0  0  0  0  0  0  0  0
   14.4714   -5.9527   17.2868 C   0  0  0  0  0  0  0  0  0  0  0  0
   13.2911   -7.2473   16.6132 Br  0  0  0  0  0  0  0  0  0  0  0  0
   15.6808   -6.4133   17.7354 C   0  0  0  0  0  0  0  0  0  0  0  0
   16.6713   -5.6497   18.2409 N   0  0  0  0  0  0  0  0  0  0  0  0
   20.7874   -6.5293   15.9576 C   0  0  0  0  0  0  0  0  0  0  0  0
   20.4797   -7.0996   14.6855 C   0  0  0  0  0  0  0  0  0  0  0  0
   19.4341   -8.0170   14.4896 C   0  0  0  0  0  0  0  0  0  0  0  0
   18.7533   -8.3638   15.6661 C   0  0  0  0  0  0  0  0  0  0  0  0
   17.7389   -9.2277   15.8165 N   0  0  0  0  0  0  0  0  0  0  0  0
   17.5348   -9.2879   17.1426 N   0  0  0  0  0  0  0  0  0  0  0  0
   16.5851  -10.2612   17.6382 C   0  0  0  0  0  0  0  0  0  0  0  0
  1  2  1  0
  2  3  2  0
  3  4  1  0
  4  5  1  0
  5  6  1  6
  5  7  1  0
  7  8  1  0
  9  8  1  6
  9 10  1  0
 10 11  1  0
 11 12  1  6
 12 13  1  0
 13 14  1  0
 14 15  2  0
 15 16  1  0
 16 17  2  0
 17 18  1  0
 17 19  1  0
 19 20  2  0
  4 21  2  0
 21 22  1  0
 22 23  2  0
 23 24  1  0
 24 25  2  0
 25 26  1  0
 26 27  1  0
 26  2  1  0
 24  3  1  0
 11  7  1  0
 20 14  1  0
 13  9  1  0
M  END
>  <energy_score>  (1043) 
-31.150129

>  <inchikey>  (1043) 
None

>  <smiles>  (1043) 
None

>  <ref_pdb>  (1043) 
A1105b

>  <alias>  (1043) 
None

>  <HIPPO Pose ID>  (1043) 
498687

>  <name>  (1043) 
P498687

>  <HIPPO Compound ID>  (1043) 
293462

>  <ref_mols>  (1043) 
A0497a,A1105b

>  <distance_score>  (1043) 
1.255389

>  <inspiration_score>  (1043) 
None

$$$$
P498688
     RDKit          3D

 28 31  0  0  0  0  0  0  0  0999 V2000
   19.5585   -2.9848   17.5275 C   0  0  0  0  0  0  0  0  0  0  0  0
   18.1910   -2.9615   17.8698 O   0  0  0  0  0  0  0  0  0  0  0  0
   17.7969   -4.0550   18.6755 C   0  0  1  0  0  0  0  0  0  0  0  0
   17.7485   -3.6074   20.0605 N   0  0  0  0  0  0  0  0  0  0  0  0
   18.6704   -4.1369   21.0643 C   0  0  2  0  0  0  0  0  0  0  0  0
   20.0878   -3.5661   20.9976 C   0  0  0  0  0  0  0  0  0  0  0  0
   20.9179   -4.5934   20.2267 C   0  0  0  0  0  0  0  0  0  0  0  0
   20.1600   -5.8332   20.3054 N   0  0  0  0  0  0  0  0  0  0  0  0
   20.0912   -6.7509   19.2810 C   0  0  0  0  0  0  0  0  0  0  0  0
   20.9326   -6.7593   18.1684 C   0  0  0  0  0  0  0  0  0  0  0  0
   20.7462   -7.7096   17.1656 C   0  0  0  0  0  0  0  0  0  0  0  0
   19.7454   -8.6615   17.3094 C   0  0  0  0  0  0  0  0  0  0  0  0
   18.9474   -8.6021   18.4398 C   0  0  0  0  0  0  0  0  0  0  0  0
   17.8226   -9.5372   18.6986 C   0  0  0  0  0  0  0  0  0  0  0  0
   19.1122   -7.6685   19.3883 N   0  0  0  0  0  0  0  0  0  0  0  0
   18.9393   -5.6488   21.1023 C   0  0  0  0  0  0  0  0  0  0  0  0
   16.4274   -4.4909   18.1460 C   0  0  0  0  0  0  0  0  0  0  0  0
   15.3321   -3.6082   18.1540 C   0  0  0  0  0  0  0  0  0  0  0  0
   14.0736   -3.9901   17.6938 C   0  0  0  0  0  0  0  0  0  0  0  0
   13.8134   -5.2824   17.2626 C   0  0  0  0  0  0  0  0  0  0  0  0
   14.8778   -6.1729   17.2522 C   0  0  0  0  0  0  0  0  0  0  0  0
   16.1662   -5.7621   17.5829 C   0  0  0  0  0  0  0  0  0  0  0  0
   16.9556   -6.7890   17.0599 C   0  0  0  0  0  0  0  0  0  0  0  0
   16.2692   -7.8720   16.6940 N   0  0  0  0  0  0  0  0  0  0  0  0
   14.9693   -7.5151   16.9043 N   0  0  0  0  0  0  0  0  0  0  0  0
   13.9335   -8.4449   16.6386 C   0  0  0  0  0  0  0  0  0  0  0  0
   12.7717   -8.0482   16.6626 O   0  0  0  0  0  0  0  0  0  0  0  0
   14.3991  -10.0869   16.2634 Cl  0  0  0  0  0  0  0  0  0  0  0  0
  1  2  1  0
  2  3  1  0
  3  4  1  1
  5  4  1  6
  5  6  1  0
  6  7  1  0
  7  8  1  0
  8  9  1  0
  9 10  2  0
 10 11  1  0
 11 12  2  0
 12 13  1  0
 13 14  1  0
 13 15  2  0
  8 16  1  0
  3 17  1  0
 17 18  2  0
 18 19  1  0
 19 20  2  0
 20 21  1  0
 21 22  2  0
 22 23  1  0
 23 24  2  0
 24 25  1  0
 25 26  1  0
 26 27  2  0
 26 28  1  0
 16  5  1  0
 22 17  1  0
 15  9  1  0
 25 21  1  0
M  END
>  <energy_score>  (1044) 
-24.275287

>  <inchikey>  (1044) 
None

>  <smiles>  (1044) 
None

>  <ref_pdb>  (1044) 
A1105b

>  <alias>  (1044) 
None

>  <HIPPO Pose ID>  (1044) 
498688

>  <name>  (1044) 
P498688

>  <HIPPO Compound ID>  (1044) 
293463

>  <ref_mols>  (1044) 
A0497a,A1105b

>  <distance_score>  (1044) 
1.936315

>  <inspiration_score>  (1044) 
None

$$$$
P498689
     RDKit          3D

 28 31  0  0  0  0  0  0  0  0999 V2000
   17.6977   -1.9989   19.7364 C   0  0  0  0  0  0  0  0  0  0  0  0
   17.4433   -3.3606   20.0405 O   0  0  0  0  0  0  0  0  0  0  0  0
   17.6610   -4.3137   19.0039 C   0  0  2  0  0  0  0  0  0  0  0  0
   18.8605   -4.0500   18.2552 N   0  0  0  0  0  0  0  0  0  0  0  0
   20.0641   -3.8531   19.0935 C   0  0  2  0  0  0  0  0  0  0  0  0
   21.1812   -3.3883   18.1645 C   0  0  0  0  0  0  0  0  0  0  0  0
   21.6507   -4.6880   17.4992 C   0  0  0  0  0  0  0  0  0  0  0  0
   21.3705   -5.7401   18.4998 N   0  0  0  0  0  0  0  0  0  0  0  0
   20.6783   -6.8614   18.0368 C   0  0  0  0  0  0  0  0  0  0  0  0
   21.0105   -7.4846   16.8409 C   0  0  0  0  0  0  0  0  0  0  0  0
   20.2956   -8.6105   16.4485 C   0  0  0  0  0  0  0  0  0  0  0  0
   19.2868   -9.1112   17.2682 C   0  0  0  0  0  0  0  0  0  0  0  0
   18.9943   -8.4379   18.4411 C   0  0  0  0  0  0  0  0  0  0  0  0
   17.8852   -8.8237   19.3633 C   0  0  0  0  0  0  0  0  0  0  0  0
   19.6656   -7.3333   18.7982 N   0  0  0  0  0  0  0  0  0  0  0  0
   20.7379   -5.1047   19.6745 C   0  0  0  0  0  0  0  0  0  0  0  0
   16.3971   -4.5752   18.1680 C   0  0  0  0  0  0  0  0  0  0  0  0
   15.3279   -3.6634   18.1107 C   0  0  0  0  0  0  0  0  0  0  0  0
   14.0799   -4.0056   17.5875 C   0  0  0  0  0  0  0  0  0  0  0  0
   13.7928   -5.2940   17.1658 C   0  0  0  0  0  0  0  0  0  0  0  0
   14.8362   -6.2074   17.1896 C   0  0  0  0  0  0  0  0  0  0  0  0
   16.1244   -5.8232   17.5543 C   0  0  0  0  0  0  0  0  0  0  0  0
   16.8975   -6.8599   17.0310 C   0  0  0  0  0  0  0  0  0  0  0  0
   16.2025   -7.9493   16.7036 N   0  0  0  0  0  0  0  0  0  0  0  0
   14.9050   -7.5594   16.8686 N   0  0  0  0  0  0  0  0  0  0  0  0
   13.8575   -8.4716   16.5900 C   0  0  0  0  0  0  0  0  0  0  0  0
   12.7064   -8.0459   16.5606 O   0  0  0  0  0  0  0  0  0  0  0  0
   14.2972  -10.1331   16.2762 Cl  0  0  0  0  0  0  0  0  0  0  0  0
  1  2  1  0
  2  3  1  0
  3  4  1  6
  5  4  1  6
  5  6  1  0
  6  7  1  0
  7  8  1  0
  8  9  1  0
  9 10  2  0
 10 11  1  0
 11 12  2  0
 12 13  1  0
 13 14  1  0
 13 15  2  0
  8 16  1  0
  3 17  1  0
 17 18  2  0
 18 19  1  0
 19 20  2  0
 20 21  1  0
 21 22  2  0
 22 23  1  0
 23 24  2  0
 24 25  1  0
 25 26  1  0
 26 27  2  0
 26 28  1  0
 16  5  1  0
 22 17  1  0
 15  9  1  0
 25 21  1  0
M  END
>  <energy_score>  (1045) 
-16.230381

>  <inchikey>  (1045) 
None

>  <smiles>  (1045) 
None

>  <ref_pdb>  (1045) 
A1105b

>  <alias>  (1045) 
None

>  <HIPPO Pose ID>  (1045) 
498689

>  <name>  (1045) 
P498689

>  <HIPPO Compound ID>  (1045) 
293463

>  <ref_mols>  (1045) 
A0497a,A1105b

>  <distance_score>  (1045) 
1.988961

>  <inspiration_score>  (1045) 
None

$$$$
P498690
     RDKit          3D

 28 31  0  0  0  0  0  0  0  0999 V2000
   18.8670   -2.1718   18.8595 C   0  0  0  0  0  0  0  0  0  0  0  0
   17.6012   -2.7974   18.9722 O   0  0  0  0  0  0  0  0  0  0  0  0
   17.6240   -4.1991   18.7339 C   0  0  1  0  0  0  0  0  0  0  0  0
   18.0413   -4.7982   20.0083 N   0  0  0  0  0  0  0  0  0  0  0  0
   19.2033   -5.6263   19.7631 C   0  0  2  0  0  0  0  0  0  0  0  0
   19.7764   -6.4246   20.9126 C   0  0  0  0  0  0  0  0  0  0  0  0
   21.0047   -7.1030   20.2457 C   0  0  0  0  0  0  0  0  0  0  0  0
   21.3805   -6.2541   19.0733 N   0  0  0  0  0  0  0  0  0  0  0  0
   20.9818   -6.8277   17.8099 C   0  0  0  0  0  0  0  0  0  0  0  0
   21.4830   -6.2320   16.6499 C   0  0  0  0  0  0  0  0  0  0  0  0
   20.8318   -6.4390   15.4422 C   0  0  0  0  0  0  0  0  0  0  0  0
   19.7090   -7.2500   15.4100 C   0  0  0  0  0  0  0  0  0  0  0  0
   19.3074   -7.8689   16.5807 C   0  0  0  0  0  0  0  0  0  0  0  0
   18.1299   -8.7756   16.5787 C   0  0  0  0  0  0  0  0  0  0  0  0
   19.9430   -7.6945   17.7572 N   0  0  0  0  0  0  0  0  0  0  0  0
   20.5226   -5.0464   19.1970 C   0  0  0  0  0  0  0  0  0  0  0  0
   16.2645   -4.6936   18.2109 C   0  0  0  0  0  0  0  0  0  0  0  0
   15.3200   -3.7373   17.7773 C   0  0  0  0  0  0  0  0  0  0  0  0
   14.1110   -4.0772   17.1852 C   0  0  0  0  0  0  0  0  0  0  0  0
   13.7604   -5.4036   17.0069 C   0  0  0  0  0  0  0  0  0  0  0  0
   14.6250   -6.3816   17.4984 C   0  0  0  0  0  0  0  0  0  0  0  0
   15.8451   -6.0549   18.0962 C   0  0  0  0  0  0  0  0  0  0  0  0
   16.3000   -7.3013   18.5794 C   0  0  0  0  0  0  0  0  0  0  0  0
   15.5168   -8.3322   18.2640 N   0  0  0  0  0  0  0  0  0  0  0  0
   14.4899   -7.7642   17.5748 N   0  0  0  0  0  0  0  0  0  0  0  0
   13.4849   -8.5885   17.0095 C   0  0  0  0  0  0  0  0  0  0  0  0
   12.6898   -8.0785   16.2222 O   0  0  0  0  0  0  0  0  0  0  0  0
   13.4897  -10.2827   17.4331 Cl  0  0  0  0  0  0  0  0  0  0  0  0
  1  2  1  0
  2  3  1  0
  3  4  1  1
  5  4  1  1
  5  6  1  0
  6  7  1  0
  7  8  1  0
  8  9  1  0
  9 10  2  0
 10 11  1  0
 11 12  2  0
 12 13  1  0
 13 14  1  0
 13 15  2  0
  8 16  1  0
  3 17  1  0
 17 18  2  0
 18 19  1  0
 19 20  2  0
 20 21  1  0
 21 22  2  0
 22 23  1  0
 23 24  2  0
 24 25  1  0
 25 26  1  0
 26 27  2  0
 26 28  1  0
 16  5  1  0
 22 17  1  0
 15  9  1  0
 25 21  1  0
M  END
>  <energy_score>  (1046) 
-103.137603

>  <inchikey>  (1046) 
None

>  <smiles>  (1046) 
None

>  <ref_pdb>  (1046) 
A1105b

>  <alias>  (1046) 
None

>  <HIPPO Pose ID>  (1046) 
498690

>  <name>  (1046) 
P498690

>  <HIPPO Compound ID>  (1046) 
293463

>  <ref_mols>  (1046) 
A0497a,A1105b

>  <distance_score>  (1046) 
1.758311

>  <inspiration_score>  (1046) 
None

$$$$
P498691
     RDKit          3D

 28 31  0  0  0  0  0  0  0  0999 V2000
   18.8834   -2.2002   19.0265 C   0  0  0  0  0  0  0  0  0  0  0  0
   18.2202   -3.2262   18.3066 O   0  0  0  0  0  0  0  0  0  0  0  0
   17.4140   -4.0706   19.1115 C   0  0  2  0  0  0  0  0  0  0  0  0
   18.2156   -4.8901   20.0151 N   0  0  0  0  0  0  0  0  0  0  0  0
   19.2583   -5.6651   19.3580 C   0  0  2  0  0  0  0  0  0  0  0  0
   20.4755   -5.9512   20.2223 C   0  0  0  0  0  0  0  0  0  0  0  0
   21.3482   -6.7855   19.2589 C   0  0  0  0  0  0  0  0  0  0  0  0
   21.0135   -6.3310   17.8868 N   0  0  0  0  0  0  0  0  0  0  0  0
   20.3657   -7.3239   17.0810 C   0  0  0  0  0  0  0  0  0  0  0  0
   19.4917   -8.1914   17.6566 N   0  0  0  0  0  0  0  0  0  0  0  0
   18.6614   -8.8844   16.8516 C   0  0  0  0  0  0  0  0  0  0  0  0
   18.6430   -8.7580   15.4774 C   0  0  0  0  0  0  0  0  0  0  0  0
   19.5766   -7.9225   14.8852 C   0  0  0  0  0  0  0  0  0  0  0  0
   20.4565   -7.2183   15.6870 C   0  0  0  0  0  0  0  0  0  0  0  0
   21.3621   -6.4326   15.0961 F   0  0  0  0  0  0  0  0  0  0  0  0
   19.9761   -5.2690   18.0408 C   0  0  0  0  0  0  0  0  0  0  0  0
   16.2994   -4.7439   18.2699 C   0  0  0  0  0  0  0  0  0  0  0  0
   15.3487   -3.8239   17.7583 C   0  0  0  0  0  0  0  0  0  0  0  0
   14.1693   -4.2090   17.1413 C   0  0  0  0  0  0  0  0  0  0  0  0
   13.8743   -5.5520   16.9687 C   0  0  0  0  0  0  0  0  0  0  0  0
   14.7836   -6.5102   17.4331 C   0  0  0  0  0  0  0  0  0  0  0  0
   15.9583   -6.1282   18.1081 C   0  0  0  0  0  0  0  0  0  0  0  0
   16.4059   -7.3579   18.6388 C   0  0  0  0  0  0  0  0  0  0  0  0
   15.7263   -8.4222   18.2281 N   0  0  0  0  0  0  0  0  0  0  0  0
   14.7421   -7.9105   17.4425 N   0  0  0  0  0  0  0  0  0  0  0  0
   13.8931   -8.8392   16.7734 C   0  0  0  0  0  0  0  0  0  0  0  0
   13.9958  -10.0307   17.0652 O   0  0  0  0  0  0  0  0  0  0  0  0
   12.8251   -8.2761   15.5248 Cl  0  0  0  0  0  0  0  0  0  0  0  0
  1  2  1  0
  2  3  1  0
  3  4  1  6
  5  4  1  1
  5  6  1  0
  6  7  1  0
  7  8  1  0
  8  9  1  0
  9 10  2  0
 10 11  1  0
 11 12  2  0
 12 13  1  0
 13 14  2  0
 14 15  1  0
  8 16  1  0
  3 17  1  0
 17 18  2  0
 18 19  1  0
 19 20  2  0
 20 21  1  0
 21 22  2  0
 22 23  1  0
 23 24  2  0
 24 25  1  0
 25 26  1  0
 26 27  2  0
 26 28  1  0
 16  5  1  0
 22 17  1  0
 14  9  1  0
 25 21  1  0
M  END
>  <energy_score>  (1047) 
-35.591977

>  <inchikey>  (1047) 
None

>  <smiles>  (1047) 
None

>  <ref_pdb>  (1047) 
A1105b

>  <alias>  (1047) 
None

>  <HIPPO Pose ID>  (1047) 
498691

>  <name>  (1047) 
P498691

>  <HIPPO Compound ID>  (1047) 
293464

>  <ref_mols>  (1047) 
A0497a,A1105b

>  <distance_score>  (1047) 
1.766373

>  <inspiration_score>  (1047) 
None

$$$$
P498692
     RDKit          3D

 28 31  0  0  0  0  0  0  0  0999 V2000
   18.6888   -2.5731   18.1511 C   0  0  0  0  0  0  0  0  0  0  0  0
   18.0033   -3.3521   19.1037 O   0  0  0  0  0  0  0  0  0  0  0  0
   17.8805   -4.7236   18.7563 C   0  0  1  0  0  0  0  0  0  0  0  0
   18.1376   -5.4094   20.0189 N   0  0  0  0  0  0  0  0  0  0  0  0
   19.5388   -5.7275   20.3589 C   0  0  2  0  0  0  0  0  0  0  0  0
   20.6665   -4.7699   19.9683 C   0  0  0  0  0  0  0  0  0  0  0  0
   21.1539   -5.2519   18.5892 C   0  0  0  0  0  0  0  0  0  0  0  0
   20.7160   -6.6479   18.4861 N   0  0  0  0  0  0  0  0  0  0  0  0
   20.1119   -7.0907   17.3078 C   0  0  0  0  0  0  0  0  0  0  0  0
   19.1770   -8.0687   17.4204 N   0  0  0  0  0  0  0  0  0  0  0  0
   18.5343   -8.5092   16.3201 C   0  0  0  0  0  0  0  0  0  0  0  0
   18.7812   -8.0349   15.0548 C   0  0  0  0  0  0  0  0  0  0  0  0
   19.7641   -7.0736   14.9123 C   0  0  0  0  0  0  0  0  0  0  0  0
   20.4258   -6.5951   16.0318 C   0  0  0  0  0  0  0  0  0  0  0  0
   21.3384   -5.6367   15.8204 F   0  0  0  0  0  0  0  0  0  0  0  0
   20.0696   -7.0446   19.7462 C   0  0  0  0  0  0  0  0  0  0  0  0
   16.4739   -5.0202   18.2096 C   0  0  0  0  0  0  0  0  0  0  0  0
   15.5960   -3.9667   17.8541 C   0  0  0  0  0  0  0  0  0  0  0  0
   14.3349   -4.1856   17.3048 C   0  0  0  0  0  0  0  0  0  0  0  0
   13.8802   -5.4743   17.0670 C   0  0  0  0  0  0  0  0  0  0  0  0
   14.6960   -6.5394   17.4595 C   0  0  0  0  0  0  0  0  0  0  0  0
   15.9476   -6.3328   18.0402 C   0  0  0  0  0  0  0  0  0  0  0  0
   16.3428   -7.6282   18.4308 C   0  0  0  0  0  0  0  0  0  0  0  0
   15.5097   -8.5915   18.0409 N   0  0  0  0  0  0  0  0  0  0  0  0
   14.4946   -7.9167   17.4295 N   0  0  0  0  0  0  0  0  0  0  0  0
   13.4405   -8.6418   16.8200 C   0  0  0  0  0  0  0  0  0  0  0  0
   12.6614   -8.0298   16.0921 O   0  0  0  0  0  0  0  0  0  0  0  0
   13.3656  -10.3628   17.1040 Cl  0  0  0  0  0  0  0  0  0  0  0  0
  1  2  1  0
  2  3  1  0
  3  4  1  1
  5  4  1  6
  5  6  1  0
  6  7  1  0
  7  8  1  0
  8  9  1  0
  9 10  2  0
 10 11  1  0
 11 12  2  0
 12 13  1  0
 13 14  2  0
 14 15  1  0
  8 16  1  0
  3 17  1  0
 17 18  2  0
 18 19  1  0
 19 20  2  0
 20 21  1  0
 21 22  2  0
 22 23  1  0
 23 24  2  0
 24 25  1  0
 25 26  1  0
 26 27  2  0
 26 28  1  0
 16  5  1  0
 22 17  1  0
 14  9  1  0
 25 21  1  0
M  END
>  <energy_score>  (1048) 
-54.058854

>  <inchikey>  (1048) 
None

>  <smiles>  (1048) 
None

>  <ref_pdb>  (1048) 
A1105b

>  <alias>  (1048) 
None

>  <HIPPO Pose ID>  (1048) 
498692

>  <name>  (1048) 
P498692

>  <HIPPO Compound ID>  (1048) 
293464

>  <ref_mols>  (1048) 
A0497a,A1105b

>  <distance_score>  (1048) 
1.692796

>  <inspiration_score>  (1048) 
None

$$$$
P498693
     RDKit          3D

 28 31  0  0  0  0  0  0  0  0999 V2000
   18.1771   -2.0451   19.4333 C   0  0  0  0  0  0  0  0  0  0  0  0
   18.0550   -3.0807   18.4663 O   0  0  0  0  0  0  0  0  0  0  0  0
   17.5329   -4.2616   19.0442 C   0  0  2  0  0  0  0  0  0  0  0  0
   18.5269   -5.2967   19.1138 N   0  0  0  0  0  0  0  0  0  0  0  0
   19.8641   -5.0451   19.6550 C   0  0  2  0  0  0  0  0  0  0  0  0
   20.7707   -4.0638   18.9023 C   0  0  0  0  0  0  0  0  0  0  0  0
   21.0669   -4.7762   17.5767 C   0  0  0  0  0  0  0  0  0  0  0  0
   21.0421   -6.2179   17.9177 N   0  0  0  0  0  0  0  0  0  0  0  0
   20.2705   -7.0074   17.0400 C   0  0  0  0  0  0  0  0  0  0  0  0
   19.4656   -7.9596   17.5797 N   0  0  0  0  0  0  0  0  0  0  0  0
   18.6714   -8.6905   16.7709 C   0  0  0  0  0  0  0  0  0  0  0  0
   18.6002   -8.5149   15.4088 C   0  0  0  0  0  0  0  0  0  0  0  0
   19.4343   -7.5711   14.8397 C   0  0  0  0  0  0  0  0  0  0  0  0
   20.2785   -6.8254   15.6476 C   0  0  0  0  0  0  0  0  0  0  0  0
   21.0554   -5.9209   15.0373 F   0  0  0  0  0  0  0  0  0  0  0  0
   20.6973   -6.3333   19.3625 C   0  0  0  0  0  0  0  0  0  0  0  0
   16.3080   -4.7618   18.2439 C   0  0  0  0  0  0  0  0  0  0  0  0
   15.3572   -3.8166   17.8130 C   0  0  0  0  0  0  0  0  0  0  0  0
   14.1628   -4.1880   17.2077 C   0  0  0  0  0  0  0  0  0  0  0  0
   13.8461   -5.5283   17.0044 C   0  0  0  0  0  0  0  0  0  0  0  0
   14.7472   -6.5056   17.4426 C   0  0  0  0  0  0  0  0  0  0  0  0
   15.9402   -6.1374   18.0744 C   0  0  0  0  0  0  0  0  0  0  0  0
   16.4525   -7.3663   18.5447 C   0  0  0  0  0  0  0  0  0  0  0  0
   15.7353   -8.4249   18.1858 N   0  0  0  0  0  0  0  0  0  0  0  0
   14.7067   -7.9054   17.4542 N   0  0  0  0  0  0  0  0  0  0  0  0
   13.8316   -8.8280   16.8140 C   0  0  0  0  0  0  0  0  0  0  0  0
   13.9058  -10.0146   17.1324 O   0  0  0  0  0  0  0  0  0  0  0  0
   12.7803   -8.2618   15.5533 Cl  0  0  0  0  0  0  0  0  0  0  0  0
  1  2  1  0
  2  3  1  0
  3  4  1  6
  5  4  1  6
  5  6  1  0
  6  7  1  0
  7  8  1  0
  8  9  1  0
  9 10  2  0
 10 11  1  0
 11 12  2  0
 12 13  1  0
 13 14  2  0
 14 15  1  0
  8 16  1  0
  3 17  1  0
 17 18  2  0
 18 19  1  0
 19 20  2  0
 20 21  1  0
 21 22  2  0
 22 23  1  0
 23 24  2  0
 24 25  1  0
 25 26  1  0
 26 27  2  0
 26 28  1  0
 16  5  1  0
 22 17  1  0
 14  9  1  0
 25 21  1  0
M  END
>  <energy_score>  (1049) 
-21.879806

>  <inchikey>  (1049) 
None

>  <smiles>  (1049) 
None

>  <ref_pdb>  (1049) 
A1105b

>  <alias>  (1049) 
None

>  <HIPPO Pose ID>  (1049) 
498693

>  <name>  (1049) 
P498693

>  <HIPPO Compound ID>  (1049) 
293464

>  <ref_mols>  (1049) 
A0497a,A1105b

>  <distance_score>  (1049) 
1.703543

>  <inspiration_score>  (1049) 
None

$$$$
P498694
     RDKit          3D

 28 31  0  0  0  0  0  0  0  0999 V2000
   18.7699   -2.8305   17.9352 C   0  0  0  0  0  0  0  0  0  0  0  0
   18.1193   -3.4731   19.0117 O   0  0  0  0  0  0  0  0  0  0  0  0
   17.8796   -4.8546   18.7920 C   0  0  1  0  0  0  0  0  0  0  0  0
   18.0230   -5.5194   20.0878 N   0  0  0  0  0  0  0  0  0  0  0  0
   19.3620   -5.7054   20.6638 C   0  0  2  0  0  0  0  0  0  0  0  0
   20.4570   -4.6573   20.4824 C   0  0  0  0  0  0  0  0  0  0  0  0
   21.2870   -5.1297   19.2823 C   0  0  0  0  0  0  0  0  0  0  0  0
   20.9302   -6.5460   19.0609 N   0  0  0  0  0  0  0  0  0  0  0  0
   20.4917   -6.8709   17.7654 C   0  0  0  0  0  0  0  0  0  0  0  0
   19.4007   -7.6727   17.6225 N   0  0  0  0  0  0  0  0  0  0  0  0
   18.9300   -7.9080   16.3762 C   0  0  0  0  0  0  0  0  0  0  0  0
   19.4769   -7.3719   15.2314 C   0  0  0  0  0  0  0  0  0  0  0  0
   20.6103   -6.5879   15.3599 C   0  0  0  0  0  0  0  0  0  0  0  0
   21.1336   -6.3605   16.6232 C   0  0  0  0  0  0  0  0  0  0  0  0
   22.2513   -5.6223   16.7240 F   0  0  0  0  0  0  0  0  0  0  0  0
   20.0862   -6.9861   20.1747 C   0  0  0  0  0  0  0  0  0  0  0  0
   16.4761   -5.1065   18.1959 C   0  0  0  0  0  0  0  0  0  0  0  0
   15.6094   -4.0235   17.9090 C   0  0  0  0  0  0  0  0  0  0  0  0
   14.3436   -4.1987   17.3562 C   0  0  0  0  0  0  0  0  0  0  0  0
   13.8694   -5.4677   17.0556 C   0  0  0  0  0  0  0  0  0  0  0  0
   14.6756   -6.5650   17.3742 C   0  0  0  0  0  0  0  0  0  0  0  0
   15.9369   -6.4075   17.9506 C   0  0  0  0  0  0  0  0  0  0  0  0
   16.3317   -7.7351   18.2277 C   0  0  0  0  0  0  0  0  0  0  0  0
   15.4788   -8.6593   17.7964 N   0  0  0  0  0  0  0  0  0  0  0  0
   14.4588   -7.9359   17.2518 N   0  0  0  0  0  0  0  0  0  0  0  0
   13.3944   -8.6117   16.6046 C   0  0  0  0  0  0  0  0  0  0  0  0
   12.6238   -7.9491   15.9140 O   0  0  0  0  0  0  0  0  0  0  0  0
   13.2971  -10.3445   16.7917 Cl  0  0  0  0  0  0  0  0  0  0  0  0
  1  2  1  0
  2  3  1  0
  3  4  1  1
  5  4  1  6
  5  6  1  0
  6  7  1  0
  7  8  1  0
  8  9  1  0
  9 10  2  0
 10 11  1  0
 11 12  2  0
 12 13  1  0
 13 14  2  0
 14 15  1  0
  8 16  1  0
  3 17  1  0
 17 18  2  0
 18 19  1  0
 19 20  2  0
 20 21  1  0
 21 22  2  0
 22 23  1  0
 23 24  2  0
 24 25  1  0
 25 26  1  0
 26 27  2  0
 26 28  1  0
 16  5  1  0
 22 17  1  0
 14  9  1  0
 25 21  1  0
M  END
>  <energy_score>  (1050) 
-39.032292

>  <inchikey>  (1050) 
None

>  <smiles>  (1050) 
None

>  <ref_pdb>  (1050) 
A1105b

>  <alias>  (1050) 
None

>  <HIPPO Pose ID>  (1050) 
498694

>  <name>  (1050) 
P498694

>  <HIPPO Compound ID>  (1050) 
293464

>  <ref_mols>  (1050) 
A0497a,A1105b

>  <distance_score>  (1050) 
1.555655

>  <inspiration_score>  (1050) 
None

$$$$
P498695
     RDKit          3D

 28 32  0  0  0  0  0  0  0  0999 V2000
   17.3313   -2.5502   19.4271 O   0  0  0  0  0  0  0  0  0  0  0  0
   17.5101   -3.9385   19.2054 C   0  0  1  0  0  0  0  0  0  0  0  0
   16.4187   -4.5546   18.3259 C   0  0  0  0  0  0  0  0  0  0  0  0
   15.3366   -3.7698   17.8221 C   0  0  0  0  0  0  0  0  0  0  0  0
   14.1547   -4.2650   17.1924 C   0  0  0  0  0  0  0  0  0  0  0  0
   13.9159   -5.6268   16.9743 C   0  0  0  0  0  0  0  0  0  0  0  0
   14.9485   -6.4596   17.4146 C   0  0  0  0  0  0  0  0  0  0  0  0
   15.0215   -7.8010   17.3423 N   0  0  0  0  0  0  0  0  0  0  0  0
   16.1319   -8.1121   18.0477 N   0  0  0  0  0  0  0  0  0  0  0  0
   16.4741   -9.5034   18.3167 C   0  0  0  0  0  0  0  0  0  0  0  0
   17.8226   -9.6989   18.2951 F   0  0  0  0  0  0  0  0  0  0  0  0
   16.0593   -9.8819   19.5574 F   0  0  0  0  0  0  0  0  0  0  0  0
   16.8255   -7.0182   18.4945 C   0  0  0  0  0  0  0  0  0  0  0  0
   16.1348   -5.9180   18.0590 C   0  0  0  0  0  0  0  0  0  0  0  0
   18.8435   -4.1820   18.7781 N   0  0  0  0  0  0  0  0  0  0  0  0
   19.6321   -5.1578   19.5366 C   0  0  0  0  0  0  0  0  0  0  0  0
   21.0612   -4.6749   19.2287 C   0  0  2  0  0  0  0  0  0  0  0  0
   20.8313   -3.1917   19.5510 C   0  0  0  0  0  0  0  0  0  0  0  0
   19.7678   -3.0589   18.4707 C   0  0  1  0  0  0  0  0  0  0  0  0
   20.6713   -3.4305   17.2597 C   0  0  0  0  0  0  0  0  0  0  0  0
   21.3927   -4.6680   17.7364 N   0  0  0  0  0  0  0  0  0  0  0  0
   20.8484   -5.7875   17.0536 C   0  0  0  0  0  0  0  0  0  0  0  0
   21.5746   -6.9531   16.8957 C   0  0  0  0  0  0  0  0  0  0  0  0
   20.9674   -8.0582   16.2822 C   0  0  0  0  0  0  0  0  0  0  0  0
   19.6510   -7.9730   15.8473 C   0  0  0  0  0  0  0  0  0  0  0  0
   18.7570   -9.3835   14.9920 Br  0  0  0  0  0  0  0  0  0  0  0  0
   18.9969   -6.7906   16.0311 C   0  0  0  0  0  0  0  0  0  0  0  0
   19.5840   -5.7315   16.5993 N   0  0  0  0  0  0  0  0  0  0  0  0
  2  1  1  6
  2  3  1  0
  3  4  2  0
  4  5  1  0
  5  6  2  0
  6  7  1  0
  7  8  2  0
  8  9  1  0
  9 10  1  0
 10 11  1  0
 10 12  1  0
  9 13  1  0
 13 14  2  0
  2 15  1  0
 15 16  1  0
 17 16  1  6
 17 18  1  0
 18 19  1  0
 19 20  1  6
 20 21  1  0
 21 22  1  0
 22 23  2  0
 23 24  1  0
 24 25  2  0
 25 26  1  0
 25 27  1  0
 27 28  2  0
 14  3  1  0
 19 15  1  0
 28 22  1  0
 14  7  1  0
 21 17  1  0
M  END
>  <energy_score>  (1051) 
-13.566223

>  <inchikey>  (1051) 
None

>  <smiles>  (1051) 
None

>  <ref_pdb>  (1051) 
A1105b

>  <alias>  (1051) 
None

>  <HIPPO Pose ID>  (1051) 
498695

>  <name>  (1051) 
P498695

>  <HIPPO Compound ID>  (1051) 
293465

>  <ref_mols>  (1051) 
A0497a,A1105b

>  <distance_score>  (1051) 
1.833617

>  <inspiration_score>  (1051) 
None

$$$$
P498696
     RDKit          3D

 28 32  0  0  0  0  0  0  0  0999 V2000
   18.4400   -4.5584   17.3097 O   0  0  0  0  0  0  0  0  0  0  0  0
   17.5831   -3.9623   18.2376 C   0  0  1  0  0  0  0  0  0  0  0  0
   16.2407   -4.6191   18.0439 C   0  0  0  0  0  0  0  0  0  0  0  0
   15.1172   -3.7764   17.8402 C   0  0  0  0  0  0  0  0  0  0  0  0
   13.8691   -4.2026   17.3283 C   0  0  0  0  0  0  0  0  0  0  0  0
   13.5848   -5.5342   17.0101 C   0  0  0  0  0  0  0  0  0  0  0  0
   14.6026   -6.4354   17.3152 C   0  0  0  0  0  0  0  0  0  0  0  0
   14.6100   -7.7711   17.1613 N   0  0  0  0  0  0  0  0  0  0  0  0
   15.8038   -8.1505   17.6706 N   0  0  0  0  0  0  0  0  0  0  0  0
   16.1068   -9.5623   17.8680 C   0  0  0  0  0  0  0  0  0  0  0  0
   15.9550   -9.9236   19.1719 F   0  0  0  0  0  0  0  0  0  0  0  0
   17.3981   -9.8509   17.5445 F   0  0  0  0  0  0  0  0  0  0  0  0
   16.6216   -7.0980   17.9813 C   0  0  0  0  0  0  0  0  0  0  0  0
   15.8771   -5.9654   17.8102 C   0  0  0  0  0  0  0  0  0  0  0  0
   18.1435   -3.8606   19.5870 N   0  0  0  0  0  0  0  0  0  0  0  0
   18.7065   -5.1244   20.1138 C   0  0  0  0  0  0  0  0  0  0  0  0
   20.2066   -4.8238   20.3616 C   0  0  2  0  0  0  0  0  0  0  0  0
   20.0375   -3.3958   20.8897 C   0  0  0  0  0  0  0  0  0  0  0  0
   19.3452   -2.9414   19.6117 C   0  0  1  0  0  0  0  0  0  0  0  0
   20.5103   -3.2733   18.6142 C   0  0  0  0  0  0  0  0  0  0  0  0
   20.9823   -4.6080   19.0887 N   0  0  0  0  0  0  0  0  0  0  0  0
   20.9142   -5.6595   18.1538 C   0  0  0  0  0  0  0  0  0  0  0  0
   21.1677   -5.4314   16.7934 C   0  0  0  0  0  0  0  0  0  0  0  0
   20.6734   -6.3155   15.8344 C   0  0  0  0  0  0  0  0  0  0  0  0
   20.0114   -7.4511   16.2555 C   0  0  0  0  0  0  0  0  0  0  0  0
   19.0828   -8.5359   15.0260 Br  0  0  0  0  0  0  0  0  0  0  0  0
   20.0223   -7.7310   17.6076 C   0  0  0  0  0  0  0  0  0  0  0  0
   20.4906   -6.8804   18.5587 N   0  0  0  0  0  0  0  0  0  0  0  0
  2  1  1  6
  2  3  1  0
  3  4  2  0
  4  5  1  0
  5  6  2  0
  6  7  1  0
  7  8  2  0
  8  9  1  0
  9 10  1  0
 10 11  1  0
 10 12  1  0
  9 13  1  0
 13 14  2  0
  2 15  1  0
 15 16  1  0
 17 16  1  6
 17 18  1  0
 18 19  1  0
 19 20  1  6
 20 21  1  0
 21 22  1  0
 22 23  2  0
 23 24  1  0
 24 25  2  0
 25 26  1  0
 25 27  1  0
 27 28  2  0
 14  3  1  0
 19 15  1  0
 28 22  1  0
 14  7  1  0
 21 17  1  0
M  END
>  <energy_score>  (1052) 
-32.832735

>  <inchikey>  (1052) 
None

>  <smiles>  (1052) 
None

>  <ref_pdb>  (1052) 
A1105b

>  <alias>  (1052) 
None

>  <HIPPO Pose ID>  (1052) 
498696

>  <name>  (1052) 
P498696

>  <HIPPO Compound ID>  (1052) 
293465

>  <ref_mols>  (1052) 
A0497a,A1105b

>  <distance_score>  (1052) 
1.685567

>  <inspiration_score>  (1052) 
None

$$$$
P498697
     RDKit          3D

 28 32  0  0  0  0  0  0  0  0999 V2000
   17.8873   -3.1156   17.3810 O   0  0  0  0  0  0  0  0  0  0  0  0
   17.7504   -4.2987   18.1620 C   0  0  2  0  0  0  0  0  0  0  0  0
   16.3321   -4.7682   17.9831 C   0  0  0  0  0  0  0  0  0  0  0  0
   15.2735   -3.8333   17.8350 C   0  0  0  0  0  0  0  0  0  0  0  0
   13.9801   -4.1510   17.3503 C   0  0  0  0  0  0  0  0  0  0  0  0
   13.5876   -5.4512   17.0135 C   0  0  0  0  0  0  0  0  0  0  0  0
   14.5397   -6.4342   17.2804 C   0  0  0  0  0  0  0  0  0  0  0  0
   14.4513   -7.7657   17.1164 N   0  0  0  0  0  0  0  0  0  0  0  0
   15.6330   -8.2367   17.5784 N   0  0  0  0  0  0  0  0  0  0  0  0
   15.8507   -9.6737   17.7001 C   0  0  0  0  0  0  0  0  0  0  0  0
   16.1085  -10.2443   16.4923 F   0  0  0  0  0  0  0  0  0  0  0  0
   16.9261   -9.9540   18.4908 F   0  0  0  0  0  0  0  0  0  0  0  0
   16.5132   -7.2503   17.9346 C   0  0  0  0  0  0  0  0  0  0  0  0
   15.8535   -6.0699   17.7493 C   0  0  0  0  0  0  0  0  0  0  0  0
   18.1636   -4.0140   19.5427 N   0  0  0  0  0  0  0  0  0  0  0  0
   18.7073   -5.2421   20.1844 C   0  0  0  0  0  0  0  0  0  0  0  0
   20.2230   -4.9680   20.3243 C   0  0  2  0  0  0  0  0  0  0  0  0
   20.1013   -3.5237   20.8211 C   0  0  0  0  0  0  0  0  0  0  0  0
   19.3708   -3.0889   19.5586 C   0  0  1  0  0  0  0  0  0  0  0  0
   20.4991   -3.4464   18.5357 C   0  0  0  0  0  0  0  0  0  0  0  0
   20.9233   -4.8001   18.9973 N   0  0  0  0  0  0  0  0  0  0  0  0
   20.7831   -5.8380   18.0655 C   0  0  0  0  0  0  0  0  0  0  0  0
   20.9867   -5.6079   16.6976 C   0  0  0  0  0  0  0  0  0  0  0  0
   20.4502   -6.4804   15.7539 C   0  0  0  0  0  0  0  0  0  0  0  0
   19.8028   -7.6172   16.1917 C   0  0  0  0  0  0  0  0  0  0  0  0
   18.8603   -8.7114   14.9865 Br  0  0  0  0  0  0  0  0  0  0  0  0
   19.8381   -7.8943   17.5431 C   0  0  0  0  0  0  0  0  0  0  0  0
   20.3183   -7.0373   18.4807 N   0  0  0  0  0  0  0  0  0  0  0  0
  2  1  1  6
  2  3  1  0
  3  4  2  0
  4  5  1  0
  5  6  2  0
  6  7  1  0
  7  8  2  0
  8  9  1  0
  9 10  1  0
 10 11  1  0
 10 12  1  0
  9 13  1  0
 13 14  2  0
  2 15  1  0
 15 16  1  0
 17 16  1  6
 17 18  1  0
 18 19  1  0
 19 20  1  6
 20 21  1  0
 21 22  1  0
 22 23  2  0
 23 24  1  0
 24 25  2  0
 25 26  1  0
 25 27  1  0
 27 28  2  0
 14  3  1  0
 19 15  1  0
 28 22  1  0
 14  7  1  0
 21 17  1  0
M  END
>  <energy_score>  (1053) 
-32.118253

>  <inchikey>  (1053) 
None

>  <smiles>  (1053) 
None

>  <ref_pdb>  (1053) 
A1105b

>  <alias>  (1053) 
None

>  <HIPPO Pose ID>  (1053) 
498697

>  <name>  (1053) 
P498697

>  <HIPPO Compound ID>  (1053) 
293465

>  <ref_mols>  (1053) 
A0497a,A1105b

>  <distance_score>  (1053) 
1.489017

>  <inspiration_score>  (1053) 
None

$$$$
P498698
     RDKit          3D

 28 32  0  0  0  0  0  0  0  0999 V2000
   17.2689   -3.9909   20.4986 O   0  0  0  0  0  0  0  0  0  0  0  0
   17.7444   -4.5107   19.2785 C   0  0  1  0  0  0  0  0  0  0  0  0
   16.5449   -4.7690   18.3827 C   0  0  0  0  0  0  0  0  0  0  0  0
   15.6459   -3.7515   17.9694 C   0  0  0  0  0  0  0  0  0  0  0  0
   14.3928   -3.9792   17.3130 C   0  0  0  0  0  0  0  0  0  0  0  0
   13.8919   -5.2512   16.9984 C   0  0  0  0  0  0  0  0  0  0  0  0
   14.7310   -6.2946   17.3917 C   0  0  0  0  0  0  0  0  0  0  0  0
   14.5375   -7.6209   17.2755 N   0  0  0  0  0  0  0  0  0  0  0  0
   15.5304   -8.1638   18.0191 N   0  0  0  0  0  0  0  0  0  0  0  0
   15.5508   -9.5946   18.2912 C   0  0  0  0  0  0  0  0  0  0  0  0
   16.4858  -10.2221   17.5244 F   0  0  0  0  0  0  0  0  0  0  0  0
   15.8891   -9.8520   19.5859 F   0  0  0  0  0  0  0  0  0  0  0  0
   16.4336   -7.2478   18.4877 C   0  0  0  0  0  0  0  0  0  0  0  0
   15.9940   -6.0278   18.0475 C   0  0  0  0  0  0  0  0  0  0  0  0
   18.7089   -3.5065   18.9280 N   0  0  0  0  0  0  0  0  0  0  0  0
   19.1685   -3.6043   17.5413 C   0  0  0  0  0  0  0  0  0  0  0  0
   20.7050   -3.6643   17.6768 C   0  0  1  0  0  0  0  0  0  0  0  0
   20.8973   -2.7771   18.9023 C   0  0  0  0  0  0  0  0  0  0  0  0
   19.9730   -3.6459   19.7353 C   0  0  2  0  0  0  0  0  0  0  0  0
   20.7253   -5.0178   19.6007 C   0  0  0  0  0  0  0  0  0  0  0  0
   21.1299   -5.0218   18.1747 N   0  0  0  0  0  0  0  0  0  0  0  0
   20.6238   -6.0628   17.3726 C   0  0  0  0  0  0  0  0  0  0  0  0
   20.8755   -6.0281   15.9957 C   0  0  0  0  0  0  0  0  0  0  0  0
   20.1656   -6.8634   15.1425 C   0  0  0  0  0  0  0  0  0  0  0  0
   19.2659   -7.7607   15.6826 C   0  0  0  0  0  0  0  0  0  0  0  0
   18.1852   -8.8307   14.5817 Br  0  0  0  0  0  0  0  0  0  0  0  0
   19.1778   -7.8453   17.0535 C   0  0  0  0  0  0  0  0  0  0  0  0
   19.8146   -7.0106   17.9049 N   0  0  0  0  0  0  0  0  0  0  0  0
  2  1  1  1
  2  3  1  0
  3  4  2  0
  4  5  1  0
  5  6  2  0
  6  7  1  0
  7  8  2  0
  8  9  1  0
  9 10  1  0
 10 11  1  0
 10 12  1  0
  9 13  1  0
 13 14  2  0
  2 15  1  0
 15 16  1  0
 17 16  1  1
 17 18  1  0
 18 19  1  0
 19 20  1  6
 20 21  1  0
 21 22  1  0
 22 23  2  0
 23 24  1  0
 24 25  2  0
 25 26  1  0
 25 27  1  0
 27 28  2  0
 14  3  1  0
 19 15  1  0
 28 22  1  0
 14  7  1  0
 21 17  1  0
M  END
>  <energy_score>  (1054) 
-51.239024

>  <inchikey>  (1054) 
None

>  <smiles>  (1054) 
None

>  <ref_pdb>  (1054) 
A1105b

>  <alias>  (1054) 
None

>  <HIPPO Pose ID>  (1054) 
498698

>  <name>  (1054) 
P498698

>  <HIPPO Compound ID>  (1054) 
293465

>  <ref_mols>  (1054) 
A0497a,A1105b

>  <distance_score>  (1054) 
1.930401

>  <inspiration_score>  (1054) 
None

$$$$
P498699
     RDKit          3D

 28 32  0  0  0  0  0  0  0  0999 V2000
   20.0002   -7.9242   12.2710 C   0  0  0  0  0  0  0  0  0  0  0  0
   18.8844   -7.8902   13.1494 O   0  0  0  0  0  0  0  0  0  0  0  0
   19.1824   -7.8759   14.4828 C   0  0  0  0  0  0  0  0  0  0  0  0
   20.4234   -7.5410   15.0623 C   0  0  0  0  0  0  0  0  0  0  0  0
   20.7071   -7.6709   16.4636 C   0  0  0  0  0  0  0  0  0  0  0  0
   19.7998   -8.1644   17.4474 C   0  0  0  0  0  0  0  0  0  0  0  0
   20.1904   -8.4604   18.8896 C   0  0  1  0  0  0  0  0  0  0  0  0
   21.5542   -8.8451   18.9059 O   0  0  0  0  0  0  0  0  0  0  0  0
   20.0438   -7.3240   19.7689 N   0  0  0  0  0  0  0  0  0  0  0  0
   18.6395   -6.8744   19.8854 C   0  0  0  0  0  0  0  0  0  0  0  0
   18.5634   -6.3726   21.3409 C   0  0  1  0  0  0  0  0  0  0  0  0
   19.1851   -7.6105   21.9975 C   0  0  0  0  0  0  0  0  0  0  0  0
   20.4731   -7.4620   21.1973 C   0  0  2  0  0  0  0  0  0  0  0  0
   20.8658   -6.0301   21.6981 C   0  0  0  0  0  0  0  0  0  0  0  0
   19.5497   -5.2931   21.6391 N   0  0  0  0  0  0  0  0  0  0  0  0
   19.5971   -4.2213   20.7279 C   0  0  0  0  0  0  0  0  0  0  0  0
   18.5110   -3.8685   19.9215 C   0  0  0  0  0  0  0  0  0  0  0  0
   18.7580   -3.3310   18.6537 C   0  0  0  0  0  0  0  0  0  0  0  0
   20.0671   -3.0386   18.3167 C   0  0  0  0  0  0  0  0  0  0  0  0
   20.6618   -2.7079   16.5687 Br  0  0  0  0  0  0  0  0  0  0  0  0
   21.0212   -3.1137   19.3044 C   0  0  0  0  0  0  0  0  0  0  0  0
   20.7978   -3.6584   20.5119 N   0  0  0  0  0  0  0  0  0  0  0  0
   18.5466   -8.3631   16.8456 C   0  0  0  0  0  0  0  0  0  0  0  0
   17.4079   -8.7953   17.4738 C   0  0  0  0  0  0  0  0  0  0  0  0
   16.4458   -8.8000   16.5108 N   0  0  0  0  0  0  0  0  0  0  0  0
   15.0464   -9.1022   16.6942 C   0  0  0  0  0  0  0  0  0  0  0  0
   16.9078   -8.5696   15.2736 N   0  0  0  0  0  0  0  0  0  0  0  0
   18.2054   -8.2373   15.4397 C   0  0  0  0  0  0  0  0  0  0  0  0
  1  2  1  0
  2  3  1  0
  3  4  2  0
  4  5  1  0
  5  6  2  0
  6  7  1  0
  7  8  1  6
  7  9  1  0
  9 10  1  0
 11 10  1  6
 11 12  1  0
 12 13  1  0
 13 14  1  1
 14 15  1  0
 15 16  1  0
 16 17  2  0
 17 18  1  0
 18 19  2  0
 19 20  1  0
 19 21  1  0
 21 22  2  0
  6 23  1  0
 23 24  2  0
 24 25  1  0
 25 26  1  0
 25 27  1  0
 27 28  2  0
 28  3  1  0
 13  9  1  0
 22 16  1  0
 28 23  1  0
 15 11  1  0
M  END
>  <energy_score>  (1055) 
-20.394312

>  <inchikey>  (1055) 
None

>  <smiles>  (1055) 
None

>  <ref_pdb>  (1055) 
A1105b

>  <alias>  (1055) 
None

>  <HIPPO Pose ID>  (1055) 
498699

>  <name>  (1055) 
P498699

>  <HIPPO Compound ID>  (1055) 
293466

>  <ref_mols>  (1055) 
A0497a,A1105b

>  <distance_score>  (1055) 
1.715933

>  <inspiration_score>  (1055) 
None

$$$$
P498700
     RDKit          3D

 28 32  0  0  0  0  0  0  0  0999 V2000
   19.2613  -11.5316   13.6919 C   0  0  0  0  0  0  0  0  0  0  0  0
   18.5480  -10.6521   14.5471 O   0  0  0  0  0  0  0  0  0  0  0  0
   19.1032   -9.4246   14.7690 C   0  0  0  0  0  0  0  0  0  0  0  0
   20.3374   -8.9545   14.2671 C   0  0  0  0  0  0  0  0  0  0  0  0
   20.8609   -7.6553   14.5325 C   0  0  0  0  0  0  0  0  0  0  0  0
   20.2141   -6.6699   15.3144 C   0  0  0  0  0  0  0  0  0  0  0  0
   20.7656   -5.2663   15.3852 C   0  0  2  0  0  0  0  0  0  0  0  0
   20.7984   -4.8223   14.0282 O   0  0  0  0  0  0  0  0  0  0  0  0
   22.1166   -5.0826   15.9543 N   0  0  0  0  0  0  0  0  0  0  0  0
   22.2528   -3.6144   16.3282 C   0  0  0  0  0  0  0  0  0  0  0  0
   22.2647   -3.6306   17.8729 C   0  0  2  0  0  0  0  0  0  0  0  0
   23.2152   -4.8128   18.0507 C   0  0  0  0  0  0  0  0  0  0  0  0
   22.2840   -5.7638   17.2933 C   0  0  1  0  0  0  0  0  0  0  0  0
   21.0701   -5.6113   18.2350 C   0  0  0  0  0  0  0  0  0  0  0  0
   20.9199   -4.1336   18.2574 N   0  0  0  0  0  0  0  0  0  0  0  0
   20.2788   -3.7638   19.4197 C   0  0  0  0  0  0  0  0  0  0  0  0
   18.8910   -3.6053   19.3472 C   0  0  0  0  0  0  0  0  0  0  0  0
   18.1326   -3.7634   20.4980 C   0  0  0  0  0  0  0  0  0  0  0  0
   18.7922   -4.0941   21.6701 C   0  0  0  0  0  0  0  0  0  0  0  0
   17.8993   -4.6218   23.2319 Br  0  0  0  0  0  0  0  0  0  0  0  0
   20.1741   -4.0976   21.6788 C   0  0  0  0  0  0  0  0  0  0  0  0
   20.9322   -3.9112   20.5835 N   0  0  0  0  0  0  0  0  0  0  0  0
   18.9965   -7.1748   15.8252 C   0  0  0  0  0  0  0  0  0  0  0  0
   18.0874   -6.5176   16.6158 C   0  0  0  0  0  0  0  0  0  0  0  0
   17.0689   -7.3967   16.8226 N   0  0  0  0  0  0  0  0  0  0  0  0
   15.8622   -7.1522   17.5770 C   0  0  0  0  0  0  0  0  0  0  0  0
   17.2480   -8.5910   16.2333 N   0  0  0  0  0  0  0  0  0  0  0  0
   18.4283   -8.4850   15.5855 C   0  0  0  0  0  0  0  0  0  0  0  0
  1  2  1  0
  2  3  1  0
  3  4  2  0
  4  5  1  0
  5  6  2  0
  6  7  1  0
  7  8  1  6
  7  9  1  0
  9 10  1  0
 11 10  1  6
 11 12  1  0
 12 13  1  0
 13 14  1  1
 14 15  1  0
 15 16  1  0
 16 17  2  0
 17 18  1  0
 18 19  2  0
 19 20  1  0
 19 21  1  0
 21 22  2  0
  6 23  1  0
 23 24  2  0
 24 25  1  0
 25 26  1  0
 25 27  1  0
 27 28  2  0
 28  3  1  0
 13  9  1  0
 22 16  1  0
 28 23  1  0
 15 11  1  0
M  END
>  <energy_score>  (1056) 
-25.676706

>  <inchikey>  (1056) 
None

>  <smiles>  (1056) 
None

>  <ref_pdb>  (1056) 
A1105b

>  <alias>  (1056) 
None

>  <HIPPO Pose ID>  (1056) 
498700

>  <name>  (1056) 
P498700

>  <HIPPO Compound ID>  (1056) 
293466

>  <ref_mols>  (1056) 
A0497a,A1105b

>  <distance_score>  (1056) 
1.596644

>  <inspiration_score>  (1056) 
None

$$$$
P498701
     RDKit          3D

 28 32  0  0  0  0  0  0  0  0999 V2000
   16.7043   -9.7134   13.6507 C   0  0  0  0  0  0  0  0  0  0  0  0
   17.8339   -8.9850   13.1826 O   0  0  0  0  0  0  0  0  0  0  0  0
   18.5777   -8.3832   14.1813 C   0  0  0  0  0  0  0  0  0  0  0  0
   19.8946   -8.0153   13.8490 C   0  0  0  0  0  0  0  0  0  0  0  0
   20.7884   -7.3923   14.7654 C   0  0  0  0  0  0  0  0  0  0  0  0
   20.4759   -7.0500   16.1127 C   0  0  0  0  0  0  0  0  0  0  0  0
   21.5060   -6.3717   16.9940 C   0  0  1  0  0  0  0  0  0  0  0  0
   22.5671   -7.2918   17.1809 O   0  0  0  0  0  0  0  0  0  0  0  0
   22.0499   -5.1782   16.3530 N   0  0  0  0  0  0  0  0  0  0  0  0
   20.9740   -4.1473   16.2424 C   0  0  0  0  0  0  0  0  0  0  0  0
   21.5322   -2.9354   16.9955 C   0  0  2  0  0  0  0  0  0  0  0  0
   22.9963   -3.0409   16.5541 C   0  0  0  0  0  0  0  0  0  0  0  0
   23.1308   -4.4606   17.1067 C   0  0  1  0  0  0  0  0  0  0  0  0
   22.7919   -4.1630   18.5870 C   0  0  0  0  0  0  0  0  0  0  0  0
   21.6415   -3.2316   18.4439 N   0  0  0  0  0  0  0  0  0  0  0  0
   20.6149   -3.4803   19.3158 C   0  0  0  0  0  0  0  0  0  0  0  0
   19.2591   -3.3005   19.0490 C   0  0  0  0  0  0  0  0  0  0  0  0
   18.3097   -3.6669   20.0173 C   0  0  0  0  0  0  0  0  0  0  0  0
   18.7573   -4.1695   21.2321 C   0  0  0  0  0  0  0  0  0  0  0  0
   17.6772   -4.6431   22.6805 Br  0  0  0  0  0  0  0  0  0  0  0  0
   20.1079   -4.2846   21.4354 C   0  0  0  0  0  0  0  0  0  0  0  0
   21.0165   -3.9461   20.5179 N   0  0  0  0  0  0  0  0  0  0  0  0
   19.1405   -7.3889   16.3968 C   0  0  0  0  0  0  0  0  0  0  0  0
   18.4646   -7.1513   17.5656 C   0  0  0  0  0  0  0  0  0  0  0  0
   17.2053   -7.6320   17.3520 N   0  0  0  0  0  0  0  0  0  0  0  0
   16.1018   -7.5872   18.2808 C   0  0  0  0  0  0  0  0  0  0  0  0
   17.0221   -8.2049   16.1501 N   0  0  0  0  0  0  0  0  0  0  0  0
   18.1917   -8.0362   15.5008 C   0  0  0  0  0  0  0  0  0  0  0  0
  1  2  1  0
  2  3  1  0
  3  4  2  0
  4  5  1  0
  5  6  2  0
  6  7  1  0
  7  8  1  6
  7  9  1  0
  9 10  1  0
 11 10  1  6
 11 12  1  0
 12 13  1  0
 13 14  1  1
 14 15  1  0
 15 16  1  0
 16 17  2  0
 17 18  1  0
 18 19  2  0
 19 20  1  0
 19 21  1  0
 21 22  2  0
  6 23  1  0
 23 24  2  0
 24 25  1  0
 25 26  1  0
 25 27  1  0
 27 28  2  0
 28  3  1  0
 13  9  1  0
 22 16  1  0
 28 23  1  0
 15 11  1  0
M  END
>  <energy_score>  (1057) 
-57.8837

>  <inchikey>  (1057) 
None

>  <smiles>  (1057) 
None

>  <ref_pdb>  (1057) 
A1105b

>  <alias>  (1057) 
None

>  <HIPPO Pose ID>  (1057) 
498701

>  <name>  (1057) 
P498701

>  <HIPPO Compound ID>  (1057) 
293466

>  <ref_mols>  (1057) 
A0497a,A1105b

>  <distance_score>  (1057) 
1.341944

>  <inspiration_score>  (1057) 
None

$$$$
P498702
     RDKit          3D

 28 31  0  0  0  0  0  0  0  0999 V2000
   18.6761   -2.8240   17.7334 C   0  0  0  0  0  0  0  0  0  0  0  0
   18.6602   -4.1858   18.0865 O   0  0  0  0  0  0  0  0  0  0  0  0
   17.6631   -4.5368   19.0144 C   0  0  2  0  0  0  0  0  0  0  0  0
   18.2044   -5.5899   19.8585 N   0  0  0  0  0  0  0  0  0  0  0  0
   19.3166   -5.2967   20.7814 C   0  0  2  0  0  0  0  0  0  0  0  0
   20.1763   -4.0457   20.6158 C   0  0  0  0  0  0  0  0  0  0  0  0
   21.2425   -4.4095   19.5709 C   0  0  0  0  0  0  0  0  0  0  0  0
   21.2577   -5.8897   19.4806 N   0  0  0  0  0  0  0  0  0  0  0  0
   20.8724   -6.3808   18.2044 C   0  0  0  0  0  0  0  0  0  0  0  0
   19.8654   -7.2974   18.1617 N   0  0  0  0  0  0  0  0  0  0  0  0
   19.3743   -7.6859   16.9599 C   0  0  0  0  0  0  0  0  0  0  0  0
   19.8180   -7.1996   15.7536 C   0  0  0  0  0  0  0  0  0  0  0  0
   20.8953   -6.3304   15.7739 C   0  0  0  0  0  0  0  0  0  0  0  0
   21.4566   -5.9456   16.9944 C   0  0  0  0  0  0  0  0  0  0  0  0
   22.8938   -4.9762   16.9206 Cl  0  0  0  0  0  0  0  0  0  0  0  0
   20.4339   -6.3778   20.6150 C   0  0  0  0  0  0  0  0  0  0  0  0
   16.4011   -5.0087   18.2563 C   0  0  0  0  0  0  0  0  0  0  0  0
   15.4722   -4.0158   17.8630 C   0  0  0  0  0  0  0  0  0  0  0  0
   14.2545   -4.3281   17.2713 C   0  0  0  0  0  0  0  0  0  0  0  0
   13.9046   -5.6514   17.0186 C   0  0  0  0  0  0  0  0  0  0  0  0
   14.7940   -6.6705   17.3884 C   0  0  0  0  0  0  0  0  0  0  0  0
   16.0041   -6.3651   18.0267 C   0  0  0  0  0  0  0  0  0  0  0  0
   16.4856   -7.6315   18.4211 C   0  0  0  0  0  0  0  0  0  0  0  0
   15.7691   -8.6517   17.9690 N   0  0  0  0  0  0  0  0  0  0  0  0
   14.7236   -8.0691   17.3141 N   0  0  0  0  0  0  0  0  0  0  0  0
   13.8073   -8.9348   16.6511 C   0  0  0  0  0  0  0  0  0  0  0  0
   13.8548  -10.1370   16.9092 O   0  0  0  0  0  0  0  0  0  0  0  0
   12.7394   -8.2766   15.4511 Cl  0  0  0  0  0  0  0  0  0  0  0  0
  1  2  1  0
  2  3  1  0
  3  4  1  1
  5  4  1  6
  5  6  1  0
  6  7  1  0
  7  8  1  0
  8  9  1  0
  9 10  2  0
 10 11  1  0
 11 12  2  0
 12 13  1  0
 13 14  2  0
 14 15  1  0
  8 16  1  0
  3 17  1  0
 17 18  2  0
 18 19  1  0
 19 20  2  0
 20 21  1  0
 21 22  2  0
 22 23  1  0
 23 24  2  0
 24 25  1  0
 25 26  1  0
 26 27  2  0
 26 28  1  0
 16  5  1  0
 22 17  1  0
 14  9  1  0
 25 21  1  0
M  END
>  <energy_score>  (1058) 
-15.932619

>  <inchikey>  (1058) 
None

>  <smiles>  (1058) 
None

>  <ref_pdb>  (1058) 
A1105b

>  <alias>  (1058) 
None

>  <HIPPO Pose ID>  (1058) 
498702

>  <name>  (1058) 
P498702

>  <HIPPO Compound ID>  (1058) 
293467

>  <ref_mols>  (1058) 
A0497a,A1105b

>  <distance_score>  (1058) 
1.180055

>  <inspiration_score>  (1058) 
None

$$$$
P498703
     RDKit          3D

 28 31  0  0  0  0  0  0  0  0999 V2000
   17.8331   -2.4036   19.6385 C   0  0  0  0  0  0  0  0  0  0  0  0
   18.2547   -3.2253   18.5640 O   0  0  0  0  0  0  0  0  0  0  0  0
   17.9364   -4.6149   18.6592 C   0  0  1  0  0  0  0  0  0  0  0  0
   18.2069   -5.1550   19.9976 N   0  0  0  0  0  0  0  0  0  0  0  0
   19.6187   -5.2638   20.4325 C   0  0  2  0  0  0  0  0  0  0  0  0
   20.6422   -4.1798   20.0987 C   0  0  0  0  0  0  0  0  0  0  0  0
   21.2200   -4.5934   18.7472 C   0  0  0  0  0  0  0  0  0  0  0  0
   21.1067   -6.0689   18.7074 N   0  0  0  0  0  0  0  0  0  0  0  0
   20.6642   -6.5955   17.4820 C   0  0  0  0  0  0  0  0  0  0  0  0
   19.6421   -7.4917   17.5276 N   0  0  0  0  0  0  0  0  0  0  0  0
   19.0855   -7.9213   16.3747 C   0  0  0  0  0  0  0  0  0  0  0  0
   19.4958   -7.5092   15.1313 C   0  0  0  0  0  0  0  0  0  0  0  0
   20.5888   -6.6617   15.0637 C   0  0  0  0  0  0  0  0  0  0  0  0
   21.2034   -6.2224   16.2352 C   0  0  0  0  0  0  0  0  0  0  0  0
   22.6463   -5.2842   16.0474 Cl  0  0  0  0  0  0  0  0  0  0  0  0
   20.3803   -6.5134   19.9108 C   0  0  0  0  0  0  0  0  0  0  0  0
   16.5211   -4.9634   18.1467 C   0  0  0  0  0  0  0  0  0  0  0  0
   15.6045   -3.9524   17.7778 C   0  0  0  0  0  0  0  0  0  0  0  0
   14.3306   -4.2218   17.2836 C   0  0  0  0  0  0  0  0  0  0  0  0
   13.9074   -5.5287   17.0976 C   0  0  0  0  0  0  0  0  0  0  0  0
   14.7784   -6.5592   17.4640 C   0  0  0  0  0  0  0  0  0  0  0  0
   16.0461   -6.3008   17.9892 C   0  0  0  0  0  0  0  0  0  0  0  0
   16.5371   -7.5858   18.3018 C   0  0  0  0  0  0  0  0  0  0  0  0
   15.7209   -8.5784   17.9587 N   0  0  0  0  0  0  0  0  0  0  0  0
   14.6283   -7.9439   17.4401 N   0  0  0  0  0  0  0  0  0  0  0  0
   13.5549   -8.7099   16.9175 C   0  0  0  0  0  0  0  0  0  0  0  0
   12.6796   -8.1259   16.2821 O   0  0  0  0  0  0  0  0  0  0  0  0
   13.5885  -10.4364   17.1767 Cl  0  0  0  0  0  0  0  0  0  0  0  0
  1  2  1  0
  2  3  1  0
  3  4  1  1
  5  4  1  6
  5  6  1  0
  6  7  1  0
  7  8  1  0
  8  9  1  0
  9 10  2  0
 10 11  1  0
 11 12  2  0
 12 13  1  0
 13 14  2  0
 14 15  1  0
  8 16  1  0
  3 17  1  0
 17 18  2  0
 18 19  1  0
 19 20  2  0
 20 21  1  0
 21 22  2  0
 22 23  1  0
 23 24  2  0
 24 25  1  0
 25 26  1  0
 26 27  2  0
 26 28  1  0
 16  5  1  0
 22 17  1  0
 14  9  1  0
 25 21  1  0
M  END
>  <energy_score>  (1059) 
-48.299268

>  <inchikey>  (1059) 
None

>  <smiles>  (1059) 
None

>  <ref_pdb>  (1059) 
A1105b

>  <alias>  (1059) 
None

>  <HIPPO Pose ID>  (1059) 
498703

>  <name>  (1059) 
P498703

>  <HIPPO Compound ID>  (1059) 
293467

>  <ref_mols>  (1059) 
A0497a,A1105b

>  <distance_score>  (1059) 
1.554534

>  <inspiration_score>  (1059) 
None

$$$$
P498704
     RDKit          3D

 28 31  0  0  0  0  0  0  0  0999 V2000
   18.7704   -2.8290   17.7411 C   0  0  0  0  0  0  0  0  0  0  0  0
   18.7495   -4.1918   18.0934 O   0  0  0  0  0  0  0  0  0  0  0  0
   17.7644   -4.5339   19.0364 C   0  0  2  0  0  0  0  0  0  0  0  0
   18.2849   -5.5496   19.9287 N   0  0  0  0  0  0  0  0  0  0  0  0
   19.4968   -5.3629   20.7208 C   0  0  2  0  0  0  0  0  0  0  0  0
   20.3975   -4.1492   20.5265 C   0  0  0  0  0  0  0  0  0  0  0  0
   21.3759   -4.5347   19.4098 C   0  0  0  0  0  0  0  0  0  0  0  0
   21.3383   -6.0110   19.2958 N   0  0  0  0  0  0  0  0  0  0  0  0
   20.9105   -6.4902   18.0287 C   0  0  0  0  0  0  0  0  0  0  0  0
   20.0105   -7.5095   18.0084 N   0  0  0  0  0  0  0  0  0  0  0  0
   19.4531   -7.8812   16.8332 C   0  0  0  0  0  0  0  0  0  0  0  0
   19.7557   -7.3076   15.6222 C   0  0  0  0  0  0  0  0  0  0  0  0
   20.7684   -6.3653   15.6038 C   0  0  0  0  0  0  0  0  0  0  0  0
   21.3865   -5.9850   16.7980 C   0  0  0  0  0  0  0  0  0  0  0  0
   22.7814   -4.9612   16.6476 Cl  0  0  0  0  0  0  0  0  0  0  0  0
   20.5211   -6.4991   20.4306 C   0  0  0  0  0  0  0  0  0  0  0  0
   16.5010   -5.0017   18.2839 C   0  0  0  0  0  0  0  0  0  0  0  0
   15.5487   -4.0207   17.9151 C   0  0  0  0  0  0  0  0  0  0  0  0
   14.3262   -4.3491   17.3394 C   0  0  0  0  0  0  0  0  0  0  0  0
   13.9929   -5.6770   17.0849 C   0  0  0  0  0  0  0  0  0  0  0  0
   14.9116   -6.6815   17.4270 C   0  0  0  0  0  0  0  0  0  0  0  0
   16.1344   -6.3569   18.0296 C   0  0  0  0  0  0  0  0  0  0  0  0
   16.6845   -7.6099   18.3611 C   0  0  0  0  0  0  0  0  0  0  0  0
   15.9534   -8.6431   17.9636 N   0  0  0  0  0  0  0  0  0  0  0  0
   14.8720   -8.0808   17.3464 N   0  0  0  0  0  0  0  0  0  0  0  0
   13.9463   -8.9633   16.7189 C   0  0  0  0  0  0  0  0  0  0  0  0
   14.0422  -10.1673   16.9547 O   0  0  0  0  0  0  0  0  0  0  0  0
   12.7885   -8.3189   15.5965 Cl  0  0  0  0  0  0  0  0  0  0  0  0
  1  2  1  0
  2  3  1  0
  3  4  1  1
  5  4  1  6
  5  6  1  0
  6  7  1  0
  7  8  1  0
  8  9  1  0
  9 10  2  0
 10 11  1  0
 11 12  2  0
 12 13  1  0
 13 14  2  0
 14 15  1  0
  8 16  1  0
  3 17  1  0
 17 18  2  0
 18 19  1  0
 19 20  2  0
 20 21  1  0
 21 22  2  0
 22 23  1  0
 23 24  2  0
 24 25  1  0
 25 26  1  0
 26 27  2  0
 26 28  1  0
 16  5  1  0
 22 17  1  0
 14  9  1  0
 25 21  1  0
M  END
>  <energy_score>  (1060) 
-22.739695

>  <inchikey>  (1060) 
None

>  <smiles>  (1060) 
None

>  <ref_pdb>  (1060) 
A1105b

>  <alias>  (1060) 
None

>  <HIPPO Pose ID>  (1060) 
498704

>  <name>  (1060) 
P498704

>  <HIPPO Compound ID>  (1060) 
293467

>  <ref_mols>  (1060) 
A0497a,A1105b

>  <distance_score>  (1060) 
1.460772

>  <inspiration_score>  (1060) 
None

$$$$
P498705
     RDKit          3D

 28 31  0  0  0  0  0  0  0  0999 V2000
   18.6288   -2.4878   18.1979 C   0  0  0  0  0  0  0  0  0  0  0  0
   17.9794   -3.3163   19.1329 O   0  0  0  0  0  0  0  0  0  0  0  0
   17.9391   -4.6861   18.7691 C   0  0  1  0  0  0  0  0  0  0  0  0
   18.2397   -5.3774   20.0208 N   0  0  0  0  0  0  0  0  0  0  0  0
   19.6628   -5.5740   20.3822 C   0  0  2  0  0  0  0  0  0  0  0  0
   20.7202   -4.5450   19.9861 C   0  0  0  0  0  0  0  0  0  0  0  0
   21.2081   -4.9875   18.5940 C   0  0  0  0  0  0  0  0  0  0  0  0
   20.9084   -6.4190   18.5055 N   0  0  0  0  0  0  0  0  0  0  0  0
   20.3658   -7.0056   17.3652 C   0  0  0  0  0  0  0  0  0  0  0  0
   19.6745   -8.1535   17.5961 N   0  0  0  0  0  0  0  0  0  0  0  0
   18.9764   -8.7511   16.6109 C   0  0  0  0  0  0  0  0  0  0  0  0
   18.9518   -8.2901   15.3228 C   0  0  0  0  0  0  0  0  0  0  0  0
   19.7372   -7.1912   15.0327 C   0  0  0  0  0  0  0  0  0  0  0  0
   20.4617   -6.5433   16.0382 C   0  0  0  0  0  0  0  0  0  0  0  0
   21.4169   -5.2241   15.4649 Cl  0  0  0  0  0  0  0  0  0  0  0  0
   20.3138   -6.8485   19.7907 C   0  0  0  0  0  0  0  0  0  0  0  0
   16.5517   -5.0570   18.2170 C   0  0  0  0  0  0  0  0  0  0  0  0
   15.6089   -4.0603   17.8702 C   0  0  0  0  0  0  0  0  0  0  0  0
   14.3554   -4.3648   17.3456 C   0  0  0  0  0  0  0  0  0  0  0  0
   13.9817   -5.6855   17.1130 C   0  0  0  0  0  0  0  0  0  0  0  0
   14.8778   -6.7053   17.4645 C   0  0  0  0  0  0  0  0  0  0  0  0
   16.1189   -6.4006   18.0347 C   0  0  0  0  0  0  0  0  0  0  0  0
   16.6306   -7.6532   18.4123 C   0  0  0  0  0  0  0  0  0  0  0  0
   15.8724   -8.6788   18.0438 N   0  0  0  0  0  0  0  0  0  0  0  0
   14.8030   -8.1032   17.4174 N   0  0  0  0  0  0  0  0  0  0  0  0
   13.8639   -8.9731   16.7948 C   0  0  0  0  0  0  0  0  0  0  0  0
   13.9181  -10.1731   17.0622 O   0  0  0  0  0  0  0  0  0  0  0  0
   12.7641   -8.3218   15.6191 Cl  0  0  0  0  0  0  0  0  0  0  0  0
  1  2  1  0
  2  3  1  0
  3  4  1  1
  5  4  1  6
  5  6  1  0
  6  7  1  0
  7  8  1  0
  8  9  1  0
  9 10  2  0
 10 11  1  0
 11 12  2  0
 12 13  1  0
 13 14  2  0
 14 15  1  0
  8 16  1  0
  3 17  1  0
 17 18  2  0
 18 19  1  0
 19 20  2  0
 20 21  1  0
 21 22  2  0
 22 23  1  0
 23 24  2  0
 24 25  1  0
 25 26  1  0
 26 27  2  0
 26 28  1  0
 16  5  1  0
 22 17  1  0
 14  9  1  0
 25 21  1  0
M  END
>  <energy_score>  (1061) 
-27.177241

>  <inchikey>  (1061) 
None

>  <smiles>  (1061) 
None

>  <ref_pdb>  (1061) 
A1105b

>  <alias>  (1061) 
None

>  <HIPPO Pose ID>  (1061) 
498705

>  <name>  (1061) 
P498705

>  <HIPPO Compound ID>  (1061) 
293467

>  <ref_mols>  (1061) 
A0497a,A1105b

>  <distance_score>  (1061) 
1.665121

>  <inspiration_score>  (1061) 
None

$$$$
P498706
     RDKit          3D

 28 32  0  0  0  0  0  0  0  0999 V2000
   17.7451   -2.9357   17.8220 O   0  0  0  0  0  0  0  0  0  0  0  0
   17.6924   -4.2534   18.3357 C   0  0  2  0  0  0  0  0  0  0  0  0
   16.2853   -4.7892   18.0683 C   0  0  0  0  0  0  0  0  0  0  0  0
   15.2164   -3.8759   17.8851 C   0  0  0  0  0  0  0  0  0  0  0  0
   13.9807   -4.2571   17.3805 C   0  0  0  0  0  0  0  0  0  0  0  0
   13.7219   -5.5805   17.0669 C   0  0  0  0  0  0  0  0  0  0  0  0
   14.7078   -6.5195   17.3521 C   0  0  0  0  0  0  0  0  0  0  0  0
   15.9615   -6.1606   17.8461 C   0  0  0  0  0  0  0  0  0  0  0  0
   16.6017   -7.4093   17.9970 C   0  0  0  0  0  0  0  0  0  0  0  0
   15.8814   -8.4584   17.5982 N   0  0  0  0  0  0  0  0  0  0  0  0
   14.7161   -7.8884   17.2146 N   0  0  0  0  0  0  0  0  0  0  0  0
   13.6452   -8.7126   16.6724 C   0  0  0  0  0  0  0  0  0  0  0  0
   13.2524   -8.2762   15.4404 F   0  0  0  0  0  0  0  0  0  0  0  0
   12.5379   -8.6974   17.4602 F   0  0  0  0  0  0  0  0  0  0  0  0
   18.1571   -4.1432   19.7286 N   0  0  0  0  0  0  0  0  0  0  0  0
   18.6930   -5.4414   20.2217 C   0  0  0  0  0  0  0  0  0  0  0  0
   20.2209   -5.2284   20.3502 C   0  0  2  0  0  0  0  0  0  0  0  0
   20.1659   -3.8393   20.9833 C   0  0  0  0  0  0  0  0  0  0  0  0
   19.4137   -3.2674   19.7942 C   0  0  1  0  0  0  0  0  0  0  0  0
   20.4818   -3.5674   18.6891 C   0  0  0  0  0  0  0  0  0  0  0  0
   20.8856   -4.9584   19.0259 N   0  0  0  0  0  0  0  0  0  0  0  0
   20.7165   -5.9258   18.0283 C   0  0  0  0  0  0  0  0  0  0  0  0
   20.8743   -5.6056   16.6740 C   0  0  0  0  0  0  0  0  0  0  0  0
   20.3418   -6.4370   15.6914 C   0  0  0  0  0  0  0  0  0  0  0  0
   19.7392   -7.6176   16.0719 C   0  0  0  0  0  0  0  0  0  0  0  0
   18.8043   -8.6722   14.8263 Br  0  0  0  0  0  0  0  0  0  0  0  0
   19.8120   -7.9721   17.4025 C   0  0  0  0  0  0  0  0  0  0  0  0
   20.2883   -7.1584   18.3806 N   0  0  0  0  0  0  0  0  0  0  0  0
  2  1  1  1
  2  3  1  0
  3  4  2  0
  4  5  1  0
  5  6  2  0
  6  7  1  0
  7  8  2  0
  8  9  1  0
  9 10  2  0
 10 11  1  0
 11 12  1  0
 12 13  1  0
 12 14  1  0
  2 15  1  0
 15 16  1  0
 17 16  1  6
 17 18  1  0
 18 19  1  0
 19 20  1  6
 20 21  1  0
 21 22  1  0
 22 23  2  0
 23 24  1  0
 24 25  2  0
 25 26  1  0
 25 27  1  0
 27 28  2  0
  8  3  1  0
 19 15  1  0
 28 22  1  0
 11  7  1  0
 21 17  1  0
M  END
>  <energy_score>  (1062) 
-25.699451

>  <inchikey>  (1062) 
None

>  <smiles>  (1062) 
None

>  <ref_pdb>  (1062) 
A1105b

>  <alias>  (1062) 
None

>  <HIPPO Pose ID>  (1062) 
498706

>  <name>  (1062) 
P498706

>  <HIPPO Compound ID>  (1062) 
293468

>  <ref_mols>  (1062) 
A0497a,A1105b

>  <distance_score>  (1062) 
1.645665

>  <inspiration_score>  (1062) 
None

$$$$
P498707
     RDKit          3D

 28 32  0  0  0  0  0  0  0  0999 V2000
   17.7065   -2.9759   17.8181 O   0  0  0  0  0  0  0  0  0  0  0  0
   17.6285   -4.2917   18.3366 C   0  0  2  0  0  0  0  0  0  0  0  0
   16.2071   -4.7995   18.0795 C   0  0  0  0  0  0  0  0  0  0  0  0
   15.1735   -3.8554   17.8641 C   0  0  0  0  0  0  0  0  0  0  0  0
   13.9425   -4.2017   17.3292 C   0  0  0  0  0  0  0  0  0  0  0  0
   13.6530   -5.5168   17.0115 C   0  0  0  0  0  0  0  0  0  0  0  0
   14.5945   -6.4872   17.3338 C   0  0  0  0  0  0  0  0  0  0  0  0
   15.8383   -6.1655   17.8776 C   0  0  0  0  0  0  0  0  0  0  0  0
   16.4031   -7.4387   18.1089 C   0  0  0  0  0  0  0  0  0  0  0  0
   15.6777   -8.4647   17.6619 N   0  0  0  0  0  0  0  0  0  0  0  0
   14.5654   -7.8558   17.1938 N   0  0  0  0  0  0  0  0  0  0  0  0
   13.5147   -8.6492   16.5719 C   0  0  0  0  0  0  0  0  0  0  0  0
   12.4069   -8.7353   17.3532 F   0  0  0  0  0  0  0  0  0  0  0  0
   13.1137   -8.1160   15.3814 F   0  0  0  0  0  0  0  0  0  0  0  0
   18.1213   -4.1786   19.7196 N   0  0  0  0  0  0  0  0  0  0  0  0
   18.5856   -5.4927   20.2349 C   0  0  0  0  0  0  0  0  0  0  0  0
   20.1241   -5.3887   20.2932 C   0  0  2  0  0  0  0  0  0  0  0  0
   20.1893   -3.9891   20.9060 C   0  0  0  0  0  0  0  0  0  0  0  0
   19.4355   -3.3829   19.7342 C   0  0  1  0  0  0  0  0  0  0  0  0
   20.4472   -3.7667   18.6028 C   0  0  0  0  0  0  0  0  0  0  0  0
   20.7554   -5.1834   18.9449 N   0  0  0  0  0  0  0  0  0  0  0  0
   20.4880   -6.1185   17.9357 C   0  0  0  0  0  0  0  0  0  0  0  0
   20.7876   -5.8191   16.5998 C   0  0  0  0  0  0  0  0  0  0  0  0
   20.2463   -6.5849   15.5709 C   0  0  0  0  0  0  0  0  0  0  0  0
   19.4840   -7.6885   15.8924 C   0  0  0  0  0  0  0  0  0  0  0  0
   18.5717   -8.6654   14.5719 Br  0  0  0  0  0  0  0  0  0  0  0  0
   19.3860   -8.0360   17.2210 C   0  0  0  0  0  0  0  0  0  0  0  0
   19.8509   -7.2732   18.2416 N   0  0  0  0  0  0  0  0  0  0  0  0
  2  1  1  1
  2  3  1  0
  3  4  2  0
  4  5  1  0
  5  6  2  0
  6  7  1  0
  7  8  2  0
  8  9  1  0
  9 10  2  0
 10 11  1  0
 11 12  1  0
 12 13  1  0
 12 14  1  0
  2 15  1  0
 15 16  1  0
 17 16  1  6
 17 18  1  0
 18 19  1  0
 19 20  1  6
 20 21  1  0
 21 22  1  0
 22 23  2  0
 23 24  1  0
 24 25  2  0
 25 26  1  0
 25 27  1  0
 27 28  2  0
  8  3  1  0
 19 15  1  0
 28 22  1  0
 11  7  1  0
 21 17  1  0
M  END
>  <energy_score>  (1063) 
-25.198322

>  <inchikey>  (1063) 
None

>  <smiles>  (1063) 
None

>  <ref_pdb>  (1063) 
A1105b

>  <alias>  (1063) 
None

>  <HIPPO Pose ID>  (1063) 
498707

>  <name>  (1063) 
P498707

>  <HIPPO Compound ID>  (1063) 
293468

>  <ref_mols>  (1063) 
A0497a,A1105b

>  <distance_score>  (1063) 
1.75393

>  <inspiration_score>  (1063) 
None

$$$$
P498708
     RDKit          3D

 28 32  0  0  0  0  0  0  0  0999 V2000
   17.2264   -3.9138   20.4817 O   0  0  0  0  0  0  0  0  0  0  0  0
   17.7174   -4.4711   19.2850 C   0  0  1  0  0  0  0  0  0  0  0  0
   16.5206   -4.7468   18.3732 C   0  0  0  0  0  0  0  0  0  0  0  0
   15.6535   -3.7155   17.9652 C   0  0  0  0  0  0  0  0  0  0  0  0
   14.4357   -3.9758   17.3307 C   0  0  0  0  0  0  0  0  0  0  0  0
   14.0133   -5.2743   17.0691 C   0  0  0  0  0  0  0  0  0  0  0  0
   14.8575   -6.3121   17.4616 C   0  0  0  0  0  0  0  0  0  0  0  0
   16.0730   -6.0757   18.1005 C   0  0  0  0  0  0  0  0  0  0  0  0
   16.4906   -7.3684   18.4965 C   0  0  0  0  0  0  0  0  0  0  0  0
   15.7177   -8.3517   18.0355 N   0  0  0  0  0  0  0  0  0  0  0  0
   14.7077   -7.6824   17.4236 N   0  0  0  0  0  0  0  0  0  0  0  0
   13.5333   -8.4045   16.9457 C   0  0  0  0  0  0  0  0  0  0  0  0
   12.9274   -7.7697   15.9007 F   0  0  0  0  0  0  0  0  0  0  0  0
   13.8405   -9.6502   16.4856 F   0  0  0  0  0  0  0  0  0  0  0  0
   18.7084   -3.4982   18.9265 N   0  0  0  0  0  0  0  0  0  0  0  0
   19.1638   -3.6102   17.5398 C   0  0  0  0  0  0  0  0  0  0  0  0
   20.6996   -3.6903   17.6738 C   0  0  1  0  0  0  0  0  0  0  0  0
   20.9077   -2.8125   18.9038 C   0  0  0  0  0  0  0  0  0  0  0  0
   19.9688   -3.6691   19.7329 C   0  0  2  0  0  0  0  0  0  0  0  0
   20.6936   -5.0560   19.5885 C   0  0  0  0  0  0  0  0  0  0  0  0
   21.1032   -5.0548   18.1650 N   0  0  0  0  0  0  0  0  0  0  0  0
   20.5970   -6.0858   17.3508 C   0  0  0  0  0  0  0  0  0  0  0  0
   20.8669   -6.0434   15.9774 C   0  0  0  0  0  0  0  0  0  0  0  0
   20.1687   -6.8728   15.1093 C   0  0  0  0  0  0  0  0  0  0  0  0
   19.2631   -7.7744   15.6315 C   0  0  0  0  0  0  0  0  0  0  0  0
   18.1950   -8.8361   14.5107 Br  0  0  0  0  0  0  0  0  0  0  0  0
   19.1564   -7.8680   17.0004 C   0  0  0  0  0  0  0  0  0  0  0  0
   19.7763   -7.0329   17.8670 N   0  0  0  0  0  0  0  0  0  0  0  0
  2  1  1  1
  2  3  1  0
  3  4  2  0
  4  5  1  0
  5  6  2  0
  6  7  1  0
  7  8  2  0
  8  9  1  0
  9 10  2  0
 10 11  1  0
 11 12  1  0
 12 13  1  0
 12 14  1  0
  2 15  1  0
 15 16  1  0
 17 16  1  1
 17 18  1  0
 18 19  1  0
 19 20  1  6
 20 21  1  0
 21 22  1  0
 22 23  2  0
 23 24  1  0
 24 25  2  0
 25 26  1  0
 25 27  1  0
 27 28  2  0
  8  3  1  0
 19 15  1  0
 28 22  1  0
 11  7  1  0
 21 17  1  0
M  END
>  <energy_score>  (1064) 
-26.480564

>  <inchikey>  (1064) 
None

>  <smiles>  (1064) 
None

>  <ref_pdb>  (1064) 
A1105b

>  <alias>  (1064) 
None

>  <HIPPO Pose ID>  (1064) 
498708

>  <name>  (1064) 
P498708

>  <HIPPO Compound ID>  (1064) 
293468

>  <ref_mols>  (1064) 
A0497a,A1105b

>  <distance_score>  (1064) 
1.932742

>  <inspiration_score>  (1064) 
None

$$$$
P498709
     RDKit          3D

 28 31  0  0  0  0  0  0  0  0999 V2000
   16.0905   -8.5041   18.2446 C   0  0  0  0  0  0  0  0  0  0  0  0
   17.2803   -8.3089   17.4496 N   0  0  0  0  0  0  0  0  0  0  0  0
   18.5735   -8.3035   17.8946 C   0  0  0  0  0  0  0  0  0  0  0  0
   19.3376   -8.0265   16.7919 C   0  0  0  0  0  0  0  0  0  0  0  0
   20.7408   -7.9363   16.7216 C   0  0  0  0  0  0  0  0  0  0  0  0
   21.7665   -8.3288   17.7569 C   0  0  0  0  0  0  0  0  0  0  0  0
   22.7127   -7.2864   18.1776 N   0  0  0  0  0  0  0  0  0  0  0  0
   22.1030   -6.2978   19.0648 C   0  0  2  0  0  0  0  0  0  0  0  0
   23.0829   -5.2522   19.6167 C   0  0  0  0  0  0  0  0  0  0  0  0
   22.4658   -4.7873   20.9615 C   0  0  0  0  0  0  0  0  0  0  0  0
   21.2233   -5.5846   21.1542 N   0  0  0  0  0  0  0  0  0  0  0  0
   20.0719   -4.9326   20.5996 C   0  0  0  0  0  0  0  0  0  0  0  0
   20.2540   -3.7317   19.9949 N   0  0  0  0  0  0  0  0  0  0  0  0
   19.3128   -3.2792   19.1421 C   0  0  0  0  0  0  0  0  0  0  0  0
   18.1827   -3.9979   18.8180 C   0  0  0  0  0  0  0  0  0  0  0  0
   17.1868   -3.4507   17.8630 C   0  0  0  0  0  0  0  0  0  0  0  0
   16.5116   -4.3969   17.1621 F   0  0  0  0  0  0  0  0  0  0  0  0
   17.7686   -2.6099   16.9846 F   0  0  0  0  0  0  0  0  0  0  0  0
   16.2365   -2.7355   18.5219 F   0  0  0  0  0  0  0  0  0  0  0  0
   17.9660   -5.1930   19.4836 C   0  0  0  0  0  0  0  0  0  0  0  0
   18.8473   -5.6086   20.4705 C   0  0  0  0  0  0  0  0  0  0  0  0
   18.3913   -6.9559   21.4578 Cl  0  0  0  0  0  0  0  0  0  0  0  0
   21.4953   -6.8234   20.3804 C   0  0  0  0  0  0  0  0  0  0  0  0
   21.1417   -7.6269   15.3913 C   0  0  0  0  0  0  0  0  0  0  0  0
   20.2564   -7.5299   14.2771 C   0  0  0  0  0  0  0  0  0  0  0  0
   18.8679   -7.7303   14.3783 C   0  0  0  0  0  0  0  0  0  0  0  0
   18.4101   -7.9460   15.6843 C   0  0  0  0  0  0  0  0  0  0  0  0
   17.1571   -8.1615   16.1197 N   0  0  0  0  0  0  0  0  0  0  0  0
  1  2  1  0
  2  3  1  0
  3  4  2  0
  4  5  1  0
  5  6  1  0
  6  7  1  0
  8  7  1  1
  8  9  1  0
  9 10  1  0
 10 11  1  0
 11 12  1  0
 12 13  2  0
 13 14  1  0
 14 15  2  0
 15 16  1  0
 16 17  1  0
 16 18  1  0
 16 19  1  0
 15 20  1  0
 20 21  2  0
 21 22  1  0
 11 23  1  0
  5 24  2  0
 24 25  1  0
 25 26  2  0
 26 27  1  0
 27 28  2  0
 28  2  1  0
 27  4  1  0
 23  8  1  0
 21 12  1  0
M  END
>  <energy_score>  (1065) 
-44.168081

>  <inchikey>  (1065) 
None

>  <smiles>  (1065) 
None

>  <ref_pdb>  (1065) 
A1105b

>  <alias>  (1065) 
None

>  <HIPPO Pose ID>  (1065) 
498709

>  <name>  (1065) 
P498709

>  <HIPPO Compound ID>  (1065) 
293469

>  <ref_mols>  (1065) 
A0497a,A1105b

>  <distance_score>  (1065) 
1.324058

>  <inspiration_score>  (1065) 
None

$$$$
P498710
     RDKit          3D

 28 31  0  0  0  0  0  0  0  0999 V2000
   16.0439   -8.0680   18.2571 C   0  0  0  0  0  0  0  0  0  0  0  0
   17.1991   -7.9700   17.3962 N   0  0  0  0  0  0  0  0  0  0  0  0
   18.4816   -7.6857   17.7757 C   0  0  0  0  0  0  0  0  0  0  0  0
   19.1961   -7.6281   16.6082 C   0  0  0  0  0  0  0  0  0  0  0  0
   20.5653   -7.3478   16.4624 C   0  0  0  0  0  0  0  0  0  0  0  0
   21.6078   -7.1155   17.5186 C   0  0  0  0  0  0  0  0  0  0  0  0
   21.5185   -5.8455   18.2248 N   0  0  0  0  0  0  0  0  0  0  0  0
   22.0407   -4.6649   17.5037 C   0  0  1  0  0  0  0  0  0  0  0  0
   21.0667   -4.1195   16.4472 C   0  0  0  0  0  0  0  0  0  0  0  0
   20.6391   -2.7368   16.9384 C   0  0  0  0  0  0  0  0  0  0  0  0
   20.8907   -2.7305   18.3846 N   0  0  0  0  0  0  0  0  0  0  0  0
   19.9875   -3.2793   19.3060 C   0  0  0  0  0  0  0  0  0  0  0  0
   20.4983   -3.4160   20.5616 N   0  0  0  0  0  0  0  0  0  0  0  0
   19.9603   -4.2979   21.4270 C   0  0  0  0  0  0  0  0  0  0  0  0
   18.8925   -5.0991   21.1163 C   0  0  0  0  0  0  0  0  0  0  0  0
   18.4715   -6.1799   22.0482 C   0  0  0  0  0  0  0  0  0  0  0  0
   17.5379   -5.7712   22.9522 F   0  0  0  0  0  0  0  0  0  0  0  0
   17.8990   -7.2359   21.4021 F   0  0  0  0  0  0  0  0  0  0  0  0
   19.4911   -6.7052   22.7791 F   0  0  0  0  0  0  0  0  0  0  0  0
   18.2577   -4.8276   19.9119 C   0  0  0  0  0  0  0  0  0  0  0  0
   18.7384   -3.8489   19.0395 C   0  0  0  0  0  0  0  0  0  0  0  0
   17.6866   -3.5310   17.7295 Cl  0  0  0  0  0  0  0  0  0  0  0  0
   22.1956   -3.4493   18.4726 C   0  0  0  0  0  0  0  0  0  0  0  0
   20.9245   -7.3762   15.0871 C   0  0  0  0  0  0  0  0  0  0  0  0
   20.0343   -7.7000   14.0195 C   0  0  0  0  0  0  0  0  0  0  0  0
   18.6784   -8.0248   14.2148 C   0  0  0  0  0  0  0  0  0  0  0  0
   18.2637   -7.9618   15.5534 C   0  0  0  0  0  0  0  0  0  0  0  0
   17.0518   -8.2076   16.0793 N   0  0  0  0  0  0  0  0  0  0  0  0
  1  2  1  0
  2  3  1  0
  3  4  2  0
  4  5  1  0
  5  6  1  0
  6  7  1  0
  8  7  1  1
  8  9  1  0
  9 10  1  0
 10 11  1  0
 11 12  1  0
 12 13  2  0
 13 14  1  0
 14 15  2  0
 15 16  1  0
 16 17  1  0
 16 18  1  0
 16 19  1  0
 15 20  1  0
 20 21  2  0
 21 22  1  0
 11 23  1  0
  5 24  2  0
 24 25  1  0
 25 26  2  0
 26 27  1  0
 27 28  2  0
 28  2  1  0
 27  4  1  0
 23  8  1  0
 21 12  1  0
M  END
>  <energy_score>  (1066) 
-25.469501

>  <inchikey>  (1066) 
None

>  <smiles>  (1066) 
None

>  <ref_pdb>  (1066) 
A1105b

>  <alias>  (1066) 
None

>  <HIPPO Pose ID>  (1066) 
498710

>  <name>  (1066) 
P498710

>  <HIPPO Compound ID>  (1066) 
293469

>  <ref_mols>  (1066) 
A0497a,A1105b

>  <distance_score>  (1066) 
1.200869

>  <inspiration_score>  (1066) 
None

$$$$
P498711
     RDKit          3D

 29 33  0  0  0  0  0  0  0  0999 V2000
   19.1501  -11.4560   12.3250 C   0  0  0  0  0  0  0  0  0  0  0  0
   18.8283  -10.4055   13.3083 C   0  0  0  0  0  0  0  0  0  0  0  0
   17.6092  -10.2794   13.8477 N   0  0  0  0  0  0  0  0  0  0  0  0
   17.7542   -9.1811   14.6988 O   0  0  0  0  0  0  0  0  0  0  0  0
   19.0554   -8.7629   14.5811 C   0  0  0  0  0  0  0  0  0  0  0  0
   19.4527   -7.6287   15.3785 C   0  0  0  0  0  0  0  0  0  0  0  0
   20.7786   -7.2220   15.5293 C   0  0  0  0  0  0  0  0  0  0  0  0
   21.0865   -6.0821   16.2823 C   0  0  0  0  0  0  0  0  0  0  0  0
   20.0612   -5.3664   16.8818 C   0  0  0  0  0  0  0  0  0  0  0  0
   20.3149   -4.2435   17.6754 N   0  0  0  0  0  0  0  0  0  0  0  0
   20.9649   -4.5561   18.9504 C   0  0  0  0  0  0  0  0  0  0  0  0
   20.3417   -3.6049   19.9670 C   0  0  0  0  0  0  0  0  0  0  0  0
   18.9052   -3.4364   19.4717 C   0  0  2  0  0  0  0  0  0  0  0  0
   17.9960   -4.4199   20.0834 N   0  0  0  0  0  0  0  0  0  0  0  0
   17.6915   -5.6180   19.3040 C   0  0  0  0  0  0  0  0  0  0  0  0
   16.4680   -5.5476   18.4103 C   0  0  0  0  0  0  0  0  0  0  0  0
   15.7573   -4.3476   18.0972 C   0  0  0  0  0  0  0  0  0  0  0  0
   14.4899   -4.2900   17.4417 C   0  0  0  0  0  0  0  0  0  0  0  0
   13.7996   -5.4309   17.0054 C   0  0  0  0  0  0  0  0  0  0  0  0
   14.4630   -6.6374   17.2613 C   0  0  0  0  0  0  0  0  0  0  0  0
   14.1018   -7.8955   16.9469 N   0  0  0  0  0  0  0  0  0  0  0  0
   15.0643   -8.6664   17.4884 N   0  0  0  0  0  0  0  0  0  0  0  0
   14.9688  -10.0995   17.3534 C   0  0  0  0  0  0  0  0  0  0  0  0
   16.0664   -7.9749   18.1029 C   0  0  0  0  0  0  0  0  0  0  0  0
   15.7357   -6.6537   17.9418 C   0  0  0  0  0  0  0  0  0  0  0  0
   19.1417   -3.3842   17.9396 C   0  0  0  0  0  0  0  0  0  0  0  0
   18.7951   -5.7835   16.7345 N   0  0  0  0  0  0  0  0  0  0  0  0
   18.5057   -6.8607   15.9972 C   0  0  0  0  0  0  0  0  0  0  0  0
   19.7526   -9.4889   13.7378 N   0  0  0  0  0  0  0  0  0  0  0  0
  1  2  1  0
  2  3  2  0
  3  4  1  0
  4  5  1  0
  5  6  1  0
  6  7  2  0
  7  8  1  0
  8  9  2  0
  9 10  1  0
 10 11  1  0
 11 12  1  0
 12 13  1  0
 13 14  1  6
 14 15  1  0
 15 16  1  0
 16 17  2  0
 17 18  1  0
 18 19  2  0
 19 20  1  0
 20 21  2  0
 21 22  1  0
 22 23  1  0
 22 24  1  0
 24 25  2  0
 13 26  1  0
  9 27  1  0
 27 28  2  0
  5 29  2  0
 29  2  1  0
 28  6  1  0
 26 10  1  0
 25 16  1  0
 25 20  1  0
M  END
>  <energy_score>  (1067) 
-53.068765

>  <inchikey>  (1067) 
None

>  <smiles>  (1067) 
None

>  <ref_pdb>  (1067) 
A1105b

>  <alias>  (1067) 
None

>  <HIPPO Pose ID>  (1067) 
498711

>  <name>  (1067) 
P498711

>  <HIPPO Compound ID>  (1067) 
293470

>  <ref_mols>  (1067) 
A0497a,A1105b

>  <distance_score>  (1067) 
1.778929

>  <inspiration_score>  (1067) 
None

$$$$
P498712
     RDKit          3D

 29 33  0  0  0  0  0  0  0  0999 V2000
   16.0595  -10.3774   13.4074 C   0  0  0  0  0  0  0  0  0  0  0  0
   17.1517   -9.4417   13.7312 C   0  0  0  0  0  0  0  0  0  0  0  0
   17.8183   -8.7626   12.7885 N   0  0  0  0  0  0  0  0  0  0  0  0
   18.7293   -8.0058   13.5340 O   0  0  0  0  0  0  0  0  0  0  0  0
   18.4949   -8.2932   14.8480 C   0  0  0  0  0  0  0  0  0  0  0  0
   19.2728   -7.5744   15.8322 C   0  0  0  0  0  0  0  0  0  0  0  0
   20.1110   -6.5055   15.5378 C   0  0  0  0  0  0  0  0  0  0  0  0
   20.6758   -5.7582   16.5723 C   0  0  0  0  0  0  0  0  0  0  0  0
   20.3639   -6.0622   17.8973 C   0  0  0  0  0  0  0  0  0  0  0  0
   20.6327   -5.1651   18.9362 N   0  0  0  0  0  0  0  0  0  0  0  0
   20.5920   -3.7200   18.6462 C   0  0  0  0  0  0  0  0  0  0  0  0
   19.9455   -3.0751   19.8739 C   0  0  0  0  0  0  0  0  0  0  0  0
   19.0740   -4.1731   20.4769 C   0  0  1  0  0  0  0  0  0  0  0  0
   17.6853   -4.2233   19.9839 N   0  0  0  0  0  0  0  0  0  0  0  0
   17.5389   -4.3876   18.5395 C   0  0  0  0  0  0  0  0  0  0  0  0
   16.1653   -4.7663   18.0976 C   0  0  0  0  0  0  0  0  0  0  0  0
   15.2034   -3.7868   17.7773 C   0  0  0  0  0  0  0  0  0  0  0  0
   13.9482   -4.0767   17.1880 C   0  0  0  0  0  0  0  0  0  0  0  0
   13.5144   -5.3783   16.8954 C   0  0  0  0  0  0  0  0  0  0  0  0
   14.3922   -6.3909   17.2811 C   0  0  0  0  0  0  0  0  0  0  0  0
   14.2719   -7.7257   17.1679 N   0  0  0  0  0  0  0  0  0  0  0  0
   15.3574   -8.2020   17.8097 N   0  0  0  0  0  0  0  0  0  0  0  0
   15.4950   -9.6256   17.9899 C   0  0  0  0  0  0  0  0  0  0  0  0
   16.2207   -7.2416   18.2436 C   0  0  0  0  0  0  0  0  0  0  0  0
   15.6591   -6.0550   17.8649 C   0  0  0  0  0  0  0  0  0  0  0  0
   19.9372   -5.4290   20.2122 C   0  0  0  0  0  0  0  0  0  0  0  0
   19.6902   -7.2036   18.1803 N   0  0  0  0  0  0  0  0  0  0  0  0
   19.1652   -7.9181   17.1622 C   0  0  0  0  0  0  0  0  0  0  0  0
   17.5468   -9.1910   15.0183 N   0  0  0  0  0  0  0  0  0  0  0  0
  1  2  1  0
  2  3  2  0
  3  4  1  0
  4  5  1  0
  5  6  1  0
  6  7  2  0
  7  8  1  0
  8  9  2  0
  9 10  1  0
 10 11  1  0
 11 12  1  0
 12 13  1  0
 13 14  1  6
 14 15  1  0
 15 16  1  0
 16 17  2  0
 17 18  1  0
 18 19  2  0
 19 20  1  0
 20 21  2  0
 21 22  1  0
 22 23  1  0
 22 24  1  0
 24 25  2  0
 13 26  1  0
  9 27  1  0
 27 28  2  0
  5 29  2  0
 29  2  1  0
 28  6  1  0
 26 10  1  0
 25 16  1  0
 25 20  1  0
M  END
>  <energy_score>  (1068) 
-34.151566

>  <inchikey>  (1068) 
None

>  <smiles>  (1068) 
None

>  <ref_pdb>  (1068) 
A1105b

>  <alias>  (1068) 
None

>  <HIPPO Pose ID>  (1068) 
498712

>  <name>  (1068) 
P498712

>  <HIPPO Compound ID>  (1068) 
293470

>  <ref_mols>  (1068) 
A0497a,A1105b

>  <distance_score>  (1068) 
1.656123

>  <inspiration_score>  (1068) 
None

$$$$
P498713
     RDKit          3D

 29 33  0  0  0  0  0  0  0  0999 V2000
   17.7817   -9.6412   11.8147 C   0  0  0  0  0  0  0  0  0  0  0  0
   17.9021   -9.1043   13.1823 C   0  0  0  0  0  0  0  0  0  0  0  0
   16.9817   -9.3390   14.1251 N   0  0  0  0  0  0  0  0  0  0  0  0
   17.5012   -8.6727   15.2417 O   0  0  0  0  0  0  0  0  0  0  0  0
   18.6769   -8.0941   14.8413 C   0  0  0  0  0  0  0  0  0  0  0  0
   19.3917   -7.3064   15.8232 C   0  0  0  0  0  0  0  0  0  0  0  0
   20.2386   -6.2689   15.4512 C   0  0  0  0  0  0  0  0  0  0  0  0
   20.8071   -5.4438   16.4227 C   0  0  0  0  0  0  0  0  0  0  0  0
   20.5171   -5.6564   17.7689 C   0  0  0  0  0  0  0  0  0  0  0  0
   20.9078   -4.7215   18.7452 N   0  0  0  0  0  0  0  0  0  0  0  0
   20.4697   -3.3353   18.4582 C   0  0  0  0  0  0  0  0  0  0  0  0
   19.6434   -2.9096   19.6783 C   0  0  0  0  0  0  0  0  0  0  0  0
   19.1763   -4.2259   20.3088 C   0  0  1  0  0  0  0  0  0  0  0  0
   18.0420   -4.9495   19.6910 N   0  0  0  0  0  0  0  0  0  0  0  0
   17.2541   -4.1806   18.7327 C   0  0  0  0  0  0  0  0  0  0  0  0
   16.0722   -4.9226   18.1336 C   0  0  0  0  0  0  0  0  0  0  0  0
   15.0386   -4.1082   17.6263 C   0  0  0  0  0  0  0  0  0  0  0  0
   13.9036   -4.6431   17.0394 C   0  0  0  0  0  0  0  0  0  0  0  0
   13.7443   -6.0195   16.9111 C   0  0  0  0  0  0  0  0  0  0  0  0
   14.7378   -6.8404   17.4415 C   0  0  0  0  0  0  0  0  0  0  0  0
   15.8724   -6.3287   18.0645 C   0  0  0  0  0  0  0  0  0  0  0  0
   16.4891   -7.4862   18.6000 C   0  0  0  0  0  0  0  0  0  0  0  0
   15.9116   -8.6303   18.2265 N   0  0  0  0  0  0  0  0  0  0  0  0
   14.8417   -8.2064   17.5310 N   0  0  0  0  0  0  0  0  0  0  0  0
   13.9079   -9.1742   17.0106 C   0  0  0  0  0  0  0  0  0  0  0  0
   20.4838   -5.0427   20.1272 C   0  0  0  0  0  0  0  0  0  0  0  0
   19.8110   -6.7479   18.1430 N   0  0  0  0  0  0  0  0  0  0  0  0
   19.2777   -7.5396   17.1771 C   0  0  0  0  0  0  0  0  0  0  0  0
   18.9521   -8.3171   13.5733 N   0  0  0  0  0  0  0  0  0  0  0  0
  1  2  1  0
  2  3  2  0
  3  4  1  0
  4  5  1  0
  5  6  1  0
  6  7  2  0
  7  8  1  0
  8  9  2  0
  9 10  1  0
 10 11  1  0
 11 12  1  0
 12 13  1  0
 13 14  1  6
 14 15  1  0
 15 16  1  0
 16 17  2  0
 17 18  1  0
 18 19  2  0
 19 20  1  0
 20 21  2  0
 21 22  1  0
 22 23  2  0
 23 24  1  0
 24 25  1  0
 13 26  1  0
  9 27  1  0
 27 28  2  0
  5 29  2  0
 29  2  1  0
 28  6  1  0
 26 10  1  0
 21 16  1  0
 24 20  1  0
M  END
>  <energy_score>  (1069) 
-29.513412

>  <inchikey>  (1069) 
None

>  <smiles>  (1069) 
None

>  <ref_pdb>  (1069) 
A1105b

>  <alias>  (1069) 
None

>  <HIPPO Pose ID>  (1069) 
498713

>  <name>  (1069) 
P498713

>  <HIPPO Compound ID>  (1069) 
293471

>  <ref_mols>  (1069) 
A0497a,A1105b

>  <distance_score>  (1069) 
1.692999

>  <inspiration_score>  (1069) 
None

$$$$
P498714
     RDKit          3D

 29 33  0  0  0  0  0  0  0  0999 V2000
   17.8907   -9.6535   11.8481 C   0  0  0  0  0  0  0  0  0  0  0  0
   18.0075   -9.1343   13.2228 C   0  0  0  0  0  0  0  0  0  0  0  0
   17.1084   -9.4193   14.1722 N   0  0  0  0  0  0  0  0  0  0  0  0
   17.6140   -8.7492   15.2927 O   0  0  0  0  0  0  0  0  0  0  0  0
   18.7643   -8.1225   14.8888 C   0  0  0  0  0  0  0  0  0  0  0  0
   19.4526   -7.3173   15.8746 C   0  0  0  0  0  0  0  0  0  0  0  0
   20.2172   -6.2153   15.5144 C   0  0  0  0  0  0  0  0  0  0  0  0
   20.7118   -5.3578   16.4983 C   0  0  0  0  0  0  0  0  0  0  0  0
   20.4351   -5.6061   17.8432 C   0  0  0  0  0  0  0  0  0  0  0  0
   20.7093   -4.6238   18.8107 N   0  0  0  0  0  0  0  0  0  0  0  0
   20.4431   -5.0188   20.2099 C   0  0  0  0  0  0  0  0  0  0  0  0
   19.7434   -3.8198   20.8530 C   0  0  0  0  0  0  0  0  0  0  0  0
   18.9365   -3.2615   19.6918 C   0  0  2  0  0  0  0  0  0  0  0  0
   17.7087   -4.0782   19.5493 N   0  0  0  0  0  0  0  0  0  0  0  0
   17.2773   -4.1423   18.1571 C   0  0  0  0  0  0  0  0  0  0  0  0
   16.0095   -4.9161   17.9347 C   0  0  0  0  0  0  0  0  0  0  0  0
   14.8627   -4.2259   17.5203 C   0  0  0  0  0  0  0  0  0  0  0  0
   13.7436   -4.9114   17.0751 C   0  0  0  0  0  0  0  0  0  0  0  0
   13.7022   -6.3052   17.0312 C   0  0  0  0  0  0  0  0  0  0  0  0
   14.7891   -6.9879   17.5672 C   0  0  0  0  0  0  0  0  0  0  0  0
   15.9129   -6.3242   18.0406 C   0  0  0  0  0  0  0  0  0  0  0  0
   16.6830   -7.3513   18.6244 C   0  0  0  0  0  0  0  0  0  0  0  0
   16.1778   -8.5734   18.4386 N   0  0  0  0  0  0  0  0  0  0  0  0
   15.0258   -8.3216   17.7877 N   0  0  0  0  0  0  0  0  0  0  0  0
   14.1487   -9.4161   17.4538 C   0  0  0  0  0  0  0  0  0  0  0  0
   20.0186   -3.3418   18.5729 C   0  0  0  0  0  0  0  0  0  0  0  0
   19.8473   -6.7660   18.1994 N   0  0  0  0  0  0  0  0  0  0  0  0
   19.3769   -7.5851   17.2245 C   0  0  0  0  0  0  0  0  0  0  0  0
   19.0321   -8.3145   13.6142 N   0  0  0  0  0  0  0  0  0  0  0  0
  1  2  1  0
  2  3  2  0
  3  4  1  0
  4  5  1  0
  5  6  1  0
  6  7  2  0
  7  8  1  0
  8  9  2  0
  9 10  1  0
 10 11  1  0
 11 12  1  0
 12 13  1  0
 13 14  1  6
 14 15  1  0
 15 16  1  0
 16 17  2  0
 17 18  1  0
 18 19  2  0
 19 20  1  0
 20 21  2  0
 21 22  1  0
 22 23  2  0
 23 24  1  0
 24 25  1  0
 13 26  1  0
  9 27  1  0
 27 28  2  0
  5 29  2  0
 29  2  1  0
 28  6  1  0
 26 10  1  0
 21 16  1  0
 24 20  1  0
M  END
>  <energy_score>  (1070) 
-36.946402

>  <inchikey>  (1070) 
None

>  <smiles>  (1070) 
None

>  <ref_pdb>  (1070) 
A1105b

>  <alias>  (1070) 
None

>  <HIPPO Pose ID>  (1070) 
498714

>  <name>  (1070) 
P498714

>  <HIPPO Compound ID>  (1070) 
293471

>  <ref_mols>  (1070) 
A0497a,A1105b

>  <distance_score>  (1070) 
1.581096

>  <inspiration_score>  (1070) 
None

$$$$
P498715
     RDKit          3D

 29 32  0  0  0  0  0  0  0  0999 V2000
   15.5841   -7.6161   17.9154 C   0  0  0  0  0  0  0  0  0  0  0  0
   16.8315   -7.6274   17.1877 N   0  0  0  0  0  0  0  0  0  0  0  0
   18.0160   -7.1038   17.6173 C   0  0  0  0  0  0  0  0  0  0  0  0
   18.8858   -7.2551   16.5688 C   0  0  0  0  0  0  0  0  0  0  0  0
   20.2319   -6.8507   16.5056 C   0  0  0  0  0  0  0  0  0  0  0  0
   21.1273   -6.2716   17.5713 C   0  0  2  0  0  0  0  0  0  0  0  0
   20.5087   -6.0997   18.8207 O   0  0  0  0  0  0  0  0  0  0  0  0
   21.8426   -5.0520   17.2390 N   0  0  0  0  0  0  0  0  0  0  0  0
   21.0562   -3.9399   16.6621 C   0  0  2  0  0  0  0  0  0  0  0  0
   21.8532   -2.6540   16.8977 C   0  0  0  0  0  0  0  0  0  0  0  0
   21.5107   -2.3144   18.3507 C   0  0  0  0  0  0  0  0  0  0  0  0
   20.0967   -2.6936   18.4831 N   0  0  0  0  0  0  0  0  0  0  0  0
   19.6606   -3.2298   19.6901 C   0  0  0  0  0  0  0  0  0  0  0  0
   20.6036   -3.6788   20.5547 N   0  0  0  0  0  0  0  0  0  0  0  0
   20.2138   -4.2863   21.6958 C   0  0  0  0  0  0  0  0  0  0  0  0
   18.8999   -4.4554   22.0714 C   0  0  0  0  0  0  0  0  0  0  0  0
   18.5741   -5.0996   23.3783 C   0  0  0  0  0  0  0  0  0  0  0  0
   18.5487   -4.2212   24.4143 F   0  0  0  0  0  0  0  0  0  0  0  0
   17.3611   -5.7265   23.3777 F   0  0  0  0  0  0  0  0  0  0  0  0
   19.4716   -6.0625   23.7333 F   0  0  0  0  0  0  0  0  0  0  0  0
   17.9355   -3.9423   21.2153 C   0  0  0  0  0  0  0  0  0  0  0  0
   18.3005   -3.3696   20.0004 C   0  0  0  0  0  0  0  0  0  0  0  0
   17.0154   -2.8803   18.9724 Cl  0  0  0  0  0  0  0  0  0  0  0  0
   19.7222   -3.5317   17.3275 C   0  0  0  0  0  0  0  0  0  0  0  0
   20.7641   -7.1699   15.2190 C   0  0  0  0  0  0  0  0  0  0  0  0
   20.0473   -7.8143   14.1658 C   0  0  0  0  0  0  0  0  0  0  0  0
   18.7093   -8.2279   14.2874 C   0  0  0  0  0  0  0  0  0  0  0  0
   18.1302   -7.9250   15.5295 C   0  0  0  0  0  0  0  0  0  0  0  0
   16.8865   -8.1913   15.9649 N   0  0  0  0  0  0  0  0  0  0  0  0
  1  2  1  0
  2  3  1  0
  3  4  2  0
  4  5  1  0
  5  6  1  0
  6  7  1  1
  6  8  1  0
  9  8  1  1
  9 10  1  0
 10 11  1  0
 11 12  1  0
 12 13  1  0
 13 14  2  0
 14 15  1  0
 15 16  2  0
 16 17  1  0
 17 18  1  0
 17 19  1  0
 17 20  1  0
 16 21  1  0
 21 22  2  0
 22 23  1  0
 12 24  1  0
  5 25  2  0
 25 26  1  0
 26 27  2  0
 27 28  1  0
 28 29  2  0
 29  2  1  0
 28  4  1  0
 24  9  1  0
 22 13  1  0
M  END
>  <energy_score>  (1071) 
-56.771435

>  <inchikey>  (1071) 
None

>  <smiles>  (1071) 
None

>  <ref_pdb>  (1071) 
A1105b

>  <alias>  (1071) 
None

>  <HIPPO Pose ID>  (1071) 
498715

>  <name>  (1071) 
P498715

>  <HIPPO Compound ID>  (1071) 
293472

>  <ref_mols>  (1071) 
A0497a,A1105b

>  <distance_score>  (1071) 
1.473912

>  <inspiration_score>  (1071) 
None

$$$$
P498716
     RDKit          3D

 29 32  0  0  0  0  0  0  0  0999 V2000
   16.0911   -7.5645   18.1854 C   0  0  0  0  0  0  0  0  0  0  0  0
   17.2384   -7.6028   17.3107 N   0  0  0  0  0  0  0  0  0  0  0  0
   18.5108   -7.2087   17.6178 C   0  0  0  0  0  0  0  0  0  0  0  0
   19.2348   -7.3950   16.4688 C   0  0  0  0  0  0  0  0  0  0  0  0
   20.6051   -7.1348   16.2699 C   0  0  0  0  0  0  0  0  0  0  0  0
   21.6455   -6.6970   17.2824 C   0  0  1  0  0  0  0  0  0  0  0  0
   22.4129   -7.8537   17.6014 O   0  0  0  0  0  0  0  0  0  0  0  0
   22.5878   -5.6869   16.8267 N   0  0  0  0  0  0  0  0  0  0  0  0
   22.1796   -4.2850   16.9439 C   0  0  1  0  0  0  0  0  0  0  0  0
   20.7885   -3.9387   16.4404 C   0  0  0  0  0  0  0  0  0  0  0  0
   20.3986   -2.7069   17.2337 C   0  0  0  0  0  0  0  0  0  0  0  0
   20.9700   -2.9334   18.5701 N   0  0  0  0  0  0  0  0  0  0  0  0
   20.1054   -3.5837   19.4646 C   0  0  0  0  0  0  0  0  0  0  0  0
   20.4982   -4.7950   19.9193 N   0  0  0  0  0  0  0  0  0  0  0  0
   19.8415   -5.4033   20.9164 C   0  0  0  0  0  0  0  0  0  0  0  0
   18.7211   -4.8815   21.5082 C   0  0  0  0  0  0  0  0  0  0  0  0
   18.1966   -5.5759   22.7146 C   0  0  0  0  0  0  0  0  0  0  0  0
   17.1300   -4.9632   23.2829 F   0  0  0  0  0  0  0  0  0  0  0  0
   17.7583   -6.8363   22.4287 F   0  0  0  0  0  0  0  0  0  0  0  0
   19.1192   -5.7205   23.7012 F   0  0  0  0  0  0  0  0  0  0  0  0
   18.2295   -3.6839   20.9917 C   0  0  0  0  0  0  0  0  0  0  0  0
   18.9395   -3.0071   19.9887 C   0  0  0  0  0  0  0  0  0  0  0  0
   18.4250   -1.3967   19.6408 Cl  0  0  0  0  0  0  0  0  0  0  0  0
   22.2629   -3.6374   18.3500 C   0  0  0  0  0  0  0  0  0  0  0  0
   20.9580   -7.4655   14.9283 C   0  0  0  0  0  0  0  0  0  0  0  0
   20.0613   -7.9714   13.9390 C   0  0  0  0  0  0  0  0  0  0  0  0
   18.7030   -8.2308   14.1891 C   0  0  0  0  0  0  0  0  0  0  0  0
   18.3005   -7.9278   15.4974 C   0  0  0  0  0  0  0  0  0  0  0  0
   17.0929   -8.0855   16.0639 N   0  0  0  0  0  0  0  0  0  0  0  0
  1  2  1  0
  2  3  1  0
  3  4  2  0
  4  5  1  0
  5  6  1  0
  6  7  1  6
  6  8  1  0
  9  8  1  1
  9 10  1  0
 10 11  1  0
 11 12  1  0
 12 13  1  0
 13 14  2  0
 14 15  1  0
 15 16  2  0
 16 17  1  0
 17 18  1  0
 17 19  1  0
 17 20  1  0
 16 21  1  0
 21 22  2  0
 22 23  1  0
 12 24  1  0
  5 25  2  0
 25 26  1  0
 26 27  2  0
 27 28  1  0
 28 29  2  0
 29  2  1  0
 28  4  1  0
 24  9  1  0
 22 13  1  0
M  END
>  <energy_score>  (1072) 
-33.061142

>  <inchikey>  (1072) 
None

>  <smiles>  (1072) 
None

>  <ref_pdb>  (1072) 
A1105b

>  <alias>  (1072) 
None

>  <HIPPO Pose ID>  (1072) 
498716

>  <name>  (1072) 
P498716

>  <HIPPO Compound ID>  (1072) 
293472

>  <ref_mols>  (1072) 
A0497a,A1105b

>  <distance_score>  (1072) 
1.929745

>  <inspiration_score>  (1072) 
None

$$$$
P498717
     RDKit          3D

 29 32  0  0  0  0  0  0  0  0999 V2000
   16.5373   -7.7101   18.4521 C   0  0  0  0  0  0  0  0  0  0  0  0
   17.4714   -7.7523   17.3533 N   0  0  0  0  0  0  0  0  0  0  0  0
   18.7616   -7.2958   17.3561 C   0  0  0  0  0  0  0  0  0  0  0  0
   19.2140   -7.4408   16.0673 C   0  0  0  0  0  0  0  0  0  0  0  0
   20.4560   -7.0683   15.5014 C   0  0  0  0  0  0  0  0  0  0  0  0
   21.7076   -6.3844   16.0063 C   0  0  2  0  0  0  0  0  0  0  0  0
   22.8150   -7.1906   15.6461 O   0  0  0  0  0  0  0  0  0  0  0  0
   21.8583   -6.2259   17.4237 N   0  0  0  0  0  0  0  0  0  0  0  0
   21.4014   -4.9457   17.9492 C   0  0  1  0  0  0  0  0  0  0  0  0
   22.4456   -3.8230   17.8914 C   0  0  0  0  0  0  0  0  0  0  0  0
   21.6351   -2.5243   18.1030 C   0  0  0  0  0  0  0  0  0  0  0  0
   20.2023   -2.9094   18.0956 N   0  0  0  0  0  0  0  0  0  0  0  0
   19.6661   -3.1123   19.3954 C   0  0  0  0  0  0  0  0  0  0  0  0
   20.5483   -3.2558   20.4180 N   0  0  0  0  0  0  0  0  0  0  0  0
   20.1181   -3.7077   21.6105 C   0  0  0  0  0  0  0  0  0  0  0  0
   18.8030   -3.9908   21.8907 C   0  0  0  0  0  0  0  0  0  0  0  0
   18.4543   -4.5454   23.2329 C   0  0  0  0  0  0  0  0  0  0  0  0
   19.3427   -5.5008   23.6349 F   0  0  0  0  0  0  0  0  0  0  0  0
   18.4513   -3.6143   24.2173 F   0  0  0  0  0  0  0  0  0  0  0  0
   17.2426   -5.1682   23.2596 F   0  0  0  0  0  0  0  0  0  0  0  0
   17.8790   -3.7170   20.8892 C   0  0  0  0  0  0  0  0  0  0  0  0
   18.2986   -3.3264   19.6180 C   0  0  0  0  0  0  0  0  0  0  0  0
   17.0874   -3.2493   18.3999 Cl  0  0  0  0  0  0  0  0  0  0  0  0
   20.1663   -4.2060   17.3810 C   0  0  0  0  0  0  0  0  0  0  0  0
   20.4710   -7.4361   14.1182 C   0  0  0  0  0  0  0  0  0  0  0  0
   19.4321   -8.1034   13.4151 C   0  0  0  0  0  0  0  0  0  0  0  0
   18.2198   -8.4637   14.0146 C   0  0  0  0  0  0  0  0  0  0  0  0
   18.1213   -8.1063   15.3665 C   0  0  0  0  0  0  0  0  0  0  0  0
   17.0860   -8.3091   16.1966 N   0  0  0  0  0  0  0  0  0  0  0  0
  1  2  1  0
  2  3  1  0
  3  4  2  0
  4  5  1  0
  5  6  1  0
  6  7  1  1
  6  8  1  0
  9  8  1  6
  9 10  1  0
 10 11  1  0
 11 12  1  0
 12 13  1  0
 13 14  2  0
 14 15  1  0
 15 16  2  0
 16 17  1  0
 17 18  1  0
 17 19  1  0
 17 20  1  0
 16 21  1  0
 21 22  2  0
 22 23  1  0
 12 24  1  0
  5 25  2  0
 25 26  1  0
 26 27  2  0
 27 28  1  0
 28 29  2  0
 29  2  1  0
 28  4  1  0
 24  9  1  0
 22 13  1  0
M  END
>  <energy_score>  (1073) 
-48.421611

>  <inchikey>  (1073) 
None

>  <smiles>  (1073) 
None

>  <ref_pdb>  (1073) 
A1105b

>  <alias>  (1073) 
None

>  <HIPPO Pose ID>  (1073) 
498717

>  <name>  (1073) 
P498717

>  <HIPPO Compound ID>  (1073) 
293472

>  <ref_mols>  (1073) 
A0497a,A1105b

>  <distance_score>  (1073) 
1.742513

>  <inspiration_score>  (1073) 
None

$$$$
P498718
     RDKit          3D

 29 32  0  0  0  0  0  0  0  0999 V2000
   16.0863   -6.6360   17.7198 C   0  0  0  0  0  0  0  0  0  0  0  0
   17.2350   -7.0850   16.9706 N   0  0  0  0  0  0  0  0  0  0  0  0
   18.3571   -6.3605   16.6912 C   0  0  0  0  0  0  0  0  0  0  0  0
   19.1306   -7.1585   15.8936 C   0  0  0  0  0  0  0  0  0  0  0  0
   20.3534   -6.8437   15.2694 C   0  0  0  0  0  0  0  0  0  0  0  0
   21.1169   -5.5546   15.1587 C   0  0  0  0  0  0  0  0  0  0  0  0
   22.0880   -5.3301   16.2288 N   0  0  0  0  0  0  0  0  0  0  0  0
   21.5205   -4.3800   17.1887 C   0  0  2  0  0  0  0  0  0  0  0  0
   21.5071   -2.9125   16.7299 C   0  0  0  0  0  0  0  0  0  0  0  0
   21.4647   -2.0998   18.0282 C   0  0  0  0  0  0  0  0  0  0  0  0
   21.6474   -3.0644   19.1083 N   0  0  0  0  0  0  0  0  0  0  0  0
   20.6345   -3.4304   19.9789 C   0  0  0  0  0  0  0  0  0  0  0  0
   21.1534   -3.9615   21.1113 N   0  0  0  0  0  0  0  0  0  0  0  0
   20.3468   -4.4321   22.0694 C   0  0  0  0  0  0  0  0  0  0  0  0
   18.9761   -4.4072   21.9956 C   0  0  0  0  0  0  0  0  0  0  0  0
   18.2434   -4.9206   23.1840 C   0  0  0  0  0  0  0  0  0  0  0  0
   16.9097   -5.0192   22.9949 F   0  0  0  0  0  0  0  0  0  0  0  0
   18.6382   -6.1803   23.5300 F   0  0  0  0  0  0  0  0  0  0  0  0
   18.4273   -4.1626   24.2960 F   0  0  0  0  0  0  0  0  0  0  0  0
   18.4103   -3.8650   20.8431 C   0  0  0  0  0  0  0  0  0  0  0  0
   19.2374   -3.3798   19.8158 C   0  0  0  0  0  0  0  0  0  0  0  0
   18.4058   -2.8296   18.4159 Cl  0  0  0  0  0  0  0  0  0  0  0  0
   22.2646   -4.2696   18.5210 C   0  0  0  0  0  0  0  0  0  0  0  0
   20.8207   -7.9598   14.5289 C   0  0  0  0  0  0  0  0  0  0  0  0
   20.1144   -9.1859   14.3852 C   0  0  0  0  0  0  0  0  0  0  0  0
   20.8956  -10.5471   13.3110 Br  0  0  0  0  0  0  0  0  0  0  0  0
   18.8698   -9.4513   14.9762 C   0  0  0  0  0  0  0  0  0  0  0  0
   18.3864   -8.3947   15.7569 C   0  0  0  0  0  0  0  0  0  0  0  0
   17.2331   -8.3240   16.4432 N   0  0  0  0  0  0  0  0  0  0  0  0
  1  2  1  0
  2  3  1  0
  3  4  2  0
  4  5  1  0
  5  6  1  0
  6  7  1  0
  8  7  1  6
  8  9  1  0
  9 10  1  0
 10 11  1  0
 11 12  1  0
 12 13  2  0
 13 14  1  0
 14 15  2  0
 15 16  1  0
 16 17  1  0
 16 18  1  0
 16 19  1  0
 15 20  1  0
 20 21  2  0
 21 22  1  0
 11 23  1  0
  5 24  2  0
 24 25  1  0
 25 26  1  0
 25 27  2  0
 27 28  1  0
 28 29  2  0
 29  2  1  0
 28  4  1  0
 23  8  1  0
 21 12  1  0
M  END
>  <energy_score>  (1074) 
-39.523008

>  <inchikey>  (1074) 
None

>  <smiles>  (1074) 
None

>  <ref_pdb>  (1074) 
A1105b

>  <alias>  (1074) 
None

>  <HIPPO Pose ID>  (1074) 
498718

>  <name>  (1074) 
P498718

>  <HIPPO Compound ID>  (1074) 
293473

>  <ref_mols>  (1074) 
A0497a,A1105b

>  <distance_score>  (1074) 
1.798507

>  <inspiration_score>  (1074) 
None

$$$$
P498719
     RDKit          3D

 29 32  0  0  0  0  0  0  0  0999 V2000
   15.6289   -6.9736   17.6738 C   0  0  0  0  0  0  0  0  0  0  0  0
   16.8401   -7.2604   16.9414 N   0  0  0  0  0  0  0  0  0  0  0  0
   17.9284   -6.4492   16.8164 C   0  0  0  0  0  0  0  0  0  0  0  0
   18.8176   -7.1390   16.0366 C   0  0  0  0  0  0  0  0  0  0  0  0
   20.0888   -6.7116   15.6200 C   0  0  0  0  0  0  0  0  0  0  0  0
   20.8054   -5.4121   15.8675 C   0  0  2  0  0  0  0  0  0  0  0  0
   21.2886   -4.9852   14.6058 O   0  0  0  0  0  0  0  0  0  0  0  0
   21.9609   -5.5334   16.7530 N   0  0  0  0  0  0  0  0  0  0  0  0
   21.6186   -5.1468   18.1178 C   0  0  2  0  0  0  0  0  0  0  0  0
   22.8064   -4.9749   19.0677 C   0  0  0  0  0  0  0  0  0  0  0  0
   22.1640   -4.9945   20.4775 C   0  0  0  0  0  0  0  0  0  0  0  0
   20.7632   -5.4672   20.2968 N   0  0  0  0  0  0  0  0  0  0  0  0
   19.8020   -4.4026   20.2685 C   0  0  0  0  0  0  0  0  0  0  0  0
   20.2402   -3.1220   20.3184 N   0  0  0  0  0  0  0  0  0  0  0  0
   19.3752   -2.1301   20.0198 C   0  0  0  0  0  0  0  0  0  0  0  0
   18.0598   -2.3375   19.6625 C   0  0  0  0  0  0  0  0  0  0  0  0
   17.5890   -3.6366   19.6480 C   0  0  0  0  0  0  0  0  0  0  0  0
   18.4482   -4.6712   20.0012 C   0  0  0  0  0  0  0  0  0  0  0  0
   17.9806   -5.9295   19.9849 F   0  0  0  0  0  0  0  0  0  0  0  0
   20.7616   -6.1125   18.9624 C   0  0  0  0  0  0  0  0  0  0  0  0
   20.6674   -7.6913   14.7693 C   0  0  0  0  0  0  0  0  0  0  0  0
   20.0338   -8.9011   14.3715 C   0  0  0  0  0  0  0  0  0  0  0  0
   18.7405   -9.2936   14.7986 C   0  0  0  0  0  0  0  0  0  0  0  0
   18.0862  -10.5579   14.3627 C   0  0  0  0  0  0  0  0  0  0  0  0
   16.9205  -10.3616   13.6849 F   0  0  0  0  0  0  0  0  0  0  0  0
   18.8714  -11.2852   13.5097 F   0  0  0  0  0  0  0  0  0  0  0  0
   17.8001  -11.4082   15.3874 F   0  0  0  0  0  0  0  0  0  0  0  0
   18.1443   -8.3662   15.6663 C   0  0  0  0  0  0  0  0  0  0  0  0
   16.9412   -8.4183   16.2626 N   0  0  0  0  0  0  0  0  0  0  0  0
  1  2  1  0
  2  3  1  0
  3  4  2  0
  4  5  1  0
  5  6  1  0
  6  7  1  6
  6  8  1  0
  9  8  1  6
  9 10  1  0
 10 11  1  0
 11 12  1  0
 12 13  1  0
 13 14  2  0
 14 15  1  0
 15 16  2  0
 16 17  1  0
 17 18  2  0
 18 19  1  0
 12 20  1  0
  5 21  2  0
 21 22  1  0
 22 23  2  0
 23 24  1  0
 24 25  1  0
 24 26  1  0
 24 27  1  0
 23 28  1  0
 28 29  2  0
 29  2  1  0
 28  4  1  0
 20  9  1  0
 18 13  1  0
M  END
>  <energy_score>  (1075) 
-46.65795

>  <inchikey>  (1075) 
None

>  <smiles>  (1075) 
None

>  <ref_pdb>  (1075) 
A1105b

>  <alias>  (1075) 
None

>  <HIPPO Pose ID>  (1075) 
498719

>  <name>  (1075) 
P498719

>  <HIPPO Compound ID>  (1075) 
293475

>  <ref_mols>  (1075) 
A0497a,A1105b

>  <distance_score>  (1075) 
1.229076

>  <inspiration_score>  (1075) 
None

$$$$
P498720
     RDKit          3D

 29 32  0  0  0  0  0  0  0  0999 V2000
   15.7944   -7.1083   17.9143 C   0  0  0  0  0  0  0  0  0  0  0  0
   16.9889   -7.3167   17.1313 N   0  0  0  0  0  0  0  0  0  0  0  0
   18.2142   -6.7595   17.3619 C   0  0  0  0  0  0  0  0  0  0  0  0
   18.9921   -7.1572   16.3055 C   0  0  0  0  0  0  0  0  0  0  0  0
   20.3278   -6.8015   16.0592 C   0  0  0  0  0  0  0  0  0  0  0  0
   21.2344   -5.9164   16.8725 C   0  0  1  0  0  0  0  0  0  0  0  0
   22.1595   -6.7520   17.5295 O   0  0  0  0  0  0  0  0  0  0  0  0
   22.0129   -5.0157   16.0299 N   0  0  0  0  0  0  0  0  0  0  0  0
   22.3446   -3.6982   16.6109 C   0  0  2  0  0  0  0  0  0  0  0  0
   23.2859   -3.7012   17.8126 C   0  0  0  0  0  0  0  0  0  0  0  0
   22.3633   -3.7047   19.0232 C   0  0  0  0  0  0  0  0  0  0  0  0
   21.1466   -3.0287   18.5624 N   0  0  0  0  0  0  0  0  0  0  0  0
   19.9958   -3.2572   19.2981 C   0  0  0  0  0  0  0  0  0  0  0  0
   20.1680   -3.7569   20.5495 N   0  0  0  0  0  0  0  0  0  0  0  0
   19.0900   -3.9832   21.3234 C   0  0  0  0  0  0  0  0  0  0  0  0
   17.7985   -3.7415   20.9134 C   0  0  0  0  0  0  0  0  0  0  0  0
   17.5967   -3.2516   19.6326 C   0  0  0  0  0  0  0  0  0  0  0  0
   18.7016   -2.9880   18.8340 C   0  0  0  0  0  0  0  0  0  0  0  0
   18.4802   -2.4468   17.6302 F   0  0  0  0  0  0  0  0  0  0  0  0
   21.1330   -2.8761   17.1088 C   0  0  0  0  0  0  0  0  0  0  0  0
   20.7745   -7.4135   14.8559 C   0  0  0  0  0  0  0  0  0  0  0  0
   19.9701   -8.2287   14.0087 C   0  0  0  0  0  0  0  0  0  0  0  0
   18.6183   -8.5570   14.2805 C   0  0  0  0  0  0  0  0  0  0  0  0
   17.7804   -9.3819   13.3700 C   0  0  0  0  0  0  0  0  0  0  0  0
   17.2265  -10.4771   13.9579 F   0  0  0  0  0  0  0  0  0  0  0  0
   18.4903   -9.8703   12.3066 F   0  0  0  0  0  0  0  0  0  0  0  0
   16.7523   -8.6814   12.8084 F   0  0  0  0  0  0  0  0  0  0  0  0
   18.1490   -7.9975   15.4790 C   0  0  0  0  0  0  0  0  0  0  0  0
   16.9385   -8.1144   16.0488 N   0  0  0  0  0  0  0  0  0  0  0  0
  1  2  1  0
  2  3  1  0
  3  4  2  0
  4  5  1  0
  5  6  1  0
  6  7  1  6
  6  8  1  0
  9  8  1  1
  9 10  1  0
 10 11  1  0
 11 12  1  0
 12 13  1  0
 13 14  2  0
 14 15  1  0
 15 16  2  0
 16 17  1  0
 17 18  2  0
 18 19  1  0
 12 20  1  0
  5 21  2  0
 21 22  1  0
 22 23  2  0
 23 24  1  0
 24 25  1  0
 24 26  1  0
 24 27  1  0
 23 28  1  0
 28 29  2  0
 29  2  1  0
 28  4  1  0
 20  9  1  0
 18 13  1  0
M  END
>  <energy_score>  (1076) 
-44.133138

>  <inchikey>  (1076) 
None

>  <smiles>  (1076) 
None

>  <ref_pdb>  (1076) 
A1105b

>  <alias>  (1076) 
None

>  <HIPPO Pose ID>  (1076) 
498720

>  <name>  (1076) 
P498720

>  <HIPPO Compound ID>  (1076) 
293475

>  <ref_mols>  (1076) 
A0497a,A1105b

>  <distance_score>  (1076) 
1.127458

>  <inspiration_score>  (1076) 
None

$$$$
P498721
     RDKit          3D

 29 32  0  0  0  0  0  0  0  0999 V2000
   15.6303   -7.8624   17.8148 C   0  0  0  0  0  0  0  0  0  0  0  0
   16.8950   -7.8081   17.1186 N   0  0  0  0  0  0  0  0  0  0  0  0
   18.0681   -7.3100   17.6058 C   0  0  0  0  0  0  0  0  0  0  0  0
   18.9583   -7.3882   16.5687 C   0  0  0  0  0  0  0  0  0  0  0  0
   20.2948   -6.9546   16.5755 C   0  0  0  0  0  0  0  0  0  0  0  0
   21.0721   -6.3236   17.7068 C   0  0  2  0  0  0  0  0  0  0  0  0
   22.1455   -5.5878   17.1651 O   0  0  0  0  0  0  0  0  0  0  0  0
   21.6591   -7.3162   18.5994 N   0  0  0  0  0  0  0  0  0  0  0  0
   21.8186   -6.8843   20.0078 C   0  0  1  0  0  0  0  0  0  0  0  0
   22.6191   -5.5983   20.2730 C   0  0  0  0  0  0  0  0  0  0  0  0
   21.9394   -4.9777   21.4950 C   0  0  0  0  0  0  0  0  0  0  0  0
   20.5171   -5.3396   21.3584 N   0  0  0  0  0  0  0  0  0  0  0  0
   19.7771   -4.4578   20.5262 C   0  0  0  0  0  0  0  0  0  0  0  0
   20.4088   -3.4248   19.9262 N   0  0  0  0  0  0  0  0  0  0  0  0
   19.7731   -2.7712   18.9258 C   0  0  0  0  0  0  0  0  0  0  0  0
   18.4885   -3.0607   18.5113 C   0  0  0  0  0  0  0  0  0  0  0  0
   17.7891   -4.0337   19.2027 C   0  0  0  0  0  0  0  0  0  0  0  0
   18.4348   -4.7234   20.2256 C   0  0  0  0  0  0  0  0  0  0  0  0
   17.8011   -5.7333   20.8425 F   0  0  0  0  0  0  0  0  0  0  0  0
   20.5115   -6.7225   20.8353 C   0  0  0  0  0  0  0  0  0  0  0  0
   20.8737   -7.1992   15.3002 C   0  0  0  0  0  0  0  0  0  0  0  0
   20.2006   -7.8015   14.1950 C   0  0  0  0  0  0  0  0  0  0  0  0
   18.8554   -8.2489   14.2334 C   0  0  0  0  0  0  0  0  0  0  0  0
   18.1784   -8.8614   13.0595 C   0  0  0  0  0  0  0  0  0  0  0  0
   17.3333   -8.0033   12.4165 F   0  0  0  0  0  0  0  0  0  0  0  0
   19.0652   -9.2614   12.0965 F   0  0  0  0  0  0  0  0  0  0  0  0
   17.4477   -9.9738   13.3459 F   0  0  0  0  0  0  0  0  0  0  0  0
   18.2382   -8.0087   15.4716 C   0  0  0  0  0  0  0  0  0  0  0  0
   16.9830   -8.2895   15.8655 N   0  0  0  0  0  0  0  0  0  0  0  0
  1  2  1  0
  2  3  1  0
  3  4  2  0
  4  5  1  0
  5  6  1  0
  6  7  1  6
  6  8  1  0
  9  8  1  6
  9 10  1  0
 10 11  1  0
 11 12  1  0
 12 13  1  0
 13 14  2  0
 14 15  1  0
 15 16  2  0
 16 17  1  0
 17 18  2  0
 18 19  1  0
 12 20  1  0
  5 21  2  0
 21 22  1  0
 22 23  2  0
 23 24  1  0
 24 25  1  0
 24 26  1  0
 24 27  1  0
 23 28  1  0
 28 29  2  0
 29  2  1  0
 28  4  1  0
 20  9  1  0
 18 13  1  0
M  END
>  <energy_score>  (1077) 
-60.124422

>  <inchikey>  (1077) 
None

>  <smiles>  (1077) 
None

>  <ref_pdb>  (1077) 
A1105b

>  <alias>  (1077) 
None

>  <HIPPO Pose ID>  (1077) 
498721

>  <name>  (1077) 
P498721

>  <HIPPO Compound ID>  (1077) 
293475

>  <ref_mols>  (1077) 
A0497a,A1105b

>  <distance_score>  (1077) 
0.803546

>  <inspiration_score>  (1077) 
None

$$$$
P498722
     RDKit          3D

 29 32  0  0  0  0  0  0  0  0999 V2000
   15.5456   -7.9328   17.6585 C   0  0  0  0  0  0  0  0  0  0  0  0
   16.8913   -8.0236   17.1411 N   0  0  0  0  0  0  0  0  0  0  0  0
   18.0438   -8.0671   17.8699 C   0  0  0  0  0  0  0  0  0  0  0  0
   19.0543   -8.0434   16.9436 C   0  0  0  0  0  0  0  0  0  0  0  0
   20.4348   -8.0964   17.2088 C   0  0  0  0  0  0  0  0  0  0  0  0
   21.1122   -8.5248   18.4952 C   0  0  1  0  0  0  0  0  0  0  0  0
   22.0933   -9.4969   18.1824 O   0  0  0  0  0  0  0  0  0  0  0  0
   21.8196   -7.5006   19.2393 N   0  0  0  0  0  0  0  0  0  0  0  0
   20.8780   -6.6021   19.9017 C   0  0  1  0  0  0  0  0  0  0  0  0
   20.1612   -7.1814   21.1278 C   0  0  0  0  0  0  0  0  0  0  0  0
   19.5639   -5.9436   21.8233 C   0  0  0  0  0  0  0  0  0  0  0  0
   20.2510   -4.7693   21.2309 N   0  0  0  0  0  0  0  0  0  0  0  0
   19.4597   -4.0636   20.2734 C   0  0  0  0  0  0  0  0  0  0  0  0
   20.0697   -3.6900   19.1234 N   0  0  0  0  0  0  0  0  0  0  0  0
   19.3291   -3.3023   18.0673 C   0  0  0  0  0  0  0  0  0  0  0  0
   17.9602   -3.2088   18.1061 C   0  0  0  0  0  0  0  0  0  0  0  0
   17.3326   -3.4336   19.3173 C   0  0  0  0  0  0  0  0  0  0  0  0
   18.0874   -3.8390   20.4158 C   0  0  0  0  0  0  0  0  0  0  0  0
   17.4550   -4.0687   21.5769 F   0  0  0  0  0  0  0  0  0  0  0  0
   21.4585   -5.3253   20.5512 C   0  0  0  0  0  0  0  0  0  0  0  0
   21.1545   -7.8983   15.9996 C   0  0  0  0  0  0  0  0  0  0  0  0
   20.5625   -7.8639   14.7011 C   0  0  0  0  0  0  0  0  0  0  0  0
   19.1704   -8.0021   14.4576 C   0  0  0  0  0  0  0  0  0  0  0  0
   18.6503   -8.2322   13.0824 C   0  0  0  0  0  0  0  0  0  0  0  0
   18.7664   -9.5405   12.7054 F   0  0  0  0  0  0  0  0  0  0  0  0
   19.3503   -7.5371   12.1323 F   0  0  0  0  0  0  0  0  0  0  0  0
   17.3469   -7.9083   12.8661 F   0  0  0  0  0  0  0  0  0  0  0  0
   18.4121   -8.0261   15.6401 C   0  0  0  0  0  0  0  0  0  0  0  0
   17.0810   -8.1121   15.8119 N   0  0  0  0  0  0  0  0  0  0  0  0
  1  2  1  0
  2  3  1  0
  3  4  2  0
  4  5  1  0
  5  6  1  0
  6  7  1  6
  6  8  1  0
  9  8  1  1
  9 10  1  0
 10 11  1  0
 11 12  1  0
 12 13  1  0
 13 14  2  0
 14 15  1  0
 15 16  2  0
 16 17  1  0
 17 18  2  0
 18 19  1  0
 12 20  1  0
  5 21  2  0
 21 22  1  0
 22 23  2  0
 23 24  1  0
 24 25  1  0
 24 26  1  0
 24 27  1  0
 23 28  1  0
 28 29  2  0
 29  2  1  0
 28  4  1  0
 20  9  1  0
 18 13  1  0
M  END
>  <energy_score>  (1078) 
-43.691078

>  <inchikey>  (1078) 
None

>  <smiles>  (1078) 
None

>  <ref_pdb>  (1078) 
A1105b

>  <alias>  (1078) 
None

>  <HIPPO Pose ID>  (1078) 
498722

>  <name>  (1078) 
P498722

>  <HIPPO Compound ID>  (1078) 
293475

>  <ref_mols>  (1078) 
A0497a,A1105b

>  <distance_score>  (1078) 
1.292474

>  <inspiration_score>  (1078) 
None

$$$$
P498723
     RDKit          3D

 29 32  0  0  0  0  0  0  0  0999 V2000
   15.9051   -8.2679   17.8453 C   0  0  0  0  0  0  0  0  0  0  0  0
   17.1932   -8.2192   17.1937 N   0  0  0  0  0  0  0  0  0  0  0  0
   18.4162   -8.2612   17.7949 C   0  0  0  0  0  0  0  0  0  0  0  0
   19.3290   -8.0792   16.7914 C   0  0  0  0  0  0  0  0  0  0  0  0
   20.7327   -8.0799   16.9114 C   0  0  0  0  0  0  0  0  0  0  0  0
   21.6279   -8.6261   18.0190 C   0  0  2  0  0  0  0  0  0  0  0  0
   20.9541   -9.3883   18.9977 O   0  0  0  0  0  0  0  0  0  0  0  0
   22.6546   -7.7671   18.5753 N   0  0  0  0  0  0  0  0  0  0  0  0
   22.3654   -6.8511   19.6749 C   0  0  2  0  0  0  0  0  0  0  0  0
   21.5033   -7.3082   20.8501 C   0  0  0  0  0  0  0  0  0  0  0  0
   21.1858   -5.9943   21.5570 C   0  0  0  0  0  0  0  0  0  0  0  0
   21.0366   -5.0128   20.4890 N   0  0  0  0  0  0  0  0  0  0  0  0
   19.8358   -4.4644   20.0508 C   0  0  0  0  0  0  0  0  0  0  0  0
   20.0293   -3.2826   19.4155 N   0  0  0  0  0  0  0  0  0  0  0  0
   19.1035   -2.8500   18.5406 C   0  0  0  0  0  0  0  0  0  0  0  0
   17.9425   -3.5262   18.2594 C   0  0  0  0  0  0  0  0  0  0  0  0
   17.6901   -4.6802   18.9781 C   0  0  0  0  0  0  0  0  0  0  0  0
   18.6086   -5.1341   19.9329 C   0  0  0  0  0  0  0  0  0  0  0  0
   18.1730   -6.5357   20.8388 Cl  0  0  0  0  0  0  0  0  0  0  0  0
   21.7371   -5.5065   19.2753 C   0  0  0  0  0  0  0  0  0  0  0  0
   21.3108   -7.8062   15.6383 C   0  0  0  0  0  0  0  0  0  0  0  0
   20.5881   -7.7565   14.4105 C   0  0  0  0  0  0  0  0  0  0  0  0
   19.1880   -7.9565   14.3072 C   0  0  0  0  0  0  0  0  0  0  0  0
   18.5480   -8.2269   12.9900 C   0  0  0  0  0  0  0  0  0  0  0  0
   18.6801   -9.5366   12.6232 F   0  0  0  0  0  0  0  0  0  0  0  0
   19.1283   -7.5241   11.9683 F   0  0  0  0  0  0  0  0  0  0  0  0
   17.2200   -7.9562   12.8961 F   0  0  0  0  0  0  0  0  0  0  0  0
   18.5542   -8.0420   15.5578 C   0  0  0  0  0  0  0  0  0  0  0  0
   17.2509   -8.1994   15.8502 N   0  0  0  0  0  0  0  0  0  0  0  0
  1  2  1  0
  2  3  1  0
  3  4  2  0
  4  5  1  0
  5  6  1  0
  6  7  1  1
  6  8  1  0
  9  8  1  6
  9 10  1  0
 10 11  1  0
 11 12  1  0
 12 13  1  0
 13 14  2  0
 14 15  1  0
 15 16  2  0
 16 17  1  0
 17 18  2  0
 18 19  1  0
 12 20  1  0
  5 21  2  0
 21 22  1  0
 22 23  2  0
 23 24  1  0
 24 25  1  0
 24 26  1  0
 24 27  1  0
 23 28  1  0
 28 29  2  0
 29  2  1  0
 28  4  1  0
 20  9  1  0
 18 13  1  0
M  END
>  <energy_score>  (1079) 
-33.349291

>  <inchikey>  (1079) 
None

>  <smiles>  (1079) 
None

>  <ref_pdb>  (1079) 
A1105b

>  <alias>  (1079) 
None

>  <HIPPO Pose ID>  (1079) 
498723

>  <name>  (1079) 
P498723

>  <HIPPO Compound ID>  (1079) 
293476

>  <ref_mols>  (1079) 
A0497a,A1105b

>  <distance_score>  (1079) 
1.344415

>  <inspiration_score>  (1079) 
None

$$$$
P498724
     RDKit          3D

 29 32  0  0  0  0  0  0  0  0999 V2000
   15.5480   -7.7039   17.7752 C   0  0  0  0  0  0  0  0  0  0  0  0
   16.8800   -7.8139   17.2264 N   0  0  0  0  0  0  0  0  0  0  0  0
   18.0523   -7.7799   17.9240 C   0  0  0  0  0  0  0  0  0  0  0  0
   19.0359   -7.8533   16.9717 C   0  0  0  0  0  0  0  0  0  0  0  0
   20.4202   -7.9083   17.2063 C   0  0  0  0  0  0  0  0  0  0  0  0
   21.1127   -8.2133   18.5117 C   0  0  1  0  0  0  0  0  0  0  0  0
   21.6900   -9.4988   18.3862 O   0  0  0  0  0  0  0  0  0  0  0  0
   22.2109   -7.3496   18.9004 N   0  0  0  0  0  0  0  0  0  0  0  0
   21.7504   -6.0274   19.3183 C   0  0  2  0  0  0  0  0  0  0  0  0
   22.8923   -5.1274   19.7872 C   0  0  0  0  0  0  0  0  0  0  0  0
   22.2065   -4.0443   20.6393 C   0  0  0  0  0  0  0  0  0  0  0  0
   20.8364   -4.5322   20.9440 N   0  0  0  0  0  0  0  0  0  0  0  0
   19.8461   -3.9004   20.1292 C   0  0  0  0  0  0  0  0  0  0  0  0
   20.2345   -3.4328   18.9203 N   0  0  0  0  0  0  0  0  0  0  0  0
   19.2934   -3.1304   18.0059 C   0  0  0  0  0  0  0  0  0  0  0  0
   17.9444   -3.2143   18.2550 C   0  0  0  0  0  0  0  0  0  0  0  0
   17.5400   -3.5697   19.5316 C   0  0  0  0  0  0  0  0  0  0  0  0
   18.4904   -3.9356   20.4839 C   0  0  0  0  0  0  0  0  0  0  0  0
   17.9795   -4.4401   22.0540 Cl  0  0  0  0  0  0  0  0  0  0  0  0
   20.8259   -5.9622   20.5540 C   0  0  0  0  0  0  0  0  0  0  0  0
   21.1148   -7.8946   15.9663 C   0  0  0  0  0  0  0  0  0  0  0  0
   20.4893   -7.9504   14.6851 C   0  0  0  0  0  0  0  0  0  0  0  0
   19.0857   -8.0382   14.4889 C   0  0  0  0  0  0  0  0  0  0  0  0
   18.5181   -8.3312   13.1447 C   0  0  0  0  0  0  0  0  0  0  0  0
   18.6183   -9.6550   12.8230 F   0  0  0  0  0  0  0  0  0  0  0  0
   19.1870   -7.6803   12.1424 F   0  0  0  0  0  0  0  0  0  0  0  0
   17.2100   -8.0098   12.9581 F   0  0  0  0  0  0  0  0  0  0  0  0
   18.3604   -7.9465   15.6893 C   0  0  0  0  0  0  0  0  0  0  0  0
   17.0341   -7.9991   15.9024 N   0  0  0  0  0  0  0  0  0  0  0  0
  1  2  1  0
  2  3  1  0
  3  4  2  0
  4  5  1  0
  5  6  1  0
  6  7  1  6
  6  8  1  0
  9  8  1  1
  9 10  1  0
 10 11  1  0
 11 12  1  0
 12 13  1  0
 13 14  2  0
 14 15  1  0
 15 16  2  0
 16 17  1  0
 17 18  2  0
 18 19  1  0
 12 20  1  0
  5 21  2  0
 21 22  1  0
 22 23  2  0
 23 24  1  0
 24 25  1  0
 24 26  1  0
 24 27  1  0
 23 28  1  0
 28 29  2  0
 29  2  1  0
 28  4  1  0
 20  9  1  0
 18 13  1  0
M  END
>  <energy_score>  (1080) 
-57.244189

>  <inchikey>  (1080) 
None

>  <smiles>  (1080) 
None

>  <ref_pdb>  (1080) 
A1105b

>  <alias>  (1080) 
None

>  <HIPPO Pose ID>  (1080) 
498724

>  <name>  (1080) 
P498724

>  <HIPPO Compound ID>  (1080) 
293476

>  <ref_mols>  (1080) 
A0497a,A1105b

>  <distance_score>  (1080) 
1.273935

>  <inspiration_score>  (1080) 
None

$$$$
P498725
     RDKit          3D

 29 32  0  0  0  0  0  0  0  0999 V2000
   15.6223   -8.2381   17.7150 C   0  0  0  0  0  0  0  0  0  0  0  0
   16.9304   -8.0871   17.1212 N   0  0  0  0  0  0  0  0  0  0  0  0
   18.0899   -7.7851   17.7723 C   0  0  0  0  0  0  0  0  0  0  0  0
   19.0279   -7.6299   16.7860 C   0  0  0  0  0  0  0  0  0  0  0  0
   20.3807   -7.2967   16.9665 C   0  0  0  0  0  0  0  0  0  0  0  0
   21.1443   -7.2014   18.2668 C   0  0  1  0  0  0  0  0  0  0  0  0
   22.1421   -8.2111   18.2865 O   0  0  0  0  0  0  0  0  0  0  0  0
   21.7718   -5.9162   18.4814 N   0  0  0  0  0  0  0  0  0  0  0  0
   22.4357   -5.7862   19.7989 C   0  0  1  0  0  0  0  0  0  0  0  0
   23.0171   -4.3656   19.9707 C   0  0  0  0  0  0  0  0  0  0  0  0
   22.2076   -3.7028   21.1035 C   0  0  0  0  0  0  0  0  0  0  0  0
   20.9951   -4.5342   21.2743 N   0  0  0  0  0  0  0  0  0  0  0  0
   19.9667   -4.1678   20.3555 C   0  0  0  0  0  0  0  0  0  0  0  0
   20.2200   -3.1342   19.5150 N   0  0  0  0  0  0  0  0  0  0  0  0
   19.3983   -2.9166   18.4683 C   0  0  0  0  0  0  0  0  0  0  0  0
   18.2521   -3.6355   18.2323 C   0  0  0  0  0  0  0  0  0  0  0  0
   17.9208   -4.6205   19.1461 C   0  0  0  0  0  0  0  0  0  0  0  0
   18.7588   -4.8772   20.2386 C   0  0  0  0  0  0  0  0  0  0  0  0
   18.2663   -6.0680   21.3965 Cl  0  0  0  0  0  0  0  0  0  0  0  0
   21.5024   -5.9041   21.0287 C   0  0  0  0  0  0  0  0  0  0  0  0
   21.0278   -7.2184   15.7047 C   0  0  0  0  0  0  0  0  0  0  0  0
   20.4074   -7.5262   14.4565 C   0  0  0  0  0  0  0  0  0  0  0  0
   19.0548   -7.9399   14.3186 C   0  0  0  0  0  0  0  0  0  0  0  0
   18.4954   -8.3878   13.0151 C   0  0  0  0  0  0  0  0  0  0  0  0
   18.5737   -9.7394   12.8488 F   0  0  0  0  0  0  0  0  0  0  0  0
   19.1748   -7.8625   11.9481 F   0  0  0  0  0  0  0  0  0  0  0  0
   17.1946   -8.0566   12.7903 F   0  0  0  0  0  0  0  0  0  0  0  0
   18.3601   -7.9529   15.5395 C   0  0  0  0  0  0  0  0  0  0  0  0
   17.0832   -8.2885   15.7988 N   0  0  0  0  0  0  0  0  0  0  0  0
  1  2  1  0
  2  3  1  0
  3  4  2  0
  4  5  1  0
  5  6  1  0
  6  7  1  6
  6  8  1  0
  9  8  1  6
  9 10  1  0
 10 11  1  0
 11 12  1  0
 12 13  1  0
 13 14  2  0
 14 15  1  0
 15 16  2  0
 16 17  1  0
 17 18  2  0
 18 19  1  0
 12 20  1  0
  5 21  2  0
 21 22  1  0
 22 23  2  0
 23 24  1  0
 24 25  1  0
 24 26  1  0
 24 27  1  0
 23 28  1  0
 28 29  2  0
 29  2  1  0
 28  4  1  0
 20  9  1  0
 18 13  1  0
M  END
>  <energy_score>  (1081) 
-52.072469

>  <inchikey>  (1081) 
None

>  <smiles>  (1081) 
None

>  <ref_pdb>  (1081) 
A1105b

>  <alias>  (1081) 
None

>  <HIPPO Pose ID>  (1081) 
498725

>  <name>  (1081) 
P498725

>  <HIPPO Compound ID>  (1081) 
293476

>  <ref_mols>  (1081) 
A0497a,A1105b

>  <distance_score>  (1081) 
0.976737

>  <inspiration_score>  (1081) 
None

$$$$
P498726
     RDKit          3D

 29 32  0  0  0  0  0  0  0  0999 V2000
   19.8608   -9.3499   17.2435 C   0  0  0  0  0  0  0  0  0  0  0  0
   20.1050   -7.9042   16.9394 C   0  0  0  0  0  0  0  0  0  0  0  0
   20.0916   -7.4781   15.6252 C   0  0  0  0  0  0  0  0  0  0  0  0
   20.5122   -6.1897   15.3598 C   0  0  0  0  0  0  0  0  0  0  0  0
   20.8605   -5.3516   16.4122 C   0  0  0  0  0  0  0  0  0  0  0  0
   20.7384   -5.7932   17.7280 C   0  0  0  0  0  0  0  0  0  0  0  0
   20.8974   -4.9260   18.8131 N   0  0  0  0  0  0  0  0  0  0  0  0
   20.6150   -3.4876   18.6332 C   0  0  0  0  0  0  0  0  0  0  0  0
   19.9360   -3.0465   19.9311 C   0  0  0  0  0  0  0  0  0  0  0  0
   19.2456   -4.3078   20.4444 C   0  0  1  0  0  0  0  0  0  0  0  0
   17.8532   -4.5454   20.0043 N   0  0  0  0  0  0  0  0  0  0  0  0
   17.5833   -4.4703   18.5725 C   0  0  2  0  0  0  0  0  0  0  0  0
   17.4405   -3.0985   18.2794 O   0  0  0  0  0  0  0  0  0  0  0  0
   16.3809   -5.2869   18.1393 C   0  0  0  0  0  0  0  0  0  0  0  0
   15.1661   -4.7760   17.5923 C   0  0  0  0  0  0  0  0  0  0  0  0
   14.1005   -5.5856   17.0546 C   0  0  0  0  0  0  0  0  0  0  0  0
   14.1381   -7.0044   16.9897 C   0  0  0  0  0  0  0  0  0  0  0  0
   13.2021   -7.8998   16.2647 C   0  0  0  0  0  0  0  0  0  0  0  0
   13.8249   -8.9100   15.5845 F   0  0  0  0  0  0  0  0  0  0  0  0
   12.5057   -7.2519   15.2895 F   0  0  0  0  0  0  0  0  0  0  0  0
   12.2763   -8.5050   17.0527 F   0  0  0  0  0  0  0  0  0  0  0  0
   15.2434   -7.5284   17.6564 C   0  0  0  0  0  0  0  0  0  0  0  0
   15.5303   -8.8186   17.9028 N   0  0  0  0  0  0  0  0  0  0  0  0
   16.6392   -8.7794   18.6494 N   0  0  0  0  0  0  0  0  0  0  0  0
   17.1013   -9.9928   19.2776 C   0  0  0  0  0  0  0  0  0  0  0  0
   17.1783   -7.5379   18.7751 C   0  0  0  0  0  0  0  0  0  0  0  0
   16.2908   -6.6882   18.1735 C   0  0  0  0  0  0  0  0  0  0  0  0
   20.2938   -5.3832   20.0757 C   0  0  0  0  0  0  0  0  0  0  0  0
   20.4315   -7.0902   17.9723 N   0  0  0  0  0  0  0  0  0  0  0  0
  1  2  1  0
  2  3  2  0
  3  4  1  0
  4  5  2  0
  5  6  1  0
  6  7  1  0
  7  8  1  0
  8  9  1  0
  9 10  1  0
 10 11  1  6
 11 12  1  0
 12 13  1  1
 12 14  1  0
 14 15  2  0
 15 16  1  0
 16 17  2  0
 17 18  1  0
 18 19  1  0
 18 20  1  0
 18 21  1  0
 17 22  1  0
 22 23  2  0
 23 24  1  0
 24 25  1  0
 24 26  1  0
 26 27  2  0
 10 28  1  0
  6 29  2  0
 29  2  1  0
 28  7  1  0
 27 14  1  0
 27 22  1  0
M  END
>  <energy_score>  (1082) 
-31.910294

>  <inchikey>  (1082) 
None

>  <smiles>  (1082) 
None

>  <ref_pdb>  (1082) 
A1105b

>  <alias>  (1082) 
None

>  <HIPPO Pose ID>  (1082) 
498726

>  <name>  (1082) 
P498726

>  <HIPPO Compound ID>  (1082) 
293477

>  <ref_mols>  (1082) 
A0497a,A1105b

>  <distance_score>  (1082) 
1.640967

>  <inspiration_score>  (1082) 
None

$$$$
P498727
     RDKit          3D

 29 32  0  0  0  0  0  0  0  0999 V2000
   19.3378   -8.4657   17.6587 C   0  0  0  0  0  0  0  0  0  0  0  0
   19.8697   -7.1358   17.2616 C   0  0  0  0  0  0  0  0  0  0  0  0
   20.1163   -6.8614   15.9308 C   0  0  0  0  0  0  0  0  0  0  0  0
   20.7777   -5.6857   15.6287 C   0  0  0  0  0  0  0  0  0  0  0  0
   21.1185   -4.8072   16.6534 C   0  0  0  0  0  0  0  0  0  0  0  0
   20.7609   -5.0956   17.9692 C   0  0  0  0  0  0  0  0  0  0  0  0
   20.9495   -4.1548   19.0071 N   0  0  0  0  0  0  0  0  0  0  0  0
   20.3665   -2.8267   18.6858 C   0  0  0  0  0  0  0  0  0  0  0  0
   19.3077   -2.5601   19.7624 C   0  0  0  0  0  0  0  0  0  0  0  0
   18.9357   -3.9398   20.3016 C   0  0  1  0  0  0  0  0  0  0  0  0
   18.0211   -4.7991   19.5327 N   0  0  0  0  0  0  0  0  0  0  0  0
   17.0265   -4.1879   18.6797 C   0  0  1  0  0  0  0  0  0  0  0  0
   17.6492   -3.4789   17.6353 O   0  0  0  0  0  0  0  0  0  0  0  0
   16.0342   -5.1848   18.0968 C   0  0  0  0  0  0  0  0  0  0  0  0
   14.8444   -4.7148   17.4710 C   0  0  0  0  0  0  0  0  0  0  0  0
   13.8429   -5.5554   16.8771 C   0  0  0  0  0  0  0  0  0  0  0  0
   13.9268   -6.9718   16.8058 C   0  0  0  0  0  0  0  0  0  0  0  0
   13.0615   -7.8996   16.0292 C   0  0  0  0  0  0  0  0  0  0  0  0
   12.1100   -8.5338   16.7626 F   0  0  0  0  0  0  0  0  0  0  0  0
   12.3997   -7.2842   15.0077 F   0  0  0  0  0  0  0  0  0  0  0  0
   13.7598   -8.8903   15.3945 F   0  0  0  0  0  0  0  0  0  0  0  0
   14.9886   -7.4613   17.5614 C   0  0  0  0  0  0  0  0  0  0  0  0
   15.2652   -8.7443   17.8509 N   0  0  0  0  0  0  0  0  0  0  0  0
   16.2329   -8.6733   18.7673 N   0  0  0  0  0  0  0  0  0  0  0  0
   16.6293   -9.8724   19.4648 C   0  0  0  0  0  0  0  0  0  0  0  0
   16.7383   -7.4211   18.9382 C   0  0  0  0  0  0  0  0  0  0  0  0
   15.9762   -6.5920   18.1572 C   0  0  0  0  0  0  0  0  0  0  0  0
   20.3616   -4.5672   20.3090 C   0  0  0  0  0  0  0  0  0  0  0  0
   20.1784   -6.2795   18.2615 N   0  0  0  0  0  0  0  0  0  0  0  0
  1  2  1  0
  2  3  2  0
  3  4  1  0
  4  5  2  0
  5  6  1  0
  6  7  1  0
  7  8  1  0
  8  9  1  0
  9 10  1  0
 10 11  1  6
 11 12  1  0
 12 13  1  6
 12 14  1  0
 14 15  2  0
 15 16  1  0
 16 17  2  0
 17 18  1  0
 18 19  1  0
 18 20  1  0
 18 21  1  0
 17 22  1  0
 22 23  2  0
 23 24  1  0
 24 25  1  0
 24 26  1  0
 26 27  2  0
 10 28  1  0
  6 29  2  0
 29  2  1  0
 28  7  1  0
 27 14  1  0
 27 22  1  0
M  END
>  <energy_score>  (1083) 
-34.665614

>  <inchikey>  (1083) 
None

>  <smiles>  (1083) 
None

>  <ref_pdb>  (1083) 
A1105b

>  <alias>  (1083) 
None

>  <HIPPO Pose ID>  (1083) 
498727

>  <name>  (1083) 
P498727

>  <HIPPO Compound ID>  (1083) 
293477

>  <ref_mols>  (1083) 
A0497a,A1105b

>  <distance_score>  (1083) 
1.575395

>  <inspiration_score>  (1083) 
None

$$$$
P498728
     RDKit          3D

 29 32  0  0  0  0  0  0  0  0999 V2000
   17.8054   -8.4114   19.5281 C   0  0  0  0  0  0  0  0  0  0  0  0
   19.0685   -7.7756   19.0554 C   0  0  0  0  0  0  0  0  0  0  0  0
   19.8810   -8.3420   18.0875 C   0  0  0  0  0  0  0  0  0  0  0  0
   20.9903   -7.6255   17.6485 C   0  0  0  0  0  0  0  0  0  0  0  0
   21.2934   -6.4035   18.2422 C   0  0  0  0  0  0  0  0  0  0  0  0
   20.4836   -5.9258   19.2722 C   0  0  0  0  0  0  0  0  0  0  0  0
   20.7953   -4.7261   19.9463 N   0  0  0  0  0  0  0  0  0  0  0  0
   20.8181   -3.5583   19.0294 C   0  0  0  0  0  0  0  0  0  0  0  0
   19.8483   -2.5454   19.6432 C   0  0  0  0  0  0  0  0  0  0  0  0
   18.8362   -3.4050   20.3963 C   0  0  1  0  0  0  0  0  0  0  0  0
   17.8380   -4.1671   19.6355 N   0  0  0  0  0  0  0  0  0  0  0  0
   17.2749   -3.5982   18.4252 C   0  0  1  0  0  0  0  0  0  0  0  0
   18.2635   -3.2792   17.4785 O   0  0  0  0  0  0  0  0  0  0  0  0
   16.3000   -4.5976   17.8641 C   0  0  0  0  0  0  0  0  0  0  0  0
   14.9084   -4.4103   17.9589 C   0  0  0  0  0  0  0  0  0  0  0  0
   13.9514   -5.4382   17.6988 C   0  0  0  0  0  0  0  0  0  0  0  0
   14.2669   -6.7779   17.3366 C   0  0  0  0  0  0  0  0  0  0  0  0
   13.3127   -7.9093   17.2464 C   0  0  0  0  0  0  0  0  0  0  0  0
   13.8706   -9.1358   17.0250 F   0  0  0  0  0  0  0  0  0  0  0  0
   12.5815   -8.0766   18.3831 F   0  0  0  0  0  0  0  0  0  0  0  0
   12.4167   -7.7528   16.2320 F   0  0  0  0  0  0  0  0  0  0  0  0
   15.6204   -6.9172   17.0492 C   0  0  0  0  0  0  0  0  0  0  0  0
   16.2607   -7.9502   16.4723 N   0  0  0  0  0  0  0  0  0  0  0  0
   17.4725   -7.4598   16.1773 N   0  0  0  0  0  0  0  0  0  0  0  0
   18.2871   -8.1420   15.2013 C   0  0  0  0  0  0  0  0  0  0  0  0
   17.7467   -6.2673   16.7747 C   0  0  0  0  0  0  0  0  0  0  0  0
   16.5589   -5.8595   17.3158 C   0  0  0  0  0  0  0  0  0  0  0  0
   19.8481   -4.3899   21.0467 C   0  0  0  0  0  0  0  0  0  0  0  0
   19.3705   -6.6028   19.6372 N   0  0  0  0  0  0  0  0  0  0  0  0
  1  2  1  0
  2  3  2  0
  3  4  1  0
  4  5  2  0
  5  6  1  0
  6  7  1  0
  7  8  1  0
  8  9  1  0
  9 10  1  0
 10 11  1  6
 11 12  1  0
 12 13  1  6
 12 14  1  0
 14 15  2  0
 15 16  1  0
 16 17  2  0
 17 18  1  0
 18 19  1  0
 18 20  1  0
 18 21  1  0
 17 22  1  0
 22 23  2  0
 23 24  1  0
 24 25  1  0
 24 26  1  0
 26 27  2  0
 10 28  1  0
  6 29  2  0
 29  2  1  0
 28  7  1  0
 27 14  1  0
 27 22  1  0
M  END
>  <energy_score>  (1084) 
-33.099593

>  <inchikey>  (1084) 
None

>  <smiles>  (1084) 
None

>  <ref_pdb>  (1084) 
A1105b

>  <alias>  (1084) 
None

>  <HIPPO Pose ID>  (1084) 
498728

>  <name>  (1084) 
P498728

>  <HIPPO Compound ID>  (1084) 
293477

>  <ref_mols>  (1084) 
A0497a,A1105b

>  <distance_score>  (1084) 
1.960169

>  <inspiration_score>  (1084) 
None

$$$$
P498729
     RDKit          3D

 29 32  0  0  0  0  0  0  0  0999 V2000
   18.4916   -8.3583   16.6662 C   0  0  0  0  0  0  0  0  0  0  0  0
   19.3927   -7.1808   16.5675 C   0  0  0  0  0  0  0  0  0  0  0  0
   19.9169   -6.8414   15.3345 C   0  0  0  0  0  0  0  0  0  0  0  0
   20.8228   -5.8019   15.2743 C   0  0  0  0  0  0  0  0  0  0  0  0
   21.1390   -5.1144   16.4367 C   0  0  0  0  0  0  0  0  0  0  0  0
   20.5303   -5.4554   17.6460 C   0  0  0  0  0  0  0  0  0  0  0  0
   20.8377   -4.7202   18.8057 N   0  0  0  0  0  0  0  0  0  0  0  0
   20.7101   -3.2548   18.6641 C   0  0  0  0  0  0  0  0  0  0  0  0
   19.8139   -2.7756   19.8113 C   0  0  0  0  0  0  0  0  0  0  0  0
   19.1188   -4.0227   20.3416 C   0  0  1  0  0  0  0  0  0  0  0  0
   17.7107   -4.2666   20.0086 N   0  0  0  0  0  0  0  0  0  0  0  0
   17.1621   -3.9663   18.6840 C   0  0  1  0  0  0  0  0  0  0  0  0
   18.1142   -3.6343   17.7180 O   0  0  0  0  0  0  0  0  0  0  0  0
   16.1646   -4.9923   18.1697 C   0  0  0  0  0  0  0  0  0  0  0  0
   14.9685   -4.5731   17.5162 C   0  0  0  0  0  0  0  0  0  0  0  0
   13.9746   -5.4549   16.9688 C   0  0  0  0  0  0  0  0  0  0  0  0
   14.0664   -6.8707   16.9978 C   0  0  0  0  0  0  0  0  0  0  0  0
   13.2115   -7.8473   16.2771 C   0  0  0  0  0  0  0  0  0  0  0  0
   12.5091   -7.2824   15.2538 F   0  0  0  0  0  0  0  0  0  0  0  0
   13.9253   -8.8369   15.6580 F   0  0  0  0  0  0  0  0  0  0  0  0
   12.2962   -8.4847   17.0523 F   0  0  0  0  0  0  0  0  0  0  0  0
   15.1281   -7.3051   17.7876 C   0  0  0  0  0  0  0  0  0  0  0  0
   15.4000   -8.5613   18.1851 N   0  0  0  0  0  0  0  0  0  0  0  0
   16.4130   -8.4230   19.0484 N   0  0  0  0  0  0  0  0  0  0  0  0
   16.8615   -9.5696   19.8001 C   0  0  0  0  0  0  0  0  0  0  0  0
   16.9333   -7.1663   19.0954 C   0  0  0  0  0  0  0  0  0  0  0  0
   16.1250   -6.3931   18.3030 C   0  0  0  0  0  0  0  0  0  0  0  0
   20.1320   -5.1382   20.0159 C   0  0  0  0  0  0  0  0  0  0  0  0
   19.6832   -6.5123   17.7054 N   0  0  0  0  0  0  0  0  0  0  0  0
  1  2  1  0
  2  3  2  0
  3  4  1  0
  4  5  2  0
  5  6  1  0
  6  7  1  0
  7  8  1  0
  8  9  1  0
  9 10  1  0
 10 11  1  6
 11 12  1  0
 12 13  1  6
 12 14  1  0
 14 15  2  0
 15 16  1  0
 16 17  2  0
 17 18  1  0
 18 19  1  0
 18 20  1  0
 18 21  1  0
 17 22  1  0
 22 23  2  0
 23 24  1  0
 24 25  1  0
 24 26  1  0
 26 27  2  0
 10 28  1  0
  6 29  2  0
 29  2  1  0
 28  7  1  0
 27 14  1  0
 27 22  1  0
M  END
>  <energy_score>  (1085) 
-15.468476

>  <inchikey>  (1085) 
None

>  <smiles>  (1085) 
None

>  <ref_pdb>  (1085) 
A1105b

>  <alias>  (1085) 
None

>  <HIPPO Pose ID>  (1085) 
498729

>  <name>  (1085) 
P498729

>  <HIPPO Compound ID>  (1085) 
293477

>  <ref_mols>  (1085) 
A0497a,A1105b

>  <distance_score>  (1085) 
1.907724

>  <inspiration_score>  (1085) 
None

$$$$
P498730
     RDKit          3D

 30 34  0  0  0  0  0  0  0  0999 V2000
   15.6357   -7.2715   17.6265 C   0  0  0  0  0  0  0  0  0  0  0  0
   16.9052   -7.3910   16.9488 N   0  0  0  0  0  0  0  0  0  0  0  0
   18.0643   -6.7509   17.2794 C   0  0  0  0  0  0  0  0  0  0  0  0
   18.9935   -7.1666   16.3616 C   0  0  0  0  0  0  0  0  0  0  0  0
   20.3487   -6.7904   16.2804 C   0  0  0  0  0  0  0  0  0  0  0  0
   21.1486   -5.8502   17.1591 C   0  0  2  0  0  0  0  0  0  0  0  0
   22.1426   -5.2212   16.3481 O   0  0  0  0  0  0  0  0  0  0  0  0
   21.7996   -6.5176   18.2947 N   0  0  0  0  0  0  0  0  0  0  0  0
   20.8579   -6.7123   19.4307 C   0  0  0  0  0  0  0  0  0  0  0  0
   21.4973   -5.9203   20.5986 C   0  0  1  0  0  0  0  0  0  0  0  0
   22.9612   -6.2631   20.3236 C   0  0  0  0  0  0  0  0  0  0  0  0
   22.8915   -5.6821   18.9120 C   0  0  2  0  0  0  0  0  0  0  0  0
   22.4831   -4.2220   19.2831 C   0  0  0  0  0  0  0  0  0  0  0  0
   21.4545   -4.4356   20.3489 N   0  0  0  0  0  0  0  0  0  0  0  0
   20.1896   -3.9123   20.0576 C   0  0  0  0  0  0  0  0  0  0  0  0
   19.1135   -4.1129   20.9087 C   0  0  0  0  0  0  0  0  0  0  0  0
   17.8307   -3.7937   20.4687 C   0  0  0  0  0  0  0  0  0  0  0  0
   17.6394   -3.3595   19.1674 C   0  0  0  0  0  0  0  0  0  0  0  0
   15.9344   -3.3362   18.3802 Br  0  0  0  0  0  0  0  0  0  0  0  0
   18.7546   -3.0580   18.4305 C   0  0  0  0  0  0  0  0  0  0  0  0
   20.0055   -3.2740   18.8856 N   0  0  0  0  0  0  0  0  0  0  0  0
   20.9426   -7.4095   15.1457 C   0  0  0  0  0  0  0  0  0  0  0  0
   20.2585   -8.2404   14.2101 C   0  0  0  0  0  0  0  0  0  0  0  0
   18.8901   -8.5889   14.3167 C   0  0  0  0  0  0  0  0  0  0  0  0
   18.1778   -9.4237   13.3137 C   0  0  0  0  0  0  0  0  0  0  0  0
   17.6021  -10.5444   13.8298 F   0  0  0  0  0  0  0  0  0  0  0  0
   19.0068   -9.8751   12.3228 F   0  0  0  0  0  0  0  0  0  0  0  0
   17.1889   -8.7474   12.6590 F   0  0  0  0  0  0  0  0  0  0  0  0
   18.2728   -8.0366   15.4488 C   0  0  0  0  0  0  0  0  0  0  0  0
   17.0067   -8.1893   15.8726 N   0  0  0  0  0  0  0  0  0  0  0  0
  1  2  1  0
  2  3  1  0
  3  4  2  0
  4  5  1  0
  5  6  1  0
  6  7  1  6
  6  8  1  0
  8  9  1  0
 10  9  1  6
 10 11  1  0
 11 12  1  0
 12 13  1  1
 13 14  1  0
 14 15  1  0
 15 16  2  0
 16 17  1  0
 17 18  2  0
 18 19  1  0
 18 20  1  0
 20 21  2  0
  5 22  2  0
 22 23  1  0
 23 24  2  0
 24 25  1  0
 25 26  1  0
 25 27  1  0
 25 28  1  0
 24 29  1  0
 29 30  2  0
 30  2  1  0
 29  4  1  0
 12  8  1  0
 21 15  1  0
 14 10  1  0
M  END
>  <energy_score>  (1086) 
-42.805269

>  <inchikey>  (1086) 
None

>  <smiles>  (1086) 
None

>  <ref_pdb>  (1086) 
A1105b

>  <alias>  (1086) 
None

>  <HIPPO Pose ID>  (1086) 
498730

>  <name>  (1086) 
P498730

>  <HIPPO Compound ID>  (1086) 
293478

>  <ref_mols>  (1086) 
A0497a,A1105b

>  <distance_score>  (1086) 
1.361774

>  <inspiration_score>  (1086) 
None

$$$$
P498731
     RDKit          3D

 30 34  0  0  0  0  0  0  0  0999 V2000
   16.3237   -7.4449   18.3048 C   0  0  0  0  0  0  0  0  0  0  0  0
   17.3860   -7.5520   17.3349 N   0  0  0  0  0  0  0  0  0  0  0  0
   18.6929   -7.2020   17.5148 C   0  0  0  0  0  0  0  0  0  0  0  0
   19.2953   -7.4381   16.3060 C   0  0  0  0  0  0  0  0  0  0  0  0
   20.6472   -7.2231   15.9830 C   0  0  0  0  0  0  0  0  0  0  0  0
   21.7793   -6.7926   16.8821 C   0  0  1  0  0  0  0  0  0  0  0  0
   23.0355   -7.0326   16.2739 O   0  0  0  0  0  0  0  0  0  0  0  0
   21.6838   -5.4273   17.2663 N   0  0  0  0  0  0  0  0  0  0  0  0
   22.3572   -4.9383   18.4657 C   0  0  0  0  0  0  0  0  0  0  0  0
   22.3287   -3.4030   18.2019 C   0  0  1  0  0  0  0  0  0  0  0  0
   22.7907   -3.4244   16.7381 C   0  0  0  0  0  0  0  0  0  0  0  0
   21.6301   -4.3172   16.3049 C   0  0  2  0  0  0  0  0  0  0  0  0
   20.4406   -3.4283   16.7612 C   0  0  0  0  0  0  0  0  0  0  0  0
   20.9241   -2.8803   18.0630 N   0  0  0  0  0  0  0  0  0  0  0  0
   20.1131   -3.1197   19.1714 C   0  0  0  0  0  0  0  0  0  0  0  0
   18.7200   -3.1433   19.0883 C   0  0  0  0  0  0  0  0  0  0  0  0
   17.9692   -3.5900   20.1771 C   0  0  0  0  0  0  0  0  0  0  0  0
   18.6325   -3.9835   21.3279 C   0  0  0  0  0  0  0  0  0  0  0  0
   17.7953   -4.7098   22.8399 Br  0  0  0  0  0  0  0  0  0  0  0  0
   19.9973   -3.8225   21.3763 C   0  0  0  0  0  0  0  0  0  0  0  0
   20.7326   -3.3749   20.3445 N   0  0  0  0  0  0  0  0  0  0  0  0
   20.8616   -7.5127   14.6108 C   0  0  0  0  0  0  0  0  0  0  0  0
   19.8687   -8.0034   13.7172 C   0  0  0  0  0  0  0  0  0  0  0  0
   18.5240   -8.2638   14.0878 C   0  0  0  0  0  0  0  0  0  0  0  0
   17.5406   -8.7801   13.0975 C   0  0  0  0  0  0  0  0  0  0  0  0
   17.9601   -9.9407   12.5120 F   0  0  0  0  0  0  0  0  0  0  0  0
   16.2896   -9.0367   13.5634 F   0  0  0  0  0  0  0  0  0  0  0  0
   17.3659   -7.9054   12.0577 F   0  0  0  0  0  0  0  0  0  0  0  0
   18.2567   -7.9469   15.4284 C   0  0  0  0  0  0  0  0  0  0  0  0
   17.1098   -8.0547   16.1187 N   0  0  0  0  0  0  0  0  0  0  0  0
  1  2  1  0
  2  3  1  0
  3  4  2  0
  4  5  1  0
  5  6  1  0
  6  7  1  6
  6  8  1  0
  8  9  1  0
 10  9  1  6
 10 11  1  0
 11 12  1  0
 12 13  1  1
 13 14  1  0
 14 15  1  0
 15 16  2  0
 16 17  1  0
 17 18  2  0
 18 19  1  0
 18 20  1  0
 20 21  2  0
  5 22  2  0
 22 23  1  0
 23 24  2  0
 24 25  1  0
 25 26  1  0
 25 27  1  0
 25 28  1  0
 24 29  1  0
 29 30  2  0
 30  2  1  0
 29  4  1  0
 12  8  1  0
 21 15  1  0
 14 10  1  0
M  END
>  <energy_score>  (1087) 
-45.108807

>  <inchikey>  (1087) 
None

>  <smiles>  (1087) 
None

>  <ref_pdb>  (1087) 
A1105b

>  <alias>  (1087) 
None

>  <HIPPO Pose ID>  (1087) 
498731

>  <name>  (1087) 
P498731

>  <HIPPO Compound ID>  (1087) 
293478

>  <ref_mols>  (1087) 
A0497a,A1105b

>  <distance_score>  (1087) 
1.439064

>  <inspiration_score>  (1087) 
None

$$$$
P498732
     RDKit          3D

 30 34  0  0  0  0  0  0  0  0999 V2000
   15.1710   -9.0983   16.8862 C   0  0  0  0  0  0  0  0  0  0  0  0
   16.5678   -8.7818   16.7029 N   0  0  0  0  0  0  0  0  0  0  0  0
   17.5475   -8.8390   17.6474 C   0  0  0  0  0  0  0  0  0  0  0  0
   18.6636   -8.3270   17.0402 C   0  0  0  0  0  0  0  0  0  0  0  0
   19.9333   -8.1870   17.6240 C   0  0  0  0  0  0  0  0  0  0  0  0
   20.4424   -8.8836   18.8791 C   0  0  1  0  0  0  0  0  0  0  0  0
   21.7995   -9.2804   18.6781 O   0  0  0  0  0  0  0  0  0  0  0  0
   20.3536   -8.2838   20.1761 N   0  0  0  0  0  0  0  0  0  0  0  0
   20.9832   -6.9958   20.4637 C   0  0  0  0  0  0  0  0  0  0  0  0
   20.0933   -6.4793   21.6507 C   0  0  2  0  0  0  0  0  0  0  0  0
   19.7016   -7.8113   22.3004 C   0  0  0  0  0  0  0  0  0  0  0  0
   19.1419   -8.3617   20.9881 C   0  0  1  0  0  0  0  0  0  0  0  0
   18.1051   -7.2564   20.6628 C   0  0  0  0  0  0  0  0  0  0  0  0
   18.7553   -6.0129   21.1372 N   0  0  0  0  0  0  0  0  0  0  0  0
   18.9015   -4.9330   20.2618 C   0  0  0  0  0  0  0  0  0  0  0  0
   18.1341   -4.7989   19.1065 C   0  0  0  0  0  0  0  0  0  0  0  0
   18.6030   -4.0081   18.0623 C   0  0  0  0  0  0  0  0  0  0  0  0
   19.7994   -3.3369   18.2238 C   0  0  0  0  0  0  0  0  0  0  0  0
   20.7716   -2.6463   16.7699 Br  0  0  0  0  0  0  0  0  0  0  0  0
   20.3761   -3.3320   19.4737 C   0  0  0  0  0  0  0  0  0  0  0  0
   19.9356   -4.0933   20.4956 N   0  0  0  0  0  0  0  0  0  0  0  0
   20.8134   -7.5933   16.6712 C   0  0  0  0  0  0  0  0  0  0  0  0
   20.5077   -7.4075   15.2849 C   0  0  0  0  0  0  0  0  0  0  0  0
   19.2658   -7.7579   14.6940 C   0  0  0  0  0  0  0  0  0  0  0  0
   19.1102   -7.8998   13.2190 C   0  0  0  0  0  0  0  0  0  0  0  0
   19.5151   -9.1352   12.7921 F   0  0  0  0  0  0  0  0  0  0  0  0
   19.8889   -7.0250   12.5110 F   0  0  0  0  0  0  0  0  0  0  0  0
   17.8482   -7.7499   12.7259 F   0  0  0  0  0  0  0  0  0  0  0  0
   18.3067   -8.1389   15.6443 C   0  0  0  0  0  0  0  0  0  0  0  0
   17.0181   -8.4825   15.4738 N   0  0  0  0  0  0  0  0  0  0  0  0
  1  2  1  0
  2  3  1  0
  3  4  2  0
  4  5  1  0
  5  6  1  0
  6  7  1  6
  6  8  1  0
  8  9  1  0
 10  9  1  6
 10 11  1  0
 11 12  1  0
 12 13  1  6
 13 14  1  0
 14 15  1  0
 15 16  2  0
 16 17  1  0
 17 18  2  0
 18 19  1  0
 18 20  1  0
 20 21  2  0
  5 22  2  0
 22 23  1  0
 23 24  2  0
 24 25  1  0
 25 26  1  0
 25 27  1  0
 25 28  1  0
 24 29  1  0
 29 30  2  0
 30  2  1  0
 29  4  1  0
 12  8  1  0
 21 15  1  0
 14 10  1  0
M  END
>  <energy_score>  (1088) 
-17.285296

>  <inchikey>  (1088) 
None

>  <smiles>  (1088) 
None

>  <ref_pdb>  (1088) 
A1105b

>  <alias>  (1088) 
None

>  <HIPPO Pose ID>  (1088) 
498732

>  <name>  (1088) 
P498732

>  <HIPPO Compound ID>  (1088) 
293478

>  <ref_mols>  (1088) 
A0497a,A1105b

>  <distance_score>  (1088) 
1.674581

>  <inspiration_score>  (1088) 
None

$$$$
P498733
     RDKit          3D

 30 34  0  0  0  0  0  0  0  0999 V2000
   15.8788   -7.1366   17.6166 C   0  0  0  0  0  0  0  0  0  0  0  0
   17.0842   -7.3559   16.8521 N   0  0  0  0  0  0  0  0  0  0  0  0
   18.1875   -6.5515   16.8168 C   0  0  0  0  0  0  0  0  0  0  0  0
   19.0205   -7.1141   15.8865 C   0  0  0  0  0  0  0  0  0  0  0  0
   20.2586   -6.6204   15.4339 C   0  0  0  0  0  0  0  0  0  0  0  0
   20.9695   -5.3580   15.8198 C   0  0  0  0  0  0  0  0  0  0  0  0
   22.1466   -5.6306   16.6484 N   0  0  0  0  0  0  0  0  0  0  0  0
   22.5335   -4.5577   17.5752 C   0  0  0  0  0  0  0  0  0  0  0  0
   23.2907   -3.3745   16.9314 C   0  0  0  0  0  0  0  0  0  0  0  0
   23.2600   -2.1339   17.8595 C   0  0  0  0  0  0  0  0  0  0  0  0
   21.8917   -1.6644   18.1428 N   0  0  0  0  0  0  0  0  0  0  0  0
   21.7234   -0.8730   19.3867 C   0  0  2  0  0  0  0  0  0  0  0  0
   22.3262   -1.4430   20.6912 C   0  0  0  0  0  0  0  0  0  0  0  0
   21.2943   -1.1363   21.7818 C   0  0  0  0  0  0  0  0  0  0  0  0
   19.9966   -1.1661   21.0838 N   0  0  0  0  0  0  0  0  0  0  0  0
   19.4490   -2.4603   20.9551 C   0  0  0  0  0  0  0  0  0  0  0  0
   18.3260   -2.7136   20.1575 C   0  0  0  0  0  0  0  0  0  0  0  0
   17.9106   -4.0300   19.9245 C   0  0  0  0  0  0  0  0  0  0  0  0
   18.5633   -5.0662   20.5749 C   0  0  0  0  0  0  0  0  0  0  0  0
   18.1576   -6.7165   20.3547 Cl  0  0  0  0  0  0  0  0  0  0  0  0
   19.5957   -4.7379   21.4239 C   0  0  0  0  0  0  0  0  0  0  0  0
   20.0440   -3.4778   21.6136 N   0  0  0  0  0  0  0  0  0  0  0  0
   20.2638   -0.4768   19.8065 C   0  0  0  0  0  0  0  0  0  0  0  0
   20.8949   -2.7046   17.9032 C   0  0  0  0  0  0  0  0  0  0  0  0
   21.3527   -4.0646   18.4119 C   0  0  0  0  0  0  0  0  0  0  0  0
   20.7914   -7.4642   14.4288 C   0  0  0  0  0  0  0  0  0  0  0  0
   20.1450   -8.6327   13.9319 C   0  0  0  0  0  0  0  0  0  0  0  0
   18.8933   -9.0853   14.3941 C   0  0  0  0  0  0  0  0  0  0  0  0
   18.3313   -8.2870   15.4011 C   0  0  0  0  0  0  0  0  0  0  0  0
   17.1542   -8.4268   16.0349 N   0  0  0  0  0  0  0  0  0  0  0  0
  1  2  1  0
  2  3  1  0
  3  4  2  0
  4  5  1  0
  5  6  1  0
  6  7  1  0
  7  8  1  0
  8  9  1  0
  9 10  1  0
 10 11  1  0
 12 11  1  6
 12 13  1  0
 13 14  1  0
 14 15  1  0
 15 16  1  0
 16 17  2  0
 17 18  1  0
 18 19  2  0
 19 20  1  0
 19 21  1  0
 21 22  2  0
 15 23  1  0
 11 24  1  0
 24 25  1  0
  5 26  2  0
 26 27  1  0
 27 28  2  0
 28 29  1  0
 29 30  2  0
 30  2  1  0
 29  4  1  0
 25  8  1  0
 23 12  1  0
 22 16  1  0
M  END
>  <energy_score>  (1089) 
-29.932622

>  <inchikey>  (1089) 
None

>  <smiles>  (1089) 
None

>  <ref_pdb>  (1089) 
A1105b

>  <alias>  (1089) 
None

>  <HIPPO Pose ID>  (1089) 
498733

>  <name>  (1089) 
P498733

>  <HIPPO Compound ID>  (1089) 
293479

>  <ref_mols>  (1089) 
A0497a,A1105b

>  <distance_score>  (1089) 
1.318077

>  <inspiration_score>  (1089) 
None

$$$$
P498734
     RDKit          3D

 30 33  0  0  0  0  0  0  0  0999 V2000
   15.8868   -8.0176   18.2492 C   0  0  0  0  0  0  0  0  0  0  0  0
   17.0603   -7.8904   17.4173 N   0  0  0  0  0  0  0  0  0  0  0  0
   18.3105   -7.5072   17.8168 C   0  0  0  0  0  0  0  0  0  0  0  0
   19.0810   -7.5009   16.6809 C   0  0  0  0  0  0  0  0  0  0  0  0
   20.4461   -7.1711   16.5443 C   0  0  0  0  0  0  0  0  0  0  0  0
   21.5356   -6.7982   17.5343 C   0  0  2  0  0  0  0  0  0  0  0  0
   22.6447   -7.6343   17.2530 O   0  0  0  0  0  0  0  0  0  0  0  0
   21.2066   -7.0099   18.9311 N   0  0  0  0  0  0  0  0  0  0  0  0
   22.2720   -6.5126   19.8392 C   0  0  2  0  0  0  0  0  0  0  0  0
   21.9499   -6.9672   21.2637 C   0  0  0  0  0  0  0  0  0  0  0  0
   20.8902   -5.9711   21.7423 C   0  0  0  0  0  0  0  0  0  0  0  0
   21.1285   -4.7279   20.9670 N   0  0  0  0  0  0  0  0  0  0  0  0
   19.9610   -4.2804   20.3137 C   0  0  0  0  0  0  0  0  0  0  0  0
   19.9420   -4.3352   18.9600 N   0  0  0  0  0  0  0  0  0  0  0  0
   18.8034   -4.0626   18.2800 C   0  0  0  0  0  0  0  0  0  0  0  0
   17.6227   -3.7392   18.8997 C   0  0  0  0  0  0  0  0  0  0  0  0
   16.3312   -3.6774   18.1507 C   0  0  0  0  0  0  0  0  0  0  0  0
   16.4682   -3.6461   16.8118 F   0  0  0  0  0  0  0  0  0  0  0  0
   15.5716   -4.7802   18.3873 F   0  0  0  0  0  0  0  0  0  0  0  0
   15.5804   -2.6099   18.5050 F   0  0  0  0  0  0  0  0  0  0  0  0
   17.6649   -3.5818   20.2834 C   0  0  0  0  0  0  0  0  0  0  0  0
   18.8220   -3.8627   21.0035 C   0  0  0  0  0  0  0  0  0  0  0  0
   18.7661   -3.6922   22.7215 Cl  0  0  0  0  0  0  0  0  0  0  0  0
   22.2779   -4.9804   20.0625 C   0  0  0  0  0  0  0  0  0  0  0  0
   20.8073   -7.2398   15.1597 C   0  0  0  0  0  0  0  0  0  0  0  0
   19.9522   -7.6596   14.1007 C   0  0  0  0  0  0  0  0  0  0  0  0
   20.6630   -7.7159   12.3388 Br  0  0  0  0  0  0  0  0  0  0  0  0
   18.6195   -8.0461   14.2873 C   0  0  0  0  0  0  0  0  0  0  0  0
   18.1876   -7.9331   15.6155 C   0  0  0  0  0  0  0  0  0  0  0  0
   16.9707   -8.2054   16.1151 N   0  0  0  0  0  0  0  0  0  0  0  0
  1  2  1  0
  2  3  1  0
  3  4  2  0
  4  5  1  0
  5  6  1  0
  6  7  1  6
  6  8  1  0
  9  8  1  6
  9 10  1  0
 10 11  1  0
 11 12  1  0
 12 13  1  0
 13 14  2  0
 14 15  1  0
 15 16  2  0
 16 17  1  0
 17 18  1  0
 17 19  1  0
 17 20  1  0
 16 21  1  0
 21 22  2  0
 22 23  1  0
 12 24  1  0
  5 25  2  0
 25 26  1  0
 26 27  1  0
 26 28  2  0
 28 29  1  0
 29 30  2  0
 30  2  1  0
 29  4  1  0
 24  9  1  0
 22 13  1  0
M  END
>  <energy_score>  (1090) 
-52.769501

>  <inchikey>  (1090) 
None

>  <smiles>  (1090) 
None

>  <ref_pdb>  (1090) 
A1105b

>  <alias>  (1090) 
None

>  <HIPPO Pose ID>  (1090) 
498734

>  <name>  (1090) 
P498734

>  <HIPPO Compound ID>  (1090) 
293480

>  <ref_mols>  (1090) 
A0497a,A1105b

>  <distance_score>  (1090) 
1.389008

>  <inspiration_score>  (1090) 
None

$$$$
P498735
     RDKit          3D

 30 33  0  0  0  0  0  0  0  0999 V2000
   15.5861   -7.8795   18.1597 C   0  0  0  0  0  0  0  0  0  0  0  0
   16.8917   -7.8639   17.5428 N   0  0  0  0  0  0  0  0  0  0  0  0
   18.0989   -7.9151   18.1768 C   0  0  0  0  0  0  0  0  0  0  0  0
   19.0418   -7.8228   17.1858 C   0  0  0  0  0  0  0  0  0  0  0  0
   20.4431   -7.8683   17.3276 C   0  0  0  0  0  0  0  0  0  0  0  0
   21.2721   -8.3691   18.4987 C   0  0  2  0  0  0  0  0  0  0  0  0
   20.5585   -8.5727   19.6966 O   0  0  0  0  0  0  0  0  0  0  0  0
   22.5033   -7.6698   18.8094 N   0  0  0  0  0  0  0  0  0  0  0  0
   22.4376   -6.3687   19.4803 C   0  0  1  0  0  0  0  0  0  0  0  0
   22.9626   -5.2394   18.5938 C   0  0  0  0  0  0  0  0  0  0  0  0
   22.5359   -3.9912   19.3596 C   0  0  0  0  0  0  0  0  0  0  0  0
   21.2430   -4.3223   19.9463 N   0  0  0  0  0  0  0  0  0  0  0  0
   20.0240   -3.8231   19.4958 C   0  0  0  0  0  0  0  0  0  0  0  0
   19.0516   -3.8772   20.4492 N   0  0  0  0  0  0  0  0  0  0  0  0
   17.7608   -3.6921   20.0950 C   0  0  0  0  0  0  0  0  0  0  0  0
   17.3458   -3.5062   18.7967 C   0  0  0  0  0  0  0  0  0  0  0  0
   15.9173   -3.3592   18.3754 C   0  0  0  0  0  0  0  0  0  0  0  0
   15.0768   -4.2308   18.9603 F   0  0  0  0  0  0  0  0  0  0  0  0
   15.4537   -2.1225   18.6699 F   0  0  0  0  0  0  0  0  0  0  0  0
   15.7289   -3.5713   17.0472 F   0  0  0  0  0  0  0  0  0  0  0  0
   18.3480   -3.3410   17.8538 C   0  0  0  0  0  0  0  0  0  0  0  0
   19.6921   -3.4803   18.1796 C   0  0  0  0  0  0  0  0  0  0  0  0
   20.7928   -3.2779   16.8651 Cl  0  0  0  0  0  0  0  0  0  0  0  0
   21.1110   -5.7963   20.0301 C   0  0  0  0  0  0  0  0  0  0  0  0
   21.0464   -7.6569   16.0470 C   0  0  0  0  0  0  0  0  0  0  0  0
   20.3341   -7.5196   14.8156 C   0  0  0  0  0  0  0  0  0  0  0  0
   21.3383   -7.2787   13.2205 Br  0  0  0  0  0  0  0  0  0  0  0  0
   18.9403   -7.6031   14.7124 C   0  0  0  0  0  0  0  0  0  0  0  0
   18.2949   -7.7243   15.9485 C   0  0  0  0  0  0  0  0  0  0  0  0
   16.9797   -7.8228   16.2029 N   0  0  0  0  0  0  0  0  0  0  0  0
  1  2  1  0
  2  3  1  0
  3  4  2  0
  4  5  1  0
  5  6  1  0
  6  7  1  1
  6  8  1  0
  9  8  1  6
  9 10  1  0
 10 11  1  0
 11 12  1  0
 12 13  1  0
 13 14  2  0
 14 15  1  0
 15 16  2  0
 16 17  1  0
 17 18  1  0
 17 19  1  0
 17 20  1  0
 16 21  1  0
 21 22  2  0
 22 23  1  0
 12 24  1  0
  5 25  2  0
 25 26  1  0
 26 27  1  0
 26 28  2  0
 28 29  1  0
 29 30  2  0
 30  2  1  0
 29  4  1  0
 24  9  1  0
 22 13  1  0
M  END
>  <energy_score>  (1091) 
-28.516994

>  <inchikey>  (1091) 
None

>  <smiles>  (1091) 
None

>  <ref_pdb>  (1091) 
A1105b

>  <alias>  (1091) 
None

>  <HIPPO Pose ID>  (1091) 
498735

>  <name>  (1091) 
P498735

>  <HIPPO Compound ID>  (1091) 
293480

>  <ref_mols>  (1091) 
A0497a,A1105b

>  <distance_score>  (1091) 
1.501366

>  <inspiration_score>  (1091) 
None

$$$$
P498736
     RDKit          3D

 30 33  0  0  0  0  0  0  0  0999 V2000
   15.7439   -7.4917   17.4940 C   0  0  0  0  0  0  0  0  0  0  0  0
   17.0191   -7.5734   16.8204 N   0  0  0  0  0  0  0  0  0  0  0  0
   18.0059   -6.6331   16.8497 C   0  0  0  0  0  0  0  0  0  0  0  0
   19.0192   -7.1123   16.0673 C   0  0  0  0  0  0  0  0  0  0  0  0
   20.2416   -6.4854   15.7534 C   0  0  0  0  0  0  0  0  0  0  0  0
   20.7558   -5.1001   16.0492 C   0  0  1  0  0  0  0  0  0  0  0  0
   19.8994   -4.2934   16.8170 O   0  0  0  0  0  0  0  0  0  0  0  0
   22.1233   -4.9548   16.5270 N   0  0  0  0  0  0  0  0  0  0  0  0
   22.5579   -5.6752   17.7393 C   0  0  1  0  0  0  0  0  0  0  0  0
   23.6444   -4.8427   18.4378 C   0  0  0  0  0  0  0  0  0  0  0  0
   22.8203   -3.8176   19.2318 C   0  0  0  0  0  0  0  0  0  0  0  0
   21.6544   -4.5712   19.6949 N   0  0  0  0  0  0  0  0  0  0  0  0
   20.3786   -4.0445   19.8535 C   0  0  0  0  0  0  0  0  0  0  0  0
   19.4431   -4.9864   20.1272 N   0  0  0  0  0  0  0  0  0  0  0  0
   18.1712   -4.7609   19.7754 C   0  0  0  0  0  0  0  0  0  0  0  0
   17.7230   -3.5623   19.2816 C   0  0  0  0  0  0  0  0  0  0  0  0
   16.4457   -3.4353   18.5201 C   0  0  0  0  0  0  0  0  0  0  0  0
   15.6417   -4.5235   18.5959 F   0  0  0  0  0  0  0  0  0  0  0  0
   16.6978   -3.3044   17.1937 F   0  0  0  0  0  0  0  0  0  0  0  0
   15.7138   -2.3623   18.8879 F   0  0  0  0  0  0  0  0  0  0  0  0
   18.6147   -2.4997   19.3421 C   0  0  0  0  0  0  0  0  0  0  0  0
   19.9589   -2.7292   19.6452 C   0  0  0  0  0  0  0  0  0  0  0  0
   20.9792   -1.3375   19.7025 Cl  0  0  0  0  0  0  0  0  0  0  0  0
   21.5999   -5.8545   18.9352 C   0  0  0  0  0  0  0  0  0  0  0  0
   20.9735   -7.3037   14.8477 C   0  0  0  0  0  0  0  0  0  0  0  0
   20.5187   -8.5501   14.3275 C   0  0  0  0  0  0  0  0  0  0  0  0
   21.6466   -9.4713   13.1055 Br  0  0  0  0  0  0  0  0  0  0  0  0
   19.2840   -9.1347   14.6514 C   0  0  0  0  0  0  0  0  0  0  0  0
   18.5284   -8.3748   15.5528 C   0  0  0  0  0  0  0  0  0  0  0  0
   17.3054   -8.6363   16.0474 N   0  0  0  0  0  0  0  0  0  0  0  0
  1  2  1  0
  2  3  1  0
  3  4  2  0
  4  5  1  0
  5  6  1  0
  6  7  1  1
  6  8  1  0
  9  8  1  6
  9 10  1  0
 10 11  1  0
 11 12  1  0
 12 13  1  0
 13 14  2  0
 14 15  1  0
 15 16  2  0
 16 17  1  0
 17 18  1  0
 17 19  1  0
 17 20  1  0
 16 21  1  0
 21 22  2  0
 22 23  1  0
 12 24  1  0
  5 25  2  0
 25 26  1  0
 26 27  1  0
 26 28  2  0
 28 29  1  0
 29 30  2  0
 30  2  1  0
 29  4  1  0
 24  9  1  0
 22 13  1  0
M  END
>  <energy_score>  (1092) 
-31.57443

>  <inchikey>  (1092) 
None

>  <smiles>  (1092) 
None

>  <ref_pdb>  (1092) 
A1105b

>  <alias>  (1092) 
None

>  <HIPPO Pose ID>  (1092) 
498736

>  <name>  (1092) 
P498736

>  <HIPPO Compound ID>  (1092) 
293480

>  <ref_mols>  (1092) 
A0497a,A1105b

>  <distance_score>  (1092) 
1.688288

>  <inspiration_score>  (1092) 
None

$$$$
P498737
     RDKit          3D

 30 33  0  0  0  0  0  0  0  0999 V2000
   15.9508   -6.5535   17.7840 C   0  0  0  0  0  0  0  0  0  0  0  0
   17.1062   -6.9724   17.0283 N   0  0  0  0  0  0  0  0  0  0  0  0
   18.3244   -6.3549   16.9877 C   0  0  0  0  0  0  0  0  0  0  0  0
   19.0652   -7.0429   16.0578 C   0  0  0  0  0  0  0  0  0  0  0  0
   20.3867   -6.7635   15.6164 C   0  0  0  0  0  0  0  0  0  0  0  0
   21.3278   -5.7100   16.1475 C   0  0  2  0  0  0  0  0  0  0  0  0
   22.6688   -5.8475   15.7407 O   0  0  0  0  0  0  0  0  0  0  0  0
   21.4128   -5.5419   17.5696 N   0  0  0  0  0  0  0  0  0  0  0  0
   22.0072   -6.5631   18.4306 C   0  0  2  0  0  0  0  0  0  0  0  0
   21.1603   -7.7905   18.7629 C   0  0  0  0  0  0  0  0  0  0  0  0
   20.1792   -7.3284   19.8456 C   0  0  0  0  0  0  0  0  0  0  0  0
   20.8054   -6.1485   20.4880 N   0  0  0  0  0  0  0  0  0  0  0  0
   19.9758   -5.0075   20.4137 C   0  0  0  0  0  0  0  0  0  0  0  0
   20.3563   -3.9987   19.5907 N   0  0  0  0  0  0  0  0  0  0  0  0
   19.5976   -2.8962   19.4552 C   0  0  0  0  0  0  0  0  0  0  0  0
   18.4208   -2.7168   20.1353 C   0  0  0  0  0  0  0  0  0  0  0  0
   17.6840   -1.4258   20.0381 C   0  0  0  0  0  0  0  0  0  0  0  0
   17.5732   -0.8008   21.2397 F   0  0  0  0  0  0  0  0  0  0  0  0
   18.2808   -0.5106   19.2268 F   0  0  0  0  0  0  0  0  0  0  0  0
   16.4286   -1.5965   19.5687 F   0  0  0  0  0  0  0  0  0  0  0  0
   18.0015   -3.7512   20.9758 C   0  0  0  0  0  0  0  0  0  0  0  0
   18.7808   -4.8996   21.1307 C   0  0  0  0  0  0  0  0  0  0  0  0
   18.2758   -6.0858   22.2807 Cl  0  0  0  0  0  0  0  0  0  0  0  0
   22.1452   -5.9815   19.8654 C   0  0  0  0  0  0  0  0  0  0  0  0
   20.6466   -7.5704   14.4600 C   0  0  0  0  0  0  0  0  0  0  0  0
   22.1937   -7.3497   13.3387 Br  0  0  0  0  0  0  0  0  0  0  0  0
   19.7716   -8.5876   13.9464 C   0  0  0  0  0  0  0  0  0  0  0  0
   18.5181   -8.8943   14.4892 C   0  0  0  0  0  0  0  0  0  0  0  0
   18.1642   -8.0632   15.5519 C   0  0  0  0  0  0  0  0  0  0  0  0
   17.0120   -8.0544   16.2391 N   0  0  0  0  0  0  0  0  0  0  0  0
  1  2  1  0
  2  3  1  0
  3  4  2  0
  4  5  1  0
  5  6  1  0
  6  7  1  1
  6  8  1  0
  9  8  1  6
  9 10  1  0
 10 11  1  0
 11 12  1  0
 12 13  1  0
 13 14  2  0
 14 15  1  0
 15 16  2  0
 16 17  1  0
 17 18  1  0
 17 19  1  0
 17 20  1  0
 16 21  1  0
 21 22  2  0
 22 23  1  0
 12 24  1  0
  5 25  2  0
 25 26  1  0
 25 27  1  0
 27 28  2  0
 28 29  1  0
 29 30  2  0
 30  2  1  0
 29  4  1  0
 24  9  1  0
 22 13  1  0
M  END
>  <energy_score>  (1093) 
-55.460937

>  <inchikey>  (1093) 
None

>  <smiles>  (1093) 
None

>  <ref_pdb>  (1093) 
A1105b

>  <alias>  (1093) 
None

>  <HIPPO Pose ID>  (1093) 
498737

>  <name>  (1093) 
P498737

>  <HIPPO Compound ID>  (1093) 
293481

>  <ref_mols>  (1093) 
A0497a,A1105b

>  <distance_score>  (1093) 
1.644513

>  <inspiration_score>  (1093) 
None

$$$$
P498738
     RDKit          3D

 30 33  0  0  0  0  0  0  0  0999 V2000
   16.3070   -7.8931   18.4065 C   0  0  0  0  0  0  0  0  0  0  0  0
   17.3542   -7.8475   17.4146 N   0  0  0  0  0  0  0  0  0  0  0  0
   18.6662   -7.5174   17.6166 C   0  0  0  0  0  0  0  0  0  0  0  0
   19.2557   -7.5884   16.3784 C   0  0  0  0  0  0  0  0  0  0  0  0
   20.6091   -7.3382   16.0536 C   0  0  0  0  0  0  0  0  0  0  0  0
   21.7226   -7.0084   17.0148 C   0  0  1  0  0  0  0  0  0  0  0  0
   22.7236   -8.0045   16.9510 O   0  0  0  0  0  0  0  0  0  0  0  0
   22.3793   -5.7403   16.7388 N   0  0  0  0  0  0  0  0  0  0  0  0
   21.5784   -4.6405   17.2636 C   0  0  2  0  0  0  0  0  0  0  0  0
   21.6241   -3.3539   16.4592 C   0  0  0  0  0  0  0  0  0  0  0  0
   21.0118   -2.3301   17.4300 C   0  0  0  0  0  0  0  0  0  0  0  0
   21.1962   -2.8784   18.7826 N   0  0  0  0  0  0  0  0  0  0  0  0
   20.1336   -3.2136   19.6293 C   0  0  0  0  0  0  0  0  0  0  0  0
   20.5427   -3.3034   20.9232 N   0  0  0  0  0  0  0  0  0  0  0  0
   19.9002   -4.1192   21.7783 C   0  0  0  0  0  0  0  0  0  0  0  0
   18.8506   -4.9210   21.4062 C   0  0  0  0  0  0  0  0  0  0  0  0
   18.3622   -5.9668   22.3445 C   0  0  0  0  0  0  0  0  0  0  0  0
   19.3347   -6.4866   23.1407 F   0  0  0  0  0  0  0  0  0  0  0  0
   17.8141   -7.0346   21.6953 F   0  0  0  0  0  0  0  0  0  0  0  0
   17.3868   -5.5281   23.1843 F   0  0  0  0  0  0  0  0  0  0  0  0
   18.3285   -4.7080   20.1351 C   0  0  0  0  0  0  0  0  0  0  0  0
   18.9130   -3.7935   19.2584 C   0  0  0  0  0  0  0  0  0  0  0  0
   18.0799   -3.6175   17.7739 Cl  0  0  0  0  0  0  0  0  0  0  0  0
   22.0165   -4.1013   18.6344 C   0  0  0  0  0  0  0  0  0  0  0  0
   20.7887   -7.4981   14.6437 C   0  0  0  0  0  0  0  0  0  0  0  0
   22.4995   -7.2293   13.8126 Br  0  0  0  0  0  0  0  0  0  0  0  0
   19.7659   -7.9044   13.7263 C   0  0  0  0  0  0  0  0  0  0  0  0
   18.4451   -8.1902   14.1083 C   0  0  0  0  0  0  0  0  0  0  0  0
   18.2036   -8.0050   15.4734 C   0  0  0  0  0  0  0  0  0  0  0  0
   17.0604   -8.1921   16.1505 N   0  0  0  0  0  0  0  0  0  0  0  0
  1  2  1  0
  2  3  1  0
  3  4  2  0
  4  5  1  0
  5  6  1  0
  6  7  1  6
  6  8  1  0
  9  8  1  6
  9 10  1  0
 10 11  1  0
 11 12  1  0
 12 13  1  0
 13 14  2  0
 14 15  1  0
 15 16  2  0
 16 17  1  0
 17 18  1  0
 17 19  1  0
 17 20  1  0
 16 21  1  0
 21 22  2  0
 22 23  1  0
 12 24  1  0
  5 25  2  0
 25 26  1  0
 25 27  1  0
 27 28  2  0
 28 29  1  0
 29 30  2  0
 30  2  1  0
 29  4  1  0
 24  9  1  0
 22 13  1  0
M  END
>  <energy_score>  (1094) 
-54.641948

>  <inchikey>  (1094) 
None

>  <smiles>  (1094) 
None

>  <ref_pdb>  (1094) 
A1105b

>  <alias>  (1094) 
None

>  <HIPPO Pose ID>  (1094) 
498738

>  <name>  (1094) 
P498738

>  <HIPPO Compound ID>  (1094) 
293481

>  <ref_mols>  (1094) 
A0497a,A1105b

>  <distance_score>  (1094) 
1.350775

>  <inspiration_score>  (1094) 
None

$$$$
P498739
     RDKit          3D

 30 33  0  0  0  0  0  0  0  0999 V2000
   15.7013   -8.2946   17.7675 C   0  0  0  0  0  0  0  0  0  0  0  0
   16.9837   -8.1549   17.1185 N   0  0  0  0  0  0  0  0  0  0  0  0
   18.1912   -7.9598   17.7267 C   0  0  0  0  0  0  0  0  0  0  0  0
   19.0958   -7.7602   16.7144 C   0  0  0  0  0  0  0  0  0  0  0  0
   20.4806   -7.4822   16.8187 C   0  0  0  0  0  0  0  0  0  0  0  0
   21.3672   -7.4588   18.0477 C   0  0  2  0  0  0  0  0  0  0  0  0
   20.8539   -8.3226   19.0363 O   0  0  0  0  0  0  0  0  0  0  0  0
   21.5227   -6.1249   18.6003 N   0  0  0  0  0  0  0  0  0  0  0  0
   22.4819   -6.0540   19.7337 C   0  0  1  0  0  0  0  0  0  0  0  0
   23.0258   -4.6141   19.9236 C   0  0  0  0  0  0  0  0  0  0  0  0
   22.4250   -4.0934   21.2482 C   0  0  0  0  0  0  0  0  0  0  0  0
   21.2839   -4.9928   21.5350 N   0  0  0  0  0  0  0  0  0  0  0  0
   20.1183   -4.5929   20.8146 C   0  0  0  0  0  0  0  0  0  0  0  0
   20.1621   -3.3891   20.1813 N   0  0  0  0  0  0  0  0  0  0  0  0
   19.2106   -3.0732   19.2795 C   0  0  0  0  0  0  0  0  0  0  0  0
   18.1783   -3.9179   18.9430 C   0  0  0  0  0  0  0  0  0  0  0  0
   17.1701   -3.5116   17.9305 C   0  0  0  0  0  0  0  0  0  0  0  0
   16.1466   -2.8294   18.5071 F   0  0  0  0  0  0  0  0  0  0  0  0
   17.7127   -2.6898   17.0088 F   0  0  0  0  0  0  0  0  0  0  0  0
   16.5965   -4.5548   17.2765 F   0  0  0  0  0  0  0  0  0  0  0  0
   18.0796   -5.1085   19.6430 C   0  0  0  0  0  0  0  0  0  0  0  0
   18.9922   -5.4149   20.6486 C   0  0  0  0  0  0  0  0  0  0  0  0
   18.6318   -6.7931   21.6303 Cl  0  0  0  0  0  0  0  0  0  0  0  0
   21.8210   -6.3120   21.1123 C   0  0  0  0  0  0  0  0  0  0  0  0
   21.0111   -7.2708   15.5044 C   0  0  0  0  0  0  0  0  0  0  0  0
   22.8339   -6.7165   15.2659 Br  0  0  0  0  0  0  0  0  0  0  0  0
   20.2859   -7.4523   14.2824 C   0  0  0  0  0  0  0  0  0  0  0  0
   18.9359   -7.8370   14.2340 C   0  0  0  0  0  0  0  0  0  0  0  0
   18.3333   -7.9453   15.4924 C   0  0  0  0  0  0  0  0  0  0  0  0
   17.0570   -8.2483   15.7819 N   0  0  0  0  0  0  0  0  0  0  0  0
  1  2  1  0
  2  3  1  0
  3  4  2  0
  4  5  1  0
  5  6  1  0
  6  7  1  1
  6  8  1  0
  9  8  1  6
  9 10  1  0
 10 11  1  0
 11 12  1  0
 12 13  1  0
 13 14  2  0
 14 15  1  0
 15 16  2  0
 16 17  1  0
 17 18  1  0
 17 19  1  0
 17 20  1  0
 16 21  1  0
 21 22  2  0
 22 23  1  0
 12 24  1  0
  5 25  2  0
 25 26  1  0
 25 27  1  0
 27 28  2  0
 28 29  1  0
 29 30  2  0
 30  2  1  0
 29  4  1  0
 24  9  1  0
 22 13  1  0
M  END
>  <energy_score>  (1095) 
-67.394634

>  <inchikey>  (1095) 
None

>  <smiles>  (1095) 
None

>  <ref_pdb>  (1095) 
A1105b

>  <alias>  (1095) 
None

>  <HIPPO Pose ID>  (1095) 
498739

>  <name>  (1095) 
P498739

>  <HIPPO Compound ID>  (1095) 
293481

>  <ref_mols>  (1095) 
A0497a,A1105b

>  <distance_score>  (1095) 
1.126361

>  <inspiration_score>  (1095) 
None

$$$$
P498740
     RDKit          3D

 30 33  0  0  0  0  0  0  0  0999 V2000
   15.6960   -8.4103   17.7778 C   0  0  0  0  0  0  0  0  0  0  0  0
   16.9773   -8.2195   17.1395 N   0  0  0  0  0  0  0  0  0  0  0  0
   18.1765   -8.0101   17.7583 C   0  0  0  0  0  0  0  0  0  0  0  0
   19.0679   -7.7434   16.7510 C   0  0  0  0  0  0  0  0  0  0  0  0
   20.4351   -7.4187   16.8900 C   0  0  0  0  0  0  0  0  0  0  0  0
   21.2164   -7.4360   18.1838 C   0  0  1  0  0  0  0  0  0  0  0  0
   22.2165   -8.4417   18.1513 O   0  0  0  0  0  0  0  0  0  0  0  0
   21.8105   -6.1592   18.5366 N   0  0  0  0  0  0  0  0  0  0  0  0
   22.5644   -6.1819   19.8137 C   0  0  1  0  0  0  0  0  0  0  0  0
   23.1026   -4.7709   20.1417 C   0  0  0  0  0  0  0  0  0  0  0  0
   22.3899   -4.3304   21.4357 C   0  0  0  0  0  0  0  0  0  0  0  0
   21.2114   -5.2166   21.5619 N   0  0  0  0  0  0  0  0  0  0  0  0
   20.1078   -4.7484   20.7930 C   0  0  0  0  0  0  0  0  0  0  0  0
   20.2338   -3.5438   20.1758 N   0  0  0  0  0  0  0  0  0  0  0  0
   19.3219   -3.1709   19.2559 C   0  0  0  0  0  0  0  0  0  0  0  0
   18.2434   -3.9493   18.9001 C   0  0  0  0  0  0  0  0  0  0  0  0
   17.2537   -3.4589   17.9084 C   0  0  0  0  0  0  0  0  0  0  0  0
   17.8243   -2.6272   17.0126 F   0  0  0  0  0  0  0  0  0  0  0  0
   16.6128   -4.4435   17.2285 F   0  0  0  0  0  0  0  0  0  0  0  0
   16.2740   -2.7424   18.5275 F   0  0  0  0  0  0  0  0  0  0  0  0
   18.0671   -5.1436   19.5786 C   0  0  0  0  0  0  0  0  0  0  0  0
   18.9475   -5.5124   20.5905 C   0  0  0  0  0  0  0  0  0  0  0  0
   18.5082   -6.8770   21.5623 Cl  0  0  0  0  0  0  0  0  0  0  0  0
   21.7327   -6.5175   21.0763 C   0  0  0  0  0  0  0  0  0  0  0  0
   20.9995   -7.2092   15.5942 C   0  0  0  0  0  0  0  0  0  0  0  0
   22.8396   -6.7122   15.3947 Br  0  0  0  0  0  0  0  0  0  0  0  0
   20.2972   -7.3924   14.3567 C   0  0  0  0  0  0  0  0  0  0  0  0
   18.9507   -7.7937   14.2765 C   0  0  0  0  0  0  0  0  0  0  0  0
   18.3291   -7.9339   15.5220 C   0  0  0  0  0  0  0  0  0  0  0  0
   17.0611   -8.2811   15.7997 N   0  0  0  0  0  0  0  0  0  0  0  0
  1  2  1  0
  2  3  1  0
  3  4  2  0
  4  5  1  0
  5  6  1  0
  6  7  1  6
  6  8  1  0
  9  8  1  6
  9 10  1  0
 10 11  1  0
 11 12  1  0
 12 13  1  0
 13 14  2  0
 14 15  1  0
 15 16  2  0
 16 17  1  0
 17 18  1  0
 17 19  1  0
 17 20  1  0
 16 21  1  0
 21 22  2  0
 22 23  1  0
 12 24  1  0
  5 25  2  0
 25 26  1  0
 25 27  1  0
 27 28  2  0
 28 29  1  0
 29 30  2  0
 30  2  1  0
 29  4  1  0
 24  9  1  0
 22 13  1  0
M  END
>  <energy_score>  (1096) 
-76.039224

>  <inchikey>  (1096) 
None

>  <smiles>  (1096) 
None

>  <ref_pdb>  (1096) 
A1105b

>  <alias>  (1096) 
None

>  <HIPPO Pose ID>  (1096) 
498740

>  <name>  (1096) 
P498740

>  <HIPPO Compound ID>  (1096) 
293481

>  <ref_mols>  (1096) 
A0497a,A1105b

>  <distance_score>  (1096) 
1.122732

>  <inspiration_score>  (1096) 
None

$$$$
P498741
     RDKit          3D

 30 33  0  0  0  0  0  0  0  0999 V2000
   15.0258   -7.9800   17.4825 C   0  0  0  0  0  0  0  0  0  0  0  0
   16.4052   -7.9559   17.0532 N   0  0  0  0  0  0  0  0  0  0  0  0
   17.4836   -7.6078   17.8130 C   0  0  0  0  0  0  0  0  0  0  0  0
   18.5584   -7.6601   16.9655 C   0  0  0  0  0  0  0  0  0  0  0  0
   19.8951   -7.3705   17.2858 C   0  0  0  0  0  0  0  0  0  0  0  0
   20.4600   -6.9737   18.6306 C   0  0  2  0  0  0  0  0  0  0  0  0
   21.8603   -6.8592   18.5449 O   0  0  0  0  0  0  0  0  0  0  0  0
   20.1948   -7.9173   19.6999 N   0  0  0  0  0  0  0  0  0  0  0  0
   20.1967   -7.4110   21.0954 C   0  0  2  0  0  0  0  0  0  0  0  0
   18.7845   -7.2612   21.6656 C   0  0  0  0  0  0  0  0  0  0  0  0
   18.3908   -5.8374   21.2811 C   0  0  0  0  0  0  0  0  0  0  0  0
   19.6259   -5.0596   21.2959 N   0  0  0  0  0  0  0  0  0  0  0  0
   19.8355   -4.0952   20.3048 C   0  0  0  0  0  0  0  0  0  0  0  0
   21.1308   -3.8233   20.0553 N   0  0  0  0  0  0  0  0  0  0  0  0
   21.4808   -3.2874   18.8725 C   0  0  0  0  0  0  0  0  0  0  0  0
   20.5870   -2.9475   17.8829 C   0  0  0  0  0  0  0  0  0  0  0  0
   21.1566   -2.4739   16.5810 C   0  0  0  0  0  0  0  0  0  0  0  0
   20.2808   -2.5064   15.5511 F   0  0  0  0  0  0  0  0  0  0  0  0
   22.2301   -3.2206   16.1991 F   0  0  0  0  0  0  0  0  0  0  0  0
   21.6082   -1.1943   16.6724 F   0  0  0  0  0  0  0  0  0  0  0  0
   19.2399   -3.0175   18.2132 C   0  0  0  0  0  0  0  0  0  0  0  0
   18.8641   -3.5218   19.4653 C   0  0  0  0  0  0  0  0  0  0  0  0
   17.2229   -3.2912   19.8886 Cl  0  0  0  0  0  0  0  0  0  0  0  0
   20.7653   -6.0101   21.4629 C   0  0  0  0  0  0  0  0  0  0  0  0
   20.6732   -7.4125   16.0908 C   0  0  0  0  0  0  0  0  0  0  0  0
   20.1753   -7.7716   14.8027 C   0  0  0  0  0  0  0  0  0  0  0  0
   21.0432   -7.7874   13.7785 F   0  0  0  0  0  0  0  0  0  0  0  0
   18.8465   -8.1285   14.5420 C   0  0  0  0  0  0  0  0  0  0  0  0
   18.0280   -8.0470   15.6743 C   0  0  0  0  0  0  0  0  0  0  0  0
   16.7136   -8.3066   15.7912 N   0  0  0  0  0  0  0  0  0  0  0  0
  1  2  1  0
  2  3  1  0
  3  4  2  0
  4  5  1  0
  5  6  1  0
  6  7  1  6
  6  8  1  0
  9  8  1  6
  9 10  1  0
 10 11  1  0
 11 12  1  0
 12 13  1  0
 13 14  2  0
 14 15  1  0
 15 16  2  0
 16 17  1  0
 17 18  1  0
 17 19  1  0
 17 20  1  0
 16 21  1  0
 21 22  2  0
 22 23  1  0
 12 24  1  0
  5 25  2  0
 25 26  1  0
 26 27  1  0
 26 28  2  0
 28 29  1  0
 29 30  2  0
 30  2  1  0
 29  4  1  0
 24  9  1  0
 22 13  1  0
M  END
>  <energy_score>  (1097) 
-41.458176

>  <inchikey>  (1097) 
None

>  <smiles>  (1097) 
None

>  <ref_pdb>  (1097) 
A1105b

>  <alias>  (1097) 
None

>  <HIPPO Pose ID>  (1097) 
498741

>  <name>  (1097) 
P498741

>  <HIPPO Compound ID>  (1097) 
293482

>  <ref_mols>  (1097) 
A0497a,A1105b

>  <distance_score>  (1097) 
1.595176

>  <inspiration_score>  (1097) 
None

$$$$
P498742
     RDKit          3D

 30 33  0  0  0  0  0  0  0  0999 V2000
   15.7252   -8.4888   17.9696 C   0  0  0  0  0  0  0  0  0  0  0  0
   16.9733   -8.3080   17.2659 N   0  0  0  0  0  0  0  0  0  0  0  0
   18.2120   -8.1659   17.8220 C   0  0  0  0  0  0  0  0  0  0  0  0
   19.0502   -7.8933   16.7755 C   0  0  0  0  0  0  0  0  0  0  0  0
   20.4276   -7.6292   16.8470 C   0  0  0  0  0  0  0  0  0  0  0  0
   21.3274   -7.6926   18.0596 C   0  0  1  0  0  0  0  0  0  0  0  0
   22.6178   -8.1415   17.6820 O   0  0  0  0  0  0  0  0  0  0  0  0
   21.4281   -6.4127   18.7179 N   0  0  0  0  0  0  0  0  0  0  0  0
   22.3600   -6.3632   19.8677 C   0  0  2  0  0  0  0  0  0  0  0  0
   21.9572   -7.2574   21.0595 C   0  0  0  0  0  0  0  0  0  0  0  0
   21.4461   -6.3091   22.1541 C   0  0  0  0  0  0  0  0  0  0  0  0
   21.2294   -5.0182   21.5045 N   0  0  0  0  0  0  0  0  0  0  0  0
   20.0420   -4.6751   20.8401 C   0  0  0  0  0  0  0  0  0  0  0  0
   20.0838   -3.4288   20.2880 N   0  0  0  0  0  0  0  0  0  0  0  0
   19.1687   -3.0689   19.3668 C   0  0  0  0  0  0  0  0  0  0  0  0
   18.1591   -3.9009   18.9438 C   0  0  0  0  0  0  0  0  0  0  0  0
   17.1805   -3.4458   17.9271 C   0  0  0  0  0  0  0  0  0  0  0  0
   17.7599   -2.6374   17.0178 F   0  0  0  0  0  0  0  0  0  0  0  0
   16.1829   -2.7212   18.5105 F   0  0  0  0  0  0  0  0  0  0  0  0
   16.5550   -4.4505   17.2610 F   0  0  0  0  0  0  0  0  0  0  0  0
   18.0503   -5.1320   19.5648 C   0  0  0  0  0  0  0  0  0  0  0  0
   18.9356   -5.5011   20.5783 C   0  0  0  0  0  0  0  0  0  0  0  0
   18.5258   -6.9713   21.3898 Cl  0  0  0  0  0  0  0  0  0  0  0  0
   22.3433   -4.9481   20.5156 C   0  0  0  0  0  0  0  0  0  0  0  0
   20.9204   -7.3471   15.5410 C   0  0  0  0  0  0  0  0  0  0  0  0
   20.1480   -7.4482   14.3484 C   0  0  0  0  0  0  0  0  0  0  0  0
   20.7672   -7.2091   13.1813 F   0  0  0  0  0  0  0  0  0  0  0  0
   18.7953   -7.8119   14.3122 C   0  0  0  0  0  0  0  0  0  0  0  0
   18.2386   -7.9928   15.5822 C   0  0  0  0  0  0  0  0  0  0  0  0
   16.9756   -8.3065   15.9202 N   0  0  0  0  0  0  0  0  0  0  0  0
  1  2  1  0
  2  3  1  0
  3  4  2  0
  4  5  1  0
  5  6  1  0
  6  7  1  6
  6  8  1  0
  9  8  1  6
  9 10  1  0
 10 11  1  0
 11 12  1  0
 12 13  1  0
 13 14  2  0
 14 15  1  0
 15 16  2  0
 16 17  1  0
 17 18  1  0
 17 19  1  0
 17 20  1  0
 16 21  1  0
 21 22  2  0
 22 23  1  0
 12 24  1  0
  5 25  2  0
 25 26  1  0
 26 27  1  0
 26 28  2  0
 28 29  1  0
 29 30  2  0
 30  2  1  0
 29  4  1  0
 24  9  1  0
 22 13  1  0
M  END
>  <energy_score>  (1098) 
-32.96621

>  <inchikey>  (1098) 
None

>  <smiles>  (1098) 
None

>  <ref_pdb>  (1098) 
A1105b

>  <alias>  (1098) 
None

>  <HIPPO Pose ID>  (1098) 
498742

>  <name>  (1098) 
P498742

>  <HIPPO Compound ID>  (1098) 
293482

>  <ref_mols>  (1098) 
A0497a,A1105b

>  <distance_score>  (1098) 
1.818348

>  <inspiration_score>  (1098) 
None

$$$$
P498743
     RDKit          3D

 30 33  0  0  0  0  0  0  0  0999 V2000
   15.2688   -7.9582   17.7226 C   0  0  0  0  0  0  0  0  0  0  0  0
   16.5851   -7.9144   17.1293 N   0  0  0  0  0  0  0  0  0  0  0  0
   17.7422   -7.5481   17.7529 C   0  0  0  0  0  0  0  0  0  0  0  0
   18.6995   -7.5825   16.7724 C   0  0  0  0  0  0  0  0  0  0  0  0
   20.0606   -7.2767   16.9252 C   0  0  0  0  0  0  0  0  0  0  0  0
   20.7617   -6.9842   18.2202 C   0  0  2  0  0  0  0  0  0  0  0  0
   21.8651   -6.1388   17.9958 O   0  0  0  0  0  0  0  0  0  0  0  0
   21.2321   -8.2117   18.8259 N   0  0  0  0  0  0  0  0  0  0  0  0
   21.5203   -8.2057   20.2664 C   0  0  1  0  0  0  0  0  0  0  0  0
   22.8296   -7.5464   20.6895 C   0  0  0  0  0  0  0  0  0  0  0  0
   22.4544   -6.1564   21.1976 C   0  0  0  0  0  0  0  0  0  0  0  0
   21.0163   -6.2004   21.5206 N   0  0  0  0  0  0  0  0  0  0  0  0
   20.2213   -5.1583   21.0195 C   0  0  0  0  0  0  0  0  0  0  0  0
   20.7341   -4.4051   20.0110 N   0  0  0  0  0  0  0  0  0  0  0  0
   19.9398   -3.5143   19.3836 C   0  0  0  0  0  0  0  0  0  0  0  0
   18.6232   -3.3105   19.7258 C   0  0  0  0  0  0  0  0  0  0  0  0
   17.8159   -2.3418   18.9522 C   0  0  0  0  0  0  0  0  0  0  0  0
   17.9455   -1.0755   19.4321 F   0  0  0  0  0  0  0  0  0  0  0  0
   16.4910   -2.6323   18.9680 F   0  0  0  0  0  0  0  0  0  0  0  0
   18.1997   -2.3125   17.6535 F   0  0  0  0  0  0  0  0  0  0  0  0
   18.1156   -3.9991   20.8202 C   0  0  0  0  0  0  0  0  0  0  0  0
   18.9081   -4.9393   21.4694 C   0  0  0  0  0  0  0  0  0  0  0  0
   18.2370   -5.7633   22.8341 Cl  0  0  0  0  0  0  0  0  0  0  0  0
   20.4931   -7.5487   21.2135 C   0  0  0  0  0  0  0  0  0  0  0  0
   20.7180   -7.3621   15.6694 C   0  0  0  0  0  0  0  0  0  0  0  0
   20.0784   -7.7472   14.4556 C   0  0  0  0  0  0  0  0  0  0  0  0
   20.8290   -7.8003   13.3431 F   0  0  0  0  0  0  0  0  0  0  0  0
   18.7248   -8.1040   14.3505 C   0  0  0  0  0  0  0  0  0  0  0  0
   18.0309   -7.9991   15.5629 C   0  0  0  0  0  0  0  0  0  0  0  0
   16.7406   -8.2644   15.8363 N   0  0  0  0  0  0  0  0  0  0  0  0
  1  2  1  0
  2  3  1  0
  3  4  2  0
  4  5  1  0
  5  6  1  0
  6  7  1  6
  6  8  1  0
  9  8  1  6
  9 10  1  0
 10 11  1  0
 11 12  1  0
 12 13  1  0
 13 14  2  0
 14 15  1  0
 15 16  2  0
 16 17  1  0
 17 18  1  0
 17 19  1  0
 17 20  1  0
 16 21  1  0
 21 22  2  0
 22 23  1  0
 12 24  1  0
  5 25  2  0
 25 26  1  0
 26 27  1  0
 26 28  2  0
 28 29  1  0
 29 30  2  0
 30  2  1  0
 29  4  1  0
 24  9  1  0
 22 13  1  0
M  END
>  <energy_score>  (1099) 
-61.588626

>  <inchikey>  (1099) 
None

>  <smiles>  (1099) 
None

>  <ref_pdb>  (1099) 
A1105b

>  <alias>  (1099) 
None

>  <HIPPO Pose ID>  (1099) 
498743

>  <name>  (1099) 
P498743

>  <HIPPO Compound ID>  (1099) 
293482

>  <ref_mols>  (1099) 
A0497a,A1105b

>  <distance_score>  (1099) 
1.402313

>  <inspiration_score>  (1099) 
None

$$$$
P498744
     RDKit          3D

 30 33  0  0  0  0  0  0  0  0999 V2000
   18.1970   -8.6414   12.8412 C   0  0  0  0  0  0  0  0  0  0  0  0
   18.8769   -8.1267   14.0647 C   0  0  0  0  0  0  0  0  0  0  0  0
   20.1968   -7.6308   14.0317 C   0  0  0  0  0  0  0  0  0  0  0  0
   20.9057   -7.1796   15.1875 C   0  0  0  0  0  0  0  0  0  0  0  0
   20.4267   -7.2109   16.5347 C   0  0  0  0  0  0  0  0  0  0  0  0
   21.3104   -6.7101   17.6701 C   0  0  2  0  0  0  0  0  0  0  0  0
   22.6622   -6.7293   17.2443 O   0  0  0  0  0  0  0  0  0  0  0  0
   21.2555   -7.5160   18.8820 N   0  0  0  0  0  0  0  0  0  0  0  0
   22.2333   -7.1121   19.9282 C   0  0  2  0  0  0  0  0  0  0  0  0
   21.8383   -7.7631   21.2716 C   0  0  0  0  0  0  0  0  0  0  0  0
   21.3573   -6.6213   22.1798 C   0  0  0  0  0  0  0  0  0  0  0  0
   21.2710   -5.4339   21.3356 N   0  0  0  0  0  0  0  0  0  0  0  0
   20.1213   -4.9372   20.7322 C   0  0  0  0  0  0  0  0  0  0  0  0
   20.3107   -3.7229   20.1447 N   0  0  0  0  0  0  0  0  0  0  0  0
   19.4015   -3.2366   19.2736 C   0  0  0  0  0  0  0  0  0  0  0  0
   18.2715   -3.9284   18.9153 C   0  0  0  0  0  0  0  0  0  0  0  0
   17.3011   -3.3805   17.9344 C   0  0  0  0  0  0  0  0  0  0  0  0
   16.6386   -4.3358   17.2307 F   0  0  0  0  0  0  0  0  0  0  0  0
   16.3382   -2.6624   18.5699 F   0  0  0  0  0  0  0  0  0  0  0  0
   17.9017   -2.5531   17.0557 F   0  0  0  0  0  0  0  0  0  0  0  0
   18.0357   -5.1280   19.5620 C   0  0  0  0  0  0  0  0  0  0  0  0
   18.9084   -5.6083   20.5373 C   0  0  0  0  0  0  0  0  0  0  0  0
   18.4097   -7.0680   21.3153 Cl  0  0  0  0  0  0  0  0  0  0  0  0
   22.3318   -5.6124   20.3159 C   0  0  0  0  0  0  0  0  0  0  0  0
   19.0913   -7.6629   16.5166 C   0  0  0  0  0  0  0  0  0  0  0  0
   18.2498   -7.8331   17.5820 C   0  0  0  0  0  0  0  0  0  0  0  0
   17.0504   -8.2210   17.0604 N   0  0  0  0  0  0  0  0  0  0  0  0
   15.8160   -8.4158   17.7835 C   0  0  0  0  0  0  0  0  0  0  0  0
   17.0857   -8.4758   15.7446 N   0  0  0  0  0  0  0  0  0  0  0  0
   18.3213   -8.1027   15.3591 C   0  0  0  0  0  0  0  0  0  0  0  0
  1  2  1  0
  2  3  2  0
  3  4  1  0
  4  5  2  0
  5  6  1  0
  6  7  1  6
  6  8  1  0
  9  8  1  6
  9 10  1  0
 10 11  1  0
 11 12  1  0
 12 13  1  0
 13 14  2  0
 14 15  1  0
 15 16  2  0
 16 17  1  0
 17 18  1  0
 17 19  1  0
 17 20  1  0
 16 21  1  0
 21 22  2  0
 22 23  1  0
 12 24  1  0
  5 25  1  0
 25 26  2  0
 26 27  1  0
 27 28  1  0
 27 29  1  0
 29 30  2  0
 30  2  1  0
 24  9  1  0
 30 25  1  0
 22 13  1  0
M  END
>  <energy_score>  (1100) 
-38.377932

>  <inchikey>  (1100) 
None

>  <smiles>  (1100) 
None

>  <ref_pdb>  (1100) 
A1105b

>  <alias>  (1100) 
None

>  <HIPPO Pose ID>  (1100) 
498744

>  <name>  (1100) 
P498744

>  <HIPPO Compound ID>  (1100) 
293483

>  <ref_mols>  (1100) 
A0497a,A1105b

>  <distance_score>  (1100) 
1.09449

>  <inspiration_score>  (1100) 
None

$$$$
P498745
     RDKit          3D

 30 33  0  0  0  0  0  0  0  0999 V2000
   18.8820  -10.1072   13.9912 C   0  0  0  0  0  0  0  0  0  0  0  0
   19.2781   -8.8262   14.6475 C   0  0  0  0  0  0  0  0  0  0  0  0
   20.4651   -8.1459   14.2824 C   0  0  0  0  0  0  0  0  0  0  0  0
   20.8834   -6.9071   14.8526 C   0  0  0  0  0  0  0  0  0  0  0  0
   20.1753   -6.1956   15.8584 C   0  0  0  0  0  0  0  0  0  0  0  0
   20.6035   -4.7855   16.2019 C   0  0  1  0  0  0  0  0  0  0  0  0
   19.5594   -4.1433   16.8988 O   0  0  0  0  0  0  0  0  0  0  0  0
   21.9099   -4.6529   16.8593 N   0  0  0  0  0  0  0  0  0  0  0  0
   21.8155   -3.9587   18.1410 C   0  0  1  0  0  0  0  0  0  0  0  0
   23.1456   -3.7537   18.8851 C   0  0  0  0  0  0  0  0  0  0  0  0
   22.8573   -2.6121   19.9050 C   0  0  0  0  0  0  0  0  0  0  0  0
   21.4490   -2.1783   19.6691 N   0  0  0  0  0  0  0  0  0  0  0  0
   20.5122   -2.9759   20.4160 C   0  0  0  0  0  0  0  0  0  0  0  0
   21.0327   -3.9802   21.1608 N   0  0  0  0  0  0  0  0  0  0  0  0
   20.2656   -5.0374   21.4691 C   0  0  0  0  0  0  0  0  0  0  0  0
   18.9504   -5.1688   21.0867 C   0  0  0  0  0  0  0  0  0  0  0  0
   18.2866   -6.4703   21.3694 C   0  0  0  0  0  0  0  0  0  0  0  0
   17.5306   -6.4293   22.5027 F   0  0  0  0  0  0  0  0  0  0  0  0
   19.1559   -7.5026   21.5576 F   0  0  0  0  0  0  0  0  0  0  0  0
   17.4569   -6.8753   20.3734 F   0  0  0  0  0  0  0  0  0  0  0  0
   18.3499   -4.0509   20.5009 C   0  0  0  0  0  0  0  0  0  0  0  0
   19.1238   -2.9221   20.2051 C   0  0  0  0  0  0  0  0  0  0  0  0
   18.3232   -1.5059   19.6421 Cl  0  0  0  0  0  0  0  0  0  0  0  0
   21.2570   -2.5072   18.2271 C   0  0  0  0  0  0  0  0  0  0  0  0
   19.0201   -6.9183   16.2343 C   0  0  0  0  0  0  0  0  0  0  0  0
   18.0716   -6.5642   17.1607 C   0  0  0  0  0  0  0  0  0  0  0  0
   17.0990   -7.5165   17.0792 N   0  0  0  0  0  0  0  0  0  0  0  0
   15.8423   -7.5219   17.7905 C   0  0  0  0  0  0  0  0  0  0  0  0
   17.3755   -8.5128   16.2189 N   0  0  0  0  0  0  0  0  0  0  0  0
   18.5498   -8.1655   15.6588 C   0  0  0  0  0  0  0  0  0  0  0  0
  1  2  1  0
  2  3  2  0
  3  4  1  0
  4  5  2  0
  5  6  1  0
  6  7  1  1
  6  8  1  0
  9  8  1  6
  9 10  1  0
 10 11  1  0
 11 12  1  0
 12 13  1  0
 13 14  2  0
 14 15  1  0
 15 16  2  0
 16 17  1  0
 17 18  1  0
 17 19  1  0
 17 20  1  0
 16 21  1  0
 21 22  2  0
 22 23  1  0
 12 24  1  0
  5 25  1  0
 25 26  2  0
 26 27  1  0
 27 28  1  0
 27 29  1  0
 29 30  2  0
 30  2  1  0
 24  9  1  0
 30 25  1  0
 22 13  1  0
M  END
>  <energy_score>  (1101) 
-29.290988

>  <inchikey>  (1101) 
None

>  <smiles>  (1101) 
None

>  <ref_pdb>  (1101) 
A1105b

>  <alias>  (1101) 
None

>  <HIPPO Pose ID>  (1101) 
498745

>  <name>  (1101) 
P498745

>  <HIPPO Compound ID>  (1101) 
293483

>  <ref_mols>  (1101) 
A0497a,A1105b

>  <distance_score>  (1101) 
1.45622

>  <inspiration_score>  (1101) 
None

$$$$
P498746
     RDKit          3D

 30 33  0  0  0  0  0  0  0  0999 V2000
   18.7703   -2.0656   19.3290 C   0  0  0  0  0  0  0  0  0  0  0  0
   18.1460   -3.0042   18.4651 O   0  0  0  0  0  0  0  0  0  0  0  0
   17.4727   -4.0317   19.1750 C   0  0  2  0  0  0  0  0  0  0  0  0
   18.4084   -4.8666   19.9112 N   0  0  0  0  0  0  0  0  0  0  0  0
   19.4604   -5.4638   19.1082 C   0  0  2  0  0  0  0  0  0  0  0  0
   20.8550   -5.3579   19.7129 C   0  0  0  0  0  0  0  0  0  0  0  0
   21.7653   -5.9244   18.5947 C   0  0  0  0  0  0  0  0  0  0  0  0
   20.9813   -5.8820   17.3524 N   0  0  0  0  0  0  0  0  0  0  0  0
   20.5359   -6.9911   16.6329 C   0  0  0  0  0  0  0  0  0  0  0  0
   20.2636   -6.7093   15.3332 N   0  0  0  0  0  0  0  0  0  0  0  0
   19.4423   -7.5096   14.6280 C   0  0  0  0  0  0  0  0  0  0  0  0
   18.8397   -8.6299   15.1462 C   0  0  0  0  0  0  0  0  0  0  0  0
   17.9094   -9.4359   14.3025 C   0  0  0  0  0  0  0  0  0  0  0  0
   17.0718  -10.2225   15.0345 F   0  0  0  0  0  0  0  0  0  0  0  0
   17.1103   -8.6829   13.4961 F   0  0  0  0  0  0  0  0  0  0  0  0
   18.5756  -10.2856   13.4716 F   0  0  0  0  0  0  0  0  0  0  0  0
   19.2356   -9.0143   16.4198 C   0  0  0  0  0  0  0  0  0  0  0  0
   20.1101   -8.2170   17.1664 C   0  0  0  0  0  0  0  0  0  0  0  0
   20.4962   -8.8512   18.7305 Cl  0  0  0  0  0  0  0  0  0  0  0  0
   19.7703   -5.0686   17.6471 C   0  0  0  0  0  0  0  0  0  0  0  0
   16.4015   -4.6920   18.3066 C   0  0  0  0  0  0  0  0  0  0  0  0
   15.3597   -3.8224   17.8435 C   0  0  0  0  0  0  0  0  0  0  0  0
   14.1536   -4.2169   17.2017 C   0  0  0  0  0  0  0  0  0  0  0  0
   13.8399   -5.5528   16.9397 C   0  0  0  0  0  0  0  0  0  0  0  0
   14.8142   -6.4663   17.3532 C   0  0  0  0  0  0  0  0  0  0  0  0
   14.7832   -7.8057   17.2514 N   0  0  0  0  0  0  0  0  0  0  0  0
   15.8416   -8.2119   17.9610 N   0  0  0  0  0  0  0  0  0  0  0  0
   15.9953   -9.6190   18.2393 C   0  0  0  0  0  0  0  0  0  0  0  0
   16.6409   -7.1986   18.4099 C   0  0  0  0  0  0  0  0  0  0  0  0
   16.0437   -6.0307   18.0074 C   0  0  0  0  0  0  0  0  0  0  0  0
  1  2  1  0
  2  3  1  0
  3  4  1  6
  5  4  1  1
  5  6  1  0
  6  7  1  0
  7  8  1  0
  8  9  1  0
  9 10  2  0
 10 11  1  0
 11 12  2  0
 12 13  1  0
 13 14  1  0
 13 15  1  0
 13 16  1  0
 12 17  1  0
 17 18  2  0
 18 19  1  0
  8 20  1  0
  3 21  1  0
 21 22  2  0
 22 23  1  0
 23 24  2  0
 24 25  1  0
 25 26  2  0
 26 27  1  0
 27 28  1  0
 27 29  1  0
 29 30  2  0
 20  5  1  0
 30 21  1  0
 18  9  1  0
 30 25  1  0
M  END
>  <energy_score>  (1102) 
-4.860317

>  <inchikey>  (1102) 
None

>  <smiles>  (1102) 
None

>  <ref_pdb>  (1102) 
A1105b

>  <alias>  (1102) 
None

>  <HIPPO Pose ID>  (1102) 
498746

>  <name>  (1102) 
P498746

>  <HIPPO Compound ID>  (1102) 
293485

>  <ref_mols>  (1102) 
A0497a,A1105b

>  <distance_score>  (1102) 
1.804849

>  <inspiration_score>  (1102) 
None

$$$$
P498747
     RDKit          3D

 30 33  0  0  0  0  0  0  0  0999 V2000
   18.9298   -2.8671   17.6821 C   0  0  0  0  0  0  0  0  0  0  0  0
   18.2832   -3.3489   18.8387 O   0  0  0  0  0  0  0  0  0  0  0  0
   17.9744   -4.7296   18.7685 C   0  0  1  0  0  0  0  0  0  0  0  0
   18.0872   -5.1835   20.1516 N   0  0  0  0  0  0  0  0  0  0  0  0
   19.4387   -5.5459   20.6150 C   0  0  2  0  0  0  0  0  0  0  0  0
   20.6249   -4.6323   20.3169 C   0  0  0  0  0  0  0  0  0  0  0  0
   21.3116   -5.2214   19.0770 C   0  0  0  0  0  0  0  0  0  0  0  0
   20.8657   -6.6212   18.9797 N   0  0  0  0  0  0  0  0  0  0  0  0
   20.4796   -7.0995   17.7167 C   0  0  0  0  0  0  0  0  0  0  0  0
   20.4200   -6.2324   16.6800 N   0  0  0  0  0  0  0  0  0  0  0  0
   19.8847   -6.6225   15.5018 C   0  0  0  0  0  0  0  0  0  0  0  0
   19.3886   -7.8845   15.2646 C   0  0  0  0  0  0  0  0  0  0  0  0
   18.8257   -8.2605   13.9324 C   0  0  0  0  0  0  0  0  0  0  0  0
   18.9877   -9.5885   13.6560 F   0  0  0  0  0  0  0  0  0  0  0  0
   19.4090   -7.6085   12.8875 F   0  0  0  0  0  0  0  0  0  0  0  0
   17.4893   -8.0353   13.8223 F   0  0  0  0  0  0  0  0  0  0  0  0
   19.5192   -8.8092   16.2919 C   0  0  0  0  0  0  0  0  0  0  0  0
   20.1028   -8.4338   17.5024 C   0  0  0  0  0  0  0  0  0  0  0  0
   20.3470   -9.7014   18.6609 Cl  0  0  0  0  0  0  0  0  0  0  0  0
   19.9456   -6.9082   20.0972 C   0  0  0  0  0  0  0  0  0  0  0  0
   16.5912   -4.9767   18.2030 C   0  0  0  0  0  0  0  0  0  0  0  0
   15.6308   -3.9466   17.9890 C   0  0  0  0  0  0  0  0  0  0  0  0
   14.3230   -4.1418   17.4469 C   0  0  0  0  0  0  0  0  0  0  0  0
   13.8229   -5.3956   17.0662 C   0  0  0  0  0  0  0  0  0  0  0  0
   14.7107   -6.4523   17.2876 C   0  0  0  0  0  0  0  0  0  0  0  0
   14.5493   -7.7649   17.0383 N   0  0  0  0  0  0  0  0  0  0  0  0
   15.6709   -8.3322   17.5138 N   0  0  0  0  0  0  0  0  0  0  0  0
   15.7905   -9.7692   17.4945 C   0  0  0  0  0  0  0  0  0  0  0  0
   16.5990   -7.4470   17.9726 C   0  0  0  0  0  0  0  0  0  0  0  0
   16.0292   -6.2122   17.8306 C   0  0  0  0  0  0  0  0  0  0  0  0
  1  2  1  0
  2  3  1  0
  3  4  1  1
  5  4  1  6
  5  6  1  0
  6  7  1  0
  7  8  1  0
  8  9  1  0
  9 10  2  0
 10 11  1  0
 11 12  2  0
 12 13  1  0
 13 14  1  0
 13 15  1  0
 13 16  1  0
 12 17  1  0
 17 18  2  0
 18 19  1  0
  8 20  1  0
  3 21  1  0
 21 22  2  0
 22 23  1  0
 23 24  2  0
 24 25  1  0
 25 26  2  0
 26 27  1  0
 27 28  1  0
 27 29  1  0
 29 30  2  0
 20  5  1  0
 30 21  1  0
 18  9  1  0
 30 25  1  0
M  END
>  <energy_score>  (1103) 
-50.392232

>  <inchikey>  (1103) 
None

>  <smiles>  (1103) 
None

>  <ref_pdb>  (1103) 
A1105b

>  <alias>  (1103) 
None

>  <HIPPO Pose ID>  (1103) 
498747

>  <name>  (1103) 
P498747

>  <HIPPO Compound ID>  (1103) 
293485

>  <ref_mols>  (1103) 
A0497a,A1105b

>  <distance_score>  (1103) 
1.856823

>  <inspiration_score>  (1103) 
None

$$$$
P498748
     RDKit          3D

 30 33  0  0  0  0  0  0  0  0999 V2000
   18.6697   -2.8412   17.7974 C   0  0  0  0  0  0  0  0  0  0  0  0
   18.6323   -4.2335   18.0122 O   0  0  0  0  0  0  0  0  0  0  0  0
   17.6808   -4.6566   18.9600 C   0  0  2  0  0  0  0  0  0  0  0  0
   18.2257   -5.7963   19.6750 N   0  0  0  0  0  0  0  0  0  0  0  0
   19.4652   -5.6510   20.4572 C   0  0  2  0  0  0  0  0  0  0  0  0
   20.4203   -4.4792   20.2347 C   0  0  0  0  0  0  0  0  0  0  0  0
   21.2832   -4.8767   19.0234 C   0  0  0  0  0  0  0  0  0  0  0  0
   21.1311   -6.3425   18.8638 N   0  0  0  0  0  0  0  0  0  0  0  0
   20.5634   -6.7598   17.6355 C   0  0  0  0  0  0  0  0  0  0  0  0
   19.5601   -7.6806   17.6977 N   0  0  0  0  0  0  0  0  0  0  0  0
   18.9625   -8.1198   16.5688 C   0  0  0  0  0  0  0  0  0  0  0  0
   19.2804   -7.6727   15.3137 C   0  0  0  0  0  0  0  0  0  0  0  0
   18.6165   -8.2736   14.1194 C   0  0  0  0  0  0  0  0  0  0  0  0
   18.8590   -9.6146   14.0291 F   0  0  0  0  0  0  0  0  0  0  0  0
   17.2616   -8.1572   14.1245 F   0  0  0  0  0  0  0  0  0  0  0  0
   19.0332   -7.7581   12.9277 F   0  0  0  0  0  0  0  0  0  0  0  0
   20.3180   -6.7498   15.2263 C   0  0  0  0  0  0  0  0  0  0  0  0
   20.9917   -6.3165   16.3754 C   0  0  0  0  0  0  0  0  0  0  0  0
   22.4071   -5.3497   16.1178 Cl  0  0  0  0  0  0  0  0  0  0  0  0
   20.4374   -6.8172   20.0871 C   0  0  0  0  0  0  0  0  0  0  0  0
   16.3793   -5.0026   18.2373 C   0  0  0  0  0  0  0  0  0  0  0  0
   15.4828   -3.9430   17.8948 C   0  0  0  0  0  0  0  0  0  0  0  0
   14.2109   -4.1002   17.2770 C   0  0  0  0  0  0  0  0  0  0  0  0
   13.6772   -5.3455   16.9373 C   0  0  0  0  0  0  0  0  0  0  0  0
   14.4841   -6.4334   17.2748 C   0  0  0  0  0  0  0  0  0  0  0  0
   14.2339   -7.7424   17.0964 N   0  0  0  0  0  0  0  0  0  0  0  0
   15.2375   -8.3538   17.7411 N   0  0  0  0  0  0  0  0  0  0  0  0
   15.2090   -9.7889   17.8805 C   0  0  0  0  0  0  0  0  0  0  0  0
   16.1966   -7.5096   18.2174 C   0  0  0  0  0  0  0  0  0  0  0  0
   15.7804   -6.2418   17.8993 C   0  0  0  0  0  0  0  0  0  0  0  0
  1  2  1  0
  2  3  1  0
  3  4  1  6
  5  4  1  6
  5  6  1  0
  6  7  1  0
  7  8  1  0
  8  9  1  0
  9 10  2  0
 10 11  1  0
 11 12  2  0
 12 13  1  0
 13 14  1  0
 13 15  1  0
 13 16  1  0
 12 17  1  0
 17 18  2  0
 18 19  1  0
  8 20  1  0
  3 21  1  0
 21 22  2  0
 22 23  1  0
 23 24  2  0
 24 25  1  0
 25 26  2  0
 26 27  1  0
 27 28  1  0
 27 29  1  0
 29 30  2  0
 20  5  1  0
 30 21  1  0
 18  9  1  0
 30 25  1  0
M  END
>  <energy_score>  (1104) 
-37.311643

>  <inchikey>  (1104) 
None

>  <smiles>  (1104) 
None

>  <ref_pdb>  (1104) 
A1105b

>  <alias>  (1104) 
None

>  <HIPPO Pose ID>  (1104) 
498748

>  <name>  (1104) 
P498748

>  <HIPPO Compound ID>  (1104) 
293485

>  <ref_mols>  (1104) 
A0497a,A1105b

>  <distance_score>  (1104) 
1.611796

>  <inspiration_score>  (1104) 
None

$$$$
P498749
     RDKit          3D

 30 33  0  0  0  0  0  0  0  0999 V2000
   17.9699   -2.3498   19.5746 C   0  0  0  0  0  0  0  0  0  0  0  0
   18.2698   -3.1463   18.4411 O   0  0  0  0  0  0  0  0  0  0  0  0
   17.9808   -4.5401   18.5587 C   0  0  1  0  0  0  0  0  0  0  0  0
   18.2851   -5.0580   19.8945 N   0  0  0  0  0  0  0  0  0  0  0  0
   19.7148   -5.2210   20.2379 C   0  0  2  0  0  0  0  0  0  0  0  0
   20.7976   -4.2929   19.6827 C   0  0  0  0  0  0  0  0  0  0  0  0
   21.2368   -4.9336   18.3630 C   0  0  0  0  0  0  0  0  0  0  0  0
   20.9926   -6.3801   18.5396 N   0  0  0  0  0  0  0  0  0  0  0  0
   20.5016   -7.0757   17.4273 C   0  0  0  0  0  0  0  0  0  0  0  0
   20.2472   -6.3866   16.2962 N   0  0  0  0  0  0  0  0  0  0  0  0
   19.5761   -6.9738   15.2838 C   0  0  0  0  0  0  0  0  0  0  0  0
   19.1080   -8.2647   15.3173 C   0  0  0  0  0  0  0  0  0  0  0  0
   18.3659   -8.8598   14.1660 C   0  0  0  0  0  0  0  0  0  0  0  0
   19.1870   -9.5643   13.3374 F   0  0  0  0  0  0  0  0  0  0  0  0
   17.7260   -7.9610   13.3705 F   0  0  0  0  0  0  0  0  0  0  0  0
   17.4092   -9.7449   14.5679 F   0  0  0  0  0  0  0  0  0  0  0  0
   19.4842   -9.0259   16.4156 C   0  0  0  0  0  0  0  0  0  0  0  0
   20.2141   -8.4471   17.4554 C   0  0  0  0  0  0  0  0  0  0  0  0
   20.7284   -9.5181   18.7182 Cl  0  0  0  0  0  0  0  0  0  0  0  0
   20.2914   -6.5953   19.8189 C   0  0  0  0  0  0  0  0  0  0  0  0
   16.5732   -4.8974   18.1031 C   0  0  0  0  0  0  0  0  0  0  0  0
   15.5588   -3.9338   17.8385 C   0  0  0  0  0  0  0  0  0  0  0  0
   14.2488   -4.2209   17.3481 C   0  0  0  0  0  0  0  0  0  0  0  0
   13.8049   -5.5185   17.0617 C   0  0  0  0  0  0  0  0  0  0  0  0
   14.7454   -6.5161   17.3314 C   0  0  0  0  0  0  0  0  0  0  0  0
   14.6402   -7.8463   17.1658 N   0  0  0  0  0  0  0  0  0  0  0  0
   15.7967   -8.3349   17.6399 N   0  0  0  0  0  0  0  0  0  0  0  0
   15.9701   -9.7651   17.7120 C   0  0  0  0  0  0  0  0  0  0  0  0
   16.6984   -7.3822   18.0144 C   0  0  0  0  0  0  0  0  0  0  0  0
   16.0625   -6.1834   17.8290 C   0  0  0  0  0  0  0  0  0  0  0  0
  1  2  1  0
  2  3  1  0
  3  4  1  1
  5  4  1  6
  5  6  1  0
  6  7  1  0
  7  8  1  0
  8  9  1  0
  9 10  2  0
 10 11  1  0
 11 12  2  0
 12 13  1  0
 13 14  1  0
 13 15  1  0
 13 16  1  0
 12 17  1  0
 17 18  2  0
 18 19  1  0
  8 20  1  0
  3 21  1  0
 21 22  2  0
 22 23  1  0
 23 24  2  0
 24 25  1  0
 25 26  2  0
 26 27  1  0
 27 28  1  0
 27 29  1  0
 29 30  2  0
 20  5  1  0
 30 21  1  0
 18  9  1  0
 30 25  1  0
M  END
>  <energy_score>  (1105) 
-60.818536

>  <inchikey>  (1105) 
None

>  <smiles>  (1105) 
None

>  <ref_pdb>  (1105) 
A1105b

>  <alias>  (1105) 
None

>  <HIPPO Pose ID>  (1105) 
498749

>  <name>  (1105) 
P498749

>  <HIPPO Compound ID>  (1105) 
293485

>  <ref_mols>  (1105) 
A0497a,A1105b

>  <distance_score>  (1105) 
1.802273

>  <inspiration_score>  (1105) 
None

$$$$
P498750
     RDKit          3D

 30 33  0  0  0  0  0  0  0  0999 V2000
   19.1629  -11.4358   13.9207 C   0  0  0  0  0  0  0  0  0  0  0  0
   18.4226  -10.5167   14.7088 O   0  0  0  0  0  0  0  0  0  0  0  0
   19.0137   -9.3134   14.9671 C   0  0  0  0  0  0  0  0  0  0  0  0
   20.2544   -8.8603   14.4706 C   0  0  0  0  0  0  0  0  0  0  0  0
   20.8015   -7.5775   14.7644 C   0  0  0  0  0  0  0  0  0  0  0  0
   20.1777   -6.5938   15.5731 C   0  0  0  0  0  0  0  0  0  0  0  0
   20.7313   -5.1957   15.6266 C   0  0  2  0  0  0  0  0  0  0  0  0
   20.8648   -4.7854   14.2749 O   0  0  0  0  0  0  0  0  0  0  0  0
   22.0092   -5.1129   16.3229 N   0  0  0  0  0  0  0  0  0  0  0  0
   22.4709   -3.7158   16.5291 C   0  0  2  0  0  0  0  0  0  0  0  0
   23.6374   -3.6893   17.5185 C   0  0  0  0  0  0  0  0  0  0  0  0
   22.9488   -3.7708   18.8808 C   0  0  0  0  0  0  0  0  0  0  0  0
   21.5957   -3.2059   18.6663 N   0  0  0  0  0  0  0  0  0  0  0  0
   20.6048   -3.6522   19.5093 C   0  0  0  0  0  0  0  0  0  0  0  0
   21.0781   -4.3058   20.6009 N   0  0  0  0  0  0  0  0  0  0  0  0
   20.2629   -4.8290   21.5409 C   0  0  0  0  0  0  0  0  0  0  0  0
   20.9527   -5.5387   22.6722 C   0  0  0  0  0  0  0  0  0  0  0  0
   18.8917   -4.7037   21.4656 C   0  0  0  0  0  0  0  0  0  0  0  0
   18.0771   -5.2502   22.4980 C   0  0  0  0  0  0  0  0  0  0  0  0
   17.4576   -5.7601   23.3366 N   0  0  0  0  0  0  0  0  0  0  0  0
   18.3648   -4.0178   20.3799 C   0  0  0  0  0  0  0  0  0  0  0  0
   19.2191   -3.4884   19.3995 C   0  0  0  0  0  0  0  0  0  0  0  0
   18.4160   -2.6344   18.1595 Cl  0  0  0  0  0  0  0  0  0  0  0  0
   21.4815   -2.7830   17.2717 C   0  0  0  0  0  0  0  0  0  0  0  0
   18.9697   -7.0907   16.0940 C   0  0  0  0  0  0  0  0  0  0  0  0
   18.0861   -6.4302   16.9068 C   0  0  0  0  0  0  0  0  0  0  0  0
   17.0229   -7.2724   17.0475 N   0  0  0  0  0  0  0  0  0  0  0  0
   15.7840   -6.9885   17.7325 C   0  0  0  0  0  0  0  0  0  0  0  0
   17.1791   -8.4640   16.4462 N   0  0  0  0  0  0  0  0  0  0  0  0
   18.3670   -8.3784   15.8119 C   0  0  0  0  0  0  0  0  0  0  0  0
  1  2  1  0
  2  3  1  0
  3  4  2  0
  4  5  1  0
  5  6  2  0
  6  7  1  0
  7  8  1  6
  7  9  1  0
 10  9  1  1
 10 11  1  0
 11 12  1  0
 12 13  1  0
 13 14  1  0
 14 15  2  0
 15 16  1  0
 16 17  1  0
 16 18  2  0
 18 19  1  0
 19 20  3  0
 18 21  1  0
 21 22  2  0
 22 23  1  0
 13 24  1  0
  6 25  1  0
 25 26  2  0
 26 27  1  0
 27 28  1  0
 27 29  1  0
 29 30  2  0
 30  3  1  0
 24 10  1  0
 30 25  1  0
 22 14  1  0
M  END
>  <energy_score>  (1106) 
-48.109971

>  <inchikey>  (1106) 
None

>  <smiles>  (1106) 
None

>  <ref_pdb>  (1106) 
A1105b

>  <alias>  (1106) 
None

>  <HIPPO Pose ID>  (1106) 
498750

>  <name>  (1106) 
P498750

>  <HIPPO Compound ID>  (1106) 
293486

>  <ref_mols>  (1106) 
A0497a,A1105b

>  <distance_score>  (1106) 
1.543653

>  <inspiration_score>  (1106) 
None

$$$$
P498751
     RDKit          3D

 30 33  0  0  0  0  0  0  0  0999 V2000
   17.0261   -9.5394   13.2877 C   0  0  0  0  0  0  0  0  0  0  0  0
   18.2452   -8.8327   13.0895 O   0  0  0  0  0  0  0  0  0  0  0  0
   18.7739   -8.2685   14.2359 C   0  0  0  0  0  0  0  0  0  0  0  0
   20.1320   -7.8924   14.1829 C   0  0  0  0  0  0  0  0  0  0  0  0
   20.8363   -7.3206   15.2844 C   0  0  0  0  0  0  0  0  0  0  0  0
   20.2587   -7.0183   16.5462 C   0  0  0  0  0  0  0  0  0  0  0  0
   21.0429   -6.4781   17.7050 C   0  0  1  0  0  0  0  0  0  0  0  0
   21.5615   -7.5914   18.4052 O   0  0  0  0  0  0  0  0  0  0  0  0
   22.1953   -5.6390   17.4165 N   0  0  0  0  0  0  0  0  0  0  0  0
   21.9227   -4.4287   16.6039 C   0  0  2  0  0  0  0  0  0  0  0  0
   22.9092   -3.3206   16.9876 C   0  0  0  0  0  0  0  0  0  0  0  0
   22.2774   -2.6953   18.2385 C   0  0  0  0  0  0  0  0  0  0  0  0
   20.8234   -2.8988   18.0797 N   0  0  0  0  0  0  0  0  0  0  0  0
   20.1046   -3.3580   19.1878 C   0  0  0  0  0  0  0  0  0  0  0  0
   20.8095   -3.7577   20.2745 N   0  0  0  0  0  0  0  0  0  0  0  0
   20.1784   -4.2975   21.3501 C   0  0  0  0  0  0  0  0  0  0  0  0
   21.0742   -4.7837   22.4544 C   0  0  0  0  0  0  0  0  0  0  0  0
   18.7996   -4.3974   21.4242 C   0  0  0  0  0  0  0  0  0  0  0  0
   18.1481   -5.0206   22.5315 C   0  0  0  0  0  0  0  0  0  0  0  0
   17.6063   -5.6040   23.3766 N   0  0  0  0  0  0  0  0  0  0  0  0
   18.0633   -3.9106   20.3564 C   0  0  0  0  0  0  0  0  0  0  0  0
   18.7064   -3.4474   19.2146 C   0  0  0  0  0  0  0  0  0  0  0  0
   17.6724   -3.0809   17.9030 Cl  0  0  0  0  0  0  0  0  0  0  0  0
   20.5999   -3.6732   16.8434 C   0  0  0  0  0  0  0  0  0  0  0  0
   18.8976   -7.3740   16.5519 C   0  0  0  0  0  0  0  0  0  0  0  0
   18.0249   -7.2126   17.5971 C   0  0  0  0  0  0  0  0  0  0  0  0
   16.8303   -7.6834   17.1376 N   0  0  0  0  0  0  0  0  0  0  0  0
   15.5746   -7.6655   17.8520 C   0  0  0  0  0  0  0  0  0  0  0  0
   16.8805   -8.2079   15.8992 N   0  0  0  0  0  0  0  0  0  0  0  0
   18.1420   -7.9877   15.4740 C   0  0  0  0  0  0  0  0  0  0  0  0
  1  2  1  0
  2  3  1  0
  3  4  2  0
  4  5  1  0
  5  6  2  0
  6  7  1  0
  7  8  1  6
  7  9  1  0
 10  9  1  1
 10 11  1  0
 11 12  1  0
 12 13  1  0
 13 14  1  0
 14 15  2  0
 15 16  1  0
 16 17  1  0
 16 18  2  0
 18 19  1  0
 19 20  3  0
 18 21  1  0
 21 22  2  0
 22 23  1  0
 13 24  1  0
  6 25  1  0
 25 26  2  0
 26 27  1  0
 27 28  1  0
 27 29  1  0
 29 30  2  0
 30  3  1  0
 24 10  1  0
 30 25  1  0
 22 14  1  0
M  END
>  <energy_score>  (1107) 
-69.15962

>  <inchikey>  (1107) 
None

>  <smiles>  (1107) 
None

>  <ref_pdb>  (1107) 
A1105b

>  <alias>  (1107) 
None

>  <HIPPO Pose ID>  (1107) 
498751

>  <name>  (1107) 
P498751

>  <HIPPO Compound ID>  (1107) 
293486

>  <ref_mols>  (1107) 
A0497a,A1105b

>  <distance_score>  (1107) 
1.212061

>  <inspiration_score>  (1107) 
None

$$$$
P498752
     RDKit          3D

 30 33  0  0  0  0  0  0  0  0999 V2000
   17.0396   -9.2736   13.0370 C   0  0  0  0  0  0  0  0  0  0  0  0
   18.0723   -8.3152   12.8321 O   0  0  0  0  0  0  0  0  0  0  0  0
   18.7836   -8.0019   13.9769 C   0  0  0  0  0  0  0  0  0  0  0  0
   20.0873   -7.5027   13.7963 C   0  0  0  0  0  0  0  0  0  0  0  0
   20.9619   -7.1770   14.8738 C   0  0  0  0  0  0  0  0  0  0  0  0
   20.6460   -7.3079   16.2564 C   0  0  0  0  0  0  0  0  0  0  0  0
   21.7596   -7.1310   17.2701 C   0  0  2  0  0  0  0  0  0  0  0  0
   22.3629   -8.3992   17.4307 O   0  0  0  0  0  0  0  0  0  0  0  0
   21.2956   -6.6687   18.5508 N   0  0  0  0  0  0  0  0  0  0  0  0
   22.3442   -6.5213   19.5833 C   0  0  1  0  0  0  0  0  0  0  0  0
   22.9249   -5.0965   19.6859 C   0  0  0  0  0  0  0  0  0  0  0  0
   22.3310   -4.4806   20.9726 C   0  0  0  0  0  0  0  0  0  0  0  0
   21.1868   -5.3485   21.3379 N   0  0  0  0  0  0  0  0  0  0  0  0
   19.9981   -4.9871   20.6457 C   0  0  0  0  0  0  0  0  0  0  0  0
   20.0553   -3.9022   19.8311 N   0  0  0  0  0  0  0  0  0  0  0  0
   19.0601   -3.6416   18.9427 C   0  0  0  0  0  0  0  0  0  0  0  0
   19.2249   -2.3973   18.1465 C   0  0  0  0  0  0  0  0  0  0  0  0
   17.9748   -4.4767   18.7900 C   0  0  0  0  0  0  0  0  0  0  0  0
   16.8936   -4.2549   17.8819 C   0  0  0  0  0  0  0  0  0  0  0  0
   15.9393   -4.1596   17.2297 N   0  0  0  0  0  0  0  0  0  0  0  0
   17.9104   -5.5787   19.6308 C   0  0  0  0  0  0  0  0  0  0  0  0
   18.8509   -5.7831   20.6354 C   0  0  0  0  0  0  0  0  0  0  0  0
   18.5179   -7.0318   21.7854 Cl  0  0  0  0  0  0  0  0  0  0  0  0
   21.6784   -6.7025   20.9693 C   0  0  0  0  0  0  0  0  0  0  0  0
   19.3130   -7.7509   16.3996 C   0  0  0  0  0  0  0  0  0  0  0  0
   18.6578   -8.0443   17.5671 C   0  0  0  0  0  0  0  0  0  0  0  0
   17.3932   -8.4006   17.2000 N   0  0  0  0  0  0  0  0  0  0  0  0
   16.2967   -8.7366   18.0776 C   0  0  0  0  0  0  0  0  0  0  0  0
   17.2126   -8.4952   15.8743 N   0  0  0  0  0  0  0  0  0  0  0  0
   18.3785   -8.0892   15.3311 C   0  0  0  0  0  0  0  0  0  0  0  0
  1  2  1  0
  2  3  1  0
  3  4  2  0
  4  5  1  0
  5  6  2  0
  6  7  1  0
  7  8  1  1
  7  9  1  0
 10  9  1  6
 10 11  1  0
 11 12  1  0
 12 13  1  0
 13 14  1  0
 14 15  2  0
 15 16  1  0
 16 17  1  0
 16 18  2  0
 18 19  1  0
 19 20  3  0
 18 21  1  0
 21 22  2  0
 22 23  1  0
 13 24  1  0
  6 25  1  0
 25 26  2  0
 26 27  1  0
 27 28  1  0
 27 29  1  0
 29 30  2  0
 30  3  1  0
 24 10  1  0
 30 25  1  0
 22 14  1  0
M  END
>  <energy_score>  (1108) 
-50.39578

>  <inchikey>  (1108) 
None

>  <smiles>  (1108) 
None

>  <ref_pdb>  (1108) 
A1105b

>  <alias>  (1108) 
None

>  <HIPPO Pose ID>  (1108) 
498752

>  <name>  (1108) 
P498752

>  <HIPPO Compound ID>  (1108) 
293486

>  <ref_mols>  (1108) 
A0497a,A1105b

>  <distance_score>  (1108) 
1.342742

>  <inspiration_score>  (1108) 
None

$$$$
P498753
     RDKit          3D

 30 33  0  0  0  0  0  0  0  0999 V2000
   18.2611   -1.9947   19.4644 C   0  0  0  0  0  0  0  0  0  0  0  0
   18.1419   -3.0282   18.4975 O   0  0  0  0  0  0  0  0  0  0  0  0
   17.6139   -4.2123   19.0631 C   0  0  2  0  0  0  0  0  0  0  0  0
   18.6065   -5.2372   19.2708 N   0  0  0  0  0  0  0  0  0  0  0  0
   19.9773   -4.9239   19.6725 C   0  0  2  0  0  0  0  0  0  0  0  0
   20.8352   -3.9759   18.8337 C   0  0  0  0  0  0  0  0  0  0  0  0
   21.0815   -4.7544   17.5418 C   0  0  0  0  0  0  0  0  0  0  0  0
   21.1936   -6.1687   17.9767 N   0  0  0  0  0  0  0  0  0  0  0  0
   20.4860   -7.0735   17.1522 C   0  0  0  0  0  0  0  0  0  0  0  0
   19.7863   -6.6045   16.0947 N   0  0  0  0  0  0  0  0  0  0  0  0
   18.9189   -7.4098   15.4468 C   0  0  0  0  0  0  0  0  0  0  0  0
   18.7167   -8.7317   15.7572 C   0  0  0  0  0  0  0  0  0  0  0  0
   17.7365   -9.5500   14.9845 C   0  0  0  0  0  0  0  0  0  0  0  0
   17.2902  -10.6518   15.6510 F   0  0  0  0  0  0  0  0  0  0  0  0
   16.6212   -8.8698   14.5919 F   0  0  0  0  0  0  0  0  0  0  0  0
   18.2829  -10.0299   13.8280 F   0  0  0  0  0  0  0  0  0  0  0  0
   19.5385   -9.2648   16.7414 C   0  0  0  0  0  0  0  0  0  0  0  0
   20.4453   -8.4476   17.4231 C   0  0  0  0  0  0  0  0  0  0  0  0
   21.4927   -9.2322   18.5620 Cl  0  0  0  0  0  0  0  0  0  0  0  0
   20.8068   -6.2177   19.4161 C   0  0  0  0  0  0  0  0  0  0  0  0
   16.4175   -4.7176   18.2345 C   0  0  0  0  0  0  0  0  0  0  0  0
   15.4063   -3.7787   17.9123 C   0  0  0  0  0  0  0  0  0  0  0  0
   14.1949   -4.1421   17.3299 C   0  0  0  0  0  0  0  0  0  0  0  0
   13.9060   -5.4724   17.0631 C   0  0  0  0  0  0  0  0  0  0  0  0
   14.8796   -6.4210   17.3764 C   0  0  0  0  0  0  0  0  0  0  0  0
   16.1166   -6.0790   17.9243 C   0  0  0  0  0  0  0  0  0  0  0  0
   16.7476   -7.3363   18.0932 C   0  0  0  0  0  0  0  0  0  0  0  0
   16.0107   -8.3754   17.6942 N   0  0  0  0  0  0  0  0  0  0  0  0
   14.8721   -7.7906   17.2823 N   0  0  0  0  0  0  0  0  0  0  0  0
   13.7770   -8.6141   16.8311 C   0  0  0  0  0  0  0  0  0  0  0  0
  1  2  1  0
  2  3  1  0
  3  4  1  6
  5  4  1  6
  5  6  1  0
  6  7  1  0
  7  8  1  0
  8  9  1  0
  9 10  2  0
 10 11  1  0
 11 12  2  0
 12 13  1  0
 13 14  1  0
 13 15  1  0
 13 16  1  0
 12 17  1  0
 17 18  2  0
 18 19  1  0
  8 20  1  0
  3 21  1  0
 21 22  2  0
 22 23  1  0
 23 24  2  0
 24 25  1  0
 25 26  2  0
 26 27  1  0
 27 28  2  0
 28 29  1  0
 29 30  1  0
 20  5  1  0
 26 21  1  0
 18  9  1  0
 29 25  1  0
M  END
>  <energy_score>  (1109) 
-34.562002

>  <inchikey>  (1109) 
None

>  <smiles>  (1109) 
None

>  <ref_pdb>  (1109) 
A1105b

>  <alias>  (1109) 
None

>  <HIPPO Pose ID>  (1109) 
498753

>  <name>  (1109) 
P498753

>  <HIPPO Compound ID>  (1109) 
293487

>  <ref_mols>  (1109) 
A0497a,A1105b

>  <distance_score>  (1109) 
1.921381

>  <inspiration_score>  (1109) 
None

$$$$
P498754
     RDKit          3D

 30 33  0  0  0  0  0  0  0  0999 V2000
   17.9885   -2.4106   19.8252 C   0  0  0  0  0  0  0  0  0  0  0  0
   18.3206   -2.9987   18.5755 O   0  0  0  0  0  0  0  0  0  0  0  0
   18.1661   -4.4199   18.4926 C   0  0  1  0  0  0  0  0  0  0  0  0
   18.5920   -5.0913   19.7233 N   0  0  0  0  0  0  0  0  0  0  0  0
   20.0411   -5.1728   19.9986 C   0  0  2  0  0  0  0  0  0  0  0  0
   21.0488   -4.2450   19.3181 C   0  0  0  0  0  0  0  0  0  0  0  0
   21.4618   -4.9765   18.0424 C   0  0  0  0  0  0  0  0  0  0  0  0
   21.3165   -6.4120   18.3558 N   0  0  0  0  0  0  0  0  0  0  0  0
   20.7732   -7.2224   17.3500 C   0  0  0  0  0  0  0  0  0  0  0  0
   20.1487   -6.6218   16.3144 N   0  0  0  0  0  0  0  0  0  0  0  0
   19.4918   -7.3685   15.3997 C   0  0  0  0  0  0  0  0  0  0  0  0
   19.4140   -8.7442   15.4402 C   0  0  0  0  0  0  0  0  0  0  0  0
   18.6498   -9.4842   14.3918 C   0  0  0  0  0  0  0  0  0  0  0  0
   17.5470   -8.8205   13.9420 F   0  0  0  0  0  0  0  0  0  0  0  0
   18.2082  -10.7053   14.8037 F   0  0  0  0  0  0  0  0  0  0  0  0
   19.4058   -9.7248   13.2829 F   0  0  0  0  0  0  0  0  0  0  0  0
   20.1145   -9.3833   16.4620 C   0  0  0  0  0  0  0  0  0  0  0  0
   20.8034   -8.6270   17.4170 C   0  0  0  0  0  0  0  0  0  0  0  0
   21.6686   -9.4924   18.6414 Cl  0  0  0  0  0  0  0  0  0  0  0  0
   20.6581   -6.5569   19.6667 C   0  0  0  0  0  0  0  0  0  0  0  0
   16.7409   -4.8293   18.0836 C   0  0  0  0  0  0  0  0  0  0  0  0
   15.7157   -3.8683   17.9114 C   0  0  0  0  0  0  0  0  0  0  0  0
   14.4230   -4.2023   17.5075 C   0  0  0  0  0  0  0  0  0  0  0  0
   14.0753   -5.5227   17.2580 C   0  0  0  0  0  0  0  0  0  0  0  0
   15.0641   -6.4912   17.4366 C   0  0  0  0  0  0  0  0  0  0  0  0
   16.3672   -6.1764   17.8151 C   0  0  0  0  0  0  0  0  0  0  0  0
   17.0141   -7.4341   17.8401 C   0  0  0  0  0  0  0  0  0  0  0  0
   16.2199   -8.4573   17.5204 N   0  0  0  0  0  0  0  0  0  0  0  0
   15.0291   -7.8589   17.3220 N   0  0  0  0  0  0  0  0  0  0  0  0
   13.8642   -8.6593   17.0327 C   0  0  0  0  0  0  0  0  0  0  0  0
  1  2  1  0
  2  3  1  0
  3  4  1  1
  5  4  1  6
  5  6  1  0
  6  7  1  0
  7  8  1  0
  8  9  1  0
  9 10  2  0
 10 11  1  0
 11 12  2  0
 12 13  1  0
 13 14  1  0
 13 15  1  0
 13 16  1  0
 12 17  1  0
 17 18  2  0
 18 19  1  0
  8 20  1  0
  3 21  1  0
 21 22  2  0
 22 23  1  0
 23 24  2  0
 24 25  1  0
 25 26  2  0
 26 27  1  0
 27 28  2  0
 28 29  1  0
 29 30  1  0
 20  5  1  0
 26 21  1  0
 18  9  1  0
 29 25  1  0
M  END
>  <energy_score>  (1110) 
-43.484684

>  <inchikey>  (1110) 
None

>  <smiles>  (1110) 
None

>  <ref_pdb>  (1110) 
A1105b

>  <alias>  (1110) 
None

>  <HIPPO Pose ID>  (1110) 
498754

>  <name>  (1110) 
P498754

>  <HIPPO Compound ID>  (1110) 
293487

>  <ref_mols>  (1110) 
A0497a,A1105b

>  <distance_score>  (1110) 
1.876618

>  <inspiration_score>  (1110) 
None

$$$$
P498755
     RDKit          3D

 30 33  0  0  0  0  0  0  0  0999 V2000
   18.7675   -3.0105   17.5496 C   0  0  0  0  0  0  0  0  0  0  0  0
   18.3413   -3.0205   18.8881 O   0  0  0  0  0  0  0  0  0  0  0  0
   17.5706   -4.1366   19.2976 C   0  0  2  0  0  0  0  0  0  0  0  0
   18.3261   -5.0428   20.1752 N   0  0  0  0  0  0  0  0  0  0  0  0
   19.5962   -5.5700   19.6943 C   0  0  2  0  0  0  0  0  0  0  0  0
   20.8506   -4.6898   19.6098 C   0  0  0  0  0  0  0  0  0  0  0  0
   21.7446   -5.4780   18.6163 C   0  0  0  0  0  0  0  0  0  0  0  0
   20.7778   -5.9392   17.6393 N   0  0  0  0  0  0  0  0  0  0  0  0
   20.8498   -6.8509   16.6020 C   0  0  0  0  0  0  0  0  0  0  0  0
   19.9959   -6.5468   15.5881 N   0  0  0  0  0  0  0  0  0  0  0  0
   19.3845   -7.5315   14.9060 C   0  0  0  0  0  0  0  0  0  0  0  0
   19.6112   -8.8622   15.1424 C   0  0  0  0  0  0  0  0  0  0  0  0
   18.8718   -9.9044   14.3699 C   0  0  0  0  0  0  0  0  0  0  0  0
   17.6272   -9.5112   13.9772 F   0  0  0  0  0  0  0  0  0  0  0  0
   18.6954  -11.0617   15.0654 F   0  0  0  0  0  0  0  0  0  0  0  0
   19.5233  -10.2561   13.2264 F   0  0  0  0  0  0  0  0  0  0  0  0
   20.6235   -9.1734   16.0481 C   0  0  0  0  0  0  0  0  0  0  0  0
   21.2751   -8.1689   16.7699 C   0  0  0  0  0  0  0  0  0  0  0  0
   22.4127   -8.6788   17.9622 Cl  0  0  0  0  0  0  0  0  0  0  0  0
   19.5368   -6.2617   18.3374 C   0  0  0  0  0  0  0  0  0  0  0  0
   16.4491   -4.7018   18.3667 C   0  0  0  0  0  0  0  0  0  0  0  0
   15.4964   -3.7368   17.9353 C   0  0  0  0  0  0  0  0  0  0  0  0
   14.3042   -4.0633   17.2944 C   0  0  0  0  0  0  0  0  0  0  0  0
   13.9767   -5.3840   17.0438 C   0  0  0  0  0  0  0  0  0  0  0  0
   14.8882   -6.3626   17.4398 C   0  0  0  0  0  0  0  0  0  0  0  0
   16.0938   -6.0658   18.0882 C   0  0  0  0  0  0  0  0  0  0  0  0
   16.5744   -7.3617   18.4244 C   0  0  0  0  0  0  0  0  0  0  0  0
   15.8453   -8.3669   17.9415 N   0  0  0  0  0  0  0  0  0  0  0  0
   14.8056   -7.7326   17.3790 N   0  0  0  0  0  0  0  0  0  0  0  0
   13.7066   -8.5094   16.8585 C   0  0  0  0  0  0  0  0  0  0  0  0
  1  2  1  0
  2  3  1  0
  3  4  1  6
  5  4  1  6
  5  6  1  0
  6  7  1  0
  7  8  1  0
  8  9  1  0
  9 10  2  0
 10 11  1  0
 11 12  2  0
 12 13  1  0
 13 14  1  0
 13 15  1  0
 13 16  1  0
 12 17  1  0
 17 18  2  0
 18 19  1  0
  8 20  1  0
  3 21  1  0
 21 22  2  0
 22 23  1  0
 23 24  2  0
 24 25  1  0
 25 26  2  0
 26 27  1  0
 27 28  2  0
 28 29  1  0
 29 30  1  0
 20  5  1  0
 26 21  1  0
 18  9  1  0
 29 25  1  0
M  END
>  <energy_score>  (1111) 
-7.371589

>  <inchikey>  (1111) 
None

>  <smiles>  (1111) 
None

>  <ref_pdb>  (1111) 
A1105b

>  <alias>  (1111) 
None

>  <HIPPO Pose ID>  (1111) 
498755

>  <name>  (1111) 
P498755

>  <HIPPO Compound ID>  (1111) 
293487

>  <ref_mols>  (1111) 
A0497a,A1105b

>  <distance_score>  (1111) 
1.875995

>  <inspiration_score>  (1111) 
None

$$$$
P498756
     RDKit          3D

 30 33  0  0  0  0  0  0  0  0999 V2000
   18.2818   -2.1147   19.5593 C   0  0  0  0  0  0  0  0  0  0  0  0
   17.4435   -3.2507   19.5591 O   0  0  0  0  0  0  0  0  0  0  0  0
   17.7875   -4.2545   18.6136 C   0  0  1  0  0  0  0  0  0  0  0  0
   18.5685   -5.2482   19.3138 N   0  0  0  0  0  0  0  0  0  0  0  0
   19.9884   -4.9708   19.5591 C   0  0  2  0  0  0  0  0  0  0  0  0
   20.7929   -4.0336   18.6558 C   0  0  0  0  0  0  0  0  0  0  0  0
   21.0938   -4.8466   17.3991 C   0  0  0  0  0  0  0  0  0  0  0  0
   21.1477   -6.2475   17.8540 N   0  0  0  0  0  0  0  0  0  0  0  0
   20.3984   -7.1448   17.0628 C   0  0  0  0  0  0  0  0  0  0  0  0
   19.6197   -6.6644   16.0669 N   0  0  0  0  0  0  0  0  0  0  0  0
   18.7412   -7.4818   15.4485 C   0  0  0  0  0  0  0  0  0  0  0  0
   18.5933   -8.8160   15.7388 C   0  0  0  0  0  0  0  0  0  0  0  0
   17.5903   -9.6433   15.0058 C   0  0  0  0  0  0  0  0  0  0  0  0
   16.4389   -8.9812   14.6936 F   0  0  0  0  0  0  0  0  0  0  0  0
   17.2085  -10.7698   15.6701 F   0  0  0  0  0  0  0  0  0  0  0  0
   18.0802  -10.0822   13.8085 F   0  0  0  0  0  0  0  0  0  0  0  0
   19.4765   -9.3477   16.6693 C   0  0  0  0  0  0  0  0  0  0  0  0
   20.3981   -8.5224   17.3177 C   0  0  0  0  0  0  0  0  0  0  0  0
   21.5118   -9.2930   18.4008 Cl  0  0  0  0  0  0  0  0  0  0  0  0
   20.7803   -6.2781   19.2966 C   0  0  0  0  0  0  0  0  0  0  0  0
   16.4590   -4.8272   18.0969 C   0  0  0  0  0  0  0  0  0  0  0  0
   15.4201   -3.9146   17.7776 C   0  0  0  0  0  0  0  0  0  0  0  0
   14.1820   -4.3179   17.2868 C   0  0  0  0  0  0  0  0  0  0  0  0
   13.9063   -5.6648   17.0928 C   0  0  0  0  0  0  0  0  0  0  0  0
   14.8966   -6.5863   17.4381 C   0  0  0  0  0  0  0  0  0  0  0  0
   16.1469   -6.2032   17.9210 C   0  0  0  0  0  0  0  0  0  0  0  0
   16.7905   -7.4376   18.1756 C   0  0  0  0  0  0  0  0  0  0  0  0
   16.0587   -8.5066   17.8500 N   0  0  0  0  0  0  0  0  0  0  0  0
   14.9012   -7.9590   17.4355 N   0  0  0  0  0  0  0  0  0  0  0  0
   13.8009   -8.8165   17.0685 C   0  0  0  0  0  0  0  0  0  0  0  0
  1  2  1  0
  2  3  1  0
  3  4  1  1
  5  4  1  6
  5  6  1  0
  6  7  1  0
  7  8  1  0
  8  9  1  0
  9 10  2  0
 10 11  1  0
 11 12  2  0
 12 13  1  0
 13 14  1  0
 13 15  1  0
 13 16  1  0
 12 17  1  0
 17 18  2  0
 18 19  1  0
  8 20  1  0
  3 21  1  0
 21 22  2  0
 22 23  1  0
 23 24  2  0
 24 25  1  0
 25 26  2  0
 26 27  1  0
 27 28  2  0
 28 29  1  0
 29 30  1  0
 20  5  1  0
 26 21  1  0
 18  9  1  0
 29 25  1  0
M  END
>  <energy_score>  (1112) 
-47.241371

>  <inchikey>  (1112) 
None

>  <smiles>  (1112) 
None

>  <ref_pdb>  (1112) 
A1105b

>  <alias>  (1112) 
None

>  <HIPPO Pose ID>  (1112) 
498756

>  <name>  (1112) 
P498756

>  <HIPPO Compound ID>  (1112) 
293487

>  <ref_mols>  (1112) 
A0497a,A1105b

>  <distance_score>  (1112) 
1.80524

>  <inspiration_score>  (1112) 
None

$$$$
P498757
     RDKit          3D

 30 34  0  0  0  0  0  0  0  0999 V2000
   17.6908   -9.3613   11.4975 C   0  0  0  0  0  0  0  0  0  0  0  0
   17.8210   -8.9717   12.9134 C   0  0  0  0  0  0  0  0  0  0  0  0
   16.8789   -9.2541   13.8212 N   0  0  0  0  0  0  0  0  0  0  0  0
   17.4176   -8.7314   15.0039 O   0  0  0  0  0  0  0  0  0  0  0  0
   18.6248   -8.1754   14.6709 C   0  0  0  0  0  0  0  0  0  0  0  0
   19.3747   -7.5509   15.7370 C   0  0  0  0  0  0  0  0  0  0  0  0
   20.2171   -6.4692   15.5092 C   0  0  0  0  0  0  0  0  0  0  0  0
   20.8195   -5.8129   16.5844 C   0  0  0  0  0  0  0  0  0  0  0  0
   20.5524   -6.2292   17.8873 C   0  0  0  0  0  0  0  0  0  0  0  0
   20.8720   -5.4485   19.0025 N   0  0  0  0  0  0  0  0  0  0  0  0
   20.8769   -3.9772   18.8481 C   0  0  0  0  0  0  0  0  0  0  0  0
   20.2287   -3.4329   20.1237 C   0  0  0  0  0  0  0  0  0  0  0  0
   19.2839   -4.5437   20.5755 C   0  0  1  0  0  0  0  0  0  0  0  0
   17.8975   -4.5291   20.0626 N   0  0  0  0  0  0  0  0  0  0  0  0
   17.7159   -4.3426   18.6316 C   0  0  2  0  0  0  0  0  0  0  0  0
   17.9465   -2.9784   18.3499 O   0  0  0  0  0  0  0  0  0  0  0  0
   16.3472   -4.7904   18.1388 C   0  0  0  0  0  0  0  0  0  0  0  0
   15.3363   -3.8717   17.7802 C   0  0  0  0  0  0  0  0  0  0  0  0
   14.1146   -4.2758   17.2464 C   0  0  0  0  0  0  0  0  0  0  0  0
   13.8298   -5.6222   17.0519 C   0  0  0  0  0  0  0  0  0  0  0  0
   14.7827   -6.5492   17.4704 C   0  0  0  0  0  0  0  0  0  0  0  0
   16.0028   -6.1640   18.0161 C   0  0  0  0  0  0  0  0  0  0  0  0
   16.5840   -7.3862   18.4218 C   0  0  0  0  0  0  0  0  0  0  0  0
   15.8759   -8.4605   18.0684 N   0  0  0  0  0  0  0  0  0  0  0  0
   14.7784   -7.9217   17.5036 N   0  0  0  0  0  0  0  0  0  0  0  0
   13.7151   -8.7905   17.0632 C   0  0  0  0  0  0  0  0  0  0  0  0
   20.1263   -5.7955   20.2311 C   0  0  0  0  0  0  0  0  0  0  0  0
   19.8907   -7.3889   18.0893 N   0  0  0  0  0  0  0  0  0  0  0  0
   19.3067   -8.0064   17.0352 C   0  0  0  0  0  0  0  0  0  0  0  0
   18.9021   -8.2789   13.3888 N   0  0  0  0  0  0  0  0  0  0  0  0
  1  2  1  0
  2  3  2  0
  3  4  1  0
  4  5  1  0
  5  6  1  0
  6  7  2  0
  7  8  1  0
  8  9  2  0
  9 10  1  0
 10 11  1  0
 11 12  1  0
 12 13  1  0
 13 14  1  6
 14 15  1  0
 15 16  1  1
 15 17  1  0
 17 18  2  0
 18 19  1  0
 19 20  2  0
 20 21  1  0
 21 22  2  0
 22 23  1  0
 23 24  2  0
 24 25  1  0
 25 26  1  0
 13 27  1  0
  9 28  1  0
 28 29  2  0
  5 30  2  0
 30  2  1  0
 29  6  1  0
 27 10  1  0
 22 17  1  0
 25 21  1  0
M  END
>  <energy_score>  (1113) 
-47.9414

>  <inchikey>  (1113) 
None

>  <smiles>  (1113) 
None

>  <ref_pdb>  (1113) 
A1105b

>  <alias>  (1113) 
None

>  <HIPPO Pose ID>  (1113) 
498757

>  <name>  (1113) 
P498757

>  <HIPPO Compound ID>  (1113) 
293488

>  <ref_mols>  (1113) 
A0497a,A1105b

>  <distance_score>  (1113) 
1.3788

>  <inspiration_score>  (1113) 
None

$$$$
P498758
     RDKit          3D

 30 34  0  0  0  0  0  0  0  0999 V2000
   17.5235   -9.9657   11.4680 C   0  0  0  0  0  0  0  0  0  0  0  0
   18.3940   -9.0224   12.1929 C   0  0  0  0  0  0  0  0  0  0  0  0
   19.3052   -8.2649   11.5703 N   0  0  0  0  0  0  0  0  0  0  0  0
   19.9017   -7.5631   12.6214 O   0  0  0  0  0  0  0  0  0  0  0  0
   19.2618   -7.9517   13.7687 C   0  0  0  0  0  0  0  0  0  0  0  0
   19.6940   -7.3301   15.0061 C   0  0  0  0  0  0  0  0  0  0  0  0
   20.7270   -6.4069   15.0799 C   0  0  0  0  0  0  0  0  0  0  0  0
   21.0910   -5.8707   16.3134 C   0  0  0  0  0  0  0  0  0  0  0  0
   20.4258   -6.2373   17.4800 C   0  0  0  0  0  0  0  0  0  0  0  0
   20.8596   -5.6813   18.7040 N   0  0  0  0  0  0  0  0  0  0  0  0
   20.8334   -4.1928   18.7084 C   0  0  0  0  0  0  0  0  0  0  0  0
   20.0033   -3.7960   19.9315 C   0  0  0  0  0  0  0  0  0  0  0  0
   19.1418   -5.0221   20.2185 C   0  0  1  0  0  0  0  0  0  0  0  0
   18.0046   -5.3105   19.3557 N   0  0  0  0  0  0  0  0  0  0  0  0
   17.2787   -4.2355   18.7504 C   0  0  1  0  0  0  0  0  0  0  0  0
   18.0709   -3.5511   17.8057 O   0  0  0  0  0  0  0  0  0  0  0  0
   16.0260   -4.7635   18.0732 C   0  0  0  0  0  0  0  0  0  0  0  0
   15.0829   -3.7838   17.7158 C   0  0  0  0  0  0  0  0  0  0  0  0
   13.8889   -4.1131   17.1104 C   0  0  0  0  0  0  0  0  0  0  0  0
   13.5598   -5.4378   16.8686 C   0  0  0  0  0  0  0  0  0  0  0  0
   14.4587   -6.4319   17.2431 C   0  0  0  0  0  0  0  0  0  0  0  0
   15.6831   -6.1297   17.8296 C   0  0  0  0  0  0  0  0  0  0  0  0
   16.2338   -7.4133   18.0909 C   0  0  0  0  0  0  0  0  0  0  0  0
   15.4837   -8.4243   17.6435 N   0  0  0  0  0  0  0  0  0  0  0  0
   14.3911   -7.7999   17.1760 N   0  0  0  0  0  0  0  0  0  0  0  0
   13.2906   -8.5954   16.6914 C   0  0  0  0  0  0  0  0  0  0  0  0
   20.1709   -6.1400   19.9300 C   0  0  0  0  0  0  0  0  0  0  0  0
   19.4127   -7.1271   17.4184 N   0  0  0  0  0  0  0  0  0  0  0  0
   19.0730   -7.6448   16.2019 C   0  0  0  0  0  0  0  0  0  0  0  0
   18.3206   -8.8455   13.5486 N   0  0  0  0  0  0  0  0  0  0  0  0
  1  2  1  0
  2  3  2  0
  3  4  1  0
  4  5  1  0
  5  6  1  0
  6  7  2  0
  7  8  1  0
  8  9  2  0
  9 10  1  0
 10 11  1  0
 11 12  1  0
 12 13  1  0
 13 14  1  6
 14 15  1  0
 15 16  1  6
 15 17  1  0
 17 18  2  0
 18 19  1  0
 19 20  2  0
 20 21  1  0
 21 22  2  0
 22 23  1  0
 23 24  2  0
 24 25  1  0
 25 26  1  0
 13 27  1  0
  9 28  1  0
 28 29  2  0
  5 30  2  0
 30  2  1  0
 29  6  1  0
 27 10  1  0
 22 17  1  0
 25 21  1  0
M  END
>  <energy_score>  (1114) 
-48.535793

>  <inchikey>  (1114) 
None

>  <smiles>  (1114) 
None

>  <ref_pdb>  (1114) 
A1105b

>  <alias>  (1114) 
None

>  <HIPPO Pose ID>  (1114) 
498758

>  <name>  (1114) 
P498758

>  <HIPPO Compound ID>  (1114) 
293488

>  <ref_mols>  (1114) 
A0497a,A1105b

>  <distance_score>  (1114) 
1.846356

>  <inspiration_score>  (1114) 
None

$$$$
P498759
     RDKit          3D

 30 34  0  0  0  0  0  0  0  0999 V2000
   17.8593   -9.4106   11.4217 C   0  0  0  0  0  0  0  0  0  0  0  0
   17.8864   -8.9720   12.8291 C   0  0  0  0  0  0  0  0  0  0  0  0
   16.8658   -9.1930   13.6663 N   0  0  0  0  0  0  0  0  0  0  0  0
   17.3245   -8.6458   14.8709 O   0  0  0  0  0  0  0  0  0  0  0  0
   18.5698   -8.1326   14.6183 C   0  0  0  0  0  0  0  0  0  0  0  0
   19.2539   -7.4917   15.7197 C   0  0  0  0  0  0  0  0  0  0  0  0
   20.2770   -6.5708   15.5175 C   0  0  0  0  0  0  0  0  0  0  0  0
   20.8802   -5.9422   16.6087 C   0  0  0  0  0  0  0  0  0  0  0  0
   20.4273   -6.2054   17.9016 C   0  0  0  0  0  0  0  0  0  0  0  0
   20.9059   -5.4644   19.0044 N   0  0  0  0  0  0  0  0  0  0  0  0
   20.8425   -3.9901   18.7999 C   0  0  0  0  0  0  0  0  0  0  0  0
   19.9597   -3.4476   19.9305 C   0  0  0  0  0  0  0  0  0  0  0  0
   19.1230   -4.6449   20.3790 C   0  0  1  0  0  0  0  0  0  0  0  0
   17.9908   -5.0887   19.5605 N   0  0  0  0  0  0  0  0  0  0  0  0
   17.2718   -4.1120   18.7884 C   0  0  1  0  0  0  0  0  0  0  0  0
   18.0953   -3.5435   17.7942 O   0  0  0  0  0  0  0  0  0  0  0  0
   16.0341   -4.7017   18.1277 C   0  0  0  0  0  0  0  0  0  0  0  0
   15.0866   -3.7612   17.6851 C   0  0  0  0  0  0  0  0  0  0  0  0
   13.9124   -4.1372   17.0632 C   0  0  0  0  0  0  0  0  0  0  0  0
   13.6109   -5.4768   16.8686 C   0  0  0  0  0  0  0  0  0  0  0  0
   14.5091   -6.4325   17.3334 C   0  0  0  0  0  0  0  0  0  0  0  0
   15.6949   -6.0777   17.9695 C   0  0  0  0  0  0  0  0  0  0  0  0
   16.1923   -7.3264   18.4184 C   0  0  0  0  0  0  0  0  0  0  0  0
   15.5022   -8.3783   17.9724 N   0  0  0  0  0  0  0  0  0  0  0  0
   14.4637   -7.8039   17.3430 N   0  0  0  0  0  0  0  0  0  0  0  0
   13.4236   -8.6466   16.8072 C   0  0  0  0  0  0  0  0  0  0  0  0
   20.2125   -5.7423   20.2905 C   0  0  0  0  0  0  0  0  0  0  0  0
   19.4781   -7.1532   18.1017 N   0  0  0  0  0  0  0  0  0  0  0  0
   18.9432   -7.7833   17.0294 C   0  0  0  0  0  0  0  0  0  0  0  0
   18.9461   -8.2921   13.3676 N   0  0  0  0  0  0  0  0  0  0  0  0
  1  2  1  0
  2  3  2  0
  3  4  1  0
  4  5  1  0
  5  6  1  0
  6  7  2  0
  7  8  1  0
  8  9  2  0
  9 10  1  0
 10 11  1  0
 11 12  1  0
 12 13  1  0
 13 14  1  6
 14 15  1  0
 15 16  1  6
 15 17  1  0
 17 18  2  0
 18 19  1  0
 19 20  2  0
 20 21  1  0
 21 22  2  0
 22 23  1  0
 23 24  2  0
 24 25  1  0
 25 26  1  0
 13 27  1  0
  9 28  1  0
 28 29  2  0
  5 30  2  0
 30  2  1  0
 29  6  1  0
 27 10  1  0
 22 17  1  0
 25 21  1  0
M  END
>  <energy_score>  (1115) 
-41.094635

>  <inchikey>  (1115) 
None

>  <smiles>  (1115) 
None

>  <ref_pdb>  (1115) 
A1105b

>  <alias>  (1115) 
None

>  <HIPPO Pose ID>  (1115) 
498759

>  <name>  (1115) 
P498759

>  <HIPPO Compound ID>  (1115) 
293488

>  <ref_mols>  (1115) 
A0497a,A1105b

>  <distance_score>  (1115) 
1.570559

>  <inspiration_score>  (1115) 
None

$$$$
P498760
     RDKit          3D

 30 34  0  0  0  0  0  0  0  0999 V2000
   16.9902  -10.6365   13.5847 C   0  0  0  0  0  0  0  0  0  0  0  0
   18.1808   -9.9813   14.1545 C   0  0  0  0  0  0  0  0  0  0  0  0
   19.4079  -10.5095   14.0592 N   0  0  0  0  0  0  0  0  0  0  0  0
   20.2006   -9.5876   14.7498 O   0  0  0  0  0  0  0  0  0  0  0  0
   19.3649   -8.6063   15.1895 C   0  0  0  0  0  0  0  0  0  0  0  0
   19.9578   -7.5353   15.9581 C   0  0  0  0  0  0  0  0  0  0  0  0
   21.1881   -7.5721   16.6137 C   0  0  0  0  0  0  0  0  0  0  0  0
   21.6146   -6.4884   17.4120 C   0  0  0  0  0  0  0  0  0  0  0  0
   20.8205   -5.3613   17.5335 C   0  0  0  0  0  0  0  0  0  0  0  0
   21.0678   -4.3571   18.4843 N   0  0  0  0  0  0  0  0  0  0  0  0
   20.5418   -3.0220   18.0992 C   0  0  0  0  0  0  0  0  0  0  0  0
   19.8466   -2.4449   19.3349 C   0  0  0  0  0  0  0  0  0  0  0  0
   19.3582   -3.6469   20.1335 C   0  0  1  0  0  0  0  0  0  0  0  0
   17.9034   -3.9310   19.9085 N   0  0  0  0  0  0  0  0  0  0  0  0
   17.6722   -4.6988   18.7044 C   0  0  1  0  0  0  0  0  0  0  0  0
   18.2043   -5.9449   19.0327 O   0  0  0  0  0  0  0  0  0  0  0  0
   16.2665   -4.9650   18.2065 C   0  0  0  0  0  0  0  0  0  0  0  0
   15.4039   -3.8768   17.9768 C   0  0  0  0  0  0  0  0  0  0  0  0
   14.1503   -4.0533   17.4024 C   0  0  0  0  0  0  0  0  0  0  0  0
   13.6884   -5.3140   17.0446 C   0  0  0  0  0  0  0  0  0  0  0  0
   14.5138   -6.4089   17.2860 C   0  0  0  0  0  0  0  0  0  0  0  0
   15.7835   -6.2639   17.8361 C   0  0  0  0  0  0  0  0  0  0  0  0
   16.2721   -7.5995   17.8751 C   0  0  0  0  0  0  0  0  0  0  0  0
   15.4125   -8.5012   17.3960 N   0  0  0  0  0  0  0  0  0  0  0  0
   14.3408   -7.7548   17.0822 N   0  0  0  0  0  0  0  0  0  0  0  0
   13.1694   -8.4173   16.5667 C   0  0  0  0  0  0  0  0  0  0  0  0
   20.5156   -4.6691   19.8341 C   0  0  0  0  0  0  0  0  0  0  0  0
   19.6737   -5.3261   16.8447 N   0  0  0  0  0  0  0  0  0  0  0  0
   19.2533   -6.3762   16.1009 C   0  0  0  0  0  0  0  0  0  0  0  0
   18.1152   -8.7853   14.8161 N   0  0  0  0  0  0  0  0  0  0  0  0
  1  2  1  0
  2  3  2  0
  3  4  1  0
  4  5  1  0
  5  6  1  0
  6  7  2  0
  7  8  1  0
  8  9  2  0
  9 10  1  0
 10 11  1  0
 11 12  1  0
 12 13  1  0
 13 14  1  6
 14 15  1  0
 15 16  1  1
 15 17  1  0
 17 18  2  0
 18 19  1  0
 19 20  2  0
 20 21  1  0
 21 22  2  0
 22 23  1  0
 23 24  2  0
 24 25  1  0
 25 26  1  0
 13 27  1  0
  9 28  1  0
 28 29  2  0
  5 30  2  0
 30  2  1  0
 29  6  1  0
 27 10  1  0
 22 17  1  0
 25 21  1  0
M  END
>  <energy_score>  (1116) 
-28.904439

>  <inchikey>  (1116) 
None

>  <smiles>  (1116) 
None

>  <ref_pdb>  (1116) 
A1105b

>  <alias>  (1116) 
None

>  <HIPPO Pose ID>  (1116) 
498760

>  <name>  (1116) 
P498760

>  <HIPPO Compound ID>  (1116) 
293488

>  <ref_mols>  (1116) 
A0497a,A1105b

>  <distance_score>  (1116) 
1.620879

>  <inspiration_score>  (1116) 
None

$$$$
P498761
     RDKit          3D

 30 33  0  0  0  0  0  0  0  0999 V2000
   19.0492   -7.5087   19.2800 C   0  0  0  0  0  0  0  0  0  0  0  0
   18.8721   -7.8871   17.8557 C   0  0  0  0  0  0  0  0  0  0  0  0
   19.3398   -7.3425   16.6747 C   0  0  0  0  0  0  0  0  0  0  0  0
   20.2140   -6.2478   16.4910 C   0  0  0  0  0  0  0  0  0  0  0  0
   20.8471   -5.2747   17.4559 C   0  0  2  0  0  0  0  0  0  0  0  0
   21.9418   -5.9126   18.1001 O   0  0  0  0  0  0  0  0  0  0  0  0
   20.0181   -4.7384   18.5151 N   0  0  0  0  0  0  0  0  0  0  0  0
   19.1901   -3.5832   18.1141 C   0  0  2  0  0  0  0  0  0  0  0  0
   18.6444   -2.9244   19.3769 C   0  0  0  0  0  0  0  0  0  0  0  0
   17.4105   -3.7709   19.6689 C   0  0  0  0  0  0  0  0  0  0  0  0
   16.7741   -3.9300   18.3619 N   0  0  0  0  0  0  0  0  0  0  0  0
   15.9376   -5.0319   18.1034 C   0  0  0  0  0  0  0  0  0  0  0  0
   16.3127   -6.2675   18.4860 N   0  0  0  0  0  0  0  0  0  0  0  0
   15.4769   -7.3121   18.2333 C   0  0  0  0  0  0  0  0  0  0  0  0
   14.2807   -7.2415   17.5601 C   0  0  0  0  0  0  0  0  0  0  0  0
   13.4504   -8.4614   17.3620 C   0  0  0  0  0  0  0  0  0  0  0  0
   12.6443   -8.7355   18.4245 F   0  0  0  0  0  0  0  0  0  0  0  0
   12.6274   -8.3819   16.2785 F   0  0  0  0  0  0  0  0  0  0  0  0
   14.1955   -9.5884   17.1746 F   0  0  0  0  0  0  0  0  0  0  0  0
   13.8973   -5.9831   17.1571 C   0  0  0  0  0  0  0  0  0  0  0  0
   14.7110   -4.8876   17.4416 C   0  0  0  0  0  0  0  0  0  0  0  0
   14.1015   -3.4161   16.8825 Cl  0  0  0  0  0  0  0  0  0  0  0  0
   17.8682   -3.8981   17.3718 C   0  0  0  0  0  0  0  0  0  0  0  0
   20.6176   -6.1824   15.1196 C   0  0  0  0  0  0  0  0  0  0  0  0
   20.1613   -7.0400   14.0765 C   0  0  0  0  0  0  0  0  0  0  0  0
   19.2169   -8.0543   14.2806 C   0  0  0  0  0  0  0  0  0  0  0  0
   18.8326   -8.2061   15.6192 C   0  0  0  0  0  0  0  0  0  0  0  0
   18.0267   -9.1408   16.1373 N   0  0  0  0  0  0  0  0  0  0  0  0
   18.1642   -9.0023   17.4656 N   0  0  0  0  0  0  0  0  0  0  0  0
   17.7181  -10.1064   18.2888 C   0  0  0  0  0  0  0  0  0  0  0  0
  1  2  1  0
  2  3  2  0
  3  4  1  0
  4  5  1  0
  5  6  1  1
  5  7  1  0
  8  7  1  1
  8  9  1  0
  9 10  1  0
 10 11  1  0
 11 12  1  0
 12 13  2  0
 13 14  1  0
 14 15  2  0
 15 16  1  0
 16 17  1  0
 16 18  1  0
 16 19  1  0
 15 20  1  0
 20 21  2  0
 21 22  1  0
 11 23  1  0
  4 24  2  0
 24 25  1  0
 25 26  2  0
 26 27  1  0
 27 28  2  0
 28 29  1  0
 29 30  1  0
 29  2  1  0
 27  3  1  0
 23  8  1  0
 21 12  1  0
M  END
>  <energy_score>  (1117) 
-54.471667

>  <inchikey>  (1117) 
None

>  <smiles>  (1117) 
None

>  <ref_pdb>  (1117) 
A1105b

>  <alias>  (1117) 
None

>  <HIPPO Pose ID>  (1117) 
498761

>  <name>  (1117) 
P498761

>  <HIPPO Compound ID>  (1117) 
293489

>  <ref_mols>  (1117) 
A0497a,A1105b

>  <distance_score>  (1117) 
1.451803

>  <inspiration_score>  (1117) 
None

$$$$
P498762
     RDKit          3D

 30 33  0  0  0  0  0  0  0  0999 V2000
   19.0385   -8.2466   19.4373 C   0  0  0  0  0  0  0  0  0  0  0  0
   19.0060   -8.4183   17.9553 C   0  0  0  0  0  0  0  0  0  0  0  0
   19.5889   -7.8067   16.8524 C   0  0  0  0  0  0  0  0  0  0  0  0
   20.5232   -6.7329   16.7654 C   0  0  0  0  0  0  0  0  0  0  0  0
   21.1852   -5.8176   17.7896 C   0  0  2  0  0  0  0  0  0  0  0  0
   21.3993   -6.3755   19.0635 O   0  0  0  0  0  0  0  0  0  0  0  0
   20.6358   -4.4694   17.8839 N   0  0  0  0  0  0  0  0  0  0  0  0
   19.3152   -4.3313   18.5068 C   0  0  1  0  0  0  0  0  0  0  0  0
   18.6517   -2.9961   18.1842 C   0  0  0  0  0  0  0  0  0  0  0  0
   17.1321   -3.2646   18.2385 C   0  0  0  0  0  0  0  0  0  0  0  0
   16.9695   -4.6958   18.4426 N   0  0  0  0  0  0  0  0  0  0  0  0
   15.9190   -5.4653   17.9346 C   0  0  0  0  0  0  0  0  0  0  0  0
   16.1629   -6.7939   17.7989 N   0  0  0  0  0  0  0  0  0  0  0  0
   15.2422   -7.6098   17.2473 C   0  0  0  0  0  0  0  0  0  0  0  0
   14.0145   -7.1973   16.8016 C   0  0  0  0  0  0  0  0  0  0  0  0
   13.1192   -8.1751   16.1167 C   0  0  0  0  0  0  0  0  0  0  0  0
   13.7872   -9.2516   15.6109 F   0  0  0  0  0  0  0  0  0  0  0  0
   12.4688   -7.6349   15.0486 F   0  0  0  0  0  0  0  0  0  0  0  0
   12.1625   -8.6926   16.9285 F   0  0  0  0  0  0  0  0  0  0  0  0
   13.7166   -5.8604   17.0099 C   0  0  0  0  0  0  0  0  0  0  0  0
   14.6456   -5.0116   17.6184 C   0  0  0  0  0  0  0  0  0  0  0  0
   14.0856   -3.4629   17.9848 Cl  0  0  0  0  0  0  0  0  0  0  0  0
   18.2346   -5.2945   18.0625 C   0  0  0  0  0  0  0  0  0  0  0  0
   20.8119   -6.4457   15.3884 C   0  0  0  0  0  0  0  0  0  0  0  0
   20.2656   -7.1165   14.2605 C   0  0  0  0  0  0  0  0  0  0  0  0
   19.3189   -8.1389   14.3729 C   0  0  0  0  0  0  0  0  0  0  0  0
   18.9836   -8.4718   15.6933 C   0  0  0  0  0  0  0  0  0  0  0  0
   18.1121   -9.4072   16.0902 N   0  0  0  0  0  0  0  0  0  0  0  0
   18.1814   -9.3868   17.4261 N   0  0  0  0  0  0  0  0  0  0  0  0
   17.4651  -10.4075   18.1633 C   0  0  0  0  0  0  0  0  0  0  0  0
  1  2  1  0
  2  3  2  0
  3  4  1  0
  4  5  1  0
  5  6  1  1
  5  7  1  0
  8  7  1  6
  8  9  1  0
  9 10  1  0
 10 11  1  0
 11 12  1  0
 12 13  2  0
 13 14  1  0
 14 15  2  0
 15 16  1  0
 16 17  1  0
 16 18  1  0
 16 19  1  0
 15 20  1  0
 20 21  2  0
 21 22  1  0
 11 23  1  0
  4 24  2  0
 24 25  1  0
 25 26  2  0
 26 27  1  0
 27 28  2  0
 28 29  1  0
 29 30  1  0
 29  2  1  0
 27  3  1  0
 23  8  1  0
 21 12  1  0
M  END
>  <energy_score>  (1118) 
-38.610223

>  <inchikey>  (1118) 
None

>  <smiles>  (1118) 
None

>  <ref_pdb>  (1118) 
A1105b

>  <alias>  (1118) 
None

>  <HIPPO Pose ID>  (1118) 
498762

>  <name>  (1118) 
P498762

>  <HIPPO Compound ID>  (1118) 
293489

>  <ref_mols>  (1118) 
A0497a,A1105b

>  <distance_score>  (1118) 
1.62288

>  <inspiration_score>  (1118) 
None

$$$$
P498763
     RDKit          3D

 30 34  0  0  0  0  0  0  0  0999 V2000
   17.6279   -9.6780   12.0321 C   0  0  0  0  0  0  0  0  0  0  0  0
   18.0156   -9.2452   13.3868 C   0  0  0  0  0  0  0  0  0  0  0  0
   17.4788   -9.7819   14.4886 N   0  0  0  0  0  0  0  0  0  0  0  0
   18.1095   -9.0809   15.5181 O   0  0  0  0  0  0  0  0  0  0  0  0
   18.9855   -8.2119   14.9246 C   0  0  0  0  0  0  0  0  0  0  0  0
   19.7722   -7.3743   15.8064 C   0  0  0  0  0  0  0  0  0  0  0  0
   20.3477   -6.1896   15.3665 C   0  0  0  0  0  0  0  0  0  0  0  0
   20.9204   -5.3022   16.2805 C   0  0  0  0  0  0  0  0  0  0  0  0
   20.9090   -5.6104   17.6376 C   0  0  0  0  0  0  0  0  0  0  0  0
   21.0398   -4.6078   18.6131 N   0  0  0  0  0  0  0  0  0  0  0  0
   20.3569   -3.3215   18.3240 C   0  0  0  0  0  0  0  0  0  0  0  0
   19.6761   -2.9085   19.6301 C   0  0  0  0  0  0  0  0  0  0  0  0
   19.4426   -4.2142   20.3863 C   0  0  1  0  0  0  0  0  0  0  0  0
   18.1039   -4.7923   20.1092 N   0  0  0  0  0  0  0  0  0  0  0  0
   18.0745   -5.6486   18.9221 C   0  0  0  0  0  0  0  0  0  0  0  0
   16.7294   -5.9867   18.3873 C   0  0  0  0  0  0  0  0  0  0  0  0
   15.8782   -4.9664   17.9403 C   0  0  0  0  0  0  0  0  0  0  0  0
   14.6027   -5.2121   17.3816 C   0  0  0  0  0  0  0  0  0  0  0  0
   13.7064   -3.6972   16.8129 Br  0  0  0  0  0  0  0  0  0  0  0  0
   14.0272   -6.4723   17.1629 C   0  0  0  0  0  0  0  0  0  0  0  0
   14.8651   -7.5114   17.5660 C   0  0  0  0  0  0  0  0  0  0  0  0
   14.6803   -8.8397   17.4774 N   0  0  0  0  0  0  0  0  0  0  0  0
   15.7966   -9.3734   18.0065 N   0  0  0  0  0  0  0  0  0  0  0  0
   15.9332  -10.8091   18.0452 C   0  0  0  0  0  0  0  0  0  0  0  0
   16.7065   -8.4566   18.4494 C   0  0  0  0  0  0  0  0  0  0  0  0
   16.1555   -7.2405   18.1548 C   0  0  0  0  0  0  0  0  0  0  0  0
   20.7257   -5.0026   20.0034 C   0  0  0  0  0  0  0  0  0  0  0  0
   20.6010   -6.8699   18.0249 N   0  0  0  0  0  0  0  0  0  0  0  0
   20.0019   -7.6955   17.1281 C   0  0  0  0  0  0  0  0  0  0  0  0
   18.9496   -8.2677   13.6102 N   0  0  0  0  0  0  0  0  0  0  0  0
  1  2  1  0
  2  3  2  0
  3  4  1  0
  4  5  1  0
  5  6  1  0
  6  7  2  0
  7  8  1  0
  8  9  2  0
  9 10  1  0
 10 11  1  0
 11 12  1  0
 12 13  1  0
 13 14  1  6
 14 15  1  0
 15 16  1  0
 16 17  2  0
 17 18  1  0
 18 19  1  0
 18 20  2  0
 20 21  1  0
 21 22  2  0
 22 23  1  0
 23 24  1  0
 23 25  1  0
 25 26  2  0
 13 27  1  0
  9 28  1  0
 28 29  2  0
  5 30  2  0
 30  2  1  0
 29  6  1  0
 27 10  1  0
 26 16  1  0
 26 21  1  0
M  END
>  <energy_score>  (1119) 
-46.135209

>  <inchikey>  (1119) 
None

>  <smiles>  (1119) 
None

>  <ref_pdb>  (1119) 
A1105b

>  <alias>  (1119) 
None

>  <HIPPO Pose ID>  (1119) 
498763

>  <name>  (1119) 
P498763

>  <HIPPO Compound ID>  (1119) 
293490

>  <ref_mols>  (1119) 
A0497a,A1105b

>  <distance_score>  (1119) 
1.750247

>  <inspiration_score>  (1119) 
None

$$$$
P498764
     RDKit          3D

 30 34  0  0  0  0  0  0  0  0999 V2000
   17.6256   -9.4715   11.6105 C   0  0  0  0  0  0  0  0  0  0  0  0
   17.7803   -9.0173   13.0044 C   0  0  0  0  0  0  0  0  0  0  0  0
   16.8990   -9.3336   13.9598 N   0  0  0  0  0  0  0  0  0  0  0  0
   17.4311   -8.7166   15.0968 O   0  0  0  0  0  0  0  0  0  0  0  0
   18.5814   -8.0890   14.6978 C   0  0  0  0  0  0  0  0  0  0  0  0
   19.3339   -7.3862   15.7140 C   0  0  0  0  0  0  0  0  0  0  0  0
   20.2126   -6.3565   15.3973 C   0  0  0  0  0  0  0  0  0  0  0  0
   20.8794   -5.6664   16.4091 C   0  0  0  0  0  0  0  0  0  0  0  0
   20.6677   -6.0155   17.7413 C   0  0  0  0  0  0  0  0  0  0  0  0
   21.2335   -5.2337   18.7667 N   0  0  0  0  0  0  0  0  0  0  0  0
   20.8364   -3.8042   18.7573 C   0  0  0  0  0  0  0  0  0  0  0  0
   20.1323   -3.5646   20.1060 C   0  0  0  0  0  0  0  0  0  0  0  0
   19.7671   -4.9636   20.6289 C   0  0  1  0  0  0  0  0  0  0  0  0
   18.5144   -5.6153   20.1692 N   0  0  0  0  0  0  0  0  0  0  0  0
   17.8600   -4.9164   19.0793 C   0  0  0  0  0  0  0  0  0  0  0  0
   16.7016   -5.6271   18.4489 C   0  0  0  0  0  0  0  0  0  0  0  0
   15.8034   -4.7624   17.8172 C   0  0  0  0  0  0  0  0  0  0  0  0
   14.5734   -5.1611   17.2714 C   0  0  0  0  0  0  0  0  0  0  0  0
   13.6178   -3.7251   16.6252 Br  0  0  0  0  0  0  0  0  0  0  0  0
   14.0978   -6.4713   17.1830 C   0  0  0  0  0  0  0  0  0  0  0  0
   14.9698   -7.3816   17.7853 C   0  0  0  0  0  0  0  0  0  0  0  0
   14.8369   -8.7117   17.9267 N   0  0  0  0  0  0  0  0  0  0  0  0
   15.8603   -9.0687   18.7203 N   0  0  0  0  0  0  0  0  0  0  0  0
   15.9616  -10.4409   19.1534 C   0  0  0  0  0  0  0  0  0  0  0  0
   16.7126   -8.0514   19.0370 C   0  0  0  0  0  0  0  0  0  0  0  0
   16.2153   -6.9448   18.3998 C   0  0  0  0  0  0  0  0  0  0  0  0
   21.0117   -5.7440   20.1318 C   0  0  0  0  0  0  0  0  0  0  0  0
   19.8879   -7.0842   18.0519 N   0  0  0  0  0  0  0  0  0  0  0  0
   19.2496   -7.7299   17.0467 C   0  0  0  0  0  0  0  0  0  0  0  0
   18.8266   -8.2338   13.4127 N   0  0  0  0  0  0  0  0  0  0  0  0
  1  2  1  0
  2  3  2  0
  3  4  1  0
  4  5  1  0
  5  6  1  0
  6  7  2  0
  7  8  1  0
  8  9  2  0
  9 10  1  0
 10 11  1  0
 11 12  1  0
 12 13  1  0
 13 14  1  6
 14 15  1  0
 15 16  1  0
 16 17  2  0
 17 18  1  0
 18 19  1  0
 18 20  2  0
 20 21  1  0
 21 22  2  0
 22 23  1  0
 23 24  1  0
 23 25  1  0
 25 26  2  0
 13 27  1  0
  9 28  1  0
 28 29  2  0
  5 30  2  0
 30  2  1  0
 29  6  1  0
 27 10  1  0
 26 16  1  0
 26 21  1  0
M  END
>  <energy_score>  (1120) 
-33.309603

>  <inchikey>  (1120) 
None

>  <smiles>  (1120) 
None

>  <ref_pdb>  (1120) 
A1105b

>  <alias>  (1120) 
None

>  <HIPPO Pose ID>  (1120) 
498764

>  <name>  (1120) 
P498764

>  <HIPPO Compound ID>  (1120) 
293490

>  <ref_mols>  (1120) 
A0497a,A1105b

>  <distance_score>  (1120) 
1.665446

>  <inspiration_score>  (1120) 
None

$$$$
P498765
     RDKit          3D

 30 34  0  0  0  0  0  0  0  0999 V2000
   18.1156  -10.0075   11.0779 C   0  0  0  0  0  0  0  0  0  0  0  0
   18.8339   -9.0296   11.9157 C   0  0  0  0  0  0  0  0  0  0  0  0
   19.6360   -8.0926   11.3949 N   0  0  0  0  0  0  0  0  0  0  0  0
   20.1043   -7.4161   12.5236 O   0  0  0  0  0  0  0  0  0  0  0  0
   19.5132   -8.0047   13.6091 C   0  0  0  0  0  0  0  0  0  0  0  0
   19.8213   -7.4457   14.9106 C   0  0  0  0  0  0  0  0  0  0  0  0
   20.6986   -6.3910   15.1038 C   0  0  0  0  0  0  0  0  0  0  0  0
   20.9148   -5.8971   16.3890 C   0  0  0  0  0  0  0  0  0  0  0  0
   20.2539   -6.4329   17.4922 C   0  0  0  0  0  0  0  0  0  0  0  0
   20.4289   -5.8684   18.7555 N   0  0  0  0  0  0  0  0  0  0  0  0
   20.7580   -4.4318   18.8585 C   0  0  0  0  0  0  0  0  0  0  0  0
   20.1532   -3.9690   20.1781 C   0  0  0  0  0  0  0  0  0  0  0  0
   18.9750   -4.9110   20.3964 C   0  0  1  0  0  0  0  0  0  0  0  0
   17.7188   -4.4348   19.8142 N   0  0  0  0  0  0  0  0  0  0  0  0
   17.5865   -4.5385   18.3781 C   0  0  2  0  0  0  0  0  0  0  0  0
   18.0023   -3.3111   17.8059 O   0  0  0  0  0  0  0  0  0  0  0  0
   16.1872   -4.8617   17.9713 C   0  0  0  0  0  0  0  0  0  0  0  0
   15.2179   -3.8534   17.7657 C   0  0  0  0  0  0  0  0  0  0  0  0
   13.9326   -4.0942   17.2309 C   0  0  0  0  0  0  0  0  0  0  0  0
   13.4685   -5.3725   16.8971 C   0  0  0  0  0  0  0  0  0  0  0  0
   14.3442   -6.4189   17.1832 C   0  0  0  0  0  0  0  0  0  0  0  0
   14.1925   -7.7415   16.9926 N   0  0  0  0  0  0  0  0  0  0  0  0
   15.3232   -8.2730   17.4905 N   0  0  0  0  0  0  0  0  0  0  0  0
   15.4703   -9.7069   17.5263 C   0  0  0  0  0  0  0  0  0  0  0  0
   16.2412   -7.3532   17.9013 C   0  0  0  0  0  0  0  0  0  0  0  0
   15.6511   -6.1356   17.7058 C   0  0  0  0  0  0  0  0  0  0  0  0
   19.5259   -6.2515   19.8512 C   0  0  0  0  0  0  0  0  0  0  0  0
   19.4385   -7.4946   17.3144 N   0  0  0  0  0  0  0  0  0  0  0  0
   19.2272   -7.9565   16.0501 C   0  0  0  0  0  0  0  0  0  0  0  0
   18.7225   -9.0050   13.2815 N   0  0  0  0  0  0  0  0  0  0  0  0
  1  2  1  0
  2  3  2  0
  3  4  1  0
  4  5  1  0
  5  6  1  0
  6  7  2  0
  7  8  1  0
  8  9  2  0
  9 10  1  0
 10 11  1  0
 11 12  1  0
 12 13  1  0
 13 14  1  6
 14 15  1  0
 15 16  1  6
 15 17  1  0
 17 18  2  0
 18 19  1  0
 19 20  2  0
 20 21  1  0
 21 22  2  0
 22 23  1  0
 23 24  1  0
 23 25  1  0
 25 26  2  0
 13 27  1  0
  9 28  1  0
 28 29  2  0
  5 30  2  0
 30  2  1  0
 29  6  1  0
 27 10  1  0
 26 17  1  0
 26 21  1  0
M  END
>  <energy_score>  (1121) 
-42.180666

>  <inchikey>  (1121) 
None

>  <smiles>  (1121) 
None

>  <ref_pdb>  (1121) 
A1105b

>  <alias>  (1121) 
None

>  <HIPPO Pose ID>  (1121) 
498765

>  <name>  (1121) 
P498765

>  <HIPPO Compound ID>  (1121) 
293492

>  <ref_mols>  (1121) 
A0497a,A1105b

>  <distance_score>  (1121) 
1.806051

>  <inspiration_score>  (1121) 
None

$$$$
P498766
     RDKit          3D

 30 34  0  0  0  0  0  0  0  0999 V2000
   17.6725   -9.4222   11.7463 C   0  0  0  0  0  0  0  0  0  0  0  0
   17.8901   -9.0434   13.1542 C   0  0  0  0  0  0  0  0  0  0  0  0
   17.1062   -9.4884   14.1429 N   0  0  0  0  0  0  0  0  0  0  0  0
   17.6631   -8.8926   15.2771 O   0  0  0  0  0  0  0  0  0  0  0  0
   18.7353   -8.1573   14.8492 C   0  0  0  0  0  0  0  0  0  0  0  0
   19.4991   -7.4635   15.8639 C   0  0  0  0  0  0  0  0  0  0  0  0
   20.3042   -6.3763   15.5557 C   0  0  0  0  0  0  0  0  0  0  0  0
   20.9590   -5.6826   16.5744 C   0  0  0  0  0  0  0  0  0  0  0  0
   20.7730   -6.0528   17.9090 C   0  0  0  0  0  0  0  0  0  0  0  0
   21.2301   -5.2323   18.9702 N   0  0  0  0  0  0  0  0  0  0  0  0
   21.0109   -3.7727   18.7452 C   0  0  0  0  0  0  0  0  0  0  0  0
   20.1348   -3.2940   19.9067 C   0  0  0  0  0  0  0  0  0  0  0  0
   19.3875   -4.5488   20.3473 C   0  0  1  0  0  0  0  0  0  0  0  0
   18.2917   -5.0418   19.5064 N   0  0  0  0  0  0  0  0  0  0  0  0
   17.4315   -4.1011   18.8484 C   0  0  1  0  0  0  0  0  0  0  0  0
   18.1339   -3.3666   17.8692 O   0  0  0  0  0  0  0  0  0  0  0  0
   16.2232   -4.7164   18.1774 C   0  0  0  0  0  0  0  0  0  0  0  0
   15.1863   -3.8234   17.7820 C   0  0  0  0  0  0  0  0  0  0  0  0
   13.9663   -4.2008   17.1711 C   0  0  0  0  0  0  0  0  0  0  0  0
   13.6329   -5.5320   16.9031 C   0  0  0  0  0  0  0  0  0  0  0  0
   14.5931   -6.4665   17.2946 C   0  0  0  0  0  0  0  0  0  0  0  0
   14.5496   -7.8042   17.1882 N   0  0  0  0  0  0  0  0  0  0  0  0
   15.6632   -8.2189   17.8105 N   0  0  0  0  0  0  0  0  0  0  0  0
   15.8687   -9.6341   17.9999 C   0  0  0  0  0  0  0  0  0  0  0  0
   16.4795   -7.2094   18.2317 C   0  0  0  0  0  0  0  0  0  0  0  0
   15.8394   -6.0453   17.8976 C   0  0  0  0  0  0  0  0  0  0  0  0
   20.5705   -5.5553   20.2625 C   0  0  0  0  0  0  0  0  0  0  0  0
   20.1339   -7.2124   18.1905 N   0  0  0  0  0  0  0  0  0  0  0  0
   19.5054   -7.8665   17.1848 C   0  0  0  0  0  0  0  0  0  0  0  0
   18.9038   -8.2093   13.5449 N   0  0  0  0  0  0  0  0  0  0  0  0
  1  2  1  0
  2  3  2  0
  3  4  1  0
  4  5  1  0
  5  6  1  0
  6  7  2  0
  7  8  1  0
  8  9  2  0
  9 10  1  0
 10 11  1  0
 11 12  1  0
 12 13  1  0
 13 14  1  6
 14 15  1  0
 15 16  1  6
 15 17  1  0
 17 18  2  0
 18 19  1  0
 19 20  2  0
 20 21  1  0
 21 22  2  0
 22 23  1  0
 23 24  1  0
 23 25  1  0
 25 26  2  0
 13 27  1  0
  9 28  1  0
 28 29  2  0
  5 30  2  0
 30  2  1  0
 29  6  1  0
 27 10  1  0
 26 17  1  0
 26 21  1  0
M  END
>  <energy_score>  (1122) 
-24.999776

>  <inchikey>  (1122) 
None

>  <smiles>  (1122) 
None

>  <ref_pdb>  (1122) 
A1105b

>  <alias>  (1122) 
None

>  <HIPPO Pose ID>  (1122) 
498766

>  <name>  (1122) 
P498766

>  <HIPPO Compound ID>  (1122) 
293492

>  <ref_mols>  (1122) 
A0497a,A1105b

>  <distance_score>  (1122) 
1.442178

>  <inspiration_score>  (1122) 
None

$$$$
P498767
     RDKit          3D

 30 34  0  0  0  0  0  0  0  0999 V2000
   16.1244  -10.1380   13.6644 C   0  0  0  0  0  0  0  0  0  0  0  0
   17.2694   -9.2557   13.9532 C   0  0  0  0  0  0  0  0  0  0  0  0
   17.9701   -8.6462   12.9884 N   0  0  0  0  0  0  0  0  0  0  0  0
   18.9068   -7.8964   13.7085 O   0  0  0  0  0  0  0  0  0  0  0  0
   18.6567   -8.1233   15.0314 C   0  0  0  0  0  0  0  0  0  0  0  0
   19.4744   -7.4142   15.9928 C   0  0  0  0  0  0  0  0  0  0  0  0
   20.3128   -6.3515   15.6779 C   0  0  0  0  0  0  0  0  0  0  0  0
   20.9732   -5.6537   16.6952 C   0  0  0  0  0  0  0  0  0  0  0  0
   20.7485   -5.9846   18.0320 C   0  0  0  0  0  0  0  0  0  0  0  0
   21.1796   -5.1613   19.0937 N   0  0  0  0  0  0  0  0  0  0  0  0
   20.9789   -3.7021   18.8722 C   0  0  0  0  0  0  0  0  0  0  0  0
   20.0123   -3.2345   19.9693 C   0  0  0  0  0  0  0  0  0  0  0  0
   19.3012   -4.5055   20.4380 C   0  0  1  0  0  0  0  0  0  0  0  0
   18.1886   -5.0589   19.6390 N   0  0  0  0  0  0  0  0  0  0  0  0
   17.4471   -4.1444   18.7988 C   0  0  1  0  0  0  0  0  0  0  0  0
   18.2659   -3.6303   17.7717 O   0  0  0  0  0  0  0  0  0  0  0  0
   16.2089   -4.7408   18.1714 C   0  0  0  0  0  0  0  0  0  0  0  0
   15.1876   -3.8378   17.7627 C   0  0  0  0  0  0  0  0  0  0  0  0
   13.9668   -4.2075   17.1484 C   0  0  0  0  0  0  0  0  0  0  0  0
   13.6226   -5.5374   16.8821 C   0  0  0  0  0  0  0  0  0  0  0  0
   14.5682   -6.4810   17.2875 C   0  0  0  0  0  0  0  0  0  0  0  0
   14.5170   -7.8200   17.1826 N   0  0  0  0  0  0  0  0  0  0  0  0
   15.6079   -8.2378   17.8459 N   0  0  0  0  0  0  0  0  0  0  0  0
   15.8018   -9.6514   18.0527 C   0  0  0  0  0  0  0  0  0  0  0  0
   16.4081   -7.2315   18.3017 C   0  0  0  0  0  0  0  0  0  0  0  0
   15.8084   -6.0665   17.9052 C   0  0  0  0  0  0  0  0  0  0  0  0
   20.5230   -5.4729   20.3922 C   0  0  0  0  0  0  0  0  0  0  0  0
   20.0367   -7.0965   18.3267 N   0  0  0  0  0  0  0  0  0  0  0  0
   19.4323   -7.7757   17.3224 C   0  0  0  0  0  0  0  0  0  0  0  0
   17.6801   -8.9836   15.2312 N   0  0  0  0  0  0  0  0  0  0  0  0
  1  2  1  0
  2  3  2  0
  3  4  1  0
  4  5  1  0
  5  6  1  0
  6  7  2  0
  7  8  1  0
  8  9  2  0
  9 10  1  0
 10 11  1  0
 11 12  1  0
 12 13  1  0
 13 14  1  6
 14 15  1  0
 15 16  1  6
 15 17  1  0
 17 18  2  0
 18 19  1  0
 19 20  2  0
 20 21  1  0
 21 22  2  0
 22 23  1  0
 23 24  1  0
 23 25  1  0
 25 26  2  0
 13 27  1  0
  9 28  1  0
 28 29  2  0
  5 30  2  0
 30  2  1  0
 29  6  1  0
 27 10  1  0
 26 17  1  0
 26 21  1  0
M  END
>  <energy_score>  (1123) 
-49.169531

>  <inchikey>  (1123) 
None

>  <smiles>  (1123) 
None

>  <ref_pdb>  (1123) 
A1105b

>  <alias>  (1123) 
None

>  <HIPPO Pose ID>  (1123) 
498767

>  <name>  (1123) 
P498767

>  <HIPPO Compound ID>  (1123) 
293492

>  <ref_mols>  (1123) 
A0497a,A1105b

>  <distance_score>  (1123) 
1.253544

>  <inspiration_score>  (1123) 
None

$$$$
P498768
     RDKit          3D

 31 35  0  0  0  0  0  0  0  0999 V2000
   18.9060  -11.3609   11.9163 C   0  0  0  0  0  0  0  0  0  0  0  0
   19.1833  -10.0780   12.5882 C   0  0  0  0  0  0  0  0  0  0  0  0
   19.0873   -8.9025   11.9542 N   0  0  0  0  0  0  0  0  0  0  0  0
   19.4359   -7.9818   12.9439 O   0  0  0  0  0  0  0  0  0  0  0  0
   19.6966   -8.7016   14.0774 C   0  0  0  0  0  0  0  0  0  0  0  0
   20.0478   -7.9565   15.2703 C   0  0  0  0  0  0  0  0  0  0  0  0
   20.3333   -8.6049   16.4671 C   0  0  0  0  0  0  0  0  0  0  0  0
   20.6053   -7.8718   17.6244 C   0  0  0  0  0  0  0  0  0  0  0  0
   20.5820   -6.4846   17.5922 C   0  0  0  0  0  0  0  0  0  0  0  0
   20.7765   -5.7431   18.7629 N   0  0  0  0  0  0  0  0  0  0  0  0
   20.8050   -4.2695   18.6152 C   0  0  0  0  0  0  0  0  0  0  0  0
   20.0837   -3.7200   19.8437 C   0  0  0  0  0  0  0  0  0  0  0  0
   19.1203   -4.8280   20.2532 C   0  0  1  0  0  0  0  0  0  0  0  0
   17.7728   -4.7564   19.6769 N   0  0  0  0  0  0  0  0  0  0  0  0
   17.6635   -4.9770   18.2450 C   0  0  2  0  0  0  0  0  0  0  0  0
   17.9366   -3.7518   17.6010 O   0  0  0  0  0  0  0  0  0  0  0  0
   16.3330   -5.5600   17.8543 C   0  0  0  0  0  0  0  0  0  0  0  0
   15.1311   -4.8263   17.7305 C   0  0  0  0  0  0  0  0  0  0  0  0
   15.1140   -3.0418   18.2900 Br  0  0  0  0  0  0  0  0  0  0  0  0
   13.8805   -5.3371   17.2685 C   0  0  0  0  0  0  0  0  0  0  0  0
   13.6824   -6.6840   16.9271 C   0  0  0  0  0  0  0  0  0  0  0  0
   14.8153   -7.4780   17.1129 C   0  0  0  0  0  0  0  0  0  0  0  0
   14.9685   -8.7951   16.8924 N   0  0  0  0  0  0  0  0  0  0  0  0
   16.2368   -9.0518   17.2552 N   0  0  0  0  0  0  0  0  0  0  0  0
   16.7379  -10.4009   17.1542 C   0  0  0  0  0  0  0  0  0  0  0  0
   16.9274   -7.9573   17.6817 C   0  0  0  0  0  0  0  0  0  0  0  0
   16.0605   -6.9060   17.5641 C   0  0  0  0  0  0  0  0  0  0  0  0
   19.9192   -6.1020   19.9122 C   0  0  0  0  0  0  0  0  0  0  0  0
   20.3539   -5.8578   16.4213 N   0  0  0  0  0  0  0  0  0  0  0  0
   20.0973   -6.5819   15.3064 C   0  0  0  0  0  0  0  0  0  0  0  0
   19.5510   -9.9990   13.9072 N   0  0  0  0  0  0  0  0  0  0  0  0
  1  2  1  0
  2  3  2  0
  3  4  1  0
  4  5  1  0
  5  6  1  0
  6  7  2  0
  7  8  1  0
  8  9  2  0
  9 10  1  0
 10 11  1  0
 11 12  1  0
 12 13  1  0
 13 14  1  6
 14 15  1  0
 15 16  1  6
 15 17  1  0
 17 18  2  0
 18 19  1  0
 18 20  1  0
 20 21  2  0
 21 22  1  0
 22 23  2  0
 23 24  1  0
 24 25  1  0
 24 26  1  0
 26 27  2  0
 13 28  1  0
  9 29  1  0
 29 30  2  0
  5 31  2  0
 31  2  1  0
 30  6  1  0
 28 10  1  0
 27 17  1  0
 27 22  1  0
M  END
>  <energy_score>  (1124) 
-75.637568

>  <inchikey>  (1124) 
None

>  <smiles>  (1124) 
None

>  <ref_pdb>  (1124) 
A1105b

>  <alias>  (1124) 
None

>  <HIPPO Pose ID>  (1124) 
498768

>  <name>  (1124) 
P498768

>  <HIPPO Compound ID>  (1124) 
293493

>  <ref_mols>  (1124) 
A0497a,A1105b

>  <distance_score>  (1124) 
1.912186

>  <inspiration_score>  (1124) 
None

$$$$
P498769
     RDKit          3D

 31 35  0  0  0  0  0  0  0  0999 V2000
   17.0393  -11.1841   13.6698 C   0  0  0  0  0  0  0  0  0  0  0  0
   17.6578   -9.8926   14.0196 C   0  0  0  0  0  0  0  0  0  0  0  0
   17.3707   -8.7610   13.3653 N   0  0  0  0  0  0  0  0  0  0  0  0
   18.1350   -7.8092   14.0444 O   0  0  0  0  0  0  0  0  0  0  0  0
   18.8328   -8.4723   15.0093 C   0  0  0  0  0  0  0  0  0  0  0  0
   19.6668   -7.6805   15.8862 C   0  0  0  0  0  0  0  0  0  0  0  0
   20.1989   -6.4430   15.5527 C   0  0  0  0  0  0  0  0  0  0  0  0
   20.8377   -5.6697   16.5266 C   0  0  0  0  0  0  0  0  0  0  0  0
   20.8612   -6.1088   17.8496 C   0  0  0  0  0  0  0  0  0  0  0  0
   21.0511   -5.2479   18.9341 N   0  0  0  0  0  0  0  0  0  0  0  0
   20.8902   -3.7875   18.7562 C   0  0  0  0  0  0  0  0  0  0  0  0
   20.0295   -3.3045   19.9264 C   0  0  0  0  0  0  0  0  0  0  0  0
   19.2644   -4.5379   20.3983 C   0  0  1  0  0  0  0  0  0  0  0  0
   17.9022   -4.7084   19.8460 N   0  0  0  0  0  0  0  0  0  0  0  0
   17.7960   -5.0254   18.4304 C   0  0  2  0  0  0  0  0  0  0  0  0
   18.1291   -3.8723   17.6864 O   0  0  0  0  0  0  0  0  0  0  0  0
   16.4431   -5.5552   18.0220 C   0  0  0  0  0  0  0  0  0  0  0  0
   15.2873   -4.7662   17.7943 C   0  0  0  0  0  0  0  0  0  0  0  0
   15.3188   -2.9702   18.3287 Br  0  0  0  0  0  0  0  0  0  0  0  0
   14.0350   -5.2300   17.2787 C   0  0  0  0  0  0  0  0  0  0  0  0
   13.7855   -6.5787   16.9806 C   0  0  0  0  0  0  0  0  0  0  0  0
   14.8481   -7.4240   17.3104 C   0  0  0  0  0  0  0  0  0  0  0  0
   14.9244   -8.7632   17.2224 N   0  0  0  0  0  0  0  0  0  0  0  0
   16.1121   -9.0688   17.7763 N   0  0  0  0  0  0  0  0  0  0  0  0
   16.4829  -10.4550   17.9248 C   0  0  0  0  0  0  0  0  0  0  0  0
   16.8408   -7.9860   18.1685 C   0  0  0  0  0  0  0  0  0  0  0  0
   16.0932   -6.8965   17.8158 C   0  0  0  0  0  0  0  0  0  0  0  0
   20.3125   -5.6514   20.1543 C   0  0  0  0  0  0  0  0  0  0  0  0
   20.5425   -7.3962   18.1196 N   0  0  0  0  0  0  0  0  0  0  0  0
   19.9594   -8.1409   17.1525 C   0  0  0  0  0  0  0  0  0  0  0  0
   18.5607   -9.7575   15.0436 N   0  0  0  0  0  0  0  0  0  0  0  0
  1  2  1  0
  2  3  2  0
  3  4  1  0
  4  5  1  0
  5  6  1  0
  6  7  2  0
  7  8  1  0
  8  9  2  0
  9 10  1  0
 10 11  1  0
 11 12  1  0
 12 13  1  0
 13 14  1  6
 14 15  1  0
 15 16  1  6
 15 17  1  0
 17 18  2  0
 18 19  1  0
 18 20  1  0
 20 21  2  0
 21 22  1  0
 22 23  2  0
 23 24  1  0
 24 25  1  0
 24 26  1  0
 26 27  2  0
 13 28  1  0
  9 29  1  0
 29 30  2  0
  5 31  2  0
 31  2  1  0
 30  6  1  0
 28 10  1  0
 27 17  1  0
 27 22  1  0
M  END
>  <energy_score>  (1125) 
-72.451569

>  <inchikey>  (1125) 
None

>  <smiles>  (1125) 
None

>  <ref_pdb>  (1125) 
A1105b

>  <alias>  (1125) 
None

>  <HIPPO Pose ID>  (1125) 
498769

>  <name>  (1125) 
P498769

>  <HIPPO Compound ID>  (1125) 
293493

>  <ref_mols>  (1125) 
A0497a,A1105b

>  <distance_score>  (1125) 
1.541106

>  <inspiration_score>  (1125) 
None

$$$$
P498770
     RDKit          3D

 31 35  0  0  0  0  0  0  0  0999 V2000
   16.0671  -10.1689   13.2945 C   0  0  0  0  0  0  0  0  0  0  0  0
   17.1976   -9.2769   13.6090 C   0  0  0  0  0  0  0  0  0  0  0  0
   17.8926   -8.6324   12.6620 N   0  0  0  0  0  0  0  0  0  0  0  0
   18.8348   -7.9086   13.4036 O   0  0  0  0  0  0  0  0  0  0  0  0
   18.5850   -8.1752   14.7180 C   0  0  0  0  0  0  0  0  0  0  0  0
   19.4025   -7.5041   15.7032 C   0  0  0  0  0  0  0  0  0  0  0  0
   20.2742   -6.4561   15.4328 C   0  0  0  0  0  0  0  0  0  0  0  0
   20.9416   -5.8142   16.4797 C   0  0  0  0  0  0  0  0  0  0  0  0
   20.6931   -6.1909   17.8000 C   0  0  0  0  0  0  0  0  0  0  0  0
   21.1820   -5.4193   18.8823 N   0  0  0  0  0  0  0  0  0  0  0  0
   20.8531   -3.9683   18.7639 C   0  0  0  0  0  0  0  0  0  0  0  0
   19.8751   -3.6541   19.9079 C   0  0  0  0  0  0  0  0  0  0  0  0
   19.3526   -5.0138   20.3813 C   0  0  1  0  0  0  0  0  0  0  0  0
   18.2434   -5.6874   19.6732 N   0  0  0  0  0  0  0  0  0  0  0  0
   17.4148   -4.9035   18.7833 C   0  0  1  0  0  0  0  0  0  0  0  0
   18.1770   -4.2952   17.7672 O   0  0  0  0  0  0  0  0  0  0  0  0
   16.2409   -5.6705   18.1794 C   0  0  0  0  0  0  0  0  0  0  0  0
   15.0973   -4.9638   17.7073 C   0  0  0  0  0  0  0  0  0  0  0  0
   14.9905   -3.1308   18.0628 Br  0  0  0  0  0  0  0  0  0  0  0  0
   13.9333   -5.5104   17.0886 C   0  0  0  0  0  0  0  0  0  0  0  0
   13.7520   -6.8820   16.8981 C   0  0  0  0  0  0  0  0  0  0  0  0
   14.7787   -7.6516   17.4499 C   0  0  0  0  0  0  0  0  0  0  0  0
   14.8559   -8.9907   17.5233 N   0  0  0  0  0  0  0  0  0  0  0  0
   15.9451   -9.2187   18.2732 N   0  0  0  0  0  0  0  0  0  0  0  0
   16.2949  -10.5775   18.6078 C   0  0  0  0  0  0  0  0  0  0  0  0
   16.6099   -8.0908   18.6548 C   0  0  0  0  0  0  0  0  0  0  0  0
   15.9496   -7.0439   18.0656 C   0  0  0  0  0  0  0  0  0  0  0  0
   20.6607   -5.8441   20.2044 C   0  0  0  0  0  0  0  0  0  0  0  0
   19.9209   -7.2792   18.0537 N   0  0  0  0  0  0  0  0  0  0  0  0
   19.3219   -7.9061   17.0173 C   0  0  0  0  0  0  0  0  0  0  0  0
   17.6033   -9.0337   14.8927 N   0  0  0  0  0  0  0  0  0  0  0  0
  1  2  1  0
  2  3  2  0
  3  4  1  0
  4  5  1  0
  5  6  1  0
  6  7  2  0
  7  8  1  0
  8  9  2  0
  9 10  1  0
 10 11  1  0
 11 12  1  0
 12 13  1  0
 13 14  1  6
 14 15  1  0
 15 16  1  6
 15 17  1  0
 17 18  2  0
 18 19  1  0
 18 20  1  0
 20 21  2  0
 21 22  1  0
 22 23  2  0
 23 24  1  0
 24 25  1  0
 24 26  1  0
 26 27  2  0
 13 28  1  0
  9 29  1  0
 29 30  2  0
  5 31  2  0
 31  2  1  0
 30  6  1  0
 28 10  1  0
 27 17  1  0
 27 22  1  0
M  END
>  <energy_score>  (1126) 
-46.222894

>  <inchikey>  (1126) 
None

>  <smiles>  (1126) 
None

>  <ref_pdb>  (1126) 
A1105b

>  <alias>  (1126) 
None

>  <HIPPO Pose ID>  (1126) 
498770

>  <name>  (1126) 
P498770

>  <HIPPO Compound ID>  (1126) 
293493

>  <ref_mols>  (1126) 
A0497a,A1105b

>  <distance_score>  (1126) 
1.669235

>  <inspiration_score>  (1126) 
None

$$$$
P498771
     RDKit          3D

 31 35  0  0  0  0  0  0  0  0999 V2000
   18.9491   -2.9079   17.6717 C   0  0  0  0  0  0  0  0  0  0  0  0
   18.7379   -4.2262   18.1307 O   0  0  0  0  0  0  0  0  0  0  0  0
   17.6516   -4.3365   19.0102 C   0  0  2  0  0  0  0  0  0  0  0  0
   17.9438   -5.0799   20.2441 N   0  0  0  0  0  0  0  0  0  0  0  0
   19.2906   -5.5520   20.5755 C   0  0  2  0  0  0  0  0  0  0  0  0
   20.4669   -4.5968   20.3911 C   0  0  0  0  0  0  0  0  0  0  0  0
   21.2215   -5.1036   19.1519 C   0  0  0  0  0  0  0  0  0  0  0  0
   20.6391   -6.4065   18.8093 N   0  0  0  0  0  0  0  0  0  0  0  0
   20.2849   -6.7269   17.5030 C   0  0  0  0  0  0  0  0  0  0  0  0
   20.9181   -6.1058   16.4273 C   0  0  0  0  0  0  0  0  0  0  0  0
   20.6313   -6.4585   15.1102 C   0  0  0  0  0  0  0  0  0  0  0  0
   19.7010   -7.4496   14.8513 C   0  0  0  0  0  0  0  0  0  0  0  0
   19.3972   -7.8594   13.4945 C   0  0  0  0  0  0  0  0  0  0  0  0
   20.0247   -7.5883   12.3674 N   0  0  0  0  0  0  0  0  0  0  0  0
   19.2682   -8.2594   11.4437 C   0  0  0  0  0  0  0  0  0  0  0  0
   19.6017   -8.2774   10.0076 C   0  0  0  0  0  0  0  0  0  0  0  0
   18.1931   -8.8854   11.9374 N   0  0  0  0  0  0  0  0  0  0  0  0
   18.2823   -8.6320   13.3093 O   0  0  0  0  0  0  0  0  0  0  0  0
   19.1135   -8.0333   15.9584 C   0  0  0  0  0  0  0  0  0  0  0  0
   19.4078   -7.7246   17.2512 N   0  0  0  0  0  0  0  0  0  0  0  0
   19.7884   -6.8483   19.9003 C   0  0  0  0  0  0  0  0  0  0  0  0
   16.3898   -4.7772   18.2784 C   0  0  0  0  0  0  0  0  0  0  0  0
   15.4079   -3.7996   17.9282 C   0  0  0  0  0  0  0  0  0  0  0  0
   14.1526   -4.0659   17.3062 C   0  0  0  0  0  0  0  0  0  0  0  0
   13.7218   -5.3514   16.9666 C   0  0  0  0  0  0  0  0  0  0  0  0
   14.6332   -6.3588   17.2839 C   0  0  0  0  0  0  0  0  0  0  0  0
   14.5185   -7.6839   17.0784 N   0  0  0  0  0  0  0  0  0  0  0  0
   15.6229   -8.1938   17.6469 N   0  0  0  0  0  0  0  0  0  0  0  0
   15.8025   -9.6236   17.6811 C   0  0  0  0  0  0  0  0  0  0  0  0
   16.4736   -7.2604   18.1510 C   0  0  0  0  0  0  0  0  0  0  0  0
   15.9057   -6.0461   17.9056 C   0  0  0  0  0  0  0  0  0  0  0  0
  1  2  1  0
  2  3  1  0
  3  4  1  1
  5  4  1  6
  5  6  1  0
  6  7  1  0
  7  8  1  0
  8  9  1  0
  9 10  2  0
 10 11  1  0
 11 12  2  0
 12 13  1  0
 13 14  2  0
 14 15  1  0
 15 16  1  0
 15 17  2  0
 17 18  1  0
 12 19  1  0
 19 20  2  0
  8 21  1  0
  3 22  1  0
 22 23  2  0
 23 24  1  0
 24 25  2  0
 25 26  1  0
 26 27  2  0
 27 28  1  0
 28 29  1  0
 28 30  1  0
 30 31  2  0
 21  5  1  0
 31 22  1  0
 20  9  1  0
 31 26  1  0
 18 13  1  0
M  END
>  <energy_score>  (1127) 
-41.404456

>  <inchikey>  (1127) 
None

>  <smiles>  (1127) 
None

>  <ref_pdb>  (1127) 
A1105b

>  <alias>  (1127) 
None

>  <HIPPO Pose ID>  (1127) 
498771

>  <name>  (1127) 
P498771

>  <HIPPO Compound ID>  (1127) 
293495

>  <ref_mols>  (1127) 
A0497a,A1105b

>  <distance_score>  (1127) 
1.78974

>  <inspiration_score>  (1127) 
None

$$$$
P498772
     RDKit          3D

 31 35  0  0  0  0  0  0  0  0999 V2000
   18.9185   -2.9465   17.6114 C   0  0  0  0  0  0  0  0  0  0  0  0
   18.3328   -3.3202   18.8378 O   0  0  0  0  0  0  0  0  0  0  0  0
   17.9617   -4.6884   18.8935 C   0  0  1  0  0  0  0  0  0  0  0  0
   18.0115   -5.0182   20.3165 N   0  0  0  0  0  0  0  0  0  0  0  0
   19.3363   -5.2859   20.9129 C   0  0  2  0  0  0  0  0  0  0  0  0
   20.4710   -4.2898   20.6803 C   0  0  0  0  0  0  0  0  0  0  0  0
   21.2599   -4.8398   19.4863 C   0  0  0  0  0  0  0  0  0  0  0  0
   20.9399   -6.2732   19.4064 N   0  0  0  0  0  0  0  0  0  0  0  0
   20.6125   -6.8629   18.1864 C   0  0  0  0  0  0  0  0  0  0  0  0
   20.9070   -6.2821   16.9508 C   0  0  0  0  0  0  0  0  0  0  0  0
   20.2547   -6.7265   15.7959 C   0  0  0  0  0  0  0  0  0  0  0  0
   19.3730   -7.7974   15.8719 C   0  0  0  0  0  0  0  0  0  0  0  0
   18.5626   -8.2721   14.7735 C   0  0  0  0  0  0  0  0  0  0  0  0
   17.5179   -9.0733   14.7866 N   0  0  0  0  0  0  0  0  0  0  0  0
   17.1955   -9.1466   13.4573 C   0  0  0  0  0  0  0  0  0  0  0  0
   16.0364   -9.9123   12.9642 C   0  0  0  0  0  0  0  0  0  0  0  0
   18.0050   -8.4643   12.6369 N   0  0  0  0  0  0  0  0  0  0  0  0
   18.9277   -7.8867   13.5169 O   0  0  0  0  0  0  0  0  0  0  0  0
   19.2877   -8.4306   17.0934 C   0  0  0  0  0  0  0  0  0  0  0  0
   19.8947   -8.0048   18.2230 N   0  0  0  0  0  0  0  0  0  0  0  0
   20.0187   -6.6155   20.5121 C   0  0  0  0  0  0  0  0  0  0  0  0
   16.5901   -4.9280   18.2855 C   0  0  0  0  0  0  0  0  0  0  0  0
   15.6590   -3.8904   17.9940 C   0  0  0  0  0  0  0  0  0  0  0  0
   14.3658   -4.0810   17.4112 C   0  0  0  0  0  0  0  0  0  0  0  0
   13.8495   -5.3365   17.0603 C   0  0  0  0  0  0  0  0  0  0  0  0
   14.7018   -6.3996   17.3679 C   0  0  0  0  0  0  0  0  0  0  0  0
   14.5083   -7.7191   17.1923 N   0  0  0  0  0  0  0  0  0  0  0  0
   15.5727   -8.2875   17.7881 N   0  0  0  0  0  0  0  0  0  0  0  0
   15.6306   -9.7245   17.8885 C   0  0  0  0  0  0  0  0  0  0  0  0
   16.4904   -7.4019   18.2681 C   0  0  0  0  0  0  0  0  0  0  0  0
   16.0026   -6.1638   17.9557 C   0  0  0  0  0  0  0  0  0  0  0  0
  1  2  1  0
  2  3  1  0
  3  4  1  1
  5  4  1  6
  5  6  1  0
  6  7  1  0
  7  8  1  0
  8  9  1  0
  9 10  2  0
 10 11  1  0
 11 12  2  0
 12 13  1  0
 13 14  2  0
 14 15  1  0
 15 16  1  0
 15 17  2  0
 17 18  1  0
 12 19  1  0
 19 20  2  0
  8 21  1  0
  3 22  1  0
 22 23  2  0
 23 24  1  0
 24 25  2  0
 25 26  1  0
 26 27  2  0
 27 28  1  0
 28 29  1  0
 28 30  1  0
 30 31  2  0
 21  5  1  0
 31 22  1  0
 20  9  1  0
 31 26  1  0
 18 13  1  0
M  END
>  <energy_score>  (1128) 
-48.806303

>  <inchikey>  (1128) 
None

>  <smiles>  (1128) 
None

>  <ref_pdb>  (1128) 
A1105b

>  <alias>  (1128) 
None

>  <HIPPO Pose ID>  (1128) 
498772

>  <name>  (1128) 
P498772

>  <HIPPO Compound ID>  (1128) 
293495

>  <ref_mols>  (1128) 
A0497a,A1105b

>  <distance_score>  (1128) 
1.594436

>  <inspiration_score>  (1128) 
None

$$$$
P498773
     RDKit          3D

 31 35  0  0  0  0  0  0  0  0999 V2000
   19.0534   -2.5022   18.4424 C   0  0  0  0  0  0  0  0  0  0  0  0
   18.5698   -3.7812   18.0846 O   0  0  0  0  0  0  0  0  0  0  0  0
   17.6801   -4.3384   19.0284 C   0  0  2  0  0  0  0  0  0  0  0  0
   18.3175   -5.3726   19.8295 N   0  0  0  0  0  0  0  0  0  0  0  0
   19.6124   -5.0250   20.4217 C   0  0  1  0  0  0  0  0  0  0  0  0
   20.0216   -6.1102   21.4103 C   0  0  0  0  0  0  0  0  0  0  0  0
   20.5861   -7.2409   20.5303 C   0  0  0  0  0  0  0  0  0  0  0  0
   21.0451   -6.5865   19.2838 N   0  0  0  0  0  0  0  0  0  0  0  0
   20.4296   -7.0755   18.1051 C   0  0  0  0  0  0  0  0  0  0  0  0
   20.6543   -6.4404   16.8758 C   0  0  0  0  0  0  0  0  0  0  0  0
   19.9376   -6.8207   15.7426 C   0  0  0  0  0  0  0  0  0  0  0  0
   19.0452   -7.8790   15.8256 C   0  0  0  0  0  0  0  0  0  0  0  0
   18.2304   -8.3464   14.7291 C   0  0  0  0  0  0  0  0  0  0  0  0
   17.2178   -9.1880   14.7364 N   0  0  0  0  0  0  0  0  0  0  0  0
   16.8931   -9.2625   13.4090 C   0  0  0  0  0  0  0  0  0  0  0  0
   15.7718  -10.0818   12.9148 C   0  0  0  0  0  0  0  0  0  0  0  0
   17.6600   -8.5281   12.5923 N   0  0  0  0  0  0  0  0  0  0  0  0
   18.5711   -7.9314   13.4742 O   0  0  0  0  0  0  0  0  0  0  0  0
   18.9691   -8.5296   17.0414 C   0  0  0  0  0  0  0  0  0  0  0  0
   19.6287   -8.1632   18.1614 N   0  0  0  0  0  0  0  0  0  0  0  0
   20.8280   -5.1325   19.4646 C   0  0  0  0  0  0  0  0  0  0  0  0
   16.4333   -4.7990   18.2815 C   0  0  0  0  0  0  0  0  0  0  0  0
   15.4870   -3.8129   17.8666 C   0  0  0  0  0  0  0  0  0  0  0  0
   14.2286   -4.0711   17.2474 C   0  0  0  0  0  0  0  0  0  0  0  0
   13.7637   -5.3599   16.9697 C   0  0  0  0  0  0  0  0  0  0  0  0
   14.6347   -6.3775   17.3638 C   0  0  0  0  0  0  0  0  0  0  0  0
   14.4633   -7.7067   17.2619 N   0  0  0  0  0  0  0  0  0  0  0  0
   15.5094   -8.2194   17.9306 N   0  0  0  0  0  0  0  0  0  0  0  0
   15.5714   -9.6448   18.1385 C   0  0  0  0  0  0  0  0  0  0  0  0
   16.4001   -7.2911   18.3810 C   0  0  0  0  0  0  0  0  0  0  0  0
   15.9103   -6.0759   17.9873 C   0  0  0  0  0  0  0  0  0  0  0  0
  1  2  1  0
  2  3  1  0
  3  4  1  6
  5  4  1  6
  5  6  1  0
  6  7  1  0
  7  8  1  0
  8  9  1  0
  9 10  2  0
 10 11  1  0
 11 12  2  0
 12 13  1  0
 13 14  2  0
 14 15  1  0
 15 16  1  0
 15 17  2  0
 17 18  1  0
 12 19  1  0
 19 20  2  0
  8 21  1  0
  3 22  1  0
 22 23  2  0
 23 24  1  0
 24 25  2  0
 25 26  1  0
 26 27  2  0
 27 28  1  0
 28 29  1  0
 28 30  1  0
 30 31  2  0
 21  5  1  0
 31 22  1  0
 20  9  1  0
 31 26  1  0
 18 13  1  0
M  END
>  <energy_score>  (1129) 
-57.618121

>  <inchikey>  (1129) 
None

>  <smiles>  (1129) 
None

>  <ref_pdb>  (1129) 
A1105b

>  <alias>  (1129) 
None

>  <HIPPO Pose ID>  (1129) 
498773

>  <name>  (1129) 
P498773

>  <HIPPO Compound ID>  (1129) 
293495

>  <ref_mols>  (1129) 
A0497a,A1105b

>  <distance_score>  (1129) 
1.691238

>  <inspiration_score>  (1129) 
None

$$$$
P498774
     RDKit          3D

 31 35  0  0  0  0  0  0  0  0999 V2000
   17.8518   -2.3564   19.6235 C   0  0  0  0  0  0  0  0  0  0  0  0
   18.2841   -3.2060   18.5735 O   0  0  0  0  0  0  0  0  0  0  0  0
   17.9565   -4.5920   18.7051 C   0  0  1  0  0  0  0  0  0  0  0  0
   18.2148   -5.0946   20.0596 N   0  0  0  0  0  0  0  0  0  0  0  0
   19.6170   -5.1437   20.5420 C   0  0  2  0  0  0  0  0  0  0  0  0
   20.6551   -4.0928   20.1369 C   0  0  0  0  0  0  0  0  0  0  0  0
   21.2374   -4.6091   18.8224 C   0  0  0  0  0  0  0  0  0  0  0  0
   21.0962   -6.0786   18.8896 N   0  0  0  0  0  0  0  0  0  0  0  0
   20.6077   -6.7151   17.7463 C   0  0  0  0  0  0  0  0  0  0  0  0
   20.8727   -6.2335   16.4633 C   0  0  0  0  0  0  0  0  0  0  0  0
   20.1687   -6.7398   15.3724 C   0  0  0  0  0  0  0  0  0  0  0  0
   19.2405   -7.7547   15.5606 C   0  0  0  0  0  0  0  0  0  0  0  0
   18.4443   -8.2783   14.4756 C   0  0  0  0  0  0  0  0  0  0  0  0
   18.6718   -8.2799   13.1802 N   0  0  0  0  0  0  0  0  0  0  0  0
   17.5895   -8.9668   12.6969 C   0  0  0  0  0  0  0  0  0  0  0  0
   17.4040   -9.2473   11.2613 C   0  0  0  0  0  0  0  0  0  0  0  0
   16.7034   -9.3559   13.6212 N   0  0  0  0  0  0  0  0  0  0  0  0
   17.2696   -8.8955   14.8139 O   0  0  0  0  0  0  0  0  0  0  0  0
   19.1524   -8.2772   16.8336 C   0  0  0  0  0  0  0  0  0  0  0  0
   19.8122   -7.7937   17.9087 N   0  0  0  0  0  0  0  0  0  0  0  0
   20.3977   -6.4256   20.1428 C   0  0  0  0  0  0  0  0  0  0  0  0
   16.5568   -4.9274   18.1850 C   0  0  0  0  0  0  0  0  0  0  0  0
   15.6082   -3.9368   17.7941 C   0  0  0  0  0  0  0  0  0  0  0  0
   14.3027   -4.1790   17.2662 C   0  0  0  0  0  0  0  0  0  0  0  0
   13.7987   -5.4627   17.0383 C   0  0  0  0  0  0  0  0  0  0  0  0
   14.6694   -6.4875   17.4144 C   0  0  0  0  0  0  0  0  0  0  0  0
   14.4853   -7.8161   17.3322 N   0  0  0  0  0  0  0  0  0  0  0  0
   15.5611   -8.3369   17.9407 N   0  0  0  0  0  0  0  0  0  0  0  0
   15.6305   -9.7652   18.1301 C   0  0  0  0  0  0  0  0  0  0  0  0
   16.4935   -7.4162   18.3224 C   0  0  0  0  0  0  0  0  0  0  0  0
   15.9802   -6.1979   17.9650 C   0  0  0  0  0  0  0  0  0  0  0  0
  1  2  1  0
  2  3  1  0
  3  4  1  1
  5  4  1  6
  5  6  1  0
  6  7  1  0
  7  8  1  0
  8  9  1  0
  9 10  2  0
 10 11  1  0
 11 12  2  0
 12 13  1  0
 13 14  2  0
 14 15  1  0
 15 16  1  0
 15 17  2  0
 17 18  1  0
 12 19  1  0
 19 20  2  0
  8 21  1  0
  3 22  1  0
 22 23  2  0
 23 24  1  0
 24 25  2  0
 25 26  1  0
 26 27  2  0
 27 28  1  0
 28 29  1  0
 28 30  1  0
 30 31  2  0
 21  5  1  0
 31 22  1  0
 20  9  1  0
 31 26  1  0
 18 13  1  0
M  END
>  <energy_score>  (1130) 
-41.081175

>  <inchikey>  (1130) 
None

>  <smiles>  (1130) 
None

>  <ref_pdb>  (1130) 
A1105b

>  <alias>  (1130) 
None

>  <HIPPO Pose ID>  (1130) 
498774

>  <name>  (1130) 
P498774

>  <HIPPO Compound ID>  (1130) 
293495

>  <ref_mols>  (1130) 
A0497a,A1105b

>  <distance_score>  (1130) 
1.48029

>  <inspiration_score>  (1130) 
None

$$$$
P498775
     RDKit          3D

 31 35  0  0  0  0  0  0  0  0999 V2000
   18.7190   -3.3097   17.4585 C   0  0  0  0  0  0  0  0  0  0  0  0
   18.5246   -3.3297   18.8457 O   0  0  0  0  0  0  0  0  0  0  0  0
   17.5208   -4.2207   19.3006 C   0  0  2  0  0  0  0  0  0  0  0  0
   18.0174   -5.0393   20.4228 N   0  0  0  0  0  0  0  0  0  0  0  0
   19.3182   -5.7095   20.2865 C   0  0  2  0  0  0  0  0  0  0  0  0
   20.5793   -4.8446   20.2345 C   0  0  0  0  0  0  0  0  0  0  0  0
   21.2230   -5.1126   18.8727 C   0  0  0  0  0  0  0  0  0  0  0  0
   20.6805   -6.3900   18.4188 N   0  0  0  0  0  0  0  0  0  0  0  0
   20.5214   -6.6578   17.0509 C   0  0  0  0  0  0  0  0  0  0  0  0
   21.3185   -6.0374   16.1036 C   0  0  0  0  0  0  0  0  0  0  0  0
   21.1328   -6.3001   14.7483 C   0  0  0  0  0  0  0  0  0  0  0  0
   20.1598   -7.2032   14.3346 C   0  0  0  0  0  0  0  0  0  0  0  0
   19.9581   -7.4879   12.9259 C   0  0  0  0  0  0  0  0  0  0  0  0
   20.5689   -6.9933   11.8675 N   0  0  0  0  0  0  0  0  0  0  0  0
   19.9165   -7.6173   10.8360 C   0  0  0  0  0  0  0  0  0  0  0  0
   20.2731   -7.3989    9.4218 C   0  0  0  0  0  0  0  0  0  0  0  0
   18.9155   -8.4252   11.2055 N   0  0  0  0  0  0  0  0  0  0  0  0
   18.9490   -8.3537   12.6002 O   0  0  0  0  0  0  0  0  0  0  0  0
   19.4057   -7.7916   15.3323 C   0  0  0  0  0  0  0  0  0  0  0  0
   19.5848   -7.5558   16.6531 N   0  0  0  0  0  0  0  0  0  0  0  0
   19.4414   -6.6802   19.1186 C   0  0  0  0  0  0  0  0  0  0  0  0
   16.3885   -4.7748   18.3617 C   0  0  0  0  0  0  0  0  0  0  0  0
   15.4825   -3.7721   17.8999 C   0  0  0  0  0  0  0  0  0  0  0  0
   14.2869   -4.0466   17.2453 C   0  0  0  0  0  0  0  0  0  0  0  0
   13.9084   -5.3513   16.9998 C   0  0  0  0  0  0  0  0  0  0  0  0
   14.7682   -6.3674   17.4137 C   0  0  0  0  0  0  0  0  0  0  0  0
   15.9756   -6.1255   18.0865 C   0  0  0  0  0  0  0  0  0  0  0  0
   16.3647   -7.4457   18.4540 C   0  0  0  0  0  0  0  0  0  0  0  0
   15.5945   -8.4149   17.9564 N   0  0  0  0  0  0  0  0  0  0  0  0
   14.6171   -7.7311   17.3525 N   0  0  0  0  0  0  0  0  0  0  0  0
   13.5059   -8.4603   16.7924 C   0  0  0  0  0  0  0  0  0  0  0  0
  1  2  1  0
  2  3  1  0
  3  4  1  6
  5  4  1  6
  5  6  1  0
  6  7  1  0
  7  8  1  0
  8  9  1  0
  9 10  2  0
 10 11  1  0
 11 12  2  0
 12 13  1  0
 13 14  2  0
 14 15  1  0
 15 16  1  0
 15 17  2  0
 17 18  1  0
 12 19  1  0
 19 20  2  0
  8 21  1  0
  3 22  1  0
 22 23  2  0
 23 24  1  0
 24 25  2  0
 25 26  1  0
 26 27  2  0
 27 28  1  0
 28 29  2  0
 29 30  1  0
 30 31  1  0
 21  5  1  0
 27 22  1  0
 20  9  1  0
 30 26  1  0
 18 13  1  0
M  END
>  <energy_score>  (1131) 
-19.021988

>  <inchikey>  (1131) 
None

>  <smiles>  (1131) 
None

>  <ref_pdb>  (1131) 
A1105b

>  <alias>  (1131) 
None

>  <HIPPO Pose ID>  (1131) 
498775

>  <name>  (1131) 
P498775

>  <HIPPO Compound ID>  (1131) 
293496

>  <ref_mols>  (1131) 
A0497a,A1105b

>  <distance_score>  (1131) 
1.869108

>  <inspiration_score>  (1131) 
None

$$$$
P498776
     RDKit          3D

 31 35  0  0  0  0  0  0  0  0999 V2000
   18.9064   -2.8766   17.6712 C   0  0  0  0  0  0  0  0  0  0  0  0
   18.2204   -3.3369   18.8117 O   0  0  0  0  0  0  0  0  0  0  0  0
   17.8594   -4.7048   18.7294 C   0  0  1  0  0  0  0  0  0  0  0  0
   17.9182   -5.1494   20.1169 N   0  0  0  0  0  0  0  0  0  0  0  0
   19.1977   -5.6593   20.6115 C   0  0  2  0  0  0  0  0  0  0  0  0
   20.4361   -4.7816   20.4561 C   0  0  0  0  0  0  0  0  0  0  0  0
   21.1460   -5.2895   19.1980 C   0  0  0  0  0  0  0  0  0  0  0  0
   20.5977   -6.6272   18.9289 N   0  0  0  0  0  0  0  0  0  0  0  0
   20.3154   -6.9604   17.6087 C   0  0  0  0  0  0  0  0  0  0  0  0
   19.8574   -8.2218   17.2578 C   0  0  0  0  0  0  0  0  0  0  0  0
   19.6166   -8.5392   15.9164 C   0  0  0  0  0  0  0  0  0  0  0  0
   19.8682   -7.6087   14.9149 C   0  0  0  0  0  0  0  0  0  0  0  0
   19.7219   -7.8876   13.5001 C   0  0  0  0  0  0  0  0  0  0  0  0
   20.1903   -7.2309   12.4585 N   0  0  0  0  0  0  0  0  0  0  0  0
   19.7604   -8.0008   11.4102 C   0  0  0  0  0  0  0  0  0  0  0  0
   20.0786   -7.6773   10.0068 C   0  0  0  0  0  0  0  0  0  0  0  0
   19.0216   -9.0632   11.7534 N   0  0  0  0  0  0  0  0  0  0  0  0
   19.0038   -8.9983   13.1507 O   0  0  0  0  0  0  0  0  0  0  0  0
   20.3227   -6.3820   15.3401 C   0  0  0  0  0  0  0  0  0  0  0  0
   20.5455   -6.0563   16.6377 N   0  0  0  0  0  0  0  0  0  0  0  0
   19.6395   -6.9887   19.9756 C   0  0  0  0  0  0  0  0  0  0  0  0
   16.4657   -4.9301   18.1433 C   0  0  0  0  0  0  0  0  0  0  0  0
   15.5603   -3.8596   17.9778 C   0  0  0  0  0  0  0  0  0  0  0  0
   14.2822   -4.0438   17.4539 C   0  0  0  0  0  0  0  0  0  0  0  0
   13.8223   -5.3034   17.0979 C   0  0  0  0  0  0  0  0  0  0  0  0
   14.6818   -6.3805   17.2938 C   0  0  0  0  0  0  0  0  0  0  0  0
   15.9771   -6.2196   17.7820 C   0  0  0  0  0  0  0  0  0  0  0  0
   16.4732   -7.5410   17.8077 C   0  0  0  0  0  0  0  0  0  0  0  0
   15.6103   -8.4594   17.3700 N   0  0  0  0  0  0  0  0  0  0  0  0
   14.5129   -7.7296   17.1056 N   0  0  0  0  0  0  0  0  0  0  0  0
   13.3124   -8.4033   16.6772 C   0  0  0  0  0  0  0  0  0  0  0  0
  1  2  1  0
  2  3  1  0
  3  4  1  1
  5  4  1  6
  5  6  1  0
  6  7  1  0
  7  8  1  0
  8  9  1  0
  9 10  2  0
 10 11  1  0
 11 12  2  0
 12 13  1  0
 13 14  2  0
 14 15  1  0
 15 16  1  0
 15 17  2  0
 17 18  1  0
 12 19  1  0
 19 20  2  0
  8 21  1  0
  3 22  1  0
 22 23  2  0
 23 24  1  0
 24 25  2  0
 25 26  1  0
 26 27  2  0
 27 28  1  0
 28 29  2  0
 29 30  1  0
 30 31  1  0
 21  5  1  0
 27 22  1  0
 20  9  1  0
 30 26  1  0
 18 13  1  0
M  END
>  <energy_score>  (1132) 
-41.517072

>  <inchikey>  (1132) 
None

>  <smiles>  (1132) 
None

>  <ref_pdb>  (1132) 
A1105b

>  <alias>  (1132) 
None

>  <HIPPO Pose ID>  (1132) 
498776

>  <name>  (1132) 
P498776

>  <HIPPO Compound ID>  (1132) 
293496

>  <ref_mols>  (1132) 
A0497a,A1105b

>  <distance_score>  (1132) 
1.79708

>  <inspiration_score>  (1132) 
None

$$$$
P498777
     RDKit          3D

 31 35  0  0  0  0  0  0  0  0999 V2000
   17.9222   -2.1580   19.7805 C   0  0  0  0  0  0  0  0  0  0  0  0
   17.9976   -2.8375   18.5507 O   0  0  0  0  0  0  0  0  0  0  0  0
   17.7318   -4.2360   18.5408 C   0  0  1  0  0  0  0  0  0  0  0  0
   18.2523   -4.9571   19.7228 N   0  0  0  0  0  0  0  0  0  0  0  0
   19.5684   -5.4617   19.3776 C   0  0  1  0  0  0  0  0  0  0  0  0
   20.7507   -4.4904   19.3701 C   0  0  0  0  0  0  0  0  0  0  0  0
   21.9831   -5.4272   19.2459 C   0  0  0  0  0  0  0  0  0  0  0  0
   21.4588   -6.8193   19.2954 N   0  0  0  0  0  0  0  0  0  0  0  0
   21.0741   -7.4252   18.0535 C   0  0  0  0  0  0  0  0  0  0  0  0
   21.3078   -6.8296   16.8067 C   0  0  0  0  0  0  0  0  0  0  0  0
   20.4845   -7.1461   15.7183 C   0  0  0  0  0  0  0  0  0  0  0  0
   19.4801   -8.1007   15.8534 C   0  0  0  0  0  0  0  0  0  0  0  0
   18.5478   -8.4479   14.8002 C   0  0  0  0  0  0  0  0  0  0  0  0
   17.5055   -9.2503   14.8218 N   0  0  0  0  0  0  0  0  0  0  0  0
   17.0790   -9.2163   13.5238 C   0  0  0  0  0  0  0  0  0  0  0  0
   15.9087   -9.9811   13.0576 C   0  0  0  0  0  0  0  0  0  0  0  0
   17.7986   -8.4358   12.7077 N   0  0  0  0  0  0  0  0  0  0  0  0
   18.7914   -7.9304   13.5585 O   0  0  0  0  0  0  0  0  0  0  0  0
   19.4230   -8.7555   17.0686 C   0  0  0  0  0  0  0  0  0  0  0  0
   20.2104   -8.4639   18.1351 N   0  0  0  0  0  0  0  0  0  0  0  0
   20.1963   -6.6711   20.1000 C   0  0  0  0  0  0  0  0  0  0  0  0
   16.3291   -4.6680   18.1440 C   0  0  0  0  0  0  0  0  0  0  0  0
   15.3286   -3.7216   17.8654 C   0  0  0  0  0  0  0  0  0  0  0  0
   14.0943   -4.0893   17.3370 C   0  0  0  0  0  0  0  0  0  0  0  0
   13.7825   -5.4207   17.0899 C   0  0  0  0  0  0  0  0  0  0  0  0
   14.7339   -6.3795   17.4275 C   0  0  0  0  0  0  0  0  0  0  0  0
   15.9835   -6.0346   17.9317 C   0  0  0  0  0  0  0  0  0  0  0  0
   16.6076   -7.2847   18.1509 C   0  0  0  0  0  0  0  0  0  0  0  0
   15.8529   -8.3295   17.8054 N   0  0  0  0  0  0  0  0  0  0  0  0
   14.7114   -7.7507   17.3922 N   0  0  0  0  0  0  0  0  0  0  0  0
   13.5984   -8.5852   17.0140 C   0  0  0  0  0  0  0  0  0  0  0  0
  1  2  1  0
  2  3  1  0
  3  4  1  1
  5  4  1  1
  5  6  1  0
  6  7  1  0
  7  8  1  0
  8  9  1  0
  9 10  2  0
 10 11  1  0
 11 12  2  0
 12 13  1  0
 13 14  2  0
 14 15  1  0
 15 16  1  0
 15 17  2  0
 17 18  1  0
 12 19  1  0
 19 20  2  0
  8 21  1  0
  3 22  1  0
 22 23  2  0
 23 24  1  0
 24 25  2  0
 25 26  1  0
 26 27  2  0
 27 28  1  0
 28 29  2  0
 29 30  1  0
 30 31  1  0
 21  5  1  0
 27 22  1  0
 20  9  1  0
 30 26  1  0
 18 13  1  0
M  END
>  <energy_score>  (1133) 
-20.869404

>  <inchikey>  (1133) 
None

>  <smiles>  (1133) 
None

>  <ref_pdb>  (1133) 
A1105b

>  <alias>  (1133) 
None

>  <HIPPO Pose ID>  (1133) 
498777

>  <name>  (1133) 
P498777

>  <HIPPO Compound ID>  (1133) 
293496

>  <ref_mols>  (1133) 
A0497a,A1105b

>  <distance_score>  (1133) 
1.395468

>  <inspiration_score>  (1133) 
None

$$$$
P498778
     RDKit          3D

 31 35  0  0  0  0  0  0  0  0999 V2000
   17.7981   -9.6212   11.7761 C   0  0  0  0  0  0  0  0  0  0  0  0
   17.9647   -9.1126   13.1496 C   0  0  0  0  0  0  0  0  0  0  0  0
   17.1233   -9.4373   14.1371 N   0  0  0  0  0  0  0  0  0  0  0  0
   17.6510   -8.7555   15.2385 O   0  0  0  0  0  0  0  0  0  0  0  0
   18.7621   -8.0917   14.7906 C   0  0  0  0  0  0  0  0  0  0  0  0
   19.4947   -7.3017   15.7578 C   0  0  0  0  0  0  0  0  0  0  0  0
   20.3370   -6.2686   15.3691 C   0  0  0  0  0  0  0  0  0  0  0  0
   20.9467   -5.4633   16.3308 C   0  0  0  0  0  0  0  0  0  0  0  0
   20.6942   -5.6833   17.6853 C   0  0  0  0  0  0  0  0  0  0  0  0
   21.1181   -4.7453   18.6486 N   0  0  0  0  0  0  0  0  0  0  0  0
   20.6433   -3.3669   18.3476 C   0  0  0  0  0  0  0  0  0  0  0  0
   19.8461   -2.9291   19.5774 C   0  0  0  0  0  0  0  0  0  0  0  0
   19.3958   -4.2337   20.2365 C   0  0  1  0  0  0  0  0  0  0  0  0
   18.2245   -4.9887   19.7295 N   0  0  0  0  0  0  0  0  0  0  0  0
   17.4811   -4.4531   18.6022 C   0  0  2  0  0  0  0  0  0  0  0  0
   16.9789   -3.1975   18.9897 O   0  0  0  0  0  0  0  0  0  0  0  0
   16.3210   -5.3346   18.1574 C   0  0  0  0  0  0  0  0  0  0  0  0
   15.1515   -4.7624   17.5660 C   0  0  0  0  0  0  0  0  0  0  0  0
   14.0582   -5.4998   17.0027 C   0  0  0  0  0  0  0  0  0  0  0  0
   14.0295   -6.9108   16.9198 C   0  0  0  0  0  0  0  0  0  0  0  0
   13.0189   -7.7207   16.1913 C   0  0  0  0  0  0  0  0  0  0  0  0
   15.0807   -7.5093   17.6264 C   0  0  0  0  0  0  0  0  0  0  0  0
   15.2753   -8.8219   17.8553 N   0  0  0  0  0  0  0  0  0  0  0  0
   16.3074   -8.8629   18.7006 N   0  0  0  0  0  0  0  0  0  0  0  0
   16.7146  -10.1325   19.2501 C   0  0  0  0  0  0  0  0  0  0  0  0
   16.8775   -7.6483   18.9369 C   0  0  0  0  0  0  0  0  0  0  0  0
   16.1522   -6.7357   18.2115 C   0  0  0  0  0  0  0  0  0  0  0  0
   20.7077   -5.0507   20.0363 C   0  0  0  0  0  0  0  0  0  0  0  0
   19.9879   -6.7683   18.0755 N   0  0  0  0  0  0  0  0  0  0  0  0
   19.4194   -7.5415   17.1139 C   0  0  0  0  0  0  0  0  0  0  0  0
   18.9838   -8.2698   13.5053 N   0  0  0  0  0  0  0  0  0  0  0  0
  1  2  1  0
  2  3  2  0
  3  4  1  0
  4  5  1  0
  5  6  1  0
  6  7  2  0
  7  8  1  0
  8  9  2  0
  9 10  1  0
 10 11  1  0
 11 12  1  0
 12 13  1  0
 13 14  1  6
 14 15  1  0
 15 16  1  1
 15 17  1  0
 17 18  2  0
 18 19  1  0
 19 20  2  0
 20 21  1  0
 20 22  1  0
 22 23  2  0
 23 24  1  0
 24 25  1  0
 24 26  1  0
 26 27  2  0
 13 28  1  0
  9 29  1  0
 29 30  2  0
  5 31  2  0
 31  2  1  0
 30  6  1  0
 28 10  1  0
 27 17  1  0
 27 22  1  0
M  END
>  <energy_score>  (1134) 
-55.390029

>  <inchikey>  (1134) 
None

>  <smiles>  (1134) 
None

>  <ref_pdb>  (1134) 
A1105b

>  <alias>  (1134) 
None

>  <HIPPO Pose ID>  (1134) 
498778

>  <name>  (1134) 
P498778

>  <HIPPO Compound ID>  (1134) 
293498

>  <ref_mols>  (1134) 
A0497a,A1105b

>  <distance_score>  (1134) 
1.444862

>  <inspiration_score>  (1134) 
None

$$$$
P498779
     RDKit          3D

 31 35  0  0  0  0  0  0  0  0999 V2000
   17.6900   -9.4183   11.3916 C   0  0  0  0  0  0  0  0  0  0  0  0
   17.8508   -9.0214   12.8022 C   0  0  0  0  0  0  0  0  0  0  0  0
   16.9647   -9.3622   13.7446 N   0  0  0  0  0  0  0  0  0  0  0  0
   17.5001   -8.7898   14.9030 O   0  0  0  0  0  0  0  0  0  0  0  0
   18.6599   -8.1644   14.5284 C   0  0  0  0  0  0  0  0  0  0  0  0
   19.4022   -7.4822   15.5647 C   0  0  0  0  0  0  0  0  0  0  0  0
   20.3009   -6.4618   15.2788 C   0  0  0  0  0  0  0  0  0  0  0  0
   20.9056   -5.7519   16.3161 C   0  0  0  0  0  0  0  0  0  0  0  0
   20.5856   -6.0509   17.6404 C   0  0  0  0  0  0  0  0  0  0  0  0
   20.9466   -5.1761   18.6792 N   0  0  0  0  0  0  0  0  0  0  0  0
   20.7205   -3.7315   18.4010 C   0  0  0  0  0  0  0  0  0  0  0  0
   20.0485   -3.1602   19.6506 C   0  0  0  0  0  0  0  0  0  0  0  0
   19.3446   -4.3512   20.2862 C   0  0  1  0  0  0  0  0  0  0  0  0
   17.9491   -4.6306   19.8965 N   0  0  0  0  0  0  0  0  0  0  0  0
   17.6316   -4.6267   18.4745 C   0  0  2  0  0  0  0  0  0  0  0  0
   17.5833   -3.3021   17.9836 O   0  0  0  0  0  0  0  0  0  0  0  0
   16.3686   -5.3833   18.1341 C   0  0  0  0  0  0  0  0  0  0  0  0
   15.1956   -4.7824   17.5989 C   0  0  0  0  0  0  0  0  0  0  0  0
   14.0835   -5.5123   17.0585 C   0  0  0  0  0  0  0  0  0  0  0  0
   14.0333   -6.9280   16.9871 C   0  0  0  0  0  0  0  0  0  0  0  0
   13.0199   -7.7271   16.2523 C   0  0  0  0  0  0  0  0  0  0  0  0
   15.0754   -7.5379   17.6981 C   0  0  0  0  0  0  0  0  0  0  0  0
   15.2640   -8.8466   17.9564 N   0  0  0  0  0  0  0  0  0  0  0  0
   16.3290   -8.8796   18.7660 N   0  0  0  0  0  0  0  0  0  0  0  0
   16.7515  -10.1425   19.3198 C   0  0  0  0  0  0  0  0  0  0  0  0
   16.9305   -7.6697   18.9404 C   0  0  0  0  0  0  0  0  0  0  0  0
   16.1668   -6.7728   18.2367 C   0  0  0  0  0  0  0  0  0  0  0  0
   20.3705   -5.4804   20.0017 C   0  0  0  0  0  0  0  0  0  0  0  0
   19.8328   -7.1430   17.9193 N   0  0  0  0  0  0  0  0  0  0  0  0
   19.2670   -7.8199   16.8924 C   0  0  0  0  0  0  0  0  0  0  0  0
   18.9074   -8.2677   13.2404 N   0  0  0  0  0  0  0  0  0  0  0  0
  1  2  1  0
  2  3  2  0
  3  4  1  0
  4  5  1  0
  5  6  1  0
  6  7  2  0
  7  8  1  0
  8  9  2  0
  9 10  1  0
 10 11  1  0
 11 12  1  0
 12 13  1  0
 13 14  1  6
 14 15  1  0
 15 16  1  1
 15 17  1  0
 17 18  2  0
 18 19  1  0
 19 20  2  0
 20 21  1  0
 20 22  1  0
 22 23  2  0
 23 24  1  0
 24 25  1  0
 24 26  1  0
 26 27  2  0
 13 28  1  0
  9 29  1  0
 29 30  2  0
  5 31  2  0
 31  2  1  0
 30  6  1  0
 28 10  1  0
 27 17  1  0
 27 22  1  0
M  END
>  <energy_score>  (1135) 
-50.747998

>  <inchikey>  (1135) 
None

>  <smiles>  (1135) 
None

>  <ref_pdb>  (1135) 
A1105b

>  <alias>  (1135) 
None

>  <HIPPO Pose ID>  (1135) 
498779

>  <name>  (1135) 
P498779

>  <HIPPO Compound ID>  (1135) 
293498

>  <ref_mols>  (1135) 
A0497a,A1105b

>  <distance_score>  (1135) 
1.649896

>  <inspiration_score>  (1135) 
None

$$$$
P498780
     RDKit          3D

 31 35  0  0  0  0  0  0  0  0999 V2000
   19.9200  -11.5070   12.5494 C   0  0  0  0  0  0  0  0  0  0  0  0
   20.0734  -10.1205   13.0264 C   0  0  0  0  0  0  0  0  0  0  0  0
   20.1264   -9.0777   12.1886 N   0  0  0  0  0  0  0  0  0  0  0  0
   20.2674   -7.9877   13.0512 O   0  0  0  0  0  0  0  0  0  0  0  0
   20.2852   -8.4928   14.3228 C   0  0  0  0  0  0  0  0  0  0  0  0
   20.4032   -7.5459   15.4102 C   0  0  0  0  0  0  0  0  0  0  0  0
   20.5304   -6.1823   15.2250 C   0  0  0  0  0  0  0  0  0  0  0  0
   20.6162   -5.3346   16.3287 C   0  0  0  0  0  0  0  0  0  0  0  0
   20.5506   -5.8257   17.6271 C   0  0  0  0  0  0  0  0  0  0  0  0
   20.7142   -5.0035   18.7281 N   0  0  0  0  0  0  0  0  0  0  0  0
   20.6456   -3.5331   18.6635 C   0  0  0  0  0  0  0  0  0  0  0  0
   19.7660   -3.0989   19.8431 C   0  0  0  0  0  0  0  0  0  0  0  0
   19.1107   -4.3793   20.3447 C   0  0  1  0  0  0  0  0  0  0  0  0
   17.7978   -4.7810   19.8432 N   0  0  0  0  0  0  0  0  0  0  0  0
   17.1964   -4.2315   18.6350 C   0  0  1  0  0  0  0  0  0  0  0  0
   18.1156   -3.8397   17.6567 O   0  0  0  0  0  0  0  0  0  0  0  0
   16.1662   -5.1705   18.0309 C   0  0  0  0  0  0  0  0  0  0  0  0
   14.8943   -4.6814   17.6157 C   0  0  0  0  0  0  0  0  0  0  0  0
   13.8578   -5.4880   17.0400 C   0  0  0  0  0  0  0  0  0  0  0  0
   13.9754   -6.8802   16.7987 C   0  0  0  0  0  0  0  0  0  0  0  0
   12.9635   -7.7363   16.1235 C   0  0  0  0  0  0  0  0  0  0  0  0
   15.1989   -7.4006   17.2393 C   0  0  0  0  0  0  0  0  0  0  0  0
   15.6168   -8.6796   17.1812 N   0  0  0  0  0  0  0  0  0  0  0  0
   16.8296   -8.6610   17.7413 N   0  0  0  0  0  0  0  0  0  0  0  0
   17.5500   -9.9000   17.8988 C   0  0  0  0  0  0  0  0  0  0  0  0
   17.2432   -7.4205   18.1160 C   0  0  0  0  0  0  0  0  0  0  0  0
   16.2234   -6.5618   17.8095 C   0  0  0  0  0  0  0  0  0  0  0  0
   20.1974   -5.4379   20.0170 C   0  0  0  0  0  0  0  0  0  0  0  0
   20.4427   -7.1634   17.8089 N   0  0  0  0  0  0  0  0  0  0  0  0
   20.3907   -7.9781   16.7224 C   0  0  0  0  0  0  0  0  0  0  0  0
   20.1713   -9.8042   14.3568 N   0  0  0  0  0  0  0  0  0  0  0  0
  1  2  1  0
  2  3  2  0
  3  4  1  0
  4  5  1  0
  5  6  1  0
  6  7  2  0
  7  8  1  0
  8  9  2  0
  9 10  1  0
 10 11  1  0
 11 12  1  0
 12 13  1  0
 13 14  1  6
 14 15  1  0
 15 16  1  6
 15 17  1  0
 17 18  2  0
 18 19  1  0
 19 20  2  0
 20 21  1  0
 20 22  1  0
 22 23  2  0
 23 24  1  0
 24 25  1  0
 24 26  1  0
 26 27  2  0
 13 28  1  0
  9 29  1  0
 29 30  2  0
  5 31  2  0
 31  2  1  0
 30  6  1  0
 28 10  1  0
 27 17  1  0
 27 22  1  0
M  END
>  <energy_score>  (1136) 
-46.72421

>  <inchikey>  (1136) 
None

>  <smiles>  (1136) 
None

>  <ref_pdb>  (1136) 
A1105b

>  <alias>  (1136) 
None

>  <HIPPO Pose ID>  (1136) 
498780

>  <name>  (1136) 
P498780

>  <HIPPO Compound ID>  (1136) 
293498

>  <ref_mols>  (1136) 
A0497a,A1105b

>  <distance_score>  (1136) 
1.995792

>  <inspiration_score>  (1136) 
None

$$$$
P498781
     RDKit          3D

 31 35  0  0  0  0  0  0  0  0999 V2000
   16.2344  -10.2705   13.4730 C   0  0  0  0  0  0  0  0  0  0  0  0
   17.3327   -9.3270   13.7481 C   0  0  0  0  0  0  0  0  0  0  0  0
   18.0325   -8.7301   12.7739 N   0  0  0  0  0  0  0  0  0  0  0  0
   18.9331   -7.9264   13.4840 O   0  0  0  0  0  0  0  0  0  0  0  0
   18.6596   -8.1090   14.8090 C   0  0  0  0  0  0  0  0  0  0  0  0
   19.4202   -7.3289   15.7608 C   0  0  0  0  0  0  0  0  0  0  0  0
   20.3163   -6.3219   15.4235 C   0  0  0  0  0  0  0  0  0  0  0  0
   20.9102   -5.5496   16.4258 C   0  0  0  0  0  0  0  0  0  0  0  0
   20.5755   -5.7626   17.7638 C   0  0  0  0  0  0  0  0  0  0  0  0
   21.0025   -4.8596   18.7660 N   0  0  0  0  0  0  0  0  0  0  0  0
   20.6343   -3.4474   18.4567 C   0  0  0  0  0  0  0  0  0  0  0  0
   19.7384   -2.9787   19.6107 C   0  0  0  0  0  0  0  0  0  0  0  0
   19.1809   -4.2612   20.2192 C   0  0  1  0  0  0  0  0  0  0  0  0
   18.0910   -4.9779   19.5501 N   0  0  0  0  0  0  0  0  0  0  0  0
   17.1283   -4.2809   18.7305 C   0  0  1  0  0  0  0  0  0  0  0  0
   17.7675   -3.5768   17.6921 O   0  0  0  0  0  0  0  0  0  0  0  0
   16.0913   -5.2307   18.1409 C   0  0  0  0  0  0  0  0  0  0  0  0
   14.9267   -4.6958   17.5202 C   0  0  0  0  0  0  0  0  0  0  0  0
   13.8894   -5.4779   16.9165 C   0  0  0  0  0  0  0  0  0  0  0  0
   13.9143   -6.8916   16.8227 C   0  0  0  0  0  0  0  0  0  0  0  0
   12.9543   -7.7369   16.0641 C   0  0  0  0  0  0  0  0  0  0  0  0
   14.9627   -7.4546   17.5599 C   0  0  0  0  0  0  0  0  0  0  0  0
   15.1904   -8.7603   17.7993 N   0  0  0  0  0  0  0  0  0  0  0  0
   16.1925   -8.7622   18.6840 N   0  0  0  0  0  0  0  0  0  0  0  0
   16.6319  -10.0148   19.2469 C   0  0  0  0  0  0  0  0  0  0  0  0
   16.7050   -7.5280   18.9434 C   0  0  0  0  0  0  0  0  0  0  0  0
   15.9806   -6.6420   18.1823 C   0  0  0  0  0  0  0  0  0  0  0  0
   20.4688   -5.1375   20.1251 C   0  0  0  0  0  0  0  0  0  0  0  0
   19.7817   -6.8092   18.0981 N   0  0  0  0  0  0  0  0  0  0  0  0
   19.2482   -7.5616   17.1069 C   0  0  0  0  0  0  0  0  0  0  0  0
   17.7012   -8.9848   15.0197 N   0  0  0  0  0  0  0  0  0  0  0  0
  1  2  1  0
  2  3  2  0
  3  4  1  0
  4  5  1  0
  5  6  1  0
  6  7  2  0
  7  8  1  0
  8  9  2  0
  9 10  1  0
 10 11  1  0
 11 12  1  0
 12 13  1  0
 13 14  1  6
 14 15  1  0
 15 16  1  6
 15 17  1  0
 17 18  2  0
 18 19  1  0
 19 20  2  0
 20 21  1  0
 20 22  1  0
 22 23  2  0
 23 24  1  0
 24 25  1  0
 24 26  1  0
 26 27  2  0
 13 28  1  0
  9 29  1  0
 29 30  2  0
  5 31  2  0
 31  2  1  0
 30  6  1  0
 28 10  1  0
 27 17  1  0
 27 22  1  0
M  END
>  <energy_score>  (1137) 
-38.414365

>  <inchikey>  (1137) 
None

>  <smiles>  (1137) 
None

>  <ref_pdb>  (1137) 
A1105b

>  <alias>  (1137) 
None

>  <HIPPO Pose ID>  (1137) 
498781

>  <name>  (1137) 
P498781

>  <HIPPO Compound ID>  (1137) 
293498

>  <ref_mols>  (1137) 
A0497a,A1105b

>  <distance_score>  (1137) 
1.591777

>  <inspiration_score>  (1137) 
None

$$$$
P498782
     RDKit          3D

 31 35  0  0  0  0  0  0  0  0999 V2000
   15.9104  -10.3706   14.5283 C   0  0  0  0  0  0  0  0  0  0  0  0
   17.0546   -9.4421   14.4995 C   0  0  0  0  0  0  0  0  0  0  0  0
   17.3683   -8.7165   13.4173 N   0  0  0  0  0  0  0  0  0  0  0  0
   18.4620   -7.9596   13.8573 O   0  0  0  0  0  0  0  0  0  0  0  0
   18.6829   -8.3100   15.1585 C   0  0  0  0  0  0  0  0  0  0  0  0
   19.7496   -7.6295   15.8628 C   0  0  0  0  0  0  0  0  0  0  0  0
   20.4157   -6.5134   15.3686 C   0  0  0  0  0  0  0  0  0  0  0  0
   21.3450   -5.8436   16.1656 C   0  0  0  0  0  0  0  0  0  0  0  0
   21.5731   -6.2780   17.4750 C   0  0  0  0  0  0  0  0  0  0  0  0
   22.0835   -5.3231   18.4267 N   0  0  0  0  0  0  0  0  0  0  0  0
   22.2690   -5.8966   19.7870 C   0  0  0  0  0  0  0  0  0  0  0  0
   21.0309   -5.5180   20.6315 C   0  0  0  0  0  0  0  0  0  0  0  0
   20.0377   -5.0851   19.5764 C   0  0  1  0  0  0  0  0  0  0  0  0
   18.8206   -4.4755   20.0749 N   0  0  0  0  0  0  0  0  0  0  0  0
   18.0415   -4.0851   18.9283 C   0  0  2  0  0  0  0  0  0  0  0  0
   17.5032   -2.8459   19.3503 O   0  0  0  0  0  0  0  0  0  0  0  0
   16.9638   -5.0295   18.4601 C   0  0  0  0  0  0  0  0  0  0  0  0
   15.8722   -4.3965   17.8553 C   0  0  0  0  0  0  0  0  0  0  0  0
   14.7219   -5.0431   17.3752 C   0  0  0  0  0  0  0  0  0  0  0  0
   13.5180   -3.8476   16.6848 Br  0  0  0  0  0  0  0  0  0  0  0  0
   14.4900   -6.4141   17.3447 C   0  0  0  0  0  0  0  0  0  0  0  0
   15.5604   -7.1129   17.8979 C   0  0  0  0  0  0  0  0  0  0  0  0
   15.6851   -8.4399   18.0618 N   0  0  0  0  0  0  0  0  0  0  0  0
   16.8336   -8.5866   18.7378 N   0  0  0  0  0  0  0  0  0  0  0  0
   17.2454   -9.9115   19.1331 C   0  0  0  0  0  0  0  0  0  0  0  0
   17.4823   -7.4164   19.0107 C   0  0  0  0  0  0  0  0  0  0  0  0
   16.7409   -6.4239   18.4302 C   0  0  0  0  0  0  0  0  0  0  0  0
   21.0006   -4.3241   18.6183 C   0  0  0  0  0  0  0  0  0  0  0  0
   21.0636   -7.4558   17.9026 N   0  0  0  0  0  0  0  0  0  0  0  0
   20.1534   -8.0788   17.1079 C   0  0  0  0  0  0  0  0  0  0  0  0
   17.8698   -9.2522   15.5816 N   0  0  0  0  0  0  0  0  0  0  0  0
  1  2  1  0
  2  3  2  0
  3  4  1  0
  4  5  1  0
  5  6  1  0
  6  7  2  0
  7  8  1  0
  8  9  2  0
  9 10  1  0
 10 11  1  0
 11 12  1  0
 12 13  1  0
 13 14  1  1
 14 15  1  0
 15 16  1  1
 15 17  1  0
 17 18  2  0
 18 19  1  0
 19 20  1  0
 19 21  2  0
 21 22  1  0
 22 23  2  0
 23 24  1  0
 24 25  1  0
 24 26  1  0
 26 27  2  0
 13 28  1  0
  9 29  1  0
 29 30  2  0
  5 31  2  0
 31  2  1  0
 30  6  1  0
 28 10  1  0
 27 17  1  0
 27 22  1  0
M  END
>  <energy_score>  (1138) 
-29.13472

>  <inchikey>  (1138) 
None

>  <smiles>  (1138) 
None

>  <ref_pdb>  (1138) 
A1105b

>  <alias>  (1138) 
None

>  <HIPPO Pose ID>  (1138) 
498782

>  <name>  (1138) 
P498782

>  <HIPPO Compound ID>  (1138) 
293499

>  <ref_mols>  (1138) 
A0497a,A1105b

>  <distance_score>  (1138) 
1.980615

>  <inspiration_score>  (1138) 
None

$$$$
P498783
     RDKit          3D

 31 35  0  0  0  0  0  0  0  0999 V2000
   15.9914  -10.1007   13.2223 C   0  0  0  0  0  0  0  0  0  0  0  0
   17.1408   -9.2472   13.5741 C   0  0  0  0  0  0  0  0  0  0  0  0
   17.8324   -8.5568   12.6574 N   0  0  0  0  0  0  0  0  0  0  0  0
   18.8071   -7.9074   13.4260 O   0  0  0  0  0  0  0  0  0  0  0  0
   18.5744   -8.2520   14.7256 C   0  0  0  0  0  0  0  0  0  0  0  0
   19.4451   -7.6836   15.7303 C   0  0  0  0  0  0  0  0  0  0  0  0
   20.3369   -6.6401   15.5067 C   0  0  0  0  0  0  0  0  0  0  0  0
   21.0582   -6.0951   16.5742 C   0  0  0  0  0  0  0  0  0  0  0  0
   20.8341   -6.5551   17.8740 C   0  0  0  0  0  0  0  0  0  0  0  0
   21.2331   -5.8124   18.9993 N   0  0  0  0  0  0  0  0  0  0  0  0
   21.2424   -4.3317   18.8747 C   0  0  0  0  0  0  0  0  0  0  0  0
   20.5912   -3.7906   20.1519 C   0  0  0  0  0  0  0  0  0  0  0  0
   19.6888   -4.9192   20.6456 C   0  0  1  0  0  0  0  0  0  0  0  0
   18.2846   -4.8826   20.1829 N   0  0  0  0  0  0  0  0  0  0  0  0
   18.1166   -4.9573   18.7492 C   0  0  2  0  0  0  0  0  0  0  0  0
   18.3215   -3.6612   18.2065 O   0  0  0  0  0  0  0  0  0  0  0  0
   16.7925   -5.5029   18.3363 C   0  0  0  0  0  0  0  0  0  0  0  0
   15.8038   -4.6404   17.8689 C   0  0  0  0  0  0  0  0  0  0  0  0
   14.5668   -5.0775   17.3598 C   0  0  0  0  0  0  0  0  0  0  0  0
   13.5912   -3.6869   16.6590 Br  0  0  0  0  0  0  0  0  0  0  0  0
   14.1191   -6.4003   17.2653 C   0  0  0  0  0  0  0  0  0  0  0  0
   15.0448   -7.2912   17.8067 C   0  0  0  0  0  0  0  0  0  0  0  0
   14.9659   -8.6263   17.9458 N   0  0  0  0  0  0  0  0  0  0  0  0
   16.0688   -8.9554   18.6443 N   0  0  0  0  0  0  0  0  0  0  0  0
   16.2637  -10.3290   19.0386 C   0  0  0  0  0  0  0  0  0  0  0  0
   16.9047   -7.9105   18.9052 C   0  0  0  0  0  0  0  0  0  0  0  0
   16.3160   -6.8236   18.3204 C   0  0  0  0  0  0  0  0  0  0  0  0
   20.5398   -6.1625   20.2636 C   0  0  0  0  0  0  0  0  0  0  0  0
   20.0754   -7.6628   18.0624 N   0  0  0  0  0  0  0  0  0  0  0  0
   19.4084   -8.1896   17.0109 C   0  0  0  0  0  0  0  0  0  0  0  0
   17.5695   -9.0899   14.8639 N   0  0  0  0  0  0  0  0  0  0  0  0
  1  2  1  0
  2  3  2  0
  3  4  1  0
  4  5  1  0
  5  6  1  0
  6  7  2  0
  7  8  1  0
  8  9  2  0
  9 10  1  0
 10 11  1  0
 11 12  1  0
 12 13  1  0
 13 14  1  6
 14 15  1  0
 15 16  1  6
 15 17  1  0
 17 18  2  0
 18 19  1  0
 19 20  1  0
 19 21  2  0
 21 22  1  0
 22 23  2  0
 23 24  1  0
 24 25  1  0
 24 26  1  0
 26 27  2  0
 13 28  1  0
  9 29  1  0
 29 30  2  0
  5 31  2  0
 31  2  1  0
 30  6  1  0
 28 10  1  0
 27 17  1  0
 27 22  1  0
M  END
>  <energy_score>  (1139) 
-35.394617

>  <inchikey>  (1139) 
None

>  <smiles>  (1139) 
None

>  <ref_pdb>  (1139) 
A1105b

>  <alias>  (1139) 
None

>  <HIPPO Pose ID>  (1139) 
498783

>  <name>  (1139) 
P498783

>  <HIPPO Compound ID>  (1139) 
293499

>  <ref_mols>  (1139) 
A0497a,A1105b

>  <distance_score>  (1139) 
1.749396

>  <inspiration_score>  (1139) 
None

$$$$
P498784
     RDKit          3D

 31 35  0  0  0  0  0  0  0  0999 V2000
   15.9749  -10.1405   13.4860 C   0  0  0  0  0  0  0  0  0  0  0  0
   17.1137   -9.2447   13.7576 C   0  0  0  0  0  0  0  0  0  0  0  0
   17.7984   -8.6327   12.7820 N   0  0  0  0  0  0  0  0  0  0  0  0
   18.7635   -7.9035   13.4883 O   0  0  0  0  0  0  0  0  0  0  0  0
   18.5300   -8.1268   14.8145 C   0  0  0  0  0  0  0  0  0  0  0  0
   19.3947   -7.4616   15.7642 C   0  0  0  0  0  0  0  0  0  0  0  0
   20.2965   -6.4524   15.4445 C   0  0  0  0  0  0  0  0  0  0  0  0
   21.0610   -5.8483   16.4481 C   0  0  0  0  0  0  0  0  0  0  0  0
   20.8904   -6.2251   17.7803 C   0  0  0  0  0  0  0  0  0  0  0  0
   21.5436   -5.5259   18.8226 N   0  0  0  0  0  0  0  0  0  0  0  0
   21.3339   -4.0484   18.7785 C   0  0  0  0  0  0  0  0  0  0  0  0
   20.5209   -3.6919   20.0368 C   0  0  0  0  0  0  0  0  0  0  0  0
   19.9389   -5.0185   20.5313 C   0  0  1  0  0  0  0  0  0  0  0  0
   18.7188   -5.5791   19.9262 N   0  0  0  0  0  0  0  0  0  0  0  0
   17.8910   -4.7235   19.1244 C   0  0  1  0  0  0  0  0  0  0  0  0
   18.5972   -4.0367   18.1133 O   0  0  0  0  0  0  0  0  0  0  0  0
   16.7560   -5.4600   18.4594 C   0  0  0  0  0  0  0  0  0  0  0  0
   15.8065   -4.6240   17.8617 C   0  0  0  0  0  0  0  0  0  0  0  0
   14.6023   -5.0720   17.2945 C   0  0  0  0  0  0  0  0  0  0  0  0
   13.6112   -3.6855   16.6067 Br  0  0  0  0  0  0  0  0  0  0  0  0
   14.1782   -6.3979   17.1862 C   0  0  0  0  0  0  0  0  0  0  0  0
   15.0841   -7.2773   17.7794 C   0  0  0  0  0  0  0  0  0  0  0  0
   14.9968   -8.6121   17.9095 N   0  0  0  0  0  0  0  0  0  0  0  0
   16.0330   -8.9381   18.6999 N   0  0  0  0  0  0  0  0  0  0  0  0
   16.1955  -10.3117   19.1091 C   0  0  0  0  0  0  0  0  0  0  0  0
   16.8360   -7.8891   19.0403 C   0  0  0  0  0  0  0  0  0  0  0  0
   16.3135   -6.7975   18.3966 C   0  0  0  0  0  0  0  0  0  0  0  0
   21.1436   -5.9478   20.1869 C   0  0  0  0  0  0  0  0  0  0  0  0
   20.0556   -7.2540   18.0827 N   0  0  0  0  0  0  0  0  0  0  0  0
   19.3549   -7.8444   17.0863 C   0  0  0  0  0  0  0  0  0  0  0  0
   17.5385   -8.9650   15.0273 N   0  0  0  0  0  0  0  0  0  0  0  0
  1  2  1  0
  2  3  2  0
  3  4  1  0
  4  5  1  0
  5  6  1  0
  6  7  2  0
  7  8  1  0
  8  9  2  0
  9 10  1  0
 10 11  1  0
 11 12  1  0
 12 13  1  0
 13 14  1  6
 14 15  1  0
 15 16  1  6
 15 17  1  0
 17 18  2  0
 18 19  1  0
 19 20  1  0
 19 21  2  0
 21 22  1  0
 22 23  2  0
 23 24  1  0
 24 25  1  0
 24 26  1  0
 26 27  2  0
 13 28  1  0
  9 29  1  0
 29 30  2  0
  5 31  2  0
 31  2  1  0
 30  6  1  0
 28 10  1  0
 27 17  1  0
 27 22  1  0
M  END
>  <energy_score>  (1140) 
-41.829958

>  <inchikey>  (1140) 
None

>  <smiles>  (1140) 
None

>  <ref_pdb>  (1140) 
A1105b

>  <alias>  (1140) 
None

>  <HIPPO Pose ID>  (1140) 
498784

>  <name>  (1140) 
P498784

>  <HIPPO Compound ID>  (1140) 
293499

>  <ref_mols>  (1140) 
A0497a,A1105b

>  <distance_score>  (1140) 
1.57461

>  <inspiration_score>  (1140) 
None

$$$$
P498785
     RDKit          3D

 31 34  0  0  0  0  0  0  0  0999 V2000
   18.0281   -3.3086   17.8453 O   0  0  0  0  0  0  0  0  0  0  0  0
   17.3682   -3.9834   18.8840 C   0  0  2  0  0  0  0  0  0  0  0  0
   18.2577   -4.8572   19.6152 N   0  0  0  0  0  0  0  0  0  0  0  0
   19.4856   -4.2875   20.1909 C   0  0  2  0  0  0  0  0  0  0  0  0
   20.1867   -3.1002   19.5375 C   0  0  0  0  0  0  0  0  0  0  0  0
   20.9431   -3.6926   18.3430 C   0  0  0  0  0  0  0  0  0  0  0  0
   21.1755   -5.1221   18.6700 N   0  0  0  0  0  0  0  0  0  0  0  0
   20.5625   -6.0453   17.7728 C   0  0  0  0  0  0  0  0  0  0  0  0
   19.5274   -5.6459   17.0004 N   0  0  0  0  0  0  0  0  0  0  0  0
   18.7423   -6.5752   16.4210 C   0  0  0  0  0  0  0  0  0  0  0  0
   18.9395   -7.9250   16.5367 C   0  0  0  0  0  0  0  0  0  0  0  0
   17.9838   -8.8736   15.9230 C   0  0  0  0  0  0  0  0  0  0  0  0
   18.4911   -9.3976   14.7652 F   0  0  0  0  0  0  0  0  0  0  0  0
   16.7809   -8.3489   15.5606 F   0  0  0  0  0  0  0  0  0  0  0  0
   17.7130   -9.9596   16.6998 F   0  0  0  0  0  0  0  0  0  0  0  0
   20.0790   -8.3442   17.2089 C   0  0  0  0  0  0  0  0  0  0  0  0
   20.9031   -7.4051   17.8251 C   0  0  0  0  0  0  0  0  0  0  0  0
   22.2753   -7.9930   18.7018 Cl  0  0  0  0  0  0  0  0  0  0  0  0
   20.6227   -5.3344   20.0390 C   0  0  0  0  0  0  0  0  0  0  0  0
   16.1803   -4.6903   18.2364 C   0  0  0  0  0  0  0  0  0  0  0  0
   15.1563   -3.8522   17.7428 C   0  0  0  0  0  0  0  0  0  0  0  0
   14.0081   -4.3478   17.1430 C   0  0  0  0  0  0  0  0  0  0  0  0
   13.8073   -5.7167   17.0193 C   0  0  0  0  0  0  0  0  0  0  0  0
   14.7780   -6.5662   17.5498 C   0  0  0  0  0  0  0  0  0  0  0  0
   15.9464   -6.0907   18.1414 C   0  0  0  0  0  0  0  0  0  0  0  0
   16.5834   -7.2677   18.6100 C   0  0  0  0  0  0  0  0  0  0  0  0
   15.9302   -8.3896   18.3059 N   0  0  0  0  0  0  0  0  0  0  0  0
   14.8226   -7.9363   17.6640 N   0  0  0  0  0  0  0  0  0  0  0  0
   13.8397   -8.8764   17.1428 C   0  0  0  0  0  0  0  0  0  0  0  0
   12.6537   -8.7922   17.8036 F   0  0  0  0  0  0  0  0  0  0  0  0
   13.5660   -8.6375   15.8275 F   0  0  0  0  0  0  0  0  0  0  0  0
  2  1  1  6
  2  3  1  0
  4  3  1  6
  4  5  1  0
  5  6  1  0
  6  7  1  0
  7  8  1  0
  8  9  2  0
  9 10  1  0
 10 11  2  0
 11 12  1  0
 12 13  1  0
 12 14  1  0
 12 15  1  0
 11 16  1  0
 16 17  2  0
 17 18  1  0
  7 19  1  0
  2 20  1  0
 20 21  2  0
 21 22  1  0
 22 23  2  0
 23 24  1  0
 24 25  2  0
 25 26  1  0
 26 27  2  0
 27 28  1  0
 28 29  1  0
 29 30  1  0
 29 31  1  0
 19  4  1  0
 25 20  1  0
 17  8  1  0
 28 24  1  0
M  END
>  <energy_score>  (1141) 
-33.613472

>  <inchikey>  (1141) 
None

>  <smiles>  (1141) 
None

>  <ref_pdb>  (1141) 
A1105b

>  <alias>  (1141) 
None

>  <HIPPO Pose ID>  (1141) 
498785

>  <name>  (1141) 
P498785

>  <HIPPO Compound ID>  (1141) 
293500

>  <ref_mols>  (1141) 
A0497a,A1105b

>  <distance_score>  (1141) 
1.937216

>  <inspiration_score>  (1141) 
None

$$$$
P498786
     RDKit          3D

 31 34  0  0  0  0  0  0  0  0999 V2000
   17.9112   -3.0857   18.1390 O   0  0  0  0  0  0  0  0  0  0  0  0
   17.2942   -3.9776   19.0286 C   0  0  2  0  0  0  0  0  0  0  0  0
   18.2630   -4.9390   19.4828 N   0  0  0  0  0  0  0  0  0  0  0  0
   19.4233   -4.4813   20.2618 C   0  0  2  0  0  0  0  0  0  0  0  0
   20.2457   -3.3121   19.7277 C   0  0  0  0  0  0  0  0  0  0  0  0
   20.9738   -3.8933   18.5093 C   0  0  0  0  0  0  0  0  0  0  0  0
   21.1711   -5.3408   18.8134 N   0  0  0  0  0  0  0  0  0  0  0  0
   20.6074   -6.2250   17.8487 C   0  0  0  0  0  0  0  0  0  0  0  0
   19.5774   -5.7763   17.0979 N   0  0  0  0  0  0  0  0  0  0  0  0
   18.7643   -6.6452   16.4690 C   0  0  0  0  0  0  0  0  0  0  0  0
   18.9143   -8.0009   16.5536 C   0  0  0  0  0  0  0  0  0  0  0  0
   17.9245   -8.9013   15.9227 C   0  0  0  0  0  0  0  0  0  0  0  0
   16.7491   -8.3240   15.5516 F   0  0  0  0  0  0  0  0  0  0  0  0
   18.4213   -9.4389   14.7662 F   0  0  0  0  0  0  0  0  0  0  0  0
   17.5987   -9.9807   16.6877 F   0  0  0  0  0  0  0  0  0  0  0  0
   20.0414   -8.4777   17.2168 C   0  0  0  0  0  0  0  0  0  0  0  0
   20.9028   -7.5901   17.8619 C   0  0  0  0  0  0  0  0  0  0  0  0
   22.2354   -8.2457   18.7462 Cl  0  0  0  0  0  0  0  0  0  0  0  0
   20.5240   -5.5809   20.1437 C   0  0  0  0  0  0  0  0  0  0  0  0
   16.1448   -4.6404   18.2651 C   0  0  0  0  0  0  0  0  0  0  0  0
   15.1425   -3.7868   17.7597 C   0  0  0  0  0  0  0  0  0  0  0  0
   14.0051   -4.2644   17.1238 C   0  0  0  0  0  0  0  0  0  0  0  0
   13.7886   -5.6291   16.9794 C   0  0  0  0  0  0  0  0  0  0  0  0
   14.7392   -6.4972   17.5136 C   0  0  0  0  0  0  0  0  0  0  0  0
   15.8962   -6.0408   18.1398 C   0  0  0  0  0  0  0  0  0  0  0  0
   16.4967   -7.2316   18.6291 C   0  0  0  0  0  0  0  0  0  0  0  0
   15.8468   -8.3433   18.2851 N   0  0  0  0  0  0  0  0  0  0  0  0
   14.7679   -7.8693   17.6103 N   0  0  0  0  0  0  0  0  0  0  0  0
   13.7972   -8.7949   17.0433 C   0  0  0  0  0  0  0  0  0  0  0  0
   12.6063   -8.7506   17.6986 F   0  0  0  0  0  0  0  0  0  0  0  0
   13.5287   -8.5058   15.7366 F   0  0  0  0  0  0  0  0  0  0  0  0
  2  1  1  6
  2  3  1  0
  4  3  1  6
  4  5  1  0
  5  6  1  0
  6  7  1  0
  7  8  1  0
  8  9  2  0
  9 10  1  0
 10 11  2  0
 11 12  1  0
 12 13  1  0
 12 14  1  0
 12 15  1  0
 11 16  1  0
 16 17  2  0
 17 18  1  0
  7 19  1  0
  2 20  1  0
 20 21  2  0
 21 22  1  0
 22 23  2  0
 23 24  1  0
 24 25  2  0
 25 26  1  0
 26 27  2  0
 27 28  1  0
 28 29  1  0
 29 30  1  0
 29 31  1  0
 19  4  1  0
 25 20  1  0
 17  8  1  0
 28 24  1  0
M  END
>  <energy_score>  (1142) 
-46.544046

>  <inchikey>  (1142) 
None

>  <smiles>  (1142) 
None

>  <ref_pdb>  (1142) 
A1105b

>  <alias>  (1142) 
None

>  <HIPPO Pose ID>  (1142) 
498786

>  <name>  (1142) 
P498786

>  <HIPPO Compound ID>  (1142) 
293500

>  <ref_mols>  (1142) 
A0497a,A1105b

>  <distance_score>  (1142) 
1.937717

>  <inspiration_score>  (1142) 
None

$$$$
P498787
     RDKit          3D

 31 35  0  0  0  0  0  0  0  0999 V2000
   16.0985   -7.0635   17.6617 C   0  0  0  0  0  0  0  0  0  0  0  0
   17.3326   -7.4274   17.0065 N   0  0  0  0  0  0  0  0  0  0  0  0
   18.3519   -6.5873   16.6655 C   0  0  0  0  0  0  0  0  0  0  0  0
   19.2582   -7.3706   16.0032 C   0  0  0  0  0  0  0  0  0  0  0  0
   20.4516   -6.9473   15.4011 C   0  0  0  0  0  0  0  0  0  0  0  0
   20.9728   -5.5498   15.2522 C   0  0  0  0  0  0  0  0  0  0  0  0
   22.3978   -5.3850   15.5975 N   0  0  0  0  0  0  0  0  0  0  0  0
   22.5621   -4.9978   17.0110 C   0  0  0  0  0  0  0  0  0  0  0  0
   22.4974   -6.1775   17.9778 C   0  0  0  0  0  0  0  0  0  0  0  0
   22.6078   -5.6703   19.4177 C   0  0  0  0  0  0  0  0  0  0  0  0
   23.7883   -4.8420   19.6842 N   0  0  0  0  0  0  0  0  0  0  0  0
   23.8688   -4.2587   21.0541 C   0  0  2  0  0  0  0  0  0  0  0  0
   23.5061   -5.1950   22.2153 C   0  0  0  0  0  0  0  0  0  0  0  0
   22.0189   -4.9397   22.4808 C   0  0  0  0  0  0  0  0  0  0  0  0
   21.7682   -3.5500   22.0510 N   0  0  0  0  0  0  0  0  0  0  0  0
   20.5874   -3.3851   21.3118 C   0  0  0  0  0  0  0  0  0  0  0  0
   19.3652   -3.7578   21.8741 C   0  0  0  0  0  0  0  0  0  0  0  0
   18.1954   -3.6767   21.1190 C   0  0  0  0  0  0  0  0  0  0  0  0
   18.2670   -3.2418   19.8063 C   0  0  0  0  0  0  0  0  0  0  0  0
   16.8765   -3.2189   18.8122 Cl  0  0  0  0  0  0  0  0  0  0  0  0
   19.4963   -2.8439   19.3241 C   0  0  0  0  0  0  0  0  0  0  0  0
   20.6366   -2.8847   20.0564 N   0  0  0  0  0  0  0  0  0  0  0  0
   22.9963   -3.0255   21.4269 C   0  0  0  0  0  0  0  0  0  0  0  0
   24.0026   -3.8045   18.6606 C   0  0  0  0  0  0  0  0  0  0  0  0
   23.9192   -4.3206   17.2234 C   0  0  0  0  0  0  0  0  0  0  0  0
   21.1150   -8.0547   14.8093 C   0  0  0  0  0  0  0  0  0  0  0  0
   20.6227   -9.3950   14.8317 C   0  0  0  0  0  0  0  0  0  0  0  0
   21.6597  -10.7415   13.9794 Br  0  0  0  0  0  0  0  0  0  0  0  0
   19.4123   -9.7808   15.4363 C   0  0  0  0  0  0  0  0  0  0  0  0
   18.7249   -8.7136   16.0315 C   0  0  0  0  0  0  0  0  0  0  0  0
   17.5434   -8.7176   16.6728 N   0  0  0  0  0  0  0  0  0  0  0  0
  1  2  1  0
  2  3  1  0
  3  4  2  0
  4  5  1  0
  5  6  1  0
  6  7  1  0
  7  8  1  0
  8  9  1  0
  9 10  1  0
 10 11  1  0
 12 11  1  6
 12 13  1  0
 13 14  1  0
 14 15  1  0
 15 16  1  0
 16 17  2  0
 17 18  1  0
 18 19  2  0
 19 20  1  0
 19 21  1  0
 21 22  2  0
 15 23  1  0
 11 24  1  0
 24 25  1  0
  5 26  2  0
 26 27  1  0
 27 28  1  0
 27 29  2  0
 29 30  1  0
 30 31  2  0
 31  2  1  0
 30  4  1  0
 25  8  1  0
 23 12  1  0
 22 16  1  0
M  END
>  <energy_score>  (1143) 
-46.802666

>  <inchikey>  (1143) 
None

>  <smiles>  (1143) 
None

>  <ref_pdb>  (1143) 
A1105b

>  <alias>  (1143) 
None

>  <HIPPO Pose ID>  (1143) 
498787

>  <name>  (1143) 
P498787

>  <HIPPO Compound ID>  (1143) 
293501

>  <ref_mols>  (1143) 
A0497a,A1105b

>  <distance_score>  (1143) 
1.9454

>  <inspiration_score>  (1143) 
None

$$$$
P498788
     RDKit          3D

 31 35  0  0  0  0  0  0  0  0999 V2000
   15.7550   -8.6154   18.2561 C   0  0  0  0  0  0  0  0  0  0  0  0
   17.0027   -8.3926   17.5631 N   0  0  0  0  0  0  0  0  0  0  0  0
   18.2563   -8.4157   18.1120 C   0  0  0  0  0  0  0  0  0  0  0  0
   19.1126   -8.1119   17.0854 C   0  0  0  0  0  0  0  0  0  0  0  0
   20.5172   -8.0250   17.1262 C   0  0  0  0  0  0  0  0  0  0  0  0
   21.5099   -8.5728   18.1293 C   0  0  0  0  0  0  0  0  0  0  0  0
   21.3293   -8.3044   19.5457 N   0  0  0  0  0  0  0  0  0  0  0  0
   21.7234   -6.9849   20.0463 C   0  0  0  0  0  0  0  0  0  0  0  0
   21.6245   -7.0431   21.5911 C   0  0  0  0  0  0  0  0  0  0  0  0
   22.5520   -6.0430   22.3095 C   0  0  0  0  0  0  0  0  0  0  0  0
   22.7807   -4.7918   21.5680 N   0  0  0  0  0  0  0  0  0  0  0  0
   21.5195   -4.0435   21.4013 C   0  0  1  0  0  0  0  0  0  0  0  0
   21.0042   -3.3580   22.6714 C   0  0  0  0  0  0  0  0  0  0  0  0
   19.8429   -2.4923   22.1491 C   0  0  0  0  0  0  0  0  0  0  0  0
   20.1314   -2.2314   20.7141 N   0  0  0  0  0  0  0  0  0  0  0  0
   19.1416   -2.8562   19.9037 C   0  0  0  0  0  0  0  0  0  0  0  0
   17.8838   -2.2757   19.7950 C   0  0  0  0  0  0  0  0  0  0  0  0
   16.8822   -2.9258   19.0742 C   0  0  0  0  0  0  0  0  0  0  0  0
   17.1566   -4.1300   18.4600 C   0  0  0  0  0  0  0  0  0  0  0  0
   15.9314   -4.9479   17.5930 Cl  0  0  0  0  0  0  0  0  0  0  0  0
   18.4310   -4.6308   18.5822 C   0  0  0  0  0  0  0  0  0  0  0  0
   19.4084   -4.0315   19.2988 N   0  0  0  0  0  0  0  0  0  0  0  0
   21.4649   -2.8286   20.4427 C   0  0  0  0  0  0  0  0  0  0  0  0
   23.4467   -5.1211   20.2904 C   0  0  0  0  0  0  0  0  0  0  0  0
   23.1210   -6.4938   19.6638 C   0  0  0  0  0  0  0  0  0  0  0  0
   21.0061   -7.6335   15.8407 C   0  0  0  0  0  0  0  0  0  0  0  0
   20.2020   -7.4614   14.6752 C   0  0  0  0  0  0  0  0  0  0  0  0
   21.0745   -7.0201   13.0448 Br  0  0  0  0  0  0  0  0  0  0  0  0
   18.8157   -7.6615   14.6565 C   0  0  0  0  0  0  0  0  0  0  0  0
   18.2718   -7.9579   15.9118 C   0  0  0  0  0  0  0  0  0  0  0  0
   16.9905   -8.1976   16.2347 N   0  0  0  0  0  0  0  0  0  0  0  0
  1  2  1  0
  2  3  1  0
  3  4  2  0
  4  5  1  0
  5  6  1  0
  6  7  1  0
  7  8  1  0
  8  9  1  0
  9 10  1  0
 10 11  1  0
 12 11  1  1
 12 13  1  0
 13 14  1  0
 14 15  1  0
 15 16  1  0
 16 17  2  0
 17 18  1  0
 18 19  2  0
 19 20  1  0
 19 21  1  0
 21 22  2  0
 15 23  1  0
 11 24  1  0
 24 25  1  0
  5 26  2  0
 26 27  1  0
 27 28  1  0
 27 29  2  0
 29 30  1  0
 30 31  2  0
 31  2  1  0
 30  4  1  0
 25  8  1  0
 23 12  1  0
 22 16  1  0
M  END
>  <energy_score>  (1144) 
-52.870165

>  <inchikey>  (1144) 
None

>  <smiles>  (1144) 
None

>  <ref_pdb>  (1144) 
A1105b

>  <alias>  (1144) 
None

>  <HIPPO Pose ID>  (1144) 
498788

>  <name>  (1144) 
P498788

>  <HIPPO Compound ID>  (1144) 
293501

>  <ref_mols>  (1144) 
A0497a,A1105b

>  <distance_score>  (1144) 
1.750197

>  <inspiration_score>  (1144) 
None

$$$$
P498789
     RDKit          3D

 31 34  0  0  0  0  0  0  0  0999 V2000
   18.1800   -2.2217   19.5115 C   0  0  0  0  0  0  0  0  0  0  0  0
   18.1444   -3.2375   18.5203 O   0  0  0  0  0  0  0  0  0  0  0  0
   17.6934   -4.4779   19.0442 C   0  0  2  0  0  0  0  0  0  0  0  0
   18.7293   -5.4598   18.9640 N   0  0  0  0  0  0  0  0  0  0  0  0
   20.0523   -5.2221   19.5301 C   0  0  2  0  0  0  0  0  0  0  0  0
   20.9078   -4.1094   18.9242 C   0  0  0  0  0  0  0  0  0  0  0  0
   21.2798   -4.6425   17.5373 C   0  0  0  0  0  0  0  0  0  0  0  0
   21.3533   -6.1208   17.6965 N   0  0  0  0  0  0  0  0  0  0  0  0
   20.6026   -6.7860   16.6983 C   0  0  0  0  0  0  0  0  0  0  0  0
   19.5760   -7.5774   17.0973 N   0  0  0  0  0  0  0  0  0  0  0  0
   18.7416   -8.1332   16.1952 C   0  0  0  0  0  0  0  0  0  0  0  0
   18.8702   -7.9635   14.8449 C   0  0  0  0  0  0  0  0  0  0  0  0
   17.9420   -8.6438   13.8956 C   0  0  0  0  0  0  0  0  0  0  0  0
   17.7153   -7.9408   12.7478 F   0  0  0  0  0  0  0  0  0  0  0  0
   16.7121   -8.9040   14.4171 F   0  0  0  0  0  0  0  0  0  0  0  0
   18.4269   -9.8515   13.4880 F   0  0  0  0  0  0  0  0  0  0  0  0
   19.9690   -7.2226   14.4155 C   0  0  0  0  0  0  0  0  0  0  0  0
   20.8462   -6.6356   15.3321 C   0  0  0  0  0  0  0  0  0  0  0  0
   22.2264   -5.8162   14.6921 Cl  0  0  0  0  0  0  0  0  0  0  0  0
   20.9558   -6.4219   19.1014 C   0  0  0  0  0  0  0  0  0  0  0  0
   16.4433   -4.9390   18.2873 C   0  0  0  0  0  0  0  0  0  0  0  0
   15.5074   -3.9465   17.8488 C   0  0  0  0  0  0  0  0  0  0  0  0
   14.2561   -4.1926   17.2227 C   0  0  0  0  0  0  0  0  0  0  0  0
   13.7953   -5.4794   16.9444 C   0  0  0  0  0  0  0  0  0  0  0  0
   14.6403   -6.5090   17.3704 C   0  0  0  0  0  0  0  0  0  0  0  0
   14.4414   -7.8282   17.2496 N   0  0  0  0  0  0  0  0  0  0  0  0
   15.4047   -8.3760   17.9985 N   0  0  0  0  0  0  0  0  0  0  0  0
   15.3838   -9.8100   18.1818 C   0  0  0  0  0  0  0  0  0  0  0  0
   16.2756   -7.4744   18.5677 C   0  0  0  0  0  0  0  0  0  0  0  0
   17.2483   -7.9215   19.6022 C   0  0  0  0  0  0  0  0  0  0  0  0
   15.9046   -6.2413   18.0464 C   0  0  0  0  0  0  0  0  0  0  0  0
  1  2  1  0
  2  3  1  0
  3  4  1  6
  5  4  1  6
  5  6  1  0
  6  7  1  0
  7  8  1  0
  8  9  1  0
  9 10  2  0
 10 11  1  0
 11 12  2  0
 12 13  1  0
 13 14  1  0
 13 15  1  0
 13 16  1  0
 12 17  1  0
 17 18  2  0
 18 19  1  0
  8 20  1  0
  3 21  1  0
 21 22  2  0
 22 23  1  0
 23 24  2  0
 24 25  1  0
 25 26  2  0
 26 27  1  0
 27 28  1  0
 27 29  1  0
 29 30  1  0
 29 31  2  0
 20  5  1  0
 31 21  1  0
 18  9  1  0
 31 25  1  0
M  END
>  <energy_score>  (1145) 
-54.967305

>  <inchikey>  (1145) 
None

>  <smiles>  (1145) 
None

>  <ref_pdb>  (1145) 
A1105b

>  <alias>  (1145) 
None

>  <HIPPO Pose ID>  (1145) 
498789

>  <name>  (1145) 
P498789

>  <HIPPO Compound ID>  (1145) 
293502

>  <ref_mols>  (1145) 
A0497a,A1105b

>  <distance_score>  (1145) 
1.791216

>  <inspiration_score>  (1145) 
None

$$$$
P498790
     RDKit          3D

 31 34  0  0  0  0  0  0  0  0999 V2000
   18.7640   -3.0225   17.6195 C   0  0  0  0  0  0  0  0  0  0  0  0
   18.2258   -3.5443   18.8144 O   0  0  0  0  0  0  0  0  0  0  0  0
   17.9116   -4.9340   18.7596 C   0  0  1  0  0  0  0  0  0  0  0  0
   18.1388   -5.3751   20.1307 N   0  0  0  0  0  0  0  0  0  0  0  0
   19.5403   -5.6632   20.5097 C   0  0  2  0  0  0  0  0  0  0  0  0
   20.5970   -4.5816   20.2809 C   0  0  0  0  0  0  0  0  0  0  0  0
   21.2976   -4.9532   18.9640 C   0  0  0  0  0  0  0  0  0  0  0  0
   20.9839   -6.3684   18.7021 N   0  0  0  0  0  0  0  0  0  0  0  0
   20.5427   -6.7622   17.4326 C   0  0  0  0  0  0  0  0  0  0  0  0
   19.5500   -7.6917   17.3952 N   0  0  0  0  0  0  0  0  0  0  0  0
   18.9940   -8.0828   16.2313 C   0  0  0  0  0  0  0  0  0  0  0  0
   19.3970   -7.6100   15.0141 C   0  0  0  0  0  0  0  0  0  0  0  0
   18.8081   -8.1754   13.7644 C   0  0  0  0  0  0  0  0  0  0  0  0
   19.2939   -7.6157   12.6191 F   0  0  0  0  0  0  0  0  0  0  0  0
   17.4541   -8.0580   13.6900 F   0  0  0  0  0  0  0  0  0  0  0  0
   19.0599   -9.5112   13.6422 F   0  0  0  0  0  0  0  0  0  0  0  0
   20.4438   -6.6911   15.0187 C   0  0  0  0  0  0  0  0  0  0  0  0
   21.0404   -6.2796   16.2182 C   0  0  0  0  0  0  0  0  0  0  0  0
   22.4374   -5.2688   16.0718 Cl  0  0  0  0  0  0  0  0  0  0  0  0
   20.2365   -6.8875   19.8610 C   0  0  0  0  0  0  0  0  0  0  0  0
   16.4887   -5.1715   18.2523 C   0  0  0  0  0  0  0  0  0  0  0  0
   15.6292   -4.0567   17.9733 C   0  0  0  0  0  0  0  0  0  0  0  0
   14.3373   -4.1215   17.3856 C   0  0  0  0  0  0  0  0  0  0  0  0
   13.7487   -5.3185   16.9868 C   0  0  0  0  0  0  0  0  0  0  0  0
   14.5033   -6.4587   17.2719 C   0  0  0  0  0  0  0  0  0  0  0  0
   14.1830   -7.7313   17.0002 N   0  0  0  0  0  0  0  0  0  0  0  0
   15.1285   -8.4443   17.6192 N   0  0  0  0  0  0  0  0  0  0  0  0
   15.0025   -9.8847   17.6134 C   0  0  0  0  0  0  0  0  0  0  0  0
   16.0754   -7.6941   18.2784 C   0  0  0  0  0  0  0  0  0  0  0  0
   16.9703   -8.3521   19.2582 C   0  0  0  0  0  0  0  0  0  0  0  0
   15.8117   -6.3825   17.9166 C   0  0  0  0  0  0  0  0  0  0  0  0
  1  2  1  0
  2  3  1  0
  3  4  1  1
  5  4  1  6
  5  6  1  0
  6  7  1  0
  7  8  1  0
  8  9  1  0
  9 10  2  0
 10 11  1  0
 11 12  2  0
 12 13  1  0
 13 14  1  0
 13 15  1  0
 13 16  1  0
 12 17  1  0
 17 18  2  0
 18 19  1  0
  8 20  1  0
  3 21  1  0
 21 22  2  0
 22 23  1  0
 23 24  2  0
 24 25  1  0
 25 26  2  0
 26 27  1  0
 27 28  1  0
 27 29  1  0
 29 30  1  0
 29 31  2  0
 20  5  1  0
 31 21  1  0
 18  9  1  0
 31 25  1  0
M  END
>  <energy_score>  (1146) 
-36.357509

>  <inchikey>  (1146) 
None

>  <smiles>  (1146) 
None

>  <ref_pdb>  (1146) 
A1105b

>  <alias>  (1146) 
None

>  <HIPPO Pose ID>  (1146) 
498790

>  <name>  (1146) 
P498790

>  <HIPPO Compound ID>  (1146) 
293502

>  <ref_mols>  (1146) 
A0497a,A1105b

>  <distance_score>  (1146) 
1.714603

>  <inspiration_score>  (1146) 
None

$$$$
P498791
     RDKit          3D

 31 34  0  0  0  0  0  0  0  0999 V2000
   18.1799   -2.2210   19.5126 C   0  0  0  0  0  0  0  0  0  0  0  0
   18.1445   -3.2364   18.5209 O   0  0  0  0  0  0  0  0  0  0  0  0
   17.6937   -4.4770   19.0441 C   0  0  2  0  0  0  0  0  0  0  0  0
   18.7298   -5.4588   18.9628 N   0  0  0  0  0  0  0  0  0  0  0  0
   20.0524   -5.2209   19.5302 C   0  0  2  0  0  0  0  0  0  0  0  0
   20.9081   -4.1084   18.9244 C   0  0  0  0  0  0  0  0  0  0  0  0
   21.2814   -4.6422   17.5381 C   0  0  0  0  0  0  0  0  0  0  0  0
   21.3545   -6.1206   17.6979 N   0  0  0  0  0  0  0  0  0  0  0  0
   20.6049   -6.7870   16.6998 C   0  0  0  0  0  0  0  0  0  0  0  0
   19.5820   -7.5830   17.0993 N   0  0  0  0  0  0  0  0  0  0  0  0
   18.7471   -8.1390   16.1978 C   0  0  0  0  0  0  0  0  0  0  0  0
   18.8717   -7.9654   14.8476 C   0  0  0  0  0  0  0  0  0  0  0  0
   17.9427   -8.6456   13.8991 C   0  0  0  0  0  0  0  0  0  0  0  0
   18.4279   -9.8526   13.4899 F   0  0  0  0  0  0  0  0  0  0  0  0
   17.7135   -7.9421   12.7521 F   0  0  0  0  0  0  0  0  0  0  0  0
   16.7139   -8.9073   14.4225 F   0  0  0  0  0  0  0  0  0  0  0  0
   19.9678   -7.2211   14.4173 C   0  0  0  0  0  0  0  0  0  0  0  0
   20.8456   -6.6339   15.3334 C   0  0  0  0  0  0  0  0  0  0  0  0
   22.2231   -5.8111   14.6918 Cl  0  0  0  0  0  0  0  0  0  0  0  0
   20.9565   -6.4207   19.1028 C   0  0  0  0  0  0  0  0  0  0  0  0
   16.4436   -4.9378   18.2872 C   0  0  0  0  0  0  0  0  0  0  0  0
   15.5072   -3.9452   17.8499 C   0  0  0  0  0  0  0  0  0  0  0  0
   14.2559   -4.1912   17.2238 C   0  0  0  0  0  0  0  0  0  0  0  0
   13.7954   -5.4779   16.9443 C   0  0  0  0  0  0  0  0  0  0  0  0
   14.6411   -6.5075   17.3688 C   0  0  0  0  0  0  0  0  0  0  0  0
   14.4428   -7.8267   17.2466 N   0  0  0  0  0  0  0  0  0  0  0  0
   15.4077   -8.3750   17.9931 N   0  0  0  0  0  0  0  0  0  0  0  0
   15.3885   -9.8095   18.1733 C   0  0  0  0  0  0  0  0  0  0  0  0
   16.2773   -7.4735   18.5642 C   0  0  0  0  0  0  0  0  0  0  0  0
   17.2493   -7.9211   19.5993 C   0  0  0  0  0  0  0  0  0  0  0  0
   15.9055   -6.2400   18.0447 C   0  0  0  0  0  0  0  0  0  0  0  0
  1  2  1  0
  2  3  1  0
  3  4  1  6
  5  4  1  6
  5  6  1  0
  6  7  1  0
  7  8  1  0
  8  9  1  0
  9 10  2  0
 10 11  1  0
 11 12  2  0
 12 13  1  0
 13 14  1  0
 13 15  1  0
 13 16  1  0
 12 17  1  0
 17 18  2  0
 18 19  1  0
  8 20  1  0
  3 21  1  0
 21 22  2  0
 22 23  1  0
 23 24  2  0
 24 25  1  0
 25 26  2  0
 26 27  1  0
 27 28  1  0
 27 29  1  0
 29 30  1  0
 29 31  2  0
 20  5  1  0
 31 21  1  0
 18  9  1  0
 31 25  1  0
M  END
>  <energy_score>  (1147) 
-59.918044

>  <inchikey>  (1147) 
None

>  <smiles>  (1147) 
None

>  <ref_pdb>  (1147) 
A1105b

>  <alias>  (1147) 
None

>  <HIPPO Pose ID>  (1147) 
498791

>  <name>  (1147) 
P498791

>  <HIPPO Compound ID>  (1147) 
293502

>  <ref_mols>  (1147) 
A0497a,A1105b

>  <distance_score>  (1147) 
1.791338

>  <inspiration_score>  (1147) 
None

$$$$
P498792
     RDKit          3D

 31 34  0  0  0  0  0  0  0  0999 V2000
   17.8978   -2.4890   19.5591 C   0  0  0  0  0  0  0  0  0  0  0  0
   18.2284   -3.2977   18.4378 O   0  0  0  0  0  0  0  0  0  0  0  0
   17.9433   -4.6989   18.5594 C   0  0  1  0  0  0  0  0  0  0  0  0
   18.3331   -5.1889   19.8826 N   0  0  0  0  0  0  0  0  0  0  0  0
   19.7891   -5.1992   20.1936 C   0  0  2  0  0  0  0  0  0  0  0  0
   20.7678   -4.1598   19.6281 C   0  0  0  0  0  0  0  0  0  0  0  0
   21.2304   -4.7378   18.2876 C   0  0  0  0  0  0  0  0  0  0  0  0
   21.1912   -6.2030   18.4770 N   0  0  0  0  0  0  0  0  0  0  0  0
   20.7280   -6.9616   17.3912 C   0  0  0  0  0  0  0  0  0  0  0  0
   20.1959   -6.3223   16.3314 N   0  0  0  0  0  0  0  0  0  0  0  0
   19.4839   -7.0115   15.4174 C   0  0  0  0  0  0  0  0  0  0  0  0
   19.2645   -8.3641   15.4698 C   0  0  0  0  0  0  0  0  0  0  0  0
   18.4197   -9.0577   14.4534 C   0  0  0  0  0  0  0  0  0  0  0  0
   19.1520   -9.8784   13.6488 F   0  0  0  0  0  0  0  0  0  0  0  0
   17.7429   -8.2274   13.6131 F   0  0  0  0  0  0  0  0  0  0  0  0
   17.4762   -9.8573   15.0275 F   0  0  0  0  0  0  0  0  0  0  0  0
   19.9420   -9.0559   16.4653 C   0  0  0  0  0  0  0  0  0  0  0  0
   20.7007   -8.3621   17.4129 C   0  0  0  0  0  0  0  0  0  0  0  0
   21.5347   -9.3135   18.5963 Cl  0  0  0  0  0  0  0  0  0  0  0  0
   20.5509   -6.4886   19.7799 C   0  0  0  0  0  0  0  0  0  0  0  0
   16.5041   -5.0396   18.1254 C   0  0  0  0  0  0  0  0  0  0  0  0
   15.5935   -3.9806   17.7964 C   0  0  0  0  0  0  0  0  0  0  0  0
   14.2740   -4.1154   17.2881 C   0  0  0  0  0  0  0  0  0  0  0  0
   13.7001   -5.3495   17.0139 C   0  0  0  0  0  0  0  0  0  0  0  0
   14.5098   -6.4433   17.3191 C   0  0  0  0  0  0  0  0  0  0  0  0
   14.2146   -7.7362   17.1355 N   0  0  0  0  0  0  0  0  0  0  0  0
   15.2427   -8.3908   17.6768 N   0  0  0  0  0  0  0  0  0  0  0  0
   15.1564   -9.8317   17.7658 C   0  0  0  0  0  0  0  0  0  0  0  0
   16.2775   -7.5870   18.0979 C   0  0  0  0  0  0  0  0  0  0  0  0
   17.4740   -8.1807   18.7117 C   0  0  0  0  0  0  0  0  0  0  0  0
   15.8580   -6.2885   17.8657 C   0  0  0  0  0  0  0  0  0  0  0  0
  1  2  1  0
  2  3  1  0
  3  4  1  1
  5  4  1  6
  5  6  1  0
  6  7  1  0
  7  8  1  0
  8  9  1  0
  9 10  2  0
 10 11  1  0
 11 12  2  0
 12 13  1  0
 13 14  1  0
 13 15  1  0
 13 16  1  0
 12 17  1  0
 17 18  2  0
 18 19  1  0
  8 20  1  0
  3 21  1  0
 21 22  2  0
 22 23  1  0
 23 24  2  0
 24 25  1  0
 25 26  2  0
 26 27  1  0
 27 28  1  0
 27 29  1  0
 29 30  1  0
 29 31  2  0
 20  5  1  0
 31 21  1  0
 18  9  1  0
 31 25  1  0
M  END
>  <energy_score>  (1148) 
-45.085827

>  <inchikey>  (1148) 
None

>  <smiles>  (1148) 
None

>  <ref_pdb>  (1148) 
A1105b

>  <alias>  (1148) 
None

>  <HIPPO Pose ID>  (1148) 
498792

>  <name>  (1148) 
P498792

>  <HIPPO Compound ID>  (1148) 
293502

>  <ref_mols>  (1148) 
A0497a,A1105b

>  <distance_score>  (1148) 
1.840092

>  <inspiration_score>  (1148) 
None

$$$$
P498793
     RDKit          3D

 31 35  0  0  0  0  0  0  0  0999 V2000
   15.8611   -7.4688   17.5958 C   0  0  0  0  0  0  0  0  0  0  0  0
   17.0912   -7.4755   16.8397 N   0  0  0  0  0  0  0  0  0  0  0  0
   18.1469   -6.6293   17.0052 C   0  0  0  0  0  0  0  0  0  0  0  0
   19.0456   -6.9546   16.0300 C   0  0  0  0  0  0  0  0  0  0  0  0
   20.2743   -6.3231   15.7696 C   0  0  0  0  0  0  0  0  0  0  0  0
   20.9419   -5.1955   16.5256 C   0  0  2  0  0  0  0  0  0  0  0  0
   20.9479   -4.0239   15.7424 O   0  0  0  0  0  0  0  0  0  0  0  0
   22.3141   -5.5628   16.8700 N   0  0  0  0  0  0  0  0  0  0  0  0
   23.0697   -4.6080   17.7011 C   0  0  0  0  0  0  0  0  0  0  0  0
   22.3869   -4.2129   19.0128 C   0  0  0  0  0  0  0  0  0  0  0  0
   23.1461   -3.0667   19.6747 C   0  0  0  0  0  0  0  0  0  0  0  0
   23.1654   -1.8354   18.8823 N   0  0  0  0  0  0  0  0  0  0  0  0
   22.3101   -0.7098   19.3436 C   0  0  2  0  0  0  0  0  0  0  0  0
   22.4739   -0.2936   20.8100 C   0  0  0  0  0  0  0  0  0  0  0  0
   21.3191   -0.9574   21.5693 C   0  0  0  0  0  0  0  0  0  0  0  0
   20.2916   -1.2634   20.5651 N   0  0  0  0  0  0  0  0  0  0  0  0
   19.6847   -2.5170   20.6015 C   0  0  0  0  0  0  0  0  0  0  0  0
   18.6322   -2.8346   19.7353 C   0  0  0  0  0  0  0  0  0  0  0  0
   18.0894   -4.1217   19.7315 C   0  0  0  0  0  0  0  0  0  0  0  0
   18.6206   -5.0758   20.5860 C   0  0  0  0  0  0  0  0  0  0  0  0
   18.1311   -6.7205   20.5794 Cl  0  0  0  0  0  0  0  0  0  0  0  0
   19.6137   -4.6774   21.4534 C   0  0  0  0  0  0  0  0  0  0  0  0
   20.1360   -3.4331   21.4835 N   0  0  0  0  0  0  0  0  0  0  0  0
   20.7722   -0.8427   19.2425 C   0  0  0  0  0  0  0  0  0  0  0  0
   23.0182   -2.0682   17.4331 C   0  0  0  0  0  0  0  0  0  0  0  0
   23.6316   -3.3849   16.9536 C   0  0  0  0  0  0  0  0  0  0  0  0
   20.8708   -6.9115   14.6190 C   0  0  0  0  0  0  0  0  0  0  0  0
   20.3048   -7.9805   13.8579 C   0  0  0  0  0  0  0  0  0  0  0  0
   19.0714   -8.5866   14.1665 C   0  0  0  0  0  0  0  0  0  0  0  0
   18.4364   -8.0374   15.2895 C   0  0  0  0  0  0  0  0  0  0  0  0
   17.2571   -8.3720   15.8463 N   0  0  0  0  0  0  0  0  0  0  0  0
  1  2  1  0
  2  3  1  0
  3  4  2  0
  4  5  1  0
  5  6  1  0
  6  7  1  6
  6  8  1  0
  8  9  1  0
  9 10  1  0
 10 11  1  0
 11 12  1  0
 13 12  1  1
 13 14  1  0
 14 15  1  0
 15 16  1  0
 16 17  1  0
 17 18  2  0
 18 19  1  0
 19 20  2  0
 20 21  1  0
 20 22  1  0
 22 23  2  0
 16 24  1  0
 12 25  1  0
 25 26  1  0
  5 27  2  0
 27 28  1  0
 28 29  2  0
 29 30  1  0
 30 31  2  0
 31  2  1  0
 30  4  1  0
 26  9  1  0
 24 13  1  0
 23 17  1  0
M  END
>  <energy_score>  (1149) 
-71.323277

>  <inchikey>  (1149) 
None

>  <smiles>  (1149) 
None

>  <ref_pdb>  (1149) 
A1105b

>  <alias>  (1149) 
None

>  <HIPPO Pose ID>  (1149) 
498793

>  <name>  (1149) 
P498793

>  <HIPPO Compound ID>  (1149) 
293503

>  <ref_mols>  (1149) 
A0497a,A1105b

>  <distance_score>  (1149) 
1.142577

>  <inspiration_score>  (1149) 
None

$$$$
P498794
     RDKit          3D

 31 35  0  0  0  0  0  0  0  0999 V2000
   15.8837   -8.1508   18.0631 C   0  0  0  0  0  0  0  0  0  0  0  0
   17.0450   -8.0601   17.2099 N   0  0  0  0  0  0  0  0  0  0  0  0
   18.3183   -7.7413   17.5904 C   0  0  0  0  0  0  0  0  0  0  0  0
   19.0358   -7.6777   16.4249 C   0  0  0  0  0  0  0  0  0  0  0  0
   20.3943   -7.3509   16.2802 C   0  0  0  0  0  0  0  0  0  0  0  0
   21.4094   -7.0834   17.3561 C   0  0  1  0  0  0  0  0  0  0  0  0
   22.2378   -8.2237   17.4389 O   0  0  0  0  0  0  0  0  0  0  0  0
   22.2434   -5.9324   17.0590 N   0  0  0  0  0  0  0  0  0  0  0  0
   23.2647   -5.5732   18.0672 C   0  0  0  0  0  0  0  0  0  0  0  0
   22.9553   -6.0043   19.5098 C   0  0  0  0  0  0  0  0  0  0  0  0
   23.9049   -5.3667   20.5217 C   0  0  0  0  0  0  0  0  0  0  0  0
   23.8941   -3.8972   20.4627 N   0  0  0  0  0  0  0  0  0  0  0  0
   22.5559   -3.3336   20.7418 C   0  0  2  0  0  0  0  0  0  0  0  0
   22.5346   -1.8424   21.0986 C   0  0  0  0  0  0  0  0  0  0  0  0
   21.1824   -1.6329   21.8176 C   0  0  0  0  0  0  0  0  0  0  0  0
   20.5842   -2.9822   22.0023 N   0  0  0  0  0  0  0  0  0  0  0  0
   19.6384   -3.3099   20.9876 C   0  0  0  0  0  0  0  0  0  0  0  0
   18.9894   -4.5448   21.0203 C   0  0  0  0  0  0  0  0  0  0  0  0
   18.1682   -4.9220   19.9612 C   0  0  0  0  0  0  0  0  0  0  0  0
   17.9392   -4.0373   18.9234 C   0  0  0  0  0  0  0  0  0  0  0  0
   16.7978   -4.4070   17.7082 Cl  0  0  0  0  0  0  0  0  0  0  0  0
   18.6108   -2.8371   18.9503 C   0  0  0  0  0  0  0  0  0  0  0  0
   19.4476   -2.4663   19.9505 N   0  0  0  0  0  0  0  0  0  0  0  0
   21.7393   -3.9055   21.9272 C   0  0  0  0  0  0  0  0  0  0  0  0
   24.3793   -3.4980   19.1236 C   0  0  0  0  0  0  0  0  0  0  0  0
   23.5541   -4.0600   17.9538 C   0  0  0  0  0  0  0  0  0  0  0  0
   20.7610   -7.4042   14.9047 C   0  0  0  0  0  0  0  0  0  0  0  0
   19.8897   -7.7836   13.8414 C   0  0  0  0  0  0  0  0  0  0  0  0
   18.5443   -8.1462   14.0393 C   0  0  0  0  0  0  0  0  0  0  0  0
   18.1219   -8.0667   15.3748 C   0  0  0  0  0  0  0  0  0  0  0  0
   16.9153   -8.3413   15.8997 N   0  0  0  0  0  0  0  0  0  0  0  0
  1  2  1  0
  2  3  1  0
  3  4  2  0
  4  5  1  0
  5  6  1  0
  6  7  1  6
  6  8  1  0
  8  9  1  0
  9 10  1  0
 10 11  1  0
 11 12  1  0
 13 12  1  1
 13 14  1  0
 14 15  1  0
 15 16  1  0
 16 17  1  0
 17 18  2  0
 18 19  1  0
 19 20  2  0
 20 21  1  0
 20 22  1  0
 22 23  2  0
 16 24  1  0
 12 25  1  0
 25 26  1  0
  5 27  2  0
 27 28  1  0
 28 29  2  0
 29 30  1  0
 30 31  2  0
 31  2  1  0
 30  4  1  0
 26  9  1  0
 24 13  1  0
 23 17  1  0
M  END
>  <energy_score>  (1150) 
-61.032515

>  <inchikey>  (1150) 
None

>  <smiles>  (1150) 
None

>  <ref_pdb>  (1150) 
A1105b

>  <alias>  (1150) 
None

>  <HIPPO Pose ID>  (1150) 
498794

>  <name>  (1150) 
P498794

>  <HIPPO Compound ID>  (1150) 
293503

>  <ref_mols>  (1150) 
A0497a,A1105b

>  <distance_score>  (1150) 
1.27641

>  <inspiration_score>  (1150) 
None

$$$$
P498795
     RDKit          3D

 31 35  0  0  0  0  0  0  0  0999 V2000
   15.6148   -7.3623   17.5206 C   0  0  0  0  0  0  0  0  0  0  0  0
   16.8833   -7.4807   16.8398 N   0  0  0  0  0  0  0  0  0  0  0  0
   17.8856   -6.5564   16.8221 C   0  0  0  0  0  0  0  0  0  0  0  0
   18.8728   -7.0935   16.0445 C   0  0  0  0  0  0  0  0  0  0  0  0
   20.0965   -6.4968   15.7022 C   0  0  0  0  0  0  0  0  0  0  0  0
   20.6236   -5.1415   16.0844 C   0  0  2  0  0  0  0  0  0  0  0  0
   20.8170   -4.4350   14.8796 O   0  0  0  0  0  0  0  0  0  0  0  0
   21.9078   -5.2123   16.7837 N   0  0  0  0  0  0  0  0  0  0  0  0
   22.0671   -4.0776   17.7165 C   0  0  0  0  0  0  0  0  0  0  0  0
   23.2048   -4.3260   18.7175 C   0  0  0  0  0  0  0  0  0  0  0  0
   23.2136   -3.2114   19.7842 C   0  0  0  0  0  0  0  0  0  0  0  0
   22.5026   -2.0147   19.3177 N   0  0  0  0  0  0  0  0  0  0  0  0
   22.3439   -0.9410   20.3163 C   0  0  1  0  0  0  0  0  0  0  0  0
   21.4242    0.1962   19.8464 C   0  0  0  0  0  0  0  0  0  0  0  0
   20.0432   -0.4613   19.8550 C   0  0  0  0  0  0  0  0  0  0  0  0
   20.0757   -1.4013   20.9923 N   0  0  0  0  0  0  0  0  0  0  0  0
   19.5617   -2.6829   20.7485 C   0  0  0  0  0  0  0  0  0  0  0  0
   18.4773   -2.9101   19.8936 C   0  0  0  0  0  0  0  0  0  0  0  0
   18.0028   -4.2090   19.6854 C   0  0  0  0  0  0  0  0  0  0  0  0
   18.6024   -5.2620   20.3578 C   0  0  0  0  0  0  0  0  0  0  0  0
   18.1005   -6.8919   20.1881 Cl  0  0  0  0  0  0  0  0  0  0  0  0
   19.6361   -4.9661   21.2147 C   0  0  0  0  0  0  0  0  0  0  0  0
   20.1074   -3.7201   21.4209 N   0  0  0  0  0  0  0  0  0  0  0  0
   21.4639   -1.3852   21.5291 C   0  0  0  0  0  0  0  0  0  0  0  0
   22.9051   -1.6676   17.9657 C   0  0  0  0  0  0  0  0  0  0  0  0
   22.3394   -2.7331   17.0070 C   0  0  0  0  0  0  0  0  0  0  0  0
   20.8058   -7.3364   14.8006 C   0  0  0  0  0  0  0  0  0  0  0  0
   20.3293   -8.5859   14.3062 C   0  0  0  0  0  0  0  0  0  0  0  0
   19.0873   -9.1409   14.6712 C   0  0  0  0  0  0  0  0  0  0  0  0
   18.3526   -8.3536   15.5698 C   0  0  0  0  0  0  0  0  0  0  0  0
   17.1380   -8.5804   16.1026 N   0  0  0  0  0  0  0  0  0  0  0  0
  1  2  1  0
  2  3  1  0
  3  4  2  0
  4  5  1  0
  5  6  1  0
  6  7  1  6
  6  8  1  0
  8  9  1  0
  9 10  1  0
 10 11  1  0
 11 12  1  0
 13 12  1  6
 13 14  1  0
 14 15  1  0
 15 16  1  0
 16 17  1  0
 17 18  2  0
 18 19  1  0
 19 20  2  0
 20 21  1  0
 20 22  1  0
 22 23  2  0
 16 24  1  0
 12 25  1  0
 25 26  1  0
  5 27  2  0
 27 28  1  0
 28 29  2  0
 29 30  1  0
 30 31  2  0
 31  2  1  0
 30  4  1  0
 26  9  1  0
 24 13  1  0
 23 17  1  0
M  END
>  <energy_score>  (1151) 
-52.189615

>  <inchikey>  (1151) 
None

>  <smiles>  (1151) 
None

>  <ref_pdb>  (1151) 
A1105b

>  <alias>  (1151) 
None

>  <HIPPO Pose ID>  (1151) 
498795

>  <name>  (1151) 
P498795

>  <HIPPO Compound ID>  (1151) 
293503

>  <ref_mols>  (1151) 
A0497a,A1105b

>  <distance_score>  (1151) 
1.196576

>  <inspiration_score>  (1151) 
None

$$$$
P498796
     RDKit          3D

 31 35  0  0  0  0  0  0  0  0999 V2000
   17.4422   -9.4863   12.3600 C   0  0  0  0  0  0  0  0  0  0  0  0
   17.9416   -9.0929   13.6898 C   0  0  0  0  0  0  0  0  0  0  0  0
   17.4161   -9.5756   14.8217 N   0  0  0  0  0  0  0  0  0  0  0  0
   18.1649   -8.9378   15.8118 O   0  0  0  0  0  0  0  0  0  0  0  0
   19.0820   -8.1518   15.1689 C   0  0  0  0  0  0  0  0  0  0  0  0
   19.9866   -7.3812   16.0019 C   0  0  0  0  0  0  0  0  0  0  0  0
   20.6488   -6.2654   15.5041 C   0  0  0  0  0  0  0  0  0  0  0  0
   21.4060   -5.4610   16.3588 C   0  0  0  0  0  0  0  0  0  0  0  0
   21.4582   -5.7533   17.7287 C   0  0  0  0  0  0  0  0  0  0  0  0
   21.6957   -4.6533   18.6357 N   0  0  0  0  0  0  0  0  0  0  0  0
   21.7552   -5.0153   20.0865 C   0  0  0  0  0  0  0  0  0  0  0  0
   20.4045   -4.5913   20.7404 C   0  0  0  0  0  0  0  0  0  0  0  0
   19.5120   -4.5806   19.5228 C   0  0  1  0  0  0  0  0  0  0  0  0
   18.0956   -4.2353   19.5632 N   0  0  0  0  0  0  0  0  0  0  0  0
   17.6281   -4.4496   18.1875 C   0  0  2  0  0  0  0  0  0  0  0  0
   17.8638   -3.2484   17.4714 O   0  0  0  0  0  0  0  0  0  0  0  0
   16.1999   -4.8598   18.0157 C   0  0  0  0  0  0  0  0  0  0  0  0
   15.2154   -3.8598   17.8072 C   0  0  0  0  0  0  0  0  0  0  0  0
   13.9375   -4.1043   17.2667 C   0  0  0  0  0  0  0  0  0  0  0  0
   13.4959   -5.3813   16.9194 C   0  0  0  0  0  0  0  0  0  0  0  0
   14.3645   -6.4240   17.2400 C   0  0  0  0  0  0  0  0  0  0  0  0
   14.1873   -7.7387   17.0622 N   0  0  0  0  0  0  0  0  0  0  0  0
   15.2517   -8.2987   17.6536 N   0  0  0  0  0  0  0  0  0  0  0  0
   15.2696   -9.7373   17.7980 C   0  0  0  0  0  0  0  0  0  0  0  0
   16.1750   -7.3981   18.1425 C   0  0  0  0  0  0  0  0  0  0  0  0
   17.2947   -7.8523   18.9939 C   0  0  0  0  0  0  0  0  0  0  0  0
   15.6715   -6.1583   17.7954 C   0  0  0  0  0  0  0  0  0  0  0  0
   20.4596   -3.8269   18.5441 C   0  0  0  0  0  0  0  0  0  0  0  0
   20.9857   -6.9365   18.1827 N   0  0  0  0  0  0  0  0  0  0  0  0
   20.2562   -7.7030   17.3227 C   0  0  0  0  0  0  0  0  0  0  0  0
   18.9748   -8.2090   13.8585 N   0  0  0  0  0  0  0  0  0  0  0  0
  1  2  1  0
  2  3  2  0
  3  4  1  0
  4  5  1  0
  5  6  1  0
  6  7  2  0
  7  8  1  0
  8  9  2  0
  9 10  1  0
 10 11  1  0
 11 12  1  0
 12 13  1  0
 13 14  1  1
 14 15  1  0
 15 16  1  6
 15 17  1  0
 17 18  2  0
 18 19  1  0
 19 20  2  0
 20 21  1  0
 21 22  2  0
 22 23  1  0
 23 24  1  0
 23 25  1  0
 25 26  1  0
 25 27  2  0
 13 28  1  0
  9 29  1  0
 29 30  2  0
  5 31  2  0
 31  2  1  0
 30  6  1  0
 28 10  1  0
 27 17  1  0
 27 21  1  0
M  END
>  <energy_score>  (1152) 
-36.365691

>  <inchikey>  (1152) 
None

>  <smiles>  (1152) 
None

>  <ref_pdb>  (1152) 
A1105b

>  <alias>  (1152) 
None

>  <HIPPO Pose ID>  (1152) 
498796

>  <name>  (1152) 
P498796

>  <HIPPO Compound ID>  (1152) 
293504

>  <ref_mols>  (1152) 
A0497a,A1105b

>  <distance_score>  (1152) 
1.578197

>  <inspiration_score>  (1152) 
None

$$$$
P498797
     RDKit          3D

 31 35  0  0  0  0  0  0  0  0999 V2000
   17.6551   -9.4687   11.2878 C   0  0  0  0  0  0  0  0  0  0  0  0
   17.7497   -9.0277   12.6917 C   0  0  0  0  0  0  0  0  0  0  0  0
   16.8188   -9.3361   13.6021 N   0  0  0  0  0  0  0  0  0  0  0  0
   17.3052   -8.7356   14.7671 O   0  0  0  0  0  0  0  0  0  0  0  0
   18.4819   -8.1208   14.4288 C   0  0  0  0  0  0  0  0  0  0  0  0
   19.1988   -7.4404   15.4852 C   0  0  0  0  0  0  0  0  0  0  0  0
   20.2629   -6.5845   15.2231 C   0  0  0  0  0  0  0  0  0  0  0  0
   20.9175   -5.9436   16.2730 C   0  0  0  0  0  0  0  0  0  0  0  0
   20.4972   -6.1595   17.5850 C   0  0  0  0  0  0  0  0  0  0  0  0
   21.0976   -5.4324   18.6345 N   0  0  0  0  0  0  0  0  0  0  0  0
   20.8691   -3.9682   18.4955 C   0  0  0  0  0  0  0  0  0  0  0  0
   20.1960   -3.5367   19.7989 C   0  0  0  0  0  0  0  0  0  0  0  0
   19.5133   -4.8058   20.3194 C   0  0  1  0  0  0  0  0  0  0  0  0
   18.2183   -5.2753   19.7705 N   0  0  0  0  0  0  0  0  0  0  0  0
   17.6120   -4.5176   18.7045 C   0  0  2  0  0  0  0  0  0  0  0  0
   17.4042   -3.2131   19.2059 O   0  0  0  0  0  0  0  0  0  0  0  0
   16.2803   -5.0678   18.1980 C   0  0  0  0  0  0  0  0  0  0  0  0
   15.3422   -4.0887   17.7152 C   0  0  0  0  0  0  0  0  0  0  0  0
   14.0906   -4.3455   17.1164 C   0  0  0  0  0  0  0  0  0  0  0  0
   13.6464   -5.6406   16.8771 C   0  0  0  0  0  0  0  0  0  0  0  0
   14.4841   -6.6607   17.3366 C   0  0  0  0  0  0  0  0  0  0  0  0
   14.2832   -7.9774   17.2146 N   0  0  0  0  0  0  0  0  0  0  0  0
   15.2482   -8.5254   17.9545 N   0  0  0  0  0  0  0  0  0  0  0  0
   15.2637   -9.9665   18.0785 C   0  0  0  0  0  0  0  0  0  0  0  0
   16.0799   -7.6197   18.5805 C   0  0  0  0  0  0  0  0  0  0  0  0
   16.9560   -8.0993   19.6887 C   0  0  0  0  0  0  0  0  0  0  0  0
   15.7463   -6.3864   18.0212 C   0  0  0  0  0  0  0  0  0  0  0  0
   20.6446   -5.8199   19.9869 C   0  0  0  0  0  0  0  0  0  0  0  0
   19.4964   -7.0324   17.8532 N   0  0  0  0  0  0  0  0  0  0  0  0
   18.8842   -7.6403   16.8113 C   0  0  0  0  0  0  0  0  0  0  0  0
   18.7870   -8.2630   13.1568 N   0  0  0  0  0  0  0  0  0  0  0  0
  1  2  1  0
  2  3  2  0
  3  4  1  0
  4  5  1  0
  5  6  1  0
  6  7  2  0
  7  8  1  0
  8  9  2  0
  9 10  1  0
 10 11  1  0
 11 12  1  0
 12 13  1  0
 13 14  1  6
 14 15  1  0
 15 16  1  1
 15 17  1  0
 17 18  2  0
 18 19  1  0
 19 20  2  0
 20 21  1  0
 21 22  2  0
 22 23  1  0
 23 24  1  0
 23 25  1  0
 25 26  1  0
 25 27  2  0
 13 28  1  0
  9 29  1  0
 29 30  2  0
  5 31  2  0
 31  2  1  0
 30  6  1  0
 28 10  1  0
 27 17  1  0
 27 21  1  0
M  END
>  <energy_score>  (1153) 
-50.011174

>  <inchikey>  (1153) 
None

>  <smiles>  (1153) 
None

>  <ref_pdb>  (1153) 
A1105b

>  <alias>  (1153) 
None

>  <HIPPO Pose ID>  (1153) 
498797

>  <name>  (1153) 
P498797

>  <HIPPO Compound ID>  (1153) 
293504

>  <ref_mols>  (1153) 
A0497a,A1105b

>  <distance_score>  (1153) 
1.511564

>  <inspiration_score>  (1153) 
None

$$$$
P498798
     RDKit          3D

 31 35  0  0  0  0  0  0  0  0999 V2000
   19.3816   -8.7708   10.1432 C   0  0  0  0  0  0  0  0  0  0  0  0
   19.1319   -8.5604   11.5810 C   0  0  0  0  0  0  0  0  0  0  0  0
   18.1042   -9.1314   12.2204 N   0  0  0  0  0  0  0  0  0  0  0  0
   18.2600   -8.6815   13.5342 O   0  0  0  0  0  0  0  0  0  0  0  0
   19.3633   -7.8711   13.5441 C   0  0  0  0  0  0  0  0  0  0  0  0
   19.7189   -7.2506   14.8059 C   0  0  0  0  0  0  0  0  0  0  0  0
   20.7039   -6.2777   14.8732 C   0  0  0  0  0  0  0  0  0  0  0  0
   21.0168   -5.6900   16.0960 C   0  0  0  0  0  0  0  0  0  0  0  0
   20.3732   -6.0798   17.2665 C   0  0  0  0  0  0  0  0  0  0  0  0
   20.7965   -5.5272   18.4786 N   0  0  0  0  0  0  0  0  0  0  0  0
   20.9654   -4.0617   18.5477 C   0  0  0  0  0  0  0  0  0  0  0  0
   20.2469   -3.5994   19.8224 C   0  0  0  0  0  0  0  0  0  0  0  0
   19.3966   -4.7859   20.2662 C   0  0  1  0  0  0  0  0  0  0  0  0
   17.9589   -4.7794   19.9897 N   0  0  0  0  0  0  0  0  0  0  0  0
   17.4476   -4.2063   18.7549 C   0  0  1  0  0  0  0  0  0  0  0  0
   18.3768   -3.9911   17.7335 O   0  0  0  0  0  0  0  0  0  0  0  0
   16.1850   -4.8316   18.1949 C   0  0  0  0  0  0  0  0  0  0  0  0
   15.1896   -3.8855   17.7843 C   0  0  0  0  0  0  0  0  0  0  0  0
   13.9643   -4.1898   17.1602 C   0  0  0  0  0  0  0  0  0  0  0  0
   13.5928   -5.4940   16.8539 C   0  0  0  0  0  0  0  0  0  0  0  0
   14.5039   -6.4835   17.2281 C   0  0  0  0  0  0  0  0  0  0  0  0
   14.3937   -7.8002   17.0120 N   0  0  0  0  0  0  0  0  0  0  0  0
   15.4435   -8.3208   17.6518 N   0  0  0  0  0  0  0  0  0  0  0  0
   15.5870   -9.7596   17.6593 C   0  0  0  0  0  0  0  0  0  0  0  0
   16.2212   -7.4024   18.3193 C   0  0  0  0  0  0  0  0  0  0  0  0
   17.1902   -7.8900   19.3255 C   0  0  0  0  0  0  0  0  0  0  0  0
   15.7550   -6.1629   17.9081 C   0  0  0  0  0  0  0  0  0  0  0  0
   20.1699   -5.9924   19.7025 C   0  0  0  0  0  0  0  0  0  0  0  0
   19.4340   -7.0474   17.2085 N   0  0  0  0  0  0  0  0  0  0  0  0
   19.1054   -7.5771   16.0006 C   0  0  0  0  0  0  0  0  0  0  0  0
   19.9241   -7.7561   12.3569 N   0  0  0  0  0  0  0  0  0  0  0  0
  1  2  1  0
  2  3  2  0
  3  4  1  0
  4  5  1  0
  5  6  1  0
  6  7  2  0
  7  8  1  0
  8  9  2  0
  9 10  1  0
 10 11  1  0
 11 12  1  0
 12 13  1  0
 13 14  1  6
 14 15  1  0
 15 16  1  6
 15 17  1  0
 17 18  2  0
 18 19  1  0
 19 20  2  0
 20 21  1  0
 21 22  2  0
 22 23  1  0
 23 24  1  0
 23 25  1  0
 25 26  1  0
 25 27  2  0
 13 28  1  0
  9 29  1  0
 29 30  2  0
  5 31  2  0
 31  2  1  0
 30  6  1  0
 28 10  1  0
 27 17  1  0
 27 21  1  0
M  END
>  <energy_score>  (1154) 
-30.689559

>  <inchikey>  (1154) 
None

>  <smiles>  (1154) 
None

>  <ref_pdb>  (1154) 
A1105b

>  <alias>  (1154) 
None

>  <HIPPO Pose ID>  (1154) 
498798

>  <name>  (1154) 
P498798

>  <HIPPO Compound ID>  (1154) 
293504

>  <ref_mols>  (1154) 
A0497a,A1105b

>  <distance_score>  (1154) 
1.890187

>  <inspiration_score>  (1154) 
None

$$$$
P498799
     RDKit          3D

 31 35  0  0  0  0  0  0  0  0999 V2000
   15.8859  -10.1872   13.4044 C   0  0  0  0  0  0  0  0  0  0  0  0
   17.0367   -9.3088   13.6811 C   0  0  0  0  0  0  0  0  0  0  0  0
   17.7248   -8.6986   12.7075 N   0  0  0  0  0  0  0  0  0  0  0  0
   18.6826   -7.9639   13.4155 O   0  0  0  0  0  0  0  0  0  0  0  0
   18.4502   -8.1917   14.7412 C   0  0  0  0  0  0  0  0  0  0  0  0
   19.2953   -7.5000   15.6881 C   0  0  0  0  0  0  0  0  0  0  0  0
   20.1714   -6.4725   15.3622 C   0  0  0  0  0  0  0  0  0  0  0  0
   20.8622   -5.7976   16.3710 C   0  0  0  0  0  0  0  0  0  0  0  0
   20.6515   -6.1334   17.7092 C   0  0  0  0  0  0  0  0  0  0  0  0
   21.1961   -5.3415   18.7505 N   0  0  0  0  0  0  0  0  0  0  0  0
   20.9886   -3.8782   18.5526 C   0  0  0  0  0  0  0  0  0  0  0  0
   20.1901   -3.3936   19.7675 C   0  0  0  0  0  0  0  0  0  0  0  0
   19.4830   -4.6421   20.2861 C   0  0  1  0  0  0  0  0  0  0  0  0
   18.2886   -5.1460   19.6054 N   0  0  0  0  0  0  0  0  0  0  0  0
   17.4347   -4.2634   18.8776 C   0  0  1  0  0  0  0  0  0  0  0  0
   18.1342   -3.5670   17.8687 O   0  0  0  0  0  0  0  0  0  0  0  0
   16.2153   -4.9053   18.2285 C   0  0  0  0  0  0  0  0  0  0  0  0
   15.2487   -3.9364   17.7884 C   0  0  0  0  0  0  0  0  0  0  0  0
   14.0239   -4.2102   17.1512 C   0  0  0  0  0  0  0  0  0  0  0  0
   13.6242   -5.5080   16.8578 C   0  0  0  0  0  0  0  0  0  0  0  0
   14.5016   -6.5197   17.2580 C   0  0  0  0  0  0  0  0  0  0  0  0
   14.3409   -7.8329   17.0659 N   0  0  0  0  0  0  0  0  0  0  0  0
   15.3600   -8.3857   17.7267 N   0  0  0  0  0  0  0  0  0  0  0  0
   15.4399   -9.8298   17.7417 C   0  0  0  0  0  0  0  0  0  0  0  0
   16.1602   -7.4903   18.4086 C   0  0  0  0  0  0  0  0  0  0  0  0
   17.0836   -8.0040   19.4563 C   0  0  0  0  0  0  0  0  0  0  0  0
   15.7553   -6.2354   17.9579 C   0  0  0  0  0  0  0  0  0  0  0  0
   20.6367   -5.6660   20.0855 C   0  0  0  0  0  0  0  0  0  0  0  0
   19.9212   -7.2325   18.0049 N   0  0  0  0  0  0  0  0  0  0  0  0
   19.2540   -7.8621   17.0140 C   0  0  0  0  0  0  0  0  0  0  0  0
   17.4675   -9.0427   14.9533 N   0  0  0  0  0  0  0  0  0  0  0  0
  1  2  1  0
  2  3  2  0
  3  4  1  0
  4  5  1  0
  5  6  1  0
  6  7  2  0
  7  8  1  0
  8  9  2  0
  9 10  1  0
 10 11  1  0
 11 12  1  0
 12 13  1  0
 13 14  1  6
 14 15  1  0
 15 16  1  6
 15 17  1  0
 17 18  2  0
 18 19  1  0
 19 20  2  0
 20 21  1  0
 21 22  2  0
 22 23  1  0
 23 24  1  0
 23 25  1  0
 25 26  1  0
 25 27  2  0
 13 28  1  0
  9 29  1  0
 29 30  2  0
  5 31  2  0
 31  2  1  0
 30  6  1  0
 28 10  1  0
 27 17  1  0
 27 21  1  0
M  END
>  <energy_score>  (1155) 
-35.128904

>  <inchikey>  (1155) 
None

>  <smiles>  (1155) 
None

>  <ref_pdb>  (1155) 
A1105b

>  <alias>  (1155) 
None

>  <HIPPO Pose ID>  (1155) 
498799

>  <name>  (1155) 
P498799

>  <HIPPO Compound ID>  (1155) 
293504

>  <ref_mols>  (1155) 
A0497a,A1105b

>  <distance_score>  (1155) 
1.571523

>  <inspiration_score>  (1155) 
None

$$$$
P498800
     RDKit          3D

 31 34  0  0  0  0  0  0  0  0999 V2000
   17.4754  -10.9717   15.2161 C   0  0  0  0  0  0  0  0  0  0  0  0
   18.7151  -10.6100   14.6201 O   0  0  0  0  0  0  0  0  0  0  0  0
   19.1766   -9.3462   14.9410 C   0  0  0  0  0  0  0  0  0  0  0  0
   20.4315   -8.9928   14.4117 C   0  0  0  0  0  0  0  0  0  0  0  0
   21.0498   -7.7299   14.6219 C   0  0  0  0  0  0  0  0  0  0  0  0
   20.4870   -6.6576   15.3618 C   0  0  0  0  0  0  0  0  0  0  0  0
   21.1509   -5.3020   15.3331 C   0  0  2  0  0  0  0  0  0  0  0  0
   21.8009   -5.1122   14.0843 O   0  0  0  0  0  0  0  0  0  0  0  0
   22.1540   -5.0975   16.3637 N   0  0  0  0  0  0  0  0  0  0  0  0
   21.6357   -4.1637   17.3579 C   0  0  2  0  0  0  0  0  0  0  0  0
   21.6062   -2.6777   16.9638 C   0  0  0  0  0  0  0  0  0  0  0  0
   21.5063   -1.9213   18.3056 C   0  0  0  0  0  0  0  0  0  0  0  0
   21.6593   -2.9314   19.3561 N   0  0  0  0  0  0  0  0  0  0  0  0
   20.5563   -3.4600   20.0448 C   0  0  0  0  0  0  0  0  0  0  0  0
   20.9446   -4.1247   21.1599 N   0  0  0  0  0  0  0  0  0  0  0  0
   20.1652   -5.0950   21.6666 C   0  0  0  0  0  0  0  0  0  0  0  0
   18.9619   -5.4665   21.1184 C   0  0  0  0  0  0  0  0  0  0  0  0
   18.2989   -6.6958   21.6328 C   0  0  0  0  0  0  0  0  0  0  0  0
   17.5398   -6.4510   22.7381 F   0  0  0  0  0  0  0  0  0  0  0  0
   17.4620   -7.2675   20.7274 F   0  0  0  0  0  0  0  0  0  0  0  0
   19.1725   -7.6725   21.9988 F   0  0  0  0  0  0  0  0  0  0  0  0
   18.4634   -4.6576   20.1019 C   0  0  0  0  0  0  0  0  0  0  0  0
   19.2370   -3.6137   19.5814 C   0  0  0  0  0  0  0  0  0  0  0  0
   18.4866   -2.7274   18.3174 Cl  0  0  0  0  0  0  0  0  0  0  0  0
   22.3608   -4.0784   18.7083 C   0  0  0  0  0  0  0  0  0  0  0  0
   19.2551   -7.0607   15.9264 C   0  0  0  0  0  0  0  0  0  0  0  0
   18.4120   -6.3137   16.7055 C   0  0  0  0  0  0  0  0  0  0  0  0
   17.3112   -7.0902   16.9166 N   0  0  0  0  0  0  0  0  0  0  0  0
   16.0991   -6.7073   17.6013 C   0  0  0  0  0  0  0  0  0  0  0  0
   17.3953   -8.3192   16.3833 N   0  0  0  0  0  0  0  0  0  0  0  0
   18.5775   -8.3379   15.7338 C   0  0  0  0  0  0  0  0  0  0  0  0
  1  2  1  0
  2  3  1  0
  3  4  2  0
  4  5  1  0
  5  6  2  0
  6  7  1  0
  7  8  1  6
  7  9  1  0
 10  9  1  6
 10 11  1  0
 11 12  1  0
 12 13  1  0
 13 14  1  0
 14 15  2  0
 15 16  1  0
 16 17  2  0
 17 18  1  0
 18 19  1  0
 18 20  1  0
 18 21  1  0
 17 22  1  0
 22 23  2  0
 23 24  1  0
 13 25  1  0
  6 26  1  0
 26 27  2  0
 27 28  1  0
 28 29  1  0
 28 30  1  0
 30 31  2  0
 31  3  1  0
 25 10  1  0
 31 26  1  0
 23 14  1  0
M  END
>  <energy_score>  (1156) 
-32.26157

>  <inchikey>  (1156) 
None

>  <smiles>  (1156) 
None

>  <ref_pdb>  (1156) 
A1105b

>  <alias>  (1156) 
None

>  <HIPPO Pose ID>  (1156) 
498800

>  <name>  (1156) 
P498800

>  <HIPPO Compound ID>  (1156) 
293505

>  <ref_mols>  (1156) 
A0497a,A1105b

>  <distance_score>  (1156) 
1.538173

>  <inspiration_score>  (1156) 
None

$$$$
P498801
     RDKit          3D

 31 34  0  0  0  0  0  0  0  0999 V2000
   16.9367   -9.6770   13.3702 C   0  0  0  0  0  0  0  0  0  0  0  0
   18.1282   -9.0040   12.9815 O   0  0  0  0  0  0  0  0  0  0  0  0
   18.7702   -8.3235   13.9999 C   0  0  0  0  0  0  0  0  0  0  0  0
   20.0763   -7.8759   13.7252 C   0  0  0  0  0  0  0  0  0  0  0  0
   20.8758   -7.1536   14.6591 C   0  0  0  0  0  0  0  0  0  0  0  0
   20.4635   -6.7598   15.9644 C   0  0  0  0  0  0  0  0  0  0  0  0
   21.3696   -5.9580   16.8710 C   0  0  1  0  0  0  0  0  0  0  0  0
   22.3019   -6.8506   17.4389 O   0  0  0  0  0  0  0  0  0  0  0  0
   22.1629   -4.9510   16.1643 N   0  0  0  0  0  0  0  0  0  0  0  0
   22.1191   -3.5934   16.7380 C   0  0  2  0  0  0  0  0  0  0  0  0
   22.8365   -3.4126   18.0754 C   0  0  0  0  0  0  0  0  0  0  0  0
   22.1216   -2.1929   18.6610 C   0  0  0  0  0  0  0  0  0  0  0  0
   20.7004   -2.4160   18.3212 N   0  0  0  0  0  0  0  0  0  0  0  0
   20.0157   -3.2255   19.2542 C   0  0  0  0  0  0  0  0  0  0  0  0
   20.6854   -3.5842   20.3812 N   0  0  0  0  0  0  0  0  0  0  0  0
   20.1757   -4.5205   21.2103 C   0  0  0  0  0  0  0  0  0  0  0  0
   18.9923   -5.1759   20.9794 C   0  0  0  0  0  0  0  0  0  0  0  0
   18.5521   -6.2844   21.8722 C   0  0  0  0  0  0  0  0  0  0  0  0
   19.5610   -6.8573   22.5812 F   0  0  0  0  0  0  0  0  0  0  0  0
   17.6293   -5.8867   22.7933 F   0  0  0  0  0  0  0  0  0  0  0  0
   17.9545   -7.2995   21.1872 F   0  0  0  0  0  0  0  0  0  0  0  0
   18.2589   -4.7418   19.8836 C   0  0  0  0  0  0  0  0  0  0  0  0
   18.7274   -3.7289   19.0521 C   0  0  0  0  0  0  0  0  0  0  0  0
   17.6352   -3.2326   17.8310 Cl  0  0  0  0  0  0  0  0  0  0  0  0
   20.7129   -2.9667   16.9418 C   0  0  0  0  0  0  0  0  0  0  0  0
   19.1679   -7.2521   16.2124 C   0  0  0  0  0  0  0  0  0  0  0  0
   18.4777   -7.1729   17.3912 C   0  0  0  0  0  0  0  0  0  0  0  0
   17.2605   -7.7335   17.1421 N   0  0  0  0  0  0  0  0  0  0  0  0
   16.1430   -7.8135   18.0527 C   0  0  0  0  0  0  0  0  0  0  0  0
   17.1453   -8.2786   15.9196 N   0  0  0  0  0  0  0  0  0  0  0  0
   18.3115   -7.9994   15.3005 C   0  0  0  0  0  0  0  0  0  0  0  0
  1  2  1  0
  2  3  1  0
  3  4  2  0
  4  5  1  0
  5  6  2  0
  6  7  1  0
  7  8  1  6
  7  9  1  0
 10  9  1  1
 10 11  1  0
 11 12  1  0
 12 13  1  0
 13 14  1  0
 14 15  2  0
 15 16  1  0
 16 17  2  0
 17 18  1  0
 18 19  1  0
 18 20  1  0
 18 21  1  0
 17 22  1  0
 22 23  2  0
 23 24  1  0
 13 25  1  0
  6 26  1  0
 26 27  2  0
 27 28  1  0
 28 29  1  0
 28 30  1  0
 30 31  2  0
 31  3  1  0
 25 10  1  0
 31 26  1  0
 23 14  1  0
M  END
>  <energy_score>  (1157) 
-56.17954

>  <inchikey>  (1157) 
None

>  <smiles>  (1157) 
None

>  <ref_pdb>  (1157) 
A1105b

>  <alias>  (1157) 
None

>  <HIPPO Pose ID>  (1157) 
498801

>  <name>  (1157) 
P498801

>  <HIPPO Compound ID>  (1157) 
293505

>  <ref_mols>  (1157) 
A0497a,A1105b

>  <distance_score>  (1157) 
1.154

>  <inspiration_score>  (1157) 
None

$$$$
P498802
     RDKit          3D

 31 34  0  0  0  0  0  0  0  0999 V2000
   17.0884   -9.2231   13.0632 C   0  0  0  0  0  0  0  0  0  0  0  0
   18.1262   -8.2568   12.9291 O   0  0  0  0  0  0  0  0  0  0  0  0
   18.7799   -7.9798   14.1157 C   0  0  0  0  0  0  0  0  0  0  0  0
   20.1195   -7.5523   14.0257 C   0  0  0  0  0  0  0  0  0  0  0  0
   20.9458   -7.3044   15.1634 C   0  0  0  0  0  0  0  0  0  0  0  0
   20.5338   -7.4587   16.5170 C   0  0  0  0  0  0  0  0  0  0  0  0
   21.5556   -7.4052   17.6337 C   0  0  2  0  0  0  0  0  0  0  0  0
   21.3990   -8.5131   18.5081 O   0  0  0  0  0  0  0  0  0  0  0  0
   21.5445   -6.1528   18.3643 N   0  0  0  0  0  0  0  0  0  0  0  0
   22.4361   -6.1750   19.5475 C   0  0  1  0  0  0  0  0  0  0  0  0
   22.9666   -4.7727   19.9228 C   0  0  0  0  0  0  0  0  0  0  0  0
   22.3635   -4.4410   21.3007 C   0  0  0  0  0  0  0  0  0  0  0  0
   21.1891   -5.3259   21.4376 N   0  0  0  0  0  0  0  0  0  0  0  0
   20.0539   -4.8052   20.7457 C   0  0  0  0  0  0  0  0  0  0  0  0
   20.1701   -3.5770   20.1708 N   0  0  0  0  0  0  0  0  0  0  0  0
   19.2455   -3.1809   19.2745 C   0  0  0  0  0  0  0  0  0  0  0  0
   18.1735   -3.9596   18.8990 C   0  0  0  0  0  0  0  0  0  0  0  0
   17.1897   -3.4563   17.9092 C   0  0  0  0  0  0  0  0  0  0  0  0
   17.7776   -2.6372   17.0128 F   0  0  0  0  0  0  0  0  0  0  0  0
   16.5321   -4.4289   17.2283 F   0  0  0  0  0  0  0  0  0  0  0  0
   16.2242   -2.7206   18.5274 F   0  0  0  0  0  0  0  0  0  0  0  0
   18.0045   -5.1706   19.5484 C   0  0  0  0  0  0  0  0  0  0  0  0
   18.8889   -5.5603   20.5472 C   0  0  0  0  0  0  0  0  0  0  0  0
   18.4614   -6.9401   21.5032 Cl  0  0  0  0  0  0  0  0  0  0  0  0
   21.6639   -6.5982   20.8234 C   0  0  0  0  0  0  0  0  0  0  0  0
   19.1613   -7.7666   16.5630 C   0  0  0  0  0  0  0  0  0  0  0  0
   18.4096   -7.9650   17.6892 C   0  0  0  0  0  0  0  0  0  0  0  0
   17.1458   -8.2124   17.2431 N   0  0  0  0  0  0  0  0  0  0  0  0
   15.9607   -8.3808   18.0513 C   0  0  0  0  0  0  0  0  0  0  0  0
   17.0538   -8.3542   15.9093 N   0  0  0  0  0  0  0  0  0  0  0  0
   18.2773   -8.0339   15.4387 C   0  0  0  0  0  0  0  0  0  0  0  0
  1  2  1  0
  2  3  1  0
  3  4  2  0
  4  5  1  0
  5  6  2  0
  6  7  1  0
  7  8  1  1
  7  9  1  0
 10  9  1  6
 10 11  1  0
 11 12  1  0
 12 13  1  0
 13 14  1  0
 14 15  2  0
 15 16  1  0
 16 17  2  0
 17 18  1  0
 18 19  1  0
 18 20  1  0
 18 21  1  0
 17 22  1  0
 22 23  2  0
 23 24  1  0
 13 25  1  0
  6 26  1  0
 26 27  2  0
 27 28  1  0
 28 29  1  0
 28 30  1  0
 30 31  2  0
 31  3  1  0
 25 10  1  0
 31 26  1  0
 23 14  1  0
M  END
>  <energy_score>  (1158) 
-62.605462

>  <inchikey>  (1158) 
None

>  <smiles>  (1158) 
None

>  <ref_pdb>  (1158) 
A1105b

>  <alias>  (1158) 
None

>  <HIPPO Pose ID>  (1158) 
498802

>  <name>  (1158) 
P498802

>  <HIPPO Compound ID>  (1158) 
293505

>  <ref_mols>  (1158) 
A0497a,A1105b

>  <distance_score>  (1158) 
1.148138

>  <inspiration_score>  (1158) 
None

$$$$
P498803
     RDKit          3D

 31 34  0  0  0  0  0  0  0  0999 V2000
   16.8450   -9.5210   13.5037 C   0  0  0  0  0  0  0  0  0  0  0  0
   17.9280   -8.6878   13.1032 O   0  0  0  0  0  0  0  0  0  0  0  0
   18.6747   -8.1986   14.1589 C   0  0  0  0  0  0  0  0  0  0  0  0
   20.0141   -7.8637   13.8880 C   0  0  0  0  0  0  0  0  0  0  0  0
   20.9179   -7.3813   14.8789 C   0  0  0  0  0  0  0  0  0  0  0  0
   20.5902   -7.1517   16.2451 C   0  0  0  0  0  0  0  0  0  0  0  0
   21.6865   -6.7682   17.2101 C   0  0  2  0  0  0  0  0  0  0  0  0
   21.8823   -7.8446   18.1111 O   0  0  0  0  0  0  0  0  0  0  0  0
   21.4102   -5.6116   18.0130 N   0  0  0  0  0  0  0  0  0  0  0  0
   21.7800   -4.3224   17.3914 C   0  0  1  0  0  0  0  0  0  0  0  0
   20.7053   -3.8221   16.4452 C   0  0  0  0  0  0  0  0  0  0  0  0
   19.5841   -3.3873   17.3931 C   0  0  0  0  0  0  0  0  0  0  0  0
   20.2781   -2.9090   18.6225 N   0  0  0  0  0  0  0  0  0  0  0  0
   19.7567   -3.5033   19.7870 C   0  0  0  0  0  0  0  0  0  0  0  0
   20.6108   -4.2078   20.5724 N   0  0  0  0  0  0  0  0  0  0  0  0
   20.1638   -4.8135   21.6870 C   0  0  0  0  0  0  0  0  0  0  0  0
   18.8632   -4.7472   22.1246 C   0  0  0  0  0  0  0  0  0  0  0  0
   18.4964   -5.3661   23.4330 C   0  0  0  0  0  0  0  0  0  0  0  0
   17.2335   -5.8799   23.4375 F   0  0  0  0  0  0  0  0  0  0  0  0
   19.3026   -6.4102   23.7750 F   0  0  0  0  0  0  0  0  0  0  0  0
   18.5549   -4.4944   24.4723 F   0  0  0  0  0  0  0  0  0  0  0  0
   17.9834   -3.9980   21.3524 C   0  0  0  0  0  0  0  0  0  0  0  0
   18.4188   -3.3750   20.1806 C   0  0  0  0  0  0  0  0  0  0  0  0
   17.2553   -2.4155   19.3687 Cl  0  0  0  0  0  0  0  0  0  0  0  0
   21.7257   -3.1574   18.4127 C   0  0  0  0  0  0  0  0  0  0  0  0
   19.2234   -7.4195   16.4617 C   0  0  0  0  0  0  0  0  0  0  0  0
   18.5237   -7.2427   17.6278 C   0  0  0  0  0  0  0  0  0  0  0  0
   17.2445   -7.6174   17.3372 N   0  0  0  0  0  0  0  0  0  0  0  0
   16.1077   -7.5493   18.2232 C   0  0  0  0  0  0  0  0  0  0  0  0
   17.0757   -8.1078   16.0975 N   0  0  0  0  0  0  0  0  0  0  0  0
   18.2678   -7.9372   15.4910 C   0  0  0  0  0  0  0  0  0  0  0  0
  1  2  1  0
  2  3  1  0
  3  4  2  0
  4  5  1  0
  5  6  2  0
  6  7  1  0
  7  8  1  1
  7  9  1  0
 10  9  1  1
 10 11  1  0
 11 12  1  0
 12 13  1  0
 13 14  1  0
 14 15  2  0
 15 16  1  0
 16 17  2  0
 17 18  1  0
 18 19  1  0
 18 20  1  0
 18 21  1  0
 17 22  1  0
 22 23  2  0
 23 24  1  0
 13 25  1  0
  6 26  1  0
 26 27  2  0
 27 28  1  0
 28 29  1  0
 28 30  1  0
 30 31  2  0
 31  3  1  0
 25 10  1  0
 31 26  1  0
 23 14  1  0
M  END
>  <energy_score>  (1159) 
-56.5441

>  <inchikey>  (1159) 
None

>  <smiles>  (1159) 
None

>  <ref_pdb>  (1159) 
A1105b

>  <alias>  (1159) 
None

>  <HIPPO Pose ID>  (1159) 
498803

>  <name>  (1159) 
P498803

>  <HIPPO Compound ID>  (1159) 
293505

>  <ref_mols>  (1159) 
A0497a,A1105b

>  <distance_score>  (1159) 
1.857393

>  <inspiration_score>  (1159) 
None

$$$$
P498804
     RDKit          3D

 31 35  0  0  0  0  0  0  0  0999 V2000
   19.3101   -8.7593   10.3335 C   0  0  0  0  0  0  0  0  0  0  0  0
   19.0386   -8.5013   11.7596 C   0  0  0  0  0  0  0  0  0  0  0  0
   17.9019   -8.8854   12.3533 N   0  0  0  0  0  0  0  0  0  0  0  0
   18.0767   -8.4631   13.6739 O   0  0  0  0  0  0  0  0  0  0  0  0
   19.2984   -7.8481   13.7313 C   0  0  0  0  0  0  0  0  0  0  0  0
   19.7017   -7.2928   15.0093 C   0  0  0  0  0  0  0  0  0  0  0  0
   20.8106   -6.4677   15.1133 C   0  0  0  0  0  0  0  0  0  0  0  0
   21.1855   -5.9653   16.3561 C   0  0  0  0  0  0  0  0  0  0  0  0
   20.4638   -6.2810   17.5047 C   0  0  0  0  0  0  0  0  0  0  0  0
   20.9183   -5.7513   18.7342 N   0  0  0  0  0  0  0  0  0  0  0  0
   20.9080   -4.2616   18.7439 C   0  0  0  0  0  0  0  0  0  0  0  0
   20.0910   -3.8583   19.9735 C   0  0  0  0  0  0  0  0  0  0  0  0
   19.2232   -5.0769   20.2706 C   0  0  1  0  0  0  0  0  0  0  0  0
   18.0678   -5.3565   19.4330 N   0  0  0  0  0  0  0  0  0  0  0  0
   17.3546   -4.2849   18.8138 C   0  0  1  0  0  0  0  0  0  0  0  0
   18.1525   -3.6087   17.8676 O   0  0  0  0  0  0  0  0  0  0  0  0
   16.1175   -4.8091   18.1329 C   0  0  0  0  0  0  0  0  0  0  0  0
   15.1848   -3.8471   17.6943 C   0  0  0  0  0  0  0  0  0  0  0  0
   13.9846   -4.1564   17.0382 C   0  0  0  0  0  0  0  0  0  0  0  0
   13.3180   -3.1350   16.5021 F   0  0  0  0  0  0  0  0  0  0  0  0
   13.5193   -5.4496   16.8145 C   0  0  0  0  0  0  0  0  0  0  0  0
   14.3851   -6.4520   17.2416 C   0  0  0  0  0  0  0  0  0  0  0  0
   14.2515   -7.7842   17.1268 N   0  0  0  0  0  0  0  0  0  0  0  0
   15.3176   -8.2763   17.7768 N   0  0  0  0  0  0  0  0  0  0  0  0
   15.4403   -9.7030   17.9479 C   0  0  0  0  0  0  0  0  0  0  0  0
   16.1968   -7.3274   18.2073 C   0  0  0  0  0  0  0  0  0  0  0  0
   15.6448   -6.1186   17.8667 C   0  0  0  0  0  0  0  0  0  0  0  0
   20.2328   -6.2061   19.9615 C   0  0  0  0  0  0  0  0  0  0  0  0
   19.3828   -7.0871   17.4187 N   0  0  0  0  0  0  0  0  0  0  0  0
   19.0237   -7.5544   16.1879 C   0  0  0  0  0  0  0  0  0  0  0  0
   19.9207   -7.8363   12.5700 N   0  0  0  0  0  0  0  0  0  0  0  0
  1  2  1  0
  2  3  2  0
  3  4  1  0
  4  5  1  0
  5  6  1  0
  6  7  2  0
  7  8  1  0
  8  9  2  0
  9 10  1  0
 10 11  1  0
 11 12  1  0
 12 13  1  0
 13 14  1  6
 14 15  1  0
 15 16  1  6
 15 17  1  0
 17 18  2  0
 18 19  1  0
 19 20  1  0
 19 21  2  0
 21 22  1  0
 22 23  2  0
 23 24  1  0
 24 25  1  0
 24 26  1  0
 26 27  2  0
 13 28  1  0
  9 29  1  0
 29 30  2  0
  5 31  2  0
 31  2  1  0
 30  6  1  0
 28 10  1  0
 27 17  1  0
 27 22  1  0
M  END
>  <energy_score>  (1160) 
-41.924317

>  <inchikey>  (1160) 
None

>  <smiles>  (1160) 
None

>  <ref_pdb>  (1160) 
A1105b

>  <alias>  (1160) 
None

>  <HIPPO Pose ID>  (1160) 
498804

>  <name>  (1160) 
P498804

>  <HIPPO Compound ID>  (1160) 
293506

>  <ref_mols>  (1160) 
A0497a,A1105b

>  <distance_score>  (1160) 
1.867359

>  <inspiration_score>  (1160) 
None

$$$$
P498805
     RDKit          3D

 31 35  0  0  0  0  0  0  0  0999 V2000
   17.8403   -9.3881   11.7062 C   0  0  0  0  0  0  0  0  0  0  0  0
   17.9726   -8.9553   13.1092 C   0  0  0  0  0  0  0  0  0  0  0  0
   17.0813   -9.2933   14.0482 N   0  0  0  0  0  0  0  0  0  0  0  0
   17.5914   -8.6868   15.1994 O   0  0  0  0  0  0  0  0  0  0  0  0
   18.7454   -8.0489   14.8276 C   0  0  0  0  0  0  0  0  0  0  0  0
   19.4801   -7.3642   15.8702 C   0  0  0  0  0  0  0  0  0  0  0  0
   20.3777   -6.3399   15.5936 C   0  0  0  0  0  0  0  0  0  0  0  0
   21.0268   -5.6721   16.6372 C   0  0  0  0  0  0  0  0  0  0  0  0
   20.7464   -6.0052   17.9626 C   0  0  0  0  0  0  0  0  0  0  0  0
   21.2139   -5.2255   19.0419 N   0  0  0  0  0  0  0  0  0  0  0  0
   21.0238   -3.7589   18.8611 C   0  0  0  0  0  0  0  0  0  0  0  0
   20.0778   -3.3121   19.9858 C   0  0  0  0  0  0  0  0  0  0  0  0
   19.3741   -4.5911   20.4460 C   0  0  1  0  0  0  0  0  0  0  0  0
   18.2409   -5.1293   19.6658 N   0  0  0  0  0  0  0  0  0  0  0  0
   17.4969   -4.2075   18.8412 C   0  0  1  0  0  0  0  0  0  0  0  0
   18.3043   -3.6644   17.8205 O   0  0  0  0  0  0  0  0  0  0  0  0
   16.2694   -4.8095   18.2025 C   0  0  0  0  0  0  0  0  0  0  0  0
   15.2856   -3.9021   17.7374 C   0  0  0  0  0  0  0  0  0  0  0  0
   14.0836   -4.2742   17.1038 C   0  0  0  0  0  0  0  0  0  0  0  0
   13.3468   -3.2876   16.5926 F   0  0  0  0  0  0  0  0  0  0  0  0
   13.6789   -5.5909   16.8930 C   0  0  0  0  0  0  0  0  0  0  0  0
   14.5944   -6.5366   17.3497 C   0  0  0  0  0  0  0  0  0  0  0  0
   14.5162   -7.8758   17.2880 N   0  0  0  0  0  0  0  0  0  0  0  0
   15.5837   -8.3001   17.9823 N   0  0  0  0  0  0  0  0  0  0  0  0
   15.7462   -9.7133   18.2208 C   0  0  0  0  0  0  0  0  0  0  0  0
   16.4099   -7.3005   18.4060 C   0  0  0  0  0  0  0  0  0  0  0  0
   15.8402   -6.1334   17.9711 C   0  0  0  0  0  0  0  0  0  0  0  0
   20.5884   -5.5634   20.3471 C   0  0  0  0  0  0  0  0  0  0  0  0
   19.9584   -7.0743   18.2263 N   0  0  0  0  0  0  0  0  0  0  0  0
   19.3604   -7.7211   17.1965 C   0  0  0  0  0  0  0  0  0  0  0  0
   19.0096   -8.1736   13.5448 N   0  0  0  0  0  0  0  0  0  0  0  0
  1  2  1  0
  2  3  2  0
  3  4  1  0
  4  5  1  0
  5  6  1  0
  6  7  2  0
  7  8  1  0
  8  9  2  0
  9 10  1  0
 10 11  1  0
 11 12  1  0
 12 13  1  0
 13 14  1  6
 14 15  1  0
 15 16  1  6
 15 17  1  0
 17 18  2  0
 18 19  1  0
 19 20  1  0
 19 21  2  0
 21 22  1  0
 22 23  2  0
 23 24  1  0
 24 25  1  0
 24 26  1  0
 26 27  2  0
 13 28  1  0
  9 29  1  0
 29 30  2  0
  5 31  2  0
 31  2  1  0
 30  6  1  0
 28 10  1  0
 27 17  1  0
 27 22  1  0
M  END
>  <energy_score>  (1161) 
-35.490527

>  <inchikey>  (1161) 
None

>  <smiles>  (1161) 
None

>  <ref_pdb>  (1161) 
A1105b

>  <alias>  (1161) 
None

>  <HIPPO Pose ID>  (1161) 
498805

>  <name>  (1161) 
P498805

>  <HIPPO Compound ID>  (1161) 
293506

>  <ref_mols>  (1161) 
A0497a,A1105b

>  <distance_score>  (1161) 
1.403718

>  <inspiration_score>  (1161) 
None

$$$$
P498806
     RDKit          3D

 31 35  0  0  0  0  0  0  0  0999 V2000
   16.0821  -10.3384   13.8411 C   0  0  0  0  0  0  0  0  0  0  0  0
   17.1883   -9.3905   14.0674 C   0  0  0  0  0  0  0  0  0  0  0  0
   17.7367   -8.6730   13.0785 N   0  0  0  0  0  0  0  0  0  0  0  0
   18.7004   -7.9084   13.7454 O   0  0  0  0  0  0  0  0  0  0  0  0
   18.6119   -8.2316   15.0695 C   0  0  0  0  0  0  0  0  0  0  0  0
   19.4811   -7.5227   15.9848 C   0  0  0  0  0  0  0  0  0  0  0  0
   20.2334   -6.4095   15.6361 C   0  0  0  0  0  0  0  0  0  0  0  0
   20.9338   -5.7063   16.6187 C   0  0  0  0  0  0  0  0  0  0  0  0
   20.8334   -6.0846   17.9599 C   0  0  0  0  0  0  0  0  0  0  0  0
   21.3011   -5.2499   19.0045 N   0  0  0  0  0  0  0  0  0  0  0  0
   21.0757   -3.7913   18.7853 C   0  0  0  0  0  0  0  0  0  0  0  0
   20.1925   -3.3189   19.9447 C   0  0  0  0  0  0  0  0  0  0  0  0
   19.4620   -4.5808   20.3939 C   0  0  1  0  0  0  0  0  0  0  0  0
   18.3640   -5.0899   19.5630 N   0  0  0  0  0  0  0  0  0  0  0  0
   17.5071   -4.1610   18.8859 C   0  0  1  0  0  0  0  0  0  0  0  0
   18.2113   -3.4351   17.9006 O   0  0  0  0  0  0  0  0  0  0  0  0
   16.3104   -4.7917   18.2124 C   0  0  0  0  0  0  0  0  0  0  0  0
   15.2927   -3.9072   17.7740 C   0  0  0  0  0  0  0  0  0  0  0  0
   14.0927   -4.3045   17.1506 C   0  0  0  0  0  0  0  0  0  0  0  0
   13.3127   -3.3311   16.6822 F   0  0  0  0  0  0  0  0  0  0  0  0
   13.7222   -5.6283   16.9216 C   0  0  0  0  0  0  0  0  0  0  0  0
   14.6764   -6.5529   17.3421 C   0  0  0  0  0  0  0  0  0  0  0  0
   14.6371   -7.8928   17.2544 N   0  0  0  0  0  0  0  0  0  0  0  0
   15.7526   -8.2975   17.8841 N   0  0  0  0  0  0  0  0  0  0  0  0
   15.9672   -9.7092   18.0887 C   0  0  0  0  0  0  0  0  0  0  0  0
   16.5567   -7.2803   18.3105 C   0  0  0  0  0  0  0  0  0  0  0  0
   15.9211   -6.1227   17.9515 C   0  0  0  0  0  0  0  0  0  0  0  0
   20.6585   -5.5724   20.3074 C   0  0  0  0  0  0  0  0  0  0  0  0
   20.2555   -7.2686   18.2679 N   0  0  0  0  0  0  0  0  0  0  0  0
   19.5879   -7.9367   17.2973 C   0  0  0  0  0  0  0  0  0  0  0  0
   17.7137   -9.1632   15.3122 N   0  0  0  0  0  0  0  0  0  0  0  0
  1  2  1  0
  2  3  2  0
  3  4  1  0
  4  5  1  0
  5  6  1  0
  6  7  2  0
  7  8  1  0
  8  9  2  0
  9 10  1  0
 10 11  1  0
 11 12  1  0
 12 13  1  0
 13 14  1  6
 14 15  1  0
 15 16  1  6
 15 17  1  0
 17 18  2  0
 18 19  1  0
 19 20  1  0
 19 21  2  0
 21 22  1  0
 22 23  2  0
 23 24  1  0
 24 25  1  0
 24 26  1  0
 26 27  2  0
 13 28  1  0
  9 29  1  0
 29 30  2  0
  5 31  2  0
 31  2  1  0
 30  6  1  0
 28 10  1  0
 27 17  1  0
 27 22  1  0
M  END
>  <energy_score>  (1162) 
-37.009218

>  <inchikey>  (1162) 
None

>  <smiles>  (1162) 
None

>  <ref_pdb>  (1162) 
A1105b

>  <alias>  (1162) 
None

>  <HIPPO Pose ID>  (1162) 
498806

>  <name>  (1162) 
P498806

>  <HIPPO Compound ID>  (1162) 
293506

>  <ref_mols>  (1162) 
A0497a,A1105b

>  <distance_score>  (1162) 
1.252276

>  <inspiration_score>  (1162) 
None

$$$$
P498807
     RDKit          3D

 31 35  0  0  0  0  0  0  0  0999 V2000
   15.9732  -10.0445   12.9661 C   0  0  0  0  0  0  0  0  0  0  0  0
   17.1020   -9.1950   13.3871 C   0  0  0  0  0  0  0  0  0  0  0  0
   17.9059   -8.5839   12.5079 N   0  0  0  0  0  0  0  0  0  0  0  0
   18.8282   -7.9285   13.3321 O   0  0  0  0  0  0  0  0  0  0  0  0
   18.4523   -8.1799   14.6207 C   0  0  0  0  0  0  0  0  0  0  0  0
   19.2700   -7.6053   15.6654 C   0  0  0  0  0  0  0  0  0  0  0  0
   20.2180   -6.6055   15.4634 C   0  0  0  0  0  0  0  0  0  0  0  0
   20.9203   -6.0731   16.5485 C   0  0  0  0  0  0  0  0  0  0  0  0
   20.6412   -6.5159   17.8404 C   0  0  0  0  0  0  0  0  0  0  0  0
   21.1396   -5.8509   18.9712 N   0  0  0  0  0  0  0  0  0  0  0  0
   21.1855   -4.3669   18.9271 C   0  0  0  0  0  0  0  0  0  0  0  0
   20.6168   -3.8964   20.2728 C   0  0  0  0  0  0  0  0  0  0  0  0
   19.7237   -5.0429   20.7505 C   0  0  1  0  0  0  0  0  0  0  0  0
   18.3036   -5.0342   20.3517 N   0  0  0  0  0  0  0  0  0  0  0  0
   18.0724   -4.7434   18.9532 C   0  0  2  0  0  0  0  0  0  0  0  0
   18.0552   -3.3262   18.8595 O   0  0  0  0  0  0  0  0  0  0  0  0
   16.8177   -5.3931   18.4164 C   0  0  0  0  0  0  0  0  0  0  0  0
   15.9100   -4.5738   17.7619 C   0  0  0  0  0  0  0  0  0  0  0  0
   14.6932   -5.0539   17.3368 C   0  0  0  0  0  0  0  0  0  0  0  0
   13.5988   -3.7560   16.6432 Br  0  0  0  0  0  0  0  0  0  0  0  0
   14.3180   -6.3841   17.4049 C   0  0  0  0  0  0  0  0  0  0  0  0
   15.2365   -7.2259   18.0275 C   0  0  0  0  0  0  0  0  0  0  0  0
   16.4499   -6.7645   18.5458 C   0  0  0  0  0  0  0  0  0  0  0  0
   16.9685   -7.8972   19.2233 C   0  0  0  0  0  0  0  0  0  0  0  0
   16.2153   -8.9916   19.0898 N   0  0  0  0  0  0  0  0  0  0  0  0
   15.1682   -8.5541   18.3678 N   0  0  0  0  0  0  0  0  0  0  0  0
   14.0693   -9.4498   18.1011 C   0  0  0  0  0  0  0  0  0  0  0  0
   20.5253   -6.2606   20.2523 C   0  0  0  0  0  0  0  0  0  0  0  0
   19.7932   -7.5549   18.0180 N   0  0  0  0  0  0  0  0  0  0  0  0
   19.1360   -8.0678   16.9540 C   0  0  0  0  0  0  0  0  0  0  0  0
   17.3924   -8.9577   14.7033 N   0  0  0  0  0  0  0  0  0  0  0  0
  1  2  1  0
  2  3  2  0
  3  4  1  0
  4  5  1  0
  5  6  1  0
  6  7  2  0
  7  8  1  0
  8  9  2  0
  9 10  1  0
 10 11  1  0
 11 12  1  0
 12 13  1  0
 13 14  1  6
 14 15  1  0
 15 16  1  1
 15 17  1  0
 17 18  2  0
 18 19  1  0
 19 20  1  0
 19 21  2  0
 21 22  1  0
 22 23  2  0
 23 24  1  0
 24 25  2  0
 25 26  1  0
 26 27  1  0
 13 28  1  0
  9 29  1  0
 29 30  2  0
  5 31  2  0
 31  2  1  0
 30  6  1  0
 28 10  1  0
 23 17  1  0
 26 22  1  0
M  END
>  <energy_score>  (1163) 
-33.646117

>  <inchikey>  (1163) 
None

>  <smiles>  (1163) 
None

>  <ref_pdb>  (1163) 
A1105b

>  <alias>  (1163) 
None

>  <HIPPO Pose ID>  (1163) 
498807

>  <name>  (1163) 
P498807

>  <HIPPO Compound ID>  (1163) 
293507

>  <ref_mols>  (1163) 
A0497a,A1105b

>  <distance_score>  (1163) 
1.789892

>  <inspiration_score>  (1163) 
None

$$$$
P498808
     RDKit          3D

 31 35  0  0  0  0  0  0  0  0999 V2000
   17.8465  -11.1572   12.8259 C   0  0  0  0  0  0  0  0  0  0  0  0
   17.9810   -9.9843   13.7090 C   0  0  0  0  0  0  0  0  0  0  0  0
   16.9566   -9.1610   13.9667 N   0  0  0  0  0  0  0  0  0  0  0  0
   17.5205   -8.2288   14.8446 O   0  0  0  0  0  0  0  0  0  0  0  0
   18.8361   -8.5783   14.9980 C   0  0  0  0  0  0  0  0  0  0  0  0
   19.6428   -7.7518   15.8683 C   0  0  0  0  0  0  0  0  0  0  0  0
   20.7770   -8.2183   16.5199 C   0  0  0  0  0  0  0  0  0  0  0  0
   21.4426   -7.4048   17.4478 C   0  0  0  0  0  0  0  0  0  0  0  0
   20.9947   -6.1120   17.6930 C   0  0  0  0  0  0  0  0  0  0  0  0
   21.4028   -5.4387   18.8645 N   0  0  0  0  0  0  0  0  0  0  0  0
   21.1944   -3.9694   18.8825 C   0  0  0  0  0  0  0  0  0  0  0  0
   20.4732   -3.6337   20.1968 C   0  0  0  0  0  0  0  0  0  0  0  0
   19.7910   -4.9232   20.6542 C   0  0  1  0  0  0  0  0  0  0  0  0
   18.3351   -5.0611   20.3439 N   0  0  0  0  0  0  0  0  0  0  0  0
   18.1111   -5.1236   18.9127 C   0  0  2  0  0  0  0  0  0  0  0  0
   18.3581   -3.8727   18.3168 O   0  0  0  0  0  0  0  0  0  0  0  0
   16.7938   -5.6435   18.4241 C   0  0  0  0  0  0  0  0  0  0  0  0
   15.8355   -4.7226   18.0133 C   0  0  0  0  0  0  0  0  0  0  0  0
   14.6499   -5.1487   17.4610 C   0  0  0  0  0  0  0  0  0  0  0  0
   13.5905   -3.7955   16.8102 Br  0  0  0  0  0  0  0  0  0  0  0  0
   14.3087   -6.4868   17.3030 C   0  0  0  0  0  0  0  0  0  0  0  0
   15.2654   -7.4093   17.7286 C   0  0  0  0  0  0  0  0  0  0  0  0
   16.4866   -7.0197   18.2745 C   0  0  0  0  0  0  0  0  0  0  0  0
   17.1518   -8.2393   18.5431 C   0  0  0  0  0  0  0  0  0  0  0  0
   16.4345   -9.3117   18.2068 N   0  0  0  0  0  0  0  0  0  0  0  0
   15.2880   -8.7820   17.7318 N   0  0  0  0  0  0  0  0  0  0  0  0
   14.2399   -9.6560   17.2632 C   0  0  0  0  0  0  0  0  0  0  0  0
   20.7754   -6.0009   20.0908 C   0  0  0  0  0  0  0  0  0  0  0  0
   20.0053   -5.6101   16.9301 N   0  0  0  0  0  0  0  0  0  0  0  0
   19.3249   -6.4395   16.1031 C   0  0  0  0  0  0  0  0  0  0  0  0
   19.1630   -9.6534   14.3183 N   0  0  0  0  0  0  0  0  0  0  0  0
  1  2  1  0
  2  3  2  0
  3  4  1  0
  4  5  1  0
  5  6  1  0
  6  7  2  0
  7  8  1  0
  8  9  2  0
  9 10  1  0
 10 11  1  0
 11 12  1  0
 12 13  1  0
 13 14  1  6
 14 15  1  0
 15 16  1  1
 15 17  1  0
 17 18  2  0
 18 19  1  0
 19 20  1  0
 19 21  2  0
 21 22  1  0
 22 23  2  0
 23 24  1  0
 24 25  2  0
 25 26  1  0
 26 27  1  0
 13 28  1  0
  9 29  1  0
 29 30  2  0
  5 31  2  0
 31  2  1  0
 30  6  1  0
 28 10  1  0
 23 17  1  0
 26 22  1  0
M  END
>  <energy_score>  (1164) 
-17.298029

>  <inchikey>  (1164) 
None

>  <smiles>  (1164) 
None

>  <ref_pdb>  (1164) 
A1105b

>  <alias>  (1164) 
None

>  <HIPPO Pose ID>  (1164) 
498808

>  <name>  (1164) 
P498808

>  <HIPPO Compound ID>  (1164) 
293507

>  <ref_mols>  (1164) 
A0497a,A1105b

>  <distance_score>  (1164) 
1.979758

>  <inspiration_score>  (1164) 
None

$$$$
P498809
     RDKit          3D

 31 35  0  0  0  0  0  0  0  0999 V2000
   15.9973   -9.8431   13.5586 C   0  0  0  0  0  0  0  0  0  0  0  0
   17.3160   -9.3315   13.9723 C   0  0  0  0  0  0  0  0  0  0  0  0
   18.4529   -9.7551   13.4097 N   0  0  0  0  0  0  0  0  0  0  0  0
   19.4308   -9.0334   14.0982 O   0  0  0  0  0  0  0  0  0  0  0  0
   18.7763   -8.2449   15.0030 C   0  0  0  0  0  0  0  0  0  0  0  0
   19.6138   -7.3994   15.8276 C   0  0  0  0  0  0  0  0  0  0  0  0
   20.9303   -7.7003   16.1591 C   0  0  0  0  0  0  0  0  0  0  0  0
   21.6493   -6.8629   17.0203 C   0  0  0  0  0  0  0  0  0  0  0  0
   21.0534   -5.7187   17.5438 C   0  0  0  0  0  0  0  0  0  0  0  0
   21.7202   -4.9793   18.5508 N   0  0  0  0  0  0  0  0  0  0  0  0
   21.7074   -5.7247   19.8286 C   0  0  0  0  0  0  0  0  0  0  0  0
   21.1692   -4.7562   20.8904 C   0  0  0  0  0  0  0  0  0  0  0  0
   20.1868   -3.9057   20.0994 C   0  0  2  0  0  0  0  0  0  0  0  0
   18.9636   -4.7129   19.9608 N   0  0  0  0  0  0  0  0  0  0  0  0
   17.9246   -4.0596   19.2113 C   0  0  1  0  0  0  0  0  0  0  0  0
   18.4077   -3.1990   18.2069 O   0  0  0  0  0  0  0  0  0  0  0  0
   16.9391   -5.0102   18.5730 C   0  0  0  0  0  0  0  0  0  0  0  0
   15.8553   -4.3586   17.9962 C   0  0  0  0  0  0  0  0  0  0  0  0
   14.8031   -5.0668   17.4726 C   0  0  0  0  0  0  0  0  0  0  0  0
   13.4834   -4.0096   16.7781 Br  0  0  0  0  0  0  0  0  0  0  0  0
   14.7402   -6.4505   17.4334 C   0  0  0  0  0  0  0  0  0  0  0  0
   15.8378   -7.1135   17.9809 C   0  0  0  0  0  0  0  0  0  0  0  0
   16.9197   -6.4328   18.5496 C   0  0  0  0  0  0  0  0  0  0  0  0
   17.7599   -7.4724   19.0125 C   0  0  0  0  0  0  0  0  0  0  0  0
   17.2744   -8.6940   18.7855 N   0  0  0  0  0  0  0  0  0  0  0  0
   16.1210   -8.4480   18.1353 N   0  0  0  0  0  0  0  0  0  0  0  0
   15.3048   -9.5601   17.7146 C   0  0  0  0  0  0  0  0  0  0  0  0
   21.0829   -3.6726   18.8369 C   0  0  0  0  0  0  0  0  0  0  0  0
   19.8202   -5.3711   17.1427 N   0  0  0  0  0  0  0  0  0  0  0  0
   19.1287   -6.2199   16.3376 C   0  0  0  0  0  0  0  0  0  0  0  0
   17.4666   -8.3827   14.9480 N   0  0  0  0  0  0  0  0  0  0  0  0
  1  2  1  0
  2  3  2  0
  3  4  1  0
  4  5  1  0
  5  6  1  0
  6  7  2  0
  7  8  1  0
  8  9  2  0
  9 10  1  0
 10 11  1  0
 11 12  1  0
 12 13  1  0
 13 14  1  6
 14 15  1  0
 15 16  1  6
 15 17  1  0
 17 18  2  0
 18 19  1  0
 19 20  1  0
 19 21  2  0
 21 22  1  0
 22 23  2  0
 23 24  1  0
 24 25  2  0
 25 26  1  0
 26 27  1  0
 13 28  1  0
  9 29  1  0
 29 30  2  0
  5 31  2  0
 31  2  1  0
 30  6  1  0
 28 10  1  0
 23 17  1  0
 26 22  1  0
M  END
>  <energy_score>  (1165) 
-42.625229

>  <inchikey>  (1165) 
None

>  <smiles>  (1165) 
None

>  <ref_pdb>  (1165) 
A1105b

>  <alias>  (1165) 
None

>  <HIPPO Pose ID>  (1165) 
498809

>  <name>  (1165) 
P498809

>  <HIPPO Compound ID>  (1165) 
293507

>  <ref_mols>  (1165) 
A0497a,A1105b

>  <distance_score>  (1165) 
1.894913

>  <inspiration_score>  (1165) 
None

$$$$
P498810
     RDKit          3D

 32 36  0  0  0  0  0  0  0  0999 V2000
   15.6897   -8.3618   17.9039 C   0  0  0  0  0  0  0  0  0  0  0  0
   16.9717   -8.2418   17.2496 N   0  0  0  0  0  0  0  0  0  0  0  0
   18.1948   -8.1757   17.8514 C   0  0  0  0  0  0  0  0  0  0  0  0
   19.0836   -7.9086   16.8442 C   0  0  0  0  0  0  0  0  0  0  0  0
   20.4702   -7.7074   16.9623 C   0  0  0  0  0  0  0  0  0  0  0  0
   21.3901   -7.8846   18.1529 C   0  0  2  0  0  0  0  0  0  0  0  0
   20.9095   -8.9193   18.9951 O   0  0  0  0  0  0  0  0  0  0  0  0
   21.5794   -6.6756   18.9149 N   0  0  0  0  0  0  0  0  0  0  0  0
   22.8426   -6.6108   19.6772 C   0  0  0  0  0  0  0  0  0  0  0  0
   22.8873   -5.2824   20.4655 C   0  0  0  0  0  0  0  0  0  0  0  0
   22.2754   -5.3789   21.8780 C   0  0  0  0  0  0  0  0  0  0  0  0
   21.3357   -6.4946   21.9596 N   0  0  0  0  0  0  0  0  0  0  0  0
   20.3594   -6.4322   23.0703 C   0  0  2  0  0  0  0  0  0  0  0  0
   19.2779   -7.5127   22.9208 C   0  0  0  0  0  0  0  0  0  0  0  0
   18.4808   -6.9893   21.7250 C   0  0  0  0  0  0  0  0  0  0  0  0
   18.4412   -5.5188   21.9110 N   0  0  0  0  0  0  0  0  0  0  0  0
   18.6914   -4.7661   20.7397 C   0  0  0  0  0  0  0  0  0  0  0  0
   18.1541   -5.1544   19.5083 C   0  0  0  0  0  0  0  0  0  0  0  0
   18.5429   -4.5243   18.3247 C   0  0  0  0  0  0  0  0  0  0  0  0
   19.4686   -3.5049   18.3970 C   0  0  0  0  0  0  0  0  0  0  0  0
   20.2377   -2.8787   17.0040 Cl  0  0  0  0  0  0  0  0  0  0  0  0
   19.8552   -3.0762   19.6485 C   0  0  0  0  0  0  0  0  0  0  0  0
   19.4694   -3.6644   20.8063 N   0  0  0  0  0  0  0  0  0  0  0  0
   19.3956   -5.2016   23.0125 C   0  0  0  0  0  0  0  0  0  0  0  0
   22.0294   -7.7781   21.8018 C   0  0  0  0  0  0  0  0  0  0  0  0
   23.0911   -7.7399   20.6913 C   0  0  0  0  0  0  0  0  0  0  0  0
   21.0148   -7.3948   15.6823 C   0  0  0  0  0  0  0  0  0  0  0  0
   20.2785   -7.4172   14.4596 C   0  0  0  0  0  0  0  0  0  0  0  0
   21.2117   -7.0379   12.8471 Br  0  0  0  0  0  0  0  0  0  0  0  0
   18.9134   -7.7351   14.3754 C   0  0  0  0  0  0  0  0  0  0  0  0
   18.3094   -7.9372   15.6223 C   0  0  0  0  0  0  0  0  0  0  0  0
   17.0253   -8.2175   15.9061 N   0  0  0  0  0  0  0  0  0  0  0  0
  1  2  1  0
  2  3  1  0
  3  4  2  0
  4  5  1  0
  5  6  1  0
  6  7  1  1
  6  8  1  0
  8  9  1  0
  9 10  1  0
 10 11  1  0
 11 12  1  0
 13 12  1  6
 13 14  1  0
 14 15  1  0
 15 16  1  0
 16 17  1  0
 17 18  2  0
 18 19  1  0
 19 20  2  0
 20 21  1  0
 20 22  1  0
 22 23  2  0
 16 24  1  0
 12 25  1  0
 25 26  1  0
  5 27  2  0
 27 28  1  0
 28 29  1  0
 28 30  2  0
 30 31  1  0
 31 32  2  0
 32  2  1  0
 31  4  1  0
 26  9  1  0
 24 13  1  0
 23 17  1  0
M  END
>  <energy_score>  (1166) 
-51.806458

>  <inchikey>  (1166) 
None

>  <smiles>  (1166) 
None

>  <ref_pdb>  (1166) 
A1105b

>  <alias>  (1166) 
None

>  <HIPPO Pose ID>  (1166) 
498810

>  <name>  (1166) 
P498810

>  <HIPPO Compound ID>  (1166) 
293509

>  <ref_mols>  (1166) 
A0497a,A1105b

>  <distance_score>  (1166) 
1.162137

>  <inspiration_score>  (1166) 
None

$$$$
P498811
     RDKit          3D

 32 36  0  0  0  0  0  0  0  0999 V2000
   15.6474   -8.3240   17.8010 C   0  0  0  0  0  0  0  0  0  0  0  0
   16.9184   -8.1813   17.1303 N   0  0  0  0  0  0  0  0  0  0  0  0
   18.1203   -7.8965   17.7104 C   0  0  0  0  0  0  0  0  0  0  0  0
   18.9906   -7.7075   16.6714 C   0  0  0  0  0  0  0  0  0  0  0  0
   20.3377   -7.3236   16.7573 C   0  0  0  0  0  0  0  0  0  0  0  0
   21.1890   -7.1193   17.9897 C   0  0  2  0  0  0  0  0  0  0  0  0
   21.8889   -5.9092   17.8275 O   0  0  0  0  0  0  0  0  0  0  0  0
   22.1850   -8.1750   18.1064 N   0  0  0  0  0  0  0  0  0  0  0  0
   22.6289   -8.5570   19.4627 C   0  0  0  0  0  0  0  0  0  0  0  0
   23.1062   -7.4306   20.4049 C   0  0  0  0  0  0  0  0  0  0  0  0
   22.3429   -7.3840   21.7364 C   0  0  0  0  0  0  0  0  0  0  0  0
   20.9205   -7.4743   21.4359 N   0  0  0  0  0  0  0  0  0  0  0  0
   19.9871   -6.9360   22.4409 C   0  0  1  0  0  0  0  0  0  0  0  0
   20.3536   -5.5614   23.0404 C   0  0  0  0  0  0  0  0  0  0  0  0
   19.0302   -4.7967   23.1106 C   0  0  0  0  0  0  0  0  0  0  0  0
   18.2867   -5.2548   21.9229 N   0  0  0  0  0  0  0  0  0  0  0  0
   18.6846   -4.5676   20.7406 C   0  0  0  0  0  0  0  0  0  0  0  0
   18.1418   -4.9269   19.5021 C   0  0  0  0  0  0  0  0  0  0  0  0
   18.5966   -4.3421   18.3195 C   0  0  0  0  0  0  0  0  0  0  0  0
   19.6135   -3.4140   18.3932 C   0  0  0  0  0  0  0  0  0  0  0  0
   20.3938   -2.8170   16.9921 Cl  0  0  0  0  0  0  0  0  0  0  0  0
   20.0529   -3.0415   19.6472 C   0  0  0  0  0  0  0  0  0  0  0  0
   19.5936   -3.5722   20.8088 N   0  0  0  0  0  0  0  0  0  0  0  0
   18.5618   -6.7038   21.8528 C   0  0  0  0  0  0  0  0  0  0  0  0
   20.5560   -8.8175   20.9631 C   0  0  0  0  0  0  0  0  0  0  0  0
   21.6711   -9.5183   20.1834 C   0  0  0  0  0  0  0  0  0  0  0  0
   20.8834   -7.2155   15.4439 C   0  0  0  0  0  0  0  0  0  0  0  0
   20.1737   -7.5111   14.2408 C   0  0  0  0  0  0  0  0  0  0  0  0
   21.0971   -7.3266   12.5889 Br  0  0  0  0  0  0  0  0  0  0  0  0
   18.8373   -7.9441   14.2048 C   0  0  0  0  0  0  0  0  0  0  0  0
   18.2412   -8.0091   15.4710 C   0  0  0  0  0  0  0  0  0  0  0  0
   16.9840   -8.3587   15.7982 N   0  0  0  0  0  0  0  0  0  0  0  0
  1  2  1  0
  2  3  1  0
  3  4  2  0
  4  5  1  0
  5  6  1  0
  6  7  1  6
  6  8  1  0
  8  9  1  0
  9 10  1  0
 10 11  1  0
 11 12  1  0
 13 12  1  6
 13 14  1  0
 14 15  1  0
 15 16  1  0
 16 17  1  0
 17 18  2  0
 18 19  1  0
 19 20  2  0
 20 21  1  0
 20 22  1  0
 22 23  2  0
 16 24  1  0
 12 25  1  0
 25 26  1  0
  5 27  2  0
 27 28  1  0
 28 29  1  0
 28 30  2  0
 30 31  1  0
 31 32  2  0
 32  2  1  0
 31  4  1  0
 26  9  1  0
 24 13  1  0
 23 17  1  0
M  END
>  <energy_score>  (1167) 
-51.764881

>  <inchikey>  (1167) 
None

>  <smiles>  (1167) 
None

>  <ref_pdb>  (1167) 
A1105b

>  <alias>  (1167) 
None

>  <HIPPO Pose ID>  (1167) 
498811

>  <name>  (1167) 
P498811

>  <HIPPO Compound ID>  (1167) 
293509

>  <ref_mols>  (1167) 
A0497a,A1105b

>  <distance_score>  (1167) 
1.069252

>  <inspiration_score>  (1167) 
None

$$$$
P498812
     RDKit          3D

 32 36  0  0  0  0  0  0  0  0999 V2000
   15.7475   -8.0419   17.9489 C   0  0  0  0  0  0  0  0  0  0  0  0
   16.9727   -7.9810   17.1875 N   0  0  0  0  0  0  0  0  0  0  0  0
   18.2245   -7.7534   17.6750 C   0  0  0  0  0  0  0  0  0  0  0  0
   19.0391   -7.6650   16.5791 C   0  0  0  0  0  0  0  0  0  0  0  0
   20.4245   -7.4204   16.5722 C   0  0  0  0  0  0  0  0  0  0  0  0
   21.3728   -7.3867   17.7477 C   0  0  2  0  0  0  0  0  0  0  0  0
   20.8087   -6.7807   18.8831 O   0  0  0  0  0  0  0  0  0  0  0  0
   22.7172   -6.8808   17.4782 N   0  0  0  0  0  0  0  0  0  0  0  0
   22.9641   -5.4496   17.7223 C   0  0  0  0  0  0  0  0  0  0  0  0
   22.1097   -4.4886   16.8894 C   0  0  0  0  0  0  0  0  0  0  0  0
   22.8267   -3.1733   16.5740 C   0  0  0  0  0  0  0  0  0  0  0  0
   23.7882   -2.7007   17.5614 N   0  0  0  0  0  0  0  0  0  0  0  0
   23.3563   -1.8247   18.6719 C   0  0  1  0  0  0  0  0  0  0  0  0
   22.3683   -0.7143   18.2951 C   0  0  0  0  0  0  0  0  0  0  0  0
   20.9892   -1.3119   18.5700 C   0  0  0  0  0  0  0  0  0  0  0  0
   21.2114   -2.2994   19.5987 N   0  0  0  0  0  0  0  0  0  0  0  0
   20.3195   -3.2485   20.0029 C   0  0  0  0  0  0  0  0  0  0  0  0
   19.1328   -3.5440   19.3258 C   0  0  0  0  0  0  0  0  0  0  0  0
   18.3578   -4.6412   19.7228 C   0  0  0  0  0  0  0  0  0  0  0  0
   18.7620   -5.3788   20.8255 C   0  0  0  0  0  0  0  0  0  0  0  0
   17.9967   -6.8203   21.3510 Cl  0  0  0  0  0  0  0  0  0  0  0  0
   19.8933   -4.9708   21.4954 C   0  0  0  0  0  0  0  0  0  0  0  0
   20.6733   -3.9472   21.1032 N   0  0  0  0  0  0  0  0  0  0  0  0
   22.6303   -2.4652   19.8860 C   0  0  0  0  0  0  0  0  0  0  0  0
   24.7780   -3.7114   17.9449 C   0  0  0  0  0  0  0  0  0  0  0  0
   24.4509   -5.1434   17.4921 C   0  0  0  0  0  0  0  0  0  0  0  0
   20.8910   -7.4415   15.2244 C   0  0  0  0  0  0  0  0  0  0  0  0
   20.0766   -7.6907   14.0782 C   0  0  0  0  0  0  0  0  0  0  0  0
   20.9075   -7.6686   12.3681 Br  0  0  0  0  0  0  0  0  0  0  0  0
   18.7051   -7.9815   14.1398 C   0  0  0  0  0  0  0  0  0  0  0  0
   18.1907   -7.9470   15.4419 C   0  0  0  0  0  0  0  0  0  0  0  0
   16.9351   -8.1918   15.8581 N   0  0  0  0  0  0  0  0  0  0  0  0
  1  2  1  0
  2  3  1  0
  3  4  2  0
  4  5  1  0
  5  6  1  0
  6  7  1  1
  6  8  1  0
  8  9  1  0
  9 10  1  0
 10 11  1  0
 11 12  1  0
 13 12  1  6
 13 14  1  0
 14 15  1  0
 15 16  1  0
 16 17  1  0
 17 18  2  0
 18 19  1  0
 19 20  2  0
 20 21  1  0
 20 22  1  0
 22 23  2  0
 16 24  1  0
 12 25  1  0
 25 26  1  0
  5 27  2  0
 27 28  1  0
 28 29  1  0
 28 30  2  0
 30 31  1  0
 31 32  2  0
 32  2  1  0
 31  4  1  0
 26  9  1  0
 24 13  1  0
 23 17  1  0
M  END
>  <energy_score>  (1168) 
-59.140594

>  <inchikey>  (1168) 
None

>  <smiles>  (1168) 
None

>  <ref_pdb>  (1168) 
A1105b

>  <alias>  (1168) 
None

>  <HIPPO Pose ID>  (1168) 
498812

>  <name>  (1168) 
P498812

>  <HIPPO Compound ID>  (1168) 
293509

>  <ref_mols>  (1168) 
A0497a,A1105b

>  <distance_score>  (1168) 
1.182025

>  <inspiration_score>  (1168) 
None

$$$$
P498813
     RDKit          3D

 32 36  0  0  0  0  0  0  0  0999 V2000
   15.5447   -7.6217   17.9381 C   0  0  0  0  0  0  0  0  0  0  0  0
   16.8050   -7.6395   17.2329 N   0  0  0  0  0  0  0  0  0  0  0  0
   17.9995   -7.1689   17.7006 C   0  0  0  0  0  0  0  0  0  0  0  0
   18.8760   -7.3045   16.6529 C   0  0  0  0  0  0  0  0  0  0  0  0
   20.2385   -6.9399   16.6375 C   0  0  0  0  0  0  0  0  0  0  0  0
   21.0231   -6.4739   17.8345 C   0  0  2  0  0  0  0  0  0  0  0  0
   21.7973   -5.3420   17.5108 O   0  0  0  0  0  0  0  0  0  0  0  0
   21.9204   -7.5205   18.3254 N   0  0  0  0  0  0  0  0  0  0  0  0
   22.1394   -7.5174   19.7883 C   0  0  0  0  0  0  0  0  0  0  0  0
   22.6723   -6.1857   20.3301 C   0  0  0  0  0  0  0  0  0  0  0  0
   22.6923   -6.1481   21.8543 C   0  0  0  0  0  0  0  0  0  0  0  0
   21.3576   -6.4925   22.3593 N   0  0  0  0  0  0  0  0  0  0  0  0
   21.0922   -5.9536   23.7041 C   0  0  2  0  0  0  0  0  0  0  0  0
   19.7533   -6.3623   24.3336 C   0  0  0  0  0  0  0  0  0  0  0  0
   18.7247   -5.5599   23.5355 C   0  0  0  0  0  0  0  0  0  0  0  0
   19.4065   -4.2994   23.1821 N   0  0  0  0  0  0  0  0  0  0  0  0
   19.2379   -3.9270   21.8337 C   0  0  0  0  0  0  0  0  0  0  0  0
   17.9582   -3.8925   21.2721 C   0  0  0  0  0  0  0  0  0  0  0  0
   17.7789   -3.5916   19.9211 C   0  0  0  0  0  0  0  0  0  0  0  0
   18.8919   -3.3062   19.1603 C   0  0  0  0  0  0  0  0  0  0  0  0
   18.7627   -2.9767   17.5072 Cl  0  0  0  0  0  0  0  0  0  0  0  0
   20.1194   -3.2854   19.7807 C   0  0  0  0  0  0  0  0  0  0  0  0
   20.3039   -3.5701   21.0906 N   0  0  0  0  0  0  0  0  0  0  0  0
   20.8174   -4.4159   23.6315 C   0  0  0  0  0  0  0  0  0  0  0  0
   21.0605   -7.8881   22.0780 C   0  0  0  0  0  0  0  0  0  0  0  0
   20.9126   -8.0386   20.5597 C   0  0  0  0  0  0  0  0  0  0  0  0
   20.7809   -7.2017   15.3415 C   0  0  0  0  0  0  0  0  0  0  0  0
   22.6295   -6.8730   14.9467 Br  0  0  0  0  0  0  0  0  0  0  0  0
   20.0459   -7.7712   14.2471 C   0  0  0  0  0  0  0  0  0  0  0  0
   18.6963   -8.1597   14.3300 C   0  0  0  0  0  0  0  0  0  0  0  0
   18.1155   -7.9025   15.5777 C   0  0  0  0  0  0  0  0  0  0  0  0
   16.8660   -8.1647   15.9954 N   0  0  0  0  0  0  0  0  0  0  0  0
  1  2  1  0
  2  3  1  0
  3  4  2  0
  4  5  1  0
  5  6  1  0
  6  7  1  6
  6  8  1  0
  8  9  1  0
  9 10  1  0
 10 11  1  0
 11 12  1  0
 13 12  1  6
 13 14  1  0
 14 15  1  0
 15 16  1  0
 16 17  1  0
 17 18  2  0
 18 19  1  0
 19 20  2  0
 20 21  1  0
 20 22  1  0
 22 23  2  0
 16 24  1  0
 12 25  1  0
 25 26  1  0
  5 27  2  0
 27 28  1  0
 27 29  1  0
 29 30  2  0
 30 31  1  0
 31 32  2  0
 32  2  1  0
 31  4  1  0
 26  9  1  0
 24 13  1  0
 23 17  1  0
M  END
>  <energy_score>  (1169) 
-63.200618

>  <inchikey>  (1169) 
None

>  <smiles>  (1169) 
None

>  <ref_pdb>  (1169) 
A1105b

>  <alias>  (1169) 
None

>  <HIPPO Pose ID>  (1169) 
498813

>  <name>  (1169) 
P498813

>  <HIPPO Compound ID>  (1169) 
293510

>  <ref_mols>  (1169) 
A0497a,A1105b

>  <distance_score>  (1169) 
1.062519

>  <inspiration_score>  (1169) 
None

$$$$
P498814
     RDKit          3D

 32 36  0  0  0  0  0  0  0  0999 V2000
   15.7222   -7.9178   18.2127 C   0  0  0  0  0  0  0  0  0  0  0  0
   16.9439   -7.9561   17.4438 N   0  0  0  0  0  0  0  0  0  0  0  0
   18.2146   -8.1038   17.9252 C   0  0  0  0  0  0  0  0  0  0  0  0
   19.0250   -8.1257   16.8164 C   0  0  0  0  0  0  0  0  0  0  0  0
   20.4213   -8.3432   16.7837 C   0  0  0  0  0  0  0  0  0  0  0  0
   21.2347   -8.8480   17.9461 C   0  0  1  0  0  0  0  0  0  0  0  0
   21.4321  -10.2342   17.7471 O   0  0  0  0  0  0  0  0  0  0  0  0
   22.5605   -8.3017   18.1720 N   0  0  0  0  0  0  0  0  0  0  0  0
   22.5461   -6.9875   18.8085 C   0  0  0  0  0  0  0  0  0  0  0  0
   22.4005   -5.8536   17.8044 C   0  0  0  0  0  0  0  0  0  0  0  0
   22.3263   -4.5398   18.5622 C   0  0  0  0  0  0  0  0  0  0  0  0
   23.4772   -4.2722   19.4256 N   0  0  0  0  0  0  0  0  0  0  0  0
   23.4534   -2.9441   20.1122 C   0  0  2  0  0  0  0  0  0  0  0  0
   23.1155   -2.8998   21.6150 C   0  0  0  0  0  0  0  0  0  0  0  0
   21.5884   -2.8905   21.6461 C   0  0  0  0  0  0  0  0  0  0  0  0
   21.1969   -2.1661   20.4229 N   0  0  0  0  0  0  0  0  0  0  0  0
   19.9845   -2.5847   19.8896 C   0  0  0  0  0  0  0  0  0  0  0  0
   19.6867   -2.5125   18.5317 C   0  0  0  0  0  0  0  0  0  0  0  0
   18.4904   -3.0245   18.0357 C   0  0  0  0  0  0  0  0  0  0  0  0
   17.5571   -3.5345   18.9053 C   0  0  0  0  0  0  0  0  0  0  0  0
   16.0481   -4.0364   18.2748 Cl  0  0  0  0  0  0  0  0  0  0  0  0
   17.8824   -3.5350   20.2464 C   0  0  0  0  0  0  0  0  0  0  0  0
   19.0698   -3.1011   20.7420 N   0  0  0  0  0  0  0  0  0  0  0  0
   22.4038   -1.8954   19.6227 C   0  0  0  0  0  0  0  0  0  0  0  0
   23.8059   -5.4058   20.2988 C   0  0  0  0  0  0  0  0  0  0  0  0
   23.8604   -6.7525   19.5637 C   0  0  0  0  0  0  0  0  0  0  0  0
   20.8766   -8.2448   15.4294 C   0  0  0  0  0  0  0  0  0  0  0  0
   22.7200   -8.5148   14.9721 Br  0  0  0  0  0  0  0  0  0  0  0  0
   20.0320   -8.0222   14.2924 C   0  0  0  0  0  0  0  0  0  0  0  0
   18.6350   -7.9186   14.3772 C   0  0  0  0  0  0  0  0  0  0  0  0
   18.1423   -7.9587   15.6853 C   0  0  0  0  0  0  0  0  0  0  0  0
   16.8690   -7.9190   16.1044 N   0  0  0  0  0  0  0  0  0  0  0  0
  1  2  1  0
  2  3  1  0
  3  4  2  0
  4  5  1  0
  5  6  1  0
  6  7  1  6
  6  8  1  0
  8  9  1  0
  9 10  1  0
 10 11  1  0
 11 12  1  0
 13 12  1  6
 13 14  1  0
 14 15  1  0
 15 16  1  0
 16 17  1  0
 17 18  2  0
 18 19  1  0
 19 20  2  0
 20 21  1  0
 20 22  1  0
 22 23  2  0
 16 24  1  0
 12 25  1  0
 25 26  1  0
  5 27  2  0
 27 28  1  0
 27 29  1  0
 29 30  2  0
 30 31  1  0
 31 32  2  0
 32  2  1  0
 31  4  1  0
 26  9  1  0
 24 13  1  0
 23 17  1  0
M  END
>  <energy_score>  (1170) 
-66.880627

>  <inchikey>  (1170) 
None

>  <smiles>  (1170) 
None

>  <ref_pdb>  (1170) 
A1105b

>  <alias>  (1170) 
None

>  <HIPPO Pose ID>  (1170) 
498814

>  <name>  (1170) 
P498814

>  <HIPPO Compound ID>  (1170) 
293510

>  <ref_mols>  (1170) 
A0497a,A1105b

>  <distance_score>  (1170) 
1.568638

>  <inspiration_score>  (1170) 
None

$$$$
P498815
     RDKit          3D

 32 36  0  0  0  0  0  0  0  0999 V2000
   15.6330   -7.7504   17.5957 C   0  0  0  0  0  0  0  0  0  0  0  0
   16.8710   -7.7041   16.8537 N   0  0  0  0  0  0  0  0  0  0  0  0
   17.8358   -6.7488   16.9500 C   0  0  0  0  0  0  0  0  0  0  0  0
   18.8218   -7.1043   16.0697 C   0  0  0  0  0  0  0  0  0  0  0  0
   20.0196   -6.4080   15.7881 C   0  0  0  0  0  0  0  0  0  0  0  0
   20.4978   -5.0874   16.3383 C   0  0  1  0  0  0  0  0  0  0  0  0
   19.4418   -4.3739   16.9621 O   0  0  0  0  0  0  0  0  0  0  0  0
   21.6533   -5.2157   17.2313 N   0  0  0  0  0  0  0  0  0  0  0  0
   21.8403   -4.0187   18.0560 C   0  0  0  0  0  0  0  0  0  0  0  0
   23.0635   -4.0943   18.9699 C   0  0  0  0  0  0  0  0  0  0  0  0
   22.9709   -2.9511   19.9963 C   0  0  0  0  0  0  0  0  0  0  0  0
   22.6276   -1.6097   19.4874 N   0  0  0  0  0  0  0  0  0  0  0  0
   22.2038   -0.6538   20.5668 C   0  0  1  0  0  0  0  0  0  0  0  0
   21.2735    0.5097   20.1552 C   0  0  0  0  0  0  0  0  0  0  0  0
   19.8371   -0.0279   20.3258 C   0  0  0  0  0  0  0  0  0  0  0  0
   19.9546   -1.1631   21.2488 N   0  0  0  0  0  0  0  0  0  0  0  0
   19.4387   -2.4231   20.9646 C   0  0  0  0  0  0  0  0  0  0  0  0
   18.4435   -2.6823   20.0200 C   0  0  0  0  0  0  0  0  0  0  0  0
   18.0135   -3.9995   19.7869 C   0  0  0  0  0  0  0  0  0  0  0  0
   18.5730   -5.0368   20.5175 C   0  0  0  0  0  0  0  0  0  0  0  0
   18.1498   -6.6865   20.3168 Cl  0  0  0  0  0  0  0  0  0  0  0  0
   19.5074   -4.7070   21.4670 C   0  0  0  0  0  0  0  0  0  0  0  0
   19.9230   -3.4463   21.7044 N   0  0  0  0  0  0  0  0  0  0  0  0
   21.3422   -1.1713   21.7606 C   0  0  0  0  0  0  0  0  0  0  0  0
   21.8069   -1.5722   18.2779 C   0  0  0  0  0  0  0  0  0  0  0  0
   22.0103   -2.7080   17.2853 C   0  0  0  0  0  0  0  0  0  0  0  0
   20.7332   -7.1024   14.7645 C   0  0  0  0  0  0  0  0  0  0  0  0
   22.4117   -6.4379   14.1099 Br  0  0  0  0  0  0  0  0  0  0  0  0
   20.2832   -8.3000   14.1194 C   0  0  0  0  0  0  0  0  0  0  0  0
   19.0694   -8.9421   14.4243 C   0  0  0  0  0  0  0  0  0  0  0  0
   18.3336   -8.3088   15.4328 C   0  0  0  0  0  0  0  0  0  0  0  0
   17.1370   -8.6554   15.9394 N   0  0  0  0  0  0  0  0  0  0  0  0
  1  2  1  0
  2  3  1  0
  3  4  2  0
  4  5  1  0
  5  6  1  0
  6  7  1  1
  6  8  1  0
  8  9  1  0
  9 10  1  0
 10 11  1  0
 11 12  1  0
 13 12  1  6
 13 14  1  0
 14 15  1  0
 15 16  1  0
 16 17  1  0
 17 18  2  0
 18 19  1  0
 19 20  2  0
 20 21  1  0
 20 22  1  0
 22 23  2  0
 16 24  1  0
 12 25  1  0
 25 26  1  0
  5 27  2  0
 27 28  1  0
 27 29  1  0
 29 30  2  0
 30 31  1  0
 31 32  2  0
 32  2  1  0
 31  4  1  0
 26  9  1  0
 24 13  1  0
 23 17  1  0
M  END
>  <energy_score>  (1171) 
-34.10861

>  <inchikey>  (1171) 
None

>  <smiles>  (1171) 
None

>  <ref_pdb>  (1171) 
A1105b

>  <alias>  (1171) 
None

>  <HIPPO Pose ID>  (1171) 
498815

>  <name>  (1171) 
P498815

>  <HIPPO Compound ID>  (1171) 
293510

>  <ref_mols>  (1171) 
A0497a,A1105b

>  <distance_score>  (1171) 
1.221097

>  <inspiration_score>  (1171) 
None

$$$$
P498816
     RDKit          3D

 32 36  0  0  0  0  0  0  0  0999 V2000
   15.9878   -8.3395   18.4778 C   0  0  0  0  0  0  0  0  0  0  0  0
   17.1559   -8.2393   17.6349 N   0  0  0  0  0  0  0  0  0  0  0  0
   18.4608   -8.3438   18.0237 C   0  0  0  0  0  0  0  0  0  0  0  0
   19.1999   -8.1277   16.8902 C   0  0  0  0  0  0  0  0  0  0  0  0
   20.5998   -8.1627   16.7521 C   0  0  0  0  0  0  0  0  0  0  0  0
   21.6704   -8.7322   17.6580 C   0  0  2  0  0  0  0  0  0  0  0  0
   21.1412   -9.6155   18.6250 O   0  0  0  0  0  0  0  0  0  0  0  0
   22.5977   -7.7708   18.2261 N   0  0  0  0  0  0  0  0  0  0  0  0
   22.1898   -7.1905   19.5089 C   0  0  0  0  0  0  0  0  0  0  0  0
   22.5019   -8.1107   20.7129 C   0  0  0  0  0  0  0  0  0  0  0  0
   22.8459   -7.3494   22.0025 C   0  0  0  0  0  0  0  0  0  0  0  0
   22.1796   -6.0628   22.1632 N   0  0  0  0  0  0  0  0  0  0  0  0
   20.8692   -6.1042   22.8462 C   0  0  2  0  0  0  0  0  0  0  0  0
   19.8563   -7.1060   22.2653 C   0  0  0  0  0  0  0  0  0  0  0  0
   18.5042   -6.4533   22.4734 C   0  0  0  0  0  0  0  0  0  0  0  0
   18.7582   -5.0264   22.2893 N   0  0  0  0  0  0  0  0  0  0  0  0
   18.7684   -4.4579   21.0072 C   0  0  0  0  0  0  0  0  0  0  0  0
   18.3432   -5.1346   19.8607 C   0  0  0  0  0  0  0  0  0  0  0  0
   18.6263   -4.6250   18.5896 C   0  0  0  0  0  0  0  0  0  0  0  0
   19.3340   -3.4442   18.4917 C   0  0  0  0  0  0  0  0  0  0  0  0
   20.0554   -2.9484   17.0256 Cl  0  0  0  0  0  0  0  0  0  0  0  0
   19.5875   -2.7479   19.6516 C   0  0  0  0  0  0  0  0  0  0  0  0
   19.3003   -3.2194   20.8877 N   0  0  0  0  0  0  0  0  0  0  0  0
   20.0475   -4.7752   22.9947 C   0  0  0  0  0  0  0  0  0  0  0  0
   22.2930   -5.1948   20.9857 C   0  0  0  0  0  0  0  0  0  0  0  0
   22.8900   -5.8506   19.7328 C   0  0  0  0  0  0  0  0  0  0  0  0
   20.9549   -7.7933   15.4198 C   0  0  0  0  0  0  0  0  0  0  0  0
   20.0276   -7.5955   14.3627 C   0  0  0  0  0  0  0  0  0  0  0  0
   20.5168   -7.3418   13.1382 F   0  0  0  0  0  0  0  0  0  0  0  0
   18.6432   -7.7170   14.5086 C   0  0  0  0  0  0  0  0  0  0  0  0
   18.2352   -7.9347   15.8273 C   0  0  0  0  0  0  0  0  0  0  0  0
   16.9894   -8.0569   16.3144 N   0  0  0  0  0  0  0  0  0  0  0  0
  1  2  1  0
  2  3  1  0
  3  4  2  0
  4  5  1  0
  5  6  1  0
  6  7  1  1
  6  8  1  0
  8  9  1  0
  9 10  1  0
 10 11  1  0
 11 12  1  0
 13 12  1  6
 13 14  1  0
 14 15  1  0
 15 16  1  0
 16 17  1  0
 17 18  2  0
 18 19  1  0
 19 20  2  0
 20 21  1  0
 20 22  1  0
 22 23  2  0
 16 24  1  0
 12 25  1  0
 25 26  1  0
  5 27  2  0
 27 28  1  0
 28 29  1  0
 28 30  2  0
 30 31  1  0
 31 32  2  0
 32  2  1  0
 31  4  1  0
 26  9  1  0
 24 13  1  0
 23 17  1  0
M  END
>  <energy_score>  (1172) 
-34.921121

>  <inchikey>  (1172) 
None

>  <smiles>  (1172) 
None

>  <ref_pdb>  (1172) 
A1105b

>  <alias>  (1172) 
None

>  <HIPPO Pose ID>  (1172) 
498816

>  <name>  (1172) 
P498816

>  <HIPPO Compound ID>  (1172) 
293511

>  <ref_mols>  (1172) 
A0497a,A1105b

>  <distance_score>  (1172) 
1.336917

>  <inspiration_score>  (1172) 
None

$$$$
P498817
     RDKit          3D

 32 36  0  0  0  0  0  0  0  0999 V2000
   15.5249   -7.9691   17.8172 C   0  0  0  0  0  0  0  0  0  0  0  0
   16.7844   -7.9508   17.1097 N   0  0  0  0  0  0  0  0  0  0  0  0
   18.0072   -7.6480   17.6325 C   0  0  0  0  0  0  0  0  0  0  0  0
   18.8806   -7.6601   16.5791 C   0  0  0  0  0  0  0  0  0  0  0  0
   20.2621   -7.3963   16.6040 C   0  0  0  0  0  0  0  0  0  0  0  0
   21.2074   -7.1236   17.7546 C   0  0  2  0  0  0  0  0  0  0  0  0
   20.6037   -7.3237   19.0156 O   0  0  0  0  0  0  0  0  0  0  0  0
   21.7567   -5.7877   17.7268 N   0  0  0  0  0  0  0  0  0  0  0  0
   23.1573   -5.6845   17.3112 C   0  0  0  0  0  0  0  0  0  0  0  0
   24.0142   -5.1468   18.4766 C   0  0  0  0  0  0  0  0  0  0  0  0
   24.4824   -3.6936   18.2885 C   0  0  0  0  0  0  0  0  0  0  0  0
   23.4890   -2.8123   17.6646 N   0  0  0  0  0  0  0  0  0  0  0  0
   22.3426   -2.5642   18.5619 C   0  0  1  0  0  0  0  0  0  0  0  0
   22.6448   -1.4967   19.6269 C   0  0  0  0  0  0  0  0  0  0  0  0
   21.2745   -0.9123   20.0245 C   0  0  0  0  0  0  0  0  0  0  0  0
   20.2697   -1.5486   19.1460 N   0  0  0  0  0  0  0  0  0  0  0  0
   19.6231   -2.6655   19.7282 C   0  0  0  0  0  0  0  0  0  0  0  0
   18.6221   -3.3349   19.0154 C   0  0  0  0  0  0  0  0  0  0  0  0
   18.1291   -4.5505   19.4918 C   0  0  0  0  0  0  0  0  0  0  0  0
   18.6314   -5.0586   20.6819 C   0  0  0  0  0  0  0  0  0  0  0  0
   18.1633   -6.5807   21.3274 Cl  0  0  0  0  0  0  0  0  0  0  0  0
   19.5654   -4.3067   21.3622 C   0  0  0  0  0  0  0  0  0  0  0  0
   20.0545   -3.1296   20.9208 N   0  0  0  0  0  0  0  0  0  0  0  0
   21.0400   -1.9923   17.9620 C   0  0  0  0  0  0  0  0  0  0  0  0
   23.1123   -3.3099   16.3333 C   0  0  0  0  0  0  0  0  0  0  0  0
   23.3439   -4.8014   16.0770 C   0  0  0  0  0  0  0  0  0  0  0  0
   20.7751   -7.4903   15.2769 C   0  0  0  0  0  0  0  0  0  0  0  0
   20.0116   -7.8318   14.1256 C   0  0  0  0  0  0  0  0  0  0  0  0
   20.6521   -7.8895   12.9471 F   0  0  0  0  0  0  0  0  0  0  0  0
   18.6483   -8.1408   14.1494 C   0  0  0  0  0  0  0  0  0  0  0  0
   18.0841   -8.0350   15.4257 C   0  0  0  0  0  0  0  0  0  0  0  0
   16.8165   -8.2729   15.8040 N   0  0  0  0  0  0  0  0  0  0  0  0
  1  2  1  0
  2  3  1  0
  3  4  2  0
  4  5  1  0
  5  6  1  0
  6  7  1  1
  6  8  1  0
  8  9  1  0
  9 10  1  0
 10 11  1  0
 11 12  1  0
 13 12  1  6
 13 14  1  0
 14 15  1  0
 15 16  1  0
 16 17  1  0
 17 18  2  0
 18 19  1  0
 19 20  2  0
 20 21  1  0
 20 22  1  0
 22 23  2  0
 16 24  1  0
 12 25  1  0
 25 26  1  0
  5 27  2  0
 27 28  1  0
 28 29  1  0
 28 30  2  0
 30 31  1  0
 31 32  2  0
 32  2  1  0
 31  4  1  0
 26  9  1  0
 24 13  1  0
 23 17  1  0
M  END
>  <energy_score>  (1173) 
-36.863834

>  <inchikey>  (1173) 
None

>  <smiles>  (1173) 
None

>  <ref_pdb>  (1173) 
A1105b

>  <alias>  (1173) 
None

>  <HIPPO Pose ID>  (1173) 
498817

>  <name>  (1173) 
P498817

>  <HIPPO Compound ID>  (1173) 
293511

>  <ref_mols>  (1173) 
A0497a,A1105b

>  <distance_score>  (1173) 
1.081926

>  <inspiration_score>  (1173) 
None

$$$$
P498818
     RDKit          3D

 32 36  0  0  0  0  0  0  0  0999 V2000
   18.0618   -9.0427   13.0945 C   0  0  0  0  0  0  0  0  0  0  0  0
   18.5828   -8.2920   14.2735 C   0  0  0  0  0  0  0  0  0  0  0  0
   19.8380   -7.6410   14.2409 C   0  0  0  0  0  0  0  0  0  0  0  0
   20.3763   -6.9055   15.3390 C   0  0  0  0  0  0  0  0  0  0  0  0
   19.7444   -6.7350   16.6069 C   0  0  0  0  0  0  0  0  0  0  0  0
   20.4735   -5.9721   17.6779 C   0  0  2  0  0  0  0  0  0  0  0  0
   21.5053   -6.8239   18.1510 O   0  0  0  0  0  0  0  0  0  0  0  0
   19.7410   -5.5928   18.8633 N   0  0  0  0  0  0  0  0  0  0  0  0
   18.7463   -4.5171   18.6802 C   0  0  0  0  0  0  0  0  0  0  0  0
   19.2840   -3.1870   18.1578 C   0  0  0  0  0  0  0  0  0  0  0  0
   20.2357   -2.5271   19.1502 C   0  0  0  0  0  0  0  0  0  0  0  0
   19.5974   -2.2911   20.4525 N   0  0  0  0  0  0  0  0  0  0  0  0
   20.5162   -1.6346   21.4080 C   0  0  2  0  0  0  0  0  0  0  0  0
   19.7869   -1.0379   22.6187 C   0  0  0  0  0  0  0  0  0  0  0  0
   20.8245   -0.1081   23.2502 C   0  0  0  0  0  0  0  0  0  0  0  0
   21.6945    0.2772   22.1424 N   0  0  0  0  0  0  0  0  0  0  0  0
   22.5052    1.3711   22.2552 C   0  0  0  0  0  0  0  0  0  0  0  0
   23.2697    1.8511   21.1912 C   0  0  0  0  0  0  0  0  0  0  0  0
   24.0651    2.9922   21.3510 C   0  0  0  0  0  0  0  0  0  0  0  0
   24.0889    3.6343   22.5769 C   0  0  0  0  0  0  0  0  0  0  0  0
   25.0272    5.0500   22.8151 Cl  0  0  0  0  0  0  0  0  0  0  0  0
   23.3255    3.1009   23.5944 C   0  0  0  0  0  0  0  0  0  0  0  0
   22.5549    1.9954   23.4544 N   0  0  0  0  0  0  0  0  0  0  0  0
   21.3047   -0.3919   20.9084 C   0  0  0  0  0  0  0  0  0  0  0  0
   19.0410   -3.5306   21.0197 C   0  0  0  0  0  0  0  0  0  0  0  0
   18.1088   -4.2566   20.0494 C   0  0  0  0  0  0  0  0  0  0  0  0
   18.5153   -7.4108   16.6102 C   0  0  0  0  0  0  0  0  0  0  0  0
   17.6369   -7.5274   17.6555 C   0  0  0  0  0  0  0  0  0  0  0  0
   16.5607   -8.1929   17.1538 N   0  0  0  0  0  0  0  0  0  0  0  0
   15.3199   -8.4580   17.8424 C   0  0  0  0  0  0  0  0  0  0  0  0
   16.7234   -8.6357   15.8935 N   0  0  0  0  0  0  0  0  0  0  0  0
   17.9212   -8.1503   15.5125 C   0  0  0  0  0  0  0  0  0  0  0  0
  1  2  1  0
  2  3  2  0
  3  4  1  0
  4  5  2  0
  5  6  1  0
  6  7  1  1
  6  8  1  0
  8  9  1  0
  9 10  1  0
 10 11  1  0
 11 12  1  0
 13 12  1  6
 13 14  1  0
 14 15  1  0
 15 16  1  0
 16 17  1  0
 17 18  2  0
 18 19  1  0
 19 20  2  0
 20 21  1  0
 20 22  1  0
 22 23  2  0
 16 24  1  0
 12 25  1  0
 25 26  1  0
  5 27  1  0
 27 28  2  0
 28 29  1  0
 29 30  1  0
 29 31  1  0
 31 32  2  0
 32  2  1  0
 26  9  1  0
 32 27  1  0
 24 13  1  0
 23 17  1  0
M  END
>  <energy_score>  (1174) 
-74.776788

>  <inchikey>  (1174) 
None

>  <smiles>  (1174) 
None

>  <ref_pdb>  (1174) 
A1105b

>  <alias>  (1174) 
None

>  <HIPPO Pose ID>  (1174) 
498818

>  <name>  (1174) 
P498818

>  <HIPPO Compound ID>  (1174) 
293512

>  <ref_mols>  (1174) 
A0497a,A1105b

>  <distance_score>  (1174) 
0.998812

>  <inspiration_score>  (1174) 
None

$$$$
P498819
     RDKit          3D

 32 36  0  0  0  0  0  0  0  0999 V2000
   18.2441   -9.1846   12.8388 C   0  0  0  0  0  0  0  0  0  0  0  0
   18.5991   -8.4864   14.1078 C   0  0  0  0  0  0  0  0  0  0  0  0
   19.8188   -7.7792   14.2502 C   0  0  0  0  0  0  0  0  0  0  0  0
   20.2049   -7.0825   15.4385 C   0  0  0  0  0  0  0  0  0  0  0  0
   19.4342   -7.0217   16.6307 C   0  0  0  0  0  0  0  0  0  0  0  0
   19.8734   -6.2786   17.8585 C   0  0  1  0  0  0  0  0  0  0  0  0
   21.2818   -6.1979   17.9097 O   0  0  0  0  0  0  0  0  0  0  0  0
   19.4098   -4.9044   17.8958 N   0  0  0  0  0  0  0  0  0  0  0  0
   18.4384   -4.6485   18.9731 C   0  0  0  0  0  0  0  0  0  0  0  0
   19.0720   -4.6905   20.3732 C   0  0  0  0  0  0  0  0  0  0  0  0
   20.0187   -3.5132   20.6181 C   0  0  0  0  0  0  0  0  0  0  0  0
   19.3181   -2.2320   20.4478 N   0  0  0  0  0  0  0  0  0  0  0  0
   20.1795   -1.0930   20.8212 C   0  0  2  0  0  0  0  0  0  0  0  0
   19.4588    0.2588   20.9174 C   0  0  0  0  0  0  0  0  0  0  0  0
   20.6246    1.2311   21.0889 C   0  0  0  0  0  0  0  0  0  0  0  0
   21.6605    0.6817   20.2181 N   0  0  0  0  0  0  0  0  0  0  0  0
   22.9198    1.2323   20.2324 C   0  0  0  0  0  0  0  0  0  0  0  0
   23.9647    0.6897   19.4809 C   0  0  0  0  0  0  0  0  0  0  0  0
   25.2273    1.2881   19.4871 C   0  0  0  0  0  0  0  0  0  0  0  0
   25.4236    2.4312   20.2410 C   0  0  0  0  0  0  0  0  0  0  0  0
   26.9514    3.2080   20.2850 Cl  0  0  0  0  0  0  0  0  0  0  0  0
   24.3458    2.9306   20.9464 C   0  0  0  0  0  0  0  0  0  0  0  0
   23.1120    2.3659   20.9460 N   0  0  0  0  0  0  0  0  0  0  0  0
   21.4196   -0.7428   19.9524 C   0  0  0  0  0  0  0  0  0  0  0  0
   18.7658   -2.1340   19.0882 C   0  0  0  0  0  0  0  0  0  0  0  0
   17.7924   -3.2729   18.7841 C   0  0  0  0  0  0  0  0  0  0  0  0
   18.2338   -7.7206   16.4505 C   0  0  0  0  0  0  0  0  0  0  0  0
   17.2370   -7.8646   17.3787 C   0  0  0  0  0  0  0  0  0  0  0  0
   16.2629   -8.5768   16.7453 N   0  0  0  0  0  0  0  0  0  0  0  0
   14.9726   -8.9314   17.2872 C   0  0  0  0  0  0  0  0  0  0  0  0
   16.5791   -8.9607   15.4933 N   0  0  0  0  0  0  0  0  0  0  0  0
   17.7957   -8.4277   15.2664 C   0  0  0  0  0  0  0  0  0  0  0  0
  1  2  1  0
  2  3  2  0
  3  4  1  0
  4  5  2  0
  5  6  1  0
  6  7  1  6
  6  8  1  0
  8  9  1  0
  9 10  1  0
 10 11  1  0
 11 12  1  0
 13 12  1  6
 13 14  1  0
 14 15  1  0
 15 16  1  0
 16 17  1  0
 17 18  2  0
 18 19  1  0
 19 20  2  0
 20 21  1  0
 20 22  1  0
 22 23  2  0
 16 24  1  0
 12 25  1  0
 25 26  1  0
  5 27  1  0
 27 28  2  0
 28 29  1  0
 29 30  1  0
 29 31  1  0
 31 32  2  0
 32  2  1  0
 26  9  1  0
 32 27  1  0
 24 13  1  0
 23 17  1  0
M  END
>  <energy_score>  (1175) 
-86.336006

>  <inchikey>  (1175) 
None

>  <smiles>  (1175) 
None

>  <ref_pdb>  (1175) 
A1105b

>  <alias>  (1175) 
None

>  <HIPPO Pose ID>  (1175) 
498819

>  <name>  (1175) 
P498819

>  <HIPPO Compound ID>  (1175) 
293512

>  <ref_mols>  (1175) 
A0497a,A1105b

>  <distance_score>  (1175) 
1.248248

>  <inspiration_score>  (1175) 
None

$$$$
P498820
     RDKit          3D

 32 36  0  0  0  0  0  0  0  0999 V2000
   19.5401   -9.5410   15.7536 C   0  0  0  0  0  0  0  0  0  0  0  0
   19.0148   -8.2577   16.3028 C   0  0  0  0  0  0  0  0  0  0  0  0
   19.8247   -7.0963   16.3819 C   0  0  0  0  0  0  0  0  0  0  0  0
   19.3709   -5.8391   16.8955 C   0  0  0  0  0  0  0  0  0  0  0  0
   18.0579   -5.5847   17.3814 C   0  0  0  0  0  0  0  0  0  0  0  0
   17.5732   -4.2314   17.8366 C   0  0  2  0  0  0  0  0  0  0  0  0
   18.2861   -3.1686   17.2430 O   0  0  0  0  0  0  0  0  0  0  0  0
   17.5343   -4.0568   19.2820 N   0  0  0  0  0  0  0  0  0  0  0  0
   18.8451   -4.0384   19.9303 C   0  0  0  0  0  0  0  0  0  0  0  0
   18.6707   -4.3323   21.4216 C   0  0  0  0  0  0  0  0  0  0  0  0
   20.0558   -4.4414   22.0705 C   0  0  0  0  0  0  0  0  0  0  0  0
   20.9590   -3.3190   21.7852 N   0  0  0  0  0  0  0  0  0  0  0  0
   22.3113   -3.6810   21.3349 C   0  0  1  0  0  0  0  0  0  0  0  0
   23.1046   -4.5418   22.3282 C   0  0  0  0  0  0  0  0  0  0  0  0
   24.3074   -4.9783   21.4921 C   0  0  0  0  0  0  0  0  0  0  0  0
   23.7377   -5.1895   20.1671 N   0  0  0  0  0  0  0  0  0  0  0  0
   24.5498   -5.5435   19.1187 C   0  0  0  0  0  0  0  0  0  0  0  0
   24.0495   -5.6920   17.8225 C   0  0  0  0  0  0  0  0  0  0  0  0
   24.8933   -6.0723   16.7761 C   0  0  0  0  0  0  0  0  0  0  0  0
   26.2297   -6.3079   17.0459 C   0  0  0  0  0  0  0  0  0  0  0  0
   27.3111   -6.7744   15.7996 Cl  0  0  0  0  0  0  0  0  0  0  0  0
   26.6619   -6.1549   18.3491 C   0  0  0  0  0  0  0  0  0  0  0  0
   25.8565   -5.7847   19.3754 N   0  0  0  0  0  0  0  0  0  0  0  0
   22.4858   -4.4528   20.0006 C   0  0  0  0  0  0  0  0  0  0  0  0
   20.3412   -2.2565   20.9922 C   0  0  0  0  0  0  0  0  0  0  0  0
   19.6087   -2.7179   19.7338 C   0  0  0  0  0  0  0  0  0  0  0  0
   17.3006   -6.7569   17.3040 C   0  0  0  0  0  0  0  0  0  0  0  0
   15.9927   -6.8815   17.6850 C   0  0  0  0  0  0  0  0  0  0  0  0
   15.6785   -8.1834   17.4466 N   0  0  0  0  0  0  0  0  0  0  0  0
   14.4142   -8.8179   17.7318 C   0  0  0  0  0  0  0  0  0  0  0  0
   16.6723   -8.9039   16.8863 N   0  0  0  0  0  0  0  0  0  0  0  0
   17.7091   -8.0469   16.7962 C   0  0  0  0  0  0  0  0  0  0  0  0
  1  2  1  0
  2  3  2  0
  3  4  1  0
  4  5  2  0
  5  6  1  0
  6  7  1  6
  6  8  1  0
  8  9  1  0
  9 10  1  0
 10 11  1  0
 11 12  1  0
 13 12  1  1
 13 14  1  0
 14 15  1  0
 15 16  1  0
 16 17  1  0
 17 18  2  0
 18 19  1  0
 19 20  2  0
 20 21  1  0
 20 22  1  0
 22 23  2  0
 16 24  1  0
 12 25  1  0
 25 26  1  0
  5 27  1  0
 27 28  2  0
 28 29  1  0
 29 30  1  0
 29 31  1  0
 31 32  2  0
 32  2  1  0
 26  9  1  0
 32 27  1  0
 24 13  1  0
 23 17  1  0
M  END
>  <energy_score>  (1176) 
-55.973551

>  <inchikey>  (1176) 
None

>  <smiles>  (1176) 
None

>  <ref_pdb>  (1176) 
A1105b

>  <alias>  (1176) 
None

>  <HIPPO Pose ID>  (1176) 
498820

>  <name>  (1176) 
P498820

>  <HIPPO Compound ID>  (1176) 
293512

>  <ref_mols>  (1176) 
A0497a,A1105b

>  <distance_score>  (1176) 
1.972365

>  <inspiration_score>  (1176) 
None

$$$$
P498821
     RDKit          3D

 32 36  0  0  0  0  0  0  0  0999 V2000
   18.6410   -9.8174   14.1514 C   0  0  0  0  0  0  0  0  0  0  0  0
   18.6754   -8.6692   15.1031 C   0  0  0  0  0  0  0  0  0  0  0  0
   19.7957   -7.8109   15.1873 C   0  0  0  0  0  0  0  0  0  0  0  0
   19.8747   -6.6946   16.0762 C   0  0  0  0  0  0  0  0  0  0  0  0
   18.8507   -6.2799   16.9830 C   0  0  0  0  0  0  0  0  0  0  0  0
   19.0637   -5.0509   17.8476 C   0  0  1  0  0  0  0  0  0  0  0  0
   19.6044   -4.0352   17.0270 O   0  0  0  0  0  0  0  0  0  0  0  0
   17.8587   -4.5347   18.4587 N   0  0  0  0  0  0  0  0  0  0  0  0
   17.9849   -3.5545   19.5478 C   0  0  0  0  0  0  0  0  0  0  0  0
   18.7977   -2.2870   19.2583 C   0  0  0  0  0  0  0  0  0  0  0  0
   20.2647   -2.3542   19.6923 C   0  0  0  0  0  0  0  0  0  0  0  0
   20.4752   -2.8832   21.0423 N   0  0  0  0  0  0  0  0  0  0  0  0
   20.4277   -1.9059   22.1379 C   0  0  1  0  0  0  0  0  0  0  0  0
   19.3452   -0.8213   22.1329 C   0  0  0  0  0  0  0  0  0  0  0  0
   19.5163   -0.1511   23.5011 C   0  0  0  0  0  0  0  0  0  0  0  0
   19.9706   -1.2344   24.3678 N   0  0  0  0  0  0  0  0  0  0  0  0
   19.8411   -1.1619   25.7249 C   0  0  0  0  0  0  0  0  0  0  0  0
   20.1656   -2.2294   26.5625 C   0  0  0  0  0  0  0  0  0  0  0  0
   20.0348   -2.1091   27.9498 C   0  0  0  0  0  0  0  0  0  0  0  0
   19.5892   -0.9122   28.4824 C   0  0  0  0  0  0  0  0  0  0  0  0
   19.4082   -0.7114   30.1747 Cl  0  0  0  0  0  0  0  0  0  0  0  0
   19.2837    0.1073   27.6044 C   0  0  0  0  0  0  0  0  0  0  0  0
   19.3861   -0.0055   26.2586 N   0  0  0  0  0  0  0  0  0  0  0  0
   20.3194   -2.4236   23.5994 C   0  0  0  0  0  0  0  0  0  0  0  0
   19.8394   -4.1806   21.2146 C   0  0  0  0  0  0  0  0  0  0  0  0
   18.3496   -4.1784   20.9056 C   0  0  0  0  0  0  0  0  0  0  0  0
   17.7713   -7.1714   16.8892 C   0  0  0  0  0  0  0  0  0  0  0  0
   16.6094   -7.1333   17.6121 C   0  0  0  0  0  0  0  0  0  0  0  0
   15.8581   -8.1720   17.1564 N   0  0  0  0  0  0  0  0  0  0  0  0
   14.5281   -8.5202   17.5960 C   0  0  0  0  0  0  0  0  0  0  0  0
   16.4509   -8.9066   16.1966 N   0  0  0  0  0  0  0  0  0  0  0  0
   17.6460   -8.3148   16.0014 C   0  0  0  0  0  0  0  0  0  0  0  0
  1  2  1  0
  2  3  2  0
  3  4  1  0
  4  5  2  0
  5  6  1  0
  6  7  1  6
  6  8  1  0
  8  9  1  0
  9 10  1  0
 10 11  1  0
 11 12  1  0
 13 12  1  6
 13 14  1  0
 14 15  1  0
 15 16  1  0
 16 17  1  0
 17 18  2  0
 18 19  1  0
 19 20  2  0
 20 21  1  0
 20 22  1  0
 22 23  2  0
 16 24  1  0
 12 25  1  0
 25 26  1  0
  5 27  1  0
 27 28  2  0
 28 29  1  0
 29 30  1  0
 29 31  1  0
 31 32  2  0
 32  2  1  0
 26  9  1  0
 32 27  1  0
 24 13  1  0
 23 17  1  0
M  END
>  <energy_score>  (1177) 
-36.607463

>  <inchikey>  (1177) 
None

>  <smiles>  (1177) 
None

>  <ref_pdb>  (1177) 
A1105b

>  <alias>  (1177) 
None

>  <HIPPO Pose ID>  (1177) 
498821

>  <name>  (1177) 
P498821

>  <HIPPO Compound ID>  (1177) 
293512

>  <ref_mols>  (1177) 
A0497a,A1105b

>  <distance_score>  (1177) 
1.389357

>  <inspiration_score>  (1177) 
None

$$$$
P498822
     RDKit          3D

 32 36  0  0  0  0  0  0  0  0999 V2000
   15.9084  -10.1077   13.1069 C   0  0  0  0  0  0  0  0  0  0  0  0
   17.0605   -9.2748   13.4959 C   0  0  0  0  0  0  0  0  0  0  0  0
   17.8851   -8.7250   12.5951 N   0  0  0  0  0  0  0  0  0  0  0  0
   18.8032   -8.0332   13.3932 O   0  0  0  0  0  0  0  0  0  0  0  0
   18.4143   -8.2197   14.6882 C   0  0  0  0  0  0  0  0  0  0  0  0
   19.1997   -7.5699   15.7121 C   0  0  0  0  0  0  0  0  0  0  0  0
   20.1397   -6.5766   15.4650 C   0  0  0  0  0  0  0  0  0  0  0  0
   20.7806   -5.9470   16.5311 C   0  0  0  0  0  0  0  0  0  0  0  0
   20.4405   -6.2811   17.8430 C   0  0  0  0  0  0  0  0  0  0  0  0
   20.9408   -5.5361   18.9231 N   0  0  0  0  0  0  0  0  0  0  0  0
   20.8641   -4.0570   18.7657 C   0  0  0  0  0  0  0  0  0  0  0  0
   20.2038   -3.5512   20.0509 C   0  0  0  0  0  0  0  0  0  0  0  0
   19.3550   -4.7316   20.5248 C   0  0  1  0  0  0  0  0  0  0  0  0
   18.0005   -4.9694   19.9700 N   0  0  0  0  0  0  0  0  0  0  0  0
   17.6871   -4.4602   18.6441 C   0  0  2  0  0  0  0  0  0  0  0  0
   17.7420   -3.0531   18.7280 O   0  0  0  0  0  0  0  0  0  0  0  0
   16.3123   -4.8674   18.1427 C   0  0  0  0  0  0  0  0  0  0  0  0
   15.3501   -3.8890   17.7522 C   0  0  0  0  0  0  0  0  0  0  0  0
   14.0798   -4.1558   17.1760 C   0  0  0  0  0  0  0  0  0  0  0  0
   13.6155   -5.4500   16.9326 C   0  0  0  0  0  0  0  0  0  0  0  0
   14.4736   -6.4635   17.3594 C   0  0  0  0  0  0  0  0  0  0  0  0
   14.2859   -7.7939   17.3093 N   0  0  0  0  0  0  0  0  0  0  0  0
   15.3344   -8.2971   17.9996 N   0  0  0  0  0  0  0  0  0  0  0  0
   15.3966   -9.7170   18.3196 C   0  0  0  0  0  0  0  0  0  0  0  0
   16.4606  -10.3144   17.7152 F   0  0  0  0  0  0  0  0  0  0  0  0
   15.5613   -9.9156   19.6579 F   0  0  0  0  0  0  0  0  0  0  0  0
   16.2545   -7.3522   18.3735 C   0  0  0  0  0  0  0  0  0  0  0  0
   15.7631   -6.1514   17.9392 C   0  0  0  0  0  0  0  0  0  0  0  0
   20.3552   -5.8811   20.2302 C   0  0  0  0  0  0  0  0  0  0  0  0
   19.5864   -7.3052   18.0842 N   0  0  0  0  0  0  0  0  0  0  0  0
   19.0166   -7.9291   17.0297 C   0  0  0  0  0  0  0  0  0  0  0  0
   17.3546   -8.9925   14.8028 N   0  0  0  0  0  0  0  0  0  0  0  0
  1  2  1  0
  2  3  2  0
  3  4  1  0
  4  5  1  0
  5  6  1  0
  6  7  2  0
  7  8  1  0
  8  9  2  0
  9 10  1  0
 10 11  1  0
 11 12  1  0
 12 13  1  0
 13 14  1  6
 14 15  1  0
 15 16  1  1
 15 17  1  0
 17 18  2  0
 18 19  1  0
 19 20  2  0
 20 21  1  0
 21 22  2  0
 22 23  1  0
 23 24  1  0
 24 25  1  0
 24 26  1  0
 23 27  1  0
 27 28  2  0
 13 29  1  0
  9 30  1  0
 30 31  2  0
  5 32  2  0
 32  2  1  0
 31  6  1  0
 29 10  1  0
 28 17  1  0
 28 21  1  0
M  END
>  <energy_score>  (1178) 
-52.016397

>  <inchikey>  (1178) 
None

>  <smiles>  (1178) 
None

>  <ref_pdb>  (1178) 
A1105b

>  <alias>  (1178) 
None

>  <HIPPO Pose ID>  (1178) 
498822

>  <name>  (1178) 
P498822

>  <HIPPO Compound ID>  (1178) 
293513

>  <ref_mols>  (1178) 
A0497a,A1105b

>  <distance_score>  (1178) 
1.520475

>  <inspiration_score>  (1178) 
None

$$$$
P498823
     RDKit          3D

 32 36  0  0  0  0  0  0  0  0999 V2000
   17.9920  -10.1978   11.1797 C   0  0  0  0  0  0  0  0  0  0  0  0
   18.7120   -9.1635   11.9445 C   0  0  0  0  0  0  0  0  0  0  0  0
   19.4597   -8.2244   11.3521 N   0  0  0  0  0  0  0  0  0  0  0  0
   19.9550   -7.4891   12.4329 O   0  0  0  0  0  0  0  0  0  0  0  0
   19.4301   -8.0513   13.5658 C   0  0  0  0  0  0  0  0  0  0  0  0
   19.7827   -7.4399   14.8322 C   0  0  0  0  0  0  0  0  0  0  0  0
   20.6026   -6.3284   14.9478 C   0  0  0  0  0  0  0  0  0  0  0  0
   20.8759   -5.7954   16.2059 C   0  0  0  0  0  0  0  0  0  0  0  0
   20.3409   -6.3614   17.3591 C   0  0  0  0  0  0  0  0  0  0  0  0
   20.6438   -5.8150   18.6080 N   0  0  0  0  0  0  0  0  0  0  0  0
   20.8373   -4.3533   18.7196 C   0  0  0  0  0  0  0  0  0  0  0  0
   20.3112   -3.9844   20.1066 C   0  0  0  0  0  0  0  0  0  0  0  0
   19.2655   -5.0549   20.4103 C   0  0  1  0  0  0  0  0  0  0  0  0
   17.8859   -4.7490   19.9972 N   0  0  0  0  0  0  0  0  0  0  0  0
   17.6839   -4.4382   18.5910 C   0  0  2  0  0  0  0  0  0  0  0  0
   17.9678   -3.0604   18.4477 O   0  0  0  0  0  0  0  0  0  0  0  0
   16.3033   -4.8040   18.1062 C   0  0  0  0  0  0  0  0  0  0  0  0
   15.2876   -3.8574   17.8040 C   0  0  0  0  0  0  0  0  0  0  0  0
   14.0174   -4.1743   17.2491 C   0  0  0  0  0  0  0  0  0  0  0  0
   13.6114   -5.4813   16.9562 C   0  0  0  0  0  0  0  0  0  0  0  0
   14.5415   -6.4650   17.2911 C   0  0  0  0  0  0  0  0  0  0  0  0
   14.4489   -7.7996   17.1505 N   0  0  0  0  0  0  0  0  0  0  0  0
   15.5983   -8.2684   17.6960 N   0  0  0  0  0  0  0  0  0  0  0  0
   15.8216   -9.7020   17.8280 C   0  0  0  0  0  0  0  0  0  0  0  0
   16.4171  -10.0137   19.0132 F   0  0  0  0  0  0  0  0  0  0  0  0
   16.6428  -10.1689   16.8473 F   0  0  0  0  0  0  0  0  0  0  0  0
   16.4620   -7.2843   18.0884 C   0  0  0  0  0  0  0  0  0  0  0  0
   15.8245   -6.1024   17.8379 C   0  0  0  0  0  0  0  0  0  0  0  0
   19.9059   -6.3106   19.7725 C   0  0  0  0  0  0  0  0  0  0  0  0
   19.5674   -7.4641   17.2541 N   0  0  0  0  0  0  0  0  0  0  0  0
   19.2936   -7.9588   16.0164 C   0  0  0  0  0  0  0  0  0  0  0  0
   18.6583   -9.0871   13.3106 N   0  0  0  0  0  0  0  0  0  0  0  0
  1  2  1  0
  2  3  2  0
  3  4  1  0
  4  5  1  0
  5  6  1  0
  6  7  2  0
  7  8  1  0
  8  9  2  0
  9 10  1  0
 10 11  1  0
 11 12  1  0
 12 13  1  0
 13 14  1  6
 14 15  1  0
 15 16  1  1
 15 17  1  0
 17 18  2  0
 18 19  1  0
 19 20  2  0
 20 21  1  0
 21 22  2  0
 22 23  1  0
 23 24  1  0
 24 25  1  0
 24 26  1  0
 23 27  1  0
 27 28  2  0
 13 29  1  0
  9 30  1  0
 30 31  2  0
  5 32  2  0
 32  2  1  0
 31  6  1  0
 29 10  1  0
 28 17  1  0
 28 21  1  0
M  END
>  <energy_score>  (1179) 
-47.564653

>  <inchikey>  (1179) 
None

>  <smiles>  (1179) 
None

>  <ref_pdb>  (1179) 
A1105b

>  <alias>  (1179) 
None

>  <HIPPO Pose ID>  (1179) 
498823

>  <name>  (1179) 
P498823

>  <HIPPO Compound ID>  (1179) 
293513

>  <ref_mols>  (1179) 
A0497a,A1105b

>  <distance_score>  (1179) 
1.792645

>  <inspiration_score>  (1179) 
None

$$$$
P498824
     RDKit          3D

 32 36  0  0  0  0  0  0  0  0999 V2000
   17.7604   -9.6742   11.4388 C   0  0  0  0  0  0  0  0  0  0  0  0
   18.6218   -8.7808   12.2350 C   0  0  0  0  0  0  0  0  0  0  0  0
   19.5744   -8.0227   11.6788 N   0  0  0  0  0  0  0  0  0  0  0  0
   20.1278   -7.3566   12.7752 O   0  0  0  0  0  0  0  0  0  0  0  0
   19.4304   -7.7679   13.8797 C   0  0  0  0  0  0  0  0  0  0  0  0
   19.8099   -7.1934   15.1539 C   0  0  0  0  0  0  0  0  0  0  0  0
   20.7917   -6.2250   15.2821 C   0  0  0  0  0  0  0  0  0  0  0  0
   21.0994   -5.7229   16.5416 C   0  0  0  0  0  0  0  0  0  0  0  0
   20.4238   -6.1616   17.6785 C   0  0  0  0  0  0  0  0  0  0  0  0
   20.7854   -5.6179   18.9241 N   0  0  0  0  0  0  0  0  0  0  0  0
   20.7966   -4.1314   18.9588 C   0  0  0  0  0  0  0  0  0  0  0  0
   19.9083   -3.7410   20.1409 C   0  0  0  0  0  0  0  0  0  0  0  0
   19.0424   -4.9728   20.3864 C   0  0  1  0  0  0  0  0  0  0  0  0
   17.9496   -5.2611   19.4727 N   0  0  0  0  0  0  0  0  0  0  0  0
   17.2729   -4.1987   18.7984 C   0  0  1  0  0  0  0  0  0  0  0  0
   18.1085   -3.5651   17.8567 O   0  0  0  0  0  0  0  0  0  0  0  0
   16.0461   -4.7292   18.1038 C   0  0  0  0  0  0  0  0  0  0  0  0
   15.0727   -3.7777   17.7201 C   0  0  0  0  0  0  0  0  0  0  0  0
   13.8558   -4.0922   17.0886 C   0  0  0  0  0  0  0  0  0  0  0  0
   13.4620   -5.4029   16.8067 C   0  0  0  0  0  0  0  0  0  0  0  0
   14.3614   -6.3979   17.1859 C   0  0  0  0  0  0  0  0  0  0  0  0
   14.2519   -7.7296   17.0399 N   0  0  0  0  0  0  0  0  0  0  0  0
   15.3524   -8.2161   17.6581 N   0  0  0  0  0  0  0  0  0  0  0  0
   15.5483   -9.6523   17.8036 C   0  0  0  0  0  0  0  0  0  0  0  0
   15.9394   -9.9808   19.0665 F   0  0  0  0  0  0  0  0  0  0  0  0
   16.5258  -10.1019   16.9689 F   0  0  0  0  0  0  0  0  0  0  0  0
   16.2081   -7.2444   18.1016 C   0  0  0  0  0  0  0  0  0  0  0  0
   15.6153   -6.0454   17.8029 C   0  0  0  0  0  0  0  0  0  0  0  0
   20.0765   -6.0896   20.1282 C   0  0  0  0  0  0  0  0  0  0  0  0
   19.4678   -7.1086   17.5673 N   0  0  0  0  0  0  0  0  0  0  0  0
   19.1876   -7.5958   16.3258 C   0  0  0  0  0  0  0  0  0  0  0  0
   18.4959   -8.6508   13.5933 N   0  0  0  0  0  0  0  0  0  0  0  0
  1  2  1  0
  2  3  2  0
  3  4  1  0
  4  5  1  0
  5  6  1  0
  6  7  2  0
  7  8  1  0
  8  9  2  0
  9 10  1  0
 10 11  1  0
 11 12  1  0
 12 13  1  0
 13 14  1  6
 14 15  1  0
 15 16  1  6
 15 17  1  0
 17 18  2  0
 18 19  1  0
 19 20  2  0
 20 21  1  0
 21 22  2  0
 22 23  1  0
 23 24  1  0
 24 25  1  0
 24 26  1  0
 23 27  1  0
 27 28  2  0
 13 29  1  0
  9 30  1  0
 30 31  2  0
  5 32  2  0
 32  2  1  0
 31  6  1  0
 29 10  1  0
 28 17  1  0
 28 21  1  0
M  END
>  <energy_score>  (1180) 
-45.94809

>  <inchikey>  (1180) 
None

>  <smiles>  (1180) 
None

>  <ref_pdb>  (1180) 
A1105b

>  <alias>  (1180) 
None

>  <HIPPO Pose ID>  (1180) 
498824

>  <name>  (1180) 
P498824

>  <HIPPO Compound ID>  (1180) 
293513

>  <ref_mols>  (1180) 
A0497a,A1105b

>  <distance_score>  (1180) 
1.892669

>  <inspiration_score>  (1180) 
None

$$$$
P498825
     RDKit          3D

 32 36  0  0  0  0  0  0  0  0999 V2000
   16.0811  -10.2024   13.7751 C   0  0  0  0  0  0  0  0  0  0  0  0
   17.2068   -9.2876   14.0391 C   0  0  0  0  0  0  0  0  0  0  0  0
   17.8667   -8.6597   13.0581 N   0  0  0  0  0  0  0  0  0  0  0  0
   18.8169   -7.9044   13.7537 O   0  0  0  0  0  0  0  0  0  0  0  0
   18.6086   -8.1382   15.0832 C   0  0  0  0  0  0  0  0  0  0  0  0
   19.4510   -7.4222   16.0197 C   0  0  0  0  0  0  0  0  0  0  0  0
   20.2632   -6.3460   15.6805 C   0  0  0  0  0  0  0  0  0  0  0  0
   20.9401   -5.6328   16.6772 C   0  0  0  0  0  0  0  0  0  0  0  0
   20.7559   -5.9622   18.0196 C   0  0  0  0  0  0  0  0  0  0  0  0
   21.1880   -5.1287   19.0711 N   0  0  0  0  0  0  0  0  0  0  0  0
   20.9768   -3.6717   18.8491 C   0  0  0  0  0  0  0  0  0  0  0  0
   20.0154   -3.2098   19.9542 C   0  0  0  0  0  0  0  0  0  0  0  0
   19.3162   -4.4857   20.4293 C   0  0  1  0  0  0  0  0  0  0  0  0
   18.2030   -5.0488   19.6352 N   0  0  0  0  0  0  0  0  0  0  0  0
   17.4465   -4.1382   18.8062 C   0  0  1  0  0  0  0  0  0  0  0  0
   18.2510   -3.6014   17.7796 O   0  0  0  0  0  0  0  0  0  0  0  0
   16.2142   -4.7446   18.1753 C   0  0  0  0  0  0  0  0  0  0  0  0
   15.1879   -3.8472   17.7652 C   0  0  0  0  0  0  0  0  0  0  0  0
   13.9690   -4.2233   17.1513 C   0  0  0  0  0  0  0  0  0  0  0  0
   13.6344   -5.5549   16.8821 C   0  0  0  0  0  0  0  0  0  0  0  0
   14.5864   -6.4926   17.2866 C   0  0  0  0  0  0  0  0  0  0  0  0
   14.5463   -7.8304   17.1669 N   0  0  0  0  0  0  0  0  0  0  0  0
   15.6257   -8.2539   17.8685 N   0  0  0  0  0  0  0  0  0  0  0  0
   15.8379   -9.6800   18.0911 C   0  0  0  0  0  0  0  0  0  0  0  0
   15.1014  -10.1380   19.1401 F   0  0  0  0  0  0  0  0  0  0  0  0
   17.1368   -9.9646   18.3876 F   0  0  0  0  0  0  0  0  0  0  0  0
   16.4236   -7.2332   18.3150 C   0  0  0  0  0  0  0  0  0  0  0  0
   15.8216   -6.0728   17.9099 C   0  0  0  0  0  0  0  0  0  0  0  0
   20.5472   -5.4417   20.3779 C   0  0  0  0  0  0  0  0  0  0  0  0
   20.0759   -7.0876   18.3330 N   0  0  0  0  0  0  0  0  0  0  0  0
   19.4612   -7.7854   17.3488 C   0  0  0  0  0  0  0  0  0  0  0  0
   17.6350   -8.9985   15.3086 N   0  0  0  0  0  0  0  0  0  0  0  0
  1  2  1  0
  2  3  2  0
  3  4  1  0
  4  5  1  0
  5  6  1  0
  6  7  2  0
  7  8  1  0
  8  9  2  0
  9 10  1  0
 10 11  1  0
 11 12  1  0
 12 13  1  0
 13 14  1  6
 14 15  1  0
 15 16  1  6
 15 17  1  0
 17 18  2  0
 18 19  1  0
 19 20  2  0
 20 21  1  0
 21 22  2  0
 22 23  1  0
 23 24  1  0
 24 25  1  0
 24 26  1  0
 23 27  1  0
 27 28  2  0
 13 29  1  0
  9 30  1  0
 30 31  2  0
  5 32  2  0
 32  2  1  0
 31  6  1  0
 29 10  1  0
 28 17  1  0
 28 21  1  0
M  END
>  <energy_score>  (1181) 
-72.052036

>  <inchikey>  (1181) 
None

>  <smiles>  (1181) 
None

>  <ref_pdb>  (1181) 
A1105b

>  <alias>  (1181) 
None

>  <HIPPO Pose ID>  (1181) 
498825

>  <name>  (1181) 
P498825

>  <HIPPO Compound ID>  (1181) 
293513

>  <ref_mols>  (1181) 
A0497a,A1105b

>  <distance_score>  (1181) 
1.244879

>  <inspiration_score>  (1181) 
None

$$$$
P498826
     RDKit          3D

 32 36  0  0  0  0  0  0  0  0999 V2000
   22.6721   -4.9839   17.6942 C   0  0  0  0  0  0  0  0  0  0  0  0
   21.7668   -6.0455   17.4170 O   0  0  0  0  0  0  0  0  0  0  0  0
   20.4271   -5.5681   17.2207 C   0  0  2  0  0  0  0  0  0  0  0  0
   19.8478   -5.3572   18.5315 N   0  0  0  0  0  0  0  0  0  0  0  0
   18.7752   -4.3595   18.5883 C   0  0  0  0  0  0  0  0  0  0  0  0
   19.2673   -2.9154   18.3813 C   0  0  0  0  0  0  0  0  0  0  0  0
   19.5686   -2.1536   19.6789 C   0  0  0  0  0  0  0  0  0  0  0  0
   20.0401   -3.0516   20.7253 N   0  0  0  0  0  0  0  0  0  0  0  0
   20.7680   -2.4000   21.8154 C   0  0  2  0  0  0  0  0  0  0  0  0
   21.1589   -3.3038   22.9908 C   0  0  0  0  0  0  0  0  0  0  0  0
   21.6724   -2.2973   24.0125 C   0  0  0  0  0  0  0  0  0  0  0  0
   20.7866   -1.1405   23.8443 N   0  0  0  0  0  0  0  0  0  0  0  0
   21.1913    0.0363   24.4397 C   0  0  0  0  0  0  0  0  0  0  0  0
   20.5934    1.2620   24.1487 C   0  0  0  0  0  0  0  0  0  0  0  0
   21.0467    2.4304   24.7689 C   0  0  0  0  0  0  0  0  0  0  0  0
   22.0716    2.3553   25.6944 C   0  0  0  0  0  0  0  0  0  0  0  0
   22.6500    3.7629   26.4837 Cl  0  0  0  0  0  0  0  0  0  0  0  0
   22.6025    1.1114   25.9616 C   0  0  0  0  0  0  0  0  0  0  0  0
   22.1821   -0.0293   25.3625 N   0  0  0  0  0  0  0  0  0  0  0  0
   20.1159   -1.1925   22.5368 C   0  0  0  0  0  0  0  0  0  0  0  0
   19.0293   -4.0281   21.1168 C   0  0  0  0  0  0  0  0  0  0  0  0
   18.1090   -4.4446   19.9646 C   0  0  0  0  0  0  0  0  0  0  0  0
   19.7482   -6.5916   16.3275 C   0  0  0  0  0  0  0  0  0  0  0  0
   20.3932   -6.9108   15.0862 C   0  0  0  0  0  0  0  0  0  0  0  0
   19.9017   -7.8072   14.0941 C   0  0  0  0  0  0  0  0  0  0  0  0
   18.6804   -8.4847   14.2210 C   0  0  0  0  0  0  0  0  0  0  0  0
   17.9924   -8.2069   15.4126 C   0  0  0  0  0  0  0  0  0  0  0  0
   16.8021   -8.6869   15.8157 N   0  0  0  0  0  0  0  0  0  0  0  0
   16.5880   -8.0985   17.0041 N   0  0  0  0  0  0  0  0  0  0  0  0
   15.3516   -8.3519   17.7052 C   0  0  0  0  0  0  0  0  0  0  0  0
   17.6086   -7.2976   17.4241 C   0  0  0  0  0  0  0  0  0  0  0  0
   18.5337   -7.3002   16.4126 C   0  0  0  0  0  0  0  0  0  0  0  0
  1  2  1  0
  2  3  1  0
  3  4  1  1
  4  5  1  0
  5  6  1  0
  6  7  1  0
  7  8  1  0
  9  8  1  6
  9 10  1  0
 10 11  1  0
 11 12  1  0
 12 13  1  0
 13 14  2  0
 14 15  1  0
 15 16  2  0
 16 17  1  0
 16 18  1  0
 18 19  2  0
 12 20  1  0
  8 21  1  0
 21 22  1  0
  3 23  1  0
 23 24  2  0
 24 25  1  0
 25 26  2  0
 26 27  1  0
 27 28  2  0
 28 29  1  0
 29 30  1  0
 29 31  1  0
 31 32  2  0
 22  5  1  0
 32 23  1  0
 20  9  1  0
 32 27  1  0
 19 13  1  0
M  END
>  <energy_score>  (1182) 
-55.41727

>  <inchikey>  (1182) 
None

>  <smiles>  (1182) 
None

>  <ref_pdb>  (1182) 
A1105b

>  <alias>  (1182) 
None

>  <HIPPO Pose ID>  (1182) 
498826

>  <name>  (1182) 
P498826

>  <HIPPO Compound ID>  (1182) 
293514

>  <ref_mols>  (1182) 
A0497a,A1105b

>  <distance_score>  (1182) 
0.95891

>  <inspiration_score>  (1182) 
None

$$$$
P498827
     RDKit          3D

 32 36  0  0  0  0  0  0  0  0999 V2000
   22.0439   -7.0705   19.7716 C   0  0  0  0  0  0  0  0  0  0  0  0
   21.6689   -6.8205   18.4267 O   0  0  0  0  0  0  0  0  0  0  0  0
   20.2987   -6.4278   18.2945 C   0  0  1  0  0  0  0  0  0  0  0  0
   20.2234   -4.9840   18.2922 N   0  0  0  0  0  0  0  0  0  0  0  0
   18.8761   -4.4268   18.4797 C   0  0  0  0  0  0  0  0  0  0  0  0
   18.3286   -4.6003   19.9027 C   0  0  0  0  0  0  0  0  0  0  0  0
   19.1900   -3.9070   20.9672 C   0  0  0  0  0  0  0  0  0  0  0  0
   19.9271   -2.7515   20.4380 N   0  0  0  0  0  0  0  0  0  0  0  0
   20.4716   -1.8920   21.5012 C   0  0  2  0  0  0  0  0  0  0  0  0
   19.4905   -0.9876   22.2549 C   0  0  0  0  0  0  0  0  0  0  0  0
   20.4113   -0.0285   23.0148 C   0  0  0  0  0  0  0  0  0  0  0  0
   21.6060    0.0669   22.1781 N   0  0  0  0  0  0  0  0  0  0  0  0
   22.4469    1.1364   22.3040 C   0  0  0  0  0  0  0  0  0  0  0  0
   23.4424    1.4231   21.3696 C   0  0  0  0  0  0  0  0  0  0  0  0
   24.2636    2.5449   21.5327 C   0  0  0  0  0  0  0  0  0  0  0  0
   24.0804    3.3612   22.6357 C   0  0  0  0  0  0  0  0  0  0  0  0
   25.0438    4.7610   22.8703 Cl  0  0  0  0  0  0  0  0  0  0  0  0
   23.0916    3.0146   23.5334 C   0  0  0  0  0  0  0  0  0  0  0  0
   22.2907    1.9323   23.3865 N   0  0  0  0  0  0  0  0  0  0  0  0
   21.5624   -0.8752   21.0650 C   0  0  0  0  0  0  0  0  0  0  0  0
   19.1366   -2.0544   19.4196 C   0  0  0  0  0  0  0  0  0  0  0  0
   18.9405   -2.9247   18.1720 C   0  0  0  0  0  0  0  0  0  0  0  0
   19.7726   -7.0111   17.0097 C   0  0  0  0  0  0  0  0  0  0  0  0
   20.5226   -7.0267   15.7991 C   0  0  0  0  0  0  0  0  0  0  0  0
   20.0655   -7.5787   14.5621 C   0  0  0  0  0  0  0  0  0  0  0  0
   18.7921   -8.1606   14.3991 C   0  0  0  0  0  0  0  0  0  0  0  0
   17.9980   -8.1211   15.5566 C   0  0  0  0  0  0  0  0  0  0  0  0
   16.7378   -8.5556   15.7459 N   0  0  0  0  0  0  0  0  0  0  0  0
   16.4398   -8.1895   17.0092 N   0  0  0  0  0  0  0  0  0  0  0  0
   15.0991   -8.3915   17.5059 C   0  0  0  0  0  0  0  0  0  0  0  0
   17.4852   -7.6525   17.6998 C   0  0  0  0  0  0  0  0  0  0  0  0
   18.5040   -7.5630   16.7880 C   0  0  0  0  0  0  0  0  0  0  0  0
  1  2  1  0
  2  3  1  0
  3  4  1  6
  4  5  1  0
  5  6  1  0
  6  7  1  0
  7  8  1  0
  9  8  1  6
  9 10  1  0
 10 11  1  0
 11 12  1  0
 12 13  1  0
 13 14  2  0
 14 15  1  0
 15 16  2  0
 16 17  1  0
 16 18  1  0
 18 19  2  0
 12 20  1  0
  8 21  1  0
 21 22  1  0
  3 23  1  0
 23 24  2  0
 24 25  1  0
 25 26  2  0
 26 27  1  0
 27 28  2  0
 28 29  1  0
 29 30  1  0
 29 31  1  0
 31 32  2  0
 22  5  1  0
 32 23  1  0
 20  9  1  0
 32 27  1  0
 19 13  1  0
M  END
>  <energy_score>  (1183) 
-62.319301

>  <inchikey>  (1183) 
None

>  <smiles>  (1183) 
None

>  <ref_pdb>  (1183) 
A1105b

>  <alias>  (1183) 
None

>  <HIPPO Pose ID>  (1183) 
498827

>  <name>  (1183) 
P498827

>  <HIPPO Compound ID>  (1183) 
293514

>  <ref_mols>  (1183) 
A0497a,A1105b

>  <distance_score>  (1183) 
1.00881

>  <inspiration_score>  (1183) 
None

$$$$
P498828
     RDKit          3D

 32 36  0  0  0  0  0  0  0  0999 V2000
   20.3796   -7.4438   19.4340 C   0  0  0  0  0  0  0  0  0  0  0  0
   19.1912   -6.6793   19.2788 O   0  0  0  0  0  0  0  0  0  0  0  0
   19.1988   -5.8462   18.1167 C   0  0  2  0  0  0  0  0  0  0  0  0
   18.0483   -4.9565   18.1321 N   0  0  0  0  0  0  0  0  0  0  0  0
   18.0001   -3.8208   19.0470 C   0  0  0  0  0  0  0  0  0  0  0  0
   18.2939   -4.0747   20.5293 C   0  0  0  0  0  0  0  0  0  0  0  0
   19.7709   -3.9931   20.8958 C   0  0  0  0  0  0  0  0  0  0  0  0
   20.4773   -2.8113   20.3954 N   0  0  0  0  0  0  0  0  0  0  0  0
   20.2848   -1.5636   21.1552 C   0  0  1  0  0  0  0  0  0  0  0  0
   20.4449   -1.6877   22.6764 C   0  0  0  0  0  0  0  0  0  0  0  0
   20.7050   -0.2507   23.1296 C   0  0  0  0  0  0  0  0  0  0  0  0
   21.4577    0.3285   22.0254 N   0  0  0  0  0  0  0  0  0  0  0  0
   22.3347    1.3554   22.2297 C   0  0  0  0  0  0  0  0  0  0  0  0
   23.2038    1.8054   21.2329 C   0  0  0  0  0  0  0  0  0  0  0  0
   24.0444    2.8998   21.4661 C   0  0  0  0  0  0  0  0  0  0  0  0
   24.0026    3.5305   22.6976 C   0  0  0  0  0  0  0  0  0  0  0  0
   24.9885    4.8957   23.0238 Cl  0  0  0  0  0  0  0  0  0  0  0  0
   23.1308    3.0330   23.6451 C   0  0  0  0  0  0  0  0  0  0  0  0
   22.3143    1.9727   23.4323 N   0  0  0  0  0  0  0  0  0  0  0  0
   21.3775   -0.5012   20.8321 C   0  0  0  0  0  0  0  0  0  0  0  0
   20.2642   -2.6341   18.9523 C   0  0  0  0  0  0  0  0  0  0  0  0
   18.7978   -2.6203   18.5374 C   0  0  0  0  0  0  0  0  0  0  0  0
   19.1180   -6.7019   16.8785 C   0  0  0  0  0  0  0  0  0  0  0  0
   20.1029   -6.7032   15.8526 C   0  0  0  0  0  0  0  0  0  0  0  0
   20.0166   -7.4840   14.6557 C   0  0  0  0  0  0  0  0  0  0  0  0
   18.9277   -8.3327   14.3579 C   0  0  0  0  0  0  0  0  0  0  0  0
   17.9296   -8.3437   15.3461 C   0  0  0  0  0  0  0  0  0  0  0  0
   16.7605   -9.0101   15.3881 N   0  0  0  0  0  0  0  0  0  0  0  0
   16.1937   -8.6291   16.5554 N   0  0  0  0  0  0  0  0  0  0  0  0
   14.8872   -9.1315   16.9048 C   0  0  0  0  0  0  0  0  0  0  0  0
   16.9470   -7.7735   17.2917 C   0  0  0  0  0  0  0  0  0  0  0  0
   18.0681   -7.5561   16.5383 C   0  0  0  0  0  0  0  0  0  0  0  0
  1  2  1  0
  2  3  1  0
  3  4  1  1
  4  5  1  0
  5  6  1  0
  6  7  1  0
  7  8  1  0
  9  8  1  6
  9 10  1  0
 10 11  1  0
 11 12  1  0
 12 13  1  0
 13 14  2  0
 14 15  1  0
 15 16  2  0
 16 17  1  0
 16 18  1  0
 18 19  2  0
 12 20  1  0
  8 21  1  0
 21 22  1  0
  3 23  1  0
 23 24  2  0
 24 25  1  0
 25 26  2  0
 26 27  1  0
 27 28  2  0
 28 29  1  0
 29 30  1  0
 29 31  1  0
 31 32  2  0
 22  5  1  0
 32 23  1  0
 20  9  1  0
 32 27  1  0
 19 13  1  0
M  END
>  <energy_score>  (1184) 
-57.245026

>  <inchikey>  (1184) 
None

>  <smiles>  (1184) 
None

>  <ref_pdb>  (1184) 
A1105b

>  <alias>  (1184) 
None

>  <HIPPO Pose ID>  (1184) 
498828

>  <name>  (1184) 
P498828

>  <HIPPO Compound ID>  (1184) 
293514

>  <ref_mols>  (1184) 
A0497a,A1105b

>  <distance_score>  (1184) 
1.299222

>  <inspiration_score>  (1184) 
None

$$$$
P498829
     RDKit          3D

 32 36  0  0  0  0  0  0  0  0999 V2000
   23.0424   -5.8357   17.8005 C   0  0  0  0  0  0  0  0  0  0  0  0
   21.7412   -5.4541   17.3813 O   0  0  0  0  0  0  0  0  0  0  0  0
   20.7256   -6.3558   17.8185 C   0  0  1  0  0  0  0  0  0  0  0  0
   19.9834   -5.7451   18.9155 N   0  0  0  0  0  0  0  0  0  0  0  0
   19.0481   -4.6608   18.5562 C   0  0  0  0  0  0  0  0  0  0  0  0
   19.7243   -3.3118   18.2696 C   0  0  0  0  0  0  0  0  0  0  0  0
   19.3023   -2.2263   19.2535 C   0  0  0  0  0  0  0  0  0  0  0  0
   19.4725   -2.6252   20.6521 N   0  0  0  0  0  0  0  0  0  0  0  0
   20.8688   -2.7121   21.1448 C   0  0  1  0  0  0  0  0  0  0  0  0
   21.8113   -1.5607   20.7625 C   0  0  0  0  0  0  0  0  0  0  0  0
   21.4726   -0.4822   21.7783 C   0  0  0  0  0  0  0  0  0  0  0  0
   21.3355   -1.2473   23.0150 N   0  0  0  0  0  0  0  0  0  0  0  0
   20.8553   -0.5730   24.1197 C   0  0  0  0  0  0  0  0  0  0  0  0
   20.5330   -1.2424   25.3022 C   0  0  0  0  0  0  0  0  0  0  0  0
   20.0677   -0.5322   26.4120 C   0  0  0  0  0  0  0  0  0  0  0  0
   19.9384    0.8438   26.3237 C   0  0  0  0  0  0  0  0  0  0  0  0
   19.3574    1.7563   27.6549 Cl  0  0  0  0  0  0  0  0  0  0  0  0
   20.2959    1.4504   25.1359 C   0  0  0  0  0  0  0  0  0  0  0  0
   20.7571    0.7745   24.0557 N   0  0  0  0  0  0  0  0  0  0  0  0
   20.9167   -2.6213   22.7078 C   0  0  0  0  0  0  0  0  0  0  0  0
   18.7060   -3.8481   20.9567 C   0  0  0  0  0  0  0  0  0  0  0  0
   18.0789   -4.5304   19.7377 C   0  0  0  0  0  0  0  0  0  0  0  0
   19.9356   -6.9006   16.6493 C   0  0  0  0  0  0  0  0  0  0  0  0
   20.5089   -6.9719   15.3424 C   0  0  0  0  0  0  0  0  0  0  0  0
   19.8963   -7.5734   14.2005 C   0  0  0  0  0  0  0  0  0  0  0  0
   18.6226   -8.1677   14.2347 C   0  0  0  0  0  0  0  0  0  0  0  0
   18.0049   -8.1120   15.4932 C   0  0  0  0  0  0  0  0  0  0  0  0
   16.7970   -8.5753   15.8629 N   0  0  0  0  0  0  0  0  0  0  0  0
   16.6896   -8.2359   17.1620 N   0  0  0  0  0  0  0  0  0  0  0  0
   15.4511   -8.4896   17.8589 C   0  0  0  0  0  0  0  0  0  0  0  0
   17.8184   -7.6854   17.6900 C   0  0  0  0  0  0  0  0  0  0  0  0
   18.6702   -7.5127   16.6304 C   0  0  0  0  0  0  0  0  0  0  0  0
  1  2  1  0
  2  3  1  0
  3  4  1  1
  4  5  1  0
  5  6  1  0
  6  7  1  0
  7  8  1  0
  9  8  1  6
  9 10  1  0
 10 11  1  0
 11 12  1  0
 12 13  1  0
 13 14  2  0
 14 15  1  0
 15 16  2  0
 16 17  1  0
 16 18  1  0
 18 19  2  0
 12 20  1  0
  8 21  1  0
 21 22  1  0
  3 23  1  0
 23 24  2  0
 24 25  1  0
 25 26  2  0
 26 27  1  0
 27 28  2  0
 28 29  1  0
 29 30  1  0
 29 31  1  0
 31 32  2  0
 22  5  1  0
 32 23  1  0
 20  9  1  0
 32 27  1  0
 19 13  1  0
M  END
>  <energy_score>  (1185) 
-53.80103

>  <inchikey>  (1185) 
None

>  <smiles>  (1185) 
None

>  <ref_pdb>  (1185) 
A1105b

>  <alias>  (1185) 
None

>  <HIPPO Pose ID>  (1185) 
498829

>  <name>  (1185) 
P498829

>  <HIPPO Compound ID>  (1185) 
293514

>  <ref_mols>  (1185) 
A0497a,A1105b

>  <distance_score>  (1185) 
1.073716

>  <inspiration_score>  (1185) 
None

$$$$
P498830
     RDKit          3D

 32 36  0  0  0  0  0  0  0  0999 V2000
   16.8313   -9.4938   13.4010 C   0  0  0  0  0  0  0  0  0  0  0  0
   17.9214   -8.6281   13.1005 O   0  0  0  0  0  0  0  0  0  0  0  0
   18.6228   -8.2078   14.2149 C   0  0  0  0  0  0  0  0  0  0  0  0
   19.9741   -7.8722   14.0268 C   0  0  0  0  0  0  0  0  0  0  0  0
   20.8337   -7.4522   15.0855 C   0  0  0  0  0  0  0  0  0  0  0  0
   20.4477   -7.2720   16.4498 C   0  0  0  0  0  0  0  0  0  0  0  0
   21.4669   -6.9077   17.5160 C   0  0  2  0  0  0  0  0  0  0  0  0
   20.8918   -6.4380   18.7092 O   0  0  0  0  0  0  0  0  0  0  0  0
   22.5638   -6.0200   17.1307 N   0  0  0  0  0  0  0  0  0  0  0  0
   22.2802   -4.5960   16.8731 C   0  0  1  0  0  0  0  0  0  0  0  0
   20.9975   -4.2308   16.1355 C   0  0  0  0  0  0  0  0  0  0  0  0
   20.6986   -2.8158   16.5959 C   0  0  0  0  0  0  0  0  0  0  0  0
   21.1196   -2.7782   17.9940 N   0  0  0  0  0  0  0  0  0  0  0  0
   20.2116   -3.1322   18.9967 C   0  0  0  0  0  0  0  0  0  0  0  0
   19.0066   -3.7936   18.7681 C   0  0  0  0  0  0  0  0  0  0  0  0
   18.3600   -4.4306   19.8319 C   0  0  0  0  0  0  0  0  0  0  0  0
   18.8745   -4.3242   21.1198 C   0  0  0  0  0  0  0  0  0  0  0  0
   18.4174   -5.0479   22.2842 C   0  0  0  0  0  0  0  0  0  0  0  0
   18.5786   -4.7671   23.5596 N   0  0  0  0  0  0  0  0  0  0  0  0
   18.0831   -5.8808   24.1759 C   0  0  0  0  0  0  0  0  0  0  0  0
   18.0450   -6.0266   25.6423 C   0  0  0  0  0  0  0  0  0  0  0  0
   17.6274   -6.8280   23.3448 N   0  0  0  0  0  0  0  0  0  0  0  0
   17.8767   -6.2844   22.0767 O   0  0  0  0  0  0  0  0  0  0  0  0
   19.9751   -3.5056   21.2752 C   0  0  0  0  0  0  0  0  0  0  0  0
   20.6462   -2.9292   20.2588 N   0  0  0  0  0  0  0  0  0  0  0  0
   22.3162   -3.6454   18.1054 C   0  0  0  0  0  0  0  0  0  0  0  0
   19.0761   -7.5792   16.5855 C   0  0  0  0  0  0  0  0  0  0  0  0
   18.3327   -7.5351   17.7363 C   0  0  0  0  0  0  0  0  0  0  0  0
   17.0689   -7.8899   17.3723 N   0  0  0  0  0  0  0  0  0  0  0  0
   15.9090   -7.9393   18.2307 C   0  0  0  0  0  0  0  0  0  0  0  0
   16.9442   -8.2461   16.0827 N   0  0  0  0  0  0  0  0  0  0  0  0
   18.1623   -8.0339   15.5429 C   0  0  0  0  0  0  0  0  0  0  0  0
  1  2  1  0
  2  3  1  0
  3  4  2  0
  4  5  1  0
  5  6  2  0
  6  7  1  0
  7  8  1  1
  7  9  1  0
 10  9  1  1
 10 11  1  0
 11 12  1  0
 12 13  1  0
 13 14  1  0
 14 15  2  0
 15 16  1  0
 16 17  2  0
 17 18  1  0
 18 19  2  0
 19 20  1  0
 20 21  1  0
 20 22  2  0
 22 23  1  0
 17 24  1  0
 24 25  2  0
 13 26  1  0
  6 27  1  0
 27 28  2  0
 28 29  1  0
 29 30  1  0
 29 31  1  0
 31 32  2  0
 32  3  1  0
 26 10  1  0
 32 27  1  0
 25 14  1  0
 23 18  1  0
M  END
>  <energy_score>  (1186) 
-62.347123

>  <inchikey>  (1186) 
None

>  <smiles>  (1186) 
None

>  <ref_pdb>  (1186) 
A1105b

>  <alias>  (1186) 
None

>  <HIPPO Pose ID>  (1186) 
498830

>  <name>  (1186) 
P498830

>  <HIPPO Compound ID>  (1186) 
293516

>  <ref_mols>  (1186) 
A0497a,A1105b

>  <distance_score>  (1186) 
1.622731

>  <inspiration_score>  (1186) 
None

$$$$
P498831
     RDKit          3D

 32 36  0  0  0  0  0  0  0  0999 V2000
   18.1637   -2.1757   19.2891 C   0  0  0  0  0  0  0  0  0  0  0  0
   18.1384   -3.3369   18.4710 O   0  0  0  0  0  0  0  0  0  0  0  0
   17.4206   -4.3976   19.0855 C   0  0  2  0  0  0  0  0  0  0  0  0
   18.2747   -5.5070   19.3004 N   0  0  0  0  0  0  0  0  0  0  0  0
   19.4140   -5.4822   20.1901 C   0  0  2  0  0  0  0  0  0  0  0  0
   20.5275   -4.4630   19.9613 C   0  0  0  0  0  0  0  0  0  0  0  0
   21.1473   -4.8997   18.6384 C   0  0  0  0  0  0  0  0  0  0  0  0
   20.9558   -6.3692   18.6007 N   0  0  0  0  0  0  0  0  0  0  0  0
   20.4611   -6.7921   17.3522 C   0  0  0  0  0  0  0  0  0  0  0  0
   21.2013   -6.4749   16.2164 C   0  0  0  0  0  0  0  0  0  0  0  0
   20.7497   -6.8268   14.9516 C   0  0  0  0  0  0  0  0  0  0  0  0
   19.5531   -7.5144   14.8205 C   0  0  0  0  0  0  0  0  0  0  0  0
   19.0269   -7.9440   13.5414 C   0  0  0  0  0  0  0  0  0  0  0  0
   17.9260   -8.6084   13.2541 N   0  0  0  0  0  0  0  0  0  0  0  0
   17.9796   -8.6913   11.8868 C   0  0  0  0  0  0  0  0  0  0  0  0
   16.9213   -9.3354   11.0862 C   0  0  0  0  0  0  0  0  0  0  0  0
   19.0510   -8.1162   11.3272 N   0  0  0  0  0  0  0  0  0  0  0  0
   19.7607   -7.6306   12.4279 O   0  0  0  0  0  0  0  0  0  0  0  0
   18.8675   -7.7919   15.9923 C   0  0  0  0  0  0  0  0  0  0  0  0
   19.3029   -7.4669   17.2376 N   0  0  0  0  0  0  0  0  0  0  0  0
   20.2034   -6.7595   19.8133 C   0  0  0  0  0  0  0  0  0  0  0  0
   16.2095   -4.8416   18.2507 C   0  0  0  0  0  0  0  0  0  0  0  0
   15.3237   -3.8045   17.8286 C   0  0  0  0  0  0  0  0  0  0  0  0
   14.0907   -3.9877   17.1627 C   0  0  0  0  0  0  0  0  0  0  0  0
   13.5917   -5.2412   16.8344 C   0  0  0  0  0  0  0  0  0  0  0  0
   14.3993   -6.3174   17.1961 C   0  0  0  0  0  0  0  0  0  0  0  0
   14.1568   -7.6107   16.9504 N   0  0  0  0  0  0  0  0  0  0  0  0
   15.1434   -8.2464   17.5815 N   0  0  0  0  0  0  0  0  0  0  0  0
   15.1689   -9.6904   17.5118 C   0  0  0  0  0  0  0  0  0  0  0  0
   15.9710   -7.4302   18.3195 C   0  0  0  0  0  0  0  0  0  0  0  0
   16.8382   -8.0604   19.3468 C   0  0  0  0  0  0  0  0  0  0  0  0
   15.6587   -6.1342   17.9152 C   0  0  0  0  0  0  0  0  0  0  0  0
  1  2  1  0
  2  3  1  0
  3  4  1  6
  5  4  1  6
  5  6  1  0
  6  7  1  0
  7  8  1  0
  8  9  1  0
  9 10  2  0
 10 11  1  0
 11 12  2  0
 12 13  1  0
 13 14  2  0
 14 15  1  0
 15 16  1  0
 15 17  2  0
 17 18  1  0
 12 19  1  0
 19 20  2  0
  8 21  1  0
  3 22  1  0
 22 23  2  0
 23 24  1  0
 24 25  2  0
 25 26  1  0
 26 27  2  0
 27 28  1  0
 28 29  1  0
 28 30  1  0
 30 31  1  0
 30 32  2  0
 21  5  1  0
 32 22  1  0
 20  9  1  0
 32 26  1  0
 18 13  1  0
M  END
>  <energy_score>  (1187) 
-46.884736

>  <inchikey>  (1187) 
None

>  <smiles>  (1187) 
None

>  <ref_pdb>  (1187) 
A1105b

>  <alias>  (1187) 
None

>  <HIPPO Pose ID>  (1187) 
498831

>  <name>  (1187) 
P498831

>  <HIPPO Compound ID>  (1187) 
293517

>  <ref_mols>  (1187) 
A0497a,A1105b

>  <distance_score>  (1187) 
1.922494

>  <inspiration_score>  (1187) 
None

$$$$
P498832
     RDKit          3D

 32 36  0  0  0  0  0  0  0  0999 V2000
   18.6058   -2.8926   17.8019 C   0  0  0  0  0  0  0  0  0  0  0  0
   18.5094   -4.2776   18.0361 O   0  0  0  0  0  0  0  0  0  0  0  0
   17.4999   -4.6617   18.9394 C   0  0  2  0  0  0  0  0  0  0  0  0
   17.9829   -5.7745   19.6986 N   0  0  0  0  0  0  0  0  0  0  0  0
   19.0985   -5.6358   20.6222 C   0  0  2  0  0  0  0  0  0  0  0  0
   20.0803   -4.4706   20.5198 C   0  0  0  0  0  0  0  0  0  0  0  0
   21.0782   -4.8746   19.4274 C   0  0  0  0  0  0  0  0  0  0  0  0
   20.8824   -6.3261   19.2149 N   0  0  0  0  0  0  0  0  0  0  0  0
   20.4950   -6.6542   17.9002 C   0  0  0  0  0  0  0  0  0  0  0  0
   21.2780   -6.1975   16.8406 C   0  0  0  0  0  0  0  0  0  0  0  0
   20.9566   -6.5074   15.5238 C   0  0  0  0  0  0  0  0  0  0  0  0
   19.8487   -7.2938   15.2588 C   0  0  0  0  0  0  0  0  0  0  0  0
   19.5296   -7.6898   13.9040 C   0  0  0  0  0  0  0  0  0  0  0  0
   20.2213   -7.5452   12.7914 N   0  0  0  0  0  0  0  0  0  0  0  0
   19.4087   -8.1409   11.8636 C   0  0  0  0  0  0  0  0  0  0  0  0
   19.7685   -8.2307   10.4365 C   0  0  0  0  0  0  0  0  0  0  0  0
   18.2527   -8.6173   12.3427 N   0  0  0  0  0  0  0  0  0  0  0  0
   18.3370   -8.3303   13.7095 O   0  0  0  0  0  0  0  0  0  0  0  0
   19.1097   -7.7060   16.3571 C   0  0  0  0  0  0  0  0  0  0  0  0
   19.4202   -7.4293   17.6523 N   0  0  0  0  0  0  0  0  0  0  0  0
   20.0460   -6.8184   20.3206 C   0  0  0  0  0  0  0  0  0  0  0  0
   16.2189   -5.0535   18.1975 C   0  0  0  0  0  0  0  0  0  0  0  0
   15.3692   -3.9551   17.8430 C   0  0  0  0  0  0  0  0  0  0  0  0
   14.1145   -4.0540   17.2069 C   0  0  0  0  0  0  0  0  0  0  0  0
   13.5638   -5.2720   16.8340 C   0  0  0  0  0  0  0  0  0  0  0  0
   14.3278   -6.3997   17.1351 C   0  0  0  0  0  0  0  0  0  0  0  0
   14.0271   -7.6672   16.8285 N   0  0  0  0  0  0  0  0  0  0  0  0
   14.9930   -8.3757   17.4128 N   0  0  0  0  0  0  0  0  0  0  0  0
   14.9567   -9.8136   17.2615 C   0  0  0  0  0  0  0  0  0  0  0  0
   15.8606   -7.6339   18.1846 C   0  0  0  0  0  0  0  0  0  0  0  0
   16.6822   -8.3484   19.1986 C   0  0  0  0  0  0  0  0  0  0  0  0
   15.6080   -6.3076   17.8345 C   0  0  0  0  0  0  0  0  0  0  0  0
  1  2  1  0
  2  3  1  0
  3  4  1  6
  5  4  1  6
  5  6  1  0
  6  7  1  0
  7  8  1  0
  8  9  1  0
  9 10  2  0
 10 11  1  0
 11 12  2  0
 12 13  1  0
 13 14  2  0
 14 15  1  0
 15 16  1  0
 15 17  2  0
 17 18  1  0
 12 19  1  0
 19 20  2  0
  8 21  1  0
  3 22  1  0
 22 23  2  0
 23 24  1  0
 24 25  2  0
 25 26  1  0
 26 27  2  0
 27 28  1  0
 28 29  1  0
 28 30  1  0
 30 31  1  0
 30 32  2  0
 21  5  1  0
 32 22  1  0
 20  9  1  0
 32 26  1  0
 18 13  1  0
M  END
>  <energy_score>  (1188) 
-46.810145

>  <inchikey>  (1188) 
None

>  <smiles>  (1188) 
None

>  <ref_pdb>  (1188) 
A1105b

>  <alias>  (1188) 
None

>  <HIPPO Pose ID>  (1188) 
498832

>  <name>  (1188) 
P498832

>  <HIPPO Compound ID>  (1188) 
293517

>  <ref_mols>  (1188) 
A0497a,A1105b

>  <distance_score>  (1188) 
1.888295

>  <inspiration_score>  (1188) 
None

$$$$
P498833
     RDKit          3D

 32 36  0  0  0  0  0  0  0  0999 V2000
   18.7534   -2.4606   18.4095 C   0  0  0  0  0  0  0  0  0  0  0  0
   17.8160   -3.2674   19.0876 O   0  0  0  0  0  0  0  0  0  0  0  0
   17.8474   -4.6484   18.7272 C   0  0  1  0  0  0  0  0  0  0  0  0
   18.3166   -5.3176   19.9276 N   0  0  0  0  0  0  0  0  0  0  0  0
   19.7072   -4.9788   20.2973 C   0  0  1  0  0  0  0  0  0  0  0  0
   20.2276   -6.0367   21.2575 C   0  0  0  0  0  0  0  0  0  0  0  0
   20.7541   -7.1577   20.3414 C   0  0  0  0  0  0  0  0  0  0  0  0
   21.1149   -6.5024   19.0637 N   0  0  0  0  0  0  0  0  0  0  0  0
   20.4903   -7.0209   17.9088 C   0  0  0  0  0  0  0  0  0  0  0  0
   20.7900   -6.4692   16.6568 C   0  0  0  0  0  0  0  0  0  0  0  0
   20.0583   -6.8446   15.5320 C   0  0  0  0  0  0  0  0  0  0  0  0
   19.0598   -7.8025   15.6550 C   0  0  0  0  0  0  0  0  0  0  0  0
   18.2421   -8.2750   14.5633 C   0  0  0  0  0  0  0  0  0  0  0  0
   17.1702   -9.0386   14.5830 N   0  0  0  0  0  0  0  0  0  0  0  0
   16.8772   -9.1599   13.2509 C   0  0  0  0  0  0  0  0  0  0  0  0
   15.7017   -9.9041   12.7640 C   0  0  0  0  0  0  0  0  0  0  0  0
   17.7259   -8.5366   12.4228 N   0  0  0  0  0  0  0  0  0  0  0  0
   18.6521   -7.9608   13.3001 O   0  0  0  0  0  0  0  0  0  0  0  0
   18.8861   -8.3577   16.9045 C   0  0  0  0  0  0  0  0  0  0  0  0
   19.5787   -8.0058   18.0086 N   0  0  0  0  0  0  0  0  0  0  0  0
   20.8230   -5.0663   19.2225 C   0  0  0  0  0  0  0  0  0  0  0  0
   16.4482   -5.0645   18.2413 C   0  0  0  0  0  0  0  0  0  0  0  0
   15.5514   -4.0148   17.8260 C   0  0  0  0  0  0  0  0  0  0  0  0
   14.2690   -4.1696   17.2410 C   0  0  0  0  0  0  0  0  0  0  0  0
   13.7316   -5.4173   16.9539 C   0  0  0  0  0  0  0  0  0  0  0  0
   14.5195   -6.5006   17.3500 C   0  0  0  0  0  0  0  0  0  0  0  0
   14.2262   -7.7972   17.1948 N   0  0  0  0  0  0  0  0  0  0  0  0
   15.1671   -8.4278   17.9006 N   0  0  0  0  0  0  0  0  0  0  0  0
   15.0560   -9.8623   18.0448 C   0  0  0  0  0  0  0  0  0  0  0  0
   16.0936   -7.6010   18.4986 C   0  0  0  0  0  0  0  0  0  0  0  0
   16.9784   -8.1619   19.5511 C   0  0  0  0  0  0  0  0  0  0  0  0
   15.8200   -6.3303   18.0070 C   0  0  0  0  0  0  0  0  0  0  0  0
  1  2  1  0
  2  3  1  0
  3  4  1  1
  5  4  1  6
  5  6  1  0
  6  7  1  0
  7  8  1  0
  8  9  1  0
  9 10  2  0
 10 11  1  0
 11 12  2  0
 12 13  1  0
 13 14  2  0
 14 15  1  0
 15 16  1  0
 15 17  2  0
 17 18  1  0
 12 19  1  0
 19 20  2  0
  8 21  1  0
  3 22  1  0
 22 23  2  0
 23 24  1  0
 24 25  2  0
 25 26  1  0
 26 27  2  0
 27 28  1  0
 28 29  1  0
 28 30  1  0
 30 31  1  0
 30 32  2  0
 21  5  1  0
 32 22  1  0
 20  9  1  0
 32 26  1  0
 18 13  1  0
M  END
>  <energy_score>  (1189) 
-48.784989

>  <inchikey>  (1189) 
None

>  <smiles>  (1189) 
None

>  <ref_pdb>  (1189) 
A1105b

>  <alias>  (1189) 
None

>  <HIPPO Pose ID>  (1189) 
498833

>  <name>  (1189) 
P498833

>  <HIPPO Compound ID>  (1189) 
293517

>  <ref_mols>  (1189) 
A0497a,A1105b

>  <distance_score>  (1189) 
1.658872

>  <inspiration_score>  (1189) 
None

$$$$
P498834
     RDKit          3D

 32 36  0  0  0  0  0  0  0  0999 V2000
   15.2387   -4.9166   17.7522 C   0  0  0  0  0  0  0  0  0  0  0  0
   16.4659   -4.5903   17.1394 O   0  0  0  0  0  0  0  0  0  0  0  0
   17.6796   -5.1616   17.6225 C   0  0  1  0  0  0  0  0  0  0  0  0
   17.8933   -5.1036   19.0699 N   0  0  0  0  0  0  0  0  0  0  0  0
   17.8685   -3.7477   19.6594 C   0  0  0  0  0  0  0  0  0  0  0  0
   18.4347   -3.8911   21.0923 C   0  0  0  0  0  0  0  0  0  0  0  0
   19.0369   -2.5863   21.6121 C   0  0  0  0  0  0  0  0  0  0  0  0
   20.1188   -2.0531   20.7691 N   0  0  0  0  0  0  0  0  0  0  0  0
   21.4721   -2.2121   21.3238 C   0  0  2  0  0  0  0  0  0  0  0  0
   21.6977   -1.4302   22.6247 C   0  0  0  0  0  0  0  0  0  0  0  0
   23.2214   -1.3820   22.7645 C   0  0  0  0  0  0  0  0  0  0  0  0
   23.7123   -1.4310   21.3933 N   0  0  0  0  0  0  0  0  0  0  0  0
   24.9438   -0.9269   21.0700 C   0  0  0  0  0  0  0  0  0  0  0  0
   25.3801   -0.8311   19.7463 C   0  0  0  0  0  0  0  0  0  0  0  0
   26.6530   -0.3335   19.4516 C   0  0  0  0  0  0  0  0  0  0  0  0
   27.4752    0.0647   20.4896 C   0  0  0  0  0  0  0  0  0  0  0  0
   29.0413    0.6909   20.1846 Cl  0  0  0  0  0  0  0  0  0  0  0  0
   26.9904   -0.0585   21.7767 C   0  0  0  0  0  0  0  0  0  0  0  0
   25.7586   -0.5401   22.0795 N   0  0  0  0  0  0  0  0  0  0  0  0
   22.6231   -1.6427   20.4486 C   0  0  0  0  0  0  0  0  0  0  0  0
   20.0318   -2.4807   19.3638 C   0  0  0  0  0  0  0  0  0  0  0  0
   18.5825   -2.6014   18.9236 C   0  0  0  0  0  0  0  0  0  0  0  0
   18.0068   -6.5509   17.0514 C   0  0  0  0  0  0  0  0  0  0  0  0
   19.0182   -6.6438   16.0544 C   0  0  0  0  0  0  0  0  0  0  0  0
   19.3743   -7.8393   15.4331 C   0  0  0  0  0  0  0  0  0  0  0  0
   18.7502   -9.0277   15.7874 C   0  0  0  0  0  0  0  0  0  0  0  0
   17.7909   -8.9658   16.8052 C   0  0  0  0  0  0  0  0  0  0  0  0
   17.4258   -7.7782   17.4450 C   0  0  0  0  0  0  0  0  0  0  0  0
   16.4941   -8.1974   18.4234 C   0  0  0  0  0  0  0  0  0  0  0  0
   16.2572   -9.5106   18.4014 N   0  0  0  0  0  0  0  0  0  0  0  0
   17.0293   -9.9458   17.3931 N   0  0  0  0  0  0  0  0  0  0  0  0
   17.0270  -11.3495   17.0584 C   0  0  0  0  0  0  0  0  0  0  0  0
  1  2  1  0
  2  3  1  0
  3  4  1  1
  4  5  1  0
  5  6  1  0
  6  7  1  0
  7  8  1  0
  9  8  1  6
  9 10  1  0
 10 11  1  0
 11 12  1  0
 12 13  1  0
 13 14  2  0
 14 15  1  0
 15 16  2  0
 16 17  1  0
 16 18  1  0
 18 19  2  0
 12 20  1  0
  8 21  1  0
 21 22  1  0
  3 23  1  0
 23 24  2  0
 24 25  1  0
 25 26  2  0
 26 27  1  0
 27 28  2  0
 28 29  1  0
 29 30  2  0
 30 31  1  0
 31 32  1  0
 22  5  1  0
 28 23  1  0
 20  9  1  0
 31 27  1  0
 19 13  1  0
M  END
>  <energy_score>  (1190) 
-47.105797

>  <inchikey>  (1190) 
None

>  <smiles>  (1190) 
None

>  <ref_pdb>  (1190) 
A1105b

>  <alias>  (1190) 
None

>  <HIPPO Pose ID>  (1190) 
498834

>  <name>  (1190) 
P498834

>  <HIPPO Compound ID>  (1190) 
293518

>  <ref_mols>  (1190) 
A0497a,A1105b

>  <distance_score>  (1190) 
1.8581

>  <inspiration_score>  (1190) 
None

$$$$
P498835
     RDKit          3D

 32 36  0  0  0  0  0  0  0  0999 V2000
   21.8542   -6.0789   17.8611 C   0  0  0  0  0  0  0  0  0  0  0  0
   20.7543   -5.2910   17.4222 O   0  0  0  0  0  0  0  0  0  0  0  0
   19.4972   -5.9366   17.5711 C   0  0  1  0  0  0  0  0  0  0  0  0
   18.4143   -4.9766   17.5698 N   0  0  0  0  0  0  0  0  0  0  0  0
   18.2658   -3.9900   18.6387 C   0  0  0  0  0  0  0  0  0  0  0  0
   19.0129   -2.6780   18.4016 C   0  0  0  0  0  0  0  0  0  0  0  0
   20.4013   -2.6002   19.0255 C   0  0  0  0  0  0  0  0  0  0  0  0
   20.3994   -2.9568   20.4573 N   0  0  0  0  0  0  0  0  0  0  0  0
   21.7673   -2.8537   21.0192 C   0  0  2  0  0  0  0  0  0  0  0  0
   21.7988   -2.9547   22.5485 C   0  0  0  0  0  0  0  0  0  0  0  0
   23.2119   -2.4899   22.8887 C   0  0  0  0  0  0  0  0  0  0  0  0
   23.4906   -1.4439   21.9119 N   0  0  0  0  0  0  0  0  0  0  0  0
   24.7818   -1.0192   21.6699 C   0  0  0  0  0  0  0  0  0  0  0  0
   25.7415   -1.0054   22.6864 C   0  0  0  0  0  0  0  0  0  0  0  0
   27.0433   -0.5648   22.4303 C   0  0  0  0  0  0  0  0  0  0  0  0
   27.3692   -0.1388   21.1549 C   0  0  0  0  0  0  0  0  0  0  0  0
   28.9513    0.4083   20.7861 Cl  0  0  0  0  0  0  0  0  0  0  0  0
   26.3772   -0.1651   20.1956 C   0  0  0  0  0  0  0  0  0  0  0  0
   25.1078   -0.5801   20.4336 N   0  0  0  0  0  0  0  0  0  0  0  0
   22.5285   -1.5134   20.7988 C   0  0  0  0  0  0  0  0  0  0  0  0
   19.8563   -4.3132   20.6346 C   0  0  0  0  0  0  0  0  0  0  0  0
   18.4411   -4.4651   20.0838 C   0  0  0  0  0  0  0  0  0  0  0  0
   19.2421   -6.9378   16.4465 C   0  0  0  0  0  0  0  0  0  0  0  0
   19.9956   -6.9242   15.2487 C   0  0  0  0  0  0  0  0  0  0  0  0
   19.7770   -7.8431   14.2212 C   0  0  0  0  0  0  0  0  0  0  0  0
   18.7748   -8.8070   14.3226 C   0  0  0  0  0  0  0  0  0  0  0  0
   17.9947   -8.7983   15.4849 C   0  0  0  0  0  0  0  0  0  0  0  0
   18.2014   -7.8943   16.5240 C   0  0  0  0  0  0  0  0  0  0  0  0
   17.1854   -8.1993   17.4612 C   0  0  0  0  0  0  0  0  0  0  0  0
   16.4255   -9.2311   17.0872 N   0  0  0  0  0  0  0  0  0  0  0  0
   16.9301   -9.5682   15.8861 N   0  0  0  0  0  0  0  0  0  0  0  0
   16.3287  -10.6510   15.1458 C   0  0  0  0  0  0  0  0  0  0  0  0
  1  2  1  0
  2  3  1  0
  3  4  1  6
  4  5  1  0
  5  6  1  0
  6  7  1  0
  7  8  1  0
  9  8  1  1
  9 10  1  0
 10 11  1  0
 11 12  1  0
 12 13  1  0
 13 14  2  0
 14 15  1  0
 15 16  2  0
 16 17  1  0
 16 18  1  0
 18 19  2  0
 12 20  1  0
  8 21  1  0
 21 22  1  0
  3 23  1  0
 23 24  2  0
 24 25  1  0
 25 26  2  0
 26 27  1  0
 27 28  2  0
 28 29  1  0
 29 30  2  0
 30 31  1  0
 31 32  1  0
 22  5  1  0
 28 23  1  0
 20  9  1  0
 31 27  1  0
 19 13  1  0
M  END
>  <energy_score>  (1191) 
-52.892042

>  <inchikey>  (1191) 
None

>  <smiles>  (1191) 
None

>  <ref_pdb>  (1191) 
A1105b

>  <alias>  (1191) 
None

>  <HIPPO Pose ID>  (1191) 
498835

>  <name>  (1191) 
P498835

>  <HIPPO Compound ID>  (1191) 
293518

>  <ref_mols>  (1191) 
A0497a,A1105b

>  <distance_score>  (1191) 
1.285729

>  <inspiration_score>  (1191) 
None

$$$$
P498836
     RDKit          3D

 32 36  0  0  0  0  0  0  0  0999 V2000
   22.5993   -4.3437   16.8597 C   0  0  0  0  0  0  0  0  0  0  0  0
   21.8904   -5.5756   16.8813 O   0  0  0  0  0  0  0  0  0  0  0  0
   20.4678   -5.3844   16.9276 C   0  0  2  0  0  0  0  0  0  0  0  0
   20.1024   -5.3695   18.3310 N   0  0  0  0  0  0  0  0  0  0  0  0
   18.9618   -4.5148   18.6725 C   0  0  0  0  0  0  0  0  0  0  0  0
   19.3102   -3.0251   18.5108 C   0  0  0  0  0  0  0  0  0  0  0  0
   18.6354   -2.1640   19.5752 C   0  0  0  0  0  0  0  0  0  0  0  0
   18.9782   -2.5570   20.9482 N   0  0  0  0  0  0  0  0  0  0  0  0
   19.8673   -1.6586   21.6872 C   0  0  1  0  0  0  0  0  0  0  0  0
   21.1645   -1.2061   21.0136 C   0  0  0  0  0  0  0  0  0  0  0  0
   21.6148   -0.0711   21.9349 C   0  0  0  0  0  0  0  0  0  0  0  0
   20.3635    0.5857   22.3223 N   0  0  0  0  0  0  0  0  0  0  0  0
   20.3898    1.4758   23.3753 C   0  0  0  0  0  0  0  0  0  0  0  0
   19.2148    2.0338   23.8879 C   0  0  0  0  0  0  0  0  0  0  0  0
   19.2653    2.9448   24.9462 C   0  0  0  0  0  0  0  0  0  0  0  0
   20.4972    3.2963   25.4695 C   0  0  0  0  0  0  0  0  0  0  0  0
   20.6169    4.4135   26.7644 Cl  0  0  0  0  0  0  0  0  0  0  0  0
   21.6232    2.7263   24.9081 C   0  0  0  0  0  0  0  0  0  0  0  0
   21.5904    1.8412   23.8810 N   0  0  0  0  0  0  0  0  0  0  0  0
   19.2243   -0.3150   22.1068 C   0  0  0  0  0  0  0  0  0  0  0  0
   19.3589   -3.9646   21.0944 C   0  0  0  0  0  0  0  0  0  0  0  0
   18.5659   -4.8229   20.1223 C   0  0  0  0  0  0  0  0  0  0  0  0
   19.8484   -6.5125   16.0909 C   0  0  0  0  0  0  0  0  0  0  0  0
   20.4833   -6.7853   14.8457 C   0  0  0  0  0  0  0  0  0  0  0  0
   20.0221   -7.7430   13.9482 C   0  0  0  0  0  0  0  0  0  0  0  0
   18.8749   -8.4733   14.2271 C   0  0  0  0  0  0  0  0  0  0  0  0
   18.2212   -8.2122   15.4367 C   0  0  0  0  0  0  0  0  0  0  0  0
   18.6745   -7.2704   16.3668 C   0  0  0  0  0  0  0  0  0  0  0  0
   17.7206   -7.3756   17.4127 C   0  0  0  0  0  0  0  0  0  0  0  0
   16.7607   -8.2724   17.1834 N   0  0  0  0  0  0  0  0  0  0  0  0
   17.0788   -8.7535   15.9748 N   0  0  0  0  0  0  0  0  0  0  0  0
   16.2491   -9.7741   15.3812 C   0  0  0  0  0  0  0  0  0  0  0  0
  1  2  1  0
  2  3  1  0
  3  4  1  1
  4  5  1  0
  5  6  1  0
  6  7  1  0
  7  8  1  0
  9  8  1  6
  9 10  1  0
 10 11  1  0
 11 12  1  0
 12 13  1  0
 13 14  2  0
 14 15  1  0
 15 16  2  0
 16 17  1  0
 16 18  1  0
 18 19  2  0
 12 20  1  0
  8 21  1  0
 21 22  1  0
  3 23  1  0
 23 24  2  0
 24 25  1  0
 25 26  2  0
 26 27  1  0
 27 28  2  0
 28 29  1  0
 29 30  2  0
 30 31  1  0
 31 32  1  0
 22  5  1  0
 28 23  1  0
 20  9  1  0
 31 27  1  0
 19 13  1  0
M  END
>  <energy_score>  (1192) 
-44.776502

>  <inchikey>  (1192) 
None

>  <smiles>  (1192) 
None

>  <ref_pdb>  (1192) 
A1105b

>  <alias>  (1192) 
None

>  <HIPPO Pose ID>  (1192) 
498836

>  <name>  (1192) 
P498836

>  <HIPPO Compound ID>  (1192) 
293518

>  <ref_mols>  (1192) 
A0497a,A1105b

>  <distance_score>  (1192) 
1.033461

>  <inspiration_score>  (1192) 
None

$$$$
P498837
     RDKit          3D

 32 36  0  0  0  0  0  0  0  0999 V2000
   22.0334   -4.6664   17.4960 C   0  0  0  0  0  0  0  0  0  0  0  0
   20.7199   -4.3604   17.0492 O   0  0  0  0  0  0  0  0  0  0  0  0
   19.7482   -5.3326   17.4184 C   0  0  1  0  0  0  0  0  0  0  0  0
   18.4968   -4.6614   17.6821 N   0  0  0  0  0  0  0  0  0  0  0  0
   18.1177   -4.1651   18.9945 C   0  0  0  0  0  0  0  0  0  0  0  0
   18.4626   -5.0564   20.1963 C   0  0  0  0  0  0  0  0  0  0  0  0
   19.8553   -4.8157   20.7646 C   0  0  0  0  0  0  0  0  0  0  0  0
   20.1302   -3.4141   21.0902 N   0  0  0  0  0  0  0  0  0  0  0  0
   19.5207   -2.9782   22.3636 C   0  0  1  0  0  0  0  0  0  0  0  0
   20.0656   -3.7951   23.5504 C   0  0  0  0  0  0  0  0  0  0  0  0
   19.7216   -2.9581   24.7705 C   0  0  0  0  0  0  0  0  0  0  0  0
   19.8289   -1.5914   24.2927 N   0  0  0  0  0  0  0  0  0  0  0  0
   19.5972   -0.5575   25.1579 C   0  0  0  0  0  0  0  0  0  0  0  0
   19.5095    0.7649   24.7299 C   0  0  0  0  0  0  0  0  0  0  0  0
   19.2415    1.7854   25.6466 C   0  0  0  0  0  0  0  0  0  0  0  0
   19.1024    1.4776   26.9871 C   0  0  0  0  0  0  0  0  0  0  0  0
   18.7885    2.6906   28.1588 Cl  0  0  0  0  0  0  0  0  0  0  0  0
   19.2142    0.1519   27.3510 C   0  0  0  0  0  0  0  0  0  0  0  0
   19.4365   -0.8575   26.4731 N   0  0  0  0  0  0  0  0  0  0  0  0
   19.8302   -1.5255   22.8315 C   0  0  0  0  0  0  0  0  0  0  0  0
   19.8782   -2.5544   19.9240 C   0  0  0  0  0  0  0  0  0  0  0  0
   18.5069   -2.7140   19.2767 C   0  0  0  0  0  0  0  0  0  0  0  0
   19.5222   -6.3812   16.3274 C   0  0  0  0  0  0  0  0  0  0  0  0
   20.3932   -6.5174   15.2212 C   0  0  0  0  0  0  0  0  0  0  0  0
   20.2062   -7.4947   14.2417 C   0  0  0  0  0  0  0  0  0  0  0  0
   19.1335   -8.3827   14.3073 C   0  0  0  0  0  0  0  0  0  0  0  0
   18.2585   -8.2502   15.3905 C   0  0  0  0  0  0  0  0  0  0  0  0
   18.4303   -7.2896   16.3831 C   0  0  0  0  0  0  0  0  0  0  0  0
   17.3263   -7.4925   17.2501 C   0  0  0  0  0  0  0  0  0  0  0  0
   16.5378   -8.5003   16.8721 N   0  0  0  0  0  0  0  0  0  0  0  0
   17.1190   -8.9331   15.7401 N   0  0  0  0  0  0  0  0  0  0  0  0
   16.5247  -10.0301   15.0152 C   0  0  0  0  0  0  0  0  0  0  0  0
  1  2  1  0
  2  3  1  0
  3  4  1  6
  4  5  1  0
  5  6  1  0
  6  7  1  0
  7  8  1  0
  9  8  1  6
  9 10  1  0
 10 11  1  0
 11 12  1  0
 12 13  1  0
 13 14  2  0
 14 15  1  0
 15 16  2  0
 16 17  1  0
 16 18  1  0
 18 19  2  0
 12 20  1  0
  8 21  1  0
 21 22  1  0
  3 23  1  0
 23 24  2  0
 24 25  1  0
 25 26  2  0
 26 27  1  0
 27 28  2  0
 28 29  1  0
 29 30  2  0
 30 31  1  0
 31 32  1  0
 22  5  1  0
 28 23  1  0
 20  9  1  0
 31 27  1  0
 19 13  1  0
M  END
>  <energy_score>  (1193) 
-49.75306

>  <inchikey>  (1193) 
None

>  <smiles>  (1193) 
None

>  <ref_pdb>  (1193) 
A1105b

>  <alias>  (1193) 
None

>  <HIPPO Pose ID>  (1193) 
498837

>  <name>  (1193) 
P498837

>  <HIPPO Compound ID>  (1193) 
293518

>  <ref_mols>  (1193) 
A0497a,A1105b

>  <distance_score>  (1193) 
1.204914

>  <inspiration_score>  (1193) 
None

$$$$
P498838
     RDKit          3D

 32 36  0  0  0  0  0  0  0  0999 V2000
   19.0976   -7.8826   19.1476 C   0  0  0  0  0  0  0  0  0  0  0  0
   18.8594   -8.2126   17.7258 C   0  0  0  0  0  0  0  0  0  0  0  0
   19.4812   -7.9111   16.5311 C   0  0  0  0  0  0  0  0  0  0  0  0
   20.7537   -7.3366   16.3052 C   0  0  0  0  0  0  0  0  0  0  0  0
   21.9044   -7.1509   17.2655 C   0  0  1  0  0  0  0  0  0  0  0  0
   22.9854   -7.9437   16.8099 O   0  0  0  0  0  0  0  0  0  0  0  0
   22.4447   -5.7999   17.3453 N   0  0  0  0  0  0  0  0  0  0  0  0
   21.5929   -4.9308   18.1576 C   0  0  0  0  0  0  0  0  0  0  0  0
   21.7998   -5.1349   19.6592 C   0  0  0  0  0  0  0  0  0  0  0  0
   20.7703   -4.3233   20.4566 C   0  0  0  0  0  0  0  0  0  0  0  0
   20.2124   -3.1666   19.7521 N   0  0  0  0  0  0  0  0  0  0  0  0
   18.9821   -3.3698   18.9728 C   0  0  2  0  0  0  0  0  0  0  0  0
   17.9821   -2.2879   19.3637 C   0  0  0  0  0  0  0  0  0  0  0  0
   16.7589   -2.7634   18.6033 C   0  0  0  0  0  0  0  0  0  0  0  0
   16.7390   -4.1782   18.8282 N   0  0  0  0  0  0  0  0  0  0  0  0
   15.8527   -4.9659   18.1210 C   0  0  0  0  0  0  0  0  0  0  0  0
   14.6543   -4.4495   17.6171 C   0  0  0  0  0  0  0  0  0  0  0  0
   13.7196   -5.2949   17.0241 C   0  0  0  0  0  0  0  0  0  0  0  0
   13.9836   -6.6458   16.9603 C   0  0  0  0  0  0  0  0  0  0  0  0
   12.9616   -7.7855   16.1880 Cl  0  0  0  0  0  0  0  0  0  0  0  0
   15.1691   -7.0799   17.4946 C   0  0  0  0  0  0  0  0  0  0  0  0
   16.1040   -6.2872   18.0634 N   0  0  0  0  0  0  0  0  0  0  0  0
   18.1025   -4.6529   19.0632 C   0  0  0  0  0  0  0  0  0  0  0  0
   21.2600   -2.5264   18.9338 C   0  0  0  0  0  0  0  0  0  0  0  0
   21.8323   -3.4446   17.8347 C   0  0  0  0  0  0  0  0  0  0  0  0
   20.9545   -7.1274   14.9066 C   0  0  0  0  0  0  0  0  0  0  0  0
   20.0372   -7.4900   13.8798 C   0  0  0  0  0  0  0  0  0  0  0  0
   18.8103   -8.1218   14.1354 C   0  0  0  0  0  0  0  0  0  0  0  0
   18.5527   -8.3417   15.4955 C   0  0  0  0  0  0  0  0  0  0  0  0
   17.5241   -9.0042   16.0469 N   0  0  0  0  0  0  0  0  0  0  0  0
   17.8108   -9.0214   17.3602 N   0  0  0  0  0  0  0  0  0  0  0  0
   17.0941   -9.9352   18.2255 C   0  0  0  0  0  0  0  0  0  0  0  0
  1  2  1  0
  2  3  2  0
  3  4  1  0
  4  5  1  0
  5  6  1  6
  5  7  1  0
  7  8  1  0
  8  9  1  0
  9 10  1  0
 10 11  1  0
 12 11  1  1
 12 13  1  0
 13 14  1  0
 14 15  1  0
 15 16  1  0
 16 17  2  0
 17 18  1  0
 18 19  2  0
 19 20  1  0
 19 21  1  0
 21 22  2  0
 15 23  1  0
 11 24  1  0
 24 25  1  0
  4 26  2  0
 26 27  1  0
 27 28  2  0
 28 29  1  0
 29 30  2  0
 30 31  1  0
 31 32  1  0
 31  2  1  0
 29  3  1  0
 25  8  1  0
 23 12  1  0
 22 16  1  0
M  END
>  <energy_score>  (1194) 
-42.931513

>  <inchikey>  (1194) 
None

>  <smiles>  (1194) 
None

>  <ref_pdb>  (1194) 
A1105b

>  <alias>  (1194) 
None

>  <HIPPO Pose ID>  (1194) 
498838

>  <name>  (1194) 
P498838

>  <HIPPO Compound ID>  (1194) 
293519

>  <ref_mols>  (1194) 
A0497a,A1105b

>  <distance_score>  (1194) 
1.813784

>  <inspiration_score>  (1194) 
None

$$$$
P498839
     RDKit          3D

 21 24  0  0  0  0  0  0  0  0999 V2000
    7.7378   15.2155   26.1549 O   0  0  0  0  0  0  0  0  0  0  0  0
    8.5056   14.6684   25.4679 C   0  0  0  0  0  0  0  0  0  0  0  0
    9.6490   15.4118   24.8695 C   0  0  0  0  0  0  0  0  0  0  0  0
    9.9713   15.4173   23.5651 C   0  0  0  0  0  0  0  0  0  0  0  0
   11.1786   16.1507   23.0189 C   0  0  1  0  0  0  0  0  0  0  0  0
   12.1793   15.1136   22.5071 C   0  0  0  0  0  0  0  0  0  0  0  0
   11.5189   14.2891   21.3969 C   0  0  2  0  0  0  0  0  0  0  0  0
   11.1390   15.1846   20.2133 C   0  0  0  0  0  0  0  0  0  0  0  0
   10.1503   16.2432   20.6925 C   0  0  1  0  0  0  0  0  0  0  0  0
    8.8845   15.6303   21.3203 C   0  0  0  0  0  0  0  0  0  0  0  0
    9.2481   14.6848   22.4705 C   0  0  1  0  0  0  0  0  0  0  0  0
   10.2349   13.6533   21.9465 C   0  0  0  0  0  0  0  0  0  0  0  0
   10.7982   17.0444   21.8222 C   0  0  0  0  0  0  0  0  0  0  0  0
    8.6322   13.1716   25.0996 N   0  0  0  0  0  0  0  0  0  0  0  0
    7.8070   12.0832   25.4156 C   0  0  0  0  0  0  0  0  0  0  0  0
    8.1826   10.8055   25.0047 C   0  0  0  0  0  0  0  0  0  0  0  0
    7.5219    9.6657   25.3331 N   0  0  0  0  0  0  0  0  0  0  0  0
    6.4101    9.8033   26.0803 C   0  0  0  0  0  0  0  0  0  0  0  0
    5.9284   11.0158   26.5060 C   0  0  0  0  0  0  0  0  0  0  0  0
    6.6338   12.1603   26.1608 C   0  0  0  0  0  0  0  0  0  0  0  0
    6.0617   13.3025   26.6202 O   0  0  0  0  0  0  0  0  0  0  0  0
  1  2  2  0
  2  3  1  0
  3  4  2  3
  4  5  1  0
  5  6  1  6
  7  6  1  1
  7  8  1  0
  9  8  1  1
  9 10  1  0
 11 10  1  6
 11 12  1  0
  9 13  1  0
  2 14  1  0
 14 15  1  0
 15 16  2  0
 16 17  1  0
 17 18  2  0
 18 19  1  0
 19 20  2  0
 20 21  1  0
 11  4  1  0
 20 15  1  0
 13  5  1  0
 12  7  1  0
M  END
>  <energy_score>  (1195) 
-35.003944

>  <inchikey>  (1195) 
None

>  <smiles>  (1195) 
None

>  <ref_pdb>  (1195) 
A3920a

>  <alias>  (1195) 
None

>  <HIPPO Pose ID>  (1195) 
498839

>  <name>  (1195) 
P498839

>  <HIPPO Compound ID>  (1195) 
293582

>  <ref_mols>  (1195) 
A1445a,A3920a

>  <distance_score>  (1195) 
1.674282

>  <inspiration_score>  (1195) 
None

$$$$
P498840
     RDKit          3D

 21 24  0  0  0  0  0  0  0  0999 V2000
    8.2010   15.0631   26.4958 O   0  0  0  0  0  0  0  0  0  0  0  0
    8.7745   14.5512   25.6164 C   0  0  0  0  0  0  0  0  0  0  0  0
    9.8371   15.3046   24.8917 C   0  0  0  0  0  0  0  0  0  0  0  0
   10.0486   15.3717   23.5656 C   0  0  0  0  0  0  0  0  0  0  0  0
   11.2170   16.1392   22.9831 C   0  0  1  0  0  0  0  0  0  0  0  0
   12.2082   15.1249   22.4147 C   0  0  0  0  0  0  0  0  0  0  0  0
   11.5137   14.3165   21.3134 C   0  0  2  0  0  0  0  0  0  0  0  0
   11.0890   15.2327   20.1630 C   0  0  0  0  0  0  0  0  0  0  0  0
   10.1071   16.2703   20.6978 C   0  0  1  0  0  0  0  0  0  0  0  0
    8.8669   15.6370   21.3567 C   0  0  0  0  0  0  0  0  0  0  0  0
    9.2773   14.6759   22.4798 C   0  0  1  0  0  0  0  0  0  0  0  0
   10.2485   13.6624   21.8907 C   0  0  0  0  0  0  0  0  0  0  0  0
   10.7818   17.0523   21.8226 C   0  0  0  0  0  0  0  0  0  0  0  0
    8.6808   13.1065   25.0618 N   0  0  0  0  0  0  0  0  0  0  0  0
    7.8177   12.0514   25.4043 C   0  0  0  0  0  0  0  0  0  0  0  0
    8.2061   10.7606   25.0413 C   0  0  0  0  0  0  0  0  0  0  0  0
    7.5524    9.6262   25.3945 N   0  0  0  0  0  0  0  0  0  0  0  0
    6.4296    9.7776   26.1145 C   0  0  0  0  0  0  0  0  0  0  0  0
    5.9171   11.0003   26.4679 C   0  0  0  0  0  0  0  0  0  0  0  0
    6.5994   12.1572   26.0827 C   0  0  0  0  0  0  0  0  0  0  0  0
    5.6539   13.6364   26.3277 S   0  0  0  0  0  0  0  0  0  0  0  0
  1  2  2  0
  2  3  1  0
  3  4  2  3
  4  5  1  0
  5  6  1  6
  7  6  1  1
  7  8  1  0
  9  8  1  1
  9 10  1  0
 11 10  1  6
 11 12  1  0
  9 13  1  0
  2 14  1  0
 14 15  1  0
 15 16  2  0
 16 17  1  0
 17 18  2  0
 18 19  1  0
 19 20  2  0
 20 21  1  0
 11  4  1  0
 20 15  1  0
 13  5  1  0
 12  7  1  0
M  END
>  <energy_score>  (1196) 
-35.696948

>  <inchikey>  (1196) 
None

>  <smiles>  (1196) 
None

>  <ref_pdb>  (1196) 
A3920a

>  <alias>  (1196) 
None

>  <HIPPO Pose ID>  (1196) 
498840

>  <name>  (1196) 
P498840

>  <HIPPO Compound ID>  (1196) 
293586

>  <ref_mols>  (1196) 
A1445a,A3920a

>  <distance_score>  (1196) 
1.695673

>  <inspiration_score>  (1196) 
None

$$$$
P498841
     RDKit          3D

 22 25  0  0  0  0  0  0  0  0999 V2000
    9.4323   14.4685   26.2966 O   0  0  0  0  0  0  0  0  0  0  0  0
    9.7915   13.8864   25.3500 C   0  0  0  0  0  0  0  0  0  0  0  0
   10.9522   14.3356   24.5554 C   0  0  0  0  0  0  0  0  0  0  0  0
   10.7757   14.8394   23.3273 C   0  0  0  0  0  0  0  0  0  0  0  0
   11.9323   15.2758   22.4495 C   0  0  1  0  0  0  0  0  0  0  0  0
   11.9496   14.4442   21.1745 C   0  0  0  0  0  0  0  0  0  0  0  0
   10.6070   14.5732   20.4503 C   0  0  2  0  0  0  0  0  0  0  0  0
   10.3991   16.0187   20.0238 C   0  0  0  0  0  0  0  0  0  0  0  0
   10.3664   16.8933   21.2705 C   0  0  1  0  0  0  0  0  0  0  0  0
    9.2091   16.4473   22.1816 C   0  0  0  0  0  0  0  0  0  0  0  0
    9.4320   15.0101   22.6436 C   0  0  1  0  0  0  0  0  0  0  0  0
    9.4864   14.1257   21.4168 C   0  0  0  0  0  0  0  0  0  0  0  0
   11.6815   16.7224   22.0531 C   0  0  0  0  0  0  0  0  0  0  0  0
    9.2975   12.5401   24.7467 N   0  0  0  0  0  0  0  0  0  0  0  0
    8.2272   11.7091   25.1233 C   0  0  0  0  0  0  0  0  0  0  0  0
    8.3604   10.3496   24.8524 C   0  0  0  0  0  0  0  0  0  0  0  0
    7.5267    9.3921   25.3214 N   0  0  0  0  0  0  0  0  0  0  0  0
    6.4891    9.8014   26.0764 C   0  0  0  0  0  0  0  0  0  0  0  0
    6.2085   11.1251   26.3373 C   0  0  0  0  0  0  0  0  0  0  0  0
    4.6797   11.4884   27.3954 Br  0  0  0  0  0  0  0  0  0  0  0  0
    7.0686   12.0967   25.8108 C   0  0  0  0  0  0  0  0  0  0  0  0
    6.4933   13.8992   25.8041 Br  0  0  0  0  0  0  0  0  0  0  0  0
  1  2  2  0
  2  3  1  0
  3  4  2  3
  4  5  1  0
  5  6  1  6
  7  6  1  1
  7  8  1  0
  9  8  1  6
  9 10  1  0
 11 10  1  6
 11 12  1  0
  9 13  1  0
  2 14  1  0
 14 15  1  0
 15 16  2  0
 16 17  1  0
 17 18  2  0
 18 19  1  0
 19 20  1  0
 19 21  2  0
 21 22  1  0
 11  4  1  0
 21 15  1  0
 13  5  1  0
 12  7  1  0
M  END
>  <energy_score>  (1197) 
-15.261875

>  <inchikey>  (1197) 
None

>  <smiles>  (1197) 
None

>  <ref_pdb>  (1197) 
A3920a

>  <alias>  (1197) 
None

>  <HIPPO Pose ID>  (1197) 
498841

>  <name>  (1197) 
P498841

>  <HIPPO Compound ID>  (1197) 
293595

>  <ref_mols>  (1197) 
A1445a,A3920a

>  <distance_score>  (1197) 
1.58597

>  <inspiration_score>  (1197) 
None

$$$$
P498842
     RDKit          3D

 22 25  0  0  0  0  0  0  0  0999 V2000
    8.6939   14.6754   26.3178 O   0  0  0  0  0  0  0  0  0  0  0  0
    9.1925   13.9278   25.5298 C   0  0  0  0  0  0  0  0  0  0  0  0
   10.4449   14.3164   24.8456 C   0  0  0  0  0  0  0  0  0  0  0  0
   10.4027   14.7802   23.5898 C   0  0  0  0  0  0  0  0  0  0  0  0
   11.6488   15.1679   22.8126 C   0  0  1  0  0  0  0  0  0  0  0  0
   11.7342   14.3633   21.5215 C   0  0  0  0  0  0  0  0  0  0  0  0
   10.4610   14.5814   20.6971 C   0  0  2  0  0  0  0  0  0  0  0  0
   10.3376   16.0552   20.3191 C   0  0  0  0  0  0  0  0  0  0  0  0
   10.2393   16.8953   21.5915 C   0  0  1  0  0  0  0  0  0  0  0  0
    8.9951   16.4628   22.3860 C   0  0  0  0  0  0  0  0  0  0  0  0
    9.1255   14.9987   22.7967 C   0  0  1  0  0  0  0  0  0  0  0  0
    9.2518   14.1459   21.5496 C   0  0  0  0  0  0  0  0  0  0  0  0
   11.4959   16.6361   22.4429 C   0  0  0  0  0  0  0  0  0  0  0  0
    8.8033   12.6163   25.1082 N   0  0  0  0  0  0  0  0  0  0  0  0
    7.7747   11.7718   25.5553 C   0  0  0  0  0  0  0  0  0  0  0  0
    7.7969   10.4523   25.1022 C   0  0  0  0  0  0  0  0  0  0  0  0
    6.9470    9.4805   25.5106 N   0  0  0  0  0  0  0  0  0  0  0  0
    5.9970    9.8426   26.3990 C   0  0  0  0  0  0  0  0  0  0  0  0
    5.8595   11.1273   26.8937 C   0  0  0  0  0  0  0  0  0  0  0  0
    4.3358   11.5058   28.2658 I   0  0  0  0  0  0  0  0  0  0  0  0
    6.7661   12.1063   26.4699 C   0  0  0  0  0  0  0  0  0  0  0  0
    6.6101   13.3553   27.0022 O   0  0  0  0  0  0  0  0  0  0  0  0
  1  2  2  0
  2  3  1  0
  3  4  2  3
  4  5  1  0
  5  6  1  6
  7  6  1  1
  7  8  1  0
  9  8  1  6
  9 10  1  0
 11 10  1  6
 11 12  1  0
  9 13  1  0
  2 14  1  0
 14 15  1  0
 15 16  2  0
 16 17  1  0
 17 18  2  0
 18 19  1  0
 19 20  1  0
 19 21  2  0
 21 22  1  0
 11  4  1  0
 21 15  1  0
 13  5  1  0
 12  7  1  0
M  END
>  <energy_score>  (1198) 
-60.5024

>  <inchikey>  (1198) 
None

>  <smiles>  (1198) 
None

>  <ref_pdb>  (1198) 
A3920a

>  <alias>  (1198) 
None

>  <HIPPO Pose ID>  (1198) 
498842

>  <name>  (1198) 
P498842

>  <HIPPO Compound ID>  (1198) 
293597

>  <ref_mols>  (1198) 
A1445a,A3920a

>  <distance_score>  (1198) 
1.649494

>  <inspiration_score>  (1198) 
None

$$$$
P498843
     RDKit          3D

 20 23  0  0  0  0  0  0  0  0999 V2000
   10.9112   11.9001   23.8127 O   0  0  0  0  0  0  0  0  0  0  0  0
    9.9563   12.5483   23.6573 C   0  0  0  0  0  0  0  0  0  0  0  0
    9.7928   13.9589   23.0558 N   0  0  0  0  0  0  0  0  0  0  0  0
   10.7637   14.8879   22.6152 C   0  0  1  0  0  0  0  0  0  0  0  0
   11.8401   14.7353   21.5459 C   0  0  0  0  0  0  0  0  0  0  0  0
   10.6080   15.4515   21.2683 C   0  0  0  0  0  0  0  0  0  0  0  0
    9.6452   15.3093   20.1789 C   0  0  0  0  0  0  0  0  0  0  0  0
    9.9987   16.6696   20.7503 C   0  0  0  0  0  0  0  0  0  0  0  0
    8.6230   12.0642   24.1806 C   0  0  0  0  0  0  0  0  0  0  0  0
    8.4570   10.8088   24.7756 C   0  0  0  0  0  0  0  0  0  0  0  0
    7.3804   10.5942   25.6612 C   0  0  0  0  0  0  0  0  0  0  0  0
    6.5547   11.6619   25.9207 C   0  0  0  0  0  0  0  0  0  0  0  0
    6.6709   12.7651   25.1218 C   0  0  0  0  0  0  0  0  0  0  0  0
    7.6792   13.0210   24.2549 N   0  0  0  0  0  0  0  0  0  0  0  0
    5.5524   13.7003   25.2938 C   0  0  0  0  0  0  0  0  0  0  0  0
    5.4996   14.8045   24.8026 O   0  0  0  0  0  0  0  0  0  0  0  0
    4.5961   13.1561   26.1845 N   0  0  0  0  0  0  0  0  0  0  0  0
    5.2785   11.9327   27.0757 S   0  0  0  0  0  0  0  0  0  0  0  0
    4.3984   10.8023   27.1863 O   0  0  0  0  0  0  0  0  0  0  0  0
    5.8362   12.5642   28.2426 O   0  0  0  0  0  0  0  0  0  0  0  0
  1  2  2  0
  2  3  1  0
  4  3  1  6
  4  5  1  0
  5  6  1  0
  6  7  1  0
  7  8  1  0
  2  9  1  0
  9 10  2  0
 10 11  1  0
 11 12  2  0
 12 13  1  0
 13 14  2  0
 13 15  1  0
 15 16  2  0
 15 17  1  0
 17 18  1  0
 18 19  2  0
 18 20  2  0
  6  4  1  0
 14  9  1  0
  8  6  1  0
 18 12  1  0
M  END
>  <energy_score>  (1199) 
-7.127999

>  <inchikey>  (1199) 
None

>  <smiles>  (1199) 
None

>  <ref_pdb>  (1199) 
A3181a

>  <alias>  (1199) 
None

>  <HIPPO Pose ID>  (1199) 
498843

>  <name>  (1199) 
P498843

>  <HIPPO Compound ID>  (1199) 
293888

>  <ref_mols>  (1199) 
A3181a,A3618a

>  <distance_score>  (1199) 
1.976972

>  <inspiration_score>  (1199) 
None

$$$$
P498844
     RDKit          3D

 20 23  0  0  0  0  0  0  0  0999 V2000
   10.9791   11.9444   23.8533 O   0  0  0  0  0  0  0  0  0  0  0  0
   10.0150   12.5700   23.6627 C   0  0  0  0  0  0  0  0  0  0  0  0
    9.8368   13.9619   23.0212 N   0  0  0  0  0  0  0  0  0  0  0  0
   10.7991   14.8984   22.5748 C   0  0  1  0  0  0  0  0  0  0  0  0
   11.8618   14.7587   21.4905 C   0  0  0  0  0  0  0  0  0  0  0  0
   10.6225   15.4700   21.2339 C   0  0  0  0  0  0  0  0  0  0  0  0
    9.6424   15.3272   20.1603 C   0  0  0  0  0  0  0  0  0  0  0  0
    9.9992   16.6874   20.7306 C   0  0  0  0  0  0  0  0  0  0  0  0
    8.6764   12.0786   24.1714 C   0  0  0  0  0  0  0  0  0  0  0  0
    8.4923   10.8147   24.7441 C   0  0  0  0  0  0  0  0  0  0  0  0
    7.4042   10.5933   25.6167 C   0  0  0  0  0  0  0  0  0  0  0  0
    6.5798   11.6617   25.8815 C   0  0  0  0  0  0  0  0  0  0  0  0
    6.7353   12.7948   25.1281 C   0  0  0  0  0  0  0  0  0  0  0  0
    7.7473   13.0488   24.2658 N   0  0  0  0  0  0  0  0  0  0  0  0
    5.5875   13.7067   25.2417 C   0  0  0  0  0  0  0  0  0  0  0  0
    5.3910   14.6525   24.5130 O   0  0  0  0  0  0  0  0  0  0  0  0
    4.7043   13.2361   26.2298 N   0  0  0  0  0  0  0  0  0  0  0  0
    5.3245   11.9447   27.0556 S   0  0  0  0  0  0  0  0  0  0  0  0
    5.9333   12.4782   28.2456 O   0  0  0  0  0  0  0  0  0  0  0  0
    4.3730   10.8712   27.1235 O   0  0  0  0  0  0  0  0  0  0  0  0
  1  2  2  0
  2  3  1  0
  4  3  1  6
  4  5  1  0
  5  6  1  0
  6  7  1  0
  7  8  1  0
  2  9  1  0
  9 10  2  0
 10 11  1  0
 11 12  2  0
 12 13  1  0
 13 14  2  0
 13 15  1  0
 15 16  2  0
 15 17  1  0
 17 18  1  0
 18 19  2  0
 18 20  2  0
  6  4  1  0
 14  9  1  0
  8  6  1  0
 18 12  1  0
M  END
>  <energy_score>  (1200) 
-6.22142

>  <inchikey>  (1200) 
None

>  <smiles>  (1200) 
None

>  <ref_pdb>  (1200) 
A3181a

>  <alias>  (1200) 
None

>  <HIPPO Pose ID>  (1200) 
498844

>  <name>  (1200) 
P498844

>  <HIPPO Compound ID>  (1200) 
293888

>  <ref_mols>  (1200) 
A3181a,A3618a

>  <distance_score>  (1200) 
1.97912

>  <inspiration_score>  (1200) 
None

$$$$
P498845
     RDKit          3D

 20 21  0  0  0  0  0  0  0  0999 V2000
   10.1090   16.5364   20.6230 C   0  0  0  0  0  0  0  0  0  0  0  0
   10.2241   15.0343   20.5275 C   0  0  0  0  0  0  0  0  0  0  0  0
   10.5689   14.2967   21.8062 C   0  0  2  0  0  0  0  0  0  0  0  0
    9.4935   13.8708   22.6377 N   0  0  0  0  0  0  0  0  0  0  0  0
    8.2742   14.6323   23.1509 C   0  0  0  0  0  0  0  0  0  0  0  0
    7.9061   15.7075   22.9187 O   0  0  0  0  0  0  0  0  0  0  0  0
    7.5699   13.7529   24.1297 C   0  0  0  0  0  0  0  0  0  0  0  0
    6.6191   14.2935   24.9693 C   0  0  0  0  0  0  0  0  0  0  0  0
    6.0144   13.4481   25.8881 C   0  0  0  0  0  0  0  0  0  0  0  0
    6.3475   12.0941   25.9253 C   0  0  0  0  0  0  0  0  0  0  0  0
    5.5193   11.1379   27.0869 Cl  0  0  0  0  0  0  0  0  0  0  0  0
    7.3107   11.6306   25.0252 C   0  0  0  0  0  0  0  0  0  0  0  0
    7.7059   10.1744   24.8863 C   0  0  0  0  0  0  0  0  0  0  0  0
    7.1706    9.3523   25.5092 O   0  0  0  0  0  0  0  0  0  0  0  0
    8.8088   10.0577   23.8213 N   0  0  0  0  0  0  0  0  0  0  0  0
    9.5472    8.9189   23.3692 C   0  0  0  0  0  0  0  0  0  0  0  0
    7.9685   12.4475   24.1451 N   0  0  0  0  0  0  0  0  0  0  0  0
   11.6104   14.9471   22.6257 C   0  0  0  0  0  0  0  0  0  0  0  0
   12.6873   14.1149   23.2459 C   0  0  0  0  0  0  0  0  0  0  0  0
   12.9813   14.9813   22.0419 C   0  0  0  0  0  0  0  0  0  0  0  0
  1  2  1  0
  3  2  1  6
  3  4  1  0
  4  5  1  0
  5  6  2  0
  5  7  1  0
  7  8  2  0
  8  9  1  0
  9 10  2  0
 10 11  1  0
 10 12  1  0
 12 13  1  0
 13 14  2  0
 13 15  1  0
 15 16  1  0
 12 17  2  0
  3 18  1  0
 18 19  1  0
 19 20  1  0
 17  7  1  0
 20 18  1  0
M  END
>  <energy_score>  (1201) 
-0.28423

>  <inchikey>  (1201) 
None

>  <smiles>  (1201) 
None

>  <ref_pdb>  (1201) 
A3181a

>  <alias>  (1201) 
None

>  <HIPPO Pose ID>  (1201) 
498845

>  <name>  (1201) 
P498845

>  <HIPPO Compound ID>  (1201) 
293893

>  <ref_mols>  (1201) 
A3181a,A3618a

>  <distance_score>  (1201) 
1.949499

>  <inspiration_score>  (1201) 
None

$$$$
P498846
     RDKit          3D

 20 23  0  0  0  0  0  0  0  0999 V2000
    6.6204    8.8468   25.1537 O   0  0  0  0  0  0  0  0  0  0  0  0
    7.5438    9.4632   24.6403 C   0  0  0  0  0  0  0  0  0  0  0  0
    8.3547    8.8984   23.7085 N   0  0  0  0  0  0  0  0  0  0  0  0
    9.6264    9.4431   23.3276 C   0  0  0  0  0  0  0  0  0  0  0  0
    9.6751   10.9691   23.2950 C   0  0  0  0  0  0  0  0  0  0  0  0
    8.6732   11.6351   24.1254 N   0  0  0  0  0  0  0  0  0  0  0  0
    7.7647   10.9040   24.8958 C   0  0  0  0  0  0  0  0  0  0  0  0
    6.9021   11.4511   25.7575 C   0  0  0  0  0  0  0  0  0  0  0  0
    6.9288   12.9037   25.8712 C   0  0  0  0  0  0  0  0  0  0  0  0
    6.3954   13.4351   26.8294 O   0  0  0  0  0  0  0  0  0  0  0  0
    7.6069   13.6835   24.8277 C   0  0  0  0  0  0  0  0  0  0  0  0
    8.4307   13.0040   24.0196 C   0  0  0  0  0  0  0  0  0  0  0  0
    8.8504   13.8100   22.8370 C   0  0  0  0  0  0  0  0  0  0  0  0
    8.0888   14.0497   21.9861 O   0  0  0  0  0  0  0  0  0  0  0  0
   10.3086   14.2836   23.0402 N   0  0  0  0  0  0  0  0  0  0  0  0
   11.0858   15.2088   22.3027 C   0  0  1  0  0  0  0  0  0  0  0  0
   12.0544   14.9305   21.1660 C   0  0  0  0  0  0  0  0  0  0  0  0
   10.7811   15.5974   20.9255 C   0  0  0  0  0  0  0  0  0  0  0  0
    9.7910   15.3988   19.8792 C   0  0  0  0  0  0  0  0  0  0  0  0
   10.1152   16.7863   20.3925 C   0  0  0  0  0  0  0  0  0  0  0  0
  1  2  2  0
  2  3  1  0
  3  4  1  0
  4  5  1  0
  5  6  1  0
  6  7  1  0
  7  8  2  0
  8  9  1  0
  9 10  2  0
  9 11  1  0
 11 12  2  0
 12 13  1  0
 13 14  2  0
 13 15  1  0
 16 15  1  6
 16 17  1  0
 17 18  1  0
 18 19  1  0
 19 20  1  0
  7  2  1  0
 18 16  1  0
 12  6  1  0
 20 18  1  0
M  END
>  <energy_score>  (1202) 
-19.660829

>  <inchikey>  (1202) 
None

>  <smiles>  (1202) 
None

>  <ref_pdb>  (1202) 
A3181a

>  <alias>  (1202) 
None

>  <HIPPO Pose ID>  (1202) 
498846

>  <name>  (1202) 
P498846

>  <HIPPO Compound ID>  (1202) 
293897

>  <ref_mols>  (1202) 
A3181a,A3618a

>  <distance_score>  (1202) 
1.639099

>  <inspiration_score>  (1202) 
None

$$$$
P498847
     RDKit          3D

 20 23  0  0  0  0  0  0  0  0999 V2000
    6.6541    8.9611   25.1072 O   0  0  0  0  0  0  0  0  0  0  0  0
    7.5605    9.6037   24.5925 C   0  0  0  0  0  0  0  0  0  0  0  0
    8.3889    9.0447   23.6701 N   0  0  0  0  0  0  0  0  0  0  0  0
    9.6900    9.5734   23.3688 C   0  0  0  0  0  0  0  0  0  0  0  0
    9.7731   11.1005   23.3865 C   0  0  0  0  0  0  0  0  0  0  0  0
    8.8732   11.7461   24.3397 N   0  0  0  0  0  0  0  0  0  0  0  0
    7.7741   11.0521   24.8613 C   0  0  0  0  0  0  0  0  0  0  0  0
    6.7967   11.6260   25.5675 C   0  0  0  0  0  0  0  0  0  0  0  0
    6.8623   13.0689   25.7559 C   0  0  0  0  0  0  0  0  0  0  0  0
    5.9678   13.6257   26.3691 O   0  0  0  0  0  0  0  0  0  0  0  0
    8.0367   13.8111   25.2707 C   0  0  0  0  0  0  0  0  0  0  0  0
    8.9785   13.1154   24.6207 C   0  0  0  0  0  0  0  0  0  0  0  0
   10.2620   13.8882   24.4484 C   0  0  0  0  0  0  0  0  0  0  0  0
   10.9380   14.1093   25.3732 O   0  0  0  0  0  0  0  0  0  0  0  0
   10.4068   14.3262   22.9763 N   0  0  0  0  0  0  0  0  0  0  0  0
   11.3454   15.1915   22.3619 C   0  0  1  0  0  0  0  0  0  0  0  0
   12.2657   14.7323   21.3280 C   0  0  0  0  0  0  0  0  0  0  0  0
   11.2451   15.7900   20.9628 C   0  0  0  0  0  0  0  0  0  0  0  0
   10.7389   15.4905   19.5593 C   0  0  0  0  0  0  0  0  0  0  0  0
    9.8051   16.0225   20.5547 C   0  0  0  0  0  0  0  0  0  0  0  0
  1  2  2  0
  2  3  1  0
  3  4  1  0
  4  5  1  0
  5  6  1  0
  6  7  1  0
  7  8  2  0
  8  9  1  0
  9 10  2  0
  9 11  1  0
 11 12  2  0
 12 13  1  0
 13 14  2  0
 13 15  1  0
 16 15  1  6
 16 17  1  0
 17 18  1  0
 18 19  1  0
 19 20  1  0
  7  2  1  0
 18 16  1  0
 12  6  1  0
 20 18  1  0
M  END
>  <energy_score>  (1203) 
-24.921966

>  <inchikey>  (1203) 
None

>  <smiles>  (1203) 
None

>  <ref_pdb>  (1203) 
A3181a

>  <alias>  (1203) 
None

>  <HIPPO Pose ID>  (1203) 
498847

>  <name>  (1203) 
P498847

>  <HIPPO Compound ID>  (1203) 
293897

>  <ref_mols>  (1203) 
A3181a,A3618a

>  <distance_score>  (1203) 
1.461185

>  <inspiration_score>  (1203) 
None

$$$$
P498848
     RDKit          3D

 21 24  0  0  0  0  0  0  0  0999 V2000
   10.7988   11.7987   23.6842 O   0  0  0  0  0  0  0  0  0  0  0  0
    9.9038   12.5141   23.4684 C   0  0  0  0  0  0  0  0  0  0  0  0
    9.8025   13.7351   22.5267 N   0  0  0  0  0  0  0  0  0  0  0  0
   10.8243   14.3956   21.7147 C   0  0  2  0  0  0  0  0  0  0  0  0
   11.9179   15.1513   22.4664 C   0  0  0  0  0  0  0  0  0  0  0  0
   11.8060   16.2387   21.5230 O   0  0  0  0  0  0  0  0  0  0  0  0
   10.5478   15.7074   21.1095 C   0  0  0  0  0  0  0  0  0  0  0  0
    9.3621   16.5739   20.9484 C   0  0  0  0  0  0  0  0  0  0  0  0
   10.0733   16.0240   19.7374 C   0  0  0  0  0  0  0  0  0  0  0  0
    8.6170   12.2019   24.1743 C   0  0  0  0  0  0  0  0  0  0  0  0
    8.4268   10.9643   24.8169 C   0  0  0  0  0  0  0  0  0  0  0  0
    7.3623   10.7874   25.7168 C   0  0  0  0  0  0  0  0  0  0  0  0
    6.5548   11.8737   25.9383 C   0  0  0  0  0  0  0  0  0  0  0  0
    6.7096   12.9726   25.1278 C   0  0  0  0  0  0  0  0  0  0  0  0
    7.7197   13.1947   24.2437 N   0  0  0  0  0  0  0  0  0  0  0  0
    5.5087   13.8234   25.1364 C   0  0  0  0  0  0  0  0  0  0  0  0
    5.2819   14.6867   24.3189 O   0  0  0  0  0  0  0  0  0  0  0  0
    4.6023   13.3700   26.1162 N   0  0  0  0  0  0  0  0  0  0  0  0
    5.2316   12.1464   27.0334 S   0  0  0  0  0  0  0  0  0  0  0  0
    5.7521   12.7495   28.2317 O   0  0  0  0  0  0  0  0  0  0  0  0
    4.3399   11.0206   27.0922 O   0  0  0  0  0  0  0  0  0  0  0  0
  1  2  2  0
  2  3  1  0
  4  3  1  1
  4  5  1  0
  5  6  1  0
  6  7  1  0
  7  8  1  0
  8  9  1  0
  2 10  1  0
 10 11  2  0
 11 12  1  0
 12 13  2  0
 13 14  1  0
 14 15  2  0
 14 16  1  0
 16 17  2  0
 16 18  1  0
 18 19  1  0
 19 20  2  0
 19 21  2  0
  7  4  1  0
 15 10  1  0
  9  7  1  0
 19 13  1  0
M  END
>  <energy_score>  (1204) 
-14.164593

>  <inchikey>  (1204) 
None

>  <smiles>  (1204) 
None

>  <ref_pdb>  (1204) 
A3181a

>  <alias>  (1204) 
None

>  <HIPPO Pose ID>  (1204) 
498848

>  <name>  (1204) 
P498848

>  <HIPPO Compound ID>  (1204) 
293913

>  <ref_mols>  (1204) 
A3181a,A3618a

>  <distance_score>  (1204) 
1.98224

>  <inspiration_score>  (1204) 
None

$$$$
P498849
     RDKit          3D

 21 24  0  0  0  0  0  0  0  0999 V2000
   10.8123   11.8736   23.6445 O   0  0  0  0  0  0  0  0  0  0  0  0
    9.8804   12.5700   23.5669 C   0  0  0  0  0  0  0  0  0  0  0  0
    9.7483   14.0123   23.0165 N   0  0  0  0  0  0  0  0  0  0  0  0
   10.7692   14.9407   22.5298 C   0  0  1  0  0  0  0  0  0  0  0  0
   12.0433   14.4234   21.8494 C   0  0  0  0  0  0  0  0  0  0  0  0
   11.8960   15.4350   20.8207 O   0  0  0  0  0  0  0  0  0  0  0  0
   10.5336   15.5866   21.2227 C   0  0  0  0  0  0  0  0  0  0  0  0
    9.7208   16.7587   20.8132 C   0  0  0  0  0  0  0  0  0  0  0  0
    9.5017   15.4134   20.1768 C   0  0  0  0  0  0  0  0  0  0  0  0
    8.5714   12.1038   24.1648 C   0  0  0  0  0  0  0  0  0  0  0  0
    8.3143   10.7836   24.5642 C   0  0  0  0  0  0  0  0  0  0  0  0
    7.2230   10.5033   25.4282 C   0  0  0  0  0  0  0  0  0  0  0  0
    6.4564   11.5673   25.8698 C   0  0  0  0  0  0  0  0  0  0  0  0
    6.8031   12.8129   25.4178 C   0  0  0  0  0  0  0  0  0  0  0  0
    7.7852   13.1231   24.5377 N   0  0  0  0  0  0  0  0  0  0  0  0
    6.2047   13.8888   26.2039 C   0  0  0  0  0  0  0  0  0  0  0  0
    6.2193   15.0582   25.8982 O   0  0  0  0  0  0  0  0  0  0  0  0
    5.6362   13.3689   27.3845 N   0  0  0  0  0  0  0  0  0  0  0  0
    5.3698   11.7323   27.2376 S   0  0  0  0  0  0  0  0  0  0  0  0
    3.9759   11.6354   26.9050 O   0  0  0  0  0  0  0  0  0  0  0  0
    5.9236   11.0440   28.3734 O   0  0  0  0  0  0  0  0  0  0  0  0
  1  2  2  0
  2  3  1  0
  4  3  1  6
  4  5  1  0
  5  6  1  0
  6  7  1  0
  7  8  1  0
  8  9  1  0
  2 10  1  0
 10 11  2  0
 11 12  1  0
 12 13  2  0
 13 14  1  0
 14 15  2  0
 14 16  1  0
 16 17  2  0
 16 18  1  0
 18 19  1  0
 19 20  2  0
 19 21  2  0
  7  4  1  0
 15 10  1  0
  9  7  1  0
 19 13  1  0
M  END
>  <energy_score>  (1205) 
-9.111607

>  <inchikey>  (1205) 
None

>  <smiles>  (1205) 
None

>  <ref_pdb>  (1205) 
A3181a

>  <alias>  (1205) 
None

>  <HIPPO Pose ID>  (1205) 
498849

>  <name>  (1205) 
P498849

>  <HIPPO Compound ID>  (1205) 
293913

>  <ref_mols>  (1205) 
A3181a,A3618a

>  <distance_score>  (1205) 
1.973377

>  <inspiration_score>  (1205) 
None

$$$$
P498850
     RDKit          3D

 21 24  0  0  0  0  0  0  0  0999 V2000
   10.8459   11.9362   23.8230 O   0  0  0  0  0  0  0  0  0  0  0  0
    9.9051   12.5981   23.6314 C   0  0  0  0  0  0  0  0  0  0  0  0
    9.7807   14.0027   22.9978 N   0  0  0  0  0  0  0  0  0  0  0  0
   10.8052   14.9303   22.5522 C   0  0  1  0  0  0  0  0  0  0  0  0
   12.0927   14.3249   21.9878 C   0  0  0  0  0  0  0  0  0  0  0  0
   12.0998   15.4414   20.9392 C   0  0  0  0  0  0  0  0  0  0  0  0
   10.6438   15.5517   21.2127 C   0  0  0  0  0  0  0  0  0  0  0  0
    9.7393   16.6885   20.8342 C   0  0  0  0  0  0  0  0  0  0  0  0
    9.5890   15.3529   20.1763 C   0  0  0  0  0  0  0  0  0  0  0  0
    8.5718   12.1164   24.1440 C   0  0  0  0  0  0  0  0  0  0  0  0
    8.4256   10.8635   24.7570 C   0  0  0  0  0  0  0  0  0  0  0  0
    7.3658   10.6453   25.6593 C   0  0  0  0  0  0  0  0  0  0  0  0
    6.5330   11.7073   25.9158 C   0  0  0  0  0  0  0  0  0  0  0  0
    6.6331   12.8084   25.1088 C   0  0  0  0  0  0  0  0  0  0  0  0
    7.6302   13.0719   24.2293 N   0  0  0  0  0  0  0  0  0  0  0  0
    5.5018   13.7281   25.2804 C   0  0  0  0  0  0  0  0  0  0  0  0
    5.4266   14.8262   24.7789 O   0  0  0  0  0  0  0  0  0  0  0  0
    4.5571   13.1772   26.1797 N   0  0  0  0  0  0  0  0  0  0  0  0
    5.2570   11.9655   27.0731 S   0  0  0  0  0  0  0  0  0  0  0  0
    5.8084   12.6076   28.2372 O   0  0  0  0  0  0  0  0  0  0  0  0
    4.3897   10.8251   27.1874 O   0  0  0  0  0  0  0  0  0  0  0  0
  1  2  2  0
  2  3  1  0
  4  3  1  6
  4  5  1  0
  5  6  1  0
  6  7  1  0
  7  8  1  0
  8  9  1  0
  2 10  1  0
 10 11  2  0
 11 12  1  0
 12 13  2  0
 13 14  1  0
 14 15  2  0
 14 16  1  0
 16 17  2  0
 16 18  1  0
 18 19  1  0
 19 20  2  0
 19 21  2  0
  7  4  1  0
 15 10  1  0
  9  7  1  0
 19 13  1  0
M  END
>  <energy_score>  (1206) 
-8.373183

>  <inchikey>  (1206) 
None

>  <smiles>  (1206) 
None

>  <ref_pdb>  (1206) 
A3181a

>  <alias>  (1206) 
None

>  <HIPPO Pose ID>  (1206) 
498850

>  <name>  (1206) 
P498850

>  <HIPPO Compound ID>  (1206) 
293925

>  <ref_mols>  (1206) 
A3181a,A3618a

>  <distance_score>  (1206) 
1.969221

>  <inspiration_score>  (1206) 
None

$$$$
P498851
     RDKit          3D

 21 23  0  0  0  0  0  0  0  0999 V2000
    1.9651   12.7643   27.6486 C   0  0  0  0  0  0  0  0  0  0  0  0
    3.3632   12.5509   28.2211 C   0  0  2  0  0  0  0  0  0  0  0  0
    4.3317   12.4646   27.1464 N   0  0  0  0  0  0  0  0  0  0  0  0
    5.7003   11.7351   27.0790 C   0  0  0  0  0  0  0  0  0  0  0  0
    6.2203   11.0289   27.8507 O   0  0  0  0  0  0  0  0  0  0  0  0
    6.4201   12.1630   25.8045 C   0  0  0  0  0  0  0  0  0  0  0  0
    6.3739   13.4898   25.5902 C   0  0  0  0  0  0  0  0  0  0  0  0
    7.1937   14.0598   24.5191 C   0  0  0  0  0  0  0  0  0  0  0  0
    7.0830   15.2319   24.1973 O   0  0  0  0  0  0  0  0  0  0  0  0
    8.2206   13.2295   23.9123 C   0  0  0  0  0  0  0  0  0  0  0  0
    8.2373   11.9411   24.2513 C   0  0  0  0  0  0  0  0  0  0  0  0
    7.2833   11.3223   25.0664 N   0  0  0  0  0  0  0  0  0  0  0  0
    7.3507    9.8684   25.2522 C   0  0  0  0  0  0  0  0  0  0  0  0
    8.2474    9.1740   24.2012 C   0  0  0  0  0  0  0  0  0  0  0  0
    9.4530    9.8879   23.9007 N   0  0  0  0  0  0  0  0  0  0  0  0
    9.4632   11.2388   23.7786 C   0  0  0  0  0  0  0  0  0  0  0  0
   10.4468   11.8590   23.4036 O   0  0  0  0  0  0  0  0  0  0  0  0
    3.5258   11.4476   29.2291 C   0  0  1  0  0  0  0  0  0  0  0  0
    2.3647   10.7879   29.9450 C   0  0  0  0  0  0  0  0  0  0  0  0
    3.1808   10.0034   28.9528 C   0  0  2  0  0  0  0  0  0  0  0  0
    4.0902    8.9155   29.4168 C   0  0  0  0  0  0  0  0  0  0  0  0
  2  1  1  6
  2  3  1  0
  3  4  1  0
  4  5  2  0
  4  6  1  0
  6  7  2  0
  7  8  1  0
  8  9  2  0
  8 10  1  0
 10 11  2  0
 11 12  1  0
 12 13  1  0
 13 14  1  0
 14 15  1  0
 15 16  1  0
 16 17  2  0
  2 18  1  0
 18 19  1  1
 19 20  1  0
 20 21  1  1
 12  6  1  0
 20 18  1  0
 16 11  1  0
M  END
>  <energy_score>  (1207) 
-30.953636

>  <inchikey>  (1207) 
None

>  <smiles>  (1207) 
None

>  <ref_pdb>  (1207) 
A3181a

>  <alias>  (1207) 
None

>  <HIPPO Pose ID>  (1207) 
498851

>  <name>  (1207) 
P498851

>  <HIPPO Compound ID>  (1207) 
293937

>  <ref_mols>  (1207) 
A3181a,A3618a

>  <distance_score>  (1207) 
1.626369

>  <inspiration_score>  (1207) 
None

$$$$
P498852
     RDKit          3D

 21 23  0  0  0  0  0  0  0  0999 V2000
    2.0299   13.0664   27.5532 C   0  0  0  0  0  0  0  0  0  0  0  0
    3.2810   12.3946   28.1252 C   0  0  2  0  0  0  0  0  0  0  0  0
    4.2980   12.3582   27.0954 N   0  0  0  0  0  0  0  0  0  0  0  0
    5.6573   11.6133   27.0484 C   0  0  0  0  0  0  0  0  0  0  0  0
    6.1301   10.8540   27.7988 O   0  0  0  0  0  0  0  0  0  0  0  0
    6.4366   12.1108   25.8352 C   0  0  0  0  0  0  0  0  0  0  0  0
    6.4088   13.4466   25.6854 C   0  0  0  0  0  0  0  0  0  0  0  0
    7.2398   14.0553   24.6452 C   0  0  0  0  0  0  0  0  0  0  0  0
    7.1497   15.2437   24.3824 O   0  0  0  0  0  0  0  0  0  0  0  0
    8.2474   13.2369   23.9913 C   0  0  0  0  0  0  0  0  0  0  0  0
    8.2498   11.9339   24.2710 C   0  0  0  0  0  0  0  0  0  0  0  0
    7.2950   11.2924   25.0666 N   0  0  0  0  0  0  0  0  0  0  0  0
    7.3674    9.8360   25.2261 C   0  0  0  0  0  0  0  0  0  0  0  0
    8.2698    9.1581   24.1720 C   0  0  0  0  0  0  0  0  0  0  0  0
    9.4633    9.8876   23.8623 N   0  0  0  0  0  0  0  0  0  0  0  0
    9.4633   11.2397   23.7562 C   0  0  0  0  0  0  0  0  0  0  0  0
   10.4321   11.8646   23.3524 O   0  0  0  0  0  0  0  0  0  0  0  0
    2.9864   11.0176   28.6444 C   0  0  2  0  0  0  0  0  0  0  0  0
    2.1087   10.8097   29.8585 C   0  0  0  0  0  0  0  0  0  0  0  0
    3.5743   10.4760   29.9356 C   0  0  2  0  0  0  0  0  0  0  0  0
    4.4694   11.2672   30.8279 C   0  0  0  0  0  0  0  0  0  0  0  0
  2  1  1  6
  2  3  1  0
  3  4  1  0
  4  5  2  0
  4  6  1  0
  6  7  2  0
  7  8  1  0
  8  9  2  0
  8 10  1  0
 10 11  2  0
 11 12  1  0
 12 13  1  0
 13 14  1  0
 14 15  1  0
 15 16  1  0
 16 17  2  0
  2 18  1  0
 18 19  1  1
 19 20  1  0
 20 21  1  1
 12  6  1  0
 20 18  1  0
 16 11  1  0
M  END
>  <energy_score>  (1208) 
-48.279876

>  <inchikey>  (1208) 
None

>  <smiles>  (1208) 
None

>  <ref_pdb>  (1208) 
A3181a

>  <alias>  (1208) 
None

>  <HIPPO Pose ID>  (1208) 
498852

>  <name>  (1208) 
P498852

>  <HIPPO Compound ID>  (1208) 
293937

>  <ref_mols>  (1208) 
A3181a,A3618a

>  <distance_score>  (1208) 
1.598394

>  <inspiration_score>  (1208) 
None

$$$$
P498853
     RDKit          3D

 21 24  0  0  0  0  0  0  0  0999 V2000
    6.5762    8.9585   25.0752 O   0  0  0  0  0  0  0  0  0  0  0  0
    7.5167    9.5870   24.6028 C   0  0  0  0  0  0  0  0  0  0  0  0
    8.3568    9.0281   23.6936 N   0  0  0  0  0  0  0  0  0  0  0  0
    9.6564    9.5577   23.3877 C   0  0  0  0  0  0  0  0  0  0  0  0
    9.7324   11.0842   23.4046 C   0  0  0  0  0  0  0  0  0  0  0  0
    8.8320   11.7357   24.3612 N   0  0  0  0  0  0  0  0  0  0  0  0
    7.7462   11.0294   24.8991 C   0  0  0  0  0  0  0  0  0  0  0  0
    6.7836   11.5898   25.6362 C   0  0  0  0  0  0  0  0  0  0  0  0
    6.8497   13.0285   25.8491 C   0  0  0  0  0  0  0  0  0  0  0  0
    5.9653   13.5726   26.4873 O   0  0  0  0  0  0  0  0  0  0  0  0
    8.0025   13.7857   25.3408 C   0  0  0  0  0  0  0  0  0  0  0  0
    8.9290   13.1084   24.6520 C   0  0  0  0  0  0  0  0  0  0  0  0
   10.1525   13.9358   24.3431 C   0  0  0  0  0  0  0  0  0  0  0  0
   10.8536   14.3253   25.1916 O   0  0  0  0  0  0  0  0  0  0  0  0
   10.2345   14.1224   22.8119 N   0  0  0  0  0  0  0  0  0  0  0  0
   11.2366   14.7400   22.0059 C   0  0  0  0  0  0  0  0  0  0  0  0
   10.7631   15.8561   21.0676 C   0  0  0  0  0  0  0  0  0  0  0  0
    9.3894   15.9158   20.4723 C   0  0  0  0  0  0  0  0  0  0  0  0
   10.5594   15.6371   19.5837 C   0  0  0  0  0  0  0  0  0  0  0  0
   12.6567   14.8287   22.5309 C   0  0  0  0  0  0  0  0  0  0  0  0
   12.3203   13.8211   21.5008 C   0  0  0  0  0  0  0  0  0  0  0  0
  1  2  2  0
  2  3  1  0
  3  4  1  0
  4  5  1  0
  5  6  1  0
  6  7  1  0
  7  8  2  0
  8  9  1  0
  9 10  2  0
  9 11  1  0
 11 12  2  0
 12 13  1  0
 13 14  2  0
 13 15  1  0
 15 16  1  0
 16 17  1  0
 17 18  1  0
 18 19  1  0
 16 20  1  0
 20 21  1  0
  7  2  1  0
 21 16  1  0
 12  6  1  0
 19 17  1  0
M  END
>  <energy_score>  (1209) 
-41.130132

>  <inchikey>  (1209) 
None

>  <smiles>  (1209) 
None

>  <ref_pdb>  (1209) 
A3181a

>  <alias>  (1209) 
None

>  <HIPPO Pose ID>  (1209) 
498853

>  <name>  (1209) 
P498853

>  <HIPPO Compound ID>  (1209) 
293938

>  <ref_mols>  (1209) 
A3181a,A3618a

>  <distance_score>  (1209) 
1.589807

>  <inspiration_score>  (1209) 
None

$$$$
P498854
     RDKit          3D

 22 25  0  0  0  0  0  0  0  0999 V2000
   10.1344   14.3797   25.1894 O   0  0  0  0  0  0  0  0  0  0  0  0
    9.8471   13.8405   24.1920 C   0  0  0  0  0  0  0  0  0  0  0  0
   10.2837   14.1297   22.7307 N   0  0  0  0  0  0  0  0  0  0  0  0
   11.0961   15.2110   22.1803 C   0  0  1  0  0  0  0  0  0  0  0  0
   12.3266   14.7888   21.3666 C   0  0  0  0  0  0  0  0  0  0  0  0
   11.8312   15.4766   20.2029 O   0  0  0  0  0  0  0  0  0  0  0  0
   10.6230   15.7623   20.9008 C   0  0  0  0  0  0  0  0  0  0  0  0
    9.8047   16.9581   20.5771 C   0  0  0  0  0  0  0  0  0  0  0  0
    9.3596   15.5857   20.1553 C   0  0  0  0  0  0  0  0  0  0  0  0
    8.9782   12.6099   24.3037 C   0  0  0  0  0  0  0  0  0  0  0  0
    9.3517   11.4331   23.6707 C   0  0  0  0  0  0  0  0  0  0  0  0
    8.6541   10.2642   23.9606 C   0  0  0  0  0  0  0  0  0  0  0  0
    7.5925   10.3116   24.8532 C   0  0  0  0  0  0  0  0  0  0  0  0
    7.2470   11.5374   25.4147 C   0  0  0  0  0  0  0  0  0  0  0  0
    6.0771   11.5601   26.3565 C   0  0  0  0  0  0  0  0  0  0  0  0
    5.5515   10.5008   26.7035 O   0  0  0  0  0  0  0  0  0  0  0  0
    5.5474   12.7619   26.7538 N   0  0  0  0  0  0  0  0  0  0  0  0
    5.9230   13.4478   27.9655 C   0  0  0  0  0  0  0  0  0  0  0  0
    4.8775   14.5561   28.1073 C   0  0  0  0  0  0  0  0  0  0  0  0
    3.7658   14.1822   27.1320 C   0  0  0  0  0  0  0  0  0  0  0  0
    4.5459   13.5039   26.0197 C   0  0  0  0  0  0  0  0  0  0  0  0
    7.9374   12.6810   25.1719 N   0  0  0  0  0  0  0  0  0  0  0  0
  1  2  2  0
  2  3  1  0
  4  3  1  6
  4  5  1  0
  5  6  1  0
  6  7  1  0
  7  8  1  0
  8  9  1  0
  2 10  1  0
 10 11  2  0
 11 12  1  0
 12 13  2  0
 13 14  1  0
 14 15  1  0
 15 16  2  0
 15 17  1  0
 17 18  1  0
 18 19  1  0
 19 20  1  0
 20 21  1  0
 14 22  2  0
  7  4  1  0
 22 10  1  0
  9  7  1  0
 21 17  1  0
M  END
>  <energy_score>  (1210) 
-12.306957

>  <inchikey>  (1210) 
None

>  <smiles>  (1210) 
None

>  <ref_pdb>  (1210) 
A3181a

>  <alias>  (1210) 
None

>  <HIPPO Pose ID>  (1210) 
498854

>  <name>  (1210) 
P498854

>  <HIPPO Compound ID>  (1210) 
293955

>  <ref_mols>  (1210) 
A3181a,A3618a

>  <distance_score>  (1210) 
1.952539

>  <inspiration_score>  (1210) 
None

$$$$
P498855
     RDKit          3D

 22 23  0  0  0  0  0  0  0  0999 V2000
    9.6588    8.7424   22.9813 C   0  0  0  0  0  0  0  0  0  0  0  0
    9.0560    9.8305   23.6787 N   0  0  0  0  0  0  0  0  0  0  0  0
    7.8577    9.8601   24.6307 C   0  0  0  0  0  0  0  0  0  0  0  0
    7.1204    9.0165   24.9412 O   0  0  0  0  0  0  0  0  0  0  0  0
    7.6581   11.2424   25.1561 C   0  0  0  0  0  0  0  0  0  0  0  0
    6.5846   11.4738   26.0139 C   0  0  0  0  0  0  0  0  0  0  0  0
    6.4103   12.7486   26.5172 C   0  0  0  0  0  0  0  0  0  0  0  0
    7.3262   13.7285   26.1751 C   0  0  0  0  0  0  0  0  0  0  0  0
    8.3831   13.4015   25.3325 C   0  0  0  0  0  0  0  0  0  0  0  0
    9.4078   14.4539   25.0526 C   0  0  0  0  0  0  0  0  0  0  0  0
    9.4763   15.3848   25.7483 O   0  0  0  0  0  0  0  0  0  0  0  0
   10.1585   14.1234   23.7580 N   0  0  0  0  0  0  0  0  0  0  0  0
   11.0811   14.9046   22.9931 C   0  0  1  0  0  0  0  0  0  0  0  0
   12.2136   14.1012   22.3872 C   0  0  0  0  0  0  0  0  0  0  0  0
   10.3460   15.6880   21.9570 C   0  0  2  0  0  0  0  0  0  0  0  0
    8.8414   15.8545   21.8046 C   0  0  0  0  0  0  0  0  0  0  0  0
    9.5869   14.9758   20.8614 C   0  0  1  0  0  0  0  0  0  0  0  0
   10.0679   15.3825   19.5435 C   0  0  0  0  0  0  0  0  0  0  0  0
    9.5951   16.3005   18.8994 O   0  0  0  0  0  0  0  0  0  0  0  0
   11.1415   14.6337   19.2536 O   0  0  0  0  0  0  0  0  0  0  0  0
   11.8966   15.1316   18.1865 C   0  0  0  0  0  0  0  0  0  0  0  0
    8.5777   12.1771   24.7775 N   0  0  0  0  0  0  0  0  0  0  0  0
  1  2  1  0
  2  3  1  0
  3  4  2  0
  3  5  1  0
  5  6  2  0
  6  7  1  0
  7  8  2  0
  8  9  1  0
  9 10  1  0
 10 11  2  0
 10 12  1  0
 12 13  1  0
 13 14  1  6
 13 15  1  0
 15 16  1  1
 16 17  1  0
 17 18  1  6
 18 19  2  0
 18 20  1  0
 20 21  1  0
  9 22  2  0
 22  5  1  0
 17 15  1  0
M  END
>  <energy_score>  (1211) 
-6.083795

>  <inchikey>  (1211) 
None

>  <smiles>  (1211) 
None

>  <ref_pdb>  (1211) 
A3181a

>  <alias>  (1211) 
None

>  <HIPPO Pose ID>  (1211) 
498855

>  <name>  (1211) 
P498855

>  <HIPPO Compound ID>  (1211) 
293958

>  <ref_mols>  (1211) 
A3181a,A3618a

>  <distance_score>  (1211) 
1.790394

>  <inspiration_score>  (1211) 
None

$$$$
P498856
     RDKit          3D

 22 25  0  0  0  0  0  0  0  0999 V2000
   10.0751   14.5145   25.1619 O   0  0  0  0  0  0  0  0  0  0  0  0
    9.8653   13.8950   24.1922 C   0  0  0  0  0  0  0  0  0  0  0  0
   10.3506   14.1142   22.7341 N   0  0  0  0  0  0  0  0  0  0  0  0
   11.1238   15.2053   22.1455 C   0  0  1  0  0  0  0  0  0  0  0  0
   12.3127   14.7482   21.2962 C   0  0  0  0  0  0  0  0  0  0  0  0
   11.5410   15.0660   20.0174 C   0  0  0  0  0  0  0  0  0  0  0  0
   10.5254   15.6993   20.8837 C   0  0  0  0  0  0  0  0  0  0  0  0
    9.8310   16.9862   20.5574 C   0  0  0  0  0  0  0  0  0  0  0  0
    9.0592   15.7058   20.5966 C   0  0  0  0  0  0  0  0  0  0  0  0
    9.0207   12.6450   24.3234 C   0  0  0  0  0  0  0  0  0  0  0  0
    9.3959   11.4715   23.6834 C   0  0  0  0  0  0  0  0  0  0  0  0
    8.6976   10.2991   23.9583 C   0  0  0  0  0  0  0  0  0  0  0  0
    7.6302   10.3384   24.8433 C   0  0  0  0  0  0  0  0  0  0  0  0
    7.2829   11.5600   25.4120 C   0  0  0  0  0  0  0  0  0  0  0  0
    6.0987   11.5805   26.3337 C   0  0  0  0  0  0  0  0  0  0  0  0
    5.5670   10.5207   26.6698 O   0  0  0  0  0  0  0  0  0  0  0  0
    5.5571   12.7828   26.7114 N   0  0  0  0  0  0  0  0  0  0  0  0
    4.5729   13.5178   25.9417 C   0  0  0  0  0  0  0  0  0  0  0  0
    4.0216   14.5637   26.9073 C   0  0  0  0  0  0  0  0  0  0  0  0
    4.5685   14.1417   28.2677 C   0  0  0  0  0  0  0  0  0  0  0  0
    5.8943   13.4762   27.9245 C   0  0  0  0  0  0  0  0  0  0  0  0
    7.9747   12.7062   25.1850 N   0  0  0  0  0  0  0  0  0  0  0  0
  1  2  2  0
  2  3  1  0
  4  3  1  6
  4  5  1  0
  5  6  1  0
  6  7  1  0
  7  8  1  0
  8  9  1  0
  2 10  1  0
 10 11  2  0
 11 12  1  0
 12 13  2  0
 13 14  1  0
 14 15  1  0
 15 16  2  0
 15 17  1  0
 17 18  1  0
 18 19  1  0
 19 20  1  0
 20 21  1  0
 14 22  2  0
  7  4  1  0
 22 10  1  0
  9  7  1  0
 21 17  1  0
M  END
>  <energy_score>  (1212) 
-2.870709

>  <inchikey>  (1212) 
None

>  <smiles>  (1212) 
None

>  <ref_pdb>  (1212) 
A3181a

>  <alias>  (1212) 
None

>  <HIPPO Pose ID>  (1212) 
498856

>  <name>  (1212) 
P498856

>  <HIPPO Compound ID>  (1212) 
293975

>  <ref_mols>  (1212) 
A3181a,A3618a

>  <distance_score>  (1212) 
1.950108

>  <inspiration_score>  (1212) 
None

$$$$
P498857
     RDKit          3D

 22 25  0  0  0  0  0  0  0  0999 V2000
   10.7685   12.1615   23.5689 O   0  0  0  0  0  0  0  0  0  0  0  0
    9.7405   12.6814   23.3826 C   0  0  0  0  0  0  0  0  0  0  0  0
    9.3928   13.9594   22.5794 N   0  0  0  0  0  0  0  0  0  0  0  0
   10.2552   14.9191   21.9158 C   0  0  1  0  0  0  0  0  0  0  0  0
   11.6910   14.5617   21.7258 C   0  0  2  0  0  0  0  0  0  0  0  0
   12.6389   15.6941   21.4529 C   0  0  0  0  0  0  0  0  0  0  0  0
   12.1063   14.8590   20.3260 C   0  0  2  0  0  0  0  0  0  0  0  0
   10.9073   15.2484   19.5278 C   0  0  0  0  0  0  0  0  0  0  0  0
    9.7642   15.4329   20.5315 C   0  0  2  0  0  0  0  0  0  0  0  0
    9.5089   16.7721   20.6229 F   0  0  0  0  0  0  0  0  0  0  0  0
    8.5043   12.1582   24.0685 C   0  0  0  0  0  0  0  0  0  0  0  0
    8.4495   10.9232   24.7215 C   0  0  0  0  0  0  0  0  0  0  0  0
    7.4225   10.6772   25.6566 C   0  0  0  0  0  0  0  0  0  0  0  0
    6.5450   11.7032   25.9201 C   0  0  0  0  0  0  0  0  0  0  0  0
    6.5758   12.7942   25.0972 C   0  0  0  0  0  0  0  0  0  0  0  0
    7.5190   13.0673   24.1672 N   0  0  0  0  0  0  0  0  0  0  0  0
    5.4291   13.6867   25.2996 C   0  0  0  0  0  0  0  0  0  0  0  0
    5.3148   14.7817   24.7985 O   0  0  0  0  0  0  0  0  0  0  0  0
    4.5275   13.1165   26.2284 N   0  0  0  0  0  0  0  0  0  0  0  0
    5.2800   11.9189   27.0982 S   0  0  0  0  0  0  0  0  0  0  0  0
    4.4458   10.7540   27.2116 O   0  0  0  0  0  0  0  0  0  0  0  0
    5.8314   12.5679   28.2583 O   0  0  0  0  0  0  0  0  0  0  0  0
  1  2  2  0
  2  3  1  0
  4  3  1  6
  4  5  1  0
  5  6  1  1
  7  6  1  1
  7  8  1  0
  8  9  1  0
  9 10  1  1
  2 11  1  0
 11 12  2  0
 12 13  1  0
 13 14  2  0
 14 15  1  0
 15 16  2  0
 15 17  1  0
 17 18  2  0
 17 19  1  0
 19 20  1  0
 20 21  2  0
 20 22  2  0
  9  4  1  0
 16 11  1  0
  7  5  1  0
 20 14  1  0
M  END
>  <energy_score>  (1213) 
-0.482378

>  <inchikey>  (1213) 
None

>  <smiles>  (1213) 
None

>  <ref_pdb>  (1213) 
A3181a

>  <alias>  (1213) 
None

>  <HIPPO Pose ID>  (1213) 
498857

>  <name>  (1213) 
P498857

>  <HIPPO Compound ID>  (1213) 
293977

>  <ref_mols>  (1213) 
A3181a,A3618a

>  <distance_score>  (1213) 
1.931413

>  <inspiration_score>  (1213) 
None

$$$$
P498858
     RDKit          3D

 22 25  0  0  0  0  0  0  0  0999 V2000
   10.7232   11.6601   23.6248 O   0  0  0  0  0  0  0  0  0  0  0  0
    9.8111   12.3840   23.6314 C   0  0  0  0  0  0  0  0  0  0  0  0
    9.7009   13.8613   23.1861 N   0  0  0  0  0  0  0  0  0  0  0  0
   10.6967   14.7640   22.7376 C   0  0  1  0  0  0  0  0  0  0  0  0
   11.7817   14.6175   21.6826 C   0  0  0  0  0  0  0  0  0  0  0  0
   10.5655   15.3573   21.3945 C   0  0  2  0  0  0  0  0  0  0  0  0
    9.9685   16.6384   21.0026 C   0  0  0  0  0  0  0  0  0  0  0  0
    9.6329   15.3630   20.2921 C   0  0  0  0  0  0  0  0  0  0  0  0
    9.9809   15.3375   18.9641 F   0  0  0  0  0  0  0  0  0  0  0  0
    8.3700   14.8274   20.4248 F   0  0  0  0  0  0  0  0  0  0  0  0
    8.5009   11.9435   24.2395 C   0  0  0  0  0  0  0  0  0  0  0  0
    8.2083   10.6327   24.6344 C   0  0  0  0  0  0  0  0  0  0  0  0
    7.1052   10.3868   25.4932 C   0  0  0  0  0  0  0  0  0  0  0  0
    6.3626   11.4715   25.9283 C   0  0  0  0  0  0  0  0  0  0  0  0
    6.7467   12.7067   25.4814 C   0  0  0  0  0  0  0  0  0  0  0  0
    7.7415   12.9855   24.6108 N   0  0  0  0  0  0  0  0  0  0  0  0
    6.1835   13.8033   26.2640 C   0  0  0  0  0  0  0  0  0  0  0  0
    6.2502   14.9726   25.9624 O   0  0  0  0  0  0  0  0  0  0  0  0
    5.5893   13.3017   27.4389 N   0  0  0  0  0  0  0  0  0  0  0  0
    5.2875   11.6698   27.3007 S   0  0  0  0  0  0  0  0  0  0  0  0
    3.8895   11.5979   26.9764 O   0  0  0  0  0  0  0  0  0  0  0  0
    5.8372   10.9757   28.4350 O   0  0  0  0  0  0  0  0  0  0  0  0
  1  2  2  0
  2  3  1  0
  4  3  1  6
  4  5  1  0
  6  5  1  6
  6  7  1  0
  7  8  1  0
  8  9  1  0
  8 10  1  0
  2 11  1  0
 11 12  2  0
 12 13  1  0
 13 14  2  0
 14 15  1  0
 15 16  2  0
 15 17  1  0
 17 18  2  0
 17 19  1  0
 19 20  1  0
 20 21  2  0
 20 22  2  0
  6  4  1  0
 16 11  1  0
  8  6  1  0
 20 14  1  0
M  END
>  <energy_score>  (1214) 
-0.261351

>  <inchikey>  (1214) 
None

>  <smiles>  (1214) 
None

>  <ref_pdb>  (1214) 
A3181a

>  <alias>  (1214) 
None

>  <HIPPO Pose ID>  (1214) 
498858

>  <name>  (1214) 
P498858

>  <HIPPO Compound ID>  (1214) 
293983

>  <ref_mols>  (1214) 
A3181a,A3618a

>  <distance_score>  (1214) 
1.965083

>  <inspiration_score>  (1214) 
None

$$$$
P498859
     RDKit          3D

 22 23  0  0  0  0  0  0  0  0999 V2000
    9.6282    8.8720   23.3078 C   0  0  0  0  0  0  0  0  0  0  0  0
    8.9766   10.0887   23.6829 N   0  0  0  0  0  0  0  0  0  0  0  0
    7.9399   10.3678   24.7820 C   0  0  0  0  0  0  0  0  0  0  0  0
    7.5088    9.6702   25.6053 O   0  0  0  0  0  0  0  0  0  0  0  0
    7.4974   11.8111   24.6825 C   0  0  0  0  0  0  0  0  0  0  0  0
    8.1643   12.5180   23.7033 N   0  0  0  0  0  0  0  0  0  0  0  0
    7.7159   13.7862   23.4837 C   0  0  0  0  0  0  0  0  0  0  0  0
    8.6426   14.7229   22.7711 C   0  0  0  0  0  0  0  0  0  0  0  0
    8.2577   15.6939   22.2680 O   0  0  0  0  0  0  0  0  0  0  0  0
   10.0645   14.1976   22.9506 N   0  0  0  0  0  0  0  0  0  0  0  0
   11.3346   14.8025   22.6322 C   0  0  2  0  0  0  0  0  0  0  0  0
   11.9272   14.6524   21.2443 C   0  0  0  0  0  0  0  0  0  0  0  0
   11.0931   15.3424   20.2200 N   0  0  0  0  0  0  0  0  0  0  0  0
   11.0376   14.8127   19.1046 O   0  0  0  0  0  0  0  0  0  0  0  0
   10.5942   16.4339   20.5119 O   0  0  0  0  0  0  0  0  0  0  0  0
   12.3102   14.3295   23.7018 C   0  0  0  0  0  0  0  0  0  0  0  0
   12.2740   13.0000   24.4182 C   0  0  0  0  0  0  0  0  0  0  0  0
   11.8225   14.2381   25.1378 C   0  0  0  0  0  0  0  0  0  0  0  0
    6.6851   14.3795   24.1953 C   0  0  0  0  0  0  0  0  0  0  0  0
    6.0865   13.6585   25.2218 C   0  0  0  0  0  0  0  0  0  0  0  0
    6.4920   12.3543   25.4912 C   0  0  0  0  0  0  0  0  0  0  0  0
    5.6745   11.5444   26.7734 Cl  0  0  0  0  0  0  0  0  0  0  0  0
  1  2  1  0
  2  3  1  0
  3  4  2  0
  3  5  1  0
  5  6  2  0
  6  7  1  0
  7  8  1  0
  8  9  2  0
  8 10  1  0
 10 11  1  0
 11 12  1  6
 12 13  1  0
 13 14  2  0
 13 15  1  0
 11 16  1  0
 16 17  1  0
 17 18  1  0
  7 19  2  0
 19 20  1  0
 20 21  2  0
 21 22  1  0
 21  5  1  0
 18 16  1  0
M  CHG  2  13   1  15  -1
M  END
>  <energy_score>  (1215) 
-1.952483

>  <inchikey>  (1215) 
None

>  <smiles>  (1215) 
None

>  <ref_pdb>  (1215) 
A3181a

>  <alias>  (1215) 
None

>  <HIPPO Pose ID>  (1215) 
498859

>  <name>  (1215) 
P498859

>  <HIPPO Compound ID>  (1215) 
294018

>  <ref_mols>  (1215) 
A3181a,A3618a

>  <distance_score>  (1215) 
1.754839

>  <inspiration_score>  (1215) 
None

$$$$
P498860
     RDKit          3D

 22 23  0  0  0  0  0  0  0  0999 V2000
    9.4266    8.7459   23.0980 C   0  0  0  0  0  0  0  0  0  0  0  0
    8.8703    9.8192   23.8669 N   0  0  0  0  0  0  0  0  0  0  0  0
    7.6326    9.8573   24.7808 C   0  0  0  0  0  0  0  0  0  0  0  0
    6.9155    9.0053   25.1132 O   0  0  0  0  0  0  0  0  0  0  0  0
    7.4072   11.2720   25.2469 C   0  0  0  0  0  0  0  0  0  0  0  0
    8.2448   12.1648   24.6403 N   0  0  0  0  0  0  0  0  0  0  0  0
    8.0480   13.4629   24.9755 C   0  0  0  0  0  0  0  0  0  0  0  0
    8.8953   14.4425   24.2707 C   0  0  0  0  0  0  0  0  0  0  0  0
    8.9851   15.5282   24.6722 O   0  0  0  0  0  0  0  0  0  0  0  0
    9.4568   13.8059   22.9992 N   0  0  0  0  0  0  0  0  0  0  0  0
   10.3314   14.3446   21.9914 C   0  0  1  0  0  0  0  0  0  0  0  0
    9.5526   15.3064   21.1449 C   0  0  0  0  0  0  0  0  0  0  0  0
   10.3684   15.9199   20.0869 N   0  0  0  0  0  0  0  0  0  0  0  0
   11.0172   15.1866   19.3348 O   0  0  0  0  0  0  0  0  0  0  0  0
   10.2632   17.1458   19.9996 O   0  0  0  0  0  0  0  0  0  0  0  0
   11.5246   14.9255   22.6616 C   0  0  0  0  0  0  0  0  0  0  0  0
   12.8447   14.8510   21.9662 C   0  0  0  0  0  0  0  0  0  0  0  0
   12.5868   14.0123   23.1928 C   0  0  0  0  0  0  0  0  0  0  0  0
    7.0964   13.9301   25.8599 C   0  0  0  0  0  0  0  0  0  0  0  0
    6.2846   12.9981   26.4746 C   0  0  0  0  0  0  0  0  0  0  0  0
    6.4395   11.6453   26.1848 C   0  0  0  0  0  0  0  0  0  0  0  0
    5.4678   10.5786   27.1048 Cl  0  0  0  0  0  0  0  0  0  0  0  0
  1  2  1  0
  2  3  1  0
  3  4  2  0
  3  5  1  0
  5  6  2  0
  6  7  1  0
  7  8  1  0
  8  9  2  0
  8 10  1  0
 10 11  1  0
 11 12  1  1
 12 13  1  0
 13 14  2  0
 13 15  1  0
 11 16  1  0
 16 17  1  0
 17 18  1  0
  7 19  2  0
 19 20  1  0
 20 21  2  0
 21 22  1  0
 21  5  1  0
 18 16  1  0
M  CHG  2  13   1  15  -1
M  END
>  <energy_score>  (1216) 
-24.305691

>  <inchikey>  (1216) 
None

>  <smiles>  (1216) 
None

>  <ref_pdb>  (1216) 
A3181a

>  <alias>  (1216) 
None

>  <HIPPO Pose ID>  (1216) 
498860

>  <name>  (1216) 
P498860

>  <HIPPO Compound ID>  (1216) 
294018

>  <ref_mols>  (1216) 
A3181a,A3618a

>  <distance_score>  (1216) 
1.859697

>  <inspiration_score>  (1216) 
None

$$$$
P498861
     RDKit          3D

 22 24  0  0  0  0  0  0  0  0999 V2000
    2.2725   14.0493   27.5877 C   0  0  0  0  0  0  0  0  0  0  0  0
    3.1576   12.8445   27.9465 C   0  0  2  0  0  0  0  0  0  0  0  0
    4.1909   12.6934   26.9436 N   0  0  0  0  0  0  0  0  0  0  0  0
    5.5446   11.9262   26.9951 C   0  0  0  0  0  0  0  0  0  0  0  0
    5.9934   11.2375   27.8261 O   0  0  0  0  0  0  0  0  0  0  0  0
    6.3580   12.2869   25.7564 C   0  0  0  0  0  0  0  0  0  0  0  0
    6.3602   13.6079   25.5052 C   0  0  0  0  0  0  0  0  0  0  0  0
    7.2335   14.1256   24.4517 C   0  0  0  0  0  0  0  0  0  0  0  0
    7.1622   15.2897   24.0926 O   0  0  0  0  0  0  0  0  0  0  0  0
    8.2517   13.2510   23.8980 C   0  0  0  0  0  0  0  0  0  0  0  0
    8.2238   11.9733   24.2739 C   0  0  0  0  0  0  0  0  0  0  0  0
    7.2338   11.4025   25.0849 N   0  0  0  0  0  0  0  0  0  0  0  0
    7.2750    9.9547   25.3288 C   0  0  0  0  0  0  0  0  0  0  0  0
    8.1609    9.2123   24.3003 C   0  0  0  0  0  0  0  0  0  0  0  0
    9.3901    9.8815   23.9988 N   0  0  0  0  0  0  0  0  0  0  0  0
    9.4369   11.2268   23.8361 C   0  0  0  0  0  0  0  0  0  0  0  0
   10.4403   11.8087   23.4524 O   0  0  0  0  0  0  0  0  0  0  0  0
    2.2993   11.6397   28.0550 C   0  0  2  0  0  0  0  0  0  0  0  0
    1.6361   11.3042   29.3809 C   0  0  0  0  0  0  0  0  0  0  0  0
    2.6922   10.4316   28.8151 C   0  0  0  0  0  0  0  0  0  0  0  0
    2.3462    9.1887   28.3310 F   0  0  0  0  0  0  0  0  0  0  0  0
    3.8816   10.3100   29.4839 F   0  0  0  0  0  0  0  0  0  0  0  0
  2  1  1  6
  2  3  1  0
  3  4  1  0
  4  5  2  0
  4  6  1  0
  6  7  2  0
  7  8  1  0
  8  9  2  0
  8 10  1  0
 10 11  2  0
 11 12  1  0
 12 13  1  0
 13 14  1  0
 14 15  1  0
 15 16  1  0
 16 17  2  0
  2 18  1  0
 18 19  1  1
 19 20  1  0
 20 21  1  0
 20 22  1  0
 12  6  1  0
 20 18  1  0
 16 11  1  0
M  END
>  <energy_score>  (1217) 
-41.146195

>  <inchikey>  (1217) 
None

>  <smiles>  (1217) 
None

>  <ref_pdb>  (1217) 
A3181a

>  <alias>  (1217) 
None

>  <HIPPO Pose ID>  (1217) 
498861

>  <name>  (1217) 
P498861

>  <HIPPO Compound ID>  (1217) 
294031

>  <ref_mols>  (1217) 
A3181a,A3618a

>  <distance_score>  (1217) 
1.579325

>  <inspiration_score>  (1217) 
None

$$$$
P498862
     RDKit          3D

 22 24  0  0  0  0  0  0  0  0999 V2000
    2.0575   13.2157   27.4193 C   0  0  0  0  0  0  0  0  0  0  0  0
    3.1543   12.2569   27.8867 C   0  0  1  0  0  0  0  0  0  0  0  0
    4.2463   12.2789   26.9435 N   0  0  0  0  0  0  0  0  0  0  0  0
    5.5717   11.4700   26.9163 C   0  0  0  0  0  0  0  0  0  0  0  0
    5.9465   10.6082   27.6100 O   0  0  0  0  0  0  0  0  0  0  0  0
    6.4708   12.0545   25.8302 C   0  0  0  0  0  0  0  0  0  0  0  0
    6.5113   13.3979   25.8039 C   0  0  0  0  0  0  0  0  0  0  0  0
    7.3752   14.0565   24.8237 C   0  0  0  0  0  0  0  0  0  0  0  0
    7.3324   15.2651   24.6591 O   0  0  0  0  0  0  0  0  0  0  0  0
    8.3464   13.2528   24.1027 C   0  0  0  0  0  0  0  0  0  0  0  0
    8.3020   11.9322   24.2805 C   0  0  0  0  0  0  0  0  0  0  0  0
    7.3214   11.2638   25.0204 N   0  0  0  0  0  0  0  0  0  0  0  0
    7.3859    9.7991   25.1233 C   0  0  0  0  0  0  0  0  0  0  0  0
    8.3136    9.1467   24.0766 C   0  0  0  0  0  0  0  0  0  0  0  0
    9.5008    9.8938   23.7852 N   0  0  0  0  0  0  0  0  0  0  0  0
    9.5024   11.2476   23.7252 C   0  0  0  0  0  0  0  0  0  0  0  0
   10.4713   11.8834   23.3374 O   0  0  0  0  0  0  0  0  0  0  0  0
    3.6864   12.5108   29.2661 C   0  0  2  0  0  0  0  0  0  0  0  0
    3.0655   13.4787   30.2620 C   0  0  0  0  0  0  0  0  0  0  0  0
    4.3580   13.7916   29.6063 C   0  0  0  0  0  0  0  0  0  0  0  0
    5.5205   13.7913   30.3413 F   0  0  0  0  0  0  0  0  0  0  0  0
    4.4460   14.8205   28.6993 F   0  0  0  0  0  0  0  0  0  0  0  0
  2  1  1  6
  2  3  1  0
  3  4  1  0
  4  5  2  0
  4  6  1  0
  6  7  2  0
  7  8  1  0
  8  9  2  0
  8 10  1  0
 10 11  2  0
 11 12  1  0
 12 13  1  0
 13 14  1  0
 14 15  1  0
 15 16  1  0
 16 17  2  0
  2 18  1  0
 18 19  1  1
 19 20  1  0
 20 21  1  0
 20 22  1  0
 12  6  1  0
 20 18  1  0
 16 11  1  0
M  END
>  <energy_score>  (1218) 
-33.509579

>  <inchikey>  (1218) 
None

>  <smiles>  (1218) 
None

>  <ref_pdb>  (1218) 
A3181a

>  <alias>  (1218) 
None

>  <HIPPO Pose ID>  (1218) 
498862

>  <name>  (1218) 
P498862

>  <HIPPO Compound ID>  (1218) 
294031

>  <ref_mols>  (1218) 
A3181a,A3618a

>  <distance_score>  (1218) 
1.713489

>  <inspiration_score>  (1218) 
None

$$$$
P498863
     RDKit          3D

 22 24  0  0  0  0  0  0  0  0999 V2000
    2.1950   12.9571   27.6929 C   0  0  0  0  0  0  0  0  0  0  0  0
    3.4976   12.7556   28.4785 C   0  0  2  0  0  0  0  0  0  0  0  0
    4.6229   12.7763   27.5657 N   0  0  0  0  0  0  0  0  0  0  0  0
    5.3312   11.6166   26.8100 C   0  0  0  0  0  0  0  0  0  0  0  0
    5.1641   10.4621   26.8690 O   0  0  0  0  0  0  0  0  0  0  0  0
    6.3301   12.1855   25.7667 C   0  0  0  0  0  0  0  0  0  0  0  0
    6.1447   13.4469   25.3344 C   0  0  0  0  0  0  0  0  0  0  0  0
    7.0897   14.0359   24.3814 C   0  0  0  0  0  0  0  0  0  0  0  0
    6.9597   15.1878   23.9988 O   0  0  0  0  0  0  0  0  0  0  0  0
    8.2275   13.2538   23.9384 C   0  0  0  0  0  0  0  0  0  0  0  0
    8.2846   11.9886   24.3455 C   0  0  0  0  0  0  0  0  0  0  0  0
    7.3308   11.3684   25.1575 N   0  0  0  0  0  0  0  0  0  0  0  0
    7.3406    9.8961   25.2384 C   0  0  0  0  0  0  0  0  0  0  0  0
    8.2742    9.2291   24.2032 C   0  0  0  0  0  0  0  0  0  0  0  0
    9.4926    9.9394   23.9607 N   0  0  0  0  0  0  0  0  0  0  0  0
    9.5163   11.2941   23.8809 C   0  0  0  0  0  0  0  0  0  0  0  0
   10.5075   11.9155   23.5292 O   0  0  0  0  0  0  0  0  0  0  0  0
    3.5762   11.5647   29.3839 C   0  0  1  0  0  0  0  0  0  0  0  0
    2.4724   11.2643   30.3823 C   0  0  0  0  0  0  0  0  0  0  0  0
    2.7395   10.3474   29.2431 C   0  0  0  0  0  0  0  0  0  0  0  0
    1.7784   10.1916   28.2720 F   0  0  0  0  0  0  0  0  0  0  0  0
    3.2464    9.0973   29.5090 F   0  0  0  0  0  0  0  0  0  0  0  0
  2  1  1  6
  2  3  1  0
  3  4  1  0
  4  5  2  0
  4  6  1  0
  6  7  2  0
  7  8  1  0
  8  9  2  0
  8 10  1  0
 10 11  2  0
 11 12  1  0
 12 13  1  0
 13 14  1  0
 14 15  1  0
 15 16  1  0
 16 17  2  0
  2 18  1  0
 18 19  1  1
 19 20  1  0
 20 21  1  0
 20 22  1  0
 12  6  1  0
 20 18  1  0
 16 11  1  0
M  END
>  <energy_score>  (1219) 
-35.37108

>  <inchikey>  (1219) 
None

>  <smiles>  (1219) 
None

>  <ref_pdb>  (1219) 
A3181a

>  <alias>  (1219) 
None

>  <HIPPO Pose ID>  (1219) 
498863

>  <name>  (1219) 
P498863

>  <HIPPO Compound ID>  (1219) 
294031

>  <ref_mols>  (1219) 
A3181a,A3618a

>  <distance_score>  (1219) 
1.589037

>  <inspiration_score>  (1219) 
None

$$$$
P498864
     RDKit          3D

 22 24  0  0  0  0  0  0  0  0999 V2000
    2.0787   13.4472   27.3301 C   0  0  0  0  0  0  0  0  0  0  0  0
    3.0693   12.3582   27.7571 C   0  0  1  0  0  0  0  0  0  0  0  0
    4.1936   12.3537   26.8478 N   0  0  0  0  0  0  0  0  0  0  0  0
    5.5106   11.5294   26.8761 C   0  0  0  0  0  0  0  0  0  0  0  0
    5.8527   10.6745   27.5945 O   0  0  0  0  0  0  0  0  0  0  0  0
    6.4438   12.0913   25.8100 C   0  0  0  0  0  0  0  0  0  0  0  0
    6.4791   13.4337   25.7637 C   0  0  0  0  0  0  0  0  0  0  0  0
    7.3715   14.0799   24.8020 C   0  0  0  0  0  0  0  0  0  0  0  0
    7.3416   15.2886   24.6351 O   0  0  0  0  0  0  0  0  0  0  0  0
    8.3500   13.2655   24.1027 C   0  0  0  0  0  0  0  0  0  0  0  0
    8.2990   11.9466   24.2922 C   0  0  0  0  0  0  0  0  0  0  0  0
    7.3089   11.2892   25.0296 N   0  0  0  0  0  0  0  0  0  0  0  0
    7.3659    9.8249   25.1482 C   0  0  0  0  0  0  0  0  0  0  0  0
    8.2922    9.1608   24.1071 C   0  0  0  0  0  0  0  0  0  0  0  0
    9.4867    9.8971   23.8176 N   0  0  0  0  0  0  0  0  0  0  0  0
    9.4983   11.2504   23.7486 C   0  0  0  0  0  0  0  0  0  0  0  0
   10.4737   11.8773   23.3623 O   0  0  0  0  0  0  0  0  0  0  0  0
    3.5525   12.5949   29.1541 C   0  0  1  0  0  0  0  0  0  0  0  0
    2.6131   12.4723   30.3406 C   0  0  0  0  0  0  0  0  0  0  0  0
    3.6563   11.4474   30.0889 C   0  0  0  0  0  0  0  0  0  0  0  0
    3.2604   10.1780   29.7351 F   0  0  0  0  0  0  0  0  0  0  0  0
    4.7112   11.3304   30.9624 F   0  0  0  0  0  0  0  0  0  0  0  0
  2  1  1  6
  2  3  1  0
  3  4  1  0
  4  5  2  0
  4  6  1  0
  6  7  2  0
  7  8  1  0
  8  9  2  0
  8 10  1  0
 10 11  2  0
 11 12  1  0
 12 13  1  0
 13 14  1  0
 14 15  1  0
 15 16  1  0
 16 17  2  0
  2 18  1  0
 18 19  1  1
 19 20  1  0
 20 21  1  0
 20 22  1  0
 12  6  1  0
 20 18  1  0
 16 11  1  0
M  END
>  <energy_score>  (1220) 
-34.341342

>  <inchikey>  (1220) 
None

>  <smiles>  (1220) 
None

>  <ref_pdb>  (1220) 
A3181a

>  <alias>  (1220) 
None

>  <HIPPO Pose ID>  (1220) 
498864

>  <name>  (1220) 
P498864

>  <HIPPO Compound ID>  (1220) 
294031

>  <ref_mols>  (1220) 
A3181a,A3618a

>  <distance_score>  (1220) 
1.60116

>  <inspiration_score>  (1220) 
None

$$$$
P498865
     RDKit          3D

 22 25  0  0  0  0  0  0  0  0999 V2000
   11.6048   15.1324   19.2909 C   0  0  0  0  0  0  0  0  0  0  0  0
   10.6997   15.3339   20.4886 C   0  0  0  0  0  0  0  0  0  0  0  0
   11.1110   14.6114   21.8292 C   0  0  0  0  0  0  0  0  0  0  0  0
   10.0702   14.0818   22.6566 N   0  0  0  0  0  0  0  0  0  0  0  0
    9.9454   14.0188   24.1974 C   0  0  0  0  0  0  0  0  0  0  0  0
   10.6355   14.4581   25.0318 O   0  0  0  0  0  0  0  0  0  0  0  0
    8.7662   13.1531   24.5448 C   0  0  0  0  0  0  0  0  0  0  0  0
    7.8375   13.8053   25.2535 C   0  0  0  0  0  0  0  0  0  0  0  0
    6.7464   13.0090   25.8303 C   0  0  0  0  0  0  0  0  0  0  0  0
    5.8753   13.5269   26.5076 O   0  0  0  0  0  0  0  0  0  0  0  0
    6.7334   11.5663   25.6409 C   0  0  0  0  0  0  0  0  0  0  0  0
    7.6948   11.0319   24.8828 C   0  0  0  0  0  0  0  0  0  0  0  0
    8.7333   11.7680   24.2961 N   0  0  0  0  0  0  0  0  0  0  0  0
    9.7070   11.1071   23.4165 C   0  0  0  0  0  0  0  0  0  0  0  0
    9.6403    9.5789   23.3983 C   0  0  0  0  0  0  0  0  0  0  0  0
    8.3486    9.0345   23.7000 N   0  0  0  0  0  0  0  0  0  0  0  0
    7.5092    9.5800   24.6168 C   0  0  0  0  0  0  0  0  0  0  0  0
    6.6017    8.9316   25.1219 O   0  0  0  0  0  0  0  0  0  0  0  0
   12.3434   13.7360   21.8676 C   0  0  0  0  0  0  0  0  0  0  0  0
   12.3987   15.0891   22.4691 C   0  0  0  0  0  0  0  0  0  0  0  0
   10.0035   16.6814   20.5577 C   0  0  0  0  0  0  0  0  0  0  0  0
    9.2538   15.4821   20.1062 C   0  0  0  0  0  0  0  0  0  0  0  0
  1  2  1  0
  2  3  1  0
  3  4  1  0
  4  5  1  0
  5  6  2  0
  5  7  1  0
  7  8  2  0
  8  9  1  0
  9 10  2  0
  9 11  1  0
 11 12  2  0
 12 13  1  0
 13 14  1  0
 14 15  1  0
 15 16  1  0
 16 17  1  0
 17 18  2  0
  3 19  1  0
 19 20  1  0
  2 21  1  0
 21 22  1  0
 22  2  1  0
 20  3  1  0
 13  7  1  0
 17 12  1  0
M  END
>  <energy_score>  (1221) 
-41.087196

>  <inchikey>  (1221) 
None

>  <smiles>  (1221) 
None

>  <ref_pdb>  (1221) 
A3181a

>  <alias>  (1221) 
None

>  <HIPPO Pose ID>  (1221) 
498865

>  <name>  (1221) 
P498865

>  <HIPPO Compound ID>  (1221) 
294032

>  <ref_mols>  (1221) 
A3181a,A3618a

>  <distance_score>  (1221) 
1.614573

>  <inspiration_score>  (1221) 
None

$$$$
P498866
     RDKit          3D

 22 25  0  0  0  0  0  0  0  0999 V2000
    6.6087    8.9340   25.0915 O   0  0  0  0  0  0  0  0  0  0  0  0
    7.5413    9.5555   24.5975 C   0  0  0  0  0  0  0  0  0  0  0  0
    8.3685    8.9950   23.6765 N   0  0  0  0  0  0  0  0  0  0  0  0
    9.6700    9.5170   23.3605 C   0  0  0  0  0  0  0  0  0  0  0  0
    9.7473   11.0426   23.3782 C   0  0  0  0  0  0  0  0  0  0  0  0
    8.8896   11.6781   24.3774 N   0  0  0  0  0  0  0  0  0  0  0  0
    7.7799   10.9942   24.8908 C   0  0  0  0  0  0  0  0  0  0  0  0
    6.8078   11.5719   25.6022 C   0  0  0  0  0  0  0  0  0  0  0  0
    6.8901   13.0112   25.8035 C   0  0  0  0  0  0  0  0  0  0  0  0
    5.9980   13.5798   26.4092 O   0  0  0  0  0  0  0  0  0  0  0  0
    8.0742   13.7405   25.3261 C   0  0  0  0  0  0  0  0  0  0  0  0
    9.0084   13.0387   24.6708 C   0  0  0  0  0  0  0  0  0  0  0  0
   10.2612   13.8409   24.4407 C   0  0  0  0  0  0  0  0  0  0  0  0
   10.9900   14.0706   25.3206 O   0  0  0  0  0  0  0  0  0  0  0  0
   10.2824   14.3174   22.9768 N   0  0  0  0  0  0  0  0  0  0  0  0
   11.1366   15.2377   22.3210 C   0  0  1  0  0  0  0  0  0  0  0  0
   12.0975   15.0890   21.1668 C   0  0  0  0  0  0  0  0  0  0  0  0
   13.2396   15.8550   21.1807 F   0  0  0  0  0  0  0  0  0  0  0  0
   12.4475   13.8374   20.7328 F   0  0  0  0  0  0  0  0  0  0  0  0
   10.7954   15.6719   20.9540 C   0  0  0  0  0  0  0  0  0  0  0  0
    9.7088   15.4069   20.0174 C   0  0  0  0  0  0  0  0  0  0  0  0
   10.0356   16.8224   20.4665 C   0  0  0  0  0  0  0  0  0  0  0  0
  1  2  2  0
  2  3  1  0
  3  4  1  0
  4  5  1  0
  5  6  1  0
  6  7  1  0
  7  8  2  0
  8  9  1  0
  9 10  2  0
  9 11  1  0
 11 12  2  0
 12 13  1  0
 13 14  2  0
 13 15  1  0
 16 15  1  6
 16 17  1  0
 17 18  1  0
 17 19  1  0
 17 20  1  0
 20 21  1  0
 21 22  1  0
  7  2  1  0
 20 16  1  0
 12  6  1  0
 22 20  1  0
M  END
>  <energy_score>  (1222) 
-30.295763

>  <inchikey>  (1222) 
None

>  <smiles>  (1222) 
None

>  <ref_pdb>  (1222) 
A3181a

>  <alias>  (1222) 
None

>  <HIPPO Pose ID>  (1222) 
498866

>  <name>  (1222) 
P498866

>  <HIPPO Compound ID>  (1222) 
294034

>  <ref_mols>  (1222) 
A3181a,A3618a

>  <distance_score>  (1222) 
1.620156

>  <inspiration_score>  (1222) 
None

$$$$
P498867
     RDKit          3D

 22 25  0  0  0  0  0  0  0  0999 V2000
    6.6254    8.8472   25.1546 O   0  0  0  0  0  0  0  0  0  0  0  0
    7.5463    9.4617   24.6347 C   0  0  0  0  0  0  0  0  0  0  0  0
    8.3538    8.8976   23.7000 N   0  0  0  0  0  0  0  0  0  0  0  0
    9.6253    9.4406   23.3171 C   0  0  0  0  0  0  0  0  0  0  0  0
    9.6776   10.9673   23.2872 C   0  0  0  0  0  0  0  0  0  0  0  0
    8.6642   11.6353   24.1023 N   0  0  0  0  0  0  0  0  0  0  0  0
    7.7643   10.9039   24.8833 C   0  0  0  0  0  0  0  0  0  0  0  0
    6.9055   11.4495   25.7498 C   0  0  0  0  0  0  0  0  0  0  0  0
    6.9269   12.9019   25.8591 C   0  0  0  0  0  0  0  0  0  0  0  0
    6.3988   13.4353   26.8190 O   0  0  0  0  0  0  0  0  0  0  0  0
    7.5962   13.6805   24.8093 C   0  0  0  0  0  0  0  0  0  0  0  0
    8.4173   13.0025   23.9966 C   0  0  0  0  0  0  0  0  0  0  0  0
    8.8395   13.8221   22.8247 C   0  0  0  0  0  0  0  0  0  0  0  0
    8.0877   14.0614   21.9664 O   0  0  0  0  0  0  0  0  0  0  0  0
   10.2876   14.3074   23.0513 N   0  0  0  0  0  0  0  0  0  0  0  0
   11.0675   15.2487   22.3306 C   0  0  1  0  0  0  0  0  0  0  0  0
   12.0893   15.0626   21.2344 C   0  0  0  0  0  0  0  0  0  0  0  0
   13.2290   15.8311   21.2955 F   0  0  0  0  0  0  0  0  0  0  0  0
   12.4730   13.7844   20.9178 F   0  0  0  0  0  0  0  0  0  0  0  0
   10.7949   15.6252   20.9325 C   0  0  0  0  0  0  0  0  0  0  0  0
    9.8335   15.4006   19.8643 C   0  0  0  0  0  0  0  0  0  0  0  0
   10.0728   16.7937   20.4146 C   0  0  0  0  0  0  0  0  0  0  0  0
  1  2  2  0
  2  3  1  0
  3  4  1  0
  4  5  1  0
  5  6  1  0
  6  7  1  0
  7  8  2  0
  8  9  1  0
  9 10  2  0
  9 11  1  0
 11 12  2  0
 12 13  1  0
 13 14  2  0
 13 15  1  0
 16 15  1  6
 16 17  1  0
 17 18  1  0
 17 19  1  0
 17 20  1  0
 20 21  1  0
 21 22  1  0
  7  2  1  0
 20 16  1  0
 12  6  1  0
 22 20  1  0
M  END
>  <energy_score>  (1223) 
-27.413755

>  <inchikey>  (1223) 
None

>  <smiles>  (1223) 
None

>  <ref_pdb>  (1223) 
A3181a

>  <alias>  (1223) 
None

>  <HIPPO Pose ID>  (1223) 
498867

>  <name>  (1223) 
P498867

>  <HIPPO Compound ID>  (1223) 
294034

>  <ref_mols>  (1223) 
A3181a,A3618a

>  <distance_score>  (1223) 
1.620953

>  <inspiration_score>  (1223) 
None

$$$$
P498868
     RDKit          3D

 22 25  0  0  0  0  0  0  0  0999 V2000
    6.4639    9.7382   26.0840 O   0  0  0  0  0  0  0  0  0  0  0  0
    7.3304    9.9864   25.2592 C   0  0  0  0  0  0  0  0  0  0  0  0
    8.0887    9.0216   24.6800 N   0  0  0  0  0  0  0  0  0  0  0  0
    8.9642    9.2209   23.5539 C   0  0  0  0  0  0  0  0  0  0  0  0
    9.5923   10.6048   23.4819 C   0  0  0  0  0  0  0  0  0  0  0  0
    8.8179   11.6652   24.1448 N   0  0  0  0  0  0  0  0  0  0  0  0
    7.6892   11.3698   24.9162 C   0  0  0  0  0  0  0  0  0  0  0  0
    6.9162   12.2695   25.5330 C   0  0  0  0  0  0  0  0  0  0  0  0
    7.3334   13.6650   25.4634 C   0  0  0  0  0  0  0  0  0  0  0  0
    6.6842   14.5548   25.9987 O   0  0  0  0  0  0  0  0  0  0  0  0
    8.6185   13.9668   24.8211 C   0  0  0  0  0  0  0  0  0  0  0  0
    9.2833   12.9776   24.2047 C   0  0  0  0  0  0  0  0  0  0  0  0
   10.6605   13.3917   23.7657 C   0  0  0  0  0  0  0  0  0  0  0  0
   11.6346   12.9759   24.2529 O   0  0  0  0  0  0  0  0  0  0  0  0
   10.4661   14.4813   22.6902 N   0  0  0  0  0  0  0  0  0  0  0  0
   11.3978   15.3307   22.0748 C   0  0  1  0  0  0  0  0  0  0  0  0
   12.3107   15.0674   20.8917 C   0  0  0  0  0  0  0  0  0  0  0  0
   11.0563   15.7870   20.7297 C   0  0  2  0  0  0  0  0  0  0  0  0
   10.2729   16.8981   20.1796 C   0  0  0  0  0  0  0  0  0  0  0  0
    9.9996   15.4936   19.7862 C   0  0  0  0  0  0  0  0  0  0  0  0
    8.8019   14.9462   20.1564 F   0  0  0  0  0  0  0  0  0  0  0  0
   10.3345   15.0465   18.5322 F   0  0  0  0  0  0  0  0  0  0  0  0
  1  2  2  0
  2  3  1  0
  3  4  1  0
  4  5  1  0
  5  6  1  0
  6  7  1  0
  7  8  2  0
  8  9  1  0
  9 10  2  0
  9 11  1  0
 11 12  2  0
 12 13  1  0
 13 14  2  0
 13 15  1  0
 16 15  1  6
 16 17  1  0
 18 17  1  6
 18 19  1  0
 19 20  1  0
 20 21  1  0
 20 22  1  0
  7  2  1  0
 18 16  1  0
 12  6  1  0
 20 18  1  0
M  END
>  <energy_score>  (1224) 
-28.945151

>  <inchikey>  (1224) 
None

>  <smiles>  (1224) 
None

>  <ref_pdb>  (1224) 
A3181a

>  <alias>  (1224) 
None

>  <HIPPO Pose ID>  (1224) 
498868

>  <name>  (1224) 
P498868

>  <HIPPO Compound ID>  (1224) 
294035

>  <ref_mols>  (1224) 
A3181a,A3618a

>  <distance_score>  (1224) 
1.802853

>  <inspiration_score>  (1224) 
None

$$$$
P498869
     RDKit          3D

 22 25  0  0  0  0  0  0  0  0999 V2000
    6.6075    8.8836   25.1058 O   0  0  0  0  0  0  0  0  0  0  0  0
    7.5211    9.5152   24.5910 C   0  0  0  0  0  0  0  0  0  0  0  0
    8.3586    8.9542   23.6821 N   0  0  0  0  0  0  0  0  0  0  0  0
    9.6555    9.4837   23.3776 C   0  0  0  0  0  0  0  0  0  0  0  0
    9.7320   11.0094   23.3755 C   0  0  0  0  0  0  0  0  0  0  0  0
    8.7358   11.6895   24.2059 N   0  0  0  0  0  0  0  0  0  0  0  0
    7.7089   10.9678   24.8270 C   0  0  0  0  0  0  0  0  0  0  0  0
    6.7533   11.5139   25.5846 C   0  0  0  0  0  0  0  0  0  0  0  0
    6.7560   12.9605   25.7326 C   0  0  0  0  0  0  0  0  0  0  0  0
    5.8969   13.4888   26.4176 O   0  0  0  0  0  0  0  0  0  0  0  0
    7.8321   13.7421   25.1128 C   0  0  0  0  0  0  0  0  0  0  0  0
    8.7642   13.0738   24.4191 C   0  0  0  0  0  0  0  0  0  0  0  0
    9.9492   13.9431   24.1202 C   0  0  0  0  0  0  0  0  0  0  0  0
   10.5355   14.4373   25.0037 O   0  0  0  0  0  0  0  0  0  0  0  0
   10.1709   14.0398   22.5876 N   0  0  0  0  0  0  0  0  0  0  0  0
   11.0908   14.8318   21.8303 C   0  0  1  0  0  0  0  0  0  0  0  0
   12.3217   15.1787   22.6046 C   0  0  0  0  0  0  0  0  0  0  0  0
   12.8899   13.9759   23.1346 O   0  0  0  0  0  0  0  0  0  0  0  0
   11.3437   14.7177   20.3111 C   0  0  0  0  0  0  0  0  0  0  0  0
   10.5062   15.7622   20.8648 C   0  0  0  0  0  0  0  0  0  0  0  0
    9.0558   15.9226   20.6243 C   0  0  0  0  0  0  0  0  0  0  0  0
   10.0141   17.0757   20.5011 C   0  0  0  0  0  0  0  0  0  0  0  0
  1  2  2  0
  2  3  1  0
  3  4  1  0
  4  5  1  0
  5  6  1  0
  6  7  1  0
  7  8  2  0
  8  9  1  0
  9 10  2  0
  9 11  1  0
 11 12  2  0
 12 13  1  0
 13 14  2  0
 13 15  1  0
 16 15  1  0
 16 17  1  1
 17 18  1  0
 16 19  1  0
 19 20  1  0
 20 21  1  0
 21 22  1  0
  7  2  1  0
 20 16  1  0
 12  6  1  0
 22 20  1  0
M  END
>  <energy_score>  (1225) 
-32.183007

>  <inchikey>  (1225) 
None

>  <smiles>  (1225) 
None

>  <ref_pdb>  (1225) 
A3181a

>  <alias>  (1225) 
None

>  <HIPPO Pose ID>  (1225) 
498869

>  <name>  (1225) 
P498869

>  <HIPPO Compound ID>  (1225) 
294036

>  <ref_mols>  (1225) 
A3181a,A3618a

>  <distance_score>  (1225) 
1.747499

>  <inspiration_score>  (1225) 
None

$$$$
P498870
     RDKit          3D

 22 25  0  0  0  0  0  0  0  0999 V2000
    6.6194    8.8930   25.1089 O   0  0  0  0  0  0  0  0  0  0  0  0
    7.5298    9.5242   24.5881 C   0  0  0  0  0  0  0  0  0  0  0  0
    8.3653    8.9596   23.6798 N   0  0  0  0  0  0  0  0  0  0  0  0
    9.6626    9.4868   23.3754 C   0  0  0  0  0  0  0  0  0  0  0  0
    9.7414   11.0127   23.3672 C   0  0  0  0  0  0  0  0  0  0  0  0
    8.7413   11.7003   24.1859 N   0  0  0  0  0  0  0  0  0  0  0  0
    7.7172   10.9791   24.8151 C   0  0  0  0  0  0  0  0  0  0  0  0
    6.7627   11.5265   25.5730 C   0  0  0  0  0  0  0  0  0  0  0  0
    6.7622   12.9735   25.7127 C   0  0  0  0  0  0  0  0  0  0  0  0
    5.9039   13.5043   26.3966 O   0  0  0  0  0  0  0  0  0  0  0  0
    7.8342   13.7541   25.0846 C   0  0  0  0  0  0  0  0  0  0  0  0
    8.7677   13.0871   24.3908 C   0  0  0  0  0  0  0  0  0  0  0  0
    9.9471   13.9667   24.0848 C   0  0  0  0  0  0  0  0  0  0  0  0
   10.5116   14.4911   24.9651 O   0  0  0  0  0  0  0  0  0  0  0  0
   10.1906   14.0314   22.5538 N   0  0  0  0  0  0  0  0  0  0  0  0
   11.1089   14.8209   21.7919 C   0  0  1  0  0  0  0  0  0  0  0  0
   12.3366   15.1785   22.5659 C   0  0  0  0  0  0  0  0  0  0  0  0
   12.8959   13.9896   23.1317 O   0  0  0  0  0  0  0  0  0  0  0  0
   11.3567   14.7168   20.2719 C   0  0  0  0  0  0  0  0  0  0  0  0
   10.5174   15.7552   20.8349 C   0  0  0  0  0  0  0  0  0  0  0  0
    9.0667   15.9120   20.5986 C   0  0  0  0  0  0  0  0  0  0  0  0
   10.0193   17.0711   20.4883 C   0  0  0  0  0  0  0  0  0  0  0  0
  1  2  2  0
  2  3  1  0
  3  4  1  0
  4  5  1  0
  5  6  1  0
  6  7  1  0
  7  8  2  0
  8  9  1  0
  9 10  2  0
  9 11  1  0
 11 12  2  0
 12 13  1  0
 13 14  2  0
 13 15  1  0
 16 15  1  0
 16 17  1  1
 17 18  1  0
 16 19  1  0
 19 20  1  0
 20 21  1  0
 21 22  1  0
  7  2  1  0
 20 16  1  0
 12  6  1  0
 22 20  1  0
M  END
>  <energy_score>  (1226) 
-35.919603

>  <inchikey>  (1226) 
None

>  <smiles>  (1226) 
None

>  <ref_pdb>  (1226) 
A3181a

>  <alias>  (1226) 
None

>  <HIPPO Pose ID>  (1226) 
498870

>  <name>  (1226) 
P498870

>  <HIPPO Compound ID>  (1226) 
294036

>  <ref_mols>  (1226) 
A3181a,A3618a

>  <distance_score>  (1226) 
1.802351

>  <inspiration_score>  (1226) 
None

$$$$
P498871
     RDKit          3D

 22 26  0  0  0  0  0  0  0  0999 V2000
    6.6137    8.7702   25.1568 O   0  0  0  0  0  0  0  0  0  0  0  0
    7.5322    9.4055   24.6600 C   0  0  0  0  0  0  0  0  0  0  0  0
    8.3647    8.8732   23.7298 N   0  0  0  0  0  0  0  0  0  0  0  0
    9.5987    9.4755   23.3108 C   0  0  0  0  0  0  0  0  0  0  0  0
    9.6068   11.0059   23.3287 C   0  0  0  0  0  0  0  0  0  0  0  0
    8.5155   11.6135   24.0947 N   0  0  0  0  0  0  0  0  0  0  0  0
    7.6962   10.8466   24.9208 C   0  0  0  0  0  0  0  0  0  0  0  0
    6.8269   11.3512   25.8024 C   0  0  0  0  0  0  0  0  0  0  0  0
    6.7368   12.8041   25.8603 C   0  0  0  0  0  0  0  0  0  0  0  0
    6.2206   13.3333   26.8286 O   0  0  0  0  0  0  0  0  0  0  0  0
    7.2809   13.5851   24.7443 C   0  0  0  0  0  0  0  0  0  0  0  0
    8.1248   12.9374   23.9316 C   0  0  0  0  0  0  0  0  0  0  0  0
    8.5244   13.7637   22.7695 C   0  0  0  0  0  0  0  0  0  0  0  0
    7.8219   13.9573   21.8618 O   0  0  0  0  0  0  0  0  0  0  0  0
    9.9179   14.3305   23.0914 N   0  0  0  0  0  0  0  0  0  0  0  0
   10.6798   15.3012   22.4303 C   0  0  1  0  0  0  0  0  0  0  0  0
   11.6679   15.1510   21.3602 C   0  0  1  0  0  0  0  0  0  0  0  0
   13.0968   15.3564   21.4652 C   0  0  0  0  0  0  0  0  0  0  0  0
   12.4978   14.1213   20.7918 C   0  0  0  0  0  0  0  0  0  0  0  0
   10.4581   15.8122   21.0571 C   0  0  1  0  0  0  0  0  0  0  0  0
    9.5643   15.6295   19.9254 C   0  0  0  0  0  0  0  0  0  0  0  0
    9.8175   17.0058   20.5290 C   0  0  0  0  0  0  0  0  0  0  0  0
  1  2  2  0
  2  3  1  0
  3  4  1  0
  4  5  1  0
  5  6  1  0
  6  7  1  0
  7  8  2  0
  8  9  1  0
  9 10  2  0
  9 11  1  0
 11 12  2  0
 12 13  1  0
 13 14  2  0
 13 15  1  0
 16 15  1  6
 16 17  1  0
 17 18  1  1
 18 19  1  0
 17 20  1  0
 20 21  1  6
 21 22  1  0
  7  2  1  0
 20 16  1  0
 12  6  1  0
 19 17  1  0
 22 20  1  0
M  END
>  <energy_score>  (1227) 
-28.456214

>  <inchikey>  (1227) 
None

>  <smiles>  (1227) 
None

>  <ref_pdb>  (1227) 
A3181a

>  <alias>  (1227) 
None

>  <HIPPO Pose ID>  (1227) 
498871

>  <name>  (1227) 
P498871

>  <HIPPO Compound ID>  (1227) 
294037

>  <ref_mols>  (1227) 
A3181a,A3618a

>  <distance_score>  (1227) 
1.734583

>  <inspiration_score>  (1227) 
None

$$$$
P498872
     RDKit          3D

 23 26  0  0  0  0  0  0  0  0999 V2000
    6.4052    9.3394   25.4746 O   0  0  0  0  0  0  0  0  0  0  0  0
    7.3775    9.8774   24.9694 C   0  0  0  0  0  0  0  0  0  0  0  0
    8.1311    9.2471   24.0291 N   0  0  0  0  0  0  0  0  0  0  0  0
    9.3482    9.7997   23.5055 C   0  0  0  0  0  0  0  0  0  0  0  0
    9.2783   11.3225   23.3811 C   0  0  0  0  0  0  0  0  0  0  0  0
    8.7084   11.9926   24.5686 N   0  0  0  0  0  0  0  0  0  0  0  0
    7.7390   11.2754   25.3036 C   0  0  0  0  0  0  0  0  0  0  0  0
    6.9693   11.7865   26.2709 C   0  0  0  0  0  0  0  0  0  0  0  0
    7.1373   13.2053   26.5712 C   0  0  0  0  0  0  0  0  0  0  0  0
    6.6929   13.6912   27.6041 O   0  0  0  0  0  0  0  0  0  0  0  0
    7.8546   14.0261   25.5880 C   0  0  0  0  0  0  0  0  0  0  0  0
    8.5769   13.4029   24.6464 C   0  0  0  0  0  0  0  0  0  0  0  0
    9.0248   14.3698   23.5770 C   0  0  0  0  0  0  0  0  0  0  0  0
    8.2634   15.0720   23.0470 O   0  0  0  0  0  0  0  0  0  0  0  0
   10.5234   14.1454   23.3153 N   0  0  0  0  0  0  0  0  0  0  0  0
   11.3794   14.6664   22.2863 C   0  0  0  0  0  0  0  0  0  0  0  0
   10.8997   15.7356   21.3006 C   0  0  1  0  0  0  0  0  0  0  0  0
   10.8664   15.4894   19.7834 C   0  0  0  0  0  0  0  0  0  0  0  0
    9.6385   15.7504   20.5478 C   0  0  0  0  0  0  0  0  0  0  0  0
    9.0006   16.9532   20.3984 F   0  0  0  0  0  0  0  0  0  0  0  0
    8.6960   14.7563   20.6269 F   0  0  0  0  0  0  0  0  0  0  0  0
   12.3675   13.6651   21.7448 C   0  0  0  0  0  0  0  0  0  0  0  0
   12.8477   14.7194   22.6648 C   0  0  0  0  0  0  0  0  0  0  0  0
  1  2  2  0
  2  3  1  0
  3  4  1  0
  4  5  1  0
  5  6  1  0
  6  7  1  0
  7  8  2  0
  8  9  1  0
  9 10  2  0
  9 11  1  0
 11 12  2  0
 12 13  1  0
 13 14  2  0
 13 15  1  0
 15 16  1  0
 17 16  1  1
 17 18  1  0
 18 19  1  0
 19 20  1  0
 19 21  1  0
 16 22  1  0
 22 23  1  0
  7  2  1  0
 23 16  1  0
 12  6  1  0
 19 17  1  0
M  END
>  <energy_score>  (1228) 
-39.305047

>  <inchikey>  (1228) 
None

>  <smiles>  (1228) 
None

>  <ref_pdb>  (1228) 
A3181a

>  <alias>  (1228) 
None

>  <HIPPO Pose ID>  (1228) 
498872

>  <name>  (1228) 
P498872

>  <HIPPO Compound ID>  (1228) 
294048

>  <ref_mols>  (1228) 
A3181a,A3618a

>  <distance_score>  (1228) 
1.880332

>  <inspiration_score>  (1228) 
None

$$$$
P498873
     RDKit          3D

 23 26  0  0  0  0  0  0  0  0999 V2000
    6.5658    9.9749   26.2841 O   0  0  0  0  0  0  0  0  0  0  0  0
    7.3422   10.0631   25.3437 C   0  0  0  0  0  0  0  0  0  0  0  0
    7.9719    8.9920   24.7991 N   0  0  0  0  0  0  0  0  0  0  0  0
    8.7954    9.0175   23.6120 C   0  0  0  0  0  0  0  0  0  0  0  0
    9.5786   10.3085   23.4494 C   0  0  0  0  0  0  0  0  0  0  0  0
    8.8697   11.4909   23.9664 N   0  0  0  0  0  0  0  0  0  0  0  0
    7.7480   11.3644   24.7960 C   0  0  0  0  0  0  0  0  0  0  0  0
    7.0275   12.3785   25.2841 C   0  0  0  0  0  0  0  0  0  0  0  0
    7.4920   13.7288   24.9850 C   0  0  0  0  0  0  0  0  0  0  0  0
    6.8844   14.7142   25.3836 O   0  0  0  0  0  0  0  0  0  0  0  0
    8.7737   13.8731   24.2838 C   0  0  0  0  0  0  0  0  0  0  0  0
    9.3904   12.7702   23.8324 C   0  0  0  0  0  0  0  0  0  0  0  0
   10.7799   13.0759   23.3680 C   0  0  0  0  0  0  0  0  0  0  0  0
   11.7271   12.8349   24.0018 O   0  0  0  0  0  0  0  0  0  0  0  0
   10.6390   13.8154   22.0258 N   0  0  0  0  0  0  0  0  0  0  0  0
   11.6353   14.5071   21.2161 C   0  0  2  0  0  0  0  0  0  0  0  0
   11.8431   15.8995   21.8615 C   0  0  0  0  0  0  0  0  0  0  0  0
   10.5398   16.3029   21.1202 C   0  0  0  0  0  0  0  0  0  0  0  0
   10.3935   17.5375   20.6308 F   0  0  0  0  0  0  0  0  0  0  0  0
    9.3488   15.9059   21.6317 F   0  0  0  0  0  0  0  0  0  0  0  0
   11.0302   15.3239   20.1249 C   0  0  0  0  0  0  0  0  0  0  0  0
   10.4503   14.9208   18.8320 C   0  0  0  0  0  0  0  0  0  0  0  0
   11.6944   15.6966   18.8285 C   0  0  0  0  0  0  0  0  0  0  0  0
  1  2  2  0
  2  3  1  0
  3  4  1  0
  4  5  1  0
  5  6  1  0
  6  7  1  0
  7  8  2  0
  8  9  1  0
  9 10  2  0
  9 11  1  0
 11 12  2  0
 12 13  1  0
 13 14  2  0
 13 15  1  0
 16 15  1  1
 16 17  1  0
 17 18  1  0
 18 19  1  0
 18 20  1  0
 18 21  1  0
 21 22  1  0
 22 23  1  0
  7  2  1  0
 21 16  1  0
 12  6  1  0
 23 21  1  0
M  END
>  <energy_score>  (1229) 
-28.12294

>  <inchikey>  (1229) 
None

>  <smiles>  (1229) 
None

>  <ref_pdb>  (1229) 
A3181a

>  <alias>  (1229) 
None

>  <HIPPO Pose ID>  (1229) 
498873

>  <name>  (1229) 
P498873

>  <HIPPO Compound ID>  (1229) 
294052

>  <ref_mols>  (1229) 
A3181a,A3618a

>  <distance_score>  (1229) 
1.971203

>  <inspiration_score>  (1229) 
None

$$$$
P498874
     RDKit          3D

 23 26  0  0  0  0  0  0  0  0999 V2000
    6.4065    8.7535   25.0794 O   0  0  0  0  0  0  0  0  0  0  0  0
    7.3454    9.4470   24.7129 C   0  0  0  0  0  0  0  0  0  0  0  0
    8.2507    8.9997   23.8055 N   0  0  0  0  0  0  0  0  0  0  0  0
    9.4986    9.6521   23.5329 C   0  0  0  0  0  0  0  0  0  0  0  0
    9.4281   11.1745   23.6473 C   0  0  0  0  0  0  0  0  0  0  0  0
    8.5078   11.6693   24.6948 N   0  0  0  0  0  0  0  0  0  0  0  0
    7.4770   10.8503   25.1544 C   0  0  0  0  0  0  0  0  0  0  0  0
    6.4642   11.2621   25.9237 C   0  0  0  0  0  0  0  0  0  0  0  0
    6.3821   12.6784   26.2385 C   0  0  0  0  0  0  0  0  0  0  0  0
    5.4358   13.0921   26.8845 O   0  0  0  0  0  0  0  0  0  0  0  0
    7.4561   13.5688   25.8045 C   0  0  0  0  0  0  0  0  0  0  0  0
    8.4408   13.0158   25.0916 C   0  0  0  0  0  0  0  0  0  0  0  0
    9.5201   13.9851   24.7993 C   0  0  0  0  0  0  0  0  0  0  0  0
   10.1853   14.4708   25.6180 O   0  0  0  0  0  0  0  0  0  0  0  0
    9.5923   14.0832   23.2776 N   0  0  0  0  0  0  0  0  0  0  0  0
   10.5427   14.7152   22.4408 C   0  0  2  0  0  0  0  0  0  0  0  0
   10.2628   14.5712   20.9757 C   0  0  0  0  0  0  0  0  0  0  0  0
    9.4119   15.6330   20.4368 C   0  0  0  0  0  0  0  0  0  0  0  0
    9.9318   16.1714   19.1494 C   0  0  0  0  0  0  0  0  0  0  0  0
    9.7503   17.0857   20.3304 C   0  0  0  0  0  0  0  0  0  0  0  0
   11.8470   14.0539   22.6545 C   0  0  0  0  0  0  0  0  0  0  0  0
   12.7491   14.3330   23.7968 C   0  0  0  0  0  0  0  0  0  0  0  0
   12.9740   15.0001   22.4557 C   0  0  0  0  0  0  0  0  0  0  0  0
  1  2  2  0
  2  3  1  0
  3  4  1  0
  4  5  1  0
  5  6  1  0
  6  7  1  0
  7  8  2  0
  8  9  1  0
  9 10  2  0
  9 11  1  0
 11 12  2  0
 12 13  1  0
 13 14  2  0
 13 15  1  0
 15 16  1  0
 16 17  1  6
 17 18  1  0
 18 19  1  0
 19 20  1  0
 16 21  1  0
 21 22  1  0
 22 23  1  0
  7  2  1  0
 20 18  1  0
 23 21  1  0
 12  6  1  0
M  END
>  <energy_score>  (1230) 
-31.297354

>  <inchikey>  (1230) 
None

>  <smiles>  (1230) 
None

>  <ref_pdb>  (1230) 
A3181a

>  <alias>  (1230) 
None

>  <HIPPO Pose ID>  (1230) 
498874

>  <name>  (1230) 
P498874

>  <HIPPO Compound ID>  (1230) 
294054

>  <ref_mols>  (1230) 
A3181a,A3618a

>  <distance_score>  (1230) 
1.872392

>  <inspiration_score>  (1230) 
None

$$$$
P498875
     RDKit          3D

 23 26  0  0  0  0  0  0  0  0999 V2000
    6.5042    9.1703   25.2433 O   0  0  0  0  0  0  0  0  0  0  0  0
    7.4700    9.7266   24.7353 C   0  0  0  0  0  0  0  0  0  0  0  0
    8.2508    9.0757   23.8278 N   0  0  0  0  0  0  0  0  0  0  0  0
    9.5565    9.5256   23.4181 C   0  0  0  0  0  0  0  0  0  0  0  0
    9.6608   11.0415   23.3472 C   0  0  0  0  0  0  0  0  0  0  0  0
    8.9783   11.7321   24.4416 N   0  0  0  0  0  0  0  0  0  0  0  0
    7.8304   11.1554   25.0174 C   0  0  0  0  0  0  0  0  0  0  0  0
    6.9758   11.8305   25.8003 C   0  0  0  0  0  0  0  0  0  0  0  0
    7.2582   13.2521   26.0533 C   0  0  0  0  0  0  0  0  0  0  0  0
    6.5609   13.9204   26.8033 O   0  0  0  0  0  0  0  0  0  0  0  0
    8.4463   13.8596   25.4362 C   0  0  0  0  0  0  0  0  0  0  0  0
    9.2408   13.0801   24.6969 C   0  0  0  0  0  0  0  0  0  0  0  0
   10.5132   13.7777   24.2829 C   0  0  0  0  0  0  0  0  0  0  0  0
   11.4219   13.8608   25.0045 O   0  0  0  0  0  0  0  0  0  0  0  0
   10.2941   14.3742   22.8870 N   0  0  0  0  0  0  0  0  0  0  0  0
   11.1138   15.2862   22.1128 C   0  0  1  0  0  0  0  0  0  0  0  0
   12.4951   14.7413   21.7519 C   0  0  0  0  0  0  0  0  0  0  0  0
   12.4526   14.4566   20.3460 N   0  0  0  0  0  0  0  0  0  0  0  0
   11.3643   14.9890   19.7214 C   0  0  0  0  0  0  0  0  0  0  0  0
   11.1413   14.9914   18.5274 O   0  0  0  0  0  0  0  0  0  0  0  0
   10.5123   15.6040   20.7703 C   0  0  0  0  0  0  0  0  0  0  0  0
    9.8505   16.9366   20.4595 C   0  0  0  0  0  0  0  0  0  0  0  0
    9.0200   15.7110   20.6562 C   0  0  0  0  0  0  0  0  0  0  0  0
  1  2  2  0
  2  3  1  0
  3  4  1  0
  4  5  1  0
  5  6  1  0
  6  7  1  0
  7  8  2  0
  8  9  1  0
  9 10  2  0
  9 11  1  0
 11 12  2  0
 12 13  1  0
 13 14  2  0
 13 15  1  0
 16 15  1  6
 16 17  1  0
 17 18  1  0
 18 19  1  0
 19 20  2  0
 19 21  1  0
 21 22  1  0
 22 23  1  0
  7  2  1  0
 21 16  1  0
 12  6  1  0
 23 21  1  0
M  END
>  <energy_score>  (1231) 
-55.172248

>  <inchikey>  (1231) 
None

>  <smiles>  (1231) 
None

>  <ref_pdb>  (1231) 
A3181a

>  <alias>  (1231) 
None

>  <HIPPO Pose ID>  (1231) 
498875

>  <name>  (1231) 
P498875

>  <HIPPO Compound ID>  (1231) 
294055

>  <ref_mols>  (1231) 
A3181a,A3618a

>  <distance_score>  (1231) 
1.690151

>  <inspiration_score>  (1231) 
None

$$$$
P498876
     RDKit          3D

 23 25  0  0  0  0  0  0  0  0999 V2000
    8.7286   15.3875   20.9358 C   0  0  0  0  0  0  0  0  0  0  0  0
    9.8258   16.2399   21.3533 N   0  0  0  0  0  0  0  0  0  0  0  0
    9.7437   17.4850   20.5987 C   0  0  0  0  0  0  0  0  0  0  0  0
   11.1718   15.6613   21.3232 C   0  0  1  0  0  0  0  0  0  0  0  0
   11.5712   14.9373   22.6359 C   0  0  0  0  0  0  0  0  0  0  0  0
   10.5633   14.1097   23.2451 N   0  0  0  0  0  0  0  0  0  0  0  0
   10.2315   13.8699   24.7179 C   0  0  0  0  0  0  0  0  0  0  0  0
   10.7663   14.2411   25.6816 O   0  0  0  0  0  0  0  0  0  0  0  0
    8.9611   13.0607   24.8087 C   0  0  0  0  0  0  0  0  0  0  0  0
    7.9885   13.7404   25.4314 C   0  0  0  0  0  0  0  0  0  0  0  0
    6.7894   12.9955   25.8344 C   0  0  0  0  0  0  0  0  0  0  0  0
    5.8537   13.5451   26.3897 O   0  0  0  0  0  0  0  0  0  0  0  0
    6.7433   11.5563   25.6263 C   0  0  0  0  0  0  0  0  0  0  0  0
    7.7439   11.0000   24.9382 C   0  0  0  0  0  0  0  0  0  0  0  0
    8.8636   11.7011   24.4676 N   0  0  0  0  0  0  0  0  0  0  0  0
    9.7196   11.0906   23.4469 C   0  0  0  0  0  0  0  0  0  0  0  0
    9.6590    9.5639   23.3987 C   0  0  0  0  0  0  0  0  0  0  0  0
    8.3640    9.0216   23.7000 N   0  0  0  0  0  0  0  0  0  0  0  0
    7.5240    9.5633   24.6204 C   0  0  0  0  0  0  0  0  0  0  0  0
    6.5956    8.9217   25.0958 O   0  0  0  0  0  0  0  0  0  0  0  0
   11.2895   14.7437   20.1719 C   0  0  0  0  0  0  0  0  0  0  0  0
   12.6541   14.4426   19.6800 C   0  0  0  0  0  0  0  0  0  0  0  0
   11.6629   15.1073   18.7645 C   0  0  0  0  0  0  0  0  0  0  0  0
  1  2  1  0
  2  3  1  0
  2  4  1  0
  4  5  1  1
  5  6  1  0
  6  7  1  0
  7  8  2  0
  7  9  1  0
  9 10  2  0
 10 11  1  0
 11 12  2  0
 11 13  1  0
 13 14  2  0
 14 15  1  0
 15 16  1  0
 16 17  1  0
 17 18  1  0
 18 19  1  0
 19 20  2  0
  4 21  1  0
 21 22  1  0
 22 23  1  0
 15  9  1  0
 23 21  1  0
 19 14  1  0
M  END
>  <energy_score>  (1232) 
-61.605883

>  <inchikey>  (1232) 
None

>  <smiles>  (1232) 
None

>  <ref_pdb>  (1232) 
A3181a

>  <alias>  (1232) 
None

>  <HIPPO Pose ID>  (1232) 
498876

>  <name>  (1232) 
P498876

>  <HIPPO Compound ID>  (1232) 
294057

>  <ref_mols>  (1232) 
A3181a,A3618a

>  <distance_score>  (1232) 
1.874969

>  <inspiration_score>  (1232) 
None

$$$$
P498877
     RDKit          3D

 23 25  0  0  0  0  0  0  0  0999 V2000
    6.3416    8.8139   25.1125 O   0  0  0  0  0  0  0  0  0  0  0  0
    7.4041    9.2629   24.7134 C   0  0  0  0  0  0  0  0  0  0  0  0
    8.3484    8.4906   24.1089 N   0  0  0  0  0  0  0  0  0  0  0  0
    9.6084    8.9881   23.6132 C   0  0  0  0  0  0  0  0  0  0  0  0
    9.4094   10.3259   22.9906 C   0  0  0  0  0  0  0  0  0  0  0  0
    8.5933   11.2094   23.8380 N   0  0  0  0  0  0  0  0  0  0  0  0
    7.6361   10.7027   24.6990 C   0  0  0  0  0  0  0  0  0  0  0  0
    6.8025   11.4292   25.4478 C   0  0  0  0  0  0  0  0  0  0  0  0
    6.9138   12.8733   25.3168 C   0  0  0  0  0  0  0  0  0  0  0  0
    6.1712   13.6005   25.9542 O   0  0  0  0  0  0  0  0  0  0  0  0
    8.0219   13.4308   24.5243 C   0  0  0  0  0  0  0  0  0  0  0  0
    8.8262   12.5603   23.8895 C   0  0  0  0  0  0  0  0  0  0  0  0
   10.2546   12.9453   23.8163 C   0  0  0  0  0  0  0  0  0  0  0  0
   11.0585   12.2030   24.1901 O   0  0  0  0  0  0  0  0  0  0  0  0
   10.3862   14.3598   23.3226 N   0  0  0  0  0  0  0  0  0  0  0  0
   11.5088   15.2089   23.2643 C   0  0  2  0  0  0  0  0  0  0  0  0
   12.3808   14.8871   22.0556 C   0  0  0  0  0  0  0  0  0  0  0  0
   11.6350   15.2970   20.7886 N   0  0  0  0  0  0  0  0  0  0  0  0
   11.9772   14.7603   19.7292 O   0  0  0  0  0  0  0  0  0  0  0  0
   10.7552   16.1662   20.8778 O   0  0  0  0  0  0  0  0  0  0  0  0
   12.0351   14.9378   24.7187 C   0  0  0  0  0  0  0  0  0  0  0  0
   10.9135   14.9730   25.8095 C   0  0  0  0  0  0  0  0  0  0  0  0
   12.0965   15.8020   26.0036 C   0  0  0  0  0  0  0  0  0  0  0  0
  1  2  2  0
  2  3  1  0
  3  4  1  0
  4  5  1  0
  5  6  1  0
  6  7  1  0
  7  8  2  0
  8  9  1  0
  9 10  2  0
  9 11  1  0
 11 12  2  0
 12 13  1  0
 13 14  2  0
 13 15  1  0
 15 16  1  0
 16 17  1  6
 17 18  1  0
 18 19  2  0
 18 20  1  0
 16 21  1  0
 21 22  1  0
 22 23  1  0
  7  2  1  0
 23 21  1  0
 12  6  1  0
M  CHG  2  18   1  20  -1
M  END
>  <energy_score>  (1233) 
-14.669167

>  <inchikey>  (1233) 
None

>  <smiles>  (1233) 
None

>  <ref_pdb>  (1233) 
A3181a

>  <alias>  (1233) 
None

>  <HIPPO Pose ID>  (1233) 
498877

>  <name>  (1233) 
P498877

>  <HIPPO Compound ID>  (1233) 
294059

>  <ref_mols>  (1233) 
A3181a,A3618a

>  <distance_score>  (1233) 
1.469364

>  <inspiration_score>  (1233) 
None

$$$$
P498878
     RDKit          3D

 23 25  0  0  0  0  0  0  0  0999 V2000
    5.9452   10.2427   26.7491 O   0  0  0  0  0  0  0  0  0  0  0  0
    6.6845   10.2280   25.7711 C   0  0  0  0  0  0  0  0  0  0  0  0
    7.1345    9.0606   25.2710 N   0  0  0  0  0  0  0  0  0  0  0  0
    8.0823    8.8867   24.1802 C   0  0  0  0  0  0  0  0  0  0  0  0
    8.9128   10.0936   23.8940 C   0  0  0  0  0  0  0  0  0  0  0  0
    8.1810   11.3576   24.1122 N   0  0  0  0  0  0  0  0  0  0  0  0
    7.1695   11.4301   25.0754 C   0  0  0  0  0  0  0  0  0  0  0  0
    6.5349   12.5481   25.4266 C   0  0  0  0  0  0  0  0  0  0  0  0
    6.9232   13.7521   24.7118 C   0  0  0  0  0  0  0  0  0  0  0  0
    6.2854   14.7752   24.8766 O   0  0  0  0  0  0  0  0  0  0  0  0
    8.1342   13.7498   23.8774 C   0  0  0  0  0  0  0  0  0  0  0  0
    8.7123   12.5643   23.6403 C   0  0  0  0  0  0  0  0  0  0  0  0
   10.1586   12.5433   23.2353 C   0  0  0  0  0  0  0  0  0  0  0  0
   10.8273   11.7692   23.7798 O   0  0  0  0  0  0  0  0  0  0  0  0
   10.5203   13.6257   22.2357 N   0  0  0  0  0  0  0  0  0  0  0  0
   11.7977   14.0591   21.7546 C   0  0  1  0  0  0  0  0  0  0  0  0
   11.9118   14.8438   20.4605 C   0  0  0  0  0  0  0  0  0  0  0  0
   10.7423   15.7285   20.2586 N   0  0  0  0  0  0  0  0  0  0  0  0
   10.2400   15.7467   19.1313 O   0  0  0  0  0  0  0  0  0  0  0  0
   10.3434   16.3874   21.2235 O   0  0  0  0  0  0  0  0  0  0  0  0
   12.5078   14.6882   22.9360 C   0  0  0  0  0  0  0  0  0  0  0  0
   12.9767   13.7748   24.0539 C   0  0  0  0  0  0  0  0  0  0  0  0
   11.9281   14.7969   24.3516 C   0  0  0  0  0  0  0  0  0  0  0  0
  1  2  2  0
  2  3  1  0
  3  4  1  0
  4  5  1  0
  5  6  1  0
  6  7  1  0
  7  8  2  0
  8  9  1  0
  9 10  2  0
  9 11  1  0
 11 12  2  0
 12 13  1  0
 13 14  2  0
 13 15  1  0
 15 16  1  0
 16 17  1  6
 17 18  1  0
 18 19  2  0
 18 20  1  0
 16 21  1  0
 21 22  1  0
 22 23  1  0
  7  2  1  0
 23 21  1  0
 12  6  1  0
M  CHG  2  18   1  20  -1
M  END
>  <energy_score>  (1234) 
-23.156808

>  <inchikey>  (1234) 
None

>  <smiles>  (1234) 
None

>  <ref_pdb>  (1234) 
A3181a

>  <alias>  (1234) 
None

>  <HIPPO Pose ID>  (1234) 
498878

>  <name>  (1234) 
P498878

>  <HIPPO Compound ID>  (1234) 
294059

>  <ref_mols>  (1234) 
A3181a,A3618a

>  <distance_score>  (1234) 
1.817844

>  <inspiration_score>  (1234) 
None

$$$$
P498879
     RDKit          3D

 23 24  0  0  0  0  0  0  0  0999 V2000
    9.5164    8.6638   23.3712 C   0  0  0  0  0  0  0  0  0  0  0  0
    8.8052    9.8369   23.7692 N   0  0  0  0  0  0  0  0  0  0  0  0
    7.7494   10.0399   24.8689 C   0  0  0  0  0  0  0  0  0  0  0  0
    7.2370    9.2701   25.5718 O   0  0  0  0  0  0  0  0  0  0  0  0
    7.4334   11.5061   24.9694 C   0  0  0  0  0  0  0  0  0  0  0  0
    8.1407   12.2438   24.0524 N   0  0  0  0  0  0  0  0  0  0  0  0
    7.8325   13.5577   23.9947 C   0  0  0  0  0  0  0  0  0  0  0  0
    8.7772   14.4257   23.2451 C   0  0  0  0  0  0  0  0  0  0  0  0
    8.5070   15.5415   23.0721 O   0  0  0  0  0  0  0  0  0  0  0  0
   10.0539   13.6481   22.9055 N   0  0  0  0  0  0  0  0  0  0  0  0
   11.3115   14.1019   22.3645 C   0  0  1  0  0  0  0  0  0  0  0  0
   11.2503   15.4228   21.6183 C   0  0  0  0  0  0  0  0  0  0  0  0
   10.4327   15.3991   20.3640 C   0  0  0  0  0  0  0  0  0  0  0  0
   11.0662   14.7465   19.3701 F   0  0  0  0  0  0  0  0  0  0  0  0
   10.2447   16.6731   19.9451 F   0  0  0  0  0  0  0  0  0  0  0  0
    9.2159   14.8450   20.5271 F   0  0  0  0  0  0  0  0  0  0  0  0
   12.2469   14.2745   23.5536 C   0  0  0  0  0  0  0  0  0  0  0  0
   11.7431   14.4696   24.9738 C   0  0  0  0  0  0  0  0  0  0  0  0
   12.4356   13.1930   24.5868 C   0  0  0  0  0  0  0  0  0  0  0  0
    6.8989   14.1726   24.8107 C   0  0  0  0  0  0  0  0  0  0  0  0
    6.2639   13.4162   25.7829 C   0  0  0  0  0  0  0  0  0  0  0  0
    6.5352   12.0575   25.8903 C   0  0  0  0  0  0  0  0  0  0  0  0
    5.7589   11.2504   27.1940 Cl  0  0  0  0  0  0  0  0  0  0  0  0
  1  2  1  0
  2  3  1  0
  3  4  2  0
  3  5  1  0
  5  6  2  0
  6  7  1  0
  7  8  1  0
  8  9  2  0
  8 10  1  0
 10 11  1  0
 11 12  1  1
 12 13  1  0
 13 14  1  0
 13 15  1  0
 13 16  1  0
 11 17  1  0
 17 18  1  0
 18 19  1  0
  7 20  2  0
 20 21  1  0
 21 22  2  0
 22 23  1  0
 22  5  1  0
 19 17  1  0
M  END
>  <energy_score>  (1235) 
-9.594298

>  <inchikey>  (1235) 
None

>  <smiles>  (1235) 
None

>  <ref_pdb>  (1235) 
A3181a

>  <alias>  (1235) 
None

>  <HIPPO Pose ID>  (1235) 
498879

>  <name>  (1235) 
P498879

>  <HIPPO Compound ID>  (1235) 
294072

>  <ref_mols>  (1235) 
A3181a,A3618a

>  <distance_score>  (1235) 
1.947792

>  <inspiration_score>  (1235) 
None

$$$$
P498880
     RDKit          3D

 23 24  0  0  0  0  0  0  0  0999 V2000
    9.4554    8.8924   23.0987 C   0  0  0  0  0  0  0  0  0  0  0  0
    8.8906   10.0127   23.7930 N   0  0  0  0  0  0  0  0  0  0  0  0
    7.7193   10.0847   24.7887 C   0  0  0  0  0  0  0  0  0  0  0  0
    6.9801    9.2600   25.1435 O   0  0  0  0  0  0  0  0  0  0  0  0
    7.6116   11.4989   25.3184 C   0  0  0  0  0  0  0  0  0  0  0  0
    8.6019   12.3347   24.8462 N   0  0  0  0  0  0  0  0  0  0  0  0
    8.5854   13.5900   25.3602 C   0  0  0  0  0  0  0  0  0  0  0  0
    9.7280   14.4889   25.0655 C   0  0  0  0  0  0  0  0  0  0  0  0
   10.0631   15.2646   25.8636 O   0  0  0  0  0  0  0  0  0  0  0  0
   10.2129   14.2668   23.6375 N   0  0  0  0  0  0  0  0  0  0  0  0
   11.1440   15.0055   22.8493 C   0  0  1  0  0  0  0  0  0  0  0  0
   12.2515   14.1652   22.2559 C   0  0  0  0  0  0  0  0  0  0  0  0
   10.3966   15.7783   21.8180 C   0  0  2  0  0  0  0  0  0  0  0  0
    8.8930   15.9817   21.7019 C   0  0  0  0  0  0  0  0  0  0  0  0
    9.5826   15.0428   20.7765 C   0  0  1  0  0  0  0  0  0  0  0  0
   10.0560   15.3750   19.4394 C   0  0  0  0  0  0  0  0  0  0  0  0
    9.5565   16.2292   18.7333 O   0  0  0  0  0  0  0  0  0  0  0  0
   11.1549   14.6433   19.2111 O   0  0  0  0  0  0  0  0  0  0  0  0
   11.9175   15.1315   18.1485 C   0  0  0  0  0  0  0  0  0  0  0  0
    7.6103   14.0882   26.2049 C   0  0  0  0  0  0  0  0  0  0  0  0
    6.6266   13.2318   26.6496 C   0  0  0  0  0  0  0  0  0  0  0  0
    6.6428   11.9012   26.2501 C   0  0  0  0  0  0  0  0  0  0  0  0
    5.5279   10.9080   27.0904 Cl  0  0  0  0  0  0  0  0  0  0  0  0
  1  2  1  0
  2  3  1  0
  3  4  2  0
  3  5  1  0
  5  6  2  0
  6  7  1  0
  7  8  1  0
  8  9  2  0
  8 10  1  0
 10 11  1  0
 11 12  1  6
 11 13  1  0
 13 14  1  1
 14 15  1  0
 15 16  1  6
 16 17  2  0
 16 18  1  0
 18 19  1  0
  7 20  2  0
 20 21  1  0
 21 22  2  0
 22 23  1  0
 22  5  1  0
 15 13  1  0
M  END
>  <energy_score>  (1236) 
-4.750088

>  <inchikey>  (1236) 
None

>  <smiles>  (1236) 
None

>  <ref_pdb>  (1236) 
A3181a

>  <alias>  (1236) 
None

>  <HIPPO Pose ID>  (1236) 
498880

>  <name>  (1236) 
P498880

>  <HIPPO Compound ID>  (1236) 
294081

>  <ref_mols>  (1236) 
A3181a,A3618a

>  <distance_score>  (1236) 
1.710388

>  <inspiration_score>  (1236) 
None

$$$$
P498881
     RDKit          3D

 23 24  0  0  0  0  0  0  0  0999 V2000
    9.4591    8.8027   23.0694 C   0  0  0  0  0  0  0  0  0  0  0  0
    8.9778    9.9143   23.8314 N   0  0  0  0  0  0  0  0  0  0  0  0
    7.7546   10.0370   24.7571 C   0  0  0  0  0  0  0  0  0  0  0  0
    6.9899    9.2333   25.1060 O   0  0  0  0  0  0  0  0  0  0  0  0
    7.6660   11.4625   25.2558 C   0  0  0  0  0  0  0  0  0  0  0  0
    8.6757   12.2677   24.7681 N   0  0  0  0  0  0  0  0  0  0  0  0
    8.6863   13.5284   25.2588 C   0  0  0  0  0  0  0  0  0  0  0  0
    9.8359   14.4107   24.9478 C   0  0  0  0  0  0  0  0  0  0  0  0
   10.1842   15.1702   25.7566 O   0  0  0  0  0  0  0  0  0  0  0  0
   10.3088   14.2084   23.5103 N   0  0  0  0  0  0  0  0  0  0  0  0
   11.2405   14.9525   22.7275 C   0  0  1  0  0  0  0  0  0  0  0  0
   12.3074   14.1427   22.0506 C   0  0  0  0  0  0  0  0  0  0  0  0
   10.4870   15.8485   21.8051 C   0  0  2  0  0  0  0  0  0  0  0  0
    8.9621   15.8503   21.7110 C   0  0  0  0  0  0  0  0  0  0  0  0
    9.7964   15.4426   20.5346 C   0  0  1  0  0  0  0  0  0  0  0  0
    9.9493   16.4099   19.4211 C   0  0  0  0  0  0  0  0  0  0  0  0
    9.3873   17.4957   19.4545 O   0  0  0  0  0  0  0  0  0  0  0  0
   10.7983   16.0790   18.4257 O   0  0  0  0  0  0  0  0  0  0  0  0
   11.5797   14.9020   18.5153 C   0  0  0  0  0  0  0  0  0  0  0  0
    7.7121   14.0629   26.0856 C   0  0  0  0  0  0  0  0  0  0  0  0
    6.7062   13.2384   26.5428 C   0  0  0  0  0  0  0  0  0  0  0  0
    6.6987   11.9001   26.1733 C   0  0  0  0  0  0  0  0  0  0  0  0
    5.5619   10.9436   27.0278 Cl  0  0  0  0  0  0  0  0  0  0  0  0
  1  2  1  0
  2  3  1  0
  3  4  2  0
  3  5  1  0
  5  6  2  0
  6  7  1  0
  7  8  1  0
  8  9  2  0
  8 10  1  0
 10 11  1  0
 11 12  1  6
 11 13  1  0
 13 14  1  1
 14 15  1  0
 15 16  1  6
 16 17  2  0
 16 18  1  0
 18 19  1  0
  7 20  2  0
 20 21  1  0
 21 22  2  0
 22 23  1  0
 22  5  1  0
 15 13  1  0
M  END
>  <energy_score>  (1237) 
-2.06884

>  <inchikey>  (1237) 
None

>  <smiles>  (1237) 
None

>  <ref_pdb>  (1237) 
A3181a

>  <alias>  (1237) 
None

>  <HIPPO Pose ID>  (1237) 
498881

>  <name>  (1237) 
P498881

>  <HIPPO Compound ID>  (1237) 
294081

>  <ref_mols>  (1237) 
A3181a,A3618a

>  <distance_score>  (1237) 
1.869264

>  <inspiration_score>  (1237) 
None

$$$$
P498882
     RDKit          3D

 23 24  0  0  0  0  0  0  0  0999 V2000
    9.4191    8.8719   23.1030 C   0  0  0  0  0  0  0  0  0  0  0  0
    8.9189    9.9331   23.9243 N   0  0  0  0  0  0  0  0  0  0  0  0
    7.6740    9.9969   24.8264 C   0  0  0  0  0  0  0  0  0  0  0  0
    6.9016    9.1732   25.1041 O   0  0  0  0  0  0  0  0  0  0  0  0
    7.5720   11.3810   25.4277 C   0  0  0  0  0  0  0  0  0  0  0  0
    8.5506   12.2430   24.9809 N   0  0  0  0  0  0  0  0  0  0  0  0
    8.5318   13.4729   25.5527 C   0  0  0  0  0  0  0  0  0  0  0  0
    9.4957   14.4986   25.0994 C   0  0  0  0  0  0  0  0  0  0  0  0
    9.7809   15.3781   25.8016 O   0  0  0  0  0  0  0  0  0  0  0  0
    9.8810   14.2251   23.6538 N   0  0  0  0  0  0  0  0  0  0  0  0
   10.6241   15.0200   22.7214 C   0  0  1  0  0  0  0  0  0  0  0  0
   11.7785   14.2970   22.0918 C   0  0  0  0  0  0  0  0  0  0  0  0
    9.4542   15.5537   21.9315 C   0  0  1  0  0  0  0  0  0  0  0  0
    9.4102   16.8484   21.1933 C   0  0  0  0  0  0  0  0  0  0  0  0
    9.1718   15.5348   20.4747 C   0  0  1  0  0  0  0  0  0  0  0  0
    9.9809   15.4927   19.2770 C   0  0  0  0  0  0  0  0  0  0  0  0
    9.6025   16.0703   18.2761 O   0  0  0  0  0  0  0  0  0  0  0  0
   11.1186   14.8222   19.4475 O   0  0  0  0  0  0  0  0  0  0  0  0
   12.0002   15.0338   18.3782 C   0  0  0  0  0  0  0  0  0  0  0  0
    7.5704   13.9191   26.4452 C   0  0  0  0  0  0  0  0  0  0  0  0
    6.6037   13.0363   26.8682 C   0  0  0  0  0  0  0  0  0  0  0  0
    6.6132   11.7330   26.3904 C   0  0  0  0  0  0  0  0  0  0  0  0
    5.4989   10.7032   27.1807 Cl  0  0  0  0  0  0  0  0  0  0  0  0
  1  2  1  0
  2  3  1  0
  3  4  2  0
  3  5  1  0
  5  6  2  0
  6  7  1  0
  7  8  1  0
  8  9  2  0
  8 10  1  0
 10 11  1  0
 11 12  1  6
 11 13  1  0
 13 14  1  6
 14 15  1  0
 15 16  1  6
 16 17  2  0
 16 18  1  0
 18 19  1  0
  7 20  2  0
 20 21  1  0
 21 22  2  0
 22 23  1  0
 22  5  1  0
 15 13  1  0
M  END
>  <energy_score>  (1238) 
-5.855239

>  <inchikey>  (1238) 
None

>  <smiles>  (1238) 
None

>  <ref_pdb>  (1238) 
A3181a

>  <alias>  (1238) 
None

>  <HIPPO Pose ID>  (1238) 
498882

>  <name>  (1238) 
P498882

>  <HIPPO Compound ID>  (1238) 
294081

>  <ref_mols>  (1238) 
A3181a,A3618a

>  <distance_score>  (1238) 
1.904922

>  <inspiration_score>  (1238) 
None

$$$$
P498883
     RDKit          3D

 23 26  0  0  0  0  0  0  0  0999 V2000
    9.8878   11.4359   22.7461 O   0  0  0  0  0  0  0  0  0  0  0  0
    9.4401   12.1296   23.5651 C   0  0  0  0  0  0  0  0  0  0  0  0
    9.6268   13.6434   23.8060 N   0  0  0  0  0  0  0  0  0  0  0  0
   10.3241   14.6291   23.0358 C   0  0  1  0  0  0  0  0  0  0  0  0
   11.3560   14.3286   21.9492 C   0  0  0  0  0  0  0  0  0  0  0  0
   11.1651   15.4608   20.8887 C   0  0  1  0  0  0  0  0  0  0  0  0
   11.3577   15.0079   19.4424 C   0  0  0  0  0  0  0  0  0  0  0  0
   10.8315   15.9681   18.5334 O   0  0  0  0  0  0  0  0  0  0  0  0
    9.7567   15.9590   21.0948 C   0  0  1  0  0  0  0  0  0  0  0  0
    8.6186   14.9869   21.0410 C   0  0  0  0  0  0  0  0  0  0  0  0
    9.2230   15.3847   22.3498 C   0  0  1  0  0  0  0  0  0  0  0  0
    8.4234   11.6571   24.5757 C   0  0  0  0  0  0  0  0  0  0  0  0
    7.8626   10.3871   24.6684 C   0  0  0  0  0  0  0  0  0  0  0  0
    6.7635   10.1851   25.5462 C   0  0  0  0  0  0  0  0  0  0  0  0
    6.2470   11.2783   26.2227 C   0  0  0  0  0  0  0  0  0  0  0  0
    6.9176   12.4545   26.0968 C   0  0  0  0  0  0  0  0  0  0  0  0
    7.9896   12.6835   25.3299 N   0  0  0  0  0  0  0  0  0  0  0  0
    6.4719   13.4995   27.0042 C   0  0  0  0  0  0  0  0  0  0  0  0
    6.7802   14.6662   26.9075 O   0  0  0  0  0  0  0  0  0  0  0  0
    5.6430   12.9410   27.9937 N   0  0  0  0  0  0  0  0  0  0  0  0
    5.0522   11.4631   27.4854 S   0  0  0  0  0  0  0  0  0  0  0  0
    5.2827   10.4757   28.5056 O   0  0  0  0  0  0  0  0  0  0  0  0
    3.7380   11.7760   26.9919 O   0  0  0  0  0  0  0  0  0  0  0  0
  1  2  2  0
  2  3  1  0
  4  3  1  6
  4  5  1  0
  5  6  1  0
  6  7  1  6
  7  8  1  0
  6  9  1  0
  9 10  1  6
 11 10  1  6
  2 12  1  0
 12 13  2  0
 13 14  1  0
 14 15  2  0
 15 16  1  0
 16 17  2  0
 16 18  1  0
 18 19  2  0
 18 20  1  0
 20 21  1  0
 21 22  2  0
 21 23  2  0
 11  4  1  0
 17 12  1  0
 11  9  1  0
 21 15  1  0
M  END
>  <energy_score>  (1239) 
-7.232163

>  <inchikey>  (1239) 
None

>  <smiles>  (1239) 
None

>  <ref_pdb>  (1239) 
A3181a

>  <alias>  (1239) 
None

>  <HIPPO Pose ID>  (1239) 
498883

>  <name>  (1239) 
P498883

>  <HIPPO Compound ID>  (1239) 
294127

>  <ref_mols>  (1239) 
A3181a,A3618a

>  <distance_score>  (1239) 
1.999012

>  <inspiration_score>  (1239) 
None

$$$$
P498884
     RDKit          3D

 23 26  0  0  0  0  0  0  0  0999 V2000
   10.7145   12.0609   23.6956 O   0  0  0  0  0  0  0  0  0  0  0  0
    9.6719   12.5612   23.5524 C   0  0  0  0  0  0  0  0  0  0  0  0
    9.2642   13.8110   22.7419 N   0  0  0  0  0  0  0  0  0  0  0  0
   10.0774   14.7690   22.0094 C   0  0  2  0  0  0  0  0  0  0  0  0
    9.2263   15.2502   20.8241 C   0  0  0  0  0  0  0  0  0  0  0  0
    9.9666   15.9552   19.6918 C   0  0  0  0  0  0  0  0  0  0  0  0
   11.1650   15.1794   19.1756 C   0  0  0  0  0  0  0  0  0  0  0  0
   12.0328   14.6491   20.2567 C   0  0  1  0  0  0  0  0  0  0  0  0
   12.4224   15.4854   21.4176 C   0  0  1  0  0  0  0  0  0  0  0  0
   11.9003   16.7567   21.4763 F   0  0  0  0  0  0  0  0  0  0  0  0
   11.4576   14.3525   21.6258 C   0  0  1  0  0  0  0  0  0  0  0  0
    8.4512   12.0761   24.2896 C   0  0  0  0  0  0  0  0  0  0  0  0
    8.3227   10.8251   24.8914 C   0  0  0  0  0  0  0  0  0  0  0  0
    7.2524   10.5969   25.7849 C   0  0  0  0  0  0  0  0  0  0  0  0
    6.4064   11.6505   26.0517 C   0  0  0  0  0  0  0  0  0  0  0  0
    6.5303   12.7799   25.2914 C   0  0  0  0  0  0  0  0  0  0  0  0
    7.5108   13.0318   24.4049 N   0  0  0  0  0  0  0  0  0  0  0  0
    5.3718   13.6753   25.3982 C   0  0  0  0  0  0  0  0  0  0  0  0
    5.1618   14.6161   24.6660 O   0  0  0  0  0  0  0  0  0  0  0  0
    4.5008   13.1928   26.3877 N   0  0  0  0  0  0  0  0  0  0  0  0
    5.1435   11.9161   27.2203 S   0  0  0  0  0  0  0  0  0  0  0  0
    4.2050   10.8300   27.2819 O   0  0  0  0  0  0  0  0  0  0  0  0
    5.7401   12.4648   28.4089 O   0  0  0  0  0  0  0  0  0  0  0  0
  1  2  2  0
  2  3  1  0
  4  3  1  6
  4  5  1  0
  5  6  1  0
  6  7  1  0
  8  7  1  6
  8  9  1  0
  9 10  1  6
  9 11  1  0
  2 12  1  0
 12 13  2  0
 13 14  1  0
 14 15  2  0
 15 16  1  0
 16 17  2  0
 16 18  1  0
 18 19  2  0
 18 20  1  0
 20 21  1  0
 21 22  2  0
 21 23  2  0
 11  4  1  6
 17 12  1  0
 11  8  1  0
 21 15  1  0
M  END
>  <energy_score>  (1240) 
-4.075566

>  <inchikey>  (1240) 
None

>  <smiles>  (1240) 
None

>  <ref_pdb>  (1240) 
A3181a

>  <alias>  (1240) 
None

>  <HIPPO Pose ID>  (1240) 
498884

>  <name>  (1240) 
P498884

>  <HIPPO Compound ID>  (1240) 
294165

>  <ref_mols>  (1240) 
A3181a,A3618a

>  <distance_score>  (1240) 
1.958802

>  <inspiration_score>  (1240) 
None

$$$$
P498885
     RDKit          3D

 24 26  0  0  0  0  0  0  0  0999 V2000
   10.2197   11.3638   22.8730 O   0  0  0  0  0  0  0  0  0  0  0  0
    9.5877   12.2136   23.3523 C   0  0  0  0  0  0  0  0  0  0  0  0
    9.8467   13.7332   23.4250 N   0  0  0  0  0  0  0  0  0  0  0  0
   11.0034   14.5219   22.9986 C   0  0  1  0  0  0  0  0  0  0  0  0
   12.1046   14.3878   24.0242 C   0  0  0  0  0  0  0  0  0  0  0  0
   11.7464   14.3502   25.4882 C   0  0  0  0  0  0  0  0  0  0  0  0
   12.4173   13.1668   24.8303 C   0  0  0  0  0  0  0  0  0  0  0  0
   11.6039   14.5521   21.5761 C   0  0  0  0  0  0  0  0  0  0  0  0
   12.5345   15.5721   21.5483 F   0  0  0  0  0  0  0  0  0  0  0  0
   12.3082   13.4369   21.3073 F   0  0  0  0  0  0  0  0  0  0  0  0
   10.5970   14.9080   20.4973 C   0  0  0  0  0  0  0  0  0  0  0  0
   10.0091   16.1983   20.7188 O   0  0  0  0  0  0  0  0  0  0  0  0
    8.3463   11.8759   24.1372 C   0  0  0  0  0  0  0  0  0  0  0  0
    7.9654   10.5690   24.4694 C   0  0  0  0  0  0  0  0  0  0  0  0
    6.9296   10.3580   25.4129 C   0  0  0  0  0  0  0  0  0  0  0  0
    6.3225   11.4705   25.9672 C   0  0  0  0  0  0  0  0  0  0  0  0
    6.8235   12.6944   25.6204 C   0  0  0  0  0  0  0  0  0  0  0  0
    7.7926   12.9524   24.7173 N   0  0  0  0  0  0  0  0  0  0  0  0
    6.3963   13.7642   26.5159 C   0  0  0  0  0  0  0  0  0  0  0  0
    6.6217   14.9398   26.3383 O   0  0  0  0  0  0  0  0  0  0  0  0
    5.7331   13.2210   27.6346 N   0  0  0  0  0  0  0  0  0  0  0  0
    5.2334   11.6616   27.3217 S   0  0  0  0  0  0  0  0  0  0  0  0
    5.6470   10.7939   28.3924 O   0  0  0  0  0  0  0  0  0  0  0  0
    3.8546   11.8031   26.9375 O   0  0  0  0  0  0  0  0  0  0  0  0
  1  2  2  0
  2  3  1  0
  4  3  1  6
  4  5  1  0
  5  6  1  0
  6  7  1  0
  4  8  1  0
  8  9  1  0
  8 10  1  0
  8 11  1  0
 11 12  1  0
  2 13  1  0
 13 14  2  0
 14 15  1  0
 15 16  2  0
 16 17  1  0
 17 18  2  0
 17 19  1  0
 19 20  2  0
 19 21  1  0
 21 22  1  0
 22 23  2  0
 22 24  2  0
  7  5  1  0
 18 13  1  0
 22 16  1  0
M  END
>  <energy_score>  (1241) 
-25.592447

>  <inchikey>  (1241) 
None

>  <smiles>  (1241) 
None

>  <ref_pdb>  (1241) 
A3181a

>  <alias>  (1241) 
None

>  <HIPPO Pose ID>  (1241) 
498885

>  <name>  (1241) 
P498885

>  <HIPPO Compound ID>  (1241) 
294179

>  <ref_mols>  (1241) 
A3181a,A3618a

>  <distance_score>  (1241) 
1.987313

>  <inspiration_score>  (1241) 
None

$$$$
P498886
     RDKit          3D

 24 27  0  0  0  0  0  0  0  0999 V2000
   10.6970   12.1453   23.7715 O   0  0  0  0  0  0  0  0  0  0  0  0
    9.6405   12.5986   23.5851 C   0  0  0  0  0  0  0  0  0  0  0  0
    9.2198   13.8768   22.8307 N   0  0  0  0  0  0  0  0  0  0  0  0
   10.0207   14.9179   22.2280 C   0  0  2  0  0  0  0  0  0  0  0  0
    9.1626   15.7903   21.2701 C   0  0  0  0  0  0  0  0  0  0  0  0
    9.2034   15.2823   19.9350 O   0  0  0  0  0  0  0  0  0  0  0  0
   10.4858   15.4522   19.3167 C   0  0  0  0  0  0  0  0  0  0  0  0
   11.5584   14.8174   20.1257 C   0  0  2  0  0  0  0  0  0  0  0  0
   11.2921   14.4906   21.5867 C   0  0  1  0  0  0  0  0  0  0  0  0
   12.1551   15.6207   21.1986 C   0  0  0  0  0  0  0  0  0  0  0  0
   11.7081   16.8977   21.3883 F   0  0  0  0  0  0  0  0  0  0  0  0
   13.4902   15.6073   21.4854 F   0  0  0  0  0  0  0  0  0  0  0  0
    8.3955   12.0058   24.1956 C   0  0  0  0  0  0  0  0  0  0  0  0
    8.3222   10.7679   24.8276 C   0  0  0  0  0  0  0  0  0  0  0  0
    7.2756   10.5320   25.7478 C   0  0  0  0  0  0  0  0  0  0  0  0
    6.4166   11.5721   26.0285 C   0  0  0  0  0  0  0  0  0  0  0  0
    6.4735   12.6723   25.2261 C   0  0  0  0  0  0  0  0  0  0  0  0
    7.4207   12.9292   24.3065 N   0  0  0  0  0  0  0  0  0  0  0  0
    5.3680   13.6073   25.4455 C   0  0  0  0  0  0  0  0  0  0  0  0
    5.3067   14.7191   24.9710 O   0  0  0  0  0  0  0  0  0  0  0  0
    4.4504   13.0558   26.3682 N   0  0  0  0  0  0  0  0  0  0  0  0
    5.1732   11.8247   27.2219 S   0  0  0  0  0  0  0  0  0  0  0  0
    5.7624   12.4511   28.3757 O   0  0  0  0  0  0  0  0  0  0  0  0
    4.2913   10.6963   27.3410 O   0  0  0  0  0  0  0  0  0  0  0  0
  1  2  2  0
  2  3  1  0
  4  3  1  6
  4  5  1  0
  5  6  1  0
  6  7  1  0
  8  7  1  6
  8  9  1  0
  9 10  1  1
 10 11  1  0
 10 12  1  0
  2 13  1  0
 13 14  2  0
 14 15  1  0
 15 16  2  0
 16 17  1  0
 17 18  2  0
 17 19  1  0
 19 20  2  0
 19 21  1  0
 21 22  1  0
 22 23  2  0
 22 24  2  0
  9  4  1  0
 18 13  1  0
 10  8  1  0
 22 16  1  0
M  END
>  <energy_score>  (1242) 
-18.982987

>  <inchikey>  (1242) 
None

>  <smiles>  (1242) 
None

>  <ref_pdb>  (1242) 
A3181a

>  <alias>  (1242) 
None

>  <HIPPO Pose ID>  (1242) 
498886

>  <name>  (1242) 
P498886

>  <HIPPO Compound ID>  (1242) 
294213

>  <ref_mols>  (1242) 
A3181a,A3618a

>  <distance_score>  (1242) 
1.989347

>  <inspiration_score>  (1242) 
None

$$$$
P498887
     RDKit          3D

 24 27  0  0  0  0  0  0  0  0999 V2000
    6.8418   13.2020   22.3320 O   0  0  0  0  0  0  0  0  0  0  0  0
    7.5120   13.6769   23.1579 C   0  0  0  0  0  0  0  0  0  0  0  0
    7.3981   13.6175   24.6924 N   0  0  0  0  0  0  0  0  0  0  0  0
    6.5078   12.8959   25.5194 C   0  0  2  0  0  0  0  0  0  0  0  0
    6.0105   13.5883   26.7756 C   0  0  0  0  0  0  0  0  0  0  0  0
    5.2081   12.5937   27.6490 C   0  0  0  0  0  0  0  0  0  0  0  0
    5.1498   11.1721   27.0632 C   0  0  0  0  0  0  0  0  0  0  0  0
    6.5105   10.6717   26.7515 C   0  0  2  0  0  0  0  0  0  0  0  0
    7.2836   11.6779   25.9304 C   0  0  1  0  0  0  0  0  0  0  0  0
    7.1504   10.2983   25.4506 C   0  0  0  0  0  0  0  0  0  0  0  0
    6.4210    9.8224   24.4311 F   0  0  0  0  0  0  0  0  0  0  0  0
    8.3204    9.5798   25.3907 F   0  0  0  0  0  0  0  0  0  0  0  0
    8.7431   14.3842   22.7323 C   0  0  0  0  0  0  0  0  0  0  0  0
    9.8961   13.9639   23.4421 C   0  0  0  0  0  0  0  0  0  0  0  0
   11.1178   14.0512   22.8358 C   0  0  0  0  0  0  0  0  0  0  0  0
   11.0853   14.5240   21.5501 C   0  0  0  0  0  0  0  0  0  0  0  0
    9.9621   15.0098   20.9355 C   0  0  0  0  0  0  0  0  0  0  0  0
    8.7454   14.9363   21.4884 N   0  0  0  0  0  0  0  0  0  0  0  0
   10.2747   15.5956   19.6080 C   0  0  0  0  0  0  0  0  0  0  0  0
    9.5458   15.8717   18.6866 O   0  0  0  0  0  0  0  0  0  0  0  0
   11.6661   15.7159   19.4810 N   0  0  0  0  0  0  0  0  0  0  0  0
   12.4725   14.8326   20.6231 S   0  0  0  0  0  0  0  0  0  0  0  0
   12.9064   13.6096   20.0106 O   0  0  0  0  0  0  0  0  0  0  0  0
   13.2138   15.6297   21.5586 O   0  0  0  0  0  0  0  0  0  0  0  0
  1  2  2  0
  2  3  1  0
  4  3  1  1
  4  5  1  0
  5  6  1  0
  6  7  1  0
  8  7  1  6
  8  9  1  0
  9 10  1  6
 10 11  1  0
 10 12  1  0
  2 13  1  0
 13 14  2  0
 14 15  1  0
 15 16  2  0
 16 17  1  0
 17 18  2  0
 17 19  1  0
 19 20  2  0
 19 21  1  0
 21 22  1  0
 22 23  2  0
 22 24  2  0
  9  4  1  0
 18 13  1  0
 10  8  1  0
 22 16  1  0
M  END
>  <energy_score>  (1243) 
-9.993207

>  <inchikey>  (1243) 
None

>  <smiles>  (1243) 
None

>  <ref_pdb>  (1243) 
A3181a

>  <alias>  (1243) 
None

>  <HIPPO Pose ID>  (1243) 
498887

>  <name>  (1243) 
P498887

>  <HIPPO Compound ID>  (1243) 
294216

>  <ref_mols>  (1243) 
A3181a,A3618a

>  <distance_score>  (1243) 
1.872356

>  <inspiration_score>  (1243) 
None

$$$$
P498888
     RDKit          3D

 24 27  0  0  0  0  0  0  0  0999 V2000
    6.3022   14.7279   23.6293 O   0  0  0  0  0  0  0  0  0  0  0  0
    7.3679   14.3101   23.8416 C   0  0  0  0  0  0  0  0  0  0  0  0
    7.8342   13.1964   24.8124 N   0  0  0  0  0  0  0  0  0  0  0  0
    7.0863   12.3225   25.6339 C   0  0  1  0  0  0  0  0  0  0  0  0
    5.7942   12.8157   26.2451 C   0  0  0  0  0  0  0  0  0  0  0  0
    5.1790   11.7095   27.1243 C   0  0  0  0  0  0  0  0  0  0  0  0
    5.8451   10.3178   27.0310 C   0  0  0  0  0  0  0  0  0  0  0  0
    6.3065    9.9395   25.6587 C   0  0  1  0  0  0  0  0  0  0  0  0
    6.8601   11.0863   24.8632 C   0  0  2  0  0  0  0  0  0  0  0  0
    7.6747    9.8902   25.0654 C   0  0  0  0  0  0  0  0  0  0  0  0
    8.8806   10.2101   25.5847 F   0  0  0  0  0  0  0  0  0  0  0  0
    7.9243    9.0870   23.9757 F   0  0  0  0  0  0  0  0  0  0  0  0
    8.6021   14.8747   23.1983 C   0  0  0  0  0  0  0  0  0  0  0  0
    9.7083   14.9719   24.0718 C   0  0  0  0  0  0  0  0  0  0  0  0
   10.9669   15.0475   23.5405 C   0  0  0  0  0  0  0  0  0  0  0  0
   11.0118   15.1583   22.1730 C   0  0  0  0  0  0  0  0  0  0  0  0
    9.9057   15.1668   21.3583 C   0  0  0  0  0  0  0  0  0  0  0  0
    8.6560   14.9917   21.8357 N   0  0  0  0  0  0  0  0  0  0  0  0
   10.3045   15.2340   19.9198 C   0  0  0  0  0  0  0  0  0  0  0  0
    9.6784   15.6403   18.9677 O   0  0  0  0  0  0  0  0  0  0  0  0
   11.6631   14.8797   19.8047 N   0  0  0  0  0  0  0  0  0  0  0  0
   12.4005   14.7364   21.2816 S   0  0  0  0  0  0  0  0  0  0  0  0
   13.3391   15.8094   21.4686 O   0  0  0  0  0  0  0  0  0  0  0  0
   12.5616   13.3718   21.7228 O   0  0  0  0  0  0  0  0  0  0  0  0
  1  2  2  0
  2  3  1  0
  4  3  1  6
  4  5  1  0
  5  6  1  0
  6  7  1  0
  8  7  1  1
  8  9  1  0
  9 10  1  1
 10 11  1  0
 10 12  1  0
  2 13  1  0
 13 14  2  0
 14 15  1  0
 15 16  2  0
 16 17  1  0
 17 18  2  0
 17 19  1  0
 19 20  2  0
 19 21  1  0
 21 22  1  0
 22 23  2  0
 22 24  2  0
  9  4  1  0
 18 13  1  0
 10  8  1  0
 22 16  1  0
M  END
>  <energy_score>  (1244) 
-9.419096

>  <inchikey>  (1244) 
None

>  <smiles>  (1244) 
None

>  <ref_pdb>  (1244) 
A3181a

>  <alias>  (1244) 
None

>  <HIPPO Pose ID>  (1244) 
498888

>  <name>  (1244) 
P498888

>  <HIPPO Compound ID>  (1244) 
294216

>  <ref_mols>  (1244) 
A3181a,A3618a

>  <distance_score>  (1244) 
1.627609

>  <inspiration_score>  (1244) 
None

$$$$
P498889
     RDKit          3D

 24 25  0  0  0  0  0  0  0  0999 V2000
    9.2845   17.6532   19.4980 C   0  0  0  0  0  0  0  0  0  0  0  0
    9.2090   17.3402   20.9492 C   0  0  0  0  0  0  0  0  0  0  0  0
   10.3842   16.5900   21.2466 O   0  0  0  0  0  0  0  0  0  0  0  0
   10.2905   15.2487   21.0829 C   0  0  0  0  0  0  0  0  0  0  0  0
    9.3335   14.6386   20.6267 O   0  0  0  0  0  0  0  0  0  0  0  0
   11.5202   14.6194   21.6534 C   0  0  0  0  0  0  0  0  0  0  0  0
   11.3641   14.7223   23.1523 C   0  0  1  0  0  0  0  0  0  0  0  0
   10.0878   14.1988   23.5871 N   0  0  0  0  0  0  0  0  0  0  0  0
    9.1318   14.6882   24.6743 C   0  0  0  0  0  0  0  0  0  0  0  0
    9.1760   15.6357   25.3465 O   0  0  0  0  0  0  0  0  0  0  0  0
    8.0483   13.6999   24.9071 C   0  0  0  0  0  0  0  0  0  0  0  0
    6.9534   14.1388   25.6311 C   0  0  0  0  0  0  0  0  0  0  0  0
    6.1182   13.1892   26.1823 C   0  0  0  0  0  0  0  0  0  0  0  0
    6.3922   11.8410   25.9906 C   0  0  0  0  0  0  0  0  0  0  0  0
    5.4696   10.7610   26.9518 Cl  0  0  0  0  0  0  0  0  0  0  0  0
    7.4451   11.4881   25.1364 C   0  0  0  0  0  0  0  0  0  0  0  0
    7.7482   10.0528   24.7634 C   0  0  0  0  0  0  0  0  0  0  0  0
    7.0719    9.1895   25.1480 O   0  0  0  0  0  0  0  0  0  0  0  0
    8.9889   10.0177   23.8590 N   0  0  0  0  0  0  0  0  0  0  0  0
    9.6017    8.9268   23.1624 C   0  0  0  0  0  0  0  0  0  0  0  0
    8.3067   12.4026   24.5816 N   0  0  0  0  0  0  0  0  0  0  0  0
   12.4819   14.0577   23.8895 C   0  0  0  0  0  0  0  0  0  0  0  0
   12.3577   12.6714   24.4339 C   0  0  0  0  0  0  0  0  0  0  0  0
   12.3331   13.8358   25.3684 C   0  0  0  0  0  0  0  0  0  0  0  0
  1  2  1  0
  2  3  1  0
  3  4  1  0
  4  5  2  0
  4  6  1  0
  7  6  1  6
  7  8  1  0
  8  9  1  0
  9 10  2  0
  9 11  1  0
 11 12  2  0
 12 13  1  0
 13 14  2  0
 14 15  1  0
 14 16  1  0
 16 17  1  0
 17 18  2  0
 17 19  1  0
 19 20  1  0
 16 21  2  0
  7 22  1  0
 22 23  1  0
 23 24  1  0
 21 11  1  0
 24 22  1  0
M  END
>  <energy_score>  (1245) 
-21.565926

>  <inchikey>  (1245) 
None

>  <smiles>  (1245) 
None

>  <ref_pdb>  (1245) 
A3181a

>  <alias>  (1245) 
None

>  <HIPPO Pose ID>  (1245) 
498889

>  <name>  (1245) 
P498889

>  <HIPPO Compound ID>  (1245) 
294236

>  <ref_mols>  (1245) 
A3181a,A3618a

>  <distance_score>  (1245) 
1.882135

>  <inspiration_score>  (1245) 
None

$$$$
P498890
     RDKit          3D

 24 26  0  0  0  0  0  0  0  0999 V2000
    9.6026    8.9833   23.1692 C   0  0  0  0  0  0  0  0  0  0  0  0
    8.8727   10.0786   23.7334 N   0  0  0  0  0  0  0  0  0  0  0  0
    7.7208   10.0922   24.7482 C   0  0  0  0  0  0  0  0  0  0  0  0
    7.1305    9.2144   25.2291 O   0  0  0  0  0  0  0  0  0  0  0  0
    7.3566   11.5254   25.0707 C   0  0  0  0  0  0  0  0  0  0  0  0
    8.1323   12.4576   24.4257 N   0  0  0  0  0  0  0  0  0  0  0  0
    7.7986   13.7546   24.6782 C   0  0  0  0  0  0  0  0  0  0  0  0
    8.8483   14.7752   24.4198 C   0  0  0  0  0  0  0  0  0  0  0  0
    8.8231   15.7651   25.0307 O   0  0  0  0  0  0  0  0  0  0  0  0
    9.8747   14.2586   23.4095 N   0  0  0  0  0  0  0  0  0  0  0  0
   11.1464   14.8065   23.0002 C   0  0  1  0  0  0  0  0  0  0  0  0
   12.2062   14.2407   23.9214 C   0  0  0  0  0  0  0  0  0  0  0  0
   11.9068   14.0635   25.3856 C   0  0  0  0  0  0  0  0  0  0  0  0
   12.1289   12.8626   24.5067 C   0  0  0  0  0  0  0  0  0  0  0  0
   11.4369   14.5935   21.5100 C   0  0  2  0  0  0  0  0  0  0  0  0
   12.7405   15.2481   21.0873 C   0  0  0  0  0  0  0  0  0  0  0  0
   13.1613   14.6756   19.8586 O   0  0  0  0  0  0  0  0  0  0  0  0
   10.2412   15.0381   20.6803 C   0  0  0  0  0  0  0  0  0  0  0  0
   10.3229   15.7741   19.3659 C   0  0  0  0  0  0  0  0  0  0  0  0
    9.8474   16.4929   20.5973 C   0  0  0  0  0  0  0  0  0  0  0  0
    6.7092   14.1658   25.4262 C   0  0  0  0  0  0  0  0  0  0  0  0
    5.9691   13.2002   26.0780 C   0  0  0  0  0  0  0  0  0  0  0  0
    6.3210   11.8618   25.9522 C   0  0  0  0  0  0  0  0  0  0  0  0
    5.4850   10.7800   26.9889 Cl  0  0  0  0  0  0  0  0  0  0  0  0
  1  2  1  0
  2  3  1  0
  3  4  2  0
  3  5  1  0
  5  6  2  0
  6  7  1  0
  7  8  1  0
  8  9  2  0
  8 10  1  0
 11 10  1  1
 11 12  1  0
 12 13  1  0
 13 14  1  0
 11 15  1  0
 15 16  1  6
 16 17  1  0
 15 18  1  0
 18 19  1  0
 19 20  1  0
  7 21  2  0
 21 22  1  0
 22 23  2  0
 23 24  1  0
 23  5  1  0
 14 12  1  0
 20 18  1  0
M  END
>  <energy_score>  (1246) 
-3.710239

>  <inchikey>  (1246) 
None

>  <smiles>  (1246) 
None

>  <ref_pdb>  (1246) 
A3181a

>  <alias>  (1246) 
None

>  <HIPPO Pose ID>  (1246) 
498890

>  <name>  (1246) 
P498890

>  <HIPPO Compound ID>  (1246) 
294237

>  <ref_mols>  (1246) 
A3181a,A3618a

>  <distance_score>  (1246) 
1.751153

>  <inspiration_score>  (1246) 
None

$$$$
P498891
     RDKit          3D

 24 26  0  0  0  0  0  0  0  0999 V2000
    9.6605    8.9416   23.1652 C   0  0  0  0  0  0  0  0  0  0  0  0
    9.0188   10.0467   23.8113 N   0  0  0  0  0  0  0  0  0  0  0  0
    7.7902   10.0880   24.7292 C   0  0  0  0  0  0  0  0  0  0  0  0
    7.1492    9.2243   25.1688 O   0  0  0  0  0  0  0  0  0  0  0  0
    7.4247   11.5292   25.0116 C   0  0  0  0  0  0  0  0  0  0  0  0
    8.2078   12.4511   24.3539 N   0  0  0  0  0  0  0  0  0  0  0  0
    7.8648   13.7495   24.5799 C   0  0  0  0  0  0  0  0  0  0  0  0
    8.9205   14.7801   24.3867 C   0  0  0  0  0  0  0  0  0  0  0  0
    8.8657   15.7277   25.0612 O   0  0  0  0  0  0  0  0  0  0  0  0
    9.9786   14.3459   23.3677 N   0  0  0  0  0  0  0  0  0  0  0  0
   11.2505   14.9382   23.0253 C   0  0  1  0  0  0  0  0  0  0  0  0
   12.3371   14.2277   23.7925 C   0  0  0  0  0  0  0  0  0  0  0  0
   12.1986   12.8240   24.3191 C   0  0  0  0  0  0  0  0  0  0  0  0
   12.1018   13.9727   25.2660 C   0  0  0  0  0  0  0  0  0  0  0  0
   11.4962   15.3381   21.5501 C   0  0  1  0  0  0  0  0  0  0  0  0
   12.5866   14.5862   20.8264 C   0  0  0  0  0  0  0  0  0  0  0  0
   12.5730   13.2284   21.1891 O   0  0  0  0  0  0  0  0  0  0  0  0
   10.2246   15.3552   20.7428 C   0  0  0  0  0  0  0  0  0  0  0  0
   10.1416   16.0078   19.3913 C   0  0  0  0  0  0  0  0  0  0  0  0
    9.5180   16.6737   20.5865 C   0  0  0  0  0  0  0  0  0  0  0  0
    6.7472   14.1638   25.2899 C   0  0  0  0  0  0  0  0  0  0  0  0
    6.0024   13.2104   25.9533 C   0  0  0  0  0  0  0  0  0  0  0  0
    6.3721   11.8755   25.8708 C   0  0  0  0  0  0  0  0  0  0  0  0
    5.5339   10.8117   26.9267 Cl  0  0  0  0  0  0  0  0  0  0  0  0
  1  2  1  0
  2  3  1  0
  3  4  2  0
  3  5  1  0
  5  6  2  0
  6  7  1  0
  7  8  1  0
  8  9  2  0
  8 10  1  0
 11 10  1  6
 11 12  1  0
 12 13  1  0
 13 14  1  0
 11 15  1  0
 15 16  1  6
 16 17  1  0
 15 18  1  0
 18 19  1  0
 19 20  1  0
  7 21  2  0
 21 22  1  0
 22 23  2  0
 23 24  1  0
 23  5  1  0
 14 12  1  0
 20 18  1  0
M  END
>  <energy_score>  (1247) 
-7.331913

>  <inchikey>  (1247) 
None

>  <smiles>  (1247) 
None

>  <ref_pdb>  (1247) 
A3181a

>  <alias>  (1247) 
None

>  <HIPPO Pose ID>  (1247) 
498891

>  <name>  (1247) 
P498891

>  <HIPPO Compound ID>  (1247) 
294237

>  <ref_mols>  (1247) 
A3181a,A3618a

>  <distance_score>  (1247) 
1.717962

>  <inspiration_score>  (1247) 
None

$$$$
P498892
     RDKit          3D

 24 27  0  0  0  0  0  0  0  0999 V2000
    9.8168   14.2454   25.2155 O   0  0  0  0  0  0  0  0  0  0  0  0
    9.4280   13.5842   24.3372 C   0  0  0  0  0  0  0  0  0  0  0  0
    9.5781   13.7585   22.8134 N   0  0  0  0  0  0  0  0  0  0  0  0
   10.1563   14.8327   22.0464 C   0  0  2  0  0  0  0  0  0  0  0  0
    9.2427   15.1622   20.8606 C   0  0  0  0  0  0  0  0  0  0  0  0
    9.9163   15.8751   19.6869 C   0  0  0  0  0  0  0  0  0  0  0  0
   11.1632   15.1692   19.1802 C   0  0  0  0  0  0  0  0  0  0  0  0
   12.0800   14.7337   20.2638 C   0  0  1  0  0  0  0  0  0  0  0  0
   12.4408   15.6526   21.3733 C   0  0  1  0  0  0  0  0  0  0  0  0
   11.8181   16.8766   21.4060 F   0  0  0  0  0  0  0  0  0  0  0  0
   11.5577   14.4801   21.6583 C   0  0  1  0  0  0  0  0  0  0  0  0
    8.6352   12.3424   24.6353 C   0  0  0  0  0  0  0  0  0  0  0  0
    8.9878   11.1349   24.0446 C   0  0  0  0  0  0  0  0  0  0  0  0
    8.2557   10.0006   24.3679 C   0  0  0  0  0  0  0  0  0  0  0  0
    7.1948   10.1154   25.2570 C   0  0  0  0  0  0  0  0  0  0  0  0
    6.8891   11.3678   25.7844 C   0  0  0  0  0  0  0  0  0  0  0  0
    5.7382   11.4586   26.7425 C   0  0  0  0  0  0  0  0  0  0  0  0
    5.2588   10.4328   27.2272 O   0  0  0  0  0  0  0  0  0  0  0  0
    5.2096   12.6876   27.0460 N   0  0  0  0  0  0  0  0  0  0  0  0
    5.6413   13.5029   28.1523 C   0  0  0  0  0  0  0  0  0  0  0  0
    4.4066   14.3479   28.4314 C   0  0  0  0  0  0  0  0  0  0  0  0
    3.8518   14.6165   27.0390 C   0  0  0  0  0  0  0  0  0  0  0  0
    4.1470   13.3253   26.2920 C   0  0  0  0  0  0  0  0  0  0  0  0
    7.6064   12.4816   25.5015 N   0  0  0  0  0  0  0  0  0  0  0  0
  1  2  2  0
  2  3  1  0
  4  3  1  6
  4  5  1  0
  5  6  1  0
  6  7  1  0
  8  7  1  6
  8  9  1  0
  9 10  1  6
  9 11  1  0
  2 12  1  0
 12 13  2  0
 13 14  1  0
 14 15  2  0
 15 16  1  0
 16 17  1  0
 17 18  2  0
 17 19  1  0
 19 20  1  0
 20 21  1  0
 21 22  1  0
 22 23  1  0
 16 24  2  0
 11  4  1  6
 24 12  1  0
 11  8  1  0
 23 19  1  0
M  END
>  <energy_score>  (1248) 
-21.841238

>  <inchikey>  (1248) 
None

>  <smiles>  (1248) 
None

>  <ref_pdb>  (1248) 
A3181a

>  <alias>  (1248) 
None

>  <HIPPO Pose ID>  (1248) 
498892

>  <name>  (1248) 
P498892

>  <HIPPO Compound ID>  (1248) 
294274

>  <ref_mols>  (1248) 
A3181a,A3618a

>  <distance_score>  (1248) 
1.964946

>  <inspiration_score>  (1248) 
None

$$$$
P498893
     RDKit          3D

 18 18  0  0  0  0  0  0  0  0999 V2000
    7.0612    9.7484   24.9614 C   0  0  0  0  0  0  0  0  0  0  0  0
    6.7965   11.2297   24.8266 C   0  0  2  0  0  0  0  0  0  0  0  0
    8.0713   12.0374   24.7320 C   0  0  0  0  0  0  0  0  0  0  0  0
    9.0125   11.4690   23.6837 C   0  0  0  0  0  0  0  0  0  0  0  0
   10.0292   12.4002   23.3433 N   0  0  0  0  0  0  0  0  0  0  0  0
    9.9953   13.6145   22.4055 C   0  0  0  0  0  0  0  0  0  0  0  0
    9.1108   14.0907   21.8224 O   0  0  0  0  0  0  0  0  0  0  0  0
   11.4190   14.0948   22.3411 C   0  0  0  0  0  0  0  0  0  0  0  0
   12.2731   13.4968   23.2057 F   0  0  0  0  0  0  0  0  0  0  0  0
   11.8732   15.0310   21.5077 C   0  0  0  0  0  0  0  0  0  0  0  0
   11.0534   15.8098   20.6840 C   0  0  0  0  0  0  0  0  0  0  0  0
   10.8019   15.7065   19.3451 C   0  0  0  0  0  0  0  0  0  0  0  0
    9.9595   16.7327   19.0337 O   0  0  0  0  0  0  0  0  0  0  0  0
    9.7390   17.3657   20.2276 C   0  0  0  0  0  0  0  0  0  0  0  0
   10.3828   16.8517   21.2446 N   0  0  0  0  0  0  0  0  0  0  0  0
    5.5788   11.6901   26.0929 S   0  0  0  0  0  0  0  0  0  0  0  0
    5.7253   13.4653   26.0273 C   0  0  0  0  0  0  0  0  0  0  0  0
    6.0555   11.1896   27.5873 O   0  0  0  0  0  0  0  0  0  0  0  0
  2  1  1  1
  2  3  1  0
  3  4  1  0
  4  5  1  0
  5  6  1  0
  6  7  2  0
  6  8  1  0
  8  9  1  0
  8 10  2  0
 10 11  1  0
 11 12  2  0
 12 13  1  0
 13 14  1  0
 14 15  2  0
  2 16  1  0
 16 17  1  1
 16 18  1  0
 15 11  1  0
M  CHG  2  16   1  18  -1
M  END
>  <energy_score>  (1249) 
-4.956927

>  <inchikey>  (1249) 
None

>  <smiles>  (1249) 
None

>  <ref_pdb>  (1249) 
A3618a

>  <alias>  (1249) 
None

>  <HIPPO Pose ID>  (1249) 
498893

>  <name>  (1249) 
P498893

>  <HIPPO Compound ID>  (1249) 
294296

>  <ref_mols>  (1249) 
A3568a,A3618a

>  <distance_score>  (1249) 
1.305125

>  <inspiration_score>  (1249) 
None

$$$$
P498894
     RDKit          3D

 18 18  0  0  0  0  0  0  0  0999 V2000
    8.4457   10.9363   24.0117 C   0  0  0  0  0  0  0  0  0  0  0  0
    7.6824   11.6874   25.0913 C   0  0  1  0  0  0  0  0  0  0  0  0
    7.7426   13.2192   24.9855 C   0  0  0  0  0  0  0  0  0  0  0  0
    7.7942   13.8516   23.5968 C   0  0  0  0  0  0  0  0  0  0  0  0
    9.1306   13.8283   23.0718 N   0  0  0  0  0  0  0  0  0  0  0  0
   10.4525   14.3804   23.6613 C   0  0  0  0  0  0  0  0  0  0  0  0
   10.6721   14.8703   24.6979 O   0  0  0  0  0  0  0  0  0  0  0  0
   11.5314   14.0879   22.6791 C   0  0  0  0  0  0  0  0  0  0  0  0
   12.4703   13.2606   23.1850 F   0  0  0  0  0  0  0  0  0  0  0  0
   11.6199   14.5148   21.4145 C   0  0  0  0  0  0  0  0  0  0  0  0
   10.8094   15.4802   20.7876 C   0  0  0  0  0  0  0  0  0  0  0  0
   10.7181   15.7540   19.4486 C   0  0  0  0  0  0  0  0  0  0  0  0
    9.9624   16.8819   19.3259 O   0  0  0  0  0  0  0  0  0  0  0  0
    9.6281   17.2038   20.6117 C   0  0  0  0  0  0  0  0  0  0  0  0
   10.0778   16.3677   21.5172 N   0  0  0  0  0  0  0  0  0  0  0  0
    5.9793   11.0851   25.2349 S   0  0  0  0  0  0  0  0  0  0  0  0
    5.5322   11.7542   26.8417 C   0  0  0  0  0  0  0  0  0  0  0  0
    6.0303    9.4393   25.3666 O   0  0  0  0  0  0  0  0  0  0  0  0
  2  1  1  6
  2  3  1  0
  3  4  1  0
  4  5  1  0
  5  6  1  0
  6  7  2  0
  6  8  1  0
  8  9  1  0
  8 10  2  0
 10 11  1  0
 11 12  2  0
 12 13  1  0
 13 14  1  0
 14 15  2  0
  2 16  1  0
 16 17  1  1
 16 18  1  0
 15 11  1  0
M  CHG  2  16   1  18  -1
M  END
>  <energy_score>  (1250) 
-25.144191

>  <inchikey>  (1250) 
None

>  <smiles>  (1250) 
None

>  <ref_pdb>  (1250) 
A3618a

>  <alias>  (1250) 
None

>  <HIPPO Pose ID>  (1250) 
498894

>  <name>  (1250) 
P498894

>  <HIPPO Compound ID>  (1250) 
294296

>  <ref_mols>  (1250) 
A3568a,A3618a

>  <distance_score>  (1250) 
1.272536

>  <inspiration_score>  (1250) 
None

$$$$
P498895
     RDKit          3D

 18 18  0  0  0  0  0  0  0  0999 V2000
    8.2807   10.6579   23.9483 C   0  0  0  0  0  0  0  0  0  0  0  0
    7.2515   11.6029   24.5664 C   0  0  2  0  0  0  0  0  0  0  0  0
    7.8534   12.9518   24.9492 C   0  0  0  0  0  0  0  0  0  0  0  0
    7.8580   13.9566   23.7921 C   0  0  0  0  0  0  0  0  0  0  0  0
    9.1501   13.9942   23.1842 N   0  0  0  0  0  0  0  0  0  0  0  0
   10.4791   14.5942   23.6907 C   0  0  0  0  0  0  0  0  0  0  0  0
   10.7456   15.0832   24.7149 O   0  0  0  0  0  0  0  0  0  0  0  0
   11.4964   14.3545   22.6361 C   0  0  0  0  0  0  0  0  0  0  0  0
   12.5277   13.6301   23.0901 F   0  0  0  0  0  0  0  0  0  0  0  0
   11.5036   14.7322   21.3581 C   0  0  0  0  0  0  0  0  0  0  0  0
   10.6521   15.6595   20.7448 C   0  0  0  0  0  0  0  0  0  0  0  0
   10.5828   15.9584   19.4120 C   0  0  0  0  0  0  0  0  0  0  0  0
    9.8661   17.1132   19.3111 O   0  0  0  0  0  0  0  0  0  0  0  0
    9.5066   17.4036   20.5979 C   0  0  0  0  0  0  0  0  0  0  0  0
    9.9126   16.5278   21.4854 N   0  0  0  0  0  0  0  0  0  0  0  0
    6.4503   10.7372   25.9575 S   0  0  0  0  0  0  0  0  0  0  0  0
    5.2182   11.9722   26.3962 C   0  0  0  0  0  0  0  0  0  0  0  0
    5.6295    9.4685   25.2907 O   0  0  0  0  0  0  0  0  0  0  0  0
  2  1  1  1
  2  3  1  0
  3  4  1  0
  4  5  1  0
  5  6  1  0
  6  7  2  0
  6  8  1  0
  8  9  1  0
  8 10  2  0
 10 11  1  0
 11 12  2  0
 12 13  1  0
 13 14  1  0
 14 15  2  0
  2 16  1  0
 16 17  1  6
 16 18  1  0
 15 11  1  0
M  CHG  2  16   1  18  -1
M  END
>  <energy_score>  (1251) 
-18.457245

>  <inchikey>  (1251) 
None

>  <smiles>  (1251) 
None

>  <ref_pdb>  (1251) 
A3618a

>  <alias>  (1251) 
None

>  <HIPPO Pose ID>  (1251) 
498895

>  <name>  (1251) 
P498895

>  <HIPPO Compound ID>  (1251) 
294296

>  <ref_mols>  (1251) 
A3568a,A3618a

>  <distance_score>  (1251) 
1.399532

>  <inspiration_score>  (1251) 
None

$$$$
P498896
     RDKit          3D

 18 18  0  0  0  0  0  0  0  0999 V2000
    7.6450    9.5325   24.6192 C   0  0  0  0  0  0  0  0  0  0  0  0
    7.5615   10.9163   25.2319 C   0  0  1  0  0  0  0  0  0  0  0  0
    8.0315   12.0179   24.3078 C   0  0  0  0  0  0  0  0  0  0  0  0
    9.2262   11.5209   23.5030 C   0  0  0  0  0  0  0  0  0  0  0  0
   10.1748   12.5311   23.2353 N   0  0  0  0  0  0  0  0  0  0  0  0
   10.0819   13.7696   22.3448 C   0  0  0  0  0  0  0  0  0  0  0  0
    9.1861   14.2008   21.7482 O   0  0  0  0  0  0  0  0  0  0  0  0
   11.4913   14.2924   22.3156 C   0  0  0  0  0  0  0  0  0  0  0  0
   12.3422   13.7263   23.2048 F   0  0  0  0  0  0  0  0  0  0  0  0
   11.9415   15.2038   21.4571 C   0  0  0  0  0  0  0  0  0  0  0  0
   11.0975   15.9273   20.6125 C   0  0  0  0  0  0  0  0  0  0  0  0
   10.8078   15.7470   19.2904 C   0  0  0  0  0  0  0  0  0  0  0  0
    9.9316   16.7361   18.9573 O   0  0  0  0  0  0  0  0  0  0  0  0
    9.7272   17.4212   20.1254 C   0  0  0  0  0  0  0  0  0  0  0  0
   10.4126   16.9740   21.1453 N   0  0  0  0  0  0  0  0  0  0  0  0
    6.0603   11.1301   26.1990 S   0  0  0  0  0  0  0  0  0  0  0  0
    5.7703   12.8820   26.0476 C   0  0  0  0  0  0  0  0  0  0  0  0
    4.8328   10.3131   25.4877 O   0  0  0  0  0  0  0  0  0  0  0  0
  2  1  1  6
  2  3  1  0
  3  4  1  0
  4  5  1  0
  5  6  1  0
  6  7  2  0
  6  8  1  0
  8  9  1  0
  8 10  2  0
 10 11  1  0
 11 12  2  0
 12 13  1  0
 13 14  1  0
 14 15  2  0
  2 16  1  0
 16 17  1  6
 16 18  1  0
 15 11  1  0
M  CHG  2  16   1  18  -1
M  END
>  <energy_score>  (1252) 
-0.394555

>  <inchikey>  (1252) 
None

>  <smiles>  (1252) 
None

>  <ref_pdb>  (1252) 
A3618a

>  <alias>  (1252) 
None

>  <HIPPO Pose ID>  (1252) 
498896

>  <name>  (1252) 
P498896

>  <HIPPO Compound ID>  (1252) 
294296

>  <ref_mols>  (1252) 
A3568a,A3618a

>  <distance_score>  (1252) 
1.225184

>  <inspiration_score>  (1252) 
None

$$$$
P498897
     RDKit          3D

 18 18  0  0  0  0  0  0  0  0999 V2000
    7.8341   10.7067   24.4686 C   0  0  0  0  0  0  0  0  0  0  0  0
    6.9385   11.9023   24.7631 C   0  0  2  0  0  0  0  0  0  0  0  0
    7.7237   13.2103   24.9317 C   0  0  0  0  0  0  0  0  0  0  0  0
    7.7913   14.0459   23.6360 C   0  0  0  0  0  0  0  0  0  0  0  0
    9.1411   14.3672   23.2571 N   0  0  0  0  0  0  0  0  0  0  0  0
   10.4016   13.4931   23.2220 C   0  0  0  0  0  0  0  0  0  0  0  0
   10.5672   12.3935   23.5668 O   0  0  0  0  0  0  0  0  0  0  0  0
   11.5863   14.2599   22.7256 C   0  0  0  0  0  0  0  0  0  0  0  0
   12.6879   13.9777   23.4435 F   0  0  0  0  0  0  0  0  0  0  0  0
   11.7667   15.0828   21.6932 C   0  0  0  0  0  0  0  0  0  0  0  0
   10.7977   15.6926   20.8943 C   0  0  0  0  0  0  0  0  0  0  0  0
   10.7708   15.8312   19.5348 C   0  0  0  0  0  0  0  0  0  0  0  0
    9.9348   16.8785   19.2765 O   0  0  0  0  0  0  0  0  0  0  0  0
    9.4878   17.2688   20.5100 C   0  0  0  0  0  0  0  0  0  0  0  0
    9.9047   16.5228   21.5049 N   0  0  0  0  0  0  0  0  0  0  0  0
    5.8421   11.5009   26.1848 S   0  0  0  0  0  0  0  0  0  0  0  0
    4.5774   12.7266   25.8474 C   0  0  0  0  0  0  0  0  0  0  0  0
    6.4994   12.0309   27.6033 O   0  0  0  0  0  0  0  0  0  0  0  0
  2  1  1  1
  2  3  1  0
  3  4  1  0
  4  5  1  0
  5  6  1  0
  6  7  2  0
  6  8  1  0
  8  9  1  0
  8 10  2  0
 10 11  1  0
 11 12  2  0
 12 13  1  0
 13 14  1  0
 14 15  2  0
  2 16  1  0
 16 17  1  6
 16 18  1  0
 15 11  1  0
M  CHG  2  16   1  18  -1
M  END
>  <energy_score>  (1253) 
-22.450838

>  <inchikey>  (1253) 
None

>  <smiles>  (1253) 
None

>  <ref_pdb>  (1253) 
A3618a

>  <alias>  (1253) 
None

>  <HIPPO Pose ID>  (1253) 
498897

>  <name>  (1253) 
P498897

>  <HIPPO Compound ID>  (1253) 
294296

>  <ref_mols>  (1253) 
A3568a,A3618a

>  <distance_score>  (1253) 
1.580747

>  <inspiration_score>  (1253) 
None

$$$$
P498898
     RDKit          3D

 18 18  0  0  0  0  0  0  0  0999 V2000
    7.5396    9.6369   24.5749 C   0  0  0  0  0  0  0  0  0  0  0  0
    7.1056   11.0826   24.7165 C   0  0  2  0  0  0  0  0  0  0  0  0
    8.2580   12.0511   24.5572 C   0  0  0  0  0  0  0  0  0  0  0  0
    9.2617   11.5394   23.5444 C   0  0  0  0  0  0  0  0  0  0  0  0
   10.2272   12.5232   23.2445 N   0  0  0  0  0  0  0  0  0  0  0  0
   10.1415   13.7577   22.3474 C   0  0  0  0  0  0  0  0  0  0  0  0
    9.2411   14.2071   21.7713 O   0  0  0  0  0  0  0  0  0  0  0  0
   11.5474   14.2786   22.3059 C   0  0  0  0  0  0  0  0  0  0  0  0
   12.4004   13.7233   23.1988 F   0  0  0  0  0  0  0  0  0  0  0  0
   11.9818   15.1995   21.4486 C   0  0  0  0  0  0  0  0  0  0  0  0
   11.1256   15.9181   20.6106 C   0  0  0  0  0  0  0  0  0  0  0  0
   10.8235   15.7348   19.2913 C   0  0  0  0  0  0  0  0  0  0  0  0
    9.9362   16.7168   18.9657 O   0  0  0  0  0  0  0  0  0  0  0  0
    9.7384   17.4013   20.1353 C   0  0  0  0  0  0  0  0  0  0  0  0
   10.4380   16.9607   21.1487 N   0  0  0  0  0  0  0  0  0  0  0  0
    6.1864   11.2445   26.2709 S   0  0  0  0  0  0  0  0  0  0  0  0
    5.7239   12.9701   26.1182 C   0  0  0  0  0  0  0  0  0  0  0  0
    4.8030   10.3612   26.0684 O   0  0  0  0  0  0  0  0  0  0  0  0
  2  1  1  1
  2  3  1  0
  3  4  1  0
  4  5  1  0
  5  6  1  0
  6  7  2  0
  6  8  1  0
  8  9  1  0
  8 10  2  0
 10 11  1  0
 11 12  2  0
 12 13  1  0
 13 14  1  0
 14 15  2  0
  2 16  1  0
 16 17  1  6
 16 18  1  0
 15 11  1  0
M  CHG  2  16   1  18  -1
M  END
>  <energy_score>  (1254) 
-11.75312

>  <inchikey>  (1254) 
None

>  <smiles>  (1254) 
None

>  <ref_pdb>  (1254) 
A3618a

>  <alias>  (1254) 
None

>  <HIPPO Pose ID>  (1254) 
498898

>  <name>  (1254) 
P498898

>  <HIPPO Compound ID>  (1254) 
294296

>  <ref_mols>  (1254) 
A3568a,A3618a

>  <distance_score>  (1254) 
1.266634

>  <inspiration_score>  (1254) 
None

$$$$
P498899
     RDKit          3D

 24 27  0  0  0  0  0  0  0  0999 V2000
    5.8764   13.5427   26.6340 C   0  0  0  0  0  0  0  0  0  0  0  0
    5.8068   12.1257   27.0295 C   0  0  0  0  0  0  0  0  0  0  0  0
    5.1792   11.6973   28.1138 N   0  0  0  0  0  0  0  0  0  0  0  0
    4.9986   10.3637   27.9363 C   0  0  0  0  0  0  0  0  0  0  0  0
    5.5511    9.9985   26.7448 C   0  0  0  0  0  0  0  0  0  0  0  0
    6.2859   11.0650   26.2873 N   0  0  0  0  0  0  0  0  0  0  0  0
    7.3132   10.9558   25.3020 C   0  0  0  0  0  0  0  0  0  0  0  0
    8.1223   12.0252   24.9798 C   0  0  0  0  0  0  0  0  0  0  0  0
    9.2145   11.8282   24.1307 C   0  0  0  0  0  0  0  0  0  0  0  0
   10.2395   12.8977   24.1079 C   0  0  0  0  0  0  0  0  0  0  0  0
   10.2958   13.5456   25.0755 O   0  0  0  0  0  0  0  0  0  0  0  0
   11.0189   13.0080   22.7888 N   0  0  0  0  0  0  0  0  0  0  0  0
   11.9667   13.9966   22.3417 C   0  0  2  0  0  0  0  0  0  0  0  0
   11.3174   15.3382   22.6489 C   0  0  0  0  0  0  0  0  0  0  0  0
    9.9887   15.4857   21.8633 C   0  0  0  0  0  0  0  0  0  0  0  0
   10.2817   15.3370   20.4608 C   0  0  0  0  0  0  0  0  0  0  0  0
    9.8047   16.0384   19.3712 C   0  0  0  0  0  0  0  0  0  0  0  0
   10.5059   15.7297   18.2886 N   0  0  0  0  0  0  0  0  0  0  0  0
   11.4768   14.9042   18.7185 N   0  0  0  0  0  0  0  0  0  0  0  0
   11.3684   14.6462   20.0277 C   0  0  0  0  0  0  0  0  0  0  0  0
   12.3791   13.9996   20.8655 C   0  0  0  0  0  0  0  0  0  0  0  0
    9.4192   10.5943   23.5575 C   0  0  0  0  0  0  0  0  0  0  0  0
    8.5747    9.5793   23.9370 C   0  0  0  0  0  0  0  0  0  0  0  0
    7.5534    9.7229   24.8043 N   0  0  0  0  0  0  0  0  0  0  0  0
  1  2  1  0
  2  3  2  0
  3  4  1  0
  4  5  2  0
  5  6  1  0
  6  7  1  0
  7  8  2  0
  8  9  1  0
  9 10  1  0
 10 11  2  0
 10 12  1  0
 13 12  1  6
 13 14  1  0
 14 15  1  0
 15 16  1  0
 16 17  1  0
 17 18  2  0
 18 19  1  0
 19 20  1  0
 20 21  1  0
  9 22  2  0
 22 23  1  0
 23 24  2  0
  6  2  1  0
 24  7  1  0
 21 13  1  0
 20 16  2  0
M  END
>  <energy_score>  (1255) 
-5.743475

>  <inchikey>  (1255) 
None

>  <smiles>  (1255) 
None

>  <ref_pdb>  (1255) 
A3435a

>  <alias>  (1255) 
None

>  <HIPPO Pose ID>  (1255) 
498899

>  <name>  (1255) 
P498899

>  <HIPPO Compound ID>  (1255) 
294484

>  <ref_mols>  (1255) 
A0556a,A3435a

>  <distance_score>  (1255) 
1.760128

>  <inspiration_score>  (1255) 
None

$$$$
P498900
     RDKit          3D

 25 28  0  0  0  0  0  0  0  0999 V2000
    4.9639   13.4251   26.3151 C   0  0  0  0  0  0  0  0  0  0  0  0
    5.0244   12.1272   27.0195 C   0  0  0  0  0  0  0  0  0  0  0  0
    4.2309   11.8259   28.0327 N   0  0  0  0  0  0  0  0  0  0  0  0
    4.4521   10.5234   28.3261 C   0  0  0  0  0  0  0  0  0  0  0  0
    5.3748   10.0200   27.4595 C   0  0  0  0  0  0  0  0  0  0  0  0
    5.8215   11.0526   26.6665 N   0  0  0  0  0  0  0  0  0  0  0  0
    6.8966   10.9667   25.7292 C   0  0  0  0  0  0  0  0  0  0  0  0
    7.6194   12.1020   25.4171 C   0  0  0  0  0  0  0  0  0  0  0  0
    8.7152   11.9998   24.5735 C   0  0  0  0  0  0  0  0  0  0  0  0
    9.5540   13.2092   24.4185 C   0  0  0  0  0  0  0  0  0  0  0  0
    9.6572   13.9271   25.3250 O   0  0  0  0  0  0  0  0  0  0  0  0
   10.0942   13.3255   23.0012 N   0  0  0  0  0  0  0  0  0  0  0  0
   10.7960   14.3873   22.3619 C   0  0  1  0  0  0  0  0  0  0  0  0
   12.2867   14.2640   22.4803 C   0  0  0  0  0  0  0  0  0  0  0  0
   12.6629   15.2081   21.3765 C   0  0  0  0  0  0  0  0  0  0  0  0
   11.8674   14.7581   20.2775 O   0  0  0  0  0  0  0  0  0  0  0  0
   10.5639   14.5489   20.8591 C   0  0  2  0  0  0  0  0  0  0  0  0
    9.6669   15.6746   20.5422 C   0  0  0  0  0  0  0  0  0  0  0  0
    9.8061   16.5760   19.4824 C   0  0  0  0  0  0  0  0  0  0  0  0
    8.8870   17.5558   19.7362 C   0  0  0  0  0  0  0  0  0  0  0  0
    8.2156   17.1532   20.8484 N   0  0  0  0  0  0  0  0  0  0  0  0
    8.5858   15.9358   21.2776 N   0  0  0  0  0  0  0  0  0  0  0  0
    9.0439   10.7811   24.0142 C   0  0  0  0  0  0  0  0  0  0  0  0
    8.2832    9.6969   24.3882 C   0  0  0  0  0  0  0  0  0  0  0  0
    7.2382    9.7516   25.2452 N   0  0  0  0  0  0  0  0  0  0  0  0
  1  2  1  0
  2  3  2  0
  3  4  1  0
  4  5  2  0
  5  6  1  0
  6  7  1  0
  7  8  2  0
  8  9  1  0
  9 10  1  0
 10 11  2  0
 10 12  1  0
 13 12  1  6
 13 14  1  0
 14 15  1  0
 15 16  1  0
 16 17  1  0
 17 18  1  1
 18 19  1  0
 19 20  2  0
 20 21  1  0
 21 22  1  0
  9 23  2  0
 23 24  1  0
 24 25  2  0
  6  2  1  0
 25  7  1  0
 17 13  1  0
 22 18  2  0
M  END
>  <energy_score>  (1256) 
-33.218291

>  <inchikey>  (1256) 
None

>  <smiles>  (1256) 
None

>  <ref_pdb>  (1256) 
A3435a

>  <alias>  (1256) 
None

>  <HIPPO Pose ID>  (1256) 
498900

>  <name>  (1256) 
P498900

>  <HIPPO Compound ID>  (1256) 
294498

>  <ref_mols>  (1256) 
A0556a,A3435a

>  <distance_score>  (1256) 
1.99252

>  <inspiration_score>  (1256) 
None

$$$$
P498901
     RDKit          3D

 25 28  0  0  0  0  0  0  0  0999 V2000
    8.0199   15.4030   21.4477 C   0  0  0  0  0  0  0  0  0  0  0  0
    9.0758   16.2649   20.7816 C   0  0  0  0  0  0  0  0  0  0  0  0
   10.1873   15.4783   20.3014 N   0  0  0  0  0  0  0  0  0  0  0  0
   10.3514   15.3497   18.9613 N   0  0  0  0  0  0  0  0  0  0  0  0
   11.5433   14.7657   18.8586 C   0  0  0  0  0  0  0  0  0  0  0  0
   12.1114   14.4747   20.0872 C   0  0  0  0  0  0  0  0  0  0  0  0
   11.2304   14.9567   21.0148 C   0  0  0  0  0  0  0  0  0  0  0  0
   11.6486   15.1123   22.4805 C   0  0  2  0  0  0  0  0  0  0  0  0
   12.3553   13.9304   23.0978 C   0  0  0  0  0  0  0  0  0  0  0  0
   11.1183   14.4684   23.7094 C   0  0  2  0  0  0  0  0  0  0  0  0
   10.0394   13.6026   23.8935 N   0  0  0  0  0  0  0  0  0  0  0  0
    8.9962   13.6023   24.8655 C   0  0  0  0  0  0  0  0  0  0  0  0
    8.7302   14.3905   25.7263 O   0  0  0  0  0  0  0  0  0  0  0  0
    8.1462   12.3586   24.8824 C   0  0  0  0  0  0  0  0  0  0  0  0
    8.5760   11.1423   24.3522 C   0  0  0  0  0  0  0  0  0  0  0  0
    7.9096   10.0022   24.7459 C   0  0  0  0  0  0  0  0  0  0  0  0
    6.8781    9.9964   25.6169 N   0  0  0  0  0  0  0  0  0  0  0  0
    6.4222   11.1840   26.0865 C   0  0  0  0  0  0  0  0  0  0  0  0
    5.3750   11.1561   27.0590 N   0  0  0  0  0  0  0  0  0  0  0  0
    5.0753   10.0631   27.8475 C   0  0  0  0  0  0  0  0  0  0  0  0
    4.0767   10.4428   28.7011 C   0  0  0  0  0  0  0  0  0  0  0  0
    3.6982   11.7210   28.4333 N   0  0  0  0  0  0  0  0  0  0  0  0
    4.4620   12.1350   27.4353 C   0  0  0  0  0  0  0  0  0  0  0  0
    4.2573   13.4342   26.7472 C   0  0  0  0  0  0  0  0  0  0  0  0
    7.0246   12.3777   25.7282 C   0  0  0  0  0  0  0  0  0  0  0  0
  1  2  1  0
  2  3  1  0
  3  4  1  0
  4  5  2  0
  5  6  1  0
  6  7  2  0
  8  7  1  6
  8  9  1  0
  9 10  1  0
 10 11  1  6
 11 12  1  0
 12 13  2  0
 12 14  1  0
 14 15  2  0
 15 16  1  0
 16 17  2  0
 17 18  1  0
 18 19  1  0
 19 20  1  0
 20 21  2  0
 21 22  1  0
 22 23  2  0
 23 24  1  0
 18 25  2  0
  7  3  1  0
 10  8  1  0
 25 14  1  0
 23 19  1  0
M  END
>  <energy_score>  (1257) 
-24.313901

>  <inchikey>  (1257) 
None

>  <smiles>  (1257) 
None

>  <ref_pdb>  (1257) 
A3435a

>  <alias>  (1257) 
None

>  <HIPPO Pose ID>  (1257) 
498901

>  <name>  (1257) 
P498901

>  <HIPPO Compound ID>  (1257) 
294518

>  <ref_mols>  (1257) 
A0556a,A3435a

>  <distance_score>  (1257) 
1.924141

>  <inspiration_score>  (1257) 
None

$$$$
P498902
     RDKit          3D

 25 28  0  0  0  0  0  0  0  0999 V2000
    6.1069   13.6830   26.4455 C   0  0  0  0  0  0  0  0  0  0  0  0
    6.0219   12.2656   26.8282 C   0  0  0  0  0  0  0  0  0  0  0  0
    5.3374   11.8278   27.8740 N   0  0  0  0  0  0  0  0  0  0  0  0
    5.2033   10.4886   27.7010 C   0  0  0  0  0  0  0  0  0  0  0  0
    5.8424   10.1220   26.5534 C   0  0  0  0  0  0  0  0  0  0  0  0
    6.5568   11.2186   26.1086 N   0  0  0  0  0  0  0  0  0  0  0  0
    7.6011   11.1331   25.1323 C   0  0  0  0  0  0  0  0  0  0  0  0
    8.4053   12.2113   24.7516 C   0  0  0  0  0  0  0  0  0  0  0  0
    9.4155   11.9973   23.8081 C   0  0  0  0  0  0  0  0  0  0  0  0
   10.4397   13.0516   23.4721 C   0  0  0  0  0  0  0  0  0  0  0  0
   10.8962   13.6852   24.3433 O   0  0  0  0  0  0  0  0  0  0  0  0
   10.7688   13.0431   21.9542 N   0  0  0  0  0  0  0  0  0  0  0  0
   11.8173   13.7602   21.1926 C   0  0  2  0  0  0  0  0  0  0  0  0
   12.4956   14.8293   21.9626 C   0  0  0  0  0  0  0  0  0  0  0  0
   11.4658   15.8670   22.2265 C   0  0  0  0  0  0  0  0  0  0  0  0
   10.4901   16.1653   21.1527 C   0  0  0  0  0  0  0  0  0  0  0  0
    9.5733   17.1621   20.9934 C   0  0  0  0  0  0  0  0  0  0  0  0
    9.1590   17.1208   19.7121 N   0  0  0  0  0  0  0  0  0  0  0  0
    8.3412   18.1845   19.1911 C   0  0  0  0  0  0  0  0  0  0  0  0
    9.6859   16.0720   19.0179 N   0  0  0  0  0  0  0  0  0  0  0  0
   10.4690   15.4910   19.9438 C   0  0  0  0  0  0  0  0  0  0  0  0
   11.3768   14.3499   19.7712 C   0  0  0  0  0  0  0  0  0  0  0  0
    9.5761   10.7219   23.2913 C   0  0  0  0  0  0  0  0  0  0  0  0
    8.7867    9.7016   23.7628 C   0  0  0  0  0  0  0  0  0  0  0  0
    7.8162    9.8819   24.6632 N   0  0  0  0  0  0  0  0  0  0  0  0
  1  2  1  0
  2  3  2  0
  3  4  1  0
  4  5  2  0
  5  6  1  0
  6  7  1  0
  7  8  2  0
  8  9  1  0
  9 10  1  0
 10 11  2  0
 10 12  1  0
 13 12  1  1
 13 14  1  0
 14 15  1  0
 15 16  1  0
 16 17  2  0
 17 18  1  0
 18 19  1  0
 18 20  1  0
 20 21  2  0
 21 22  1  0
  9 23  2  0
 23 24  1  0
 24 25  2  0
  6  2  1  0
 25  7  1  0
 22 13  1  0
 21 16  1  0
M  END
>  <energy_score>  (1258) 
-6.826032

>  <inchikey>  (1258) 
None

>  <smiles>  (1258) 
None

>  <ref_pdb>  (1258) 
A3435a

>  <alias>  (1258) 
None

>  <HIPPO Pose ID>  (1258) 
498902

>  <name>  (1258) 
P498902

>  <HIPPO Compound ID>  (1258) 
294530

>  <ref_mols>  (1258) 
A0556a,A3435a

>  <distance_score>  (1258) 
1.888115

>  <inspiration_score>  (1258) 
None

$$$$
P498903
     RDKit          3D

 27 29  0  0  0  0  0  0  0  0999 V2000
   14.3853   12.6252   25.4987 C   0  0  0  0  0  0  0  0  0  0  0  0
   13.5909   13.5933   24.7756 O   0  0  0  0  0  0  0  0  0  0  0  0
   12.4506   13.1175   24.2466 C   0  0  0  0  0  0  0  0  0  0  0  0
   12.1615   11.9321   24.3315 O   0  0  0  0  0  0  0  0  0  0  0  0
   11.5432   14.1188   23.5325 C   0  0  1  0  0  0  0  0  0  0  0  0
   12.0090   14.2210   22.0878 C   0  0  0  0  0  0  0  0  0  0  0  0
   11.0644   14.8835   21.1635 C   0  0  0  0  0  0  0  0  0  0  0  0
   11.0565   14.8579   19.7534 C   0  0  0  0  0  0  0  0  0  0  0  0
    9.9954   15.6531   19.4042 C   0  0  0  0  0  0  0  0  0  0  0  0
    9.5449   16.2073   20.5580 N   0  0  0  0  0  0  0  0  0  0  0  0
    8.5980   17.2805   20.7085 C   0  0  0  0  0  0  0  0  0  0  0  0
   10.0616   15.6180   21.6374 N   0  0  0  0  0  0  0  0  0  0  0  0
   10.2968   13.3957   23.7457 N   0  0  0  0  0  0  0  0  0  0  0  0
    9.3150   13.5100   24.7645 C   0  0  0  0  0  0  0  0  0  0  0  0
    9.2139   14.2861   25.6684 O   0  0  0  0  0  0  0  0  0  0  0  0
    8.2922   12.3924   24.7463 C   0  0  0  0  0  0  0  0  0  0  0  0
    8.6655   11.1307   24.2617 C   0  0  0  0  0  0  0  0  0  0  0  0
    7.9549   10.0305   24.6784 C   0  0  0  0  0  0  0  0  0  0  0  0
    6.9209   10.0987   25.5338 N   0  0  0  0  0  0  0  0  0  0  0  0
    6.5194   11.3216   25.9696 C   0  0  0  0  0  0  0  0  0  0  0  0
    5.4759   11.3253   26.9466 N   0  0  0  0  0  0  0  0  0  0  0  0
    5.1597   10.2369   27.7385 C   0  0  0  0  0  0  0  0  0  0  0  0
    4.1868   10.6419   28.6097 C   0  0  0  0  0  0  0  0  0  0  0  0
    3.8275   11.9256   28.3408 N   0  0  0  0  0  0  0  0  0  0  0  0
    4.5760   12.3139   27.3207 C   0  0  0  0  0  0  0  0  0  0  0  0
    4.3661   13.5925   26.6034 C   0  0  0  0  0  0  0  0  0  0  0  0
    7.1701   12.4910   25.5862 C   0  0  0  0  0  0  0  0  0  0  0  0
  1  2  1  0
  2  3  1  0
  3  4  2  0
  3  5  1  0
  5  6  1  6
  6  7  1  0
  7  8  1  0
  8  9  2  0
  9 10  1  0
 10 11  1  0
 10 12  1  0
  5 13  1  0
 13 14  1  0
 14 15  2  0
 14 16  1  0
 16 17  2  0
 17 18  1  0
 18 19  2  0
 19 20  1  0
 20 21  1  0
 21 22  1  0
 22 23  2  0
 23 24  1  0
 24 25  2  0
 25 26  1  0
 20 27  2  0
 12  7  2  0
 27 16  1  0
 25 21  1  0
M  END
>  <energy_score>  (1259) 
-10.164658

>  <inchikey>  (1259) 
None

>  <smiles>  (1259) 
None

>  <ref_pdb>  (1259) 
A3435a

>  <alias>  (1259) 
None

>  <HIPPO Pose ID>  (1259) 
498903

>  <name>  (1259) 
P498903

>  <HIPPO Compound ID>  (1259) 
294566

>  <ref_mols>  (1259) 
A0556a,A3435a

>  <distance_score>  (1259) 
1.75922

>  <inspiration_score>  (1259) 
None

$$$$
P498904
     RDKit          3D

 27 29  0  0  0  0  0  0  0  0999 V2000
   11.7546   15.1028   26.7872 C   0  0  0  0  0  0  0  0  0  0  0  0
   11.4549   14.8285   25.4167 O   0  0  0  0  0  0  0  0  0  0  0  0
   12.1609   13.8837   24.7265 C   0  0  0  0  0  0  0  0  0  0  0  0
   13.1261   13.2627   25.1532 O   0  0  0  0  0  0  0  0  0  0  0  0
   11.5159   13.6173   23.3678 C   0  0  2  0  0  0  0  0  0  0  0  0
   11.2112   14.9237   22.6773 C   0  0  0  0  0  0  0  0  0  0  0  0
   11.0063   14.9067   21.2200 C   0  0  0  0  0  0  0  0  0  0  0  0
   11.9253   14.6900   20.2282 C   0  0  0  0  0  0  0  0  0  0  0  0
   11.2893   15.1096   19.0629 C   0  0  0  0  0  0  0  0  0  0  0  0
   10.0305   15.4948   19.2615 N   0  0  0  0  0  0  0  0  0  0  0  0
    9.8532   15.2892   20.5855 N   0  0  0  0  0  0  0  0  0  0  0  0
    8.5319   15.4557   21.1388 C   0  0  0  0  0  0  0  0  0  0  0  0
   10.3788   12.7685   23.6754 N   0  0  0  0  0  0  0  0  0  0  0  0
    9.0082   13.1131   24.3180 C   0  0  0  0  0  0  0  0  0  0  0  0
    8.5554   14.1444   24.6267 O   0  0  0  0  0  0  0  0  0  0  0  0
    8.2124   11.8817   24.6692 C   0  0  0  0  0  0  0  0  0  0  0  0
    8.5386   10.6586   24.1029 C   0  0  0  0  0  0  0  0  0  0  0  0
    7.9354    9.5531   24.6247 C   0  0  0  0  0  0  0  0  0  0  0  0
    6.9993    9.5851   25.5943 N   0  0  0  0  0  0  0  0  0  0  0  0
    6.5855   10.7706   26.0906 C   0  0  0  0  0  0  0  0  0  0  0  0
    5.5677   10.7128   27.1212 N   0  0  0  0  0  0  0  0  0  0  0  0
    5.3293    9.6521   27.9725 C   0  0  0  0  0  0  0  0  0  0  0  0
    4.2603    9.9445   28.7673 C   0  0  0  0  0  0  0  0  0  0  0  0
    3.8020   11.1708   28.4496 N   0  0  0  0  0  0  0  0  0  0  0  0
    4.5617   11.6054   27.4564 C   0  0  0  0  0  0  0  0  0  0  0  0
    4.2245   12.8104   26.6949 C   0  0  0  0  0  0  0  0  0  0  0  0
    7.1814   11.9518   25.6463 C   0  0  0  0  0  0  0  0  0  0  0  0
  1  2  1  0
  2  3  1  0
  3  4  2  0
  3  5  1  0
  5  6  1  1
  6  7  1  0
  7  8  2  0
  8  9  1  0
  9 10  2  0
 10 11  1  0
 11 12  1  0
  5 13  1  0
 13 14  1  0
 14 15  2  0
 14 16  1  0
 16 17  2  0
 17 18  1  0
 18 19  2  0
 19 20  1  0
 20 21  1  0
 21 22  1  0
 22 23  2  0
 23 24  1  0
 24 25  2  0
 25 26  1  0
 20 27  2  0
 11  7  1  0
 27 16  1  0
 25 21  1  0
M  END
>  <energy_score>  (1260) 
-6.155335

>  <inchikey>  (1260) 
None

>  <smiles>  (1260) 
None

>  <ref_pdb>  (1260) 
A3435a

>  <alias>  (1260) 
None

>  <HIPPO Pose ID>  (1260) 
498904

>  <name>  (1260) 
P498904

>  <HIPPO Compound ID>  (1260) 
294570

>  <ref_mols>  (1260) 
A0556a,A3435a

>  <distance_score>  (1260) 
1.65133

>  <inspiration_score>  (1260) 
None

$$$$
P498905
     RDKit          3D

 27 30  0  0  0  0  0  0  0  0999 V2000
    6.6652   14.9693   22.3166 C   0  0  0  0  0  0  0  0  0  0  0  0
    8.1582   14.7217   22.1387 C   0  0  0  0  0  0  0  0  0  0  0  0
    8.8705   15.5874   21.2277 N   0  0  0  0  0  0  0  0  0  0  0  0
    8.3529   16.7932   20.9840 N   0  0  0  0  0  0  0  0  0  0  0  0
    9.0037   17.2409   19.9206 C   0  0  0  0  0  0  0  0  0  0  0  0
    9.9671   16.3276   19.5137 C   0  0  0  0  0  0  0  0  0  0  0  0
   10.0120   15.3732   20.5128 C   0  0  0  0  0  0  0  0  0  0  0  0
   11.0677   14.3473   20.6532 C   0  0  1  0  0  0  0  0  0  0  0  0
   12.3027   15.0441   20.4359 O   0  0  0  0  0  0  0  0  0  0  0  0
   12.6880   15.5468   21.7091 C   0  0  0  0  0  0  0  0  0  0  0  0
   12.0920   14.6738   22.7805 C   0  0  0  0  0  0  0  0  0  0  0  0
   11.3988   13.6281   21.9620 C   0  0  1  0  0  0  0  0  0  0  0  0
   10.4250   12.8500   22.6693 N   0  0  0  0  0  0  0  0  0  0  0  0
    9.9255   12.9536   24.1180 C   0  0  0  0  0  0  0  0  0  0  0  0
   10.1683   13.7355   24.9465 O   0  0  0  0  0  0  0  0  0  0  0  0
    8.9022   11.9216   24.4192 C   0  0  0  0  0  0  0  0  0  0  0  0
    9.0552   10.6053   24.0207 C   0  0  0  0  0  0  0  0  0  0  0  0
    8.1529    9.7037   24.5344 C   0  0  0  0  0  0  0  0  0  0  0  0
    7.1313   10.0206   25.3733 N   0  0  0  0  0  0  0  0  0  0  0  0
    6.9546   11.3215   25.6948 C   0  0  0  0  0  0  0  0  0  0  0  0
    5.8428   11.7257   26.5049 N   0  0  0  0  0  0  0  0  0  0  0  0
    5.2862   12.9878   26.4778 C   0  0  0  0  0  0  0  0  0  0  0  0
    4.1992   12.9508   27.3052 C   0  0  0  0  0  0  0  0  0  0  0  0
    4.0758   11.7342   27.8895 N   0  0  0  0  0  0  0  0  0  0  0  0
    5.0760   11.0129   27.4314 C   0  0  0  0  0  0  0  0  0  0  0  0
    5.3213    9.6546   27.9426 C   0  0  0  0  0  0  0  0  0  0  0  0
    7.8280   12.2969   25.2306 C   0  0  0  0  0  0  0  0  0  0  0  0
  1  2  1  0
  2  3  1  0
  3  4  1  0
  4  5  2  0
  5  6  1  0
  6  7  2  0
  8  7  1  1
  8  9  1  0
  9 10  1  0
 10 11  1  0
 11 12  1  0
 12 13  1  1
 13 14  1  0
 14 15  2  0
 14 16  1  0
 16 17  2  0
 17 18  1  0
 18 19  2  0
 19 20  1  0
 20 21  1  0
 21 22  1  0
 22 23  2  0
 23 24  1  0
 24 25  2  0
 25 26  1  0
 20 27  2  0
  7  3  1  0
 12  8  1  0
 27 16  1  0
 25 21  1  0
M  END
>  <energy_score>  (1261) 
-34.007106

>  <inchikey>  (1261) 
None

>  <smiles>  (1261) 
None

>  <ref_pdb>  (1261) 
A3435a

>  <alias>  (1261) 
None

>  <HIPPO Pose ID>  (1261) 
498905

>  <name>  (1261) 
P498905

>  <HIPPO Compound ID>  (1261) 
294571

>  <ref_mols>  (1261) 
A0556a,A3435a

>  <distance_score>  (1261) 
1.736406

>  <inspiration_score>  (1261) 
None

$$$$
P498906
     RDKit          3D

 27 31  0  0  0  0  0  0  0  0999 V2000
    4.1826   13.3756   26.7477 C   0  0  0  0  0  0  0  0  0  0  0  0
    4.4551   12.1235   27.4855 C   0  0  0  0  0  0  0  0  0  0  0  0
    3.6737   11.6337   28.4313 N   0  0  0  0  0  0  0  0  0  0  0  0
    4.1287   10.3807   28.6973 C   0  0  0  0  0  0  0  0  0  0  0  0
    5.2021   10.1039   27.9025 C   0  0  0  0  0  0  0  0  0  0  0  0
    5.4710   11.2481   27.1822 N   0  0  0  0  0  0  0  0  0  0  0  0
    6.5338   11.3948   26.2637 C   0  0  0  0  0  0  0  0  0  0  0  0
    7.0534   12.6262   25.9195 C   0  0  0  0  0  0  0  0  0  0  0  0
    8.0694   12.6569   24.9694 C   0  0  0  0  0  0  0  0  0  0  0  0
    8.8120   13.9376   24.8160 C   0  0  0  0  0  0  0  0  0  0  0  0
    8.2441   14.9532   24.8740 O   0  0  0  0  0  0  0  0  0  0  0  0
   10.3003   13.6381   24.5407 N   0  0  0  0  0  0  0  0  0  0  0  0
   11.3515   14.4952   24.1953 C   0  0  1  0  0  0  0  0  0  0  0  0
   12.4195   13.8030   23.3932 C   0  0  0  0  0  0  0  0  0  0  0  0
   11.7388   14.9777   22.8071 C   0  0  1  0  0  0  0  0  0  0  0  0
   10.7298   14.9456   21.6443 C   0  0  0  0  0  0  0  0  0  0  0  0
   11.0675   15.0029   20.2824 C   0  0  0  0  0  0  0  0  0  0  0  0
    9.9368   15.5179   19.6904 C   0  0  0  0  0  0  0  0  0  0  0  0
    9.0307   15.6965   20.6940 N   0  0  0  0  0  0  0  0  0  0  0  0
    9.4362   15.1707   21.8493 N   0  0  0  0  0  0  0  0  0  0  0  0
    8.4548   11.4802   24.2937 C   0  0  0  0  0  0  0  0  0  0  0  0
    9.3151   11.3673   23.1824 C   0  0  0  0  0  0  0  0  0  0  0  0
    9.7188   10.1292   22.7118 C   0  0  0  0  0  0  0  0  0  0  0  0
    9.2682    8.9834   23.2942 C   0  0  0  0  0  0  0  0  0  0  0  0
    8.3526    9.1141   24.3110 C   0  0  0  0  0  0  0  0  0  0  0  0
    7.9316   10.3106   24.8117 C   0  0  0  0  0  0  0  0  0  0  0  0
    7.0406   10.2499   25.7907 N   0  0  0  0  0  0  0  0  0  0  0  0
  1  2  1  0
  2  3  2  0
  3  4  1  0
  4  5  2  0
  5  6  1  0
  6  7  1  0
  7  8  2  0
  8  9  1  0
  9 10  1  0
 10 11  2  0
 10 12  1  0
 13 12  1  6
 13 14  1  0
 14 15  1  0
 15 16  1  6
 16 17  1  0
 17 18  2  0
 18 19  1  0
 19 20  1  0
  9 21  2  0
 21 22  1  0
 22 23  2  0
 23 24  1  0
 24 25  2  0
 25 26  1  0
 26 27  2  0
  6  2  1  0
 27  7  1  0
 15 13  1  0
 20 16  2  0
 26 21  1  0
M  END
>  <energy_score>  (1262) 
-2.511528

>  <inchikey>  (1262) 
None

>  <smiles>  (1262) 
None

>  <ref_pdb>  (1262) 
A3435a

>  <alias>  (1262) 
None

>  <HIPPO Pose ID>  (1262) 
498906

>  <name>  (1262) 
P498906

>  <HIPPO Compound ID>  (1262) 
294576

>  <ref_mols>  (1262) 
A0556a,A3435a

>  <distance_score>  (1262) 
1.948778

>  <inspiration_score>  (1262) 
None

$$$$
P498907
     RDKit          3D

 28 32  0  0  0  0  0  0  0  0999 V2000
    4.2500   13.3948   26.7256 C   0  0  0  0  0  0  0  0  0  0  0  0
    4.5032   12.1563   27.4924 C   0  0  0  0  0  0  0  0  0  0  0  0
    3.7053   11.6915   28.4364 N   0  0  0  0  0  0  0  0  0  0  0  0
    4.1332   10.4331   28.7197 C   0  0  0  0  0  0  0  0  0  0  0  0
    5.2139   10.1308   27.9443 C   0  0  0  0  0  0  0  0  0  0  0  0
    5.5151   11.2668   27.2221 N   0  0  0  0  0  0  0  0  0  0  0  0
    6.5993   11.3885   26.3245 C   0  0  0  0  0  0  0  0  0  0  0  0
    7.1412   12.6050   25.9565 C   0  0  0  0  0  0  0  0  0  0  0  0
    8.1486   12.5885   24.9999 C   0  0  0  0  0  0  0  0  0  0  0  0
    8.7538   13.8585   24.5433 C   0  0  0  0  0  0  0  0  0  0  0  0
    8.0816   14.8061   24.4552 O   0  0  0  0  0  0  0  0  0  0  0  0
   10.2334   13.6412   24.1566 N   0  0  0  0  0  0  0  0  0  0  0  0
   11.1387   14.4917   23.5117 C   0  0  1  0  0  0  0  0  0  0  0  0
   12.5412   14.2249   23.1181 C   0  0  0  0  0  0  0  0  0  0  0  0
   11.4652   13.9121   22.1488 C   0  0  2  0  0  0  0  0  0  0  0  0
   11.0988   14.7188   20.9028 C   0  0  0  0  0  0  0  0  0  0  0  0
   11.9146   14.7487   19.8104 C   0  0  0  0  0  0  0  0  0  0  0  0
   11.2039   15.4979   18.8777 C   0  0  0  0  0  0  0  0  0  0  0  0
    9.9852   15.8393   19.2831 N   0  0  0  0  0  0  0  0  0  0  0  0
    9.9313   15.3302   20.5318 N   0  0  0  0  0  0  0  0  0  0  0  0
    8.6624   15.3605   21.2059 C   0  0  0  0  0  0  0  0  0  0  0  0
    8.4961   11.3850   24.3390 C   0  0  0  0  0  0  0  0  0  0  0  0
    9.2928   11.2191   23.1845 C   0  0  0  0  0  0  0  0  0  0  0  0
    9.6891    9.9789   22.7215 C   0  0  0  0  0  0  0  0  0  0  0  0
    9.2333    8.8615   23.3374 C   0  0  0  0  0  0  0  0  0  0  0  0
    8.3305    9.0375   24.3621 C   0  0  0  0  0  0  0  0  0  0  0  0
    7.9589   10.2435   24.8778 C   0  0  0  0  0  0  0  0  0  0  0  0
    7.0813   10.2252   25.8692 N   0  0  0  0  0  0  0  0  0  0  0  0
  1  2  1  0
  2  3  2  0
  3  4  1  0
  4  5  2  0
  5  6  1  0
  6  7  1  0
  7  8  2  0
  8  9  1  0
  9 10  1  0
 10 11  2  0
 10 12  1  0
 13 12  1  1
 13 14  1  0
 14 15  1  0
 15 16  1  6
 16 17  2  0
 17 18  1  0
 18 19  2  0
 19 20  1  0
 20 21  1  0
  9 22  2  0
 22 23  1  0
 23 24  2  0
 24 25  1  0
 25 26  2  0
 26 27  1  0
 27 28  2  0
  6  2  1  0
 28  7  1  0
 15 13  1  0
 20 16  1  0
 27 22  1  0
M  END
>  <energy_score>  (1263) 
-1.775429

>  <inchikey>  (1263) 
None

>  <smiles>  (1263) 
None

>  <ref_pdb>  (1263) 
A3435a

>  <alias>  (1263) 
None

>  <HIPPO Pose ID>  (1263) 
498907

>  <name>  (1263) 
P498907

>  <HIPPO Compound ID>  (1263) 
294601

>  <ref_mols>  (1263) 
A0556a,A3435a

>  <distance_score>  (1263) 
1.926858

>  <inspiration_score>  (1263) 
None

$$$$
P498908
     RDKit          3D

 21 22  0  0  0  0  0  0  0  0999 V2000
   12.1055   16.2744   26.9527 C   0  0  0  0  0  0  0  0  0  0  0  0
   11.6259   15.3259   25.9963 O   0  0  0  0  0  0  0  0  0  0  0  0
   10.4090   15.6512   25.4546 C   0  0  0  0  0  0  0  0  0  0  0  0
    9.7692   16.6431   25.7609 O   0  0  0  0  0  0  0  0  0  0  0  0
   10.0105   14.5551   24.4157 C   0  0  2  0  0  0  0  0  0  0  0  0
   10.9883   14.5842   23.2141 C   0  0  0  0  0  0  0  0  0  0  0  0
   10.0167   14.8897   22.1290 C   0  0  2  0  0  0  0  0  0  0  0  0
   10.4317   15.7632   21.0609 N   0  0  0  0  0  0  0  0  0  0  0  0
   11.1567   15.3453   19.9762 C   0  0  0  0  0  0  0  0  0  0  0  0
   11.8996   14.3831   19.8962 O   0  0  0  0  0  0  0  0  0  0  0  0
   10.8079   16.2215   18.8060 C   0  0  0  0  0  0  0  0  0  0  0  0
   10.1936   17.3112   19.4884 N   0  0  0  0  0  0  0  0  0  0  0  0
    9.8234   16.9405   20.7495 C   0  0  0  0  0  0  0  0  0  0  0  0
    9.0190   17.5610   21.4155 O   0  0  0  0  0  0  0  0  0  0  0  0
    8.8994   15.3817   23.0242 C   0  0  0  0  0  0  0  0  0  0  0  0
    8.5109   14.3433   24.0015 N   0  0  0  0  0  0  0  0  0  0  0  0
    7.6040   14.4123   25.1895 C   0  0  0  0  0  0  0  0  0  0  0  0
    7.0501   15.3289   25.6707 O   0  0  0  0  0  0  0  0  0  0  0  0
    7.3063   13.0672   25.7651 C   0  0  0  0  0  0  0  0  0  0  0  0
    7.5722   11.7966   25.4482 C   0  0  0  0  0  0  0  0  0  0  0  0
    8.6710   10.9913   23.9785 I   0  0  0  0  0  0  0  0  0  0  0  0
  1  2  1  0
  2  3  1  0
  3  4  2  0
  5  3  1  6
  5  6  1  0
  6  7  1  0
  7  8  1  6
  8  9  1  0
  9 10  2  0
  9 11  1  0
 11 12  1  0
 12 13  1  0
 13 14  2  0
  7 15  1  0
 15 16  1  0
 16 17  1  0
 17 18  2  0
 17 19  1  0
 19 20  2  0
 20 21  1  0
 16  5  1  0
 13  8  1  0
M  END
>  <energy_score>  (1264) 
-0.065965

>  <inchikey>  (1264) 
None

>  <smiles>  (1264) 
None

>  <ref_pdb>  (1264) 
A3665a

>  <alias>  (1264) 
None

>  <HIPPO Pose ID>  (1264) 
498908

>  <name>  (1264) 
P498908

>  <HIPPO Compound ID>  (1264) 
298358

>  <ref_mols>  (1264) 
A3665a,A3571b

>  <distance_score>  (1264) 
1.823189

>  <inspiration_score>  (1264) 
None

$$$$
P498909
     RDKit          3D

 21 22  0  0  0  0  0  0  0  0999 V2000
   14.2234   13.2920   26.3400 C   0  0  0  0  0  0  0  0  0  0  0  0
   13.1801   13.4214   25.3692 O   0  0  0  0  0  0  0  0  0  0  0  0
   12.3637   14.4991   25.5607 C   0  0  0  0  0  0  0  0  0  0  0  0
   12.4224   15.2395   26.5351 O   0  0  0  0  0  0  0  0  0  0  0  0
   11.4274   14.7458   24.3511 C   0  0  1  0  0  0  0  0  0  0  0  0
   12.1875   15.7529   23.5059 C   0  0  0  0  0  0  0  0  0  0  0  0
   12.0566   15.1141   22.1978 C   0  0  2  0  0  0  0  0  0  0  0  0
   11.0252   15.6160   21.3545 N   0  0  0  0  0  0  0  0  0  0  0  0
   11.0924   15.5292   19.9890 C   0  0  0  0  0  0  0  0  0  0  0  0
   11.8853   14.8859   19.3167 O   0  0  0  0  0  0  0  0  0  0  0  0
   10.0439   16.4430   19.4321 C   0  0  0  0  0  0  0  0  0  0  0  0
    9.3656   16.8601   20.6293 N   0  0  0  0  0  0  0  0  0  0  0  0
    9.9515   16.3518   21.7451 C   0  0  0  0  0  0  0  0  0  0  0  0
    9.5743   16.5843   22.8816 O   0  0  0  0  0  0  0  0  0  0  0  0
   11.8656   13.7179   22.7199 C   0  0  0  0  0  0  0  0  0  0  0  0
   10.8119   13.4283   23.7169 N   0  0  0  0  0  0  0  0  0  0  0  0
    9.2933   13.5232   23.6116 C   0  0  0  0  0  0  0  0  0  0  0  0
    8.6138   13.9255   22.7377 O   0  0  0  0  0  0  0  0  0  0  0  0
    8.7279   13.0651   24.9610 C   0  0  2  0  0  0  0  0  0  0  0  0
    7.4505   12.2691   24.8048 C   0  0  0  0  0  0  0  0  0  0  0  0
    8.4820   14.1901   25.7991 O   0  0  0  0  0  0  0  0  0  0  0  0
  1  2  1  0
  2  3  1  0
  3  4  2  0
  5  3  1  1
  5  6  1  0
  6  7  1  0
  7  8  1  1
  8  9  1  0
  9 10  2  0
  9 11  1  0
 11 12  1  0
 12 13  1  0
 13 14  2  0
  7 15  1  0
 15 16  1  0
 16 17  1  0
 17 18  2  0
 17 19  1  0
 19 20  1  6
 19 21  1  0
 16  5  1  0
 13  8  1  0
M  END
>  <energy_score>  (1265) 
-8.970129

>  <inchikey>  (1265) 
None

>  <smiles>  (1265) 
None

>  <ref_pdb>  (1265) 
A3665a

>  <alias>  (1265) 
None

>  <HIPPO Pose ID>  (1265) 
498909

>  <name>  (1265) 
P498909

>  <HIPPO Compound ID>  (1265) 
298399

>  <ref_mols>  (1265) 
A3665a,A3571b

>  <distance_score>  (1265) 
1.517686

>  <inspiration_score>  (1265) 
None

$$$$
P498910
     RDKit          3D

 21 22  0  0  0  0  0  0  0  0999 V2000
   12.6941   15.3984   27.0408 C   0  0  0  0  0  0  0  0  0  0  0  0
   11.7792   15.8417   26.0346 O   0  0  0  0  0  0  0  0  0  0  0  0
   11.5579   14.9704   25.0005 C   0  0  0  0  0  0  0  0  0  0  0  0
   12.0787   13.8699   24.8995 O   0  0  0  0  0  0  0  0  0  0  0  0
   10.6071   15.6470   23.9817 C   0  0  1  0  0  0  0  0  0  0  0  0
   11.5693   16.3106   23.0134 C   0  0  0  0  0  0  0  0  0  0  0  0
   10.6245   16.6311   21.9220 C   0  0  1  0  0  0  0  0  0  0  0  0
   10.9533   16.1646   20.6079 N   0  0  0  0  0  0  0  0  0  0  0  0
   11.4788   14.9731   20.2468 C   0  0  0  0  0  0  0  0  0  0  0  0
   11.9303   14.1223   20.9901 O   0  0  0  0  0  0  0  0  0  0  0  0
   11.4342   14.8660   18.7543 C   0  0  0  0  0  0  0  0  0  0  0  0
   10.7243   16.0336   18.4043 N   0  0  0  0  0  0  0  0  0  0  0  0
   10.4305   16.7738   19.5124 C   0  0  0  0  0  0  0  0  0  0  0  0
    9.7849   17.8029   19.5314 O   0  0  0  0  0  0  0  0  0  0  0  0
    9.3773   15.9992   22.4979 C   0  0  0  0  0  0  0  0  0  0  0  0
    9.6195   14.7206   23.2398 N   0  0  0  0  0  0  0  0  0  0  0  0
    8.7452   13.9673   24.2078 C   0  0  0  0  0  0  0  0  0  0  0  0
    7.7025   14.2486   24.6665 O   0  0  0  0  0  0  0  0  0  0  0  0
    9.4168   12.6340   24.4469 C   0  0  0  0  0  0  0  0  0  0  0  0
    8.5291   11.5155   23.9758 C   0  0  0  0  0  0  0  0  0  0  0  0
    7.4002   10.8015   25.3665 Br  0  0  0  0  0  0  0  0  0  0  0  0
  1  2  1  0
  2  3  1  0
  3  4  2  0
  5  3  1  1
  5  6  1  0
  6  7  1  0
  7  8  1  6
  8  9  1  0
  9 10  2  0
  9 11  1  0
 11 12  1  0
 12 13  1  0
 13 14  2  0
  7 15  1  0
 15 16  1  0
 16 17  1  0
 17 18  2  0
 17 19  1  0
 19 20  1  0
 20 21  1  0
 16  5  1  0
 13  8  1  0
M  END
>  <energy_score>  (1266) 
-3.352538

>  <inchikey>  (1266) 
None

>  <smiles>  (1266) 
None

>  <ref_pdb>  (1266) 
A3665a

>  <alias>  (1266) 
None

>  <HIPPO Pose ID>  (1266) 
498910

>  <name>  (1266) 
P498910

>  <HIPPO Compound ID>  (1266) 
298405

>  <ref_mols>  (1266) 
A3665a,A3571b

>  <distance_score>  (1266) 
1.565527

>  <inspiration_score>  (1266) 
None

$$$$
P498911
     RDKit          3D

 22 23  0  0  0  0  0  0  0  0999 V2000
    7.8549   16.9401   25.7005 C   0  0  0  0  0  0  0  0  0  0  0  0
    8.4978   15.8464   25.0436 O   0  0  0  0  0  0  0  0  0  0  0  0
    9.8157   15.7162   25.2918 C   0  0  0  0  0  0  0  0  0  0  0  0
   10.4198   16.3812   26.1335 O   0  0  0  0  0  0  0  0  0  0  0  0
   10.5544   14.6983   24.3753 C   0  0  2  0  0  0  0  0  0  0  0  0
   11.6663   15.4857   23.6669 C   0  0  0  0  0  0  0  0  0  0  0  0
   11.6718   14.8020   22.3630 C   0  0  2  0  0  0  0  0  0  0  0  0
   10.9476   15.4452   21.2959 N   0  0  0  0  0  0  0  0  0  0  0  0
   11.2355   15.2862   19.9641 C   0  0  0  0  0  0  0  0  0  0  0  0
   12.0300   14.5078   19.4573 O   0  0  0  0  0  0  0  0  0  0  0  0
   10.4212   16.2783   19.1735 C   0  0  0  0  0  0  0  0  0  0  0  0
    9.8302   17.0306   20.2359 N   0  0  0  0  0  0  0  0  0  0  0  0
   10.0316   16.4370   21.4464 C   0  0  0  0  0  0  0  0  0  0  0  0
    9.5027   16.7952   22.4830 O   0  0  0  0  0  0  0  0  0  0  0  0
   11.1394   13.4930   22.9018 C   0  0  0  0  0  0  0  0  0  0  0  0
    9.8458   13.4662   23.6374 N   0  0  0  0  0  0  0  0  0  0  0  0
    8.4525   13.8255   23.1869 C   0  0  0  0  0  0  0  0  0  0  0  0
    8.0764   14.2858   22.1750 O   0  0  0  0  0  0  0  0  0  0  0  0
    7.4930   13.3932   24.2459 C   0  0  0  0  0  0  0  0  0  0  0  0
    7.4065   12.1901   24.8443 C   0  0  0  0  0  0  0  0  0  0  0  0
    8.1843   10.9646   24.4721 C   0  0  0  0  0  0  0  0  0  0  0  0
    6.3993   11.9813   25.9409 C   0  0  0  0  0  0  0  0  0  0  0  0
  1  2  1  0
  2  3  1  0
  3  4  2  0
  5  3  1  6
  5  6  1  0
  6  7  1  0
  7  8  1  6
  8  9  1  0
  9 10  2  0
  9 11  1  0
 11 12  1  0
 12 13  1  0
 13 14  2  0
  7 15  1  0
 15 16  1  0
 16 17  1  0
 17 18  2  0
 17 19  1  0
 19 20  2  3
 20 21  1  0
 20 22  1  0
 16  5  1  0
 13  8  1  0
M  END
>  <energy_score>  (1267) 
-32.533811

>  <inchikey>  (1267) 
None

>  <smiles>  (1267) 
None

>  <ref_pdb>  (1267) 
A3665a

>  <alias>  (1267) 
None

>  <HIPPO Pose ID>  (1267) 
498911

>  <name>  (1267) 
P498911

>  <HIPPO Compound ID>  (1267) 
298527

>  <ref_mols>  (1267) 
A3665a,A3571b

>  <distance_score>  (1267) 
1.475243

>  <inspiration_score>  (1267) 
None

$$$$
P498912
     RDKit          3D

 34 37  0  0  0  0  0  0  0  0999 V2000
    4.4748   14.7170   32.0133 C   0  0  0  0  0  0  0  0  0  0  0  0
    4.5832   14.6396   30.4923 C   0  0  2  0  0  0  0  0  0  0  0  0
    5.9678   13.5369   30.0345 S   0  0  0  0  0  0  0  0  0  0  0  0
    5.8854   13.3883   28.2836 C   0  0  0  0  0  0  0  0  0  0  0  0
    6.8493   12.7409   27.6626 N   0  0  0  0  0  0  0  0  0  0  0  0
    6.7172   12.9126   26.2925 C   0  0  0  0  0  0  0  0  0  0  0  0
    7.6071   12.4441   25.3094 C   0  0  0  0  0  0  0  0  0  0  0  0
    7.4468   12.8530   23.9900 C   0  0  0  0  0  0  0  0  0  0  0  0
    6.3598   13.6385   23.6225 C   0  0  0  0  0  0  0  0  0  0  0  0
    5.4168   14.0523   24.5635 C   0  0  0  0  0  0  0  0  0  0  0  0
    5.6228   13.6812   25.8957 C   0  0  0  0  0  0  0  0  0  0  0  0
    4.6736   14.0416   27.2729 S   0  0  0  0  0  0  0  0  0  0  0  0
    4.7165   16.0533   29.8823 C   0  0  0  0  0  0  0  0  0  0  0  0
    3.7870   16.4780   29.2539 O   0  0  0  0  0  0  0  0  0  0  0  0
    5.9899   16.6509   30.1997 N   0  0  0  0  0  0  0  0  0  0  0  0
    6.5582   17.8577   29.7979 C   0  0  0  0  0  0  0  0  0  0  0  0
    7.7320   18.2885   30.3933 C   0  0  0  0  0  0  0  0  0  0  0  0
    8.3256   19.4804   29.9636 C   0  0  0  0  0  0  0  0  0  0  0  0
    7.7663   20.2195   28.9179 C   0  0  0  0  0  0  0  0  0  0  0  0
    8.3679   21.3945   28.4408 N   0  0  0  0  0  0  0  0  0  0  0  0
    7.8646   21.8005   27.1219 C   0  0  0  0  0  0  0  0  0  0  0  0
    8.7124   22.9674   26.5680 C   0  0  0  0  0  0  0  0  0  0  0  0
   10.1566   22.6860   26.2181 N   0  0  0  0  0  0  0  0  0  0  0  0
   11.1312   23.5000   25.6132 C   0  0  0  0  0  0  0  0  0  0  0  0
   11.0963   24.6555   25.3000 O   0  0  0  0  0  0  0  0  0  0  0  0
   12.2511   22.7312   25.4951 O   0  0  0  0  0  0  0  0  0  0  0  0
   13.5187   23.2772   25.0503 C   0  0  0  0  0  0  0  0  0  0  0  0
   13.4581   23.6551   23.5696 C   0  0  0  0  0  0  0  0  0  0  0  0
   13.9750   24.4514   25.9251 C   0  0  0  0  0  0  0  0  0  0  0  0
   14.5223   22.1282   25.2291 C   0  0  0  0  0  0  0  0  0  0  0  0
   10.3045   22.7304   27.7327 C   0  0  0  0  0  0  0  0  0  0  0  0
    9.8267   21.4697   28.4886 C   0  0  0  0  0  0  0  0  0  0  0  0
    6.5959   19.8166   28.3733 N   0  0  0  0  0  0  0  0  0  0  0  0
    6.0201   18.6647   28.8074 C   0  0  0  0  0  0  0  0  0  0  0  0
  2  1  1  1
  2  3  1  0
  3  4  1  0
  4  5  2  0
  5  6  1  0
  6  7  2  0
  7  8  1  0
  8  9  2  0
  9 10  1  0
 10 11  2  0
 11 12  1  0
  2 13  1  0
 13 14  2  0
 13 15  1  0
 15 16  1  0
 16 17  2  0
 17 18  1  0
 18 19  2  0
 19 20  1  0
 20 21  1  0
 21 22  1  0
 22 23  1  0
 23 24  1  0
 24 25  2  0
 24 26  1  0
 26 27  1  0
 27 28  1  0
 27 29  1  0
 27 30  1  0
 23 31  1  0
 31 32  1  0
 19 33  1  0
 33 34  2  0
 12  4  1  0
 34 16  1  0
 11  6  1  0
 32 20  1  0
M  END
>  <energy_score>  (1268) 
-64.002818

>  <inchikey>  (1268) 
None

>  <smiles>  (1268) 
None

>  <ref_pdb>  (1268) 
A0469a

>  <alias>  (1268) 
None

>  <HIPPO Pose ID>  (1268) 
498912

>  <name>  (1268) 
P498912

>  <HIPPO Compound ID>  (1268) 
298803

>  <ref_mols>  (1268) 
A4031b,A0469a

>  <distance_score>  (1268) 
1.94409

>  <inspiration_score>  (1268) 
None

$$$$
P498913
     RDKit          3D

 20 21  0  0  0  0  0  0  0  0999 V2000
    5.7738   12.5809   27.3352 C   0  0  0  0  0  0  0  0  0  0  0  0
    6.2591   11.5806   26.3052 C   0  0  0  0  0  0  0  0  0  0  0  0
    7.1977   12.1292   25.3524 N   0  0  0  0  0  0  0  0  0  0  0  0
    6.9895   13.4152   24.7335 C   0  0  0  0  0  0  0  0  0  0  0  0
    7.7770   13.3904   23.4209 C   0  0  1  0  0  0  0  0  0  0  0  0
    8.6101   14.6561   23.2945 C   0  0  0  0  0  0  0  0  0  0  0  0
    8.5827   15.4775   24.1234 O   0  0  0  0  0  0  0  0  0  0  0  0
    9.4806   14.5485   22.0142 N   0  0  0  0  0  0  0  0  0  0  0  0
   10.5813   15.3972   21.5343 C   0  0  1  0  0  0  0  0  0  0  0  0
   11.8608   14.9980   22.3156 C   0  0  0  0  0  0  0  0  0  0  0  0
   11.6401   15.0300   23.8125 C   0  0  0  0  0  0  0  0  0  0  0  0
   12.6116   14.5549   24.8644 C   0  0  0  0  0  0  0  0  0  0  0  0
   11.4277   13.7278   24.5497 C   0  0  0  0  0  0  0  0  0  0  0  0
   10.8397   15.4248   20.0118 C   0  0  0  0  0  0  0  0  0  0  0  0
   12.1349   15.6721   19.7642 F   0  0  0  0  0  0  0  0  0  0  0  0
   10.1095   16.3938   19.4130 F   0  0  0  0  0  0  0  0  0  0  0  0
   10.5533   14.2755   19.3918 F   0  0  0  0  0  0  0  0  0  0  0  0
    8.6263   12.1287   23.5151 C   0  0  0  0  0  0  0  0  0  0  0  0
    8.0240   11.3172   24.6092 C   0  0  0  0  0  0  0  0  0  0  0  0
    8.2422   10.1323   24.7877 O   0  0  0  0  0  0  0  0  0  0  0  0
  1  2  1  0
  2  3  1  0
  3  4  1  0
  4  5  1  0
  5  6  1  1
  6  7  2  0
  6  8  1  0
  8  9  1  0
  9 10  1  1
 10 11  1  0
 11 12  1  0
 12 13  1  0
  9 14  1  0
 14 15  1  0
 14 16  1  0
 14 17  1  0
  5 18  1  0
 18 19  1  0
 19 20  2  0
 19  3  1  0
 13 11  1  0
M  END
>  <energy_score>  (1269) 
-2.436429

>  <inchikey>  (1269) 
None

>  <smiles>  (1269) 
None

>  <ref_pdb>  (1269) 
A3956a

>  <alias>  (1269) 
None

>  <HIPPO Pose ID>  (1269) 
498913

>  <name>  (1269) 
P498913

>  <HIPPO Compound ID>  (1269) 
298885

>  <ref_mols>  (1269) 
A3956a,A1778a

>  <distance_score>  (1269) 
1.44856

>  <inspiration_score>  (1269) 
None

$$$$
P498914
     RDKit          3D

 20 21  0  0  0  0  0  0  0  0999 V2000
    5.1564   12.4980   26.7837 C   0  0  0  0  0  0  0  0  0  0  0  0
    6.2405   11.5579   26.2972 C   0  0  0  0  0  0  0  0  0  0  0  0
    6.9864   12.0241   25.1541 N   0  0  0  0  0  0  0  0  0  0  0  0
    7.1398   13.4146   24.8235 C   0  0  0  0  0  0  0  0  0  0  0  0
    7.8790   13.3968   23.4890 C   0  0  1  0  0  0  0  0  0  0  0  0
    8.7110   14.6601   23.3756 C   0  0  0  0  0  0  0  0  0  0  0  0
    8.7044   15.4673   24.2182 O   0  0  0  0  0  0  0  0  0  0  0  0
    9.5439   14.5766   22.0722 N   0  0  0  0  0  0  0  0  0  0  0  0
   10.6359   15.4426   21.5720 C   0  0  1  0  0  0  0  0  0  0  0  0
   11.9311   15.0607   22.3209 C   0  0  0  0  0  0  0  0  0  0  0  0
   11.7308   15.0724   23.8219 C   0  0  0  0  0  0  0  0  0  0  0  0
   12.6850   14.5437   24.8669 C   0  0  0  0  0  0  0  0  0  0  0  0
   11.4850   13.7568   24.5260 C   0  0  0  0  0  0  0  0  0  0  0  0
   10.8066   15.3837   20.0387 C   0  0  0  0  0  0  0  0  0  0  0  0
   10.2492   16.4591   19.4379 F   0  0  0  0  0  0  0  0  0  0  0  0
   10.1644   14.3032   19.5756 F   0  0  0  0  0  0  0  0  0  0  0  0
   12.0763   15.2762   19.6200 F   0  0  0  0  0  0  0  0  0  0  0  0
    8.6954   12.1114   23.5756 C   0  0  0  0  0  0  0  0  0  0  0  0
    7.9421   11.2454   24.5343 C   0  0  0  0  0  0  0  0  0  0  0  0
    8.1796   10.0699   24.7444 O   0  0  0  0  0  0  0  0  0  0  0  0
  1  2  1  0
  2  3  1  0
  3  4  1  0
  4  5  1  0
  5  6  1  1
  6  7  2  0
  6  8  1  0
  8  9  1  0
  9 10  1  1
 10 11  1  0
 11 12  1  0
 12 13  1  0
  9 14  1  0
 14 15  1  0
 14 16  1  0
 14 17  1  0
  5 18  1  0
 18 19  1  0
 19 20  2  0
 19  3  1  0
 13 11  1  0
M  END
>  <energy_score>  (1270) 
-5.683746

>  <inchikey>  (1270) 
None

>  <smiles>  (1270) 
None

>  <ref_pdb>  (1270) 
A3956a

>  <alias>  (1270) 
None

>  <HIPPO Pose ID>  (1270) 
498914

>  <name>  (1270) 
P498914

>  <HIPPO Compound ID>  (1270) 
298885

>  <ref_mols>  (1270) 
A3956a,A1778a

>  <distance_score>  (1270) 
1.331428

>  <inspiration_score>  (1270) 
None

$$$$
P498915
     RDKit          3D

 22 23  0  0  0  0  0  0  0  0999 V2000
    4.8482   12.4247   26.8385 C   0  0  0  0  0  0  0  0  0  0  0  0
    6.1850   11.7704   26.5101 C   0  0  0  0  0  0  0  0  0  0  0  0
    6.0363   10.2716   26.3058 C   0  0  0  0  0  0  0  0  0  0  0  0
    6.8901   12.4227   25.4187 N   0  0  0  0  0  0  0  0  0  0  0  0
    6.6570   13.8056   25.0696 C   0  0  0  0  0  0  0  0  0  0  0  0
    7.8348   14.2219   24.2344 C   0  0  2  0  0  0  0  0  0  0  0  0
    7.7131   14.1487   22.7132 C   0  0  0  0  0  0  0  0  0  0  0  0
    6.9789   13.4709   22.1149 O   0  0  0  0  0  0  0  0  0  0  0  0
    8.8407   15.0863   22.2191 N   0  0  0  0  0  0  0  0  0  0  0  0
    9.3573   15.3083   20.8965 C   0  0  2  0  0  0  0  0  0  0  0  0
   10.7475   14.7605   20.8681 C   0  0  2  0  0  0  0  0  0  0  0  0
   11.3871   13.6422   21.6101 C   0  0  0  0  0  0  0  0  0  0  0  0
   11.7469   15.0379   22.0152 C   0  0  0  0  0  0  0  0  0  0  0  0
   11.5833   15.2582   23.4851 C   0  0  0  0  0  0  0  0  0  0  0  0
   12.8963   15.7969   21.4915 C   0  0  0  0  0  0  0  0  0  0  0  0
    9.4802   16.7610   20.4209 C   0  0  0  0  0  0  0  0  0  0  0  0
    9.7738   16.8344   19.1053 F   0  0  0  0  0  0  0  0  0  0  0  0
    8.3553   17.4604   20.6601 F   0  0  0  0  0  0  0  0  0  0  0  0
   10.4571   17.4067   21.0805 F   0  0  0  0  0  0  0  0  0  0  0  0
    8.9063   13.1809   24.5819 C   0  0  0  0  0  0  0  0  0  0  0  0
    8.1169   11.9761   24.9657 C   0  0  0  0  0  0  0  0  0  0  0  0
    8.5501   10.8389   24.9689 O   0  0  0  0  0  0  0  0  0  0  0  0
  1  2  1  0
  2  3  1  0
  2  4  1  0
  4  5  1  0
  5  6  1  0
  6  7  1  6
  7  8  2  0
  7  9  1  0
 10  9  1  1
 10 11  1  0
 11 12  1  1
 12 13  1  0
 13 14  1  0
 13 15  1  0
 10 16  1  0
 16 17  1  0
 16 18  1  0
 16 19  1  0
  6 20  1  0
 20 21  1  0
 21 22  2  0
 21  4  1  0
 13 11  1  0
M  END
>  <energy_score>  (1271) 
-5.196439

>  <inchikey>  (1271) 
None

>  <smiles>  (1271) 
None

>  <ref_pdb>  (1271) 
A3956a

>  <alias>  (1271) 
None

>  <HIPPO Pose ID>  (1271) 
498915

>  <name>  (1271) 
P498915

>  <HIPPO Compound ID>  (1271) 
298912

>  <ref_mols>  (1271) 
A3956a,A1778a

>  <distance_score>  (1271) 
1.854977

>  <inspiration_score>  (1271) 
None

$$$$
P498916
     RDKit          3D

 22 23  0  0  0  0  0  0  0  0999 V2000
    4.7838   15.0380   27.5857 C   0  0  0  0  0  0  0  0  0  0  0  0
    5.0768   13.9799   26.6835 O   0  0  0  0  0  0  0  0  0  0  0  0
    5.8608   12.9552   27.2960 C   0  0  0  0  0  0  0  0  0  0  0  0
    6.2068   11.8704   26.2779 C   0  0  0  0  0  0  0  0  0  0  0  0
    7.2554   12.2319   25.3383 N   0  0  0  0  0  0  0  0  0  0  0  0
    7.2576   13.4909   24.6217 C   0  0  0  0  0  0  0  0  0  0  0  0
    8.0364   13.2169   23.3331 C   0  0  1  0  0  0  0  0  0  0  0  0
    8.9483   14.3763   22.9758 C   0  0  0  0  0  0  0  0  0  0  0  0
    8.8877   15.4097   23.5107 O   0  0  0  0  0  0  0  0  0  0  0  0
    9.9469   13.8535   21.9116 N   0  0  0  0  0  0  0  0  0  0  0  0
   11.1412   14.4686   21.3548 C   0  0  2  0  0  0  0  0  0  0  0  0
   11.9086   15.1452   22.5140 C   0  0  0  0  0  0  0  0  0  0  0  0
   11.9000   14.1895   23.7122 C   0  0  0  0  0  0  0  0  0  0  0  0
   12.8650   14.1100   24.8513 C   0  0  0  0  0  0  0  0  0  0  0  0
   11.5402   14.7621   25.0636 C   0  0  0  0  0  0  0  0  0  0  0  0
   11.0152   15.2822   20.0724 C   0  0  0  0  0  0  0  0  0  0  0  0
   12.2538   15.6355   19.6994 F   0  0  0  0  0  0  0  0  0  0  0  0
   10.2742   16.3971   20.1922 F   0  0  0  0  0  0  0  0  0  0  0  0
   10.5194   14.5622   19.0486 F   0  0  0  0  0  0  0  0  0  0  0  0
    8.8365   11.9564   23.6676 C   0  0  0  0  0  0  0  0  0  0  0  0
    8.0231   11.2758   24.7094 C   0  0  0  0  0  0  0  0  0  0  0  0
    8.0739   10.0857   24.9594 O   0  0  0  0  0  0  0  0  0  0  0  0
  1  2  1  0
  2  3  1  0
  3  4  1  0
  4  5  1  0
  5  6  1  0
  6  7  1  0
  7  8  1  1
  8  9  2  0
  8 10  1  0
 10 11  1  0
 11 12  1  1
 12 13  1  0
 13 14  1  0
 14 15  1  0
 11 16  1  0
 16 17  1  0
 16 18  1  0
 16 19  1  0
  7 20  1  0
 20 21  1  0
 21 22  2  0
 21  5  1  0
 15 13  1  0
M  END
>  <energy_score>  (1272) 
-11.600015

>  <inchikey>  (1272) 
None

>  <smiles>  (1272) 
None

>  <ref_pdb>  (1272) 
A3956a

>  <alias>  (1272) 
None

>  <HIPPO Pose ID>  (1272) 
498916

>  <name>  (1272) 
P498916

>  <HIPPO Compound ID>  (1272) 
298921

>  <ref_mols>  (1272) 
A3956a,A1778a

>  <distance_score>  (1272) 
1.47743

>  <inspiration_score>  (1272) 
None

$$$$
P498917
     RDKit          3D

 22 23  0  0  0  0  0  0  0  0999 V2000
    5.8962   15.4788   26.7672 C   0  0  0  0  0  0  0  0  0  0  0  0
    6.5243   14.2015   26.7351 O   0  0  0  0  0  0  0  0  0  0  0  0
    5.6063   13.1833   26.3105 C   0  0  0  0  0  0  0  0  0  0  0  0
    6.3242   11.8391   26.2268 C   0  0  0  0  0  0  0  0  0  0  0  0
    7.2156   11.6857   25.0901 N   0  0  0  0  0  0  0  0  0  0  0  0
    8.0976   12.7195   24.6347 C   0  0  0  0  0  0  0  0  0  0  0  0
    8.7245   12.1058   23.3961 C   0  0  1  0  0  0  0  0  0  0  0  0
   10.1215   12.6121   23.2007 C   0  0  0  0  0  0  0  0  0  0  0  0
   10.9919   12.2284   23.8754 O   0  0  0  0  0  0  0  0  0  0  0  0
   10.1082   13.7063   22.1089 N   0  0  0  0  0  0  0  0  0  0  0  0
   11.1952   14.4966   21.5499 C   0  0  2  0  0  0  0  0  0  0  0  0
   11.5789   15.5703   22.6007 C   0  0  0  0  0  0  0  0  0  0  0  0
   11.7716   14.9996   23.9986 C   0  0  0  0  0  0  0  0  0  0  0  0
   11.7460   15.8014   25.2821 C   0  0  0  0  0  0  0  0  0  0  0  0
   10.5943   14.9364   24.9605 C   0  0  0  0  0  0  0  0  0  0  0  0
   11.0082   15.1436   20.1611 C   0  0  0  0  0  0  0  0  0  0  0  0
   10.0140   16.0597   20.1476 F   0  0  0  0  0  0  0  0  0  0  0  0
   10.7780   14.2851   19.1568 F   0  0  0  0  0  0  0  0  0  0  0  0
   12.1457   15.7837   19.8507 F   0  0  0  0  0  0  0  0  0  0  0  0
    8.7746   10.6173   23.7020 C   0  0  0  0  0  0  0  0  0  0  0  0
    7.6982   10.4438   24.7171 C   0  0  0  0  0  0  0  0  0  0  0  0
    7.3206    9.3680   25.1404 O   0  0  0  0  0  0  0  0  0  0  0  0
  1  2  1  0
  2  3  1  0
  3  4  1  0
  4  5  1  0
  5  6  1  0
  6  7  1  0
  7  8  1  1
  8  9  2  0
  8 10  1  0
 10 11  1  0
 11 12  1  1
 12 13  1  0
 13 14  1  0
 14 15  1  0
 11 16  1  0
 16 17  1  0
 16 18  1  0
 16 19  1  0
  7 20  1  0
 20 21  1  0
 21 22  2  0
 21  5  1  0
 15 13  1  0
M  END
>  <energy_score>  (1273) 
-26.361019

>  <inchikey>  (1273) 
None

>  <smiles>  (1273) 
None

>  <ref_pdb>  (1273) 
A3956a

>  <alias>  (1273) 
None

>  <HIPPO Pose ID>  (1273) 
498917

>  <name>  (1273) 
P498917

>  <HIPPO Compound ID>  (1273) 
298921

>  <ref_mols>  (1273) 
A3956a,A1778a

>  <distance_score>  (1273) 
1.583628

>  <inspiration_score>  (1273) 
None

$$$$
P498918
     RDKit          3D

 22 23  0  0  0  0  0  0  0  0999 V2000
    5.3579   13.8044   27.9151 C   0  0  0  0  0  0  0  0  0  0  0  0
    5.6504   12.3578   27.5151 C   0  0  0  0  0  0  0  0  0  0  0  0
    4.7013   11.4138   28.2571 C   0  0  0  0  0  0  0  0  0  0  0  0
    5.5354   12.1274   26.0041 C   0  0  0  0  0  0  0  0  0  0  0  0
    6.5597   12.8102   25.2563 N   0  0  0  0  0  0  0  0  0  0  0  0
    6.3299   14.0455   24.5326 C   0  0  0  0  0  0  0  0  0  0  0  0
    7.6764   14.4494   23.9815 C   0  0  2  0  0  0  0  0  0  0  0  0
    8.0067   14.1994   22.5068 C   0  0  0  0  0  0  0  0  0  0  0  0
    7.3780   13.5878   21.7392 O   0  0  0  0  0  0  0  0  0  0  0  0
    9.4028   14.8684   22.3599 N   0  0  0  0  0  0  0  0  0  0  0  0
   10.3629   14.8361   21.2501 C   0  0  2  0  0  0  0  0  0  0  0  0
   11.7357   15.0112   21.9740 C   0  0  0  0  0  0  0  0  0  0  0  0
   11.7603   14.1777   23.2571 C   0  0  0  0  0  0  0  0  0  0  0  0
   11.5521   14.8878   24.5923 C   0  0  0  0  0  0  0  0  0  0  0  0
   12.8303   14.2038   24.3030 C   0  0  0  0  0  0  0  0  0  0  0  0
   10.2633   15.7914   20.0621 C   0  0  0  0  0  0  0  0  0  0  0  0
    9.3916   15.3769   19.1360 F   0  0  0  0  0  0  0  0  0  0  0  0
   11.4428   15.8986   19.4201 F   0  0  0  0  0  0  0  0  0  0  0  0
    9.9071   17.0324   20.4631 F   0  0  0  0  0  0  0  0  0  0  0  0
    8.6495   13.4998   24.7217 C   0  0  0  0  0  0  0  0  0  0  0  0
    7.8295   12.3211   25.1072 C   0  0  0  0  0  0  0  0  0  0  0  0
    8.2474   11.2057   25.3559 O   0  0  0  0  0  0  0  0  0  0  0  0
  1  2  1  0
  2  3  1  0
  2  4  1  0
  4  5  1  0
  5  6  1  0
  6  7  1  0
  7  8  1  6
  8  9  2  0
  8 10  1  0
 10 11  1  0
 11 12  1  1
 12 13  1  0
 13 14  1  0
 14 15  1  0
 11 16  1  0
 16 17  1  0
 16 18  1  0
 16 19  1  0
  7 20  1  0
 20 21  1  0
 21 22  2  0
 21  5  1  0
 15 13  1  0
M  END
>  <energy_score>  (1274) 
-3.760428

>  <inchikey>  (1274) 
None

>  <smiles>  (1274) 
None

>  <ref_pdb>  (1274) 
A3956a

>  <alias>  (1274) 
None

>  <HIPPO Pose ID>  (1274) 
498918

>  <name>  (1274) 
P498918

>  <HIPPO Compound ID>  (1274) 
298923

>  <ref_mols>  (1274) 
A3956a,A1778a

>  <distance_score>  (1274) 
1.834137

>  <inspiration_score>  (1274) 
None

$$$$
P498919
     RDKit          3D

 22 23  0  0  0  0  0  0  0  0999 V2000
    6.5451   13.9993   27.7888 C   0  0  0  0  0  0  0  0  0  0  0  0
    5.6202   13.2399   26.8386 C   0  0  0  0  0  0  0  0  0  0  0  0
    4.4057   12.7333   27.6225 C   0  0  0  0  0  0  0  0  0  0  0  0
    6.3163   12.0651   26.1379 C   0  0  0  0  0  0  0  0  0  0  0  0
    7.3900   12.4020   25.2189 N   0  0  0  0  0  0  0  0  0  0  0  0
    7.4017   13.5912   24.3874 C   0  0  0  0  0  0  0  0  0  0  0  0
    8.1681   13.1860   23.1208 C   0  0  1  0  0  0  0  0  0  0  0  0
    8.8884   14.3761   22.4987 C   0  0  0  0  0  0  0  0  0  0  0  0
    8.5874   15.4652   22.7884 O   0  0  0  0  0  0  0  0  0  0  0  0
   10.0397   13.8578   21.5972 N   0  0  0  0  0  0  0  0  0  0  0  0
   11.1298   14.5813   20.9351 C   0  0  2  0  0  0  0  0  0  0  0  0
   11.6183   15.6987   21.8499 C   0  0  0  0  0  0  0  0  0  0  0  0
   12.2958   15.2620   23.1189 C   0  0  0  0  0  0  0  0  0  0  0  0
   11.5110   15.1822   24.4118 C   0  0  0  0  0  0  0  0  0  0  0  0
   12.1638   13.9552   23.8664 C   0  0  0  0  0  0  0  0  0  0  0  0
   10.8830   15.1143   19.5098 C   0  0  0  0  0  0  0  0  0  0  0  0
   10.6678   14.1356   18.6142 F   0  0  0  0  0  0  0  0  0  0  0  0
    9.8736   16.0014   19.4397 F   0  0  0  0  0  0  0  0  0  0  0  0
   11.9854   15.7297   19.0567 F   0  0  0  0  0  0  0  0  0  0  0  0
    9.0234   12.0292   23.6102 C   0  0  0  0  0  0  0  0  0  0  0  0
    8.1696   11.4025   24.6599 C   0  0  0  0  0  0  0  0  0  0  0  0
    8.1912   10.2247   24.9659 O   0  0  0  0  0  0  0  0  0  0  0  0
  1  2  1  0
  2  3  1  0
  2  4  1  0
  4  5  1  0
  5  6  1  0
  6  7  1  0
  7  8  1  1
  8  9  2  0
  8 10  1  0
 10 11  1  0
 11 12  1  1
 12 13  1  0
 13 14  1  0
 14 15  1  0
 11 16  1  0
 16 17  1  0
 16 18  1  0
 16 19  1  0
  7 20  1  0
 20 21  1  0
 21 22  2  0
 21  5  1  0
 15 13  1  0
M  END
>  <energy_score>  (1275) 
-5.21496

>  <inchikey>  (1275) 
None

>  <smiles>  (1275) 
None

>  <ref_pdb>  (1275) 
A3956a

>  <alias>  (1275) 
None

>  <HIPPO Pose ID>  (1275) 
498919

>  <name>  (1275) 
P498919

>  <HIPPO Compound ID>  (1275) 
298923

>  <ref_mols>  (1275) 
A3956a,A1778a

>  <distance_score>  (1275) 
1.182002

>  <inspiration_score>  (1275) 
None

$$$$
P498920
     RDKit          3D

 23 24  0  0  0  0  0  0  0  0999 V2000
    5.6259   13.3387   28.4079 C   0  0  0  0  0  0  0  0  0  0  0  0
    6.2087   13.4648   27.0056 C   0  0  0  0  0  0  0  0  0  0  0  0
    6.6849   12.1375   26.3915 C   0  0  0  0  0  0  0  0  0  0  0  0
    5.5530   11.1441   26.2644 C   0  0  0  0  0  0  0  0  0  0  0  0
    5.9723    9.7805   25.7695 C   0  0  0  0  0  0  0  0  0  0  0  0
    7.4736   12.3130   25.1774 N   0  0  0  0  0  0  0  0  0  0  0  0
    7.4042   13.4706   24.3105 C   0  0  0  0  0  0  0  0  0  0  0  0
    8.7407   13.3640   23.6228 C   0  0  2  0  0  0  0  0  0  0  0  0
    9.0031   14.3699   22.5330 C   0  0  0  0  0  0  0  0  0  0  0  0
    8.3340   15.3081   22.3663 O   0  0  0  0  0  0  0  0  0  0  0  0
   10.3162   13.9401   21.8400 N   0  0  0  0  0  0  0  0  0  0  0  0
   11.1327   14.6291   20.8593 C   0  0  2  0  0  0  0  0  0  0  0  0
   11.7295   15.7824   21.6564 C   0  0  0  0  0  0  0  0  0  0  0  0
   12.3814   15.4622   22.9811 C   0  0  0  0  0  0  0  0  0  0  0  0
   12.2714   14.2917   23.9490 C   0  0  0  0  0  0  0  0  0  0  0  0
   11.5395   15.5506   24.2463 C   0  0  0  0  0  0  0  0  0  0  0  0
   10.4652   15.1391   19.5773 C   0  0  0  0  0  0  0  0  0  0  0  0
    9.1239   15.1602   19.7091 F   0  0  0  0  0  0  0  0  0  0  0  0
   10.8284   16.3919   19.2421 F   0  0  0  0  0  0  0  0  0  0  0  0
   10.7937   14.3503   18.5294 F   0  0  0  0  0  0  0  0  0  0  0  0
    8.9425   11.8974   23.4090 C   0  0  0  0  0  0  0  0  0  0  0  0
    8.3157   11.3483   24.6346 C   0  0  0  0  0  0  0  0  0  0  0  0
    8.5494   10.2249   25.0323 O   0  0  0  0  0  0  0  0  0  0  0  0
  1  2  1  0
  2  3  1  0
  3  4  1  0
  4  5  1  0
  3  6  1  0
  6  7  1  0
  7  8  1  0
  8  9  1  6
  9 10  2  0
  9 11  1  0
 11 12  1  0
 12 13  1  1
 13 14  1  0
 14 15  1  0
 15 16  1  0
 12 17  1  0
 17 18  1  0
 17 19  1  0
 17 20  1  0
  8 21  1  0
 21 22  1  0
 22 23  2  0
 22  6  1  0
 16 14  1  0
M  END
>  <energy_score>  (1276) 
-21.905244

>  <inchikey>  (1276) 
None

>  <smiles>  (1276) 
None

>  <ref_pdb>  (1276) 
A3956a

>  <alias>  (1276) 
None

>  <HIPPO Pose ID>  (1276) 
498920

>  <name>  (1276) 
P498920

>  <HIPPO Compound ID>  (1276) 
298948

>  <ref_mols>  (1276) 
A3956a,A1778a

>  <distance_score>  (1276) 
1.098533

>  <inspiration_score>  (1276) 
None

$$$$
P498921
     RDKit          3D

 23 24  0  0  0  0  0  0  0  0999 V2000
    6.6215   14.9676   27.3461 C   0  0  0  0  0  0  0  0  0  0  0  0
    5.6774   13.8465   26.9247 C   0  0  0  0  0  0  0  0  0  0  0  0
    6.4116   12.6362   26.3356 C   0  0  0  0  0  0  0  0  0  0  0  0
    5.4753   11.4409   26.2863 C   0  0  0  0  0  0  0  0  0  0  0  0
    6.0912   10.1247   25.8729 C   0  0  0  0  0  0  0  0  0  0  0  0
    7.1254   12.9305   25.0969 N   0  0  0  0  0  0  0  0  0  0  0  0
    6.7165   13.8504   24.0268 C   0  0  0  0  0  0  0  0  0  0  0  0
    8.0442   14.2060   23.4249 C   0  0  2  0  0  0  0  0  0  0  0  0
    8.3337   14.5818   21.9686 C   0  0  0  0  0  0  0  0  0  0  0  0
    7.7210   14.3467   21.0109 O   0  0  0  0  0  0  0  0  0  0  0  0
    9.7093   15.2632   22.1340 N   0  0  0  0  0  0  0  0  0  0  0  0
   10.6622   15.7119   21.1413 C   0  0  1  0  0  0  0  0  0  0  0  0
   11.8978   14.9295   21.6542 C   0  0  0  0  0  0  0  0  0  0  0  0
   12.3249   15.2603   23.0741 C   0  0  0  0  0  0  0  0  0  0  0  0
   11.5901   15.1581   24.4272 C   0  0  0  0  0  0  0  0  0  0  0  0
   12.6101   14.1487   24.0652 C   0  0  0  0  0  0  0  0  0  0  0  0
   10.5855   15.5024   19.6232 C   0  0  0  0  0  0  0  0  0  0  0  0
    9.6445   16.2654   19.0521 F   0  0  0  0  0  0  0  0  0  0  0  0
   11.7495   15.8817   19.0527 F   0  0  0  0  0  0  0  0  0  0  0  0
   10.4350   14.2341   19.2588 F   0  0  0  0  0  0  0  0  0  0  0  0
    8.8023   12.8541   23.5176 C   0  0  0  0  0  0  0  0  0  0  0  0
    8.2102   12.1808   24.6911 C   0  0  0  0  0  0  0  0  0  0  0  0
    8.6344   11.1519   25.1766 O   0  0  0  0  0  0  0  0  0  0  0  0
  1  2  1  0
  2  3  1  0
  3  4  1  0
  4  5  1  0
  3  6  1  0
  6  7  1  0
  7  8  1  0
  8  9  1  6
  9 10  2  0
  9 11  1  0
 11 12  1  0
 12 13  1  1
 13 14  1  0
 14 15  1  0
 15 16  1  0
 12 17  1  0
 17 18  1  0
 17 19  1  0
 17 20  1  0
  8 21  1  0
 21 22  1  0
 22 23  2  0
 22  6  1  0
 16 14  1  0
M  END
>  <energy_score>  (1277) 
-13.098435

>  <inchikey>  (1277) 
None

>  <smiles>  (1277) 
None

>  <ref_pdb>  (1277) 
A3956a

>  <alias>  (1277) 
None

>  <HIPPO Pose ID>  (1277) 
498921

>  <name>  (1277) 
P498921

>  <HIPPO Compound ID>  (1277) 
298948

>  <ref_mols>  (1277) 
A3956a,A1778a

>  <distance_score>  (1277) 
1.658443

>  <inspiration_score>  (1277) 
None

$$$$
P498922
     RDKit          3D

 23 25  0  0  0  0  0  0  0  0999 V2000
    6.6476   13.6621   27.2895 C   0  0  0  0  0  0  0  0  0  0  0  0
    6.2051   12.9357   26.0370 C   0  0  2  0  0  0  0  0  0  0  0  0
    5.4107   11.6995   26.2825 C   0  0  0  0  0  0  0  0  0  0  0  0
    5.9476   10.3310   26.5753 C   0  0  0  0  0  0  0  0  0  0  0  0
    5.1838   11.0618   27.6408 C   0  0  0  0  0  0  0  0  0  0  0  0
    7.1887   12.8640   24.9543 N   0  0  0  0  0  0  0  0  0  0  0  0
    7.3587   14.0127   24.0856 C   0  0  0  0  0  0  0  0  0  0  0  0
    8.1219   13.4773   22.8776 C   0  0  1  0  0  0  0  0  0  0  0  0
    8.8804   14.5952   22.1722 C   0  0  0  0  0  0  0  0  0  0  0  0
    8.5742   15.7091   22.3225 O   0  0  0  0  0  0  0  0  0  0  0  0
   10.0710   13.9785   21.4009 N   0  0  0  0  0  0  0  0  0  0  0  0
   11.1979   14.6182   20.7268 C   0  0  2  0  0  0  0  0  0  0  0  0
   11.7220   15.7544   21.5972 C   0  0  0  0  0  0  0  0  0  0  0  0
   12.3027   15.3900   22.9353 C   0  0  0  0  0  0  0  0  0  0  0  0
   12.1595   14.1060   23.7124 C   0  0  0  0  0  0  0  0  0  0  0  0
   11.4296   15.3225   24.1710 C   0  0  0  0  0  0  0  0  0  0  0  0
   10.9824   15.0887   19.2746 C   0  0  0  0  0  0  0  0  0  0  0  0
   10.0598   16.0648   19.1678 F   0  0  0  0  0  0  0  0  0  0  0  0
   10.6535   14.0819   18.4490 F   0  0  0  0  0  0  0  0  0  0  0  0
   12.1323   15.5557   18.7625 F   0  0  0  0  0  0  0  0  0  0  0  0
    8.9575   12.3853   23.5198 C   0  0  0  0  0  0  0  0  0  0  0  0
    8.1210   11.8912   24.6542 C   0  0  0  0  0  0  0  0  0  0  0  0
    8.3379   10.8137   25.1728 O   0  0  0  0  0  0  0  0  0  0  0  0
  2  1  1  1
  2  3  1  0
  3  4  1  0
  4  5  1  0
  2  6  1  0
  6  7  1  0
  7  8  1  0
  8  9  1  1
  9 10  2  0
  9 11  1  0
 11 12  1  0
 12 13  1  1
 13 14  1  0
 14 15  1  0
 15 16  1  0
 12 17  1  0
 17 18  1  0
 17 19  1  0
 17 20  1  0
  8 21  1  0
 21 22  1  0
 22 23  2  0
  5  3  1  0
 22  6  1  0
 16 14  1  0
M  END
>  <energy_score>  (1278) 
-2.662113

>  <inchikey>  (1278) 
None

>  <smiles>  (1278) 
None

>  <ref_pdb>  (1278) 
A3956a

>  <alias>  (1278) 
None

>  <HIPPO Pose ID>  (1278) 
498922

>  <name>  (1278) 
P498922

>  <HIPPO Compound ID>  (1278) 
298954

>  <ref_mols>  (1278) 
A3956a,A1778a

>  <distance_score>  (1278) 
1.661741

>  <inspiration_score>  (1278) 
None

$$$$
P498923
     RDKit          3D

 23 25  0  0  0  0  0  0  0  0999 V2000
    4.7012   13.2003   26.3365 C   0  0  0  0  0  0  0  0  0  0  0  0
    5.7083   12.0691   26.1145 C   0  0  2  0  0  0  0  0  0  0  0  0
    5.9622   11.2781   27.3698 C   0  0  0  0  0  0  0  0  0  0  0  0
    5.7626   11.8202   28.7744 C   0  0  0  0  0  0  0  0  0  0  0  0
    4.8273   10.7747   28.2425 C   0  0  0  0  0  0  0  0  0  0  0  0
    6.9417   12.5554   25.4773 N   0  0  0  0  0  0  0  0  0  0  0  0
    6.8699   13.6945   24.5799 C   0  0  0  0  0  0  0  0  0  0  0  0
    8.2502   13.8367   24.0222 C   0  0  2  0  0  0  0  0  0  0  0  0
    8.3110   14.2990   22.5651 C   0  0  0  0  0  0  0  0  0  0  0  0
    7.6448   13.8953   21.6995 O   0  0  0  0  0  0  0  0  0  0  0  0
    9.4905   15.2990   22.5394 N   0  0  0  0  0  0  0  0  0  0  0  0
   10.1607   15.9414   21.4192 C   0  0  1  0  0  0  0  0  0  0  0  0
   11.6537   16.0754   21.7728 C   0  0  0  0  0  0  0  0  0  0  0  0
   12.3329   15.1757   22.7706 C   0  0  0  0  0  0  0  0  0  0  0  0
   11.8716   13.7844   23.1098 C   0  0  0  0  0  0  0  0  0  0  0  0
   11.9481   14.8232   24.1953 C   0  0  0  0  0  0  0  0  0  0  0  0
   10.0268   15.4520   19.9735 C   0  0  0  0  0  0  0  0  0  0  0  0
   10.8676   14.4614   19.6381 F   0  0  0  0  0  0  0  0  0  0  0  0
   10.2778   16.4813   19.1228 F   0  0  0  0  0  0  0  0  0  0  0  0
    8.7646   15.0684   19.7527 F   0  0  0  0  0  0  0  0  0  0  0  0
    8.8307   12.4268   24.0789 C   0  0  0  0  0  0  0  0  0  0  0  0
    7.8951   11.6660   24.9669 C   0  0  0  0  0  0  0  0  0  0  0  0
    8.0035   10.4706   25.1814 O   0  0  0  0  0  0  0  0  0  0  0  0
  2  1  1  1
  2  3  1  0
  3  4  1  0
  4  5  1  0
  2  6  1  0
  6  7  1  0
  7  8  1  0
  8  9  1  6
  9 10  2  0
  9 11  1  0
 11 12  1  0
 12 13  1  1
 13 14  1  0
 14 15  1  0
 15 16  1  0
 12 17  1  0
 17 18  1  0
 17 19  1  0
 17 20  1  0
  8 21  1  0
 21 22  1  0
 22 23  2  0
  5  3  1  0
 22  6  1  0
 16 14  1  0
M  END
>  <energy_score>  (1279) 
-3.84605

>  <inchikey>  (1279) 
None

>  <smiles>  (1279) 
None

>  <ref_pdb>  (1279) 
A3956a

>  <alias>  (1279) 
None

>  <HIPPO Pose ID>  (1279) 
498923

>  <name>  (1279) 
P498923

>  <HIPPO Compound ID>  (1279) 
298954

>  <ref_mols>  (1279) 
A3956a,A1778a

>  <distance_score>  (1279) 
1.433161

>  <inspiration_score>  (1279) 
None

$$$$
P498924
     RDKit          3D

 23 24  0  0  0  0  0  0  0  0999 V2000
    5.3426   14.7842   28.2103 C   0  0  0  0  0  0  0  0  0  0  0  0
    5.3861   13.9361   27.0173 N   0  0  0  0  0  0  0  0  0  0  0  0
    4.0628   13.8895   26.3949 C   0  0  0  0  0  0  0  0  0  0  0  0
    5.8937   12.5938   27.3519 C   0  0  0  0  0  0  0  0  0  0  0  0
    6.2588   11.6597   26.1782 C   0  0  0  0  0  0  0  0  0  0  0  0
    7.3100   12.1217   25.2877 N   0  0  0  0  0  0  0  0  0  0  0  0
    7.2679   13.4131   24.6445 C   0  0  0  0  0  0  0  0  0  0  0  0
    8.0232   13.2108   23.3220 C   0  0  1  0  0  0  0  0  0  0  0  0
    8.5902   14.5336   22.8541 C   0  0  0  0  0  0  0  0  0  0  0  0
    8.2560   15.5134   23.3911 O   0  0  0  0  0  0  0  0  0  0  0  0
    9.5728   14.3203   21.6744 N   0  0  0  0  0  0  0  0  0  0  0  0
   10.4254   15.2693   20.9704 C   0  0  1  0  0  0  0  0  0  0  0  0
   11.3374   15.9463   21.9970 C   0  0  0  0  0  0  0  0  0  0  0  0
   12.1923   15.1417   22.9360 C   0  0  0  0  0  0  0  0  0  0  0  0
   11.6293   14.8800   24.3209 C   0  0  0  0  0  0  0  0  0  0  0  0
   11.9679   13.7353   23.4249 C   0  0  0  0  0  0  0  0  0  0  0  0
   11.2098   14.9423   19.6894 C   0  0  0  0  0  0  0  0  0  0  0  0
   11.4292   16.1010   19.0270 F   0  0  0  0  0  0  0  0  0  0  0  0
   12.3977   14.3659   19.9437 F   0  0  0  0  0  0  0  0  0  0  0  0
   10.5680   14.1732   18.8076 F   0  0  0  0  0  0  0  0  0  0  0  0
    8.9900   12.1022   23.6838 C   0  0  0  0  0  0  0  0  0  0  0  0
    8.1697   11.2683   24.6207 C   0  0  0  0  0  0  0  0  0  0  0  0
    8.2786   10.0661   24.7703 O   0  0  0  0  0  0  0  0  0  0  0  0
  1  2  1  0
  2  3  1  0
  2  4  1  0
  4  5  1  0
  5  6  1  0
  6  7  1  0
  7  8  1  0
  8  9  1  1
  9 10  2  0
  9 11  1  0
 11 12  1  0
 12 13  1  1
 13 14  1  0
 14 15  1  0
 15 16  1  0
 12 17  1  0
 17 18  1  0
 17 19  1  0
 17 20  1  0
  8 21  1  0
 21 22  1  0
 22 23  2  0
 22  6  1  0
 16 14  1  0
M  END
>  <energy_score>  (1280) 
-4.846038

>  <inchikey>  (1280) 
None

>  <smiles>  (1280) 
None

>  <ref_pdb>  (1280) 
A3956a

>  <alias>  (1280) 
None

>  <HIPPO Pose ID>  (1280) 
498924

>  <name>  (1280) 
P498924

>  <HIPPO Compound ID>  (1280) 
298961

>  <ref_mols>  (1280) 
A3956a,A1778a

>  <distance_score>  (1280) 
1.131233

>  <inspiration_score>  (1280) 
None

$$$$
P498925
     RDKit          3D

 23 24  0  0  0  0  0  0  0  0999 V2000
    4.1734   12.0848   28.5843 C   0  0  0  0  0  0  0  0  0  0  0  0
    4.9025   13.3007   28.2322 N   0  0  0  0  0  0  0  0  0  0  0  0
    3.9940   14.3312   27.7369 C   0  0  0  0  0  0  0  0  0  0  0  0
    6.0182   13.0363   27.3072 C   0  0  0  0  0  0  0  0  0  0  0  0
    5.6851   12.4918   25.9140 C   0  0  0  0  0  0  0  0  0  0  0  0
    6.8622   12.3597   25.0835 N   0  0  0  0  0  0  0  0  0  0  0  0
    7.2377   13.3318   24.0674 C   0  0  0  0  0  0  0  0  0  0  0  0
    8.6433   12.9016   23.8241 C   0  0  2  0  0  0  0  0  0  0  0  0
    9.5865   13.2736   22.7159 C   0  0  0  0  0  0  0  0  0  0  0  0
   10.1903   12.4335   22.1962 O   0  0  0  0  0  0  0  0  0  0  0  0
    9.6448   14.7857   22.5396 N   0  0  0  0  0  0  0  0  0  0  0  0
   10.5447   15.6153   21.7378 C   0  0  1  0  0  0  0  0  0  0  0  0
   11.9306   15.3229   22.4269 C   0  0  0  0  0  0  0  0  0  0  0  0
   11.7876   15.0615   23.9404 C   0  0  0  0  0  0  0  0  0  0  0  0
   11.8359   13.6152   24.4262 C   0  0  0  0  0  0  0  0  0  0  0  0
   12.8513   14.5637   24.8905 C   0  0  0  0  0  0  0  0  0  0  0  0
   10.6776   15.4640   20.2025 C   0  0  0  0  0  0  0  0  0  0  0  0
   11.9503   15.6816   19.8121 F   0  0  0  0  0  0  0  0  0  0  0  0
    9.9154   16.3888   19.5680 F   0  0  0  0  0  0  0  0  0  0  0  0
   10.3281   14.2722   19.7252 F   0  0  0  0  0  0  0  0  0  0  0  0
    8.6067   11.3806   23.9316 C   0  0  0  0  0  0  0  0  0  0  0  0
    7.6007   11.1875   25.0014 C   0  0  0  0  0  0  0  0  0  0  0  0
    7.4663   10.1708   25.6534 O   0  0  0  0  0  0  0  0  0  0  0  0
  1  2  1  0
  2  3  1  0
  2  4  1  0
  4  5  1  0
  5  6  1  0
  6  7  1  0
  7  8  1  0
  8  9  1  6
  9 10  2  0
  9 11  1  0
 11 12  1  0
 12 13  1  1
 13 14  1  0
 14 15  1  0
 15 16  1  0
 12 17  1  0
 17 18  1  0
 17 19  1  0
 17 20  1  0
  8 21  1  0
 21 22  1  0
 22 23  2  0
 22  6  1  0
 16 14  1  0
M  END
>  <energy_score>  (1281) 
-4.058664

>  <inchikey>  (1281) 
None

>  <smiles>  (1281) 
None

>  <ref_pdb>  (1281) 
A3956a

>  <alias>  (1281) 
None

>  <HIPPO Pose ID>  (1281) 
498925

>  <name>  (1281) 
P498925

>  <HIPPO Compound ID>  (1281) 
298961

>  <ref_mols>  (1281) 
A3956a,A1778a

>  <distance_score>  (1281) 
1.658726

>  <inspiration_score>  (1281) 
None

$$$$
P498926
     RDKit          3D

 23 26  0  0  0  0  0  0  0  0999 V2000
    7.9916   14.8006   26.3053 O   0  0  0  0  0  0  0  0  0  0  0  0
    8.0709   13.8511   25.5477 C   0  0  0  0  0  0  0  0  0  0  0  0
    9.3126   13.3946   24.8451 C   0  0  0  0  0  0  0  0  0  0  0  0
    8.7895   12.4873   23.6760 C   0  0  1  0  0  0  0  0  0  0  0  0
    8.6343   13.5444   22.5267 C   0  0  0  0  0  0  0  0  0  0  0  0
    7.6160   14.0154   22.2085 O   0  0  0  0  0  0  0  0  0  0  0  0
   10.0805   13.8524   22.0455 N   0  0  0  0  0  0  0  0  0  0  0  0
   10.5814   14.8866   21.1303 C   0  0  1  0  0  0  0  0  0  0  0  0
   10.0204   15.1712   19.7576 C   0  0  0  0  0  0  0  0  0  0  0  0
   10.2854   16.4290   19.3315 F   0  0  0  0  0  0  0  0  0  0  0  0
    8.6859   15.0360   19.7971 F   0  0  0  0  0  0  0  0  0  0  0  0
   10.5571   14.3523   18.8247 F   0  0  0  0  0  0  0  0  0  0  0  0
   10.4373   16.0974   22.0357 C   0  0  0  0  0  0  0  0  0  0  0  0
   11.5721   15.9891   23.0433 C   0  0  1  0  0  0  0  0  0  0  0  0
   12.2565   14.7716   23.6516 C   0  0  0  0  0  0  0  0  0  0  0  0
   12.6496   15.2997   22.3072 C   0  0  1  0  0  0  0  0  0  0  0  0
   12.0976   14.7630   21.0216 C   0  0  0  0  0  0  0  0  0  0  0  0
    9.7889   11.3945   23.3091 C   0  0  0  0  0  0  0  0  0  0  0  0
    9.5653    9.9218   23.6019 C   0  0  0  0  0  0  0  0  0  0  0  0
    8.2154    9.5592   24.1349 C   0  0  0  0  0  0  0  0  0  0  0  0
    7.5877   10.6357   24.9818 C   0  0  0  0  0  0  0  0  0  0  0  0
    7.4899   11.9804   24.2728 C   0  0  1  0  0  0  0  0  0  0  0  0
    7.0764   12.9708   25.2282 N   0  0  0  0  0  0  0  0  0  0  0  0
  1  2  2  0
  2  3  1  0
  3  4  1  0
  4  5  1  6
  5  6  2  0
  5  7  1  0
  8  7  1  1
  8  9  1  0
  9 10  1  0
  9 11  1  0
  9 12  1  0
  8 13  1  0
 14 13  1  6
 14 15  1  0
 16 15  1  1
 16 17  1  0
  4 18  1  0
 18 19  1  0
 19 20  1  0
 20 21  1  0
 22 21  1  1
 22 23  1  0
 23  2  1  0
 22  4  1  0
 17  8  1  0
 16 14  1  0
M  END
>  <energy_score>  (1282) 
-4.627695

>  <inchikey>  (1282) 
None

>  <smiles>  (1282) 
None

>  <ref_pdb>  (1282) 
A3956a

>  <alias>  (1282) 
None

>  <HIPPO Pose ID>  (1282) 
498926

>  <name>  (1282) 
P498926

>  <HIPPO Compound ID>  (1282) 
298985

>  <ref_mols>  (1282) 
A3956a,A1778a

>  <distance_score>  (1282) 
1.502673

>  <inspiration_score>  (1282) 
None

$$$$
P498927
     RDKit          3D

 28 30  0  0  0  0  0  0  0  0999 V2000
    6.0261   10.8177   26.4431 C   0  0  0  0  0  0  0  0  0  0  0  0
    7.0532   10.9279   25.3831 C   0  0  0  0  0  0  0  0  0  0  0  0
    7.5811    9.8181   24.8688 N   0  0  0  0  0  0  0  0  0  0  0  0
    8.5049   10.2600   23.9971 N   0  0  0  0  0  0  0  0  0  0  0  0
    9.3483    9.2858   23.3392 C   0  0  0  0  0  0  0  0  0  0  0  0
    8.5505   11.6342   23.9095 C   0  0  0  0  0  0  0  0  0  0  0  0
    9.5047   12.3653   23.0362 C   0  0  0  0  0  0  0  0  0  0  0  0
    7.6065   12.1126   24.8120 C   0  0  0  0  0  0  0  0  0  0  0  0
    7.2249   13.5094   25.2144 C   0  0  2  0  0  0  0  0  0  0  0  0
    6.0013   14.1133   24.4915 C   0  0  1  0  0  0  0  0  0  0  0  0
    4.6988   14.0746   25.2991 C   0  0  0  0  0  0  0  0  0  0  0  0
    4.7418   14.8784   26.5005 N   0  0  0  0  0  0  0  0  0  0  0  0
    4.9646   14.4673   27.9804 C   0  0  0  0  0  0  0  0  0  0  0  0
    5.2237   13.4288   28.4456 O   0  0  0  0  0  0  0  0  0  0  0  0
    4.8226   15.7595   28.8114 C   0  0  0  0  0  0  0  0  0  0  0  0
    5.3975   15.5699   30.2299 C   0  0  0  0  0  0  0  0  0  0  0  0
    4.8520   16.6069   31.2088 C   0  0  0  0  0  0  0  0  0  0  0  0
    3.3520   16.5095   31.3108 C   0  0  0  0  0  0  0  0  0  0  0  0
    2.6942   16.9274   32.4009 C   0  0  0  0  0  0  0  0  0  0  0  0
    1.3506   16.8206   32.4665 F   0  0  0  0  0  0  0  0  0  0  0  0
    3.3712   17.4572   33.4410 F   0  0  0  0  0  0  0  0  0  0  0  0
    2.6334   15.9172   30.1270 C   0  0  0  0  0  0  0  0  0  0  0  0
    3.3577   16.2474   28.8215 C   0  0  0  0  0  0  0  0  0  0  0  0
    6.3844   15.5725   24.2021 C   0  0  0  0  0  0  0  0  0  0  0  0
    7.5890   15.7288   25.0655 C   0  0  0  0  0  0  0  0  0  0  0  0
    7.8929   16.7017   25.7324 O   0  0  0  0  0  0  0  0  0  0  0  0
    8.2616   14.5066   25.0225 N   0  0  0  0  0  0  0  0  0  0  0  0
    9.5288   14.4428   25.6960 C   0  0  0  0  0  0  0  0  0  0  0  0
  1  2  1  0
  2  3  2  0
  3  4  1  0
  4  5  1  0
  4  6  1  0
  6  7  1  0
  6  8  2  0
  9  8  1  6
  9 10  1  0
 10 11  1  1
 11 12  1  0
 12 13  1  0
 13 14  2  0
 13 15  1  0
 15 16  1  0
 16 17  1  0
 17 18  1  0
 18 19  2  3
 19 20  1  0
 19 21  1  0
 18 22  1  0
 22 23  1  0
 10 24  1  0
 24 25  1  0
 25 26  2  0
 25 27  1  0
 27 28  1  0
  8  2  1  0
 27  9  1  0
 23 15  1  0
M  END
>  <energy_score>  (1283) 
-13.469881

>  <inchikey>  (1283) 
None

>  <smiles>  (1283) 
None

>  <ref_pdb>  (1283) 
A4855a

>  <alias>  (1283) 
None

>  <HIPPO Pose ID>  (1283) 
498927

>  <name>  (1283) 
P498927

>  <HIPPO Compound ID>  (1283) 
299120

>  <ref_mols>  (1283) 
A4855a,A0556a

>  <distance_score>  (1283) 
1.347624

>  <inspiration_score>  (1283) 
None

$$$$
P498928
     RDKit          3D

 21 23  0  0  0  0  0  0  0  0999 V2000
   11.7270   14.4622   18.5620 C   0  0  0  0  0  0  0  0  0  0  0  0
   10.8983   14.9926   19.6363 C   0  0  0  0  0  0  0  0  0  0  0  0
    9.8845   15.8437   19.3011 O   0  0  0  0  0  0  0  0  0  0  0  0
    9.3975   16.2404   20.5030 C   0  0  0  0  0  0  0  0  0  0  0  0
    9.9413   15.6430   21.5355 N   0  0  0  0  0  0  0  0  0  0  0  0
   10.9749   14.9234   21.0037 C   0  0  0  0  0  0  0  0  0  0  0  0
   11.9835   14.2590   21.8563 C   0  0  0  0  0  0  0  0  0  0  0  0
   11.3015   13.2318   22.5620 N   0  0  0  0  0  0  0  0  0  0  0  0
   10.6614   13.2361   23.9503 C   0  0  0  0  0  0  0  0  0  0  0  0
   10.6539   14.0569   24.7759 O   0  0  0  0  0  0  0  0  0  0  0  0
    9.9011   11.9903   24.0860 C   0  0  0  0  0  0  0  0  0  0  0  0
   10.2038   10.9263   23.3242 N   0  0  0  0  0  0  0  0  0  0  0  0
    9.3589    9.9696   23.7305 N   0  0  0  0  0  0  0  0  0  0  0  0
    9.4366    8.6821   23.0846 C   0  0  0  0  0  0  0  0  0  0  0  0
    8.4848   10.3887   24.7050 C   0  0  0  0  0  0  0  0  0  0  0  0
    7.4598    9.7418   25.4038 C   0  0  0  0  0  0  0  0  0  0  0  0
    6.7171   10.4890   26.3213 C   0  0  0  0  0  0  0  0  0  0  0  0
    6.9967   11.8332   26.5253 C   0  0  0  0  0  0  0  0  0  0  0  0
    6.2757   12.5199   27.4219 F   0  0  0  0  0  0  0  0  0  0  0  0
    8.0271   12.4752   25.8438 C   0  0  0  0  0  0  0  0  0  0  0  0
    8.7934   11.7293   24.9289 C   0  0  0  0  0  0  0  0  0  0  0  0
  1  2  1  0
  2  3  1  0
  3  4  1  0
  4  5  2  0
  5  6  1  0
  6  7  1  0
  7  8  1  0
  8  9  1  0
  9 10  2  0
  9 11  1  0
 11 12  2  0
 12 13  1  0
 13 14  1  0
 13 15  1  0
 15 16  2  0
 16 17  1  0
 17 18  2  0
 18 19  1  0
 18 20  1  0
 20 21  2  0
  6  2  2  0
 21 11  1  0
 21 15  1  0
M  END
>  <energy_score>  (1284) 
-11.772528

>  <inchikey>  (1284) 
None

>  <smiles>  (1284) 
None

>  <ref_pdb>  (1284) 
A2290a

>  <alias>  (1284) 
None

>  <HIPPO Pose ID>  (1284) 
498928

>  <name>  (1284) 
P498928

>  <HIPPO Compound ID>  (1284) 
299198

>  <ref_mols>  (1284) 
A3403a,A2290a

>  <distance_score>  (1284) 
0.778772

>  <inspiration_score>  (1284) 
None

$$$$
P498929
     RDKit          3D

 21 23  0  0  0  0  0  0  0  0999 V2000
   12.8309   14.4182   21.4714 C   0  0  0  0  0  0  0  0  0  0  0  0
   11.4327   14.7413   21.9077 C   0  0  2  0  0  0  0  0  0  0  0  0
   10.8382   13.6052   22.5329 N   0  0  0  0  0  0  0  0  0  0  0  0
   10.3098   13.4167   23.9538 C   0  0  0  0  0  0  0  0  0  0  0  0
   10.3414   14.1310   24.8718 O   0  0  0  0  0  0  0  0  0  0  0  0
    9.6670   12.1071   24.0449 C   0  0  0  0  0  0  0  0  0  0  0  0
   10.0264   11.0894   23.2445 N   0  0  0  0  0  0  0  0  0  0  0  0
    9.3046   10.0497   23.6949 N   0  0  0  0  0  0  0  0  0  0  0  0
    9.4990    8.7609   23.0751 C   0  0  0  0  0  0  0  0  0  0  0  0
    8.4206   10.3870   24.6920 C   0  0  0  0  0  0  0  0  0  0  0  0
    7.4654    9.6561   25.4032 C   0  0  0  0  0  0  0  0  0  0  0  0
    6.6947   10.3286   26.3551 C   0  0  0  0  0  0  0  0  0  0  0  0
    6.8873   11.6827   26.5884 C   0  0  0  0  0  0  0  0  0  0  0  0
    6.1465   12.2950   27.5215 F   0  0  0  0  0  0  0  0  0  0  0  0
    7.8482   12.4096   25.8937 C   0  0  0  0  0  0  0  0  0  0  0  0
    8.6273   11.7411   24.9310 C   0  0  0  0  0  0  0  0  0  0  0  0
   10.5625   15.2729   20.8357 C   0  0  0  0  0  0  0  0  0  0  0  0
   10.5849   15.0840   19.4741 C   0  0  0  0  0  0  0  0  0  0  0  0
    9.7708   16.0189   18.9062 O   0  0  0  0  0  0  0  0  0  0  0  0
    9.2937   16.7255   19.9586 C   0  0  0  0  0  0  0  0  0  0  0  0
    9.6580   16.2626   21.1251 N   0  0  0  0  0  0  0  0  0  0  0  0
  2  1  1  6
  2  3  1  0
  3  4  1  0
  4  5  2  0
  4  6  1  0
  6  7  2  0
  7  8  1  0
  8  9  1  0
  8 10  1  0
 10 11  2  0
 11 12  1  0
 12 13  2  0
 13 14  1  0
 13 15  1  0
 15 16  2  0
  2 17  1  0
 17 18  2  0
 18 19  1  0
 19 20  1  0
 20 21  2  0
 16  6  1  0
 21 17  1  0
 16 10  1  0
M  END
>  <energy_score>  (1285) 
-29.212369

>  <inchikey>  (1285) 
None

>  <smiles>  (1285) 
None

>  <ref_pdb>  (1285) 
A2290a

>  <alias>  (1285) 
None

>  <HIPPO Pose ID>  (1285) 
498929

>  <name>  (1285) 
P498929

>  <HIPPO Compound ID>  (1285) 
299199

>  <ref_mols>  (1285) 
A3403a,A2290a

>  <distance_score>  (1285) 
0.857953

>  <inspiration_score>  (1285) 
None

$$$$
P498930
     RDKit          3D

 21 23  0  0  0  0  0  0  0  0999 V2000
   12.8230   14.8776   22.1425 C   0  0  0  0  0  0  0  0  0  0  0  0
   11.8618   14.0453   21.3471 C   0  0  1  0  0  0  0  0  0  0  0  0
   11.1968   13.0827   22.1687 N   0  0  0  0  0  0  0  0  0  0  0  0
   10.5926   13.2173   23.5726 C   0  0  0  0  0  0  0  0  0  0  0  0
   10.6063   14.1124   24.3188 O   0  0  0  0  0  0  0  0  0  0  0  0
    9.8632   11.9783   23.8590 C   0  0  0  0  0  0  0  0  0  0  0  0
   10.1386   10.8675   23.1582 N   0  0  0  0  0  0  0  0  0  0  0  0
    9.3291    9.9348   23.6687 N   0  0  0  0  0  0  0  0  0  0  0  0
    9.3780    8.6183   23.0859 C   0  0  0  0  0  0  0  0  0  0  0  0
    8.4984   10.4072   24.6553 C   0  0  0  0  0  0  0  0  0  0  0  0
    7.4960    9.8009   25.4217 C   0  0  0  0  0  0  0  0  0  0  0  0
    6.7979   10.5970   26.3327 C   0  0  0  0  0  0  0  0  0  0  0  0
    7.1003   11.9455   26.4664 C   0  0  0  0  0  0  0  0  0  0  0  0
    6.4264   12.6784   27.3633 F   0  0  0  0  0  0  0  0  0  0  0  0
    8.1018   12.5490   25.7089 C   0  0  0  0  0  0  0  0  0  0  0  0
    8.8180   11.7581   24.7914 C   0  0  0  0  0  0  0  0  0  0  0  0
   10.8420   14.8767   20.6632 C   0  0  0  0  0  0  0  0  0  0  0  0
   10.6842   15.1082   19.3200 C   0  0  0  0  0  0  0  0  0  0  0  0
    9.7436   16.0794   19.1616 O   0  0  0  0  0  0  0  0  0  0  0  0
    9.3700   16.3795   20.4319 C   0  0  0  0  0  0  0  0  0  0  0  0
    9.9433   15.6493   21.3586 N   0  0  0  0  0  0  0  0  0  0  0  0
  2  1  1  1
  2  3  1  0
  3  4  1  0
  4  5  2  0
  4  6  1  0
  6  7  2  0
  7  8  1  0
  8  9  1  0
  8 10  1  0
 10 11  2  0
 11 12  1  0
 12 13  2  0
 13 14  1  0
 13 15  1  0
 15 16  2  0
  2 17  1  0
 17 18  2  0
 18 19  1  0
 19 20  1  0
 20 21  2  0
 16  6  1  0
 21 17  1  0
 16 10  1  0
M  END
>  <energy_score>  (1286) 
-33.681275

>  <inchikey>  (1286) 
None

>  <smiles>  (1286) 
None

>  <ref_pdb>  (1286) 
A2290a

>  <alias>  (1286) 
None

>  <HIPPO Pose ID>  (1286) 
498930

>  <name>  (1286) 
P498930

>  <HIPPO Compound ID>  (1286) 
299199

>  <ref_mols>  (1286) 
A3403a,A2290a

>  <distance_score>  (1286) 
0.786597

>  <inspiration_score>  (1286) 
None

$$$$
P498931
     RDKit          3D

 21 23  0  0  0  0  0  0  0  0999 V2000
    9.4544    8.6756   23.0563 C   0  0  0  0  0  0  0  0  0  0  0  0
    9.4074    9.9898   23.6487 N   0  0  0  0  0  0  0  0  0  0  0  0
   10.2503   10.9206   23.1819 N   0  0  0  0  0  0  0  0  0  0  0  0
    9.9888   12.0156   23.9134 C   0  0  0  0  0  0  0  0  0  0  0  0
   10.7727   13.2430   23.7092 C   0  0  0  0  0  0  0  0  0  0  0  0
   10.8113   14.0841   24.5142 O   0  0  0  0  0  0  0  0  0  0  0  0
   11.3685   13.1895   22.2981 N   0  0  0  0  0  0  0  0  0  0  0  0
   12.0532   14.1859   21.5432 C   0  0  0  0  0  0  0  0  0  0  0  0
   11.0419   14.9079   20.7419 C   0  0  0  0  0  0  0  0  0  0  0  0
   10.8381   14.9174   19.3842 C   0  0  0  0  0  0  0  0  0  0  0  0
    9.8826   15.8473   19.1042 O   0  0  0  0  0  0  0  0  0  0  0  0
    9.5632   16.3763   20.3195 C   0  0  0  0  0  0  0  0  0  0  0  0
    8.5580   17.7479   20.5248 Cl  0  0  0  0  0  0  0  0  0  0  0  0
   10.1657   15.7853   21.3284 N   0  0  0  0  0  0  0  0  0  0  0  0
    8.9051   11.7944   24.8043 C   0  0  0  0  0  0  0  0  0  0  0  0
    8.1776   12.5752   25.7221 C   0  0  0  0  0  0  0  0  0  0  0  0
    7.1531   11.9689   26.4469 C   0  0  0  0  0  0  0  0  0  0  0  0
    6.4717   12.6915   27.3464 F   0  0  0  0  0  0  0  0  0  0  0  0
    6.8399   10.6260   26.2836 C   0  0  0  0  0  0  0  0  0  0  0  0
    7.5462    9.8398   25.3705 C   0  0  0  0  0  0  0  0  0  0  0  0
    8.5664   10.4523   24.6313 C   0  0  0  0  0  0  0  0  0  0  0  0
  1  2  1  0
  2  3  1  0
  3  4  2  0
  4  5  1  0
  5  6  2  0
  5  7  1  0
  7  8  1  0
  8  9  1  0
  9 10  2  0
 10 11  1  0
 11 12  1  0
 12 13  1  0
 12 14  2  0
  4 15  1  0
 15 16  2  0
 16 17  1  0
 17 18  1  0
 17 19  2  0
 19 20  1  0
 20 21  2  0
 21  2  1  0
 14  9  1  0
 21 15  1  0
M  END
>  <energy_score>  (1287) 
-7.684871

>  <inchikey>  (1287) 
None

>  <smiles>  (1287) 
None

>  <ref_pdb>  (1287) 
A2290a

>  <alias>  (1287) 
None

>  <HIPPO Pose ID>  (1287) 
498931

>  <name>  (1287) 
P498931

>  <HIPPO Compound ID>  (1287) 
299200

>  <ref_mols>  (1287) 
A3403a,A2290a

>  <distance_score>  (1287) 
0.681581

>  <inspiration_score>  (1287) 
None

$$$$
P498932
     RDKit          3D

 21 23  0  0  0  0  0  0  0  0999 V2000
    8.6292   17.4348   20.6216 C   0  0  0  0  0  0  0  0  0  0  0  0
    9.5884   16.3280   20.4767 C   0  0  0  0  0  0  0  0  0  0  0  0
   10.2359   15.6946   21.4277 N   0  0  0  0  0  0  0  0  0  0  0  0
   11.1002   14.8697   20.7617 C   0  0  0  0  0  0  0  0  0  0  0  0
   12.1243   14.1066   21.5035 C   0  0  0  0  0  0  0  0  0  0  0  0
   11.4287   13.1263   22.2722 N   0  0  0  0  0  0  0  0  0  0  0  0
   10.8287   13.2063   23.6811 C   0  0  0  0  0  0  0  0  0  0  0  0
   10.8717   14.0596   24.4736 O   0  0  0  0  0  0  0  0  0  0  0  0
   10.0289   11.9902   23.8962 C   0  0  0  0  0  0  0  0  0  0  0  0
   10.2774   10.8877   23.1722 N   0  0  0  0  0  0  0  0  0  0  0  0
    9.4263    9.9686   23.6421 N   0  0  0  0  0  0  0  0  0  0  0  0
    9.4600    8.6535   23.0510 C   0  0  0  0  0  0  0  0  0  0  0  0
    8.5876   10.4450   24.6199 C   0  0  0  0  0  0  0  0  0  0  0  0
    7.5632    9.8452   25.3639 C   0  0  0  0  0  0  0  0  0  0  0  0
    6.8632   10.6437   26.2709 C   0  0  0  0  0  0  0  0  0  0  0  0
    7.1854   11.9863   26.4223 C   0  0  0  0  0  0  0  0  0  0  0  0
    6.5070   12.7208   27.3142 F   0  0  0  0  0  0  0  0  0  0  0  0
    8.2152   12.5794   25.6938 C   0  0  0  0  0  0  0  0  0  0  0  0
    8.9387   11.7858   24.7841 C   0  0  0  0  0  0  0  0  0  0  0  0
   10.8443   14.9481   19.4142 C   0  0  0  0  0  0  0  0  0  0  0  0
    9.8687   15.8827   19.2191 O   0  0  0  0  0  0  0  0  0  0  0  0
  1  2  1  0
  2  3  2  0
  3  4  1  0
  4  5  1  0
  5  6  1  0
  6  7  1  0
  7  8  2  0
  7  9  1  0
  9 10  2  0
 10 11  1  0
 11 12  1  0
 11 13  1  0
 13 14  2  0
 14 15  1  0
 15 16  2  0
 16 17  1  0
 16 18  1  0
 18 19  2  0
  4 20  2  0
 20 21  1  0
 21  2  1  0
 19  9  1  0
 19 13  1  0
M  END
>  <energy_score>  (1288) 
-10.983774

>  <inchikey>  (1288) 
None

>  <smiles>  (1288) 
None

>  <ref_pdb>  (1288) 
A2290a

>  <alias>  (1288) 
None

>  <HIPPO Pose ID>  (1288) 
498932

>  <name>  (1288) 
P498932

>  <HIPPO Compound ID>  (1288) 
299201

>  <ref_mols>  (1288) 
A3403a,A2290a

>  <distance_score>  (1288) 
0.790723

>  <inspiration_score>  (1288) 
None

$$$$
P498933
     RDKit          3D

 21 23  0  0  0  0  0  0  0  0999 V2000
    9.4698    8.6817   23.0515 C   0  0  0  0  0  0  0  0  0  0  0  0
    9.4077    9.9932   23.6483 N   0  0  0  0  0  0  0  0  0  0  0  0
   10.2391   10.9374   23.1852 N   0  0  0  0  0  0  0  0  0  0  0  0
    9.9600   12.0250   23.9217 C   0  0  0  0  0  0  0  0  0  0  0  0
   10.7257   13.2652   23.7308 C   0  0  0  0  0  0  0  0  0  0  0  0
   10.7578   14.0930   24.5496 O   0  0  0  0  0  0  0  0  0  0  0  0
   11.3221   13.2395   22.3198 N   0  0  0  0  0  0  0  0  0  0  0  0
   11.9994   14.2530   21.5820 C   0  0  0  0  0  0  0  0  0  0  0  0
   11.0026   14.9439   20.7355 C   0  0  0  0  0  0  0  0  0  0  0  0
   10.8359   14.8998   19.3741 C   0  0  0  0  0  0  0  0  0  0  0  0
    9.8990   15.8244   19.0303 O   0  0  0  0  0  0  0  0  0  0  0  0
    9.5547   16.4148   20.2100 C   0  0  0  0  0  0  0  0  0  0  0  0
    8.4678   17.9811   20.2977 Br  0  0  0  0  0  0  0  0  0  0  0  0
   10.1228   15.8595   21.2601 N   0  0  0  0  0  0  0  0  0  0  0  0
    8.8783   11.7850   24.8099 C   0  0  0  0  0  0  0  0  0  0  0  0
    8.1376   12.5539   25.7289 C   0  0  0  0  0  0  0  0  0  0  0  0
    7.1146   11.9346   26.4521 C   0  0  0  0  0  0  0  0  0  0  0  0
    6.1226   12.9438   27.7070 Br  0  0  0  0  0  0  0  0  0  0  0  0
    6.8254   10.5839   26.2807 C   0  0  0  0  0  0  0  0  0  0  0  0
    7.5484    9.8126   25.3669 C   0  0  0  0  0  0  0  0  0  0  0  0
    8.5598   10.4404   24.6314 C   0  0  0  0  0  0  0  0  0  0  0  0
  1  2  1  0
  2  3  1  0
  3  4  2  0
  4  5  1  0
  5  6  2  0
  5  7  1  0
  7  8  1  0
  8  9  1  0
  9 10  2  0
 10 11  1  0
 11 12  1  0
 12 13  1  0
 12 14  2  0
  4 15  1  0
 15 16  2  0
 16 17  1  0
 17 18  1  0
 17 19  2  0
 19 20  1  0
 20 21  2  0
 21  2  1  0
 14  9  1  0
 21 15  1  0
M  END
>  <energy_score>  (1289) 
-21.392561

>  <inchikey>  (1289) 
None

>  <smiles>  (1289) 
None

>  <ref_pdb>  (1289) 
A2290a

>  <alias>  (1289) 
None

>  <HIPPO Pose ID>  (1289) 
498933

>  <name>  (1289) 
P498933

>  <HIPPO Compound ID>  (1289) 
299203

>  <ref_mols>  (1289) 
A3403a,A2290a

>  <distance_score>  (1289) 
0.669591

>  <inspiration_score>  (1289) 
None

$$$$
P498934
     RDKit          3D

 21 23  0  0  0  0  0  0  0  0999 V2000
   11.7273   14.4622   18.5611 C   0  0  0  0  0  0  0  0  0  0  0  0
   10.8994   14.9925   19.6362 C   0  0  0  0  0  0  0  0  0  0  0  0
    9.8848   15.8431   19.3019 O   0  0  0  0  0  0  0  0  0  0  0  0
    9.3979   16.2387   20.5041 C   0  0  0  0  0  0  0  0  0  0  0  0
    9.9439   15.6426   21.5362 N   0  0  0  0  0  0  0  0  0  0  0  0
   10.9773   14.9235   21.0036 C   0  0  0  0  0  0  0  0  0  0  0  0
   11.9866   14.2594   21.8555 C   0  0  0  0  0  0  0  0  0  0  0  0
   11.3056   13.2309   22.5601 N   0  0  0  0  0  0  0  0  0  0  0  0
   10.6636   13.2340   23.9475 C   0  0  0  0  0  0  0  0  0  0  0  0
   10.6534   14.0547   24.7732 O   0  0  0  0  0  0  0  0  0  0  0  0
    9.9054   11.9866   24.0820 C   0  0  0  0  0  0  0  0  0  0  0  0
   10.2103   10.9232   23.3201 N   0  0  0  0  0  0  0  0  0  0  0  0
    9.3675    9.9655   23.7273 N   0  0  0  0  0  0  0  0  0  0  0  0
    9.4467    8.6782   23.0817 C   0  0  0  0  0  0  0  0  0  0  0  0
    8.4922   10.3831   24.7004 C   0  0  0  0  0  0  0  0  0  0  0  0
    7.4682    9.7353   25.3973 C   0  0  0  0  0  0  0  0  0  0  0  0
    6.7179   10.4803   26.3114 C   0  0  0  0  0  0  0  0  0  0  0  0
    6.9892   11.8295   26.5175 C   0  0  0  0  0  0  0  0  0  0  0  0
    5.9535   12.8040   27.7638 Br  0  0  0  0  0  0  0  0  0  0  0  0
    8.0254   12.4699   25.8354 C   0  0  0  0  0  0  0  0  0  0  0  0
    8.7967   11.7235   24.9235 C   0  0  0  0  0  0  0  0  0  0  0  0
  1  2  1  0
  2  3  1  0
  3  4  1  0
  4  5  2  0
  5  6  1  0
  6  7  1  0
  7  8  1  0
  8  9  1  0
  9 10  2  0
  9 11  1  0
 11 12  2  0
 12 13  1  0
 13 14  1  0
 13 15  1  0
 15 16  2  0
 16 17  1  0
 17 18  2  0
 18 19  1  0
 18 20  1  0
 20 21  2  0
  6  2  2  0
 21 11  1  0
 21 15  1  0
M  END
>  <energy_score>  (1290) 
-16.198102

>  <inchikey>  (1290) 
None

>  <smiles>  (1290) 
None

>  <ref_pdb>  (1290) 
A2290a

>  <alias>  (1290) 
None

>  <HIPPO Pose ID>  (1290) 
498934

>  <name>  (1290) 
P498934

>  <HIPPO Compound ID>  (1290) 
299204

>  <ref_mols>  (1290) 
A3403a,A2290a

>  <distance_score>  (1290) 
0.776483

>  <inspiration_score>  (1290) 
None

$$$$
P498935
     RDKit          3D

 21 23  0  0  0  0  0  0  0  0999 V2000
   12.8331   14.4207   21.4734 C   0  0  0  0  0  0  0  0  0  0  0  0
   11.4346   14.7429   21.9097 C   0  0  2  0  0  0  0  0  0  0  0  0
   10.8420   13.6067   22.5360 N   0  0  0  0  0  0  0  0  0  0  0  0
   10.3281   13.4140   23.9620 C   0  0  0  0  0  0  0  0  0  0  0  0
   10.3729   14.1240   24.8830 O   0  0  0  0  0  0  0  0  0  0  0  0
    9.6820   12.1058   24.0528 C   0  0  0  0  0  0  0  0  0  0  0  0
   10.0423   11.0865   23.2542 N   0  0  0  0  0  0  0  0  0  0  0  0
    9.3094   10.0514   23.6987 N   0  0  0  0  0  0  0  0  0  0  0  0
    9.4948    8.7629   23.0765 C   0  0  0  0  0  0  0  0  0  0  0  0
    8.4267   10.3912   24.6951 C   0  0  0  0  0  0  0  0  0  0  0  0
    7.4651    9.6652   25.4005 C   0  0  0  0  0  0  0  0  0  0  0  0
    6.6889   10.3393   26.3478 C   0  0  0  0  0  0  0  0  0  0  0  0
    6.8825   11.6957   26.5868 C   0  0  0  0  0  0  0  0  0  0  0  0
    5.8225   12.5703   27.8852 Br  0  0  0  0  0  0  0  0  0  0  0  0
    7.8561   12.4157   25.8947 C   0  0  0  0  0  0  0  0  0  0  0  0
    8.6382   11.7430   24.9357 C   0  0  0  0  0  0  0  0  0  0  0  0
   10.5646   15.2733   20.8370 C   0  0  0  0  0  0  0  0  0  0  0  0
   10.5854   15.0806   19.4759 C   0  0  0  0  0  0  0  0  0  0  0  0
    9.7712   16.0141   18.9060 O   0  0  0  0  0  0  0  0  0  0  0  0
    9.2957   16.7243   19.9567 C   0  0  0  0  0  0  0  0  0  0  0  0
    9.6632   16.2664   21.1241 N   0  0  0  0  0  0  0  0  0  0  0  0
  2  1  1  6
  2  3  1  0
  3  4  1  0
  4  5  2  0
  4  6  1  0
  6  7  2  0
  7  8  1  0
  8  9  1  0
  8 10  1  0
 10 11  2  0
 11 12  1  0
 12 13  2  0
 13 14  1  0
 13 15  1  0
 15 16  2  0
  2 17  1  0
 17 18  2  0
 18 19  1  0
 19 20  1  0
 20 21  2  0
 16  6  1  0
 21 17  1  0
 16 10  1  0
M  END
>  <energy_score>  (1291) 
-34.015274

>  <inchikey>  (1291) 
None

>  <smiles>  (1291) 
None

>  <ref_pdb>  (1291) 
A2290a

>  <alias>  (1291) 
None

>  <HIPPO Pose ID>  (1291) 
498935

>  <name>  (1291) 
P498935

>  <HIPPO Compound ID>  (1291) 
299205

>  <ref_mols>  (1291) 
A3403a,A2290a

>  <distance_score>  (1291) 
0.768377

>  <inspiration_score>  (1291) 
None

$$$$
P498936
     RDKit          3D

 21 23  0  0  0  0  0  0  0  0999 V2000
   12.8009   14.8659   22.1418 C   0  0  0  0  0  0  0  0  0  0  0  0
   11.8254   14.0514   21.3426 C   0  0  1  0  0  0  0  0  0  0  0  0
   11.1232   13.1115   22.1610 N   0  0  0  0  0  0  0  0  0  0  0  0
   10.5684   13.2480   23.5830 C   0  0  0  0  0  0  0  0  0  0  0  0
   10.6593   14.1210   24.3491 O   0  0  0  0  0  0  0  0  0  0  0  0
    9.8114   12.0310   23.8851 C   0  0  0  0  0  0  0  0  0  0  0  0
   10.0697   10.8924   23.2190 N   0  0  0  0  0  0  0  0  0  0  0  0
    9.2739    9.9881   23.7996 N   0  0  0  0  0  0  0  0  0  0  0  0
    9.4364    8.6082   23.4285 C   0  0  0  0  0  0  0  0  0  0  0  0
    8.4267   10.5122   24.7440 C   0  0  0  0  0  0  0  0  0  0  0  0
    7.4141    9.9473   25.5296 C   0  0  0  0  0  0  0  0  0  0  0  0
    6.7240   10.7863   26.4083 C   0  0  0  0  0  0  0  0  0  0  0  0
    7.0433   12.1385   26.4955 C   0  0  0  0  0  0  0  0  0  0  0  0
    6.0965   13.2388   27.7081 Br  0  0  0  0  0  0  0  0  0  0  0  0
    8.0576   12.6962   25.7128 C   0  0  0  0  0  0  0  0  0  0  0  0
    8.7611   11.8611   24.8239 C   0  0  0  0  0  0  0  0  0  0  0  0
   10.8246   14.8994   20.6525 C   0  0  0  0  0  0  0  0  0  0  0  0
   10.6741   15.1314   19.3089 C   0  0  0  0  0  0  0  0  0  0  0  0
    9.7415   16.1094   19.1464 O   0  0  0  0  0  0  0  0  0  0  0  0
    9.3640   16.4126   20.4148 C   0  0  0  0  0  0  0  0  0  0  0  0
    9.9289   15.6788   21.3441 N   0  0  0  0  0  0  0  0  0  0  0  0
  2  1  1  1
  2  3  1  0
  3  4  1  0
  4  5  2  0
  4  6  1  0
  6  7  2  0
  7  8  1  0
  8  9  1  0
  8 10  1  0
 10 11  2  0
 11 12  1  0
 12 13  2  0
 13 14  1  0
 13 15  1  0
 15 16  2  0
  2 17  1  0
 17 18  2  0
 18 19  1  0
 19 20  1  0
 20 21  2  0
 16  6  1  0
 21 17  1  0
 16 10  1  0
M  END
>  <energy_score>  (1292) 
-31.193474

>  <inchikey>  (1292) 
None

>  <smiles>  (1292) 
None

>  <ref_pdb>  (1292) 
A2290a

>  <alias>  (1292) 
None

>  <HIPPO Pose ID>  (1292) 
498936

>  <name>  (1292) 
P498936

>  <HIPPO Compound ID>  (1292) 
299205

>  <ref_mols>  (1292) 
A3403a,A2290a

>  <distance_score>  (1292) 
0.711622

>  <inspiration_score>  (1292) 
None

$$$$
P498937
     RDKit          3D

 21 23  0  0  0  0  0  0  0  0999 V2000
    9.4602    8.6743   23.0549 C   0  0  0  0  0  0  0  0  0  0  0  0
    9.4104    9.9859   23.6528 N   0  0  0  0  0  0  0  0  0  0  0  0
   10.2534   10.9200   23.1923 N   0  0  0  0  0  0  0  0  0  0  0  0
    9.9793   12.0140   23.9214 C   0  0  0  0  0  0  0  0  0  0  0  0
   10.7556   13.2446   23.7169 C   0  0  0  0  0  0  0  0  0  0  0  0
   10.8461   14.0607   24.5432 O   0  0  0  0  0  0  0  0  0  0  0  0
   11.3137   13.2083   22.2907 N   0  0  0  0  0  0  0  0  0  0  0  0
   12.0168   14.1984   21.5462 C   0  0  0  0  0  0  0  0  0  0  0  0
   11.0183   14.9256   20.7353 C   0  0  0  0  0  0  0  0  0  0  0  0
   10.8234   14.9318   19.3766 C   0  0  0  0  0  0  0  0  0  0  0  0
    9.8753   15.8667   19.0875 O   0  0  0  0  0  0  0  0  0  0  0  0
    9.5507   16.4013   20.2991 C   0  0  0  0  0  0  0  0  0  0  0  0
    8.5473   17.7760   20.4942 Cl  0  0  0  0  0  0  0  0  0  0  0  0
   10.1447   15.8114   21.3133 N   0  0  0  0  0  0  0  0  0  0  0  0
    8.8960   11.7861   24.8097 C   0  0  0  0  0  0  0  0  0  0  0  0
    8.1604   12.5645   25.7245 C   0  0  0  0  0  0  0  0  0  0  0  0
    7.1309   11.9559   26.4475 C   0  0  0  0  0  0  0  0  0  0  0  0
    6.1454   12.9769   27.6981 Br  0  0  0  0  0  0  0  0  0  0  0  0
    6.8295   10.6072   26.2792 C   0  0  0  0  0  0  0  0  0  0  0  0
    7.5467    9.8266   25.3688 C   0  0  0  0  0  0  0  0  0  0  0  0
    8.5655   10.4435   24.6341 C   0  0  0  0  0  0  0  0  0  0  0  0
  1  2  1  0
  2  3  1  0
  3  4  2  0
  4  5  1  0
  5  6  2  0
  5  7  1  0
  7  8  1  0
  8  9  1  0
  9 10  2  0
 10 11  1  0
 11 12  1  0
 12 13  1  0
 12 14  2  0
  4 15  1  0
 15 16  2  0
 16 17  1  0
 17 18  1  0
 17 19  2  0
 19 20  1  0
 20 21  2  0
 21  2  1  0
 14  9  1  0
 21 15  1  0
M  END
>  <energy_score>  (1293) 
-4.708552

>  <inchikey>  (1293) 
None

>  <smiles>  (1293) 
None

>  <ref_pdb>  (1293) 
A2290a

>  <alias>  (1293) 
None

>  <HIPPO Pose ID>  (1293) 
498937

>  <name>  (1293) 
P498937

>  <HIPPO Compound ID>  (1293) 
299206

>  <ref_mols>  (1293) 
A3403a,A2290a

>  <distance_score>  (1293) 
0.6766

>  <inspiration_score>  (1293) 
None

$$$$
P498938
     RDKit          3D

 21 23  0  0  0  0  0  0  0  0999 V2000
    8.6256   17.4495   20.6106 C   0  0  0  0  0  0  0  0  0  0  0  0
    9.5842   16.3422   20.4683 C   0  0  0  0  0  0  0  0  0  0  0  0
   10.2278   15.7093   21.4219 N   0  0  0  0  0  0  0  0  0  0  0  0
   11.0879   14.8771   20.7597 C   0  0  0  0  0  0  0  0  0  0  0  0
   12.1005   14.1061   21.5072 C   0  0  0  0  0  0  0  0  0  0  0  0
   11.3879   13.1336   22.2684 N   0  0  0  0  0  0  0  0  0  0  0  0
   10.8207   13.2017   23.6907 C   0  0  0  0  0  0  0  0  0  0  0  0
   10.9097   14.0347   24.5008 O   0  0  0  0  0  0  0  0  0  0  0  0
   10.0236   11.9853   23.9060 C   0  0  0  0  0  0  0  0  0  0  0  0
   10.2840   10.8821   23.1868 N   0  0  0  0  0  0  0  0  0  0  0  0
    9.4272    9.9632   23.6464 N   0  0  0  0  0  0  0  0  0  0  0  0
    9.4601    8.6513   23.0482 C   0  0  0  0  0  0  0  0  0  0  0  0
    8.5858   10.4366   24.6231 C   0  0  0  0  0  0  0  0  0  0  0  0
    7.5606    9.8348   25.3619 C   0  0  0  0  0  0  0  0  0  0  0  0
    6.8514   10.6295   26.2663 C   0  0  0  0  0  0  0  0  0  0  0  0
    7.1652   11.9772   26.4226 C   0  0  0  0  0  0  0  0  0  0  0  0
    6.1874   13.0177   27.6631 Br  0  0  0  0  0  0  0  0  0  0  0  0
    8.2016   12.5702   25.6962 C   0  0  0  0  0  0  0  0  0  0  0  0
    8.9321   11.7772   24.7901 C   0  0  0  0  0  0  0  0  0  0  0  0
   10.8364   14.9547   19.4114 C   0  0  0  0  0  0  0  0  0  0  0  0
    9.8661   15.8940   19.2122 O   0  0  0  0  0  0  0  0  0  0  0  0
  1  2  1  0
  2  3  2  0
  3  4  1  0
  4  5  1  0
  5  6  1  0
  6  7  1  0
  7  8  2  0
  7  9  1  0
  9 10  2  0
 10 11  1  0
 11 12  1  0
 11 13  1  0
 13 14  2  0
 14 15  1  0
 15 16  2  0
 16 17  1  0
 16 18  1  0
 18 19  2  0
  4 20  2  0
 20 21  1  0
 21  2  1  0
 19  9  1  0
 19 13  1  0
M  END
>  <energy_score>  (1294) 
-9.019127

>  <inchikey>  (1294) 
None

>  <smiles>  (1294) 
None

>  <ref_pdb>  (1294) 
A2290a

>  <alias>  (1294) 
None

>  <HIPPO Pose ID>  (1294) 
498938

>  <name>  (1294) 
P498938

>  <HIPPO Compound ID>  (1294) 
299207

>  <ref_mols>  (1294) 
A3403a,A2290a

>  <distance_score>  (1294) 
0.699491

>  <inspiration_score>  (1294) 
None

$$$$
P498939
     RDKit          3D

 21 23  0  0  0  0  0  0  0  0999 V2000
    9.4744    8.6790   23.0469 C   0  0  0  0  0  0  0  0  0  0  0  0
    9.4038    9.9906   23.6433 N   0  0  0  0  0  0  0  0  0  0  0  0
   10.2259   10.9399   23.1764 N   0  0  0  0  0  0  0  0  0  0  0  0
    9.9484   12.0250   23.9164 C   0  0  0  0  0  0  0  0  0  0  0  0
   10.7124   13.2662   23.7270 C   0  0  0  0  0  0  0  0  0  0  0  0
   10.7367   14.0955   24.5445 O   0  0  0  0  0  0  0  0  0  0  0  0
   11.3172   13.2404   22.3198 N   0  0  0  0  0  0  0  0  0  0  0  0
   11.9952   14.2553   21.5842 C   0  0  0  0  0  0  0  0  0  0  0  0
   10.9993   14.9452   20.7358 C   0  0  0  0  0  0  0  0  0  0  0  0
   10.8358   14.9015   19.3739 C   0  0  0  0  0  0  0  0  0  0  0  0
    9.8996   15.8264   19.0285 O   0  0  0  0  0  0  0  0  0  0  0  0
    9.5531   16.4166   20.2075 C   0  0  0  0  0  0  0  0  0  0  0  0
    8.4665   17.9834   20.2934 Br  0  0  0  0  0  0  0  0  0  0  0  0
   10.1165   15.8590   21.2590 N   0  0  0  0  0  0  0  0  0  0  0  0
    8.8697   11.7811   24.8069 C   0  0  0  0  0  0  0  0  0  0  0  0
    8.1317   12.5451   25.7305 C   0  0  0  0  0  0  0  0  0  0  0  0
    7.1200   11.9181   26.4551 C   0  0  0  0  0  0  0  0  0  0  0  0
    6.4270   12.6246   27.3583 F   0  0  0  0  0  0  0  0  0  0  0  0
    6.8310   10.5703   26.2872 C   0  0  0  0  0  0  0  0  0  0  0  0
    7.5486    9.8012   25.3683 C   0  0  0  0  0  0  0  0  0  0  0  0
    8.5548   10.4343   24.6281 C   0  0  0  0  0  0  0  0  0  0  0  0
  1  2  1  0
  2  3  1  0
  3  4  2  0
  4  5  1  0
  5  6  2  0
  5  7  1  0
  7  8  1  0
  8  9  1  0
  9 10  2  0
 10 11  1  0
 11 12  1  0
 12 13  1  0
 12 14  2  0
  4 15  1  0
 15 16  2  0
 16 17  1  0
 17 18  1  0
 17 19  2  0
 19 20  1  0
 20 21  2  0
 21  2  1  0
 14  9  1  0
 21 15  1  0
M  END
>  <energy_score>  (1295) 
-3.005925

>  <inchikey>  (1295) 
None

>  <smiles>  (1295) 
None

>  <ref_pdb>  (1295) 
A2290a

>  <alias>  (1295) 
None

>  <HIPPO Pose ID>  (1295) 
498939

>  <name>  (1295) 
P498939

>  <HIPPO Compound ID>  (1295) 
299209

>  <ref_mols>  (1295) 
A3403a,A2290a

>  <distance_score>  (1295) 
0.763583

>  <inspiration_score>  (1295) 
None

$$$$
P498940
     RDKit          3D

 22 24  0  0  0  0  0  0  0  0999 V2000
   13.3199   15.0217   21.4066 C   0  0  0  0  0  0  0  0  0  0  0  0
   12.4321   13.9668   21.9697 C   0  0  0  0  0  0  0  0  0  0  0  0
   11.0537   14.5423   22.1496 C   0  0  2  0  0  0  0  0  0  0  0  0
   10.2920   13.5459   22.7830 N   0  0  0  0  0  0  0  0  0  0  0  0
    9.8653   13.4014   24.2335 C   0  0  0  0  0  0  0  0  0  0  0  0
   10.0052   14.1197   25.1358 O   0  0  0  0  0  0  0  0  0  0  0  0
    9.2939   12.0778   24.3478 C   0  0  0  0  0  0  0  0  0  0  0  0
    9.7094   11.0966   23.5266 N   0  0  0  0  0  0  0  0  0  0  0  0
    9.0133   10.0261   23.9261 N   0  0  0  0  0  0  0  0  0  0  0  0
    9.2366    8.7815   23.2309 C   0  0  0  0  0  0  0  0  0  0  0  0
    8.1196   10.3160   24.9309 C   0  0  0  0  0  0  0  0  0  0  0  0
    7.1586    9.5626   25.5946 C   0  0  0  0  0  0  0  0  0  0  0  0
    6.3730   10.1840   26.5702 C   0  0  0  0  0  0  0  0  0  0  0  0
    6.5487   11.5287   26.8732 C   0  0  0  0  0  0  0  0  0  0  0  0
    5.4700   12.3327   28.2009 Br  0  0  0  0  0  0  0  0  0  0  0  0
    7.5098   12.2883   26.2139 C   0  0  0  0  0  0  0  0  0  0  0  0
    8.2951   11.6601   25.2316 C   0  0  0  0  0  0  0  0  0  0  0  0
   10.3843   15.1091   20.9547 C   0  0  0  0  0  0  0  0  0  0  0  0
   10.6057   14.9216   19.6112 C   0  0  0  0  0  0  0  0  0  0  0  0
    9.9363   15.8941   18.9315 O   0  0  0  0  0  0  0  0  0  0  0  0
    9.3522   16.6353   19.9010 C   0  0  0  0  0  0  0  0  0  0  0  0
    9.5187   16.1668   21.1100 N   0  0  0  0  0  0  0  0  0  0  0  0
  1  2  1  0
  3  2  1  6
  3  4  1  0
  4  5  1  0
  5  6  2  0
  5  7  1  0
  7  8  2  0
  8  9  1  0
  9 10  1  0
  9 11  1  0
 11 12  2  0
 12 13  1  0
 13 14  2  0
 14 15  1  0
 14 16  1  0
 16 17  2  0
  3 18  1  0
 18 19  2  0
 19 20  1  0
 20 21  1  0
 21 22  2  0
 17  7  1  0
 22 18  1  0
 17 11  1  0
M  END
>  <energy_score>  (1296) 
-16.66133

>  <inchikey>  (1296) 
None

>  <smiles>  (1296) 
None

>  <ref_pdb>  (1296) 
A2290a

>  <alias>  (1296) 
None

>  <HIPPO Pose ID>  (1296) 
498940

>  <name>  (1296) 
P498940

>  <HIPPO Compound ID>  (1296) 
299212

>  <ref_mols>  (1296) 
A3403a,A2290a

>  <distance_score>  (1296) 
1.023232

>  <inspiration_score>  (1296) 
None

$$$$
P498941
     RDKit          3D

 22 24  0  0  0  0  0  0  0  0999 V2000
   13.3783   15.1777   21.5202 C   0  0  0  0  0  0  0  0  0  0  0  0
   12.3474   14.5934   22.4218 C   0  0  0  0  0  0  0  0  0  0  0  0
   11.2936   13.9870   21.5429 C   0  0  1  0  0  0  0  0  0  0  0  0
   10.5223   13.0983   22.3186 N   0  0  0  0  0  0  0  0  0  0  0  0
    9.9352   13.2562   23.7180 C   0  0  0  0  0  0  0  0  0  0  0  0
    9.9247   14.1732   24.4328 O   0  0  0  0  0  0  0  0  0  0  0  0
    9.4004   11.9582   24.0669 C   0  0  0  0  0  0  0  0  0  0  0  0
    9.8279   10.8802   23.3909 N   0  0  0  0  0  0  0  0  0  0  0  0
    9.0813    9.8820   23.8597 N   0  0  0  0  0  0  0  0  0  0  0  0
    9.2174    8.6057   23.2069 C   0  0  0  0  0  0  0  0  0  0  0  0
    8.2134   10.2789   24.8499 C   0  0  0  0  0  0  0  0  0  0  0  0
    7.2386    9.6093   25.5840 C   0  0  0  0  0  0  0  0  0  0  0  0
    6.4850   10.3323   26.5135 C   0  0  0  0  0  0  0  0  0  0  0  0
    6.6956   11.6950   26.6917 C   0  0  0  0  0  0  0  0  0  0  0  0
    5.6545   12.6395   27.9559 Br  0  0  0  0  0  0  0  0  0  0  0  0
    7.6575   12.3740   25.9477 C   0  0  0  0  0  0  0  0  0  0  0  0
    8.4218   11.6439   25.0195 C   0  0  0  0  0  0  0  0  0  0  0  0
   10.4619   14.9408   20.7759 C   0  0  0  0  0  0  0  0  0  0  0  0
   10.4916   15.2058   19.4263 C   0  0  0  0  0  0  0  0  0  0  0  0
    9.7050   16.2897   19.1840 O   0  0  0  0  0  0  0  0  0  0  0  0
    9.2229   16.6154   20.4105 C   0  0  0  0  0  0  0  0  0  0  0  0
    9.5908   15.8057   21.3744 N   0  0  0  0  0  0  0  0  0  0  0  0
  1  2  1  0
  3  2  1  1
  3  4  1  0
  4  5  1  0
  5  6  2  0
  5  7  1  0
  7  8  2  0
  8  9  1  0
  9 10  1  0
  9 11  1  0
 11 12  2  0
 12 13  1  0
 13 14  2  0
 14 15  1  0
 14 16  1  0
 16 17  2  0
  3 18  1  0
 18 19  2  0
 19 20  1  0
 20 21  1  0
 21 22  2  0
 17  7  1  0
 22 18  1  0
 17 11  1  0
M  END
>  <energy_score>  (1297) 
-20.021319

>  <inchikey>  (1297) 
None

>  <smiles>  (1297) 
None

>  <ref_pdb>  (1297) 
A2290a

>  <alias>  (1297) 
None

>  <HIPPO Pose ID>  (1297) 
498941

>  <name>  (1297) 
P498941

>  <HIPPO Compound ID>  (1297) 
299212

>  <ref_mols>  (1297) 
A3403a,A2290a

>  <distance_score>  (1297) 
0.884206

>  <inspiration_score>  (1297) 
None

$$$$
P498942
     RDKit          3D

 22 25  0  0  0  0  0  0  0  0999 V2000
    9.3770    8.6624   23.1057 C   0  0  0  0  0  0  0  0  0  0  0  0
    9.2559    9.9633   23.7153 N   0  0  0  0  0  0  0  0  0  0  0  0
    9.9999   10.9589   23.2161 N   0  0  0  0  0  0  0  0  0  0  0  0
    9.6413   12.0342   23.9364 C   0  0  0  0  0  0  0  0  0  0  0  0
   10.2447   13.3312   23.6560 C   0  0  0  0  0  0  0  0  0  0  0  0
   10.3310   14.1685   24.4616 O   0  0  0  0  0  0  0  0  0  0  0  0
   10.7121   13.3039   22.1957 N   0  0  0  0  0  0  0  0  0  0  0  0
   11.2861   14.3070   21.4047 C   0  0  0  0  0  0  0  0  0  0  0  0
   10.3094   15.2474   20.6497 C   0  0  0  0  0  0  0  0  0  0  0  0
   10.2979   15.4777   19.3004 C   0  0  0  0  0  0  0  0  0  0  0  0
    9.5267   16.5750   19.0674 O   0  0  0  0  0  0  0  0  0  0  0  0
    9.0753   16.9117   20.3063 C   0  0  0  0  0  0  0  0  0  0  0  0
    9.4572   16.1034   21.2661 N   0  0  0  0  0  0  0  0  0  0  0  0
   12.5566   13.9444   20.6884 C   0  0  0  0  0  0  0  0  0  0  0  0
   12.6024   14.8807   21.8396 C   0  0  0  0  0  0  0  0  0  0  0  0
    8.6388   11.7286   24.8822 C   0  0  0  0  0  0  0  0  0  0  0  0
    7.8865   12.4605   25.8204 C   0  0  0  0  0  0  0  0  0  0  0  0
    6.9184   11.7892   26.5684 C   0  0  0  0  0  0  0  0  0  0  0  0
    5.9000   12.7443   27.8434 Br  0  0  0  0  0  0  0  0  0  0  0  0
    6.6943   10.4270   26.3960 C   0  0  0  0  0  0  0  0  0  0  0  0
    7.4367    9.6951   25.4647 C   0  0  0  0  0  0  0  0  0  0  0  0
    8.4031   10.3674   24.7142 C   0  0  0  0  0  0  0  0  0  0  0  0
  1  2  1  0
  2  3  1  0
  3  4  2  0
  4  5  1  0
  5  6  2  0
  5  7  1  0
  7  8  1  0
  8  9  1  0
  9 10  2  0
 10 11  1  0
 11 12  1  0
 12 13  2  0
  8 14  1  0
 14 15  1  0
  4 16  1  0
 16 17  2  0
 17 18  1  0
 18 19  1  0
 18 20  2  0
 20 21  1  0
 21 22  2  0
 22  2  1  0
 15  8  1  0
 22 16  1  0
 13  9  1  0
M  END
>  <energy_score>  (1298) 
-36.273534

>  <inchikey>  (1298) 
None

>  <smiles>  (1298) 
None

>  <ref_pdb>  (1298) 
A2290a

>  <alias>  (1298) 
None

>  <HIPPO Pose ID>  (1298) 
498942

>  <name>  (1298) 
P498942

>  <HIPPO Compound ID>  (1298) 
299214

>  <ref_mols>  (1298) 
A3403a,A2290a

>  <distance_score>  (1298) 
0.853638

>  <inspiration_score>  (1298) 
None

$$$$
P498943
     RDKit          3D

 22 24  0  0  0  0  0  0  0  0999 V2000
    7.5196   18.5574   19.2703 C   0  0  0  0  0  0  0  0  0  0  0  0
    8.8227   18.1701   19.8436 C   0  0  0  0  0  0  0  0  0  0  0  0
    9.2937   16.7661   20.0002 C   0  0  0  0  0  0  0  0  0  0  0  0
    9.7266   16.1705   21.0973 N   0  0  0  0  0  0  0  0  0  0  0  0
   10.5942   15.1963   20.6531 C   0  0  0  0  0  0  0  0  0  0  0  0
   11.6034   14.5565   21.5369 C   0  0  0  0  0  0  0  0  0  0  0  0
   11.0276   13.4624   22.2470 N   0  0  0  0  0  0  0  0  0  0  0  0
   10.5046   13.3730   23.6835 C   0  0  0  0  0  0  0  0  0  0  0  0
   10.5284   14.1549   24.5459 O   0  0  0  0  0  0  0  0  0  0  0  0
    9.8360   12.0795   23.8666 C   0  0  0  0  0  0  0  0  0  0  0  0
   10.1677   11.0155   23.1194 N   0  0  0  0  0  0  0  0  0  0  0  0
    9.4112   10.0172   23.6021 N   0  0  0  0  0  0  0  0  0  0  0  0
    9.5474    8.7068   23.0124 C   0  0  0  0  0  0  0  0  0  0  0  0
    8.5492   10.4129   24.5962 C   0  0  0  0  0  0  0  0  0  0  0  0
    7.5832    9.7284   25.3403 C   0  0  0  0  0  0  0  0  0  0  0  0
    6.8327   10.4526   26.2707 C   0  0  0  0  0  0  0  0  0  0  0  0
    7.0534   11.8148   26.4515 C   0  0  0  0  0  0  0  0  0  0  0  0
    6.0250   12.7586   27.7272 Br  0  0  0  0  0  0  0  0  0  0  0  0
    8.0307   12.4920   25.7190 C   0  0  0  0  0  0  0  0  0  0  0  0
    8.7932   11.7706   24.7791 C   0  0  0  0  0  0  0  0  0  0  0  0
   10.5093   15.1363   19.2853 C   0  0  0  0  0  0  0  0  0  0  0  0
    9.6731   16.1236   18.8564 O   0  0  0  0  0  0  0  0  0  0  0  0
  1  2  1  0
  2  3  1  0
  3  4  2  0
  4  5  1  0
  5  6  1  0
  6  7  1  0
  7  8  1  0
  8  9  2  0
  8 10  1  0
 10 11  2  0
 11 12  1  0
 12 13  1  0
 12 14  1  0
 14 15  2  0
 15 16  1  0
 16 17  2  0
 17 18  1  0
 17 19  1  0
 19 20  2  0
  5 21  2  0
 21 22  1  0
 22  3  1  0
 20 10  1  0
 20 14  1  0
M  END
>  <energy_score>  (1299) 
-0.530387

>  <inchikey>  (1299) 
None

>  <smiles>  (1299) 
None

>  <ref_pdb>  (1299) 
A2290a

>  <alias>  (1299) 
None

>  <HIPPO Pose ID>  (1299) 
498943

>  <name>  (1299) 
P498943

>  <HIPPO Compound ID>  (1299) 
299215

>  <ref_mols>  (1299) 
A3403a,A2290a

>  <distance_score>  (1299) 
0.67175

>  <inspiration_score>  (1299) 
None

$$$$
P498944
     RDKit          3D

 22 24  0  0  0  0  0  0  0  0999 V2000
    9.7059    8.9711   23.0904 C   0  0  0  0  0  0  0  0  0  0  0  0
    9.3605   10.2050   23.7622 N   0  0  0  0  0  0  0  0  0  0  0  0
    9.8909   11.3684   23.3242 N   0  0  0  0  0  0  0  0  0  0  0  0
    9.2949   12.3004   24.0889 C   0  0  0  0  0  0  0  0  0  0  0  0
    9.2558   13.7238   23.7577 C   0  0  0  0  0  0  0  0  0  0  0  0
    8.9047   14.5029   24.5495 O   0  0  0  0  0  0  0  0  0  0  0  0
    9.6280   13.9050   22.2813 N   0  0  0  0  0  0  0  0  0  0  0  0
    9.5623   14.9866   21.4935 N   0  0  0  0  0  0  0  0  0  0  0  0
   10.2462   15.2875   20.1582 C   0  0  0  0  0  0  0  0  0  0  0  0
   11.0370   14.6786   19.5621 O   0  0  0  0  0  0  0  0  0  0  0  0
    9.6094   16.5135   19.6936 C   0  0  0  0  0  0  0  0  0  0  0  0
    9.6894   17.1109   18.4663 C   0  0  0  0  0  0  0  0  0  0  0  0
    8.8798   18.2051   18.4709 O   0  0  0  0  0  0  0  0  0  0  0  0
    8.3632   18.2424   19.7286 C   0  0  0  0  0  0  0  0  0  0  0  0
    8.7532   17.2570   20.5059 N   0  0  0  0  0  0  0  0  0  0  0  0
    8.4397   11.7286   25.0616 C   0  0  0  0  0  0  0  0  0  0  0  0
    7.5583   12.2414   26.0359 C   0  0  0  0  0  0  0  0  0  0  0  0
    6.6948   11.3657   26.6856 C   0  0  0  0  0  0  0  0  0  0  0  0
    5.4950   12.0248   27.9886 Br  0  0  0  0  0  0  0  0  0  0  0  0
    6.6917   10.0134   26.3731 C   0  0  0  0  0  0  0  0  0  0  0  0
    7.5712    9.4984   25.4143 C   0  0  0  0  0  0  0  0  0  0  0  0
    8.4416   10.3747   24.7707 C   0  0  0  0  0  0  0  0  0  0  0  0
  1  2  1  0
  2  3  1  0
  3  4  2  0
  4  5  1  0
  5  6  2  0
  5  7  1  0
  7  8  1  0
  8  9  1  0
  9 10  2  0
  9 11  1  0
 11 12  2  0
 12 13  1  0
 13 14  1  0
 14 15  2  0
  4 16  1  0
 16 17  2  0
 17 18  1  0
 18 19  1  0
 18 20  2  0
 20 21  1  0
 21 22  2  0
 22  2  1  0
 15 11  1  0
 22 16  1  0
M  END
>  <energy_score>  (1300) 
-16.773705

>  <inchikey>  (1300) 
None

>  <smiles>  (1300) 
None

>  <ref_pdb>  (1300) 
A2290a

>  <alias>  (1300) 
None

>  <HIPPO Pose ID>  (1300) 
498944

>  <name>  (1300) 
P498944

>  <HIPPO Compound ID>  (1300) 
299216

>  <ref_mols>  (1300) 
A3403a,A2290a

>  <distance_score>  (1300) 
1.453453

>  <inspiration_score>  (1300) 
None

$$$$
P498945
     RDKit          3D

 22 24  0  0  0  0  0  0  0  0999 V2000
   12.7652   13.8543   20.1702 C   0  0  0  0  0  0  0  0  0  0  0  0
   12.5775   14.7580   21.3488 C   0  0  0  0  0  0  0  0  0  0  0  0
   11.1274   14.9277   21.7319 C   0  0  2  0  0  0  0  0  0  0  0  0
   10.5958   13.7514   22.3422 N   0  0  0  0  0  0  0  0  0  0  0  0
   10.2171   13.4706   23.7988 C   0  0  0  0  0  0  0  0  0  0  0  0
   10.3479   14.1254   24.7528 O   0  0  0  0  0  0  0  0  0  0  0  0
    9.6208   12.1418   23.9086 C   0  0  0  0  0  0  0  0  0  0  0  0
    9.9907   11.1237   23.1155 N   0  0  0  0  0  0  0  0  0  0  0  0
    9.3286   10.0657   23.6178 N   0  0  0  0  0  0  0  0  0  0  0  0
    9.5636    8.7657   23.0367 C   0  0  0  0  0  0  0  0  0  0  0  0
    8.4524   10.3930   24.6251 C   0  0  0  0  0  0  0  0  0  0  0  0
    7.5345    9.6454   25.3678 C   0  0  0  0  0  0  0  0  0  0  0  0
    6.7661   10.3104   26.3271 C   0  0  0  0  0  0  0  0  0  0  0  0
    6.9297   11.6718   26.5406 C   0  0  0  0  0  0  0  0  0  0  0  0
    6.1950   12.2761   27.4837 F   0  0  0  0  0  0  0  0  0  0  0  0
    7.8536   12.4150   25.8135 C   0  0  0  0  0  0  0  0  0  0  0  0
    8.6229   11.7558   24.8361 C   0  0  0  0  0  0  0  0  0  0  0  0
   10.2066   15.5697   20.7409 C   0  0  0  0  0  0  0  0  0  0  0  0
   10.1831   15.6062   19.3637 C   0  0  0  0  0  0  0  0  0  0  0  0
    9.4209   16.6641   18.9627 O   0  0  0  0  0  0  0  0  0  0  0  0
    8.9408   17.1718   20.1241 C   0  0  0  0  0  0  0  0  0  0  0  0
    9.2966   16.4973   21.1855 N   0  0  0  0  0  0  0  0  0  0  0  0
  1  2  1  0
  3  2  1  6
  3  4  1  0
  4  5  1  0
  5  6  2  0
  5  7  1  0
  7  8  2  0
  8  9  1  0
  9 10  1  0
  9 11  1  0
 11 12  2  0
 12 13  1  0
 13 14  2  0
 14 15  1  0
 14 16  1  0
 16 17  2  0
  3 18  1  0
 18 19  2  0
 19 20  1  0
 20 21  1  0
 21 22  2  0
 17  7  1  0
 22 18  1  0
 17 11  1  0
M  END
>  <energy_score>  (1301) 
-23.28394

>  <inchikey>  (1301) 
None

>  <smiles>  (1301) 
None

>  <ref_pdb>  (1301) 
A2290a

>  <alias>  (1301) 
None

>  <HIPPO Pose ID>  (1301) 
498945

>  <name>  (1301) 
P498945

>  <HIPPO Compound ID>  (1301) 
299219

>  <ref_mols>  (1301) 
A3403a,A2290a

>  <distance_score>  (1301) 
0.849802

>  <inspiration_score>  (1301) 
None

$$$$
P498946
     RDKit          3D

 22 24  0  0  0  0  0  0  0  0999 V2000
   13.3702   15.1729   21.5367 C   0  0  0  0  0  0  0  0  0  0  0  0
   12.3792   14.5538   22.4627 C   0  0  0  0  0  0  0  0  0  0  0  0
   11.3319   13.9142   21.6013 C   0  0  1  0  0  0  0  0  0  0  0  0
   10.5461   13.0522   22.3949 N   0  0  0  0  0  0  0  0  0  0  0  0
    9.9123   13.2686   23.7644 C   0  0  0  0  0  0  0  0  0  0  0  0
    9.8672   14.2178   24.4329 O   0  0  0  0  0  0  0  0  0  0  0  0
    9.3013   12.0078   24.1277 C   0  0  0  0  0  0  0  0  0  0  0  0
    9.6481   10.8948   23.4588 N   0  0  0  0  0  0  0  0  0  0  0  0
    8.9142    9.9428   24.0284 N   0  0  0  0  0  0  0  0  0  0  0  0
    9.1290    8.5909   23.5963 C   0  0  0  0  0  0  0  0  0  0  0  0
    8.0566   10.4066   24.9946 C   0  0  0  0  0  0  0  0  0  0  0  0
    7.0703    9.7902   25.7664 C   0  0  0  0  0  0  0  0  0  0  0  0
    6.3675   10.5761   26.6819 C   0  0  0  0  0  0  0  0  0  0  0  0
    6.6393   11.9313   26.8053 C   0  0  0  0  0  0  0  0  0  0  0  0
    5.9546   12.6542   27.7019 F   0  0  0  0  0  0  0  0  0  0  0  0
    7.6053   12.5535   26.0234 C   0  0  0  0  0  0  0  0  0  0  0  0
    8.3191   11.7678   25.1033 C   0  0  0  0  0  0  0  0  0  0  0  0
   10.5016   14.8558   20.8116 C   0  0  0  0  0  0  0  0  0  0  0  0
   10.5482   15.1224   19.4625 C   0  0  0  0  0  0  0  0  0  0  0  0
    9.7509   16.1971   19.2107 O   0  0  0  0  0  0  0  0  0  0  0  0
    9.2549   16.5226   20.4312 C   0  0  0  0  0  0  0  0  0  0  0  0
    9.6142   15.7139   21.3994 N   0  0  0  0  0  0  0  0  0  0  0  0
  1  2  1  0
  3  2  1  1
  3  4  1  0
  4  5  1  0
  5  6  2  0
  5  7  1  0
  7  8  2  0
  8  9  1  0
  9 10  1  0
  9 11  1  0
 11 12  2  0
 12 13  1  0
 13 14  2  0
 14 15  1  0
 14 16  1  0
 16 17  2  0
  3 18  1  0
 18 19  2  0
 19 20  1  0
 20 21  1  0
 21 22  2  0
 17  7  1  0
 22 18  1  0
 17 11  1  0
M  END
>  <energy_score>  (1302) 
-5.621515

>  <inchikey>  (1302) 
None

>  <smiles>  (1302) 
None

>  <ref_pdb>  (1302) 
A2290a

>  <alias>  (1302) 
None

>  <HIPPO Pose ID>  (1302) 
498946

>  <name>  (1302) 
P498946

>  <HIPPO Compound ID>  (1302) 
299219

>  <ref_mols>  (1302) 
A3403a,A2290a

>  <distance_score>  (1302) 
0.928749

>  <inspiration_score>  (1302) 
None

$$$$
P498947
     RDKit          3D

 22 24  0  0  0  0  0  0  0  0999 V2000
    7.4904   18.5862   19.2641 C   0  0  0  0  0  0  0  0  0  0  0  0
    8.8017   18.2213   19.8305 C   0  0  0  0  0  0  0  0  0  0  0  0
    9.2793   16.8189   19.9841 C   0  0  0  0  0  0  0  0  0  0  0  0
    9.7020   16.2184   21.0822 N   0  0  0  0  0  0  0  0  0  0  0  0
   10.5569   15.2320   20.6413 C   0  0  0  0  0  0  0  0  0  0  0  0
   11.5523   14.5789   21.5291 C   0  0  0  0  0  0  0  0  0  0  0  0
   10.9574   13.4949   22.2373 N   0  0  0  0  0  0  0  0  0  0  0  0
   10.5129   13.3851   23.6986 C   0  0  0  0  0  0  0  0  0  0  0  0
   10.6299   14.1349   24.5821 O   0  0  0  0  0  0  0  0  0  0  0  0
    9.8322   12.0994   23.8874 C   0  0  0  0  0  0  0  0  0  0  0  0
   10.1542   11.0317   23.1401 N   0  0  0  0  0  0  0  0  0  0  0  0
    9.3860   10.0418   23.6233 N   0  0  0  0  0  0  0  0  0  0  0  0
    9.5113    8.7293   23.0367 C   0  0  0  0  0  0  0  0  0  0  0  0
    8.5320   10.4446   24.6217 C   0  0  0  0  0  0  0  0  0  0  0  0
    7.5580    9.7694   25.3668 C   0  0  0  0  0  0  0  0  0  0  0  0
    6.8234   10.5029   26.3017 C   0  0  0  0  0  0  0  0  0  0  0  0
    7.0681   11.8572   26.4837 C   0  0  0  0  0  0  0  0  0  0  0  0
    6.3638   12.5292   27.4045 F   0  0  0  0  0  0  0  0  0  0  0  0
    8.0456   12.5272   25.7517 C   0  0  0  0  0  0  0  0  0  0  0  0
    8.7933   11.8002   24.8063 C   0  0  0  0  0  0  0  0  0  0  0  0
   10.4790   15.1758   19.2731 C   0  0  0  0  0  0  0  0  0  0  0  0
    9.6605   16.1764   18.8407 O   0  0  0  0  0  0  0  0  0  0  0  0
  1  2  1  0
  2  3  1  0
  3  4  2  0
  4  5  1  0
  5  6  1  0
  6  7  1  0
  7  8  1  0
  8  9  2  0
  8 10  1  0
 10 11  2  0
 11 12  1  0
 12 13  1  0
 12 14  1  0
 14 15  2  0
 15 16  1  0
 16 17  2  0
 17 18  1  0
 17 19  1  0
 19 20  2  0
  5 21  2  0
 21 22  1  0
 22  3  1  0
 20 10  1  0
 20 14  1  0
M  END
>  <energy_score>  (1303) 
-22.793592

>  <inchikey>  (1303) 
None

>  <smiles>  (1303) 
None

>  <ref_pdb>  (1303) 
A2290a

>  <alias>  (1303) 
None

>  <HIPPO Pose ID>  (1303) 
498947

>  <name>  (1303) 
P498947

>  <HIPPO Compound ID>  (1303) 
299222

>  <ref_mols>  (1303) 
A3403a,A2290a

>  <distance_score>  (1303) 
0.676502

>  <inspiration_score>  (1303) 
None

$$$$
P498948
     RDKit          3D

 22 24  0  0  0  0  0  0  0  0999 V2000
    9.6920    8.9797   23.1075 C   0  0  0  0  0  0  0  0  0  0  0  0
    9.3401   10.2147   23.7735 N   0  0  0  0  0  0  0  0  0  0  0  0
    9.8626   11.3787   23.3275 N   0  0  0  0  0  0  0  0  0  0  0  0
    9.2684   12.3113   24.0926 C   0  0  0  0  0  0  0  0  0  0  0  0
    9.2292   13.7340   23.7593 C   0  0  0  0  0  0  0  0  0  0  0  0
    8.8711   14.5136   24.5474 O   0  0  0  0  0  0  0  0  0  0  0  0
    9.6118   13.9139   22.2852 N   0  0  0  0  0  0  0  0  0  0  0  0
    9.5500   14.9943   21.4956 N   0  0  0  0  0  0  0  0  0  0  0  0
   10.2381   15.2919   20.1619 C   0  0  0  0  0  0  0  0  0  0  0  0
   11.0296   14.6811   19.5691 O   0  0  0  0  0  0  0  0  0  0  0  0
    9.6047   16.5180   19.6934 C   0  0  0  0  0  0  0  0  0  0  0  0
    9.6891   17.1130   18.4654 C   0  0  0  0  0  0  0  0  0  0  0  0
    8.8800   18.2078   18.4653 O   0  0  0  0  0  0  0  0  0  0  0  0
    8.3602   18.2482   19.7216 C   0  0  0  0  0  0  0  0  0  0  0  0
    8.7469   17.2639   20.5018 N   0  0  0  0  0  0  0  0  0  0  0  0
    8.4194   11.7406   25.0708 C   0  0  0  0  0  0  0  0  0  0  0  0
    7.5445   12.2528   26.0494 C   0  0  0  0  0  0  0  0  0  0  0  0
    6.6925   11.3747   26.7032 C   0  0  0  0  0  0  0  0  0  0  0  0
    5.8548   11.8412   27.6388 F   0  0  0  0  0  0  0  0  0  0  0  0
    6.6846   10.0244   26.3975 C   0  0  0  0  0  0  0  0  0  0  0  0
    7.5566    9.5073   25.4339 C   0  0  0  0  0  0  0  0  0  0  0  0
    8.4227   10.3848   24.7834 C   0  0  0  0  0  0  0  0  0  0  0  0
  1  2  1  0
  2  3  1  0
  3  4  2  0
  4  5  1  0
  5  6  2  0
  5  7  1  0
  7  8  1  0
  8  9  1  0
  9 10  2  0
  9 11  1  0
 11 12  2  0
 12 13  1  0
 13 14  1  0
 14 15  2  0
  4 16  1  0
 16 17  2  0
 17 18  1  0
 18 19  1  0
 18 20  2  0
 20 21  1  0
 21 22  2  0
 22  2  1  0
 15 11  1  0
 22 16  1  0
M  END
>  <energy_score>  (1304) 
-6.37942

>  <inchikey>  (1304) 
None

>  <smiles>  (1304) 
None

>  <ref_pdb>  (1304) 
A2290a

>  <alias>  (1304) 
None

>  <HIPPO Pose ID>  (1304) 
498948

>  <name>  (1304) 
P498948

>  <HIPPO Compound ID>  (1304) 
299223

>  <ref_mols>  (1304) 
A3403a,A2290a

>  <distance_score>  (1304) 
1.462612

>  <inspiration_score>  (1304) 
None

$$$$
P498949
     RDKit          3D

 22 24  0  0  0  0  0  0  0  0999 V2000
   12.1678   14.7551   17.9681 C   0  0  0  0  0  0  0  0  0  0  0  0
   11.4043   14.1863   19.0684 C   0  0  0  0  0  0  0  0  0  0  0  0
   10.5800   15.1150   19.7886 C   0  0  0  0  0  0  0  0  0  0  0  0
    9.7452   15.9512   19.1191 O   0  0  0  0  0  0  0  0  0  0  0  0
    9.2619   16.7462   20.1040 C   0  0  0  0  0  0  0  0  0  0  0  0
    9.6586   16.4098   21.3032 N   0  0  0  0  0  0  0  0  0  0  0  0
   10.5700   15.4135   21.1172 C   0  0  0  0  0  0  0  0  0  0  0  0
   11.4554   14.8518   22.1626 C   0  0  0  0  0  0  0  0  0  0  0  0
   10.7962   13.7323   22.7425 N   0  0  0  0  0  0  0  0  0  0  0  0
   10.3991   13.4550   24.1893 C   0  0  0  0  0  0  0  0  0  0  0  0
   10.4757   14.1281   25.1356 O   0  0  0  0  0  0  0  0  0  0  0  0
    9.7557   12.1415   24.2288 C   0  0  0  0  0  0  0  0  0  0  0  0
   10.1391   11.1482   23.4082 N   0  0  0  0  0  0  0  0  0  0  0  0
    9.3565   10.1104   23.7610 N   0  0  0  0  0  0  0  0  0  0  0  0
    9.5385    8.8456   23.0863 C   0  0  0  0  0  0  0  0  0  0  0  0
    8.4479   10.4222   24.7455 C   0  0  0  0  0  0  0  0  0  0  0  0
    7.4561    9.6799   25.3927 C   0  0  0  0  0  0  0  0  0  0  0  0
    6.6573   10.3296   26.3373 C   0  0  0  0  0  0  0  0  0  0  0  0
    6.8554   11.6727   26.6232 C   0  0  0  0  0  0  0  0  0  0  0  0
    6.0850   12.2642   27.5463 F   0  0  0  0  0  0  0  0  0  0  0  0
    7.8540   12.4094   25.9950 C   0  0  0  0  0  0  0  0  0  0  0  0
    8.6689   11.7614   25.0485 C   0  0  0  0  0  0  0  0  0  0  0  0
  1  2  1  0
  2  3  1  0
  3  4  1  0
  4  5  1  0
  5  6  2  0
  6  7  1  0
  7  8  1  0
  8  9  1  0
  9 10  1  0
 10 11  2  0
 10 12  1  0
 12 13  2  0
 13 14  1  0
 14 15  1  0
 14 16  1  0
 16 17  2  0
 17 18  1  0
 18 19  2  0
 19 20  1  0
 19 21  1  0
 21 22  2  0
  7  3  2  0
 22 12  1  0
 22 16  1  0
M  END
>  <energy_score>  (1305) 
-9.946014

>  <inchikey>  (1305) 
None

>  <smiles>  (1305) 
None

>  <ref_pdb>  (1305) 
A2290a

>  <alias>  (1305) 
None

>  <HIPPO Pose ID>  (1305) 
498949

>  <name>  (1305) 
P498949

>  <HIPPO Compound ID>  (1305) 
299224

>  <ref_mols>  (1305) 
A3403a,A2290a

>  <distance_score>  (1305) 
0.852621

>  <inspiration_score>  (1305) 
None

$$$$
P498950
     RDKit          3D

 22 25  0  0  0  0  0  0  0  0999 V2000
    9.4017    8.6200   23.0810 C   0  0  0  0  0  0  0  0  0  0  0  0
    9.2475    9.9120   23.7029 N   0  0  0  0  0  0  0  0  0  0  0  0
    9.9542   10.9325   23.2017 N   0  0  0  0  0  0  0  0  0  0  0  0
    9.5505   11.9945   23.9139 C   0  0  0  0  0  0  0  0  0  0  0  0
   10.0671   13.3204   23.6219 C   0  0  0  0  0  0  0  0  0  0  0  0
    9.9484   14.2009   24.3751 O   0  0  0  0  0  0  0  0  0  0  0  0
   10.6393   13.2987   22.1997 N   0  0  0  0  0  0  0  0  0  0  0  0
   11.2566   14.3046   21.4550 C   0  0  0  0  0  0  0  0  0  0  0  0
   10.3081   15.2281   20.6354 C   0  0  0  0  0  0  0  0  0  0  0  0
   10.3388   15.4294   19.2828 C   0  0  0  0  0  0  0  0  0  0  0  0
    9.5783   16.5255   19.0057 O   0  0  0  0  0  0  0  0  0  0  0  0
    9.1066   16.9030   20.2249 C   0  0  0  0  0  0  0  0  0  0  0  0
    9.4586   16.1177   21.2139 N   0  0  0  0  0  0  0  0  0  0  0  0
   12.3808   14.9689   22.0939 C   0  0  0  0  0  0  0  0  0  0  0  0
   12.6757   14.0624   20.9281 C   0  0  0  0  0  0  0  0  0  0  0  0
    8.5707   11.6573   24.8703 C   0  0  0  0  0  0  0  0  0  0  0  0
    7.8015   12.3656   25.8125 C   0  0  0  0  0  0  0  0  0  0  0  0
    6.8639   11.6639   26.5615 C   0  0  0  0  0  0  0  0  0  0  0  0
    6.1317   12.3133   27.4761 F   0  0  0  0  0  0  0  0  0  0  0  0
    6.6760   10.3006   26.3896 C   0  0  0  0  0  0  0  0  0  0  0  0
    7.4345    9.5929   25.4533 C   0  0  0  0  0  0  0  0  0  0  0  0
    8.3813   10.2901   24.7023 C   0  0  0  0  0  0  0  0  0  0  0  0
  1  2  1  0
  2  3  1  0
  3  4  2  0
  4  5  1  0
  5  6  2  0
  5  7  1  0
  7  8  1  0
  8  9  1  0
  9 10  2  0
 10 11  1  0
 11 12  1  0
 12 13  2  0
  8 14  1  0
 14 15  1  0
  4 16  1  0
 16 17  2  0
 17 18  1  0
 18 19  1  0
 18 20  2  0
 20 21  1  0
 21 22  2  0
 22  2  1  0
 15  8  1  0
 22 16  1  0
 13  9  1  0
M  END
>  <energy_score>  (1306) 
-6.873966

>  <inchikey>  (1306) 
None

>  <smiles>  (1306) 
None

>  <ref_pdb>  (1306) 
A2290a

>  <alias>  (1306) 
None

>  <HIPPO Pose ID>  (1306) 
498950

>  <name>  (1306) 
P498950

>  <HIPPO Compound ID>  (1306) 
299225

>  <ref_mols>  (1306) 
A3403a,A2290a

>  <distance_score>  (1306) 
0.820738

>  <inspiration_score>  (1306) 
None

$$$$
P498951
     RDKit          3D

 23 25  0  0  0  0  0  0  0  0999 V2000
   10.7987   14.1495   24.5832 O   0  0  0  0  0  0  0  0  0  0  0  0
   10.7796   13.3296   23.7561 C   0  0  0  0  0  0  0  0  0  0  0  0
   11.3568   13.3363   22.3354 N   0  0  0  0  0  0  0  0  0  0  0  0
   11.9926   14.3765   21.5999 C   0  0  0  0  0  0  0  0  0  0  0  0
   10.9749   15.0128   20.7351 C   0  0  0  0  0  0  0  0  0  0  0  0
   10.8076   14.9212   19.3762 C   0  0  0  0  0  0  0  0  0  0  0  0
    9.8703   15.8340   19.0014 O   0  0  0  0  0  0  0  0  0  0  0  0
    9.5245   16.4640   20.1601 C   0  0  0  0  0  0  0  0  0  0  0  0
    8.4392   18.0376   20.1934 Br  0  0  0  0  0  0  0  0  0  0  0  0
   10.0882   15.9396   21.2282 N   0  0  0  0  0  0  0  0  0  0  0  0
   10.0573   12.0648   23.9375 C   0  0  0  0  0  0  0  0  0  0  0  0
   10.3987   11.0005   23.2004 N   0  0  0  0  0  0  0  0  0  0  0  0
    9.5689   10.0092   23.6030 N   0  0  0  0  0  0  0  0  0  0  0  0
    9.6129    8.7145   22.9120 C   0  0  0  0  0  0  0  0  0  0  0  0
   10.4444    7.8259   23.5002 F   0  0  0  0  0  0  0  0  0  0  0  0
   10.0513    8.8528   21.6380 F   0  0  0  0  0  0  0  0  0  0  0  0
    8.3912    8.1493   22.8553 F   0  0  0  0  0  0  0  0  0  0  0  0
    8.6886   10.4237   24.5835 C   0  0  0  0  0  0  0  0  0  0  0  0
    7.6697    9.7656   25.2830 C   0  0  0  0  0  0  0  0  0  0  0  0
    6.9005   10.5074   26.1841 C   0  0  0  0  0  0  0  0  0  0  0  0
    7.1428   11.8628   26.3848 C   0  0  0  0  0  0  0  0  0  0  0  0
    8.1753   12.5089   25.6984 C   0  0  0  0  0  0  0  0  0  0  0  0
    8.9663   11.7745   24.7938 C   0  0  0  0  0  0  0  0  0  0  0  0
  1  2  2  0
  2  3  1  0
  3  4  1  0
  4  5  1  0
  5  6  2  0
  6  7  1  0
  7  8  1  0
  8  9  1  0
  8 10  2  0
  2 11  1  0
 11 12  2  0
 12 13  1  0
 13 14  1  0
 14 15  1  0
 14 16  1  0
 14 17  1  0
 13 18  1  0
 18 19  2  0
 19 20  1  0
 20 21  2  0
 21 22  1  0
 22 23  2  0
 10  5  1  0
 23 11  1  0
 23 18  1  0
M  END
>  <energy_score>  (1307) 
-20.412398

>  <inchikey>  (1307) 
None

>  <smiles>  (1307) 
None

>  <ref_pdb>  (1307) 
A2290a

>  <alias>  (1307) 
None

>  <HIPPO Pose ID>  (1307) 
498951

>  <name>  (1307) 
P498951

>  <HIPPO Compound ID>  (1307) 
299226

>  <ref_mols>  (1307) 
A3403a,A2290a

>  <distance_score>  (1307) 
0.694061

>  <inspiration_score>  (1307) 
None

$$$$
P498952
     RDKit          3D

 23 25  0  0  0  0  0  0  0  0999 V2000
    8.6361   17.4186   20.6375 C   0  0  0  0  0  0  0  0  0  0  0  0
    9.6015   16.3188   20.4746 C   0  0  0  0  0  0  0  0  0  0  0  0
   10.2614   15.6770   21.4125 N   0  0  0  0  0  0  0  0  0  0  0  0
   11.1210   14.8596   20.7270 C   0  0  0  0  0  0  0  0  0  0  0  0
   12.1382   14.0666   21.4492 C   0  0  0  0  0  0  0  0  0  0  0  0
   11.4103   13.1369   22.2518 N   0  0  0  0  0  0  0  0  0  0  0  0
   10.8836   13.2576   23.6834 C   0  0  0  0  0  0  0  0  0  0  0  0
   11.0230   14.1043   24.4706 O   0  0  0  0  0  0  0  0  0  0  0  0
   10.0058   12.1047   23.9502 C   0  0  0  0  0  0  0  0  0  0  0  0
   10.1562   10.9433   23.2872 N   0  0  0  0  0  0  0  0  0  0  0  0
    9.2633   10.1080   23.8755 N   0  0  0  0  0  0  0  0  0  0  0  0
    9.2850    8.6671   23.6267 C   0  0  0  0  0  0  0  0  0  0  0  0
    8.7234    8.0226   24.6769 F   0  0  0  0  0  0  0  0  0  0  0  0
   10.5296    8.1709   23.4322 F   0  0  0  0  0  0  0  0  0  0  0  0
    8.5492    8.2988   22.5661 F   0  0  0  0  0  0  0  0  0  0  0  0
    8.4425   10.7418   24.7885 C   0  0  0  0  0  0  0  0  0  0  0  0
    7.3656   10.2917   25.5707 C   0  0  0  0  0  0  0  0  0  0  0  0
    6.7375   11.2132   26.4099 C   0  0  0  0  0  0  0  0  0  0  0  0
    7.1707   12.5335   26.4710 C   0  0  0  0  0  0  0  0  0  0  0  0
    8.2553   12.9656   25.7004 C   0  0  0  0  0  0  0  0  0  0  0  0
    8.9066   12.0510   24.8511 C   0  0  0  0  0  0  0  0  0  0  0  0
   10.8546   14.9573   19.3833 C   0  0  0  0  0  0  0  0  0  0  0  0
    9.8747   15.8908   19.2092 O   0  0  0  0  0  0  0  0  0  0  0  0
  1  2  1  0
  2  3  2  0
  3  4  1  0
  4  5  1  0
  5  6  1  0
  6  7  1  0
  7  8  2  0
  7  9  1  0
  9 10  2  0
 10 11  1  0
 11 12  1  0
 12 13  1  0
 12 14  1  0
 12 15  1  0
 11 16  1  0
 16 17  2  0
 17 18  1  0
 18 19  2  0
 19 20  1  0
 20 21  2  0
  4 22  2  0
 22 23  1  0
 23  2  1  0
 21  9  1  0
 21 16  1  0
M  END
>  <energy_score>  (1308) 
-24.869381

>  <inchikey>  (1308) 
None

>  <smiles>  (1308) 
None

>  <ref_pdb>  (1308) 
A2290a

>  <alias>  (1308) 
None

>  <HIPPO Pose ID>  (1308) 
498952

>  <name>  (1308) 
P498952

>  <HIPPO Compound ID>  (1308) 
299228

>  <ref_mols>  (1308) 
A3403a,A2290a

>  <distance_score>  (1308) 
0.75017

>  <inspiration_score>  (1308) 
None

$$$$
P498953
     RDKit          3D

 23 25  0  0  0  0  0  0  0  0999 V2000
   12.7819   14.3159   21.4679 C   0  0  0  0  0  0  0  0  0  0  0  0
   11.3962   14.7001   21.8929 C   0  0  2  0  0  0  0  0  0  0  0  0
   10.7515   13.6128   22.5559 N   0  0  0  0  0  0  0  0  0  0  0  0
   10.3902   13.4212   24.0270 C   0  0  0  0  0  0  0  0  0  0  0  0
   10.6262   14.0832   24.9548 O   0  0  0  0  0  0  0  0  0  0  0  0
    9.6048   12.1927   24.1741 C   0  0  0  0  0  0  0  0  0  0  0  0
    9.8324   11.0928   23.4317 N   0  0  0  0  0  0  0  0  0  0  0  0
    9.0097   10.1584   23.9897 N   0  0  0  0  0  0  0  0  0  0  0  0
    9.0743    8.7338   23.6590 C   0  0  0  0  0  0  0  0  0  0  0  0
    8.2293    8.3898   22.6813 F   0  0  0  0  0  0  0  0  0  0  0  0
    8.6684    8.0185   24.7324 F   0  0  0  0  0  0  0  0  0  0  0  0
   10.2907    8.2927   23.2941 F   0  0  0  0  0  0  0  0  0  0  0  0
    8.1610   10.6846   24.9485 C   0  0  0  0  0  0  0  0  0  0  0  0
    7.1254   10.1237   25.7121 C   0  0  0  0  0  0  0  0  0  0  0  0
    6.4630   10.9477   26.6233 C   0  0  0  0  0  0  0  0  0  0  0  0
    6.8219   12.2828   26.7712 C   0  0  0  0  0  0  0  0  0  0  0  0
    7.8601   12.8275   26.0121 C   0  0  0  0  0  0  0  0  0  0  0  0
    8.5388   12.0102   25.0891 C   0  0  0  0  0  0  0  0  0  0  0  0
   10.5447   15.2553   20.8196 C   0  0  0  0  0  0  0  0  0  0  0  0
   10.5791   15.0861   19.4562 C   0  0  0  0  0  0  0  0  0  0  0  0
    9.7771   16.0350   18.8938 O   0  0  0  0  0  0  0  0  0  0  0  0
    9.2954   16.7306   19.9513 C   0  0  0  0  0  0  0  0  0  0  0  0
    9.6488   16.2527   21.1151 N   0  0  0  0  0  0  0  0  0  0  0  0
  2  1  1  6
  2  3  1  0
  3  4  1  0
  4  5  2  0
  4  6  1  0
  6  7  2  0
  7  8  1  0
  8  9  1  0
  9 10  1  0
  9 11  1  0
  9 12  1  0
  8 13  1  0
 13 14  2  0
 14 15  1  0
 15 16  2  0
 16 17  1  0
 17 18  2  0
  2 19  1  0
 19 20  2  0
 20 21  1  0
 21 22  1  0
 22 23  2  0
 18  6  1  0
 23 19  1  0
 18 13  1  0
M  END
>  <energy_score>  (1309) 
-27.213384

>  <inchikey>  (1309) 
None

>  <smiles>  (1309) 
None

>  <ref_pdb>  (1309) 
A2290a

>  <alias>  (1309) 
None

>  <HIPPO Pose ID>  (1309) 
498953

>  <name>  (1309) 
P498953

>  <HIPPO Compound ID>  (1309) 
299230

>  <ref_mols>  (1309) 
A3403a,A2290a

>  <distance_score>  (1309) 
0.902177

>  <inspiration_score>  (1309) 
None

$$$$
P498954
     RDKit          3D

 23 25  0  0  0  0  0  0  0  0999 V2000
   12.8602   14.9450   22.0749 C   0  0  0  0  0  0  0  0  0  0  0  0
   11.8934   14.0976   21.3065 C   0  0  1  0  0  0  0  0  0  0  0  0
   11.2681   13.1332   22.1520 N   0  0  0  0  0  0  0  0  0  0  0  0
   10.6980   13.2705   23.5720 C   0  0  0  0  0  0  0  0  0  0  0  0
   10.7161   14.1725   24.3098 O   0  0  0  0  0  0  0  0  0  0  0  0
   10.0142   12.0161   23.8800 C   0  0  0  0  0  0  0  0  0  0  0  0
   10.3808   10.9132   23.2185 N   0  0  0  0  0  0  0  0  0  0  0  0
    9.5469    9.9476   23.6477 N   0  0  0  0  0  0  0  0  0  0  0  0
    9.5726    8.6504   22.9674 C   0  0  0  0  0  0  0  0  0  0  0  0
   10.4313    7.7679   23.5248 F   0  0  0  0  0  0  0  0  0  0  0  0
    8.3516    8.0877   22.9784 F   0  0  0  0  0  0  0  0  0  0  0  0
    9.9541    8.7794   21.6750 F   0  0  0  0  0  0  0  0  0  0  0  0
    8.6679   10.3994   24.6134 C   0  0  0  0  0  0  0  0  0  0  0  0
    7.6432    9.7729   25.3331 C   0  0  0  0  0  0  0  0  0  0  0  0
    6.8807   10.5495   26.2104 C   0  0  0  0  0  0  0  0  0  0  0  0
    7.1300   11.9100   26.3634 C   0  0  0  0  0  0  0  0  0  0  0  0
    8.1586   12.5288   25.6469 C   0  0  0  0  0  0  0  0  0  0  0  0
    8.9447   11.7588   24.7689 C   0  0  0  0  0  0  0  0  0  0  0  0
   10.8437   14.9063   20.6446 C   0  0  0  0  0  0  0  0  0  0  0  0
   10.6647   15.1403   19.3049 C   0  0  0  0  0  0  0  0  0  0  0  0
    9.7148   16.1039   19.1631 O   0  0  0  0  0  0  0  0  0  0  0  0
    9.3526   16.3921   20.4396 C   0  0  0  0  0  0  0  0  0  0  0  0
    9.9420   15.6604   21.3553 N   0  0  0  0  0  0  0  0  0  0  0  0
  2  1  1  1
  2  3  1  0
  3  4  1  0
  4  5  2  0
  4  6  1  0
  6  7  2  0
  7  8  1  0
  8  9  1  0
  9 10  1  0
  9 11  1  0
  9 12  1  0
  8 13  1  0
 13 14  2  0
 14 15  1  0
 15 16  2  0
 16 17  1  0
 17 18  2  0
  2 19  1  0
 19 20  2  0
 20 21  1  0
 21 22  1  0
 22 23  2  0
 18  6  1  0
 23 19  1  0
 18 13  1  0
M  END
>  <energy_score>  (1310) 
-15.158724

>  <inchikey>  (1310) 
None

>  <smiles>  (1310) 
None

>  <ref_pdb>  (1310) 
A2290a

>  <alias>  (1310) 
None

>  <HIPPO Pose ID>  (1310) 
498954

>  <name>  (1310) 
P498954

>  <HIPPO Compound ID>  (1310) 
299230

>  <ref_mols>  (1310) 
A3403a,A2290a

>  <distance_score>  (1310) 
0.714893

>  <inspiration_score>  (1310) 
None

$$$$
P498955
     RDKit          3D

 23 25  0  0  0  0  0  0  0  0999 V2000
   10.9020   14.0943   24.5625 O   0  0  0  0  0  0  0  0  0  0  0  0
   10.8135   13.2710   23.7429 C   0  0  0  0  0  0  0  0  0  0  0  0
   11.3588   13.2311   22.3105 N   0  0  0  0  0  0  0  0  0  0  0  0
   12.0423   14.2242   21.5523 C   0  0  0  0  0  0  0  0  0  0  0  0
   11.0289   14.9315   20.7418 C   0  0  0  0  0  0  0  0  0  0  0  0
   10.8275   14.9272   19.3838 C   0  0  0  0  0  0  0  0  0  0  0  0
    9.8733   15.8555   19.0930 O   0  0  0  0  0  0  0  0  0  0  0  0
    9.5516   16.3961   20.3026 C   0  0  0  0  0  0  0  0  0  0  0  0
    8.5477   17.7711   20.4942 Cl  0  0  0  0  0  0  0  0  0  0  0  0
   10.1502   15.8132   21.3180 N   0  0  0  0  0  0  0  0  0  0  0  0
   10.0500   12.0337   23.9588 C   0  0  0  0  0  0  0  0  0  0  0  0
   10.3393   10.9429   23.2345 N   0  0  0  0  0  0  0  0  0  0  0  0
    9.4796    9.9913   23.6716 N   0  0  0  0  0  0  0  0  0  0  0  0
    9.4163    8.6963   22.9841 C   0  0  0  0  0  0  0  0  0  0  0  0
    9.9578    8.7565   21.7451 F   0  0  0  0  0  0  0  0  0  0  0  0
    8.1417    8.2864   22.8627 F   0  0  0  0  0  0  0  0  0  0  0  0
   10.0507    7.7040   23.6325 F   0  0  0  0  0  0  0  0  0  0  0  0
    8.6289   10.4575   24.6557 C   0  0  0  0  0  0  0  0  0  0  0  0
    7.5906    9.8498   25.3735 C   0  0  0  0  0  0  0  0  0  0  0  0
    6.8589   10.6373   26.2663 C   0  0  0  0  0  0  0  0  0  0  0  0
    7.1551   11.9861   26.4390 C   0  0  0  0  0  0  0  0  0  0  0  0
    8.2049   12.5805   25.7314 C   0  0  0  0  0  0  0  0  0  0  0  0
    8.9598   11.8002   24.8348 C   0  0  0  0  0  0  0  0  0  0  0  0
  1  2  2  0
  2  3  1  0
  3  4  1  0
  4  5  1  0
  5  6  2  0
  6  7  1  0
  7  8  1  0
  8  9  1  0
  8 10  2  0
  2 11  1  0
 11 12  2  0
 12 13  1  0
 13 14  1  0
 14 15  1  0
 14 16  1  0
 14 17  1  0
 13 18  1  0
 18 19  2  0
 19 20  1  0
 20 21  2  0
 21 22  1  0
 22 23  2  0
 10  5  1  0
 23 11  1  0
 23 18  1  0
M  END
>  <energy_score>  (1311) 
-25.11773

>  <inchikey>  (1311) 
None

>  <smiles>  (1311) 
None

>  <ref_pdb>  (1311) 
A2290a

>  <alias>  (1311) 
None

>  <HIPPO Pose ID>  (1311) 
498955

>  <name>  (1311) 
P498955

>  <HIPPO Compound ID>  (1311) 
299231

>  <ref_mols>  (1311) 
A3403a,A2290a

>  <distance_score>  (1311) 
0.80936

>  <inspiration_score>  (1311) 
None

$$$$
P498956
     RDKit          3D

 23 25  0  0  0  0  0  0  0  0999 V2000
    9.4793    8.6747   23.0468 C   0  0  0  0  0  0  0  0  0  0  0  0
    9.4128    9.9844   23.6479 N   0  0  0  0  0  0  0  0  0  0  0  0
   10.2477   10.9285   23.1943 N   0  0  0  0  0  0  0  0  0  0  0  0
    9.9541   12.0197   23.9180 C   0  0  0  0  0  0  0  0  0  0  0  0
   10.7157   13.2618   23.7272 C   0  0  0  0  0  0  0  0  0  0  0  0
   10.7346   14.0927   24.5429 O   0  0  0  0  0  0  0  0  0  0  0  0
   11.3242   13.2354   22.3218 N   0  0  0  0  0  0  0  0  0  0  0  0
   12.0005   14.2515   21.5858 C   0  0  0  0  0  0  0  0  0  0  0  0
   11.0033   14.9407   20.7384 C   0  0  0  0  0  0  0  0  0  0  0  0
   10.8392   14.8987   19.3766 C   0  0  0  0  0  0  0  0  0  0  0  0
    9.9018   15.8231   19.0329 O   0  0  0  0  0  0  0  0  0  0  0  0
    9.5552   16.4111   20.2131 C   0  0  0  0  0  0  0  0  0  0  0  0
    8.4691   17.9777   20.3021 Br  0  0  0  0  0  0  0  0  0  0  0  0
   10.1197   15.8523   21.2634 N   0  0  0  0  0  0  0  0  0  0  0  0
    8.8584   11.7821   24.7906 C   0  0  0  0  0  0  0  0  0  0  0  0
    8.0973   12.5585   25.6869 C   0  0  0  0  0  0  0  0  0  0  0  0
    7.0513   11.9334   26.3842 C   0  0  0  0  0  0  0  0  0  0  0  0
    6.2557   12.7168   27.3297 N   0  0  0  0  0  0  0  0  0  0  0  0
    5.1185   12.3071   27.6058 O   0  0  0  0  0  0  0  0  0  0  0  0
    6.7909   13.7140   27.8352 O   0  0  0  0  0  0  0  0  0  0  0  0
    6.7742   10.5725   26.2260 C   0  0  0  0  0  0  0  0  0  0  0  0
    7.5313    9.8010   25.3413 C   0  0  0  0  0  0  0  0  0  0  0  0
    8.5500   10.4336   24.6186 C   0  0  0  0  0  0  0  0  0  0  0  0
  1  2  1  0
  2  3  1  0
  3  4  2  0
  4  5  1  0
  5  6  2  0
  5  7  1  0
  7  8  1  0
  8  9  1  0
  9 10  2  0
 10 11  1  0
 11 12  1  0
 12 13  1  0
 12 14  2  0
  4 15  1  0
 15 16  2  0
 16 17  1  0
 17 18  1  0
 18 19  2  0
 18 20  1  0
 17 21  2  0
 21 22  1  0
 22 23  2  0
 23  2  1  0
 14  9  1  0
 23 15  1  0
M  CHG  2  18   1  20  -1
M  END
>  <energy_score>  (1312) 
-12.96911

>  <inchikey>  (1312) 
None

>  <smiles>  (1312) 
None

>  <ref_pdb>  (1312) 
A2290a

>  <alias>  (1312) 
None

>  <HIPPO Pose ID>  (1312) 
498956

>  <name>  (1312) 
P498956

>  <HIPPO Compound ID>  (1312) 
299232

>  <ref_mols>  (1312) 
A3403a,A2290a

>  <distance_score>  (1312) 
0.658503

>  <inspiration_score>  (1312) 
None

$$$$
P498957
     RDKit          3D

 23 25  0  0  0  0  0  0  0  0999 V2000
   11.7274   14.4639   18.5629 C   0  0  0  0  0  0  0  0  0  0  0  0
   10.8987   14.9919   19.6385 C   0  0  0  0  0  0  0  0  0  0  0  0
    9.8830   15.8412   19.3047 O   0  0  0  0  0  0  0  0  0  0  0  0
    9.3955   16.2354   20.5072 C   0  0  0  0  0  0  0  0  0  0  0  0
    9.9391   15.6357   21.5387 N   0  0  0  0  0  0  0  0  0  0  0  0
   10.9763   14.9222   21.0058 C   0  0  0  0  0  0  0  0  0  0  0  0
   11.9875   14.2611   21.8579 C   0  0  0  0  0  0  0  0  0  0  0  0
   11.3083   13.2302   22.5613 N   0  0  0  0  0  0  0  0  0  0  0  0
   10.6584   13.2328   23.9446 C   0  0  0  0  0  0  0  0  0  0  0  0
   10.6386   14.0553   24.7680 O   0  0  0  0  0  0  0  0  0  0  0  0
    9.9061   11.9828   24.0806 C   0  0  0  0  0  0  0  0  0  0  0  0
   10.2255   10.9149   23.3324 N   0  0  0  0  0  0  0  0  0  0  0  0
    9.3790    9.9577   23.7313 N   0  0  0  0  0  0  0  0  0  0  0  0
    9.4595    8.6723   23.0815 C   0  0  0  0  0  0  0  0  0  0  0  0
    8.4882   10.3795   24.6900 C   0  0  0  0  0  0  0  0  0  0  0  0
    7.4565    9.7278   25.3733 C   0  0  0  0  0  0  0  0  0  0  0  0
    6.6691   10.4757   26.2516 C   0  0  0  0  0  0  0  0  0  0  0  0
    6.9270   11.8361   26.4397 C   0  0  0  0  0  0  0  0  0  0  0  0
    6.0842   12.5977   27.3602 N   0  0  0  0  0  0  0  0  0  0  0  0
    6.5976   13.5701   27.9312 O   0  0  0  0  0  0  0  0  0  0  0  0
    4.9248   12.1969   27.5427 O   0  0  0  0  0  0  0  0  0  0  0  0
    7.9890   12.4808   25.7893 C   0  0  0  0  0  0  0  0  0  0  0  0
    8.7827   11.7242   24.9048 C   0  0  0  0  0  0  0  0  0  0  0  0
  1  2  1  0
  2  3  1  0
  3  4  1  0
  4  5  2  0
  5  6  1  0
  6  7  1  0
  7  8  1  0
  8  9  1  0
  9 10  2  0
  9 11  1  0
 11 12  2  0
 12 13  1  0
 13 14  1  0
 13 15  1  0
 15 16  2  0
 16 17  1  0
 17 18  2  0
 18 19  1  0
 19 20  2  0
 19 21  1  0
 18 22  1  0
 22 23  2  0
  6  2  2  0
 23 11  1  0
 23 15  1  0
M  CHG  2  19   1  21  -1
M  END
>  <energy_score>  (1313) 
-22.004831

>  <inchikey>  (1313) 
None

>  <smiles>  (1313) 
None

>  <ref_pdb>  (1313) 
A2290a

>  <alias>  (1313) 
None

>  <HIPPO Pose ID>  (1313) 
498957

>  <name>  (1313) 
P498957

>  <HIPPO Compound ID>  (1313) 
299233

>  <ref_mols>  (1313) 
A3403a,A2290a

>  <distance_score>  (1313) 
0.766284

>  <inspiration_score>  (1313) 
None

$$$$
P498958
     RDKit          3D

 23 25  0  0  0  0  0  0  0  0999 V2000
   12.7680   14.3580   21.4727 C   0  0  0  0  0  0  0  0  0  0  0  0
   11.3757   14.7470   21.8804 C   0  0  2  0  0  0  0  0  0  0  0  0
   10.7055   13.6489   22.4950 N   0  0  0  0  0  0  0  0  0  0  0  0
   10.3248   13.4091   23.9544 C   0  0  0  0  0  0  0  0  0  0  0  0
   10.4263   14.1010   24.8845 O   0  0  0  0  0  0  0  0  0  0  0  0
    9.7015   12.0938   24.0569 C   0  0  0  0  0  0  0  0  0  0  0  0
   10.0872   11.0759   23.2720 N   0  0  0  0  0  0  0  0  0  0  0  0
    9.3459   10.0372   23.6931 N   0  0  0  0  0  0  0  0  0  0  0  0
    9.5310    8.7559   23.0527 C   0  0  0  0  0  0  0  0  0  0  0  0
    8.4440   10.3739   24.6765 C   0  0  0  0  0  0  0  0  0  0  0  0
    7.4756    9.6381   25.3638 C   0  0  0  0  0  0  0  0  0  0  0  0
    6.6552   10.3074   26.2754 C   0  0  0  0  0  0  0  0  0  0  0  0
    6.8267   11.6754   26.4987 C   0  0  0  0  0  0  0  0  0  0  0  0
    5.9523   12.3544   27.4519 N   0  0  0  0  0  0  0  0  0  0  0  0
    6.4240   13.3183   28.0707 O   0  0  0  0  0  0  0  0  0  0  0  0
    4.8092   11.8991   27.6067 O   0  0  0  0  0  0  0  0  0  0  0  0
    7.8268   12.4068   25.8456 C   0  0  0  0  0  0  0  0  0  0  0  0
    8.6408   11.7290   24.9173 C   0  0  0  0  0  0  0  0  0  0  0  0
   10.5397   15.3096   20.7984 C   0  0  0  0  0  0  0  0  0  0  0  0
   10.5652   15.1170   19.4380 C   0  0  0  0  0  0  0  0  0  0  0  0
    9.7642   16.0596   18.8641 O   0  0  0  0  0  0  0  0  0  0  0  0
    9.2913   16.7757   19.9117 C   0  0  0  0  0  0  0  0  0  0  0  0
    9.6529   16.3193   21.0816 N   0  0  0  0  0  0  0  0  0  0  0  0
  2  1  1  6
  2  3  1  0
  3  4  1  0
  4  5  2  0
  4  6  1  0
  6  7  2  0
  7  8  1  0
  8  9  1  0
  8 10  1  0
 10 11  2  0
 11 12  1  0
 12 13  2  0
 13 14  1  0
 14 15  2  0
 14 16  1  0
 13 17  1  0
 17 18  2  0
  2 19  1  0
 19 20  2  0
 20 21  1  0
 21 22  1  0
 22 23  2  0
 18  6  1  0
 23 19  1  0
 18 10  1  0
M  CHG  2  14   1  16  -1
M  END
>  <energy_score>  (1314) 
-35.56633

>  <inchikey>  (1314) 
None

>  <smiles>  (1314) 
None

>  <ref_pdb>  (1314) 
A2290a

>  <alias>  (1314) 
None

>  <HIPPO Pose ID>  (1314) 
498958

>  <name>  (1314) 
P498958

>  <HIPPO Compound ID>  (1314) 
299234

>  <ref_mols>  (1314) 
A3403a,A2290a

>  <distance_score>  (1314) 
0.842972

>  <inspiration_score>  (1314) 
None

$$$$
P498959
     RDKit          3D

 23 25  0  0  0  0  0  0  0  0999 V2000
   12.8221   14.8790   22.1413 C   0  0  0  0  0  0  0  0  0  0  0  0
   11.8633   14.0458   21.3440 C   0  0  1  0  0  0  0  0  0  0  0  0
   11.2021   13.0792   22.1641 N   0  0  0  0  0  0  0  0  0  0  0  0
   10.5861   13.2123   23.5624 C   0  0  0  0  0  0  0  0  0  0  0  0
   10.5847   14.1099   24.3053 O   0  0  0  0  0  0  0  0  0  0  0  0
    9.8648   11.9692   23.8488 C   0  0  0  0  0  0  0  0  0  0  0  0
   10.1611   10.8551   23.1636 N   0  0  0  0  0  0  0  0  0  0  0  0
    9.3478    9.9210   23.6636 N   0  0  0  0  0  0  0  0  0  0  0  0
    9.4000    8.6068   23.0751 C   0  0  0  0  0  0  0  0  0  0  0  0
    8.4990   10.3945   24.6351 C   0  0  0  0  0  0  0  0  0  0  0  0
    7.4905    9.7818   25.3872 C   0  0  0  0  0  0  0  0  0  0  0  0
    6.7470   10.5759   26.2634 C   0  0  0  0  0  0  0  0  0  0  0  0
    7.0248   11.9409   26.3822 C   0  0  0  0  0  0  0  0  0  0  0  0
    6.2391   12.7497   27.3150 N   0  0  0  0  0  0  0  0  0  0  0  0
    6.7679   13.7761   27.7660 O   0  0  0  0  0  0  0  0  0  0  0  0
    5.1156   12.3332   27.6346 O   0  0  0  0  0  0  0  0  0  0  0  0
    8.0558   12.5490   25.6497 C   0  0  0  0  0  0  0  0  0  0  0  0
    8.8020   11.7495   24.7619 C   0  0  0  0  0  0  0  0  0  0  0  0
   10.8405   14.8755   20.6626 C   0  0  0  0  0  0  0  0  0  0  0  0
   10.6832   15.1117   19.3201 C   0  0  0  0  0  0  0  0  0  0  0  0
    9.7417   16.0824   19.1648 O   0  0  0  0  0  0  0  0  0  0  0  0
    9.3667   16.3770   20.4360 C   0  0  0  0  0  0  0  0  0  0  0  0
    9.9382   15.6420   21.3601 N   0  0  0  0  0  0  0  0  0  0  0  0
  2  1  1  1
  2  3  1  0
  3  4  1  0
  4  5  2  0
  4  6  1  0
  6  7  2  0
  7  8  1  0
  8  9  1  0
  8 10  1  0
 10 11  2  0
 11 12  1  0
 12 13  2  0
 13 14  1  0
 14 15  2  0
 14 16  1  0
 13 17  1  0
 17 18  2  0
  2 19  1  0
 19 20  2  0
 20 21  1  0
 21 22  1  0
 22 23  2  0
 18  6  1  0
 23 19  1  0
 18 10  1  0
M  CHG  2  14   1  16  -1
M  END
>  <energy_score>  (1315) 
-42.633561

>  <inchikey>  (1315) 
None

>  <smiles>  (1315) 
None

>  <ref_pdb>  (1315) 
A2290a

>  <alias>  (1315) 
None

>  <HIPPO Pose ID>  (1315) 
498959

>  <name>  (1315) 
P498959

>  <HIPPO Compound ID>  (1315) 
299234

>  <ref_mols>  (1315) 
A3403a,A2290a

>  <distance_score>  (1315) 
0.684528

>  <inspiration_score>  (1315) 
None

$$$$
P498960
     RDKit          3D

 23 25  0  0  0  0  0  0  0  0999 V2000
    9.4806    8.6575   23.0608 C   0  0  0  0  0  0  0  0  0  0  0  0
    9.4172    9.9717   23.6511 N   0  0  0  0  0  0  0  0  0  0  0  0
   10.2421   10.9125   23.1764 N   0  0  0  0  0  0  0  0  0  0  0  0
    9.9649   12.0069   23.9034 C   0  0  0  0  0  0  0  0  0  0  0  0
   10.7376   13.2403   23.7031 C   0  0  0  0  0  0  0  0  0  0  0  0
   10.8075   14.0597   24.5274 O   0  0  0  0  0  0  0  0  0  0  0  0
   11.3151   13.2060   22.2855 N   0  0  0  0  0  0  0  0  0  0  0  0
   12.0172   14.2022   21.5468 C   0  0  0  0  0  0  0  0  0  0  0  0
   11.0167   14.9249   20.7342 C   0  0  0  0  0  0  0  0  0  0  0  0
   10.8292   14.9385   19.3745 C   0  0  0  0  0  0  0  0  0  0  0  0
    9.8793   15.8718   19.0867 O   0  0  0  0  0  0  0  0  0  0  0  0
    9.5482   16.3995   20.2996 C   0  0  0  0  0  0  0  0  0  0  0  0
    8.5458   17.7740   20.4980 Cl  0  0  0  0  0  0  0  0  0  0  0  0
   10.1314   15.7981   21.3137 N   0  0  0  0  0  0  0  0  0  0  0  0
    8.8721   11.7797   24.7821 C   0  0  0  0  0  0  0  0  0  0  0  0
    8.1182   12.5648   25.6767 C   0  0  0  0  0  0  0  0  0  0  0  0
    7.0713   11.9478   26.3793 C   0  0  0  0  0  0  0  0  0  0  0  0
    6.2763   12.7392   27.3185 N   0  0  0  0  0  0  0  0  0  0  0  0
    5.1334   12.3372   27.5833 O   0  0  0  0  0  0  0  0  0  0  0  0
    6.8158   13.7319   27.8265 O   0  0  0  0  0  0  0  0  0  0  0  0
    6.7879   10.5866   26.2302 C   0  0  0  0  0  0  0  0  0  0  0  0
    7.5380    9.8063   25.3478 C   0  0  0  0  0  0  0  0  0  0  0  0
    8.5566   10.4313   24.6184 C   0  0  0  0  0  0  0  0  0  0  0  0
  1  2  1  0
  2  3  1  0
  3  4  2  0
  4  5  1  0
  5  6  2  0
  5  7  1  0
  7  8  1  0
  8  9  1  0
  9 10  2  0
 10 11  1  0
 11 12  1  0
 12 13  1  0
 12 14  2  0
  4 15  1  0
 15 16  2  0
 16 17  1  0
 17 18  1  0
 18 19  2  0
 18 20  1  0
 17 21  2  0
 21 22  1  0
 22 23  2  0
 23  2  1  0
 14  9  1  0
 23 15  1  0
M  CHG  2  18   1  20  -1
M  END
>  <energy_score>  (1316) 
-17.129803

>  <inchikey>  (1316) 
None

>  <smiles>  (1316) 
None

>  <ref_pdb>  (1316) 
A2290a

>  <alias>  (1316) 
None

>  <HIPPO Pose ID>  (1316) 
498960

>  <name>  (1316) 
P498960

>  <HIPPO Compound ID>  (1316) 
299235

>  <ref_mols>  (1316) 
A3403a,A2290a

>  <distance_score>  (1316) 
0.664692

>  <inspiration_score>  (1316) 
None

$$$$
P498961
     RDKit          3D

 23 25  0  0  0  0  0  0  0  0999 V2000
    8.6293   17.4315   20.6247 C   0  0  0  0  0  0  0  0  0  0  0  0
    9.5886   16.3247   20.4796 C   0  0  0  0  0  0  0  0  0  0  0  0
   10.2357   15.6906   21.4305 N   0  0  0  0  0  0  0  0  0  0  0  0
   11.1006   14.8664   20.7647 C   0  0  0  0  0  0  0  0  0  0  0  0
   12.1244   14.1034   21.5070 C   0  0  0  0  0  0  0  0  0  0  0  0
   11.4300   13.1223   22.2762 N   0  0  0  0  0  0  0  0  0  0  0  0
   10.8283   13.2026   23.6841 C   0  0  0  0  0  0  0  0  0  0  0  0
   10.8683   14.0568   24.4756 O   0  0  0  0  0  0  0  0  0  0  0  0
   10.0306   11.9856   23.9011 C   0  0  0  0  0  0  0  0  0  0  0  0
   10.2946   10.8765   23.1935 N   0  0  0  0  0  0  0  0  0  0  0  0
    9.4300    9.9635   23.6507 N   0  0  0  0  0  0  0  0  0  0  0  0
    9.4577    8.6505   23.0553 C   0  0  0  0  0  0  0  0  0  0  0  0
    8.5789   10.4459   24.6150 C   0  0  0  0  0  0  0  0  0  0  0  0
    7.5426    9.8472   25.3426 C   0  0  0  0  0  0  0  0  0  0  0  0
    6.8054   10.6485   26.2172 C   0  0  0  0  0  0  0  0  0  0  0  0
    7.1169   12.0041   26.3592 C   0  0  0  0  0  0  0  0  0  0  0  0
    6.3415   12.8194   27.2955 N   0  0  0  0  0  0  0  0  0  0  0  0
    5.2048   12.4278   27.5985 O   0  0  0  0  0  0  0  0  0  0  0  0
    6.8921   13.8249   27.7675 O   0  0  0  0  0  0  0  0  0  0  0  0
    8.1798   12.5943   25.6556 C   0  0  0  0  0  0  0  0  0  0  0  0
    8.9245   11.7882   24.7722 C   0  0  0  0  0  0  0  0  0  0  0  0
   10.8458   14.9460   19.4170 C   0  0  0  0  0  0  0  0  0  0  0  0
    9.8705   15.8807   19.2218 O   0  0  0  0  0  0  0  0  0  0  0  0
  1  2  1  0
  2  3  2  0
  3  4  1  0
  4  5  1  0
  5  6  1  0
  6  7  1  0
  7  8  2  0
  7  9  1  0
  9 10  2  0
 10 11  1  0
 11 12  1  0
 11 13  1  0
 13 14  2  0
 14 15  1  0
 15 16  2  0
 16 17  1  0
 17 18  2  0
 17 19  1  0
 16 20  1  0
 20 21  2  0
  4 22  2  0
 22 23  1  0
 23  2  1  0
 21  9  1  0
 21 13  1  0
M  CHG  2  17   1  19  -1
M  END
>  <energy_score>  (1317) 
-29.812174

>  <inchikey>  (1317) 
None

>  <smiles>  (1317) 
None

>  <ref_pdb>  (1317) 
A2290a

>  <alias>  (1317) 
None

>  <HIPPO Pose ID>  (1317) 
498961

>  <name>  (1317) 
P498961

>  <HIPPO Compound ID>  (1317) 
299236

>  <ref_mols>  (1317) 
A3403a,A2290a

>  <distance_score>  (1317) 
0.689601

>  <inspiration_score>  (1317) 
None

$$$$
P498962
     RDKit          3D

 23 25  0  0  0  0  0  0  0  0999 V2000
    9.4280    8.6864   23.0867 C   0  0  0  0  0  0  0  0  0  0  0  0
    9.3501    9.9724   23.7349 N   0  0  0  0  0  0  0  0  0  0  0  0
   10.1958   10.9305   23.3321 N   0  0  0  0  0  0  0  0  0  0  0  0
    9.8834   11.9946   24.0896 C   0  0  0  0  0  0  0  0  0  0  0  0
   10.6319   13.2461   23.9479 C   0  0  0  0  0  0  0  0  0  0  0  0
   10.6238   14.0675   24.7730 O   0  0  0  0  0  0  0  0  0  0  0  0
   11.2618   13.2458   22.5549 N   0  0  0  0  0  0  0  0  0  0  0  0
   11.9299   14.2773   21.8439 C   0  0  0  0  0  0  0  0  0  0  0  0
   10.9160   14.9410   20.9913 C   0  0  0  0  0  0  0  0  0  0  0  0
    9.8831   15.6550   21.5317 N   0  0  0  0  0  0  0  0  0  0  0  0
    9.3462   16.2794   20.5127 C   0  0  0  0  0  0  0  0  0  0  0  0
    9.8394   15.9120   19.3039 O   0  0  0  0  0  0  0  0  0  0  0  0
   10.8443   15.0392   19.6241 C   0  0  0  0  0  0  0  0  0  0  0  0
   11.6975   14.5348   18.5560 C   0  0  0  0  0  0  0  0  0  0  0  0
   11.1276   13.4937   17.9216 F   0  0  0  0  0  0  0  0  0  0  0  0
   12.8474   14.0284   19.0818 F   0  0  0  0  0  0  0  0  0  0  0  0
    8.7797   11.7281   24.9354 C   0  0  0  0  0  0  0  0  0  0  0  0
    8.0092   12.4726   25.8496 C   0  0  0  0  0  0  0  0  0  0  0  0
    6.9734   11.8308   26.5310 C   0  0  0  0  0  0  0  0  0  0  0  0
    5.9388   12.8035   27.7799 Br  0  0  0  0  0  0  0  0  0  0  0  0
    6.7012   10.4827   26.3209 C   0  0  0  0  0  0  0  0  0  0  0  0
    7.4519    9.7394   25.4057 C   0  0  0  0  0  0  0  0  0  0  0  0
    8.4767   10.3879   24.7109 C   0  0  0  0  0  0  0  0  0  0  0  0
  1  2  1  0
  2  3  1  0
  3  4  2  0
  4  5  1  0
  5  6  2  0
  5  7  1  0
  7  8  1  0
  8  9  1  0
  9 10  1  0
 10 11  2  0
 11 12  1  0
 12 13  1  0
 13 14  1  0
 14 15  1  0
 14 16  1  0
  4 17  1  0
 17 18  2  0
 18 19  1  0
 19 20  1  0
 19 21  2  0
 21 22  1  0
 22 23  2  0
 23  2  1  0
 13  9  2  0
 23 17  1  0
M  END
>  <energy_score>  (1318) 
-34.487028

>  <inchikey>  (1318) 
None

>  <smiles>  (1318) 
None

>  <ref_pdb>  (1318) 
A2290a

>  <alias>  (1318) 
None

>  <HIPPO Pose ID>  (1318) 
498962

>  <name>  (1318) 
P498962

>  <HIPPO Compound ID>  (1318) 
299238

>  <ref_mols>  (1318) 
A3403a,A2290a

>  <distance_score>  (1318) 
0.775454

>  <inspiration_score>  (1318) 
None

$$$$
P498963
     RDKit          3D

 23 25  0  0  0  0  0  0  0  0999 V2000
   11.7270   14.4527   18.5656 C   0  0  0  0  0  0  0  0  0  0  0  0
   10.8980   15.0043   19.6289 C   0  0  0  0  0  0  0  0  0  0  0  0
    9.8744   15.8365   19.2747 O   0  0  0  0  0  0  0  0  0  0  0  0
    9.3927   16.2666   20.4670 C   0  0  0  0  0  0  0  0  0  0  0  0
    9.9490   15.7066   21.5124 N   0  0  0  0  0  0  0  0  0  0  0  0
   10.9879   14.9844   20.9973 C   0  0  0  0  0  0  0  0  0  0  0  0
   12.0183   14.3782   21.8664 C   0  0  0  0  0  0  0  0  0  0  0  0
   11.3756   13.3282   22.5727 N   0  0  0  0  0  0  0  0  0  0  0  0
   10.7502   13.3059   23.9690 C   0  0  0  0  0  0  0  0  0  0  0  0
   10.7272   14.1217   24.7995 O   0  0  0  0  0  0  0  0  0  0  0  0
   10.0325   12.0361   24.0978 C   0  0  0  0  0  0  0  0  0  0  0  0
   10.3930   10.9938   23.3369 N   0  0  0  0  0  0  0  0  0  0  0  0
    9.5511    9.9945   23.6882 N   0  0  0  0  0  0  0  0  0  0  0  0
    9.6109    8.7197   22.9621 C   0  0  0  0  0  0  0  0  0  0  0  0
    8.4020    8.1242   22.9323 F   0  0  0  0  0  0  0  0  0  0  0  0
   10.0056    8.8984   21.6787 F   0  0  0  0  0  0  0  0  0  0  0  0
   10.4853    7.8371   23.4970 F   0  0  0  0  0  0  0  0  0  0  0  0
    8.6428   10.3869   24.6545 C   0  0  0  0  0  0  0  0  0  0  0  0
    7.6048    9.7173   25.3122 C   0  0  0  0  0  0  0  0  0  0  0  0
    6.8108   10.4395   26.2084 C   0  0  0  0  0  0  0  0  0  0  0  0
    7.0447   11.7903   26.4434 C   0  0  0  0  0  0  0  0  0  0  0  0
    8.0953   12.4487   25.7998 C   0  0  0  0  0  0  0  0  0  0  0  0
    8.9134   11.7309   24.9063 C   0  0  0  0  0  0  0  0  0  0  0  0
  1  2  1  0
  2  3  1  0
  3  4  1  0
  4  5  2  0
  5  6  1  0
  6  7  1  0
  7  8  1  0
  8  9  1  0
  9 10  2  0
  9 11  1  0
 11 12  2  0
 12 13  1  0
 13 14  1  0
 14 15  1  0
 14 16  1  0
 14 17  1  0
 13 18  1  0
 18 19  2  0
 19 20  1  0
 20 21  2  0
 21 22  1  0
 22 23  2  0
  6  2  2  0
 23 11  1  0
 23 18  1  0
M  END
>  <energy_score>  (1319) 
-4.154396

>  <inchikey>  (1319) 
None

>  <smiles>  (1319) 
None

>  <ref_pdb>  (1319) 
A2290a

>  <alias>  (1319) 
None

>  <HIPPO Pose ID>  (1319) 
498963

>  <name>  (1319) 
P498963

>  <HIPPO Compound ID>  (1319) 
299243

>  <ref_mols>  (1319) 
A3403a,A2290a

>  <distance_score>  (1319) 
0.790464

>  <inspiration_score>  (1319) 
None

$$$$
P498964
     RDKit          3D

 23 25  0  0  0  0  0  0  0  0999 V2000
    8.5362   18.0169   19.8344 C   0  0  0  0  0  0  0  0  0  0  0  0
    9.2770   16.7535   20.0766 C   0  0  0  0  0  0  0  0  0  0  0  0
    9.5519   16.1644   21.2152 N   0  0  0  0  0  0  0  0  0  0  0  0
   10.5421   15.2551   20.9223 C   0  0  0  0  0  0  0  0  0  0  0  0
   11.3878   14.7308   22.0269 C   0  0  2  0  0  0  0  0  0  0  0  0
   12.8126   14.3973   21.6939 C   0  0  0  0  0  0  0  0  0  0  0  0
   10.7790   13.6023   22.6439 N   0  0  0  0  0  0  0  0  0  0  0  0
   10.2258   13.4213   24.0540 C   0  0  0  0  0  0  0  0  0  0  0  0
   10.2444   14.1383   24.9700 O   0  0  0  0  0  0  0  0  0  0  0  0
    9.6035   12.1039   24.1300 C   0  0  0  0  0  0  0  0  0  0  0  0
    9.9946   11.1012   23.3255 N   0  0  0  0  0  0  0  0  0  0  0  0
    9.2685   10.0494   23.7373 N   0  0  0  0  0  0  0  0  0  0  0  0
    9.4733    8.7773   23.0854 C   0  0  0  0  0  0  0  0  0  0  0  0
    8.3739   10.3632   24.7331 C   0  0  0  0  0  0  0  0  0  0  0  0
    7.4207    9.6147   25.4232 C   0  0  0  0  0  0  0  0  0  0  0  0
    6.6278   10.2624   26.3753 C   0  0  0  0  0  0  0  0  0  0  0  0
    6.7943   11.6190   26.6315 C   0  0  0  0  0  0  0  0  0  0  0  0
    5.7073   12.4594   27.9300 Br  0  0  0  0  0  0  0  0  0  0  0  0
    7.7598   12.3635   25.9556 C   0  0  0  0  0  0  0  0  0  0  0  0
    8.5598   11.7144   24.9958 C   0  0  0  0  0  0  0  0  0  0  0  0
   10.6675   15.1791   19.5527 C   0  0  0  0  0  0  0  0  0  0  0  0
   11.5921   14.5114   18.6303 C   0  0  0  0  0  0  0  0  0  0  0  0
    9.8441   16.1320   19.0024 O   0  0  0  0  0  0  0  0  0  0  0  0
  1  2  1  0
  2  3  2  0
  3  4  1  0
  4  5  1  0
  5  6  1  6
  5  7  1  0
  7  8  1  0
  8  9  2  0
  8 10  1  0
 10 11  2  0
 11 12  1  0
 12 13  1  0
 12 14  1  0
 14 15  2  0
 15 16  1  0
 16 17  2  0
 17 18  1  0
 17 19  1  0
 19 20  2  0
  4 21  2  0
 21 22  1  0
 21 23  1  0
 23  2  1  0
 20 10  1  0
 20 14  1  0
M  END
>  <energy_score>  (1320) 
-8.93179

>  <inchikey>  (1320) 
None

>  <smiles>  (1320) 
None

>  <ref_pdb>  (1320) 
A2290a

>  <alias>  (1320) 
None

>  <HIPPO Pose ID>  (1320) 
498964

>  <name>  (1320) 
P498964

>  <HIPPO Compound ID>  (1320) 
299248

>  <ref_mols>  (1320) 
A3403a,A2290a

>  <distance_score>  (1320) 
0.801085

>  <inspiration_score>  (1320) 
None

$$$$
P498965
     RDKit          3D

 23 25  0  0  0  0  0  0  0  0999 V2000
    8.5988   17.4501   20.6233 C   0  0  0  0  0  0  0  0  0  0  0  0
    9.5025   16.2961   20.5109 C   0  0  0  0  0  0  0  0  0  0  0  0
    9.9526   15.5280   21.4805 N   0  0  0  0  0  0  0  0  0  0  0  0
   10.8879   14.7414   20.8701 C   0  0  0  0  0  0  0  0  0  0  0  0
   11.8320   13.8844   21.6158 C   0  0  1  0  0  0  0  0  0  0  0  0
   12.7946   14.7051   22.4130 C   0  0  0  0  0  0  0  0  0  0  0  0
   11.0759   12.9901   22.4187 N   0  0  0  0  0  0  0  0  0  0  0  0
   10.4595   13.1780   23.8051 C   0  0  0  0  0  0  0  0  0  0  0  0
   10.5344   14.0690   24.5506 O   0  0  0  0  0  0  0  0  0  0  0  0
    9.6778   11.9771   24.0771 C   0  0  0  0  0  0  0  0  0  0  0  0
    9.9346   10.8524   23.3863 N   0  0  0  0  0  0  0  0  0  0  0  0
    9.1143    9.9496   23.9226 N   0  0  0  0  0  0  0  0  0  0  0  0
    9.2525    8.5824   23.5041 C   0  0  0  0  0  0  0  0  0  0  0  0
    8.2639   10.4616   24.8704 C   0  0  0  0  0  0  0  0  0  0  0  0
    7.2368    9.8922   25.6297 C   0  0  0  0  0  0  0  0  0  0  0  0
    6.5467   10.7195   26.5192 C   0  0  0  0  0  0  0  0  0  0  0  0
    6.8763   12.0670   26.6378 C   0  0  0  0  0  0  0  0  0  0  0  0
    5.9213   13.1507   27.8587 Br  0  0  0  0  0  0  0  0  0  0  0  0
    7.9055   12.6303   25.8813 C   0  0  0  0  0  0  0  0  0  0  0  0
    8.6114   11.8040   24.9881 C   0  0  0  0  0  0  0  0  0  0  0  0
   10.8764   14.9918   19.5268 C   0  0  0  0  0  0  0  0  0  0  0  0
   11.7262   14.5142   18.4468 C   0  0  0  0  0  0  0  0  0  0  0  0
    9.9660   15.9721   19.2705 O   0  0  0  0  0  0  0  0  0  0  0  0
  1  2  1  0
  2  3  2  0
  3  4  1  0
  4  5  1  0
  5  6  1  1
  5  7  1  0
  7  8  1  0
  8  9  2  0
  8 10  1  0
 10 11  2  0
 11 12  1  0
 12 13  1  0
 12 14  1  0
 14 15  2  0
 15 16  1  0
 16 17  2  0
 17 18  1  0
 17 19  1  0
 19 20  2  0
  4 21  2  0
 21 22  1  0
 21 23  1  0
 23  2  1  0
 20 10  1  0
 20 14  1  0
M  END
>  <energy_score>  (1321) 
-34.840225

>  <inchikey>  (1321) 
None

>  <smiles>  (1321) 
None

>  <ref_pdb>  (1321) 
A2290a

>  <alias>  (1321) 
None

>  <HIPPO Pose ID>  (1321) 
498965

>  <name>  (1321) 
P498965

>  <HIPPO Compound ID>  (1321) 
299248

>  <ref_mols>  (1321) 
A3403a,A2290a

>  <distance_score>  (1321) 
0.798414

>  <inspiration_score>  (1321) 
None

$$$$
P498966
     RDKit          3D

 23 25  0  0  0  0  0  0  0  0999 V2000
    9.4702    8.6634   23.0347 C   0  0  0  0  0  0  0  0  0  0  0  0
    9.4343    9.9746   23.6353 N   0  0  0  0  0  0  0  0  0  0  0  0
   10.2938   10.8972   23.1837 N   0  0  0  0  0  0  0  0  0  0  0  0
   10.0255   11.9979   23.9026 C   0  0  0  0  0  0  0  0  0  0  0  0
   10.8115   13.2224   23.6892 C   0  0  0  0  0  0  0  0  0  0  0  0
   10.8490   14.0723   24.4855 O   0  0  0  0  0  0  0  0  0  0  0  0
   11.4062   13.1556   22.2774 N   0  0  0  0  0  0  0  0  0  0  0  0
   12.0880   14.1463   21.5109 C   0  0  0  0  0  0  0  0  0  0  0  0
   11.0623   14.8981   20.7571 C   0  0  0  0  0  0  0  0  0  0  0  0
   10.8252   14.9645   19.4065 C   0  0  0  0  0  0  0  0  0  0  0  0
    9.8589   15.9011   19.1876 O   0  0  0  0  0  0  0  0  0  0  0  0
    9.5593   16.3764   20.4374 C   0  0  0  0  0  0  0  0  0  0  0  0
    8.5606   17.4792   20.5402 C   0  0  0  0  0  0  0  0  0  0  0  0
    8.9645   18.4955   21.3360 F   0  0  0  0  0  0  0  0  0  0  0  0
    8.2601   18.0326   19.3327 F   0  0  0  0  0  0  0  0  0  0  0  0
   10.1876   15.7311   21.4030 N   0  0  0  0  0  0  0  0  0  0  0  0
    8.9346   11.7828   24.7865 C   0  0  0  0  0  0  0  0  0  0  0  0
    8.2009   12.5702   25.6953 C   0  0  0  0  0  0  0  0  0  0  0  0
    7.1644   11.9722   26.4179 C   0  0  0  0  0  0  0  0  0  0  0  0
    6.1826   13.0066   27.6605 Br  0  0  0  0  0  0  0  0  0  0  0  0
    6.8535   10.6251   26.2548 C   0  0  0  0  0  0  0  0  0  0  0  0
    7.5670    9.8357   25.3492 C   0  0  0  0  0  0  0  0  0  0  0  0
    8.5924   10.4423   24.6146 C   0  0  0  0  0  0  0  0  0  0  0  0
  1  2  1  0
  2  3  1  0
  3  4  2  0
  4  5  1  0
  5  6  2  0
  5  7  1  0
  7  8  1  0
  8  9  1  0
  9 10  2  0
 10 11  1  0
 11 12  1  0
 12 13  1  0
 13 14  1  0
 13 15  1  0
 12 16  2  0
  4 17  1  0
 17 18  2  0
 18 19  1  0
 19 20  1  0
 19 21  2  0
 21 22  1  0
 22 23  2  0
 23  2  1  0
 16  9  1  0
 23 17  1  0
M  END
>  <energy_score>  (1322) 
-27.339331

>  <inchikey>  (1322) 
None

>  <smiles>  (1322) 
None

>  <ref_pdb>  (1322) 
A2290a

>  <alias>  (1322) 
None

>  <HIPPO Pose ID>  (1322) 
498966

>  <name>  (1322) 
P498966

>  <HIPPO Compound ID>  (1322) 
299249

>  <ref_mols>  (1322) 
A3403a,A2290a

>  <distance_score>  (1322) 
0.78232

>  <inspiration_score>  (1322) 
None

$$$$
P498967
     RDKit          3D

 23 25  0  0  0  0  0  0  0  0999 V2000
    8.5196   18.8349   20.5848 C   0  0  0  0  0  0  0  0  0  0  0  0
    8.3664   17.4383   20.1425 C   0  0  0  0  0  0  0  0  0  0  0  0
    9.4827   16.4823   20.2864 C   0  0  0  0  0  0  0  0  0  0  0  0
    9.9626   15.9234   21.3758 N   0  0  0  0  0  0  0  0  0  0  0  0
   10.9371   15.0695   20.9370 C   0  0  0  0  0  0  0  0  0  0  0  0
   11.8881   14.4209   21.8631 C   0  0  0  0  0  0  0  0  0  0  0  0
   11.1979   13.3733   22.5320 N   0  0  0  0  0  0  0  0  0  0  0  0
   10.6249   13.3059   23.9477 C   0  0  0  0  0  0  0  0  0  0  0  0
   10.6902   14.0676   24.8260 O   0  0  0  0  0  0  0  0  0  0  0  0
    9.8777   12.0503   24.0675 C   0  0  0  0  0  0  0  0  0  0  0  0
   10.1949   10.9930   23.3014 N   0  0  0  0  0  0  0  0  0  0  0  0
    9.3637   10.0221   23.7117 N   0  0  0  0  0  0  0  0  0  0  0  0
    9.4613    8.7294   23.0778 C   0  0  0  0  0  0  0  0  0  0  0  0
    8.4906   10.4255   24.6936 C   0  0  0  0  0  0  0  0  0  0  0  0
    7.4771    9.7619   25.3943 C   0  0  0  0  0  0  0  0  0  0  0  0
    6.7309   10.4952   26.3202 C   0  0  0  0  0  0  0  0  0  0  0  0
    6.9988   11.8403   26.5335 C   0  0  0  0  0  0  0  0  0  0  0  0
    6.2787   12.5131   27.4414 F   0  0  0  0  0  0  0  0  0  0  0  0
    8.0176   12.4984   25.8495 C   0  0  0  0  0  0  0  0  0  0  0  0
    8.7833   11.7684   24.9214 C   0  0  0  0  0  0  0  0  0  0  0  0
   10.9067   15.0466   19.5668 C   0  0  0  0  0  0  0  0  0  0  0  0
   11.7421   14.4164   18.5562 C   0  0  0  0  0  0  0  0  0  0  0  0
    9.9671   15.9357   19.1357 O   0  0  0  0  0  0  0  0  0  0  0  0
  1  2  1  0
  2  3  1  0
  3  4  2  0
  4  5  1  0
  5  6  1  0
  6  7  1  0
  7  8  1  0
  8  9  2  0
  8 10  1  0
 10 11  2  0
 11 12  1  0
 12 13  1  0
 12 14  1  0
 14 15  2  0
 15 16  1  0
 16 17  2  0
 17 18  1  0
 17 19  1  0
 19 20  2  0
  5 21  2  0
 21 22  1  0
 21 23  1  0
 23  3  1  0
 20 10  1  0
 20 14  1  0
M  END
>  <energy_score>  (1323) 
-12.942278

>  <inchikey>  (1323) 
None

>  <smiles>  (1323) 
None

>  <ref_pdb>  (1323) 
A2290a

>  <alias>  (1323) 
None

>  <HIPPO Pose ID>  (1323) 
498967

>  <name>  (1323) 
P498967

>  <HIPPO Compound ID>  (1323) 
299250

>  <ref_mols>  (1323) 
A3403a,A2290a

>  <distance_score>  (1323) 
0.808353

>  <inspiration_score>  (1323) 
None

$$$$
P498968
     RDKit          3D

 23 25  0  0  0  0  0  0  0  0999 V2000
   12.0867   15.9903   17.2582 C   0  0  0  0  0  0  0  0  0  0  0  0
   12.5146   14.9252   18.0619 O   0  0  0  0  0  0  0  0  0  0  0  0
   11.5323   14.1834   18.6967 C   0  0  0  0  0  0  0  0  0  0  0  0
   10.7868   14.9470   19.6841 C   0  0  0  0  0  0  0  0  0  0  0  0
    9.7724   15.7671   19.2806 O   0  0  0  0  0  0  0  0  0  0  0  0
    9.3633   16.3463   20.4348 C   0  0  0  0  0  0  0  0  0  0  0  0
    9.9359   15.8666   21.5086 N   0  0  0  0  0  0  0  0  0  0  0  0
   10.9177   15.0465   21.0434 C   0  0  0  0  0  0  0  0  0  0  0  0
   11.9156   14.4263   21.9382 C   0  0  0  0  0  0  0  0  0  0  0  0
   11.2464   13.3640   22.6079 N   0  0  0  0  0  0  0  0  0  0  0  0
   10.6564   13.2925   24.0159 C   0  0  0  0  0  0  0  0  0  0  0  0
   10.6878   14.0632   24.8880 O   0  0  0  0  0  0  0  0  0  0  0  0
    9.9055   12.0373   24.1165 C   0  0  0  0  0  0  0  0  0  0  0  0
   10.2262   10.9865   23.3431 N   0  0  0  0  0  0  0  0  0  0  0  0
    9.3788   10.0184   23.7253 N   0  0  0  0  0  0  0  0  0  0  0  0
    9.4737    8.7340   23.0735 C   0  0  0  0  0  0  0  0  0  0  0  0
    8.4974   10.4159   24.7026 C   0  0  0  0  0  0  0  0  0  0  0  0
    7.4719    9.7514   25.3843 C   0  0  0  0  0  0  0  0  0  0  0  0
    6.7174   10.4798   26.3073 C   0  0  0  0  0  0  0  0  0  0  0  0
    6.9880   11.8219   26.5355 C   0  0  0  0  0  0  0  0  0  0  0  0
    6.2587   12.4893   27.4401 F   0  0  0  0  0  0  0  0  0  0  0  0
    8.0188   12.4808   25.8711 C   0  0  0  0  0  0  0  0  0  0  0  0
    8.7950   11.7545   24.9488 C   0  0  0  0  0  0  0  0  0  0  0  0
  1  2  1  0
  2  3  1  0
  3  4  1  0
  4  5  1  0
  5  6  1  0
  6  7  2  0
  7  8  1  0
  8  9  1  0
  9 10  1  0
 10 11  1  0
 11 12  2  0
 11 13  1  0
 13 14  2  0
 14 15  1  0
 15 16  1  0
 15 17  1  0
 17 18  2  0
 18 19  1  0
 19 20  2  0
 20 21  1  0
 20 22  1  0
 22 23  2  0
  8  4  2  0
 23 13  1  0
 23 17  1  0
M  END
>  <energy_score>  (1324) 
-15.992753

>  <inchikey>  (1324) 
None

>  <smiles>  (1324) 
None

>  <ref_pdb>  (1324) 
A2290a

>  <alias>  (1324) 
None

>  <HIPPO Pose ID>  (1324) 
498968

>  <name>  (1324) 
P498968

>  <HIPPO Compound ID>  (1324) 
299251

>  <ref_mols>  (1324) 
A3403a,A2290a

>  <distance_score>  (1324) 
0.861374

>  <inspiration_score>  (1324) 
None

$$$$
P498969
     RDKit          3D

 23 25  0  0  0  0  0  0  0  0999 V2000
    9.5242    8.7286   23.0288 C   0  0  0  0  0  0  0  0  0  0  0  0
    9.3977   10.0417   23.6139 N   0  0  0  0  0  0  0  0  0  0  0  0
   10.1663   11.0321   23.1317 N   0  0  0  0  0  0  0  0  0  0  0  0
    9.8485   12.0984   23.8823 C   0  0  0  0  0  0  0  0  0  0  0  0
   10.5353   13.3843   23.7040 C   0  0  0  0  0  0  0  0  0  0  0  0
   10.5759   14.1591   24.5724 O   0  0  0  0  0  0  0  0  0  0  0  0
   11.0532   13.4764   22.2652 N   0  0  0  0  0  0  0  0  0  0  0  0
   11.6438   14.5671   21.5604 C   0  0  0  0  0  0  0  0  0  0  0  0
   10.6397   15.2264   20.6844 C   0  0  0  0  0  0  0  0  0  0  0  0
   10.5262   15.1479   19.3199 C   0  0  0  0  0  0  0  0  0  0  0  0
    9.6817   16.1276   18.8956 O   0  0  0  0  0  0  0  0  0  0  0  0
    9.3190   16.7972   20.0367 C   0  0  0  0  0  0  0  0  0  0  0  0
    8.5976   18.1094   19.8457 C   0  0  0  0  0  0  0  0  0  0  0  0
    7.2781   17.9967   19.5868 F   0  0  0  0  0  0  0  0  0  0  0  0
    9.0881   18.7720   18.7566 F   0  0  0  0  0  0  0  0  0  0  0  0
    9.7981   16.2246   21.1319 N   0  0  0  0  0  0  0  0  0  0  0  0
    8.8039   11.7994   24.7966 C   0  0  0  0  0  0  0  0  0  0  0  0
    8.0541   12.5251   25.7417 C   0  0  0  0  0  0  0  0  0  0  0  0
    7.0755   11.8547   26.4720 C   0  0  0  0  0  0  0  0  0  0  0  0
    6.3699   12.5262   27.3922 F   0  0  0  0  0  0  0  0  0  0  0  0
    6.8317   10.5005   26.2894 C   0  0  0  0  0  0  0  0  0  0  0  0
    7.5679    9.7679   25.3551 C   0  0  0  0  0  0  0  0  0  0  0  0
    8.5422   10.4441   24.6109 C   0  0  0  0  0  0  0  0  0  0  0  0
  1  2  1  0
  2  3  1  0
  3  4  2  0
  4  5  1  0
  5  6  2  0
  5  7  1  0
  7  8  1  0
  8  9  1  0
  9 10  2  0
 10 11  1  0
 11 12  1  0
 12 13  1  0
 13 14  1  0
 13 15  1  0
 12 16  2  0
  4 17  1  0
 17 18  2  0
 18 19  1  0
 19 20  1  0
 19 21  2  0
 21 22  1  0
 22 23  2  0
 23  2  1  0
 16  9  1  0
 23 17  1  0
M  END
>  <energy_score>  (1325) 
-3.804621

>  <inchikey>  (1325) 
None

>  <smiles>  (1325) 
None

>  <ref_pdb>  (1325) 
A2290a

>  <alias>  (1325) 
None

>  <HIPPO Pose ID>  (1325) 
498969

>  <name>  (1325) 
P498969

>  <HIPPO Compound ID>  (1325) 
299253

>  <ref_mols>  (1325) 
A3403a,A2290a

>  <distance_score>  (1325) 
0.663847

>  <inspiration_score>  (1325) 
None

$$$$
P498970
     RDKit          3D

 23 25  0  0  0  0  0  0  0  0999 V2000
    8.5333   18.0373   19.7938 C   0  0  0  0  0  0  0  0  0  0  0  0
    9.2780   16.7785   20.0473 C   0  0  0  0  0  0  0  0  0  0  0  0
    9.5505   16.2001   21.1916 N   0  0  0  0  0  0  0  0  0  0  0  0
   10.5322   15.2777   20.9080 C   0  0  0  0  0  0  0  0  0  0  0  0
   11.3489   14.7324   22.0230 C   0  0  2  0  0  0  0  0  0  0  0  0
   12.7644   14.3364   21.7137 C   0  0  0  0  0  0  0  0  0  0  0  0
   10.6751   13.6397   22.6344 N   0  0  0  0  0  0  0  0  0  0  0  0
   10.2616   13.4161   24.0859 C   0  0  0  0  0  0  0  0  0  0  0  0
   10.3345   14.1210   25.0087 O   0  0  0  0  0  0  0  0  0  0  0  0
    9.6352   12.1019   24.1723 C   0  0  0  0  0  0  0  0  0  0  0  0
   10.0124   11.0978   23.3632 N   0  0  0  0  0  0  0  0  0  0  0  0
    9.2638   10.0565   23.7637 N   0  0  0  0  0  0  0  0  0  0  0  0
    9.4480    8.7860   23.1027 C   0  0  0  0  0  0  0  0  0  0  0  0
    8.3724   10.3787   24.7604 C   0  0  0  0  0  0  0  0  0  0  0  0
    7.3982    9.6436   25.4387 C   0  0  0  0  0  0  0  0  0  0  0  0
    6.6171   10.3021   26.3921 C   0  0  0  0  0  0  0  0  0  0  0  0
    6.8158   11.6490   26.6575 C   0  0  0  0  0  0  0  0  0  0  0  0
    6.0637   12.2487   27.5902 F   0  0  0  0  0  0  0  0  0  0  0  0
    7.7938   12.3819   25.9949 C   0  0  0  0  0  0  0  0  0  0  0  0
    8.5853   11.7248   25.0352 C   0  0  0  0  0  0  0  0  0  0  0  0
   10.6661   15.1953   19.5401 C   0  0  0  0  0  0  0  0  0  0  0  0
   11.5925   14.5148   18.6291 C   0  0  0  0  0  0  0  0  0  0  0  0
    9.8501   16.1493   18.9800 O   0  0  0  0  0  0  0  0  0  0  0  0
  1  2  1  0
  2  3  2  0
  3  4  1  0
  4  5  1  0
  5  6  1  6
  5  7  1  0
  7  8  1  0
  8  9  2  0
  8 10  1  0
 10 11  2  0
 11 12  1  0
 12 13  1  0
 12 14  1  0
 14 15  2  0
 15 16  1  0
 16 17  2  0
 17 18  1  0
 17 19  1  0
 19 20  2  0
  4 21  2  0
 21 22  1  0
 21 23  1  0
 23  2  1  0
 20 10  1  0
 20 14  1  0
M  END
>  <energy_score>  (1326) 
-8.546552

>  <inchikey>  (1326) 
None

>  <smiles>  (1326) 
None

>  <ref_pdb>  (1326) 
A2290a

>  <alias>  (1326) 
None

>  <HIPPO Pose ID>  (1326) 
498970

>  <name>  (1326) 
P498970

>  <HIPPO Compound ID>  (1326) 
299254

>  <ref_mols>  (1326) 
A3403a,A2290a

>  <distance_score>  (1326) 
0.841033

>  <inspiration_score>  (1326) 
None

$$$$
P498971
     RDKit          3D

 23 25  0  0  0  0  0  0  0  0999 V2000
    8.5971   17.4291   20.6458 C   0  0  0  0  0  0  0  0  0  0  0  0
    9.5020   16.2767   20.5237 C   0  0  0  0  0  0  0  0  0  0  0  0
    9.9629   15.5070   21.4876 N   0  0  0  0  0  0  0  0  0  0  0  0
   10.9027   14.7331   20.8684 C   0  0  0  0  0  0  0  0  0  0  0  0
   11.8764   13.8978   21.6003 C   0  0  1  0  0  0  0  0  0  0  0  0
   12.8263   14.7387   22.3880 C   0  0  0  0  0  0  0  0  0  0  0  0
   11.1678   12.9715   22.4082 N   0  0  0  0  0  0  0  0  0  0  0  0
   10.5177   13.1440   23.7825 C   0  0  0  0  0  0  0  0  0  0  0  0
   10.5226   14.0516   24.5118 O   0  0  0  0  0  0  0  0  0  0  0  0
    9.7681   11.9174   24.0362 C   0  0  0  0  0  0  0  0  0  0  0  0
   10.0540   10.8185   23.3188 N   0  0  0  0  0  0  0  0  0  0  0  0
    9.2243    9.8861   23.7854 N   0  0  0  0  0  0  0  0  0  0  0  0
    9.2795    8.5905   23.1603 C   0  0  0  0  0  0  0  0  0  0  0  0
    8.3751   10.3481   24.7614 C   0  0  0  0  0  0  0  0  0  0  0  0
    7.3520    9.7419   25.4964 C   0  0  0  0  0  0  0  0  0  0  0  0
    6.6430   10.5283   26.4078 C   0  0  0  0  0  0  0  0  0  0  0  0
    6.9500   11.8725   26.5687 C   0  0  0  0  0  0  0  0  0  0  0  0
    6.2605   12.5957   27.4610 F   0  0  0  0  0  0  0  0  0  0  0  0
    7.9704   12.4791   25.8424 C   0  0  0  0  0  0  0  0  0  0  0  0
    8.7001   11.6941   24.9319 C   0  0  0  0  0  0  0  0  0  0  0  0
   10.8773   14.9856   19.5255 C   0  0  0  0  0  0  0  0  0  0  0  0
   11.7258   14.5196   18.4394 C   0  0  0  0  0  0  0  0  0  0  0  0
    9.9575   15.9589   19.2786 O   0  0  0  0  0  0  0  0  0  0  0  0
  1  2  1  0
  2  3  2  0
  3  4  1  0
  4  5  1  0
  5  6  1  1
  5  7  1  0
  7  8  1  0
  8  9  2  0
  8 10  1  0
 10 11  2  0
 11 12  1  0
 12 13  1  0
 12 14  1  0
 14 15  2  0
 15 16  1  0
 16 17  2  0
 17 18  1  0
 17 19  1  0
 19 20  2  0
  4 21  2  0
 21 22  1  0
 21 23  1  0
 23  2  1  0
 20 10  1  0
 20 14  1  0
M  END
>  <energy_score>  (1327) 
-7.691867

>  <inchikey>  (1327) 
None

>  <smiles>  (1327) 
None

>  <ref_pdb>  (1327) 
A2290a

>  <alias>  (1327) 
None

>  <HIPPO Pose ID>  (1327) 
498971

>  <name>  (1327) 
P498971

>  <HIPPO Compound ID>  (1327) 
299254

>  <ref_mols>  (1327) 
A3403a,A2290a

>  <distance_score>  (1327) 
0.784659

>  <inspiration_score>  (1327) 
None

$$$$
P498972
     RDKit          3D

 23 25  0  0  0  0  0  0  0  0999 V2000
    8.3797   18.2333   19.1462 C   0  0  0  0  0  0  0  0  0  0  0  0
    8.6189   17.5489   20.4826 C   0  0  0  0  0  0  0  0  0  0  0  0
    9.5454   16.3902   20.4577 C   0  0  0  0  0  0  0  0  0  0  0  0
   10.0425   15.7456   21.4920 N   0  0  0  0  0  0  0  0  0  0  0  0
   11.0076   14.9375   20.9679 C   0  0  0  0  0  0  0  0  0  0  0  0
   11.9964   14.2514   21.8249 C   0  0  0  0  0  0  0  0  0  0  0  0
   11.3082   13.2278   22.5291 N   0  0  0  0  0  0  0  0  0  0  0  0
   10.6664   13.2349   23.9171 C   0  0  0  0  0  0  0  0  0  0  0  0
   10.6623   14.0554   24.7432 O   0  0  0  0  0  0  0  0  0  0  0  0
    9.9016   11.9915   24.0542 C   0  0  0  0  0  0  0  0  0  0  0  0
   10.2050   10.9253   23.2960 N   0  0  0  0  0  0  0  0  0  0  0  0
    9.3651    9.9677   23.7100 N   0  0  0  0  0  0  0  0  0  0  0  0
    9.4444    8.6768   23.0710 C   0  0  0  0  0  0  0  0  0  0  0  0
    8.4946   10.3877   24.6866 C   0  0  0  0  0  0  0  0  0  0  0  0
    7.4759    9.7401   25.3916 C   0  0  0  0  0  0  0  0  0  0  0  0
    6.7301   10.4866   26.3080 C   0  0  0  0  0  0  0  0  0  0  0  0
    7.0012   11.8367   26.5090 C   0  0  0  0  0  0  0  0  0  0  0  0
    5.9721   12.8133   27.7593 Br  0  0  0  0  0  0  0  0  0  0  0  0
    8.0325   12.4769   25.8190 C   0  0  0  0  0  0  0  0  0  0  0  0
    8.7983   11.7295   24.9031 C   0  0  0  0  0  0  0  0  0  0  0  0
   10.9264   14.9949   19.6012 C   0  0  0  0  0  0  0  0  0  0  0  0
   11.7374   14.4310   18.5334 C   0  0  0  0  0  0  0  0  0  0  0  0
    9.9715   15.9072   19.2564 O   0  0  0  0  0  0  0  0  0  0  0  0
  1  2  1  0
  2  3  1  0
  3  4  2  0
  4  5  1  0
  5  6  1  0
  6  7  1  0
  7  8  1  0
  8  9  2  0
  8 10  1  0
 10 11  2  0
 11 12  1  0
 12 13  1  0
 12 14  1  0
 14 15  2  0
 15 16  1  0
 16 17  2  0
 17 18  1  0
 17 19  1  0
 19 20  2  0
  5 21  2  0
 21 22  1  0
 21 23  1  0
 23  3  1  0
 20 10  1  0
 20 14  1  0
M  END
>  <energy_score>  (1328) 
-32.00773

>  <inchikey>  (1328) 
None

>  <smiles>  (1328) 
None

>  <ref_pdb>  (1328) 
A2290a

>  <alias>  (1328) 
None

>  <HIPPO Pose ID>  (1328) 
498972

>  <name>  (1328) 
P498972

>  <HIPPO Compound ID>  (1328) 
299255

>  <ref_mols>  (1328) 
A3403a,A2290a

>  <distance_score>  (1328) 
0.746494

>  <inspiration_score>  (1328) 
None

$$$$
P498973
     RDKit          3D

 23 25  0  0  0  0  0  0  0  0999 V2000
    9.4486    8.7074   23.0791 C   0  0  0  0  0  0  0  0  0  0  0  0
    9.3631    9.9971   23.7206 N   0  0  0  0  0  0  0  0  0  0  0  0
   10.2048   10.9602   23.3159 N   0  0  0  0  0  0  0  0  0  0  0  0
    9.8957   12.0193   24.0826 C   0  0  0  0  0  0  0  0  0  0  0  0
   10.6501   13.2695   23.9573 C   0  0  0  0  0  0  0  0  0  0  0  0
   10.6849   14.0582   24.8130 O   0  0  0  0  0  0  0  0  0  0  0  0
   11.2483   13.3051   22.5510 N   0  0  0  0  0  0  0  0  0  0  0  0
   11.9314   14.3449   21.8634 C   0  0  0  0  0  0  0  0  0  0  0  0
   10.9382   14.9888   20.9758 C   0  0  0  0  0  0  0  0  0  0  0  0
    9.9272   15.7599   21.4774 N   0  0  0  0  0  0  0  0  0  0  0  0
    9.3907   16.3272   20.4264 C   0  0  0  0  0  0  0  0  0  0  0  0
    9.8547   15.8604   19.2406 O   0  0  0  0  0  0  0  0  0  0  0  0
   10.8533   14.9969   19.6064 C   0  0  0  0  0  0  0  0  0  0  0  0
   11.6520   14.3707   18.5620 C   0  0  0  0  0  0  0  0  0  0  0  0
   12.6685   13.6408   19.1016 F   0  0  0  0  0  0  0  0  0  0  0  0
   12.2608   15.2693   17.7662 F   0  0  0  0  0  0  0  0  0  0  0  0
    8.7939   11.7482   24.9298 C   0  0  0  0  0  0  0  0  0  0  0  0
    8.0288   12.4858   25.8523 C   0  0  0  0  0  0  0  0  0  0  0  0
    7.0004   11.8372   26.5307 C   0  0  0  0  0  0  0  0  0  0  0  0
    6.2808   12.5162   27.4343 F   0  0  0  0  0  0  0  0  0  0  0  0
    6.7217   10.4946   26.3161 C   0  0  0  0  0  0  0  0  0  0  0  0
    7.4660    9.7545   25.3942 C   0  0  0  0  0  0  0  0  0  0  0  0
    8.4897   10.4082   24.6993 C   0  0  0  0  0  0  0  0  0  0  0  0
  1  2  1  0
  2  3  1  0
  3  4  2  0
  4  5  1  0
  5  6  2  0
  5  7  1  0
  7  8  1  0
  8  9  1  0
  9 10  1  0
 10 11  2  0
 11 12  1  0
 12 13  1  0
 13 14  1  0
 14 15  1  0
 14 16  1  0
  4 17  1  0
 17 18  2  0
 18 19  1  0
 19 20  1  0
 19 21  2  0
 21 22  1  0
 22 23  2  0
 23  2  1  0
 13  9  2  0
 23 17  1  0
M  END
>  <energy_score>  (1329) 
-34.201563

>  <inchikey>  (1329) 
None

>  <smiles>  (1329) 
None

>  <ref_pdb>  (1329) 
A2290a

>  <alias>  (1329) 
None

>  <HIPPO Pose ID>  (1329) 
498973

>  <name>  (1329) 
P498973

>  <HIPPO Compound ID>  (1329) 
299260

>  <ref_mols>  (1329) 
A3403a,A2290a

>  <distance_score>  (1329) 
0.758804

>  <inspiration_score>  (1329) 
None

$$$$
P498974
     RDKit          3D

 24 26  0  0  0  0  0  0  0  0999 V2000
    8.6471   17.7691   20.9236 C   0  0  0  0  0  0  0  0  0  0  0  0
    8.4811   17.5540   19.5117 N   0  0  0  0  0  0  0  0  0  0  0  0
    8.1407   18.7485   18.8104 C   0  0  0  0  0  0  0  0  0  0  0  0
    9.4754   16.7544   18.7943 C   0  0  0  0  0  0  0  0  0  0  0  0
   10.1686   15.6786   19.5650 C   0  0  0  0  0  0  0  0  0  0  0  0
   10.2797   15.4845   20.8697 N   0  0  0  0  0  0  0  0  0  0  0  0
   11.4196   14.7294   20.9913 C   0  0  0  0  0  0  0  0  0  0  0  0
   12.0299   14.4328   22.2922 C   0  0  0  0  0  0  0  0  0  0  0  0
   11.2717   13.3906   22.8849 N   0  0  0  0  0  0  0  0  0  0  0  0
   10.5627   13.3238   24.2329 C   0  0  0  0  0  0  0  0  0  0  0  0
   10.5455   14.0820   25.1150 O   0  0  0  0  0  0  0  0  0  0  0  0
    9.8110   12.0666   24.2633 C   0  0  0  0  0  0  0  0  0  0  0  0
   10.1670   11.0396   23.4703 N   0  0  0  0  0  0  0  0  0  0  0  0
    9.3167   10.0542   23.8010 N   0  0  0  0  0  0  0  0  0  0  0  0
    9.4419    8.7879   23.1185 C   0  0  0  0  0  0  0  0  0  0  0  0
    8.4131   10.4164   24.7720 C   0  0  0  0  0  0  0  0  0  0  0  0
    7.3877    9.7229   25.4220 C   0  0  0  0  0  0  0  0  0  0  0  0
    6.6086   10.4176   26.3506 C   0  0  0  0  0  0  0  0  0  0  0  0
    6.8543   11.7574   26.6147 C   0  0  0  0  0  0  0  0  0  0  0  0
    6.1005   12.3925   27.5225 F   0  0  0  0  0  0  0  0  0  0  0  0
    7.8855   12.4458   25.9838 C   0  0  0  0  0  0  0  0  0  0  0  0
    8.6853   11.7519   25.0574 C   0  0  0  0  0  0  0  0  0  0  0  0
   11.8695   14.3835   19.7473 C   0  0  0  0  0  0  0  0  0  0  0  0
   11.0704   14.9620   18.8305 O   0  0  0  0  0  0  0  0  0  0  0  0
  1  2  1  0
  2  3  1  0
  2  4  1  0
  4  5  1  0
  5  6  2  0
  6  7  1  0
  7  8  1  0
  8  9  1  0
  9 10  1  0
 10 11  2  0
 10 12  1  0
 12 13  2  0
 13 14  1  0
 14 15  1  0
 14 16  1  0
 16 17  2  0
 17 18  1  0
 18 19  2  0
 19 20  1  0
 19 21  1  0
 21 22  2  0
  7 23  2  0
 23 24  1  0
 24  5  1  0
 22 12  1  0
 22 16  1  0
M  END
>  <energy_score>  (1330) 
-34.032129

>  <inchikey>  (1330) 
None

>  <smiles>  (1330) 
None

>  <ref_pdb>  (1330) 
A2290a

>  <alias>  (1330) 
None

>  <HIPPO Pose ID>  (1330) 
498974

>  <name>  (1330) 
P498974

>  <HIPPO Compound ID>  (1330) 
299262

>  <ref_mols>  (1330) 
A3403a,A2290a

>  <distance_score>  (1330) 
1.002493

>  <inspiration_score>  (1330) 
None

$$$$
P498975
     RDKit          3D

 24 27  0  0  0  0  0  0  0  0999 V2000
   11.7888   14.2757   18.6240 C   0  0  0  0  0  0  0  0  0  0  0  0
   10.8470   14.9637   19.4818 C   0  0  0  0  0  0  0  0  0  0  0  0
    9.9497   15.7294   18.8279 O   0  0  0  0  0  0  0  0  0  0  0  0
    9.4435   16.5316   19.7844 C   0  0  0  0  0  0  0  0  0  0  0  0
    8.9091   17.9185   19.3669 C   0  0  0  0  0  0  0  0  0  0  0  0
    7.5390   18.4734   19.4033 C   0  0  0  0  0  0  0  0  0  0  0  0
    8.4452   18.7543   20.5205 C   0  0  0  0  0  0  0  0  0  0  0  0
    9.7695   16.1614   21.0110 N   0  0  0  0  0  0  0  0  0  0  0  0
   10.7273   15.1848   20.8275 C   0  0  0  0  0  0  0  0  0  0  0  0
   11.6135   14.6950   21.9071 C   0  0  0  0  0  0  0  0  0  0  0  0
   10.9994   13.5785   22.5430 N   0  0  0  0  0  0  0  0  0  0  0  0
   10.4953   13.4043   23.9753 C   0  0  0  0  0  0  0  0  0  0  0  0
   10.5680   14.1165   24.8933 O   0  0  0  0  0  0  0  0  0  0  0  0
    9.8059   12.1140   24.0679 C   0  0  0  0  0  0  0  0  0  0  0  0
   10.1485   11.0817   23.2784 N   0  0  0  0  0  0  0  0  0  0  0  0
    9.3662   10.0717   23.6975 N   0  0  0  0  0  0  0  0  0  0  0  0
    9.5171    8.7802   23.0704 C   0  0  0  0  0  0  0  0  0  0  0  0
    8.4835   10.4342   24.6867 C   0  0  0  0  0  0  0  0  0  0  0  0
    7.4948    9.7300   25.3824 C   0  0  0  0  0  0  0  0  0  0  0  0
    6.7305   10.4264   26.3220 C   0  0  0  0  0  0  0  0  0  0  0  0
    6.9599   11.7749   26.5565 C   0  0  0  0  0  0  0  0  0  0  0  0
    6.2248   12.4107   27.4788 F   0  0  0  0  0  0  0  0  0  0  0  0
    7.9543   12.4732   25.8775 C   0  0  0  0  0  0  0  0  0  0  0  0
    8.7331   11.7814   24.9312 C   0  0  0  0  0  0  0  0  0  0  0  0
  1  2  1  0
  2  3  1  0
  3  4  1  0
  4  5  1  0
  5  6  1  0
  6  7  1  0
  4  8  2  0
  8  9  1  0
  9 10  1  0
 10 11  1  0
 11 12  1  0
 12 13  2  0
 12 14  1  0
 14 15  2  0
 15 16  1  0
 16 17  1  0
 16 18  1  0
 18 19  2  0
 19 20  1  0
 20 21  2  0
 21 22  1  0
 21 23  1  0
 23 24  2  0
  9  2  2  0
 24 14  1  0
  7  5  1  0
 24 18  1  0
M  END
>  <energy_score>  (1331) 
-19.449693

>  <inchikey>  (1331) 
None

>  <smiles>  (1331) 
None

>  <ref_pdb>  (1331) 
A2290a

>  <alias>  (1331) 
None

>  <HIPPO Pose ID>  (1331) 
498975

>  <name>  (1331) 
P498975

>  <HIPPO Compound ID>  (1331) 
299263

>  <ref_mols>  (1331) 
A3403a,A2290a

>  <distance_score>  (1331) 
0.740246

>  <inspiration_score>  (1331) 
None

$$$$
P498976
     RDKit          3D

 24 26  0  0  0  0  0  0  0  0999 V2000
   11.7738   14.3797   18.5645 C   0  0  0  0  0  0  0  0  0  0  0  0
   10.9222   14.9796   19.5765 C   0  0  0  0  0  0  0  0  0  0  0  0
    9.9676   15.8375   19.1336 O   0  0  0  0  0  0  0  0  0  0  0  0
    9.4715   16.3909   20.2719 C   0  0  0  0  0  0  0  0  0  0  0  0
    8.5266   17.5239   20.1085 C   0  0  0  0  0  0  0  0  0  0  0  0
    8.5329   18.1609   18.7321 C   0  0  0  0  0  0  0  0  0  0  0  0
    8.6041   18.5150   21.2047 C   0  0  0  0  0  0  0  0  0  0  0  0
    9.9298   15.8313   21.3722 N   0  0  0  0  0  0  0  0  0  0  0  0
   10.9357   15.0048   20.9462 C   0  0  0  0  0  0  0  0  0  0  0  0
   11.9044   14.3926   21.8802 C   0  0  0  0  0  0  0  0  0  0  0  0
   11.2418   13.3350   22.5605 N   0  0  0  0  0  0  0  0  0  0  0  0
   10.6076   13.2911   23.9507 C   0  0  0  0  0  0  0  0  0  0  0  0
   10.5901   14.0889   24.7983 O   0  0  0  0  0  0  0  0  0  0  0  0
    9.8695   12.0299   24.0670 C   0  0  0  0  0  0  0  0  0  0  0  0
   10.1900   10.9774   23.2973 N   0  0  0  0  0  0  0  0  0  0  0  0
    9.3687    9.9994   23.7047 N   0  0  0  0  0  0  0  0  0  0  0  0
    9.4764    8.7107   23.0636 C   0  0  0  0  0  0  0  0  0  0  0  0
    8.4900   10.3961   24.6850 C   0  0  0  0  0  0  0  0  0  0  0  0
    7.4809    9.7251   25.3840 C   0  0  0  0  0  0  0  0  0  0  0  0
    6.7284   10.4517   26.3099 C   0  0  0  0  0  0  0  0  0  0  0  0
    6.9851   11.7989   26.5241 C   0  0  0  0  0  0  0  0  0  0  0  0
    6.2562   12.4644   27.4301 F   0  0  0  0  0  0  0  0  0  0  0  0
    8.0000   12.4647   25.8426 C   0  0  0  0  0  0  0  0  0  0  0  0
    8.7730   11.7406   24.9158 C   0  0  0  0  0  0  0  0  0  0  0  0
  1  2  1  0
  2  3  1  0
  3  4  1  0
  4  5  1  0
  5  6  1  0
  5  7  1  0
  4  8  2  0
  8  9  1  0
  9 10  1  0
 10 11  1  0
 11 12  1  0
 12 13  2  0
 12 14  1  0
 14 15  2  0
 15 16  1  0
 16 17  1  0
 16 18  1  0
 18 19  2  0
 19 20  1  0
 20 21  2  0
 21 22  1  0
 21 23  1  0
 23 24  2  0
  9  2  2  0
 24 14  1  0
 24 18  1  0
M  END
>  <energy_score>  (1332) 
-12.005461

>  <inchikey>  (1332) 
None

>  <smiles>  (1332) 
None

>  <ref_pdb>  (1332) 
A2290a

>  <alias>  (1332) 
None

>  <HIPPO Pose ID>  (1332) 
498976

>  <name>  (1332) 
P498976

>  <HIPPO Compound ID>  (1332) 
299264

>  <ref_mols>  (1332) 
A3403a,A2290a

>  <distance_score>  (1332) 
0.743637

>  <inspiration_score>  (1332) 
None

$$$$
P498977
     RDKit          3D

 24 26  0  0  0  0  0  0  0  0999 V2000
    9.4574    8.7108   23.0852 C   0  0  0  0  0  0  0  0  0  0  0  0
    9.3518    9.9973   23.7300 N   0  0  0  0  0  0  0  0  0  0  0  0
   10.1744   10.9754   23.3234 N   0  0  0  0  0  0  0  0  0  0  0  0
    9.8538   12.0252   24.0983 C   0  0  0  0  0  0  0  0  0  0  0  0
   10.5920   13.2845   23.9826 C   0  0  0  0  0  0  0  0  0  0  0  0
   10.6161   14.0674   24.8434 O   0  0  0  0  0  0  0  0  0  0  0  0
   11.1963   13.3344   22.5801 N   0  0  0  0  0  0  0  0  0  0  0  0
   11.8731   14.3831   21.9037 C   0  0  0  0  0  0  0  0  0  0  0  0
   10.8914   15.0100   20.9897 C   0  0  0  0  0  0  0  0  0  0  0  0
    9.8655   15.7774   21.4639 N   0  0  0  0  0  0  0  0  0  0  0  0
    9.3639   16.3545   20.4011 C   0  0  0  0  0  0  0  0  0  0  0  0
    9.8636   15.8953   19.2271 O   0  0  0  0  0  0  0  0  0  0  0  0
   10.8472   15.0235   19.6179 C   0  0  0  0  0  0  0  0  0  0  0  0
   11.7073   14.4172   18.6120 C   0  0  0  0  0  0  0  0  0  0  0  0
   12.7736   13.8035   19.1971 F   0  0  0  0  0  0  0  0  0  0  0  0
   12.2347   15.2969   17.7458 F   0  0  0  0  0  0  0  0  0  0  0  0
   11.0886   13.4597   17.9046 F   0  0  0  0  0  0  0  0  0  0  0  0
    8.7565   11.7367   24.9440 C   0  0  0  0  0  0  0  0  0  0  0  0
    7.9832   12.4610   25.8700 C   0  0  0  0  0  0  0  0  0  0  0  0
    6.9649   11.7964   26.5474 C   0  0  0  0  0  0  0  0  0  0  0  0
    6.2359   12.4626   27.4528 F   0  0  0  0  0  0  0  0  0  0  0  0
    6.7057   10.4504   26.3295 C   0  0  0  0  0  0  0  0  0  0  0  0
    7.4586    9.7242   25.4035 C   0  0  0  0  0  0  0  0  0  0  0  0
    8.4712   10.3937   24.7084 C   0  0  0  0  0  0  0  0  0  0  0  0
  1  2  1  0
  2  3  1  0
  3  4  2  0
  4  5  1  0
  5  6  2  0
  5  7  1  0
  7  8  1  0
  8  9  1  0
  9 10  1  0
 10 11  2  0
 11 12  1  0
 12 13  1  0
 13 14  1  0
 14 15  1  0
 14 16  1  0
 14 17  1  0
  4 18  1  0
 18 19  2  0
 19 20  1  0
 20 21  1  0
 20 22  2  0
 22 23  1  0
 23 24  2  0
 24  2  1  0
 13  9  2  0
 24 18  1  0
M  END
>  <energy_score>  (1333) 
-36.883768

>  <inchikey>  (1333) 
None

>  <smiles>  (1333) 
None

>  <ref_pdb>  (1333) 
A2290a

>  <alias>  (1333) 
None

>  <HIPPO Pose ID>  (1333) 
498977

>  <name>  (1333) 
P498977

>  <HIPPO Compound ID>  (1333) 
299266

>  <ref_mols>  (1333) 
A3403a,A2290a

>  <distance_score>  (1333) 
0.769355

>  <inspiration_score>  (1333) 
None

$$$$
P498978
     RDKit          3D

 24 26  0  0  0  0  0  0  0  0999 V2000
    9.5244    8.7128   23.0307 C   0  0  0  0  0  0  0  0  0  0  0  0
    9.3972   10.0208   23.6274 N   0  0  0  0  0  0  0  0  0  0  0  0
   10.1602   11.0163   23.1481 N   0  0  0  0  0  0  0  0  0  0  0  0
    9.8359   12.0783   23.9018 C   0  0  0  0  0  0  0  0  0  0  0  0
   10.5011   13.3699   23.7082 C   0  0  0  0  0  0  0  0  0  0  0  0
   10.6003   14.1316   24.5831 O   0  0  0  0  0  0  0  0  0  0  0  0
   10.8893   13.4963   22.2331 N   0  0  0  0  0  0  0  0  0  0  0  0
   11.5642   14.5421   21.5393 C   0  0  0  0  0  0  0  0  0  0  0  0
   10.6003   15.2415   20.6533 C   0  0  0  0  0  0  0  0  0  0  0  0
   10.5145   15.2014   19.2860 C   0  0  0  0  0  0  0  0  0  0  0  0
    9.6803   16.1953   18.8724 O   0  0  0  0  0  0  0  0  0  0  0  0
    9.2877   16.8297   20.0280 C   0  0  0  0  0  0  0  0  0  0  0  0
    8.5371   18.1343   19.8594 C   0  0  0  0  0  0  0  0  0  0  0  0
    8.5793   18.8912   20.9796 F   0  0  0  0  0  0  0  0  0  0  0  0
    9.0617   18.8736   18.8420 F   0  0  0  0  0  0  0  0  0  0  0  0
    7.2354   18.0104   19.5365 F   0  0  0  0  0  0  0  0  0  0  0  0
    9.7423   16.2162   21.1141 N   0  0  0  0  0  0  0  0  0  0  0  0
    8.7945   11.7738   24.8150 C   0  0  0  0  0  0  0  0  0  0  0  0
    8.0386   12.4968   25.7569 C   0  0  0  0  0  0  0  0  0  0  0  0
    7.0599   11.8219   26.4824 C   0  0  0  0  0  0  0  0  0  0  0  0
    6.3462   12.4890   27.3993 F   0  0  0  0  0  0  0  0  0  0  0  0
    6.8220   10.4668   26.2972 C   0  0  0  0  0  0  0  0  0  0  0  0
    7.5628    9.7385   25.3630 C   0  0  0  0  0  0  0  0  0  0  0  0
    8.5374   10.4184   24.6235 C   0  0  0  0  0  0  0  0  0  0  0  0
  1  2  1  0
  2  3  1  0
  3  4  2  0
  4  5  1  0
  5  6  2  0
  5  7  1  0
  7  8  1  0
  8  9  1  0
  9 10  2  0
 10 11  1  0
 11 12  1  0
 12 13  1  0
 13 14  1  0
 13 15  1  0
 13 16  1  0
 12 17  2  0
  4 18  1  0
 18 19  2  0
 19 20  1  0
 20 21  1  0
 20 22  2  0
 22 23  1  0
 23 24  2  0
 24  2  1  0
 17  9  1  0
 24 18  1  0
M  END
>  <energy_score>  (1334) 
-26.205105

>  <inchikey>  (1334) 
None

>  <smiles>  (1334) 
None

>  <ref_pdb>  (1334) 
A2290a

>  <alias>  (1334) 
None

>  <HIPPO Pose ID>  (1334) 
498978

>  <name>  (1334) 
P498978

>  <HIPPO Compound ID>  (1334) 
299267

>  <ref_mols>  (1334) 
A3403a,A2290a

>  <distance_score>  (1334) 
0.774833

>  <inspiration_score>  (1334) 
None

$$$$
P498979
     RDKit          3D

 24 26  0  0  0  0  0  0  0  0999 V2000
    9.5388    8.7079   23.0257 C   0  0  0  0  0  0  0  0  0  0  0  0
    9.4083   10.0153   23.6227 N   0  0  0  0  0  0  0  0  0  0  0  0
   10.1679   11.0137   23.1437 N   0  0  0  0  0  0  0  0  0  0  0  0
    9.8368   12.0746   23.8961 C   0  0  0  0  0  0  0  0  0  0  0  0
   10.4964   13.3692   23.7038 C   0  0  0  0  0  0  0  0  0  0  0  0
   10.5903   14.1316   24.5787 O   0  0  0  0  0  0  0  0  0  0  0  0
   10.8889   13.4963   22.2299 N   0  0  0  0  0  0  0  0  0  0  0  0
   11.5623   14.5439   21.5378 C   0  0  0  0  0  0  0  0  0  0  0  0
   10.5981   15.2434   20.6522 C   0  0  0  0  0  0  0  0  0  0  0  0
   10.5122   15.2030   19.2849 C   0  0  0  0  0  0  0  0  0  0  0  0
    9.6790   16.1977   18.8710 O   0  0  0  0  0  0  0  0  0  0  0  0
    9.2860   16.8316   20.0266 C   0  0  0  0  0  0  0  0  0  0  0  0
    8.5359   18.1358   19.8575 C   0  0  0  0  0  0  0  0  0  0  0  0
    8.5773   18.8944   20.9766 F   0  0  0  0  0  0  0  0  0  0  0  0
    9.0604   18.8749   18.8394 F   0  0  0  0  0  0  0  0  0  0  0  0
    7.2336   18.0143   19.5335 F   0  0  0  0  0  0  0  0  0  0  0  0
    9.7410   16.2191   21.1128 N   0  0  0  0  0  0  0  0  0  0  0  0
    8.7941   11.7659   24.8066 C   0  0  0  0  0  0  0  0  0  0  0  0
    8.0301   12.4878   25.7446 C   0  0  0  0  0  0  0  0  0  0  0  0
    7.0472   11.8118   26.4708 C   0  0  0  0  0  0  0  0  0  0  0  0
    6.0169   12.7559   27.7447 Br  0  0  0  0  0  0  0  0  0  0  0  0
    6.8224   10.4511   26.2845 C   0  0  0  0  0  0  0  0  0  0  0  0
    7.5735    9.7271   25.3542 C   0  0  0  0  0  0  0  0  0  0  0  0
    8.5451   10.4102   24.6163 C   0  0  0  0  0  0  0  0  0  0  0  0
  1  2  1  0
  2  3  1  0
  3  4  2  0
  4  5  1  0
  5  6  2  0
  5  7  1  0
  7  8  1  0
  8  9  1  0
  9 10  2  0
 10 11  1  0
 11 12  1  0
 12 13  1  0
 13 14  1  0
 13 15  1  0
 13 16  1  0
 12 17  2  0
  4 18  1  0
 18 19  2  0
 19 20  1  0
 20 21  1  0
 20 22  2  0
 22 23  1  0
 23 24  2  0
 24  2  1  0
 17  9  1  0
 24 18  1  0
M  END
>  <energy_score>  (1335) 
-11.464362

>  <inchikey>  (1335) 
None

>  <smiles>  (1335) 
None

>  <ref_pdb>  (1335) 
A2290a

>  <alias>  (1335) 
None

>  <HIPPO Pose ID>  (1335) 
498979

>  <name>  (1335) 
P498979

>  <HIPPO Compound ID>  (1335) 
299268

>  <ref_mols>  (1335) 
A3403a,A2290a

>  <distance_score>  (1335) 
0.681199

>  <inspiration_score>  (1335) 
None

$$$$
P498980
     RDKit          3D

 24 26  0  0  0  0  0  0  0  0999 V2000
   11.7849   14.4040   18.5226 C   0  0  0  0  0  0  0  0  0  0  0  0
   11.1119   14.9056   19.7047 C   0  0  0  0  0  0  0  0  0  0  0  0
   10.0549   15.7431   19.5179 O   0  0  0  0  0  0  0  0  0  0  0  0
    9.7700   16.1574   20.7819 C   0  0  0  0  0  0  0  0  0  0  0  0
    8.5401   16.9436   21.0242 C   0  0  0  0  0  0  0  0  0  0  0  0
    7.5843   15.8713   21.6527 C   0  0  0  0  0  0  0  0  0  0  0  0
    8.1957   17.8617   19.8394 C   0  0  0  0  0  0  0  0  0  0  0  0
   10.4940   15.5877   21.7177 N   0  0  0  0  0  0  0  0  0  0  0  0
   11.3606   14.7954   21.0478 C   0  0  0  0  0  0  0  0  0  0  0  0
   12.3307   13.9776   21.7883 C   0  0  0  0  0  0  0  0  0  0  0  0
   11.5549   13.0292   22.5155 N   0  0  0  0  0  0  0  0  0  0  0  0
   10.8693   13.1410   23.8814 C   0  0  0  0  0  0  0  0  0  0  0  0
   10.8906   13.9988   24.6698 O   0  0  0  0  0  0  0  0  0  0  0  0
   10.0224   11.9502   24.0374 C   0  0  0  0  0  0  0  0  0  0  0  0
   10.2719   10.8567   23.2982 N   0  0  0  0  0  0  0  0  0  0  0  0
    9.3791    9.9524   23.7161 N   0  0  0  0  0  0  0  0  0  0  0  0
    9.3978    8.6536   23.0912 C   0  0  0  0  0  0  0  0  0  0  0  0
    8.5278   10.4272   24.6833 C   0  0  0  0  0  0  0  0  0  0  0  0
    7.4774    9.8364   25.3944 C   0  0  0  0  0  0  0  0  0  0  0  0
    6.7625   10.6338   26.2922 C   0  0  0  0  0  0  0  0  0  0  0  0
    7.0943   11.9740   26.4693 C   0  0  0  0  0  0  0  0  0  0  0  0
    6.1066   13.0205   27.6968 Br  0  0  0  0  0  0  0  0  0  0  0  0
    8.1581   12.5552   25.7741 C   0  0  0  0  0  0  0  0  0  0  0  0
    8.8958   11.7581   24.8777 C   0  0  0  0  0  0  0  0  0  0  0  0
  1  2  1  0
  2  3  1  0
  3  4  1  0
  4  5  1  0
  5  6  1  0
  5  7  1  0
  4  8  2  0
  8  9  1  0
  9 10  1  0
 10 11  1  0
 11 12  1  0
 12 13  2  0
 12 14  1  0
 14 15  2  0
 15 16  1  0
 16 17  1  0
 16 18  1  0
 18 19  2  0
 19 20  1  0
 20 21  2  0
 21 22  1  0
 21 23  1  0
 23 24  2  0
  9  2  2  0
 24 14  1  0
 24 18  1  0
M  END
>  <energy_score>  (1336) 
-29.821703

>  <inchikey>  (1336) 
None

>  <smiles>  (1336) 
None

>  <ref_pdb>  (1336) 
A2290a

>  <alias>  (1336) 
None

>  <HIPPO Pose ID>  (1336) 
498980

>  <name>  (1336) 
P498980

>  <HIPPO Compound ID>  (1336) 
299269

>  <ref_mols>  (1336) 
A3403a,A2290a

>  <distance_score>  (1336) 
0.812602

>  <inspiration_score>  (1336) 
None

$$$$
P498981
     RDKit          3D

 24 26  0  0  0  0  0  0  0  0999 V2000
    9.4709    8.6995   23.0660 C   0  0  0  0  0  0  0  0  0  0  0  0
    9.3663    9.9843   23.7149 N   0  0  0  0  0  0  0  0  0  0  0  0
   10.1888   10.9641   23.3124 N   0  0  0  0  0  0  0  0  0  0  0  0
    9.8644   12.0127   24.0866 C   0  0  0  0  0  0  0  0  0  0  0  0
   10.5953   13.2770   23.9704 C   0  0  0  0  0  0  0  0  0  0  0  0
   10.5592   14.0853   24.8072 O   0  0  0  0  0  0  0  0  0  0  0  0
   11.2481   13.3088   22.5885 N   0  0  0  0  0  0  0  0  0  0  0  0
   11.9099   14.3628   21.9041 C   0  0  0  0  0  0  0  0  0  0  0  0
   10.9144   14.9883   21.0025 C   0  0  0  0  0  0  0  0  0  0  0  0
    9.8842   15.7408   21.4905 N   0  0  0  0  0  0  0  0  0  0  0  0
    9.3681   16.3205   20.4358 C   0  0  0  0  0  0  0  0  0  0  0  0
    9.8627   15.8754   19.2543 O   0  0  0  0  0  0  0  0  0  0  0  0
   10.8573   15.0101   19.6310 C   0  0  0  0  0  0  0  0  0  0  0  0
   11.7106   14.4140   18.6134 C   0  0  0  0  0  0  0  0  0  0  0  0
   12.2297   15.3019   17.7504 F   0  0  0  0  0  0  0  0  0  0  0  0
   12.7816   13.7981   19.1863 F   0  0  0  0  0  0  0  0  0  0  0  0
   11.0882   13.4615   17.9030 F   0  0  0  0  0  0  0  0  0  0  0  0
    8.7642   11.7209   24.9286 C   0  0  0  0  0  0  0  0  0  0  0  0
    7.9830   12.4443   25.8507 C   0  0  0  0  0  0  0  0  0  0  0  0
    6.9596   11.7794   26.5282 C   0  0  0  0  0  0  0  0  0  0  0  0
    5.9087   12.7232   27.7853 Br  0  0  0  0  0  0  0  0  0  0  0  0
    6.7123   10.4280   26.3089 C   0  0  0  0  0  0  0  0  0  0  0  0
    7.4747    9.7059   25.3864 C   0  0  0  0  0  0  0  0  0  0  0  0
    8.4849   10.3779   24.6933 C   0  0  0  0  0  0  0  0  0  0  0  0
  1  2  1  0
  2  3  1  0
  3  4  2  0
  4  5  1  0
  5  6  2  0
  5  7  1  0
  7  8  1  0
  8  9  1  0
  9 10  1  0
 10 11  2  0
 11 12  1  0
 12 13  1  0
 13 14  1  0
 14 15  1  0
 14 16  1  0
 14 17  1  0
  4 18  1  0
 18 19  2  0
 19 20  1  0
 20 21  1  0
 20 22  2  0
 22 23  1  0
 23 24  2  0
 24  2  1  0
 13  9  2  0
 24 18  1  0
M  END
>  <energy_score>  (1337) 
-36.030691

>  <inchikey>  (1337) 
None

>  <smiles>  (1337) 
None

>  <ref_pdb>  (1337) 
A2290a

>  <alias>  (1337) 
None

>  <HIPPO Pose ID>  (1337) 
498981

>  <name>  (1337) 
P498981

>  <HIPPO Compound ID>  (1337) 
299271

>  <ref_mols>  (1337) 
A3403a,A2290a

>  <distance_score>  (1337) 
0.771283

>  <inspiration_score>  (1337) 
None

$$$$
P498982
     RDKit          3D

 24 26  0  0  0  0  0  0  0  0999 V2000
    8.9431   17.3998   18.1315 C   0  0  0  0  0  0  0  0  0  0  0  0
    8.3043   17.6733   19.3997 N   0  0  0  0  0  0  0  0  0  0  0  0
    7.9675   19.0559   19.5333 C   0  0  0  0  0  0  0  0  0  0  0  0
    8.8739   17.1492   20.6343 C   0  0  0  0  0  0  0  0  0  0  0  0
    9.8038   15.9909   20.5852 C   0  0  0  0  0  0  0  0  0  0  0  0
   10.4407   15.4596   21.6047 N   0  0  0  0  0  0  0  0  0  0  0  0
   11.3743   14.6480   21.0240 C   0  0  0  0  0  0  0  0  0  0  0  0
   12.3201   13.8980   21.8562 C   0  0  0  0  0  0  0  0  0  0  0  0
   11.5296   12.9690   22.5853 N   0  0  0  0  0  0  0  0  0  0  0  0
   10.8122   13.1126   23.9290 C   0  0  0  0  0  0  0  0  0  0  0  0
   10.8138   13.9885   24.6964 O   0  0  0  0  0  0  0  0  0  0  0  0
    9.9676   11.9220   24.0833 C   0  0  0  0  0  0  0  0  0  0  0  0
   10.2166   10.8332   23.3351 N   0  0  0  0  0  0  0  0  0  0  0  0
    9.3336    9.9240   23.7562 N   0  0  0  0  0  0  0  0  0  0  0  0
    9.3600    8.6302   23.1230 C   0  0  0  0  0  0  0  0  0  0  0  0
    8.4768   10.3952   24.7200 C   0  0  0  0  0  0  0  0  0  0  0  0
    7.4256    9.8025   25.4269 C   0  0  0  0  0  0  0  0  0  0  0  0
    6.7088   10.5961   26.3266 C   0  0  0  0  0  0  0  0  0  0  0  0
    7.0379   11.9364   26.5081 C   0  0  0  0  0  0  0  0  0  0  0  0
    6.0456   12.9762   27.7371 Br  0  0  0  0  0  0  0  0  0  0  0  0
    8.1013   12.5207   25.8164 C   0  0  0  0  0  0  0  0  0  0  0  0
    8.8410   11.7264   24.9197 C   0  0  0  0  0  0  0  0  0  0  0  0
   11.2031   14.6447   19.6646 C   0  0  0  0  0  0  0  0  0  0  0  0
   10.1748   15.4721   19.3825 O   0  0  0  0  0  0  0  0  0  0  0  0
  1  2  1  0
  2  3  1  0
  2  4  1  0
  4  5  1  0
  5  6  2  0
  6  7  1  0
  7  8  1  0
  8  9  1  0
  9 10  1  0
 10 11  2  0
 10 12  1  0
 12 13  2  0
 13 14  1  0
 14 15  1  0
 14 16  1  0
 16 17  2  0
 17 18  1  0
 18 19  2  0
 19 20  1  0
 19 21  1  0
 21 22  2  0
  7 23  2  0
 23 24  1  0
 24  5  1  0
 22 12  1  0
 22 16  1  0
M  END
>  <energy_score>  (1338) 
-31.820207

>  <inchikey>  (1338) 
None

>  <smiles>  (1338) 
None

>  <ref_pdb>  (1338) 
A2290a

>  <alias>  (1338) 
None

>  <HIPPO Pose ID>  (1338) 
498982

>  <name>  (1338) 
P498982

>  <HIPPO Compound ID>  (1338) 
299272

>  <ref_mols>  (1338) 
A3403a,A2290a

>  <distance_score>  (1338) 
0.846388

>  <inspiration_score>  (1338) 
None

$$$$
P498983
     RDKit          3D

 24 27  0  0  0  0  0  0  0  0999 V2000
   11.8112   14.3937   18.5591 C   0  0  0  0  0  0  0  0  0  0  0  0
   11.0186   14.8944   19.6658 C   0  0  0  0  0  0  0  0  0  0  0  0
    9.9664   15.6852   19.3450 O   0  0  0  0  0  0  0  0  0  0  0  0
    9.4926   16.0850   20.5520 C   0  0  0  0  0  0  0  0  0  0  0  0
    8.3632   17.1129   20.6886 C   0  0  0  0  0  0  0  0  0  0  0  0
    8.6297   18.5263   21.0019 C   0  0  0  0  0  0  0  0  0  0  0  0
    8.3072   18.1699   19.5962 C   0  0  0  0  0  0  0  0  0  0  0  0
   10.0861   15.5311   21.5821 N   0  0  0  0  0  0  0  0  0  0  0  0
   11.1183   14.8268   21.0305 C   0  0  0  0  0  0  0  0  0  0  0  0
   12.1127   14.1411   21.8745 C   0  0  0  0  0  0  0  0  0  0  0  0
   11.3862   13.1465   22.5822 N   0  0  0  0  0  0  0  0  0  0  0  0
   10.7455   13.1823   23.9695 C   0  0  0  0  0  0  0  0  0  0  0  0
   10.7726   14.0050   24.7931 O   0  0  0  0  0  0  0  0  0  0  0  0
    9.9493   11.9589   24.1022 C   0  0  0  0  0  0  0  0  0  0  0  0
   10.2466   10.8848   23.3522 N   0  0  0  0  0  0  0  0  0  0  0  0
    9.3700    9.9499   23.7374 N   0  0  0  0  0  0  0  0  0  0  0  0
    9.4253    8.6656   23.0827 C   0  0  0  0  0  0  0  0  0  0  0  0
    8.4964   10.3851   24.7050 C   0  0  0  0  0  0  0  0  0  0  0  0
    7.4556    9.7568   25.3953 C   0  0  0  0  0  0  0  0  0  0  0  0
    6.7120   10.5177   26.3016 C   0  0  0  0  0  0  0  0  0  0  0  0
    7.0048   11.8631   26.5051 C   0  0  0  0  0  0  0  0  0  0  0  0
    5.9751   12.8594   27.7394 Br  0  0  0  0  0  0  0  0  0  0  0  0
    8.0578   12.4838   25.8302 C   0  0  0  0  0  0  0  0  0  0  0  0
    8.8246   11.7207   24.9287 C   0  0  0  0  0  0  0  0  0  0  0  0
  1  2  1  0
  2  3  1  0
  3  4  1  0
  4  5  1  0
  5  6  1  0
  6  7  1  0
  4  8  2  0
  8  9  1  0
  9 10  1  0
 10 11  1  0
 11 12  1  0
 12 13  2  0
 12 14  1  0
 14 15  2  0
 15 16  1  0
 16 17  1  0
 16 18  1  0
 18 19  2  0
 19 20  1  0
 20 21  2  0
 21 22  1  0
 21 23  1  0
 23 24  2  0
  9  2  2  0
 24 14  1  0
  7  5  1  0
 24 18  1  0
M  END
>  <energy_score>  (1339) 
-17.253155

>  <inchikey>  (1339) 
None

>  <smiles>  (1339) 
None

>  <ref_pdb>  (1339) 
A2290a

>  <alias>  (1339) 
None

>  <HIPPO Pose ID>  (1339) 
498983

>  <name>  (1339) 
P498983

>  <HIPPO Compound ID>  (1339) 
299273

>  <ref_mols>  (1339) 
A3403a,A2290a

>  <distance_score>  (1339) 
0.805798

>  <inspiration_score>  (1339) 
None

$$$$
P498984
     RDKit          3D

 24 27  0  0  0  0  0  0  0  0999 V2000
    9.3929    8.6519   23.0985 C   0  0  0  0  0  0  0  0  0  0  0  0
    9.2686    9.9512   23.7118 N   0  0  0  0  0  0  0  0  0  0  0  0
   10.0168   10.9462   23.2205 N   0  0  0  0  0  0  0  0  0  0  0  0
    9.6389   12.0266   23.9206 C   0  0  0  0  0  0  0  0  0  0  0  0
   10.2305   13.3283   23.6348 C   0  0  0  0  0  0  0  0  0  0  0  0
   10.2199   14.1970   24.4102 O   0  0  0  0  0  0  0  0  0  0  0  0
   10.7728   13.2810   22.2021 N   0  0  0  0  0  0  0  0  0  0  0  0
   11.3199   14.2932   21.4008 C   0  0  0  0  0  0  0  0  0  0  0  0
   10.3229   15.2245   20.6597 C   0  0  0  0  0  0  0  0  0  0  0  0
   10.3034   15.4734   19.3133 C   0  0  0  0  0  0  0  0  0  0  0  0
    9.5229   16.5679   19.0994 O   0  0  0  0  0  0  0  0  0  0  0  0
    9.0716   16.8807   20.3445 C   0  0  0  0  0  0  0  0  0  0  0  0
    9.4584   16.0571   21.2895 N   0  0  0  0  0  0  0  0  0  0  0  0
   12.5760   13.9397   20.6565 C   0  0  0  0  0  0  0  0  0  0  0  0
   12.6415   14.8728   21.8100 C   0  0  0  0  0  0  0  0  0  0  0  0
    8.6184   11.7242   24.8499 C   0  0  0  0  0  0  0  0  0  0  0  0
    7.8381   12.4652   25.7582 C   0  0  0  0  0  0  0  0  0  0  0  0
    6.8453   11.7877   26.4788 C   0  0  0  0  0  0  0  0  0  0  0  0
    6.0151   12.5338   27.4227 N   0  0  0  0  0  0  0  0  0  0  0  0
    4.8837   12.0914   27.6702 O   0  0  0  0  0  0  0  0  0  0  0  0
    6.5154   13.5382   27.9492 O   0  0  0  0  0  0  0  0  0  0  0  0
    6.6402   10.4142   26.3291 C   0  0  0  0  0  0  0  0  0  0  0  0
    7.4247    9.6814   25.4350 C   0  0  0  0  0  0  0  0  0  0  0  0
    8.3982   10.3582   24.6957 C   0  0  0  0  0  0  0  0  0  0  0  0
  1  2  1  0
  2  3  1  0
  3  4  2  0
  4  5  1  0
  5  6  2  0
  5  7  1  0
  7  8  1  0
  8  9  1  0
  9 10  2  0
 10 11  1  0
 11 12  1  0
 12 13  2  0
  8 14  1  0
 14 15  1  0
  4 16  1  0
 16 17  2  0
 17 18  1  0
 18 19  1  0
 19 20  2  0
 19 21  1  0
 18 22  2  0
 22 23  1  0
 23 24  2  0
 24  2  1  0
 15  8  1  0
 24 16  1  0
 13  9  1  0
M  CHG  2  19   1  21  -1
M  END
>  <energy_score>  (1340) 
-25.320006

>  <inchikey>  (1340) 
None

>  <smiles>  (1340) 
None

>  <ref_pdb>  (1340) 
A2290a

>  <alias>  (1340) 
None

>  <HIPPO Pose ID>  (1340) 
498984

>  <name>  (1340) 
P498984

>  <HIPPO Compound ID>  (1340) 
299274

>  <ref_mols>  (1340) 
A3403a,A2290a

>  <distance_score>  (1340) 
0.774687

>  <inspiration_score>  (1340) 
None

$$$$
P498985
     RDKit          3D

 24 26  0  0  0  0  0  0  0  0999 V2000
    8.3414   18.2779   19.2116 C   0  0  0  0  0  0  0  0  0  0  0  0
    8.6411   17.5405   20.5072 C   0  0  0  0  0  0  0  0  0  0  0  0
    9.5922   16.4055   20.3925 C   0  0  0  0  0  0  0  0  0  0  0  0
   10.2103   15.7795   21.3709 N   0  0  0  0  0  0  0  0  0  0  0  0
   11.0647   14.9118   20.7446 C   0  0  0  0  0  0  0  0  0  0  0  0
   12.0817   14.1643   21.5133 C   0  0  0  0  0  0  0  0  0  0  0  0
   11.3965   13.1670   22.2691 N   0  0  0  0  0  0  0  0  0  0  0  0
   10.7831   13.2270   23.6725 C   0  0  0  0  0  0  0  0  0  0  0  0
   10.8042   14.0752   24.4707 O   0  0  0  0  0  0  0  0  0  0  0  0
   10.0042   11.9970   23.8801 C   0  0  0  0  0  0  0  0  0  0  0  0
   10.2830   10.8963   23.1659 N   0  0  0  0  0  0  0  0  0  0  0  0
    9.4433    9.9635   23.6283 N   0  0  0  0  0  0  0  0  0  0  0  0
    9.4966    8.6502   23.0334 C   0  0  0  0  0  0  0  0  0  0  0  0
    8.5841   10.4294   24.5944 C   0  0  0  0  0  0  0  0  0  0  0  0
    7.5628    9.8095   25.3245 C   0  0  0  0  0  0  0  0  0  0  0  0
    6.8117   10.5954   26.2008 C   0  0  0  0  0  0  0  0  0  0  0  0
    7.0964   11.9573   26.3421 C   0  0  0  0  0  0  0  0  0  0  0  0
    6.2956   12.7567   27.2695 N   0  0  0  0  0  0  0  0  0  0  0  0
    5.1523   12.3550   27.5343 O   0  0  0  0  0  0  0  0  0  0  0  0
    6.8287   13.7580   27.7676 O   0  0  0  0  0  0  0  0  0  0  0  0
    8.1475   12.5687   25.6405 C   0  0  0  0  0  0  0  0  0  0  0  0
    8.9043   11.7777   24.7533 C   0  0  0  0  0  0  0  0  0  0  0  0
   10.8272   14.9538   19.3929 C   0  0  0  0  0  0  0  0  0  0  0  0
    9.8749   15.9011   19.1563 O   0  0  0  0  0  0  0  0  0  0  0  0
  1  2  1  0
  2  3  1  0
  3  4  2  0
  4  5  1  0
  5  6  1  0
  6  7  1  0
  7  8  1  0
  8  9  2  0
  8 10  1  0
 10 11  2  0
 11 12  1  0
 12 13  1  0
 12 14  1  0
 14 15  2  0
 15 16  1  0
 16 17  2  0
 17 18  1  0
 18 19  2  0
 18 20  1  0
 17 21  1  0
 21 22  2  0
  5 23  2  0
 23 24  1  0
 24  3  1  0
 22 10  1  0
 22 14  1  0
M  CHG  2  18   1  20  -1
M  END
>  <energy_score>  (1341) 
-19.102168

>  <inchikey>  (1341) 
None

>  <smiles>  (1341) 
None

>  <ref_pdb>  (1341) 
A2290a

>  <alias>  (1341) 
None

>  <HIPPO Pose ID>  (1341) 
498985

>  <name>  (1341) 
P498985

>  <HIPPO Compound ID>  (1341) 
299278

>  <ref_mols>  (1341) 
A3403a,A2290a

>  <distance_score>  (1341) 
0.762076

>  <inspiration_score>  (1341) 
None

$$$$
P498986
     RDKit          3D

 24 26  0  0  0  0  0  0  0  0999 V2000
   12.7676   13.8543   20.1674 C   0  0  0  0  0  0  0  0  0  0  0  0
   12.5830   14.7591   21.3458 C   0  0  0  0  0  0  0  0  0  0  0  0
   11.1339   14.9280   21.7320 C   0  0  2  0  0  0  0  0  0  0  0  0
   10.6064   13.7501   22.3429 N   0  0  0  0  0  0  0  0  0  0  0  0
   10.2463   13.4625   23.8026 C   0  0  0  0  0  0  0  0  0  0  0  0
   10.3920   14.1115   24.7584 O   0  0  0  0  0  0  0  0  0  0  0  0
    9.6438   12.1370   23.9127 C   0  0  0  0  0  0  0  0  0  0  0  0
   10.0271   11.1119   23.1363 N   0  0  0  0  0  0  0  0  0  0  0  0
    9.3424   10.0620   23.6242 N   0  0  0  0  0  0  0  0  0  0  0  0
    9.5645    8.7619   23.0383 C   0  0  0  0  0  0  0  0  0  0  0  0
    8.4536   10.3986   24.6180 C   0  0  0  0  0  0  0  0  0  0  0  0
    7.5190    9.6554   25.3442 C   0  0  0  0  0  0  0  0  0  0  0  0
    6.7099   10.3257   26.2655 C   0  0  0  0  0  0  0  0  0  0  0  0
    6.8635   11.6998   26.4649 C   0  0  0  0  0  0  0  0  0  0  0  0
    6.0135   12.3769   27.4429 N   0  0  0  0  0  0  0  0  0  0  0  0
    4.9069   11.8745   27.6889 O   0  0  0  0  0  0  0  0  0  0  0  0
    6.4746   13.3841   27.9979 O   0  0  0  0  0  0  0  0  0  0  0  0
    7.8280   12.4385   25.7671 C   0  0  0  0  0  0  0  0  0  0  0  0
    8.6227   11.7626   24.8202 C   0  0  0  0  0  0  0  0  0  0  0  0
   10.2104   15.5678   20.7422 C   0  0  0  0  0  0  0  0  0  0  0  0
   10.1848   15.6054   19.3651 C   0  0  0  0  0  0  0  0  0  0  0  0
    9.4208   16.6627   18.9661 O   0  0  0  0  0  0  0  0  0  0  0  0
    8.9407   17.1681   20.1286 C   0  0  0  0  0  0  0  0  0  0  0  0
    9.2992   16.4930   21.1886 N   0  0  0  0  0  0  0  0  0  0  0  0
  1  2  1  0
  3  2  1  6
  3  4  1  0
  4  5  1  0
  5  6  2  0
  5  7  1  0
  7  8  2  0
  8  9  1  0
  9 10  1  0
  9 11  1  0
 11 12  2  0
 12 13  1  0
 13 14  2  0
 14 15  1  0
 15 16  2  0
 15 17  1  0
 14 18  1  0
 18 19  2  0
  3 20  1  0
 20 21  2  0
 21 22  1  0
 22 23  1  0
 23 24  2  0
 19  7  1  0
 24 20  1  0
 19 11  1  0
M  CHG  2  15   1  17  -1
M  END
>  <energy_score>  (1342) 
-18.897584

>  <inchikey>  (1342) 
None

>  <smiles>  (1342) 
None

>  <ref_pdb>  (1342) 
A2290a

>  <alias>  (1342) 
None

>  <HIPPO Pose ID>  (1342) 
498986

>  <name>  (1342) 
P498986

>  <HIPPO Compound ID>  (1342) 
299283

>  <ref_mols>  (1342) 
A3403a,A2290a

>  <distance_score>  (1342) 
0.832486

>  <inspiration_score>  (1342) 
None

$$$$
P498987
     RDKit          3D

 24 26  0  0  0  0  0  0  0  0999 V2000
   12.9138   13.5330   23.5049 C   0  0  0  0  0  0  0  0  0  0  0  0
   12.5049   14.6086   22.4824 C   0  0  0  0  0  0  0  0  0  0  0  0
   11.5423   14.0377   21.4589 C   0  0  1  0  0  0  0  0  0  0  0  0
   10.6827   13.1210   22.1302 N   0  0  0  0  0  0  0  0  0  0  0  0
    9.8075   13.3052   23.3715 C   0  0  0  0  0  0  0  0  0  0  0  0
    9.5854   14.2557   24.0037 O   0  0  0  0  0  0  0  0  0  0  0  0
    9.3173   11.9931   23.7537 C   0  0  0  0  0  0  0  0  0  0  0  0
    9.7951   10.8997   23.1408 N   0  0  0  0  0  0  0  0  0  0  0  0
    9.1351    9.8879   23.7044 N   0  0  0  0  0  0  0  0  0  0  0  0
    9.3179    8.5803   23.1278 C   0  0  0  0  0  0  0  0  0  0  0  0
    8.2667   10.2916   24.6918 C   0  0  0  0  0  0  0  0  0  0  0  0
    7.3643    9.5990   25.4977 C   0  0  0  0  0  0  0  0  0  0  0  0
    6.5707   10.3238   26.3901 C   0  0  0  0  0  0  0  0  0  0  0  0
    6.6959   11.7120   26.4685 C   0  0  0  0  0  0  0  0  0  0  0  0
    5.8511   12.4496   27.4020 N   0  0  0  0  0  0  0  0  0  0  0  0
    6.3367   13.4577   27.9336 O   0  0  0  0  0  0  0  0  0  0  0  0
    4.7197   11.9965   27.6304 O   0  0  0  0  0  0  0  0  0  0  0  0
    7.6045   12.4143   25.6696 C   0  0  0  0  0  0  0  0  0  0  0  0
    8.3823   11.6767   24.7572 C   0  0  0  0  0  0  0  0  0  0  0  0
   10.7178   14.9948   20.6963 C   0  0  0  0  0  0  0  0  0  0  0  0
   10.6342   15.1667   19.3362 C   0  0  0  0  0  0  0  0  0  0  0  0
    9.7698   16.1887   19.0845 O   0  0  0  0  0  0  0  0  0  0  0  0
    9.3654   16.5817   20.3190 C   0  0  0  0  0  0  0  0  0  0  0  0
    9.8617   15.8739   21.3041 N   0  0  0  0  0  0  0  0  0  0  0  0
  1  2  1  0
  3  2  1  1
  3  4  1  0
  4  5  1  0
  5  6  2  0
  5  7  1  0
  7  8  2  0
  8  9  1  0
  9 10  1  0
  9 11  1  0
 11 12  2  0
 12 13  1  0
 13 14  2  0
 14 15  1  0
 15 16  2  0
 15 17  1  0
 14 18  1  0
 18 19  2  0
  3 20  1  0
 20 21  2  0
 21 22  1  0
 22 23  1  0
 23 24  2  0
 19  7  1  0
 24 20  1  0
 19 11  1  0
M  CHG  2  15   1  17  -1
M  END
>  <energy_score>  (1343) 
-10.036312

>  <inchikey>  (1343) 
None

>  <smiles>  (1343) 
None

>  <ref_pdb>  (1343) 
A2290a

>  <alias>  (1343) 
None

>  <HIPPO Pose ID>  (1343) 
498987

>  <name>  (1343) 
P498987

>  <HIPPO Compound ID>  (1343) 
299283

>  <ref_mols>  (1343) 
A3403a,A2290a

>  <distance_score>  (1343) 
0.854477

>  <inspiration_score>  (1343) 
None

$$$$
P498988
     RDKit          3D

 24 26  0  0  0  0  0  0  0  0999 V2000
   12.1645   14.7623   17.9605 C   0  0  0  0  0  0  0  0  0  0  0  0
   11.4202   14.1717   19.0619 C   0  0  0  0  0  0  0  0  0  0  0  0
   10.5999   15.0835   19.8062 C   0  0  0  0  0  0  0  0  0  0  0  0
    9.7422   15.9125   19.1568 O   0  0  0  0  0  0  0  0  0  0  0  0
    9.2675   16.6945   20.1555 C   0  0  0  0  0  0  0  0  0  0  0  0
    9.6833   16.3470   21.3448 N   0  0  0  0  0  0  0  0  0  0  0  0
   10.6124   15.3744   21.1363 C   0  0  0  0  0  0  0  0  0  0  0  0
   11.5426   14.8441   22.1598 C   0  0  0  0  0  0  0  0  0  0  0  0
   10.9612   13.6837   22.7447 N   0  0  0  0  0  0  0  0  0  0  0  0
   10.4270   13.4446   24.1541 C   0  0  0  0  0  0  0  0  0  0  0  0
   10.4430   14.1305   25.0939 O   0  0  0  0  0  0  0  0  0  0  0  0
    9.7742   12.1344   24.1789 C   0  0  0  0  0  0  0  0  0  0  0  0
   10.1755   11.1345   23.3762 N   0  0  0  0  0  0  0  0  0  0  0  0
    9.3966   10.0950   23.7268 N   0  0  0  0  0  0  0  0  0  0  0  0
    9.5892    8.8277   23.0584 C   0  0  0  0  0  0  0  0  0  0  0  0
    8.4714   10.4102   24.6956 C   0  0  0  0  0  0  0  0  0  0  0  0
    7.4843    9.6590   25.3392 C   0  0  0  0  0  0  0  0  0  0  0  0
    6.6420   10.3084   26.2449 C   0  0  0  0  0  0  0  0  0  0  0  0
    6.8073   11.6713   26.5033 C   0  0  0  0  0  0  0  0  0  0  0  0
    5.9079   12.3283   27.4499 N   0  0  0  0  0  0  0  0  0  0  0  0
    4.7726   11.8488   27.5895 O   0  0  0  0  0  0  0  0  0  0  0  0
    6.3526   13.2964   28.0819 O   0  0  0  0  0  0  0  0  0  0  0  0
    7.8275   12.4150   25.8967 C   0  0  0  0  0  0  0  0  0  0  0  0
    8.6701   11.7570   24.9794 C   0  0  0  0  0  0  0  0  0  0  0  0
  1  2  1  0
  2  3  1  0
  3  4  1  0
  4  5  1  0
  5  6  2  0
  6  7  1  0
  7  8  1  0
  8  9  1  0
  9 10  1  0
 10 11  2  0
 10 12  1  0
 12 13  2  0
 13 14  1  0
 14 15  1  0
 14 16  1  0
 16 17  2  0
 17 18  1  0
 18 19  2  0
 19 20  1  0
 20 21  2  0
 20 22  1  0
 19 23  1  0
 23 24  2  0
  7  3  2  0
 24 12  1  0
 24 16  1  0
M  CHG  2  20   1  22  -1
M  END
>  <energy_score>  (1344) 
-13.642335

>  <inchikey>  (1344) 
None

>  <smiles>  (1344) 
None

>  <ref_pdb>  (1344) 
A2290a

>  <alias>  (1344) 
None

>  <HIPPO Pose ID>  (1344) 
498988

>  <name>  (1344) 
P498988

>  <HIPPO Compound ID>  (1344) 
299284

>  <ref_mols>  (1344) 
A3403a,A2290a

>  <distance_score>  (1344) 
0.820642

>  <inspiration_score>  (1344) 
None

$$$$
P498989
     RDKit          3D

 24 26  0  0  0  0  0  0  0  0999 V2000
    4.4373   13.2021   28.5179 C   0  0  0  0  0  0  0  0  0  0  0  0
    5.2070   12.3932   27.6285 O   0  0  0  0  0  0  0  0  0  0  0  0
    6.4624   12.8615   27.4153 C   0  0  0  0  0  0  0  0  0  0  0  0
    6.9681   13.8380   27.9456 O   0  0  0  0  0  0  0  0  0  0  0  0
    7.1739   12.0080   26.4332 C   0  0  0  0  0  0  0  0  0  0  0  0
    6.8410   10.6612   26.2558 C   0  0  0  0  0  0  0  0  0  0  0  0
    7.5474    9.8609   25.3529 C   0  0  0  0  0  0  0  0  0  0  0  0
    8.5858   10.4519   24.6239 C   0  0  0  0  0  0  0  0  0  0  0  0
    8.9527   11.7852   24.7999 C   0  0  0  0  0  0  0  0  0  0  0  0
    8.2359   12.5801   25.7145 C   0  0  0  0  0  0  0  0  0  0  0  0
   10.0439   11.9859   23.9134 C   0  0  0  0  0  0  0  0  0  0  0  0
   10.8490   13.1974   23.6958 C   0  0  0  0  0  0  0  0  0  0  0  0
   10.9539   14.0256   24.5087 O   0  0  0  0  0  0  0  0  0  0  0  0
   11.3978   13.1322   22.2664 N   0  0  0  0  0  0  0  0  0  0  0  0
   12.1077   14.1035   21.5010 C   0  0  0  0  0  0  0  0  0  0  0  0
   11.0928   14.8752   20.7571 C   0  0  0  0  0  0  0  0  0  0  0  0
   10.8373   14.9535   19.4097 C   0  0  0  0  0  0  0  0  0  0  0  0
    9.8656   15.8920   19.2135 O   0  0  0  0  0  0  0  0  0  0  0  0
    9.5866   16.3391   20.4709 C   0  0  0  0  0  0  0  0  0  0  0  0
    8.6261   17.4444   20.6164 C   0  0  0  0  0  0  0  0  0  0  0  0
   10.2354   15.7078   21.4220 N   0  0  0  0  0  0  0  0  0  0  0  0
   10.2925   10.8814   23.1912 N   0  0  0  0  0  0  0  0  0  0  0  0
    9.4248    9.9710   23.6490 N   0  0  0  0  0  0  0  0  0  0  0  0
    9.4479    8.6578   23.0538 C   0  0  0  0  0  0  0  0  0  0  0  0
  1  2  1  0
  2  3  1  0
  3  4  2  0
  3  5  1  0
  5  6  2  0
  6  7  1  0
  7  8  2  0
  8  9  1  0
  9 10  2  0
  9 11  1  0
 11 12  1  0
 12 13  2  0
 12 14  1  0
 14 15  1  0
 15 16  1  0
 16 17  2  0
 17 18  1  0
 18 19  1  0
 19 20  1  0
 19 21  2  0
 11 22  2  0
 22 23  1  0
 23 24  1  0
 10  5  1  0
 21 16  1  0
 23  8  1  0
M  END
>  <energy_score>  (1345) 
-22.728091

>  <inchikey>  (1345) 
None

>  <smiles>  (1345) 
None

>  <ref_pdb>  (1345) 
A2290a

>  <alias>  (1345) 
None

>  <HIPPO Pose ID>  (1345) 
498989

>  <name>  (1345) 
P498989

>  <HIPPO Compound ID>  (1345) 
299285

>  <ref_mols>  (1345) 
A3403a,A2290a

>  <distance_score>  (1345) 
0.706326

>  <inspiration_score>  (1345) 
None

$$$$
P498990
     RDKit          3D

 24 26  0  0  0  0  0  0  0  0999 V2000
    4.3416   13.0311   28.5766 C   0  0  0  0  0  0  0  0  0  0  0  0
    5.1277   12.2573   27.6703 O   0  0  0  0  0  0  0  0  0  0  0  0
    6.3784   12.7467   27.4798 C   0  0  0  0  0  0  0  0  0  0  0  0
    6.8704   13.7129   28.0404 O   0  0  0  0  0  0  0  0  0  0  0  0
    7.1054   11.9304   26.4784 C   0  0  0  0  0  0  0  0  0  0  0  0
    6.8070   10.5790   26.2805 C   0  0  0  0  0  0  0  0  0  0  0  0
    7.5309    9.8125   25.3623 C   0  0  0  0  0  0  0  0  0  0  0  0
    8.5477   10.4416   24.6357 C   0  0  0  0  0  0  0  0  0  0  0  0
    8.8750   11.7817   24.8273 C   0  0  0  0  0  0  0  0  0  0  0  0
    8.1467   12.5418   25.7623 C   0  0  0  0  0  0  0  0  0  0  0  0
    9.9483   12.0284   23.9311 C   0  0  0  0  0  0  0  0  0  0  0  0
   10.7123   13.2699   23.7444 C   0  0  0  0  0  0  0  0  0  0  0  0
   10.8091   14.0621   24.5924 O   0  0  0  0  0  0  0  0  0  0  0  0
   11.2538   13.2770   22.3123 N   0  0  0  0  0  0  0  0  0  0  0  0
   11.9444   14.2911   21.5885 C   0  0  0  0  0  0  0  0  0  0  0  0
   10.9612   14.9783   20.7243 C   0  0  0  0  0  0  0  0  0  0  0  0
   10.8139   14.9256   19.3613 C   0  0  0  0  0  0  0  0  0  0  0  0
    9.8882   15.8540   18.9980 O   0  0  0  0  0  0  0  0  0  0  0  0
    9.5307   16.4564   20.1677 C   0  0  0  0  0  0  0  0  0  0  0  0
    8.4455   18.0278   20.2248 Br  0  0  0  0  0  0  0  0  0  0  0  0
   10.0789   15.9033   21.2297 N   0  0  0  0  0  0  0  0  0  0  0  0
   10.2179   10.9465   23.1805 N   0  0  0  0  0  0  0  0  0  0  0  0
    9.3977    9.9978   23.6532 N   0  0  0  0  0  0  0  0  0  0  0  0
    9.4690    8.6847   23.0622 C   0  0  0  0  0  0  0  0  0  0  0  0
  1  2  1  0
  2  3  1  0
  3  4  2  0
  3  5  1  0
  5  6  2  0
  6  7  1  0
  7  8  2  0
  8  9  1  0
  9 10  2  0
  9 11  1  0
 11 12  1  0
 12 13  2  0
 12 14  1  0
 14 15  1  0
 15 16  1  0
 16 17  2  0
 17 18  1  0
 18 19  1  0
 19 20  1  0
 19 21  2  0
 11 22  2  0
 22 23  1  0
 23 24  1  0
 10  5  1  0
 21 16  1  0
 23  8  1  0
M  END
>  <energy_score>  (1346) 
-15.725253

>  <inchikey>  (1346) 
None

>  <smiles>  (1346) 
None

>  <ref_pdb>  (1346) 
A2290a

>  <alias>  (1346) 
None

>  <HIPPO Pose ID>  (1346) 
498990

>  <name>  (1346) 
P498990

>  <HIPPO Compound ID>  (1346) 
299286

>  <ref_mols>  (1346) 
A3403a,A2290a

>  <distance_score>  (1346) 
0.763348

>  <inspiration_score>  (1346) 
None

$$$$
P498991
     RDKit          3D

 24 26  0  0  0  0  0  0  0  0999 V2000
    5.7575   14.9810   28.0791 C   0  0  0  0  0  0  0  0  0  0  0  0
    6.5857   14.1234   27.2938 O   0  0  0  0  0  0  0  0  0  0  0  0
    6.2098   12.8211   27.3020 C   0  0  0  0  0  0  0  0  0  0  0  0
    5.3043   12.3411   27.9669 O   0  0  0  0  0  0  0  0  0  0  0  0
    7.0716   12.0228   26.3876 C   0  0  0  0  0  0  0  0  0  0  0  0
    6.7952   10.6579   26.2455 C   0  0  0  0  0  0  0  0  0  0  0  0
    7.5364    9.8542   25.3728 C   0  0  0  0  0  0  0  0  0  0  0  0
    8.5608   10.4591   24.6371 C   0  0  0  0  0  0  0  0  0  0  0  0
    8.8875   11.8042   24.7917 C   0  0  0  0  0  0  0  0  0  0  0  0
    8.1323   12.6031   25.6728 C   0  0  0  0  0  0  0  0  0  0  0  0
    9.9841   12.0179   23.9166 C   0  0  0  0  0  0  0  0  0  0  0  0
   10.7630   13.2460   23.7087 C   0  0  0  0  0  0  0  0  0  0  0  0
   10.8464   14.0677   24.5300 O   0  0  0  0  0  0  0  0  0  0  0  0
   11.3267   13.2032   22.2855 N   0  0  0  0  0  0  0  0  0  0  0  0
   12.0278   14.1917   21.5374 C   0  0  0  0  0  0  0  0  0  0  0  0
   11.0258   14.9206   20.7319 C   0  0  0  0  0  0  0  0  0  0  0  0
   10.8271   14.9300   19.3738 C   0  0  0  0  0  0  0  0  0  0  0  0
    9.8767   15.8639   19.0896 O   0  0  0  0  0  0  0  0  0  0  0  0
    9.5549   16.3952   20.3033 C   0  0  0  0  0  0  0  0  0  0  0  0
    8.5503   17.7682   20.5042 Cl  0  0  0  0  0  0  0  0  0  0  0  0
   10.1524   15.8038   21.3147 N   0  0  0  0  0  0  0  0  0  0  0  0
   10.2573   10.9170   23.1983 N   0  0  0  0  0  0  0  0  0  0  0  0
    9.4129    9.9886   23.6678 N   0  0  0  0  0  0  0  0  0  0  0  0
    9.4550    8.6753   23.0738 C   0  0  0  0  0  0  0  0  0  0  0  0
  1  2  1  0
  2  3  1  0
  3  4  2  0
  3  5  1  0
  5  6  2  0
  6  7  1  0
  7  8  2  0
  8  9  1  0
  9 10  2  0
  9 11  1  0
 11 12  1  0
 12 13  2  0
 12 14  1  0
 14 15  1  0
 15 16  1  0
 16 17  2  0
 17 18  1  0
 18 19  1  0
 19 20  1  0
 19 21  2  0
 11 22  2  0
 22 23  1  0
 23 24  1  0
 10  5  1  0
 21 16  1  0
 23  8  1  0
M  END
>  <energy_score>  (1347) 
-11.696743

>  <inchikey>  (1347) 
None

>  <smiles>  (1347) 
None

>  <ref_pdb>  (1347) 
A2290a

>  <alias>  (1347) 
None

>  <HIPPO Pose ID>  (1347) 
498991

>  <name>  (1347) 
P498991

>  <HIPPO Compound ID>  (1347) 
299287

>  <ref_mols>  (1347) 
A3403a,A2290a

>  <distance_score>  (1347) 
0.65787

>  <inspiration_score>  (1347) 
None

$$$$
P498992
     RDKit          3D

 24 26  0  0  0  0  0  0  0  0999 V2000
    5.6717   15.2932   27.8793 C   0  0  0  0  0  0  0  0  0  0  0  0
    6.4940   14.3783   27.1543 O   0  0  0  0  0  0  0  0  0  0  0  0
    6.1180   13.0805   27.2623 C   0  0  0  0  0  0  0  0  0  0  0  0
    5.2222   12.6499   27.9725 O   0  0  0  0  0  0  0  0  0  0  0  0
    6.9670   12.2173   26.3961 C   0  0  0  0  0  0  0  0  0  0  0  0
    6.6801   10.8480   26.3436 C   0  0  0  0  0  0  0  0  0  0  0  0
    7.4083    9.9832   25.5190 C   0  0  0  0  0  0  0  0  0  0  0  0
    8.4344   10.5330   24.7414 C   0  0  0  0  0  0  0  0  0  0  0  0
    8.7610   11.8843   24.7972 C   0  0  0  0  0  0  0  0  0  0  0  0
    8.0216   12.7432   25.6330 C   0  0  0  0  0  0  0  0  0  0  0  0
    9.8388   12.0372   23.8888 C   0  0  0  0  0  0  0  0  0  0  0  0
   10.5961   13.2512   23.5815 C   0  0  0  0  0  0  0  0  0  0  0  0
   10.6935   14.1239   24.3470 O   0  0  0  0  0  0  0  0  0  0  0  0
   11.1391   13.1150   22.1553 N   0  0  0  0  0  0  0  0  0  0  0  0
   11.8345   14.0545   21.3319 C   0  0  2  0  0  0  0  0  0  0  0  0
   12.8114   14.8724   22.1265 C   0  0  0  0  0  0  0  0  0  0  0  0
   10.8285   14.9009   20.6478 C   0  0  0  0  0  0  0  0  0  0  0  0
   10.6707   15.1320   19.3050 C   0  0  0  0  0  0  0  0  0  0  0  0
    9.7374   16.1097   19.1466 O   0  0  0  0  0  0  0  0  0  0  0  0
    9.3652   16.4126   20.4167 C   0  0  0  0  0  0  0  0  0  0  0  0
    9.9370   15.6815   21.3439 N   0  0  0  0  0  0  0  0  0  0  0  0
   10.1199   10.8870   23.2558 N   0  0  0  0  0  0  0  0  0  0  0  0
    9.2960    9.9946   23.8166 N   0  0  0  0  0  0  0  0  0  0  0  0
    9.4378    8.6142   23.4374 C   0  0  0  0  0  0  0  0  0  0  0  0
  1  2  1  0
  2  3  1  0
  3  4  2  0
  3  5  1  0
  5  6  2  0
  6  7  1  0
  7  8  2  0
  8  9  1  0
  9 10  2  0
  9 11  1  0
 11 12  1  0
 12 13  2  0
 12 14  1  0
 14 15  1  0
 15 16  1  1
 15 17  1  0
 17 18  2  0
 18 19  1  0
 19 20  1  0
 20 21  2  0
 11 22  2  0
 22 23  1  0
 23 24  1  0
 10  5  1  0
 21 17  1  0
 23  8  1  0
M  END
>  <energy_score>  (1348) 
-13.746397

>  <inchikey>  (1348) 
None

>  <smiles>  (1348) 
None

>  <ref_pdb>  (1348) 
A2290a

>  <alias>  (1348) 
None

>  <HIPPO Pose ID>  (1348) 
498992

>  <name>  (1348) 
P498992

>  <HIPPO Compound ID>  (1348) 
299288

>  <ref_mols>  (1348) 
A3403a,A2290a

>  <distance_score>  (1348) 
0.690548

>  <inspiration_score>  (1348) 
None

$$$$
P498993
     RDKit          3D

 24 26  0  0  0  0  0  0  0  0999 V2000
    4.0195   12.4427   28.7332 C   0  0  0  0  0  0  0  0  0  0  0  0
    4.8621   11.7859   27.7862 O   0  0  0  0  0  0  0  0  0  0  0  0
    6.0753   12.3742   27.6363 C   0  0  0  0  0  0  0  0  0  0  0  0
    6.4885   13.3449   28.2499 O   0  0  0  0  0  0  0  0  0  0  0  0
    6.8671   11.6655   26.6029 C   0  0  0  0  0  0  0  0  0  0  0  0
    6.6721   10.3091   26.3351 C   0  0  0  0  0  0  0  0  0  0  0  0
    7.4556    9.6466   25.3851 C   0  0  0  0  0  0  0  0  0  0  0  0
    8.4215   10.3786   24.6924 C   0  0  0  0  0  0  0  0  0  0  0  0
    8.6383   11.7261   24.9499 C   0  0  0  0  0  0  0  0  0  0  0  0
    7.8610   12.3842   25.9230 C   0  0  0  0  0  0  0  0  0  0  0  0
    9.6786   12.0981   24.0652 C   0  0  0  0  0  0  0  0  0  0  0  0
   10.3227   13.4081   23.9750 C   0  0  0  0  0  0  0  0  0  0  0  0
   10.3664   14.1184   24.8957 O   0  0  0  0  0  0  0  0  0  0  0  0
   10.8383   13.6005   22.5490 N   0  0  0  0  0  0  0  0  0  0  0  0
   11.4318   14.7370   21.9229 C   0  0  1  0  0  0  0  0  0  0  0  0
   12.8316   14.4151   21.4895 C   0  0  0  0  0  0  0  0  0  0  0  0
   10.5656   15.2656   20.8459 C   0  0  0  0  0  0  0  0  0  0  0  0
   10.5915   15.0707   19.4851 C   0  0  0  0  0  0  0  0  0  0  0  0
    9.7790   16.0029   18.9106 O   0  0  0  0  0  0  0  0  0  0  0  0
    9.3002   16.7152   19.9582 C   0  0  0  0  0  0  0  0  0  0  0  0
    9.6629   16.2590   21.1277 N   0  0  0  0  0  0  0  0  0  0  0  0
   10.0366   11.0848   23.2575 N   0  0  0  0  0  0  0  0  0  0  0  0
    9.3074   10.0456   23.6966 N   0  0  0  0  0  0  0  0  0  0  0  0
    9.4980    8.7602   23.0693 C   0  0  0  0  0  0  0  0  0  0  0  0
  1  2  1  0
  2  3  1  0
  3  4  2  0
  3  5  1  0
  5  6  2  0
  6  7  1  0
  7  8  2  0
  8  9  1  0
  9 10  2  0
  9 11  1  0
 11 12  1  0
 12 13  2  0
 12 14  1  0
 14 15  1  0
 15 16  1  6
 15 17  1  0
 17 18  2  0
 18 19  1  0
 19 20  1  0
 20 21  2  0
 11 22  2  0
 22 23  1  0
 23 24  1  0
 10  5  1  0
 21 17  1  0
 23  8  1  0
M  END
>  <energy_score>  (1349) 
-11.091258

>  <inchikey>  (1349) 
None

>  <smiles>  (1349) 
None

>  <ref_pdb>  (1349) 
A2290a

>  <alias>  (1349) 
None

>  <HIPPO Pose ID>  (1349) 
498993

>  <name>  (1349) 
P498993

>  <HIPPO Compound ID>  (1349) 
299288

>  <ref_mols>  (1349) 
A3403a,A2290a

>  <distance_score>  (1349) 
0.783383

>  <inspiration_score>  (1349) 
None

$$$$
P498994
     RDKit          3D

 24 26  0  0  0  0  0  0  0  0999 V2000
    5.5640   14.7058   28.2983 C   0  0  0  0  0  0  0  0  0  0  0  0
    6.4270   13.8893   27.5062 O   0  0  0  0  0  0  0  0  0  0  0  0
    5.9913   12.6172   27.3381 C   0  0  0  0  0  0  0  0  0  0  0  0
    4.9980   12.1246   27.8513 O   0  0  0  0  0  0  0  0  0  0  0  0
    6.9106   11.8630   26.4435 C   0  0  0  0  0  0  0  0  0  0  0  0
    6.6713   10.4975   26.2568 C   0  0  0  0  0  0  0  0  0  0  0  0
    7.4579    9.7357   25.3868 C   0  0  0  0  0  0  0  0  0  0  0  0
    8.4893   10.3785   24.6984 C   0  0  0  0  0  0  0  0  0  0  0  0
    8.7825   11.7229   24.9056 C   0  0  0  0  0  0  0  0  0  0  0  0
    7.9820   12.4832   25.7817 C   0  0  0  0  0  0  0  0  0  0  0  0
    9.9060   11.9792   24.0810 C   0  0  0  0  0  0  0  0  0  0  0  0
   10.6597   13.2292   23.9457 C   0  0  0  0  0  0  0  0  0  0  0  0
   10.6414   14.0513   24.7696 O   0  0  0  0  0  0  0  0  0  0  0  0
   11.3086   13.2266   22.5618 N   0  0  0  0  0  0  0  0  0  0  0  0
   11.9886   14.2573   21.8584 C   0  0  0  0  0  0  0  0  0  0  0  0
   10.9775   14.9193   21.0068 C   0  0  0  0  0  0  0  0  0  0  0  0
    9.9394   15.6310   21.5404 N   0  0  0  0  0  0  0  0  0  0  0  0
    9.3955   16.2318   20.5097 C   0  0  0  0  0  0  0  0  0  0  0  0
    9.8831   15.8390   19.3068 O   0  0  0  0  0  0  0  0  0  0  0  0
   10.8999   14.9907   19.6395 C   0  0  0  0  0  0  0  0  0  0  0  0
   11.7288   14.4653   18.5628 C   0  0  0  0  0  0  0  0  0  0  0  0
   10.2208   10.9101   23.3307 N   0  0  0  0  0  0  0  0  0  0  0  0
    9.3774    9.9536   23.7401 N   0  0  0  0  0  0  0  0  0  0  0  0
    9.4534    8.6668   23.0937 C   0  0  0  0  0  0  0  0  0  0  0  0
  1  2  1  0
  2  3  1  0
  3  4  2  0
  3  5  1  0
  5  6  2  0
  6  7  1  0
  7  8  2  0
  8  9  1  0
  9 10  2  0
  9 11  1  0
 11 12  1  0
 12 13  2  0
 12 14  1  0
 14 15  1  0
 15 16  1  0
 16 17  1  0
 17 18  2  0
 18 19  1  0
 19 20  1  0
 20 21  1  0
 11 22  2  0
 22 23  1  0
 23 24  1  0
 10  5  1  0
 20 16  2  0
 23  8  1  0
M  END
>  <energy_score>  (1350) 
-25.096163

>  <inchikey>  (1350) 
None

>  <smiles>  (1350) 
None

>  <ref_pdb>  (1350) 
A2290a

>  <alias>  (1350) 
None

>  <HIPPO Pose ID>  (1350) 
498994

>  <name>  (1350) 
P498994

>  <HIPPO Compound ID>  (1350) 
299289

>  <ref_mols>  (1350) 
A3403a,A2290a

>  <distance_score>  (1350) 
0.763655

>  <inspiration_score>  (1350) 
None

$$$$
P498995
     RDKit          3D

 24 27  0  0  0  0  0  0  0  0999 V2000
   10.4045   14.2310   24.5149 O   0  0  0  0  0  0  0  0  0  0  0  0
   10.2695   13.3920   23.7195 C   0  0  0  0  0  0  0  0  0  0  0  0
   10.6193   13.3706   22.2301 N   0  0  0  0  0  0  0  0  0  0  0  0
   11.2797   14.3160   21.4368 C   0  0  0  0  0  0  0  0  0  0  0  0
   10.3506   15.2687   20.6410 C   0  0  0  0  0  0  0  0  0  0  0  0
   10.3470   15.4530   19.2855 C   0  0  0  0  0  0  0  0  0  0  0  0
    9.5682   16.5364   19.0129 O   0  0  0  0  0  0  0  0  0  0  0  0
    9.1127   16.9168   20.2375 C   0  0  0  0  0  0  0  0  0  0  0  0
    9.4937   16.1440   21.2262 N   0  0  0  0  0  0  0  0  0  0  0  0
   12.6065   14.8487   21.8863 C   0  0  0  0  0  0  0  0  0  0  0  0
   12.5485   13.8742   20.7692 C   0  0  0  0  0  0  0  0  0  0  0  0
    9.5897   12.1396   24.0275 C   0  0  0  0  0  0  0  0  0  0  0  0
    9.8385   11.0249   23.3189 N   0  0  0  0  0  0  0  0  0  0  0  0
    9.0897   10.0798   23.9359 N   0  0  0  0  0  0  0  0  0  0  0  0
    9.2821    8.6588   23.6565 C   0  0  0  0  0  0  0  0  0  0  0  0
    8.6264    8.2333   22.5663 F   0  0  0  0  0  0  0  0  0  0  0  0
   10.5810    8.3195   23.4956 F   0  0  0  0  0  0  0  0  0  0  0  0
    8.7632    7.9459   24.6780 F   0  0  0  0  0  0  0  0  0  0  0  0
    8.2376   10.6018   24.8928 C   0  0  0  0  0  0  0  0  0  0  0  0
    7.2312   10.0344   25.6887 C   0  0  0  0  0  0  0  0  0  0  0  0
    6.5576   10.8636   26.5881 C   0  0  0  0  0  0  0  0  0  0  0  0
    6.8765   12.2129   26.6931 C   0  0  0  0  0  0  0  0  0  0  0  0
    7.8822   12.7686   25.8990 C   0  0  0  0  0  0  0  0  0  0  0  0
    8.5717   11.9459   24.9894 C   0  0  0  0  0  0  0  0  0  0  0  0
  1  2  2  0
  2  3  1  0
  3  4  1  0
  4  5  1  0
  5  6  2  0
  6  7  1  0
  7  8  1  0
  8  9  2  0
  4 10  1  0
 10 11  1  0
  2 12  1  0
 12 13  2  0
 13 14  1  0
 14 15  1  0
 15 16  1  0
 15 17  1  0
 15 18  1  0
 14 19  1  0
 19 20  2  0
 20 21  1  0
 21 22  2  0
 22 23  1  0
 23 24  2  0
 11  4  1  0
 24 12  1  0
  9  5  1  0
 24 19  1  0
M  END
>  <energy_score>  (1351) 
-34.469809

>  <inchikey>  (1351) 
None

>  <smiles>  (1351) 
None

>  <ref_pdb>  (1351) 
A2290a

>  <alias>  (1351) 
None

>  <HIPPO Pose ID>  (1351) 
498995

>  <name>  (1351) 
P498995

>  <HIPPO Compound ID>  (1351) 
299290

>  <ref_mols>  (1351) 
A3403a,A2290a

>  <distance_score>  (1351) 
0.825407

>  <inspiration_score>  (1351) 
None

$$$$
P498996
     RDKit          3D

 24 26  0  0  0  0  0  0  0  0999 V2000
   12.1653   14.7561   17.9680 C   0  0  0  0  0  0  0  0  0  0  0  0
   11.4129   14.1732   19.0687 C   0  0  0  0  0  0  0  0  0  0  0  0
   10.5933   15.0936   19.8038 C   0  0  0  0  0  0  0  0  0  0  0  0
    9.7300   15.9105   19.1468 O   0  0  0  0  0  0  0  0  0  0  0  0
    9.2664   16.7134   20.1341 C   0  0  0  0  0  0  0  0  0  0  0  0
    9.6997   16.3954   21.3252 N   0  0  0  0  0  0  0  0  0  0  0  0
   10.6192   15.4106   21.1281 C   0  0  0  0  0  0  0  0  0  0  0  0
   11.5641   14.9004   22.1492 C   0  0  0  0  0  0  0  0  0  0  0  0
   11.0083   13.7296   22.7373 N   0  0  0  0  0  0  0  0  0  0  0  0
   10.5114   13.4723   24.1588 C   0  0  0  0  0  0  0  0  0  0  0  0
   10.5447   14.1500   25.1046 O   0  0  0  0  0  0  0  0  0  0  0  0
    9.8788   12.1516   24.1798 C   0  0  0  0  0  0  0  0  0  0  0  0
   10.2995   11.1713   23.3650 N   0  0  0  0  0  0  0  0  0  0  0  0
    9.5168   10.1018   23.6838 N   0  0  0  0  0  0  0  0  0  0  0  0
    9.6661    8.8311   22.9553 C   0  0  0  0  0  0  0  0  0  0  0  0
    8.4990    8.1545   22.9006 F   0  0  0  0  0  0  0  0  0  0  0  0
   10.0744    9.0318   21.6806 F   0  0  0  0  0  0  0  0  0  0  0  0
   10.5850    8.0118   23.5148 F   0  0  0  0  0  0  0  0  0  0  0  0
    8.5914   10.4039   24.6672 C   0  0  0  0  0  0  0  0  0  0  0  0
    7.5988    9.6513   25.3023 C   0  0  0  0  0  0  0  0  0  0  0  0
    6.7692   10.2892   26.2302 C   0  0  0  0  0  0  0  0  0  0  0  0
    6.9289   11.6386   26.5238 C   0  0  0  0  0  0  0  0  0  0  0  0
    7.9378   12.3793   25.9062 C   0  0  0  0  0  0  0  0  0  0  0  0
    8.7846   11.7463   24.9758 C   0  0  0  0  0  0  0  0  0  0  0  0
  1  2  1  0
  2  3  1  0
  3  4  1  0
  4  5  1  0
  5  6  2  0
  6  7  1  0
  7  8  1  0
  8  9  1  0
  9 10  1  0
 10 11  2  0
 10 12  1  0
 12 13  2  0
 13 14  1  0
 14 15  1  0
 15 16  1  0
 15 17  1  0
 15 18  1  0
 14 19  1  0
 19 20  2  0
 20 21  1  0
 21 22  2  0
 22 23  1  0
 23 24  2  0
  7  3  2  0
 24 12  1  0
 24 19  1  0
M  END
>  <energy_score>  (1352) 
-13.147733

>  <inchikey>  (1352) 
None

>  <smiles>  (1352) 
None

>  <ref_pdb>  (1352) 
A2290a

>  <alias>  (1352) 
None

>  <HIPPO Pose ID>  (1352) 
498996

>  <name>  (1352) 
P498996

>  <HIPPO Compound ID>  (1352) 
299291

>  <ref_mols>  (1352) 
A3403a,A2290a

>  <distance_score>  (1352) 
0.84266

>  <inspiration_score>  (1352) 
None

$$$$
P498997
     RDKit          3D

 24 26  0  0  0  0  0  0  0  0999 V2000
   11.0601   14.7211   19.5621 O   0  0  0  0  0  0  0  0  0  0  0  0
   10.2241   15.3031   20.1217 C   0  0  0  0  0  0  0  0  0  0  0  0
    9.5130   14.9947   21.4399 N   0  0  0  0  0  0  0  0  0  0  0  0
    9.6027   13.9336   22.2480 N   0  0  0  0  0  0  0  0  0  0  0  0
    9.2065   13.7660   23.7197 C   0  0  0  0  0  0  0  0  0  0  0  0
    8.8097   14.5455   24.4886 O   0  0  0  0  0  0  0  0  0  0  0  0
    9.2947   12.3504   24.0737 C   0  0  0  0  0  0  0  0  0  0  0  0
    9.9250   11.4355   23.3180 N   0  0  0  0  0  0  0  0  0  0  0  0
    9.4269   10.2423   23.7587 N   0  0  0  0  0  0  0  0  0  0  0  0
    9.8002    8.9822   23.0963 C   0  0  0  0  0  0  0  0  0  0  0  0
   10.9257    8.4463   23.6180 F   0  0  0  0  0  0  0  0  0  0  0  0
    8.8182    8.0597   23.1988 F   0  0  0  0  0  0  0  0  0  0  0  0
   10.0349    9.1473   21.7722 F   0  0  0  0  0  0  0  0  0  0  0  0
    8.4944   10.4036   24.7678 C   0  0  0  0  0  0  0  0  0  0  0  0
    7.6282    9.5212   25.4148 C   0  0  0  0  0  0  0  0  0  0  0  0
    6.7382   10.0287   26.3687 C   0  0  0  0  0  0  0  0  0  0  0  0
    6.7182   11.3792   26.6836 C   0  0  0  0  0  0  0  0  0  0  0  0
    7.5726   12.2577   26.0248 C   0  0  0  0  0  0  0  0  0  0  0  0
    8.4643   11.7596   25.0531 C   0  0  0  0  0  0  0  0  0  0  0  0
    9.5965   16.5314   19.6569 C   0  0  0  0  0  0  0  0  0  0  0  0
    9.6851   17.1323   18.4334 C   0  0  0  0  0  0  0  0  0  0  0  0
    8.8769   18.2275   18.4376 O   0  0  0  0  0  0  0  0  0  0  0  0
    8.3561   18.2641   19.6934 C   0  0  0  0  0  0  0  0  0  0  0  0
    8.7443   17.2786   20.4711 N   0  0  0  0  0  0  0  0  0  0  0  0
  1  2  2  0
  2  3  1  0
  3  4  1  0
  4  5  1  0
  5  6  2  0
  5  7  1  0
  7  8  2  0
  8  9  1  0
  9 10  1  0
 10 11  1  0
 10 12  1  0
 10 13  1  0
  9 14  1  0
 14 15  2  0
 15 16  1  0
 16 17  2  0
 17 18  1  0
 18 19  2  0
  2 20  1  0
 20 21  2  0
 21 22  1  0
 22 23  1  0
 23 24  2  0
 19  7  1  0
 24 20  1  0
 19 14  1  0
M  END
>  <energy_score>  (1353) 
-20.063827

>  <inchikey>  (1353) 
None

>  <smiles>  (1353) 
None

>  <ref_pdb>  (1353) 
A2290a

>  <alias>  (1353) 
None

>  <HIPPO Pose ID>  (1353) 
498997

>  <name>  (1353) 
P498997

>  <HIPPO Compound ID>  (1353) 
299292

>  <ref_mols>  (1353) 
A3403a,A2290a

>  <distance_score>  (1353) 
1.480693

>  <inspiration_score>  (1353) 
None

$$$$
P498998
     RDKit          3D

 24 26  0  0  0  0  0  0  0  0999 V2000
    7.4599   18.6192   19.2459 C   0  0  0  0  0  0  0  0  0  0  0  0
    8.7808   18.2827   19.8032 C   0  0  0  0  0  0  0  0  0  0  0  0
    9.2632   16.8830   19.9633 C   0  0  0  0  0  0  0  0  0  0  0  0
    9.6785   16.2901   21.0673 N   0  0  0  0  0  0  0  0  0  0  0  0
   10.5356   15.3019   20.6385 C   0  0  0  0  0  0  0  0  0  0  0  0
   11.5258   14.6599   21.5408 C   0  0  0  0  0  0  0  0  0  0  0  0
   10.9099   13.5808   22.2345 N   0  0  0  0  0  0  0  0  0  0  0  0
   10.5136   13.4411   23.7077 C   0  0  0  0  0  0  0  0  0  0  0  0
   10.5560   14.2136   24.5775 O   0  0  0  0  0  0  0  0  0  0  0  0
    9.9220   12.1183   23.9016 C   0  0  0  0  0  0  0  0  0  0  0  0
   10.3201   11.0851   23.1518 N   0  0  0  0  0  0  0  0  0  0  0  0
    9.5769   10.0364   23.5805 N   0  0  0  0  0  0  0  0  0  0  0  0
    9.7206    8.7353   22.9162 C   0  0  0  0  0  0  0  0  0  0  0  0
   10.0740    8.8804   21.6185 F   0  0  0  0  0  0  0  0  0  0  0  0
    8.5621    8.0477   22.9388 F   0  0  0  0  0  0  0  0  0  0  0  0
   10.6702    7.9590   23.4844 F   0  0  0  0  0  0  0  0  0  0  0  0
    8.6773   10.3946   24.5675 C   0  0  0  0  0  0  0  0  0  0  0  0
    7.7016    9.6793   25.2715 C   0  0  0  0  0  0  0  0  0  0  0  0
    6.9035   10.3701   26.1891 C   0  0  0  0  0  0  0  0  0  0  0  0
    7.0765   11.7335   26.4031 C   0  0  0  0  0  0  0  0  0  0  0  0
    8.0625   12.4389   25.7087 C   0  0  0  0  0  0  0  0  0  0  0  0
    8.8773   11.7555   24.7852 C   0  0  0  0  0  0  0  0  0  0  0  0
   10.4546   15.2255   19.2713 C   0  0  0  0  0  0  0  0  0  0  0  0
    9.6438   16.2283   18.8266 O   0  0  0  0  0  0  0  0  0  0  0  0
  1  2  1  0
  2  3  1  0
  3  4  2  0
  4  5  1  0
  5  6  1  0
  6  7  1  0
  7  8  1  0
  8  9  2  0
  8 10  1  0
 10 11  2  0
 11 12  1  0
 12 13  1  0
 13 14  1  0
 13 15  1  0
 13 16  1  0
 12 17  1  0
 17 18  2  0
 18 19  1  0
 19 20  2  0
 20 21  1  0
 21 22  2  0
  5 23  2  0
 23 24  1  0
 24  3  1  0
 22 10  1  0
 22 17  1  0
M  END
>  <energy_score>  (1354) 
-22.784927

>  <inchikey>  (1354) 
None

>  <smiles>  (1354) 
None

>  <ref_pdb>  (1354) 
A2290a

>  <alias>  (1354) 
None

>  <HIPPO Pose ID>  (1354) 
498998

>  <name>  (1354) 
P498998

>  <HIPPO Compound ID>  (1354) 
299293

>  <ref_mols>  (1354) 
A3403a,A2290a

>  <distance_score>  (1354) 
0.661441

>  <inspiration_score>  (1354) 
None

$$$$
P498999
     RDKit          3D

 24 26  0  0  0  0  0  0  0  0999 V2000
   12.8705   13.4909   23.4005 C   0  0  0  0  0  0  0  0  0  0  0  0
   12.5833   14.1908   22.0567 C   0  0  0  0  0  0  0  0  0  0  0  0
   11.1610   14.7232   22.0780 C   0  0  2  0  0  0  0  0  0  0  0  0
   10.3539   13.6887   22.6095 N   0  0  0  0  0  0  0  0  0  0  0  0
    9.6502   13.5743   23.9549 C   0  0  0  0  0  0  0  0  0  0  0  0
    9.5509   14.3417   24.8216 O   0  0  0  0  0  0  0  0  0  0  0  0
    9.1622   12.2178   24.0430 C   0  0  0  0  0  0  0  0  0  0  0  0
    9.7088   11.2824   23.2504 N   0  0  0  0  0  0  0  0  0  0  0  0
    9.1943   10.1196   23.6961 N   0  0  0  0  0  0  0  0  0  0  0  0
    9.6040    8.8684   23.0432 C   0  0  0  0  0  0  0  0  0  0  0  0
    9.9772    9.0648   21.7564 F   0  0  0  0  0  0  0  0  0  0  0  0
   10.6691    8.3021   23.6473 F   0  0  0  0  0  0  0  0  0  0  0  0
    8.5961    7.9811   23.0406 F   0  0  0  0  0  0  0  0  0  0  0  0
    8.2757   10.3214   24.7116 C   0  0  0  0  0  0  0  0  0  0  0  0
    7.4465    9.4664   25.4291 C   0  0  0  0  0  0  0  0  0  0  0  0
    6.6034   10.0089   26.4071 C   0  0  0  0  0  0  0  0  0  0  0  0
    6.6015   11.3706   26.6821 C   0  0  0  0  0  0  0  0  0  0  0  0
    7.4333   12.2259   25.9669 C   0  0  0  0  0  0  0  0  0  0  0  0
    8.2556   11.6881   24.9620 C   0  0  0  0  0  0  0  0  0  0  0  0
   10.5615   15.2582   20.8511 C   0  0  0  0  0  0  0  0  0  0  0  0
   10.7426   14.9531   19.5269 C   0  0  0  0  0  0  0  0  0  0  0  0
   10.0185   15.8438   18.7937 O   0  0  0  0  0  0  0  0  0  0  0  0
    9.4453   16.6561   19.7084 C   0  0  0  0  0  0  0  0  0  0  0  0
    9.6802   16.3153   20.9479 N   0  0  0  0  0  0  0  0  0  0  0  0
  1  2  1  0
  3  2  1  6
  3  4  1  0
  4  5  1  0
  5  6  2  0
  5  7  1  0
  7  8  2  0
  8  9  1  0
  9 10  1  0
 10 11  1  0
 10 12  1  0
 10 13  1  0
  9 14  1  0
 14 15  2  0
 15 16  1  0
 16 17  2  0
 17 18  1  0
 18 19  2  0
  3 20  1  0
 20 21  2  0
 21 22  1  0
 22 23  1  0
 23 24  2  0
 19  7  1  0
 24 20  1  0
 19 14  1  0
M  END
>  <energy_score>  (1355) 
-8.418627

>  <inchikey>  (1355) 
None

>  <smiles>  (1355) 
None

>  <ref_pdb>  (1355) 
A2290a

>  <alias>  (1355) 
None

>  <HIPPO Pose ID>  (1355) 
498999

>  <name>  (1355) 
P498999

>  <HIPPO Compound ID>  (1355) 
299294

>  <ref_mols>  (1355) 
A3403a,A2290a

>  <distance_score>  (1355) 
0.975499

>  <inspiration_score>  (1355) 
None

$$$$
P499000
     RDKit          3D

 24 26  0  0  0  0  0  0  0  0999 V2000
   13.4277   15.2137   21.4858 C   0  0  0  0  0  0  0  0  0  0  0  0
   12.3964   14.6449   22.3909 C   0  0  0  0  0  0  0  0  0  0  0  0
   11.3549   14.0142   21.5179 C   0  0  1  0  0  0  0  0  0  0  0  0
   10.6388   13.1006   22.3120 N   0  0  0  0  0  0  0  0  0  0  0  0
   10.0279   13.2597   23.7026 C   0  0  0  0  0  0  0  0  0  0  0  0
    9.9489   14.1943   24.3894 O   0  0  0  0  0  0  0  0  0  0  0  0
    9.5593   11.9432   24.0664 C   0  0  0  0  0  0  0  0  0  0  0  0
   10.0871   10.8892   23.4312 N   0  0  0  0  0  0  0  0  0  0  0  0
    9.3265    9.8477   23.8046 N   0  0  0  0  0  0  0  0  0  0  0  0
    9.4406    8.6086   23.0255 C   0  0  0  0  0  0  0  0  0  0  0  0
   10.2125    7.6647   23.6057 F   0  0  0  0  0  0  0  0  0  0  0  0
    8.2291    8.0655   22.8293 F   0  0  0  0  0  0  0  0  0  0  0  0
    9.9839    8.8380   21.8033 F   0  0  0  0  0  0  0  0  0  0  0  0
    8.4051   10.2099   24.7731 C   0  0  0  0  0  0  0  0  0  0  0  0
    7.4132    9.5103   25.4546 C   0  0  0  0  0  0  0  0  0  0  0  0
    6.5937   10.2000   26.3551 C   0  0  0  0  0  0  0  0  0  0  0  0
    6.7457   11.5657   26.5617 C   0  0  0  0  0  0  0  0  0  0  0  0
    7.7221   12.2739   25.8644 C   0  0  0  0  0  0  0  0  0  0  0  0
    8.5587   11.5803   24.9719 C   0  0  0  0  0  0  0  0  0  0  0  0
   10.4840   14.9438   20.7689 C   0  0  0  0  0  0  0  0  0  0  0  0
   10.4942   15.2198   19.4214 C   0  0  0  0  0  0  0  0  0  0  0  0
    9.6882   16.2931   19.1978 O   0  0  0  0  0  0  0  0  0  0  0  0
    9.2119   16.5977   20.4321 C   0  0  0  0  0  0  0  0  0  0  0  0
    9.5964   15.7798   21.3831 N   0  0  0  0  0  0  0  0  0  0  0  0
  1  2  1  0
  3  2  1  1
  3  4  1  0
  4  5  1  0
  5  6  2  0
  5  7  1  0
  7  8  2  0
  8  9  1  0
  9 10  1  0
 10 11  1  0
 10 12  1  0
 10 13  1  0
  9 14  1  0
 14 15  2  0
 15 16  1  0
 16 17  2  0
 17 18  1  0
 18 19  2  0
  3 20  1  0
 20 21  2  0
 21 22  1  0
 22 23  1  0
 23 24  2  0
 19  7  1  0
 24 20  1  0
 19 14  1  0
M  END
>  <energy_score>  (1356) 
-3.73096

>  <inchikey>  (1356) 
None

>  <smiles>  (1356) 
None

>  <ref_pdb>  (1356) 
A2290a

>  <alias>  (1356) 
None

>  <HIPPO Pose ID>  (1356) 
499000

>  <name>  (1356) 
P499000

>  <HIPPO Compound ID>  (1356) 
299294

>  <ref_mols>  (1356) 
A3403a,A2290a

>  <distance_score>  (1356) 
0.878275

>  <inspiration_score>  (1356) 
None

$$$$
P499001
     RDKit          3D

 25 27  0  0  0  0  0  0  0  0999 V2000
   11.9518   14.1936   18.3987 C   0  0  0  0  0  0  0  0  0  0  0  0
   11.4577   15.2093   19.1783 O   0  0  0  0  0  0  0  0  0  0  0  0
   10.3734   15.8573   18.5776 C   0  0  0  0  0  0  0  0  0  0  0  0
    9.6585   16.3753   19.6887 C   0  0  0  0  0  0  0  0  0  0  0  0
    8.9628   17.5062   19.4668 O   0  0  0  0  0  0  0  0  0  0  0  0
    8.3868   17.7029   20.6661 C   0  0  0  0  0  0  0  0  0  0  0  0
    8.5456   16.7098   21.5115 N   0  0  0  0  0  0  0  0  0  0  0  0
    9.5523   15.9497   20.9817 C   0  0  0  0  0  0  0  0  0  0  0  0
   10.4877   15.0482   21.7336 C   0  0  0  0  0  0  0  0  0  0  0  0
    9.9184   13.9088   22.3632 N   0  0  0  0  0  0  0  0  0  0  0  0
    9.4354   13.7050   23.7952 C   0  0  0  0  0  0  0  0  0  0  0  0
    9.3516   14.4577   24.6773 O   0  0  0  0  0  0  0  0  0  0  0  0
    9.1374   12.2919   23.9922 C   0  0  0  0  0  0  0  0  0  0  0  0
    9.6965   11.3277   23.2401 N   0  0  0  0  0  0  0  0  0  0  0  0
    9.1757   10.1887   23.7293 N   0  0  0  0  0  0  0  0  0  0  0  0
    9.5569    8.9322   23.1235 C   0  0  0  0  0  0  0  0  0  0  0  0
    8.2658   10.4019   24.7393 C   0  0  0  0  0  0  0  0  0  0  0  0
    7.4353    9.5445   25.4582 C   0  0  0  0  0  0  0  0  0  0  0  0
    6.5690   10.0957   26.4069 C   0  0  0  0  0  0  0  0  0  0  0  0
    6.5670   11.4718   26.6380 C   0  0  0  0  0  0  0  0  0  0  0  0
    5.6563   12.0238   27.6344 N   0  0  0  0  0  0  0  0  0  0  0  0
    6.0593   12.9853   28.3033 O   0  0  0  0  0  0  0  0  0  0  0  0
    4.5534   11.4735   27.7691 O   0  0  0  0  0  0  0  0  0  0  0  0
    7.4109   12.3341   25.9349 C   0  0  0  0  0  0  0  0  0  0  0  0
    8.2517   11.7726   24.9559 C   0  0  0  0  0  0  0  0  0  0  0  0
  1  2  1  0
  2  3  1  0
  3  4  1  0
  4  5  1  0
  5  6  1  0
  6  7  2  0
  7  8  1  0
  8  9  1  0
  9 10  1  0
 10 11  1  0
 11 12  2  0
 11 13  1  0
 13 14  2  0
 14 15  1  0
 15 16  1  0
 15 17  1  0
 17 18  2  0
 18 19  1  0
 19 20  2  0
 20 21  1  0
 21 22  2  0
 21 23  1  0
 20 24  1  0
 24 25  2  0
  8  4  2  0
 25 13  1  0
 25 17  1  0
M  CHG  2  21   1  23  -1
M  END
>  <energy_score>  (1357) 
-7.037225

>  <inchikey>  (1357) 
None

>  <smiles>  (1357) 
None

>  <ref_pdb>  (1357) 
A2290a

>  <alias>  (1357) 
None

>  <HIPPO Pose ID>  (1357) 
499001

>  <name>  (1357) 
P499001

>  <HIPPO Compound ID>  (1357) 
299297

>  <ref_mols>  (1357) 
A3403a,A2290a

>  <distance_score>  (1357) 
1.316686

>  <inspiration_score>  (1357) 
None

$$$$
P499002
     RDKit          3D

 25 27  0  0  0  0  0  0  0  0999 V2000
    9.4366    8.6859   23.0887 C   0  0  0  0  0  0  0  0  0  0  0  0
    9.3559    9.9694   23.7424 N   0  0  0  0  0  0  0  0  0  0  0  0
   10.2082   10.9263   23.3525 N   0  0  0  0  0  0  0  0  0  0  0  0
    9.8768   11.9954   24.0937 C   0  0  0  0  0  0  0  0  0  0  0  0
   10.6234   13.2464   23.9525 C   0  0  0  0  0  0  0  0  0  0  0  0
   10.6580   14.0466   24.7970 O   0  0  0  0  0  0  0  0  0  0  0  0
   11.2191   13.2636   22.5458 N   0  0  0  0  0  0  0  0  0  0  0  0
   11.8985   14.2932   21.8441 C   0  0  0  0  0  0  0  0  0  0  0  0
   10.8956   14.9574   20.9809 C   0  0  0  0  0  0  0  0  0  0  0  0
    9.8645   15.6828   21.5102 N   0  0  0  0  0  0  0  0  0  0  0  0
    9.3424   16.3085   20.4847 C   0  0  0  0  0  0  0  0  0  0  0  0
    9.8409   15.9301   19.2813 O   0  0  0  0  0  0  0  0  0  0  0  0
   10.8360   15.0499   19.6128 C   0  0  0  0  0  0  0  0  0  0  0  0
   11.6959   14.5362   18.5542 C   0  0  0  0  0  0  0  0  0  0  0  0
   12.8412   14.0298   19.0908 F   0  0  0  0  0  0  0  0  0  0  0  0
   11.1277   13.4927   17.9222 F   0  0  0  0  0  0  0  0  0  0  0  0
    8.7591   11.7326   24.9218 C   0  0  0  0  0  0  0  0  0  0  0  0
    7.9670   12.4863   25.8096 C   0  0  0  0  0  0  0  0  0  0  0  0
    6.9058   11.8402   26.4602 C   0  0  0  0  0  0  0  0  0  0  0  0
    6.0691   12.5996   27.3892 N   0  0  0  0  0  0  0  0  0  0  0  0
    6.5774   13.5892   27.9358 O   0  0  0  0  0  0  0  0  0  0  0  0
    4.9219   12.1820   27.6068 O   0  0  0  0  0  0  0  0  0  0  0  0
    6.6465   10.4811   26.2659 C   0  0  0  0  0  0  0  0  0  0  0  0
    7.4336    9.7356   25.3849 C   0  0  0  0  0  0  0  0  0  0  0  0
    8.4665   10.3881   24.7042 C   0  0  0  0  0  0  0  0  0  0  0  0
  1  2  1  0
  2  3  1  0
  3  4  2  0
  4  5  1  0
  5  6  2  0
  5  7  1  0
  7  8  1  0
  8  9  1  0
  9 10  1  0
 10 11  2  0
 11 12  1  0
 12 13  1  0
 13 14  1  0
 14 15  1  0
 14 16  1  0
  4 17  1  0
 17 18  2  0
 18 19  1  0
 19 20  1  0
 20 21  2  0
 20 22  1  0
 19 23  2  0
 23 24  1  0
 24 25  2  0
 25  2  1  0
 13  9  2  0
 25 17  1  0
M  CHG  2  20   1  22  -1
M  END
>  <energy_score>  (1358) 
-25.35508

>  <inchikey>  (1358) 
None

>  <smiles>  (1358) 
None

>  <ref_pdb>  (1358) 
A2290a

>  <alias>  (1358) 
None

>  <HIPPO Pose ID>  (1358) 
499002

>  <name>  (1358) 
P499002

>  <HIPPO Compound ID>  (1358) 
299301

>  <ref_mols>  (1358) 
A3403a,A2290a

>  <distance_score>  (1358) 
0.760115

>  <inspiration_score>  (1358) 
None

$$$$
P499003
     RDKit          3D

 25 27  0  0  0  0  0  0  0  0999 V2000
    9.5687    8.7105   23.0179 C   0  0  0  0  0  0  0  0  0  0  0  0
    9.4241   10.0217   23.6036 N   0  0  0  0  0  0  0  0  0  0  0  0
   10.1794   11.0208   23.1223 N   0  0  0  0  0  0  0  0  0  0  0  0
    9.8365   12.0873   23.8599 C   0  0  0  0  0  0  0  0  0  0  0  0
   10.5069   13.3812   23.6846 C   0  0  0  0  0  0  0  0  0  0  0  0
   10.5144   14.1613   24.5486 O   0  0  0  0  0  0  0  0  0  0  0  0
   11.0555   13.4740   22.2580 N   0  0  0  0  0  0  0  0  0  0  0  0
   11.6433   14.5711   21.5599 C   0  0  0  0  0  0  0  0  0  0  0  0
   10.6380   15.2273   20.6832 C   0  0  0  0  0  0  0  0  0  0  0  0
   10.5277   15.1510   19.3184 C   0  0  0  0  0  0  0  0  0  0  0  0
    9.6826   16.1304   18.8946 O   0  0  0  0  0  0  0  0  0  0  0  0
    9.3172   16.7977   20.0363 C   0  0  0  0  0  0  0  0  0  0  0  0
    8.5967   18.1106   19.8455 C   0  0  0  0  0  0  0  0  0  0  0  0
    7.2769   17.9970   19.5888 F   0  0  0  0  0  0  0  0  0  0  0  0
    9.0860   18.7718   18.7553 F   0  0  0  0  0  0  0  0  0  0  0  0
    9.7906   16.2202   21.1316 N   0  0  0  0  0  0  0  0  0  0  0  0
    8.7771   11.7814   24.7559 C   0  0  0  0  0  0  0  0  0  0  0  0
    7.9914   12.5108   25.6708 C   0  0  0  0  0  0  0  0  0  0  0  0
    6.9898   11.8265   26.3751 C   0  0  0  0  0  0  0  0  0  0  0  0
    6.1527   12.5621   27.3209 N   0  0  0  0  0  0  0  0  0  0  0  0
    5.0151   12.1216   27.5437 O   0  0  0  0  0  0  0  0  0  0  0  0
    6.6517   13.5536   27.8713 O   0  0  0  0  0  0  0  0  0  0  0  0
    6.7853   10.4535   26.2136 C   0  0  0  0  0  0  0  0  0  0  0  0
    7.5740    9.7291   25.3169 C   0  0  0  0  0  0  0  0  0  0  0  0
    8.5455   10.4194   24.5831 C   0  0  0  0  0  0  0  0  0  0  0  0
  1  2  1  0
  2  3  1  0
  3  4  2  0
  4  5  1  0
  5  6  2  0
  5  7  1  0
  7  8  1  0
  8  9  1  0
  9 10  2  0
 10 11  1  0
 11 12  1  0
 12 13  1  0
 13 14  1  0
 13 15  1  0
 12 16  2  0
  4 17  1  0
 17 18  2  0
 18 19  1  0
 19 20  1  0
 20 21  2  0
 20 22  1  0
 19 23  2  0
 23 24  1  0
 24 25  2  0
 25  2  1  0
 16  9  1  0
 25 17  1  0
M  CHG  2  20   1  22  -1
M  END
>  <energy_score>  (1359) 
-32.216481

>  <inchikey>  (1359) 
None

>  <smiles>  (1359) 
None

>  <ref_pdb>  (1359) 
A2290a

>  <alias>  (1359) 
None

>  <HIPPO Pose ID>  (1359) 
499003

>  <name>  (1359) 
P499003

>  <HIPPO Compound ID>  (1359) 
299303

>  <ref_mols>  (1359) 
A3403a,A2290a

>  <distance_score>  (1359) 
0.651353

>  <inspiration_score>  (1359) 
None

$$$$
P499004
     RDKit          3D

 25 27  0  0  0  0  0  0  0  0999 V2000
    8.5333   18.0358   19.7978 C   0  0  0  0  0  0  0  0  0  0  0  0
    9.2777   16.7764   20.0497 C   0  0  0  0  0  0  0  0  0  0  0  0
    9.5504   16.1961   21.1931 N   0  0  0  0  0  0  0  0  0  0  0  0
   10.5340   15.2764   20.9079 C   0  0  0  0  0  0  0  0  0  0  0  0
   11.3537   14.7330   22.0214 C   0  0  2  0  0  0  0  0  0  0  0  0
   12.7709   14.3453   21.7105 C   0  0  0  0  0  0  0  0  0  0  0  0
   10.6861   13.6348   22.6297 N   0  0  0  0  0  0  0  0  0  0  0  0
   10.2605   13.4115   24.0771 C   0  0  0  0  0  0  0  0  0  0  0  0
   10.3160   14.1201   24.9980 O   0  0  0  0  0  0  0  0  0  0  0  0
    9.6427   12.0939   24.1630 C   0  0  0  0  0  0  0  0  0  0  0  0
   10.0404   11.0865   23.3694 N   0  0  0  0  0  0  0  0  0  0  0  0
    9.2877   10.0449   23.7593 N   0  0  0  0  0  0  0  0  0  0  0  0
    9.4747    8.7769   23.0936 C   0  0  0  0  0  0  0  0  0  0  0  0
    8.3788   10.3687   24.7406 C   0  0  0  0  0  0  0  0  0  0  0  0
    7.3992    9.6283   25.4044 C   0  0  0  0  0  0  0  0  0  0  0  0
    6.5720   10.2858   26.3186 C   0  0  0  0  0  0  0  0  0  0  0  0
    6.7455   11.6488   26.5677 C   0  0  0  0  0  0  0  0  0  0  0  0
    5.8694   12.3142   27.5306 N   0  0  0  0  0  0  0  0  0  0  0  0
    4.7431   11.8294   27.7154 O   0  0  0  0  0  0  0  0  0  0  0  0
    6.3259   13.2957   28.1338 O   0  0  0  0  0  0  0  0  0  0  0  0
    7.7537   12.3858   25.9349 C   0  0  0  0  0  0  0  0  0  0  0  0
    8.5752   11.7188   25.0059 C   0  0  0  0  0  0  0  0  0  0  0  0
   10.6665   15.1947   19.5399 C   0  0  0  0  0  0  0  0  0  0  0  0
   11.5926   14.5154   18.6276 C   0  0  0  0  0  0  0  0  0  0  0  0
    9.8494   16.1484   18.9813 O   0  0  0  0  0  0  0  0  0  0  0  0
  1  2  1  0
  2  3  2  0
  3  4  1  0
  4  5  1  0
  5  6  1  6
  5  7  1  0
  7  8  1  0
  8  9  2  0
  8 10  1  0
 10 11  2  0
 11 12  1  0
 12 13  1  0
 12 14  1  0
 14 15  2  0
 15 16  1  0
 16 17  2  0
 17 18  1  0
 18 19  2  0
 18 20  1  0
 17 21  1  0
 21 22  2  0
  4 23  2  0
 23 24  1  0
 23 25  1  0
 25  2  1  0
 22 10  1  0
 22 14  1  0
M  CHG  2  18   1  20  -1
M  END
>  <energy_score>  (1360) 
-43.370869

>  <inchikey>  (1360) 
None

>  <smiles>  (1360) 
None

>  <ref_pdb>  (1360) 
A2290a

>  <alias>  (1360) 
None

>  <HIPPO Pose ID>  (1360) 
499004

>  <name>  (1360) 
P499004

>  <HIPPO Compound ID>  (1360) 
299305

>  <ref_mols>  (1360) 
A3403a,A2290a

>  <distance_score>  (1360) 
0.825752

>  <inspiration_score>  (1360) 
None

$$$$
P499005
     RDKit          3D

 25 27  0  0  0  0  0  0  0  0999 V2000
    8.5962   17.4271   20.6492 C   0  0  0  0  0  0  0  0  0  0  0  0
    9.5029   16.2762   20.5265 C   0  0  0  0  0  0  0  0  0  0  0  0
    9.9667   15.5088   21.4906 N   0  0  0  0  0  0  0  0  0  0  0  0
   10.9024   14.7310   20.8701 C   0  0  0  0  0  0  0  0  0  0  0  0
   11.8775   13.8955   21.6006 C   0  0  1  0  0  0  0  0  0  0  0  0
   12.8284   14.7387   22.3852 C   0  0  0  0  0  0  0  0  0  0  0  0
   11.1746   12.9684   22.4122 N   0  0  0  0  0  0  0  0  0  0  0  0
   10.5230   13.1427   23.7855 C   0  0  0  0  0  0  0  0  0  0  0  0
   10.5220   14.0534   24.5111 O   0  0  0  0  0  0  0  0  0  0  0  0
    9.7822   11.9129   24.0457 C   0  0  0  0  0  0  0  0  0  0  0  0
   10.1012   10.8057   23.3584 N   0  0  0  0  0  0  0  0  0  0  0  0
    9.2443    9.8805   23.7893 N   0  0  0  0  0  0  0  0  0  0  0  0
    9.2926    8.5927   23.1463 C   0  0  0  0  0  0  0  0  0  0  0  0
    8.3771   10.3454   24.7494 C   0  0  0  0  0  0  0  0  0  0  0  0
    7.3397    9.7371   25.4619 C   0  0  0  0  0  0  0  0  0  0  0  0
    6.5821   10.5251   26.3319 C   0  0  0  0  0  0  0  0  0  0  0  0
    6.8698   11.8843   26.4800 C   0  0  0  0  0  0  0  0  0  0  0  0
    6.0642   12.6882   27.3989 N   0  0  0  0  0  0  0  0  0  0  0  0
    4.9156   12.2969   27.6535 O   0  0  0  0  0  0  0  0  0  0  0  0
    6.6000   13.6868   27.9017 O   0  0  0  0  0  0  0  0  0  0  0  0
    7.9279   12.4911   25.7887 C   0  0  0  0  0  0  0  0  0  0  0  0
    8.6908   11.6942   24.9145 C   0  0  0  0  0  0  0  0  0  0  0  0
   10.8764   14.9841   19.5272 C   0  0  0  0  0  0  0  0  0  0  0  0
   11.7236   14.5166   18.4406 C   0  0  0  0  0  0  0  0  0  0  0  0
    9.9582   15.9594   19.2811 O   0  0  0  0  0  0  0  0  0  0  0  0
  1  2  1  0
  2  3  2  0
  3  4  1  0
  4  5  1  0
  5  6  1  1
  5  7  1  0
  7  8  1  0
  8  9  2  0
  8 10  1  0
 10 11  2  0
 11 12  1  0
 12 13  1  0
 12 14  1  0
 14 15  2  0
 15 16  1  0
 16 17  2  0
 17 18  1  0
 18 19  2  0
 18 20  1  0
 17 21  1  0
 21 22  2  0
  4 23  2  0
 23 24  1  0
 23 25  1  0
 25  2  1  0
 22 10  1  0
 22 14  1  0
M  CHG  2  18   1  20  -1
M  END
>  <energy_score>  (1361) 
-22.541752

>  <inchikey>  (1361) 
None

>  <smiles>  (1361) 
None

>  <ref_pdb>  (1361) 
A2290a

>  <alias>  (1361) 
None

>  <HIPPO Pose ID>  (1361) 
499005

>  <name>  (1361) 
P499005

>  <HIPPO Compound ID>  (1361) 
299305

>  <ref_mols>  (1361) 
A3403a,A2290a

>  <distance_score>  (1361) 
0.770192

>  <inspiration_score>  (1361) 
None

$$$$
P499006
     RDKit          3D

 25 27  0  0  0  0  0  0  0  0999 V2000
   10.7267   14.1799   24.5761 O   0  0  0  0  0  0  0  0  0  0  0  0
   10.6132   13.4149   23.7056 C   0  0  0  0  0  0  0  0  0  0  0  0
   10.9645   13.5410   22.2198 N   0  0  0  0  0  0  0  0  0  0  0  0
   11.6116   14.5896   21.5083 C   0  0  0  0  0  0  0  0  0  0  0  0
   10.6162   15.2698   20.6441 C   0  0  0  0  0  0  0  0  0  0  0  0
   10.4996   15.2407   19.2784 C   0  0  0  0  0  0  0  0  0  0  0  0
    9.6630   16.2463   18.8914 O   0  0  0  0  0  0  0  0  0  0  0  0
    9.2821   16.8493   20.0647 C   0  0  0  0  0  0  0  0  0  0  0  0
    8.5418   18.1545   19.9478 C   0  0  0  0  0  0  0  0  0  0  0  0
    7.2797   18.0539   19.4814 F   0  0  0  0  0  0  0  0  0  0  0  0
    8.4668   18.7929   21.1417 F   0  0  0  0  0  0  0  0  0  0  0  0
    9.7610   16.2289   21.1313 N   0  0  0  0  0  0  0  0  0  0  0  0
    9.9751   12.1143   23.9057 C   0  0  0  0  0  0  0  0  0  0  0  0
   10.3538   11.0684   23.1622 N   0  0  0  0  0  0  0  0  0  0  0  0
    9.5830   10.0398   23.5875 N   0  0  0  0  0  0  0  0  0  0  0  0
    9.6991    8.7357   22.9242 C   0  0  0  0  0  0  0  0  0  0  0  0
   10.0542    8.8703   21.6262 F   0  0  0  0  0  0  0  0  0  0  0  0
   10.6327    7.9382   23.4916 F   0  0  0  0  0  0  0  0  0  0  0  0
    8.5277    8.0707   22.9533 F   0  0  0  0  0  0  0  0  0  0  0  0
    8.6898   10.4195   24.5721 C   0  0  0  0  0  0  0  0  0  0  0  0
    7.6994    9.7252   25.2777 C   0  0  0  0  0  0  0  0  0  0  0  0
    6.9133   10.4361   26.1900 C   0  0  0  0  0  0  0  0  0  0  0  0
    7.1117   11.7976   26.3962 C   0  0  0  0  0  0  0  0  0  0  0  0
    8.1131   12.4814   25.7012 C   0  0  0  0  0  0  0  0  0  0  0  0
    8.9177   11.7781   24.7843 C   0  0  0  0  0  0  0  0  0  0  0  0
  1  2  2  0
  2  3  1  0
  3  4  1  0
  4  5  1  0
  5  6  2  0
  6  7  1  0
  7  8  1  0
  8  9  1  0
  9 10  1  0
  9 11  1  0
  8 12  2  0
  2 13  1  0
 13 14  2  0
 14 15  1  0
 15 16  1  0
 16 17  1  0
 16 18  1  0
 16 19  1  0
 15 20  1  0
 20 21  2  0
 21 22  1  0
 22 23  2  0
 23 24  1  0
 24 25  2  0
 12  5  1  0
 25 13  1  0
 25 20  1  0
M  END
>  <energy_score>  (1362) 
-24.505995

>  <inchikey>  (1362) 
None

>  <smiles>  (1362) 
None

>  <ref_pdb>  (1362) 
A2290a

>  <alias>  (1362) 
None

>  <HIPPO Pose ID>  (1362) 
499006

>  <name>  (1362) 
P499006

>  <HIPPO Compound ID>  (1362) 
299306

>  <ref_mols>  (1362) 
A3403a,A2290a

>  <distance_score>  (1362) 
0.642107

>  <inspiration_score>  (1362) 
None

$$$$
P499007
     RDKit          3D

 25 28  0  0  0  0  0  0  0  0999 V2000
   10.0399   14.1686   25.6590 O   0  0  0  0  0  0  0  0  0  0  0  0
   10.1281   13.3051   24.8887 C   0  0  0  0  0  0  0  0  0  0  0  0
   10.8748   13.2332   23.5745 N   0  0  0  0  0  0  0  0  0  0  0  0
   11.5846   14.2103   22.8814 C   0  0  0  0  0  0  0  0  0  0  0  0
   10.5273   14.6610   21.9468 C   0  0  0  0  0  0  0  0  0  0  0  0
    9.2090   14.8158   22.2972 N   0  0  0  0  0  0  0  0  0  0  0  0
    8.6955   15.4245   21.2542 C   0  0  0  0  0  0  0  0  0  0  0  0
    9.5015   15.4939   20.1679 O   0  0  0  0  0  0  0  0  0  0  0  0
   10.6535   14.9615   20.6351 C   0  0  0  0  0  0  0  0  0  0  0  0
   11.9813   14.9106   19.9784 C   0  0  0  0  0  0  0  0  0  0  0  0
   11.9484   14.3879   18.5812 C   0  0  0  0  0  0  0  0  0  0  0  0
   12.8162   13.7728   19.6163 C   0  0  0  0  0  0  0  0  0  0  0  0
    9.4244   12.0392   24.9523 C   0  0  0  0  0  0  0  0  0  0  0  0
    9.7818   11.0460   24.1157 N   0  0  0  0  0  0  0  0  0  0  0  0
    8.8743   10.0849   24.3463 N   0  0  0  0  0  0  0  0  0  0  0  0
    9.0664    8.7444   23.8077 C   0  0  0  0  0  0  0  0  0  0  0  0
   10.3460    8.4655   23.4692 F   0  0  0  0  0  0  0  0  0  0  0  0
    8.6723    7.8745   24.7555 F   0  0  0  0  0  0  0  0  0  0  0  0
    8.2988    8.4882   22.7444 F   0  0  0  0  0  0  0  0  0  0  0  0
    7.9118   10.4655   25.2629 C   0  0  0  0  0  0  0  0  0  0  0  0
    6.7923    9.8198   25.7916 C   0  0  0  0  0  0  0  0  0  0  0  0
    6.0029   10.5164   26.7092 C   0  0  0  0  0  0  0  0  0  0  0  0
    6.3062   11.8230   27.0746 C   0  0  0  0  0  0  0  0  0  0  0  0
    7.4271   12.4600   26.5483 C   0  0  0  0  0  0  0  0  0  0  0  0
    8.2472   11.7540   25.6543 C   0  0  0  0  0  0  0  0  0  0  0  0
  1  2  2  0
  2  3  1  0
  3  4  1  0
  4  5  1  0
  5  6  1  0
  6  7  2  0
  7  8  1  0
  8  9  1  0
  9 10  1  0
 10 11  1  0
 11 12  1  0
  2 13  1  0
 13 14  2  0
 14 15  1  0
 15 16  1  0
 16 17  1  0
 16 18  1  0
 16 19  1  0
 15 20  1  0
 20 21  2  0
 21 22  1  0
 22 23  2  0
 23 24  1  0
 24 25  2  0
  9  5  2  0
 12 10  1  0
 25 13  1  0
 25 20  1  0
M  END
>  <energy_score>  (1363) 
-6.610916

>  <inchikey>  (1363) 
None

>  <smiles>  (1363) 
None

>  <ref_pdb>  (1363) 
A2290a

>  <alias>  (1363) 
None

>  <HIPPO Pose ID>  (1363) 
499007

>  <name>  (1363) 
P499007

>  <HIPPO Compound ID>  (1363) 
299307

>  <ref_mols>  (1363) 
A3403a,A2290a

>  <distance_score>  (1363) 
1.527348

>  <inspiration_score>  (1363) 
None

$$$$
P499008
     RDKit          3D

 25 27  0  0  0  0  0  0  0  0999 V2000
    8.5486   18.8011   20.6371 C   0  0  0  0  0  0  0  0  0  0  0  0
    8.3777   17.4041   20.2009 C   0  0  0  0  0  0  0  0  0  0  0  0
    9.4980   16.4478   20.3181 C   0  0  0  0  0  0  0  0  0  0  0  0
    9.9914   15.8694   21.3928 N   0  0  0  0  0  0  0  0  0  0  0  0
   10.9636   15.0261   20.9249 C   0  0  0  0  0  0  0  0  0  0  0  0
   11.9171   14.3366   21.8197 C   0  0  0  0  0  0  0  0  0  0  0  0
   11.1911   13.3428   22.5311 N   0  0  0  0  0  0  0  0  0  0  0  0
   10.6623   13.3347   23.9628 C   0  0  0  0  0  0  0  0  0  0  0  0
   10.7989   14.1070   24.8225 O   0  0  0  0  0  0  0  0  0  0  0  0
    9.8222   12.1432   24.1298 C   0  0  0  0  0  0  0  0  0  0  0  0
   10.0416   11.0279   23.4100 N   0  0  0  0  0  0  0  0  0  0  0  0
    9.1760   10.1233   23.9379 N   0  0  0  0  0  0  0  0  0  0  0  0
    9.2710    8.6940   23.6357 C   0  0  0  0  0  0  0  0  0  0  0  0
    8.7572    7.9950   24.6739 F   0  0  0  0  0  0  0  0  0  0  0  0
    8.5292    8.3256   22.5823 F   0  0  0  0  0  0  0  0  0  0  0  0
   10.5358    8.2683   23.4086 F   0  0  0  0  0  0  0  0  0  0  0  0
    8.3124   10.6777   24.8670 C   0  0  0  0  0  0  0  0  0  0  0  0
    7.2480   10.1462   25.6127 C   0  0  0  0  0  0  0  0  0  0  0  0
    6.5733   10.9964   26.4909 C   0  0  0  0  0  0  0  0  0  0  0  0
    6.9480   12.3289   26.6246 C   0  0  0  0  0  0  0  0  0  0  0  0
    8.0189   12.8439   25.8888 C   0  0  0  0  0  0  0  0  0  0  0  0
    8.7148   12.0000   25.0028 C   0  0  0  0  0  0  0  0  0  0  0  0
   10.9217   15.0359   19.5556 C   0  0  0  0  0  0  0  0  0  0  0  0
   11.7494   14.4231   18.5289 C   0  0  0  0  0  0  0  0  0  0  0  0
    9.9758   15.9296   19.1514 O   0  0  0  0  0  0  0  0  0  0  0  0
  1  2  1  0
  2  3  1  0
  3  4  2  0
  4  5  1  0
  5  6  1  0
  6  7  1  0
  7  8  1  0
  8  9  2  0
  8 10  1  0
 10 11  2  0
 11 12  1  0
 12 13  1  0
 13 14  1  0
 13 15  1  0
 13 16  1  0
 12 17  1  0
 17 18  2  0
 18 19  1  0
 19 20  2  0
 20 21  1  0
 21 22  2  0
  5 23  2  0
 23 24  1  0
 23 25  1  0
 25  3  1  0
 22 10  1  0
 22 17  1  0
M  END
>  <energy_score>  (1364) 
-1.797433

>  <inchikey>  (1364) 
None

>  <smiles>  (1364) 
None

>  <ref_pdb>  (1364) 
A2290a

>  <alias>  (1364) 
None

>  <HIPPO Pose ID>  (1364) 
499008

>  <name>  (1364) 
P499008

>  <HIPPO Compound ID>  (1364) 
299310

>  <ref_mols>  (1364) 
A3403a,A2290a

>  <distance_score>  (1364) 
0.769555

>  <inspiration_score>  (1364) 
None

$$$$
P499009
     RDKit          3D

 25 27  0  0  0  0  0  0  0  0999 V2000
   13.3097   15.0159   21.4138 C   0  0  0  0  0  0  0  0  0  0  0  0
   12.4242   13.9614   21.9841 C   0  0  0  0  0  0  0  0  0  0  0  0
   11.0433   14.5337   22.1608 C   0  0  2  0  0  0  0  0  0  0  0  0
   10.2766   13.5377   22.7905 N   0  0  0  0  0  0  0  0  0  0  0  0
    9.8059   13.4155   24.2305 C   0  0  0  0  0  0  0  0  0  0  0  0
    9.9063   14.1539   25.1219 O   0  0  0  0  0  0  0  0  0  0  0  0
    9.2509   12.0850   24.3543 C   0  0  0  0  0  0  0  0  0  0  0  0
    9.6890   11.1028   23.5457 N   0  0  0  0  0  0  0  0  0  0  0  0
    9.0045   10.0260   23.9462 N   0  0  0  0  0  0  0  0  0  0  0  0
    9.2363    8.7854   23.2469 C   0  0  0  0  0  0  0  0  0  0  0  0
    8.0950   10.3115   24.9381 C   0  0  0  0  0  0  0  0  0  0  0  0
    7.1354    9.5499   25.5922 C   0  0  0  0  0  0  0  0  0  0  0  0
    6.3069   10.1704   26.5333 C   0  0  0  0  0  0  0  0  0  0  0  0
    6.4376   11.5277   26.8301 C   0  0  0  0  0  0  0  0  0  0  0  0
    5.4911   12.1286   27.8069 C   0  0  0  0  0  0  0  0  0  0  0  0
    4.5051   11.5496   28.2366 O   0  0  0  0  0  0  0  0  0  0  0  0
    5.8983   13.3731   28.1580 O   0  0  0  0  0  0  0  0  0  0  0  0
    5.0241   14.0383   29.0699 C   0  0  0  0  0  0  0  0  0  0  0  0
    7.4226   12.2858   26.1848 C   0  0  0  0  0  0  0  0  0  0  0  0
    8.2438   11.6604   25.2275 C   0  0  0  0  0  0  0  0  0  0  0  0
   10.3786   15.1021   20.9630 C   0  0  0  0  0  0  0  0  0  0  0  0
   10.6056   14.9152   19.6202 C   0  0  0  0  0  0  0  0  0  0  0  0
    9.9405   15.8887   18.9378 O   0  0  0  0  0  0  0  0  0  0  0  0
    9.3531   16.6301   19.9051 C   0  0  0  0  0  0  0  0  0  0  0  0
    9.5133   16.1607   21.1146 N   0  0  0  0  0  0  0  0  0  0  0  0
  1  2  1  0
  3  2  1  6
  3  4  1  0
  4  5  1  0
  5  6  2  0
  5  7  1  0
  7  8  2  0
  8  9  1  0
  9 10  1  0
  9 11  1  0
 11 12  2  0
 12 13  1  0
 13 14  2  0
 14 15  1  0
 15 16  2  0
 15 17  1  0
 17 18  1  0
 14 19  1  0
 19 20  2  0
  3 21  1  0
 21 22  2  0
 22 23  1  0
 23 24  1  0
 24 25  2  0
 20  7  1  0
 25 21  1  0
 20 11  1  0
M  END
>  <energy_score>  (1365) 
-10.962306

>  <inchikey>  (1365) 
None

>  <smiles>  (1365) 
None

>  <ref_pdb>  (1365) 
A2290a

>  <alias>  (1365) 
None

>  <HIPPO Pose ID>  (1365) 
499009

>  <name>  (1365) 
P499009

>  <HIPPO Compound ID>  (1365) 
299311

>  <ref_mols>  (1365) 
A3403a,A2290a

>  <distance_score>  (1365) 
1.034411

>  <inspiration_score>  (1365) 
None

$$$$
P499010
     RDKit          3D

 25 27  0  0  0  0  0  0  0  0999 V2000
   13.3920   15.1922   21.5213 C   0  0  0  0  0  0  0  0  0  0  0  0
   12.3930   14.5777   22.4389 C   0  0  0  0  0  0  0  0  0  0  0  0
   11.3550   13.9377   21.5681 C   0  0  1  0  0  0  0  0  0  0  0  0
   10.6028   13.0418   22.3539 N   0  0  0  0  0  0  0  0  0  0  0  0
    9.9567   13.2254   23.7235 C   0  0  0  0  0  0  0  0  0  0  0  0
    9.8719   14.1687   24.3971 O   0  0  0  0  0  0  0  0  0  0  0  0
    9.4057   11.9329   24.0730 C   0  0  0  0  0  0  0  0  0  0  0  0
    9.8288   10.8476   23.4047 N   0  0  0  0  0  0  0  0  0  0  0  0
    9.0835    9.8552   23.8831 N   0  0  0  0  0  0  0  0  0  0  0  0
    9.2161    8.5781   23.2330 C   0  0  0  0  0  0  0  0  0  0  0  0
    8.1977   10.2645   24.8514 C   0  0  0  0  0  0  0  0  0  0  0  0
    7.2118    9.6025   25.5760 C   0  0  0  0  0  0  0  0  0  0  0  0
    6.4133   10.3423   26.4542 C   0  0  0  0  0  0  0  0  0  0  0  0
    6.5900   11.7193   26.6086 C   0  0  0  0  0  0  0  0  0  0  0  0
    5.6589   12.4488   27.5091 C   0  0  0  0  0  0  0  0  0  0  0  0
    4.6453   11.9502   27.9741 O   0  0  0  0  0  0  0  0  0  0  0  0
    6.1144   13.7026   27.7473 O   0  0  0  0  0  0  0  0  0  0  0  0
    5.2515   14.4925   28.5664 C   0  0  0  0  0  0  0  0  0  0  0  0
    7.5951   12.3775   25.8871 C   0  0  0  0  0  0  0  0  0  0  0  0
    8.3973   11.6325   25.0013 C   0  0  0  0  0  0  0  0  0  0  0  0
   10.5014   14.8731   20.7994 C   0  0  0  0  0  0  0  0  0  0  0  0
   10.5339   15.1536   19.4528 C   0  0  0  0  0  0  0  0  0  0  0  0
    9.7279   16.2254   19.2196 O   0  0  0  0  0  0  0  0  0  0  0  0
    9.2372   16.5315   20.4473 C   0  0  0  0  0  0  0  0  0  0  0  0
    9.6061   15.7112   21.4027 N   0  0  0  0  0  0  0  0  0  0  0  0
  1  2  1  0
  3  2  1  1
  3  4  1  0
  4  5  1  0
  5  6  2  0
  5  7  1  0
  7  8  2  0
  8  9  1  0
  9 10  1  0
  9 11  1  0
 11 12  2  0
 12 13  1  0
 13 14  2  0
 14 15  1  0
 15 16  2  0
 15 17  1  0
 17 18  1  0
 14 19  1  0
 19 20  2  0
  3 21  1  0
 21 22  2  0
 22 23  1  0
 23 24  1  0
 24 25  2  0
 20  7  1  0
 25 21  1  0
 20 11  1  0
M  END
>  <energy_score>  (1366) 
-25.889658

>  <inchikey>  (1366) 
None

>  <smiles>  (1366) 
None

>  <ref_pdb>  (1366) 
A2290a

>  <alias>  (1366) 
None

>  <HIPPO Pose ID>  (1366) 
499010

>  <name>  (1366) 
P499010

>  <HIPPO Compound ID>  (1366) 
299311

>  <ref_mols>  (1366) 
A3403a,A2290a

>  <distance_score>  (1366) 
0.881714

>  <inspiration_score>  (1366) 
None

$$$$
P499011
     RDKit          3D

 25 27  0  0  0  0  0  0  0  0999 V2000
    8.5279   18.0543   19.7591 C   0  0  0  0  0  0  0  0  0  0  0  0
    9.2761   16.7996   20.0229 C   0  0  0  0  0  0  0  0  0  0  0  0
    9.5599   16.2392   21.1732 N   0  0  0  0  0  0  0  0  0  0  0  0
   10.5391   15.3129   20.8942 C   0  0  0  0  0  0  0  0  0  0  0  0
   11.3651   14.7844   22.0088 C   0  0  2  0  0  0  0  0  0  0  0  0
   12.7821   14.3922   21.6982 C   0  0  0  0  0  0  0  0  0  0  0  0
   10.6994   13.6892   22.6214 N   0  0  0  0  0  0  0  0  0  0  0  0
   10.3549   13.4308   24.0852 C   0  0  0  0  0  0  0  0  0  0  0  0
   10.4902   14.1060   25.0232 O   0  0  0  0  0  0  0  0  0  0  0  0
    9.7683   12.1005   24.1591 C   0  0  0  0  0  0  0  0  0  0  0  0
   10.2011   11.1261   23.3458 N   0  0  0  0  0  0  0  0  0  0  0  0
    9.4577   10.0414   23.6871 N   0  0  0  0  0  0  0  0  0  0  0  0
    9.6225    8.7824   22.9424 C   0  0  0  0  0  0  0  0  0  0  0  0
   10.5011    7.9366   23.5238 F   0  0  0  0  0  0  0  0  0  0  0  0
    8.4501    8.1283   22.8227 F   0  0  0  0  0  0  0  0  0  0  0  0
   10.0886    9.0021   21.6894 F   0  0  0  0  0  0  0  0  0  0  0  0
    8.5379   10.3335   24.6799 C   0  0  0  0  0  0  0  0  0  0  0  0
    7.5589    9.5741   25.3229 C   0  0  0  0  0  0  0  0  0  0  0  0
    6.7306   10.2030   26.2588 C   0  0  0  0  0  0  0  0  0  0  0  0
    6.8795   11.5530   26.5552 C   0  0  0  0  0  0  0  0  0  0  0  0
    7.8719   12.3045   25.9267 C   0  0  0  0  0  0  0  0  0  0  0  0
    8.7110   11.6792   24.9855 C   0  0  0  0  0  0  0  0  0  0  0  0
   10.6620   15.2100   19.5269 C   0  0  0  0  0  0  0  0  0  0  0  0
   11.5863   14.5192   18.6216 C   0  0  0  0  0  0  0  0  0  0  0  0
    9.8412   16.1560   18.9599 O   0  0  0  0  0  0  0  0  0  0  0  0
  1  2  1  0
  2  3  2  0
  3  4  1  0
  4  5  1  0
  5  6  1  6
  5  7  1  0
  7  8  1  0
  8  9  2  0
  8 10  1  0
 10 11  2  0
 11 12  1  0
 12 13  1  0
 13 14  1  0
 13 15  1  0
 13 16  1  0
 12 17  1  0
 17 18  2  0
 18 19  1  0
 19 20  2  0
 20 21  1  0
 21 22  2  0
  4 23  2  0
 23 24  1  0
 23 25  1  0
 25  2  1  0
 22 10  1  0
 22 17  1  0
M  END
>  <energy_score>  (1367) 
-34.326971

>  <inchikey>  (1367) 
None

>  <smiles>  (1367) 
None

>  <ref_pdb>  (1367) 
A2290a

>  <alias>  (1367) 
None

>  <HIPPO Pose ID>  (1367) 
499011

>  <name>  (1367) 
P499011

>  <HIPPO Compound ID>  (1367) 
299312

>  <ref_mols>  (1367) 
A3403a,A2290a

>  <distance_score>  (1367) 
0.848428

>  <inspiration_score>  (1367) 
None

$$$$
P499012
     RDKit          3D

 25 27  0  0  0  0  0  0  0  0999 V2000
    8.5974   17.4593   20.6093 C   0  0  0  0  0  0  0  0  0  0  0  0
    9.5092   16.3122   20.4920 C   0  0  0  0  0  0  0  0  0  0  0  0
    9.9808   15.5586   21.4623 N   0  0  0  0  0  0  0  0  0  0  0  0
   10.9105   14.7715   20.8445 C   0  0  0  0  0  0  0  0  0  0  0  0
   11.8731   13.9272   21.5784 C   0  0  1  0  0  0  0  0  0  0  0  0
   12.8498   14.7609   22.3416 C   0  0  0  0  0  0  0  0  0  0  0  0
   11.1270   13.0520   22.4052 N   0  0  0  0  0  0  0  0  0  0  0  0
   10.5682   13.2508   23.8136 C   0  0  0  0  0  0  0  0  0  0  0  0
   10.6936   14.1370   24.5577 O   0  0  0  0  0  0  0  0  0  0  0  0
    9.7532   12.0781   24.0950 C   0  0  0  0  0  0  0  0  0  0  0  0
    9.9898   10.9475   23.4110 N   0  0  0  0  0  0  0  0  0  0  0  0
    9.1392   10.0543   23.9474 N   0  0  0  0  0  0  0  0  0  0  0  0
    9.2725    8.6364   23.6337 C   0  0  0  0  0  0  0  0  0  0  0  0
    8.6302    8.2780   22.5135 F   0  0  0  0  0  0  0  0  0  0  0  0
    8.7111    7.9321   24.6387 F   0  0  0  0  0  0  0  0  0  0  0  0
   10.5607    8.2433   23.4930 F   0  0  0  0  0  0  0  0  0  0  0  0
    8.2857   10.6109   24.8833 C   0  0  0  0  0  0  0  0  0  0  0  0
    7.2334   10.0841   25.6470 C   0  0  0  0  0  0  0  0  0  0  0  0
    6.5618   10.9434   26.5195 C   0  0  0  0  0  0  0  0  0  0  0  0
    6.9260   12.2816   26.6287 C   0  0  0  0  0  0  0  0  0  0  0  0
    7.9819   12.7957   25.8716 C   0  0  0  0  0  0  0  0  0  0  0  0
    8.6740   11.9422   24.9939 C   0  0  0  0  0  0  0  0  0  0  0  0
   10.8777   15.0075   19.5001 C   0  0  0  0  0  0  0  0  0  0  0  0
   11.7242   14.5221   18.4217 C   0  0  0  0  0  0  0  0  0  0  0  0
    9.9588   15.9811   19.2472 O   0  0  0  0  0  0  0  0  0  0  0  0
  1  2  1  0
  2  3  2  0
  3  4  1  0
  4  5  1  0
  5  6  1  1
  5  7  1  0
  7  8  1  0
  8  9  2  0
  8 10  1  0
 10 11  2  0
 11 12  1  0
 12 13  1  0
 13 14  1  0
 13 15  1  0
 13 16  1  0
 12 17  1  0
 17 18  2  0
 18 19  1  0
 19 20  2  0
 20 21  1  0
 21 22  2  0
  4 23  2  0
 23 24  1  0
 23 25  1  0
 25  2  1  0
 22 10  1  0
 22 17  1  0
M  END
>  <energy_score>  (1368) 
-11.871406

>  <inchikey>  (1368) 
None

>  <smiles>  (1368) 
None

>  <ref_pdb>  (1368) 
A2290a

>  <alias>  (1368) 
None

>  <HIPPO Pose ID>  (1368) 
499012

>  <name>  (1368) 
P499012

>  <HIPPO Compound ID>  (1368) 
299312

>  <ref_mols>  (1368) 
A3403a,A2290a

>  <distance_score>  (1368) 
0.801003

>  <inspiration_score>  (1368) 
None

$$$$
P499013
     RDKit          3D

 25 27  0  0  0  0  0  0  0  0999 V2000
   10.6928   14.1266   24.7945 O   0  0  0  0  0  0  0  0  0  0  0  0
   10.7275   13.3198   23.9559 C   0  0  0  0  0  0  0  0  0  0  0  0
   11.3572   13.3637   22.5616 N   0  0  0  0  0  0  0  0  0  0  0  0
   11.9914   14.4299   21.8673 C   0  0  0  0  0  0  0  0  0  0  0  0
   10.9654   15.0224   20.9797 C   0  0  0  0  0  0  0  0  0  0  0  0
    9.9424   15.7771   21.4798 N   0  0  0  0  0  0  0  0  0  0  0  0
    9.3867   16.3203   20.4264 C   0  0  0  0  0  0  0  0  0  0  0  0
    9.8421   15.8388   19.2434 O   0  0  0  0  0  0  0  0  0  0  0  0
   10.8591   14.9981   19.6116 C   0  0  0  0  0  0  0  0  0  0  0  0
   11.6549   14.3672   18.5677 C   0  0  0  0  0  0  0  0  0  0  0  0
   12.6696   13.6367   19.1095 F   0  0  0  0  0  0  0  0  0  0  0  0
   12.2646   15.2631   17.7697 F   0  0  0  0  0  0  0  0  0  0  0  0
   10.0201   12.0426   24.0778 C   0  0  0  0  0  0  0  0  0  0  0  0
   10.3817   11.0032   23.3132 N   0  0  0  0  0  0  0  0  0  0  0  0
    9.5430    9.9996   23.6663 N   0  0  0  0  0  0  0  0  0  0  0  0
    9.6006    8.7224   22.9423 C   0  0  0  0  0  0  0  0  0  0  0  0
   10.4352    7.8244   23.5131 F   0  0  0  0  0  0  0  0  0  0  0  0
   10.0369    8.8911   21.6722 F   0  0  0  0  0  0  0  0  0  0  0  0
    8.3821    8.1486   22.8794 F   0  0  0  0  0  0  0  0  0  0  0  0
    8.6409   10.3855   24.6407 C   0  0  0  0  0  0  0  0  0  0  0  0
    7.6097    9.7100   25.3030 C   0  0  0  0  0  0  0  0  0  0  0  0
    6.8183   10.4265   26.2060 C   0  0  0  0  0  0  0  0  0  0  0  0
    7.0490   11.7772   26.4439 C   0  0  0  0  0  0  0  0  0  0  0  0
    8.0930   12.4413   25.7955 C   0  0  0  0  0  0  0  0  0  0  0  0
    8.9076   11.7295   24.8938 C   0  0  0  0  0  0  0  0  0  0  0  0
  1  2  2  0
  2  3  1  0
  3  4  1  0
  4  5  1  0
  5  6  1  0
  6  7  2  0
  7  8  1  0
  8  9  1  0
  9 10  1  0
 10 11  1  0
 10 12  1  0
  2 13  1  0
 13 14  2  0
 14 15  1  0
 15 16  1  0
 16 17  1  0
 16 18  1  0
 16 19  1  0
 15 20  1  0
 20 21  2  0
 21 22  1  0
 22 23  2  0
 23 24  1  0
 24 25  2  0
  9  5  2  0
 25 13  1  0
 25 20  1  0
M  END
>  <energy_score>  (1369) 
-34.821309

>  <inchikey>  (1369) 
None

>  <smiles>  (1369) 
None

>  <ref_pdb>  (1369) 
A2290a

>  <alias>  (1369) 
None

>  <HIPPO Pose ID>  (1369) 
499013

>  <name>  (1369) 
P499013

>  <HIPPO Compound ID>  (1369) 
299315

>  <ref_mols>  (1369) 
A3403a,A2290a

>  <distance_score>  (1369) 
0.77688

>  <inspiration_score>  (1369) 
None

$$$$
P499014
     RDKit          3D

 25 27  0  0  0  0  0  0  0  0999 V2000
   11.5806   14.2405   18.4371 C   0  0  0  0  0  0  0  0  0  0  0  0
   10.8382   15.2387   19.2536 C   0  0  0  0  0  0  0  0  0  0  0  0
   10.1126   16.3913   18.5532 C   0  0  0  0  0  0  0  0  0  0  0  0
   10.0535   14.8250   20.3964 C   0  0  0  0  0  0  0  0  0  0  0  0
    8.7090   14.8592   20.2964 O   0  0  0  0  0  0  0  0  0  0  0  0
    8.2759   14.8354   21.5708 C   0  0  0  0  0  0  0  0  0  0  0  0
    9.2195   14.6552   22.4530 N   0  0  0  0  0  0  0  0  0  0  0  0
   10.3950   14.6611   21.7042 C   0  0  0  0  0  0  0  0  0  0  0  0
   11.7133   14.3126   22.3249 C   0  0  0  0  0  0  0  0  0  0  0  0
   11.1896   13.2264   23.0481 N   0  0  0  0  0  0  0  0  0  0  0  0
   10.6368   13.1549   24.4605 C   0  0  0  0  0  0  0  0  0  0  0  0
   10.5912   13.9629   25.2946 O   0  0  0  0  0  0  0  0  0  0  0  0
   10.0463   11.8319   24.5559 C   0  0  0  0  0  0  0  0  0  0  0  0
   10.4285   10.8550   23.7170 N   0  0  0  0  0  0  0  0  0  0  0  0
    9.5225    9.8671   23.9022 N   0  0  0  0  0  0  0  0  0  0  0  0
    9.5769    8.6809   23.0359 C   0  0  0  0  0  0  0  0  0  0  0  0
   10.3912    7.7079   23.5048 F   0  0  0  0  0  0  0  0  0  0  0  0
    8.3525    8.1376   22.8968 F   0  0  0  0  0  0  0  0  0  0  0  0
   10.0229    8.9918   21.7955 F   0  0  0  0  0  0  0  0  0  0  0  0
    8.5577   10.2136   24.8344 C   0  0  0  0  0  0  0  0  0  0  0  0
    7.4480    9.5486   25.3565 C   0  0  0  0  0  0  0  0  0  0  0  0
    6.5971   10.2336   26.2306 C   0  0  0  0  0  0  0  0  0  0  0  0
    6.8337   11.5611   26.5632 C   0  0  0  0  0  0  0  0  0  0  0  0
    7.9546   12.2179   26.0592 C   0  0  0  0  0  0  0  0  0  0  0  0
    8.8459   11.5165   25.2236 C   0  0  0  0  0  0  0  0  0  0  0  0
  1  2  1  0
  2  3  1  0
  2  4  1  0
  4  5  1  0
  5  6  1  0
  6  7  2  0
  7  8  1  0
  8  9  1  0
  9 10  1  0
 10 11  1  0
 11 12  2  0
 11 13  1  0
 13 14  2  0
 14 15  1  0
 15 16  1  0
 16 17  1  0
 16 18  1  0
 16 19  1  0
 15 20  1  0
 20 21  2  0
 21 22  1  0
 22 23  2  0
 23 24  1  0
 24 25  2  0
  8  4  2  0
 25 13  1  0
 25 20  1  0
M  END
>  <energy_score>  (1370) 
-1.391932

>  <inchikey>  (1370) 
None

>  <smiles>  (1370) 
None

>  <ref_pdb>  (1370) 
A2290a

>  <alias>  (1370) 
None

>  <HIPPO Pose ID>  (1370) 
499014

>  <name>  (1370) 
P499014

>  <HIPPO Compound ID>  (1370) 
299317

>  <ref_mols>  (1370) 
A3403a,A2290a

>  <distance_score>  (1370) 
1.416222

>  <inspiration_score>  (1370) 
None

$$$$
P499015
     RDKit          3D

 25 27  0  0  0  0  0  0  0  0999 V2000
    7.8822   18.9103   19.8712 C   0  0  0  0  0  0  0  0  0  0  0  0
    8.6795   17.7564   19.9535 N   0  0  0  0  0  0  0  0  0  0  0  0
    9.3989   16.9747   18.8688 C   0  0  0  0  0  0  0  0  0  0  0  0
    9.5173   17.1940   17.7389 O   0  0  0  0  0  0  0  0  0  0  0  0
   10.0392   15.8556   19.5477 C   0  0  0  0  0  0  0  0  0  0  0  0
   11.0472   15.0493   19.0816 C   0  0  0  0  0  0  0  0  0  0  0  0
   11.4292   14.2331   20.0920 O   0  0  0  0  0  0  0  0  0  0  0  0
   10.5507   14.5042   21.0839 C   0  0  0  0  0  0  0  0  0  0  0  0
   10.3859   13.5554   22.0080 N   0  0  0  0  0  0  0  0  0  0  0  0
    9.6059   13.5725   23.3175 C   0  0  0  0  0  0  0  0  0  0  0  0
    9.0411   14.4386   23.8474 O   0  0  0  0  0  0  0  0  0  0  0  0
    9.5540   12.2125   23.8495 C   0  0  0  0  0  0  0  0  0  0  0  0
   10.2173   11.2055   23.2614 N   0  0  0  0  0  0  0  0  0  0  0  0
    9.5551   10.0889   23.6800 N   0  0  0  0  0  0  0  0  0  0  0  0
    9.7495    8.8076   22.9819 C   0  0  0  0  0  0  0  0  0  0  0  0
   10.7366    8.0608   23.5251 F   0  0  0  0  0  0  0  0  0  0  0  0
    8.6190    8.0699   22.9996 F   0  0  0  0  0  0  0  0  0  0  0  0
   10.0857    8.9937   21.6850 F   0  0  0  0  0  0  0  0  0  0  0  0
    8.6236   10.3721   24.6646 C   0  0  0  0  0  0  0  0  0  0  0  0
    7.7067    9.5789   25.3597 C   0  0  0  0  0  0  0  0  0  0  0  0
    6.8301   10.1960   26.2584 C   0  0  0  0  0  0  0  0  0  0  0  0
    6.8545   11.5714   26.4495 C   0  0  0  0  0  0  0  0  0  0  0  0
    7.7479   12.3632   25.7282 C   0  0  0  0  0  0  0  0  0  0  0  0
    8.6482   11.7514   24.8330 C   0  0  0  0  0  0  0  0  0  0  0  0
    9.7789   15.5381   20.8784 N   0  0  0  0  0  0  0  0  0  0  0  0
  1  2  1  0
  2  3  1  0
  3  4  2  0
  3  5  1  0
  5  6  2  0
  6  7  1  0
  7  8  1  0
  8  9  1  0
  9 10  1  0
 10 11  2  0
 10 12  1  0
 12 13  2  0
 13 14  1  0
 14 15  1  0
 15 16  1  0
 15 17  1  0
 15 18  1  0
 14 19  1  0
 19 20  2  0
 20 21  1  0
 21 22  2  0
 22 23  1  0
 23 24  2  0
  8 25  2  0
 25  5  1  0
 24 12  1  0
 24 19  1  0
M  END
>  <energy_score>  (1371) 
-10.475395

>  <inchikey>  (1371) 
None

>  <smiles>  (1371) 
None

>  <ref_pdb>  (1371) 
A2290a

>  <alias>  (1371) 
None

>  <HIPPO Pose ID>  (1371) 
499015

>  <name>  (1371) 
P499015

>  <HIPPO Compound ID>  (1371) 
299319

>  <ref_mols>  (1371) 
A3403a,A2290a

>  <distance_score>  (1371) 
1.132163

>  <inspiration_score>  (1371) 
None

$$$$
P499016
     RDKit          3D

 25 27  0  0  0  0  0  0  0  0999 V2000
    7.8850   18.9093   19.8712 C   0  0  0  0  0  0  0  0  0  0  0  0
    8.6814   17.7547   19.9556 N   0  0  0  0  0  0  0  0  0  0  0  0
    9.4033   16.9725   18.8729 C   0  0  0  0  0  0  0  0  0  0  0  0
    9.5250   17.1917   17.7434 O   0  0  0  0  0  0  0  0  0  0  0  0
   10.0393   15.8512   19.5524 C   0  0  0  0  0  0  0  0  0  0  0  0
   11.0482   15.0439   19.0899 C   0  0  0  0  0  0  0  0  0  0  0  0
   11.4208   14.2219   20.1000 O   0  0  0  0  0  0  0  0  0  0  0  0
   10.5345   14.4902   21.0855 C   0  0  0  0  0  0  0  0  0  0  0  0
   10.3459   13.5373   22.0017 N   0  0  0  0  0  0  0  0  0  0  0  0
    9.5453   13.5541   23.2974 C   0  0  0  0  0  0  0  0  0  0  0  0
    8.9797   14.4222   23.8229 O   0  0  0  0  0  0  0  0  0  0  0  0
    9.4664   12.1944   23.8280 C   0  0  0  0  0  0  0  0  0  0  0  0
   10.0978   11.1668   23.2384 N   0  0  0  0  0  0  0  0  0  0  0  0
    9.4571   10.0797   23.7101 N   0  0  0  0  0  0  0  0  0  0  0  0
    9.7146    8.8011   23.0869 C   0  0  0  0  0  0  0  0  0  0  0  0
    8.5231   10.3759   24.6772 C   0  0  0  0  0  0  0  0  0  0  0  0
    7.6172    9.5846   25.3875 C   0  0  0  0  0  0  0  0  0  0  0  0
    6.7295   10.2099   26.2679 C   0  0  0  0  0  0  0  0  0  0  0  0
    6.7575   11.5967   26.4198 C   0  0  0  0  0  0  0  0  0  0  0  0
    5.8159   12.2343   27.3357 N   0  0  0  0  0  0  0  0  0  0  0  0
    6.1943   13.2621   27.9146 O   0  0  0  0  0  0  0  0  0  0  0  0
    4.7170   11.6852   27.5033 O   0  0  0  0  0  0  0  0  0  0  0  0
    7.6573   12.3939   25.7036 C   0  0  0  0  0  0  0  0  0  0  0  0
    8.5511   11.7581   24.8181 C   0  0  0  0  0  0  0  0  0  0  0  0
    9.7691   15.5288   20.8793 N   0  0  0  0  0  0  0  0  0  0  0  0
  1  2  1  0
  2  3  1  0
  3  4  2  0
  3  5  1  0
  5  6  2  0
  6  7  1  0
  7  8  1  0
  8  9  1  0
  9 10  1  0
 10 11  2  0
 10 12  1  0
 12 13  2  0
 13 14  1  0
 14 15  1  0
 14 16  1  0
 16 17  2  0
 17 18  1  0
 18 19  2  0
 19 20  1  0
 20 21  2  0
 20 22  1  0
 19 23  1  0
 23 24  2  0
  8 25  2  0
 25  5  1  0
 24 12  1  0
 24 16  1  0
M  CHG  2  20   1  22  -1
M  END
>  <energy_score>  (1372) 
-57.520635

>  <inchikey>  (1372) 
None

>  <smiles>  (1372) 
None

>  <ref_pdb>  (1372) 
A2290a

>  <alias>  (1372) 
None

>  <HIPPO Pose ID>  (1372) 
499016

>  <name>  (1372) 
P499016

>  <HIPPO Compound ID>  (1372) 
299320

>  <ref_mols>  (1372) 
A3403a,A2290a

>  <distance_score>  (1372) 
1.127477

>  <inspiration_score>  (1372) 
None

$$$$
P499017
     RDKit          3D

 25 27  0  0  0  0  0  0  0  0999 V2000
    7.5471   18.5384   19.2353 C   0  0  0  0  0  0  0  0  0  0  0  0
    8.8484   18.1301   19.7966 C   0  0  0  0  0  0  0  0  0  0  0  0
    9.2858   16.7228   20.0079 C   0  0  0  0  0  0  0  0  0  0  0  0
    9.5783   16.1375   21.1538 N   0  0  0  0  0  0  0  0  0  0  0  0
   10.5561   15.2216   20.8403 C   0  0  0  0  0  0  0  0  0  0  0  0
   11.4657   14.6368   21.8539 C   0  0  0  0  0  0  0  0  0  0  0  0
   10.8065   13.5583   22.4996 N   0  0  0  0  0  0  0  0  0  0  0  0
   10.3978   13.3759   23.9587 C   0  0  0  0  0  0  0  0  0  0  0  0
   10.4643   14.1102   24.8588 O   0  0  0  0  0  0  0  0  0  0  0  0
    9.7593   12.0683   24.0838 C   0  0  0  0  0  0  0  0  0  0  0  0
   10.1403   11.0372   23.3142 N   0  0  0  0  0  0  0  0  0  0  0  0
    9.3637   10.0185   23.7156 N   0  0  0  0  0  0  0  0  0  0  0  0
    9.5192    8.7403   23.0617 C   0  0  0  0  0  0  0  0  0  0  0  0
    8.4599   10.3735   24.6908 C   0  0  0  0  0  0  0  0  0  0  0  0
    7.4700    9.6569   25.3685 C   0  0  0  0  0  0  0  0  0  0  0  0
    6.6515   10.3436   26.2687 C   0  0  0  0  0  0  0  0  0  0  0  0
    6.8421   11.7101   26.4869 C   0  0  0  0  0  0  0  0  0  0  0  0
    5.9681   12.4081   27.4272 N   0  0  0  0  0  0  0  0  0  0  0  0
    4.8221   11.9615   27.5862 O   0  0  0  0  0  0  0  0  0  0  0  0
    6.4432   13.3783   28.0341 O   0  0  0  0  0  0  0  0  0  0  0  0
    7.8619   12.4221   25.8420 C   0  0  0  0  0  0  0  0  0  0  0  0
    8.6795   11.7261   24.9304 C   0  0  0  0  0  0  0  0  0  0  0  0
   10.6685   15.1527   19.4751 C   0  0  0  0  0  0  0  0  0  0  0  0
   11.6212   14.4783   18.5912 C   0  0  0  0  0  0  0  0  0  0  0  0
    9.8354   16.0896   18.9270 O   0  0  0  0  0  0  0  0  0  0  0  0
  1  2  1  0
  2  3  1  0
  3  4  2  0
  4  5  1  0
  5  6  1  0
  6  7  1  0
  7  8  1  0
  8  9  2  0
  8 10  1  0
 10 11  2  0
 11 12  1  0
 12 13  1  0
 12 14  1  0
 14 15  2  0
 15 16  1  0
 16 17  2  0
 17 18  1  0
 18 19  2  0
 18 20  1  0
 17 21  1  0
 21 22  2  0
  5 23  2  0
 23 24  1  0
 23 25  1  0
 25  3  1  0
 22 10  1  0
 22 14  1  0
M  CHG  2  18   1  20  -1
M  END
>  <energy_score>  (1373) 
-15.337392

>  <inchikey>  (1373) 
None

>  <smiles>  (1373) 
None

>  <ref_pdb>  (1373) 
A2290a

>  <alias>  (1373) 
None

>  <HIPPO Pose ID>  (1373) 
499017

>  <name>  (1373) 
P499017

>  <HIPPO Compound ID>  (1373) 
299321

>  <ref_mols>  (1373) 
A3403a,A2290a

>  <distance_score>  (1373) 
0.758253

>  <inspiration_score>  (1373) 
None

$$$$
P499018
     RDKit          3D

 25 28  0  0  0  0  0  0  0  0999 V2000
    9.4105    8.7301   23.1131 C   0  0  0  0  0  0  0  0  0  0  0  0
    9.3140    9.9994   23.7928 N   0  0  0  0  0  0  0  0  0  0  0  0
   10.1825   10.9628   23.4530 N   0  0  0  0  0  0  0  0  0  0  0  0
    9.8493   12.0045   24.2360 C   0  0  0  0  0  0  0  0  0  0  0  0
   10.6355   13.2403   24.1912 C   0  0  0  0  0  0  0  0  0  0  0  0
   10.5458   14.0669   25.0050 O   0  0  0  0  0  0  0  0  0  0  0  0
   11.4417   13.2096   22.8961 N   0  0  0  0  0  0  0  0  0  0  0  0
   12.2302   14.2123   22.2772 C   0  0  0  0  0  0  0  0  0  0  0  0
   11.4822   14.6768   21.1081 C   0  0  0  0  0  0  0  0  0  0  0  0
   11.7076   14.4363   19.7803 C   0  0  0  0  0  0  0  0  0  0  0  0
   10.7853   15.1159   19.0705 O   0  0  0  0  0  0  0  0  0  0  0  0
   10.0839   15.8170   20.0103 C   0  0  0  0  0  0  0  0  0  0  0  0
    9.2803   16.9349   19.6907 C   0  0  0  0  0  0  0  0  0  0  0  0
    8.6601   17.7887   20.5709 C   0  0  0  0  0  0  0  0  0  0  0  0
    7.9181   18.7799   19.9099 C   0  0  0  0  0  0  0  0  0  0  0  0
    7.9005   18.5563   18.5671 C   0  0  0  0  0  0  0  0  0  0  0  0
    9.0456   17.4115   18.0743 S   0  0  0  0  0  0  0  0  0  0  0  0
   10.3941   15.4947   21.2503 N   0  0  0  0  0  0  0  0  0  0  0  0
    8.7125   11.7227   25.0274 C   0  0  0  0  0  0  0  0  0  0  0  0
    7.9205   12.4436   25.9417 C   0  0  0  0  0  0  0  0  0  0  0  0
    6.8714   11.7840   26.5827 C   0  0  0  0  0  0  0  0  0  0  0  0
    5.8056   12.7224   27.8314 Br  0  0  0  0  0  0  0  0  0  0  0  0
    6.6099   10.4404   26.3350 C   0  0  0  0  0  0  0  0  0  0  0  0
    7.3822    9.7221   25.4180 C   0  0  0  0  0  0  0  0  0  0  0  0
    8.4181   10.3890   24.7595 C   0  0  0  0  0  0  0  0  0  0  0  0
  1  2  1  0
  2  3  1  0
  3  4  2  0
  4  5  1  0
  5  6  2  0
  5  7  1  0
  7  8  1  0
  8  9  1  0
  9 10  2  0
 10 11  1  0
 11 12  1  0
 12 13  1  0
 13 14  2  0
 14 15  1  0
 15 16  2  0
 16 17  1  0
 12 18  2  0
  4 19  1  0
 19 20  2  0
 20 21  1  0
 21 22  1  0
 21 23  2  0
 23 24  1  0
 24 25  2  0
 25  2  1  0
 18  9  1  0
 25 19  1  0
 17 13  1  0
M  END
>  <energy_score>  (1374) 
-9.470989

>  <inchikey>  (1374) 
None

>  <smiles>  (1374) 
None

>  <ref_pdb>  (1374) 
A2290a

>  <alias>  (1374) 
None

>  <HIPPO Pose ID>  (1374) 
499018

>  <name>  (1374) 
P499018

>  <HIPPO Compound ID>  (1374) 
299322

>  <ref_mols>  (1374) 
A3403a,A2290a

>  <distance_score>  (1374) 
0.953059

>  <inspiration_score>  (1374) 
None

$$$$
P499019
     RDKit          3D

 25 28  0  0  0  0  0  0  0  0999 V2000
    9.3824    8.7368   23.1344 C   0  0  0  0  0  0  0  0  0  0  0  0
    9.2913   10.0069   23.8129 N   0  0  0  0  0  0  0  0  0  0  0  0
   10.1654   10.9647   23.4715 N   0  0  0  0  0  0  0  0  0  0  0  0
    9.8368   12.0103   24.2519 C   0  0  0  0  0  0  0  0  0  0  0  0
   10.6320   13.2393   24.2014 C   0  0  0  0  0  0  0  0  0  0  0  0
   10.6045   14.0420   25.0432 O   0  0  0  0  0  0  0  0  0  0  0  0
   11.3973   13.2146   22.8823 N   0  0  0  0  0  0  0  0  0  0  0  0
   12.2125   14.1996   22.2716 C   0  0  0  0  0  0  0  0  0  0  0  0
   11.4772   14.6766   21.1002 C   0  0  0  0  0  0  0  0  0  0  0  0
   11.7048   14.4390   19.7724 C   0  0  0  0  0  0  0  0  0  0  0  0
   10.7856   15.1230   19.0625 O   0  0  0  0  0  0  0  0  0  0  0  0
   10.0837   15.8230   20.0025 C   0  0  0  0  0  0  0  0  0  0  0  0
    9.2788   16.9403   19.6852 C   0  0  0  0  0  0  0  0  0  0  0  0
    8.6603   17.7921   20.5686 C   0  0  0  0  0  0  0  0  0  0  0  0
    7.9159   18.7834   19.9113 C   0  0  0  0  0  0  0  0  0  0  0  0
    7.8940   18.5612   18.5683 C   0  0  0  0  0  0  0  0  0  0  0  0
    9.0389   17.4180   18.0705 S   0  0  0  0  0  0  0  0  0  0  0  0
   10.3932   15.5000   21.2422 N   0  0  0  0  0  0  0  0  0  0  0  0
    8.7019   11.7356   25.0471 C   0  0  0  0  0  0  0  0  0  0  0  0
    7.9190   12.4601   25.9642 C   0  0  0  0  0  0  0  0  0  0  0  0
    6.8738   11.8036   26.6067 C   0  0  0  0  0  0  0  0  0  0  0  0
    6.1367   12.4688   27.5065 F   0  0  0  0  0  0  0  0  0  0  0  0
    6.5979   10.4659   26.3624 C   0  0  0  0  0  0  0  0  0  0  0  0
    7.3585    9.7412   25.4415 C   0  0  0  0  0  0  0  0  0  0  0  0
    8.3981   10.4023   24.7800 C   0  0  0  0  0  0  0  0  0  0  0  0
  1  2  1  0
  2  3  1  0
  3  4  2  0
  4  5  1  0
  5  6  2  0
  5  7  1  0
  7  8  1  0
  8  9  1  0
  9 10  2  0
 10 11  1  0
 11 12  1  0
 12 13  1  0
 13 14  2  0
 14 15  1  0
 15 16  2  0
 16 17  1  0
 12 18  2  0
  4 19  1  0
 19 20  2  0
 20 21  1  0
 21 22  1  0
 21 23  2  0
 23 24  1  0
 24 25  2  0
 25  2  1  0
 18  9  1  0
 25 19  1  0
 17 13  1  0
M  END
>  <energy_score>  (1375) 
-30.05236

>  <inchikey>  (1375) 
None

>  <smiles>  (1375) 
None

>  <ref_pdb>  (1375) 
A2290a

>  <alias>  (1375) 
None

>  <HIPPO Pose ID>  (1375) 
499019

>  <name>  (1375) 
P499019

>  <HIPPO Compound ID>  (1375) 
299324

>  <ref_mols>  (1375) 
A3403a,A2290a

>  <distance_score>  (1375) 
0.956242

>  <inspiration_score>  (1375) 
None

$$$$
P499020
     RDKit          3D

 25 28  0  0  0  0  0  0  0  0999 V2000
    4.1162   12.6598   28.7382 C   0  0  0  0  0  0  0  0  0  0  0  0
    4.9286   11.9465   27.8059 O   0  0  0  0  0  0  0  0  0  0  0  0
    6.1379   12.5214   27.5855 C   0  0  0  0  0  0  0  0  0  0  0  0
    6.5685   13.5262   28.1284 O   0  0  0  0  0  0  0  0  0  0  0  0
    6.8995   11.7504   26.5739 C   0  0  0  0  0  0  0  0  0  0  0  0
    6.6792   10.3856   26.3740 C   0  0  0  0  0  0  0  0  0  0  0  0
    7.4320    9.6671   25.4400 C   0  0  0  0  0  0  0  0  0  0  0  0
    8.4003   10.3486   24.7014 C   0  0  0  0  0  0  0  0  0  0  0  0
    8.6351   11.7076   24.8845 C   0  0  0  0  0  0  0  0  0  0  0  0
    7.8846   12.4236   25.8366 C   0  0  0  0  0  0  0  0  0  0  0  0
    9.6329   12.0264   23.9367 C   0  0  0  0  0  0  0  0  0  0  0  0
   10.2242   13.3296   23.6547 C   0  0  0  0  0  0  0  0  0  0  0  0
   10.2239   14.1961   24.4331 O   0  0  0  0  0  0  0  0  0  0  0  0
   10.7596   13.2830   22.2182 N   0  0  0  0  0  0  0  0  0  0  0  0
   11.3104   14.2938   21.4177 C   0  0  0  0  0  0  0  0  0  0  0  0
   10.3205   15.2241   20.6650 C   0  0  0  0  0  0  0  0  0  0  0  0
   10.3036   15.4557   19.3155 C   0  0  0  0  0  0  0  0  0  0  0  0
    9.5298   16.5520   19.0859 O   0  0  0  0  0  0  0  0  0  0  0  0
    9.0807   16.8852   20.3265 C   0  0  0  0  0  0  0  0  0  0  0  0
    9.4664   16.0756   21.2834 N   0  0  0  0  0  0  0  0  0  0  0  0
   12.6299   14.8743   21.8319 C   0  0  0  0  0  0  0  0  0  0  0  0
   12.5718   13.9360   20.6828 C   0  0  0  0  0  0  0  0  0  0  0  0
    9.9933   10.9576   23.2089 N   0  0  0  0  0  0  0  0  0  0  0  0
    9.2582    9.9542   23.7024 N   0  0  0  0  0  0  0  0  0  0  0  0
    9.3903    8.6571   23.0861 C   0  0  0  0  0  0  0  0  0  0  0  0
  1  2  1  0
  2  3  1  0
  3  4  2  0
  3  5  1  0
  5  6  2  0
  6  7  1  0
  7  8  2  0
  8  9  1  0
  9 10  2  0
  9 11  1  0
 11 12  1  0
 12 13  2  0
 12 14  1  0
 14 15  1  0
 15 16  1  0
 16 17  2  0
 17 18  1  0
 18 19  1  0
 19 20  2  0
 15 21  1  0
 21 22  1  0
 11 23  2  0
 23 24  1  0
 24 25  1  0
 10  5  1  0
 22 15  1  0
 24  8  1  0
 20 16  1  0
M  END
>  <energy_score>  (1376) 
-18.306943

>  <inchikey>  (1376) 
None

>  <smiles>  (1376) 
None

>  <ref_pdb>  (1376) 
A2290a

>  <alias>  (1376) 
None

>  <HIPPO Pose ID>  (1376) 
499020

>  <name>  (1376) 
P499020

>  <HIPPO Compound ID>  (1376) 
299329

>  <ref_mols>  (1376) 
A3403a,A2290a

>  <distance_score>  (1376) 
0.795127

>  <inspiration_score>  (1376) 
None

$$$$
P499021
     RDKit          3D

 25 27  0  0  0  0  0  0  0  0999 V2000
    8.5824   18.7733   20.6757 C   0  0  0  0  0  0  0  0  0  0  0  0
    8.3983   17.3817   20.2279 C   0  0  0  0  0  0  0  0  0  0  0  0
    9.5353   16.4343   20.2575 C   0  0  0  0  0  0  0  0  0  0  0  0
   10.1323   15.8745   21.2886 N   0  0  0  0  0  0  0  0  0  0  0  0
   11.0262   14.9877   20.7370 C   0  0  0  0  0  0  0  0  0  0  0  0
   12.0251   14.2771   21.5646 C   0  0  0  0  0  0  0  0  0  0  0  0
   11.3481   13.2568   22.2971 N   0  0  0  0  0  0  0  0  0  0  0  0
   10.7625   13.2690   23.7134 C   0  0  0  0  0  0  0  0  0  0  0  0
   10.8048   14.0874   24.5413 O   0  0  0  0  0  0  0  0  0  0  0  0
    9.9917   12.0296   23.9012 C   0  0  0  0  0  0  0  0  0  0  0  0
   10.2610   10.9437   23.1590 N   0  0  0  0  0  0  0  0  0  0  0  0
    9.4298   10.0000   23.6223 N   0  0  0  0  0  0  0  0  0  0  0  0
    9.4944    8.6859   23.0304 C   0  0  0  0  0  0  0  0  0  0  0  0
    8.5816   10.4481   24.6050 C   0  0  0  0  0  0  0  0  0  0  0  0
    7.5644    9.8214   25.3334 C   0  0  0  0  0  0  0  0  0  0  0  0
    6.8407   10.5910   26.2490 C   0  0  0  0  0  0  0  0  0  0  0  0
    7.1392   11.9433   26.4420 C   0  0  0  0  0  0  0  0  0  0  0  0
    6.4102   12.7648   27.4382 C   0  0  0  0  0  0  0  0  0  0  0  0
    6.8925   13.7463   27.9807 O   0  0  0  0  0  0  0  0  0  0  0  0
    5.1675   12.2622   27.6482 O   0  0  0  0  0  0  0  0  0  0  0  0
    4.3825   13.0356   28.5557 C   0  0  0  0  0  0  0  0  0  0  0  0
    8.1821   12.5515   25.7249 C   0  0  0  0  0  0  0  0  0  0  0  0
    8.9122   11.7881   24.7935 C   0  0  0  0  0  0  0  0  0  0  0  0
   10.8525   14.9740   19.3748 C   0  0  0  0  0  0  0  0  0  0  0  0
    9.8988   15.8933   19.0581 O   0  0  0  0  0  0  0  0  0  0  0  0
  1  2  1  0
  2  3  1  0
  3  4  2  0
  4  5  1  0
  5  6  1  0
  6  7  1  0
  7  8  1  0
  8  9  2  0
  8 10  1  0
 10 11  2  0
 11 12  1  0
 12 13  1  0
 12 14  1  0
 14 15  2  0
 15 16  1  0
 16 17  2  0
 17 18  1  0
 18 19  2  0
 18 20  1  0
 20 21  1  0
 17 22  1  0
 22 23  2  0
  5 24  2  0
 24 25  1  0
 25  3  1  0
 23 10  1  0
 23 14  1  0
M  END
>  <energy_score>  (1377) 
-15.132575

>  <inchikey>  (1377) 
None

>  <smiles>  (1377) 
None

>  <ref_pdb>  (1377) 
A2290a

>  <alias>  (1377) 
None

>  <HIPPO Pose ID>  (1377) 
499021

>  <name>  (1377) 
P499021

>  <HIPPO Compound ID>  (1377) 
299330

>  <ref_mols>  (1377) 
A3403a,A2290a

>  <distance_score>  (1377) 
0.671656

>  <inspiration_score>  (1377) 
None

$$$$
P499022
     RDKit          3D

 26 29  0  0  0  0  0  0  0  0999 V2000
    9.3674    8.7072   23.1390 C   0  0  0  0  0  0  0  0  0  0  0  0
    9.2751    9.9721   23.8264 N   0  0  0  0  0  0  0  0  0  0  0  0
   10.1491   10.9287   23.4907 N   0  0  0  0  0  0  0  0  0  0  0  0
    9.8182   11.9739   24.2708 C   0  0  0  0  0  0  0  0  0  0  0  0
   10.6241   13.1945   24.2282 C   0  0  0  0  0  0  0  0  0  0  0  0
   10.5767   14.0163   25.0500 O   0  0  0  0  0  0  0  0  0  0  0  0
   11.4357   13.1302   22.9396 N   0  0  0  0  0  0  0  0  0  0  0  0
   12.2838   14.0893   22.3379 C   0  0  0  0  0  0  0  0  0  0  0  0
   11.5642   14.5920   21.1710 C   0  0  0  0  0  0  0  0  0  0  0  0
   11.8101   14.4006   19.8376 C   0  0  0  0  0  0  0  0  0  0  0  0
   10.8791   15.0842   19.1387 O   0  0  0  0  0  0  0  0  0  0  0  0
   10.1582   15.7206   20.1030 C   0  0  0  0  0  0  0  0  0  0  0  0
    9.3628   16.8278   19.6702 C   0  0  0  0  0  0  0  0  0  0  0  0
    8.8011   17.6663   20.6168 C   0  0  0  0  0  0  0  0  0  0  0  0
    8.0499   18.7449   20.2407 C   0  0  0  0  0  0  0  0  0  0  0  0
    7.6934   18.8765   18.9321 C   0  0  0  0  0  0  0  0  0  0  0  0
    8.2790   18.0851   17.9673 C   0  0  0  0  0  0  0  0  0  0  0  0
    9.1779   17.1169   18.3325 C   0  0  0  0  0  0  0  0  0  0  0  0
   10.4595   15.3783   21.3340 N   0  0  0  0  0  0  0  0  0  0  0  0
    8.6762   11.7025   25.0546 C   0  0  0  0  0  0  0  0  0  0  0  0
    7.8862   12.4305   25.9642 C   0  0  0  0  0  0  0  0  0  0  0  0
    6.8342   11.7768   26.6060 C   0  0  0  0  0  0  0  0  0  0  0  0
    5.7692   12.7230   27.8492 Br  0  0  0  0  0  0  0  0  0  0  0  0
    6.5696   10.4327   26.3639 C   0  0  0  0  0  0  0  0  0  0  0  0
    7.3385    9.7089   25.4482 C   0  0  0  0  0  0  0  0  0  0  0  0
    8.3768   10.3690   24.7880 C   0  0  0  0  0  0  0  0  0  0  0  0
  1  2  1  0
  2  3  1  0
  3  4  2  0
  4  5  1  0
  5  6  2  0
  5  7  1  0
  7  8  1  0
  8  9  1  0
  9 10  2  0
 10 11  1  0
 11 12  1  0
 12 13  1  0
 13 14  2  0
 14 15  1  0
 15 16  2  0
 16 17  1  0
 17 18  2  0
 12 19  2  0
  4 20  1  0
 20 21  2  0
 21 22  1  0
 22 23  1  0
 22 24  2  0
 24 25  1  0
 25 26  2  0
 26  2  1  0
 19  9  1  0
 26 20  1  0
 18 13  1  0
M  END
>  <energy_score>  (1378) 
-0.1335

>  <inchikey>  (1378) 
None

>  <smiles>  (1378) 
None

>  <ref_pdb>  (1378) 
A2290a

>  <alias>  (1378) 
None

>  <HIPPO Pose ID>  (1378) 
499022

>  <name>  (1378) 
P499022

>  <HIPPO Compound ID>  (1378) 
299334

>  <ref_mols>  (1378) 
A3403a,A2290a

>  <distance_score>  (1378) 
1.008551

>  <inspiration_score>  (1378) 
None

$$$$
P499023
     RDKit          3D

 26 29  0  0  0  0  0  0  0  0999 V2000
    8.5622   18.0096   19.9351 C   0  0  0  0  0  0  0  0  0  0  0  0
    9.3557   16.7640   20.0781 C   0  0  0  0  0  0  0  0  0  0  0  0
    9.8039   16.1872   21.1697 N   0  0  0  0  0  0  0  0  0  0  0  0
   10.6795   15.2178   20.7337 C   0  0  0  0  0  0  0  0  0  0  0  0
   11.5446   14.4914   21.6980 C   0  0  0  0  0  0  0  0  0  0  0  0
   10.6497   13.8980   22.6403 N   0  0  0  0  0  0  0  0  0  0  0  0
   10.6228   13.9703   24.1713 C   0  0  0  0  0  0  0  0  0  0  0  0
   11.3704   14.4619   24.9182 O   0  0  0  0  0  0  0  0  0  0  0  0
    9.3946   13.2914   24.5920 C   0  0  0  0  0  0  0  0  0  0  0  0
    8.8563   12.4084   23.7350 N   0  0  0  0  0  0  0  0  0  0  0  0
    8.0481   11.7016   24.5150 N   0  0  0  0  0  0  0  0  0  0  0  0
    7.9455   10.3147   24.2458 C   0  0  0  0  0  0  0  0  0  0  0  0
    9.2509    9.6768   24.3547 C   0  0  2  0  0  0  0  0  0  0  0  0
   10.2038   10.0598   23.2559 C   0  0  0  0  0  0  0  0  0  0  0  0
   10.8024    8.8219   23.0052 N   0  0  0  0  0  0  0  0  0  0  0  0
   10.0189    7.8307   23.4536 C   0  0  0  0  0  0  0  0  0  0  0  0
   10.2094    6.6544   23.2822 O   0  0  0  0  0  0  0  0  0  0  0  0
    8.9900    8.3096   24.1843 O   0  0  0  0  0  0  0  0  0  0  0  0
    7.7486   12.2664   25.7027 C   0  0  0  0  0  0  0  0  0  0  0  0
    6.8620   11.8703   26.7047 C   0  0  0  0  0  0  0  0  0  0  0  0
    6.8259   12.6676   27.8375 C   0  0  0  0  0  0  0  0  0  0  0  0
    7.6577   13.7830   27.9491 C   0  0  0  0  0  0  0  0  0  0  0  0
    8.5720   14.1316   26.9412 C   0  0  0  0  0  0  0  0  0  0  0  0
    8.6207   13.3471   25.7843 C   0  0  0  0  0  0  0  0  0  0  0  0
   10.6086   15.1550   19.3647 C   0  0  0  0  0  0  0  0  0  0  0  0
    9.7650   16.1414   18.9340 O   0  0  0  0  0  0  0  0  0  0  0  0
  1  2  1  0
  2  3  2  0
  3  4  1  0
  4  5  1  0
  5  6  1  0
  6  7  1  0
  7  8  2  0
  7  9  1  0
  9 10  2  0
 10 11  1  0
 11 12  1  0
 13 12  1  6
 13 14  1  0
 14 15  1  0
 15 16  1  0
 16 17  2  0
 16 18  1  0
 11 19  1  0
 19 20  2  0
 20 21  1  0
 21 22  2  0
 22 23  1  0
 23 24  2  0
  4 25  2  0
 25 26  1  0
 26  2  1  0
 24  9  1  0
 18 13  1  0
 24 19  1  0
M  END
>  <energy_score>  (1379) 
-23.392789

>  <inchikey>  (1379) 
None

>  <smiles>  (1379) 
None

>  <ref_pdb>  (1379) 
A2290a

>  <alias>  (1379) 
None

>  <HIPPO Pose ID>  (1379) 
499023

>  <name>  (1379) 
P499023

>  <HIPPO Compound ID>  (1379) 
299336

>  <ref_mols>  (1379) 
A3403a,A2290a

>  <distance_score>  (1379) 
1.826773

>  <inspiration_score>  (1379) 
None

$$$$
P499024
     RDKit          3D

 26 29  0  0  0  0  0  0  0  0999 V2000
    8.7054   17.3844   20.5269 C   0  0  0  0  0  0  0  0  0  0  0  0
    9.6183   16.2282   20.5343 C   0  0  0  0  0  0  0  0  0  0  0  0
   10.1178   15.6128   21.5797 N   0  0  0  0  0  0  0  0  0  0  0  0
   11.0647   14.7649   21.0737 C   0  0  0  0  0  0  0  0  0  0  0  0
   11.9631   14.0402   22.0098 C   0  0  0  0  0  0  0  0  0  0  0  0
   11.1295   13.4575   23.0298 N   0  0  0  0  0  0  0  0  0  0  0  0
   10.9226   13.8586   24.5068 C   0  0  0  0  0  0  0  0  0  0  0  0
   11.4523   14.6759   25.1505 O   0  0  0  0  0  0  0  0  0  0  0  0
    9.8514   13.0122   25.0331 C   0  0  0  0  0  0  0  0  0  0  0  0
    9.9261   11.7189   24.7272 N   0  0  0  0  0  0  0  0  0  0  0  0
    8.8165   11.1816   25.2289 N   0  0  0  0  0  0  0  0  0  0  0  0
    8.4466    9.8740   24.7908 C   0  0  0  0  0  0  0  0  0  0  0  0
    8.8839    9.7637   23.3876 C   0  0  1  0  0  0  0  0  0  0  0  0
   10.3249    9.5236   23.1190 C   0  0  0  0  0  0  0  0  0  0  0  0
   10.3780    8.1441   22.9220 N   0  0  0  0  0  0  0  0  0  0  0  0
    9.1458    7.7487   22.5253 C   0  0  0  0  0  0  0  0  0  0  0  0
    8.8200    6.7400   21.9549 O   0  0  0  0  0  0  0  0  0  0  0  0
    8.2282    8.6317   22.9176 O   0  0  0  0  0  0  0  0  0  0  0  0
    8.0229   12.0401   25.9008 C   0  0  0  0  0  0  0  0  0  0  0  0
    6.8027   11.8350   26.5470 C   0  0  0  0  0  0  0  0  0  0  0  0
    6.2067   12.9551   27.1035 C   0  0  0  0  0  0  0  0  0  0  0  0
    6.8161   14.2058   27.0085 C   0  0  0  0  0  0  0  0  0  0  0  0
    8.0460   14.3827   26.3562 C   0  0  0  0  0  0  0  0  0  0  0  0
    8.6706   13.2707   25.7848 C   0  0  0  0  0  0  0  0  0  0  0  0
   10.9824   14.7907   19.7001 C   0  0  0  0  0  0  0  0  0  0  0  0
   10.0458   15.7234   19.3431 O   0  0  0  0  0  0  0  0  0  0  0  0
  1  2  1  0
  2  3  2  0
  3  4  1  0
  4  5  1  0
  5  6  1  0
  6  7  1  0
  7  8  2  0
  7  9  1  0
  9 10  2  0
 10 11  1  0
 11 12  1  0
 13 12  1  1
 13 14  1  0
 14 15  1  0
 15 16  1  0
 16 17  2  0
 16 18  1  0
 11 19  1  0
 19 20  2  0
 20 21  1  0
 21 22  2  0
 22 23  1  0
 23 24  2  0
  4 25  2  0
 25 26  1  0
 26  2  1  0
 24  9  1  0
 18 13  1  0
 24 19  1  0
M  END
>  <energy_score>  (1380) 
-24.679718

>  <inchikey>  (1380) 
None

>  <smiles>  (1380) 
None

>  <ref_pdb>  (1380) 
A2290a

>  <alias>  (1380) 
None

>  <HIPPO Pose ID>  (1380) 
499024

>  <name>  (1380) 
P499024

>  <HIPPO Compound ID>  (1380) 
299336

>  <ref_mols>  (1380) 
A3403a,A2290a

>  <distance_score>  (1380) 
1.746893

>  <inspiration_score>  (1380) 
None

$$$$
P499025
     RDKit          3D

 26 28  0  0  0  0  0  0  0  0999 V2000
    7.9668   19.0572   19.5310 C   0  0  0  0  0  0  0  0  0  0  0  0
    8.3036   17.6749   19.3980 N   0  0  0  0  0  0  0  0  0  0  0  0
    8.9430   17.3992   18.1307 C   0  0  0  0  0  0  0  0  0  0  0  0
    8.8728   17.1514   20.6335 C   0  0  0  0  0  0  0  0  0  0  0  0
    9.8069   15.9968   20.5856 C   0  0  0  0  0  0  0  0  0  0  0  0
   10.4477   15.4717   21.6055 N   0  0  0  0  0  0  0  0  0  0  0  0
   11.3716   14.6477   21.0267 C   0  0  0  0  0  0  0  0  0  0  0  0
   12.3083   13.8889   21.8608 C   0  0  0  0  0  0  0  0  0  0  0  0
   11.5060   12.9697   22.5877 N   0  0  0  0  0  0  0  0  0  0  0  0
   10.8101   13.1120   23.9420 C   0  0  0  0  0  0  0  0  0  0  0  0
   10.8424   13.9771   24.7207 O   0  0  0  0  0  0  0  0  0  0  0  0
    9.9643   11.9246   24.1003 C   0  0  0  0  0  0  0  0  0  0  0  0
   10.2348   10.8275   23.3739 N   0  0  0  0  0  0  0  0  0  0  0  0
    9.3321    9.9265   23.7679 N   0  0  0  0  0  0  0  0  0  0  0  0
    9.3542    8.6384   23.1221 C   0  0  0  0  0  0  0  0  0  0  0  0
    8.4617   10.4028   24.7188 C   0  0  0  0  0  0  0  0  0  0  0  0
    7.3967    9.8099   25.4059 C   0  0  0  0  0  0  0  0  0  0  0  0
    6.6462   10.6076   26.2725 C   0  0  0  0  0  0  0  0  0  0  0  0
    6.9694   11.9568   26.4450 C   0  0  0  0  0  0  0  0  0  0  0  0
    6.1690   12.7691   27.3629 N   0  0  0  0  0  0  0  0  0  0  0  0
    5.0217   12.3792   27.6275 O   0  0  0  0  0  0  0  0  0  0  0  0
    6.7064   13.7708   27.8568 O   0  0  0  0  0  0  0  0  0  0  0  0
    8.0623   12.5413   25.7869 C   0  0  0  0  0  0  0  0  0  0  0  0
    8.8221   11.7361   24.9164 C   0  0  0  0  0  0  0  0  0  0  0  0
   11.1983   14.6411   19.6676 C   0  0  0  0  0  0  0  0  0  0  0  0
   10.1746   15.4736   19.3838 O   0  0  0  0  0  0  0  0  0  0  0  0
  1  2  1  0
  2  3  1  0
  2  4  1  0
  4  5  1  0
  5  6  2  0
  6  7  1  0
  7  8  1  0
  8  9  1  0
  9 10  1  0
 10 11  2  0
 10 12  1  0
 12 13  2  0
 13 14  1  0
 14 15  1  0
 14 16  1  0
 16 17  2  0
 17 18  1  0
 18 19  2  0
 19 20  1  0
 20 21  2  0
 20 22  1  0
 19 23  1  0
 23 24  2  0
  7 25  2  0
 25 26  1  0
 26  5  1  0
 24 12  1  0
 24 16  1  0
M  CHG  2  20   1  22  -1
M  END
>  <energy_score>  (1381) 
-16.350143

>  <inchikey>  (1381) 
None

>  <smiles>  (1381) 
None

>  <ref_pdb>  (1381) 
A2290a

>  <alias>  (1381) 
None

>  <HIPPO Pose ID>  (1381) 
499025

>  <name>  (1381) 
P499025

>  <HIPPO Compound ID>  (1381) 
299337

>  <ref_mols>  (1381) 
A3403a,A2290a

>  <distance_score>  (1381) 
0.914272

>  <inspiration_score>  (1381) 
None

$$$$
P499026
     RDKit          3D

 26 28  0  0  0  0  0  0  0  0999 V2000
   11.7831   14.4065   18.5236 C   0  0  0  0  0  0  0  0  0  0  0  0
   11.1096   14.9064   19.7063 C   0  0  0  0  0  0  0  0  0  0  0  0
   10.0519   15.7431   19.5198 O   0  0  0  0  0  0  0  0  0  0  0  0
    9.7660   16.1566   20.7837 C   0  0  0  0  0  0  0  0  0  0  0  0
    8.5370   16.9446   21.0253 C   0  0  0  0  0  0  0  0  0  0  0  0
    8.1941   17.8627   19.8401 C   0  0  0  0  0  0  0  0  0  0  0  0
    7.5803   15.8730   21.6545 C   0  0  0  0  0  0  0  0  0  0  0  0
   10.4859   15.5823   21.7200 N   0  0  0  0  0  0  0  0  0  0  0  0
   11.3578   14.7962   21.0496 C   0  0  0  0  0  0  0  0  0  0  0  0
   12.3307   13.9831   21.7910 C   0  0  0  0  0  0  0  0  0  0  0  0
   11.5581   13.0278   22.5128 N   0  0  0  0  0  0  0  0  0  0  0  0
   10.8572   13.1355   23.8707 C   0  0  0  0  0  0  0  0  0  0  0  0
   10.8604   13.9954   24.6567 O   0  0  0  0  0  0  0  0  0  0  0  0
   10.0214   11.9376   24.0244 C   0  0  0  0  0  0  0  0  0  0  0  0
   10.2904   10.8434   23.2955 N   0  0  0  0  0  0  0  0  0  0  0  0
    9.4018    9.9320   23.7013 N   0  0  0  0  0  0  0  0  0  0  0  0
    9.4322    8.6366   23.0675 C   0  0  0  0  0  0  0  0  0  0  0  0
    8.5325   10.4033   24.6562 C   0  0  0  0  0  0  0  0  0  0  0  0
    7.4801    9.7995   25.3538 C   0  0  0  0  0  0  0  0  0  0  0  0
    6.7257   10.5920   26.2214 C   0  0  0  0  0  0  0  0  0  0  0  0
    7.0345   11.9461   26.3846 C   0  0  0  0  0  0  0  0  0  0  0  0
    6.2258   12.7536   27.2986 N   0  0  0  0  0  0  0  0  0  0  0  0
    5.0734   12.3649   27.5420 O   0  0  0  0  0  0  0  0  0  0  0  0
    6.7604   13.7490   27.8069 O   0  0  0  0  0  0  0  0  0  0  0  0
    8.1180   12.5403   25.7193 C   0  0  0  0  0  0  0  0  0  0  0  0
    8.8819   11.7405   24.8467 C   0  0  0  0  0  0  0  0  0  0  0  0
  1  2  1  0
  2  3  1  0
  3  4  1  0
  4  5  1  0
  5  6  1  0
  5  7  1  0
  4  8  2  0
  8  9  1  0
  9 10  1  0
 10 11  1  0
 11 12  1  0
 12 13  2  0
 12 14  1  0
 14 15  2  0
 15 16  1  0
 16 17  1  0
 16 18  1  0
 18 19  2  0
 19 20  1  0
 20 21  2  0
 21 22  1  0
 22 23  2  0
 22 24  1  0
 21 25  1  0
 25 26  2  0
  9  2  2  0
 26 14  1  0
 26 18  1  0
M  CHG  2  22   1  24  -1
M  END
>  <energy_score>  (1382) 
-15.88796

>  <inchikey>  (1382) 
None

>  <smiles>  (1382) 
None

>  <ref_pdb>  (1382) 
A2290a

>  <alias>  (1382) 
None

>  <HIPPO Pose ID>  (1382) 
499026

>  <name>  (1382) 
P499026

>  <HIPPO Compound ID>  (1382) 
299338

>  <ref_mols>  (1382) 
A3403a,A2290a

>  <distance_score>  (1382) 
0.88814

>  <inspiration_score>  (1382) 
None

$$$$
P499027
     RDKit          3D

 26 28  0  0  0  0  0  0  0  0999 V2000
    9.4959    8.7002   23.0624 C   0  0  0  0  0  0  0  0  0  0  0  0
    9.3855    9.9821   23.7176 N   0  0  0  0  0  0  0  0  0  0  0  0
   10.2135   10.9624   23.3306 N   0  0  0  0  0  0  0  0  0  0  0  0
    9.8669   12.0150   24.0878 C   0  0  0  0  0  0  0  0  0  0  0  0
   10.5934   13.2802   23.9734 C   0  0  0  0  0  0  0  0  0  0  0  0
   10.5981   14.0666   24.8312 O   0  0  0  0  0  0  0  0  0  0  0  0
   11.2106   13.3330   22.5771 N   0  0  0  0  0  0  0  0  0  0  0  0
   11.8796   14.3883   21.9031 C   0  0  0  0  0  0  0  0  0  0  0  0
   10.8933   15.0100   20.9905 C   0  0  0  0  0  0  0  0  0  0  0  0
    9.8648   15.7736   21.4660 N   0  0  0  0  0  0  0  0  0  0  0  0
    9.3632   16.3514   20.4035 C   0  0  0  0  0  0  0  0  0  0  0  0
    9.8618   15.8925   19.2290 O   0  0  0  0  0  0  0  0  0  0  0  0
   10.8473   15.0224   19.6187 C   0  0  0  0  0  0  0  0  0  0  0  0
   11.7076   14.4170   18.6119 C   0  0  0  0  0  0  0  0  0  0  0  0
   12.7744   13.8050   19.1973 F   0  0  0  0  0  0  0  0  0  0  0  0
   12.2344   15.2980   17.7467 F   0  0  0  0  0  0  0  0  0  0  0  0
   11.0888   13.4604   17.9040 F   0  0  0  0  0  0  0  0  0  0  0  0
    8.7518   11.7247   24.9102 C   0  0  0  0  0  0  0  0  0  0  0  0
    7.9451   12.4561   25.8040 C   0  0  0  0  0  0  0  0  0  0  0  0
    6.8960   11.7839   26.4462 C   0  0  0  0  0  0  0  0  0  0  0  0
    6.0348   12.5187   27.3715 N   0  0  0  0  0  0  0  0  0  0  0  0
    4.8862   12.0865   27.5521 O   0  0  0  0  0  0  0  0  0  0  0  0
    6.5225   13.5010   27.9476 O   0  0  0  0  0  0  0  0  0  0  0  0
    6.6655   10.4207   26.2429 C   0  0  0  0  0  0  0  0  0  0  0  0
    7.4682    9.6983   25.3573 C   0  0  0  0  0  0  0  0  0  0  0  0
    8.4859   10.3771   24.6807 C   0  0  0  0  0  0  0  0  0  0  0  0
  1  2  1  0
  2  3  1  0
  3  4  2  0
  4  5  1  0
  5  6  2  0
  5  7  1  0
  7  8  1  0
  8  9  1  0
  9 10  1  0
 10 11  2  0
 11 12  1  0
 12 13  1  0
 13 14  1  0
 14 15  1  0
 14 16  1  0
 14 17  1  0
  4 18  1  0
 18 19  2  0
 19 20  1  0
 20 21  1  0
 21 22  2  0
 21 23  1  0
 20 24  2  0
 24 25  1  0
 25 26  2  0
 26  2  1  0
 13  9  2  0
 26 18  1  0
M  CHG  2  21   1  23  -1
M  END
>  <energy_score>  (1383) 
-30.694998

>  <inchikey>  (1383) 
None

>  <smiles>  (1383) 
None

>  <ref_pdb>  (1383) 
A2290a

>  <alias>  (1383) 
None

>  <HIPPO Pose ID>  (1383) 
499027

>  <name>  (1383) 
P499027

>  <HIPPO Compound ID>  (1383) 
299340

>  <ref_mols>  (1383) 
A3403a,A2290a

>  <distance_score>  (1383) 
0.755259

>  <inspiration_score>  (1383) 
None

$$$$
P499028
     RDKit          3D

 26 29  0  0  0  0  0  0  0  0999 V2000
   11.7132   14.3976   18.5925 C   0  0  0  0  0  0  0  0  0  0  0  0
   10.8286   14.9652   19.6004 C   0  0  0  0  0  0  0  0  0  0  0  0
    9.8582   15.8088   19.1611 O   0  0  0  0  0  0  0  0  0  0  0  0
    9.3861   16.3947   20.3028 C   0  0  0  0  0  0  0  0  0  0  0  0
    8.8246   17.8467   20.3075 C   0  0  0  0  0  0  0  0  0  0  0  0
    7.6331   18.5326   19.7567 C   0  0  0  0  0  0  0  0  0  0  0  0
    8.7851   18.4054   18.8700 C   0  0  0  0  0  0  0  0  0  0  0  0
    9.8238   15.8069   21.3974 N   0  0  0  0  0  0  0  0  0  0  0  0
   10.8382   14.9894   20.9693 C   0  0  0  0  0  0  0  0  0  0  0  0
   11.8287   14.4056   21.9000 C   0  0  0  0  0  0  0  0  0  0  0  0
   11.1913   13.3383   22.5859 N   0  0  0  0  0  0  0  0  0  0  0  0
   10.5633   13.2867   23.9771 C   0  0  0  0  0  0  0  0  0  0  0  0
   10.5319   14.0868   24.8214 O   0  0  0  0  0  0  0  0  0  0  0  0
    9.8492   12.0143   24.0960 C   0  0  0  0  0  0  0  0  0  0  0  0
   10.1972   10.9621   23.3386 N   0  0  0  0  0  0  0  0  0  0  0  0
    9.3712    9.9807   23.7270 N   0  0  0  0  0  0  0  0  0  0  0  0
    9.4810    8.7003   23.0696 C   0  0  0  0  0  0  0  0  0  0  0  0
    8.4724   10.3733   24.6915 C   0  0  0  0  0  0  0  0  0  0  0  0
    7.4555    9.6936   25.3685 C   0  0  0  0  0  0  0  0  0  0  0  0
    6.6521   10.4146   26.2547 C   0  0  0  0  0  0  0  0  0  0  0  0
    6.8810   11.7777   26.4578 C   0  0  0  0  0  0  0  0  0  0  0  0
    6.0214   12.5115   27.3846 N   0  0  0  0  0  0  0  0  0  0  0  0
    6.5176   13.4800   27.9769 O   0  0  0  0  0  0  0  0  0  0  0  0
    4.8657   12.0929   27.5499 O   0  0  0  0  0  0  0  0  0  0  0  0
    7.9285   12.4513   25.8147 C   0  0  0  0  0  0  0  0  0  0  0  0
    8.7361   11.7211   24.9207 C   0  0  0  0  0  0  0  0  0  0  0  0
  1  2  1  0
  2  3  1  0
  3  4  1  0
  4  5  1  0
  5  6  1  0
  6  7  1  0
  4  8  2  0
  8  9  1  0
  9 10  1  0
 10 11  1  0
 11 12  1  0
 12 13  2  0
 12 14  1  0
 14 15  2  0
 15 16  1  0
 16 17  1  0
 16 18  1  0
 18 19  2  0
 19 20  1  0
 20 21  2  0
 21 22  1  0
 22 23  2  0
 22 24  1  0
 21 25  1  0
 25 26  2  0
  9  2  2  0
 26 14  1  0
  7  5  1  0
 26 18  1  0
M  CHG  2  22   1  24  -1
M  END
>  <energy_score>  (1384) 
-41.278693

>  <inchikey>  (1384) 
None

>  <smiles>  (1384) 
None

>  <ref_pdb>  (1384) 
A2290a

>  <alias>  (1384) 
None

>  <HIPPO Pose ID>  (1384) 
499028

>  <name>  (1384) 
P499028

>  <HIPPO Compound ID>  (1384) 
299341

>  <ref_mols>  (1384) 
A3403a,A2290a

>  <distance_score>  (1384) 
0.752177

>  <inspiration_score>  (1384) 
None

$$$$
P499029
     RDKit          3D

 26 29  0  0  0  0  0  0  0  0999 V2000
    9.3494    8.7218   23.1383 C   0  0  0  0  0  0  0  0  0  0  0  0
    9.2656    9.9846   23.8318 N   0  0  0  0  0  0  0  0  0  0  0  0
   10.1584   10.9308   23.5137 N   0  0  0  0  0  0  0  0  0  0  0  0
    9.8273   11.9799   24.2877 C   0  0  0  0  0  0  0  0  0  0  0  0
   10.6399   13.1958   24.2412 C   0  0  0  0  0  0  0  0  0  0  0  0
   10.6125   14.0124   25.0693 O   0  0  0  0  0  0  0  0  0  0  0  0
   11.4335   13.1317   22.9412 N   0  0  0  0  0  0  0  0  0  0  0  0
   12.2838   14.0854   22.3349 C   0  0  0  0  0  0  0  0  0  0  0  0
   11.5639   14.5929   21.1707 C   0  0  0  0  0  0  0  0  0  0  0  0
   11.8048   14.3997   19.8367 C   0  0  0  0  0  0  0  0  0  0  0  0
   10.8749   15.0865   19.1401 O   0  0  0  0  0  0  0  0  0  0  0  0
   10.1578   15.7248   20.1059 C   0  0  0  0  0  0  0  0  0  0  0  0
    9.3615   16.8310   19.6724 C   0  0  0  0  0  0  0  0  0  0  0  0
    9.1768   17.1179   18.3340 C   0  0  0  0  0  0  0  0  0  0  0  0
    8.2785   18.0857   17.9670 C   0  0  0  0  0  0  0  0  0  0  0  0
    7.6924   18.8779   18.9307 C   0  0  0  0  0  0  0  0  0  0  0  0
    8.0480   18.7481   20.2397 C   0  0  0  0  0  0  0  0  0  0  0  0
    8.7992   17.6703   20.6179 C   0  0  0  0  0  0  0  0  0  0  0  0
   10.4660   15.3877   21.3366 N   0  0  0  0  0  0  0  0  0  0  0  0
    8.6838   11.7149   25.0706 C   0  0  0  0  0  0  0  0  0  0  0  0
    7.9010   12.4448   25.9832 C   0  0  0  0  0  0  0  0  0  0  0  0
    6.8470   11.7954   26.6175 C   0  0  0  0  0  0  0  0  0  0  0  0
    6.1094   12.4635   27.5148 F   0  0  0  0  0  0  0  0  0  0  0  0
    6.5619   10.4605   26.3683 C   0  0  0  0  0  0  0  0  0  0  0  0
    7.3215    9.7318   25.4497 C   0  0  0  0  0  0  0  0  0  0  0  0
    8.3710   10.3846   24.7967 C   0  0  0  0  0  0  0  0  0  0  0  0
  1  2  1  0
  2  3  1  0
  3  4  2  0
  4  5  1  0
  5  6  2  0
  5  7  1  0
  7  8  1  0
  8  9  1  0
  9 10  2  0
 10 11  1  0
 11 12  1  0
 12 13  1  0
 13 14  2  0
 14 15  1  0
 15 16  2  0
 16 17  1  0
 17 18  2  0
 12 19  2  0
  4 20  1  0
 20 21  2  0
 21 22  1  0
 22 23  1  0
 22 24  2  0
 24 25  1  0
 25 26  2  0
 26  2  1  0
 19  9  1  0
 26 20  1  0
 18 13  1  0
M  END
>  <energy_score>  (1385) 
-35.135765

>  <inchikey>  (1385) 
None

>  <smiles>  (1385) 
None

>  <ref_pdb>  (1385) 
A2290a

>  <alias>  (1385) 
None

>  <HIPPO Pose ID>  (1385) 
499029

>  <name>  (1385) 
P499029

>  <HIPPO Compound ID>  (1385) 
299346

>  <ref_mols>  (1385) 
A3403a,A2290a

>  <distance_score>  (1385) 
1.062006

>  <inspiration_score>  (1385) 
None

$$$$
P499030
     RDKit          3D

 26 29  0  0  0  0  0  0  0  0999 V2000
   11.7092   14.4001   18.5979 C   0  0  0  0  0  0  0  0  0  0  0  0
   10.8250   14.9789   19.6005 C   0  0  0  0  0  0  0  0  0  0  0  0
    9.8472   15.8127   19.1553 O   0  0  0  0  0  0  0  0  0  0  0  0
    9.3787   16.4103   20.2933 C   0  0  0  0  0  0  0  0  0  0  0  0
    8.8153   17.8603   20.2945 C   0  0  0  0  0  0  0  0  0  0  0  0
    7.6231   18.5421   19.7420 C   0  0  0  0  0  0  0  0  0  0  0  0
    8.7786   18.4175   18.8588 C   0  0  0  0  0  0  0  0  0  0  0  0
    9.8252   15.8387   21.3913 N   0  0  0  0  0  0  0  0  0  0  0  0
   10.8462   15.0292   20.9685 C   0  0  0  0  0  0  0  0  0  0  0  0
   11.8496   14.4819   21.9052 C   0  0  0  0  0  0  0  0  0  0  0  0
   11.2296   13.4073   22.5916 N   0  0  0  0  0  0  0  0  0  0  0  0
   10.6716   13.3257   24.0120 C   0  0  0  0  0  0  0  0  0  0  0  0
   10.6974   14.1017   24.8791 O   0  0  0  0  0  0  0  0  0  0  0  0
    9.9764   12.0437   24.1241 C   0  0  0  0  0  0  0  0  0  0  0  0
   10.3606   11.0107   23.3603 N   0  0  0  0  0  0  0  0  0  0  0  0
    9.5221   10.0001   23.6949 N   0  0  0  0  0  0  0  0  0  0  0  0
    9.5943    8.7298   22.9601 C   0  0  0  0  0  0  0  0  0  0  0  0
   10.0277    8.9124   21.6905 F   0  0  0  0  0  0  0  0  0  0  0  0
    8.3842    8.1388   22.8926 F   0  0  0  0  0  0  0  0  0  0  0  0
   10.4420    7.8364   23.5201 F   0  0  0  0  0  0  0  0  0  0  0  0
    8.6117   10.3726   24.6672 C   0  0  0  0  0  0  0  0  0  0  0  0
    7.5829    9.6859   25.3203 C   0  0  0  0  0  0  0  0  0  0  0  0
    6.7821   10.3899   26.2251 C   0  0  0  0  0  0  0  0  0  0  0  0
    7.0001   11.7409   26.4729 C   0  0  0  0  0  0  0  0  0  0  0  0
    8.0409   12.4175   25.8332 C   0  0  0  0  0  0  0  0  0  0  0  0
    8.8648   11.7169   24.9317 C   0  0  0  0  0  0  0  0  0  0  0  0
  1  2  1  0
  2  3  1  0
  3  4  1  0
  4  5  1  0
  5  6  1  0
  6  7  1  0
  4  8  2  0
  8  9  1  0
  9 10  1  0
 10 11  1  0
 11 12  1  0
 12 13  2  0
 12 14  1  0
 14 15  2  0
 15 16  1  0
 16 17  1  0
 17 18  1  0
 17 19  1  0
 17 20  1  0
 16 21  1  0
 21 22  2  0
 22 23  1  0
 23 24  2  0
 24 25  1  0
 25 26  2  0
  9  2  2  0
 26 14  1  0
  7  5  1  0
 26 21  1  0
M  END
>  <energy_score>  (1386) 
-25.052133

>  <inchikey>  (1386) 
None

>  <smiles>  (1386) 
None

>  <ref_pdb>  (1386) 
A2290a

>  <alias>  (1386) 
None

>  <HIPPO Pose ID>  (1386) 
499030

>  <name>  (1386) 
P499030

>  <HIPPO Compound ID>  (1386) 
299349

>  <ref_mols>  (1386) 
A3403a,A2290a

>  <distance_score>  (1386) 
0.784282

>  <inspiration_score>  (1386) 
None

$$$$
P499031
     RDKit          3D

 26 28  0  0  0  0  0  0  0  0999 V2000
   12.4815   12.9815   21.2702 C   0  0  0  0  0  0  0  0  0  0  0  0
   12.1436   14.3598   20.7009 C   0  0  0  0  0  0  0  0  0  0  0  0
   12.0394   14.3821   19.1795 C   0  0  0  0  0  0  0  0  0  0  0  0
   13.1780   15.2909   21.3073 C   0  0  0  0  0  0  0  0  0  0  0  0
   10.8520   14.7360   21.2640 C   0  0  0  0  0  0  0  0  0  0  0  0
    9.7959   15.1153   20.4975 O   0  0  0  0  0  0  0  0  0  0  0  0
    8.7903   15.1484   21.4010 C   0  0  0  0  0  0  0  0  0  0  0  0
    9.1160   14.7671   22.6145 N   0  0  0  0  0  0  0  0  0  0  0  0
   10.4882   14.6734   22.5714 C   0  0  0  0  0  0  0  0  0  0  0  0
   11.3423   14.3174   23.7456 C   0  0  0  0  0  0  0  0  0  0  0  0
   10.5554   13.3362   24.3042 N   0  0  0  0  0  0  0  0  0  0  0  0
    9.5575   13.4031   25.4275 C   0  0  0  0  0  0  0  0  0  0  0  0
    9.2765   14.2771   26.1327 O   0  0  0  0  0  0  0  0  0  0  0  0
    8.9416   12.0980   25.3528 C   0  0  0  0  0  0  0  0  0  0  0  0
    9.4654   11.1895   24.5048 N   0  0  0  0  0  0  0  0  0  0  0  0
    8.6263   10.1513   24.5685 N   0  0  0  0  0  0  0  0  0  0  0  0
    9.0006    8.8962   23.9198 C   0  0  0  0  0  0  0  0  0  0  0  0
   10.3314    8.8019   23.6836 F   0  0  0  0  0  0  0  0  0  0  0  0
    8.3810    8.6971   22.7527 F   0  0  0  0  0  0  0  0  0  0  0  0
    8.6310    7.8955   24.7323 F   0  0  0  0  0  0  0  0  0  0  0  0
    7.5849   10.3835   25.4479 C   0  0  0  0  0  0  0  0  0  0  0  0
    6.4938    9.6272   25.8575 C   0  0  0  0  0  0  0  0  0  0  0  0
    5.6172   10.1741   26.7974 C   0  0  0  0  0  0  0  0  0  0  0  0
    5.7939   11.4611   27.2884 C   0  0  0  0  0  0  0  0  0  0  0  0
    6.8715   12.2272   26.8657 C   0  0  0  0  0  0  0  0  0  0  0  0
    7.7764   11.6606   25.9597 C   0  0  0  0  0  0  0  0  0  0  0  0
  1  2  1  0
  2  3  1  0
  2  4  1  0
  2  5  1  0
  5  6  1  0
  6  7  1  0
  7  8  2  0
  8  9  1  0
  9 10  1  0
 10 11  1  0
 11 12  1  0
 12 13  2  0
 12 14  1  0
 14 15  2  0
 15 16  1  0
 16 17  1  0
 17 18  1  0
 17 19  1  0
 17 20  1  0
 16 21  1  0
 21 22  2  0
 22 23  1  0
 23 24  2  0
 24 25  1  0
 25 26  2  0
  9  5  2  0
 26 14  1  0
 26 21  1  0
M  END
>  <energy_score>  (1387) 
-25.4548

>  <inchikey>  (1387) 
None

>  <smiles>  (1387) 
None

>  <ref_pdb>  (1387) 
A2290a

>  <alias>  (1387) 
None

>  <HIPPO Pose ID>  (1387) 
499031

>  <name>  (1387) 
P499031

>  <HIPPO Compound ID>  (1387) 
299353

>  <ref_mols>  (1387) 
A3403a,A2290a

>  <distance_score>  (1387) 
1.997244

>  <inspiration_score>  (1387) 
None

$$$$
P499032
     RDKit          3D

 26 28  0  0  0  0  0  0  0  0999 V2000
    8.9289   17.4155   18.1288 C   0  0  0  0  0  0  0  0  0  0  0  0
    8.2824   17.6872   19.3942 N   0  0  0  0  0  0  0  0  0  0  0  0
    7.9543   19.0705   19.5297 C   0  0  0  0  0  0  0  0  0  0  0  0
    8.8487   17.1624   20.6300 C   0  0  0  0  0  0  0  0  0  0  0  0
    9.7897   16.0158   20.5778 C   0  0  0  0  0  0  0  0  0  0  0  0
   10.4739   15.5303   21.5875 N   0  0  0  0  0  0  0  0  0  0  0  0
   11.4003   14.7209   20.9974 C   0  0  0  0  0  0  0  0  0  0  0  0
   12.3935   14.0279   21.8202 C   0  0  0  0  0  0  0  0  0  0  0  0
   11.6451   13.0814   22.5679 N   0  0  0  0  0  0  0  0  0  0  0  0
   10.9433   13.2136   23.9235 C   0  0  0  0  0  0  0  0  0  0  0  0
   10.9289   14.0957   24.6841 O   0  0  0  0  0  0  0  0  0  0  0  0
   10.1450   11.9963   24.0901 C   0  0  0  0  0  0  0  0  0  0  0  0
   10.4755   10.9180   23.3678 N   0  0  0  0  0  0  0  0  0  0  0  0
    9.5857    9.9684   23.7120 N   0  0  0  0  0  0  0  0  0  0  0  0
    9.6202    8.6849   23.0033 C   0  0  0  0  0  0  0  0  0  0  0  0
    8.4152    8.0892   23.0502 F   0  0  0  0  0  0  0  0  0  0  0  0
   10.5247    7.8192   23.5116 F   0  0  0  0  0  0  0  0  0  0  0  0
    9.9481    8.8511   21.7012 F   0  0  0  0  0  0  0  0  0  0  0  0
    8.6797   10.4139   24.6566 C   0  0  0  0  0  0  0  0  0  0  0  0
    7.6140    9.7926   25.3201 C   0  0  0  0  0  0  0  0  0  0  0  0
    6.8389   10.5622   26.1926 C   0  0  0  0  0  0  0  0  0  0  0  0
    7.1143   11.9114   26.3939 C   0  0  0  0  0  0  0  0  0  0  0  0
    8.1917   12.5213   25.7446 C   0  0  0  0  0  0  0  0  0  0  0  0
    8.9971   11.7555   24.8807 C   0  0  0  0  0  0  0  0  0  0  0  0
   11.1720   14.6606   19.6478 C   0  0  0  0  0  0  0  0  0  0  0  0
   10.1153   15.4574   19.3801 O   0  0  0  0  0  0  0  0  0  0  0  0
  1  2  1  0
  2  3  1  0
  2  4  1  0
  4  5  1  0
  5  6  2  0
  6  7  1  0
  7  8  1  0
  8  9  1  0
  9 10  1  0
 10 11  2  0
 10 12  1  0
 12 13  2  0
 13 14  1  0
 14 15  1  0
 15 16  1  0
 15 17  1  0
 15 18  1  0
 14 19  1  0
 19 20  2  0
 20 21  1  0
 21 22  2  0
 22 23  1  0
 23 24  2  0
  7 25  2  0
 25 26  1  0
 26  5  1  0
 24 12  1  0
 24 19  1  0
M  END
>  <energy_score>  (1388) 
-2.990585

>  <inchikey>  (1388) 
None

>  <smiles>  (1388) 
None

>  <ref_pdb>  (1388) 
A2290a

>  <alias>  (1388) 
None

>  <HIPPO Pose ID>  (1388) 
499032

>  <name>  (1388) 
P499032

>  <HIPPO Compound ID>  (1388) 
299354

>  <ref_mols>  (1388) 
A3403a,A2290a

>  <distance_score>  (1388) 
0.85122

>  <inspiration_score>  (1388) 
None

$$$$
P499033
     RDKit          3D

 26 28  0  0  0  0  0  0  0  0999 V2000
    4.1519   12.7884   28.5976 C   0  0  0  0  0  0  0  0  0  0  0  0
    4.9725   12.0614   27.6837 O   0  0  0  0  0  0  0  0  0  0  0  0
    6.2127   12.5883   27.5258 C   0  0  0  0  0  0  0  0  0  0  0  0
    6.6621   13.5625   28.1083 O   0  0  0  0  0  0  0  0  0  0  0  0
    6.9832   11.8070   26.5286 C   0  0  0  0  0  0  0  0  0  0  0  0
    6.7146   10.4569   26.2907 C   0  0  0  0  0  0  0  0  0  0  0  0
    7.4731    9.7270   25.3705 C   0  0  0  0  0  0  0  0  0  0  0  0
    8.4969   10.3860   24.6843 C   0  0  0  0  0  0  0  0  0  0  0  0
    8.8006   11.7226   24.9249 C   0  0  0  0  0  0  0  0  0  0  0  0
    8.0341   12.4498   25.8564 C   0  0  0  0  0  0  0  0  0  0  0  0
    9.9011   12.0025   24.0761 C   0  0  0  0  0  0  0  0  0  0  0  0
   10.6476   13.2590   23.9497 C   0  0  0  0  0  0  0  0  0  0  0  0
   10.6285   14.0704   24.7843 O   0  0  0  0  0  0  0  0  0  0  0  0
   11.2894   13.2787   22.5614 N   0  0  0  0  0  0  0  0  0  0  0  0
   11.9595   14.3240   21.8672 C   0  0  0  0  0  0  0  0  0  0  0  0
   10.9558   14.9675   20.9891 C   0  0  0  0  0  0  0  0  0  0  0  0
    9.9397   15.7236   21.5020 N   0  0  0  0  0  0  0  0  0  0  0  0
    9.3934   16.2963   20.4587 C   0  0  0  0  0  0  0  0  0  0  0  0
    9.8546   15.8433   19.2665 O   0  0  0  0  0  0  0  0  0  0  0  0
   10.8618   14.9850   19.6199 C   0  0  0  0  0  0  0  0  0  0  0  0
   11.6545   14.3685   18.5653 C   0  0  0  0  0  0  0  0  0  0  0  0
   12.6737   13.6347   19.0937 F   0  0  0  0  0  0  0  0  0  0  0  0
   12.2576   15.2728   17.7718 F   0  0  0  0  0  0  0  0  0  0  0  0
   10.2069   10.9489   23.3003 N   0  0  0  0  0  0  0  0  0  0  0  0
    9.3734    9.9804   23.7072 N   0  0  0  0  0  0  0  0  0  0  0  0
    9.4630    8.6923   23.0639 C   0  0  0  0  0  0  0  0  0  0  0  0
  1  2  1  0
  2  3  1  0
  3  4  2  0
  3  5  1  0
  5  6  2  0
  6  7  1  0
  7  8  2  0
  8  9  1  0
  9 10  2  0
  9 11  1  0
 11 12  1  0
 12 13  2  0
 12 14  1  0
 14 15  1  0
 15 16  1  0
 16 17  1  0
 17 18  2  0
 18 19  1  0
 19 20  1  0
 20 21  1  0
 21 22  1  0
 21 23  1  0
 11 24  2  0
 24 25  1  0
 25 26  1  0
 10  5  1  0
 20 16  2  0
 25  8  1  0
M  END
>  <energy_score>  (1389) 
-22.224355

>  <inchikey>  (1389) 
None

>  <smiles>  (1389) 
None

>  <ref_pdb>  (1389) 
A2290a

>  <alias>  (1389) 
None

>  <HIPPO Pose ID>  (1389) 
499033

>  <name>  (1389) 
P499033

>  <HIPPO Compound ID>  (1389) 
299356

>  <ref_mols>  (1389) 
A3403a,A2290a

>  <distance_score>  (1389) 
0.770622

>  <inspiration_score>  (1389) 
None

$$$$
P499034
     RDKit          3D

 26 28  0  0  0  0  0  0  0  0999 V2000
    8.3793   18.2387   19.1381 C   0  0  0  0  0  0  0  0  0  0  0  0
    8.6166   17.5555   20.4749 C   0  0  0  0  0  0  0  0  0  0  0  0
    9.5416   16.3959   20.4510 C   0  0  0  0  0  0  0  0  0  0  0  0
   10.0309   15.7475   21.4863 N   0  0  0  0  0  0  0  0  0  0  0  0
   10.9980   14.9395   20.9656 C   0  0  0  0  0  0  0  0  0  0  0  0
   11.9748   14.2451   21.8284 C   0  0  0  0  0  0  0  0  0  0  0  0
   11.2652   13.2304   22.5241 N   0  0  0  0  0  0  0  0  0  0  0  0
   10.6613   13.2245   23.9280 C   0  0  0  0  0  0  0  0  0  0  0  0
   10.7116   14.0214   24.7750 O   0  0  0  0  0  0  0  0  0  0  0  0
    9.8933   11.9834   24.0664 C   0  0  0  0  0  0  0  0  0  0  0  0
   10.1862   10.9205   23.2975 N   0  0  0  0  0  0  0  0  0  0  0  0
    9.3535    9.9616   23.7204 N   0  0  0  0  0  0  0  0  0  0  0  0
    9.4360    8.6697   23.0853 C   0  0  0  0  0  0  0  0  0  0  0  0
    8.4806   10.3825   24.6942 C   0  0  0  0  0  0  0  0  0  0  0  0
    7.4545    9.7368   25.3896 C   0  0  0  0  0  0  0  0  0  0  0  0
    6.7068   10.4808   26.3073 C   0  0  0  0  0  0  0  0  0  0  0  0
    6.9873   11.8313   26.5324 C   0  0  0  0  0  0  0  0  0  0  0  0
    6.2272   12.6258   27.5269 C   0  0  0  0  0  0  0  0  0  0  0  0
    6.6910   13.5923   28.1098 O   0  0  0  0  0  0  0  0  0  0  0  0
    4.9777   12.1185   27.6792 O   0  0  0  0  0  0  0  0  0  0  0  0
    4.1659   12.8626   28.5883 C   0  0  0  0  0  0  0  0  0  0  0  0
    8.0400   12.4607   25.8509 C   0  0  0  0  0  0  0  0  0  0  0  0
    8.7954   11.7195   24.9219 C   0  0  0  0  0  0  0  0  0  0  0  0
   10.9248   14.9996   19.5987 C   0  0  0  0  0  0  0  0  0  0  0  0
   11.7392   14.4339   18.5342 C   0  0  0  0  0  0  0  0  0  0  0  0
    9.9739   15.9152   19.2509 O   0  0  0  0  0  0  0  0  0  0  0  0
  1  2  1  0
  2  3  1  0
  3  4  2  0
  4  5  1  0
  5  6  1  0
  6  7  1  0
  7  8  1  0
  8  9  2  0
  8 10  1  0
 10 11  2  0
 11 12  1  0
 12 13  1  0
 12 14  1  0
 14 15  2  0
 15 16  1  0
 16 17  2  0
 17 18  1  0
 18 19  2  0
 18 20  1  0
 20 21  1  0
 17 22  1  0
 22 23  2  0
  5 24  2  0
 24 25  1  0
 24 26  1  0
 26  3  1  0
 23 10  1  0
 23 14  1  0
M  END
>  <energy_score>  (1390) 
-24.773421

>  <inchikey>  (1390) 
None

>  <smiles>  (1390) 
None

>  <ref_pdb>  (1390) 
A2290a

>  <alias>  (1390) 
None

>  <HIPPO Pose ID>  (1390) 
499034

>  <name>  (1390) 
P499034

>  <HIPPO Compound ID>  (1390) 
299357

>  <ref_mols>  (1390) 
A3403a,A2290a

>  <distance_score>  (1390) 
0.757357

>  <inspiration_score>  (1390) 
None

$$$$
P499035
     RDKit          3D

 26 28  0  0  0  0  0  0  0  0999 V2000
   10.6489   14.2047   24.5888 O   0  0  0  0  0  0  0  0  0  0  0  0
   10.5871   13.4276   23.7242 C   0  0  0  0  0  0  0  0  0  0  0  0
   10.9845   13.5481   22.2497 N   0  0  0  0  0  0  0  0  0  0  0  0
   11.6246   14.6078   21.5479 C   0  0  0  0  0  0  0  0  0  0  0  0
   10.6300   15.2674   20.6628 C   0  0  0  0  0  0  0  0  0  0  0  0
   10.5199   15.1974   19.2980 C   0  0  0  0  0  0  0  0  0  0  0  0
    9.6701   16.1768   18.8794 O   0  0  0  0  0  0  0  0  0  0  0  0
    9.2908   16.8293   20.0294 C   0  0  0  0  0  0  0  0  0  0  0  0
    8.5390   18.1325   19.8525 C   0  0  0  0  0  0  0  0  0  0  0  0
    9.0641   18.8658   18.8310 F   0  0  0  0  0  0  0  0  0  0  0  0
    7.2371   18.0078   19.5318 F   0  0  0  0  0  0  0  0  0  0  0  0
    8.5815   18.8963   20.9682 F   0  0  0  0  0  0  0  0  0  0  0  0
    9.7653   16.2375   21.1185 N   0  0  0  0  0  0  0  0  0  0  0  0
    9.9650   12.1186   23.9246 C   0  0  0  0  0  0  0  0  0  0  0  0
   10.3383   11.0732   23.1776 N   0  0  0  0  0  0  0  0  0  0  0  0
    9.5657   10.0459   23.6063 N   0  0  0  0  0  0  0  0  0  0  0  0
    9.6701    8.7397   22.9457 C   0  0  0  0  0  0  0  0  0  0  0  0
   10.6086    7.9416   23.5040 F   0  0  0  0  0  0  0  0  0  0  0  0
   10.0104    8.8658   21.6429 F   0  0  0  0  0  0  0  0  0  0  0  0
    8.4958    8.0797   22.9971 F   0  0  0  0  0  0  0  0  0  0  0  0
    8.6756   10.4275   24.5933 C   0  0  0  0  0  0  0  0  0  0  0  0
    7.6796    9.7376   25.2957 C   0  0  0  0  0  0  0  0  0  0  0  0
    6.8943   10.4513   26.2062 C   0  0  0  0  0  0  0  0  0  0  0  0
    7.1001   11.8109   26.4160 C   0  0  0  0  0  0  0  0  0  0  0  0
    8.1064   12.4898   25.7240 C   0  0  0  0  0  0  0  0  0  0  0  0
    8.9089   11.7839   24.8067 C   0  0  0  0  0  0  0  0  0  0  0  0
  1  2  2  0
  2  3  1  0
  3  4  1  0
  4  5  1  0
  5  6  2  0
  6  7  1  0
  7  8  1  0
  8  9  1  0
  9 10  1  0
  9 11  1  0
  9 12  1  0
  8 13  2  0
  2 14  1  0
 14 15  2  0
 15 16  1  0
 16 17  1  0
 17 18  1  0
 17 19  1  0
 17 20  1  0
 16 21  1  0
 21 22  2  0
 22 23  1  0
 23 24  2  0
 24 25  1  0
 25 26  2  0
 13  5  1  0
 26 14  1  0
 26 21  1  0
M  END
>  <energy_score>  (1391) 
-7.693291

>  <inchikey>  (1391) 
None

>  <smiles>  (1391) 
None

>  <ref_pdb>  (1391) 
A2290a

>  <alias>  (1391) 
None

>  <HIPPO Pose ID>  (1391) 
499035

>  <name>  (1391) 
P499035

>  <HIPPO Compound ID>  (1391) 
299358

>  <ref_mols>  (1391) 
A3403a,A2290a

>  <distance_score>  (1391) 
0.702349

>  <inspiration_score>  (1391) 
None

$$$$
P499036
     RDKit          3D

 26 28  0  0  0  0  0  0  0  0999 V2000
   10.6394   14.1446   24.8318 O   0  0  0  0  0  0  0  0  0  0  0  0
   10.6842   13.3432   23.9886 C   0  0  0  0  0  0  0  0  0  0  0  0
   11.3155   13.4019   22.5961 N   0  0  0  0  0  0  0  0  0  0  0  0
   11.9385   14.4772   21.9101 C   0  0  0  0  0  0  0  0  0  0  0  0
   10.9233   15.0480   20.9944 C   0  0  0  0  0  0  0  0  0  0  0  0
    9.8889   15.8051   21.4645 N   0  0  0  0  0  0  0  0  0  0  0  0
    9.3635   16.3494   20.3966 C   0  0  0  0  0  0  0  0  0  0  0  0
    9.8519   15.8690   19.2267 O   0  0  0  0  0  0  0  0  0  0  0  0
   10.8550   15.0220   19.6233 C   0  0  0  0  0  0  0  0  0  0  0  0
   11.7107   14.4084   18.6180 C   0  0  0  0  0  0  0  0  0  0  0  0
   12.7737   13.7904   19.2032 F   0  0  0  0  0  0  0  0  0  0  0  0
   11.0861   13.4573   17.9079 F   0  0  0  0  0  0  0  0  0  0  0  0
   12.2421   15.2864   17.7521 F   0  0  0  0  0  0  0  0  0  0  0  0
    9.9918   12.0587   24.1000 C   0  0  0  0  0  0  0  0  0  0  0  0
   10.3647   11.0310   23.3255 N   0  0  0  0  0  0  0  0  0  0  0  0
    9.5462   10.0113   23.6806 N   0  0  0  0  0  0  0  0  0  0  0  0
    9.6307    8.7348   22.9587 C   0  0  0  0  0  0  0  0  0  0  0  0
   10.5277    7.8754   23.4938 F   0  0  0  0  0  0  0  0  0  0  0  0
    8.4349    8.1123   22.9370 F   0  0  0  0  0  0  0  0  0  0  0  0
   10.0149    8.9168   21.6730 F   0  0  0  0  0  0  0  0  0  0  0  0
    8.6333   10.3835   24.6510 C   0  0  0  0  0  0  0  0  0  0  0  0
    7.6080    9.6939   25.3074 C   0  0  0  0  0  0  0  0  0  0  0  0
    6.8055   10.3968   26.2116 C   0  0  0  0  0  0  0  0  0  0  0  0
    7.0202   11.7486   26.4574 C   0  0  0  0  0  0  0  0  0  0  0  0
    8.0584   12.4272   25.8155 C   0  0  0  0  0  0  0  0  0  0  0  0
    8.8824   11.7290   24.9117 C   0  0  0  0  0  0  0  0  0  0  0  0
  1  2  2  0
  2  3  1  0
  3  4  1  0
  4  5  1  0
  5  6  1  0
  6  7  2  0
  7  8  1  0
  8  9  1  0
  9 10  1  0
 10 11  1  0
 10 12  1  0
 10 13  1  0
  2 14  1  0
 14 15  2  0
 15 16  1  0
 16 17  1  0
 17 18  1  0
 17 19  1  0
 17 20  1  0
 16 21  1  0
 21 22  2  0
 22 23  1  0
 23 24  2  0
 24 25  1  0
 25 26  2  0
  9  5  2  0
 26 14  1  0
 26 21  1  0
M  END
>  <energy_score>  (1392) 
-36.922688

>  <inchikey>  (1392) 
None

>  <smiles>  (1392) 
None

>  <ref_pdb>  (1392) 
A2290a

>  <alias>  (1392) 
None

>  <HIPPO Pose ID>  (1392) 
499036

>  <name>  (1392) 
P499036

>  <HIPPO Compound ID>  (1392) 
299359

>  <ref_mols>  (1392) 
A3403a,A2290a

>  <distance_score>  (1392) 
0.785552

>  <inspiration_score>  (1392) 
None

$$$$
P499037
     RDKit          3D

 26 28  0  0  0  0  0  0  0  0999 V2000
    4.2604   12.7480   28.6064 C   0  0  0  0  0  0  0  0  0  0  0  0
    5.0752   12.0300   27.6800 O   0  0  0  0  0  0  0  0  0  0  0  0
    6.2958   12.5886   27.4813 C   0  0  0  0  0  0  0  0  0  0  0  0
    6.7364   13.5780   28.0444 O   0  0  0  0  0  0  0  0  0  0  0  0
    7.0566   11.8200   26.4671 C   0  0  0  0  0  0  0  0  0  0  0  0
    6.8220   10.4590   26.2538 C   0  0  0  0  0  0  0  0  0  0  0  0
    7.5754    9.7406   25.3206 C   0  0  0  0  0  0  0  0  0  0  0  0
    8.5531   10.4257   24.5924 C   0  0  0  0  0  0  0  0  0  0  0  0
    8.8140   11.7769   24.7960 C   0  0  0  0  0  0  0  0  0  0  0  0
    8.0610   12.4889   25.7502 C   0  0  0  0  0  0  0  0  0  0  0  0
    9.8579   12.0891   23.8847 C   0  0  0  0  0  0  0  0  0  0  0  0
   10.5365   13.3796   23.7090 C   0  0  0  0  0  0  0  0  0  0  0  0
   10.5721   14.1545   24.5776 O   0  0  0  0  0  0  0  0  0  0  0  0
   11.0555   13.4750   22.2703 N   0  0  0  0  0  0  0  0  0  0  0  0
   11.6409   14.5689   21.5666 C   0  0  0  0  0  0  0  0  0  0  0  0
   10.6371   15.2264   20.6889 C   0  0  0  0  0  0  0  0  0  0  0  0
   10.5231   15.1446   19.3246 C   0  0  0  0  0  0  0  0  0  0  0  0
    9.6808   16.1253   18.8976 O   0  0  0  0  0  0  0  0  0  0  0  0
    9.3185   16.7976   20.0372 C   0  0  0  0  0  0  0  0  0  0  0  0
    8.5976   18.1095   19.8443 C   0  0  0  0  0  0  0  0  0  0  0  0
    7.2782   17.9978   19.5846 F   0  0  0  0  0  0  0  0  0  0  0  0
    9.0892   18.7713   18.7549 F   0  0  0  0  0  0  0  0  0  0  0  0
    9.7982   16.2282   21.1335 N   0  0  0  0  0  0  0  0  0  0  0  0
   10.1810   11.0304   23.1263 N   0  0  0  0  0  0  0  0  0  0  0  0
    9.4147   10.0333   23.5967 N   0  0  0  0  0  0  0  0  0  0  0  0
    9.5468    8.7249   23.0015 C   0  0  0  0  0  0  0  0  0  0  0  0
  1  2  1  0
  2  3  1  0
  3  4  2  0
  3  5  1  0
  5  6  2  0
  6  7  1  0
  7  8  2  0
  8  9  1  0
  9 10  2  0
  9 11  1  0
 11 12  1  0
 12 13  2  0
 12 14  1  0
 14 15  1  0
 15 16  1  0
 16 17  2  0
 17 18  1  0
 18 19  1  0
 19 20  1  0
 20 21  1  0
 20 22  1  0
 19 23  2  0
 11 24  2  0
 24 25  1  0
 25 26  1  0
 10  5  1  0
 23 16  1  0
 25  8  1  0
M  END
>  <energy_score>  (1393) 
-16.472683

>  <inchikey>  (1393) 
None

>  <smiles>  (1393) 
None

>  <ref_pdb>  (1393) 
A2290a

>  <alias>  (1393) 
None

>  <HIPPO Pose ID>  (1393) 
499037

>  <name>  (1393) 
P499037

>  <HIPPO Compound ID>  (1393) 
299367

>  <ref_mols>  (1393) 
A3403a,A2290a

>  <distance_score>  (1393) 
0.672366

>  <inspiration_score>  (1393) 
None

$$$$
P499038
     RDKit          3D

 26 28  0  0  0  0  0  0  0  0999 V2000
    4.1466   12.9717   28.6708 C   0  0  0  0  0  0  0  0  0  0  0  0
    4.9364   12.1922   27.7728 O   0  0  0  0  0  0  0  0  0  0  0  0
    6.1794   12.6949   27.5637 C   0  0  0  0  0  0  0  0  0  0  0  0
    6.6550   13.6859   28.0948 O   0  0  0  0  0  0  0  0  0  0  0  0
    6.9162   11.8624   26.5822 C   0  0  0  0  0  0  0  0  0  0  0  0
    6.6119   10.5122   26.3891 C   0  0  0  0  0  0  0  0  0  0  0  0
    7.3370    9.7349   25.4804 C   0  0  0  0  0  0  0  0  0  0  0  0
    8.3705   10.3435   24.7649 C   0  0  0  0  0  0  0  0  0  0  0  0
    8.6997   11.6844   24.9535 C   0  0  0  0  0  0  0  0  0  0  0  0
    7.9667   12.4603   25.8705 C   0  0  0  0  0  0  0  0  0  0  0  0
    9.7683   11.9161   24.0610 C   0  0  0  0  0  0  0  0  0  0  0  0
   10.5098   13.1456   23.8008 C   0  0  0  0  0  0  0  0  0  0  0  0
   10.5650   14.0351   24.5506 O   0  0  0  0  0  0  0  0  0  0  0  0
   11.1246   12.9805   22.4092 N   0  0  0  0  0  0  0  0  0  0  0  0
   11.8521   13.8968   21.6081 C   0  0  2  0  0  0  0  0  0  0  0  0
   12.8090   14.7260   22.4011 C   0  0  0  0  0  0  0  0  0  0  0  0
   10.8933   14.7433   20.8697 C   0  0  0  0  0  0  0  0  0  0  0  0
    9.9615   15.5302   21.4839 N   0  0  0  0  0  0  0  0  0  0  0  0
    9.5026   16.2938   20.5152 C   0  0  0  0  0  0  0  0  0  0  0  0
    8.5960   17.4449   20.6317 C   0  0  0  0  0  0  0  0  0  0  0  0
    9.9609   15.9704   19.2725 O   0  0  0  0  0  0  0  0  0  0  0  0
   10.8739   14.9916   19.5258 C   0  0  0  0  0  0  0  0  0  0  0  0
   11.7223   14.5148   18.4441 C   0  0  0  0  0  0  0  0  0  0  0  0
   10.0687   10.8188   23.3476 N   0  0  0  0  0  0  0  0  0  0  0  0
    9.2251    9.8872   23.7907 N   0  0  0  0  0  0  0  0  0  0  0  0
    9.2786    8.5985   23.1512 C   0  0  0  0  0  0  0  0  0  0  0  0
  1  2  1  0
  2  3  1  0
  3  4  2  0
  3  5  1  0
  5  6  2  0
  6  7  1  0
  7  8  2  0
  8  9  1  0
  9 10  2  0
  9 11  1  0
 11 12  1  0
 12 13  2  0
 12 14  1  0
 14 15  1  0
 15 16  1  1
 15 17  1  0
 17 18  1  0
 18 19  2  0
 19 20  1  0
 19 21  1  0
 21 22  1  0
 22 23  1  0
 11 24  2  0
 24 25  1  0
 25 26  1  0
 10  5  1  0
 22 17  2  0
 25  8  1  0
M  END
>  <energy_score>  (1394) 
-18.162547

>  <inchikey>  (1394) 
None

>  <smiles>  (1394) 
None

>  <ref_pdb>  (1394) 
A2290a

>  <alias>  (1394) 
None

>  <HIPPO Pose ID>  (1394) 
499038

>  <name>  (1394) 
P499038

>  <HIPPO Compound ID>  (1394) 
299368

>  <ref_mols>  (1394) 
A3403a,A2290a

>  <distance_score>  (1394) 
0.790196

>  <inspiration_score>  (1394) 
None

$$$$
P499039
     RDKit          3D

 26 28  0  0  0  0  0  0  0  0999 V2000
    5.2161   14.1935   28.6637 C   0  0  0  0  0  0  0  0  0  0  0  0
    6.1197   13.4938   27.8079 O   0  0  0  0  0  0  0  0  0  0  0  0
    5.7151   12.2438   27.4757 C   0  0  0  0  0  0  0  0  0  0  0  0
    4.7113   11.6806   27.8851 O   0  0  0  0  0  0  0  0  0  0  0  0
    6.6888   11.6111   26.5472 C   0  0  0  0  0  0  0  0  0  0  0  0
    6.5717   10.2402   26.3052 C   0  0  0  0  0  0  0  0  0  0  0  0
    7.4167    9.5902   25.4000 C   0  0  0  0  0  0  0  0  0  0  0  0
    8.3727   10.3457   24.7240 C   0  0  0  0  0  0  0  0  0  0  0  0
    8.5306   11.7019   24.9742 C   0  0  0  0  0  0  0  0  0  0  0  0
    7.6864   12.3518   25.8969 C   0  0  0  0  0  0  0  0  0  0  0  0
    9.5899   12.0969   24.1295 C   0  0  0  0  0  0  0  0  0  0  0  0
   10.1941   13.4222   24.0496 C   0  0  0  0  0  0  0  0  0  0  0  0
   10.1844   14.1491   24.9579 O   0  0  0  0  0  0  0  0  0  0  0  0
   10.7754   13.5950   22.6494 N   0  0  0  0  0  0  0  0  0  0  0  0
   11.3840   14.7246   22.0331 C   0  0  1  0  0  0  0  0  0  0  0  0
   12.8093   14.3924   21.7002 C   0  0  0  0  0  0  0  0  0  0  0  0
   10.5396   15.2496   20.9273 C   0  0  0  0  0  0  0  0  0  0  0  0
    9.5478   16.1574   21.2199 N   0  0  0  0  0  0  0  0  0  0  0  0
    9.2762   16.7497   20.0821 C   0  0  0  0  0  0  0  0  0  0  0  0
    8.5367   18.0139   19.8406 C   0  0  0  0  0  0  0  0  0  0  0  0
    9.8449   16.1301   19.0078 O   0  0  0  0  0  0  0  0  0  0  0  0
   10.6675   15.1763   19.5576 C   0  0  0  0  0  0  0  0  0  0  0  0
   11.5928   14.5106   18.6343 C   0  0  0  0  0  0  0  0  0  0  0  0
   10.0126   11.0919   23.3444 N   0  0  0  0  0  0  0  0  0  0  0  0
    9.2873   10.0355   23.7448 N   0  0  0  0  0  0  0  0  0  0  0  0
    9.4985    8.7686   23.0844 C   0  0  0  0  0  0  0  0  0  0  0  0
  1  2  1  0
  2  3  1  0
  3  4  2  0
  3  5  1  0
  5  6  2  0
  6  7  1  0
  7  8  2  0
  8  9  1  0
  9 10  2  0
  9 11  1  0
 11 12  1  0
 12 13  2  0
 12 14  1  0
 14 15  1  0
 15 16  1  6
 15 17  1  0
 17 18  1  0
 18 19  2  0
 19 20  1  0
 19 21  1  0
 21 22  1  0
 22 23  1  0
 11 24  2  0
 24 25  1  0
 25 26  1  0
 10  5  1  0
 22 17  2  0
 25  8  1  0
M  END
>  <energy_score>  (1395) 
-22.664285

>  <inchikey>  (1395) 
None

>  <smiles>  (1395) 
None

>  <ref_pdb>  (1395) 
A2290a

>  <alias>  (1395) 
None

>  <HIPPO Pose ID>  (1395) 
499039

>  <name>  (1395) 
P499039

>  <HIPPO Compound ID>  (1395) 
299368

>  <ref_mols>  (1395) 
A3403a,A2290a

>  <distance_score>  (1395) 
0.894461

>  <inspiration_score>  (1395) 
None

$$$$
P499040
     RDKit          3D

 26 29  0  0  0  0  0  0  0  0999 V2000
    5.0936   14.0357   28.7882 C   0  0  0  0  0  0  0  0  0  0  0  0
    6.0156   13.3735   27.9221 O   0  0  0  0  0  0  0  0  0  0  0  0
    5.6215   12.1366   27.5333 C   0  0  0  0  0  0  0  0  0  0  0  0
    4.6105   11.5561   27.8984 O   0  0  0  0  0  0  0  0  0  0  0  0
    6.6174   11.5423   26.6034 C   0  0  0  0  0  0  0  0  0  0  0  0
    6.5266   10.1766   26.3263 C   0  0  0  0  0  0  0  0  0  0  0  0
    7.3939    9.5631   25.4163 C   0  0  0  0  0  0  0  0  0  0  0  0
    8.3449   10.3491   24.7707 C   0  0  0  0  0  0  0  0  0  0  0  0
    8.4755   11.7004   25.0567 C   0  0  0  0  0  0  0  0  0  0  0  0
    7.6094   12.3147   25.9832 C   0  0  0  0  0  0  0  0  0  0  0  0
    9.5286   12.1362   24.2274 C   0  0  0  0  0  0  0  0  0  0  0  0
   10.0748   13.4861   24.1606 C   0  0  0  0  0  0  0  0  0  0  0  0
   10.0591   14.1999   25.0787 O   0  0  0  0  0  0  0  0  0  0  0  0
   10.5458   13.7243   22.7304 N   0  0  0  0  0  0  0  0  0  0  0  0
   11.1799   14.8470   22.1448 C   0  0  0  0  0  0  0  0  0  0  0  0
   10.3336   15.4587   21.0905 C   0  0  0  0  0  0  0  0  0  0  0  0
    9.4359   16.4639   21.3189 N   0  0  0  0  0  0  0  0  0  0  0  0
    9.1194   16.9292   20.1400 C   0  0  0  0  0  0  0  0  0  0  0  0
    9.6294   16.2127   19.1124 O   0  0  0  0  0  0  0  0  0  0  0  0
   10.3804   15.2718   19.7389 C   0  0  0  0  0  0  0  0  0  0  0  0
   11.2570   14.2698   19.0686 C   0  0  0  0  0  0  0  0  0  0  0  0
   12.6849   14.1454   19.4254 C   0  0  0  0  0  0  0  0  0  0  0  0
   12.2386   14.6835   18.0862 C   0  0  0  0  0  0  0  0  0  0  0  0
    9.9807   11.1591   23.4225 N   0  0  0  0  0  0  0  0  0  0  0  0
    9.2743   10.0776   23.7937 N   0  0  0  0  0  0  0  0  0  0  0  0
    9.5170    8.8276   23.1102 C   0  0  0  0  0  0  0  0  0  0  0  0
  1  2  1  0
  2  3  1  0
  3  4  2  0
  3  5  1  0
  5  6  2  0
  6  7  1  0
  7  8  2  0
  8  9  1  0
  9 10  2  0
  9 11  1  0
 11 12  1  0
 12 13  2  0
 12 14  1  0
 14 15  1  0
 15 16  1  0
 16 17  1  0
 17 18  2  0
 18 19  1  0
 19 20  1  0
 20 21  1  0
 21 22  1  0
 22 23  1  0
 11 24  2  0
 24 25  1  0
 25 26  1  0
 10  5  1  0
 20 16  2  0
 23 21  1  0
 25  8  1  0
M  END
>  <energy_score>  (1396) 
-3.14888

>  <inchikey>  (1396) 
None

>  <smiles>  (1396) 
None

>  <ref_pdb>  (1396) 
A2290a

>  <alias>  (1396) 
None

>  <HIPPO Pose ID>  (1396) 
499040

>  <name>  (1396) 
P499040

>  <HIPPO Compound ID>  (1396) 
299369

>  <ref_mols>  (1396) 
A3403a,A2290a

>  <distance_score>  (1396) 
0.932001

>  <inspiration_score>  (1396) 
None

$$$$
P499041
     RDKit          3D

 26 28  0  0  0  0  0  0  0  0999 V2000
    9.5615    8.7002   23.0269 C   0  0  0  0  0  0  0  0  0  0  0  0
    9.4206   10.0156   23.6030 N   0  0  0  0  0  0  0  0  0  0  0  0
   10.1701   11.0109   23.1058 N   0  0  0  0  0  0  0  0  0  0  0  0
    9.8433   12.0799   23.8483 C   0  0  0  0  0  0  0  0  0  0  0  0
   10.5221   13.3692   23.6687 C   0  0  0  0  0  0  0  0  0  0  0  0
   10.5337   14.1530   24.5290 O   0  0  0  0  0  0  0  0  0  0  0  0
   11.0687   13.4536   22.2411 N   0  0  0  0  0  0  0  0  0  0  0  0
   11.6592   14.5454   21.5372 C   0  0  0  0  0  0  0  0  0  0  0  0
   10.6483   15.2047   20.6688 C   0  0  0  0  0  0  0  0  0  0  0  0
   10.5452   15.1611   19.3021 C   0  0  0  0  0  0  0  0  0  0  0  0
    9.6912   16.1419   18.8976 O   0  0  0  0  0  0  0  0  0  0  0  0
    9.3082   16.7772   20.0559 C   0  0  0  0  0  0  0  0  0  0  0  0
    8.5609   18.0877   19.8896 C   0  0  0  0  0  0  0  0  0  0  0  0
    7.2557   17.9726   19.5794 F   0  0  0  0  0  0  0  0  0  0  0  0
    9.0780   18.8217   18.8641 F   0  0  0  0  0  0  0  0  0  0  0  0
    8.6186   18.8459   21.0082 F   0  0  0  0  0  0  0  0  0  0  0  0
    9.7761   16.1634   21.1380 N   0  0  0  0  0  0  0  0  0  0  0  0
    8.7863   11.7822   24.7506 C   0  0  0  0  0  0  0  0  0  0  0  0
    8.0089   12.5181   25.6676 C   0  0  0  0  0  0  0  0  0  0  0  0
    7.0061   11.8412   26.3773 C   0  0  0  0  0  0  0  0  0  0  0  0
    6.1782   12.5819   27.3279 N   0  0  0  0  0  0  0  0  0  0  0  0
    5.0451   12.1385   27.5675 O   0  0  0  0  0  0  0  0  0  0  0  0
    6.6816   13.5769   27.8672 O   0  0  0  0  0  0  0  0  0  0  0  0
    6.7923   10.4691   26.2182 C   0  0  0  0  0  0  0  0  0  0  0  0
    7.5731    9.7378   25.3205 C   0  0  0  0  0  0  0  0  0  0  0  0
    8.5462   10.4211   24.5825 C   0  0  0  0  0  0  0  0  0  0  0  0
  1  2  1  0
  2  3  1  0
  3  4  2  0
  4  5  1  0
  5  6  2  0
  5  7  1  0
  7  8  1  0
  8  9  1  0
  9 10  2  0
 10 11  1  0
 11 12  1  0
 12 13  1  0
 13 14  1  0
 13 15  1  0
 13 16  1  0
 12 17  2  0
  4 18  1  0
 18 19  2  0
 19 20  1  0
 20 21  1  0
 21 22  2  0
 21 23  1  0
 20 24  2  0
 24 25  1  0
 25 26  2  0
 26  2  1  0
 17  9  1  0
 26 18  1  0
M  CHG  2  21   1  23  -1
M  END
>  <energy_score>  (1397) 
-35.741589

>  <inchikey>  (1397) 
None

>  <smiles>  (1397) 
None

>  <ref_pdb>  (1397) 
A2290a

>  <alias>  (1397) 
None

>  <HIPPO Pose ID>  (1397) 
499041

>  <name>  (1397) 
P499041

>  <HIPPO Compound ID>  (1397) 
299370

>  <ref_mols>  (1397) 
A3403a,A2290a

>  <distance_score>  (1397) 
0.650028

>  <inspiration_score>  (1397) 
None

$$$$
P499042
     RDKit          3D

 26 29  0  0  0  0  0  0  0  0999 V2000
    8.2419   14.7902   21.8598 C   0  0  0  0  0  0  0  0  0  0  0  0
    9.5359   14.8743   21.1584 C   0  0  0  0  0  0  0  0  0  0  0  0
    9.4595   15.1932   19.8361 O   0  0  0  0  0  0  0  0  0  0  0  0
   10.7423   15.1639   19.4201 C   0  0  0  0  0  0  0  0  0  0  0  0
   11.6230   14.8706   20.3486 N   0  0  0  0  0  0  0  0  0  0  0  0
   10.8729   14.7273   21.4850 C   0  0  0  0  0  0  0  0  0  0  0  0
   11.5685   14.4681   22.7713 C   0  0  0  0  0  0  0  0  0  0  0  0
   10.7557   13.6252   23.5881 N   0  0  0  0  0  0  0  0  0  0  0  0
   10.2149   13.8340   25.0167 C   0  0  0  0  0  0  0  0  0  0  0  0
   10.4109   14.6928   25.7816 O   0  0  0  0  0  0  0  0  0  0  0  0
    9.3075   12.7212   25.2650 C   0  0  0  0  0  0  0  0  0  0  0  0
    9.6209   11.5565   24.6969 N   0  0  0  0  0  0  0  0  0  0  0  0
    8.6437   10.7290   25.0557 N   0  0  0  0  0  0  0  0  0  0  0  0
    8.6779    9.3853   24.5626 C   0  0  0  0  0  0  0  0  0  0  0  0
    9.9653    9.1110   23.8392 C   0  0  2  0  0  0  0  0  0  0  0  0
   10.0254    9.9457   22.6012 C   0  0  0  0  0  0  0  0  0  0  0  0
   10.0081    8.9600   21.6101 N   0  0  0  0  0  0  0  0  0  0  0  0
    9.4519    7.8573   22.2035 C   0  0  0  0  0  0  0  0  0  0  0  0
    8.6623    7.0507   21.7744 O   0  0  0  0  0  0  0  0  0  0  0  0
    9.9403    7.7669   23.4435 O   0  0  0  0  0  0  0  0  0  0  0  0
    7.6959   11.2878   25.8426 C   0  0  0  0  0  0  0  0  0  0  0  0
    6.5469   10.7517   26.4229 C   0  0  0  0  0  0  0  0  0  0  0  0
    5.7699   11.6288   27.1720 C   0  0  0  0  0  0  0  0  0  0  0  0
    6.1310   12.9695   27.3189 C   0  0  0  0  0  0  0  0  0  0  0  0
    7.2924   13.4836   26.7318 C   0  0  0  0  0  0  0  0  0  0  0  0
    8.0960   12.6170   25.9853 C   0  0  0  0  0  0  0  0  0  0  0  0
  1  2  1  0
  2  3  1  0
  3  4  1  0
  4  5  2  0
  5  6  1  0
  6  7  1  0
  7  8  1  0
  8  9  1  0
  9 10  2  0
  9 11  1  0
 11 12  2  0
 12 13  1  0
 13 14  1  0
 15 14  1  6
 15 16  1  0
 16 17  1  0
 17 18  1  0
 18 19  2  0
 18 20  1  0
 13 21  1  0
 21 22  2  0
 22 23  1  0
 23 24  2  0
 24 25  1  0
 25 26  2  0
  6  2  2  0
 26 11  1  0
 20 15  1  0
 26 21  1  0
M  END
>  <energy_score>  (1398) 
-18.638568

>  <inchikey>  (1398) 
None

>  <smiles>  (1398) 
None

>  <ref_pdb>  (1398) 
A2290a

>  <alias>  (1398) 
None

>  <HIPPO Pose ID>  (1398) 
499042

>  <name>  (1398) 
P499042

>  <HIPPO Compound ID>  (1398) 
299372

>  <ref_mols>  (1398) 
A3403a,A2290a

>  <distance_score>  (1398) 
1.811904

>  <inspiration_score>  (1398) 
None

$$$$
P499043
     RDKit          3D

 26 29  0  0  0  0  0  0  0  0999 V2000
   11.7520   14.4202   18.6578 C   0  0  0  0  0  0  0  0  0  0  0  0
   10.9131   14.9946   19.7020 C   0  0  0  0  0  0  0  0  0  0  0  0
    9.8905   15.8043   19.2901 O   0  0  0  0  0  0  0  0  0  0  0  0
    9.3767   16.2806   20.4477 C   0  0  0  0  0  0  0  0  0  0  0  0
    9.8995   15.7547   21.5251 N   0  0  0  0  0  0  0  0  0  0  0  0
   10.9720   15.0358   21.0747 C   0  0  0  0  0  0  0  0  0  0  0  0
   11.9834   14.5130   22.0295 C   0  0  0  0  0  0  0  0  0  0  0  0
   11.2695   13.6997   22.9586 N   0  0  0  0  0  0  0  0  0  0  0  0
   11.0030   13.8968   24.4654 C   0  0  0  0  0  0  0  0  0  0  0  0
   11.3900   14.7158   25.2018 O   0  0  0  0  0  0  0  0  0  0  0  0
   10.0387   12.8696   24.8228 C   0  0  0  0  0  0  0  0  0  0  0  0
   10.2594   11.6816   24.2668 N   0  0  0  0  0  0  0  0  0  0  0  0
    9.1898   10.9721   24.5618 N   0  0  0  0  0  0  0  0  0  0  0  0
    9.0518    9.6989   23.9409 C   0  0  0  0  0  0  0  0  0  0  0  0
   10.1625    9.4335   22.9245 C   0  0  1  0  0  0  0  0  0  0  0  0
   11.0189    8.2874   23.3255 C   0  0  0  0  0  0  0  0  0  0  0  0
   10.0429    7.2859   23.2816 N   0  0  0  0  0  0  0  0  0  0  0  0
    9.2180    7.6192   22.2418 C   0  0  0  0  0  0  0  0  0  0  0  0
    8.3881    6.8923   21.7564 O   0  0  0  0  0  0  0  0  0  0  0  0
    9.5508    8.8503   21.8110 O   0  0  0  0  0  0  0  0  0  0  0  0
    8.3214   11.5667   25.4131 C   0  0  0  0  0  0  0  0  0  0  0  0
    7.1426   11.1033   26.0040 C   0  0  0  0  0  0  0  0  0  0  0  0
    6.4370   12.0178   26.7779 C   0  0  0  0  0  0  0  0  0  0  0  0
    6.8944   13.3277   26.9325 C   0  0  0  0  0  0  0  0  0  0  0  0
    8.0846   13.7678   26.3320 C   0  0  0  0  0  0  0  0  0  0  0  0
    8.8292   12.8580   25.5699 C   0  0  0  0  0  0  0  0  0  0  0  0
  1  2  1  0
  2  3  1  0
  3  4  1  0
  4  5  2  0
  5  6  1  0
  6  7  1  0
  7  8  1  0
  8  9  1  0
  9 10  2  0
  9 11  1  0
 11 12  2  0
 12 13  1  0
 13 14  1  0
 15 14  1  1
 15 16  1  0
 16 17  1  0
 17 18  1  0
 18 19  2  0
 18 20  1  0
 13 21  1  0
 21 22  2  0
 22 23  1  0
 23 24  2  0
 24 25  1  0
 25 26  2  0
  6  2  2  0
 26 11  1  0
 20 15  1  0
 26 21  1  0
M  END
>  <energy_score>  (1399) 
-6.325599

>  <inchikey>  (1399) 
None

>  <smiles>  (1399) 
None

>  <ref_pdb>  (1399) 
A2290a

>  <alias>  (1399) 
None

>  <HIPPO Pose ID>  (1399) 
499043

>  <name>  (1399) 
P499043

>  <HIPPO Compound ID>  (1399) 
299372

>  <ref_mols>  (1399) 
A3403a,A2290a

>  <distance_score>  (1399) 
1.321535

>  <inspiration_score>  (1399) 
None

$$$$
P499044
     RDKit          3D

 27 30  0  0  0  0  0  0  0  0999 V2000
   13.1780   14.9405   21.5235 C   0  0  0  0  0  0  0  0  0  0  0  0
   12.2586   14.4846   22.6103 C   0  0  0  0  0  0  0  0  0  0  0  0
   10.9894   13.8834   22.0583 C   0  0  1  0  0  0  0  0  0  0  0  0
   10.1354   13.4625   23.1353 N   0  0  0  0  0  0  0  0  0  0  0  0
   10.1957   13.7794   24.6480 C   0  0  0  0  0  0  0  0  0  0  0  0
   10.9020   14.4935   25.2448 O   0  0  0  0  0  0  0  0  0  0  0  0
    9.2336   12.9197   25.2853 C   0  0  0  0  0  0  0  0  0  0  0  0
    9.5328   11.6233   25.2251 N   0  0  0  0  0  0  0  0  0  0  0  0
    8.4154   11.0224   25.5942 N   0  0  0  0  0  0  0  0  0  0  0  0
    8.1684    9.7304   25.0568 C   0  0  0  0  0  0  0  0  0  0  0  0
    8.7210    9.6917   23.6873 C   0  0  1  0  0  0  0  0  0  0  0  0
   10.1928    9.6095   23.4549 C   0  0  0  0  0  0  0  0  0  0  0  0
   10.2340    8.7348   22.3560 N   0  0  0  0  0  0  0  0  0  0  0  0
    9.1128    7.9644   22.3821 C   0  0  0  0  0  0  0  0  0  0  0  0
    8.8493    6.9403   21.8074 O   0  0  0  0  0  0  0  0  0  0  0  0
    8.2136    8.4878   23.2152 O   0  0  0  0  0  0  0  0  0  0  0  0
    7.4900   11.8435   26.1376 C   0  0  0  0  0  0  0  0  0  0  0  0
    6.2530   11.5656   26.7135 C   0  0  0  0  0  0  0  0  0  0  0  0
    5.4898   12.6664   27.0738 C   0  0  0  0  0  0  0  0  0  0  0  0
    5.9458   13.9657   26.8406 C   0  0  0  0  0  0  0  0  0  0  0  0
    7.1891   14.2186   26.2473 C   0  0  0  0  0  0  0  0  0  0  0  0
    7.9867   13.1262   25.9058 C   0  0  0  0  0  0  0  0  0  0  0  0
   10.2885   14.7691   21.0830 C   0  0  0  0  0  0  0  0  0  0  0  0
   10.5270   14.9436   19.7355 C   0  0  0  0  0  0  0  0  0  0  0  0
    9.8346   16.0383   19.3160 O   0  0  0  0  0  0  0  0  0  0  0  0
    9.2030   16.4667   20.4361 C   0  0  0  0  0  0  0  0  0  0  0  0
    9.3523   15.6829   21.4777 N   0  0  0  0  0  0  0  0  0  0  0  0
  1  2  1  0
  3  2  1  1
  3  4  1  0
  4  5  1  0
  5  6  2  0
  5  7  1  0
  7  8  2  0
  8  9  1  0
  9 10  1  0
 11 10  1  1
 11 12  1  0
 12 13  1  0
 13 14  1  0
 14 15  2  0
 14 16  1  0
  9 17  1  0
 17 18  2  0
 18 19  1  0
 19 20  2  0
 20 21  1  0
 21 22  2  0
  3 23  1  0
 23 24  2  0
 24 25  1  0
 25 26  1  0
 26 27  2  0
 22  7  1  0
 27 23  1  0
 16 11  1  0
 22 17  1  0
M  END
>  <energy_score>  (1400) 
-17.579014

>  <inchikey>  (1400) 
None

>  <smiles>  (1400) 
None

>  <ref_pdb>  (1400) 
A2290a

>  <alias>  (1400) 
None

>  <HIPPO Pose ID>  (1400) 
499044

>  <name>  (1400) 
P499044

>  <HIPPO Compound ID>  (1400) 
299384

>  <ref_mols>  (1400) 
A3403a,A2290a

>  <distance_score>  (1400) 
1.883859

>  <inspiration_score>  (1400) 
None

$$$$
P499045
     RDKit          3D

 27 30  0  0  0  0  0  0  0  0999 V2000
    8.5546    6.9452   21.7927 O   0  0  0  0  0  0  0  0  0  0  0  0
    9.3751    7.7138   22.2378 C   0  0  0  0  0  0  0  0  0  0  0  0
    9.9200    8.7696   21.5991 N   0  0  0  0  0  0  0  0  0  0  0  0
   10.0411    9.7986   22.5346 C   0  0  0  0  0  0  0  0  0  0  0  0
   10.0229    9.0123   23.8080 C   0  0  1  0  0  0  0  0  0  0  0  0
    8.7602    9.3217   24.5654 C   0  0  0  0  0  0  0  0  0  0  0  0
    8.7417   10.6616   25.0600 N   0  0  0  0  0  0  0  0  0  0  0  0
    9.6692   11.5129   24.6292 N   0  0  0  0  0  0  0  0  0  0  0  0
    9.0742   12.6973   24.7316 C   0  0  0  0  0  0  0  0  0  0  0  0
    9.6132   13.8058   23.9738 C   0  0  0  0  0  0  0  0  0  0  0  0
   10.6546   14.2679   24.2311 O   0  0  0  0  0  0  0  0  0  0  0  0
    8.5891   14.1866   22.8754 N   0  0  0  0  0  0  0  0  0  0  0  0
    8.6713   15.0890   21.8775 N   0  0  0  0  0  0  0  0  0  0  0  0
    9.7507   15.2872   20.7915 C   0  0  0  0  0  0  0  0  0  0  0  0
   10.6968   14.6546   20.5429 O   0  0  0  0  0  0  0  0  0  0  0  0
    9.3748   16.4973   20.0774 C   0  0  0  0  0  0  0  0  0  0  0  0
    9.7065   16.8925   18.8068 C   0  0  0  0  0  0  0  0  0  0  0  0
    9.0186   18.0364   18.5274 O   0  0  0  0  0  0  0  0  0  0  0  0
    8.3223   18.2996   19.6656 C   0  0  0  0  0  0  0  0  0  0  0  0
    8.4836   17.4134   20.6206 N   0  0  0  0  0  0  0  0  0  0  0  0
    7.9043   12.6076   25.5231 C   0  0  0  0  0  0  0  0  0  0  0  0
    6.9583   13.5032   26.0328 C   0  0  0  0  0  0  0  0  0  0  0  0
    5.8849   12.9839   26.7657 C   0  0  0  0  0  0  0  0  0  0  0  0
    5.7283   11.6097   26.9573 C   0  0  0  0  0  0  0  0  0  0  0  0
    6.6367   10.7005   26.4252 C   0  0  0  0  0  0  0  0  0  0  0  0
    7.7194   11.2441   25.7348 C   0  0  0  0  0  0  0  0  0  0  0  0
    9.9042    7.6513   23.4578 O   0  0  0  0  0  0  0  0  0  0  0  0
  1  2  2  0
  2  3  1  0
  3  4  1  0
  4  5  1  0
  5  6  1  1
  6  7  1  0
  7  8  1  0
  8  9  2  0
  9 10  1  0
 10 11  2  0
 10 12  1  0
 12 13  1  0
 13 14  1  0
 14 15  2  0
 14 16  1  0
 16 17  2  0
 17 18  1  0
 18 19  1  0
 19 20  2  0
  9 21  1  0
 21 22  2  0
 22 23  1  0
 23 24  2  0
 24 25  1  0
 25 26  2  0
  5 27  1  0
 27  2  1  0
 26  7  1  0
 20 16  1  0
 26 21  1  0
M  END
>  <energy_score>  (1401) 
-9.817873

>  <inchikey>  (1401) 
None

>  <smiles>  (1401) 
None

>  <ref_pdb>  (1401) 
A2290a

>  <alias>  (1401) 
None

>  <HIPPO Pose ID>  (1401) 
499045

>  <name>  (1401) 
P499045

>  <HIPPO Compound ID>  (1401) 
299386

>  <ref_mols>  (1401) 
A3403a,A2290a

>  <distance_score>  (1401) 
1.831257

>  <inspiration_score>  (1401) 
None

$$$$
P499046
     RDKit          3D

 27 31  0  0  0  0  0  0  0  0999 V2000
    8.8727    6.7426   21.9962 O   0  0  0  0  0  0  0  0  0  0  0  0
    9.1752    7.7748   22.5381 C   0  0  0  0  0  0  0  0  0  0  0  0
   10.4001    8.2153   22.9108 N   0  0  0  0  0  0  0  0  0  0  0  0
   10.3052    9.5954   23.1127 C   0  0  0  0  0  0  0  0  0  0  0  0
    8.8606    9.7817   23.4110 C   0  0  2  0  0  0  0  0  0  0  0  0
    8.4306    9.8176   24.8232 C   0  0  0  0  0  0  0  0  0  0  0  0
    8.7411   11.1230   25.3133 N   0  0  0  0  0  0  0  0  0  0  0  0
    9.8294   11.7228   24.8354 N   0  0  0  0  0  0  0  0  0  0  0  0
    9.6086   13.0218   25.0208 C   0  0  0  0  0  0  0  0  0  0  0  0
   10.5867   13.9151   24.4204 C   0  0  0  0  0  0  0  0  0  0  0  0
   11.2995   14.5815   25.0661 O   0  0  0  0  0  0  0  0  0  0  0  0
   10.5284   13.6992   22.8849 N   0  0  0  0  0  0  0  0  0  0  0  0
   11.2590   14.3195   21.8386 C   0  0  0  0  0  0  0  0  0  0  0  0
   10.4137   15.1794   20.8442 C   0  0  0  0  0  0  0  0  0  0  0  0
   10.4935   15.2014   19.4746 C   0  0  0  0  0  0  0  0  0  0  0  0
    9.7280   16.2412   19.0320 O   0  0  0  0  0  0  0  0  0  0  0  0
    9.2161   16.7733   20.1711 C   0  0  0  0  0  0  0  0  0  0  0  0
    9.5270   16.1210   21.2635 N   0  0  0  0  0  0  0  0  0  0  0  0
   12.4066   13.5483   21.2442 C   0  0  0  0  0  0  0  0  0  0  0  0
   12.6862   14.7352   22.0765 C   0  0  0  0  0  0  0  0  0  0  0  0
    8.4015   13.2249   25.7369 C   0  0  0  0  0  0  0  0  0  0  0  0
    7.6623   14.3154   26.2022 C   0  0  0  0  0  0  0  0  0  0  0  0
    6.4456   14.0709   26.8560 C   0  0  0  0  0  0  0  0  0  0  0  0
    5.9577   12.7777   27.0444 C   0  0  0  0  0  0  0  0  0  0  0  0
    6.6645   11.6792   26.5808 C   0  0  0  0  0  0  0  0  0  0  0  0
    7.8727   11.9492   25.9371 C   0  0  0  0  0  0  0  0  0  0  0  0
    8.2362    8.6459   22.9053 O   0  0  0  0  0  0  0  0  0  0  0  0
  1  2  2  0
  2  3  1  0
  3  4  1  0
  4  5  1  0
  5  6  1  1
  6  7  1  0
  7  8  1  0
  8  9  2  0
  9 10  1  0
 10 11  2  0
 10 12  1  0
 12 13  1  0
 13 14  1  0
 14 15  2  0
 15 16  1  0
 16 17  1  0
 17 18  2  0
 13 19  1  0
 19 20  1  0
  9 21  1  0
 21 22  2  0
 22 23  1  0
 23 24  2  0
 24 25  1  0
 25 26  2  0
  5 27  1  0
 27  2  1  0
 26  7  1  0
 20 13  1  0
 26 21  1  0
 18 14  1  0
M  END
>  <energy_score>  (1402) 
-15.428202

>  <inchikey>  (1402) 
None

>  <smiles>  (1402) 
None

>  <ref_pdb>  (1402) 
A2290a

>  <alias>  (1402) 
None

>  <HIPPO Pose ID>  (1402) 
499046

>  <name>  (1402) 
P499046

>  <HIPPO Compound ID>  (1402) 
299389

>  <ref_mols>  (1402) 
A3403a,A2290a

>  <distance_score>  (1402) 
1.693273

>  <inspiration_score>  (1402) 
None

$$$$
P499047
     RDKit          3D

 27 30  0  0  0  0  0  0  0  0999 V2000
    9.4273    8.7210   23.1119 C   0  0  0  0  0  0  0  0  0  0  0  0
    9.3252    9.9866   23.7986 N   0  0  0  0  0  0  0  0  0  0  0  0
   10.1936   10.9516   23.4687 N   0  0  0  0  0  0  0  0  0  0  0  0
    9.8419   11.9980   24.2358 C   0  0  0  0  0  0  0  0  0  0  0  0
   10.6228   13.2354   24.1895 C   0  0  0  0  0  0  0  0  0  0  0  0
   10.5667   14.0432   25.0245 O   0  0  0  0  0  0  0  0  0  0  0  0
   11.4092   13.2155   22.8835 N   0  0  0  0  0  0  0  0  0  0  0  0
   12.2155   14.2115   22.2782 C   0  0  0  0  0  0  0  0  0  0  0  0
   11.4780   14.6801   21.1047 C   0  0  0  0  0  0  0  0  0  0  0  0
   11.7072   14.4398   19.7776 C   0  0  0  0  0  0  0  0  0  0  0  0
   10.7869   15.1205   19.0656 O   0  0  0  0  0  0  0  0  0  0  0  0
   10.0831   15.8210   20.0039 C   0  0  0  0  0  0  0  0  0  0  0  0
    9.2791   16.9385   19.6853 C   0  0  0  0  0  0  0  0  0  0  0  0
    8.6607   17.7916   20.5677 C   0  0  0  0  0  0  0  0  0  0  0  0
    7.9163   18.7821   19.9092 C   0  0  0  0  0  0  0  0  0  0  0  0
    7.8956   18.5592   18.5664 C   0  0  0  0  0  0  0  0  0  0  0  0
    9.0403   17.4152   18.0701 S   0  0  0  0  0  0  0  0  0  0  0  0
   10.3886   15.4969   21.2443 N   0  0  0  0  0  0  0  0  0  0  0  0
    8.6918   11.7185   25.0085 C   0  0  0  0  0  0  0  0  0  0  0  0
    7.8755   12.4487   25.8936 C   0  0  0  0  0  0  0  0  0  0  0  0
    6.8048   11.7818   26.5039 C   0  0  0  0  0  0  0  0  0  0  0  0
    5.9342   12.5153   27.4212 N   0  0  0  0  0  0  0  0  0  0  0  0
    4.7730   12.1036   27.5638 O   0  0  0  0  0  0  0  0  0  0  0  0
    6.4257   13.4782   28.0266 O   0  0  0  0  0  0  0  0  0  0  0  0
    6.5635   10.4243   26.2791 C   0  0  0  0  0  0  0  0  0  0  0  0
    7.3739    9.7045   25.3983 C   0  0  0  0  0  0  0  0  0  0  0  0
    8.4124   10.3786   24.7501 C   0  0  0  0  0  0  0  0  0  0  0  0
  1  2  1  0
  2  3  1  0
  3  4  2  0
  4  5  1  0
  5  6  2  0
  5  7  1  0
  7  8  1  0
  8  9  1  0
  9 10  2  0
 10 11  1  0
 11 12  1  0
 12 13  1  0
 13 14  2  0
 14 15  1  0
 15 16  2  0
 16 17  1  0
 12 18  2  0
  4 19  1  0
 19 20  2  0
 20 21  1  0
 21 22  1  0
 22 23  2  0
 22 24  1  0
 21 25  2  0
 25 26  1  0
 26 27  2  0
 27  2  1  0
 18  9  1  0
 27 19  1  0
 17 13  1  0
M  CHG  2  22   1  24  -1
M  END
>  <energy_score>  (1403) 
-63.249163

>  <inchikey>  (1403) 
None

>  <smiles>  (1403) 
None

>  <ref_pdb>  (1403) 
A2290a

>  <alias>  (1403) 
None

>  <HIPPO Pose ID>  (1403) 
499047

>  <name>  (1403) 
P499047

>  <HIPPO Compound ID>  (1403) 
299393

>  <ref_mols>  (1403) 
A3403a,A2290a

>  <distance_score>  (1403) 
0.924154

>  <inspiration_score>  (1403) 
None

$$$$
P499048
     RDKit          3D

 27 30  0  0  0  0  0  0  0  0999 V2000
    4.0480   12.5301   28.6607 C   0  0  0  0  0  0  0  0  0  0  0  0
    4.8956   11.8612   27.7272 O   0  0  0  0  0  0  0  0  0  0  0  0
    6.1156   12.4380   27.5869 C   0  0  0  0  0  0  0  0  0  0  0  0
    6.5271   13.4127   28.1959 O   0  0  0  0  0  0  0  0  0  0  0  0
    6.9160   11.7127   26.5713 C   0  0  0  0  0  0  0  0  0  0  0  0
    6.7022   10.3591   26.3014 C   0  0  0  0  0  0  0  0  0  0  0  0
    7.4892    9.6826   25.3644 C   0  0  0  0  0  0  0  0  0  0  0  0
    8.4825   10.3979   24.6914 C   0  0  0  0  0  0  0  0  0  0  0  0
    8.7274   11.7396   24.9603 C   0  0  0  0  0  0  0  0  0  0  0  0
    7.9374   12.4133   25.9122 C   0  0  0  0  0  0  0  0  0  0  0  0
    9.7992   12.0898   24.1036 C   0  0  0  0  0  0  0  0  0  0  0  0
   10.4623   13.3914   24.0005 C   0  0  0  0  0  0  0  0  0  0  0  0
   10.5505   14.1051   24.9158 O   0  0  0  0  0  0  0  0  0  0  0  0
   10.8684   13.5955   22.5416 N   0  0  0  0  0  0  0  0  0  0  0  0
   11.5513   14.6748   21.9136 C   0  0  0  0  0  0  0  0  0  0  0  0
   10.7039   15.1924   20.8178 C   0  0  0  0  0  0  0  0  0  0  0  0
    9.7507   16.1745   20.9933 N   0  0  0  0  0  0  0  0  0  0  0  0
    9.4437   16.5526   19.7648 C   0  0  0  0  0  0  0  0  0  0  0  0
    8.9019   17.9375   19.3540 C   0  0  0  0  0  0  0  0  0  0  0  0
    8.4380   18.7627   20.5157 C   0  0  0  0  0  0  0  0  0  0  0  0
    7.5295   18.4850   19.3998 C   0  0  0  0  0  0  0  0  0  0  0  0
    9.9662   15.7595   18.8101 O   0  0  0  0  0  0  0  0  0  0  0  0
   10.8439   14.9786   19.4731 C   0  0  0  0  0  0  0  0  0  0  0  0
   11.7861   14.2778   18.6263 C   0  0  0  0  0  0  0  0  0  0  0  0
   10.1571   11.0679   23.3077 N   0  0  0  0  0  0  0  0  0  0  0  0
    9.3740   10.0501   23.7047 N   0  0  0  0  0  0  0  0  0  0  0  0
    9.5275    8.7699   23.0549 C   0  0  0  0  0  0  0  0  0  0  0  0
  1  2  1  0
  2  3  1  0
  3  4  2  0
  3  5  1  0
  5  6  2  0
  6  7  1  0
  7  8  2  0
  8  9  1  0
  9 10  2  0
  9 11  1  0
 11 12  1  0
 12 13  2  0
 12 14  1  0
 14 15  1  0
 15 16  1  0
 16 17  1  0
 17 18  2  0
 18 19  1  0
 19 20  1  0
 20 21  1  0
 18 22  1  0
 22 23  1  0
 23 24  1  0
 11 25  2  0
 25 26  1  0
 26 27  1  0
 10  5  1  0
 23 16  2  0
 26  8  1  0
 21 19  1  0
M  END
>  <energy_score>  (1404) 
-6.566787

>  <inchikey>  (1404) 
None

>  <smiles>  (1404) 
None

>  <ref_pdb>  (1404) 
A2290a

>  <alias>  (1404) 
None

>  <HIPPO Pose ID>  (1404) 
499048

>  <name>  (1404) 
P499048

>  <HIPPO Compound ID>  (1404) 
299396

>  <ref_mols>  (1404) 
A3403a,A2290a

>  <distance_score>  (1404) 
0.844627

>  <inspiration_score>  (1404) 
None

$$$$
P499049
     RDKit          3D

 27 30  0  0  0  0  0  0  0  0999 V2000
   10.5744   14.0879   25.0860 O   0  0  0  0  0  0  0  0  0  0  0  0
   10.7105   13.2644   24.2761 C   0  0  0  0  0  0  0  0  0  0  0  0
   11.5477   13.2590   23.0010 N   0  0  0  0  0  0  0  0  0  0  0  0
   12.3162   14.2846   22.4006 C   0  0  0  0  0  0  0  0  0  0  0  0
   11.5994   14.6600   21.1854 C   0  0  0  0  0  0  0  0  0  0  0  0
   11.8703   14.3828   19.8744 C   0  0  0  0  0  0  0  0  0  0  0  0
   10.9388   15.0017   19.1175 O   0  0  0  0  0  0  0  0  0  0  0  0
   10.1851   15.6975   20.0234 C   0  0  0  0  0  0  0  0  0  0  0  0
    9.3806   16.7922   19.6440 C   0  0  0  0  0  0  0  0  0  0  0  0
    9.2034   17.2461   18.3644 C   0  0  0  0  0  0  0  0  0  0  0  0
    8.2381   18.2623   18.3231 C   0  0  0  0  0  0  0  0  0  0  0  0
    7.8595   18.6897   19.5672 C   0  0  0  0  0  0  0  0  0  0  0  0
    8.5834   17.7596   20.7843 S   0  0  0  0  0  0  0  0  0  0  0  0
   10.4643   15.4107   21.2756 N   0  0  0  0  0  0  0  0  0  0  0  0
    9.9600   12.0076   24.2850 C   0  0  0  0  0  0  0  0  0  0  0  0
   10.3522   10.9950   23.4944 N   0  0  0  0  0  0  0  0  0  0  0  0
    9.4819    9.9910   23.7571 N   0  0  0  0  0  0  0  0  0  0  0  0
    9.5643    8.7438   22.9822 C   0  0  0  0  0  0  0  0  0  0  0  0
   10.3934    7.8274   23.5327 F   0  0  0  0  0  0  0  0  0  0  0  0
    8.3539    8.1622   22.8695 F   0  0  0  0  0  0  0  0  0  0  0  0
   10.0288    8.9648   21.7295 F   0  0  0  0  0  0  0  0  0  0  0  0
    8.5503   10.3458   24.7167 C   0  0  0  0  0  0  0  0  0  0  0  0
    7.5042    9.6519   25.3307 C   0  0  0  0  0  0  0  0  0  0  0  0
    6.6855   10.3383   26.2332 C   0  0  0  0  0  0  0  0  0  0  0  0
    6.9020   11.6821   26.5163 C   0  0  0  0  0  0  0  0  0  0  0  0
    7.9627   12.3655   25.9204 C   0  0  0  0  0  0  0  0  0  0  0  0
    8.8056   11.6799   25.0253 C   0  0  0  0  0  0  0  0  0  0  0  0
  1  2  2  0
  2  3  1  0
  3  4  1  0
  4  5  1  0
  5  6  2  0
  6  7  1  0
  7  8  1  0
  8  9  1  0
  9 10  2  0
 10 11  1  0
 11 12  2  0
 12 13  1  0
  8 14  2  0
  2 15  1  0
 15 16  2  0
 16 17  1  0
 17 18  1  0
 18 19  1  0
 18 20  1  0
 18 21  1  0
 17 22  1  0
 22 23  2  0
 23 24  1  0
 24 25  2  0
 25 26  1  0
 26 27  2  0
 14  5  1  0
 27 15  1  0
 13  9  1  0
 27 22  1  0
M  END
>  <energy_score>  (1405) 
-40.985051

>  <inchikey>  (1405) 
None

>  <smiles>  (1405) 
None

>  <ref_pdb>  (1405) 
A2290a

>  <alias>  (1405) 
None

>  <HIPPO Pose ID>  (1405) 
499049

>  <name>  (1405) 
P499049

>  <HIPPO Compound ID>  (1405) 
299401

>  <ref_mols>  (1405) 
A3403a,A2290a

>  <distance_score>  (1405) 
1.038835

>  <inspiration_score>  (1405) 
None

$$$$
P499050
     RDKit          3D

 27 29  0  0  0  0  0  0  0  0999 V2000
    4.0991   12.7235   28.6119 C   0  0  0  0  0  0  0  0  0  0  0  0
    4.9299   12.0061   27.6992 O   0  0  0  0  0  0  0  0  0  0  0  0
    6.1664   12.5444   27.5493 C   0  0  0  0  0  0  0  0  0  0  0  0
    6.6061   13.5174   28.1411 O   0  0  0  0  0  0  0  0  0  0  0  0
    6.9468   11.7767   26.5493 C   0  0  0  0  0  0  0  0  0  0  0  0
    6.6884   10.4270   26.2982 C   0  0  0  0  0  0  0  0  0  0  0  0
    7.4555    9.7102   25.3748 C   0  0  0  0  0  0  0  0  0  0  0  0
    8.4774   10.3811   24.6983 C   0  0  0  0  0  0  0  0  0  0  0  0
    8.7694   11.7177   24.9517 C   0  0  0  0  0  0  0  0  0  0  0  0
    7.9955   12.4322   25.8867 C   0  0  0  0  0  0  0  0  0  0  0  0
    9.8671   12.0132   24.1078 C   0  0  0  0  0  0  0  0  0  0  0  0
   10.6026   13.2746   23.9918 C   0  0  0  0  0  0  0  0  0  0  0  0
   10.6324   14.0554   24.8546 O   0  0  0  0  0  0  0  0  0  0  0  0
   11.1992   13.3276   22.5857 N   0  0  0  0  0  0  0  0  0  0  0  0
   11.8733   14.3774   21.9081 C   0  0  0  0  0  0  0  0  0  0  0  0
   10.8917   15.0047   20.9941 C   0  0  0  0  0  0  0  0  0  0  0  0
    9.8669   15.7730   21.4688 N   0  0  0  0  0  0  0  0  0  0  0  0
    9.3638   16.3495   20.4067 C   0  0  0  0  0  0  0  0  0  0  0  0
    9.8640   15.8922   19.2321 O   0  0  0  0  0  0  0  0  0  0  0  0
   10.8476   15.0199   19.6222 C   0  0  0  0  0  0  0  0  0  0  0  0
   11.7074   14.4153   18.6152 C   0  0  0  0  0  0  0  0  0  0  0  0
   11.0892   13.4594   17.9054 F   0  0  0  0  0  0  0  0  0  0  0  0
   12.7750   13.8021   19.1981 F   0  0  0  0  0  0  0  0  0  0  0  0
   12.2334   15.2970   17.7496 F   0  0  0  0  0  0  0  0  0  0  0  0
   10.1916   10.9669   23.3297 N   0  0  0  0  0  0  0  0  0  0  0  0
    9.3600    9.9898   23.7198 N   0  0  0  0  0  0  0  0  0  0  0  0
    9.4626    8.7076   23.0654 C   0  0  0  0  0  0  0  0  0  0  0  0
  1  2  1  0
  2  3  1  0
  3  4  2  0
  3  5  1  0
  5  6  2  0
  6  7  1  0
  7  8  2  0
  8  9  1  0
  9 10  2  0
  9 11  1  0
 11 12  1  0
 12 13  2  0
 12 14  1  0
 14 15  1  0
 15 16  1  0
 16 17  1  0
 17 18  2  0
 18 19  1  0
 19 20  1  0
 20 21  1  0
 21 22  1  0
 21 23  1  0
 21 24  1  0
 11 25  2  0
 25 26  1  0
 26 27  1  0
 10  5  1  0
 20 16  2  0
 26  8  1  0
M  END
>  <energy_score>  (1406) 
-20.181736

>  <inchikey>  (1406) 
None

>  <smiles>  (1406) 
None

>  <ref_pdb>  (1406) 
A2290a

>  <alias>  (1406) 
None

>  <HIPPO Pose ID>  (1406) 
499050

>  <name>  (1406) 
P499050

>  <HIPPO Compound ID>  (1406) 
299402

>  <ref_mols>  (1406) 
A3403a,A2290a

>  <distance_score>  (1406) 
0.853912

>  <inspiration_score>  (1406) 
None

$$$$
P499051
     RDKit          3D

 27 29  0  0  0  0  0  0  0  0999 V2000
    4.2836   12.7901   28.6024 C   0  0  0  0  0  0  0  0  0  0  0  0
    5.0910   12.0641   27.6757 O   0  0  0  0  0  0  0  0  0  0  0  0
    6.3182   12.6086   27.4795 C   0  0  0  0  0  0  0  0  0  0  0  0
    6.7712   13.5909   28.0450 O   0  0  0  0  0  0  0  0  0  0  0  0
    7.0705   11.8333   26.4644 C   0  0  0  0  0  0  0  0  0  0  0  0
    6.8272   10.4731   26.2558 C   0  0  0  0  0  0  0  0  0  0  0  0
    7.5749    9.7472   25.3239 C   0  0  0  0  0  0  0  0  0  0  0  0
    8.5557   10.4243   24.5921 C   0  0  0  0  0  0  0  0  0  0  0  0
    8.8244   11.7749   24.7900 C   0  0  0  0  0  0  0  0  0  0  0  0
    8.0772   12.4943   25.7432 C   0  0  0  0  0  0  0  0  0  0  0  0
    9.8682   12.0784   23.8754 C   0  0  0  0  0  0  0  0  0  0  0  0
   10.5534   13.3652   23.6937 C   0  0  0  0  0  0  0  0  0  0  0  0
   10.5930   14.1440   24.5584 O   0  0  0  0  0  0  0  0  0  0  0  0
   11.0706   13.4516   22.2540 N   0  0  0  0  0  0  0  0  0  0  0  0
   11.6588   14.5400   21.5441 C   0  0  0  0  0  0  0  0  0  0  0  0
   10.6491   15.2016   20.6753 C   0  0  0  0  0  0  0  0  0  0  0  0
   10.5415   15.1510   19.3092 C   0  0  0  0  0  0  0  0  0  0  0  0
    9.6901   16.1329   18.9011 O   0  0  0  0  0  0  0  0  0  0  0  0
    9.3113   16.7748   20.0569 C   0  0  0  0  0  0  0  0  0  0  0  0
    8.5642   18.0839   19.8862 C   0  0  0  0  0  0  0  0  0  0  0  0
    7.2579   17.9728   19.5758 F   0  0  0  0  0  0  0  0  0  0  0  0
    9.0812   18.8147   18.8571 F   0  0  0  0  0  0  0  0  0  0  0  0
    8.6219   18.8491   21.0005 F   0  0  0  0  0  0  0  0  0  0  0  0
    9.7868   16.1712   21.1407 N   0  0  0  0  0  0  0  0  0  0  0  0
   10.1828   11.0150   23.1190 N   0  0  0  0  0  0  0  0  0  0  0  0
    9.4142   10.0234   23.5975 N   0  0  0  0  0  0  0  0  0  0  0  0
    9.5397    8.7118   23.0085 C   0  0  0  0  0  0  0  0  0  0  0  0
  1  2  1  0
  2  3  1  0
  3  4  2  0
  3  5  1  0
  5  6  2  0
  6  7  1  0
  7  8  2  0
  8  9  1  0
  9 10  2  0
  9 11  1  0
 11 12  1  0
 12 13  2  0
 12 14  1  0
 14 15  1  0
 15 16  1  0
 16 17  2  0
 17 18  1  0
 18 19  1  0
 19 20  1  0
 20 21  1  0
 20 22  1  0
 20 23  1  0
 19 24  2  0
 11 25  2  0
 25 26  1  0
 26 27  1  0
 10  5  1  0
 24 16  1  0
 26  8  1  0
M  END
>  <energy_score>  (1407) 
-26.11738

>  <inchikey>  (1407) 
None

>  <smiles>  (1407) 
None

>  <ref_pdb>  (1407) 
A2290a

>  <alias>  (1407) 
None

>  <HIPPO Pose ID>  (1407) 
499051

>  <name>  (1407) 
P499051

>  <HIPPO Compound ID>  (1407) 
299403

>  <ref_mols>  (1407) 
A3403a,A2290a

>  <distance_score>  (1407) 
0.670637

>  <inspiration_score>  (1407) 
None

$$$$
P499052
     RDKit          3D

 27 29  0  0  0  0  0  0  0  0999 V2000
    3.9232   12.5598   28.6579 C   0  0  0  0  0  0  0  0  0  0  0  0
    4.7805   11.8864   27.7365 O   0  0  0  0  0  0  0  0  0  0  0  0
    6.0126   12.4445   27.6298 C   0  0  0  0  0  0  0  0  0  0  0  0
    6.4257   13.4061   28.2581 O   0  0  0  0  0  0  0  0  0  0  0  0
    6.8242   11.7168   26.6247 C   0  0  0  0  0  0  0  0  0  0  0  0
    6.5927   10.3712   26.3320 C   0  0  0  0  0  0  0  0  0  0  0  0
    7.3878    9.6924   25.4036 C   0  0  0  0  0  0  0  0  0  0  0  0
    8.4118   10.3950   24.7651 C   0  0  0  0  0  0  0  0  0  0  0  0
    8.6799   11.7264   25.0651 C   0  0  0  0  0  0  0  0  0  0  0  0
    7.8770   12.4042   26.0028 C   0  0  0  0  0  0  0  0  0  0  0  0
    9.8023   12.0548   24.2700 C   0  0  0  0  0  0  0  0  0  0  0  0
   10.5475   13.3167   24.2414 C   0  0  0  0  0  0  0  0  0  0  0  0
   10.5253   14.0747   25.1236 O   0  0  0  0  0  0  0  0  0  0  0  0
   11.2610   13.3859   22.8954 N   0  0  0  0  0  0  0  0  0  0  0  0
   12.0183   14.4307   22.3052 C   0  0  0  0  0  0  0  0  0  0  0  0
   11.4139   14.7263   21.0009 C   0  0  0  0  0  0  0  0  0  0  0  0
   11.8712   14.3825   19.7588 C   0  0  0  0  0  0  0  0  0  0  0  0
   11.0756   14.9600   18.8379 O   0  0  0  0  0  0  0  0  0  0  0  0
   10.1692   15.6751   19.5686 C   0  0  0  0  0  0  0  0  0  0  0  0
    9.4776   16.7504   18.7955 C   0  0  0  0  0  0  0  0  0  0  0  0
    8.4836   17.5519   19.5112 N   0  0  0  0  0  0  0  0  0  0  0  0
    8.6485   17.7693   20.9229 C   0  0  0  0  0  0  0  0  0  0  0  0
    8.1438   18.7453   18.8073 C   0  0  0  0  0  0  0  0  0  0  0  0
   10.2731   15.4790   20.8736 N   0  0  0  0  0  0  0  0  0  0  0  0
   10.1619   11.0353   23.4683 N   0  0  0  0  0  0  0  0  0  0  0  0
    9.3196   10.0429   23.7952 N   0  0  0  0  0  0  0  0  0  0  0  0
    9.4530    8.7806   23.1073 C   0  0  0  0  0  0  0  0  0  0  0  0
  1  2  1  0
  2  3  1  0
  3  4  2  0
  3  5  1  0
  5  6  2  0
  6  7  1  0
  7  8  2  0
  8  9  1  0
  9 10  2  0
  9 11  1  0
 11 12  1  0
 12 13  2  0
 12 14  1  0
 14 15  1  0
 15 16  1  0
 16 17  2  0
 17 18  1  0
 18 19  1  0
 19 20  1  0
 20 21  1  0
 21 22  1  0
 21 23  1  0
 19 24  2  0
 11 25  2  0
 25 26  1  0
 26 27  1  0
 10  5  1  0
 24 16  1  0
 26  8  1  0
M  END
>  <energy_score>  (1408) 
-34.236554

>  <inchikey>  (1408) 
None

>  <smiles>  (1408) 
None

>  <ref_pdb>  (1408) 
A2290a

>  <alias>  (1408) 
None

>  <HIPPO Pose ID>  (1408) 
499052

>  <name>  (1408) 
P499052

>  <HIPPO Compound ID>  (1408) 
299404

>  <ref_mols>  (1408) 
A3403a,A2290a

>  <distance_score>  (1408) 
1.013971

>  <inspiration_score>  (1408) 
None

$$$$
P499053
     RDKit          3D

 27 30  0  0  0  0  0  0  0  0999 V2000
   12.1657   14.0756   18.8244 C   0  0  0  0  0  0  0  0  0  0  0  0
   11.3654   14.6115   19.8784 C   0  0  0  0  0  0  0  0  0  0  0  0
   10.2835   15.2005   19.3876 O   0  0  0  0  0  0  0  0  0  0  0  0
    9.8605   15.9534   20.4059 C   0  0  0  0  0  0  0  0  0  0  0  0
    9.1705   17.0873   19.9107 C   0  0  0  0  0  0  0  0  0  0  0  0
    8.5896   17.9900   20.7587 C   0  0  0  0  0  0  0  0  0  0  0  0
    7.8476   18.9923   20.2152 C   0  0  0  0  0  0  0  0  0  0  0  0
    7.5654   18.9849   18.8792 C   0  0  0  0  0  0  0  0  0  0  0  0
    8.2301   18.1640   18.0068 C   0  0  0  0  0  0  0  0  0  0  0  0
    9.1046   17.2640   18.5194 C   0  0  0  0  0  0  0  0  0  0  0  0
   10.3345   15.6017   21.5754 N   0  0  0  0  0  0  0  0  0  0  0  0
   11.3598   14.7540   21.2346 C   0  0  0  0  0  0  0  0  0  0  0  0
   12.2426   14.1688   22.2430 C   0  0  0  0  0  0  0  0  0  0  0  0
   11.4625   13.1724   22.8836 N   0  0  0  0  0  0  0  0  0  0  0  0
   10.6848   13.2126   24.1964 C   0  0  0  0  0  0  0  0  0  0  0  0
   10.6172   14.0431   25.0087 O   0  0  0  0  0  0  0  0  0  0  0  0
    9.8837   11.9864   24.2523 C   0  0  0  0  0  0  0  0  0  0  0  0
   10.1983   10.9394   23.4689 N   0  0  0  0  0  0  0  0  0  0  0  0
    9.3134    9.9909   23.8062 N   0  0  0  0  0  0  0  0  0  0  0  0
    9.3917    8.7221   23.1236 C   0  0  0  0  0  0  0  0  0  0  0  0
    8.4214   10.3947   24.7711 C   0  0  0  0  0  0  0  0  0  0  0  0
    7.3714    9.7445   25.4273 C   0  0  0  0  0  0  0  0  0  0  0  0
    6.6132   10.4777   26.3433 C   0  0  0  0  0  0  0  0  0  0  0  0
    6.9009   11.8130   26.5873 C   0  0  0  0  0  0  0  0  0  0  0  0
    6.1647   12.4859   27.4822 F   0  0  0  0  0  0  0  0  0  0  0  0
    7.9565   12.4583   25.9504 C   0  0  0  0  0  0  0  0  0  0  0  0
    8.7393   11.7245   25.0402 C   0  0  0  0  0  0  0  0  0  0  0  0
  1  2  1  0
  2  3  1  0
  3  4  1  0
  4  5  1  0
  5  6  2  0
  6  7  1  0
  7  8  2  0
  8  9  1  0
  9 10  2  0
  4 11  2  0
 11 12  1  0
 12 13  1  0
 13 14  1  0
 14 15  1  0
 15 16  2  0
 15 17  1  0
 17 18  2  0
 18 19  1  0
 19 20  1  0
 19 21  1  0
 21 22  2  0
 22 23  1  0
 23 24  2  0
 24 25  1  0
 24 26  1  0
 26 27  2  0
 12  2  2  0
 27 17  1  0
 10  5  1  0
 27 21  1  0
M  END
>  <energy_score>  (1409) 
-7.566361

>  <inchikey>  (1409) 
None

>  <smiles>  (1409) 
None

>  <ref_pdb>  (1409) 
A2290a

>  <alias>  (1409) 
None

>  <HIPPO Pose ID>  (1409) 
499053

>  <name>  (1409) 
P499053

>  <HIPPO Compound ID>  (1409) 
299407

>  <ref_mols>  (1409) 
A3403a,A2290a

>  <distance_score>  (1409) 
0.919625

>  <inspiration_score>  (1409) 
None

$$$$
P499054
     RDKit          3D

 28 31  0  0  0  0  0  0  0  0999 V2000
   11.9079   11.9834   24.2965 O   0  0  0  0  0  0  0  0  0  0  0  0
   10.9091   12.3001   23.7922 C   0  0  0  0  0  0  0  0  0  0  0  0
   10.6510   13.1927   22.5775 N   0  0  0  0  0  0  0  0  0  0  0  0
   11.5596   13.9657   21.7768 C   0  0  0  0  0  0  0  0  0  0  0  0
   10.7849   14.8152   20.8519 C   0  0  0  0  0  0  0  0  0  0  0  0
   10.8113   14.9036   19.4822 C   0  0  0  0  0  0  0  0  0  0  0  0
    9.9753   15.9134   19.1073 O   0  0  0  0  0  0  0  0  0  0  0  0
    9.5005   16.4142   20.2825 C   0  0  0  0  0  0  0  0  0  0  0  0
    8.5368   17.8277   20.3983 Cl  0  0  0  0  0  0  0  0  0  0  0  0
    9.8841   15.7303   21.3399 N   0  0  0  0  0  0  0  0  0  0  0  0
    9.6034   11.8692   24.3531 C   0  0  0  0  0  0  0  0  0  0  0  0
    9.1112   10.6138   24.2929 N   0  0  0  0  0  0  0  0  0  0  0  0
    7.9152   10.6907   24.9475 N   0  0  0  0  0  0  0  0  0  0  0  0
    7.2642    9.4678   25.4481 C   0  0  0  0  0  0  0  0  0  0  0  0
    6.1905    9.6057   26.5612 C   0  0  0  0  0  0  0  0  0  0  0  0
    6.4936   10.3379   27.7325 C   0  0  0  0  0  0  0  0  0  0  0  0
    5.6163   10.4510   28.8167 C   0  0  0  0  0  0  0  0  0  0  0  0
    4.3920    9.8106   28.7722 C   0  0  0  0  0  0  0  0  0  0  0  0
    3.3055    9.9326   30.0967 Cl  0  0  0  0  0  0  0  0  0  0  0  0
    4.0427    9.0743   27.6519 C   0  0  0  0  0  0  0  0  0  0  0  0
    4.9230    8.9732   26.5576 C   0  0  0  0  0  0  0  0  0  0  0  0
    4.3336    7.9456   25.2898 Cl  0  0  0  0  0  0  0  0  0  0  0  0
    7.5724   11.9770   25.2655 C   0  0  0  0  0  0  0  0  0  0  0  0
    6.4093   12.5455   25.7937 C   0  0  0  0  0  0  0  0  0  0  0  0
    6.4596   13.8549   26.2399 C   0  0  0  0  0  0  0  0  0  0  0  0
    7.6277   14.5892   26.1257 C   0  0  0  0  0  0  0  0  0  0  0  0
    8.7564   14.0442   25.5118 C   0  0  0  0  0  0  0  0  0  0  0  0
    8.7169   12.7229   25.0506 C   0  0  0  0  0  0  0  0  0  0  0  0
  1  2  2  0
  2  3  1  0
  3  4  1  0
  4  5  1  0
  5  6  2  0
  6  7  1  0
  7  8  1  0
  8  9  1  0
  8 10  2  0
  2 11  1  0
 11 12  2  0
 12 13  1  0
 13 14  1  0
 14 15  1  0
 15 16  2  0
 16 17  1  0
 17 18  2  0
 18 19  1  0
 18 20  1  0
 20 21  2  0
 21 22  1  0
 13 23  1  0
 23 24  2  0
 24 25  1  0
 25 26  2  0
 26 27  1  0
 27 28  2  0
 10  5  1  0
 28 11  1  0
 21 15  1  0
 28 23  1  0
M  END
>  <energy_score>  (1410) 
-5.090941

>  <inchikey>  (1410) 
None

>  <smiles>  (1410) 
None

>  <ref_pdb>  (1410) 
A2290a

>  <alias>  (1410) 
None

>  <HIPPO Pose ID>  (1410) 
499054

>  <name>  (1410) 
P499054

>  <HIPPO Compound ID>  (1410) 
299412

>  <ref_mols>  (1410) 
A3403a,A2290a

>  <distance_score>  (1410) 
1.812884

>  <inspiration_score>  (1410) 
None

$$$$
P499055
     RDKit          3D

 28 31  0  0  0  0  0  0  0  0999 V2000
    3.9577   12.6576   28.6274 C   0  0  0  0  0  0  0  0  0  0  0  0
    4.8014   11.9607   27.7103 O   0  0  0  0  0  0  0  0  0  0  0  0
    6.0443   12.4946   27.6012 C   0  0  0  0  0  0  0  0  0  0  0  0
    6.4739   13.4557   28.2187 O   0  0  0  0  0  0  0  0  0  0  0  0
    6.8430   11.7411   26.6051 C   0  0  0  0  0  0  0  0  0  0  0  0
    6.5904   10.3947   26.3328 C   0  0  0  0  0  0  0  0  0  0  0  0
    7.3714    9.6911   25.4110 C   0  0  0  0  0  0  0  0  0  0  0  0
    8.4051   10.3684   24.7610 C   0  0  0  0  0  0  0  0  0  0  0  0
    8.6968   11.6993   25.0446 C   0  0  0  0  0  0  0  0  0  0  0  0
    7.9056   12.4032   25.9728 C   0  0  0  0  0  0  0  0  0  0  0  0
    9.8294   11.9939   24.2517 C   0  0  0  0  0  0  0  0  0  0  0  0
   10.6132   13.2309   24.2082 C   0  0  0  0  0  0  0  0  0  0  0  0
   10.5686   14.0340   25.0486 O   0  0  0  0  0  0  0  0  0  0  0  0
   11.3926   13.2127   22.8970 N   0  0  0  0  0  0  0  0  0  0  0  0
   12.2040   14.2057   22.2936 C   0  0  0  0  0  0  0  0  0  0  0  0
   11.4744   14.6765   21.1158 C   0  0  0  0  0  0  0  0  0  0  0  0
   11.7105   14.4368   19.7897 C   0  0  0  0  0  0  0  0  0  0  0  0
   10.7939   15.1177   19.0728 O   0  0  0  0  0  0  0  0  0  0  0  0
   10.0855   15.8184   20.0078 C   0  0  0  0  0  0  0  0  0  0  0  0
    9.2816   16.9352   19.6858 C   0  0  0  0  0  0  0  0  0  0  0  0
    8.6607   17.7890   20.5659 C   0  0  0  0  0  0  0  0  0  0  0  0
    7.9173   18.7787   19.9047 C   0  0  0  0  0  0  0  0  0  0  0  0
    7.9007   18.5547   18.5619 C   0  0  0  0  0  0  0  0  0  0  0  0
    9.0458   17.4096   18.0696 S   0  0  0  0  0  0  0  0  0  0  0  0
   10.3862   15.4957   21.2496 N   0  0  0  0  0  0  0  0  0  0  0  0
   10.1670   10.9589   23.4612 N   0  0  0  0  0  0  0  0  0  0  0  0
    9.3067    9.9881   23.7957 N   0  0  0  0  0  0  0  0  0  0  0  0
    9.4140    8.7232   23.1090 C   0  0  0  0  0  0  0  0  0  0  0  0
  1  2  1  0
  2  3  1  0
  3  4  2  0
  3  5  1  0
  5  6  2  0
  6  7  1  0
  7  8  2  0
  8  9  1  0
  9 10  2  0
  9 11  1  0
 11 12  1  0
 12 13  2  0
 12 14  1  0
 14 15  1  0
 15 16  1  0
 16 17  2  0
 17 18  1  0
 18 19  1  0
 19 20  1  0
 20 21  2  0
 21 22  1  0
 22 23  2  0
 23 24  1  0
 19 25  2  0
 11 26  2  0
 26 27  1  0
 27 28  1  0
 10  5  1  0
 25 16  1  0
 27  8  1  0
 24 20  1  0
M  END
>  <energy_score>  (1411) 
-29.690903

>  <inchikey>  (1411) 
None

>  <smiles>  (1411) 
None

>  <ref_pdb>  (1411) 
A2290a

>  <alias>  (1411) 
None

>  <HIPPO Pose ID>  (1411) 
499055

>  <name>  (1411) 
P499055

>  <HIPPO Compound ID>  (1411) 
299421

>  <ref_mols>  (1411) 
A3403a,A2290a

>  <distance_score>  (1411) 
0.969216

>  <inspiration_score>  (1411) 
None

$$$$
P499056
     RDKit          3D

 28 31  0  0  0  0  0  0  0  0999 V2000
   10.6607   14.0589   25.0783 O   0  0  0  0  0  0  0  0  0  0  0  0
   10.7396   13.2422   24.2537 C   0  0  0  0  0  0  0  0  0  0  0  0
   11.5383   13.2216   22.9546 N   0  0  0  0  0  0  0  0  0  0  0  0
   12.3293   14.2229   22.3458 C   0  0  0  0  0  0  0  0  0  0  0  0
   11.5824   14.6474   21.1668 C   0  0  0  0  0  0  0  0  0  0  0  0
   11.8100   14.4140   19.8371 C   0  0  0  0  0  0  0  0  0  0  0  0
   10.8650   15.0742   19.1314 O   0  0  0  0  0  0  0  0  0  0  0  0
   10.1486   15.7244   20.0894 C   0  0  0  0  0  0  0  0  0  0  0  0
    9.3550   16.8313   19.6556 C   0  0  0  0  0  0  0  0  0  0  0  0
    9.1684   17.1210   18.3194 C   0  0  0  0  0  0  0  0  0  0  0  0
    8.2704   18.0913   17.9591 C   0  0  0  0  0  0  0  0  0  0  0  0
    7.6874   18.8814   18.9271 C   0  0  0  0  0  0  0  0  0  0  0  0
    8.0463   18.7487   20.2347 C   0  0  0  0  0  0  0  0  0  0  0  0
    8.7976   17.6695   20.6065 C   0  0  0  0  0  0  0  0  0  0  0  0
   10.4603   15.4070   21.3231 N   0  0  0  0  0  0  0  0  0  0  0  0
    9.9723   11.9968   24.2789 C   0  0  0  0  0  0  0  0  0  0  0  0
   10.3606   10.9719   23.5023 N   0  0  0  0  0  0  0  0  0  0  0  0
    9.4776    9.9810   23.7655 N   0  0  0  0  0  0  0  0  0  0  0  0
    9.5461    8.7333   22.9908 C   0  0  0  0  0  0  0  0  0  0  0  0
   10.0117    8.9495   21.7377 F   0  0  0  0  0  0  0  0  0  0  0  0
    8.3291    8.1663   22.8815 F   0  0  0  0  0  0  0  0  0  0  0  0
   10.3655    7.8075   23.5397 F   0  0  0  0  0  0  0  0  0  0  0  0
    8.5490   10.3501   24.7226 C   0  0  0  0  0  0  0  0  0  0  0  0
    7.4961    9.6691   25.3402 C   0  0  0  0  0  0  0  0  0  0  0  0
    6.6844   10.3687   26.2387 C   0  0  0  0  0  0  0  0  0  0  0  0
    6.9133   11.7123   26.5136 C   0  0  0  0  0  0  0  0  0  0  0  0
    7.9797   12.3831   25.9132 C   0  0  0  0  0  0  0  0  0  0  0  0
    8.8164   11.6844   25.0227 C   0  0  0  0  0  0  0  0  0  0  0  0
  1  2  2  0
  2  3  1  0
  3  4  1  0
  4  5  1  0
  5  6  2  0
  6  7  1  0
  7  8  1  0
  8  9  1  0
  9 10  2  0
 10 11  1  0
 11 12  2  0
 12 13  1  0
 13 14  2  0
  8 15  2  0
  2 16  1  0
 16 17  2  0
 17 18  1  0
 18 19  1  0
 19 20  1  0
 19 21  1  0
 19 22  1  0
 18 23  1  0
 23 24  2  0
 24 25  1  0
 25 26  2  0
 26 27  1  0
 27 28  2  0
 15  5  1  0
 28 16  1  0
 14  9  1  0
 28 23  1  0
M  END
>  <energy_score>  (1412) 
-20.508245

>  <inchikey>  (1412) 
None

>  <smiles>  (1412) 
None

>  <ref_pdb>  (1412) 
A2290a

>  <alias>  (1412) 
None

>  <HIPPO Pose ID>  (1412) 
499056

>  <name>  (1412) 
P499056

>  <HIPPO Compound ID>  (1412) 
299423

>  <ref_mols>  (1412) 
A3403a,A2290a

>  <distance_score>  (1412) 
1.017395

>  <inspiration_score>  (1412) 
None

$$$$
P499057
     RDKit          3D

 28 31  0  0  0  0  0  0  0  0999 V2000
    9.3777    8.7093   23.1314 C   0  0  0  0  0  0  0  0  0  0  0  0
    9.2872    9.9729   23.8221 N   0  0  0  0  0  0  0  0  0  0  0  0
   10.1701   10.9256   23.4986 N   0  0  0  0  0  0  0  0  0  0  0  0
    9.8304   11.9748   24.2676 C   0  0  0  0  0  0  0  0  0  0  0  0
   10.6319   13.1989   24.2273 C   0  0  0  0  0  0  0  0  0  0  0  0
   10.5276   14.0442   25.0192 O   0  0  0  0  0  0  0  0  0  0  0  0
   11.4778   13.1287   22.9609 N   0  0  0  0  0  0  0  0  0  0  0  0
   12.2982   14.1053   22.3468 C   0  0  0  0  0  0  0  0  0  0  0  0
   11.5651   14.5922   21.1809 C   0  0  0  0  0  0  0  0  0  0  0  0
   11.8104   14.3988   19.8476 C   0  0  0  0  0  0  0  0  0  0  0  0
   10.8772   15.0788   19.1482 O   0  0  0  0  0  0  0  0  0  0  0  0
   10.1556   15.7155   20.1121 C   0  0  0  0  0  0  0  0  0  0  0  0
    9.3626   16.8241   19.6771 C   0  0  0  0  0  0  0  0  0  0  0  0
    9.1809   17.1124   18.3385 C   0  0  0  0  0  0  0  0  0  0  0  0
    8.2834   18.0809   17.9695 C   0  0  0  0  0  0  0  0  0  0  0  0
    7.6964   18.8741   18.9317 C   0  0  0  0  0  0  0  0  0  0  0  0
    8.0505   18.7442   20.2411 C   0  0  0  0  0  0  0  0  0  0  0  0
    8.8000   17.6652   20.6207 C   0  0  0  0  0  0  0  0  0  0  0  0
   10.4558   15.3719   21.3433 N   0  0  0  0  0  0  0  0  0  0  0  0
    8.6731   11.7105   25.0336 C   0  0  0  0  0  0  0  0  0  0  0  0
    7.8641   12.4501   25.9177 C   0  0  0  0  0  0  0  0  0  0  0  0
    6.7833   11.7972   26.5253 C   0  0  0  0  0  0  0  0  0  0  0  0
    5.9260   12.5386   27.4501 N   0  0  0  0  0  0  0  0  0  0  0  0
    6.4210   13.5169   28.0277 O   0  0  0  0  0  0  0  0  0  0  0  0
    4.7746   12.1156   27.6335 O   0  0  0  0  0  0  0  0  0  0  0  0
    6.5242   10.4440   26.2950 C   0  0  0  0  0  0  0  0  0  0  0  0
    7.3273    9.7147   25.4152 C   0  0  0  0  0  0  0  0  0  0  0  0
    8.3778   10.3746   24.7724 C   0  0  0  0  0  0  0  0  0  0  0  0
  1  2  1  0
  2  3  1  0
  3  4  2  0
  4  5  1  0
  5  6  2  0
  5  7  1  0
  7  8  1  0
  8  9  1  0
  9 10  2  0
 10 11  1  0
 11 12  1  0
 12 13  1  0
 13 14  2  0
 14 15  1  0
 15 16  2  0
 16 17  1  0
 17 18  2  0
 12 19  2  0
  4 20  1  0
 20 21  2  0
 21 22  1  0
 22 23  1  0
 23 24  2  0
 23 25  1  0
 22 26  2  0
 26 27  1  0
 27 28  2  0
 28  2  1  0
 19  9  1  0
 28 20  1  0
 18 13  1  0
M  CHG  2  23   1  25  -1
M  END
>  <energy_score>  (1413) 
-40.900264

>  <inchikey>  (1413) 
None

>  <smiles>  (1413) 
None

>  <ref_pdb>  (1413) 
A2290a

>  <alias>  (1413) 
None

>  <HIPPO Pose ID>  (1413) 
499057

>  <name>  (1413) 
P499057

>  <HIPPO Compound ID>  (1413) 
299424

>  <ref_mols>  (1413) 
A3403a,A2290a

>  <distance_score>  (1413) 
0.999529

>  <inspiration_score>  (1413) 
None

$$$$
P499058
     RDKit          3D

 28 31  0  0  0  0  0  0  0  0999 V2000
    9.1724    8.6791   23.2907 C   0  0  0  0  0  0  0  0  0  0  0  0
    9.0837    9.8137   24.1755 N   0  0  0  0  0  0  0  0  0  0  0  0
   10.0242   10.7552   24.0372 N   0  0  0  0  0  0  0  0  0  0  0  0
    9.7038   11.6725   24.9674 C   0  0  0  0  0  0  0  0  0  0  0  0
   10.3048   12.9838   24.9613 C   0  0  0  0  0  0  0  0  0  0  0  0
   10.3820   13.7098   25.8593 O   0  0  0  0  0  0  0  0  0  0  0  0
   10.6841   13.1703   23.5210 N   0  0  0  0  0  0  0  0  0  0  0  0
   11.1440   14.2903   22.8475 C   0  0  0  0  0  0  0  0  0  0  0  0
    9.7464   14.6787   22.4256 C   0  0  0  0  0  0  0  0  0  0  0  0
    8.6306   14.5359   23.2722 N   0  0  0  0  0  0  0  0  0  0  0  0
    7.6079   14.9216   22.5466 C   0  0  0  0  0  0  0  0  0  0  0  0
    7.9298   15.2833   21.2933 O   0  0  0  0  0  0  0  0  0  0  0  0
    9.2649   15.1246   21.2429 C   0  0  0  0  0  0  0  0  0  0  0  0
    9.9023   15.4219   20.0448 C   0  0  0  0  0  0  0  0  0  0  0  0
    9.5583   16.5613   19.3572 C   0  0  0  0  0  0  0  0  0  0  0  0
   10.3123   16.8351   18.2709 C   0  0  0  0  0  0  0  0  0  0  0  0
   11.4040   16.0043   17.9582 C   0  0  0  0  0  0  0  0  0  0  0  0
   11.6983   14.8299   18.6079 C   0  0  0  0  0  0  0  0  0  0  0  0
   10.9447   14.5721   19.6900 C   0  0  0  0  0  0  0  0  0  0  0  0
    8.4743   11.4009   25.5857 C   0  0  0  0  0  0  0  0  0  0  0  0
    7.6155   12.1252   26.4364 C   0  0  0  0  0  0  0  0  0  0  0  0
    6.4304   11.5151   26.8455 C   0  0  0  0  0  0  0  0  0  0  0  0
    5.5235   12.2273   27.7454 N   0  0  0  0  0  0  0  0  0  0  0  0
    4.3377   11.8649   27.7748 O   0  0  0  0  0  0  0  0  0  0  0  0
    6.0049   13.1269   28.4489 O   0  0  0  0  0  0  0  0  0  0  0  0
    6.1110   10.2258   26.4304 C   0  0  0  0  0  0  0  0  0  0  0  0
    6.9516    9.5416   25.5471 C   0  0  0  0  0  0  0  0  0  0  0  0
    8.1176   10.1525   25.0986 C   0  0  0  0  0  0  0  0  0  0  0  0
  1  2  1  0
  2  3  1  0
  3  4  2  0
  4  5  1  0
  5  6  2  0
  5  7  1  0
  7  8  1  0
  8  9  1  0
  9 10  1  0
 10 11  2  0
 11 12  1  0
 12 13  1  0
 13 14  1  0
 14 15  2  0
 15 16  1  0
 16 17  2  0
 17 18  1  0
 18 19  2  0
  4 20  1  0
 20 21  2  0
 21 22  1  0
 22 23  1  0
 23 24  2  0
 23 25  1  0
 22 26  2  0
 26 27  1  0
 27 28  2  0
 28  2  1  0
 13  9  2  0
 19 14  1  0
 28 20  1  0
M  CHG  2  23   1  25  -1
M  END
>  <energy_score>  (1414) 
-17.01715

>  <inchikey>  (1414) 
None

>  <smiles>  (1414) 
None

>  <ref_pdb>  (1414) 
A2290a

>  <alias>  (1414) 
None

>  <HIPPO Pose ID>  (1414) 
499058

>  <name>  (1414) 
P499058

>  <HIPPO Compound ID>  (1414) 
299426

>  <ref_mols>  (1414) 
A3403a,A2290a

>  <distance_score>  (1414) 
1.947211

>  <inspiration_score>  (1414) 
None

$$$$
P499059
     RDKit          3D

 28 31  0  0  0  0  0  0  0  0999 V2000
    9.5959    8.1802   20.2736 O   0  0  0  0  0  0  0  0  0  0  0  0
    9.6620    8.3826   21.4750 C   0  0  0  0  0  0  0  0  0  0  0  0
    9.2853    7.4486   22.3767 N   0  0  0  0  0  0  0  0  0  0  0  0
   10.2107    7.6056   23.4120 C   0  0  0  0  0  0  0  0  0  0  0  0
   10.1714    9.0734   23.4975 C   0  0  2  0  0  0  0  0  0  0  0  0
    8.8555    9.4664   24.1252 C   0  0  0  0  0  0  0  0  0  0  0  0
    8.8727   10.8465   24.4941 N   0  0  0  0  0  0  0  0  0  0  0  0
    9.8077   11.6141   23.9638 N   0  0  0  0  0  0  0  0  0  0  0  0
    9.7454   12.7496   24.6587 C   0  0  0  0  0  0  0  0  0  0  0  0
   10.7548   13.7502   24.3340 C   0  0  0  0  0  0  0  0  0  0  0  0
   11.1693   14.5230   25.1030 O   0  0  0  0  0  0  0  0  0  0  0  0
   11.0447   13.5828   22.8338 N   0  0  0  0  0  0  0  0  0  0  0  0
   11.8243   14.3793   21.9472 C   0  0  0  0  0  0  0  0  0  0  0  0
   10.8608   15.0167   21.0110 C   0  0  0  0  0  0  0  0  0  0  0  0
    9.8220   15.7756   21.4799 N   0  0  0  0  0  0  0  0  0  0  0  0
    9.3366   16.3702   20.4207 C   0  0  0  0  0  0  0  0  0  0  0  0
    9.8606   15.9389   19.2485 O   0  0  0  0  0  0  0  0  0  0  0  0
   10.8376   15.0597   19.6374 C   0  0  0  0  0  0  0  0  0  0  0  0
   11.7150   14.5172   18.6075 C   0  0  0  0  0  0  0  0  0  0  0  0
   11.1461   13.4818   17.9647 F   0  0  0  0  0  0  0  0  0  0  0  0
   12.8426   14.0064   19.1771 F   0  0  0  0  0  0  0  0  0  0  0  0
    8.6399   12.7292   25.5492 C   0  0  0  0  0  0  0  0  0  0  0  0
    8.0299   13.6236   26.4388 C   0  0  0  0  0  0  0  0  0  0  0  0
    6.9164   13.1881   27.1719 C   0  0  0  0  0  0  0  0  0  0  0  0
    6.4146   11.8925   27.0373 C   0  0  0  0  0  0  0  0  0  0  0  0
    6.9997   10.9874   26.1582 C   0  0  0  0  0  0  0  0  0  0  0  0
    8.0976   11.4495   25.4271 C   0  0  0  0  0  0  0  0  0  0  0  0
   10.1937    9.4466   22.1184 O   0  0  0  0  0  0  0  0  0  0  0  0
  1  2  2  0
  2  3  1  0
  3  4  1  0
  4  5  1  0
  5  6  1  6
  6  7  1  0
  7  8  1  0
  8  9  2  0
  9 10  1  0
 10 11  2  0
 10 12  1  0
 12 13  1  0
 13 14  1  0
 14 15  1  0
 15 16  2  0
 16 17  1  0
 17 18  1  0
 18 19  1  0
 19 20  1  0
 19 21  1  0
  9 22  1  0
 22 23  2  0
 23 24  1  0
 24 25  2  0
 25 26  1  0
 26 27  2  0
  5 28  1  0
 28  2  1  0
 27  7  1  0
 18 14  2  0
 27 22  1  0
M  END
>  <energy_score>  (1415) 
-28.063548

>  <inchikey>  (1415) 
None

>  <smiles>  (1415) 
None

>  <ref_pdb>  (1415) 
A2290a

>  <alias>  (1415) 
None

>  <HIPPO Pose ID>  (1415) 
499059

>  <name>  (1415) 
P499059

>  <HIPPO Compound ID>  (1415) 
299429

>  <ref_mols>  (1415) 
A3403a,A2290a

>  <distance_score>  (1415) 
1.28036

>  <inspiration_score>  (1415) 
None

$$$$
P499060
     RDKit          3D

 28 32  0  0  0  0  0  0  0  0999 V2000
    9.5618    8.1021   20.3221 O   0  0  0  0  0  0  0  0  0  0  0  0
    9.6387    8.3239   21.5196 C   0  0  0  0  0  0  0  0  0  0  0  0
   10.4857    9.2146   22.0859 N   0  0  0  0  0  0  0  0  0  0  0  0
   10.7059    8.7630   23.3980 C   0  0  0  0  0  0  0  0  0  0  0  0
    9.3558    8.2678   23.7143 C   0  0  1  0  0  0  0  0  0  0  0  0
    8.3353    9.3065   24.0188 C   0  0  0  0  0  0  0  0  0  0  0  0
    8.6537   10.4996   24.7355 N   0  0  0  0  0  0  0  0  0  0  0  0
    9.5010   11.3654   24.1706 N   0  0  0  0  0  0  0  0  0  0  0  0
    9.2742   12.5191   24.8101 C   0  0  0  0  0  0  0  0  0  0  0  0
   10.0539   13.6900   24.4366 C   0  0  0  0  0  0  0  0  0  0  0  0
   10.6530   14.3061   25.2247 O   0  0  0  0  0  0  0  0  0  0  0  0
    9.9868   13.8251   22.9091 N   0  0  0  0  0  0  0  0  0  0  0  0
   10.7071   14.6761   22.0224 C   0  0  0  0  0  0  0  0  0  0  0  0
    9.8789   15.5056   21.1004 C   0  0  0  0  0  0  0  0  0  0  0  0
    8.7297   16.1414   21.4814 N   0  0  0  0  0  0  0  0  0  0  0  0
    8.6080   17.1218   20.6140 C   0  0  0  0  0  0  0  0  0  0  0  0
    9.3755   16.9884   19.5102 O   0  0  0  0  0  0  0  0  0  0  0  0
   10.1560   15.9247   19.8168 C   0  0  0  0  0  0  0  0  0  0  0  0
   11.2189   15.3882   18.8670 C   0  0  0  0  0  0  0  0  0  0  0  0
   12.3691   14.4844   19.2601 C   0  0  0  0  0  0  0  0  0  0  0  0
   11.1165   13.9448   18.7650 C   0  0  0  0  0  0  0  0  0  0  0  0
    8.2508   12.3858   25.7702 C   0  0  0  0  0  0  0  0  0  0  0  0
    7.5841   13.2492   26.6490 C   0  0  0  0  0  0  0  0  0  0  0  0
    6.5427   12.7359   27.4272 C   0  0  0  0  0  0  0  0  0  0  0  0
    6.1678   11.3963   27.3383 C   0  0  0  0  0  0  0  0  0  0  0  0
    6.8210   10.5218   26.4735 C   0  0  0  0  0  0  0  0  0  0  0  0
    7.8665   11.0494   25.7087 C   0  0  0  0  0  0  0  0  0  0  0  0
    8.9960    7.6310   22.4889 O   0  0  0  0  0  0  0  0  0  0  0  0
  1  2  2  0
  2  3  1  0
  3  4  1  0
  4  5  1  0
  5  6  1  6
  6  7  1  0
  7  8  1  0
  8  9  2  0
  9 10  1  0
 10 11  2  0
 10 12  1  0
 12 13  1  0
 13 14  1  0
 14 15  1  0
 15 16  2  0
 16 17  1  0
 17 18  1  0
 18 19  1  0
 19 20  1  0
 20 21  1  0
  9 22  1  0
 22 23  2  0
 23 24  1  0
 24 25  2  0
 25 26  1  0
 26 27  2  0
  5 28  1  0
 28  2  1  0
 27  7  1  0
 18 14  2  0
 21 19  1  0
 27 22  1  0
M  END
>  <energy_score>  (1416) 
-5.296204

>  <inchikey>  (1416) 
None

>  <smiles>  (1416) 
None

>  <ref_pdb>  (1416) 
A2290a

>  <alias>  (1416) 
None

>  <HIPPO Pose ID>  (1416) 
499060

>  <name>  (1416) 
P499060

>  <HIPPO Compound ID>  (1416) 
299449

>  <ref_mols>  (1416) 
A3403a,A2290a

>  <distance_score>  (1416) 
1.502504

>  <inspiration_score>  (1416) 
None

$$$$
P499061
     RDKit          3D

 28 31  0  0  0  0  0  0  0  0999 V2000
    8.4256   18.2139   19.0528 C   0  0  0  0  0  0  0  0  0  0  0  0
    8.6150   17.5767   20.4186 C   0  0  0  0  0  0  0  0  0  0  0  0
    9.5095   16.3951   20.4577 C   0  0  0  0  0  0  0  0  0  0  0  0
    9.9178   15.7414   21.5216 N   0  0  0  0  0  0  0  0  0  0  0  0
   10.9220   14.9305   21.0769 C   0  0  0  0  0  0  0  0  0  0  0  0
   11.8302   14.2645   22.0447 C   0  0  0  0  0  0  0  0  0  0  0  0
   11.0093   13.5495   22.9760 N   0  0  0  0  0  0  0  0  0  0  0  0
   10.7468   13.7961   24.4751 C   0  0  0  0  0  0  0  0  0  0  0  0
   11.2167   14.5735   25.2078 O   0  0  0  0  0  0  0  0  0  0  0  0
    9.7376   12.8216   24.8835 C   0  0  0  0  0  0  0  0  0  0  0  0
    9.9025   11.5863   24.4145 N   0  0  0  0  0  0  0  0  0  0  0  0
    8.8765   10.8941   24.8941 N   0  0  0  0  0  0  0  0  0  0  0  0
    8.7691    9.5122   24.5369 C   0  0  0  0  0  0  0  0  0  0  0  0
    9.9913    9.0602   23.7830 C   0  0  2  0  0  0  0  0  0  0  0  0
   10.0337    9.7690   22.4678 C   0  0  0  0  0  0  0  0  0  0  0  0
    9.8963    8.7061   21.5823 N   0  0  0  0  0  0  0  0  0  0  0  0
    9.3290    7.6922   22.2645 C   0  0  0  0  0  0  0  0  0  0  0  0
    8.5346    6.8990   21.8197 O   0  0  0  0  0  0  0  0  0  0  0  0
    9.7990    7.6938   23.5127 O   0  0  0  0  0  0  0  0  0  0  0  0
    8.0187   11.6078   25.6547 C   0  0  0  0  0  0  0  0  0  0  0  0
    6.8439   11.2326   26.3082 C   0  0  0  0  0  0  0  0  0  0  0  0
    6.1774   12.2358   27.0002 C   0  0  0  0  0  0  0  0  0  0  0  0
    6.6725   13.5408   27.0243 C   0  0  0  0  0  0  0  0  0  0  0  0
    7.8578   13.8922   26.3619 C   0  0  0  0  0  0  0  0  0  0  0  0
    8.5534   12.8986   25.6641 C   0  0  0  0  0  0  0  0  0  0  0  0
   10.9257   14.9733   19.7035 C   0  0  0  0  0  0  0  0  0  0  0  0
   11.7619   14.3968   18.6600 C   0  0  0  0  0  0  0  0  0  0  0  0
   10.0011   15.8930   19.2934 O   0  0  0  0  0  0  0  0  0  0  0  0
  1  2  1  0
  2  3  1  0
  3  4  2  0
  4  5  1  0
  5  6  1  0
  6  7  1  0
  7  8  1  0
  8  9  2  0
  8 10  1  0
 10 11  2  0
 11 12  1  0
 12 13  1  0
 14 13  1  1
 14 15  1  0
 15 16  1  0
 16 17  1  0
 17 18  2  0
 17 19  1  0
 12 20  1  0
 20 21  2  0
 21 22  1  0
 22 23  2  0
 23 24  1  0
 24 25  2  0
  5 26  2  0
 26 27  1  0
 26 28  1  0
 28  3  1  0
 25 10  1  0
 19 14  1  0
 25 20  1  0
M  END
>  <energy_score>  (1417) 
-4.867299

>  <inchikey>  (1417) 
None

>  <smiles>  (1417) 
None

>  <ref_pdb>  (1417) 
A2290a

>  <alias>  (1417) 
None

>  <HIPPO Pose ID>  (1417) 
499061

>  <name>  (1417) 
P499061

>  <HIPPO Compound ID>  (1417) 
299450

>  <ref_mols>  (1417) 
A3403a,A2290a

>  <distance_score>  (1417) 
1.402833

>  <inspiration_score>  (1417) 
None

$$$$
P499062
     RDKit          3D

 28 31  0  0  0  0  0  0  0  0999 V2000
    8.3804   18.1845   19.2358 C   0  0  0  0  0  0  0  0  0  0  0  0
    8.6564   17.4793   20.5578 C   0  0  0  0  0  0  0  0  0  0  0  0
    9.6064   16.3367   20.5015 C   0  0  0  0  0  0  0  0  0  0  0  0
   10.1291   15.6703   21.5132 N   0  0  0  0  0  0  0  0  0  0  0  0
   11.0731   14.8509   20.9490 C   0  0  0  0  0  0  0  0  0  0  0  0
   12.0131   14.0364   21.7643 C   0  0  0  0  0  0  0  0  0  0  0  0
   11.1913   13.3448   22.6973 N   0  0  0  0  0  0  0  0  0  0  0  0
   11.0263   13.5307   24.1998 C   0  0  0  0  0  0  0  0  0  0  0  0
   11.5903   14.2280   24.9407 O   0  0  0  0  0  0  0  0  0  0  0  0
    9.8906   12.7100   24.6154 C   0  0  0  0  0  0  0  0  0  0  0  0
    9.6121   11.5066   24.0812 N   0  0  0  0  0  0  0  0  0  0  0  0
    8.4154   11.1947   24.6304 N   0  0  0  0  0  0  0  0  0  0  0  0
    8.0912    9.8018   24.7630 C   0  0  0  0  0  0  0  0  0  0  0  0
    7.0266    9.3448   25.7865 C   0  0  1  0  0  0  0  0  0  0  0  0
    6.6815    9.9461   27.1479 C   0  0  0  0  0  0  0  0  0  0  0  0
    5.2611    9.9190   27.1895 N   0  0  0  0  0  0  0  0  0  0  0  0
    4.8109    9.0748   26.2163 C   0  0  0  0  0  0  0  0  0  0  0  0
    3.7101    8.5524   26.2120 O   0  0  0  0  0  0  0  0  0  0  0  0
    5.7634    8.9312   25.2473 O   0  0  0  0  0  0  0  0  0  0  0  0
    7.8207   12.2477   25.2586 C   0  0  0  0  0  0  0  0  0  0  0  0
    6.5333   12.4827   25.7420 C   0  0  0  0  0  0  0  0  0  0  0  0
    6.3054   13.6058   26.5242 C   0  0  0  0  0  0  0  0  0  0  0  0
    7.3290   14.5036   26.7742 C   0  0  0  0  0  0  0  0  0  0  0  0
    8.5920   14.3150   26.2117 C   0  0  0  0  0  0  0  0  0  0  0  0
    8.8354   13.1720   25.4348 C   0  0  0  0  0  0  0  0  0  0  0  0
   10.9808   14.9697   19.5885 C   0  0  0  0  0  0  0  0  0  0  0  0
   11.7670   14.4266   18.4955 C   0  0  0  0  0  0  0  0  0  0  0  0
   10.0245   15.8923   19.2831 O   0  0  0  0  0  0  0  0  0  0  0  0
  1  2  1  0
  2  3  1  0
  3  4  2  0
  4  5  1  0
  5  6  1  0
  6  7  1  0
  7  8  1  0
  8  9  2  0
  8 10  1  0
 10 11  2  0
 11 12  1  0
 12 13  1  0
 14 13  1  6
 14 15  1  0
 15 16  1  0
 16 17  1  0
 17 18  2  0
 17 19  1  0
 12 20  1  0
 20 21  2  0
 21 22  1  0
 22 23  2  0
 23 24  1  0
 24 25  2  0
  5 26  2  0
 26 27  1  0
 26 28  1  0
 28  3  1  0
 25 10  1  0
 19 14  1  0
 25 20  1  0
M  END
>  <energy_score>  (1418) 
-20.22745

>  <inchikey>  (1418) 
None

>  <smiles>  (1418) 
None

>  <ref_pdb>  (1418) 
A2290a

>  <alias>  (1418) 
None

>  <HIPPO Pose ID>  (1418) 
499062

>  <name>  (1418) 
P499062

>  <HIPPO Compound ID>  (1418) 
299450

>  <ref_mols>  (1418) 
A3403a,A2290a

>  <distance_score>  (1418) 
1.660739

>  <inspiration_score>  (1418) 
None

$$$$
P499063
     RDKit          3D

 28 31  0  0  0  0  0  0  0  0999 V2000
    8.5491   18.0232   19.7345 C   0  0  0  0  0  0  0  0  0  0  0  0
    9.2984   16.7778   20.0380 C   0  0  0  0  0  0  0  0  0  0  0  0
    9.5947   16.2660   21.2054 N   0  0  0  0  0  0  0  0  0  0  0  0
   10.5964   15.3476   20.9673 C   0  0  0  0  0  0  0  0  0  0  0  0
   11.4153   14.8844   22.1323 C   0  0  2  0  0  0  0  0  0  0  0  0
   12.6264   14.0447   21.8509 C   0  0  0  0  0  0  0  0  0  0  0  0
   10.5338   14.2004   23.0227 N   0  0  0  0  0  0  0  0  0  0  0  0
   10.5644   14.0692   24.5535 C   0  0  0  0  0  0  0  0  0  0  0  0
   11.2700   14.5618   25.3413 O   0  0  0  0  0  0  0  0  0  0  0  0
    9.4515   13.2007   24.8840 C   0  0  0  0  0  0  0  0  0  0  0  0
    9.1866   12.2402   23.9943 N   0  0  0  0  0  0  0  0  0  0  0  0
    8.2947   11.4946   24.6127 N   0  0  0  0  0  0  0  0  0  0  0  0
    8.1115   10.1893   24.1083 C   0  0  0  0  0  0  0  0  0  0  0  0
    9.3051    9.3675   24.3248 C   0  0  2  0  0  0  0  0  0  0  0  0
   10.4777    9.6131   23.4444 C   0  0  0  0  0  0  0  0  0  0  0  0
   10.0613    8.9822   22.2611 N   0  0  0  0  0  0  0  0  0  0  0  0
    9.2193    7.9743   22.6163 C   0  0  0  0  0  0  0  0  0  0  0  0
    8.7788    7.1032   21.9020 O   0  0  0  0  0  0  0  0  0  0  0  0
    8.9210    8.0778   23.9467 O   0  0  0  0  0  0  0  0  0  0  0  0
    7.8020   11.9899   25.7645 C   0  0  0  0  0  0  0  0  0  0  0  0
    6.8247   11.5048   26.6356 C   0  0  0  0  0  0  0  0  0  0  0  0
    6.5452   12.2929   27.7427 C   0  0  0  0  0  0  0  0  0  0  0  0
    7.2256   13.4929   27.9552 C   0  0  0  0  0  0  0  0  0  0  0  0
    8.2258   13.9412   27.0791 C   0  0  0  0  0  0  0  0  0  0  0  0
    8.5277   13.1608   25.9582 C   0  0  0  0  0  0  0  0  0  0  0  0
   10.7062   15.1868   19.6023 C   0  0  0  0  0  0  0  0  0  0  0  0
   11.6191   14.4771   18.7007 C   0  0  0  0  0  0  0  0  0  0  0  0
    9.8641   16.0956   19.0020 O   0  0  0  0  0  0  0  0  0  0  0  0
  1  2  1  0
  2  3  2  0
  3  4  1  0
  4  5  1  0
  5  6  1  6
  5  7  1  0
  7  8  1  0
  8  9  2  0
  8 10  1  0
 10 11  2  0
 11 12  1  0
 12 13  1  0
 14 13  1  6
 14 15  1  0
 15 16  1  0
 16 17  1  0
 17 18  2  0
 17 19  1  0
 12 20  1  0
 20 21  2  0
 21 22  1  0
 22 23  2  0
 23 24  1  0
 24 25  2  0
  4 26  2  0
 26 27  1  0
 26 28  1  0
 28  2  1  0
 25 10  1  0
 19 14  1  0
 25 20  1  0
M  END
>  <energy_score>  (1419) 
-6.49878

>  <inchikey>  (1419) 
None

>  <smiles>  (1419) 
None

>  <ref_pdb>  (1419) 
A2290a

>  <alias>  (1419) 
None

>  <HIPPO Pose ID>  (1419) 
499063

>  <name>  (1419) 
P499063

>  <HIPPO Compound ID>  (1419) 
299452

>  <ref_mols>  (1419) 
A3403a,A2290a

>  <distance_score>  (1419) 
1.762284

>  <inspiration_score>  (1419) 
None

$$$$
P499064
     RDKit          3D

 28 31  0  0  0  0  0  0  0  0999 V2000
    8.5589   17.9445   19.9163 C   0  0  0  0  0  0  0  0  0  0  0  0
    9.2764   16.6718   20.1762 C   0  0  0  0  0  0  0  0  0  0  0  0
    9.4959   16.0645   21.3159 N   0  0  0  0  0  0  0  0  0  0  0  0
   10.5304   15.1873   21.0716 C   0  0  0  0  0  0  0  0  0  0  0  0
   11.3375   14.7139   22.2433 C   0  0  2  0  0  0  0  0  0  0  0  0
   12.5571   13.8839   21.9604 C   0  0  0  0  0  0  0  0  0  0  0  0
   10.4980   14.0457   23.2027 N   0  0  0  0  0  0  0  0  0  0  0  0
   10.5501   14.0350   24.7442 C   0  0  0  0  0  0  0  0  0  0  0  0
   11.2338   14.6273   25.4827 O   0  0  0  0  0  0  0  0  0  0  0  0
    9.5346   13.1119   25.2166 C   0  0  0  0  0  0  0  0  0  0  0  0
    9.7064   11.8221   24.9322 N   0  0  0  0  0  0  0  0  0  0  0  0
    8.6022   11.2411   25.3940 N   0  0  0  0  0  0  0  0  0  0  0  0
    8.3014    9.9147   24.9822 C   0  0  0  0  0  0  0  0  0  0  0  0
    8.8002    9.7405   23.6134 C   0  0  1  0  0  0  0  0  0  0  0  0
   10.2629    9.6223   23.3819 C   0  0  0  0  0  0  0  0  0  0  0  0
   10.2752    8.6885   22.3372 N   0  0  0  0  0  0  0  0  0  0  0  0
    9.1333    7.9503   22.3972 C   0  0  0  0  0  0  0  0  0  0  0  0
    8.8417    6.9227   21.8401 O   0  0  0  0  0  0  0  0  0  0  0  0
    8.2648    8.5117   23.2438 O   0  0  0  0  0  0  0  0  0  0  0  0
    7.7489   12.0577   26.0451 C   0  0  0  0  0  0  0  0  0  0  0  0
    6.5301   11.7914   26.6697 C   0  0  0  0  0  0  0  0  0  0  0  0
    5.8588   12.8855   27.1914 C   0  0  0  0  0  0  0  0  0  0  0  0
    6.3942   14.1688   27.0819 C   0  0  0  0  0  0  0  0  0  0  0  0
    7.6244   14.4066   26.4524 C   0  0  0  0  0  0  0  0  0  0  0  0
    8.3226   13.3189   25.9237 C   0  0  0  0  0  0  0  0  0  0  0  0
   10.7016   15.1128   19.7030 C   0  0  0  0  0  0  0  0  0  0  0  0
   11.6341   14.4595   18.7783 C   0  0  0  0  0  0  0  0  0  0  0  0
    9.8849   16.0571   19.1250 O   0  0  0  0  0  0  0  0  0  0  0  0
  1  2  1  0
  2  3  2  0
  3  4  1  0
  4  5  1  0
  5  6  1  6
  5  7  1  0
  7  8  1  0
  8  9  2  0
  8 10  1  0
 10 11  2  0
 11 12  1  0
 12 13  1  0
 14 13  1  1
 14 15  1  0
 15 16  1  0
 16 17  1  0
 17 18  2  0
 17 19  1  0
 12 20  1  0
 20 21  2  0
 21 22  1  0
 22 23  2  0
 23 24  1  0
 24 25  2  0
  4 26  2  0
 26 27  1  0
 26 28  1  0
 28  2  1  0
 25 10  1  0
 19 14  1  0
 25 20  1  0
M  END
>  <energy_score>  (1420) 
-21.244486

>  <inchikey>  (1420) 
None

>  <smiles>  (1420) 
None

>  <ref_pdb>  (1420) 
A2290a

>  <alias>  (1420) 
None

>  <HIPPO Pose ID>  (1420) 
499064

>  <name>  (1420) 
P499064

>  <HIPPO Compound ID>  (1420) 
299452

>  <ref_mols>  (1420) 
A3403a,A2290a

>  <distance_score>  (1420) 
1.863174

>  <inspiration_score>  (1420) 
None

$$$$
P499065
     RDKit          3D

 28 31  0  0  0  0  0  0  0  0999 V2000
    8.6134   17.4323   20.6155 C   0  0  0  0  0  0  0  0  0  0  0  0
    9.5138   16.2739   20.5150 C   0  0  0  0  0  0  0  0  0  0  0  0
    9.9619   15.5141   21.4913 N   0  0  0  0  0  0  0  0  0  0  0  0
   10.8983   14.7142   20.8894 C   0  0  0  0  0  0  0  0  0  0  0  0
   11.8388   13.8704   21.6717 C   0  0  1  0  0  0  0  0  0  0  0  0
   12.9078   14.7445   22.2557 C   0  0  0  0  0  0  0  0  0  0  0  0
   11.0382   13.2203   22.6556 N   0  0  0  0  0  0  0  0  0  0  0  0
   10.9010   13.4801   24.1537 C   0  0  0  0  0  0  0  0  0  0  0  0
   11.4756   14.2169   24.8487 O   0  0  0  0  0  0  0  0  0  0  0  0
    9.7829   12.6723   24.6147 C   0  0  0  0  0  0  0  0  0  0  0  0
    9.5020   11.4672   24.0892 N   0  0  0  0  0  0  0  0  0  0  0  0
    8.3193   11.1555   24.6571 N   0  0  0  0  0  0  0  0  0  0  0  0
    8.0267    9.7614   24.8069 C   0  0  0  0  0  0  0  0  0  0  0  0
    6.9444    9.2984   25.7983 C   0  0  1  0  0  0  0  0  0  0  0  0
    6.5680    9.8545   27.1693 C   0  0  0  0  0  0  0  0  0  0  0  0
    5.1453    9.7924   27.1836 N   0  0  0  0  0  0  0  0  0  0  0  0
    4.7268    8.9740   26.1745 C   0  0  0  0  0  0  0  0  0  0  0  0
    3.6323    8.4404   26.1105 O   0  0  0  0  0  0  0  0  0  0  0  0
    5.7029    8.8683   25.2245 O   0  0  0  0  0  0  0  0  0  0  0  0
    7.7357   12.2022   25.3054 C   0  0  0  0  0  0  0  0  0  0  0  0
    6.4566   12.4336   25.8115 C   0  0  0  0  0  0  0  0  0  0  0  0
    6.2432   13.5564   26.5985 C   0  0  0  0  0  0  0  0  0  0  0  0
    7.2693   14.4583   26.8269 C   0  0  0  0  0  0  0  0  0  0  0  0
    8.5205   14.2757   26.2371 C   0  0  0  0  0  0  0  0  0  0  0  0
    8.7501   13.1314   25.4593 C   0  0  0  0  0  0  0  0  0  0  0  0
   10.8922   14.9597   19.5453 C   0  0  0  0  0  0  0  0  0  0  0  0
   11.7409   14.4829   18.4660 C   0  0  0  0  0  0  0  0  0  0  0  0
    9.9816   15.9385   19.2800 O   0  0  0  0  0  0  0  0  0  0  0  0
  1  2  1  0
  2  3  2  0
  3  4  1  0
  4  5  1  0
  5  6  1  1
  5  7  1  0
  7  8  1  0
  8  9  2  0
  8 10  1  0
 10 11  2  0
 11 12  1  0
 12 13  1  0
 14 13  1  6
 14 15  1  0
 15 16  1  0
 16 17  1  0
 17 18  2  0
 17 19  1  0
 12 20  1  0
 20 21  2  0
 21 22  1  0
 22 23  2  0
 23 24  1  0
 24 25  2  0
  4 26  2  0
 26 27  1  0
 26 28  1  0
 28  2  1  0
 25 10  1  0
 19 14  1  0
 25 20  1  0
M  END
>  <energy_score>  (1421) 
-21.514686

>  <inchikey>  (1421) 
None

>  <smiles>  (1421) 
None

>  <ref_pdb>  (1421) 
A2290a

>  <alias>  (1421) 
None

>  <HIPPO Pose ID>  (1421) 
499065

>  <name>  (1421) 
P499065

>  <HIPPO Compound ID>  (1421) 
299452

>  <ref_mols>  (1421) 
A3403a,A2290a

>  <distance_score>  (1421) 
1.659413

>  <inspiration_score>  (1421) 
None

$$$$
P499066
     RDKit          3D

 29 32  0  0  0  0  0  0  0  0999 V2000
    7.2550   19.2598   19.6480 C   0  0  0  0  0  0  0  0  0  0  0  0
    8.3341   18.2889   19.6958 C   0  0  0  0  0  0  0  0  0  0  0  0
    8.4945   17.6291   20.8911 C   0  0  0  0  0  0  0  0  0  0  0  0
    9.0439   16.3947   20.8555 C   0  0  0  0  0  0  0  0  0  0  0  0
    9.7452   15.9923   19.7327 C   0  0  0  0  0  0  0  0  0  0  0  0
   10.6068   14.9041   20.0088 C   0  0  0  0  0  0  0  0  0  0  0  0
   10.7041   14.3859   21.2095 N   0  0  0  0  0  0  0  0  0  0  0  0
   12.0081   14.0433   21.2843 C   0  0  0  0  0  0  0  0  0  0  0  0
   12.5370   13.6124   22.5761 C   0  0  0  0  0  0  0  0  0  0  0  0
   11.5160   12.8558   23.1898 N   0  0  0  0  0  0  0  0  0  0  0  0
   10.6116   13.1862   24.3671 C   0  0  0  0  0  0  0  0  0  0  0  0
   10.6056   14.1046   25.0790 O   0  0  0  0  0  0  0  0  0  0  0  0
    9.6532   12.0832   24.4339 C   0  0  0  0  0  0  0  0  0  0  0  0
    9.8670   10.9937   23.6702 N   0  0  0  0  0  0  0  0  0  0  0  0
    8.9581   10.1048   24.1034 N   0  0  0  0  0  0  0  0  0  0  0  0
    9.0804    8.6959   23.7488 C   0  0  0  0  0  0  0  0  0  0  0  0
    8.3278    8.3426   22.6981 F   0  0  0  0  0  0  0  0  0  0  0  0
   10.3491    8.3114   23.4726 F   0  0  0  0  0  0  0  0  0  0  0  0
    8.6213    7.9585   24.7810 F   0  0  0  0  0  0  0  0  0  0  0  0
    8.0806   10.6361   25.0281 C   0  0  0  0  0  0  0  0  0  0  0  0
    6.9942   10.0917   25.7256 C   0  0  0  0  0  0  0  0  0  0  0  0
    6.3114   10.9207   26.6174 C   0  0  0  0  0  0  0  0  0  0  0  0
    6.6990   12.2433   26.8098 C   0  0  0  0  0  0  0  0  0  0  0  0
    7.7964   12.7706   26.1261 C   0  0  0  0  0  0  0  0  0  0  0  0
    8.4989   11.9481   25.2297 C   0  0  0  0  0  0  0  0  0  0  0  0
   12.5627   14.1473   20.0373 C   0  0  0  0  0  0  0  0  0  0  0  0
   11.6536   14.6851   19.1859 O   0  0  0  0  0  0  0  0  0  0  0  0
    9.7384   16.7530   18.5823 C   0  0  0  0  0  0  0  0  0  0  0  0
    8.8951   17.8264   18.5285 C   0  0  0  0  0  0  0  0  0  0  0  0
  1  2  1  0
  2  3  2  0
  3  4  1  0
  4  5  2  0
  5  6  1  0
  6  7  2  0
  7  8  1  0
  8  9  1  0
  9 10  1  0
 10 11  1  0
 11 12  2  0
 11 13  1  0
 13 14  2  0
 14 15  1  0
 15 16  1  0
 16 17  1  0
 16 18  1  0
 16 19  1  0
 15 20  1  0
 20 21  2  0
 21 22  1  0
 22 23  2  0
 23 24  1  0
 24 25  2  0
  8 26  2  0
 26 27  1  0
  5 28  1  0
 28 29  2  0
 29  2  1  0
 27  6  1  0
 25 13  1  0
 25 20  1  0
M  END
>  <energy_score>  (1422) 
-0.155075

>  <inchikey>  (1422) 
None

>  <smiles>  (1422) 
None

>  <ref_pdb>  (1422) 
A2290a

>  <alias>  (1422) 
None

>  <HIPPO Pose ID>  (1422) 
499066

>  <name>  (1422) 
P499066

>  <HIPPO Compound ID>  (1422) 
299471

>  <ref_mols>  (1422) 
A3403a,A2290a

>  <distance_score>  (1422) 
1.396853

>  <inspiration_score>  (1422) 
None

$$$$
P499067
     RDKit          3D

 29 32  0  0  0  0  0  0  0  0999 V2000
   12.1648   14.0812   18.8217 C   0  0  0  0  0  0  0  0  0  0  0  0
   11.3643   14.6262   19.8714 C   0  0  0  0  0  0  0  0  0  0  0  0
   10.2656   15.1892   19.3823 O   0  0  0  0  0  0  0  0  0  0  0  0
    9.8491   15.9564   20.3924 C   0  0  0  0  0  0  0  0  0  0  0  0
    9.1621   17.0898   19.8962 C   0  0  0  0  0  0  0  0  0  0  0  0
    8.5869   17.9922   20.7491 C   0  0  0  0  0  0  0  0  0  0  0  0
    7.8446   18.9957   20.2107 C   0  0  0  0  0  0  0  0  0  0  0  0
    7.5603   18.9903   18.8753 C   0  0  0  0  0  0  0  0  0  0  0  0
    8.2211   18.1693   17.9988 C   0  0  0  0  0  0  0  0  0  0  0  0
    9.0944   17.2660   18.5067 C   0  0  0  0  0  0  0  0  0  0  0  0
   10.3361   15.6304   21.5622 N   0  0  0  0  0  0  0  0  0  0  0  0
   11.3795   14.8078   21.2230 C   0  0  0  0  0  0  0  0  0  0  0  0
   12.2926   14.2866   22.2377 C   0  0  0  0  0  0  0  0  0  0  0  0
   11.5533   13.2604   22.8771 N   0  0  0  0  0  0  0  0  0  0  0  0
   10.7670   13.2714   24.1865 C   0  0  0  0  0  0  0  0  0  0  0  0
   10.6594   14.1009   24.9955 O   0  0  0  0  0  0  0  0  0  0  0  0
   10.0233   12.0114   24.2359 C   0  0  0  0  0  0  0  0  0  0  0  0
   10.4082   10.9887   23.4574 N   0  0  0  0  0  0  0  0  0  0  0  0
    9.5414    9.9887   23.7373 N   0  0  0  0  0  0  0  0  0  0  0  0
    9.6294    8.7321   22.9804 C   0  0  0  0  0  0  0  0  0  0  0  0
   10.5109    7.8525   23.5089 F   0  0  0  0  0  0  0  0  0  0  0  0
    8.4332    8.1148   22.9295 F   0  0  0  0  0  0  0  0  0  0  0  0
   10.0302    8.9477   21.7060 F   0  0  0  0  0  0  0  0  0  0  0  0
    8.6081   10.3567   24.6900 C   0  0  0  0  0  0  0  0  0  0  0  0
    7.5608    9.6702   25.3125 C   0  0  0  0  0  0  0  0  0  0  0  0
    6.7452   10.3681   26.2090 C   0  0  0  0  0  0  0  0  0  0  0  0
    6.9637   11.7155   26.4745 C   0  0  0  0  0  0  0  0  0  0  0  0
    8.0249   12.3913   25.8691 C   0  0  0  0  0  0  0  0  0  0  0  0
    8.8687   11.6940   24.9837 C   0  0  0  0  0  0  0  0  0  0  0  0
  1  2  1  0
  2  3  1  0
  3  4  1  0
  4  5  1  0
  5  6  2  0
  6  7  1  0
  7  8  2  0
  8  9  1  0
  9 10  2  0
  4 11  2  0
 11 12  1  0
 12 13  1  0
 13 14  1  0
 14 15  1  0
 15 16  2  0
 15 17  1  0
 17 18  2  0
 18 19  1  0
 19 20  1  0
 20 21  1  0
 20 22  1  0
 20 23  1  0
 19 24  1  0
 24 25  2  0
 25 26  1  0
 26 27  2  0
 27 28  1  0
 28 29  2  0
 12  2  2  0
 29 17  1  0
 10  5  1  0
 29 24  1  0
M  END
>  <energy_score>  (1423) 
-8.741452

>  <inchikey>  (1423) 
None

>  <smiles>  (1423) 
None

>  <ref_pdb>  (1423) 
A2290a

>  <alias>  (1423) 
None

>  <HIPPO Pose ID>  (1423) 
499067

>  <name>  (1423) 
P499067

>  <HIPPO Compound ID>  (1423) 
299472

>  <ref_mols>  (1423) 
A3403a,A2290a

>  <distance_score>  (1423) 
0.893867

>  <inspiration_score>  (1423) 
None

$$$$
P499068
     RDKit          3D

 29 32  0  0  0  0  0  0  0  0999 V2000
    5.3561   14.8628   28.3997 C   0  0  0  0  0  0  0  0  0  0  0  0
    6.2200   14.0256   27.6303 O   0  0  0  0  0  0  0  0  0  0  0  0
    5.7535   12.7677   27.4409 C   0  0  0  0  0  0  0  0  0  0  0  0
    4.7287   12.3017   27.9157 O   0  0  0  0  0  0  0  0  0  0  0  0
    6.6810   11.9909   26.5746 C   0  0  0  0  0  0  0  0  0  0  0  0
    6.4234   10.6279   26.3947 C   0  0  0  0  0  0  0  0  0  0  0  0
    7.2142    9.8441   25.5493 C   0  0  0  0  0  0  0  0  0  0  0  0
    8.2703   10.4653   24.8780 C   0  0  0  0  0  0  0  0  0  0  0  0
    8.5776   11.8069   25.0754 C   0  0  0  0  0  0  0  0  0  0  0  0
    7.7764   12.5876   25.9313 C   0  0  0  0  0  0  0  0  0  0  0  0
    9.7353   12.0273   24.2938 C   0  0  0  0  0  0  0  0  0  0  0  0
   10.5676   13.2290   24.2253 C   0  0  0  0  0  0  0  0  0  0  0  0
   10.4912   14.0900   25.0032 O   0  0  0  0  0  0  0  0  0  0  0  0
   11.4173   13.1068   22.9653 N   0  0  0  0  0  0  0  0  0  0  0  0
   12.2782   14.0423   22.3408 C   0  0  0  0  0  0  0  0  0  0  0  0
   11.5593   14.5648   21.1802 C   0  0  0  0  0  0  0  0  0  0  0  0
   11.8166   14.3939   19.8459 C   0  0  0  0  0  0  0  0  0  0  0  0
   10.8882   15.0819   19.1491 O   0  0  0  0  0  0  0  0  0  0  0  0
   10.1614   15.7096   20.1152 C   0  0  0  0  0  0  0  0  0  0  0  0
    9.3677   16.8192   19.6818 C   0  0  0  0  0  0  0  0  0  0  0  0
    8.8039   17.6598   20.6247 C   0  0  0  0  0  0  0  0  0  0  0  0
    8.0545   18.7394   20.2452 C   0  0  0  0  0  0  0  0  0  0  0  0
    7.7007   18.8706   18.9358 C   0  0  0  0  0  0  0  0  0  0  0  0
    8.2879   18.0775   17.9740 C   0  0  0  0  0  0  0  0  0  0  0  0
    9.1859   17.1092   18.3433 C   0  0  0  0  0  0  0  0  0  0  0  0
   10.4526   15.3499   21.3447 N   0  0  0  0  0  0  0  0  0  0  0  0
   10.0441   10.9509   23.5467 N   0  0  0  0  0  0  0  0  0  0  0  0
    9.1911   10.0110   23.9658 N   0  0  0  0  0  0  0  0  0  0  0  0
    9.3756    8.6656   23.4895 C   0  0  0  0  0  0  0  0  0  0  0  0
  1  2  1  0
  2  3  1  0
  3  4  2  0
  3  5  1  0
  5  6  2  0
  6  7  1  0
  7  8  2  0
  8  9  1  0
  9 10  2  0
  9 11  1  0
 11 12  1  0
 12 13  2  0
 12 14  1  0
 14 15  1  0
 15 16  1  0
 16 17  2  0
 17 18  1  0
 18 19  1  0
 19 20  1  0
 20 21  2  0
 21 22  1  0
 22 23  2  0
 23 24  1  0
 24 25  2  0
 19 26  2  0
 11 27  2  0
 27 28  1  0
 28 29  1  0
 10  5  1  0
 26 16  1  0
 28  8  1  0
 25 20  1  0
M  END
>  <energy_score>  (1424) 
-34.917864

>  <inchikey>  (1424) 
None

>  <smiles>  (1424) 
None

>  <ref_pdb>  (1424) 
A2290a

>  <alias>  (1424) 
None

>  <HIPPO Pose ID>  (1424) 
499068

>  <name>  (1424) 
P499068

>  <HIPPO Compound ID>  (1424) 
299475

>  <ref_mols>  (1424) 
A3403a,A2290a

>  <distance_score>  (1424) 
1.039679

>  <inspiration_score>  (1424) 
None

$$$$
P499069
     RDKit          3D

 29 32  0  0  0  0  0  0  0  0999 V2000
   12.1689   14.0748   18.8271 C   0  0  0  0  0  0  0  0  0  0  0  0
   11.3671   14.6123   19.8794 C   0  0  0  0  0  0  0  0  0  0  0  0
   10.2846   15.1996   19.3872 O   0  0  0  0  0  0  0  0  0  0  0  0
    9.8597   15.9524   20.4048 C   0  0  0  0  0  0  0  0  0  0  0  0
    9.1702   17.0864   19.9094 C   0  0  0  0  0  0  0  0  0  0  0  0
    9.1039   17.2629   18.5182 C   0  0  0  0  0  0  0  0  0  0  0  0
    8.2298   18.1635   18.0059 C   0  0  0  0  0  0  0  0  0  0  0  0
    7.5654   18.9846   18.8787 C   0  0  0  0  0  0  0  0  0  0  0  0
    7.8478   18.9919   20.2146 C   0  0  0  0  0  0  0  0  0  0  0  0
    8.5901   17.9895   20.7578 C   0  0  0  0  0  0  0  0  0  0  0  0
   10.3304   15.5999   21.5753 N   0  0  0  0  0  0  0  0  0  0  0  0
   11.3610   14.7576   21.2354 C   0  0  0  0  0  0  0  0  0  0  0  0
   12.2465   14.1784   22.2451 C   0  0  0  0  0  0  0  0  0  0  0  0
   11.4712   13.1739   22.8795 N   0  0  0  0  0  0  0  0  0  0  0  0
   10.6708   13.2107   24.1781 C   0  0  0  0  0  0  0  0  0  0  0  0
   10.5760   14.0455   24.9829 O   0  0  0  0  0  0  0  0  0  0  0  0
    9.8868   11.9747   24.2332 C   0  0  0  0  0  0  0  0  0  0  0  0
   10.2247   10.9267   23.4631 N   0  0  0  0  0  0  0  0  0  0  0  0
    9.3477    9.9699   23.7904 N   0  0  0  0  0  0  0  0  0  0  0  0
    9.4382    8.7053   23.0999 C   0  0  0  0  0  0  0  0  0  0  0  0
    8.4367   10.3698   24.7405 C   0  0  0  0  0  0  0  0  0  0  0  0
    7.3892    9.7053   25.3841 C   0  0  0  0  0  0  0  0  0  0  0  0
    6.5818   10.4332   26.2606 C   0  0  0  0  0  0  0  0  0  0  0  0
    6.8336   11.7891   26.4852 C   0  0  0  0  0  0  0  0  0  0  0  0
    5.9646   12.5299   27.3986 N   0  0  0  0  0  0  0  0  0  0  0  0
    6.4564   13.4968   27.9967 O   0  0  0  0  0  0  0  0  0  0  0  0
    4.8048   12.1162   27.5490 O   0  0  0  0  0  0  0  0  0  0  0  0
    7.9133   12.4456   25.8795 C   0  0  0  0  0  0  0  0  0  0  0  0
    8.7291   11.7067   25.0005 C   0  0  0  0  0  0  0  0  0  0  0  0
  1  2  1  0
  2  3  1  0
  3  4  1  0
  4  5  1  0
  5  6  2  0
  6  7  1  0
  7  8  2  0
  8  9  1  0
  9 10  2  0
  4 11  2  0
 11 12  1  0
 12 13  1  0
 13 14  1  0
 14 15  1  0
 15 16  2  0
 15 17  1  0
 17 18  2  0
 18 19  1  0
 19 20  1  0
 19 21  1  0
 21 22  2  0
 22 23  1  0
 23 24  2  0
 24 25  1  0
 25 26  2  0
 25 27  1  0
 24 28  1  0
 28 29  2  0
 12  2  2  0
 29 17  1  0
 10  5  1  0
 29 21  1  0
M  CHG  2  25   1  27  -1
M  END
>  <energy_score>  (1425) 
-1.261573

>  <inchikey>  (1425) 
None

>  <smiles>  (1425) 
None

>  <ref_pdb>  (1425) 
A2290a

>  <alias>  (1425) 
None

>  <HIPPO Pose ID>  (1425) 
499069

>  <name>  (1425) 
P499069

>  <HIPPO Compound ID>  (1425) 
299478

>  <ref_mols>  (1425) 
A3403a,A2290a

>  <distance_score>  (1425) 
0.905217

>  <inspiration_score>  (1425) 
None

$$$$
P499070
     RDKit          3D

 29 32  0  0  0  0  0  0  0  0999 V2000
    9.6237    4.9701   22.7716 O   0  0  0  0  0  0  0  0  0  0  0  0
    9.6096    6.1995   22.7026 C   0  0  0  0  0  0  0  0  0  0  0  0
    8.7163    6.9807   22.0063 N   0  0  0  0  0  0  0  0  0  0  0  0
    8.8754    8.2846   22.4178 C   0  0  0  0  0  0  0  0  0  0  0  0
    9.6342    8.1628   23.6416 C   0  0  2  0  0  0  0  0  0  0  0  0
   10.4482    9.3584   23.6611 C   0  0  0  0  0  0  0  0  0  0  0  0
    9.7900   10.5734   24.0149 N   0  0  0  0  0  0  0  0  0  0  0  0
   10.4212   11.6161   23.5113 N   0  0  0  0  0  0  0  0  0  0  0  0
   10.1043   12.6128   24.3333 C   0  0  0  0  0  0  0  0  0  0  0  0
   10.8949   13.8130   24.1849 C   0  0  0  0  0  0  0  0  0  0  0  0
   11.1305   14.5554   25.0511 O   0  0  0  0  0  0  0  0  0  0  0  0
   11.2432   13.8820   22.6932 N   0  0  0  0  0  0  0  0  0  0  0  0
   11.8626   14.9058   21.9408 C   0  0  0  0  0  0  0  0  0  0  0  0
   10.8517   15.3198   20.9361 C   0  0  0  0  0  0  0  0  0  0  0  0
    9.8219   16.1518   21.2795 N   0  0  0  0  0  0  0  0  0  0  0  0
    9.3298   16.5615   20.1417 C   0  0  0  0  0  0  0  0  0  0  0  0
    9.8235   15.9157   19.0584 O   0  0  0  0  0  0  0  0  0  0  0  0
   10.8085   15.1122   19.5771 C   0  0  0  0  0  0  0  0  0  0  0  0
   11.6992   14.4125   18.6587 C   0  0  0  0  0  0  0  0  0  0  0  0
   11.0903   13.4389   17.9656 F   0  0  0  0  0  0  0  0  0  0  0  0
   12.2871   15.2271   17.7665 F   0  0  0  0  0  0  0  0  0  0  0  0
   12.7235   13.8120   19.3273 F   0  0  0  0  0  0  0  0  0  0  0  0
    8.9746   12.2779   25.1097 C   0  0  0  0  0  0  0  0  0  0  0  0
    8.1100   12.9678   25.9773 C   0  0  0  0  0  0  0  0  0  0  0  0
    7.0525   12.2772   26.5750 C   0  0  0  0  0  0  0  0  0  0  0  0
    6.8597   10.9220   26.3265 C   0  0  0  0  0  0  0  0  0  0  0  0
    7.7132   10.2143   25.4736 C   0  0  0  0  0  0  0  0  0  0  0  0
    8.7661   10.9123   24.8617 C   0  0  0  0  0  0  0  0  0  0  0  0
   10.4194    7.0206   23.4294 O   0  0  0  0  0  0  0  0  0  0  0  0
  1  2  2  0
  2  3  1  0
  3  4  1  0
  4  5  1  0
  5  6  1  6
  6  7  1  0
  7  8  1  0
  8  9  2  0
  9 10  1  0
 10 11  2  0
 10 12  1  0
 12 13  1  0
 13 14  1  0
 14 15  1  0
 15 16  2  0
 16 17  1  0
 17 18  1  0
 18 19  1  0
 19 20  1  0
 19 21  1  0
 19 22  1  0
  9 23  1  0
 23 24  2  0
 24 25  1  0
 25 26  2  0
 26 27  1  0
 27 28  2  0
  5 29  1  0
 29  2  1  0
 28  7  1  0
 18 14  2  0
 28 23  1  0
M  END
>  <energy_score>  (1426) 
-4.927153

>  <inchikey>  (1426) 
None

>  <smiles>  (1426) 
None

>  <ref_pdb>  (1426) 
A2290a

>  <alias>  (1426) 
None

>  <HIPPO Pose ID>  (1426) 
499070

>  <name>  (1426) 
P499070

>  <HIPPO Compound ID>  (1426) 
299485

>  <ref_mols>  (1426) 
A3403a,A2290a

>  <distance_score>  (1426) 
0.976807

>  <inspiration_score>  (1426) 
None

$$$$
P499071
     RDKit          3D

 29 32  0  0  0  0  0  0  0  0999 V2000
    8.6495   17.7683   20.9085 C   0  0  0  0  0  0  0  0  0  0  0  0
    8.5271   17.5175   19.4989 N   0  0  0  0  0  0  0  0  0  0  0  0
    8.1987   18.6862   18.7520 C   0  0  0  0  0  0  0  0  0  0  0  0
    9.5068   16.6632   18.8268 C   0  0  0  0  0  0  0  0  0  0  0  0
   10.1900   15.6216   19.6554 C   0  0  0  0  0  0  0  0  0  0  0  0
   10.2851   15.4955   20.9693 N   0  0  0  0  0  0  0  0  0  0  0  0
   11.4406   14.7736   21.1503 C   0  0  0  0  0  0  0  0  0  0  0  0
   12.0820   14.6530   22.4719 C   0  0  0  0  0  0  0  0  0  0  0  0
   11.1791   14.0163   23.3672 N   0  0  0  0  0  0  0  0  0  0  0  0
   10.9725   14.2036   24.8813 C   0  0  0  0  0  0  0  0  0  0  0  0
   11.4561   14.9646   25.6233 O   0  0  0  0  0  0  0  0  0  0  0  0
    9.9441   13.2598   25.2481 C   0  0  0  0  0  0  0  0  0  0  0  0
   10.1740   12.0092   24.8575 N   0  0  0  0  0  0  0  0  0  0  0  0
    9.1047   11.3606   25.2635 N   0  0  0  0  0  0  0  0  0  0  0  0
    9.0337    9.9828   24.9605 C   0  0  0  0  0  0  0  0  0  0  0  0
    8.5661    9.8648   23.5802 C   0  0  2  0  0  0  0  0  0  0  0  0
    8.4439    8.4079   23.3978 C   0  0  0  0  0  0  0  0  0  0  0  0
    9.7359    8.0586   22.9928 N   0  0  0  0  0  0  0  0  0  0  0  0
   10.1386    9.1121   22.2361 C   0  0  0  0  0  0  0  0  0  0  0  0
   10.8265    9.0165   21.2523 O   0  0  0  0  0  0  0  0  0  0  0  0
    9.5465   10.2607   22.6441 O   0  0  0  0  0  0  0  0  0  0  0  0
    8.1353   12.0963   25.8445 C   0  0  0  0  0  0  0  0  0  0  0  0
    6.8750   11.7404   26.3327 C   0  0  0  0  0  0  0  0  0  0  0  0
    6.1120   12.7681   26.8652 C   0  0  0  0  0  0  0  0  0  0  0  0
    6.6022   14.0736   26.8962 C   0  0  0  0  0  0  0  0  0  0  0  0
    7.8742   14.4004   26.3991 C   0  0  0  0  0  0  0  0  0  0  0  0
    8.6653   13.3826   25.8595 C   0  0  0  0  0  0  0  0  0  0  0  0
   11.9035   14.3565   19.9318 C   0  0  0  0  0  0  0  0  0  0  0  0
   11.1048   14.8710   18.9701 O   0  0  0  0  0  0  0  0  0  0  0  0
  1  2  1  0
  2  3  1  0
  2  4  1  0
  4  5  1  0
  5  6  2  0
  6  7  1  0
  7  8  1  0
  8  9  1  0
  9 10  1  0
 10 11  2  0
 10 12  1  0
 12 13  2  0
 13 14  1  0
 14 15  1  0
 16 15  1  1
 16 17  1  0
 17 18  1  0
 18 19  1  0
 19 20  2  0
 19 21  1  0
 14 22  1  0
 22 23  2  0
 23 24  1  0
 24 25  2  0
 25 26  1  0
 26 27  2  0
  7 28  2  0
 28 29  1  0
 29  5  1  0
 27 12  1  0
 21 16  1  0
 27 22  1  0
M  END
>  <energy_score>  (1427) 
-7.706322

>  <inchikey>  (1427) 
None

>  <smiles>  (1427) 
None

>  <ref_pdb>  (1427) 
A2290a

>  <alias>  (1427) 
None

>  <HIPPO Pose ID>  (1427) 
499071

>  <name>  (1427) 
P499071

>  <HIPPO Compound ID>  (1427) 
299490

>  <ref_mols>  (1427) 
A3403a,A2290a

>  <distance_score>  (1427) 
1.908386

>  <inspiration_score>  (1427) 
None

$$$$
P499072
     RDKit          3D

 29 33  0  0  0  0  0  0  0  0999 V2000
   11.8789   14.3340   18.7097 C   0  0  0  0  0  0  0  0  0  0  0  0
   11.1014   14.8800   19.8060 C   0  0  0  0  0  0  0  0  0  0  0  0
   10.0043   15.5903   19.4248 O   0  0  0  0  0  0  0  0  0  0  0  0
    9.5154   16.0732   20.5903 C   0  0  0  0  0  0  0  0  0  0  0  0
    8.3760   17.0982   20.6699 C   0  0  0  0  0  0  0  0  0  0  0  0
    8.3479   18.1414   19.5660 C   0  0  0  0  0  0  0  0  0  0  0  0
    8.6315   18.5176   20.9761 C   0  0  0  0  0  0  0  0  0  0  0  0
   10.1223   15.6136   21.6528 N   0  0  0  0  0  0  0  0  0  0  0  0
   11.2240   14.9553   21.1736 C   0  0  0  0  0  0  0  0  0  0  0  0
   12.2488   14.4628   22.1448 C   0  0  0  0  0  0  0  0  0  0  0  0
   11.4528   13.8298   23.1472 N   0  0  0  0  0  0  0  0  0  0  0  0
   11.2274   14.1985   24.6349 C   0  0  0  0  0  0  0  0  0  0  0  0
   11.7177   15.0312   25.2919 O   0  0  0  0  0  0  0  0  0  0  0  0
   10.1592   13.3302   25.0674 C   0  0  0  0  0  0  0  0  0  0  0  0
   10.0893   12.1964   24.3808 N   0  0  0  0  0  0  0  0  0  0  0  0
    8.8626   11.8053   24.5807 N   0  0  0  0  0  0  0  0  0  0  0  0
    8.4686   10.6936   23.7958 C   0  0  0  0  0  0  0  0  0  0  0  0
    9.3157    9.5840   24.2857 C   0  0  1  0  0  0  0  0  0  0  0  0
    8.6214    8.3397   24.0008 C   0  0  0  0  0  0  0  0  0  0  0  0
    9.0359    8.0446   22.6907 N   0  0  0  0  0  0  0  0  0  0  0  0
   10.1266    8.8127   22.4290 C   0  0  0  0  0  0  0  0  0  0  0  0
   10.6061    8.9946   21.3385 O   0  0  0  0  0  0  0  0  0  0  0  0
   10.5135    9.4653   23.5526 O   0  0  0  0  0  0  0  0  0  0  0  0
    8.2354   12.3488   25.6386 C   0  0  0  0  0  0  0  0  0  0  0  0
    7.0530   12.0044   26.2972 C   0  0  0  0  0  0  0  0  0  0  0  0
    6.6327   12.8779   27.2878 C   0  0  0  0  0  0  0  0  0  0  0  0
    7.3578   14.0388   27.5646 C   0  0  0  0  0  0  0  0  0  0  0  0
    8.5504   14.3544   26.8885 C   0  0  0  0  0  0  0  0  0  0  0  0
    9.0302   13.4581   25.9286 C   0  0  0  0  0  0  0  0  0  0  0  0
  1  2  1  0
  2  3  1  0
  3  4  1  0
  4  5  1  0
  5  6  1  0
  6  7  1  0
  4  8  2  0
  8  9  1  0
  9 10  1  0
 10 11  1  0
 11 12  1  0
 12 13  2  0
 12 14  1  0
 14 15  2  0
 15 16  1  0
 16 17  1  0
 18 17  1  6
 18 19  1  0
 19 20  1  0
 20 21  1  0
 21 22  2  0
 21 23  1  0
 16 24  1  0
 24 25  2  0
 25 26  1  0
 26 27  2  0
 27 28  1  0
 28 29  2  0
  9  2  2  0
 29 14  1  0
  7  5  1  0
 23 18  1  0
 29 24  1  0
M  END
>  <energy_score>  (1428) 
-4.225485

>  <inchikey>  (1428) 
None

>  <smiles>  (1428) 
None

>  <ref_pdb>  (1428) 
A2290a

>  <alias>  (1428) 
None

>  <HIPPO Pose ID>  (1428) 
499072

>  <name>  (1428) 
P499072

>  <HIPPO Compound ID>  (1428) 
299492

>  <ref_mols>  (1428) 
A3403a,A2290a

>  <distance_score>  (1428) 
1.897898

>  <inspiration_score>  (1428) 
None

$$$$
P499073
     RDKit          3D

 17 18  0  0  0  0  0  0  0  0999 V2000
    9.1758   15.2113   26.2581 O   0  0  0  0  0  0  0  0  0  0  0  0
    9.2135   14.2139   25.5655 C   0  0  0  0  0  0  0  0  0  0  0  0
    8.0834   13.2712   25.2145 C   0  0  0  0  0  0  0  0  0  0  0  0
    8.8018   12.2068   24.4311 C   0  0  0  0  0  0  0  0  0  0  0  0
    8.0146   11.2921   23.5730 C   0  0  0  0  0  0  0  0  0  0  0  0
    8.6421   10.7163   24.7668 C   0  0  0  0  0  0  0  0  0  0  0  0
   10.0773   12.8144   23.9191 C   0  0  1  0  0  0  0  0  0  0  0  0
    9.9328   13.6590   22.6250 C   0  0  0  0  0  0  0  0  0  0  0  0
    8.9168   13.8419   22.0756 O   0  0  0  0  0  0  0  0  0  0  0  0
   11.3555   14.2277   22.3334 N   0  0  0  0  0  0  0  0  0  0  0  0
   11.7929   15.2074   21.3676 C   0  0  0  0  0  0  0  0  0  0  0  0
   11.0598   15.1460   20.0333 C   0  0  0  0  0  0  0  0  0  0  0  0
   10.2005   16.3183   19.9050 C   0  0  0  0  0  0  0  0  0  0  0  0
    9.5606   17.3345   19.9205 C   0  0  0  0  0  0  0  0  0  0  0  0
    8.7550   18.5639   19.9936 C   0  0  0  0  0  0  0  0  0  0  0  0
    8.9142   19.1845   21.2456 O   0  0  0  0  0  0  0  0  0  0  0  0
   10.3725   13.7654   24.9584 N   0  0  0  0  0  0  0  0  0  0  0  0
  1  2  2  0
  2  3  1  0
  3  4  1  0
  4  5  1  0
  5  6  1  0
  4  7  1  0
  7  8  1  6
  8  9  2  0
  8 10  1  0
 10 11  1  0
 11 12  1  0
 12 13  1  0
 13 14  3  0
 14 15  1  0
 15 16  1  0
  7 17  1  0
 17  2  1  0
  6  4  1  0
M  END
>  <energy_score>  (1429) 
-7.431691

>  <inchikey>  (1429) 
None

>  <smiles>  (1429) 
None

>  <ref_pdb>  (1429) 
A3956a

>  <alias>  (1429) 
None

>  <HIPPO Pose ID>  (1429) 
499073

>  <name>  (1429) 
P499073

>  <HIPPO Compound ID>  (1429) 
299566

>  <ref_mols>  (1429) 
A3956a,A1778a

>  <distance_score>  (1429) 
1.589628

>  <inspiration_score>  (1429) 
None

$$$$
P499074
     RDKit          3D

 17 18  0  0  0  0  0  0  0  0999 V2000
   11.6380   15.1447   24.4565 C   0  0  0  0  0  0  0  0  0  0  0  0
   12.0647   15.9895   23.2633 C   0  0  0  0  0  0  0  0  0  0  0  0
   11.1726   15.9066   22.1450 C   0  0  0  0  0  0  0  0  0  0  0  0
   10.3793   15.3920   21.4250 C   0  0  0  0  0  0  0  0  0  0  0  0
    9.6847   14.1804   21.0849 C   0  0  0  0  0  0  0  0  0  0  0  0
   10.2547   13.1045   22.0323 C   0  0  0  0  0  0  0  0  0  0  0  0
    9.5558   12.8892   23.2554 N   0  0  0  0  0  0  0  0  0  0  0  0
    8.5469   13.7921   24.0105 C   0  0  0  0  0  0  0  0  0  0  0  0
    8.1929   14.8795   23.7875 O   0  0  0  0  0  0  0  0  0  0  0  0
    8.0565   12.8977   25.1256 C   0  0  1  0  0  0  0  0  0  0  0  0
    7.2953   13.5477   26.1671 N   0  0  0  0  0  0  0  0  0  0  0  0
    6.5582   12.5600   26.7854 C   0  0  0  0  0  0  0  0  0  0  0  0
    6.5161   12.3683   27.9853 O   0  0  0  0  0  0  0  0  0  0  0  0
    6.1258   11.6003   25.7094 C   0  0  2  0  0  0  0  0  0  0  0  0
    6.4563   10.1195   25.7983 C   0  0  0  0  0  0  0  0  0  0  0  0
    7.6069   10.3054   24.8084 C   0  0  0  0  0  0  0  0  0  0  0  0
    7.1722   11.7655   24.6004 C   0  0  2  0  0  0  0  0  0  0  0  0
  1  2  1  0
  2  3  1  0
  3  4  3  0
  4  5  1  0
  5  6  1  0
  6  7  1  0
  7  8  1  0
  8  9  2  0
 10  8  1  6
 10 11  1  0
 11 12  1  0
 12 13  2  0
 12 14  1  0
 14 15  1  1
 15 16  1  0
 17 16  1  1
 17 10  1  0
 17 14  1  0
M  END
>  <energy_score>  (1430) 
-0.338177

>  <inchikey>  (1430) 
None

>  <smiles>  (1430) 
None

>  <ref_pdb>  (1430) 
A3956a

>  <alias>  (1430) 
None

>  <HIPPO Pose ID>  (1430) 
499074

>  <name>  (1430) 
P499074

>  <HIPPO Compound ID>  (1430) 
299576

>  <ref_mols>  (1430) 
A3956a,A1778a

>  <distance_score>  (1430) 
1.952909

>  <inspiration_score>  (1430) 
None

$$$$
P499075
     RDKit          3D

 18 19  0  0  0  0  0  0  0  0999 V2000
   11.2133   15.1014   18.4843 C   0  0  0  0  0  0  0  0  0  0  0  0
   11.6706   14.9621   19.8562 C   0  0  0  0  0  0  0  0  0  0  0  0
   11.8717   14.9572   21.0365 C   0  0  0  0  0  0  0  0  0  0  0  0
   11.7801   15.1004   22.4814 C   0  0  0  0  0  0  0  0  0  0  0  0
   10.3184   15.2447   22.8931 C   0  0  1  0  0  0  0  0  0  0  0  0
    9.3832   15.8543   21.8343 C   0  0  0  0  0  0  0  0  0  0  0  0
    9.6945   14.0184   23.2803 N   0  0  0  0  0  0  0  0  0  0  0  0
    9.4237   13.4239   24.6952 C   0  0  0  0  0  0  0  0  0  0  0  0
    9.7391   13.8109   25.7510 O   0  0  0  0  0  0  0  0  0  0  0  0
    8.4978   12.1820   24.4191 C   0  0  2  0  0  0  0  0  0  0  0  0
    7.2018   12.8766   24.0236 C   0  0  0  0  0  0  0  0  0  0  0  0
    6.4900   13.0186   25.3631 C   0  0  0  0  0  0  0  0  0  0  0  0
    6.8499   11.7291   26.0166 C   0  0  0  0  0  0  0  0  0  0  0  0
    6.2050   11.1777   26.8903 O   0  0  0  0  0  0  0  0  0  0  0  0
    8.0111   11.2392   25.4019 N   0  0  0  0  0  0  0  0  0  0  0  0
    7.8338    9.8997   24.8608 C   0  0  0  0  0  0  0  0  0  0  0  0
    8.9470    9.5805   23.8949 C   0  0  0  0  0  0  0  0  0  0  0  0
    9.2862   11.1632   23.1254 S   0  0  0  0  0  0  0  0  0  0  0  0
  1  2  1  0
  2  3  3  0
  3  4  1  0
  4  5  1  0
  5  6  1  6
  5  7  1  0
  7  8  1  0
  8  9  2  0
 10  8  1  1
 10 11  1  0
 11 12  1  0
 12 13  1  0
 13 14  2  0
 13 15  1  0
 15 16  1  0
 16 17  1  0
 17 18  1  0
 15 10  1  0
 18 10  1  0
M  END
>  <energy_score>  (1431) 
-1.566492

>  <inchikey>  (1431) 
None

>  <smiles>  (1431) 
None

>  <ref_pdb>  (1431) 
A3956a

>  <alias>  (1431) 
None

>  <HIPPO Pose ID>  (1431) 
499075

>  <name>  (1431) 
P499075

>  <HIPPO Compound ID>  (1431) 
299592

>  <ref_mols>  (1431) 
A3956a,A1778a

>  <distance_score>  (1431) 
1.750488

>  <inspiration_score>  (1431) 
None

$$$$
P499076
     RDKit          3D

 21 21  0  0  0  0  0  0  0  0999 V2000
    7.2516    9.6734   25.1271 C   0  0  0  0  0  0  0  0  0  0  0  0
    6.2966   10.2604   26.1394 C   0  0  0  0  0  0  0  0  0  0  0  0
    6.2345   11.7143   26.0564 C   0  0  0  0  0  0  0  0  0  0  0  0
    5.9785   12.8738   25.8823 C   0  0  0  0  0  0  0  0  0  0  0  0
    5.3170   14.1368   25.5195 C   0  0  0  0  0  0  0  0  0  0  0  0
    6.1888   15.3889   25.4024 C   0  0  0  0  0  0  0  0  0  0  0  0
    7.2263   15.3559   24.3980 N   0  0  0  0  0  0  0  0  0  0  0  0
    7.1650   14.9600   22.8971 C   0  0  0  0  0  0  0  0  0  0  0  0
    6.2517   14.6743   22.2260 O   0  0  0  0  0  0  0  0  0  0  0  0
    8.6365   14.8848   22.3742 C   0  0  1  0  0  0  0  0  0  0  0  0
    8.9235   15.8660   21.2603 C   0  0  0  0  0  0  0  0  0  0  0  0
   10.4319   16.0627   21.2858 C   0  0  0  0  0  0  0  0  0  0  0  0
   10.8278   15.6925   22.6823 C   0  0  0  0  0  0  0  0  0  0  0  0
   11.9276   15.8319   23.1949 O   0  0  0  0  0  0  0  0  0  0  0  0
    9.7362   15.0971   23.3207 N   0  0  0  0  0  0  0  0  0  0  0  0
   10.0520   14.1501   24.3715 C   0  0  0  0  0  0  0  0  0  0  0  0
   10.2760   12.7650   23.8186 C   0  0  0  0  0  0  0  0  0  0  0  0
    9.0586   11.9488   24.1053 C   0  0  0  0  0  0  0  0  0  0  0  0
    9.2190   10.6990   23.6391 F   0  0  0  0  0  0  0  0  0  0  0  0
    7.9341   12.4504   23.5775 F   0  0  0  0  0  0  0  0  0  0  0  0
    8.8852   11.9040   25.4414 F   0  0  0  0  0  0  0  0  0  0  0  0
  1  2  1  0
  2  3  1  0
  3  4  3  0
  4  5  1  0
  5  6  1  0
  6  7  1  0
  7  8  1  0
  8  9  2  0
 10  8  1  1
 10 11  1  0
 11 12  1  0
 12 13  1  0
 13 14  2  0
 13 15  1  0
 15 16  1  0
 16 17  1  0
 17 18  1  0
 18 19  1  0
 18 20  1  0
 18 21  1  0
 15 10  1  0
M  END
>  <energy_score>  (1432) 
-31.433288

>  <inchikey>  (1432) 
None

>  <smiles>  (1432) 
None

>  <ref_pdb>  (1432) 
A3956a

>  <alias>  (1432) 
None

>  <HIPPO Pose ID>  (1432) 
499076

>  <name>  (1432) 
P499076

>  <HIPPO Compound ID>  (1432) 
299676

>  <ref_mols>  (1432) 
A3956a,A1778a

>  <distance_score>  (1432) 
1.97655

>  <inspiration_score>  (1432) 
None

$$$$
P499077
     RDKit          3D

 22 24  0  0  0  0  0  0  0  0999 V2000
   12.6743   14.4448   23.8970 C   0  0  0  0  0  0  0  0  0  0  0  0
   11.8982   14.1553   22.6275 C   0  0  2  0  0  0  0  0  0  0  0  0
   11.5191   15.4506   21.9347 C   0  0  0  0  0  0  0  0  0  0  0  0
   11.1853   15.2828   20.5473 N   0  0  0  0  0  0  0  0  0  0  0  0
   11.9419   14.6855   19.5967 C   0  0  0  0  0  0  0  0  0  0  0  0
   11.4720   14.9811   18.4184 N   0  0  0  0  0  0  0  0  0  0  0  0
   10.4327   15.8262   18.7083 C   0  0  0  0  0  0  0  0  0  0  0  0
   10.1803   15.9850   20.0081 N   0  0  0  0  0  0  0  0  0  0  0  0
   10.7703   13.3499   22.9657 N   0  0  0  0  0  0  0  0  0  0  0  0
    9.6387   13.5928   23.9685 C   0  0  0  0  0  0  0  0  0  0  0  0
    9.3998   14.5228   24.6264 O   0  0  0  0  0  0  0  0  0  0  0  0
    8.8884   12.3380   24.0613 C   0  0  0  0  0  0  0  0  0  0  0  0
    9.3272   11.2541   23.3925 N   0  0  0  0  0  0  0  0  0  0  0  0
    8.5983   10.2456   23.8800 N   0  0  0  0  0  0  0  0  0  0  0  0
    8.9699    8.9015   23.5110 C   0  0  0  0  0  0  0  0  0  0  0  0
    7.6450   10.6492   24.7826 C   0  0  0  0  0  0  0  0  0  0  0  0
    6.6835    9.9501   25.5139 C   0  0  0  0  0  0  0  0  0  0  0  0
    5.9005   10.6654   26.4215 C   0  0  0  0  0  0  0  0  0  0  0  0
    6.0466   12.0386   26.5511 C   0  0  0  0  0  0  0  0  0  0  0  0
    5.2823   12.6934   27.4359 F   0  0  0  0  0  0  0  0  0  0  0  0
    6.9875   12.7429   25.8063 C   0  0  0  0  0  0  0  0  0  0  0  0
    7.8025   12.0275   24.9097 C   0  0  0  0  0  0  0  0  0  0  0  0
  2  1  1  1
  2  3  1  0
  3  4  1  0
  4  5  1  0
  5  6  2  0
  6  7  1  0
  7  8  2  0
  2  9  1  0
  9 10  1  0
 10 11  2  0
 10 12  1  0
 12 13  2  0
 13 14  1  0
 14 15  1  0
 14 16  1  0
 16 17  2  0
 17 18  1  0
 18 19  2  0
 19 20  1  0
 19 21  1  0
 21 22  2  0
  8  4  1  0
 22 12  1  0
 22 16  1  0
M  END
>  <energy_score>  (1433) 
-12.095388

>  <inchikey>  (1433) 
None

>  <smiles>  (1433) 
None

>  <ref_pdb>  (1433) 
A3176a

>  <alias>  (1433) 
None

>  <HIPPO Pose ID>  (1433) 
499077

>  <name>  (1433) 
P499077

>  <HIPPO Compound ID>  (1433) 
299790

>  <ref_mols>  (1433) 
A3417a,A3176a

>  <distance_score>  (1433) 
0.657831

>  <inspiration_score>  (1433) 
None

$$$$
P499078
     RDKit          3D

 22 24  0  0  0  0  0  0  0  0999 V2000
   12.6982   14.6104   23.4255 C   0  0  0  0  0  0  0  0  0  0  0  0
   11.4819   14.8495   22.5573 C   0  0  1  0  0  0  0  0  0  0  0  0
   11.8115   14.8629   21.0624 C   0  0  0  0  0  0  0  0  0  0  0  0
   10.7918   15.5091   20.2607 N   0  0  0  0  0  0  0  0  0  0  0  0
   10.8463   15.7862   18.9320 C   0  0  0  0  0  0  0  0  0  0  0  0
    9.9970   16.7536   18.6608 N   0  0  0  0  0  0  0  0  0  0  0  0
    9.4175   17.0090   19.8607 C   0  0  0  0  0  0  0  0  0  0  0  0
    9.7954   16.1948   20.8428 N   0  0  0  0  0  0  0  0  0  0  0  0
   10.5058   13.8630   22.9257 N   0  0  0  0  0  0  0  0  0  0  0  0
    9.5112   13.8339   24.0876 C   0  0  0  0  0  0  0  0  0  0  0  0
    9.2664   14.6387   24.8921 O   0  0  0  0  0  0  0  0  0  0  0  0
    8.9142   12.4906   24.1209 C   0  0  0  0  0  0  0  0  0  0  0  0
    9.4360   11.4889   23.3830 N   0  0  0  0  0  0  0  0  0  0  0  0
    8.7567   10.3998   23.7746 N   0  0  0  0  0  0  0  0  0  0  0  0
    9.1425    9.1182   23.2307 C   0  0  0  0  0  0  0  0  0  0  0  0
    7.7806   10.6688   24.7009 C   0  0  0  0  0  0  0  0  0  0  0  0
    6.8586    9.8560   25.3618 C   0  0  0  0  0  0  0  0  0  0  0  0
    6.0041   10.4527   26.2913 C   0  0  0  0  0  0  0  0  0  0  0  0
    6.0516   11.8202   26.5184 C   0  0  0  0  0  0  0  0  0  0  0  0
    5.2200   12.3600   27.4197 F   0  0  0  0  0  0  0  0  0  0  0  0
    6.9629   12.6346   25.8535 C   0  0  0  0  0  0  0  0  0  0  0  0
    7.8475   12.0398   24.9341 C   0  0  0  0  0  0  0  0  0  0  0  0
  2  1  1  1
  2  3  1  0
  3  4  1  0
  4  5  1  0
  5  6  2  0
  6  7  1  0
  7  8  2  0
  2  9  1  0
  9 10  1  0
 10 11  2  0
 10 12  1  0
 12 13  2  0
 13 14  1  0
 14 15  1  0
 14 16  1  0
 16 17  2  0
 17 18  1  0
 18 19  2  0
 19 20  1  0
 19 21  1  0
 21 22  2  0
  8  4  1  0
 22 12  1  0
 22 16  1  0
M  END
>  <energy_score>  (1434) 
-26.376384

>  <inchikey>  (1434) 
None

>  <smiles>  (1434) 
None

>  <ref_pdb>  (1434) 
A3176a

>  <alias>  (1434) 
None

>  <HIPPO Pose ID>  (1434) 
499078

>  <name>  (1434) 
P499078

>  <HIPPO Compound ID>  (1434) 
299790

>  <ref_mols>  (1434) 
A3417a,A3176a

>  <distance_score>  (1434) 
0.77556

>  <inspiration_score>  (1434) 
None

$$$$
P499079
     RDKit          3D

 22 25  0  0  0  0  0  0  0  0999 V2000
    9.0771    9.1353   23.3039 C   0  0  0  0  0  0  0  0  0  0  0  0
    8.7584   10.3980   23.9309 N   0  0  0  0  0  0  0  0  0  0  0  0
    9.5314   11.4511   23.6504 N   0  0  0  0  0  0  0  0  0  0  0  0
    9.0487   12.4584   24.4035 C   0  0  0  0  0  0  0  0  0  0  0  0
    9.6724   13.7990   24.3770 C   0  0  0  0  0  0  0  0  0  0  0  0
    9.4095   14.6456   25.1520 O   0  0  0  0  0  0  0  0  0  0  0  0
   10.5558   13.8326   23.1649 N   0  0  0  0  0  0  0  0  0  0  0  0
   11.4603   14.9346   22.6226 C   0  0  0  0  0  0  0  0  0  0  0  0
   10.5114   15.4493   21.6284 C   0  0  0  0  0  0  0  0  0  0  0  0
   10.9301   15.4919   20.2469 N   0  0  0  0  0  0  0  0  0  0  0  0
   11.8516   14.7119   19.6264 C   0  0  0  0  0  0  0  0  0  0  0  0
   11.9913   15.1130   18.3903 N   0  0  0  0  0  0  0  0  0  0  0  0
   11.0932   16.1493   18.3113 C   0  0  0  0  0  0  0  0  0  0  0  0
   10.3515   16.3441   19.4005 N   0  0  0  0  0  0  0  0  0  0  0  0
    9.7573   14.2361   21.8921 C   0  0  0  0  0  0  0  0  0  0  0  0
    7.9091   12.0407   25.1339 C   0  0  0  0  0  0  0  0  0  0  0  0
    7.0001   12.6556   26.0147 C   0  0  0  0  0  0  0  0  0  0  0  0
    6.0243   11.8665   26.6160 C   0  0  0  0  0  0  0  0  0  0  0  0
    5.1817   12.4208   27.4982 F   0  0  0  0  0  0  0  0  0  0  0  0
    5.9287   10.5080   26.3536 C   0  0  0  0  0  0  0  0  0  0  0  0
    6.7816    9.8991   25.4315 C   0  0  0  0  0  0  0  0  0  0  0  0
    7.7696   10.6846   24.8373 C   0  0  0  0  0  0  0  0  0  0  0  0
  1  2  1  0
  2  3  1  0
  3  4  2  0
  4  5  1  0
  5  6  2  0
  5  7  1  0
  7  8  1  0
  8  9  1  0
  9 10  1  0
 10 11  1  0
 11 12  2  0
 12 13  1  0
 13 14  2  0
  9 15  1  0
  4 16  1  0
 16 17  2  0
 17 18  1  0
 18 19  1  0
 18 20  2  0
 20 21  1  0
 21 22  2  0
 22  2  1  0
 15  7  1  0
 22 16  1  0
 14 10  1  0
M  END
>  <energy_score>  (1435) 
-5.299478

>  <inchikey>  (1435) 
None

>  <smiles>  (1435) 
None

>  <ref_pdb>  (1435) 
A3176a

>  <alias>  (1435) 
None

>  <HIPPO Pose ID>  (1435) 
499079

>  <name>  (1435) 
P499079

>  <HIPPO Compound ID>  (1435) 
299793

>  <ref_mols>  (1435) 
A3417a,A3176a

>  <distance_score>  (1435) 
0.963489

>  <inspiration_score>  (1435) 
None

$$$$
P499080
     RDKit          3D

 22 24  0  0  0  0  0  0  0  0999 V2000
    9.2141    9.1111   23.1688 C   0  0  0  0  0  0  0  0  0  0  0  0
    8.8997   10.4106   23.7190 N   0  0  0  0  0  0  0  0  0  0  0  0
    9.6625   11.4608   23.3669 N   0  0  0  0  0  0  0  0  0  0  0  0
    9.1780   12.4901   24.0905 C   0  0  0  0  0  0  0  0  0  0  0  0
    9.8597   13.8022   24.0877 C   0  0  0  0  0  0  0  0  0  0  0  0
    9.5469   14.6545   24.8180 O   0  0  0  0  0  0  0  0  0  0  0  0
   11.0018   13.7381   23.0639 N   0  0  0  0  0  0  0  0  0  0  0  0
   11.9444   14.7421   22.6521 C   0  0  0  0  0  0  0  0  0  0  0  0
   12.1898   14.7793   21.1530 C   0  0  0  0  0  0  0  0  0  0  0  0
   11.1184   15.3253   20.3603 N   0  0  0  0  0  0  0  0  0  0  0  0
   10.9661   15.1891   19.0213 C   0  0  0  0  0  0  0  0  0  0  0  0
   10.0912   16.0664   18.5991 N   0  0  0  0  0  0  0  0  0  0  0  0
    9.7889   16.7784   19.7128 C   0  0  0  0  0  0  0  0  0  0  0  0
    8.8182   18.3824   19.6197 Br  0  0  0  0  0  0  0  0  0  0  0  0
   10.3277   16.2951   20.8350 N   0  0  0  0  0  0  0  0  0  0  0  0
    8.0497   12.0944   24.8587 C   0  0  0  0  0  0  0  0  0  0  0  0
    7.1630   12.7296   25.7499 C   0  0  0  0  0  0  0  0  0  0  0  0
    6.2050   11.9560   26.4016 C   0  0  0  0  0  0  0  0  0  0  0  0
    5.3786   12.5364   27.2824 F   0  0  0  0  0  0  0  0  0  0  0  0
    6.1118   10.5876   26.1907 C   0  0  0  0  0  0  0  0  0  0  0  0
    6.9617    9.9490   25.2857 C   0  0  0  0  0  0  0  0  0  0  0  0
    7.9232   10.7251   24.6310 C   0  0  0  0  0  0  0  0  0  0  0  0
  1  2  1  0
  2  3  1  0
  3  4  2  0
  4  5  1  0
  5  6  2  0
  5  7  1  0
  7  8  1  0
  8  9  1  0
  9 10  1  0
 10 11  1  0
 11 12  2  0
 12 13  1  0
 13 14  1  0
 13 15  2  0
  4 16  1  0
 16 17  2  0
 17 18  1  0
 18 19  1  0
 18 20  2  0
 20 21  1  0
 21 22  2  0
 22  2  1  0
 15 10  1  0
 22 16  1  0
M  END
>  <energy_score>  (1436) 
-1.660298

>  <inchikey>  (1436) 
None

>  <smiles>  (1436) 
None

>  <ref_pdb>  (1436) 
A3176a

>  <alias>  (1436) 
None

>  <HIPPO Pose ID>  (1436) 
499080

>  <name>  (1436) 
P499080

>  <HIPPO Compound ID>  (1436) 
299794

>  <ref_mols>  (1436) 
A3417a,A3176a

>  <distance_score>  (1436) 
0.634656

>  <inspiration_score>  (1436) 
None

$$$$
P499081
     RDKit          3D

 23 26  0  0  0  0  0  0  0  0999 V2000
    9.1472    9.0790   23.2042 C   0  0  0  0  0  0  0  0  0  0  0  0
    8.7529   10.3095   23.8495 N   0  0  0  0  0  0  0  0  0  0  0  0
    9.4234   11.4354   23.5492 N   0  0  0  0  0  0  0  0  0  0  0  0
    8.9037   12.3478   24.3906 C   0  0  0  0  0  0  0  0  0  0  0  0
    9.3836   13.7188   24.4406 C   0  0  0  0  0  0  0  0  0  0  0  0
    9.2053   14.3959   25.3667 O   0  0  0  0  0  0  0  0  0  0  0  0
   10.0046   14.0374   23.0919 N   0  0  0  0  0  0  0  0  0  0  0  0
   10.4505   15.2590   22.5564 C   0  0  0  0  0  0  0  0  0  0  0  0
   11.2436   15.2001   21.3008 C   0  0  0  0  0  0  0  0  0  0  0  0
   10.5902   15.9578   20.1967 N   0  0  0  0  0  0  0  0  0  0  0  0
   10.7256   15.7883   18.8601 C   0  0  0  0  0  0  0  0  0  0  0  0
   10.0461   16.7334   18.2426 N   0  0  0  0  0  0  0  0  0  0  0  0
    9.5106   17.4561   19.2512 C   0  0  0  0  0  0  0  0  0  0  0  0
    9.7932   16.9988   20.4637 N   0  0  0  0  0  0  0  0  0  0  0  0
   12.7333   15.3453   21.5685 C   0  0  0  0  0  0  0  0  0  0  0  0
   12.1973   14.0581   21.0536 C   0  0  0  0  0  0  0  0  0  0  0  0
    7.8166   11.8438   25.1284 C   0  0  0  0  0  0  0  0  0  0  0  0
    6.8921   12.3845   26.0421 C   0  0  0  0  0  0  0  0  0  0  0  0
    5.9542   11.5341   26.6077 C   0  0  0  0  0  0  0  0  0  0  0  0
    5.0844   12.0096   27.5086 F   0  0  0  0  0  0  0  0  0  0  0  0
    5.9214   10.1894   26.2797 C   0  0  0  0  0  0  0  0  0  0  0  0
    6.8050    9.6599   25.3346 C   0  0  0  0  0  0  0  0  0  0  0  0
    7.7533   10.5054   24.7712 C   0  0  0  0  0  0  0  0  0  0  0  0
  1  2  1  0
  2  3  1  0
  3  4  2  0
  4  5  1  0
  5  6  2  0
  5  7  1  0
  7  8  1  0
  8  9  1  0
  9 10  1  0
 10 11  1  0
 11 12  2  0
 12 13  1  0
 13 14  2  0
  9 15  1  0
 15 16  1  0
  4 17  1  0
 17 18  2  0
 18 19  1  0
 19 20  1  0
 19 21  2  0
 21 22  1  0
 22 23  2  0
 23  2  1  0
 16  9  1  0
 23 17  1  0
 14 10  1  0
M  END
>  <energy_score>  (1437) 
-32.156322

>  <inchikey>  (1437) 
None

>  <smiles>  (1437) 
None

>  <ref_pdb>  (1437) 
A3176a

>  <alias>  (1437) 
None

>  <HIPPO Pose ID>  (1437) 
499081

>  <name>  (1437) 
P499081

>  <HIPPO Compound ID>  (1437) 
299797

>  <ref_mols>  (1437) 
A3417a,A3176a

>  <distance_score>  (1437) 
1.018025

>  <inspiration_score>  (1437) 
None

$$$$
P499082
     RDKit          3D

 23 25  0  0  0  0  0  0  0  0999 V2000
   12.3945   14.9914   22.8060 C   0  0  0  0  0  0  0  0  0  0  0  0
   11.0258   14.9655   22.1363 C   0  0  2  0  0  0  0  0  0  0  0  0
   10.2627   13.8912   22.7236 N   0  0  0  0  0  0  0  0  0  0  0  0
    9.4645   13.8357   24.0268 C   0  0  0  0  0  0  0  0  0  0  0  0
    9.2278   14.6698   24.8029 O   0  0  0  0  0  0  0  0  0  0  0  0
    8.9499   12.4668   24.1531 C   0  0  0  0  0  0  0  0  0  0  0  0
    9.4818   11.4657   23.4230 N   0  0  0  0  0  0  0  0  0  0  0  0
    8.7933   10.3771   23.8000 N   0  0  0  0  0  0  0  0  0  0  0  0
    9.1568    9.1022   23.2253 C   0  0  0  0  0  0  0  0  0  0  0  0
    7.8142   10.6454   24.7241 C   0  0  0  0  0  0  0  0  0  0  0  0
    6.8741    9.8365   25.3630 C   0  0  0  0  0  0  0  0  0  0  0  0
    6.0114   10.4331   26.2851 C   0  0  0  0  0  0  0  0  0  0  0  0
    6.0641   11.7988   26.5211 C   0  0  0  0  0  0  0  0  0  0  0  0
    5.2198   12.3392   27.4101 F   0  0  0  0  0  0  0  0  0  0  0  0
    6.9900   12.6109   25.8741 C   0  0  0  0  0  0  0  0  0  0  0  0
    7.8897   12.0135   24.9712 C   0  0  0  0  0  0  0  0  0  0  0  0
   10.9675   14.8612   20.5845 C   0  0  2  0  0  0  0  0  0  0  0  0
   12.2875   14.4691   19.9464 C   0  0  0  0  0  0  0  0  0  0  0  0
   10.3445   16.0213   19.9611 N   0  0  0  0  0  0  0  0  0  0  0  0
   10.5030   16.5358   18.7125 C   0  0  0  0  0  0  0  0  0  0  0  0
    9.7625   17.6154   18.5795 N   0  0  0  0  0  0  0  0  0  0  0  0
    9.1170   17.6837   19.7719 C   0  0  0  0  0  0  0  0  0  0  0  0
    9.3697   16.6768   20.6069 N   0  0  0  0  0  0  0  0  0  0  0  0
  2  1  1  1
  2  3  1  0
  3  4  1  0
  4  5  2  0
  4  6  1  0
  6  7  2  0
  7  8  1  0
  8  9  1  0
  8 10  1  0
 10 11  2  0
 11 12  1  0
 12 13  2  0
 13 14  1  0
 13 15  1  0
 15 16  2  0
  2 17  1  0
 17 18  1  6
 17 19  1  0
 19 20  1  0
 20 21  2  0
 21 22  1  0
 22 23  2  0
 16  6  1  0
 23 19  1  0
 16 10  1  0
M  END
>  <energy_score>  (1438) 
-8.303204

>  <inchikey>  (1438) 
None

>  <smiles>  (1438) 
None

>  <ref_pdb>  (1438) 
A3176a

>  <alias>  (1438) 
None

>  <HIPPO Pose ID>  (1438) 
499082

>  <name>  (1438) 
P499082

>  <HIPPO Compound ID>  (1438) 
299800

>  <ref_mols>  (1438) 
A3417a,A3176a

>  <distance_score>  (1438) 
1.024075

>  <inspiration_score>  (1438) 
None

$$$$
P499083
     RDKit          3D

 23 25  0  0  0  0  0  0  0  0999 V2000
   12.3219   14.5947   24.1915 C   0  0  0  0  0  0  0  0  0  0  0  0
   11.9351   13.8635   22.9066 C   0  0  1  0  0  0  0  0  0  0  0  0
   10.7360   13.1487   23.1384 N   0  0  0  0  0  0  0  0  0  0  0  0
    9.5155   13.5029   23.9935 C   0  0  0  0  0  0  0  0  0  0  0  0
    9.2639   14.4735   24.5849 O   0  0  0  0  0  0  0  0  0  0  0  0
    8.6981   12.2956   24.0297 C   0  0  0  0  0  0  0  0  0  0  0  0
    9.0971   11.2064   23.3412 N   0  0  0  0  0  0  0  0  0  0  0  0
    8.4168   10.2064   23.9026 N   0  0  0  0  0  0  0  0  0  0  0  0
    8.8172    8.8615   23.5781 C   0  0  0  0  0  0  0  0  0  0  0  0
    7.4896   10.6244   24.8237 C   0  0  0  0  0  0  0  0  0  0  0  0
    6.5583    9.9399   25.6031 C   0  0  0  0  0  0  0  0  0  0  0  0
    5.8119   10.6696   26.5299 C   0  0  0  0  0  0  0  0  0  0  0  0
    5.9652   12.0436   26.6352 C   0  0  0  0  0  0  0  0  0  0  0  0
    5.2406   12.7115   27.5430 F   0  0  0  0  0  0  0  0  0  0  0  0
    6.8735   12.7351   25.8413 C   0  0  0  0  0  0  0  0  0  0  0  0
    7.6405   12.0053   24.9152 C   0  0  0  0  0  0  0  0  0  0  0  0
   12.0693   14.6179   21.5693 C   0  0  2  0  0  0  0  0  0  0  0  0
   13.0039   15.7935   21.7467 C   0  0  0  0  0  0  0  0  0  0  0  0
   10.8844   15.0768   20.8751 N   0  0  0  0  0  0  0  0  0  0  0  0
   10.8010   15.3288   19.5355 C   0  0  0  0  0  0  0  0  0  0  0  0
    9.8156   16.1650   19.3157 N   0  0  0  0  0  0  0  0  0  0  0  0
    9.3087   16.3823   20.5586 C   0  0  0  0  0  0  0  0  0  0  0  0
    9.8842   15.6756   21.5316 N   0  0  0  0  0  0  0  0  0  0  0  0
  2  1  1  1
  2  3  1  0
  3  4  1  0
  4  5  2  0
  4  6  1  0
  6  7  2  0
  7  8  1  0
  8  9  1  0
  8 10  1  0
 10 11  2  0
 11 12  1  0
 12 13  2  0
 13 14  1  0
 13 15  1  0
 15 16  2  0
  2 17  1  0
 17 18  1  1
 17 19  1  0
 19 20  1  0
 20 21  2  0
 21 22  1  0
 22 23  2  0
 16  6  1  0
 23 19  1  0
 16 10  1  0
M  END
>  <energy_score>  (1439) 
-13.555427

>  <inchikey>  (1439) 
None

>  <smiles>  (1439) 
None

>  <ref_pdb>  (1439) 
A3176a

>  <alias>  (1439) 
None

>  <HIPPO Pose ID>  (1439) 
499083

>  <name>  (1439) 
P499083

>  <HIPPO Compound ID>  (1439) 
299800

>  <ref_mols>  (1439) 
A3417a,A3176a

>  <distance_score>  (1439) 
0.930302

>  <inspiration_score>  (1439) 
None

$$$$
P499084
     RDKit          3D

 23 25  0  0  0  0  0  0  0  0999 V2000
   12.6314   14.7459   23.2244 C   0  0  0  0  0  0  0  0  0  0  0  0
   11.3662   14.9928   22.4163 C   0  0  2  0  0  0  0  0  0  0  0  0
   10.4453   13.9550   22.7730 N   0  0  0  0  0  0  0  0  0  0  0  0
    9.4321   13.8736   23.9205 C   0  0  0  0  0  0  0  0  0  0  0  0
    9.1268   14.6674   24.7159 O   0  0  0  0  0  0  0  0  0  0  0  0
    8.8958   12.5054   23.9802 C   0  0  0  0  0  0  0  0  0  0  0  0
    9.4378   11.5058   23.2572 N   0  0  0  0  0  0  0  0  0  0  0  0
    8.8059   10.4025   23.6919 N   0  0  0  0  0  0  0  0  0  0  0  0
    9.2220    9.1179   23.1774 C   0  0  0  0  0  0  0  0  0  0  0  0
    7.8304   10.6602   24.6221 C   0  0  0  0  0  0  0  0  0  0  0  0
    6.9362    9.8329   25.3036 C   0  0  0  0  0  0  0  0  0  0  0  0
    6.0709   10.4212   26.2285 C   0  0  0  0  0  0  0  0  0  0  0  0
    6.0893   11.7920   26.4394 C   0  0  0  0  0  0  0  0  0  0  0  0
    5.2512   12.3226   27.3401 F   0  0  0  0  0  0  0  0  0  0  0  0
    6.9733   12.6193   25.7537 C   0  0  0  0  0  0  0  0  0  0  0  0
    7.8600   12.0356   24.8277 C   0  0  0  0  0  0  0  0  0  0  0  0
   11.6381   15.2694   20.9251 C   0  0  1  0  0  0  0  0  0  0  0  0
   12.2415   14.1472   20.1185 C   0  0  0  0  0  0  0  0  0  0  0  0
   10.5363   15.8919   20.2050 N   0  0  0  0  0  0  0  0  0  0  0  0
   10.5420   16.3201   18.9079 C   0  0  0  0  0  0  0  0  0  0  0  0
    9.6753   17.2970   18.7672 N   0  0  0  0  0  0  0  0  0  0  0  0
    9.1073   17.3738   20.0000 C   0  0  0  0  0  0  0  0  0  0  0  0
    9.5230   16.4548   20.8714 N   0  0  0  0  0  0  0  0  0  0  0  0
  2  1  1  1
  2  3  1  0
  3  4  1  0
  4  5  2  0
  4  6  1  0
  6  7  2  0
  7  8  1  0
  8  9  1  0
  8 10  1  0
 10 11  2  0
 11 12  1  0
 12 13  2  0
 13 14  1  0
 13 15  1  0
 15 16  2  0
  2 17  1  0
 17 18  1  6
 17 19  1  0
 19 20  1  0
 20 21  2  0
 21 22  1  0
 22 23  2  0
 16  6  1  0
 23 19  1  0
 16 10  1  0
M  END
>  <energy_score>  (1440) 
-28.044021

>  <inchikey>  (1440) 
None

>  <smiles>  (1440) 
None

>  <ref_pdb>  (1440) 
A3176a

>  <alias>  (1440) 
None

>  <HIPPO Pose ID>  (1440) 
499084

>  <name>  (1440) 
P499084

>  <HIPPO Compound ID>  (1440) 
299800

>  <ref_mols>  (1440) 
A3417a,A3176a

>  <distance_score>  (1440) 
0.896814

>  <inspiration_score>  (1440) 
None

$$$$
P499085
     RDKit          3D

 23 25  0  0  0  0  0  0  0  0999 V2000
   12.1572   14.9057   25.1929 C   0  0  0  0  0  0  0  0  0  0  0  0
   12.7579   14.2061   23.9869 C   0  0  0  0  0  0  0  0  0  0  0  0
   11.9083   14.0737   22.7168 C   0  0  2  0  0  0  0  0  0  0  0  0
   11.5911   15.3974   22.0389 C   0  0  0  0  0  0  0  0  0  0  0  0
   11.2450   15.2627   20.6446 N   0  0  0  0  0  0  0  0  0  0  0  0
   11.9712   14.6538   19.6759 C   0  0  0  0  0  0  0  0  0  0  0  0
   11.4713   14.9386   18.5062 N   0  0  0  0  0  0  0  0  0  0  0  0
   10.4482   15.7950   18.8139 C   0  0  0  0  0  0  0  0  0  0  0  0
   10.2434   15.9829   20.1201 N   0  0  0  0  0  0  0  0  0  0  0  0
   10.7564   13.2826   23.0055 N   0  0  0  0  0  0  0  0  0  0  0  0
    9.5045   13.6087   23.8272 C   0  0  0  0  0  0  0  0  0  0  0  0
    9.1739   14.6015   24.3380 O   0  0  0  0  0  0  0  0  0  0  0  0
    8.7738   12.3473   23.9642 C   0  0  0  0  0  0  0  0  0  0  0  0
    9.2474   11.2437   23.3540 N   0  0  0  0  0  0  0  0  0  0  0  0
    8.5366   10.2422   23.8768 N   0  0  0  0  0  0  0  0  0  0  0  0
    8.9204    8.8948   23.5359 C   0  0  0  0  0  0  0  0  0  0  0  0
    7.5907   10.6589   24.7802 C   0  0  0  0  0  0  0  0  0  0  0  0
    6.6554    9.9682   25.5520 C   0  0  0  0  0  0  0  0  0  0  0  0
    5.8776   10.6987   26.4518 C   0  0  0  0  0  0  0  0  0  0  0  0
    6.0021   12.0775   26.5342 C   0  0  0  0  0  0  0  0  0  0  0  0
    5.2455   12.7477   27.4138 F   0  0  0  0  0  0  0  0  0  0  0  0
    6.9098   12.7745   25.7425 C   0  0  0  0  0  0  0  0  0  0  0  0
    7.7157   12.0451   24.8492 C   0  0  0  0  0  0  0  0  0  0  0  0
  1  2  1  0
  3  2  1  1
  3  4  1  0
  4  5  1  0
  5  6  1  0
  6  7  2  0
  7  8  1  0
  8  9  2  0
  3 10  1  0
 10 11  1  0
 11 12  2  0
 11 13  1  0
 13 14  2  0
 14 15  1  0
 15 16  1  0
 15 17  1  0
 17 18  2  0
 18 19  1  0
 19 20  2  0
 20 21  1  0
 20 22  1  0
 22 23  2  0
  9  5  1  0
 23 13  1  0
 23 17  1  0
M  END
>  <energy_score>  (1441) 
-33.948225

>  <inchikey>  (1441) 
None

>  <smiles>  (1441) 
None

>  <ref_pdb>  (1441) 
A3176a

>  <alias>  (1441) 
None

>  <HIPPO Pose ID>  (1441) 
499085

>  <name>  (1441) 
P499085

>  <HIPPO Compound ID>  (1441) 
299802

>  <ref_mols>  (1441) 
A3417a,A3176a

>  <distance_score>  (1441) 
1.005418

>  <inspiration_score>  (1441) 
None

$$$$
P499086
     RDKit          3D

 23 25  0  0  0  0  0  0  0  0999 V2000
   12.4413   14.5479   24.9609 C   0  0  0  0  0  0  0  0  0  0  0  0
   12.6853   14.4671   23.4576 C   0  0  0  0  0  0  0  0  0  0  0  0
   11.4614   14.7944   22.6074 C   0  0  1  0  0  0  0  0  0  0  0  0
   11.8021   14.8492   21.1123 C   0  0  0  0  0  0  0  0  0  0  0  0
   10.7923   15.5121   20.3141 N   0  0  0  0  0  0  0  0  0  0  0  0
   10.8243   15.7507   18.9773 C   0  0  0  0  0  0  0  0  0  0  0  0
    9.9801   16.7193   18.6943 N   0  0  0  0  0  0  0  0  0  0  0  0
    9.4235   17.0142   19.8963 C   0  0  0  0  0  0  0  0  0  0  0  0
    9.8354   16.2457   20.9007 N   0  0  0  0  0  0  0  0  0  0  0  0
   10.4690   13.8132   22.9353 N   0  0  0  0  0  0  0  0  0  0  0  0
    9.3448   13.8441   23.9728 C   0  0  0  0  0  0  0  0  0  0  0  0
    8.9916   14.7002   24.6779 O   0  0  0  0  0  0  0  0  0  0  0  0
    8.7806   12.4902   24.0342 C   0  0  0  0  0  0  0  0  0  0  0  0
    9.3374   11.4874   23.3251 N   0  0  0  0  0  0  0  0  0  0  0  0
    8.6979   10.3859   23.7457 N   0  0  0  0  0  0  0  0  0  0  0  0
    9.1107    9.1055   23.2162 C   0  0  0  0  0  0  0  0  0  0  0  0
    7.7283   10.6471   24.6821 C   0  0  0  0  0  0  0  0  0  0  0  0
    6.8409    9.8221   25.3718 C   0  0  0  0  0  0  0  0  0  0  0  0
    5.9869   10.4101   26.3072 C   0  0  0  0  0  0  0  0  0  0  0  0
    6.0025   11.7814   26.5139 C   0  0  0  0  0  0  0  0  0  0  0  0
    5.1733   12.3121   27.4229 F   0  0  0  0  0  0  0  0  0  0  0  0
    6.8741   12.6098   25.8151 C   0  0  0  0  0  0  0  0  0  0  0  0
    7.7514   12.0243   24.8829 C   0  0  0  0  0  0  0  0  0  0  0  0
  1  2  1  0
  3  2  1  1
  3  4  1  0
  4  5  1  0
  5  6  1  0
  6  7  2  0
  7  8  1  0
  8  9  2  0
  3 10  1  0
 10 11  1  0
 11 12  2  0
 11 13  1  0
 13 14  2  0
 14 15  1  0
 15 16  1  0
 15 17  1  0
 17 18  2  0
 18 19  1  0
 19 20  2  0
 20 21  1  0
 20 22  1  0
 22 23  2  0
  9  5  1  0
 23 13  1  0
 23 17  1  0
M  END
>  <energy_score>  (1442) 
-27.110731

>  <inchikey>  (1442) 
None

>  <smiles>  (1442) 
None

>  <ref_pdb>  (1442) 
A3176a

>  <alias>  (1442) 
None

>  <HIPPO Pose ID>  (1442) 
499086

>  <name>  (1442) 
P499086

>  <HIPPO Compound ID>  (1442) 
299802

>  <ref_mols>  (1442) 
A3417a,A3176a

>  <distance_score>  (1442) 
0.736833

>  <inspiration_score>  (1442) 
None

$$$$
P499087
     RDKit          3D

 23 25  0  0  0  0  0  0  0  0999 V2000
    9.2097    9.1193   23.1683 C   0  0  0  0  0  0  0  0  0  0  0  0
    8.8837   10.4114   23.7293 N   0  0  0  0  0  0  0  0  0  0  0  0
    9.6358   11.4711   23.3841 N   0  0  0  0  0  0  0  0  0  0  0  0
    9.1362   12.4918   24.1096 C   0  0  0  0  0  0  0  0  0  0  0  0
    9.7947   13.8135   24.0969 C   0  0  0  0  0  0  0  0  0  0  0  0
    9.5140   14.6468   24.8608 O   0  0  0  0  0  0  0  0  0  0  0  0
   10.8713   13.7871   23.0050 N   0  0  0  0  0  0  0  0  0  0  0  0
   11.8943   14.7403   22.6805 C   0  0  0  0  0  0  0  0  0  0  0  0
   12.1975   14.8135   21.1962 C   0  0  0  0  0  0  0  0  0  0  0  0
   11.1364   15.3504   20.3823 N   0  0  0  0  0  0  0  0  0  0  0  0
   10.9503   15.1197   19.0601 C   0  0  0  0  0  0  0  0  0  0  0  0
   10.0665   15.9659   18.5947 N   0  0  0  0  0  0  0  0  0  0  0  0
    9.7985   16.7634   19.6607 C   0  0  0  0  0  0  0  0  0  0  0  0
    9.0833   17.9935   19.4973 C   0  0  0  0  0  0  0  0  0  0  0  0
    8.5532   19.0007   19.2602 N   0  0  0  0  0  0  0  0  0  0  0  0
   10.3789   16.3775   20.8023 N   0  0  0  0  0  0  0  0  0  0  0  0
    8.0187   12.0795   24.8821 C   0  0  0  0  0  0  0  0  0  0  0  0
    7.1274   12.7013   25.7778 C   0  0  0  0  0  0  0  0  0  0  0  0
    6.1767   11.9150   26.4243 C   0  0  0  0  0  0  0  0  0  0  0  0
    5.3449   12.4819   27.3087 F   0  0  0  0  0  0  0  0  0  0  0  0
    6.0948   10.5478   26.2028 C   0  0  0  0  0  0  0  0  0  0  0  0
    6.9495    9.9233   25.2924 C   0  0  0  0  0  0  0  0  0  0  0  0
    7.9052   10.7110   24.6444 C   0  0  0  0  0  0  0  0  0  0  0  0
  1  2  1  0
  2  3  1  0
  3  4  2  0
  4  5  1  0
  5  6  2  0
  5  7  1  0
  7  8  1  0
  8  9  1  0
  9 10  1  0
 10 11  1  0
 11 12  2  0
 12 13  1  0
 13 14  1  0
 14 15  3  0
 13 16  2  0
  4 17  1  0
 17 18  2  0
 18 19  1  0
 19 20  1  0
 19 21  2  0
 21 22  1  0
 22 23  2  0
 23  2  1  0
 16 10  1  0
 23 17  1  0
M  END
>  <energy_score>  (1443) 
-8.433544

>  <inchikey>  (1443) 
None

>  <smiles>  (1443) 
None

>  <ref_pdb>  (1443) 
A3176a

>  <alias>  (1443) 
None

>  <HIPPO Pose ID>  (1443) 
499087

>  <name>  (1443) 
P499087

>  <HIPPO Compound ID>  (1443) 
299803

>  <ref_mols>  (1443) 
A3417a,A3176a

>  <distance_score>  (1443) 
0.872827

>  <inspiration_score>  (1443) 
None

$$$$
P499088
     RDKit          3D

 23 25  0  0  0  0  0  0  0  0999 V2000
    8.8323   18.2227   20.0942 C   0  0  0  0  0  0  0  0  0  0  0  0
    9.6307   16.9922   20.0453 C   0  0  0  0  0  0  0  0  0  0  0  0
   10.0669   16.5147   18.8576 N   0  0  0  0  0  0  0  0  0  0  0  0
   10.9257   15.5896   19.2046 C   0  0  0  0  0  0  0  0  0  0  0  0
   11.8238   14.8920   18.2978 C   0  0  0  0  0  0  0  0  0  0  0  0
   10.9668   15.4869   20.5629 N   0  0  0  0  0  0  0  0  0  0  0  0
   12.0371   14.8933   21.3324 C   0  0  0  0  0  0  0  0  0  0  0  0
   11.8028   14.7767   22.8240 C   0  0  0  0  0  0  0  0  0  0  0  0
   10.7929   13.8110   23.1397 N   0  0  0  0  0  0  0  0  0  0  0  0
    9.7384   13.8007   24.2487 C   0  0  0  0  0  0  0  0  0  0  0  0
    9.4671   14.6103   25.0402 O   0  0  0  0  0  0  0  0  0  0  0  0
    9.0839   12.4798   24.2167 C   0  0  0  0  0  0  0  0  0  0  0  0
    9.5959   11.4808   23.4686 N   0  0  0  0  0  0  0  0  0  0  0  0
    8.8441   10.4107   23.7751 N   0  0  0  0  0  0  0  0  0  0  0  0
    9.1853    9.1354   23.1849 C   0  0  0  0  0  0  0  0  0  0  0  0
    7.8574   10.6833   24.6902 C   0  0  0  0  0  0  0  0  0  0  0  0
    6.9022    9.8769   25.3125 C   0  0  0  0  0  0  0  0  0  0  0  0
    6.0395   10.4750   26.2331 C   0  0  0  0  0  0  0  0  0  0  0  0
    6.1077   11.8379   26.4834 C   0  0  0  0  0  0  0  0  0  0  0  0
    5.2647   12.3782   27.3740 F   0  0  0  0  0  0  0  0  0  0  0  0
    7.0566   12.6441   25.8615 C   0  0  0  0  0  0  0  0  0  0  0  0
    7.9600   12.0459   24.9625 C   0  0  0  0  0  0  0  0  0  0  0  0
   10.0715   16.3170   21.1127 N   0  0  0  0  0  0  0  0  0  0  0  0
  1  2  1  0
  2  3  1  0
  3  4  2  0
  4  5  1  0
  4  6  1  0
  6  7  1  0
  7  8  1  0
  8  9  1  0
  9 10  1  0
 10 11  2  0
 10 12  1  0
 12 13  2  0
 13 14  1  0
 14 15  1  0
 14 16  1  0
 16 17  2  0
 17 18  1  0
 18 19  2  0
 19 20  1  0
 19 21  1  0
 21 22  2  0
  6 23  1  0
 23  2  2  0
 22 12  1  0
 22 16  1  0
M  END
>  <energy_score>  (1444) 
-5.27545

>  <inchikey>  (1444) 
None

>  <smiles>  (1444) 
None

>  <ref_pdb>  (1444) 
A3176a

>  <alias>  (1444) 
None

>  <HIPPO Pose ID>  (1444) 
499088

>  <name>  (1444) 
P499088

>  <HIPPO Compound ID>  (1444) 
299804

>  <ref_mols>  (1444) 
A3417a,A3176a

>  <distance_score>  (1444) 
0.802731

>  <inspiration_score>  (1444) 
None

$$$$
P499089
     RDKit          3D

 24 27  0  0  0  0  0  0  0  0999 V2000
    8.7907   18.4255   19.8627 C   0  0  0  0  0  0  0  0  0  0  0  0
    9.5726   17.1818   19.9530 C   0  0  0  0  0  0  0  0  0  0  0  0
   10.0714   16.5997   18.8357 N   0  0  0  0  0  0  0  0  0  0  0  0
   10.8643   15.6669   19.3079 C   0  0  0  0  0  0  0  0  0  0  0  0
   11.7074   14.7887   18.5001 C   0  0  0  0  0  0  0  0  0  0  0  0
   10.8416   15.7106   20.6768 N   0  0  0  0  0  0  0  0  0  0  0  0
   11.7634   14.9640   21.5342 C   0  0  0  0  0  0  0  0  0  0  0  0
   11.8416   15.1725   22.9960 C   0  0  0  0  0  0  0  0  0  0  0  0
   10.9378   14.0196   23.3938 N   0  0  0  0  0  0  0  0  0  0  0  0
    9.4653   13.9963   23.7484 C   0  0  0  0  0  0  0  0  0  0  0  0
    8.6611   14.8572   23.7211 O   0  0  0  0  0  0  0  0  0  0  0  0
    9.0540   12.6100   24.0773 C   0  0  0  0  0  0  0  0  0  0  0  0
    9.6635   11.5440   23.5219 N   0  0  0  0  0  0  0  0  0  0  0  0
    8.9084   10.4913   23.8666 N   0  0  0  0  0  0  0  0  0  0  0  0
    9.2546    9.1940   23.3307 C   0  0  0  0  0  0  0  0  0  0  0  0
    7.8989   10.8093   24.7389 C   0  0  0  0  0  0  0  0  0  0  0  0
    6.9422   10.0308   25.3975 C   0  0  0  0  0  0  0  0  0  0  0  0
    6.0501   10.6811   26.2515 C   0  0  0  0  0  0  0  0  0  0  0  0
    6.0785   12.0627   26.3830 C   0  0  0  0  0  0  0  0  0  0  0  0
    5.2005   12.6549   27.2043 F   0  0  0  0  0  0  0  0  0  0  0  0
    7.0066   12.8429   25.6964 C   0  0  0  0  0  0  0  0  0  0  0  0
    7.9544   12.1966   24.8801 C   0  0  0  0  0  0  0  0  0  0  0  0
   11.1639   13.6835   21.9095 C   0  0  0  0  0  0  0  0  0  0  0  0
    9.9265   16.5807   21.0936 N   0  0  0  0  0  0  0  0  0  0  0  0
  1  2  1  0
  2  3  1  0
  3  4  2  0
  4  5  1  0
  4  6  1  0
  6  7  1  0
  7  8  1  0
  8  9  1  0
  9 10  1  0
 10 11  2  0
 10 12  1  0
 12 13  2  0
 13 14  1  0
 14 15  1  0
 14 16  1  0
 16 17  2  0
 17 18  1  0
 18 19  2  0
 19 20  1  0
 19 21  1  0
 21 22  2  0
  9 23  1  0
  6 24  1  0
 24  2  2  0
 23  7  1  0
 22 12  1  0
 22 16  1  0
M  END
>  <energy_score>  (1445) 
-5.004558

>  <inchikey>  (1445) 
None

>  <smiles>  (1445) 
None

>  <ref_pdb>  (1445) 
A3176a

>  <alias>  (1445) 
None

>  <HIPPO Pose ID>  (1445) 
499089

>  <name>  (1445) 
P499089

>  <HIPPO Compound ID>  (1445) 
299808

>  <ref_mols>  (1445) 
A3417a,A3176a

>  <distance_score>  (1445) 
1.039388

>  <inspiration_score>  (1445) 
None

$$$$
P499090
     RDKit          3D

 24 27  0  0  0  0  0  0  0  0999 V2000
    9.9511   17.2385   17.8302 C   0  0  0  0  0  0  0  0  0  0  0  0
   10.2209   16.1130   18.7231 C   0  0  0  0  0  0  0  0  0  0  0  0
   11.4118   15.4358   18.7733 N   0  0  0  0  0  0  0  0  0  0  0  0
   11.3689   14.8900   19.9622 C   0  0  0  0  0  0  0  0  0  0  0  0
   10.1992   15.2208   20.5652 N   0  0  0  0  0  0  0  0  0  0  0  0
    9.3953   15.8530   19.7323 N   0  0  0  0  0  0  0  0  0  0  0  0
   10.1710   15.7058   21.9124 C   0  0  0  0  0  0  0  0  0  0  0  0
   11.1752   15.0376   22.8179 C   0  0  1  0  0  0  0  0  0  0  0  0
   10.5264   13.8741   23.3181 N   0  0  0  0  0  0  0  0  0  0  0  0
    9.5315   13.7086   24.4616 C   0  0  0  0  0  0  0  0  0  0  0  0
    9.1356   14.4814   25.2338 O   0  0  0  0  0  0  0  0  0  0  0  0
    9.0095   12.3475   24.4044 C   0  0  0  0  0  0  0  0  0  0  0  0
    9.5545   11.4166   23.5990 N   0  0  0  0  0  0  0  0  0  0  0  0
    8.8252   10.3115   23.8421 N   0  0  0  0  0  0  0  0  0  0  0  0
    9.1892    9.0801   23.1784 C   0  0  0  0  0  0  0  0  0  0  0  0
    7.8132   10.5214   24.7477 C   0  0  0  0  0  0  0  0  0  0  0  0
    6.8515    9.6817   25.3005 C   0  0  0  0  0  0  0  0  0  0  0  0
    5.9569   10.2196   26.2296 C   0  0  0  0  0  0  0  0  0  0  0  0
    5.9880   11.5675   26.5452 C   0  0  0  0  0  0  0  0  0  0  0  0
    5.1070   12.0539   27.4296 F   0  0  0  0  0  0  0  0  0  0  0  0
    6.9389   12.4117   25.9886 C   0  0  0  0  0  0  0  0  0  0  0  0
    7.8828   11.8622   25.0995 C   0  0  0  0  0  0  0  0  0  0  0  0
   12.5255   14.8439   22.1742 C   0  0  0  0  0  0  0  0  0  0  0  0
   12.4686   14.3239   20.7396 C   0  0  0  0  0  0  0  0  0  0  0  0
  1  2  1  0
  2  3  1  0
  3  4  2  0
  4  5  1  0
  5  6  1  0
  5  7  1  0
  7  8  1  0
  8  9  1  6
  9 10  1  0
 10 11  2  0
 10 12  1  0
 12 13  2  0
 13 14  1  0
 14 15  1  0
 14 16  1  0
 16 17  2  0
 17 18  1  0
 18 19  2  0
 19 20  1  0
 19 21  1  0
 21 22  2  0
  8 23  1  0
 23 24  1  0
  6  2  2  0
 22 12  1  0
 24  4  1  0
 22 16  1  0
M  END
>  <energy_score>  (1446) 
-8.227693

>  <inchikey>  (1446) 
None

>  <smiles>  (1446) 
None

>  <ref_pdb>  (1446) 
A3176a

>  <alias>  (1446) 
None

>  <HIPPO Pose ID>  (1446) 
499090

>  <name>  (1446) 
P499090

>  <HIPPO Compound ID>  (1446) 
299809

>  <ref_mols>  (1446) 
A3417a,A3176a

>  <distance_score>  (1446) 
1.172192

>  <inspiration_score>  (1446) 
None

$$$$
P499091
     RDKit          3D

 24 27  0  0  0  0  0  0  0  0999 V2000
    9.9651   17.2549   17.8139 C   0  0  0  0  0  0  0  0  0  0  0  0
   10.2320   16.1224   18.6967 C   0  0  0  0  0  0  0  0  0  0  0  0
   11.4234   15.4451   18.7460 N   0  0  0  0  0  0  0  0  0  0  0  0
   11.3802   14.8978   19.9335 C   0  0  0  0  0  0  0  0  0  0  0  0
   10.2119   15.2310   20.5347 N   0  0  0  0  0  0  0  0  0  0  0  0
    9.4051   15.8580   19.7032 N   0  0  0  0  0  0  0  0  0  0  0  0
   10.1791   15.7123   21.8817 C   0  0  0  0  0  0  0  0  0  0  0  0
   11.1786   15.0420   22.7885 C   0  0  1  0  0  0  0  0  0  0  0  0
   10.5315   13.8745   23.2840 N   0  0  0  0  0  0  0  0  0  0  0  0
    9.5935   13.6900   24.4719 C   0  0  0  0  0  0  0  0  0  0  0  0
    9.2543   14.4439   25.2886 O   0  0  0  0  0  0  0  0  0  0  0  0
    9.0421   12.3410   24.3953 C   0  0  0  0  0  0  0  0  0  0  0  0
    9.5830   11.4039   23.5945 N   0  0  0  0  0  0  0  0  0  0  0  0
    8.8378   10.3076   23.8302 N   0  0  0  0  0  0  0  0  0  0  0  0
    9.1910    9.0730   23.1669 C   0  0  0  0  0  0  0  0  0  0  0  0
    7.8272   10.5257   24.7356 C   0  0  0  0  0  0  0  0  0  0  0  0
    6.8612    9.6922   25.2914 C   0  0  0  0  0  0  0  0  0  0  0  0
    5.9701   10.2378   26.2191 C   0  0  0  0  0  0  0  0  0  0  0  0
    6.0094   11.5867   26.5307 C   0  0  0  0  0  0  0  0  0  0  0  0
    5.1324   12.0804   27.4152 F   0  0  0  0  0  0  0  0  0  0  0  0
    6.9660   12.4241   25.9726 C   0  0  0  0  0  0  0  0  0  0  0  0
    7.9067   11.8668   25.0850 C   0  0  0  0  0  0  0  0  0  0  0  0
   12.5309   14.8510   22.1472 C   0  0  0  0  0  0  0  0  0  0  0  0
   12.4776   14.3303   20.7119 C   0  0  0  0  0  0  0  0  0  0  0  0
  1  2  1  0
  2  3  1  0
  3  4  2  0
  4  5  1  0
  5  6  1  0
  5  7  1  0
  7  8  1  0
  8  9  1  6
  9 10  1  0
 10 11  2  0
 10 12  1  0
 12 13  2  0
 13 14  1  0
 14 15  1  0
 14 16  1  0
 16 17  2  0
 17 18  1  0
 18 19  2  0
 19 20  1  0
 19 21  1  0
 21 22  2  0
  8 23  1  0
 23 24  1  0
  6  2  2  0
 22 12  1  0
 24  4  1  0
 22 16  1  0
M  END
>  <energy_score>  (1447) 
-36.729536

>  <inchikey>  (1447) 
None

>  <smiles>  (1447) 
None

>  <ref_pdb>  (1447) 
A3176a

>  <alias>  (1447) 
None

>  <HIPPO Pose ID>  (1447) 
499091

>  <name>  (1447) 
P499091

>  <HIPPO Compound ID>  (1447) 
299809

>  <ref_mols>  (1447) 
A3417a,A3176a

>  <distance_score>  (1447) 
1.058755

>  <inspiration_score>  (1447) 
None

$$$$
P499092
     RDKit          3D

 24 26  0  0  0  0  0  0  0  0999 V2000
   13.5802   13.5842   25.0947 C   0  0  0  0  0  0  0  0  0  0  0  0
   12.2537   14.1992   24.6821 C   0  0  0  0  0  0  0  0  0  0  0  0
   11.9957   15.5339   25.3586 C   0  0  0  0  0  0  0  0  0  0  0  0
   11.8783   14.0523   23.1593 C   0  0  2  0  0  0  0  0  0  0  0  0
   11.6343   15.3298   22.3519 C   0  0  0  0  0  0  0  0  0  0  0  0
   11.2965   15.1528   20.9523 N   0  0  0  0  0  0  0  0  0  0  0  0
   12.0055   14.4964   20.0010 C   0  0  0  0  0  0  0  0  0  0  0  0
   11.5465   14.7835   18.8115 N   0  0  0  0  0  0  0  0  0  0  0  0
   10.5418   15.6685   19.0835 C   0  0  0  0  0  0  0  0  0  0  0  0
   10.3319   15.9023   20.3836 N   0  0  0  0  0  0  0  0  0  0  0  0
   10.6922   13.2584   23.2494 N   0  0  0  0  0  0  0  0  0  0  0  0
    9.3372   13.5647   23.8900 C   0  0  0  0  0  0  0  0  0  0  0  0
    8.9383   14.5409   24.3810 O   0  0  0  0  0  0  0  0  0  0  0  0
    8.5936   12.3127   23.8774 C   0  0  0  0  0  0  0  0  0  0  0  0
    9.1123   11.2360   23.2587 N   0  0  0  0  0  0  0  0  0  0  0  0
    8.4674   10.2005   23.8039 N   0  0  0  0  0  0  0  0  0  0  0  0
    8.9259    8.8713   23.4811 C   0  0  0  0  0  0  0  0  0  0  0  0
    7.5183   10.5772   24.7231 C   0  0  0  0  0  0  0  0  0  0  0  0
    6.6384    9.8494   25.5201 C   0  0  0  0  0  0  0  0  0  0  0  0
    5.8569   10.5394   26.4481 C   0  0  0  0  0  0  0  0  0  0  0  0
    5.9239   11.9209   26.5354 C   0  0  0  0  0  0  0  0  0  0  0  0
    5.1702   12.5536   27.4446 F   0  0  0  0  0  0  0  0  0  0  0  0
    6.7702   12.6573   25.7142 C   0  0  0  0  0  0  0  0  0  0  0  0
    7.5671   11.9656   24.7818 C   0  0  0  0  0  0  0  0  0  0  0  0
  1  2  1  0
  2  3  1  0
  2  4  1  0
  4  5  1  1
  5  6  1  0
  6  7  1  0
  7  8  2  0
  8  9  1  0
  9 10  2  0
  4 11  1  0
 11 12  1  0
 12 13  2  0
 12 14  1  0
 14 15  2  0
 15 16  1  0
 16 17  1  0
 16 18  1  0
 18 19  2  0
 19 20  1  0
 20 21  2  0
 21 22  1  0
 21 23  1  0
 23 24  2  0
 10  6  1  0
 24 14  1  0
 24 18  1  0
M  END
>  <energy_score>  (1448) 
-4.943062

>  <inchikey>  (1448) 
None

>  <smiles>  (1448) 
None

>  <ref_pdb>  (1448) 
A3176a

>  <alias>  (1448) 
None

>  <HIPPO Pose ID>  (1448) 
499092

>  <name>  (1448) 
P499092

>  <HIPPO Compound ID>  (1448) 
299810

>  <ref_mols>  (1448) 
A3417a,A3176a

>  <distance_score>  (1448) 
0.927546

>  <inspiration_score>  (1448) 
None

$$$$
P499093
     RDKit          3D

 24 26  0  0  0  0  0  0  0  0999 V2000
   12.9387   13.9423   24.6634 C   0  0  0  0  0  0  0  0  0  0  0  0
   11.9184   15.0465   24.4470 C   0  0  0  0  0  0  0  0  0  0  0  0
   11.0526   15.0897   25.7222 C   0  0  0  0  0  0  0  0  0  0  0  0
   11.1323   14.9018   23.1178 C   0  0  1  0  0  0  0  0  0  0  0  0
   11.9670   14.7315   21.8484 C   0  0  0  0  0  0  0  0  0  0  0  0
   11.2645   15.0449   20.6209 N   0  0  0  0  0  0  0  0  0  0  0  0
   10.0232   15.5609   20.4358 C   0  0  0  0  0  0  0  0  0  0  0  0
    9.9148   16.0270   19.2178 N   0  0  0  0  0  0  0  0  0  0  0  0
   11.1229   15.7241   18.6740 C   0  0  0  0  0  0  0  0  0  0  0  0
   11.9475   15.0331   19.4669 N   0  0  0  0  0  0  0  0  0  0  0  0
   10.1924   13.8499   23.2869 N   0  0  0  0  0  0  0  0  0  0  0  0
    8.8126   13.8502   23.9274 C   0  0  0  0  0  0  0  0  0  0  0  0
    8.1811   14.7250   24.3550 O   0  0  0  0  0  0  0  0  0  0  0  0
    8.4157   12.4555   24.0152 C   0  0  0  0  0  0  0  0  0  0  0  0
    9.1181   11.4972   23.3793 N   0  0  0  0  0  0  0  0  0  0  0  0
    8.5574   10.3538   23.7965 N   0  0  0  0  0  0  0  0  0  0  0  0
    9.0597    9.1083   23.2625 C   0  0  0  0  0  0  0  0  0  0  0  0
    7.5723   10.5540   24.7321 C   0  0  0  0  0  0  0  0  0  0  0  0
    6.7475    9.6843   25.4317 C   0  0  0  0  0  0  0  0  0  0  0  0
    5.8737   10.2169   26.3838 C   0  0  0  0  0  0  0  0  0  0  0  0
    5.7973   11.5846   26.5889 C   0  0  0  0  0  0  0  0  0  0  0  0
    4.9479   12.0619   27.5085 F   0  0  0  0  0  0  0  0  0  0  0  0
    6.5813   12.4636   25.8566 C   0  0  0  0  0  0  0  0  0  0  0  0
    7.4709   11.9269   24.9078 C   0  0  0  0  0  0  0  0  0  0  0  0
  1  2  1  0
  2  3  1  0
  2  4  1  0
  4  5  1  6
  5  6  1  0
  6  7  1  0
  7  8  2  0
  8  9  1  0
  9 10  2  0
  4 11  1  0
 11 12  1  0
 12 13  2  0
 12 14  1  0
 14 15  2  0
 15 16  1  0
 16 17  1  0
 16 18  1  0
 18 19  2  0
 19 20  1  0
 20 21  2  0
 21 22  1  0
 21 23  1  0
 23 24  2  0
 10  6  1  0
 24 14  1  0
 24 18  1  0
M  END
>  <energy_score>  (1449) 
-11.22433

>  <inchikey>  (1449) 
None

>  <smiles>  (1449) 
None

>  <ref_pdb>  (1449) 
A3176a

>  <alias>  (1449) 
None

>  <HIPPO Pose ID>  (1449) 
499093

>  <name>  (1449) 
P499093

>  <HIPPO Compound ID>  (1449) 
299810

>  <ref_mols>  (1449) 
A3417a,A3176a

>  <distance_score>  (1449) 
1.219922

>  <inspiration_score>  (1449) 
None

$$$$
P499094
     RDKit          3D

 24 26  0  0  0  0  0  0  0  0999 V2000
   10.4946   16.9359   17.9963 C   0  0  0  0  0  0  0  0  0  0  0  0
   11.1860   16.0784   18.9377 N   0  0  0  0  0  0  0  0  0  0  0  0
   11.8089   14.9246   18.3488 C   0  0  0  0  0  0  0  0  0  0  0  0
   10.4104   15.6599   20.0621 C   0  0  0  0  0  0  0  0  0  0  0  0
    9.5252   16.7620   20.5658 C   0  0  0  0  0  0  0  0  0  0  0  0
    8.7527   16.2016   21.6249 N   0  0  0  0  0  0  0  0  0  0  0  0
    7.4180   16.1616   21.8138 C   0  0  0  0  0  0  0  0  0  0  0  0
    7.1100   15.2778   22.7213 N   0  0  0  0  0  0  0  0  0  0  0  0
    8.3376   14.8918   23.0988 C   0  0  0  0  0  0  0  0  0  0  0  0
    8.4738   13.7229   23.6494 N   0  0  0  0  0  0  0  0  0  0  0  0
    9.7071   13.0252   24.1909 C   0  0  0  0  0  0  0  0  0  0  0  0
   10.7975   13.4048   24.3082 O   0  0  0  0  0  0  0  0  0  0  0  0
    9.2191   11.7159   24.4444 C   0  0  0  0  0  0  0  0  0  0  0  0
    9.6265   10.7120   23.6768 N   0  0  0  0  0  0  0  0  0  0  0  0
    8.7476    9.7468   23.9192 N   0  0  0  0  0  0  0  0  0  0  0  0
    8.9185    8.5423   23.1560 C   0  0  0  0  0  0  0  0  0  0  0  0
    7.7737   10.1199   24.8182 C   0  0  0  0  0  0  0  0  0  0  0  0
    6.6613    9.4952   25.3540 C   0  0  0  0  0  0  0  0  0  0  0  0
    5.8676   10.1710   26.2859 C   0  0  0  0  0  0  0  0  0  0  0  0
    6.1090   11.4950   26.5859 C   0  0  0  0  0  0  0  0  0  0  0  0
    5.3144   12.1341   27.4533 F   0  0  0  0  0  0  0  0  0  0  0  0
    7.1924   12.1520   26.0294 C   0  0  0  0  0  0  0  0  0  0  0  0
    8.0598   11.4212   25.1872 C   0  0  0  0  0  0  0  0  0  0  0  0
    9.3745   15.4695   22.5401 N   0  0  0  0  0  0  0  0  0  0  0  0
  1  2  1  0
  2  3  1  0
  2  4  1  0
  4  5  1  0
  5  6  1  0
  6  7  1  0
  7  8  2  0
  8  9  1  0
  9 10  1  0
 10 11  1  0
 11 12  2  0
 11 13  1  0
 13 14  2  0
 14 15  1  0
 15 16  1  0
 15 17  1  0
 17 18  2  0
 18 19  1  0
 19 20  2  0
 20 21  1  0
 20 22  1  0
 22 23  2  0
  9 24  2  0
 24  6  1  0
 23 13  1  0
 23 17  1  0
M  END
>  <energy_score>  (1450) 
-31.122673

>  <inchikey>  (1450) 
None

>  <smiles>  (1450) 
None

>  <ref_pdb>  (1450) 
A3176a

>  <alias>  (1450) 
None

>  <HIPPO Pose ID>  (1450) 
499094

>  <name>  (1450) 
P499094

>  <HIPPO Compound ID>  (1450) 
299812

>  <ref_mols>  (1450) 
A3417a,A3176a

>  <distance_score>  (1450) 
1.879992

>  <inspiration_score>  (1450) 
None

$$$$
P499095
     RDKit          3D

 25 28  0  0  0  0  0  0  0  0999 V2000
    9.0083   17.3618   17.2774 C   0  0  0  0  0  0  0  0  0  0  0  0
   10.3902   17.2153   17.8381 C   0  0  0  0  0  0  0  0  0  0  0  0
   10.4732   16.0663   18.7448 C   0  0  0  0  0  0  0  0  0  0  0  0
   11.5861   15.2856   18.8649 N   0  0  0  0  0  0  0  0  0  0  0  0
   11.4305   14.7935   20.0658 C   0  0  0  0  0  0  0  0  0  0  0  0
   10.2449   15.1996   20.5824 N   0  0  0  0  0  0  0  0  0  0  0  0
    9.5522   15.8771   19.6878 N   0  0  0  0  0  0  0  0  0  0  0  0
   10.1327   15.6813   21.9269 C   0  0  0  0  0  0  0  0  0  0  0  0
   11.1117   15.0459   22.8903 C   0  0  1  0  0  0  0  0  0  0  0  0
   10.4623   13.8845   23.3888 N   0  0  0  0  0  0  0  0  0  0  0  0
    9.4615   13.7209   24.5245 C   0  0  0  0  0  0  0  0  0  0  0  0
    9.0594   14.4947   25.2915 O   0  0  0  0  0  0  0  0  0  0  0  0
    8.9481   12.3582   24.4608 C   0  0  0  0  0  0  0  0  0  0  0  0
    9.4970   11.4349   23.6474 N   0  0  0  0  0  0  0  0  0  0  0  0
    8.7757   10.3261   23.8883 N   0  0  0  0  0  0  0  0  0  0  0  0
    9.1535    9.1007   23.2235 C   0  0  0  0  0  0  0  0  0  0  0  0
    7.7620   10.5262   24.7928 C   0  0  0  0  0  0  0  0  0  0  0  0
    6.8021    9.6816   25.3392 C   0  0  0  0  0  0  0  0  0  0  0  0
    5.9097   10.2102   26.2757 C   0  0  0  0  0  0  0  0  0  0  0  0
    5.9365   11.5558   26.6006 C   0  0  0  0  0  0  0  0  0  0  0  0
    5.0562   12.0326   27.4907 F   0  0  0  0  0  0  0  0  0  0  0  0
    6.8820   12.4065   26.0468 C   0  0  0  0  0  0  0  0  0  0  0  0
    7.8259   11.8647   25.1537 C   0  0  0  0  0  0  0  0  0  0  0  0
   12.4910   14.8488   22.3161 C   0  0  0  0  0  0  0  0  0  0  0  0
   12.4673   14.2404   20.9239 C   0  0  0  0  0  0  0  0  0  0  0  0
  1  2  1  0
  2  3  1  0
  3  4  1  0
  4  5  2  0
  5  6  1  0
  6  7  1  0
  6  8  1  0
  8  9  1  0
  9 10  1  6
 10 11  1  0
 11 12  2  0
 11 13  1  0
 13 14  2  0
 14 15  1  0
 15 16  1  0
 15 17  1  0
 17 18  2  0
 18 19  1  0
 19 20  2  0
 20 21  1  0
 20 22  1  0
 22 23  2  0
  9 24  1  0
 24 25  1  0
  7  3  2  0
 23 13  1  0
 25  5  1  0
 23 17  1  0
M  END
>  <energy_score>  (1451) 
-7.873916

>  <inchikey>  (1451) 
None

>  <smiles>  (1451) 
None

>  <ref_pdb>  (1451) 
A3176a

>  <alias>  (1451) 
None

>  <HIPPO Pose ID>  (1451) 
499095

>  <name>  (1451) 
P499095

>  <HIPPO Compound ID>  (1451) 
299814

>  <ref_mols>  (1451) 
A3417a,A3176a

>  <distance_score>  (1451) 
1.028206

>  <inspiration_score>  (1451) 
None

$$$$
P499096
     RDKit          3D

 25 27  0  0  0  0  0  0  0  0999 V2000
    9.2997    9.2217   23.2047 C   0  0  0  0  0  0  0  0  0  0  0  0
    8.9541   10.4921   23.8034 N   0  0  0  0  0  0  0  0  0  0  0  0
    9.7334   11.5644   23.5527 N   0  0  0  0  0  0  0  0  0  0  0  0
    9.1894   12.5532   24.2942 C   0  0  0  0  0  0  0  0  0  0  0  0
    9.8081   13.8970   24.3484 C   0  0  0  0  0  0  0  0  0  0  0  0
    9.3249   14.7665   24.9547 O   0  0  0  0  0  0  0  0  0  0  0  0
   11.0389   13.8884   23.4262 N   0  0  0  0  0  0  0  0  0  0  0  0
   11.8802   14.9680   22.9792 C   0  0  0  0  0  0  0  0  0  0  0  0
   11.5345   15.5278   21.5873 C   0  0  2  0  0  0  0  0  0  0  0  0
   10.1700   15.4523   21.1817 N   0  0  0  0  0  0  0  0  0  0  0  0
    9.3836   14.3589   21.0990 C   0  0  0  0  0  0  0  0  0  0  0  0
    8.1210   14.7056   21.1278 N   0  0  0  0  0  0  0  0  0  0  0  0
    8.2130   16.0683   21.1559 C   0  0  0  0  0  0  0  0  0  0  0  0
    9.4446   16.5590   21.0653 N   0  0  0  0  0  0  0  0  0  0  0  0
   12.4201   14.9387   20.5585 C   0  0  0  0  0  0  0  0  0  0  0  0
   13.6311   15.4693   20.8027 F   0  0  0  0  0  0  0  0  0  0  0  0
   12.5179   13.6033   20.6686 F   0  0  0  0  0  0  0  0  0  0  0  0
   12.0851   15.2227   19.2918 F   0  0  0  0  0  0  0  0  0  0  0  0
    8.0301   12.1065   24.9836 C   0  0  0  0  0  0  0  0  0  0  0  0
    7.0877   12.6897   25.8526 C   0  0  0  0  0  0  0  0  0  0  0  0
    6.1262   11.8706   26.4389 C   0  0  0  0  0  0  0  0  0  0  0  0
    5.2523   12.3987   27.3066 F   0  0  0  0  0  0  0  0  0  0  0  0
    6.0788   10.5089   26.1785 C   0  0  0  0  0  0  0  0  0  0  0  0
    6.9721    9.9262   25.2777 C   0  0  0  0  0  0  0  0  0  0  0  0
    7.9399   10.7475   24.6921 C   0  0  0  0  0  0  0  0  0  0  0  0
  1  2  1  0
  2  3  1  0
  3  4  2  0
  4  5  1  0
  5  6  2  0
  5  7  1  0
  7  8  1  0
  9  8  1  1
  9 10  1  0
 10 11  1  0
 11 12  2  0
 12 13  1  0
 13 14  2  0
  9 15  1  0
 15 16  1  0
 15 17  1  0
 15 18  1  0
  4 19  1  0
 19 20  2  0
 20 21  1  0
 21 22  1  0
 21 23  2  0
 23 24  1  0
 24 25  2  0
 25  2  1  0
 14 10  1  0
 25 19  1  0
M  END
>  <energy_score>  (1452) 
-11.861572

>  <inchikey>  (1452) 
None

>  <smiles>  (1452) 
None

>  <ref_pdb>  (1452) 
A3176a

>  <alias>  (1452) 
None

>  <HIPPO Pose ID>  (1452) 
499096

>  <name>  (1452) 
P499096

>  <HIPPO Compound ID>  (1452) 
299816

>  <ref_mols>  (1452) 
A3417a,A3176a

>  <distance_score>  (1452) 
1.14057

>  <inspiration_score>  (1452) 
None

$$$$
P499097
     RDKit          3D

 25 27  0  0  0  0  0  0  0  0999 V2000
    8.9530    9.0907   23.3685 C   0  0  0  0  0  0  0  0  0  0  0  0
    8.5752   10.3137   24.0385 N   0  0  0  0  0  0  0  0  0  0  0  0
    9.2433   11.4298   23.7270 N   0  0  0  0  0  0  0  0  0  0  0  0
    8.6914   12.3754   24.5157 C   0  0  0  0  0  0  0  0  0  0  0  0
    9.0789   13.7648   24.3502 C   0  0  0  0  0  0  0  0  0  0  0  0
    8.9102   14.6087   25.1285 O   0  0  0  0  0  0  0  0  0  0  0  0
    9.6289   13.8239   22.9368 N   0  0  0  0  0  0  0  0  0  0  0  0
   10.0002   14.9278   22.1432 C   0  0  0  0  0  0  0  0  0  0  0  0
   11.3862   14.7390   21.5952 C   0  0  1  0  0  0  0  0  0  0  0  0
   11.4571   15.2134   20.2498 N   0  0  0  0  0  0  0  0  0  0  0  0
   12.2232   14.6677   19.2849 C   0  0  0  0  0  0  0  0  0  0  0  0
   11.9366   15.2183   18.1430 N   0  0  0  0  0  0  0  0  0  0  0  0
   10.9364   16.1017   18.4635 C   0  0  0  0  0  0  0  0  0  0  0  0
   10.5757   16.0877   19.7483 N   0  0  0  0  0  0  0  0  0  0  0  0
   12.4606   15.2767   22.5010 C   0  0  0  0  0  0  0  0  0  0  0  0
   12.8903   14.2884   23.3373 F   0  0  0  0  0  0  0  0  0  0  0  0
   13.5406   15.7082   21.8248 F   0  0  0  0  0  0  0  0  0  0  0  0
   12.0871   16.2801   23.3134 F   0  0  0  0  0  0  0  0  0  0  0  0
    7.6527   11.8768   25.3082 C   0  0  0  0  0  0  0  0  0  0  0  0
    6.7376   12.4338   26.2180 C   0  0  0  0  0  0  0  0  0  0  0  0
    5.8111   11.5884   26.8096 C   0  0  0  0  0  0  0  0  0  0  0  0
    4.9543   12.0759   27.7165 F   0  0  0  0  0  0  0  0  0  0  0  0
    5.7657   10.2417   26.4901 C   0  0  0  0  0  0  0  0  0  0  0  0
    6.6233    9.7041   25.5270 C   0  0  0  0  0  0  0  0  0  0  0  0
    7.5845   10.5314   24.9643 C   0  0  0  0  0  0  0  0  0  0  0  0
  1  2  1  0
  2  3  1  0
  3  4  2  0
  4  5  1  0
  5  6  2  0
  5  7  1  0
  7  8  1  0
  9  8  1  1
  9 10  1  0
 10 11  1  0
 11 12  2  0
 12 13  1  0
 13 14  2  0
  9 15  1  0
 15 16  1  0
 15 17  1  0
 15 18  1  0
  4 19  1  0
 19 20  2  0
 20 21  1  0
 21 22  1  0
 21 23  2  0
 23 24  1  0
 24 25  2  0
 25  2  1  0
 14 10  1  0
 25 19  1  0
M  END
>  <energy_score>  (1453) 
-3.110012

>  <inchikey>  (1453) 
None

>  <smiles>  (1453) 
None

>  <ref_pdb>  (1453) 
A3176a

>  <alias>  (1453) 
None

>  <HIPPO Pose ID>  (1453) 
499097

>  <name>  (1453) 
P499097

>  <HIPPO Compound ID>  (1453) 
299816

>  <ref_mols>  (1453) 
A3417a,A3176a

>  <distance_score>  (1453) 
1.178502

>  <inspiration_score>  (1453) 
None

$$$$
P499098
     RDKit          3D

 25 27  0  0  0  0  0  0  0  0999 V2000
   13.6413   13.4522   25.5976 C   0  0  0  0  0  0  0  0  0  0  0  0
   12.9654   13.7522   24.3731 O   0  0  0  0  0  0  0  0  0  0  0  0
   12.1946   14.8827   24.3496 C   0  0  0  0  0  0  0  0  0  0  0  0
   12.1162   15.6895   25.2697 O   0  0  0  0  0  0  0  0  0  0  0  0
   11.3650   14.9561   23.0714 C   0  0  1  0  0  0  0  0  0  0  0  0
   12.2334   14.8031   21.8574 C   0  0  0  0  0  0  0  0  0  0  0  0
   11.5781   15.0091   20.5976 N   0  0  0  0  0  0  0  0  0  0  0  0
   12.0401   14.5223   19.4268 C   0  0  0  0  0  0  0  0  0  0  0  0
   11.3263   14.9859   18.4460 N   0  0  0  0  0  0  0  0  0  0  0  0
   10.4474   15.8239   19.0738 C   0  0  0  0  0  0  0  0  0  0  0  0
   10.5439   15.8378   20.4097 N   0  0  0  0  0  0  0  0  0  0  0  0
   10.3994   13.9235   23.2816 N   0  0  0  0  0  0  0  0  0  0  0  0
    9.1623   13.8916   24.1662 C   0  0  0  0  0  0  0  0  0  0  0  0
    8.6775   14.7245   24.8132 O   0  0  0  0  0  0  0  0  0  0  0  0
    8.6768   12.5111   24.1655 C   0  0  0  0  0  0  0  0  0  0  0  0
    9.3016   11.5558   23.4461 N   0  0  0  0  0  0  0  0  0  0  0  0
    8.6770   10.4196   23.7965 N   0  0  0  0  0  0  0  0  0  0  0  0
    9.1361    9.1723   23.2260 C   0  0  0  0  0  0  0  0  0  0  0  0
    7.6832   10.6151   24.7240 C   0  0  0  0  0  0  0  0  0  0  0  0
    6.8130    9.7411   25.3690 C   0  0  0  0  0  0  0  0  0  0  0  0
    5.9289   10.2682   26.3136 C   0  0  0  0  0  0  0  0  0  0  0  0
    5.8904   11.6305   26.5664 C   0  0  0  0  0  0  0  0  0  0  0  0
    5.0269   12.1000   27.4768 F   0  0  0  0  0  0  0  0  0  0  0  0
    6.7392   12.5092   25.9070 C   0  0  0  0  0  0  0  0  0  0  0  0
    7.6507   11.9820   24.9733 C   0  0  0  0  0  0  0  0  0  0  0  0
  1  2  1  0
  2  3  1  0
  3  4  2  0
  3  5  1  0
  5  6  1  6
  6  7  1  0
  7  8  1  0
  8  9  2  0
  9 10  1  0
 10 11  2  0
  5 12  1  0
 12 13  1  0
 13 14  2  0
 13 15  1  0
 15 16  2  0
 16 17  1  0
 17 18  1  0
 17 19  1  0
 19 20  2  0
 20 21  1  0
 21 22  2  0
 22 23  1  0
 22 24  1  0
 24 25  2  0
 11  7  1  0
 25 15  1  0
 25 19  1  0
M  END
>  <energy_score>  (1454) 
-9.111225

>  <inchikey>  (1454) 
None

>  <smiles>  (1454) 
None

>  <ref_pdb>  (1454) 
A3176a

>  <alias>  (1454) 
None

>  <HIPPO Pose ID>  (1454) 
499098

>  <name>  (1454) 
P499098

>  <HIPPO Compound ID>  (1454) 
299817

>  <ref_mols>  (1454) 
A3417a,A3176a

>  <distance_score>  (1454) 
0.826384

>  <inspiration_score>  (1454) 
None

$$$$
P499099
     RDKit          3D

 25 27  0  0  0  0  0  0  0  0999 V2000
    8.9898   18.2700   20.6147 C   0  0  0  0  0  0  0  0  0  0  0  0
    8.7355   18.2071   19.2202 O   0  0  0  0  0  0  0  0  0  0  0  0
    9.4910   17.4252   18.3828 C   0  0  0  0  0  0  0  0  0  0  0  0
    9.3901   17.6733   17.1831 O   0  0  0  0  0  0  0  0  0  0  0  0
   10.3340   16.3282   18.9538 C   0  0  0  0  0  0  0  0  0  0  0  0
   11.3199   15.6958   18.2236 N   0  0  0  0  0  0  0  0  0  0  0  0
   11.8980   14.8839   19.0527 C   0  0  0  0  0  0  0  0  0  0  0  0
   11.3710   15.0615   20.2792 N   0  0  0  0  0  0  0  0  0  0  0  0
   12.1181   14.7760   21.4781 C   0  0  0  0  0  0  0  0  0  0  0  0
   11.4091   15.0308   22.7805 C   0  0  0  0  0  0  0  0  0  0  0  0
   10.5656   13.9530   23.1908 N   0  0  0  0  0  0  0  0  0  0  0  0
    9.5164   13.8796   24.2983 C   0  0  0  0  0  0  0  0  0  0  0  0
    9.2194   14.6591   25.1090 O   0  0  0  0  0  0  0  0  0  0  0  0
    8.9413   12.5250   24.2636 C   0  0  0  0  0  0  0  0  0  0  0  0
    9.4960   11.5572   23.5039 N   0  0  0  0  0  0  0  0  0  0  0  0
    8.7939   10.4515   23.8080 N   0  0  0  0  0  0  0  0  0  0  0  0
    9.1886    9.1935   23.2132 C   0  0  0  0  0  0  0  0  0  0  0  0
    7.7979   10.6763   24.7260 C   0  0  0  0  0  0  0  0  0  0  0  0
    6.8714    9.8302   25.3357 C   0  0  0  0  0  0  0  0  0  0  0  0
    5.9910   10.3842   26.2674 C   0  0  0  0  0  0  0  0  0  0  0  0
    6.0124   11.7438   26.5401 C   0  0  0  0  0  0  0  0  0  0  0  0
    5.1514   12.2412   27.4383 F   0  0  0  0  0  0  0  0  0  0  0  0
    6.9293   12.5910   25.9274 C   0  0  0  0  0  0  0  0  0  0  0  0
    7.8480   12.0367   25.0163 C   0  0  0  0  0  0  0  0  0  0  0  0
   10.3045   15.8754   20.2357 N   0  0  0  0  0  0  0  0  0  0  0  0
  1  2  1  0
  2  3  1  0
  3  4  2  0
  3  5  1  0
  5  6  1  0
  6  7  2  0
  7  8  1  0
  8  9  1  0
  9 10  1  0
 10 11  1  0
 11 12  1  0
 12 13  2  0
 12 14  1  0
 14 15  2  0
 15 16  1  0
 16 17  1  0
 16 18  1  0
 18 19  2  0
 19 20  1  0
 20 21  2  0
 21 22  1  0
 21 23  1  0
 23 24  2  0
  8 25  1  0
 25  5  2  0
 24 14  1  0
 24 18  1  0
M  END
>  <energy_score>  (1455) 
-16.331815

>  <inchikey>  (1455) 
None

>  <smiles>  (1455) 
None

>  <ref_pdb>  (1455) 
A3176a

>  <alias>  (1455) 
None

>  <HIPPO Pose ID>  (1455) 
499099

>  <name>  (1455) 
P499099

>  <HIPPO Compound ID>  (1455) 
299818

>  <ref_mols>  (1455) 
A3417a,A3176a

>  <distance_score>  (1455) 
0.734377

>  <inspiration_score>  (1455) 
None

$$$$
P499100
     RDKit          3D

 26 29  0  0  0  0  0  0  0  0999 V2000
    9.1502    8.9972   23.1389 C   0  0  0  0  0  0  0  0  0  0  0  0
    8.9132   10.3030   23.7086 N   0  0  0  0  0  0  0  0  0  0  0  0
    9.7409   11.3006   23.3691 N   0  0  0  0  0  0  0  0  0  0  0  0
    9.3425   12.3465   24.1156 C   0  0  0  0  0  0  0  0  0  0  0  0
   10.1444   13.5842   24.1519 C   0  0  0  0  0  0  0  0  0  0  0  0
    9.9628   14.4082   24.9577 O   0  0  0  0  0  0  0  0  0  0  0  0
   11.1669   13.5191   23.0055 N   0  0  0  0  0  0  0  0  0  0  0  0
   12.1166   14.4901   22.5486 C   0  0  0  0  0  0  0  0  0  0  0  0
   12.2078   14.5853   21.0228 C   0  0  0  0  0  0  0  0  0  0  0  0
   11.0180   15.0344   20.3304 N   0  0  0  0  0  0  0  0  0  0  0  0
   11.1478   15.5446   19.0394 N   0  0  0  0  0  0  0  0  0  0  0  0
   10.2587   16.4873   18.9878 C   0  0  0  0  0  0  0  0  0  0  0  0
    9.8738   17.4057   17.9058 C   0  0  0  0  0  0  0  0  0  0  0  0
    8.9691   18.3665   18.1647 C   0  0  0  0  0  0  0  0  0  0  0  0
    8.4956   18.6223   19.4869 C   0  0  0  0  0  0  0  0  0  0  0  0
    8.7737   17.7329   20.4382 C   0  0  0  0  0  0  0  0  0  0  0  0
    9.5812   16.6816   20.1418 N   0  0  0  0  0  0  0  0  0  0  0  0
    9.9802   15.7038   20.9740 C   0  0  0  0  0  0  0  0  0  0  0  0
    9.4990   15.4943   22.0714 O   0  0  0  0  0  0  0  0  0  0  0  0
    8.1719   12.0310   24.8563 C   0  0  0  0  0  0  0  0  0  0  0  0
    7.3170   12.7231   25.7352 C   0  0  0  0  0  0  0  0  0  0  0  0
    6.3061   12.0122   26.3775 C   0  0  0  0  0  0  0  0  0  0  0  0
    5.5110   12.6438   27.2522 F   0  0  0  0  0  0  0  0  0  0  0  0
    6.1326   10.6506   26.1712 C   0  0  0  0  0  0  0  0  0  0  0  0
    6.9470    9.9581   25.2729 C   0  0  0  0  0  0  0  0  0  0  0  0
    7.9561   10.6733   24.6206 C   0  0  0  0  0  0  0  0  0  0  0  0
  1  2  1  0
  2  3  1  0
  3  4  2  0
  4  5  1  0
  5  6  2  0
  5  7  1  0
  7  8  1  0
  8  9  1  0
  9 10  1  0
 10 11  1  0
 11 12  2  0
 12 13  1  0
 13 14  2  0
 14 15  1  0
 15 16  2  0
 16 17  1  0
 17 18  1  0
 18 19  2  0
  4 20  1  0
 20 21  2  0
 21 22  1  0
 22 23  1  0
 22 24  2  0
 24 25  1  0
 25 26  2  0
 26  2  1  0
 18 10  1  0
 26 20  1  0
 17 12  1  0
M  END
>  <energy_score>  (1456) 
-3.239157

>  <inchikey>  (1456) 
None

>  <smiles>  (1456) 
None

>  <ref_pdb>  (1456) 
A3176a

>  <alias>  (1456) 
None

>  <HIPPO Pose ID>  (1456) 
499100

>  <name>  (1456) 
P499100

>  <HIPPO Compound ID>  (1456) 
299823

>  <ref_mols>  (1456) 
A3417a,A3176a

>  <distance_score>  (1456) 
1.081492

>  <inspiration_score>  (1456) 
None

$$$$
P499101
     RDKit          3D

 26 29  0  0  0  0  0  0  0  0999 V2000
    8.5221   18.9129   18.9539 C   0  0  0  0  0  0  0  0  0  0  0  0
    9.7159   18.6491   18.2410 O   0  0  0  0  0  0  0  0  0  0  0  0
    9.8852   17.2977   17.7736 C   0  0  0  0  0  0  0  0  0  0  0  0
   10.2757   16.3397   18.8267 C   0  0  0  0  0  0  0  0  0  0  0  0
   11.5619   15.8850   19.0386 N   0  0  0  0  0  0  0  0  0  0  0  0
   11.5277   15.5323   20.2998 C   0  0  0  0  0  0  0  0  0  0  0  0
   10.2353   15.5024   20.6721 N   0  0  0  0  0  0  0  0  0  0  0  0
    9.4140   15.9720   19.7734 N   0  0  0  0  0  0  0  0  0  0  0  0
    9.7444   14.8952   21.8445 C   0  0  0  0  0  0  0  0  0  0  0  0
   10.8354   13.9933   22.3679 C   0  0  2  0  0  0  0  0  0  0  0  0
   10.1629   13.1623   23.2535 N   0  0  0  0  0  0  0  0  0  0  0  0
    9.3554   13.4909   24.4970 C   0  0  0  0  0  0  0  0  0  0  0  0
    9.1799   14.5039   25.0353 O   0  0  0  0  0  0  0  0  0  0  0  0
    8.7502   12.2118   24.8154 C   0  0  0  0  0  0  0  0  0  0  0  0
    9.1378   11.1475   24.0829 N   0  0  0  0  0  0  0  0  0  0  0  0
    8.2909   10.1880   24.4069 N   0  0  0  0  0  0  0  0  0  0  0  0
    8.5554    8.8871   23.8548 C   0  0  0  0  0  0  0  0  0  0  0  0
    7.3352   10.5956   25.3001 C   0  0  0  0  0  0  0  0  0  0  0  0
    6.2598    9.9469   25.8957 C   0  0  0  0  0  0  0  0  0  0  0  0
    5.5081   10.6551   26.8351 C   0  0  0  0  0  0  0  0  0  0  0  0
    5.7388   12.0025   27.0613 C   0  0  0  0  0  0  0  0  0  0  0  0
    4.9662   12.6592   27.9366 F   0  0  0  0  0  0  0  0  0  0  0  0
    6.7669   12.6766   26.4187 C   0  0  0  0  0  0  0  0  0  0  0  0
    7.6096   11.9353   25.5758 C   0  0  0  0  0  0  0  0  0  0  0  0
   12.0886   14.7778   22.6642 C   0  0  0  0  0  0  0  0  0  0  0  0
   12.6171   15.1890   21.2606 C   0  0  0  0  0  0  0  0  0  0  0  0
  1  2  1  0
  2  3  1  0
  3  4  1  0
  4  5  1  0
  5  6  2  0
  6  7  1  0
  7  8  1  0
  7  9  1  0
  9 10  1  0
 10 11  1  1
 11 12  1  0
 12 13  2  0
 12 14  1  0
 14 15  2  0
 15 16  1  0
 16 17  1  0
 16 18  1  0
 18 19  2  0
 19 20  1  0
 20 21  2  0
 21 22  1  0
 21 23  1  0
 23 24  2  0
 10 25  1  0
 25 26  1  0
  8  4  2  0
 24 14  1  0
 26  6  1  0
 24 18  1  0
M  END
>  <energy_score>  (1457) 
-11.91448

>  <inchikey>  (1457) 
None

>  <smiles>  (1457) 
None

>  <ref_pdb>  (1457) 
A3176a

>  <alias>  (1457) 
None

>  <HIPPO Pose ID>  (1457) 
499101

>  <name>  (1457) 
P499101

>  <HIPPO Compound ID>  (1457) 
299825

>  <ref_mols>  (1457) 
A3417a,A3176a

>  <distance_score>  (1457) 
1.415995

>  <inspiration_score>  (1457) 
None

$$$$
P499102
     RDKit          3D

 26 29  0  0  0  0  0  0  0  0999 V2000
    8.5754   18.8096   19.0667 C   0  0  0  0  0  0  0  0  0  0  0  0
    9.7829   18.5428   18.3795 O   0  0  0  0  0  0  0  0  0  0  0  0
    9.8799   17.2438   17.7656 C   0  0  0  0  0  0  0  0  0  0  0  0
   10.2120   16.1395   18.6958 C   0  0  0  0  0  0  0  0  0  0  0  0
   11.4255   15.4902   18.7371 N   0  0  0  0  0  0  0  0  0  0  0  0
   11.3954   14.9172   19.9130 C   0  0  0  0  0  0  0  0  0  0  0  0
   10.2217   15.2154   20.5196 N   0  0  0  0  0  0  0  0  0  0  0  0
    9.3838   15.7876   19.6813 N   0  0  0  0  0  0  0  0  0  0  0  0
   10.1930   15.7257   21.8576 C   0  0  0  0  0  0  0  0  0  0  0  0
   11.1903   15.0568   22.7683 C   0  0  1  0  0  0  0  0  0  0  0  0
   10.5433   13.8878   23.2660 N   0  0  0  0  0  0  0  0  0  0  0  0
    9.6002   13.7052   24.4512 C   0  0  0  0  0  0  0  0  0  0  0  0
    9.2554   14.4614   25.2636 O   0  0  0  0  0  0  0  0  0  0  0  0
    9.0503   12.3539   24.3798 C   0  0  0  0  0  0  0  0  0  0  0  0
    9.5927   11.4132   23.5839 N   0  0  0  0  0  0  0  0  0  0  0  0
    8.8476   10.3170   23.8247 N   0  0  0  0  0  0  0  0  0  0  0  0
    9.2002    9.0789   23.1672 C   0  0  0  0  0  0  0  0  0  0  0  0
    7.8371   10.5373   24.7292 C   0  0  0  0  0  0  0  0  0  0  0  0
    6.8720    9.7040   25.2882 C   0  0  0  0  0  0  0  0  0  0  0  0
    5.9804   10.2517   26.2140 C   0  0  0  0  0  0  0  0  0  0  0  0
    6.0194   11.6016   26.5216 C   0  0  0  0  0  0  0  0  0  0  0  0
    5.1426   12.0978   27.4048 F   0  0  0  0  0  0  0  0  0  0  0  0
    6.9753   12.4383   25.9605 C   0  0  0  0  0  0  0  0  0  0  0  0
    7.9159   11.8800   25.0734 C   0  0  0  0  0  0  0  0  0  0  0  0
   12.5435   14.8642   22.1269 C   0  0  0  0  0  0  0  0  0  0  0  0
   12.4957   14.3513   20.6871 C   0  0  0  0  0  0  0  0  0  0  0  0
  1  2  1  0
  2  3  1  0
  3  4  1  0
  4  5  1  0
  5  6  2  0
  6  7  1  0
  7  8  1  0
  7  9  1  0
  9 10  1  0
 10 11  1  6
 11 12  1  0
 12 13  2  0
 12 14  1  0
 14 15  2  0
 15 16  1  0
 16 17  1  0
 16 18  1  0
 18 19  2  0
 19 20  1  0
 20 21  2  0
 21 22  1  0
 21 23  1  0
 23 24  2  0
 10 25  1  0
 25 26  1  0
  8  4  2  0
 24 14  1  0
 26  6  1  0
 24 18  1  0
M  END
>  <energy_score>  (1458) 
-1.538697

>  <inchikey>  (1458) 
None

>  <smiles>  (1458) 
None

>  <ref_pdb>  (1458) 
A3176a

>  <alias>  (1458) 
None

>  <HIPPO Pose ID>  (1458) 
499102

>  <name>  (1458) 
P499102

>  <HIPPO Compound ID>  (1458) 
299825

>  <ref_mols>  (1458) 
A3417a,A3176a

>  <distance_score>  (1458) 
0.867794

>  <inspiration_score>  (1458) 
None

$$$$
P499103
     RDKit          3D

 26 29  0  0  0  0  0  0  0  0999 V2000
    9.1967    9.1664   23.1933 C   0  0  0  0  0  0  0  0  0  0  0  0
    8.8542   10.4441   23.7777 N   0  0  0  0  0  0  0  0  0  0  0  0
    9.6154   11.5120   23.4811 N   0  0  0  0  0  0  0  0  0  0  0  0
    9.1047   12.5102   24.2327 C   0  0  0  0  0  0  0  0  0  0  0  0
    9.7798   13.8229   24.2983 C   0  0  0  0  0  0  0  0  0  0  0  0
    9.4438   14.6585   25.0361 O   0  0  0  0  0  0  0  0  0  0  0  0
   10.9542   13.7784   23.3164 N   0  0  0  0  0  0  0  0  0  0  0  0
   11.9111   14.7856   22.9619 C   0  0  0  0  0  0  0  0  0  0  0  0
   12.3291   14.7218   21.5087 C   0  0  0  0  0  0  0  0  0  0  0  0
   11.3480   15.1333   20.5462 N   0  0  0  0  0  0  0  0  0  0  0  0
   11.4143   14.8783   19.2209 C   0  0  0  0  0  0  0  0  0  0  0  0
   10.5680   15.6458   18.5975 N   0  0  0  0  0  0  0  0  0  0  0  0
   10.0696   16.4471   19.5812 C   0  0  0  0  0  0  0  0  0  0  0  0
    9.3420   17.6697   19.2413 C   0  0  0  0  0  0  0  0  0  0  0  0
    9.1034   18.0201   17.9362 N   0  0  0  0  0  0  0  0  0  0  0  0
    8.4642   19.1793   17.9726 N   0  0  0  0  0  0  0  0  0  0  0  0
    8.3849   19.4736   19.2739 N   0  0  0  0  0  0  0  0  0  0  0  0
    8.9146   18.5869   20.1199 N   0  0  0  0  0  0  0  0  0  0  0  0
   10.4548   16.0862   20.8180 N   0  0  0  0  0  0  0  0  0  0  0  0
    7.9673   12.0789   24.9621 C   0  0  0  0  0  0  0  0  0  0  0  0
    7.0609   12.6759   25.8590 C   0  0  0  0  0  0  0  0  0  0  0  0
    6.1103   11.8690   26.4782 C   0  0  0  0  0  0  0  0  0  0  0  0
    5.2661   12.4091   27.3676 F   0  0  0  0  0  0  0  0  0  0  0  0
    6.0437   10.5059   26.2284 C   0  0  0  0  0  0  0  0  0  0  0  0
    6.9087    9.9082   25.3099 C   0  0  0  0  0  0  0  0  0  0  0  0
    7.8643   10.7164   24.6890 C   0  0  0  0  0  0  0  0  0  0  0  0
  1  2  1  0
  2  3  1  0
  3  4  2  0
  4  5  1  0
  5  6  2  0
  5  7  1  0
  7  8  1  0
  8  9  1  0
  9 10  1  0
 10 11  1  0
 11 12  2  0
 12 13  1  0
 13 14  1  0
 14 15  1  0
 15 16  2  0
 16 17  1  0
 17 18  1  0
 13 19  2  0
  4 20  1  0
 20 21  2  0
 21 22  1  0
 22 23  1  0
 22 24  2  0
 24 25  1  0
 25 26  2  0
 26  2  1  0
 19 10  1  0
 26 20  1  0
 18 14  2  0
M  END
>  <energy_score>  (1459) 
-34.098421

>  <inchikey>  (1459) 
None

>  <smiles>  (1459) 
None

>  <ref_pdb>  (1459) 
A3176a

>  <alias>  (1459) 
None

>  <HIPPO Pose ID>  (1459) 
499103

>  <name>  (1459) 
P499103

>  <HIPPO Compound ID>  (1459) 
299835

>  <ref_mols>  (1459) 
A3417a,A3176a

>  <distance_score>  (1459) 
0.732723

>  <inspiration_score>  (1459) 
None

$$$$
P499104
     RDKit          3D

 27 30  0  0  0  0  0  0  0  0999 V2000
    9.0441    9.1833   23.2747 C   0  0  0  0  0  0  0  0  0  0  0  0
    8.5709   10.4325   23.8295 N   0  0  0  0  0  0  0  0  0  0  0  0
    9.1875   11.5677   23.4671 N   0  0  0  0  0  0  0  0  0  0  0  0
    8.5980   12.5192   24.2244 C   0  0  0  0  0  0  0  0  0  0  0  0
    9.1850   13.8558   24.3265 C   0  0  0  0  0  0  0  0  0  0  0  0
    8.7480   14.7025   24.9905 O   0  0  0  0  0  0  0  0  0  0  0  0
   10.4577   13.8104   23.4975 N   0  0  0  0  0  0  0  0  0  0  0  0
   11.5159   14.7522   23.3758 C   0  0  2  0  0  0  0  0  0  0  0  0
   12.2193   14.6943   22.0188 C   0  0  0  0  0  0  0  0  0  0  0  0
   11.4140   15.0969   20.8892 N   0  0  0  0  0  0  0  0  0  0  0  0
   11.6628   14.8100   19.5873 C   0  0  0  0  0  0  0  0  0  0  0  0
   10.8179   15.4608   18.8327 N   0  0  0  0  0  0  0  0  0  0  0  0
   10.0878   16.1807   19.7258 C   0  0  0  0  0  0  0  0  0  0  0  0
   10.3836   15.9448   21.0057 N   0  0  0  0  0  0  0  0  0  0  0  0
   12.3725   14.4428   24.6065 C   0  0  0  0  0  0  0  0  0  0  0  0
   12.2218   15.1724   25.7958 C   0  0  0  0  0  0  0  0  0  0  0  0
   12.9054   14.8060   26.9609 C   0  0  0  0  0  0  0  0  0  0  0  0
   13.7534   13.7006   26.9630 C   0  0  0  0  0  0  0  0  0  0  0  0
   13.8656   12.9261   25.8169 C   0  0  0  0  0  0  0  0  0  0  0  0
   13.1421   13.2763   24.6744 C   0  0  0  0  0  0  0  0  0  0  0  0
    7.5625   11.9977   25.0211 C   0  0  0  0  0  0  0  0  0  0  0  0
    6.6745   12.5241   25.9766 C   0  0  0  0  0  0  0  0  0  0  0  0
    5.8337   11.6458   26.6466 C   0  0  0  0  0  0  0  0  0  0  0  0
    4.9925   12.1160   27.5775 F   0  0  0  0  0  0  0  0  0  0  0  0
    5.8632   10.2845   26.3884 C   0  0  0  0  0  0  0  0  0  0  0  0
    6.7270    9.7584   25.4248 C   0  0  0  0  0  0  0  0  0  0  0  0
    7.5867   10.6311   24.7659 C   0  0  0  0  0  0  0  0  0  0  0  0
  1  2  1  0
  2  3  1  0
  3  4  2  0
  4  5  1  0
  5  6  2  0
  5  7  1  0
  7  8  1  0
  8  9  1  6
  9 10  1  0
 10 11  1  0
 11 12  2  0
 12 13  1  0
 13 14  2  0
  8 15  1  0
 15 16  2  0
 16 17  1  0
 17 18  2  0
 18 19  1  0
 19 20  2  0
  4 21  1  0
 21 22  2  0
 22 23  1  0
 23 24  1  0
 23 25  2  0
 25 26  1  0
 26 27  2  0
 27  2  1  0
 14 10  1  0
 20 15  1  0
 27 21  1  0
M  END
>  <energy_score>  (1460) 
-33.178015

>  <inchikey>  (1460) 
None

>  <smiles>  (1460) 
None

>  <ref_pdb>  (1460) 
A3176a

>  <alias>  (1460) 
None

>  <HIPPO Pose ID>  (1460) 
499104

>  <name>  (1460) 
P499104

>  <HIPPO Compound ID>  (1460) 
299839

>  <ref_mols>  (1460) 
A3417a,A3176a

>  <distance_score>  (1460) 
0.859324

>  <inspiration_score>  (1460) 
None

$$$$
P499105
     RDKit          3D

 27 30  0  0  0  0  0  0  0  0999 V2000
    8.9069    8.8796   23.5139 C   0  0  0  0  0  0  0  0  0  0  0  0
    8.4923   10.2170   23.8598 N   0  0  0  0  0  0  0  0  0  0  0  0
    9.1738   11.2381   23.3349 N   0  0  0  0  0  0  0  0  0  0  0  0
    8.7180   12.3165   24.0004 C   0  0  0  0  0  0  0  0  0  0  0  0
    9.4804   13.5598   23.9596 C   0  0  0  0  0  0  0  0  0  0  0  0
    9.1369   14.5445   24.4752 O   0  0  0  0  0  0  0  0  0  0  0  0
   10.7779   13.2263   23.2240 N   0  0  0  0  0  0  0  0  0  0  0  0
   11.9621   13.9922   23.0459 C   0  0  1  0  0  0  0  0  0  0  0  0
   11.7071   15.3100   22.3071 C   0  0  0  0  0  0  0  0  0  0  0  0
   11.3329   15.1601   20.9135 N   0  0  0  0  0  0  0  0  0  0  0  0
   12.0478   14.5653   19.9251 C   0  0  0  0  0  0  0  0  0  0  0  0
   11.5245   14.8370   18.7598 N   0  0  0  0  0  0  0  0  0  0  0  0
   10.4897   15.6682   19.0828 C   0  0  0  0  0  0  0  0  0  0  0  0
   10.3028   15.8549   20.3941 N   0  0  0  0  0  0  0  0  0  0  0  0
   12.5631   14.0674   24.4566 C   0  0  0  0  0  0  0  0  0  0  0  0
   13.3687   13.0209   24.9389 C   0  0  0  0  0  0  0  0  0  0  0  0
   13.9108   13.0220   26.2268 C   0  0  0  0  0  0  0  0  0  0  0  0
   13.5392   14.0143   27.1219 C   0  0  0  0  0  0  0  0  0  0  0  0
   12.6244   14.9816   26.7193 C   0  0  0  0  0  0  0  0  0  0  0  0
   12.1603   15.0168   25.3993 C   0  0  0  0  0  0  0  0  0  0  0  0
    7.6607   11.9932   24.8753 C   0  0  0  0  0  0  0  0  0  0  0  0
    6.8643   12.6982   25.7964 C   0  0  0  0  0  0  0  0  0  0  0  0
    5.9682   11.9791   26.5798 C   0  0  0  0  0  0  0  0  0  0  0  0
    5.2177   12.6230   27.4839 F   0  0  0  0  0  0  0  0  0  0  0  0
    5.8517   10.6021   26.4660 C   0  0  0  0  0  0  0  0  0  0  0  0
    6.6245    9.8981   25.5412 C   0  0  0  0  0  0  0  0  0  0  0  0
    7.5469   10.6094   24.7758 C   0  0  0  0  0  0  0  0  0  0  0  0
  1  2  1  0
  2  3  1  0
  3  4  2  0
  4  5  1  0
  5  6  2  0
  5  7  1  0
  7  8  1  0
  8  9  1  1
  9 10  1  0
 10 11  1  0
 11 12  2  0
 12 13  1  0
 13 14  2  0
  8 15  1  0
 15 16  2  0
 16 17  1  0
 17 18  2  0
 18 19  1  0
 19 20  2  0
  4 21  1  0
 21 22  2  0
 22 23  1  0
 23 24  1  0
 23 25  2  0
 25 26  1  0
 26 27  2  0
 27  2  1  0
 14 10  1  0
 20 15  1  0
 27 21  1  0
M  END
>  <energy_score>  (1461) 
-30.668538

>  <inchikey>  (1461) 
None

>  <smiles>  (1461) 
None

>  <ref_pdb>  (1461) 
A3176a

>  <alias>  (1461) 
None

>  <HIPPO Pose ID>  (1461) 
499105

>  <name>  (1461) 
P499105

>  <HIPPO Compound ID>  (1461) 
299839

>  <ref_mols>  (1461) 
A3417a,A3176a

>  <distance_score>  (1461) 
0.899807

>  <inspiration_score>  (1461) 
None

$$$$
P499106
     RDKit          3D

 30 33  0  0  0  0  0  0  0  0999 V2000
   13.5436   13.5183   25.7078 C   0  0  0  0  0  0  0  0  0  0  0  0
   13.0347   13.9198   24.3365 C   0  0  0  0  0  0  0  0  0  0  0  0
   11.6259   14.4767   24.2948 C   0  0  2  0  0  0  0  0  0  0  0  0
   10.6766   13.4485   24.4640 N   0  0  0  0  0  0  0  0  0  0  0  0
    9.4621   13.3700   25.3582 C   0  0  0  0  0  0  0  0  0  0  0  0
    9.0743   14.1047   26.1670 O   0  0  0  0  0  0  0  0  0  0  0  0
    8.7515   12.1794   24.9413 C   0  0  0  0  0  0  0  0  0  0  0  0
    9.2716   11.3469   24.0191 N   0  0  0  0  0  0  0  0  0  0  0  0
    8.4826   10.2700   24.0875 N   0  0  0  0  0  0  0  0  0  0  0  0
    8.8789    9.1004   23.3384 C   0  0  0  0  0  0  0  0  0  0  0  0
    7.4526   10.4354   24.9822 C   0  0  0  0  0  0  0  0  0  0  0  0
    6.4771    9.5887   25.4722 C   0  0  0  0  0  0  0  0  0  0  0  0
    5.6191   10.0630   26.4691 C   0  0  0  0  0  0  0  0  0  0  0  0
    5.6520   11.3850   26.8717 C   0  0  0  0  0  0  0  0  0  0  0  0
    4.7866   11.8132   27.7998 F   0  0  0  0  0  0  0  0  0  0  0  0
    6.6022   12.2515   26.3678 C   0  0  0  0  0  0  0  0  0  0  0  0
    7.5393   11.7340   25.4578 C   0  0  0  0  0  0  0  0  0  0  0  0
   11.2238   15.2178   22.9824 C   0  0  2  0  0  0  0  0  0  0  0  0
    9.7348   15.1480   22.5510 C   0  0  0  0  0  0  0  0  0  0  0  0
    9.3073   14.8953   21.2537 C   0  0  0  0  0  0  0  0  0  0  0  0
    7.9470   14.7198   21.0002 C   0  0  0  0  0  0  0  0  0  0  0  0
    6.9531   14.8247   21.9773 C   0  0  0  0  0  0  0  0  0  0  0  0
    5.4967   14.6621   21.6724 C   0  0  0  0  0  0  0  0  0  0  0  0
    7.3498   15.1794   23.2441 C   0  0  0  0  0  0  0  0  0  0  0  0
    8.7087   15.3364   23.5013 C   0  0  0  0  0  0  0  0  0  0  0  0
   12.0714   14.8419   21.8974 N   0  0  0  0  0  0  0  0  0  0  0  0
   12.7477   15.6803   21.1092 C   0  0  0  0  0  0  0  0  0  0  0  0
   12.8662   15.1225   19.9342 N   0  0  0  0  0  0  0  0  0  0  0  0
   12.5251   13.8547   20.1958 C   0  0  0  0  0  0  0  0  0  0  0  0
   12.1121   13.6117   21.4349 N   0  0  0  0  0  0  0  0  0  0  0  0
  1  2  1  0
  3  2  1  6
  3  4  1  0
  4  5  1  0
  5  6  2  0
  5  7  1  0
  7  8  2  0
  8  9  1  0
  9 10  1  0
  9 11  1  0
 11 12  2  0
 12 13  1  0
 13 14  2  0
 14 15  1  0
 14 16  1  0
 16 17  2  0
  3 18  1  0
 18 19  1  0
 19 20  2  0
 20 21  1  0
 21 22  2  0
 22 23  1  0
 22 24  1  0
 24 25  2  0
 18 26  1  6
 26 27  1  0
 27 28  2  0
 28 29  1  0
 29 30  2  0
 17  7  1  0
 25 19  1  0
 30 26  1  0
 17 11  1  0
M  END
>  <energy_score>  (1462) 
-5.203058

>  <inchikey>  (1462) 
None

>  <smiles>  (1462) 
None

>  <ref_pdb>  (1462) 
A3176a

>  <alias>  (1462) 
None

>  <HIPPO Pose ID>  (1462) 
499106

>  <name>  (1462) 
P499106

>  <HIPPO Compound ID>  (1462) 
299845

>  <ref_mols>  (1462) 
A3417a,A3176a

>  <distance_score>  (1462) 
1.629659

>  <inspiration_score>  (1462) 
None

$$$$
P499107
     RDKit          3D

 16 17  0  0  0  0  0  0  0  0999 V2000
   12.3376   15.3257   21.8436 C   0  0  0  0  0  0  0  0  0  0  0  0
   12.0212   13.9040   21.3532 C   0  0  1  0  0  0  0  0  0  0  0  0
   10.4964   13.8227   21.5069 C   0  0  0  0  0  0  0  0  0  0  0  0
    9.7098   13.3753   22.6048 N   0  0  0  0  0  0  0  0  0  0  0  0
   10.0392   12.3874   23.7309 C   0  0  0  0  0  0  0  0  0  0  0  0
   11.0341   11.8381   23.9862 O   0  0  0  0  0  0  0  0  0  0  0  0
    8.6123   12.2086   24.5377 C   0  0  0  0  0  0  0  0  0  0  0  0
    7.3202   13.3625   23.8933 Cl  0  0  0  0  0  0  0  0  0  0  0  0
    8.6597   12.2618   26.0755 C   0  0  0  0  0  0  0  0  0  0  0  0
    7.5951   11.1514   26.0831 C   0  0  0  0  0  0  0  0  0  0  0  0
    8.2189   10.6993   24.7554 C   0  0  0  0  0  0  0  0  0  0  0  0
   12.4992   13.8675   19.8650 C   0  0  0  0  0  0  0  0  0  0  0  0
   13.3799   12.6046   19.7064 C   0  0  0  0  0  0  0  0  0  0  0  0
   13.2224   11.8919   21.0350 C   0  0  0  0  0  0  0  0  0  0  0  0
   13.5198   10.7282   21.2255 O   0  0  0  0  0  0  0  0  0  0  0  0
   12.7041   12.7877   21.9700 N   0  0  0  0  0  0  0  0  0  0  0  0
  2  1  1  1
  2  3  1  0
  3  4  1  0
  4  5  1  0
  5  6  2  0
  5  7  1  0
  7  8  1  0
  7  9  1  0
  9 10  1  0
 10 11  1  0
  2 12  1  0
 12 13  1  0
 13 14  1  0
 14 15  2  0
 14 16  1  0
 16  2  1  0
 11  7  1  0
M  END
>  <energy_score>  (1463) 
-9.548039

>  <inchikey>  (1463) 
None

>  <smiles>  (1463) 
None

>  <ref_pdb>  (1463) 
A1776a

>  <alias>  (1463) 
None

>  <HIPPO Pose ID>  (1463) 
499107

>  <name>  (1463) 
P499107

>  <HIPPO Compound ID>  (1463) 
300681

>  <ref_mols>  (1463) 
A1776a,A0528a

>  <distance_score>  (1463) 
1.882565

>  <inspiration_score>  (1463) 
None

$$$$
P499108
     RDKit          3D

 17 17  0  0  0  0  0  0  0  0999 V2000
    4.6507   13.8895   32.0747 C   0  0  0  0  0  0  0  0  0  0  0  0
    4.4666   13.4550   30.6286 C   0  0  0  0  0  0  0  0  0  0  0  0
    5.8120   13.3335   29.9084 C   0  0  0  0  0  0  0  0  0  0  0  0
    5.6715   12.9850   28.4226 C   0  0  2  0  0  0  0  0  0  0  0  0
    5.0146   11.3336   28.2040 Cl  0  0  0  0  0  0  0  0  0  0  0  0
    7.0292   13.0534   27.6878 C   0  0  0  0  0  0  0  0  0  0  0  0
    8.0445   13.2270   28.2406 O   0  0  0  0  0  0  0  0  0  0  0  0
    6.7217   12.9002   26.1724 N   0  0  0  0  0  0  0  0  0  0  0  0
    7.6108   12.8345   25.0383 C   0  0  0  0  0  0  0  0  0  0  0  0
    8.2810   11.4473   24.9724 C   0  0  1  0  0  0  0  0  0  0  0  0
    8.8284   11.0870   23.6151 C   0  0  0  0  0  0  0  0  0  0  0  0
   10.3014   11.4521   23.5679 C   0  0  0  0  0  0  0  0  0  0  0  0
   11.1413   10.3466   22.9258 C   0  0  0  0  0  0  0  0  0  0  0  0
   10.5389   12.8007   22.9017 C   0  0  0  0  0  0  0  0  0  0  0  0
   10.5899   11.6278   25.0229 C   0  0  0  0  0  0  0  0  0  0  0  0
   11.6642   11.9527   25.4795 O   0  0  0  0  0  0  0  0  0  0  0  0
    9.4520   11.4286   25.7719 N   0  0  0  0  0  0  0  0  0  0  0  0
  1  2  1  0
  2  3  1  0
  3  4  1  0
  4  5  1  1
  4  6  1  0
  6  7  2  0
  6  8  1  0
  8  9  1  0
 10  9  1  6
 10 11  1  0
 11 12  1  0
 12 13  1  0
 12 14  1  0
 12 15  1  0
 15 16  2  0
 15 17  1  0
 17 10  1  0
M  END
>  <energy_score>  (1464) 
-11.696063

>  <inchikey>  (1464) 
None

>  <smiles>  (1464) 
None

>  <ref_pdb>  (1464) 
A1776a

>  <alias>  (1464) 
None

>  <HIPPO Pose ID>  (1464) 
499108

>  <name>  (1464) 
P499108

>  <HIPPO Compound ID>  (1464) 
300701

>  <ref_mols>  (1464) 
A1776a,A0528a

>  <distance_score>  (1464) 
1.84603

>  <inspiration_score>  (1464) 
None

$$$$
P499109
     RDKit          3D

 17 17  0  0  0  0  0  0  0  0999 V2000
    2.0071   13.9842   29.8221 C   0  0  0  0  0  0  0  0  0  0  0  0
    3.0032   14.3012   28.9856 C   0  0  0  0  0  0  0  0  0  0  0  0
    4.4061   13.7613   29.1043 C   0  0  0  0  0  0  0  0  0  0  0  0
    4.8519   12.9621   27.8708 C   0  0  2  0  0  0  0  0  0  0  0  0
    3.9970   11.3830   27.8159 Cl  0  0  0  0  0  0  0  0  0  0  0  0
    6.3639   12.6632   27.9086 C   0  0  0  0  0  0  0  0  0  0  0  0
    7.0352   12.9229   28.8297 O   0  0  0  0  0  0  0  0  0  0  0  0
    6.7242   11.9724   26.5623 N   0  0  0  0  0  0  0  0  0  0  0  0
    7.9568   11.3788   26.1182 C   0  0  0  0  0  0  0  0  0  0  0  0
    7.9707   10.9515   24.6557 C   0  0  2  0  0  0  0  0  0  0  0  0
    9.1585   10.1021   24.2280 C   0  0  0  0  0  0  0  0  0  0  0  0
   10.2105   11.1264   23.7837 C   0  0  0  0  0  0  0  0  0  0  0  0
   11.1455   10.5291   22.7455 C   0  0  0  0  0  0  0  0  0  0  0  0
   10.9854   11.6665   24.9583 C   0  0  0  0  0  0  0  0  0  0  0  0
    9.3593   12.3033   23.3528 C   0  0  0  0  0  0  0  0  0  0  0  0
    9.7480   13.3267   22.8285 O   0  0  0  0  0  0  0  0  0  0  0  0
    8.0623   12.0893   23.7776 N   0  0  0  0  0  0  0  0  0  0  0  0
  1  2  2  0
  2  3  1  0
  3  4  1  0
  4  5  1  1
  4  6  1  0
  6  7  2  0
  6  8  1  0
  8  9  1  0
 10  9  1  1
 10 11  1  0
 11 12  1  0
 12 13  1  0
 12 14  1  0
 12 15  1  0
 15 16  2  0
 15 17  1  0
 17 10  1  0
M  END
>  <energy_score>  (1465) 
-12.496969

>  <inchikey>  (1465) 
None

>  <smiles>  (1465) 
None

>  <ref_pdb>  (1465) 
A1776a

>  <alias>  (1465) 
None

>  <HIPPO Pose ID>  (1465) 
499109

>  <name>  (1465) 
P499109

>  <HIPPO Compound ID>  (1465) 
300703

>  <ref_mols>  (1465) 
A1776a,A0528a

>  <distance_score>  (1465) 
1.860804

>  <inspiration_score>  (1465) 
None

$$$$
P499110
     RDKit          3D

 17 18  0  0  0  0  0  0  0  0999 V2000
    7.7253    9.8085   25.2766 C   0  0  0  0  0  0  0  0  0  0  0  0
    7.4750   11.1857   25.8019 C   0  0  0  0  0  0  0  0  0  0  0  0
    6.2964   11.2829   26.7415 C   0  0  0  0  0  0  0  0  0  0  0  0
    8.6436   12.0733   26.1260 C   0  0  0  0  0  0  0  0  0  0  0  0
    7.8548   12.3176   24.8577 C   0  0  2  0  0  0  0  0  0  0  0  0
    6.8565   13.7910   24.8571 Cl  0  0  0  0  0  0  0  0  0  0  0  0
    8.6611   12.0705   23.5969 C   0  0  0  0  0  0  0  0  0  0  0  0
    8.9437   10.9969   23.2754 O   0  0  0  0  0  0  0  0  0  0  0  0
    9.0489   13.4064   23.0033 N   0  0  0  0  0  0  0  0  0  0  0  0
    9.9493   13.7253   21.9357 C   0  0  0  0  0  0  0  0  0  0  0  0
   11.4461   13.5099   22.2532 C   0  0  2  0  0  0  0  0  0  0  0  0
   11.9882   14.9302   21.9593 C   0  0  0  0  0  0  0  0  0  0  0  0
   12.4296   12.5378   21.6175 C   0  0  0  0  0  0  0  0  0  0  0  0
   12.0053   11.1573   22.0872 C   0  0  0  0  0  0  0  0  0  0  0  0
   11.7442   11.5060   23.5035 C   0  0  0  0  0  0  0  0  0  0  0  0
   11.6527   10.7480   24.4466 O   0  0  0  0  0  0  0  0  0  0  0  0
   11.5099   12.8708   23.5616 N   0  0  0  0  0  0  0  0  0  0  0  0
  1  2  1  0
  2  3  1  0
  2  4  1  0
  4  5  1  0
  5  6  1  1
  5  7  1  0
  7  8  2  0
  7  9  1  0
  9 10  1  0
 11 10  1  0
 11 12  1  1
 11 13  1  0
 13 14  1  0
 14 15  1  0
 15 16  2  0
 15 17  1  0
  5  2  1  0
 17 11  1  0
M  END
>  <energy_score>  (1466) 
-15.563504

>  <inchikey>  (1466) 
None

>  <smiles>  (1466) 
None

>  <ref_pdb>  (1466) 
A1776a

>  <alias>  (1466) 
None

>  <HIPPO Pose ID>  (1466) 
499110

>  <name>  (1466) 
P499110

>  <HIPPO Compound ID>  (1466) 
300715

>  <ref_mols>  (1466) 
A1776a,A0528a

>  <distance_score>  (1466) 
1.845144

>  <inspiration_score>  (1466) 
None

$$$$
P499111
     RDKit          3D

 17 17  0  0  0  0  0  0  0  0999 V2000
    3.5567   12.9739   27.3812 C   0  0  0  0  0  0  0  0  0  0  0  0
    4.4442   12.0733   28.2483 C   0  0  0  0  0  0  0  0  0  0  0  0
    4.5616   10.6602   27.6670 C   0  0  0  0  0  0  0  0  0  0  0  0
    5.8105   12.6468   28.6796 C   0  0  2  0  0  0  0  0  0  0  0  0
    5.6540   14.2571   29.4616 Cl  0  0  0  0  0  0  0  0  0  0  0  0
    7.0917   12.6830   27.7871 C   0  0  0  0  0  0  0  0  0  0  0  0
    8.1331   12.6983   28.3206 O   0  0  0  0  0  0  0  0  0  0  0  0
    6.7370   12.6332   26.2805 N   0  0  0  0  0  0  0  0  0  0  0  0
    7.5910   12.4952   25.1150 C   0  0  0  0  0  0  0  0  0  0  0  0
    8.3387   11.1478   25.2094 C   0  0  1  0  0  0  0  0  0  0  0  0
    8.9157   10.5018   23.9751 C   0  0  0  0  0  0  0  0  0  0  0  0
   10.1945   11.2634   23.6602 C   0  0  0  0  0  0  0  0  0  0  0  0
   11.1902   10.3860   22.9096 C   0  0  0  0  0  0  0  0  0  0  0  0
    9.9577   12.6124   22.9786 C   0  0  0  0  0  0  0  0  0  0  0  0
   10.6170   11.5769   25.0618 C   0  0  0  0  0  0  0  0  0  0  0  0
   11.7035   11.9965   25.3910 O   0  0  0  0  0  0  0  0  0  0  0  0
    9.5441   11.3980   25.9155 N   0  0  0  0  0  0  0  0  0  0  0  0
  1  2  1  0
  2  3  1  0
  2  4  1  0
  4  5  1  6
  4  6  1  0
  6  7  2  0
  6  8  1  0
  8  9  1  0
 10  9  1  6
 10 11  1  0
 11 12  1  0
 12 13  1  0
 12 14  1  0
 12 15  1  0
 15 16  2  0
 15 17  1  0
 17 10  1  0
M  END
>  <energy_score>  (1467) 
-10.417022

>  <inchikey>  (1467) 
None

>  <smiles>  (1467) 
None

>  <ref_pdb>  (1467) 
A1776a

>  <alias>  (1467) 
None

>  <HIPPO Pose ID>  (1467) 
499111

>  <name>  (1467) 
P499111

>  <HIPPO Compound ID>  (1467) 
300718

>  <ref_mols>  (1467) 
A1776a,A0528a

>  <distance_score>  (1467) 
1.993591

>  <inspiration_score>  (1467) 
None

$$$$
P499112
     RDKit          3D

 17 17  0  0  0  0  0  0  0  0999 V2000
    7.5584   15.1381   22.8326 C   0  0  0  0  0  0  0  0  0  0  0  0
    8.5446   14.4722   22.2175 C   0  0  0  0  0  0  0  0  0  0  0  0
    9.9527   14.4396   22.7348 C   0  0  0  0  0  0  0  0  0  0  0  0
   11.0291   13.9819   21.7543 C   0  0  1  0  0  0  0  0  0  0  0  0
   12.1506   15.3225   21.3928 Cl  0  0  0  0  0  0  0  0  0  0  0  0
   11.8651   12.7584   22.2144 C   0  0  0  0  0  0  0  0  0  0  0  0
   13.0271   12.7637   22.2424 O   0  0  0  0  0  0  0  0  0  0  0  0
   10.8677   11.6216   22.4874 N   0  0  0  0  0  0  0  0  0  0  0  0
   11.0897   10.2423   22.7569 C   0  0  0  0  0  0  0  0  0  0  0  0
   10.6150    9.8518   24.1334 C   0  0  2  0  0  0  0  0  0  0  0  0
    9.1919    9.3273   24.0798 C   0  0  0  0  0  0  0  0  0  0  0  0
    8.3605   10.5337   24.4464 C   0  0  0  0  0  0  0  0  0  0  0  0
    7.1549   10.1482   24.9120 F   0  0  0  0  0  0  0  0  0  0  0  0
    8.1863   11.3292   23.3583 F   0  0  0  0  0  0  0  0  0  0  0  0
    9.2325   11.2725   25.4144 C   0  0  0  0  0  0  0  0  0  0  0  0
    8.8762   12.0674   26.2653 O   0  0  0  0  0  0  0  0  0  0  0  0
   10.5391   10.9486   25.0823 N   0  0  0  0  0  0  0  0  0  0  0  0
  1  2  2  0
  2  3  1  0
  3  4  1  0
  4  5  1  1
  4  6  1  0
  6  7  2  0
  6  8  1  0
  8  9  1  0
 10  9  1  6
 10 11  1  0
 11 12  1  0
 12 13  1  0
 12 14  1  0
 12 15  1  0
 15 16  2  0
 15 17  1  0
 17 10  1  0
M  END
>  <energy_score>  (1468) 
-9.037996

>  <inchikey>  (1468) 
None

>  <smiles>  (1468) 
None

>  <ref_pdb>  (1468) 
A1776a

>  <alias>  (1468) 
None

>  <HIPPO Pose ID>  (1468) 
499112

>  <name>  (1468) 
P499112

>  <HIPPO Compound ID>  (1468) 
300721

>  <ref_mols>  (1468) 
A1776a,A0528a

>  <distance_score>  (1468) 
1.943178

>  <inspiration_score>  (1468) 
None

$$$$
P499113
     RDKit          3D

 17 17  0  0  0  0  0  0  0  0999 V2000
    7.1451   14.5175   23.2393 C   0  0  0  0  0  0  0  0  0  0  0  0
    8.0382   14.8616   22.3022 C   0  0  0  0  0  0  0  0  0  0  0  0
    9.4729   15.2072   22.6065 C   0  0  0  0  0  0  0  0  0  0  0  0
   10.4432   14.1577   22.0365 C   0  0  1  0  0  0  0  0  0  0  0  0
   12.0228   14.8194   21.6483 Cl  0  0  0  0  0  0  0  0  0  0  0  0
   10.5085   13.0370   23.0438 C   0  0  0  0  0  0  0  0  0  0  0  0
   10.0445   13.1901   24.1011 O   0  0  0  0  0  0  0  0  0  0  0  0
   11.1366   11.7861   22.4014 N   0  0  0  0  0  0  0  0  0  0  0  0
   11.2401   10.4268   22.8936 C   0  0  0  0  0  0  0  0  0  0  0  0
    9.9838   10.3220   23.7276 C   0  0  1  0  0  0  0  0  0  0  0  0
    9.1804    9.0862   23.9401 C   0  0  0  0  0  0  0  0  0  0  0  0
    8.0982    9.7717   24.7815 C   0  0  0  0  0  0  0  0  0  0  0  0
    7.2749    8.9223   25.3901 F   0  0  0  0  0  0  0  0  0  0  0  0
    7.3186   10.5264   23.9940 F   0  0  0  0  0  0  0  0  0  0  0  0
    8.8511   10.7428   25.6484 C   0  0  0  0  0  0  0  0  0  0  0  0
    8.4097   11.4143   26.5638 O   0  0  0  0  0  0  0  0  0  0  0  0
   10.1107   10.8651   25.0683 N   0  0  0  0  0  0  0  0  0  0  0  0
  1  2  2  0
  2  3  1  0
  3  4  1  0
  4  5  1  1
  4  6  1  0
  6  7  2  0
  6  8  1  0
  8  9  1  0
 10  9  1  1
 10 11  1  0
 11 12  1  0
 12 13  1  0
 12 14  1  0
 12 15  1  0
 15 16  2  0
 15 17  1  0
 17 10  1  0
M  END
>  <energy_score>  (1469) 
-1.129559

>  <inchikey>  (1469) 
None

>  <smiles>  (1469) 
None

>  <ref_pdb>  (1469) 
A1776a

>  <alias>  (1469) 
None

>  <HIPPO Pose ID>  (1469) 
499113

>  <name>  (1469) 
P499113

>  <HIPPO Compound ID>  (1469) 
300721

>  <ref_mols>  (1469) 
A1776a,A0528a

>  <distance_score>  (1469) 
1.998091

>  <inspiration_score>  (1469) 
None

$$$$
P499114
     RDKit          3D

 17 17  0  0  0  0  0  0  0  0999 V2000
    7.4541   14.9129   23.3447 C   0  0  0  0  0  0  0  0  0  0  0  0
    8.4002   14.2956   22.3221 C   0  0  0  0  0  0  0  0  0  0  0  0
    9.8564   14.4435   22.7578 C   0  0  0  0  0  0  0  0  0  0  0  0
   10.9278   13.9772   21.7766 C   0  0  1  0  0  0  0  0  0  0  0  0
   12.0613   15.3202   21.4304 Cl  0  0  0  0  0  0  0  0  0  0  0  0
   11.7952   12.7598   22.2127 C   0  0  0  0  0  0  0  0  0  0  0  0
   12.9571   12.7813   22.2090 O   0  0  0  0  0  0  0  0  0  0  0  0
   10.8229   11.6106   22.5099 N   0  0  0  0  0  0  0  0  0  0  0  0
   11.0710   10.2348   22.7700 C   0  0  0  0  0  0  0  0  0  0  0  0
   10.6103    9.8286   24.1448 C   0  0  2  0  0  0  0  0  0  0  0  0
    9.1958    9.2822   24.0934 C   0  0  0  0  0  0  0  0  0  0  0  0
    8.3474   10.4682   24.4820 C   0  0  0  0  0  0  0  0  0  0  0  0
    7.1524   10.0621   24.9574 F   0  0  0  0  0  0  0  0  0  0  0  0
    8.1470   11.2643   23.4019 F   0  0  0  0  0  0  0  0  0  0  0  0
    9.2154   11.2274   25.4372 C   0  0  0  0  0  0  0  0  0  0  0  0
    8.8526   12.0321   26.2761 O   0  0  0  0  0  0  0  0  0  0  0  0
   10.5237   10.9199   25.0991 N   0  0  0  0  0  0  0  0  0  0  0  0
  1  2  1  0
  2  3  1  0
  3  4  1  0
  4  5  1  1
  4  6  1  0
  6  7  2  0
  6  8  1  0
  8  9  1  0
 10  9  1  6
 10 11  1  0
 11 12  1  0
 12 13  1  0
 12 14  1  0
 12 15  1  0
 15 16  2  0
 15 17  1  0
 17 10  1  0
M  END
>  <energy_score>  (1470) 
-10.871187

>  <inchikey>  (1470) 
None

>  <smiles>  (1470) 
None

>  <ref_pdb>  (1470) 
A1776a

>  <alias>  (1470) 
None

>  <HIPPO Pose ID>  (1470) 
499114

>  <name>  (1470) 
P499114

>  <HIPPO Compound ID>  (1470) 
300732

>  <ref_mols>  (1470) 
A1776a,A0528a

>  <distance_score>  (1470) 
1.882194

>  <inspiration_score>  (1470) 
None

$$$$
P499115
     RDKit          3D

 18 19  0  0  0  0  0  0  0  0999 V2000
   13.7090   10.3384   20.7508 O   0  0  0  0  0  0  0  0  0  0  0  0
   12.8501   10.6897   21.5435 C   0  0  0  0  0  0  0  0  0  0  0  0
   12.7328   12.0234   21.9079 N   0  0  0  0  0  0  0  0  0  0  0  0
   11.6682   12.2023   22.8343 C   0  0  1  0  0  0  0  0  0  0  0  0
   10.7615   13.3854   22.4972 C   0  0  0  0  0  0  0  0  0  0  0  0
    9.6589   13.4659   23.4120 N   0  0  0  0  0  0  0  0  0  0  0  0
    8.1733   13.2431   23.1896 C   0  0  0  0  0  0  0  0  0  0  0  0
    7.5826   13.0323   22.2154 O   0  0  0  0  0  0  0  0  0  0  0  0
    7.3874   13.2604   24.4691 C   0  0  2  0  0  0  0  0  0  0  0  0
    5.8546   14.1775   24.2642 Cl  0  0  0  0  0  0  0  0  0  0  0  0
    7.8703   13.3144   25.8979 C   0  0  0  0  0  0  0  0  0  0  0  0
    7.4470   11.9907   25.3485 C   0  0  2  0  0  0  0  0  0  0  0  0
    8.5363   10.9750   25.3947 C   0  0  0  0  0  0  0  0  0  0  0  0
    8.3311    9.5969   24.3491 Cl  0  0  0  0  0  0  0  0  0  0  0  0
   10.9615   10.8706   22.9613 C   0  0  0  0  0  0  0  0  0  0  0  0
   11.7784    9.8517   22.2362 C   0  0  0  0  0  0  0  0  0  0  0  0
   12.1810    8.9384   23.1512 F   0  0  0  0  0  0  0  0  0  0  0  0
   10.9768    9.1663   21.3892 F   0  0  0  0  0  0  0  0  0  0  0  0
  1  2  2  0
  2  3  1  0
  3  4  1  0
  4  5  1  6
  5  6  1  0
  6  7  1  0
  7  8  2  0
  7  9  1  0
  9 10  1  6
  9 11  1  0
 11 12  1  0
 12 13  1  6
 13 14  1  0
  4 15  1  0
 15 16  1  0
 16 17  1  0
 16 18  1  0
 16  2  1  0
 12  9  1  0
M  END
>  <energy_score>  (1471) 
-2.947735

>  <inchikey>  (1471) 
None

>  <smiles>  (1471) 
None

>  <ref_pdb>  (1471) 
A1776a

>  <alias>  (1471) 
None

>  <HIPPO Pose ID>  (1471) 
499115

>  <name>  (1471) 
P499115

>  <HIPPO Compound ID>  (1471) 
300769

>  <ref_mols>  (1471) 
A1776a,A0528a

>  <distance_score>  (1471) 
1.870813

>  <inspiration_score>  (1471) 
None

$$$$
P499116
     RDKit          3D

 18 19  0  0  0  0  0  0  0  0999 V2000
   13.8820   10.4762   20.6581 O   0  0  0  0  0  0  0  0  0  0  0  0
   12.9999   10.7810   21.4438 C   0  0  0  0  0  0  0  0  0  0  0  0
   12.7691   12.1191   21.7587 N   0  0  0  0  0  0  0  0  0  0  0  0
   11.7789   12.2127   22.7668 C   0  0  1  0  0  0  0  0  0  0  0  0
   10.7270   13.3253   22.6335 C   0  0  0  0  0  0  0  0  0  0  0  0
    9.8571   13.1016   23.7558 N   0  0  0  0  0  0  0  0  0  0  0  0
    8.3625   12.8099   23.8081 C   0  0  0  0  0  0  0  0  0  0  0  0
    7.5716   12.7781   22.9592 O   0  0  0  0  0  0  0  0  0  0  0  0
    7.9997   12.4239   25.2342 C   0  0  2  0  0  0  0  0  0  0  0  0
    7.1084   13.5639   26.2139 Cl  0  0  0  0  0  0  0  0  0  0  0  0
    9.0324   11.7026   26.0731 C   0  0  0  0  0  0  0  0  0  0  0  0
    7.8406   10.9473   25.6216 C   0  0  2  0  0  0  0  0  0  0  0  0
    7.8705    9.9263   24.5581 C   0  0  0  0  0  0  0  0  0  0  0  0
    9.2832    8.9256   24.4131 Cl  0  0  0  0  0  0  0  0  0  0  0  0
   11.1526   10.8430   22.9288 C   0  0  0  0  0  0  0  0  0  0  0  0
   11.9686    9.8760   22.1320 C   0  0  0  0  0  0  0  0  0  0  0  0
   12.3923    8.8882   22.9554 F   0  0  0  0  0  0  0  0  0  0  0  0
   11.1629    9.2330   21.2589 F   0  0  0  0  0  0  0  0  0  0  0  0
  1  2  2  0
  2  3  1  0
  3  4  1  0
  4  5  1  6
  5  6  1  0
  6  7  1  0
  7  8  2  0
  7  9  1  0
  9 10  1  1
  9 11  1  0
 11 12  1  0
 12 13  1  6
 13 14  1  0
  4 15  1  0
 15 16  1  0
 16 17  1  0
 16 18  1  0
 16  2  1  0
 12  9  1  0
M  END
>  <energy_score>  (1472) 
-4.099886

>  <inchikey>  (1472) 
None

>  <smiles>  (1472) 
None

>  <ref_pdb>  (1472) 
A1776a

>  <alias>  (1472) 
None

>  <HIPPO Pose ID>  (1472) 
499116

>  <name>  (1472) 
P499116

>  <HIPPO Compound ID>  (1472) 
300769

>  <ref_mols>  (1472) 
A1776a,A0528a

>  <distance_score>  (1472) 
1.706002

>  <inspiration_score>  (1472) 
None

$$$$
P499117
     RDKit          3D

 18 19  0  0  0  0  0  0  0  0999 V2000
   13.7246   10.6181   20.7180 O   0  0  0  0  0  0  0  0  0  0  0  0
   12.8510   10.8469   21.5403 C   0  0  0  0  0  0  0  0  0  0  0  0
   12.6023   12.1466   21.9665 N   0  0  0  0  0  0  0  0  0  0  0  0
   11.5967   12.1867   22.9681 C   0  0  1  0  0  0  0  0  0  0  0  0
   10.4937   13.2574   22.7896 C   0  0  0  0  0  0  0  0  0  0  0  0
    9.5499   13.2201   23.8941 N   0  0  0  0  0  0  0  0  0  0  0  0
    9.6261   12.4979   25.2459 C   0  0  0  0  0  0  0  0  0  0  0  0
   10.4862   11.8823   25.7213 O   0  0  0  0  0  0  0  0  0  0  0  0
    8.3447   12.5090   26.0340 C   0  0  1  0  0  0  0  0  0  0  0  0
    8.4071   13.0512   27.7298 Cl  0  0  0  0  0  0  0  0  0  0  0  0
    6.9694   12.6301   25.4773 C   0  0  0  0  0  0  0  0  0  0  0  0
    7.5129   11.2555   25.8132 C   0  0  1  0  0  0  0  0  0  0  0  0
    7.6703   10.3414   24.6595 C   0  0  0  0  0  0  0  0  0  0  0  0
    8.9656    9.1955   24.6702 Cl  0  0  0  0  0  0  0  0  0  0  0  0
   11.0630   10.7773   23.0892 C   0  0  0  0  0  0  0  0  0  0  0  0
   11.8655    9.8839   22.2097 C   0  0  0  0  0  0  0  0  0  0  0  0
   10.9872    9.2965   21.3699 F   0  0  0  0  0  0  0  0  0  0  0  0
   12.3546    8.8527   22.9359 F   0  0  0  0  0  0  0  0  0  0  0  0
  1  2  2  0
  2  3  1  0
  3  4  1  0
  4  5  1  6
  5  6  1  0
  6  7  1  0
  7  8  2  0
  7  9  1  0
  9 10  1  1
  9 11  1  0
 11 12  1  0
 12 13  1  6
 13 14  1  0
  4 15  1  0
 15 16  1  0
 16 17  1  0
 16 18  1  0
 16  2  1  0
 12  9  1  0
M  END
>  <energy_score>  (1473) 
-3.446811

>  <inchikey>  (1473) 
None

>  <smiles>  (1473) 
None

>  <ref_pdb>  (1473) 
A1776a

>  <alias>  (1473) 
None

>  <HIPPO Pose ID>  (1473) 
499117

>  <name>  (1473) 
P499117

>  <HIPPO Compound ID>  (1473) 
300769

>  <ref_mols>  (1473) 
A1776a,A0528a

>  <distance_score>  (1473) 
1.750337

>  <inspiration_score>  (1473) 
None

$$$$
P499118
     RDKit          3D

 18 19  0  0  0  0  0  0  0  0999 V2000
   13.2181   11.7330   21.5839 C   0  0  0  0  0  0  0  0  0  0  0  0
   12.3539   10.5052   21.8177 C   0  0  0  0  0  0  0  0  0  0  0  0
   11.1439   10.6564   22.7691 C   0  0  1  0  0  0  0  0  0  0  0  0
   10.5992   12.0968   22.7745 C   0  0  0  0  0  0  0  0  0  0  0  0
    9.4642   12.4169   23.5969 N   0  0  0  0  0  0  0  0  0  0  0  0
    8.3423   11.5222   24.1397 C   0  0  0  0  0  0  0  0  0  0  0  0
    8.1136   10.4000   23.9464 O   0  0  0  0  0  0  0  0  0  0  0  0
    7.5350   12.2558   25.1195 C   0  0  1  0  0  0  0  0  0  0  0  0
    7.2370   13.9567   24.7773 Cl  0  0  0  0  0  0  0  0  0  0  0  0
    6.6683   11.6459   26.2129 C   0  0  0  0  0  0  0  0  0  0  0  0
    8.1021   11.8074   26.4136 C   0  0  0  0  0  0  0  0  0  0  0  0
    8.7254   12.7427   27.1740 F   0  0  0  0  0  0  0  0  0  0  0  0
    8.9260   10.7061   26.4088 F   0  0  0  0  0  0  0  0  0  0  0  0
   10.2343    9.4627   22.4401 C   0  0  0  0  0  0  0  0  0  0  0  0
   10.3987    8.4322   23.5264 C   0  0  0  0  0  0  0  0  0  0  0  0
   11.5907    8.9750   24.1917 C   0  0  0  0  0  0  0  0  0  0  0  0
   12.5099    8.3421   24.6625 O   0  0  0  0  0  0  0  0  0  0  0  0
   11.5758   10.3440   24.0999 N   0  0  0  0  0  0  0  0  0  0  0  0
  1  2  1  0
  3  2  1  6
  3  4  1  0
  4  5  1  0
  5  6  1  0
  6  7  2  0
  6  8  1  0
  8  9  1  6
  8 10  1  0
 10 11  1  0
 11 12  1  0
 11 13  1  0
  3 14  1  0
 14 15  1  0
 15 16  1  0
 16 17  2  0
 16 18  1  0
 18  3  1  0
 11  8  1  0
M  END
>  <energy_score>  (1474) 
-6.243274

>  <inchikey>  (1474) 
None

>  <smiles>  (1474) 
None

>  <ref_pdb>  (1474) 
A1776a

>  <alias>  (1474) 
None

>  <HIPPO Pose ID>  (1474) 
499118

>  <name>  (1474) 
P499118

>  <HIPPO Compound ID>  (1474) 
300778

>  <ref_mols>  (1474) 
A1776a,A0528a

>  <distance_score>  (1474) 
1.788825

>  <inspiration_score>  (1474) 
None

$$$$
P499119
     RDKit          3D

 18 19  0  0  0  0  0  0  0  0999 V2000
    9.3187   11.0259   26.2674 O   0  0  0  0  0  0  0  0  0  0  0  0
    9.6578   10.5095   25.2240 C   0  0  0  0  0  0  0  0  0  0  0  0
    8.7248    9.8322   24.2873 C   0  0  0  0  0  0  0  0  0  0  0  0
    9.6707    9.4934   23.1829 C   0  0  0  0  0  0  0  0  0  0  0  0
   10.8001   10.5210   23.2301 C   0  0  2  0  0  0  0  0  0  0  0  0
   10.6920   12.0135   22.8243 C   0  0  0  0  0  0  0  0  0  0  0  0
    9.7138   12.7835   23.5579 N   0  0  0  0  0  0  0  0  0  0  0  0
    8.2536   13.0984   23.2362 C   0  0  0  0  0  0  0  0  0  0  0  0
    7.6211   12.8552   22.2935 O   0  0  0  0  0  0  0  0  0  0  0  0
    7.5398   13.7778   24.3647 C   0  0  0  0  0  0  0  0  0  0  0  0
    6.6747   15.2250   23.7831 Cl  0  0  0  0  0  0  0  0  0  0  0  0
    6.7937   12.8966   25.3631 C   0  0  0  0  0  0  0  0  0  0  0  0
    7.9586   13.6771   25.8170 C   0  0  0  0  0  0  0  0  0  0  0  0
   11.8743    9.8586   22.3684 C   0  0  0  0  0  0  0  0  0  0  0  0
   12.8088   10.7218   21.9346 F   0  0  0  0  0  0  0  0  0  0  0  0
   11.3589    9.2941   21.2621 F   0  0  0  0  0  0  0  0  0  0  0  0
   12.4104    8.8269   23.0507 F   0  0  0  0  0  0  0  0  0  0  0  0
   10.9283   10.5821   24.6787 N   0  0  0  0  0  0  0  0  0  0  0  0
  1  2  2  0
  2  3  1  0
  3  4  1  0
  4  5  1  0
  5  6  1  6
  6  7  1  0
  7  8  1  0
  8  9  2  0
  8 10  1  0
 10 11  1  0
 10 12  1  0
 12 13  1  0
  5 14  1  0
 14 15  1  0
 14 16  1  0
 14 17  1  0
  5 18  1  0
 18  2  1  0
 13 10  1  0
M  END
>  <energy_score>  (1475) 
-8.478422

>  <inchikey>  (1475) 
None

>  <smiles>  (1475) 
None

>  <ref_pdb>  (1475) 
A1776a

>  <alias>  (1475) 
None

>  <HIPPO Pose ID>  (1475) 
499119

>  <name>  (1475) 
P499119

>  <HIPPO Compound ID>  (1475) 
300779

>  <ref_mols>  (1475) 
A1776a,A0528a

>  <distance_score>  (1475) 
1.851459

>  <inspiration_score>  (1475) 
None

$$$$
P499120
     RDKit          3D

 18 19  0  0  0  0  0  0  0  0999 V2000
   12.0999   15.3864   21.8809 C   0  0  0  0  0  0  0  0  0  0  0  0
   11.7239   13.9953   21.4013 C   0  0  0  0  0  0  0  0  0  0  0  0
   11.9142   14.1489   19.8518 C   0  0  0  0  0  0  0  0  0  0  0  0
   12.5965   12.7622   21.8705 C   0  0  0  0  0  0  0  0  0  0  0  0
   11.6587   11.7559   22.4487 C   0  0  0  0  0  0  0  0  0  0  0  0
   11.8970   10.5989   22.7398 O   0  0  0  0  0  0  0  0  0  0  0  0
   10.4387   12.3380   22.5701 N   0  0  0  0  0  0  0  0  0  0  0  0
   10.2871   13.6031   21.9092 C   0  0  1  0  0  0  0  0  0  0  0  0
    9.3863   14.5682   22.7454 C   0  0  0  0  0  0  0  0  0  0  0  0
    8.7145   14.0422   23.9207 N   0  0  0  0  0  0  0  0  0  0  0  0
    9.2294   13.1050   25.0350 C   0  0  0  0  0  0  0  0  0  0  0  0
   10.2933   12.6715   25.2247 O   0  0  0  0  0  0  0  0  0  0  0  0
    8.1558   12.6223   25.9322 C   0  0  1  0  0  0  0  0  0  0  0  0
    8.3493   12.8620   27.6641 Cl  0  0  0  0  0  0  0  0  0  0  0  0
    6.7034   12.4518   25.6119 C   0  0  0  0  0  0  0  0  0  0  0  0
    7.6472   11.3609   25.3047 C   0  0  0  0  0  0  0  0  0  0  0  0
    7.7232   10.1723   25.9659 F   0  0  0  0  0  0  0  0  0  0  0  0
    7.9681   11.0832   23.9910 F   0  0  0  0  0  0  0  0  0  0  0  0
  1  2  1  0
  2  3  1  0
  2  4  1  0
  4  5  1  0
  5  6  2  0
  5  7  1  0
  7  8  1  0
  8  9  1  1
  9 10  1  0
 10 11  1  0
 11 12  2  0
 11 13  1  0
 13 14  1  1
 13 15  1  0
 15 16  1  0
 16 17  1  0
 16 18  1  0
  8  2  1  0
 16 13  1  0
M  END
>  <energy_score>  (1476) 
-2.928398

>  <inchikey>  (1476) 
None

>  <smiles>  (1476) 
None

>  <ref_pdb>  (1476) 
A1776a

>  <alias>  (1476) 
None

>  <HIPPO Pose ID>  (1476) 
499120

>  <name>  (1476) 
P499120

>  <HIPPO Compound ID>  (1476) 
300782

>  <ref_mols>  (1476) 
A1776a,A0528a

>  <distance_score>  (1476) 
1.83291

>  <inspiration_score>  (1476) 
None

$$$$
P499121
     RDKit          3D

 18 18  0  0  0  0  0  0  0  0999 V2000
    8.9809   15.3923   22.8333 C   0  0  0  0  0  0  0  0  0  0  0  0
    9.6822   14.0725   22.7006 C   0  0  0  0  0  0  0  0  0  0  0  0
    9.9313   13.5887   23.9362 F   0  0  0  0  0  0  0  0  0  0  0  0
    8.7140   13.2313   22.2085 F   0  0  0  0  0  0  0  0  0  0  0  0
   10.9078   13.9051   21.8164 C   0  0  1  0  0  0  0  0  0  0  0  0
   11.9654   15.3321   21.6916 Cl  0  0  0  0  0  0  0  0  0  0  0  0
   11.7928   12.6915   22.2043 C   0  0  0  0  0  0  0  0  0  0  0  0
   12.9554   12.7513   22.1834 O   0  0  0  0  0  0  0  0  0  0  0  0
   10.8604   11.4985   22.4808 N   0  0  0  0  0  0  0  0  0  0  0  0
   11.1567   10.1263   22.6934 C   0  0  0  0  0  0  0  0  0  0  0  0
   10.7021    9.6941   24.0659 C   0  0  2  0  0  0  0  0  0  0  0  0
    9.2955    9.1262   24.0078 C   0  0  0  0  0  0  0  0  0  0  0  0
    8.4253   10.2869   24.4273 C   0  0  0  0  0  0  0  0  0  0  0  0
    7.2361    9.8517   24.8938 F   0  0  0  0  0  0  0  0  0  0  0  0
    8.2114   11.0996   23.3661 F   0  0  0  0  0  0  0  0  0  0  0  0
    9.2784   11.0461   25.3917 C   0  0  0  0  0  0  0  0  0  0  0  0
    8.8988   11.8228   26.2497 O   0  0  0  0  0  0  0  0  0  0  0  0
   10.5914   10.7709   25.0384 N   0  0  0  0  0  0  0  0  0  0  0  0
  1  2  1  0
  2  3  1  0
  2  4  1  0
  2  5  1  0
  5  6  1  1
  5  7  1  0
  7  8  2  0
  7  9  1  0
  9 10  1  0
 11 10  1  6
 11 12  1  0
 12 13  1  0
 13 14  1  0
 13 15  1  0
 13 16  1  0
 16 17  2  0
 16 18  1  0
 18 11  1  0
M  END
>  <energy_score>  (1477) 
-20.187611

>  <inchikey>  (1477) 
None

>  <smiles>  (1477) 
None

>  <ref_pdb>  (1477) 
A1776a

>  <alias>  (1477) 
None

>  <HIPPO Pose ID>  (1477) 
499121

>  <name>  (1477) 
P499121

>  <HIPPO Compound ID>  (1477) 
300785

>  <ref_mols>  (1477) 
A1776a,A0528a

>  <distance_score>  (1477) 
1.952305

>  <inspiration_score>  (1477) 
None

$$$$
P499122
     RDKit          3D

 19 20  0  0  0  0  0  0  0  0999 V2000
   10.1536   10.3987   24.7697 C   0  0  0  0  0  0  0  0  0  0  0  0
    8.6690   10.6127   24.5772 C   0  0  0  0  0  0  0  0  0  0  0  0
    8.0740    9.2534   24.4177 C   0  0  0  0  0  0  0  0  0  0  0  0
    8.0991   11.3152   25.7596 C   0  0  2  0  0  0  0  0  0  0  0  0
    6.7187   11.6215   25.7093 O   0  0  0  0  0  0  0  0  0  0  0  0
    7.5802   12.7636   25.7118 C   0  0  1  0  0  0  0  0  0  0  0  0
    7.8452   13.5753   27.2462 Cl  0  0  0  0  0  0  0  0  0  0  0  0
    7.6860   13.5150   24.3853 C   0  0  0  0  0  0  0  0  0  0  0  0
    6.7453   13.9172   23.8335 O   0  0  0  0  0  0  0  0  0  0  0  0
    9.1600   13.5064   23.9607 N   0  0  0  0  0  0  0  0  0  0  0  0
    9.7859   13.9095   22.7119 C   0  0  0  0  0  0  0  0  0  0  0  0
   11.0516   13.0658   22.5908 C   0  0  2  0  0  0  0  0  0  0  0  0
   12.1255   13.3746   21.5670 C   0  0  0  0  0  0  0  0  0  0  0  0
   13.0030   12.1239   21.7932 C   0  0  0  0  0  0  0  0  0  0  0  0
   13.8609   11.8052   20.8110 F   0  0  0  0  0  0  0  0  0  0  0  0
   13.7694   12.5116   22.8617 F   0  0  0  0  0  0  0  0  0  0  0  0
   11.9976   11.0171   22.0570 C   0  0  0  0  0  0  0  0  0  0  0  0
   12.0707    9.8145   21.8626 O   0  0  0  0  0  0  0  0  0  0  0  0
   10.8437   11.6601   22.4513 N   0  0  0  0  0  0  0  0  0  0  0  0
  1  2  1  0
  2  3  1  0
  4  2  1  6
  4  5  1  0
  5  6  1  0
  6  7  1  1
  6  8  1  0
  8  9  2  0
  8 10  1  0
 10 11  1  0
 12 11  1  6
 12 13  1  0
 13 14  1  0
 14 15  1  0
 14 16  1  0
 14 17  1  0
 17 18  2  0
 17 19  1  0
  6  4  1  0
 19 12  1  0
M  END
>  <energy_score>  (1478) 
-13.037898

>  <inchikey>  (1478) 
None

>  <smiles>  (1478) 
None

>  <ref_pdb>  (1478) 
A1776a

>  <alias>  (1478) 
None

>  <HIPPO Pose ID>  (1478) 
499122

>  <name>  (1478) 
P499122

>  <HIPPO Compound ID>  (1478) 
300803

>  <ref_mols>  (1478) 
A1776a,A0528a

>  <distance_score>  (1478) 
1.899138

>  <inspiration_score>  (1478) 
None

$$$$
P499123
     RDKit          3D

 19 20  0  0  0  0  0  0  0  0999 V2000
   12.2560   10.4909   21.8415 C   0  0  0  0  0  0  0  0  0  0  0  0
   12.8249   11.6623   21.5076 C   0  0  0  0  0  0  0  0  0  0  0  0
   12.4161   12.9819   22.0447 C   0  0  0  0  0  0  0  0  0  0  0  0
   11.5555   13.9459   21.2266 C   0  0  2  0  0  0  0  0  0  0  0  0
   12.4476   15.0840   20.1802 Cl  0  0  0  0  0  0  0  0  0  0  0  0
   10.7772   14.7271   22.2399 C   0  0  0  0  0  0  0  0  0  0  0  0
   11.1371   15.7633   22.6047 O   0  0  0  0  0  0  0  0  0  0  0  0
    9.5280   13.9194   22.6163 N   0  0  0  0  0  0  0  0  0  0  0  0
    8.5115   14.1794   23.5911 C   0  0  0  0  0  0  0  0  0  0  0  0
    8.1033   12.9678   24.4689 C   0  0  2  0  0  0  0  0  0  0  0  0
    6.8188   13.4269   25.1794 C   0  0  0  0  0  0  0  0  0  0  0  0
    6.2335   12.5425   26.2716 C   0  0  0  0  0  0  0  0  0  0  0  0
    6.9999   11.2644   26.4528 C   0  0  0  0  0  0  0  0  0  0  0  0
    8.4722   11.5988   26.5458 C   0  0  0  0  0  0  0  0  0  0  0  0
    9.1290   12.4594   25.4633 C   0  0  1  0  0  0  0  0  0  0  0  0
   10.0380   11.5423   24.6588 C   0  0  0  0  0  0  0  0  0  0  0  0
    9.0050   10.8718   23.8305 C   0  0  0  0  0  0  0  0  0  0  0  0
    9.0385    9.7226   23.4395 O   0  0  0  0  0  0  0  0  0  0  0  0
    7.9479   11.7740   23.6610 N   0  0  0  0  0  0  0  0  0  0  0  0
  1  2  2  0
  2  3  1  0
  3  4  1  0
  4  5  1  1
  4  6  1  0
  6  7  2  0
  6  8  1  0
  8  9  1  0
 10  9  1  6
 10 11  1  0
 11 12  1  0
 12 13  1  0
 13 14  1  0
 15 14  1  1
 15 16  1  0
 16 17  1  0
 17 18  2  0
 17 19  1  0
 15 10  1  0
 19 10  1  0
M  END
>  <energy_score>  (1479) 
-25.304895

>  <inchikey>  (1479) 
None

>  <smiles>  (1479) 
None

>  <ref_pdb>  (1479) 
A1776a

>  <alias>  (1479) 
None

>  <HIPPO Pose ID>  (1479) 
499123

>  <name>  (1479) 
P499123

>  <HIPPO Compound ID>  (1479) 
300811

>  <ref_mols>  (1479) 
A1776a,A0528a

>  <distance_score>  (1479) 
1.992183

>  <inspiration_score>  (1479) 
None

$$$$
P499124
     RDKit          3D

 19 20  0  0  0  0  0  0  0  0999 V2000
   13.4853   11.6417   21.0435 C   0  0  0  0  0  0  0  0  0  0  0  0
   12.7828   12.4943   21.8179 C   0  0  0  0  0  0  0  0  0  0  0  0
   12.0863   13.6398   21.1339 C   0  0  0  0  0  0  0  0  0  0  0  0
   11.8953   14.9896   21.7402 C   0  0  1  0  0  0  0  0  0  0  0  0
   12.2830   16.1139   20.3908 Cl  0  0  0  0  0  0  0  0  0  0  0  0
   10.4393   15.0840   22.3309 C   0  0  0  0  0  0  0  0  0  0  0  0
    9.7994   16.0216   22.1036 O   0  0  0  0  0  0  0  0  0  0  0  0
   10.0828   13.7970   23.0912 N   0  0  0  0  0  0  0  0  0  0  0  0
    8.8955   13.4393   23.8091 C   0  0  0  0  0  0  0  0  0  0  0  0
    9.0660   12.2974   24.8315 C   0  0  1  0  0  0  0  0  0  0  0  0
    8.4537   12.7191   26.1806 C   0  0  0  0  0  0  0  0  0  0  0  0
    6.9967   12.3141   26.3209 C   0  0  0  0  0  0  0  0  0  0  0  0
    6.8462   10.8015   26.2730 C   0  0  0  0  0  0  0  0  0  0  0  0
    7.8883   10.1362   25.3922 C   0  0  0  0  0  0  0  0  0  0  0  0
    8.4080   11.0265   24.2889 C   0  0  2  0  0  0  0  0  0  0  0  0
    9.4898   10.2850   23.5240 C   0  0  0  0  0  0  0  0  0  0  0  0
   10.6918   10.6759   24.2825 C   0  0  0  0  0  0  0  0  0  0  0  0
   11.7381   10.0732   24.2490 O   0  0  0  0  0  0  0  0  0  0  0  0
   10.4376   11.8459   24.9686 N   0  0  0  0  0  0  0  0  0  0  0  0
  1  2  2  0
  2  3  1  0
  3  4  1  0
  4  5  1  6
  4  6  1  0
  6  7  2  0
  6  8  1  0
  8  9  1  0
 10  9  1  6
 10 11  1  0
 11 12  1  0
 12 13  1  0
 13 14  1  0
 15 14  1  1
 15 16  1  0
 16 17  1  0
 17 18  2  0
 17 19  1  0
 15 10  1  0
 19 10  1  0
M  END
>  <energy_score>  (1480) 
-14.317896

>  <inchikey>  (1480) 
None

>  <smiles>  (1480) 
None

>  <ref_pdb>  (1480) 
A1776a

>  <alias>  (1480) 
None

>  <HIPPO Pose ID>  (1480) 
499124

>  <name>  (1480) 
P499124

>  <HIPPO Compound ID>  (1480) 
300811

>  <ref_mols>  (1480) 
A1776a,A0528a

>  <distance_score>  (1480) 
1.653724

>  <inspiration_score>  (1480) 
None

$$$$
P499125
     RDKit          3D

 19 20  0  0  0  0  0  0  0  0999 V2000
   11.7699   11.5635   22.5107 C   0  0  0  0  0  0  0  0  0  0  0  0
   12.5402   12.6460   21.8081 C   0  0  0  0  0  0  0  0  0  0  0  0
   13.1889   12.1202   20.7350 F   0  0  0  0  0  0  0  0  0  0  0  0
   13.5630   12.9368   22.6736 F   0  0  0  0  0  0  0  0  0  0  0  0
   11.7883   13.9410   21.4823 C   0  0  1  0  0  0  0  0  0  0  0  0
   12.2300   14.7482   19.9463 Cl  0  0  0  0  0  0  0  0  0  0  0  0
   10.2616   13.9453   21.7045 C   0  0  0  0  0  0  0  0  0  0  0  0
    9.4850   14.0261   20.8530 O   0  0  0  0  0  0  0  0  0  0  0  0
   10.0712   13.9268   23.2137 N   0  0  0  0  0  0  0  0  0  0  0  0
    8.8797   14.1005   24.0121 C   0  0  0  0  0  0  0  0  0  0  0  0
    8.6309   12.8623   24.8587 C   0  0  1  0  0  0  0  0  0  0  0  0
    7.6058   13.1108   25.9639 C   0  0  0  0  0  0  0  0  0  0  0  0
    7.2272   11.8251   26.6925 C   0  0  0  0  0  0  0  0  0  0  0  0
    7.2067   10.5739   25.8134 C   0  0  0  0  0  0  0  0  0  0  0  0
    8.2004   10.5597   24.6568 C   0  0  1  0  0  0  0  0  0  0  0  0
    8.0694   11.8517   23.8995 C   0  0  0  0  0  0  0  0  0  0  0  0
    9.6416   10.7873   25.0114 C   0  0  0  0  0  0  0  0  0  0  0  0
   10.5570   10.0065   24.8554 O   0  0  0  0  0  0  0  0  0  0  0  0
    9.7812   12.1341   25.3537 N   0  0  0  0  0  0  0  0  0  0  0  0
  1  2  1  0
  2  3  1  0
  2  4  1  0
  2  5  1  0
  5  6  1  6
  5  7  1  0
  7  8  2  0
  7  9  1  0
  9 10  1  0
 11 10  1  6
 11 12  1  0
 12 13  1  0
 13 14  1  0
 15 14  1  1
 15 16  1  0
 15 17  1  0
 17 18  2  0
 17 19  1  0
 16 11  1  0
 19 11  1  0
M  END
>  <energy_score>  (1481) 
-7.48843

>  <inchikey>  (1481) 
None

>  <smiles>  (1481) 
None

>  <ref_pdb>  (1481) 
A1776a

>  <alias>  (1481) 
None

>  <HIPPO Pose ID>  (1481) 
499125

>  <name>  (1481) 
P499125

>  <HIPPO Compound ID>  (1481) 
300842

>  <ref_mols>  (1481) 
A1776a,A0528a

>  <distance_score>  (1481) 
1.94323

>  <inspiration_score>  (1481) 
None

$$$$
P499126
     RDKit          3D

 20 21  0  0  0  0  0  0  0  0999 V2000
   10.2544    8.3233   22.5974 O   0  0  0  0  0  0  0  0  0  0  0  0
   10.6409    9.4142   22.9620 C   0  0  0  0  0  0  0  0  0  0  0  0
   11.3515    9.7028   24.2255 C   0  0  0  0  0  0  0  0  0  0  0  0
   11.4651   11.2273   24.2765 C   0  0  0  0  0  0  0  0  0  0  0  0
   11.2285   11.6792   22.8387 C   0  0  1  0  0  0  0  0  0  0  0  0
   10.6371   13.0882   22.7239 C   0  0  0  0  0  0  0  0  0  0  0  0
    9.5067   13.2950   23.5869 N   0  0  0  0  0  0  0  0  0  0  0  0
    8.0239   13.1531   23.3177 C   0  0  0  0  0  0  0  0  0  0  0  0
    7.4584   12.9200   22.3355 O   0  0  0  0  0  0  0  0  0  0  0  0
    7.1906   13.3400   24.5532 C   0  0  2  0  0  0  0  0  0  0  0  0
    5.7017   14.2957   24.1731 Cl  0  0  0  0  0  0  0  0  0  0  0  0
    7.6432   13.4832   25.9867 C   0  0  0  0  0  0  0  0  0  0  0  0
    7.0798   12.1716   25.5611 C   0  0  2  0  0  0  0  0  0  0  0  0
    7.9892   11.0215   25.7880 C   0  0  0  0  0  0  0  0  0  0  0  0
    8.0083    9.8419   24.5198 Cl  0  0  0  0  0  0  0  0  0  0  0  0
   12.5587   11.7294   22.0586 C   0  0  0  0  0  0  0  0  0  0  0  0
   13.5040   12.2412   22.8797 F   0  0  0  0  0  0  0  0  0  0  0  0
   12.6172   12.6136   21.0550 F   0  0  0  0  0  0  0  0  0  0  0  0
   12.9261   10.5220   21.5829 F   0  0  0  0  0  0  0  0  0  0  0  0
   10.3055   10.6276   22.4119 N   0  0  0  0  0  0  0  0  0  0  0  0
  1  2  2  0
  2  3  1  0
  3  4  1  0
  4  5  1  0
  5  6  1  1
  6  7  1  0
  7  8  1  0
  8  9  2  0
  8 10  1  0
 10 11  1  6
 10 12  1  0
 12 13  1  0
 13 14  1  6
 14 15  1  0
  5 16  1  0
 16 17  1  0
 16 18  1  0
 16 19  1  0
  5 20  1  0
 20  2  1  0
 13 10  1  0
M  END
>  <energy_score>  (1482) 
-4.919368

>  <inchikey>  (1482) 
None

>  <smiles>  (1482) 
None

>  <ref_pdb>  (1482) 
A1776a

>  <alias>  (1482) 
None

>  <HIPPO Pose ID>  (1482) 
499126

>  <name>  (1482) 
P499126

>  <HIPPO Compound ID>  (1482) 
300883

>  <ref_mols>  (1482) 
A1776a,A0528a

>  <distance_score>  (1482) 
1.998306

>  <inspiration_score>  (1482) 
None

$$$$
P499127
     RDKit          3D

 20 21  0  0  0  0  0  0  0  0999 V2000
   11.7259   11.6672   22.5379 C   0  0  0  0  0  0  0  0  0  0  0  0
   12.5209   12.6949   21.7801 C   0  0  0  0  0  0  0  0  0  0  0  0
   13.2133   12.0340   20.8012 F   0  0  0  0  0  0  0  0  0  0  0  0
   13.5113   13.0445   22.6436 F   0  0  0  0  0  0  0  0  0  0  0  0
   11.7612   13.9402   21.1997 C   0  0  2  0  0  0  0  0  0  0  0  0
   12.0835   14.2138   19.7101 C   0  0  0  0  0  0  0  0  0  0  0  0
   12.2710   15.4968   21.9056 Cl  0  0  0  0  0  0  0  0  0  0  0  0
   10.2190   13.9309   21.5477 C   0  0  0  0  0  0  0  0  0  0  0  0
    9.4306   13.9132   20.7065 O   0  0  0  0  0  0  0  0  0  0  0  0
   10.0501   14.0491   23.0497 N   0  0  0  0  0  0  0  0  0  0  0  0
    8.8565   14.2704   23.8532 C   0  0  0  0  0  0  0  0  0  0  0  0
    8.4133   12.9924   24.5497 C   0  0  2  0  0  0  0  0  0  0  0  0
    7.0855   13.2118   25.2694 C   0  0  0  0  0  0  0  0  0  0  0  0
    6.7352   12.0998   26.2603 C   0  0  0  0  0  0  0  0  0  0  0  0
    7.4578   10.7745   26.0270 C   0  0  0  0  0  0  0  0  0  0  0  0
    8.8937   10.9254   25.5096 C   0  0  2  0  0  0  0  0  0  0  0  0
    9.3799   12.3764   25.5538 C   0  0  0  0  0  0  0  0  0  0  0  0
    8.8956   10.7752   24.0265 C   0  0  0  0  0  0  0  0  0  0  0  0
    9.4037    9.8914   23.3671 O   0  0  0  0  0  0  0  0  0  0  0  0
    8.3285   11.9488   23.5533 N   0  0  0  0  0  0  0  0  0  0  0  0
  1  2  1  0
  2  3  1  0
  2  4  1  0
  2  5  1  0
  5  6  1  6
  5  7  1  0
  5  8  1  0
  8  9  2  0
  8 10  1  0
 10 11  1  0
 12 11  1  6
 12 13  1  0
 13 14  1  0
 14 15  1  0
 16 15  1  6
 16 17  1  0
 16 18  1  0
 18 19  2  0
 18 20  1  0
 17 12  1  0
 20 12  1  0
M  END
>  <energy_score>  (1483) 
-14.97285

>  <inchikey>  (1483) 
None

>  <smiles>  (1483) 
None

>  <ref_pdb>  (1483) 
A1776a

>  <alias>  (1483) 
None

>  <HIPPO Pose ID>  (1483) 
499127

>  <name>  (1483) 
P499127

>  <HIPPO Compound ID>  (1483) 
300894

>  <ref_mols>  (1483) 
A1776a,A0528a

>  <distance_score>  (1483) 
1.982671

>  <inspiration_score>  (1483) 
None

$$$$
P499128
     RDKit          3D

 22 24  0  0  0  0  0  0  0  0999 V2000
   13.8617   11.2380   20.7650 C   0  0  0  0  0  0  0  0  0  0  0  0
   12.7307   11.2711   21.6758 N   0  0  0  0  0  0  0  0  0  0  0  0
   12.0059   10.1414   22.0065 C   0  0  0  0  0  0  0  0  0  0  0  0
   12.0660    9.0480   21.4814 O   0  0  0  0  0  0  0  0  0  0  0  0
   11.0719   10.4956   23.1077 C   0  0  0  0  0  0  0  0  0  0  0  0
   11.6365   11.8007   23.6367 C   0  0  0  0  0  0  0  0  0  0  0  0
   12.3072   12.4448   22.4263 C   0  0  2  0  0  0  0  0  0  0  0  0
   11.3718   13.4371   21.6761 C   0  0  2  0  0  0  0  0  0  0  0  0
   12.2389   14.3469   20.4059 Cl  0  0  0  0  0  0  0  0  0  0  0  0
   10.5990   14.4474   22.4968 C   0  0  0  0  0  0  0  0  0  0  0  0
   10.9914   15.5271   22.6738 O   0  0  0  0  0  0  0  0  0  0  0  0
    9.3208   13.7460   23.0206 N   0  0  0  0  0  0  0  0  0  0  0  0
    8.3159   14.2031   23.9455 C   0  0  0  0  0  0  0  0  0  0  0  0
    7.8705   13.0259   24.8423 C   0  0  2  0  0  0  0  0  0  0  0  0
    6.5658   13.3811   25.5528 C   0  0  0  0  0  0  0  0  0  0  0  0
    6.5868   12.6383   26.8670 C   0  0  0  0  0  0  0  0  0  0  0  0
    8.0259   12.8685   27.2783 C   0  0  0  0  0  0  0  0  0  0  0  0
    8.8132   12.6151   25.9853 C   0  0  1  0  0  0  0  0  0  0  0  0
    9.0644   11.1234   25.8056 C   0  0  0  0  0  0  0  0  0  0  0  0
    8.3710   10.7217   24.5724 C   0  0  0  0  0  0  0  0  0  0  0  0
    8.3475    9.5875   24.1317 O   0  0  0  0  0  0  0  0  0  0  0  0
    7.7420   11.8182   24.0506 N   0  0  0  0  0  0  0  0  0  0  0  0
  1  2  1  0
  2  3  1  0
  3  4  2  0
  3  5  1  0
  5  6  1  0
  7  6  1  1
  7  8  1  0
  8  9  1  6
  8 10  1  0
 10 11  2  0
 10 12  1  0
 12 13  1  0
 14 13  1  6
 14 15  1  0
 15 16  1  0
 16 17  1  0
 18 17  1  1
 18 19  1  0
 19 20  1  0
 20 21  2  0
 20 22  1  0
  7  2  1  0
 18 14  1  0
 22 14  1  0
M  END
>  <energy_score>  (1484) 
-22.887958

>  <inchikey>  (1484) 
None

>  <smiles>  (1484) 
None

>  <ref_pdb>  (1484) 
A1776a

>  <alias>  (1484) 
None

>  <HIPPO Pose ID>  (1484) 
499128

>  <name>  (1484) 
P499128

>  <HIPPO Compound ID>  (1484) 
300973

>  <ref_mols>  (1484) 
A1776a,A0528a

>  <distance_score>  (1484) 
1.902093

>  <inspiration_score>  (1484) 
None

$$$$
P499129
     RDKit          3D

 22 24  0  0  0  0  0  0  0  0999 V2000
   14.0230   11.2034   20.6448 C   0  0  0  0  0  0  0  0  0  0  0  0
   12.8653   11.3122   21.5044 N   0  0  0  0  0  0  0  0  0  0  0  0
   12.1292   10.2036   21.8894 C   0  0  0  0  0  0  0  0  0  0  0  0
   12.1575    9.0922   21.3983 O   0  0  0  0  0  0  0  0  0  0  0  0
   11.2218   10.5945   22.9967 C   0  0  0  0  0  0  0  0  0  0  0  0
   11.7992   11.9094   23.4832 C   0  0  0  0  0  0  0  0  0  0  0  0
   12.5632   12.4833   22.2892 C   0  0  2  0  0  0  0  0  0  0  0  0
   11.9690   13.7745   21.6040 C   0  0  1  0  0  0  0  0  0  0  0  0
   12.1330   14.1394   19.8425 Cl  0  0  0  0  0  0  0  0  0  0  0  0
   10.7749   14.5580   22.1741 C   0  0  0  0  0  0  0  0  0  0  0  0
   10.8997   15.7087   22.2443 O   0  0  0  0  0  0  0  0  0  0  0  0
    9.6377   13.6556   22.6467 N   0  0  0  0  0  0  0  0  0  0  0  0
    8.4482   13.9648   23.3945 C   0  0  0  0  0  0  0  0  0  0  0  0
    8.0280   12.9529   24.4790 C   0  0  2  0  0  0  0  0  0  0  0  0
    6.7395   13.5006   25.0969 C   0  0  0  0  0  0  0  0  0  0  0  0
    6.6058   12.8024   26.4303 C   0  0  0  0  0  0  0  0  0  0  0  0
    8.0213   12.9370   26.9482 C   0  0  0  0  0  0  0  0  0  0  0  0
    8.9061   12.6701   25.7104 C   0  0  1  0  0  0  0  0  0  0  0  0
    9.2705   11.1923   25.6437 C   0  0  0  0  0  0  0  0  0  0  0  0
    8.5480   10.6422   24.4846 C   0  0  0  0  0  0  0  0  0  0  0  0
    8.5443    9.4711   24.1536 O   0  0  0  0  0  0  0  0  0  0  0  0
    7.8493   11.6529   23.8858 N   0  0  0  0  0  0  0  0  0  0  0  0
  1  2  1  0
  2  3  1  0
  3  4  2  0
  3  5  1  0
  5  6  1  0
  7  6  1  1
  7  8  1  0
  8  9  1  6
  8 10  1  0
 10 11  2  0
 10 12  1  0
 12 13  1  0
 14 13  1  6
 14 15  1  0
 15 16  1  0
 16 17  1  0
 18 17  1  1
 18 19  1  0
 19 20  1  0
 20 21  2  0
 20 22  1  0
  7  2  1  0
 18 14  1  0
 22 14  1  0
M  END
>  <energy_score>  (1485) 
-14.469255

>  <inchikey>  (1485) 
None

>  <smiles>  (1485) 
None

>  <ref_pdb>  (1485) 
A1776a

>  <alias>  (1485) 
None

>  <HIPPO Pose ID>  (1485) 
499129

>  <name>  (1485) 
P499129

>  <HIPPO Compound ID>  (1485) 
300973

>  <ref_mols>  (1485) 
A1776a,A0528a

>  <distance_score>  (1485) 
1.734999

>  <inspiration_score>  (1485) 
None

$$$$
P499130
     RDKit          3D

 23 25  0  0  0  0  0  0  0  0999 V2000
   14.1543   11.2302   20.6093 C   0  0  0  0  0  0  0  0  0  0  0  0
   13.1517   11.6511   21.5276 O   0  0  0  0  0  0  0  0  0  0  0  0
   12.2417   10.6974   21.8718 C   0  0  0  0  0  0  0  0  0  0  0  0
   12.2334    9.5322   21.4906 O   0  0  0  0  0  0  0  0  0  0  0  0
   11.1818   11.2163   22.7713 C   0  0  1  0  0  0  0  0  0  0  0  0
   10.7123   12.9614   22.5760 Cl  0  0  0  0  0  0  0  0  0  0  0  0
   10.0262   10.2970   23.1200 C   0  0  0  0  0  0  0  0  0  0  0  0
   11.0418   10.6147   24.1593 C   0  0  2  0  0  0  0  0  0  0  0  0
   10.9717   11.6182   25.2406 C   0  0  0  0  0  0  0  0  0  0  0  0
   11.9711   12.0663   25.6102 O   0  0  0  0  0  0  0  0  0  0  0  0
    9.5443   11.9171   25.6598 N   0  0  0  0  0  0  0  0  0  0  0  0
    9.0222   12.9075   26.5654 C   0  0  0  0  0  0  0  0  0  0  0  0
    7.8168   12.5998   27.4653 C   0  0  1  0  0  0  0  0  0  0  0  0
    7.6579   13.6671   28.4295 N   0  0  0  0  0  0  0  0  0  0  0  0
    6.3576   13.9861   28.7047 C   0  0  0  0  0  0  0  0  0  0  0  0
    6.0177   14.8551   29.4889 O   0  0  0  0  0  0  0  0  0  0  0  0
    5.4751   13.1072   27.8707 C   0  0  0  0  0  0  0  0  0  0  0  0
    6.4393   12.5229   26.8066 C   0  0  0  0  0  0  0  0  0  0  0  0
    6.3735   13.3146   25.5043 C   0  0  0  0  0  0  0  0  0  0  0  0
    7.1668   12.7006   24.3664 C   0  0  0  0  0  0  0  0  0  0  0  0
    7.4725   11.2987   24.4762 O   0  0  0  0  0  0  0  0  0  0  0  0
    6.9048   10.4462   25.4686 C   0  0  0  0  0  0  0  0  0  0  0  0
    6.0305   11.0854   26.5210 C   0  0  0  0  0  0  0  0  0  0  0  0
  1  2  1  0
  2  3  1  0
  3  4  2  0
  3  5  1  0
  5  6  1  1
  5  7  1  0
  7  8  1  0
  8  9  1  1
  9 10  2  0
  9 11  1  0
 11 12  1  0
 13 12  1  6
 13 14  1  0
 14 15  1  0
 15 16  2  0
 15 17  1  0
 17 18  1  0
 18 19  1  0
 19 20  1  0
 20 21  1  0
 21 22  1  0
 22 23  1  0
  8  5  1  0
 18 13  1  0
 23 18  1  0
M  END
>  <energy_score>  (1486) 
-4.841618

>  <inchikey>  (1486) 
None

>  <smiles>  (1486) 
None

>  <ref_pdb>  (1486) 
A1776a

>  <alias>  (1486) 
None

>  <HIPPO Pose ID>  (1486) 
499130

>  <name>  (1486) 
P499130

>  <HIPPO Compound ID>  (1486) 
301002

>  <ref_mols>  (1486) 
A1776a,A0528a

>  <distance_score>  (1486) 
1.898483

>  <inspiration_score>  (1486) 
None

$$$$
P499131
     RDKit          3D

 22 24  0  0  0  0  0  0  0  0999 V2000
   10.4890    9.8413   22.3187 O   0  0  0  0  0  0  0  0  0  0  0  0
   10.0044   10.7157   23.0328 C   0  0  0  0  0  0  0  0  0  0  0  0
   10.3811   12.1584   22.9046 C   0  0  0  0  0  0  0  0  0  0  0  0
   10.2376   13.0067   24.1395 C   0  0  0  0  0  0  0  0  0  0  0  0
    8.7882   13.3429   24.4473 C   0  0  0  0  0  0  0  0  0  0  0  0
    7.9973   12.2332   25.0687 C   0  0  0  0  0  0  0  0  0  0  0  0
    6.9574   12.5961   25.9765 C   0  0  0  0  0  0  0  0  0  0  0  0
    6.1325   11.6325   26.5494 C   0  0  0  0  0  0  0  0  0  0  0  0
    5.0717   11.8670   27.4110 N   0  0  0  0  0  0  0  0  0  0  0  0
    4.5953   13.1634   28.0745 C   0  0  0  0  0  0  0  0  0  0  0  0
    5.0600   14.2292   28.0673 O   0  0  0  0  0  0  0  0  0  0  0  0
    3.3233   12.8982   28.8189 C   0  0  2  0  0  0  0  0  0  0  0  0
    3.2893   13.0447   30.3208 C   0  0  0  0  0  0  0  0  0  0  0  0
    3.1491   11.6713   29.7137 C   0  0  1  0  0  0  0  0  0  0  0  0
    1.8604   10.9295   29.7754 C   0  0  0  0  0  0  0  0  0  0  0  0
    1.5631   10.5925   31.0471 F   0  0  0  0  0  0  0  0  0  0  0  0
    1.9404    9.7904   29.0486 F   0  0  0  0  0  0  0  0  0  0  0  0
    0.8414   11.6576   29.2726 F   0  0  0  0  0  0  0  0  0  0  0  0
    6.3335   10.3090   26.2249 C   0  0  0  0  0  0  0  0  0  0  0  0
    7.3412    9.9619   25.3477 C   0  0  0  0  0  0  0  0  0  0  0  0
    8.1764   10.8878   24.7571 C   0  0  0  0  0  0  0  0  0  0  0  0
    9.0687   10.2838   23.8827 N   0  0  0  0  0  0  0  0  0  0  0  0
  1  2  2  0
  2  3  1  0
  3  4  1  0
  4  5  1  0
  5  6  1  0
  6  7  2  0
  7  8  1  0
  8  9  1  0
  9 10  1  0
 10 11  2  0
 12 10  1  1
 12 13  1  0
 13 14  1  0
 14 15  1  6
 15 16  1  0
 15 17  1  0
 15 18  1  0
  8 19  2  0
 19 20  1  0
 20 21  2  0
 21 22  1  0
 22  2  1  0
 21  6  1  0
 14 12  1  0
M  END
>  <energy_score>  (1487) 
-38.031729

>  <inchikey>  (1487) 
None

>  <smiles>  (1487) 
None

>  <ref_pdb>  (1487) 
A0310a

>  <alias>  (1487) 
None

>  <HIPPO Pose ID>  (1487) 
499131

>  <name>  (1487) 
P499131

>  <HIPPO Compound ID>  (1487) 
301712

>  <ref_mols>  (1487) 
A1445a,A0310a

>  <distance_score>  (1487) 
1.769338

>  <inspiration_score>  (1487) 
None

$$$$
P499132
     RDKit          3D

 22 24  0  0  0  0  0  0  0  0999 V2000
   10.4187    9.9534   22.4288 O   0  0  0  0  0  0  0  0  0  0  0  0
    9.8540   10.8018   23.1150 C   0  0  0  0  0  0  0  0  0  0  0  0
   10.1375   12.2611   22.9644 C   0  0  0  0  0  0  0  0  0  0  0  0
   10.0446   13.0750   24.2258 C   0  0  0  0  0  0  0  0  0  0  0  0
    8.6049   13.3765   24.6225 C   0  0  0  0  0  0  0  0  0  0  0  0
    7.8434   12.2353   25.2282 C   0  0  0  0  0  0  0  0  0  0  0  0
    6.8643   12.5417   26.2305 C   0  0  0  0  0  0  0  0  0  0  0  0
    6.1265   11.5382   26.8648 C   0  0  0  0  0  0  0  0  0  0  0  0
    5.3413   11.6973   28.0074 N   0  0  0  0  0  0  0  0  0  0  0  0
    4.9137   12.9643   28.7523 C   0  0  0  0  0  0  0  0  0  0  0  0
    5.0816   14.0847   28.4922 O   0  0  0  0  0  0  0  0  0  0  0  0
    4.2692   12.6168   30.0544 C   0  0  1  0  0  0  0  0  0  0  0  0
    2.9465   13.2346   30.4232 C   0  0  0  0  0  0  0  0  0  0  0  0
    3.0767   11.7309   30.3797 C   0  0  1  0  0  0  0  0  0  0  0  0
    2.1339   10.9648   29.5331 C   0  0  0  0  0  0  0  0  0  0  0  0
    1.0575   10.6286   30.2823 F   0  0  0  0  0  0  0  0  0  0  0  0
    2.6893    9.8124   29.0997 F   0  0  0  0  0  0  0  0  0  0  0  0
    1.6949   11.6494   28.4585 F   0  0  0  0  0  0  0  0  0  0  0  0
    6.2753   10.2467   26.4194 C   0  0  0  0  0  0  0  0  0  0  0  0
    7.1981    9.9612   25.4262 C   0  0  0  0  0  0  0  0  0  0  0  0
    8.0179   10.9090   24.8472 C   0  0  0  0  0  0  0  0  0  0  0  0
    8.9130   10.3379   23.9468 N   0  0  0  0  0  0  0  0  0  0  0  0
  1  2  2  0
  2  3  1  0
  3  4  1  0
  4  5  1  0
  5  6  1  0
  6  7  2  0
  7  8  1  0
  8  9  1  0
  9 10  1  0
 10 11  2  0
 12 10  1  6
 12 13  1  0
 13 14  1  0
 14 15  1  6
 15 16  1  0
 15 17  1  0
 15 18  1  0
  8 19  2  0
 19 20  1  0
 20 21  2  0
 21 22  1  0
 22  2  1  0
 21  6  1  0
 14 12  1  0
M  END
>  <energy_score>  (1488) 
-8.063544

>  <inchikey>  (1488) 
None

>  <smiles>  (1488) 
None

>  <ref_pdb>  (1488) 
A0310a

>  <alias>  (1488) 
None

>  <HIPPO Pose ID>  (1488) 
499132

>  <name>  (1488) 
P499132

>  <HIPPO Compound ID>  (1488) 
301712

>  <ref_mols>  (1488) 
A1445a,A0310a

>  <distance_score>  (1488) 
1.882763

>  <inspiration_score>  (1488) 
None

$$$$
P499133
     RDKit          3D

 23 24  0  0  0  0  0  0  0  0999 V2000
    4.0391   11.1685   30.5590 C   0  0  0  0  0  0  0  0  0  0  0  0
    3.3717    9.9943   29.8310 C   0  0  2  0  0  0  0  0  0  0  0  0
    4.1355    9.4596   28.6024 C   0  0  2  0  0  0  0  0  0  0  0  0
    5.1214    8.6261   29.0743 F   0  0  0  0  0  0  0  0  0  0  0  0
    4.7660   10.5498   27.7268 C   0  0  0  0  0  0  0  0  0  0  0  0
    4.4607   11.6758   27.8371 O   0  0  0  0  0  0  0  0  0  0  0  0
    5.8692    9.8797   26.8368 N   0  0  0  0  0  0  0  0  0  0  0  0
    6.8355   10.4509   26.0148 C   0  0  0  0  0  0  0  0  0  0  0  0
    7.6635    9.7384   25.1421 C   0  0  0  0  0  0  0  0  0  0  0  0
    8.6233   10.3517   24.3389 C   0  0  0  0  0  0  0  0  0  0  0  0
    8.6895   11.7248   24.3745 C   0  0  0  0  0  0  0  0  0  0  0  0
    7.9650   12.4384   25.3285 C   0  0  0  0  0  0  0  0  0  0  0  0
    7.0176   11.8051   26.1139 C   0  0  0  0  0  0  0  0  0  0  0  0
    8.1198   13.9142   25.4934 C   0  0  0  0  0  0  0  0  0  0  0  0
    7.2521   14.5709   24.4568 C   0  0  0  0  0  0  0  0  0  0  0  0
    7.5939   14.1271   23.0446 C   0  0  0  0  0  0  0  0  0  0  0  0
    8.9791   13.5275   22.7660 C   0  0  0  0  0  0  0  0  0  0  0  0
    9.6907   13.9491   21.8611 O   0  0  0  0  0  0  0  0  0  0  0  0
    9.4057   12.3952   23.3971 N   0  0  0  0  0  0  0  0  0  0  0  0
    1.9303   10.3203   29.5119 C   0  0  0  0  0  0  0  0  0  0  0  0
    1.2641   10.6595   30.6393 F   0  0  0  0  0  0  0  0  0  0  0  0
    1.3131    9.2325   28.9971 F   0  0  0  0  0  0  0  0  0  0  0  0
    1.7788   11.3182   28.6248 F   0  0  0  0  0  0  0  0  0  0  0  0
  2  1  1  6
  2  3  1  0
  3  4  1  1
  3  5  1  0
  5  6  2  0
  5  7  1  0
  7  8  1  0
  8  9  2  0
  9 10  1  0
 10 11  2  0
 11 12  1  0
 12 13  2  0
 12 14  1  0
 14 15  1  0
 15 16  1  0
 16 17  1  0
 17 18  2  0
 17 19  1  0
  2 20  1  0
 20 21  1  0
 20 22  1  0
 20 23  1  0
 13  8  1  0
 19 11  1  0
M  END
>  <energy_score>  (1489) 
-24.012799

>  <inchikey>  (1489) 
None

>  <smiles>  (1489) 
None

>  <ref_pdb>  (1489) 
A0310a

>  <alias>  (1489) 
None

>  <HIPPO Pose ID>  (1489) 
499133

>  <name>  (1489) 
P499133

>  <HIPPO Compound ID>  (1489) 
301714

>  <ref_mols>  (1489) 
A1445a,A0310a

>  <distance_score>  (1489) 
1.732907

>  <inspiration_score>  (1489) 
None

$$$$
P499134
     RDKit          3D

 23 24  0  0  0  0  0  0  0  0999 V2000
    3.4482   12.0861   29.9599 C   0  0  0  0  0  0  0  0  0  0  0  0
    3.1952   10.8547   29.0762 C   0  0  1  0  0  0  0  0  0  0  0  0
    4.3526    9.8302   29.0317 C   0  0  2  0  0  0  0  0  0  0  0  0
    4.5503    9.3171   30.2786 F   0  0  0  0  0  0  0  0  0  0  0  0
    5.6197   10.5503   28.5220 C   0  0  0  0  0  0  0  0  0  0  0  0
    6.0720   11.4228   29.1635 O   0  0  0  0  0  0  0  0  0  0  0  0
    6.0314   10.0109   27.1091 N   0  0  0  0  0  0  0  0  0  0  0  0
    6.9774   10.4802   26.2054 C   0  0  0  0  0  0  0  0  0  0  0  0
    7.5640    9.7574   25.1691 C   0  0  0  0  0  0  0  0  0  0  0  0
    8.5213   10.3066   24.3136 C   0  0  0  0  0  0  0  0  0  0  0  0
    8.7212   11.6655   24.3843 C   0  0  0  0  0  0  0  0  0  0  0  0
    8.1661   12.4033   25.4285 C   0  0  0  0  0  0  0  0  0  0  0  0
    7.3241   11.8005   26.3459 C   0  0  0  0  0  0  0  0  0  0  0  0
    8.3781   13.8765   25.5584 C   0  0  0  0  0  0  0  0  0  0  0  0
    7.4071   14.5412   24.6190 C   0  0  0  0  0  0  0  0  0  0  0  0
    7.5841   14.0845   23.1809 C   0  0  0  0  0  0  0  0  0  0  0  0
    8.9286   13.4695   22.7720 C   0  0  0  0  0  0  0  0  0  0  0  0
    9.5691   13.9009   21.8213 O   0  0  0  0  0  0  0  0  0  0  0  0
    9.3752   12.3147   23.3501 N   0  0  0  0  0  0  0  0  0  0  0  0
    1.9100   10.2106   29.5424 C   0  0  0  0  0  0  0  0  0  0  0  0
    1.9012    9.9373   30.8588 F   0  0  0  0  0  0  0  0  0  0  0  0
    1.6673    9.0707   28.8634 F   0  0  0  0  0  0  0  0  0  0  0  0
    0.8709   11.0432   29.2881 F   0  0  0  0  0  0  0  0  0  0  0  0
  2  1  1  1
  2  3  1  0
  3  4  1  1
  3  5  1  0
  5  6  2  0
  5  7  1  0
  7  8  1  0
  8  9  2  0
  9 10  1  0
 10 11  2  0
 11 12  1  0
 12 13  2  0
 12 14  1  0
 14 15  1  0
 15 16  1  0
 16 17  1  0
 17 18  2  0
 17 19  1  0
  2 20  1  0
 20 21  1  0
 20 22  1  0
 20 23  1  0
 13  8  1  0
 19 11  1  0
M  END
>  <energy_score>  (1490) 
-8.881699

>  <inchikey>  (1490) 
None

>  <smiles>  (1490) 
None

>  <ref_pdb>  (1490) 
A0310a

>  <alias>  (1490) 
None

>  <HIPPO Pose ID>  (1490) 
499134

>  <name>  (1490) 
P499134

>  <HIPPO Compound ID>  (1490) 
301714

>  <ref_mols>  (1490) 
A1445a,A0310a

>  <distance_score>  (1490) 
1.690461

>  <inspiration_score>  (1490) 
None

$$$$
P499135
     RDKit          3D

 23 24  0  0  0  0  0  0  0  0999 V2000
    3.3534   12.1912   29.7773 C   0  0  0  0  0  0  0  0  0  0  0  0
    3.0732   10.8926   29.0070 C   0  0  1  0  0  0  0  0  0  0  0  0
    4.2304    9.8763   28.9975 C   0  0  1  0  0  0  0  0  0  0  0  0
    3.9070    8.8707   28.1290 F   0  0  0  0  0  0  0  0  0  0  0  0
    5.5263   10.5752   28.5635 C   0  0  0  0  0  0  0  0  0  0  0  0
    6.0068   11.4063   29.2366 O   0  0  0  0  0  0  0  0  0  0  0  0
    5.9318   10.0629   27.1436 N   0  0  0  0  0  0  0  0  0  0  0  0
    6.9088   10.5171   26.2664 C   0  0  0  0  0  0  0  0  0  0  0  0
    7.4713    9.7900   25.2202 C   0  0  0  0  0  0  0  0  0  0  0  0
    8.4542   10.3105   24.3763 C   0  0  0  0  0  0  0  0  0  0  0  0
    8.6931   11.6615   24.4576 C   0  0  0  0  0  0  0  0  0  0  0  0
    8.1538   12.4085   25.5053 C   0  0  0  0  0  0  0  0  0  0  0  0
    7.2990   11.8230   26.4242 C   0  0  0  0  0  0  0  0  0  0  0  0
    8.3963   13.8781   25.6277 C   0  0  0  0  0  0  0  0  0  0  0  0
    7.4353   14.5604   24.6899 C   0  0  0  0  0  0  0  0  0  0  0  0
    7.5740   14.0758   23.2562 C   0  0  0  0  0  0  0  0  0  0  0  0
    8.9036   13.4440   22.8275 C   0  0  0  0  0  0  0  0  0  0  0  0
    9.5152   13.8429   21.8437 O   0  0  0  0  0  0  0  0  0  0  0  0
    9.3583   12.3000   23.4228 N   0  0  0  0  0  0  0  0  0  0  0  0
    1.8222   10.2689   29.5846 C   0  0  0  0  0  0  0  0  0  0  0  0
    1.9409   10.0384   30.9078 F   0  0  0  0  0  0  0  0  0  0  0  0
    1.5040    9.1087   28.9808 F   0  0  0  0  0  0  0  0  0  0  0  0
    0.7711   11.1039   29.4061 F   0  0  0  0  0  0  0  0  0  0  0  0
  2  1  1  1
  2  3  1  0
  3  4  1  6
  3  5  1  0
  5  6  2  0
  5  7  1  0
  7  8  1  0
  8  9  2  0
  9 10  1  0
 10 11  2  0
 11 12  1  0
 12 13  2  0
 12 14  1  0
 14 15  1  0
 15 16  1  0
 16 17  1  0
 17 18  2  0
 17 19  1  0
  2 20  1  0
 20 21  1  0
 20 22  1  0
 20 23  1  0
 13  8  1  0
 19 11  1  0
M  END
>  <energy_score>  (1491) 
-3.096314

>  <inchikey>  (1491) 
None

>  <smiles>  (1491) 
None

>  <ref_pdb>  (1491) 
A0310a

>  <alias>  (1491) 
None

>  <HIPPO Pose ID>  (1491) 
499135

>  <name>  (1491) 
P499135

>  <HIPPO Compound ID>  (1491) 
301714

>  <ref_mols>  (1491) 
A1445a,A0310a

>  <distance_score>  (1491) 
1.696169

>  <inspiration_score>  (1491) 
None

$$$$
P499136
     RDKit          3D

 23 25  0  0  0  0  0  0  0  0999 V2000
    3.7570   11.5258   30.3091 C   0  0  0  0  0  0  0  0  0  0  0  0
    3.2913   10.2651   29.6058 C   0  0  2  0  0  0  0  0  0  0  0  0
    1.8007   10.1156   29.6778 C   0  0  0  0  0  0  0  0  0  0  0  0
    1.3612   10.2246   30.9512 F   0  0  0  0  0  0  0  0  0  0  0  0
    1.4014    8.9143   29.2016 F   0  0  0  0  0  0  0  0  0  0  0  0
    1.1878   11.0675   28.9361 F   0  0  0  0  0  0  0  0  0  0  0  0
    4.2463    9.0824   29.6505 C   0  0  0  0  0  0  0  0  0  0  0  0
    3.9809    9.7298   28.3199 C   0  0  2  0  0  0  0  0  0  0  0  0
    4.9227   10.6526   27.6226 C   0  0  0  0  0  0  0  0  0  0  0  0
    4.7506   11.7918   27.7974 O   0  0  0  0  0  0  0  0  0  0  0  0
    6.0096    9.9180   26.8073 N   0  0  0  0  0  0  0  0  0  0  0  0
    7.0168   10.4178   25.9907 C   0  0  0  0  0  0  0  0  0  0  0  0
    7.7602    9.6905   25.0601 C   0  0  0  0  0  0  0  0  0  0  0  0
    8.7089   10.2905   24.2288 C   0  0  0  0  0  0  0  0  0  0  0  0
    8.8244   11.6627   24.2864 C   0  0  0  0  0  0  0  0  0  0  0  0
    8.1929   12.3774   25.3000 C   0  0  0  0  0  0  0  0  0  0  0  0
    7.2866   11.7544   26.1327 C   0  0  0  0  0  0  0  0  0  0  0  0
    8.3774   13.8490   25.4745 C   0  0  0  0  0  0  0  0  0  0  0  0
    7.4200   14.5196   24.5296 C   0  0  0  0  0  0  0  0  0  0  0  0
    7.6394   14.0853   23.0906 C   0  0  0  0  0  0  0  0  0  0  0  0
    9.0013   13.4923   22.6952 C   0  0  0  0  0  0  0  0  0  0  0  0
    9.6346   13.9360   21.7443 O   0  0  0  0  0  0  0  0  0  0  0  0
    9.4747   12.3455   23.2710 N   0  0  0  0  0  0  0  0  0  0  0  0
  2  1  1  1
  2  3  1  0
  3  4  1  0
  3  5  1  0
  3  6  1  0
  2  7  1  0
  7  8  1  0
  8  9  1  1
  9 10  2  0
  9 11  1  0
 11 12  1  0
 12 13  2  0
 13 14  1  0
 14 15  2  0
 15 16  1  0
 16 17  2  0
 16 18  1  0
 18 19  1  0
 19 20  1  0
 20 21  1  0
 21 22  2  0
 21 23  1  0
  8  2  1  0
 17 12  1  0
 23 15  1  0
M  END
>  <energy_score>  (1492) 
-32.609788

>  <inchikey>  (1492) 
None

>  <smiles>  (1492) 
None

>  <ref_pdb>  (1492) 
A0310a

>  <alias>  (1492) 
None

>  <HIPPO Pose ID>  (1492) 
499136

>  <name>  (1492) 
P499136

>  <HIPPO Compound ID>  (1492) 
301715

>  <ref_mols>  (1492) 
A1445a,A0310a

>  <distance_score>  (1492) 
1.641199

>  <inspiration_score>  (1492) 
None

$$$$
P499137
     RDKit          3D

 23 25  0  0  0  0  0  0  0  0999 V2000
    3.6834   11.5322   30.4051 C   0  0  0  0  0  0  0  0  0  0  0  0
    3.2700   10.2815   29.6529 C   0  0  2  0  0  0  0  0  0  0  0  0
    1.7783   10.1226   29.6425 C   0  0  0  0  0  0  0  0  0  0  0  0
    1.2705   10.2233   30.8909 F   0  0  0  0  0  0  0  0  0  0  0  0
    1.4154    8.9216   29.1408 F   0  0  0  0  0  0  0  0  0  0  0  0
    1.2035   11.0758   28.8727 F   0  0  0  0  0  0  0  0  0  0  0  0
    4.2181    9.0954   29.7441 C   0  0  0  0  0  0  0  0  0  0  0  0
    4.0413    9.7610   28.4063 C   0  0  2  0  0  0  0  0  0  0  0  0
    5.0602   10.6599   27.7841 C   0  0  0  0  0  0  0  0  0  0  0  0
    5.0317   11.7777   28.1112 O   0  0  0  0  0  0  0  0  0  0  0  0
    6.0059    9.9265   26.8052 N   0  0  0  0  0  0  0  0  0  0  0  0
    7.0148   10.4193   25.9850 C   0  0  0  0  0  0  0  0  0  0  0  0
    7.7483    9.6857   25.0514 C   0  0  0  0  0  0  0  0  0  0  0  0
    8.7018   10.2748   24.2167 C   0  0  0  0  0  0  0  0  0  0  0  0
    8.8266   11.6464   24.2660 C   0  0  0  0  0  0  0  0  0  0  0  0
    8.2000   12.3698   25.2755 C   0  0  0  0  0  0  0  0  0  0  0  0
    7.2941   11.7550   26.1151 C   0  0  0  0  0  0  0  0  0  0  0  0
    8.3814   13.8432   25.4410 C   0  0  0  0  0  0  0  0  0  0  0  0
    7.4252   14.5026   24.4867 C   0  0  0  0  0  0  0  0  0  0  0  0
    7.6770   14.0820   23.0490 C   0  0  0  0  0  0  0  0  0  0  0  0
    9.0449   13.4823   22.6834 C   0  0  0  0  0  0  0  0  0  0  0  0
    9.7205   13.9422   21.7705 O   0  0  0  0  0  0  0  0  0  0  0  0
    9.4859   12.3185   23.2501 N   0  0  0  0  0  0  0  0  0  0  0  0
  2  1  1  1
  2  3  1  0
  3  4  1  0
  3  5  1  0
  3  6  1  0
  2  7  1  0
  7  8  1  0
  8  9  1  1
  9 10  2  0
  9 11  1  0
 11 12  1  0
 12 13  2  0
 13 14  1  0
 14 15  2  0
 15 16  1  0
 16 17  2  0
 16 18  1  0
 18 19  1  0
 19 20  1  0
 20 21  1  0
 21 22  2  0
 21 23  1  0
  8  2  1  0
 17 12  1  0
 23 15  1  0
M  END
>  <energy_score>  (1493) 
-44.451619

>  <inchikey>  (1493) 
None

>  <smiles>  (1493) 
None

>  <ref_pdb>  (1493) 
A0310a

>  <alias>  (1493) 
None

>  <HIPPO Pose ID>  (1493) 
499137

>  <name>  (1493) 
P499137

>  <HIPPO Compound ID>  (1493) 
301715

>  <ref_mols>  (1493) 
A1445a,A0310a

>  <distance_score>  (1493) 
1.648537

>  <inspiration_score>  (1493) 
None

$$$$
P499138
     RDKit          3D

 23 25  0  0  0  0  0  0  0  0999 V2000
    3.2944   12.2940   30.1061 C   0  0  0  0  0  0  0  0  0  0  0  0
    2.9724   10.9099   29.5965 C   0  0  1  0  0  0  0  0  0  0  0  0
    1.7983   10.2959   30.2913 C   0  0  0  0  0  0  0  0  0  0  0  0
    1.9052   10.3586   31.6304 F   0  0  0  0  0  0  0  0  0  0  0  0
    1.6394    9.0011   29.9291 F   0  0  0  0  0  0  0  0  0  0  0  0
    0.6744   10.9543   29.9173 F   0  0  0  0  0  0  0  0  0  0  0  0
    2.9111   10.7074   28.1178 C   0  0  0  0  0  0  0  0  0  0  0  0
    4.0656   10.0778   28.8703 C   0  0  1  0  0  0  0  0  0  0  0  0
    5.3928   10.6552   28.4861 C   0  0  0  0  0  0  0  0  0  0  0  0
    5.8758   11.4435   29.1971 O   0  0  0  0  0  0  0  0  0  0  0  0
    5.8499   10.1420   27.0985 N   0  0  0  0  0  0  0  0  0  0  0  0
    6.9030   10.5475   26.2898 C   0  0  0  0  0  0  0  0  0  0  0  0
    7.4519    9.8102   25.2424 C   0  0  0  0  0  0  0  0  0  0  0  0
    8.4477   10.3096   24.4008 C   0  0  0  0  0  0  0  0  0  0  0  0
    8.7053   11.6572   24.4794 C   0  0  0  0  0  0  0  0  0  0  0  0
    8.1826   12.4124   25.5311 C   0  0  0  0  0  0  0  0  0  0  0  0
    7.3271   11.8404   26.4588 C   0  0  0  0  0  0  0  0  0  0  0  0
    8.4291   13.8831   25.6411 C   0  0  0  0  0  0  0  0  0  0  0  0
    7.4544   14.5562   24.7102 C   0  0  0  0  0  0  0  0  0  0  0  0
    7.5802   14.0635   23.2786 C   0  0  0  0  0  0  0  0  0  0  0  0
    8.9095   13.4352   22.8432 C   0  0  0  0  0  0  0  0  0  0  0  0
    9.5197   13.8472   21.8640 O   0  0  0  0  0  0  0  0  0  0  0  0
    9.3631   12.2879   23.4340 N   0  0  0  0  0  0  0  0  0  0  0  0
  2  1  1  6
  2  3  1  0
  3  4  1  0
  3  5  1  0
  3  6  1  0
  2  7  1  0
  7  8  1  0
  8  9  1  6
  9 10  2  0
  9 11  1  0
 11 12  1  0
 12 13  2  0
 13 14  1  0
 14 15  2  0
 15 16  1  0
 16 17  2  0
 16 18  1  0
 18 19  1  0
 19 20  1  0
 20 21  1  0
 21 22  2  0
 21 23  1  0
  8  2  1  0
 17 12  1  0
 23 15  1  0
M  END
>  <energy_score>  (1494) 
-2.464349

>  <inchikey>  (1494) 
None

>  <smiles>  (1494) 
None

>  <ref_pdb>  (1494) 
A0310a

>  <alias>  (1494) 
None

>  <HIPPO Pose ID>  (1494) 
499138

>  <name>  (1494) 
P499138

>  <HIPPO Compound ID>  (1494) 
301715

>  <ref_mols>  (1494) 
A1445a,A0310a

>  <distance_score>  (1494) 
1.722012

>  <inspiration_score>  (1494) 
None

$$$$
P499139
     RDKit          3D

 23 25  0  0  0  0  0  0  0  0999 V2000
   10.4549    9.8009   22.2920 O   0  0  0  0  0  0  0  0  0  0  0  0
   10.0082   10.6802   23.0278 C   0  0  0  0  0  0  0  0  0  0  0  0
   10.4021   12.1195   22.8967 C   0  0  0  0  0  0  0  0  0  0  0  0
   10.2624   12.9809   24.1230 C   0  0  0  0  0  0  0  0  0  0  0  0
    8.8151   13.3308   24.4215 C   0  0  0  0  0  0  0  0  0  0  0  0
    8.0152   12.2306   25.0475 C   0  0  0  0  0  0  0  0  0  0  0  0
    6.9577   12.6119   25.9255 C   0  0  0  0  0  0  0  0  0  0  0  0
    6.1185   11.6620   26.5011 C   0  0  0  0  0  0  0  0  0  0  0  0
    5.0225   11.9327   27.3055 N   0  0  0  0  0  0  0  0  0  0  0  0
    4.5261   13.2643   27.9106 C   0  0  0  0  0  0  0  0  0  0  0  0
    5.0047   14.3301   27.8907 O   0  0  0  0  0  0  0  0  0  0  0  0
    3.1432   12.9398   28.5990 C   0  0  2  0  0  0  0  0  0  0  0  0
    2.6348   13.9439   29.6676 C   0  0  0  0  0  0  0  0  0  0  0  0
    3.1492   12.9867   30.7513 C   0  0  0  0  0  0  0  0  0  0  0  0
    3.1030   11.8399   29.7208 C   0  0  1  0  0  0  0  0  0  0  0  0
    1.8725   10.9590   29.7549 C   0  0  0  0  0  0  0  0  0  0  0  0
    1.7046   10.4211   30.9802 F   0  0  0  0  0  0  0  0  0  0  0  0
    2.0054    9.9472   28.8655 F   0  0  0  0  0  0  0  0  0  0  0  0
    0.7601   11.6456   29.4267 F   0  0  0  0  0  0  0  0  0  0  0  0
    6.3291   10.3308   26.2191 C   0  0  0  0  0  0  0  0  0  0  0  0
    7.3517    9.9672   25.3651 C   0  0  0  0  0  0  0  0  0  0  0  0
    8.1972   10.8796   24.7664 C   0  0  0  0  0  0  0  0  0  0  0  0
    9.0924   10.2575   23.9055 N   0  0  0  0  0  0  0  0  0  0  0  0
  1  2  2  0
  2  3  1  0
  3  4  1  0
  4  5  1  0
  5  6  1  0
  6  7  2  0
  7  8  1  0
  8  9  1  0
  9 10  1  0
 10 11  2  0
 12 10  1  1
 12 13  1  0
 13 14  1  0
 14 15  1  0
 15 16  1  1
 16 17  1  0
 16 18  1  0
 16 19  1  0
  8 20  2  0
 20 21  1  0
 21 22  2  0
 22 23  1  0
 23  2  1  0
 22  6  1  0
 15 12  1  0
M  END
>  <energy_score>  (1495) 
-30.783535

>  <inchikey>  (1495) 
None

>  <smiles>  (1495) 
None

>  <ref_pdb>  (1495) 
A0310a

>  <alias>  (1495) 
None

>  <HIPPO Pose ID>  (1495) 
499139

>  <name>  (1495) 
P499139

>  <HIPPO Compound ID>  (1495) 
301716

>  <ref_mols>  (1495) 
A1445a,A0310a

>  <distance_score>  (1495) 
1.796811

>  <inspiration_score>  (1495) 
None

$$$$
P499140
     RDKit          3D

 23 25  0  0  0  0  0  0  0  0999 V2000
   10.4505    9.8125   22.4285 O   0  0  0  0  0  0  0  0  0  0  0  0
    9.9482   10.6626   23.1564 C   0  0  0  0  0  0  0  0  0  0  0  0
   10.4591   12.0622   23.2484 C   0  0  0  0  0  0  0  0  0  0  0  0
    9.3621   13.0984   23.1767 C   0  0  0  0  0  0  0  0  0  0  0  0
    8.7383   13.3615   24.5336 C   0  0  0  0  0  0  0  0  0  0  0  0
    7.9269   12.2465   25.1241 C   0  0  0  0  0  0  0  0  0  0  0  0
    6.9334   12.6272   26.0756 C   0  0  0  0  0  0  0  0  0  0  0  0
    6.0828   11.6944   26.6701 C   0  0  0  0  0  0  0  0  0  0  0  0
    5.0808   12.0145   27.5800 N   0  0  0  0  0  0  0  0  0  0  0  0
    4.6093   13.3873   28.1138 C   0  0  0  0  0  0  0  0  0  0  0  0
    5.0399   14.4609   27.9317 O   0  0  0  0  0  0  0  0  0  0  0  0
    3.3682   13.1884   29.0531 C   0  0  2  0  0  0  0  0  0  0  0  0
    3.4862   13.9870   30.3882 C   0  0  0  0  0  0  0  0  0  0  0  0
    2.7438   12.8554   31.0913 C   0  0  0  0  0  0  0  0  0  0  0  0
    3.1566   11.9097   29.9434 C   0  0  1  0  0  0  0  0  0  0  0  0
    2.0405   10.9458   29.6141 C   0  0  0  0  0  0  0  0  0  0  0  0
    1.6471   10.2828   30.7224 F   0  0  0  0  0  0  0  0  0  0  0  0
    2.4505   10.0353   28.7036 F   0  0  0  0  0  0  0  0  0  0  0  0
    0.9725   11.5871   29.0956 F   0  0  0  0  0  0  0  0  0  0  0  0
    6.2230   10.3686   26.3318 C   0  0  0  0  0  0  0  0  0  0  0  0
    7.1984   10.0027   25.4186 C   0  0  0  0  0  0  0  0  0  0  0  0
    8.0662   10.8960   24.8161 C   0  0  0  0  0  0  0  0  0  0  0  0
    8.9351   10.2555   23.9353 N   0  0  0  0  0  0  0  0  0  0  0  0
  1  2  2  0
  2  3  1  0
  3  4  1  0
  4  5  1  0
  5  6  1  0
  6  7  2  0
  7  8  1  0
  8  9  1  0
  9 10  1  0
 10 11  2  0
 12 10  1  1
 12 13  1  0
 13 14  1  0
 14 15  1  0
 15 16  1  6
 16 17  1  0
 16 18  1  0
 16 19  1  0
  8 20  2  0
 20 21  1  0
 21 22  2  0
 22 23  1  0
 23  2  1  0
 22  6  1  0
 15 12  1  0
M  END
>  <energy_score>  (1496) 
-37.666897

>  <inchikey>  (1496) 
None

>  <smiles>  (1496) 
None

>  <ref_pdb>  (1496) 
A0310a

>  <alias>  (1496) 
None

>  <HIPPO Pose ID>  (1496) 
499140

>  <name>  (1496) 
P499140

>  <HIPPO Compound ID>  (1496) 
301716

>  <ref_mols>  (1496) 
A1445a,A0310a

>  <distance_score>  (1496) 
1.883856

>  <inspiration_score>  (1496) 
None

$$$$
P499141
     RDKit          3D

 23 25  0  0  0  0  0  0  0  0999 V2000
   10.4282    9.8484   22.2689 O   0  0  0  0  0  0  0  0  0  0  0  0
    9.9666   10.7113   23.0141 C   0  0  0  0  0  0  0  0  0  0  0  0
   10.3477   12.1553   22.9125 C   0  0  0  0  0  0  0  0  0  0  0  0
   10.2413   12.9746   24.1709 C   0  0  0  0  0  0  0  0  0  0  0  0
    8.8036   13.3081   24.5362 C   0  0  0  0  0  0  0  0  0  0  0  0
    8.0264   12.1872   25.1551 C   0  0  0  0  0  0  0  0  0  0  0  0
    7.0560   12.5211   26.1510 C   0  0  0  0  0  0  0  0  0  0  0  0
    6.2536   11.5420   26.7292 C   0  0  0  0  0  0  0  0  0  0  0  0
    5.3284   11.7107   27.7491 N   0  0  0  0  0  0  0  0  0  0  0  0
    5.0251   12.9289   28.6271 C   0  0  0  0  0  0  0  0  0  0  0  0
    5.4479   14.0118   28.5872 O   0  0  0  0  0  0  0  0  0  0  0  0
    4.0246   12.4986   29.6694 C   0  0  1  0  0  0  0  0  0  0  0  0
    4.5717   11.6630   30.7049 O   0  0  0  0  0  0  0  0  0  0  0  0
    2.8778   13.3769   30.0735 C   0  0  0  0  0  0  0  0  0  0  0  0
    2.6200   12.1634   29.2118 C   0  0  2  0  0  0  0  0  0  0  0  0
    1.8222   11.0187   29.7063 C   0  0  0  0  0  0  0  0  0  0  0  0
    1.8402   10.8809   31.0479 F   0  0  0  0  0  0  0  0  0  0  0  0
    2.2417    9.8584   29.1489 F   0  0  0  0  0  0  0  0  0  0  0  0
    0.5354   11.1901   29.3248 F   0  0  0  0  0  0  0  0  0  0  0  0
    6.3665   10.2472   26.2789 C   0  0  0  0  0  0  0  0  0  0  0  0
    7.3165    9.9255   25.3317 C   0  0  0  0  0  0  0  0  0  0  0  0
    8.1643   10.8564   24.7706 C   0  0  0  0  0  0  0  0  0  0  0  0
    9.0307   10.2694   23.8589 N   0  0  0  0  0  0  0  0  0  0  0  0
  1  2  2  0
  2  3  1  0
  3  4  1  0
  4  5  1  0
  5  6  1  0
  6  7  2  0
  7  8  1  0
  8  9  1  0
  9 10  1  0
 10 11  2  0
 10 12  1  0
 12 13  1  1
 12 14  1  0
 14 15  1  0
 15 16  1  1
 16 17  1  0
 16 18  1  0
 16 19  1  0
  8 20  2  0
 20 21  1  0
 21 22  2  0
 22 23  1  0
 23  2  1  0
 22  6  1  0
 15 12  1  0
M  END
>  <energy_score>  (1497) 
-27.042339

>  <inchikey>  (1497) 
None

>  <smiles>  (1497) 
None

>  <ref_pdb>  (1497) 
A0310a

>  <alias>  (1497) 
None

>  <HIPPO Pose ID>  (1497) 
499141

>  <name>  (1497) 
P499141

>  <HIPPO Compound ID>  (1497) 
301717

>  <ref_mols>  (1497) 
A1445a,A0310a

>  <distance_score>  (1497) 
1.943563

>  <inspiration_score>  (1497) 
None

$$$$
P499142
     RDKit          3D

 23 25  0  0  0  0  0  0  0  0999 V2000
   10.4803    9.7803   22.1811 O   0  0  0  0  0  0  0  0  0  0  0  0
   10.0694   10.6674   22.9278 C   0  0  0  0  0  0  0  0  0  0  0  0
   10.5313   12.0935   22.8302 C   0  0  0  0  0  0  0  0  0  0  0  0
   10.2388   13.0191   23.9807 C   0  0  0  0  0  0  0  0  0  0  0  0
    8.7567   13.3251   24.0837 C   0  0  0  0  0  0  0  0  0  0  0  0
    8.0071   12.2602   24.8151 C   0  0  0  0  0  0  0  0  0  0  0  0
    6.9641   12.6684   25.6854 C   0  0  0  0  0  0  0  0  0  0  0  0
    6.2791   11.7323   26.4462 C   0  0  0  0  0  0  0  0  0  0  0  0
    5.2712   12.0539   27.3327 N   0  0  0  0  0  0  0  0  0  0  0  0
    4.6683   11.2473   28.4949 C   0  0  0  0  0  0  0  0  0  0  0  0
    4.9773   10.2150   28.9385 O   0  0  0  0  0  0  0  0  0  0  0  0
    3.4372   11.9169   29.0234 C   0  0  2  0  0  0  0  0  0  0  0  0
    2.6404   12.5806   28.0113 O   0  0  0  0  0  0  0  0  0  0  0  0
    3.3317   12.5284   30.3937 C   0  0  0  0  0  0  0  0  0  0  0  0
    2.7415   11.1623   30.1352 C   0  0  1  0  0  0  0  0  0  0  0  0
    1.3238   10.8186   30.0136 C   0  0  0  0  0  0  0  0  0  0  0  0
    0.7890   10.6164   31.2333 F   0  0  0  0  0  0  0  0  0  0  0  0
    1.1655    9.6908   29.2852 F   0  0  0  0  0  0  0  0  0  0  0  0
    0.6290   11.8046   29.4011 F   0  0  0  0  0  0  0  0  0  0  0  0
    6.5662   10.3923   26.2909 C   0  0  0  0  0  0  0  0  0  0  0  0
    7.5179    9.9967   25.3801 C   0  0  0  0  0  0  0  0  0  0  0  0
    8.2604   10.8985   24.6539 C   0  0  0  0  0  0  0  0  0  0  0  0
    9.1503   10.2602   23.8054 N   0  0  0  0  0  0  0  0  0  0  0  0
  1  2  2  0
  2  3  1  0
  3  4  1  0
  4  5  1  0
  5  6  1  0
  6  7  2  0
  7  8  1  0
  8  9  1  0
  9 10  1  0
 10 11  2  0
 10 12  1  0
 12 13  1  6
 12 14  1  0
 14 15  1  0
 15 16  1  6
 16 17  1  0
 16 18  1  0
 16 19  1  0
  8 20  2  0
 20 21  1  0
 21 22  2  0
 22 23  1  0
 23  2  1  0
 22  6  1  0
 15 12  1  0
M  END
>  <energy_score>  (1498) 
-30.41912

>  <inchikey>  (1498) 
None

>  <smiles>  (1498) 
None

>  <ref_pdb>  (1498) 
A0310a

>  <alias>  (1498) 
None

>  <HIPPO Pose ID>  (1498) 
499142

>  <name>  (1498) 
P499142

>  <HIPPO Compound ID>  (1498) 
301717

>  <ref_mols>  (1498) 
A1445a,A0310a

>  <distance_score>  (1498) 
1.530893

>  <inspiration_score>  (1498) 
None

$$$$
P499143
     RDKit          3D

 23 24  0  0  0  0  0  0  0  0999 V2000
    3.3318   12.1812   30.0022 C   0  0  0  0  0  0  0  0  0  0  0  0
    2.9592   10.9848   29.1103 C   0  0  1  0  0  0  0  0  0  0  0  0
    2.5809   11.5303   27.8187 O   0  0  0  0  0  0  0  0  0  0  0  0
    4.0910    9.9395   28.8854 C   0  0  0  0  0  0  0  0  0  0  0  0
    5.3958   10.6201   28.4747 C   0  0  0  0  0  0  0  0  0  0  0  0
    5.8394   11.4691   29.1499 O   0  0  0  0  0  0  0  0  0  0  0  0
    5.8688   10.0800   27.0863 N   0  0  0  0  0  0  0  0  0  0  0  0
    6.8815   10.5226   26.2445 C   0  0  0  0  0  0  0  0  0  0  0  0
    7.4654    9.7892   25.2139 C   0  0  0  0  0  0  0  0  0  0  0  0
    8.4611   10.3059   24.3828 C   0  0  0  0  0  0  0  0  0  0  0  0
    8.6993   11.6571   24.4645 C   0  0  0  0  0  0  0  0  0  0  0  0
    8.1492   12.4063   25.5053 C   0  0  0  0  0  0  0  0  0  0  0  0
    7.2768   11.8253   26.4101 C   0  0  0  0  0  0  0  0  0  0  0  0
    8.3900   13.8761   25.6298 C   0  0  0  0  0  0  0  0  0  0  0  0
    7.4376   14.5577   24.6826 C   0  0  0  0  0  0  0  0  0  0  0  0
    7.5896   14.0702   23.2512 C   0  0  0  0  0  0  0  0  0  0  0  0
    8.9253   13.4403   22.8369 C   0  0  0  0  0  0  0  0  0  0  0  0
    9.5527   13.8462   21.8661 O   0  0  0  0  0  0  0  0  0  0  0  0
    9.3728   12.2943   23.4341 N   0  0  0  0  0  0  0  0  0  0  0  0
    1.7307   10.3027   29.7444 C   0  0  0  0  0  0  0  0  0  0  0  0
    1.9303    9.9926   31.0408 F   0  0  0  0  0  0  0  0  0  0  0  0
    1.3925    9.1733   29.0880 F   0  0  0  0  0  0  0  0  0  0  0  0
    0.6666   11.1413   29.6794 F   0  0  0  0  0  0  0  0  0  0  0  0
  2  1  1  1
  2  3  1  0
  2  4  1  0
  4  5  1  0
  5  6  2  0
  5  7  1  0
  7  8  1  0
  8  9  2  0
  9 10  1  0
 10 11  2  0
 11 12  1  0
 12 13  2  0
 12 14  1  0
 14 15  1  0
 15 16  1  0
 16 17  1  0
 17 18  2  0
 17 19  1  0
  2 20  1  0
 20 21  1  0
 20 22  1  0
 20 23  1  0
 13  8  1  0
 19 11  1  0
M  END
>  <energy_score>  (1499) 
-9.967422

>  <inchikey>  (1499) 
None

>  <smiles>  (1499) 
None

>  <ref_pdb>  (1499) 
A0310a

>  <alias>  (1499) 
None

>  <HIPPO Pose ID>  (1499) 
499143

>  <name>  (1499) 
P499143

>  <HIPPO Compound ID>  (1499) 
301721

>  <ref_mols>  (1499) 
A1445a,A0310a

>  <distance_score>  (1499) 
1.681828

>  <inspiration_score>  (1499) 
None

$$$$
P499144
     RDKit          3D

 23 25  0  0  0  0  0  0  0  0999 V2000
    3.8414    8.3450   28.1243 C   0  0  0  0  0  0  0  0  0  0  0  0
    4.2111    9.6739   28.7363 C   0  0  2  0  0  0  0  0  0  0  0  0
    5.2837   10.5580   28.0704 C   0  0  0  0  0  0  0  0  0  0  0  0
    5.3686   11.6311   28.5243 O   0  0  0  0  0  0  0  0  0  0  0  0
    6.0027    9.9228   26.8508 N   0  0  0  0  0  0  0  0  0  0  0  0
    7.0047   10.4282   26.0300 C   0  0  0  0  0  0  0  0  0  0  0  0
    7.7103    9.7030   25.0678 C   0  0  0  0  0  0  0  0  0  0  0  0
    8.6647   10.2901   24.2346 C   0  0  0  0  0  0  0  0  0  0  0  0
    8.8016   11.6590   24.2990 C   0  0  0  0  0  0  0  0  0  0  0  0
    8.1848   12.3788   25.3199 C   0  0  0  0  0  0  0  0  0  0  0  0
    7.2898   11.7612   26.1711 C   0  0  0  0  0  0  0  0  0  0  0  0
    8.3695   13.8520   25.4836 C   0  0  0  0  0  0  0  0  0  0  0  0
    7.4116   14.5170   24.5338 C   0  0  0  0  0  0  0  0  0  0  0  0
    7.6384   14.0829   23.0961 C   0  0  0  0  0  0  0  0  0  0  0  0
    9.0048   13.4924   22.7149 C   0  0  0  0  0  0  0  0  0  0  0  0
    9.6671   13.9607   21.7971 O   0  0  0  0  0  0  0  0  0  0  0  0
    9.4576   12.3338   23.2819 N   0  0  0  0  0  0  0  0  0  0  0  0
    4.1434    9.7297   30.2658 C   0  0  0  0  0  0  0  0  0  0  0  0
    3.1315   10.5197   29.4872 C   0  0  2  0  0  0  0  0  0  0  0  0
    1.6824   10.2633   29.5799 C   0  0  0  0  0  0  0  0  0  0  0  0
    1.2184   10.6494   30.7896 F   0  0  0  0  0  0  0  0  0  0  0  0
    1.3597    8.9653   29.4109 F   0  0  0  0  0  0  0  0  0  0  0  0
    1.0257   10.9742   28.6339 F   0  0  0  0  0  0  0  0  0  0  0  0
  2  1  1  1
  2  3  1  0
  3  4  2  0
  3  5  1  0
  5  6  1  0
  6  7  2  0
  7  8  1  0
  8  9  2  0
  9 10  1  0
 10 11  2  0
 10 12  1  0
 12 13  1  0
 13 14  1  0
 14 15  1  0
 15 16  2  0
 15 17  1  0
  2 18  1  0
 18 19  1  0
 19 20  1  1
 20 21  1  0
 20 22  1  0
 20 23  1  0
 19  2  1  0
 11  6  1  0
 17  9  1  0
M  END
>  <energy_score>  (1500) 
-132.457351

>  <inchikey>  (1500) 
None

>  <smiles>  (1500) 
None

>  <ref_pdb>  (1500) 
A0310a

>  <alias>  (1500) 
None

>  <HIPPO Pose ID>  (1500) 
499144

>  <name>  (1500) 
P499144

>  <HIPPO Compound ID>  (1500) 
301722

>  <ref_mols>  (1500) 
A1445a,A0310a

>  <distance_score>  (1500) 
1.710978

>  <inspiration_score>  (1500) 
None

$$$$
P499145
     RDKit          3D

 23 25  0  0  0  0  0  0  0  0999 V2000
    4.0198    8.4431   29.0204 C   0  0  0  0  0  0  0  0  0  0  0  0
    4.0674    9.9342   28.8237 C   0  0  1  0  0  0  0  0  0  0  0  0
    5.3795   10.5803   28.4371 C   0  0  0  0  0  0  0  0  0  0  0  0
    5.8091   11.4053   29.1428 O   0  0  0  0  0  0  0  0  0  0  0  0
    5.8839   10.0722   27.0614 N   0  0  0  0  0  0  0  0  0  0  0  0
    6.9237   10.5231   26.2605 C   0  0  0  0  0  0  0  0  0  0  0  0
    7.5029    9.7955   25.2204 C   0  0  0  0  0  0  0  0  0  0  0  0
    8.4873   10.3193   24.3835 C   0  0  0  0  0  0  0  0  0  0  0  0
    8.7131   11.6721   24.4666 C   0  0  0  0  0  0  0  0  0  0  0  0
    8.1631   12.4167   25.5131 C   0  0  0  0  0  0  0  0  0  0  0  0
    7.3090   11.8271   26.4313 C   0  0  0  0  0  0  0  0  0  0  0  0
    8.3839   13.8906   25.6280 C   0  0  0  0  0  0  0  0  0  0  0  0
    7.4199   14.5541   24.6789 C   0  0  0  0  0  0  0  0  0  0  0  0
    7.5815   14.0725   23.2468 C   0  0  0  0  0  0  0  0  0  0  0  0
    8.9231   13.4547   22.8355 C   0  0  0  0  0  0  0  0  0  0  0  0
    9.5538   13.8682   21.8703 O   0  0  0  0  0  0  0  0  0  0  0  0
    9.3781   12.3127   23.4331 N   0  0  0  0  0  0  0  0  0  0  0  0
    2.9125   10.6769   28.1598 C   0  0  0  0  0  0  0  0  0  0  0  0
    3.0442   10.7851   29.6344 C   0  0  1  0  0  0  0  0  0  0  0  0
    1.8144   10.3641   30.3428 C   0  0  0  0  0  0  0  0  0  0  0  0
    1.9708   10.3949   31.6780 F   0  0  0  0  0  0  0  0  0  0  0  0
    1.4244    9.1205   29.9817 F   0  0  0  0  0  0  0  0  0  0  0  0
    0.8073   11.2086   30.0128 F   0  0  0  0  0  0  0  0  0  0  0  0
  2  1  1  1
  2  3  1  0
  3  4  2  0
  3  5  1  0
  5  6  1  0
  6  7  2  0
  7  8  1  0
  8  9  2  0
  9 10  1  0
 10 11  2  0
 10 12  1  0
 12 13  1  0
 13 14  1  0
 14 15  1  0
 15 16  2  0
 15 17  1  0
  2 18  1  0
 18 19  1  0
 19 20  1  1
 20 21  1  0
 20 22  1  0
 20 23  1  0
 19  2  1  0
 11  6  1  0
 17  9  1  0
M  END
>  <energy_score>  (1501) 
-26.397253

>  <inchikey>  (1501) 
None

>  <smiles>  (1501) 
None

>  <ref_pdb>  (1501) 
A0310a

>  <alias>  (1501) 
None

>  <HIPPO Pose ID>  (1501) 
499145

>  <name>  (1501) 
P499145

>  <HIPPO Compound ID>  (1501) 
301722

>  <ref_mols>  (1501) 
A1445a,A0310a

>  <distance_score>  (1501) 
1.782929

>  <inspiration_score>  (1501) 
None

$$$$
P499146
     RDKit          3D

 24 26  0  0  0  0  0  0  0  0999 V2000
    8.9352    9.5006   23.9401 C   0  0  0  0  0  0  0  0  0  0  0  0
    8.2243   10.5851   24.6940 C   0  0  0  0  0  0  0  0  0  0  0  0
    7.1219   10.2029   25.4631 C   0  0  0  0  0  0  0  0  0  0  0  0
    6.3683   11.0899   26.2150 C   0  0  0  0  0  0  0  0  0  0  0  0
    5.3564   10.6072   27.0188 N   0  0  0  0  0  0  0  0  0  0  0  0
    4.3788   11.3438   27.9363 C   0  0  0  0  0  0  0  0  0  0  0  0
    4.2163   12.4814   28.1060 O   0  0  0  0  0  0  0  0  0  0  0  0
    3.5310   10.3627   28.6521 C   0  0  1  0  0  0  0  0  0  0  0  0
    3.9690    9.6554   29.9073 C   0  0  0  0  0  0  0  0  0  0  0  0
    2.9082   10.7405   29.9878 C   0  0  1  0  0  0  0  0  0  0  0  0
    3.2948   12.0176   30.6923 C   0  0  0  0  0  0  0  0  0  0  0  0
    1.4513   10.4281   30.0969 C   0  0  0  0  0  0  0  0  0  0  0  0
    1.0435   10.4589   31.3819 F   0  0  0  0  0  0  0  0  0  0  0  0
    1.1736    9.1988   29.6003 F   0  0  0  0  0  0  0  0  0  0  0  0
    0.7237   11.3212   29.3902 F   0  0  0  0  0  0  0  0  0  0  0  0
    6.6287   12.4334   26.1270 C   0  0  0  0  0  0  0  0  0  0  0  0
    7.7151   12.8446   25.3771 C   0  0  0  0  0  0  0  0  0  0  0  0
    8.5737   11.9309   24.7189 C   0  0  0  0  0  0  0  0  0  0  0  0
    9.7581   12.4312   24.1475 N   0  0  0  0  0  0  0  0  0  0  0  0
   10.5143   11.8224   23.0916 C   0  0  0  0  0  0  0  0  0  0  0  0
   11.7357   12.6980   22.9603 C   0  0  0  0  0  0  0  0  0  0  0  0
   11.2300   14.0513   23.3514 C   0  0  0  0  0  0  0  0  0  0  0  0
   10.2657   13.7006   24.4335 C   0  0  0  0  0  0  0  0  0  0  0  0
   10.0211   14.4626   25.3592 O   0  0  0  0  0  0  0  0  0  0  0  0
  1  2  1  0
  2  3  2  0
  3  4  1  0
  4  5  1  0
  5  6  1  0
  6  7  2  0
  8  6  1  1
  8  9  1  0
  9 10  1  0
 10 11  1  1
 10 12  1  0
 12 13  1  0
 12 14  1  0
 12 15  1  0
  4 16  2  0
 16 17  1  0
 17 18  2  0
 18 19  1  0
 19 20  1  0
 20 21  1  0
 21 22  1  0
 22 23  1  0
 23 24  2  0
 18  2  1  0
 23 19  1  0
 10  8  1  0
M  END
>  <energy_score>  (1502) 
-41.52299

>  <inchikey>  (1502) 
None

>  <smiles>  (1502) 
None

>  <ref_pdb>  (1502) 
A0310a

>  <alias>  (1502) 
None

>  <HIPPO Pose ID>  (1502) 
499146

>  <name>  (1502) 
P499146

>  <HIPPO Compound ID>  (1502) 
301727

>  <ref_mols>  (1502) 
A1445a,A0310a

>  <distance_score>  (1502) 
1.949971

>  <inspiration_score>  (1502) 
None

$$$$
P499147
     RDKit          3D

 24 26  0  0  0  0  0  0  0  0999 V2000
   11.5215   11.4272   23.4986 O   0  0  0  0  0  0  0  0  0  0  0  0
   10.3046   11.5140   23.4184 C   0  0  0  0  0  0  0  0  0  0  0  0
    9.6524   12.6054   22.6490 C   0  0  0  0  0  0  0  0  0  0  0  0
    9.4524   13.8601   23.4188 C   0  0  0  0  0  0  0  0  0  0  0  0
    9.0672   13.6305   24.8529 C   0  0  0  0  0  0  0  0  0  0  0  0
    8.0851   12.5181   25.1140 C   0  0  0  0  0  0  0  0  0  0  0  0
    6.9406   12.8546   25.8476 C   0  0  0  0  0  0  0  0  0  0  0  0
    6.1207   11.8732   26.3926 C   0  0  0  0  0  0  0  0  0  0  0  0
    5.0520   12.3094   27.1591 N   0  0  0  0  0  0  0  0  0  0  0  0
    4.1723   11.5467   28.1948 C   0  0  0  0  0  0  0  0  0  0  0  0
    4.1682   10.4201   28.4987 O   0  0  0  0  0  0  0  0  0  0  0  0
    3.2213   12.6083   28.7478 C   0  0  2  0  0  0  0  0  0  0  0  0
    4.0058   13.6862   29.5323 C   0  0  0  0  0  0  0  0  0  0  0  0
    3.2708   13.8803   30.8495 C   0  0  0  0  0  0  0  0  0  0  0  0
    2.6159   12.5349   31.0881 C   0  0  0  0  0  0  0  0  0  0  0  0
    2.1124   12.1486   29.6993 C   0  0  2  0  0  0  0  0  0  0  0  0
    1.5766   10.7359   29.6574 C   0  0  0  0  0  0  0  0  0  0  0  0
    2.2975    9.8782   30.3969 F   0  0  0  0  0  0  0  0  0  0  0  0
    1.4479   10.2582   28.4041 F   0  0  0  0  0  0  0  0  0  0  0  0
    0.3272   10.7500   30.1825 F   0  0  0  0  0  0  0  0  0  0  0  0
    6.4062   10.5375   26.1656 C   0  0  0  0  0  0  0  0  0  0  0  0
    7.4943   10.1935   25.3599 C   0  0  0  0  0  0  0  0  0  0  0  0
    8.3325   11.1618   24.8253 C   0  0  0  0  0  0  0  0  0  0  0  0
    9.4457   10.6962   24.0995 N   0  0  0  0  0  0  0  0  0  0  0  0
  1  2  2  0
  2  3  1  0
  3  4  1  0
  4  5  1  0
  5  6  1  0
  6  7  2  0
  7  8  1  0
  8  9  1  0
  9 10  1  0
 10 11  2  0
 12 10  1  1
 12 13  1  0
 13 14  1  0
 14 15  1  0
 15 16  1  0
 16 17  1  1
 17 18  1  0
 17 19  1  0
 17 20  1  0
  8 21  2  0
 21 22  1  0
 22 23  2  0
 23 24  1  0
 24  2  1  0
 23  6  1  0
 16 12  1  0
M  END
>  <energy_score>  (1503) 
-28.646585

>  <inchikey>  (1503) 
None

>  <smiles>  (1503) 
None

>  <ref_pdb>  (1503) 
A0310a

>  <alias>  (1503) 
None

>  <HIPPO Pose ID>  (1503) 
499147

>  <name>  (1503) 
P499147

>  <HIPPO Compound ID>  (1503) 
301729

>  <ref_mols>  (1503) 
A1445a,A0310a

>  <distance_score>  (1503) 
1.905712

>  <inspiration_score>  (1503) 
None

$$$$
P499148
     RDKit          3D

 24 26  0  0  0  0  0  0  0  0999 V2000
   10.5740   10.0993   22.1754 O   0  0  0  0  0  0  0  0  0  0  0  0
   10.1019   10.9681   22.9030 C   0  0  0  0  0  0  0  0  0  0  0  0
   10.4556   12.4167   22.8105 C   0  0  0  0  0  0  0  0  0  0  0  0
   10.0392   13.2977   23.9645 C   0  0  0  0  0  0  0  0  0  0  0  0
    8.5257   13.4676   24.0593 C   0  0  0  0  0  0  0  0  0  0  0  0
    7.8815   12.3306   24.7958 C   0  0  0  0  0  0  0  0  0  0  0  0
    6.7668   12.5942   25.6426 C   0  0  0  0  0  0  0  0  0  0  0  0
    6.2636   11.5798   26.4385 C   0  0  0  0  0  0  0  0  0  0  0  0
    5.1014   11.5250   27.1708 N   0  0  0  0  0  0  0  0  0  0  0  0
    4.7779   10.7778   28.4988 C   0  0  0  0  0  0  0  0  0  0  0  0
    5.4726   10.1609   29.2097 O   0  0  0  0  0  0  0  0  0  0  0  0
    3.2758   10.8662   28.7373 C   0  0  1  0  0  0  0  0  0  0  0  0
    2.7813    9.4720   28.2667 C   0  0  0  0  0  0  0  0  0  0  0  0
    2.8857    8.5575   29.4977 C   0  0  0  0  0  0  0  0  0  0  0  0
    3.1095    9.4750   30.7048 C   0  0  0  0  0  0  0  0  0  0  0  0
    2.8391   10.8846   30.1937 C   0  0  2  0  0  0  0  0  0  0  0  0
    1.3482   11.1555   30.2914 C   0  0  0  0  0  0  0  0  0  0  0  0
    0.9729   11.2655   31.5803 F   0  0  0  0  0  0  0  0  0  0  0  0
    0.6063   10.1730   29.7350 F   0  0  0  0  0  0  0  0  0  0  0  0
    1.0291   12.3023   29.6572 F   0  0  0  0  0  0  0  0  0  0  0  0
    6.7909   10.3073   26.3310 C   0  0  0  0  0  0  0  0  0  0  0  0
    7.7342   10.0161   25.3899 C   0  0  0  0  0  0  0  0  0  0  0  0
    8.3078   11.0090   24.6415 C   0  0  0  0  0  0  0  0  0  0  0  0
    9.2331   10.4752   23.7732 N   0  0  0  0  0  0  0  0  0  0  0  0
  1  2  2  0
  2  3  1  0
  3  4  1  0
  4  5  1  0
  5  6  1  0
  6  7  2  0
  7  8  1  0
  8  9  1  0
  9 10  1  0
 10 11  2  0
 12 10  1  1
 12 13  1  0
 13 14  1  0
 14 15  1  0
 15 16  1  0
 16 17  1  6
 17 18  1  0
 17 19  1  0
 17 20  1  0
  8 21  2  0
 21 22  1  0
 22 23  2  0
 23 24  1  0
 24  2  1  0
 23  6  1  0
 16 12  1  0
M  END
>  <energy_score>  (1504) 
-2.843914

>  <inchikey>  (1504) 
None

>  <smiles>  (1504) 
None

>  <ref_pdb>  (1504) 
A0310a

>  <alias>  (1504) 
None

>  <HIPPO Pose ID>  (1504) 
499148

>  <name>  (1504) 
P499148

>  <HIPPO Compound ID>  (1504) 
301729

>  <ref_mols>  (1504) 
A1445a,A0310a

>  <distance_score>  (1504) 
1.785767

>  <inspiration_score>  (1504) 
None

$$$$
P499149
     RDKit          3D

 24 26  0  0  0  0  0  0  0  0999 V2000
   10.4734    9.8901   22.2146 O   0  0  0  0  0  0  0  0  0  0  0  0
   10.0594   10.7806   22.9565 C   0  0  0  0  0  0  0  0  0  0  0  0
   10.5076   12.2044   22.8353 C   0  0  0  0  0  0  0  0  0  0  0  0
   10.2917   13.0992   24.0260 C   0  0  0  0  0  0  0  0  0  0  0  0
    8.8254   13.4489   24.2027 C   0  0  0  0  0  0  0  0  0  0  0  0
    8.0397   12.3677   24.8805 C   0  0  0  0  0  0  0  0  0  0  0  0
    6.9968   12.7713   25.7507 C   0  0  0  0  0  0  0  0  0  0  0  0
    6.2516   11.8350   26.4623 C   0  0  0  0  0  0  0  0  0  0  0  0
    5.2768   12.2177   27.3667 N   0  0  0  0  0  0  0  0  0  0  0  0
    4.4878   11.3810   28.4160 C   0  0  0  0  0  0  0  0  0  0  0  0
    4.4870   10.2306   28.6211 O   0  0  0  0  0  0  0  0  0  0  0  0
    3.5757   12.3368   29.1667 C   0  0  2  0  0  0  0  0  0  0  0  0
    4.3374   13.4872   29.8511 C   0  0  0  0  0  0  0  0  0  0  0  0
    3.8547   13.5260   31.2964 C   0  0  0  0  0  0  0  0  0  0  0  0
    2.5593   12.7372   31.2852 C   0  0  0  0  0  0  0  0  0  0  0  0
    2.8518   11.6050   30.3094 C   0  0  1  0  0  0  0  0  0  0  0  0
    1.5996   10.8635   29.8894 C   0  0  0  0  0  0  0  0  0  0  0  0
    0.9589   10.3907   30.9813 F   0  0  0  0  0  0  0  0  0  0  0  0
    1.8439    9.8178   29.0790 F   0  0  0  0  0  0  0  0  0  0  0  0
    0.7505   11.6862   29.2354 F   0  0  0  0  0  0  0  0  0  0  0  0
    6.4940   10.4911   26.2724 C   0  0  0  0  0  0  0  0  0  0  0  0
    7.4691   10.0974   25.3802 C   0  0  0  0  0  0  0  0  0  0  0  0
    8.2534   11.0044   24.6888 C   0  0  0  0  0  0  0  0  0  0  0  0
    9.1438   10.3692   23.8364 N   0  0  0  0  0  0  0  0  0  0  0  0
  1  2  2  0
  2  3  1  0
  3  4  1  0
  4  5  1  0
  5  6  1  0
  6  7  2  0
  7  8  1  0
  8  9  1  0
  9 10  1  0
 10 11  2  0
 12 10  1  1
 12 13  1  0
 13 14  1  0
 14 15  1  0
 15 16  1  0
 16 17  1  6
 17 18  1  0
 17 19  1  0
 17 20  1  0
  8 21  2  0
 21 22  1  0
 22 23  2  0
 23 24  1  0
 24  2  1  0
 23  6  1  0
 16 12  1  0
M  END
>  <energy_score>  (1505) 
-23.547332

>  <inchikey>  (1505) 
None

>  <smiles>  (1505) 
None

>  <ref_pdb>  (1505) 
A0310a

>  <alias>  (1505) 
None

>  <HIPPO Pose ID>  (1505) 
499149

>  <name>  (1505) 
P499149

>  <HIPPO Compound ID>  (1505) 
301729

>  <ref_mols>  (1505) 
A1445a,A0310a

>  <distance_score>  (1505) 
1.824627

>  <inspiration_score>  (1505) 
None

$$$$
P499150
     RDKit          3D

 24 26  0  0  0  0  0  0  0  0999 V2000
   10.3683   10.0767   22.5127 O   0  0  0  0  0  0  0  0  0  0  0  0
    9.8049   10.8760   23.2545 C   0  0  0  0  0  0  0  0  0  0  0  0
   10.2486   12.2903   23.4014 C   0  0  0  0  0  0  0  0  0  0  0  0
    9.0917   13.2657   23.3689 C   0  0  0  0  0  0  0  0  0  0  0  0
    8.4504   13.4645   24.7375 C   0  0  0  0  0  0  0  0  0  0  0  0
    7.7278   12.2783   25.3173 C   0  0  0  0  0  0  0  0  0  0  0  0
    6.8029   12.5364   26.3848 C   0  0  0  0  0  0  0  0  0  0  0  0
    6.0834   11.5064   27.0010 C   0  0  0  0  0  0  0  0  0  0  0  0
    5.3658   11.6022   28.1928 N   0  0  0  0  0  0  0  0  0  0  0  0
    4.9947   12.8411   29.0477 C   0  0  0  0  0  0  0  0  0  0  0  0
    5.1658   13.9778   28.8459 O   0  0  0  0  0  0  0  0  0  0  0  0
    4.4028   12.2882   30.3729 C   0  0  1  0  0  0  0  0  0  0  0  0
    4.5414   13.3747   31.4619 C   0  0  0  0  0  0  0  0  0  0  0  0
    3.2487   14.1883   31.3833 C   0  0  0  0  0  0  0  0  0  0  0  0
    2.2651   13.3309   30.5877 C   0  0  0  0  0  0  0  0  0  0  0  0
    2.9159   11.9537   30.5075 C   0  0  1  0  0  0  0  0  0  0  0  0
    2.1926   11.0226   29.5688 C   0  0  0  0  0  0  0  0  0  0  0  0
    0.9866   10.7107   30.1006 F   0  0  0  0  0  0  0  0  0  0  0  0
    2.8545    9.8573   29.4089 F   0  0  0  0  0  0  0  0  0  0  0  0
    1.9783   11.5490   28.3518 F   0  0  0  0  0  0  0  0  0  0  0  0
    6.1985   10.2375   26.4886 C   0  0  0  0  0  0  0  0  0  0  0  0
    7.0957    9.9912   25.4662 C   0  0  0  0  0  0  0  0  0  0  0  0
    7.9096   10.9593   24.9103 C   0  0  0  0  0  0  0  0  0  0  0  0
    8.7926   10.3999   23.9879 N   0  0  0  0  0  0  0  0  0  0  0  0
  1  2  2  0
  2  3  1  0
  3  4  1  0
  4  5  1  0
  5  6  1  0
  6  7  2  0
  7  8  1  0
  8  9  1  0
  9 10  1  0
 10 11  2  0
 12 10  1  6
 12 13  1  0
 13 14  1  0
 14 15  1  0
 15 16  1  0
 16 17  1  6
 17 18  1  0
 17 19  1  0
 17 20  1  0
  8 21  2  0
 21 22  1  0
 22 23  2  0
 23 24  1  0
 24  2  1  0
 23  6  1  0
 16 12  1  0
M  END
>  <energy_score>  (1506) 
-32.852055

>  <inchikey>  (1506) 
None

>  <smiles>  (1506) 
None

>  <ref_pdb>  (1506) 
A0310a

>  <alias>  (1506) 
None

>  <HIPPO Pose ID>  (1506) 
499150

>  <name>  (1506) 
P499150

>  <HIPPO Compound ID>  (1506) 
301729

>  <ref_mols>  (1506) 
A1445a,A0310a

>  <distance_score>  (1506) 
1.973784

>  <inspiration_score>  (1506) 
None

$$$$
P499151
     RDKit          3D

 24 26  0  0  0  0  0  0  0  0999 V2000
   10.4440    9.8476   22.2793 O   0  0  0  0  0  0  0  0  0  0  0  0
   10.0406   10.7093   23.0548 C   0  0  0  0  0  0  0  0  0  0  0  0
   10.6175   12.0815   23.1552 C   0  0  0  0  0  0  0  0  0  0  0  0
    9.5648   13.1614   23.0750 C   0  0  0  0  0  0  0  0  0  0  0  0
    8.9643   13.4561   24.4329 C   0  0  0  0  0  0  0  0  0  0  0  0
    8.1076   12.3682   25.0178 C   0  0  0  0  0  0  0  0  0  0  0  0
    7.1183   12.7990   25.9421 C   0  0  0  0  0  0  0  0  0  0  0  0
    6.2390   11.9029   26.5444 C   0  0  0  0  0  0  0  0  0  0  0  0
    5.2481   12.3428   27.4090 N   0  0  0  0  0  0  0  0  0  0  0  0
    4.1582   11.5476   28.1838 C   0  0  0  0  0  0  0  0  0  0  0  0
    3.8827   10.4140   28.1506 O   0  0  0  0  0  0  0  0  0  0  0  0
    3.3978   12.5807   29.0281 C   0  0  2  0  0  0  0  0  0  0  0  0
    4.3830   13.4271   29.6682 O   0  0  0  0  0  0  0  0  0  0  0  0
    4.5450   12.9720   31.0262 C   0  0  0  0  0  0  0  0  0  0  0  0
    3.6279   11.7769   31.2169 C   0  0  0  0  0  0  0  0  0  0  0  0
    2.5720   12.0297   30.1692 C   0  0  2  0  0  0  0  0  0  0  0  0
    1.6161   10.8967   29.9009 C   0  0  0  0  0  0  0  0  0  0  0  0
    0.8022   10.7570   30.9769 F   0  0  0  0  0  0  0  0  0  0  0  0
    2.1706    9.6950   29.6950 F   0  0  0  0  0  0  0  0  0  0  0  0
    0.8352   11.1946   28.8386 F   0  0  0  0  0  0  0  0  0  0  0  0
    6.3528   10.5590   26.2591 C   0  0  0  0  0  0  0  0  0  0  0  0
    7.3309   10.1331   25.3805 C   0  0  0  0  0  0  0  0  0  0  0  0
    8.2105   11.0017   24.7500 C   0  0  0  0  0  0  0  0  0  0  0  0
    9.0521   10.3266   23.8737 N   0  0  0  0  0  0  0  0  0  0  0  0
  1  2  2  0
  2  3  1  0
  3  4  1  0
  4  5  1  0
  5  6  1  0
  6  7  2  0
  7  8  1  0
  8  9  1  0
  9 10  1  0
 10 11  2  0
 12 10  1  1
 12 13  1  0
 13 14  1  0
 14 15  1  0
 15 16  1  0
 16 17  1  6
 17 18  1  0
 17 19  1  0
 17 20  1  0
  8 21  2  0
 21 22  1  0
 22 23  2  0
 23 24  1  0
 24  2  1  0
 23  6  1  0
 16 12  1  0
M  END
>  <energy_score>  (1507) 
-53.610661

>  <inchikey>  (1507) 
None

>  <smiles>  (1507) 
None

>  <ref_pdb>  (1507) 
A0310a

>  <alias>  (1507) 
None

>  <HIPPO Pose ID>  (1507) 
499151

>  <name>  (1507) 
P499151

>  <HIPPO Compound ID>  (1507) 
301730

>  <ref_mols>  (1507) 
A1445a,A0310a

>  <distance_score>  (1507) 
1.800285

>  <inspiration_score>  (1507) 
None

$$$$
P499152
     RDKit          3D

 24 26  0  0  0  0  0  0  0  0999 V2000
   10.4179    9.7683   22.2513 O   0  0  0  0  0  0  0  0  0  0  0  0
    9.9759   10.6530   22.9848 C   0  0  0  0  0  0  0  0  0  0  0  0
   10.4379   12.0768   22.8847 C   0  0  0  0  0  0  0  0  0  0  0  0
   10.2744   12.9611   24.0906 C   0  0  0  0  0  0  0  0  0  0  0  0
    8.8221   13.3136   24.3485 C   0  0  0  0  0  0  0  0  0  0  0  0
    8.0657   12.2367   25.0585 C   0  0  0  0  0  0  0  0  0  0  0  0
    7.1722   12.6242   26.0960 C   0  0  0  0  0  0  0  0  0  0  0  0
    6.4367   11.6776   26.8071 C   0  0  0  0  0  0  0  0  0  0  0  0
    5.6786   12.0109   27.9212 N   0  0  0  0  0  0  0  0  0  0  0  0
    4.9483   11.1008   28.9591 C   0  0  0  0  0  0  0  0  0  0  0  0
    4.9412    9.9359   29.0734 O   0  0  0  0  0  0  0  0  0  0  0  0
    4.0790   12.0121   29.8285 C   0  0  1  0  0  0  0  0  0  0  0  0
    4.5493   13.3793   29.8007 O   0  0  0  0  0  0  0  0  0  0  0  0
    3.4197   14.2483   29.6358 C   0  0  0  0  0  0  0  0  0  0  0  0
    2.1927   13.3879   29.8141 C   0  0  0  0  0  0  0  0  0  0  0  0
    2.6610   12.0461   29.2974 C   0  0  2  0  0  0  0  0  0  0  0  0
    1.7832   10.9045   29.7431 C   0  0  0  0  0  0  0  0  0  0  0  0
    1.7495   10.7847   31.0844 F   0  0  0  0  0  0  0  0  0  0  0  0
    2.1528    9.7228   29.2194 F   0  0  0  0  0  0  0  0  0  0  0  0
    0.5184   11.1352   29.3177 F   0  0  0  0  0  0  0  0  0  0  0  0
    6.4921   10.3626   26.4071 C   0  0  0  0  0  0  0  0  0  0  0  0
    7.3446    9.9947   25.3830 C   0  0  0  0  0  0  0  0  0  0  0  0
    8.1708   10.8883   24.7320 C   0  0  0  0  0  0  0  0  0  0  0  0
    9.0029   10.2591   23.8144 N   0  0  0  0  0  0  0  0  0  0  0  0
  1  2  2  0
  2  3  1  0
  3  4  1  0
  4  5  1  0
  5  6  1  0
  6  7  2  0
  7  8  1  0
  8  9  1  0
  9 10  1  0
 10 11  2  0
 12 10  1  6
 12 13  1  0
 13 14  1  0
 14 15  1  0
 15 16  1  0
 16 17  1  1
 17 18  1  0
 17 19  1  0
 17 20  1  0
  8 21  2  0
 21 22  1  0
 22 23  2  0
 23 24  1  0
 24  2  1  0
 23  6  1  0
 16 12  1  0
M  END
>  <energy_score>  (1508) 
-12.965667

>  <inchikey>  (1508) 
None

>  <smiles>  (1508) 
None

>  <ref_pdb>  (1508) 
A0310a

>  <alias>  (1508) 
None

>  <HIPPO Pose ID>  (1508) 
499152

>  <name>  (1508) 
P499152

>  <HIPPO Compound ID>  (1508) 
301730

>  <ref_mols>  (1508) 
A1445a,A0310a

>  <distance_score>  (1508) 
1.70329

>  <inspiration_score>  (1508) 
None

$$$$
P499153
     RDKit          3D

 24 26  0  0  0  0  0  0  0  0999 V2000
   10.4488    9.8540   22.3224 O   0  0  0  0  0  0  0  0  0  0  0  0
    9.9948   10.6803   23.1078 C   0  0  0  0  0  0  0  0  0  0  0  0
   10.4959   12.0819   23.2165 C   0  0  0  0  0  0  0  0  0  0  0  0
    9.3861   13.1066   23.1691 C   0  0  0  0  0  0  0  0  0  0  0  0
    8.7705   13.3481   24.5347 C   0  0  0  0  0  0  0  0  0  0  0  0
    7.9663   12.2189   25.1085 C   0  0  0  0  0  0  0  0  0  0  0  0
    6.9309   12.5807   26.0244 C   0  0  0  0  0  0  0  0  0  0  0  0
    6.0764   11.6250   26.5667 C   0  0  0  0  0  0  0  0  0  0  0  0
    4.9631   11.8867   27.3499 N   0  0  0  0  0  0  0  0  0  0  0  0
    4.4667   13.2181   27.9899 C   0  0  0  0  0  0  0  0  0  0  0  0
    4.9627   14.2761   28.0168 O   0  0  0  0  0  0  0  0  0  0  0  0
    3.0532   12.8853   28.5669 C   0  0  2  0  0  0  0  0  0  0  0  0
    2.3734   14.0690   28.9977 O   0  0  0  0  0  0  0  0  0  0  0  0
    2.2421   14.0572   30.4205 C   0  0  0  0  0  0  0  0  0  0  0  0
    3.1007   12.9190   30.9224 C   0  0  0  0  0  0  0  0  0  0  0  0
    3.1115   11.9437   29.7660 C   0  0  1  0  0  0  0  0  0  0  0  0
    1.9123   11.0126   29.7677 C   0  0  0  0  0  0  0  0  0  0  0  0
    1.8318   10.3353   30.9323 F   0  0  0  0  0  0  0  0  0  0  0  0
    2.0337   10.0949   28.7778 F   0  0  0  0  0  0  0  0  0  0  0  0
    0.7475   11.6537   29.5764 F   0  0  0  0  0  0  0  0  0  0  0  0
    6.2724   10.3021   26.2454 C   0  0  0  0  0  0  0  0  0  0  0  0
    7.2918    9.9539   25.3819 C   0  0  0  0  0  0  0  0  0  0  0  0
    8.1465   10.8699   24.8036 C   0  0  0  0  0  0  0  0  0  0  0  0
    9.0279   10.2456   23.9258 N   0  0  0  0  0  0  0  0  0  0  0  0
  1  2  2  0
  2  3  1  0
  3  4  1  0
  4  5  1  0
  5  6  1  0
  6  7  2  0
  7  8  1  0
  8  9  1  0
  9 10  1  0
 10 11  2  0
 12 10  1  1
 12 13  1  0
 13 14  1  0
 14 15  1  0
 15 16  1  0
 16 17  1  1
 17 18  1  0
 17 19  1  0
 17 20  1  0
  8 21  2  0
 21 22  1  0
 22 23  2  0
 23 24  1  0
 24  2  1  0
 23  6  1  0
 16 12  1  0
M  END
>  <energy_score>  (1509) 
-27.734147

>  <inchikey>  (1509) 
None

>  <smiles>  (1509) 
None

>  <ref_pdb>  (1509) 
A0310a

>  <alias>  (1509) 
None

>  <HIPPO Pose ID>  (1509) 
499153

>  <name>  (1509) 
P499153

>  <HIPPO Compound ID>  (1509) 
301730

>  <ref_mols>  (1509) 
A1445a,A0310a

>  <distance_score>  (1509) 
1.89363

>  <inspiration_score>  (1509) 
None

$$$$
P499154
     RDKit          3D

 24 26  0  0  0  0  0  0  0  0999 V2000
   10.4398    9.7602   22.2428 O   0  0  0  0  0  0  0  0  0  0  0  0
   10.0089   10.6421   22.9855 C   0  0  0  0  0  0  0  0  0  0  0  0
   10.4614   12.0682   22.8746 C   0  0  0  0  0  0  0  0  0  0  0  0
   10.2590   12.9667   24.0633 C   0  0  0  0  0  0  0  0  0  0  0  0
    8.7971   13.3156   24.2639 C   0  0  0  0  0  0  0  0  0  0  0  0
    8.0176   12.2445   24.9548 C   0  0  0  0  0  0  0  0  0  0  0  0
    7.0179   12.6556   25.8779 C   0  0  0  0  0  0  0  0  0  0  0  0
    6.2583   11.7241   26.5808 C   0  0  0  0  0  0  0  0  0  0  0  0
    5.3595   12.0994   27.5677 N   0  0  0  0  0  0  0  0  0  0  0  0
    4.6589   11.2519   28.6737 C   0  0  0  0  0  0  0  0  0  0  0  0
    4.6756   10.0993   28.8689 O   0  0  0  0  0  0  0  0  0  0  0  0
    3.9716   12.2486   29.6013 C   0  0  1  0  0  0  0  0  0  0  0  0
    3.4887   13.4373   28.9684 O   0  0  0  0  0  0  0  0  0  0  0  0
    2.3659   13.9131   29.7258 C   0  0  0  0  0  0  0  0  0  0  0  0
    2.2575   13.0141   30.9434 C   0  0  0  0  0  0  0  0  0  0  0  0
    2.8577   11.6986   30.4723 C   0  0  1  0  0  0  0  0  0  0  0  0
    1.7971   10.8494   29.7915 C   0  0  0  0  0  0  0  0  0  0  0  0
    0.7985   10.6196   30.6825 F   0  0  0  0  0  0  0  0  0  0  0  0
    2.2222    9.6398   29.3936 F   0  0  0  0  0  0  0  0  0  0  0  0
    1.2459   11.4606   28.7232 F   0  0  0  0  0  0  0  0  0  0  0  0
    6.4292   10.3862   26.3086 C   0  0  0  0  0  0  0  0  0  0  0  0
    7.3736    9.9951   25.3785 C   0  0  0  0  0  0  0  0  0  0  0  0
    8.1917   10.8853   24.7137 C   0  0  0  0  0  0  0  0  0  0  0  0
    9.0671   10.2425   23.8470 N   0  0  0  0  0  0  0  0  0  0  0  0
  1  2  2  0
  2  3  1  0
  3  4  1  0
  4  5  1  0
  5  6  1  0
  6  7  2  0
  7  8  1  0
  8  9  1  0
  9 10  1  0
 10 11  2  0
 12 10  1  6
 12 13  1  0
 13 14  1  0
 14 15  1  0
 15 16  1  0
 16 17  1  6
 17 18  1  0
 17 19  1  0
 17 20  1  0
  8 21  2  0
 21 22  1  0
 22 23  2  0
 23 24  1  0
 24  2  1  0
 23  6  1  0
 16 12  1  0
M  END
>  <energy_score>  (1510) 
-44.817578

>  <inchikey>  (1510) 
None

>  <smiles>  (1510) 
None

>  <ref_pdb>  (1510) 
A0310a

>  <alias>  (1510) 
None

>  <HIPPO Pose ID>  (1510) 
499154

>  <name>  (1510) 
P499154

>  <HIPPO Compound ID>  (1510) 
301730

>  <ref_mols>  (1510) 
A1445a,A0310a

>  <distance_score>  (1510) 
1.797254

>  <inspiration_score>  (1510) 
None

$$$$
P499155
     RDKit          3D

 24 25  0  0  0  0  0  0  0  0999 V2000
    2.3005   13.0305   30.3087 C   0  0  0  0  0  0  0  0  0  0  0  0
    3.2357   12.2142   29.4227 C   0  0  0  0  0  0  0  0  0  0  0  0
    3.2661   10.6874   29.7247 C   0  0  2  0  0  0  0  0  0  0  0  0
    4.1316    9.8509   28.7259 C   0  0  0  0  0  0  0  0  0  0  0  0
    5.4673   10.5185   28.4180 C   0  0  0  0  0  0  0  0  0  0  0  0
    5.9411   11.2900   29.1591 O   0  0  0  0  0  0  0  0  0  0  0  0
    5.9304   10.0651   26.9992 N   0  0  0  0  0  0  0  0  0  0  0  0
    6.9702   10.5210   26.2044 C   0  0  0  0  0  0  0  0  0  0  0  0
    7.5757    9.8284   25.1630 C   0  0  0  0  0  0  0  0  0  0  0  0
    8.5156   10.4304   24.3206 C   0  0  0  0  0  0  0  0  0  0  0  0
    8.6974   11.8008   24.4191 C   0  0  0  0  0  0  0  0  0  0  0  0
    8.1334   12.4885   25.4961 C   0  0  0  0  0  0  0  0  0  0  0  0
    7.3130   11.8367   26.4011 C   0  0  0  0  0  0  0  0  0  0  0  0
    8.2876   13.9676   25.6604 C   0  0  0  0  0  0  0  0  0  0  0  0
    7.2754   14.6255   24.7523 C   0  0  0  0  0  0  0  0  0  0  0  0
    7.3846   14.1343   23.3190 C   0  0  0  0  0  0  0  0  0  0  0  0
    8.7844   13.7087   22.8668 C   0  0  0  0  0  0  0  0  0  0  0  0
    9.3626   14.3708   22.0049 O   0  0  0  0  0  0  0  0  0  0  0  0
    9.3210   12.5298   23.3873 N   0  0  0  0  0  0  0  0  0  0  0  0
   10.6064   12.0574   22.9060 C   0  0  0  0  0  0  0  0  0  0  0  0
    1.8407   10.1500   29.7331 C   0  0  0  0  0  0  0  0  0  0  0  0
    1.1659   10.5532   30.8292 F   0  0  0  0  0  0  0  0  0  0  0  0
    1.8200    8.8020   29.7230 F   0  0  0  0  0  0  0  0  0  0  0  0
    1.1625   10.5740   28.6403 F   0  0  0  0  0  0  0  0  0  0  0  0
  1  2  1  0
  3  2  1  6
  3  4  1  0
  4  5  1  0
  5  6  2  0
  5  7  1  0
  7  8  1  0
  8  9  2  0
  9 10  1  0
 10 11  2  0
 11 12  1  0
 12 13  2  0
 12 14  1  0
 14 15  1  0
 15 16  1  0
 16 17  1  0
 17 18  2  0
 17 19  1  0
 19 20  1  0
  3 21  1  0
 21 22  1  0
 21 23  1  0
 21 24  1  0
 13  8  1  0
 19 11  1  0
M  END
>  <energy_score>  (1511) 
-28.428771

>  <inchikey>  (1511) 
None

>  <smiles>  (1511) 
None

>  <ref_pdb>  (1511) 
A0310a

>  <alias>  (1511) 
None

>  <HIPPO Pose ID>  (1511) 
499155

>  <name>  (1511) 
P499155

>  <HIPPO Compound ID>  (1511) 
301731

>  <ref_mols>  (1511) 
A1445a,A0310a

>  <distance_score>  (1511) 
1.5728

>  <inspiration_score>  (1511) 
None

$$$$
P499156
     RDKit          3D

 24 25  0  0  0  0  0  0  0  0999 V2000
    4.0411   11.2271   30.5423 C   0  0  0  0  0  0  0  0  0  0  0  0
    3.3915   10.0167   29.8583 C   0  0  2  0  0  0  0  0  0  0  0  0
    4.1655    9.4589   28.6469 C   0  0  2  0  0  0  0  0  0  0  0  0
    5.1890    8.6882   29.1434 F   0  0  0  0  0  0  0  0  0  0  0  0
    4.7349   10.5388   27.7195 C   0  0  0  0  0  0  0  0  0  0  0  0
    4.3445   11.6430   27.7587 O   0  0  0  0  0  0  0  0  0  0  0  0
    5.9037    9.9048   26.8899 N   0  0  0  0  0  0  0  0  0  0  0  0
    6.8415   10.4989   26.0545 C   0  0  0  0  0  0  0  0  0  0  0  0
    7.6724    9.8155   25.1687 C   0  0  0  0  0  0  0  0  0  0  0  0
    8.5834   10.4754   24.3391 C   0  0  0  0  0  0  0  0  0  0  0  0
    8.6210   11.8606   24.3653 C   0  0  0  0  0  0  0  0  0  0  0  0
    7.8913   12.5327   25.3497 C   0  0  0  0  0  0  0  0  0  0  0  0
    6.9842   11.8586   26.1535 C   0  0  0  0  0  0  0  0  0  0  0  0
    7.9957   14.0113   25.5419 C   0  0  0  0  0  0  0  0  0  0  0  0
    7.0827   14.6638   24.5387 C   0  0  0  0  0  0  0  0  0  0  0  0
    7.3631   14.1922   23.1242 C   0  0  0  0  0  0  0  0  0  0  0  0
    8.8029   13.7713   22.8111 C   0  0  0  0  0  0  0  0  0  0  0  0
    9.4517   14.4366   22.0020 O   0  0  0  0  0  0  0  0  0  0  0  0
    9.3106   12.6020   23.3811 N   0  0  0  0  0  0  0  0  0  0  0  0
   10.6000   12.1067   22.9268 C   0  0  0  0  0  0  0  0  0  0  0  0
    1.9413   10.3030   29.5363 C   0  0  0  0  0  0  0  0  0  0  0  0
    1.2711   10.6458   30.6605 F   0  0  0  0  0  0  0  0  0  0  0  0
    1.3485    9.1919   29.0430 F   0  0  0  0  0  0  0  0  0  0  0  0
    1.7606   11.2820   28.6339 F   0  0  0  0  0  0  0  0  0  0  0  0
  2  1  1  6
  2  3  1  0
  3  4  1  1
  3  5  1  0
  5  6  2  0
  5  7  1  0
  7  8  1  0
  8  9  2  0
  9 10  1  0
 10 11  2  0
 11 12  1  0
 12 13  2  0
 12 14  1  0
 14 15  1  0
 15 16  1  0
 16 17  1  0
 17 18  2  0
 17 19  1  0
 19 20  1  0
  2 21  1  0
 21 22  1  0
 21 23  1  0
 21 24  1  0
 13  8  1  0
 19 11  1  0
M  END
>  <energy_score>  (1512) 
-25.114611

>  <inchikey>  (1512) 
None

>  <smiles>  (1512) 
None

>  <ref_pdb>  (1512) 
A0310a

>  <alias>  (1512) 
None

>  <HIPPO Pose ID>  (1512) 
499156

>  <name>  (1512) 
P499156

>  <HIPPO Compound ID>  (1512) 
301734

>  <ref_mols>  (1512) 
A1445a,A0310a

>  <distance_score>  (1512) 
1.631532

>  <inspiration_score>  (1512) 
None

$$$$
P499157
     RDKit          3D

 24 25  0  0  0  0  0  0  0  0999 V2000
    3.3946   12.0996   29.9201 C   0  0  0  0  0  0  0  0  0  0  0  0
    3.1503   10.8126   29.1172 C   0  0  1  0  0  0  0  0  0  0  0  0
    4.2956    9.7809   29.1878 C   0  0  2  0  0  0  0  0  0  0  0  0
    4.4320    9.3434   30.4710 F   0  0  0  0  0  0  0  0  0  0  0  0
    5.5786   10.4768   28.6982 C   0  0  0  0  0  0  0  0  0  0  0  0
    6.0939   11.2787   29.3826 O   0  0  0  0  0  0  0  0  0  0  0  0
    5.9190   10.0192   27.2394 N   0  0  0  0  0  0  0  0  0  0  0  0
    6.8581   10.5034   26.3404 C   0  0  0  0  0  0  0  0  0  0  0  0
    7.4009    9.8146   25.2639 C   0  0  0  0  0  0  0  0  0  0  0  0
    8.3561   10.3743   24.4146 C   0  0  0  0  0  0  0  0  0  0  0  0
    8.5908   11.7297   24.5153 C   0  0  0  0  0  0  0  0  0  0  0  0
    8.0455   12.4409   25.5950 C   0  0  0  0  0  0  0  0  0  0  0  0
    7.2270   11.8115   26.5186 C   0  0  0  0  0  0  0  0  0  0  0  0
    8.2266   13.9186   25.7723 C   0  0  0  0  0  0  0  0  0  0  0  0
    7.2618   14.6107   24.8343 C   0  0  0  0  0  0  0  0  0  0  0  0
    7.4371   14.1305   23.4055 C   0  0  0  0  0  0  0  0  0  0  0  0
    8.8659   13.6916   23.0972 C   0  0  0  0  0  0  0  0  0  0  0  0
    9.6404   14.4579   22.5375 O   0  0  0  0  0  0  0  0  0  0  0  0
    9.2474   12.4132   23.4752 N   0  0  0  0  0  0  0  0  0  0  0  0
   10.5424   11.9197   23.0384 C   0  0  0  0  0  0  0  0  0  0  0  0
    1.8480   10.2089   29.5860 C   0  0  0  0  0  0  0  0  0  0  0  0
    1.8065   10.0041   30.9138 F   0  0  0  0  0  0  0  0  0  0  0  0
    1.6107    9.0375   28.9605 F   0  0  0  0  0  0  0  0  0  0  0  0
    0.8256   11.0378   29.2635 F   0  0  0  0  0  0  0  0  0  0  0  0
  2  1  1  1
  2  3  1  0
  3  4  1  1
  3  5  1  0
  5  6  2  0
  5  7  1  0
  7  8  1  0
  8  9  2  0
  9 10  1  0
 10 11  2  0
 11 12  1  0
 12 13  2  0
 12 14  1  0
 14 15  1  0
 15 16  1  0
 16 17  1  0
 17 18  2  0
 17 19  1  0
 19 20  1  0
  2 21  1  0
 21 22  1  0
 21 23  1  0
 21 24  1  0
 13  8  1  0
 19 11  1  0
M  END
>  <energy_score>  (1513) 
-19.826681

>  <inchikey>  (1513) 
None

>  <smiles>  (1513) 
None

>  <ref_pdb>  (1513) 
A0310a

>  <alias>  (1513) 
None

>  <HIPPO Pose ID>  (1513) 
499157

>  <name>  (1513) 
P499157

>  <HIPPO Compound ID>  (1513) 
301734

>  <ref_mols>  (1513) 
A1445a,A0310a

>  <distance_score>  (1513) 
1.644989

>  <inspiration_score>  (1513) 
None

$$$$
P499158
     RDKit          3D

 24 25  0  0  0  0  0  0  0  0999 V2000
    3.9190   11.4033   30.5828 C   0  0  0  0  0  0  0  0  0  0  0  0
    3.4007   10.1300   29.8994 C   0  0  2  0  0  0  0  0  0  0  0  0
    4.3188    9.6035   28.7820 C   0  0  1  0  0  0  0  0  0  0  0  0
    3.7659    8.5099   28.1920 F   0  0  0  0  0  0  0  0  0  0  0  0
    4.7757   10.6418   27.7562 C   0  0  0  0  0  0  0  0  0  0  0  0
    4.4048   11.7524   27.8099 O   0  0  0  0  0  0  0  0  0  0  0  0
    5.8231    9.9655   26.8030 N   0  0  0  0  0  0  0  0  0  0  0  0
    6.6524   10.5215   25.8349 C   0  0  0  0  0  0  0  0  0  0  0  0
    7.7008    9.8552   25.2034 C   0  0  0  0  0  0  0  0  0  0  0  0
    8.6579   10.5244   24.4379 C   0  0  0  0  0  0  0  0  0  0  0  0
    8.5234   11.8911   24.2841 C   0  0  0  0  0  0  0  0  0  0  0  0
    7.3216   12.4870   24.6533 C   0  0  0  0  0  0  0  0  0  0  0  0
    6.4425   11.8337   25.5021 C   0  0  0  0  0  0  0  0  0  0  0  0
    6.9938   13.8831   24.2321 C   0  0  0  0  0  0  0  0  0  0  0  0
    7.5379   14.8105   25.2793 C   0  0  0  0  0  0  0  0  0  0  0  0
    8.9337   14.4195   25.7233 C   0  0  0  0  0  0  0  0  0  0  0  0
    9.9071   13.8685   24.6583 C   0  0  0  0  0  0  0  0  0  0  0  0
   11.0166   14.4082   24.5677 O   0  0  0  0  0  0  0  0  0  0  0  0
    9.6000   12.7228   23.9147 N   0  0  0  0  0  0  0  0  0  0  0  0
   10.6429   12.2080   23.0458 C   0  0  0  0  0  0  0  0  0  0  0  0
    1.9546   10.3078   29.4873 C   0  0  0  0  0  0  0  0  0  0  0  0
    1.2191   10.6588   30.5726 F   0  0  0  0  0  0  0  0  0  0  0  0
    1.4299    9.1568   29.0197 F   0  0  0  0  0  0  0  0  0  0  0  0
    1.7642   11.2528   28.5499 F   0  0  0  0  0  0  0  0  0  0  0  0
  2  1  1  6
  2  3  1  0
  3  4  1  6
  3  5  1  0
  5  6  2  0
  5  7  1  0
  7  8  1  0
  8  9  2  0
  9 10  1  0
 10 11  2  0
 11 12  1  0
 12 13  2  0
 12 14  1  0
 14 15  1  0
 15 16  1  0
 16 17  1  0
 17 18  2  0
 17 19  1  0
 19 20  1  0
  2 21  1  0
 21 22  1  0
 21 23  1  0
 21 24  1  0
 13  8  1  0
 19 11  1  0
M  END
>  <energy_score>  (1514) 
-27.865196

>  <inchikey>  (1514) 
None

>  <smiles>  (1514) 
None

>  <ref_pdb>  (1514) 
A0310a

>  <alias>  (1514) 
None

>  <HIPPO Pose ID>  (1514) 
499158

>  <name>  (1514) 
P499158

>  <HIPPO Compound ID>  (1514) 
301734

>  <ref_mols>  (1514) 
A1445a,A0310a

>  <distance_score>  (1514) 
1.66608

>  <inspiration_score>  (1514) 
None

$$$$
P499159
     RDKit          3D

 24 25  0  0  0  0  0  0  0  0999 V2000
    3.3042   12.1811   29.7846 C   0  0  0  0  0  0  0  0  0  0  0  0
    3.0276   10.8577   29.0564 C   0  0  1  0  0  0  0  0  0  0  0  0
    4.1739    9.8330   29.1165 C   0  0  1  0  0  0  0  0  0  0  0  0
    3.8717    8.8045   28.2677 F   0  0  0  0  0  0  0  0  0  0  0  0
    5.4751   10.5218   28.6964 C   0  0  0  0  0  0  0  0  0  0  0  0
    5.9872   11.3114   29.3950 O   0  0  0  0  0  0  0  0  0  0  0  0
    5.8425   10.0620   27.2496 N   0  0  0  0  0  0  0  0  0  0  0  0
    6.8127   10.5298   26.3758 C   0  0  0  0  0  0  0  0  0  0  0  0
    7.3413    9.8354   25.2961 C   0  0  0  0  0  0  0  0  0  0  0  0
    8.3145   10.3726   24.4519 C   0  0  0  0  0  0  0  0  0  0  0  0
    8.5732   11.7231   24.5529 C   0  0  0  0  0  0  0  0  0  0  0  0
    8.0396   12.4429   25.6343 C   0  0  0  0  0  0  0  0  0  0  0  0
    7.2128   11.8271   26.5616 C   0  0  0  0  0  0  0  0  0  0  0  0
    8.2345   13.9201   25.8032 C   0  0  0  0  0  0  0  0  0  0  0  0
    7.2709   14.6158   24.8657 C   0  0  0  0  0  0  0  0  0  0  0  0
    7.4346   14.1267   23.4385 C   0  0  0  0  0  0  0  0  0  0  0  0
    8.8595   13.6785   23.1279 C   0  0  0  0  0  0  0  0  0  0  0  0
    9.6399   14.4403   22.5700 O   0  0  0  0  0  0  0  0  0  0  0  0
    9.2310   12.3969   23.5060 N   0  0  0  0  0  0  0  0  0  0  0  0
   10.5179   11.8913   23.0608 C   0  0  0  0  0  0  0  0  0  0  0  0
    1.7611   10.2622   29.6263 C   0  0  0  0  0  0  0  0  0  0  0  0
    1.8555   10.0639   30.9564 F   0  0  0  0  0  0  0  0  0  0  0  0
    1.4451    9.0895   29.0454 F   0  0  0  0  0  0  0  0  0  0  0  0
    0.7219   11.1014   29.4071 F   0  0  0  0  0  0  0  0  0  0  0  0
  2  1  1  1
  2  3  1  0
  3  4  1  6
  3  5  1  0
  5  6  2  0
  5  7  1  0
  7  8  1  0
  8  9  2  0
  9 10  1  0
 10 11  2  0
 11 12  1  0
 12 13  2  0
 12 14  1  0
 14 15  1  0
 15 16  1  0
 16 17  1  0
 17 18  2  0
 17 19  1  0
 19 20  1  0
  2 21  1  0
 21 22  1  0
 21 23  1  0
 21 24  1  0
 13  8  1  0
 19 11  1  0
M  END
>  <energy_score>  (1515) 
-28.961824

>  <inchikey>  (1515) 
None

>  <smiles>  (1515) 
None

>  <ref_pdb>  (1515) 
A0310a

>  <alias>  (1515) 
None

>  <HIPPO Pose ID>  (1515) 
499159

>  <name>  (1515) 
P499159

>  <HIPPO Compound ID>  (1515) 
301734

>  <ref_mols>  (1515) 
A1445a,A0310a

>  <distance_score>  (1515) 
1.657648

>  <inspiration_score>  (1515) 
None

$$$$
P499160
     RDKit          3D

 24 25  0  0  0  0  0  0  0  0999 V2000
    1.9999   13.5570   30.2892 C   0  0  0  0  0  0  0  0  0  0  0  0
    3.1775   12.7086   29.8263 C   0  0  0  0  0  0  0  0  0  0  0  0
    3.0860   11.2309   30.2483 C   0  0  2  0  0  0  0  0  0  0  0  0
    4.3961   10.4815   30.0179 C   0  0  0  0  0  0  0  0  0  0  0  0
    4.8129   10.1624   28.5904 C   0  0  0  0  0  0  0  0  0  0  0  0
    4.6476    9.1049   28.1249 O   0  0  0  0  0  0  0  0  0  0  0  0
    5.5321   11.4151   28.0148 N   0  0  0  0  0  0  0  0  0  0  0  0
    6.2484   11.5822   26.8339 C   0  0  0  0  0  0  0  0  0  0  0  0
    6.5128   12.8635   26.3915 C   0  0  0  0  0  0  0  0  0  0  0  0
    7.3172   13.0502   25.2717 C   0  0  0  0  0  0  0  0  0  0  0  0
    7.9405   11.9691   24.6141 C   0  0  0  0  0  0  0  0  0  0  0  0
    8.8106   12.2278   23.5319 N   0  0  0  0  0  0  0  0  0  0  0  0
   10.0464   11.5361   23.2945 C   0  0  0  0  0  0  0  0  0  0  0  0
   11.0150   12.6647   23.0610 C   0  0  0  0  0  0  0  0  0  0  0  0
   10.1797   13.6651   22.2926 C   0  0  0  0  0  0  0  0  0  0  0  0
    8.8000   13.4247   22.8257 C   0  0  0  0  0  0  0  0  0  0  0  0
    7.8528   14.1668   22.6217 O   0  0  0  0  0  0  0  0  0  0  0  0
    7.6845   10.6741   25.0635 C   0  0  0  0  0  0  0  0  0  0  0  0
    8.2975    9.4670   24.4226 C   0  0  0  0  0  0  0  0  0  0  0  0
    6.7962   10.5018   26.1453 C   0  0  0  0  0  0  0  0  0  0  0  0
    1.8566   10.5354   29.6795 C   0  0  0  0  0  0  0  0  0  0  0  0
    0.7648   10.9290   30.3767 F   0  0  0  0  0  0  0  0  0  0  0  0
    1.9228    9.1971   29.7908 F   0  0  0  0  0  0  0  0  0  0  0  0
    1.6488   10.8504   28.3852 F   0  0  0  0  0  0  0  0  0  0  0  0
  1  2  1  0
  3  2  1  6
  3  4  1  0
  4  5  1  0
  5  6  2  0
  5  7  1  0
  7  8  1  0
  8  9  2  0
  9 10  1  0
 10 11  2  0
 11 12  1  0
 12 13  1  0
 13 14  1  0
 14 15  1  0
 15 16  1  0
 16 17  2  0
 11 18  1  0
 18 19  1  0
 18 20  2  0
  3 21  1  0
 21 22  1  0
 21 23  1  0
 21 24  1  0
 20  8  1  0
 16 12  1  0
M  END
>  <energy_score>  (1516) 
-33.156874

>  <inchikey>  (1516) 
None

>  <smiles>  (1516) 
None

>  <ref_pdb>  (1516) 
A0310a

>  <alias>  (1516) 
None

>  <HIPPO Pose ID>  (1516) 
499160

>  <name>  (1516) 
P499160

>  <HIPPO Compound ID>  (1516) 
301735

>  <ref_mols>  (1516) 
A1445a,A0310a

>  <distance_score>  (1516) 
1.96197

>  <inspiration_score>  (1516) 
None

$$$$
P499161
     RDKit          3D

 24 25  0  0  0  0  0  0  0  0999 V2000
   12.4425   14.6751   24.9761 C   0  0  0  0  0  0  0  0  0  0  0  0
   12.5050   15.1153   23.5183 C   0  0  0  0  0  0  0  0  0  0  0  0
   12.6132   13.9725   22.5238 C   0  0  1  0  0  0  0  0  0  0  0  0
   11.7036   12.7947   22.8048 C   0  0  0  0  0  0  0  0  0  0  0  0
   10.2638   13.1279   23.0894 C   0  0  0  0  0  0  0  0  0  0  0  0
    9.7728   14.1679   22.9037 O   0  0  0  0  0  0  0  0  0  0  0  0
    9.6866   11.8474   23.7466 N   0  0  0  0  0  0  0  0  0  0  0  0
    8.4777   11.6286   24.3645 C   0  0  0  0  0  0  0  0  0  0  0  0
    8.1981   10.4021   24.9116 C   0  0  0  0  0  0  0  0  0  0  0  0
    7.1450   10.3236   25.8262 C   0  0  0  0  0  0  0  0  0  0  0  0
    6.3350   11.4104   26.2098 C   0  0  0  0  0  0  0  0  0  0  0  0
    5.3614   11.2381   27.2585 N   0  0  0  0  0  0  0  0  0  0  0  0
    4.3038   12.1525   27.6238 C   0  0  0  0  0  0  0  0  0  0  0  0
    3.4098   11.3545   28.5556 C   0  0  0  0  0  0  0  0  0  0  0  0
    4.3929   10.4830   29.2947 C   0  0  0  0  0  0  0  0  0  0  0  0
    5.5736   10.3922   28.3582 C   0  0  0  0  0  0  0  0  0  0  0  0
    6.5774    9.7580   28.6394 O   0  0  0  0  0  0  0  0  0  0  0  0
    6.5552   12.5958   25.5111 C   0  0  0  0  0  0  0  0  0  0  0  0
    5.7381   13.8261   25.6693 C   0  0  0  0  0  0  0  0  0  0  0  0
    7.6310   12.6956   24.6076 C   0  0  0  0  0  0  0  0  0  0  0  0
   12.5191   14.4818   21.1002 C   0  0  0  0  0  0  0  0  0  0  0  0
   11.3065   14.9684   20.7832 F   0  0  0  0  0  0  0  0  0  0  0  0
   12.8293   13.5277   20.1992 F   0  0  0  0  0  0  0  0  0  0  0  0
   13.4148   15.4810   20.9415 F   0  0  0  0  0  0  0  0  0  0  0  0
  1  2  1  0
  3  2  1  1
  3  4  1  0
  4  5  1  0
  5  6  2  0
  5  7  1  0
  7  8  1  0
  8  9  2  0
  9 10  1  0
 10 11  2  0
 11 12  1  0
 12 13  1  0
 13 14  1  0
 14 15  1  0
 15 16  1  0
 16 17  2  0
 11 18  1  0
 18 19  1  0
 18 20  2  0
  3 21  1  0
 21 22  1  0
 21 23  1  0
 21 24  1  0
 20  8  1  0
 16 12  1  0
M  END
>  <energy_score>  (1517) 
-41.658977

>  <inchikey>  (1517) 
None

>  <smiles>  (1517) 
None

>  <ref_pdb>  (1517) 
A0310a

>  <alias>  (1517) 
None

>  <HIPPO Pose ID>  (1517) 
499161

>  <name>  (1517) 
P499161

>  <HIPPO Compound ID>  (1517) 
301735

>  <ref_mols>  (1517) 
A1445a,A0310a

>  <distance_score>  (1517) 
1.87472

>  <inspiration_score>  (1517) 
None

$$$$
P499162
     RDKit          3D

 24 26  0  0  0  0  0  0  0  0999 V2000
    4.3604    7.7635   29.9316 N   0  0  0  0  0  0  0  0  0  0  0  0
    4.2146    8.8285   29.5000 C   0  0  0  0  0  0  0  0  0  0  0  0
    4.0717   10.1611   29.0007 C   0  0  1  0  0  0  0  0  0  0  0  0
    5.3326   10.8227   28.5362 C   0  0  0  0  0  0  0  0  0  0  0  0
    5.7168   11.7381   29.1540 O   0  0  0  0  0  0  0  0  0  0  0  0
    5.8649   10.2065   27.2077 N   0  0  0  0  0  0  0  0  0  0  0  0
    6.8767   10.6338   26.3581 C   0  0  0  0  0  0  0  0  0  0  0  0
    7.4119    9.8740   25.3180 C   0  0  0  0  0  0  0  0  0  0  0  0
    8.3998   10.3504   24.4547 C   0  0  0  0  0  0  0  0  0  0  0  0
    8.6669   11.6966   24.5061 C   0  0  0  0  0  0  0  0  0  0  0  0
    8.1539   12.4751   25.5457 C   0  0  0  0  0  0  0  0  0  0  0  0
    7.2990   11.9295   26.4903 C   0  0  0  0  0  0  0  0  0  0  0  0
    8.4097   13.9454   25.6238 C   0  0  0  0  0  0  0  0  0  0  0  0
    7.4272   14.5976   24.6859 C   0  0  0  0  0  0  0  0  0  0  0  0
    7.5579   14.0892   23.2592 C   0  0  0  0  0  0  0  0  0  0  0  0
    8.8822   13.4419   22.8363 C   0  0  0  0  0  0  0  0  0  0  0  0
    9.4964   13.8270   21.8490 O   0  0  0  0  0  0  0  0  0  0  0  0
    9.3263   12.3020   23.4477 N   0  0  0  0  0  0  0  0  0  0  0  0
    2.8847   10.6449   28.1905 C   0  0  0  0  0  0  0  0  0  0  0  0
    2.9375   10.9961   29.6318 C   0  0  1  0  0  0  0  0  0  0  0  0
    1.7583   10.5172   30.3806 C   0  0  0  0  0  0  0  0  0  0  0  0
    1.9506   10.5819   31.7073 F   0  0  0  0  0  0  0  0  0  0  0  0
    1.4336    9.2497   30.0435 F   0  0  0  0  0  0  0  0  0  0  0  0
    0.7024   11.2987   30.0572 F   0  0  0  0  0  0  0  0  0  0  0  0
  1  2  3  0
  3  2  1  1
  3  4  1  0
  4  5  2  0
  4  6  1  0
  6  7  1  0
  7  8  2  0
  8  9  1  0
  9 10  2  0
 10 11  1  0
 11 12  2  0
 11 13  1  0
 13 14  1  0
 14 15  1  0
 15 16  1  0
 16 17  2  0
 16 18  1  0
  3 19  1  0
 19 20  1  0
 20 21  1  1
 21 22  1  0
 21 23  1  0
 21 24  1  0
 20  3  1  0
 12  7  1  0
 18 10  1  0
M  END
>  <energy_score>  (1518) 
-23.806685

>  <inchikey>  (1518) 
None

>  <smiles>  (1518) 
None

>  <ref_pdb>  (1518) 
A0310a

>  <alias>  (1518) 
None

>  <HIPPO Pose ID>  (1518) 
499162

>  <name>  (1518) 
P499162

>  <HIPPO Compound ID>  (1518) 
301736

>  <ref_mols>  (1518) 
A1445a,A0310a

>  <distance_score>  (1518) 
1.784688

>  <inspiration_score>  (1518) 
None

$$$$
P499163
     RDKit          3D

 24 25  0  0  0  0  0  0  0  0999 V2000
    3.5106   11.7938   30.1820 C   0  0  0  0  0  0  0  0  0  0  0  0
    2.9310   10.7852   29.1613 C   0  0  2  0  0  0  0  0  0  0  0  0
    1.6930   10.1723   29.7924 C   0  0  0  0  0  0  0  0  0  0  0  0
    1.9559    9.5915   30.9766 F   0  0  0  0  0  0  0  0  0  0  0  0
    1.1078    9.2599   28.9917 F   0  0  0  0  0  0  0  0  0  0  0  0
    0.7692   11.1403   30.0035 F   0  0  0  0  0  0  0  0  0  0  0  0
    4.0339    9.8088   28.5272 C   0  0  0  0  0  0  0  0  0  0  0  0
    3.3836    8.6192   27.8007 C   0  0  0  0  0  0  0  0  0  0  0  0
    4.9803    9.2614   29.6015 C   0  0  0  0  0  0  0  0  0  0  0  0
    4.8525   10.7206   27.5379 C   0  0  0  0  0  0  0  0  0  0  0  0
    4.5944   11.8638   27.5400 O   0  0  0  0  0  0  0  0  0  0  0  0
    5.9663    9.9382   26.7759 N   0  0  0  0  0  0  0  0  0  0  0  0
    7.0023   10.3982   25.9719 C   0  0  0  0  0  0  0  0  0  0  0  0
    7.7572    9.6625   25.0598 C   0  0  0  0  0  0  0  0  0  0  0  0
    8.7128   10.2565   24.2292 C   0  0  0  0  0  0  0  0  0  0  0  0
    8.8340   11.6288   24.2781 C   0  0  0  0  0  0  0  0  0  0  0  0
    8.2006   12.3499   25.2851 C   0  0  0  0  0  0  0  0  0  0  0  0
    7.2778   11.7355   26.1049 C   0  0  0  0  0  0  0  0  0  0  0  0
    8.3944   13.8196   25.4642 C   0  0  0  0  0  0  0  0  0  0  0  0
    7.4479   14.4985   24.5151 C   0  0  0  0  0  0  0  0  0  0  0  0
    7.6823   14.0675   23.0778 C   0  0  0  0  0  0  0  0  0  0  0  0
    9.0482   13.4698   22.7009 C   0  0  0  0  0  0  0  0  0  0  0  0
    9.7134   13.9386   21.7851 O   0  0  0  0  0  0  0  0  0  0  0  0
    9.4934   12.3050   23.2638 N   0  0  0  0  0  0  0  0  0  0  0  0
  2  1  1  1
  2  3  1  0
  3  4  1  0
  3  5  1  0
  3  6  1  0
  2  7  1  0
  7  8  1  0
  7  9  1  0
  7 10  1  0
 10 11  2  0
 10 12  1  0
 12 13  1  0
 13 14  2  0
 14 15  1  0
 15 16  2  0
 16 17  1  0
 17 18  2  0
 17 19  1  0
 19 20  1  0
 20 21  1  0
 21 22  1  0
 22 23  2  0
 22 24  1  0
 18 13  1  0
 24 16  1  0
M  END
>  <energy_score>  (1519) 
-26.703165

>  <inchikey>  (1519) 
None

>  <smiles>  (1519) 
None

>  <ref_pdb>  (1519) 
A0310a

>  <alias>  (1519) 
None

>  <HIPPO Pose ID>  (1519) 
499163

>  <name>  (1519) 
P499163

>  <HIPPO Compound ID>  (1519) 
301737

>  <ref_mols>  (1519) 
A1445a,A0310a

>  <distance_score>  (1519) 
1.673638

>  <inspiration_score>  (1519) 
None

$$$$
P499164
     RDKit          3D

 24 25  0  0  0  0  0  0  0  0999 V2000
    3.5358   11.7829   30.5975 C   0  0  0  0  0  0  0  0  0  0  0  0
    3.0702   11.0614   29.3169 C   0  0  0  0  0  0  0  0  0  0  0  0
    2.7146   12.1377   28.2636 C   0  0  0  0  0  0  0  0  0  0  0  0
    4.1167   10.0397   28.7345 C   0  0  2  0  0  0  0  0  0  0  0  0
    4.4452    9.0283   29.6759 O   0  0  0  0  0  0  0  0  0  0  0  0
    5.4088   10.7779   28.2821 C   0  0  0  0  0  0  0  0  0  0  0  0
    5.7589   11.7399   28.8530 O   0  0  0  0  0  0  0  0  0  0  0  0
    5.9845   10.0971   26.9939 N   0  0  0  0  0  0  0  0  0  0  0  0
    7.0012   10.5028   26.1379 C   0  0  0  0  0  0  0  0  0  0  0  0
    7.6069    9.7503   25.1352 C   0  0  0  0  0  0  0  0  0  0  0  0
    8.5788   10.2796   24.2788 C   0  0  0  0  0  0  0  0  0  0  0  0
    8.7931   11.6391   24.3320 C   0  0  0  0  0  0  0  0  0  0  0  0
    8.2522   12.3908   25.3697 C   0  0  0  0  0  0  0  0  0  0  0  0
    7.3809   11.8140   26.2717 C   0  0  0  0  0  0  0  0  0  0  0  0
    8.4813   13.8619   25.4982 C   0  0  0  0  0  0  0  0  0  0  0  0
    7.4849   14.5237   24.5857 C   0  0  0  0  0  0  0  0  0  0  0  0
    7.6414   14.0666   23.1452 C   0  0  0  0  0  0  0  0  0  0  0  0
    8.9789   13.4432   22.7159 C   0  0  0  0  0  0  0  0  0  0  0  0
    9.5997   13.8715   21.7507 O   0  0  0  0  0  0  0  0  0  0  0  0
    9.4320   12.2835   23.2849 N   0  0  0  0  0  0  0  0  0  0  0  0
    1.7764   10.3272   29.6654 C   0  0  0  0  0  0  0  0  0  0  0  0
    1.8725    9.5860   30.7841 F   0  0  0  0  0  0  0  0  0  0  0  0
    1.3884    9.5179   28.6535 F   0  0  0  0  0  0  0  0  0  0  0  0
    0.7671   11.2100   29.8613 F   0  0  0  0  0  0  0  0  0  0  0  0
  1  2  1  0
  2  3  1  0
  2  4  1  0
  4  5  1  1
  4  6  1  0
  6  7  2  0
  6  8  1  0
  8  9  1  0
  9 10  2  0
 10 11  1  0
 11 12  2  0
 12 13  1  0
 13 14  2  0
 13 15  1  0
 15 16  1  0
 16 17  1  0
 17 18  1  0
 18 19  2  0
 18 20  1  0
  2 21  1  0
 21 22  1  0
 21 23  1  0
 21 24  1  0
 14  9  1  0
 20 12  1  0
M  END
>  <energy_score>  (1520) 
-21.426833

>  <inchikey>  (1520) 
None

>  <smiles>  (1520) 
None

>  <ref_pdb>  (1520) 
A0310a

>  <alias>  (1520) 
None

>  <HIPPO Pose ID>  (1520) 
499164

>  <name>  (1520) 
P499164

>  <HIPPO Compound ID>  (1520) 
301738

>  <ref_mols>  (1520) 
A1445a,A0310a

>  <distance_score>  (1520) 
1.65634

>  <inspiration_score>  (1520) 
None

$$$$
P499165
     RDKit          3D

 24 25  0  0  0  0  0  0  0  0999 V2000
    3.3670   12.1120   29.6865 C   0  0  0  0  0  0  0  0  0  0  0  0
    3.3640   10.5916   29.9912 C   0  0  0  0  0  0  0  0  0  0  0  0
    3.8592   10.3745   31.4346 C   0  0  0  0  0  0  0  0  0  0  0  0
    4.2629    9.7423   29.0140 C   0  0  1  0  0  0  0  0  0  0  0  0
    3.5395    9.3036   27.8706 O   0  0  0  0  0  0  0  0  0  0  0  0
    5.5590   10.4961   28.5804 C   0  0  0  0  0  0  0  0  0  0  0  0
    6.0328   11.3280   29.2551 O   0  0  0  0  0  0  0  0  0  0  0  0
    5.9531   10.0079   27.1490 N   0  0  0  0  0  0  0  0  0  0  0  0
    6.9084   10.4915   26.2623 C   0  0  0  0  0  0  0  0  0  0  0  0
    7.4820    9.7756   25.2135 C   0  0  0  0  0  0  0  0  0  0  0  0
    8.4568   10.3111   24.3713 C   0  0  0  0  0  0  0  0  0  0  0  0
    8.6770   11.6644   24.4550 C   0  0  0  0  0  0  0  0  0  0  0  0
    8.1210   12.4043   25.5002 C   0  0  0  0  0  0  0  0  0  0  0  0
    7.2738   11.8047   26.4188 C   0  0  0  0  0  0  0  0  0  0  0  0
    8.3439   13.8766   25.6252 C   0  0  0  0  0  0  0  0  0  0  0  0
    7.3966   14.5516   24.6676 C   0  0  0  0  0  0  0  0  0  0  0  0
    7.5742   14.0796   23.2344 C   0  0  0  0  0  0  0  0  0  0  0  0
    8.9178   13.4578   22.8376 C   0  0  0  0  0  0  0  0  0  0  0  0
    9.5699   13.8801   21.8908 O   0  0  0  0  0  0  0  0  0  0  0  0
    9.3524   12.3055   23.4290 N   0  0  0  0  0  0  0  0  0  0  0  0
    1.8974   10.1649   29.8994 C   0  0  0  0  0  0  0  0  0  0  0  0
    1.1517   10.7467   30.8648 F   0  0  0  0  0  0  0  0  0  0  0  0
    1.7363    8.8340   30.0111 F   0  0  0  0  0  0  0  0  0  0  0  0
    1.3678   10.5449   28.7062 F   0  0  0  0  0  0  0  0  0  0  0  0
  1  2  1  0
  2  3  1  0
  2  4  1  0
  4  5  1  6
  4  6  1  0
  6  7  2  0
  6  8  1  0
  8  9  1  0
  9 10  2  0
 10 11  1  0
 11 12  2  0
 12 13  1  0
 13 14  2  0
 13 15  1  0
 15 16  1  0
 16 17  1  0
 17 18  1  0
 18 19  2  0
 18 20  1  0
  2 21  1  0
 21 22  1  0
 21 23  1  0
 21 24  1  0
 14  9  1  0
 20 12  1  0
M  END
>  <energy_score>  (1521) 
-7.971411

>  <inchikey>  (1521) 
None

>  <smiles>  (1521) 
None

>  <ref_pdb>  (1521) 
A0310a

>  <alias>  (1521) 
None

>  <HIPPO Pose ID>  (1521) 
499165

>  <name>  (1521) 
P499165

>  <HIPPO Compound ID>  (1521) 
301738

>  <ref_mols>  (1521) 
A1445a,A0310a

>  <distance_score>  (1521) 
1.736817

>  <inspiration_score>  (1521) 
None

$$$$
P499166
     RDKit          3D

 24 26  0  0  0  0  0  0  0  0999 V2000
   10.3763    9.6361   22.3513 O   0  0  0  0  0  0  0  0  0  0  0  0
    9.9560   10.5132   23.1013 C   0  0  0  0  0  0  0  0  0  0  0  0
   10.5547   11.8809   23.1706 C   0  0  0  0  0  0  0  0  0  0  0  0
    9.5273   12.9811   23.0948 C   0  0  0  0  0  0  0  0  0  0  0  0
    8.9814   13.3118   24.4643 C   0  0  0  0  0  0  0  0  0  0  0  0
    8.1180   12.2631   25.0959 C   0  0  0  0  0  0  0  0  0  0  0  0
    7.2029   12.7407   26.0738 C   0  0  0  0  0  0  0  0  0  0  0  0
    6.2721   11.9026   26.6798 C   0  0  0  0  0  0  0  0  0  0  0  0
    5.3629   12.4045   27.5994 N   0  0  0  0  0  0  0  0  0  0  0  0
    4.0967   11.7692   28.2028 C   0  0  0  0  0  0  0  0  0  0  0  0
    3.5751   10.7563   27.9664 O   0  0  0  0  0  0  0  0  0  0  0  0
    3.5095   12.6283   29.2950 C   0  0  2  0  0  0  0  0  0  0  0  0
    3.4276   14.1109   29.0308 C   0  0  0  0  0  0  0  0  0  0  0  0
    4.6972   14.5858   28.8855 F   0  0  0  0  0  0  0  0  0  0  0  0
    3.8122   12.1418   30.7127 C   0  0  0  0  0  0  0  0  0  0  0  0
    2.3982   12.0788   30.2019 C   0  0  2  0  0  0  0  0  0  0  0  0
    1.6382   10.8234   29.9603 C   0  0  0  0  0  0  0  0  0  0  0  0
    0.7838   10.6374   30.9949 F   0  0  0  0  0  0  0  0  0  0  0  0
    2.3823    9.7041   29.8728 F   0  0  0  0  0  0  0  0  0  0  0  0
    0.8938   10.9470   28.8374 F   0  0  0  0  0  0  0  0  0  0  0  0
    6.2620   10.5684   26.3394 C   0  0  0  0  0  0  0  0  0  0  0  0
    7.1895   10.0968   25.4238 C   0  0  0  0  0  0  0  0  0  0  0  0
    8.1306   10.9005   24.8000 C   0  0  0  0  0  0  0  0  0  0  0  0
    8.9351   10.1828   23.9127 N   0  0  0  0  0  0  0  0  0  0  0  0
  1  2  2  0
  2  3  1  0
  3  4  1  0
  4  5  1  0
  5  6  1  0
  6  7  2  0
  7  8  1  0
  8  9  1  0
  9 10  1  0
 10 11  2  0
 10 12  1  0
 12 13  1  1
 13 14  1  0
 12 15  1  0
 15 16  1  0
 16 17  1  6
 17 18  1  0
 17 19  1  0
 17 20  1  0
  8 21  2  0
 21 22  1  0
 22 23  2  0
 23 24  1  0
 24  2  1  0
 23  6  1  0
 16 12  1  0
M  END
>  <energy_score>  (1522) 
-22.857595

>  <inchikey>  (1522) 
None

>  <smiles>  (1522) 
None

>  <ref_pdb>  (1522) 
A0310a

>  <alias>  (1522) 
None

>  <HIPPO Pose ID>  (1522) 
499166

>  <name>  (1522) 
P499166

>  <HIPPO Compound ID>  (1522) 
301739

>  <ref_mols>  (1522) 
A1445a,A0310a

>  <distance_score>  (1522) 
1.88719

>  <inspiration_score>  (1522) 
None

$$$$
P499167
     RDKit          3D

 24 26  0  0  0  0  0  0  0  0999 V2000
   10.4782    9.7760   22.1897 O   0  0  0  0  0  0  0  0  0  0  0  0
   10.0778   10.6630   22.9426 C   0  0  0  0  0  0  0  0  0  0  0  0
   10.5261   12.0908   22.8295 C   0  0  0  0  0  0  0  0  0  0  0  0
   10.3552   12.9771   24.0334 C   0  0  0  0  0  0  0  0  0  0  0  0
    8.9011   13.3428   24.2539 C   0  0  0  0  0  0  0  0  0  0  0  0
    8.1083   12.2686   24.9263 C   0  0  0  0  0  0  0  0  0  0  0  0
    7.0821   12.6837   25.8168 C   0  0  0  0  0  0  0  0  0  0  0  0
    6.2885   11.7507   26.4702 C   0  0  0  0  0  0  0  0  0  0  0  0
    5.2596   12.0980   27.3289 N   0  0  0  0  0  0  0  0  0  0  0  0
    4.2869   11.2170   28.1292 C   0  0  0  0  0  0  0  0  0  0  0  0
    4.2447   10.0603   28.2543 O   0  0  0  0  0  0  0  0  0  0  0  0
    3.2043   12.0114   28.7848 C   0  0  2  0  0  0  0  0  0  0  0  0
    2.1716   12.5924   27.8479 C   0  0  0  0  0  0  0  0  0  0  0  0
    1.4402   11.5670   27.3366 F   0  0  0  0  0  0  0  0  0  0  0  0
    3.3466   12.6821   30.1380 C   0  0  0  0  0  0  0  0  0  0  0  0
    2.7566   11.2983   30.0804 C   0  0  1  0  0  0  0  0  0  0  0  0
    1.3524   10.8714   30.2255 C   0  0  0  0  0  0  0  0  0  0  0  0
    1.0914   10.6073   31.5226 F   0  0  0  0  0  0  0  0  0  0  0  0
    1.1196    9.7461   29.5144 F   0  0  0  0  0  0  0  0  0  0  0  0
    0.4900   11.8211   29.8127 F   0  0  0  0  0  0  0  0  0  0  0  0
    6.4926   10.4086   26.2235 C   0  0  0  0  0  0  0  0  0  0  0  0
    7.4702   10.0094   25.3403 C   0  0  0  0  0  0  0  0  0  0  0  0
    8.2866   10.9060   24.6878 C   0  0  0  0  0  0  0  0  0  0  0  0
    9.1601   10.2619   23.8256 N   0  0  0  0  0  0  0  0  0  0  0  0
  1  2  2  0
  2  3  1  0
  3  4  1  0
  4  5  1  0
  5  6  1  0
  6  7  2  0
  7  8  1  0
  8  9  1  0
  9 10  1  0
 10 11  2  0
 10 12  1  0
 12 13  1  6
 13 14  1  0
 12 15  1  0
 15 16  1  0
 16 17  1  6
 17 18  1  0
 17 19  1  0
 17 20  1  0
  8 21  2  0
 21 22  1  0
 22 23  2  0
 23 24  1  0
 24  2  1  0
 23  6  1  0
 16 12  1  0
M  END
>  <energy_score>  (1523) 
-35.445171

>  <inchikey>  (1523) 
None

>  <smiles>  (1523) 
None

>  <ref_pdb>  (1523) 
A0310a

>  <alias>  (1523) 
None

>  <HIPPO Pose ID>  (1523) 
499167

>  <name>  (1523) 
P499167

>  <HIPPO Compound ID>  (1523) 
301739

>  <ref_mols>  (1523) 
A1445a,A0310a

>  <distance_score>  (1523) 
1.580054

>  <inspiration_score>  (1523) 
None

$$$$
P499168
     RDKit          3D

 24 26  0  0  0  0  0  0  0  0999 V2000
   10.5167    9.7813   22.2192 O   0  0  0  0  0  0  0  0  0  0  0  0
   10.0779   10.6730   22.9423 C   0  0  0  0  0  0  0  0  0  0  0  0
   10.5313   12.0992   22.8334 C   0  0  0  0  0  0  0  0  0  0  0  0
   10.3179   12.9977   24.0208 C   0  0  0  0  0  0  0  0  0  0  0  0
    8.8535   13.3467   24.1953 C   0  0  0  0  0  0  0  0  0  0  0  0
    8.0745   12.2765   24.8880 C   0  0  0  0  0  0  0  0  0  0  0  0
    7.0607   12.6911   25.7891 C   0  0  0  0  0  0  0  0  0  0  0  0
    6.3024   11.7567   26.4803 C   0  0  0  0  0  0  0  0  0  0  0  0
    5.3083   12.1096   27.3741 N   0  0  0  0  0  0  0  0  0  0  0  0
    4.4546   11.2421   28.3099 C   0  0  0  0  0  0  0  0  0  0  0  0
    4.5036   10.1009   28.5350 O   0  0  0  0  0  0  0  0  0  0  0  0
    3.3600   12.0266   28.9785 C   0  0  2  0  0  0  0  0  0  0  0  0
    2.5047   12.8848   28.0755 C   0  0  0  0  0  0  0  0  0  0  0  0
    3.3196   13.8110   27.4940 F   0  0  0  0  0  0  0  0  0  0  0  0
    3.4433   12.5126   30.4147 C   0  0  0  0  0  0  0  0  0  0  0  0
    2.7552   11.2031   30.1422 C   0  0  1  0  0  0  0  0  0  0  0  0
    1.3259   10.8614   30.1485 C   0  0  0  0  0  0  0  0  0  0  0  0
    0.9049   10.6481   31.4101 F   0  0  0  0  0  0  0  0  0  0  0  0
    1.1148    9.7320   29.4344 F   0  0  0  0  0  0  0  0  0  0  0  0
    0.5638   11.8299   29.6028 F   0  0  0  0  0  0  0  0  0  0  0  0
    6.5109   10.4131   26.2450 C   0  0  0  0  0  0  0  0  0  0  0  0
    7.4655   10.0141   25.3368 C   0  0  0  0  0  0  0  0  0  0  0  0
    8.2593   10.9133   24.6593 C   0  0  0  0  0  0  0  0  0  0  0  0
    9.1300   10.2739   23.7925 N   0  0  0  0  0  0  0  0  0  0  0  0
  1  2  2  0
  2  3  1  0
  3  4  1  0
  4  5  1  0
  5  6  1  0
  6  7  2  0
  7  8  1  0
  8  9  1  0
  9 10  1  0
 10 11  2  0
 10 12  1  0
 12 13  1  6
 13 14  1  0
 12 15  1  0
 15 16  1  0
 16 17  1  6
 17 18  1  0
 17 19  1  0
 17 20  1  0
  8 21  2  0
 21 22  1  0
 22 23  2  0
 23 24  1  0
 24  2  1  0
 23  6  1  0
 16 12  1  0
M  END
>  <energy_score>  (1524) 
-15.240167

>  <inchikey>  (1524) 
None

>  <smiles>  (1524) 
None

>  <ref_pdb>  (1524) 
A0310a

>  <alias>  (1524) 
None

>  <HIPPO Pose ID>  (1524) 
499168

>  <name>  (1524) 
P499168

>  <HIPPO Compound ID>  (1524) 
301739

>  <ref_mols>  (1524) 
A1445a,A0310a

>  <distance_score>  (1524) 
1.58648

>  <inspiration_score>  (1524) 
None

$$$$
P499169
     RDKit          3D

 24 25  0  0  0  0  0  0  0  0999 V2000
    3.4722   11.9414   29.8734 C   0  0  0  0  0  0  0  0  0  0  0  0
    3.4317   10.3969   29.8056 C   0  0  2  0  0  0  0  0  0  0  0  0
    3.9437    9.9218   31.0804 O   0  0  0  0  0  0  0  0  0  0  0  0
    4.2482    9.7324   28.6286 C   0  0  2  0  0  0  0  0  0  0  0  0
    4.5192    8.3566   28.8991 O   0  0  0  0  0  0  0  0  0  0  0  0
    5.5321   10.5235   28.2477 C   0  0  0  0  0  0  0  0  0  0  0  0
    5.9033   11.4288   28.8911 O   0  0  0  0  0  0  0  0  0  0  0  0
    6.0741    9.9524   26.8917 N   0  0  0  0  0  0  0  0  0  0  0  0
    7.0738   10.4223   26.0535 C   0  0  0  0  0  0  0  0  0  0  0  0
    7.7131    9.7011   25.0467 C   0  0  0  0  0  0  0  0  0  0  0  0
    8.6616   10.2811   24.2018 C   0  0  0  0  0  0  0  0  0  0  0  0
    8.8250   11.6472   24.2802 C   0  0  0  0  0  0  0  0  0  0  0  0
    8.2529   12.3652   25.3282 C   0  0  0  0  0  0  0  0  0  0  0  0
    7.3974   11.7448   26.2159 C   0  0  0  0  0  0  0  0  0  0  0  0
    8.4442   13.8385   25.4877 C   0  0  0  0  0  0  0  0  0  0  0  0
    7.4547   14.5049   24.5706 C   0  0  0  0  0  0  0  0  0  0  0  0
    7.6346   14.0744   23.1251 C   0  0  0  0  0  0  0  0  0  0  0  0
    8.9897   13.4873   22.7015 C   0  0  0  0  0  0  0  0  0  0  0  0
    9.6235   13.9586   21.7656 O   0  0  0  0  0  0  0  0  0  0  0  0
    9.4573   12.3255   23.2506 N   0  0  0  0  0  0  0  0  0  0  0  0
    1.9339   10.0515   29.6358 C   0  0  0  0  0  0  0  0  0  0  0  0
    1.2450   10.4290   30.7439 F   0  0  0  0  0  0  0  0  0  0  0  0
    1.6971    8.7428   29.4441 F   0  0  0  0  0  0  0  0  0  0  0  0
    1.3950   10.7195   28.5831 F   0  0  0  0  0  0  0  0  0  0  0  0
  2  1  1  1
  2  3  1  0
  2  4  1  0
  4  5  1  1
  4  6  1  0
  6  7  2  0
  6  8  1  0
  8  9  1  0
  9 10  2  0
 10 11  1  0
 11 12  2  0
 12 13  1  0
 13 14  2  0
 13 15  1  0
 15 16  1  0
 16 17  1  0
 17 18  1  0
 18 19  2  0
 18 20  1  0
  2 21  1  0
 21 22  1  0
 21 23  1  0
 21 24  1  0
 14  9  1  0
 20 12  1  0
M  END
>  <energy_score>  (1525) 
-144.266225

>  <inchikey>  (1525) 
None

>  <smiles>  (1525) 
None

>  <ref_pdb>  (1525) 
A0310a

>  <alias>  (1525) 
None

>  <HIPPO Pose ID>  (1525) 
499169

>  <name>  (1525) 
P499169

>  <HIPPO Compound ID>  (1525) 
301740

>  <ref_mols>  (1525) 
A1445a,A0310a

>  <distance_score>  (1525) 
1.643174

>  <inspiration_score>  (1525) 
None

$$$$
P499170
     RDKit          3D

 24 26  0  0  0  0  0  0  0  0999 V2000
   10.3978    9.7780   22.2778 O   0  0  0  0  0  0  0  0  0  0  0  0
    9.9866   10.6818   23.0053 C   0  0  0  0  0  0  0  0  0  0  0  0
   10.4705   12.0946   22.8635 C   0  0  0  0  0  0  0  0  0  0  0  0
   10.2949   13.0193   24.0363 C   0  0  0  0  0  0  0  0  0  0  0  0
    8.8439   13.4193   24.2158 C   0  0  0  0  0  0  0  0  0  0  0  0
    8.0256   12.3733   24.9092 C   0  0  0  0  0  0  0  0  0  0  0  0
    7.0083   12.8286   25.7853 C   0  0  0  0  0  0  0  0  0  0  0  0
    6.2188   11.9352   26.5057 C   0  0  0  0  0  0  0  0  0  0  0  0
    5.2858   12.3848   27.4265 N   0  0  0  0  0  0  0  0  0  0  0  0
    4.4046   11.5957   28.4403 C   0  0  0  0  0  0  0  0  0  0  0  0
    4.3895   10.4583   28.7036 O   0  0  0  0  0  0  0  0  0  0  0  0
    3.5319   12.6101   29.1691 C   0  0  2  0  0  0  0  0  0  0  0  0
    4.4073   13.4199   30.1210 C   0  0  0  0  0  0  0  0  0  0  0  0
    4.4047   12.7386   31.3875 O   0  0  0  0  0  0  0  0  0  0  0  0
    3.4186   11.6920   31.3426 C   0  0  0  0  0  0  0  0  0  0  0  0
    2.5446   12.0123   30.1588 C   0  0  2  0  0  0  0  0  0  0  0  0
    1.6228   10.8899   29.7641 C   0  0  0  0  0  0  0  0  0  0  0  0
    0.7379   10.6810   30.7688 F   0  0  0  0  0  0  0  0  0  0  0  0
    2.1945    9.7079   29.5067 F   0  0  0  0  0  0  0  0  0  0  0  0
    0.9150   11.2523   28.6685 F   0  0  0  0  0  0  0  0  0  0  0  0
    6.3963   10.5799   26.3212 C   0  0  0  0  0  0  0  0  0  0  0  0
    7.3565   10.1391   25.4314 C   0  0  0  0  0  0  0  0  0  0  0  0
    8.1827   11.0010   24.7292 C   0  0  0  0  0  0  0  0  0  0  0  0
    9.0499   10.3170   23.8855 N   0  0  0  0  0  0  0  0  0  0  0  0
  1  2  2  0
  2  3  1  0
  3  4  1  0
  4  5  1  0
  5  6  1  0
  6  7  2  0
  7  8  1  0
  8  9  1  0
  9 10  1  0
 10 11  2  0
 12 10  1  1
 12 13  1  0
 13 14  1  0
 14 15  1  0
 15 16  1  0
 16 17  1  6
 17 18  1  0
 17 19  1  0
 17 20  1  0
  8 21  2  0
 21 22  1  0
 22 23  2  0
 23 24  1  0
 24  2  1  0
 23  6  1  0
 16 12  1  0
M  END
>  <energy_score>  (1526) 
-46.981139

>  <inchikey>  (1526) 
None

>  <smiles>  (1526) 
None

>  <ref_pdb>  (1526) 
A0310a

>  <alias>  (1526) 
None

>  <HIPPO Pose ID>  (1526) 
499170

>  <name>  (1526) 
P499170

>  <HIPPO Compound ID>  (1526) 
301741

>  <ref_mols>  (1526) 
A1445a,A0310a

>  <distance_score>  (1526) 
1.705522

>  <inspiration_score>  (1526) 
None

$$$$
P499171
     RDKit          3D

 24 26  0  0  0  0  0  0  0  0999 V2000
   10.4791   10.0541   22.3493 O   0  0  0  0  0  0  0  0  0  0  0  0
    9.9763   10.8662   23.1190 C   0  0  0  0  0  0  0  0  0  0  0  0
   10.4517   12.2678   23.2755 C   0  0  0  0  0  0  0  0  0  0  0  0
    9.3083   13.2593   23.2743 C   0  0  0  0  0  0  0  0  0  0  0  0
    8.7076   13.4496   24.6600 C   0  0  0  0  0  0  0  0  0  0  0  0
    7.9697   12.2675   25.2307 C   0  0  0  0  0  0  0  0  0  0  0  0
    7.0567   12.5362   26.2994 C   0  0  0  0  0  0  0  0  0  0  0  0
    6.2708   11.5266   26.8509 C   0  0  0  0  0  0  0  0  0  0  0  0
    5.4029   11.6332   27.9275 N   0  0  0  0  0  0  0  0  0  0  0  0
    5.1202   12.8277   28.8820 C   0  0  0  0  0  0  0  0  0  0  0  0
    5.5180   13.9243   28.8585 O   0  0  0  0  0  0  0  0  0  0  0  0
    4.1115   12.2668   29.9026 C   0  0  1  0  0  0  0  0  0  0  0  0
    3.9197   13.1886   31.0969 C   0  0  0  0  0  0  0  0  0  0  0  0
    2.6379   13.8128   30.9643 O   0  0  0  0  0  0  0  0  0  0  0  0
    2.1120   13.4955   29.6776 C   0  0  0  0  0  0  0  0  0  0  0  0
    2.7309   12.1816   29.2644 C   0  0  2  0  0  0  0  0  0  0  0  0
    1.8936   11.0194   29.7518 C   0  0  0  0  0  0  0  0  0  0  0  0
    1.7754   10.9598   31.0882 F   0  0  0  0  0  0  0  0  0  0  0  0
    2.4336    9.8487   29.3356 F   0  0  0  0  0  0  0  0  0  0  0  0
    0.6572   11.0822   29.2112 F   0  0  0  0  0  0  0  0  0  0  0  0
    6.3543   10.2599   26.3219 C   0  0  0  0  0  0  0  0  0  0  0  0
    7.2858    9.9835   25.3440 C   0  0  0  0  0  0  0  0  0  0  0  0
    8.1176   10.9468   24.8047 C   0  0  0  0  0  0  0  0  0  0  0  0
    8.9777   10.3906   23.8680 N   0  0  0  0  0  0  0  0  0  0  0  0
  1  2  2  0
  2  3  1  0
  3  4  1  0
  4  5  1  0
  5  6  1  0
  6  7  2  0
  7  8  1  0
  8  9  1  0
  9 10  1  0
 10 11  2  0
 12 10  1  6
 12 13  1  0
 13 14  1  0
 14 15  1  0
 15 16  1  0
 16 17  1  1
 17 18  1  0
 17 19  1  0
 17 20  1  0
  8 21  2  0
 21 22  1  0
 22 23  2  0
 23 24  1  0
 24  2  1  0
 23  6  1  0
 16 12  1  0
M  END
>  <energy_score>  (1527) 
-40.975755

>  <inchikey>  (1527) 
None

>  <smiles>  (1527) 
None

>  <ref_pdb>  (1527) 
A0310a

>  <alias>  (1527) 
None

>  <HIPPO Pose ID>  (1527) 
499171

>  <name>  (1527) 
P499171

>  <HIPPO Compound ID>  (1527) 
301741

>  <ref_mols>  (1527) 
A1445a,A0310a

>  <distance_score>  (1527) 
1.802519

>  <inspiration_score>  (1527) 
None

$$$$
P499172
     RDKit          3D

 24 26  0  0  0  0  0  0  0  0999 V2000
   10.4211    9.8206   22.2590 O   0  0  0  0  0  0  0  0  0  0  0  0
    9.9996   10.6729   23.0347 C   0  0  0  0  0  0  0  0  0  0  0  0
   10.5683   12.0503   23.1465 C   0  0  0  0  0  0  0  0  0  0  0  0
    9.5142   13.1284   23.0486 C   0  0  0  0  0  0  0  0  0  0  0  0
    8.8906   13.4318   24.3932 C   0  0  0  0  0  0  0  0  0  0  0  0
    8.0639   12.3335   24.9997 C   0  0  0  0  0  0  0  0  0  0  0  0
    7.0973   12.7506   25.9530 C   0  0  0  0  0  0  0  0  0  0  0  0
    6.3080   11.8310   26.6372 C   0  0  0  0  0  0  0  0  0  0  0  0
    5.4010   12.2273   27.6029 N   0  0  0  0  0  0  0  0  0  0  0  0
    4.6000   11.3883   28.6418 C   0  0  0  0  0  0  0  0  0  0  0  0
    4.6441   10.2470   28.8886 O   0  0  0  0  0  0  0  0  0  0  0  0
    3.6424   12.3256   29.3408 C   0  0  2  0  0  0  0  0  0  0  0  0
    4.3682   13.3783   30.1624 C   0  0  0  0  0  0  0  0  0  0  0  0
    3.5934   13.6117   31.3436 O   0  0  0  0  0  0  0  0  0  0  0  0
    2.4501   12.7489   31.3032 C   0  0  0  0  0  0  0  0  0  0  0  0
    2.8326   11.6014   30.4042 C   0  0  1  0  0  0  0  0  0  0  0  0
    1.6226   10.8562   29.9114 C   0  0  0  0  0  0  0  0  0  0  0  0
    0.9037   10.4031   30.9607 F   0  0  0  0  0  0  0  0  0  0  0  0
    1.9285    9.7963   29.1409 F   0  0  0  0  0  0  0  0  0  0  0  0
    0.8238   11.6627   29.1786 F   0  0  0  0  0  0  0  0  0  0  0  0
    6.4352   10.4897   26.3547 C   0  0  0  0  0  0  0  0  0  0  0  0
    7.3515   10.0855   25.4080 C   0  0  0  0  0  0  0  0  0  0  0  0
    8.1855   10.9668   24.7413 C   0  0  0  0  0  0  0  0  0  0  0  0
    9.0113   10.2911   23.8502 N   0  0  0  0  0  0  0  0  0  0  0  0
  1  2  2  0
  2  3  1  0
  3  4  1  0
  4  5  1  0
  5  6  1  0
  6  7  2  0
  7  8  1  0
  8  9  1  0
  9 10  1  0
 10 11  2  0
 12 10  1  1
 12 13  1  0
 13 14  1  0
 14 15  1  0
 15 16  1  0
 16 17  1  6
 17 18  1  0
 17 19  1  0
 17 20  1  0
  8 21  2  0
 21 22  1  0
 22 23  2  0
 23 24  1  0
 24  2  1  0
 23  6  1  0
 16 12  1  0
M  END
>  <energy_score>  (1528) 
-41.467309

>  <inchikey>  (1528) 
None

>  <smiles>  (1528) 
None

>  <ref_pdb>  (1528) 
A0310a

>  <alias>  (1528) 
None

>  <HIPPO Pose ID>  (1528) 
499172

>  <name>  (1528) 
P499172

>  <HIPPO Compound ID>  (1528) 
301741

>  <ref_mols>  (1528) 
A1445a,A0310a

>  <distance_score>  (1528) 
1.664071

>  <inspiration_score>  (1528) 
None

$$$$
P499173
     RDKit          3D

 24 26  0  0  0  0  0  0  0  0999 V2000
   10.4522    9.8599   22.3232 O   0  0  0  0  0  0  0  0  0  0  0  0
    9.9969   10.6881   23.1056 C   0  0  0  0  0  0  0  0  0  0  0  0
   10.4989   12.0898   23.2132 C   0  0  0  0  0  0  0  0  0  0  0  0
    9.3905   13.1163   23.1674 C   0  0  0  0  0  0  0  0  0  0  0  0
    8.7753   13.3566   24.5333 C   0  0  0  0  0  0  0  0  0  0  0  0
    7.9687   12.2282   25.1058 C   0  0  0  0  0  0  0  0  0  0  0  0
    6.9325   12.5907   26.0207 C   0  0  0  0  0  0  0  0  0  0  0  0
    6.0797   11.6346   26.5648 C   0  0  0  0  0  0  0  0  0  0  0  0
    4.9661   11.8908   27.3514 N   0  0  0  0  0  0  0  0  0  0  0  0
    4.3978   13.2345   27.8898 C   0  0  0  0  0  0  0  0  0  0  0  0
    4.8236   14.3187   27.8168 O   0  0  0  0  0  0  0  0  0  0  0  0
    3.0254   12.8702   28.4908 C   0  0  2  0  0  0  0  0  0  0  0  0
    2.3127   14.0911   29.0619 C   0  0  0  0  0  0  0  0  0  0  0  0
    2.3957   14.0127   30.4922 O   0  0  0  0  0  0  0  0  0  0  0  0
    3.1670   12.8685   30.8480 C   0  0  0  0  0  0  0  0  0  0  0  0
    3.1097   11.9146   29.6805 C   0  0  1  0  0  0  0  0  0  0  0  0
    1.8888   11.0155   29.7632 C   0  0  0  0  0  0  0  0  0  0  0  0
    1.8424   10.3516   30.9357 F   0  0  0  0  0  0  0  0  0  0  0  0
    1.9413   10.0811   28.7798 F   0  0  0  0  0  0  0  0  0  0  0  0
    0.7335   11.6828   29.6039 F   0  0  0  0  0  0  0  0  0  0  0  0
    6.2793   10.3107   26.2474 C   0  0  0  0  0  0  0  0  0  0  0  0
    7.2973    9.9617   25.3830 C   0  0  0  0  0  0  0  0  0  0  0  0
    8.1492   10.8787   24.8020 C   0  0  0  0  0  0  0  0  0  0  0  0
    9.0301   10.2544   23.9240 N   0  0  0  0  0  0  0  0  0  0  0  0
  1  2  2  0
  2  3  1  0
  3  4  1  0
  4  5  1  0
  5  6  1  0
  6  7  2  0
  7  8  1  0
  8  9  1  0
  9 10  1  0
 10 11  2  0
 12 10  1  1
 12 13  1  0
 13 14  1  0
 14 15  1  0
 15 16  1  0
 16 17  1  1
 17 18  1  0
 17 19  1  0
 17 20  1  0
  8 21  2  0
 21 22  1  0
 22 23  2  0
 23 24  1  0
 24  2  1  0
 23  6  1  0
 16 12  1  0
M  END
>  <energy_score>  (1529) 
-33.707804

>  <inchikey>  (1529) 
None

>  <smiles>  (1529) 
None

>  <ref_pdb>  (1529) 
A0310a

>  <alias>  (1529) 
None

>  <HIPPO Pose ID>  (1529) 
499173

>  <name>  (1529) 
P499173

>  <HIPPO Compound ID>  (1529) 
301741

>  <ref_mols>  (1529) 
A1445a,A0310a

>  <distance_score>  (1529) 
1.852999

>  <inspiration_score>  (1529) 
None

$$$$
P499174
     RDKit          3D

 24 26  0  0  0  0  0  0  0  0999 V2000
    5.9458   11.5154   29.0600 O   0  0  0  0  0  0  0  0  0  0  0  0
    5.5105   10.6380   28.4185 C   0  0  0  0  0  0  0  0  0  0  0  0
    4.2176    9.9570   28.8719 C   0  0  0  0  0  0  0  0  0  0  0  0
    3.0893   10.9817   29.2151 C   0  0  0  0  0  0  0  0  0  0  0  0
    1.7878   10.2819   29.5813 C   0  0  0  0  0  0  0  0  0  0  0  0
    1.8358    9.8031   30.8433 F   0  0  0  0  0  0  0  0  0  0  0  0
    1.5443    9.2476   28.7457 F   0  0  0  0  0  0  0  0  0  0  0  0
    0.7318   11.1223   29.4951 F   0  0  0  0  0  0  0  0  0  0  0  0
    3.3680   12.1180   30.2582 C   0  0  0  0  0  0  0  0  0  0  0  0
    2.7642   13.1405   29.2833 C   0  0  0  0  0  0  0  0  0  0  0  0
    2.8925   12.1111   28.1502 C   0  0  0  0  0  0  0  0  0  0  0  0
    5.9799   10.0591   27.0470 N   0  0  0  0  0  0  0  0  0  0  0  0
    6.9783   10.4883   26.1818 C   0  0  0  0  0  0  0  0  0  0  0  0
    7.5655    9.7521   25.1562 C   0  0  0  0  0  0  0  0  0  0  0  0
    8.5362   10.2847   24.3040 C   0  0  0  0  0  0  0  0  0  0  0  0
    8.7514   11.6420   24.3696 C   0  0  0  0  0  0  0  0  0  0  0  0
    8.2071   12.3887   25.4129 C   0  0  0  0  0  0  0  0  0  0  0  0
    7.3519   11.8004   26.3261 C   0  0  0  0  0  0  0  0  0  0  0  0
    8.4267   13.8611   25.5395 C   0  0  0  0  0  0  0  0  0  0  0  0
    7.4482   14.5238   24.6068 C   0  0  0  0  0  0  0  0  0  0  0  0
    7.6240   14.0667   23.1688 C   0  0  0  0  0  0  0  0  0  0  0  0
    8.9703   13.4505   22.7628 C   0  0  0  0  0  0  0  0  0  0  0  0
    9.6263   13.8999   21.8314 O   0  0  0  0  0  0  0  0  0  0  0  0
    9.4044   12.2846   23.3300 N   0  0  0  0  0  0  0  0  0  0  0  0
  1  2  2  0
  2  3  1  0
  3  4  1  0
  4  5  1  0
  5  6  1  0
  5  7  1  0
  5  8  1  0
  4  9  1  0
  9 10  1  0
 10 11  1  0
  2 12  1  0
 12 13  1  0
 13 14  2  0
 14 15  1  0
 15 16  2  0
 16 17  1  0
 17 18  2  0
 17 19  1  0
 19 20  1  0
 20 21  1  0
 21 22  1  0
 22 23  2  0
 22 24  1  0
 11  4  1  0
 18 13  1  0
 24 16  1  0
M  END
>  <energy_score>  (1530) 
-129.89511

>  <inchikey>  (1530) 
None

>  <smiles>  (1530) 
None

>  <ref_pdb>  (1530) 
A0310a

>  <alias>  (1530) 
None

>  <HIPPO Pose ID>  (1530) 
499174

>  <name>  (1530) 
P499174

>  <HIPPO Compound ID>  (1530) 
301746

>  <ref_mols>  (1530) 
A1445a,A0310a

>  <distance_score>  (1530) 
1.693722

>  <inspiration_score>  (1530) 
None

$$$$
P499175
     RDKit          3D

 24 26  0  0  0  0  0  0  0  0999 V2000
   10.4564    9.7971   22.2266 O   0  0  0  0  0  0  0  0  0  0  0  0
   10.0241   10.6372   23.0090 C   0  0  0  0  0  0  0  0  0  0  0  0
   10.5760   12.0191   23.1483 C   0  0  0  0  0  0  0  0  0  0  0  0
    9.5004   13.0799   23.0886 C   0  0  0  0  0  0  0  0  0  0  0  0
    8.8970   13.3511   24.4507 C   0  0  0  0  0  0  0  0  0  0  0  0
    8.1195   12.2330   25.0780 C   0  0  0  0  0  0  0  0  0  0  0  0
    7.2332   12.6106   26.1295 C   0  0  0  0  0  0  0  0  0  0  0  0
    6.4907   11.6587   26.8149 C   0  0  0  0  0  0  0  0  0  0  0  0
    5.6559   11.9455   27.8810 N   0  0  0  0  0  0  0  0  0  0  0  0
    4.9932   11.0110   28.9135 C   0  0  0  0  0  0  0  0  0  0  0  0
    5.1072    9.8630   29.0756 O   0  0  0  0  0  0  0  0  0  0  0  0
    3.9748   11.7201   29.7588 C   0  0  1  0  0  0  0  0  0  0  0  0
    4.2761   11.8263   31.2374 C   0  0  0  0  0  0  0  0  0  0  0  0
    4.0578   10.5897   31.8955 O   0  0  0  0  0  0  0  0  0  0  0  0
    3.0307   12.7837   29.2049 C   0  0  0  0  0  0  0  0  0  0  0  0
    2.5754   11.3539   29.2106 C   0  0  2  0  0  0  0  0  0  0  0  0
    1.4582   10.8255   30.0059 C   0  0  0  0  0  0  0  0  0  0  0  0
    1.5825   11.0697   31.3269 F   0  0  0  0  0  0  0  0  0  0  0  0
    1.3396    9.4923   29.8285 F   0  0  0  0  0  0  0  0  0  0  0  0
    0.3133   11.3980   29.5775 F   0  0  0  0  0  0  0  0  0  0  0  0
    6.5440   10.3479   26.3961 C   0  0  0  0  0  0  0  0  0  0  0  0
    7.3855    9.9851   25.3686 C   0  0  0  0  0  0  0  0  0  0  0  0
    8.2151   10.8826   24.7331 C   0  0  0  0  0  0  0  0  0  0  0  0
    9.0187   10.2407   23.7988 N   0  0  0  0  0  0  0  0  0  0  0  0
  1  2  2  0
  2  3  1  0
  3  4  1  0
  4  5  1  0
  5  6  1  0
  6  7  2  0
  7  8  1  0
  8  9  1  0
  9 10  1  0
 10 11  2  0
 10 12  1  0
 12 13  1  1
 13 14  1  0
 12 15  1  0
 15 16  1  0
 16 17  1  1
 17 18  1  0
 17 19  1  0
 17 20  1  0
  8 21  2  0
 21 22  1  0
 22 23  2  0
 23 24  1  0
 24  2  1  0
 23  6  1  0
 16 12  1  0
M  END
>  <energy_score>  (1531) 
-20.267855

>  <inchikey>  (1531) 
None

>  <smiles>  (1531) 
None

>  <ref_pdb>  (1531) 
A0310a

>  <alias>  (1531) 
None

>  <HIPPO Pose ID>  (1531) 
499175

>  <name>  (1531) 
P499175

>  <HIPPO Compound ID>  (1531) 
301747

>  <ref_mols>  (1531) 
A1445a,A0310a

>  <distance_score>  (1531) 
1.797777

>  <inspiration_score>  (1531) 
None

$$$$
P499176
     RDKit          3D

 24 26  0  0  0  0  0  0  0  0999 V2000
   10.3887    9.7173   22.2952 O   0  0  0  0  0  0  0  0  0  0  0  0
    9.9547   10.6175   23.0146 C   0  0  0  0  0  0  0  0  0  0  0  0
   10.4415   12.0319   22.8945 C   0  0  0  0  0  0  0  0  0  0  0  0
   10.2500   12.9543   24.0660 C   0  0  0  0  0  0  0  0  0  0  0  0
    8.7924   13.3188   24.2641 C   0  0  0  0  0  0  0  0  0  0  0  0
    8.0204   12.2715   24.9999 C   0  0  0  0  0  0  0  0  0  0  0  0
    7.0945   12.7049   25.9858 C   0  0  0  0  0  0  0  0  0  0  0  0
    6.3443   11.7959   26.7333 C   0  0  0  0  0  0  0  0  0  0  0  0
    5.5498   12.2272   27.7879 N   0  0  0  0  0  0  0  0  0  0  0  0
    4.8023   11.4223   28.8767 C   0  0  0  0  0  0  0  0  0  0  0  0
    4.7998   10.2783   29.1031 O   0  0  0  0  0  0  0  0  0  0  0  0
    4.0343   12.3458   29.7746 C   0  0  1  0  0  0  0  0  0  0  0  0
    4.8463   13.0589   30.8336 C   0  0  0  0  0  0  0  0  0  0  0  0
    5.4997   12.1227   31.6757 O   0  0  0  0  0  0  0  0  0  0  0  0
    2.8856   13.1094   29.1296 C   0  0  0  0  0  0  0  0  0  0  0  0
    2.5793   12.0421   30.1471 C   0  0  1  0  0  0  0  0  0  0  0  0
    1.7712   10.8496   29.7880 C   0  0  0  0  0  0  0  0  0  0  0  0
    1.7064   10.0097   30.8424 F   0  0  0  0  0  0  0  0  0  0  0  0
    2.1976   10.1675   28.7091 F   0  0  0  0  0  0  0  0  0  0  0  0
    0.5091   11.2553   29.5121 F   0  0  0  0  0  0  0  0  0  0  0  0
    6.4339   10.4569   26.4289 C   0  0  0  0  0  0  0  0  0  0  0  0
    7.3081   10.0460   25.4353 C   0  0  0  0  0  0  0  0  0  0  0  0
    8.1365   10.9105   24.7433 C   0  0  0  0  0  0  0  0  0  0  0  0
    8.9772   10.2489   23.8539 N   0  0  0  0  0  0  0  0  0  0  0  0
  1  2  2  0
  2  3  1  0
  3  4  1  0
  4  5  1  0
  5  6  1  0
  6  7  2  0
  7  8  1  0
  8  9  1  0
  9 10  1  0
 10 11  2  0
 10 12  1  0
 12 13  1  1
 13 14  1  0
 12 15  1  0
 15 16  1  0
 16 17  1  6
 17 18  1  0
 17 19  1  0
 17 20  1  0
  8 21  2  0
 21 22  1  0
 22 23  2  0
 23 24  1  0
 24  2  1  0
 23  6  1  0
 16 12  1  0
M  END
>  <energy_score>  (1532) 
-31.580438

>  <inchikey>  (1532) 
None

>  <smiles>  (1532) 
None

>  <ref_pdb>  (1532) 
A0310a

>  <alias>  (1532) 
None

>  <HIPPO Pose ID>  (1532) 
499176

>  <name>  (1532) 
P499176

>  <HIPPO Compound ID>  (1532) 
301747

>  <ref_mols>  (1532) 
A1445a,A0310a

>  <distance_score>  (1532) 
1.705397

>  <inspiration_score>  (1532) 
None

$$$$
P499177
     RDKit          3D

 24 26  0  0  0  0  0  0  0  0999 V2000
   10.3630    9.8277   22.3861 O   0  0  0  0  0  0  0  0  0  0  0  0
    9.8770   10.7090   23.0955 C   0  0  0  0  0  0  0  0  0  0  0  0
   10.3004   12.1398   22.9641 C   0  0  0  0  0  0  0  0  0  0  0  0
   10.0135   13.0654   24.1157 C   0  0  0  0  0  0  0  0  0  0  0  0
    8.5295   13.3528   24.2876 C   0  0  0  0  0  0  0  0  0  0  0  0
    7.7882   12.2768   25.0186 C   0  0  0  0  0  0  0  0  0  0  0  0
    6.7593   12.6608   25.9355 C   0  0  0  0  0  0  0  0  0  0  0  0
    6.0386   11.7162   26.6762 C   0  0  0  0  0  0  0  0  0  0  0  0
    5.1308   12.0344   27.6883 N   0  0  0  0  0  0  0  0  0  0  0  0
    4.4639   13.3856   28.0554 C   0  0  0  0  0  0  0  0  0  0  0  0
    4.5117   14.4270   27.5185 O   0  0  0  0  0  0  0  0  0  0  0  0
    3.7031   13.3137   29.4186 C   0  0  2  0  0  0  0  0  0  0  0  0
    4.6841   13.1812   30.6466 C   0  0  0  0  0  0  0  0  0  0  0  0
    4.1410   11.7388   30.7583 C   0  0  0  0  0  0  0  0  0  0  0  0
    4.6001   10.6996   31.1735 O   0  0  0  0  0  0  0  0  0  0  0  0
    2.8529   12.1449   30.0453 C   0  0  2  0  0  0  0  0  0  0  0  0
    2.0936   11.0441   29.3892 C   0  0  0  0  0  0  0  0  0  0  0  0
    1.4479   10.3158   30.3267 F   0  0  0  0  0  0  0  0  0  0  0  0
    2.8797   10.2153   28.6759 F   0  0  0  0  0  0  0  0  0  0  0  0
    1.1675   11.5542   28.5495 F   0  0  0  0  0  0  0  0  0  0  0  0
    6.2927   10.3829   26.4481 C   0  0  0  0  0  0  0  0  0  0  0  0
    7.2475   10.0227   25.5059 C   0  0  0  0  0  0  0  0  0  0  0  0
    8.0233   10.9256   24.8050 C   0  0  0  0  0  0  0  0  0  0  0  0
    8.9242   10.2999   23.9447 N   0  0  0  0  0  0  0  0  0  0  0  0
  1  2  2  0
  2  3  1  0
  3  4  1  0
  4  5  1  0
  5  6  1  0
  6  7  2  0
  7  8  1  0
  8  9  1  0
  9 10  1  0
 10 11  2  0
 12 10  1  6
 12 13  1  0
 13 14  1  0
 14 15  2  0
 14 16  1  0
 16 17  1  6
 17 18  1  0
 17 19  1  0
 17 20  1  0
  8 21  2  0
 21 22  1  0
 22 23  2  0
 23 24  1  0
 24  2  1  0
 23  6  1  0
 16 12  1  0
M  END
>  <energy_score>  (1533) 
-10.426234

>  <inchikey>  (1533) 
None

>  <smiles>  (1533) 
None

>  <ref_pdb>  (1533) 
A0310a

>  <alias>  (1533) 
None

>  <HIPPO Pose ID>  (1533) 
499177

>  <name>  (1533) 
P499177

>  <HIPPO Compound ID>  (1533) 
301748

>  <ref_mols>  (1533) 
A1445a,A0310a

>  <distance_score>  (1533) 
1.943679

>  <inspiration_score>  (1533) 
None

$$$$
P499178
     RDKit          3D

 24 26  0  0  0  0  0  0  0  0999 V2000
   10.4387    9.8621   22.3158 O   0  0  0  0  0  0  0  0  0  0  0  0
    9.9670   10.6849   23.0940 C   0  0  0  0  0  0  0  0  0  0  0  0
   10.4749   12.0819   23.2323 C   0  0  0  0  0  0  0  0  0  0  0  0
    9.3641   13.1087   23.2186 C   0  0  0  0  0  0  0  0  0  0  0  0
    8.7705   13.3298   24.5992 C   0  0  0  0  0  0  0  0  0  0  0  0
    8.0065   12.1831   25.1956 C   0  0  0  0  0  0  0  0  0  0  0  0
    7.0962   12.5035   26.2516 C   0  0  0  0  0  0  0  0  0  0  0  0
    6.2900   11.5282   26.8319 C   0  0  0  0  0  0  0  0  0  0  0  0
    5.4255   11.6930   27.9032 N   0  0  0  0  0  0  0  0  0  0  0  0
    5.1276   12.9336   28.7685 C   0  0  0  0  0  0  0  0  0  0  0  0
    5.5047   14.0335   28.6689 O   0  0  0  0  0  0  0  0  0  0  0  0
    4.1138   12.4413   29.8763 C   0  0  1  0  0  0  0  0  0  0  0  0
    3.6551   13.4957   30.9215 C   0  0  0  0  0  0  0  0  0  0  0  0
    2.2791   13.4546   30.2566 C   0  0  0  0  0  0  0  0  0  0  0  0
    1.2750   14.1223   30.3803 O   0  0  0  0  0  0  0  0  0  0  0  0
    2.6365   12.2668   29.3772 C   0  0  2  0  0  0  0  0  0  0  0  0
    1.8715   11.0300   29.7278 C   0  0  0  0  0  0  0  0  0  0  0  0
    1.8911   10.7811   31.0530 F   0  0  0  0  0  0  0  0  0  0  0  0
    2.4080    9.9566   29.0986 F   0  0  0  0  0  0  0  0  0  0  0  0
    0.5926   11.1306   29.3165 F   0  0  0  0  0  0  0  0  0  0  0  0
    6.3438   10.2479   26.3355 C   0  0  0  0  0  0  0  0  0  0  0  0
    7.2601    9.9313   25.3544 C   0  0  0  0  0  0  0  0  0  0  0  0
    8.1229   10.8517   24.7978 C   0  0  0  0  0  0  0  0  0  0  0  0
    8.9668   10.2499   23.8705 N   0  0  0  0  0  0  0  0  0  0  0  0
  1  2  2  0
  2  3  1  0
  3  4  1  0
  4  5  1  0
  5  6  1  0
  6  7  2  0
  7  8  1  0
  8  9  1  0
  9 10  1  0
 10 11  2  0
 12 10  1  6
 12 13  1  0
 13 14  1  0
 14 15  2  0
 14 16  1  0
 16 17  1  1
 17 18  1  0
 17 19  1  0
 17 20  1  0
  8 21  2  0
 21 22  1  0
 22 23  2  0
 23 24  1  0
 24  2  1  0
 23  6  1  0
 16 12  1  0
M  END
>  <energy_score>  (1534) 
-16.459591

>  <inchikey>  (1534) 
None

>  <smiles>  (1534) 
None

>  <ref_pdb>  (1534) 
A0310a

>  <alias>  (1534) 
None

>  <HIPPO Pose ID>  (1534) 
499178

>  <name>  (1534) 
P499178

>  <HIPPO Compound ID>  (1534) 
301748

>  <ref_mols>  (1534) 
A1445a,A0310a

>  <distance_score>  (1534) 
1.838873

>  <inspiration_score>  (1534) 
None

$$$$
P499179
     RDKit          3D

 24 26  0  0  0  0  0  0  0  0999 V2000
   10.4754    9.7517   22.1861 O   0  0  0  0  0  0  0  0  0  0  0  0
   10.0731   10.6414   22.9351 C   0  0  0  0  0  0  0  0  0  0  0  0
   10.5370   12.0658   22.8270 C   0  0  0  0  0  0  0  0  0  0  0  0
   10.3274   12.9714   24.0096 C   0  0  0  0  0  0  0  0  0  0  0  0
    8.8646   13.3274   24.1782 C   0  0  0  0  0  0  0  0  0  0  0  0
    8.0804   12.2629   24.8735 C   0  0  0  0  0  0  0  0  0  0  0  0
    7.0612   12.6872   25.7630 C   0  0  0  0  0  0  0  0  0  0  0  0
    6.3007   11.7617   26.4653 C   0  0  0  0  0  0  0  0  0  0  0  0
    5.3302   12.1388   27.3760 N   0  0  0  0  0  0  0  0  0  0  0  0
    4.4102   11.2816   28.2764 C   0  0  0  0  0  0  0  0  0  0  0  0
    4.3808   10.1241   28.4473 O   0  0  0  0  0  0  0  0  0  0  0  0
    3.4048   12.1686   29.0057 C   0  0  2  0  0  0  0  0  0  0  0  0
    3.8898   13.3328   29.9077 C   0  0  0  0  0  0  0  0  0  0  0  0
    2.8306   12.8462   30.9204 C   0  0  0  0  0  0  0  0  0  0  0  0
    2.2804   13.3667   31.8641 O   0  0  0  0  0  0  0  0  0  0  0  0
    2.7845   11.4693   30.2702 C   0  0  1  0  0  0  0  0  0  0  0  0
    1.4460   10.8587   30.0486 C   0  0  0  0  0  0  0  0  0  0  0  0
    0.8663   10.5441   31.2224 F   0  0  0  0  0  0  0  0  0  0  0  0
    1.5499    9.7259   29.3177 F   0  0  0  0  0  0  0  0  0  0  0  0
    0.6369   11.7005   29.3700 F   0  0  0  0  0  0  0  0  0  0  0  0
    6.5097   10.4162   26.2505 C   0  0  0  0  0  0  0  0  0  0  0  0
    7.4688   10.0086   25.3497 C   0  0  0  0  0  0  0  0  0  0  0  0
    8.2696   10.8976   24.6661 C   0  0  0  0  0  0  0  0  0  0  0  0
    9.1451   10.2463   23.8108 N   0  0  0  0  0  0  0  0  0  0  0  0
  1  2  2  0
  2  3  1  0
  3  4  1  0
  4  5  1  0
  5  6  1  0
  6  7  2  0
  7  8  1  0
  8  9  1  0
  9 10  1  0
 10 11  2  0
 12 10  1  1
 12 13  1  0
 13 14  1  0
 14 15  2  0
 14 16  1  0
 16 17  1  6
 17 18  1  0
 17 19  1  0
 17 20  1  0
  8 21  2  0
 21 22  1  0
 22 23  2  0
 23 24  1  0
 24  2  1  0
 23  6  1  0
 16 12  1  0
M  END
>  <energy_score>  (1535) 
-13.339376

>  <inchikey>  (1535) 
None

>  <smiles>  (1535) 
None

>  <ref_pdb>  (1535) 
A0310a

>  <alias>  (1535) 
None

>  <HIPPO Pose ID>  (1535) 
499179

>  <name>  (1535) 
P499179

>  <HIPPO Compound ID>  (1535) 
301748

>  <ref_mols>  (1535) 
A1445a,A0310a

>  <distance_score>  (1535) 
1.588101

>  <inspiration_score>  (1535) 
None

$$$$
P499180
     RDKit          3D

 24 26  0  0  0  0  0  0  0  0999 V2000
   10.5001    9.9101   22.2395 O   0  0  0  0  0  0  0  0  0  0  0  0
   10.0844   10.7619   23.0181 C   0  0  0  0  0  0  0  0  0  0  0  0
   10.6310   12.1447   23.1331 C   0  0  0  0  0  0  0  0  0  0  0  0
    9.5532   13.2003   23.0461 C   0  0  0  0  0  0  0  0  0  0  0  0
    8.9181   13.4746   24.3930 C   0  0  0  0  0  0  0  0  0  0  0  0
    8.0920   12.3598   24.9709 C   0  0  0  0  0  0  0  0  0  0  0  0
    7.0747   12.7522   25.8802 C   0  0  0  0  0  0  0  0  0  0  0  0
    6.2723   11.8098   26.5134 C   0  0  0  0  0  0  0  0  0  0  0  0
    5.2580   12.1617   27.3845 N   0  0  0  0  0  0  0  0  0  0  0  0
    4.4324   11.2982   28.3652 C   0  0  0  0  0  0  0  0  0  0  0  0
    4.4263   10.1407   28.5362 O   0  0  0  0  0  0  0  0  0  0  0  0
    3.4504   12.1738   29.1364 C   0  0  2  0  0  0  0  0  0  0  0  0
    3.9630   13.2668   30.1081 C   0  0  0  0  0  0  0  0  0  0  0  0
    2.8566   12.7711   31.0677 C   0  0  0  0  0  0  0  0  0  0  0  0
    2.2921   13.2665   32.0163 O   0  0  0  0  0  0  0  0  0  0  0  0
    2.7900   11.4270   30.3518 C   0  0  1  0  0  0  0  0  0  0  0  0
    1.4440   10.8570   30.0759 C   0  0  0  0  0  0  0  0  0  0  0  0
    0.8277   10.5169   31.2239 F   0  0  0  0  0  0  0  0  0  0  0  0
    1.5364    9.7463   29.3095 F   0  0  0  0  0  0  0  0  0  0  0  0
    0.6689   11.7388   29.4079 F   0  0  0  0  0  0  0  0  0  0  0  0
    6.4617   10.4703   26.2496 C   0  0  0  0  0  0  0  0  0  0  0  0
    7.4352   10.0859   25.3571 C   0  0  0  0  0  0  0  0  0  0  0  0
    8.2573   10.9961   24.7165 C   0  0  0  0  0  0  0  0  0  0  0  0
    9.1128   10.3500   23.8369 N   0  0  0  0  0  0  0  0  0  0  0  0
  1  2  2  0
  2  3  1  0
  3  4  1  0
  4  5  1  0
  5  6  1  0
  6  7  2  0
  7  8  1  0
  8  9  1  0
  9 10  1  0
 10 11  2  0
 12 10  1  1
 12 13  1  0
 13 14  1  0
 14 15  2  0
 14 16  1  0
 16 17  1  6
 17 18  1  0
 17 19  1  0
 17 20  1  0
  8 21  2  0
 21 22  1  0
 22 23  2  0
 23 24  1  0
 24  2  1  0
 23  6  1  0
 16 12  1  0
M  END
>  <energy_score>  (1536) 
-28.296921

>  <inchikey>  (1536) 
None

>  <smiles>  (1536) 
None

>  <ref_pdb>  (1536) 
A0310a

>  <alias>  (1536) 
None

>  <HIPPO Pose ID>  (1536) 
499180

>  <name>  (1536) 
P499180

>  <HIPPO Compound ID>  (1536) 
301748

>  <ref_mols>  (1536) 
A1445a,A0310a

>  <distance_score>  (1536) 
1.728883

>  <inspiration_score>  (1536) 
None

$$$$
P499181
     RDKit          3D

 25 27  0  0  0  0  0  0  0  0999 V2000
   10.4519    9.7005   22.3442 O   0  0  0  0  0  0  0  0  0  0  0  0
   10.0108   10.5704   23.0885 C   0  0  0  0  0  0  0  0  0  0  0  0
   10.5855   11.9481   23.1682 C   0  0  0  0  0  0  0  0  0  0  0  0
    9.5403   13.0328   23.0880 C   0  0  0  0  0  0  0  0  0  0  0  0
    8.9651   13.3419   24.4506 C   0  0  0  0  0  0  0  0  0  0  0  0
    8.1112   12.2729   25.0613 C   0  0  0  0  0  0  0  0  0  0  0  0
    7.1654   12.7254   26.0203 C   0  0  0  0  0  0  0  0  0  0  0  0
    6.2628   11.8552   26.6221 C   0  0  0  0  0  0  0  0  0  0  0  0
    5.3410   12.3123   27.5524 N   0  0  0  0  0  0  0  0  0  0  0  0
    4.2244   11.5669   28.3008 C   0  0  0  0  0  0  0  0  0  0  0  0
    3.8511   10.4708   28.1996 O   0  0  0  0  0  0  0  0  0  0  0  0
    3.6389   12.4103   29.3691 C   0  0  2  0  0  0  0  0  0  0  0  0
    3.7720   11.8517   30.7760 C   0  0  1  0  0  0  0  0  0  0  0  0
    4.2068   12.7851   31.8074 N   0  0  0  0  0  0  0  0  0  0  0  0
    3.4934   12.8766   32.8085 O   0  0  0  0  0  0  0  0  0  0  0  0
    5.2551   13.3981   31.5806 O   0  0  0  0  0  0  0  0  0  0  0  0
    2.4098   12.0252   30.1713 C   0  0  2  0  0  0  0  0  0  0  0  0
    1.5463   10.8539   29.9141 C   0  0  0  0  0  0  0  0  0  0  0  0
    0.6298   10.7719   30.9042 F   0  0  0  0  0  0  0  0  0  0  0  0
    2.1909    9.6722   29.8892 F   0  0  0  0  0  0  0  0  0  0  0  0
    0.8866   11.0180   28.7474 F   0  0  0  0  0  0  0  0  0  0  0  0
    6.3025   10.5193   26.2878 C   0  0  0  0  0  0  0  0  0  0  0  0
    7.2520   10.0741   25.3858 C   0  0  0  0  0  0  0  0  0  0  0  0
    8.1683   10.9094   24.7708 C   0  0  0  0  0  0  0  0  0  0  0  0
    8.9964   10.2144   23.8924 N   0  0  0  0  0  0  0  0  0  0  0  0
  1  2  2  0
  2  3  1  0
  3  4  1  0
  4  5  1  0
  5  6  1  0
  6  7  2  0
  7  8  1  0
  8  9  1  0
  9 10  1  0
 10 11  2  0
 12 10  1  6
 12 13  1  0
 13 14  1  1
 14 15  2  0
 14 16  1  0
 13 17  1  0
 17 18  1  6
 18 19  1  0
 18 20  1  0
 18 21  1  0
  8 22  2  0
 22 23  1  0
 23 24  2  0
 24 25  1  0
 25  2  1  0
 24  6  1  0
 17 12  1  0
M  CHG  2  14   1  16  -1
M  END
>  <energy_score>  (1537) 
-60.340079

>  <inchikey>  (1537) 
None

>  <smiles>  (1537) 
None

>  <ref_pdb>  (1537) 
A0310a

>  <alias>  (1537) 
None

>  <HIPPO Pose ID>  (1537) 
499181

>  <name>  (1537) 
P499181

>  <HIPPO Compound ID>  (1537) 
301754

>  <ref_mols>  (1537) 
A1445a,A0310a

>  <distance_score>  (1537) 
1.851226

>  <inspiration_score>  (1537) 
None

$$$$
P499182
     RDKit          3D

 25 27  0  0  0  0  0  0  0  0999 V2000
   10.4404    9.8575   22.3143 O   0  0  0  0  0  0  0  0  0  0  0  0
    9.9771   10.6820   23.0958 C   0  0  0  0  0  0  0  0  0  0  0  0
   10.4837   12.0795   23.2293 C   0  0  0  0  0  0  0  0  0  0  0  0
    9.3708   13.1038   23.2130 C   0  0  0  0  0  0  0  0  0  0  0  0
    8.7766   13.3291   24.5930 C   0  0  0  0  0  0  0  0  0  0  0  0
    8.0062   12.1851   25.1865 C   0  0  0  0  0  0  0  0  0  0  0  0
    7.0679   12.5136   26.2159 C   0  0  0  0  0  0  0  0  0  0  0  0
    6.2453   11.5427   26.7788 C   0  0  0  0  0  0  0  0  0  0  0  0
    5.2979   11.7255   27.7750 N   0  0  0  0  0  0  0  0  0  0  0  0
    5.0311   12.9259   28.6855 C   0  0  0  0  0  0  0  0  0  0  0  0
    5.5106   13.9834   28.6975 O   0  0  0  0  0  0  0  0  0  0  0  0
    3.9475   12.5659   29.6495 C   0  0  1  0  0  0  0  0  0  0  0  0
    2.6764   13.3771   29.7061 C   0  0  1  0  0  0  0  0  0  0  0  0
    2.5167   14.5314   28.8073 N   0  0  0  0  0  0  0  0  0  0  0  0
    2.2157   14.2938   27.6321 O   0  0  0  0  0  0  0  0  0  0  0  0
    2.6519   15.6416   29.3270 O   0  0  0  0  0  0  0  0  0  0  0  0
    2.6399   11.9895   29.1118 C   0  0  2  0  0  0  0  0  0  0  0  0
    1.8072   10.9739   29.7761 C   0  0  0  0  0  0  0  0  0  0  0  0
    1.9820   10.9641   31.1117 F   0  0  0  0  0  0  0  0  0  0  0  0
    2.0946    9.7429   29.2992 F   0  0  0  0  0  0  0  0  0  0  0  0
    0.5096   11.2223   29.5146 F   0  0  0  0  0  0  0  0  0  0  0  0
    6.3301   10.2533   26.3084 C   0  0  0  0  0  0  0  0  0  0  0  0
    7.2720    9.9299   25.3548 C   0  0  0  0  0  0  0  0  0  0  0  0
    8.1351   10.8509   24.8011 C   0  0  0  0  0  0  0  0  0  0  0  0
    8.9846   10.2463   23.8811 N   0  0  0  0  0  0  0  0  0  0  0  0
  1  2  2  0
  2  3  1  0
  3  4  1  0
  4  5  1  0
  5  6  1  0
  6  7  2  0
  7  8  1  0
  8  9  1  0
  9 10  1  0
 10 11  2  0
 12 10  1  6
 12 13  1  0
 13 14  1  6
 14 15  2  0
 14 16  1  0
 13 17  1  0
 17 18  1  1
 18 19  1  0
 18 20  1  0
 18 21  1  0
  8 22  2  0
 22 23  1  0
 23 24  2  0
 24 25  1  0
 25  2  1  0
 24  6  1  0
 17 12  1  0
M  CHG  2  14   1  16  -1
M  END
>  <energy_score>  (1538) 
-62.062252

>  <inchikey>  (1538) 
None

>  <smiles>  (1538) 
None

>  <ref_pdb>  (1538) 
A0310a

>  <alias>  (1538) 
None

>  <HIPPO Pose ID>  (1538) 
499182

>  <name>  (1538) 
P499182

>  <HIPPO Compound ID>  (1538) 
301754

>  <ref_mols>  (1538) 
A1445a,A0310a

>  <distance_score>  (1538) 
1.898503

>  <inspiration_score>  (1538) 
None

$$$$
P499183
     RDKit          3D

 25 27  0  0  0  0  0  0  0  0999 V2000
   10.4919    9.7850   22.2578 O   0  0  0  0  0  0  0  0  0  0  0  0
   10.0386   10.6776   22.9709 C   0  0  0  0  0  0  0  0  0  0  0  0
   10.4917   12.1032   22.8591 C   0  0  0  0  0  0  0  0  0  0  0  0
   10.2859   13.0050   24.0457 C   0  0  0  0  0  0  0  0  0  0  0  0
    8.8210   13.3394   24.2508 C   0  0  0  0  0  0  0  0  0  0  0  0
    8.0759   12.2680   24.9793 C   0  0  0  0  0  0  0  0  0  0  0  0
    7.1374   12.6697   25.9666 C   0  0  0  0  0  0  0  0  0  0  0  0
    6.4347   11.7249   26.7041 C   0  0  0  0  0  0  0  0  0  0  0  0
    5.5510   12.0609   27.7155 N   0  0  0  0  0  0  0  0  0  0  0  0
    4.8845   11.1862   28.7920 C   0  0  0  0  0  0  0  0  0  0  0  0
    5.0320   10.0597   29.0471 O   0  0  0  0  0  0  0  0  0  0  0  0
    3.8130   11.8680   29.5601 C   0  0  1  0  0  0  0  0  0  0  0  0
    2.7173   12.7827   29.0796 C   0  0  1  0  0  0  0  0  0  0  0  0
    2.8078   13.4116   27.7675 N   0  0  0  0  0  0  0  0  0  0  0  0
    3.7327   14.2180   27.6245 O   0  0  0  0  0  0  0  0  0  0  0  0
    1.9790   13.0655   26.9220 O   0  0  0  0  0  0  0  0  0  0  0  0
    2.4532   11.3098   29.1152 C   0  0  2  0  0  0  0  0  0  0  0  0
    1.4493   10.7553   30.0201 C   0  0  0  0  0  0  0  0  0  0  0  0
    1.7349   11.0130   31.3108 F   0  0  0  0  0  0  0  0  0  0  0  0
    1.3414    9.4222   29.8546 F   0  0  0  0  0  0  0  0  0  0  0  0
    0.2568   11.3126   29.7307 F   0  0  0  0  0  0  0  0  0  0  0  0
    6.5725   10.3904   26.3863 C   0  0  0  0  0  0  0  0  0  0  0  0
    7.4434   10.0083   25.3883 C   0  0  0  0  0  0  0  0  0  0  0  0
    8.2309   10.9103   24.7068 C   0  0  0  0  0  0  0  0  0  0  0  0
    9.0775   10.2800   23.8085 N   0  0  0  0  0  0  0  0  0  0  0  0
  1  2  2  0
  2  3  1  0
  3  4  1  0
  4  5  1  0
  5  6  1  0
  6  7  2  0
  7  8  1  0
  8  9  1  0
  9 10  1  0
 10 11  2  0
 12 10  1  6
 12 13  1  0
 13 14  1  6
 14 15  2  0
 14 16  1  0
 13 17  1  0
 17 18  1  1
 18 19  1  0
 18 20  1  0
 18 21  1  0
  8 22  2  0
 22 23  1  0
 23 24  2  0
 24 25  1  0
 25  2  1  0
 24  6  1  0
 17 12  1  0
M  CHG  2  14   1  16  -1
M  END
>  <energy_score>  (1539) 
-56.476183

>  <inchikey>  (1539) 
None

>  <smiles>  (1539) 
None

>  <ref_pdb>  (1539) 
A0310a

>  <alias>  (1539) 
None

>  <HIPPO Pose ID>  (1539) 
499183

>  <name>  (1539) 
P499183

>  <HIPPO Compound ID>  (1539) 
301754

>  <ref_mols>  (1539) 
A1445a,A0310a

>  <distance_score>  (1539) 
1.615288

>  <inspiration_score>  (1539) 
None

$$$$
P499184
     RDKit          3D

 25 27  0  0  0  0  0  0  0  0999 V2000
   10.4926   10.0061   22.3171 O   0  0  0  0  0  0  0  0  0  0  0  0
   10.0230   10.8329   23.0922 C   0  0  0  0  0  0  0  0  0  0  0  0
   10.5106   12.2341   23.2179 C   0  0  0  0  0  0  0  0  0  0  0  0
    9.3827   13.2408   23.1748 C   0  0  0  0  0  0  0  0  0  0  0  0
    8.7572   13.4633   24.5416 C   0  0  0  0  0  0  0  0  0  0  0  0
    7.9724   12.3078   25.1013 C   0  0  0  0  0  0  0  0  0  0  0  0
    6.9557   12.6334   26.0493 C   0  0  0  0  0  0  0  0  0  0  0  0
    6.1396   11.6501   26.6018 C   0  0  0  0  0  0  0  0  0  0  0  0
    5.0897   11.8548   27.4822 N   0  0  0  0  0  0  0  0  0  0  0  0
    4.6128   13.1296   28.1830 C   0  0  0  0  0  0  0  0  0  0  0  0
    5.0688   14.1980   28.1957 O   0  0  0  0  0  0  0  0  0  0  0  0
    3.3549   12.8571   28.9376 C   0  0  2  0  0  0  0  0  0  0  0  0
    3.3530   12.8915   30.4471 C   0  0  2  0  0  0  0  0  0  0  0  0
    4.6258   13.1164   31.1521 N   0  0  0  0  0  0  0  0  0  0  0  0
    4.7425   14.2020   31.7253 O   0  0  0  0  0  0  0  0  0  0  0  0
    5.4500   12.1940   31.1481 O   0  0  0  0  0  0  0  0  0  0  0  0
    3.1346   11.5755   29.7378 C   0  0  1  0  0  0  0  0  0  0  0  0
    1.8121   10.9264   29.8365 C   0  0  0  0  0  0  0  0  0  0  0  0
    1.5143   10.6558   31.1223 F   0  0  0  0  0  0  0  0  0  0  0  0
    1.8003    9.7684   29.1414 F   0  0  0  0  0  0  0  0  0  0  0  0
    0.8440   11.7167   29.3294 F   0  0  0  0  0  0  0  0  0  0  0  0
    6.3408   10.3356   26.2432 C   0  0  0  0  0  0  0  0  0  0  0  0
    7.3447   10.0146   25.3548 C   0  0  0  0  0  0  0  0  0  0  0  0
    8.1670   10.9642   24.7752 C   0  0  0  0  0  0  0  0  0  0  0  0
    9.0513   10.3727   23.8844 N   0  0  0  0  0  0  0  0  0  0  0  0
  1  2  2  0
  2  3  1  0
  3  4  1  0
  4  5  1  0
  5  6  1  0
  6  7  2  0
  7  8  1  0
  8  9  1  0
  9 10  1  0
 10 11  2  0
 12 10  1  1
 12 13  1  0
 13 14  1  1
 14 15  2  0
 14 16  1  0
 13 17  1  0
 17 18  1  6
 18 19  1  0
 18 20  1  0
 18 21  1  0
  8 22  2  0
 22 23  1  0
 23 24  2  0
 24 25  1  0
 25  2  1  0
 24  6  1  0
 17 12  1  0
M  CHG  2  14   1  16  -1
M  END
>  <energy_score>  (1540) 
-62.432996

>  <inchikey>  (1540) 
None

>  <smiles>  (1540) 
None

>  <ref_pdb>  (1540) 
A0310a

>  <alias>  (1540) 
None

>  <HIPPO Pose ID>  (1540) 
499184

>  <name>  (1540) 
P499184

>  <HIPPO Compound ID>  (1540) 
301754

>  <ref_mols>  (1540) 
A1445a,A0310a

>  <distance_score>  (1540) 
1.825074

>  <inspiration_score>  (1540) 
None

$$$$
P499185
     RDKit          3D

 25 27  0  0  0  0  0  0  0  0999 V2000
   10.4854    9.9228   22.1763 O   0  0  0  0  0  0  0  0  0  0  0  0
   10.0894   10.8082   22.9327 C   0  0  0  0  0  0  0  0  0  0  0  0
   10.5171   12.2378   22.8198 C   0  0  0  0  0  0  0  0  0  0  0  0
   10.3621   13.0929   24.0504 C   0  0  0  0  0  0  0  0  0  0  0  0
    8.9103   13.4557   24.3075 C   0  0  0  0  0  0  0  0  0  0  0  0
    8.1159   12.3555   24.9455 C   0  0  0  0  0  0  0  0  0  0  0  0
    7.0844   12.7347   25.8438 C   0  0  0  0  0  0  0  0  0  0  0  0
    6.3135   11.7750   26.4905 C   0  0  0  0  0  0  0  0  0  0  0  0
    5.3038   12.0940   27.3826 N   0  0  0  0  0  0  0  0  0  0  0  0
    4.3190   11.1922   28.1364 C   0  0  0  0  0  0  0  0  0  0  0  0
    4.2466   10.0329   28.1887 O   0  0  0  0  0  0  0  0  0  0  0  0
    3.2548   11.9482   28.8213 C   0  0  2  0  0  0  0  0  0  0  0  0
    3.3259   12.6191   30.1658 C   0  0  2  0  0  0  0  0  0  0  0  0
    4.6602   12.8267   30.7250 N   0  0  0  0  0  0  0  0  0  0  0  0
    5.3924   13.5995   30.0981 O   0  0  0  0  0  0  0  0  0  0  0  0
    4.9313   12.2309   31.7702 O   0  0  0  0  0  0  0  0  0  0  0  0
    2.7771   11.2254   30.0798 C   0  0  1  0  0  0  0  0  0  0  0  0
    1.3626   10.8607   30.1562 C   0  0  0  0  0  0  0  0  0  0  0  0
    0.9710   10.7797   31.4407 F   0  0  0  0  0  0  0  0  0  0  0  0
    1.1419    9.6698   29.5609 F   0  0  0  0  0  0  0  0  0  0  0  0
    0.5969   11.7815   29.5319 F   0  0  0  0  0  0  0  0  0  0  0  0
    6.5385   10.4392   26.2277 C   0  0  0  0  0  0  0  0  0  0  0  0
    7.5153   10.0696   25.3335 C   0  0  0  0  0  0  0  0  0  0  0  0
    8.3098   10.9982   24.6901 C   0  0  0  0  0  0  0  0  0  0  0  0
    9.1888   10.3822   23.8172 N   0  0  0  0  0  0  0  0  0  0  0  0
  1  2  2  0
  2  3  1  0
  3  4  1  0
  4  5  1  0
  5  6  1  0
  6  7  2  0
  7  8  1  0
  8  9  1  0
  9 10  1  0
 10 11  2  0
 12 10  1  1
 12 13  1  0
 13 14  1  1
 14 15  2  0
 14 16  1  0
 13 17  1  0
 17 18  1  6
 18 19  1  0
 18 20  1  0
 18 21  1  0
  8 22  2  0
 22 23  1  0
 23 24  2  0
 24 25  1  0
 25  2  1  0
 24  6  1  0
 17 12  1  0
M  CHG  2  14   1  16  -1
M  END
>  <energy_score>  (1541) 
-37.305554

>  <inchikey>  (1541) 
None

>  <smiles>  (1541) 
None

>  <ref_pdb>  (1541) 
A0310a

>  <alias>  (1541) 
None

>  <HIPPO Pose ID>  (1541) 
499185

>  <name>  (1541) 
P499185

>  <HIPPO Compound ID>  (1541) 
301754

>  <ref_mols>  (1541) 
A1445a,A0310a

>  <distance_score>  (1541) 
1.728959

>  <inspiration_score>  (1541) 
None

$$$$
P499186
     RDKit          3D

 25 27  0  0  0  0  0  0  0  0999 V2000
   10.4899    9.8477   22.3300 O   0  0  0  0  0  0  0  0  0  0  0  0
   10.0073   10.7196   23.0482 C   0  0  0  0  0  0  0  0  0  0  0  0
   10.3659   12.1654   22.9098 C   0  0  0  0  0  0  0  0  0  0  0  0
   10.2470   13.0076   24.1515 C   0  0  0  0  0  0  0  0  0  0  0  0
    8.8040   13.3448   24.4877 C   0  0  0  0  0  0  0  0  0  0  0  0
    8.0078   12.2307   25.0957 C   0  0  0  0  0  0  0  0  0  0  0  0
    6.9594   12.5913   25.9953 C   0  0  0  0  0  0  0  0  0  0  0  0
    6.1206   11.6275   26.5475 C   0  0  0  0  0  0  0  0  0  0  0  0
    5.0437   11.8621   27.3892 N   0  0  0  0  0  0  0  0  0  0  0  0
    4.5866   13.1467   28.0863 C   0  0  0  0  0  0  0  0  0  0  0  0
    5.0809   14.1972   28.1299 O   0  0  0  0  0  0  0  0  0  0  0  0
    3.3054   12.8902   28.7992 C   0  0  2  0  0  0  0  0  0  0  0  0
    3.2666   13.1192   30.2924 C   0  0  1  0  0  0  0  0  0  0  0  0
    2.0843   13.7701   30.8631 N   0  0  0  0  0  0  0  0  0  0  0  0
    1.6088   14.7207   30.2390 O   0  0  0  0  0  0  0  0  0  0  0  0
    1.6814   13.3060   31.9323 O   0  0  0  0  0  0  0  0  0  0  0  0
    3.1435   11.7118   29.7534 C   0  0  1  0  0  0  0  0  0  0  0  0
    1.8739   10.9441   29.8096 C   0  0  0  0  0  0  0  0  0  0  0  0
    1.6116   10.5354   31.0636 F   0  0  0  0  0  0  0  0  0  0  0  0
    1.9757    9.8439   29.0270 F   0  0  0  0  0  0  0  0  0  0  0  0
    0.8353   11.6661   29.3479 F   0  0  0  0  0  0  0  0  0  0  0  0
    6.3189   10.3058   26.2151 C   0  0  0  0  0  0  0  0  0  0  0  0
    7.3396    9.9603   25.3524 C   0  0  0  0  0  0  0  0  0  0  0  0
    8.1872   10.8862   24.7797 C   0  0  0  0  0  0  0  0  0  0  0  0
    9.0867   10.2828   23.9124 N   0  0  0  0  0  0  0  0  0  0  0  0
  1  2  2  0
  2  3  1  0
  3  4  1  0
  4  5  1  0
  5  6  1  0
  6  7  2  0
  7  8  1  0
  8  9  1  0
  9 10  1  0
 10 11  2  0
 12 10  1  1
 12 13  1  0
 13 14  1  6
 14 15  2  0
 14 16  1  0
 13 17  1  0
 17 18  1  6
 18 19  1  0
 18 20  1  0
 18 21  1  0
  8 22  2  0
 22 23  1  0
 23 24  2  0
 24 25  1  0
 25  2  1  0
 24  6  1  0
 17 12  1  0
M  CHG  2  14   1  16  -1
M  END
>  <energy_score>  (1542) 
-49.054263

>  <inchikey>  (1542) 
None

>  <smiles>  (1542) 
None

>  <ref_pdb>  (1542) 
A0310a

>  <alias>  (1542) 
None

>  <HIPPO Pose ID>  (1542) 
499186

>  <name>  (1542) 
P499186

>  <HIPPO Compound ID>  (1542) 
301754

>  <ref_mols>  (1542) 
A1445a,A0310a

>  <distance_score>  (1542) 
1.82249

>  <inspiration_score>  (1542) 
None

$$$$
P499187
     RDKit          3D

 25 27  0  0  0  0  0  0  0  0999 V2000
   10.4925    9.8027   22.2016 O   0  0  0  0  0  0  0  0  0  0  0  0
   10.0695   10.6489   22.9815 C   0  0  0  0  0  0  0  0  0  0  0  0
   10.6184   12.0329   23.1145 C   0  0  0  0  0  0  0  0  0  0  0  0
    9.5490   13.0981   23.0354 C   0  0  0  0  0  0  0  0  0  0  0  0
    8.9138   13.3671   24.3814 C   0  0  0  0  0  0  0  0  0  0  0  0
    8.0976   12.2559   24.9691 C   0  0  0  0  0  0  0  0  0  0  0  0
    7.1066   12.6501   25.9114 C   0  0  0  0  0  0  0  0  0  0  0  0
    6.3314   11.7056   26.5686 C   0  0  0  0  0  0  0  0  0  0  0  0
    5.3396   12.0275   27.4773 N   0  0  0  0  0  0  0  0  0  0  0  0
    4.4882   11.1280   28.3838 C   0  0  0  0  0  0  0  0  0  0  0  0
    4.5369    9.9808   28.5680 O   0  0  0  0  0  0  0  0  0  0  0  0
    3.3926   11.8677   29.0249 C   0  0  2  0  0  0  0  0  0  0  0  0
    3.4533   12.4509   30.4087 C   0  0  1  0  0  0  0  0  0  0  0  0
    2.6548   13.6487   30.6604 N   0  0  0  0  0  0  0  0  0  0  0  0
    2.8093   14.5806   29.8656 O   0  0  0  0  0  0  0  0  0  0  0  0
    1.9304   13.6274   31.6567 O   0  0  0  0  0  0  0  0  0  0  0  0
    2.7562   11.1337   30.1986 C   0  0  1  0  0  0  0  0  0  0  0  0
    1.3142   10.8736   30.1345 C   0  0  0  0  0  0  0  0  0  0  0  0
    0.8038   10.7630   31.3724 F   0  0  0  0  0  0  0  0  0  0  0  0
    1.0883    9.7138   29.4767 F   0  0  0  0  0  0  0  0  0  0  0  0
    0.6654   11.8491   29.4681 F   0  0  0  0  0  0  0  0  0  0  0  0
    6.5101   10.3713   26.2766 C   0  0  0  0  0  0  0  0  0  0  0  0
    7.4404    9.9911   25.3388 C   0  0  0  0  0  0  0  0  0  0  0  0
    8.2502   10.8953   24.6881 C   0  0  0  0  0  0  0  0  0  0  0  0
    9.0838   10.2466   23.7893 N   0  0  0  0  0  0  0  0  0  0  0  0
  1  2  2  0
  2  3  1  0
  3  4  1  0
  4  5  1  0
  5  6  1  0
  6  7  2  0
  7  8  1  0
  8  9  1  0
  9 10  1  0
 10 11  2  0
 12 10  1  1
 12 13  1  0
 13 14  1  6
 14 15  2  0
 14 16  1  0
 13 17  1  0
 17 18  1  6
 18 19  1  0
 18 20  1  0
 18 21  1  0
  8 22  2  0
 22 23  1  0
 23 24  2  0
 24 25  1  0
 25  2  1  0
 24  6  1  0
 17 12  1  0
M  CHG  2  14   1  16  -1
M  END
>  <energy_score>  (1543) 
-63.613108

>  <inchikey>  (1543) 
None

>  <smiles>  (1543) 
None

>  <ref_pdb>  (1543) 
A0310a

>  <alias>  (1543) 
None

>  <HIPPO Pose ID>  (1543) 
499187

>  <name>  (1543) 
P499187

>  <HIPPO Compound ID>  (1543) 
301754

>  <ref_mols>  (1543) 
A1445a,A0310a

>  <distance_score>  (1543) 
1.55093

>  <inspiration_score>  (1543) 
None

$$$$
P499188
     RDKit          3D

 25 26  0  0  0  0  0  0  0  0999 V2000
    1.3258   13.1597   27.8365 C   0  0  0  0  0  0  0  0  0  0  0  0
    2.6523   12.5161   27.8573 N   0  0  0  0  0  0  0  0  0  0  0  0
    3.5988   13.4221   27.1850 C   0  0  0  0  0  0  0  0  0  0  0  0
    3.0850   12.2450   29.2473 C   0  0  0  0  0  0  0  0  0  0  0  0
    3.2138   10.7340   29.5803 C   0  0  2  0  0  0  0  0  0  0  0  0
    4.0691    9.8779   28.6034 C   0  0  0  0  0  0  0  0  0  0  0  0
    5.3994   10.5547   28.2994 C   0  0  0  0  0  0  0  0  0  0  0  0
    5.8290   11.3828   29.0076 O   0  0  0  0  0  0  0  0  0  0  0  0
    5.9250   10.0247   26.9276 N   0  0  0  0  0  0  0  0  0  0  0  0
    6.9849   10.4556   26.1420 C   0  0  0  0  0  0  0  0  0  0  0  0
    7.5928    9.7311   25.1187 C   0  0  0  0  0  0  0  0  0  0  0  0
    8.5746   10.2760   24.2896 C   0  0  0  0  0  0  0  0  0  0  0  0
    8.7814   11.6334   24.3779 C   0  0  0  0  0  0  0  0  0  0  0  0
    8.2275   12.3629   25.4297 C   0  0  0  0  0  0  0  0  0  0  0  0
    7.3691   11.7584   26.3295 C   0  0  0  0  0  0  0  0  0  0  0  0
    8.4418   13.8354   25.5734 C   0  0  0  0  0  0  0  0  0  0  0  0
    7.4676   14.5119   24.6456 C   0  0  0  0  0  0  0  0  0  0  0  0
    7.6286   14.0559   23.2054 C   0  0  0  0  0  0  0  0  0  0  0  0
    8.9747   13.4519   22.7814 C   0  0  0  0  0  0  0  0  0  0  0  0
    9.6072   13.8968   21.8315 O   0  0  0  0  0  0  0  0  0  0  0  0
    9.4324   12.2945   23.3484 N   0  0  0  0  0  0  0  0  0  0  0  0
    1.8244   10.1495   29.7344 C   0  0  0  0  0  0  0  0  0  0  0  0
    1.1808   10.7175   30.7799 F   0  0  0  0  0  0  0  0  0  0  0  0
    1.8818    8.8224   29.9782 F   0  0  0  0  0  0  0  0  0  0  0  0
    1.0584   10.3148   28.6376 F   0  0  0  0  0  0  0  0  0  0  0  0
  1  2  1  0
  2  3  1  0
  2  4  1  0
  5  4  1  6
  5  6  1  0
  6  7  1  0
  7  8  2  0
  7  9  1  0
  9 10  1  0
 10 11  2  0
 11 12  1  0
 12 13  2  0
 13 14  1  0
 14 15  2  0
 14 16  1  0
 16 17  1  0
 17 18  1  0
 18 19  1  0
 19 20  2  0
 19 21  1  0
  5 22  1  0
 22 23  1  0
 22 24  1  0
 22 25  1  0
 15 10  1  0
 21 13  1  0
M  END
>  <energy_score>  (1544) 
-23.575915

>  <inchikey>  (1544) 
None

>  <smiles>  (1544) 
None

>  <ref_pdb>  (1544) 
A0310a

>  <alias>  (1544) 
None

>  <HIPPO Pose ID>  (1544) 
499188

>  <name>  (1544) 
P499188

>  <HIPPO Compound ID>  (1544) 
301756

>  <ref_mols>  (1544) 
A1445a,A0310a

>  <distance_score>  (1544) 
1.682998

>  <inspiration_score>  (1544) 
None

$$$$
P499189
     RDKit          3D

 25 26  0  0  0  0  0  0  0  0999 V2000
    2.5146   13.9054   30.1182 C   0  0  0  0  0  0  0  0  0  0  0  0
    2.5780   12.7261   30.9888 N   0  0  0  0  0  0  0  0  0  0  0  0
    2.9787   13.1385   32.3376 C   0  0  0  0  0  0  0  0  0  0  0  0
    3.5048   11.7095   30.4651 C   0  0  0  0  0  0  0  0  0  0  0  0
    2.9922   10.9526   29.2126 C   0  0  1  0  0  0  0  0  0  0  0  0
    4.0871   10.0182   28.5991 C   0  0  0  0  0  0  0  0  0  0  0  0
    5.1114   10.9107   27.8974 C   0  0  0  0  0  0  0  0  0  0  0  0
    5.1250   12.0541   28.1509 O   0  0  0  0  0  0  0  0  0  0  0  0
    6.0216   10.0762   26.9424 N   0  0  0  0  0  0  0  0  0  0  0  0
    7.0291   10.4824   26.0711 C   0  0  0  0  0  0  0  0  0  0  0  0
    7.6832    9.7197   25.1068 C   0  0  0  0  0  0  0  0  0  0  0  0
    8.6426   10.2620   24.2417 C   0  0  0  0  0  0  0  0  0  0  0  0
    8.8284   11.6275   24.2746 C   0  0  0  0  0  0  0  0  0  0  0  0
    8.2725   12.3792   25.3011 C   0  0  0  0  0  0  0  0  0  0  0  0
    7.3890   11.8008   26.1873 C   0  0  0  0  0  0  0  0  0  0  0  0
    8.4920   13.8505   25.4379 C   0  0  0  0  0  0  0  0  0  0  0  0
    7.4924   14.5052   24.5253 C   0  0  0  0  0  0  0  0  0  0  0  0
    7.6755   14.0654   23.0828 C   0  0  0  0  0  0  0  0  0  0  0  0
    9.0201   13.4434   22.6685 C   0  0  0  0  0  0  0  0  0  0  0  0
    9.6595   13.8871   21.7223 O   0  0  0  0  0  0  0  0  0  0  0  0
    9.4640   12.2751   23.2278 N   0  0  0  0  0  0  0  0  0  0  0  0
    1.7150   10.2200   29.5623 C   0  0  0  0  0  0  0  0  0  0  0  0
    1.8091    9.5445   30.7242 F   0  0  0  0  0  0  0  0  0  0  0  0
    1.4045    9.3223   28.5962 F   0  0  0  0  0  0  0  0  0  0  0  0
    0.6645   11.0635   29.6409 F   0  0  0  0  0  0  0  0  0  0  0  0
  1  2  1  0
  2  3  1  0
  2  4  1  0
  5  4  1  1
  5  6  1  0
  6  7  1  0
  7  8  2  0
  7  9  1  0
  9 10  1  0
 10 11  2  0
 11 12  1  0
 12 13  2  0
 13 14  1  0
 14 15  2  0
 14 16  1  0
 16 17  1  0
 17 18  1  0
 18 19  1  0
 19 20  2  0
 19 21  1  0
  5 22  1  0
 22 23  1  0
 22 24  1  0
 22 25  1  0
 15 10  1  0
 21 13  1  0
M  END
>  <energy_score>  (1545) 
-35.306389

>  <inchikey>  (1545) 
None

>  <smiles>  (1545) 
None

>  <ref_pdb>  (1545) 
A0310a

>  <alias>  (1545) 
None

>  <HIPPO Pose ID>  (1545) 
499189

>  <name>  (1545) 
P499189

>  <HIPPO Compound ID>  (1545) 
301756

>  <ref_mols>  (1545) 
A1445a,A0310a

>  <distance_score>  (1545) 
1.644894

>  <inspiration_score>  (1545) 
None

$$$$
P499190
     RDKit          3D

 25 27  0  0  0  0  0  0  0  0999 V2000
    1.6011   11.6295   27.2771 O   0  0  0  0  0  0  0  0  0  0  0  0
    2.3543   11.1931   28.1344 C   0  0  0  0  0  0  0  0  0  0  0  0
    2.9299    9.7736   28.1224 C   0  0  0  0  0  0  0  0  0  0  0  0
    3.9916    9.8946   29.1957 C   0  0  1  0  0  0  0  0  0  0  0  0
    5.2651   10.6504   28.6994 C   0  0  0  0  0  0  0  0  0  0  0  0
    5.6435   11.5684   29.3232 O   0  0  0  0  0  0  0  0  0  0  0  0
    5.7717   10.0742   27.3360 N   0  0  0  0  0  0  0  0  0  0  0  0
    6.7441   10.5516   26.4570 C   0  0  0  0  0  0  0  0  0  0  0  0
    7.2598    9.8317   25.3814 C   0  0  0  0  0  0  0  0  0  0  0  0
    8.2724   10.3048   24.5466 C   0  0  0  0  0  0  0  0  0  0  0  0
    8.5625   11.6418   24.6302 C   0  0  0  0  0  0  0  0  0  0  0  0
    8.0253   12.4122   25.6655 C   0  0  0  0  0  0  0  0  0  0  0  0
    7.1636   11.8498   26.6019 C   0  0  0  0  0  0  0  0  0  0  0  0
    8.2936   13.8805   25.7583 C   0  0  0  0  0  0  0  0  0  0  0  0
    7.3936   14.5693   24.7638 C   0  0  0  0  0  0  0  0  0  0  0  0
    7.5676   14.0542   23.3451 C   0  0  0  0  0  0  0  0  0  0  0  0
    8.8966   13.3886   22.9811 C   0  0  0  0  0  0  0  0  0  0  0  0
    9.5768   13.7683   22.0358 O   0  0  0  0  0  0  0  0  0  0  0  0
    9.2834   12.2380   23.6075 N   0  0  0  0  0  0  0  0  0  0  0  0
    3.2300   10.7906   30.2251 C   0  0  2  0  0  0  0  0  0  0  0  0
    1.9688   10.1383   30.7996 C   0  0  0  0  0  0  0  0  0  0  0  0
    1.6270   10.7065   31.9692 F   0  0  0  0  0  0  0  0  0  0  0  0
    2.1580    8.8205   30.9963 F   0  0  0  0  0  0  0  0  0  0  0  0
    0.9014   10.2601   29.9771 F   0  0  0  0  0  0  0  0  0  0  0  0
    2.7418   11.9701   29.3732 C   0  0  0  0  0  0  0  0  0  0  0  0
  1  2  2  0
  2  3  1  0
  3  4  1  0
  4  5  1  6
  5  6  2  0
  5  7  1  0
  7  8  1  0
  8  9  2  0
  9 10  1  0
 10 11  2  0
 11 12  1  0
 12 13  2  0
 12 14  1  0
 14 15  1  0
 15 16  1  0
 16 17  1  0
 17 18  2  0
 17 19  1  0
  4 20  1  0
 20 21  1  6
 21 22  1  0
 21 23  1  0
 21 24  1  0
 20 25  1  0
 25  2  1  0
 13  8  1  0
 19 11  1  0
M  END
>  <energy_score>  (1546) 
-25.667519

>  <inchikey>  (1546) 
None

>  <smiles>  (1546) 
None

>  <ref_pdb>  (1546) 
A0310a

>  <alias>  (1546) 
None

>  <HIPPO Pose ID>  (1546) 
499190

>  <name>  (1546) 
P499190

>  <HIPPO Compound ID>  (1546) 
301758

>  <ref_mols>  (1546) 
A1445a,A0310a

>  <distance_score>  (1546) 
1.859134

>  <inspiration_score>  (1546) 
None

$$$$
P499191
     RDKit          3D

 25 27  0  0  0  0  0  0  0  0999 V2000
    5.1803   10.0868   31.9244 O   0  0  0  0  0  0  0  0  0  0  0  0
    4.5939   10.2203   30.8581 C   0  0  0  0  0  0  0  0  0  0  0  0
    4.7452    9.2434   29.7158 C   0  0  0  0  0  0  0  0  0  0  0  0
    4.0525    9.9621   28.5688 C   0  0  2  0  0  0  0  0  0  0  0  0
    5.0481   10.8696   27.8343 C   0  0  0  0  0  0  0  0  0  0  0  0
    5.0297   12.0149   28.0788 O   0  0  0  0  0  0  0  0  0  0  0  0
    5.9958   10.0501   26.9046 N   0  0  0  0  0  0  0  0  0  0  0  0
    7.0100   10.4731   26.0502 C   0  0  0  0  0  0  0  0  0  0  0  0
    7.6867    9.7142   25.0980 C   0  0  0  0  0  0  0  0  0  0  0  0
    8.6483   10.2646   24.2424 C   0  0  0  0  0  0  0  0  0  0  0  0
    8.8191   11.6317   24.2751 C   0  0  0  0  0  0  0  0  0  0  0  0
    8.2426   12.3802   25.2939 C   0  0  0  0  0  0  0  0  0  0  0  0
    7.3529   11.7953   26.1704 C   0  0  0  0  0  0  0  0  0  0  0  0
    8.4490   13.8532   25.4322 C   0  0  0  0  0  0  0  0  0  0  0  0
    7.4656   14.5016   24.4973 C   0  0  0  0  0  0  0  0  0  0  0  0
    7.6878   14.0712   23.0575 C   0  0  0  0  0  0  0  0  0  0  0  0
    9.0436   13.4526   22.6762 C   0  0  0  0  0  0  0  0  0  0  0  0
    9.7178   13.9084   21.7606 O   0  0  0  0  0  0  0  0  0  0  0  0
    9.4683   12.2789   23.2369 N   0  0  0  0  0  0  0  0  0  0  0  0
    2.9950   10.8792   29.2491 C   0  0  1  0  0  0  0  0  0  0  0  0
    1.6774   10.2168   29.5707 C   0  0  0  0  0  0  0  0  0  0  0  0
    1.7645    9.4110   30.6432 F   0  0  0  0  0  0  0  0  0  0  0  0
    1.2402    9.4843   28.5265 F   0  0  0  0  0  0  0  0  0  0  0  0
    0.7410   11.1537   29.8270 F   0  0  0  0  0  0  0  0  0  0  0  0
    3.6600   11.3654   30.5448 C   0  0  0  0  0  0  0  0  0  0  0  0
  1  2  2  0
  2  3  1  0
  3  4  1  0
  4  5  1  1
  5  6  2  0
  5  7  1  0
  7  8  1  0
  8  9  2  0
  9 10  1  0
 10 11  2  0
 11 12  1  0
 12 13  2  0
 12 14  1  0
 14 15  1  0
 15 16  1  0
 16 17  1  0
 17 18  2  0
 17 19  1  0
  4 20  1  0
 20 21  1  1
 21 22  1  0
 21 23  1  0
 21 24  1  0
 20 25  1  0
 25  2  1  0
 13  8  1  0
 19 11  1  0
M  END
>  <energy_score>  (1547) 
-18.413371

>  <inchikey>  (1547) 
None

>  <smiles>  (1547) 
None

>  <ref_pdb>  (1547) 
A0310a

>  <alias>  (1547) 
None

>  <HIPPO Pose ID>  (1547) 
499191

>  <name>  (1547) 
P499191

>  <HIPPO Compound ID>  (1547) 
301758

>  <ref_mols>  (1547) 
A1445a,A0310a

>  <distance_score>  (1547) 
1.684685

>  <inspiration_score>  (1547) 
None

$$$$
P499192
     RDKit          3D

 25 27  0  0  0  0  0  0  0  0999 V2000
   10.4514    9.7446   22.2161 O   0  0  0  0  0  0  0  0  0  0  0  0
   10.0424   10.6353   22.9603 C   0  0  0  0  0  0  0  0  0  0  0  0
   10.5132   12.0567   22.8479 C   0  0  0  0  0  0  0  0  0  0  0  0
   10.2955   12.9730   24.0202 C   0  0  0  0  0  0  0  0  0  0  0  0
    8.8313   13.3270   24.1803 C   0  0  0  0  0  0  0  0  0  0  0  0
    8.0490   12.2688   24.8878 C   0  0  0  0  0  0  0  0  0  0  0  0
    7.0415   12.6997   25.7871 C   0  0  0  0  0  0  0  0  0  0  0  0
    6.2859   11.7821   26.5084 C   0  0  0  0  0  0  0  0  0  0  0  0
    5.3556   12.1844   27.4498 N   0  0  0  0  0  0  0  0  0  0  0  0
    4.5482   11.3540   28.4931 C   0  0  0  0  0  0  0  0  0  0  0  0
    4.6053   10.2180   28.7649 O   0  0  0  0  0  0  0  0  0  0  0  0
    3.5319   12.3022   29.1337 C   0  0  2  0  0  0  0  0  0  0  0  0
    4.1559   13.4649   29.7201 N   0  0  0  0  0  0  0  0  0  0  0  0
    3.5821   13.8097   30.9218 C   0  0  0  0  0  0  0  0  0  0  0  0
    3.9021   14.7733   31.5909 O   0  0  0  0  0  0  0  0  0  0  0  0
    2.4889   12.8246   31.2209 C   0  0  0  0  0  0  0  0  0  0  0  0
    2.8329   11.6438   30.3147 C   0  0  1  0  0  0  0  0  0  0  0  0
    1.6148   10.8624   29.9049 C   0  0  0  0  0  0  0  0  0  0  0  0
    0.9645   10.4135   30.9986 F   0  0  0  0  0  0  0  0  0  0  0  0
    1.9049    9.7979   29.1352 F   0  0  0  0  0  0  0  0  0  0  0  0
    0.7617   11.6388   29.2021 F   0  0  0  0  0  0  0  0  0  0  0  0
    6.4759   10.4351   26.2908 C   0  0  0  0  0  0  0  0  0  0  0  0
    7.4244   10.0222   25.3773 C   0  0  0  0  0  0  0  0  0  0  0  0
    8.2307   10.9028   24.6855 C   0  0  0  0  0  0  0  0  0  0  0  0
    9.1050   10.2462   23.8307 N   0  0  0  0  0  0  0  0  0  0  0  0
  1  2  2  0
  2  3  1  0
  3  4  1  0
  4  5  1  0
  5  6  1  0
  6  7  2  0
  7  8  1  0
  8  9  1  0
  9 10  1  0
 10 11  2  0
 12 10  1  1
 12 13  1  0
 13 14  1  0
 14 15  2  0
 14 16  1  0
 16 17  1  0
 17 18  1  6
 18 19  1  0
 18 20  1  0
 18 21  1  0
  8 22  2  0
 22 23  1  0
 23 24  2  0
 24 25  1  0
 25  2  1  0
 24  6  1  0
 17 12  1  0
M  END
>  <energy_score>  (1548) 
-41.000725

>  <inchikey>  (1548) 
None

>  <smiles>  (1548) 
None

>  <ref_pdb>  (1548) 
A0310a

>  <alias>  (1548) 
None

>  <HIPPO Pose ID>  (1548) 
499192

>  <name>  (1548) 
P499192

>  <HIPPO Compound ID>  (1548) 
301759

>  <ref_mols>  (1548) 
A1445a,A0310a

>  <distance_score>  (1548) 
1.778088

>  <inspiration_score>  (1548) 
None

$$$$
P499193
     RDKit          3D

 25 27  0  0  0  0  0  0  0  0999 V2000
   10.3794    9.7476   22.3116 O   0  0  0  0  0  0  0  0  0  0  0  0
    9.9341   10.6408   23.0326 C   0  0  0  0  0  0  0  0  0  0  0  0
   10.3994   12.0612   22.9118 C   0  0  0  0  0  0  0  0  0  0  0  0
   10.2299   12.9638   24.1026 C   0  0  0  0  0  0  0  0  0  0  0  0
    8.7763   13.3214   24.3491 C   0  0  0  0  0  0  0  0  0  0  0  0
    8.0106   12.2572   25.0697 C   0  0  0  0  0  0  0  0  0  0  0  0
    7.0897   12.6651   26.0757 C   0  0  0  0  0  0  0  0  0  0  0  0
    6.3355   11.7375   26.7985 C   0  0  0  0  0  0  0  0  0  0  0  0
    5.5324   12.1285   27.8653 N   0  0  0  0  0  0  0  0  0  0  0  0
    4.8411   11.2766   28.9819 C   0  0  0  0  0  0  0  0  0  0  0  0
    4.7826   10.1151   29.1229 O   0  0  0  0  0  0  0  0  0  0  0  0
    4.1230   12.2396   29.9673 C   0  0  1  0  0  0  0  0  0  0  0  0
    4.4178   13.6347   29.6954 N   0  0  0  0  0  0  0  0  0  0  0  0
    3.4097   14.2431   28.9691 C   0  0  0  0  0  0  0  0  0  0  0  0
    3.4469   15.3857   28.5592 O   0  0  0  0  0  0  0  0  0  0  0  0
    2.3284   13.2187   28.7386 C   0  0  0  0  0  0  0  0  0  0  0  0
    2.6040   12.2316   29.8706 C   0  0  1  0  0  0  0  0  0  0  0  0
    1.8721   10.9250   29.7348 C   0  0  0  0  0  0  0  0  0  0  0  0
    2.0684   10.1558   30.8234 F   0  0  0  0  0  0  0  0  0  0  0  0
    2.1828   10.2209   28.6360 F   0  0  0  0  0  0  0  0  0  0  0  0
    0.5433   11.1776   29.6583 F   0  0  0  0  0  0  0  0  0  0  0  0
    6.4136   10.4106   26.4456 C   0  0  0  0  0  0  0  0  0  0  0  0
    7.2863   10.0259   25.4396 C   0  0  0  0  0  0  0  0  0  0  0  0
    8.1215   10.9040   24.7741 C   0  0  0  0  0  0  0  0  0  0  0  0
    8.9611   10.2593   23.8711 N   0  0  0  0  0  0  0  0  0  0  0  0
  1  2  2  0
  2  3  1  0
  3  4  1  0
  4  5  1  0
  5  6  1  0
  6  7  2  0
  7  8  1  0
  8  9  1  0
  9 10  1  0
 10 11  2  0
 12 10  1  6
 12 13  1  0
 13 14  1  0
 14 15  2  0
 14 16  1  0
 16 17  1  0
 17 18  1  6
 18 19  1  0
 18 20  1  0
 18 21  1  0
  8 22  2  0
 22 23  1  0
 23 24  2  0
 24 25  1  0
 25  2  1  0
 24  6  1  0
 17 12  1  0
M  END
>  <energy_score>  (1549) 
-23.822512

>  <inchikey>  (1549) 
None

>  <smiles>  (1549) 
None

>  <ref_pdb>  (1549) 
A0310a

>  <alias>  (1549) 
None

>  <HIPPO Pose ID>  (1549) 
499193

>  <name>  (1549) 
P499193

>  <HIPPO Compound ID>  (1549) 
301759

>  <ref_mols>  (1549) 
A1445a,A0310a

>  <distance_score>  (1549) 
1.758504

>  <inspiration_score>  (1549) 
None

$$$$
P499194
     RDKit          3D

 25 27  0  0  0  0  0  0  0  0999 V2000
   10.5048    9.8142   22.2130 O   0  0  0  0  0  0  0  0  0  0  0  0
   10.0748   10.6682   22.9802 C   0  0  0  0  0  0  0  0  0  0  0  0
   10.6177   12.0541   23.1128 C   0  0  0  0  0  0  0  0  0  0  0  0
    9.5423   13.1126   23.0158 C   0  0  0  0  0  0  0  0  0  0  0  0
    8.8858   13.3896   24.3501 C   0  0  0  0  0  0  0  0  0  0  0  0
    8.0839   12.2754   24.9508 C   0  0  0  0  0  0  0  0  0  0  0  0
    7.0993   12.6694   25.9008 C   0  0  0  0  0  0  0  0  0  0  0  0
    6.3846   11.7159   26.6025 C   0  0  0  0  0  0  0  0  0  0  0  0
    5.4170   11.9738   27.5486 N   0  0  0  0  0  0  0  0  0  0  0  0
    4.8874   11.0945   28.7144 C   0  0  0  0  0  0  0  0  0  0  0  0
    5.2447   10.0493   29.0974 O   0  0  0  0  0  0  0  0  0  0  0  0
    3.6504   11.7729   29.3048 C   0  0  2  0  0  0  0  0  0  0  0  0
    3.9679   12.9738   30.1938 C   0  0  0  0  0  0  0  0  0  0  0  0
    4.1242   12.6550   31.6448 C   0  0  0  0  0  0  0  0  0  0  0  0
    3.8454   11.4594   32.1753 C   0  0  0  0  0  0  0  0  0  0  0  0
    3.3253   10.3006   31.3847 C   0  0  0  0  0  0  0  0  0  0  0  0
    2.8374   10.6363   29.9701 C   0  0  1  0  0  0  0  0  0  0  0  0
    1.3524   10.8781   29.9518 C   0  0  0  0  0  0  0  0  0  0  0  0
    0.9622   11.7668   30.8763 F   0  0  0  0  0  0  0  0  0  0  0  0
    0.6988    9.7147   30.1732 F   0  0  0  0  0  0  0  0  0  0  0  0
    0.9538   11.3190   28.7358 F   0  0  0  0  0  0  0  0  0  0  0  0
    6.5771   10.3790   26.3196 C   0  0  0  0  0  0  0  0  0  0  0  0
    7.4725   10.0004   25.3524 C   0  0  0  0  0  0  0  0  0  0  0  0
    8.2537   10.9125   24.6818 C   0  0  0  0  0  0  0  0  0  0  0  0
    9.0862   10.2657   23.7826 N   0  0  0  0  0  0  0  0  0  0  0  0
  1  2  2  0
  2  3  1  0
  3  4  1  0
  4  5  1  0
  5  6  1  0
  6  7  2  0
  7  8  1  0
  8  9  1  0
  9 10  1  0
 10 11  2  0
 12 10  1  1
 12 13  1  0
 13 14  1  0
 14 15  2  0
 15 16  1  0
 16 17  1  0
 17 18  1  1
 18 19  1  0
 18 20  1  0
 18 21  1  0
  8 22  2  0
 22 23  1  0
 23 24  2  0
 24 25  1  0
 25  2  1  0
 24  6  1  0
 17 12  1  0
M  END
>  <energy_score>  (1550) 
-27.223223

>  <inchikey>  (1550) 
None

>  <smiles>  (1550) 
None

>  <ref_pdb>  (1550) 
A0310a

>  <alias>  (1550) 
None

>  <HIPPO Pose ID>  (1550) 
499194

>  <name>  (1550) 
P499194

>  <HIPPO Compound ID>  (1550) 
301761

>  <ref_mols>  (1550) 
A1445a,A0310a

>  <distance_score>  (1550) 
1.782023

>  <inspiration_score>  (1550) 
None

$$$$
P499195
     RDKit          3D

 25 27  0  0  0  0  0  0  0  0999 V2000
   10.4952   10.0725   22.3369 O   0  0  0  0  0  0  0  0  0  0  0  0
    9.9922   10.8807   23.1101 C   0  0  0  0  0  0  0  0  0  0  0  0
   10.4618   12.2831   23.2729 C   0  0  0  0  0  0  0  0  0  0  0  0
    9.3129   13.2688   23.2845 C   0  0  0  0  0  0  0  0  0  0  0  0
    8.7180   13.4476   24.6749 C   0  0  0  0  0  0  0  0  0  0  0  0
    7.9849   12.2588   25.2384 C   0  0  0  0  0  0  0  0  0  0  0  0
    7.0738   12.5137   26.3130 C   0  0  0  0  0  0  0  0  0  0  0  0
    6.2858   11.4962   26.8426 C   0  0  0  0  0  0  0  0  0  0  0  0
    5.4093   11.5686   27.9141 N   0  0  0  0  0  0  0  0  0  0  0  0
    5.2143   12.6792   28.9867 C   0  0  0  0  0  0  0  0  0  0  0  0
    5.7085   13.7322   29.0831 O   0  0  0  0  0  0  0  0  0  0  0  0
    4.1607   12.0804   29.9557 C   0  0  1  0  0  0  0  0  0  0  0  0
    4.1614   12.7826   31.3241 C   0  0  0  0  0  0  0  0  0  0  0  0
    3.1991   13.9203   31.4520 C   0  0  0  0  0  0  0  0  0  0  0  0
    2.2971   14.2292   30.5143 C   0  0  0  0  0  0  0  0  0  0  0  0
    2.1441   13.4545   29.2466 C   0  0  0  0  0  0  0  0  0  0  0  0
    2.7806   12.0590   29.2570 C   0  0  2  0  0  0  0  0  0  0  0  0
    1.8384   11.0123   29.8321 C   0  0  0  0  0  0  0  0  0  0  0  0
    1.6168   11.1401   31.1497 F   0  0  0  0  0  0  0  0  0  0  0  0
    2.3366    9.7697   29.6185 F   0  0  0  0  0  0  0  0  0  0  0  0
    0.6484   11.0558   29.1916 F   0  0  0  0  0  0  0  0  0  0  0  0
    6.3658   10.2396   26.2891 C   0  0  0  0  0  0  0  0  0  0  0  0
    7.3048    9.9714   25.3193 C   0  0  0  0  0  0  0  0  0  0  0  0
    8.1358   10.9426   24.7968 C   0  0  0  0  0  0  0  0  0  0  0  0
    8.9968   10.3970   23.8564 N   0  0  0  0  0  0  0  0  0  0  0  0
  1  2  2  0
  2  3  1  0
  3  4  1  0
  4  5  1  0
  5  6  1  0
  6  7  2  0
  7  8  1  0
  8  9  1  0
  9 10  1  0
 10 11  2  0
 12 10  1  6
 12 13  1  0
 13 14  1  0
 14 15  2  0
 15 16  1  0
 16 17  1  0
 17 18  1  1
 18 19  1  0
 18 20  1  0
 18 21  1  0
  8 22  2  0
 22 23  1  0
 23 24  2  0
 24 25  1  0
 25  2  1  0
 24  6  1  0
 17 12  1  0
M  END
>  <energy_score>  (1551) 
-42.214464

>  <inchikey>  (1551) 
None

>  <smiles>  (1551) 
None

>  <ref_pdb>  (1551) 
A0310a

>  <alias>  (1551) 
None

>  <HIPPO Pose ID>  (1551) 
499195

>  <name>  (1551) 
P499195

>  <HIPPO Compound ID>  (1551) 
301761

>  <ref_mols>  (1551) 
A1445a,A0310a

>  <distance_score>  (1551) 
1.761177

>  <inspiration_score>  (1551) 
None

$$$$
P499196
     RDKit          3D

 25 27  0  0  0  0  0  0  0  0999 V2000
   10.5071    9.8848   22.3497 O   0  0  0  0  0  0  0  0  0  0  0  0
   10.0183   10.7187   23.1029 C   0  0  0  0  0  0  0  0  0  0  0  0
   10.5082   12.1234   23.2135 C   0  0  0  0  0  0  0  0  0  0  0  0
    9.3917   13.1406   23.1534 C   0  0  0  0  0  0  0  0  0  0  0  0
    8.7576   13.3773   24.5110 C   0  0  0  0  0  0  0  0  0  0  0  0
    7.9565   12.2428   25.0787 C   0  0  0  0  0  0  0  0  0  0  0  0
    6.9105   12.5968   25.9844 C   0  0  0  0  0  0  0  0  0  0  0  0
    6.0773   11.6289   26.5334 C   0  0  0  0  0  0  0  0  0  0  0  0
    4.9403   11.8603   27.2892 N   0  0  0  0  0  0  0  0  0  0  0  0
    4.3587   13.1867   27.8597 C   0  0  0  0  0  0  0  0  0  0  0  0
    4.7915   14.2708   27.8434 O   0  0  0  0  0  0  0  0  0  0  0  0
    2.9616   12.7911   28.4005 C   0  0  2  0  0  0  0  0  0  0  0  0
    2.0645   14.0276   28.6102 C   0  0  0  0  0  0  0  0  0  0  0  0
    2.0770   14.5829   30.0000 C   0  0  0  0  0  0  0  0  0  0  0  0
    2.6789   13.9815   31.0320 C   0  0  0  0  0  0  0  0  0  0  0  0
    3.3893   12.6740   30.9121 C   0  0  0  0  0  0  0  0  0  0  0  0
    3.0597   11.8718   29.6480 C   0  0  1  0  0  0  0  0  0  0  0  0
    1.7947   11.0332   29.8016 C   0  0  0  0  0  0  0  0  0  0  0  0
    1.8038   10.3228   30.9479 F   0  0  0  0  0  0  0  0  0  0  0  0
    1.7215   10.1329   28.7839 F   0  0  0  0  0  0  0  0  0  0  0  0
    0.6662   11.7581   29.7607 F   0  0  0  0  0  0  0  0  0  0  0  0
    6.3076   10.3042   26.2367 C   0  0  0  0  0  0  0  0  0  0  0  0
    7.3253    9.9637   25.3714 C   0  0  0  0  0  0  0  0  0  0  0  0
    8.1524   10.8938   24.7776 C   0  0  0  0  0  0  0  0  0  0  0  0
    9.0351   10.2810   23.8967 N   0  0  0  0  0  0  0  0  0  0  0  0
  1  2  2  0
  2  3  1  0
  3  4  1  0
  4  5  1  0
  5  6  1  0
  6  7  2  0
  7  8  1  0
  8  9  1  0
  9 10  1  0
 10 11  2  0
 12 10  1  1
 12 13  1  0
 13 14  1  0
 14 15  2  0
 15 16  1  0
 16 17  1  0
 17 18  1  1
 18 19  1  0
 18 20  1  0
 18 21  1  0
  8 22  2  0
 22 23  1  0
 23 24  2  0
 24 25  1  0
 25  2  1  0
 24  6  1  0
 17 12  1  0
M  END
>  <energy_score>  (1552) 
-58.40139

>  <inchikey>  (1552) 
None

>  <smiles>  (1552) 
None

>  <ref_pdb>  (1552) 
A0310a

>  <alias>  (1552) 
None

>  <HIPPO Pose ID>  (1552) 
499196

>  <name>  (1552) 
P499196

>  <HIPPO Compound ID>  (1552) 
301761

>  <ref_mols>  (1552) 
A1445a,A0310a

>  <distance_score>  (1552) 
1.778582

>  <inspiration_score>  (1552) 
None

$$$$
P499197
     RDKit          3D

 25 27  0  0  0  0  0  0  0  0999 V2000
    4.4259   11.4063   31.0771 C   0  0  0  0  0  0  0  0  0  0  0  0
    4.1014    9.9320   30.8506 C   0  0  0  0  0  0  0  0  0  0  0  0
    3.7692    9.2650   32.1920 C   0  0  0  0  0  0  0  0  0  0  0  0
    5.1638    9.1262   30.0412 C   0  0  0  0  0  0  0  0  0  0  0  0
    4.2941    9.2936   28.7500 C   0  0  2  0  0  0  0  0  0  0  0  0
    4.8248   10.4036   27.7952 C   0  0  0  0  0  0  0  0  0  0  0  0
    4.4243   11.5020   27.8836 O   0  0  0  0  0  0  0  0  0  0  0  0
    5.9495    9.8081   26.8936 N   0  0  0  0  0  0  0  0  0  0  0  0
    6.8359   10.4341   26.0249 C   0  0  0  0  0  0  0  0  0  0  0  0
    7.6748    9.7447   25.1408 C   0  0  0  0  0  0  0  0  0  0  0  0
    8.6078   10.3827   24.3293 C   0  0  0  0  0  0  0  0  0  0  0  0
    8.6391   11.7562   24.3684 C   0  0  0  0  0  0  0  0  0  0  0  0
    7.8930   12.4519   25.3221 C   0  0  0  0  0  0  0  0  0  0  0  0
    6.9667   11.7942   26.1159 C   0  0  0  0  0  0  0  0  0  0  0  0
    8.0240   13.9293   25.4919 C   0  0  0  0  0  0  0  0  0  0  0  0
    7.1735   14.5877   24.4421 C   0  0  0  0  0  0  0  0  0  0  0  0
    7.5361   14.1540   23.0325 C   0  0  0  0  0  0  0  0  0  0  0  0
    8.9274   13.5672   22.7673 C   0  0  0  0  0  0  0  0  0  0  0  0
    9.6474   13.9980   21.8735 O   0  0  0  0  0  0  0  0  0  0  0  0
    9.3561   12.4386   23.4001 N   0  0  0  0  0  0  0  0  0  0  0  0
    3.0888    9.5412   29.7251 C   0  0  2  0  0  0  0  0  0  0  0  0
    1.8640   10.3798   29.4794 C   0  0  0  0  0  0  0  0  0  0  0  0
    1.1363   10.4467   30.6205 F   0  0  0  0  0  0  0  0  0  0  0  0
    1.0980    9.7745   28.5418 F   0  0  0  0  0  0  0  0  0  0  0  0
    2.1019   11.6368   29.0743 F   0  0  0  0  0  0  0  0  0  0  0  0
  1  2  1  0
  2  3  1  0
  2  4  1  0
  4  5  1  0
  5  6  1  6
  6  7  2  0
  6  8  1  0
  8  9  1  0
  9 10  2  0
 10 11  1  0
 11 12  2  0
 12 13  1  0
 13 14  2  0
 13 15  1  0
 15 16  1  0
 16 17  1  0
 17 18  1  0
 18 19  2  0
 18 20  1  0
  5 21  1  0
 21 22  1  6
 22 23  1  0
 22 24  1  0
 22 25  1  0
 21  2  1  0
 14  9  1  0
 20 12  1  0
M  END
>  <energy_score>  (1553) 
-24.849974

>  <inchikey>  (1553) 
None

>  <smiles>  (1553) 
None

>  <ref_pdb>  (1553) 
A0310a

>  <alias>  (1553) 
None

>  <HIPPO Pose ID>  (1553) 
499197

>  <name>  (1553) 
P499197

>  <HIPPO Compound ID>  (1553) 
301763

>  <ref_mols>  (1553) 
A1445a,A0310a

>  <distance_score>  (1553) 
1.842094

>  <inspiration_score>  (1553) 
None

$$$$
P499198
     RDKit          3D

 25 26  0  0  0  0  0  0  0  0999 V2000
    3.3767   11.6397   30.4399 C   0  0  0  0  0  0  0  0  0  0  0  0
    2.8466   10.7316   29.3016 C   0  0  2  0  0  0  0  0  0  0  0  0
    1.5480   10.1271   29.8009 C   0  0  0  0  0  0  0  0  0  0  0  0
    1.7096    9.4702   30.9633 F   0  0  0  0  0  0  0  0  0  0  0  0
    0.9975    9.2823   28.9078 F   0  0  0  0  0  0  0  0  0  0  0  0
    0.6410   11.1116   30.0034 F   0  0  0  0  0  0  0  0  0  0  0  0
    3.9518    9.7515   28.6754 C   0  0  0  0  0  0  0  0  0  0  0  0
    3.3119    8.6378   27.8310 C   0  0  0  0  0  0  0  0  0  0  0  0
    4.8034    9.0920   29.7679 C   0  0  0  0  0  0  0  0  0  0  0  0
    4.8743   10.7046   27.8327 C   0  0  0  0  0  0  0  0  0  0  0  0
    4.7267   11.8532   28.0086 O   0  0  0  0  0  0  0  0  0  0  0  0
    5.9189    9.9435   26.9628 N   0  0  0  0  0  0  0  0  0  0  0  0
    6.8920   10.4248   26.0954 C   0  0  0  0  0  0  0  0  0  0  0  0
    7.6314    9.7193   25.1550 C   0  0  0  0  0  0  0  0  0  0  0  0
    8.5631   10.3405   24.3184 C   0  0  0  0  0  0  0  0  0  0  0  0
    8.6837   11.7179   24.3762 C   0  0  0  0  0  0  0  0  0  0  0  0
    8.0362   12.4152   25.3980 C   0  0  0  0  0  0  0  0  0  0  0  0
    7.1445   11.7671   26.2249 C   0  0  0  0  0  0  0  0  0  0  0  0
    8.1733   13.8914   25.6171 C   0  0  0  0  0  0  0  0  0  0  0  0
    7.2443   14.5790   24.6459 C   0  0  0  0  0  0  0  0  0  0  0  0
    7.5203   14.1266   23.2246 C   0  0  0  0  0  0  0  0  0  0  0  0
    8.9736   13.7091   22.9944 C   0  0  0  0  0  0  0  0  0  0  0  0
    9.7682   14.4962   22.4937 O   0  0  0  0  0  0  0  0  0  0  0  0
    9.3639   12.4325   23.3748 N   0  0  0  0  0  0  0  0  0  0  0  0
   10.6795   11.9693   22.9776 C   0  0  0  0  0  0  0  0  0  0  0  0
  2  1  1  1
  2  3  1  0
  3  4  1  0
  3  5  1  0
  3  6  1  0
  2  7  1  0
  7  8  1  0
  7  9  1  0
  7 10  1  0
 10 11  2  0
 10 12  1  0
 12 13  1  0
 13 14  2  0
 14 15  1  0
 15 16  2  0
 16 17  1  0
 17 18  2  0
 17 19  1  0
 19 20  1  0
 20 21  1  0
 21 22  1  0
 22 23  2  0
 22 24  1  0
 24 25  1  0
 18 13  1  0
 24 16  1  0
M  END
>  <energy_score>  (1554) 
-18.278616

>  <inchikey>  (1554) 
None

>  <smiles>  (1554) 
None

>  <ref_pdb>  (1554) 
A0310a

>  <alias>  (1554) 
None

>  <HIPPO Pose ID>  (1554) 
499198

>  <name>  (1554) 
P499198

>  <HIPPO Compound ID>  (1554) 
301775

>  <ref_mols>  (1554) 
A1445a,A0310a

>  <distance_score>  (1554) 
1.62176

>  <inspiration_score>  (1554) 
None

$$$$
P499199
     RDKit          3D

 25 26  0  0  0  0  0  0  0  0999 V2000
    3.7034   11.9145   31.0030 C   0  0  0  0  0  0  0  0  0  0  0  0
    3.3212   10.6074   30.2836 C   0  0  1  0  0  0  0  0  0  0  0  0
    1.7819   10.4845   30.3641 C   0  0  0  0  0  0  0  0  0  0  0  0
    1.3772   10.4082   31.6496 F   0  0  0  0  0  0  0  0  0  0  0  0
    1.3167    9.3822   29.7382 F   0  0  0  0  0  0  0  0  0  0  0  0
    1.1481   11.5400   29.8074 F   0  0  0  0  0  0  0  0  0  0  0  0
    3.8570   10.4625   28.8121 C   0  0  0  0  0  0  0  0  0  0  0  0
    3.7127    8.9805   28.3778 C   0  0  0  0  0  0  0  0  0  0  0  0
    3.0405   11.4566   27.9489 C   0  0  0  0  0  0  0  0  0  0  0  0
    5.3263   10.9387   28.5587 C   0  0  0  0  0  0  0  0  0  0  0  0
    5.8871   11.6100   29.3391 O   0  0  0  0  0  0  0  0  0  0  0  0
    5.7677   10.4548   27.1294 N   0  0  0  0  0  0  0  0  0  0  0  0
    6.8880   10.7677   26.3839 C   0  0  0  0  0  0  0  0  0  0  0  0
    7.3870   10.0047   25.3339 C   0  0  0  0  0  0  0  0  0  0  0  0
    8.3631   10.4942   24.4591 C   0  0  0  0  0  0  0  0  0  0  0  0
    8.6464   11.8488   24.5111 C   0  0  0  0  0  0  0  0  0  0  0  0
    8.1736   12.6058   25.5878 C   0  0  0  0  0  0  0  0  0  0  0  0
    7.3638   12.0405   26.5600 C   0  0  0  0  0  0  0  0  0  0  0  0
    8.3736   14.0865   25.6570 C   0  0  0  0  0  0  0  0  0  0  0  0
    7.3055   14.6983   24.7777 C   0  0  0  0  0  0  0  0  0  0  0  0
    7.3398   14.1500   23.3598 C   0  0  0  0  0  0  0  0  0  0  0  0
    8.7061   13.6716   22.8594 C   0  0  0  0  0  0  0  0  0  0  0  0
    9.2518   14.2718   21.9336 O   0  0  0  0  0  0  0  0  0  0  0  0
    9.2437   12.5082   23.4184 N   0  0  0  0  0  0  0  0  0  0  0  0
   10.5050   11.9884   22.9218 C   0  0  0  0  0  0  0  0  0  0  0  0
  2  1  1  6
  2  3  1  0
  3  4  1  0
  3  5  1  0
  3  6  1  0
  2  7  1  0
  7  8  1  0
  7  9  1  0
  7 10  1  0
 10 11  2  0
 10 12  1  0
 12 13  1  0
 13 14  2  0
 14 15  1  0
 15 16  2  0
 16 17  1  0
 17 18  2  0
 17 19  1  0
 19 20  1  0
 20 21  1  0
 21 22  1  0
 22 23  2  0
 22 24  1  0
 24 25  1  0
 18 13  1  0
 24 16  1  0
M  END
>  <energy_score>  (1555) 
-11.625334

>  <inchikey>  (1555) 
None

>  <smiles>  (1555) 
None

>  <ref_pdb>  (1555) 
A0310a

>  <alias>  (1555) 
None

>  <HIPPO Pose ID>  (1555) 
499199

>  <name>  (1555) 
P499199

>  <HIPPO Compound ID>  (1555) 
301775

>  <ref_mols>  (1555) 
A1445a,A0310a

>  <distance_score>  (1555) 
1.709111

>  <inspiration_score>  (1555) 
None

$$$$
P499200
     RDKit          3D

 26 29  0  0  0  0  0  0  0  0999 V2000
   10.4370    9.6557   22.3045 O   0  0  0  0  0  0  0  0  0  0  0  0
   10.0150   10.5683   23.0151 C   0  0  0  0  0  0  0  0  0  0  0  0
   10.4915   11.9836   22.8644 C   0  0  0  0  0  0  0  0  0  0  0  0
   10.3433   12.9069   24.0393 C   0  0  0  0  0  0  0  0  0  0  0  0
    8.9002   13.3149   24.2348 C   0  0  0  0  0  0  0  0  0  0  0  0
    8.0680   12.2810   24.9174 C   0  0  0  0  0  0  0  0  0  0  0  0
    7.0440   12.7581   25.7713 C   0  0  0  0  0  0  0  0  0  0  0  0
    6.2031   11.8872   26.4579 C   0  0  0  0  0  0  0  0  0  0  0  0
    5.1899   12.3871   27.2595 N   0  0  0  0  0  0  0  0  0  0  0  0
    4.2120   11.6538   28.2319 C   0  0  0  0  0  0  0  0  0  0  0  0
    4.0669   10.5141   28.4411 O   0  0  0  0  0  0  0  0  0  0  0  0
    3.3458   12.7444   28.8388 C   0  0  1  0  0  0  0  0  0  0  0  0
    2.0639   12.3343   29.5792 C   0  0  1  0  0  0  0  0  0  0  0  0
    1.6208   10.8932   29.6907 C   0  0  0  0  0  0  0  0  0  0  0  0
    2.3635   10.1493   30.5226 F   0  0  0  0  0  0  0  0  0  0  0  0
    1.5196   10.2773   28.4942 F   0  0  0  0  0  0  0  0  0  0  0  0
    0.3591   10.8997   30.1949 F   0  0  0  0  0  0  0  0  0  0  0  0
    2.3267   12.8971   30.9789 C   0  0  2  0  0  0  0  0  0  0  0  0
    2.2241   14.4250   30.9777 C   0  0  0  0  0  0  0  0  0  0  0  0
    3.4983   14.8324   30.2363 C   0  0  0  0  0  0  0  0  0  0  0  0
    4.1343   13.4765   29.9330 C   0  0  1  0  0  0  0  0  0  0  0  0
    3.7549   12.7302   31.1066 O   0  0  0  0  0  0  0  0  0  0  0  0
    6.3612   10.5304   26.2869 C   0  0  0  0  0  0  0  0  0  0  0  0
    7.3374   10.0725   25.4176 C   0  0  0  0  0  0  0  0  0  0  0  0
    8.1966   10.9098   24.7275 C   0  0  0  0  0  0  0  0  0  0  0  0
    9.0596   10.2146   23.8865 N   0  0  0  0  0  0  0  0  0  0  0  0
  1  2  2  0
  2  3  1  0
  3  4  1  0
  4  5  1  0
  5  6  1  0
  6  7  2  0
  7  8  1  0
  8  9  1  0
  9 10  1  0
 10 11  2  0
 12 10  1  1
 12 13  1  0
 13 14  1  1
 14 15  1  0
 14 16  1  0
 14 17  1  0
 13 18  1  0
 18 19  1  6
 19 20  1  0
 21 20  1  1
 21 22  1  0
  8 23  2  0
 23 24  1  0
 24 25  2  0
 25 26  1  0
 26  2  1  0
 25  6  1  0
 21 12  1  0
 22 18  1  0
M  END
>  <energy_score>  (1556) 
-31.166285

>  <inchikey>  (1556) 
None

>  <smiles>  (1556) 
None

>  <ref_pdb>  (1556) 
A0310a

>  <alias>  (1556) 
None

>  <HIPPO Pose ID>  (1556) 
499200

>  <name>  (1556) 
P499200

>  <HIPPO Compound ID>  (1556) 
301785

>  <ref_mols>  (1556) 
A1445a,A0310a

>  <distance_score>  (1556) 
1.88138

>  <inspiration_score>  (1556) 
None

$$$$
P499201
     RDKit          3D

 26 29  0  0  0  0  0  0  0  0999 V2000
   10.4369    9.8670   22.3943 O   0  0  0  0  0  0  0  0  0  0  0  0
    9.9112   10.7251   23.0992 C   0  0  0  0  0  0  0  0  0  0  0  0
   10.2296   12.1786   22.9529 C   0  0  0  0  0  0  0  0  0  0  0  0
   10.1910   12.9934   24.2160 C   0  0  0  0  0  0  0  0  0  0  0  0
    8.7733   13.3258   24.6529 C   0  0  0  0  0  0  0  0  0  0  0  0
    7.9877   12.1978   25.2516 C   0  0  0  0  0  0  0  0  0  0  0  0
    7.0330   12.5266   26.2637 C   0  0  0  0  0  0  0  0  0  0  0  0
    6.2030   11.5595   26.8341 C   0  0  0  0  0  0  0  0  0  0  0  0
    5.3253   11.7759   27.8915 N   0  0  0  0  0  0  0  0  0  0  0  0
    5.0946   13.0374   28.7689 C   0  0  0  0  0  0  0  0  0  0  0  0
    5.5510   14.1088   28.6875 O   0  0  0  0  0  0  0  0  0  0  0  0
    4.1146   12.6060   29.8881 C   0  0  2  0  0  0  0  0  0  0  0  0
    2.6713   12.3861   29.3844 C   0  0  1  0  0  0  0  0  0  0  0  0
    2.0786   11.0107   29.5631 C   0  0  0  0  0  0  0  0  0  0  0  0
    2.1295   10.5687   30.8323 F   0  0  0  0  0  0  0  0  0  0  0  0
    2.7286   10.1024   28.8015 F   0  0  0  0  0  0  0  0  0  0  0  0
    0.7896   11.0034   29.1631 F   0  0  0  0  0  0  0  0  0  0  0  0
    1.8942   13.4521   30.1618 C   0  0  1  0  0  0  0  0  0  0  0  0
    1.7595   13.2076   31.6625 C   0  0  0  0  0  0  0  0  0  0  0  0
    3.2081   13.3287   32.1325 C   0  0  0  0  0  0  0  0  0  0  0  0
    3.9204   13.7861   30.8573 C   0  0  2  0  0  0  0  0  0  0  0  0
    2.8634   14.5219   30.1919 O   0  0  0  0  0  0  0  0  0  0  0  0
    6.2708   10.2749   26.3516 C   0  0  0  0  0  0  0  0  0  0  0  0
    7.2156    9.9561   25.3900 C   0  0  0  0  0  0  0  0  0  0  0  0
    8.0966   10.8724   24.8465 C   0  0  0  0  0  0  0  0  0  0  0  0
    8.9702   10.2796   23.9411 N   0  0  0  0  0  0  0  0  0  0  0  0
  1  2  2  0
  2  3  1  0
  3  4  1  0
  4  5  1  0
  5  6  1  0
  6  7  2  0
  7  8  1  0
  8  9  1  0
  9 10  1  0
 10 11  2  0
 12 10  1  6
 12 13  1  0
 13 14  1  1
 14 15  1  0
 14 16  1  0
 14 17  1  0
 13 18  1  0
 18 19  1  1
 19 20  1  0
 21 20  1  1
 21 22  1  0
  8 23  2  0
 23 24  1  0
 24 25  2  0
 25 26  1  0
 26  2  1  0
 25  6  1  0
 21 12  1  0
 22 18  1  0
M  END
>  <energy_score>  (1557) 
-12.861355

>  <inchikey>  (1557) 
None

>  <smiles>  (1557) 
None

>  <ref_pdb>  (1557) 
A0310a

>  <alias>  (1557) 
None

>  <HIPPO Pose ID>  (1557) 
499201

>  <name>  (1557) 
P499201

>  <HIPPO Compound ID>  (1557) 
301785

>  <ref_mols>  (1557) 
A1445a,A0310a

>  <distance_score>  (1557) 
1.919665

>  <inspiration_score>  (1557) 
None

$$$$
P499202
     RDKit          3D

 26 29  0  0  0  0  0  0  0  0999 V2000
   10.4654    9.7520   22.1993 O   0  0  0  0  0  0  0  0  0  0  0  0
   10.0641   10.6437   22.9463 C   0  0  0  0  0  0  0  0  0  0  0  0
   10.5292   12.0672   22.8355 C   0  0  0  0  0  0  0  0  0  0  0  0
   10.2888   12.9846   24.0032 C   0  0  0  0  0  0  0  0  0  0  0  0
    8.8191   13.3278   24.1420 C   0  0  0  0  0  0  0  0  0  0  0  0
    8.0373   12.2664   24.8446 C   0  0  0  0  0  0  0  0  0  0  0  0
    6.9908   12.6906   25.7018 C   0  0  0  0  0  0  0  0  0  0  0  0
    6.2417   11.7660   26.4178 C   0  0  0  0  0  0  0  0  0  0  0  0
    5.2297   12.1349   27.2843 N   0  0  0  0  0  0  0  0  0  0  0  0
    4.5109   11.3238   28.4014 C   0  0  0  0  0  0  0  0  0  0  0  0
    4.6125   10.1996   28.7055 O   0  0  0  0  0  0  0  0  0  0  0  0
    3.4832   12.2294   29.0524 C   0  0  1  0  0  0  0  0  0  0  0  0
    2.8390   11.5175   30.2578 C   0  0  2  0  0  0  0  0  0  0  0  0
    1.5168   10.8789   29.9584 C   0  0  0  0  0  0  0  0  0  0  0  0
    0.9331   10.4520   31.0961 F   0  0  0  0  0  0  0  0  0  0  0  0
    1.6478    9.8162   29.1372 F   0  0  0  0  0  0  0  0  0  0  0  0
    0.6761   11.7410   29.3517 F   0  0  0  0  0  0  0  0  0  0  0  0
    2.8363   12.6286   31.2939 C   0  0  2  0  0  0  0  0  0  0  0  0
    2.0323   13.8751   30.9213 C   0  0  0  0  0  0  0  0  0  0  0  0
    2.9057   14.5216   29.8428 C   0  0  0  0  0  0  0  0  0  0  0  0
    4.0365   13.5021   29.7095 C   0  0  1  0  0  0  0  0  0  0  0  0
    4.1907   13.1157   31.0950 O   0  0  0  0  0  0  0  0  0  0  0  0
    6.4877   10.4205   26.2493 C   0  0  0  0  0  0  0  0  0  0  0  0
    7.4654   10.0123   25.3689 C   0  0  0  0  0  0  0  0  0  0  0  0
    8.2538   10.9008   24.6702 C   0  0  0  0  0  0  0  0  0  0  0  0
    9.1418   10.2484   23.8283 N   0  0  0  0  0  0  0  0  0  0  0  0
  1  2  2  0
  2  3  1  0
  3  4  1  0
  4  5  1  0
  5  6  1  0
  6  7  2  0
  7  8  1  0
  8  9  1  0
  9 10  1  0
 10 11  2  0
 12 10  1  1
 12 13  1  0
 13 14  1  6
 14 15  1  0
 14 16  1  0
 14 17  1  0
 13 18  1  0
 18 19  1  6
 19 20  1  0
 21 20  1  1
 21 22  1  0
  8 23  2  0
 23 24  1  0
 24 25  2  0
 25 26  1  0
 26  2  1  0
 25  6  1  0
 21 12  1  0
 22 18  1  0
M  END
>  <energy_score>  (1558) 
-24.03834

>  <inchikey>  (1558) 
None

>  <smiles>  (1558) 
None

>  <ref_pdb>  (1558) 
A0310a

>  <alias>  (1558) 
None

>  <HIPPO Pose ID>  (1558) 
499202

>  <name>  (1558) 
P499202

>  <HIPPO Compound ID>  (1558) 
301785

>  <ref_mols>  (1558) 
A1445a,A0310a

>  <distance_score>  (1558) 
1.60855

>  <inspiration_score>  (1558) 
None

$$$$
P499203
     RDKit          3D

 26 29  0  0  0  0  0  0  0  0999 V2000
   11.6445   11.6048   23.5335 O   0  0  0  0  0  0  0  0  0  0  0  0
   10.4313   11.6116   23.3776 C   0  0  0  0  0  0  0  0  0  0  0  0
    9.7336   12.6705   22.6045 C   0  0  0  0  0  0  0  0  0  0  0  0
    9.4798   13.8997   23.3964 C   0  0  0  0  0  0  0  0  0  0  0  0
    9.0501   13.6350   24.8141 C   0  0  0  0  0  0  0  0  0  0  0  0
    8.1240   12.4665   25.0402 C   0  0  0  0  0  0  0  0  0  0  0  0
    6.9724   12.7270   25.7999 C   0  0  0  0  0  0  0  0  0  0  0  0
    6.2381   11.6809   26.3312 C   0  0  0  0  0  0  0  0  0  0  0  0
    5.2052   11.9526   27.2074 N   0  0  0  0  0  0  0  0  0  0  0  0
    4.5421   11.0602   28.2923 C   0  0  0  0  0  0  0  0  0  0  0  0
    4.7162    9.9363   28.5574 O   0  0  0  0  0  0  0  0  0  0  0  0
    3.5053   11.9114   28.9938 C   0  0  1  0  0  0  0  0  0  0  0  0
    2.8916   11.1872   30.2064 C   0  0  2  0  0  0  0  0  0  0  0  0
    1.4897   10.7209   29.9299 C   0  0  0  0  0  0  0  0  0  0  0  0
    0.9284   10.2410   31.0592 F   0  0  0  0  0  0  0  0  0  0  0  0
    1.4866    9.7253   29.0162 F   0  0  0  0  0  0  0  0  0  0  0  0
    0.7044   11.7043   29.4526 F   0  0  0  0  0  0  0  0  0  0  0  0
    2.9497   12.2690   31.2821 C   0  0  1  0  0  0  0  0  0  0  0  0
    4.3692   12.3548   31.8450 C   0  0  0  0  0  0  0  0  0  0  0  0
    5.1363   12.9552   30.6662 C   0  0  0  0  0  0  0  0  0  0  0  0
    4.0226   13.1953   29.6449 C   0  0  2  0  0  0  0  0  0  0  0  0
    2.9067   13.4913   30.5144 O   0  0  0  0  0  0  0  0  0  0  0  0
    6.5823   10.3734   26.0355 C   0  0  0  0  0  0  0  0  0  0  0  0
    7.6659   10.1011   25.2098 C   0  0  0  0  0  0  0  0  0  0  0  0
    8.4471   11.1287   24.7140 C   0  0  0  0  0  0  0  0  0  0  0  0
    9.5860   10.7275   23.9890 N   0  0  0  0  0  0  0  0  0  0  0  0
  1  2  2  0
  2  3  1  0
  3  4  1  0
  4  5  1  0
  5  6  1  0
  6  7  2  0
  7  8  1  0
  8  9  1  0
  9 10  1  0
 10 11  2  0
 12 10  1  1
 12 13  1  0
 13 14  1  6
 14 15  1  0
 14 16  1  0
 14 17  1  0
 13 18  1  0
 18 19  1  6
 19 20  1  0
 21 20  1  1
 21 22  1  0
  8 23  2  0
 23 24  1  0
 24 25  2  0
 25 26  1  0
 26  2  1  0
 25  6  1  0
 21 12  1  0
 22 18  1  0
M  END
>  <energy_score>  (1559) 
-2.912597

>  <inchikey>  (1559) 
None

>  <smiles>  (1559) 
None

>  <ref_pdb>  (1559) 
A0310a

>  <alias>  (1559) 
None

>  <HIPPO Pose ID>  (1559) 
499203

>  <name>  (1559) 
P499203

>  <HIPPO Compound ID>  (1559) 
301785

>  <ref_mols>  (1559) 
A1445a,A0310a

>  <distance_score>  (1559) 
1.741039

>  <inspiration_score>  (1559) 
None

$$$$
P499204
     RDKit          3D

 26 29  0  0  0  0  0  0  0  0999 V2000
   10.4416    9.8732   22.2790 O   0  0  0  0  0  0  0  0  0  0  0  0
   10.0328   10.7329   23.0532 C   0  0  0  0  0  0  0  0  0  0  0  0
   10.5994   12.1092   23.1506 C   0  0  0  0  0  0  0  0  0  0  0  0
    9.5400   13.1793   23.0346 C   0  0  0  0  0  0  0  0  0  0  0  0
    8.9034   13.4877   24.3716 C   0  0  0  0  0  0  0  0  0  0  0  0
    8.0619   12.3966   24.9703 C   0  0  0  0  0  0  0  0  0  0  0  0
    7.0598   12.8273   25.8777 C   0  0  0  0  0  0  0  0  0  0  0  0
    6.2528   11.9195   26.5563 C   0  0  0  0  0  0  0  0  0  0  0  0
    5.2944   12.3471   27.4583 N   0  0  0  0  0  0  0  0  0  0  0  0
    4.4323   11.5427   28.4718 C   0  0  0  0  0  0  0  0  0  0  0  0
    4.4555   10.4094   28.7524 O   0  0  0  0  0  0  0  0  0  0  0  0
    3.4151   12.4963   29.0755 C   0  0  2  0  0  0  0  0  0  0  0  0
    4.0085   13.7371   29.7501 C   0  0  0  0  0  0  0  0  0  0  0  0
    3.3438   13.7974   31.0805 N   0  0  0  0  0  0  0  0  0  0  0  0
    3.9921   12.7838   31.9548 C   0  0  0  0  0  0  0  0  0  0  0  0
    3.4953   11.4511   31.3979 C   0  0  0  0  0  0  0  0  0  0  0  0
    2.5943   11.8936   30.2340 C   0  0  2  0  0  0  0  0  0  0  0  0
    1.5313   10.9026   29.8499 C   0  0  0  0  0  0  0  0  0  0  0  0
    0.7585   10.6096   30.9196 F   0  0  0  0  0  0  0  0  0  0  0  0
    2.0067    9.7390   29.3750 F   0  0  0  0  0  0  0  0  0  0  0  0
    0.7286   11.4237   28.8939 F   0  0  0  0  0  0  0  0  0  0  0  0
    2.0157   13.1746   30.8177 C   0  0  0  0  0  0  0  0  0  0  0  0
    6.4143   10.5694   26.3285 C   0  0  0  0  0  0  0  0  0  0  0  0
    7.3665   10.1483   25.4224 C   0  0  0  0  0  0  0  0  0  0  0  0
    8.2029   11.0255   24.7477 C   0  0  0  0  0  0  0  0  0  0  0  0
    9.0501   10.3483   23.8780 N   0  0  0  0  0  0  0  0  0  0  0  0
  1  2  2  0
  2  3  1  0
  3  4  1  0
  4  5  1  0
  5  6  1  0
  6  7  2  0
  7  8  1  0
  8  9  1  0
  9 10  1  0
 10 11  2  0
 12 10  1  1
 12 13  1  0
 14 13  1  0
 14 15  1  0
 15 16  1  0
 16 17  1  0
 17 18  1  6
 18 19  1  0
 18 20  1  0
 18 21  1  0
 17 22  1  0
  8 23  2  0
 23 24  1  0
 24 25  2  0
 25 26  1  0
 26  2  1  0
 25  6  1  0
 17 12  1  0
 22 14  1  0
M  END
>  <energy_score>  (1560) 
-56.490163

>  <inchikey>  (1560) 
None

>  <smiles>  (1560) 
None

>  <ref_pdb>  (1560) 
A0310a

>  <alias>  (1560) 
None

>  <HIPPO Pose ID>  (1560) 
499204

>  <name>  (1560) 
P499204

>  <HIPPO Compound ID>  (1560) 
301786

>  <ref_mols>  (1560) 
A1445a,A0310a

>  <distance_score>  (1560) 
1.791532

>  <inspiration_score>  (1560) 
None

$$$$
P499205
     RDKit          3D

 26 29  0  0  0  0  0  0  0  0999 V2000
   10.4286    9.8486   22.5161 O   0  0  0  0  0  0  0  0  0  0  0  0
    9.9143   10.6975   23.2375 C   0  0  0  0  0  0  0  0  0  0  0  0
   10.4043   12.1051   23.3017 C   0  0  0  0  0  0  0  0  0  0  0  0
    9.2917   13.1248   23.2400 C   0  0  0  0  0  0  0  0  0  0  0  0
    8.6785   13.3868   24.6044 C   0  0  0  0  0  0  0  0  0  0  0  0
    7.8616   12.2733   25.1926 C   0  0  0  0  0  0  0  0  0  0  0  0
    6.8139   12.6545   26.0902 C   0  0  0  0  0  0  0  0  0  0  0  0
    5.9190   11.7224   26.6260 C   0  0  0  0  0  0  0  0  0  0  0  0
    4.7265   12.0754   27.2585 N   0  0  0  0  0  0  0  0  0  0  0  0
    4.2500   13.4406   27.8203 C   0  0  0  0  0  0  0  0  0  0  0  0
    4.8127   14.4597   27.9093 O   0  0  0  0  0  0  0  0  0  0  0  0
    2.7518   13.2811   28.1877 C   0  0  2  0  0  0  0  0  0  0  0  0
    2.1301   14.6887   28.3880 C   0  0  0  0  0  0  0  0  0  0  0  0
    1.4255   14.6019   29.6935 N   0  0  0  0  0  0  0  0  0  0  0  0
    2.4529   14.5442   30.7719 C   0  0  0  0  0  0  0  0  0  0  0  0
    3.0200   13.1237   30.6825 C   0  0  0  0  0  0  0  0  0  0  0  0
    2.2675   12.5653   29.4730 C   0  0  2  0  0  0  0  0  0  0  0  0
    2.0905   11.0737   29.4741 C   0  0  0  0  0  0  0  0  0  0  0  0
    3.2507   10.4406   29.7114 F   0  0  0  0  0  0  0  0  0  0  0  0
    1.6104   10.6073   28.2998 F   0  0  0  0  0  0  0  0  0  0  0  0
    1.2228   10.6863   30.4281 F   0  0  0  0  0  0  0  0  0  0  0  0
    0.9013   13.2241   29.6636 C   0  0  0  0  0  0  0  0  0  0  0  0
    6.1165   10.3915   26.3386 C   0  0  0  0  0  0  0  0  0  0  0  0
    7.1509   10.0278   25.4877 C   0  0  0  0  0  0  0  0  0  0  0  0
    8.0270   10.9227   24.8998 C   0  0  0  0  0  0  0  0  0  0  0  0
    8.9158   10.2847   24.0338 N   0  0  0  0  0  0  0  0  0  0  0  0
  1  2  2  0
  2  3  1  0
  3  4  1  0
  4  5  1  0
  5  6  1  0
  6  7  2  0
  7  8  1  0
  8  9  1  0
  9 10  1  0
 10 11  2  0
 12 10  1  1
 12 13  1  0
 14 13  1  0
 14 15  1  0
 15 16  1  0
 16 17  1  0
 17 18  1  6
 18 19  1  0
 18 20  1  0
 18 21  1  0
 17 22  1  0
  8 23  2  0
 23 24  1  0
 24 25  2  0
 25 26  1  0
 26  2  1  0
 25  6  1  0
 17 12  1  0
 22 14  1  0
M  END
>  <energy_score>  (1561) 
-39.128936

>  <inchikey>  (1561) 
None

>  <smiles>  (1561) 
None

>  <ref_pdb>  (1561) 
A0310a

>  <alias>  (1561) 
None

>  <HIPPO Pose ID>  (1561) 
499205

>  <name>  (1561) 
P499205

>  <HIPPO Compound ID>  (1561) 
301786

>  <ref_mols>  (1561) 
A1445a,A0310a

>  <distance_score>  (1561) 
1.984171

>  <inspiration_score>  (1561) 
None

$$$$
P499206
     RDKit          3D

 26 27  0  0  0  0  0  0  0  0999 V2000
   10.4472    9.9269   22.2567 O   0  0  0  0  0  0  0  0  0  0  0  0
    9.9721   10.7655   23.0193 C   0  0  0  0  0  0  0  0  0  0  0  0
   10.2866   12.2247   22.9255 C   0  0  0  0  0  0  0  0  0  0  0  0
   10.2502   12.9981   24.2176 C   0  0  0  0  0  0  0  0  0  0  0  0
    8.8368   13.2966   24.6947 C   0  0  0  0  0  0  0  0  0  0  0  0
    8.0764   12.1373   25.2673 C   0  0  0  0  0  0  0  0  0  0  0  0
    7.1503   12.4037   26.3256 C   0  0  0  0  0  0  0  0  0  0  0  0
    6.3275   11.3984   26.8198 C   0  0  0  0  0  0  0  0  0  0  0  0
    5.4771   11.4429   27.9116 N   0  0  0  0  0  0  0  0  0  0  0  0
    5.3806   12.4679   29.0724 C   0  0  0  0  0  0  0  0  0  0  0  0
    5.9509   13.4717   29.2444 O   0  0  0  0  0  0  0  0  0  0  0  0
    4.3275   11.8743   30.0582 C   0  0  1  0  0  0  0  0  0  0  0  0
    4.4190   12.4794   31.3348 O   0  0  0  0  0  0  0  0  0  0  0  0
    2.9381   11.9791   29.4374 C   0  0  0  0  0  0  0  0  0  0  0  0
    2.3042   13.2942   29.7334 C   0  0  0  0  0  0  0  0  0  0  0  0
    1.9618   13.4616   31.0213 F   0  0  0  0  0  0  0  0  0  0  0  0
    3.1363   14.3054   29.3939 F   0  0  0  0  0  0  0  0  0  0  0  0
    1.1885   13.4622   28.9885 F   0  0  0  0  0  0  0  0  0  0  0  0
    1.9861   10.9212   29.8914 C   0  0  0  0  0  0  0  0  0  0  0  0
    1.7857   10.8842   31.2155 F   0  0  0  0  0  0  0  0  0  0  0  0
    2.4549    9.7027   29.5162 F   0  0  0  0  0  0  0  0  0  0  0  0
    0.7905   11.0534   29.2790 F   0  0  0  0  0  0  0  0  0  0  0  0
    6.3599   10.1642   26.2201 C   0  0  0  0  0  0  0  0  0  0  0  0
    7.3178    9.8830   25.2738 C   0  0  0  0  0  0  0  0  0  0  0  0
    8.1923   10.8322   24.7945 C   0  0  0  0  0  0  0  0  0  0  0  0
    9.0607   10.2830   23.8655 N   0  0  0  0  0  0  0  0  0  0  0  0
  1  2  2  0
  2  3  1  0
  3  4  1  0
  4  5  1  0
  5  6  1  0
  6  7  2  0
  7  8  1  0
  8  9  1  0
  9 10  1  0
 10 11  2  0
 10 12  1  0
 12 13  1  1
 12 14  1  0
 14 15  1  0
 15 16  1  0
 15 17  1  0
 15 18  1  0
 14 19  1  0
 19 20  1  0
 19 21  1  0
 19 22  1  0
  8 23  2  0
 23 24  1  0
 24 25  2  0
 25 26  1  0
 26  2  1  0
 25  6  1  0
M  END
>  <energy_score>  (1562) 
-12.818456

>  <inchikey>  (1562) 
None

>  <smiles>  (1562) 
None

>  <ref_pdb>  (1562) 
A0310a

>  <alias>  (1562) 
None

>  <HIPPO Pose ID>  (1562) 
499206

>  <name>  (1562) 
P499206

>  <HIPPO Compound ID>  (1562) 
301787

>  <ref_mols>  (1562) 
A1445a,A0310a

>  <distance_score>  (1562) 
1.930833

>  <inspiration_score>  (1562) 
None

$$$$
P499207
     RDKit          3D

 26 28  0  0  0  0  0  0  0  0999 V2000
   10.3907    9.7734   22.2633 O   0  0  0  0  0  0  0  0  0  0  0  0
    9.9928   10.6763   22.9996 C   0  0  0  0  0  0  0  0  0  0  0  0
   10.4758   12.0898   22.8602 C   0  0  0  0  0  0  0  0  0  0  0  0
   10.2860   13.0172   24.0293 C   0  0  0  0  0  0  0  0  0  0  0  0
    8.8316   13.4117   24.1961 C   0  0  0  0  0  0  0  0  0  0  0  0
    8.0116   12.3642   24.8852 C   0  0  0  0  0  0  0  0  0  0  0  0
    6.9685   12.8161   25.7330 C   0  0  0  0  0  0  0  0  0  0  0  0
    6.1764   11.9194   26.4463 C   0  0  0  0  0  0  0  0  0  0  0  0
    5.1999   12.3589   27.3269 N   0  0  0  0  0  0  0  0  0  0  0  0
    4.3902   11.5844   28.4027 C   0  0  0  0  0  0  0  0  0  0  0  0
    4.3675   10.4464   28.6572 O   0  0  0  0  0  0  0  0  0  0  0  0
    3.5708   12.5923   29.2009 C   0  0  2  0  0  0  0  0  0  0  0  0
    4.5071   13.4832   30.0255 C   0  0  0  0  0  0  0  0  0  0  0  0
    4.9131   12.5200   31.4756 S   0  0  0  0  0  0  0  0  0  0  0  0
    6.1614   11.8322   31.2265 O   0  0  0  0  0  0  0  0  0  0  0  0
    4.7072   13.3565   32.6378 O   0  0  0  0  0  0  0  0  0  0  0  0
    3.5618   11.3623   31.3511 C   0  0  0  0  0  0  0  0  0  0  0  0
    2.6585   11.9316   30.2619 C   0  0  2  0  0  0  0  0  0  0  0  0
    1.6249   10.9290   29.7990 C   0  0  0  0  0  0  0  0  0  0  0  0
    0.7953   10.6564   30.8331 F   0  0  0  0  0  0  0  0  0  0  0  0
    2.0979    9.7564   29.3610 F   0  0  0  0  0  0  0  0  0  0  0  0
    0.8801   11.4677   28.8080 F   0  0  0  0  0  0  0  0  0  0  0  0
    6.3845   10.5649   26.2906 C   0  0  0  0  0  0  0  0  0  0  0  0
    7.3688   10.1275   25.4269 C   0  0  0  0  0  0  0  0  0  0  0  0
    8.1899   10.9922   24.7237 C   0  0  0  0  0  0  0  0  0  0  0  0
    9.0673   10.3090   23.8905 N   0  0  0  0  0  0  0  0  0  0  0  0
  1  2  2  0
  2  3  1  0
  3  4  1  0
  4  5  1  0
  5  6  1  0
  6  7  2  0
  7  8  1  0
  8  9  1  0
  9 10  1  0
 10 11  2  0
 12 10  1  1
 12 13  1  0
 13 14  1  0
 14 15  2  0
 14 16  2  0
 14 17  1  0
 17 18  1  0
 18 19  1  6
 19 20  1  0
 19 21  1  0
 19 22  1  0
  8 23  2  0
 23 24  1  0
 24 25  2  0
 25 26  1  0
 26  2  1  0
 25  6  1  0
 18 12  1  0
M  END
>  <energy_score>  (1563) 
-58.131665

>  <inchikey>  (1563) 
None

>  <smiles>  (1563) 
None

>  <ref_pdb>  (1563) 
A0310a

>  <alias>  (1563) 
None

>  <HIPPO Pose ID>  (1563) 
499207

>  <name>  (1563) 
P499207

>  <HIPPO Compound ID>  (1563) 
301788

>  <ref_mols>  (1563) 
A1445a,A0310a

>  <distance_score>  (1563) 
1.696245

>  <inspiration_score>  (1563) 
None

$$$$
P499208
     RDKit          3D

 26 28  0  0  0  0  0  0  0  0999 V2000
   10.4084    9.9414   22.4352 O   0  0  0  0  0  0  0  0  0  0  0  0
    9.8841   10.7585   23.1855 C   0  0  0  0  0  0  0  0  0  0  0  0
   10.3526   12.1677   23.3198 C   0  0  0  0  0  0  0  0  0  0  0  0
    9.2158   13.1651   23.2724 C   0  0  0  0  0  0  0  0  0  0  0  0
    8.5669   13.3792   24.6319 C   0  0  0  0  0  0  0  0  0  0  0  0
    7.8111   12.2208   25.2173 C   0  0  0  0  0  0  0  0  0  0  0  0
    6.8584   12.5225   26.2477 C   0  0  0  0  0  0  0  0  0  0  0  0
    6.1128   11.5189   26.8692 C   0  0  0  0  0  0  0  0  0  0  0  0
    5.3476   11.6539   28.0249 N   0  0  0  0  0  0  0  0  0  0  0  0
    4.9297   12.9213   28.8130 C   0  0  0  0  0  0  0  0  0  0  0  0
    5.0972   14.0503   28.5724 O   0  0  0  0  0  0  0  0  0  0  0  0
    4.2965   12.4285   30.1230 C   0  0  1  0  0  0  0  0  0  0  0  0
    4.6675   13.4663   31.1989 C   0  0  0  0  0  0  0  0  0  0  0  0
    3.7296   12.9928   32.6193 S   0  0  0  0  0  0  0  0  0  0  0  0
    4.5189   12.0466   33.3795 O   0  0  0  0  0  0  0  0  0  0  0  0
    3.1261   14.1680   33.2038 O   0  0  0  0  0  0  0  0  0  0  0  0
    2.4946   12.0842   31.7298 C   0  0  0  0  0  0  0  0  0  0  0  0
    2.7667   12.2811   30.2341 C   0  0  2  0  0  0  0  0  0  0  0  0
    2.1065   11.1308   29.5053 C   0  0  0  0  0  0  0  0  0  0  0  0
    0.8714   10.9123   30.0061 F   0  0  0  0  0  0  0  0  0  0  0  0
    2.7922    9.9783   29.6371 F   0  0  0  0  0  0  0  0  0  0  0  0
    1.9734   11.3845   28.1917 F   0  0  0  0  0  0  0  0  0  0  0  0
    6.2398   10.2327   26.4046 C   0  0  0  0  0  0  0  0  0  0  0  0
    7.1595    9.9477   25.4125 C   0  0  0  0  0  0  0  0  0  0  0  0
    7.9902   10.8907   24.8443 C   0  0  0  0  0  0  0  0  0  0  0  0
    8.8737   10.3056   23.9403 N   0  0  0  0  0  0  0  0  0  0  0  0
  1  2  2  0
  2  3  1  0
  3  4  1  0
  4  5  1  0
  5  6  1  0
  6  7  2  0
  7  8  1  0
  8  9  1  0
  9 10  1  0
 10 11  2  0
 12 10  1  6
 12 13  1  0
 13 14  1  0
 14 15  2  0
 14 16  2  0
 14 17  1  0
 17 18  1  0
 18 19  1  6
 19 20  1  0
 19 21  1  0
 19 22  1  0
  8 23  2  0
 23 24  1  0
 24 25  2  0
 25 26  1  0
 26  2  1  0
 25  6  1  0
 18 12  1  0
M  END
>  <energy_score>  (1564) 
-50.41474

>  <inchikey>  (1564) 
None

>  <smiles>  (1564) 
None

>  <ref_pdb>  (1564) 
A0310a

>  <alias>  (1564) 
None

>  <HIPPO Pose ID>  (1564) 
499208

>  <name>  (1564) 
P499208

>  <HIPPO Compound ID>  (1564) 
301788

>  <ref_mols>  (1564) 
A1445a,A0310a

>  <distance_score>  (1564) 
1.951446

>  <inspiration_score>  (1564) 
None

$$$$
P499209
     RDKit          3D

 26 28  0  0  0  0  0  0  0  0999 V2000
   10.5127    9.9374   22.1779 O   0  0  0  0  0  0  0  0  0  0  0  0
   10.1095   10.7839   22.9672 C   0  0  0  0  0  0  0  0  0  0  0  0
   10.6402   12.1721   23.0949 C   0  0  0  0  0  0  0  0  0  0  0  0
    9.5542   13.2178   22.9785 C   0  0  0  0  0  0  0  0  0  0  0  0
    8.8638   13.4865   24.2979 C   0  0  0  0  0  0  0  0  0  0  0  0
    8.0604   12.3553   24.8753 C   0  0  0  0  0  0  0  0  0  0  0  0
    7.0090   12.7310   25.7520 C   0  0  0  0  0  0  0  0  0  0  0  0
    6.3116   11.7704   26.4664 C   0  0  0  0  0  0  0  0  0  0  0  0
    5.2587   12.0416   27.3094 N   0  0  0  0  0  0  0  0  0  0  0  0
    4.7354   11.2680   28.5469 C   0  0  0  0  0  0  0  0  0  0  0  0
    5.1636   10.3254   29.0863 O   0  0  0  0  0  0  0  0  0  0  0  0
    3.4076   11.8732   28.9665 C   0  0  2  0  0  0  0  0  0  0  0  0
    3.4515   13.3339   29.3908 C   0  0  0  0  0  0  0  0  0  0  0  0
    3.5894   13.3477   31.1569 S   0  0  0  0  0  0  0  0  0  0  0  0
    2.4637   14.0758   31.6970 O   0  0  0  0  0  0  0  0  0  0  0  0
    4.9601   13.6634   31.4958 O   0  0  0  0  0  0  0  0  0  0  0  0
    3.3248   11.6197   31.4249 C   0  0  0  0  0  0  0  0  0  0  0  0
    2.8268   11.0201   30.1196 C   0  0  1  0  0  0  0  0  0  0  0  0
    1.3313   10.9193   30.0110 C   0  0  0  0  0  0  0  0  0  0  0  0
    0.8015   10.3730   31.1172 F   0  0  0  0  0  0  0  0  0  0  0  0
    1.0117   10.1280   28.9588 F   0  0  0  0  0  0  0  0  0  0  0  0
    0.7709   12.1199   29.7992 F   0  0  0  0  0  0  0  0  0  0  0  0
    6.6025   10.4339   26.2920 C   0  0  0  0  0  0  0  0  0  0  0  0
    7.5484   10.0629   25.3702 C   0  0  0  0  0  0  0  0  0  0  0  0
    8.2937   10.9912   24.6694 C   0  0  0  0  0  0  0  0  0  0  0  0
    9.1556   10.3558   23.7945 N   0  0  0  0  0  0  0  0  0  0  0  0
  1  2  2  0
  2  3  1  0
  3  4  1  0
  4  5  1  0
  5  6  1  0
  6  7  2  0
  7  8  1  0
  8  9  1  0
  9 10  1  0
 10 11  2  0
 12 10  1  1
 12 13  1  0
 13 14  1  0
 14 15  2  0
 14 16  2  0
 14 17  1  0
 17 18  1  0
 18 19  1  1
 19 20  1  0
 19 21  1  0
 19 22  1  0
  8 23  2  0
 23 24  1  0
 24 25  2  0
 25 26  1  0
 26  2  1  0
 25  6  1  0
 18 12  1  0
M  END
>  <energy_score>  (1565) 
-34.553161

>  <inchikey>  (1565) 
None

>  <smiles>  (1565) 
None

>  <ref_pdb>  (1565) 
A0310a

>  <alias>  (1565) 
None

>  <HIPPO Pose ID>  (1565) 
499209

>  <name>  (1565) 
P499209

>  <HIPPO Compound ID>  (1565) 
301788

>  <ref_mols>  (1565) 
A1445a,A0310a

>  <distance_score>  (1565) 
1.662524

>  <inspiration_score>  (1565) 
None

$$$$
P499210
     RDKit          3D

 26 28  0  0  0  0  0  0  0  0999 V2000
   10.4325   10.0540   22.4739 O   0  0  0  0  0  0  0  0  0  0  0  0
    9.8145   10.8708   23.1493 C   0  0  0  0  0  0  0  0  0  0  0  0
    9.9837   12.3433   22.9784 C   0  0  0  0  0  0  0  0  0  0  0  0
    9.9928   13.1150   24.2693 C   0  0  0  0  0  0  0  0  0  0  0  0
    8.5865   13.3925   24.7882 C   0  0  0  0  0  0  0  0  0  0  0  0
    7.8272   12.2198   25.3385 C   0  0  0  0  0  0  0  0  0  0  0  0
    6.8626   12.4808   26.3701 C   0  0  0  0  0  0  0  0  0  0  0  0
    6.1289   11.4478   26.9570 C   0  0  0  0  0  0  0  0  0  0  0  0
    5.4152   11.5162   28.1521 N   0  0  0  0  0  0  0  0  0  0  0  0
    4.9403   12.7409   28.9703 C   0  0  0  0  0  0  0  0  0  0  0  0
    5.0054   13.8795   28.7317 O   0  0  0  0  0  0  0  0  0  0  0  0
    4.4127   12.1942   30.3147 C   0  0  1  0  0  0  0  0  0  0  0  0
    4.7763   13.2314   31.4051 C   0  0  0  0  0  0  0  0  0  0  0  0
    3.3402   14.2839   31.5843 S   0  0  0  0  0  0  0  0  0  0  0  0
    2.8457   14.1190   32.9362 O   0  0  0  0  0  0  0  0  0  0  0  0
    3.5943   15.5829   31.0082 O   0  0  0  0  0  0  0  0  0  0  0  0
    2.2757   13.3483   30.5046 C   0  0  0  0  0  0  0  0  0  0  0  0
    2.9046   11.9601   30.4908 C   0  0  1  0  0  0  0  0  0  0  0  0
    2.1480   11.0301   29.5841 C   0  0  0  0  0  0  0  0  0  0  0  0
    0.9383   10.7713   30.1273 F   0  0  0  0  0  0  0  0  0  0  0  0
    2.7779    9.8461   29.4471 F   0  0  0  0  0  0  0  0  0  0  0  0
    1.9509   11.5408   28.3584 F   0  0  0  0  0  0  0  0  0  0  0  0
    6.2451   10.1876   26.4248 C   0  0  0  0  0  0  0  0  0  0  0  0
    7.1659    9.9421   25.4218 C   0  0  0  0  0  0  0  0  0  0  0  0
    7.9978   10.9094   24.8982 C   0  0  0  0  0  0  0  0  0  0  0  0
    8.9051   10.3663   23.9931 N   0  0  0  0  0  0  0  0  0  0  0  0
  1  2  2  0
  2  3  1  0
  3  4  1  0
  4  5  1  0
  5  6  1  0
  6  7  2  0
  7  8  1  0
  8  9  1  0
  9 10  1  0
 10 11  2  0
 12 10  1  6
 12 13  1  0
 13 14  1  0
 14 15  2  0
 14 16  2  0
 14 17  1  0
 17 18  1  0
 18 19  1  6
 19 20  1  0
 19 21  1  0
 19 22  1  0
  8 23  2  0
 23 24  1  0
 24 25  2  0
 25 26  1  0
 26  2  1  0
 25  6  1  0
 18 12  1  0
M  END
>  <energy_score>  (1566) 
-26.880022

>  <inchikey>  (1566) 
None

>  <smiles>  (1566) 
None

>  <ref_pdb>  (1566) 
A0310a

>  <alias>  (1566) 
None

>  <HIPPO Pose ID>  (1566) 
499210

>  <name>  (1566) 
P499210

>  <HIPPO Compound ID>  (1566) 
301788

>  <ref_mols>  (1566) 
A1445a,A0310a

>  <distance_score>  (1566) 
1.934765

>  <inspiration_score>  (1566) 
None

$$$$
P499211
     RDKit          3D

 26 28  0  0  0  0  0  0  0  0999 V2000
   10.4301    9.8168   22.1993 O   0  0  0  0  0  0  0  0  0  0  0  0
   10.0559   10.7129   22.9550 C   0  0  0  0  0  0  0  0  0  0  0  0
   10.5184   12.1340   22.8211 C   0  0  0  0  0  0  0  0  0  0  0  0
   10.3505   13.0378   24.0134 C   0  0  0  0  0  0  0  0  0  0  0  0
    8.8992   13.4306   24.2113 C   0  0  0  0  0  0  0  0  0  0  0  0
    8.0795   12.3646   24.8720 C   0  0  0  0  0  0  0  0  0  0  0  0
    7.0032   12.7958   25.6891 C   0  0  0  0  0  0  0  0  0  0  0  0
    6.2070   11.8770   26.3613 C   0  0  0  0  0  0  0  0  0  0  0  0
    5.1078   12.2484   27.1156 N   0  0  0  0  0  0  0  0  0  0  0  0
    4.1462   11.4041   27.9524 C   0  0  0  0  0  0  0  0  0  0  0  0
    4.1647   10.2708   28.2070 O   0  0  0  0  0  0  0  0  0  0  0  0
    2.9678   12.1539   28.4167 C   0  0  2  0  0  0  0  0  0  0  0  0
    2.8276   13.2734   29.3939 C   0  0  0  0  0  0  0  0  0  0  0  0
    2.6511   11.8410   29.8891 C   0  0  0  0  0  0  0  0  0  0  0  0
    3.6582   11.3631   30.8587 C   0  0  0  0  0  0  0  0  0  0  0  0
    4.9055   11.7949   30.5433 F   0  0  0  0  0  0  0  0  0  0  0  0
    3.6976   10.0202   30.9682 F   0  0  0  0  0  0  0  0  0  0  0  0
    3.3862   11.8672   32.0870 F   0  0  0  0  0  0  0  0  0  0  0  0
    1.3894   11.1088   30.0784 C   0  0  0  0  0  0  0  0  0  0  0  0
    1.0386   11.0172   31.3752 F   0  0  0  0  0  0  0  0  0  0  0  0
    1.4538    9.8573   29.5672 F   0  0  0  0  0  0  0  0  0  0  0  0
    0.3862   11.7398   29.4232 F   0  0  0  0  0  0  0  0  0  0  0  0
    6.4708   10.5272   26.2275 C   0  0  0  0  0  0  0  0  0  0  0  0
    7.4822   10.1078   25.3952 C   0  0  0  0  0  0  0  0  0  0  0  0
    8.2845   10.9945   24.7054 C   0  0  0  0  0  0  0  0  0  0  0  0
    9.1667   10.3267   23.8701 N   0  0  0  0  0  0  0  0  0  0  0  0
  1  2  2  0
  2  3  1  0
  3  4  1  0
  4  5  1  0
  5  6  1  0
  6  7  2  0
  7  8  1  0
  8  9  1  0
  9 10  1  0
 10 11  2  0
 12 10  1  1
 12 13  1  0
 13 14  1  0
 14 15  1  0
 15 16  1  0
 15 17  1  0
 15 18  1  0
 14 19  1  0
 19 20  1  0
 19 21  1  0
 19 22  1  0
  8 23  2  0
 23 24  1  0
 24 25  2  0
 25 26  1  0
 26  2  1  0
 25  6  1  0
 14 12  1  0
M  END
>  <energy_score>  (1567) 
-38.009412

>  <inchikey>  (1567) 
None

>  <smiles>  (1567) 
None

>  <ref_pdb>  (1567) 
A0310a

>  <alias>  (1567) 
None

>  <HIPPO Pose ID>  (1567) 
499211

>  <name>  (1567) 
P499211

>  <HIPPO Compound ID>  (1567) 
301789

>  <ref_mols>  (1567) 
A1445a,A0310a

>  <distance_score>  (1567) 
1.729529

>  <inspiration_score>  (1567) 
None

$$$$
P499212
     RDKit          3D

 26 29  0  0  0  0  0  0  0  0999 V2000
   10.4159    9.6845   22.2858 O   0  0  0  0  0  0  0  0  0  0  0  0
   10.0027   10.5530   23.0492 C   0  0  0  0  0  0  0  0  0  0  0  0
   10.5927   11.9249   23.1368 C   0  0  0  0  0  0  0  0  0  0  0  0
    9.5630   13.0230   23.0393 C   0  0  0  0  0  0  0  0  0  0  0  0
    8.9724   13.3442   24.3902 C   0  0  0  0  0  0  0  0  0  0  0  0
    8.1116   12.2815   25.0012 C   0  0  0  0  0  0  0  0  0  0  0  0
    7.1483   12.7479   25.9318 C   0  0  0  0  0  0  0  0  0  0  0  0
    6.2905   11.8789   26.6003 C   0  0  0  0  0  0  0  0  0  0  0  0
    5.3370   12.3806   27.4705 N   0  0  0  0  0  0  0  0  0  0  0  0
    4.2641   11.6440   28.3301 C   0  0  0  0  0  0  0  0  0  0  0  0
    4.0768   10.5031   28.4901 O   0  0  0  0  0  0  0  0  0  0  0  0
    3.3985   12.7416   28.9327 C   0  0  2  0  0  0  0  0  0  0  0  0
    4.1713   13.4929   30.0481 C   0  0  1  0  0  0  0  0  0  0  0  0
    3.4904   14.8488   30.2980 C   0  0  0  0  0  0  0  0  0  0  0  0
    2.1841   14.4495   30.9959 C   0  0  0  0  0  0  0  0  0  0  0  0
    2.2770   12.9121   31.0532 C   0  0  2  0  0  0  0  0  0  0  0  0
    3.7705   12.7092   31.2956 C   0  0  0  0  0  0  0  0  0  0  0  0
    2.0768   12.3389   29.6260 C   0  0  2  0  0  0  0  0  0  0  0  0
    1.6014   10.8960   29.6841 C   0  0  0  0  0  0  0  0  0  0  0  0
    2.3131   10.1364   30.5331 F   0  0  0  0  0  0  0  0  0  0  0  0
    1.5404   10.3012   28.4771 F   0  0  0  0  0  0  0  0  0  0  0  0
    0.3255   10.9058   30.1478 F   0  0  0  0  0  0  0  0  0  0  0  0
    6.3780   10.5293   26.3504 C   0  0  0  0  0  0  0  0  0  0  0  0
    7.3036   10.0784   25.4249 C   0  0  0  0  0  0  0  0  0  0  0  0
    8.1844   10.9111   24.7532 C   0  0  0  0  0  0  0  0  0  0  0  0
    8.9991   10.2038   23.8708 N   0  0  0  0  0  0  0  0  0  0  0  0
  1  2  2  0
  2  3  1  0
  3  4  1  0
  4  5  1  0
  5  6  1  0
  6  7  2  0
  7  8  1  0
  8  9  1  0
  9 10  1  0
 10 11  2  0
 12 10  1  1
 12 13  1  0
 13 14  1  1
 14 15  1  0
 16 15  1  6
 16 17  1  0
 16 18  1  0
 18 19  1  1
 19 20  1  0
 19 21  1  0
 19 22  1  0
  8 23  2  0
 23 24  1  0
 24 25  2  0
 25 26  1  0
 26  2  1  0
 25  6  1  0
 18 12  1  0
 17 13  1  0
M  END
>  <energy_score>  (1568) 
-43.688361

>  <inchikey>  (1568) 
None

>  <smiles>  (1568) 
None

>  <ref_pdb>  (1568) 
A0310a

>  <alias>  (1568) 
None

>  <HIPPO Pose ID>  (1568) 
499212

>  <name>  (1568) 
P499212

>  <HIPPO Compound ID>  (1568) 
301790

>  <ref_mols>  (1568) 
A1445a,A0310a

>  <distance_score>  (1568) 
1.845013

>  <inspiration_score>  (1568) 
None

$$$$
P499213
     RDKit          3D

 26 29  0  0  0  0  0  0  0  0999 V2000
   10.4168    9.6722   22.2881 O   0  0  0  0  0  0  0  0  0  0  0  0
   10.0138   10.5824   23.0127 C   0  0  0  0  0  0  0  0  0  0  0  0
   10.5036   11.9940   22.8640 C   0  0  0  0  0  0  0  0  0  0  0  0
   10.3178   12.9389   24.0166 C   0  0  0  0  0  0  0  0  0  0  0  0
    8.8644   13.3298   24.1687 C   0  0  0  0  0  0  0  0  0  0  0  0
    8.0531   12.3026   24.8873 C   0  0  0  0  0  0  0  0  0  0  0  0
    7.0319   12.7827   25.7408 C   0  0  0  0  0  0  0  0  0  0  0  0
    6.2192   11.9140   26.4644 C   0  0  0  0  0  0  0  0  0  0  0  0
    5.2263   12.4214   27.2846 N   0  0  0  0  0  0  0  0  0  0  0  0
    4.2485   11.6950   28.2571 C   0  0  0  0  0  0  0  0  0  0  0  0
    4.1871   10.5714   28.5679 O   0  0  0  0  0  0  0  0  0  0  0  0
    3.2991   12.7674   28.7630 C   0  0  2  0  0  0  0  0  0  0  0  0
    3.9799   13.7837   29.7199 C   0  0  2  0  0  0  0  0  0  0  0  0
    4.6381   13.0527   30.9029 C   0  0  0  0  0  0  0  0  0  0  0  0
    3.4321   12.5635   31.7125 C   0  0  0  0  0  0  0  0  0  0  0  0
    2.2314   13.0771   30.8993 C   0  0  1  0  0  0  0  0  0  0  0  0
    2.7724   14.4237   30.4061 C   0  0  0  0  0  0  0  0  0  0  0  0
    2.0515   12.3258   29.5570 C   0  0  2  0  0  0  0  0  0  0  0  0
    1.6173   10.8784   29.6802 C   0  0  0  0  0  0  0  0  0  0  0  0
    2.3540   10.1461   30.5262 F   0  0  0  0  0  0  0  0  0  0  0  0
    1.5545   10.2525   28.4862 F   0  0  0  0  0  0  0  0  0  0  0  0
    0.3492   10.8730   30.1632 F   0  0  0  0  0  0  0  0  0  0  0  0
    6.3927   10.5557   26.3204 C   0  0  0  0  0  0  0  0  0  0  0  0
    7.3614   10.0929   25.4455 C   0  0  0  0  0  0  0  0  0  0  0  0
    8.2027   10.9284   24.7309 C   0  0  0  0  0  0  0  0  0  0  0  0
    9.0704   10.2298   23.8975 N   0  0  0  0  0  0  0  0  0  0  0  0
  1  2  2  0
  2  3  1  0
  3  4  1  0
  4  5  1  0
  5  6  1  0
  6  7  2  0
  7  8  1  0
  8  9  1  0
  9 10  1  0
 10 11  2  0
 12 10  1  1
 12 13  1  0
 13 14  1  1
 14 15  1  0
 16 15  1  1
 16 17  1  0
 16 18  1  0
 18 19  1  1
 19 20  1  0
 19 21  1  0
 19 22  1  0
  8 23  2  0
 23 24  1  0
 24 25  2  0
 25 26  1  0
 26  2  1  0
 25  6  1  0
 18 12  1  0
 17 13  1  0
M  END
>  <energy_score>  (1569) 
-39.4493

>  <inchikey>  (1569) 
None

>  <smiles>  (1569) 
None

>  <ref_pdb>  (1569) 
A0310a

>  <alias>  (1569) 
None

>  <HIPPO Pose ID>  (1569) 
499213

>  <name>  (1569) 
P499213

>  <HIPPO Compound ID>  (1569) 
301790

>  <ref_mols>  (1569) 
A1445a,A0310a

>  <distance_score>  (1569) 
1.749971

>  <inspiration_score>  (1569) 
None

$$$$
P499214
     RDKit          3D

 26 29  0  0  0  0  0  0  0  0999 V2000
   10.5067    9.7436   22.2534 O   0  0  0  0  0  0  0  0  0  0  0  0
   10.0564   10.6430   22.9598 C   0  0  0  0  0  0  0  0  0  0  0  0
   10.5254   12.0649   22.8479 C   0  0  0  0  0  0  0  0  0  0  0  0
   10.2513   12.9985   23.9944 C   0  0  0  0  0  0  0  0  0  0  0  0
    8.7752   13.3255   24.0972 C   0  0  0  0  0  0  0  0  0  0  0  0
    8.0088   12.2737   24.8293 C   0  0  0  0  0  0  0  0  0  0  0  0
    6.9940   12.7036   25.7182 C   0  0  0  0  0  0  0  0  0  0  0  0
    6.2770   11.7846   26.4740 C   0  0  0  0  0  0  0  0  0  0  0  0
    5.3270   12.1768   27.3969 N   0  0  0  0  0  0  0  0  0  0  0  0
    4.6401   11.3769   28.5407 C   0  0  0  0  0  0  0  0  0  0  0  0
    4.8299   10.2892   28.9236 O   0  0  0  0  0  0  0  0  0  0  0  0
    3.5112   12.2405   29.0838 C   0  0  2  0  0  0  0  0  0  0  0  0
    3.9573   13.5906   29.7023 C   0  0  1  0  0  0  0  0  0  0  0  0
    2.7184   14.5028   29.7626 C   0  0  0  0  0  0  0  0  0  0  0  0
    1.8729   13.8515   30.8665 C   0  0  0  0  0  0  0  0  0  0  0  0
    2.7425   12.6677   31.3222 C   0  0  2  0  0  0  0  0  0  0  0  0
    4.1482   13.2551   31.1821 C   0  0  0  0  0  0  0  0  0  0  0  0
    2.8171   11.5377   30.2772 C   0  0  1  0  0  0  0  0  0  0  0  0
    1.5274   10.8487   29.9049 C   0  0  0  0  0  0  0  0  0  0  0  0
    0.8965   10.4087   31.0135 F   0  0  0  0  0  0  0  0  0  0  0  0
    1.7424    9.7810   29.1065 F   0  0  0  0  0  0  0  0  0  0  0  0
    0.6890   11.6691   29.2407 F   0  0  0  0  0  0  0  0  0  0  0  0
    6.5066   10.4370   26.2995 C   0  0  0  0  0  0  0  0  0  0  0  0
    7.4454   10.0232   25.3784 C   0  0  0  0  0  0  0  0  0  0  0  0
    8.2166   10.9074   24.6540 C   0  0  0  0  0  0  0  0  0  0  0  0
    9.0950   10.2554   23.8026 N   0  0  0  0  0  0  0  0  0  0  0  0
  1  2  2  0
  2  3  1  0
  3  4  1  0
  4  5  1  0
  5  6  1  0
  6  7  2  0
  7  8  1  0
  8  9  1  0
  9 10  1  0
 10 11  2  0
 12 10  1  1
 12 13  1  0
 13 14  1  1
 14 15  1  0
 16 15  1  6
 16 17  1  0
 16 18  1  0
 18 19  1  6
 19 20  1  0
 19 21  1  0
 19 22  1  0
  8 23  2  0
 23 24  1  0
 24 25  2  0
 25 26  1  0
 26  2  1  0
 25  6  1  0
 18 12  1  0
 17 13  1  0
M  END
>  <energy_score>  (1570) 
-12.546104

>  <inchikey>  (1570) 
None

>  <smiles>  (1570) 
None

>  <ref_pdb>  (1570) 
A0310a

>  <alias>  (1570) 
None

>  <HIPPO Pose ID>  (1570) 
499214

>  <name>  (1570) 
P499214

>  <HIPPO Compound ID>  (1570) 
301790

>  <ref_mols>  (1570) 
A1445a,A0310a

>  <distance_score>  (1570) 
1.612032

>  <inspiration_score>  (1570) 
None

$$$$
P499215
     RDKit          3D

 26 29  0  0  0  0  0  0  0  0999 V2000
   10.4286    9.7077   22.2675 O   0  0  0  0  0  0  0  0  0  0  0  0
   10.0037   10.6044   22.9960 C   0  0  0  0  0  0  0  0  0  0  0  0
   10.4734   12.0235   22.8676 C   0  0  0  0  0  0  0  0  0  0  0  0
   10.3732   12.9120   24.0747 C   0  0  0  0  0  0  0  0  0  0  0  0
    8.9425   13.3186   24.3494 C   0  0  0  0  0  0  0  0  0  0  0  0
    8.1266   12.2630   25.0237 C   0  0  0  0  0  0  0  0  0  0  0  0
    7.1859   12.7031   25.9892 C   0  0  0  0  0  0  0  0  0  0  0  0
    6.3191   11.8138   26.6169 C   0  0  0  0  0  0  0  0  0  0  0  0
    5.4653   12.2404   27.6212 N   0  0  0  0  0  0  0  0  0  0  0  0
    4.3353   11.4822   28.3756 C   0  0  0  0  0  0  0  0  0  0  0  0
    3.9038   10.4106   28.2108 O   0  0  0  0  0  0  0  0  0  0  0  0
    3.8853   12.3623   29.5374 C   0  0  1  0  0  0  0  0  0  0  0  0
    3.5878   13.8526   29.2446 C   0  0  1  0  0  0  0  0  0  0  0  0
    2.4080   13.9863   28.2658 C   0  0  0  0  0  0  0  0  0  0  0  0
    1.1951   13.6822   29.1507 C   0  0  0  0  0  0  0  0  0  0  0  0
    1.8446   13.2484   30.4751 C   0  0  2  0  0  0  0  0  0  0  0  0
    2.9646   14.2820   30.5733 C   0  0  0  0  0  0  0  0  0  0  0  0
    2.6321   11.9115   30.3444 C   0  0  1  0  0  0  0  0  0  0  0  0
    1.7505   10.7568   29.8843 C   0  0  0  0  0  0  0  0  0  0  0  0
    0.6807   10.6823   30.7176 F   0  0  0  0  0  0  0  0  0  0  0  0
    2.3528    9.5562   29.9623 F   0  0  0  0  0  0  0  0  0  0  0  0
    1.2742   10.9178   28.6343 F   0  0  0  0  0  0  0  0  0  0  0  0
    6.3564   10.4828   26.2661 C   0  0  0  0  0  0  0  0  0  0  0  0
    7.2986   10.0523   25.3490 C   0  0  0  0  0  0  0  0  0  0  0  0
    8.1943   10.9046   24.7262 C   0  0  0  0  0  0  0  0  0  0  0  0
    9.0365   10.2351   23.8458 N   0  0  0  0  0  0  0  0  0  0  0  0
  1  2  2  0
  2  3  1  0
  3  4  1  0
  4  5  1  0
  5  6  1  0
  6  7  2  0
  7  8  1  0
  8  9  1  0
  9 10  1  0
 10 11  2  0
 12 10  1  6
 12 13  1  0
 13 14  1  6
 14 15  1  0
 16 15  1  6
 16 17  1  0
 16 18  1  0
 18 19  1  6
 19 20  1  0
 19 21  1  0
 19 22  1  0
  8 23  2  0
 23 24  1  0
 24 25  2  0
 25 26  1  0
 26  2  1  0
 25  6  1  0
 18 12  1  0
 17 13  1  0
M  END
>  <energy_score>  (1571) 
-37.109267

>  <inchikey>  (1571) 
None

>  <smiles>  (1571) 
None

>  <ref_pdb>  (1571) 
A0310a

>  <alias>  (1571) 
None

>  <HIPPO Pose ID>  (1571) 
499215

>  <name>  (1571) 
P499215

>  <HIPPO Compound ID>  (1571) 
301790

>  <ref_mols>  (1571) 
A1445a,A0310a

>  <distance_score>  (1571) 
1.739768

>  <inspiration_score>  (1571) 
None

$$$$
P499216
     RDKit          3D

 26 29  0  0  0  0  0  0  0  0999 V2000
   10.3925    9.7787   22.3537 O   0  0  0  0  0  0  0  0  0  0  0  0
    9.9354   10.6633   23.0772 C   0  0  0  0  0  0  0  0  0  0  0  0
   10.3401   12.0977   22.9317 C   0  0  0  0  0  0  0  0  0  0  0  0
   10.1941   12.9757   24.1441 C   0  0  0  0  0  0  0  0  0  0  0  0
    8.7457   13.3337   24.4300 C   0  0  0  0  0  0  0  0  0  0  0  0
    7.9366   12.2473   25.0685 C   0  0  0  0  0  0  0  0  0  0  0  0
    6.8777   12.6445   25.9396 C   0  0  0  0  0  0  0  0  0  0  0  0
    6.0260   11.7148   26.5427 C   0  0  0  0  0  0  0  0  0  0  0  0
    4.9471   12.0577   27.3551 N   0  0  0  0  0  0  0  0  0  0  0  0
    4.5462   13.4221   27.9742 C   0  0  0  0  0  0  0  0  0  0  0  0
    5.0152   14.4827   27.8358 O   0  0  0  0  0  0  0  0  0  0  0  0
    3.2526   13.2066   28.8045 C   0  0  2  0  0  0  0  0  0  0  0  0
    2.9516   14.4712   29.6736 C   0  0  2  0  0  0  0  0  0  0  0  0
    4.0973   14.7675   30.6681 C   0  0  0  0  0  0  0  0  0  0  0  0
    4.0046   13.6071   31.6617 C   0  0  0  0  0  0  0  0  0  0  0  0
    2.7861   12.8239   31.1510 C   0  0  1  0  0  0  0  0  0  0  0  0
    1.8879   13.9488   30.6336 C   0  0  0  0  0  0  0  0  0  0  0  0
    3.1805   12.0621   29.8616 C   0  0  1  0  0  0  0  0  0  0  0  0
    2.1249   10.9982   29.5531 C   0  0  0  0  0  0  0  0  0  0  0  0
    1.9327   10.1894   30.6178 F   0  0  0  0  0  0  0  0  0  0  0  0
    2.5176   10.2150   28.5233 F   0  0  0  0  0  0  0  0  0  0  0  0
    0.9331   11.5230   29.2137 F   0  0  0  0  0  0  0  0  0  0  0  0
    6.2278   10.3789   26.2827 C   0  0  0  0  0  0  0  0  0  0  0  0
    7.2489   10.0025   25.4223 C   0  0  0  0  0  0  0  0  0  0  0  0
    8.1073   10.8947   24.8045 C   0  0  0  0  0  0  0  0  0  0  0  0
    9.0014   10.2575   23.9482 N   0  0  0  0  0  0  0  0  0  0  0  0
  1  2  2  0
  2  3  1  0
  3  4  1  0
  4  5  1  0
  5  6  1  0
  6  7  2  0
  7  8  1  0
  8  9  1  0
  9 10  1  0
 10 11  2  0
 12 10  1  1
 12 13  1  0
 13 14  1  1
 14 15  1  0
 16 15  1  6
 16 17  1  0
 16 18  1  0
 18 19  1  6
 19 20  1  0
 19 21  1  0
 19 22  1  0
  8 23  2  0
 23 24  1  0
 24 25  2  0
 25 26  1  0
 26  2  1  0
 25  6  1  0
 18 12  1  0
 17 13  1  0
M  END
>  <energy_score>  (1572) 
-45.541948

>  <inchikey>  (1572) 
None

>  <smiles>  (1572) 
None

>  <ref_pdb>  (1572) 
A0310a

>  <alias>  (1572) 
None

>  <HIPPO Pose ID>  (1572) 
499216

>  <name>  (1572) 
P499216

>  <HIPPO Compound ID>  (1572) 
301790

>  <ref_mols>  (1572) 
A1445a,A0310a

>  <distance_score>  (1572) 
1.877769

>  <inspiration_score>  (1572) 
None

$$$$
P499217
     RDKit          3D

 26 28  0  0  0  0  0  0  0  0999 V2000
    8.4292    9.5272   24.4107 C   0  0  0  0  0  0  0  0  0  0  0  0
    7.7771   10.7375   25.0114 C   0  0  0  0  0  0  0  0  0  0  0  0
    6.9322   10.5882   26.1303 C   0  0  0  0  0  0  0  0  0  0  0  0
    6.2437   11.6708   26.6715 C   0  0  0  0  0  0  0  0  0  0  0  0
    5.4461   11.5932   27.8049 N   0  0  0  0  0  0  0  0  0  0  0  0
    5.2412   10.4328   28.8170 C   0  0  0  0  0  0  0  0  0  0  0  0
    5.6539    9.3368   28.8084 O   0  0  0  0  0  0  0  0  0  0  0  0
    4.2998   10.9331   29.9675 C   0  0  1  0  0  0  0  0  0  0  0  0
    4.6440   12.2750   30.6618 C   0  0  0  0  0  0  0  0  0  0  0  0
    3.1570   12.7032   30.5677 C   0  0  0  0  0  0  0  0  0  0  0  0
    2.9521   14.0697   29.9113 C   0  0  0  0  0  0  0  0  0  0  0  0
    2.4647   12.6505   31.9306 C   0  0  0  0  0  0  0  0  0  0  0  0
    2.9154   11.5141   29.5736 C   0  0  2  0  0  0  0  0  0  0  0  0
    1.7097   10.6258   29.7458 C   0  0  0  0  0  0  0  0  0  0  0  0
    1.5824   10.1746   31.0090 F   0  0  0  0  0  0  0  0  0  0  0  0
    1.7752    9.5605   28.9194 F   0  0  0  0  0  0  0  0  0  0  0  0
    0.5970   11.3213   29.4252 F   0  0  0  0  0  0  0  0  0  0  0  0
    6.3443   12.9118   26.0671 C   0  0  0  0  0  0  0  0  0  0  0  0
    7.1800   13.0796   24.9737 C   0  0  0  0  0  0  0  0  0  0  0  0
    7.9281   12.0097   24.4507 C   0  0  0  0  0  0  0  0  0  0  0  0
    8.8168   12.2551   23.3810 N   0  0  0  0  0  0  0  0  0  0  0  0
   10.1178   11.6591   23.2844 C   0  0  0  0  0  0  0  0  0  0  0  0
   11.0145   12.8319   22.9907 C   0  0  0  0  0  0  0  0  0  0  0  0
   10.1463   13.7222   22.1298 C   0  0  0  0  0  0  0  0  0  0  0  0
    8.7566   13.3947   22.5872 C   0  0  0  0  0  0  0  0  0  0  0  0
    7.7647   14.0238   22.2541 O   0  0  0  0  0  0  0  0  0  0  0  0
  1  2  1  0
  2  3  2  0
  3  4  1  0
  4  5  1  0
  5  6  1  0
  6  7  2  0
  8  6  1  6
  8  9  1  0
  9 10  1  0
 10 11  1  0
 10 12  1  0
 10 13  1  0
 13 14  1  1
 14 15  1  0
 14 16  1  0
 14 17  1  0
  4 18  2  0
 18 19  1  0
 19 20  2  0
 20 21  1  0
 21 22  1  0
 22 23  1  0
 23 24  1  0
 24 25  1  0
 25 26  2  0
 20  2  1  0
 25 21  1  0
 13  8  1  0
M  END
>  <energy_score>  (1573) 
-47.318509

>  <inchikey>  (1573) 
None

>  <smiles>  (1573) 
None

>  <ref_pdb>  (1573) 
A0310a

>  <alias>  (1573) 
None

>  <HIPPO Pose ID>  (1573) 
499217

>  <name>  (1573) 
P499217

>  <HIPPO Compound ID>  (1573) 
301791

>  <ref_mols>  (1573) 
A1445a,A0310a

>  <distance_score>  (1573) 
1.988911

>  <inspiration_score>  (1573) 
None

$$$$
P499218
     RDKit          3D

 26 28  0  0  0  0  0  0  0  0999 V2000
    3.5778   13.2853   27.1264 C   0  0  0  0  0  0  0  0  0  0  0  0
    2.8439   12.3257   28.0578 C   0  0  2  0  0  0  0  0  0  0  0  0
    2.4529   13.0901   29.2160 O   0  0  0  0  0  0  0  0  0  0  0  0
    2.9033   12.4173   30.3930 C   0  0  0  0  0  0  0  0  0  0  0  0
    3.0863   10.9692   30.0011 C   0  0  1  0  0  0  0  0  0  0  0  0
    1.7421   10.2746   30.0667 C   0  0  0  0  0  0  0  0  0  0  0  0
    1.2814   10.2385   31.3330 F   0  0  0  0  0  0  0  0  0  0  0  0
    1.8557    8.9977   29.6358 F   0  0  0  0  0  0  0  0  0  0  0  0
    0.8069   10.8637   29.2948 F   0  0  0  0  0  0  0  0  0  0  0  0
    3.5781   11.0535   28.5660 C   0  0  2  0  0  0  0  0  0  0  0  0
    5.0754   11.3119   28.4551 C   0  0  0  0  0  0  0  0  0  0  0  0
    5.6542   11.9300   29.2641 O   0  0  0  0  0  0  0  0  0  0  0  0
    5.5648   10.7156   27.0944 N   0  0  0  0  0  0  0  0  0  0  0  0
    6.7799   10.8385   26.4465 C   0  0  0  0  0  0  0  0  0  0  0  0
    7.2215   10.0357   25.4034 C   0  0  0  0  0  0  0  0  0  0  0  0
    8.2482   10.4419   24.5368 C   0  0  0  0  0  0  0  0  0  0  0  0
    8.6161   11.7772   24.5736 C   0  0  0  0  0  0  0  0  0  0  0  0
    8.2100   12.5643   25.6539 C   0  0  0  0  0  0  0  0  0  0  0  0
    7.3848   12.0534   26.6417 C   0  0  0  0  0  0  0  0  0  0  0  0
    8.4729   14.0376   25.7036 C   0  0  0  0  0  0  0  0  0  0  0  0
    7.3937   14.6798   24.8587 C   0  0  0  0  0  0  0  0  0  0  0  0
    7.3598   14.1142   23.4482 C   0  0  0  0  0  0  0  0  0  0  0  0
    8.7000   13.5960   22.9182 C   0  0  0  0  0  0  0  0  0  0  0  0
    9.2507   14.1948   21.9948 O   0  0  0  0  0  0  0  0  0  0  0  0
    9.2038   12.4069   23.4571 N   0  0  0  0  0  0  0  0  0  0  0  0
   10.4319   11.8448   22.9288 C   0  0  0  0  0  0  0  0  0  0  0  0
  2  1  1  6
  2  3  1  0
  3  4  1  0
  4  5  1  0
  5  6  1  6
  6  7  1  0
  6  8  1  0
  6  9  1  0
  5 10  1  0
 10 11  1  1
 11 12  2  0
 11 13  1  0
 13 14  1  0
 14 15  2  0
 15 16  1  0
 16 17  2  0
 17 18  1  0
 18 19  2  0
 18 20  1  0
 20 21  1  0
 21 22  1  0
 22 23  1  0
 23 24  2  0
 23 25  1  0
 25 26  1  0
 10  2  1  0
 19 14  1  0
 25 17  1  0
M  END
>  <energy_score>  (1574) 
-31.898249

>  <inchikey>  (1574) 
None

>  <smiles>  (1574) 
None

>  <ref_pdb>  (1574) 
A0310a

>  <alias>  (1574) 
None

>  <HIPPO Pose ID>  (1574) 
499218

>  <name>  (1574) 
P499218

>  <HIPPO Compound ID>  (1574) 
301797

>  <ref_mols>  (1574) 
A1445a,A0310a

>  <distance_score>  (1574) 
1.738618

>  <inspiration_score>  (1574) 
None

$$$$
P499219
     RDKit          3D

 26 28  0  0  0  0  0  0  0  0999 V2000
    3.5876   13.2822   27.1245 C   0  0  0  0  0  0  0  0  0  0  0  0
    2.8493   12.3191   28.0488 C   0  0  2  0  0  0  0  0  0  0  0  0
    2.4503   13.0798   29.2069 O   0  0  0  0  0  0  0  0  0  0  0  0
    2.9044   12.4096   30.3840 C   0  0  0  0  0  0  0  0  0  0  0  0
    3.0867   10.9615   29.9924 C   0  0  1  0  0  0  0  0  0  0  0  0
    1.7414   10.2689   30.0549 C   0  0  0  0  0  0  0  0  0  0  0  0
    1.2765   10.2325   31.3195 F   0  0  0  0  0  0  0  0  0  0  0  0
    1.8522    8.9914   29.6234 F   0  0  0  0  0  0  0  0  0  0  0  0
    0.8077   10.8574   29.2800 F   0  0  0  0  0  0  0  0  0  0  0  0
    3.5813   11.0459   28.5580 C   0  0  2  0  0  0  0  0  0  0  0  0
    5.0792   11.3022   28.4497 C   0  0  0  0  0  0  0  0  0  0  0  0
    5.6581   11.9155   29.2622 O   0  0  0  0  0  0  0  0  0  0  0  0
    5.5689   10.7116   27.0868 N   0  0  0  0  0  0  0  0  0  0  0  0
    6.7846   10.8356   26.4409 C   0  0  0  0  0  0  0  0  0  0  0  0
    7.2280   10.0332   25.3982 C   0  0  0  0  0  0  0  0  0  0  0  0
    8.2545   10.4412   24.5327 C   0  0  0  0  0  0  0  0  0  0  0  0
    8.6207   11.7770   24.5703 C   0  0  0  0  0  0  0  0  0  0  0  0
    8.2128   12.5637   25.6498 C   0  0  0  0  0  0  0  0  0  0  0  0
    7.3877   12.0514   26.6368 C   0  0  0  0  0  0  0  0  0  0  0  0
    8.4732   14.0375   25.6989 C   0  0  0  0  0  0  0  0  0  0  0  0
    7.3931   14.6778   24.8538 C   0  0  0  0  0  0  0  0  0  0  0  0
    7.3592   14.1125   23.4431 C   0  0  0  0  0  0  0  0  0  0  0  0
    8.6981   13.5929   22.9112 C   0  0  0  0  0  0  0  0  0  0  0  0
    9.2442   14.1836   21.9797 O   0  0  0  0  0  0  0  0  0  0  0  0
    9.2065   12.4069   23.4530 N   0  0  0  0  0  0  0  0  0  0  0  0
   10.4449   11.8570   22.9368 C   0  0  0  0  0  0  0  0  0  0  0  0
  2  1  1  6
  2  3  1  0
  3  4  1  0
  4  5  1  0
  5  6  1  6
  6  7  1  0
  6  8  1  0
  6  9  1  0
  5 10  1  0
 10 11  1  1
 11 12  2  0
 11 13  1  0
 13 14  1  0
 14 15  2  0
 15 16  1  0
 16 17  2  0
 17 18  1  0
 18 19  2  0
 18 20  1  0
 20 21  1  0
 21 22  1  0
 22 23  1  0
 23 24  2  0
 23 25  1  0
 25 26  1  0
 10  2  1  0
 19 14  1  0
 25 17  1  0
M  END
>  <energy_score>  (1575) 
-57.843135

>  <inchikey>  (1575) 
None

>  <smiles>  (1575) 
None

>  <ref_pdb>  (1575) 
A0310a

>  <alias>  (1575) 
None

>  <HIPPO Pose ID>  (1575) 
499219

>  <name>  (1575) 
P499219

>  <HIPPO Compound ID>  (1575) 
301797

>  <ref_mols>  (1575) 
A1445a,A0310a

>  <distance_score>  (1575) 
1.640974

>  <inspiration_score>  (1575) 
None

$$$$
P499220
     RDKit          3D

 26 28  0  0  0  0  0  0  0  0999 V2000
    3.5919   13.2837   27.1230 C   0  0  0  0  0  0  0  0  0  0  0  0
    2.8522   12.3211   28.0466 C   0  0  2  0  0  0  0  0  0  0  0  0
    2.4528   13.0818   29.2043 O   0  0  0  0  0  0  0  0  0  0  0  0
    2.9065   12.4122   30.3817 C   0  0  0  0  0  0  0  0  0  0  0  0
    3.0883   10.9639   29.9907 C   0  0  1  0  0  0  0  0  0  0  0  0
    1.7431   10.2712   30.0534 C   0  0  0  0  0  0  0  0  0  0  0  0
    1.2779   10.2350   31.3179 F   0  0  0  0  0  0  0  0  0  0  0  0
    1.8550    8.9934   29.6227 F   0  0  0  0  0  0  0  0  0  0  0  0
    0.8096   10.8587   29.2777 F   0  0  0  0  0  0  0  0  0  0  0  0
    3.5831   11.0475   28.5562 C   0  0  2  0  0  0  0  0  0  0  0  0
    5.0815   11.3014   28.4485 C   0  0  0  0  0  0  0  0  0  0  0  0
    5.6617   11.9115   29.2624 O   0  0  0  0  0  0  0  0  0  0  0  0
    5.5700   10.7132   27.0843 N   0  0  0  0  0  0  0  0  0  0  0  0
    6.7860   10.8365   26.4385 C   0  0  0  0  0  0  0  0  0  0  0  0
    7.2291   10.0336   25.3963 C   0  0  0  0  0  0  0  0  0  0  0  0
    8.2547   10.4416   24.5296 C   0  0  0  0  0  0  0  0  0  0  0  0
    8.6195   11.7780   24.5652 C   0  0  0  0  0  0  0  0  0  0  0  0
    8.2123   12.5651   25.6446 C   0  0  0  0  0  0  0  0  0  0  0  0
    7.3888   12.0527   26.6332 C   0  0  0  0  0  0  0  0  0  0  0  0
    8.4713   14.0391   25.6915 C   0  0  0  0  0  0  0  0  0  0  0  0
    7.3903   14.6773   24.8459 C   0  0  0  0  0  0  0  0  0  0  0  0
    7.3579   14.1128   23.4346 C   0  0  0  0  0  0  0  0  0  0  0  0
    8.6966   13.5925   22.9029 C   0  0  0  0  0  0  0  0  0  0  0  0
    9.2446   14.1830   21.9723 O   0  0  0  0  0  0  0  0  0  0  0  0
    9.2046   12.4067   23.4468 N   0  0  0  0  0  0  0  0  0  0  0  0
   10.4444   11.8567   22.9336 C   0  0  0  0  0  0  0  0  0  0  0  0
  2  1  1  6
  2  3  1  0
  3  4  1  0
  4  5  1  0
  5  6  1  6
  6  7  1  0
  6  8  1  0
  6  9  1  0
  5 10  1  0
 10 11  1  1
 11 12  2  0
 11 13  1  0
 13 14  1  0
 14 15  2  0
 15 16  1  0
 16 17  2  0
 17 18  1  0
 18 19  2  0
 18 20  1  0
 20 21  1  0
 21 22  1  0
 22 23  1  0
 23 24  2  0
 23 25  1  0
 25 26  1  0
 10  2  1  0
 19 14  1  0
 25 17  1  0
M  END
>  <energy_score>  (1576) 
-48.317397

>  <inchikey>  (1576) 
None

>  <smiles>  (1576) 
None

>  <ref_pdb>  (1576) 
A0310a

>  <alias>  (1576) 
None

>  <HIPPO Pose ID>  (1576) 
499220

>  <name>  (1576) 
P499220

>  <HIPPO Compound ID>  (1576) 
301797

>  <ref_mols>  (1576) 
A1445a,A0310a

>  <distance_score>  (1576) 
1.645136

>  <inspiration_score>  (1576) 
None

$$$$
P499221
     RDKit          3D

 26 29  0  0  0  0  0  0  0  0999 V2000
    7.9919   14.4351   24.8529 C   0  0  0  0  0  0  0  0  0  0  0  0
    8.0309   12.9451   24.7910 C   0  0  0  0  0  0  0  0  0  0  0  0
    7.0372   12.2791   25.5462 C   0  0  0  0  0  0  0  0  0  0  0  0
    7.0136   10.8995   25.6666 C   0  0  0  0  0  0  0  0  0  0  0  0
    6.0445   10.2678   26.4515 N   0  0  0  0  0  0  0  0  0  0  0  0
    4.9560   10.8680   27.3946 C   0  0  0  0  0  0  0  0  0  0  0  0
    4.6571   11.9848   27.5964 O   0  0  0  0  0  0  0  0  0  0  0  0
    4.2359    9.7133   28.1595 C   0  0  1  0  0  0  0  0  0  0  0  0
    5.0610    8.9370   29.2408 C   0  0  1  0  0  0  0  0  0  0  0  0
    5.6029    9.9839   30.2128 C   0  0  0  0  0  0  0  0  0  0  0  0
    4.3339   10.8287   30.4066 C   0  0  0  0  0  0  0  0  0  0  0  0
    3.3917   10.0581   29.4709 C   0  0  1  0  0  0  0  0  0  0  0  0
    1.9563   10.4710   29.4657 C   0  0  0  0  0  0  0  0  0  0  0  0
    1.4781   10.5474   30.7289 F   0  0  0  0  0  0  0  0  0  0  0  0
    1.2142    9.5581   28.7985 F   0  0  0  0  0  0  0  0  0  0  0  0
    1.7664   11.6636   28.8682 F   0  0  0  0  0  0  0  0  0  0  0  0
    3.6766    8.5592   29.8317 C   0  0  0  0  0  0  0  0  0  0  0  0
    7.9727   10.1722   24.9771 C   0  0  0  0  0  0  0  0  0  0  0  0
    8.9589   10.8220   24.2101 C   0  0  0  0  0  0  0  0  0  0  0  0
    9.0113   12.2214   24.0937 C   0  0  0  0  0  0  0  0  0  0  0  0
   10.0898   12.8427   23.3929 N   0  0  0  0  0  0  0  0  0  0  0  0
   11.3404   12.1989   23.2186 C   0  0  0  0  0  0  0  0  0  0  0  0
   12.3029   13.3007   22.8668 C   0  0  0  0  0  0  0  0  0  0  0  0
   11.4709   14.2119   22.0185 C   0  0  0  0  0  0  0  0  0  0  0  0
   10.0919   13.9763   22.5742 C   0  0  0  0  0  0  0  0  0  0  0  0
    9.1559   14.6803   22.2557 O   0  0  0  0  0  0  0  0  0  0  0  0
  1  2  1  0
  2  3  2  0
  3  4  1  0
  4  5  1  0
  5  6  1  0
  6  7  2  0
  8  6  1  1
  8  9  1  0
  9 10  1  1
 10 11  1  0
 11 12  1  0
 12 13  1  6
 13 14  1  0
 13 15  1  0
 13 16  1  0
 12 17  1  0
  4 18  2  0
 18 19  1  0
 19 20  2  0
 20 21  1  0
 21 22  1  0
 22 23  1  0
 23 24  1  0
 24 25  1  0
 25 26  2  0
 20  2  1  0
 25 21  1  0
 12  8  1  0
 17  9  1  0
M  END
>  <energy_score>  (1577) 
-53.698885

>  <inchikey>  (1577) 
None

>  <smiles>  (1577) 
None

>  <ref_pdb>  (1577) 
A0310a

>  <alias>  (1577) 
None

>  <HIPPO Pose ID>  (1577) 
499221

>  <name>  (1577) 
P499221

>  <HIPPO Compound ID>  (1577) 
301801

>  <ref_mols>  (1577) 
A1445a,A0310a

>  <distance_score>  (1577) 
1.493928

>  <inspiration_score>  (1577) 
None

$$$$
P499222
     RDKit          3D

 26 29  0  0  0  0  0  0  0  0999 V2000
    8.0257   14.4373   24.9672 C   0  0  0  0  0  0  0  0  0  0  0  0
    8.1405   12.9541   25.0642 C   0  0  0  0  0  0  0  0  0  0  0  0
    7.0994   12.2939   25.7528 C   0  0  0  0  0  0  0  0  0  0  0  0
    7.0138   10.9122   25.7787 C   0  0  0  0  0  0  0  0  0  0  0  0
    6.0176   10.2703   26.5167 N   0  0  0  0  0  0  0  0  0  0  0  0
    4.9212   10.8538   27.4583 C   0  0  0  0  0  0  0  0  0  0  0  0
    4.6385   11.9671   27.6972 O   0  0  0  0  0  0  0  0  0  0  0  0
    4.1866    9.6840   28.1846 C   0  0  1  0  0  0  0  0  0  0  0  0
    4.9950    8.8722   29.2553 C   0  0  1  0  0  0  0  0  0  0  0  0
    5.5397    9.8901   30.2567 C   0  0  0  0  0  0  0  0  0  0  0  0
    4.2787   10.7447   30.4591 C   0  0  0  0  0  0  0  0  0  0  0  0
    3.3369   10.0078   29.4963 C   0  0  1  0  0  0  0  0  0  0  0  0
    1.9092   10.4430   29.4804 C   0  0  0  0  0  0  0  0  0  0  0  0
    1.4166   10.5102   30.7385 F   0  0  0  0  0  0  0  0  0  0  0  0
    1.1601    9.5488   28.7932 F   0  0  0  0  0  0  0  0  0  0  0  0
    1.7417   11.6449   28.8953 F   0  0  0  0  0  0  0  0  0  0  0  0
    3.6004    8.4977   29.8247 C   0  0  0  0  0  0  0  0  0  0  0  0
    7.9421   10.1893   25.0442 C   0  0  0  0  0  0  0  0  0  0  0  0
    8.9946   10.8388   24.3731 C   0  0  0  0  0  0  0  0  0  0  0  0
    9.1655   12.2309   24.4373 C   0  0  0  0  0  0  0  0  0  0  0  0
   10.3297   12.8406   23.8715 N   0  0  0  0  0  0  0  0  0  0  0  0
   10.8342   12.3974   22.6056 C   0  0  0  0  0  0  0  0  0  0  0  0
   12.1948   13.0464   22.5005 C   0  0  0  0  0  0  0  0  0  0  0  0
   11.9733   14.3849   23.1353 C   0  0  0  0  0  0  0  0  0  0  0  0
   11.0037   14.0296   24.2338 C   0  0  0  0  0  0  0  0  0  0  0  0
   10.9019   14.7268   25.2322 O   0  0  0  0  0  0  0  0  0  0  0  0
  1  2  1  0
  2  3  2  0
  3  4  1  0
  4  5  1  0
  5  6  1  0
  6  7  2  0
  8  6  1  1
  8  9  1  0
  9 10  1  1
 10 11  1  0
 11 12  1  0
 12 13  1  6
 13 14  1  0
 13 15  1  0
 13 16  1  0
 12 17  1  0
  4 18  2  0
 18 19  1  0
 19 20  2  0
 20 21  1  0
 21 22  1  0
 22 23  1  0
 23 24  1  0
 24 25  1  0
 25 26  2  0
 20  2  1  0
 25 21  1  0
 12  8  1  0
 17  9  1  0
M  END
>  <energy_score>  (1578) 
-44.17495

>  <inchikey>  (1578) 
None

>  <smiles>  (1578) 
None

>  <ref_pdb>  (1578) 
A0310a

>  <alias>  (1578) 
None

>  <HIPPO Pose ID>  (1578) 
499222

>  <name>  (1578) 
P499222

>  <HIPPO Compound ID>  (1578) 
301801

>  <ref_mols>  (1578) 
A1445a,A0310a

>  <distance_score>  (1578) 
1.411263

>  <inspiration_score>  (1578) 
None

$$$$
P499223
     RDKit          3D

 26 29  0  0  0  0  0  0  0  0999 V2000
    7.6643   14.3194   22.5123 C   0  0  0  0  0  0  0  0  0  0  0  0
    7.9133   13.4014   23.6507 C   0  0  0  0  0  0  0  0  0  0  0  0
    6.8456   13.2590   24.5608 C   0  0  0  0  0  0  0  0  0  0  0  0
    6.7803   12.2328   25.4950 C   0  0  0  0  0  0  0  0  0  0  0  0
    5.6761   12.2620   26.3455 N   0  0  0  0  0  0  0  0  0  0  0  0
    5.3481   11.4107   27.6032 C   0  0  0  0  0  0  0  0  0  0  0  0
    5.9171   10.5027   28.0734 O   0  0  0  0  0  0  0  0  0  0  0  0
    4.0580   12.1028   28.2315 C   0  0  2  0  0  0  0  0  0  0  0  0
    4.3774   13.2808   29.2419 C   0  0  2  0  0  0  0  0  0  0  0  0
    5.1740   12.6648   30.3918 C   0  0  0  0  0  0  0  0  0  0  0  0
    4.3450   11.3945   30.6165 C   0  0  0  0  0  0  0  0  0  0  0  0
    3.2975   11.5845   29.5206 C   0  0  2  0  0  0  0  0  0  0  0  0
    2.1238   10.6565   29.5043 C   0  0  0  0  0  0  0  0  0  0  0  0
    1.5187   10.6338   30.7138 F   0  0  0  0  0  0  0  0  0  0  0  0
    2.4681    9.3959   29.1811 F   0  0  0  0  0  0  0  0  0  0  0  0
    1.2140   11.0797   28.5936 F   0  0  0  0  0  0  0  0  0  0  0  0
    2.9037   13.1007   29.6833 C   0  0  0  0  0  0  0  0  0  0  0  0
    7.7681   11.2717   25.4598 C   0  0  0  0  0  0  0  0  0  0  0  0
    8.8948   11.4782   24.6270 C   0  0  0  0  0  0  0  0  0  0  0  0
    9.0460   12.6095   23.7914 C   0  0  0  0  0  0  0  0  0  0  0  0
   10.3653   12.9993   23.3547 N   0  0  0  0  0  0  0  0  0  0  0  0
   11.3366   13.1640   24.3979 C   0  0  0  0  0  0  0  0  0  0  0  0
   12.6466   13.4218   23.7166 C   0  0  0  0  0  0  0  0  0  0  0  0
   12.2324   14.2483   22.5339 C   0  0  0  0  0  0  0  0  0  0  0  0
   10.7994   13.8320   22.2942 C   0  0  0  0  0  0  0  0  0  0  0  0
   10.2069   14.2560   21.3192 O   0  0  0  0  0  0  0  0  0  0  0  0
  1  2  1  0
  2  3  2  0
  3  4  1  0
  4  5  1  0
  5  6  1  0
  6  7  2  0
  8  6  1  1
  8  9  1  0
  9 10  1  1
 10 11  1  0
 11 12  1  0
 12 13  1  6
 13 14  1  0
 13 15  1  0
 13 16  1  0
 12 17  1  0
  4 18  2  0
 18 19  1  0
 19 20  2  0
 20 21  1  0
 21 22  1  0
 22 23  1  0
 23 24  1  0
 24 25  1  0
 25 26  2  0
 20  2  1  0
 25 21  1  0
 12  8  1  0
 17  9  1  0
M  END
>  <energy_score>  (1579) 
-50.317307

>  <inchikey>  (1579) 
None

>  <smiles>  (1579) 
None

>  <ref_pdb>  (1579) 
A0310a

>  <alias>  (1579) 
None

>  <HIPPO Pose ID>  (1579) 
499223

>  <name>  (1579) 
P499223

>  <HIPPO Compound ID>  (1579) 
301801

>  <ref_mols>  (1579) 
A1445a,A0310a

>  <distance_score>  (1579) 
1.820342

>  <inspiration_score>  (1579) 
None

$$$$
P499224
     RDKit          3D

 26 28  0  0  0  0  0  0  0  0999 V2000
    8.8277    9.5118   24.0801 C   0  0  0  0  0  0  0  0  0  0  0  0
    8.1006   10.6505   24.7385 C   0  0  0  0  0  0  0  0  0  0  0  0
    7.2037   10.3674   25.7668 C   0  0  0  0  0  0  0  0  0  0  0  0
    6.4451   11.3456   26.4006 C   0  0  0  0  0  0  0  0  0  0  0  0
    5.5878   10.9455   27.4078 N   0  0  0  0  0  0  0  0  0  0  0  0
    4.6939   11.7701   28.3415 C   0  0  0  0  0  0  0  0  0  0  0  0
    4.5922   12.9221   28.4654 O   0  0  0  0  0  0  0  0  0  0  0  0
    3.8883   10.8747   29.1992 C   0  0  1  0  0  0  0  0  0  0  0  0
    3.9150   11.1056   30.6943 C   0  0  2  0  0  0  0  0  0  0  0  0
    4.0040    9.9075   31.5274 N   0  0  0  0  0  0  0  0  0  0  0  0
    3.1953    9.8146   32.4520 O   0  0  0  0  0  0  0  0  0  0  0  0
    4.9094    9.1132   31.2495 O   0  0  0  0  0  0  0  0  0  0  0  0
    2.6691   11.4146   29.9084 C   0  0  2  0  0  0  0  0  0  0  0  0
    1.4380   10.6123   29.9562 C   0  0  0  0  0  0  0  0  0  0  0  0
    0.8156   10.7645   31.1374 F   0  0  0  0  0  0  0  0  0  0  0  0
    1.6803    9.3004   29.7550 F   0  0  0  0  0  0  0  0  0  0  0  0
    0.6061   11.0251   28.9751 F   0  0  0  0  0  0  0  0  0  0  0  0
    6.5446   12.6580   25.9955 C   0  0  0  0  0  0  0  0  0  0  0  0
    7.4006   12.9675   24.9488 C   0  0  0  0  0  0  0  0  0  0  0  0
    8.1894   11.9767   24.3244 C   0  0  0  0  0  0  0  0  0  0  0  0
    9.0487   12.3537   23.2844 N   0  0  0  0  0  0  0  0  0  0  0  0
   10.3893   11.8668   23.1616 C   0  0  0  0  0  0  0  0  0  0  0  0
   11.1685   13.0888   22.7547 C   0  0  0  0  0  0  0  0  0  0  0  0
   10.1803   13.8770   21.9231 C   0  0  0  0  0  0  0  0  0  0  0  0
    8.8530   13.4751   22.4910 C   0  0  0  0  0  0  0  0  0  0  0  0
    7.8004   14.0302   22.2163 O   0  0  0  0  0  0  0  0  0  0  0  0
  1  2  1  0
  2  3  2  0
  3  4  1  0
  4  5  1  0
  5  6  1  0
  6  7  2  0
  8  6  1  6
  8  9  1  0
  9 10  1  1
 10 11  2  0
 10 12  1  0
  9 13  1  0
 13 14  1  1
 14 15  1  0
 14 16  1  0
 14 17  1  0
  4 18  2  0
 18 19  1  0
 19 20  2  0
 20 21  1  0
 21 22  1  0
 22 23  1  0
 23 24  1  0
 24 25  1  0
 25 26  2  0
 20  2  1  0
 25 21  1  0
 13  8  1  0
M  CHG  2  10   1  12  -1
M  END
>  <energy_score>  (1580) 
-65.910251

>  <inchikey>  (1580) 
None

>  <smiles>  (1580) 
None

>  <ref_pdb>  (1580) 
A0310a

>  <alias>  (1580) 
None

>  <HIPPO Pose ID>  (1580) 
499224

>  <name>  (1580) 
P499224

>  <HIPPO Compound ID>  (1580) 
301803

>  <ref_mols>  (1580) 
A1445a,A0310a

>  <distance_score>  (1580) 
1.999089

>  <inspiration_score>  (1580) 
None

$$$$
P499225
     RDKit          3D

 26 28  0  0  0  0  0  0  0  0999 V2000
    7.2454   14.1832   22.7937 C   0  0  0  0  0  0  0  0  0  0  0  0
    7.5318   13.2978   23.9609 C   0  0  0  0  0  0  0  0  0  0  0  0
    6.5426   13.3204   24.9666 C   0  0  0  0  0  0  0  0  0  0  0  0
    6.4071   12.2993   25.8948 C   0  0  0  0  0  0  0  0  0  0  0  0
    5.3967   12.4689   26.8396 N   0  0  0  0  0  0  0  0  0  0  0  0
    4.9458   11.5478   28.0192 C   0  0  0  0  0  0  0  0  0  0  0  0
    5.3044   10.4776   28.3236 O   0  0  0  0  0  0  0  0  0  0  0  0
    3.9382   12.4050   28.8371 C   0  0  2  0  0  0  0  0  0  0  0  0
    4.6969   13.6054   29.4742 C   0  0  0  0  0  0  0  0  0  0  0  0
    5.0837   13.4017   30.9460 C   0  0  0  0  0  0  0  0  0  0  0  0
    5.3190   11.9366   31.2859 C   0  0  0  0  0  0  0  0  0  0  0  0
    4.0795   11.0805   31.0120 C   0  0  0  0  0  0  0  0  0  0  0  0
    3.1545   11.6817   29.9503 C   0  0  2  0  0  0  0  0  0  0  0  0
    2.0788   10.7088   29.5006 C   0  0  0  0  0  0  0  0  0  0  0  0
    1.3323   10.3266   30.5640 F   0  0  0  0  0  0  0  0  0  0  0  0
    2.5387    9.5980   28.9062 F   0  0  0  0  0  0  0  0  0  0  0  0
    1.2398   11.3115   28.6230 F   0  0  0  0  0  0  0  0  0  0  0  0
    7.2611   11.2179   25.7900 C   0  0  0  0  0  0  0  0  0  0  0  0
    8.3309   11.2604   24.8590 C   0  0  0  0  0  0  0  0  0  0  0  0
    8.5581   12.3592   23.9937 C   0  0  0  0  0  0  0  0  0  0  0  0
    9.7791   12.5195   23.2521 N   0  0  0  0  0  0  0  0  0  0  0  0
   10.8460   11.5824   23.3243 C   0  0  0  0  0  0  0  0  0  0  0  0
   11.9899   12.4614   23.7978 C   0  0  0  0  0  0  0  0  0  0  0  0
   11.8725   13.5906   22.8144 C   0  0  0  0  0  0  0  0  0  0  0  0
   10.3740   13.7285   22.7786 C   0  0  0  0  0  0  0  0  0  0  0  0
    9.8806   14.7792   22.4263 O   0  0  0  0  0  0  0  0  0  0  0  0
  1  2  1  0
  2  3  2  0
  3  4  1  0
  4  5  1  0
  5  6  1  0
  6  7  2  0
  8  6  1  1
  8  9  1  0
  9 10  1  0
 10 11  1  0
 11 12  1  0
 12 13  1  0
 13 14  1  6
 14 15  1  0
 14 16  1  0
 14 17  1  0
  4 18  2  0
 18 19  1  0
 19 20  2  0
 20 21  1  0
 21 22  1  0
 22 23  1  0
 23 24  1  0
 24 25  1  0
 25 26  2  0
 20  2  1  0
 25 21  1  0
 13  8  1  0
M  END
>  <energy_score>  (1581) 
-24.059188

>  <inchikey>  (1581) 
None

>  <smiles>  (1581) 
None

>  <ref_pdb>  (1581) 
A0310a

>  <alias>  (1581) 
None

>  <HIPPO Pose ID>  (1581) 
499225

>  <name>  (1581) 
P499225

>  <HIPPO Compound ID>  (1581) 
301807

>  <ref_mols>  (1581) 
A1445a,A0310a

>  <distance_score>  (1581) 
1.633574

>  <inspiration_score>  (1581) 
None

$$$$
P499226
     RDKit          3D

 26 28  0  0  0  0  0  0  0  0999 V2000
    8.7451   14.5205   25.3287 C   0  0  0  0  0  0  0  0  0  0  0  0
    8.2834   13.1112   25.2074 C   0  0  0  0  0  0  0  0  0  0  0  0
    7.2785   12.7412   26.1179 C   0  0  0  0  0  0  0  0  0  0  0  0
    6.7646   11.4596   26.1463 C   0  0  0  0  0  0  0  0  0  0  0  0
    5.6085   11.2481   26.8806 N   0  0  0  0  0  0  0  0  0  0  0  0
    5.0713   11.9722   28.1579 C   0  0  0  0  0  0  0  0  0  0  0  0
    5.5630   12.8011   28.8227 O   0  0  0  0  0  0  0  0  0  0  0  0
    3.6274   11.4856   28.4000 C   0  0  2  0  0  0  0  0  0  0  0  0
    2.7225   12.5104   27.6729 C   0  0  0  0  0  0  0  0  0  0  0  0
    2.5820   13.8443   28.4090 C   0  0  0  0  0  0  0  0  0  0  0  0
    2.1892   13.6768   29.8690 C   0  0  0  0  0  0  0  0  0  0  0  0
    3.0936   12.6883   30.5984 C   0  0  0  0  0  0  0  0  0  0  0  0
    3.2400   11.3356   29.8823 C   0  0  1  0  0  0  0  0  0  0  0  0
    1.9469   10.5235   30.0096 C   0  0  0  0  0  0  0  0  0  0  0  0
    1.6140   10.3384   31.3041 F   0  0  0  0  0  0  0  0  0  0  0  0
    2.0846    9.3006   29.4489 F   0  0  0  0  0  0  0  0  0  0  0  0
    0.8997   11.1132   29.3978 F   0  0  0  0  0  0  0  0  0  0  0  0
    7.3100   10.5060   25.3064 C   0  0  0  0  0  0  0  0  0  0  0  0
    8.3398   10.8564   24.4129 C   0  0  0  0  0  0  0  0  0  0  0  0
    8.7998   12.1799   24.2975 C   0  0  0  0  0  0  0  0  0  0  0  0
    9.8174   12.4935   23.3550 N   0  0  0  0  0  0  0  0  0  0  0  0
   10.9455   11.6437   23.2164 C   0  0  0  0  0  0  0  0  0  0  0  0
   12.0812   12.6043   23.5217 C   0  0  0  0  0  0  0  0  0  0  0  0
   11.6911   13.7800   22.6614 C   0  0  0  0  0  0  0  0  0  0  0  0
   10.1967   13.7400   22.8295 C   0  0  0  0  0  0  0  0  0  0  0  0
    9.4864   14.6752   22.5254 O   0  0  0  0  0  0  0  0  0  0  0  0
  1  2  1  0
  2  3  2  0
  3  4  1  0
  4  5  1  0
  5  6  1  0
  6  7  2  0
  8  6  1  1
  8  9  1  0
  9 10  1  0
 10 11  1  0
 11 12  1  0
 12 13  1  0
 13 14  1  6
 14 15  1  0
 14 16  1  0
 14 17  1  0
  4 18  2  0
 18 19  1  0
 19 20  2  0
 20 21  1  0
 21 22  1  0
 22 23  1  0
 23 24  1  0
 24 25  1  0
 25 26  2  0
 20  2  1  0
 25 21  1  0
 13  8  1  0
M  END
>  <energy_score>  (1582) 
-29.697596

>  <inchikey>  (1582) 
None

>  <smiles>  (1582) 
None

>  <ref_pdb>  (1582) 
A0310a

>  <alias>  (1582) 
None

>  <HIPPO Pose ID>  (1582) 
499226

>  <name>  (1582) 
P499226

>  <HIPPO Compound ID>  (1582) 
301807

>  <ref_mols>  (1582) 
A1445a,A0310a

>  <distance_score>  (1582) 
1.492764

>  <inspiration_score>  (1582) 
None

$$$$
P499227
     RDKit          3D

 26 28  0  0  0  0  0  0  0  0999 V2000
    7.5785   14.5296   24.2589 C   0  0  0  0  0  0  0  0  0  0  0  0
    7.6282   13.0885   24.6134 C   0  0  0  0  0  0  0  0  0  0  0  0
    6.6084   12.6773   25.5107 C   0  0  0  0  0  0  0  0  0  0  0  0
    6.5870   11.4078   26.0434 C   0  0  0  0  0  0  0  0  0  0  0  0
    5.6003   11.0783   26.9656 N   0  0  0  0  0  0  0  0  0  0  0  0
    5.6476   10.1348   28.2021 C   0  0  0  0  0  0  0  0  0  0  0  0
    6.5439    9.5525   28.6769 O   0  0  0  0  0  0  0  0  0  0  0  0
    4.2205    9.9420   28.7368 C   0  0  0  0  0  0  0  0  0  0  0  0
    3.3698   11.1757   29.0672 C   0  0  2  0  0  0  0  0  0  0  0  0
    4.0391   12.0340   30.1451 C   0  0  0  0  0  0  0  0  0  0  0  0
    5.2447   12.9312   29.7339 C   0  0  0  0  0  0  0  0  0  0  0  0
    4.7309   13.9644   30.7553 C   0  0  0  0  0  0  0  0  0  0  0  0
    3.3288   13.3640   30.5375 C   0  0  0  0  0  0  0  0  0  0  0  0
    1.9897   10.7273   29.5620 C   0  0  0  0  0  0  0  0  0  0  0  0
    2.0201   10.2489   30.8207 F   0  0  0  0  0  0  0  0  0  0  0  0
    1.4810    9.7627   28.7630 F   0  0  0  0  0  0  0  0  0  0  0  0
    1.1179   11.7583   29.5273 F   0  0  0  0  0  0  0  0  0  0  0  0
    7.5099   10.4977   25.5729 C   0  0  0  0  0  0  0  0  0  0  0  0
    8.4774   10.8727   24.6206 C   0  0  0  0  0  0  0  0  0  0  0  0
    8.6169   12.1968   24.1587 C   0  0  0  0  0  0  0  0  0  0  0  0
    9.7676   12.5661   23.3770 N   0  0  0  0  0  0  0  0  0  0  0  0
   10.9024   11.7130   23.2525 C   0  0  0  0  0  0  0  0  0  0  0  0
   12.0444   12.6578   23.5565 C   0  0  0  0  0  0  0  0  0  0  0  0
   11.6757   13.8126   22.6685 C   0  0  0  0  0  0  0  0  0  0  0  0
   10.1702   13.7812   22.7764 C   0  0  0  0  0  0  0  0  0  0  0  0
    9.5119   14.7059   22.3483 O   0  0  0  0  0  0  0  0  0  0  0  0
  1  2  1  0
  2  3  2  0
  3  4  1  0
  4  5  1  0
  5  6  1  0
  6  7  2  0
  6  8  1  0
  9  8  1  1
  9 10  1  0
 10 11  1  0
 11 12  1  0
 12 13  1  0
  9 14  1  0
 14 15  1  0
 14 16  1  0
 14 17  1  0
  4 18  2  0
 18 19  1  0
 19 20  2  0
 20 21  1  0
 21 22  1  0
 22 23  1  0
 23 24  1  0
 24 25  1  0
 25 26  2  0
 20  2  1  0
 25 21  1  0
 13 10  1  0
M  END
>  <energy_score>  (1583) 
-9.670193

>  <inchikey>  (1583) 
None

>  <smiles>  (1583) 
None

>  <ref_pdb>  (1583) 
A0310a

>  <alias>  (1583) 
None

>  <HIPPO Pose ID>  (1583) 
499227

>  <name>  (1583) 
P499227

>  <HIPPO Compound ID>  (1583) 
301811

>  <ref_mols>  (1583) 
A1445a,A0310a

>  <distance_score>  (1583) 
1.363302

>  <inspiration_score>  (1583) 
None

$$$$
P499228
     RDKit          3D

 26 28  0  0  0  0  0  0  0  0999 V2000
    7.9622   14.4346   24.8347 C   0  0  0  0  0  0  0  0  0  0  0  0
    8.0020   12.9439   24.7908 C   0  0  0  0  0  0  0  0  0  0  0  0
    7.0198   12.2862   25.5730 C   0  0  0  0  0  0  0  0  0  0  0  0
    7.0018   10.9090   25.7136 C   0  0  0  0  0  0  0  0  0  0  0  0
    6.0934   10.2794   26.5712 N   0  0  0  0  0  0  0  0  0  0  0  0
    4.9708   10.8829   27.4836 C   0  0  0  0  0  0  0  0  0  0  0  0
    4.5928   11.9855   27.5911 O   0  0  0  0  0  0  0  0  0  0  0  0
    4.4434    9.7515   28.3683 C   0  0  0  0  0  0  0  0  0  0  0  0
    3.6367   10.1824   29.6265 C   0  0  1  0  0  0  0  0  0  0  0  0
    4.3289   11.3118   30.4104 C   0  0  0  0  0  0  0  0  0  0  0  0
    3.8453   12.7964   30.3830 C   0  0  0  0  0  0  0  0  0  0  0  0
    4.2659   12.8857   31.8635 C   0  0  0  0  0  0  0  0  0  0  0  0
    4.0521   11.3622   31.9439 C   0  0  0  0  0  0  0  0  0  0  0  0
    2.1522   10.4223   29.3796 C   0  0  0  0  0  0  0  0  0  0  0  0
    1.5011   10.6929   30.5344 F   0  0  0  0  0  0  0  0  0  0  0  0
    1.5839    9.2975   28.8776 F   0  0  0  0  0  0  0  0  0  0  0  0
    1.8866   11.4125   28.5112 F   0  0  0  0  0  0  0  0  0  0  0  0
    7.9455   10.1764   25.0073 C   0  0  0  0  0  0  0  0  0  0  0  0
    8.9208   10.8161   24.2179 C   0  0  0  0  0  0  0  0  0  0  0  0
    8.9773   12.2138   24.0902 C   0  0  0  0  0  0  0  0  0  0  0  0
   10.0577   12.8227   23.3785 N   0  0  0  0  0  0  0  0  0  0  0  0
   11.3022   12.1671   23.2005 C   0  0  0  0  0  0  0  0  0  0  0  0
   12.2784   13.2622   22.8640 C   0  0  0  0  0  0  0  0  0  0  0  0
   11.4594   14.1918   22.0236 C   0  0  0  0  0  0  0  0  0  0  0  0
   10.0763   13.9655   22.5731 C   0  0  0  0  0  0  0  0  0  0  0  0
    9.1507   14.6848   22.2587 O   0  0  0  0  0  0  0  0  0  0  0  0
  1  2  1  0
  2  3  2  0
  3  4  1  0
  4  5  1  0
  5  6  1  0
  6  7  2  0
  6  8  1  0
  9  8  1  6
  9 10  1  0
 10 11  1  0
 11 12  1  0
 12 13  1  0
  9 14  1  0
 14 15  1  0
 14 16  1  0
 14 17  1  0
  4 18  2  0
 18 19  1  0
 19 20  2  0
 20 21  1  0
 21 22  1  0
 22 23  1  0
 23 24  1  0
 24 25  1  0
 25 26  2  0
 20  2  1  0
 25 21  1  0
 13 10  1  0
M  END
>  <energy_score>  (1584) 
-18.792738

>  <inchikey>  (1584) 
None

>  <smiles>  (1584) 
None

>  <ref_pdb>  (1584) 
A0310a

>  <alias>  (1584) 
None

>  <HIPPO Pose ID>  (1584) 
499228

>  <name>  (1584) 
P499228

>  <HIPPO Compound ID>  (1584) 
301811

>  <ref_mols>  (1584) 
A1445a,A0310a

>  <distance_score>  (1584) 
1.534652

>  <inspiration_score>  (1584) 
None

$$$$
P499229
     RDKit          3D

 26 27  0  0  0  0  0  0  0  0999 V2000
    5.9492   10.1884   32.1456 C   0  0  0  0  0  0  0  0  0  0  0  0
    5.3239   10.7818   30.9580 N   0  0  0  0  0  0  0  0  0  0  0  0
    5.5573   12.2332   30.9729 C   0  0  0  0  0  0  0  0  0  0  0  0
    3.8784   10.4741   30.9391 C   0  0  0  0  0  0  0  0  0  0  0  0
    3.2145   10.6659   29.5749 C   0  0  1  0  0  0  0  0  0  0  0  0
    3.9572    9.8758   28.4531 C   0  0  0  0  0  0  0  0  0  0  0  0
    4.7975   10.8512   27.6473 C   0  0  0  0  0  0  0  0  0  0  0  0
    4.5790   12.0000   27.7170 O   0  0  0  0  0  0  0  0  0  0  0  0
    5.8833   10.0757   26.8353 N   0  0  0  0  0  0  0  0  0  0  0  0
    6.9303   10.5450   26.0568 C   0  0  0  0  0  0  0  0  0  0  0  0
    7.6856    9.8195   25.1435 C   0  0  0  0  0  0  0  0  0  0  0  0
    8.6215   10.4424   24.3076 C   0  0  0  0  0  0  0  0  0  0  0  0
    8.7302   11.8269   24.3495 C   0  0  0  0  0  0  0  0  0  0  0  0
    8.0901   12.5258   25.3687 C   0  0  0  0  0  0  0  0  0  0  0  0
    7.1986   11.8833   26.2022 C   0  0  0  0  0  0  0  0  0  0  0  0
    8.2208   14.0048   25.5382 C   0  0  0  0  0  0  0  0  0  0  0  0
    7.2306   14.6379   24.5941 C   0  0  0  0  0  0  0  0  0  0  0  0
    7.4236   14.1521   23.1681 C   0  0  0  0  0  0  0  0  0  0  0  0
    8.8463   13.7255   22.7807 C   0  0  0  0  0  0  0  0  0  0  0  0
    9.4524   14.3800   21.9313 O   0  0  0  0  0  0  0  0  0  0  0  0
    9.3765   12.5552   23.3319 N   0  0  0  0  0  0  0  0  0  0  0  0
   10.6773   12.0902   22.8905 C   0  0  0  0  0  0  0  0  0  0  0  0
    1.7569   10.2740   29.6440 C   0  0  0  0  0  0  0  0  0  0  0  0
    1.1465   10.8271   30.7135 F   0  0  0  0  0  0  0  0  0  0  0  0
    1.6010    8.9374   29.7265 F   0  0  0  0  0  0  0  0  0  0  0  0
    1.0996   10.6930   28.5371 F   0  0  0  0  0  0  0  0  0  0  0  0
  1  2  1  0
  2  3  1  0
  2  4  1  0
  5  4  1  1
  5  6  1  0
  6  7  1  0
  7  8  2  0
  7  9  1  0
  9 10  1  0
 10 11  2  0
 11 12  1  0
 12 13  2  0
 13 14  1  0
 14 15  2  0
 14 16  1  0
 16 17  1  0
 17 18  1  0
 18 19  1  0
 19 20  2  0
 19 21  1  0
 21 22  1  0
  5 23  1  0
 23 24  1  0
 23 25  1  0
 23 26  1  0
 15 10  1  0
 21 13  1  0
M  END
>  <energy_score>  (1585) 
-27.322402

>  <inchikey>  (1585) 
None

>  <smiles>  (1585) 
None

>  <ref_pdb>  (1585) 
A0310a

>  <alias>  (1585) 
None

>  <HIPPO Pose ID>  (1585) 
499229

>  <name>  (1585) 
P499229

>  <HIPPO Compound ID>  (1585) 
301814

>  <ref_mols>  (1585) 
A1445a,A0310a

>  <distance_score>  (1585) 
1.632489

>  <inspiration_score>  (1585) 
None

$$$$
P499230
     RDKit          3D

 27 30  0  0  0  0  0  0  0  0999 V2000
    8.9852   14.6012   25.3416 C   0  0  0  0  0  0  0  0  0  0  0  0
    8.2336   13.3325   25.1744 C   0  0  0  0  0  0  0  0  0  0  0  0
    7.1144   13.2541   26.0019 C   0  0  0  0  0  0  0  0  0  0  0  0
    6.4383   12.0732   26.2520 C   0  0  0  0  0  0  0  0  0  0  0  0
    5.3465   12.3053   27.0843 N   0  0  0  0  0  0  0  0  0  0  0  0
    4.4798   11.3094   27.9238 C   0  0  0  0  0  0  0  0  0  0  0  0
    4.5078   10.1441   27.9784 O   0  0  0  0  0  0  0  0  0  0  0  0
    3.5534   12.2676   28.6940 C   0  0  1  0  0  0  0  0  0  0  0  0
    2.2714   11.8608   29.4148 C   0  0  1  0  0  0  0  0  0  0  0  0
    1.8509   10.4278   29.5407 C   0  0  0  0  0  0  0  0  0  0  0  0
    2.5984    9.7142   30.3908 F   0  0  0  0  0  0  0  0  0  0  0  0
    1.7817    9.8057   28.3509 F   0  0  0  0  0  0  0  0  0  0  0  0
    0.5822   10.4312   30.0292 F   0  0  0  0  0  0  0  0  0  0  0  0
    2.4992   12.4435   30.8128 C   0  0  2  0  0  0  0  0  0  0  0  0
    2.4480   13.9742   30.7910 C   0  0  0  0  0  0  0  0  0  0  0  0
    3.7749   14.3320   30.1203 C   0  0  0  0  0  0  0  0  0  0  0  0
    4.3541   12.9495   29.8224 C   0  0  1  0  0  0  0  0  0  0  0  0
    3.9143   12.2233   30.9865 O   0  0  0  0  0  0  0  0  0  0  0  0
    6.9196   10.9209   25.6563 C   0  0  0  0  0  0  0  0  0  0  0  0
    7.9876   11.0230   24.7044 C   0  0  0  0  0  0  0  0  0  0  0  0
    8.6058   12.2551   24.3818 C   0  0  0  0  0  0  0  0  0  0  0  0
    9.6088   12.3862   23.3636 N   0  0  0  0  0  0  0  0  0  0  0  0
   10.7063   11.4775   23.3314 C   0  0  0  0  0  0  0  0  0  0  0  0
   11.8512   12.4217   23.6830 C   0  0  0  0  0  0  0  0  0  0  0  0
   11.5891   13.5535   22.7219 C   0  0  0  0  0  0  0  0  0  0  0  0
   10.0889   13.6047   22.8073 C   0  0  0  0  0  0  0  0  0  0  0  0
    9.4630   14.5966   22.4859 O   0  0  0  0  0  0  0  0  0  0  0  0
  1  2  1  0
  2  3  2  0
  3  4  1  0
  4  5  1  0
  5  6  1  0
  6  7  2  0
  8  6  1  1
  8  9  1  0
  9 10  1  1
 10 11  1  0
 10 12  1  0
 10 13  1  0
  9 14  1  0
 14 15  1  6
 15 16  1  0
 17 16  1  1
 17 18  1  0
  4 19  2  0
 19 20  1  0
 20 21  2  0
 21 22  1  0
 22 23  1  0
 23 24  1  0
 24 25  1  0
 25 26  1  0
 26 27  2  0
 21  2  1  0
 26 22  1  0
 17  8  1  0
 18 14  1  0
M  END
>  <energy_score>  (1586) 
-3.199868

>  <inchikey>  (1586) 
None

>  <smiles>  (1586) 
None

>  <ref_pdb>  (1586) 
A0310a

>  <alias>  (1586) 
None

>  <HIPPO Pose ID>  (1586) 
499230

>  <name>  (1586) 
P499230

>  <HIPPO Compound ID>  (1586) 
301818

>  <ref_mols>  (1586) 
A1445a,A0310a

>  <distance_score>  (1586) 
1.629624

>  <inspiration_score>  (1586) 
None

$$$$
P499231
     RDKit          3D

 27 30  0  0  0  0  0  0  0  0999 V2000
    9.1446   14.6523   25.4344 C   0  0  0  0  0  0  0  0  0  0  0  0
    8.3768   13.4084   25.1758 C   0  0  0  0  0  0  0  0  0  0  0  0
    7.2511   13.2819   25.9837 C   0  0  0  0  0  0  0  0  0  0  0  0
    6.5946   12.0800   26.1872 C   0  0  0  0  0  0  0  0  0  0  0  0
    5.5217   12.2868   27.0533 N   0  0  0  0  0  0  0  0  0  0  0  0
    4.6106   11.2588   27.8077 C   0  0  0  0  0  0  0  0  0  0  0  0
    4.5793   10.0930   27.7514 O   0  0  0  0  0  0  0  0  0  0  0  0
    3.7135   12.1954   28.6451 C   0  0  1  0  0  0  0  0  0  0  0  0
    2.4095   11.8242   29.3494 C   0  0  1  0  0  0  0  0  0  0  0  0
    1.9298   10.4091   29.4684 C   0  0  0  0  0  0  0  0  0  0  0  0
    2.6380    9.6612   30.3226 F   0  0  0  0  0  0  0  0  0  0  0  0
    1.8456    9.7902   28.2779 F   0  0  0  0  0  0  0  0  0  0  0  0
    0.6567   10.4617   29.9445 F   0  0  0  0  0  0  0  0  0  0  0  0
    2.6471   12.3844   30.7556 C   0  0  2  0  0  0  0  0  0  0  0  0
    2.6812   13.9160   30.7521 C   0  0  0  0  0  0  0  0  0  0  0  0
    4.0427   14.2087   30.1202 C   0  0  0  0  0  0  0  0  0  0  0  0
    4.5419   12.8010   29.7982 C   0  0  1  0  0  0  0  0  0  0  0  0
    4.0448   12.0801   30.9424 O   0  0  0  0  0  0  0  0  0  0  0  0
    7.1024   10.9616   25.5438 C   0  0  0  0  0  0  0  0  0  0  0  0
    8.1834   11.1183   24.6022 C   0  0  0  0  0  0  0  0  0  0  0  0
    8.7775   12.3737   24.3419 C   0  0  0  0  0  0  0  0  0  0  0  0
    9.8216   12.5905   23.3740 N   0  0  0  0  0  0  0  0  0  0  0  0
   11.1029   12.0449   23.6623 C   0  0  0  0  0  0  0  0  0  0  0  0
   12.1209   12.7973   22.8370 C   0  0  0  0  0  0  0  0  0  0  0  0
   11.4890   14.1163   22.5482 C   0  0  0  0  0  0  0  0  0  0  0  0
   10.0274   13.8150   22.7048 C   0  0  0  0  0  0  0  0  0  0  0  0
    9.1779   14.6160   22.3606 O   0  0  0  0  0  0  0  0  0  0  0  0
  1  2  1  0
  2  3  2  0
  3  4  1  0
  4  5  1  0
  5  6  1  0
  6  7  2  0
  8  6  1  1
  8  9  1  0
  9 10  1  1
 10 11  1  0
 10 12  1  0
 10 13  1  0
  9 14  1  0
 14 15  1  6
 15 16  1  0
 17 16  1  1
 17 18  1  0
  4 19  2  0
 19 20  1  0
 20 21  2  0
 21 22  1  0
 22 23  1  0
 23 24  1  0
 24 25  1  0
 25 26  1  0
 26 27  2  0
 21  2  1  0
 26 22  1  0
 17  8  1  0
 18 14  1  0
M  END
>  <energy_score>  (1587) 
-8.809062

>  <inchikey>  (1587) 
None

>  <smiles>  (1587) 
None

>  <ref_pdb>  (1587) 
A0310a

>  <alias>  (1587) 
None

>  <HIPPO Pose ID>  (1587) 
499231

>  <name>  (1587) 
P499231

>  <HIPPO Compound ID>  (1587) 
301818

>  <ref_mols>  (1587) 
A1445a,A0310a

>  <distance_score>  (1587) 
1.818073

>  <inspiration_score>  (1587) 
None

$$$$
P499232
     RDKit          3D

 27 30  0  0  0  0  0  0  0  0999 V2000
    8.7540   14.5053   25.4417 C   0  0  0  0  0  0  0  0  0  0  0  0
    8.3270   13.0794   25.3518 C   0  0  0  0  0  0  0  0  0  0  0  0
    7.3766   12.6731   26.3162 C   0  0  0  0  0  0  0  0  0  0  0  0
    6.8656   11.3894   26.3111 C   0  0  0  0  0  0  0  0  0  0  0  0
    5.5959   11.2269   26.8346 N   0  0  0  0  0  0  0  0  0  0  0  0
    5.0184   11.5990   28.2604 C   0  0  0  0  0  0  0  0  0  0  0  0
    5.5590   12.0220   29.2113 O   0  0  0  0  0  0  0  0  0  0  0  0
    3.5184   11.3757   28.0953 C   0  0  1  0  0  0  0  0  0  0  0  0
    2.2953   11.2404   28.9959 C   0  0  1  0  0  0  0  0  0  0  0  0
    2.2794   10.6368   30.3429 C   0  0  0  0  0  0  0  0  0  0  0  0
    3.0247   11.2752   31.2456 F   0  0  0  0  0  0  0  0  0  0  0  0
    2.6630    9.3461   30.2725 F   0  0  0  0  0  0  0  0  0  0  0  0
    0.9986   10.6472   30.7832 F   0  0  0  0  0  0  0  0  0  0  0  0
    1.5884   12.5738   28.8793 C   0  0  1  0  0  0  0  0  0  0  0  0
    2.4105   13.7631   29.3582 C   0  0  0  0  0  0  0  0  0  0  0  0
    3.3693   13.9663   28.1931 C   0  0  0  0  0  0  0  0  0  0  0  0
    3.1092   12.7068   27.3557 C   0  0  2  0  0  0  0  0  0  0  0  0
    1.6689   12.6876   27.4300 O   0  0  0  0  0  0  0  0  0  0  0  0
    7.3653   10.4785   25.3908 C   0  0  0  0  0  0  0  0  0  0  0  0
    8.3719   10.8467   24.4845 C   0  0  0  0  0  0  0  0  0  0  0  0
    8.8256   12.1703   24.4002 C   0  0  0  0  0  0  0  0  0  0  0  0
    9.8121   12.5047   23.4329 N   0  0  0  0  0  0  0  0  0  0  0  0
   10.9321   11.6594   23.2135 C   0  0  0  0  0  0  0  0  0  0  0  0
   12.0800   12.6216   23.4641 C   0  0  0  0  0  0  0  0  0  0  0  0
   11.6347   13.8115   22.6523 C   0  0  0  0  0  0  0  0  0  0  0  0
   10.1525   13.7518   22.8948 C   0  0  0  0  0  0  0  0  0  0  0  0
    9.4112   14.6704   22.6191 O   0  0  0  0  0  0  0  0  0  0  0  0
  1  2  1  0
  2  3  2  0
  3  4  1  0
  4  5  1  0
  5  6  1  0
  6  7  2  0
  8  6  1  1
  8  9  1  0
  9 10  1  1
 10 11  1  0
 10 12  1  0
 10 13  1  0
  9 14  1  0
 14 15  1  1
 15 16  1  0
 17 16  1  1
 17 18  1  0
  4 19  2  0
 19 20  1  0
 20 21  2  0
 21 22  1  0
 22 23  1  0
 23 24  1  0
 24 25  1  0
 25 26  1  0
 26 27  2  0
 21  2  1  0
 26 22  1  0
 17  8  1  0
 18 14  1  0
M  END
>  <energy_score>  (1588) 
-3.85371

>  <inchikey>  (1588) 
None

>  <smiles>  (1588) 
None

>  <ref_pdb>  (1588) 
A0310a

>  <alias>  (1588) 
None

>  <HIPPO Pose ID>  (1588) 
499232

>  <name>  (1588) 
P499232

>  <HIPPO Compound ID>  (1588) 
301818

>  <ref_mols>  (1588) 
A1445a,A0310a

>  <distance_score>  (1588) 
1.579134

>  <inspiration_score>  (1588) 
None

$$$$
P499233
     RDKit          3D

 27 30  0  0  0  0  0  0  0  0999 V2000
    7.4092   14.6244   24.2234 C   0  0  0  0  0  0  0  0  0  0  0  0
    7.5271   13.1881   24.5798 C   0  0  0  0  0  0  0  0  0  0  0  0
    6.4943   12.6976   25.4375 C   0  0  0  0  0  0  0  0  0  0  0  0
    6.5529   11.4352   25.9871 C   0  0  0  0  0  0  0  0  0  0  0  0
    5.5918   10.9943   26.9070 N   0  0  0  0  0  0  0  0  0  0  0  0
    5.7227   10.0281   28.1186 C   0  0  0  0  0  0  0  0  0  0  0  0
    6.6666    9.5150   28.5788 O   0  0  0  0  0  0  0  0  0  0  0  0
    4.3027    9.6719   28.6776 C   0  0  2  0  0  0  0  0  0  0  0  0
    3.6098   10.7297   29.5651 C   0  0  1  0  0  0  0  0  0  0  0  0
    2.1464   10.9582   29.2447 C   0  0  0  0  0  0  0  0  0  0  0  0
    1.5211   11.5811   30.2659 F   0  0  0  0  0  0  0  0  0  0  0  0
    1.4803    9.8105   28.9951 F   0  0  0  0  0  0  0  0  0  0  0  0
    2.0036   11.7213   28.1416 F   0  0  0  0  0  0  0  0  0  0  0  0
    3.7399   10.1332   30.9770 C   0  0  1  0  0  0  0  0  0  0  0  0
    2.7747    8.9865   31.2760 C   0  0  0  0  0  0  0  0  0  0  0  0
    3.2340    7.9360   30.2653 C   0  0  0  0  0  0  0  0  0  0  0  0
    4.5267    8.5516   29.7244 C   0  0  2  0  0  0  0  0  0  0  0  0
    4.9503    9.3553   30.8618 O   0  0  0  0  0  0  0  0  0  0  0  0
    7.5904   10.6140   25.5679 C   0  0  0  0  0  0  0  0  0  0  0  0
    8.5927   11.0740   24.6837 C   0  0  0  0  0  0  0  0  0  0  0  0
    8.6251   12.3946   24.2005 C   0  0  0  0  0  0  0  0  0  0  0  0
    9.8001   12.8650   23.4995 N   0  0  0  0  0  0  0  0  0  0  0  0
   11.0632   12.2668   23.7864 C   0  0  0  0  0  0  0  0  0  0  0  0
   12.1246   13.2706   23.4204 C   0  0  0  0  0  0  0  0  0  0  0  0
   11.5037   14.0102   22.2776 C   0  0  0  0  0  0  0  0  0  0  0  0
   10.0305   13.9158   22.5981 C   0  0  0  0  0  0  0  0  0  0  0  0
    9.2399   14.6685   22.0644 O   0  0  0  0  0  0  0  0  0  0  0  0
  1  2  1  0
  2  3  2  0
  3  4  1  0
  4  5  1  0
  5  6  1  0
  6  7  2  0
  8  6  1  1
  8  9  1  0
  9 10  1  6
 10 11  1  0
 10 12  1  0
 10 13  1  0
  9 14  1  0
 14 15  1  6
 15 16  1  0
 17 16  1  1
 17 18  1  0
  4 19  2  0
 19 20  1  0
 20 21  2  0
 21 22  1  0
 22 23  1  0
 23 24  1  0
 24 25  1  0
 25 26  1  0
 26 27  2  0
 21  2  1  0
 26 22  1  0
 17  8  1  0
 18 14  1  0
M  END
>  <energy_score>  (1589) 
-7.470947

>  <inchikey>  (1589) 
None

>  <smiles>  (1589) 
None

>  <ref_pdb>  (1589) 
A0310a

>  <alias>  (1589) 
None

>  <HIPPO Pose ID>  (1589) 
499233

>  <name>  (1589) 
P499233

>  <HIPPO Compound ID>  (1589) 
301818

>  <ref_mols>  (1589) 
A1445a,A0310a

>  <distance_score>  (1589) 
1.665391

>  <inspiration_score>  (1589) 
None

$$$$
P499234
     RDKit          3D

 27 30  0  0  0  0  0  0  0  0999 V2000
    7.7900   14.4421   24.6542 C   0  0  0  0  0  0  0  0  0  0  0  0
    7.8825   12.9537   24.6844 C   0  0  0  0  0  0  0  0  0  0  0  0
    6.9114   12.3009   25.4933 C   0  0  0  0  0  0  0  0  0  0  0  0
    6.9576   10.9370   25.7164 C   0  0  0  0  0  0  0  0  0  0  0  0
    6.1767   10.3167   26.6977 N   0  0  0  0  0  0  0  0  0  0  0  0
    4.9930   10.8794   27.5645 C   0  0  0  0  0  0  0  0  0  0  0  0
    4.4522   11.9175   27.5265 O   0  0  0  0  0  0  0  0  0  0  0  0
    4.6879    9.8243   28.6255 C   0  0  2  0  0  0  0  0  0  0  0  0
    3.4730    9.9224   29.5830 C   0  0  2  0  0  0  0  0  0  0  0  0
    2.1767   10.6136   29.2725 C   0  0  0  0  0  0  0  0  0  0  0  0
    1.3401   10.4794   30.3354 F   0  0  0  0  0  0  0  0  0  0  0  0
    1.5717   10.0183   28.2203 F   0  0  0  0  0  0  0  0  0  0  0  0
    2.2657   11.9228   29.0178 F   0  0  0  0  0  0  0  0  0  0  0  0
    4.1098   10.3672   30.8907 C   0  0  2  0  0  0  0  0  0  0  0  0
    4.8143   11.7210   30.8382 C   0  0  0  0  0  0  0  0  0  0  0  0
    6.1197   11.3769   30.1226 C   0  0  0  0  0  0  0  0  0  0  0  0
    5.8476    9.9403   29.6647 C   0  0  1  0  0  0  0  0  0  0  0  0
    5.2432    9.4470   30.8836 O   0  0  0  0  0  0  0  0  0  0  0  0
    7.9284   10.2069   25.0428 C   0  0  0  0  0  0  0  0  0  0  0  0
    8.8832   10.8383   24.2251 C   0  0  0  0  0  0  0  0  0  0  0  0
    8.9033   12.2297   24.0395 C   0  0  0  0  0  0  0  0  0  0  0  0
    9.9972   12.8300   23.3339 N   0  0  0  0  0  0  0  0  0  0  0  0
   11.2547   12.1784   23.2223 C   0  0  0  0  0  0  0  0  0  0  0  0
   12.2449   13.2715   22.9231 C   0  0  0  0  0  0  0  0  0  0  0  0
   11.4631   14.1877   22.0340 C   0  0  0  0  0  0  0  0  0  0  0  0
   10.0564   13.9738   22.5305 C   0  0  0  0  0  0  0  0  0  0  0  0
    9.1524   14.7033   22.1791 O   0  0  0  0  0  0  0  0  0  0  0  0
  1  2  1  0
  2  3  2  0
  3  4  1  0
  4  5  1  0
  5  6  1  0
  6  7  2  0
  8  6  1  6
  8  9  1  0
  9 10  1  6
 10 11  1  0
 10 12  1  0
 10 13  1  0
  9 14  1  0
 14 15  1  6
 15 16  1  0
 17 16  1  1
 17 18  1  0
  4 19  2  0
 19 20  1  0
 20 21  2  0
 21 22  1  0
 22 23  1  0
 23 24  1  0
 24 25  1  0
 25 26  1  0
 26 27  2  0
 21  2  1  0
 26 22  1  0
 17  8  1  0
 18 14  1  0
M  END
>  <energy_score>  (1590) 
-29.828169

>  <inchikey>  (1590) 
None

>  <smiles>  (1590) 
None

>  <ref_pdb>  (1590) 
A0310a

>  <alias>  (1590) 
None

>  <HIPPO Pose ID>  (1590) 
499234

>  <name>  (1590) 
P499234

>  <HIPPO Compound ID>  (1590) 
301818

>  <ref_mols>  (1590) 
A1445a,A0310a

>  <distance_score>  (1590) 
1.540988

>  <inspiration_score>  (1590) 
None

$$$$
P499235
     RDKit          3D

 27 30  0  0  0  0  0  0  0  0999 V2000
    8.0425   14.4260   25.1621 C   0  0  0  0  0  0  0  0  0  0  0  0
    7.9131   12.9367   25.0591 C   0  0  0  0  0  0  0  0  0  0  0  0
    6.8769   12.3725   25.8428 C   0  0  0  0  0  0  0  0  0  0  0  0
    6.7174   11.0027   25.9380 C   0  0  0  0  0  0  0  0  0  0  0  0
    5.8915   10.4026   26.8927 N   0  0  0  0  0  0  0  0  0  0  0  0
    5.1209   11.0225   28.1001 C   0  0  0  0  0  0  0  0  0  0  0  0
    5.0002   12.1432   28.4325 O   0  0  0  0  0  0  0  0  0  0  0  0
    4.5561    9.8780   28.9624 C   0  0  2  0  0  0  0  0  0  0  0  0
    3.2104    9.9189   29.7166 C   0  0  2  0  0  0  0  0  0  0  0  0
    2.0389   10.7563   29.3188 C   0  0  0  0  0  0  0  0  0  0  0  0
    1.0547   10.6106   30.2378 F   0  0  0  0  0  0  0  0  0  0  0  0
    1.5451   10.3065   28.1459 F   0  0  0  0  0  0  0  0  0  0  0  0
    2.2773   12.0594   29.1918 F   0  0  0  0  0  0  0  0  0  0  0  0
    3.6313   10.0541   31.1671 C   0  0  2  0  0  0  0  0  0  0  0  0
    4.3743   11.3410   31.5064 C   0  0  0  0  0  0  0  0  0  0  0  0
    5.7732   11.0477   30.9686 C   0  0  0  0  0  0  0  0  0  0  0  0
    5.5341    9.7586   30.1794 C   0  0  1  0  0  0  0  0  0  0  0  0
    4.7174    9.0755   31.1559 O   0  0  0  0  0  0  0  0  0  0  0  0
    7.5578   10.1963   25.1628 C   0  0  0  0  0  0  0  0  0  0  0  0
    8.5670   10.7391   24.3626 C   0  0  0  0  0  0  0  0  0  0  0  0
    8.7823   12.1165   24.2969 C   0  0  0  0  0  0  0  0  0  0  0  0
    9.9307   12.6181   23.6225 N   0  0  0  0  0  0  0  0  0  0  0  0
   10.9486   11.7923   23.0813 C   0  0  0  0  0  0  0  0  0  0  0  0
   12.1557   12.7098   22.9340 C   0  0  0  0  0  0  0  0  0  0  0  0
   11.6174   14.1057   22.9397 C   0  0  0  0  0  0  0  0  0  0  0  0
   10.1509   13.8677   23.0534 C   0  0  0  0  0  0  0  0  0  0  0  0
    9.3298   14.6689   22.6643 O   0  0  0  0  0  0  0  0  0  0  0  0
  1  2  1  0
  2  3  2  0
  3  4  1  0
  4  5  1  0
  5  6  1  0
  6  7  2  0
  8  6  1  1
  8  9  1  0
  9 10  1  6
 10 11  1  0
 10 12  1  0
 10 13  1  0
  9 14  1  0
 14 15  1  6
 15 16  1  0
 17 16  1  1
 17 18  1  0
  4 19  2  0
 19 20  1  0
 20 21  2  0
 21 22  1  0
 22 23  1  0
 23 24  1  0
 24 25  1  0
 25 26  1  0
 26 27  2  0
 21  2  1  0
 26 22  1  0
 17  8  1  0
 18 14  1  0
M  END
>  <energy_score>  (1591) 
-42.242102

>  <inchikey>  (1591) 
None

>  <smiles>  (1591) 
None

>  <ref_pdb>  (1591) 
A0310a

>  <alias>  (1591) 
None

>  <HIPPO Pose ID>  (1591) 
499235

>  <name>  (1591) 
P499235

>  <HIPPO Compound ID>  (1591) 
301818

>  <ref_mols>  (1591) 
A1445a,A0310a

>  <distance_score>  (1591) 
1.605621

>  <inspiration_score>  (1591) 
None

$$$$
P499236
     RDKit          3D

 27 30  0  0  0  0  0  0  0  0999 V2000
    7.2633   14.1871   22.9323 C   0  0  0  0  0  0  0  0  0  0  0  0
    7.5813   13.2055   24.0080 C   0  0  0  0  0  0  0  0  0  0  0  0
    6.5991   13.1216   25.0154 C   0  0  0  0  0  0  0  0  0  0  0  0
    6.5243   12.0414   25.8756 C   0  0  0  0  0  0  0  0  0  0  0  0
    5.4870   12.0559   26.7960 N   0  0  0  0  0  0  0  0  0  0  0  0
    5.1994   11.1226   28.0118 C   0  0  0  0  0  0  0  0  0  0  0  0
    5.7510   10.1574   28.3723 O   0  0  0  0  0  0  0  0  0  0  0  0
    3.9999   11.7537   28.7166 C   0  0  1  0  0  0  0  0  0  0  0  0
    3.4467   10.9873   29.9350 C   0  0  2  0  0  0  0  0  0  0  0  0
    1.9992   10.5793   29.7467 C   0  0  0  0  0  0  0  0  0  0  0  0
    1.4803   10.1161   30.9049 F   0  0  0  0  0  0  0  0  0  0  0  0
    1.8941    9.5903   28.8320 F   0  0  0  0  0  0  0  0  0  0  0  0
    1.2192   11.5929   29.3201 F   0  0  0  0  0  0  0  0  0  0  0  0
    3.5473   12.0415   31.0366 C   0  0  1  0  0  0  0  0  0  0  0  0
    5.0038   12.2350   31.4626 C   0  0  0  0  0  0  0  0  0  0  0  0
    5.5782   13.0213   30.2855 C   0  0  0  0  0  0  0  0  0  0  0  0
    4.3749   13.1071   29.3453 C   0  0  2  0  0  0  0  0  0  0  0  0
    3.3085   13.2636   30.3060 O   0  0  0  0  0  0  0  0  0  0  0  0
    7.4238   11.0107   25.7062 C   0  0  0  0  0  0  0  0  0  0  0  0
    8.4691   11.1472   24.7675 C   0  0  0  0  0  0  0  0  0  0  0  0
    8.6415   12.3040   23.9705 C   0  0  0  0  0  0  0  0  0  0  0  0
    9.8508   12.5390   23.2367 N   0  0  0  0  0  0  0  0  0  0  0  0
   10.9466   11.6368   23.2707 C   0  0  0  0  0  0  0  0  0  0  0  0
   12.0800   12.5313   23.7321 C   0  0  0  0  0  0  0  0  0  0  0  0
   11.9018   13.6785   22.7787 C   0  0  0  0  0  0  0  0  0  0  0  0
   10.3975   13.7644   22.7622 C   0  0  0  0  0  0  0  0  0  0  0  0
    9.8642   14.7942   22.4092 O   0  0  0  0  0  0  0  0  0  0  0  0
  1  2  1  0
  2  3  2  0
  3  4  1  0
  4  5  1  0
  5  6  1  0
  6  7  2  0
  8  6  1  1
  8  9  1  0
  9 10  1  6
 10 11  1  0
 10 12  1  0
 10 13  1  0
  9 14  1  0
 14 15  1  6
 15 16  1  0
 17 16  1  1
 17 18  1  0
  4 19  2  0
 19 20  1  0
 20 21  2  0
 21 22  1  0
 22 23  1  0
 23 24  1  0
 24 25  1  0
 25 26  1  0
 26 27  2  0
 21  2  1  0
 26 22  1  0
 17  8  1  0
 18 14  1  0
M  END
>  <energy_score>  (1592) 
-27.679699

>  <inchikey>  (1592) 
None

>  <smiles>  (1592) 
None

>  <ref_pdb>  (1592) 
A0310a

>  <alias>  (1592) 
None

>  <HIPPO Pose ID>  (1592) 
499236

>  <name>  (1592) 
P499236

>  <HIPPO Compound ID>  (1592) 
301818

>  <ref_mols>  (1592) 
A1445a,A0310a

>  <distance_score>  (1592) 
1.50367

>  <inspiration_score>  (1592) 
None

$$$$
P499237
     RDKit          3D

 27 30  0  0  0  0  0  0  0  0999 V2000
    7.7631   14.4349   24.6814 C   0  0  0  0  0  0  0  0  0  0  0  0
    7.8547   12.9460   24.7234 C   0  0  0  0  0  0  0  0  0  0  0  0
    6.8918   12.2985   25.5505 C   0  0  0  0  0  0  0  0  0  0  0  0
    6.9235   10.9325   25.7690 C   0  0  0  0  0  0  0  0  0  0  0  0
    6.1218   10.3080   26.7349 N   0  0  0  0  0  0  0  0  0  0  0  0
    4.9534   10.8829   27.6180 C   0  0  0  0  0  0  0  0  0  0  0  0
    4.4439   11.9383   27.6085 O   0  0  0  0  0  0  0  0  0  0  0  0
    4.6029    9.8063   28.6659 C   0  0  2  0  0  0  0  0  0  0  0  0
    3.4075   10.0381   29.6167 C   0  0  2  0  0  0  0  0  0  0  0  0
    2.0996   10.6696   29.2361 C   0  0  0  0  0  0  0  0  0  0  0  0
    1.2674   10.6053   30.3122 F   0  0  0  0  0  0  0  0  0  0  0  0
    1.5094    9.9486   28.2536 F   0  0  0  0  0  0  0  0  0  0  0  0
    2.1410   11.9468   28.8541 F   0  0  0  0  0  0  0  0  0  0  0  0
    4.0546   10.7018   30.8422 C   0  0  1  0  0  0  0  0  0  0  0  0
    4.5356    9.5898   31.7731 C   0  0  0  0  0  0  0  0  0  0  0  0
    5.5962    8.9180   30.8883 C   0  0  0  0  0  0  0  0  0  0  0  0
    5.7367    9.9044   29.7148 C   0  0  2  0  0  0  0  0  0  0  0  0
    5.3512   11.1361   30.3704 O   0  0  0  0  0  0  0  0  0  0  0  0
    7.8811   10.1988   25.0806 C   0  0  0  0  0  0  0  0  0  0  0  0
    8.8322   10.8243   24.2523 C   0  0  0  0  0  0  0  0  0  0  0  0
    8.8610   12.2153   24.0637 C   0  0  0  0  0  0  0  0  0  0  0  0
    9.9474   12.8038   23.3353 N   0  0  0  0  0  0  0  0  0  0  0  0
   11.1920   12.1327   23.1903 C   0  0  0  0  0  0  0  0  0  0  0  0
   12.1970   13.2164   22.9024 C   0  0  0  0  0  0  0  0  0  0  0  0
   11.4193   14.1620   22.0414 C   0  0  0  0  0  0  0  0  0  0  0  0
   10.0150   13.9581   22.5485 C   0  0  0  0  0  0  0  0  0  0  0  0
    9.1193   14.7058   22.2155 O   0  0  0  0  0  0  0  0  0  0  0  0
  1  2  1  0
  2  3  2  0
  3  4  1  0
  4  5  1  0
  5  6  1  0
  6  7  2  0
  8  6  1  6
  8  9  1  0
  9 10  1  6
 10 11  1  0
 10 12  1  0
 10 13  1  0
  9 14  1  0
 14 15  1  1
 15 16  1  0
 17 16  1  1
 17 18  1  0
  4 19  2  0
 19 20  1  0
 20 21  2  0
 21 22  1  0
 22 23  1  0
 23 24  1  0
 24 25  1  0
 25 26  1  0
 26 27  2  0
 21  2  1  0
 26 22  1  0
 17  8  1  0
 18 14  1  0
M  END
>  <energy_score>  (1593) 
-34.644472

>  <inchikey>  (1593) 
None

>  <smiles>  (1593) 
None

>  <ref_pdb>  (1593) 
A0310a

>  <alias>  (1593) 
None

>  <HIPPO Pose ID>  (1593) 
499237

>  <name>  (1593) 
P499237

>  <HIPPO Compound ID>  (1593) 
301818

>  <ref_mols>  (1593) 
A1445a,A0310a

>  <distance_score>  (1593) 
1.527276

>  <inspiration_score>  (1593) 
None

$$$$
P499238
     RDKit          3D

 27 29  0  0  0  0  0  0  0  0999 V2000
    7.5529   14.5511   24.2804 C   0  0  0  0  0  0  0  0  0  0  0  0
    7.6311   13.1122   24.6465 C   0  0  0  0  0  0  0  0  0  0  0  0
    6.5798   12.6823   25.5000 C   0  0  0  0  0  0  0  0  0  0  0  0
    6.5660   11.4178   26.0432 C   0  0  0  0  0  0  0  0  0  0  0  0
    5.5766   11.0799   26.9579 N   0  0  0  0  0  0  0  0  0  0  0  0
    5.6244   10.1374   28.1961 C   0  0  0  0  0  0  0  0  0  0  0  0
    6.5230    9.5640   28.6776 O   0  0  0  0  0  0  0  0  0  0  0  0
    4.1958    9.9327   28.7195 C   0  0  0  0  0  0  0  0  0  0  0  0
    3.3460   11.1645   29.0593 C   0  0  2  0  0  0  0  0  0  0  0  0
    4.0169   12.0167   30.1414 C   0  0  0  0  0  0  0  0  0  0  0  0
    5.2188   12.9205   29.7334 C   0  0  0  0  0  0  0  0  0  0  0  0
    4.7051   13.9447   30.7637 C   0  0  0  0  0  0  0  0  0  0  0  0
    3.3040   13.3420   30.5456 C   0  0  0  0  0  0  0  0  0  0  0  0
    1.9673   10.7134   29.5536 C   0  0  0  0  0  0  0  0  0  0  0  0
    1.9985   10.2298   30.8102 F   0  0  0  0  0  0  0  0  0  0  0  0
    1.4560    9.7515   28.7517 F   0  0  0  0  0  0  0  0  0  0  0  0
    1.0945   11.7438   29.5241 F   0  0  0  0  0  0  0  0  0  0  0  0
    7.5213   10.5255   25.6120 C   0  0  0  0  0  0  0  0  0  0  0  0
    8.5311   10.9195   24.7138 C   0  0  0  0  0  0  0  0  0  0  0  0
    8.6697   12.2426   24.2484 C   0  0  0  0  0  0  0  0  0  0  0  0
    9.8857   12.6676   23.5873 N   0  0  0  0  0  0  0  0  0  0  0  0
   10.9330   11.8467   23.3048 C   0  0  0  0  0  0  0  0  0  0  0  0
   10.9379   10.6266   23.2833 O   0  0  0  0  0  0  0  0  0  0  0  0
   12.1533   12.6786   22.9946 C   0  0  0  0  0  0  0  0  0  0  0  0
   11.6900   14.0803   23.1659 C   0  0  0  0  0  0  0  0  0  0  0  0
   10.2254   13.8681   23.0286 C   0  0  0  0  0  0  0  0  0  0  0  0
    9.5520   14.6631   22.4026 O   0  0  0  0  0  0  0  0  0  0  0  0
  1  2  1  0
  2  3  2  0
  3  4  1  0
  4  5  1  0
  5  6  1  0
  6  7  2  0
  6  8  1  0
  9  8  1  1
  9 10  1  0
 10 11  1  0
 11 12  1  0
 12 13  1  0
  9 14  1  0
 14 15  1  0
 14 16  1  0
 14 17  1  0
  4 18  2  0
 18 19  1  0
 19 20  2  0
 20 21  1  0
 21 22  1  0
 22 23  2  0
 22 24  1  0
 24 25  1  0
 25 26  1  0
 26 27  2  0
 20  2  1  0
 26 21  1  0
 13 10  1  0
M  END
>  <energy_score>  (1594) 
-18.593501

>  <inchikey>  (1594) 
None

>  <smiles>  (1594) 
None

>  <ref_pdb>  (1594) 
A0310a

>  <alias>  (1594) 
None

>  <HIPPO Pose ID>  (1594) 
499238

>  <name>  (1594) 
P499238

>  <HIPPO Compound ID>  (1594) 
301819

>  <ref_mols>  (1594) 
A1445a,A0310a

>  <distance_score>  (1594) 
1.428965

>  <inspiration_score>  (1594) 
None

$$$$
P499239
     RDKit          3D

 27 29  0  0  0  0  0  0  0  0999 V2000
    8.4246   14.5010   25.2795 C   0  0  0  0  0  0  0  0  0  0  0  0
    8.1777   13.0361   25.1353 C   0  0  0  0  0  0  0  0  0  0  0  0
    7.2114   12.5032   26.0136 C   0  0  0  0  0  0  0  0  0  0  0  0
    6.9129   11.1515   26.0385 C   0  0  0  0  0  0  0  0  0  0  0  0
    5.9241   10.6980   26.9001 N   0  0  0  0  0  0  0  0  0  0  0  0
    5.3994   11.2948   28.2402 C   0  0  0  0  0  0  0  0  0  0  0  0
    5.7734   12.2133   28.8568 O   0  0  0  0  0  0  0  0  0  0  0  0
    4.1512   10.5112   28.6293 C   0  0  0  0  0  0  0  0  0  0  0  0
    3.2284   11.1909   29.6673 C   0  0  1  0  0  0  0  0  0  0  0  0
    2.7485   12.6250   29.3342 C   0  0  0  0  0  0  0  0  0  0  0  0
    2.7377   13.1912   27.8850 C   0  0  0  0  0  0  0  0  0  0  0  0
    2.8959   14.5950   28.5057 C   0  0  0  0  0  0  0  0  0  0  0  0
    3.5063   13.9175   29.7523 C   0  0  0  0  0  0  0  0  0  0  0  0
    1.9499   10.3543   29.7903 C   0  0  0  0  0  0  0  0  0  0  0  0
    1.2584   10.6822   30.9026 F   0  0  0  0  0  0  0  0  0  0  0  0
    2.2040    9.0328   29.8454 F   0  0  0  0  0  0  0  0  0  0  0  0
    1.1409   10.5606   28.7220 F   0  0  0  0  0  0  0  0  0  0  0  0
    7.5691   10.3172   25.1588 C   0  0  0  0  0  0  0  0  0  0  0  0
    8.5535   10.8292   24.2967 C   0  0  0  0  0  0  0  0  0  0  0  0
    8.8823   12.1972   24.2523 C   0  0  0  0  0  0  0  0  0  0  0  0
   10.0000   12.6736   23.4967 N   0  0  0  0  0  0  0  0  0  0  0  0
   11.0719   11.9116   23.1895 C   0  0  0  0  0  0  0  0  0  0  0  0
   11.1539   10.7024   23.3218 O   0  0  0  0  0  0  0  0  0  0  0  0
   12.2077   12.7947   22.7483 C   0  0  0  0  0  0  0  0  0  0  0  0
   11.6145   14.1579   22.6461 C   0  0  0  0  0  0  0  0  0  0  0  0
   10.1751   13.8819   22.8974 C   0  0  0  0  0  0  0  0  0  0  0  0
    9.3167   14.6582   22.5256 O   0  0  0  0  0  0  0  0  0  0  0  0
  1  2  1  0
  2  3  2  0
  3  4  1  0
  4  5  1  0
  5  6  1  0
  6  7  2  0
  6  8  1  0
  9  8  1  6
  9 10  1  0
 10 11  1  0
 11 12  1  0
 12 13  1  0
  9 14  1  0
 14 15  1  0
 14 16  1  0
 14 17  1  0
  4 18  2  0
 18 19  1  0
 19 20  2  0
 20 21  1  0
 21 22  1  0
 22 23  2  0
 22 24  1  0
 24 25  1  0
 25 26  1  0
 26 27  2  0
 20  2  1  0
 26 21  1  0
 13 10  1  0
M  END
>  <energy_score>  (1595) 
-33.445864

>  <inchikey>  (1595) 
None

>  <smiles>  (1595) 
None

>  <ref_pdb>  (1595) 
A0310a

>  <alias>  (1595) 
None

>  <HIPPO Pose ID>  (1595) 
499239

>  <name>  (1595) 
P499239

>  <HIPPO Compound ID>  (1595) 
301819

>  <ref_mols>  (1595) 
A1445a,A0310a

>  <distance_score>  (1595) 
1.43657

>  <inspiration_score>  (1595) 
None

$$$$
P499240
     RDKit          3D

 27 29  0  0  0  0  0  0  0  0999 V2000
    8.2172    9.6269   24.5669 C   0  0  0  0  0  0  0  0  0  0  0  0
    7.6436   10.8910   25.1090 C   0  0  0  0  0  0  0  0  0  0  0  0
    6.5593   10.7680   26.0209 C   0  0  0  0  0  0  0  0  0  0  0  0
    5.9219   11.8902   26.5443 C   0  0  0  0  0  0  0  0  0  0  0  0
    4.7675   11.8035   27.3106 N   0  0  0  0  0  0  0  0  0  0  0  0
    3.9409   12.9160   28.0232 C   0  0  0  0  0  0  0  0  0  0  0  0
    4.1508   14.0595   28.1359 O   0  0  0  0  0  0  0  0  0  0  0  0
    2.6410   12.2970   28.5223 C   0  0  2  0  0  0  0  0  0  0  0  0
    1.6330   13.4142   28.8797 C   0  0  0  0  0  0  0  0  0  0  0  0
    1.8727   13.7534   30.6196 S   0  0  0  0  0  0  0  0  0  0  0  0
    0.6550   13.4334   31.3321 O   0  0  0  0  0  0  0  0  0  0  0  0
    2.5562   15.0143   30.7951 O   0  0  0  0  0  0  0  0  0  0  0  0
    3.0308   12.4394   30.9282 C   0  0  0  0  0  0  0  0  0  0  0  0
    2.8748   11.4472   29.7795 C   0  0  1  0  0  0  0  0  0  0  0  0
    1.7116   10.4934   29.9818 C   0  0  0  0  0  0  0  0  0  0  0  0
    1.7629    9.9100   31.1890 F   0  0  0  0  0  0  0  0  0  0  0  0
    1.7646    9.5210   29.0411 F   0  0  0  0  0  0  0  0  0  0  0  0
    0.5254   11.1014   29.8402 F   0  0  0  0  0  0  0  0  0  0  0  0
    6.3775   13.1409   26.1931 C   0  0  0  0  0  0  0  0  0  0  0  0
    7.4257   13.2696   25.2997 C   0  0  0  0  0  0  0  0  0  0  0  0
    8.0923   12.1623   24.7317 C   0  0  0  0  0  0  0  0  0  0  0  0
    9.1714   12.4489   23.8433 N   0  0  0  0  0  0  0  0  0  0  0  0
    9.4682   13.8280   23.5225 C   0  0  0  0  0  0  0  0  0  0  0  0
   10.5552   13.7760   22.5002 C   0  0  0  0  0  0  0  0  0  0  0  0
   11.3042   12.5509   22.9293 C   0  0  0  0  0  0  0  0  0  0  0  0
   10.1945   11.6171   23.3329 C   0  0  0  0  0  0  0  0  0  0  0  0
   10.3150   10.4073   23.2690 O   0  0  0  0  0  0  0  0  0  0  0  0
  1  2  1  0
  2  3  2  0
  3  4  1  0
  4  5  1  0
  5  6  1  0
  6  7  2  0
  8  6  1  1
  8  9  1  0
  9 10  1  0
 10 11  2  0
 10 12  2  0
 10 13  1  0
 13 14  1  0
 14 15  1  1
 15 16  1  0
 15 17  1  0
 15 18  1  0
  4 19  2  0
 19 20  1  0
 20 21  2  0
 21 22  1  0
 22 23  1  0
 23 24  1  0
 24 25  1  0
 25 26  1  0
 26 27  2  0
 21  2  1  0
 26 22  1  0
 14  8  1  0
M  END
>  <energy_score>  (1596) 
-58.090355

>  <inchikey>  (1596) 
None

>  <smiles>  (1596) 
None

>  <ref_pdb>  (1596) 
A0310a

>  <alias>  (1596) 
None

>  <HIPPO Pose ID>  (1596) 
499240

>  <name>  (1596) 
P499240

>  <HIPPO Compound ID>  (1596) 
301821

>  <ref_mols>  (1596) 
A1445a,A0310a

>  <distance_score>  (1596) 
1.865155

>  <inspiration_score>  (1596) 
None

$$$$
P499241
     RDKit          3D

 27 29  0  0  0  0  0  0  0  0999 V2000
    8.8405   14.6280   25.6992 C   0  0  0  0  0  0  0  0  0  0  0  0
    8.3053   13.2431   25.5243 C   0  0  0  0  0  0  0  0  0  0  0  0
    7.2581   12.9051   26.4013 C   0  0  0  0  0  0  0  0  0  0  0  0
    6.6548   11.6656   26.3456 C   0  0  0  0  0  0  0  0  0  0  0  0
    5.3696   11.5887   26.8568 N   0  0  0  0  0  0  0  0  0  0  0  0
    4.7560   12.1982   28.1708 C   0  0  0  0  0  0  0  0  0  0  0  0
    5.2685   12.7853   29.0457 O   0  0  0  0  0  0  0  0  0  0  0  0
    3.2278   11.9677   28.0615 C   0  0  2  0  0  0  0  0  0  0  0  0
    2.7731   13.1303   27.1216 C   0  0  0  0  0  0  0  0  0  0  0  0
    2.8245   14.4976   27.8270 C   0  0  0  0  0  0  0  0  0  0  0  0
    2.0983   14.5209   29.1723 C   0  0  0  0  0  0  0  0  0  0  0  0
    2.4058   13.3085   30.0571 C   0  0  0  0  0  0  0  0  0  0  0  0
    2.2566   12.0286   29.2423 C   0  0  2  0  0  0  0  0  0  0  0  0
    2.1200   10.7732   30.0644 C   0  0  0  0  0  0  0  0  0  0  0  0
    3.1133   10.5850   30.9382 F   0  0  0  0  0  0  0  0  0  0  0  0
    2.0297    9.6827   29.2665 F   0  0  0  0  0  0  0  0  0  0  0  0
    0.9581   10.8379   30.7524 F   0  0  0  0  0  0  0  0  0  0  0  0
    7.1665   10.7119   25.4758 C   0  0  0  0  0  0  0  0  0  0  0  0
    8.2615   11.0178   24.6400 C   0  0  0  0  0  0  0  0  0  0  0  0
    8.8079   12.3109   24.5899 C   0  0  0  0  0  0  0  0  0  0  0  0
    9.9232   12.6591   23.7722 N   0  0  0  0  0  0  0  0  0  0  0  0
   10.7962   11.8045   23.1982 C   0  0  0  0  0  0  0  0  0  0  0  0
   10.6529   10.6041   23.0617 O   0  0  0  0  0  0  0  0  0  0  0  0
   12.0166   12.6104   22.8123 C   0  0  0  0  0  0  0  0  0  0  0  0
   11.5315   14.0172   22.7277 C   0  0  0  0  0  0  0  0  0  0  0  0
   10.1164   13.8416   23.1325 C   0  0  0  0  0  0  0  0  0  0  0  0
    9.2651   14.6461   22.8117 O   0  0  0  0  0  0  0  0  0  0  0  0
  1  2  1  0
  2  3  2  0
  3  4  1  0
  4  5  1  0
  5  6  1  0
  6  7  2  0
  8  6  1  1
  8  9  1  0
  9 10  1  0
 10 11  1  0
 11 12  1  0
 12 13  1  0
 13 14  1  1
 14 15  1  0
 14 16  1  0
 14 17  1  0
  4 18  2  0
 18 19  1  0
 19 20  2  0
 20 21  1  0
 21 22  1  0
 22 23  2  0
 22 24  1  0
 24 25  1  0
 25 26  1  0
 26 27  2  0
 20  2  1  0
 26 21  1  0
 13  8  1  0
M  END
>  <energy_score>  (1597) 
-24.806282

>  <inchikey>  (1597) 
None

>  <smiles>  (1597) 
None

>  <ref_pdb>  (1597) 
A0310a

>  <alias>  (1597) 
None

>  <HIPPO Pose ID>  (1597) 
499241

>  <name>  (1597) 
P499241

>  <HIPPO Compound ID>  (1597) 
301823

>  <ref_mols>  (1597) 
A1445a,A0310a

>  <distance_score>  (1597) 
1.688131

>  <inspiration_score>  (1597) 
None

$$$$
P499242
     RDKit          3D

 27 29  0  0  0  0  0  0  0  0999 V2000
    8.0972   14.5305   24.9443 C   0  0  0  0  0  0  0  0  0  0  0  0
    7.9859   13.0448   24.9186 C   0  0  0  0  0  0  0  0  0  0  0  0
    6.9929   12.5200   25.7709 C   0  0  0  0  0  0  0  0  0  0  0  0
    6.8223   11.1597   25.9552 C   0  0  0  0  0  0  0  0  0  0  0  0
    5.9092   10.7090   26.9004 N   0  0  0  0  0  0  0  0  0  0  0  0
    5.0456   11.4988   27.9285 C   0  0  0  0  0  0  0  0  0  0  0  0
    5.0298   12.6395   28.1867 O   0  0  0  0  0  0  0  0  0  0  0  0
    4.1348   10.5085   28.6863 C   0  0  1  0  0  0  0  0  0  0  0  0
    4.9348    9.7028   29.7127 C   0  0  0  0  0  0  0  0  0  0  0  0
    5.3889   10.5504   30.8983 C   0  0  0  0  0  0  0  0  0  0  0  0
    4.2201   11.2550   31.5756 C   0  0  0  0  0  0  0  0  0  0  0  0
    3.3930   12.0847   30.5944 C   0  0  0  0  0  0  0  0  0  0  0  0
    2.9688   11.3111   29.3281 C   0  0  2  0  0  0  0  0  0  0  0  0
    1.7389   10.4665   29.6181 C   0  0  0  0  0  0  0  0  0  0  0  0
    1.8758    9.7032   30.7168 F   0  0  0  0  0  0  0  0  0  0  0  0
    1.4441    9.6524   28.5813 F   0  0  0  0  0  0  0  0  0  0  0  0
    0.6654   11.2664   29.8046 F   0  0  0  0  0  0  0  0  0  0  0  0
    7.5949   10.3036   25.2033 C   0  0  0  0  0  0  0  0  0  0  0  0
    8.5704   10.8120   24.3291 C   0  0  0  0  0  0  0  0  0  0  0  0
    8.8199   12.1916   24.1772 C   0  0  0  0  0  0  0  0  0  0  0  0
    9.9718   12.6707   23.4677 N   0  0  0  0  0  0  0  0  0  0  0  0
   11.0472   11.9007   23.1837 C   0  0  0  0  0  0  0  0  0  0  0  0
   11.1115   10.6865   23.2755 O   0  0  0  0  0  0  0  0  0  0  0  0
   12.2087   12.7738   22.7900 C   0  0  0  0  0  0  0  0  0  0  0  0
   11.6585   14.1569   22.7981 C   0  0  0  0  0  0  0  0  0  0  0  0
   10.1994   13.8836   22.8892 C   0  0  0  0  0  0  0  0  0  0  0  0
    9.3927   14.6654   22.4239 O   0  0  0  0  0  0  0  0  0  0  0  0
  1  2  1  0
  2  3  2  0
  3  4  1  0
  4  5  1  0
  5  6  1  0
  6  7  2  0
  8  6  1  1
  8  9  1  0
  9 10  1  0
 10 11  1  0
 11 12  1  0
 12 13  1  0
 13 14  1  1
 14 15  1  0
 14 16  1  0
 14 17  1  0
  4 18  2  0
 18 19  1  0
 19 20  2  0
 20 21  1  0
 21 22  1  0
 22 23  2  0
 22 24  1  0
 24 25  1  0
 25 26  1  0
 26 27  2  0
 20  2  1  0
 26 21  1  0
 13  8  1  0
M  END
>  <energy_score>  (1598) 
-24.827207

>  <inchikey>  (1598) 
None

>  <smiles>  (1598) 
None

>  <ref_pdb>  (1598) 
A0310a

>  <alias>  (1598) 
None

>  <HIPPO Pose ID>  (1598) 
499242

>  <name>  (1598) 
P499242

>  <HIPPO Compound ID>  (1598) 
301823

>  <ref_mols>  (1598) 
A1445a,A0310a

>  <distance_score>  (1598) 
1.439454

>  <inspiration_score>  (1598) 
None

$$$$
P499243
     RDKit          3D

 27 29  0  0  0  0  0  0  0  0999 V2000
    8.0919   14.7582   25.1008 C   0  0  0  0  0  0  0  0  0  0  0  0
    8.0908   13.2968   25.3716 C   0  0  0  0  0  0  0  0  0  0  0  0
    7.0919   12.8658   26.2484 C   0  0  0  0  0  0  0  0  0  0  0  0
    6.7087   11.5406   26.3012 C   0  0  0  0  0  0  0  0  0  0  0  0
    5.5420   11.2828   27.0007 N   0  0  0  0  0  0  0  0  0  0  0  0
    4.9133   12.0165   28.2291 C   0  0  0  0  0  0  0  0  0  0  0  0
    5.3271   12.8979   28.8788 O   0  0  0  0  0  0  0  0  0  0  0  0
    3.4961   11.4632   28.4516 C   0  0  2  0  0  0  0  0  0  0  0  0
    2.5553   12.4556   27.7231 C   0  0  0  0  0  0  0  0  0  0  0  0
    2.3529   13.7815   28.4609 C   0  0  0  0  0  0  0  0  0  0  0  0
    1.9696   13.5978   29.9217 C   0  0  0  0  0  0  0  0  0  0  0  0
    2.9087   12.6421   30.6516 C   0  0  0  0  0  0  0  0  0  0  0  0
    3.1101   11.2981   29.9317 C   0  0  1  0  0  0  0  0  0  0  0  0
    1.8473   10.4429   30.0458 C   0  0  0  0  0  0  0  0  0  0  0  0
    1.5122   10.2371   31.3351 F   0  0  0  0  0  0  0  0  0  0  0  0
    2.0327    9.2313   29.4734 F   0  0  0  0  0  0  0  0  0  0  0  0
    0.7868   11.0008   29.4272 F   0  0  0  0  0  0  0  0  0  0  0  0
    7.3756   10.6245   25.5088 C   0  0  0  0  0  0  0  0  0  0  0  0
    8.4964   11.0377   24.7527 C   0  0  0  0  0  0  0  0  0  0  0  0
    8.9100   12.3877   24.6935 C   0  0  0  0  0  0  0  0  0  0  0  0
   10.0696   12.8325   23.9676 N   0  0  0  0  0  0  0  0  0  0  0  0
   10.6825   12.0793   23.0034 C   0  0  0  0  0  0  0  0  0  0  0  0
   10.2954   11.0058   22.5754 O   0  0  0  0  0  0  0  0  0  0  0  0
   11.9736   12.7683   22.6384 C   0  0  0  0  0  0  0  0  0  0  0  0
   11.7214   14.1864   23.0192 C   0  0  0  0  0  0  0  0  0  0  0  0
   10.8415   13.9628   24.1995 C   0  0  0  0  0  0  0  0  0  0  0  0
   10.9218   14.6980   25.1743 O   0  0  0  0  0  0  0  0  0  0  0  0
  1  2  1  0
  2  3  2  0
  3  4  1  0
  4  5  1  0
  5  6  1  0
  6  7  2  0
  8  6  1  1
  8  9  1  0
  9 10  1  0
 10 11  1  0
 11 12  1  0
 12 13  1  0
 13 14  1  6
 14 15  1  0
 14 16  1  0
 14 17  1  0
  4 18  2  0
 18 19  1  0
 19 20  2  0
 20 21  1  0
 21 22  1  0
 22 23  2  0
 22 24  1  0
 24 25  1  0
 25 26  1  0
 26 27  2  0
 20  2  1  0
 26 21  1  0
 13  8  1  0
M  END
>  <energy_score>  (1599) 
-40.143631

>  <inchikey>  (1599) 
None

>  <smiles>  (1599) 
None

>  <ref_pdb>  (1599) 
A0310a

>  <alias>  (1599) 
None

>  <HIPPO Pose ID>  (1599) 
499243

>  <name>  (1599) 
P499243

>  <HIPPO Compound ID>  (1599) 
301823

>  <ref_mols>  (1599) 
A1445a,A0310a

>  <distance_score>  (1599) 
1.467691

>  <inspiration_score>  (1599) 
None

$$$$
P499244
     RDKit          3D

 27 29  0  0  0  0  0  0  0  0999 V2000
    9.2594   14.4955   25.3599 C   0  0  0  0  0  0  0  0  0  0  0  0
    8.7872   13.1114   25.0910 C   0  0  0  0  0  0  0  0  0  0  0  0
    7.7382   12.6820   25.9235 C   0  0  0  0  0  0  0  0  0  0  0  0
    7.2310   11.3996   25.8535 C   0  0  0  0  0  0  0  0  0  0  0  0
    6.0613   11.1754   26.5765 N   0  0  0  0  0  0  0  0  0  0  0  0
    5.5911   11.7549   27.9590 C   0  0  0  0  0  0  0  0  0  0  0  0
    6.1535   12.4427   28.7245 O   0  0  0  0  0  0  0  0  0  0  0  0
    4.1071   11.3605   28.1756 C   0  0  2  0  0  0  0  0  0  0  0  0
    3.3039   12.4834   27.4677 C   0  0  0  0  0  0  0  0  0  0  0  0
    3.2842   13.8090   28.2324 C   0  0  0  0  0  0  0  0  0  0  0  0
    2.8381   13.6493   29.6773 C   0  0  0  0  0  0  0  0  0  0  0  0
    3.6183   12.5572   30.4004 C   0  0  0  0  0  0  0  0  0  0  0  0
    3.6495   11.2134   29.6493 C   0  0  1  0  0  0  0  0  0  0  0  0
    2.2695   10.5368   29.7425 C   0  0  0  0  0  0  0  0  0  0  0  0
    1.8896   10.3696   31.0277 F   0  0  0  0  0  0  0  0  0  0  0  0
    2.2851    9.3136   29.1652 F   0  0  0  0  0  0  0  0  0  0  0  0
    1.2972   11.2373   29.1213 F   0  0  0  0  0  0  0  0  0  0  0  0
    7.8202   10.5132   24.9601 C   0  0  0  0  0  0  0  0  0  0  0  0
    8.8882   10.9342   24.1162 C   0  0  0  0  0  0  0  0  0  0  0  0
    9.3538   12.2599   24.1306 C   0  0  0  0  0  0  0  0  0  0  0  0
   10.3460   12.7137   23.1900 N   0  0  0  0  0  0  0  0  0  0  0  0
   10.1699   13.8359   22.4219 C   0  0  0  0  0  0  0  0  0  0  0  0
    9.1585   14.5082   22.3091 O   0  0  0  0  0  0  0  0  0  0  0  0
   11.4365   14.2655   21.7645 C   0  0  0  0  0  0  0  0  0  0  0  0
   12.4543   13.4102   22.4338 C   0  0  0  0  0  0  0  0  0  0  0  0
   11.6797   12.6770   23.4761 C   0  0  0  0  0  0  0  0  0  0  0  0
   12.2445   12.2567   24.4739 O   0  0  0  0  0  0  0  0  0  0  0  0
  1  2  1  0
  2  3  2  0
  3  4  1  0
  4  5  1  0
  5  6  1  0
  6  7  2  0
  8  6  1  1
  8  9  1  0
  9 10  1  0
 10 11  1  0
 11 12  1  0
 12 13  1  0
 13 14  1  6
 14 15  1  0
 14 16  1  0
 14 17  1  0
  4 18  2  0
 18 19  1  0
 19 20  2  0
 20 21  1  0
 21 22  1  0
 22 23  2  0
 22 24  1  0
 24 25  1  0
 25 26  1  0
 26 27  2  0
 20  2  1  0
 26 21  1  0
 13  8  1  0
M  END
>  <energy_score>  (1600) 
-29.296167

>  <inchikey>  (1600) 
None

>  <smiles>  (1600) 
None

>  <ref_pdb>  (1600) 
A0310a

>  <alias>  (1600) 
None

>  <HIPPO Pose ID>  (1600) 
499244

>  <name>  (1600) 
P499244

>  <HIPPO Compound ID>  (1600) 
301823

>  <ref_mols>  (1600) 
A1445a,A0310a

>  <distance_score>  (1600) 
1.6408

>  <inspiration_score>  (1600) 
None

$$$$
P499245
     RDKit          3D

 27 28  0  0  0  0  0  0  0  0999 V2000
    3.5939   13.4704   27.3724 C   0  0  0  0  0  0  0  0  0  0  0  0
    2.6562   12.5383   28.0176 N   0  0  0  0  0  0  0  0  0  0  0  0
    1.3236   13.1709   28.0115 C   0  0  0  0  0  0  0  0  0  0  0  0
    3.0839   12.2235   29.4016 C   0  0  0  0  0  0  0  0  0  0  0  0
    3.2050   10.6921   29.6952 C   0  0  2  0  0  0  0  0  0  0  0  0
    3.7711   10.5062   31.1241 C   0  0  0  0  0  0  0  0  0  0  0  0
    4.0967    9.8865   28.6845 C   0  0  0  0  0  0  0  0  0  0  0  0
    5.4093   10.5971   28.3619 C   0  0  0  0  0  0  0  0  0  0  0  0
    5.8238   11.4398   29.0607 O   0  0  0  0  0  0  0  0  0  0  0  0
    5.9352   10.0730   26.9888 N   0  0  0  0  0  0  0  0  0  0  0  0
    6.9756   10.5268   26.1907 C   0  0  0  0  0  0  0  0  0  0  0  0
    7.5859    9.8282   25.1561 C   0  0  0  0  0  0  0  0  0  0  0  0
    8.5221   10.4290   24.3071 C   0  0  0  0  0  0  0  0  0  0  0  0
    8.7011   11.8006   24.3977 C   0  0  0  0  0  0  0  0  0  0  0  0
    8.1443   12.4905   25.4750 C   0  0  0  0  0  0  0  0  0  0  0  0
    7.3268   11.8408   26.3827 C   0  0  0  0  0  0  0  0  0  0  0  0
    8.2980   13.9695   25.6368 C   0  0  0  0  0  0  0  0  0  0  0  0
    7.2761   14.6224   24.7359 C   0  0  0  0  0  0  0  0  0  0  0  0
    7.3803   14.1325   23.3014 C   0  0  0  0  0  0  0  0  0  0  0  0
    8.7790   13.7086   22.8431 C   0  0  0  0  0  0  0  0  0  0  0  0
    9.3556   14.3782   21.9860 O   0  0  0  0  0  0  0  0  0  0  0  0
    9.3184   12.5298   23.3625 N   0  0  0  0  0  0  0  0  0  0  0  0
   10.6044   12.0583   22.8821 C   0  0  0  0  0  0  0  0  0  0  0  0
    1.7915   10.1094   29.6891 C   0  0  0  0  0  0  0  0  0  0  0  0
    1.0304   10.6620   30.6619 F   0  0  0  0  0  0  0  0  0  0  0  0
    1.8158    8.7765   29.9130 F   0  0  0  0  0  0  0  0  0  0  0  0
    1.1485   10.2899   28.5163 F   0  0  0  0  0  0  0  0  0  0  0  0
  1  2  1  0
  2  3  1  0
  2  4  1  0
  5  4  1  0
  5  6  1  1
  5  7  1  0
  7  8  1  0
  8  9  2  0
  8 10  1  0
 10 11  1  0
 11 12  2  0
 12 13  1  0
 13 14  2  0
 14 15  1  0
 15 16  2  0
 15 17  1  0
 17 18  1  0
 18 19  1  0
 19 20  1  0
 20 21  2  0
 20 22  1  0
 22 23  1  0
  5 24  1  0
 24 25  1  0
 24 26  1  0
 24 27  1  0
 16 11  1  0
 22 14  1  0
M  END
>  <energy_score>  (1601) 
-55.88519

>  <inchikey>  (1601) 
None

>  <smiles>  (1601) 
None

>  <ref_pdb>  (1601) 
A0310a

>  <alias>  (1601) 
None

>  <HIPPO Pose ID>  (1601) 
499245

>  <name>  (1601) 
P499245

>  <HIPPO Compound ID>  (1601) 
301830

>  <ref_mols>  (1601) 
A1445a,A0310a

>  <distance_score>  (1601) 
1.574455

>  <inspiration_score>  (1601) 
None

$$$$
P499246
     RDKit          3D

 27 28  0  0  0  0  0  0  0  0999 V2000
    2.1440   12.5828   32.6391 C   0  0  0  0  0  0  0  0  0  0  0  0
    2.4485   12.8436   31.2300 N   0  0  0  0  0  0  0  0  0  0  0  0
    2.8458   14.2456   31.0651 C   0  0  0  0  0  0  0  0  0  0  0  0
    3.4743   11.9181   30.7157 C   0  0  0  0  0  0  0  0  0  0  0  0
    3.0581   11.1651   29.4179 C   0  0  1  0  0  0  0  0  0  0  0  0
    2.7851   12.1686   28.2791 C   0  0  0  0  0  0  0  0  0  0  0  0
    4.1549   10.1114   28.9770 C   0  0  0  0  0  0  0  0  0  0  0  0
    5.4409   10.8009   28.5199 C   0  0  0  0  0  0  0  0  0  0  0  0
    5.8668   11.6921   29.1479 O   0  0  0  0  0  0  0  0  0  0  0  0
    5.9179   10.2048   27.1581 N   0  0  0  0  0  0  0  0  0  0  0  0
    6.9137   10.6299   26.2877 C   0  0  0  0  0  0  0  0  0  0  0  0
    7.4879    9.8995   25.2551 C   0  0  0  0  0  0  0  0  0  0  0  0
    8.4311   10.4567   24.3806 C   0  0  0  0  0  0  0  0  0  0  0  0
    8.6469   11.8243   24.4345 C   0  0  0  0  0  0  0  0  0  0  0  0
    8.1087   12.5533   25.4944 C   0  0  0  0  0  0  0  0  0  0  0  0
    7.2831   11.9458   26.4253 C   0  0  0  0  0  0  0  0  0  0  0  0
    8.2838   14.0336   25.6137 C   0  0  0  0  0  0  0  0  0  0  0  0
    7.2590   14.6643   24.7012 C   0  0  0  0  0  0  0  0  0  0  0  0
    7.3734   14.1548   23.2744 C   0  0  0  0  0  0  0  0  0  0  0  0
    8.7673   13.6934   22.8359 C   0  0  0  0  0  0  0  0  0  0  0  0
    9.3614   14.3263   21.9630 O   0  0  0  0  0  0  0  0  0  0  0  0
    9.2773   12.5110   23.3781 N   0  0  0  0  0  0  0  0  0  0  0  0
   10.5571   12.0074   22.9136 C   0  0  0  0  0  0  0  0  0  0  0  0
    1.7575   10.4046   29.6934 C   0  0  0  0  0  0  0  0  0  0  0  0
    1.8386    9.6720   30.8248 F   0  0  0  0  0  0  0  0  0  0  0  0
    1.4911    9.5412   28.6808 F   0  0  0  0  0  0  0  0  0  0  0  0
    0.6816   11.2100   29.7904 F   0  0  0  0  0  0  0  0  0  0  0  0
  1  2  1  0
  2  3  1  0
  2  4  1  0
  5  4  1  0
  5  6  1  6
  5  7  1  0
  7  8  1  0
  8  9  2  0
  8 10  1  0
 10 11  1  0
 11 12  2  0
 12 13  1  0
 13 14  2  0
 14 15  1  0
 15 16  2  0
 15 17  1  0
 17 18  1  0
 18 19  1  0
 19 20  1  0
 20 21  2  0
 20 22  1  0
 22 23  1  0
  5 24  1  0
 24 25  1  0
 24 26  1  0
 24 27  1  0
 16 11  1  0
 22 14  1  0
M  END
>  <energy_score>  (1602) 
-57.653651

>  <inchikey>  (1602) 
None

>  <smiles>  (1602) 
None

>  <ref_pdb>  (1602) 
A0310a

>  <alias>  (1602) 
None

>  <HIPPO Pose ID>  (1602) 
499246

>  <name>  (1602) 
P499246

>  <HIPPO Compound ID>  (1602) 
301830

>  <ref_mols>  (1602) 
A1445a,A0310a

>  <distance_score>  (1602) 
1.636438

>  <inspiration_score>  (1602) 
None

$$$$
P499247
     RDKit          3D

 27 30  0  0  0  0  0  0  0  0999 V2000
    8.4792   14.5372   25.3241 C   0  0  0  0  0  0  0  0  0  0  0  0
    8.3247   13.0706   25.1113 C   0  0  0  0  0  0  0  0  0  0  0  0
    7.3006   12.4519   25.8497 C   0  0  0  0  0  0  0  0  0  0  0  0
    7.0979   11.0816   25.8153 C   0  0  0  0  0  0  0  0  0  0  0  0
    6.1045   10.5286   26.6286 N   0  0  0  0  0  0  0  0  0  0  0  0
    5.0573   11.2210   27.5693 C   0  0  0  0  0  0  0  0  0  0  0  0
    4.8247   12.3576   27.7397 O   0  0  0  0  0  0  0  0  0  0  0  0
    4.3448   10.1497   28.4087 C   0  0  1  0  0  0  0  0  0  0  0  0
    5.3231    9.2526   29.2012 C   0  0  1  0  0  0  0  0  0  0  0  0
    6.3195   10.0933   30.0221 C   0  0  0  0  0  0  0  0  0  0  0  0
    5.4349   10.6934   31.1223 C   0  0  0  0  0  0  0  0  0  0  0  0
    4.0499   10.0921   30.8187 C   0  0  2  0  0  0  0  0  0  0  0  0
    4.4303    8.7011   30.3101 C   0  0  0  0  0  0  0  0  0  0  0  0
    3.4763   10.7717   29.5578 C   0  0  2  0  0  0  0  0  0  0  0  0
    1.9829   10.5307   29.4109 C   0  0  0  0  0  0  0  0  0  0  0  0
    1.3245   10.9486   30.5163 F   0  0  0  0  0  0  0  0  0  0  0  0
    1.6843    9.2275   29.2333 F   0  0  0  0  0  0  0  0  0  0  0  0
    1.4759   11.2018   28.3542 F   0  0  0  0  0  0  0  0  0  0  0  0
    7.9264   10.3173   24.9991 C   0  0  0  0  0  0  0  0  0  0  0  0
    8.9164   10.9340   24.1983 C   0  0  0  0  0  0  0  0  0  0  0  0
    9.1246   12.3188   24.2396 C   0  0  0  0  0  0  0  0  0  0  0  0
   10.0142   12.9169   23.2971 N   0  0  0  0  0  0  0  0  0  0  0  0
    9.4405   13.7785   22.2977 C   0  0  0  0  0  0  0  0  0  0  0  0
   10.6031   14.2838   21.4836 C   0  0  0  0  0  0  0  0  0  0  0  0
   11.7608   14.2948   22.4550 C   0  0  0  0  0  0  0  0  0  0  0  0
   11.2601   13.4973   23.6338 C   0  0  0  0  0  0  0  0  0  0  0  0
   11.8670   13.4627   24.6929 O   0  0  0  0  0  0  0  0  0  0  0  0
  1  2  1  0
  2  3  2  0
  3  4  1  0
  4  5  1  0
  5  6  1  0
  6  7  2  0
  8  6  1  1
  8  9  1  0
  9 10  1  1
 10 11  1  0
 12 11  1  6
 12 13  1  0
 12 14  1  0
 14 15  1  6
 15 16  1  0
 15 17  1  0
 15 18  1  0
  4 19  2  0
 19 20  1  0
 20 21  2  0
 21 22  1  0
 22 23  1  0
 23 24  1  0
 24 25  1  0
 25 26  1  0
 26 27  2  0
 21  2  1  0
 26 22  1  0
 14  8  1  0
 13  9  1  0
M  END
>  <energy_score>  (1603) 
-37.592939

>  <inchikey>  (1603) 
None

>  <smiles>  (1603) 
None

>  <ref_pdb>  (1603) 
A0310a

>  <alias>  (1603) 
None

>  <HIPPO Pose ID>  (1603) 
499247

>  <name>  (1603) 
P499247

>  <HIPPO Compound ID>  (1603) 
301832

>  <ref_mols>  (1603) 
A1445a,A0310a

>  <distance_score>  (1603) 
1.734624

>  <inspiration_score>  (1603) 
None

$$$$
P499248
     RDKit          3D

 27 30  0  0  0  0  0  0  0  0999 V2000
    7.8892   14.2252   23.1725 C   0  0  0  0  0  0  0  0  0  0  0  0
    7.8076   13.2885   24.3271 C   0  0  0  0  0  0  0  0  0  0  0  0
    6.6296   13.2650   25.0719 C   0  0  0  0  0  0  0  0  0  0  0  0
    6.3282   12.2190   25.9397 C   0  0  0  0  0  0  0  0  0  0  0  0
    5.2166   12.4685   26.7396 N   0  0  0  0  0  0  0  0  0  0  0  0
    4.5403   11.5869   27.8445 C   0  0  0  0  0  0  0  0  0  0  0  0
    4.7724   10.4939   28.1878 O   0  0  0  0  0  0  0  0  0  0  0  0
    3.5207   12.5487   28.4842 C   0  0  2  0  0  0  0  0  0  0  0  0
    4.2897   13.4944   29.4519 C   0  0  1  0  0  0  0  0  0  0  0  0
    3.4633   14.7708   29.6820 C   0  0  0  0  0  0  0  0  0  0  0  0
    2.3117   14.2774   30.5666 C   0  0  0  0  0  0  0  0  0  0  0  0
    2.6055   12.7714   30.7073 C   0  0  2  0  0  0  0  0  0  0  0  0
    4.1291   12.7697   30.7875 C   0  0  0  0  0  0  0  0  0  0  0  0
    2.3349   12.0782   29.3468 C   0  0  2  0  0  0  0  0  0  0  0  0
    1.9901   10.6211   29.5248 C   0  0  0  0  0  0  0  0  0  0  0  0
    2.7937    9.9828   30.3862 F   0  0  0  0  0  0  0  0  0  0  0  0
    1.9412    9.9528   28.3579 F   0  0  0  0  0  0  0  0  0  0  0  0
    0.7338   10.5626   30.0385 F   0  0  0  0  0  0  0  0  0  0  0  0
    7.1455   11.0993   25.9261 C   0  0  0  0  0  0  0  0  0  0  0  0
    8.3619   11.1441   25.1989 C   0  0  0  0  0  0  0  0  0  0  0  0
    8.7631   12.3095   24.5317 C   0  0  0  0  0  0  0  0  0  0  0  0
   10.1073   12.5362   24.1461 N   0  0  0  0  0  0  0  0  0  0  0  0
   10.6468   11.8617   23.0025 C   0  0  0  0  0  0  0  0  0  0  0  0
   11.5464   12.9110   22.3694 C   0  0  0  0  0  0  0  0  0  0  0  0
   12.0670   13.7040   23.5323 C   0  0  0  0  0  0  0  0  0  0  0  0
   10.8511   13.7201   24.4051 C   0  0  0  0  0  0  0  0  0  0  0  0
   10.6364   14.6240   25.1998 O   0  0  0  0  0  0  0  0  0  0  0  0
  1  2  1  0
  2  3  2  0
  3  4  1  0
  4  5  1  0
  5  6  1  0
  6  7  2  0
  8  6  1  1
  8  9  1  0
  9 10  1  1
 10 11  1  0
 12 11  1  6
 12 13  1  0
 12 14  1  0
 14 15  1  1
 15 16  1  0
 15 17  1  0
 15 18  1  0
  4 19  2  0
 19 20  1  0
 20 21  2  0
 21 22  1  0
 22 23  1  0
 23 24  1  0
 24 25  1  0
 25 26  1  0
 26 27  2  0
 21  2  1  0
 26 22  1  0
 14  8  1  0
 13  9  1  0
M  END
>  <energy_score>  (1604) 
-8.491039

>  <inchikey>  (1604) 
None

>  <smiles>  (1604) 
None

>  <ref_pdb>  (1604) 
A0310a

>  <alias>  (1604) 
None

>  <HIPPO Pose ID>  (1604) 
499248

>  <name>  (1604) 
P499248

>  <HIPPO Compound ID>  (1604) 
301832

>  <ref_mols>  (1604) 
A1445a,A0310a

>  <distance_score>  (1604) 
1.750186

>  <inspiration_score>  (1604) 
None

$$$$
P499249
     RDKit          3D

 27 30  0  0  0  0  0  0  0  0999 V2000
    7.2974   14.1615   22.6348 C   0  0  0  0  0  0  0  0  0  0  0  0
    7.6746   13.3053   23.7924 C   0  0  0  0  0  0  0  0  0  0  0  0
    6.6907   13.2065   24.7962 C   0  0  0  0  0  0  0  0  0  0  0  0
    6.6803   12.1750   25.7213 C   0  0  0  0  0  0  0  0  0  0  0  0
    5.6721   12.2267   26.6785 N   0  0  0  0  0  0  0  0  0  0  0  0
    5.3530   11.2658   27.8682 C   0  0  0  0  0  0  0  0  0  0  0  0
    5.9356   10.3325   28.2652 O   0  0  0  0  0  0  0  0  0  0  0  0
    4.0974   11.8717   28.5358 C   0  0  2  0  0  0  0  0  0  0  0  0
    4.3980   13.2942   29.1052 C   0  0  2  0  0  0  0  0  0  0  0  0
    5.5971   13.2566   30.0731 C   0  0  0  0  0  0  0  0  0  0  0  0
    5.0373   12.4905   31.2773 C   0  0  0  0  0  0  0  0  0  0  0  0
    3.5753   12.2306   30.8686 C   0  0  1  0  0  0  0  0  0  0  0  0
    3.2464   13.4986   30.0840 C   0  0  0  0  0  0  0  0  0  0  0  0
    3.5531   11.1220   29.7846 C   0  0  1  0  0  0  0  0  0  0  0  0
    2.1414   10.5728   29.5955 C   0  0  0  0  0  0  0  0  0  0  0  0
    1.6358   10.1402   30.7725 F   0  0  0  0  0  0  0  0  0  0  0  0
    2.1185    9.5333   28.7370 F   0  0  0  0  0  0  0  0  0  0  0  0
    1.2904   11.5010   29.1074 F   0  0  0  0  0  0  0  0  0  0  0  0
    7.6408   11.1928   25.5993 C   0  0  0  0  0  0  0  0  0  0  0  0
    8.7052   11.3766   24.6854 C   0  0  0  0  0  0  0  0  0  0  0  0
    8.8169   12.5170   23.8542 C   0  0  0  0  0  0  0  0  0  0  0  0
   10.0756   12.8728   23.2460 N   0  0  0  0  0  0  0  0  0  0  0  0
   11.2629   12.2127   23.6745 C   0  0  0  0  0  0  0  0  0  0  0  0
   12.4159   12.8874   22.9787 C   0  0  0  0  0  0  0  0  0  0  0  0
   11.9420   14.2877   22.8037 C   0  0  0  0  0  0  0  0  0  0  0  0
   10.4697   14.0647   22.6023 C   0  0  0  0  0  0  0  0  0  0  0  0
    9.8170   14.8972   22.0072 O   0  0  0  0  0  0  0  0  0  0  0  0
  1  2  1  0
  2  3  2  0
  3  4  1  0
  4  5  1  0
  5  6  1  0
  6  7  2  0
  8  6  1  1
  8  9  1  0
  9 10  1  1
 10 11  1  0
 12 11  1  6
 12 13  1  0
 12 14  1  0
 14 15  1  6
 15 16  1  0
 15 17  1  0
 15 18  1  0
  4 19  2  0
 19 20  1  0
 20 21  2  0
 21 22  1  0
 22 23  1  0
 23 24  1  0
 24 25  1  0
 25 26  1  0
 26 27  2  0
 21  2  1  0
 26 22  1  0
 14  8  1  0
 13  9  1  0
M  END
>  <energy_score>  (1605) 
-19.546343

>  <inchikey>  (1605) 
None

>  <smiles>  (1605) 
None

>  <ref_pdb>  (1605) 
A0310a

>  <alias>  (1605) 
None

>  <HIPPO Pose ID>  (1605) 
499249

>  <name>  (1605) 
P499249

>  <HIPPO Compound ID>  (1605) 
301832

>  <ref_mols>  (1605) 
A1445a,A0310a

>  <distance_score>  (1605) 
1.643743

>  <inspiration_score>  (1605) 
None

$$$$
P499250
     RDKit          3D

 27 30  0  0  0  0  0  0  0  0999 V2000
    7.4248   14.6248   24.0246 C   0  0  0  0  0  0  0  0  0  0  0  0
    7.5340   13.2198   24.4732 C   0  0  0  0  0  0  0  0  0  0  0  0
    6.5578   12.8398   25.4272 C   0  0  0  0  0  0  0  0  0  0  0  0
    6.5740   11.6113   26.0602 C   0  0  0  0  0  0  0  0  0  0  0  0
    5.7143   11.4757   27.1571 N   0  0  0  0  0  0  0  0  0  0  0  0
    5.7116   10.4390   28.3157 C   0  0  0  0  0  0  0  0  0  0  0  0
    6.3796    9.4943   28.4889 O   0  0  0  0  0  0  0  0  0  0  0  0
    4.6958   10.8565   29.4263 C   0  0  1  0  0  0  0  0  0  0  0  0
    5.3586   11.9413   30.3285 C   0  0  2  0  0  0  0  0  0  0  0  0
    4.6906   11.8898   31.7183 C   0  0  0  0  0  0  0  0  0  0  0  0
    3.3292   12.5546   31.4642 C   0  0  0  0  0  0  0  0  0  0  0  0
    3.3480   12.8066   29.9443 C   0  0  1  0  0  0  0  0  0  0  0  0
    4.7987   13.2591   29.7871 C   0  0  0  0  0  0  0  0  0  0  0  0
    3.3224   11.4899   29.1076 C   0  0  2  0  0  0  0  0  0  0  0  0
    2.1149   10.6048   29.4043 C   0  0  0  0  0  0  0  0  0  0  0  0
    2.0489   10.1885   30.6813 F   0  0  0  0  0  0  0  0  0  0  0  0
    2.1097    9.5080   28.6192 F   0  0  0  0  0  0  0  0  0  0  0  0
    0.9773   11.2848   29.1303 F   0  0  0  0  0  0  0  0  0  0  0  0
    7.4994   10.6874   25.6139 C   0  0  0  0  0  0  0  0  0  0  0  0
    8.4889   11.0605   24.6634 C   0  0  0  0  0  0  0  0  0  0  0  0
    8.5821   12.3652   24.1202 C   0  0  0  0  0  0  0  0  0  0  0  0
    9.7793   12.7776   23.4142 N   0  0  0  0  0  0  0  0  0  0  0  0
   11.0096   12.1639   23.7859 C   0  0  0  0  0  0  0  0  0  0  0  0
   12.1146   13.1473   23.5020 C   0  0  0  0  0  0  0  0  0  0  0  0
   11.5878   13.9063   22.3271 C   0  0  0  0  0  0  0  0  0  0  0  0
   10.0972   13.8570   22.5665 C   0  0  0  0  0  0  0  0  0  0  0  0
    9.3744   14.6726   22.0282 O   0  0  0  0  0  0  0  0  0  0  0  0
  1  2  1  0
  2  3  2  0
  3  4  1  0
  4  5  1  0
  5  6  1  0
  6  7  2  0
  8  6  1  6
  8  9  1  0
  9 10  1  1
 10 11  1  0
 12 11  1  1
 12 13  1  0
 12 14  1  0
 14 15  1  1
 15 16  1  0
 15 17  1  0
 15 18  1  0
  4 19  2  0
 19 20  1  0
 20 21  2  0
 21 22  1  0
 22 23  1  0
 23 24  1  0
 24 25  1  0
 25 26  1  0
 26 27  2  0
 21  2  1  0
 26 22  1  0
 14  8  1  0
 13  9  1  0
M  END
>  <energy_score>  (1606) 
-34.20541

>  <inchikey>  (1606) 
None

>  <smiles>  (1606) 
None

>  <ref_pdb>  (1606) 
A0310a

>  <alias>  (1606) 
None

>  <HIPPO Pose ID>  (1606) 
499250

>  <name>  (1606) 
P499250

>  <HIPPO Compound ID>  (1606) 
301832

>  <ref_mols>  (1606) 
A1445a,A0310a

>  <distance_score>  (1606) 
1.535106

>  <inspiration_score>  (1606) 
None

$$$$
P499251
     RDKit          3D

 27 30  0  0  0  0  0  0  0  0999 V2000
    8.9470   14.5183   25.4090 C   0  0  0  0  0  0  0  0  0  0  0  0
    8.4070   13.1381   25.2799 C   0  0  0  0  0  0  0  0  0  0  0  0
    7.4207   12.8055   26.2227 C   0  0  0  0  0  0  0  0  0  0  0  0
    6.8093   11.5670   26.2181 C   0  0  0  0  0  0  0  0  0  0  0  0
    5.5877   11.5117   26.8621 N   0  0  0  0  0  0  0  0  0  0  0  0
    5.1485   12.0717   28.2553 C   0  0  0  0  0  0  0  0  0  0  0  0
    5.7760   12.5931   29.0947 O   0  0  0  0  0  0  0  0  0  0  0  0
    3.6191   11.9127   28.3186 C   0  0  2  0  0  0  0  0  0  0  0  0
    3.1137   13.2419   27.6450 C   0  0  1  0  0  0  0  0  0  0  0  0
    1.6199   13.1605   27.3163 C   0  0  0  0  0  0  0  0  0  0  0  0
    0.9516   13.2584   28.6872 C   0  0  0  0  0  0  0  0  0  0  0  0
    2.1582   13.3322   29.6396 C   0  0  2  0  0  0  0  0  0  0  0  0
    3.0955   14.2180   28.8277 C   0  0  0  0  0  0  0  0  0  0  0  0
    2.9344   11.9885   29.7041 C   0  0  1  0  0  0  0  0  0  0  0  0
    2.0258   10.7978   29.9888 C   0  0  0  0  0  0  0  0  0  0  0  0
    2.6974    9.8188   30.6228 F   0  0  0  0  0  0  0  0  0  0  0  0
    1.4928   10.2615   28.8682 F   0  0  0  0  0  0  0  0  0  0  0  0
    0.9973   11.1556   30.7828 F   0  0  0  0  0  0  0  0  0  0  0  0
    7.2608   10.5998   25.3393 C   0  0  0  0  0  0  0  0  0  0  0  0
    8.2978   10.9018   24.4351 C   0  0  0  0  0  0  0  0  0  0  0  0
    8.8287   12.2000   24.3292 C   0  0  0  0  0  0  0  0  0  0  0  0
    9.8170   12.4797   23.3431 N   0  0  0  0  0  0  0  0  0  0  0  0
   10.9444   11.6245   23.2271 C   0  0  0  0  0  0  0  0  0  0  0  0
   12.0791   12.5801   23.5556 C   0  0  0  0  0  0  0  0  0  0  0  0
   11.7128   13.7564   22.6847 C   0  0  0  0  0  0  0  0  0  0  0  0
   10.2164   13.7278   22.8325 C   0  0  0  0  0  0  0  0  0  0  0  0
    9.5146   14.6711   22.5323 O   0  0  0  0  0  0  0  0  0  0  0  0
  1  2  1  0
  2  3  2  0
  3  4  1  0
  4  5  1  0
  5  6  1  0
  6  7  2  0
  8  6  1  1
  8  9  1  0
  9 10  1  1
 10 11  1  0
 12 11  1  6
 12 13  1  0
 12 14  1  0
 14 15  1  6
 15 16  1  0
 15 17  1  0
 15 18  1  0
  4 19  2  0
 19 20  1  0
 20 21  2  0
 21 22  1  0
 22 23  1  0
 23 24  1  0
 24 25  1  0
 25 26  1  0
 26 27  2  0
 21  2  1  0
 26 22  1  0
 14  8  1  0
 13  9  1  0
M  END
>  <energy_score>  (1607) 
-13.369001

>  <inchikey>  (1607) 
None

>  <smiles>  (1607) 
None

>  <ref_pdb>  (1607) 
A0310a

>  <alias>  (1607) 
None

>  <HIPPO Pose ID>  (1607) 
499251

>  <name>  (1607) 
P499251

>  <HIPPO Compound ID>  (1607) 
301832

>  <ref_mols>  (1607) 
A1445a,A0310a

>  <distance_score>  (1607) 
1.561687

>  <inspiration_score>  (1607) 
None

$$$$
P499252
     RDKit          3D

 27 30  0  0  0  0  0  0  0  0999 V2000
    7.8493   14.4859   24.7496 C   0  0  0  0  0  0  0  0  0  0  0  0
    7.9045   12.9959   24.7584 C   0  0  0  0  0  0  0  0  0  0  0  0
    6.9229   12.3574   25.5662 C   0  0  0  0  0  0  0  0  0  0  0  0
    6.9310   10.9902   25.7540 C   0  0  0  0  0  0  0  0  0  0  0  0
    6.0920   10.3398   26.6632 N   0  0  0  0  0  0  0  0  0  0  0  0
    4.9293   10.9048   27.5665 C   0  0  0  0  0  0  0  0  0  0  0  0
    4.4613   11.9786   27.6176 O   0  0  0  0  0  0  0  0  0  0  0  0
    4.5496    9.7648   28.5093 C   0  0  1  0  0  0  0  0  0  0  0  0
    5.6765    9.6222   29.5794 C   0  0  1  0  0  0  0  0  0  0  0  0
    5.8654   10.9284   30.3732 C   0  0  0  0  0  0  0  0  0  0  0  0
    4.5876   11.0030   31.2114 C   0  0  0  0  0  0  0  0  0  0  0  0
    3.8442    9.7112   30.8312 C   0  0  2  0  0  0  0  0  0  0  0  0
    5.0168    8.7421   30.6389 C   0  0  0  0  0  0  0  0  0  0  0  0
    3.2752    9.7490   29.3905 C   0  0  1  0  0  0  0  0  0  0  0  0
    2.0735   10.6548   29.2405 C   0  0  0  0  0  0  0  0  0  0  0  0
    2.1837   11.8287   29.8746 F   0  0  0  0  0  0  0  0  0  0  0  0
    1.0114   10.0149   29.8057 F   0  0  0  0  0  0  0  0  0  0  0  0
    1.7292   10.8723   27.9578 F   0  0  0  0  0  0  0  0  0  0  0  0
    7.8855   10.2479   25.0654 C   0  0  0  0  0  0  0  0  0  0  0  0
    8.8528   10.8660   24.2542 C   0  0  0  0  0  0  0  0  0  0  0  0
    8.8981   12.2571   24.0854 C   0  0  0  0  0  0  0  0  0  0  0  0
    9.9879   12.8434   23.3637 N   0  0  0  0  0  0  0  0  0  0  0  0
   11.2332   12.1735   23.2185 C   0  0  0  0  0  0  0  0  0  0  0  0
   12.2286   13.2559   22.8955 C   0  0  0  0  0  0  0  0  0  0  0  0
   11.4361   14.1842   22.0281 C   0  0  0  0  0  0  0  0  0  0  0  0
   10.0380   13.9793   22.5506 C   0  0  0  0  0  0  0  0  0  0  0  0
    9.1290   14.7075   22.2097 O   0  0  0  0  0  0  0  0  0  0  0  0
  1  2  1  0
  2  3  2  0
  3  4  1  0
  4  5  1  0
  5  6  1  0
  6  7  2  0
  8  6  1  1
  8  9  1  0
  9 10  1  1
 10 11  1  0
 12 11  1  6
 12 13  1  0
 12 14  1  0
 14 15  1  1
 15 16  1  0
 15 17  1  0
 15 18  1  0
  4 19  2  0
 19 20  1  0
 20 21  2  0
 21 22  1  0
 22 23  1  0
 23 24  1  0
 24 25  1  0
 25 26  1  0
 26 27  2  0
 21  2  1  0
 26 22  1  0
 14  8  1  0
 13  9  1  0
M  END
>  <energy_score>  (1608) 
-41.138254

>  <inchikey>  (1608) 
None

>  <smiles>  (1608) 
None

>  <ref_pdb>  (1608) 
A0310a

>  <alias>  (1608) 
None

>  <HIPPO Pose ID>  (1608) 
499252

>  <name>  (1608) 
P499252

>  <HIPPO Compound ID>  (1608) 
301832

>  <ref_mols>  (1608) 
A1445a,A0310a

>  <distance_score>  (1608) 
1.696854

>  <inspiration_score>  (1608) 
None

$$$$
P499253
     RDKit          3D

 27 30  0  0  0  0  0  0  0  0999 V2000
    8.8874   14.5109   25.3924 C   0  0  0  0  0  0  0  0  0  0  0  0
    8.3804   13.1180   25.2615 C   0  0  0  0  0  0  0  0  0  0  0  0
    7.3939   12.7602   26.1953 C   0  0  0  0  0  0  0  0  0  0  0  0
    6.8186   11.5041   26.1872 C   0  0  0  0  0  0  0  0  0  0  0  0
    5.5991   11.4098   26.8289 N   0  0  0  0  0  0  0  0  0  0  0  0
    5.1753   11.8431   28.2667 C   0  0  0  0  0  0  0  0  0  0  0  0
    5.8139   12.2725   29.1478 O   0  0  0  0  0  0  0  0  0  0  0  0
    3.6449   11.7067   28.3264 C   0  0  2  0  0  0  0  0  0  0  0  0
    3.0535   13.0103   27.6710 C   0  0  2  0  0  0  0  0  0  0  0  0
    3.6663   14.2901   28.2858 C   0  0  0  0  0  0  0  0  0  0  0  0
    3.1557   14.2453   29.7326 C   0  0  0  0  0  0  0  0  0  0  0  0
    2.1922   13.0431   29.7176 C   0  0  1  0  0  0  0  0  0  0  0  0
    1.6597   13.1014   28.2793 C   0  0  0  0  0  0  0  0  0  0  0  0
    3.0069   11.7254   29.7334 C   0  0  1  0  0  0  0  0  0  0  0  0
    2.0757   10.5385   29.9708 C   0  0  0  0  0  0  0  0  0  0  0  0
    1.5763   10.5656   31.2250 F   0  0  0  0  0  0  0  0  0  0  0  0
    2.7120    9.3619   29.8083 F   0  0  0  0  0  0  0  0  0  0  0  0
    1.0290   10.5295   29.1184 F   0  0  0  0  0  0  0  0  0  0  0  0
    7.2933   10.5537   25.3044 C   0  0  0  0  0  0  0  0  0  0  0  0
    8.3293   10.8808   24.4101 C   0  0  0  0  0  0  0  0  0  0  0  0
    8.8352   12.1897   24.3156 C   0  0  0  0  0  0  0  0  0  0  0  0
    9.8341   12.4889   23.3479 N   0  0  0  0  0  0  0  0  0  0  0  0
   10.9625   11.6383   23.2205 C   0  0  0  0  0  0  0  0  0  0  0  0
   12.0967   12.5959   23.5419 C   0  0  0  0  0  0  0  0  0  0  0  0
   11.7184   13.7746   22.6795 C   0  0  0  0  0  0  0  0  0  0  0  0
   10.2229   13.7380   22.8358 C   0  0  0  0  0  0  0  0  0  0  0  0
    9.5139   14.6758   22.5357 O   0  0  0  0  0  0  0  0  0  0  0  0
  1  2  1  0
  2  3  2  0
  3  4  1  0
  4  5  1  0
  5  6  1  0
  6  7  2  0
  8  6  1  1
  8  9  1  0
  9 10  1  1
 10 11  1  0
 12 11  1  6
 12 13  1  0
 12 14  1  0
 14 15  1  6
 15 16  1  0
 15 17  1  0
 15 18  1  0
  4 19  2  0
 19 20  1  0
 20 21  2  0
 21 22  1  0
 22 23  1  0
 23 24  1  0
 24 25  1  0
 25 26  1  0
 26 27  2  0
 21  2  1  0
 26 22  1  0
 14  8  1  0
 13  9  1  0
M  END
>  <energy_score>  (1609) 
-24.142854

>  <inchikey>  (1609) 
None

>  <smiles>  (1609) 
None

>  <ref_pdb>  (1609) 
A0310a

>  <alias>  (1609) 
None

>  <HIPPO Pose ID>  (1609) 
499253

>  <name>  (1609) 
P499253

>  <HIPPO Compound ID>  (1609) 
301832

>  <ref_mols>  (1609) 
A1445a,A0310a

>  <distance_score>  (1609) 
1.468308

>  <inspiration_score>  (1609) 
None

$$$$
P499254
     RDKit          3D

 27 30  0  0  0  0  0  0  0  0999 V2000
    7.6280   14.6390   24.2948 C   0  0  0  0  0  0  0  0  0  0  0  0
    7.6734   13.1921   24.6083 C   0  0  0  0  0  0  0  0  0  0  0  0
    6.6883   12.7864   25.5382 C   0  0  0  0  0  0  0  0  0  0  0  0
    6.6146   11.5044   26.0394 C   0  0  0  0  0  0  0  0  0  0  0  0
    5.7497   11.2620   27.1194 N   0  0  0  0  0  0  0  0  0  0  0  0
    4.9321   12.2574   28.0093 C   0  0  0  0  0  0  0  0  0  0  0  0
    4.7991   13.4204   27.9233 O   0  0  0  0  0  0  0  0  0  0  0  0
    4.2961   11.5857   29.2412 C   0  0  2  0  0  0  0  0  0  0  0  0
    5.2842   11.2844   30.4000 C   0  0  2  0  0  0  0  0  0  0  0  0
    6.2523   10.1320   30.0979 C   0  0  0  0  0  0  0  0  0  0  0  0
    5.3213    8.9150   30.0154 C   0  0  0  0  0  0  0  0  0  0  0  0
    3.9483    9.5082   30.3558 C   0  0  1  0  0  0  0  0  0  0  0  0
    4.3384   10.5828   31.3773 C   0  0  0  0  0  0  0  0  0  0  0  0
    3.4485   10.3116   29.1328 C   0  0  1  0  0  0  0  0  0  0  0  0
    1.9456   10.5525   29.2563 C   0  0  0  0  0  0  0  0  0  0  0  0
    1.5950   11.0836   30.4442 F   0  0  0  0  0  0  0  0  0  0  0  0
    1.2823    9.3796   29.1271 F   0  0  0  0  0  0  0  0  0  0  0  0
    1.4969   11.3671   28.2800 F   0  0  0  0  0  0  0  0  0  0  0  0
    7.4822   10.5719   25.4912 C   0  0  0  0  0  0  0  0  0  0  0  0
    8.4931   10.9705   24.5680 C   0  0  0  0  0  0  0  0  0  0  0  0
    8.6481   12.3061   24.1332 C   0  0  0  0  0  0  0  0  0  0  0  0
    9.8266   12.7175   23.3945 N   0  0  0  0  0  0  0  0  0  0  0  0
   11.0752   12.1006   23.7039 C   0  0  0  0  0  0  0  0  0  0  0  0
   12.1534   12.8395   22.9495 C   0  0  0  0  0  0  0  0  0  0  0  0
   11.5888   14.2082   22.7875 C   0  0  0  0  0  0  0  0  0  0  0  0
   10.1161   13.9122   22.7076 C   0  0  0  0  0  0  0  0  0  0  0  0
    9.3694   14.6765   22.1291 O   0  0  0  0  0  0  0  0  0  0  0  0
  1  2  1  0
  2  3  2  0
  3  4  1  0
  4  5  1  0
  5  6  1  0
  6  7  2  0
  8  6  1  6
  8  9  1  0
  9 10  1  6
 10 11  1  0
 12 11  1  6
 12 13  1  0
 12 14  1  0
 14 15  1  1
 15 16  1  0
 15 17  1  0
 15 18  1  0
  4 19  2  0
 19 20  1  0
 20 21  2  0
 21 22  1  0
 22 23  1  0
 23 24  1  0
 24 25  1  0
 25 26  1  0
 26 27  2  0
 21  2  1  0
 26 22  1  0
 14  8  1  0
 13  9  1  0
M  END
>  <energy_score>  (1610) 
-22.185441

>  <inchikey>  (1610) 
None

>  <smiles>  (1610) 
None

>  <ref_pdb>  (1610) 
A0310a

>  <alias>  (1610) 
None

>  <HIPPO Pose ID>  (1610) 
499254

>  <name>  (1610) 
P499254

>  <HIPPO Compound ID>  (1610) 
301832

>  <ref_mols>  (1610) 
A1445a,A0310a

>  <distance_score>  (1610) 
1.708272

>  <inspiration_score>  (1610) 
None

$$$$
P499255
     RDKit          3D

 28 31  0  0  0  0  0  0  0  0999 V2000
    9.1363    9.8633   23.6564 C   0  0  0  0  0  0  0  0  0  0  0  0
    8.4032   10.9514   24.3711 C   0  0  0  0  0  0  0  0  0  0  0  0
    7.4916   10.5290   25.3552 C   0  0  0  0  0  0  0  0  0  0  0  0
    6.6608   11.4242   26.0115 C   0  0  0  0  0  0  0  0  0  0  0  0
    5.7920   10.9260   26.9717 N   0  0  0  0  0  0  0  0  0  0  0  0
    4.8235   11.6670   27.9403 C   0  0  0  0  0  0  0  0  0  0  0  0
    4.5557   12.8017   28.0217 O   0  0  0  0  0  0  0  0  0  0  0  0
    4.2578   10.5988   28.9022 C   0  0  1  0  0  0  0  0  0  0  0  0
    5.3947    9.9261   29.7297 C   0  0  1  0  0  0  0  0  0  0  0  0
    6.0830   10.9704   30.6284 C   0  0  0  0  0  0  0  0  0  0  0  0
    5.0464   11.6601   31.5211 C   0  0  0  0  0  0  0  0  0  0  0  0
    3.6698   10.9917   31.3427 C   0  0  2  0  0  0  0  0  0  0  0  0
    3.8275    9.4936   31.6530 C   0  0  0  0  0  0  0  0  0  0  0  0
    4.7695    8.8466   30.6333 C   0  0  0  0  0  0  0  0  0  0  0  0
    3.2081   11.2089   29.8829 C   0  0  2  0  0  0  0  0  0  0  0  0
    1.8110   10.6656   29.6202 C   0  0  0  0  0  0  0  0  0  0  0  0
    0.9562   11.0470   30.5925 F   0  0  0  0  0  0  0  0  0  0  0  0
    1.7830    9.3178   29.5602 F   0  0  0  0  0  0  0  0  0  0  0  0
    1.3291   11.1222   28.4422 F   0  0  0  0  0  0  0  0  0  0  0  0
    6.7197   12.7647   25.6749 C   0  0  0  0  0  0  0  0  0  0  0  0
    7.6180   13.2006   24.6905 C   0  0  0  0  0  0  0  0  0  0  0  0
    8.5124   12.3152   24.0528 C   0  0  0  0  0  0  0  0  0  0  0  0
    9.4619   12.8053   23.1007 N   0  0  0  0  0  0  0  0  0  0  0  0
    9.3699   14.1016   22.5096 C   0  0  0  0  0  0  0  0  0  0  0  0
   10.5861   14.2466   21.6256 C   0  0  0  0  0  0  0  0  0  0  0  0
   11.6275   13.4697   22.3847 C   0  0  0  0  0  0  0  0  0  0  0  0
   10.8075   12.4159   23.0799 C   0  0  0  0  0  0  0  0  0  0  0  0
   11.3176   11.4691   23.6447 O   0  0  0  0  0  0  0  0  0  0  0  0
  1  2  1  0
  2  3  2  0
  3  4  1  0
  4  5  1  0
  5  6  1  0
  6  7  2  0
  8  6  1  1
  8  9  1  0
  9 10  1  1
 10 11  1  0
 12 11  1  6
 12 13  1  0
 13 14  1  0
 12 15  1  0
 15 16  1  1
 16 17  1  0
 16 18  1  0
 16 19  1  0
  4 20  2  0
 20 21  1  0
 21 22  2  0
 22 23  1  0
 23 24  1  0
 24 25  1  0
 25 26  1  0
 26 27  1  0
 27 28  2  0
 22  2  1  0
 27 23  1  0
 15  8  1  0
 14  9  1  0
M  END
>  <energy_score>  (1611) 
-57.188065

>  <inchikey>  (1611) 
None

>  <smiles>  (1611) 
None

>  <ref_pdb>  (1611) 
A0310a

>  <alias>  (1611) 
None

>  <HIPPO Pose ID>  (1611) 
499255

>  <name>  (1611) 
P499255

>  <HIPPO Compound ID>  (1611) 
301833

>  <ref_mols>  (1611) 
A1445a,A0310a

>  <distance_score>  (1611) 
1.906387

>  <inspiration_score>  (1611) 
None

$$$$
P499256
     RDKit          3D

 28 31  0  0  0  0  0  0  0  0999 V2000
    9.0118   10.4571   23.8853 C   0  0  0  0  0  0  0  0  0  0  0  0
    8.4781   11.6441   24.6204 C   0  0  0  0  0  0  0  0  0  0  0  0
    7.2735   11.4110   25.3296 C   0  0  0  0  0  0  0  0  0  0  0  0
    6.7617   12.3597   26.1996 C   0  0  0  0  0  0  0  0  0  0  0  0
    5.5281   12.1723   26.8016 N   0  0  0  0  0  0  0  0  0  0  0  0
    5.0149   12.5974   28.2110 C   0  0  0  0  0  0  0  0  0  0  0  0
    5.5802   13.1004   29.1031 O   0  0  0  0  0  0  0  0  0  0  0  0
    3.4877   12.3326   28.2361 C   0  0  2  0  0  0  0  0  0  0  0  0
    2.8115   13.5941   27.6006 C   0  0  1  0  0  0  0  0  0  0  0  0
    1.2797   13.4552   27.6761 C   0  0  0  0  0  0  0  0  0  0  0  0
    0.8290   13.4947   29.1442 C   0  0  0  0  0  0  0  0  0  0  0  0
    2.0571   13.3352   30.0680 C   0  0  2  0  0  0  0  0  0  0  0  0
    2.8981   14.6179   29.9028 C   0  0  0  0  0  0  0  0  0  0  0  0
    3.1803   14.8606   28.4116 C   0  0  0  0  0  0  0  0  0  0  0  0
    2.9133   12.1017   29.6616 C   0  0  1  0  0  0  0  0  0  0  0  0
    2.0935   10.8089   29.7399 C   0  0  0  0  0  0  0  0  0  0  0  0
    1.5662   10.6398   30.9707 F   0  0  0  0  0  0  0  0  0  0  0  0
    2.8427    9.7206   29.4684 F   0  0  0  0  0  0  0  0  0  0  0  0
    1.0791   10.7950   28.8483 F   0  0  0  0  0  0  0  0  0  0  0  0
    7.4354   13.5548   26.3691 C   0  0  0  0  0  0  0  0  0  0  0  0
    8.5794   13.8339   25.6094 C   0  0  0  0  0  0  0  0  0  0  0  0
    9.1412   12.8992   24.7208 C   0  0  0  0  0  0  0  0  0  0  0  0
   10.3513   13.2337   24.0165 N   0  0  0  0  0  0  0  0  0  0  0  0
   10.7442   12.5934   22.7917 C   0  0  0  0  0  0  0  0  0  0  0  0
   11.7060   13.5558   22.1325 C   0  0  0  0  0  0  0  0  0  0  0  0
   12.3951   14.2008   23.2986 C   0  0  0  0  0  0  0  0  0  0  0  0
   11.2898   14.2452   24.3175 C   0  0  0  0  0  0  0  0  0  0  0  0
   11.3067   15.0423   25.2420 O   0  0  0  0  0  0  0  0  0  0  0  0
  1  2  1  0
  2  3  2  0
  3  4  1  0
  4  5  1  0
  5  6  1  0
  6  7  2  0
  8  6  1  1
  8  9  1  0
  9 10  1  1
 10 11  1  0
 12 11  1  6
 12 13  1  0
 13 14  1  0
 12 15  1  0
 15 16  1  6
 16 17  1  0
 16 18  1  0
 16 19  1  0
  4 20  2  0
 20 21  1  0
 21 22  2  0
 22 23  1  0
 23 24  1  0
 24 25  1  0
 25 26  1  0
 26 27  1  0
 27 28  2  0
 22  2  1  0
 27 23  1  0
 15  8  1  0
 14  9  1  0
M  END
>  <energy_score>  (1612) 
-24.195517

>  <inchikey>  (1612) 
None

>  <smiles>  (1612) 
None

>  <ref_pdb>  (1612) 
A0310a

>  <alias>  (1612) 
None

>  <HIPPO Pose ID>  (1612) 
499256

>  <name>  (1612) 
P499256

>  <HIPPO Compound ID>  (1612) 
301833

>  <ref_mols>  (1612) 
A1445a,A0310a

>  <distance_score>  (1612) 
1.819756

>  <inspiration_score>  (1612) 
None

$$$$
P499257
     RDKit          3D

 28 31  0  0  0  0  0  0  0  0999 V2000
    8.6984   10.1968   24.3540 C   0  0  0  0  0  0  0  0  0  0  0  0
    8.0015   11.4148   24.8564 C   0  0  0  0  0  0  0  0  0  0  0  0
    7.0387   11.2572   25.8902 C   0  0  0  0  0  0  0  0  0  0  0  0
    6.2900   12.3471   26.3227 C   0  0  0  0  0  0  0  0  0  0  0  0
    5.5450   12.3825   27.5041 N   0  0  0  0  0  0  0  0  0  0  0  0
    5.2353   11.2590   28.5394 C   0  0  0  0  0  0  0  0  0  0  0  0
    5.4924   10.1170   28.5188 O   0  0  0  0  0  0  0  0  0  0  0  0
    4.5640   11.8825   29.8032 C   0  0  1  0  0  0  0  0  0  0  0  0
    4.6114   13.4251   30.0354 C   0  0  1  0  0  0  0  0  0  0  0  0
    3.3139   14.0642   29.5066 C   0  0  0  0  0  0  0  0  0  0  0  0
    2.1209   13.5857   30.3393 C   0  0  0  0  0  0  0  0  0  0  0  0
    2.5523   12.4056   31.2281 C   0  0  2  0  0  0  0  0  0  0  0  0
    3.5502   12.9496   32.2688 C   0  0  0  0  0  0  0  0  0  0  0  0
    4.6874   13.6871   31.5569 C   0  0  0  0  0  0  0  0  0  0  0  0
    3.2473   11.2872   30.3854 C   0  0  1  0  0  0  0  0  0  0  0  0
    2.2306   10.6390   29.4568 C   0  0  0  0  0  0  0  0  0  0  0  0
    1.1272   10.3115   30.1775 F   0  0  0  0  0  0  0  0  0  0  0  0
    2.6706    9.4999   28.9004 F   0  0  0  0  0  0  0  0  0  0  0  0
    1.8299   11.4560   28.4627 F   0  0  0  0  0  0  0  0  0  0  0  0
    6.4089   13.5516   25.6350 C   0  0  0  0  0  0  0  0  0  0  0  0
    7.3545   13.7118   24.6195 C   0  0  0  0  0  0  0  0  0  0  0  0
    8.2297   12.6774   24.2737 C   0  0  0  0  0  0  0  0  0  0  0  0
    9.3188   12.9588   23.3990 N   0  0  0  0  0  0  0  0  0  0  0  0
   10.6656   12.4913   23.5999 C   0  0  0  0  0  0  0  0  0  0  0  0
   11.5478   13.5607   22.9927 C   0  0  0  0  0  0  0  0  0  0  0  0
   10.6954   14.1225   21.8774 C   0  0  0  0  0  0  0  0  0  0  0  0
    9.2821   13.8564   22.3353 C   0  0  0  0  0  0  0  0  0  0  0  0
    8.2891   14.3342   21.8084 O   0  0  0  0  0  0  0  0  0  0  0  0
  1  2  1  0
  2  3  2  0
  3  4  1  0
  4  5  1  0
  5  6  1  0
  6  7  2  0
  8  6  1  6
  8  9  1  0
  9 10  1  1
 10 11  1  0
 12 11  1  6
 12 13  1  0
 13 14  1  0
 12 15  1  0
 15 16  1  6
 16 17  1  0
 16 18  1  0
 16 19  1  0
  4 20  2  0
 20 21  1  0
 21 22  2  0
 22 23  1  0
 23 24  1  0
 24 25  1  0
 25 26  1  0
 26 27  1  0
 27 28  2  0
 22  2  1  0
 27 23  1  0
 15  8  1  0
 14  9  1  0
M  END
>  <energy_score>  (1613) 
-28.234543

>  <inchikey>  (1613) 
None

>  <smiles>  (1613) 
None

>  <ref_pdb>  (1613) 
A0310a

>  <alias>  (1613) 
None

>  <HIPPO Pose ID>  (1613) 
499257

>  <name>  (1613) 
P499257

>  <HIPPO Compound ID>  (1613) 
301833

>  <ref_mols>  (1613) 
A1445a,A0310a

>  <distance_score>  (1613) 
1.981262

>  <inspiration_score>  (1613) 
None

$$$$
P499258
     RDKit          3D

 28 30  0  0  0  0  0  0  0  0999 V2000
    8.0770   14.4902   24.8084 C   0  0  0  0  0  0  0  0  0  0  0  0
    8.0608   13.0026   24.7731 C   0  0  0  0  0  0  0  0  0  0  0  0
    7.0944   12.4035   25.5999 C   0  0  0  0  0  0  0  0  0  0  0  0
    7.0215   11.0329   25.7895 C   0  0  0  0  0  0  0  0  0  0  0  0
    6.1075   10.5543   26.7301 N   0  0  0  0  0  0  0  0  0  0  0  0
    5.1895   11.3228   27.7329 C   0  0  0  0  0  0  0  0  0  0  0  0
    5.1196   12.4665   27.9728 O   0  0  0  0  0  0  0  0  0  0  0  0
    4.2889   10.3241   28.4782 C   0  0  0  0  0  0  0  0  0  0  0  0
    3.1966   11.1315   29.2487 C   0  0  2  0  0  0  0  0  0  0  0  0
    3.7409   11.7984   30.5125 C   0  0  0  0  0  0  0  0  0  0  0  0
    4.3052   11.0477   31.5570 C   0  0  0  0  0  0  0  0  0  0  0  0
    4.7846   11.6756   32.7087 C   0  0  0  0  0  0  0  0  0  0  0  0
    4.7098   13.0605   32.8321 C   0  0  0  0  0  0  0  0  0  0  0  0
    4.1543   13.8189   31.8051 C   0  0  0  0  0  0  0  0  0  0  0  0
    3.6712   13.1932   30.6546 C   0  0  0  0  0  0  0  0  0  0  0  0
    1.9194   10.3551   29.5562 C   0  0  0  0  0  0  0  0  0  0  0  0
    2.0161    9.5632   30.6412 F   0  0  0  0  0  0  0  0  0  0  0  0
    1.5625    9.5694   28.5130 F   0  0  0  0  0  0  0  0  0  0  0  0
    0.8866   11.2076   29.7591 F   0  0  0  0  0  0  0  0  0  0  0  0
    7.8875   10.2360   25.0631 C   0  0  0  0  0  0  0  0  0  0  0  0
    8.8603   10.8230   24.2214 C   0  0  0  0  0  0  0  0  0  0  0  0
    8.9715   12.2188   24.0582 C   0  0  0  0  0  0  0  0  0  0  0  0
   10.0462   12.7829   23.3087 N   0  0  0  0  0  0  0  0  0  0  0  0
   11.2786   12.1064   23.1551 C   0  0  0  0  0  0  0  0  0  0  0  0
   12.2836   13.1902   22.8674 C   0  0  0  0  0  0  0  0  0  0  0  0
   11.5087   14.1487   22.0178 C   0  0  0  0  0  0  0  0  0  0  0  0
   10.1103   13.9457   22.5334 C   0  0  0  0  0  0  0  0  0  0  0  0
    9.2123   14.7013   22.2233 O   0  0  0  0  0  0  0  0  0  0  0  0
  1  2  1  0
  2  3  2  0
  3  4  1  0
  4  5  1  0
  5  6  1  0
  6  7  2  0
  6  8  1  0
  9  8  1  1
  9 10  1  0
 10 11  2  0
 11 12  1  0
 12 13  2  0
 13 14  1  0
 14 15  2  0
  9 16  1  0
 16 17  1  0
 16 18  1  0
 16 19  1  0
  4 20  2  0
 20 21  1  0
 21 22  2  0
 22 23  1  0
 23 24  1  0
 24 25  1  0
 25 26  1  0
 26 27  1  0
 27 28  2  0
 22  2  1  0
 27 23  1  0
 15 10  1  0
M  END
>  <energy_score>  (1614) 
-37.366581

>  <inchikey>  (1614) 
None

>  <smiles>  (1614) 
None

>  <ref_pdb>  (1614) 
A0310a

>  <alias>  (1614) 
None

>  <HIPPO Pose ID>  (1614) 
499258

>  <name>  (1614) 
P499258

>  <HIPPO Compound ID>  (1614) 
301834

>  <ref_mols>  (1614) 
A1445a,A0310a

>  <distance_score>  (1614) 
1.515639

>  <inspiration_score>  (1614) 
None

$$$$
P499259
     RDKit          3D

 28 30  0  0  0  0  0  0  0  0999 V2000
    7.6730   14.5822   24.2182 C   0  0  0  0  0  0  0  0  0  0  0  0
    7.6800   13.1513   24.5946 C   0  0  0  0  0  0  0  0  0  0  0  0
    6.6465   12.8001   25.4860 C   0  0  0  0  0  0  0  0  0  0  0  0
    6.5413   11.5354   26.0183 C   0  0  0  0  0  0  0  0  0  0  0  0
    5.4539   11.3050   26.8452 N   0  0  0  0  0  0  0  0  0  0  0  0
    5.2268   10.2183   27.9382 C   0  0  0  0  0  0  0  0  0  0  0  0
    5.9522    9.4034   28.3582 O   0  0  0  0  0  0  0  0  0  0  0  0
    3.7533   10.3249   28.3395 C   0  0  0  0  0  0  0  0  0  0  0  0
    3.4963   10.6167   29.8129 C   0  0  1  0  0  0  0  0  0  0  0  0
    4.0816   11.9719   30.1917 C   0  0  0  0  0  0  0  0  0  0  0  0
    5.2778   12.0140   30.9280 C   0  0  0  0  0  0  0  0  0  0  0  0
    5.8675   13.2331   31.2659 C   0  0  0  0  0  0  0  0  0  0  0  0
    5.2748   14.4280   30.8682 C   0  0  0  0  0  0  0  0  0  0  0  0
    4.0939   14.4040   30.1313 C   0  0  0  0  0  0  0  0  0  0  0  0
    3.5012   13.1856   29.7920 C   0  0  0  0  0  0  0  0  0  0  0  0
    1.9872   10.4881   30.0604 C   0  0  0  0  0  0  0  0  0  0  0  0
    1.6560   10.7458   31.3413 F   0  0  0  0  0  0  0  0  0  0  0  0
    1.5667    9.2316   29.7798 F   0  0  0  0  0  0  0  0  0  0  0  0
    1.2693   11.3173   29.2650 F   0  0  0  0  0  0  0  0  0  0  0  0
    7.4319   10.5748   25.5899 C   0  0  0  0  0  0  0  0  0  0  0  0
    8.4373   10.9036   24.6524 C   0  0  0  0  0  0  0  0  0  0  0  0
    8.6301   12.2156   24.1617 C   0  0  0  0  0  0  0  0  0  0  0  0
    9.7862   12.5420   23.3681 N   0  0  0  0  0  0  0  0  0  0  0  0
   10.9057   11.6679   23.2770 C   0  0  0  0  0  0  0  0  0  0  0  0
   12.0487   12.5946   23.6373 C   0  0  0  0  0  0  0  0  0  0  0  0
   11.7428   13.7515   22.7279 C   0  0  0  0  0  0  0  0  0  0  0  0
   10.2346   13.7538   22.7821 C   0  0  0  0  0  0  0  0  0  0  0  0
    9.6166   14.6993   22.3379 O   0  0  0  0  0  0  0  0  0  0  0  0
  1  2  1  0
  2  3  2  0
  3  4  1  0
  4  5  1  0
  5  6  1  0
  6  7  2  0
  6  8  1  0
  9  8  1  6
  9 10  1  0
 10 11  2  0
 11 12  1  0
 12 13  2  0
 13 14  1  0
 14 15  2  0
  9 16  1  0
 16 17  1  0
 16 18  1  0
 16 19  1  0
  4 20  2  0
 20 21  1  0
 21 22  2  0
 22 23  1  0
 23 24  1  0
 24 25  1  0
 25 26  1  0
 26 27  1  0
 27 28  2  0
 22  2  1  0
 27 23  1  0
 15 10  1  0
M  END
>  <energy_score>  (1615) 
-20.366165

>  <inchikey>  (1615) 
None

>  <smiles>  (1615) 
None

>  <ref_pdb>  (1615) 
A0310a

>  <alias>  (1615) 
None

>  <HIPPO Pose ID>  (1615) 
499259

>  <name>  (1615) 
P499259

>  <HIPPO Compound ID>  (1615) 
301834

>  <ref_mols>  (1615) 
A1445a,A0310a

>  <distance_score>  (1615) 
1.321162

>  <inspiration_score>  (1615) 
None

$$$$
P499260
     RDKit          3D

 28 29  0  0  0  0  0  0  0  0999 V2000
    8.8043    9.5647   23.9331 C   0  0  0  0  0  0  0  0  0  0  0  0
    8.0876   10.6942   24.6288 C   0  0  0  0  0  0  0  0  0  0  0  0
    7.2326   10.3159   25.6584 C   0  0  0  0  0  0  0  0  0  0  0  0
    6.3838   11.1947   26.3106 C   0  0  0  0  0  0  0  0  0  0  0  0
    5.5862   10.6600   27.3053 N   0  0  0  0  0  0  0  0  0  0  0  0
    4.4097   11.2881   28.1002 C   0  0  0  0  0  0  0  0  0  0  0  0
    3.9863   12.3739   28.0902 O   0  0  0  0  0  0  0  0  0  0  0  0
    3.9427   10.1718   29.0326 C   0  0  0  0  0  0  0  0  0  0  0  0
    3.0668   10.5904   30.2342 C   0  0  2  0  0  0  0  0  0  0  0  0
    3.4240   11.9703   30.8195 C   0  0  0  0  0  0  0  0  0  0  0  0
    3.1440    9.5012   31.3612 C   0  0  0  0  0  0  0  0  0  0  0  0
    4.2589    9.5683   32.3349 N   0  0  0  0  0  0  0  0  0  0  0  0
    3.9757    8.6823   33.4724 C   0  0  0  0  0  0  0  0  0  0  0  0
    5.5746    9.2540   31.7918 C   0  0  0  0  0  0  0  0  0  0  0  0
    1.6054   10.6147   29.7749 C   0  0  0  0  0  0  0  0  0  0  0  0
    0.7799   10.9416   30.7929 F   0  0  0  0  0  0  0  0  0  0  0  0
    1.2236    9.3913   29.3311 F   0  0  0  0  0  0  0  0  0  0  0  0
    1.3778   11.4790   28.7679 F   0  0  0  0  0  0  0  0  0  0  0  0
    6.3770   12.5222   25.9447 C   0  0  0  0  0  0  0  0  0  0  0  0
    7.2455   12.9462   24.9372 C   0  0  0  0  0  0  0  0  0  0  0  0
    8.1262   12.0490   24.2829 C   0  0  0  0  0  0  0  0  0  0  0  0
    9.0379   12.5577   23.3346 N   0  0  0  0  0  0  0  0  0  0  0  0
   10.3266   12.1259   23.2045 C   0  0  0  0  0  0  0  0  0  0  0  0
   10.8329   11.1063   23.6265 O   0  0  0  0  0  0  0  0  0  0  0  0
   11.1226   13.2135   22.5789 C   0  0  0  0  0  0  0  0  0  0  0  0
   10.0804   14.0121   21.8502 C   0  0  0  0  0  0  0  0  0  0  0  0
    8.8109   13.6582   22.5472 C   0  0  0  0  0  0  0  0  0  0  0  0
    7.7487   14.2164   22.3152 O   0  0  0  0  0  0  0  0  0  0  0  0
  1  2  1  0
  2  3  2  0
  3  4  1  0
  4  5  1  0
  5  6  1  0
  6  7  2  0
  6  8  1  0
  9  8  1  0
  9 10  1  1
  9 11  1  0
 11 12  1  0
 12 13  1  0
 12 14  1  0
  9 15  1  0
 15 16  1  0
 15 17  1  0
 15 18  1  0
  4 19  2  0
 19 20  1  0
 20 21  2  0
 21 22  1  0
 22 23  1  0
 23 24  2  0
 23 25  1  0
 25 26  1  0
 26 27  1  0
 27 28  2  0
 21  2  1  0
 27 22  1  0
M  END
>  <energy_score>  (1616) 
-56.782819

>  <inchikey>  (1616) 
None

>  <smiles>  (1616) 
None

>  <ref_pdb>  (1616) 
A0310a

>  <alias>  (1616) 
None

>  <HIPPO Pose ID>  (1616) 
499260

>  <name>  (1616) 
P499260

>  <HIPPO Compound ID>  (1616) 
301836

>  <ref_mols>  (1616) 
A1445a,A0310a

>  <distance_score>  (1616) 
1.916123

>  <inspiration_score>  (1616) 
None

$$$$
P499261
     RDKit          3D

 28 31  0  0  0  0  0  0  0  0999 V2000
    8.8890   14.7042   25.5151 C   0  0  0  0  0  0  0  0  0  0  0  0
    8.1840   13.4203   25.2322 C   0  0  0  0  0  0  0  0  0  0  0  0
    6.9845   13.3060   25.9230 C   0  0  0  0  0  0  0  0  0  0  0  0
    6.3803   12.0882   26.1740 C   0  0  0  0  0  0  0  0  0  0  0  0
    5.2644   12.2940   26.9794 N   0  0  0  0  0  0  0  0  0  0  0  0
    4.4394   11.2876   27.8484 C   0  0  0  0  0  0  0  0  0  0  0  0
    4.5300   10.1291   27.9530 O   0  0  0  0  0  0  0  0  0  0  0  0
    3.4761   12.2367   28.5896 C   0  0  1  0  0  0  0  0  0  0  0  0
    2.2329   11.8152   29.3661 C   0  0  1  0  0  0  0  0  0  0  0  0
    1.8610   10.3770   29.5502 C   0  0  0  0  0  0  0  0  0  0  0  0
    2.6487    9.7162   30.4058 F   0  0  0  0  0  0  0  0  0  0  0  0
    1.7863    9.7163   28.3818 F   0  0  0  0  0  0  0  0  0  0  0  0
    0.6041   10.3607   30.0669 F   0  0  0  0  0  0  0  0  0  0  0  0
    2.4773   12.4574   30.7349 C   0  0  2  0  0  0  0  0  0  0  0  0
    2.3490   13.9816   30.6587 C   0  0  0  0  0  0  0  0  0  0  0  0
    3.6276   14.3753   29.9185 C   0  0  0  0  0  0  0  0  0  0  0  0
    4.2708   13.0128   29.6618 C   0  0  1  0  0  0  0  0  0  0  0  0
    3.9059   12.3147   30.8687 O   0  0  0  0  0  0  0  0  0  0  0  0
    6.9821   10.9531   25.6533 C   0  0  0  0  0  0  0  0  0  0  0  0
    8.1236   11.0928   24.7864 C   0  0  0  0  0  0  0  0  0  0  0  0
    8.7066   12.3499   24.5055 C   0  0  0  0  0  0  0  0  0  0  0  0
    9.8526   12.5997   23.6909 N   0  0  0  0  0  0  0  0  0  0  0  0
   10.7887   11.7105   23.2958 C   0  0  0  0  0  0  0  0  0  0  0  0
   10.7105   10.4942   23.3148 O   0  0  0  0  0  0  0  0  0  0  0  0
   12.0129   12.5108   22.8948 C   0  0  0  0  0  0  0  0  0  0  0  0
   11.5719   13.9274   22.7934 C   0  0  0  0  0  0  0  0  0  0  0  0
   10.1221   13.7733   23.0367 C   0  0  0  0  0  0  0  0  0  0  0  0
    9.3348   14.6170   22.6511 O   0  0  0  0  0  0  0  0  0  0  0  0
  1  2  1  0
  2  3  2  0
  3  4  1  0
  4  5  1  0
  5  6  1  0
  6  7  2  0
  8  6  1  1
  8  9  1  0
  9 10  1  1
 10 11  1  0
 10 12  1  0
 10 13  1  0
  9 14  1  0
 14 15  1  6
 15 16  1  0
 17 16  1  1
 17 18  1  0
  4 19  2  0
 19 20  1  0
 20 21  2  0
 21 22  1  0
 22 23  1  0
 23 24  2  0
 23 25  1  0
 25 26  1  0
 26 27  1  0
 27 28  2  0
 21  2  1  0
 27 22  1  0
 17  8  1  0
 18 14  1  0
M  END
>  <energy_score>  (1617) 
-46.293835

>  <inchikey>  (1617) 
None

>  <smiles>  (1617) 
None

>  <ref_pdb>  (1617) 
A0310a

>  <alias>  (1617) 
None

>  <HIPPO Pose ID>  (1617) 
499261

>  <name>  (1617) 
P499261

>  <HIPPO Compound ID>  (1617) 
301840

>  <ref_mols>  (1617) 
A1445a,A0310a

>  <distance_score>  (1617) 
1.692272

>  <inspiration_score>  (1617) 
None

$$$$
P499262
     RDKit          3D

 28 31  0  0  0  0  0  0  0  0999 V2000
    7.5765   14.5376   24.4872 C   0  0  0  0  0  0  0  0  0  0  0  0
    7.8365   13.1176   24.8634 C   0  0  0  0  0  0  0  0  0  0  0  0
    6.8346   12.4671   25.5876 C   0  0  0  0  0  0  0  0  0  0  0  0
    6.8758   11.1011   25.7957 C   0  0  0  0  0  0  0  0  0  0  0  0
    5.9310   10.5375   26.6505 N   0  0  0  0  0  0  0  0  0  0  0  0
    4.8975   11.2158   27.6101 C   0  0  0  0  0  0  0  0  0  0  0  0
    4.6357   12.3472   27.7656 O   0  0  0  0  0  0  0  0  0  0  0  0
    4.2422   10.1566   28.4875 C   0  0  2  0  0  0  0  0  0  0  0  0
    3.3633   10.7949   29.6065 C   0  0  1  0  0  0  0  0  0  0  0  0
    1.9029   10.4293   29.5053 C   0  0  0  0  0  0  0  0  0  0  0  0
    1.2292   10.8542   30.5981 F   0  0  0  0  0  0  0  0  0  0  0  0
    1.6939    9.1049   29.3822 F   0  0  0  0  0  0  0  0  0  0  0  0
    1.3381   11.0229   28.4271 F   0  0  0  0  0  0  0  0  0  0  0  0
    3.9854   10.2200   30.8700 C   0  0  2  0  0  0  0  0  0  0  0  0
    5.3364   10.8777   31.1566 C   0  0  0  0  0  0  0  0  0  0  0  0
    6.2338   10.2480   30.0914 C   0  0  0  0  0  0  0  0  0  0  0  0
    5.2473    9.3637   29.3257 C   0  0  1  0  0  0  0  0  0  0  0  0
    4.4110    8.9141   30.4161 O   0  0  0  0  0  0  0  0  0  0  0  0
    7.8718   10.3705   25.1604 C   0  0  0  0  0  0  0  0  0  0  0  0
    8.9201   11.0317   24.4804 C   0  0  0  0  0  0  0  0  0  0  0  0
    8.9814   12.4312   24.4398 C   0  0  0  0  0  0  0  0  0  0  0  0
   10.1387   13.1731   24.0384 N   0  0  0  0  0  0  0  0  0  0  0  0
   11.0942   12.7709   23.1705 C   0  0  0  0  0  0  0  0  0  0  0  0
   11.2090   11.6680   22.6946 O   0  0  0  0  0  0  0  0  0  0  0  0
   12.0717   13.8593   22.9190 C   0  0  0  0  0  0  0  0  0  0  0  0
   12.0389   14.5385   24.2508 C   0  0  0  0  0  0  0  0  0  0  0  0
   10.6787   14.1861   24.7885 C   0  0  0  0  0  0  0  0  0  0  0  0
   10.2516   14.7227   25.8057 O   0  0  0  0  0  0  0  0  0  0  0  0
  1  2  1  0
  2  3  2  0
  3  4  1  0
  4  5  1  0
  5  6  1  0
  6  7  2  0
  8  6  1  1
  8  9  1  0
  9 10  1  6
 10 11  1  0
 10 12  1  0
 10 13  1  0
  9 14  1  0
 14 15  1  6
 15 16  1  0
 17 16  1  1
 17 18  1  0
  4 19  2  0
 19 20  1  0
 20 21  2  0
 21 22  1  0
 22 23  1  0
 23 24  2  0
 23 25  1  0
 25 26  1  0
 26 27  1  0
 27 28  2  0
 21  2  1  0
 27 22  1  0
 17  8  1  0
 18 14  1  0
M  END
>  <energy_score>  (1618) 
-37.053622

>  <inchikey>  (1618) 
None

>  <smiles>  (1618) 
None

>  <ref_pdb>  (1618) 
A0310a

>  <alias>  (1618) 
None

>  <HIPPO Pose ID>  (1618) 
499262

>  <name>  (1618) 
P499262

>  <HIPPO Compound ID>  (1618) 
301840

>  <ref_mols>  (1618) 
A1445a,A0310a

>  <distance_score>  (1618) 
1.75942

>  <inspiration_score>  (1618) 
None

$$$$
P499263
     RDKit          3D

 28 31  0  0  0  0  0  0  0  0999 V2000
    7.2912   14.2084   22.5870 C   0  0  0  0  0  0  0  0  0  0  0  0
    7.5633   13.4217   23.8252 C   0  0  0  0  0  0  0  0  0  0  0  0
    6.5392   13.4610   24.7912 C   0  0  0  0  0  0  0  0  0  0  0  0
    6.3779   12.4735   25.7601 C   0  0  0  0  0  0  0  0  0  0  0  0
    5.2689   12.6583   26.5863 N   0  0  0  0  0  0  0  0  0  0  0  0
    4.7416   11.8004   27.7897 C   0  0  0  0  0  0  0  0  0  0  0  0
    5.1167   10.7757   28.2111 O   0  0  0  0  0  0  0  0  0  0  0  0
    3.6395   12.6674   28.4021 C   0  0  1  0  0  0  0  0  0  0  0  0
    2.5125   12.1549   29.3098 C   0  0  1  0  0  0  0  0  0  0  0  0
    2.1253   10.7205   29.5025 C   0  0  0  0  0  0  0  0  0  0  0  0
    2.9149   10.0453   30.3452 F   0  0  0  0  0  0  0  0  0  0  0  0
    2.0396   10.0524   28.3367 F   0  0  0  0  0  0  0  0  0  0  0  0
    0.8766   10.7006   30.0365 F   0  0  0  0  0  0  0  0  0  0  0  0
    2.7805   12.9048   30.6119 C   0  0  1  0  0  0  0  0  0  0  0  0
    4.0883   12.5293   31.3098 C   0  0  0  0  0  0  0  0  0  0  0  0
    5.1389   13.1791   30.4120 C   0  0  0  0  0  0  0  0  0  0  0  0
    4.2775   13.7571   29.2916 C   0  0  2  0  0  0  0  0  0  0  0  0
    3.1367   14.2047   30.0635 O   0  0  0  0  0  0  0  0  0  0  0  0
    7.2621   11.4138   25.7492 C   0  0  0  0  0  0  0  0  0  0  0  0
    8.3791   11.4591   24.8716 C   0  0  0  0  0  0  0  0  0  0  0  0
    8.6101   12.5222   23.9538 C   0  0  0  0  0  0  0  0  0  0  0  0
    9.8895   12.7284   23.3349 N   0  0  0  0  0  0  0  0  0  0  0  0
   10.4509   13.8382   22.7400 C   0  0  0  0  0  0  0  0  0  0  0  0
    9.9474   14.8585   22.3153 O   0  0  0  0  0  0  0  0  0  0  0  0
   11.9364   13.6814   22.6407 C   0  0  0  0  0  0  0  0  0  0  0  0
   12.1430   12.6125   23.6602 C   0  0  0  0  0  0  0  0  0  0  0  0
   10.8853   11.8205   23.4390 C   0  0  0  0  0  0  0  0  0  0  0  0
   10.7635   10.6125   23.3878 O   0  0  0  0  0  0  0  0  0  0  0  0
  1  2  1  0
  2  3  2  0
  3  4  1  0
  4  5  1  0
  5  6  1  0
  6  7  2  0
  8  6  1  1
  8  9  1  0
  9 10  1  1
 10 11  1  0
 10 12  1  0
 10 13  1  0
  9 14  1  0
 14 15  1  6
 15 16  1  0
 17 16  1  1
 17 18  1  0
  4 19  2  0
 19 20  1  0
 20 21  2  0
 21 22  1  0
 22 23  1  0
 23 24  2  0
 23 25  1  0
 25 26  1  0
 26 27  1  0
 27 28  2  0
 21  2  1  0
 27 22  1  0
 17  8  1  0
 18 14  1  0
M  END
>  <energy_score>  (1619) 
-0.758738

>  <inchikey>  (1619) 
None

>  <smiles>  (1619) 
None

>  <ref_pdb>  (1619) 
A0310a

>  <alias>  (1619) 
None

>  <HIPPO Pose ID>  (1619) 
499263

>  <name>  (1619) 
P499263

>  <HIPPO Compound ID>  (1619) 
301840

>  <ref_mols>  (1619) 
A1445a,A0310a

>  <distance_score>  (1619) 
1.683156

>  <inspiration_score>  (1619) 
None

$$$$
P499264
     RDKit          3D

 28 31  0  0  0  0  0  0  0  0999 V2000
    8.0349   14.5186   24.9333 C   0  0  0  0  0  0  0  0  0  0  0  0
    7.9398   13.0308   24.9036 C   0  0  0  0  0  0  0  0  0  0  0  0
    6.9180   12.4902   25.7187 C   0  0  0  0  0  0  0  0  0  0  0  0
    6.7663   11.1270   25.8888 C   0  0  0  0  0  0  0  0  0  0  0  0
    5.8259   10.6183   26.7770 N   0  0  0  0  0  0  0  0  0  0  0  0
    4.9105   11.3478   27.8124 C   0  0  0  0  0  0  0  0  0  0  0  0
    4.7575   12.4902   28.0161 O   0  0  0  0  0  0  0  0  0  0  0  0
    4.1848   10.2786   28.6380 C   0  0  2  0  0  0  0  0  0  0  0  0
    3.2734   10.9108   29.7226 C   0  0  1  0  0  0  0  0  0  0  0  0
    1.8123   10.5958   29.5655 C   0  0  0  0  0  0  0  0  0  0  0  0
    1.1243   10.9484   30.6713 F   0  0  0  0  0  0  0  0  0  0  0  0
    1.5944    9.2818   29.3463 F   0  0  0  0  0  0  0  0  0  0  0  0
    1.2831   11.2574   28.5137 F   0  0  0  0  0  0  0  0  0  0  0  0
    3.8892   10.3865   31.0151 C   0  0  1  0  0  0  0  0  0  0  0  0
    3.6817    8.8939   31.2526 C   0  0  0  0  0  0  0  0  0  0  0  0
    4.5232    8.2799   30.1343 C   0  0  0  0  0  0  0  0  0  0  0  0
    5.1857    9.5112   29.5113 C   0  0  2  0  0  0  0  0  0  0  0  0
    5.2971   10.3779   30.6647 O   0  0  0  0  0  0  0  0  0  0  0  0
    7.5935   10.2879   25.1738 C   0  0  0  0  0  0  0  0  0  0  0  0
    8.5840   10.8104   24.3308 C   0  0  0  0  0  0  0  0  0  0  0  0
    8.8121   12.1920   24.1845 C   0  0  0  0  0  0  0  0  0  0  0  0
    9.9732   12.6825   23.4958 N   0  0  0  0  0  0  0  0  0  0  0  0
   10.1948   13.8927   22.9108 C   0  0  0  0  0  0  0  0  0  0  0  0
    9.3852   14.6644   22.4343 O   0  0  0  0  0  0  0  0  0  0  0  0
   11.6535   14.1729   22.8232 C   0  0  0  0  0  0  0  0  0  0  0  0
   12.2084   12.7916   22.8052 C   0  0  0  0  0  0  0  0  0  0  0  0
   11.0518   11.9172   23.2071 C   0  0  0  0  0  0  0  0  0  0  0  0
   11.1229   10.7031   23.2947 O   0  0  0  0  0  0  0  0  0  0  0  0
  1  2  1  0
  2  3  2  0
  3  4  1  0
  4  5  1  0
  5  6  1  0
  6  7  2  0
  8  6  1  1
  8  9  1  0
  9 10  1  6
 10 11  1  0
 10 12  1  0
 10 13  1  0
  9 14  1  0
 14 15  1  6
 15 16  1  0
 17 16  1  1
 17 18  1  0
  4 19  2  0
 19 20  1  0
 20 21  2  0
 21 22  1  0
 22 23  1  0
 23 24  2  0
 23 25  1  0
 25 26  1  0
 26 27  1  0
 27 28  2  0
 21  2  1  0
 27 22  1  0
 17  8  1  0
 18 14  1  0
M  END
>  <energy_score>  (1620) 
-36.471602

>  <inchikey>  (1620) 
None

>  <smiles>  (1620) 
None

>  <ref_pdb>  (1620) 
A0310a

>  <alias>  (1620) 
None

>  <HIPPO Pose ID>  (1620) 
499264

>  <name>  (1620) 
P499264

>  <HIPPO Compound ID>  (1620) 
301840

>  <ref_mols>  (1620) 
A1445a,A0310a

>  <distance_score>  (1620) 
1.464452

>  <inspiration_score>  (1620) 
None

$$$$
P499265
     RDKit          3D

 28 31  0  0  0  0  0  0  0  0999 V2000
    8.8987   14.6132   25.6213 C   0  0  0  0  0  0  0  0  0  0  0  0
    8.3637   13.2334   25.4240 C   0  0  0  0  0  0  0  0  0  0  0  0
    7.3362   12.8767   26.3063 C   0  0  0  0  0  0  0  0  0  0  0  0
    6.7487   11.6284   26.2575 C   0  0  0  0  0  0  0  0  0  0  0  0
    5.5304   11.5293   26.8990 N   0  0  0  0  0  0  0  0  0  0  0  0
    5.0629   12.0907   28.2843 C   0  0  0  0  0  0  0  0  0  0  0  0
    5.6651   12.6516   29.1172 O   0  0  0  0  0  0  0  0  0  0  0  0
    3.5480   11.8683   28.3494 C   0  0  1  0  0  0  0  0  0  0  0  0
    2.8885   11.9417   29.7374 C   0  0  2  0  0  0  0  0  0  0  0  0
    1.9539   10.7874   30.0224 C   0  0  0  0  0  0  0  0  0  0  0  0
    2.5997    9.7825   30.6409 F   0  0  0  0  0  0  0  0  0  0  0  0
    1.3993   10.2790   28.8989 F   0  0  0  0  0  0  0  0  0  0  0  0
    0.9425   11.1691   30.8249 F   0  0  0  0  0  0  0  0  0  0  0  0
    2.1413   13.2789   29.6760 C   0  0  2  0  0  0  0  0  0  0  0  0
    0.9047   13.2748   28.7790 C   0  0  0  0  0  0  0  0  0  0  0  0
    1.5311   13.1539   27.3958 C   0  0  0  0  0  0  0  0  0  0  0  0
    3.0214   13.1827   27.7041 C   0  0  1  0  0  0  0  0  0  0  0  0
    3.0264   14.0675   28.8526 O   0  0  0  0  0  0  0  0  0  0  0  0
    7.2407   10.6850   25.3746 C   0  0  0  0  0  0  0  0  0  0  0  0
    8.3168   11.0130   24.5245 C   0  0  0  0  0  0  0  0  0  0  0  0
    8.8545   12.3129   24.4794 C   0  0  0  0  0  0  0  0  0  0  0  0
    9.9580   12.6765   23.6583 N   0  0  0  0  0  0  0  0  0  0  0  0
   10.8602   11.8287   23.1263 C   0  0  0  0  0  0  0  0  0  0  0  0
   10.7431   10.6212   23.0364 O   0  0  0  0  0  0  0  0  0  0  0  0
   12.0702   12.6497   22.7415 C   0  0  0  0  0  0  0  0  0  0  0  0
   11.5542   14.0417   22.6019 C   0  0  0  0  0  0  0  0  0  0  0  0
   10.1433   13.8611   23.0199 C   0  0  0  0  0  0  0  0  0  0  0  0
    9.2881   14.6671   22.7126 O   0  0  0  0  0  0  0  0  0  0  0  0
  1  2  1  0
  2  3  2  0
  3  4  1  0
  4  5  1  0
  5  6  1  0
  6  7  2  0
  8  6  1  1
  8  9  1  0
  9 10  1  6
 10 11  1  0
 10 12  1  0
 10 13  1  0
  9 14  1  0
 14 15  1  6
 15 16  1  0
 17 16  1  1
 17 18  1  0
  4 19  2  0
 19 20  1  0
 20 21  2  0
 21 22  1  0
 22 23  1  0
 23 24  2  0
 23 25  1  0
 25 26  1  0
 26 27  1  0
 27 28  2  0
 21  2  1  0
 27 22  1  0
 17  8  1  0
 18 14  1  0
M  END
>  <energy_score>  (1621) 
-19.841985

>  <inchikey>  (1621) 
None

>  <smiles>  (1621) 
None

>  <ref_pdb>  (1621) 
A0310a

>  <alias>  (1621) 
None

>  <HIPPO Pose ID>  (1621) 
499265

>  <name>  (1621) 
P499265

>  <HIPPO Compound ID>  (1621) 
301840

>  <ref_mols>  (1621) 
A1445a,A0310a

>  <distance_score>  (1621) 
1.65732

>  <inspiration_score>  (1621) 
None

$$$$
P499266
     RDKit          3D

 28 31  0  0  0  0  0  0  0  0999 V2000
    8.7276   14.6798   25.5811 C   0  0  0  0  0  0  0  0  0  0  0  0
    8.1254   13.3236   25.4083 C   0  0  0  0  0  0  0  0  0  0  0  0
    7.0095   13.0962   26.2246 C   0  0  0  0  0  0  0  0  0  0  0  0
    6.3804   11.8690   26.3271 C   0  0  0  0  0  0  0  0  0  0  0  0
    5.2021   11.8462   27.0888 N   0  0  0  0  0  0  0  0  0  0  0  0
    4.5157   12.9743   27.9339 C   0  0  0  0  0  0  0  0  0  0  0  0
    4.8748   14.0632   28.1799 O   0  0  0  0  0  0  0  0  0  0  0  0
    3.1012   12.5335   28.3975 C   0  0  1  0  0  0  0  0  0  0  0  0
    3.0418   11.6410   29.6523 C   0  0  2  0  0  0  0  0  0  0  0  0
    2.1500   10.4335   29.4978 C   0  0  0  0  0  0  0  0  0  0  0  0
    1.8614    9.8895   30.6975 F   0  0  0  0  0  0  0  0  0  0  0  0
    2.7348    9.4857   28.7408 F   0  0  0  0  0  0  0  0  0  0  0  0
    0.9872   10.7398   28.8831 F   0  0  0  0  0  0  0  0  0  0  0  0
    2.4643   12.5905   30.7185 C   0  0  2  0  0  0  0  0  0  0  0  0
    0.9699   12.8817   30.5841 C   0  0  0  0  0  0  0  0  0  0  0  0
    0.9229   13.6120   29.2423 C   0  0  0  0  0  0  0  0  0  0  0  0
    2.4087   13.8170   28.9387 C   0  0  1  0  0  0  0  0  0  0  0  0
    2.9677   13.8640   30.2806 O   0  0  0  0  0  0  0  0  0  0  0  0
    6.9309   10.8168   25.6067 C   0  0  0  0  0  0  0  0  0  0  0  0
    8.0543   11.0397   24.7492 C   0  0  0  0  0  0  0  0  0  0  0  0
    8.6290   12.3167   24.5761 C   0  0  0  0  0  0  0  0  0  0  0  0
    9.7644   12.6011   23.7590 N   0  0  0  0  0  0  0  0  0  0  0  0
   10.6734   11.7119   23.3056 C   0  0  0  0  0  0  0  0  0  0  0  0
   10.5534   10.5009   23.2620 O   0  0  0  0  0  0  0  0  0  0  0  0
   11.9130   12.4945   22.9299 C   0  0  0  0  0  0  0  0  0  0  0  0
   11.4869   13.9189   22.8590 C   0  0  0  0  0  0  0  0  0  0  0  0
   10.0376   13.7777   23.1231 C   0  0  0  0  0  0  0  0  0  0  0  0
    9.2498   14.6178   22.7349 O   0  0  0  0  0  0  0  0  0  0  0  0
  1  2  1  0
  2  3  2  0
  3  4  1  0
  4  5  1  0
  5  6  1  0
  6  7  2  0
  8  6  1  1
  8  9  1  0
  9 10  1  6
 10 11  1  0
 10 12  1  0
 10 13  1  0
  9 14  1  0
 14 15  1  6
 15 16  1  0
 17 16  1  1
 17 18  1  0
  4 19  2  0
 19 20  1  0
 20 21  2  0
 21 22  1  0
 22 23  1  0
 23 24  2  0
 23 25  1  0
 25 26  1  0
 26 27  1  0
 27 28  2  0
 21  2  1  0
 27 22  1  0
 17  8  1  0
 18 14  1  0
M  END
>  <energy_score>  (1622) 
-29.610276

>  <inchikey>  (1622) 
None

>  <smiles>  (1622) 
None

>  <ref_pdb>  (1622) 
A0310a

>  <alias>  (1622) 
None

>  <HIPPO Pose ID>  (1622) 
499266

>  <name>  (1622) 
P499266

>  <HIPPO Compound ID>  (1622) 
301840

>  <ref_mols>  (1622) 
A1445a,A0310a

>  <distance_score>  (1622) 
1.774657

>  <inspiration_score>  (1622) 
None

$$$$
P499267
     RDKit          3D

 28 31  0  0  0  0  0  0  0  0999 V2000
    8.5246   14.6880   25.0453 C   0  0  0  0  0  0  0  0  0  0  0  0
    8.2464   13.2466   25.2243 C   0  0  0  0  0  0  0  0  0  0  0  0
    7.0922   12.9536   25.9390 C   0  0  0  0  0  0  0  0  0  0  0  0
    6.7112   11.6540   26.2014 C   0  0  0  0  0  0  0  0  0  0  0  0
    5.6103   11.6166   27.0396 N   0  0  0  0  0  0  0  0  0  0  0  0
    5.1708   10.5496   28.0826 C   0  0  0  0  0  0  0  0  0  0  0  0
    5.6288    9.5072   28.3360 O   0  0  0  0  0  0  0  0  0  0  0  0
    4.0104   11.2304   28.8178 C   0  0  1  0  0  0  0  0  0  0  0  0
    3.3506   10.4587   29.9720 C   0  0  2  0  0  0  0  0  0  0  0  0
    1.8619   10.2913   29.7468 C   0  0  0  0  0  0  0  0  0  0  0  0
    1.2552    9.8557   30.8715 F   0  0  0  0  0  0  0  0  0  0  0  0
    1.6301    9.3811   28.7767 F   0  0  0  0  0  0  0  0  0  0  0  0
    1.2532   11.4335   29.3661 F   0  0  0  0  0  0  0  0  0  0  0  0
    3.5740   11.3989   31.1562 C   0  0  1  0  0  0  0  0  0  0  0  0
    5.0427   11.3907   31.5839 C   0  0  0  0  0  0  0  0  0  0  0  0
    5.6976   12.2189   30.4811 C   0  0  0  0  0  0  0  0  0  0  0  0
    4.5124   12.4960   29.5541 C   0  0  2  0  0  0  0  0  0  0  0  0
    3.4686   12.6924   30.5295 O   0  0  0  0  0  0  0  0  0  0  0  0
    7.4552   10.6174   25.6603 C   0  0  0  0  0  0  0  0  0  0  0  0
    8.5738   10.9068   24.8288 C   0  0  0  0  0  0  0  0  0  0  0  0
    9.0095   12.2301   24.6319 C   0  0  0  0  0  0  0  0  0  0  0  0
   10.0139   12.5588   23.6563 N   0  0  0  0  0  0  0  0  0  0  0  0
    9.5010   13.0778   22.4945 C   0  0  0  0  0  0  0  0  0  0  0  0
    8.3183   13.0491   22.1667 O   0  0  0  0  0  0  0  0  0  0  0  0
   10.5260   13.9086   21.7829 C   0  0  0  0  0  0  0  0  0  0  0  0
   11.7708   13.6574   22.5795 C   0  0  0  0  0  0  0  0  0  0  0  0
   11.1630   13.2954   23.8984 C   0  0  0  0  0  0  0  0  0  0  0  0
   11.6252   13.7246   24.9462 O   0  0  0  0  0  0  0  0  0  0  0  0
  1  2  1  0
  2  3  2  0
  3  4  1  0
  4  5  1  0
  5  6  1  0
  6  7  2  0
  8  6  1  1
  8  9  1  0
  9 10  1  6
 10 11  1  0
 10 12  1  0
 10 13  1  0
  9 14  1  0
 14 15  1  6
 15 16  1  0
 17 16  1  1
 17 18  1  0
  4 19  2  0
 19 20  1  0
 20 21  2  0
 21 22  1  0
 22 23  1  0
 23 24  2  0
 23 25  1  0
 25 26  1  0
 26 27  1  0
 27 28  2  0
 21  2  1  0
 27 22  1  0
 17  8  1  0
 18 14  1  0
M  END
>  <energy_score>  (1623) 
-26.01874

>  <inchikey>  (1623) 
None

>  <smiles>  (1623) 
None

>  <ref_pdb>  (1623) 
A0310a

>  <alias>  (1623) 
None

>  <HIPPO Pose ID>  (1623) 
499267

>  <name>  (1623) 
P499267

>  <HIPPO Compound ID>  (1623) 
301840

>  <ref_mols>  (1623) 
A1445a,A0310a

>  <distance_score>  (1623) 
1.671842

>  <inspiration_score>  (1623) 
None

$$$$
P499268
     RDKit          3D

 28 31  0  0  0  0  0  0  0  0999 V2000
    7.1933   14.2372   22.9609 C   0  0  0  0  0  0  0  0  0  0  0  0
    7.5202   13.2652   24.0410 C   0  0  0  0  0  0  0  0  0  0  0  0
    6.5318   13.1559   25.0376 C   0  0  0  0  0  0  0  0  0  0  0  0
    6.4898   12.0862   25.9138 C   0  0  0  0  0  0  0  0  0  0  0  0
    5.4936   12.1250   26.8778 N   0  0  0  0  0  0  0  0  0  0  0  0
    5.1852   11.1492   28.0549 C   0  0  0  0  0  0  0  0  0  0  0  0
    5.7702   10.2106   28.4333 O   0  0  0  0  0  0  0  0  0  0  0  0
    3.9503   11.7392   28.7352 C   0  0  1  0  0  0  0  0  0  0  0  0
    3.4023   10.9560   29.9449 C   0  0  2  0  0  0  0  0  0  0  0  0
    1.9609   10.5338   29.7447 C   0  0  0  0  0  0  0  0  0  0  0  0
    1.4371   10.0624   30.8973 F   0  0  0  0  0  0  0  0  0  0  0  0
    1.8705    9.5457   28.8270 F   0  0  0  0  0  0  0  0  0  0  0  0
    1.1727   11.5394   29.3135 F   0  0  0  0  0  0  0  0  0  0  0  0
    3.4774   12.0035   31.0548 C   0  0  1  0  0  0  0  0  0  0  0  0
    4.9277   12.2361   31.4819 C   0  0  0  0  0  0  0  0  0  0  0  0
    5.4744   13.0597   30.3176 C   0  0  0  0  0  0  0  0  0  0  0  0
    4.2726   13.1048   29.3727 C   0  0  2  0  0  0  0  0  0  0  0  0
    3.1997   13.2210   30.3315 O   0  0  0  0  0  0  0  0  0  0  0  0
    7.4125   11.0755   25.7531 C   0  0  0  0  0  0  0  0  0  0  0  0
    8.4674   11.2430   24.8318 C   0  0  0  0  0  0  0  0  0  0  0  0
    8.6130   12.4025   24.0314 C   0  0  0  0  0  0  0  0  0  0  0  0
    9.8718   12.7276   23.4246 N   0  0  0  0  0  0  0  0  0  0  0  0
   10.3423   13.9224   22.9471 C   0  0  0  0  0  0  0  0  0  0  0  0
    9.7927   14.8115   22.3304 O   0  0  0  0  0  0  0  0  0  0  0  0
   11.7969   14.0214   23.2269 C   0  0  0  0  0  0  0  0  0  0  0  0
   12.1718   12.5943   23.0574 C   0  0  0  0  0  0  0  0  0  0  0  0
   10.8846   11.8396   23.2798 C   0  0  0  0  0  0  0  0  0  0  0  0
   10.7892   10.6235   23.3012 O   0  0  0  0  0  0  0  0  0  0  0  0
  1  2  1  0
  2  3  2  0
  3  4  1  0
  4  5  1  0
  5  6  1  0
  6  7  2  0
  8  6  1  1
  8  9  1  0
  9 10  1  6
 10 11  1  0
 10 12  1  0
 10 13  1  0
  9 14  1  0
 14 15  1  6
 15 16  1  0
 17 16  1  1
 17 18  1  0
  4 19  2  0
 19 20  1  0
 20 21  2  0
 21 22  1  0
 22 23  1  0
 23 24  2  0
 23 25  1  0
 25 26  1  0
 26 27  1  0
 27 28  2  0
 21  2  1  0
 27 22  1  0
 17  8  1  0
 18 14  1  0
M  END
>  <energy_score>  (1624) 
-33.996505

>  <inchikey>  (1624) 
None

>  <smiles>  (1624) 
None

>  <ref_pdb>  (1624) 
A0310a

>  <alias>  (1624) 
None

>  <HIPPO Pose ID>  (1624) 
499268

>  <name>  (1624) 
P499268

>  <HIPPO Compound ID>  (1624) 
301840

>  <ref_mols>  (1624) 
A1445a,A0310a

>  <distance_score>  (1624) 
1.524826

>  <inspiration_score>  (1624) 
None

$$$$
P499269
     RDKit          3D

 29 31  0  0  0  0  0  0  0  0999 V2000
    7.6060   14.5306   24.2690 C   0  0  0  0  0  0  0  0  0  0  0  0
    7.6534   13.0879   24.6159 C   0  0  0  0  0  0  0  0  0  0  0  0
    6.6304   12.6739   25.5083 C   0  0  0  0  0  0  0  0  0  0  0  0
    6.6049   11.4019   26.0344 C   0  0  0  0  0  0  0  0  0  0  0  0
    5.6049   11.0652   26.9395 N   0  0  0  0  0  0  0  0  0  0  0  0
    5.6304   10.1011   28.1611 C   0  0  0  0  0  0  0  0  0  0  0  0
    6.5168    9.5040   28.6369 O   0  0  0  0  0  0  0  0  0  0  0  0
    4.1990    9.9022   28.6847 C   0  0  0  0  0  0  0  0  0  0  0  0
    3.3396   11.1390   28.9795 C   0  0  2  0  0  0  0  0  0  0  0  0
    4.0594   12.1852   29.8150 C   0  0  0  0  0  0  0  0  0  0  0  0
    4.6756   11.8577   31.0335 C   0  0  0  0  0  0  0  0  0  0  0  0
    5.3536   12.8306   31.7726 C   0  0  0  0  0  0  0  0  0  0  0  0
    5.4192   14.1391   31.3026 C   0  0  0  0  0  0  0  0  0  0  0  0
    6.2648   15.3325   32.2074 Cl  0  0  0  0  0  0  0  0  0  0  0  0
    4.8052   14.4852   30.1024 C   0  0  0  0  0  0  0  0  0  0  0  0
    4.1265   13.5137   29.3624 C   0  0  0  0  0  0  0  0  0  0  0  0
    1.9938   10.7221   29.5922 C   0  0  0  0  0  0  0  0  0  0  0  0
    2.0936   10.2881   30.8633 F   0  0  0  0  0  0  0  0  0  0  0  0
    1.4347    9.7239   28.8641 F   0  0  0  0  0  0  0  0  0  0  0  0
    1.1182   11.7515   29.5647 F   0  0  0  0  0  0  0  0  0  0  0  0
    7.5286   10.4932   25.5620 C   0  0  0  0  0  0  0  0  0  0  0  0
    8.5010   10.8721   24.6154 C   0  0  0  0  0  0  0  0  0  0  0  0
    8.6428   12.1978   24.1594 C   0  0  0  0  0  0  0  0  0  0  0  0
    9.7959   12.5711   23.3823 N   0  0  0  0  0  0  0  0  0  0  0  0
   10.9305   11.7204   23.2538 C   0  0  0  0  0  0  0  0  0  0  0  0
   12.0714   12.6643   23.5635 C   0  0  0  0  0  0  0  0  0  0  0  0
   11.7020   13.8232   22.6803 C   0  0  0  0  0  0  0  0  0  0  0  0
   10.1960   13.7870   22.7825 C   0  0  0  0  0  0  0  0  0  0  0  0
    9.5336   14.7059   22.3478 O   0  0  0  0  0  0  0  0  0  0  0  0
  1  2  1  0
  2  3  2  0
  3  4  1  0
  4  5  1  0
  5  6  1  0
  6  7  2  0
  6  8  1  0
  9  8  1  1
  9 10  1  0
 10 11  2  0
 11 12  1  0
 12 13  2  0
 13 14  1  0
 13 15  1  0
 15 16  2  0
  9 17  1  0
 17 18  1  0
 17 19  1  0
 17 20  1  0
  4 21  2  0
 21 22  1  0
 22 23  2  0
 23 24  1  0
 24 25  1  0
 25 26  1  0
 26 27  1  0
 27 28  1  0
 28 29  2  0
 23  2  1  0
 28 24  1  0
 16 10  1  0
M  END
>  <energy_score>  (1625) 
-14.251467

>  <inchikey>  (1625) 
None

>  <smiles>  (1625) 
None

>  <ref_pdb>  (1625) 
A0310a

>  <alias>  (1625) 
None

>  <HIPPO Pose ID>  (1625) 
499269

>  <name>  (1625) 
P499269

>  <HIPPO Compound ID>  (1625) 
301844

>  <ref_mols>  (1625) 
A1445a,A0310a

>  <distance_score>  (1625) 
1.347666

>  <inspiration_score>  (1625) 
None

$$$$
P499270
     RDKit          3D

 29 31  0  0  0  0  0  0  0  0999 V2000
    8.3511   14.4783   25.0663 C   0  0  0  0  0  0  0  0  0  0  0  0
    8.2220   12.9992   24.9622 C   0  0  0  0  0  0  0  0  0  0  0  0
    7.2952   12.4041   25.8393 C   0  0  0  0  0  0  0  0  0  0  0  0
    7.0966   11.0323   25.8789 C   0  0  0  0  0  0  0  0  0  0  0  0
    6.1297   10.5422   26.7523 N   0  0  0  0  0  0  0  0  0  0  0  0
    5.5811   11.1319   28.0920 C   0  0  0  0  0  0  0  0  0  0  0  0
    5.9155   12.0756   28.6974 O   0  0  0  0  0  0  0  0  0  0  0  0
    4.3620   10.2983   28.5071 C   0  0  0  0  0  0  0  0  0  0  0  0
    3.4755   10.9624   29.6046 C   0  0  1  0  0  0  0  0  0  0  0  0
    3.2723   12.4755   29.4961 C   0  0  0  0  0  0  0  0  0  0  0  0
    2.9249   13.0976   28.2846 C   0  0  0  0  0  0  0  0  0  0  0  0
    2.7394   14.4814   28.2215 C   0  0  0  0  0  0  0  0  0  0  0  0
    2.8914   15.2547   29.3688 C   0  0  0  0  0  0  0  0  0  0  0  0
    2.6635   16.9581   29.2914 Cl  0  0  0  0  0  0  0  0  0  0  0  0
    3.2243   14.6564   30.5805 C   0  0  0  0  0  0  0  0  0  0  0  0
    3.4123   13.2736   30.6448 C   0  0  0  0  0  0  0  0  0  0  0  0
    2.0853   10.3155   29.6580 C   0  0  0  0  0  0  0  0  0  0  0  0
    1.4178   10.6674   30.7799 F   0  0  0  0  0  0  0  0  0  0  0  0
    2.1710    8.9674   29.6533 F   0  0  0  0  0  0  0  0  0  0  0  0
    1.3243   10.6644   28.5924 F   0  0  0  0  0  0  0  0  0  0  0  0
    7.8263   10.2375   25.0126 C   0  0  0  0  0  0  0  0  0  0  0  0
    8.7915   10.8157   24.1625 C   0  0  0  0  0  0  0  0  0  0  0  0
    8.9967   12.2064   24.1062 C   0  0  0  0  0  0  0  0  0  0  0  0
   10.0820   12.7253   23.3361 N   0  0  0  0  0  0  0  0  0  0  0  0
   11.3868   12.2492   23.6380 C   0  0  0  0  0  0  0  0  0  0  0  0
   12.3482   13.0367   22.7879 C   0  0  0  0  0  0  0  0  0  0  0  0
   11.6498   14.3427   22.5725 C   0  0  0  0  0  0  0  0  0  0  0  0
   10.2018   13.9505   22.6814 C   0  0  0  0  0  0  0  0  0  0  0  0
    9.3101   14.6640   22.2671 O   0  0  0  0  0  0  0  0  0  0  0  0
  1  2  1  0
  2  3  2  0
  3  4  1  0
  4  5  1  0
  5  6  1  0
  6  7  2  0
  6  8  1  0
  9  8  1  6
  9 10  1  0
 10 11  2  0
 11 12  1  0
 12 13  2  0
 13 14  1  0
 13 15  1  0
 15 16  2  0
  9 17  1  0
 17 18  1  0
 17 19  1  0
 17 20  1  0
  4 21  2  0
 21 22  1  0
 22 23  2  0
 23 24  1  0
 24 25  1  0
 25 26  1  0
 26 27  1  0
 27 28  1  0
 28 29  2  0
 23  2  1  0
 28 24  1  0
 16 10  1  0
M  END
>  <energy_score>  (1626) 
-12.268281

>  <inchikey>  (1626) 
None

>  <smiles>  (1626) 
None

>  <ref_pdb>  (1626) 
A0310a

>  <alias>  (1626) 
None

>  <HIPPO Pose ID>  (1626) 
499270

>  <name>  (1626) 
P499270

>  <HIPPO Compound ID>  (1626) 
301844

>  <ref_mols>  (1626) 
A1445a,A0310a

>  <distance_score>  (1626) 
1.528521

>  <inspiration_score>  (1626) 
None

$$$$
P499271
     RDKit          3D

 29 31  0  0  0  0  0  0  0  0999 V2000
    3.2993   15.0708   32.3686 C   0  0  0  0  0  0  0  0  0  0  0  0
    3.1368   14.2948   31.1238 C   0  0  0  0  0  0  0  0  0  0  0  0
    2.7711   14.6293   29.8394 C   0  0  0  0  0  0  0  0  0  0  0  0
    2.8007   13.4291   29.0898 C   0  0  0  0  0  0  0  0  0  0  0  0
    3.1996   12.4303   29.9587 C   0  0  0  0  0  0  0  0  0  0  0  0
    3.3895   10.9395   29.8359 C   0  0  2  0  0  0  0  0  0  0  0  0
    4.1157   10.4928   31.0106 O   0  0  0  0  0  0  0  0  0  0  0  0
    4.1927   10.4426   28.6140 C   0  0  0  0  0  0  0  0  0  0  0  0
    5.3457   11.3332   28.1474 C   0  0  0  0  0  0  0  0  0  0  0  0
    5.5878   12.3649   28.6407 O   0  0  0  0  0  0  0  0  0  0  0  0
    5.9783   10.6347   26.8999 N   0  0  0  0  0  0  0  0  0  0  0  0
    6.9288   11.0932   25.9953 C   0  0  0  0  0  0  0  0  0  0  0  0
    7.6222   10.2463   25.1538 C   0  0  0  0  0  0  0  0  0  0  0  0
    8.5810   10.7568   24.2654 C   0  0  0  0  0  0  0  0  0  0  0  0
    8.8439   12.1344   24.1608 C   0  0  0  0  0  0  0  0  0  0  0  0
    9.9113   12.5784   23.3372 N   0  0  0  0  0  0  0  0  0  0  0  0
   11.0664   11.7815   23.1534 C   0  0  0  0  0  0  0  0  0  0  0  0
   12.1840   12.7802   23.3471 C   0  0  0  0  0  0  0  0  0  0  0  0
   11.6812   13.9331   22.5188 C   0  0  0  0  0  0  0  0  0  0  0  0
   10.1987   13.8221   22.7639 C   0  0  0  0  0  0  0  0  0  0  0  0
    9.4279   14.7021   22.4444 O   0  0  0  0  0  0  0  0  0  0  0  0
    8.1108   12.9845   24.9984 C   0  0  0  0  0  0  0  0  0  0  0  0
    8.2929   14.4614   25.0583 C   0  0  0  0  0  0  0  0  0  0  0  0
    7.1687   12.4540   25.9020 C   0  0  0  0  0  0  0  0  0  0  0  0
    1.9621   10.3219   29.7880 C   0  0  0  0  0  0  0  0  0  0  0  0
    1.2692   10.5521   30.9275 F   0  0  0  0  0  0  0  0  0  0  0  0
    1.9945    8.9830   29.5983 F   0  0  0  0  0  0  0  0  0  0  0  0
    1.2369   10.8356   28.7579 F   0  0  0  0  0  0  0  0  0  0  0  0
    3.3877   12.9597   31.2079 O   0  0  0  0  0  0  0  0  0  0  0  0
  1  2  1  0
  2  3  2  0
  3  4  1  0
  4  5  2  0
  5  6  1  0
  6  7  1  1
  6  8  1  0
  8  9  1  0
  9 10  2  0
  9 11  1  0
 11 12  1  0
 12 13  2  0
 13 14  1  0
 14 15  2  0
 15 16  1  0
 16 17  1  0
 17 18  1  0
 18 19  1  0
 19 20  1  0
 20 21  2  0
 15 22  1  0
 22 23  1  0
 22 24  2  0
  6 25  1  0
 25 26  1  0
 25 27  1  0
 25 28  1  0
  5 29  1  0
 29  2  1  0
 24 12  1  0
 20 16  1  0
M  END
>  <energy_score>  (1627) 
-20.291975

>  <inchikey>  (1627) 
None

>  <smiles>  (1627) 
None

>  <ref_pdb>  (1627) 
A0310a

>  <alias>  (1627) 
None

>  <HIPPO Pose ID>  (1627) 
499271

>  <name>  (1627) 
P499271

>  <HIPPO Compound ID>  (1627) 
301845

>  <ref_mols>  (1627) 
A1445a,A0310a

>  <distance_score>  (1627) 
1.418704

>  <inspiration_score>  (1627) 
None

$$$$
P499272
     RDKit          3D

 29 31  0  0  0  0  0  0  0  0999 V2000
    4.3256   15.5350   30.7862 C   0  0  0  0  0  0  0  0  0  0  0  0
    4.5251   14.0731   30.7307 C   0  0  0  0  0  0  0  0  0  0  0  0
    5.3115   13.1939   31.4411 C   0  0  0  0  0  0  0  0  0  0  0  0
    5.0518   11.9068   30.9114 C   0  0  0  0  0  0  0  0  0  0  0  0
    4.1223   12.0769   29.9043 C   0  0  0  0  0  0  0  0  0  0  0  0
    3.4156   11.1527   28.9589 C   0  0  1  0  0  0  0  0  0  0  0  0
    3.1972   11.9139   27.7378 O   0  0  0  0  0  0  0  0  0  0  0  0
    4.2407    9.9184   28.5892 C   0  0  0  0  0  0  0  0  0  0  0  0
    5.6771   10.1380   28.0940 C   0  0  0  0  0  0  0  0  0  0  0  0
    6.5721    9.5753   28.5959 O   0  0  0  0  0  0  0  0  0  0  0  0
    5.6448   11.0760   26.8534 N   0  0  0  0  0  0  0  0  0  0  0  0
    6.6529   11.4238   25.9546 C   0  0  0  0  0  0  0  0  0  0  0  0
    7.6598   10.5734   25.5392 C   0  0  0  0  0  0  0  0  0  0  0  0
    8.6645   11.0122   24.6419 C   0  0  0  0  0  0  0  0  0  0  0  0
    8.7247   12.3327   24.1515 C   0  0  0  0  0  0  0  0  0  0  0  0
    9.9047   12.7930   23.4461 N   0  0  0  0  0  0  0  0  0  0  0  0
   11.1664   12.1809   23.7170 C   0  0  0  0  0  0  0  0  0  0  0  0
   12.2172   12.9157   22.9225 C   0  0  0  0  0  0  0  0  0  0  0  0
   11.6324   14.2738   22.7420 C   0  0  0  0  0  0  0  0  0  0  0  0
   10.1604   13.9629   22.7129 C   0  0  0  0  0  0  0  0  0  0  0  0
    9.3917   14.7010   22.1303 O   0  0  0  0  0  0  0  0  0  0  0  0
    7.6426   13.1474   24.5285 C   0  0  0  0  0  0  0  0  0  0  0  0
    7.5114   14.5788   24.1645 C   0  0  0  0  0  0  0  0  0  0  0  0
    6.6168   12.6804   25.3920 C   0  0  0  0  0  0  0  0  0  0  0  0
    2.0523   10.7085   29.5679 C   0  0  0  0  0  0  0  0  0  0  0  0
    2.1619   10.2501   30.8343 F   0  0  0  0  0  0  0  0  0  0  0  0
    1.4829    9.7194   28.8345 F   0  0  0  0  0  0  0  0  0  0  0  0
    1.1685   11.7359   29.5797 F   0  0  0  0  0  0  0  0  0  0  0  0
    3.7987   13.4011   29.7967 O   0  0  0  0  0  0  0  0  0  0  0  0
  1  2  1  0
  2  3  2  0
  3  4  1  0
  4  5  2  0
  5  6  1  0
  6  7  1  6
  6  8  1  0
  8  9  1  0
  9 10  2  0
  9 11  1  0
 11 12  1  0
 12 13  2  0
 13 14  1  0
 14 15  2  0
 15 16  1  0
 16 17  1  0
 17 18  1  0
 18 19  1  0
 19 20  1  0
 20 21  2  0
 15 22  1  0
 22 23  1  0
 22 24  2  0
  6 25  1  0
 25 26  1  0
 25 27  1  0
 25 28  1  0
  5 29  1  0
 29  2  1  0
 24 12  1  0
 20 16  1  0
M  END
>  <energy_score>  (1628) 
-21.903232

>  <inchikey>  (1628) 
None

>  <smiles>  (1628) 
None

>  <ref_pdb>  (1628) 
A0310a

>  <alias>  (1628) 
None

>  <HIPPO Pose ID>  (1628) 
499272

>  <name>  (1628) 
P499272

>  <HIPPO Compound ID>  (1628) 
301845

>  <ref_mols>  (1628) 
A1445a,A0310a

>  <distance_score>  (1628) 
1.571509

>  <inspiration_score>  (1628) 
None

$$$$
P499273
     RDKit          3D

 29 31  0  0  0  0  0  0  0  0999 V2000
    2.7303   14.7914   31.3703 C   0  0  0  0  0  0  0  0  0  0  0  0
    2.6985   13.7536   30.3090 C   0  0  0  0  0  0  0  0  0  0  0  0
    2.1979   13.8955   29.0301 C   0  0  0  0  0  0  0  0  0  0  0  0
    2.3725   12.4334   28.1606 S   0  0  0  0  0  0  0  0  0  0  0  0
    3.1193   11.7130   29.5349 C   0  0  0  0  0  0  0  0  0  0  0  0
    3.5991   10.2678   29.5601 C   0  0  2  0  0  0  0  0  0  0  0  0
    4.3929   10.1085   30.7757 O   0  0  0  0  0  0  0  0  0  0  0  0
    4.4930    9.7969   28.3887 C   0  0  0  0  0  0  0  0  0  0  0  0
    5.5555   10.8065   27.9546 C   0  0  0  0  0  0  0  0  0  0  0  0
    5.6519   11.8425   28.5463 O   0  0  0  0  0  0  0  0  0  0  0  0
    6.2379   10.3285   26.7700 N   0  0  0  0  0  0  0  0  0  0  0  0
    7.1373   10.9635   25.9170 C   0  0  0  0  0  0  0  0  0  0  0  0
    7.9429   10.2508   25.0409 C   0  0  0  0  0  0  0  0  0  0  0  0
    8.8757   10.9199   24.2347 C   0  0  0  0  0  0  0  0  0  0  0  0
    8.9633   12.3194   24.2391 C   0  0  0  0  0  0  0  0  0  0  0  0
    9.9208   12.9818   23.4351 N   0  0  0  0  0  0  0  0  0  0  0  0
   11.2116   12.4354   23.1460 C   0  0  0  0  0  0  0  0  0  0  0  0
   11.9323   13.5662   22.4460 C   0  0  0  0  0  0  0  0  0  0  0  0
   10.8319   14.2503   21.6609 C   0  0  0  0  0  0  0  0  0  0  0  0
    9.5891   13.9232   22.4536 C   0  0  0  0  0  0  0  0  0  0  0  0
    8.4846   14.3748   22.2020 O   0  0  0  0  0  0  0  0  0  0  0  0
    8.1296   13.0413   25.1101 C   0  0  0  0  0  0  0  0  0  0  0  0
    8.1665   14.5323   25.2499 C   0  0  0  0  0  0  0  0  0  0  0  0
    7.2314   12.3513   25.9390 C   0  0  0  0  0  0  0  0  0  0  0  0
    2.3380    9.3775   29.6269 C   0  0  0  0  0  0  0  0  0  0  0  0
    1.5448    9.6759   30.6818 F   0  0  0  0  0  0  0  0  0  0  0  0
    2.6608    8.0664   29.7265 F   0  0  0  0  0  0  0  0  0  0  0  0
    1.5787    9.5027   28.5064 F   0  0  0  0  0  0  0  0  0  0  0  0
    3.2110   12.4982   30.5949 N   0  0  0  0  0  0  0  0  0  0  0  0
  1  2  1  0
  2  3  2  0
  3  4  1  0
  4  5  1  0
  5  6  1  0
  6  7  1  1
  6  8  1  0
  8  9  1  0
  9 10  2  0
  9 11  1  0
 11 12  1  0
 12 13  2  0
 13 14  1  0
 14 15  2  0
 15 16  1  0
 16 17  1  0
 17 18  1  0
 18 19  1  0
 19 20  1  0
 20 21  2  0
 15 22  1  0
 22 23  1  0
 22 24  2  0
  6 25  1  0
 25 26  1  0
 25 27  1  0
 25 28  1  0
  5 29  2  0
 29  2  1  0
 24 12  1  0
 20 16  1  0
M  END
>  <energy_score>  (1629) 
-53.909029

>  <inchikey>  (1629) 
None

>  <smiles>  (1629) 
None

>  <ref_pdb>  (1629) 
A0310a

>  <alias>  (1629) 
None

>  <HIPPO Pose ID>  (1629) 
499273

>  <name>  (1629) 
P499273

>  <HIPPO Compound ID>  (1629) 
301849

>  <ref_mols>  (1629) 
A1445a,A0310a

>  <distance_score>  (1629) 
1.748668

>  <inspiration_score>  (1629) 
None

$$$$
P499274
     RDKit          3D

 29 31  0  0  0  0  0  0  0  0999 V2000
    4.9683   15.5450   30.5912 C   0  0  0  0  0  0  0  0  0  0  0  0
    4.8371   14.0675   30.6687 C   0  0  0  0  0  0  0  0  0  0  0  0
    5.3436   13.2413   31.6521 C   0  0  0  0  0  0  0  0  0  0  0  0
    4.9414   11.6112   31.3207 S   0  0  0  0  0  0  0  0  0  0  0  0
    4.1206   12.1110   29.8949 C   0  0  0  0  0  0  0  0  0  0  0  0
    3.4232   11.1463   28.9620 C   0  0  1  0  0  0  0  0  0  0  0  0
    3.1837   11.8978   27.7270 O   0  0  0  0  0  0  0  0  0  0  0  0
    4.2532    9.9213   28.5770 C   0  0  0  0  0  0  0  0  0  0  0  0
    5.6866   10.1591   28.0828 C   0  0  0  0  0  0  0  0  0  0  0  0
    6.5881    9.6095   28.5871 O   0  0  0  0  0  0  0  0  0  0  0  0
    5.6437   11.0939   26.8398 N   0  0  0  0  0  0  0  0  0  0  0  0
    6.6487   11.4530   25.9414 C   0  0  0  0  0  0  0  0  0  0  0  0
    7.6729   10.6150   25.5423 C   0  0  0  0  0  0  0  0  0  0  0  0
    8.6774   11.0662   24.6530 C   0  0  0  0  0  0  0  0  0  0  0  0
    8.7154   12.3842   24.1515 C   0  0  0  0  0  0  0  0  0  0  0  0
    9.8977   12.8560   23.4654 N   0  0  0  0  0  0  0  0  0  0  0  0
   11.1564   12.2780   23.7961 C   0  0  0  0  0  0  0  0  0  0  0  0
   12.2195   13.2803   23.4349 C   0  0  0  0  0  0  0  0  0  0  0  0
   11.6189   13.9986   22.2684 C   0  0  0  0  0  0  0  0  0  0  0  0
   10.1416   13.9099   22.5692 C   0  0  0  0  0  0  0  0  0  0  0  0
    9.3641   14.6724   22.0301 O   0  0  0  0  0  0  0  0  0  0  0  0
    7.6152   13.1799   24.5018 C   0  0  0  0  0  0  0  0  0  0  0  0
    7.4782   14.6045   24.1211 C   0  0  0  0  0  0  0  0  0  0  0  0
    6.5933   12.7041   25.3649 C   0  0  0  0  0  0  0  0  0  0  0  0
    2.0643   10.7100   29.5709 C   0  0  0  0  0  0  0  0  0  0  0  0
    2.1683   10.2244   30.8268 F   0  0  0  0  0  0  0  0  0  0  0  0
    1.4816    9.7388   28.8224 F   0  0  0  0  0  0  0  0  0  0  0  0
    1.1890   11.7431   29.6080 F   0  0  0  0  0  0  0  0  0  0  0  0
    4.1400   13.4118   29.6674 N   0  0  0  0  0  0  0  0  0  0  0  0
  1  2  1  0
  2  3  2  0
  3  4  1  0
  4  5  1  0
  5  6  1  0
  6  7  1  6
  6  8  1  0
  8  9  1  0
  9 10  2  0
  9 11  1  0
 11 12  1  0
 12 13  2  0
 13 14  1  0
 14 15  2  0
 15 16  1  0
 16 17  1  0
 17 18  1  0
 18 19  1  0
 19 20  1  0
 20 21  2  0
 15 22  1  0
 22 23  1  0
 22 24  2  0
  6 25  1  0
 25 26  1  0
 25 27  1  0
 25 28  1  0
  5 29  2  0
 29  2  1  0
 24 12  1  0
 20 16  1  0
M  END
>  <energy_score>  (1630) 
-91.476202

>  <inchikey>  (1630) 
None

>  <smiles>  (1630) 
None

>  <ref_pdb>  (1630) 
A0310a

>  <alias>  (1630) 
None

>  <HIPPO Pose ID>  (1630) 
499274

>  <name>  (1630) 
P499274

>  <HIPPO Compound ID>  (1630) 
301849

>  <ref_mols>  (1630) 
A1445a,A0310a

>  <distance_score>  (1630) 
1.506926

>  <inspiration_score>  (1630) 
None

$$$$
P499275
     RDKit          3D

 29 31  0  0  0  0  0  0  0  0999 V2000
    4.1168   14.4232   31.8763 C   0  0  0  0  0  0  0  0  0  0  0  0
    4.6071   13.1344   31.3630 C   0  0  0  0  0  0  0  0  0  0  0  0
    5.8231   12.4964   31.3360 C   0  0  0  0  0  0  0  0  0  0  0  0
    5.7026   11.2819   30.7085 N   0  0  0  0  0  0  0  0  0  0  0  0
    4.4267   11.2326   30.3551 C   0  0  0  0  0  0  0  0  0  0  0  0
    3.7088   10.1246   29.6320 C   0  0  2  0  0  0  0  0  0  0  0  0
    3.8051    8.9663   30.5339 O   0  0  0  0  0  0  0  0  0  0  0  0
    4.4645    9.6853   28.3512 C   0  0  0  0  0  0  0  0  0  0  0  0
    4.9931   10.8355   27.4987 C   0  0  0  0  0  0  0  0  0  0  0  0
    4.6356   11.9403   27.6532 O   0  0  0  0  0  0  0  0  0  0  0  0
    6.0895   10.2473   26.5439 N   0  0  0  0  0  0  0  0  0  0  0  0
    6.9935   10.8933   25.6925 C   0  0  0  0  0  0  0  0  0  0  0  0
    7.9563   10.1710   25.0012 C   0  0  0  0  0  0  0  0  0  0  0  0
    8.9275   10.8192   24.2154 C   0  0  0  0  0  0  0  0  0  0  0  0
    8.9653   12.2165   24.0784 C   0  0  0  0  0  0  0  0  0  0  0  0
   10.0462   12.8324   23.3726 N   0  0  0  0  0  0  0  0  0  0  0  0
   11.2983   12.1838   23.2119 C   0  0  0  0  0  0  0  0  0  0  0  0
   12.2715   13.2821   22.8780 C   0  0  0  0  0  0  0  0  0  0  0  0
   11.4542   14.2002   22.0230 C   0  0  0  0  0  0  0  0  0  0  0  0
   10.0670   13.9722   22.5632 C   0  0  0  0  0  0  0  0  0  0  0  0
    9.1419   14.6877   22.2388 O   0  0  0  0  0  0  0  0  0  0  0  0
    7.9712   12.9367   24.7634 C   0  0  0  0  0  0  0  0  0  0  0  0
    7.9108   14.4272   24.7954 C   0  0  0  0  0  0  0  0  0  0  0  0
    6.9896   12.2695   25.5406 C   0  0  0  0  0  0  0  0  0  0  0  0
    2.2167   10.4467   29.4055 C   0  0  0  0  0  0  0  0  0  0  0  0
    1.5829   10.6455   30.5935 F   0  0  0  0  0  0  0  0  0  0  0  0
    1.5871    9.3907   28.8253 F   0  0  0  0  0  0  0  0  0  0  0  0
    1.9675   11.5116   28.6216 F   0  0  0  0  0  0  0  0  0  0  0  0
    3.6983   12.3223   30.7498 O   0  0  0  0  0  0  0  0  0  0  0  0
  1  2  1  0
  2  3  2  0
  3  4  1  0
  4  5  2  0
  5  6  1  0
  6  7  1  1
  6  8  1  0
  8  9  1  0
  9 10  2  0
  9 11  1  0
 11 12  1  0
 12 13  2  0
 13 14  1  0
 14 15  2  0
 15 16  1  0
 16 17  1  0
 17 18  1  0
 18 19  1  0
 19 20  1  0
 20 21  2  0
 15 22  1  0
 22 23  1  0
 22 24  2  0
  6 25  1  0
 25 26  1  0
 25 27  1  0
 25 28  1  0
  5 29  1  0
 29  2  1  0
 24 12  1  0
 20 16  1  0
M  END
>  <energy_score>  (1631) 
-59.676413

>  <inchikey>  (1631) 
None

>  <smiles>  (1631) 
None

>  <ref_pdb>  (1631) 
A0310a

>  <alias>  (1631) 
None

>  <HIPPO Pose ID>  (1631) 
499275

>  <name>  (1631) 
P499275

>  <HIPPO Compound ID>  (1631) 
301850

>  <ref_mols>  (1631) 
A1445a,A0310a

>  <distance_score>  (1631) 
1.570152

>  <inspiration_score>  (1631) 
None

$$$$
P499276
     RDKit          3D

 29 31  0  0  0  0  0  0  0  0999 V2000
    4.2087   15.4436   31.0934 C   0  0  0  0  0  0  0  0  0  0  0  0
    4.4358   14.0083   30.8593 C   0  0  0  0  0  0  0  0  0  0  0  0
    5.2833   13.0613   31.3817 C   0  0  0  0  0  0  0  0  0  0  0  0
    5.0581   11.8494   30.7798 N   0  0  0  0  0  0  0  0  0  0  0  0
    4.0879   12.0929   29.9223 C   0  0  0  0  0  0  0  0  0  0  0  0
    3.4083   11.1714   28.9632 C   0  0  1  0  0  0  0  0  0  0  0  0
    3.1764   11.9251   27.7329 O   0  0  0  0  0  0  0  0  0  0  0  0
    4.2544    9.9474   28.6144 C   0  0  0  0  0  0  0  0  0  0  0  0
    5.6840   10.1699   28.0985 C   0  0  0  0  0  0  0  0  0  0  0  0
    6.5856    9.6012   28.5814 O   0  0  0  0  0  0  0  0  0  0  0  0
    5.6343   11.1203   26.8662 N   0  0  0  0  0  0  0  0  0  0  0  0
    6.6297   11.4749   25.9550 C   0  0  0  0  0  0  0  0  0  0  0  0
    7.6530   10.6350   25.5580 C   0  0  0  0  0  0  0  0  0  0  0  0
    8.6523   11.0802   24.6608 C   0  0  0  0  0  0  0  0  0  0  0  0
    8.6856   12.3937   24.1461 C   0  0  0  0  0  0  0  0  0  0  0  0
    9.8684   12.8612   23.4578 N   0  0  0  0  0  0  0  0  0  0  0  0
   11.1231   12.2679   23.7810 C   0  0  0  0  0  0  0  0  0  0  0  0
   12.1945   13.2652   23.4302 C   0  0  0  0  0  0  0  0  0  0  0  0
   11.6010   13.9947   22.2673 C   0  0  0  0  0  0  0  0  0  0  0  0
   10.1224   13.9160   22.5655 C   0  0  0  0  0  0  0  0  0  0  0  0
    9.3545   14.6896   22.0284 O   0  0  0  0  0  0  0  0  0  0  0  0
    7.5804   13.1870   24.4850 C   0  0  0  0  0  0  0  0  0  0  0  0
    7.4255   14.6011   24.0726 C   0  0  0  0  0  0  0  0  0  0  0  0
    6.5673   12.7191   25.3639 C   0  0  0  0  0  0  0  0  0  0  0  0
    2.0608   10.7252   29.5792 C   0  0  0  0  0  0  0  0  0  0  0  0
    2.1572   10.2872   30.8509 F   0  0  0  0  0  0  0  0  0  0  0  0
    1.4937    9.7280   28.8542 F   0  0  0  0  0  0  0  0  0  0  0  0
    1.1726   11.7518   29.5678 F   0  0  0  0  0  0  0  0  0  0  0  0
    3.6602   13.3975   29.9150 O   0  0  0  0  0  0  0  0  0  0  0  0
  1  2  1  0
  2  3  2  0
  3  4  1  0
  4  5  2  0
  5  6  1  0
  6  7  1  6
  6  8  1  0
  8  9  1  0
  9 10  2  0
  9 11  1  0
 11 12  1  0
 12 13  2  0
 13 14  1  0
 14 15  2  0
 15 16  1  0
 16 17  1  0
 17 18  1  0
 18 19  1  0
 19 20  1  0
 20 21  2  0
 15 22  1  0
 22 23  1  0
 22 24  2  0
  6 25  1  0
 25 26  1  0
 25 27  1  0
 25 28  1  0
  5 29  1  0
 29  2  1  0
 24 12  1  0
 20 16  1  0
M  END
>  <energy_score>  (1632) 
-40.8392

>  <inchikey>  (1632) 
None

>  <smiles>  (1632) 
None

>  <ref_pdb>  (1632) 
A0310a

>  <alias>  (1632) 
None

>  <HIPPO Pose ID>  (1632) 
499276

>  <name>  (1632) 
P499276

>  <HIPPO Compound ID>  (1632) 
301850

>  <ref_mols>  (1632) 
A1445a,A0310a

>  <distance_score>  (1632) 
1.489889

>  <inspiration_score>  (1632) 
None

$$$$
P499277
     RDKit          3D

 29 32  0  0  0  0  0  0  0  0999 V2000
    8.5260   10.7096   24.4379 C   0  0  0  0  0  0  0  0  0  0  0  0
    8.0200   11.9456   25.1101 C   0  0  0  0  0  0  0  0  0  0  0  0
    6.9055   11.8283   25.9835 C   0  0  0  0  0  0  0  0  0  0  0  0
    6.4777   12.9370   26.7075 C   0  0  0  0  0  0  0  0  0  0  0  0
    5.5267   12.9372   27.7258 N   0  0  0  0  0  0  0  0  0  0  0  0
    4.6310   11.7816   28.2769 C   0  0  0  0  0  0  0  0  0  0  0  0
    4.5039   10.6813   27.9071 O   0  0  0  0  0  0  0  0  0  0  0  0
    3.9791   12.3757   29.5477 C   0  0  2  0  0  0  0  0  0  0  0  0
    5.1149   12.5968   30.6124 C   0  0  1  0  0  0  0  0  0  0  0  0
    4.5110   13.1912   31.8992 C   0  0  0  0  0  0  0  0  0  0  0  0
    3.5834   12.1650   32.5596 C   0  0  0  0  0  0  0  0  0  0  0  0
    3.3161   11.0061   31.5774 C   0  0  2  0  0  0  0  0  0  0  0  0
    4.6372   10.2474   31.3626 C   0  0  0  0  0  0  0  0  0  0  0  0
    5.7435   11.2333   30.9712 C   0  0  0  0  0  0  0  0  0  0  0  0
    2.8186   11.6215   30.2467 C   0  0  2  0  0  0  0  0  0  0  0  0
    1.9274   10.6719   29.4722 C   0  0  0  0  0  0  0  0  0  0  0  0
    0.8510   10.3843   30.2529 F   0  0  0  0  0  0  0  0  0  0  0  0
    2.4851    9.4992   29.1501 F   0  0  0  0  0  0  0  0  0  0  0  0
    1.4500   11.2565   28.3524 F   0  0  0  0  0  0  0  0  0  0  0  0
    7.1247   14.1583   26.5265 C   0  0  0  0  0  0  0  0  0  0  0  0
    8.2334   14.2786   25.6983 C   0  0  0  0  0  0  0  0  0  0  0  0
    8.7080   13.1832   24.9850 C   0  0  0  0  0  0  0  0  0  0  0  0
    9.8710   13.3195   24.1725 N   0  0  0  0  0  0  0  0  0  0  0  0
   10.9880   14.0804   24.4552 C   0  0  0  0  0  0  0  0  0  0  0  0
   11.2617   14.6840   25.4854 O   0  0  0  0  0  0  0  0  0  0  0  0
   11.8625   14.1641   23.2386 C   0  0  0  0  0  0  0  0  0  0  0  0
   11.1080   13.3525   22.2241 C   0  0  0  0  0  0  0  0  0  0  0  0
    9.7423   13.2348   22.8152 C   0  0  0  0  0  0  0  0  0  0  0  0
    8.6941   13.1703   22.1891 O   0  0  0  0  0  0  0  0  0  0  0  0
  1  2  1  0
  2  3  2  0
  3  4  1  0
  4  5  1  0
  5  6  1  0
  6  7  2  0
  8  6  1  6
  8  9  1  0
  9 10  1  1
 10 11  1  0
 12 11  1  1
 12 13  1  0
 13 14  1  0
 12 15  1  0
 15 16  1  6
 16 17  1  0
 16 18  1  0
 16 19  1  0
  4 20  2  0
 20 21  1  0
 21 22  2  0
 22 23  1  0
 23 24  1  0
 24 25  2  0
 24 26  1  0
 26 27  1  0
 27 28  1  0
 28 29  2  0
 22  2  1  0
 28 23  1  0
 15  8  1  0
 14  9  1  0
M  END
>  <energy_score>  (1633) 
-46.569135

>  <inchikey>  (1633) 
None

>  <smiles>  (1633) 
None

>  <ref_pdb>  (1633) 
A0310a

>  <alias>  (1633) 
None

>  <HIPPO Pose ID>  (1633) 
499277

>  <name>  (1633) 
P499277

>  <HIPPO Compound ID>  (1633) 
301856

>  <ref_mols>  (1633) 
A1445a,A0310a

>  <distance_score>  (1633) 
1.994069

>  <inspiration_score>  (1633) 
None

$$$$
P499278
     RDKit          3D

 29 32  0  0  0  0  0  0  0  0999 V2000
    8.9666    9.9492   24.1579 C   0  0  0  0  0  0  0  0  0  0  0  0
    8.3215   11.1414   24.7869 C   0  0  0  0  0  0  0  0  0  0  0  0
    7.1897   10.7869   25.5450 C   0  0  0  0  0  0  0  0  0  0  0  0
    6.5048   11.7083   26.3130 C   0  0  0  0  0  0  0  0  0  0  0  0
    5.5623   11.1917   27.1854 N   0  0  0  0  0  0  0  0  0  0  0  0
    4.7783   11.8717   28.3415 C   0  0  0  0  0  0  0  0  0  0  0  0
    4.7515   12.9876   28.6832 O   0  0  0  0  0  0  0  0  0  0  0  0
    4.0667   10.7223   29.0822 C   0  0  1  0  0  0  0  0  0  0  0  0
    5.1248    9.8385   29.8182 C   0  0  1  0  0  0  0  0  0  0  0  0
    5.8792   10.6821   30.8658 C   0  0  0  0  0  0  0  0  0  0  0  0
    4.8771   11.3629   31.8052 C   0  0  0  0  0  0  0  0  0  0  0  0
    3.4587   10.8233   31.5367 C   0  0  2  0  0  0  0  0  0  0  0  0
    3.5103    9.2895   31.6670 C   0  0  0  0  0  0  0  0  0  0  0  0
    4.3940    8.7039   30.5598 C   0  0  0  0  0  0  0  0  0  0  0  0
    3.0325   11.2451   30.1113 C   0  0  2  0  0  0  0  0  0  0  0  0
    1.6312   10.7751   29.7536 C   0  0  0  0  0  0  0  0  0  0  0  0
    0.7579   11.0827   30.7333 F   0  0  0  0  0  0  0  0  0  0  0  0
    1.5680    9.4416   29.5517 F   0  0  0  0  0  0  0  0  0  0  0  0
    1.2057   11.3613   28.6124 F   0  0  0  0  0  0  0  0  0  0  0  0
    6.8711   13.0370   26.2528 C   0  0  0  0  0  0  0  0  0  0  0  0
    7.9766   13.4211   25.4739 C   0  0  0  0  0  0  0  0  0  0  0  0
    8.7579   12.4923   24.7467 C   0  0  0  0  0  0  0  0  0  0  0  0
    9.9436   12.9578   24.0645 N   0  0  0  0  0  0  0  0  0  0  0  0
   10.4879   12.3714   22.9564 C   0  0  0  0  0  0  0  0  0  0  0  0
   10.1616   11.3222   22.4368 O   0  0  0  0  0  0  0  0  0  0  0  0
   11.5455   13.2622   22.3857 C   0  0  0  0  0  0  0  0  0  0  0  0
   11.9230   14.1310   23.5401 C   0  0  0  0  0  0  0  0  0  0  0  0
   10.7210   14.0394   24.4301 C   0  0  0  0  0  0  0  0  0  0  0  0
   10.5833   14.8126   25.3703 O   0  0  0  0  0  0  0  0  0  0  0  0
  1  2  1  0
  2  3  2  0
  3  4  1  0
  4  5  1  0
  5  6  1  0
  6  7  2  0
  8  6  1  1
  8  9  1  0
  9 10  1  1
 10 11  1  0
 12 11  1  6
 12 13  1  0
 13 14  1  0
 12 15  1  0
 15 16  1  6
 16 17  1  0
 16 18  1  0
 16 19  1  0
  4 20  2  0
 20 21  1  0
 21 22  2  0
 22 23  1  0
 23 24  1  0
 24 25  2  0
 24 26  1  0
 26 27  1  0
 27 28  1  0
 28 29  2  0
 22  2  1  0
 28 23  1  0
 15  8  1  0
 14  9  1  0
M  END
>  <energy_score>  (1634) 
-31.395428

>  <inchikey>  (1634) 
None

>  <smiles>  (1634) 
None

>  <ref_pdb>  (1634) 
A0310a

>  <alias>  (1634) 
None

>  <HIPPO Pose ID>  (1634) 
499278

>  <name>  (1634) 
P499278

>  <HIPPO Compound ID>  (1634) 
301856

>  <ref_mols>  (1634) 
A1445a,A0310a

>  <distance_score>  (1634) 
1.605223

>  <inspiration_score>  (1634) 
None

$$$$
P499279
     RDKit          3D

 29 32  0  0  0  0  0  0  0  0999 V2000
    8.9209   10.6144   24.2026 C   0  0  0  0  0  0  0  0  0  0  0  0
    8.3082   11.7605   24.9463 C   0  0  0  0  0  0  0  0  0  0  0  0
    7.0903   11.4978   25.5960 C   0  0  0  0  0  0  0  0  0  0  0  0
    6.5615   12.4321   26.4717 C   0  0  0  0  0  0  0  0  0  0  0  0
    5.3163   12.2273   27.0358 N   0  0  0  0  0  0  0  0  0  0  0  0
    4.7432   12.6798   28.4094 C   0  0  0  0  0  0  0  0  0  0  0  0
    5.2616   13.2268   29.3030 O   0  0  0  0  0  0  0  0  0  0  0  0
    3.2293   12.3704   28.3891 C   0  0  2  0  0  0  0  0  0  0  0  0
    2.5191   13.6208   27.7723 C   0  0  1  0  0  0  0  0  0  0  0  0
    0.9933   13.4132   27.8113 C   0  0  0  0  0  0  0  0  0  0  0  0
    0.5130   13.3857   29.2702 C   0  0  0  0  0  0  0  0  0  0  0  0
    1.7289   13.2641   30.2155 C   0  0  2  0  0  0  0  0  0  0  0  0
    2.5090   14.5899   30.0993 C   0  0  0  0  0  0  0  0  0  0  0  0
    2.8148   14.8804   28.6216 C   0  0  0  0  0  0  0  0  0  0  0  0
    2.6528   12.0860   29.7999 C   0  0  1  0  0  0  0  0  0  0  0  0
    1.9101   10.7505   29.8330 C   0  0  0  0  0  0  0  0  0  0  0  0
    1.3711   10.5216   31.0483 F   0  0  0  0  0  0  0  0  0  0  0  0
    2.7284    9.7159   29.5504 F   0  0  0  0  0  0  0  0  0  0  0  0
    0.9175   10.7030   28.9192 F   0  0  0  0  0  0  0  0  0  0  0  0
    7.2317   13.6259   26.7042 C   0  0  0  0  0  0  0  0  0  0  0  0
    8.3844   13.9448   25.9813 C   0  0  0  0  0  0  0  0  0  0  0  0
    8.9312   13.0371   25.0683 C   0  0  0  0  0  0  0  0  0  0  0  0
   10.1030   13.3565   24.3118 N   0  0  0  0  0  0  0  0  0  0  0  0
   11.1106   14.2385   24.6130 C   0  0  0  0  0  0  0  0  0  0  0  0
   11.2394   14.9400   25.6079 O   0  0  0  0  0  0  0  0  0  0  0  0
   12.0914   14.2845   23.4748 C   0  0  0  0  0  0  0  0  0  0  0  0
   11.4212   13.4950   22.3824 C   0  0  0  0  0  0  0  0  0  0  0  0
   10.0996   13.1276   22.9681 C   0  0  0  0  0  0  0  0  0  0  0  0
    9.1209   12.7753   22.3306 O   0  0  0  0  0  0  0  0  0  0  0  0
  1  2  1  0
  2  3  2  0
  3  4  1  0
  4  5  1  0
  5  6  1  0
  6  7  2  0
  8  6  1  1
  8  9  1  0
  9 10  1  1
 10 11  1  0
 12 11  1  6
 12 13  1  0
 13 14  1  0
 12 15  1  0
 15 16  1  6
 16 17  1  0
 16 18  1  0
 16 19  1  0
  4 20  2  0
 20 21  1  0
 21 22  2  0
 22 23  1  0
 23 24  1  0
 24 25  2  0
 24 26  1  0
 26 27  1  0
 27 28  1  0
 28 29  2  0
 22  2  1  0
 28 23  1  0
 15  8  1  0
 14  9  1  0
M  END
>  <energy_score>  (1635) 
-25.136545

>  <inchikey>  (1635) 
None

>  <smiles>  (1635) 
None

>  <ref_pdb>  (1635) 
A0310a

>  <alias>  (1635) 
None

>  <HIPPO Pose ID>  (1635) 
499279

>  <name>  (1635) 
P499279

>  <HIPPO Compound ID>  (1635) 
301856

>  <ref_mols>  (1635) 
A1445a,A0310a

>  <distance_score>  (1635) 
1.972213

>  <inspiration_score>  (1635) 
None

$$$$
P499280
     RDKit          3D

 29 32  0  0  0  0  0  0  0  0999 V2000
    9.0350    9.9000   24.1011 C   0  0  0  0  0  0  0  0  0  0  0  0
    8.3889   11.0739   24.7664 C   0  0  0  0  0  0  0  0  0  0  0  0
    7.3007   10.6713   25.5635 C   0  0  0  0  0  0  0  0  0  0  0  0
    6.5815   11.5492   26.3488 C   0  0  0  0  0  0  0  0  0  0  0  0
    5.8092   10.9432   27.3337 N   0  0  0  0  0  0  0  0  0  0  0  0
    4.7107   11.5366   28.2653 C   0  0  0  0  0  0  0  0  0  0  0  0
    4.2371   12.6029   28.2914 O   0  0  0  0  0  0  0  0  0  0  0  0
    4.4192   10.4028   29.2840 C   0  0  1  0  0  0  0  0  0  0  0  0
    5.6396   10.4062   30.2849 C   0  0  1  0  0  0  0  0  0  0  0  0
    5.7644   11.8110   30.9253 C   0  0  0  0  0  0  0  0  0  0  0  0
    4.3907   12.2503   31.4572 C   0  0  0  0  0  0  0  0  0  0  0  0
    3.4571   11.0324   31.5458 C   0  0  2  0  0  0  0  0  0  0  0  0
    4.2232    9.9247   32.3129 C   0  0  0  0  0  0  0  0  0  0  0  0
    5.3837    9.4131   31.4392 C   0  0  0  0  0  0  0  0  0  0  0  0
    3.1396   10.4418   30.1478 C   0  0  1  0  0  0  0  0  0  0  0  0
    1.8414   10.9139   29.5390 C   0  0  0  0  0  0  0  0  0  0  0  0
    0.8410   10.6985   30.4301 F   0  0  0  0  0  0  0  0  0  0  0  0
    1.5513   10.1728   28.4425 F   0  0  0  0  0  0  0  0  0  0  0  0
    1.8015   12.2043   29.2002 F   0  0  0  0  0  0  0  0  0  0  0  0
    6.8537   12.8996   26.2415 C   0  0  0  0  0  0  0  0  0  0  0  0
    7.9487   13.3347   25.4492 C   0  0  0  0  0  0  0  0  0  0  0  0
    8.7768   12.4405   24.7229 C   0  0  0  0  0  0  0  0  0  0  0  0
    9.9585   12.9353   24.0385 N   0  0  0  0  0  0  0  0  0  0  0  0
   10.5855   12.2907   23.0083 C   0  0  0  0  0  0  0  0  0  0  0  0
   10.1933   11.3100   22.4084 O   0  0  0  0  0  0  0  0  0  0  0  0
   11.9028   12.9451   22.7277 C   0  0  0  0  0  0  0  0  0  0  0  0
   11.6940   14.3192   23.2561 C   0  0  0  0  0  0  0  0  0  0  0  0
   10.7068   14.0541   24.3503 C   0  0  0  0  0  0  0  0  0  0  0  0
   10.6943   14.7662   25.3448 O   0  0  0  0  0  0  0  0  0  0  0  0
  1  2  1  0
  2  3  2  0
  3  4  1  0
  4  5  1  0
  5  6  1  0
  6  7  2  0
  8  6  1  6
  8  9  1  0
  9 10  1  1
 10 11  1  0
 12 11  1  6
 12 13  1  0
 13 14  1  0
 12 15  1  0
 15 16  1  6
 16 17  1  0
 16 18  1  0
 16 19  1  0
  4 20  2  0
 20 21  1  0
 21 22  2  0
 22 23  1  0
 23 24  1  0
 24 25  2  0
 24 26  1  0
 26 27  1  0
 27 28  1  0
 28 29  2  0
 22  2  1  0
 28 23  1  0
 15  8  1  0
 14  9  1  0
M  END
>  <energy_score>  (1636) 
-12.82954

>  <inchikey>  (1636) 
None

>  <smiles>  (1636) 
None

>  <ref_pdb>  (1636) 
A0310a

>  <alias>  (1636) 
None

>  <HIPPO Pose ID>  (1636) 
499280

>  <name>  (1636) 
P499280

>  <HIPPO Compound ID>  (1636) 
301856

>  <ref_mols>  (1636) 
A1445a,A0310a

>  <distance_score>  (1636) 
1.743928

>  <inspiration_score>  (1636) 
None

$$$$
P499281
     RDKit          3D

 30 32  0  0  0  0  0  0  0  0999 V2000
    2.7294   14.6819   26.5474 C   0  0  0  0  0  0  0  0  0  0  0  0
    3.0185   13.9905   27.8143 C   0  0  0  0  0  0  0  0  0  0  0  0
    3.1859   14.3842   29.1215 C   0  0  0  0  0  0  0  0  0  0  0  0
    3.4579   13.2948   29.9123 N   0  0  0  0  0  0  0  0  0  0  0  0
    3.4630   12.2875   29.0584 C   0  0  0  0  0  0  0  0  0  0  0  0
    3.7120   10.8310   29.3425 C   0  0  2  0  0  0  0  0  0  0  0  0
    4.4089   10.7400   30.6195 O   0  0  0  0  0  0  0  0  0  0  0  0
    4.6166   10.1204   28.2816 C   0  0  0  0  0  0  0  0  0  0  0  0
    5.7990   11.0003   27.8214 C   0  0  0  0  0  0  0  0  0  0  0  0
    6.0440   12.0006   28.3807 O   0  0  0  0  0  0  0  0  0  0  0  0
    6.4340   10.3780   26.5293 N   0  0  0  0  0  0  0  0  0  0  0  0
    7.3955   10.8939   25.6504 C   0  0  0  0  0  0  0  0  0  0  0  0
    8.1676   10.1407   24.7754 C   0  0  0  0  0  0  0  0  0  0  0  0
    9.1591   10.7609   23.9640 C   0  0  0  0  0  0  0  0  0  0  0  0
    9.3653   12.1522   23.9743 C   0  0  0  0  0  0  0  0  0  0  0  0
   10.3589   12.7551   23.1269 N   0  0  0  0  0  0  0  0  0  0  0  0
   10.1846   13.8931   22.3877 C   0  0  0  0  0  0  0  0  0  0  0  0
    9.1628   14.5389   22.2315 O   0  0  0  0  0  0  0  0  0  0  0  0
   11.4616   14.3576   21.7765 C   0  0  0  0  0  0  0  0  0  0  0  0
   12.4674   13.4252   22.3518 C   0  0  0  0  0  0  0  0  0  0  0  0
   11.6984   12.6105   23.3340 C   0  0  0  0  0  0  0  0  0  0  0  0
   12.2877   12.0374   24.2372 O   0  0  0  0  0  0  0  0  0  0  0  0
    8.5679   12.8947   24.8609 C   0  0  0  0  0  0  0  0  0  0  0  0
    8.7295   14.3574   25.0996 C   0  0  0  0  0  0  0  0  0  0  0  0
    7.5930   12.2663   25.6618 C   0  0  0  0  0  0  0  0  0  0  0  0
    2.2927   10.2168   29.4492 C   0  0  0  0  0  0  0  0  0  0  0  0
    1.6436   10.6361   30.5655 F   0  0  0  0  0  0  0  0  0  0  0  0
    2.3218    8.8666   29.4958 F   0  0  0  0  0  0  0  0  0  0  0  0
    1.5077   10.5476   28.3899 F   0  0  0  0  0  0  0  0  0  0  0  0
    3.1795   12.6349   27.7629 O   0  0  0  0  0  0  0  0  0  0  0  0
  1  2  1  0
  2  3  2  0
  3  4  1  0
  4  5  2  0
  5  6  1  0
  6  7  1  1
  6  8  1  0
  8  9  1  0
  9 10  2  0
  9 11  1  0
 11 12  1  0
 12 13  2  0
 13 14  1  0
 14 15  2  0
 15 16  1  0
 16 17  1  0
 17 18  2  0
 17 19  1  0
 19 20  1  0
 20 21  1  0
 21 22  2  0
 15 23  1  0
 23 24  1  0
 23 25  2  0
  6 26  1  0
 26 27  1  0
 26 28  1  0
 26 29  1  0
  5 30  1  0
 30  2  1  0
 25 12  1  0
 21 16  1  0
M  END
>  <energy_score>  (1637) 
-19.260895

>  <inchikey>  (1637) 
None

>  <smiles>  (1637) 
None

>  <ref_pdb>  (1637) 
A0310a

>  <alias>  (1637) 
None

>  <HIPPO Pose ID>  (1637) 
499281

>  <name>  (1637) 
P499281

>  <HIPPO Compound ID>  (1637) 
301858

>  <ref_mols>  (1637) 
A1445a,A0310a

>  <distance_score>  (1637) 
1.60953

>  <inspiration_score>  (1637) 
None

$$$$
P499282
     RDKit          3D

 30 32  0  0  0  0  0  0  0  0999 V2000
    4.3004   13.7097   33.0329 C   0  0  0  0  0  0  0  0  0  0  0  0
    3.6137   13.5572   31.7410 C   0  0  0  0  0  0  0  0  0  0  0  0
    2.8862   14.3911   30.9248 C   0  0  0  0  0  0  0  0  0  0  0  0
    2.4651   13.7090   29.8119 N   0  0  0  0  0  0  0  0  0  0  0  0
    2.9653   12.4983   29.9819 C   0  0  0  0  0  0  0  0  0  0  0  0
    2.8115   11.3187   29.0708 C   0  0  1  0  0  0  0  0  0  0  0  0
    2.3238   11.8193   27.7836 O   0  0  0  0  0  0  0  0  0  0  0  0
    4.1125   10.5414   28.7967 C   0  0  0  0  0  0  0  0  0  0  0  0
    5.1805   11.4668   28.2064 C   0  0  0  0  0  0  0  0  0  0  0  0
    5.3507   12.5402   28.6392 O   0  0  0  0  0  0  0  0  0  0  0  0
    5.8674   10.7399   27.0094 N   0  0  0  0  0  0  0  0  0  0  0  0
    6.7950   11.2041   26.0850 C   0  0  0  0  0  0  0  0  0  0  0  0
    7.4880   10.3497   25.2561 C   0  0  0  0  0  0  0  0  0  0  0  0
    8.4668   10.8475   24.3811 C   0  0  0  0  0  0  0  0  0  0  0  0
    8.7777   12.2179   24.2835 C   0  0  0  0  0  0  0  0  0  0  0  0
    9.9160   12.6799   23.5462 N   0  0  0  0  0  0  0  0  0  0  0  0
   10.9349   11.8858   23.1542 C   0  0  0  0  0  0  0  0  0  0  0  0
   10.9283   10.6686   23.1437 O   0  0  0  0  0  0  0  0  0  0  0  0
   12.1205   12.7394   22.7873 C   0  0  0  0  0  0  0  0  0  0  0  0
   11.5867   14.1301   22.7628 C   0  0  0  0  0  0  0  0  0  0  0  0
   10.1327   13.8843   22.9547 C   0  0  0  0  0  0  0  0  0  0  0  0
    9.3075   14.6696   22.5319 O   0  0  0  0  0  0  0  0  0  0  0  0
    8.0286   13.0764   25.1078 C   0  0  0  0  0  0  0  0  0  0  0  0
    8.2329   14.5520   25.1941 C   0  0  0  0  0  0  0  0  0  0  0  0
    7.0463   12.5611   25.9813 C   0  0  0  0  0  0  0  0  0  0  0  0
    1.7377   10.4191   29.6979 C   0  0  0  0  0  0  0  0  0  0  0  0
    2.0277   10.0543   30.9662 F   0  0  0  0  0  0  0  0  0  0  0  0
    1.5765    9.2776   28.9858 F   0  0  0  0  0  0  0  0  0  0  0  0
    0.5348   11.0414   29.7170 F   0  0  0  0  0  0  0  0  0  0  0  0
    3.6661   12.3279   31.1451 O   0  0  0  0  0  0  0  0  0  0  0  0
  1  2  1  0
  2  3  2  0
  3  4  1  0
  4  5  2  0
  5  6  1  0
  6  7  1  6
  6  8  1  0
  8  9  1  0
  9 10  2  0
  9 11  1  0
 11 12  1  0
 12 13  2  0
 13 14  1  0
 14 15  2  0
 15 16  1  0
 16 17  1  0
 17 18  2  0
 17 19  1  0
 19 20  1  0
 20 21  1  0
 21 22  2  0
 15 23  1  0
 23 24  1  0
 23 25  2  0
  6 26  1  0
 26 27  1  0
 26 28  1  0
 26 29  1  0
  5 30  1  0
 30  2  1  0
 25 12  1  0
 21 16  1  0
M  END
>  <energy_score>  (1638) 
-47.015585

>  <inchikey>  (1638) 
None

>  <smiles>  (1638) 
None

>  <ref_pdb>  (1638) 
A0310a

>  <alias>  (1638) 
None

>  <HIPPO Pose ID>  (1638) 
499282

>  <name>  (1638) 
P499282

>  <HIPPO Compound ID>  (1638) 
301858

>  <ref_mols>  (1638) 
A1445a,A0310a

>  <distance_score>  (1638) 
1.505606

>  <inspiration_score>  (1638) 
None

$$$$
P499283
     RDKit          3D

 30 32  0  0  0  0  0  0  0  0999 V2000
    3.2048   14.6742   26.4167 C   0  0  0  0  0  0  0  0  0  0  0  0
    3.4417   14.0424   27.7420 C   0  0  0  0  0  0  0  0  0  0  0  0
    3.6959   14.7069   28.9247 C   0  0  0  0  0  0  0  0  0  0  0  0
    3.8631   13.5905   30.2084 S   0  0  0  0  0  0  0  0  0  0  0  0
    3.5862   12.2910   29.1109 C   0  0  0  0  0  0  0  0  0  0  0  0
    3.4935   10.8523   29.5798 C   0  0  2  0  0  0  0  0  0  0  0  0
    4.2897   10.6891   30.7765 O   0  0  0  0  0  0  0  0  0  0  0  0
    4.0021    9.8626   28.5321 C   0  0  0  0  0  0  0  0  0  0  0  0
    5.4498    9.9980   28.0551 C   0  0  0  0  0  0  0  0  0  0  0  0
    6.2894    9.3034   28.4796 O   0  0  0  0  0  0  0  0  0  0  0  0
    5.5025   11.0702   26.9278 N   0  0  0  0  0  0  0  0  0  0  0  0
    6.5337   11.4226   26.0653 C   0  0  0  0  0  0  0  0  0  0  0  0
    7.4774   10.5228   25.6197 C   0  0  0  0  0  0  0  0  0  0  0  0
    8.4992   10.9175   24.7339 C   0  0  0  0  0  0  0  0  0  0  0  0
    8.6562   12.2455   24.2891 C   0  0  0  0  0  0  0  0  0  0  0  0
    9.8664   12.6606   23.6169 N   0  0  0  0  0  0  0  0  0  0  0  0
   10.2090   13.8591   23.0580 C   0  0  0  0  0  0  0  0  0  0  0  0
    9.5335   14.6590   22.4403 O   0  0  0  0  0  0  0  0  0  0  0  0
   11.6762   14.0583   23.1778 C   0  0  0  0  0  0  0  0  0  0  0  0
   12.1238   12.6523   22.9965 C   0  0  0  0  0  0  0  0  0  0  0  0
   10.8930   11.8284   23.2927 C   0  0  0  0  0  0  0  0  0  0  0  0
   10.8710   10.6102   23.2243 O   0  0  0  0  0  0  0  0  0  0  0  0
    7.6437   13.1301   24.7175 C   0  0  0  0  0  0  0  0  0  0  0  0
    7.5955   14.5791   24.3877 C   0  0  0  0  0  0  0  0  0  0  0  0
    6.5860   12.7018   25.5610 C   0  0  0  0  0  0  0  0  0  0  0  0
    1.9921   10.5476   29.8380 C   0  0  0  0  0  0  0  0  0  0  0  0
    1.5694   11.1541   30.9749 F   0  0  0  0  0  0  0  0  0  0  0  0
    1.7610    9.2238   29.9913 F   0  0  0  0  0  0  0  0  0  0  0  0
    1.1934   10.9670   28.8286 F   0  0  0  0  0  0  0  0  0  0  0  0
    3.4065   12.6583   27.8522 N   0  0  0  0  0  0  0  0  0  0  0  0
  1  2  1  0
  2  3  2  0
  3  4  1  0
  4  5  1  0
  5  6  1  0
  6  7  1  1
  6  8  1  0
  8  9  1  0
  9 10  2  0
  9 11  1  0
 11 12  1  0
 12 13  2  0
 13 14  1  0
 14 15  2  0
 15 16  1  0
 16 17  1  0
 17 18  2  0
 17 19  1  0
 19 20  1  0
 20 21  1  0
 21 22  2  0
 15 23  1  0
 23 24  1  0
 23 25  2  0
  6 26  1  0
 26 27  1  0
 26 28  1  0
 26 29  1  0
  5 30  2  0
 30  2  1  0
 25 12  1  0
 21 16  1  0
M  END
>  <energy_score>  (1639) 
-76.230145

>  <inchikey>  (1639) 
None

>  <smiles>  (1639) 
None

>  <ref_pdb>  (1639) 
A0310a

>  <alias>  (1639) 
None

>  <HIPPO Pose ID>  (1639) 
499283

>  <name>  (1639) 
P499283

>  <HIPPO Compound ID>  (1639) 
301859

>  <ref_mols>  (1639) 
A1445a,A0310a

>  <distance_score>  (1639) 
1.429425

>  <inspiration_score>  (1639) 
None

$$$$
P499284
     RDKit          3D

 30 32  0  0  0  0  0  0  0  0999 V2000
    6.6024   12.6062   32.4595 C   0  0  0  0  0  0  0  0  0  0  0  0
    5.4695   12.8267   31.5256 C   0  0  0  0  0  0  0  0  0  0  0  0
    4.7837   14.0059   31.3181 C   0  0  0  0  0  0  0  0  0  0  0  0
    3.5549   13.7761   30.1507 S   0  0  0  0  0  0  0  0  0  0  0  0
    4.0127   12.1175   30.0010 C   0  0  0  0  0  0  0  0  0  0  0  0
    3.2902   11.1863   29.0526 C   0  0  1  0  0  0  0  0  0  0  0  0
    3.0607   11.9108   27.8035 O   0  0  0  0  0  0  0  0  0  0  0  0
    4.1105    9.9368   28.7222 C   0  0  0  0  0  0  0  0  0  0  0  0
    5.5368   10.1044   28.1848 C   0  0  0  0  0  0  0  0  0  0  0  0
    6.4141    9.4649   28.6209 O   0  0  0  0  0  0  0  0  0  0  0  0
    5.5163   11.1118   26.9989 N   0  0  0  0  0  0  0  0  0  0  0  0
    6.5083   11.4513   26.0858 C   0  0  0  0  0  0  0  0  0  0  0  0
    7.4538   10.5485   25.6480 C   0  0  0  0  0  0  0  0  0  0  0  0
    8.4663   10.9299   24.7463 C   0  0  0  0  0  0  0  0  0  0  0  0
    8.6167   12.2506   24.2799 C   0  0  0  0  0  0  0  0  0  0  0  0
    9.8303   12.6599   23.6062 N   0  0  0  0  0  0  0  0  0  0  0  0
   10.8669   11.8270   23.3124 C   0  0  0  0  0  0  0  0  0  0  0  0
   10.8624   10.6073   23.2828 O   0  0  0  0  0  0  0  0  0  0  0  0
   12.0957   12.6494   23.0076 C   0  0  0  0  0  0  0  0  0  0  0  0
   11.6463   14.0552   23.1792 C   0  0  0  0  0  0  0  0  0  0  0  0
   10.1798   13.8568   23.0465 C   0  0  0  0  0  0  0  0  0  0  0  0
    9.5141   14.6608   22.4236 O   0  0  0  0  0  0  0  0  0  0  0  0
    7.5934   13.1343   24.6891 C   0  0  0  0  0  0  0  0  0  0  0  0
    7.5333   14.5745   24.3238 C   0  0  0  0  0  0  0  0  0  0  0  0
    6.5401   12.7178   25.5487 C   0  0  0  0  0  0  0  0  0  0  0  0
    1.9404   10.7481   29.6748 C   0  0  0  0  0  0  0  0  0  0  0  0
    2.0316   10.3494   30.9580 F   0  0  0  0  0  0  0  0  0  0  0  0
    1.3816    9.7333   28.9711 F   0  0  0  0  0  0  0  0  0  0  0  0
    1.0539   11.7754   29.6234 F   0  0  0  0  0  0  0  0  0  0  0  0
    5.0207   11.7583   30.7688 N   0  0  0  0  0  0  0  0  0  0  0  0
  1  2  1  0
  2  3  2  0
  3  4  1  0
  4  5  1  0
  5  6  1  0
  6  7  1  6
  6  8  1  0
  8  9  1  0
  9 10  2  0
  9 11  1  0
 11 12  1  0
 12 13  2  0
 13 14  1  0
 14 15  2  0
 15 16  1  0
 16 17  1  0
 17 18  2  0
 17 19  1  0
 19 20  1  0
 20 21  1  0
 21 22  2  0
 15 23  1  0
 23 24  1  0
 23 25  2  0
  6 26  1  0
 26 27  1  0
 26 28  1  0
 26 29  1  0
  5 30  2  0
 30  2  1  0
 25 12  1  0
 21 16  1  0
M  END
>  <energy_score>  (1640) 
-40.37201

>  <inchikey>  (1640) 
None

>  <smiles>  (1640) 
None

>  <ref_pdb>  (1640) 
A0310a

>  <alias>  (1640) 
None

>  <HIPPO Pose ID>  (1640) 
499284

>  <name>  (1640) 
P499284

>  <HIPPO Compound ID>  (1640) 
301859

>  <ref_mols>  (1640) 
A1445a,A0310a

>  <distance_score>  (1640) 
1.436326

>  <inspiration_score>  (1640) 
None

$$$$
P499285
     RDKit          3D

 30 32  0  0  0  0  0  0  0  0999 V2000
    3.0612   14.6142   26.6290 C   0  0  0  0  0  0  0  0  0  0  0  0
    3.5206   13.9708   27.8775 C   0  0  0  0  0  0  0  0  0  0  0  0
    4.1569   14.4401   29.0051 C   0  0  0  0  0  0  0  0  0  0  0  0
    4.2982   13.3331   29.8752 C   0  0  0  0  0  0  0  0  0  0  0  0
    3.7370   12.2492   29.2305 C   0  0  0  0  0  0  0  0  0  0  0  0
    3.5286   10.8115   29.5958 C   0  0  2  0  0  0  0  0  0  0  0  0
    4.2925   10.5741   30.7993 O   0  0  0  0  0  0  0  0  0  0  0  0
    4.0195    9.8498   28.5132 C   0  0  0  0  0  0  0  0  0  0  0  0
    5.4692    9.9950   28.0502 C   0  0  0  0  0  0  0  0  0  0  0  0
    6.3141    9.3156   28.4890 O   0  0  0  0  0  0  0  0  0  0  0  0
    5.5176   11.0565   26.9112 N   0  0  0  0  0  0  0  0  0  0  0  0
    6.5514   11.4129   26.0537 C   0  0  0  0  0  0  0  0  0  0  0  0
    7.4957   10.5155   25.6049 C   0  0  0  0  0  0  0  0  0  0  0  0
    8.5178   10.9144   24.7205 C   0  0  0  0  0  0  0  0  0  0  0  0
    8.6774   12.2447   24.2834 C   0  0  0  0  0  0  0  0  0  0  0  0
    9.8890   12.6650   23.6133 N   0  0  0  0  0  0  0  0  0  0  0  0
   10.9292   11.8419   23.3131 C   0  0  0  0  0  0  0  0  0  0  0  0
   10.9301   10.6220   23.2858 O   0  0  0  0  0  0  0  0  0  0  0  0
   12.1479   12.6734   22.9929 C   0  0  0  0  0  0  0  0  0  0  0  0
   11.6866   14.0766   23.1606 C   0  0  0  0  0  0  0  0  0  0  0  0
   10.2207   13.8631   23.0454 C   0  0  0  0  0  0  0  0  0  0  0  0
    9.5356   14.6536   22.4261 O   0  0  0  0  0  0  0  0  0  0  0  0
    7.6635   13.1267   24.7156 C   0  0  0  0  0  0  0  0  0  0  0  0
    7.6179   14.5785   24.3980 C   0  0  0  0  0  0  0  0  0  0  0  0
    6.6029   12.6942   25.5542 C   0  0  0  0  0  0  0  0  0  0  0  0
    2.0074   10.5540   29.8206 C   0  0  0  0  0  0  0  0  0  0  0  0
    1.5371   11.1826   30.9208 F   0  0  0  0  0  0  0  0  0  0  0  0
    1.7731    9.2292   29.9993 F   0  0  0  0  0  0  0  0  0  0  0  0
    1.2516   10.9400   28.7649 F   0  0  0  0  0  0  0  0  0  0  0  0
    3.2840   12.6343   27.9964 O   0  0  0  0  0  0  0  0  0  0  0  0
  1  2  1  0
  2  3  2  0
  3  4  1  0
  4  5  2  0
  5  6  1  0
  6  7  1  1
  6  8  1  0
  8  9  1  0
  9 10  2  0
  9 11  1  0
 11 12  1  0
 12 13  2  0
 13 14  1  0
 14 15  2  0
 15 16  1  0
 16 17  1  0
 17 18  2  0
 17 19  1  0
 19 20  1  0
 20 21  1  0
 21 22  2  0
 15 23  1  0
 23 24  1  0
 23 25  2  0
  6 26  1  0
 26 27  1  0
 26 28  1  0
 26 29  1  0
  5 30  1  0
 30  2  1  0
 25 12  1  0
 21 16  1  0
M  END
>  <energy_score>  (1641) 
-50.381301

>  <inchikey>  (1641) 
None

>  <smiles>  (1641) 
None

>  <ref_pdb>  (1641) 
A0310a

>  <alias>  (1641) 
None

>  <HIPPO Pose ID>  (1641) 
499285

>  <name>  (1641) 
P499285

>  <HIPPO Compound ID>  (1641) 
301860

>  <ref_mols>  (1641) 
A1445a,A0310a

>  <distance_score>  (1641) 
1.423906

>  <inspiration_score>  (1641) 
None

$$$$
P499286
     RDKit          3D

 30 32  0  0  0  0  0  0  0  0999 V2000
    2.0656   15.9166   30.3357 C   0  0  0  0  0  0  0  0  0  0  0  0
    2.6557   14.5815   30.5550 C   0  0  0  0  0  0  0  0  0  0  0  0
    3.4324   14.0385   31.5540 C   0  0  0  0  0  0  0  0  0  0  0  0
    3.6809   12.6952   31.1821 C   0  0  0  0  0  0  0  0  0  0  0  0
    3.0475   12.4993   29.9697 C   0  0  0  0  0  0  0  0  0  0  0  0
    2.8809   11.3201   29.0461 C   0  0  1  0  0  0  0  0  0  0  0  0
    2.4076   11.8272   27.7642 O   0  0  0  0  0  0  0  0  0  0  0  0
    4.1801   10.5307   28.7643 C   0  0  0  0  0  0  0  0  0  0  0  0
    5.2656   11.4370   28.1657 C   0  0  0  0  0  0  0  0  0  0  0  0
    5.4629   12.5020   28.6091 O   0  0  0  0  0  0  0  0  0  0  0  0
    5.9266   10.7084   26.9524 N   0  0  0  0  0  0  0  0  0  0  0  0
    6.8564   11.1640   26.0234 C   0  0  0  0  0  0  0  0  0  0  0  0
    7.5626   10.3148   25.1979 C   0  0  0  0  0  0  0  0  0  0  0  0
    8.5449   10.8208   24.3265 C   0  0  0  0  0  0  0  0  0  0  0  0
    8.8422   12.1943   24.2301 C   0  0  0  0  0  0  0  0  0  0  0  0
    9.9794   12.6671   23.4955 N   0  0  0  0  0  0  0  0  0  0  0  0
   11.0551   11.9012   23.2055 C   0  0  0  0  0  0  0  0  0  0  0  0
   11.1336   10.6902   23.3257 O   0  0  0  0  0  0  0  0  0  0  0  0
   12.2024   12.7789   22.7817 C   0  0  0  0  0  0  0  0  0  0  0  0
   11.6348   14.1552   22.7463 C   0  0  0  0  0  0  0  0  0  0  0  0
   10.1826   13.8780   22.9064 C   0  0  0  0  0  0  0  0  0  0  0  0
    9.3501   14.6556   22.4814 O   0  0  0  0  0  0  0  0  0  0  0  0
    8.0785   13.0460   25.0481 C   0  0  0  0  0  0  0  0  0  0  0  0
    8.2682   14.5227   25.1404 C   0  0  0  0  0  0  0  0  0  0  0  0
    7.0970   12.5227   25.9168 C   0  0  0  0  0  0  0  0  0  0  0  0
    1.7937   10.4056   29.6565 C   0  0  0  0  0  0  0  0  0  0  0  0
    2.0809   10.0395   30.9271 F   0  0  0  0  0  0  0  0  0  0  0  0
    1.6386    9.2683   28.9395 F   0  0  0  0  0  0  0  0  0  0  0  0
    0.5914   11.0297   29.6735 F   0  0  0  0  0  0  0  0  0  0  0  0
    2.4094   13.6500   29.5943 O   0  0  0  0  0  0  0  0  0  0  0  0
  1  2  1  0
  2  3  2  0
  3  4  1  0
  4  5  2  0
  5  6  1  0
  6  7  1  6
  6  8  1  0
  8  9  1  0
  9 10  2  0
  9 11  1  0
 11 12  1  0
 12 13  2  0
 13 14  1  0
 14 15  2  0
 15 16  1  0
 16 17  1  0
 17 18  2  0
 17 19  1  0
 19 20  1  0
 20 21  1  0
 21 22  2  0
 15 23  1  0
 23 24  1  0
 23 25  2  0
  6 26  1  0
 26 27  1  0
 26 28  1  0
 26 29  1  0
  5 30  1  0
 30  2  1  0
 25 12  1  0
 21 16  1  0
M  END
>  <energy_score>  (1642) 
-33.55481

>  <inchikey>  (1642) 
None

>  <smiles>  (1642) 
None

>  <ref_pdb>  (1642) 
A0310a

>  <alias>  (1642) 
None

>  <HIPPO Pose ID>  (1642) 
499286

>  <name>  (1642) 
P499286

>  <HIPPO Compound ID>  (1642) 
301860

>  <ref_mols>  (1642) 
A1445a,A0310a

>  <distance_score>  (1642) 
1.42442

>  <inspiration_score>  (1642) 
None

$$$$
P499287
     RDKit          3D

 30 32  0  0  0  0  0  0  0  0999 V2000
    7.6845   14.6290   24.4824 C   0  0  0  0  0  0  0  0  0  0  0  0
    7.7304   13.2331   24.9919 C   0  0  0  0  0  0  0  0  0  0  0  0
    6.6279   12.7976   25.7538 C   0  0  0  0  0  0  0  0  0  0  0  0
    6.5515   11.4891   26.1827 C   0  0  0  0  0  0  0  0  0  0  0  0
    5.5104   11.0938   27.0114 N   0  0  0  0  0  0  0  0  0  0  0  0
    5.4619   10.0074   28.1235 C   0  0  0  0  0  0  0  0  0  0  0  0
    6.3108    9.3353   28.5623 O   0  0  0  0  0  0  0  0  0  0  0  0
    4.0098    9.8258   28.5538 C   0  0  0  0  0  0  0  0  0  0  0  0
    3.4298   10.9478   29.4216 C   0  0  2  0  0  0  0  0  0  0  0  0
    4.2238   11.1424   30.7002 C   0  0  0  0  0  0  0  0  0  0  0  0
    4.2255   10.1710   31.7148 C   0  0  0  0  0  0  0  0  0  0  0  0
    4.9848   10.3535   32.8734 C   0  0  0  0  0  0  0  0  0  0  0  0
    5.7514   11.5052   33.0262 C   0  0  0  0  0  0  0  0  0  0  0  0
    6.6942   11.7244   34.4480 Cl  0  0  0  0  0  0  0  0  0  0  0  0
    5.7635   12.4782   32.0308 C   0  0  0  0  0  0  0  0  0  0  0  0
    5.0048   12.2976   30.8716 C   0  0  0  0  0  0  0  0  0  0  0  0
    1.9377   10.6749   29.6577 C   0  0  0  0  0  0  0  0  0  0  0  0
    1.4284   11.4019   30.6717 F   0  0  0  0  0  0  0  0  0  0  0  0
    1.6839    9.3740   29.9135 F   0  0  0  0  0  0  0  0  0  0  0  0
    1.2387   11.0010   28.5393 F   0  0  0  0  0  0  0  0  0  0  0  0
    7.4962   10.5847   25.7208 C   0  0  0  0  0  0  0  0  0  0  0  0
    8.5796   11.0062   24.9360 C   0  0  0  0  0  0  0  0  0  0  0  0
    8.7767   12.3618   24.6522 C   0  0  0  0  0  0  0  0  0  0  0  0
    9.9614   12.8165   23.9976 N   0  0  0  0  0  0  0  0  0  0  0  0
   10.4814   12.1517   22.9230 C   0  0  0  0  0  0  0  0  0  0  0  0
   10.0980   11.0761   22.4967 O   0  0  0  0  0  0  0  0  0  0  0  0
   11.5168   13.0391   22.2950 C   0  0  0  0  0  0  0  0  0  0  0  0
   11.9231   13.9612   23.4002 C   0  0  0  0  0  0  0  0  0  0  0  0
   10.7462   13.9078   24.3201 C   0  0  0  0  0  0  0  0  0  0  0  0
   10.6472   14.7095   25.2406 O   0  0  0  0  0  0  0  0  0  0  0  0
  1  2  1  0
  2  3  2  0
  3  4  1  0
  4  5  1  0
  5  6  1  0
  6  7  2  0
  6  8  1  0
  9  8  1  1
  9 10  1  0
 10 11  2  0
 11 12  1  0
 12 13  2  0
 13 14  1  0
 13 15  1  0
 15 16  2  0
  9 17  1  0
 17 18  1  0
 17 19  1  0
 17 20  1  0
  4 21  2  0
 21 22  1  0
 22 23  2  0
 23 24  1  0
 24 25  1  0
 25 26  2  0
 25 27  1  0
 27 28  1  0
 28 29  1  0
 29 30  2  0
 23  2  1  0
 29 24  1  0
 16 10  1  0
M  END
>  <energy_score>  (1643) 
-7.347553

>  <inchikey>  (1643) 
None

>  <smiles>  (1643) 
None

>  <ref_pdb>  (1643) 
A0310a

>  <alias>  (1643) 
None

>  <HIPPO Pose ID>  (1643) 
499287

>  <name>  (1643) 
P499287

>  <HIPPO Compound ID>  (1643) 
301866

>  <ref_mols>  (1643) 
A1445a,A0310a

>  <distance_score>  (1643) 
1.507565

>  <inspiration_score>  (1643) 
None

$$$$
P499288
     RDKit          3D

 30 32  0  0  0  0  0  0  0  0999 V2000
    7.6006   14.5795   24.0897 C   0  0  0  0  0  0  0  0  0  0  0  0
    7.6632   13.1600   24.5027 C   0  0  0  0  0  0  0  0  0  0  0  0
    6.6149   12.7936   25.3734 C   0  0  0  0  0  0  0  0  0  0  0  0
    6.5471   11.5498   25.9582 C   0  0  0  0  0  0  0  0  0  0  0  0
    5.4635   11.3224   26.7903 N   0  0  0  0  0  0  0  0  0  0  0  0
    5.2606   10.2708   27.9233 C   0  0  0  0  0  0  0  0  0  0  0  0
    6.0055    9.4909   28.3750 O   0  0  0  0  0  0  0  0  0  0  0  0
    3.7819   10.3571   28.3151 C   0  0  0  0  0  0  0  0  0  0  0  0
    3.5167   10.5948   29.7987 C   0  0  1  0  0  0  0  0  0  0  0  0
    4.1228   11.9258   30.2337 C   0  0  0  0  0  0  0  0  0  0  0  0
    3.5577   13.1648   29.8921 C   0  0  0  0  0  0  0  0  0  0  0  0
    4.1779   14.3591   30.2719 C   0  0  0  0  0  0  0  0  0  0  0  0
    5.3694   14.3269   30.9910 C   0  0  0  0  0  0  0  0  0  0  0  0
    6.1392   15.7970   31.4427 Cl  0  0  0  0  0  0  0  0  0  0  0  0
    5.9464   13.1094   31.3373 C   0  0  0  0  0  0  0  0  0  0  0  0
    5.3280   11.9159   30.9585 C   0  0  0  0  0  0  0  0  0  0  0  0
    2.0047   10.4779   30.0344 C   0  0  0  0  0  0  0  0  0  0  0  0
    1.6715   10.7065   31.3203 F   0  0  0  0  0  0  0  0  0  0  0  0
    1.5695    9.2361   29.7168 F   0  0  0  0  0  0  0  0  0  0  0  0
    1.3039   11.3402   29.2592 F   0  0  0  0  0  0  0  0  0  0  0  0
    7.4881   10.6152   25.5936 C   0  0  0  0  0  0  0  0  0  0  0  0
    8.5237   10.9620   24.6945 C   0  0  0  0  0  0  0  0  0  0  0  0
    8.6852   12.2620   24.1547 C   0  0  0  0  0  0  0  0  0  0  0  0
    9.9047   12.6456   23.4712 N   0  0  0  0  0  0  0  0  0  0  0  0
   10.2825   13.7907   22.8071 C   0  0  0  0  0  0  0  0  0  0  0  0
    9.6177   14.6815   22.3130 O   0  0  0  0  0  0  0  0  0  0  0  0
   11.7671   13.8332   22.6166 C   0  0  0  0  0  0  0  0  0  0  0  0
   12.1950   12.7275   23.5160 C   0  0  0  0  0  0  0  0  0  0  0  0
   10.9930   11.8343   23.4227 C   0  0  0  0  0  0  0  0  0  0  0  0
   11.0220   10.6187   23.3687 O   0  0  0  0  0  0  0  0  0  0  0  0
  1  2  1  0
  2  3  2  0
  3  4  1  0
  4  5  1  0
  5  6  1  0
  6  7  2  0
  6  8  1  0
  9  8  1  6
  9 10  1  0
 10 11  2  0
 11 12  1  0
 12 13  2  0
 13 14  1  0
 13 15  1  0
 15 16  2  0
  9 17  1  0
 17 18  1  0
 17 19  1  0
 17 20  1  0
  4 21  2  0
 21 22  1  0
 22 23  2  0
 23 24  1  0
 24 25  1  0
 25 26  2  0
 25 27  1  0
 27 28  1  0
 28 29  1  0
 29 30  2  0
 23  2  1  0
 29 24  1  0
 16 10  1  0
M  END
>  <energy_score>  (1644) 
-23.378021

>  <inchikey>  (1644) 
None

>  <smiles>  (1644) 
None

>  <ref_pdb>  (1644) 
A0310a

>  <alias>  (1644) 
None

>  <HIPPO Pose ID>  (1644) 
499288

>  <name>  (1644) 
P499288

>  <HIPPO Compound ID>  (1644) 
301866

>  <ref_mols>  (1644) 
A1445a,A0310a

>  <distance_score>  (1644) 
1.333705

>  <inspiration_score>  (1644) 
None

$$$$
P499289
     RDKit          3D

 30 32  0  0  0  0  0  0  0  0999 V2000
    7.6098   14.5495   24.3014 C   0  0  0  0  0  0  0  0  0  0  0  0
    7.6403   13.1029   24.6342 C   0  0  0  0  0  0  0  0  0  0  0  0
    6.6043   12.6898   25.5126 C   0  0  0  0  0  0  0  0  0  0  0  0
    6.5635   11.4128   26.0234 C   0  0  0  0  0  0  0  0  0  0  0  0
    5.5401   11.0478   26.8905 N   0  0  0  0  0  0  0  0  0  0  0  0
    5.5264   10.0259   28.0628 C   0  0  0  0  0  0  0  0  0  0  0  0
    6.3931    9.3938   28.5259 O   0  0  0  0  0  0  0  0  0  0  0  0
    4.0817    9.8450   28.5256 C   0  0  0  0  0  0  0  0  0  0  0  0
    3.5020   10.9702   29.3894 C   0  0  2  0  0  0  0  0  0  0  0  0
    4.3083   11.1868   30.6572 C   0  0  0  0  0  0  0  0  0  0  0  0
    4.9921   12.3983   30.8584 C   0  0  0  0  0  0  0  0  0  0  0  0
    5.7658   12.6014   32.0063 C   0  0  0  0  0  0  0  0  0  0  0  0
    5.8687   11.5945   32.9642 C   0  0  0  0  0  0  0  0  0  0  0  0
    6.8380   11.8513   34.3626 Cl  0  0  0  0  0  0  0  0  0  0  0  0
    5.1936   10.3930   32.7751 C   0  0  0  0  0  0  0  0  0  0  0  0
    5.2826    9.4068   33.6798 F   0  0  0  0  0  0  0  0  0  0  0  0
    4.4165   10.1851   31.6359 C   0  0  0  0  0  0  0  0  0  0  0  0
    2.0135   10.6877   29.6498 C   0  0  0  0  0  0  0  0  0  0  0  0
    1.5186   11.4171   30.6695 F   0  0  0  0  0  0  0  0  0  0  0  0
    1.7756    9.3871   29.9177 F   0  0  0  0  0  0  0  0  0  0  0  0
    1.2960   11.0056   28.5417 F   0  0  0  0  0  0  0  0  0  0  0  0
    7.4948   10.5046   25.5599 C   0  0  0  0  0  0  0  0  0  0  0  0
    8.4772   10.8827   24.6246 C   0  0  0  0  0  0  0  0  0  0  0  0
    8.6238   12.2081   24.1721 C   0  0  0  0  0  0  0  0  0  0  0  0
    9.7739   12.5756   23.3894 N   0  0  0  0  0  0  0  0  0  0  0  0
   10.9068   11.7211   23.2570 C   0  0  0  0  0  0  0  0  0  0  0  0
   12.0512   12.6646   23.5558 C   0  0  0  0  0  0  0  0  0  0  0  0
   11.6783   13.8217   22.6716 C   0  0  0  0  0  0  0  0  0  0  0  0
   10.1729   13.7878   22.7820 C   0  0  0  0  0  0  0  0  0  0  0  0
    9.5084   14.7049   22.3469 O   0  0  0  0  0  0  0  0  0  0  0  0
  1  2  1  0
  2  3  2  0
  3  4  1  0
  4  5  1  0
  5  6  1  0
  6  7  2  0
  6  8  1  0
  9  8  1  1
  9 10  1  0
 10 11  2  0
 11 12  1  0
 12 13  2  0
 13 14  1  0
 13 15  1  0
 15 16  1  0
 15 17  2  0
  9 18  1  0
 18 19  1  0
 18 20  1  0
 18 21  1  0
  4 22  2  0
 22 23  1  0
 23 24  2  0
 24 25  1  0
 25 26  1  0
 26 27  1  0
 27 28  1  0
 28 29  1  0
 29 30  2  0
 24  2  1  0
 29 25  1  0
 17 10  1  0
M  END
>  <energy_score>  (1645) 
-4.015295

>  <inchikey>  (1645) 
None

>  <smiles>  (1645) 
None

>  <ref_pdb>  (1645) 
A0310a

>  <alias>  (1645) 
None

>  <HIPPO Pose ID>  (1645) 
499289

>  <name>  (1645) 
P499289

>  <HIPPO Compound ID>  (1645) 
301873

>  <ref_mols>  (1645) 
A1445a,A0310a

>  <distance_score>  (1645) 
1.465842

>  <inspiration_score>  (1645) 
None

$$$$
P499290
     RDKit          3D

 30 32  0  0  0  0  0  0  0  0999 V2000
    7.6674   14.5739   24.1674 C   0  0  0  0  0  0  0  0  0  0  0  0
    7.6837   13.1476   24.5588 C   0  0  0  0  0  0  0  0  0  0  0  0
    6.6480   12.7990   25.4468 C   0  0  0  0  0  0  0  0  0  0  0  0
    6.5472   11.5394   25.9917 C   0  0  0  0  0  0  0  0  0  0  0  0
    5.4572   11.3201   26.8167 N   0  0  0  0  0  0  0  0  0  0  0  0
    5.2313   10.2573   27.9332 C   0  0  0  0  0  0  0  0  0  0  0  0
    5.9601    9.4579   28.3762 O   0  0  0  0  0  0  0  0  0  0  0  0
    3.7539   10.3664   28.3198 C   0  0  0  0  0  0  0  0  0  0  0  0
    3.4895   10.5494   29.8109 C   0  0  1  0  0  0  0  0  0  0  0  0
    4.1197   11.8462   30.3094 C   0  0  0  0  0  0  0  0  0  0  0  0
    5.2913   11.7786   31.0860 C   0  0  0  0  0  0  0  0  0  0  0  0
    5.9282   12.9410   31.5325 C   0  0  0  0  0  0  0  0  0  0  0  0
    5.4060   14.1891   31.2026 C   0  0  0  0  0  0  0  0  0  0  0  0
    6.2076   15.6126   31.7416 Cl  0  0  0  0  0  0  0  0  0  0  0  0
    4.2503   14.2681   30.4322 C   0  0  0  0  0  0  0  0  0  0  0  0
    3.7342   15.4580   30.0917 F   0  0  0  0  0  0  0  0  0  0  0  0
    3.6082   13.1121   29.9850 C   0  0  0  0  0  0  0  0  0  0  0  0
    1.9748   10.4572   30.0375 C   0  0  0  0  0  0  0  0  0  0  0  0
    1.6440   10.6449   31.3304 F   0  0  0  0  0  0  0  0  0  0  0  0
    1.5125    9.2385   29.6717 F   0  0  0  0  0  0  0  0  0  0  0  0
    1.2977   11.3645   29.2943 F   0  0  0  0  0  0  0  0  0  0  0  0
    7.4450   10.5791   25.5802 C   0  0  0  0  0  0  0  0  0  0  0  0
    8.4546   10.9057   24.6462 C   0  0  0  0  0  0  0  0  0  0  0  0
    8.6437   12.2148   24.1445 C   0  0  0  0  0  0  0  0  0  0  0  0
    9.8047   12.5430   23.3588 N   0  0  0  0  0  0  0  0  0  0  0  0
   10.9258   11.6711   23.2760 C   0  0  0  0  0  0  0  0  0  0  0  0
   12.0654   12.5971   23.6473 C   0  0  0  0  0  0  0  0  0  0  0  0
   11.7664   13.7547   22.7363 C   0  0  0  0  0  0  0  0  0  0  0  0
   10.2575   13.7560   22.7771 C   0  0  0  0  0  0  0  0  0  0  0  0
    9.6430   14.7005   22.3260 O   0  0  0  0  0  0  0  0  0  0  0  0
  1  2  1  0
  2  3  2  0
  3  4  1  0
  4  5  1  0
  5  6  1  0
  6  7  2  0
  6  8  1  0
  9  8  1  6
  9 10  1  0
 10 11  2  0
 11 12  1  0
 12 13  2  0
 13 14  1  0
 13 15  1  0
 15 16  1  0
 15 17  2  0
  9 18  1  0
 18 19  1  0
 18 20  1  0
 18 21  1  0
  4 22  2  0
 22 23  1  0
 23 24  2  0
 24 25  1  0
 25 26  1  0
 26 27  1  0
 27 28  1  0
 28 29  1  0
 29 30  2  0
 24  2  1  0
 29 25  1  0
 17 10  1  0
M  END
>  <energy_score>  (1646) 
-6.40213

>  <inchikey>  (1646) 
None

>  <smiles>  (1646) 
None

>  <ref_pdb>  (1646) 
A0310a

>  <alias>  (1646) 
None

>  <HIPPO Pose ID>  (1646) 
499290

>  <name>  (1646) 
P499290

>  <HIPPO Compound ID>  (1646) 
301873

>  <ref_mols>  (1646) 
A1445a,A0310a

>  <distance_score>  (1646) 
1.31728

>  <inspiration_score>  (1646) 
None

$$$$
P499291
     RDKit          3D

 31 33  0  0  0  0  0  0  0  0999 V2000
    7.5094   14.6051   24.3476 C   0  0  0  0  0  0  0  0  0  0  0  0
    7.5736   13.1649   24.7109 C   0  0  0  0  0  0  0  0  0  0  0  0
    6.5128   12.7318   25.5507 C   0  0  0  0  0  0  0  0  0  0  0  0
    6.4872   11.4588   26.0736 C   0  0  0  0  0  0  0  0  0  0  0  0
    5.4699   11.0749   26.9360 N   0  0  0  0  0  0  0  0  0  0  0  0
    5.4660   10.0360   28.0941 C   0  0  0  0  0  0  0  0  0  0  0  0
    6.3383    9.4034   28.5465 O   0  0  0  0  0  0  0  0  0  0  0  0
    4.0245    9.8413   28.5541 C   0  0  0  0  0  0  0  0  0  0  0  0
    3.4457   10.9636   29.4212 C   0  0  2  0  0  0  0  0  0  0  0  0
    4.2485   11.1758   30.6921 C   0  0  0  0  0  0  0  0  0  0  0  0
    4.9239   12.3902   30.9037 C   0  0  0  0  0  0  0  0  0  0  0  0
    5.6926   12.5905   32.0554 C   0  0  0  0  0  0  0  0  0  0  0  0
    5.7986   11.5780   33.0071 C   0  0  0  0  0  0  0  0  0  0  0  0
    6.7608   11.8321   34.4108 Cl  0  0  0  0  0  0  0  0  0  0  0  0
    5.1318   10.3735   32.8077 C   0  0  0  0  0  0  0  0  0  0  0  0
    5.2231    9.3823   33.7066 F   0  0  0  0  0  0  0  0  0  0  0  0
    4.3599   10.1683   31.6644 C   0  0  0  0  0  0  0  0  0  0  0  0
    1.9581   10.6802   29.6756 C   0  0  0  0  0  0  0  0  0  0  0  0
    1.4594   11.4064   30.6955 F   0  0  0  0  0  0  0  0  0  0  0  0
    1.7190    9.3785   29.9383 F   0  0  0  0  0  0  0  0  0  0  0  0
    1.2434   10.9997   28.5661 F   0  0  0  0  0  0  0  0  0  0  0  0
    7.4523   10.5692   25.6533 C   0  0  0  0  0  0  0  0  0  0  0  0
    8.4725   10.9689   24.7746 C   0  0  0  0  0  0  0  0  0  0  0  0
    8.6055   12.2917   24.3072 C   0  0  0  0  0  0  0  0  0  0  0  0
    9.8156   12.7073   23.6398 N   0  0  0  0  0  0  0  0  0  0  0  0
   10.1710   13.8918   23.0669 C   0  0  0  0  0  0  0  0  0  0  0  0
    9.5035   14.6901   22.4402 O   0  0  0  0  0  0  0  0  0  0  0  0
   11.6442   14.0632   23.1661 C   0  0  0  0  0  0  0  0  0  0  0  0
   12.0619   12.6457   22.9909 C   0  0  0  0  0  0  0  0  0  0  0  0
   10.8020   11.8578   23.2554 C   0  0  0  0  0  0  0  0  0  0  0  0
   10.7064   10.6528   23.1030 O   0  0  0  0  0  0  0  0  0  0  0  0
  1  2  1  0
  2  3  2  0
  3  4  1  0
  4  5  1  0
  5  6  1  0
  6  7  2  0
  6  8  1  0
  9  8  1  1
  9 10  1  0
 10 11  2  0
 11 12  1  0
 12 13  2  0
 13 14  1  0
 13 15  1  0
 15 16  1  0
 15 17  2  0
  9 18  1  0
 18 19  1  0
 18 20  1  0
 18 21  1  0
  4 22  2  0
 22 23  1  0
 23 24  2  0
 24 25  1  0
 25 26  1  0
 26 27  2  0
 26 28  1  0
 28 29  1  0
 29 30  1  0
 30 31  2  0
 24  2  1  0
 30 25  1  0
 17 10  1  0
M  END
>  <energy_score>  (1647) 
-8.756226

>  <inchikey>  (1647) 
None

>  <smiles>  (1647) 
None

>  <ref_pdb>  (1647) 
A0310a

>  <alias>  (1647) 
None

>  <HIPPO Pose ID>  (1647) 
499291

>  <name>  (1647) 
P499291

>  <HIPPO Compound ID>  (1647) 
301888

>  <ref_mols>  (1647) 
A1445a,A0310a

>  <distance_score>  (1647) 
1.462995

>  <inspiration_score>  (1647) 
None

$$$$
P499292
     RDKit          3D

 31 33  0  0  0  0  0  0  0  0999 V2000
    7.5758   14.6280   24.2035 C   0  0  0  0  0  0  0  0  0  0  0  0
    7.6110   13.1969   24.5818 C   0  0  0  0  0  0  0  0  0  0  0  0
    6.5574   12.8246   25.4430 C   0  0  0  0  0  0  0  0  0  0  0  0
    6.4807   11.5706   26.0059 C   0  0  0  0  0  0  0  0  0  0  0  0
    5.3985   11.3317   26.8357 N   0  0  0  0  0  0  0  0  0  0  0  0
    5.1867   10.2484   27.9349 C   0  0  0  0  0  0  0  0  0  0  0  0
    5.9226    9.4447   28.3577 O   0  0  0  0  0  0  0  0  0  0  0  0
    3.7138   10.3390   28.3388 C   0  0  0  0  0  0  0  0  0  0  0  0
    3.4716   10.5944   29.8235 C   0  0  1  0  0  0  0  0  0  0  0  0
    4.1050   11.9214   30.2358 C   0  0  0  0  0  0  0  0  0  0  0  0
    3.4980   13.1660   30.0033 C   0  0  0  0  0  0  0  0  0  0  0  0
    4.1516   14.3565   30.3470 C   0  0  0  0  0  0  0  0  0  0  0  0
    5.4225   14.3187   30.9180 C   0  0  0  0  0  0  0  0  0  0  0  0
    6.2227   15.7898   31.3118 Cl  0  0  0  0  0  0  0  0  0  0  0  0
    6.0345   13.0923   31.1494 C   0  0  0  0  0  0  0  0  0  0  0  0
    7.2642   13.0265   31.6813 F   0  0  0  0  0  0  0  0  0  0  0  0
    5.3872   11.9039   30.8158 C   0  0  0  0  0  0  0  0  0  0  0  0
    1.9614   10.4862   30.0723 C   0  0  0  0  0  0  0  0  0  0  0  0
    1.6416   10.7345   31.3576 F   0  0  0  0  0  0  0  0  0  0  0  0
    1.5179    9.2435   29.7736 F   0  0  0  0  0  0  0  0  0  0  0  0
    1.2606   11.3439   29.2922 F   0  0  0  0  0  0  0  0  0  0  0  0
    7.4161   10.6342   25.6313 C   0  0  0  0  0  0  0  0  0  0  0  0
    8.4490   10.9845   24.7336 C   0  0  0  0  0  0  0  0  0  0  0  0
    8.6150   12.2894   24.2070 C   0  0  0  0  0  0  0  0  0  0  0  0
    9.8251   12.6683   23.5096 N   0  0  0  0  0  0  0  0  0  0  0  0
   10.1927   13.8043   22.8286 C   0  0  0  0  0  0  0  0  0  0  0  0
    9.5159   14.6811   22.3257 O   0  0  0  0  0  0  0  0  0  0  0  0
   11.6738   13.8493   22.6191 C   0  0  0  0  0  0  0  0  0  0  0  0
   12.1159   12.7169   23.4781 C   0  0  0  0  0  0  0  0  0  0  0  0
   10.8980   11.8416   23.4156 C   0  0  0  0  0  0  0  0  0  0  0  0
   10.8945   10.6274   23.3487 O   0  0  0  0  0  0  0  0  0  0  0  0
  1  2  1  0
  2  3  2  0
  3  4  1  0
  4  5  1  0
  5  6  1  0
  6  7  2  0
  6  8  1  0
  9  8  1  6
  9 10  1  0
 10 11  2  0
 11 12  1  0
 12 13  2  0
 13 14  1  0
 13 15  1  0
 15 16  1  0
 15 17  2  0
  9 18  1  0
 18 19  1  0
 18 20  1  0
 18 21  1  0
  4 22  2  0
 22 23  1  0
 23 24  2  0
 24 25  1  0
 25 26  1  0
 26 27  2  0
 26 28  1  0
 28 29  1  0
 29 30  1  0
 30 31  2  0
 24  2  1  0
 30 25  1  0
 17 10  1  0
M  END
>  <energy_score>  (1648) 
-6.245754

>  <inchikey>  (1648) 
None

>  <smiles>  (1648) 
None

>  <ref_pdb>  (1648) 
A0310a

>  <alias>  (1648) 
None

>  <HIPPO Pose ID>  (1648) 
499292

>  <name>  (1648) 
P499292

>  <HIPPO Compound ID>  (1648) 
301888

>  <ref_mols>  (1648) 
A1445a,A0310a

>  <distance_score>  (1648) 
1.360196

>  <inspiration_score>  (1648) 
None

$$$$
P499293
     RDKit          3D

 19 19  0  0  0  0  0  0  0  0999 V2000
   24.0552   17.7850    1.6053 C   0  0  0  0  0  0  0  0  0  0  0  0
   22.9214   16.9001    1.7301 N   0  0  0  0  0  0  0  0  0  0  0  0
   21.7279   17.0526    1.0836 C   0  0  0  0  0  0  0  0  0  0  0  0
   20.9741   15.9678    1.4579 C   0  0  0  0  0  0  0  0  0  0  0  0
   21.6716   15.1672    2.3200 N   0  0  0  0  0  0  0  0  0  0  0  0
   22.8386   15.7617    2.4961 C   0  0  0  0  0  0  0  0  0  0  0  0
   23.9306   15.2908    3.3932 C   0  0  0  0  0  0  0  0  0  0  0  0
   25.1369   14.9420    2.5470 C   0  0  0  0  0  0  0  0  0  0  0  0
   26.0442   15.6597    2.3938 O   0  0  0  0  0  0  0  0  0  0  0  0
   24.8366   13.5600    1.9236 N   0  0  0  0  0  0  0  0  0  0  0  0
   25.5357   12.8242    0.9209 C   0  0  0  0  0  0  0  0  0  0  0  0
   27.0499   12.9050    1.0500 C   0  0  0  0  0  0  0  0  0  0  0  0
   27.7354   12.0284    2.4884 S   0  0  0  0  0  0  0  0  0  0  0  0
   26.5234   11.2887    3.3224 O   0  0  0  0  0  0  0  0  0  0  0  0
   28.6269   10.7647    1.5647 C   0  0  0  0  0  0  0  0  0  0  0  0
   27.7223    9.8077    0.8321 C   0  0  0  0  0  0  0  0  0  0  0  0
   26.5651   10.3484    0.4157 F   0  0  0  0  0  0  0  0  0  0  0  0
   27.4512    8.6922    1.5418 F   0  0  0  0  0  0  0  0  0  0  0  0
   28.3605    9.3872   -0.2958 F   0  0  0  0  0  0  0  0  0  0  0  0
  1  2  1  0
  2  3  1  0
  3  4  2  0
  4  5  1  0
  5  6  2  0
  6  7  1  0
  7  8  1  0
  8  9  2  0
  8 10  1  0
 10 11  1  0
 11 12  1  0
 12 13  1  0
 13 14  1  1
 13 15  1  0
 15 16  1  0
 16 17  1  0
 16 18  1  0
 16 19  1  0
  6  2  1  0
M  CHG  2  13   1  14  -1
M  END
>  <energy_score>  (1649) 
-12.188724

>  <inchikey>  (1649) 
None

>  <smiles>  (1649) 
None

>  <ref_pdb>  (1649) 
A0239a

>  <alias>  (1649) 
None

>  <HIPPO Pose ID>  (1649) 
499293

>  <name>  (1649) 
P499293

>  <HIPPO Compound ID>  (1649) 
301933

>  <ref_mols>  (1649) 
A0239a,A0309a

>  <distance_score>  (1649) 
1.78261

>  <inspiration_score>  (1649) 
None

$$$$
P499294
     RDKit          3D

 19 19  0  0  0  0  0  0  0  0999 V2000
   19.3799   15.4257    1.2681 C   0  0  0  0  0  0  0  0  0  0  0  0
   20.7597   15.8132    1.6309 C   0  0  0  0  0  0  0  0  0  0  0  0
   21.4267   16.9918    1.3793 C   0  0  0  0  0  0  0  0  0  0  0  0
   22.6678   16.8266    1.9197 N   0  0  0  0  0  0  0  0  0  0  0  0
   22.7085   15.5804    2.4955 C   0  0  0  0  0  0  0  0  0  0  0  0
   23.9168   15.1058    3.2134 C   0  0  0  0  0  0  0  0  0  0  0  0
   25.0557   15.0651    2.2078 C   0  0  0  0  0  0  0  0  0  0  0  0
   25.6559   16.0205    1.9065 O   0  0  0  0  0  0  0  0  0  0  0  0
   25.1707   13.6063    1.7009 N   0  0  0  0  0  0  0  0  0  0  0  0
   25.9770   13.0447    0.6581 C   0  0  0  0  0  0  0  0  0  0  0  0
   27.4683   13.2156    0.9095 C   0  0  0  0  0  0  0  0  0  0  0  0
   28.0669   12.4434    2.4426 S   0  0  0  0  0  0  0  0  0  0  0  0
   29.4796   13.2110    2.8606 O   0  0  0  0  0  0  0  0  0  0  0  0
   28.5506   10.8553    1.7274 C   0  0  0  0  0  0  0  0  0  0  0  0
   27.3498   10.0582    1.3148 C   0  0  0  0  0  0  0  0  0  0  0  0
   26.2541   10.3621    2.0369 F   0  0  0  0  0  0  0  0  0  0  0  0
   27.5798    8.7287    1.4441 F   0  0  0  0  0  0  0  0  0  0  0  0
   27.0521   10.2751    0.0115 F   0  0  0  0  0  0  0  0  0  0  0  0
   21.5717   14.9393    2.3143 N   0  0  0  0  0  0  0  0  0  0  0  0
  1  2  1  0
  2  3  2  0
  3  4  1  0
  4  5  1  0
  5  6  1  0
  6  7  1  0
  7  8  2  0
  7  9  1  0
  9 10  1  0
 10 11  1  0
 11 12  1  0
 12 13  1  6
 12 14  1  0
 14 15  1  0
 15 16  1  0
 15 17  1  0
 15 18  1  0
  5 19  2  0
 19  2  1  0
M  CHG  2  12   1  13  -1
M  END
>  <energy_score>  (1650) 
-22.075172

>  <inchikey>  (1650) 
None

>  <smiles>  (1650) 
None

>  <ref_pdb>  (1650) 
A0239a

>  <alias>  (1650) 
None

>  <HIPPO Pose ID>  (1650) 
499294

>  <name>  (1650) 
P499294

>  <HIPPO Compound ID>  (1650) 
301934

>  <ref_mols>  (1650) 
A0239a,A0309a

>  <distance_score>  (1650) 
1.869155

>  <inspiration_score>  (1650) 
None

$$$$
P499295
     RDKit          3D

 19 19  0  0  0  0  0  0  0  0999 V2000
   19.1323   16.3087    1.9418 C   0  0  0  0  0  0  0  0  0  0  0  0
   20.6003   16.1773    1.9847 C   0  0  0  0  0  0  0  0  0  0  0  0
   21.5534   17.1651    2.0802 C   0  0  0  0  0  0  0  0  0  0  0  0
   22.7472   16.5080    2.0608 N   0  0  0  0  0  0  0  0  0  0  0  0
   22.4921   15.1633    1.9264 C   0  0  0  0  0  0  0  0  0  0  0  0
   23.5692   14.1375    1.8338 C   0  0  0  0  0  0  0  0  0  0  0  0
   24.8297   14.6880    1.1503 C   0  0  0  0  0  0  0  0  0  0  0  0
   24.9719   15.8003    0.8269 O   0  0  0  0  0  0  0  0  0  0  0  0
   25.7936   13.4830    1.0455 N   0  0  0  0  0  0  0  0  0  0  0  0
   27.1557   13.4176    0.6119 C   0  0  0  0  0  0  0  0  0  0  0  0
   28.0856   13.2529    1.8013 C   0  0  0  0  0  0  0  0  0  0  0  0
   27.8869   11.6813    2.6842 S   0  0  0  0  0  0  0  0  0  0  0  0
   26.2679   11.4211    2.8825 O   0  0  0  0  0  0  0  0  0  0  0  0
   28.5175   10.6036    1.3883 C   0  0  0  0  0  0  0  0  0  0  0  0
   27.4605    9.7369    0.7591 C   0  0  0  0  0  0  0  0  0  0  0  0
   27.0571    8.7487    1.5831 F   0  0  0  0  0  0  0  0  0  0  0  0
   26.3952   10.4138    0.2972 F   0  0  0  0  0  0  0  0  0  0  0  0
   28.0120    9.1153   -0.3218 F   0  0  0  0  0  0  0  0  0  0  0  0
   21.1925   14.9402    1.9017 N   0  0  0  0  0  0  0  0  0  0  0  0
  1  2  1  0
  2  3  2  0
  3  4  1  0
  4  5  1  0
  5  6  1  0
  6  7  1  0
  7  8  2  0
  7  9  1  0
  9 10  1  0
 10 11  1  0
 11 12  1  0
 12 13  1  6
 12 14  1  0
 14 15  1  0
 15 16  1  0
 15 17  1  0
 15 18  1  0
  5 19  2  0
 19  2  1  0
M  CHG  2  12   1  13  -1
M  END
>  <energy_score>  (1651) 
-13.082027

>  <inchikey>  (1651) 
None

>  <smiles>  (1651) 
None

>  <ref_pdb>  (1651) 
A0239a

>  <alias>  (1651) 
None

>  <HIPPO Pose ID>  (1651) 
499295

>  <name>  (1651) 
P499295

>  <HIPPO Compound ID>  (1651) 
301934

>  <ref_mols>  (1651) 
A0239a,A0309a

>  <distance_score>  (1651) 
1.843353

>  <inspiration_score>  (1651) 
None

$$$$
P499296
     RDKit          3D

 20 21  0  0  0  0  0  0  0  0999 V2000
   23.6868   14.7259   -0.2038 O   0  0  0  0  0  0  0  0  0  0  0  0
   23.9104   14.1064    0.7574 C   0  0  0  0  0  0  0  0  0  0  0  0
   24.8427   12.8938    0.9722 N   0  0  0  0  0  0  0  0  0  0  0  0
   25.7531   12.2600    0.0825 C   0  0  0  0  0  0  0  0  0  0  0  0
   27.1716   12.7622    0.3405 C   0  0  0  0  0  0  0  0  0  0  0  0
   27.8072   12.5110    2.0266 S   0  0  0  0  0  0  0  0  0  0  0  0
   26.5484   12.4243    3.0944 O   0  0  0  0  0  0  0  0  0  0  0  0
   28.5582   10.8936    1.8186 C   0  0  0  0  0  0  0  0  0  0  0  0
   27.6102    9.8508    1.3107 C   0  0  0  0  0  0  0  0  0  0  0  0
   28.1573    8.6131    1.4265 F   0  0  0  0  0  0  0  0  0  0  0  0
   27.3599   10.0258   -0.0066 F   0  0  0  0  0  0  0  0  0  0  0  0
   26.4455    9.8136    1.9681 F   0  0  0  0  0  0  0  0  0  0  0  0
   23.3782   14.4267    2.1528 C   0  0  1  0  0  0  0  0  0  0  0  0
   24.4814   15.2520    2.8798 C   0  0  0  0  0  0  0  0  0  0  0  0
   24.1608   16.7259    2.5515 C   0  0  0  0  0  0  0  0  0  0  0  0
   22.7410   16.6659    2.2774 N   0  0  0  0  0  0  0  0  0  0  0  0
   21.7180   17.5307    2.1979 C   0  0  0  0  0  0  0  0  0  0  0  0
   20.6266   16.7105    1.9607 C   0  0  0  0  0  0  0  0  0  0  0  0
   20.9826   15.3754    1.9206 N   0  0  0  0  0  0  0  0  0  0  0  0
   22.2800   15.4024    2.0810 C   0  0  0  0  0  0  0  0  0  0  0  0
  1  2  2  0
  2  3  1  0
  3  4  1  0
  4  5  1  0
  5  6  1  0
  6  7  1  1
  6  8  1  0
  8  9  1  0
  9 10  1  0
  9 11  1  0
  9 12  1  0
 13  2  1  6
 13 14  1  0
 14 15  1  0
 15 16  1  0
 16 17  1  0
 17 18  2  0
 18 19  1  0
 19 20  2  0
 20 13  1  0
 20 16  1  0
M  CHG  2   6   1   7  -1
M  END
>  <energy_score>  (1652) 
-15.999901

>  <inchikey>  (1652) 
None

>  <smiles>  (1652) 
None

>  <ref_pdb>  (1652) 
A0239a

>  <alias>  (1652) 
None

>  <HIPPO Pose ID>  (1652) 
499296

>  <name>  (1652) 
P499296

>  <HIPPO Compound ID>  (1652) 
301935

>  <ref_mols>  (1652) 
A0239a,A0309a

>  <distance_score>  (1652) 
1.590633

>  <inspiration_score>  (1652) 
None

$$$$
P499297
     RDKit          3D

 20 21  0  0  0  0  0  0  0  0999 V2000
   24.3572   15.0257   -0.5164 O   0  0  0  0  0  0  0  0  0  0  0  0
   24.8112   14.5499    0.4476 C   0  0  0  0  0  0  0  0  0  0  0  0
   26.2481   14.0386    0.7354 N   0  0  0  0  0  0  0  0  0  0  0  0
   27.4342   14.0959   -0.0670 C   0  0  0  0  0  0  0  0  0  0  0  0
   28.3779   12.9314    0.1712 C   0  0  0  0  0  0  0  0  0  0  0  0
   28.8172   12.6785    1.9109 S   0  0  0  0  0  0  0  0  0  0  0  0
   27.8569   13.6015    2.8912 O   0  0  0  0  0  0  0  0  0  0  0  0
   28.3134   10.9664    2.0555 C   0  0  0  0  0  0  0  0  0  0  0  0
   26.8435   10.7123    1.8512 C   0  0  0  0  0  0  0  0  0  0  0  0
   26.4437   10.9725    0.5883 F   0  0  0  0  0  0  0  0  0  0  0  0
   26.0597   11.4240    2.6749 F   0  0  0  0  0  0  0  0  0  0  0  0
   26.6050    9.3933    2.0528 F   0  0  0  0  0  0  0  0  0  0  0  0
   24.0588   14.3968    1.7890 C   0  0  1  0  0  0  0  0  0  0  0  0
   24.7227   15.2951    2.8804 C   0  0  0  0  0  0  0  0  0  0  0  0
   24.0605   16.6759    2.7163 C   0  0  0  0  0  0  0  0  0  0  0  0
   22.7629   16.3066    2.1962 N   0  0  0  0  0  0  0  0  0  0  0  0
   21.5362   16.8499    2.1618 C   0  0  0  0  0  0  0  0  0  0  0  0
   20.7511   15.8222    1.6679 C   0  0  0  0  0  0  0  0  0  0  0  0
   21.4907   14.6757    1.4299 N   0  0  0  0  0  0  0  0  0  0  0  0
   22.7173   15.0304    1.7212 C   0  0  0  0  0  0  0  0  0  0  0  0
  1  2  2  0
  2  3  1  0
  3  4  1  0
  4  5  1  0
  5  6  1  0
  6  7  1  1
  6  8  1  0
  8  9  1  0
  9 10  1  0
  9 11  1  0
  9 12  1  0
 13  2  1  6
 13 14  1  0
 14 15  1  0
 15 16  1  0
 16 17  1  0
 17 18  2  0
 18 19  1  0
 19 20  2  0
 20 13  1  0
 20 16  1  0
M  CHG  2   6   1   7  -1
M  END
>  <energy_score>  (1653) 
-8.591743

>  <inchikey>  (1653) 
None

>  <smiles>  (1653) 
None

>  <ref_pdb>  (1653) 
A0239a

>  <alias>  (1653) 
None

>  <HIPPO Pose ID>  (1653) 
499297

>  <name>  (1653) 
P499297

>  <HIPPO Compound ID>  (1653) 
301935

>  <ref_mols>  (1653) 
A0239a,A0309a

>  <distance_score>  (1653) 
1.776167

>  <inspiration_score>  (1653) 
None

$$$$
P499298
     RDKit          3D

 20 21  0  0  0  0  0  0  0  0999 V2000
   24.3225   15.0657   -0.4582 O   0  0  0  0  0  0  0  0  0  0  0  0
   24.6355   14.4149    0.4583 C   0  0  0  0  0  0  0  0  0  0  0  0
   25.8881   13.5267    0.6790 N   0  0  0  0  0  0  0  0  0  0  0  0
   27.0483   13.3350   -0.1395 C   0  0  0  0  0  0  0  0  0  0  0  0
   28.3444   13.4229    0.6474 C   0  0  0  0  0  0  0  0  0  0  0  0
   28.4333   12.5689    2.2362 S   0  0  0  0  0  0  0  0  0  0  0  0
   27.0722   12.9309    3.0961 O   0  0  0  0  0  0  0  0  0  0  0  0
   28.4165   10.8695    1.6752 C   0  0  0  0  0  0  0  0  0  0  0  0
   27.0478   10.2718    1.5143 C   0  0  0  0  0  0  0  0  0  0  0  0
   27.1664    8.9160    1.4886 F   0  0  0  0  0  0  0  0  0  0  0  0
   26.4894   10.6264    0.3416 F   0  0  0  0  0  0  0  0  0  0  0  0
   26.1859   10.5892    2.4854 F   0  0  0  0  0  0  0  0  0  0  0  0
   23.8832   14.3555    1.7985 C   0  0  1  0  0  0  0  0  0  0  0  0
   24.6805   15.1952    2.8420 C   0  0  0  0  0  0  0  0  0  0  0  0
   24.1297   16.6290    2.7065 C   0  0  0  0  0  0  0  0  0  0  0  0
   22.7906   16.3804    2.2197 N   0  0  0  0  0  0  0  0  0  0  0  0
   21.6208   17.0383    2.1974 C   0  0  0  0  0  0  0  0  0  0  0  0
   20.7354   16.0914    1.7104 C   0  0  0  0  0  0  0  0  0  0  0  0
   21.3590   14.8806    1.4634 N   0  0  0  0  0  0  0  0  0  0  0  0
   22.6154   15.1163    1.7462 C   0  0  0  0  0  0  0  0  0  0  0  0
  1  2  2  0
  2  3  1  0
  3  4  1  0
  4  5  1  0
  5  6  1  0
  6  7  1  1
  6  8  1  0
  8  9  1  0
  9 10  1  0
  9 11  1  0
  9 12  1  0
 13  2  1  6
 13 14  1  0
 14 15  1  0
 15 16  1  0
 16 17  1  0
 17 18  2  0
 18 19  1  0
 19 20  2  0
 20 13  1  0
 20 16  1  0
M  CHG  2   6   1   7  -1
M  END
>  <energy_score>  (1654) 
-18.277698

>  <inchikey>  (1654) 
None

>  <smiles>  (1654) 
None

>  <ref_pdb>  (1654) 
A0239a

>  <alias>  (1654) 
None

>  <HIPPO Pose ID>  (1654) 
499298

>  <name>  (1654) 
P499298

>  <HIPPO Compound ID>  (1654) 
301935

>  <ref_mols>  (1654) 
A0239a,A0309a

>  <distance_score>  (1654) 
1.650569

>  <inspiration_score>  (1654) 
None

$$$$
P499299
     RDKit          3D

 20 20  0  0  0  0  0  0  0  0999 V2000
   24.7251   15.3063   -0.0328 C   0  0  0  0  0  0  0  0  0  0  0  0
   23.4923   14.4622    0.3454 C   0  0  0  0  0  0  0  0  0  0  0  0
   22.6313   14.2358   -0.9072 C   0  0  0  0  0  0  0  0  0  0  0  0
   24.0462   13.1149    0.8312 C   0  0  0  0  0  0  0  0  0  0  0  0
   23.9023   12.1355    0.2130 O   0  0  0  0  0  0  0  0  0  0  0  0
   24.8448   13.3716    2.1316 N   0  0  0  0  0  0  0  0  0  0  0  0
   25.7032   12.5045    2.8825 C   0  0  0  0  0  0  0  0  0  0  0  0
   27.1241   12.7814    2.4121 C   0  0  0  0  0  0  0  0  0  0  0  0
   28.2886   11.5288    2.9648 S   0  0  0  0  0  0  0  0  0  0  0  0
   29.6845   12.3158    3.4056 O   0  0  0  0  0  0  0  0  0  0  0  0
   28.6255   10.7645    1.3632 C   0  0  0  0  0  0  0  0  0  0  0  0
   27.4840    9.9468    0.8312 C   0  0  0  0  0  0  0  0  0  0  0  0
   26.3812   10.6767    0.6069 F   0  0  0  0  0  0  0  0  0  0  0  0
   27.1681    8.9205    1.6495 F   0  0  0  0  0  0  0  0  0  0  0  0
   27.8435    9.3912   -0.3542 F   0  0  0  0  0  0  0  0  0  0  0  0
   22.6609   15.1661    1.3714 C   0  0  0  0  0  0  0  0  0  0  0  0
   22.8808   16.3737    1.8528 N   0  0  0  0  0  0  0  0  0  0  0  0
   21.7343   16.7254    2.5055 C   0  0  0  0  0  0  0  0  0  0  0  0
   20.8219   15.6997    2.4677 C   0  0  0  0  0  0  0  0  0  0  0  0
   21.4533   14.6831    1.8110 N   0  0  0  0  0  0  0  0  0  0  0  0
  1  2  1  0
  2  3  1  0
  2  4  1  0
  4  5  2  0
  4  6  1  0
  6  7  1  0
  7  8  1  0
  8  9  1  0
  9 10  1  6
  9 11  1  0
 11 12  1  0
 12 13  1  0
 12 14  1  0
 12 15  1  0
  2 16  1  0
 16 17  2  0
 17 18  1  0
 18 19  2  0
 19 20  1  0
 20 16  1  0
M  CHG  2   9   1  10  -1
M  END
>  <energy_score>  (1655) 
-12.015114

>  <inchikey>  (1655) 
None

>  <smiles>  (1655) 
None

>  <ref_pdb>  (1655) 
A0239a

>  <alias>  (1655) 
None

>  <HIPPO Pose ID>  (1655) 
499299

>  <name>  (1655) 
P499299

>  <HIPPO Compound ID>  (1655) 
301936

>  <ref_mols>  (1655) 
A0239a,A0309a

>  <distance_score>  (1655) 
1.299176

>  <inspiration_score>  (1655) 
None

$$$$
P499300
     RDKit          3D

 20 20  0  0  0  0  0  0  0  0999 V2000
   24.8748   15.2157   -0.0177 C   0  0  0  0  0  0  0  0  0  0  0  0
   23.6162   14.4570    0.4285 C   0  0  0  0  0  0  0  0  0  0  0  0
   22.8299   13.9908   -0.8050 C   0  0  0  0  0  0  0  0  0  0  0  0
   24.1129   13.2365    1.2171 C   0  0  0  0  0  0  0  0  0  0  0  0
   24.0055   12.1485    0.8103 O   0  0  0  0  0  0  0  0  0  0  0  0
   24.8138   13.7660    2.4916 N   0  0  0  0  0  0  0  0  0  0  0  0
   25.6019   13.0824    3.4705 C   0  0  0  0  0  0  0  0  0  0  0  0
   26.4315   11.9261    2.9303 C   0  0  0  0  0  0  0  0  0  0  0  0
   27.8173   12.5463    1.9494 S   0  0  0  0  0  0  0  0  0  0  0  0
   28.8988   13.2810    2.9702 O   0  0  0  0  0  0  0  0  0  0  0  0
   28.5249   10.9617    1.4673 C   0  0  0  0  0  0  0  0  0  0  0  0
   27.5516   10.0998    0.7150 C   0  0  0  0  0  0  0  0  0  0  0  0
   26.6703   10.8081   -0.0152 F   0  0  0  0  0  0  0  0  0  0  0  0
   28.2175    9.2895   -0.1455 F   0  0  0  0  0  0  0  0  0  0  0  0
   26.8742    9.2846    1.5522 F   0  0  0  0  0  0  0  0  0  0  0  0
   22.7251   15.3154    1.2836 C   0  0  0  0  0  0  0  0  0  0  0  0
   22.9958   16.5273    1.7263 N   0  0  0  0  0  0  0  0  0  0  0  0
   21.8575   16.9618    2.3465 C   0  0  0  0  0  0  0  0  0  0  0  0
   20.8887   15.9895    2.3163 C   0  0  0  0  0  0  0  0  0  0  0  0
   21.4691   14.9269    1.6854 N   0  0  0  0  0  0  0  0  0  0  0  0
  1  2  1  0
  2  3  1  0
  2  4  1  0
  4  5  2  0
  4  6  1  0
  6  7  1  0
  7  8  1  0
  8  9  1  0
  9 10  1  1
  9 11  1  0
 11 12  1  0
 12 13  1  0
 12 14  1  0
 12 15  1  0
  2 16  1  0
 16 17  2  0
 17 18  1  0
 18 19  2  0
 19 20  1  0
 20 16  1  0
M  CHG  2   9   1  10  -1
M  END
>  <energy_score>  (1656) 
-27.960618

>  <inchikey>  (1656) 
None

>  <smiles>  (1656) 
None

>  <ref_pdb>  (1656) 
A0239a

>  <alias>  (1656) 
None

>  <HIPPO Pose ID>  (1656) 
499300

>  <name>  (1656) 
P499300

>  <HIPPO Compound ID>  (1656) 
301936

>  <ref_mols>  (1656) 
A0239a,A0309a

>  <distance_score>  (1656) 
1.32351

>  <inspiration_score>  (1656) 
None

$$$$
P499301
     RDKit          3D

 20 20  0  0  0  0  0  0  0  0999 V2000
   24.6158   15.4948    3.5816 C   0  0  0  0  0  0  0  0  0  0  0  0
   23.6016   14.6151    2.8525 C   0  0  2  0  0  0  0  0  0  0  0  0
   24.4101   13.6573    1.9848 C   0  0  0  0  0  0  0  0  0  0  0  0
   24.5163   13.7312    0.8244 O   0  0  0  0  0  0  0  0  0  0  0  0
   25.0914   12.6958    2.9991 N   0  0  0  0  0  0  0  0  0  0  0  0
   26.0982   11.7085    2.8033 C   0  0  0  0  0  0  0  0  0  0  0  0
   27.3212   12.3930    2.2273 C   0  0  0  0  0  0  0  0  0  0  0  0
   28.7808   11.3704    2.4446 S   0  0  0  0  0  0  0  0  0  0  0  0
   30.0871   12.3881    2.5609 O   0  0  0  0  0  0  0  0  0  0  0  0
   28.8178   10.6601    0.7909 C   0  0  0  0  0  0  0  0  0  0  0  0
   27.6753    9.7326    0.4862 C   0  0  0  0  0  0  0  0  0  0  0  0
   27.9764    8.9841   -0.6052 F   0  0  0  0  0  0  0  0  0  0  0  0
   26.5382   10.3905    0.2019 F   0  0  0  0  0  0  0  0  0  0  0  0
   27.4345    8.8619    1.4903 F   0  0  0  0  0  0  0  0  0  0  0  0
   22.6082   15.4053    2.0646 C   0  0  0  0  0  0  0  0  0  0  0  0
   21.3014   15.2043    2.1249 N   0  0  0  0  0  0  0  0  0  0  0  0
   20.7315   16.1887    1.3706 C   0  0  0  0  0  0  0  0  0  0  0  0
   21.6930   17.0126    0.8447 C   0  0  0  0  0  0  0  0  0  0  0  0
   22.8873   16.4913    1.2635 N   0  0  0  0  0  0  0  0  0  0  0  0
   24.1744   17.0476    0.9202 C   0  0  0  0  0  0  0  0  0  0  0  0
  2  1  1  6
  2  3  1  0
  3  4  2  0
  3  5  1  0
  5  6  1  0
  6  7  1  0
  7  8  1  0
  8  9  1  6
  8 10  1  0
 10 11  1  0
 11 12  1  0
 11 13  1  0
 11 14  1  0
  2 15  1  0
 15 16  2  0
 16 17  1  0
 17 18  2  0
 18 19  1  0
 19 20  1  0
 19 15  1  0
M  CHG  2   8   1   9  -1
M  END
>  <energy_score>  (1657) 
-1.790984

>  <inchikey>  (1657) 
None

>  <smiles>  (1657) 
None

>  <ref_pdb>  (1657) 
A0239a

>  <alias>  (1657) 
None

>  <HIPPO Pose ID>  (1657) 
499301

>  <name>  (1657) 
P499301

>  <HIPPO Compound ID>  (1657) 
301937

>  <ref_mols>  (1657) 
A0239a,A0309a

>  <distance_score>  (1657) 
1.295493

>  <inspiration_score>  (1657) 
None

$$$$
P499302
     RDKit          3D

 20 20  0  0  0  0  0  0  0  0999 V2000
   24.5856   15.5986    3.5911 C   0  0  0  0  0  0  0  0  0  0  0  0
   23.5828   14.6829    2.8927 C   0  0  2  0  0  0  0  0  0  0  0  0
   24.4066   13.6843    2.0905 C   0  0  0  0  0  0  0  0  0  0  0  0
   24.5170   13.6810    0.9282 O   0  0  0  0  0  0  0  0  0  0  0  0
   25.0971   12.8034    3.1706 N   0  0  0  0  0  0  0  0  0  0  0  0
   26.1181   11.8207    3.0458 C   0  0  0  0  0  0  0  0  0  0  0  0
   27.3416   12.4791    2.4384 C   0  0  0  0  0  0  0  0  0  0  0  0
   28.7781   11.4082    2.5753 S   0  0  0  0  0  0  0  0  0  0  0  0
   30.1181   12.3827    2.6788 O   0  0  0  0  0  0  0  0  0  0  0  0
   28.7405   10.7466    0.8998 C   0  0  0  0  0  0  0  0  0  0  0  0
   27.5268    9.9140    0.6040 C   0  0  0  0  0  0  0  0  0  0  0  0
   26.4078   10.6571    0.5326 F   0  0  0  0  0  0  0  0  0  0  0  0
   27.3433    8.9388    1.5212 F   0  0  0  0  0  0  0  0  0  0  0  0
   27.6755    9.2946   -0.5925 F   0  0  0  0  0  0  0  0  0  0  0  0
   22.5987   15.4306    2.0552 C   0  0  0  0  0  0  0  0  0  0  0  0
   21.2913   15.2338    2.1145 N   0  0  0  0  0  0  0  0  0  0  0  0
   20.7287   16.1841    1.3127 C   0  0  0  0  0  0  0  0  0  0  0  0
   21.6957   16.9816    0.7571 C   0  0  0  0  0  0  0  0  0  0  0  0
   22.8859   16.4768    1.2062 N   0  0  0  0  0  0  0  0  0  0  0  0
   24.1767   17.0126    0.8450 C   0  0  0  0  0  0  0  0  0  0  0  0
  2  1  1  6
  2  3  1  0
  3  4  2  0
  3  5  1  0
  5  6  1  0
  6  7  1  0
  7  8  1  0
  8  9  1  6
  8 10  1  0
 10 11  1  0
 11 12  1  0
 11 13  1  0
 11 14  1  0
  2 15  1  0
 15 16  2  0
 16 17  1  0
 17 18  2  0
 18 19  1  0
 19 20  1  0
 19 15  1  0
M  CHG  2   8   1   9  -1
M  END
>  <energy_score>  (1658) 
-9.29018

>  <inchikey>  (1658) 
None

>  <smiles>  (1658) 
None

>  <ref_pdb>  (1658) 
A0239a

>  <alias>  (1658) 
None

>  <HIPPO Pose ID>  (1658) 
499302

>  <name>  (1658) 
P499302

>  <HIPPO Compound ID>  (1658) 
301937

>  <ref_mols>  (1658) 
A0239a,A0309a

>  <distance_score>  (1658) 
1.593846

>  <inspiration_score>  (1658) 
None

$$$$
P499303
     RDKit          3D

 20 20  0  0  0  0  0  0  0  0999 V2000
   24.1140   13.7009    3.0904 C   0  0  0  0  0  0  0  0  0  0  0  0
   23.5805   14.0568    1.7120 C   0  0  2  0  0  0  0  0  0  0  0  0
   24.5640   14.1806    0.5196 C   0  0  0  0  0  0  0  0  0  0  0  0
   24.1660   14.1617   -0.5794 O   0  0  0  0  0  0  0  0  0  0  0  0
   26.0122   14.3040    1.0617 N   0  0  0  0  0  0  0  0  0  0  0  0
   27.2668   14.3332    0.3679 C   0  0  0  0  0  0  0  0  0  0  0  0
   27.8215   12.9173    0.3343 C   0  0  0  0  0  0  0  0  0  0  0  0
   28.4806   12.4503    1.9579 S   0  0  0  0  0  0  0  0  0  0  0  0
   27.3138   12.6817    3.0996 O   0  0  0  0  0  0  0  0  0  0  0  0
   28.7101   10.6985    1.6434 C   0  0  0  0  0  0  0  0  0  0  0  0
   27.4678    9.9426    1.2506 C   0  0  0  0  0  0  0  0  0  0  0  0
   27.6706    8.6107    1.4590 F   0  0  0  0  0  0  0  0  0  0  0  0
   26.3641   10.2912    1.9214 F   0  0  0  0  0  0  0  0  0  0  0  0
   27.2226   10.0689   -0.0748 F   0  0  0  0  0  0  0  0  0  0  0  0
   22.6838   15.2598    1.7777 C   0  0  0  0  0  0  0  0  0  0  0  0
   21.3630   15.1928    1.8317 N   0  0  0  0  0  0  0  0  0  0  0  0
   20.9193   16.4825    1.8895 C   0  0  0  0  0  0  0  0  0  0  0  0
   21.9751   17.3577    1.9017 C   0  0  0  0  0  0  0  0  0  0  0  0
   23.0956   16.5733    1.8392 N   0  0  0  0  0  0  0  0  0  0  0  0
   24.4457   17.0823    1.8384 C   0  0  0  0  0  0  0  0  0  0  0  0
  2  1  1  1
  2  3  1  0
  3  4  2  0
  3  5  1  0
  5  6  1  0
  6  7  1  0
  7  8  1  0
  8  9  1  1
  8 10  1  0
 10 11  1  0
 11 12  1  0
 11 13  1  0
 11 14  1  0
  2 15  1  0
 15 16  2  0
 16 17  1  0
 17 18  2  0
 18 19  1  0
 19 20  1  0
 19 15  1  0
M  CHG  2   8   1   9  -1
M  END
>  <energy_score>  (1659) 
-5.605902

>  <inchikey>  (1659) 
None

>  <smiles>  (1659) 
None

>  <ref_pdb>  (1659) 
A0239a

>  <alias>  (1659) 
None

>  <HIPPO Pose ID>  (1659) 
499303

>  <name>  (1659) 
P499303

>  <HIPPO Compound ID>  (1659) 
301937

>  <ref_mols>  (1659) 
A0239a,A0309a

>  <distance_score>  (1659) 
1.70186

>  <inspiration_score>  (1659) 
None

$$$$
P499304
     RDKit          3D

 20 20  0  0  0  0  0  0  0  0999 V2000
   24.5307   14.0995    0.3285 C   0  0  0  0  0  0  0  0  0  0  0  0
   23.6827   13.9490    1.5872 C   0  0  1  0  0  0  0  0  0  0  0  0
   24.5872   13.7050    2.7999 C   0  0  0  0  0  0  0  0  0  0  0  0
   24.7508   14.4752    3.6596 O   0  0  0  0  0  0  0  0  0  0  0  0
   25.2537   12.3276    2.5447 N   0  0  0  0  0  0  0  0  0  0  0  0
   26.3140   11.6687    3.2371 C   0  0  0  0  0  0  0  0  0  0  0  0
   27.6472   12.3616    3.0558 C   0  0  0  0  0  0  0  0  0  0  0  0
   28.2348   12.4485    1.3571 S   0  0  0  0  0  0  0  0  0  0  0  0
   29.6877   13.2485    1.3696 O   0  0  0  0  0  0  0  0  0  0  0  0
   28.5929   10.6979    1.1296 C   0  0  0  0  0  0  0  0  0  0  0  0
   27.3916    9.9534    0.6104 C   0  0  0  0  0  0  0  0  0  0  0  0
   27.6089    9.5010   -0.6457 F   0  0  0  0  0  0  0  0  0  0  0  0
   27.1542    8.8644    1.3825 F   0  0  0  0  0  0  0  0  0  0  0  0
   26.2633   10.6950    0.5809 F   0  0  0  0  0  0  0  0  0  0  0  0
   22.7485   15.1090    1.7807 C   0  0  0  0  0  0  0  0  0  0  0  0
   21.4333   15.0009    1.6616 N   0  0  0  0  0  0  0  0  0  0  0  0
   20.9276   16.2559    1.8475 C   0  0  0  0  0  0  0  0  0  0  0  0
   21.9374   17.1548    2.0717 C   0  0  0  0  0  0  0  0  0  0  0  0
   23.0957   16.4207    2.0291 N   0  0  0  0  0  0  0  0  0  0  0  0
   24.4029   17.0002    2.2304 C   0  0  0  0  0  0  0  0  0  0  0  0
  2  1  1  6
  2  3  1  0
  3  4  2  0
  3  5  1  0
  5  6  1  0
  6  7  1  0
  7  8  1  0
  8  9  1  1
  8 10  1  0
 10 11  1  0
 11 12  1  0
 11 13  1  0
 11 14  1  0
  2 15  1  0
 15 16  2  0
 16 17  1  0
 17 18  2  0
 18 19  1  0
 19 20  1  0
 19 15  1  0
M  CHG  2   8   1   9  -1
M  END
>  <energy_score>  (1660) 
-6.620977

>  <inchikey>  (1660) 
None

>  <smiles>  (1660) 
None

>  <ref_pdb>  (1660) 
A0239a

>  <alias>  (1660) 
None

>  <HIPPO Pose ID>  (1660) 
499304

>  <name>  (1660) 
P499304

>  <HIPPO Compound ID>  (1660) 
301937

>  <ref_mols>  (1660) 
A0239a,A0309a

>  <distance_score>  (1660) 
1.742099

>  <inspiration_score>  (1660) 
None

$$$$
P499305
     RDKit          3D

 20 20  0  0  0  0  0  0  0  0999 V2000
   18.4312   16.7057    2.5662 C   0  0  0  0  0  0  0  0  0  0  0  0
   19.3621   16.7834    1.3651 C   0  0  0  0  0  0  0  0  0  0  0  0
   20.7731   16.5925    1.7771 C   0  0  0  0  0  0  0  0  0  0  0  0
   21.8112   17.4741    1.9817 C   0  0  0  0  0  0  0  0  0  0  0  0
   22.9332   16.8186    2.4140 N   0  0  0  0  0  0  0  0  0  0  0  0
   22.5934   15.5494    2.4798 C   0  0  0  0  0  0  0  0  0  0  0  0
   23.4301   14.4172    2.9337 C   0  0  0  0  0  0  0  0  0  0  0  0
   23.7778   13.5932    1.7000 C   0  0  0  0  0  0  0  0  0  0  0  0
   22.9640   13.0533    1.0597 O   0  0  0  0  0  0  0  0  0  0  0  0
   25.3111   13.6759    1.5100 N   0  0  0  0  0  0  0  0  0  0  0  0
   26.1660   13.0374    0.5532 C   0  0  0  0  0  0  0  0  0  0  0  0
   27.6345   13.1506    0.9019 C   0  0  0  0  0  0  0  0  0  0  0  0
   28.0753   12.3275    2.4595 S   0  0  0  0  0  0  0  0  0  0  0  0
   29.4181   13.1081    3.0476 O   0  0  0  0  0  0  0  0  0  0  0  0
   28.6553   10.7768    1.7380 C   0  0  0  0  0  0  0  0  0  0  0  0
   27.5121    9.9285    1.2618 C   0  0  0  0  0  0  0  0  0  0  0  0
   27.1875   10.2237   -0.0161 F   0  0  0  0  0  0  0  0  0  0  0  0
   27.8585    8.6160    1.2884 F   0  0  0  0  0  0  0  0  0  0  0  0
   26.4100   10.0591    2.0181 F   0  0  0  0  0  0  0  0  0  0  0  0
   21.3052   15.3619    2.0510 N   0  0  0  0  0  0  0  0  0  0  0  0
  1  2  1  0
  2  3  1  0
  3  4  2  0
  4  5  1  0
  5  6  2  0
  6  7  1  0
  7  8  1  0
  8  9  2  0
  8 10  1  0
 10 11  1  0
 11 12  1  0
 12 13  1  0
 13 14  1  6
 13 15  1  0
 15 16  1  0
 16 17  1  0
 16 18  1  0
 16 19  1  0
  6 20  1  0
 20  3  1  0
M  CHG  2  13   1  14  -1
M  END
>  <energy_score>  (1661) 
-12.133308

>  <inchikey>  (1661) 
None

>  <smiles>  (1661) 
None

>  <ref_pdb>  (1661) 
A0239a

>  <alias>  (1661) 
None

>  <HIPPO Pose ID>  (1661) 
499305

>  <name>  (1661) 
P499305

>  <HIPPO Compound ID>  (1661) 
301938

>  <ref_mols>  (1661) 
A0239a,A0309a

>  <distance_score>  (1661) 
1.42545

>  <inspiration_score>  (1661) 
None

$$$$
P499306
     RDKit          3D

 20 20  0  0  0  0  0  0  0  0999 V2000
   18.8713   17.7481    0.9362 C   0  0  0  0  0  0  0  0  0  0  0  0
   19.3703   16.9725    2.1453 C   0  0  0  0  0  0  0  0  0  0  0  0
   20.7064   16.3794    1.9064 C   0  0  0  0  0  0  0  0  0  0  0  0
   21.9776   16.7782    2.2517 C   0  0  0  0  0  0  0  0  0  0  0  0
   22.9062   15.8869    1.7874 N   0  0  0  0  0  0  0  0  0  0  0  0
   22.2300   14.9646    1.1367 C   0  0  0  0  0  0  0  0  0  0  0  0
   22.7371   13.7852    0.3932 C   0  0  0  0  0  0  0  0  0  0  0  0
   24.2527   13.7237    0.3808 C   0  0  0  0  0  0  0  0  0  0  0  0
   24.8697   13.8036   -0.6100 O   0  0  0  0  0  0  0  0  0  0  0  0
   24.7191   13.4451    1.8393 N   0  0  0  0  0  0  0  0  0  0  0  0
   26.0446   13.3034    2.3865 C   0  0  0  0  0  0  0  0  0  0  0  0
   27.0969   13.1945    1.3001 C   0  0  0  0  0  0  0  0  0  0  0  0
   28.6890   12.5819    1.8627 S   0  0  0  0  0  0  0  0  0  0  0  0
   29.1128   13.3753    3.2516 O   0  0  0  0  0  0  0  0  0  0  0  0
   28.2342   10.9005    2.2803 C   0  0  0  0  0  0  0  0  0  0  0  0
   27.6642   10.1089    1.1363 C   0  0  0  0  0  0  0  0  0  0  0  0
   26.3866   10.4327    0.8638 F   0  0  0  0  0  0  0  0  0  0  0  0
   27.6765    8.7808    1.4330 F   0  0  0  0  0  0  0  0  0  0  0  0
   28.3869   10.2525    0.0042 F   0  0  0  0  0  0  0  0  0  0  0  0
   20.8847   15.2134    1.2121 N   0  0  0  0  0  0  0  0  0  0  0  0
  1  2  1  0
  2  3  1  0
  3  4  2  0
  4  5  1  0
  5  6  2  0
  6  7  1  0
  7  8  1  0
  8  9  2  0
  8 10  1  0
 10 11  1  0
 11 12  1  0
 12 13  1  0
 13 14  1  1
 13 15  1  0
 15 16  1  0
 16 17  1  0
 16 18  1  0
 16 19  1  0
  6 20  1  0
 20  3  1  0
M  CHG  2  13   1  14  -1
M  END
>  <energy_score>  (1662) 
-11.022743

>  <inchikey>  (1662) 
None

>  <smiles>  (1662) 
None

>  <ref_pdb>  (1662) 
A0239a

>  <alias>  (1662) 
None

>  <HIPPO Pose ID>  (1662) 
499306

>  <name>  (1662) 
P499306

>  <HIPPO Compound ID>  (1662) 
301938

>  <ref_mols>  (1662) 
A0239a,A0309a

>  <distance_score>  (1662) 
1.467192

>  <inspiration_score>  (1662) 
None

$$$$
P499307
     RDKit          3D

 20 20  0  0  0  0  0  0  0  0999 V2000
   22.2047   19.0872    1.7751 C   0  0  0  0  0  0  0  0  0  0  0  0
   22.0410   17.6235    1.6273 C   0  0  0  0  0  0  0  0  0  0  0  0
   22.5725   16.7657    2.5567 N   0  0  0  0  0  0  0  0  0  0  0  0
   22.2644   15.5569    2.1437 C   0  0  0  0  0  0  0  0  0  0  0  0
   22.5474   14.2870    2.8312 C   0  0  0  0  0  0  0  0  0  0  0  0
   23.7685   13.6468    2.1988 C   0  0  0  0  0  0  0  0  0  0  0  0
   23.7028   12.9774    1.2435 O   0  0  0  0  0  0  0  0  0  0  0  0
   24.9848   14.0085    3.0909 N   0  0  0  0  0  0  0  0  0  0  0  0
   26.3429   13.5472    3.0463 C   0  0  0  0  0  0  0  0  0  0  0  0
   26.9003   13.3693    1.6491 C   0  0  0  0  0  0  0  0  0  0  0  0
   28.5527   12.6251    1.6688 S   0  0  0  0  0  0  0  0  0  0  0  0
   29.4190   13.3123    2.9044 O   0  0  0  0  0  0  0  0  0  0  0  0
   28.1294   10.9472    2.1498 C   0  0  0  0  0  0  0  0  0  0  0  0
   27.4647   10.1848    1.0424 C   0  0  0  0  0  0  0  0  0  0  0  0
   26.2613   10.6877    0.7178 F   0  0  0  0  0  0  0  0  0  0  0  0
   27.2867    8.8900    1.4103 F   0  0  0  0  0  0  0  0  0  0  0  0
   28.2236   10.1648   -0.0770 F   0  0  0  0  0  0  0  0  0  0  0  0
   21.5763   15.5981    0.9615 N   0  0  0  0  0  0  0  0  0  0  0  0
   21.3928   16.9150    0.6345 C   0  0  0  0  0  0  0  0  0  0  0  0
   20.6710   17.3421   -0.5839 C   0  0  0  0  0  0  0  0  0  0  0  0
  1  2  1  0
  2  3  1  0
  3  4  2  0
  4  5  1  0
  5  6  1  0
  6  7  2  0
  6  8  1  0
  8  9  1  0
  9 10  1  0
 10 11  1  0
 11 12  1  1
 11 13  1  0
 13 14  1  0
 14 15  1  0
 14 16  1  0
 14 17  1  0
  4 18  1  0
 18 19  1  0
 19 20  1  0
 19  2  2  0
M  CHG  2  11   1  12  -1
M  END
>  <energy_score>  (1663) 
-22.716397

>  <inchikey>  (1663) 
None

>  <smiles>  (1663) 
None

>  <ref_pdb>  (1663) 
A0239a

>  <alias>  (1663) 
None

>  <HIPPO Pose ID>  (1663) 
499307

>  <name>  (1663) 
P499307

>  <HIPPO Compound ID>  (1663) 
301939

>  <ref_mols>  (1663) 
A0239a,A0309a

>  <distance_score>  (1663) 
1.899398

>  <inspiration_score>  (1663) 
None

$$$$
P499308
     RDKit          3D

 20 20  0  0  0  0  0  0  0  0999 V2000
   24.3662   16.8977    1.5442 C   0  0  0  0  0  0  0  0  0  0  0  0
   23.0264   16.3572    1.5965 N   0  0  0  0  0  0  0  0  0  0  0  0
   21.9544   17.0088    2.1479 C   0  0  0  0  0  0  0  0  0  0  0  0
   20.8864   16.1765    1.9378 C   0  0  0  0  0  0  0  0  0  0  0  0
   19.0934   16.5599    2.3418 Br  0  0  0  0  0  0  0  0  0  0  0  0
   21.2758   15.0229    1.3245 N   0  0  0  0  0  0  0  0  0  0  0  0
   22.5622   15.1721    1.0611 C   0  0  0  0  0  0  0  0  0  0  0  0
   23.3240   14.2321    0.1888 C   0  0  0  0  0  0  0  0  0  0  0  0
   24.7285   13.9795    0.6898 C   0  0  0  0  0  0  0  0  0  0  0  0
   25.6650   14.4293    0.1547 O   0  0  0  0  0  0  0  0  0  0  0  0
   24.6242   13.1015    1.9650 N   0  0  0  0  0  0  0  0  0  0  0  0
   25.6553   12.5192    2.7875 C   0  0  0  0  0  0  0  0  0  0  0  0
   27.0684   12.9088    2.3747 C   0  0  0  0  0  0  0  0  0  0  0  0
   28.2742   11.6865    2.9594 S   0  0  0  0  0  0  0  0  0  0  0  0
   29.6700   12.5067    3.3321 O   0  0  0  0  0  0  0  0  0  0  0  0
   28.5735   10.8605    1.3787 C   0  0  0  0  0  0  0  0  0  0  0  0
   27.3831   10.1020    0.8674 C   0  0  0  0  0  0  0  0  0  0  0  0
   27.0134    9.1126    1.7077 F   0  0  0  0  0  0  0  0  0  0  0  0
   26.3177   10.8939    0.6439 F   0  0  0  0  0  0  0  0  0  0  0  0
   27.6918    9.5067   -0.3117 F   0  0  0  0  0  0  0  0  0  0  0  0
  1  2  1  0
  2  3  1  0
  3  4  2  0
  4  5  1  0
  4  6  1  0
  6  7  2  0
  7  8  1  0
  8  9  1  0
  9 10  2  0
  9 11  1  0
 11 12  1  0
 12 13  1  0
 13 14  1  0
 14 15  1  6
 14 16  1  0
 16 17  1  0
 17 18  1  0
 17 19  1  0
 17 20  1  0
  7  2  1  0
M  CHG  2  14   1  15  -1
M  END
>  <energy_score>  (1664) 
-10.630215

>  <inchikey>  (1664) 
None

>  <smiles>  (1664) 
None

>  <ref_pdb>  (1664) 
A0239a

>  <alias>  (1664) 
None

>  <HIPPO Pose ID>  (1664) 
499308

>  <name>  (1664) 
P499308

>  <HIPPO Compound ID>  (1664) 
301940

>  <ref_mols>  (1664) 
A0239a,A0309a

>  <distance_score>  (1664) 
1.363128

>  <inspiration_score>  (1664) 
None

$$$$
P499309
     RDKit          3D

 20 20  0  0  0  0  0  0  0  0999 V2000
   24.3562   16.6835    2.2491 C   0  0  0  0  0  0  0  0  0  0  0  0
   22.9939   16.2392    2.0640 N   0  0  0  0  0  0  0  0  0  0  0  0
   21.8941   17.0477    2.1622 C   0  0  0  0  0  0  0  0  0  0  0  0
   20.8253   16.2132    1.9599 C   0  0  0  0  0  0  0  0  0  0  0  0
   19.0179   16.7216    1.9931 Br  0  0  0  0  0  0  0  0  0  0  0  0
   21.2325   14.9303    1.7368 N   0  0  0  0  0  0  0  0  0  0  0  0
   22.5534   14.9653    1.7685 C   0  0  0  0  0  0  0  0  0  0  0  0
   23.4348   13.7782    1.5584 C   0  0  0  0  0  0  0  0  0  0  0  0
   24.5463   14.0958    0.5537 C   0  0  0  0  0  0  0  0  0  0  0  0
   24.3823   14.7342   -0.4092 O   0  0  0  0  0  0  0  0  0  0  0  0
   25.8354   13.4573    1.1264 N   0  0  0  0  0  0  0  0  0  0  0  0
   27.1952   13.5518    0.6859 C   0  0  0  0  0  0  0  0  0  0  0  0
   28.1885   13.4191    1.8257 C   0  0  0  0  0  0  0  0  0  0  0  0
   28.0689   11.8902    2.7934 S   0  0  0  0  0  0  0  0  0  0  0  0
   26.4892   11.7375    3.2584 O   0  0  0  0  0  0  0  0  0  0  0  0
   28.4581   10.7277    1.4780 C   0  0  0  0  0  0  0  0  0  0  0  0
   27.2570    9.9943    0.9495 C   0  0  0  0  0  0  0  0  0  0  0  0
   27.5685    9.4789   -0.2713 F   0  0  0  0  0  0  0  0  0  0  0  0
   26.9334    8.9384    1.7240 F   0  0  0  0  0  0  0  0  0  0  0  0
   26.1754   10.7714    0.7744 F   0  0  0  0  0  0  0  0  0  0  0  0
  1  2  1  0
  2  3  1  0
  3  4  2  0
  4  5  1  0
  4  6  1  0
  6  7  2  0
  7  8  1  0
  8  9  1  0
  9 10  2  0
  9 11  1  0
 11 12  1  0
 12 13  1  0
 13 14  1  0
 14 15  1  6
 14 16  1  0
 16 17  1  0
 17 18  1  0
 17 19  1  0
 17 20  1  0
  7  2  1  0
M  CHG  2  14   1  15  -1
M  END
>  <energy_score>  (1665) 
-2.835125

>  <inchikey>  (1665) 
None

>  <smiles>  (1665) 
None

>  <ref_pdb>  (1665) 
A0239a

>  <alias>  (1665) 
None

>  <HIPPO Pose ID>  (1665) 
499309

>  <name>  (1665) 
P499309

>  <HIPPO Compound ID>  (1665) 
301940

>  <ref_mols>  (1665) 
A0239a,A0309a

>  <distance_score>  (1665) 
1.713018

>  <inspiration_score>  (1665) 
None

$$$$
P499310
     RDKit          3D

 20 20  0  0  0  0  0  0  0  0999 V2000
   25.6831   15.5689    0.3748 O   0  0  0  0  0  0  0  0  0  0  0  0
   25.3446   14.9547    1.3144 C   0  0  0  0  0  0  0  0  0  0  0  0
   26.1531   14.5036    2.5733 N   0  0  0  0  0  0  0  0  0  0  0  0
   27.5533   14.6351    2.8806 C   0  0  0  0  0  0  0  0  0  0  0  0
   28.3998   13.6314    2.1079 C   0  0  0  0  0  0  0  0  0  0  0  0
   28.4462   12.0207    2.9415 S   0  0  0  0  0  0  0  0  0  0  0  0
   30.0240   11.7453    3.3746 O   0  0  0  0  0  0  0  0  0  0  0  0
   28.0869   10.9959    1.5071 C   0  0  0  0  0  0  0  0  0  0  0  0
   26.6301   11.0990    1.1611 C   0  0  0  0  0  0  0  0  0  0  0  0
   26.3426   12.2527    0.5275 F   0  0  0  0  0  0  0  0  0  0  0  0
   26.2818   10.1108    0.3206 F   0  0  0  0  0  0  0  0  0  0  0  0
   25.8338   11.0165    2.2408 F   0  0  0  0  0  0  0  0  0  0  0  0
   23.9217   14.3452    1.4430 C   0  0  0  0  0  0  0  0  0  0  0  0
   23.6673   13.5544    0.3614 F   0  0  0  0  0  0  0  0  0  0  0  0
   23.7946   13.4930    2.4996 F   0  0  0  0  0  0  0  0  0  0  0  0
   22.8901   15.4144    1.5744 C   0  0  0  0  0  0  0  0  0  0  0  0
   22.9919   16.6144    2.1185 N   0  0  0  0  0  0  0  0  0  0  0  0
   21.7466   17.1743    2.0299 C   0  0  0  0  0  0  0  0  0  0  0  0
   20.8603   16.2974    1.4552 C   0  0  0  0  0  0  0  0  0  0  0  0
   21.5969   15.1832    1.1696 N   0  0  0  0  0  0  0  0  0  0  0  0
  1  2  2  0
  2  3  1  0
  3  4  1  0
  4  5  1  0
  5  6  1  0
  6  7  1  6
  6  8  1  0
  8  9  1  0
  9 10  1  0
  9 11  1  0
  9 12  1  0
  2 13  1  0
 13 14  1  0
 13 15  1  0
 13 16  1  0
 16 17  2  0
 17 18  1  0
 18 19  2  0
 19 20  1  0
 20 16  1  0
M  CHG  2   6   1   7  -1
M  END
>  <energy_score>  (1666) 
-4.868837

>  <inchikey>  (1666) 
None

>  <smiles>  (1666) 
None

>  <ref_pdb>  (1666) 
A0239a

>  <alias>  (1666) 
None

>  <HIPPO Pose ID>  (1666) 
499310

>  <name>  (1666) 
P499310

>  <HIPPO Compound ID>  (1666) 
301941

>  <ref_mols>  (1666) 
A0239a,A0309a

>  <distance_score>  (1666) 
1.95467

>  <inspiration_score>  (1666) 
None

$$$$
P499311
     RDKit          3D

 20 20  0  0  0  0  0  0  0  0999 V2000
   24.3422   14.7236   -0.8675 O   0  0  0  0  0  0  0  0  0  0  0  0
   24.5641   14.5884    0.2757 C   0  0  0  0  0  0  0  0  0  0  0  0
   25.9216   14.5772    1.0480 N   0  0  0  0  0  0  0  0  0  0  0  0
   27.2703   14.6339    0.5616 C   0  0  0  0  0  0  0  0  0  0  0  0
   27.8397   13.2210    0.5201 C   0  0  0  0  0  0  0  0  0  0  0  0
   28.2797   12.6636    2.1870 S   0  0  0  0  0  0  0  0  0  0  0  0
   26.9661   12.8564    3.1654 O   0  0  0  0  0  0  0  0  0  0  0  0
   28.5133   10.9224    1.8158 C   0  0  0  0  0  0  0  0  0  0  0  0
   27.2812   10.2122    1.3194 C   0  0  0  0  0  0  0  0  0  0  0  0
   27.4101    8.8727    1.5264 F   0  0  0  0  0  0  0  0  0  0  0  0
   27.1550   10.3603   -0.0226 F   0  0  0  0  0  0  0  0  0  0  0  0
   26.1374   10.6130    1.8900 F   0  0  0  0  0  0  0  0  0  0  0  0
   23.4704   14.2684    1.3299 C   0  0  0  0  0  0  0  0  0  0  0  0
   24.0219   13.7440    2.4647 F   0  0  0  0  0  0  0  0  0  0  0  0
   22.6021   13.3150    0.8624 F   0  0  0  0  0  0  0  0  0  0  0  0
   22.6969   15.5023    1.6505 C   0  0  0  0  0  0  0  0  0  0  0  0
   23.1245   16.7293    1.8898 N   0  0  0  0  0  0  0  0  0  0  0  0
   22.0001   17.4770    2.1155 C   0  0  0  0  0  0  0  0  0  0  0  0
   20.8709   16.7003    2.0258 C   0  0  0  0  0  0  0  0  0  0  0  0
   21.3268   15.4454    1.7454 N   0  0  0  0  0  0  0  0  0  0  0  0
  1  2  2  0
  2  3  1  0
  3  4  1  0
  4  5  1  0
  5  6  1  0
  6  7  1  1
  6  8  1  0
  8  9  1  0
  9 10  1  0
  9 11  1  0
  9 12  1  0
  2 13  1  0
 13 14  1  0
 13 15  1  0
 13 16  1  0
 16 17  2  0
 17 18  1  0
 18 19  2  0
 19 20  1  0
 20 16  1  0
M  CHG  2   6   1   7  -1
M  END
>  <energy_score>  (1667) 
-14.976075

>  <inchikey>  (1667) 
None

>  <smiles>  (1667) 
None

>  <ref_pdb>  (1667) 
A0239a

>  <alias>  (1667) 
None

>  <HIPPO Pose ID>  (1667) 
499311

>  <name>  (1667) 
P499311

>  <HIPPO Compound ID>  (1667) 
301941

>  <ref_mols>  (1667) 
A0239a,A0309a

>  <distance_score>  (1667) 
1.647108

>  <inspiration_score>  (1667) 
None

$$$$
P499312
     RDKit          3D

 21 22  0  0  0  0  0  0  0  0999 V2000
   26.2936   15.3978    2.9595 O   0  0  0  0  0  0  0  0  0  0  0  0
   25.4566   14.8178    2.3883 C   0  0  0  0  0  0  0  0  0  0  0  0
   25.5548   13.6255    1.4027 N   0  0  0  0  0  0  0  0  0  0  0  0
   26.6910   12.8437    0.9925 C   0  0  0  0  0  0  0  0  0  0  0  0
   27.3688   12.1885    2.1970 C   0  0  0  0  0  0  0  0  0  0  0  0
   28.3757   10.7605    1.7428 S   0  0  0  0  0  0  0  0  0  0  0  0
   27.4316    9.7802    0.7930 O   0  0  0  0  0  0  0  0  0  0  0  0
   29.6291   11.5394    0.7036 C   0  0  0  0  0  0  0  0  0  0  0  0
   30.5892   12.3964    1.4873 C   0  0  0  0  0  0  0  0  0  0  0  0
   31.6388   12.7488    0.7068 F   0  0  0  0  0  0  0  0  0  0  0  0
   30.0038   13.5424    1.8953 F   0  0  0  0  0  0  0  0  0  0  0  0
   31.0810   11.7699    2.5734 F   0  0  0  0  0  0  0  0  0  0  0  0
   23.9692   15.1218    2.6387 C   0  0  2  0  0  0  0  0  0  0  0  0
   23.1907   13.9009    3.1513 C   0  0  0  0  0  0  0  0  0  0  0  0
   21.7024   14.2474    3.2196 C   0  0  0  0  0  0  0  0  0  0  0  0
   21.1513   14.4734    1.8274 C   0  0  0  0  0  0  0  0  0  0  0  0
   21.9616   15.4743    1.1628 N   0  0  0  0  0  0  0  0  0  0  0  0
   21.5280   16.3831    0.2507 C   0  0  0  0  0  0  0  0  0  0  0  0
   22.6262   17.1699    0.0010 C   0  0  0  0  0  0  0  0  0  0  0  0
   23.7025   16.7642    0.7442 N   0  0  0  0  0  0  0  0  0  0  0  0
   23.2771   15.7550    1.4712 C   0  0  0  0  0  0  0  0  0  0  0  0
  1  2  2  0
  2  3  1  0
  3  4  1  0
  4  5  1  0
  5  6  1  0
  6  7  1  6
  6  8  1  0
  8  9  1  0
  9 10  1  0
  9 11  1  0
  9 12  1  0
 13  2  1  6
 13 14  1  0
 14 15  1  0
 15 16  1  0
 16 17  1  0
 17 18  1  0
 18 19  2  0
 19 20  1  0
 20 21  2  0
 21 13  1  0
 21 17  1  0
M  CHG  2   6   1   7  -1
M  END
>  <energy_score>  (1668) 
-21.743383

>  <inchikey>  (1668) 
None

>  <smiles>  (1668) 
None

>  <ref_pdb>  (1668) 
A0239a

>  <alias>  (1668) 
None

>  <HIPPO Pose ID>  (1668) 
499312

>  <name>  (1668) 
P499312

>  <HIPPO Compound ID>  (1668) 
301942

>  <ref_mols>  (1668) 
A0239a,A0309a

>  <distance_score>  (1668) 
1.847191

>  <inspiration_score>  (1668) 
None

$$$$
P499313
     RDKit          3D

 21 22  0  0  0  0  0  0  0  0999 V2000
   25.5896   16.0339    2.6653 O   0  0  0  0  0  0  0  0  0  0  0  0
   25.3091   14.9755    2.2549 C   0  0  0  0  0  0  0  0  0  0  0  0
   26.1537   13.6654    2.1774 N   0  0  0  0  0  0  0  0  0  0  0  0
   27.5356   13.4246    2.5007 C   0  0  0  0  0  0  0  0  0  0  0  0
   27.8325   11.9944    2.9261 C   0  0  0  0  0  0  0  0  0  0  0  0
   27.8797   10.7867    1.5810 S   0  0  0  0  0  0  0  0  0  0  0  0
   26.4588   10.8975    0.7378 O   0  0  0  0  0  0  0  0  0  0  0  0
   29.2133   11.4544    0.5570 C   0  0  0  0  0  0  0  0  0  0  0  0
   30.5099   11.6355    1.3035 C   0  0  0  0  0  0  0  0  0  0  0  0
   30.4864   12.7632    2.0499 F   0  0  0  0  0  0  0  0  0  0  0  0
   30.7714   10.6037    2.1265 F   0  0  0  0  0  0  0  0  0  0  0  0
   31.5379   11.7572    0.4337 F   0  0  0  0  0  0  0  0  0  0  0  0
   23.8901   14.6141    1.7615 C   0  0  1  0  0  0  0  0  0  0  0  0
   23.1227   14.0327    2.9531 C   0  0  0  0  0  0  0  0  0  0  0  0
   21.6164   13.9917    2.7013 C   0  0  0  0  0  0  0  0  0  0  0  0
   21.0305   15.3501    2.3939 C   0  0  0  0  0  0  0  0  0  0  0  0
   21.8694   16.0938    1.4919 N   0  0  0  0  0  0  0  0  0  0  0  0
   21.5136   17.2385    0.8514 C   0  0  0  0  0  0  0  0  0  0  0  0
   22.6393   17.6008    0.1553 C   0  0  0  0  0  0  0  0  0  0  0  0
   23.6466   16.6913    0.3422 N   0  0  0  0  0  0  0  0  0  0  0  0
   23.1826   15.8125    1.2052 C   0  0  0  0  0  0  0  0  0  0  0  0
  1  2  2  0
  2  3  1  0
  3  4  1  0
  4  5  1  0
  5  6  1  0
  6  7  1  6
  6  8  1  0
  8  9  1  0
  9 10  1  0
  9 11  1  0
  9 12  1  0
 13  2  1  1
 13 14  1  0
 14 15  1  0
 15 16  1  0
 16 17  1  0
 17 18  1  0
 18 19  2  0
 19 20  1  0
 20 21  2  0
 21 13  1  0
 21 17  1  0
M  CHG  2   6   1   7  -1
M  END
>  <energy_score>  (1669) 
-27.532326

>  <inchikey>  (1669) 
None

>  <smiles>  (1669) 
None

>  <ref_pdb>  (1669) 
A0239a

>  <alias>  (1669) 
None

>  <HIPPO Pose ID>  (1669) 
499313

>  <name>  (1669) 
P499313

>  <HIPPO Compound ID>  (1669) 
301942

>  <ref_mols>  (1669) 
A0239a,A0309a

>  <distance_score>  (1669) 
1.787631

>  <inspiration_score>  (1669) 
None

$$$$
P499314
     RDKit          3D

 21 22  0  0  0  0  0  0  0  0999 V2000
   25.5368   15.8921    2.7077 O   0  0  0  0  0  0  0  0  0  0  0  0
   25.3902   14.8696    2.1598 C   0  0  0  0  0  0  0  0  0  0  0  0
   26.3248   13.6194    2.0839 N   0  0  0  0  0  0  0  0  0  0  0  0
   27.6588   13.4189    2.5859 C   0  0  0  0  0  0  0  0  0  0  0  0
   28.0226   11.9566    2.8330 C   0  0  0  0  0  0  0  0  0  0  0  0
   27.9133   10.8756    1.3709 S   0  0  0  0  0  0  0  0  0  0  0  0
   26.3893   11.0521    0.7437 O   0  0  0  0  0  0  0  0  0  0  0  0
   29.0844   11.7568    0.3063 C   0  0  0  0  0  0  0  0  0  0  0  0
   29.2795   11.0446   -1.0085 C   0  0  0  0  0  0  0  0  0  0  0  0
   28.1756   11.0658   -1.7819 F   0  0  0  0  0  0  0  0  0  0  0  0
   29.6512    9.7581   -0.8450 F   0  0  0  0  0  0  0  0  0  0  0  0
   30.2676   11.6500   -1.7140 F   0  0  0  0  0  0  0  0  0  0  0  0
   24.1050   14.4835    1.3888 C   0  0  1  0  0  0  0  0  0  0  0  0
   23.3111   13.4514    2.2030 C   0  0  0  0  0  0  0  0  0  0  0  0
   22.3683   14.1404    3.1970 C   0  0  0  0  0  0  0  0  0  0  0  0
   21.3176   14.9255    2.4405 C   0  0  0  0  0  0  0  0  0  0  0  0
   21.9818   15.8527    1.5572 N   0  0  0  0  0  0  0  0  0  0  0  0
   21.4919   17.0433    1.1243 C   0  0  0  0  0  0  0  0  0  0  0  0
   22.5015   17.5625    0.3520 C   0  0  0  0  0  0  0  0  0  0  0  0
   23.5694   16.7030    0.2905 N   0  0  0  0  0  0  0  0  0  0  0  0
   23.2583   15.6871    1.0681 C   0  0  0  0  0  0  0  0  0  0  0  0
  1  2  2  0
  2  3  1  0
  3  4  1  0
  4  5  1  0
  5  6  1  0
  6  7  1  6
  6  8  1  0
  8  9  1  0
  9 10  1  0
  9 11  1  0
  9 12  1  0
 13  2  1  1
 13 14  1  0
 14 15  1  0
 15 16  1  0
 16 17  1  0
 17 18  1  0
 18 19  2  0
 19 20  1  0
 20 21  2  0
 21 13  1  0
 21 17  1  0
M  CHG  2   6   1   7  -1
M  END
>  <energy_score>  (1670) 
-3.924627

>  <inchikey>  (1670) 
None

>  <smiles>  (1670) 
None

>  <ref_pdb>  (1670) 
A0239a

>  <alias>  (1670) 
None

>  <HIPPO Pose ID>  (1670) 
499314

>  <name>  (1670) 
P499314

>  <HIPPO Compound ID>  (1670) 
301942

>  <ref_mols>  (1670) 
A0239a,A0309a

>  <distance_score>  (1670) 
1.883287

>  <inspiration_score>  (1670) 
None

$$$$
P499315
     RDKit          3D

 21 22  0  0  0  0  0  0  0  0999 V2000
   25.4895   15.6839    0.2795 O   0  0  0  0  0  0  0  0  0  0  0  0
   25.1924   15.0262    1.1974 C   0  0  0  0  0  0  0  0  0  0  0  0
   25.8682   13.7532    1.7862 N   0  0  0  0  0  0  0  0  0  0  0  0
   26.9820   12.9859    1.3095 C   0  0  0  0  0  0  0  0  0  0  0  0
   27.5374   12.0150    2.3429 C   0  0  0  0  0  0  0  0  0  0  0  0
   28.4049   10.6448    1.5170 S   0  0  0  0  0  0  0  0  0  0  0  0
   28.9864   11.2307    0.0927 O   0  0  0  0  0  0  0  0  0  0  0  0
   26.9257    9.7166    1.0734 C   0  0  0  0  0  0  0  0  0  0  0  0
   27.2700    8.3845    0.4640 C   0  0  0  0  0  0  0  0  0  0  0  0
   27.8788    7.5908    1.3805 F   0  0  0  0  0  0  0  0  0  0  0  0
   28.0511    8.4668   -0.6266 F   0  0  0  0  0  0  0  0  0  0  0  0
   26.1485    7.7325    0.0774 F   0  0  0  0  0  0  0  0  0  0  0  0
   24.0128   15.3093    2.1641 C   0  0  2  0  0  0  0  0  0  0  0  0
   23.4623   14.0465    2.6404 O   0  0  0  0  0  0  0  0  0  0  0  0
   22.2032   14.2628    3.2762 C   0  0  0  0  0  0  0  0  0  0  0  0
   21.1582   14.5587    2.2222 C   0  0  0  0  0  0  0  0  0  0  0  0
   21.6137   15.7468    1.5355 N   0  0  0  0  0  0  0  0  0  0  0  0
   20.8513   16.7440    1.0197 C   0  0  0  0  0  0  0  0  0  0  0  0
   21.7517   17.7388    0.7230 C   0  0  0  0  0  0  0  0  0  0  0  0
   23.0242   17.3689    1.0685 N   0  0  0  0  0  0  0  0  0  0  0  0
   22.9347   16.1350    1.5213 C   0  0  0  0  0  0  0  0  0  0  0  0
  1  2  2  0
  2  3  1  0
  3  4  1  0
  4  5  1  0
  5  6  1  0
  6  7  1  6
  6  8  1  0
  8  9  1  0
  9 10  1  0
  9 11  1  0
  9 12  1  0
 13  2  1  6
 13 14  1  0
 14 15  1  0
 15 16  1  0
 16 17  1  0
 17 18  1  0
 18 19  2  0
 19 20  1  0
 20 21  2  0
 21 13  1  0
 21 17  1  0
M  CHG  2   6   1   7  -1
M  END
>  <energy_score>  (1671) 
-16.970493

>  <inchikey>  (1671) 
None

>  <smiles>  (1671) 
None

>  <ref_pdb>  (1671) 
A0239a

>  <alias>  (1671) 
None

>  <HIPPO Pose ID>  (1671) 
499315

>  <name>  (1671) 
P499315

>  <HIPPO Compound ID>  (1671) 
301943

>  <ref_mols>  (1671) 
A0239a,A0309a

>  <distance_score>  (1671) 
1.603846

>  <inspiration_score>  (1671) 
None

$$$$
P499316
     RDKit          3D

 21 22  0  0  0  0  0  0  0  0999 V2000
   25.5962   16.0200    1.9739 O   0  0  0  0  0  0  0  0  0  0  0  0
   25.2741   14.9268    2.2328 C   0  0  0  0  0  0  0  0  0  0  0  0
   26.1239   13.6236    2.3459 N   0  0  0  0  0  0  0  0  0  0  0  0
   27.5164   13.3908    2.0710 C   0  0  0  0  0  0  0  0  0  0  0  0
   28.0608   12.0969    2.6596 C   0  0  0  0  0  0  0  0  0  0  0  0
   27.9154   10.6733    1.5622 S   0  0  0  0  0  0  0  0  0  0  0  0
   26.6205   10.8354    0.5569 O   0  0  0  0  0  0  0  0  0  0  0  0
   29.4617   10.7698    0.6432 C   0  0  0  0  0  0  0  0  0  0  0  0
   29.7481   12.0472   -0.0944 C   0  0  0  0  0  0  0  0  0  0  0  0
   29.9993   13.0671    0.7546 F   0  0  0  0  0  0  0  0  0  0  0  0
   30.8618   11.8915   -0.8544 F   0  0  0  0  0  0  0  0  0  0  0  0
   28.7562   12.4165   -0.9246 F   0  0  0  0  0  0  0  0  0  0  0  0
   23.8384   14.4951    2.6567 C   0  0  2  0  0  0  0  0  0  0  0  0
   23.4838   13.2188    2.0773 O   0  0  0  0  0  0  0  0  0  0  0  0
   22.9987   13.3297    0.7343 C   0  0  0  0  0  0  0  0  0  0  0  0
   21.6355   14.0087    0.7653 C   0  0  0  0  0  0  0  0  0  0  0  0
   21.7770   15.2705    1.4538 N   0  0  0  0  0  0  0  0  0  0  0  0
   20.9943   16.3760    1.3444 C   0  0  0  0  0  0  0  0  0  0  0  0
   21.5885   17.2966    2.1738 C   0  0  0  0  0  0  0  0  0  0  0  0
   22.6819   16.7566    2.7986 N   0  0  0  0  0  0  0  0  0  0  0  0
   22.8021   15.5304    2.3275 C   0  0  0  0  0  0  0  0  0  0  0  0
  1  2  2  0
  2  3  1  0
  3  4  1  0
  4  5  1  0
  5  6  1  0
  6  7  1  6
  6  8  1  0
  8  9  1  0
  9 10  1  0
  9 11  1  0
  9 12  1  0
 13  2  1  6
 13 14  1  0
 14 15  1  0
 15 16  1  0
 16 17  1  0
 17 18  1  0
 18 19  2  0
 19 20  1  0
 20 21  2  0
 21 13  1  0
 21 17  1  0
M  CHG  2   6   1   7  -1
M  END
>  <energy_score>  (1672) 
-3.906243

>  <inchikey>  (1672) 
None

>  <smiles>  (1672) 
None

>  <ref_pdb>  (1672) 
A0239a

>  <alias>  (1672) 
None

>  <HIPPO Pose ID>  (1672) 
499316

>  <name>  (1672) 
P499316

>  <HIPPO Compound ID>  (1672) 
301943

>  <ref_mols>  (1672) 
A0239a,A0309a

>  <distance_score>  (1672) 
1.534325

>  <inspiration_score>  (1672) 
None

$$$$
P499317
     RDKit          3D

 21 22  0  0  0  0  0  0  0  0999 V2000
   25.3801   15.1193    0.7954 O   0  0  0  0  0  0  0  0  0  0  0  0
   24.6132   14.2502    0.9348 C   0  0  0  0  0  0  0  0  0  0  0  0
   24.8366   12.7097    1.0083 N   0  0  0  0  0  0  0  0  0  0  0  0
   26.0260   11.9346    0.8312 C   0  0  0  0  0  0  0  0  0  0  0  0
   27.0127   12.0511    1.9816 C   0  0  0  0  0  0  0  0  0  0  0  0
   28.4567   11.0374    1.5469 S   0  0  0  0  0  0  0  0  0  0  0  0
   27.8849    9.4845    1.4204 O   0  0  0  0  0  0  0  0  0  0  0  0
   29.3236   11.3046    3.1099 C   0  0  0  0  0  0  0  0  0  0  0  0
   30.6817   10.6555    3.1135 C   0  0  0  0  0  0  0  0  0  0  0  0
   31.2751   10.8603    4.3178 F   0  0  0  0  0  0  0  0  0  0  0  0
   30.6473    9.3305    2.8975 F   0  0  0  0  0  0  0  0  0  0  0  0
   31.4804   11.2303    2.1841 F   0  0  0  0  0  0  0  0  0  0  0  0
   23.0689   14.3914    0.9851 C   0  0  1  0  0  0  0  0  0  0  0  0
   22.5010   13.5231    2.0019 O   0  0  0  0  0  0  0  0  0  0  0  0
   21.8693   14.2096    3.0903 C   0  0  0  0  0  0  0  0  0  0  0  0
   20.7332   15.0388    2.5304 C   0  0  0  0  0  0  0  0  0  0  0  0
   21.3837   16.0542    1.7373 N   0  0  0  0  0  0  0  0  0  0  0  0
   21.1091   17.3781    1.6703 C   0  0  0  0  0  0  0  0  0  0  0  0
   22.1500   17.8969    0.9376 C   0  0  0  0  0  0  0  0  0  0  0  0
   23.0256   16.9107    0.5599 N   0  0  0  0  0  0  0  0  0  0  0  0
   22.5601   15.7952    1.0797 C   0  0  0  0  0  0  0  0  0  0  0  0
  1  2  2  0
  2  3  1  0
  3  4  1  0
  4  5  1  0
  5  6  1  0
  6  7  1  1
  6  8  1  0
  8  9  1  0
  9 10  1  0
  9 11  1  0
  9 12  1  0
 13  2  1  1
 13 14  1  0
 14 15  1  0
 15 16  1  0
 16 17  1  0
 17 18  1  0
 18 19  2  0
 19 20  1  0
 20 21  2  0
 21 13  1  0
 21 17  1  0
M  CHG  2   6   1   7  -1
M  END
>  <energy_score>  (1673) 
-9.29424

>  <inchikey>  (1673) 
None

>  <smiles>  (1673) 
None

>  <ref_pdb>  (1673) 
A0239a

>  <alias>  (1673) 
None

>  <HIPPO Pose ID>  (1673) 
499317

>  <name>  (1673) 
P499317

>  <HIPPO Compound ID>  (1673) 
301943

>  <ref_mols>  (1673) 
A0239a,A0309a

>  <distance_score>  (1673) 
1.425353

>  <inspiration_score>  (1673) 
None

$$$$
P499318
     RDKit          3D

 21 22  0  0  0  0  0  0  0  0999 V2000
   25.8262   14.9586    1.1409 O   0  0  0  0  0  0  0  0  0  0  0  0
   24.9372   14.2240    1.3343 C   0  0  0  0  0  0  0  0  0  0  0  0
   24.9121   12.8354    2.0344 N   0  0  0  0  0  0  0  0  0  0  0  0
   25.9891   12.0286    2.5523 C   0  0  0  0  0  0  0  0  0  0  0  0
   27.3298   12.3104    1.8829 C   0  0  0  0  0  0  0  0  0  0  0  0
   28.3747   10.8419    1.9371 S   0  0  0  0  0  0  0  0  0  0  0  0
   27.6178    9.6545    1.0646 O   0  0  0  0  0  0  0  0  0  0  0  0
   29.7994   11.4762    1.0324 C   0  0  0  0  0  0  0  0  0  0  0  0
   29.6752   11.3947   -0.4665 C   0  0  0  0  0  0  0  0  0  0  0  0
   29.6628   10.1264   -0.9273 F   0  0  0  0  0  0  0  0  0  0  0  0
   30.7514   11.9988   -1.0380 F   0  0  0  0  0  0  0  0  0  0  0  0
   28.5851   12.0329   -0.9395 F   0  0  0  0  0  0  0  0  0  0  0  0
   23.4904   14.4658    0.8043 C   0  0  1  0  0  0  0  0  0  0  0  0
   22.6488   13.2892    0.8973 O   0  0  0  0  0  0  0  0  0  0  0  0
   21.2976   13.5789    0.5134 C   0  0  0  0  0  0  0  0  0  0  0  0
   20.6494   14.4290    1.5955 C   0  0  0  0  0  0  0  0  0  0  0  0
   21.4975   15.5734    1.8424 N   0  0  0  0  0  0  0  0  0  0  0  0
   21.1264   16.7868    2.3273 C   0  0  0  0  0  0  0  0  0  0  0  0
   22.2843   17.5268    2.3181 C   0  0  0  0  0  0  0  0  0  0  0  0
   23.3254   16.7975    1.8069 N   0  0  0  0  0  0  0  0  0  0  0  0
   22.8350   15.6070    1.5259 C   0  0  0  0  0  0  0  0  0  0  0  0
  1  2  2  0
  2  3  1  0
  3  4  1  0
  4  5  1  0
  5  6  1  0
  6  7  1  6
  6  8  1  0
  8  9  1  0
  9 10  1  0
  9 11  1  0
  9 12  1  0
 13  2  1  1
 13 14  1  0
 14 15  1  0
 15 16  1  0
 16 17  1  0
 17 18  1  0
 18 19  2  0
 19 20  1  0
 20 21  2  0
 21 13  1  0
 21 17  1  0
M  CHG  2   6   1   7  -1
M  END
>  <energy_score>  (1674) 
-16.735824

>  <inchikey>  (1674) 
None

>  <smiles>  (1674) 
None

>  <ref_pdb>  (1674) 
A0239a

>  <alias>  (1674) 
None

>  <HIPPO Pose ID>  (1674) 
499318

>  <name>  (1674) 
P499318

>  <HIPPO Compound ID>  (1674) 
301943

>  <ref_mols>  (1674) 
A0239a,A0309a

>  <distance_score>  (1674) 
1.388637

>  <inspiration_score>  (1674) 
None

$$$$
P499319
     RDKit          3D

 21 21  0  0  0  0  0  0  0  0999 V2000
   24.5680   17.1707    2.3774 C   0  0  0  0  0  0  0  0  0  0  0  0
   23.2290   16.7277    2.0710 N   0  0  0  0  0  0  0  0  0  0  0  0
   22.1255   17.5298    2.2145 C   0  0  0  0  0  0  0  0  0  0  0  0
   21.0557   16.7454    1.8749 C   0  0  0  0  0  0  0  0  0  0  0  0
   21.4733   15.4953    1.5287 N   0  0  0  0  0  0  0  0  0  0  0  0
   22.7980   15.5008    1.6091 C   0  0  0  0  0  0  0  0  0  0  0  0
   23.6587   14.2758    1.3247 C   0  0  0  0  0  0  0  0  0  0  0  0
   24.0675   13.6666    2.6809 C   0  0  0  0  0  0  0  0  0  0  0  0
   22.8129   13.2839    0.5011 C   0  0  0  0  0  0  0  0  0  0  0  0
   24.9122   14.6413    0.4613 C   0  0  0  0  0  0  0  0  0  0  0  0
   25.0628   15.6953   -0.0200 O   0  0  0  0  0  0  0  0  0  0  0  0
   25.8393   13.3909    0.4595 N   0  0  0  0  0  0  0  0  0  0  0  0
   27.1664   13.2190   -0.0488 C   0  0  0  0  0  0  0  0  0  0  0  0
   28.2215   13.4306    1.0216 C   0  0  0  0  0  0  0  0  0  0  0  0
   28.1868   12.3068    2.4474 S   0  0  0  0  0  0  0  0  0  0  0  0
   29.5713   12.6209    3.3093 O   0  0  0  0  0  0  0  0  0  0  0  0
   28.4653   10.7656    1.5498 C   0  0  0  0  0  0  0  0  0  0  0  0
   27.1587   10.1011    1.1989 C   0  0  0  0  0  0  0  0  0  0  0  0
   27.0209   10.0183   -0.1468 F   0  0  0  0  0  0  0  0  0  0  0  0
   27.1189    8.8302    1.6616 F   0  0  0  0  0  0  0  0  0  0  0  0
   26.0780   10.7629    1.6655 F   0  0  0  0  0  0  0  0  0  0  0  0
  1  2  1  0
  2  3  1  0
  3  4  2  0
  4  5  1  0
  5  6  2  0
  6  7  1  0
  7  8  1  0
  7  9  1  0
  7 10  1  0
 10 11  2  0
 10 12  1  0
 12 13  1  0
 13 14  1  0
 14 15  1  0
 15 16  1  1
 15 17  1  0
 17 18  1  0
 18 19  1  0
 18 20  1  0
 18 21  1  0
  6  2  1  0
M  CHG  2  15   1  16  -1
M  END
>  <energy_score>  (1675) 
-25.710252

>  <inchikey>  (1675) 
None

>  <smiles>  (1675) 
None

>  <ref_pdb>  (1675) 
A0239a

>  <alias>  (1675) 
None

>  <HIPPO Pose ID>  (1675) 
499319

>  <name>  (1675) 
P499319

>  <HIPPO Compound ID>  (1675) 
301944

>  <ref_mols>  (1675) 
A0239a,A0309a

>  <distance_score>  (1675) 
1.753639

>  <inspiration_score>  (1675) 
None

$$$$
P499320
     RDKit          3D

 21 21  0  0  0  0  0  0  0  0999 V2000
   24.2359   17.3694    1.8995 C   0  0  0  0  0  0  0  0  0  0  0  0
   22.9739   16.6689    1.9546 N   0  0  0  0  0  0  0  0  0  0  0  0
   21.8547   17.2171    2.5268 C   0  0  0  0  0  0  0  0  0  0  0  0
   20.8895   16.2505    2.4445 C   0  0  0  0  0  0  0  0  0  0  0  0
   21.3819   15.1396    1.8352 N   0  0  0  0  0  0  0  0  0  0  0  0
   22.6203   15.4251    1.4609 C   0  0  0  0  0  0  0  0  0  0  0  0
   23.3839   14.5518    0.4925 C   0  0  0  0  0  0  0  0  0  0  0  0
   24.5785   15.2143   -0.2037 C   0  0  0  0  0  0  0  0  0  0  0  0
   22.3870   14.1063   -0.6026 C   0  0  0  0  0  0  0  0  0  0  0  0
   23.9910   13.2955    1.1338 C   0  0  0  0  0  0  0  0  0  0  0  0
   23.8338   12.2391    0.6618 O   0  0  0  0  0  0  0  0  0  0  0  0
   24.8521   13.7361    2.3462 N   0  0  0  0  0  0  0  0  0  0  0  0
   25.7636   12.9881    3.1607 C   0  0  0  0  0  0  0  0  0  0  0  0
   26.4667   11.9991    2.2528 C   0  0  0  0  0  0  0  0  0  0  0  0
   28.0889   11.5055    2.8301 S   0  0  0  0  0  0  0  0  0  0  0  0
   28.9915   12.8807    3.0681 O   0  0  0  0  0  0  0  0  0  0  0  0
   28.6507   10.7972    1.2595 C   0  0  0  0  0  0  0  0  0  0  0  0
   27.7500    9.7453    0.6681 C   0  0  0  0  0  0  0  0  0  0  0  0
   26.5680   10.2210    0.2428 F   0  0  0  0  0  0  0  0  0  0  0  0
   27.5250    8.7199    1.5179 F   0  0  0  0  0  0  0  0  0  0  0  0
   28.3523    9.2093   -0.4262 F   0  0  0  0  0  0  0  0  0  0  0  0
  1  2  1  0
  2  3  1  0
  3  4  2  0
  4  5  1  0
  5  6  2  0
  6  7  1  0
  7  8  1  0
  7  9  1  0
  7 10  1  0
 10 11  2  0
 10 12  1  0
 12 13  1  0
 13 14  1  0
 14 15  1  0
 15 16  1  6
 15 17  1  0
 17 18  1  0
 18 19  1  0
 18 20  1  0
 18 21  1  0
  6  2  1  0
M  CHG  2  15   1  16  -1
M  END
>  <energy_score>  (1676) 
-12.699315

>  <inchikey>  (1676) 
None

>  <smiles>  (1676) 
None

>  <ref_pdb>  (1676) 
A0239a

>  <alias>  (1676) 
None

>  <HIPPO Pose ID>  (1676) 
499320

>  <name>  (1676) 
P499320

>  <HIPPO Compound ID>  (1676) 
301944

>  <ref_mols>  (1676) 
A0239a,A0309a

>  <distance_score>  (1676) 
1.290632

>  <inspiration_score>  (1676) 
None

$$$$
P499321
     RDKit          3D

 21 22  0  0  0  0  0  0  0  0999 V2000
   24.0452   13.7200    2.9648 C   0  0  0  0  0  0  0  0  0  0  0  0
   23.8760   14.4713    1.6526 C   0  0  1  0  0  0  0  0  0  0  0  0
   25.2385   15.0048    1.1269 C   0  0  0  0  0  0  0  0  0  0  0  0
   25.4563   16.1353    0.9321 O   0  0  0  0  0  0  0  0  0  0  0  0
   26.1544   13.7581    0.9556 N   0  0  0  0  0  0  0  0  0  0  0  0
   27.4789   13.6443    0.4248 C   0  0  0  0  0  0  0  0  0  0  0  0
   28.5368   13.5832    1.5067 C   0  0  0  0  0  0  0  0  0  0  0  0
   28.4151   12.2403    2.7174 S   0  0  0  0  0  0  0  0  0  0  0  0
   29.8540   12.2376    3.5477 O   0  0  0  0  0  0  0  0  0  0  0  0
   28.4709   10.8512    1.5751 C   0  0  0  0  0  0  0  0  0  0  0  0
   27.0830   10.3995    1.2061 C   0  0  0  0  0  0  0  0  0  0  0  0
   26.0990   11.0505    1.8605 F   0  0  0  0  0  0  0  0  0  0  0  0
   26.8553   10.6178   -0.1105 F   0  0  0  0  0  0  0  0  0  0  0  0
   26.9424    9.0726    1.4232 F   0  0  0  0  0  0  0  0  0  0  0  0
   23.1631   13.6553    0.5209 C   0  0  0  0  0  0  0  0  0  0  0  0
   22.4367   14.7189   -0.3316 C   0  0  0  0  0  0  0  0  0  0  0  0
   22.1564   15.7330    0.6617 N   0  0  0  0  0  0  0  0  0  0  0  0
   21.2020   16.6569    0.8589 C   0  0  0  0  0  0  0  0  0  0  0  0
   21.3997   17.0428    2.1702 C   0  0  0  0  0  0  0  0  0  0  0  0
   22.4287   16.3345    2.7578 N   0  0  0  0  0  0  0  0  0  0  0  0
   22.8960   15.5863    1.7928 C   0  0  0  0  0  0  0  0  0  0  0  0
  2  1  1  1
  2  3  1  0
  3  4  2  0
  3  5  1  0
  5  6  1  0
  6  7  1  0
  7  8  1  0
  8  9  1  1
  8 10  1  0
 10 11  1  0
 11 12  1  0
 11 13  1  0
 11 14  1  0
  2 15  1  0
 15 16  1  0
 16 17  1  0
 17 18  1  0
 18 19  2  0
 19 20  1  0
 20 21  2  0
 21  2  1  0
 21 17  1  0
M  CHG  2   8   1   9  -1
M  END
>  <energy_score>  (1677) 
-11.913783

>  <inchikey>  (1677) 
None

>  <smiles>  (1677) 
None

>  <ref_pdb>  (1677) 
A0239a

>  <alias>  (1677) 
None

>  <HIPPO Pose ID>  (1677) 
499321

>  <name>  (1677) 
P499321

>  <HIPPO Compound ID>  (1677) 
301945

>  <ref_mols>  (1677) 
A0239a,A0309a

>  <distance_score>  (1677) 
1.93449

>  <inspiration_score>  (1677) 
None

$$$$
P499322
     RDKit          3D

 21 22  0  0  0  0  0  0  0  0999 V2000
   19.6763   15.4483    2.3337 C   0  0  0  0  0  0  0  0  0  0  0  0
   21.0942   15.7005    1.9981 C   0  0  0  0  0  0  0  0  0  0  0  0
   21.8861   16.8000    2.2998 C   0  0  0  0  0  0  0  0  0  0  0  0
   23.0704   16.4988    1.7415 N   0  0  0  0  0  0  0  0  0  0  0  0
   22.9825   15.3037    1.1021 C   0  0  0  0  0  0  0  0  0  0  0  0
   21.8021   14.7650    1.2597 N   0  0  0  0  0  0  0  0  0  0  0  0
   24.2256   15.0049    0.3588 C   0  0  2  0  0  0  0  0  0  0  0  0
   24.7887   13.6108    0.5997 C   0  0  0  0  0  0  0  0  0  0  0  0
   25.1252   12.9351   -0.2925 O   0  0  0  0  0  0  0  0  0  0  0  0
   24.8986   13.3828    2.1307 N   0  0  0  0  0  0  0  0  0  0  0  0
   25.5250   12.3298    2.8709 C   0  0  0  0  0  0  0  0  0  0  0  0
   27.0217   12.5215    3.0257 C   0  0  0  0  0  0  0  0  0  0  0  0
   27.9978   12.5905    1.5095 S   0  0  0  0  0  0  0  0  0  0  0  0
   29.3275   13.5348    1.8307 O   0  0  0  0  0  0  0  0  0  0  0  0
   28.5629   10.8790    1.4913 C   0  0  0  0  0  0  0  0  0  0  0  0
   27.5823    9.9866    0.7891 C   0  0  0  0  0  0  0  0  0  0  0  0
   27.6123    8.7443    1.3401 F   0  0  0  0  0  0  0  0  0  0  0  0
   27.9039    9.8399   -0.5159 F   0  0  0  0  0  0  0  0  0  0  0  0
   26.3201   10.4299    0.8562 F   0  0  0  0  0  0  0  0  0  0  0  0
   25.2042   16.0905    0.8900 C   0  0  0  0  0  0  0  0  0  0  0  0
   24.3407   17.1654    1.5735 C   0  0  0  0  0  0  0  0  0  0  0  0
  1  2  1  0
  2  3  2  0
  3  4  1  0
  4  5  1  0
  5  6  2  0
  5  7  1  0
  7  8  1  1
  8  9  2  0
  8 10  1  0
 10 11  1  0
 11 12  1  0
 12 13  1  0
 13 14  1  1
 13 15  1  0
 15 16  1  0
 16 17  1  0
 16 18  1  0
 16 19  1  0
  7 20  1  0
 20 21  1  0
  6  2  1  0
 21  4  1  0
M  CHG  2  13   1  14  -1
M  END
>  <energy_score>  (1678) 
-14.625753

>  <inchikey>  (1678) 
None

>  <smiles>  (1678) 
None

>  <ref_pdb>  (1678) 
A0239a

>  <alias>  (1678) 
None

>  <HIPPO Pose ID>  (1678) 
499322

>  <name>  (1678) 
P499322

>  <HIPPO Compound ID>  (1678) 
301946

>  <ref_mols>  (1678) 
A0239a,A0309a

>  <distance_score>  (1678) 
1.613903

>  <inspiration_score>  (1678) 
None

$$$$
P499323
     RDKit          3D

 21 22  0  0  0  0  0  0  0  0999 V2000
   19.2840   17.0670    1.7246 C   0  0  0  0  0  0  0  0  0  0  0  0
   20.6913   16.6583    1.9259 C   0  0  0  0  0  0  0  0  0  0  0  0
   21.7955   17.4554    2.2033 C   0  0  0  0  0  0  0  0  0  0  0  0
   22.8083   16.5778    2.2709 N   0  0  0  0  0  0  0  0  0  0  0  0
   22.3358   15.3262    2.0337 C   0  0  0  0  0  0  0  0  0  0  0  0
   21.0414   15.3176    1.8555 N   0  0  0  0  0  0  0  0  0  0  0  0
   23.4132   14.3314    2.1243 C   0  0  1  0  0  0  0  0  0  0  0  0
   24.0116   14.0337    0.7527 C   0  0  0  0  0  0  0  0  0  0  0  0
   23.8870   14.7096   -0.1888 O   0  0  0  0  0  0  0  0  0  0  0  0
   24.8524   12.7513    0.9622 N   0  0  0  0  0  0  0  0  0  0  0  0
   25.7773   12.0977    0.0937 C   0  0  0  0  0  0  0  0  0  0  0  0
   27.1896   12.6080    0.3634 C   0  0  0  0  0  0  0  0  0  0  0  0
   27.7821   12.2484    2.0519 S   0  0  0  0  0  0  0  0  0  0  0  0
   28.9486   13.3719    2.4131 O   0  0  0  0  0  0  0  0  0  0  0  0
   28.6458   10.7095    1.6562 C   0  0  0  0  0  0  0  0  0  0  0  0
   27.6747    9.6466    1.2349 C   0  0  0  0  0  0  0  0  0  0  0  0
   28.1693    8.4061    1.4656 F   0  0  0  0  0  0  0  0  0  0  0  0
   26.5131    9.7167    1.9092 F   0  0  0  0  0  0  0  0  0  0  0  0
   27.4076    9.7116   -0.0871 F   0  0  0  0  0  0  0  0  0  0  0  0
   24.5026   15.1227    2.9083 C   0  0  0  0  0  0  0  0  0  0  0  0
   24.2200   16.6094    2.5925 C   0  0  0  0  0  0  0  0  0  0  0  0
  1  2  1  0
  2  3  2  0
  3  4  1  0
  4  5  1  0
  5  6  2  0
  5  7  1  0
  7  8  1  6
  8  9  2  0
  8 10  1  0
 10 11  1  0
 11 12  1  0
 12 13  1  0
 13 14  1  6
 13 15  1  0
 15 16  1  0
 16 17  1  0
 16 18  1  0
 16 19  1  0
  7 20  1  0
 20 21  1  0
  6  2  1  0
 21  4  1  0
M  CHG  2  13   1  14  -1
M  END
>  <energy_score>  (1679) 
-17.933439

>  <inchikey>  (1679) 
None

>  <smiles>  (1679) 
None

>  <ref_pdb>  (1679) 
A0239a

>  <alias>  (1679) 
None

>  <HIPPO Pose ID>  (1679) 
499323

>  <name>  (1679) 
P499323

>  <HIPPO Compound ID>  (1679) 
301946

>  <ref_mols>  (1679) 
A0239a,A0309a

>  <distance_score>  (1679) 
1.420886

>  <inspiration_score>  (1679) 
None

$$$$
P499324
     RDKit          3D

 21 22  0  0  0  0  0  0  0  0999 V2000
   19.0514   16.8967    1.3798 C   0  0  0  0  0  0  0  0  0  0  0  0
   20.5099   16.7961    1.6047 C   0  0  0  0  0  0  0  0  0  0  0  0
   21.3737   17.7410    2.1441 C   0  0  0  0  0  0  0  0  0  0  0  0
   22.5646   17.1249    2.1259 N   0  0  0  0  0  0  0  0  0  0  0  0
   22.4226   15.8836    1.5997 C   0  0  0  0  0  0  0  0  0  0  0  0
   21.1881   15.6425    1.2456 N   0  0  0  0  0  0  0  0  0  0  0  0
   23.7167   15.1883    1.5465 C   0  0  2  0  0  0  0  0  0  0  0  0
   23.8160   14.1668    2.6749 C   0  0  0  0  0  0  0  0  0  0  0  0
   22.9489   13.8650    3.3906 O   0  0  0  0  0  0  0  0  0  0  0  0
   25.2489   13.6045    2.5462 N   0  0  0  0  0  0  0  0  0  0  0  0
   25.8727   12.5031    3.1997 C   0  0  0  0  0  0  0  0  0  0  0  0
   26.0933   11.4242    2.1621 C   0  0  0  0  0  0  0  0  0  0  0  0
   27.3448   11.9431    0.9477 S   0  0  0  0  0  0  0  0  0  0  0  0
   27.3935   13.6017    0.8647 O   0  0  0  0  0  0  0  0  0  0  0  0
   28.7597   11.3568    1.8783 C   0  0  0  0  0  0  0  0  0  0  0  0
   29.0632    9.9831    1.3818 C   0  0  0  0  0  0  0  0  0  0  0  0
   28.0109    9.1353    1.4530 F   0  0  0  0  0  0  0  0  0  0  0  0
   30.0605    9.4300    2.1063 F   0  0  0  0  0  0  0  0  0  0  0  0
   29.4695   10.0083    0.0909 F   0  0  0  0  0  0  0  0  0  0  0  0
   24.7181   16.3593    1.7415 C   0  0  0  0  0  0  0  0  0  0  0  0
   23.9272   17.4506    2.4812 C   0  0  0  0  0  0  0  0  0  0  0  0
  1  2  1  0
  2  3  2  0
  3  4  1  0
  4  5  1  0
  5  6  2  0
  5  7  1  0
  7  8  1  1
  8  9  2  0
  8 10  1  0
 10 11  1  0
 11 12  1  0
 12 13  1  0
 13 14  1  1
 13 15  1  0
 15 16  1  0
 16 17  1  0
 16 18  1  0
 16 19  1  0
  7 20  1  0
 20 21  1  0
  6  2  1  0
 21  4  1  0
M  CHG  2  13   1  14  -1
M  END
>  <energy_score>  (1680) 
-12.895779

>  <inchikey>  (1680) 
None

>  <smiles>  (1680) 
None

>  <ref_pdb>  (1680) 
A0239a

>  <alias>  (1680) 
None

>  <HIPPO Pose ID>  (1680) 
499324

>  <name>  (1680) 
P499324

>  <HIPPO Compound ID>  (1680) 
301946

>  <ref_mols>  (1680) 
A0239a,A0309a

>  <distance_score>  (1680) 
1.862432

>  <inspiration_score>  (1680) 
None

$$$$
P499325
     RDKit          3D

 21 22  0  0  0  0  0  0  0  0999 V2000
   19.4569   16.6972    1.1387 C   0  0  0  0  0  0  0  0  0  0  0  0
   20.8364   16.3188    1.5148 C   0  0  0  0  0  0  0  0  0  0  0  0
   21.7493   17.0235    2.2882 C   0  0  0  0  0  0  0  0  0  0  0  0
   22.8253   16.2213    2.3113 N   0  0  0  0  0  0  0  0  0  0  0  0
   22.5823   15.1071    1.5672 C   0  0  0  0  0  0  0  0  0  0  0  0
   21.3592   15.0999    1.1036 N   0  0  0  0  0  0  0  0  0  0  0  0
   23.7221   14.1678    1.6401 C   0  0  1  0  0  0  0  0  0  0  0  0
   24.7616   14.4447    0.5445 C   0  0  0  0  0  0  0  0  0  0  0  0
   24.7460   15.3636   -0.1739 O   0  0  0  0  0  0  0  0  0  0  0  0
   25.8142   13.3192    0.7123 N   0  0  0  0  0  0  0  0  0  0  0  0
   27.0968   13.1486    0.1022 C   0  0  0  0  0  0  0  0  0  0  0  0
   28.1728   13.1669    1.1799 C   0  0  0  0  0  0  0  0  0  0  0  0
   28.0554   11.8144    2.3960 S   0  0  0  0  0  0  0  0  0  0  0  0
   26.4705   11.6757    2.8477 O   0  0  0  0  0  0  0  0  0  0  0  0
   28.5133   10.4775    1.2845 C   0  0  0  0  0  0  0  0  0  0  0  0
   27.3666    9.6262    0.8117 C   0  0  0  0  0  0  0  0  0  0  0  0
   27.8091    8.8690   -0.2326 F   0  0  0  0  0  0  0  0  0  0  0  0
   26.3096   10.3133    0.3552 F   0  0  0  0  0  0  0  0  0  0  0  0
   26.9664    8.7484    1.7514 F   0  0  0  0  0  0  0  0  0  0  0  0
   24.3714   14.6351    2.9818 C   0  0  0  0  0  0  0  0  0  0  0  0
   24.0747   16.1522    3.0405 C   0  0  0  0  0  0  0  0  0  0  0  0
  1  2  1  0
  2  3  2  0
  3  4  1  0
  4  5  1  0
  5  6  2  0
  5  7  1  0
  7  8  1  6
  8  9  2  0
  8 10  1  0
 10 11  1  0
 11 12  1  0
 12 13  1  0
 13 14  1  6
 13 15  1  0
 15 16  1  0
 16 17  1  0
 16 18  1  0
 16 19  1  0
  7 20  1  0
 20 21  1  0
  6  2  1  0
 21  4  1  0
M  CHG  2  13   1  14  -1
M  END
>  <energy_score>  (1681) 
-21.258342

>  <inchikey>  (1681) 
None

>  <smiles>  (1681) 
None

>  <ref_pdb>  (1681) 
A0239a

>  <alias>  (1681) 
None

>  <HIPPO Pose ID>  (1681) 
499325

>  <name>  (1681) 
P499325

>  <HIPPO Compound ID>  (1681) 
301946

>  <ref_mols>  (1681) 
A0239a,A0309a

>  <distance_score>  (1681) 
1.817369

>  <inspiration_score>  (1681) 
None

$$$$
P499326
     RDKit          3D

 21 22  0  0  0  0  0  0  0  0999 V2000
   21.9578   18.9042    2.4711 C   0  0  0  0  0  0  0  0  0  0  0  0
   21.8137   17.4568    2.2236 C   0  0  0  0  0  0  0  0  0  0  0  0
   20.7252   16.6642    1.8854 C   0  0  0  0  0  0  0  0  0  0  0  0
   21.0680   15.3291    1.7774 N   0  0  0  0  0  0  0  0  0  0  0  0
   22.3570   15.3279    1.9929 C   0  0  0  0  0  0  0  0  0  0  0  0
   22.8271   16.5691    2.2897 N   0  0  0  0  0  0  0  0  0  0  0  0
   24.2291   16.5788    2.6573 C   0  0  0  0  0  0  0  0  0  0  0  0
   24.4932   15.0806    2.9305 C   0  0  0  0  0  0  0  0  0  0  0  0
   23.4259   14.3242    2.0861 C   0  0  2  0  0  0  0  0  0  0  0  0
   24.0746   14.0671    0.7306 C   0  0  0  0  0  0  0  0  0  0  0  0
   24.0226   14.7932   -0.1799 O   0  0  0  0  0  0  0  0  0  0  0  0
   24.8503   12.7398    0.9117 N   0  0  0  0  0  0  0  0  0  0  0  0
   25.7871   12.0890    0.0527 C   0  0  0  0  0  0  0  0  0  0  0  0
   27.1962   12.6033    0.3359 C   0  0  0  0  0  0  0  0  0  0  0  0
   27.7722   12.2528    2.0325 S   0  0  0  0  0  0  0  0  0  0  0  0
   28.9295   13.3827    2.4025 O   0  0  0  0  0  0  0  0  0  0  0  0
   28.6448   10.7145    1.6546 C   0  0  0  0  0  0  0  0  0  0  0  0
   27.6800    9.6470    1.2305 C   0  0  0  0  0  0  0  0  0  0  0  0
   28.1755    8.4093    1.4710 F   0  0  0  0  0  0  0  0  0  0  0  0
   27.4241    9.7063   -0.0940 F   0  0  0  0  0  0  0  0  0  0  0  0
   26.5129    9.7194    1.8949 F   0  0  0  0  0  0  0  0  0  0  0  0
  1  2  1  0
  2  3  2  0
  3  4  1  0
  4  5  2  0
  5  6  1  0
  6  7  1  0
  7  8  1  0
  8  9  1  0
  9 10  1  6
 10 11  2  0
 10 12  1  0
 12 13  1  0
 13 14  1  0
 14 15  1  0
 15 16  1  6
 15 17  1  0
 17 18  1  0
 18 19  1  0
 18 20  1  0
 18 21  1  0
  6  2  1  0
  9  5  1  0
M  CHG  2  15   1  16  -1
M  END
>  <energy_score>  (1682) 
-26.069836

>  <inchikey>  (1682) 
None

>  <smiles>  (1682) 
None

>  <ref_pdb>  (1682) 
A0239a

>  <alias>  (1682) 
None

>  <HIPPO Pose ID>  (1682) 
499326

>  <name>  (1682) 
P499326

>  <HIPPO Compound ID>  (1682) 
301947

>  <ref_mols>  (1682) 
A0239a,A0309a

>  <distance_score>  (1682) 
1.532489

>  <inspiration_score>  (1682) 
None

$$$$
P499327
     RDKit          3D

 21 22  0  0  0  0  0  0  0  0999 V2000
   21.1552   18.5295    2.5813 C   0  0  0  0  0  0  0  0  0  0  0  0
   21.4564   17.1402    2.1879 C   0  0  0  0  0  0  0  0  0  0  0  0
   20.6697   16.1140    1.6844 C   0  0  0  0  0  0  0  0  0  0  0  0
   21.3981   14.9574    1.4711 N   0  0  0  0  0  0  0  0  0  0  0  0
   22.6215   15.2993    1.7845 C   0  0  0  0  0  0  0  0  0  0  0  0
   22.6786   16.5743    2.2590 N   0  0  0  0  0  0  0  0  0  0  0  0
   23.9770   16.9215    2.7976 C   0  0  0  0  0  0  0  0  0  0  0  0
   24.6136   15.5302    2.9739 C   0  0  0  0  0  0  0  0  0  0  0  0
   23.9493   14.6518    1.8719 C   0  0  2  0  0  0  0  0  0  0  0  0
   24.7303   14.8130    0.5542 C   0  0  0  0  0  0  0  0  0  0  0  0
   24.3063   15.2702   -0.4310 O   0  0  0  0  0  0  0  0  0  0  0  0
   26.1415   14.2624    0.8789 N   0  0  0  0  0  0  0  0  0  0  0  0
   27.3386   14.2492    0.0920 C   0  0  0  0  0  0  0  0  0  0  0  0
   27.9416   12.8612    0.1610 C   0  0  0  0  0  0  0  0  0  0  0  0
   28.5353   12.4866    1.8407 S   0  0  0  0  0  0  0  0  0  0  0  0
   27.3484   12.8673    2.9312 O   0  0  0  0  0  0  0  0  0  0  0  0
   28.6268   10.7018    1.6575 C   0  0  0  0  0  0  0  0  0  0  0  0
   27.3392   10.0527    1.2151 C   0  0  0  0  0  0  0  0  0  0  0  0
   27.2894    8.7650    1.6388 F   0  0  0  0  0  0  0  0  0  0  0  0
   26.2313   10.6875    1.6284 F   0  0  0  0  0  0  0  0  0  0  0  0
   27.2980    9.9865   -0.1410 F   0  0  0  0  0  0  0  0  0  0  0  0
  1  2  1  0
  2  3  2  0
  3  4  1  0
  4  5  2  0
  5  6  1  0
  6  7  1  0
  7  8  1  0
  8  9  1  0
  9 10  1  6
 10 11  2  0
 10 12  1  0
 12 13  1  0
 13 14  1  0
 14 15  1  0
 15 16  1  1
 15 17  1  0
 17 18  1  0
 18 19  1  0
 18 20  1  0
 18 21  1  0
  6  2  1  0
  9  5  1  0
M  CHG  2  15   1  16  -1
M  END
>  <energy_score>  (1683) 
-12.457436

>  <inchikey>  (1683) 
None

>  <smiles>  (1683) 
None

>  <ref_pdb>  (1683) 
A0239a

>  <alias>  (1683) 
None

>  <HIPPO Pose ID>  (1683) 
499327

>  <name>  (1683) 
P499327

>  <HIPPO Compound ID>  (1683) 
301947

>  <ref_mols>  (1683) 
A0239a,A0309a

>  <distance_score>  (1683) 
1.788016

>  <inspiration_score>  (1683) 
None

$$$$
P499328
     RDKit          3D

 21 22  0  0  0  0  0  0  0  0999 V2000
   22.0353   18.4000    2.7233 C   0  0  0  0  0  0  0  0  0  0  0  0
   21.9745   17.0283    2.1811 C   0  0  0  0  0  0  0  0  0  0  0  0
   20.9898   16.0520    2.2064 C   0  0  0  0  0  0  0  0  0  0  0  0
   21.3858   14.9026    1.5500 N   0  0  0  0  0  0  0  0  0  0  0  0
   22.5925   15.1795    1.1306 C   0  0  0  0  0  0  0  0  0  0  0  0
   22.9734   16.4342    1.4950 N   0  0  0  0  0  0  0  0  0  0  0  0
   24.2924   16.8074    1.0355 C   0  0  0  0  0  0  0  0  0  0  0  0
   24.6563   15.6572    0.0739 C   0  0  0  0  0  0  0  0  0  0  0  0
   23.6181   14.5208    0.2974 C   0  0  1  0  0  0  0  0  0  0  0  0
   24.2770   13.3132    0.9581 C   0  0  0  0  0  0  0  0  0  0  0  0
   24.3976   12.3046    0.3807 O   0  0  0  0  0  0  0  0  0  0  0  0
   24.7853   13.7345    2.3627 N   0  0  0  0  0  0  0  0  0  0  0  0
   25.4586   12.9756    3.3750 C   0  0  0  0  0  0  0  0  0  0  0  0
   26.3521   11.8598    2.8616 C   0  0  0  0  0  0  0  0  0  0  0  0
   27.7615   12.5388    1.9563 S   0  0  0  0  0  0  0  0  0  0  0  0
   28.7635   13.3154    3.0246 O   0  0  0  0  0  0  0  0  0  0  0  0
   28.5420   10.9826    1.4966 C   0  0  0  0  0  0  0  0  0  0  0  0
   27.6294   10.1044    0.6877 C   0  0  0  0  0  0  0  0  0  0  0  0
   26.7576   10.7998   -0.0635 F   0  0  0  0  0  0  0  0  0  0  0  0
   28.3563    9.3382   -0.1630 F   0  0  0  0  0  0  0  0  0  0  0  0
   26.9455    9.2489    1.4785 F   0  0  0  0  0  0  0  0  0  0  0  0
  1  2  1  0
  2  3  2  0
  3  4  1  0
  4  5  2  0
  5  6  1  0
  6  7  1  0
  7  8  1  0
  8  9  1  0
  9 10  1  1
 10 11  2  0
 10 12  1  0
 12 13  1  0
 13 14  1  0
 14 15  1  0
 15 16  1  1
 15 17  1  0
 17 18  1  0
 18 19  1  0
 18 20  1  0
 18 21  1  0
  6  2  1  0
  9  5  1  0
M  CHG  2  15   1  16  -1
M  END
>  <energy_score>  (1684) 
-9.420586

>  <inchikey>  (1684) 
None

>  <smiles>  (1684) 
None

>  <ref_pdb>  (1684) 
A0239a

>  <alias>  (1684) 
None

>  <HIPPO Pose ID>  (1684) 
499328

>  <name>  (1684) 
P499328

>  <HIPPO Compound ID>  (1684) 
301947

>  <ref_mols>  (1684) 
A0239a,A0309a

>  <distance_score>  (1684) 
1.311079

>  <inspiration_score>  (1684) 
None

$$$$
P499329
     RDKit          3D

 22 23  0  0  0  0  0  0  0  0999 V2000
   20.0216   18.0599    1.8726 C   0  0  0  0  0  0  0  0  0  0  0  0
   21.2409   17.3450    1.4390 C   0  0  0  0  0  0  0  0  0  0  0  0
   22.3367   17.7714    0.7212 C   0  0  0  0  0  0  0  0  0  0  0  0
   23.2369   16.7556    0.5338 N   0  0  0  0  0  0  0  0  0  0  0  0
   22.7419   15.7126    1.1653 C   0  0  0  0  0  0  0  0  0  0  0  0
   21.5176   16.0364    1.7028 N   0  0  0  0  0  0  0  0  0  0  0  0
   20.7668   15.0984    2.5054 C   0  0  0  0  0  0  0  0  0  0  0  0
   21.7934   14.1946    3.1485 C   0  0  0  0  0  0  0  0  0  0  0  0
   22.4518   13.4823    2.0938 O   0  0  0  0  0  0  0  0  0  0  0  0
   23.3048   14.3275    1.2870 C   0  0  2  0  0  0  0  0  0  0  0  0
   24.7840   14.2832    1.7766 C   0  0  0  0  0  0  0  0  0  0  0  0
   25.5382   15.1742    1.7288 O   0  0  0  0  0  0  0  0  0  0  0  0
   24.9983   12.8012    2.2138 N   0  0  0  0  0  0  0  0  0  0  0  0
   26.2003   12.1015    2.5866 C   0  0  0  0  0  0  0  0  0  0  0  0
   27.3011   12.3434    1.5653 C   0  0  0  0  0  0  0  0  0  0  0  0
   28.5130   11.0089    1.4625 S   0  0  0  0  0  0  0  0  0  0  0  0
   27.6589    9.5864    1.4305 O   0  0  0  0  0  0  0  0  0  0  0  0
   29.2632   11.2921    3.0830 C   0  0  0  0  0  0  0  0  0  0  0  0
   30.5970   10.5992    3.1999 C   0  0  0  0  0  0  0  0  0  0  0  0
   31.5035   11.2000    2.3922 F   0  0  0  0  0  0  0  0  0  0  0  0
   31.0636   10.7224    4.4684 F   0  0  0  0  0  0  0  0  0  0  0  0
   30.5610    9.2905    2.8999 F   0  0  0  0  0  0  0  0  0  0  0  0
  1  2  1  0
  2  3  2  0
  3  4  1  0
  4  5  2  0
  5  6  1  0
  6  7  1  0
  7  8  1  0
  8  9  1  0
  9 10  1  0
 10 11  1  1
 11 12  2  0
 11 13  1  0
 13 14  1  0
 14 15  1  0
 15 16  1  0
 16 17  1  1
 16 18  1  0
 18 19  1  0
 19 20  1  0
 19 21  1  0
 19 22  1  0
  6  2  1  0
 10  5  1  0
M  CHG  2  16   1  17  -1
M  END
>  <energy_score>  (1685) 
-22.214837

>  <inchikey>  (1685) 
None

>  <smiles>  (1685) 
None

>  <ref_pdb>  (1685) 
A0239a

>  <alias>  (1685) 
None

>  <HIPPO Pose ID>  (1685) 
499329

>  <name>  (1685) 
P499329

>  <HIPPO Compound ID>  (1685) 
301948

>  <ref_mols>  (1685) 
A0239a,A0309a

>  <distance_score>  (1685) 
1.492057

>  <inspiration_score>  (1685) 
None

$$$$
P499330
     RDKit          3D

 22 23  0  0  0  0  0  0  0  0999 V2000
   20.1652   17.4623    0.6902 C   0  0  0  0  0  0  0  0  0  0  0  0
   21.3268   16.9745    1.4647 C   0  0  0  0  0  0  0  0  0  0  0  0
   22.2253   17.6376    2.2718 C   0  0  0  0  0  0  0  0  0  0  0  0
   23.1432   16.7735    2.8081 N   0  0  0  0  0  0  0  0  0  0  0  0
   22.8555   15.5862    2.3159 C   0  0  0  0  0  0  0  0  0  0  0  0
   21.7557   15.6781    1.4941 N   0  0  0  0  0  0  0  0  0  0  0  0
   21.2159   14.5355    0.7894 C   0  0  0  0  0  0  0  0  0  0  0  0
   22.3281   13.5115    0.6627 C   0  0  0  0  0  0  0  0  0  0  0  0
   22.7754   13.1930    1.9813 O   0  0  0  0  0  0  0  0  0  0  0  0
   23.4884   14.2653    2.6312 C   0  0  1  0  0  0  0  0  0  0  0  0
   24.9950   14.1459    2.2776 C   0  0  0  0  0  0  0  0  0  0  0  0
   25.6340   14.9646    1.7380 O   0  0  0  0  0  0  0  0  0  0  0  0
   25.3946   12.7178    2.7835 N   0  0  0  0  0  0  0  0  0  0  0  0
   26.6764   12.0598    2.8092 C   0  0  0  0  0  0  0  0  0  0  0  0
   27.4018   12.1480    1.4835 C   0  0  0  0  0  0  0  0  0  0  0  0
   28.4556   10.7244    1.1231 S   0  0  0  0  0  0  0  0  0  0  0  0
   27.5333    9.3603    1.3202 O   0  0  0  0  0  0  0  0  0  0  0  0
   29.6579   10.8596    2.4708 C   0  0  0  0  0  0  0  0  0  0  0  0
   30.6609   11.9552    2.2177 C   0  0  0  0  0  0  0  0  0  0  0  0
   31.2143   11.8730    0.9890 F   0  0  0  0  0  0  0  0  0  0  0  0
   30.0901   13.1761    2.3262 F   0  0  0  0  0  0  0  0  0  0  0  0
   31.6632   11.9099    3.1241 F   0  0  0  0  0  0  0  0  0  0  0  0
  1  2  1  0
  2  3  2  0
  3  4  1  0
  4  5  2  0
  5  6  1  0
  6  7  1  0
  7  8  1  0
  8  9  1  0
  9 10  1  0
 10 11  1  6
 11 12  2  0
 11 13  1  0
 13 14  1  0
 14 15  1  0
 15 16  1  0
 16 17  1  1
 16 18  1  0
 18 19  1  0
 19 20  1  0
 19 21  1  0
 19 22  1  0
  6  2  1  0
 10  5  1  0
M  CHG  2  16   1  17  -1
M  END
>  <energy_score>  (1686) 
-19.120422

>  <inchikey>  (1686) 
None

>  <smiles>  (1686) 
None

>  <ref_pdb>  (1686) 
A0239a

>  <alias>  (1686) 
None

>  <HIPPO Pose ID>  (1686) 
499330

>  <name>  (1686) 
P499330

>  <HIPPO Compound ID>  (1686) 
301948

>  <ref_mols>  (1686) 
A0239a,A0309a

>  <distance_score>  (1686) 
1.612096

>  <inspiration_score>  (1686) 
None

$$$$
P499331
     RDKit          3D

 22 23  0  0  0  0  0  0  0  0999 V2000
   20.0221   17.0400    1.9826 C   0  0  0  0  0  0  0  0  0  0  0  0
   21.3170   16.6580    1.3821 C   0  0  0  0  0  0  0  0  0  0  0  0
   22.0982   17.2819    0.4349 C   0  0  0  0  0  0  0  0  0  0  0  0
   23.2256   16.5521    0.1561 N   0  0  0  0  0  0  0  0  0  0  0  0
   23.1862   15.5016    0.9493 C   0  0  0  0  0  0  0  0  0  0  0  0
   22.0286   15.5363    1.6973 N   0  0  0  0  0  0  0  0  0  0  0  0
   21.7502   14.5451    2.7132 C   0  0  0  0  0  0  0  0  0  0  0  0
   23.0987   14.0243    3.1684 C   0  0  0  0  0  0  0  0  0  0  0  0
   23.7136   13.3950    2.0379 O   0  0  0  0  0  0  0  0  0  0  0  0
   24.1821   14.3724    1.0749 C   0  0  2  0  0  0  0  0  0  0  0  0
   25.6162   14.8450    1.4796 C   0  0  0  0  0  0  0  0  0  0  0  0
   26.0171   15.9385    1.3758 O   0  0  0  0  0  0  0  0  0  0  0  0
   26.3284   13.5504    1.9895 N   0  0  0  0  0  0  0  0  0  0  0  0
   27.6358   13.3676    2.5577 C   0  0  0  0  0  0  0  0  0  0  0  0
   28.0380   11.9205    2.8125 C   0  0  0  0  0  0  0  0  0  0  0  0
   28.0247   10.8224    1.3667 S   0  0  0  0  0  0  0  0  0  0  0  0
   26.4645   10.7153    0.8296 O   0  0  0  0  0  0  0  0  0  0  0  0
   28.9642   11.8572    0.2190 C   0  0  0  0  0  0  0  0  0  0  0  0
   29.2760   11.1131   -1.0546 C   0  0  0  0  0  0  0  0  0  0  0  0
   29.9252    9.9525   -0.8195 F   0  0  0  0  0  0  0  0  0  0  0  0
   28.1784   10.8356   -1.7856 F   0  0  0  0  0  0  0  0  0  0  0  0
   30.0928   11.8639   -1.8358 F   0  0  0  0  0  0  0  0  0  0  0  0
  1  2  1  0
  2  3  2  0
  3  4  1  0
  4  5  2  0
  5  6  1  0
  6  7  1  0
  7  8  1  0
  8  9  1  0
  9 10  1  0
 10 11  1  1
 11 12  2  0
 11 13  1  0
 13 14  1  0
 14 15  1  0
 15 16  1  0
 16 17  1  6
 16 18  1  0
 18 19  1  0
 19 20  1  0
 19 21  1  0
 19 22  1  0
  6  2  1  0
 10  5  1  0
M  CHG  2  16   1  17  -1
M  END
>  <energy_score>  (1687) 
-23.839052

>  <inchikey>  (1687) 
None

>  <smiles>  (1687) 
None

>  <ref_pdb>  (1687) 
A0239a

>  <alias>  (1687) 
None

>  <HIPPO Pose ID>  (1687) 
499331

>  <name>  (1687) 
P499331

>  <HIPPO Compound ID>  (1687) 
301948

>  <ref_mols>  (1687) 
A0239a,A0309a

>  <distance_score>  (1687) 
1.546547

>  <inspiration_score>  (1687) 
None

$$$$
P499332
     RDKit          3D

 22 23  0  0  0  0  0  0  0  0999 V2000
   19.8208   16.8029    0.1065 C   0  0  0  0  0  0  0  0  0  0  0  0
   21.2095   16.6597    0.5957 C   0  0  0  0  0  0  0  0  0  0  0  0
   22.3007   17.4932    0.4839 C   0  0  0  0  0  0  0  0  0  0  0  0
   23.3972   16.9649    1.1085 N   0  0  0  0  0  0  0  0  0  0  0  0
   23.0211   15.7935    1.5786 C   0  0  0  0  0  0  0  0  0  0  0  0
   21.6826   15.5927    1.3050 N   0  0  0  0  0  0  0  0  0  0  0  0
   20.9202   14.5281    1.9287 C   0  0  0  0  0  0  0  0  0  0  0  0
   21.6274   14.2378    3.2310 C   0  0  0  0  0  0  0  0  0  0  0  0
   22.9498   13.7869    2.9426 O   0  0  0  0  0  0  0  0  0  0  0  0
   23.7983   14.8749    2.4858 C   0  0  1  0  0  0  0  0  0  0  0  0
   25.0734   14.3279    1.7714 C   0  0  0  0  0  0  0  0  0  0  0  0
   25.8211   14.9835    1.1590 O   0  0  0  0  0  0  0  0  0  0  0  0
   25.1205   12.8161    2.1301 N   0  0  0  0  0  0  0  0  0  0  0  0
   26.0399   11.7954    1.7311 C   0  0  0  0  0  0  0  0  0  0  0  0
   27.3647   11.8742    2.4772 C   0  0  0  0  0  0  0  0  0  0  0  0
   28.5836   10.7775    1.6925 S   0  0  0  0  0  0  0  0  0  0  0  0
   27.7190    9.5482    0.9789 O   0  0  0  0  0  0  0  0  0  0  0  0
   29.1366   11.9091    0.3871 C   0  0  0  0  0  0  0  0  0  0  0  0
   30.2466   12.8076    0.8721 C   0  0  0  0  0  0  0  0  0  0  0  0
   31.3237   12.1047    1.2798 F   0  0  0  0  0  0  0  0  0  0  0  0
   30.6586   13.6200   -0.1305 F   0  0  0  0  0  0  0  0  0  0  0  0
   29.8590   13.5979    1.8940 F   0  0  0  0  0  0  0  0  0  0  0  0
  1  2  1  0
  2  3  2  0
  3  4  1  0
  4  5  2  0
  5  6  1  0
  6  7  1  0
  7  8  1  0
  8  9  1  0
  9 10  1  0
 10 11  1  6
 11 12  2  0
 11 13  1  0
 13 14  1  0
 14 15  1  0
 15 16  1  0
 16 17  1  6
 16 18  1  0
 18 19  1  0
 19 20  1  0
 19 21  1  0
 19 22  1  0
  6  2  1  0
 10  5  1  0
M  CHG  2  16   1  17  -1
M  END
>  <energy_score>  (1688) 
-36.173394

>  <inchikey>  (1688) 
None

>  <smiles>  (1688) 
None

>  <ref_pdb>  (1688) 
A0239a

>  <alias>  (1688) 
None

>  <HIPPO Pose ID>  (1688) 
499332

>  <name>  (1688) 
P499332

>  <HIPPO Compound ID>  (1688) 
301948

>  <ref_mols>  (1688) 
A0239a,A0309a

>  <distance_score>  (1688) 
1.449411

>  <inspiration_score>  (1688) 
None

$$$$
P499333
     RDKit          3D

 22 23  0  0  0  0  0  0  0  0999 V2000
   24.8411   14.8590    0.2817 O   0  0  0  0  0  0  0  0  0  0  0  0
   24.3534   13.9632    0.8498 C   0  0  0  0  0  0  0  0  0  0  0  0
   24.9320   12.5654    1.2127 N   0  0  0  0  0  0  0  0  0  0  0  0
   26.1818   11.9605    0.8696 C   0  0  0  0  0  0  0  0  0  0  0  0
   27.1831   12.0391    2.0091 C   0  0  0  0  0  0  0  0  0  0  0  0
   28.6107   11.0172    1.5573 S   0  0  0  0  0  0  0  0  0  0  0  0
   28.0088    9.4766    1.4105 O   0  0  0  0  0  0  0  0  0  0  0  0
   29.4692   11.2512    3.1336 C   0  0  0  0  0  0  0  0  0  0  0  0
   30.8060   10.5623    3.1575 C   0  0  0  0  0  0  0  0  0  0  0  0
   30.7331    9.2391    2.9411 F   0  0  0  0  0  0  0  0  0  0  0  0
   31.3845   10.7478    4.3723 F   0  0  0  0  0  0  0  0  0  0  0  0
   31.6359   11.1167    2.2441 F   0  0  0  0  0  0  0  0  0  0  0  0
   22.8927   13.9181    1.3126 C   0  0  2  0  0  0  0  0  0  0  0  0
   22.0751   13.3048    0.1694 C   0  0  0  0  0  0  0  0  0  0  0  0
   20.5725   13.3819    0.4319 C   0  0  0  0  0  0  0  0  0  0  0  0
   20.1098   14.8051    0.7019 C   0  0  0  0  0  0  0  0  0  0  0  0
   21.0510   15.5810    1.4764 N   0  0  0  0  0  0  0  0  0  0  0  0
   20.8208   16.7956    2.0408 C   0  0  0  0  0  0  0  0  0  0  0  0
   19.1772   17.7230    2.1245 Br  0  0  0  0  0  0  0  0  0  0  0  0
   22.0330   17.2015    2.5359 C   0  0  0  0  0  0  0  0  0  0  0  0
   22.9765   16.2221    2.3530 N   0  0  0  0  0  0  0  0  0  0  0  0
   22.3669   15.2571    1.6947 C   0  0  0  0  0  0  0  0  0  0  0  0
  1  2  2  0
  2  3  1  0
  3  4  1  0
  4  5  1  0
  5  6  1  0
  6  7  1  1
  6  8  1  0
  8  9  1  0
  9 10  1  0
  9 11  1  0
  9 12  1  0
 13  2  1  6
 13 14  1  0
 14 15  1  0
 15 16  1  0
 16 17  1  0
 17 18  1  0
 18 19  1  0
 18 20  2  0
 20 21  1  0
 21 22  2  0
 22 13  1  0
 22 17  1  0
M  CHG  2   6   1   7  -1
M  END
>  <energy_score>  (1689) 
-30.088179

>  <inchikey>  (1689) 
None

>  <smiles>  (1689) 
None

>  <ref_pdb>  (1689) 
A0239a

>  <alias>  (1689) 
None

>  <HIPPO Pose ID>  (1689) 
499333

>  <name>  (1689) 
P499333

>  <HIPPO Compound ID>  (1689) 
301949

>  <ref_mols>  (1689) 
A0239a,A0309a

>  <distance_score>  (1689) 
1.664176

>  <inspiration_score>  (1689) 
None

$$$$
P499334
     RDKit          3D

 22 23  0  0  0  0  0  0  0  0999 V2000
   24.9557   14.9832    0.4027 O   0  0  0  0  0  0  0  0  0  0  0  0
   24.4916   14.0667    0.9580 C   0  0  0  0  0  0  0  0  0  0  0  0
   25.1118   12.6847    1.3147 N   0  0  0  0  0  0  0  0  0  0  0  0
   26.3852   12.1232    0.9785 C   0  0  0  0  0  0  0  0  0  0  0  0
   27.2950   11.9299    2.1813 C   0  0  0  0  0  0  0  0  0  0  0  0
   28.5896   10.7180    1.8117 S   0  0  0  0  0  0  0  0  0  0  0  0
   27.8397    9.4394    1.0705 O   0  0  0  0  0  0  0  0  0  0  0  0
   29.5736   11.6671    0.6352 C   0  0  0  0  0  0  0  0  0  0  0  0
   29.4234   11.2256   -0.7978 C   0  0  0  0  0  0  0  0  0  0  0  0
   29.8411    9.9615   -1.0100 F   0  0  0  0  0  0  0  0  0  0  0  0
   28.1567   11.3423   -1.2471 F   0  0  0  0  0  0  0  0  0  0  0  0
   30.1880   12.0222   -1.5909 F   0  0  0  0  0  0  0  0  0  0  0  0
   23.0253   13.9741    1.4046 C   0  0  2  0  0  0  0  0  0  0  0  0
   22.2516   13.3209    0.2497 C   0  0  0  0  0  0  0  0  0  0  0  0
   20.7390   13.3860    0.4496 C   0  0  0  0  0  0  0  0  0  0  0  0
   20.2492   14.8078    0.6627 C   0  0  0  0  0  0  0  0  0  0  0  0
   21.1373   15.5999    1.4808 N   0  0  0  0  0  0  0  0  0  0  0  0
   20.8558   16.8074    2.0375 C   0  0  0  0  0  0  0  0  0  0  0  0
   19.1880   17.6950    2.0650 Br  0  0  0  0  0  0  0  0  0  0  0  0
   22.0389   17.2424    2.5758 C   0  0  0  0  0  0  0  0  0  0  0  0
   23.0103   16.2839    2.4339 N   0  0  0  0  0  0  0  0  0  0  0  0
   22.4492   15.3022    1.7570 C   0  0  0  0  0  0  0  0  0  0  0  0
  1  2  2  0
  2  3  1  0
  3  4  1  0
  4  5  1  0
  5  6  1  0
  6  7  1  6
  6  8  1  0
  8  9  1  0
  9 10  1  0
  9 11  1  0
  9 12  1  0
 13  2  1  6
 13 14  1  0
 14 15  1  0
 15 16  1  0
 16 17  1  0
 17 18  1  0
 18 19  1  0
 18 20  2  0
 20 21  1  0
 21 22  2  0
 22 13  1  0
 22 17  1  0
M  CHG  2   6   1   7  -1
M  END
>  <energy_score>  (1690) 
-0.999835

>  <inchikey>  (1690) 
None

>  <smiles>  (1690) 
None

>  <ref_pdb>  (1690) 
A0239a

>  <alias>  (1690) 
None

>  <HIPPO Pose ID>  (1690) 
499334

>  <name>  (1690) 
P499334

>  <HIPPO Compound ID>  (1690) 
301949

>  <ref_mols>  (1690) 
A0239a,A0309a

>  <distance_score>  (1690) 
1.527227

>  <inspiration_score>  (1690) 
None

$$$$
P499335
     RDKit          3D

 22 23  0  0  0  0  0  0  0  0999 V2000
   25.6752   16.3073    2.6588 O   0  0  0  0  0  0  0  0  0  0  0  0
   25.3914   15.2371    2.2844 C   0  0  0  0  0  0  0  0  0  0  0  0
   26.2277   13.9185    2.2634 N   0  0  0  0  0  0  0  0  0  0  0  0
   27.6079   13.6795    2.6107 C   0  0  0  0  0  0  0  0  0  0  0  0
   27.9981   12.2009    2.5199 C   0  0  0  0  0  0  0  0  0  0  0  0
   27.8721   11.6887    0.7756 S   0  0  0  0  0  0  0  0  0  0  0  0
   26.2536   11.5854    0.4305 O   0  0  0  0  0  0  0  0  0  0  0  0
   28.5367   10.0313    0.9032 C   0  0  0  0  0  0  0  0  0  0  0  0
   27.4412    9.0040    0.9934 C   0  0  0  0  0  0  0  0  0  0  0  0
   27.9720    7.7966    1.3261 F   0  0  0  0  0  0  0  0  0  0  0  0
   26.5687    9.2889    1.9763 F   0  0  0  0  0  0  0  0  0  0  0  0
   26.7774    8.8246   -0.1645 F   0  0  0  0  0  0  0  0  0  0  0  0
   23.9850   14.8322    1.7825 C   0  0  1  0  0  0  0  0  0  0  0  0
   23.3109   14.0606    2.9218 C   0  0  0  0  0  0  0  0  0  0  0  0
   21.8277   13.8557    2.6776 C   0  0  0  0  0  0  0  0  0  0  0  0
   21.0474   15.1125    2.4256 C   0  0  0  0  0  0  0  0  0  0  0  0
   21.7942   16.0641    1.6567 N   0  0  0  0  0  0  0  0  0  0  0  0
   21.2893   17.2204    1.1579 C   0  0  0  0  0  0  0  0  0  0  0  0
   19.5019   17.8309    1.3027 Br  0  0  0  0  0  0  0  0  0  0  0  0
   22.3509   17.8280    0.5432 C   0  0  0  0  0  0  0  0  0  0  0  0
   23.4809   17.0479    0.6455 N   0  0  0  0  0  0  0  0  0  0  0  0
   23.1390   16.0046    1.3753 C   0  0  0  0  0  0  0  0  0  0  0  0
  1  2  2  0
  2  3  1  0
  3  4  1  0
  4  5  1  0
  5  6  1  0
  6  7  1  1
  6  8  1  0
  8  9  1  0
  9 10  1  0
  9 11  1  0
  9 12  1  0
 13  2  1  1
 13 14  1  0
 14 15  1  0
 15 16  1  0
 16 17  1  0
 17 18  1  0
 18 19  1  0
 18 20  2  0
 20 21  1  0
 21 22  2  0
 22 13  1  0
 22 17  1  0
M  CHG  2   6   1   7  -1
M  END
>  <energy_score>  (1691) 
-4.015643

>  <inchikey>  (1691) 
None

>  <smiles>  (1691) 
None

>  <ref_pdb>  (1691) 
A0239a

>  <alias>  (1691) 
None

>  <HIPPO Pose ID>  (1691) 
499335

>  <name>  (1691) 
P499335

>  <HIPPO Compound ID>  (1691) 
301949

>  <ref_mols>  (1691) 
A0239a,A0309a

>  <distance_score>  (1691) 
1.844282

>  <inspiration_score>  (1691) 
None

$$$$
P499336
     RDKit          3D

 22 23  0  0  0  0  0  0  0  0999 V2000
   24.6854   14.1771    3.5320 O   0  0  0  0  0  0  0  0  0  0  0  0
   25.1622   14.2814    2.4695 C   0  0  0  0  0  0  0  0  0  0  0  0
   26.5767   13.8721    1.9521 N   0  0  0  0  0  0  0  0  0  0  0  0
   27.7125   13.3430    2.6595 C   0  0  0  0  0  0  0  0  0  0  0  0
   27.6905   11.8369    2.9098 C   0  0  0  0  0  0  0  0  0  0  0  0
   27.7729   10.7744    1.4403 S   0  0  0  0  0  0  0  0  0  0  0  0
   26.5664   11.2031    0.4011 O   0  0  0  0  0  0  0  0  0  0  0  0
   29.3712   11.2912    0.7771 C   0  0  0  0  0  0  0  0  0  0  0  0
   29.5475   10.8603   -0.6597 C   0  0  0  0  0  0  0  0  0  0  0  0
   30.8446   11.0188   -1.0284 F   0  0  0  0  0  0  0  0  0  0  0  0
   28.8146   11.6108   -1.5099 F   0  0  0  0  0  0  0  0  0  0  0  0
   29.2404    9.5639   -0.8677 F   0  0  0  0  0  0  0  0  0  0  0  0
   24.4345   14.9121    1.2562 C   0  0  1  0  0  0  0  0  0  0  0  0
   23.9222   13.8376    0.2943 C   0  0  0  0  0  0  0  0  0  0  0  0
   22.6943   13.1459    0.8664 C   0  0  0  0  0  0  0  0  0  0  0  0
   21.5439   14.1064    1.1663 C   0  0  0  0  0  0  0  0  0  0  0  0
   21.9941   15.3806    1.6750 N   0  0  0  0  0  0  0  0  0  0  0  0
   21.2143   16.4428    2.0238 C   0  0  0  0  0  0  0  0  0  0  0  0
   19.3243   16.5364    2.1117 Br  0  0  0  0  0  0  0  0  0  0  0  0
   22.0921   17.4693    2.2645 C   0  0  0  0  0  0  0  0  0  0  0  0
   23.3841   17.0668    2.0354 N   0  0  0  0  0  0  0  0  0  0  0  0
   23.3060   15.7945    1.6979 C   0  0  0  0  0  0  0  0  0  0  0  0
  1  2  2  0
  2  3  1  0
  3  4  1  0
  4  5  1  0
  5  6  1  0
  6  7  1  6
  6  8  1  0
  8  9  1  0
  9 10  1  0
  9 11  1  0
  9 12  1  0
 13  2  1  1
 13 14  1  0
 14 15  1  0
 15 16  1  0
 16 17  1  0
 17 18  1  0
 18 19  1  0
 18 20  2  0
 20 21  1  0
 21 22  2  0
 22 13  1  0
 22 17  1  0
M  CHG  2   6   1   7  -1
M  END
>  <energy_score>  (1692) 
-21.872544

>  <inchikey>  (1692) 
None

>  <smiles>  (1692) 
None

>  <ref_pdb>  (1692) 
A0239a

>  <alias>  (1692) 
None

>  <HIPPO Pose ID>  (1692) 
499336

>  <name>  (1692) 
P499336

>  <HIPPO Compound ID>  (1692) 
301949

>  <ref_mols>  (1692) 
A0239a,A0309a

>  <distance_score>  (1692) 
1.941696

>  <inspiration_score>  (1692) 
None

$$$$
P499337
     RDKit          3D

 22 23  0  0  0  0  0  0  0  0999 V2000
   25.0841   13.4203   -0.1297 O   0  0  0  0  0  0  0  0  0  0  0  0
   24.7082   13.5740    0.9683 C   0  0  0  0  0  0  0  0  0  0  0  0
   25.4974   13.5929    2.3114 N   0  0  0  0  0  0  0  0  0  0  0  0
   26.8940   13.3321    2.5837 C   0  0  0  0  0  0  0  0  0  0  0  0
   27.2591   11.8506    2.6872 C   0  0  0  0  0  0  0  0  0  0  0  0
   26.9473   10.9309    1.1634 S   0  0  0  0  0  0  0  0  0  0  0  0
   27.3559    9.3431    1.3476 O   0  0  0  0  0  0  0  0  0  0  0  0
   28.0685   11.7258    0.0005 C   0  0  0  0  0  0  0  0  0  0  0  0
   29.5265   11.6659    0.3628 C   0  0  0  0  0  0  0  0  0  0  0  0
   29.9662   10.4130    0.5694 F   0  0  0  0  0  0  0  0  0  0  0  0
   29.8055   12.4122    1.4533 F   0  0  0  0  0  0  0  0  0  0  0  0
   30.2631   12.1810   -0.6559 F   0  0  0  0  0  0  0  0  0  0  0  0
   23.1960   13.7592    1.3080 C   0  0  2  0  0  0  0  0  0  0  0  0
   22.3514   13.4669    0.0515 C   0  0  0  0  0  0  0  0  0  0  0  0
   20.8365   13.2734    0.2189 C   0  0  0  0  0  0  0  0  0  0  0  0
   20.0192   14.3691    0.8931 C   0  0  0  0  0  0  0  0  0  0  0  0
   20.4981   14.7489    2.2818 C   0  0  0  0  0  0  0  0  0  0  0  0
   21.6888   15.5655    2.2097 N   0  0  0  0  0  0  0  0  0  0  0  0
   21.7366   16.9084    2.4423 C   0  0  0  0  0  0  0  0  0  0  0  0
   23.0428   17.2583    2.2130 C   0  0  0  0  0  0  0  0  0  0  0  0
   23.7708   16.1695    1.8165 N   0  0  0  0  0  0  0  0  0  0  0  0
   22.9301   15.1553    1.7854 C   0  0  0  0  0  0  0  0  0  0  0  0
  1  2  2  0
  2  3  1  0
  3  4  1  0
  4  5  1  0
  5  6  1  0
  6  7  1  1
  6  8  1  0
  8  9  1  0
  9 10  1  0
  9 11  1  0
  9 12  1  0
 13  2  1  6
 13 14  1  0
 14 15  1  0
 15 16  1  0
 16 17  1  0
 17 18  1  0
 18 19  1  0
 19 20  2  0
 20 21  1  0
 21 22  2  0
 22 13  1  0
 22 18  1  0
M  CHG  2   6   1   7  -1
M  END
>  <energy_score>  (1693) 
-12.089703

>  <inchikey>  (1693) 
None

>  <smiles>  (1693) 
None

>  <ref_pdb>  (1693) 
A0239a

>  <alias>  (1693) 
None

>  <HIPPO Pose ID>  (1693) 
499337

>  <name>  (1693) 
P499337

>  <HIPPO Compound ID>  (1693) 
301950

>  <ref_mols>  (1693) 
A0239a,A0309a

>  <distance_score>  (1693) 
1.510908

>  <inspiration_score>  (1693) 
None

$$$$
P499338
     RDKit          3D

 22 23  0  0  0  0  0  0  0  0999 V2000
   25.9727   14.3687   -0.3876 O   0  0  0  0  0  0  0  0  0  0  0  0
   25.2751   14.2113    0.5378 C   0  0  0  0  0  0  0  0  0  0  0  0
   25.6056   13.7271    1.9758 N   0  0  0  0  0  0  0  0  0  0  0  0
   26.8769   13.4285    2.5969 C   0  0  0  0  0  0  0  0  0  0  0  0
   27.1405   11.9350    2.7978 C   0  0  0  0  0  0  0  0  0  0  0  0
   27.8019   11.1471    1.2965 S   0  0  0  0  0  0  0  0  0  0  0  0
   27.1999    9.6007    1.2362 O   0  0  0  0  0  0  0  0  0  0  0  0
   29.5473   11.0173    1.7978 C   0  0  0  0  0  0  0  0  0  0  0  0
   30.2462   12.3492    1.8207 C   0  0  0  0  0  0  0  0  0  0  0  0
   29.7822   13.1362    2.8178 F   0  0  0  0  0  0  0  0  0  0  0  0
   30.0998   13.0205    0.6596 F   0  0  0  0  0  0  0  0  0  0  0  0
   31.5729   12.1933    2.0307 F   0  0  0  0  0  0  0  0  0  0  0  0
   23.7423   14.3925    0.4052 C   0  0  1  0  0  0  0  0  0  0  0  0
   23.0232   13.0508    0.4937 C   0  0  0  0  0  0  0  0  0  0  0  0
   21.5806   13.1473   -0.0199 C   0  0  0  0  0  0  0  0  0  0  0  0
   20.5502   13.7230    0.9598 C   0  0  0  0  0  0  0  0  0  0  0  0
   21.1114   14.3773    2.2106 C   0  0  0  0  0  0  0  0  0  0  0  0
   21.9927   15.4910    1.9458 N   0  0  0  0  0  0  0  0  0  0  0  0
   21.7519   16.7632    2.3869 C   0  0  0  0  0  0  0  0  0  0  0  0
   22.8805   17.4710    2.0716 C   0  0  0  0  0  0  0  0  0  0  0  0
   23.7697   16.6774    1.4059 N   0  0  0  0  0  0  0  0  0  0  0  0
   23.2073   15.4884    1.2889 C   0  0  0  0  0  0  0  0  0  0  0  0
  1  2  2  0
  2  3  1  0
  3  4  1  0
  4  5  1  0
  5  6  1  0
  6  7  1  1
  6  8  1  0
  8  9  1  0
  9 10  1  0
  9 11  1  0
  9 12  1  0
 13  2  1  1
 13 14  1  0
 14 15  1  0
 15 16  1  0
 16 17  1  0
 17 18  1  0
 18 19  1  0
 19 20  2  0
 20 21  1  0
 21 22  2  0
 22 13  1  0
 22 18  1  0
M  CHG  2   6   1   7  -1
M  END
>  <energy_score>  (1694) 
-19.130875

>  <inchikey>  (1694) 
None

>  <smiles>  (1694) 
None

>  <ref_pdb>  (1694) 
A0239a

>  <alias>  (1694) 
None

>  <HIPPO Pose ID>  (1694) 
499338

>  <name>  (1694) 
P499338

>  <HIPPO Compound ID>  (1694) 
301950

>  <ref_mols>  (1694) 
A0239a,A0309a

>  <distance_score>  (1694) 
1.632199

>  <inspiration_score>  (1694) 
None

$$$$
P499339
     RDKit          3D

 22 23  0  0  0  0  0  0  0  0999 V2000
   24.5345   14.7283    3.1550 O   0  0  0  0  0  0  0  0  0  0  0  0
   24.5171   14.5677    1.9986 C   0  0  0  0  0  0  0  0  0  0  0  0
   25.6120   14.0180    1.0422 N   0  0  0  0  0  0  0  0  0  0  0  0
   26.9071   13.4696    1.3266 C   0  0  0  0  0  0  0  0  0  0  0  0
   26.8549   12.4054    2.4250 C   0  0  0  0  0  0  0  0  0  0  0  0
   27.8790   10.9711    2.0379 S   0  0  0  0  0  0  0  0  0  0  0  0
   27.4535   10.4578    0.5236 O   0  0  0  0  0  0  0  0  0  0  0  0
   29.4584   11.8480    1.9938 C   0  0  0  0  0  0  0  0  0  0  0  0
   30.5837   10.9150    1.6538 C   0  0  0  0  0  0  0  0  0  0  0  0
   31.7595   11.5826    1.7580 F   0  0  0  0  0  0  0  0  0  0  0  0
   30.4802   10.4738    0.3818 F   0  0  0  0  0  0  0  0  0  0  0  0
   30.6280    9.8630    2.4926 F   0  0  0  0  0  0  0  0  0  0  0  0
   23.2555   14.7921    1.1147 C   0  0  1  0  0  0  0  0  0  0  0  0
   22.5643   13.4379    1.1133 C   0  0  0  0  0  0  0  0  0  0  0  0
   21.2371   13.3862    0.3764 C   0  0  0  0  0  0  0  0  0  0  0  0
   20.1075   13.8832    1.2640 C   0  0  0  0  0  0  0  0  0  0  0  0
   20.0249   15.3896    1.2476 C   0  0  0  0  0  0  0  0  0  0  0  0
   21.1384   16.1326    1.7930 N   0  0  0  0  0  0  0  0  0  0  0  0
   20.9337   17.3638    2.3701 C   0  0  0  0  0  0  0  0  0  0  0  0
   22.1723   17.9335    2.4724 C   0  0  0  0  0  0  0  0  0  0  0  0
   23.1170   17.0898    1.9827 N   0  0  0  0  0  0  0  0  0  0  0  0
   22.5002   15.9655    1.6559 C   0  0  0  0  0  0  0  0  0  0  0  0
  1  2  2  0
  2  3  1  0
  3  4  1  0
  4  5  1  0
  5  6  1  0
  6  7  1  6
  6  8  1  0
  8  9  1  0
  9 10  1  0
  9 11  1  0
  9 12  1  0
 13  2  1  1
 13 14  1  0
 14 15  1  0
 15 16  1  0
 16 17  1  0
 17 18  1  0
 18 19  1  0
 19 20  2  0
 20 21  1  0
 21 22  2  0
 22 13  1  0
 22 18  1  0
M  CHG  2   6   1   7  -1
M  END
>  <energy_score>  (1695) 
-32.609677

>  <inchikey>  (1695) 
None

>  <smiles>  (1695) 
None

>  <ref_pdb>  (1695) 
A0239a

>  <alias>  (1695) 
None

>  <HIPPO Pose ID>  (1695) 
499339

>  <name>  (1695) 
P499339

>  <HIPPO Compound ID>  (1695) 
301950

>  <ref_mols>  (1695) 
A0239a,A0309a

>  <distance_score>  (1695) 
1.688243

>  <inspiration_score>  (1695) 
None

$$$$
P499340
     RDKit          3D

 22 23  0  0  0  0  0  0  0  0999 V2000
   19.6753   16.8867    2.1104 C   0  0  0  0  0  0  0  0  0  0  0  0
   21.1336   16.6629    2.0152 C   0  0  0  0  0  0  0  0  0  0  0  0
   22.1960   17.5263    2.1768 C   0  0  0  0  0  0  0  0  0  0  0  0
   23.3899   16.8910    1.9643 N   0  0  0  0  0  0  0  0  0  0  0  0
   23.0874   15.6315    1.7287 C   0  0  0  0  0  0  0  0  0  0  0  0
   21.7230   15.4657    1.7100 N   0  0  0  0  0  0  0  0  0  0  0  0
   21.0763   14.2349    1.3119 C   0  0  0  0  0  0  0  0  0  0  0  0
   21.9641   13.4751    0.3283 C   0  0  0  0  0  0  0  0  0  0  0  0
   23.3501   13.2386    0.9321 C   0  0  0  0  0  0  0  0  0  0  0  0
   24.0456   14.5362    1.3686 C   0  0  2  0  0  0  0  0  0  0  0  0
   24.9429   14.2066    2.5809 C   0  0  0  0  0  0  0  0  0  0  0  0
   24.5323   14.1253    3.6728 O   0  0  0  0  0  0  0  0  0  0  0  0
   26.3776   13.9635    2.0210 N   0  0  0  0  0  0  0  0  0  0  0  0
   27.5683   13.4808    2.6759 C   0  0  0  0  0  0  0  0  0  0  0  0
   27.5793   11.9630    2.8641 C   0  0  0  0  0  0  0  0  0  0  0  0
   28.1104   11.1332    1.3354 S   0  0  0  0  0  0  0  0  0  0  0  0
   27.2900    9.6983    1.2097 O   0  0  0  0  0  0  0  0  0  0  0  0
   29.8295   10.7609    1.8088 C   0  0  0  0  0  0  0  0  0  0  0  0
   30.6907   11.9944    1.8651 C   0  0  0  0  0  0  0  0  0  0  0  0
   31.9990   11.6852    1.9797 F   0  0  0  0  0  0  0  0  0  0  0  0
   30.3738   12.7737    2.9236 F   0  0  0  0  0  0  0  0  0  0  0  0
   30.5526   12.7494    0.7507 F   0  0  0  0  0  0  0  0  0  0  0  0
  1  2  1  0
  2  3  2  0
  3  4  1  0
  4  5  2  0
  5  6  1  0
  6  7  1  0
  7  8  1  0
  8  9  1  0
  9 10  1  0
 10 11  1  1
 11 12  2  0
 11 13  1  0
 13 14  1  0
 14 15  1  0
 15 16  1  0
 16 17  1  1
 16 18  1  0
 18 19  1  0
 19 20  1  0
 19 21  1  0
 19 22  1  0
  6  2  1  0
 10  5  1  0
M  CHG  2  16   1  17  -1
M  END
>  <energy_score>  (1696) 
-3.714522

>  <inchikey>  (1696) 
None

>  <smiles>  (1696) 
None

>  <ref_pdb>  (1696) 
A0239a

>  <alias>  (1696) 
None

>  <HIPPO Pose ID>  (1696) 
499340

>  <name>  (1696) 
P499340

>  <HIPPO Compound ID>  (1696) 
301951

>  <ref_mols>  (1696) 
A0239a,A0309a

>  <distance_score>  (1696) 
1.506993

>  <inspiration_score>  (1696) 
None

$$$$
P499341
     RDKit          3D

 22 23  0  0  0  0  0  0  0  0999 V2000
   20.0643   18.2040    1.9975 C   0  0  0  0  0  0  0  0  0  0  0  0
   21.2525   17.3296    2.1080 C   0  0  0  0  0  0  0  0  0  0  0  0
   22.5224   17.5846    2.5773 C   0  0  0  0  0  0  0  0  0  0  0  0
   23.3138   16.4730    2.4943 N   0  0  0  0  0  0  0  0  0  0  0  0
   22.5732   15.5487    1.9239 C   0  0  0  0  0  0  0  0  0  0  0  0
   21.2982   16.0196    1.7112 N   0  0  0  0  0  0  0  0  0  0  0  0
   20.2246   15.2671    1.0949 C   0  0  0  0  0  0  0  0  0  0  0  0
   20.5129   13.7755    1.0473 C   0  0  0  0  0  0  0  0  0  0  0  0
   21.9576   13.5174    0.6239 C   0  0  0  0  0  0  0  0  0  0  0  0
   22.9493   14.1386    1.6169 C   0  0  1  0  0  0  0  0  0  0  0  0
   24.3358   14.0364    0.9623 C   0  0  0  0  0  0  0  0  0  0  0  0
   24.7425   14.8091    0.1852 O   0  0  0  0  0  0  0  0  0  0  0  0
   24.9520   12.7000    1.4730 N   0  0  0  0  0  0  0  0  0  0  0  0
   26.1365   12.0053    1.0628 C   0  0  0  0  0  0  0  0  0  0  0  0
   27.2333   11.9468    2.1192 C   0  0  0  0  0  0  0  0  0  0  0  0
   28.5437   10.8818    1.4379 S   0  0  0  0  0  0  0  0  0  0  0  0
   27.8683    9.3683    1.3127 O   0  0  0  0  0  0  0  0  0  0  0  0
   29.6820   10.9432    2.8457 C   0  0  0  0  0  0  0  0  0  0  0  0
   30.5833   12.1470    2.7614 C   0  0  0  0  0  0  0  0  0  0  0  0
   31.4926   12.1358    3.7631 F   0  0  0  0  0  0  0  0  0  0  0  0
   29.8838   13.2981    2.8788 F   0  0  0  0  0  0  0  0  0  0  0  0
   31.2621   12.2001    1.5957 F   0  0  0  0  0  0  0  0  0  0  0  0
  1  2  1  0
  2  3  2  0
  3  4  1  0
  4  5  2  0
  5  6  1  0
  6  7  1  0
  7  8  1  0
  8  9  1  0
  9 10  1  0
 10 11  1  6
 11 12  2  0
 11 13  1  0
 13 14  1  0
 14 15  1  0
 15 16  1  0
 16 17  1  1
 16 18  1  0
 18 19  1  0
 19 20  1  0
 19 21  1  0
 19 22  1  0
  6  2  1  0
 10  5  1  0
M  CHG  2  16   1  17  -1
M  END
>  <energy_score>  (1697) 
-11.322989

>  <inchikey>  (1697) 
None

>  <smiles>  (1697) 
None

>  <ref_pdb>  (1697) 
A0239a

>  <alias>  (1697) 
None

>  <HIPPO Pose ID>  (1697) 
499341

>  <name>  (1697) 
P499341

>  <HIPPO Compound ID>  (1697) 
301951

>  <ref_mols>  (1697) 
A0239a,A0309a

>  <distance_score>  (1697) 
1.838282

>  <inspiration_score>  (1697) 
None

$$$$
P499342
     RDKit          3D

 22 23  0  0  0  0  0  0  0  0999 V2000
   20.1719   16.7242    2.3625 C   0  0  0  0  0  0  0  0  0  0  0  0
   21.5814   16.3933    2.0648 C   0  0  0  0  0  0  0  0  0  0  0  0
   22.7490   17.0850    2.3049 C   0  0  0  0  0  0  0  0  0  0  0  0
   23.8345   16.4205    1.7955 N   0  0  0  0  0  0  0  0  0  0  0  0
   23.3585   15.3302    1.2359 C   0  0  0  0  0  0  0  0  0  0  0  0
   21.9954   15.2513    1.4318 N   0  0  0  0  0  0  0  0  0  0  0  0
   21.1696   14.1335    1.0193 C   0  0  0  0  0  0  0  0  0  0  0  0
   21.8705   13.2256    0.0051 C   0  0  0  0  0  0  0  0  0  0  0  0
   23.3403   12.9917    0.3869 C   0  0  0  0  0  0  0  0  0  0  0  0
   24.0624   14.3403    0.3534 C   0  0  2  0  0  0  0  0  0  0  0  0
   25.5854   14.2647    0.5701 C   0  0  0  0  0  0  0  0  0  0  0  0
   26.3123   14.5855   -0.2889 O   0  0  0  0  0  0  0  0  0  0  0  0
   25.8858   13.6717    1.9716 N   0  0  0  0  0  0  0  0  0  0  0  0
   27.1388   13.4410    2.6391 C   0  0  0  0  0  0  0  0  0  0  0  0
   27.5138   11.9806    2.8771 C   0  0  0  0  0  0  0  0  0  0  0  0
   27.7279   10.9254    1.4196 S   0  0  0  0  0  0  0  0  0  0  0  0
   26.2662   10.7743    0.6649 O   0  0  0  0  0  0  0  0  0  0  0  0
   28.7977   11.9943    0.4316 C   0  0  0  0  0  0  0  0  0  0  0  0
   29.2780   11.2823   -0.8076 C   0  0  0  0  0  0  0  0  0  0  0  0
   30.1952   12.0453   -1.4538 F   0  0  0  0  0  0  0  0  0  0  0  0
   28.2908   11.0223   -1.6880 F   0  0  0  0  0  0  0  0  0  0  0  0
   29.8883   10.1124   -0.5137 F   0  0  0  0  0  0  0  0  0  0  0  0
  1  2  1  0
  2  3  2  0
  3  4  1  0
  4  5  2  0
  5  6  1  0
  6  7  1  0
  7  8  1  0
  8  9  1  0
  9 10  1  0
 10 11  1  1
 11 12  2  0
 11 13  1  0
 13 14  1  0
 14 15  1  0
 15 16  1  0
 16 17  1  6
 16 18  1  0
 18 19  1  0
 19 20  1  0
 19 21  1  0
 19 22  1  0
  6  2  1  0
 10  5  1  0
M  CHG  2  16   1  17  -1
M  END
>  <energy_score>  (1698) 
-5.160273

>  <inchikey>  (1698) 
None

>  <smiles>  (1698) 
None

>  <ref_pdb>  (1698) 
A0239a

>  <alias>  (1698) 
None

>  <HIPPO Pose ID>  (1698) 
499342

>  <name>  (1698) 
P499342

>  <HIPPO Compound ID>  (1698) 
301951

>  <ref_mols>  (1698) 
A0239a,A0309a

>  <distance_score>  (1698) 
1.603973

>  <inspiration_score>  (1698) 
None

$$$$
P499343
     RDKit          3D

 22 23  0  0  0  0  0  0  0  0999 V2000
   20.1635   16.4622   -0.4719 C   0  0  0  0  0  0  0  0  0  0  0  0
   21.4984   16.4041    0.1644 C   0  0  0  0  0  0  0  0  0  0  0  0
   22.6161   17.1901   -0.0112 C   0  0  0  0  0  0  0  0  0  0  0  0
   23.6474   16.7779    0.7856 N   0  0  0  0  0  0  0  0  0  0  0  0
   23.1849   15.7572    1.4709 C   0  0  0  0  0  0  0  0  0  0  0  0
   21.8798   15.4873    1.1043 N   0  0  0  0  0  0  0  0  0  0  0  0
   21.0435   14.4858    1.7407 C   0  0  0  0  0  0  0  0  0  0  0  0
   21.5211   14.2855    3.1633 C   0  0  0  0  0  0  0  0  0  0  0  0
   23.0058   13.9248    3.1694 C   0  0  0  0  0  0  0  0  0  0  0  0
   23.8353   15.1047    2.6497 C   0  0  1  0  0  0  0  0  0  0  0  0
   25.3035   14.7103    2.4061 C   0  0  0  0  0  0  0  0  0  0  0  0
   26.1658   15.1996    3.0247 O   0  0  0  0  0  0  0  0  0  0  0  0
   25.3429   13.5684    1.3551 N   0  0  0  0  0  0  0  0  0  0  0  0
   26.4348   12.7326    0.9213 C   0  0  0  0  0  0  0  0  0  0  0  0
   27.3236   12.3183    2.0980 C   0  0  0  0  0  0  0  0  0  0  0  0
   28.2466   10.8072    1.8052 S   0  0  0  0  0  0  0  0  0  0  0  0
   27.4344    9.8386    0.7437 O   0  0  0  0  0  0  0  0  0  0  0  0
   29.7828   11.4144    1.1019 C   0  0  0  0  0  0  0  0  0  0  0  0
   29.6687   12.2639   -0.1312 C   0  0  0  0  0  0  0  0  0  0  0  0
   30.8825   12.3819   -0.7250 F   0  0  0  0  0  0  0  0  0  0  0  0
   29.2654   13.5161    0.1736 F   0  0  0  0  0  0  0  0  0  0  0  0
   28.8252   11.7639   -1.0535 F   0  0  0  0  0  0  0  0  0  0  0  0
  1  2  1  0
  2  3  2  0
  3  4  1  0
  4  5  2  0
  5  6  1  0
  6  7  1  0
  7  8  1  0
  8  9  1  0
  9 10  1  0
 10 11  1  6
 11 12  2  0
 11 13  1  0
 13 14  1  0
 14 15  1  0
 15 16  1  0
 16 17  1  6
 16 18  1  0
 18 19  1  0
 19 20  1  0
 19 21  1  0
 19 22  1  0
  6  2  1  0
 10  5  1  0
M  CHG  2  16   1  17  -1
M  END
>  <energy_score>  (1699) 
-1.90944

>  <inchikey>  (1699) 
None

>  <smiles>  (1699) 
None

>  <ref_pdb>  (1699) 
A0239a

>  <alias>  (1699) 
None

>  <HIPPO Pose ID>  (1699) 
499343

>  <name>  (1699) 
P499343

>  <HIPPO Compound ID>  (1699) 
301951

>  <ref_mols>  (1699) 
A0239a,A0309a

>  <distance_score>  (1699) 
1.905422

>  <inspiration_score>  (1699) 
None

$$$$
P499344
     RDKit          3D

 22 22  0  0  0  0  0  0  0  0999 V2000
   24.5602   16.8888    2.2653 C   0  0  0  0  0  0  0  0  0  0  0  0
   23.1614   16.8676    1.9019 N   0  0  0  0  0  0  0  0  0  0  0  0
   22.3529   17.9542    1.7303 C   0  0  0  0  0  0  0  0  0  0  0  0
   22.9260   19.5451    1.8862 Cl  0  0  0  0  0  0  0  0  0  0  0  0
   21.1085   17.4806    1.4274 C   0  0  0  0  0  0  0  0  0  0  0  0
   21.1232   16.1168    1.3986 N   0  0  0  0  0  0  0  0  0  0  0  0
   22.3732   15.7561    1.6647 C   0  0  0  0  0  0  0  0  0  0  0  0
   22.8318   14.3509    1.7992 C   0  0  0  0  0  0  0  0  0  0  0  0
   23.1603   14.0958    3.1072 F   0  0  0  0  0  0  0  0  0  0  0  0
   21.8176   13.4842    1.5029 F   0  0  0  0  0  0  0  0  0  0  0  0
   24.0634   14.0065    0.9410 C   0  0  0  0  0  0  0  0  0  0  0  0
   24.4942   14.6216    0.0448 O   0  0  0  0  0  0  0  0  0  0  0  0
   24.5943   12.7066    1.6227 N   0  0  0  0  0  0  0  0  0  0  0  0
   25.7876   11.9743    1.4026 C   0  0  0  0  0  0  0  0  0  0  0  0
   26.9886   12.6579    2.0130 C   0  0  0  0  0  0  0  0  0  0  0  0
   28.2349   11.4705    2.5696 S   0  0  0  0  0  0  0  0  0  0  0  0
   29.5204   12.3663    3.1197 O   0  0  0  0  0  0  0  0  0  0  0  0
   28.7050   10.8117    0.9587 C   0  0  0  0  0  0  0  0  0  0  0  0
   27.9148    9.6040    0.5256 C   0  0  0  0  0  0  0  0  0  0  0  0
   26.6280    9.8513    0.2416 F   0  0  0  0  0  0  0  0  0  0  0  0
   28.4518    9.1088   -0.6202 F   0  0  0  0  0  0  0  0  0  0  0  0
   27.9487    8.6030    1.4334 F   0  0  0  0  0  0  0  0  0  0  0  0
  1  2  1  0
  2  3  1  0
  3  4  1  0
  3  5  2  0
  5  6  1  0
  6  7  2  0
  7  8  1  0
  8  9  1  0
  8 10  1  0
  8 11  1  0
 11 12  2  0
 11 13  1  0
 13 14  1  0
 14 15  1  0
 15 16  1  0
 16 17  1  6
 16 18  1  0
 18 19  1  0
 19 20  1  0
 19 21  1  0
 19 22  1  0
  7  2  1  0
M  CHG  2  16   1  17  -1
M  END
>  <energy_score>  (1700) 
-4.359227

>  <inchikey>  (1700) 
None

>  <smiles>  (1700) 
None

>  <ref_pdb>  (1700) 
A0239a

>  <alias>  (1700) 
None

>  <HIPPO Pose ID>  (1700) 
499344

>  <name>  (1700) 
P499344

>  <HIPPO Compound ID>  (1700) 
301952

>  <ref_mols>  (1700) 
A0239a,A0309a

>  <distance_score>  (1700) 
1.509024

>  <inspiration_score>  (1700) 
None

$$$$
P499345
     RDKit          3D

 22 22  0  0  0  0  0  0  0  0999 V2000
   24.3558   16.9909    2.5279 C   0  0  0  0  0  0  0  0  0  0  0  0
   23.0130   16.6759    2.0949 N   0  0  0  0  0  0  0  0  0  0  0  0
   21.9611   17.5459    2.0199 C   0  0  0  0  0  0  0  0  0  0  0  0
   22.1078   19.2005    2.3750 Cl  0  0  0  0  0  0  0  0  0  0  0  0
   20.8724   16.8217    1.6295 C   0  0  0  0  0  0  0  0  0  0  0  0
   21.2233   15.5158    1.4489 N   0  0  0  0  0  0  0  0  0  0  0  0
   22.5284   15.4371    1.6952 C   0  0  0  0  0  0  0  0  0  0  0  0
   23.3198   14.1618    1.6244 C   0  0  0  0  0  0  0  0  0  0  0  0
   23.4017   13.6166    2.8785 F   0  0  0  0  0  0  0  0  0  0  0  0
   22.6637   13.2427    0.8574 F   0  0  0  0  0  0  0  0  0  0  0  0
   24.7565   14.3908    1.0890 C   0  0  0  0  0  0  0  0  0  0  0  0
   25.0199   14.9071    0.0713 O   0  0  0  0  0  0  0  0  0  0  0  0
   25.6913   13.8248    2.2102 N   0  0  0  0  0  0  0  0  0  0  0  0
   27.1174   13.8683    2.3412 C   0  0  0  0  0  0  0  0  0  0  0  0
   27.7661   13.2970    1.0984 C   0  0  0  0  0  0  0  0  0  0  0  0
   29.1988   12.2769    1.4702 S   0  0  0  0  0  0  0  0  0  0  0  0
   30.0820   13.0342    2.6513 O   0  0  0  0  0  0  0  0  0  0  0  0
   28.3889   10.8529    2.1986 C   0  0  0  0  0  0  0  0  0  0  0  0
   27.2706   10.2796    1.3735 C   0  0  0  0  0  0  0  0  0  0  0  0
   27.5195   10.3521    0.0480 F   0  0  0  0  0  0  0  0  0  0  0  0
   27.0978    8.9650    1.6582 F   0  0  0  0  0  0  0  0  0  0  0  0
   26.1061   10.9131    1.6234 F   0  0  0  0  0  0  0  0  0  0  0  0
  1  2  1  0
  2  3  1  0
  3  4  1  0
  3  5  2  0
  5  6  1  0
  6  7  2  0
  7  8  1  0
  8  9  1  0
  8 10  1  0
  8 11  1  0
 11 12  2  0
 11 13  1  0
 13 14  1  0
 14 15  1  0
 15 16  1  0
 16 17  1  1
 16 18  1  0
 18 19  1  0
 19 20  1  0
 19 21  1  0
 19 22  1  0
  7  2  1  0
M  CHG  2  16   1  17  -1
M  END
>  <energy_score>  (1701) 
-5.309372

>  <inchikey>  (1701) 
None

>  <smiles>  (1701) 
None

>  <ref_pdb>  (1701) 
A0239a

>  <alias>  (1701) 
None

>  <HIPPO Pose ID>  (1701) 
499345

>  <name>  (1701) 
P499345

>  <HIPPO Compound ID>  (1701) 
301952

>  <ref_mols>  (1701) 
A0239a,A0309a

>  <distance_score>  (1701) 
1.503563

>  <inspiration_score>  (1701) 
None

$$$$
P499346
     RDKit          3D

 22 23  0  0  0  0  0  0  0  0999 V2000
   23.1036   18.2410    3.2016 C   0  0  0  0  0  0  0  0  0  0  0  0
   22.6393   17.0672    2.4320 C   0  0  0  0  0  0  0  0  0  0  0  0
   21.3777   16.7643    1.9696 C   0  0  0  0  0  0  0  0  0  0  0  0
   21.5253   15.5840    1.3057 N   0  0  0  0  0  0  0  0  0  0  0  0
   22.8451   15.2129    1.3578 C   0  0  0  0  0  0  0  0  0  0  0  0
   23.5257   16.0792    2.0791 N   0  0  0  0  0  0  0  0  0  0  0  0
   23.3413   13.9328    0.7514 C   0  0  2  0  0  0  0  0  0  0  0  0
   24.6690   14.1543   -0.0275 C   0  0  0  0  0  0  0  0  0  0  0  0
   24.9462   15.1623   -0.5530 O   0  0  0  0  0  0  0  0  0  0  0  0
   25.4511   12.8041    0.0468 N   0  0  0  0  0  0  0  0  0  0  0  0
   26.7690   12.4578   -0.4289 C   0  0  0  0  0  0  0  0  0  0  0  0
   27.8504   12.4826    0.6607 C   0  0  0  0  0  0  0  0  0  0  0  0
   27.8796   11.0168    1.7097 S   0  0  0  0  0  0  0  0  0  0  0  0
   26.8621    9.8652    1.1084 O   0  0  0  0  0  0  0  0  0  0  0  0
   27.2003   11.7128    3.2247 C   0  0  0  0  0  0  0  0  0  0  0  0
   25.8777   12.4125    3.1076 C   0  0  0  0  0  0  0  0  0  0  0  0
   26.0393   13.6595    2.6163 F   0  0  0  0  0  0  0  0  0  0  0  0
   25.0183   11.7590    2.3025 F   0  0  0  0  0  0  0  0  0  0  0  0
   25.2796   12.5496    4.3073 F   0  0  0  0  0  0  0  0  0  0  0  0
   22.3120   13.2990   -0.1891 C   0  0  0  0  0  0  0  0  0  0  0  0
   20.8757   13.4255    0.3238 C   0  0  0  0  0  0  0  0  0  0  0  0
   20.4894   14.8713    0.5957 C   0  0  0  0  0  0  0  0  0  0  0  0
  1  2  1  0
  2  3  2  0
  3  4  1  0
  4  5  1  0
  5  6  2  0
  5  7  1  0
  7  8  1  6
  8  9  2  0
  8 10  1  0
 10 11  1  0
 11 12  1  0
 12 13  1  0
 13 14  1  6
 13 15  1  0
 15 16  1  0
 16 17  1  0
 16 18  1  0
 16 19  1  0
  7 20  1  0
 20 21  1  0
 21 22  1  0
  6  2  1  0
 22  4  1  0
M  CHG  2  13   1  14  -1
M  END
>  <energy_score>  (1702) 
-6.508744

>  <inchikey>  (1702) 
None

>  <smiles>  (1702) 
None

>  <ref_pdb>  (1702) 
A0239a

>  <alias>  (1702) 
None

>  <HIPPO Pose ID>  (1702) 
499346

>  <name>  (1702) 
P499346

>  <HIPPO Compound ID>  (1702) 
301953

>  <ref_mols>  (1702) 
A0239a,A0309a

>  <distance_score>  (1702) 
1.9119

>  <inspiration_score>  (1702) 
None

$$$$
P499347
     RDKit          3D

 22 23  0  0  0  0  0  0  0  0999 V2000
   22.9649   18.6408    3.1059 C   0  0  0  0  0  0  0  0  0  0  0  0
   22.7265   17.3262    2.4726 C   0  0  0  0  0  0  0  0  0  0  0  0
   21.5636   16.5917    2.3945 C   0  0  0  0  0  0  0  0  0  0  0  0
   21.9152   15.4541    1.7367 N   0  0  0  0  0  0  0  0  0  0  0  0
   23.2417   15.5444    1.3832 C   0  0  0  0  0  0  0  0  0  0  0  0
   23.7545   16.6640    1.8447 N   0  0  0  0  0  0  0  0  0  0  0  0
   23.8633   14.5449    0.4552 C   0  0  1  0  0  0  0  0  0  0  0  0
   25.3980   14.4390    0.5943 C   0  0  0  0  0  0  0  0  0  0  0  0
   26.0858   14.7549   -0.2994 O   0  0  0  0  0  0  0  0  0  0  0  0
   25.7610   13.8280    1.9778 N   0  0  0  0  0  0  0  0  0  0  0  0
   27.0340   13.3930    2.5066 C   0  0  0  0  0  0  0  0  0  0  0  0
   27.2700   11.8778    2.4573 C   0  0  0  0  0  0  0  0  0  0  0  0
   27.2207   11.2677    0.7362 S   0  0  0  0  0  0  0  0  0  0  0  0
   25.6299   11.2847    0.2885 O   0  0  0  0  0  0  0  0  0  0  0  0
   27.5710    9.5448    1.0670 C   0  0  0  0  0  0  0  0  0  0  0  0
   27.4301    8.6907   -0.1696 C   0  0  0  0  0  0  0  0  0  0  0  0
   28.3344    9.0178   -1.1175 F   0  0  0  0  0  0  0  0  0  0  0  0
   27.6701    7.3930    0.1672 F   0  0  0  0  0  0  0  0  0  0  0  0
   26.2034    8.7093   -0.7201 F   0  0  0  0  0  0  0  0  0  0  0  0
   23.1100   13.2104    0.5129 C   0  0  0  0  0  0  0  0  0  0  0  0
   21.6077   13.4664    0.3153 C   0  0  0  0  0  0  0  0  0  0  0  0
   21.0485   14.3344    1.4405 C   0  0  0  0  0  0  0  0  0  0  0  0
  1  2  1  0
  2  3  2  0
  3  4  1  0
  4  5  1  0
  5  6  2  0
  5  7  1  0
  7  8  1  1
  8  9  2  0
  8 10  1  0
 10 11  1  0
 11 12  1  0
 12 13  1  0
 13 14  1  1
 13 15  1  0
 15 16  1  0
 16 17  1  0
 16 18  1  0
 16 19  1  0
  7 20  1  0
 20 21  1  0
 21 22  1  0
  6  2  1  0
 22  4  1  0
M  CHG  2  13   1  14  -1
M  END
>  <energy_score>  (1703) 
-41.408474

>  <inchikey>  (1703) 
None

>  <smiles>  (1703) 
None

>  <ref_pdb>  (1703) 
A0239a

>  <alias>  (1703) 
None

>  <HIPPO Pose ID>  (1703) 
499347

>  <name>  (1703) 
P499347

>  <HIPPO Compound ID>  (1703) 
301953

>  <ref_mols>  (1703) 
A0239a,A0309a

>  <distance_score>  (1703) 
1.692658

>  <inspiration_score>  (1703) 
None

$$$$
P499348
     RDKit          3D

 22 23  0  0  0  0  0  0  0  0999 V2000
   21.8630   19.0595    2.6492 C   0  0  0  0  0  0  0  0  0  0  0  0
   22.0467   17.6393    2.2829 C   0  0  0  0  0  0  0  0  0  0  0  0
   21.1979   16.7983    1.5975 C   0  0  0  0  0  0  0  0  0  0  0  0
   21.8700   15.6173    1.5186 N   0  0  0  0  0  0  0  0  0  0  0  0
   23.0835   15.7589    2.1478 C   0  0  0  0  0  0  0  0  0  0  0  0
   23.1922   16.9726    2.6466 N   0  0  0  0  0  0  0  0  0  0  0  0
   24.0514   14.6254    2.2961 C   0  0  2  0  0  0  0  0  0  0  0  0
   25.3672   14.8502    1.5335 C   0  0  0  0  0  0  0  0  0  0  0  0
   25.4872   15.5631    0.6139 O   0  0  0  0  0  0  0  0  0  0  0  0
   26.3894   13.8676    2.1928 N   0  0  0  0  0  0  0  0  0  0  0  0
   27.7817   13.6410    1.9100 C   0  0  0  0  0  0  0  0  0  0  0  0
   28.3365   12.3627    2.5318 C   0  0  0  0  0  0  0  0  0  0  0  0
   28.0083   10.8459    1.6163 S   0  0  0  0  0  0  0  0  0  0  0  0
   26.6051   10.9419    0.7608 O   0  0  0  0  0  0  0  0  0  0  0  0
   29.4282   10.7690    0.5144 C   0  0  0  0  0  0  0  0  0  0  0  0
   29.6940   11.9602   -0.3613 C   0  0  0  0  0  0  0  0  0  0  0  0
   30.1110   13.0228    0.3616 F   0  0  0  0  0  0  0  0  0  0  0  0
   30.6968   11.6655   -1.2278 F   0  0  0  0  0  0  0  0  0  0  0  0
   28.6326   12.3301   -1.0976 F   0  0  0  0  0  0  0  0  0  0  0  0
   23.4298   13.3010    1.8404 C   0  0  0  0  0  0  0  0  0  0  0  0
   22.5615   13.4671    0.5899 C   0  0  0  0  0  0  0  0  0  0  0  0
   21.3961   14.3987    0.9021 C   0  0  0  0  0  0  0  0  0  0  0  0
  1  2  1  0
  2  3  2  0
  3  4  1  0
  4  5  1  0
  5  6  2  0
  5  7  1  0
  7  8  1  6
  8  9  2  0
  8 10  1  0
 10 11  1  0
 11 12  1  0
 12 13  1  0
 13 14  1  6
 13 15  1  0
 15 16  1  0
 16 17  1  0
 16 18  1  0
 16 19  1  0
  7 20  1  0
 20 21  1  0
 21 22  1  0
  6  2  1  0
 22  4  1  0
M  CHG  2  13   1  14  -1
M  END
>  <energy_score>  (1704) 
-9.545792

>  <inchikey>  (1704) 
None

>  <smiles>  (1704) 
None

>  <ref_pdb>  (1704) 
A0239a

>  <alias>  (1704) 
None

>  <HIPPO Pose ID>  (1704) 
499348

>  <name>  (1704) 
P499348

>  <HIPPO Compound ID>  (1704) 
301953

>  <ref_mols>  (1704) 
A0239a,A0309a

>  <distance_score>  (1704) 
1.608362

>  <inspiration_score>  (1704) 
None

$$$$
P499349
     RDKit          3D

 22 23  0  0  0  0  0  0  0  0999 V2000
   23.3456   18.3024    3.2117 C   0  0  0  0  0  0  0  0  0  0  0  0
   22.8589   17.0985    2.5037 C   0  0  0  0  0  0  0  0  0  0  0  0
   21.5858   16.5753    2.4411 C   0  0  0  0  0  0  0  0  0  0  0  0
   21.7090   15.4434    1.6975 N   0  0  0  0  0  0  0  0  0  0  0  0
   23.0130   15.3435    1.2730 C   0  0  0  0  0  0  0  0  0  0  0  0
   23.7304   16.3232    1.7767 N   0  0  0  0  0  0  0  0  0  0  0  0
   23.4264   14.3339    0.2536 C   0  0  1  0  0  0  0  0  0  0  0  0
   24.8188   13.7220    0.4805 C   0  0  0  0  0  0  0  0  0  0  0  0
   25.6097   13.7152   -0.3829 O   0  0  0  0  0  0  0  0  0  0  0  0
   24.8750   13.0951    1.9041 N   0  0  0  0  0  0  0  0  0  0  0  0
   25.8750   12.2523    2.5196 C   0  0  0  0  0  0  0  0  0  0  0  0
   27.3175   12.5445    2.1197 C   0  0  0  0  0  0  0  0  0  0  0  0
   28.2882   11.0107    2.1002 S   0  0  0  0  0  0  0  0  0  0  0  0
   27.5061    9.9336    1.1036 O   0  0  0  0  0  0  0  0  0  0  0  0
   29.7410   11.6277    1.2127 C   0  0  0  0  0  0  0  0  0  0  0  0
   30.6135   12.4929    2.0829 C   0  0  0  0  0  0  0  0  0  0  0  0
   30.9534   11.8878    3.2399 F   0  0  0  0  0  0  0  0  0  0  0  0
   31.7615   12.8062    1.4363 F   0  0  0  0  0  0  0  0  0  0  0  0
   30.0103   13.6615    2.3938 F   0  0  0  0  0  0  0  0  0  0  0  0
   22.4034   13.1961    0.1447 C   0  0  0  0  0  0  0  0  0  0  0  0
   20.9677   13.7215    0.1056 C   0  0  0  0  0  0  0  0  0  0  0  0
   20.6497   14.5120    1.3717 C   0  0  0  0  0  0  0  0  0  0  0  0
  1  2  1  0
  2  3  2  0
  3  4  1  0
  4  5  1  0
  5  6  2  0
  5  7  1  0
  7  8  1  1
  8  9  2  0
  8 10  1  0
 10 11  1  0
 11 12  1  0
 12 13  1  0
 13 14  1  6
 13 15  1  0
 15 16  1  0
 16 17  1  0
 16 18  1  0
 16 19  1  0
  7 20  1  0
 20 21  1  0
 21 22  1  0
  6  2  1  0
 22  4  1  0
M  CHG  2  13   1  14  -1
M  END
>  <energy_score>  (1705) 
-14.824605

>  <inchikey>  (1705) 
None

>  <smiles>  (1705) 
None

>  <ref_pdb>  (1705) 
A0239a

>  <alias>  (1705) 
None

>  <HIPPO Pose ID>  (1705) 
499349

>  <name>  (1705) 
P499349

>  <HIPPO Compound ID>  (1705) 
301953

>  <ref_mols>  (1705) 
A0239a,A0309a

>  <distance_score>  (1705) 
1.825846

>  <inspiration_score>  (1705) 
None

$$$$
P499350
     RDKit          3D

 22 23  0  0  0  0  0  0  0  0999 V2000
   23.4730   14.9048   -0.9900 C   0  0  0  0  0  0  0  0  0  0  0  0
   23.8590   14.4246    0.4284 C   0  0  2  0  0  0  0  0  0  0  0  0
   25.4127   14.2394    0.4606 C   0  0  0  0  0  0  0  0  0  0  0  0
   26.0479   14.4065   -0.5078 O   0  0  0  0  0  0  0  0  0  0  0  0
   25.8436   13.7723    1.8789 N   0  0  0  0  0  0  0  0  0  0  0  0
   27.1525   13.5081    2.4187 C   0  0  0  0  0  0  0  0  0  0  0  0
   27.3972   12.0905    2.9242 C   0  0  0  0  0  0  0  0  0  0  0  0
   27.5560   10.7750    1.7155 S   0  0  0  0  0  0  0  0  0  0  0  0
   26.5421   10.9550    0.4370 O   0  0  0  0  0  0  0  0  0  0  0  0
   29.2836   10.8376    1.2341 C   0  0  0  0  0  0  0  0  0  0  0  0
   29.8397   12.1596    0.7925 C   0  0  0  0  0  0  0  0  0  0  0  0
   29.1052   12.7592   -0.1576 F   0  0  0  0  0  0  0  0  0  0  0  0
   29.9718   13.0057    1.8399 F   0  0  0  0  0  0  0  0  0  0  0  0
   31.0840   11.9846    0.2811 F   0  0  0  0  0  0  0  0  0  0  0  0
   23.1130   13.1062    0.7260 C   0  0  0  0  0  0  0  0  0  0  0  0
   21.6031   13.3641    0.7364 C   0  0  0  0  0  0  0  0  0  0  0  0
   21.2162   14.3424    1.8389 C   0  0  0  0  0  0  0  0  0  0  0  0
   22.1173   15.4681    1.9084 N   0  0  0  0  0  0  0  0  0  0  0  0
   21.8567   16.6744    2.4790 C   0  0  0  0  0  0  0  0  0  0  0  0
   23.0338   17.3722    2.3616 C   0  0  0  0  0  0  0  0  0  0  0  0
   23.9747   16.6347    1.6899 N   0  0  0  0  0  0  0  0  0  0  0  0
   23.3880   15.4979    1.3811 C   0  0  0  0  0  0  0  0  0  0  0  0
  2  1  1  6
  2  3  1  0
  3  4  2  0
  3  5  1  0
  5  6  1  0
  6  7  1  0
  7  8  1  0
  8  9  1  6
  8 10  1  0
 10 11  1  0
 11 12  1  0
 11 13  1  0
 11 14  1  0
  2 15  1  0
 15 16  1  0
 16 17  1  0
 17 18  1  0
 18 19  1  0
 19 20  2  0
 20 21  1  0
 21 22  2  0
 22  2  1  0
 22 18  1  0
M  CHG  2   8   1   9  -1
M  END
>  <energy_score>  (1706) 
-0.163102

>  <inchikey>  (1706) 
None

>  <smiles>  (1706) 
None

>  <ref_pdb>  (1706) 
A0239a

>  <alias>  (1706) 
None

>  <HIPPO Pose ID>  (1706) 
499350

>  <name>  (1706) 
P499350

>  <HIPPO Compound ID>  (1706) 
301954

>  <ref_mols>  (1706) 
A0239a,A0309a

>  <distance_score>  (1706) 
1.881798

>  <inspiration_score>  (1706) 
None

$$$$
P499351
     RDKit          3D

 23 23  0  0  0  0  0  0  0  0999 V2000
   24.6862   18.2645    3.9911 C   0  0  0  0  0  0  0  0  0  0  0  0
   25.1532   17.4795    2.7727 C   0  0  0  0  0  0  0  0  0  0  0  0
   24.1436   17.4943    1.6221 C   0  0  0  0  0  0  0  0  0  0  0  0
   22.9579   16.6923    1.8651 N   0  0  0  0  0  0  0  0  0  0  0  0
   21.7905   17.2335    2.3463 C   0  0  0  0  0  0  0  0  0  0  0  0
   20.8985   16.1978    2.4044 C   0  0  0  0  0  0  0  0  0  0  0  0
   21.4809   15.0453    1.9759 N   0  0  0  0  0  0  0  0  0  0  0  0
   22.7169   15.3578    1.5959 C   0  0  0  0  0  0  0  0  0  0  0  0
   23.6066   14.4049    0.8470 C   0  0  0  0  0  0  0  0  0  0  0  0
   23.5196   14.6472   -0.4868 F   0  0  0  0  0  0  0  0  0  0  0  0
   23.1309   13.1295    0.9941 F   0  0  0  0  0  0  0  0  0  0  0  0
   25.0947   14.4889    1.2401 C   0  0  0  0  0  0  0  0  0  0  0  0
   25.8164   15.2527    0.7274 O   0  0  0  0  0  0  0  0  0  0  0  0
   25.3851   13.3719    2.2723 N   0  0  0  0  0  0  0  0  0  0  0  0
   26.5977   13.0273    2.9539 C   0  0  0  0  0  0  0  0  0  0  0  0
   27.7308   13.0164    1.9368 C   0  0  0  0  0  0  0  0  0  0  0  0
   29.0722   11.9004    2.3117 S   0  0  0  0  0  0  0  0  0  0  0  0
   29.0931   11.5001    3.9049 O   0  0  0  0  0  0  0  0  0  0  0  0
   28.6380   10.4787    1.3150 C   0  0  0  0  0  0  0  0  0  0  0  0
   27.1818   10.1530    1.1363 C   0  0  0  0  0  0  0  0  0  0  0  0
   26.4202   10.3753    2.2139 F   0  0  0  0  0  0  0  0  0  0  0  0
   27.0645    8.8365    0.8210 F   0  0  0  0  0  0  0  0  0  0  0  0
   26.6524   10.8481    0.1043 F   0  0  0  0  0  0  0  0  0  0  0  0
  1  2  1  0
  2  3  1  0
  3  4  1  0
  4  5  1  0
  5  6  2  0
  6  7  1  0
  7  8  2  0
  8  9  1  0
  9 10  1  0
  9 11  1  0
  9 12  1  0
 12 13  2  0
 12 14  1  0
 14 15  1  0
 15 16  1  0
 16 17  1  0
 17 18  1  1
 17 19  1  0
 19 20  1  0
 20 21  1  0
 20 22  1  0
 20 23  1  0
  8  4  1  0
M  CHG  2  17   1  18  -1
M  END
>  <energy_score>  (1707) 
-5.069645

>  <inchikey>  (1707) 
None

>  <smiles>  (1707) 
None

>  <ref_pdb>  (1707) 
A0239a

>  <alias>  (1707) 
None

>  <HIPPO Pose ID>  (1707) 
499351

>  <name>  (1707) 
P499351

>  <HIPPO Compound ID>  (1707) 
301955

>  <ref_mols>  (1707) 
A0239a,A0309a

>  <distance_score>  (1707) 
1.606852

>  <inspiration_score>  (1707) 
None

$$$$
P499352
     RDKit          3D

 25 26  0  0  0  0  0  0  0  0999 V2000
   25.7072   15.6187    1.2606 O   0  0  0  0  0  0  0  0  0  0  0  0
   25.3087   14.7042    1.8707 C   0  0  0  0  0  0  0  0  0  0  0  0
   26.0739   13.4952    2.4954 N   0  0  0  0  0  0  0  0  0  0  0  0
   27.4874   13.2224    2.5742 C   0  0  0  0  0  0  0  0  0  0  0  0
   27.7866   11.7291    2.4256 C   0  0  0  0  0  0  0  0  0  0  0  0
   27.3820   11.1808    0.7280 S   0  0  0  0  0  0  0  0  0  0  0  0
   25.7432   11.3083    0.5530 O   0  0  0  0  0  0  0  0  0  0  0  0
   27.6662    9.4288    0.9532 C   0  0  0  0  0  0  0  0  0  0  0  0
   27.4625    8.6636   -0.3300 C   0  0  0  0  0  0  0  0  0  0  0  0
   28.3675    9.0104   -1.2708 F   0  0  0  0  0  0  0  0  0  0  0  0
   27.6414    7.3376   -0.0850 F   0  0  0  0  0  0  0  0  0  0  0  0
   26.2297    8.7885   -0.8524 F   0  0  0  0  0  0  0  0  0  0  0  0
   23.8129   14.4107    2.1281 C   0  0  2  0  0  0  0  0  0  0  0  0
   23.3424   13.3860    1.0707 C   0  0  0  0  0  0  0  0  0  0  0  0
   21.9584   13.6226    0.4465 C   0  0  0  0  0  0  0  0  0  0  0  0
   21.0000   14.3390    1.3839 C   0  0  0  0  0  0  0  0  0  0  0  0
   21.6268   15.5605    1.8334 N   0  0  0  0  0  0  0  0  0  0  0  0
   21.0681   16.7918    1.9469 C   0  0  0  0  0  0  0  0  0  0  0  0
   22.0956   17.6144    2.3816 C   0  0  0  0  0  0  0  0  0  0  0  0
   22.0363   19.0801    2.6989 C   0  0  0  0  0  0  0  0  0  0  0  0
   21.1334   19.7256    1.9061 F   0  0  0  0  0  0  0  0  0  0  0  0
   23.2182   19.7276    2.5453 F   0  0  0  0  0  0  0  0  0  0  0  0
   21.6255   19.2941    3.9803 F   0  0  0  0  0  0  0  0  0  0  0  0
   23.2518   16.8607    2.5389 N   0  0  0  0  0  0  0  0  0  0  0  0
   22.9590   15.6391    2.1501 C   0  0  0  0  0  0  0  0  0  0  0  0
  1  2  2  0
  2  3  1  0
  3  4  1  0
  4  5  1  0
  5  6  1  0
  6  7  1  1
  6  8  1  0
  8  9  1  0
  9 10  1  0
  9 11  1  0
  9 12  1  0
 13  2  1  6
 13 14  1  0
 14 15  1  0
 15 16  1  0
 16 17  1  0
 17 18  1  0
 18 19  2  0
 19 20  1  0
 20 21  1  0
 20 22  1  0
 20 23  1  0
 19 24  1  0
 24 25  2  0
 25 13  1  0
 25 17  1  0
M  CHG  2   6   1   7  -1
M  END
>  <energy_score>  (1708) 
-20.086093

>  <inchikey>  (1708) 
None

>  <smiles>  (1708) 
None

>  <ref_pdb>  (1708) 
A0239a

>  <alias>  (1708) 
None

>  <HIPPO Pose ID>  (1708) 
499352

>  <name>  (1708) 
P499352

>  <HIPPO Compound ID>  (1708) 
301956

>  <ref_mols>  (1708) 
A0239a,A0309a

>  <distance_score>  (1708) 
1.433542

>  <inspiration_score>  (1708) 
None

$$$$
P499353
     RDKit          3D

 25 26  0  0  0  0  0  0  0  0999 V2000
   25.7043   14.3016    0.2899 O   0  0  0  0  0  0  0  0  0  0  0  0
   25.6445   14.3394    1.4583 C   0  0  0  0  0  0  0  0  0  0  0  0
   26.7089   13.9569    2.5402 N   0  0  0  0  0  0  0  0  0  0  0  0
   28.0819   13.5454    2.3960 C   0  0  0  0  0  0  0  0  0  0  0  0
   28.3511   12.0575    2.5922 C   0  0  0  0  0  0  0  0  0  0  0  0
   27.7461   10.9107    1.3344 S   0  0  0  0  0  0  0  0  0  0  0  0
   26.0987   10.8725    1.4075 O   0  0  0  0  0  0  0  0  0  0  0  0
   28.2110   11.7436   -0.1996 C   0  0  0  0  0  0  0  0  0  0  0  0
   29.6938   11.6990   -0.4398 C   0  0  0  0  0  0  0  0  0  0  0  0
   30.3804   12.3730    0.5072 F   0  0  0  0  0  0  0  0  0  0  0  0
   30.1534   10.4289   -0.4699 F   0  0  0  0  0  0  0  0  0  0  0  0
   30.0007   12.2604   -1.6322 F   0  0  0  0  0  0  0  0  0  0  0  0
   24.4094   14.8271    2.2517 C   0  0  2  0  0  0  0  0  0  0  0  0
   23.6153   13.6386    2.8101 C   0  0  0  0  0  0  0  0  0  0  0  0
   22.2364   14.1226    3.2638 C   0  0  0  0  0  0  0  0  0  0  0  0
   21.4224   14.5596    2.0631 C   0  0  0  0  0  0  0  0  0  0  0  0
   22.1584   15.6038    1.3830 N   0  0  0  0  0  0  0  0  0  0  0  0
   21.6198   16.6909    0.7698 C   0  0  0  0  0  0  0  0  0  0  0  0
   22.6933   17.5171    0.4860 C   0  0  0  0  0  0  0  0  0  0  0  0
   22.6852   18.8599   -0.1859 C   0  0  0  0  0  0  0  0  0  0  0  0
   23.2307   19.8341    0.5905 F   0  0  0  0  0  0  0  0  0  0  0  0
   21.4161   19.2712   -0.4718 F   0  0  0  0  0  0  0  0  0  0  0  0
   23.3606   18.8628   -1.3649 F   0  0  0  0  0  0  0  0  0  0  0  0
   23.8651   16.9256    0.9446 N   0  0  0  0  0  0  0  0  0  0  0  0
   23.5267   15.7593    1.4546 C   0  0  0  0  0  0  0  0  0  0  0  0
  1  2  2  0
  2  3  1  0
  3  4  1  0
  4  5  1  0
  5  6  1  0
  6  7  1  6
  6  8  1  0
  8  9  1  0
  9 10  1  0
  9 11  1  0
  9 12  1  0
 13  2  1  6
 13 14  1  0
 14 15  1  0
 15 16  1  0
 16 17  1  0
 17 18  1  0
 18 19  2  0
 19 20  1  0
 20 21  1  0
 20 22  1  0
 20 23  1  0
 19 24  1  0
 24 25  2  0
 25 13  1  0
 25 17  1  0
M  CHG  2   6   1   7  -1
M  END
>  <energy_score>  (1709) 
-15.772086

>  <inchikey>  (1709) 
None

>  <smiles>  (1709) 
None

>  <ref_pdb>  (1709) 
A0239a

>  <alias>  (1709) 
None

>  <HIPPO Pose ID>  (1709) 
499353

>  <name>  (1709) 
P499353

>  <HIPPO Compound ID>  (1709) 
301956

>  <ref_mols>  (1709) 
A0239a,A0309a

>  <distance_score>  (1709) 
1.768789

>  <inspiration_score>  (1709) 
None

$$$$
P499354
     RDKit          3D

 25 26  0  0  0  0  0  0  0  0999 V2000
   26.0708   14.1080   -0.4467 O   0  0  0  0  0  0  0  0  0  0  0  0
   25.3807   14.0908    0.4971 C   0  0  0  0  0  0  0  0  0  0  0  0
   25.7061   13.7449    1.9734 N   0  0  0  0  0  0  0  0  0  0  0  0
   26.9677   13.4413    2.6101 C   0  0  0  0  0  0  0  0  0  0  0  0
   27.2225   11.9460    2.8075 C   0  0  0  0  0  0  0  0  0  0  0  0
   27.8488   11.1558    1.2934 S   0  0  0  0  0  0  0  0  0  0  0  0
   27.1925    9.6333    1.2166 O   0  0  0  0  0  0  0  0  0  0  0  0
   29.5929   10.9683    1.7813 C   0  0  0  0  0  0  0  0  0  0  0  0
   30.3304   12.2799    1.7962 C   0  0  0  0  0  0  0  0  0  0  0  0
   30.2029   12.9463    0.6291 F   0  0  0  0  0  0  0  0  0  0  0  0
   31.6518   12.0909    2.0083 F   0  0  0  0  0  0  0  0  0  0  0  0
   29.8862   13.0888    2.7849 F   0  0  0  0  0  0  0  0  0  0  0  0
   23.8674   14.3408    0.3457 C   0  0  1  0  0  0  0  0  0  0  0  0
   23.0533   13.0503    0.4756 C   0  0  0  0  0  0  0  0  0  0  0  0
   21.5642   13.3742    0.2806 C   0  0  0  0  0  0  0  0  0  0  0  0
   21.0618   14.3018    1.3861 C   0  0  0  0  0  0  0  0  0  0  0  0
   21.9912   15.3824    1.6423 N   0  0  0  0  0  0  0  0  0  0  0  0
   21.7114   16.5418    2.2961 C   0  0  0  0  0  0  0  0  0  0  0  0
   22.9021   17.2492    2.3175 C   0  0  0  0  0  0  0  0  0  0  0  0
   23.1680   18.6044    2.9110 C   0  0  0  0  0  0  0  0  0  0  0  0
   23.0047   19.5977    1.9962 F   0  0  0  0  0  0  0  0  0  0  0  0
   22.2988   18.8789    3.9259 F   0  0  0  0  0  0  0  0  0  0  0  0
   24.4162   18.7342    3.4252 F   0  0  0  0  0  0  0  0  0  0  0  0
   23.8826   16.5145    1.6589 N   0  0  0  0  0  0  0  0  0  0  0  0
   23.3093   15.4050    1.2476 C   0  0  0  0  0  0  0  0  0  0  0  0
  1  2  2  0
  2  3  1  0
  3  4  1  0
  4  5  1  0
  5  6  1  0
  6  7  1  1
  6  8  1  0
  8  9  1  0
  9 10  1  0
  9 11  1  0
  9 12  1  0
 13  2  1  1
 13 14  1  0
 14 15  1  0
 15 16  1  0
 16 17  1  0
 17 18  1  0
 18 19  2  0
 19 20  1  0
 20 21  1  0
 20 22  1  0
 20 23  1  0
 19 24  1  0
 24 25  2  0
 25 13  1  0
 25 17  1  0
M  CHG  2   6   1   7  -1
M  END
>  <energy_score>  (1710) 
-20.405859

>  <inchikey>  (1710) 
None

>  <smiles>  (1710) 
None

>  <ref_pdb>  (1710) 
A0239a

>  <alias>  (1710) 
None

>  <HIPPO Pose ID>  (1710) 
499354

>  <name>  (1710) 
P499354

>  <HIPPO Compound ID>  (1710) 
301956

>  <ref_mols>  (1710) 
A0239a,A0309a

>  <distance_score>  (1710) 
1.636392

>  <inspiration_score>  (1710) 
None

$$$$
P499355
     RDKit          3D

 25 26  0  0  0  0  0  0  0  0999 V2000
   23.6369   13.9505    3.5297 O   0  0  0  0  0  0  0  0  0  0  0  0
   24.1863   13.7782    2.5124 C   0  0  0  0  0  0  0  0  0  0  0  0
   25.4004   12.8670    2.1633 N   0  0  0  0  0  0  0  0  0  0  0  0
   26.1194   11.9161    2.9730 C   0  0  0  0  0  0  0  0  0  0  0  0
   27.6251   11.9578    2.7643 C   0  0  0  0  0  0  0  0  0  0  0  0
   28.1250   10.7545    1.4966 S   0  0  0  0  0  0  0  0  0  0  0  0
   27.0072   10.7688    0.2815 O   0  0  0  0  0  0  0  0  0  0  0  0
   29.6486   11.5627    0.9607 C   0  0  0  0  0  0  0  0  0  0  0  0
   29.4371   12.6678   -0.0436 C   0  0  0  0  0  0  0  0  0  0  0  0
   30.6094   13.3259   -0.2360 F   0  0  0  0  0  0  0  0  0  0  0  0
   29.0540   12.2014   -1.2498 F   0  0  0  0  0  0  0  0  0  0  0  0
   28.5388   13.5863    0.3658 F   0  0  0  0  0  0  0  0  0  0  0  0
   23.7500   14.4651    1.1998 C   0  0  1  0  0  0  0  0  0  0  0  0
   22.8451   13.5230    0.3938 C   0  0  0  0  0  0  0  0  0  0  0  0
   21.4134   13.5141    0.9404 C   0  0  0  0  0  0  0  0  0  0  0  0
   20.7732   14.8875    0.9471 C   0  0  0  0  0  0  0  0  0  0  0  0
   21.6836   15.8834    1.4628 N   0  0  0  0  0  0  0  0  0  0  0  0
   21.3491   17.1336    1.8808 C   0  0  0  0  0  0  0  0  0  0  0  0
   22.5534   17.7643    2.1472 C   0  0  0  0  0  0  0  0  0  0  0  0
   22.7697   19.1627    2.6476 C   0  0  0  0  0  0  0  0  0  0  0  0
   22.0481   20.0650    1.9232 F   0  0  0  0  0  0  0  0  0  0  0  0
   22.3593   19.3046    3.9382 F   0  0  0  0  0  0  0  0  0  0  0  0
   24.0629   19.5726    2.5939 F   0  0  0  0  0  0  0  0  0  0  0  0
   23.6003   16.8926    1.8744 N   0  0  0  0  0  0  0  0  0  0  0  0
   23.0479   15.7515    1.5196 C   0  0  0  0  0  0  0  0  0  0  0  0
  1  2  2  0
  2  3  1  0
  3  4  1  0
  4  5  1  0
  5  6  1  0
  6  7  1  6
  6  8  1  0
  8  9  1  0
  9 10  1  0
  9 11  1  0
  9 12  1  0
 13  2  1  1
 13 14  1  0
 14 15  1  0
 15 16  1  0
 16 17  1  0
 17 18  1  0
 18 19  2  0
 19 20  1  0
 20 21  1  0
 20 22  1  0
 20 23  1  0
 19 24  1  0
 24 25  2  0
 25 13  1  0
 25 17  1  0
M  CHG  2   6   1   7  -1
M  END
>  <energy_score>  (1711) 
-17.634876

>  <inchikey>  (1711) 
None

>  <smiles>  (1711) 
None

>  <ref_pdb>  (1711) 
A0239a

>  <alias>  (1711) 
None

>  <HIPPO Pose ID>  (1711) 
499355

>  <name>  (1711) 
P499355

>  <HIPPO Compound ID>  (1711) 
301956

>  <ref_mols>  (1711) 
A0239a,A0309a

>  <distance_score>  (1711) 
1.733776

>  <inspiration_score>  (1711) 
None

$$$$
P499356
     RDKit          3D

 25 26  0  0  0  0  0  0  0  0999 V2000
   23.6770   13.6985    0.2268 O   0  0  0  0  0  0  0  0  0  0  0  0
   24.1023   14.0342    1.2637 C   0  0  0  0  0  0  0  0  0  0  0  0
   25.5028   13.8077    1.8986 N   0  0  0  0  0  0  0  0  0  0  0  0
   26.6309   13.0428    1.4285 C   0  0  0  0  0  0  0  0  0  0  0  0
   27.2311   12.1572    2.5114 C   0  0  0  0  0  0  0  0  0  0  0  0
   28.2983   10.8514    1.8600 S   0  0  0  0  0  0  0  0  0  0  0  0
   27.4111    9.9748    0.7699 O   0  0  0  0  0  0  0  0  0  0  0  0
   29.5341   11.8121    0.9618 C   0  0  0  0  0  0  0  0  0  0  0  0
   30.4056   12.6354    1.8734 C   0  0  0  0  0  0  0  0  0  0  0  0
   29.7214   13.6752    2.4009 F   0  0  0  0  0  0  0  0  0  0  0  0
   31.4448   13.1596    1.1827 F   0  0  0  0  0  0  0  0  0  0  0  0
   30.9154   11.9173    2.8934 F   0  0  0  0  0  0  0  0  0  0  0  0
   23.2288   14.7768    2.2972 C   0  0  2  0  0  0  0  0  0  0  0  0
   21.9543   13.9525    2.5572 C   0  0  0  0  0  0  0  0  0  0  0  0
   20.6239   14.7238    2.4724 C   0  0  2  0  0  0  0  0  0  0  0  0
   19.4104   13.8369    2.5532 C   0  0  0  0  0  0  0  0  0  0  0  0
   18.2750   14.5646    2.5913 F   0  0  0  0  0  0  0  0  0  0  0  0
   19.3350   13.0003    1.4980 F   0  0  0  0  0  0  0  0  0  0  0  0
   19.4478   13.0696    3.6620 F   0  0  0  0  0  0  0  0  0  0  0  0
   20.5772   15.5022    1.1777 C   0  0  0  0  0  0  0  0  0  0  0  0
   21.6984   16.4169    1.1892 N   0  0  0  0  0  0  0  0  0  0  0  0
   21.6770   17.7364    0.8769 C   0  0  0  0  0  0  0  0  0  0  0  0
   22.9209   18.1954    1.2398 C   0  0  0  0  0  0  0  0  0  0  0  0
   23.6774   17.1922    1.7865 N   0  0  0  0  0  0  0  0  0  0  0  0
   22.9183   16.1202    1.7423 C   0  0  0  0  0  0  0  0  0  0  0  0
  1  2  2  0
  2  3  1  0
  3  4  1  0
  4  5  1  0
  5  6  1  0
  6  7  1  6
  6  8  1  0
  8  9  1  0
  9 10  1  0
  9 11  1  0
  9 12  1  0
 13  2  1  6
 13 14  1  0
 14 15  1  0
 15 16  1  6
 16 17  1  0
 16 18  1  0
 16 19  1  0
 15 20  1  0
 20 21  1  0
 21 22  1  0
 22 23  2  0
 23 24  1  0
 24 25  2  0
 25 13  1  0
 25 21  1  0
M  CHG  2   6   1   7  -1
M  END
>  <energy_score>  (1712) 
-13.758228

>  <inchikey>  (1712) 
None

>  <smiles>  (1712) 
None

>  <ref_pdb>  (1712) 
A0239a

>  <alias>  (1712) 
None

>  <HIPPO Pose ID>  (1712) 
499356

>  <name>  (1712) 
P499356

>  <HIPPO Compound ID>  (1712) 
301957

>  <ref_mols>  (1712) 
A0239a,A0309a

>  <distance_score>  (1712) 
1.878413

>  <inspiration_score>  (1712) 
None

$$$$
P499357
     RDKit          3D

 25 26  0  0  0  0  0  0  0  0999 V2000
   24.9960   15.0437    3.2407 O   0  0  0  0  0  0  0  0  0  0  0  0
   24.7305   14.3673    2.3278 C   0  0  0  0  0  0  0  0  0  0  0  0
   25.4070   13.0633    1.8078 N   0  0  0  0  0  0  0  0  0  0  0  0
   26.4824   12.2841    2.3623 C   0  0  0  0  0  0  0  0  0  0  0  0
   27.7354   12.4548    1.5247 C   0  0  0  0  0  0  0  0  0  0  0  0
   28.8067   11.0009    1.5260 S   0  0  0  0  0  0  0  0  0  0  0  0
   27.8120    9.6761    1.4049 O   0  0  0  0  0  0  0  0  0  0  0  0
   29.4235   11.2156    3.2125 C   0  0  0  0  0  0  0  0  0  0  0  0
   30.6993   10.4429    3.4376 C   0  0  0  0  0  0  0  0  0  0  0  0
   31.7171   11.0300    2.7617 F   0  0  0  0  0  0  0  0  0  0  0  0
   31.0331   10.4864    4.7522 F   0  0  0  0  0  0  0  0  0  0  0  0
   30.6369    9.1530    3.0692 F   0  0  0  0  0  0  0  0  0  0  0  0
   23.5093   14.5703    1.4009 C   0  0  1  0  0  0  0  0  0  0  0  0
   22.4979   13.4712    1.7407 C   0  0  0  0  0  0  0  0  0  0  0  0
   21.0851   13.6865    1.1788 C   0  0  2  0  0  0  0  0  0  0  0  0
   21.0377   13.4627   -0.3144 C   0  0  0  0  0  0  0  0  0  0  0  0
   21.3686   12.1896   -0.6201 F   0  0  0  0  0  0  0  0  0  0  0  0
   19.7888   13.6723   -0.7847 F   0  0  0  0  0  0  0  0  0  0  0  0
   21.8783   14.2675   -0.9785 F   0  0  0  0  0  0  0  0  0  0  0  0
   20.5357   15.0330    1.6208 C   0  0  0  0  0  0  0  0  0  0  0  0
   21.5254   16.0828    1.6252 N   0  0  0  0  0  0  0  0  0  0  0  0
   21.2609   17.4138    1.7208 C   0  0  0  0  0  0  0  0  0  0  0  0
   22.4923   18.0168    1.6432 C   0  0  0  0  0  0  0  0  0  0  0  0
   23.4826   17.0842    1.4943 N   0  0  0  0  0  0  0  0  0  0  0  0
   22.8856   15.9136    1.5492 C   0  0  0  0  0  0  0  0  0  0  0  0
  1  2  2  0
  2  3  1  0
  3  4  1  0
  4  5  1  0
  5  6  1  0
  6  7  1  1
  6  8  1  0
  8  9  1  0
  9 10  1  0
  9 11  1  0
  9 12  1  0
 13  2  1  1
 13 14  1  0
 14 15  1  0
 15 16  1  6
 16 17  1  0
 16 18  1  0
 16 19  1  0
 15 20  1  0
 20 21  1  0
 21 22  1  0
 22 23  2  0
 23 24  1  0
 24 25  2  0
 25 13  1  0
 25 21  1  0
M  CHG  2   6   1   7  -1
M  END
>  <energy_score>  (1713) 
-16.282678

>  <inchikey>  (1713) 
None

>  <smiles>  (1713) 
None

>  <ref_pdb>  (1713) 
A0239a

>  <alias>  (1713) 
None

>  <HIPPO Pose ID>  (1713) 
499357

>  <name>  (1713) 
P499357

>  <HIPPO Compound ID>  (1713) 
301957

>  <ref_mols>  (1713) 
A0239a,A0309a

>  <distance_score>  (1713) 
1.633989

>  <inspiration_score>  (1713) 
None

$$$$
P499358
     RDKit          3D

 25 26  0  0  0  0  0  0  0  0999 V2000
   23.2866   13.8436    3.5177 O   0  0  0  0  0  0  0  0  0  0  0  0
   23.8354   13.7192    2.4923 C   0  0  0  0  0  0  0  0  0  0  0  0
   25.1295   12.9346    2.1304 N   0  0  0  0  0  0  0  0  0  0  0  0
   25.9556   12.0682    2.9361 C   0  0  0  0  0  0  0  0  0  0  0  0
   27.4437   12.1501    2.6216 C   0  0  0  0  0  0  0  0  0  0  0  0
   27.9448   10.7495    1.5799 S   0  0  0  0  0  0  0  0  0  0  0  0
   26.9616   10.6976    0.2558 O   0  0  0  0  0  0  0  0  0  0  0  0
   29.5947   11.3307    1.1354 C   0  0  0  0  0  0  0  0  0  0  0  0
   29.6219   12.2928   -0.0240 C   0  0  0  0  0  0  0  0  0  0  0  0
   29.2943   11.7046   -1.1931 F   0  0  0  0  0  0  0  0  0  0  0  0
   28.8180   13.3597    0.1601 F   0  0  0  0  0  0  0  0  0  0  0  0
   30.8816   12.7781   -0.1753 F   0  0  0  0  0  0  0  0  0  0  0  0
   23.2975   14.3835    1.2092 C   0  0  1  0  0  0  0  0  0  0  0  0
   22.0324   13.6737    0.7042 C   0  0  0  0  0  0  0  0  0  0  0  0
   20.7837   13.9651    1.5709 C   0  0  2  0  0  0  0  0  0  0  0  0
   19.5175   13.3818    0.9728 C   0  0  0  0  0  0  0  0  0  0  0  0
   18.4557   13.6464    1.7677 F   0  0  0  0  0  0  0  0  0  0  0  0
   19.2571   13.9004   -0.2453 F   0  0  0  0  0  0  0  0  0  0  0  0
   19.5885   12.0451    0.8408 F   0  0  0  0  0  0  0  0  0  0  0  0
   20.5276   15.4549    1.7478 C   0  0  0  0  0  0  0  0  0  0  0  0
   21.7341   16.2365    1.8434 N   0  0  0  0  0  0  0  0  0  0  0  0
   21.7871   17.5675    2.1182 C   0  0  0  0  0  0  0  0  0  0  0  0
   23.1062   17.9045    1.9367 C   0  0  0  0  0  0  0  0  0  0  0  0
   23.8412   16.8162    1.5457 N   0  0  0  0  0  0  0  0  0  0  0  0
   22.9959   15.8084    1.5288 C   0  0  0  0  0  0  0  0  0  0  0  0
  1  2  2  0
  2  3  1  0
  3  4  1  0
  4  5  1  0
  5  6  1  0
  6  7  1  6
  6  8  1  0
  8  9  1  0
  9 10  1  0
  9 11  1  0
  9 12  1  0
 13  2  1  1
 13 14  1  0
 14 15  1  0
 15 16  1  6
 16 17  1  0
 16 18  1  0
 16 19  1  0
 15 20  1  0
 20 21  1  0
 21 22  1  0
 22 23  2  0
 23 24  1  0
 24 25  2  0
 25 13  1  0
 25 21  1  0
M  CHG  2   6   1   7  -1
M  END
>  <energy_score>  (1714) 
-23.07147

>  <inchikey>  (1714) 
None

>  <smiles>  (1714) 
None

>  <ref_pdb>  (1714) 
A0239a

>  <alias>  (1714) 
None

>  <HIPPO Pose ID>  (1714) 
499358

>  <name>  (1714) 
P499358

>  <HIPPO Compound ID>  (1714) 
301957

>  <ref_mols>  (1714) 
A0239a,A0309a

>  <distance_score>  (1714) 
1.718627

>  <inspiration_score>  (1714) 
None

$$$$
P499359
     RDKit          3D

 25 26  0  0  0  0  0  0  0  0999 V2000
   24.3826   12.6407    0.1773 O   0  0  0  0  0  0  0  0  0  0  0  0
   24.2108   13.2134    1.1828 C   0  0  0  0  0  0  0  0  0  0  0  0
   25.1844   13.4943    2.3594 N   0  0  0  0  0  0  0  0  0  0  0  0
   26.6001   13.2099    2.4991 C   0  0  0  0  0  0  0  0  0  0  0  0
   26.9572   11.7192    2.4707 C   0  0  0  0  0  0  0  0  0  0  0  0
   27.0580   11.1439    0.7484 S   0  0  0  0  0  0  0  0  0  0  0  0
   28.4382   11.7823    0.1194 O   0  0  0  0  0  0  0  0  0  0  0  0
   27.3881    9.4137    1.0419 C   0  0  0  0  0  0  0  0  0  0  0  0
   27.2466    8.5987   -0.2187 C   0  0  0  0  0  0  0  0  0  0  0  0
   26.0001    8.6660   -0.7359 F   0  0  0  0  0  0  0  0  0  0  0  0
   28.1243    8.9378   -1.1819 F   0  0  0  0  0  0  0  0  0  0  0  0
   27.4766    7.2888    0.0690 F   0  0  0  0  0  0  0  0  0  0  0  0
   22.8074   13.7421    1.5713 C   0  0  2  0  0  0  0  0  0  0  0  0
   21.8136   13.4485    0.4304 C   0  0  0  0  0  0  0  0  0  0  0  0
   20.4283   14.0973    0.5926 C   0  0  1  0  0  0  0  0  0  0  0  0
   19.5608   13.5213    1.6858 C   0  0  0  0  0  0  0  0  0  0  0  0
   20.1322   13.6148    2.9005 F   0  0  0  0  0  0  0  0  0  0  0  0
   18.3653   14.1460    1.7432 F   0  0  0  0  0  0  0  0  0  0  0  0
   19.3130   12.2121    1.4634 F   0  0  0  0  0  0  0  0  0  0  0  0
   20.5637   15.5997    0.7945 C   0  0  0  0  0  0  0  0  0  0  0  0
   21.6967   15.9842    1.6034 N   0  0  0  0  0  0  0  0  0  0  0  0
   21.9090   17.2265    2.1163 C   0  0  0  0  0  0  0  0  0  0  0  0
   23.1400   17.1474    2.7186 C   0  0  0  0  0  0  0  0  0  0  0  0
   23.6572   15.8837    2.6033 N   0  0  0  0  0  0  0  0  0  0  0  0
   22.7806   15.1977    1.9018 C   0  0  0  0  0  0  0  0  0  0  0  0
  1  2  2  0
  2  3  1  0
  3  4  1  0
  4  5  1  0
  5  6  1  0
  6  7  1  6
  6  8  1  0
  8  9  1  0
  9 10  1  0
  9 11  1  0
  9 12  1  0
 13  2  1  6
 13 14  1  0
 14 15  1  0
 15 16  1  1
 16 17  1  0
 16 18  1  0
 16 19  1  0
 15 20  1  0
 20 21  1  0
 21 22  1  0
 22 23  2  0
 23 24  1  0
 24 25  2  0
 25 13  1  0
 25 21  1  0
M  CHG  2   6   1   7  -1
M  END
>  <energy_score>  (1715) 
-25.24554

>  <inchikey>  (1715) 
None

>  <smiles>  (1715) 
None

>  <ref_pdb>  (1715) 
A0239a

>  <alias>  (1715) 
None

>  <HIPPO Pose ID>  (1715) 
499359

>  <name>  (1715) 
P499359

>  <HIPPO Compound ID>  (1715) 
301957

>  <ref_mols>  (1715) 
A0239a,A0309a

>  <distance_score>  (1715) 
1.945374

>  <inspiration_score>  (1715) 
None

$$$$
P499360
     RDKit          3D

 25 26  0  0  0  0  0  0  0  0999 V2000
   23.7612   13.8308    3.7284 O   0  0  0  0  0  0  0  0  0  0  0  0
   24.2452   13.6991    2.6737 C   0  0  0  0  0  0  0  0  0  0  0  0
   25.3809   12.7495    2.1984 N   0  0  0  0  0  0  0  0  0  0  0  0
   26.2116   11.8414    2.9430 C   0  0  0  0  0  0  0  0  0  0  0  0
   27.6726   11.8532    2.5129 C   0  0  0  0  0  0  0  0  0  0  0  0
   27.8750   11.3284    0.7706 S   0  0  0  0  0  0  0  0  0  0  0  0
   26.5376   11.8511   -0.0539 O   0  0  0  0  0  0  0  0  0  0  0  0
   27.6920    9.5590    0.9927 C   0  0  0  0  0  0  0  0  0  0  0  0
   27.4746    8.8339   -0.3119 C   0  0  0  0  0  0  0  0  0  0  0  0
   28.4417    9.0940   -1.2156 F   0  0  0  0  0  0  0  0  0  0  0  0
   27.5125    7.4937   -0.0767 F   0  0  0  0  0  0  0  0  0  0  0  0
   26.2753    9.0876   -0.8674 F   0  0  0  0  0  0  0  0  0  0  0  0
   23.7430   14.4313    1.4070 C   0  0  1  0  0  0  0  0  0  0  0  0
   22.9060   13.4616    0.5374 C   0  0  0  0  0  0  0  0  0  0  0  0
   21.5861   14.0678    0.0146 C   0  0  1  0  0  0  0  0  0  0  0  0
   20.7106   13.0876   -0.7260 C   0  0  0  0  0  0  0  0  0  0  0  0
   19.6671   13.7289   -1.2993 F   0  0  0  0  0  0  0  0  0  0  0  0
   20.1929   12.1586    0.1030 F   0  0  0  0  0  0  0  0  0  0  0  0
   21.3852   12.4512   -1.7024 F   0  0  0  0  0  0  0  0  0  0  0  0
   20.7956   14.6518    1.1857 C   0  0  0  0  0  0  0  0  0  0  0  0
   21.6013   15.6940    1.7822 N   0  0  0  0  0  0  0  0  0  0  0  0
   21.1943   16.9361    2.1532 C   0  0  0  0  0  0  0  0  0  0  0  0
   22.3627   17.6232    2.3842 C   0  0  0  0  0  0  0  0  0  0  0  0
   23.4552   16.8312    2.1409 N   0  0  0  0  0  0  0  0  0  0  0  0
   22.9725   15.6503    1.8162 C   0  0  0  0  0  0  0  0  0  0  0  0
  1  2  2  0
  2  3  1  0
  3  4  1  0
  4  5  1  0
  5  6  1  0
  6  7  1  6
  6  8  1  0
  8  9  1  0
  9 10  1  0
  9 11  1  0
  9 12  1  0
 13  2  1  1
 13 14  1  0
 14 15  1  0
 15 16  1  1
 16 17  1  0
 16 18  1  0
 16 19  1  0
 15 20  1  0
 20 21  1  0
 21 22  1  0
 22 23  2  0
 23 24  1  0
 24 25  2  0
 25 13  1  0
 25 21  1  0
M  CHG  2   6   1   7  -1
M  END
>  <energy_score>  (1716) 
-31.136442

>  <inchikey>  (1716) 
None

>  <smiles>  (1716) 
None

>  <ref_pdb>  (1716) 
A0239a

>  <alias>  (1716) 
None

>  <HIPPO Pose ID>  (1716) 
499360

>  <name>  (1716) 
P499360

>  <HIPPO Compound ID>  (1716) 
301957

>  <ref_mols>  (1716) 
A0239a,A0309a

>  <distance_score>  (1716) 
1.703919

>  <inspiration_score>  (1716) 
None

$$$$
P499361
     RDKit          3D

 25 26  0  0  0  0  0  0  0  0999 V2000
   25.1849   13.4943   -0.5379 O   0  0  0  0  0  0  0  0  0  0  0  0
   24.5506   13.6341    0.4350 C   0  0  0  0  0  0  0  0  0  0  0  0
   24.7973   13.1191    1.8799 N   0  0  0  0  0  0  0  0  0  0  0  0
   25.8246   12.2473    2.4027 C   0  0  0  0  0  0  0  0  0  0  0  0
   27.2244   12.4964    1.8511 C   0  0  0  0  0  0  0  0  0  0  0  0
   28.2448   11.0232    2.0871 S   0  0  0  0  0  0  0  0  0  0  0  0
   27.5695    9.7784    1.2296 O   0  0  0  0  0  0  0  0  0  0  0  0
   29.7591   11.5868    1.2865 C   0  0  0  0  0  0  0  0  0  0  0  0
   29.7668   11.4711   -0.2159 C   0  0  0  0  0  0  0  0  0  0  0  0
   28.7681   12.1617   -0.7989 F   0  0  0  0  0  0  0  0  0  0  0  0
   29.7215   10.1948   -0.6482 F   0  0  0  0  0  0  0  0  0  0  0  0
   30.9267   11.9976   -0.6934 F   0  0  0  0  0  0  0  0  0  0  0  0
   23.1885   14.3410    0.3600 C   0  0  1  0  0  0  0  0  0  0  0  0
   22.0644   13.3030    0.4773 C   0  0  0  0  0  0  0  0  0  0  0  0
   20.6895   13.9874    0.4608 C   0  0  1  0  0  0  0  0  0  0  0  0
   19.5232   13.0276    0.4475 C   0  0  0  0  0  0  0  0  0  0  0  0
   18.3606   13.6973    0.2963 F   0  0  0  0  0  0  0  0  0  0  0  0
   19.6233   12.1365   -0.5573 F   0  0  0  0  0  0  0  0  0  0  0  0
   19.4397   12.3396    1.6073 F   0  0  0  0  0  0  0  0  0  0  0  0
   20.5552   14.9021    1.6763 C   0  0  0  0  0  0  0  0  0  0  0  0
   21.7374   15.7221    1.8530 N   0  0  0  0  0  0  0  0  0  0  0  0
   21.7980   16.9060    2.5169 C   0  0  0  0  0  0  0  0  0  0  0  0
   23.1199   17.2743    2.4494 C   0  0  0  0  0  0  0  0  0  0  0  0
   23.8442   16.3650    1.7229 N   0  0  0  0  0  0  0  0  0  0  0  0
   22.9851   15.4468    1.3411 C   0  0  0  0  0  0  0  0  0  0  0  0
  1  2  2  0
  2  3  1  0
  3  4  1  0
  4  5  1  0
  5  6  1  0
  6  7  1  6
  6  8  1  0
  8  9  1  0
  9 10  1  0
  9 11  1  0
  9 12  1  0
 13  2  1  1
 13 14  1  0
 14 15  1  0
 15 16  1  1
 16 17  1  0
 16 18  1  0
 16 19  1  0
 15 20  1  0
 20 21  1  0
 21 22  1  0
 22 23  2  0
 23 24  1  0
 24 25  2  0
 25 13  1  0
 25 21  1  0
M  CHG  2   6   1   7  -1
M  END
>  <energy_score>  (1717) 
-31.471625

>  <inchikey>  (1717) 
None

>  <smiles>  (1717) 
None

>  <ref_pdb>  (1717) 
A0239a

>  <alias>  (1717) 
None

>  <HIPPO Pose ID>  (1717) 
499361

>  <name>  (1717) 
P499361

>  <HIPPO Compound ID>  (1717) 
301957

>  <ref_mols>  (1717) 
A0239a,A0309a

>  <distance_score>  (1717) 
1.730727

>  <inspiration_score>  (1717) 
None

$$$$
P499362
     RDKit          3D

 25 26  0  0  0  0  0  0  0  0999 V2000
   23.3945   17.2821    0.9730 O   0  0  0  0  0  0  0  0  0  0  0  0
   23.6501   16.2994    1.5523 C   0  0  0  0  0  0  0  0  0  0  0  0
   24.9923   16.1423    2.2949 C   0  0  0  0  0  0  0  0  0  0  0  0
   25.3667   14.7137    2.4684 C   0  0  0  0  0  0  0  0  0  0  0  0
   24.7892   13.8640    3.2973 N   0  0  0  0  0  0  0  0  0  0  0  0
   25.3382   12.6437    3.0142 C   0  0  0  0  0  0  0  0  0  0  0  0
   26.2104   12.7341    1.9610 C   0  0  0  0  0  0  0  0  0  0  0  0
   26.8998   11.7449    1.1754 C   0  0  0  0  0  0  0  0  0  0  0  0
   28.2363   11.4329    1.4190 C   0  0  0  0  0  0  0  0  0  0  0  0
   28.9419   10.6765    0.4807 C   0  0  0  0  0  0  0  0  0  0  0  0
   28.3040   10.2420   -0.6862 C   0  0  0  0  0  0  0  0  0  0  0  0
   29.2861    9.4402   -2.0889 Br  0  0  0  0  0  0  0  0  0  0  0  0
   26.9446   10.4641   -0.8771 C   0  0  0  0  0  0  0  0  0  0  0  0
   26.2425   11.2108    0.0623 C   0  0  0  0  0  0  0  0  0  0  0  0
   26.2520   14.0698    1.6534 N   0  0  0  0  0  0  0  0  0  0  0  0
   22.7865   15.0395    1.8243 N   0  0  0  0  0  0  0  0  0  0  0  0
   21.4158   14.7722    1.5252 C   0  0  0  0  0  0  0  0  0  0  0  0
   20.6827   14.8216    2.8468 C   0  0  0  0  0  0  0  0  0  0  0  0
   19.0506   14.0868    2.8317 S   0  0  0  0  0  0  0  0  0  0  0  0
   19.1650   12.6210    2.0784 O   0  0  0  0  0  0  0  0  0  0  0  0
   18.2109   15.2372    1.7342 C   0  0  0  0  0  0  0  0  0  0  0  0
   18.0326   16.5952    2.3608 C   0  0  0  0  0  0  0  0  0  0  0  0
   17.6108   16.5193    3.6432 F   0  0  0  0  0  0  0  0  0  0  0  0
   19.1762   17.3099    2.3528 F   0  0  0  0  0  0  0  0  0  0  0  0
   17.1107   17.3121    1.6782 F   0  0  0  0  0  0  0  0  0  0  0  0
  1  2  2  0
  2  3  1  0
  3  4  1  0
  4  5  2  0
  5  6  1  0
  6  7  2  0
  7  8  1  0
  8  9  2  0
  9 10  1  0
 10 11  2  0
 11 12  1  0
 11 13  1  0
 13 14  2  0
  7 15  1  0
  2 16  1  0
 16 17  1  0
 17 18  1  0
 18 19  1  0
 19 20  1  6
 19 21  1  0
 21 22  1  0
 22 23  1  0
 22 24  1  0
 22 25  1  0
 15  4  1  0
 14  8  1  0
M  CHG  2  19   1  20  -1
M  END
>  <energy_score>  (1718) 
-11.525808

>  <inchikey>  (1718) 
None

>  <smiles>  (1718) 
None

>  <ref_pdb>  (1718) 
A0239a

>  <alias>  (1718) 
None

>  <HIPPO Pose ID>  (1718) 
499362

>  <name>  (1718) 
P499362

>  <HIPPO Compound ID>  (1718) 
301958

>  <ref_mols>  (1718) 
A0239a,A0309a

>  <distance_score>  (1718) 
1.887467

>  <inspiration_score>  (1718) 
None

$$$$
P499363
     RDKit          3D

 25 26  0  0  0  0  0  0  0  0999 V2000
   21.3735   13.4552    0.1235 C   0  0  0  0  0  0  0  0  0  0  0  0
   22.8388   13.6147   -0.1528 C   0  0  0  0  0  0  0  0  0  0  0  0
   23.5275   12.5429   -0.7427 C   0  0  0  0  0  0  0  0  0  0  0  0
   24.9008   12.6068   -0.9614 C   0  0  0  0  0  0  0  0  0  0  0  0
   25.6114   13.7421   -0.5810 C   0  0  0  0  0  0  0  0  0  0  0  0
   24.9495   14.8217    0.0074 C   0  0  0  0  0  0  0  0  0  0  0  0
   23.5653   14.7642    0.2176 C   0  0  0  0  0  0  0  0  0  0  0  0
   22.9196   15.8512    0.8633 N   0  0  0  0  0  0  0  0  0  0  0  0
   21.7825   16.4893    0.4229 C   0  0  0  0  0  0  0  0  0  0  0  0
   21.4446   17.3906    1.3953 C   0  0  0  0  0  0  0  0  0  0  0  0
   22.3509   17.3583    2.4099 N   0  0  0  0  0  0  0  0  0  0  0  0
   23.2350   16.4311    2.0834 C   0  0  0  0  0  0  0  0  0  0  0  0
   24.3104   15.9380    2.9931 C   0  0  0  0  0  0  0  0  0  0  0  0
   23.9782   14.4873    3.3315 C   0  0  0  0  0  0  0  0  0  0  0  0
   22.8946   14.1537    3.6089 O   0  0  0  0  0  0  0  0  0  0  0  0
   25.2801   13.6608    3.2047 N   0  0  0  0  0  0  0  0  0  0  0  0
   25.4961   12.2571    3.2989 C   0  0  0  0  0  0  0  0  0  0  0  0
   26.4591   11.6089    2.3441 C   0  0  0  0  0  0  0  0  0  0  0  0
   28.1410   12.1866    2.5747 S   0  0  0  0  0  0  0  0  0  0  0  0
   28.2711   13.6720    1.8485 O   0  0  0  0  0  0  0  0  0  0  0  0
   28.9953   10.9642    1.5590 C   0  0  0  0  0  0  0  0  0  0  0  0
   28.2816   10.5195    0.3121 C   0  0  0  0  0  0  0  0  0  0  0  0
   27.8130   11.5325   -0.4357 F   0  0  0  0  0  0  0  0  0  0  0  0
   27.2615    9.6753    0.5833 F   0  0  0  0  0  0  0  0  0  0  0  0
   29.1418    9.8236   -0.4761 F   0  0  0  0  0  0  0  0  0  0  0  0
  1  2  1  0
  2  3  2  0
  3  4  1  0
  4  5  2  0
  5  6  1  0
  6  7  2  0
  7  8  1  0
  8  9  1  0
  9 10  2  0
 10 11  1  0
 11 12  2  0
 12 13  1  0
 13 14  1  0
 14 15  2  0
 14 16  1  0
 16 17  1  0
 17 18  1  0
 18 19  1  0
 19 20  1  6
 19 21  1  0
 21 22  1  0
 22 23  1  0
 22 24  1  0
 22 25  1  0
  7  2  1  0
 12  8  1  0
M  CHG  2  19   1  20  -1
M  END
>  <energy_score>  (1719) 
-11.954703

>  <inchikey>  (1719) 
None

>  <smiles>  (1719) 
None

>  <ref_pdb>  (1719) 
A0239a

>  <alias>  (1719) 
None

>  <HIPPO Pose ID>  (1719) 
499363

>  <name>  (1719) 
P499363

>  <HIPPO Compound ID>  (1719) 
301959

>  <ref_mols>  (1719) 
A0239a,A0309a

>  <distance_score>  (1719) 
1.924852

>  <inspiration_score>  (1719) 
None

$$$$
P499364
     RDKit          3D

 25 26  0  0  0  0  0  0  0  0999 V2000
   24.4564   17.0325    2.1516 C   0  0  0  0  0  0  0  0  0  0  0  0
   23.0674   16.6438    2.0524 N   0  0  0  0  0  0  0  0  0  0  0  0
   22.6010   15.3952    1.6960 C   0  0  0  0  0  0  0  0  0  0  0  0
   23.5069   14.2523    1.3683 C   0  0  0  0  0  0  0  0  0  0  0  0
   24.5876   14.6809    0.6437 F   0  0  0  0  0  0  0  0  0  0  0  0
   22.8707   13.3562    0.5537 F   0  0  0  0  0  0  0  0  0  0  0  0
   24.0168   13.5756    2.6676 C   0  0  0  0  0  0  0  0  0  0  0  0
   23.5545   13.7406    3.7292 O   0  0  0  0  0  0  0  0  0  0  0  0
   25.2278   12.7013    2.2180 N   0  0  0  0  0  0  0  0  0  0  0  0
   26.0412   11.7936    2.9607 C   0  0  0  0  0  0  0  0  0  0  0  0
   27.5024   12.1651    2.9650 C   0  0  0  0  0  0  0  0  0  0  0  0
   28.3107   12.2752    1.3758 S   0  0  0  0  0  0  0  0  0  0  0  0
   27.3105   12.9492    0.2463 O   0  0  0  0  0  0  0  0  0  0  0  0
   28.6013   10.5537    0.9927 C   0  0  0  0  0  0  0  0  0  0  0  0
   27.3960    9.7177    0.6589 C   0  0  0  0  0  0  0  0  0  0  0  0
   26.3477   10.3848    0.1573 F   0  0  0  0  0  0  0  0  0  0  0  0
   27.7454    8.7736   -0.2553 F   0  0  0  0  0  0  0  0  0  0  0  0
   26.9853    9.0283    1.7478 F   0  0  0  0  0  0  0  0  0  0  0  0
   21.2764   15.3812    1.6722 N   0  0  0  0  0  0  0  0  0  0  0  0
   20.8836   16.6386    2.0366 C   0  0  0  0  0  0  0  0  0  0  0  0
   19.5869   17.1564    2.1776 C   0  0  0  0  0  0  0  0  0  0  0  0
   19.4306   18.4912    2.5671 C   0  0  0  0  0  0  0  0  0  0  0  0
   20.5450   19.2949    2.8100 C   0  0  0  0  0  0  0  0  0  0  0  0
   21.8462   18.7962    2.6703 C   0  0  0  0  0  0  0  0  0  0  0  0
   21.9821   17.4571    2.2810 C   0  0  0  0  0  0  0  0  0  0  0  0
  1  2  1  0
  2  3  1  0
  3  4  1  0
  4  5  1  0
  4  6  1  0
  4  7  1  0
  7  8  2  0
  7  9  1  0
  9 10  1  0
 10 11  1  0
 11 12  1  0
 12 13  1  6
 12 14  1  0
 14 15  1  0
 15 16  1  0
 15 17  1  0
 15 18  1  0
  3 19  2  0
 19 20  1  0
 20 21  2  0
 21 22  1  0
 22 23  2  0
 23 24  1  0
 24 25  2  0
 25  2  1  0
 25 20  1  0
M  CHG  2  12   1  13  -1
M  END
>  <energy_score>  (1720) 
-4.574648

>  <inchikey>  (1720) 
None

>  <smiles>  (1720) 
None

>  <ref_pdb>  (1720) 
A0239a

>  <alias>  (1720) 
None

>  <HIPPO Pose ID>  (1720) 
499364

>  <name>  (1720) 
P499364

>  <HIPPO Compound ID>  (1720) 
301960

>  <ref_mols>  (1720) 
A0239a,A0309a

>  <distance_score>  (1720) 
1.562916

>  <inspiration_score>  (1720) 
None

$$$$
P499365
     RDKit          3D

 25 26  0  0  0  0  0  0  0  0999 V2000
   24.2280   17.0837    2.0395 C   0  0  0  0  0  0  0  0  0  0  0  0
   22.8488   16.6477    2.0076 N   0  0  0  0  0  0  0  0  0  0  0  0
   22.3722   15.3729    1.7733 C   0  0  0  0  0  0  0  0  0  0  0  0
   23.2477   14.2020    1.4840 C   0  0  0  0  0  0  0  0  0  0  0  0
   24.0903   14.4874    0.4352 F   0  0  0  0  0  0  0  0  0  0  0  0
   22.5236   13.1332    1.0400 F   0  0  0  0  0  0  0  0  0  0  0  0
   24.1553   13.8519    2.6873 C   0  0  0  0  0  0  0  0  0  0  0  0
   24.2009   14.4520    3.6877 O   0  0  0  0  0  0  0  0  0  0  0  0
   25.0029   12.6447    2.1982 N   0  0  0  0  0  0  0  0  0  0  0  0
   26.1324   11.9983    2.7970 C   0  0  0  0  0  0  0  0  0  0  0  0
   27.3444   12.6979    2.2073 C   0  0  0  0  0  0  0  0  0  0  0  0
   28.9067   11.8896    2.4301 S   0  0  0  0  0  0  0  0  0  0  0  0
   29.0518   11.2348    3.9235 O   0  0  0  0  0  0  0  0  0  0  0  0
   28.9243   10.6579    1.1363 C   0  0  0  0  0  0  0  0  0  0  0  0
   27.6625    9.9424    0.7437 C   0  0  0  0  0  0  0  0  0  0  0  0
   27.9392    9.1294   -0.3134 F   0  0  0  0  0  0  0  0  0  0  0  0
   26.6901   10.7759    0.3238 F   0  0  0  0  0  0  0  0  0  0  0  0
   27.1722    9.1410    1.7039 F   0  0  0  0  0  0  0  0  0  0  0  0
   21.0479   15.3580    1.8024 N   0  0  0  0  0  0  0  0  0  0  0  0
   20.6648   16.6369    2.0942 C   0  0  0  0  0  0  0  0  0  0  0  0
   19.3740   17.1625    2.2563 C   0  0  0  0  0  0  0  0  0  0  0  0
   19.2323   18.5180    2.5743 C   0  0  0  0  0  0  0  0  0  0  0  0
   20.3547   19.3334    2.7274 C   0  0  0  0  0  0  0  0  0  0  0  0
   21.6496   18.8270    2.5622 C   0  0  0  0  0  0  0  0  0  0  0  0
   21.7686   17.4690    2.2398 C   0  0  0  0  0  0  0  0  0  0  0  0
  1  2  1  0
  2  3  1  0
  3  4  1  0
  4  5  1  0
  4  6  1  0
  4  7  1  0
  7  8  2  0
  7  9  1  0
  9 10  1  0
 10 11  1  0
 11 12  1  0
 12 13  1  1
 12 14  1  0
 14 15  1  0
 15 16  1  0
 15 17  1  0
 15 18  1  0
  3 19  2  0
 19 20  1  0
 20 21  2  0
 21 22  1  0
 22 23  2  0
 23 24  1  0
 24 25  2  0
 25  2  1  0
 25 20  1  0
M  CHG  2  12   1  13  -1
M  END
>  <energy_score>  (1721) 
-16.180275

>  <inchikey>  (1721) 
None

>  <smiles>  (1721) 
None

>  <ref_pdb>  (1721) 
A0239a

>  <alias>  (1721) 
None

>  <HIPPO Pose ID>  (1721) 
499365

>  <name>  (1721) 
P499365

>  <HIPPO Compound ID>  (1721) 
301960

>  <ref_mols>  (1721) 
A0239a,A0309a

>  <distance_score>  (1721) 
1.369319

>  <inspiration_score>  (1721) 
None

$$$$
P499366
     RDKit          3D

 23 24  0  0  0  0  0  0  0  0999 V2000
   11.6429   14.9531   18.6024 C   0  0  0  0  0  0  0  0  0  0  0  0
   11.1326   15.5067   19.8759 C   0  0  0  0  0  0  0  0  0  0  0  0
    9.8865   15.9808   19.9178 C   0  0  0  0  0  0  0  0  0  0  0  0
    9.2072   16.3117   21.1982 C   0  0  0  0  0  0  0  0  0  0  0  0
    9.8823   15.5702   22.3812 C   0  0  2  0  0  0  0  0  0  0  0  0
    9.0612   15.7708   23.6621 C   0  0  2  0  0  0  0  0  0  0  0  0
    9.6923   15.6067   25.0437 C   0  0  0  0  0  0  0  0  0  0  0  0
    7.7108   15.0577   23.5636 C   0  0  0  0  0  0  0  0  0  0  0  0
    7.5923   13.5832   23.1836 C   0  0  0  0  0  0  0  0  0  0  0  0
    6.7604   13.2302   22.3409 O   0  0  0  0  0  0  0  0  0  0  0  0
    8.3295   12.6126   23.8434 N   0  0  0  0  0  0  0  0  0  0  0  0
    9.6271   12.1785   23.2456 C   0  0  0  0  0  0  0  0  0  0  0  0
   10.9549   12.6939   23.8031 C   0  0  0  0  0  0  0  0  0  0  0  0
    9.6576   10.6611   23.0044 C   0  0  0  0  0  0  0  0  0  0  0  0
    7.7714   12.0608   25.1184 C   0  0  0  0  0  0  0  0  0  0  0  0
    7.2141   10.6631   24.9071 C   0  0  0  0  0  0  0  0  0  0  0  0
    6.2922   10.1082   25.9708 C   0  0  0  0  0  0  0  0  0  0  0  0
    5.3248   11.0303   26.5370 N   0  0  0  0  0  0  0  0  0  0  0  0
    4.6379   10.4222   27.6799 C   0  0  0  0  0  0  0  0  0  0  0  0
    5.9106   12.3089   26.9054 C   0  0  0  0  0  0  0  0  0  0  0  0
    6.6777   12.9487   25.7562 C   0  0  0  0  0  0  0  0  0  0  0  0
   11.3641   15.9341   22.3801 C   0  0  0  0  0  0  0  0  0  0  0  0
   12.0013   15.3909   21.0960 C   0  0  0  0  0  0  0  0  0  0  0  0
  1  2  1  0
  2  3  2  0
  3  4  1  0
  5  4  1  6
  5  6  1  0
  6  7  1  1
  6  8  1  0
  8  9  1  0
  9 10  2  0
  9 11  1  0
 11 12  1  0
 12 13  1  0
 12 14  1  0
 11 15  1  0
 15 16  1  0
 16 17  1  0
 17 18  1  0
 18 19  1  0
 18 20  1  0
 20 21  1  0
  5 22  1  0
 22 23  1  0
 23  2  1  0
 21 15  1  0
M  END
>  <energy_score>  (1722) 
-19.651513

>  <inchikey>  (1722) 
None

>  <smiles>  (1722) 
None

>  <ref_pdb>  (1722) 
A4035a

>  <alias>  (1722) 
None

>  <HIPPO Pose ID>  (1722) 
499366

>  <name>  (1722) 
P499366

>  <HIPPO Compound ID>  (1722) 
302023

>  <ref_mols>  (1722) 
A1775a,A4035a

>  <distance_score>  (1722) 
1.975583

>  <inspiration_score>  (1722) 
None

$$$$
P499367
     RDKit          3D

 20 22  0  0  0  0  0  0  0  0999 V2000
    0.9980   13.5009   26.9758 C   0  0  0  0  0  0  0  0  0  0  0  0
    2.0815   13.3263   28.0340 C   0  0  2  0  0  0  0  0  0  0  0  0
    3.2894   12.8155   27.4263 N   0  0  0  0  0  0  0  0  0  0  0  0
    4.4615   13.5532   26.7635 C   0  0  0  0  0  0  0  0  0  0  0  0
    4.6791   14.6925   26.6687 O   0  0  0  0  0  0  0  0  0  0  0  0
    5.4063   12.5466   26.1623 C   0  0  0  0  0  0  0  0  0  0  0  0
    6.5693   12.9617   25.5498 C   0  0  0  0  0  0  0  0  0  0  0  0
    7.4044   12.0021   24.9934 C   0  0  0  0  0  0  0  0  0  0  0  0
    7.0645   10.6635   25.0407 C   0  0  0  0  0  0  0  0  0  0  0  0
    5.8917   10.3377   25.7009 C   0  0  0  0  0  0  0  0  0  0  0  0
    5.0558   11.2418   26.2709 N   0  0  0  0  0  0  0  0  0  0  0  0
    7.8781    9.7077   24.4312 N   0  0  0  0  0  0  0  0  0  0  0  0
    8.9526   10.0641   23.6583 C   0  0  0  0  0  0  0  0  0  0  0  0
    9.6048    9.2320   23.0365 O   0  0  0  0  0  0  0  0  0  0  0  0
    9.2091   11.5720   23.5723 C   0  0  0  0  0  0  0  0  0  0  0  0
    8.5791   12.4626   24.4773 O   0  0  0  0  0  0  0  0  0  0  0  0
    1.7332   12.4344   29.2107 C   0  0  0  0  0  0  0  0  0  0  0  0
    2.6417   12.5753   30.3216 O   0  0  0  0  0  0  0  0  0  0  0  0
    1.2418   11.0229   29.0040 C   0  0  0  0  0  0  0  0  0  0  0  0
    0.3224   12.0589   29.5888 C   0  0  0  0  0  0  0  0  0  0  0  0
  2  1  1  6
  2  3  1  0
  3  4  1  0
  4  5  2  0
  4  6  1  0
  6  7  2  0
  7  8  1  0
  8  9  2  0
  9 10  1  0
 10 11  2  0
  9 12  1  0
 12 13  1  0
 13 14  2  0
 13 15  1  0
 15 16  1  0
  2 17  1  0
 17 18  1  0
 17 19  1  0
 19 20  1  0
 11  6  1  0
 20 17  1  0
 16  8  1  0
M  END
>  <energy_score>  (1723) 
-13.372455

>  <inchikey>  (1723) 
None

>  <smiles>  (1723) 
None

>  <ref_pdb>  (1723) 
A3618a

>  <alias>  (1723) 
None

>  <HIPPO Pose ID>  (1723) 
499367

>  <name>  (1723) 
P499367

>  <HIPPO Compound ID>  (1723) 
302206

>  <ref_mols>  (1723) 
A0310a,A3618a

>  <distance_score>  (1723) 
1.95904

>  <inspiration_score>  (1723) 
None

$$$$
P499368
     RDKit          3D

 20 22  0  0  0  0  0  0  0  0999 V2000
   -0.1275   12.7033   26.0002 N   0  0  0  0  0  0  0  0  0  0  0  0
    0.7648   13.2880   26.4664 C   0  0  0  0  0  0  0  0  0  0  0  0
    1.9489   13.9767   27.0126 C   0  0  1  0  0  0  0  0  0  0  0  0
    3.1626   13.3104   26.6066 N   0  0  0  0  0  0  0  0  0  0  0  0
    4.6246   13.7555   26.7091 C   0  0  0  0  0  0  0  0  0  0  0  0
    5.0830   14.7630   27.0671 O   0  0  0  0  0  0  0  0  0  0  0  0
    5.5063   12.6743   26.1578 C   0  0  0  0  0  0  0  0  0  0  0  0
    6.7231   13.0089   25.6088 C   0  0  0  0  0  0  0  0  0  0  0  0
    7.4842   12.0033   25.0349 C   0  0  0  0  0  0  0  0  0  0  0  0
    7.0452   10.6922   25.0439 C   0  0  0  0  0  0  0  0  0  0  0  0
    5.8250   10.4447   25.6539 C   0  0  0  0  0  0  0  0  0  0  0  0
    5.0280   11.4073   26.1905 N   0  0  0  0  0  0  0  0  0  0  0  0
    7.8181    9.6940   24.4449 N   0  0  0  0  0  0  0  0  0  0  0  0
    8.9169    9.9994   23.6794 C   0  0  0  0  0  0  0  0  0  0  0  0
    9.5457    9.1406   23.0701 O   0  0  0  0  0  0  0  0  0  0  0  0
    9.2137   11.4967   23.5672 C   0  0  0  0  0  0  0  0  0  0  0  0
    8.6955   12.3874   24.5404 O   0  0  0  0  0  0  0  0  0  0  0  0
    1.9626   15.4002   26.5072 C   0  0  0  0  0  0  0  0  0  0  0  0
    0.7991   16.1554   25.8935 C   0  0  0  0  0  0  0  0  0  0  0  0
    1.9561   15.7311   25.0292 C   0  0  0  0  0  0  0  0  0  0  0  0
  1  2  3  0
  3  2  1  6
  3  4  1  0
  4  5  1  0
  5  6  2  0
  5  7  1  0
  7  8  2  0
  8  9  1  0
  9 10  2  0
 10 11  1  0
 11 12  2  0
 10 13  1  0
 13 14  1  0
 14 15  2  0
 14 16  1  0
 16 17  1  0
  3 18  1  0
 18 19  1  0
 19 20  1  0
 12  7  1  0
 20 18  1  0
 17  9  1  0
M  END
>  <energy_score>  (1724) 
-7.352127

>  <inchikey>  (1724) 
None

>  <smiles>  (1724) 
None

>  <ref_pdb>  (1724) 
A3618a

>  <alias>  (1724) 
None

>  <HIPPO Pose ID>  (1724) 
499368

>  <name>  (1724) 
P499368

>  <HIPPO Compound ID>  (1724) 
302207

>  <ref_mols>  (1724) 
A0310a,A3618a

>  <distance_score>  (1724) 
1.988672

>  <inspiration_score>  (1724) 
None

$$$$
P499369
     RDKit          3D

 20 22  0  0  0  0  0  0  0  0999 V2000
   -0.2670   13.5063   26.4966 C   0  0  0  0  0  0  0  0  0  0  0  0
    1.0408   13.7103   26.7102 C   0  0  0  0  0  0  0  0  0  0  0  0
    1.9106   13.0831   27.7708 C   0  0  2  0  0  0  0  0  0  0  0  0
    3.1078   12.6481   27.1086 N   0  0  0  0  0  0  0  0  0  0  0  0
    4.3691   13.4306   26.7102 C   0  0  0  0  0  0  0  0  0  0  0  0
    4.6073   14.5680   26.7862 O   0  0  0  0  0  0  0  0  0  0  0  0
    5.3775   12.4773   26.1287 C   0  0  0  0  0  0  0  0  0  0  0  0
    6.5439   12.9429   25.5570 C   0  0  0  0  0  0  0  0  0  0  0  0
    7.4175   12.0229   24.9893 C   0  0  0  0  0  0  0  0  0  0  0  0
    7.1137   10.6740   25.0030 C   0  0  0  0  0  0  0  0  0  0  0  0
    5.9435   10.2972   25.6379 C   0  0  0  0  0  0  0  0  0  0  0  0
    5.0678   11.1610   26.2021 N   0  0  0  0  0  0  0  0  0  0  0  0
    7.9512    9.7519   24.3783 N   0  0  0  0  0  0  0  0  0  0  0  0
    9.0152   10.1515   23.6159 C   0  0  0  0  0  0  0  0  0  0  0  0
    9.6788    9.3449   22.9732 O   0  0  0  0  0  0  0  0  0  0  0  0
    9.2467   11.6681   23.5736 C   0  0  0  0  0  0  0  0  0  0  0  0
    8.5845   12.5270   24.4899 O   0  0  0  0  0  0  0  0  0  0  0  0
    1.3314   11.9100   28.5137 C   0  0  0  0  0  0  0  0  0  0  0  0
    1.8919   11.5100   29.8572 C   0  0  0  0  0  0  0  0  0  0  0  0
    0.5155   12.1079   29.7679 C   0  0  0  0  0  0  0  0  0  0  0  0
  1  2  2  0
  2  3  1  0
  3  4  1  6
  4  5  1  0
  5  6  2  0
  5  7  1  0
  7  8  2  0
  8  9  1  0
  9 10  2  0
 10 11  1  0
 11 12  2  0
 10 13  1  0
 13 14  1  0
 14 15  2  0
 14 16  1  0
 16 17  1  0
  3 18  1  0
 18 19  1  0
 19 20  1  0
 12  7  1  0
 20 18  1  0
 17  9  1  0
M  END
>  <energy_score>  (1725) 
-17.93809

>  <inchikey>  (1725) 
None

>  <smiles>  (1725) 
None

>  <ref_pdb>  (1725) 
A3618a

>  <alias>  (1725) 
None

>  <HIPPO Pose ID>  (1725) 
499369

>  <name>  (1725) 
P499369

>  <HIPPO Compound ID>  (1725) 
302208

>  <ref_mols>  (1725) 
A0310a,A3618a

>  <distance_score>  (1725) 
1.962538

>  <inspiration_score>  (1725) 
None

$$$$
P499370
     RDKit          3D

 20 22  0  0  0  0  0  0  0  0999 V2000
    0.9027   13.4444   26.8994 C   0  0  0  0  0  0  0  0  0  0  0  0
    1.9609   13.1114   27.9517 C   0  0  2  0  0  0  0  0  0  0  0  0
    3.1564   12.6573   27.2719 N   0  0  0  0  0  0  0  0  0  0  0  0
    4.3702   13.4437   26.7555 C   0  0  0  0  0  0  0  0  0  0  0  0
    4.5691   14.5899   26.7250 O   0  0  0  0  0  0  0  0  0  0  0  0
    5.3624   12.4764   26.1658 C   0  0  0  0  0  0  0  0  0  0  0  0
    6.5250   12.9272   25.5781 C   0  0  0  0  0  0  0  0  0  0  0  0
    7.3839   11.9941   25.0101 C   0  0  0  0  0  0  0  0  0  0  0  0
    7.0709   10.6481   25.0329 C   0  0  0  0  0  0  0  0  0  0  0  0
    5.9006   10.2868   25.6763 C   0  0  0  0  0  0  0  0  0  0  0  0
    5.0380   11.1625   26.2457 N   0  0  0  0  0  0  0  0  0  0  0  0
    7.9034    9.7173   24.4123 N   0  0  0  0  0  0  0  0  0  0  0  0
    8.9695   10.1058   23.6449 C   0  0  0  0  0  0  0  0  0  0  0  0
    9.6343    9.2932   23.0110 O   0  0  0  0  0  0  0  0  0  0  0  0
    9.1977   11.6202   23.5813 C   0  0  0  0  0  0  0  0  0  0  0  0
    8.5515   12.4835   24.5034 O   0  0  0  0  0  0  0  0  0  0  0  0
    1.4516   12.1194   28.9956 C   0  0  0  0  0  0  0  0  0  0  0  0
    0.0383   12.6904   29.9411 Cl  0  0  0  0  0  0  0  0  0  0  0  0
    1.5254   10.6168   28.7934 C   0  0  0  0  0  0  0  0  0  0  0  0
    2.4368   11.2784   29.7880 C   0  0  0  0  0  0  0  0  0  0  0  0
  2  1  1  6
  2  3  1  0
  3  4  1  0
  4  5  2  0
  4  6  1  0
  6  7  2  0
  7  8  1  0
  8  9  2  0
  9 10  1  0
 10 11  2  0
  9 12  1  0
 12 13  1  0
 13 14  2  0
 13 15  1  0
 15 16  1  0
  2 17  1  0
 17 18  1  0
 17 19  1  0
 19 20  1  0
 11  6  1  0
 20 17  1  0
 16  8  1  0
M  END
>  <energy_score>  (1726) 
-10.61573

>  <inchikey>  (1726) 
None

>  <smiles>  (1726) 
None

>  <ref_pdb>  (1726) 
A3618a

>  <alias>  (1726) 
None

>  <HIPPO Pose ID>  (1726) 
499370

>  <name>  (1726) 
P499370

>  <HIPPO Compound ID>  (1726) 
302210

>  <ref_mols>  (1726) 
A0310a,A3618a

>  <distance_score>  (1726) 
1.936781

>  <inspiration_score>  (1726) 
None

$$$$
P499371
     RDKit          3D

 20 22  0  0  0  0  0  0  0  0999 V2000
    9.5217    9.1155   23.0712 O   0  0  0  0  0  0  0  0  0  0  0  0
    8.8948    9.9716   23.6860 C   0  0  0  0  0  0  0  0  0  0  0  0
    9.1913   11.4687   23.5813 C   0  0  0  0  0  0  0  0  0  0  0  0
    8.7232   12.3264   24.6102 O   0  0  0  0  0  0  0  0  0  0  0  0
    7.4915   11.9685   25.0763 C   0  0  0  0  0  0  0  0  0  0  0  0
    6.7486   12.9775   25.6669 C   0  0  0  0  0  0  0  0  0  0  0  0
    5.5190   12.6592   26.1982 C   0  0  0  0  0  0  0  0  0  0  0  0
    4.6800   13.7460   26.8016 C   0  0  0  0  0  0  0  0  0  0  0  0
    5.1885   14.6948   27.2448 O   0  0  0  0  0  0  0  0  0  0  0  0
    3.1943   13.3973   26.6390 N   0  0  0  0  0  0  0  0  0  0  0  0
    2.0079   14.1866   26.9018 C   0  0  2  0  0  0  0  0  0  0  0  0
    0.7461   13.3211   26.8136 C   0  0  0  0  0  0  0  0  0  0  0  0
    0.8026   12.1995   27.6952 O   0  0  0  0  0  0  0  0  0  0  0  0
    2.0279   15.3766   25.9771 C   0  0  0  0  0  0  0  0  0  0  0  0
    0.8275   15.8951   25.2184 C   0  0  0  0  0  0  0  0  0  0  0  0
    1.9441   15.2143   24.4763 C   0  0  0  0  0  0  0  0  0  0  0  0
    5.0061   11.4059   26.1841 N   0  0  0  0  0  0  0  0  0  0  0  0
    5.7906   10.4359   25.6406 C   0  0  0  0  0  0  0  0  0  0  0  0
    7.0245   10.6676   25.0524 C   0  0  0  0  0  0  0  0  0  0  0  0
    7.7901    9.6671   24.4458 N   0  0  0  0  0  0  0  0  0  0  0  0
  1  2  2  0
  2  3  1  0
  3  4  1  0
  4  5  1  0
  5  6  2  0
  6  7  1  0
  7  8  1  0
  8  9  2  0
  8 10  1  0
 10 11  1  0
 11 12  1  6
 12 13  1  0
 11 14  1  0
 14 15  1  0
 15 16  1  0
  7 17  2  0
 17 18  1  0
 18 19  2  0
 19 20  1  0
 20  2  1  0
 19  5  1  0
 16 14  1  0
M  END
>  <energy_score>  (1727) 
-22.722062

>  <inchikey>  (1727) 
None

>  <smiles>  (1727) 
None

>  <ref_pdb>  (1727) 
A3618a

>  <alias>  (1727) 
None

>  <HIPPO Pose ID>  (1727) 
499371

>  <name>  (1727) 
P499371

>  <HIPPO Compound ID>  (1727) 
302215

>  <ref_mols>  (1727) 
A0310a,A3618a

>  <distance_score>  (1727) 
1.997961

>  <inspiration_score>  (1727) 
None

$$$$
P499372
     RDKit          3D

 20 22  0  0  0  0  0  0  0  0999 V2000
    9.5670    9.2181   23.0568 O   0  0  0  0  0  0  0  0  0  0  0  0
    8.9118   10.0422   23.6857 C   0  0  0  0  0  0  0  0  0  0  0  0
    9.1469   11.5525   23.5969 C   0  0  0  0  0  0  0  0  0  0  0  0
    8.5954   12.3985   24.5951 O   0  0  0  0  0  0  0  0  0  0  0  0
    7.3877   11.9658   25.0629 C   0  0  0  0  0  0  0  0  0  0  0  0
    6.5552   12.9314   25.6136 C   0  0  0  0  0  0  0  0  0  0  0  0
    5.3697   12.5252   26.1892 C   0  0  0  0  0  0  0  0  0  0  0  0
    4.4113   13.5362   26.7654 C   0  0  0  0  0  0  0  0  0  0  0  0
    4.6216   14.6753   26.6507 O   0  0  0  0  0  0  0  0  0  0  0  0
    3.2330   12.8024   27.4238 N   0  0  0  0  0  0  0  0  0  0  0  0
    2.1013   13.3169   28.1699 C   0  0  1  0  0  0  0  0  0  0  0  0
    0.9708   13.7120   27.1967 C   0  0  0  0  0  0  0  0  0  0  0  0
    0.6979   12.6519   26.2712 O   0  0  0  0  0  0  0  0  0  0  0  0
    1.7536   12.3310   29.2562 C   0  0  0  0  0  0  0  0  0  0  0  0
    0.3575   11.8213   29.5351 C   0  0  0  0  0  0  0  0  0  0  0  0
    1.3873   10.8964   28.9522 C   0  0  0  0  0  0  0  0  0  0  0  0
    5.0014   11.2235   26.2751 N   0  0  0  0  0  0  0  0  0  0  0  0
    5.8369   10.3141   25.7109 C   0  0  0  0  0  0  0  0  0  0  0  0
    7.0255   10.6319   25.0767 C   0  0  0  0  0  0  0  0  0  0  0  0
    7.8388    9.6782   24.4606 N   0  0  0  0  0  0  0  0  0  0  0  0
  1  2  2  0
  2  3  1  0
  3  4  1  0
  4  5  1  0
  5  6  2  0
  6  7  1  0
  7  8  1  0
  8  9  2  0
  8 10  1  0
 10 11  1  0
 11 12  1  6
 12 13  1  0
 11 14  1  0
 14 15  1  0
 15 16  1  0
  7 17  2  0
 17 18  1  0
 18 19  2  0
 19 20  1  0
 20  2  1  0
 19  5  1  0
 16 14  1  0
M  END
>  <energy_score>  (1728) 
-7.994601

>  <inchikey>  (1728) 
None

>  <smiles>  (1728) 
None

>  <ref_pdb>  (1728) 
A3618a

>  <alias>  (1728) 
None

>  <HIPPO Pose ID>  (1728) 
499372

>  <name>  (1728) 
P499372

>  <HIPPO Compound ID>  (1728) 
302215

>  <ref_mols>  (1728) 
A0310a,A3618a

>  <distance_score>  (1728) 
1.963973

>  <inspiration_score>  (1728) 
None

$$$$
P499373
     RDKit          3D

 20 22  0  0  0  0  0  0  0  0999 V2000
    1.3423   14.7330   25.9771 C   0  0  0  0  0  0  0  0  0  0  0  0
    0.8942   13.5058   26.7569 C   0  0  0  0  0  0  0  0  0  0  0  0
    1.8802   13.0716   27.8533 C   0  0  2  0  0  0  0  0  0  0  0  0
    3.1305   12.6098   27.3071 N   0  0  0  0  0  0  0  0  0  0  0  0
    4.3701   13.3948   26.8458 C   0  0  0  0  0  0  0  0  0  0  0  0
    4.6079   14.5335   26.9052 O   0  0  0  0  0  0  0  0  0  0  0  0
    5.3492   12.4413   26.2138 C   0  0  0  0  0  0  0  0  0  0  0  0
    6.5164   12.9013   25.6410 C   0  0  0  0  0  0  0  0  0  0  0  0
    7.3703   11.9796   25.0464 C   0  0  0  0  0  0  0  0  0  0  0  0
    7.0525   10.6344   25.0367 C   0  0  0  0  0  0  0  0  0  0  0  0
    5.8758   10.2637   25.6618 C   0  0  0  0  0  0  0  0  0  0  0  0
    5.0135   11.1296   26.2446 N   0  0  0  0  0  0  0  0  0  0  0  0
    7.8891    9.7137   24.4056 N   0  0  0  0  0  0  0  0  0  0  0  0
    8.9563   10.1163   23.6472 C   0  0  0  0  0  0  0  0  0  0  0  0
    9.6312    9.3150   23.0095 O   0  0  0  0  0  0  0  0  0  0  0  0
    9.1669   11.6336   23.5928 C   0  0  0  0  0  0  0  0  0  0  0  0
    8.5425   12.4735   24.5521 O   0  0  0  0  0  0  0  0  0  0  0  0
    1.2930   11.9489   28.6680 C   0  0  0  0  0  0  0  0  0  0  0  0
    1.7854   11.6921   30.0702 C   0  0  0  0  0  0  0  0  0  0  0  0
    0.4018   12.2379   29.8498 C   0  0  0  0  0  0  0  0  0  0  0  0
  1  2  1  0
  3  2  1  6
  3  4  1  0
  4  5  1  0
  5  6  2  0
  5  7  1  0
  7  8  2  0
  8  9  1  0
  9 10  2  0
 10 11  1  0
 11 12  2  0
 10 13  1  0
 13 14  1  0
 14 15  2  0
 14 16  1  0
 16 17  1  0
  3 18  1  0
 18 19  1  0
 19 20  1  0
 12  7  1  0
 20 18  1  0
 17  9  1  0
M  END
>  <energy_score>  (1729) 
-19.626471

>  <inchikey>  (1729) 
None

>  <smiles>  (1729) 
None

>  <ref_pdb>  (1729) 
A3618a

>  <alias>  (1729) 
None

>  <HIPPO Pose ID>  (1729) 
499373

>  <name>  (1729) 
P499373

>  <HIPPO Compound ID>  (1729) 
302217

>  <ref_mols>  (1729) 
A0310a,A3618a

>  <distance_score>  (1729) 
1.922205

>  <inspiration_score>  (1729) 
None

$$$$
P499374
     RDKit          3D

 20 22  0  0  0  0  0  0  0  0999 V2000
    0.1169   13.4607   25.8873 C   0  0  0  0  0  0  0  0  0  0  0  0
    0.9423   13.3358   26.7522 C   0  0  0  0  0  0  0  0  0  0  0  0
    1.9632   13.2283   27.8061 C   0  0  2  0  0  0  0  0  0  0  0  0
    3.1892   12.7456   27.2536 N   0  0  0  0  0  0  0  0  0  0  0  0
    4.4269   13.5050   26.7592 C   0  0  0  0  0  0  0  0  0  0  0  0
    4.6787   14.6407   26.7930 O   0  0  0  0  0  0  0  0  0  0  0  0
    5.3971   12.5285   26.1483 C   0  0  0  0  0  0  0  0  0  0  0  0
    6.5679   12.9714   25.5676 C   0  0  0  0  0  0  0  0  0  0  0  0
    7.4221   12.0357   24.9968 C   0  0  0  0  0  0  0  0  0  0  0  0
    7.0960   10.6921   25.0132 C   0  0  0  0  0  0  0  0  0  0  0  0
    5.9189   10.3371   25.6496 C   0  0  0  0  0  0  0  0  0  0  0  0
    5.0590   11.2178   26.2161 N   0  0  0  0  0  0  0  0  0  0  0  0
    7.9231    9.7559   24.3938 N   0  0  0  0  0  0  0  0  0  0  0  0
    8.9938   10.1387   23.6305 C   0  0  0  0  0  0  0  0  0  0  0  0
    9.6517    9.3216   22.9950 O   0  0  0  0  0  0  0  0  0  0  0  0
    9.2372   11.6523   23.5742 C   0  0  0  0  0  0  0  0  0  0  0  0
    8.5984   12.5194   24.4986 O   0  0  0  0  0  0  0  0  0  0  0  0
    1.3596   12.3031   28.8270 C   0  0  0  0  0  0  0  0  0  0  0  0
    2.2302   11.5595   29.8170 C   0  0  0  0  0  0  0  0  0  0  0  0
    1.4562   10.7917   28.7812 C   0  0  0  0  0  0  0  0  0  0  0  0
  1  2  3  0
  3  2  1  6
  3  4  1  0
  4  5  1  0
  5  6  2  0
  5  7  1  0
  7  8  2  0
  8  9  1  0
  9 10  2  0
 10 11  1  0
 11 12  2  0
 10 13  1  0
 13 14  1  0
 14 15  2  0
 14 16  1  0
 16 17  1  0
  3 18  1  0
 18 19  1  0
 19 20  1  0
 12  7  1  0
 20 18  1  0
 17  9  1  0
M  END
>  <energy_score>  (1730) 
-16.16141

>  <inchikey>  (1730) 
None

>  <smiles>  (1730) 
None

>  <ref_pdb>  (1730) 
A3618a

>  <alias>  (1730) 
None

>  <HIPPO Pose ID>  (1730) 
499374

>  <name>  (1730) 
P499374

>  <HIPPO Compound ID>  (1730) 
302218

>  <ref_mols>  (1730) 
A0310a,A3618a

>  <distance_score>  (1730) 
1.97799

>  <inspiration_score>  (1730) 
None

$$$$
P499375
     RDKit          3D

 20 22  0  0  0  0  0  0  0  0999 V2000
    1.4483   14.8281   26.4369 C   0  0  0  0  0  0  0  0  0  0  0  0
    2.9052   15.3194   26.5994 C   0  0  0  0  0  0  0  0  0  0  0  0
    3.1225   15.6908   28.0744 C   0  0  0  0  0  0  0  0  0  0  0  0
    3.8066   14.2377   26.2477 N   0  0  0  0  0  0  0  0  0  0  0  0
    3.8924   12.8023   26.7751 C   0  0  0  0  0  0  0  0  0  0  0  0
    3.2062   12.2300   27.5215 O   0  0  0  0  0  0  0  0  0  0  0  0
    5.0618   12.0811   26.1659 C   0  0  0  0  0  0  0  0  0  0  0  0
    5.1492   10.7218   26.3759 C   0  0  0  0  0  0  0  0  0  0  0  0
    6.1772   10.0337   25.7613 C   0  0  0  0  0  0  0  0  0  0  0  0
    7.0971   10.6934   24.9830 C   0  0  0  0  0  0  0  0  0  0  0  0
    6.9498   12.0605   24.8285 C   0  0  0  0  0  0  0  0  0  0  0  0
    5.9531   12.7757   25.4085 N   0  0  0  0  0  0  0  0  0  0  0  0
    7.7636   12.7761   23.9888 O   0  0  0  0  0  0  0  0  0  0  0  0
    8.9698   12.1146   23.6124 C   0  0  0  0  0  0  0  0  0  0  0  0
    8.9907   10.5823   23.5262 C   0  0  0  0  0  0  0  0  0  0  0  0
    9.7630    9.9253   22.8420 O   0  0  0  0  0  0  0  0  0  0  0  0
    8.0797    9.9658   24.3263 N   0  0  0  0  0  0  0  0  0  0  0  0
    3.1710   16.4594   25.6312 C   0  0  0  0  0  0  0  0  0  0  0  0
    4.4956   17.1921   25.6147 C   0  0  0  0  0  0  0  0  0  0  0  0
    3.2490   17.9146   26.0405 C   0  0  0  0  0  0  0  0  0  0  0  0
  1  2  1  0
  2  3  1  0
  2  4  1  0
  4  5  1  0
  5  6  2  0
  5  7  1  0
  7  8  2  0
  8  9  1  0
  9 10  2  0
 10 11  1  0
 11 12  2  0
 11 13  1  0
 13 14  1  0
 14 15  1  0
 15 16  2  0
 15 17  1  0
  2 18  1  0
 18 19  1  0
 19 20  1  0
 12  7  1  0
 20 18  1  0
 17 10  1  0
M  END
>  <energy_score>  (1731) 
-24.721112

>  <inchikey>  (1731) 
None

>  <smiles>  (1731) 
None

>  <ref_pdb>  (1731) 
A3618a

>  <alias>  (1731) 
None

>  <HIPPO Pose ID>  (1731) 
499375

>  <name>  (1731) 
P499375

>  <HIPPO Compound ID>  (1731) 
302219

>  <ref_mols>  (1731) 
A0310a,A3618a

>  <distance_score>  (1731) 
1.918568

>  <inspiration_score>  (1731) 
None

$$$$
P499376
     RDKit          3D

 20 22  0  0  0  0  0  0  0  0999 V2000
    0.9415   13.7505   26.9708 C   0  0  0  0  0  0  0  0  0  0  0  0
    1.9663   13.1938   27.9536 C   0  0  2  0  0  0  0  0  0  0  0  0
    3.1272   12.7208   27.2399 N   0  0  0  0  0  0  0  0  0  0  0  0
    4.3829   13.4697   26.7690 C   0  0  0  0  0  0  0  0  0  0  0  0
    4.6472   14.6027   26.8138 O   0  0  0  0  0  0  0  0  0  0  0  0
    5.3537   12.4882   26.1688 C   0  0  0  0  0  0  0  0  0  0  0  0
    6.5256   12.9256   25.5881 C   0  0  0  0  0  0  0  0  0  0  0  0
    7.3764   11.9842   25.0231 C   0  0  0  0  0  0  0  0  0  0  0  0
    7.0487   10.6416   25.0425 C   0  0  0  0  0  0  0  0  0  0  0  0
    5.8708   10.2933   25.6801 C   0  0  0  0  0  0  0  0  0  0  0  0
    5.0162   11.1793   26.2473 N   0  0  0  0  0  0  0  0  0  0  0  0
    7.8777    9.7037   24.4260 N   0  0  0  0  0  0  0  0  0  0  0  0
    8.9480   10.0848   23.6595 C   0  0  0  0  0  0  0  0  0  0  0  0
    9.6148    9.2695   23.0310 O   0  0  0  0  0  0  0  0  0  0  0  0
    9.1758   11.5983   23.5857 C   0  0  0  0  0  0  0  0  0  0  0  0
    8.5541   12.4603   24.5256 O   0  0  0  0  0  0  0  0  0  0  0  0
    1.3773   12.0708   28.7677 C   0  0  0  0  0  0  0  0  0  0  0  0
    0.8607   11.0046   28.0379 F   0  0  0  0  0  0  0  0  0  0  0  0
    0.6667   12.3585   30.0648 C   0  0  0  0  0  0  0  0  0  0  0  0
    2.0100   11.6846   30.0800 C   0  0  0  0  0  0  0  0  0  0  0  0
  2  1  1  6
  2  3  1  0
  3  4  1  0
  4  5  2  0
  4  6  1  0
  6  7  2  0
  7  8  1  0
  8  9  2  0
  9 10  1  0
 10 11  2  0
  9 12  1  0
 12 13  1  0
 13 14  2  0
 13 15  1  0
 15 16  1  0
  2 17  1  0
 17 18  1  0
 17 19  1  0
 19 20  1  0
 11  6  1  0
 20 17  1  0
 16  8  1  0
M  END
>  <energy_score>  (1732) 
-6.501665

>  <inchikey>  (1732) 
None

>  <smiles>  (1732) 
None

>  <ref_pdb>  (1732) 
A3618a

>  <alias>  (1732) 
None

>  <HIPPO Pose ID>  (1732) 
499376

>  <name>  (1732) 
P499376

>  <HIPPO Compound ID>  (1732) 
302228

>  <ref_mols>  (1732) 
A0310a,A3618a

>  <distance_score>  (1732) 
1.938867

>  <inspiration_score>  (1732) 
None

$$$$
P499377
     RDKit          3D

 20 22  0  0  0  0  0  0  0  0999 V2000
    0.2180   13.1075   25.7262 N   0  0  0  0  0  0  0  0  0  0  0  0
    1.1176   13.8413   25.6331 C   0  0  0  0  0  0  0  0  0  0  0  0
    2.2990   14.7190   25.4317 C   0  0  1  0  0  0  0  0  0  0  0  0
    3.5110   13.9476   25.4314 N   0  0  0  0  0  0  0  0  0  0  0  0
    4.2495   13.2568   26.5783 C   0  0  0  0  0  0  0  0  0  0  0  0
    4.0402   13.2630   27.7216 O   0  0  0  0  0  0  0  0  0  0  0  0
    5.3332   12.3897   26.0345 C   0  0  0  0  0  0  0  0  0  0  0  0
    5.3643   11.0782   26.4597 C   0  0  0  0  0  0  0  0  0  0  0  0
    6.2838   10.2297   25.8670 C   0  0  0  0  0  0  0  0  0  0  0  0
    7.1812   10.7183   24.9403 C   0  0  0  0  0  0  0  0  0  0  0  0
    7.0833   12.0562   24.5806 C   0  0  0  0  0  0  0  0  0  0  0  0
    6.1480   12.8956   25.0773 N   0  0  0  0  0  0  0  0  0  0  0  0
    7.8826   12.5911   23.5958 O   0  0  0  0  0  0  0  0  0  0  0  0
    9.1208   11.8931   23.4555 C   0  0  0  0  0  0  0  0  0  0  0  0
    9.0523   10.3597   23.4848 C   0  0  0  0  0  0  0  0  0  0  0  0
    9.7804    9.6083   22.8513 O   0  0  0  0  0  0  0  0  0  0  0  0
    8.1061    9.8699   24.3409 N   0  0  0  0  0  0  0  0  0  0  0  0
    2.0981   15.3498   24.0841 C   0  0  0  0  0  0  0  0  0  0  0  0
    2.8807   16.5868   23.7074 C   0  0  0  0  0  0  0  0  0  0  0  0
    1.3994   16.6820   23.9428 C   0  0  0  0  0  0  0  0  0  0  0  0
  1  2  3  0
  3  2  1  6
  3  4  1  0
  4  5  1  0
  5  6  2  0
  5  7  1  0
  7  8  2  0
  8  9  1  0
  9 10  2  0
 10 11  1  0
 11 12  2  0
 11 13  1  0
 13 14  1  0
 14 15  1  0
 15 16  2  0
 15 17  1  0
  3 18  1  0
 18 19  1  0
 19 20  1  0
 12  7  1  0
 20 18  1  0
 17 10  1  0
M  END
>  <energy_score>  (1733) 
-5.863899

>  <inchikey>  (1733) 
None

>  <smiles>  (1733) 
None

>  <ref_pdb>  (1733) 
A3618a

>  <alias>  (1733) 
None

>  <HIPPO Pose ID>  (1733) 
499377

>  <name>  (1733) 
P499377

>  <HIPPO Compound ID>  (1733) 
302240

>  <ref_mols>  (1733) 
A0310a,A3618a

>  <distance_score>  (1733) 
1.946475

>  <inspiration_score>  (1733) 
None

$$$$
P499378
     RDKit          3D

 20 22  0  0  0  0  0  0  0  0999 V2000
   -0.0044   13.7626   25.4458 C   0  0  0  0  0  0  0  0  0  0  0  0
    1.1912   14.0698   25.9705 C   0  0  0  0  0  0  0  0  0  0  0  0
    2.3415   14.7867   25.2928 C   0  0  1  0  0  0  0  0  0  0  0  0
    3.4602   13.8848   25.3046 N   0  0  0  0  0  0  0  0  0  0  0  0
    4.2425   13.2823   26.4785 C   0  0  0  0  0  0  0  0  0  0  0  0
    4.0595   13.3581   27.6260 O   0  0  0  0  0  0  0  0  0  0  0  0
    5.3306   12.4044   25.9658 C   0  0  0  0  0  0  0  0  0  0  0  0
    5.3604   11.1036   26.4230 C   0  0  0  0  0  0  0  0  0  0  0  0
    6.2878   10.2431   25.8594 C   0  0  0  0  0  0  0  0  0  0  0  0
    7.1925   10.7125   24.9287 C   0  0  0  0  0  0  0  0  0  0  0  0
    7.1002   12.0434   24.5422 C   0  0  0  0  0  0  0  0  0  0  0  0
    6.1603   12.8907   25.0118 N   0  0  0  0  0  0  0  0  0  0  0  0
    7.9070   12.5588   23.5532 O   0  0  0  0  0  0  0  0  0  0  0  0
    9.1450   11.8572   23.4364 C   0  0  0  0  0  0  0  0  0  0  0  0
    9.0675   10.3250   23.4845 C   0  0  0  0  0  0  0  0  0  0  0  0
    9.7913    9.5610   22.8613 O   0  0  0  0  0  0  0  0  0  0  0  0
    8.1176    9.8518   24.3468 N   0  0  0  0  0  0  0  0  0  0  0  0
    2.1170   15.2431   23.8771 C   0  0  0  0  0  0  0  0  0  0  0  0
    1.4966   16.5881   23.5880 C   0  0  0  0  0  0  0  0  0  0  0  0
    2.9535   16.3583   23.2966 C   0  0  0  0  0  0  0  0  0  0  0  0
  1  2  2  0
  2  3  1  0
  3  4  1  6
  4  5  1  0
  5  6  2  0
  5  7  1  0
  7  8  2  0
  8  9  1  0
  9 10  2  0
 10 11  1  0
 11 12  2  0
 11 13  1  0
 13 14  1  0
 14 15  1  0
 15 16  2  0
 15 17  1  0
  3 18  1  0
 18 19  1  0
 19 20  1  0
 12  7  1  0
 20 18  1  0
 17 10  1  0
M  END
>  <energy_score>  (1734) 
-10.573269

>  <inchikey>  (1734) 
None

>  <smiles>  (1734) 
None

>  <ref_pdb>  (1734) 
A3618a

>  <alias>  (1734) 
None

>  <HIPPO Pose ID>  (1734) 
499378

>  <name>  (1734) 
P499378

>  <HIPPO Compound ID>  (1734) 
302242

>  <ref_mols>  (1734) 
A0310a,A3618a

>  <distance_score>  (1734) 
1.959096

>  <inspiration_score>  (1734) 
None

$$$$
P499379
     RDKit          3D

 20 22  0  0  0  0  0  0  0  0999 V2000
    1.5373   14.7263   26.5366 C   0  0  0  0  0  0  0  0  0  0  0  0
    2.8963   15.1038   27.1359 C   0  0  1  0  0  0  0  0  0  0  0  0
    3.8788   14.1001   26.7892 N   0  0  0  0  0  0  0  0  0  0  0  0
    3.9263   12.6070   27.1050 C   0  0  0  0  0  0  0  0  0  0  0  0
    3.2237   11.9523   27.7602 O   0  0  0  0  0  0  0  0  0  0  0  0
    5.0694   11.9537   26.3771 C   0  0  0  0  0  0  0  0  0  0  0  0
    5.1452   10.5804   26.4204 C   0  0  0  0  0  0  0  0  0  0  0  0
    6.1617    9.9669   25.7173 C   0  0  0  0  0  0  0  0  0  0  0  0
    7.0802   10.7058   25.0135 C   0  0  0  0  0  0  0  0  0  0  0  0
    6.9393   12.0806   25.0105 C   0  0  0  0  0  0  0  0  0  0  0  0
    5.9490   12.7272   25.6802 N   0  0  0  0  0  0  0  0  0  0  0  0
    7.7757   12.8915   24.2882 O   0  0  0  0  0  0  0  0  0  0  0  0
    8.9042   12.2491   23.6962 C   0  0  0  0  0  0  0  0  0  0  0  0
    8.9618   10.7216   23.5440 C   0  0  0  0  0  0  0  0  0  0  0  0
    9.7447   10.1160   22.8246 O   0  0  0  0  0  0  0  0  0  0  0  0
    8.0650   10.0416   24.3006 N   0  0  0  0  0  0  0  0  0  0  0  0
    3.4231   16.4808   26.7738 C   0  0  0  0  0  0  0  0  0  0  0  0
    4.5974   17.1455   27.9537 Cl  0  0  0  0  0  0  0  0  0  0  0  0
    2.6110   17.5143   26.0175 C   0  0  0  0  0  0  0  0  0  0  0  0
    3.7303   16.7927   25.3237 C   0  0  0  0  0  0  0  0  0  0  0  0
  2  1  1  6
  2  3  1  0
  3  4  1  0
  4  5  2  0
  4  6  1  0
  6  7  2  0
  7  8  1  0
  8  9  2  0
  9 10  1  0
 10 11  2  0
 10 12  1  0
 12 13  1  0
 13 14  1  0
 14 15  2  0
 14 16  1  0
  2 17  1  0
 17 18  1  0
 17 19  1  0
 19 20  1  0
 11  6  1  0
 20 17  1  0
 16  9  1  0
M  END
>  <energy_score>  (1735) 
-15.277988

>  <inchikey>  (1735) 
None

>  <smiles>  (1735) 
None

>  <ref_pdb>  (1735) 
A3618a

>  <alias>  (1735) 
None

>  <HIPPO Pose ID>  (1735) 
499379

>  <name>  (1735) 
P499379

>  <HIPPO Compound ID>  (1735) 
302244

>  <ref_mols>  (1735) 
A0310a,A3618a

>  <distance_score>  (1735) 
1.925931

>  <inspiration_score>  (1735) 
None

$$$$
P499380
     RDKit          3D

 20 22  0  0  0  0  0  0  0  0999 V2000
    0.2566   13.7918   26.5058 C   0  0  0  0  0  0  0  0  0  0  0  0
    1.2068   14.2782   25.9528 C   0  0  0  0  0  0  0  0  0  0  0  0
    2.3754   14.8648   25.2706 C   0  0  2  0  0  0  0  0  0  0  0  0
    3.4756   13.9457   25.2942 N   0  0  0  0  0  0  0  0  0  0  0  0
    4.1237   13.1962   26.4659 C   0  0  0  0  0  0  0  0  0  0  0  0
    3.8209   13.1443   27.5893 O   0  0  0  0  0  0  0  0  0  0  0  0
    5.2536   12.3575   25.9727 C   0  0  0  0  0  0  0  0  0  0  0  0
    5.3178   11.0560   26.4248 C   0  0  0  0  0  0  0  0  0  0  0  0
    6.2720   10.2236   25.8651 C   0  0  0  0  0  0  0  0  0  0  0  0
    7.1692   10.7188   24.9422 C   0  0  0  0  0  0  0  0  0  0  0  0
    7.0484   12.0500   24.5648 C   0  0  0  0  0  0  0  0  0  0  0  0
    6.0834   12.8717   25.0314 N   0  0  0  0  0  0  0  0  0  0  0  0
    7.8507   12.5907   23.5856 O   0  0  0  0  0  0  0  0  0  0  0  0
    9.0994   11.9102   23.4617 C   0  0  0  0  0  0  0  0  0  0  0  0
    9.0509   10.3768   23.4976 C   0  0  0  0  0  0  0  0  0  0  0  0
    9.7922    9.6322   22.8715 O   0  0  0  0  0  0  0  0  0  0  0  0
    8.1121    9.8798   24.3573 N   0  0  0  0  0  0  0  0  0  0  0  0
    2.7748   16.1585   25.9238 C   0  0  0  0  0  0  0  0  0  0  0  0
    2.7601   16.3974   27.4179 C   0  0  0  0  0  0  0  0  0  0  0  0
    1.7997   17.1454   26.5297 C   0  0  0  0  0  0  0  0  0  0  0  0
  1  2  3  0
  3  2  1  1
  3  4  1  0
  4  5  1  0
  5  6  2  0
  5  7  1  0
  7  8  2  0
  8  9  1  0
  9 10  2  0
 10 11  1  0
 11 12  2  0
 11 13  1  0
 13 14  1  0
 14 15  1  0
 15 16  2  0
 15 17  1  0
  3 18  1  0
 18 19  1  0
 19 20  1  0
 12  7  1  0
 20 18  1  0
 17 10  1  0
M  END
>  <energy_score>  (1736) 
-0.59778

>  <inchikey>  (1736) 
None

>  <smiles>  (1736) 
None

>  <ref_pdb>  (1736) 
A3618a

>  <alias>  (1736) 
None

>  <HIPPO Pose ID>  (1736) 
499380

>  <name>  (1736) 
P499380

>  <HIPPO Compound ID>  (1736) 
302247

>  <ref_mols>  (1736) 
A0310a,A3618a

>  <distance_score>  (1736) 
1.95613

>  <inspiration_score>  (1736) 
None

$$$$
P499381
     RDKit          3D

 20 22  0  0  0  0  0  0  0  0999 V2000
    0.2433   14.1922   26.0771 C   0  0  0  0  0  0  0  0  0  0  0  0
    1.3542   14.6052   26.2774 C   0  0  0  0  0  0  0  0  0  0  0  0
    2.7087   15.1255   26.5351 C   0  0  1  0  0  0  0  0  0  0  0  0
    3.6825   14.1299   26.2257 N   0  0  0  0  0  0  0  0  0  0  0  0
    4.1640   12.9261   27.0350 C   0  0  0  0  0  0  0  0  0  0  0  0
    3.7920   12.5042   28.0532 O   0  0  0  0  0  0  0  0  0  0  0  0
    5.2171   12.1677   26.2879 C   0  0  0  0  0  0  0  0  0  0  0  0
    5.2736   10.8056   26.4926 C   0  0  0  0  0  0  0  0  0  0  0  0
    6.2255   10.0838   25.7993 C   0  0  0  0  0  0  0  0  0  0  0  0
    7.1194   10.7220   24.9725 C   0  0  0  0  0  0  0  0  0  0  0  0
    6.9884   12.0918   24.8079 C   0  0  0  0  0  0  0  0  0  0  0  0
    6.0379   12.8313   25.4323 N   0  0  0  0  0  0  0  0  0  0  0  0
    7.7824   12.7839   23.9251 O   0  0  0  0  0  0  0  0  0  0  0  0
    8.9960   12.1130   23.5826 C   0  0  0  0  0  0  0  0  0  0  0  0
    8.9937   10.5794   23.4937 C   0  0  0  0  0  0  0  0  0  0  0  0
    9.7505    9.9095   22.8049 O   0  0  0  0  0  0  0  0  0  0  0  0
    8.0742    9.9764   24.2955 N   0  0  0  0  0  0  0  0  0  0  0  0
    2.8585   16.3203   25.6467 C   0  0  0  0  0  0  0  0  0  0  0  0
    2.6289   17.7093   26.1984 C   0  0  0  0  0  0  0  0  0  0  0  0
    4.0200   17.2682   25.8432 C   0  0  0  0  0  0  0  0  0  0  0  0
  1  2  3  0
  3  2  1  6
  3  4  1  0
  4  5  1  0
  5  6  2  0
  5  7  1  0
  7  8  2  0
  8  9  1  0
  9 10  2  0
 10 11  1  0
 11 12  2  0
 11 13  1  0
 13 14  1  0
 14 15  1  0
 15 16  2  0
 15 17  1  0
  3 18  1  0
 18 19  1  0
 19 20  1  0
 12  7  1  0
 20 18  1  0
 17 10  1  0
M  END
>  <energy_score>  (1737) 
-18.121035

>  <inchikey>  (1737) 
None

>  <smiles>  (1737) 
None

>  <ref_pdb>  (1737) 
A3618a

>  <alias>  (1737) 
None

>  <HIPPO Pose ID>  (1737) 
499381

>  <name>  (1737) 
P499381

>  <HIPPO Compound ID>  (1737) 
302247

>  <ref_mols>  (1737) 
A0310a,A3618a

>  <distance_score>  (1737) 
1.89299

>  <inspiration_score>  (1737) 
None

$$$$
P499382
     RDKit          3D

 21 23  0  0  0  0  0  0  0  0999 V2000
   -0.1087   14.7782   27.0117 C   0  0  0  0  0  0  0  0  0  0  0  0
    1.0466   14.1297   26.2898 C   0  0  0  0  0  0  0  0  0  0  0  0
    0.8550   13.1412   25.5732 O   0  0  0  0  0  0  0  0  0  0  0  0
    2.4192   14.8101   26.4751 C   0  0  1  0  0  0  0  0  0  0  0  0
    3.4745   13.8754   26.1899 N   0  0  0  0  0  0  0  0  0  0  0  0
    4.1751   12.8631   27.0939 C   0  0  0  0  0  0  0  0  0  0  0  0
    3.9632   12.5641   28.1973 O   0  0  0  0  0  0  0  0  0  0  0  0
    5.2209   12.1220   26.3285 C   0  0  0  0  0  0  0  0  0  0  0  0
    5.2837   10.7602   26.5174 C   0  0  0  0  0  0  0  0  0  0  0  0
    6.2306   10.0558   25.8006 C   0  0  0  0  0  0  0  0  0  0  0  0
    7.1150   10.7099   24.9758 C   0  0  0  0  0  0  0  0  0  0  0  0
    6.9749   12.0801   24.8299 C   0  0  0  0  0  0  0  0  0  0  0  0
    6.0249   12.8035   25.4718 N   0  0  0  0  0  0  0  0  0  0  0  0
    7.7619   12.7904   23.9564 O   0  0  0  0  0  0  0  0  0  0  0  0
    8.9746   12.1305   23.5930 C   0  0  0  0  0  0  0  0  0  0  0  0
    8.9889   10.5976   23.4954 C   0  0  0  0  0  0  0  0  0  0  0  0
    9.7603    9.9414   22.8095 O   0  0  0  0  0  0  0  0  0  0  0  0
    8.0730    9.9788   24.2881 N   0  0  0  0  0  0  0  0  0  0  0  0
    2.5975   16.0356   25.6340 C   0  0  0  0  0  0  0  0  0  0  0  0
    2.3233   17.4113   26.1923 C   0  0  0  0  0  0  0  0  0  0  0  0
    3.7395   16.9737   25.9463 C   0  0  0  0  0  0  0  0  0  0  0  0
  1  2  1  0
  2  3  2  0
  2  4  1  0
  4  5  1  6
  5  6  1  0
  6  7  2  0
  6  8  1  0
  8  9  2  0
  9 10  1  0
 10 11  2  0
 11 12  1  0
 12 13  2  0
 12 14  1  0
 14 15  1  0
 15 16  1  0
 16 17  2  0
 16 18  1  0
  4 19  1  0
 19 20  1  0
 20 21  1  0
 13  8  1  0
 21 19  1  0
 18 11  1  0
M  END
>  <energy_score>  (1738) 
-10.055054

>  <inchikey>  (1738) 
None

>  <smiles>  (1738) 
None

>  <ref_pdb>  (1738) 
A3618a

>  <alias>  (1738) 
None

>  <HIPPO Pose ID>  (1738) 
499382

>  <name>  (1738) 
P499382

>  <HIPPO Compound ID>  (1738) 
302248

>  <ref_mols>  (1738) 
A0310a,A3618a

>  <distance_score>  (1738) 
1.912601

>  <inspiration_score>  (1738) 
None

$$$$
P499383
     RDKit          3D

 21 23  0  0  0  0  0  0  0  0999 V2000
    1.2209   14.1103   26.1538 C   0  0  0  0  0  0  0  0  0  0  0  0
    2.4474   14.8608   25.5799 C   0  0  2  0  0  0  0  0  0  0  0  0
    2.1521   15.2219   24.0999 C   0  0  0  0  0  0  0  0  0  0  0  0
    1.9031   14.0498   23.3095 O   0  0  0  0  0  0  0  0  0  0  0  0
    3.6259   14.0038   25.6198 N   0  0  0  0  0  0  0  0  0  0  0  0
    4.0706   12.9710   26.6592 C   0  0  0  0  0  0  0  0  0  0  0  0
    3.6089   12.6908   27.6900 O   0  0  0  0  0  0  0  0  0  0  0  0
    5.2304   12.1946   26.1245 C   0  0  0  0  0  0  0  0  0  0  0  0
    5.3181   10.8683   26.4814 C   0  0  0  0  0  0  0  0  0  0  0  0
    6.2802   10.0983   25.8558 C   0  0  0  0  0  0  0  0  0  0  0  0
    7.1629   10.6627   24.9645 C   0  0  0  0  0  0  0  0  0  0  0  0
    7.0146   12.0082   24.6743 C   0  0  0  0  0  0  0  0  0  0  0  0
    6.0430   12.7822   25.2075 N   0  0  0  0  0  0  0  0  0  0  0  0
    7.7900   12.6179   23.7187 O   0  0  0  0  0  0  0  0  0  0  0  0
    9.0422   11.9641   23.5107 C   0  0  0  0  0  0  0  0  0  0  0  0
    9.0346   10.4294   23.4903 C   0  0  0  0  0  0  0  0  0  0  0  0
    9.7905    9.7276   22.8337 O   0  0  0  0  0  0  0  0  0  0  0  0
    8.1151    9.8738   24.3311 N   0  0  0  0  0  0  0  0  0  0  0  0
    2.7576   16.0426   26.4819 C   0  0  0  0  0  0  0  0  0  0  0  0
    3.7353   17.1241   26.0860 C   0  0  0  0  0  0  0  0  0  0  0  0
    2.2733   17.4506   26.2353 C   0  0  0  0  0  0  0  0  0  0  0  0
  2  1  1  1
  2  3  1  0
  3  4  1  0
  2  5  1  0
  5  6  1  0
  6  7  2  0
  6  8  1  0
  8  9  2  0
  9 10  1  0
 10 11  2  0
 11 12  1  0
 12 13  2  0
 12 14  1  0
 14 15  1  0
 15 16  1  0
 16 17  2  0
 16 18  1  0
  2 19  1  0
 19 20  1  0
 20 21  1  0
 13  8  1  0
 21 19  1  0
 18 11  1  0
M  END
>  <energy_score>  (1739) 
-20.397131

>  <inchikey>  (1739) 
None

>  <smiles>  (1739) 
None

>  <ref_pdb>  (1739) 
A3618a

>  <alias>  (1739) 
None

>  <HIPPO Pose ID>  (1739) 
499383

>  <name>  (1739) 
P499383

>  <HIPPO Compound ID>  (1739) 
302251

>  <ref_mols>  (1739) 
A0310a,A3618a

>  <distance_score>  (1739) 
1.916523

>  <inspiration_score>  (1739) 
None

$$$$
P499384
     RDKit          3D

 21 23  0  0  0  0  0  0  0  0999 V2000
    1.3674   14.3264   27.0515 C   0  0  0  0  0  0  0  0  0  0  0  0
    2.7709   14.9691   27.0308 C   0  0  1  0  0  0  0  0  0  0  0  0
    3.1034   15.4555   28.4699 C   0  0  0  0  0  0  0  0  0  0  0  0
    4.4664   15.8797   28.5784 O   0  0  0  0  0  0  0  0  0  0  0  0
    3.7374   13.9639   26.6104 N   0  0  0  0  0  0  0  0  0  0  0  0
    4.0861   12.6055   27.2184 C   0  0  0  0  0  0  0  0  0  0  0  0
    3.6061   12.0326   28.1091 O   0  0  0  0  0  0  0  0  0  0  0  0
    5.1785   11.9501   26.4301 C   0  0  0  0  0  0  0  0  0  0  0  0
    5.2414   10.5769   26.4691 C   0  0  0  0  0  0  0  0  0  0  0  0
    6.2210    9.9591   25.7213 C   0  0  0  0  0  0  0  0  0  0  0  0
    7.1238   10.6947   24.9943 C   0  0  0  0  0  0  0  0  0  0  0  0
    6.9903   12.0704   24.9938 C   0  0  0  0  0  0  0  0  0  0  0  0
    6.0241   12.7215   25.6934 N   0  0  0  0  0  0  0  0  0  0  0  0
    7.8110   12.8747   24.2462 O   0  0  0  0  0  0  0  0  0  0  0  0
    8.9473   12.2299   23.6683 C   0  0  0  0  0  0  0  0  0  0  0  0
    8.9870   10.7028   23.5033 C   0  0  0  0  0  0  0  0  0  0  0  0
    9.7504   10.0899   22.7701 O   0  0  0  0  0  0  0  0  0  0  0  0
    8.0909   10.0264   24.2635 N   0  0  0  0  0  0  0  0  0  0  0  0
    2.9007   16.1185   26.0535 C   0  0  0  0  0  0  0  0  0  0  0  0
    2.4864   15.9625   24.6110 C   0  0  0  0  0  0  0  0  0  0  0  0
    1.7384   16.9112   25.5113 C   0  0  0  0  0  0  0  0  0  0  0  0
  2  1  1  1
  2  3  1  0
  3  4  1  0
  2  5  1  0
  5  6  1  0
  6  7  2  0
  6  8  1  0
  8  9  2  0
  9 10  1  0
 10 11  2  0
 11 12  1  0
 12 13  2  0
 12 14  1  0
 14 15  1  0
 15 16  1  0
 16 17  2  0
 16 18  1  0
  2 19  1  0
 19 20  1  0
 20 21  1  0
 13  8  1  0
 21 19  1  0
 18 11  1  0
M  END
>  <energy_score>  (1740) 
-31.93282

>  <inchikey>  (1740) 
None

>  <smiles>  (1740) 
None

>  <ref_pdb>  (1740) 
A3618a

>  <alias>  (1740) 
None

>  <HIPPO Pose ID>  (1740) 
499384

>  <name>  (1740) 
P499384

>  <HIPPO Compound ID>  (1740) 
302251

>  <ref_mols>  (1740) 
A0310a,A3618a

>  <distance_score>  (1740) 
1.871155

>  <inspiration_score>  (1740) 
None

$$$$
P499385
     RDKit          3D

 21 23  0  0  0  0  0  0  0  0999 V2000
    9.7430   10.0486   22.7979 O   0  0  0  0  0  0  0  0  0  0  0  0
    8.9798   10.6778   23.5177 C   0  0  0  0  0  0  0  0  0  0  0  0
    8.9495   12.2073   23.6574 C   0  0  0  0  0  0  0  0  0  0  0  0
    7.7938   12.8655   24.1775 O   0  0  0  0  0  0  0  0  0  0  0  0
    6.9675   12.0860   24.9458 C   0  0  0  0  0  0  0  0  0  0  0  0
    5.9868   12.7594   25.6020 N   0  0  0  0  0  0  0  0  0  0  0  0
    5.1166   12.0145   26.3376 C   0  0  0  0  0  0  0  0  0  0  0  0
    3.9955   12.6965   27.0706 C   0  0  0  0  0  0  0  0  0  0  0  0
    3.4192   12.1094   27.8934 O   0  0  0  0  0  0  0  0  0  0  0  0
    3.8042   14.1195   26.5520 N   0  0  0  0  0  0  0  0  0  0  0  0
    2.7975   15.1053   26.8659 C   0  0  2  0  0  0  0  0  0  0  0  0
    1.4213   14.7463   26.2637 C   0  0  0  0  0  0  0  0  0  0  0  0
    0.6396   13.6760   27.0245 C   0  0  0  0  0  0  0  0  0  0  0  0
    0.9763   12.3628   26.5987 O   0  0  0  0  0  0  0  0  0  0  0  0
    3.3739   16.4428   26.4735 C   0  0  0  0  0  0  0  0  0  0  0  0
    2.5961   17.6058   25.9067 C   0  0  0  0  0  0  0  0  0  0  0  0
    3.5337   16.8273   25.0232 C   0  0  0  0  0  0  0  0  0  0  0  0
    5.1868   10.6425   26.4294 C   0  0  0  0  0  0  0  0  0  0  0  0
    6.1893    9.9986   25.7330 C   0  0  0  0  0  0  0  0  0  0  0  0
    7.1036   10.7106   24.9953 C   0  0  0  0  0  0  0  0  0  0  0  0
    8.0787   10.0216   24.2923 N   0  0  0  0  0  0  0  0  0  0  0  0
  1  2  2  0
  2  3  1  0
  3  4  1  0
  4  5  1  0
  5  6  2  0
  6  7  1  0
  7  8  1  0
  8  9  2  0
  8 10  1  0
 10 11  1  0
 11 12  1  6
 12 13  1  0
 13 14  1  0
 11 15  1  0
 15 16  1  0
 16 17  1  0
  7 18  2  0
 18 19  1  0
 19 20  2  0
 20 21  1  0
 21  2  1  0
 20  5  1  0
 17 15  1  0
M  END
>  <energy_score>  (1741) 
-17.192527

>  <inchikey>  (1741) 
None

>  <smiles>  (1741) 
None

>  <ref_pdb>  (1741) 
A3618a

>  <alias>  (1741) 
None

>  <HIPPO Pose ID>  (1741) 
499385

>  <name>  (1741) 
P499385

>  <HIPPO Compound ID>  (1741) 
302252

>  <ref_mols>  (1741) 
A0310a,A3618a

>  <distance_score>  (1741) 
1.892048

>  <inspiration_score>  (1741) 
None

$$$$
P499386
     RDKit          3D

 21 23  0  0  0  0  0  0  0  0999 V2000
    1.0863   14.0825   26.5047 C   0  0  0  0  0  0  0  0  0  0  0  0
    2.1948   13.9021   27.5538 C   0  0  2  0  0  0  0  0  0  0  0  0
    2.4886   15.2121   28.1881 C   0  0  0  0  0  0  0  0  0  0  0  0
    2.6483   16.2579   28.6694 N   0  0  0  0  0  0  0  0  0  0  0  0
    3.3547   13.3121   26.9059 N   0  0  0  0  0  0  0  0  0  0  0  0
    4.8282   13.2465   27.3562 C   0  0  0  0  0  0  0  0  0  0  0  0
    5.3575   13.7212   28.2790 O   0  0  0  0  0  0  0  0  0  0  0  0
    5.6034   12.3328   26.4624 C   0  0  0  0  0  0  0  0  0  0  0  0
    5.2339   11.0043   26.3938 C   0  0  0  0  0  0  0  0  0  0  0  0
    6.0268   10.1457   25.6440 C   0  0  0  0  0  0  0  0  0  0  0  0
    7.1519   10.6256   24.9972 C   0  0  0  0  0  0  0  0  0  0  0  0
    7.4351   11.9756   25.1113 C   0  0  0  0  0  0  0  0  0  0  0  0
    6.6828   12.8333   25.8301 N   0  0  0  0  0  0  0  0  0  0  0  0
    8.5784   12.5288   24.6054 O   0  0  0  0  0  0  0  0  0  0  0  0
    9.1975   11.7658   23.5818 C   0  0  0  0  0  0  0  0  0  0  0  0
    9.0313   10.2399   23.5496 C   0  0  0  0  0  0  0  0  0  0  0  0
    9.7144    9.4847   22.8687 O   0  0  0  0  0  0  0  0  0  0  0  0
    7.9791    9.7664   24.2815 N   0  0  0  0  0  0  0  0  0  0  0  0
    1.6539   13.0433   28.6880 C   0  0  0  0  0  0  0  0  0  0  0  0
    1.5799   11.5322   28.5869 C   0  0  0  0  0  0  0  0  0  0  0  0
    2.5011   12.1710   29.5892 C   0  0  0  0  0  0  0  0  0  0  0  0
  2  1  1  6
  2  3  1  0
  3  4  3  0
  2  5  1  0
  5  6  1  0
  6  7  2  0
  6  8  1  0
  8  9  2  0
  9 10  1  0
 10 11  2  0
 11 12  1  0
 12 13  2  0
 12 14  1  0
 14 15  1  0
 15 16  1  0
 16 17  2  0
 16 18  1  0
  2 19  1  0
 19 20  1  0
 20 21  1  0
 13  8  1  0
 21 19  1  0
 18 11  1  0
M  END
>  <energy_score>  (1742) 
-2.663775

>  <inchikey>  (1742) 
None

>  <smiles>  (1742) 
None

>  <ref_pdb>  (1742) 
A3618a

>  <alias>  (1742) 
None

>  <HIPPO Pose ID>  (1742) 
499386

>  <name>  (1742) 
P499386

>  <HIPPO Compound ID>  (1742) 
302254

>  <ref_mols>  (1742) 
A0310a,A3618a

>  <distance_score>  (1742) 
1.963377

>  <inspiration_score>  (1742) 
None

$$$$
P499387
     RDKit          3D

 21 23  0  0  0  0  0  0  0  0999 V2000
   11.5988   16.0437   22.2654 C   0  0  0  0  0  0  0  0  0  0  0  0
   11.8668   14.7854   21.9221 C   0  0  0  0  0  0  0  0  0  0  0  0
   11.4087   13.7057   22.8141 C   0  0  0  0  0  0  0  0  0  0  0  0
   12.1267   13.0497   23.4528 O   0  0  0  0  0  0  0  0  0  0  0  0
    9.8798   13.6326   22.6382 N   0  0  0  0  0  0  0  0  0  0  0  0
    8.9446   12.8315   23.2582 C   0  0  0  0  0  0  0  0  0  0  0  0
    7.6896   13.3494   23.5182 C   0  0  0  0  0  0  0  0  0  0  0  0
    6.7968   12.5806   24.2406 C   0  0  0  0  0  0  0  0  0  0  0  0
    7.1805   11.2949   24.6241 C   0  0  0  0  0  0  0  0  0  0  0  0
    6.2760   10.5167   25.5139 C   0  0  0  0  0  0  0  0  0  0  0  0
    5.9111    9.4503   25.2348 O   0  0  0  0  0  0  0  0  0  0  0  0
    5.9025   11.4172   26.6979 N   0  0  0  0  0  0  0  0  0  0  0  0
    4.9495   11.2383   27.7173 C   0  0  2  0  0  0  0  0  0  0  0  0
    3.5650   11.6483   27.5637 C   0  0  0  0  0  0  0  0  0  0  0  0
    2.5279   10.9007   28.0597 F   0  0  0  0  0  0  0  0  0  0  0  0
    3.0998   12.3270   26.4561 F   0  0  0  0  0  0  0  0  0  0  0  0
    4.4592   12.4097   28.5436 C   0  0  0  0  0  0  0  0  0  0  0  0
    5.3204   13.6811   28.2998 C   0  0  0  0  0  0  0  0  0  0  0  0
    3.9287   13.8076   28.7394 C   0  0  0  0  0  0  0  0  0  0  0  0
    8.3624   10.7354   24.3148 N   0  0  0  0  0  0  0  0  0  0  0  0
    9.2217   11.5209   23.6329 C   0  0  0  0  0  0  0  0  0  0  0  0
  1  2  2  0
  2  3  1  0
  3  4  2  0
  3  5  1  0
  5  6  1  0
  6  7  2  0
  7  8  1  0
  8  9  2  0
  9 10  1  0
 10 11  2  0
 10 12  1  0
 13 12  1  6
 13 14  1  0
 14 15  1  0
 14 16  1  0
 14 17  1  0
 17 18  1  0
 18 19  1  0
  9 20  1  0
 20 21  2  0
 21  6  1  0
 17 13  1  0
 19 17  1  0
M  END
>  <energy_score>  (1743) 
-7.014291

>  <inchikey>  (1743) 
None

>  <smiles>  (1743) 
None

>  <ref_pdb>  (1743) 
A3618a

>  <alias>  (1743) 
None

>  <HIPPO Pose ID>  (1743) 
499387

>  <name>  (1743) 
P499387

>  <HIPPO Compound ID>  (1743) 
302278

>  <ref_mols>  (1743) 
A0310a,A3618a

>  <distance_score>  (1743) 
1.839562

>  <inspiration_score>  (1743) 
None

$$$$
P499388
     RDKit          3D

 21 23  0  0  0  0  0  0  0  0999 V2000
    5.5999    9.4242   25.3381 O   0  0  0  0  0  0  0  0  0  0  0  0
    6.1249   10.4128   25.6647 C   0  0  0  0  0  0  0  0  0  0  0  0
    5.8766   11.3221   26.8923 N   0  0  0  0  0  0  0  0  0  0  0  0
    4.8965   11.2548   27.8902 C   0  0  2  0  0  0  0  0  0  0  0  0
    3.5682   10.5553   27.6412 C   0  0  0  0  0  0  0  0  0  0  0  0
    3.6646   12.0022   27.6435 C   0  0  0  0  0  0  0  0  0  0  0  0
    3.2633   13.0656   26.7274 C   0  0  0  0  0  0  0  0  0  0  0  0
    2.9618   13.1331   28.2265 C   0  0  0  0  0  0  0  0  0  0  0  0
    7.1440   11.0460   24.7962 C   0  0  0  0  0  0  0  0  0  0  0  0
    7.0023   12.3999   24.5168 C   0  0  0  0  0  0  0  0  0  0  0  0
    7.9929   13.0132   23.7869 C   0  0  0  0  0  0  0  0  0  0  0  0
    9.0685   12.2590   23.3436 C   0  0  0  0  0  0  0  0  0  0  0  0
   10.1297   12.9030   22.7428 N   0  0  0  0  0  0  0  0  0  0  0  0
   10.3242   14.4194   22.3689 C   0  0  0  0  0  0  0  0  0  0  0  0
    9.5790   15.3232   22.4479 O   0  0  0  0  0  0  0  0  0  0  0  0
   11.7920   14.5253   21.9512 C   0  0  0  0  0  0  0  0  0  0  0  0
   12.3525   15.7196   22.2476 F   0  0  0  0  0  0  0  0  0  0  0  0
   11.9884   14.2683   20.6392 F   0  0  0  0  0  0  0  0  0  0  0  0
   12.5081   13.5928   22.6495 F   0  0  0  0  0  0  0  0  0  0  0  0
    9.0837   10.8879   23.5927 C   0  0  0  0  0  0  0  0  0  0  0  0
    8.1455   10.2681   24.3343 N   0  0  0  0  0  0  0  0  0  0  0  0
  1  2  2  0
  2  3  1  0
  4  3  1  6
  4  5  1  0
  5  6  1  0
  6  7  1  0
  7  8  1  0
  2  9  1  0
  9 10  2  0
 10 11  1  0
 11 12  2  0
 12 13  1  0
 13 14  1  0
 14 15  2  0
 14 16  1  0
 16 17  1  0
 16 18  1  0
 16 19  1  0
 12 20  1  0
 20 21  2  0
  6  4  1  0
 21  9  1  0
  8  6  1  0
M  END
>  <energy_score>  (1744) 
-0.573788

>  <inchikey>  (1744) 
None

>  <smiles>  (1744) 
None

>  <ref_pdb>  (1744) 
A3618a

>  <alias>  (1744) 
None

>  <HIPPO Pose ID>  (1744) 
499388

>  <name>  (1744) 
P499388

>  <HIPPO Compound ID>  (1744) 
302291

>  <ref_mols>  (1744) 
A0310a,A3618a

>  <distance_score>  (1744) 
1.823399

>  <inspiration_score>  (1744) 
None

$$$$
P499389
     RDKit          3D

 21 23  0  0  0  0  0  0  0  0999 V2000
   -0.2135   14.6092   25.1187 C   0  0  0  0  0  0  0  0  0  0  0  0
    0.6019   13.5616   25.8623 C   0  0  0  0  0  0  0  0  0  0  0  0
    1.1146   14.0997   27.1989 C   0  0  0  0  0  0  0  0  0  0  0  0
    1.9675   13.1167   28.0206 C   0  0  2  0  0  0  0  0  0  0  0  0
    3.1332   12.6639   27.3085 N   0  0  0  0  0  0  0  0  0  0  0  0
    4.3557   13.4427   26.7957 C   0  0  0  0  0  0  0  0  0  0  0  0
    4.5787   14.5857   26.8000 O   0  0  0  0  0  0  0  0  0  0  0  0
    5.3339   12.4760   26.1799 C   0  0  0  0  0  0  0  0  0  0  0  0
    6.5035   12.9257   25.6034 C   0  0  0  0  0  0  0  0  0  0  0  0
    7.3612   11.9938   25.0307 C   0  0  0  0  0  0  0  0  0  0  0  0
    7.0434   10.6487   25.0411 C   0  0  0  0  0  0  0  0  0  0  0  0
    5.8661   10.2879   25.6719 C   0  0  0  0  0  0  0  0  0  0  0  0
    5.0026   11.1637   26.2401 N   0  0  0  0  0  0  0  0  0  0  0  0
    7.8798    9.7193   24.4220 N   0  0  0  0  0  0  0  0  0  0  0  0
    8.9474   10.1114   23.6580 C   0  0  0  0  0  0  0  0  0  0  0  0
    9.6185    9.3027   23.0255 O   0  0  0  0  0  0  0  0  0  0  0  0
    9.1657   11.6269   23.5923 C   0  0  0  0  0  0  0  0  0  0  0  0
    8.5365   12.4799   24.5361 O   0  0  0  0  0  0  0  0  0  0  0  0
    1.1870   11.9171   28.4813 C   0  0  0  0  0  0  0  0  0  0  0  0
    1.5843   11.1926   29.7434 C   0  0  0  0  0  0  0  0  0  0  0  0
    0.3090   11.9881   29.7050 C   0  0  0  0  0  0  0  0  0  0  0  0
  1  2  1  0
  2  3  1  0
  4  3  1  6
  4  5  1  0
  5  6  1  0
  6  7  2  0
  6  8  1  0
  8  9  2  0
  9 10  1  0
 10 11  2  0
 11 12  1  0
 12 13  2  0
 11 14  1  0
 14 15  1  0
 15 16  2  0
 15 17  1  0
 17 18  1  0
  4 19  1  0
 19 20  1  0
 20 21  1  0
 13  8  1  0
 21 19  1  0
 18 10  1  0
M  END
>  <energy_score>  (1745) 
-18.422526

>  <inchikey>  (1745) 
None

>  <smiles>  (1745) 
None

>  <ref_pdb>  (1745) 
A3618a

>  <alias>  (1745) 
None

>  <HIPPO Pose ID>  (1745) 
499389

>  <name>  (1745) 
P499389

>  <HIPPO Compound ID>  (1745) 
302303

>  <ref_mols>  (1745) 
A0310a,A3618a

>  <distance_score>  (1745) 
1.941812

>  <inspiration_score>  (1745) 
None

$$$$
P499390
     RDKit          3D

 21 23  0  0  0  0  0  0  0  0999 V2000
    9.6405    9.2815   23.0045 O   0  0  0  0  0  0  0  0  0  0  0  0
    8.9774   10.0961   23.6376 C   0  0  0  0  0  0  0  0  0  0  0  0
    9.2113   11.6097   23.5758 C   0  0  0  0  0  0  0  0  0  0  0  0
    8.5727   12.4730   24.5029 O   0  0  0  0  0  0  0  0  0  0  0  0
    7.4012   11.9892   25.0059 C   0  0  0  0  0  0  0  0  0  0  0  0
    6.5493   12.9256   25.5775 C   0  0  0  0  0  0  0  0  0  0  0  0
    5.3857   12.4799   26.1667 C   0  0  0  0  0  0  0  0  0  0  0  0
    4.4098   13.4519   26.7743 C   0  0  0  0  0  0  0  0  0  0  0  0
    4.6225   14.5954   26.7560 O   0  0  0  0  0  0  0  0  0  0  0  0
    3.1974   12.6741   27.3022 N   0  0  0  0  0  0  0  0  0  0  0  0
    2.0242   13.1317   28.0089 C   0  0  1  0  0  0  0  0  0  0  0  0
    0.9330   13.5677   27.0119 C   0  0  0  0  0  0  0  0  0  0  0  0
   -0.2204   14.1015   27.6599 O   0  0  0  0  0  0  0  0  0  0  0  0
    1.5545   12.0150   28.9215 C   0  0  0  0  0  0  0  0  0  0  0  0
    1.1124   10.8219   28.2501 O   0  0  0  0  0  0  0  0  0  0  0  0
    2.2463   11.7866   30.2427 C   0  0  0  0  0  0  0  0  0  0  0  0
    0.8440   12.3237   30.2139 C   0  0  0  0  0  0  0  0  0  0  0  0
    5.0522   11.1678   26.2423 N   0  0  0  0  0  0  0  0  0  0  0  0
    5.9072   10.2888   25.6663 C   0  0  0  0  0  0  0  0  0  0  0  0
    7.0797   10.6451   25.0240 C   0  0  0  0  0  0  0  0  0  0  0  0
    7.9077    9.7113   24.4019 N   0  0  0  0  0  0  0  0  0  0  0  0
  1  2  2  0
  2  3  1  0
  3  4  1  0
  4  5  1  0
  5  6  2  0
  6  7  1  0
  7  8  1  0
  8  9  2  0
  8 10  1  0
 10 11  1  0
 11 12  1  6
 12 13  1  0
 11 14  1  0
 14 15  1  0
 14 16  1  0
 16 17  1  0
  7 18  2  0
 18 19  1  0
 19 20  2  0
 20 21  1  0
 21  2  1  0
 20  5  1  0
 17 14  1  0
M  END
>  <energy_score>  (1746) 
-16.224984

>  <inchikey>  (1746) 
None

>  <smiles>  (1746) 
None

>  <ref_pdb>  (1746) 
A3618a

>  <alias>  (1746) 
None

>  <HIPPO Pose ID>  (1746) 
499390

>  <name>  (1746) 
P499390

>  <HIPPO Compound ID>  (1746) 
302305

>  <ref_mols>  (1746) 
A0310a,A3618a

>  <distance_score>  (1746) 
1.958443

>  <inspiration_score>  (1746) 
None

$$$$
P499391
     RDKit          3D

 21 23  0  0  0  0  0  0  0  0999 V2000
    1.2588   14.3964   25.7335 C   0  0  0  0  0  0  0  0  0  0  0  0
    0.8653   13.4452   26.8717 C   0  0  0  0  0  0  0  0  0  0  0  0
   -0.4024   13.9837   27.5454 C   0  0  0  0  0  0  0  0  0  0  0  0
    2.0250   13.2380   27.8837 C   0  0  2  0  0  0  0  0  0  0  0  0
    3.2096   12.7621   27.2113 N   0  0  0  0  0  0  0  0  0  0  0  0
    4.4552   13.5206   26.7264 C   0  0  0  0  0  0  0  0  0  0  0  0
    4.6910   14.6610   26.7230 O   0  0  0  0  0  0  0  0  0  0  0  0
    5.4299   12.5391   26.1319 C   0  0  0  0  0  0  0  0  0  0  0  0
    6.5960   12.9792   25.5408 C   0  0  0  0  0  0  0  0  0  0  0  0
    7.4480   12.0404   24.9723 C   0  0  0  0  0  0  0  0  0  0  0  0
    7.1224   10.6969   24.9992 C   0  0  0  0  0  0  0  0  0  0  0  0
    5.9497   10.3448   25.6452 C   0  0  0  0  0  0  0  0  0  0  0  0
    5.0942   11.2285   26.2125 N   0  0  0  0  0  0  0  0  0  0  0  0
    7.9440    9.7569   24.3793 N   0  0  0  0  0  0  0  0  0  0  0  0
    9.0160   10.1332   23.6154 C   0  0  0  0  0  0  0  0  0  0  0  0
    9.6682    9.3114   22.9800 O   0  0  0  0  0  0  0  0  0  0  0  0
    9.2741   11.6448   23.5629 C   0  0  0  0  0  0  0  0  0  0  0  0
    8.6175   12.5251   24.4612 O   0  0  0  0  0  0  0  0  0  0  0  0
    1.6404   12.3090   29.0159 C   0  0  0  0  0  0  0  0  0  0  0  0
    1.5385   10.8106   28.8458 C   0  0  0  0  0  0  0  0  0  0  0  0
    2.6279   11.3930   29.7052 C   0  0  0  0  0  0  0  0  0  0  0  0
  1  2  1  0
  2  3  1  0
  2  4  1  0
  4  5  1  6
  5  6  1  0
  6  7  2  0
  6  8  1  0
  8  9  2  0
  9 10  1  0
 10 11  2  0
 11 12  1  0
 12 13  2  0
 11 14  1  0
 14 15  1  0
 15 16  2  0
 15 17  1  0
 17 18  1  0
  4 19  1  0
 19 20  1  0
 20 21  1  0
 13  8  1  0
 21 19  1  0
 18 10  1  0
M  END
>  <energy_score>  (1747) 
-23.463223

>  <inchikey>  (1747) 
None

>  <smiles>  (1747) 
None

>  <ref_pdb>  (1747) 
A3618a

>  <alias>  (1747) 
None

>  <HIPPO Pose ID>  (1747) 
499391

>  <name>  (1747) 
P499391

>  <HIPPO Compound ID>  (1747) 
302307

>  <ref_mols>  (1747) 
A0310a,A3618a

>  <distance_score>  (1747) 
1.981466

>  <inspiration_score>  (1747) 
None

$$$$
P499392
     RDKit          3D

 21 23  0  0  0  0  0  0  0  0999 V2000
    0.2187   13.5548   24.7992 C   0  0  0  0  0  0  0  0  0  0  0  0
    0.6565   13.3888   26.0551 C   0  0  0  0  0  0  0  0  0  0  0  0
    1.1775   14.5261   26.8956 C   0  0  0  0  0  0  0  0  0  0  0  0
    2.3969   14.2523   27.8064 C   0  0  2  0  0  0  0  0  0  0  0  0
    3.4793   13.5859   27.1141 N   0  0  0  0  0  0  0  0  0  0  0  0
    3.7388   12.0889   26.8711 C   0  0  0  0  0  0  0  0  0  0  0  0
    3.0844   11.1589   27.1222 O   0  0  0  0  0  0  0  0  0  0  0  0
    5.0677   11.9148   26.1715 C   0  0  0  0  0  0  0  0  0  0  0  0
    5.5715   10.6434   25.9405 C   0  0  0  0  0  0  0  0  0  0  0  0
    6.7487   10.5393   25.2085 C   0  0  0  0  0  0  0  0  0  0  0  0
    7.3824   11.6785   24.7323 C   0  0  0  0  0  0  0  0  0  0  0  0
    6.8325   12.9097   25.0523 C   0  0  0  0  0  0  0  0  0  0  0  0
    5.6998   13.0621   25.7781 N   0  0  0  0  0  0  0  0  0  0  0  0
    8.5230   11.5667   23.9392 N   0  0  0  0  0  0  0  0  0  0  0  0
    8.9755   10.3531   23.5081 C   0  0  0  0  0  0  0  0  0  0  0  0
    9.8955   10.2560   22.7098 O   0  0  0  0  0  0  0  0  0  0  0  0
    8.2220    9.1518   23.9912 C   0  0  0  0  0  0  0  0  0  0  0  0
    7.2303    9.2860   24.9951 O   0  0  0  0  0  0  0  0  0  0  0  0
    2.1274   13.5494   29.1177 C   0  0  0  0  0  0  0  0  0  0  0  0
    1.1825   14.1461   30.1359 C   0  0  0  0  0  0  0  0  0  0  0  0
    0.8403   12.8409   29.4747 C   0  0  0  0  0  0  0  0  0  0  0  0
  1  2  2  0
  2  3  1  0
  4  3  1  6
  4  5  1  0
  5  6  1  0
  6  7  2  0
  6  8  1  0
  8  9  2  0
  9 10  1  0
 10 11  2  0
 11 12  1  0
 12 13  2  0
 11 14  1  0
 14 15  1  0
 15 16  2  0
 15 17  1  0
 17 18  1  0
  4 19  1  0
 19 20  1  0
 20 21  1  0
 13  8  1  0
 21 19  1  0
 18 10  1  0
M  END
>  <energy_score>  (1748) 
-4.384234

>  <inchikey>  (1748) 
None

>  <smiles>  (1748) 
None

>  <ref_pdb>  (1748) 
A3618a

>  <alias>  (1748) 
None

>  <HIPPO Pose ID>  (1748) 
499392

>  <name>  (1748) 
P499392

>  <HIPPO Compound ID>  (1748) 
302313

>  <ref_mols>  (1748) 
A0310a,A3618a

>  <distance_score>  (1748) 
1.558084

>  <inspiration_score>  (1748) 
None

$$$$
P499393
     RDKit          3D

 21 23  0  0  0  0  0  0  0  0999 V2000
    0.2075   13.7592   25.8839 C   0  0  0  0  0  0  0  0  0  0  0  0
    1.0375   13.4568   26.6993 C   0  0  0  0  0  0  0  0  0  0  0  0
    2.0749   13.1076   27.6934 C   0  0  2  0  0  0  0  0  0  0  0  0
    2.3543   14.2973   28.6113 C   0  0  0  0  0  0  0  0  0  0  0  0
    3.2712   12.6839   27.0118 N   0  0  0  0  0  0  0  0  0  0  0  0
    4.3078   13.4948   26.2136 C   0  0  0  0  0  0  0  0  0  0  0  0
    4.3187   14.6210   25.9156 O   0  0  0  0  0  0  0  0  0  0  0  0
    5.4025   12.5661   25.7536 C   0  0  0  0  0  0  0  0  0  0  0  0
    6.3813   12.9931   24.8758 C   0  0  0  0  0  0  0  0  0  0  0  0
    7.3248   12.0714   24.4346 C   0  0  0  0  0  0  0  0  0  0  0  0
    7.2570   10.7548   24.8613 C   0  0  0  0  0  0  0  0  0  0  0  0
    6.2442   10.4203   25.7415 C   0  0  0  0  0  0  0  0  0  0  0  0
    5.3309   11.2938   26.2207 N   0  0  0  0  0  0  0  0  0  0  0  0
    8.1284    9.8008   24.3421 N   0  0  0  0  0  0  0  0  0  0  0  0
    9.1355   10.1467   23.4818 C   0  0  0  0  0  0  0  0  0  0  0  0
    9.8039    9.2925   22.9125 O   0  0  0  0  0  0  0  0  0  0  0  0
    9.3579   11.6583   23.3450 C   0  0  0  0  0  0  0  0  0  0  0  0
    8.2262   12.5111   23.4993 O   0  0  0  0  0  0  0  0  0  0  0  0
    1.4856   11.8843   28.3741 C   0  0  0  0  0  0  0  0  0  0  0  0
    0.6229   11.9298   29.6170 C   0  0  0  0  0  0  0  0  0  0  0  0
    2.0170   11.3701   29.6944 C   0  0  0  0  0  0  0  0  0  0  0  0
  1  2  3  0
  3  2  1  0
  3  4  1  1
  3  5  1  0
  5  6  1  0
  6  7  2  0
  6  8  1  0
  8  9  2  0
  9 10  1  0
 10 11  2  0
 11 12  1  0
 12 13  2  0
 11 14  1  0
 14 15  1  0
 15 16  2  0
 15 17  1  0
 17 18  1  0
  3 19  1  0
 19 20  1  0
 20 21  1  0
 13  8  1  0
 21 19  1  0
 18 10  1  0
M  END
>  <energy_score>  (1749) 
-20.073897

>  <inchikey>  (1749) 
None

>  <smiles>  (1749) 
None

>  <ref_pdb>  (1749) 
A3618a

>  <alias>  (1749) 
None

>  <HIPPO Pose ID>  (1749) 
499393

>  <name>  (1749) 
P499393

>  <HIPPO Compound ID>  (1749) 
302314

>  <ref_mols>  (1749) 
A0310a,A3618a

>  <distance_score>  (1749) 
1.978447

>  <inspiration_score>  (1749) 
None

$$$$
P499394
     RDKit          3D

 21 23  0  0  0  0  0  0  0  0999 V2000
   -0.3667   13.1191   24.6644 C   0  0  0  0  0  0  0  0  0  0  0  0
    0.1581   13.2483   25.7374 C   0  0  0  0  0  0  0  0  0  0  0  0
    0.7784   13.5014   27.0552 C   0  0  0  0  0  0  0  0  0  0  0  0
    2.0651   14.3489   26.9841 C   0  0  1  0  0  0  0  0  0  0  0  0
    3.2105   13.5703   26.5676 N   0  0  0  0  0  0  0  0  0  0  0  0
    4.7033   13.7371   26.8937 C   0  0  0  0  0  0  0  0  0  0  0  0
    5.2583   14.5726   27.4870 O   0  0  0  0  0  0  0  0  0  0  0  0
    5.5035   12.6649   26.2249 C   0  0  0  0  0  0  0  0  0  0  0  0
    6.7223   12.9939   25.6736 C   0  0  0  0  0  0  0  0  0  0  0  0
    7.4630   11.9951   25.0632 C   0  0  0  0  0  0  0  0  0  0  0  0
    7.0056   10.6908   25.0468 C   0  0  0  0  0  0  0  0  0  0  0  0
    5.7759   10.4514   25.6433 C   0  0  0  0  0  0  0  0  0  0  0  0
    4.9930   11.4142   26.2020 N   0  0  0  0  0  0  0  0  0  0  0  0
    7.7764    9.6918   24.4442 N   0  0  0  0  0  0  0  0  0  0  0  0
    8.8835    9.9963   23.6895 C   0  0  0  0  0  0  0  0  0  0  0  0
    9.5185    9.1394   23.0836 O   0  0  0  0  0  0  0  0  0  0  0  0
    9.1790   11.4936   23.5798 C   0  0  0  0  0  0  0  0  0  0  0  0
    8.6784   12.3732   24.5726 O   0  0  0  0  0  0  0  0  0  0  0  0
    1.8670   15.5897   26.1381 C   0  0  0  0  0  0  0  0  0  0  0  0
    2.2814   15.6424   24.6851 C   0  0  0  0  0  0  0  0  0  0  0  0
    2.9919   16.4968   25.6985 C   0  0  0  0  0  0  0  0  0  0  0  0
  1  2  3  0
  2  3  1  0
  4  3  1  6
  4  5  1  0
  5  6  1  0
  6  7  2  0
  6  8  1  0
  8  9  2  0
  9 10  1  0
 10 11  2  0
 11 12  1  0
 12 13  2  0
 11 14  1  0
 14 15  1  0
 15 16  2  0
 15 17  1  0
 17 18  1  0
  4 19  1  0
 19 20  1  0
 20 21  1  0
 13  8  1  0
 21 19  1  0
 18 10  1  0
M  END
>  <energy_score>  (1750) 
-9.672156

>  <inchikey>  (1750) 
None

>  <smiles>  (1750) 
None

>  <ref_pdb>  (1750) 
A3618a

>  <alias>  (1750) 
None

>  <HIPPO Pose ID>  (1750) 
499394

>  <name>  (1750) 
P499394

>  <HIPPO Compound ID>  (1750) 
302315

>  <ref_mols>  (1750) 
A0310a,A3618a

>  <distance_score>  (1750) 
1.985501

>  <inspiration_score>  (1750) 
None

$$$$
P499395
     RDKit          3D

 21 23  0  0  0  0  0  0  0  0999 V2000
    1.9865   16.2453   26.1582 C   0  0  0  0  0  0  0  0  0  0  0  0
    1.6825   14.9141   25.7615 O   0  0  0  0  0  0  0  0  0  0  0  0
    1.1623   14.1086   26.8303 C   0  0  0  0  0  0  0  0  0  0  0  0
    2.2496   13.6553   27.8286 C   0  0  2  0  0  0  0  0  0  0  0  0
    3.3560   13.0560   27.1041 N   0  0  0  0  0  0  0  0  0  0  0  0
    4.3419   11.9488   27.5206 C   0  0  0  0  0  0  0  0  0  0  0  0
    4.3753   11.2886   28.4807 O   0  0  0  0  0  0  0  0  0  0  0  0
    5.3850   11.7758   26.4612 C   0  0  0  0  0  0  0  0  0  0  0  0
    5.8586   10.5087   26.1691 C   0  0  0  0  0  0  0  0  0  0  0  0
    6.8904   10.4068   25.2465 C   0  0  0  0  0  0  0  0  0  0  0  0
    7.4279   11.5527   24.6734 C   0  0  0  0  0  0  0  0  0  0  0  0
    6.8638   12.7762   25.0026 C   0  0  0  0  0  0  0  0  0  0  0  0
    5.8417   12.9191   25.8765 N   0  0  0  0  0  0  0  0  0  0  0  0
    8.5104   11.4580   23.8027 N   0  0  0  0  0  0  0  0  0  0  0  0
    8.9950   10.2492   23.3984 C   0  0  0  0  0  0  0  0  0  0  0  0
    9.8842   10.1568   22.5659 O   0  0  0  0  0  0  0  0  0  0  0  0
    8.2941    9.0388   23.9316 C   0  0  0  0  0  0  0  0  0  0  0  0
    7.3487    9.1525   24.9812 O   0  0  0  0  0  0  0  0  0  0  0  0
    1.7569   12.7443   28.9244 C   0  0  0  0  0  0  0  0  0  0  0  0
    1.1615   11.3912   28.6188 C   0  0  0  0  0  0  0  0  0  0  0  0
    0.2995   12.4623   29.2225 C   0  0  0  0  0  0  0  0  0  0  0  0
  1  2  1  0
  2  3  1  0
  4  3  1  6
  4  5  1  0
  5  6  1  0
  6  7  2  0
  6  8  1  0
  8  9  2  0
  9 10  1  0
 10 11  2  0
 11 12  1  0
 12 13  2  0
 11 14  1  0
 14 15  1  0
 15 16  2  0
 15 17  1  0
 17 18  1  0
  4 19  1  0
 19 20  1  0
 20 21  1  0
 13  8  1  0
 21 19  1  0
 18 10  1  0
M  END
>  <energy_score>  (1751) 
-3.925019

>  <inchikey>  (1751) 
None

>  <smiles>  (1751) 
None

>  <ref_pdb>  (1751) 
A3618a

>  <alias>  (1751) 
None

>  <HIPPO Pose ID>  (1751) 
499395

>  <name>  (1751) 
P499395

>  <HIPPO Compound ID>  (1751) 
302316

>  <ref_mols>  (1751) 
A0310a,A3618a

>  <distance_score>  (1751) 
1.591561

>  <inspiration_score>  (1751) 
None

$$$$
P499396
     RDKit          3D

 21 23  0  0  0  0  0  0  0  0999 V2000
    0.9576   13.5980   26.9836 C   0  0  0  0  0  0  0  0  0  0  0  0
    1.9382   13.0012   28.0115 C   0  0  2  0  0  0  0  0  0  0  0  0
    2.2960   14.0702   29.0870 C   0  0  0  0  0  0  0  0  0  0  0  0
    2.5823   15.3592   28.5406 O   0  0  0  0  0  0  0  0  0  0  0  0
    3.1415   12.5688   27.3046 N   0  0  0  0  0  0  0  0  0  0  0  0
    4.3085   13.3855   26.7276 C   0  0  0  0  0  0  0  0  0  0  0  0
    4.4606   14.5380   26.6556 O   0  0  0  0  0  0  0  0  0  0  0  0
    5.3269   12.4402   26.1464 C   0  0  0  0  0  0  0  0  0  0  0  0
    6.4829   12.9110   25.5605 C   0  0  0  0  0  0  0  0  0  0  0  0
    7.3626   11.9913   25.0010 C   0  0  0  0  0  0  0  0  0  0  0  0
    7.0731   10.6402   25.0270 C   0  0  0  0  0  0  0  0  0  0  0  0
    5.9094   10.2603   25.6701 C   0  0  0  0  0  0  0  0  0  0  0  0
    5.0321   11.1217   26.2360 N   0  0  0  0  0  0  0  0  0  0  0  0
    7.9182    9.7213   24.4066 N   0  0  0  0  0  0  0  0  0  0  0  0
    8.9783   10.1243   23.6397 C   0  0  0  0  0  0  0  0  0  0  0  0
    9.6508    9.3208   23.0024 O   0  0  0  0  0  0  0  0  0  0  0  0
    9.1934   11.6414   23.5847 C   0  0  0  0  0  0  0  0  0  0  0  0
    8.5233   12.4988   24.4959 O   0  0  0  0  0  0  0  0  0  0  0  0
    1.3246   11.7256   28.5826 C   0  0  0  0  0  0  0  0  0  0  0  0
    1.7718   11.1284   29.8959 C   0  0  0  0  0  0  0  0  0  0  0  0
    0.3797   11.6861   29.7610 C   0  0  0  0  0  0  0  0  0  0  0  0
  2  1  1  6
  2  3  1  0
  3  4  1  0
  2  5  1  0
  5  6  1  0
  6  7  2  0
  6  8  1  0
  8  9  2  0
  9 10  1  0
 10 11  2  0
 11 12  1  0
 12 13  2  0
 11 14  1  0
 14 15  1  0
 15 16  2  0
 15 17  1  0
 17 18  1  0
  2 19  1  0
 19 20  1  0
 20 21  1  0
 13  8  1  0
 21 19  1  0
 18 10  1  0
M  END
>  <energy_score>  (1752) 
-37.52787

>  <inchikey>  (1752) 
None

>  <smiles>  (1752) 
None

>  <ref_pdb>  (1752) 
A3618a

>  <alias>  (1752) 
None

>  <HIPPO Pose ID>  (1752) 
499396

>  <name>  (1752) 
P499396

>  <HIPPO Compound ID>  (1752) 
302318

>  <ref_mols>  (1752) 
A0310a,A3618a

>  <distance_score>  (1752) 
1.927515

>  <inspiration_score>  (1752) 
None

$$$$
P499397
     RDKit          3D

 21 23  0  0  0  0  0  0  0  0999 V2000
    9.7396    9.6932   22.9024 O   0  0  0  0  0  0  0  0  0  0  0  0
    9.0043   10.4330   23.5428 C   0  0  0  0  0  0  0  0  0  0  0  0
    9.0544   11.9661   23.5094 C   0  0  0  0  0  0  0  0  0  0  0  0
    7.8197   12.6673   23.6868 O   0  0  0  0  0  0  0  0  0  0  0  0
    6.9885   12.0828   24.6119 C   0  0  0  0  0  0  0  0  0  0  0  0
    5.9088   12.8428   25.0776 C   0  0  0  0  0  0  0  0  0  0  0  0
    5.0141   12.2564   25.9604 C   0  0  0  0  0  0  0  0  0  0  0  0
    3.7087   12.8806   26.4188 C   0  0  0  0  0  0  0  0  0  0  0  0
    2.8304   12.1492   26.6577 O   0  0  0  0  0  0  0  0  0  0  0  0
    3.7820   14.4175   26.5118 N   0  0  0  0  0  0  0  0  0  0  0  0
    2.7574   15.3910   26.8284 C   0  0  2  0  0  0  0  0  0  0  0  0
    1.3261   14.8689   26.5696 C   0  0  0  0  0  0  0  0  0  0  0  0
    0.6218   14.3739   27.8316 C   0  0  0  0  0  0  0  0  0  0  0  0
    1.3720   13.4208   28.5607 O   0  0  0  0  0  0  0  0  0  0  0  0
    3.0425   16.6170   26.0000 C   0  0  0  0  0  0  0  0  0  0  0  0
    2.6801   17.9868   26.5171 C   0  0  0  0  0  0  0  0  0  0  0  0
    4.1252   17.5843   26.4139 C   0  0  0  0  0  0  0  0  0  0  0  0
    5.1853   10.9941   26.3999 N   0  0  0  0  0  0  0  0  0  0  0  0
    6.1858   10.2678   25.8732 C   0  0  0  0  0  0  0  0  0  0  0  0
    7.1157   10.7567   24.9890 C   0  0  0  0  0  0  0  0  0  0  0  0
    8.0790    9.9330   24.4142 N   0  0  0  0  0  0  0  0  0  0  0  0
  1  2  2  0
  2  3  1  0
  3  4  1  0
  4  5  1  0
  5  6  2  0
  6  7  1  0
  7  8  1  0
  8  9  2  0
  8 10  1  0
 10 11  1  0
 11 12  1  6
 12 13  1  0
 13 14  1  0
 11 15  1  0
 15 16  1  0
 16 17  1  0
  7 18  2  0
 18 19  1  0
 19 20  2  0
 20 21  1  0
 21  2  1  0
 20  5  1  0
 17 15  1  0
M  END
>  <energy_score>  (1753) 
-2.018458

>  <inchikey>  (1753) 
None

>  <smiles>  (1753) 
None

>  <ref_pdb>  (1753) 
A3618a

>  <alias>  (1753) 
None

>  <HIPPO Pose ID>  (1753) 
499397

>  <name>  (1753) 
P499397

>  <HIPPO Compound ID>  (1753) 
302319

>  <ref_mols>  (1753) 
A0310a,A3618a

>  <distance_score>  (1753) 
1.961532

>  <inspiration_score>  (1753) 
None

$$$$
P499398
     RDKit          3D

 21 24  0  0  0  0  0  0  0  0999 V2000
    9.6945    9.3909   22.9546 O   0  0  0  0  0  0  0  0  0  0  0  0
    9.0264   10.1887   23.6036 C   0  0  0  0  0  0  0  0  0  0  0  0
    9.2482   11.7075   23.5756 C   0  0  0  0  0  0  0  0  0  0  0  0
    8.5527   12.5618   24.4722 O   0  0  0  0  0  0  0  0  0  0  0  0
    7.4014   12.0344   24.9836 C   0  0  0  0  0  0  0  0  0  0  0  0
    6.5144   12.9366   25.5623 C   0  0  0  0  0  0  0  0  0  0  0  0
    5.3638   12.4467   26.1461 C   0  0  0  0  0  0  0  0  0  0  0  0
    4.3423   13.3718   26.7523 C   0  0  0  0  0  0  0  0  0  0  0  0
    4.5417   14.5173   26.8166 O   0  0  0  0  0  0  0  0  0  0  0  0
    3.1236   12.5459   27.1952 N   0  0  0  0  0  0  0  0  0  0  0  0
    1.9344   12.9405   27.8954 C   0  0  0  0  0  0  0  0  0  0  0  0
    0.9475   13.4755   26.8922 C   0  0  0  0  0  0  0  0  0  0  0  0
   -0.0970   14.4845   27.3017 C   0  0  0  0  0  0  0  0  0  0  0  0
    1.0410   14.9036   26.4133 C   0  0  0  0  0  0  0  0  0  0  0  0
    1.3818   11.7439   28.6186 C   0  0  0  0  0  0  0  0  0  0  0  0
    0.5593   11.9083   29.8721 C   0  0  0  0  0  0  0  0  0  0  0  0
    1.9472   11.3354   29.9563 C   0  0  0  0  0  0  0  0  0  0  0  0
    5.0807   11.1239   26.2161 N   0  0  0  0  0  0  0  0  0  0  0  0
    5.9659   10.2798   25.6399 C   0  0  0  0  0  0  0  0  0  0  0  0
    7.1230   10.6802   24.9974 C   0  0  0  0  0  0  0  0  0  0  0  0
    7.9699    9.7727   24.3657 N   0  0  0  0  0  0  0  0  0  0  0  0
  1  2  2  0
  2  3  1  0
  3  4  1  0
  4  5  1  0
  5  6  2  0
  6  7  1  0
  7  8  1  0
  8  9  2  0
  8 10  1  0
 10 11  1  0
 11 12  1  0
 12 13  1  0
 13 14  1  0
 11 15  1  0
 15 16  1  0
 16 17  1  0
  7 18  2  0
 18 19  1  0
 19 20  2  0
 20 21  1  0
 21  2  1  0
 20  5  1  0
 14 12  1  0
 17 15  1  0
M  END
>  <energy_score>  (1754) 
-15.016207

>  <inchikey>  (1754) 
None

>  <smiles>  (1754) 
None

>  <ref_pdb>  (1754) 
A3618a

>  <alias>  (1754) 
None

>  <HIPPO Pose ID>  (1754) 
499398

>  <name>  (1754) 
P499398

>  <HIPPO Compound ID>  (1754) 
302320

>  <ref_mols>  (1754) 
A0310a,A3618a

>  <distance_score>  (1754) 
1.958877

>  <inspiration_score>  (1754) 
None

$$$$
P499399
     RDKit          3D

 21 23  0  0  0  0  0  0  0  0999 V2000
    1.2052   14.3956   26.0069 C   0  0  0  0  0  0  0  0  0  0  0  0
    2.4322   14.9752   25.2962 C   0  0  2  0  0  0  0  0  0  0  0  0
    3.5133   14.0156   25.3207 N   0  0  0  0  0  0  0  0  0  0  0  0
    4.0925   13.1946   26.4818 C   0  0  0  0  0  0  0  0  0  0  0  0
    3.7431   13.1016   27.5889 O   0  0  0  0  0  0  0  0  0  0  0  0
    5.2192   12.3444   25.9937 C   0  0  0  0  0  0  0  0  0  0  0  0
    5.2796   11.0429   26.4456 C   0  0  0  0  0  0  0  0  0  0  0  0
    6.2353   10.2082   25.8899 C   0  0  0  0  0  0  0  0  0  0  0  0
    7.1366   10.6985   24.9689 C   0  0  0  0  0  0  0  0  0  0  0  0
    7.0182   12.0288   24.5928 C   0  0  0  0  0  0  0  0  0  0  0  0
    6.0567   12.8555   25.0584 N   0  0  0  0  0  0  0  0  0  0  0  0
    7.8177   12.5648   23.6126 O   0  0  0  0  0  0  0  0  0  0  0  0
    9.0672   11.8881   23.4856 C   0  0  0  0  0  0  0  0  0  0  0  0
    9.0225   10.3555   23.5264 C   0  0  0  0  0  0  0  0  0  0  0  0
    9.7705    9.6134   22.9051 O   0  0  0  0  0  0  0  0  0  0  0  0
    8.0805    9.8590   24.3844 N   0  0  0  0  0  0  0  0  0  0  0  0
    2.9621   16.2798   25.8060 C   0  0  2  0  0  0  0  0  0  0  0  0
    3.0619   16.6108   27.2849 C   0  0  0  0  0  0  0  0  0  0  0  0
    2.1036   17.3302   26.4081 C   0  0  0  0  0  0  0  0  0  0  0  0
    0.7514   17.1689   26.5831 F   0  0  0  0  0  0  0  0  0  0  0  0
    2.3178   18.6537   26.0999 F   0  0  0  0  0  0  0  0  0  0  0  0
  2  1  1  1
  2  3  1  0
  3  4  1  0
  4  5  2  0
  4  6  1  0
  6  7  2  0
  7  8  1  0
  8  9  2  0
  9 10  1  0
 10 11  2  0
 10 12  1  0
 12 13  1  0
 13 14  1  0
 14 15  2  0
 14 16  1  0
  2 17  1  0
 17 18  1  1
 18 19  1  0
 19 20  1  0
 19 21  1  0
 11  6  1  0
 19 17  1  0
 16  9  1  0
M  END
>  <energy_score>  (1755) 
-8.734849

>  <inchikey>  (1755) 
None

>  <smiles>  (1755) 
None

>  <ref_pdb>  (1755) 
A3618a

>  <alias>  (1755) 
None

>  <HIPPO Pose ID>  (1755) 
499399

>  <name>  (1755) 
P499399

>  <HIPPO Compound ID>  (1755) 
302322

>  <ref_mols>  (1755) 
A0310a,A3618a

>  <distance_score>  (1755) 
1.955505

>  <inspiration_score>  (1755) 
None

$$$$
P499400
     RDKit          3D

 21 23  0  0  0  0  0  0  0  0999 V2000
    1.4333   14.6404   26.3055 C   0  0  0  0  0  0  0  0  0  0  0  0
    2.8153   15.2398   26.5785 C   0  0  1  0  0  0  0  0  0  0  0  0
    3.8413   14.2607   26.3245 N   0  0  0  0  0  0  0  0  0  0  0  0
    4.1688   12.9519   27.0488 C   0  0  0  0  0  0  0  0  0  0  0  0
    3.7128   12.4894   28.0143 O   0  0  0  0  0  0  0  0  0  0  0  0
    5.2063   12.1708   26.2978 C   0  0  0  0  0  0  0  0  0  0  0  0
    5.2445   10.8076   26.4998 C   0  0  0  0  0  0  0  0  0  0  0  0
    6.1911   10.0735   25.8100 C   0  0  0  0  0  0  0  0  0  0  0  0
    7.0953   10.6980   24.9846 C   0  0  0  0  0  0  0  0  0  0  0  0
    6.9771   12.0676   24.8185 C   0  0  0  0  0  0  0  0  0  0  0  0
    6.0392   12.8217   25.4442 N   0  0  0  0  0  0  0  0  0  0  0  0
    7.7696   12.7456   23.9273 O   0  0  0  0  0  0  0  0  0  0  0  0
    8.9822   12.0731   23.5918 C   0  0  0  0  0  0  0  0  0  0  0  0
    8.9788   10.5398   23.5153 C   0  0  0  0  0  0  0  0  0  0  0  0
    9.7485    9.8678   22.8425 O   0  0  0  0  0  0  0  0  0  0  0  0
    8.0477    9.9443   24.3110 N   0  0  0  0  0  0  0  0  0  0  0  0
    3.0703   16.4679   25.7703 C   0  0  2  0  0  0  0  0  0  0  0  0
    4.1921   17.4191   26.1469 C   0  0  0  0  0  0  0  0  0  0  0  0
    2.7754   17.7925   26.3715 C   0  0  0  0  0  0  0  0  0  0  0  0
    2.1949   18.7881   25.6242 F   0  0  0  0  0  0  0  0  0  0  0  0
    2.2794   17.8962   27.6494 F   0  0  0  0  0  0  0  0  0  0  0  0
  2  1  1  6
  2  3  1  0
  3  4  1  0
  4  5  2  0
  4  6  1  0
  6  7  2  0
  7  8  1  0
  8  9  2  0
  9 10  1  0
 10 11  2  0
 10 12  1  0
 12 13  1  0
 13 14  1  0
 14 15  2  0
 14 16  1  0
  2 17  1  0
 17 18  1  1
 18 19  1  0
 19 20  1  0
 19 21  1  0
 11  6  1  0
 19 17  1  0
 16  9  1  0
M  END
>  <energy_score>  (1756) 
-18.805623

>  <inchikey>  (1756) 
None

>  <smiles>  (1756) 
None

>  <ref_pdb>  (1756) 
A3618a

>  <alias>  (1756) 
None

>  <HIPPO Pose ID>  (1756) 
499400

>  <name>  (1756) 
P499400

>  <HIPPO Compound ID>  (1756) 
302322

>  <ref_mols>  (1756) 
A0310a,A3618a

>  <distance_score>  (1756) 
1.89828

>  <inspiration_score>  (1756) 
None

$$$$
P499401
     RDKit          3D

 21 23  0  0  0  0  0  0  0  0999 V2000
    1.2252   14.4570   26.2077 C   0  0  0  0  0  0  0  0  0  0  0  0
    2.5257   15.0989   25.7125 C   0  0  2  0  0  0  0  0  0  0  0  0
    3.5733   14.1108   25.6180 N   0  0  0  0  0  0  0  0  0  0  0  0
    4.0622   13.0755   26.6391 C   0  0  0  0  0  0  0  0  0  0  0  0
    3.6490   12.8007   27.6926 O   0  0  0  0  0  0  0  0  0  0  0  0
    5.1914   12.2744   26.0710 C   0  0  0  0  0  0  0  0  0  0  0  0
    5.2709   10.9464   26.4357 C   0  0  0  0  0  0  0  0  0  0  0  0
    6.2450   10.1667   25.8391 C   0  0  0  0  0  0  0  0  0  0  0  0
    7.1401   10.7277   24.9558 C   0  0  0  0  0  0  0  0  0  0  0  0
    7.0017   12.0759   24.6567 C   0  0  0  0  0  0  0  0  0  0  0  0
    6.0278   12.8597   25.1759 N   0  0  0  0  0  0  0  0  0  0  0  0
    7.8002   12.6840   23.7160 O   0  0  0  0  0  0  0  0  0  0  0  0
    9.0439   12.0123   23.5145 C   0  0  0  0  0  0  0  0  0  0  0  0
    9.0246   10.4773   23.5001 C   0  0  0  0  0  0  0  0  0  0  0  0
    9.7795    9.7672   22.8509 O   0  0  0  0  0  0  0  0  0  0  0  0
    8.0979    9.9315   24.3392 N   0  0  0  0  0  0  0  0  0  0  0  0
    2.9768   16.1891   26.6306 C   0  0  1  0  0  0  0  0  0  0  0  0
    3.7472   17.3826   26.0971 C   0  0  0  0  0  0  0  0  0  0  0  0
    2.3407   17.5251   26.5444 C   0  0  0  0  0  0  0  0  0  0  0  0
    1.3379   17.7681   25.6365 F   0  0  0  0  0  0  0  0  0  0  0  0
    2.0432   18.2277   27.6876 F   0  0  0  0  0  0  0  0  0  0  0  0
  2  1  1  1
  2  3  1  0
  3  4  1  0
  4  5  2  0
  4  6  1  0
  6  7  2  0
  7  8  1  0
  8  9  2  0
  9 10  1  0
 10 11  2  0
 10 12  1  0
 12 13  1  0
 13 14  1  0
 14 15  2  0
 14 16  1  0
  2 17  1  0
 17 18  1  6
 18 19  1  0
 19 20  1  0
 19 21  1  0
 11  6  1  0
 19 17  1  0
 16  9  1  0
M  END
>  <energy_score>  (1757) 
-12.103187

>  <inchikey>  (1757) 
None

>  <smiles>  (1757) 
None

>  <ref_pdb>  (1757) 
A3618a

>  <alias>  (1757) 
None

>  <HIPPO Pose ID>  (1757) 
499401

>  <name>  (1757) 
P499401

>  <HIPPO Compound ID>  (1757) 
302322

>  <ref_mols>  (1757) 
A0310a,A3618a

>  <distance_score>  (1757) 
1.92483

>  <inspiration_score>  (1757) 
None

$$$$
P499402
     RDKit          3D

 21 24  0  0  0  0  0  0  0  0999 V2000
    9.7469   10.0545   22.8043 O   0  0  0  0  0  0  0  0  0  0  0  0
    8.9829   10.6843   23.5225 C   0  0  0  0  0  0  0  0  0  0  0  0
    8.9487   12.2142   23.6562 C   0  0  0  0  0  0  0  0  0  0  0  0
    7.7857   12.8717   24.1608 O   0  0  0  0  0  0  0  0  0  0  0  0
    6.9551   12.0942   24.9270 C   0  0  0  0  0  0  0  0  0  0  0  0
    5.9550   12.7678   25.5553 N   0  0  0  0  0  0  0  0  0  0  0  0
    5.0687   12.0221   26.2702 C   0  0  0  0  0  0  0  0  0  0  0  0
    3.9075   12.6949   26.9446 C   0  0  0  0  0  0  0  0  0  0  0  0
    3.2024   12.0547   27.6156 O   0  0  0  0  0  0  0  0  0  0  0  0
    3.8491   14.1838   26.5763 N   0  0  0  0  0  0  0  0  0  0  0  0
    2.8671   15.1745   26.8746 C   0  0  1  0  0  0  0  0  0  0  0  0
    1.4291   14.6847   26.6737 C   0  0  0  0  0  0  0  0  0  0  0  0
    0.4872   15.7457   26.5429 O   0  0  0  0  0  0  0  0  0  0  0  0
    3.1449   16.0355   28.1398 C   0  0  0  0  0  0  0  0  0  0  0  0
    3.2110   16.6015   26.8010 C   0  0  0  0  0  0  0  0  0  0  0  0
    2.7256   17.8153   26.1583 C   0  0  0  0  0  0  0  0  0  0  0  0
    4.1960   17.3947   26.0664 C   0  0  0  0  0  0  0  0  0  0  0  0
    5.1550   10.6512   26.3833 C   0  0  0  0  0  0  0  0  0  0  0  0
    6.1826   10.0081   25.7240 C   0  0  0  0  0  0  0  0  0  0  0  0
    7.1016   10.7198   24.9928 C   0  0  0  0  0  0  0  0  0  0  0  0
    8.0860   10.0302   24.3035 N   0  0  0  0  0  0  0  0  0  0  0  0
  1  2  2  0
  2  3  1  0
  3  4  1  0
  4  5  1  0
  5  6  2  0
  6  7  1  0
  7  8  1  0
  8  9  2  0
  8 10  1  0
 11 10  1  0
 11 12  1  1
 12 13  1  0
 11 14  1  0
 14 15  1  0
 15 16  1  0
 16 17  1  0
  7 18  2  0
 18 19  1  0
 19 20  2  0
 20 21  1  0
 21  2  1  0
 20  5  1  0
 15 11  1  0
 17 15  1  0
M  END
>  <energy_score>  (1758) 
-27.991793

>  <inchikey>  (1758) 
None

>  <smiles>  (1758) 
None

>  <ref_pdb>  (1758) 
A3618a

>  <alias>  (1758) 
None

>  <HIPPO Pose ID>  (1758) 
499402

>  <name>  (1758) 
P499402

>  <HIPPO Compound ID>  (1758) 
302324

>  <ref_mols>  (1758) 
A0310a,A3618a

>  <distance_score>  (1758) 
1.893888

>  <inspiration_score>  (1758) 
None

$$$$
P499403
     RDKit          3D

 21 23  0  0  0  0  0  0  0  0999 V2000
    9.7846    9.6166   22.8805 O   0  0  0  0  0  0  0  0  0  0  0  0
    9.0424   10.3647   23.5015 C   0  0  0  0  0  0  0  0  0  0  0  0
    9.0993   11.8979   23.4631 C   0  0  0  0  0  0  0  0  0  0  0  0
    7.8550   12.5859   23.5867 O   0  0  0  0  0  0  0  0  0  0  0  0
    7.0528   12.0528   24.5700 C   0  0  0  0  0  0  0  0  0  0  0  0
    6.1071   12.8881   25.0510 N   0  0  0  0  0  0  0  0  0  0  0  0
    5.2831   12.3845   26.0024 C   0  0  0  0  0  0  0  0  0  0  0  0
    4.2069   13.2596   26.5488 C   0  0  0  0  0  0  0  0  0  0  0  0
    3.9883   13.2470   27.6923 O   0  0  0  0  0  0  0  0  0  0  0  0
    3.5019   14.0075   25.4089 N   0  0  0  0  0  0  0  0  0  0  0  0
    2.3064   14.8341   25.4191 C   0  0  1  0  0  0  0  0  0  0  0  0
    1.0565   14.1089   25.9772 C   0  0  0  0  0  0  0  0  0  0  0  0
    1.2381   13.6095   27.2204 F   0  0  0  0  0  0  0  0  0  0  0  0
    0.7493   13.0376   25.1844 F   0  0  0  0  0  0  0  0  0  0  0  0
    2.6615   16.1550   26.0577 C   0  0  0  0  0  0  0  0  0  0  0  0
    2.6868   16.3493   27.5542 C   0  0  0  0  0  0  0  0  0  0  0  0
    1.6620   17.0730   26.7235 C   0  0  0  0  0  0  0  0  0  0  0  0
    5.3258   11.0785   26.4434 C   0  0  0  0  0  0  0  0  0  0  0  0
    6.2601   10.2324   25.8693 C   0  0  0  0  0  0  0  0  0  0  0  0
    7.1594   10.7192   24.9431 C   0  0  0  0  0  0  0  0  0  0  0  0
    8.0952    9.8732   24.3559 N   0  0  0  0  0  0  0  0  0  0  0  0
  1  2  2  0
  2  3  1  0
  3  4  1  0
  4  5  1  0
  5  6  2  0
  6  7  1  0
  7  8  1  0
  8  9  2  0
  8 10  1  0
 11 10  1  1
 11 12  1  0
 12 13  1  0
 12 14  1  0
 11 15  1  0
 15 16  1  0
 16 17  1  0
  7 18  2  0
 18 19  1  0
 19 20  2  0
 20 21  1  0
 21  2  1  0
 20  5  1  0
 17 15  1  0
M  END
>  <energy_score>  (1759) 
-0.220288

>  <inchikey>  (1759) 
None

>  <smiles>  (1759) 
None

>  <ref_pdb>  (1759) 
A3618a

>  <alias>  (1759) 
None

>  <HIPPO Pose ID>  (1759) 
499403

>  <name>  (1759) 
P499403

>  <HIPPO Compound ID>  (1759) 
302329

>  <ref_mols>  (1759) 
A0310a,A3618a

>  <distance_score>  (1759) 
1.949017

>  <inspiration_score>  (1759) 
None

$$$$
P499404
     RDKit          3D

 21 23  0  0  0  0  0  0  0  0999 V2000
    9.7524    9.8641   22.7973 O   0  0  0  0  0  0  0  0  0  0  0  0
    8.9981   10.5394   23.4839 C   0  0  0  0  0  0  0  0  0  0  0  0
    9.0117   12.0734   23.5715 C   0  0  0  0  0  0  0  0  0  0  0  0
    7.8007   12.7494   23.9113 O   0  0  0  0  0  0  0  0  0  0  0  0
    7.0168   12.0678   24.8107 C   0  0  0  0  0  0  0  0  0  0  0  0
    6.0938   12.8170   25.4593 N   0  0  0  0  0  0  0  0  0  0  0  0
    5.3009   12.1650   26.3450 C   0  0  0  0  0  0  0  0  0  0  0  0
    4.2985   12.9333   27.1314 C   0  0  0  0  0  0  0  0  0  0  0  0
    4.3323   12.8863   28.2933 O   0  0  0  0  0  0  0  0  0  0  0  0
    3.2925   13.6061   26.1939 N   0  0  0  0  0  0  0  0  0  0  0  0
    2.0518   14.2902   26.4821 C   0  0  2  0  0  0  0  0  0  0  0  0
    0.8692   13.3051   26.6135 C   0  0  0  0  0  0  0  0  0  0  0  0
    0.4443   12.7588   25.3543 O   0  0  0  0  0  0  0  0  0  0  0  0
    1.7591   15.4001   25.4981 C   0  0  0  0  0  0  0  0  0  0  0  0
    0.5185   16.0917   25.7416 O   0  0  0  0  0  0  0  0  0  0  0  0
    2.8771   16.2606   24.9749 C   0  0  0  0  0  0  0  0  0  0  0  0
    2.1467   15.3322   24.0403 C   0  0  0  0  0  0  0  0  0  0  0  0
    5.3268   10.8043   26.5441 C   0  0  0  0  0  0  0  0  0  0  0  0
    6.2412   10.0702   25.8138 C   0  0  0  0  0  0  0  0  0  0  0  0
    7.1307   10.6968   24.9712 C   0  0  0  0  0  0  0  0  0  0  0  0
    8.0701    9.9428   24.2819 N   0  0  0  0  0  0  0  0  0  0  0  0
  1  2  2  0
  2  3  1  0
  3  4  1  0
  4  5  1  0
  5  6  2  0
  6  7  1  0
  7  8  1  0
  8  9  2  0
  8 10  1  0
 10 11  1  0
 11 12  1  6
 12 13  1  0
 11 14  1  0
 14 15  1  0
 14 16  1  0
 16 17  1  0
  7 18  2  0
 18 19  1  0
 19 20  2  0
 20 21  1  0
 21  2  1  0
 20  5  1  0
 17 14  1  0
M  END
>  <energy_score>  (1760) 
-1.869969

>  <inchikey>  (1760) 
None

>  <smiles>  (1760) 
None

>  <ref_pdb>  (1760) 
A3618a

>  <alias>  (1760) 
None

>  <HIPPO Pose ID>  (1760) 
499404

>  <name>  (1760) 
P499404

>  <HIPPO Compound ID>  (1760) 
302332

>  <ref_mols>  (1760) 
A0310a,A3618a

>  <distance_score>  (1760) 
1.834814

>  <inspiration_score>  (1760) 
None

$$$$
P499405
     RDKit          3D

 21 23  0  0  0  0  0  0  0  0999 V2000
    9.7796    9.6602   22.8791 O   0  0  0  0  0  0  0  0  0  0  0  0
    9.0286   10.3890   23.5123 C   0  0  0  0  0  0  0  0  0  0  0  0
    9.0629   11.9227   23.4950 C   0  0  0  0  0  0  0  0  0  0  0  0
    7.8152   12.5961   23.6556 O   0  0  0  0  0  0  0  0  0  0  0  0
    7.0203   12.0321   24.6234 C   0  0  0  0  0  0  0  0  0  0  0  0
    6.0571   12.8427   25.1158 N   0  0  0  0  0  0  0  0  0  0  0  0
    5.2224   12.3022   26.0375 C   0  0  0  0  0  0  0  0  0  0  0  0
    4.0867   13.1277   26.5523 C   0  0  0  0  0  0  0  0  0  0  0  0
    3.6746   12.9210   27.6211 O   0  0  0  0  0  0  0  0  0  0  0  0
    3.5911   14.0870   25.4642 N   0  0  0  0  0  0  0  0  0  0  0  0
    2.4188   14.9348   25.4207 C   0  0  1  0  0  0  0  0  0  0  0  0
    1.2103   14.2567   26.1162 C   0  0  0  0  0  0  0  0  0  0  0  0
   -0.0279   14.8037   25.6568 O   0  0  0  0  0  0  0  0  0  0  0  0
    2.6595   16.3208   26.0078 C   0  0  0  0  0  0  0  0  0  0  0  0
    1.5438   17.2193   25.8151 O   0  0  0  0  0  0  0  0  0  0  0  0
    3.4122   16.5240   27.3007 C   0  0  0  0  0  0  0  0  0  0  0  0
    4.0281   16.9623   25.9999 C   0  0  0  0  0  0  0  0  0  0  0  0
    5.2888   10.9877   26.4494 C   0  0  0  0  0  0  0  0  0  0  0  0
    6.2480   10.1749   25.8709 C   0  0  0  0  0  0  0  0  0  0  0  0
    7.1458   10.6937   24.9643 C   0  0  0  0  0  0  0  0  0  0  0  0
    8.0926    9.8716   24.3624 N   0  0  0  0  0  0  0  0  0  0  0  0
  1  2  2  0
  2  3  1  0
  3  4  1  0
  4  5  1  0
  5  6  2  0
  6  7  1  0
  7  8  1  0
  8  9  2  0
  8 10  1  0
 10 11  1  0
 11 12  1  1
 12 13  1  0
 11 14  1  0
 14 15  1  0
 14 16  1  0
 16 17  1  0
  7 18  2  0
 18 19  1  0
 19 20  2  0
 20 21  1  0
 21  2  1  0
 20  5  1  0
 17 14  1  0
M  END
>  <energy_score>  (1761) 
-25.897175

>  <inchikey>  (1761) 
None

>  <smiles>  (1761) 
None

>  <ref_pdb>  (1761) 
A3618a

>  <alias>  (1761) 
None

>  <HIPPO Pose ID>  (1761) 
499405

>  <name>  (1761) 
P499405

>  <HIPPO Compound ID>  (1761) 
302332

>  <ref_mols>  (1761) 
A0310a,A3618a

>  <distance_score>  (1761) 
1.951979

>  <inspiration_score>  (1761) 
None

$$$$
P499406
     RDKit          3D

 21 23  0  0  0  0  0  0  0  0999 V2000
    0.9328   13.4418   26.7166 C   0  0  0  0  0  0  0  0  0  0  0  0
    1.4323   14.7798   26.1545 C   0  0  0  0  0  0  0  0  0  0  0  0
    0.3945   15.8614   26.4786 C   0  0  0  0  0  0  0  0  0  0  0  0
    2.8504   15.1500   26.6812 C   0  0  1  0  0  0  0  0  0  0  0  0
    3.7956   14.1105   26.3487 N   0  0  0  0  0  0  0  0  0  0  0  0
    4.2543   12.8913   27.1494 C   0  0  0  0  0  0  0  0  0  0  0  0
    3.8901   12.4821   28.1756 O   0  0  0  0  0  0  0  0  0  0  0  0
    5.2738   12.1223   26.3700 C   0  0  0  0  0  0  0  0  0  0  0  0
    5.2984   10.7563   26.5346 C   0  0  0  0  0  0  0  0  0  0  0  0
    6.2223   10.0365   25.8019 C   0  0  0  0  0  0  0  0  0  0  0  0
    7.1207   10.6755   24.9810 C   0  0  0  0  0  0  0  0  0  0  0  0
    7.0121   12.0482   24.8516 C   0  0  0  0  0  0  0  0  0  0  0  0
    6.0918   12.7898   25.5141 N   0  0  0  0  0  0  0  0  0  0  0  0
    7.7981   12.7447   23.9703 O   0  0  0  0  0  0  0  0  0  0  0  0
    8.9972   12.0718   23.5908 C   0  0  0  0  0  0  0  0  0  0  0  0
    8.9924   10.5389   23.4965 C   0  0  0  0  0  0  0  0  0  0  0  0
    9.7589    9.8733   22.8138 O   0  0  0  0  0  0  0  0  0  0  0  0
    8.0623    9.9320   24.2834 N   0  0  0  0  0  0  0  0  0  0  0  0
    3.3426   16.5015   26.2109 C   0  0  0  0  0  0  0  0  0  0  0  0
    3.9883   16.7367   24.8654 C   0  0  0  0  0  0  0  0  0  0  0  0
    4.8182   16.8296   26.1169 C   0  0  0  0  0  0  0  0  0  0  0  0
  1  2  1  0
  2  3  1  0
  2  4  1  0
  4  5  1  6
  5  6  1  0
  6  7  2  0
  6  8  1  0
  8  9  2  0
  9 10  1  0
 10 11  2  0
 11 12  1  0
 12 13  2  0
 12 14  1  0
 14 15  1  0
 15 16  1  0
 16 17  2  0
 16 18  1  0
  4 19  1  0
 19 20  1  0
 20 21  1  0
 13  8  1  0
 21 19  1  0
 18 11  1  0
M  END
>  <energy_score>  (1762) 
-5.620071

>  <inchikey>  (1762) 
None

>  <smiles>  (1762) 
None

>  <ref_pdb>  (1762) 
A3618a

>  <alias>  (1762) 
None

>  <HIPPO Pose ID>  (1762) 
499406

>  <name>  (1762) 
P499406

>  <HIPPO Compound ID>  (1762) 
302334

>  <ref_mols>  (1762) 
A0310a,A3618a

>  <distance_score>  (1762) 
1.910275

>  <inspiration_score>  (1762) 
None

$$$$
P499407
     RDKit          3D

 22 24  0  0  0  0  0  0  0  0999 V2000
    9.8178    9.3007   22.9118 O   0  0  0  0  0  0  0  0  0  0  0  0
    9.1426   10.1514   23.4786 C   0  0  0  0  0  0  0  0  0  0  0  0
    9.3657   11.6634   23.3478 C   0  0  0  0  0  0  0  0  0  0  0  0
    8.2436   12.5231   23.5232 O   0  0  0  0  0  0  0  0  0  0  0  0
    7.3359   12.0735   24.4469 C   0  0  0  0  0  0  0  0  0  0  0  0
    6.3970   12.9948   24.8987 C   0  0  0  0  0  0  0  0  0  0  0  0
    5.4114   12.5597   25.7642 C   0  0  0  0  0  0  0  0  0  0  0  0
    4.3209   13.4869   26.2389 C   0  0  0  0  0  0  0  0  0  0  0  0
    4.3559   14.6229   25.9901 O   0  0  0  0  0  0  0  0  0  0  0  0
    3.2572   12.6618   26.9796 N   0  0  0  0  0  0  0  0  0  0  0  0
    2.0431   13.0801   27.6608 C   0  0  2  0  0  0  0  0  0  0  0  0
    1.6014   11.9325   28.5407 C   0  0  0  0  0  0  0  0  0  0  0  0
    2.3536   11.6145   29.8105 C   0  0  0  0  0  0  0  0  0  0  0  0
    0.9648   12.1852   29.8848 C   0  0  0  0  0  0  0  0  0  0  0  0
    0.9091   13.5310   26.7081 C   0  0  0  0  0  0  0  0  0  0  0  0
    0.5289   12.5248   25.8753 F   0  0  0  0  0  0  0  0  0  0  0  0
   -0.1956   13.8964   27.4049 F   0  0  0  0  0  0  0  0  0  0  0  0
    1.2600   14.5817   25.9388 F   0  0  0  0  0  0  0  0  0  0  0  0
    5.3265   11.2801   26.2079 N   0  0  0  0  0  0  0  0  0  0  0  0
    6.2397   10.4093   25.7239 C   0  0  0  0  0  0  0  0  0  0  0  0
    7.2597   10.7515   24.8550 C   0  0  0  0  0  0  0  0  0  0  0  0
    8.1311    9.8006   24.3307 N   0  0  0  0  0  0  0  0  0  0  0  0
  1  2  2  0
  2  3  1  0
  3  4  1  0
  4  5  1  0
  5  6  2  0
  6  7  1  0
  7  8  1  0
  8  9  2  0
  8 10  1  0
 11 10  1  6
 11 12  1  0
 12 13  1  0
 13 14  1  0
 11 15  1  0
 15 16  1  0
 15 17  1  0
 15 18  1  0
  7 19  2  0
 19 20  1  0
 20 21  2  0
 21 22  1  0
 22  2  1  0
 21  5  1  0
 14 12  1  0
M  END
>  <energy_score>  (1763) 
-17.660184

>  <inchikey>  (1763) 
None

>  <smiles>  (1763) 
None

>  <ref_pdb>  (1763) 
A3618a

>  <alias>  (1763) 
None

>  <HIPPO Pose ID>  (1763) 
499407

>  <name>  (1763) 
P499407

>  <HIPPO Compound ID>  (1763) 
302369

>  <ref_mols>  (1763) 
A0310a,A3618a

>  <distance_score>  (1763) 
1.998865

>  <inspiration_score>  (1763) 
None

$$$$
P499408
     RDKit          3D

 22 24  0  0  0  0  0  0  0  0999 V2000
    1.4003   14.7827   25.5531 C   0  0  0  0  0  0  0  0  0  0  0  0
    0.7863   13.7705   26.5375 C   0  0  0  0  0  0  0  0  0  0  0  0
   -0.4418   14.4168   27.1968 C   0  0  0  0  0  0  0  0  0  0  0  0
    0.3067   12.6536   25.7567 O   0  0  0  0  0  0  0  0  0  0  0  0
    1.8462   13.3203   27.6073 C   0  0  2  0  0  0  0  0  0  0  0  0
    3.0605   12.8190   27.0015 N   0  0  0  0  0  0  0  0  0  0  0  0
    4.3755   13.5368   26.6587 C   0  0  0  0  0  0  0  0  0  0  0  0
    4.6642   14.6624   26.7383 O   0  0  0  0  0  0  0  0  0  0  0  0
    5.3613   12.5435   26.1021 C   0  0  0  0  0  0  0  0  0  0  0  0
    6.5527   12.9737   25.5536 C   0  0  0  0  0  0  0  0  0  0  0  0
    7.4108   12.0294   25.0043 C   0  0  0  0  0  0  0  0  0  0  0  0
    7.0751   10.6880   25.0204 C   0  0  0  0  0  0  0  0  0  0  0  0
    5.8841   10.3446   25.6374 C   0  0  0  0  0  0  0  0  0  0  0  0
    5.0144   11.2362   26.1717 N   0  0  0  0  0  0  0  0  0  0  0  0
    7.9051    9.7455   24.4130 N   0  0  0  0  0  0  0  0  0  0  0  0
    8.9778   10.1229   23.6485 C   0  0  0  0  0  0  0  0  0  0  0  0
    9.6366    9.3038   23.0166 O   0  0  0  0  0  0  0  0  0  0  0  0
    9.2181   11.6363   23.5814 C   0  0  0  0  0  0  0  0  0  0  0  0
    8.5997   12.5003   24.5229 O   0  0  0  0  0  0  0  0  0  0  0  0
    1.3121   12.3529   28.6473 C   0  0  0  0  0  0  0  0  0  0  0  0
    2.2591   11.6193   29.5736 C   0  0  0  0  0  0  0  0  0  0  0  0
    1.4423   10.8484   28.5753 C   0  0  0  0  0  0  0  0  0  0  0  0
  1  2  1  0
  2  3  1  0
  2  4  1  0
  2  5  1  0
  5  6  1  6
  6  7  1  0
  7  8  2  0
  7  9  1  0
  9 10  2  0
 10 11  1  0
 11 12  2  0
 12 13  1  0
 13 14  2  0
 12 15  1  0
 15 16  1  0
 16 17  2  0
 16 18  1  0
 18 19  1  0
  5 20  1  0
 20 21  1  0
 21 22  1  0
 14  9  1  0
 22 20  1  0
 19 11  1  0
M  END
>  <energy_score>  (1764) 
-20.82172

>  <inchikey>  (1764) 
None

>  <smiles>  (1764) 
None

>  <ref_pdb>  (1764) 
A3618a

>  <alias>  (1764) 
None

>  <HIPPO Pose ID>  (1764) 
499408

>  <name>  (1764) 
P499408

>  <HIPPO Compound ID>  (1764) 
302371

>  <ref_mols>  (1764) 
A0310a,A3618a

>  <distance_score>  (1764) 
1.978782

>  <inspiration_score>  (1764) 
None

$$$$
P499409
     RDKit          3D

 22 24  0  0  0  0  0  0  0  0999 V2000
   -0.9241   13.4839   24.8435 C   0  0  0  0  0  0  0  0  0  0  0  0
    0.1818   13.9317   24.2348 C   0  0  0  0  0  0  0  0  0  0  0  0
    1.4243   14.4977   24.8779 C   0  0  0  0  0  0  0  0  0  0  0  0
    1.4311   14.5607   26.4123 C   0  0  0  0  0  0  0  0  0  0  0  0
    2.7753   15.0361   27.0033 C   0  0  1  0  0  0  0  0  0  0  0  0
    3.8205   14.0953   26.6940 N   0  0  0  0  0  0  0  0  0  0  0  0
    4.0823   12.6890   27.2324 C   0  0  0  0  0  0  0  0  0  0  0  0
    3.5418   12.0893   28.0696 O   0  0  0  0  0  0  0  0  0  0  0  0
    5.1600   12.0074   26.4380 C   0  0  0  0  0  0  0  0  0  0  0  0
    5.2130   10.6328   26.5051 C   0  0  0  0  0  0  0  0  0  0  0  0
    6.1777    9.9832   25.7621 C   0  0  0  0  0  0  0  0  0  0  0  0
    7.0807   10.6899   25.0088 C   0  0  0  0  0  0  0  0  0  0  0  0
    6.9489   12.0653   24.9693 C   0  0  0  0  0  0  0  0  0  0  0  0
    5.9978   12.7470   25.6614 N   0  0  0  0  0  0  0  0  0  0  0  0
    7.7484   12.8348   24.1653 O   0  0  0  0  0  0  0  0  0  0  0  0
    8.9180   12.1872   23.6664 C   0  0  0  0  0  0  0  0  0  0  0  0
    8.9562   10.6586   23.5275 C   0  0  0  0  0  0  0  0  0  0  0  0
    9.7389   10.0360   22.8227 O   0  0  0  0  0  0  0  0  0  0  0  0
    8.0447   10.0005   24.2891 N   0  0  0  0  0  0  0  0  0  0  0  0
    3.1168   16.4593   26.6693 C   0  0  0  0  0  0  0  0  0  0  0  0
    4.4990   17.0000   26.9587 C   0  0  0  0  0  0  0  0  0  0  0  0
    4.0180   16.8913   25.5389 C   0  0  0  0  0  0  0  0  0  0  0  0
  1  2  2  0
  2  3  1  0
  3  4  1  0
  5  4  1  6
  5  6  1  0
  6  7  1  0
  7  8  2  0
  7  9  1  0
  9 10  2  0
 10 11  1  0
 11 12  2  0
 12 13  1  0
 13 14  2  0
 13 15  1  0
 15 16  1  0
 16 17  1  0
 17 18  2  0
 17 19  1  0
  5 20  1  0
 20 21  1  0
 21 22  1  0
 14  9  1  0
 22 20  1  0
 19 12  1  0
M  END
>  <energy_score>  (1765) 
-30.511094

>  <inchikey>  (1765) 
None

>  <smiles>  (1765) 
None

>  <ref_pdb>  (1765) 
A3618a

>  <alias>  (1765) 
None

>  <HIPPO Pose ID>  (1765) 
499409

>  <name>  (1765) 
P499409

>  <HIPPO Compound ID>  (1765) 
302377

>  <ref_mols>  (1765) 
A0310a,A3618a

>  <distance_score>  (1765) 
1.88484

>  <inspiration_score>  (1765) 
None

$$$$
P499410
     RDKit          3D

 22 24  0  0  0  0  0  0  0  0999 V2000
    0.0246   13.8873   25.0312 C   0  0  0  0  0  0  0  0  0  0  0  0
    0.9478   13.1502   25.8318 O   0  0  0  0  0  0  0  0  0  0  0  0
    0.6700   13.1673   27.1693 C   0  0  0  0  0  0  0  0  0  0  0  0
   -0.3684   13.6238   27.6396 O   0  0  0  0  0  0  0  0  0  0  0  0
    1.7534   12.4523   28.0014 C   0  0  1  0  0  0  0  0  0  0  0  0
    2.9706   12.1629   27.2763 N   0  0  0  0  0  0  0  0  0  0  0  0
    4.1093   13.0945   26.8204 C   0  0  0  0  0  0  0  0  0  0  0  0
    4.2104   14.2531   26.8893 O   0  0  0  0  0  0  0  0  0  0  0  0
    5.2005   12.2507   26.2127 C   0  0  0  0  0  0  0  0  0  0  0  0
    6.3554   12.7933   25.6862 C   0  0  0  0  0  0  0  0  0  0  0  0
    7.2802   11.9308   25.0991 C   0  0  0  0  0  0  0  0  0  0  0  0
    7.0358   10.5710   25.0478 C   0  0  0  0  0  0  0  0  0  0  0  0
    5.8763   10.1214   25.6436 C   0  0  0  0  0  0  0  0  0  0  0  0
    4.9610   10.9204   26.2288 N   0  0  0  0  0  0  0  0  0  0  0  0
    7.9183    9.7095   24.3984 N   0  0  0  0  0  0  0  0  0  0  0  0
    8.9579   10.1852   23.6471 C   0  0  0  0  0  0  0  0  0  0  0  0
    9.6638    9.4351   22.9818 O   0  0  0  0  0  0  0  0  0  0  0  0
    9.0925   11.7128   23.6382 C   0  0  0  0  0  0  0  0  0  0  0  0
    8.4489   12.4798   24.6504 O   0  0  0  0  0  0  0  0  0  0  0  0
    2.0903   13.1796   29.2741 C   0  0  0  0  0  0  0  0  0  0  0  0
    2.7755   12.4589   30.4116 C   0  0  0  0  0  0  0  0  0  0  0  0
    1.3434   12.8922   30.5542 C   0  0  0  0  0  0  0  0  0  0  0  0
  1  2  1  0
  2  3  1  0
  3  4  2  0
  3  5  1  0
  5  6  1  6
  6  7  1  0
  7  8  2  0
  7  9  1  0
  9 10  2  0
 10 11  1  0
 11 12  2  0
 12 13  1  0
 13 14  2  0
 12 15  1  0
 15 16  1  0
 16 17  2  0
 16 18  1  0
 18 19  1  0
  5 20  1  0
 20 21  1  0
 21 22  1  0
 14  9  1  0
 22 20  1  0
 19 11  1  0
M  END
>  <energy_score>  (1766) 
-21.478733

>  <inchikey>  (1766) 
None

>  <smiles>  (1766) 
None

>  <ref_pdb>  (1766) 
A3618a

>  <alias>  (1766) 
None

>  <HIPPO Pose ID>  (1766) 
499410

>  <name>  (1766) 
P499410

>  <HIPPO Compound ID>  (1766) 
302381

>  <ref_mols>  (1766) 
A0310a,A3618a

>  <distance_score>  (1766) 
1.918868

>  <inspiration_score>  (1766) 
None

$$$$
P499411
     RDKit          3D

 22 24  0  0  0  0  0  0  0  0999 V2000
    9.8174    9.2859   22.8991 O   0  0  0  0  0  0  0  0  0  0  0  0
    9.1529   10.1410   23.4717 C   0  0  0  0  0  0  0  0  0  0  0  0
    9.3785   11.6524   23.3376 C   0  0  0  0  0  0  0  0  0  0  0  0
    8.2523   12.5104   23.5037 O   0  0  0  0  0  0  0  0  0  0  0  0
    7.3468   12.0663   24.4325 C   0  0  0  0  0  0  0  0  0  0  0  0
    6.3995   12.9859   24.8701 C   0  0  0  0  0  0  0  0  0  0  0  0
    5.4126   12.5518   25.7343 C   0  0  0  0  0  0  0  0  0  0  0  0
    4.2923   13.4647   26.1644 C   0  0  0  0  0  0  0  0  0  0  0  0
    4.3242   14.6046   25.9271 O   0  0  0  0  0  0  0  0  0  0  0  0
    3.2136   12.6219   26.8699 N   0  0  0  0  0  0  0  0  0  0  0  0
    1.9844   13.0217   27.5189 C   0  0  2  0  0  0  0  0  0  0  0  0
    1.1505   13.9597   26.6431 C   0  0  0  0  0  0  0  0  0  0  0  0
   -0.1580   13.2784   26.3991 N   0  0  0  0  0  0  0  0  0  0  0  0
   -0.2405   12.5391   25.4058 O   0  0  0  0  0  0  0  0  0  0  0  0
   -1.0606   13.4635   27.2249 O   0  0  0  0  0  0  0  0  0  0  0  0
    2.3487   13.6720   28.8283 C   0  0  0  0  0  0  0  0  0  0  0  0
    2.6886   12.8279   30.0322 C   0  0  0  0  0  0  0  0  0  0  0  0
    1.4037   13.6085   30.0021 C   0  0  0  0  0  0  0  0  0  0  0  0
    5.3405   11.2797   26.2003 N   0  0  0  0  0  0  0  0  0  0  0  0
    6.2597   10.4095   25.7274 C   0  0  0  0  0  0  0  0  0  0  0  0
    7.2763   10.7479   24.8533 C   0  0  0  0  0  0  0  0  0  0  0  0
    8.1468    9.7949   24.3323 N   0  0  0  0  0  0  0  0  0  0  0  0
  1  2  2  0
  2  3  1  0
  3  4  1  0
  4  5  1  0
  5  6  2  0
  6  7  1  0
  7  8  1  0
  8  9  2  0
  8 10  1  0
 10 11  1  0
 11 12  1  6
 12 13  1  0
 13 14  2  0
 13 15  1  0
 11 16  1  0
 16 17  1  0
 17 18  1  0
  7 19  2  0
 19 20  1  0
 20 21  2  0
 21 22  1  0
 22  2  1  0
 21  5  1  0
 18 16  1  0
M  CHG  2  13   1  15  -1
M  END
>  <energy_score>  (1767) 
-36.945511

>  <inchikey>  (1767) 
None

>  <smiles>  (1767) 
None

>  <ref_pdb>  (1767) 
A3618a

>  <alias>  (1767) 
None

>  <HIPPO Pose ID>  (1767) 
499411

>  <name>  (1767) 
P499411

>  <HIPPO Compound ID>  (1767) 
302383

>  <ref_mols>  (1767) 
A0310a,A3618a

>  <distance_score>  (1767) 
1.964143

>  <inspiration_score>  (1767) 
None

$$$$
P499412
     RDKit          3D

 22 24  0  0  0  0  0  0  0  0999 V2000
    9.6023    9.2912   23.0442 O   0  0  0  0  0  0  0  0  0  0  0  0
    8.9333   10.1033   23.6747 C   0  0  0  0  0  0  0  0  0  0  0  0
    9.1516   11.6186   23.6010 C   0  0  0  0  0  0  0  0  0  0  0  0
    8.4927   12.4839   24.5137 O   0  0  0  0  0  0  0  0  0  0  0  0
    7.3202   11.9917   25.0077 C   0  0  0  0  0  0  0  0  0  0  0  0
    6.4385   12.9238   25.5429 C   0  0  0  0  0  0  0  0  0  0  0  0
    5.2660   12.4709   26.1129 C   0  0  0  0  0  0  0  0  0  0  0  0
    4.2590   13.4381   26.6819 C   0  0  0  0  0  0  0  0  0  0  0  0
    4.4560   14.5847   26.6332 O   0  0  0  0  0  0  0  0  0  0  0  0
    3.0653   12.6552   27.2544 N   0  0  0  0  0  0  0  0  0  0  0  0
    1.9013   13.1142   27.9756 C   0  0  1  0  0  0  0  0  0  0  0  0
    0.9879   14.0222   27.1495 C   0  0  0  0  0  0  0  0  0  0  0  0
   -0.0387   13.2299   26.4135 N   0  0  0  0  0  0  0  0  0  0  0  0
   -1.1820   13.2032   26.8893 O   0  0  0  0  0  0  0  0  0  0  0  0
    0.3058   12.6412   25.3802 O   0  0  0  0  0  0  0  0  0  0  0  0
    1.2356   11.9383   28.6373 C   0  0  0  0  0  0  0  0  0  0  0  0
    1.7057   11.4592   29.9885 C   0  0  0  0  0  0  0  0  0  0  0  0
    0.3653   12.1267   29.8540 C   0  0  0  0  0  0  0  0  0  0  0  0
    4.9595   11.1566   26.2156 N   0  0  0  0  0  0  0  0  0  0  0  0
    5.8435   10.2807   25.6773 C   0  0  0  0  0  0  0  0  0  0  0  0
    7.0208   10.6434   25.0461 C   0  0  0  0  0  0  0  0  0  0  0  0
    7.8693    9.7132   24.4453 N   0  0  0  0  0  0  0  0  0  0  0  0
  1  2  2  0
  2  3  1  0
  3  4  1  0
  4  5  1  0
  5  6  2  0
  6  7  1  0
  7  8  1  0
  8  9  2  0
  8 10  1  0
 10 11  1  0
 11 12  1  6
 12 13  1  0
 13 14  2  0
 13 15  1  0
 11 16  1  0
 16 17  1  0
 17 18  1  0
  7 19  2  0
 19 20  1  0
 20 21  2  0
 21 22  1  0
 22  2  1  0
 21  5  1  0
 18 16  1  0
M  CHG  2  13   1  15  -1
M  END
>  <energy_score>  (1768) 
-23.856703

>  <inchikey>  (1768) 
None

>  <smiles>  (1768) 
None

>  <ref_pdb>  (1768) 
A3618a

>  <alias>  (1768) 
None

>  <HIPPO Pose ID>  (1768) 
499412

>  <name>  (1768) 
P499412

>  <HIPPO Compound ID>  (1768) 
302383

>  <ref_mols>  (1768) 
A0310a,A3618a

>  <distance_score>  (1768) 
1.948007

>  <inspiration_score>  (1768) 
None

$$$$
P499413
     RDKit          3D

 22 24  0  0  0  0  0  0  0  0999 V2000
    0.6004   13.3649   26.1795 C   0  0  0  0  0  0  0  0  0  0  0  0
    1.1138   14.1304   27.3804 C   0  0  0  0  0  0  0  0  0  0  0  0
    1.5979   15.3232   26.9275 F   0  0  0  0  0  0  0  0  0  0  0  0
    0.0528   14.4580   28.1709 F   0  0  0  0  0  0  0  0  0  0  0  0
    2.2066   13.4246   28.2248 C   0  0  2  0  0  0  0  0  0  0  0  0
    3.3009   12.8876   27.4330 N   0  0  0  0  0  0  0  0  0  0  0  0
    4.5121   13.5875   26.8021 C   0  0  0  0  0  0  0  0  0  0  0  0
    4.7880   14.7164   26.7498 O   0  0  0  0  0  0  0  0  0  0  0  0
    5.4219   12.5569   26.1870 C   0  0  0  0  0  0  0  0  0  0  0  0
    6.6102   12.9422   25.6038 C   0  0  0  0  0  0  0  0  0  0  0  0
    7.4217   11.9633   25.0485 C   0  0  0  0  0  0  0  0  0  0  0  0
    7.0373   10.6358   25.0648 C   0  0  0  0  0  0  0  0  0  0  0  0
    5.8440   10.3385   25.7013 C   0  0  0  0  0  0  0  0  0  0  0  0
    5.0259   11.2622   26.2691 N   0  0  0  0  0  0  0  0  0  0  0  0
    7.8374    9.6686   24.4521 N   0  0  0  0  0  0  0  0  0  0  0  0
    8.9181   10.0152   23.6792 C   0  0  0  0  0  0  0  0  0  0  0  0
    9.5648    9.1799   23.0561 O   0  0  0  0  0  0  0  0  0  0  0  0
    9.1719   11.5216   23.5834 C   0  0  0  0  0  0  0  0  0  0  0  0
    8.6345   12.3778   24.5793 O   0  0  0  0  0  0  0  0  0  0  0  0
    1.7695   12.3663   29.2155 C   0  0  0  0  0  0  0  0  0  0  0  0
    1.3958   10.9662   28.7804 C   0  0  0  0  0  0  0  0  0  0  0  0
    0.3554   11.8583   29.3909 C   0  0  0  0  0  0  0  0  0  0  0  0
  1  2  1  0
  2  3  1  0
  2  4  1  0
  2  5  1  0
  5  6  1  6
  6  7  1  0
  7  8  2  0
  7  9  1  0
  9 10  2  0
 10 11  1  0
 11 12  2  0
 12 13  1  0
 13 14  2  0
 12 15  1  0
 15 16  1  0
 16 17  2  0
 16 18  1  0
 18 19  1  0
  5 20  1  0
 20 21  1  0
 21 22  1  0
 14  9  1  0
 22 20  1  0
 19 11  1  0
M  END
>  <energy_score>  (1769) 
-16.270652

>  <inchikey>  (1769) 
None

>  <smiles>  (1769) 
None

>  <ref_pdb>  (1769) 
A3618a

>  <alias>  (1769) 
None

>  <HIPPO Pose ID>  (1769) 
499413

>  <name>  (1769) 
P499413

>  <HIPPO Compound ID>  (1769) 
302385

>  <ref_mols>  (1769) 
A0310a,A3618a

>  <distance_score>  (1769) 
1.971866

>  <inspiration_score>  (1769) 
None

$$$$
P499414
     RDKit          3D

 22 24  0  0  0  0  0  0  0  0999 V2000
    0.6501   13.4801   25.8199 C   0  0  0  0  0  0  0  0  0  0  0  0
    1.0822   14.1804   27.1163 C   0  0  0  0  0  0  0  0  0  0  0  0
   -0.1889   14.6045   27.8849 C   0  0  0  0  0  0  0  0  0  0  0  0
    1.8275   15.4752   26.7261 C   0  0  0  0  0  0  0  0  0  0  0  0
    1.9870   13.2798   28.0295 C   0  0  2  0  0  0  0  0  0  0  0  0
    3.1758   12.7647   27.3843 N   0  0  0  0  0  0  0  0  0  0  0  0
    4.4937   13.4655   27.0106 C   0  0  0  0  0  0  0  0  0  0  0  0
    4.8621   14.5487   27.2311 O   0  0  0  0  0  0  0  0  0  0  0  0
    5.3840   12.4975   26.2746 C   0  0  0  0  0  0  0  0  0  0  0  0
    6.5593   12.9281   25.6946 C   0  0  0  0  0  0  0  0  0  0  0  0
    7.3746   11.9920   25.0692 C   0  0  0  0  0  0  0  0  0  0  0  0
    7.0183   10.6569   25.0456 C   0  0  0  0  0  0  0  0  0  0  0  0
    5.8278   10.3155   25.6643 C   0  0  0  0  0  0  0  0  0  0  0  0
    4.9929   11.2010   26.2633 N   0  0  0  0  0  0  0  0  0  0  0  0
    7.8382    9.7191   24.4158 N   0  0  0  0  0  0  0  0  0  0  0  0
    8.9189   10.0996   23.6628 C   0  0  0  0  0  0  0  0  0  0  0  0
    9.5808    9.2845   23.0288 O   0  0  0  0  0  0  0  0  0  0  0  0
    9.1527   11.6126   23.6012 C   0  0  0  0  0  0  0  0  0  0  0  0
    8.5566   12.4598   24.5723 O   0  0  0  0  0  0  0  0  0  0  0  0
    1.2614   12.0807   28.6035 C   0  0  0  0  0  0  0  0  0  0  0  0
    0.6194   12.1289   29.9695 C   0  0  0  0  0  0  0  0  0  0  0  0
    1.8680   11.3225   29.7620 C   0  0  0  0  0  0  0  0  0  0  0  0
  1  2  1  0
  2  3  1  0
  2  4  1  0
  2  5  1  0
  5  6  1  6
  6  7  1  0
  7  8  2  0
  7  9  1  0
  9 10  2  0
 10 11  1  0
 11 12  2  0
 12 13  1  0
 13 14  2  0
 12 15  1  0
 15 16  1  0
 16 17  2  0
 16 18  1  0
 18 19  1  0
  5 20  1  0
 20 21  1  0
 21 22  1  0
 14  9  1  0
 22 20  1  0
 19 11  1  0
M  END
>  <energy_score>  (1770) 
-25.381134

>  <inchikey>  (1770) 
None

>  <smiles>  (1770) 
None

>  <ref_pdb>  (1770) 
A3618a

>  <alias>  (1770) 
None

>  <HIPPO Pose ID>  (1770) 
499414

>  <name>  (1770) 
P499414

>  <HIPPO Compound ID>  (1770) 
302386

>  <ref_mols>  (1770) 
A0310a,A3618a

>  <distance_score>  (1770) 
1.934682

>  <inspiration_score>  (1770) 
None

$$$$
P499415
     RDKit          3D

 22 24  0  0  0  0  0  0  0  0999 V2000
    0.8103   14.9181   23.9605 C   0  0  0  0  0  0  0  0  0  0  0  0
    1.3627   14.2572   25.1036 N   0  0  0  0  0  0  0  0  0  0  0  0
    0.7595   13.1612   26.0240 C   0  0  0  0  0  0  0  0  0  0  0  0
   -0.2503   12.5752   25.9438 O   0  0  0  0  0  0  0  0  0  0  0  0
    1.7625   12.8999   27.1968 C   0  0  1  0  0  0  0  0  0  0  0  0
    3.0713   12.5392   26.6981 N   0  0  0  0  0  0  0  0  0  0  0  0
    4.1918   13.4124   26.1101 C   0  0  0  0  0  0  0  0  0  0  0  0
    4.2109   14.5504   25.8624 O   0  0  0  0  0  0  0  0  0  0  0  0
    5.3560   12.5229   25.7575 C   0  0  0  0  0  0  0  0  0  0  0  0
    6.3562   12.9639   24.9142 C   0  0  0  0  0  0  0  0  0  0  0  0
    7.3101   12.0477   24.4854 C   0  0  0  0  0  0  0  0  0  0  0  0
    7.2389   10.7273   24.8955 C   0  0  0  0  0  0  0  0  0  0  0  0
    6.2156   10.3853   25.7600 C   0  0  0  0  0  0  0  0  0  0  0  0
    5.2863   11.2512   26.2229 N   0  0  0  0  0  0  0  0  0  0  0  0
    8.1133    9.7787   24.3707 N   0  0  0  0  0  0  0  0  0  0  0  0
    9.1199   10.1300   23.5120 C   0  0  0  0  0  0  0  0  0  0  0  0
    9.7969    9.2822   22.9429 O   0  0  0  0  0  0  0  0  0  0  0  0
    9.3370   11.6413   23.3745 C   0  0  0  0  0  0  0  0  0  0  0  0
    8.2193   12.5006   23.5694 O   0  0  0  0  0  0  0  0  0  0  0  0
    1.8536   14.0314   28.1825 C   0  0  0  0  0  0  0  0  0  0  0  0
    2.3478   13.7791   29.5870 C   0  0  0  0  0  0  0  0  0  0  0  0
    0.9006   14.1102   29.3501 C   0  0  0  0  0  0  0  0  0  0  0  0
  1  2  1  0
  2  3  1  0
  3  4  2  0
  3  5  1  0
  5  6  1  6
  6  7  1  0
  7  8  2  0
  7  9  1  0
  9 10  2  0
 10 11  1  0
 11 12  2  0
 12 13  1  0
 13 14  2  0
 12 15  1  0
 15 16  1  0
 16 17  2  0
 16 18  1  0
 18 19  1  0
  5 20  1  0
 20 21  1  0
 21 22  1  0
 14  9  1  0
 22 20  1  0
 19 11  1  0
M  END
>  <energy_score>  (1771) 
-9.647723

>  <inchikey>  (1771) 
None

>  <smiles>  (1771) 
None

>  <ref_pdb>  (1771) 
A3618a

>  <alias>  (1771) 
None

>  <HIPPO Pose ID>  (1771) 
499415

>  <name>  (1771) 
P499415

>  <HIPPO Compound ID>  (1771) 
302388

>  <ref_mols>  (1771) 
A0310a,A3618a

>  <distance_score>  (1771) 
1.999576

>  <inspiration_score>  (1771) 
None

$$$$
P499416
     RDKit          3D

 22 24  0  0  0  0  0  0  0  0999 V2000
    0.2419   14.0307   24.4846 C   0  0  0  0  0  0  0  0  0  0  0  0
    1.1775   14.1603   25.5939 N   0  0  0  0  0  0  0  0  0  0  0  0
    1.5607   15.5562   25.7910 C   0  0  0  0  0  0  0  0  0  0  0  0
    0.7687   13.4560   26.8300 C   0  0  1  0  0  0  0  0  0  0  0  0
    1.9299   13.2763   27.8548 C   0  0  0  0  0  0  0  0  0  0  0  0
    3.1420   12.7529   27.2694 N   0  0  0  0  0  0  0  0  0  0  0  0
    4.4471   13.4627   26.8723 C   0  0  0  0  0  0  0  0  0  0  0  0
    4.7820   14.5682   27.0245 O   0  0  0  0  0  0  0  0  0  0  0  0
    5.3773   12.4724   26.2237 C   0  0  0  0  0  0  0  0  0  0  0  0
    6.5696   12.8907   25.6702 C   0  0  0  0  0  0  0  0  0  0  0  0
    7.3955   11.9405   25.0841 C   0  0  0  0  0  0  0  0  0  0  0  0
    7.0276   10.6083   25.0567 C   0  0  0  0  0  0  0  0  0  0  0  0
    5.8305   10.2776   25.6669 C   0  0  0  0  0  0  0  0  0  0  0  0
    4.9938   11.1728   26.2474 N   0  0  0  0  0  0  0  0  0  0  0  0
    7.8455    9.6675   24.4271 N   0  0  0  0  0  0  0  0  0  0  0  0
    8.9231   10.0489   23.6676 C   0  0  0  0  0  0  0  0  0  0  0  0
    9.5880    9.2370   23.0326 O   0  0  0  0  0  0  0  0  0  0  0  0
    9.1465   11.5626   23.6007 C   0  0  0  0  0  0  0  0  0  0  0  0
    8.6056   12.3806   24.6283 O   0  0  0  0  0  0  0  0  0  0  0  0
   -0.5132   14.0167   27.4216 C   0  0  0  0  0  0  0  0  0  0  0  0
   -0.5405   15.1886   28.3749 C   0  0  0  0  0  0  0  0  0  0  0  0
   -0.9161   13.8181   28.8665 C   0  0  0  0  0  0  0  0  0  0  0  0
  1  2  1  0
  2  3  1  0
  2  4  1  0
  4  5  1  1
  5  6  1  0
  6  7  1  0
  7  8  2  0
  7  9  1  0
  9 10  2  0
 10 11  1  0
 11 12  2  0
 12 13  1  0
 13 14  2  0
 12 15  1  0
 15 16  1  0
 16 17  2  0
 16 18  1  0
 18 19  1  0
  4 20  1  0
 20 21  1  0
 21 22  1  0
 14  9  1  0
 22 20  1  0
 19 11  1  0
M  END
>  <energy_score>  (1772) 
-15.273688

>  <inchikey>  (1772) 
None

>  <smiles>  (1772) 
None

>  <ref_pdb>  (1772) 
A3618a

>  <alias>  (1772) 
None

>  <HIPPO Pose ID>  (1772) 
499416

>  <name>  (1772) 
P499416

>  <HIPPO Compound ID>  (1772) 
302389

>  <ref_mols>  (1772) 
A0310a,A3618a

>  <distance_score>  (1772) 
1.937092

>  <inspiration_score>  (1772) 
None

$$$$
P499417
     RDKit          3D

 22 24  0  0  0  0  0  0  0  0999 V2000
   -0.6200   15.7847   25.2138 C   0  0  0  0  0  0  0  0  0  0  0  0
   -0.1663   14.5768   24.8549 C   0  0  0  0  0  0  0  0  0  0  0  0
    0.7660   13.6798   25.6282 C   0  0  0  0  0  0  0  0  0  0  0  0
    1.2527   14.1990   26.9851 C   0  0  0  0  0  0  0  0  0  0  0  0
    2.1553   13.2290   27.7690 C   0  0  2  0  0  0  0  0  0  0  0  0
    3.3008   12.7737   27.0233 N   0  0  0  0  0  0  0  0  0  0  0  0
    4.4018   13.5681   26.2974 C   0  0  0  0  0  0  0  0  0  0  0  0
    4.5152   14.7141   26.1221 O   0  0  0  0  0  0  0  0  0  0  0  0
    5.4426   12.6052   25.7840 C   0  0  0  0  0  0  0  0  0  0  0  0
    6.4279   13.0205   24.9080 C   0  0  0  0  0  0  0  0  0  0  0  0
    7.3455   12.0825   24.4471 C   0  0  0  0  0  0  0  0  0  0  0  0
    7.2513   10.7628   24.8582 C   0  0  0  0  0  0  0  0  0  0  0  0
    6.2290   10.4381   25.7322 C   0  0  0  0  0  0  0  0  0  0  0  0
    5.3345   11.3256   26.2234 N   0  0  0  0  0  0  0  0  0  0  0  0
    8.1108    9.7997   24.3354 N   0  0  0  0  0  0  0  0  0  0  0  0
    9.1285   10.1360   23.4835 C   0  0  0  0  0  0  0  0  0  0  0  0
    9.7925    9.2753   22.9182 O   0  0  0  0  0  0  0  0  0  0  0  0
    9.3680   11.6449   23.3457 C   0  0  0  0  0  0  0  0  0  0  0  0
    8.2535   12.5162   23.5161 O   0  0  0  0  0  0  0  0  0  0  0  0
    1.4020   12.0237   28.2669 C   0  0  0  0  0  0  0  0  0  0  0  0
    1.8667   11.2965   29.5047 C   0  0  0  0  0  0  0  0  0  0  0  0
    0.5891   12.0886   29.5353 C   0  0  0  0  0  0  0  0  0  0  0  0
  1  2  2  0
  2  3  1  0
  3  4  1  0
  5  4  1  6
  5  6  1  0
  6  7  1  0
  7  8  2  0
  7  9  1  0
  9 10  2  0
 10 11  1  0
 11 12  2  0
 12 13  1  0
 13 14  2  0
 12 15  1  0
 15 16  1  0
 16 17  2  0
 16 18  1  0
 18 19  1  0
  5 20  1  0
 20 21  1  0
 21 22  1  0
 14  9  1  0
 22 20  1  0
 19 11  1  0
M  END
>  <energy_score>  (1773) 
-15.029751

>  <inchikey>  (1773) 
None

>  <smiles>  (1773) 
None

>  <ref_pdb>  (1773) 
A3618a

>  <alias>  (1773) 
None

>  <HIPPO Pose ID>  (1773) 
499417

>  <name>  (1773) 
P499417

>  <HIPPO Compound ID>  (1773) 
302391

>  <ref_mols>  (1773) 
A0310a,A3618a

>  <distance_score>  (1773) 
1.978595

>  <inspiration_score>  (1773) 
None

$$$$
P499418
     RDKit          3D

 22 24  0  0  0  0  0  0  0  0999 V2000
    9.5915    9.2046   23.0597 O   0  0  0  0  0  0  0  0  0  0  0  0
    8.9406   10.0419   23.6761 C   0  0  0  0  0  0  0  0  0  0  0  0
    9.1986   11.5483   23.5769 C   0  0  0  0  0  0  0  0  0  0  0  0
    8.5801   12.4428   24.4863 O   0  0  0  0  0  0  0  0  0  0  0  0
    7.3930   11.9953   24.9858 C   0  0  0  0  0  0  0  0  0  0  0  0
    6.5494   12.9652   25.5087 C   0  0  0  0  0  0  0  0  0  0  0  0
    5.3617   12.5653   26.0845 C   0  0  0  0  0  0  0  0  0  0  0  0
    4.3985   13.5922   26.6188 C   0  0  0  0  0  0  0  0  0  0  0  0
    4.6884   14.7198   26.6103 O   0  0  0  0  0  0  0  0  0  0  0  0
    3.1215   12.8968   27.1107 N   0  0  0  0  0  0  0  0  0  0  0  0
    1.9632   13.4313   27.7864 C   0  0  2  0  0  0  0  0  0  0  0  0
    1.6323   12.5378   28.9569 C   0  0  0  0  0  0  0  0  0  0  0  0
    0.2444   12.0431   29.2933 C   0  0  0  0  0  0  0  0  0  0  0  0
    1.2752   11.0839   28.7690 C   0  0  0  0  0  0  0  0  0  0  0  0
    0.8128   13.7843   26.8150 C   0  0  2  0  0  0  0  0  0  0  0  0
    0.3581   12.6689   26.0157 O   0  0  0  0  0  0  0  0  0  0  0  0
    1.2110   14.9056   25.8428 C   0  0  0  0  0  0  0  0  0  0  0  0
    0.0850   15.1647   24.9917 O   0  0  0  0  0  0  0  0  0  0  0  0
    5.0065   11.2644   26.2074 N   0  0  0  0  0  0  0  0  0  0  0  0
    5.8575   10.3473   25.6816 C   0  0  0  0  0  0  0  0  0  0  0  0
    7.0456   10.6591   25.0417 C   0  0  0  0  0  0  0  0  0  0  0  0
    7.8638    9.6945   24.4511 N   0  0  0  0  0  0  0  0  0  0  0  0
  1  2  2  0
  2  3  1  0
  3  4  1  0
  4  5  1  0
  5  6  2  0
  6  7  1  0
  7  8  1  0
  8  9  2  0
  8 10  1  0
 11 10  1  6
 11 12  1  0
 12 13  1  0
 13 14  1  0
 11 15  1  0
 15 16  1  6
 15 17  1  0
 17 18  1  0
  7 19  2  0
 19 20  1  0
 20 21  2  0
 21 22  1  0
 22  2  1  0
 21  5  1  0
 14 12  1  0
M  END
>  <energy_score>  (1774) 
-27.672168

>  <inchikey>  (1774) 
None

>  <smiles>  (1774) 
None

>  <ref_pdb>  (1774) 
A3618a

>  <alias>  (1774) 
None

>  <HIPPO Pose ID>  (1774) 
499418

>  <name>  (1774) 
P499418

>  <HIPPO Compound ID>  (1774) 
302392

>  <ref_mols>  (1774) 
A0310a,A3618a

>  <distance_score>  (1774) 
1.959589

>  <inspiration_score>  (1774) 
None

$$$$
P499419
     RDKit          3D

 22 24  0  0  0  0  0  0  0  0999 V2000
    9.6400    9.3216   23.0209 O   0  0  0  0  0  0  0  0  0  0  0  0
    8.9629   10.1228   23.6564 C   0  0  0  0  0  0  0  0  0  0  0  0
    9.1675   11.6409   23.5947 C   0  0  0  0  0  0  0  0  0  0  0  0
    8.5114   12.4908   24.5236 O   0  0  0  0  0  0  0  0  0  0  0  0
    7.3407   11.9876   25.0115 C   0  0  0  0  0  0  0  0  0  0  0  0
    6.4509   12.9084   25.5530 C   0  0  0  0  0  0  0  0  0  0  0  0
    5.2771   12.4405   26.1066 C   0  0  0  0  0  0  0  0  0  0  0  0
    4.2393   13.3913   26.6437 C   0  0  0  0  0  0  0  0  0  0  0  0
    4.4375   14.5387   26.6483 O   0  0  0  0  0  0  0  0  0  0  0  0
    2.9987   12.5931   27.0738 N   0  0  0  0  0  0  0  0  0  0  0  0
    1.7701   13.0306   27.6912 C   0  0  2  0  0  0  0  0  0  0  0  0
    1.1907   11.8715   28.4549 C   0  0  0  0  0  0  0  0  0  0  0  0
    1.8417   11.4112   29.7372 C   0  0  0  0  0  0  0  0  0  0  0  0
    0.4906   12.0667   29.7775 C   0  0  0  0  0  0  0  0  0  0  0  0
    0.8005   13.6306   26.6445 C   0  0  1  0  0  0  0  0  0  0  0  0
    0.2481   12.6358   25.7487 O   0  0  0  0  0  0  0  0  0  0  0  0
   -0.3727   14.3700   27.2966 C   0  0  0  0  0  0  0  0  0  0  0  0
   -1.2198   14.8647   26.2525 O   0  0  0  0  0  0  0  0  0  0  0  0
    4.9823   11.1221   26.1938 N   0  0  0  0  0  0  0  0  0  0  0  0
    5.8751   10.2583   25.6570 C   0  0  0  0  0  0  0  0  0  0  0  0
    7.0501   10.6365   25.0340 C   0  0  0  0  0  0  0  0  0  0  0  0
    7.9035    9.7175   24.4239 N   0  0  0  0  0  0  0  0  0  0  0  0
  1  2  2  0
  2  3  1  0
  3  4  1  0
  4  5  1  0
  5  6  2  0
  6  7  1  0
  7  8  1  0
  8  9  2  0
  8 10  1  0
 11 10  1  6
 11 12  1  0
 12 13  1  0
 13 14  1  0
 11 15  1  0
 15 16  1  1
 15 17  1  0
 17 18  1  0
  7 19  2  0
 19 20  1  0
 20 21  2  0
 21 22  1  0
 22  2  1  0
 21  5  1  0
 14 12  1  0
M  END
>  <energy_score>  (1775) 
-36.756413

>  <inchikey>  (1775) 
None

>  <smiles>  (1775) 
None

>  <ref_pdb>  (1775) 
A3618a

>  <alias>  (1775) 
None

>  <HIPPO Pose ID>  (1775) 
499419

>  <name>  (1775) 
P499419

>  <HIPPO Compound ID>  (1775) 
302392

>  <ref_mols>  (1775) 
A0310a,A3618a

>  <distance_score>  (1775) 
1.928891

>  <inspiration_score>  (1775) 
None

$$$$
P499420
     RDKit          3D

 22 25  0  0  0  0  0  0  0  0999 V2000
    9.7795    9.3705   22.9351 O   0  0  0  0  0  0  0  0  0  0  0  0
    9.0873   10.1920   23.5249 C   0  0  0  0  0  0  0  0  0  0  0  0
    9.2868   11.7103   23.4339 C   0  0  0  0  0  0  0  0  0  0  0  0
    8.1859   12.5673   23.7112 O   0  0  0  0  0  0  0  0  0  0  0  0
    7.2604   12.0575   24.5783 C   0  0  0  0  0  0  0  0  0  0  0  0
    6.3041   12.9483   25.0578 C   0  0  0  0  0  0  0  0  0  0  0  0
    5.2926   12.4593   25.8612 C   0  0  0  0  0  0  0  0  0  0  0  0
    4.1721   13.3464   26.3358 C   0  0  0  0  0  0  0  0  0  0  0  0
    4.2621   14.5067   26.2706 O   0  0  0  0  0  0  0  0  0  0  0  0
    3.0151   12.4606   26.8394 N   0  0  0  0  0  0  0  0  0  0  0  0
    1.7608   12.8185   27.4579 C   0  0  2  0  0  0  0  0  0  0  0  0
    1.0827   14.0511   26.8355 C   0  0  0  0  0  0  0  0  0  0  0  0
    0.7046   13.8607   25.3911 C   0  0  0  0  0  0  0  0  0  0  0  0
   -0.3346   14.7693   24.7859 C   0  0  0  0  0  0  0  0  0  0  0  0
   -0.6426   13.3130   24.9942 C   0  0  0  0  0  0  0  0  0  0  0  0
    2.0119   13.0248   28.9264 C   0  0  0  0  0  0  0  0  0  0  0  0
    0.9522   12.6830   29.9446 C   0  0  0  0  0  0  0  0  0  0  0  0
    2.1922   11.8391   29.8433 C   0  0  0  0  0  0  0  0  0  0  0  0
    5.2070   11.1581   26.2283 N   0  0  0  0  0  0  0  0  0  0  0  0
    6.1465   10.3236   25.7318 C   0  0  0  0  0  0  0  0  0  0  0  0
    7.1861   10.7164   24.9099 C   0  0  0  0  0  0  0  0  0  0  0  0
    8.0766    9.7987   24.3582 N   0  0  0  0  0  0  0  0  0  0  0  0
  1  2  2  0
  2  3  1  0
  3  4  1  0
  4  5  1  0
  5  6  2  0
  6  7  1  0
  7  8  1  0
  8  9  2  0
  8 10  1  0
 10 11  1  0
 11 12  1  6
 12 13  1  0
 13 14  1  0
 14 15  1  0
 11 16  1  0
 16 17  1  0
 17 18  1  0
  7 19  2  0
 19 20  1  0
 20 21  2  0
 21 22  1  0
 22  2  1  0
 21  5  1  0
 15 13  1  0
 18 16  1  0
M  END
>  <energy_score>  (1776) 
-15.674779

>  <inchikey>  (1776) 
None

>  <smiles>  (1776) 
None

>  <ref_pdb>  (1776) 
A3618a

>  <alias>  (1776) 
None

>  <HIPPO Pose ID>  (1776) 
499420

>  <name>  (1776) 
P499420

>  <HIPPO Compound ID>  (1776) 
302395

>  <ref_mols>  (1776) 
A0310a,A3618a

>  <distance_score>  (1776) 
1.934693

>  <inspiration_score>  (1776) 
None

$$$$
P499421
     RDKit          3D

 22 25  0  0  0  0  0  0  0  0999 V2000
    9.8741   10.2376   22.6001 O   0  0  0  0  0  0  0  0  0  0  0  0
    8.9744   10.2934   23.4245 C   0  0  0  0  0  0  0  0  0  0  0  0
    8.2981    9.0577   23.9332 C   0  0  0  0  0  0  0  0  0  0  0  0
    7.3515    9.1376   24.9851 O   0  0  0  0  0  0  0  0  0  0  0  0
    6.8559   10.3756   25.2596 C   0  0  0  0  0  0  0  0  0  0  0  0
    5.8108   10.4385   26.1703 C   0  0  0  0  0  0  0  0  0  0  0  0
    5.2923   11.6864   26.4672 C   0  0  0  0  0  0  0  0  0  0  0  0
    4.2143   11.8069   27.5003 C   0  0  0  0  0  0  0  0  0  0  0  0
    4.2274   11.1114   28.4350 O   0  0  0  0  0  0  0  0  0  0  0  0
    3.2408   12.9327   27.1079 N   0  0  0  0  0  0  0  0  0  0  0  0
    2.0135   13.3815   27.7405 C   0  0  1  0  0  0  0  0  0  0  0  0
    1.2684   14.3365   26.7860 C   0  0  0  0  0  0  0  0  0  0  0  0
    0.1147   15.0538   27.4285 C   0  0  0  0  0  0  0  0  0  0  0  0
   -1.3022   14.5767   27.2348 C   0  0  0  0  0  0  0  0  0  0  0  0
   -0.8391   15.8382   26.5635 C   0  0  0  0  0  0  0  0  0  0  0  0
    1.1512   12.1970   28.0945 C   0  0  0  0  0  0  0  0  0  0  0  0
    1.3834   11.4142   29.3657 C   0  0  0  0  0  0  0  0  0  0  0  0
    0.1647   12.2754   29.2394 C   0  0  0  0  0  0  0  0  0  0  0  0
    5.7207   12.8488   25.8978 N   0  0  0  0  0  0  0  0  0  0  0  0
    6.7621   12.7449   25.0397 C   0  0  0  0  0  0  0  0  0  0  0  0
    7.3661   11.5418   24.7044 C   0  0  0  0  0  0  0  0  0  0  0  0
    8.4578   11.4848   23.8422 N   0  0  0  0  0  0  0  0  0  0  0  0
  1  2  2  0
  2  3  1  0
  3  4  1  0
  4  5  1  0
  5  6  2  0
  6  7  1  0
  7  8  1  0
  8  9  2  0
  8 10  1  0
 10 11  1  0
 11 12  1  6
 12 13  1  0
 13 14  1  0
 14 15  1  0
 11 16  1  0
 16 17  1  0
 17 18  1  0
  7 19  2  0
 19 20  1  0
 20 21  2  0
 21 22  1  0
 22  2  1  0
 21  5  1  0
 15 13  1  0
 18 16  1  0
M  END
>  <energy_score>  (1777) 
-13.474712

>  <inchikey>  (1777) 
None

>  <smiles>  (1777) 
None

>  <ref_pdb>  (1777) 
A3618a

>  <alias>  (1777) 
None

>  <HIPPO Pose ID>  (1777) 
499421

>  <name>  (1777) 
P499421

>  <HIPPO Compound ID>  (1777) 
302395

>  <ref_mols>  (1777) 
A0310a,A3618a

>  <distance_score>  (1777) 
1.650784

>  <inspiration_score>  (1777) 
None

$$$$
P499422
     RDKit          3D

 22 25  0  0  0  0  0  0  0  0999 V2000
    9.7419    9.8517   22.8752 O   0  0  0  0  0  0  0  0  0  0  0  0
    8.9702   10.5338   23.5359 C   0  0  0  0  0  0  0  0  0  0  0  0
    8.9747   12.0678   23.5918 C   0  0  0  0  0  0  0  0  0  0  0  0
    7.7550   12.7414   23.8952 O   0  0  0  0  0  0  0  0  0  0  0  0
    6.9516   12.0800   24.7888 C   0  0  0  0  0  0  0  0  0  0  0  0
    5.9941   12.8428   25.3732 N   0  0  0  0  0  0  0  0  0  0  0  0
    5.1302   12.2054   26.2051 C   0  0  0  0  0  0  0  0  0  0  0  0
    4.0532   12.9968   26.8915 C   0  0  0  0  0  0  0  0  0  0  0  0
    3.5101   12.5199   27.8039 O   0  0  0  0  0  0  0  0  0  0  0  0
    3.8628   14.3626   26.2252 N   0  0  0  0  0  0  0  0  0  0  0  0
    2.8962   15.4019   26.4784 C   0  0  2  0  0  0  0  0  0  0  0  0
    1.4499   14.9178   26.2108 C   0  0  0  0  0  0  0  0  0  0  0  0
    0.9987   15.0370   24.7770 C   0  0  0  0  0  0  0  0  0  0  0  0
    0.2293   13.9112   24.1350 C   0  0  0  0  0  0  0  0  0  0  0  0
    1.6234   14.2274   23.6714 C   0  0  0  0  0  0  0  0  0  0  0  0
    3.2804   16.6473   25.7349 C   0  0  0  0  0  0  0  0  0  0  0  0
    2.9378   18.0089   26.2853 C   0  0  0  0  0  0  0  0  0  0  0  0
    4.3686   17.5465   26.2667 C   0  0  0  0  0  0  0  0  0  0  0  0
    5.1796   10.8480   26.4478 C   0  0  0  0  0  0  0  0  0  0  0  0
    6.1576   10.1040   25.8124 C   0  0  0  0  0  0  0  0  0  0  0  0
    7.0741   10.7146   24.9889 C   0  0  0  0  0  0  0  0  0  0  0  0
    8.0376    9.9510   24.3409 N   0  0  0  0  0  0  0  0  0  0  0  0
  1  2  2  0
  2  3  1  0
  3  4  1  0
  4  5  1  0
  5  6  2  0
  6  7  1  0
  7  8  1  0
  8  9  2  0
  8 10  1  0
 10 11  1  0
 11 12  1  6
 12 13  1  0
 13 14  1  0
 14 15  1  0
 11 16  1  0
 16 17  1  0
 17 18  1  0
  7 19  2  0
 19 20  1  0
 20 21  2  0
 21 22  1  0
 22  2  1  0
 21  5  1  0
 15 13  1  0
 18 16  1  0
M  END
>  <energy_score>  (1778) 
-17.413202

>  <inchikey>  (1778) 
None

>  <smiles>  (1778) 
None

>  <ref_pdb>  (1778) 
A3618a

>  <alias>  (1778) 
None

>  <HIPPO Pose ID>  (1778) 
499422

>  <name>  (1778) 
P499422

>  <HIPPO Compound ID>  (1778) 
302402

>  <ref_mols>  (1778) 
A0310a,A3618a

>  <distance_score>  (1778) 
1.928272

>  <inspiration_score>  (1778) 
None

$$$$
P499423
     RDKit          3D

 22 25  0  0  0  0  0  0  0  0999 V2000
    9.7184    9.4885   22.8733 O   0  0  0  0  0  0  0  0  0  0  0  0
    9.0331   10.2420   23.5541 C   0  0  0  0  0  0  0  0  0  0  0  0
    9.1931   11.7687   23.5827 C   0  0  0  0  0  0  0  0  0  0  0  0
    8.5816   12.5284   24.6135 O   0  0  0  0  0  0  0  0  0  0  0  0
    7.4321   11.9781   25.1110 C   0  0  0  0  0  0  0  0  0  0  0  0
    6.6691   12.8405   25.8130 N   0  0  0  0  0  0  0  0  0  0  0  0
    5.5742   12.3446   26.4250 C   0  0  0  0  0  0  0  0  0  0  0  0
    4.7520   13.2728   27.2672 C   0  0  0  0  0  0  0  0  0  0  0  0
    5.2661   13.8951   28.1080 O   0  0  0  0  0  0  0  0  0  0  0  0
    3.2614   13.1416   26.8892 N   0  0  0  0  0  0  0  0  0  0  0  0
    2.0807   13.6757   27.5283 C   0  0  1  0  0  0  0  0  0  0  0  0
    1.0368   14.0759   26.4746 C   0  0  0  0  0  0  0  0  0  0  0  0
   -0.1419   14.8023   27.0578 C   0  0  0  0  0  0  0  0  0  0  0  0
   -0.0528   16.2738   27.3656 C   0  0  0  0  0  0  0  0  0  0  0  0
   -0.9019   15.7974   26.2193 C   0  0  0  0  0  0  0  0  0  0  0  0
    1.5599   12.5998   28.4517 C   0  0  0  0  0  0  0  0  0  0  0  0
    0.9372   12.9547   29.7800 C   0  0  0  0  0  0  0  0  0  0  0  0
    2.2852   12.2934   29.7406 C   0  0  0  0  0  0  0  0  0  0  0  0
    5.2180   11.0103   26.3683 C   0  0  0  0  0  0  0  0  0  0  0  0
    6.0255   10.1467   25.6408 C   0  0  0  0  0  0  0  0  0  0  0  0
    7.1532   10.6265   25.0005 C   0  0  0  0  0  0  0  0  0  0  0  0
    7.9847    9.7668   24.2900 N   0  0  0  0  0  0  0  0  0  0  0  0
  1  2  2  0
  2  3  1  0
  3  4  1  0
  4  5  1  0
  5  6  2  0
  6  7  1  0
  7  8  1  0
  8  9  2  0
  8 10  1  0
 10 11  1  0
 11 12  1  6
 12 13  1  0
 13 14  1  0
 14 15  1  0
 11 16  1  0
 16 17  1  0
 17 18  1  0
  7 19  2  0
 19 20  1  0
 20 21  2  0
 21 22  1  0
 22  2  1  0
 21  5  1  0
 15 13  1  0
 18 16  1  0
M  END
>  <energy_score>  (1779) 
-10.216221

>  <inchikey>  (1779) 
None

>  <smiles>  (1779) 
None

>  <ref_pdb>  (1779) 
A3618a

>  <alias>  (1779) 
None

>  <HIPPO Pose ID>  (1779) 
499423

>  <name>  (1779) 
P499423

>  <HIPPO Compound ID>  (1779) 
302402

>  <ref_mols>  (1779) 
A0310a,A3618a

>  <distance_score>  (1779) 
1.968133

>  <inspiration_score>  (1779) 
None

$$$$
P499424
     RDKit          3D

 22 24  0  0  0  0  0  0  0  0999 V2000
    9.8080    9.3425   22.8571 O   0  0  0  0  0  0  0  0  0  0  0  0
    9.1196   10.1630   23.4502 C   0  0  0  0  0  0  0  0  0  0  0  0
    9.3172   11.6837   23.3797 C   0  0  0  0  0  0  0  0  0  0  0  0
    8.1767   12.5049   23.5969 O   0  0  0  0  0  0  0  0  0  0  0  0
    7.3515   12.0401   24.5867 C   0  0  0  0  0  0  0  0  0  0  0  0
    6.5792   12.9816   25.1614 N   0  0  0  0  0  0  0  0  0  0  0  0
    5.6792   12.5717   26.0788 C   0  0  0  0  0  0  0  0  0  0  0  0
    4.8763   13.6255   26.7890 C   0  0  0  0  0  0  0  0  0  0  0  0
    5.4232   14.5396   27.2607 O   0  0  0  0  0  0  0  0  0  0  0  0
    3.3858   13.2272   26.8194 N   0  0  0  0  0  0  0  0  0  0  0  0
    2.2623   13.8258   27.5229 C   0  0  1  0  0  0  0  0  0  0  0  0
    1.1151   14.0847   26.5600 C   0  0  0  0  0  0  0  0  0  0  0  0
    0.0577   14.9062   27.2236 N   0  0  0  0  0  0  0  0  0  0  0  0
   -1.0889   14.4376   27.2196 O   0  0  0  0  0  0  0  0  0  0  0  0
    0.3867   16.0005   27.6935 O   0  0  0  0  0  0  0  0  0  0  0  0
    1.9773   12.9316   28.7111 C   0  0  0  0  0  0  0  0  0  0  0  0
    0.6598   12.2490   29.0134 C   0  0  0  0  0  0  0  0  0  0  0  0
    1.8287   11.4297   28.5593 C   0  0  0  0  0  0  0  0  0  0  0  0
    5.5020   11.2409   26.4178 C   0  0  0  0  0  0  0  0  0  0  0  0
    6.3005   10.2910   25.7921 C   0  0  0  0  0  0  0  0  0  0  0  0
    7.2664   10.6908   24.8878 C   0  0  0  0  0  0  0  0  0  0  0  0
    8.1022    9.7631   24.2745 N   0  0  0  0  0  0  0  0  0  0  0  0
  1  2  2  0
  2  3  1  0
  3  4  1  0
  4  5  1  0
  5  6  2  0
  6  7  1  0
  7  8  1  0
  8  9  2  0
  8 10  1  0
 10 11  1  0
 11 12  1  6
 12 13  1  0
 13 14  2  0
 13 15  1  0
 11 16  1  0
 16 17  1  0
 17 18  1  0
  7 19  2  0
 19 20  1  0
 20 21  2  0
 21 22  1  0
 22  2  1  0
 21  5  1  0
 18 16  1  0
M  CHG  2  13   1  15  -1
M  END
>  <energy_score>  (1780) 
-9.002893

>  <inchikey>  (1780) 
None

>  <smiles>  (1780) 
None

>  <ref_pdb>  (1780) 
A3618a

>  <alias>  (1780) 
None

>  <HIPPO Pose ID>  (1780) 
499424

>  <name>  (1780) 
P499424

>  <HIPPO Compound ID>  (1780) 
302404

>  <ref_mols>  (1780) 
A0310a,A3618a

>  <distance_score>  (1780) 
1.975091

>  <inspiration_score>  (1780) 
None

$$$$
P499425
     RDKit          3D

 22 24  0  0  0  0  0  0  0  0999 V2000
    0.8613   13.6577   27.6184 C   0  0  0  0  0  0  0  0  0  0  0  0
    0.9800   14.1009   26.1757 C   0  0  0  0  0  0  0  0  0  0  0  0
   -0.0470   14.9668   25.9200 F   0  0  0  0  0  0  0  0  0  0  0  0
    0.7211   13.0095   25.3848 F   0  0  0  0  0  0  0  0  0  0  0  0
    2.3094   14.7634   25.7105 C   0  0  2  0  0  0  0  0  0  0  0  0
    3.4343   13.8517   25.6182 N   0  0  0  0  0  0  0  0  0  0  0  0
    4.1756   13.0719   26.7084 C   0  0  0  0  0  0  0  0  0  0  0  0
    3.9569   12.9740   27.8471 O   0  0  0  0  0  0  0  0  0  0  0  0
    5.2778   12.2691   26.1081 C   0  0  0  0  0  0  0  0  0  0  0  0
    5.3439   10.9404   26.4675 C   0  0  0  0  0  0  0  0  0  0  0  0
    6.2877   10.1508   25.8384 C   0  0  0  0  0  0  0  0  0  0  0  0
    7.1726   10.7054   24.9408 C   0  0  0  0  0  0  0  0  0  0  0  0
    7.0403   12.0544   24.6441 C   0  0  0  0  0  0  0  0  0  0  0  0
    6.0835   12.8443   25.1822 N   0  0  0  0  0  0  0  0  0  0  0  0
    7.8291   12.6552   23.6903 O   0  0  0  0  0  0  0  0  0  0  0  0
    9.0731   11.9829   23.4911 C   0  0  0  0  0  0  0  0  0  0  0  0
    9.0466   10.4477   23.4743 C   0  0  0  0  0  0  0  0  0  0  0  0
    9.7954    9.7339   22.8223 O   0  0  0  0  0  0  0  0  0  0  0  0
    8.1184    9.9044   24.3133 N   0  0  0  0  0  0  0  0  0  0  0  0
    2.7220   15.9405   26.5595 C   0  0  0  0  0  0  0  0  0  0  0  0
    3.6240   17.0062   25.9868 C   0  0  0  0  0  0  0  0  0  0  0  0
    2.1841   17.3216   26.2837 C   0  0  0  0  0  0  0  0  0  0  0  0
  1  2  1  0
  2  3  1  0
  2  4  1  0
  2  5  1  0
  5  6  1  1
  6  7  1  0
  7  8  2  0
  7  9  1  0
  9 10  2  0
 10 11  1  0
 11 12  2  0
 12 13  1  0
 13 14  2  0
 13 15  1  0
 15 16  1  0
 16 17  1  0
 17 18  2  0
 17 19  1  0
  5 20  1  0
 20 21  1  0
 21 22  1  0
 14  9  1  0
 22 20  1  0
 19 12  1  0
M  END
>  <energy_score>  (1781) 
-5.133131

>  <inchikey>  (1781) 
None

>  <smiles>  (1781) 
None

>  <ref_pdb>  (1781) 
A3618a

>  <alias>  (1781) 
None

>  <HIPPO Pose ID>  (1781) 
499425

>  <name>  (1781) 
P499425

>  <HIPPO Compound ID>  (1781) 
302406

>  <ref_mols>  (1781) 
A0310a,A3618a

>  <distance_score>  (1781) 
1.931128

>  <inspiration_score>  (1781) 
None

$$$$
P499426
     RDKit          3D

 22 24  0  0  0  0  0  0  0  0999 V2000
    0.7869   13.5277   26.8382 C   0  0  0  0  0  0  0  0  0  0  0  0
    1.4294   14.8698   26.5459 C   0  0  0  0  0  0  0  0  0  0  0  0
    1.4311   15.0583   25.1972 F   0  0  0  0  0  0  0  0  0  0  0  0
    0.6162   15.8372   27.0608 F   0  0  0  0  0  0  0  0  0  0  0  0
    2.8656   15.0543   27.1144 C   0  0  1  0  0  0  0  0  0  0  0  0
    3.7882   14.0307   26.6640 N   0  0  0  0  0  0  0  0  0  0  0  0
    4.0123   12.6072   27.1658 C   0  0  0  0  0  0  0  0  0  0  0  0
    3.4426   11.9940   27.9721 O   0  0  0  0  0  0  0  0  0  0  0  0
    5.1233   11.9473   26.4011 C   0  0  0  0  0  0  0  0  0  0  0  0
    5.1921   10.5741   26.4541 C   0  0  0  0  0  0  0  0  0  0  0  0
    6.1850    9.9499   25.7282 C   0  0  0  0  0  0  0  0  0  0  0  0
    7.0931   10.6771   25.0015 C   0  0  0  0  0  0  0  0  0  0  0  0
    6.9529   12.0512   24.9852 C   0  0  0  0  0  0  0  0  0  0  0  0
    5.9811   12.7103   25.6705 N   0  0  0  0  0  0  0  0  0  0  0  0
    7.7682   12.8447   24.2235 O   0  0  0  0  0  0  0  0  0  0  0  0
    8.9189   12.2048   23.6733 C   0  0  0  0  0  0  0  0  0  0  0  0
    8.9698   10.6775   23.5245 C   0  0  0  0  0  0  0  0  0  0  0  0
    9.7522   10.0651   22.8108 O   0  0  0  0  0  0  0  0  0  0  0  0
    8.0683   10.0047   24.2831 N   0  0  0  0  0  0  0  0  0  0  0  0
    3.4042   16.4510   26.9028 C   0  0  0  0  0  0  0  0  0  0  0  0
    4.8625   16.7682   27.1546 C   0  0  0  0  0  0  0  0  0  0  0  0
    4.3023   16.8654   25.7620 C   0  0  0  0  0  0  0  0  0  0  0  0
  1  2  1  0
  2  3  1  0
  2  4  1  0
  2  5  1  0
  5  6  1  6
  6  7  1  0
  7  8  2  0
  7  9  1  0
  9 10  2  0
 10 11  1  0
 11 12  2  0
 12 13  1  0
 13 14  2  0
 13 15  1  0
 15 16  1  0
 16 17  1  0
 17 18  2  0
 17 19  1  0
  5 20  1  0
 20 21  1  0
 21 22  1  0
 14  9  1  0
 22 20  1  0
 19 12  1  0
M  END
>  <energy_score>  (1782) 
-17.855962

>  <inchikey>  (1782) 
None

>  <smiles>  (1782) 
None

>  <ref_pdb>  (1782) 
A3618a

>  <alias>  (1782) 
None

>  <HIPPO Pose ID>  (1782) 
499426

>  <name>  (1782) 
P499426

>  <HIPPO Compound ID>  (1782) 
302406

>  <ref_mols>  (1782) 
A0310a,A3618a

>  <distance_score>  (1782) 
1.885095

>  <inspiration_score>  (1782) 
None

$$$$
P499427
     RDKit          3D

 22 24  0  0  0  0  0  0  0  0999 V2000
    9.7887    9.6141   22.8607 O   0  0  0  0  0  0  0  0  0  0  0  0
    9.0512   10.3642   23.4853 C   0  0  0  0  0  0  0  0  0  0  0  0
    9.1227   11.8976   23.4582 C   0  0  0  0  0  0  0  0  0  0  0  0
    7.8906   12.6017   23.6065 O   0  0  0  0  0  0  0  0  0  0  0  0
    7.0902   12.0655   24.5896 C   0  0  0  0  0  0  0  0  0  0  0  0
    6.1749   12.9131   25.1067 N   0  0  0  0  0  0  0  0  0  0  0  0
    5.3571   12.4074   26.0629 C   0  0  0  0  0  0  0  0  0  0  0  0
    4.3327   13.2999   26.6758 C   0  0  0  0  0  0  0  0  0  0  0  0
    4.1165   13.2158   27.8177 O   0  0  0  0  0  0  0  0  0  0  0  0
    3.6529   14.1526   25.5932 N   0  0  0  0  0  0  0  0  0  0  0  0
    2.4934   15.0180   25.6668 C   0  0  2  0  0  0  0  0  0  0  0  0
    2.7176   16.0413   26.7480 C   0  0  0  0  0  0  0  0  0  0  0  0
    3.7548   17.1242   26.5643 C   0  0  0  0  0  0  0  0  0  0  0  0
    2.2958   17.4806   26.5692 C   0  0  0  0  0  0  0  0  0  0  0  0
    1.1780   14.2086   25.8503 C   0  0  1  0  0  0  0  0  0  0  0  0
    1.1430   13.4453   27.0628 O   0  0  0  0  0  0  0  0  0  0  0  0
   -0.0685   15.0984   25.8028 C   0  0  0  0  0  0  0  0  0  0  0  0
   -1.2230   14.2499   25.8774 O   0  0  0  0  0  0  0  0  0  0  0  0
    5.3696   11.0873   26.4643 C   0  0  0  0  0  0  0  0  0  0  0  0
    6.2741   10.2327   25.8568 C   0  0  0  0  0  0  0  0  0  0  0  0
    7.1747   10.7225   24.9341 C   0  0  0  0  0  0  0  0  0  0  0  0
    8.0960    9.8730   24.3301 N   0  0  0  0  0  0  0  0  0  0  0  0
  1  2  2  0
  2  3  1  0
  3  4  1  0
  4  5  1  0
  5  6  2  0
  6  7  1  0
  7  8  1  0
  8  9  2  0
  8 10  1  0
 11 10  1  1
 11 12  1  0
 12 13  1  0
 13 14  1  0
 11 15  1  0
 15 16  1  1
 15 17  1  0
 17 18  1  0
  7 19  2  0
 19 20  1  0
 20 21  2  0
 21 22  1  0
 22  2  1  0
 21  5  1  0
 14 12  1  0
M  END
>  <energy_score>  (1783) 
-16.81431

>  <inchikey>  (1783) 
None

>  <smiles>  (1783) 
None

>  <ref_pdb>  (1783) 
A3618a

>  <alias>  (1783) 
None

>  <HIPPO Pose ID>  (1783) 
499427

>  <name>  (1783) 
P499427

>  <HIPPO Compound ID>  (1783) 
302415

>  <ref_mols>  (1783) 
A0310a,A3618a

>  <distance_score>  (1783) 
1.951939

>  <inspiration_score>  (1783) 
None

$$$$
P499428
     RDKit          3D

 22 25  0  0  0  0  0  0  0  0999 V2000
    9.7518    9.8246   22.8284 O   0  0  0  0  0  0  0  0  0  0  0  0
    9.0030   10.5209   23.4999 C   0  0  0  0  0  0  0  0  0  0  0  0
    9.0297   12.0556   23.5552 C   0  0  0  0  0  0  0  0  0  0  0  0
    7.8126   12.7435   23.8452 O   0  0  0  0  0  0  0  0  0  0  0  0
    7.0106   12.0941   24.7530 C   0  0  0  0  0  0  0  0  0  0  0  0
    6.0663   12.8671   25.3421 N   0  0  0  0  0  0  0  0  0  0  0  0
    5.2235   12.2478   26.2097 C   0  0  0  0  0  0  0  0  0  0  0  0
    4.1677   13.0577   26.9045 C   0  0  0  0  0  0  0  0  0  0  0  0
    3.6749   12.6292   27.8683 O   0  0  0  0  0  0  0  0  0  0  0  0
    3.8564   14.3308   26.1118 N   0  0  0  0  0  0  0  0  0  0  0  0
    2.9363   15.3992   26.3854 C   0  0  2  0  0  0  0  0  0  0  0  0
    1.5618   15.0458   25.8118 C   0  0  0  0  0  0  0  0  0  0  0  0
    0.8440   13.7058   26.1528 C   0  0  0  0  0  0  0  0  0  0  0  0
    0.1942   13.7937   24.7540 C   0  0  0  0  0  0  0  0  0  0  0  0
    1.4182   14.6273   24.3181 C   0  0  0  0  0  0  0  0  0  0  0  0
    3.4693   16.6732   25.8030 C   0  0  0  0  0  0  0  0  0  0  0  0
    4.5940   17.4106   26.4867 C   0  0  0  0  0  0  0  0  0  0  0  0
    3.2067   17.9897   26.4914 C   0  0  0  0  0  0  0  0  0  0  0  0
    5.2647   10.8936   26.4692 C   0  0  0  0  0  0  0  0  0  0  0  0
    6.2168   10.1329   25.8151 C   0  0  0  0  0  0  0  0  0  0  0  0
    7.1233   10.7291   24.9681 C   0  0  0  0  0  0  0  0  0  0  0  0
    8.0712    9.9517   24.3155 N   0  0  0  0  0  0  0  0  0  0  0  0
  1  2  2  0
  2  3  1  0
  3  4  1  0
  4  5  1  0
  5  6  2  0
  6  7  1  0
  7  8  1  0
  8  9  2  0
  8 10  1  0
 11 10  1  6
 11 12  1  0
 12 13  1  0
 13 14  1  0
 14 15  1  0
 11 16  1  0
 16 17  1  0
 17 18  1  0
  7 19  2  0
 19 20  1  0
 20 21  2  0
 21 22  1  0
 22  2  1  0
 21  5  1  0
 15 12  1  0
 18 16  1  0
M  END
>  <energy_score>  (1784) 
-18.5135

>  <inchikey>  (1784) 
None

>  <smiles>  (1784) 
None

>  <ref_pdb>  (1784) 
A3618a

>  <alias>  (1784) 
None

>  <HIPPO Pose ID>  (1784) 
499428

>  <name>  (1784) 
P499428

>  <HIPPO Compound ID>  (1784) 
302443

>  <ref_mols>  (1784) 
A0310a,A3618a

>  <distance_score>  (1784) 
1.937456

>  <inspiration_score>  (1784) 
None

$$$$
P499429
     RDKit          3D

 23 27  0  0  0  0  0  0  0  0999 V2000
    9.6229    9.4752   22.9817 O   0  0  0  0  0  0  0  0  0  0  0  0
    8.9376   10.2596   23.6298 C   0  0  0  0  0  0  0  0  0  0  0  0
    9.1336   11.7814   23.6048 C   0  0  0  0  0  0  0  0  0  0  0  0
    8.4714   12.6131   24.5472 O   0  0  0  0  0  0  0  0  0  0  0  0
    7.3361   12.0744   25.0855 C   0  0  0  0  0  0  0  0  0  0  0  0
    6.5062   12.9546   25.7777 C   0  0  0  0  0  0  0  0  0  0  0  0
    5.4204   12.4364   26.4544 C   0  0  0  0  0  0  0  0  0  0  0  0
    4.5968   13.2979   27.3544 C   0  0  0  0  0  0  0  0  0  0  0  0
    4.5692   13.0642   28.5094 O   0  0  0  0  0  0  0  0  0  0  0  0
    3.8780   14.3592   26.5544 N   0  0  0  0  0  0  0  0  0  0  0  0
    2.9802   15.5122   27.0068 C   0  0  0  0  0  0  0  0  0  0  0  0
    1.8049   14.6267   27.0685 C   0  0  0  0  0  0  0  0  0  0  0  0
    0.4223   15.2046   26.9308 C   0  0  0  0  0  0  0  0  0  0  0  0
    0.2818   15.0250   28.4626 C   0  0  0  0  0  0  0  0  0  0  0  0
    1.4367   13.9958   28.3957 C   0  0  0  0  0  0  0  0  0  0  0  0
    2.4563   13.8330   26.0246 C   0  0  1  0  0  0  0  0  0  0  0  0
    2.3998   14.0669   24.5314 C   0  0  0  0  0  0  0  0  0  0  0  0
    1.1456   13.9324   23.7067 C   0  0  0  0  0  0  0  0  0  0  0  0
    1.8320   15.2616   23.8258 C   0  0  0  0  0  0  0  0  0  0  0  0
    5.1049   11.1254   26.4396 N   0  0  0  0  0  0  0  0  0  0  0  0
    5.9183   10.3053   25.7363 C   0  0  0  0  0  0  0  0  0  0  0  0
    7.0479   10.7216   25.0558 C   0  0  0  0  0  0  0  0  0  0  0  0
    7.8801    9.8287   24.3822 N   0  0  0  0  0  0  0  0  0  0  0  0
  1  2  2  0
  2  3  1  0
  3  4  1  0
  4  5  1  0
  5  6  2  0
  6  7  1  0
  7  8  1  0
  8  9  2  0
  8 10  1  0
 10 11  1  0
 11 12  1  0
 12 13  1  0
 13 14  1  0
 14 15  1  0
 12 16  1  0
 16 17  1  6
 17 18  1  0
 18 19  1  0
  7 20  2  0
 20 21  1  0
 21 22  2  0
 22 23  1  0
 23  2  1  0
 22  5  1  0
 16 10  1  0
 19 17  1  0
 15 12  1  0
M  END
>  <energy_score>  (1785) 
-18.325349

>  <inchikey>  (1785) 
None

>  <smiles>  (1785) 
None

>  <ref_pdb>  (1785) 
A3618a

>  <alias>  (1785) 
None

>  <HIPPO Pose ID>  (1785) 
499429

>  <name>  (1785) 
P499429

>  <HIPPO Compound ID>  (1785) 
302461

>  <ref_mols>  (1785) 
A0310a,A3618a

>  <distance_score>  (1785) 
1.988064

>  <inspiration_score>  (1785) 
None

$$$$
P499430
     RDKit          3D

 23 25  0  0  0  0  0  0  0  0999 V2000
    9.6558    9.3214   22.9848 O   0  0  0  0  0  0  0  0  0  0  0  0
    8.9915   10.1254   23.6300 C   0  0  0  0  0  0  0  0  0  0  0  0
    9.2131   11.6424   23.5851 C   0  0  0  0  0  0  0  0  0  0  0  0
    8.5370   12.4985   24.4945 O   0  0  0  0  0  0  0  0  0  0  0  0
    7.3773   11.9889   24.9995 C   0  0  0  0  0  0  0  0  0  0  0  0
    6.4967   12.9068   25.5617 C   0  0  0  0  0  0  0  0  0  0  0  0
    5.3346   12.4336   26.1323 C   0  0  0  0  0  0  0  0  0  0  0  0
    4.2965   13.3729   26.6891 C   0  0  0  0  0  0  0  0  0  0  0  0
    4.4655   14.5238   26.6743 O   0  0  0  0  0  0  0  0  0  0  0  0
    3.0812   12.5511   27.1421 N   0  0  0  0  0  0  0  0  0  0  0  0
    1.8425   12.9687   27.7662 C   0  0  2  0  0  0  0  0  0  0  0  0
    1.3121   11.7797   28.5332 C   0  0  0  0  0  0  0  0  0  0  0  0
    1.9399   11.3811   29.8469 C   0  0  0  0  0  0  0  0  0  0  0  0
    0.5534   11.9615   29.8241 C   0  0  0  0  0  0  0  0  0  0  0  0
    0.7913   13.5097   26.7645 C   0  0  0  0  0  0  0  0  0  0  0  0
   -0.3782   13.7512   27.4244 F   0  0  0  0  0  0  0  0  0  0  0  0
    0.4895   12.5489   25.8337 F   0  0  0  0  0  0  0  0  0  0  0  0
    1.2197   14.7805   26.0250 C   0  0  0  0  0  0  0  0  0  0  0  0
    0.1756   15.2807   25.1739 O   0  0  0  0  0  0  0  0  0  0  0  0
    5.0349   11.1154   26.2078 N   0  0  0  0  0  0  0  0  0  0  0  0
    5.9188   10.2554   25.6512 C   0  0  0  0  0  0  0  0  0  0  0  0
    7.0866   10.6379   25.0179 C   0  0  0  0  0  0  0  0  0  0  0  0
    7.9313    9.7210   24.3956 N   0  0  0  0  0  0  0  0  0  0  0  0
  1  2  2  0
  2  3  1  0
  3  4  1  0
  4  5  1  0
  5  6  2  0
  6  7  1  0
  7  8  1  0
  8  9  2  0
  8 10  1  0
 11 10  1  6
 11 12  1  0
 12 13  1  0
 13 14  1  0
 11 15  1  0
 15 16  1  0
 15 17  1  0
 15 18  1  0
 18 19  1  0
  7 20  2  0
 20 21  1  0
 21 22  2  0
 22 23  1  0
 23  2  1  0
 22  5  1  0
 14 12  1  0
M  END
>  <energy_score>  (1786) 
-30.558455

>  <inchikey>  (1786) 
None

>  <smiles>  (1786) 
None

>  <ref_pdb>  (1786) 
A3618a

>  <alias>  (1786) 
None

>  <HIPPO Pose ID>  (1786) 
499430

>  <name>  (1786) 
P499430

>  <HIPPO Compound ID>  (1786) 
302462

>  <ref_mols>  (1786) 
A0310a,A3618a

>  <distance_score>  (1786) 
1.925137

>  <inspiration_score>  (1786) 
None

$$$$
P499431
     RDKit          3D

 23 24  0  0  0  0  0  0  0  0999 V2000
   12.4233   15.7031   21.4578 C   0  0  0  0  0  0  0  0  0  0  0  0
   11.9142   14.5278   21.8261 C   0  0  0  0  0  0  0  0  0  0  0  0
   11.0735   14.5079   23.0330 C   0  0  0  0  0  0  0  0  0  0  0  0
   10.9967   15.4169   23.7587 O   0  0  0  0  0  0  0  0  0  0  0  0
   10.3160   13.1632   23.0304 N   0  0  0  0  0  0  0  0  0  0  0  0
    9.2850   12.7155   23.8278 C   0  0  0  0  0  0  0  0  0  0  0  0
    8.7261   13.6366   24.7024 C   0  0  0  0  0  0  0  0  0  0  0  0
    7.4760   13.4127   25.2236 C   0  0  0  0  0  0  0  0  0  0  0  0
    6.8325   12.2465   24.8627 C   0  0  0  0  0  0  0  0  0  0  0  0
    5.3807   12.0917   25.2009 C   0  0  0  0  0  0  0  0  0  0  0  0
    4.9921   11.0130   25.4297 O   0  0  0  0  0  0  0  0  0  0  0  0
    4.6341   13.4615   25.2278 N   0  0  0  0  0  0  0  0  0  0  0  0
    3.2846   13.7874   25.6338 C   0  0  0  0  0  0  0  0  0  0  0  0
    3.1017   14.0423   27.1444 C   0  0  0  0  0  0  0  0  0  0  0  0
    2.4323   12.9670   27.8828 N   0  0  0  0  0  0  0  0  0  0  0  0
    2.0174   13.4328   29.2059 C   0  0  0  0  0  0  0  0  0  0  0  0
    3.1773   11.6956   27.8959 C   0  0  2  0  0  0  0  0  0  0  0  0
    2.2583   10.5338   28.2773 C   0  0  0  0  0  0  0  0  0  0  0  0
    4.3677   11.6800   28.8115 C   0  0  0  0  0  0  0  0  0  0  0  0
    5.5007   10.7405   28.5000 C   0  0  0  0  0  0  0  0  0  0  0  0
    5.7281   12.2299   28.4826 C   0  0  0  0  0  0  0  0  0  0  0  0
    7.4444   11.2355   24.1820 N   0  0  0  0  0  0  0  0  0  0  0  0
    8.6658   11.4905   23.6672 C   0  0  0  0  0  0  0  0  0  0  0  0
  1  2  2  0
  2  3  1  0
  3  4  2  0
  3  5  1  0
  5  6  1  0
  6  7  2  0
  7  8  1  0
  8  9  2  0
  9 10  1  0
 10 11  2  0
 10 12  1  0
 12 13  1  0
 13 14  1  0
 14 15  1  0
 15 16  1  0
 15 17  1  0
 17 18  1  1
 17 19  1  0
 19 20  1  0
 20 21  1  0
  9 22  1  0
 22 23  2  0
 23  6  1  0
 21 19  1  0
M  END
>  <energy_score>  (1787) 
-14.600396

>  <inchikey>  (1787) 
None

>  <smiles>  (1787) 
None

>  <ref_pdb>  (1787) 
A3618a

>  <alias>  (1787) 
None

>  <HIPPO Pose ID>  (1787) 
499431

>  <name>  (1787) 
P499431

>  <HIPPO Compound ID>  (1787) 
302483

>  <ref_mols>  (1787) 
A0310a,A3618a

>  <distance_score>  (1787) 
1.979554

>  <inspiration_score>  (1787) 
None

$$$$
P499432
     RDKit          3D

 23 25  0  0  0  0  0  0  0  0999 V2000
    0.0700   15.2092   27.9896 C   0  0  0  0  0  0  0  0  0  0  0  0
    0.9248   14.3739   27.0052 C   0  0  0  0  0  0  0  0  0  0  0  0
    1.7452   15.3747   26.1588 C   0  0  0  0  0  0  0  0  0  0  0  0
   -0.0634   13.6118   26.0950 C   0  0  0  0  0  0  0  0  0  0  0  0
    0.5809   12.7886   25.1314 O   0  0  0  0  0  0  0  0  0  0  0  0
    1.8906   13.4606   27.8283 C   0  0  2  0  0  0  0  0  0  0  0  0
    3.0228   12.9592   27.0844 N   0  0  0  0  0  0  0  0  0  0  0  0
    4.5355   13.2497   27.2390 C   0  0  0  0  0  0  0  0  0  0  0  0
    5.0942   13.9971   27.9401 O   0  0  0  0  0  0  0  0  0  0  0  0
    5.3612   12.3174   26.3907 C   0  0  0  0  0  0  0  0  0  0  0  0
    5.0559   10.9703   26.3640 C   0  0  0  0  0  0  0  0  0  0  0  0
    5.9071   10.1133   25.6742 C   0  0  0  0  0  0  0  0  0  0  0  0
    7.0326   10.6059   25.0408 C   0  0  0  0  0  0  0  0  0  0  0  0
    7.2642   11.9659   25.1206 C   0  0  0  0  0  0  0  0  0  0  0  0
    6.4617   12.8217   25.7883 N   0  0  0  0  0  0  0  0  0  0  0  0
    8.3947   12.5410   24.6137 O   0  0  0  0  0  0  0  0  0  0  0  0
    9.0626   11.7732   23.6261 C   0  0  0  0  0  0  0  0  0  0  0  0
    8.9426   10.2444   23.6228 C   0  0  0  0  0  0  0  0  0  0  0  0
    9.6575    9.5014   22.9606 O   0  0  0  0  0  0  0  0  0  0  0  0
    7.9011    9.7552   24.3612 N   0  0  0  0  0  0  0  0  0  0  0  0
    1.2270   12.2612   28.4645 C   0  0  0  0  0  0  0  0  0  0  0  0
    1.8854   11.5794   29.6417 C   0  0  0  0  0  0  0  0  0  0  0  0
    0.6033   12.3366   29.8362 C   0  0  0  0  0  0  0  0  0  0  0  0
  1  2  1  0
  2  3  1  0
  2  4  1  0
  4  5  1  0
  2  6  1  0
  6  7  1  6
  7  8  1  0
  8  9  2  0
  8 10  1  0
 10 11  2  0
 11 12  1  0
 12 13  2  0
 13 14  1  0
 14 15  2  0
 14 16  1  0
 16 17  1  0
 17 18  1  0
 18 19  2  0
 18 20  1  0
  6 21  1  0
 21 22  1  0
 22 23  1  0
 15 10  1  0
 23 21  1  0
 20 13  1  0
M  END
>  <energy_score>  (1788) 
-12.78264

>  <inchikey>  (1788) 
None

>  <smiles>  (1788) 
None

>  <ref_pdb>  (1788) 
A3618a

>  <alias>  (1788) 
None

>  <HIPPO Pose ID>  (1788) 
499432

>  <name>  (1788) 
P499432

>  <HIPPO Compound ID>  (1788) 
302487

>  <ref_mols>  (1788) 
A0310a,A3618a

>  <distance_score>  (1788) 
1.892448

>  <inspiration_score>  (1788) 
None

$$$$
P499433
     RDKit          3D

 23 27  0  0  0  0  0  0  0  0999 V2000
    9.9632    9.8445   22.5576 O   0  0  0  0  0  0  0  0  0  0  0  0
    9.0979   10.1062   23.3795 C   0  0  0  0  0  0  0  0  0  0  0  0
    8.2380    9.0343   23.9713 C   0  0  0  0  0  0  0  0  0  0  0  0
    7.2895    9.3115   24.9808 O   0  0  0  0  0  0  0  0  0  0  0  0
    6.9343   10.6219   25.1044 C   0  0  0  0  0  0  0  0  0  0  0  0
    5.8233   10.8254   25.8347 N   0  0  0  0  0  0  0  0  0  0  0  0
    5.3912   12.1050   26.0004 C   0  0  0  0  0  0  0  0  0  0  0  0
    4.0707   12.2553   26.7461 C   0  0  0  0  0  0  0  0  0  0  0  0
    3.5083   11.2675   27.0614 O   0  0  0  0  0  0  0  0  0  0  0  0
    3.7135   13.7098   26.9943 N   0  0  0  0  0  0  0  0  0  0  0  0
    2.5902   14.3264   27.8020 C   0  0  0  0  0  0  0  0  0  0  0  0
    1.6027   14.0649   26.6896 C   0  0  1  0  0  0  0  0  0  0  0  0
    0.3488   14.8950   26.5385 C   0  0  0  0  0  0  0  0  0  0  0  0
   -0.6802   14.6260   25.4729 C   0  0  0  0  0  0  0  0  0  0  0  0
   -1.0182   14.3898   26.9183 C   0  0  0  0  0  0  0  0  0  0  0  0
    2.8182   14.2954   25.8238 C   0  0  1  0  0  0  0  0  0  0  0  0
    3.2955   15.6444   25.2967 C   0  0  0  0  0  0  0  0  0  0  0  0
    3.0100   17.0041   25.8859 C   0  0  0  0  0  0  0  0  0  0  0  0
    4.4126   16.4802   25.8731 C   0  0  0  0  0  0  0  0  0  0  0  0
    6.1043   13.1885   25.4990 C   0  0  0  0  0  0  0  0  0  0  0  0
    7.2600   12.9581   24.7504 C   0  0  0  0  0  0  0  0  0  0  0  0
    7.6704   11.6520   24.5317 C   0  0  0  0  0  0  0  0  0  0  0  0
    8.7800   11.3854   23.7310 N   0  0  0  0  0  0  0  0  0  0  0  0
  1  2  2  0
  2  3  1  0
  3  4  1  0
  4  5  1  0
  5  6  2  0
  6  7  1  0
  7  8  1  0
  8  9  2  0
  8 10  1  0
 10 11  1  0
 11 12  1  0
 12 13  1  6
 13 14  1  0
 14 15  1  0
 12 16  1  0
 16 17  1  1
 17 18  1  0
 18 19  1  0
  7 20  2  0
 20 21  1  0
 21 22  2  0
 22 23  1  0
 23  2  1  0
 22  5  1  0
 16 10  1  0
 19 17  1  0
 15 13  1  0
M  END
>  <energy_score>  (1789) 
-11.018242

>  <inchikey>  (1789) 
None

>  <smiles>  (1789) 
None

>  <ref_pdb>  (1789) 
A3618a

>  <alias>  (1789) 
None

>  <HIPPO Pose ID>  (1789) 
499433

>  <name>  (1789) 
P499433

>  <HIPPO Compound ID>  (1789) 
302488

>  <ref_mols>  (1789) 
A0310a,A3618a

>  <distance_score>  (1789) 
1.634459

>  <inspiration_score>  (1789) 
None

$$$$
P499434
     RDKit          3D

 23 25  0  0  0  0  0  0  0  0999 V2000
    5.4857    9.2979   25.3166 O   0  0  0  0  0  0  0  0  0  0  0  0
    6.0580   10.2602   25.6248 C   0  0  0  0  0  0  0  0  0  0  0  0
    5.8713   11.1850   26.8380 N   0  0  0  0  0  0  0  0  0  0  0  0
    4.8993   11.1731   27.8553 C   0  0  2  0  0  0  0  0  0  0  0  0
    3.5160   11.7447   27.6025 C   0  0  0  0  0  0  0  0  0  0  0  0
    3.1305   12.0894   26.3378 F   0  0  0  0  0  0  0  0  0  0  0  0
    2.3890   11.3651   28.2715 F   0  0  0  0  0  0  0  0  0  0  0  0
    4.5122   12.5198   28.3031 C   0  0  0  0  0  0  0  0  0  0  0  0
    5.0986   13.8516   28.1052 C   0  0  0  0  0  0  0  0  0  0  0  0
    4.6417   13.3538   29.4872 C   0  0  0  0  0  0  0  0  0  0  0  0
    7.1035   10.8729   24.7623 C   0  0  0  0  0  0  0  0  0  0  0  0
    6.9473   12.2271   24.4716 C   0  0  0  0  0  0  0  0  0  0  0  0
    7.9472   12.8634   23.7779 C   0  0  0  0  0  0  0  0  0  0  0  0
    9.0496   12.1309   23.3700 C   0  0  0  0  0  0  0  0  0  0  0  0
   10.1091   12.8048   22.7944 N   0  0  0  0  0  0  0  0  0  0  0  0
   10.3389   14.3469   22.5720 C   0  0  0  0  0  0  0  0  0  0  0  0
    9.6273   15.2586   22.7755 O   0  0  0  0  0  0  0  0  0  0  0  0
   11.7903   14.4624   22.1066 C   0  0  0  0  0  0  0  0  0  0  0  0
   12.3495   15.6656   22.3648 F   0  0  0  0  0  0  0  0  0  0  0  0
   12.5331   13.5448   22.7970 F   0  0  0  0  0  0  0  0  0  0  0  0
   11.9496   14.1885   20.7928 F   0  0  0  0  0  0  0  0  0  0  0  0
    9.0795   10.7574   23.6194 C   0  0  0  0  0  0  0  0  0  0  0  0
    8.1352   10.1161   24.3415 N   0  0  0  0  0  0  0  0  0  0  0  0
  1  2  2  0
  2  3  1  0
  4  3  1  6
  4  5  1  0
  5  6  1  0
  5  7  1  0
  5  8  1  0
  8  9  1  0
  9 10  1  0
  2 11  1  0
 11 12  2  0
 12 13  1  0
 13 14  2  0
 14 15  1  0
 15 16  1  0
 16 17  2  0
 16 18  1  0
 18 19  1  0
 18 20  1  0
 18 21  1  0
 14 22  1  0
 22 23  2  0
  8  4  1  0
 23 11  1  0
 10  8  1  0
M  END
>  <energy_score>  (1790) 
-18.890556

>  <inchikey>  (1790) 
None

>  <smiles>  (1790) 
None

>  <ref_pdb>  (1790) 
A3618a

>  <alias>  (1790) 
None

>  <HIPPO Pose ID>  (1790) 
499434

>  <name>  (1790) 
P499434

>  <HIPPO Compound ID>  (1790) 
302515

>  <ref_mols>  (1790) 
A0310a,A3618a

>  <distance_score>  (1790) 
1.65856

>  <inspiration_score>  (1790) 
None

$$$$
P499435
     RDKit          3D

 23 25  0  0  0  0  0  0  0  0999 V2000
    9.6918    9.4987   22.9068 O   0  0  0  0  0  0  0  0  0  0  0  0
    8.9893   10.2412   23.5823 C   0  0  0  0  0  0  0  0  0  0  0  0
    9.1228   11.7694   23.6041 C   0  0  0  0  0  0  0  0  0  0  0  0
    8.4650   12.5329   24.6020 O   0  0  0  0  0  0  0  0  0  0  0  0
    7.3402   11.9566   25.1187 C   0  0  0  0  0  0  0  0  0  0  0  0
    6.5536   12.8087   25.8098 N   0  0  0  0  0  0  0  0  0  0  0  0
    5.4690   12.2955   26.4267 C   0  0  0  0  0  0  0  0  0  0  0  0
    4.6115   13.2239   27.2406 C   0  0  0  0  0  0  0  0  0  0  0  0
    5.1125   13.9067   28.0413 O   0  0  0  0  0  0  0  0  0  0  0  0
    3.1209   13.0091   26.9000 N   0  0  0  0  0  0  0  0  0  0  0  0
    1.9226   13.5223   27.5424 C   0  0  2  0  0  0  0  0  0  0  0  0
    1.2210   12.3362   28.1659 C   0  0  0  0  0  0  0  0  0  0  0  0
    0.4300   12.4851   29.4414 C   0  0  0  0  0  0  0  0  0  0  0  0
    1.7395   11.7472   29.4563 C   0  0  0  0  0  0  0  0  0  0  0  0
    1.0085   14.3668   26.6243 C   0  0  0  0  0  0  0  0  0  0  0  0
   -0.1683   14.6303   27.2693 F   0  0  0  0  0  0  0  0  0  0  0  0
    1.5863   15.5836   26.4128 F   0  0  0  0  0  0  0  0  0  0  0  0
    0.6584   13.7678   25.2577 C   0  0  0  0  0  0  0  0  0  0  0  0
   -0.1451   12.5788   25.3321 O   0  0  0  0  0  0  0  0  0  0  0  0
    5.1555   10.9502   26.3917 C   0  0  0  0  0  0  0  0  0  0  0  0
    5.9842   10.1009   25.6708 C   0  0  0  0  0  0  0  0  0  0  0  0
    7.0990   10.5985   25.0242 C   0  0  0  0  0  0  0  0  0  0  0  0
    7.9498    9.7512   24.3210 N   0  0  0  0  0  0  0  0  0  0  0  0
  1  2  2  0
  2  3  1  0
  3  4  1  0
  4  5  1  0
  5  6  2  0
  6  7  1  0
  7  8  1  0
  8  9  2  0
  8 10  1  0
 11 10  1  6
 11 12  1  0
 12 13  1  0
 13 14  1  0
 11 15  1  0
 15 16  1  0
 15 17  1  0
 15 18  1  0
 18 19  1  0
  7 20  2  0
 20 21  1  0
 21 22  2  0
 22 23  1  0
 23  2  1  0
 22  5  1  0
 14 12  1  0
M  END
>  <energy_score>  (1791) 
-0.308536

>  <inchikey>  (1791) 
None

>  <smiles>  (1791) 
None

>  <ref_pdb>  (1791) 
A3618a

>  <alias>  (1791) 
None

>  <HIPPO Pose ID>  (1791) 
499435

>  <name>  (1791) 
P499435

>  <HIPPO Compound ID>  (1791) 
302543

>  <ref_mols>  (1791) 
A0310a,A3618a

>  <distance_score>  (1791) 
1.891879

>  <inspiration_score>  (1791) 
None

$$$$
P499436
     RDKit          3D

 23 26  0  0  0  0  0  0  0  0999 V2000
    0.1768   12.9735   25.9861 N   0  0  0  0  0  0  0  0  0  0  0  0
    1.0223   13.7329   25.7264 C   0  0  0  0  0  0  0  0  0  0  0  0
    2.1378   14.6200   25.2895 C   0  0  0  0  0  0  0  0  0  0  0  0
    3.3794   13.8840   25.3310 N   0  0  0  0  0  0  0  0  0  0  0  0
    4.0786   13.1758   26.4965 C   0  0  0  0  0  0  0  0  0  0  0  0
    3.8071   13.1357   27.6273 O   0  0  0  0  0  0  0  0  0  0  0  0
    5.2220   12.3550   26.0040 C   0  0  0  0  0  0  0  0  0  0  0  0
    5.2937   11.0539   26.4596 C   0  0  0  0  0  0  0  0  0  0  0  0
    6.2452   10.2199   25.8975 C   0  0  0  0  0  0  0  0  0  0  0  0
    7.1361   10.7127   24.9694 C   0  0  0  0  0  0  0  0  0  0  0  0
    7.0058   12.0417   24.5887 C   0  0  0  0  0  0  0  0  0  0  0  0
    6.0388   12.8647   25.0532 N   0  0  0  0  0  0  0  0  0  0  0  0
    7.8008   12.5772   23.6036 O   0  0  0  0  0  0  0  0  0  0  0  0
    9.0570   11.9099   23.4851 C   0  0  0  0  0  0  0  0  0  0  0  0
    9.0198   10.3771   23.5236 C   0  0  0  0  0  0  0  0  0  0  0  0
    9.7702    9.6386   22.9012 O   0  0  0  0  0  0  0  0  0  0  0  0
    8.0817    9.8765   24.3832 N   0  0  0  0  0  0  0  0  0  0  0  0
    1.8738   15.0607   23.8602 C   0  0  0  0  0  0  0  0  0  0  0  0
    0.4985   15.1599   23.2233 C   0  0  0  0  0  0  0  0  0  0  0  0
    1.4709   14.1158   22.7466 C   0  0  0  0  0  0  0  0  0  0  0  0
    2.2253   15.8182   26.2103 C   0  0  0  0  0  0  0  0  0  0  0  0
    1.0157   16.5805   26.7124 C   0  0  0  0  0  0  0  0  0  0  0  0
    1.8695   15.8075   27.6829 C   0  0  0  0  0  0  0  0  0  0  0  0
  1  2  3  0
  2  3  1  0
  3  4  1  0
  4  5  1  0
  5  6  2  0
  5  7  1  0
  7  8  2  0
  8  9  1  0
  9 10  2  0
 10 11  1  0
 11 12  2  0
 11 13  1  0
 13 14  1  0
 14 15  1  0
 15 16  2  0
 15 17  1  0
  3 18  1  0
 18 19  1  0
 19 20  1  0
  3 21  1  0
 21 22  1  0
 22 23  1  0
 12  7  1  0
 20 18  1  0
 23 21  1  0
 17 10  1  0
M  END
>  <energy_score>  (1792) 
-25.102245

>  <inchikey>  (1792) 
None

>  <smiles>  (1792) 
None

>  <ref_pdb>  (1792) 
A3618a

>  <alias>  (1792) 
None

>  <HIPPO Pose ID>  (1792) 
499436

>  <name>  (1792) 
P499436

>  <HIPPO Compound ID>  (1792) 
302555

>  <ref_mols>  (1792) 
A0310a,A3618a

>  <distance_score>  (1792) 
1.936584

>  <inspiration_score>  (1792) 
None

$$$$
P499437
     RDKit          3D

 24 26  0  0  0  0  0  0  0  0999 V2000
    2.2248   13.0378   26.8608 C   0  0  0  0  0  0  0  0  0  0  0  0
    2.4850   12.0293   27.8828 N   0  0  0  0  0  0  0  0  0  0  0  0
    3.3358   10.9199   27.3722 C   0  0  0  0  0  0  0  0  0  0  0  0
    4.7717   11.1341   27.8964 C   0  0  1  0  0  0  0  0  0  0  0  0
    5.7715   11.1858   26.8792 N   0  0  0  0  0  0  0  0  0  0  0  0
    5.9969   10.2874   25.6570 C   0  0  0  0  0  0  0  0  0  0  0  0
    5.4520    9.3174   25.3252 O   0  0  0  0  0  0  0  0  0  0  0  0
    7.0398   10.9226   24.8019 C   0  0  0  0  0  0  0  0  0  0  0  0
    6.9053   12.2806   24.5307 C   0  0  0  0  0  0  0  0  0  0  0  0
    7.9128   12.9068   23.8337 C   0  0  0  0  0  0  0  0  0  0  0  0
    9.0032   12.1629   23.4100 C   0  0  0  0  0  0  0  0  0  0  0  0
   10.0702   12.8210   22.8279 N   0  0  0  0  0  0  0  0  0  0  0  0
   10.3226   14.3589   22.6048 C   0  0  0  0  0  0  0  0  0  0  0  0
    9.6265   15.2814   22.8131 O   0  0  0  0  0  0  0  0  0  0  0  0
   11.7743   14.4546   22.1300 C   0  0  0  0  0  0  0  0  0  0  0  0
   12.3508   15.6499   22.3875 F   0  0  0  0  0  0  0  0  0  0  0  0
   12.5125   13.5251   22.8094 F   0  0  0  0  0  0  0  0  0  0  0  0
   11.9198   14.1849   20.8135 F   0  0  0  0  0  0  0  0  0  0  0  0
    9.0163   10.7890   23.6504 C   0  0  0  0  0  0  0  0  0  0  0  0
    8.0628   10.1569   24.3673 N   0  0  0  0  0  0  0  0  0  0  0  0
    4.6662   12.4666   28.5898 C   0  0  0  0  0  0  0  0  0  0  0  0
    5.4354   13.7257   28.1941 C   0  0  0  0  0  0  0  0  0  0  0  0
    5.7740   13.0008   29.4702 C   0  0  0  0  0  0  0  0  0  0  0  0
    3.2305   12.6111   29.0020 C   0  0  0  0  0  0  0  0  0  0  0  0
  1  2  1  0
  2  3  1  0
  3  4  1  0
  4  5  1  6
  5  6  1  0
  6  7  2  0
  6  8  1  0
  8  9  2  0
  9 10  1  0
 10 11  2  0
 11 12  1  0
 12 13  1  0
 13 14  2  0
 13 15  1  0
 15 16  1  0
 15 17  1  0
 15 18  1  0
 11 19  1  0
 19 20  2  0
  4 21  1  0
 21 22  1  0
 22 23  1  0
 21 24  1  0
 24  2  1  0
 20  8  1  0
 23 21  1  0
M  END
>  <energy_score>  (1793) 
-4.198798

>  <inchikey>  (1793) 
None

>  <smiles>  (1793) 
None

>  <ref_pdb>  (1793) 
A3618a

>  <alias>  (1793) 
None

>  <HIPPO Pose ID>  (1793) 
499437

>  <name>  (1793) 
P499437

>  <HIPPO Compound ID>  (1793) 
302583

>  <ref_mols>  (1793) 
A0310a,A3618a

>  <distance_score>  (1793) 
1.925334

>  <inspiration_score>  (1793) 
None

$$$$
P499438
     RDKit          3D

 24 26  0  0  0  0  0  0  0  0999 V2000
   12.2921   15.7529   21.6399 C   0  0  0  0  0  0  0  0  0  0  0  0
   11.6266   14.5996   21.5372 C   0  0  0  0  0  0  0  0  0  0  0  0
   10.3636   14.4720   22.2953 C   0  0  0  0  0  0  0  0  0  0  0  0
    9.7263   15.4018   22.5949 O   0  0  0  0  0  0  0  0  0  0  0  0
   10.1783   12.9750   22.6421 N   0  0  0  0  0  0  0  0  0  0  0  0
    9.1585   12.3288   23.3227 C   0  0  0  0  0  0  0  0  0  0  0  0
    8.1164   13.1040   23.8159 C   0  0  0  0  0  0  0  0  0  0  0  0
    7.0933   12.5145   24.5209 C   0  0  0  0  0  0  0  0  0  0  0  0
    7.1754   11.1519   24.7652 C   0  0  0  0  0  0  0  0  0  0  0  0
    6.1267   10.5215   25.6219 C   0  0  0  0  0  0  0  0  0  0  0  0
    5.6699    9.4908   25.3308 O   0  0  0  0  0  0  0  0  0  0  0  0
    5.7931   11.4685   26.7961 N   0  0  0  0  0  0  0  0  0  0  0  0
    4.7799   11.3882   27.7842 C   0  0  0  0  0  0  0  0  0  0  0  0
    3.3658   11.5316   27.2602 C   0  0  2  0  0  0  0  0  0  0  0  0
    3.2820   12.6251   26.3187 N   0  0  0  0  0  0  0  0  0  0  0  0
    2.2253   13.4599   26.5821 C   0  0  0  0  0  0  0  0  0  0  0  0
    1.8111   14.3279   25.8372 O   0  0  0  0  0  0  0  0  0  0  0  0
    1.7037   13.1221   27.7778 N   0  0  0  0  0  0  0  0  0  0  0  0
    2.2724   11.9740   28.2330 C   0  0  0  0  0  0  0  0  0  0  0  0
    1.9101   11.3974   29.2484 O   0  0  0  0  0  0  0  0  0  0  0  0
    4.9997   10.4334   28.9239 C   0  0  0  0  0  0  0  0  0  0  0  0
    5.1588   11.9135   29.1468 C   0  0  0  0  0  0  0  0  0  0  0  0
    8.1574   10.3554   24.2810 N   0  0  0  0  0  0  0  0  0  0  0  0
    9.1199   10.9565   23.5428 C   0  0  0  0  0  0  0  0  0  0  0  0
  1  2  2  0
  2  3  1  0
  3  4  2  0
  3  5  1  0
  5  6  1  0
  6  7  2  0
  7  8  1  0
  8  9  2  0
  9 10  1  0
 10 11  2  0
 10 12  1  0
 12 13  1  0
 14 13  1  1
 14 15  1  0
 15 16  1  0
 16 17  2  0
 16 18  1  0
 18 19  1  0
 19 20  2  0
 13 21  1  0
 21 22  1  0
  9 23  1  0
 23 24  2  0
 24  6  1  0
 22 13  1  0
 19 14  1  0
M  END
>  <energy_score>  (1794) 
-21.908919

>  <inchikey>  (1794) 
None

>  <smiles>  (1794) 
None

>  <ref_pdb>  (1794) 
A3618a

>  <alias>  (1794) 
None

>  <HIPPO Pose ID>  (1794) 
499438

>  <name>  (1794) 
P499438

>  <HIPPO Compound ID>  (1794) 
302617

>  <ref_mols>  (1794) 
A0310a,A3618a

>  <distance_score>  (1794) 
1.773597

>  <inspiration_score>  (1794) 
None

$$$$
P499439
     RDKit          3D

 24 25  0  0  0  0  0  0  0  0999 V2000
    3.3692   14.2217   26.1843 C   0  0  0  0  0  0  0  0  0  0  0  0
    2.6089   13.1801   26.8660 N   0  0  0  0  0  0  0  0  0  0  0  0
    1.5685   13.7904   27.6926 C   0  0  0  0  0  0  0  0  0  0  0  0
    3.4089   12.2064   27.6494 C   0  0  1  0  0  0  0  0  0  0  0  0
    3.7785   10.9734   26.8136 C   0  0  0  0  0  0  0  0  0  0  0  0
    4.7878   11.1875   25.8198 N   0  0  0  0  0  0  0  0  0  0  0  0
    6.1935   10.6111   25.6956 C   0  0  0  0  0  0  0  0  0  0  0  0
    6.7361    9.8117   26.3338 O   0  0  0  0  0  0  0  0  0  0  0  0
    7.0419   11.2452   24.6491 C   0  0  0  0  0  0  0  0  0  0  0  0
    6.9339   12.5990   24.3742 C   0  0  0  0  0  0  0  0  0  0  0  0
    7.9477   13.1979   23.6548 C   0  0  0  0  0  0  0  0  0  0  0  0
    9.0333   12.4392   23.2465 C   0  0  0  0  0  0  0  0  0  0  0  0
   10.1169   13.0572   22.6637 N   0  0  0  0  0  0  0  0  0  0  0  0
   10.3389   14.5603   22.2619 C   0  0  0  0  0  0  0  0  0  0  0  0
    9.6023   15.4730   22.2982 O   0  0  0  0  0  0  0  0  0  0  0  0
   11.8200   14.6290   21.8870 C   0  0  0  0  0  0  0  0  0  0  0  0
   12.3975   15.8176   22.1682 F   0  0  0  0  0  0  0  0  0  0  0  0
   12.0418   14.3331   20.5864 F   0  0  0  0  0  0  0  0  0  0  0  0
   12.4993   13.6970   22.6230 F   0  0  0  0  0  0  0  0  0  0  0  0
    9.0380   11.0762   23.5025 C   0  0  0  0  0  0  0  0  0  0  0  0
    8.0640   10.4716   24.1969 N   0  0  0  0  0  0  0  0  0  0  0  0
    4.5045   12.8264   28.4741 C   0  0  0  0  0  0  0  0  0  0  0  0
    5.8795   13.2130   27.9863 C   0  0  0  0  0  0  0  0  0  0  0  0
    5.7114   12.0311   28.9008 C   0  0  0  0  0  0  0  0  0  0  0  0
  1  2  1  0
  2  3  1  0
  2  4  1  0
  4  5  1  6
  5  6  1  0
  6  7  1  0
  7  8  2  0
  7  9  1  0
  9 10  2  0
 10 11  1  0
 11 12  2  0
 12 13  1  0
 13 14  1  0
 14 15  2  0
 14 16  1  0
 16 17  1  0
 16 18  1  0
 16 19  1  0
 12 20  1  0
 20 21  2  0
  4 22  1  0
 22 23  1  0
 23 24  1  0
 21  9  1  0
 24 22  1  0
M  END
>  <energy_score>  (1795) 
-3.580284

>  <inchikey>  (1795) 
None

>  <smiles>  (1795) 
None

>  <ref_pdb>  (1795) 
A3618a

>  <alias>  (1795) 
None

>  <HIPPO Pose ID>  (1795) 
499439

>  <name>  (1795) 
P499439

>  <HIPPO Compound ID>  (1795) 
302652

>  <ref_mols>  (1795) 
A0310a,A3618a

>  <distance_score>  (1795) 
1.730338

>  <inspiration_score>  (1795) 
None

$$$$
P499440
     RDKit          3D

 24 27  0  0  0  0  0  0  0  0999 V2000
    9.9068   10.1615   22.6394 O   0  0  0  0  0  0  0  0  0  0  0  0
    9.0042   10.2955   23.4517 C   0  0  0  0  0  0  0  0  0  0  0  0
    8.2430    9.1196   23.9791 C   0  0  0  0  0  0  0  0  0  0  0  0
    7.2802    9.2904   25.0044 O   0  0  0  0  0  0  0  0  0  0  0  0
    6.8235   10.5553   25.2016 C   0  0  0  0  0  0  0  0  0  0  0  0
    5.6886   10.6940   25.9916 C   0  0  0  0  0  0  0  0  0  0  0  0
    5.2100   11.9770   26.2044 C   0  0  0  0  0  0  0  0  0  0  0  0
    3.9496   12.1959   27.0073 C   0  0  0  0  0  0  0  0  0  0  0  0
    3.4243   11.3011   27.5343 O   0  0  0  0  0  0  0  0  0  0  0  0
    3.5591   13.6802   26.9391 N   0  0  0  0  0  0  0  0  0  0  0  0
    2.4868   14.3986   27.5861 C   0  0  2  0  0  0  0  0  0  0  0  0
    1.3205   14.4145   26.6264 C   0  0  0  0  0  0  0  0  0  0  0  0
    0.5264   13.1574   26.3661 C   0  0  0  0  0  0  0  0  0  0  0  0
   -0.0997   14.2904   27.1255 C   0  0  0  0  0  0  0  0  0  0  0  0
    2.9302   15.8217   27.9845 C   0  0  2  0  0  0  0  0  0  0  0  0
    4.1629   15.8283   28.8992 C   0  0  0  0  0  0  0  0  0  0  0  0
    4.5924   17.2591   29.2299 C   0  0  0  0  0  0  0  0  0  0  0  0
    3.4465   18.2550   29.0992 C   0  0  0  0  0  0  0  0  0  0  0  0
    2.2334   17.6536   29.5300 O   0  0  0  0  0  0  0  0  0  0  0  0
    1.7901   16.5994   28.6695 C   0  0  0  0  0  0  0  0  0  0  0  0
    5.8127   13.1035   25.7147 N   0  0  0  0  0  0  0  0  0  0  0  0
    6.9147   12.9181   24.9523 C   0  0  0  0  0  0  0  0  0  0  0  0
    7.4487   11.6729   24.6645 C   0  0  0  0  0  0  0  0  0  0  0  0
    8.5695   11.5264   23.8495 N   0  0  0  0  0  0  0  0  0  0  0  0
  1  2  2  0
  2  3  1  0
  3  4  1  0
  4  5  1  0
  5  6  2  0
  6  7  1  0
  7  8  1  0
  8  9  2  0
  8 10  1  0
 11 10  1  6
 11 12  1  0
 12 13  1  0
 13 14  1  0
 11 15  1  0
 15 16  1  1
 16 17  1  0
 17 18  1  0
 18 19  1  0
 19 20  1  0
  7 21  2  0
 21 22  1  0
 22 23  2  0
 23 24  1  0
 24  2  1  0
 23  5  1  0
 14 12  1  0
 20 15  1  0
M  END
>  <energy_score>  (1796) 
-42.246327

>  <inchikey>  (1796) 
None

>  <smiles>  (1796) 
None

>  <ref_pdb>  (1796) 
A3618a

>  <alias>  (1796) 
None

>  <HIPPO Pose ID>  (1796) 
499440

>  <name>  (1796) 
P499440

>  <HIPPO Compound ID>  (1796) 
302665

>  <ref_mols>  (1796) 
A0310a,A3618a

>  <distance_score>  (1796) 
1.883448

>  <inspiration_score>  (1796) 
None

$$$$
P499441
     RDKit          3D

 24 27  0  0  0  0  0  0  0  0999 V2000
    9.6898    9.3704   22.9549 O   0  0  0  0  0  0  0  0  0  0  0  0
    9.0238   10.1712   23.6021 C   0  0  0  0  0  0  0  0  0  0  0  0
    9.2519   11.6889   23.5731 C   0  0  0  0  0  0  0  0  0  0  0  0
    8.5817   12.5400   24.4915 O   0  0  0  0  0  0  0  0  0  0  0  0
    7.4204   12.0258   24.9942 C   0  0  0  0  0  0  0  0  0  0  0  0
    6.5516   12.9351   25.5873 C   0  0  0  0  0  0  0  0  0  0  0  0
    5.3949   12.4566   26.1669 C   0  0  0  0  0  0  0  0  0  0  0  0
    4.4105   13.3873   26.8215 C   0  0  0  0  0  0  0  0  0  0  0  0
    4.6639   14.5143   26.9691 O   0  0  0  0  0  0  0  0  0  0  0  0
    3.1597   12.5862   27.2199 N   0  0  0  0  0  0  0  0  0  0  0  0
    1.9919   12.9825   27.9709 C   0  0  1  0  0  0  0  0  0  0  0  0
    0.9107   13.2949   26.9650 C   0  0  0  0  0  0  0  0  0  0  0  0
    1.0130   14.5293   26.1003 C   0  0  0  0  0  0  0  0  0  0  0  0
   -0.0334   14.4542   27.1746 C   0  0  0  0  0  0  0  0  0  0  0  0
    1.5765   11.8735   28.9611 C   0  0  2  0  0  0  0  0  0  0  0  0
    0.3152   12.2099   29.7648 C   0  0  0  0  0  0  0  0  0  0  0  0
   -0.0500   11.0744   30.7244 C   0  0  0  0  0  0  0  0  0  0  0  0
    1.1447   10.1952   31.0706 C   0  0  0  0  0  0  0  0  0  0  0  0
    2.3085   11.0029   31.1845 O   0  0  0  0  0  0  0  0  0  0  0  0
    2.7322   11.5481   29.9316 C   0  0  0  0  0  0  0  0  0  0  0  0
    5.0835   11.1386   26.2140 N   0  0  0  0  0  0  0  0  0  0  0  0
    5.9553   10.2866   25.6279 C   0  0  0  0  0  0  0  0  0  0  0  0
    7.1209   10.6757   24.9927 C   0  0  0  0  0  0  0  0  0  0  0  0
    7.9596    9.7623   24.3581 N   0  0  0  0  0  0  0  0  0  0  0  0
  1  2  2  0
  2  3  1  0
  3  4  1  0
  4  5  1  0
  5  6  2  0
  6  7  1  0
  7  8  1  0
  8  9  2  0
  8 10  1  0
 11 10  1  6
 11 12  1  0
 12 13  1  0
 13 14  1  0
 11 15  1  0
 15 16  1  1
 16 17  1  0
 17 18  1  0
 18 19  1  0
 19 20  1  0
  7 21  2  0
 21 22  1  0
 22 23  2  0
 23 24  1  0
 24  2  1  0
 23  5  1  0
 14 12  1  0
 20 15  1  0
M  END
>  <energy_score>  (1797) 
-24.015654

>  <inchikey>  (1797) 
None

>  <smiles>  (1797) 
None

>  <ref_pdb>  (1797) 
A3618a

>  <alias>  (1797) 
None

>  <HIPPO Pose ID>  (1797) 
499441

>  <name>  (1797) 
P499441

>  <HIPPO Compound ID>  (1797) 
302665

>  <ref_mols>  (1797) 
A0310a,A3618a

>  <distance_score>  (1797) 
1.95971

>  <inspiration_score>  (1797) 
None

$$$$
P499442
     RDKit          3D

 24 27  0  0  0  0  0  0  0  0999 V2000
    9.9025   10.1536   22.6408 O   0  0  0  0  0  0  0  0  0  0  0  0
    9.0003   10.2955   23.4525 C   0  0  0  0  0  0  0  0  0  0  0  0
    8.2325    9.1257   23.9845 C   0  0  0  0  0  0  0  0  0  0  0  0
    7.2636    9.3040   25.0030 O   0  0  0  0  0  0  0  0  0  0  0  0
    6.8230   10.5738   25.2059 C   0  0  0  0  0  0  0  0  0  0  0  0
    5.6962   10.7244   26.0060 C   0  0  0  0  0  0  0  0  0  0  0  0
    5.2397   12.0134   26.2351 C   0  0  0  0  0  0  0  0  0  0  0  0
    4.0052   12.2466   27.0732 C   0  0  0  0  0  0  0  0  0  0  0  0
    3.4912   11.3560   27.6206 O   0  0  0  0  0  0  0  0  0  0  0  0
    3.6694   13.7500   27.0794 N   0  0  0  0  0  0  0  0  0  0  0  0
    2.5668   14.4655   27.6883 C   0  0  1  0  0  0  0  0  0  0  0  0
    1.3240   14.4191   26.8194 C   0  0  0  0  0  0  0  0  0  0  0  0
    0.6786   13.1185   26.4098 C   0  0  0  0  0  0  0  0  0  0  0  0
    1.3296   13.9899   25.3696 C   0  0  0  0  0  0  0  0  0  0  0  0
    2.2880   14.0114   29.1445 C   0  0  1  0  0  0  0  0  0  0  0  0
    3.5340   14.1012   30.0559 C   0  0  0  0  0  0  0  0  0  0  0  0
    3.4961   15.3465   30.9302 C   0  0  0  0  0  0  0  0  0  0  0  0
    2.2254   15.3827   31.7762 C   0  0  0  0  0  0  0  0  0  0  0  0
    1.1279   14.6927   31.1779 O   0  0  0  0  0  0  0  0  0  0  0  0
    1.1185   14.8017   29.7579 C   0  0  0  0  0  0  0  0  0  0  0  0
    5.8537   13.1336   25.7464 N   0  0  0  0  0  0  0  0  0  0  0  0
    6.9421   12.9364   24.9671 C   0  0  0  0  0  0  0  0  0  0  0  0
    7.4577   11.6857   24.6684 C   0  0  0  0  0  0  0  0  0  0  0  0
    8.5730   11.5298   23.8475 N   0  0  0  0  0  0  0  0  0  0  0  0
  1  2  2  0
  2  3  1  0
  3  4  1  0
  4  5  1  0
  5  6  2  0
  6  7  1  0
  7  8  1  0
  8  9  2  0
  8 10  1  0
 11 10  1  6
 11 12  1  0
 12 13  1  0
 13 14  1  0
 11 15  1  0
 15 16  1  1
 16 17  1  0
 17 18  1  0
 18 19  1  0
 19 20  1  0
  7 21  2  0
 21 22  1  0
 22 23  2  0
 23 24  1  0
 24  2  1  0
 23  5  1  0
 14 12  1  0
 20 15  1  0
M  END
>  <energy_score>  (1798) 
-38.042091

>  <inchikey>  (1798) 
None

>  <smiles>  (1798) 
None

>  <ref_pdb>  (1798) 
A3618a

>  <alias>  (1798) 
None

>  <HIPPO Pose ID>  (1798) 
499442

>  <name>  (1798) 
P499442

>  <HIPPO Compound ID>  (1798) 
302665

>  <ref_mols>  (1798) 
A0310a,A3618a

>  <distance_score>  (1798) 
1.956955

>  <inspiration_score>  (1798) 
None

$$$$
P499443
     RDKit          3D

 24 28  0  0  0  0  0  0  0  0999 V2000
    4.4723   10.8171   28.8869 O   0  0  0  0  0  0  0  0  0  0  0  0
    4.4008   11.1837   27.7261 C   0  0  0  0  0  0  0  0  0  0  0  0
    3.4655   12.2690   27.2313 C   0  0  0  0  0  0  0  0  0  0  0  0
    4.0008   13.2193   26.3352 O   0  0  0  0  0  0  0  0  0  0  0  0
    5.0573   12.7610   25.5974 C   0  0  0  0  0  0  0  0  0  0  0  0
    5.5263   13.6537   24.7136 N   0  0  0  0  0  0  0  0  0  0  0  0
    6.6231   13.2570   24.0010 C   0  0  0  0  0  0  0  0  0  0  0  0
    7.0928   14.1293   22.8823 C   0  0  0  0  0  0  0  0  0  0  0  0
    6.4449   14.2171   21.9020 O   0  0  0  0  0  0  0  0  0  0  0  0
    8.3821   14.8204   23.2686 N   0  0  0  0  0  0  0  0  0  0  0  0
    9.1698   15.8986   22.5648 C   0  0  0  0  0  0  0  0  0  0  0  0
    9.9289   14.9486   21.6949 C   0  0  2  0  0  0  0  0  0  0  0  0
   11.3495   15.3625   21.3700 C   0  0  0  0  0  0  0  0  0  0  0  0
   11.1482   16.0312   20.0401 C   0  0  0  0  0  0  0  0  0  0  0  0
   10.1765   15.1543   19.3403 C   0  0  0  0  0  0  0  0  0  0  0  0
    9.3349   14.6814   20.4015 O   0  0  0  0  0  0  0  0  0  0  0  0
    9.6557   13.9797   22.8069 C   0  0  1  0  0  0  0  0  0  0  0  0
   10.5123   13.7149   24.0255 C   0  0  0  0  0  0  0  0  0  0  0  0
   11.9794   13.4073   23.9789 C   0  0  0  0  0  0  0  0  0  0  0  0
   11.5016   14.6800   24.6075 C   0  0  0  0  0  0  0  0  0  0  0  0
    7.2833   12.0383   24.1659 C   0  0  0  0  0  0  0  0  0  0  0  0
    6.7820   11.1291   25.0702 C   0  0  0  0  0  0  0  0  0  0  0  0
    5.6565   11.4965   25.7870 C   0  0  0  0  0  0  0  0  0  0  0  0
    5.2130   10.6434   26.7842 N   0  0  0  0  0  0  0  0  0  0  0  0
  1  2  2  0
  2  3  1  0
  3  4  1  0
  4  5  1  0
  5  6  2  0
  6  7  1  0
  7  8  1  0
  8  9  2  0
  8 10  1  0
 10 11  1  0
 12 11  1  1
 12 13  1  0
 13 14  1  0
 14 15  1  0
 15 16  1  0
 12 17  1  0
 17 18  1  1
 18 19  1  0
 19 20  1  0
  7 21  2  0
 21 22  1  0
 22 23  2  0
 23 24  1  0
 24  2  1  0
 23  5  1  0
 17 10  1  0
 20 18  1  0
 12 16  1  0
M  END
>  <energy_score>  (1799) 
-6.771794

>  <inchikey>  (1799) 
None

>  <smiles>  (1799) 
None

>  <ref_pdb>  (1799) 
A3618a

>  <alias>  (1799) 
None

>  <HIPPO Pose ID>  (1799) 
499443

>  <name>  (1799) 
P499443

>  <HIPPO Compound ID>  (1799) 
302669

>  <ref_mols>  (1799) 
A0310a,A3618a

>  <distance_score>  (1799) 
1.952164

>  <inspiration_score>  (1799) 
None

$$$$
P499444
     RDKit          3D

 24 28  0  0  0  0  0  0  0  0999 V2000
    4.4700   10.8175   28.8833 O   0  0  0  0  0  0  0  0  0  0  0  0
    4.3995   11.1863   27.7232 C   0  0  0  0  0  0  0  0  0  0  0  0
    3.4643   12.2723   27.2295 C   0  0  0  0  0  0  0  0  0  0  0  0
    4.0006   13.2247   26.3361 O   0  0  0  0  0  0  0  0  0  0  0  0
    5.0563   12.7672   25.5967 C   0  0  0  0  0  0  0  0  0  0  0  0
    5.5248   13.6613   24.7137 N   0  0  0  0  0  0  0  0  0  0  0  0
    6.6212   13.2653   23.9998 C   0  0  0  0  0  0  0  0  0  0  0  0
    7.0916   14.1406   22.8833 C   0  0  0  0  0  0  0  0  0  0  0  0
    6.4425   14.2335   21.9041 O   0  0  0  0  0  0  0  0  0  0  0  0
    8.3841   14.8262   23.2696 N   0  0  0  0  0  0  0  0  0  0  0  0
    9.1744   15.9034   22.5678 C   0  0  0  0  0  0  0  0  0  0  0  0
    9.9278   14.9532   21.6931 C   0  0  2  0  0  0  0  0  0  0  0  0
   11.3487   15.3643   21.3654 C   0  0  0  0  0  0  0  0  0  0  0  0
   11.1469   16.0317   20.0349 C   0  0  0  0  0  0  0  0  0  0  0  0
   10.1733   15.1552   19.3379 C   0  0  0  0  0  0  0  0  0  0  0  0
    9.3289   14.6912   20.4006 O   0  0  0  0  0  0  0  0  0  0  0  0
    9.6542   13.9824   22.8036 C   0  0  1  0  0  0  0  0  0  0  0  0
   10.5124   13.7139   24.0206 C   0  0  0  0  0  0  0  0  0  0  0  0
   11.9783   13.4012   23.9715 C   0  0  0  0  0  0  0  0  0  0  0  0
   11.5063   14.6754   24.6008 C   0  0  0  0  0  0  0  0  0  0  0  0
    7.2813   12.0463   24.1631 C   0  0  0  0  0  0  0  0  0  0  0  0
    6.7808   11.1360   25.0669 C   0  0  0  0  0  0  0  0  0  0  0  0
    5.6557   11.5025   25.7847 C   0  0  0  0  0  0  0  0  0  0  0  0
    5.2129   10.6481   26.7811 N   0  0  0  0  0  0  0  0  0  0  0  0
  1  2  2  0
  2  3  1  0
  3  4  1  0
  4  5  1  0
  5  6  2  0
  6  7  1  0
  7  8  1  0
  8  9  2  0
  8 10  1  0
 10 11  1  0
 12 11  1  1
 12 13  1  0
 13 14  1  0
 14 15  1  0
 15 16  1  0
 12 17  1  0
 17 18  1  1
 18 19  1  0
 19 20  1  0
  7 21  2  0
 21 22  1  0
 22 23  2  0
 23 24  1  0
 24  2  1  0
 23  5  1  0
 17 10  1  0
 20 18  1  0
 12 16  1  0
M  END
>  <energy_score>  (1800) 
-17.345577

>  <inchikey>  (1800) 
None

>  <smiles>  (1800) 
None

>  <ref_pdb>  (1800) 
A3618a

>  <alias>  (1800) 
None

>  <HIPPO Pose ID>  (1800) 
499444

>  <name>  (1800) 
P499444

>  <HIPPO Compound ID>  (1800) 
302669

>  <ref_mols>  (1800) 
A0310a,A3618a

>  <distance_score>  (1800) 
1.940433

>  <inspiration_score>  (1800) 
None

$$$$
P499445
     RDKit          3D

 24 28  0  0  0  0  0  0  0  0999 V2000
    4.8258   10.6879   28.8627 O   0  0  0  0  0  0  0  0  0  0  0  0
    4.5453   11.0053   27.7182 C   0  0  0  0  0  0  0  0  0  0  0  0
    3.4537   11.9889   27.3395 C   0  0  0  0  0  0  0  0  0  0  0  0
    3.7924   12.9823   26.3859 O   0  0  0  0  0  0  0  0  0  0  0  0
    4.8896   12.6766   25.6289 C   0  0  0  0  0  0  0  0  0  0  0  0
    5.3170   13.6475   24.7452 C   0  0  0  0  0  0  0  0  0  0  0  0
    6.4923   13.3718   24.0447 C   0  0  0  0  0  0  0  0  0  0  0  0
    7.0411   14.3466   23.0735 C   0  0  0  0  0  0  0  0  0  0  0  0
    6.4259   14.6290   22.1088 O   0  0  0  0  0  0  0  0  0  0  0  0
    8.3870   14.8416   23.5557 N   0  0  0  0  0  0  0  0  0  0  0  0
    9.2883   15.9028   23.0096 C   0  0  0  0  0  0  0  0  0  0  0  0
    9.9179   14.9995   21.9897 C   0  0  1  0  0  0  0  0  0  0  0  0
    9.2046   15.0486   20.6656 C   0  0  0  0  0  0  0  0  0  0  0  0
   10.3073   15.2133   19.6336 C   0  0  0  0  0  0  0  0  0  0  0  0
   11.3805   15.8900   20.4269 C   0  0  0  0  0  0  0  0  0  0  0  0
   11.3092   15.2400   21.6845 O   0  0  0  0  0  0  0  0  0  0  0  0
    9.5781   13.9368   22.9952 C   0  0  1  0  0  0  0  0  0  0  0  0
   10.5241   13.5937   24.1297 C   0  0  0  0  0  0  0  0  0  0  0  0
   11.9620   13.2088   23.9223 C   0  0  0  0  0  0  0  0  0  0  0  0
   11.6422   14.4998   24.5925 C   0  0  0  0  0  0  0  0  0  0  0  0
    7.2334   12.2296   24.1430 N   0  0  0  0  0  0  0  0  0  0  0  0
    6.7599   11.2862   24.9617 C   0  0  0  0  0  0  0  0  0  0  0  0
    5.6166   11.4719   25.7197 C   0  0  0  0  0  0  0  0  0  0  0  0
    5.2742   10.5272   26.6769 N   0  0  0  0  0  0  0  0  0  0  0  0
  1  2  2  0
  2  3  1  0
  3  4  1  0
  4  5  1  0
  5  6  2  0
  6  7  1  0
  7  8  1  0
  8  9  2  0
  8 10  1  0
 10 11  1  0
 12 11  1  1
 12 13  1  0
 13 14  1  0
 14 15  1  0
 15 16  1  0
 12 17  1  0
 17 18  1  1
 18 19  1  0
 19 20  1  0
  7 21  2  0
 21 22  1  0
 22 23  2  0
 23 24  1  0
 24  2  1  0
 23  5  1  0
 17 10  1  0
 20 18  1  0
 12 16  1  0
M  END
>  <energy_score>  (1801) 
-22.497407

>  <inchikey>  (1801) 
None

>  <smiles>  (1801) 
None

>  <ref_pdb>  (1801) 
A3618a

>  <alias>  (1801) 
None

>  <HIPPO Pose ID>  (1801) 
499445

>  <name>  (1801) 
P499445

>  <HIPPO Compound ID>  (1801) 
302681

>  <ref_mols>  (1801) 
A0310a,A3618a

>  <distance_score>  (1801) 
1.988674

>  <inspiration_score>  (1801) 
None

$$$$
P499446
     RDKit          3D

 25 28  0  0  0  0  0  0  0  0999 V2000
    0.2019   13.7898   25.4622 C   0  0  0  0  0  0  0  0  0  0  0  0
    1.2665   13.2814   26.2640 O   0  0  0  0  0  0  0  0  0  0  0  0
    1.2710   13.7586   27.5488 C   0  0  0  0  0  0  0  0  0  0  0  0
    0.3579   14.4352   28.0170 O   0  0  0  0  0  0  0  0  0  0  0  0
    2.5248   13.2733   28.3671 C   0  0  0  0  0  0  0  0  0  0  0  0
    3.5563   12.7808   27.4634 N   0  0  0  0  0  0  0  0  0  0  0  0
    4.4655   13.5348   26.4803 C   0  0  0  0  0  0  0  0  0  0  0  0
    4.4831   14.6593   26.1793 O   0  0  0  0  0  0  0  0  0  0  0  0
    5.4601   12.5656   25.8965 C   0  0  0  0  0  0  0  0  0  0  0  0
    6.4064   12.9796   24.9801 C   0  0  0  0  0  0  0  0  0  0  0  0
    7.3115   12.0429   24.4946 C   0  0  0  0  0  0  0  0  0  0  0  0
    7.2287   10.7215   24.8985 C   0  0  0  0  0  0  0  0  0  0  0  0
    6.2320   10.3956   25.7992 C   0  0  0  0  0  0  0  0  0  0  0  0
    5.3708   11.2866   26.3405 N   0  0  0  0  0  0  0  0  0  0  0  0
    8.0828    9.7646   24.3544 N   0  0  0  0  0  0  0  0  0  0  0  0
    9.0976   10.1120   23.5028 C   0  0  0  0  0  0  0  0  0  0  0  0
    9.7760    9.2623   22.9378 O   0  0  0  0  0  0  0  0  0  0  0  0
    9.3221   11.6224   23.3679 C   0  0  0  0  0  0  0  0  0  0  0  0
    8.2036   12.4826   23.5554 O   0  0  0  0  0  0  0  0  0  0  0  0
    2.1928   12.0876   29.2839 C   0  0  0  0  0  0  0  0  0  0  0  0
    0.8100   11.7833   29.8190 C   0  0  0  0  0  0  0  0  0  0  0  0
    1.4199   10.8927   28.7732 C   0  0  0  0  0  0  0  0  0  0  0  0
    3.1100   14.4663   29.1237 C   0  0  0  0  0  0  0  0  0  0  0  0
    2.8959   14.7121   30.6014 C   0  0  0  0  0  0  0  0  0  0  0  0
    4.2641   14.3414   30.0966 C   0  0  0  0  0  0  0  0  0  0  0  0
  1  2  1  0
  2  3  1  0
  3  4  2  0
  3  5  1  0
  5  6  1  0
  6  7  1  0
  7  8  2  0
  7  9  1  0
  9 10  2  0
 10 11  1  0
 11 12  2  0
 12 13  1  0
 13 14  2  0
 12 15  1  0
 15 16  1  0
 16 17  2  0
 16 18  1  0
 18 19  1  0
  5 20  1  0
 20 21  1  0
 21 22  1  0
  5 23  1  0
 23 24  1  0
 24 25  1  0
 14  9  1  0
 22 20  1  0
 25 23  1  0
 19 11  1  0
M  END
>  <energy_score>  (1802) 
-48.108951

>  <inchikey>  (1802) 
None

>  <smiles>  (1802) 
None

>  <ref_pdb>  (1802) 
A3618a

>  <alias>  (1802) 
None

>  <HIPPO Pose ID>  (1802) 
499446

>  <name>  (1802) 
P499446

>  <HIPPO Compound ID>  (1802) 
302699

>  <ref_mols>  (1802) 
A0310a,A3618a

>  <distance_score>  (1802) 
1.978709

>  <inspiration_score>  (1802) 
None

$$$$
P499447
     RDKit          3D

 25 28  0  0  0  0  0  0  0  0999 V2000
    0.4697   12.6368   27.6679 C   0  0  0  0  0  0  0  0  0  0  0  0
    1.5019   11.8015   27.8628 C   0  0  0  0  0  0  0  0  0  0  0  0
    2.8628   12.3739   27.7033 C   0  0  0  0  0  0  0  0  0  0  0  0
    3.0936   13.4774   28.0047 O   0  0  0  0  0  0  0  0  0  0  0  0
    3.7587   11.3123   27.0173 N   0  0  0  0  0  0  0  0  0  0  0  0
    5.0409   11.4163   26.4959 C   0  0  0  0  0  0  0  0  0  0  0  0
    5.6820   10.3550   25.8604 C   0  0  0  0  0  0  0  0  0  0  0  0
    6.8336   10.6056   25.0967 C   0  0  0  0  0  0  0  0  0  0  0  0
    7.2618   11.9203   24.9943 C   0  0  0  0  0  0  0  0  0  0  0  0
    8.1953   12.3913   23.9054 C   0  0  0  0  0  0  0  0  0  0  0  0
    9.1945   11.8224   23.6590 O   0  0  0  0  0  0  0  0  0  0  0  0
    7.5845   13.6243   23.2661 N   0  0  0  0  0  0  0  0  0  0  0  0
    8.0569   14.9011   23.9614 C   0  0  2  0  0  0  0  0  0  0  0  0
    7.2124   16.0480   23.4552 C   0  0  0  0  0  0  0  0  0  0  0  0
    7.2806   15.7565   22.0059 C   0  0  0  0  0  0  0  0  0  0  0  0
    8.0244   14.4346   22.0514 C   0  0  1  0  0  0  0  0  0  0  0  0
    9.5031   14.4608   21.7573 C   0  0  1  0  0  0  0  0  0  0  0  0
   10.3664   15.7002   21.7167 C   0  0  0  0  0  0  0  0  0  0  0  0
   10.3818   14.7767   22.9224 C   0  0  2  0  0  0  0  0  0  0  0  0
   11.5661   13.8977   23.1803 C   0  0  0  0  0  0  0  0  0  0  0  0
   12.0725   13.4252   22.0298 F   0  0  0  0  0  0  0  0  0  0  0  0
   12.5368   14.6505   23.7557 F   0  0  0  0  0  0  0  0  0  0  0  0
    9.5854   15.1125   24.1477 C   0  0  0  0  0  0  0  0  0  0  0  0
    6.7514   12.9211   25.7465 N   0  0  0  0  0  0  0  0  0  0  0  0
    5.6487   12.6594   26.4583 C   0  0  0  0  0  0  0  0  0  0  0  0
  1  2  2  0
  2  3  1  0
  3  4  2  0
  3  5  1  0
  5  6  1  0
  6  7  2  0
  7  8  1  0
  8  9  2  0
  9 10  1  0
 10 11  2  0
 10 12  1  0
 12 13  1  0
 13 14  1  6
 14 15  1  0
 16 15  1  1
 16 17  1  0
 17 18  1  6
 18 19  1  0
 19 20  1  1
 20 21  1  0
 20 22  1  0
 19 23  1  0
  9 24  1  0
 24 25  2  0
 25  6  1  0
 16 12  1  0
 19 17  1  0
 23 13  1  0
M  END
>  <energy_score>  (1803) 
-16.706302

>  <inchikey>  (1803) 
None

>  <smiles>  (1803) 
None

>  <ref_pdb>  (1803) 
A3618a

>  <alias>  (1803) 
None

>  <HIPPO Pose ID>  (1803) 
499447

>  <name>  (1803) 
P499447

>  <HIPPO Compound ID>  (1803) 
302760

>  <ref_mols>  (1803) 
A0310a,A3618a

>  <distance_score>  (1803) 
1.736078

>  <inspiration_score>  (1803) 
None

$$$$
P499448
     RDKit          3D

 25 27  0  0  0  0  0  0  0  0999 V2000
   12.2444   15.4521   21.5431 C   0  0  0  0  0  0  0  0  0  0  0  0
   11.6450   14.3040   21.8782 C   0  0  0  0  0  0  0  0  0  0  0  0
   10.6984   14.3317   23.0143 C   0  0  0  0  0  0  0  0  0  0  0  0
   10.5779   15.2904   23.6702 O   0  0  0  0  0  0  0  0  0  0  0  0
    9.9259   12.9862   23.0488 N   0  0  0  0  0  0  0  0  0  0  0  0
    8.8289   12.5971   23.8037 C   0  0  0  0  0  0  0  0  0  0  0  0
    8.1333   13.6349   24.4119 C   0  0  0  0  0  0  0  0  0  0  0  0
    7.1198   13.3705   25.2959 C   0  0  0  0  0  0  0  0  0  0  0  0
    6.8325   12.0465   25.5649 C   0  0  0  0  0  0  0  0  0  0  0  0
    5.9427   11.8285   26.7432 C   0  0  0  0  0  0  0  0  0  0  0  0
    5.9217   12.6364   27.5792 O   0  0  0  0  0  0  0  0  0  0  0  0
    5.1251   10.5536   26.5801 N   0  0  0  0  0  0  0  0  0  0  0  0
    4.0958   10.0669   27.3157 N   0  0  0  0  0  0  0  0  0  0  0  0
    2.9638   10.8393   27.4201 C   0  0  0  0  0  0  0  0  0  0  0  0
    2.6537   11.8423   26.7895 O   0  0  0  0  0  0  0  0  0  0  0  0
    2.2128   10.3651   28.4765 N   0  0  0  0  0  0  0  0  0  0  0  0
    2.9718    9.4299   29.2790 C   0  0  2  0  0  0  0  0  0  0  0  0
    2.3907    8.0236   29.1565 C   0  0  0  0  0  0  0  0  0  0  0  0
    3.0839    9.8591   30.7232 C   0  0  0  0  0  0  0  0  0  0  0  0
    1.8942   10.3559   31.5131 C   0  0  0  0  0  0  0  0  0  0  0  0
    3.0121   11.3033   31.1677 C   0  0  0  0  0  0  0  0  0  0  0  0
    4.3257    9.4921   28.5431 C   0  0  0  0  0  0  0  0  0  0  0  0
    5.3993    9.1556   29.0314 O   0  0  0  0  0  0  0  0  0  0  0  0
    7.4063   10.9793   24.9258 N   0  0  0  0  0  0  0  0  0  0  0  0
    8.4043   11.2907   24.0416 C   0  0  0  0  0  0  0  0  0  0  0  0
  1  2  2  0
  2  3  1  0
  3  4  2  0
  3  5  1  0
  5  6  1  0
  6  7  2  0
  7  8  1  0
  8  9  2  0
  9 10  1  0
 10 11  2  0
 10 12  1  0
 12 13  1  0
 13 14  1  0
 14 15  2  0
 14 16  1  0
 16 17  1  0
 17 18  1  1
 17 19  1  0
 19 20  1  0
 20 21  1  0
 17 22  1  0
 22 23  2  0
  9 24  1  0
 24 25  2  0
 25  6  1  0
 22 13  1  0
 21 19  1  0
M  END
>  <energy_score>  (1804) 
-36.832305

>  <inchikey>  (1804) 
None

>  <smiles>  (1804) 
None

>  <ref_pdb>  (1804) 
A3618a

>  <alias>  (1804) 
None

>  <HIPPO Pose ID>  (1804) 
499448

>  <name>  (1804) 
P499448

>  <HIPPO Compound ID>  (1804) 
302761

>  <ref_mols>  (1804) 
A0310a,A3618a

>  <distance_score>  (1804) 
1.807966

>  <inspiration_score>  (1804) 
None

$$$$
P499449
     RDKit          3D

 25 27  0  0  0  0  0  0  0  0999 V2000
    1.4302   12.3179   27.2406 C   0  0  0  0  0  0  0  0  0  0  0  0
    2.8031   11.9945   27.5173 N   0  0  0  0  0  0  0  0  0  0  0  0
    3.3582   10.6573   27.3560 C   0  0  0  0  0  0  0  0  0  0  0  0
    4.8089   10.7543   27.8762 C   0  0  1  0  0  0  0  0  0  0  0  0
    5.7165   11.0233   26.8023 N   0  0  0  0  0  0  0  0  0  0  0  0
    6.0885   10.1814   25.5814 C   0  0  0  0  0  0  0  0  0  0  0  0
    5.6636    9.1685   25.2086 O   0  0  0  0  0  0  0  0  0  0  0  0
    7.1045   10.9069   24.7666 C   0  0  0  0  0  0  0  0  0  0  0  0
    6.9470   12.2682   24.5328 C   0  0  0  0  0  0  0  0  0  0  0  0
    7.9434   12.9251   23.8433 C   0  0  0  0  0  0  0  0  0  0  0  0
    9.0399   12.2066   23.3903 C   0  0  0  0  0  0  0  0  0  0  0  0
   10.0958   12.8786   22.8074 N   0  0  0  0  0  0  0  0  0  0  0  0
   10.3346   14.4195   22.5999 C   0  0  0  0  0  0  0  0  0  0  0  0
    9.6339   15.3339   22.8244 O   0  0  0  0  0  0  0  0  0  0  0  0
   11.7823   14.5204   22.1138 C   0  0  0  0  0  0  0  0  0  0  0  0
   12.3531   15.7233   22.3413 F   0  0  0  0  0  0  0  0  0  0  0  0
   12.5280   13.6079   22.8087 F   0  0  0  0  0  0  0  0  0  0  0  0
   11.9224   14.2186   20.8032 F   0  0  0  0  0  0  0  0  0  0  0  0
    9.0762   10.8304   23.5973 C   0  0  0  0  0  0  0  0  0  0  0  0
    8.1384   10.1716   24.3026 N   0  0  0  0  0  0  0  0  0  0  0  0
    4.7451   11.9665   28.7622 C   0  0  0  0  0  0  0  0  0  0  0  0
    5.3882   11.9385   30.1308 C   0  0  0  0  0  0  0  0  0  0  0  0
    5.9481   12.8426   29.0682 C   0  0  0  0  0  0  0  0  0  0  0  0
    3.4546   12.6449   28.5274 C   0  0  0  0  0  0  0  0  0  0  0  0
    3.0710   13.6038   29.1625 O   0  0  0  0  0  0  0  0  0  0  0  0
  1  2  1  0
  2  3  1  0
  3  4  1  0
  4  5  1  6
  5  6  1  0
  6  7  2  0
  6  8  1  0
  8  9  2  0
  9 10  1  0
 10 11  2  0
 11 12  1  0
 12 13  1  0
 13 14  2  0
 13 15  1  0
 15 16  1  0
 15 17  1  0
 15 18  1  0
 11 19  1  0
 19 20  2  0
  4 21  1  0
 21 22  1  0
 22 23  1  0
 21 24  1  0
 24 25  2  0
 24  2  1  0
 20  8  1  0
 23 21  1  0
M  END
>  <energy_score>  (1805) 
-11.551524

>  <inchikey>  (1805) 
None

>  <smiles>  (1805) 
None

>  <ref_pdb>  (1805) 
A3618a

>  <alias>  (1805) 
None

>  <HIPPO Pose ID>  (1805) 
499449

>  <name>  (1805) 
P499449

>  <HIPPO Compound ID>  (1805) 
302814

>  <ref_mols>  (1805) 
A0310a,A3618a

>  <distance_score>  (1805) 
1.770166

>  <inspiration_score>  (1805) 
None

$$$$
P499450
     RDKit          3D

 26 29  0  0  0  0  0  0  0  0999 V2000
    0.5526   12.7688   27.6812 C   0  0  0  0  0  0  0  0  0  0  0  0
    1.5858   11.9243   27.8263 C   0  0  0  0  0  0  0  0  0  0  0  0
    2.9439   12.4866   27.6048 C   0  0  0  0  0  0  0  0  0  0  0  0
    3.1623   13.6166   27.7998 O   0  0  0  0  0  0  0  0  0  0  0  0
    3.8509   11.3751   27.0183 N   0  0  0  0  0  0  0  0  0  0  0  0
    5.1311   11.4446   26.4838 C   0  0  0  0  0  0  0  0  0  0  0  0
    5.7424   10.3731   25.8358 C   0  0  0  0  0  0  0  0  0  0  0  0
    6.8841   10.6063   25.0490 C   0  0  0  0  0  0  0  0  0  0  0  0
    7.3304   11.9141   24.9373 C   0  0  0  0  0  0  0  0  0  0  0  0
    8.2005   12.3896   23.7921 C   0  0  0  0  0  0  0  0  0  0  0  0
    9.1578   11.8045   23.4434 O   0  0  0  0  0  0  0  0  0  0  0  0
    7.5669   13.6519   23.2399 N   0  0  0  0  0  0  0  0  0  0  0  0
    8.1317   14.8979   23.9188 C   0  0  2  0  0  0  0  0  0  0  0  0
    7.2364   16.0528   23.5277 C   0  0  0  0  0  0  0  0  0  0  0  0
    7.1670   15.8036   22.0688 C   0  0  0  0  0  0  0  0  0  0  0  0
    7.9161   14.4817   22.0110 C   0  0  1  0  0  0  0  0  0  0  0  0
    9.3648   14.5318   21.5853 C   0  0  1  0  0  0  0  0  0  0  0  0
   10.1735   15.8057   21.4921 C   0  0  0  0  0  0  0  0  0  0  0  0
   10.3538   14.8452   22.6563 C   0  0  2  0  0  0  0  0  0  0  0  0
   11.6398   14.0892   22.7445 C   0  0  0  0  0  0  0  0  0  0  0  0
   12.5837   14.9000   23.2747 F   0  0  0  0  0  0  0  0  0  0  0  0
   11.5516   13.0179   23.5620 F   0  0  0  0  0  0  0  0  0  0  0  0
   12.0742   13.6817   21.5387 F   0  0  0  0  0  0  0  0  0  0  0  0
    9.6748   15.0994   23.9674 C   0  0  0  0  0  0  0  0  0  0  0  0
    6.8563   12.9175   25.7110 N   0  0  0  0  0  0  0  0  0  0  0  0
    5.7658   12.6733   26.4458 C   0  0  0  0  0  0  0  0  0  0  0  0
  1  2  2  0
  2  3  1  0
  3  4  2  0
  3  5  1  0
  5  6  1  0
  6  7  2  0
  7  8  1  0
  8  9  2  0
  9 10  1  0
 10 11  2  0
 10 12  1  0
 12 13  1  0
 13 14  1  6
 14 15  1  0
 16 15  1  1
 16 17  1  0
 17 18  1  6
 18 19  1  0
 19 20  1  1
 20 21  1  0
 20 22  1  0
 20 23  1  0
 19 24  1  0
  9 25  1  0
 25 26  2  0
 26  6  1  0
 16 12  1  0
 19 17  1  0
 24 13  1  0
M  END
>  <energy_score>  (1806) 
-15.666149

>  <inchikey>  (1806) 
None

>  <smiles>  (1806) 
None

>  <ref_pdb>  (1806) 
A3618a

>  <alias>  (1806) 
None

>  <HIPPO Pose ID>  (1806) 
499450

>  <name>  (1806) 
P499450

>  <HIPPO Compound ID>  (1806) 
302871

>  <ref_mols>  (1806) 
A0310a,A3618a

>  <distance_score>  (1806) 
1.736932

>  <inspiration_score>  (1806) 
None

$$$$
P499451
     RDKit          3D

 26 28  0  0  0  0  0  0  0  0999 V2000
    0.6867   13.0953   26.2614 O   0  0  0  0  0  0  0  0  0  0  0  0
    1.5628   12.8942   27.0830 C   0  0  0  0  0  0  0  0  0  0  0  0
    1.3743   12.6456   28.3963 N   0  0  0  0  0  0  0  0  0  0  0  0
    2.5576   12.3676   29.0052 C   0  0  0  0  0  0  0  0  0  0  0  0
    2.6754   12.1037   30.1925 O   0  0  0  0  0  0  0  0  0  0  0  0
    3.6768   12.4850   27.9746 C   0  0  1  0  0  0  0  0  0  0  0  0
    4.5169   11.2561   27.6937 C   0  0  0  0  0  0  0  0  0  0  0  0
    5.5020   11.4557   26.6888 N   0  0  0  0  0  0  0  0  0  0  0  0
    6.0090   10.5072   25.5765 C   0  0  0  0  0  0  0  0  0  0  0  0
    5.6434    9.4451   25.2650 O   0  0  0  0  0  0  0  0  0  0  0  0
    7.0651   11.1726   24.7682 C   0  0  0  0  0  0  0  0  0  0  0  0
    6.9340   12.5154   24.4396 C   0  0  0  0  0  0  0  0  0  0  0  0
    7.9542   13.1093   23.7305 C   0  0  0  0  0  0  0  0  0  0  0  0
    9.0443   12.3460   23.3424 C   0  0  0  0  0  0  0  0  0  0  0  0
   10.1179   12.9651   22.7393 N   0  0  0  0  0  0  0  0  0  0  0  0
   10.3236   14.4657   22.3144 C   0  0  0  0  0  0  0  0  0  0  0  0
    9.5797   15.3731   22.3459 O   0  0  0  0  0  0  0  0  0  0  0  0
   11.8003   14.5500   21.9216 C   0  0  0  0  0  0  0  0  0  0  0  0
   12.3720   15.7361   22.2289 F   0  0  0  0  0  0  0  0  0  0  0  0
   12.4942   13.6067   22.6288 F   0  0  0  0  0  0  0  0  0  0  0  0
   12.0124   14.2918   20.6123 F   0  0  0  0  0  0  0  0  0  0  0  0
    9.0541   10.9866   23.6341 C   0  0  0  0  0  0  0  0  0  0  0  0
    8.0959   10.3930   24.3686 N   0  0  0  0  0  0  0  0  0  0  0  0
    3.8925    9.8879   27.8455 C   0  0  0  0  0  0  0  0  0  0  0  0
    4.9193   10.3614   28.8332 C   0  0  0  0  0  0  0  0  0  0  0  0
    2.9056   12.8519   26.8108 N   0  0  0  0  0  0  0  0  0  0  0  0
  1  2  2  0
  2  3  1  0
  3  4  1  0
  4  5  2  0
  4  6  1  0
  6  7  1  6
  7  8  1  0
  8  9  1  0
  9 10  2  0
  9 11  1  0
 11 12  2  0
 12 13  1  0
 13 14  2  0
 14 15  1  0
 15 16  1  0
 16 17  2  0
 16 18  1  0
 18 19  1  0
 18 20  1  0
 18 21  1  0
 14 22  1  0
 22 23  2  0
  7 24  1  0
 24 25  1  0
  6 26  1  0
 26  2  1  0
 25  7  1  0
 23 11  1  0
M  END
>  <energy_score>  (1807) 
-23.639735

>  <inchikey>  (1807) 
None

>  <smiles>  (1807) 
None

>  <ref_pdb>  (1807) 
A3618a

>  <alias>  (1807) 
None

>  <HIPPO Pose ID>  (1807) 
499451

>  <name>  (1807) 
P499451

>  <HIPPO Compound ID>  (1807) 
302905

>  <ref_mols>  (1807) 
A0310a,A3618a

>  <distance_score>  (1807) 
1.780454

>  <inspiration_score>  (1807) 
None

$$$$
P499452
     RDKit          3D

 18 21  0  0  0  0  0  0  0  0999 V2000
   10.3761   15.2832   20.9745 C   0  0  0  0  0  0  0  0  0  0  0  0
    9.8252   15.2736   22.3669 C   0  0  2  0  0  0  0  0  0  0  0  0
    8.4458   14.7134   22.5821 C   0  0  0  0  0  0  0  0  0  0  0  0
    7.6578   14.9658   21.7482 O   0  0  0  0  0  0  0  0  0  0  0  0
    8.2904   13.9391   23.8748 N   0  0  0  0  0  0  0  0  0  0  0  0
    7.0672   13.3532   24.5231 C   0  0  0  0  0  0  0  0  0  0  0  0
    6.7928   13.3478   26.0225 C   0  0  0  0  0  0  0  0  0  0  0  0
    6.1732   14.4003   25.1884 C   0  0  0  0  0  0  0  0  0  0  0  0
    8.5957   12.3342   23.6493 C   0  0  1  0  0  0  0  0  0  0  0  0
   10.1214   12.2224   23.2516 C   0  0  0  0  0  0  0  0  0  0  0  0
   10.7875   11.0024   23.7359 N   0  0  0  0  0  0  0  0  0  0  0  0
   10.0181    9.8102   23.3774 C   0  0  0  0  0  0  0  0  0  0  0  0
    8.7480    9.8013   24.1948 C   0  0  0  0  0  0  0  0  0  0  0  0
    8.4187   11.2147   24.7177 C   0  0  0  0  0  0  0  0  0  0  0  0
    9.5035   11.5215   25.7195 C   0  0  0  0  0  0  0  0  0  0  0  0
   10.8637   11.1049   25.1813 C   0  0  0  0  0  0  0  0  0  0  0  0
   10.2576   16.3797   23.2930 C   0  0  0  0  0  0  0  0  0  0  0  0
   10.8337   15.0909   23.3888 O   0  0  0  0  0  0  0  0  0  0  0  0
  2  1  1  6
  2  3  1  0
  3  4  2  0
  3  5  1  0
  5  6  1  0
  6  7  1  0
  7  8  1  0
  9  5  1  1
  9 10  1  0
 11 10  1  0
 11 12  1  0
 12 13  1  0
 13 14  1  0
 14 15  1  0
 15 16  1  0
  2 17  1  0
 17 18  1  0
 18  2  1  0
  8  6  1  0
 14  9  1  0
 16 11  1  0
M  END
>  <energy_score>  (1808) 
-23.539419

>  <inchikey>  (1808) 
None

>  <smiles>  (1808) 
None

>  <ref_pdb>  (1808) 
A4237b

>  <alias>  (1808) 
None

>  <HIPPO Pose ID>  (1808) 
499452

>  <name>  (1808) 
P499452

>  <HIPPO Compound ID>  (1808) 
303130

>  <ref_mols>  (1808) 
A4237b,A3618a

>  <distance_score>  (1808) 
1.599427

>  <inspiration_score>  (1808) 
None

$$$$
P499453
     RDKit          3D

 19 21  0  0  0  0  0  0  0  0999 V2000
   11.0282   16.4459   23.0264 C   0  0  0  0  0  0  0  0  0  0  0  0
    9.6081   16.1071   23.4625 C   0  0  2  0  0  0  0  0  0  0  0  0
    9.7241   15.8094   24.8553 O   0  0  0  0  0  0  0  0  0  0  0  0
    9.0585   14.9880   22.5680 C   0  0  2  0  0  0  0  0  0  0  0  0
    8.7014   15.5745   21.2115 C   0  0  0  0  0  0  0  0  0  0  0  0
    7.8615   14.1362   23.0863 C   0  0  0  0  0  0  0  0  0  0  0  0
    7.0600   13.6832   22.3078 O   0  0  0  0  0  0  0  0  0  0  0  0
    7.8981   14.0876   24.5135 N   0  0  0  0  0  0  0  0  0  0  0  0
    6.8968   13.5563   25.5063 C   0  0  0  0  0  0  0  0  0  0  0  0
    6.9037   13.8499   26.9937 C   0  0  0  0  0  0  0  0  0  0  0  0
    6.0054   14.6374   26.1097 C   0  0  0  0  0  0  0  0  0  0  0  0
    8.7346   12.7693   25.0178 C   0  0  1  0  0  0  0  0  0  0  0  0
    8.1417   11.3436   24.7342 C   0  0  0  0  0  0  0  0  0  0  0  0
    9.1825   10.3113   24.5064 N   0  0  0  0  0  0  0  0  0  0  0  0
   10.2643   10.5378   25.4571 C   0  0  0  0  0  0  0  0  0  0  0  0
   11.0456   11.8402   25.2763 C   0  0  0  0  0  0  0  0  0  0  0  0
   10.1870   12.7197   24.3898 C   0  0  0  0  0  0  0  0  0  0  0  0
   10.1758   11.9794   23.0430 C   0  0  0  0  0  0  0  0  0  0  0  0
    9.8120   10.5031   23.2101 C   0  0  0  0  0  0  0  0  0  0  0  0
  2  1  1  6
  2  3  1  0
  2  4  1  0
  4  5  1  6
  4  6  1  0
  6  7  2  0
  6  8  1  0
  8  9  1  0
  9 10  1  0
 10 11  1  0
 12  8  1  6
 12 13  1  0
 14 13  1  0
 14 15  1  0
 15 16  1  0
 16 17  1  0
 17 18  1  0
 18 19  1  0
 11  9  1  0
 17 12  1  0
 19 14  1  0
M  END
>  <energy_score>  (1809) 
-11.078851

>  <inchikey>  (1809) 
None

>  <smiles>  (1809) 
None

>  <ref_pdb>  (1809) 
A4237b

>  <alias>  (1809) 
None

>  <HIPPO Pose ID>  (1809) 
499453

>  <name>  (1809) 
P499453

>  <HIPPO Compound ID>  (1809) 
303148

>  <ref_mols>  (1809) 
A4237b,A3618a

>  <distance_score>  (1809) 
1.87259

>  <inspiration_score>  (1809) 
None

$$$$
P499454
     RDKit          3D

 19 21  0  0  0  0  0  0  0  0999 V2000
    6.6369   14.2077   22.8572 O   0  0  0  0  0  0  0  0  0  0  0  0
    7.2854   14.5640   23.8086 C   0  0  0  0  0  0  0  0  0  0  0  0
    8.1932   15.8360   23.6913 C   0  0  0  0  0  0  0  0  0  0  0  0
    9.1293   16.2187   24.8491 C   0  0  0  0  0  0  0  0  0  0  0  0
   11.0455   16.1200   24.5514 Br  0  0  0  0  0  0  0  0  0  0  0  0
    8.5219   16.2778   22.2665 C   0  0  0  0  0  0  0  0  0  0  0  0
    9.8038   15.2043   21.2961 Br  0  0  0  0  0  0  0  0  0  0  0  0
    7.3175   14.0652   25.1543 N   0  0  0  0  0  0  0  0  0  0  0  0
    6.4916   13.0376   25.8241 C   0  0  0  0  0  0  0  0  0  0  0  0
    6.4139   12.8433   27.3280 C   0  0  0  0  0  0  0  0  0  0  0  0
    5.3569   13.6372   26.6551 C   0  0  0  0  0  0  0  0  0  0  0  0
    8.4926   12.8592   25.3088 C   0  0  1  0  0  0  0  0  0  0  0  0
    8.2147   11.2839   25.2680 C   0  0  0  0  0  0  0  0  0  0  0  0
    9.4056   10.4879   24.8424 N   0  0  0  0  0  0  0  0  0  0  0  0
   10.6397   11.0772   25.3661 C   0  0  0  0  0  0  0  0  0  0  0  0
   10.9453   12.4878   24.8921 C   0  0  0  0  0  0  0  0  0  0  0  0
    9.6583   13.0055   24.2773 C   0  0  0  0  0  0  0  0  0  0  0  0
    9.4084   12.1236   23.0580 C   0  0  0  0  0  0  0  0  0  0  0  0
    9.5064   10.6329   23.3964 C   0  0  0  0  0  0  0  0  0  0  0  0
  1  2  2  0
  2  3  1  0
  3  4  1  0
  4  5  1  0
  3  6  1  0
  6  7  1  0
  2  8  1  0
  8  9  1  0
  9 10  1  0
 10 11  1  0
 12  8  1  6
 12 13  1  0
 14 13  1  0
 14 15  1  0
 15 16  1  0
 16 17  1  0
 17 18  1  0
 18 19  1  0
 11  9  1  0
 17 12  1  0
 19 14  1  0
M  END
>  <energy_score>  (1810) 
-11.422114

>  <inchikey>  (1810) 
None

>  <smiles>  (1810) 
None

>  <ref_pdb>  (1810) 
A4237b

>  <alias>  (1810) 
None

>  <HIPPO Pose ID>  (1810) 
499454

>  <name>  (1810) 
P499454

>  <HIPPO Compound ID>  (1810) 
303155

>  <ref_mols>  (1810) 
A4237b,A3618a

>  <distance_score>  (1810) 
1.78971

>  <inspiration_score>  (1810) 
None

$$$$
P499455
     RDKit          3D

 23 25  0  0  0  0  0  0  0  0999 V2000
   10.5146    9.7886   24.5046 C   0  0  0  0  0  0  0  0  0  0  0  0
   10.6751   11.2322   24.6032 N   0  0  0  0  0  0  0  0  0  0  0  0
    9.6330   12.0599   24.0355 C   0  0  0  0  0  0  0  0  0  0  0  0
    9.2370   13.1528   25.0774 C   0  0  2  0  0  0  0  0  0  0  0  0
    8.0621   14.0749   24.6198 N   0  0  0  0  0  0  0  0  0  0  0  0
    7.9449   14.0461   23.1966 C   0  0  0  0  0  0  0  0  0  0  0  0
    7.2917   13.3359   22.4810 O   0  0  0  0  0  0  0  0  0  0  0  0
    8.7119   15.1756   22.5421 C   0  0  1  0  0  0  0  0  0  0  0  0
    9.7916   14.8796   21.5466 C   0  0  0  0  0  0  0  0  0  0  0  0
    8.0007   16.5128   22.4377 C   0  0  0  0  0  0  0  0  0  0  0  0
    9.0342   16.2925   23.3987 O   0  0  0  0  0  0  0  0  0  0  0  0
    7.2961   13.2796   25.7193 C   0  0  2  0  0  0  0  0  0  0  0  0
    7.0096   11.7612   25.5956 C   0  0  0  0  0  0  0  0  0  0  0  0
    6.0086   11.2518   26.6229 C   0  0  0  0  0  0  0  0  0  0  0  0
    4.7814   12.0893   26.8645 C   0  0  0  0  0  0  0  0  0  0  0  0
    3.7752   11.5840   27.3633 O   0  0  0  0  0  0  0  0  0  0  0  0
    4.9191   13.4481   26.6481 N   0  0  0  0  0  0  0  0  0  0  0  0
    3.7303   14.2588   26.8409 C   0  0  0  0  0  0  0  0  0  0  0  0
    5.8721   13.9366   25.6636 C   0  0  0  0  0  0  0  0  0  0  0  0
   10.5047   14.0376   25.3058 C   0  0  0  0  0  0  0  0  0  0  0  0
   11.8352   13.3648   24.9546 C   0  0  0  0  0  0  0  0  0  0  0  0
   11.8391   11.8481   25.0299 C   0  0  0  0  0  0  0  0  0  0  0  0
   12.8488   11.2249   25.3549 O   0  0  0  0  0  0  0  0  0  0  0  0
  1  2  1  0
  2  3  1  0
  3  4  1  0
  4  5  1  6
  5  6  1  0
  6  7  2  0
  6  8  1  0
  8  9  1  6
  8 10  1  0
 10 11  1  0
 12  5  1  6
 12 13  1  0
 13 14  1  0
 14 15  1  0
 15 16  2  0
 15 17  1  0
 17 18  1  0
 17 19  1  0
  4 20  1  0
 20 21  1  0
 21 22  1  0
 22 23  2  0
 22  2  1  0
 11  8  1  0
 19 12  1  0
M  END
>  <energy_score>  (1811) 
-14.167994

>  <inchikey>  (1811) 
None

>  <smiles>  (1811) 
None

>  <ref_pdb>  (1811) 
A4237b

>  <alias>  (1811) 
None

>  <HIPPO Pose ID>  (1811) 
499455

>  <name>  (1811) 
P499455

>  <HIPPO Compound ID>  (1811) 
303194

>  <ref_mols>  (1811) 
A4237b,A3618a

>  <distance_score>  (1811) 
1.693959

>  <inspiration_score>  (1811) 
None

$$$$
P499456
     RDKit          3D

 23 25  0  0  0  0  0  0  0  0999 V2000
   10.4898    9.5065   24.3833 C   0  0  0  0  0  0  0  0  0  0  0  0
   10.5924   10.9258   24.7033 N   0  0  0  0  0  0  0  0  0  0  0  0
    9.5850   11.7727   24.0923 C   0  0  0  0  0  0  0  0  0  0  0  0
    9.3065   13.0283   24.9723 C   0  0  2  0  0  0  0  0  0  0  0  0
    8.2121   13.9984   24.4258 N   0  0  0  0  0  0  0  0  0  0  0  0
    8.0702   13.8303   23.0218 C   0  0  0  0  0  0  0  0  0  0  0  0
    7.3460   13.1125   22.3925 O   0  0  0  0  0  0  0  0  0  0  0  0
    9.0401   14.6485   22.2364 C   0  0  1  0  0  0  0  0  0  0  0  0
    8.6160   15.9689   21.6493 C   0  0  0  0  0  0  0  0  0  0  0  0
    9.6316   15.9391   22.7381 C   0  0  2  0  0  0  0  0  0  0  0  0
   11.3049   16.2781   22.3556 Cl  0  0  0  0  0  0  0  0  0  0  0  0
    7.3883   13.3911   25.6196 C   0  0  2  0  0  0  0  0  0  0  0  0
    7.0316   11.8785   25.6869 C   0  0  0  0  0  0  0  0  0  0  0  0
    6.0334   11.5523   26.7831 C   0  0  0  0  0  0  0  0  0  0  0  0
    4.7946   12.4008   26.8086 C   0  0  0  0  0  0  0  0  0  0  0  0
    3.7440   11.9533   27.2673 O   0  0  0  0  0  0  0  0  0  0  0  0
    4.9755   13.7277   26.4486 N   0  0  0  0  0  0  0  0  0  0  0  0
    3.7843   14.5571   26.4643 C   0  0  0  0  0  0  0  0  0  0  0  0
    5.9892   14.0904   25.4643 C   0  0  0  0  0  0  0  0  0  0  0  0
   10.6668   13.7798   24.9171 C   0  0  0  0  0  0  0  0  0  0  0  0
   11.7939   12.9508   25.5083 C   0  0  0  0  0  0  0  0  0  0  0  0
   11.7947   11.4861   25.1111 C   0  0  0  0  0  0  0  0  0  0  0  0
   12.8272   10.8209   25.2335 O   0  0  0  0  0  0  0  0  0  0  0  0
  1  2  1  0
  2  3  1  0
  3  4  1  0
  4  5  1  6
  5  6  1  0
  6  7  2  0
  8  6  1  1
  8  9  1  0
  9 10  1  0
 10 11  1  6
 12  5  1  6
 12 13  1  0
 13 14  1  0
 14 15  1  0
 15 16  2  0
 15 17  1  0
 17 18  1  0
 17 19  1  0
  4 20  1  0
 20 21  1  0
 21 22  1  0
 22 23  2  0
 22  2  1  0
 10  8  1  0
 19 12  1  0
M  END
>  <energy_score>  (1812) 
-15.183659

>  <inchikey>  (1812) 
None

>  <smiles>  (1812) 
None

>  <ref_pdb>  (1812) 
A4237b

>  <alias>  (1812) 
None

>  <HIPPO Pose ID>  (1812) 
499456

>  <name>  (1812) 
P499456

>  <HIPPO Compound ID>  (1812) 
303225

>  <ref_mols>  (1812) 
A4237b,A3618a

>  <distance_score>  (1812) 
1.868437

>  <inspiration_score>  (1812) 
None

$$$$
P499457
     RDKit          3D

 23 25  0  0  0  0  0  0  0  0999 V2000
   10.4677    9.3479   24.2643 C   0  0  0  0  0  0  0  0  0  0  0  0
   10.5760   10.7579   24.6168 N   0  0  0  0  0  0  0  0  0  0  0  0
    9.5450   11.6259   24.0846 C   0  0  0  0  0  0  0  0  0  0  0  0
    9.2235   12.7484   25.1088 C   0  0  2  0  0  0  0  0  0  0  0  0
    8.0833   13.7199   24.7007 N   0  0  0  0  0  0  0  0  0  0  0  0
    7.9229   13.7144   23.2929 C   0  0  0  0  0  0  0  0  0  0  0  0
    7.2194   13.0443   22.5904 O   0  0  0  0  0  0  0  0  0  0  0  0
    8.7463   14.7684   22.6285 C   0  0  1  0  0  0  0  0  0  0  0  0
    8.0896   16.0714   22.2377 C   0  0  0  0  0  0  0  0  0  0  0  0
    9.1805   16.0664   23.2566 C   0  0  1  0  0  0  0  0  0  0  0  0
    8.8013   16.5512   24.8863 Cl  0  0  0  0  0  0  0  0  0  0  0  0
    7.3164   12.9443   25.8167 C   0  0  2  0  0  0  0  0  0  0  0  0
    6.9682   11.4424   25.6992 C   0  0  0  0  0  0  0  0  0  0  0  0
    5.9326   10.9595   26.7059 C   0  0  0  0  0  0  0  0  0  0  0  0
    4.7713   11.8689   27.0085 C   0  0  0  0  0  0  0  0  0  0  0  0
    3.7506   11.4155   27.5270 O   0  0  0  0  0  0  0  0  0  0  0  0
    4.9832   13.2208   26.8178 N   0  0  0  0  0  0  0  0  0  0  0  0
    3.8514   14.0961   27.0657 C   0  0  0  0  0  0  0  0  0  0  0  0
    5.9277   13.6725   25.8105 C   0  0  0  0  0  0  0  0  0  0  0  0
   10.5391   13.5819   25.1294 C   0  0  0  0  0  0  0  0  0  0  0  0
   11.7617   12.7601   25.5005 C   0  0  0  0  0  0  0  0  0  0  0  0
   11.7561   11.3037   25.0845 C   0  0  0  0  0  0  0  0  0  0  0  0
   12.7884   10.6361   25.2094 O   0  0  0  0  0  0  0  0  0  0  0  0
  1  2  1  0
  2  3  1  0
  3  4  1  0
  4  5  1  6
  5  6  1  0
  6  7  2  0
  8  6  1  1
  8  9  1  0
  9 10  1  0
 10 11  1  1
 12  5  1  6
 12 13  1  0
 13 14  1  0
 14 15  1  0
 15 16  2  0
 15 17  1  0
 17 18  1  0
 17 19  1  0
  4 20  1  0
 20 21  1  0
 21 22  1  0
 22 23  2  0
 22  2  1  0
 10  8  1  0
 19 12  1  0
M  END
>  <energy_score>  (1813) 
-9.39887

>  <inchikey>  (1813) 
None

>  <smiles>  (1813) 
None

>  <ref_pdb>  (1813) 
A4237b

>  <alias>  (1813) 
None

>  <HIPPO Pose ID>  (1813) 
499457

>  <name>  (1813) 
P499457

>  <HIPPO Compound ID>  (1813) 
303225

>  <ref_mols>  (1813) 
A4237b,A3618a

>  <distance_score>  (1813) 
1.745178

>  <inspiration_score>  (1813) 
None

$$$$
P499458
     RDKit          3D

 24 26  0  0  0  0  0  0  0  0999 V2000
   10.4299    9.5607   24.3570 C   0  0  0  0  0  0  0  0  0  0  0  0
   10.4647   10.9753   24.7036 N   0  0  0  0  0  0  0  0  0  0  0  0
    9.4253   11.7934   24.1164 C   0  0  0  0  0  0  0  0  0  0  0  0
    9.0148   12.9448   25.0796 C   0  0  2  0  0  0  0  0  0  0  0  0
    7.8432   13.8323   24.5776 N   0  0  0  0  0  0  0  0  0  0  0  0
    7.8433   13.8793   23.1525 C   0  0  0  0  0  0  0  0  0  0  0  0
    7.2866   13.1828   22.3488 O   0  0  0  0  0  0  0  0  0  0  0  0
    8.6039   15.0801   22.6050 C   0  0  0  0  0  0  0  0  0  0  0  0
    9.4858   14.8206   21.4008 C   0  0  0  0  0  0  0  0  0  0  0  0
   10.5815   13.9908   21.7639 O   0  0  0  0  0  0  0  0  0  0  0  0
    7.8411   16.4004   22.5841 C   0  0  0  0  0  0  0  0  0  0  0  0
    9.0025   16.2369   23.5085 C   0  0  0  0  0  0  0  0  0  0  0  0
    7.0385   12.9499   25.5549 C   0  0  1  0  0  0  0  0  0  0  0  0
    6.9486   11.4021   25.6990 C   0  0  0  0  0  0  0  0  0  0  0  0
    5.8933   10.9343   26.7068 C   0  0  0  0  0  0  0  0  0  0  0  0
    4.9142   11.9729   27.2060 C   0  0  0  0  0  0  0  0  0  0  0  0
    3.7599   11.6593   27.4918 O   0  0  0  0  0  0  0  0  0  0  0  0
    5.4362   13.2399   27.4137 N   0  0  0  0  0  0  0  0  0  0  0  0
    4.5675   14.2907   27.9072 C   0  0  0  0  0  0  0  0  0  0  0  0
    6.7592   13.6214   26.9182 C   0  0  0  0  0  0  0  0  0  0  0  0
   10.3032   13.8215   25.1397 C   0  0  0  0  0  0  0  0  0  0  0  0
   11.5590   13.0485   25.5248 C   0  0  0  0  0  0  0  0  0  0  0  0
   11.6386   11.5928   25.0991 C   0  0  0  0  0  0  0  0  0  0  0  0
   12.7074   10.9835   25.1990 O   0  0  0  0  0  0  0  0  0  0  0  0
  1  2  1  0
  2  3  1  0
  3  4  1  0
  4  5  1  6
  5  6  1  0
  6  7  2  0
  6  8  1  0
  8  9  1  0
  9 10  1  0
  8 11  1  0
 11 12  1  0
 13  5  1  1
 13 14  1  0
 14 15  1  0
 15 16  1  0
 16 17  2  0
 16 18  1  0
 18 19  1  0
 18 20  1  0
  4 21  1  0
 21 22  1  0
 22 23  1  0
 23 24  2  0
 23  2  1  0
 12  8  1  0
 20 13  1  0
M  END
>  <energy_score>  (1814) 
-8.451558

>  <inchikey>  (1814) 
None

>  <smiles>  (1814) 
None

>  <ref_pdb>  (1814) 
A4237b

>  <alias>  (1814) 
None

>  <HIPPO Pose ID>  (1814) 
499458

>  <name>  (1814) 
P499458

>  <HIPPO Compound ID>  (1814) 
303348

>  <ref_mols>  (1814) 
A4237b,A3618a

>  <distance_score>  (1814) 
1.940501

>  <inspiration_score>  (1814) 
None

$$$$
P499459
     RDKit          3D

 24 26  0  0  0  0  0  0  0  0999 V2000
   10.3196   10.2029   24.5518 C   0  0  0  0  0  0  0  0  0  0  0  0
   10.3048   11.6292   24.8511 N   0  0  0  0  0  0  0  0  0  0  0  0
    9.3851   12.4187   24.0575 C   0  0  0  0  0  0  0  0  0  0  0  0
    8.9575   13.7655   24.7442 C   0  0  1  0  0  0  0  0  0  0  0  0
    7.7125   14.4657   24.2442 N   0  0  0  0  0  0  0  0  0  0  0  0
    7.5573   14.2392   22.8488 C   0  0  0  0  0  0  0  0  0  0  0  0
    6.9680   13.3772   22.2589 O   0  0  0  0  0  0  0  0  0  0  0  0
    8.2858   15.3014   22.0716 C   0  0  2  0  0  0  0  0  0  0  0  0
    9.0604   14.9396   20.8258 C   0  0  0  0  0  0  0  0  0  0  0  0
    9.8106   15.3352   22.0373 C   0  0  1  0  0  0  0  0  0  0  0  0
   10.5586   16.6018   22.1093 C   0  0  0  0  0  0  0  0  0  0  0  0
   12.3601   16.2189   21.5220 Br  0  0  0  0  0  0  0  0  0  0  0  0
    7.0710   13.7394   25.4764 C   0  0  2  0  0  0  0  0  0  0  0  0
    7.0182   12.2065   25.6869 C   0  0  0  0  0  0  0  0  0  0  0  0
    6.1460   11.8032   26.8631 C   0  0  0  0  0  0  0  0  0  0  0  0
    4.7580   12.3752   26.8608 C   0  0  0  0  0  0  0  0  0  0  0  0
    3.8305   11.7622   27.3878 O   0  0  0  0  0  0  0  0  0  0  0  0
    4.6520   13.6704   26.3826 N   0  0  0  0  0  0  0  0  0  0  0  0
    3.3190   14.2451   26.3756 C   0  0  0  0  0  0  0  0  0  0  0  0
    5.5557   14.1524   25.3435 C   0  0  0  0  0  0  0  0  0  0  0  0
    9.7426   14.1472   26.0088 C   0  0  0  0  0  0  0  0  0  0  0  0
   11.2100   13.7162   25.8268 C   0  0  0  0  0  0  0  0  0  0  0  0
   11.4087   12.2624   25.3997 C   0  0  0  0  0  0  0  0  0  0  0  0
   12.4975   11.7076   25.5456 O   0  0  0  0  0  0  0  0  0  0  0  0
  1  2  1  0
  2  3  1  0
  3  4  1  0
  4  5  1  1
  5  6  1  0
  6  7  2  0
  8  6  1  1
  8  9  1  0
  9 10  1  0
 10 11  1  6
 11 12  1  0
 13  5  1  6
 13 14  1  0
 14 15  1  0
 15 16  1  0
 16 17  2  0
 16 18  1  0
 18 19  1  0
 18 20  1  0
  4 21  1  0
 21 22  1  0
 22 23  1  0
 23 24  2  0
 23  2  1  0
 10  8  1  0
 20 13  1  0
M  END
>  <energy_score>  (1815) 
-5.966246

>  <inchikey>  (1815) 
None

>  <smiles>  (1815) 
None

>  <ref_pdb>  (1815) 
A4237b

>  <alias>  (1815) 
None

>  <HIPPO Pose ID>  (1815) 
499459

>  <name>  (1815) 
P499459

>  <HIPPO Compound ID>  (1815) 
303353

>  <ref_mols>  (1815) 
A4237b,A3618a

>  <distance_score>  (1815) 
1.965273

>  <inspiration_score>  (1815) 
None

$$$$
P499460
     RDKit          3D

 24 26  0  0  0  0  0  0  0  0999 V2000
   10.6275    9.6144   24.5531 C   0  0  0  0  0  0  0  0  0  0  0  0
   10.7518   11.0584   24.6758 N   0  0  0  0  0  0  0  0  0  0  0  0
    9.7099   11.8582   24.0741 C   0  0  0  0  0  0  0  0  0  0  0  0
    9.3126   13.0057   25.0520 C   0  0  2  0  0  0  0  0  0  0  0  0
    8.2229   13.9739   24.4850 N   0  0  0  0  0  0  0  0  0  0  0  0
    8.1001   13.8002   23.0786 C   0  0  0  0  0  0  0  0  0  0  0  0
    7.3848   13.0785   22.4418 O   0  0  0  0  0  0  0  0  0  0  0  0
    9.1003   14.5789   22.2817 C   0  0  1  0  0  0  0  0  0  0  0  0
    8.6810   15.8798   21.6455 C   0  0  0  0  0  0  0  0  0  0  0  0
    9.7532   15.8740   22.6934 C   0  0  2  0  0  0  0  0  0  0  0  0
   11.1701   16.1343   22.3000 C   0  0  0  0  0  0  0  0  0  0  0  0
   11.9634   15.8084   23.3539 F   0  0  0  0  0  0  0  0  0  0  0  0
    7.3886   13.3732   25.6627 C   0  0  2  0  0  0  0  0  0  0  0  0
    6.9872   11.8655   25.6302 C   0  0  0  0  0  0  0  0  0  0  0  0
    5.9796   11.4987   26.7033 C   0  0  0  0  0  0  0  0  0  0  0  0
    4.7766   12.3936   26.8056 C   0  0  0  0  0  0  0  0  0  0  0  0
    3.7178   11.9594   27.2589 O   0  0  0  0  0  0  0  0  0  0  0  0
    4.9992   13.7325   26.5207 N   0  0  0  0  0  0  0  0  0  0  0  0
    3.8408   14.6025   26.6079 C   0  0  0  0  0  0  0  0  0  0  0  0
    6.0134   14.1178   25.5449 C   0  0  0  0  0  0  0  0  0  0  0  0
   10.5903   13.8456   25.3715 C   0  0  0  0  0  0  0  0  0  0  0  0
   11.8993   13.2084   24.9137 C   0  0  0  0  0  0  0  0  0  0  0  0
   11.9234   11.6990   25.0554 C   0  0  0  0  0  0  0  0  0  0  0  0
   12.9462   11.0955   25.3757 O   0  0  0  0  0  0  0  0  0  0  0  0
  1  2  1  0
  2  3  1  0
  3  4  1  0
  4  5  1  6
  5  6  1  0
  6  7  2  0
  8  6  1  1
  8  9  1  0
  9 10  1  0
 10 11  1  6
 11 12  1  0
 13  5  1  6
 13 14  1  0
 14 15  1  0
 15 16  1  0
 16 17  2  0
 16 18  1  0
 18 19  1  0
 18 20  1  0
  4 21  1  0
 21 22  1  0
 22 23  1  0
 23 24  2  0
 23  2  1  0
 10  8  1  0
 20 13  1  0
M  END
>  <energy_score>  (1816) 
-8.937834

>  <inchikey>  (1816) 
None

>  <smiles>  (1816) 
None

>  <ref_pdb>  (1816) 
A4237b

>  <alias>  (1816) 
None

>  <HIPPO Pose ID>  (1816) 
499460

>  <name>  (1816) 
P499460

>  <HIPPO Compound ID>  (1816) 
303369

>  <ref_mols>  (1816) 
A4237b,A3618a

>  <distance_score>  (1816) 
1.750355

>  <inspiration_score>  (1816) 
None

$$$$
P499461
     RDKit          3D

 25 26  0  0  0  0  0  0  0  0999 V2000
   10.7384   11.9263   25.5517 C   0  0  0  0  0  0  0  0  0  0  0  0
    9.7981   12.1998   24.3901 C   0  0  1  0  0  0  0  0  0  0  0  0
    9.6484   11.0137   23.3906 C   0  0  0  0  0  0  0  0  0  0  0  0
   10.1193    9.7793   23.9202 O   0  0  0  0  0  0  0  0  0  0  0  0
    8.8222   13.4110   24.3848 N   0  0  0  0  0  0  0  0  0  0  0  0
    8.4301   13.7138   23.0446 C   0  0  0  0  0  0  0  0  0  0  0  0
    7.4968   13.3212   22.3962 O   0  0  0  0  0  0  0  0  0  0  0  0
    9.4814   14.6865   22.4442 C   0  0  0  0  0  0  0  0  0  0  0  0
    9.8247   15.8345   23.3947 C   0  0  0  0  0  0  0  0  0  0  0  0
   11.4641   15.4704   24.3905 Br  0  0  0  0  0  0  0  0  0  0  0  0
    8.9600   15.2735   21.1425 C   0  0  0  0  0  0  0  0  0  0  0  0
   10.4556   15.7881   19.9884 Br  0  0  0  0  0  0  0  0  0  0  0  0
    8.1036   12.5624   25.4976 C   0  0  2  0  0  0  0  0  0  0  0  0
    7.4080   11.2113   25.2362 C   0  0  0  0  0  0  0  0  0  0  0  0
    6.3685   10.7744   26.2693 C   0  0  0  0  0  0  0  0  0  0  0  0
    5.3909   11.8479   26.6861 C   0  0  0  0  0  0  0  0  0  0  0  0
    6.0945   13.0767   27.0441 N   0  0  0  0  0  0  0  0  0  0  0  0
    5.1587   14.1079   27.5473 C   0  0  0  0  0  0  0  0  0  0  0  0
    3.8099   14.2369   26.8603 C   0  0  0  0  0  0  0  0  0  0  0  0
    2.6577   13.6943   27.4585 C   0  0  0  0  0  0  0  0  0  0  0  0
    1.4188   13.7620   26.8174 C   0  0  0  0  0  0  0  0  0  0  0  0
    1.3157   14.3698   25.5692 C   0  0  0  0  0  0  0  0  0  0  0  0
    2.4467   14.9194   24.9685 C   0  0  0  0  0  0  0  0  0  0  0  0
    3.6847   14.8631   25.6131 C   0  0  0  0  0  0  0  0  0  0  0  0
    6.9080   13.5452   25.9098 C   0  0  0  0  0  0  0  0  0  0  0  0
  2  1  1  1
  2  3  1  0
  3  4  1  0
  2  5  1  0
  5  6  1  0
  6  7  2  0
  6  8  1  0
  8  9  1  0
  9 10  1  0
  8 11  1  0
 11 12  1  0
 13  5  1  6
 13 14  1  0
 14 15  1  0
 15 16  1  0
 16 17  1  0
 17 18  1  0
 18 19  1  0
 19 20  2  0
 20 21  1  0
 21 22  2  0
 22 23  1  0
 23 24  2  0
 17 25  1  0
 25 13  1  0
 24 19  1  0
M  END
>  <energy_score>  (1817) 
-34.241184

>  <inchikey>  (1817) 
None

>  <smiles>  (1817) 
None

>  <ref_pdb>  (1817) 
A4237b

>  <alias>  (1817) 
None

>  <HIPPO Pose ID>  (1817) 
499461

>  <name>  (1817) 
P499461

>  <HIPPO Compound ID>  (1817) 
303434

>  <ref_mols>  (1817) 
A4237b,A3618a

>  <distance_score>  (1817) 
1.630928

>  <inspiration_score>  (1817) 
None

$$$$
P499462
     RDKit          3D

 24 25  0  0  0  0  0  0  0  0999 V2000
    5.7769   14.5843   25.6569 C   0  0  0  0  0  0  0  0  0  0  0  0
    6.6511   13.6629   24.8165 C   0  0  1  0  0  0  0  0  0  0  0  0
    6.9903   14.1713   23.3635 C   0  0  0  0  0  0  0  0  0  0  0  0
    7.8298   15.4652   23.1757 C   0  0  0  0  0  0  0  0  0  0  0  0
    7.5984   16.4272   23.8016 O   0  0  0  0  0  0  0  0  0  0  0  0
    8.9473   15.1919   22.1116 N   0  0  0  0  0  0  0  0  0  0  0  0
    9.9549   16.0946   21.5319 C   0  0  0  0  0  0  0  0  0  0  0  0
   11.2404   15.4050   20.9461 C   0  0  0  0  0  0  0  0  0  0  0  0
   10.8286   14.7698   19.6165 C   0  0  0  0  0  0  0  0  0  0  0  0
   11.7294   14.2968   21.8766 C   0  0  0  0  0  0  0  0  0  0  0  0
   12.4445   16.3787   20.7707 C   0  0  0  0  0  0  0  0  0  0  0  0
   12.5958   17.0439   19.4211 C   0  0  0  0  0  0  0  0  0  0  0  0
   13.6444   17.9001   19.4420 F   0  0  0  0  0  0  0  0  0  0  0  0
   11.4974   17.7759   19.1303 F   0  0  0  0  0  0  0  0  0  0  0  0
   12.8426   16.1533   18.4450 F   0  0  0  0  0  0  0  0  0  0  0  0
    7.8024   13.2155   25.6358 N   0  0  0  0  0  0  0  0  0  0  0  0
    8.8776   14.2085   25.8835 C   0  0  0  0  0  0  0  0  0  0  0  0
   10.1048   13.8270   25.0459 C   0  0  0  0  0  0  0  0  0  0  0  0
    9.7120   12.4880   24.5334 C   0  0  0  0  0  0  0  0  0  0  0  0
   10.3661   11.6602   23.6548 C   0  0  0  0  0  0  0  0  0  0  0  0
    9.7728   10.4459   23.2857 C   0  0  0  0  0  0  0  0  0  0  0  0
    8.5597   10.0458   23.8343 C   0  0  0  0  0  0  0  0  0  0  0  0
    7.8854   10.9066   24.6872 C   0  0  0  0  0  0  0  0  0  0  0  0
    8.4531   12.1406   24.9861 C   0  0  0  0  0  0  0  0  0  0  0  0
  2  1  1  1
  2  3  1  0
  3  4  1  0
  4  5  2  0
  4  6  1  0
  6  7  1  0
  7  8  1  0
  8  9  1  0
  8 10  1  0
  8 11  1  0
 11 12  1  0
 12 13  1  0
 12 14  1  0
 12 15  1  0
  2 16  1  0
 16 17  1  0
 17 18  1  0
 18 19  1  0
 19 20  2  0
 20 21  1  0
 21 22  2  0
 22 23  1  0
 23 24  2  0
 24 16  1  0
 24 19  1  0
M  END
>  <energy_score>  (1818) 
-15.951351

>  <inchikey>  (1818) 
None

>  <smiles>  (1818) 
None

>  <ref_pdb>  (1818) 
A3371a

>  <alias>  (1818) 
None

>  <HIPPO Pose ID>  (1818) 
499462

>  <name>  (1818) 
P499462

>  <HIPPO Compound ID>  (1818) 
305667

>  <ref_mols>  (1818) 
A1778a,A3371a

>  <distance_score>  (1818) 
1.7514

>  <inspiration_score>  (1818) 
None

$$$$
P499463
     RDKit          3D

 25 27  0  0  0  0  0  0  0  0999 V2000
    5.8094   13.5741   25.3140 C   0  0  0  0  0  0  0  0  0  0  0  0
    7.1433   14.2216   24.9374 C   0  0  2  0  0  0  0  0  0  0  0  0
    7.3999   14.4545   23.3885 C   0  0  0  0  0  0  0  0  0  0  0  0
    7.8849   15.8986   23.0501 C   0  0  0  0  0  0  0  0  0  0  0  0
    7.3653   16.7999   23.5888 O   0  0  0  0  0  0  0  0  0  0  0  0
    8.9678   15.8814   21.9206 N   0  0  0  0  0  0  0  0  0  0  0  0
    9.6960   16.9727   21.2961 C   0  0  0  0  0  0  0  0  0  0  0  0
   10.7777   16.6694   20.2819 C   0  0  2  0  0  0  0  0  0  0  0  0
   11.9135   15.6691   20.3787 C   0  0  2  0  0  0  0  0  0  0  0  0
   11.9669   14.6929   21.4801 C   0  0  0  0  0  0  0  0  0  0  0  0
   10.7559   13.9586   21.4432 O   0  0  0  0  0  0  0  0  0  0  0  0
   12.2185   17.1269   20.6071 C   0  0  1  0  0  0  0  0  0  0  0  0
   13.0267   17.9318   19.6519 C   0  0  0  0  0  0  0  0  0  0  0  0
   13.5221   17.1917   18.6411 F   0  0  0  0  0  0  0  0  0  0  0  0
   12.2671   18.9280   19.1329 F   0  0  0  0  0  0  0  0  0  0  0  0
   14.0766   18.5285   20.2732 F   0  0  0  0  0  0  0  0  0  0  0  0
    8.2432   13.5245   25.6662 N   0  0  0  0  0  0  0  0  0  0  0  0
    9.4559   14.3706   25.8082 C   0  0  0  0  0  0  0  0  0  0  0  0
   10.4704   13.9464   24.7487 C   0  0  0  0  0  0  0  0  0  0  0  0
    9.9397   12.6146   24.3686 C   0  0  0  0  0  0  0  0  0  0  0  0
   10.4224   11.7369   23.4310 C   0  0  0  0  0  0  0  0  0  0  0  0
    9.7413   10.5388   23.2009 C   0  0  0  0  0  0  0  0  0  0  0  0
    8.5926   10.2304   23.9232 C   0  0  0  0  0  0  0  0  0  0  0  0
    8.0669   11.1658   24.8109 C   0  0  0  0  0  0  0  0  0  0  0  0
    8.7218   12.3780   24.9841 C   0  0  0  0  0  0  0  0  0  0  0  0
  2  1  1  6
  2  3  1  0
  3  4  1  0
  4  5  2  0
  4  6  1  0
  6  7  1  0
  8  7  1  1
  8  9  1  0
  9 10  1  1
 10 11  1  0
  9 12  1  0
 12 13  1  6
 13 14  1  0
 13 15  1  0
 13 16  1  0
  2 17  1  0
 17 18  1  0
 18 19  1  0
 19 20  1  0
 20 21  2  0
 21 22  1  0
 22 23  2  0
 23 24  1  0
 24 25  2  0
 12  8  1  0
 25 17  1  0
 25 20  1  0
M  END
>  <energy_score>  (1819) 
-7.305806

>  <inchikey>  (1819) 
None

>  <smiles>  (1819) 
None

>  <ref_pdb>  (1819) 
A3371a

>  <alias>  (1819) 
None

>  <HIPPO Pose ID>  (1819) 
499463

>  <name>  (1819) 
P499463

>  <HIPPO Compound ID>  (1819) 
305671

>  <ref_mols>  (1819) 
A1778a,A3371a

>  <distance_score>  (1819) 
1.996943

>  <inspiration_score>  (1819) 
None

$$$$
P499464
     RDKit          3D

 25 27  0  0  0  0  0  0  0  0999 V2000
    5.9164   13.5613   25.4818 C   0  0  0  0  0  0  0  0  0  0  0  0
    7.2137   14.2405   25.0268 C   0  0  2  0  0  0  0  0  0  0  0  0
    7.3327   14.4706   23.4782 C   0  0  0  0  0  0  0  0  0  0  0  0
    7.9067   15.8544   23.0244 C   0  0  0  0  0  0  0  0  0  0  0  0
    7.5403   16.8442   23.5315 O   0  0  0  0  0  0  0  0  0  0  0  0
    8.8707   15.6342   21.8139 N   0  0  0  0  0  0  0  0  0  0  0  0
    9.5032   16.5961   20.9221 C   0  0  0  0  0  0  0  0  0  0  0  0
   10.9496   16.9510   21.1714 C   0  0  1  0  0  0  0  0  0  0  0  0
   12.1664   16.0314   21.2881 C   0  0  1  0  0  0  0  0  0  0  0  0
   12.1567   14.5554   21.1938 C   0  0  0  0  0  0  0  0  0  0  0  0
   10.8296   14.0875   21.0694 O   0  0  0  0  0  0  0  0  0  0  0  0
   11.9639   16.8352   20.0286 C   0  0  2  0  0  0  0  0  0  0  0  0
   12.8998   17.9237   19.6376 C   0  0  0  0  0  0  0  0  0  0  0  0
   13.7359   17.5058   18.6625 F   0  0  0  0  0  0  0  0  0  0  0  0
   13.6708   18.3833   20.6526 F   0  0  0  0  0  0  0  0  0  0  0  0
   12.1997   18.9859   19.1660 F   0  0  0  0  0  0  0  0  0  0  0  0
    8.3762   13.5388   25.6442 N   0  0  0  0  0  0  0  0  0  0  0  0
    9.5995   14.3821   25.6941 C   0  0  0  0  0  0  0  0  0  0  0  0
   10.5383   13.9589   24.5637 C   0  0  0  0  0  0  0  0  0  0  0  0
    9.9698   12.6350   24.2145 C   0  0  0  0  0  0  0  0  0  0  0  0
   10.3897   11.7555   23.2498 C   0  0  0  0  0  0  0  0  0  0  0  0
    9.7095   10.5467   23.0880 C   0  0  0  0  0  0  0  0  0  0  0  0
    8.6139   10.2397   23.8906 C   0  0  0  0  0  0  0  0  0  0  0  0
    8.1409   11.1819   24.8013 C   0  0  0  0  0  0  0  0  0  0  0  0
    8.8019   12.3968   24.9218 C   0  0  0  0  0  0  0  0  0  0  0  0
  2  1  1  6
  2  3  1  0
  3  4  1  0
  4  5  2  0
  4  6  1  0
  6  7  1  0
  8  7  1  6
  8  9  1  0
  9 10  1  6
 10 11  1  0
  9 12  1  0
 12 13  1  1
 13 14  1  0
 13 15  1  0
 13 16  1  0
  2 17  1  0
 17 18  1  0
 18 19  1  0
 19 20  1  0
 20 21  2  0
 21 22  1  0
 22 23  2  0
 23 24  1  0
 24 25  2  0
 12  8  1  0
 25 17  1  0
 25 20  1  0
M  END
>  <energy_score>  (1820) 
-10.795108

>  <inchikey>  (1820) 
None

>  <smiles>  (1820) 
None

>  <ref_pdb>  (1820) 
A3371a

>  <alias>  (1820) 
None

>  <HIPPO Pose ID>  (1820) 
499464

>  <name>  (1820) 
P499464

>  <HIPPO Compound ID>  (1820) 
305671

>  <ref_mols>  (1820) 
A1778a,A3371a

>  <distance_score>  (1820) 
1.988249

>  <inspiration_score>  (1820) 
None

$$$$
P499465
     RDKit          3D

 25 27  0  0  0  0  0  0  0  0999 V2000
    5.8045   14.4134   25.4587 C   0  0  0  0  0  0  0  0  0  0  0  0
    6.7997   13.5806   24.6615 C   0  0  1  0  0  0  0  0  0  0  0  0
    7.2303   14.1366   23.2305 C   0  0  0  0  0  0  0  0  0  0  0  0
    7.8343   15.5613   23.0870 C   0  0  0  0  0  0  0  0  0  0  0  0
    7.4267   16.4299   23.7616 O   0  0  0  0  0  0  0  0  0  0  0  0
    8.9115   15.5828   21.9395 N   0  0  0  0  0  0  0  0  0  0  0  0
    9.6262   16.6991   21.3361 C   0  0  0  0  0  0  0  0  0  0  0  0
   10.6939   16.4575   20.2873 C   0  0  2  0  0  0  0  0  0  0  0  0
   11.9522   15.5937   20.2856 C   0  0  2  0  0  0  0  0  0  0  0  0
   12.4271   14.6516   21.3147 C   0  0  0  0  0  0  0  0  0  0  0  0
   11.6242   14.7199   22.4609 O   0  0  0  0  0  0  0  0  0  0  0  0
   12.0962   17.0687   20.5581 C   0  0  1  0  0  0  0  0  0  0  0  0
   12.8437   17.9499   19.6211 C   0  0  0  0  0  0  0  0  0  0  0  0
   12.0199   18.9129   19.1431 F   0  0  0  0  0  0  0  0  0  0  0  0
   13.3819   17.2740   18.5883 F   0  0  0  0  0  0  0  0  0  0  0  0
   13.8617   18.5881   20.2564 F   0  0  0  0  0  0  0  0  0  0  0  0
    7.8993   13.1736   25.5815 N   0  0  0  0  0  0  0  0  0  0  0  0
    8.9355   14.2023   25.8350 C   0  0  0  0  0  0  0  0  0  0  0  0
   10.1370   13.9114   24.9318 C   0  0  0  0  0  0  0  0  0  0  0  0
    9.8103   12.5573   24.4127 C   0  0  0  0  0  0  0  0  0  0  0  0
   10.4014   11.8261   23.4126 C   0  0  0  0  0  0  0  0  0  0  0  0
    9.8336   10.5914   23.0588 C   0  0  0  0  0  0  0  0  0  0  0  0
    8.7288   10.0729   23.7292 C   0  0  0  0  0  0  0  0  0  0  0  0
    8.0917   10.8566   24.6752 C   0  0  0  0  0  0  0  0  0  0  0  0
    8.6113   12.1174   24.9491 C   0  0  0  0  0  0  0  0  0  0  0  0
  2  1  1  1
  2  3  1  0
  3  4  1  0
  4  5  2  0
  4  6  1  0
  6  7  1  0
  8  7  1  1
  8  9  1  0
  9 10  1  1
 10 11  1  0
  9 12  1  0
 12 13  1  6
 13 14  1  0
 13 15  1  0
 13 16  1  0
  2 17  1  0
 17 18  1  0
 18 19  1  0
 19 20  1  0
 20 21  2  0
 21 22  1  0
 22 23  2  0
 23 24  1  0
 24 25  2  0
 12  8  1  0
 25 17  1  0
 25 20  1  0
M  END
>  <energy_score>  (1821) 
-2.77551

>  <inchikey>  (1821) 
None

>  <smiles>  (1821) 
None

>  <ref_pdb>  (1821) 
A3371a

>  <alias>  (1821) 
None

>  <HIPPO Pose ID>  (1821) 
499465

>  <name>  (1821) 
P499465

>  <HIPPO Compound ID>  (1821) 
305671

>  <ref_mols>  (1821) 
A1778a,A3371a

>  <distance_score>  (1821) 
1.857064

>  <inspiration_score>  (1821) 
None

$$$$
P499466
     RDKit          3D

 25 27  0  0  0  0  0  0  0  0999 V2000
    5.7858   13.2613   25.5639 C   0  0  0  0  0  0  0  0  0  0  0  0
    7.0414   13.9977   25.0906 C   0  0  2  0  0  0  0  0  0  0  0  0
    7.1465   14.2435   23.5359 C   0  0  0  0  0  0  0  0  0  0  0  0
    7.7832   15.6186   23.1906 C   0  0  0  0  0  0  0  0  0  0  0  0
    7.3730   16.5759   23.7250 O   0  0  0  0  0  0  0  0  0  0  0  0
    8.8870   15.4662   22.0951 N   0  0  0  0  0  0  0  0  0  0  0  0
    9.6452   16.4812   21.3646 C   0  0  0  0  0  0  0  0  0  0  0  0
   11.0108   16.1311   20.7667 C   0  0  1  0  0  0  0  0  0  0  0  0
   11.8258   15.2376   21.5340 C   0  0  0  0  0  0  0  0  0  0  0  0
   12.4052   14.4764   22.1844 N   0  0  0  0  0  0  0  0  0  0  0  0
   11.1144   16.0478   19.2579 C   0  0  0  0  0  0  0  0  0  0  0  0
   11.6951   17.2555   19.9574 C   0  0  2  0  0  0  0  0  0  0  0  0
   13.1424   17.5570   19.7677 C   0  0  0  0  0  0  0  0  0  0  0  0
   13.2891   18.3725   18.6928 F   0  0  0  0  0  0  0  0  0  0  0  0
   13.6602   18.2344   20.8161 F   0  0  0  0  0  0  0  0  0  0  0  0
   13.8763   16.4563   19.5465 F   0  0  0  0  0  0  0  0  0  0  0  0
    8.2440   13.3686   25.7054 N   0  0  0  0  0  0  0  0  0  0  0  0
    9.4012   14.3014   25.8108 C   0  0  0  0  0  0  0  0  0  0  0  0
   10.4342   13.9366   24.7446 C   0  0  0  0  0  0  0  0  0  0  0  0
    9.9192   12.6293   24.2711 C   0  0  0  0  0  0  0  0  0  0  0  0
   10.3886   11.8360   23.2530 C   0  0  0  0  0  0  0  0  0  0  0  0
    9.7559   10.6130   23.0085 C   0  0  0  0  0  0  0  0  0  0  0  0
    8.6800   10.1938   23.7864 C   0  0  0  0  0  0  0  0  0  0  0  0
    8.1590   11.0500   24.7500 C   0  0  0  0  0  0  0  0  0  0  0  0
    8.7548   12.2895   24.9435 C   0  0  0  0  0  0  0  0  0  0  0  0
  2  1  1  6
  2  3  1  0
  3  4  1  0
  4  5  2  0
  4  6  1  0
  6  7  1  0
  8  7  1  6
  8  9  1  0
  9 10  3  0
  8 11  1  0
 11 12  1  0
 12 13  1  1
 13 14  1  0
 13 15  1  0
 13 16  1  0
  2 17  1  0
 17 18  1  0
 18 19  1  0
 19 20  1  0
 20 21  2  0
 21 22  1  0
 22 23  2  0
 23 24  1  0
 24 25  2  0
 12  8  1  0
 25 17  1  0
 25 20  1  0
M  END
>  <energy_score>  (1822) 
-9.995248

>  <inchikey>  (1822) 
None

>  <smiles>  (1822) 
None

>  <ref_pdb>  (1822) 
A3371a

>  <alias>  (1822) 
None

>  <HIPPO Pose ID>  (1822) 
499466

>  <name>  (1822) 
P499466

>  <HIPPO Compound ID>  (1822) 
305672

>  <ref_mols>  (1822) 
A1778a,A3371a

>  <distance_score>  (1822) 
1.997453

>  <inspiration_score>  (1822) 
None

$$$$
P499467
     RDKit          3D

 25 27  0  0  0  0  0  0  0  0999 V2000
    5.9168   14.3859   25.7122 C   0  0  0  0  0  0  0  0  0  0  0  0
    6.8127   13.5314   24.8233 C   0  0  1  0  0  0  0  0  0  0  0  0
    7.0819   14.0769   23.3646 C   0  0  0  0  0  0  0  0  0  0  0  0
    7.7205   15.4763   23.1790 C   0  0  0  0  0  0  0  0  0  0  0  0
    7.3217   16.3851   23.8009 O   0  0  0  0  0  0  0  0  0  0  0  0
    8.8250   15.4139   22.0671 N   0  0  0  0  0  0  0  0  0  0  0  0
    9.5933   16.4847   21.4316 C   0  0  0  0  0  0  0  0  0  0  0  0
   10.9572   16.1508   20.8111 C   0  0  1  0  0  0  0  0  0  0  0  0
   11.7770   15.2476   21.5639 C   0  0  0  0  0  0  0  0  0  0  0  0
   12.3479   14.4798   22.2139 N   0  0  0  0  0  0  0  0  0  0  0  0
   11.0414   16.0859   19.3007 C   0  0  0  0  0  0  0  0  0  0  0  0
   11.6388   17.2819   20.0081 C   0  0  2  0  0  0  0  0  0  0  0  0
   13.0858   17.5751   19.7955 C   0  0  0  0  0  0  0  0  0  0  0  0
   13.6321   18.2292   20.8440 F   0  0  0  0  0  0  0  0  0  0  0  0
   13.2161   18.4102   18.7330 F   0  0  0  0  0  0  0  0  0  0  0  0
   13.8085   16.4743   19.5369 F   0  0  0  0  0  0  0  0  0  0  0  0
    8.0234   13.1432   25.5972 N   0  0  0  0  0  0  0  0  0  0  0  0
    9.0794   14.1805   25.7434 C   0  0  0  0  0  0  0  0  0  0  0  0
   10.2379   13.8549   24.7908 C   0  0  0  0  0  0  0  0  0  0  0  0
    9.8372   12.5198   24.2816 C   0  0  0  0  0  0  0  0  0  0  0  0
   10.3722   11.7758   23.2617 C   0  0  0  0  0  0  0  0  0  0  0  0
    9.7959   10.5325   22.9629 C   0  0  0  0  0  0  0  0  0  0  0  0
    8.7230   10.0307   23.6946 C   0  0  0  0  0  0  0  0  0  0  0  0
    8.1348   10.8309   24.6599 C   0  0  0  0  0  0  0  0  0  0  0  0
    8.6722   12.0917   24.8962 C   0  0  0  0  0  0  0  0  0  0  0  0
  2  1  1  1
  2  3  1  0
  3  4  1  0
  4  5  2  0
  4  6  1  0
  6  7  1  0
  8  7  1  6
  8  9  1  0
  9 10  3  0
  8 11  1  0
 11 12  1  0
 12 13  1  1
 13 14  1  0
 13 15  1  0
 13 16  1  0
  2 17  1  0
 17 18  1  0
 18 19  1  0
 19 20  1  0
 20 21  2  0
 21 22  1  0
 22 23  2  0
 23 24  1  0
 24 25  2  0
 12  8  1  0
 25 17  1  0
 25 20  1  0
M  END
>  <energy_score>  (1823) 
-10.170384

>  <inchikey>  (1823) 
None

>  <smiles>  (1823) 
None

>  <ref_pdb>  (1823) 
A3371a

>  <alias>  (1823) 
None

>  <HIPPO Pose ID>  (1823) 
499467

>  <name>  (1823) 
P499467

>  <HIPPO Compound ID>  (1823) 
305672

>  <ref_mols>  (1823) 
A1778a,A3371a

>  <distance_score>  (1823) 
1.914881

>  <inspiration_score>  (1823) 
None

$$$$
P499468
     RDKit          3D

 25 27  0  0  0  0  0  0  0  0999 V2000
    5.7296   13.1804   25.6211 C   0  0  0  0  0  0  0  0  0  0  0  0
    6.9663   13.9375   25.1322 C   0  0  2  0  0  0  0  0  0  0  0  0
    7.0591   14.1720   23.5773 C   0  0  0  0  0  0  0  0  0  0  0  0
    7.7029   15.5398   23.2280 C   0  0  0  0  0  0  0  0  0  0  0  0
    7.2947   16.5028   23.7544 O   0  0  0  0  0  0  0  0  0  0  0  0
    8.8322   15.3716   22.1618 N   0  0  0  0  0  0  0  0  0  0  0  0
    9.6229   16.3713   21.4573 C   0  0  0  0  0  0  0  0  0  0  0  0
   10.9503   16.0123   20.7713 C   0  0  1  0  0  0  0  0  0  0  0  0
   11.6391   14.7431   21.1735 C   0  0  0  0  0  0  0  0  0  0  0  0
   12.1946   14.8899   22.4590 O   0  0  0  0  0  0  0  0  0  0  0  0
   11.0689   16.3933   19.3102 C   0  0  0  0  0  0  0  0  0  0  0  0
   11.8210   17.2238   20.3199 C   0  0  2  0  0  0  0  0  0  0  0  0
   13.3127   17.2820   20.2663 C   0  0  0  0  0  0  0  0  0  0  0  0
   13.7984   16.6592   19.1713 F   0  0  0  0  0  0  0  0  0  0  0  0
   13.7489   18.5686   20.2198 F   0  0  0  0  0  0  0  0  0  0  0  0
   13.8553   16.7034   21.3611 F   0  0  0  0  0  0  0  0  0  0  0  0
    8.1864   13.3434   25.7468 N   0  0  0  0  0  0  0  0  0  0  0  0
    9.3126   14.3120   25.8668 C   0  0  0  0  0  0  0  0  0  0  0  0
   10.3827   13.9654   24.8320 C   0  0  0  0  0  0  0  0  0  0  0  0
    9.9062   12.6499   24.3405 C   0  0  0  0  0  0  0  0  0  0  0  0
   10.4168   11.8741   23.3281 C   0  0  0  0  0  0  0  0  0  0  0  0
    9.7909   10.6574   23.0364 C   0  0  0  0  0  0  0  0  0  0  0  0
    8.6993   10.2139   23.7776 C   0  0  0  0  0  0  0  0  0  0  0  0
    8.1534   11.0420   24.7506 C   0  0  0  0  0  0  0  0  0  0  0  0
    8.7305   12.2844   24.9802 C   0  0  0  0  0  0  0  0  0  0  0  0
  2  1  1  6
  2  3  1  0
  3  4  1  0
  4  5  2  0
  4  6  1  0
  6  7  1  0
  8  7  1  1
  8  9  1  0
  9 10  1  0
  8 11  1  0
 11 12  1  0
 12 13  1  6
 13 14  1  0
 13 15  1  0
 13 16  1  0
  2 17  1  0
 17 18  1  0
 18 19  1  0
 19 20  1  0
 20 21  2  0
 21 22  1  0
 22 23  2  0
 23 24  1  0
 24 25  2  0
 12  8  1  0
 25 17  1  0
 25 20  1  0
M  END
>  <energy_score>  (1824) 
-14.298677

>  <inchikey>  (1824) 
None

>  <smiles>  (1824) 
None

>  <ref_pdb>  (1824) 
A3371a

>  <alias>  (1824) 
None

>  <HIPPO Pose ID>  (1824) 
499468

>  <name>  (1824) 
P499468

>  <HIPPO Compound ID>  (1824) 
305674

>  <ref_mols>  (1824) 
A1778a,A3371a

>  <distance_score>  (1824) 
1.930104

>  <inspiration_score>  (1824) 
None

$$$$
P499469
     RDKit          3D

 26 28  0  0  0  0  0  0  0  0999 V2000
    6.0930   15.1513   24.9398 C   0  0  0  0  0  0  0  0  0  0  0  0
    7.0319   14.2164   24.1969 C   0  0  1  0  0  0  0  0  0  0  0  0
    7.7818   14.8026   22.8952 C   0  0  0  0  0  0  0  0  0  0  0  0
    8.6320   16.1233   22.9192 C   0  0  0  0  0  0  0  0  0  0  0  0
    8.5481   16.8654   23.8259 O   0  0  0  0  0  0  0  0  0  0  0  0
    9.5766   16.1615   21.6481 N   0  0  0  0  0  0  0  0  0  0  0  0
   10.6823   17.0881   21.2985 C   0  0  2  0  0  0  0  0  0  0  0  0
   10.4998   18.0886   20.1439 C   0  0  0  0  0  0  0  0  0  0  0  0
   11.8238   18.8544   19.9222 C   0  0  0  0  0  0  0  0  0  0  0  0
   12.9193   17.9533   19.3555 C   0  0  0  0  0  0  0  0  0  0  0  0
   12.7271   16.5107   19.8041 C   0  0  0  0  0  0  0  0  0  0  0  0
   12.1332   16.4891   21.2234 C   0  0  2  0  0  0  0  0  0  0  0  0
   12.2981   15.1571   21.8975 C   0  0  0  0  0  0  0  0  0  0  0  0
   11.7707   14.0173   21.0961 C   0  0  0  0  0  0  0  0  0  0  0  0
   11.7389   12.9545   21.9185 F   0  0  0  0  0  0  0  0  0  0  0  0
   12.5828   13.7302   20.0568 F   0  0  0  0  0  0  0  0  0  0  0  0
   10.5224   14.2174   20.6282 F   0  0  0  0  0  0  0  0  0  0  0  0
    7.8447   13.5741   25.2516 N   0  0  0  0  0  0  0  0  0  0  0  0
    8.9921   14.3560   25.7599 C   0  0  0  0  0  0  0  0  0  0  0  0
   10.2361   13.8860   25.0098 C   0  0  0  0  0  0  0  0  0  0  0  0
    9.7751   12.5566   24.5381 C   0  0  0  0  0  0  0  0  0  0  0  0
   10.4565   11.6028   23.8436 C   0  0  0  0  0  0  0  0  0  0  0  0
    9.8069   10.4183   23.4717 C   0  0  0  0  0  0  0  0  0  0  0  0
    8.4752   10.2053   23.8070 C   0  0  0  0  0  0  0  0  0  0  0  0
    7.7701   11.2127   24.4494 C   0  0  0  0  0  0  0  0  0  0  0  0
    8.4291   12.3897   24.7711 C   0  0  0  0  0  0  0  0  0  0  0  0
  2  1  1  1
  2  3  1  0
  3  4  1  0
  4  5  2  0
  4  6  1  0
  7  6  1  6
  7  8  1  0
  8  9  1  0
  9 10  1  0
 10 11  1  0
 11 12  1  0
 12 13  1  6
 13 14  1  0
 14 15  1  0
 14 16  1  0
 14 17  1  0
  2 18  1  0
 18 19  1  0
 19 20  1  0
 20 21  1  0
 21 22  2  0
 22 23  1  0
 23 24  2  0
 24 25  1  0
 25 26  2  0
 12  7  1  0
 26 18  1  0
 26 21  1  0
M  END
>  <energy_score>  (1825) 
-8.761874

>  <inchikey>  (1825) 
None

>  <smiles>  (1825) 
None

>  <ref_pdb>  (1825) 
A3371a

>  <alias>  (1825) 
None

>  <HIPPO Pose ID>  (1825) 
499469

>  <name>  (1825) 
P499469

>  <HIPPO Compound ID>  (1825) 
305675

>  <ref_mols>  (1825) 
A1778a,A3371a

>  <distance_score>  (1825) 
1.941174

>  <inspiration_score>  (1825) 
None

$$$$
P499470
     RDKit          3D

 27 29  0  0  0  0  0  0  0  0999 V2000
   12.8210   14.3239   22.9514 C   0  0  0  0  0  0  0  0  0  0  0  0
   11.6823   15.0192   22.4758 O   0  0  0  0  0  0  0  0  0  0  0  0
   11.5890   14.9490   21.1278 C   0  0  0  0  0  0  0  0  0  0  0  0
   12.2200   14.2079   20.3916 O   0  0  0  0  0  0  0  0  0  0  0  0
   10.6684   15.9911   20.6078 C   0  0  2  0  0  0  0  0  0  0  0  0
    9.1526   15.8282   20.7781 C   0  0  0  0  0  0  0  0  0  0  0  0
    8.5146   15.5146   22.0538 N   0  0  0  0  0  0  0  0  0  0  0  0
    7.4499   14.4135   22.4198 C   0  0  0  0  0  0  0  0  0  0  0  0
    6.9918   13.5514   21.7656 O   0  0  0  0  0  0  0  0  0  0  0  0
    6.9111   14.6526   23.8648 C   0  0  0  0  0  0  0  0  0  0  0  0
    6.7710   13.3606   24.7480 C   0  0  2  0  0  0  0  0  0  0  0  0
    5.5688   13.3639   25.6902 C   0  0  0  0  0  0  0  0  0  0  0  0
    7.9369   13.0452   25.6289 N   0  0  0  0  0  0  0  0  0  0  0  0
    8.9699   14.0865   25.8089 C   0  0  0  0  0  0  0  0  0  0  0  0
   10.0524   13.8722   24.7534 C   0  0  0  0  0  0  0  0  0  0  0  0
    9.7540   12.4970   24.2801 C   0  0  0  0  0  0  0  0  0  0  0  0
   10.2840   11.7671   23.2452 C   0  0  0  0  0  0  0  0  0  0  0  0
    9.7717   10.4864   22.9883 C   0  0  0  0  0  0  0  0  0  0  0  0
    8.7602    9.9341   23.7695 C   0  0  0  0  0  0  0  0  0  0  0  0
    8.1672   10.7130   24.7489 C   0  0  0  0  0  0  0  0  0  0  0  0
    8.6439   12.0062   24.9444 C   0  0  0  0  0  0  0  0  0  0  0  0
   10.9478   16.4657   19.1830 C   0  0  0  0  0  0  0  0  0  0  0  0
   11.4119   17.3511   20.2948 C   0  0  2  0  0  0  0  0  0  0  0  0
   12.9026   17.5777   20.3793 C   0  0  0  0  0  0  0  0  0  0  0  0
   13.5799   16.9557   19.3893 F   0  0  0  0  0  0  0  0  0  0  0  0
   13.3959   17.1529   21.5595 F   0  0  0  0  0  0  0  0  0  0  0  0
   13.1961   18.9025   20.2732 F   0  0  0  0  0  0  0  0  0  0  0  0
  1  2  1  0
  2  3  1  0
  3  4  2  0
  3  5  1  0
  5  6  1  6
  6  7  1  0
  7  8  1  0
  8  9  2  0
  8 10  1  0
 10 11  1  0
 11 12  1  1
 11 13  1  0
 13 14  1  0
 14 15  1  0
 15 16  1  0
 16 17  2  0
 17 18  1  0
 18 19  2  0
 19 20  1  0
 20 21  2  0
  5 22  1  0
 22 23  1  0
 23 24  1  1
 24 25  1  0
 24 26  1  0
 24 27  1  0
 23  5  1  0
 21 13  1  0
 21 16  1  0
M  END
>  <energy_score>  (1826) 
-14.825473

>  <inchikey>  (1826) 
None

>  <smiles>  (1826) 
None

>  <ref_pdb>  (1826) 
A3371a

>  <alias>  (1826) 
None

>  <HIPPO Pose ID>  (1826) 
499470

>  <name>  (1826) 
P499470

>  <HIPPO Compound ID>  (1826) 
305679

>  <ref_mols>  (1826) 
A1778a,A3371a

>  <distance_score>  (1826) 
1.934981

>  <inspiration_score>  (1826) 
None

$$$$
P499471
     RDKit          3D

 31 33  0  0  0  0  0  0  0  0999 V2000
    5.5493   14.0711   25.7780 C   0  0  0  0  0  0  0  0  0  0  0  0
    6.6656   13.7818   24.7683 C   0  0  1  0  0  0  0  0  0  0  0  0
    6.9026   14.9898   23.7942 C   0  0  0  0  0  0  0  0  0  0  0  0
    7.7790   14.6567   22.5596 C   0  0  0  0  0  0  0  0  0  0  0  0
    7.5894   13.6813   21.9355 O   0  0  0  0  0  0  0  0  0  0  0  0
    8.9105   15.7427   22.4333 N   0  0  0  0  0  0  0  0  0  0  0  0
   10.1194   15.7884   21.5490 C   0  0  2  0  0  0  0  0  0  0  0  0
    9.9922   16.7727   20.3893 C   0  0  0  0  0  0  0  0  0  0  0  0
   11.3004   17.0882   19.7363 C   0  0  0  0  0  0  0  0  0  0  0  0
   11.0898   18.6316   19.7800 N   0  0  0  0  0  0  0  0  0  0  0  0
   12.3919   19.3579   19.9798 C   0  0  0  0  0  0  0  0  0  0  0  0
   12.9350   19.6850   20.9673 O   0  0  0  0  0  0  0  0  0  0  0  0
   12.8654   19.7022   18.7566 O   0  0  0  0  0  0  0  0  0  0  0  0
   14.0831   20.4802   18.6518 C   0  0  0  0  0  0  0  0  0  0  0  0
   14.2048   20.8236   17.1684 C   0  0  0  0  0  0  0  0  0  0  0  0
   14.0105   21.8108   19.4200 C   0  0  0  0  0  0  0  0  0  0  0  0
   15.2973   19.6416   19.0681 C   0  0  0  0  0  0  0  0  0  0  0  0
   10.0431   18.1946   20.7771 C   0  0  0  0  0  0  0  0  0  0  0  0
   10.5549   14.4438   20.9899 C   0  0  0  0  0  0  0  0  0  0  0  0
    9.6009   13.9662   20.1788 F   0  0  0  0  0  0  0  0  0  0  0  0
   11.7095   14.5319   20.2969 F   0  0  0  0  0  0  0  0  0  0  0  0
   10.7698   13.5929   22.0030 F   0  0  0  0  0  0  0  0  0  0  0  0
    7.8280   13.3529   25.5811 N   0  0  0  0  0  0  0  0  0  0  0  0
    8.9388   14.2939   25.8379 C   0  0  0  0  0  0  0  0  0  0  0  0
   10.1613   13.8613   25.0172 C   0  0  0  0  0  0  0  0  0  0  0  0
    9.7335   12.5215   24.5468 C   0  0  0  0  0  0  0  0  0  0  0  0
   10.3825   11.6488   23.7085 C   0  0  0  0  0  0  0  0  0  0  0  0
    9.7674   10.4390   23.3655 C   0  0  0  0  0  0  0  0  0  0  0  0
    8.5286   10.0966   23.8947 C   0  0  0  0  0  0  0  0  0  0  0  0
    7.8559   11.0099   24.6958 C   0  0  0  0  0  0  0  0  0  0  0  0
    8.4506   12.2377   24.9686 C   0  0  0  0  0  0  0  0  0  0  0  0
  2  1  1  1
  2  3  1  0
  3  4  1  0
  4  5  2  0
  4  6  1  0
  7  6  1  6
  7  8  1  0
  8  9  1  0
  9 10  1  0
 10 11  1  0
 11 12  2  0
 11 13  1  0
 13 14  1  0
 14 15  1  0
 14 16  1  0
 14 17  1  0
 10 18  1  0
  7 19  1  0
 19 20  1  0
 19 21  1  0
 19 22  1  0
  2 23  1  0
 23 24  1  0
 24 25  1  0
 25 26  1  0
 26 27  2  0
 27 28  1  0
 28 29  2  0
 29 30  1  0
 30 31  2  0
 18  8  1  0
 31 23  1  0
 31 26  1  0
M  END
>  <energy_score>  (1827) 
-4.206158

>  <inchikey>  (1827) 
None

>  <smiles>  (1827) 
None

>  <ref_pdb>  (1827) 
A3371a

>  <alias>  (1827) 
None

>  <HIPPO Pose ID>  (1827) 
499471

>  <name>  (1827) 
P499471

>  <HIPPO Compound ID>  (1827) 
305684

>  <ref_mols>  (1827) 
A1778a,A3371a

>  <distance_score>  (1827) 
1.914792

>  <inspiration_score>  (1827) 
None

$$$$
P499472
     RDKit          3D

 19 20  0  0  0  0  0  0  0  0999 V2000
    9.9194   15.6989   20.0763 C   0  0  0  0  0  0  0  0  0  0  0  0
   10.3442   15.2012   21.3851 C   0  0  0  0  0  0  0  0  0  0  0  0
    9.7991   14.2703   22.1429 N   0  0  0  0  0  0  0  0  0  0  0  0
   10.8071   13.9725   23.0258 C   0  0  0  0  0  0  0  0  0  0  0  0
   10.7960   12.7461   23.8504 C   0  0  0  0  0  0  0  0  0  0  0  0
    9.9453   11.6241   23.2328 C   0  0  0  0  0  0  0  0  0  0  0  0
    8.6302   11.7588   23.7598 N   0  0  0  0  0  0  0  0  0  0  0  0
    7.8626   10.8828   24.7273 C   0  0  0  0  0  0  0  0  0  0  0  0
    8.1405    9.8635   25.1998 O   0  0  0  0  0  0  0  0  0  0  0  0
    6.5908   11.4968   25.2124 C   0  0  0  0  0  0  0  0  0  0  0  0
    5.7095   10.5763   25.8166 C   0  0  0  0  0  0  0  0  0  0  0  0
    4.6330   11.0046   26.5776 C   0  0  0  0  0  0  0  0  0  0  0  0
    4.4022   12.3639   26.7217 C   0  0  0  0  0  0  0  0  0  0  0  0
    5.2530   13.2916   26.1171 C   0  0  0  0  0  0  0  0  0  0  0  0
    6.3772   12.8886   25.3729 C   0  0  0  0  0  0  0  0  0  0  0  0
    7.2899   13.9899   24.8817 C   0  0  0  0  0  0  0  0  0  0  0  0
    7.3452   13.9641   23.4600 O   0  0  0  0  0  0  0  0  0  0  0  0
   11.8113   14.8996   22.9109 C   0  0  0  0  0  0  0  0  0  0  0  0
   11.5286   15.6927   21.8503 O   0  0  0  0  0  0  0  0  0  0  0  0
  1  2  1  0
  2  3  2  0
  3  4  1  0
  4  5  1  0
  5  6  1  0
  6  7  1  0
  7  8  1  0
  8  9  2  0
  8 10  1  0
 10 11  2  0
 11 12  1  0
 12 13  2  0
 13 14  1  0
 14 15  2  0
 15 16  1  0
 16 17  1  0
  4 18  2  0
 18 19  1  0
 19  2  1  0
 15 10  1  0
M  END
>  <energy_score>  (1828) 
-6.486242

>  <inchikey>  (1828) 
None

>  <smiles>  (1828) 
None

>  <ref_pdb>  (1828) 
A5594a

>  <alias>  (1828) 
None

>  <HIPPO Pose ID>  (1828) 
499472

>  <name>  (1828) 
P499472

>  <HIPPO Compound ID>  (1828) 
306227

>  <ref_mols>  (1828) 
A3408a,A5594a

>  <distance_score>  (1828) 
1.292322

>  <inspiration_score>  (1828) 
None

$$$$
P499473
     RDKit          3D

 19 20  0  0  0  0  0  0  0  0999 V2000
    6.9388   14.2126   24.1242 C   0  0  0  0  0  0  0  0  0  0  0  0
    6.6279   13.0141   24.9686 C   0  0  0  0  0  0  0  0  0  0  0  0
    5.5048   13.0643   25.8078 C   0  0  0  0  0  0  0  0  0  0  0  0
    5.0903   11.9320   26.4995 C   0  0  0  0  0  0  0  0  0  0  0  0
    5.7788   10.7416   26.3305 C   0  0  0  0  0  0  0  0  0  0  0  0
    5.3744    9.6661   27.0107 F   0  0  0  0  0  0  0  0  0  0  0  0
    6.9056   10.6675   25.5235 C   0  0  0  0  0  0  0  0  0  0  0  0
    7.3735   11.8244   24.8928 C   0  0  0  0  0  0  0  0  0  0  0  0
    8.6824   11.7324   24.1777 C   0  0  0  0  0  0  0  0  0  0  0  0
    8.8969   10.7954   23.5205 O   0  0  0  0  0  0  0  0  0  0  0  0
    9.5829   12.9328   24.5300 N   0  0  0  0  0  0  0  0  0  0  0  0
   10.9098   13.2800   24.0681 C   0  0  2  0  0  0  0  0  0  0  0  0
   11.3838   14.5942   24.6846 C   0  0  0  0  0  0  0  0  0  0  0  0
   11.0004   13.2715   22.5439 C   0  0  0  0  0  0  0  0  0  0  0  0
   10.4448   14.4691   21.8912 C   0  0  0  0  0  0  0  0  0  0  0  0
   11.0576   15.2616   20.9526 C   0  0  0  0  0  0  0  0  0  0  0  0
   10.1956   16.2556   20.6217 O   0  0  0  0  0  0  0  0  0  0  0  0
    9.1108   16.0204   21.4051 C   0  0  0  0  0  0  0  0  0  0  0  0
    9.1941   14.9589   22.1728 N   0  0  0  0  0  0  0  0  0  0  0  0
  1  2  1  0
  2  3  2  0
  3  4  1  0
  4  5  2  0
  5  6  1  0
  5  7  1  0
  7  8  2  0
  8  9  1  0
  9 10  2  0
  9 11  1  0
 11 12  1  0
 12 13  1  6
 12 14  1  0
 14 15  1  0
 15 16  2  0
 16 17  1  0
 17 18  1  0
 18 19  2  0
  8  2  1  0
 19 15  1  0
M  END
>  <energy_score>  (1829) 
-8.84379

>  <inchikey>  (1829) 
None

>  <smiles>  (1829) 
None

>  <ref_pdb>  (1829) 
A5594a

>  <alias>  (1829) 
None

>  <HIPPO Pose ID>  (1829) 
499473

>  <name>  (1829) 
P499473

>  <HIPPO Compound ID>  (1829) 
306228

>  <ref_mols>  (1829) 
A3408a,A5594a

>  <distance_score>  (1829) 
1.655139

>  <inspiration_score>  (1829) 
None

$$$$
P499474
     RDKit          3D

 19 20  0  0  0  0  0  0  0  0999 V2000
    9.8901   15.6437   19.9624 C   0  0  0  0  0  0  0  0  0  0  0  0
   10.3919   15.2544   21.2781 C   0  0  0  0  0  0  0  0  0  0  0  0
    9.9073   14.3766   22.1323 N   0  0  0  0  0  0  0  0  0  0  0  0
   10.9523   14.1901   23.0011 C   0  0  0  0  0  0  0  0  0  0  0  0
   10.9993   13.0547   23.9400 C   0  0  0  0  0  0  0  0  0  0  0  0
   10.0707   11.9297   23.5077 C   0  0  0  0  0  0  0  0  0  0  0  0
    8.8674   11.9487   24.2689 N   0  0  0  0  0  0  0  0  0  0  0  0
    7.8033   10.8794   24.4631 C   0  0  0  0  0  0  0  0  0  0  0  0
    7.7671    9.7801   24.0982 O   0  0  0  0  0  0  0  0  0  0  0  0
    6.6637   11.4080   25.2733 C   0  0  0  0  0  0  0  0  0  0  0  0
    6.0314   10.4400   26.0667 C   0  0  0  0  0  0  0  0  0  0  0  0
    5.0236   10.7888   26.9479 C   0  0  0  0  0  0  0  0  0  0  0  0
    4.6539   12.1215   27.0566 C   0  0  0  0  0  0  0  0  0  0  0  0
    5.2384   13.0929   26.2313 C   0  0  0  0  0  0  0  0  0  0  0  0
    4.5569   15.0683   26.5297 I   0  0  0  0  0  0  0  0  0  0  0  0
    6.2115   12.7494   25.2740 C   0  0  0  0  0  0  0  0  0  0  0  0
    6.6679   13.7621   24.2489 C   0  0  0  0  0  0  0  0  0  0  0  0
   11.9404   15.1021   22.7394 C   0  0  0  0  0  0  0  0  0  0  0  0
   11.5930   15.7936   21.6306 O   0  0  0  0  0  0  0  0  0  0  0  0
  1  2  1  0
  2  3  2  0
  3  4  1  0
  4  5  1  0
  5  6  1  0
  6  7  1  0
  7  8  1  0
  8  9  2  0
  8 10  1  0
 10 11  2  0
 11 12  1  0
 12 13  2  0
 13 14  1  0
 14 15  1  0
 14 16  2  0
 16 17  1  0
  4 18  2  0
 18 19  1  0
 19  2  1  0
 16 10  1  0
M  END
>  <energy_score>  (1830) 
-2.826281

>  <inchikey>  (1830) 
None

>  <smiles>  (1830) 
None

>  <ref_pdb>  (1830) 
A5594a

>  <alias>  (1830) 
None

>  <HIPPO Pose ID>  (1830) 
499474

>  <name>  (1830) 
P499474

>  <HIPPO Compound ID>  (1830) 
306230

>  <ref_mols>  (1830) 
A3408a,A5594a

>  <distance_score>  (1830) 
1.470694

>  <inspiration_score>  (1830) 
None

$$$$
P499475
     RDKit          3D

 19 20  0  0  0  0  0  0  0  0999 V2000
    6.9162   14.1403   24.3187 C   0  0  0  0  0  0  0  0  0  0  0  0
    6.6204   12.8816   25.0851 C   0  0  0  0  0  0  0  0  0  0  0  0
    5.5299   12.7929   25.9685 C   0  0  0  0  0  0  0  0  0  0  0  0
    4.3823   14.4566   26.5575 I   0  0  0  0  0  0  0  0  0  0  0  0
    5.1426   11.5618   26.5075 C   0  0  0  0  0  0  0  0  0  0  0  0
    5.8296   10.4025   26.1693 C   0  0  0  0  0  0  0  0  0  0  0  0
    6.9606   10.4803   25.3641 C   0  0  0  0  0  0  0  0  0  0  0  0
    7.3917   11.7197   24.8708 C   0  0  0  0  0  0  0  0  0  0  0  0
    8.6816   11.7248   24.1106 C   0  0  0  0  0  0  0  0  0  0  0  0
    8.8824   10.8648   23.3523 O   0  0  0  0  0  0  0  0  0  0  0  0
    9.5480   12.9386   24.4956 N   0  0  0  0  0  0  0  0  0  0  0  0
   10.8903   13.2993   24.0960 C   0  0  2  0  0  0  0  0  0  0  0  0
   11.3203   14.6182   24.7342 C   0  0  0  0  0  0  0  0  0  0  0  0
   11.0359   13.3043   22.5755 C   0  0  0  0  0  0  0  0  0  0  0  0
   10.4556   14.4834   21.9078 C   0  0  0  0  0  0  0  0  0  0  0  0
   11.0430   15.2605   20.9408 C   0  0  0  0  0  0  0  0  0  0  0  0
   10.1650   16.2384   20.6024 O   0  0  0  0  0  0  0  0  0  0  0  0
    9.0952   16.0087   21.4085 C   0  0  0  0  0  0  0  0  0  0  0  0
    9.2036   14.9672   22.1989 N   0  0  0  0  0  0  0  0  0  0  0  0
  1  2  1  0
  2  3  2  0
  3  4  1  0
  3  5  1  0
  5  6  2  0
  6  7  1  0
  7  8  2  0
  8  9  1  0
  9 10  2  0
  9 11  1  0
 11 12  1  0
 12 13  1  6
 12 14  1  0
 14 15  1  0
 15 16  2  0
 16 17  1  0
 17 18  1  0
 18 19  2  0
  8  2  1  0
 19 15  1  0
M  END
>  <energy_score>  (1831) 
-5.872751

>  <inchikey>  (1831) 
None

>  <smiles>  (1831) 
None

>  <ref_pdb>  (1831) 
A5594a

>  <alias>  (1831) 
None

>  <HIPPO Pose ID>  (1831) 
499475

>  <name>  (1831) 
P499475

>  <HIPPO Compound ID>  (1831) 
306231

>  <ref_mols>  (1831) 
A3408a,A5594a

>  <distance_score>  (1831) 
1.336777

>  <inspiration_score>  (1831) 
None

$$$$
P499476
     RDKit          3D

 19 20  0  0  0  0  0  0  0  0999 V2000
   11.8555   15.1017   20.3117 C   0  0  0  0  0  0  0  0  0  0  0  0
   10.7533   15.3872   21.2269 C   0  0  0  0  0  0  0  0  0  0  0  0
    9.6085   15.8919   20.6943 O   0  0  0  0  0  0  0  0  0  0  0  0
    8.8053   16.0626   21.7756 C   0  0  0  0  0  0  0  0  0  0  0  0
    9.3209   15.6871   22.9234 N   0  0  0  0  0  0  0  0  0  0  0  0
   10.5692   15.2401   22.5790 C   0  0  0  0  0  0  0  0  0  0  0  0
   11.4828   14.6026   23.5494 C   0  0  0  0  0  0  0  0  0  0  0  0
   11.3699   13.0795   23.4422 C   0  0  0  0  0  0  0  0  0  0  0  0
   10.0445   12.6105   23.7495 N   0  0  0  0  0  0  0  0  0  0  0  0
    9.0284   13.1114   24.7670 C   0  0  0  0  0  0  0  0  0  0  0  0
    9.0611   14.0336   25.4742 O   0  0  0  0  0  0  0  0  0  0  0  0
    7.7862   12.2889   24.8402 C   0  0  0  0  0  0  0  0  0  0  0  0
    7.7925   10.9137   25.0501 C   0  0  0  0  0  0  0  0  0  0  0  0
    6.6451   10.3005   25.5567 C   0  0  0  0  0  0  0  0  0  0  0  0
    5.5186   11.0514   25.8819 C   0  0  0  0  0  0  0  0  0  0  0  0
    5.4785   12.4024   25.5584 C   0  0  0  0  0  0  0  0  0  0  0  0
    6.5894   13.0020   24.9627 C   0  0  0  0  0  0  0  0  0  0  0  0
    6.5070   14.3414   24.2990 C   0  0  0  0  0  0  0  0  0  0  0  0
    6.9364   14.2459   23.0046 F   0  0  0  0  0  0  0  0  0  0  0  0
  1  2  1  0
  2  3  1  0
  3  4  1  0
  4  5  2  0
  5  6  1  0
  6  7  1  0
  7  8  1  0
  8  9  1  0
  9 10  1  0
 10 11  2  0
 10 12  1  0
 12 13  2  0
 13 14  1  0
 14 15  2  0
 15 16  1  0
 16 17  2  0
 17 18  1  0
 18 19  1  0
  6  2  2  0
 17 12  1  0
M  END
>  <energy_score>  (1832) 
-1.610066

>  <inchikey>  (1832) 
None

>  <smiles>  (1832) 
None

>  <ref_pdb>  (1832) 
A5594a

>  <alias>  (1832) 
None

>  <HIPPO Pose ID>  (1832) 
499476

>  <name>  (1832) 
P499476

>  <HIPPO Compound ID>  (1832) 
306232

>  <ref_mols>  (1832) 
A3408a,A5594a

>  <distance_score>  (1832) 
1.975423

>  <inspiration_score>  (1832) 
None

$$$$
P499477
     RDKit          3D

 19 20  0  0  0  0  0  0  0  0999 V2000
   12.0154   15.5128   21.5041 C   0  0  0  0  0  0  0  0  0  0  0  0
   10.6345   15.1276   21.8038 C   0  0  0  0  0  0  0  0  0  0  0  0
    9.6523   15.8794   21.2344 O   0  0  0  0  0  0  0  0  0  0  0  0
    8.5048   15.3313   21.7030 C   0  0  0  0  0  0  0  0  0  0  0  0
    8.6611   14.2785   22.4731 N   0  0  0  0  0  0  0  0  0  0  0  0
   10.0329   14.1335   22.5389 C   0  0  0  0  0  0  0  0  0  0  0  0
   10.6659   13.0269   23.2984 C   0  0  0  0  0  0  0  0  0  0  0  0
    9.8991   11.7182   23.1513 C   0  0  0  0  0  0  0  0  0  0  0  0
    8.6204   11.8060   23.7823 N   0  0  0  0  0  0  0  0  0  0  0  0
    7.8948   10.8229   24.6842 C   0  0  0  0  0  0  0  0  0  0  0  0
    8.1787    9.7459   25.0044 O   0  0  0  0  0  0  0  0  0  0  0  0
    6.6695   11.3860   25.3328 C   0  0  0  0  0  0  0  0  0  0  0  0
    5.7706   10.3988   25.7907 C   0  0  0  0  0  0  0  0  0  0  0  0
    4.6756   10.7158   26.5814 C   0  0  0  0  0  0  0  0  0  0  0  0
    4.4403   12.0411   26.8993 C   0  0  0  0  0  0  0  0  0  0  0  0
    5.3167   13.0242   26.4517 C   0  0  0  0  0  0  0  0  0  0  0  0
    5.0569   14.2935   26.8043 F   0  0  0  0  0  0  0  0  0  0  0  0
    6.4670   12.7311   25.7033 C   0  0  0  0  0  0  0  0  0  0  0  0
    7.3607   13.8982   25.3935 C   0  0  0  0  0  0  0  0  0  0  0  0
  1  2  1  0
  2  3  1  0
  3  4  1  0
  4  5  2  0
  5  6  1  0
  6  7  1  0
  7  8  1  0
  8  9  1  0
  9 10  1  0
 10 11  2  0
 10 12  1  0
 12 13  2  0
 13 14  1  0
 14 15  2  0
 15 16  1  0
 16 17  1  0
 16 18  2  0
 18 19  1  0
  6  2  2  0
 18 12  1  0
M  END
>  <energy_score>  (1833) 
-1.852237

>  <inchikey>  (1833) 
None

>  <smiles>  (1833) 
None

>  <ref_pdb>  (1833) 
A5594a

>  <alias>  (1833) 
None

>  <HIPPO Pose ID>  (1833) 
499477

>  <name>  (1833) 
P499477

>  <HIPPO Compound ID>  (1833) 
306235

>  <ref_mols>  (1833) 
A3408a,A5594a

>  <distance_score>  (1833) 
1.425093

>  <inspiration_score>  (1833) 
None

$$$$
P499478
     RDKit          3D

 19 20  0  0  0  0  0  0  0  0999 V2000
    9.9803   15.5811   19.9860 C   0  0  0  0  0  0  0  0  0  0  0  0
   10.4082   15.0752   21.2904 C   0  0  0  0  0  0  0  0  0  0  0  0
    9.9024   14.0973   22.0114 N   0  0  0  0  0  0  0  0  0  0  0  0
   10.8345   13.9138   22.9947 C   0  0  0  0  0  0  0  0  0  0  0  0
   10.7922   12.7704   23.9245 C   0  0  0  0  0  0  0  0  0  0  0  0
    9.9677   11.5775   23.4238 C   0  0  0  0  0  0  0  0  0  0  0  0
    8.7481   11.5300   24.1571 N   0  0  0  0  0  0  0  0  0  0  0  0
    7.4046   12.1690   23.8757 C   0  0  0  0  0  0  0  0  0  0  0  0
    7.0394   12.7785   22.9622 O   0  0  0  0  0  0  0  0  0  0  0  0
    6.5725   11.9795   25.0727 C   0  0  0  0  0  0  0  0  0  0  0  0
    6.1482   10.7008   25.4557 C   0  0  0  0  0  0  0  0  0  0  0  0
    5.3726   10.5586   26.5982 C   0  0  0  0  0  0  0  0  0  0  0  0
    5.0822   11.6838   27.3668 C   0  0  0  0  0  0  0  0  0  0  0  0
    5.5874   12.9354   27.0081 C   0  0  0  0  0  0  0  0  0  0  0  0
    5.3346   13.9788   27.8113 F   0  0  0  0  0  0  0  0  0  0  0  0
    6.3605   13.1065   25.8681 C   0  0  0  0  0  0  0  0  0  0  0  0
    6.9681   14.4305   25.5085 C   0  0  0  0  0  0  0  0  0  0  0  0
   11.8006   14.8836   22.9007 C   0  0  0  0  0  0  0  0  0  0  0  0
   11.5421   15.6348   21.8044 O   0  0  0  0  0  0  0  0  0  0  0  0
  1  2  1  0
  2  3  2  0
  3  4  1  0
  4  5  1  0
  5  6  1  0
  6  7  1  0
  7  8  1  0
  8  9  2  0
  8 10  1  0
 10 11  2  0
 11 12  1  0
 12 13  2  0
 13 14  1  0
 14 15  1  0
 14 16  2  0
 16 17  1  0
  4 18  2  0
 18 19  1  0
 19  2  1  0
 16 10  1  0
M  END
>  <energy_score>  (1834) 
-0.421892

>  <inchikey>  (1834) 
None

>  <smiles>  (1834) 
None

>  <ref_pdb>  (1834) 
A5594a

>  <alias>  (1834) 
None

>  <HIPPO Pose ID>  (1834) 
499478

>  <name>  (1834) 
P499478

>  <HIPPO Compound ID>  (1834) 
306236

>  <ref_mols>  (1834) 
A3408a,A5594a

>  <distance_score>  (1834) 
1.623853

>  <inspiration_score>  (1834) 
None

$$$$
P499479
     RDKit          3D

 19 20  0  0  0  0  0  0  0  0999 V2000
    6.9425   14.1325   24.2983 C   0  0  0  0  0  0  0  0  0  0  0  0
    6.6377   12.8743   25.0586 C   0  0  0  0  0  0  0  0  0  0  0  0
    5.5381   12.7984   25.9302 C   0  0  0  0  0  0  0  0  0  0  0  0
    4.5102   14.3242   26.4150 Br  0  0  0  0  0  0  0  0  0  0  0  0
    5.1395   11.5774   26.4797 C   0  0  0  0  0  0  0  0  0  0  0  0
    5.8232   10.4115   26.1595 C   0  0  0  0  0  0  0  0  0  0  0  0
    6.9596   10.4765   25.3598 C   0  0  0  0  0  0  0  0  0  0  0  0
    7.4030   11.7089   24.8567 C   0  0  0  0  0  0  0  0  0  0  0  0
    8.7049   11.6989   24.1151 C   0  0  0  0  0  0  0  0  0  0  0  0
    8.9264   10.8076   23.3994 O   0  0  0  0  0  0  0  0  0  0  0  0
    9.5901   12.8910   24.5299 N   0  0  0  0  0  0  0  0  0  0  0  0
   10.9051   13.2881   24.0750 C   0  0  2  0  0  0  0  0  0  0  0  0
   11.3331   14.6107   24.7075 C   0  0  0  0  0  0  0  0  0  0  0  0
   11.0066   13.2951   22.5516 C   0  0  0  0  0  0  0  0  0  0  0  0
   10.4294   14.4845   21.9018 C   0  0  0  0  0  0  0  0  0  0  0  0
   11.0161   15.2675   20.9390 C   0  0  0  0  0  0  0  0  0  0  0  0
   10.1428   16.2542   20.6162 O   0  0  0  0  0  0  0  0  0  0  0  0
    9.0772   16.0242   21.4275 C   0  0  0  0  0  0  0  0  0  0  0  0
    9.1842   14.9744   22.2079 N   0  0  0  0  0  0  0  0  0  0  0  0
  1  2  1  0
  2  3  2  0
  3  4  1  0
  3  5  1  0
  5  6  2  0
  6  7  1  0
  7  8  2  0
  8  9  1  0
  9 10  2  0
  9 11  1  0
 11 12  1  0
 12 13  1  6
 12 14  1  0
 14 15  1  0
 15 16  2  0
 16 17  1  0
 17 18  1  0
 18 19  2  0
  8  2  1  0
 19 15  1  0
M  END
>  <energy_score>  (1835) 
-14.878057

>  <inchikey>  (1835) 
None

>  <smiles>  (1835) 
None

>  <ref_pdb>  (1835) 
A5594a

>  <alias>  (1835) 
None

>  <HIPPO Pose ID>  (1835) 
499479

>  <name>  (1835) 
P499479

>  <HIPPO Compound ID>  (1835) 
306238

>  <ref_mols>  (1835) 
A3408a,A5594a

>  <distance_score>  (1835) 
1.760577

>  <inspiration_score>  (1835) 
None

$$$$
P499480
     RDKit          3D

 19 20  0  0  0  0  0  0  0  0999 V2000
    4.3196    9.8228   27.8538 C   0  0  0  0  0  0  0  0  0  0  0  0
    4.9861   10.8566   26.9953 C   0  0  0  0  0  0  0  0  0  0  0  0
    4.6165   12.1976   27.0511 C   0  0  0  0  0  0  0  0  0  0  0  0
    5.2117   13.1339   26.2034 C   0  0  0  0  0  0  0  0  0  0  0  0
    6.2053   12.7601   25.2865 C   0  0  0  0  0  0  0  0  0  0  0  0
    6.6474   13.8132   24.3021 C   0  0  0  0  0  0  0  0  0  0  0  0
    6.6563   11.4253   25.3106 C   0  0  0  0  0  0  0  0  0  0  0  0
    7.7892   10.8718   24.5064 C   0  0  0  0  0  0  0  0  0  0  0  0
    7.7355    9.7681   24.1548 O   0  0  0  0  0  0  0  0  0  0  0  0
    8.8630   11.9276   24.2841 N   0  0  0  0  0  0  0  0  0  0  0  0
   10.0551   11.8863   23.5056 C   0  0  0  0  0  0  0  0  0  0  0  0
   10.9958   13.0045   23.9338 C   0  0  0  0  0  0  0  0  0  0  0  0
   10.9430   14.1509   23.0077 C   0  0  0  0  0  0  0  0  0  0  0  0
   11.9255   15.0739   22.7630 C   0  0  0  0  0  0  0  0  0  0  0  0
   11.5776   15.7779   21.6622 O   0  0  0  0  0  0  0  0  0  0  0  0
   10.3815   15.2352   21.2979 C   0  0  0  0  0  0  0  0  0  0  0  0
    9.8818   15.6384   19.9855 C   0  0  0  0  0  0  0  0  0  0  0  0
    9.8985   14.3438   22.1391 N   0  0  0  0  0  0  0  0  0  0  0  0
    6.0090   10.4845   26.1260 C   0  0  0  0  0  0  0  0  0  0  0  0
  1  2  1  0
  2  3  2  0
  3  4  1  0
  4  5  2  0
  5  6  1  0
  5  7  1  0
  7  8  1  0
  8  9  2  0
  8 10  1  0
 10 11  1  0
 11 12  1  0
 12 13  1  0
 13 14  2  0
 14 15  1  0
 15 16  1  0
 16 17  1  0
 16 18  2  0
  7 19  2  0
 19  2  1  0
 18 13  1  0
M  END
>  <energy_score>  (1836) 
-2.614908

>  <inchikey>  (1836) 
None

>  <smiles>  (1836) 
None

>  <ref_pdb>  (1836) 
A5594a

>  <alias>  (1836) 
None

>  <HIPPO Pose ID>  (1836) 
499480

>  <name>  (1836) 
P499480

>  <HIPPO Compound ID>  (1836) 
306240

>  <ref_mols>  (1836) 
A3408a,A5594a

>  <distance_score>  (1836) 
1.405089

>  <inspiration_score>  (1836) 
None

$$$$
P499481
     RDKit          3D

 19 20  0  0  0  0  0  0  0  0999 V2000
    6.9001   14.2172   23.8596 C   0  0  0  0  0  0  0  0  0  0  0  0
    6.5151   13.1698   24.8582 C   0  0  0  0  0  0  0  0  0  0  0  0
    5.3708   13.3894   25.6329 C   0  0  0  0  0  0  0  0  0  0  0  0
    4.8862   12.3962   26.4734 C   0  0  0  0  0  0  0  0  0  0  0  0
    5.5238   11.1623   26.5240 C   0  0  0  0  0  0  0  0  0  0  0  0
    4.8185    9.8724   27.7057 Br  0  0  0  0  0  0  0  0  0  0  0  0
    6.6762   10.9253   25.7745 C   0  0  0  0  0  0  0  0  0  0  0  0
    7.2159   11.9602   24.9964 C   0  0  0  0  0  0  0  0  0  0  0  0
    8.5539   11.7498   24.3552 C   0  0  0  0  0  0  0  0  0  0  0  0
    8.7754   10.7365   23.8247 O   0  0  0  0  0  0  0  0  0  0  0  0
    9.4596   12.9811   24.5797 N   0  0  0  0  0  0  0  0  0  0  0  0
   10.8032   13.2593   24.1121 C   0  0  2  0  0  0  0  0  0  0  0  0
   11.3312   14.5653   24.7055 C   0  0  0  0  0  0  0  0  0  0  0  0
   10.9057   13.2127   22.5888 C   0  0  0  0  0  0  0  0  0  0  0  0
   10.4375   14.4301   21.9029 C   0  0  0  0  0  0  0  0  0  0  0  0
   11.1172   15.1714   20.9675 C   0  0  0  0  0  0  0  0  0  0  0  0
   10.3231   16.2095   20.6023 O   0  0  0  0  0  0  0  0  0  0  0  0
    9.2097   16.0512   21.3639 C   0  0  0  0  0  0  0  0  0  0  0  0
    9.2141   14.9992   22.1488 N   0  0  0  0  0  0  0  0  0  0  0  0
  1  2  1  0
  2  3  2  0
  3  4  1  0
  4  5  2  0
  5  6  1  0
  5  7  1  0
  7  8  2  0
  8  9  1  0
  9 10  2  0
  9 11  1  0
 11 12  1  0
 12 13  1  6
 12 14  1  0
 14 15  1  0
 15 16  2  0
 16 17  1  0
 17 18  1  0
 18 19  2  0
  8  2  1  0
 19 15  1  0
M  END
>  <energy_score>  (1837) 
-10.323255

>  <inchikey>  (1837) 
None

>  <smiles>  (1837) 
None

>  <ref_pdb>  (1837) 
A5594a

>  <alias>  (1837) 
None

>  <HIPPO Pose ID>  (1837) 
499481

>  <name>  (1837) 
P499481

>  <HIPPO Compound ID>  (1837) 
306243

>  <ref_mols>  (1837) 
A3408a,A5594a

>  <distance_score>  (1837) 
1.507092

>  <inspiration_score>  (1837) 
None

$$$$
P499482
     RDKit          3D

 19 20  0  0  0  0  0  0  0  0999 V2000
    7.3972   14.4554   24.8719 C   0  0  0  0  0  0  0  0  0  0  0  0
    7.1918   13.0296   25.2760 C   0  0  0  0  0  0  0  0  0  0  0  0
    6.0914   12.7511   26.1125 C   0  0  0  0  0  0  0  0  0  0  0  0
    5.7122   11.4407   26.3838 C   0  0  0  0  0  0  0  0  0  0  0  0
    4.1493   11.0617   27.6960 I   0  0  0  0  0  0  0  0  0  0  0  0
    6.3903   10.3885   25.7857 C   0  0  0  0  0  0  0  0  0  0  0  0
    7.5070   10.6461   24.9844 C   0  0  0  0  0  0  0  0  0  0  0  0
    7.9484   11.9634   24.7590 C   0  0  0  0  0  0  0  0  0  0  0  0
    9.1647   12.1244   23.8918 C   0  0  0  0  0  0  0  0  0  0  0  0
    9.1745   11.5071   22.9042 O   0  0  0  0  0  0  0  0  0  0  0  0
   10.2097   13.1024   24.4706 N   0  0  0  0  0  0  0  0  0  0  0  0
   11.4586   13.6036   23.9004 C   0  0  2  0  0  0  0  0  0  0  0  0
   12.6031   13.5660   24.8916 C   0  0  0  0  0  0  0  0  0  0  0  0
   11.3211   15.0476   23.4089 C   0  0  0  0  0  0  0  0  0  0  0  0
   10.3669   15.1293   22.3017 C   0  0  0  0  0  0  0  0  0  0  0  0
   10.6001   14.9667   20.9607 C   0  0  0  0  0  0  0  0  0  0  0  0
    9.4024   15.0525   20.3270 O   0  0  0  0  0  0  0  0  0  0  0  0
    8.5147   15.2422   21.3344 C   0  0  0  0  0  0  0  0  0  0  0  0
    9.0340   15.3241   22.5335 N   0  0  0  0  0  0  0  0  0  0  0  0
  1  2  1  0
  2  3  2  0
  3  4  1  0
  4  5  1  0
  4  6  2  0
  6  7  1  0
  7  8  2  0
  8  9  1  0
  9 10  2  0
  9 11  1  0
 11 12  1  0
 12 13  1  1
 12 14  1  0
 14 15  1  0
 15 16  2  0
 16 17  1  0
 17 18  1  0
 18 19  2  0
  8  2  1  0
 19 15  1  0
M  END
>  <energy_score>  (1838) 
-0.38606

>  <inchikey>  (1838) 
None

>  <smiles>  (1838) 
None

>  <ref_pdb>  (1838) 
A5594a

>  <alias>  (1838) 
None

>  <HIPPO Pose ID>  (1838) 
499482

>  <name>  (1838) 
P499482

>  <HIPPO Compound ID>  (1838) 
306247

>  <ref_mols>  (1838) 
A3408a,A5594a

>  <distance_score>  (1838) 
1.284855

>  <inspiration_score>  (1838) 
None

$$$$
P499483
     RDKit          3D

 19 20  0  0  0  0  0  0  0  0999 V2000
    4.1133    9.3078   27.4509 C   0  0  0  0  0  0  0  0  0  0  0  0
    4.8399   10.5636   27.0757 C   0  0  0  0  0  0  0  0  0  0  0  0
    4.5538   11.7450   27.7702 C   0  0  0  0  0  0  0  0  0  0  0  0
    5.2560   12.9209   27.5182 C   0  0  0  0  0  0  0  0  0  0  0  0
    6.2690   12.9407   26.5673 C   0  0  0  0  0  0  0  0  0  0  0  0
    7.0416   14.2206   26.3679 C   0  0  0  0  0  0  0  0  0  0  0  0
    6.5000   11.7614   25.8284 C   0  0  0  0  0  0  0  0  0  0  0  0
    7.5274   11.8129   24.7831 C   0  0  0  0  0  0  0  0  0  0  0  0
    8.4616   11.1275   24.8268 O   0  0  0  0  0  0  0  0  0  0  0  0
    7.1639   12.9301   23.8085 N   0  0  0  0  0  0  0  0  0  0  0  0
    7.9091   13.5050   22.7414 C   0  0  1  0  0  0  0  0  0  0  0  0
    6.9700   14.2289   21.7926 C   0  0  0  0  0  0  0  0  0  0  0  0
    9.0234   14.3819   23.3241 C   0  0  0  0  0  0  0  0  0  0  0  0
    9.9833   14.7574   22.2774 C   0  0  0  0  0  0  0  0  0  0  0  0
   11.2752   14.3446   22.0737 C   0  0  0  0  0  0  0  0  0  0  0  0
   11.6839   14.8463   20.8773 O   0  0  0  0  0  0  0  0  0  0  0  0
   10.6119   15.5502   20.4306 C   0  0  0  0  0  0  0  0  0  0  0  0
    9.5796   15.5544   21.2391 N   0  0  0  0  0  0  0  0  0  0  0  0
    5.8309   10.5688   26.0940 C   0  0  0  0  0  0  0  0  0  0  0  0
  1  2  1  0
  2  3  2  0
  3  4  1  0
  4  5  2  0
  5  6  1  0
  5  7  1  0
  7  8  1  0
  8  9  2  0
  8 10  1  0
 10 11  1  0
 11 12  1  6
 11 13  1  0
 13 14  1  0
 14 15  2  0
 15 16  1  0
 16 17  1  0
 17 18  2  0
  7 19  2  0
 19  2  1  0
 18 14  1  0
M  END
>  <energy_score>  (1839) 
-21.264299

>  <inchikey>  (1839) 
None

>  <smiles>  (1839) 
None

>  <ref_pdb>  (1839) 
A5594a

>  <alias>  (1839) 
None

>  <HIPPO Pose ID>  (1839) 
499483

>  <name>  (1839) 
P499483

>  <HIPPO Compound ID>  (1839) 
306248

>  <ref_mols>  (1839) 
A3408a,A5594a

>  <distance_score>  (1839) 
1.819472

>  <inspiration_score>  (1839) 
None

$$$$
P499484
     RDKit          3D

 19 20  0  0  0  0  0  0  0  0999 V2000
   10.0143   15.5866   19.9643 C   0  0  0  0  0  0  0  0  0  0  0  0
   10.3834   15.0755   21.2839 C   0  0  0  0  0  0  0  0  0  0  0  0
    9.8301   14.1088   21.9859 N   0  0  0  0  0  0  0  0  0  0  0  0
   10.7440   13.8955   22.9884 C   0  0  0  0  0  0  0  0  0  0  0  0
   10.6617   12.7334   23.8964 C   0  0  0  0  0  0  0  0  0  0  0  0
    9.6761   11.6655   23.4157 C   0  0  0  0  0  0  0  0  0  0  0  0
    8.3752   11.9494   23.9601 N   0  0  0  0  0  0  0  0  0  0  0  0
    7.5813   11.2396   25.0481 C   0  0  0  0  0  0  0  0  0  0  0  0
    7.8111   10.2644   25.6315 O   0  0  0  0  0  0  0  0  0  0  0  0
    6.3529   11.9896   25.4957 C   0  0  0  0  0  0  0  0  0  0  0  0
    5.3048   11.2313   26.0877 C   0  0  0  0  0  0  0  0  0  0  0  0
    5.2746    9.7363   26.1592 C   0  0  0  0  0  0  0  0  0  0  0  0
    4.2374   11.8696   26.7312 C   0  0  0  0  0  0  0  0  0  0  0  0
    4.1438   13.2453   26.7404 C   0  0  0  0  0  0  0  0  0  0  0  0
    5.1384   14.0004   26.1405 C   0  0  0  0  0  0  0  0  0  0  0  0
    6.2541   13.3932   25.5443 C   0  0  0  0  0  0  0  0  0  0  0  0
    7.6744   14.8108   24.9346 I   0  0  0  0  0  0  0  0  0  0  0  0
   11.7313   14.8467   22.9283 C   0  0  0  0  0  0  0  0  0  0  0  0
   11.5097   15.6136   21.8342 O   0  0  0  0  0  0  0  0  0  0  0  0
  1  2  1  0
  2  3  2  0
  3  4  1  0
  4  5  1  0
  5  6  1  0
  6  7  1  0
  7  8  1  0
  8  9  2  0
  8 10  1  0
 10 11  2  0
 11 12  1  0
 11 13  1  0
 13 14  2  0
 14 15  1  0
 15 16  2  0
 16 17  1  0
  4 18  2  0
 18 19  1  0
 19  2  1  0
 16 10  1  0
M  END
>  <energy_score>  (1840) 
-34.146971

>  <inchikey>  (1840) 
None

>  <smiles>  (1840) 
None

>  <ref_pdb>  (1840) 
A5594a

>  <alias>  (1840) 
None

>  <HIPPO Pose ID>  (1840) 
499484

>  <name>  (1840) 
P499484

>  <HIPPO Compound ID>  (1840) 
306250

>  <ref_mols>  (1840) 
A3408a,A5594a

>  <distance_score>  (1840) 
1.621915

>  <inspiration_score>  (1840) 
None

$$$$
P499485
     RDKit          3D

 19 20  0  0  0  0  0  0  0  0999 V2000
    7.3121   14.5464   25.2091 C   0  0  0  0  0  0  0  0  0  0  0  0
    7.1317   13.0669   25.3486 C   0  0  0  0  0  0  0  0  0  0  0  0
    6.0817   12.5607   26.1259 C   0  0  0  0  0  0  0  0  0  0  0  0
    5.8453   11.1890   26.1875 C   0  0  0  0  0  0  0  0  0  0  0  0
    6.6583   10.3075   25.4744 C   0  0  0  0  0  0  0  0  0  0  0  0
    7.7128   10.7926   24.6976 C   0  0  0  0  0  0  0  0  0  0  0  0
    8.9198    9.4327   23.6320 I   0  0  0  0  0  0  0  0  0  0  0  0
    7.9449   12.1717   24.6380 C   0  0  0  0  0  0  0  0  0  0  0  0
    8.9380   12.7107   23.6937 C   0  0  0  0  0  0  0  0  0  0  0  0
    8.6431   12.7105   22.5696 O   0  0  0  0  0  0  0  0  0  0  0  0
   10.2492   13.1252   24.3794 N   0  0  0  0  0  0  0  0  0  0  0  0
   11.4571   13.7238   23.8280 C   0  0  2  0  0  0  0  0  0  0  0  0
   12.6050   13.6217   24.8123 C   0  0  0  0  0  0  0  0  0  0  0  0
   11.2766   15.1978   23.4540 C   0  0  0  0  0  0  0  0  0  0  0  0
   10.2656   15.3539   22.4056 C   0  0  0  0  0  0  0  0  0  0  0  0
   10.3810   15.0788   21.0661 C   0  0  0  0  0  0  0  0  0  0  0  0
    9.1524   15.2371   20.5105 O   0  0  0  0  0  0  0  0  0  0  0  0
    8.3674   15.5977   21.5595 C   0  0  0  0  0  0  0  0  0  0  0  0
    8.9803   15.7138   22.7133 N   0  0  0  0  0  0  0  0  0  0  0  0
  1  2  1  0
  2  3  2  0
  3  4  1  0
  4  5  2  0
  5  6  1  0
  6  7  1  0
  6  8  2  0
  8  9  1  0
  9 10  2  0
  9 11  1  0
 11 12  1  0
 12 13  1  1
 12 14  1  0
 14 15  1  0
 15 16  2  0
 16 17  1  0
 17 18  1  0
 18 19  2  0
  8  2  1  0
 19 15  1  0
M  END
>  <energy_score>  (1841) 
-17.69351

>  <inchikey>  (1841) 
None

>  <smiles>  (1841) 
None

>  <ref_pdb>  (1841) 
A5594a

>  <alias>  (1841) 
None

>  <HIPPO Pose ID>  (1841) 
499485

>  <name>  (1841) 
P499485

>  <HIPPO Compound ID>  (1841) 
306251

>  <ref_mols>  (1841) 
A3408a,A5594a

>  <distance_score>  (1841) 
1.769258

>  <inspiration_score>  (1841) 
None

$$$$
P499486
     RDKit          3D

 19 20  0  0  0  0  0  0  0  0999 V2000
    6.8437   14.2297   26.2508 C   0  0  0  0  0  0  0  0  0  0  0  0
    6.6329   12.7478   26.1327 C   0  0  0  0  0  0  0  0  0  0  0  0
    5.5795   12.1244   26.7915 C   0  0  0  0  0  0  0  0  0  0  0  0
    5.3446   10.7708   26.5765 C   0  0  0  0  0  0  0  0  0  0  0  0
    6.1779   10.0311   25.7289 C   0  0  0  0  0  0  0  0  0  0  0  0
    7.2588   10.6177   25.0886 C   0  0  0  0  0  0  0  0  0  0  0  0
    8.5564    9.5283   23.8644 I   0  0  0  0  0  0  0  0  0  0  0  0
    7.4372   11.9761   25.2724 C   0  0  0  0  0  0  0  0  0  0  0  0
    8.2335   12.7411   24.3227 C   0  0  0  0  0  0  0  0  0  0  0  0
    9.3666   12.9528   24.4561 O   0  0  0  0  0  0  0  0  0  0  0  0
    7.2491   13.2369   23.2605 N   0  0  0  0  0  0  0  0  0  0  0  0
    7.4269   14.1727   22.1925 C   0  0  1  0  0  0  0  0  0  0  0  0
    6.0404   14.6187   21.7816 C   0  0  0  0  0  0  0  0  0  0  0  0
    8.3228   15.3310   22.6439 C   0  0  0  0  0  0  0  0  0  0  0  0
    9.6938   15.1309   22.1363 C   0  0  0  0  0  0  0  0  0  0  0  0
   10.8861   14.9277   22.7850 C   0  0  0  0  0  0  0  0  0  0  0  0
   11.8417   14.7341   21.8394 O   0  0  0  0  0  0  0  0  0  0  0  0
   11.1688   14.8347   20.6636 C   0  0  0  0  0  0  0  0  0  0  0  0
    9.8858   15.0770   20.7786 N   0  0  0  0  0  0  0  0  0  0  0  0
  1  2  1  0
  2  3  2  0
  3  4  1  0
  4  5  2  0
  5  6  1  0
  6  7  1  0
  6  8  2  0
  8  9  1  0
  9 10  2  0
  9 11  1  0
 11 12  1  0
 12 13  1  1
 12 14  1  0
 14 15  1  0
 15 16  2  0
 16 17  1  0
 17 18  1  0
 18 19  2  0
  8  2  1  0
 19 15  1  0
M  END
>  <energy_score>  (1842) 
-8.824493

>  <inchikey>  (1842) 
None

>  <smiles>  (1842) 
None

>  <ref_pdb>  (1842) 
A5594a

>  <alias>  (1842) 
None

>  <HIPPO Pose ID>  (1842) 
499486

>  <name>  (1842) 
P499486

>  <HIPPO Compound ID>  (1842) 
306251

>  <ref_mols>  (1842) 
A3408a,A5594a

>  <distance_score>  (1842) 
1.885155

>  <inspiration_score>  (1842) 
None

$$$$
P499487
     RDKit          3D

 19 20  0  0  0  0  0  0  0  0999 V2000
   11.8113   15.0985   20.4898 C   0  0  0  0  0  0  0  0  0  0  0  0
   10.6722   15.5469   21.3020 C   0  0  0  0  0  0  0  0  0  0  0  0
    9.9125   16.5570   20.7938 O   0  0  0  0  0  0  0  0  0  0  0  0
    8.9557   16.7478   21.7365 C   0  0  0  0  0  0  0  0  0  0  0  0
    9.0339   15.9568   22.7878 N   0  0  0  0  0  0  0  0  0  0  0  0
   10.1340   15.1800   22.5176 C   0  0  0  0  0  0  0  0  0  0  0  0
   10.5598   14.0957   23.4348 C   0  0  0  0  0  0  0  0  0  0  0  0
    9.8707   12.7819   23.0830 C   0  0  0  0  0  0  0  0  0  0  0  0
    8.6053   12.5765   23.7533 N   0  0  0  0  0  0  0  0  0  0  0  0
    8.1309   11.4902   24.5359 C   0  0  0  0  0  0  0  0  0  0  0  0
    8.6245   10.4303   24.7779 O   0  0  0  0  0  0  0  0  0  0  0  0
    6.8365   11.7037   25.2909 C   0  0  0  0  0  0  0  0  0  0  0  0
    6.1535   10.5120   25.6291 C   0  0  0  0  0  0  0  0  0  0  0  0
    5.0277   10.5080   26.4497 C   0  0  0  0  0  0  0  0  0  0  0  0
    4.5471   11.7058   26.9506 C   0  0  0  0  0  0  0  0  0  0  0  0
    5.1988   12.8966   26.6343 C   0  0  0  0  0  0  0  0  0  0  0  0
    6.3598   12.9208   25.8249 C   0  0  0  0  0  0  0  0  0  0  0  0
    6.9850   14.2709   25.5964 C   0  0  0  0  0  0  0  0  0  0  0  0
    6.3388   15.0060   24.0708 S   0  0  0  0  0  0  0  0  0  0  0  0
  1  2  1  0
  2  3  1  0
  3  4  1  0
  4  5  2  0
  5  6  1  0
  6  7  1  0
  7  8  1  0
  8  9  1  0
  9 10  1  0
 10 11  2  0
 10 12  1  0
 12 13  2  0
 13 14  1  0
 14 15  2  0
 15 16  1  0
 16 17  2  0
 17 18  1  0
 18 19  1  0
  6  2  2  0
 17 12  1  0
M  END
>  <energy_score>  (1843) 
-14.320539

>  <inchikey>  (1843) 
None

>  <smiles>  (1843) 
None

>  <ref_pdb>  (1843) 
A5594a

>  <alias>  (1843) 
None

>  <HIPPO Pose ID>  (1843) 
499487

>  <name>  (1843) 
P499487

>  <HIPPO Compound ID>  (1843) 
306252

>  <ref_mols>  (1843) 
A3408a,A5594a

>  <distance_score>  (1843) 
1.888375

>  <inspiration_score>  (1843) 
None

$$$$
P499488
     RDKit          3D

 19 20  0  0  0  0  0  0  0  0999 V2000
    9.8686   15.5037   19.6765 C   0  0  0  0  0  0  0  0  0  0  0  0
   10.5465   15.4716   20.9646 C   0  0  0  0  0  0  0  0  0  0  0  0
   10.1530   14.9989   22.1316 N   0  0  0  0  0  0  0  0  0  0  0  0
   11.2863   15.1037   22.8952 C   0  0  0  0  0  0  0  0  0  0  0  0
   11.4001   14.4555   24.2065 C   0  0  0  0  0  0  0  0  0  0  0  0
   11.1373   12.9683   24.0413 C   0  0  0  0  0  0  0  0  0  0  0  0
    9.8261   12.5994   24.5011 N   0  0  0  0  0  0  0  0  0  0  0  0
    8.8415   11.5505   23.9681 C   0  0  0  0  0  0  0  0  0  0  0  0
    8.9633   10.7652   23.1208 O   0  0  0  0  0  0  0  0  0  0  0  0
    7.5623   11.6183   24.7355 C   0  0  0  0  0  0  0  0  0  0  0  0
    7.0683   10.4120   25.2496 C   0  0  0  0  0  0  0  0  0  0  0  0
    5.9271   10.4053   26.0492 C   0  0  0  0  0  0  0  0  0  0  0  0
    5.2797   11.5988   26.3437 C   0  0  0  0  0  0  0  0  0  0  0  0
    5.7345   12.7936   25.7872 C   0  0  0  0  0  0  0  0  0  0  0  0
    6.8602   12.8222   24.9431 C   0  0  0  0  0  0  0  0  0  0  0  0
    7.1918   14.1213   24.2498 C   0  0  0  0  0  0  0  0  0  0  0  0
    7.1711   13.9942   22.4502 S   0  0  0  0  0  0  0  0  0  0  0  0
   12.2802   15.7069   22.1735 C   0  0  0  0  0  0  0  0  0  0  0  0
   11.8153   15.9517   20.9355 O   0  0  0  0  0  0  0  0  0  0  0  0
  1  2  1  0
  2  3  2  0
  3  4  1  0
  4  5  1  0
  5  6  1  0
  6  7  1  0
  7  8  1  0
  8  9  2  0
  8 10  1  0
 10 11  2  0
 11 12  1  0
 12 13  2  0
 13 14  1  0
 14 15  2  0
 15 16  1  0
 16 17  1  0
  4 18  2  0
 18 19  1  0
 19  2  1  0
 15 10  1  0
M  END
>  <energy_score>  (1844) 
-18.355436

>  <inchikey>  (1844) 
None

>  <smiles>  (1844) 
None

>  <ref_pdb>  (1844) 
A5594a

>  <alias>  (1844) 
None

>  <HIPPO Pose ID>  (1844) 
499488

>  <name>  (1844) 
P499488

>  <HIPPO Compound ID>  (1844) 
306253

>  <ref_mols>  (1844) 
A3408a,A5594a

>  <distance_score>  (1844) 
1.658882

>  <inspiration_score>  (1844) 
None

$$$$
P499489
     RDKit          3D

 19 20  0  0  0  0  0  0  0  0999 V2000
   10.6551   12.6719   22.3283 C   0  0  0  0  0  0  0  0  0  0  0  0
   10.6852   13.0132   23.8041 C   0  0  1  0  0  0  0  0  0  0  0  0
   11.1250   14.4695   24.0420 C   0  0  0  0  0  0  0  0  0  0  0  0
   10.7010   15.3544   22.9302 C   0  0  0  0  0  0  0  0  0  0  0  0
   11.4573   15.8011   21.8702 C   0  0  0  0  0  0  0  0  0  0  0  0
   10.6136   16.3664   20.9654 O   0  0  0  0  0  0  0  0  0  0  0  0
    9.3940   16.2728   21.5535 C   0  0  0  0  0  0  0  0  0  0  0  0
    9.3772   15.6596   22.7149 N   0  0  0  0  0  0  0  0  0  0  0  0
    9.3828   12.6943   24.3476 N   0  0  0  0  0  0  0  0  0  0  0  0
    8.5127   11.4324   24.1869 C   0  0  0  0  0  0  0  0  0  0  0  0
    8.6729   10.4841   23.5308 O   0  0  0  0  0  0  0  0  0  0  0  0
    7.2454   11.5305   24.9658 C   0  0  0  0  0  0  0  0  0  0  0  0
    6.7736   10.3570   25.5651 C   0  0  0  0  0  0  0  0  0  0  0  0
    5.6349   10.3794   26.3679 C   0  0  0  0  0  0  0  0  0  0  0  0
    4.9587   11.5740   26.5751 C   0  0  0  0  0  0  0  0  0  0  0  0
    5.3732   12.7269   25.9142 C   0  0  0  0  0  0  0  0  0  0  0  0
    6.4910   12.7089   25.0611 C   0  0  0  0  0  0  0  0  0  0  0  0
    6.7673   13.9239   24.2204 C   0  0  0  0  0  0  0  0  0  0  0  0
    7.6288   15.1828   25.1783 S   0  0  0  0  0  0  0  0  0  0  0  0
  2  1  1  6
  2  3  1  0
  3  4  1  0
  4  5  2  0
  5  6  1  0
  6  7  1  0
  7  8  2  0
  2  9  1  0
  9 10  1  0
 10 11  2  0
 10 12  1  0
 12 13  2  0
 13 14  1  0
 14 15  2  0
 15 16  1  0
 16 17  2  0
 17 18  1  0
 18 19  1  0
  8  4  1  0
 17 12  1  0
M  END
>  <energy_score>  (1845) 
-16.306789

>  <inchikey>  (1845) 
None

>  <smiles>  (1845) 
None

>  <ref_pdb>  (1845) 
A5594a

>  <alias>  (1845) 
None

>  <HIPPO Pose ID>  (1845) 
499489

>  <name>  (1845) 
P499489

>  <HIPPO Compound ID>  (1845) 
306254

>  <ref_mols>  (1845) 
A3408a,A5594a

>  <distance_score>  (1845) 
1.576239

>  <inspiration_score>  (1845) 
None

$$$$
P499490
     RDKit          3D

 19 20  0  0  0  0  0  0  0  0999 V2000
   11.4947   14.6235   24.7434 C   0  0  0  0  0  0  0  0  0  0  0  0
   11.0566   13.3201   24.0845 C   0  0  2  0  0  0  0  0  0  0  0  0
   11.1559   13.3564   22.5622 C   0  0  0  0  0  0  0  0  0  0  0  0
   10.6568   14.5782   21.9088 C   0  0  0  0  0  0  0  0  0  0  0  0
   11.1867   15.1949   20.8030 C   0  0  0  0  0  0  0  0  0  0  0  0
   10.3918   16.2477   20.4884 O   0  0  0  0  0  0  0  0  0  0  0  0
    9.4330   16.2301   21.4496 C   0  0  0  0  0  0  0  0  0  0  0  0
    9.5420   15.2582   22.3300 N   0  0  0  0  0  0  0  0  0  0  0  0
    9.7519   12.9018   24.5505 N   0  0  0  0  0  0  0  0  0  0  0  0
    8.8388   11.7546   24.0739 C   0  0  0  0  0  0  0  0  0  0  0  0
    9.0259   10.9198   23.2843 O   0  0  0  0  0  0  0  0  0  0  0  0
    7.5456   11.7532   24.8208 C   0  0  0  0  0  0  0  0  0  0  0  0
    7.1062   10.5201   25.3247 C   0  0  0  0  0  0  0  0  0  0  0  0
    5.9519   10.4463   26.1021 C   0  0  0  0  0  0  0  0  0  0  0  0
    5.2326   11.6000   26.3836 C   0  0  0  0  0  0  0  0  0  0  0  0
    5.6226   12.8148   25.8230 C   0  0  0  0  0  0  0  0  0  0  0  0
    6.7580   12.9044   24.9961 C   0  0  0  0  0  0  0  0  0  0  0  0
    6.9757   14.1851   24.2318 C   0  0  0  0  0  0  0  0  0  0  0  0
    6.8075   13.9437   22.4476 S   0  0  0  0  0  0  0  0  0  0  0  0
  2  1  1  1
  2  3  1  0
  3  4  1  0
  4  5  2  0
  5  6  1  0
  6  7  1  0
  7  8  2  0
  2  9  1  0
  9 10  1  0
 10 11  2  0
 10 12  1  0
 12 13  2  0
 13 14  1  0
 14 15  2  0
 15 16  1  0
 16 17  2  0
 17 18  1  0
 18 19  1  0
  8  4  1  0
 17 12  1  0
M  END
>  <energy_score>  (1846) 
-7.684983

>  <inchikey>  (1846) 
None

>  <smiles>  (1846) 
None

>  <ref_pdb>  (1846) 
A5594a

>  <alias>  (1846) 
None

>  <HIPPO Pose ID>  (1846) 
499490

>  <name>  (1846) 
P499490

>  <HIPPO Compound ID>  (1846) 
306254

>  <ref_mols>  (1846) 
A3408a,A5594a

>  <distance_score>  (1846) 
1.466993

>  <inspiration_score>  (1846) 
None

$$$$
P499491
     RDKit          3D

 19 20  0  0  0  0  0  0  0  0999 V2000
    9.9839   15.5752   19.9320 C   0  0  0  0  0  0  0  0  0  0  0  0
   10.3580   15.0724   21.2539 C   0  0  0  0  0  0  0  0  0  0  0  0
    9.8848   14.0360   21.9160 N   0  0  0  0  0  0  0  0  0  0  0  0
   10.7790   13.8957   22.9463 C   0  0  0  0  0  0  0  0  0  0  0  0
   10.8337   12.7030   23.8150 C   0  0  0  0  0  0  0  0  0  0  0  0
    9.8899   11.5665   23.3932 C   0  0  0  0  0  0  0  0  0  0  0  0
    8.6090   11.6832   24.0299 N   0  0  0  0  0  0  0  0  0  0  0  0
    8.0355   12.7901   24.9045 C   0  0  0  0  0  0  0  0  0  0  0  0
    8.5305   13.7565   25.3189 O   0  0  0  0  0  0  0  0  0  0  0  0
    6.6441   12.5376   25.2861 C   0  0  0  0  0  0  0  0  0  0  0  0
    6.2992   11.4027   26.0305 C   0  0  0  0  0  0  0  0  0  0  0  0
    5.0711   11.4002   26.6811 C   0  0  0  0  0  0  0  0  0  0  0  0
    4.5447    9.9013   28.0126 I   0  0  0  0  0  0  0  0  0  0  0  0
    4.1961   12.4773   26.5379 C   0  0  0  0  0  0  0  0  0  0  0  0
    4.5277   13.5580   25.7206 C   0  0  0  0  0  0  0  0  0  0  0  0
    5.7582   13.5963   25.0750 C   0  0  0  0  0  0  0  0  0  0  0  0
    6.1517   14.7698   24.2235 C   0  0  0  0  0  0  0  0  0  0  0  0
   11.6711   14.9386   22.9332 C   0  0  0  0  0  0  0  0  0  0  0  0
   11.4157   15.6999   21.8452 O   0  0  0  0  0  0  0  0  0  0  0  0
  1  2  1  0
  2  3  2  0
  3  4  1  0
  4  5  1  0
  5  6  1  0
  6  7  1  0
  7  8  1  0
  8  9  2  0
  8 10  1  0
 10 11  2  0
 11 12  1  0
 12 13  1  0
 12 14  2  0
 14 15  1  0
 15 16  2  0
 16 17  1  0
  4 18  2  0
 18 19  1  0
 19  2  1  0
 16 10  1  0
M  END
>  <energy_score>  (1847) 
-10.591007

>  <inchikey>  (1847) 
None

>  <smiles>  (1847) 
None

>  <ref_pdb>  (1847) 
A5594a

>  <alias>  (1847) 
None

>  <HIPPO Pose ID>  (1847) 
499491

>  <name>  (1847) 
P499491

>  <HIPPO Compound ID>  (1847) 
306256

>  <ref_mols>  (1847) 
A3408a,A5594a

>  <distance_score>  (1847) 
1.653144

>  <inspiration_score>  (1847) 
None

$$$$
P499492
     RDKit          3D

 19 20  0  0  0  0  0  0  0  0999 V2000
    6.8641   13.9909   26.1391 C   0  0  0  0  0  0  0  0  0  0  0  0
    6.1709   12.6640   26.3052 C   0  0  0  0  0  0  0  0  0  0  0  0
    5.0598   12.5793   27.1414 C   0  0  0  0  0  0  0  0  0  0  0  0
    4.4170   11.3572   27.3266 C   0  0  0  0  0  0  0  0  0  0  0  0
    3.3514   11.3014   28.1370 F   0  0  0  0  0  0  0  0  0  0  0  0
    4.8577   10.1986   26.6981 C   0  0  0  0  0  0  0  0  0  0  0  0
    5.9459   10.2627   25.8402 C   0  0  0  0  0  0  0  0  0  0  0  0
    6.5638   11.4928   25.6291 C   0  0  0  0  0  0  0  0  0  0  0  0
    7.6780   11.5554   24.6810 C   0  0  0  0  0  0  0  0  0  0  0  0
    8.6117   10.8877   24.8267 O   0  0  0  0  0  0  0  0  0  0  0  0
    7.3953   12.6460   23.6610 N   0  0  0  0  0  0  0  0  0  0  0  0
    8.2260   13.2124   22.6677 C   0  0  0  0  0  0  0  0  0  0  0  0
    8.8660   14.5000   23.1386 C   0  0  0  0  0  0  0  0  0  0  0  0
    9.6263   15.0355   22.0038 C   0  0  0  0  0  0  0  0  0  0  0  0
    8.9980   15.2602   20.8068 N   0  0  0  0  0  0  0  0  0  0  0  0
    9.9850   15.5730   19.9974 C   0  0  0  0  0  0  0  0  0  0  0  0
   11.2166   15.5747   20.5675 O   0  0  0  0  0  0  0  0  0  0  0  0
   10.9732   15.2314   21.8617 C   0  0  0  0  0  0  0  0  0  0  0  0
   12.1143   15.0900   22.7491 C   0  0  0  0  0  0  0  0  0  0  0  0
  1  2  1  0
  2  3  2  0
  3  4  1  0
  4  5  1  0
  4  6  2  0
  6  7  1  0
  7  8  2  0
  8  9  1  0
  9 10  2  0
  9 11  1  0
 11 12  1  0
 12 13  1  0
 13 14  1  0
 14 15  1  0
 15 16  2  0
 16 17  1  0
 17 18  1  0
 18 19  1  0
  8  2  1  0
 18 14  2  0
M  END
>  <energy_score>  (1848) 
-3.258291

>  <inchikey>  (1848) 
None

>  <smiles>  (1848) 
None

>  <ref_pdb>  (1848) 
A5594a

>  <alias>  (1848) 
None

>  <HIPPO Pose ID>  (1848) 
499492

>  <name>  (1848) 
P499492

>  <HIPPO Compound ID>  (1848) 
306258

>  <ref_mols>  (1848) 
A3408a,A5594a

>  <distance_score>  (1848) 
1.730745

>  <inspiration_score>  (1848) 
None

$$$$
P499493
     RDKit          3D

 19 20  0  0  0  0  0  0  0  0999 V2000
    7.0383   14.3983   24.5995 C   0  0  0  0  0  0  0  0  0  0  0  0
    6.8809   12.9852   25.0726 C   0  0  0  0  0  0  0  0  0  0  0  0
    5.7829   12.6740   25.8867 C   0  0  0  0  0  0  0  0  0  0  0  0
    5.4918   11.3535   26.2021 C   0  0  0  0  0  0  0  0  0  0  0  0
    6.2790   10.3310   25.6817 C   0  0  0  0  0  0  0  0  0  0  0  0
    7.4153   10.6127   24.9081 C   0  0  0  0  0  0  0  0  0  0  0  0
    8.2081    9.4893   24.3010 C   0  0  0  0  0  0  0  0  0  0  0  0
    7.7463   11.9566   24.6524 C   0  0  0  0  0  0  0  0  0  0  0  0
    9.0281   12.2621   23.9355 C   0  0  0  0  0  0  0  0  0  0  0  0
    9.2662   11.7099   22.9413 O   0  0  0  0  0  0  0  0  0  0  0  0
    9.8471   13.2977   24.7196 N   0  0  0  0  0  0  0  0  0  0  0  0
   11.1725   13.8022   24.4956 C   0  0  0  0  0  0  0  0  0  0  0  0
   11.5025   14.0613   23.0482 C   0  0  0  0  0  0  0  0  0  0  0  0
   10.5622   14.9312   22.3208 C   0  0  0  0  0  0  0  0  0  0  0  0
    9.4027   15.4601   22.8317 N   0  0  0  0  0  0  0  0  0  0  0  0
    8.8948   16.1118   21.8073 C   0  0  0  0  0  0  0  0  0  0  0  0
    9.6286   16.0647   20.6663 O   0  0  0  0  0  0  0  0  0  0  0  0
   10.7109   15.3271   21.0174 C   0  0  0  0  0  0  0  0  0  0  0  0
   11.7592   15.1219   20.0211 C   0  0  0  0  0  0  0  0  0  0  0  0
  1  2  1  0
  2  3  2  0
  3  4  1  0
  4  5  2  0
  5  6  1  0
  6  7  1  0
  6  8  2  0
  8  9  1  0
  9 10  2  0
  9 11  1  0
 11 12  1  0
 12 13  1  0
 13 14  1  0
 14 15  1  0
 15 16  2  0
 16 17  1  0
 17 18  1  0
 18 19  1  0
  8  2  1  0
 18 14  2  0
M  END
>  <energy_score>  (1849) 
-9.438503

>  <inchikey>  (1849) 
None

>  <smiles>  (1849) 
None

>  <ref_pdb>  (1849) 
A5594a

>  <alias>  (1849) 
None

>  <HIPPO Pose ID>  (1849) 
499493

>  <name>  (1849) 
P499493

>  <HIPPO Compound ID>  (1849) 
306261

>  <ref_mols>  (1849) 
A3408a,A5594a

>  <distance_score>  (1849) 
1.417992

>  <inspiration_score>  (1849) 
None

$$$$
P499494
     RDKit          3D

 19 20  0  0  0  0  0  0  0  0999 V2000
    7.5778   14.3278   25.3642 C   0  0  0  0  0  0  0  0  0  0  0  0
    6.3973   13.4648   25.7223 C   0  0  0  0  0  0  0  0  0  0  0  0
    5.2951   14.1391   26.2635 C   0  0  0  0  0  0  0  0  0  0  0  0
    4.2040   13.4469   26.7742 C   0  0  0  0  0  0  0  0  0  0  0  0
    4.1847   12.0634   26.7476 C   0  0  0  0  0  0  0  0  0  0  0  0
    5.2251   11.3529   26.1481 C   0  0  0  0  0  0  0  0  0  0  0  0
    5.1387    9.8561   26.2245 C   0  0  0  0  0  0  0  0  0  0  0  0
    6.3260   12.0595   25.6015 C   0  0  0  0  0  0  0  0  0  0  0  0
    7.4948   11.2712   25.1392 C   0  0  0  0  0  0  0  0  0  0  0  0
    7.7376   10.3251   25.7643 O   0  0  0  0  0  0  0  0  0  0  0  0
    8.2424   11.9020   23.9694 N   0  0  0  0  0  0  0  0  0  0  0  0
    9.4915   11.5626   23.3801 C   0  0  1  0  0  0  0  0  0  0  0  0
    9.5532   10.1116   22.9106 C   0  0  0  0  0  0  0  0  0  0  0  0
   10.3388   12.6299   22.6964 C   0  0  0  0  0  0  0  0  0  0  0  0
    9.7109   13.8774   22.2334 C   0  0  0  0  0  0  0  0  0  0  0  0
   10.3706   14.9864   21.7539 C   0  0  0  0  0  0  0  0  0  0  0  0
    9.4363   15.8917   21.3736 O   0  0  0  0  0  0  0  0  0  0  0  0
    8.2570   15.2836   21.6629 C   0  0  0  0  0  0  0  0  0  0  0  0
    8.3526   14.0705   22.1626 N   0  0  0  0  0  0  0  0  0  0  0  0
  1  2  1  0
  2  3  2  0
  3  4  1  0
  4  5  2  0
  5  6  1  0
  6  7  1  0
  6  8  2  0
  8  9  1  0
  9 10  2  0
  9 11  1  0
 11 12  1  0
 12 13  1  6
 12 14  1  0
 14 15  1  0
 15 16  2  0
 16 17  1  0
 17 18  1  0
 18 19  2  0
  8  2  1  0
 19 15  1  0
M  END
>  <energy_score>  (1850) 
-2.361906

>  <inchikey>  (1850) 
None

>  <smiles>  (1850) 
None

>  <ref_pdb>  (1850) 
A5594a

>  <alias>  (1850) 
None

>  <HIPPO Pose ID>  (1850) 
499494

>  <name>  (1850) 
P499494

>  <HIPPO Compound ID>  (1850) 
306263

>  <ref_mols>  (1850) 
A3408a,A5594a

>  <distance_score>  (1850) 
1.821471

>  <inspiration_score>  (1850) 
None

$$$$
P499495
     RDKit          3D

 19 20  0  0  0  0  0  0  0  0999 V2000
    9.7875   15.4535   19.7631 C   0  0  0  0  0  0  0  0  0  0  0  0
   10.5578   15.2650   20.9806 C   0  0  0  0  0  0  0  0  0  0  0  0
   10.2613   14.6329   22.0977 N   0  0  0  0  0  0  0  0  0  0  0  0
   11.4272   14.7378   22.8173 C   0  0  0  0  0  0  0  0  0  0  0  0
   11.6087   14.1469   24.1513 C   0  0  0  0  0  0  0  0  0  0  0  0
   10.5416   14.6563   25.0933 C   0  0  0  0  0  0  0  0  0  0  0  0
    9.3453   13.8611   25.1491 N   0  0  0  0  0  0  0  0  0  0  0  0
    8.9277   12.6098   24.3307 C   0  0  0  0  0  0  0  0  0  0  0  0
    9.5225   11.9898   23.5422 O   0  0  0  0  0  0  0  0  0  0  0  0
    7.5648   12.1544   24.7678 C   0  0  0  0  0  0  0  0  0  0  0  0
    7.2724   10.7872   24.9391 C   0  0  0  0  0  0  0  0  0  0  0  0
    8.1373    9.7074   24.3561 C   0  0  0  0  0  0  0  0  0  0  0  0
    6.1097   10.4337   25.6461 C   0  0  0  0  0  0  0  0  0  0  0  0
    5.2476   11.4086   26.1488 C   0  0  0  0  0  0  0  0  0  0  0  0
    5.4945   12.7509   25.8905 C   0  0  0  0  0  0  0  0  0  0  0  0
    6.6314   13.1102   25.1804 C   0  0  0  0  0  0  0  0  0  0  0  0
    6.8179   14.4463   24.9468 O   0  0  0  0  0  0  0  0  0  0  0  0
   12.3243   15.5125   22.1325 C   0  0  0  0  0  0  0  0  0  0  0  0
   11.7830   15.8478   20.9496 O   0  0  0  0  0  0  0  0  0  0  0  0
  1  2  1  0
  2  3  2  0
  3  4  1  0
  4  5  1  0
  5  6  1  0
  6  7  1  0
  7  8  1  0
  8  9  2  0
  8 10  1  0
 10 11  2  0
 11 12  1  0
 11 13  1  0
 13 14  2  0
 14 15  1  0
 15 16  2  0
 16 17  1  0
  4 18  2  0
 18 19  1  0
 19  2  1  0
 16 10  1  0
M  END
>  <energy_score>  (1851) 
-9.633012

>  <inchikey>  (1851) 
None

>  <smiles>  (1851) 
None

>  <ref_pdb>  (1851) 
A5594a

>  <alias>  (1851) 
None

>  <HIPPO Pose ID>  (1851) 
499495

>  <name>  (1851) 
P499495

>  <HIPPO Compound ID>  (1851) 
306265

>  <ref_mols>  (1851) 
A3408a,A5594a

>  <distance_score>  (1851) 
1.740019

>  <inspiration_score>  (1851) 
None

$$$$
P499496
     RDKit          3D

 19 20  0  0  0  0  0  0  0  0999 V2000
    8.2541    9.3914   24.2088 C   0  0  0  0  0  0  0  0  0  0  0  0
    7.5925   10.6083   24.7919 C   0  0  0  0  0  0  0  0  0  0  0  0
    6.4161   10.4627   25.5512 C   0  0  0  0  0  0  0  0  0  0  0  0
    5.7767   11.5739   26.0973 C   0  0  0  0  0  0  0  0  0  0  0  0
    6.2955   12.8449   25.8777 C   0  0  0  0  0  0  0  0  0  0  0  0
    7.4470   13.0041   25.1084 C   0  0  0  0  0  0  0  0  0  0  0  0
    7.8877   14.2884   24.9617 O   0  0  0  0  0  0  0  0  0  0  0  0
    8.1162   11.8995   24.5709 C   0  0  0  0  0  0  0  0  0  0  0  0
    9.3629   12.0706   23.7586 C   0  0  0  0  0  0  0  0  0  0  0  0
    9.4728   11.4267   22.7975 O   0  0  0  0  0  0  0  0  0  0  0  0
   10.2974   13.1315   24.3580 N   0  0  0  0  0  0  0  0  0  0  0  0
   11.5304   13.6971   23.8469 C   0  0  2  0  0  0  0  0  0  0  0  0
   12.6347   13.6684   24.8766 C   0  0  0  0  0  0  0  0  0  0  0  0
   11.2954   15.1319   23.3720 C   0  0  0  0  0  0  0  0  0  0  0  0
   10.2570   15.1572   22.3278 C   0  0  0  0  0  0  0  0  0  0  0  0
   10.4283   15.1054   20.9690 C   0  0  0  0  0  0  0  0  0  0  0  0
    9.1956   15.0903   20.4024 O   0  0  0  0  0  0  0  0  0  0  0  0
    8.3434   15.1143   21.4581 C   0  0  0  0  0  0  0  0  0  0  0  0
    8.9137   15.1359   22.6408 N   0  0  0  0  0  0  0  0  0  0  0  0
  1  2  1  0
  2  3  2  0
  3  4  1  0
  4  5  2  0
  5  6  1  0
  6  7  1  0
  6  8  2  0
  8  9  1  0
  9 10  2  0
  9 11  1  0
 11 12  1  0
 12 13  1  1
 12 14  1  0
 14 15  1  0
 15 16  2  0
 16 17  1  0
 17 18  1  0
 18 19  2  0
  8  2  1  0
 19 15  1  0
M  END
>  <energy_score>  (1852) 
-29.993041

>  <inchikey>  (1852) 
None

>  <smiles>  (1852) 
None

>  <ref_pdb>  (1852) 
A5594a

>  <alias>  (1852) 
None

>  <HIPPO Pose ID>  (1852) 
499496

>  <name>  (1852) 
P499496

>  <HIPPO Compound ID>  (1852) 
306266

>  <ref_mols>  (1852) 
A3408a,A5594a

>  <distance_score>  (1852) 
1.577287

>  <inspiration_score>  (1852) 
None

$$$$
P499497
     RDKit          3D

 19 20  0  0  0  0  0  0  0  0999 V2000
   11.9036   15.1379   20.0549 C   0  0  0  0  0  0  0  0  0  0  0  0
   10.8279   15.2887   21.0289 C   0  0  0  0  0  0  0  0  0  0  0  0
    9.9310   16.2855   20.8279 O   0  0  0  0  0  0  0  0  0  0  0  0
    9.1008   16.1845   21.8955 C   0  0  0  0  0  0  0  0  0  0  0  0
    9.3958   15.2208   22.7437 N   0  0  0  0  0  0  0  0  0  0  0  0
   10.4767   14.6069   22.1642 C   0  0  0  0  0  0  0  0  0  0  0  0
   11.1206   13.3746   22.6579 C   0  0  0  0  0  0  0  0  0  0  0  0
   11.0394   13.1655   24.1484 C   0  0  0  0  0  0  0  0  0  0  0  0
    9.7370   12.7169   24.5665 N   0  0  0  0  0  0  0  0  0  0  0  0
    8.8880   11.5153   24.0901 C   0  0  0  0  0  0  0  0  0  0  0  0
    9.1436   10.6600   23.3419 O   0  0  0  0  0  0  0  0  0  0  0  0
    7.5502   11.5431   24.7590 C   0  0  0  0  0  0  0  0  0  0  0  0
    7.0554   10.3652   25.3211 C   0  0  0  0  0  0  0  0  0  0  0  0
    5.8908   10.4001   26.0871 C   0  0  0  0  0  0  0  0  0  0  0  0
    5.2282   11.6067   26.2950 C   0  0  0  0  0  0  0  0  0  0  0  0
    5.6768   12.7674   25.6663 C   0  0  0  0  0  0  0  0  0  0  0  0
    6.8069   12.7344   24.8379 C   0  0  0  0  0  0  0  0  0  0  0  0
    7.2194   13.9230   24.0180 C   0  0  0  0  0  0  0  0  0  0  0  0
    5.9009   14.6934   23.1459 Cl  0  0  0  0  0  0  0  0  0  0  0  0
  1  2  1  0
  2  3  1  0
  3  4  1  0
  4  5  2  0
  5  6  1  0
  6  7  1  0
  7  8  1  0
  8  9  1  0
  9 10  1  0
 10 11  2  0
 10 12  1  0
 12 13  2  0
 13 14  1  0
 14 15  2  0
 15 16  1  0
 16 17  2  0
 17 18  1  0
 18 19  1  0
  6  2  2  0
 17 12  1  0
M  END
>  <energy_score>  (1853) 
-5.819913

>  <inchikey>  (1853) 
None

>  <smiles>  (1853) 
None

>  <ref_pdb>  (1853) 
A5594a

>  <alias>  (1853) 
None

>  <HIPPO Pose ID>  (1853) 
499497

>  <name>  (1853) 
P499497

>  <HIPPO Compound ID>  (1853) 
306267

>  <ref_mols>  (1853) 
A3408a,A5594a

>  <distance_score>  (1853) 
1.514252

>  <inspiration_score>  (1853) 
None

$$$$
P499498
     RDKit          3D

 19 20  0  0  0  0  0  0  0  0999 V2000
   10.0189   15.6227   19.9457 C   0  0  0  0  0  0  0  0  0  0  0  0
   10.4196   15.1246   21.2609 C   0  0  0  0  0  0  0  0  0  0  0  0
    9.9055   14.1397   21.9648 N   0  0  0  0  0  0  0  0  0  0  0  0
   10.8321   13.9445   22.9535 C   0  0  0  0  0  0  0  0  0  0  0  0
   10.7978   12.7570   23.8280 C   0  0  0  0  0  0  0  0  0  0  0  0
    9.9250   11.6321   23.2572 C   0  0  0  0  0  0  0  0  0  0  0  0
    8.6143   11.7613   23.8078 N   0  0  0  0  0  0  0  0  0  0  0  0
    7.8412   10.8470   24.7414 C   0  0  0  0  0  0  0  0  0  0  0  0
    8.1080    9.7998   25.1585 O   0  0  0  0  0  0  0  0  0  0  0  0
    6.5811   11.4399   25.2838 C   0  0  0  0  0  0  0  0  0  0  0  0
    5.6919   10.4862   25.8205 C   0  0  0  0  0  0  0  0  0  0  0  0
    4.6069   10.8620   26.5976 C   0  0  0  0  0  0  0  0  0  0  0  0
    4.3674   12.2073   26.8218 C   0  0  0  0  0  0  0  0  0  0  0  0
    5.2247   13.1691   26.2884 C   0  0  0  0  0  0  0  0  0  0  0  0
    6.3662   12.8128   25.5431 C   0  0  0  0  0  0  0  0  0  0  0  0
    7.2728   13.9462   25.1425 C   0  0  0  0  0  0  0  0  0  0  0  0
    7.0553   14.3463   23.4282 Cl  0  0  0  0  0  0  0  0  0  0  0  0
   11.7917   14.9218   22.8887 C   0  0  0  0  0  0  0  0  0  0  0  0
   11.5390   15.6889   21.8006 O   0  0  0  0  0  0  0  0  0  0  0  0
  1  2  1  0
  2  3  2  0
  3  4  1  0
  4  5  1  0
  5  6  1  0
  6  7  1  0
  7  8  1  0
  8  9  2  0
  8 10  1  0
 10 11  2  0
 11 12  1  0
 12 13  2  0
 13 14  1  0
 14 15  2  0
 15 16  1  0
 16 17  1  0
  4 18  2  0
 18 19  1  0
 19  2  1  0
 15 10  1  0
M  END
>  <energy_score>  (1854) 
-5.403334

>  <inchikey>  (1854) 
None

>  <smiles>  (1854) 
None

>  <ref_pdb>  (1854) 
A5594a

>  <alias>  (1854) 
None

>  <HIPPO Pose ID>  (1854) 
499498

>  <name>  (1854) 
P499498

>  <HIPPO Compound ID>  (1854) 
306268

>  <ref_mols>  (1854) 
A3408a,A5594a

>  <distance_score>  (1854) 
1.457531

>  <inspiration_score>  (1854) 
None

$$$$
P499499
     RDKit          3D

 19 20  0  0  0  0  0  0  0  0999 V2000
   10.1105   15.9497   19.1116 C   0  0  0  0  0  0  0  0  0  0  0  0
   10.3190   15.5896   20.5121 C   0  0  0  0  0  0  0  0  0  0  0  0
    9.8951   14.5346   21.1741 N   0  0  0  0  0  0  0  0  0  0  0  0
   10.8395   14.4271   22.1527 C   0  0  0  0  0  0  0  0  0  0  0  0
   11.1214   13.1521   22.8005 C   0  0  0  0  0  0  0  0  0  0  0  0
   10.9092   13.1930   24.2837 C   0  0  0  0  0  0  0  0  0  0  0  0
    9.5725   12.8300   24.6504 N   0  0  0  0  0  0  0  0  0  0  0  0
    8.6896   11.6558   24.1823 C   0  0  0  0  0  0  0  0  0  0  0  0
    8.9369   10.7575   23.4847 O   0  0  0  0  0  0  0  0  0  0  0  0
    7.3604   11.7137   24.8533 C   0  0  0  0  0  0  0  0  0  0  0  0
    6.8721   10.5206   25.4066 C   0  0  0  0  0  0  0  0  0  0  0  0
    5.7317   10.5344   26.2085 C   0  0  0  0  0  0  0  0  0  0  0  0
    5.0872   11.7419   26.4554 C   0  0  0  0  0  0  0  0  0  0  0  0
    3.5996   11.7898   27.6229 Br  0  0  0  0  0  0  0  0  0  0  0  0
    5.5225   12.9185   25.8427 C   0  0  0  0  0  0  0  0  0  0  0  0
    6.6416   12.9108   24.9964 C   0  0  0  0  0  0  0  0  0  0  0  0
    7.0019   14.1705   24.2600 C   0  0  0  0  0  0  0  0  0  0  0  0
   11.6220   15.5509   22.2000 C   0  0  0  0  0  0  0  0  0  0  0  0
   11.2809   16.3212   21.1475 O   0  0  0  0  0  0  0  0  0  0  0  0
  1  2  1  0
  2  3  2  0
  3  4  1  0
  4  5  1  0
  5  6  1  0
  6  7  1  0
  7  8  1  0
  8  9  2  0
  8 10  1  0
 10 11  2  0
 11 12  1  0
 12 13  2  0
 13 14  1  0
 13 15  1  0
 15 16  2  0
 16 17  1  0
  4 18  2  0
 18 19  1  0
 19  2  1  0
 16 10  1  0
M  END
>  <energy_score>  (1855) 
-0.179831

>  <inchikey>  (1855) 
None

>  <smiles>  (1855) 
None

>  <ref_pdb>  (1855) 
A5594a

>  <alias>  (1855) 
None

>  <HIPPO Pose ID>  (1855) 
499499

>  <name>  (1855) 
P499499

>  <HIPPO Compound ID>  (1855) 
306271

>  <ref_mols>  (1855) 
A3408a,A5594a

>  <distance_score>  (1855) 
1.900552

>  <inspiration_score>  (1855) 
None

$$$$
P499500
     RDKit          3D

 19 20  0  0  0  0  0  0  0  0999 V2000
    6.9289   14.1567   24.3375 C   0  0  0  0  0  0  0  0  0  0  0  0
    6.6661   12.8800   25.0782 C   0  0  0  0  0  0  0  0  0  0  0  0
    5.5624   12.8320   25.9452 C   0  0  0  0  0  0  0  0  0  0  0  0
    5.1612   11.6259   26.5142 C   0  0  0  0  0  0  0  0  0  0  0  0
    3.6791   11.5873   27.6872 Br  0  0  0  0  0  0  0  0  0  0  0  0
    5.8305   10.4483   26.2065 C   0  0  0  0  0  0  0  0  0  0  0  0
    6.9632   10.4927   25.3917 C   0  0  0  0  0  0  0  0  0  0  0  0
    7.4237   11.7145   24.8772 C   0  0  0  0  0  0  0  0  0  0  0  0
    8.7196   11.6892   24.1271 C   0  0  0  0  0  0  0  0  0  0  0  0
    8.9149   10.8060   23.3930 O   0  0  0  0  0  0  0  0  0  0  0  0
    9.6269   12.8674   24.5370 N   0  0  0  0  0  0  0  0  0  0  0  0
   10.9352   13.2593   24.0548 C   0  0  2  0  0  0  0  0  0  0  0  0
   11.3873   14.5761   24.6833 C   0  0  0  0  0  0  0  0  0  0  0  0
   11.0027   13.2768   22.5300 C   0  0  0  0  0  0  0  0  0  0  0  0
   10.4038   14.4674   21.9039 C   0  0  0  0  0  0  0  0  0  0  0  0
   10.9766   15.2797   20.9571 C   0  0  0  0  0  0  0  0  0  0  0  0
   10.0844   16.2546   20.6520 O   0  0  0  0  0  0  0  0  0  0  0  0
    9.0227   15.9886   21.4573 C   0  0  0  0  0  0  0  0  0  0  0  0
    9.1489   14.9266   22.2189 N   0  0  0  0  0  0  0  0  0  0  0  0
  1  2  1  0
  2  3  2  0
  3  4  1  0
  4  5  1  0
  4  6  2  0
  6  7  1  0
  7  8  2  0
  8  9  1  0
  9 10  2  0
  9 11  1  0
 11 12  1  0
 12 13  1  6
 12 14  1  0
 14 15  1  0
 15 16  2  0
 16 17  1  0
 17 18  1  0
 18 19  2  0
  8  2  1  0
 19 15  1  0
M  END
>  <energy_score>  (1856) 
-22.851429

>  <inchikey>  (1856) 
None

>  <smiles>  (1856) 
None

>  <ref_pdb>  (1856) 
A5594a

>  <alias>  (1856) 
None

>  <HIPPO Pose ID>  (1856) 
499500

>  <name>  (1856) 
P499500

>  <HIPPO Compound ID>  (1856) 
306272

>  <ref_mols>  (1856) 
A3408a,A5594a

>  <distance_score>  (1856) 
1.417509

>  <inspiration_score>  (1856) 
None

$$$$
P499501
     RDKit          3D

 19 20  0  0  0  0  0  0  0  0999 V2000
    6.9828   14.5503   25.3620 C   0  0  0  0  0  0  0  0  0  0  0  0
    6.5982   13.1212   25.6061 C   0  0  0  0  0  0  0  0  0  0  0  0
    5.6638   12.7843   26.5875 C   0  0  0  0  0  0  0  0  0  0  0  0
    5.3043   11.4499   26.7800 C   0  0  0  0  0  0  0  0  0  0  0  0
    4.0138   11.0118   28.0906 Br  0  0  0  0  0  0  0  0  0  0  0  0
    5.8885   10.4347   26.0235 C   0  0  0  0  0  0  0  0  0  0  0  0
    6.8413   10.7515   25.0573 C   0  0  0  0  0  0  0  0  0  0  0  0
    7.1582   12.0932   24.8390 C   0  0  0  0  0  0  0  0  0  0  0  0
    8.0940   12.4750   23.7692 C   0  0  0  0  0  0  0  0  0  0  0  0
    7.7177   12.6098   22.6771 O   0  0  0  0  0  0  0  0  0  0  0  0
    9.4767   12.7289   24.3836 N   0  0  0  0  0  0  0  0  0  0  0  0
   10.7238   13.1150   23.7630 C   0  0  1  0  0  0  0  0  0  0  0  0
   10.7190   12.7242   22.3044 C   0  0  0  0  0  0  0  0  0  0  0  0
   11.0510   14.6005   23.9793 C   0  0  0  0  0  0  0  0  0  0  0  0
   10.3851   15.4364   22.9630 C   0  0  0  0  0  0  0  0  0  0  0  0
   10.9098   15.9041   21.7804 C   0  0  0  0  0  0  0  0  0  0  0  0
    9.8783   16.3724   21.0283 O   0  0  0  0  0  0  0  0  0  0  0  0
    8.7917   16.2083   21.8307 C   0  0  0  0  0  0  0  0  0  0  0  0
    9.0335   15.6612   23.0004 N   0  0  0  0  0  0  0  0  0  0  0  0
  1  2  1  0
  2  3  2  0
  3  4  1  0
  4  5  1  0
  4  6  2  0
  6  7  1  0
  7  8  2  0
  8  9  1  0
  9 10  2  0
  9 11  1  0
 11 12  1  0
 12 13  1  6
 12 14  1  0
 14 15  1  0
 15 16  2  0
 16 17  1  0
 17 18  1  0
 18 19  2  0
  8  2  1  0
 19 15  1  0
M  END
>  <energy_score>  (1857) 
-6.22464

>  <inchikey>  (1857) 
None

>  <smiles>  (1857) 
None

>  <ref_pdb>  (1857) 
A5594a

>  <alias>  (1857) 
None

>  <HIPPO Pose ID>  (1857) 
499501

>  <name>  (1857) 
P499501

>  <HIPPO Compound ID>  (1857) 
306272

>  <ref_mols>  (1857) 
A3408a,A5594a

>  <distance_score>  (1857) 
1.671517

>  <inspiration_score>  (1857) 
None

$$$$
P499502
     RDKit          3D

 19 20  0  0  0  0  0  0  0  0999 V2000
    6.9325   14.0460   22.9113 C   0  0  0  0  0  0  0  0  0  0  0  0
    7.0850   14.1358   24.4212 C   0  0  0  0  0  0  0  0  0  0  0  0
    6.8502   12.8088   25.0987 C   0  0  0  0  0  0  0  0  0  0  0  0
    5.7433   12.7241   25.9647 C   0  0  0  0  0  0  0  0  0  0  0  0
    5.3095   11.4994   26.4595 C   0  0  0  0  0  0  0  0  0  0  0  0
    5.9645   10.3365   26.0819 C   0  0  0  0  0  0  0  0  0  0  0  0
    7.0975   10.4014   25.2706 C   0  0  0  0  0  0  0  0  0  0  0  0
    7.5775   11.6375   24.8139 C   0  0  0  0  0  0  0  0  0  0  0  0
    8.8170   11.6066   23.9724 C   0  0  0  0  0  0  0  0  0  0  0  0
    8.8834   10.8104   23.1284 O   0  0  0  0  0  0  0  0  0  0  0  0
    9.7854   12.7344   24.3546 N   0  0  0  0  0  0  0  0  0  0  0  0
   11.0886   13.0634   23.8382 C   0  0  0  0  0  0  0  0  0  0  0  0
   11.3395   14.5619   23.7878 C   0  0  0  0  0  0  0  0  0  0  0  0
   10.5422   15.2095   22.7251 C   0  0  0  0  0  0  0  0  0  0  0  0
    9.3627   15.8525   22.9932 N   0  0  0  0  0  0  0  0  0  0  0  0
    9.0051   16.3343   21.8207 C   0  0  0  0  0  0  0  0  0  0  0  0
    9.8110   15.9999   20.7866 O   0  0  0  0  0  0  0  0  0  0  0  0
   10.8093   15.2946   21.3795 C   0  0  0  0  0  0  0  0  0  0  0  0
   11.8876   14.8389   20.5089 C   0  0  0  0  0  0  0  0  0  0  0  0
  1  2  1  0
  2  3  1  0
  3  4  2  0
  4  5  1  0
  5  6  2  0
  6  7  1  0
  7  8  2  0
  8  9  1  0
  9 10  2  0
  9 11  1  0
 11 12  1  0
 12 13  1  0
 13 14  1  0
 14 15  1  0
 15 16  2  0
 16 17  1  0
 17 18  1  0
 18 19  1  0
  8  3  1  0
 18 14  2  0
M  END
>  <energy_score>  (1858) 
-7.008375

>  <inchikey>  (1858) 
None

>  <smiles>  (1858) 
None

>  <ref_pdb>  (1858) 
A5594a

>  <alias>  (1858) 
None

>  <HIPPO Pose ID>  (1858) 
499502

>  <name>  (1858) 
P499502

>  <HIPPO Compound ID>  (1858) 
306273

>  <ref_mols>  (1858) 
A3408a,A5594a

>  <distance_score>  (1858) 
1.275023

>  <inspiration_score>  (1858) 
None

$$$$
P499503
     RDKit          3D

 19 20  0  0  0  0  0  0  0  0999 V2000
   12.5632   13.5511   24.8349 C   0  0  0  0  0  0  0  0  0  0  0  0
   11.4474   13.5567   23.8110 C   0  0  2  0  0  0  0  0  0  0  0  0
   11.2637   15.0034   23.3401 C   0  0  0  0  0  0  0  0  0  0  0  0
   10.3649   15.0626   22.1831 C   0  0  0  0  0  0  0  0  0  0  0  0
   10.7041   15.1789   20.8600 C   0  0  0  0  0  0  0  0  0  0  0  0
    9.5543   15.1413   20.1405 O   0  0  0  0  0  0  0  0  0  0  0  0
    8.5899   14.9733   21.0790 C   0  0  0  0  0  0  0  0  0  0  0  0
    9.0060   14.9323   22.3162 N   0  0  0  0  0  0  0  0  0  0  0  0
   10.2034   13.0343   24.3558 N   0  0  0  0  0  0  0  0  0  0  0  0
    9.2826   11.9039   23.8479 C   0  0  0  0  0  0  0  0  0  0  0  0
    9.4162   11.1633   22.9572 O   0  0  0  0  0  0  0  0  0  0  0  0
    8.0050   11.7773   24.6280 C   0  0  0  0  0  0  0  0  0  0  0  0
    7.5381   10.4868   24.9213 C   0  0  0  0  0  0  0  0  0  0  0  0
    6.3421   10.3015   25.6269 C   0  0  0  0  0  0  0  0  0  0  0  0
    5.5819   11.3922   26.0346 C   0  0  0  0  0  0  0  0  0  0  0  0
    5.9969   12.6738   25.7001 C   0  0  0  0  0  0  0  0  0  0  0  0
    7.1933   12.8535   24.9918 C   0  0  0  0  0  0  0  0  0  0  0  0
    7.5370   14.2282   24.6729 C   0  0  0  0  0  0  0  0  0  0  0  0
    8.4737   14.7446   25.2685 O   0  0  0  0  0  0  0  0  0  0  0  0
  2  1  1  1
  2  3  1  0
  3  4  1  0
  4  5  2  0
  5  6  1  0
  6  7  1  0
  7  8  2  0
  2  9  1  0
  9 10  1  0
 10 11  2  0
 10 12  1  0
 12 13  2  0
 13 14  1  0
 14 15  2  0
 15 16  1  0
 16 17  2  0
 17 18  1  0
 18 19  2  0
  8  4  1  0
 17 12  1  0
M  END
>  <energy_score>  (1859) 
-18.25449

>  <inchikey>  (1859) 
None

>  <smiles>  (1859) 
None

>  <ref_pdb>  (1859) 
A5594a

>  <alias>  (1859) 
None

>  <HIPPO Pose ID>  (1859) 
499503

>  <name>  (1859) 
P499503

>  <HIPPO Compound ID>  (1859) 
306276

>  <ref_mols>  (1859) 
A3408a,A5594a

>  <distance_score>  (1859) 
1.796609

>  <inspiration_score>  (1859) 
None

$$$$
P499504
     RDKit          3D

 19 20  0  0  0  0  0  0  0  0999 V2000
   11.8821   15.0715   20.0149 C   0  0  0  0  0  0  0  0  0  0  0  0
   10.8656   15.3072   21.0341 C   0  0  0  0  0  0  0  0  0  0  0  0
    9.9947   16.3238   20.8252 O   0  0  0  0  0  0  0  0  0  0  0  0
    9.2247   16.3107   21.9399 C   0  0  0  0  0  0  0  0  0  0  0  0
    9.5388   15.3956   22.8351 N   0  0  0  0  0  0  0  0  0  0  0  0
   10.5553   14.7041   22.2254 C   0  0  0  0  0  0  0  0  0  0  0  0
   11.1864   13.4817   22.7535 C   0  0  0  0  0  0  0  0  0  0  0  0
   11.0369   13.2798   24.2399 C   0  0  0  0  0  0  0  0  0  0  0  0
    9.6994   12.9017   24.6076 N   0  0  0  0  0  0  0  0  0  0  0  0
    8.8144   11.7449   24.1092 C   0  0  0  0  0  0  0  0  0  0  0  0
    8.9993   10.9622   23.2682 O   0  0  0  0  0  0  0  0  0  0  0  0
    7.5147   11.7199   24.8462 C   0  0  0  0  0  0  0  0  0  0  0  0
    7.0775   10.4769   25.3225 C   0  0  0  0  0  0  0  0  0  0  0  0
    5.9190   10.3882   26.0924 C   0  0  0  0  0  0  0  0  0  0  0  0
    5.1943   11.5337   26.3933 C   0  0  0  0  0  0  0  0  0  0  0  0
    5.5830   12.7596   25.8598 C   0  0  0  0  0  0  0  0  0  0  0  0
    6.7219   12.8667   25.0415 C   0  0  0  0  0  0  0  0  0  0  0  0
    6.9515   14.1689   24.3313 C   0  0  0  0  0  0  0  0  0  0  0  0
    6.7677   13.9201   22.4176 Br  0  0  0  0  0  0  0  0  0  0  0  0
  1  2  1  0
  2  3  1  0
  3  4  1  0
  4  5  2  0
  5  6  1  0
  6  7  1  0
  7  8  1  0
  8  9  1  0
  9 10  1  0
 10 11  2  0
 10 12  1  0
 12 13  2  0
 13 14  1  0
 14 15  2  0
 15 16  1  0
 16 17  2  0
 17 18  1  0
 18 19  1  0
  6  2  2  0
 17 12  1  0
M  END
>  <energy_score>  (1860) 
-10.493194

>  <inchikey>  (1860) 
None

>  <smiles>  (1860) 
None

>  <ref_pdb>  (1860) 
A5594a

>  <alias>  (1860) 
None

>  <HIPPO Pose ID>  (1860) 
499504

>  <name>  (1860) 
P499504

>  <HIPPO Compound ID>  (1860) 
306277

>  <ref_mols>  (1860) 
A3408a,A5594a

>  <distance_score>  (1860) 
1.881068

>  <inspiration_score>  (1860) 
None

$$$$
P499505
     RDKit          3D

 19 20  0  0  0  0  0  0  0  0999 V2000
    9.9728    9.7488   23.3485 C   0  0  0  0  0  0  0  0  0  0  0  0
    9.5818   11.2225   23.3556 C   0  0  2  0  0  0  0  0  0  0  0  0
   10.5270   12.4126   23.6696 C   0  0  0  0  0  0  0  0  0  0  0  0
   10.4106   13.5696   22.7222 C   0  0  0  0  0  0  0  0  0  0  0  0
   11.3600   14.5061   22.3790 C   0  0  0  0  0  0  0  0  0  0  0  0
   10.8120   15.3610   21.4717 O   0  0  0  0  0  0  0  0  0  0  0  0
    9.5379   14.9147   21.3330 C   0  0  0  0  0  0  0  0  0  0  0  0
    9.2417   13.8606   22.0550 N   0  0  0  0  0  0  0  0  0  0  0  0
    8.4288   11.3570   24.1811 N   0  0  0  0  0  0  0  0  0  0  0  0
    7.1477   12.1357   23.9640 C   0  0  0  0  0  0  0  0  0  0  0  0
    6.7807   12.7369   23.0457 O   0  0  0  0  0  0  0  0  0  0  0  0
    6.3713   12.0879   25.2064 C   0  0  0  0  0  0  0  0  0  0  0  0
    5.9926   10.8422   25.7321 C   0  0  0  0  0  0  0  0  0  0  0  0
    5.2941   10.7987   26.9264 C   0  0  0  0  0  0  0  0  0  0  0  0
    5.0108   11.9910   27.5897 C   0  0  0  0  0  0  0  0  0  0  0  0
    5.4117   13.2261   27.0600 C   0  0  0  0  0  0  0  0  0  0  0  0
    6.0974   13.2970   25.8459 C   0  0  0  0  0  0  0  0  0  0  0  0
    6.4638   14.6185   25.2323 C   0  0  0  0  0  0  0  0  0  0  0  0
    8.3621   14.9593   25.2724 Br  0  0  0  0  0  0  0  0  0  0  0  0
  2  1  1  1
  2  3  1  0
  3  4  1  0
  4  5  2  0
  5  6  1  0
  6  7  1  0
  7  8  2  0
  2  9  1  0
  9 10  1  0
 10 11  2  0
 10 12  1  0
 12 13  2  0
 13 14  1  0
 14 15  2  0
 15 16  1  0
 16 17  2  0
 17 18  1  0
 18 19  1  0
  8  4  1  0
 17 12  1  0
M  END
>  <energy_score>  (1861) 
-11.556573

>  <inchikey>  (1861) 
None

>  <smiles>  (1861) 
None

>  <ref_pdb>  (1861) 
A5594a

>  <alias>  (1861) 
None

>  <HIPPO Pose ID>  (1861) 
499505

>  <name>  (1861) 
P499505

>  <HIPPO Compound ID>  (1861) 
306279

>  <ref_mols>  (1861) 
A3408a,A5594a

>  <distance_score>  (1861) 
1.620316

>  <inspiration_score>  (1861) 
None

$$$$
P499506
     RDKit          3D

 19 20  0  0  0  0  0  0  0  0999 V2000
    9.9748   15.6052   19.9989 C   0  0  0  0  0  0  0  0  0  0  0  0
   10.3604   15.1017   21.3180 C   0  0  0  0  0  0  0  0  0  0  0  0
    9.8136   14.1443   22.0401 N   0  0  0  0  0  0  0  0  0  0  0  0
   10.7508   13.9254   23.0189 C   0  0  0  0  0  0  0  0  0  0  0  0
   10.7004   12.7541   23.9174 C   0  0  0  0  0  0  0  0  0  0  0  0
    9.7606   11.6529   23.4159 C   0  0  0  0  0  0  0  0  0  0  0  0
    8.4719   11.9204   23.9762 N   0  0  0  0  0  0  0  0  0  0  0  0
    7.6054   11.0851   24.9223 C   0  0  0  0  0  0  0  0  0  0  0  0
    7.7635   10.0121   25.3381 O   0  0  0  0  0  0  0  0  0  0  0  0
    6.4300   11.8647   25.4354 C   0  0  0  0  0  0  0  0  0  0  0  0
    5.3539   11.2373   26.0951 C   0  0  0  0  0  0  0  0  0  0  0  0
    5.2015    9.7589   26.2413 C   0  0  0  0  0  0  0  0  0  0  0  0
    4.3808   12.0239   26.7279 C   0  0  0  0  0  0  0  0  0  0  0  0
    4.4415   13.4100   26.6845 C   0  0  0  0  0  0  0  0  0  0  0  0
    5.4929   14.0323   26.0305 C   0  0  0  0  0  0  0  0  0  0  0  0
    6.4812   13.2648   25.4315 C   0  0  0  0  0  0  0  0  0  0  0  0
    7.5174   13.9284   24.8922 F   0  0  0  0  0  0  0  0  0  0  0  0
   11.7414   14.8710   22.9347 C   0  0  0  0  0  0  0  0  0  0  0  0
   11.5045   15.6317   21.8405 O   0  0  0  0  0  0  0  0  0  0  0  0
  1  2  1  0
  2  3  2  0
  3  4  1  0
  4  5  1  0
  5  6  1  0
  6  7  1  0
  7  8  1  0
  8  9  2  0
  8 10  1  0
 10 11  2  0
 11 12  1  0
 11 13  1  0
 13 14  2  0
 14 15  1  0
 15 16  2  0
 16 17  1  0
  4 18  2  0
 18 19  1  0
 19  2  1  0
 16 10  1  0
M  END
>  <energy_score>  (1862) 
-4.593097

>  <inchikey>  (1862) 
None

>  <smiles>  (1862) 
None

>  <ref_pdb>  (1862) 
A5594a

>  <alias>  (1862) 
None

>  <HIPPO Pose ID>  (1862) 
499506

>  <name>  (1862) 
P499506

>  <HIPPO Compound ID>  (1862) 
306281

>  <ref_mols>  (1862) 
A3408a,A5594a

>  <distance_score>  (1862) 
1.593148

>  <inspiration_score>  (1862) 
None

$$$$
P499507
     RDKit          3D

 19 20  0  0  0  0  0  0  0  0999 V2000
    6.9600   14.2075   24.3425 C   0  0  0  0  0  0  0  0  0  0  0  0
    6.6560   12.9287   25.0641 C   0  0  0  0  0  0  0  0  0  0  0  0
    5.5343   12.8878   25.9089 C   0  0  0  0  0  0  0  0  0  0  0  0
    5.1043   11.6875   26.4717 C   0  0  0  0  0  0  0  0  0  0  0  0
    5.7811   10.5100   26.1814 C   0  0  0  0  0  0  0  0  0  0  0  0
    6.9217   10.5474   25.3837 C   0  0  0  0  0  0  0  0  0  0  0  0
    7.5627    9.3937   25.1606 F   0  0  0  0  0  0  0  0  0  0  0  0
    7.4000   11.7532   24.8620 C   0  0  0  0  0  0  0  0  0  0  0  0
    8.6837   11.7321   24.1006 C   0  0  0  0  0  0  0  0  0  0  0  0
    8.8675   10.8705   23.3401 O   0  0  0  0  0  0  0  0  0  0  0  0
    9.6041   12.8880   24.5428 N   0  0  0  0  0  0  0  0  0  0  0  0
   10.9142   13.2808   24.0685 C   0  0  2  0  0  0  0  0  0  0  0  0
   11.3542   14.6032   24.6937 C   0  0  0  0  0  0  0  0  0  0  0  0
   10.9993   13.2869   22.5445 C   0  0  0  0  0  0  0  0  0  0  0  0
   10.4103   14.4742   21.9020 C   0  0  0  0  0  0  0  0  0  0  0  0
   10.9900   15.2673   20.9432 C   0  0  0  0  0  0  0  0  0  0  0  0
   10.1091   16.2492   20.6273 O   0  0  0  0  0  0  0  0  0  0  0  0
    9.0458   16.0050   21.4374 C   0  0  0  0  0  0  0  0  0  0  0  0
    9.1610   14.9519   22.2121 N   0  0  0  0  0  0  0  0  0  0  0  0
  1  2  1  0
  2  3  2  0
  3  4  1  0
  4  5  2  0
  5  6  1  0
  6  7  1  0
  6  8  2  0
  8  9  1  0
  9 10  2  0
  9 11  1  0
 11 12  1  0
 12 13  1  6
 12 14  1  0
 14 15  1  0
 15 16  2  0
 16 17  1  0
 17 18  1  0
 18 19  2  0
  8  2  1  0
 19 15  1  0
M  END
>  <energy_score>  (1863) 
-9.235119

>  <inchikey>  (1863) 
None

>  <smiles>  (1863) 
None

>  <ref_pdb>  (1863) 
A5594a

>  <alias>  (1863) 
None

>  <HIPPO Pose ID>  (1863) 
499507

>  <name>  (1863) 
P499507

>  <HIPPO Compound ID>  (1863) 
306282

>  <ref_mols>  (1863) 
A3408a,A5594a

>  <distance_score>  (1863) 
1.364349

>  <inspiration_score>  (1863) 
None

$$$$
P499508
     RDKit          3D

 19 20  0  0  0  0  0  0  0  0999 V2000
    6.9064   14.2215   23.8981 C   0  0  0  0  0  0  0  0  0  0  0  0
    6.5353   13.1454   24.8714 C   0  0  0  0  0  0  0  0  0  0  0  0
    5.3947   13.3342   25.6605 C   0  0  0  0  0  0  0  0  0  0  0  0
    4.9275   12.3145   26.4799 C   0  0  0  0  0  0  0  0  0  0  0  0
    5.5782   11.0869   26.4942 C   0  0  0  0  0  0  0  0  0  0  0  0
    4.9781    9.8778   27.5526 Cl  0  0  0  0  0  0  0  0  0  0  0  0
    6.7241   10.8803   25.7282 C   0  0  0  0  0  0  0  0  0  0  0  0
    7.2464   11.9381   24.9716 C   0  0  0  0  0  0  0  0  0  0  0  0
    8.5788   11.7486   24.3156 C   0  0  0  0  0  0  0  0  0  0  0  0
    8.7983   10.7488   23.7597 O   0  0  0  0  0  0  0  0  0  0  0  0
    9.4847   12.9734   24.5667 N   0  0  0  0  0  0  0  0  0  0  0  0
   10.8261   13.2631   24.1013 C   0  0  2  0  0  0  0  0  0  0  0  0
   11.3454   14.5700   24.6995 C   0  0  0  0  0  0  0  0  0  0  0  0
   10.9269   13.2240   22.5778 C   0  0  0  0  0  0  0  0  0  0  0  0
   10.4425   14.4385   21.8983 C   0  0  0  0  0  0  0  0  0  0  0  0
   11.1090   15.1880   20.9603 C   0  0  0  0  0  0  0  0  0  0  0  0
   10.3027   16.2190   20.6021 O   0  0  0  0  0  0  0  0  0  0  0  0
    9.1955   16.0483   21.3703 C   0  0  0  0  0  0  0  0  0  0  0  0
    9.2149   14.9950   22.1533 N   0  0  0  0  0  0  0  0  0  0  0  0
  1  2  1  0
  2  3  2  0
  3  4  1  0
  4  5  2  0
  5  6  1  0
  5  7  1  0
  7  8  2  0
  8  9  1  0
  9 10  2  0
  9 11  1  0
 11 12  1  0
 12 13  1  6
 12 14  1  0
 14 15  1  0
 15 16  2  0
 16 17  1  0
 17 18  1  0
 18 19  2  0
  8  2  1  0
 19 15  1  0
M  END
>  <energy_score>  (1864) 
-9.139485

>  <inchikey>  (1864) 
None

>  <smiles>  (1864) 
None

>  <ref_pdb>  (1864) 
A5594a

>  <alias>  (1864) 
None

>  <HIPPO Pose ID>  (1864) 
499508

>  <name>  (1864) 
P499508

>  <HIPPO Compound ID>  (1864) 
306285

>  <ref_mols>  (1864) 
A3408a,A5594a

>  <distance_score>  (1864) 
1.581033

>  <inspiration_score>  (1864) 
None

$$$$
P499509
     RDKit          3D

 19 20  0  0  0  0  0  0  0  0999 V2000
    7.0036   14.6310   23.7787 C   0  0  0  0  0  0  0  0  0  0  0  0
    7.3221   14.0018   25.1324 C   0  0  0  0  0  0  0  0  0  0  0  0
    6.3923   12.8624   25.4988 C   0  0  0  0  0  0  0  0  0  0  0  0
    5.2426   13.2354   26.2226 C   0  0  0  0  0  0  0  0  0  0  0  0
    4.3714   12.2878   26.7599 C   0  0  0  0  0  0  0  0  0  0  0  0
    4.6032   10.9372   26.5599 C   0  0  0  0  0  0  0  0  0  0  0  0
    5.6915   10.5421   25.7976 C   0  0  0  0  0  0  0  0  0  0  0  0
    6.5949   11.4820   25.2572 C   0  0  0  0  0  0  0  0  0  0  0  0
    7.8558   10.8630   24.7484 C   0  0  0  0  0  0  0  0  0  0  0  0
    8.1231    9.8370   25.2143 O   0  0  0  0  0  0  0  0  0  0  0  0
    8.6287   11.7332   23.7757 N   0  0  0  0  0  0  0  0  0  0  0  0
    9.9388   11.5809   23.2353 C   0  0  0  0  0  0  0  0  0  0  0  0
   10.8040   12.7075   23.8235 C   0  0  0  0  0  0  0  0  0  0  0  0
   10.8010   13.9229   22.9855 C   0  0  0  0  0  0  0  0  0  0  0  0
   11.7661   14.8949   22.9138 C   0  0  0  0  0  0  0  0  0  0  0  0
   11.4898   15.6813   21.8471 O   0  0  0  0  0  0  0  0  0  0  0  0
   10.3502   15.1368   21.3301 C   0  0  0  0  0  0  0  0  0  0  0  0
    9.9408   15.6453   20.0210 C   0  0  0  0  0  0  0  0  0  0  0  0
    9.8328   14.1572   22.0433 N   0  0  0  0  0  0  0  0  0  0  0  0
  1  2  1  0
  2  3  1  0
  3  4  2  0
  4  5  1  0
  5  6  2  0
  6  7  1  0
  7  8  2  0
  8  9  1  0
  9 10  2  0
  9 11  1  0
 11 12  1  0
 12 13  1  0
 13 14  1  0
 14 15  2  0
 15 16  1  0
 16 17  1  0
 17 18  1  0
 17 19  2  0
  8  3  1  0
 19 14  1  0
M  END
>  <energy_score>  (1865) 
-7.629002

>  <inchikey>  (1865) 
None

>  <smiles>  (1865) 
None

>  <ref_pdb>  (1865) 
A5594a

>  <alias>  (1865) 
None

>  <HIPPO Pose ID>  (1865) 
499509

>  <name>  (1865) 
P499509

>  <HIPPO Compound ID>  (1865) 
306286

>  <ref_mols>  (1865) 
A3408a,A5594a

>  <distance_score>  (1865) 
1.682104

>  <inspiration_score>  (1865) 
None

$$$$
P499510
     RDKit          3D

 19 20  0  0  0  0  0  0  0  0999 V2000
    7.0594   14.0643   24.3813 C   0  0  0  0  0  0  0  0  0  0  0  0
    6.7548   12.7690   25.0635 C   0  0  0  0  0  0  0  0  0  0  0  0
    5.6550   12.7357   25.9371 C   0  0  0  0  0  0  0  0  0  0  0  0
    5.2169   11.5313   26.4746 C   0  0  0  0  0  0  0  0  0  0  0  0
    3.8624   11.5100   27.5347 Cl  0  0  0  0  0  0  0  0  0  0  0  0
    5.8568   10.3460   26.1382 C   0  0  0  0  0  0  0  0  0  0  0  0
    6.9872   10.3727   25.3157 C   0  0  0  0  0  0  0  0  0  0  0  0
    7.4755   11.5884   24.8163 C   0  0  0  0  0  0  0  0  0  0  0  0
    8.7364   11.5397   24.0029 C   0  0  0  0  0  0  0  0  0  0  0  0
    8.8518   10.6864   23.2209 O   0  0  0  0  0  0  0  0  0  0  0  0
    9.7076   12.6627   24.4031 N   0  0  0  0  0  0  0  0  0  0  0  0
   10.9926   13.0306   23.8565 C   0  0  0  0  0  0  0  0  0  0  0  0
   11.2190   14.5358   23.8423 C   0  0  0  0  0  0  0  0  0  0  0  0
   10.3921   15.1691   22.7960 C   0  0  0  0  0  0  0  0  0  0  0  0
    9.1421   15.6683   23.0584 N   0  0  0  0  0  0  0  0  0  0  0  0
    8.7290   16.0838   21.8804 C   0  0  0  0  0  0  0  0  0  0  0  0
    9.5940   15.8781   20.8566 O   0  0  0  0  0  0  0  0  0  0  0  0
   10.6760   15.3155   21.4593 C   0  0  0  0  0  0  0  0  0  0  0  0
   11.8247   15.0025   20.6086 C   0  0  0  0  0  0  0  0  0  0  0  0
  1  2  1  0
  2  3  2  0
  3  4  1  0
  4  5  1  0
  4  6  2  0
  6  7  1  0
  7  8  2  0
  8  9  1  0
  9 10  2  0
  9 11  1  0
 11 12  1  0
 12 13  1  0
 13 14  1  0
 14 15  1  0
 15 16  2  0
 16 17  1  0
 17 18  1  0
 18 19  1  0
  8  2  1  0
 18 14  2  0
M  END
>  <energy_score>  (1866) 
-6.912709

>  <inchikey>  (1866) 
None

>  <smiles>  (1866) 
None

>  <ref_pdb>  (1866) 
A5594a

>  <alias>  (1866) 
None

>  <HIPPO Pose ID>  (1866) 
499510

>  <name>  (1866) 
P499510

>  <HIPPO Compound ID>  (1866) 
306288

>  <ref_mols>  (1866) 
A3408a,A5594a

>  <distance_score>  (1866) 
1.306372

>  <inspiration_score>  (1866) 
None

$$$$
P499511
     RDKit          3D

 19 20  0  0  0  0  0  0  0  0999 V2000
   11.8696   15.2343   20.8074 C   0  0  0  0  0  0  0  0  0  0  0  0
   10.6034   15.2211   21.5422 C   0  0  0  0  0  0  0  0  0  0  0  0
    9.6132   16.0301   21.0764 O   0  0  0  0  0  0  0  0  0  0  0  0
    8.5726   15.7914   21.9130 C   0  0  0  0  0  0  0  0  0  0  0  0
    8.7972   14.8860   22.8398 N   0  0  0  0  0  0  0  0  0  0  0  0
   10.1061   14.5198   22.6130 C   0  0  0  0  0  0  0  0  0  0  0  0
   10.7422   13.4269   23.3793 C   0  0  0  0  0  0  0  0  0  0  0  0
   10.0110   12.1217   23.1064 C   0  0  0  0  0  0  0  0  0  0  0  0
    8.7181   12.0977   23.7183 N   0  0  0  0  0  0  0  0  0  0  0  0
    8.0694   11.0572   24.6179 C   0  0  0  0  0  0  0  0  0  0  0  0
    8.4446   10.0121   24.9502 O   0  0  0  0  0  0  0  0  0  0  0  0
    6.7875   11.4852   25.2596 C   0  0  0  0  0  0  0  0  0  0  0  0
    5.9682   10.3998   25.6397 C   0  0  0  0  0  0  0  0  0  0  0  0
    4.8352   10.5758   26.4158 C   0  0  0  0  0  0  0  0  0  0  0  0
    4.4725   11.8583   26.7871 C   0  0  0  0  0  0  0  0  0  0  0  0
    5.2650   12.9503   26.4211 C   0  0  0  0  0  0  0  0  0  0  0  0
    4.6901   14.5066   26.9312 Cl  0  0  0  0  0  0  0  0  0  0  0  0
    6.4740   12.7881   25.7101 C   0  0  0  0  0  0  0  0  0  0  0  0
    7.3518   13.9957   25.5157 C   0  0  0  0  0  0  0  0  0  0  0  0
  1  2  1  0
  2  3  1  0
  3  4  1  0
  4  5  2  0
  5  6  1  0
  6  7  1  0
  7  8  1  0
  8  9  1  0
  9 10  1  0
 10 11  2  0
 10 12  1  0
 12 13  2  0
 13 14  1  0
 14 15  2  0
 15 16  1  0
 16 17  1  0
 16 18  2  0
 18 19  1  0
  6  2  2  0
 18 12  1  0
M  END
>  <energy_score>  (1867) 
-5.869431

>  <inchikey>  (1867) 
None

>  <smiles>  (1867) 
None

>  <ref_pdb>  (1867) 
A5594a

>  <alias>  (1867) 
None

>  <HIPPO Pose ID>  (1867) 
499511

>  <name>  (1867) 
P499511

>  <HIPPO Compound ID>  (1867) 
306289

>  <ref_mols>  (1867) 
A3408a,A5594a

>  <distance_score>  (1867) 
1.738187

>  <inspiration_score>  (1867) 
None

$$$$
P499512
     RDKit          3D

 19 20  0  0  0  0  0  0  0  0999 V2000
    9.8179   15.4996   19.7048 C   0  0  0  0  0  0  0  0  0  0  0  0
   10.4958   15.4774   20.9909 C   0  0  0  0  0  0  0  0  0  0  0  0
   10.1027   15.0141   22.1607 N   0  0  0  0  0  0  0  0  0  0  0  0
   11.2475   15.1064   22.9124 C   0  0  0  0  0  0  0  0  0  0  0  0
   11.3801   14.4447   24.2150 C   0  0  0  0  0  0  0  0  0  0  0  0
   11.0813   12.9658   24.0406 C   0  0  0  0  0  0  0  0  0  0  0  0
    9.7253   12.6649   24.4074 N   0  0  0  0  0  0  0  0  0  0  0  0
    8.7953   11.5366   23.9458 C   0  0  0  0  0  0  0  0  0  0  0  0
    8.9503   10.7156   23.1386 O   0  0  0  0  0  0  0  0  0  0  0  0
    7.5085   11.6003   24.7034 C   0  0  0  0  0  0  0  0  0  0  0  0
    7.0217   10.3958   25.2285 C   0  0  0  0  0  0  0  0  0  0  0  0
    5.8909   10.3947   26.0400 C   0  0  0  0  0  0  0  0  0  0  0  0
    5.2600   11.5956   26.3455 C   0  0  0  0  0  0  0  0  0  0  0  0
    5.7132   12.7918   25.7833 C   0  0  0  0  0  0  0  0  0  0  0  0
    4.8626   14.2353   26.2147 Cl  0  0  0  0  0  0  0  0  0  0  0  0
    6.8138   12.8106   24.9102 C   0  0  0  0  0  0  0  0  0  0  0  0
    7.2083   14.0770   24.1967 C   0  0  0  0  0  0  0  0  0  0  0  0
   12.2411   15.7027   22.1838 C   0  0  0  0  0  0  0  0  0  0  0  0
   11.7676   15.9499   20.9503 O   0  0  0  0  0  0  0  0  0  0  0  0
  1  2  1  0
  2  3  2  0
  3  4  1  0
  4  5  1  0
  5  6  1  0
  6  7  1  0
  7  8  1  0
  8  9  2  0
  8 10  1  0
 10 11  2  0
 11 12  1  0
 12 13  2  0
 13 14  1  0
 14 15  1  0
 14 16  2  0
 16 17  1  0
  4 18  2  0
 18 19  1  0
 19  2  1  0
 16 10  1  0
M  END
>  <energy_score>  (1868) 
-0.81564

>  <inchikey>  (1868) 
None

>  <smiles>  (1868) 
None

>  <ref_pdb>  (1868) 
A5594a

>  <alias>  (1868) 
None

>  <HIPPO Pose ID>  (1868) 
499512

>  <name>  (1868) 
P499512

>  <HIPPO Compound ID>  (1868) 
306290

>  <ref_mols>  (1868) 
A3408a,A5594a

>  <distance_score>  (1868) 
1.557999

>  <inspiration_score>  (1868) 
None

$$$$
P499513
     RDKit          3D

 19 20  0  0  0  0  0  0  0  0999 V2000
    6.8342   14.3843   24.4617 C   0  0  0  0  0  0  0  0  0  0  0  0
    6.6806   12.9923   25.0002 C   0  0  0  0  0  0  0  0  0  0  0  0
    5.5742   12.6454   25.7910 C   0  0  0  0  0  0  0  0  0  0  0  0
    4.4308   13.8227   26.3369 Cl  0  0  0  0  0  0  0  0  0  0  0  0
    5.3560   11.3222   26.1697 C   0  0  0  0  0  0  0  0  0  0  0  0
    6.2291   10.3260   25.7477 C   0  0  0  0  0  0  0  0  0  0  0  0
    7.3717   10.6545   25.0231 C   0  0  0  0  0  0  0  0  0  0  0  0
    7.6244   11.9913   24.6966 C   0  0  0  0  0  0  0  0  0  0  0  0
    8.9587   12.3202   24.1014 C   0  0  0  0  0  0  0  0  0  0  0  0
    9.3538   11.7277   23.1811 O   0  0  0  0  0  0  0  0  0  0  0  0
    9.6196   13.4442   24.9253 N   0  0  0  0  0  0  0  0  0  0  0  0
   10.8694   14.1405   24.7290 C   0  0  1  0  0  0  0  0  0  0  0  0
   11.9870   13.3053   24.1372 C   0  0  0  0  0  0  0  0  0  0  0  0
   10.6422   15.4544   23.9987 C   0  0  0  0  0  0  0  0  0  0  0  0
   10.4030   15.3095   22.5574 C   0  0  0  0  0  0  0  0  0  0  0  0
   11.3169   15.2700   21.5303 C   0  0  0  0  0  0  0  0  0  0  0  0
   10.6262   15.1535   20.3673 O   0  0  0  0  0  0  0  0  0  0  0  0
    9.3317   15.1330   20.7693 C   0  0  0  0  0  0  0  0  0  0  0  0
    9.1308   15.2154   22.0613 N   0  0  0  0  0  0  0  0  0  0  0  0
  1  2  1  0
  2  3  2  0
  3  4  1  0
  3  5  1  0
  5  6  2  0
  6  7  1  0
  7  8  2  0
  8  9  1  0
  9 10  2  0
  9 11  1  0
 11 12  1  0
 12 13  1  6
 12 14  1  0
 14 15  1  0
 15 16  2  0
 16 17  1  0
 17 18  1  0
 18 19  2  0
  8  2  1  0
 19 15  1  0
M  END
>  <energy_score>  (1869) 
-9.072043

>  <inchikey>  (1869) 
None

>  <smiles>  (1869) 
None

>  <ref_pdb>  (1869) 
A5594a

>  <alias>  (1869) 
None

>  <HIPPO Pose ID>  (1869) 
499513

>  <name>  (1869) 
P499513

>  <HIPPO Compound ID>  (1869) 
306291

>  <ref_mols>  (1869) 
A3408a,A5594a

>  <distance_score>  (1869) 
1.512852

>  <inspiration_score>  (1869) 
None

$$$$
P499514
     RDKit          3D

 19 20  0  0  0  0  0  0  0  0999 V2000
    9.9823   15.6106   19.9338 C   0  0  0  0  0  0  0  0  0  0  0  0
   10.4387   15.1439   21.2421 C   0  0  0  0  0  0  0  0  0  0  0  0
    9.9505   14.1861   21.9999 N   0  0  0  0  0  0  0  0  0  0  0  0
   10.9073   14.0251   22.9637 C   0  0  0  0  0  0  0  0  0  0  0  0
   10.8944   12.8927   23.9075 C   0  0  0  0  0  0  0  0  0  0  0  0
    9.9878   11.7428   23.4653 C   0  0  0  0  0  0  0  0  0  0  0  0
    8.7837   11.7976   24.2257 N   0  0  0  0  0  0  0  0  0  0  0  0
    7.4155   12.3504   23.8692 C   0  0  0  0  0  0  0  0  0  0  0  0
    7.0166   12.7843   22.8718 O   0  0  0  0  0  0  0  0  0  0  0  0
    6.6007   12.3598   25.0970 C   0  0  0  0  0  0  0  0  0  0  0  0
    6.1172   11.1796   25.6824 C   0  0  0  0  0  0  0  0  0  0  0  0
    6.4667    9.8224   25.1860 C   0  0  0  0  0  0  0  0  0  0  0  0
    5.3156   11.2701   26.8243 C   0  0  0  0  0  0  0  0  0  0  0  0
    5.0562   12.5108   27.3980 C   0  0  0  0  0  0  0  0  0  0  0  0
    5.6338   13.6650   26.8675 C   0  0  0  0  0  0  0  0  0  0  0  0
    6.4249   13.5873   25.7260 C   0  0  0  0  0  0  0  0  0  0  0  0
    7.3856   15.1266   25.1715 Br  0  0  0  0  0  0  0  0  0  0  0  0
   11.8720   14.9882   22.8190 C   0  0  0  0  0  0  0  0  0  0  0  0
   11.5864   15.7131   21.7121 O   0  0  0  0  0  0  0  0  0  0  0  0
  1  2  1  0
  2  3  2  0
  3  4  1  0
  4  5  1  0
  5  6  1  0
  6  7  1  0
  7  8  1  0
  8  9  2  0
  8 10  1  0
 10 11  2  0
 11 12  1  0
 11 13  1  0
 13 14  2  0
 14 15  1  0
 15 16  2  0
 16 17  1  0
  4 18  2  0
 18 19  1  0
 19  2  1  0
 16 10  1  0
M  END
>  <energy_score>  (1870) 
-18.445234

>  <inchikey>  (1870) 
None

>  <smiles>  (1870) 
None

>  <ref_pdb>  (1870) 
A5594a

>  <alias>  (1870) 
None

>  <HIPPO Pose ID>  (1870) 
499514

>  <name>  (1870) 
P499514

>  <HIPPO Compound ID>  (1870) 
306293

>  <ref_mols>  (1870) 
A3408a,A5594a

>  <distance_score>  (1870) 
1.607909

>  <inspiration_score>  (1870) 
None

$$$$
P499515
     RDKit          3D

 19 20  0  0  0  0  0  0  0  0999 V2000
    6.9760   14.5624   25.2356 C   0  0  0  0  0  0  0  0  0  0  0  0
    6.7400   13.0967   25.4382 C   0  0  0  0  0  0  0  0  0  0  0  0
    5.7701   12.6444   26.3362 C   0  0  0  0  0  0  0  0  0  0  0  0
    5.5380   11.2784   26.4882 C   0  0  0  0  0  0  0  0  0  0  0  0
    6.2985   10.3528   25.7714 C   0  0  0  0  0  0  0  0  0  0  0  0
    7.2932   10.7854   24.8975 C   0  0  0  0  0  0  0  0  0  0  0  0
    8.3890    9.5251   24.0063 Br  0  0  0  0  0  0  0  0  0  0  0  0
    7.4824   12.1517   24.7165 C   0  0  0  0  0  0  0  0  0  0  0  0
    8.3859   12.6531   23.6755 C   0  0  0  0  0  0  0  0  0  0  0  0
    7.9703   12.7813   22.5976 O   0  0  0  0  0  0  0  0  0  0  0  0
    9.7530   13.0212   24.2645 N   0  0  0  0  0  0  0  0  0  0  0  0
   10.8703   13.7141   23.6748 C   0  0  2  0  0  0  0  0  0  0  0  0
   12.1088   13.6873   24.5508 C   0  0  0  0  0  0  0  0  0  0  0  0
   10.4796   15.1685   23.3734 C   0  0  0  0  0  0  0  0  0  0  0  0
   10.5464   15.3883   21.9261 C   0  0  0  0  0  0  0  0  0  0  0  0
   11.6663   15.5039   21.1401 C   0  0  0  0  0  0  0  0  0  0  0  0
   11.2563   15.5662   19.8487 O   0  0  0  0  0  0  0  0  0  0  0  0
    9.9030   15.5024   19.9355 C   0  0  0  0  0  0  0  0  0  0  0  0
    9.4177   15.3973   21.1509 N   0  0  0  0  0  0  0  0  0  0  0  0
  1  2  1  0
  2  3  2  0
  3  4  1  0
  4  5  2  0
  5  6  1  0
  6  7  1  0
  6  8  2  0
  8  9  1  0
  9 10  2  0
  9 11  1  0
 11 12  1  0
 12 13  1  1
 12 14  1  0
 14 15  1  0
 15 16  2  0
 16 17  1  0
 17 18  1  0
 18 19  2  0
  8  2  1  0
 19 15  1  0
M  END
>  <energy_score>  (1871) 
-26.162619

>  <inchikey>  (1871) 
None

>  <smiles>  (1871) 
None

>  <ref_pdb>  (1871) 
A5594a

>  <alias>  (1871) 
None

>  <HIPPO Pose ID>  (1871) 
499515

>  <name>  (1871) 
P499515

>  <HIPPO Compound ID>  (1871) 
306294

>  <ref_mols>  (1871) 
A3408a,A5594a

>  <distance_score>  (1871) 
1.75772

>  <inspiration_score>  (1871) 
None

$$$$
P499516
     RDKit          3D

 19 20  0  0  0  0  0  0  0  0999 V2000
    6.8164   14.6359   25.2107 C   0  0  0  0  0  0  0  0  0  0  0  0
    6.5534   13.1820   25.4581 C   0  0  0  0  0  0  0  0  0  0  0  0
    5.6039   12.7625   26.3918 C   0  0  0  0  0  0  0  0  0  0  0  0
    5.3773   11.4015   26.6023 C   0  0  0  0  0  0  0  0  0  0  0  0
    6.1243   10.4469   25.9098 C   0  0  0  0  0  0  0  0  0  0  0  0
    7.0929   10.8507   24.9951 C   0  0  0  0  0  0  0  0  0  0  0  0
    8.2041    9.5671   24.1594 Br  0  0  0  0  0  0  0  0  0  0  0  0
    7.2613   12.2104   24.7451 C   0  0  0  0  0  0  0  0  0  0  0  0
    8.1927   12.6673   23.7089 C   0  0  0  0  0  0  0  0  0  0  0  0
    7.8131   12.8544   22.6240 O   0  0  0  0  0  0  0  0  0  0  0  0
    9.5853   12.8715   24.3271 N   0  0  0  0  0  0  0  0  0  0  0  0
   10.8335   13.2606   23.7174 C   0  0  1  0  0  0  0  0  0  0  0  0
   10.8397   12.8289   22.2688 C   0  0  0  0  0  0  0  0  0  0  0  0
   11.1337   14.7541   23.8909 C   0  0  0  0  0  0  0  0  0  0  0  0
   10.3951   15.5474   22.8929 C   0  0  0  0  0  0  0  0  0  0  0  0
   10.8422   15.9842   21.6679 C   0  0  0  0  0  0  0  0  0  0  0  0
    9.7603   16.4048   20.9612 O   0  0  0  0  0  0  0  0  0  0  0  0
    8.7242   16.2419   21.8277 C   0  0  0  0  0  0  0  0  0  0  0  0
    9.0441   15.7506   23.0034 N   0  0  0  0  0  0  0  0  0  0  0  0
  1  2  1  0
  2  3  2  0
  3  4  1  0
  4  5  2  0
  5  6  1  0
  6  7  1  0
  6  8  2  0
  8  9  1  0
  9 10  2  0
  9 11  1  0
 11 12  1  0
 12 13  1  6
 12 14  1  0
 14 15  1  0
 15 16  2  0
 16 17  1  0
 17 18  1  0
 18 19  2  0
  8  2  1  0
 19 15  1  0
M  END
>  <energy_score>  (1872) 
-27.895184

>  <inchikey>  (1872) 
None

>  <smiles>  (1872) 
None

>  <ref_pdb>  (1872) 
A5594a

>  <alias>  (1872) 
None

>  <HIPPO Pose ID>  (1872) 
499516

>  <name>  (1872) 
P499516

>  <HIPPO Compound ID>  (1872) 
306294

>  <ref_mols>  (1872) 
A3408a,A5594a

>  <distance_score>  (1872) 
1.816794

>  <inspiration_score>  (1872) 
None

$$$$
P499517
     RDKit          3D

 19 20  0  0  0  0  0  0  0  0999 V2000
    6.8645   14.6169   24.7679 C   0  0  0  0  0  0  0  0  0  0  0  0
    6.5271   13.2728   25.3367 C   0  0  0  0  0  0  0  0  0  0  0  0
    5.4518   13.1528   26.2291 C   0  0  0  0  0  0  0  0  0  0  0  0
    5.0255   11.9026   26.6781 C   0  0  0  0  0  0  0  0  0  0  0  0
    5.6604   10.7506   26.2295 C   0  0  0  0  0  0  0  0  0  0  0  0
    6.7457   10.8569   25.3602 C   0  0  0  0  0  0  0  0  0  0  0  0
    7.5032    9.4078   24.8543 Cl  0  0  0  0  0  0  0  0  0  0  0  0
    7.2022   12.1121   24.9369 C   0  0  0  0  0  0  0  0  0  0  0  0
    8.3979   12.1770   24.0584 C   0  0  0  0  0  0  0  0  0  0  0  0
    8.4133   11.5220   23.1008 O   0  0  0  0  0  0  0  0  0  0  0  0
    9.4818   13.0725   24.6663 N   0  0  0  0  0  0  0  0  0  0  0  0
   10.7804   13.4258   24.1754 C   0  0  0  0  0  0  0  0  0  0  0  0
   10.8331   13.4021   22.6674 C   0  0  0  0  0  0  0  0  0  0  0  0
   10.1634   14.5603   22.0594 C   0  0  0  0  0  0  0  0  0  0  0  0
    8.9464   15.0447   22.4677 N   0  0  0  0  0  0  0  0  0  0  0  0
    8.7392   16.0561   21.6565 C   0  0  0  0  0  0  0  0  0  0  0  0
    9.7198   16.2784   20.7443 O   0  0  0  0  0  0  0  0  0  0  0  0
   10.6358   15.3155   21.0196 C   0  0  0  0  0  0  0  0  0  0  0  0
   11.8464   15.2694   20.2037 C   0  0  0  0  0  0  0  0  0  0  0  0
  1  2  1  0
  2  3  2  0
  3  4  1  0
  4  5  2  0
  5  6  1  0
  6  7  1  0
  6  8  2  0
  8  9  1  0
  9 10  2  0
  9 11  1  0
 11 12  1  0
 12 13  1  0
 13 14  1  0
 14 15  1  0
 15 16  2  0
 16 17  1  0
 17 18  1  0
 18 19  1  0
  8  2  1  0
 18 14  2  0
M  END
>  <energy_score>  (1873) 
-4.511126

>  <inchikey>  (1873) 
None

>  <smiles>  (1873) 
None

>  <ref_pdb>  (1873) 
A5594a

>  <alias>  (1873) 
None

>  <HIPPO Pose ID>  (1873) 
499517

>  <name>  (1873) 
P499517

>  <HIPPO Compound ID>  (1873) 
306295

>  <ref_mols>  (1873) 
A3408a,A5594a

>  <distance_score>  (1873) 
1.676255

>  <inspiration_score>  (1873) 
None

$$$$
P499518
     RDKit          3D

 19 20  0  0  0  0  0  0  0  0999 V2000
    7.1057   14.6109   24.6748 C   0  0  0  0  0  0  0  0  0  0  0  0
    6.7461   13.2638   25.2238 C   0  0  0  0  0  0  0  0  0  0  0  0
    5.6572   13.1502   26.1025 C   0  0  0  0  0  0  0  0  0  0  0  0
    5.2106   11.9025   26.5370 C   0  0  0  0  0  0  0  0  0  0  0  0
    5.8387   10.7476   26.0866 C   0  0  0  0  0  0  0  0  0  0  0  0
    6.9386   10.8465   25.2320 C   0  0  0  0  0  0  0  0  0  0  0  0
    7.6726    9.3858   24.7175 Cl  0  0  0  0  0  0  0  0  0  0  0  0
    7.4205   12.0998   24.8268 C   0  0  0  0  0  0  0  0  0  0  0  0
    8.6293   12.1645   23.9590 C   0  0  0  0  0  0  0  0  0  0  0  0
    8.6522   11.5042   23.0045 O   0  0  0  0  0  0  0  0  0  0  0  0
    9.7099   13.0644   24.5716 N   0  0  0  0  0  0  0  0  0  0  0  0
   11.0223   13.4176   24.0854 C   0  0  2  0  0  0  0  0  0  0  0  0
   11.4881   14.7336   24.6938 C   0  0  0  0  0  0  0  0  0  0  0  0
   11.1170   13.4070   22.5623 C   0  0  0  0  0  0  0  0  0  0  0  0
   10.4592   14.5447   21.8979 C   0  0  0  0  0  0  0  0  0  0  0  0
   10.9551   15.2884   20.8569 C   0  0  0  0  0  0  0  0  0  0  0  0
   10.0338   16.2332   20.5437 O   0  0  0  0  0  0  0  0  0  0  0  0
    9.0310   16.0167   21.4349 C   0  0  0  0  0  0  0  0  0  0  0  0
    9.2217   15.0165   22.2622 N   0  0  0  0  0  0  0  0  0  0  0  0
  1  2  1  0
  2  3  2  0
  3  4  1  0
  4  5  2  0
  5  6  1  0
  6  7  1  0
  6  8  2  0
  8  9  1  0
  9 10  2  0
  9 11  1  0
 11 12  1  0
 12 13  1  6
 12 14  1  0
 14 15  1  0
 15 16  2  0
 16 17  1  0
 17 18  1  0
 18 19  2  0
  8  2  1  0
 19 15  1  0
M  END
>  <energy_score>  (1874) 
-6.430079

>  <inchikey>  (1874) 
None

>  <smiles>  (1874) 
None

>  <ref_pdb>  (1874) 
A5594a

>  <alias>  (1874) 
None

>  <HIPPO Pose ID>  (1874) 
499518

>  <name>  (1874) 
P499518

>  <HIPPO Compound ID>  (1874) 
306297

>  <ref_mols>  (1874) 
A3408a,A5594a

>  <distance_score>  (1874) 
1.487897

>  <inspiration_score>  (1874) 
None

$$$$
P499519
     RDKit          3D

 19 20  0  0  0  0  0  0  0  0999 V2000
    6.8629   14.0944   24.1549 C   0  0  0  0  0  0  0  0  0  0  0  0
    6.5623   12.9083   25.0223 C   0  0  0  0  0  0  0  0  0  0  0  0
    5.4595   12.9809   25.8822 C   0  0  0  0  0  0  0  0  0  0  0  0
    5.0417   11.8602   26.5918 C   0  0  0  0  0  0  0  0  0  0  0  0
    5.6919   10.6469   26.4169 C   0  0  0  0  0  0  0  0  0  0  0  0
    5.2101    9.6018   27.1439 O   0  0  0  0  0  0  0  0  0  0  0  0
    6.8066   10.5530   25.5909 C   0  0  0  0  0  0  0  0  0  0  0  0
    7.2932   11.7089   24.9533 C   0  0  0  0  0  0  0  0  0  0  0  0
    8.6113   11.6187   24.2407 C   0  0  0  0  0  0  0  0  0  0  0  0
    8.8456   10.6649   23.6132 O   0  0  0  0  0  0  0  0  0  0  0  0
    9.4887   12.8520   24.5538 N   0  0  0  0  0  0  0  0  0  0  0  0
   10.8106   13.2129   24.0781 C   0  0  2  0  0  0  0  0  0  0  0  0
   11.2742   14.5345   24.6936 C   0  0  0  0  0  0  0  0  0  0  0  0
   10.8986   13.2050   22.5542 C   0  0  0  0  0  0  0  0  0  0  0  0
   10.3596   14.4131   21.9063 C   0  0  0  0  0  0  0  0  0  0  0  0
   10.9967   15.2214   20.9972 C   0  0  0  0  0  0  0  0  0  0  0  0
   10.1477   16.2277   20.6704 O   0  0  0  0  0  0  0  0  0  0  0  0
    9.0454   15.9824   21.4259 C   0  0  0  0  0  0  0  0  0  0  0  0
    9.1055   14.9035   22.1714 N   0  0  0  0  0  0  0  0  0  0  0  0
  1  2  1  0
  2  3  2  0
  3  4  1  0
  4  5  2  0
  5  6  1  0
  5  7  1  0
  7  8  2  0
  8  9  1  0
  9 10  2  0
  9 11  1  0
 11 12  1  0
 12 13  1  6
 12 14  1  0
 14 15  1  0
 15 16  2  0
 16 17  1  0
 17 18  1  0
 18 19  2  0
  8  2  1  0
 19 15  1  0
M  END
>  <energy_score>  (1875) 
-19.647275

>  <inchikey>  (1875) 
None

>  <smiles>  (1875) 
None

>  <ref_pdb>  (1875) 
A5594a

>  <alias>  (1875) 
None

>  <HIPPO Pose ID>  (1875) 
499519

>  <name>  (1875) 
P499519

>  <HIPPO Compound ID>  (1875) 
306299

>  <ref_mols>  (1875) 
A3408a,A5594a

>  <distance_score>  (1875) 
1.297274

>  <inspiration_score>  (1875) 
None

$$$$
P499520
     RDKit          3D

 19 20  0  0  0  0  0  0  0  0999 V2000
    5.1997   13.8017   26.5006 C   0  0  0  0  0  0  0  0  0  0  0  0
    6.0645   12.6889   25.9716 C   0  0  0  0  0  0  0  0  0  0  0  0
    5.6809   11.3722   26.2409 C   0  0  0  0  0  0  0  0  0  0  0  0
    6.3983   10.3091   25.7093 C   0  0  0  0  0  0  0  0  0  0  0  0
    7.5484   10.5405   24.9570 C   0  0  0  0  0  0  0  0  0  0  0  0
    7.9808   11.8494   24.6978 C   0  0  0  0  0  0  0  0  0  0  0  0
    9.2316   12.0008   23.8622 C   0  0  0  0  0  0  0  0  0  0  0  0
    9.3401   11.2766   22.9549 O   0  0  0  0  0  0  0  0  0  0  0  0
   10.1908   13.0923   24.3938 N   0  0  0  0  0  0  0  0  0  0  0  0
   11.4567   13.5895   23.8540 C   0  0  2  0  0  0  0  0  0  0  0  0
   12.5857   13.5096   24.8620 C   0  0  0  0  0  0  0  0  0  0  0  0
   11.3709   15.0492   23.4046 C   0  0  0  0  0  0  0  0  0  0  0  0
   10.3793   15.2214   22.3449 C   0  0  0  0  0  0  0  0  0  0  0  0
   10.4587   14.8595   21.0252 C   0  0  0  0  0  0  0  0  0  0  0  0
    9.2660   15.1585   20.4482 O   0  0  0  0  0  0  0  0  0  0  0  0
    8.5440   15.6949   21.4633 C   0  0  0  0  0  0  0  0  0  0  0  0
    9.1606   15.7726   22.6161 N   0  0  0  0  0  0  0  0  0  0  0  0
    7.1832   12.9290   25.1365 C   0  0  0  0  0  0  0  0  0  0  0  0
    7.4508   14.3111   24.6294 C   0  0  0  0  0  0  0  0  0  0  0  0
  1  2  1  0
  2  3  2  0
  3  4  1  0
  4  5  2  0
  5  6  1  0
  6  7  1  0
  7  8  2  0
  7  9  1  0
  9 10  1  0
 10 11  1  1
 10 12  1  0
 12 13  1  0
 13 14  2  0
 14 15  1  0
 15 16  1  0
 16 17  2  0
  6 18  2  0
 18 19  1  0
 18  2  1  0
 17 13  1  0
M  END
>  <energy_score>  (1876) 
-0.077264

>  <inchikey>  (1876) 
None

>  <smiles>  (1876) 
None

>  <ref_pdb>  (1876) 
A5594a

>  <alias>  (1876) 
None

>  <HIPPO Pose ID>  (1876) 
499520

>  <name>  (1876) 
P499520

>  <HIPPO Compound ID>  (1876) 
306301

>  <ref_mols>  (1876) 
A3408a,A5594a

>  <distance_score>  (1876) 
1.744099

>  <inspiration_score>  (1876) 
None

$$$$
P499521
     RDKit          3D

 19 20  0  0  0  0  0  0  0  0999 V2000
    4.6215   14.0859   26.3386 C   0  0  0  0  0  0  0  0  0  0  0  0
    5.4187   12.8366   26.0719 C   0  0  0  0  0  0  0  0  0  0  0  0
    4.9912   11.6374   26.6609 C   0  0  0  0  0  0  0  0  0  0  0  0
    5.6308   10.4361   26.3797 C   0  0  0  0  0  0  0  0  0  0  0  0
    6.7535   10.4300   25.5617 C   0  0  0  0  0  0  0  0  0  0  0  0
    7.2329   11.6234   25.0073 C   0  0  0  0  0  0  0  0  0  0  0  0
    8.4879   11.5201   24.2040 C   0  0  0  0  0  0  0  0  0  0  0  0
    8.6251   10.5872   23.5215 O   0  0  0  0  0  0  0  0  0  0  0  0
    9.3818   12.7593   24.3915 N   0  0  0  0  0  0  0  0  0  0  0  0
   10.6853   13.0684   23.8465 C   0  0  1  0  0  0  0  0  0  0  0  0
   10.6723   12.7150   22.3703 C   0  0  0  0  0  0  0  0  0  0  0  0
   11.0898   14.5352   24.0728 C   0  0  0  0  0  0  0  0  0  0  0  0
   10.5041   15.4058   23.0294 C   0  0  0  0  0  0  0  0  0  0  0  0
   11.1066   15.8745   21.8841 C   0  0  0  0  0  0  0  0  0  0  0  0
   10.1346   16.3939   21.0870 O   0  0  0  0  0  0  0  0  0  0  0  0
    9.0001   16.2567   21.8245 C   0  0  0  0  0  0  0  0  0  0  0  0
    9.1556   15.6613   22.9870 N   0  0  0  0  0  0  0  0  0  0  0  0
    6.5109   12.8226   25.1759 C   0  0  0  0  0  0  0  0  0  0  0  0
    6.8255   14.0530   24.3652 C   0  0  0  0  0  0  0  0  0  0  0  0
  1  2  1  0
  2  3  2  0
  3  4  1  0
  4  5  2  0
  5  6  1  0
  6  7  1  0
  7  8  2  0
  7  9  1  0
  9 10  1  0
 10 11  1  6
 10 12  1  0
 12 13  1  0
 13 14  2  0
 14 15  1  0
 15 16  1  0
 16 17  2  0
  6 18  2  0
 18 19  1  0
 18  2  1  0
 17 13  1  0
M  END
>  <energy_score>  (1877) 
-3.274801

>  <inchikey>  (1877) 
None

>  <smiles>  (1877) 
None

>  <ref_pdb>  (1877) 
A5594a

>  <alias>  (1877) 
None

>  <HIPPO Pose ID>  (1877) 
499521

>  <name>  (1877) 
P499521

>  <HIPPO Compound ID>  (1877) 
306301

>  <ref_mols>  (1877) 
A3408a,A5594a

>  <distance_score>  (1877) 
1.76881

>  <inspiration_score>  (1877) 
None

$$$$
P499522
     RDKit          3D

 19 20  0  0  0  0  0  0  0  0999 V2000
    7.0957   14.5169   25.4047 C   0  0  0  0  0  0  0  0  0  0  0  0
    6.7490   13.0749   25.6254 C   0  0  0  0  0  0  0  0  0  0  0  0
    5.7850   12.7177   26.5722 C   0  0  0  0  0  0  0  0  0  0  0  0
    5.4127   11.3829   26.7218 C   0  0  0  0  0  0  0  0  0  0  0  0
    4.2015   10.9654   27.8700 Cl  0  0  0  0  0  0  0  0  0  0  0  0
    6.0129   10.3874   25.9533 C   0  0  0  0  0  0  0  0  0  0  0  0
    7.0022   10.7200   25.0276 C   0  0  0  0  0  0  0  0  0  0  0  0
    7.3518   12.0616   24.8651 C   0  0  0  0  0  0  0  0  0  0  0  0
    8.2444   12.4726   23.7685 C   0  0  0  0  0  0  0  0  0  0  0  0
    7.8181   12.4782   22.6887 O   0  0  0  0  0  0  0  0  0  0  0  0
    9.6058   12.9289   24.3010 N   0  0  0  0  0  0  0  0  0  0  0  0
   10.7031   13.5801   23.6304 C   0  0  2  0  0  0  0  0  0  0  0  0
   11.9887   13.5606   24.4378 C   0  0  0  0  0  0  0  0  0  0  0  0
   10.3139   15.0359   23.3268 C   0  0  0  0  0  0  0  0  0  0  0  0
   10.4805   15.2972   21.8956 C   0  0  0  0  0  0  0  0  0  0  0  0
   11.6432   15.4756   21.1885 C   0  0  0  0  0  0  0  0  0  0  0  0
   11.3114   15.5847   19.8771 O   0  0  0  0  0  0  0  0  0  0  0  0
    9.9576   15.4828   19.8733 C   0  0  0  0  0  0  0  0  0  0  0  0
    9.4025   15.3028   21.0496 N   0  0  0  0  0  0  0  0  0  0  0  0
  1  2  1  0
  2  3  2  0
  3  4  1  0
  4  5  1  0
  4  6  2  0
  6  7  1  0
  7  8  2  0
  8  9  1  0
  9 10  2  0
  9 11  1  0
 11 12  1  0
 12 13  1  1
 12 14  1  0
 14 15  1  0
 15 16  2  0
 16 17  1  0
 17 18  1  0
 18 19  2  0
  8  2  1  0
 19 15  1  0
M  END
>  <energy_score>  (1878) 
-0.661205

>  <inchikey>  (1878) 
None

>  <smiles>  (1878) 
None

>  <ref_pdb>  (1878) 
A5594a

>  <alias>  (1878) 
None

>  <HIPPO Pose ID>  (1878) 
499522

>  <name>  (1878) 
P499522

>  <HIPPO Compound ID>  (1878) 
306303

>  <ref_mols>  (1878) 
A3408a,A5594a

>  <distance_score>  (1878) 
1.870823

>  <inspiration_score>  (1878) 
None

$$$$
P499523
     RDKit          3D

 19 20  0  0  0  0  0  0  0  0999 V2000
    7.2380   13.9589   25.4646 C   0  0  0  0  0  0  0  0  0  0  0  0
    6.4886   12.6761   25.6918 C   0  0  0  0  0  0  0  0  0  0  0  0
    5.3073   12.7924   26.4538 C   0  0  0  0  0  0  0  0  0  0  0  0
    4.5614   11.6753   26.8116 C   0  0  0  0  0  0  0  0  0  0  0  0
    3.4479   11.8570   27.5780 O   0  0  0  0  0  0  0  0  0  0  0  0
    4.9409   10.4131   26.4024 C   0  0  0  0  0  0  0  0  0  0  0  0
    6.0715   10.2848   25.6076 C   0  0  0  0  0  0  0  0  0  0  0  0
    6.8557   11.3953   25.2279 C   0  0  0  0  0  0  0  0  0  0  0  0
    8.1339   11.0126   24.5359 C   0  0  0  0  0  0  0  0  0  0  0  0
    8.4997    9.9299   24.7363 O   0  0  0  0  0  0  0  0  0  0  0  0
    8.7892   12.1486   23.7642 N   0  0  0  0  0  0  0  0  0  0  0  0
   10.0768   12.2334   23.1510 C   0  0  0  0  0  0  0  0  0  0  0  0
   10.7597   13.5587   23.4398 C   0  0  0  0  0  0  0  0  0  0  0  0
   10.1144   14.6230   22.6455 C   0  0  0  0  0  0  0  0  0  0  0  0
    8.8116   15.0037   22.8773 N   0  0  0  0  0  0  0  0  0  0  0  0
    8.5775   15.8704   21.9164 C   0  0  0  0  0  0  0  0  0  0  0  0
    9.6046   16.0657   21.0513 O   0  0  0  0  0  0  0  0  0  0  0  0
   10.5978   15.2719   21.5360 C   0  0  0  0  0  0  0  0  0  0  0  0
   11.8532   15.2410   20.7827 C   0  0  0  0  0  0  0  0  0  0  0  0
  1  2  1  0
  2  3  2  0
  3  4  1  0
  4  5  1  0
  4  6  2  0
  6  7  1  0
  7  8  2  0
  8  9  1  0
  9 10  2  0
  9 11  1  0
 11 12  1  0
 12 13  1  0
 13 14  1  0
 14 15  1  0
 15 16  2  0
 16 17  1  0
 17 18  1  0
 18 19  1  0
  8  2  1  0
 18 14  2  0
M  END
>  <energy_score>  (1879) 
-5.27511

>  <inchikey>  (1879) 
None

>  <smiles>  (1879) 
None

>  <ref_pdb>  (1879) 
A5594a

>  <alias>  (1879) 
None

>  <HIPPO Pose ID>  (1879) 
499523

>  <name>  (1879) 
P499523

>  <HIPPO Compound ID>  (1879) 
306306

>  <ref_mols>  (1879) 
A3408a,A5594a

>  <distance_score>  (1879) 
1.269492

>  <inspiration_score>  (1879) 
None

$$$$
P499524
     RDKit          3D

 19 20  0  0  0  0  0  0  0  0999 V2000
    6.6231   14.3552   24.4787 C   0  0  0  0  0  0  0  0  0  0  0  0
    6.6024   12.9506   25.0055 C   0  0  0  0  0  0  0  0  0  0  0  0
    5.4852   12.5185   25.7353 C   0  0  0  0  0  0  0  0  0  0  0  0
    5.3547   11.1808   26.0799 C   0  0  0  0  0  0  0  0  0  0  0  0
    4.2402   10.7838   26.7579 O   0  0  0  0  0  0  0  0  0  0  0  0
    6.3157   10.2597   25.6920 C   0  0  0  0  0  0  0  0  0  0  0  0
    7.4697   10.6854   25.0363 C   0  0  0  0  0  0  0  0  0  0  0  0
    7.6448   12.0424   24.7542 C   0  0  0  0  0  0  0  0  0  0  0  0
    8.9943   12.5000   24.2942 C   0  0  0  0  0  0  0  0  0  0  0  0
    9.5807   11.8982   23.4894 O   0  0  0  0  0  0  0  0  0  0  0  0
    9.4017   13.7482   25.1018 N   0  0  0  0  0  0  0  0  0  0  0  0
   10.5812   14.5738   25.0188 C   0  0  2  0  0  0  0  0  0  0  0  0
   10.7723   15.3170   26.3490 C   0  0  0  0  0  0  0  0  0  0  0  0
   10.3552   15.6299   23.9577 C   0  0  0  0  0  0  0  0  0  0  0  0
   10.3365   15.1833   22.5615 C   0  0  0  0  0  0  0  0  0  0  0  0
   11.3912   14.8680   21.7425 C   0  0  0  0  0  0  0  0  0  0  0  0
   10.9225   14.8156   20.4685 O   0  0  0  0  0  0  0  0  0  0  0  0
    9.6009   15.0889   20.6024 C   0  0  0  0  0  0  0  0  0  0  0  0
    9.1755   15.2548   21.8313 N   0  0  0  0  0  0  0  0  0  0  0  0
  1  2  1  0
  2  3  2  0
  3  4  1  0
  4  5  1  0
  4  6  2  0
  6  7  1  0
  7  8  2  0
  8  9  1  0
  9 10  2  0
  9 11  1  0
 11 12  1  0
 12 13  1  1
 12 14  1  0
 14 15  1  0
 15 16  2  0
 16 17  1  0
 17 18  1  0
 18 19  2  0
  8  2  1  0
 19 15  1  0
M  END
>  <energy_score>  (1880) 
-11.132324

>  <inchikey>  (1880) 
None

>  <smiles>  (1880) 
None

>  <ref_pdb>  (1880) 
A5594a

>  <alias>  (1880) 
None

>  <HIPPO Pose ID>  (1880) 
499524

>  <name>  (1880) 
P499524

>  <HIPPO Compound ID>  (1880) 
306308

>  <ref_mols>  (1880) 
A3408a,A5594a

>  <distance_score>  (1880) 
1.376521

>  <inspiration_score>  (1880) 
None

$$$$
P499525
     RDKit          3D

 19 20  0  0  0  0  0  0  0  0999 V2000
    3.4340   10.6893   28.2046 C   0  0  0  0  0  0  0  0  0  0  0  0
    4.5699   11.0406   27.2874 C   0  0  0  0  0  0  0  0  0  0  0  0
    5.0981   10.0704   26.4272 C   0  0  0  0  0  0  0  0  0  0  0  0
    6.1657   10.3670   25.5891 C   0  0  0  0  0  0  0  0  0  0  0  0
    6.6667   11.6597   25.5963 C   0  0  0  0  0  0  0  0  0  0  0  0
    7.7062   12.0577   24.6452 C   0  0  0  0  0  0  0  0  0  0  0  0
    8.7402   11.5296   24.6285 O   0  0  0  0  0  0  0  0  0  0  0  0
    7.1950   13.2673   23.8547 N   0  0  0  0  0  0  0  0  0  0  0  0
    7.8749   14.1394   22.9487 C   0  0  2  0  0  0  0  0  0  0  0  0
    7.0688   14.3181   21.6686 C   0  0  0  0  0  0  0  0  0  0  0  0
    9.3549   13.7600   22.8058 C   0  0  0  0  0  0  0  0  0  0  0  0
   10.0716   14.7322   21.9786 C   0  0  0  0  0  0  0  0  0  0  0  0
   11.2392   14.5964   21.2755 C   0  0  0  0  0  0  0  0  0  0  0  0
   11.3807   15.7026   20.4984 O   0  0  0  0  0  0  0  0  0  0  0  0
   10.2996   16.4610   20.8139 C   0  0  0  0  0  0  0  0  0  0  0  0
    9.5101   15.9543   21.7250 N   0  0  0  0  0  0  0  0  0  0  0  0
    6.2205   12.6359   26.5067 C   0  0  0  0  0  0  0  0  0  0  0  0
    6.8257   14.0141   26.5975 C   0  0  0  0  0  0  0  0  0  0  0  0
    5.1497   12.3129   27.3369 C   0  0  0  0  0  0  0  0  0  0  0  0
  1  2  1  0
  2  3  2  0
  3  4  1  0
  4  5  2  0
  5  6  1  0
  6  7  2  0
  6  8  1  0
  8  9  1  0
  9 10  1  6
  9 11  1  0
 11 12  1  0
 12 13  2  0
 13 14  1  0
 14 15  1  0
 15 16  2  0
  5 17  1  0
 17 18  1  0
 17 19  2  0
 19  2  1  0
 16 12  1  0
M  END
>  <energy_score>  (1881) 
-15.982118

>  <inchikey>  (1881) 
None

>  <smiles>  (1881) 
None

>  <ref_pdb>  (1881) 
A5594a

>  <alias>  (1881) 
None

>  <HIPPO Pose ID>  (1881) 
499525

>  <name>  (1881) 
P499525

>  <HIPPO Compound ID>  (1881) 
306311

>  <ref_mols>  (1881) 
A3408a,A5594a

>  <distance_score>  (1881) 
1.749852

>  <inspiration_score>  (1881) 
None

$$$$
P499526
     RDKit          3D

 19 20  0  0  0  0  0  0  0  0999 V2000
    3.4180   10.5971   27.7605 C   0  0  0  0  0  0  0  0  0  0  0  0
    4.6092   11.0403   26.9617 C   0  0  0  0  0  0  0  0  0  0  0  0
    5.2707   10.1475   26.1182 C   0  0  0  0  0  0  0  0  0  0  0  0
    6.3850   10.5539   25.3908 C   0  0  0  0  0  0  0  0  0  0  0  0
    6.8200   11.8782   25.4748 C   0  0  0  0  0  0  0  0  0  0  0  0
    8.0629   12.2466   24.7603 C   0  0  0  0  0  0  0  0  0  0  0  0
    8.9454   11.4948   24.7725 O   0  0  0  0  0  0  0  0  0  0  0  0
    7.9758   13.6604   24.1943 N   0  0  0  0  0  0  0  0  0  0  0  0
    8.9845   14.4921   23.6043 C   0  0  1  0  0  0  0  0  0  0  0  0
    9.7271   15.2500   24.7078 C   0  0  0  0  0  0  0  0  0  0  0  0
    9.9749   13.6685   22.7865 C   0  0  0  0  0  0  0  0  0  0  0  0
   10.4021   14.4728   21.6418 C   0  0  0  0  0  0  0  0  0  0  0  0
   11.6069   15.0638   21.3681 C   0  0  0  0  0  0  0  0  0  0  0  0
   11.4871   15.6937   20.1697 O   0  0  0  0  0  0  0  0  0  0  0  0
   10.1993   15.4678   19.8007 C   0  0  0  0  0  0  0  0  0  0  0  0
    9.4882   14.7810   20.6642 N   0  0  0  0  0  0  0  0  0  0  0  0
    6.2055   12.7790   26.3640 C   0  0  0  0  0  0  0  0  0  0  0  0
    6.7108   14.1661   26.6449 C   0  0  0  0  0  0  0  0  0  0  0  0
    5.0734   12.3531   27.0668 C   0  0  0  0  0  0  0  0  0  0  0  0
  1  2  1  0
  2  3  2  0
  3  4  1  0
  4  5  2  0
  5  6  1  0
  6  7  2  0
  6  8  1  0
  8  9  1  0
  9 10  1  1
  9 11  1  0
 11 12  1  0
 12 13  2  0
 13 14  1  0
 14 15  1  0
 15 16  2  0
  5 17  1  0
 17 18  1  0
 17 19  2  0
 19  2  1  0
 16 12  1  0
M  END
>  <energy_score>  (1882) 
-18.903274

>  <inchikey>  (1882) 
None

>  <smiles>  (1882) 
None

>  <ref_pdb>  (1882) 
A5594a

>  <alias>  (1882) 
None

>  <HIPPO Pose ID>  (1882) 
499526

>  <name>  (1882) 
P499526

>  <HIPPO Compound ID>  (1882) 
306311

>  <ref_mols>  (1882) 
A3408a,A5594a

>  <distance_score>  (1882) 
1.962355

>  <inspiration_score>  (1882) 
None

$$$$
P499527
     RDKit          3D

 19 20  0  0  0  0  0  0  0  0999 V2000
    9.9787   15.5506   19.5209 C   0  0  0  0  0  0  0  0  0  0  0  0
   10.5158   15.4775   20.8717 C   0  0  0  0  0  0  0  0  0  0  0  0
    9.9811   14.9861   21.9680 N   0  0  0  0  0  0  0  0  0  0  0  0
   11.0410   14.9659   22.8332 C   0  0  0  0  0  0  0  0  0  0  0  0
   10.9796   14.2021   24.0789 C   0  0  0  0  0  0  0  0  0  0  0  0
   10.6480   12.7475   23.7546 C   0  0  0  0  0  0  0  0  0  0  0  0
    9.3822   12.3872   24.3234 N   0  0  0  0  0  0  0  0  0  0  0  0
    7.9838   12.4022   23.7177 C   0  0  0  0  0  0  0  0  0  0  0  0
    7.6345   12.6349   22.6365 O   0  0  0  0  0  0  0  0  0  0  0  0
    7.0152   12.1574   24.7956 C   0  0  0  0  0  0  0  0  0  0  0  0
    6.6383   10.8661   25.1478 C   0  0  0  0  0  0  0  0  0  0  0  0
    5.7006   10.7255   26.1579 C   0  0  0  0  0  0  0  0  0  0  0  0
    5.2609    9.5123   26.4899 F   0  0  0  0  0  0  0  0  0  0  0  0
    5.1953   11.8235   26.8460 C   0  0  0  0  0  0  0  0  0  0  0  0
    5.6296   13.1055   26.5217 C   0  0  0  0  0  0  0  0  0  0  0  0
    6.5453   13.2871   25.4844 C   0  0  0  0  0  0  0  0  0  0  0  0
    7.0494   14.6588   25.1399 C   0  0  0  0  0  0  0  0  0  0  0  0
   12.1287   15.5665   22.2597 C   0  0  0  0  0  0  0  0  0  0  0  0
   11.7983   15.9110   20.9980 O   0  0  0  0  0  0  0  0  0  0  0  0
  1  2  1  0
  2  3  2  0
  3  4  1  0
  4  5  1  0
  5  6  1  0
  6  7  1  0
  7  8  1  0
  8  9  2  0
  8 10  1  0
 10 11  2  0
 11 12  1  0
 12 13  1  0
 12 14  2  0
 14 15  1  0
 15 16  2  0
 16 17  1  0
  4 18  2  0
 18 19  1  0
 19  2  1  0
 16 10  1  0
M  END
>  <energy_score>  (1883) 
-8.425401

>  <inchikey>  (1883) 
None

>  <smiles>  (1883) 
None

>  <ref_pdb>  (1883) 
A5594a

>  <alias>  (1883) 
None

>  <HIPPO Pose ID>  (1883) 
499527

>  <name>  (1883) 
P499527

>  <HIPPO Compound ID>  (1883) 
306312

>  <ref_mols>  (1883) 
A3408a,A5594a

>  <distance_score>  (1883) 
1.883732

>  <inspiration_score>  (1883) 
None

$$$$
P499528
     RDKit          3D

 19 20  0  0  0  0  0  0  0  0999 V2000
    7.4153   14.4332   24.8803 C   0  0  0  0  0  0  0  0  0  0  0  0
    7.1907   12.9998   25.2387 C   0  0  0  0  0  0  0  0  0  0  0  0
    6.0461   12.6976   25.9964 C   0  0  0  0  0  0  0  0  0  0  0  0
    5.2958   13.6895   26.5005 F   0  0  0  0  0  0  0  0  0  0  0  0
    5.6374   11.3935   26.2348 C   0  0  0  0  0  0  0  0  0  0  0  0
    6.3634   10.3476   25.6890 C   0  0  0  0  0  0  0  0  0  0  0  0
    7.5184   10.6141   24.9501 C   0  0  0  0  0  0  0  0  0  0  0  0
    7.9621   11.9365   24.7395 C   0  0  0  0  0  0  0  0  0  0  0  0
    9.1926   12.0943   23.8883 C   0  0  0  0  0  0  0  0  0  0  0  0
    9.2428   11.4258   22.9357 O   0  0  0  0  0  0  0  0  0  0  0  0
   10.2023   13.1198   24.4442 N   0  0  0  0  0  0  0  0  0  0  0  0
   11.4588   13.6128   23.8854 C   0  0  2  0  0  0  0  0  0  0  0  0
   12.5958   13.5678   24.8843 C   0  0  0  0  0  0  0  0  0  0  0  0
   11.3282   15.0575   23.3943 C   0  0  0  0  0  0  0  0  0  0  0  0
   10.3703   15.1401   22.2895 C   0  0  0  0  0  0  0  0  0  0  0  0
   10.6009   14.9880   20.9470 C   0  0  0  0  0  0  0  0  0  0  0  0
    9.4003   15.0655   20.3174 O   0  0  0  0  0  0  0  0  0  0  0  0
    8.5136   15.2414   21.3284 C   0  0  0  0  0  0  0  0  0  0  0  0
    9.0355   15.3180   22.5264 N   0  0  0  0  0  0  0  0  0  0  0  0
  1  2  1  0
  2  3  2  0
  3  4  1  0
  3  5  1  0
  5  6  2  0
  6  7  1  0
  7  8  2  0
  8  9  1  0
  9 10  2  0
  9 11  1  0
 11 12  1  0
 12 13  1  1
 12 14  1  0
 14 15  1  0
 15 16  2  0
 16 17  1  0
 17 18  1  0
 18 19  2  0
  8  2  1  0
 19 15  1  0
M  END
>  <energy_score>  (1884) 
-12.264256

>  <inchikey>  (1884) 
None

>  <smiles>  (1884) 
None

>  <ref_pdb>  (1884) 
A5594a

>  <alias>  (1884) 
None

>  <HIPPO Pose ID>  (1884) 
499528

>  <name>  (1884) 
P499528

>  <HIPPO Compound ID>  (1884) 
306313

>  <ref_mols>  (1884) 
A3408a,A5594a

>  <distance_score>  (1884) 
1.276092

>  <inspiration_score>  (1884) 
None

$$$$
P499529
     RDKit          3D

 19 20  0  0  0  0  0  0  0  0999 V2000
   12.0150   13.2930   24.1293 C   0  0  0  0  0  0  0  0  0  0  0  0
   10.8554   14.0895   24.6889 C   0  0  1  0  0  0  0  0  0  0  0  0
   10.6104   15.4108   23.9681 C   0  0  0  0  0  0  0  0  0  0  0  0
   10.5087   15.3141   22.5027 C   0  0  0  0  0  0  0  0  0  0  0  0
   11.5243   15.3334   21.5749 C   0  0  0  0  0  0  0  0  0  0  0  0
   10.9639   15.2924   20.3404 O   0  0  0  0  0  0  0  0  0  0  0  0
    9.6332   15.2701   20.5936 C   0  0  0  0  0  0  0  0  0  0  0  0
    9.2928   15.2553   21.8651 N   0  0  0  0  0  0  0  0  0  0  0  0
    9.6226   13.3551   24.8620 N   0  0  0  0  0  0  0  0  0  0  0  0
    9.0717   12.1235   24.1046 C   0  0  0  0  0  0  0  0  0  0  0  0
    9.5608   11.4654   23.2772 O   0  0  0  0  0  0  0  0  0  0  0  0
    7.6995   11.8331   24.6325 C   0  0  0  0  0  0  0  0  0  0  0  0
    7.4091   10.5710   25.1471 C   0  0  0  0  0  0  0  0  0  0  0  0
    6.2341   10.3818   25.8766 C   0  0  0  0  0  0  0  0  0  0  0  0
    5.3658   11.4453   26.1052 C   0  0  0  0  0  0  0  0  0  0  0  0
    5.6079   12.6767   25.5036 C   0  0  0  0  0  0  0  0  0  0  0  0
    6.7411   12.8581   24.7005 C   0  0  0  0  0  0  0  0  0  0  0  0
    6.8617   14.0855   23.8448 C   0  0  0  0  0  0  0  0  0  0  0  0
    7.2754   13.6847   22.5461 O   0  0  0  0  0  0  0  0  0  0  0  0
  2  1  1  6
  2  3  1  0
  3  4  1  0
  4  5  2  0
  5  6  1  0
  6  7  1  0
  7  8  2  0
  2  9  1  0
  9 10  1  0
 10 11  2  0
 10 12  1  0
 12 13  2  0
 13 14  1  0
 14 15  2  0
 15 16  1  0
 16 17  2  0
 17 18  1  0
 18 19  1  0
  8  4  1  0
 17 12  1  0
M  END
>  <energy_score>  (1885) 
-5.66668

>  <inchikey>  (1885) 
None

>  <smiles>  (1885) 
None

>  <ref_pdb>  (1885) 
A5594a

>  <alias>  (1885) 
None

>  <HIPPO Pose ID>  (1885) 
499529

>  <name>  (1885) 
P499529

>  <HIPPO Compound ID>  (1885) 
306314

>  <ref_mols>  (1885) 
A3408a,A5594a

>  <distance_score>  (1885) 
1.40955

>  <inspiration_score>  (1885) 
None

$$$$
P499530
     RDKit          3D

 19 20  0  0  0  0  0  0  0  0999 V2000
   11.9085   15.0182   20.5691 C   0  0  0  0  0  0  0  0  0  0  0  0
   10.7392   15.3192   21.3924 C   0  0  0  0  0  0  0  0  0  0  0  0
    9.8747   16.2450   20.9029 O   0  0  0  0  0  0  0  0  0  0  0  0
    8.9192   16.3335   21.8586 C   0  0  0  0  0  0  0  0  0  0  0  0
    9.0804   15.5286   22.8919 N   0  0  0  0  0  0  0  0  0  0  0  0
   10.2472   14.8613   22.5911 C   0  0  0  0  0  0  0  0  0  0  0  0
   10.7853   13.7726   23.4366 C   0  0  0  0  0  0  0  0  0  0  0  0
   10.1541   12.4364   23.0620 C   0  0  0  0  0  0  0  0  0  0  0  0
    8.8638   12.2684   23.6499 N   0  0  0  0  0  0  0  0  0  0  0  0
    8.2771   11.1021   24.4329 C   0  0  0  0  0  0  0  0  0  0  0  0
    8.7176   10.0542   24.6642 O   0  0  0  0  0  0  0  0  0  0  0  0
    6.9547   11.4074   25.0907 C   0  0  0  0  0  0  0  0  0  0  0  0
    6.2414   10.2711   25.5210 C   0  0  0  0  0  0  0  0  0  0  0  0
    5.1140   10.3739   26.3286 C   0  0  0  0  0  0  0  0  0  0  0  0
    4.6718   11.6252   26.7239 C   0  0  0  0  0  0  0  0  0  0  0  0
    5.3558   12.7655   26.3094 C   0  0  0  0  0  0  0  0  0  0  0  0
    6.5123   12.6832   25.5081 C   0  0  0  0  0  0  0  0  0  0  0  0
    7.1924   13.9825   25.1880 C   0  0  0  0  0  0  0  0  0  0  0  0
    7.1097   14.1630   23.7834 O   0  0  0  0  0  0  0  0  0  0  0  0
  1  2  1  0
  2  3  1  0
  3  4  1  0
  4  5  2  0
  5  6  1  0
  6  7  1  0
  7  8  1  0
  8  9  1  0
  9 10  1  0
 10 11  2  0
 10 12  1  0
 12 13  2  0
 13 14  1  0
 14 15  2  0
 15 16  1  0
 16 17  2  0
 17 18  1  0
 18 19  1  0
  6  2  2  0
 17 12  1  0
M  END
>  <energy_score>  (1886) 
-10.443946

>  <inchikey>  (1886) 
None

>  <smiles>  (1886) 
None

>  <ref_pdb>  (1886) 
A5594a

>  <alias>  (1886) 
None

>  <HIPPO Pose ID>  (1886) 
499530

>  <name>  (1886) 
P499530

>  <HIPPO Compound ID>  (1886) 
306315

>  <ref_mols>  (1886) 
A3408a,A5594a

>  <distance_score>  (1886) 
1.546397

>  <inspiration_score>  (1886) 
None

$$$$
P499531
     RDKit          3D

 20 21  0  0  0  0  0  0  0  0999 V2000
    6.9123   14.2956   23.8855 C   0  0  0  0  0  0  0  0  0  0  0  0
    6.5297   13.2083   24.8405 C   0  0  0  0  0  0  0  0  0  0  0  0
    5.3865   13.3889   25.6294 C   0  0  0  0  0  0  0  0  0  0  0  0
    4.9122   12.3596   26.4342 C   0  0  0  0  0  0  0  0  0  0  0  0
    5.5624   11.1307   26.4379 C   0  0  0  0  0  0  0  0  0  0  0  0
    4.9504    9.9129   27.4835 Cl  0  0  0  0  0  0  0  0  0  0  0  0
    6.7118   10.9413   25.6712 C   0  0  0  0  0  0  0  0  0  0  0  0
    7.3453    9.7628   25.7103 F   0  0  0  0  0  0  0  0  0  0  0  0
    7.2378   11.9981   24.9242 C   0  0  0  0  0  0  0  0  0  0  0  0
    8.5563   11.8153   24.2532 C   0  0  0  0  0  0  0  0  0  0  0  0
    8.7268   10.8714   23.5936 O   0  0  0  0  0  0  0  0  0  0  0  0
    9.5075   12.9838   24.5931 N   0  0  0  0  0  0  0  0  0  0  0  0
   10.8423   13.2817   24.1116 C   0  0  2  0  0  0  0  0  0  0  0  0
   11.3680   14.5836   24.7140 C   0  0  0  0  0  0  0  0  0  0  0  0
   10.9368   13.2481   22.5878 C   0  0  0  0  0  0  0  0  0  0  0  0
   10.4515   14.4623   21.9087 C   0  0  0  0  0  0  0  0  0  0  0  0
   11.0980   15.1796   20.9322 C   0  0  0  0  0  0  0  0  0  0  0  0
   10.2976   16.2161   20.5772 O   0  0  0  0  0  0  0  0  0  0  0  0
    9.2143   16.0816   21.3855 C   0  0  0  0  0  0  0  0  0  0  0  0
    9.2453   15.0493   22.1960 N   0  0  0  0  0  0  0  0  0  0  0  0
  1  2  1  0
  2  3  2  0
  3  4  1  0
  4  5  2  0
  5  6  1  0
  5  7  1  0
  7  8  1  0
  7  9  2  0
  9 10  1  0
 10 11  2  0
 10 12  1  0
 12 13  1  0
 13 14  1  6
 13 15  1  0
 15 16  1  0
 16 17  2  0
 17 18  1  0
 18 19  1  0
 19 20  2  0
  9  2  1  0
 20 16  1  0
M  END
>  <energy_score>  (1887) 
-7.491363

>  <inchikey>  (1887) 
None

>  <smiles>  (1887) 
None

>  <ref_pdb>  (1887) 
A5594a

>  <alias>  (1887) 
None

>  <HIPPO Pose ID>  (1887) 
499531

>  <name>  (1887) 
P499531

>  <HIPPO Compound ID>  (1887) 
306317

>  <ref_mols>  (1887) 
A3408a,A5594a

>  <distance_score>  (1887) 
1.380636

>  <inspiration_score>  (1887) 
None

$$$$
P499532
     RDKit          3D

 20 21  0  0  0  0  0  0  0  0999 V2000
   10.2209   15.7491   19.7079 C   0  0  0  0  0  0  0  0  0  0  0  0
   10.3377   15.2824   21.0927 C   0  0  0  0  0  0  0  0  0  0  0  0
   10.1171   14.0788   21.5703 N   0  0  0  0  0  0  0  0  0  0  0  0
   10.6662   14.1280   22.8227 C   0  0  0  0  0  0  0  0  0  0  0  0
   10.9186   12.9008   23.5966 C   0  0  0  0  0  0  0  0  0  0  0  0
   10.0033   11.7501   23.1873 C   0  0  0  0  0  0  0  0  0  0  0  0
    8.6732   11.9051   23.6870 N   0  0  0  0  0  0  0  0  0  0  0  0
    8.1170   12.8483   24.7462 C   0  0  0  0  0  0  0  0  0  0  0  0
    8.6311   13.7085   25.3339 O   0  0  0  0  0  0  0  0  0  0  0  0
    6.7329   12.5258   25.1278 C   0  0  0  0  0  0  0  0  0  0  0  0
    6.3139   11.2491   25.5521 C   0  0  0  0  0  0  0  0  0  0  0  0
    7.1107   10.0112   25.3329 C   0  0  0  0  0  0  0  0  0  0  0  0
    5.0957   11.1388   26.2341 C   0  0  0  0  0  0  0  0  0  0  0  0
    4.3265   12.2747   26.4843 C   0  0  0  0  0  0  0  0  0  0  0  0
    4.7339   13.5186   26.0035 C   0  0  0  0  0  0  0  0  0  0  0  0
    3.7409   14.8950   26.2931 Cl  0  0  0  0  0  0  0  0  0  0  0  0
    5.9350   13.6395   25.3255 C   0  0  0  0  0  0  0  0  0  0  0  0
    6.3728   14.8298   24.8909 F   0  0  0  0  0  0  0  0  0  0  0  0
   11.0348   15.4129   23.1161 C   0  0  0  0  0  0  0  0  0  0  0  0
   10.8634   16.1611   21.9969 O   0  0  0  0  0  0  0  0  0  0  0  0
  1  2  1  0
  2  3  2  0
  3  4  1  0
  4  5  1  0
  5  6  1  0
  6  7  1  0
  7  8  1  0
  8  9  2  0
  8 10  1  0
 10 11  2  0
 11 12  1  0
 11 13  1  0
 13 14  2  0
 14 15  1  0
 15 16  1  0
 15 17  2  0
 17 18  1  0
  4 19  2  0
 19 20  1  0
 20  2  1  0
 17 10  1  0
M  END
>  <energy_score>  (1888) 
-4.277791

>  <inchikey>  (1888) 
None

>  <smiles>  (1888) 
None

>  <ref_pdb>  (1888) 
A5594a

>  <alias>  (1888) 
None

>  <HIPPO Pose ID>  (1888) 
499532

>  <name>  (1888) 
P499532

>  <HIPPO Compound ID>  (1888) 
306321

>  <ref_mols>  (1888) 
A3408a,A5594a

>  <distance_score>  (1888) 
1.668663

>  <inspiration_score>  (1888) 
None

$$$$
P499533
     RDKit          3D

 20 21  0  0  0  0  0  0  0  0999 V2000
    6.9723   14.5583   25.1177 C   0  0  0  0  0  0  0  0  0  0  0  0
    6.6859   13.1147   25.3895 C   0  0  0  0  0  0  0  0  0  0  0  0
    5.7003   12.7447   26.3072 C   0  0  0  0  0  0  0  0  0  0  0  0
    5.4387   11.3974   26.5392 C   0  0  0  0  0  0  0  0  0  0  0  0
    4.0996   10.9053   27.7802 Br  0  0  0  0  0  0  0  0  0  0  0  0
    6.1728   10.4064   25.8872 C   0  0  0  0  0  0  0  0  0  0  0  0
    7.1890   10.7499   24.9875 C   0  0  0  0  0  0  0  0  0  0  0  0
    8.0403    9.6997   24.3380 C   0  0  0  0  0  0  0  0  0  0  0  0
    7.3943   12.1110   24.7175 C   0  0  0  0  0  0  0  0  0  0  0  0
    8.3685   12.5252   23.6897 C   0  0  0  0  0  0  0  0  0  0  0  0
    8.0234   12.6733   22.5912 O   0  0  0  0  0  0  0  0  0  0  0  0
    9.7575   12.6476   24.3183 N   0  0  0  0  0  0  0  0  0  0  0  0
   11.0093   13.0724   23.7467 C   0  0  0  0  0  0  0  0  0  0  0  0
   11.1784   14.5849   23.7945 C   0  0  0  0  0  0  0  0  0  0  0  0
   10.3302   15.2079   22.7649 C   0  0  0  0  0  0  0  0  0  0  0  0
    9.0514   15.6190   23.0312 N   0  0  0  0  0  0  0  0  0  0  0  0
    8.5932   15.9530   21.8451 C   0  0  0  0  0  0  0  0  0  0  0  0
    9.4782   15.8293   20.8221 O   0  0  0  0  0  0  0  0  0  0  0  0
   10.6033   15.3619   21.4273 C   0  0  0  0  0  0  0  0  0  0  0  0
   11.7642   15.0922   20.5774 C   0  0  0  0  0  0  0  0  0  0  0  0
  1  2  1  0
  2  3  2  0
  3  4  1  0
  4  5  1  0
  4  6  2  0
  6  7  1  0
  7  8  1  0
  7  9  2  0
  9 10  1  0
 10 11  2  0
 10 12  1  0
 12 13  1  0
 13 14  1  0
 14 15  1  0
 15 16  1  0
 16 17  2  0
 17 18  1  0
 18 19  1  0
 19 20  1  0
  9  2  1  0
 19 15  2  0
M  END
>  <energy_score>  (1889) 
-16.026865

>  <inchikey>  (1889) 
None

>  <smiles>  (1889) 
None

>  <ref_pdb>  (1889) 
A5594a

>  <alias>  (1889) 
None

>  <HIPPO Pose ID>  (1889) 
499533

>  <name>  (1889) 
P499533

>  <HIPPO Compound ID>  (1889) 
306325

>  <ref_mols>  (1889) 
A3408a,A5594a

>  <distance_score>  (1889) 
1.849152

>  <inspiration_score>  (1889) 
None

$$$$
P499534
     RDKit          3D

 20 21  0  0  0  0  0  0  0  0999 V2000
    6.2124    9.8281   25.8051 C   0  0  0  0  0  0  0  0  0  0  0  0
    6.0418   11.3047   25.8700 C   0  0  0  0  0  0  0  0  0  0  0  0
    4.9133   11.7635   26.5583 C   0  0  0  0  0  0  0  0  0  0  0  0
    4.0629   10.8914   27.1199 F   0  0  0  0  0  0  0  0  0  0  0  0
    4.6389   13.1126   26.6939 C   0  0  0  0  0  0  0  0  0  0  0  0
    5.4903   14.0398   26.1151 C   0  0  0  0  0  0  0  0  0  0  0  0
    6.5991   13.6092   25.3948 C   0  0  0  0  0  0  0  0  0  0  0  0
    7.3629   14.6158   24.8738 O   0  0  0  0  0  0  0  0  0  0  0  0
    6.9024   12.2462   25.2737 C   0  0  0  0  0  0  0  0  0  0  0  0
    8.1086   11.8159   24.5014 C   0  0  0  0  0  0  0  0  0  0  0  0
    8.0586   10.8201   23.9036 O   0  0  0  0  0  0  0  0  0  0  0  0
    9.2165   12.8800   24.5742 N   0  0  0  0  0  0  0  0  0  0  0  0
   10.4593   12.9891   23.8512 C   0  0  1  0  0  0  0  0  0  0  0  0
   10.1916   12.5646   22.4173 C   0  0  0  0  0  0  0  0  0  0  0  0
   11.0590   14.4011   23.9392 C   0  0  0  0  0  0  0  0  0  0  0  0
   10.4573   15.2859   22.9191 C   0  0  0  0  0  0  0  0  0  0  0  0
   11.0475   15.7822   21.7808 C   0  0  0  0  0  0  0  0  0  0  0  0
   10.0703   16.3431   21.0202 O   0  0  0  0  0  0  0  0  0  0  0  0
    8.9439   16.1878   21.7652 C   0  0  0  0  0  0  0  0  0  0  0  0
    9.1017   15.5318   22.8946 N   0  0  0  0  0  0  0  0  0  0  0  0
  1  2  1  0
  2  3  2  0
  3  4  1  0
  3  5  1  0
  5  6  2  0
  6  7  1  0
  7  8  1  0
  7  9  2  0
  9 10  1  0
 10 11  2  0
 10 12  1  0
 12 13  1  0
 13 14  1  6
 13 15  1  0
 15 16  1  0
 16 17  2  0
 17 18  1  0
 18 19  1  0
 19 20  2  0
  9  2  1  0
 20 16  1  0
M  END
>  <energy_score>  (1890) 
-26.427008

>  <inchikey>  (1890) 
None

>  <smiles>  (1890) 
None

>  <ref_pdb>  (1890) 
A5594a

>  <alias>  (1890) 
None

>  <HIPPO Pose ID>  (1890) 
499534

>  <name>  (1890) 
P499534

>  <HIPPO Compound ID>  (1890) 
306327

>  <ref_mols>  (1890) 
A3408a,A5594a

>  <distance_score>  (1890) 
1.777272

>  <inspiration_score>  (1890) 
None

$$$$
P499535
     RDKit          3D

 20 21  0  0  0  0  0  0  0  0999 V2000
   11.7281   15.1168   20.3838 C   0  0  0  0  0  0  0  0  0  0  0  0
   10.5196   15.1467   21.2108 C   0  0  0  0  0  0  0  0  0  0  0  0
    9.3180   15.1087   20.5724 O   0  0  0  0  0  0  0  0  0  0  0  0
    8.4113   15.1387   21.5801 C   0  0  0  0  0  0  0  0  0  0  0  0
    8.9171   15.1651   22.7943 N   0  0  0  0  0  0  0  0  0  0  0  0
   10.2784   15.1937   22.5603 C   0  0  0  0  0  0  0  0  0  0  0  0
   11.2698   15.1833   23.6579 C   0  0  0  0  0  0  0  0  0  0  0  0
   11.4915   13.7714   24.1793 C   0  0  0  0  0  0  0  0  0  0  0  0
   10.2332   13.1983   24.5739 N   0  0  0  0  0  0  0  0  0  0  0  0
    9.3453   12.1625   23.8711 C   0  0  0  0  0  0  0  0  0  0  0  0
    9.5259   11.5509   22.9001 O   0  0  0  0  0  0  0  0  0  0  0  0
    8.0604   11.9636   24.6074 C   0  0  0  0  0  0  0  0  0  0  0  0
    7.3665   13.0540   25.1514 C   0  0  0  0  0  0  0  0  0  0  0  0
    7.8156   14.3399   25.0636 O   0  0  0  0  0  0  0  0  0  0  0  0
    6.1866   12.8782   25.8705 C   0  0  0  0  0  0  0  0  0  0  0  0
    5.6598   11.6036   26.0158 C   0  0  0  0  0  0  0  0  0  0  0  0
    6.3273   10.5239   25.4488 C   0  0  0  0  0  0  0  0  0  0  0  0
    5.7607    9.3174   25.5360 F   0  0  0  0  0  0  0  0  0  0  0  0
    7.5411   10.6679   24.7670 C   0  0  0  0  0  0  0  0  0  0  0  0
    8.2324    9.4604   24.2053 C   0  0  0  0  0  0  0  0  0  0  0  0
  1  2  1  0
  2  3  1  0
  3  4  1  0
  4  5  2  0
  5  6  1  0
  6  7  1  0
  7  8  1  0
  8  9  1  0
  9 10  1  0
 10 11  2  0
 10 12  1  0
 12 13  2  0
 13 14  1  0
 13 15  1  0
 15 16  2  0
 16 17  1  0
 17 18  1  0
 17 19  2  0
 19 20  1  0
  6  2  2  0
 19 12  1  0
M  END
>  <energy_score>  (1891) 
-33.101573

>  <inchikey>  (1891) 
None

>  <smiles>  (1891) 
None

>  <ref_pdb>  (1891) 
A5594a

>  <alias>  (1891) 
None

>  <HIPPO Pose ID>  (1891) 
499535

>  <name>  (1891) 
P499535

>  <HIPPO Compound ID>  (1891) 
306329

>  <ref_mols>  (1891) 
A3408a,A5594a

>  <distance_score>  (1891) 
1.721615

>  <inspiration_score>  (1891) 
None

$$$$
P499536
     RDKit          3D

 20 21  0  0  0  0  0  0  0  0999 V2000
   10.0399   15.5050   19.9311 C   0  0  0  0  0  0  0  0  0  0  0  0
   10.4367   15.0010   21.2469 C   0  0  0  0  0  0  0  0  0  0  0  0
    9.9340   14.0045   21.9475 N   0  0  0  0  0  0  0  0  0  0  0  0
   10.8147   13.8795   22.9919 C   0  0  0  0  0  0  0  0  0  0  0  0
   10.7619   12.7715   23.9678 C   0  0  0  0  0  0  0  0  0  0  0  0
    9.6822   11.7257   23.6869 C   0  0  0  0  0  0  0  0  0  0  0  0
    8.5193   12.0772   24.4507 N   0  0  0  0  0  0  0  0  0  0  0  0
    7.2866   11.2466   24.8288 C   0  0  0  0  0  0  0  0  0  0  0  0
    7.0512   10.1236   24.6481 O   0  0  0  0  0  0  0  0  0  0  0  0
    6.2213   12.1118   25.4393 C   0  0  0  0  0  0  0  0  0  0  0  0
    5.3546   11.6466   26.4366 C   0  0  0  0  0  0  0  0  0  0  0  0
    5.3718    9.9609   27.2538 Br  0  0  0  0  0  0  0  0  0  0  0  0
    4.3400   12.4656   26.9462 C   0  0  0  0  0  0  0  0  0  0  0  0
    4.1532   13.7498   26.4659 C   0  0  0  0  0  0  0  0  0  0  0  0
    4.9652   14.2186   25.4500 C   0  0  0  0  0  0  0  0  0  0  0  0
    5.9700   13.4000   24.9314 C   0  0  0  0  0  0  0  0  0  0  0  0
    6.6976   13.9938   23.8104 C   0  0  0  0  0  0  0  0  0  0  0  0
    7.7497   14.5703   24.0570 O   0  0  0  0  0  0  0  0  0  0  0  0
   11.7597   14.8721   22.9205 C   0  0  0  0  0  0  0  0  0  0  0  0
   11.5305   15.5983   21.8028 O   0  0  0  0  0  0  0  0  0  0  0  0
  1  2  1  0
  2  3  2  0
  3  4  1  0
  4  5  1  0
  5  6  1  0
  6  7  1  0
  7  8  1  0
  8  9  2  0
  8 10  1  0
 10 11  2  0
 11 12  1  0
 11 13  1  0
 13 14  2  0
 14 15  1  0
 15 16  2  0
 16 17  1  0
 17 18  2  0
  4 19  2  0
 19 20  1  0
 20  2  1  0
 16 10  1  0
M  END
>  <energy_score>  (1892) 
-9.247407

>  <inchikey>  (1892) 
None

>  <smiles>  (1892) 
None

>  <ref_pdb>  (1892) 
A5594a

>  <alias>  (1892) 
None

>  <HIPPO Pose ID>  (1892) 
499536

>  <name>  (1892) 
P499536

>  <HIPPO Compound ID>  (1892) 
306330

>  <ref_mols>  (1892) 
A3408a,A5594a

>  <distance_score>  (1892) 
1.794207

>  <inspiration_score>  (1892) 
None

$$$$
P499537
     RDKit          3D

 20 21  0  0  0  0  0  0  0  0999 V2000
   11.7609   15.0876   20.4792 C   0  0  0  0  0  0  0  0  0  0  0  0
   10.6441   15.3524   21.3867 C   0  0  0  0  0  0  0  0  0  0  0  0
    9.4500   15.6962   20.8307 O   0  0  0  0  0  0  0  0  0  0  0  0
    8.6348   15.8650   21.9048 C   0  0  0  0  0  0  0  0  0  0  0  0
    9.1993   15.6550   23.0751 N   0  0  0  0  0  0  0  0  0  0  0  0
   10.4795   15.3024   22.7491 C   0  0  0  0  0  0  0  0  0  0  0  0
   11.4369   14.8373   23.7678 C   0  0  0  0  0  0  0  0  0  0  0  0
   11.4241   13.3172   23.8422 C   0  0  0  0  0  0  0  0  0  0  0  0
   10.1854   12.7934   24.3658 N   0  0  0  0  0  0  0  0  0  0  0  0
    8.8494   12.5252   23.6738 C   0  0  0  0  0  0  0  0  0  0  0  0
    8.5513   12.6096   22.5574 O   0  0  0  0  0  0  0  0  0  0  0  0
    7.8226   12.0710   24.6142 C   0  0  0  0  0  0  0  0  0  0  0  0
    7.5311   10.7220   24.7865 C   0  0  0  0  0  0  0  0  0  0  0  0
    8.5542    9.3973   23.9014 Br  0  0  0  0  0  0  0  0  0  0  0  0
    6.4438   10.3511   25.5845 C   0  0  0  0  0  0  0  0  0  0  0  0
    5.6388   11.3243   26.1849 C   0  0  0  0  0  0  0  0  0  0  0  0
    5.9100   12.6737   25.9751 C   0  0  0  0  0  0  0  0  0  0  0  0
    7.0054   13.0313   25.1894 C   0  0  0  0  0  0  0  0  0  0  0  0
    7.2740   14.4317   24.8951 C   0  0  0  0  0  0  0  0  0  0  0  0
    6.4093   15.1099   24.3640 O   0  0  0  0  0  0  0  0  0  0  0  0
  1  2  1  0
  2  3  1  0
  3  4  1  0
  4  5  2  0
  5  6  1  0
  6  7  1  0
  7  8  1  0
  8  9  1  0
  9 10  1  0
 10 11  2  0
 10 12  1  0
 12 13  2  0
 13 14  1  0
 13 15  1  0
 15 16  2  0
 16 17  1  0
 17 18  2  0
 18 19  1  0
 19 20  2  0
  6  2  2  0
 18 12  1  0
M  END
>  <energy_score>  (1893) 
-12.215554

>  <inchikey>  (1893) 
None

>  <smiles>  (1893) 
None

>  <ref_pdb>  (1893) 
A5594a

>  <alias>  (1893) 
None

>  <HIPPO Pose ID>  (1893) 
499537

>  <name>  (1893) 
P499537

>  <HIPPO Compound ID>  (1893) 
306331

>  <ref_mols>  (1893) 
A3408a,A5594a

>  <distance_score>  (1893) 
1.892124

>  <inspiration_score>  (1893) 
None

$$$$
P499538
     RDKit          3D

 20 21  0  0  0  0  0  0  0  0999 V2000
    8.2815    9.3258   24.2524 C   0  0  0  0  0  0  0  0  0  0  0  0
    7.5366   10.5029   24.8088 C   0  0  0  0  0  0  0  0  0  0  0  0
    6.3996   10.3275   25.6191 C   0  0  0  0  0  0  0  0  0  0  0  0
    5.6327   11.4162   26.0416 C   0  0  0  0  0  0  0  0  0  0  0  0
    5.9245   12.6862   25.5612 C   0  0  0  0  0  0  0  0  0  0  0  0
    7.0244   12.8472   24.7176 C   0  0  0  0  0  0  0  0  0  0  0  0
    7.1094   14.0565   23.9128 C   0  0  0  0  0  0  0  0  0  0  0  0
    7.2394   13.9343   22.7007 O   0  0  0  0  0  0  0  0  0  0  0  0
    7.8979   11.8004   24.4324 C   0  0  0  0  0  0  0  0  0  0  0  0
    9.2472   12.0733   23.8368 C   0  0  0  0  0  0  0  0  0  0  0  0
    9.6226   11.4324   22.9419 O   0  0  0  0  0  0  0  0  0  0  0  0
    9.9638   13.1708   24.6502 N   0  0  0  0  0  0  0  0  0  0  0  0
   11.2592   13.7734   24.4695 C   0  0  0  0  0  0  0  0  0  0  0  0
   11.6038   14.1372   23.0475 C   0  0  0  0  0  0  0  0  0  0  0  0
   10.6165   14.9809   22.3565 C   0  0  0  0  0  0  0  0  0  0  0  0
    9.5776   15.6362   22.9732 N   0  0  0  0  0  0  0  0  0  0  0  0
    8.9482   16.1995   21.9602 C   0  0  0  0  0  0  0  0  0  0  0  0
    9.5143   16.0148   20.7427 O   0  0  0  0  0  0  0  0  0  0  0  0
   10.5942   15.2406   21.0099 C   0  0  0  0  0  0  0  0  0  0  0  0
   11.4421   14.8760   19.8778 C   0  0  0  0  0  0  0  0  0  0  0  0
  1  2  1  0
  2  3  2  0
  3  4  1  0
  4  5  2  0
  5  6  1  0
  6  7  1  0
  7  8  2  0
  6  9  2  0
  9 10  1  0
 10 11  2  0
 10 12  1  0
 12 13  1  0
 13 14  1  0
 14 15  1  0
 15 16  1  0
 16 17  2  0
 17 18  1  0
 18 19  1  0
 19 20  1  0
  9  2  1  0
 19 15  2  0
M  END
>  <energy_score>  (1894) 
-10.052486

>  <inchikey>  (1894) 
None

>  <smiles>  (1894) 
None

>  <ref_pdb>  (1894) 
A5594a

>  <alias>  (1894) 
None

>  <HIPPO Pose ID>  (1894) 
499538

>  <name>  (1894) 
P499538

>  <HIPPO Compound ID>  (1894) 
306333

>  <ref_mols>  (1894) 
A3408a,A5594a

>  <distance_score>  (1894) 
1.537289

>  <inspiration_score>  (1894) 
None

$$$$
P499539
     RDKit          3D

 20 21  0  0  0  0  0  0  0  0999 V2000
    6.6787   14.2091   23.2608 C   0  0  0  0  0  0  0  0  0  0  0  0
    6.9678   14.0843   24.7469 C   0  0  0  0  0  0  0  0  0  0  0  0
    6.6542   12.7263   25.3365 C   0  0  0  0  0  0  0  0  0  0  0  0
    5.6109   12.7375   26.2952 C   0  0  0  0  0  0  0  0  0  0  0  0
    5.0813   11.5682   26.8434 C   0  0  0  0  0  0  0  0  0  0  0  0
    3.9636   11.6199   27.8408 C   0  0  0  0  0  0  0  0  0  0  0  0
    5.6238   10.3518   26.4602 C   0  0  0  0  0  0  0  0  0  0  0  0
    6.6830   10.3129   25.5545 C   0  0  0  0  0  0  0  0  0  0  0  0
    7.2338   11.4812   24.9879 C   0  0  0  0  0  0  0  0  0  0  0  0
    8.3107   11.1996   23.9497 C   0  0  0  0  0  0  0  0  0  0  0  0
    8.3078   10.1445   23.4675 O   0  0  0  0  0  0  0  0  0  0  0  0
    9.1673   12.4203   23.6471 N   0  0  0  0  0  0  0  0  0  0  0  0
   10.1504   12.6441   22.6156 C   0  0  1  0  0  0  0  0  0  0  0  0
    9.6732   13.7839   21.6795 C   0  0  0  0  0  0  0  0  0  0  0  0
   11.4916   12.9844   23.2609 C   0  0  0  0  0  0  0  0  0  0  0  0
   11.3846   14.3078   23.8520 C   0  0  0  0  0  0  0  0  0  0  0  0
   11.7321   15.4825   23.2487 C   0  0  0  0  0  0  0  0  0  0  0  0
   11.0555   16.4455   23.9018 O   0  0  0  0  0  0  0  0  0  0  0  0
   10.4161   15.8072   24.9114 C   0  0  0  0  0  0  0  0  0  0  0  0
   10.5721   14.5129   24.9355 N   0  0  0  0  0  0  0  0  0  0  0  0
  1  2  1  0
  2  3  1  0
  3  4  2  0
  4  5  1  0
  5  6  1  0
  5  7  2  0
  7  8  1  0
  8  9  2  0
  9 10  1  0
 10 11  2  0
 10 12  1  0
 12 13  1  0
 13 14  1  6
 13 15  1  0
 15 16  1  0
 16 17  2  0
 17 18  1  0
 18 19  1  0
 19 20  2  0
  9  3  1  0
 20 16  1  0
M  END
>  <energy_score>  (1895) 
-1.553403

>  <inchikey>  (1895) 
None

>  <smiles>  (1895) 
None

>  <ref_pdb>  (1895) 
A5594a

>  <alias>  (1895) 
None

>  <HIPPO Pose ID>  (1895) 
499539

>  <name>  (1895) 
P499539

>  <HIPPO Compound ID>  (1895) 
306336

>  <ref_mols>  (1895) 
A3408a,A5594a

>  <distance_score>  (1895) 
1.970323

>  <inspiration_score>  (1895) 
None

$$$$
P499540
     RDKit          3D

 20 21  0  0  0  0  0  0  0  0999 V2000
    7.0090   14.6145   23.8008 C   0  0  0  0  0  0  0  0  0  0  0  0
    7.3431   13.9649   25.1409 C   0  0  0  0  0  0  0  0  0  0  0  0
    6.4126   12.8258   25.5091 C   0  0  0  0  0  0  0  0  0  0  0  0
    5.2630   13.2022   26.2349 C   0  0  0  0  0  0  0  0  0  0  0  0
    4.3717   12.2614   26.7658 C   0  0  0  0  0  0  0  0  0  0  0  0
    3.1987   12.7052   27.5886 C   0  0  0  0  0  0  0  0  0  0  0  0
    4.6179   10.9078   26.5683 C   0  0  0  0  0  0  0  0  0  0  0  0
    5.7075   10.5107   25.8071 C   0  0  0  0  0  0  0  0  0  0  0  0
    6.6122   11.4459   25.2658 C   0  0  0  0  0  0  0  0  0  0  0  0
    7.8609   10.8189   24.7293 C   0  0  0  0  0  0  0  0  0  0  0  0
    8.1129    9.7644   25.1370 O   0  0  0  0  0  0  0  0  0  0  0  0
    8.6449   11.7288   23.8036 N   0  0  0  0  0  0  0  0  0  0  0  0
    9.9499   11.5860   23.2513 C   0  0  0  0  0  0  0  0  0  0  0  0
   10.8152   12.7175   23.8255 C   0  0  0  0  0  0  0  0  0  0  0  0
   10.8049   13.9284   22.9818 C   0  0  0  0  0  0  0  0  0  0  0  0
   11.7668   14.9033   22.9054 C   0  0  0  0  0  0  0  0  0  0  0  0
   11.4867   15.6853   21.8367 O   0  0  0  0  0  0  0  0  0  0  0  0
   10.3486   15.1349   21.3230 C   0  0  0  0  0  0  0  0  0  0  0  0
    9.9360   15.6388   20.0134 C   0  0  0  0  0  0  0  0  0  0  0  0
    9.8354   14.1551   22.0390 N   0  0  0  0  0  0  0  0  0  0  0  0
  1  2  1  0
  2  3  1  0
  3  4  2  0
  4  5  1  0
  5  6  1  0
  5  7  2  0
  7  8  1  0
  8  9  2  0
  9 10  1  0
 10 11  2  0
 10 12  1  0
 12 13  1  0
 13 14  1  0
 14 15  1  0
 15 16  2  0
 16 17  1  0
 17 18  1  0
 18 19  1  0
 18 20  2  0
  9  3  1  0
 20 15  1  0
M  END
>  <energy_score>  (1896) 
-2.297996

>  <inchikey>  (1896) 
None

>  <smiles>  (1896) 
None

>  <ref_pdb>  (1896) 
A5594a

>  <alias>  (1896) 
None

>  <HIPPO Pose ID>  (1896) 
499540

>  <name>  (1896) 
P499540

>  <HIPPO Compound ID>  (1896) 
306337

>  <ref_mols>  (1896) 
A3408a,A5594a

>  <distance_score>  (1896) 
1.56614

>  <inspiration_score>  (1896) 
None

$$$$
P499541
     RDKit          3D

 20 22  0  0  0  0  0  0  0  0999 V2000
   11.1796   14.6971   24.8738 C   0  0  0  0  0  0  0  0  0  0  0  0
   10.7868   13.3889   24.1927 C   0  0  2  0  0  0  0  0  0  0  0  0
   11.0997   13.3560   22.6980 C   0  0  0  0  0  0  0  0  0  0  0  0
   10.7044   14.5370   21.9115 C   0  0  0  0  0  0  0  0  0  0  0  0
   11.3087   15.0184   20.7760 C   0  0  0  0  0  0  0  0  0  0  0  0
   10.5916   16.0841   20.3357 O   0  0  0  0  0  0  0  0  0  0  0  0
    9.6054   16.2123   21.2593 C   0  0  0  0  0  0  0  0  0  0  0  0
    9.6267   15.3199   22.2204 N   0  0  0  0  0  0  0  0  0  0  0  0
    9.4230   13.0178   24.5101 N   0  0  0  0  0  0  0  0  0  0  0  0
    8.5764   11.8246   24.0364 C   0  0  0  0  0  0  0  0  0  0  0  0
    8.8136   10.9934   23.2574 O   0  0  0  0  0  0  0  0  0  0  0  0
    7.2887   11.7788   24.7840 C   0  0  0  0  0  0  0  0  0  0  0  0
    7.0172   10.5585   25.4262 C   0  0  0  0  0  0  0  0  0  0  0  0
    5.9414   10.4421   26.3007 C   0  0  0  0  0  0  0  0  0  0  0  0
    5.1622   11.5512   26.5762 C   0  0  0  0  0  0  0  0  0  0  0  0
    5.3881   12.7357   25.8792 C   0  0  0  0  0  0  0  0  0  0  0  0
    6.3964   12.8622   24.8950 C   0  0  0  0  0  0  0  0  0  0  0  0
    6.2106   14.0197   23.9339 C   0  0  0  0  0  0  0  0  0  0  0  0
    7.1376   15.1733   23.7602 C   0  0  0  0  0  0  0  0  0  0  0  0
    6.9507   14.1795   22.6398 C   0  0  0  0  0  0  0  0  0  0  0  0
  2  1  1  6
  2  3  1  0
  3  4  1  0
  4  5  2  0
  5  6  1  0
  6  7  1  0
  7  8  2  0
  2  9  1  0
  9 10  1  0
 10 11  2  0
 10 12  1  0
 12 13  2  0
 13 14  1  0
 14 15  2  0
 15 16  1  0
 16 17  2  0
 17 18  1  0
 18 19  1  0
 19 20  1  0
  8  4  1  0
 17 12  1  0
 20 18  1  0
M  END
>  <energy_score>  (1897) 
-10.060115

>  <inchikey>  (1897) 
None

>  <smiles>  (1897) 
None

>  <ref_pdb>  (1897) 
A5594a

>  <alias>  (1897) 
None

>  <HIPPO Pose ID>  (1897) 
499541

>  <name>  (1897) 
P499541

>  <HIPPO Compound ID>  (1897) 
306339

>  <ref_mols>  (1897) 
A3408a,A5594a

>  <distance_score>  (1897) 
1.585095

>  <inspiration_score>  (1897) 
None

$$$$
P499542
     RDKit          3D

 20 22  0  0  0  0  0  0  0  0999 V2000
   10.0407   15.6186   19.9484 C   0  0  0  0  0  0  0  0  0  0  0  0
   10.4296   15.1102   21.2650 C   0  0  0  0  0  0  0  0  0  0  0  0
    9.9055   14.1257   21.9658 N   0  0  0  0  0  0  0  0  0  0  0  0
   10.8263   13.9269   22.9617 C   0  0  0  0  0  0  0  0  0  0  0  0
   10.7890   12.7440   23.8447 C   0  0  0  0  0  0  0  0  0  0  0  0
    9.9384   11.6021   23.2743 C   0  0  0  0  0  0  0  0  0  0  0  0
    8.6256   11.7367   23.8099 N   0  0  0  0  0  0  0  0  0  0  0  0
    7.8173   10.7997   24.6892 C   0  0  0  0  0  0  0  0  0  0  0  0
    8.0536    9.7279   25.0623 O   0  0  0  0  0  0  0  0  0  0  0  0
    6.5538   11.4153   25.2367 C   0  0  0  0  0  0  0  0  0  0  0  0
    5.7126   10.4662   25.8636 C   0  0  0  0  0  0  0  0  0  0  0  0
    4.6606   10.8460   26.6801 C   0  0  0  0  0  0  0  0  0  0  0  0
    4.4234   12.1915   26.8824 C   0  0  0  0  0  0  0  0  0  0  0  0
    5.2217   13.1444   26.2463 C   0  0  0  0  0  0  0  0  0  0  0  0
    6.2953   12.8065   25.3921 C   0  0  0  0  0  0  0  0  0  0  0  0
    7.0843   13.9564   24.7691 C   0  0  0  0  0  0  0  0  0  0  0  0
    6.4515   15.2753   24.3928 C   0  0  0  0  0  0  0  0  0  0  0  0
    6.7934   14.3137   23.3117 C   0  0  0  0  0  0  0  0  0  0  0  0
   11.7875   14.9036   22.9048 C   0  0  0  0  0  0  0  0  0  0  0  0
   11.5450   15.6712   21.8157 O   0  0  0  0  0  0  0  0  0  0  0  0
  1  2  1  0
  2  3  2  0
  3  4  1  0
  4  5  1  0
  5  6  1  0
  6  7  1  0
  7  8  1  0
  8  9  2  0
  8 10  1  0
 10 11  2  0
 11 12  1  0
 12 13  2  0
 13 14  1  0
 14 15  2  0
 15 16  1  0
 16 17  1  0
 17 18  1  0
  4 19  2  0
 19 20  1  0
 20  2  1  0
 15 10  1  0
 18 16  1  0
M  END
>  <energy_score>  (1898) 
-0.830611

>  <inchikey>  (1898) 
None

>  <smiles>  (1898) 
None

>  <ref_pdb>  (1898) 
A5594a

>  <alias>  (1898) 
None

>  <HIPPO Pose ID>  (1898) 
499542

>  <name>  (1898) 
P499542

>  <HIPPO Compound ID>  (1898) 
306340

>  <ref_mols>  (1898) 
A3408a,A5594a

>  <distance_score>  (1898) 
1.500603

>  <inspiration_score>  (1898) 
None

$$$$
P499543
     RDKit          3D

 20 22  0  0  0  0  0  0  0  0999 V2000
   12.2897   15.7050   21.7219 C   0  0  0  0  0  0  0  0  0  0  0  0
   10.9227   15.2090   21.8172 C   0  0  0  0  0  0  0  0  0  0  0  0
    9.9945   15.8916   21.0889 O   0  0  0  0  0  0  0  0  0  0  0  0
    8.8363   15.2584   21.3761 C   0  0  0  0  0  0  0  0  0  0  0  0
    8.9573   14.2215   22.1615 N   0  0  0  0  0  0  0  0  0  0  0  0
   10.2874   14.1791   22.4706 C   0  0  0  0  0  0  0  0  0  0  0  0
   10.8285   13.1335   23.3732 C   0  0  0  0  0  0  0  0  0  0  0  0
   10.0314   11.8297   23.3246 C   0  0  0  0  0  0  0  0  0  0  0  0
    8.8718   11.8230   24.1607 N   0  0  0  0  0  0  0  0  0  0  0  0
    7.4399   12.2381   23.8670 C   0  0  0  0  0  0  0  0  0  0  0  0
    6.9453   12.5821   22.8780 O   0  0  0  0  0  0  0  0  0  0  0  0
    6.6430   12.0773   25.0902 C   0  0  0  0  0  0  0  0  0  0  0  0
    6.3254   10.7499   25.4424 C   0  0  0  0  0  0  0  0  0  0  0  0
    5.5078   10.5030   26.5322 C   0  0  0  0  0  0  0  0  0  0  0  0
    5.0518   11.5738   27.2846 C   0  0  0  0  0  0  0  0  0  0  0  0
    5.4194   12.8824   26.9481 C   0  0  0  0  0  0  0  0  0  0  0  0
    6.2318   13.1899   25.8392 C   0  0  0  0  0  0  0  0  0  0  0  0
    6.5646   14.6560   25.6001 C   0  0  0  0  0  0  0  0  0  0  0  0
    7.8486   15.1353   24.9892 C   0  0  0  0  0  0  0  0  0  0  0  0
    6.5576   15.2910   24.2337 C   0  0  0  0  0  0  0  0  0  0  0  0
  1  2  1  0
  2  3  1  0
  3  4  1  0
  4  5  2  0
  5  6  1  0
  6  7  1  0
  7  8  1  0
  8  9  1  0
  9 10  1  0
 10 11  2  0
 10 12  1  0
 12 13  2  0
 13 14  1  0
 14 15  2  0
 15 16  1  0
 16 17  2  0
 17 18  1  0
 18 19  1  0
 19 20  1  0
  6  2  2  0
 17 12  1  0
 20 18  1  0
M  END
>  <energy_score>  (1899) 
-0.723568

>  <inchikey>  (1899) 
None

>  <smiles>  (1899) 
None

>  <ref_pdb>  (1899) 
A5594a

>  <alias>  (1899) 
None

>  <HIPPO Pose ID>  (1899) 
499543

>  <name>  (1899) 
P499543

>  <HIPPO Compound ID>  (1899) 
306341

>  <ref_mols>  (1899) 
A3408a,A5594a

>  <distance_score>  (1899) 
1.903145

>  <inspiration_score>  (1899) 
None

$$$$
P499544
     RDKit          3D

 20 21  0  0  0  0  0  0  0  0999 V2000
    8.5142    9.5474   24.1330 C   0  0  0  0  0  0  0  0  0  0  0  0
    7.6522   10.6244   24.7256 C   0  0  0  0  0  0  0  0  0  0  0  0
    6.5010   10.2858   25.4631 C   0  0  0  0  0  0  0  0  0  0  0  0
    5.6022   11.2581   25.9091 C   0  0  0  0  0  0  0  0  0  0  0  0
    5.7741   12.5759   25.5125 C   0  0  0  0  0  0  0  0  0  0  0  0
    6.8871   12.9006   24.7406 C   0  0  0  0  0  0  0  0  0  0  0  0
    7.0028   14.2354   24.1614 C   0  0  0  0  0  0  0  0  0  0  0  0
    7.0430   15.1988   24.9117 O   0  0  0  0  0  0  0  0  0  0  0  0
    7.8976   11.9781   24.4733 C   0  0  0  0  0  0  0  0  0  0  0  0
    9.2502   12.5077   24.0857 C   0  0  0  0  0  0  0  0  0  0  0  0
    9.8676   11.9931   23.2434 O   0  0  0  0  0  0  0  0  0  0  0  0
    9.5847   13.7374   24.9666 N   0  0  0  0  0  0  0  0  0  0  0  0
   10.7076   14.6422   24.9247 C   0  0  2  0  0  0  0  0  0  0  0  0
   10.8378   15.3517   26.2802 C   0  0  0  0  0  0  0  0  0  0  0  0
   10.4378   15.7270   23.8927 C   0  0  0  0  0  0  0  0  0  0  0  0
   10.3866   15.2815   22.4957 C   0  0  0  0  0  0  0  0  0  0  0  0
   11.4293   15.0127   21.6436 C   0  0  0  0  0  0  0  0  0  0  0  0
   10.9197   14.9126   20.3887 O   0  0  0  0  0  0  0  0  0  0  0  0
    9.5911   15.1151   20.5680 C   0  0  0  0  0  0  0  0  0  0  0  0
    9.1972   15.2642   21.8096 N   0  0  0  0  0  0  0  0  0  0  0  0
  1  2  1  0
  2  3  2  0
  3  4  1  0
  4  5  2  0
  5  6  1  0
  6  7  1  0
  7  8  2  0
  6  9  2  0
  9 10  1  0
 10 11  2  0
 10 12  1  0
 12 13  1  0
 13 14  1  1
 13 15  1  0
 15 16  1  0
 16 17  2  0
 17 18  1  0
 18 19  1  0
 19 20  2  0
  9  2  1  0
 20 16  1  0
M  END
>  <energy_score>  (1900) 
-17.911837

>  <inchikey>  (1900) 
None

>  <smiles>  (1900) 
None

>  <ref_pdb>  (1900) 
A5594a

>  <alias>  (1900) 
None

>  <HIPPO Pose ID>  (1900) 
499544

>  <name>  (1900) 
P499544

>  <HIPPO Compound ID>  (1900) 
306342

>  <ref_mols>  (1900) 
A3408a,A5594a

>  <distance_score>  (1900) 
1.813615

>  <inspiration_score>  (1900) 
None

$$$$
P499545
     RDKit          3D

 20 21  0  0  0  0  0  0  0  0999 V2000
    6.8473   14.0621   22.7459 C   0  0  0  0  0  0  0  0  0  0  0  0
    6.9790   14.2840   24.2426 C   0  0  0  0  0  0  0  0  0  0  0  0
    6.6818   13.0377   25.0454 C   0  0  0  0  0  0  0  0  0  0  0  0
    5.5616   13.0712   25.8916 C   0  0  0  0  0  0  0  0  0  0  0  0
    5.1251   11.9271   26.5520 C   0  0  0  0  0  0  0  0  0  0  0  0
    5.7700   10.7180   26.3442 C   0  0  0  0  0  0  0  0  0  0  0  0
    5.2735    9.6565   27.0352 O   0  0  0  0  0  0  0  0  0  0  0  0
    6.8897   10.6483   25.5234 C   0  0  0  0  0  0  0  0  0  0  0  0
    7.3903   11.8256   24.9268 C   0  0  0  0  0  0  0  0  0  0  0  0
    8.6986   11.7265   24.2004 C   0  0  0  0  0  0  0  0  0  0  0  0
    8.8873   10.8043   23.5135 O   0  0  0  0  0  0  0  0  0  0  0  0
    9.6223   12.9097   24.5631 N   0  0  0  0  0  0  0  0  0  0  0  0
   10.9437   13.2553   24.0783 C   0  0  2  0  0  0  0  0  0  0  0  0
   11.4467   14.5533   24.7085 C   0  0  0  0  0  0  0  0  0  0  0  0
   11.0255   13.2654   22.5548 C   0  0  0  0  0  0  0  0  0  0  0  0
   10.5760   14.5025   21.8915 C   0  0  0  0  0  0  0  0  0  0  0  0
   11.1615   15.1153   20.8109 C   0  0  0  0  0  0  0  0  0  0  0  0
   10.4140   16.1996   20.4872 O   0  0  0  0  0  0  0  0  0  0  0  0
    9.4286   16.2035   21.4210 C   0  0  0  0  0  0  0  0  0  0  0  0
    9.4760   15.2175   22.2888 N   0  0  0  0  0  0  0  0  0  0  0  0
  1  2  1  0
  2  3  1  0
  3  4  2  0
  4  5  1  0
  5  6  2  0
  6  7  1  0
  6  8  1  0
  8  9  2  0
  9 10  1  0
 10 11  2  0
 10 12  1  0
 12 13  1  0
 13 14  1  6
 13 15  1  0
 15 16  1  0
 16 17  2  0
 17 18  1  0
 18 19  1  0
 19 20  2  0
  9  3  1  0
 20 16  1  0
M  END
>  <energy_score>  (1901) 
-15.551932

>  <inchikey>  (1901) 
None

>  <smiles>  (1901) 
None

>  <ref_pdb>  (1901) 
A5594a

>  <alias>  (1901) 
None

>  <HIPPO Pose ID>  (1901) 
499545

>  <name>  (1901) 
P499545

>  <HIPPO Compound ID>  (1901) 
306344

>  <ref_mols>  (1901) 
A3408a,A5594a

>  <distance_score>  (1901) 
1.427189

>  <inspiration_score>  (1901) 
None

$$$$
P499546
     RDKit          3D

 20 21  0  0  0  0  0  0  0  0999 V2000
    6.1269   14.2838   23.8820 C   0  0  0  0  0  0  0  0  0  0  0  0
    6.5547   14.1923   25.3361 C   0  0  0  0  0  0  0  0  0  0  0  0
    6.3097   12.8309   25.9645 C   0  0  0  0  0  0  0  0  0  0  0  0
    5.3457   12.8188   26.9885 C   0  0  0  0  0  0  0  0  0  0  0  0
    4.8851   11.6285   27.5408 C   0  0  0  0  0  0  0  0  0  0  0  0
    5.3623   10.4196   27.0722 C   0  0  0  0  0  0  0  0  0  0  0  0
    4.8539    9.2940   27.6437 O   0  0  0  0  0  0  0  0  0  0  0  0
    6.3327   10.3866   26.0852 C   0  0  0  0  0  0  0  0  0  0  0  0
    6.8607   11.5841   25.5631 C   0  0  0  0  0  0  0  0  0  0  0  0
    7.8425   11.3968   24.4456 C   0  0  0  0  0  0  0  0  0  0  0  0
    7.7277   10.4427   23.7992 O   0  0  0  0  0  0  0  0  0  0  0  0
    8.7838   12.5817   24.2963 N   0  0  0  0  0  0  0  0  0  0  0  0
    9.7276   12.8990   23.2627 C   0  0  1  0  0  0  0  0  0  0  0  0
    8.8913   13.6794   22.2180 C   0  0  0  0  0  0  0  0  0  0  0  0
   10.9088   13.7205   23.7981 C   0  0  0  0  0  0  0  0  0  0  0  0
   11.4468   14.5316   22.6962 C   0  0  0  0  0  0  0  0  0  0  0  0
   11.3692   15.8810   22.4778 C   0  0  0  0  0  0  0  0  0  0  0  0
   11.6348   16.1161   21.1655 O   0  0  0  0  0  0  0  0  0  0  0  0
   11.9074   14.8854   20.6671 C   0  0  0  0  0  0  0  0  0  0  0  0
   11.8223   13.9108   21.5421 N   0  0  0  0  0  0  0  0  0  0  0  0
  1  2  1  0
  2  3  1  0
  3  4  2  0
  4  5  1  0
  5  6  2  0
  6  7  1  0
  6  8  1  0
  8  9  2  0
  9 10  1  0
 10 11  2  0
 10 12  1  0
 12 13  1  0
 13 14  1  6
 13 15  1  0
 15 16  1  0
 16 17  2  0
 17 18  1  0
 18 19  1  0
 19 20  2  0
  9  3  1  0
 20 16  1  0
M  END
>  <energy_score>  (1902) 
-7.67958

>  <inchikey>  (1902) 
None

>  <smiles>  (1902) 
None

>  <ref_pdb>  (1902) 
A5594a

>  <alias>  (1902) 
None

>  <HIPPO Pose ID>  (1902) 
499546

>  <name>  (1902) 
P499546

>  <HIPPO Compound ID>  (1902) 
306344

>  <ref_mols>  (1902) 
A3408a,A5594a

>  <distance_score>  (1902) 
1.882078

>  <inspiration_score>  (1902) 
None

$$$$
P499547
     RDKit          3D

 20 21  0  0  0  0  0  0  0  0999 V2000
    7.2083   14.0322   22.7507 C   0  0  0  0  0  0  0  0  0  0  0  0
    7.1641   14.1766   24.2629 C   0  0  0  0  0  0  0  0  0  0  0  0
    6.7538   12.9223   25.0081 C   0  0  0  0  0  0  0  0  0  0  0  0
    5.6490   13.0211   25.8696 C   0  0  0  0  0  0  0  0  0  0  0  0
    5.1474   11.9017   26.5293 C   0  0  0  0  0  0  0  0  0  0  0  0
    5.7163   10.6547   26.3168 C   0  0  0  0  0  0  0  0  0  0  0  0
    5.1630    9.6220   27.0091 O   0  0  0  0  0  0  0  0  0  0  0  0
    6.8167   10.5163   25.4807 C   0  0  0  0  0  0  0  0  0  0  0  0
    7.3722   11.6598   24.8714 C   0  0  0  0  0  0  0  0  0  0  0  0
    8.6560   11.4749   24.1240 C   0  0  0  0  0  0  0  0  0  0  0  0
    8.7716   10.5792   23.3929 O   0  0  0  0  0  0  0  0  0  0  0  0
    9.6487   12.5819   24.5063 N   0  0  0  0  0  0  0  0  0  0  0  0
   10.9621   12.8758   23.9983 C   0  0  0  0  0  0  0  0  0  0  0  0
   11.3289   14.3401   24.1983 C   0  0  0  0  0  0  0  0  0  0  0  0
   11.2382   15.0356   22.9106 C   0  0  0  0  0  0  0  0  0  0  0  0
   12.2411   15.6563   22.2162 C   0  0  0  0  0  0  0  0  0  0  0  0
   11.7882   15.9358   20.9790 O   0  0  0  0  0  0  0  0  0  0  0  0
   10.5194   15.4522   20.9852 C   0  0  0  0  0  0  0  0  0  0  0  0
    9.8551   15.4880   19.6918 C   0  0  0  0  0  0  0  0  0  0  0  0
   10.1096   14.9694   22.1389 N   0  0  0  0  0  0  0  0  0  0  0  0
  1  2  1  0
  2  3  1  0
  3  4  2  0
  4  5  1  0
  5  6  2  0
  6  7  1  0
  6  8  1  0
  8  9  2  0
  9 10  1  0
 10 11  2  0
 10 12  1  0
 12 13  1  0
 13 14  1  0
 14 15  1  0
 15 16  2  0
 16 17  1  0
 17 18  1  0
 18 19  1  0
 18 20  2  0
  9  3  1  0
 20 15  1  0
M  END
>  <energy_score>  (1903) 
-3.408546

>  <inchikey>  (1903) 
None

>  <smiles>  (1903) 
None

>  <ref_pdb>  (1903) 
A5594a

>  <alias>  (1903) 
None

>  <HIPPO Pose ID>  (1903) 
499547

>  <name>  (1903) 
P499547

>  <HIPPO Compound ID>  (1903) 
306345

>  <ref_mols>  (1903) 
A3408a,A5594a

>  <distance_score>  (1903) 
1.542501

>  <inspiration_score>  (1903) 
None

$$$$
P499548
     RDKit          3D

 20 21  0  0  0  0  0  0  0  0999 V2000
    6.4284   14.5293   23.9578 C   0  0  0  0  0  0  0  0  0  0  0  0
    7.0800   14.0035   25.2317 C   0  0  0  0  0  0  0  0  0  0  0  0
    6.4685   12.6786   25.6162 C   0  0  0  0  0  0  0  0  0  0  0  0
    5.3409   12.7934   26.4624 C   0  0  0  0  0  0  0  0  0  0  0  0
    4.6709   11.6807   26.9552 C   0  0  0  0  0  0  0  0  0  0  0  0
    5.0911   10.4216   26.5875 C   0  0  0  0  0  0  0  0  0  0  0  0
    4.4523    9.3585   27.1477 O   0  0  0  0  0  0  0  0  0  0  0  0
    6.1529   10.2728   25.7108 C   0  0  0  0  0  0  0  0  0  0  0  0
    6.8777   11.3870   25.2186 C   0  0  0  0  0  0  0  0  0  0  0  0
    8.1531   10.9947   24.5034 C   0  0  0  0  0  0  0  0  0  0  0  0
    8.4982    9.9021   24.6932 O   0  0  0  0  0  0  0  0  0  0  0  0
    8.8280   12.1250   23.7342 N   0  0  0  0  0  0  0  0  0  0  0  0
   10.1117   12.1877   23.1133 C   0  0  0  0  0  0  0  0  0  0  0  0
   10.8424   13.4953   23.3802 C   0  0  0  0  0  0  0  0  0  0  0  0
   10.2648   14.5894   22.5709 C   0  0  0  0  0  0  0  0  0  0  0  0
    9.0370   15.1225   22.8678 N   0  0  0  0  0  0  0  0  0  0  0  0
    8.8363   15.9934   21.9016 C   0  0  0  0  0  0  0  0  0  0  0  0
    9.8239   16.0654   20.9794 O   0  0  0  0  0  0  0  0  0  0  0  0
   10.7497   15.1765   21.4270 C   0  0  0  0  0  0  0  0  0  0  0  0
   11.9535   15.0378   20.6124 C   0  0  0  0  0  0  0  0  0  0  0  0
  1  2  1  0
  2  3  1  0
  3  4  2  0
  4  5  1  0
  5  6  2  0
  6  7  1  0
  6  8  1  0
  8  9  2  0
  9 10  1  0
 10 11  2  0
 10 12  1  0
 12 13  1  0
 13 14  1  0
 14 15  1  0
 15 16  1  0
 16 17  2  0
 17 18  1  0
 18 19  1  0
 19 20  1  0
  9  3  1  0
 19 15  2  0
M  END
>  <energy_score>  (1904) 
-4.429462

>  <inchikey>  (1904) 
None

>  <smiles>  (1904) 
None

>  <ref_pdb>  (1904) 
A5594a

>  <alias>  (1904) 
None

>  <HIPPO Pose ID>  (1904) 
499548

>  <name>  (1904) 
P499548

>  <HIPPO Compound ID>  (1904) 
306346

>  <ref_mols>  (1904) 
A3408a,A5594a

>  <distance_score>  (1904) 
1.577726

>  <inspiration_score>  (1904) 
None

$$$$
P499549
     RDKit          3D

 20 21  0  0  0  0  0  0  0  0999 V2000
    4.5680   14.6858   25.5284 C   0  0  0  0  0  0  0  0  0  0  0  0
    5.3535   13.4048   25.6272 C   0  0  0  0  0  0  0  0  0  0  0  0
    4.8848   12.3969   26.4742 C   0  0  0  0  0  0  0  0  0  0  0  0
    5.5238   11.1630   26.5304 C   0  0  0  0  0  0  0  0  0  0  0  0
    4.8269    9.8789   27.7241 Br  0  0  0  0  0  0  0  0  0  0  0  0
    6.6723   10.9245   25.7819 C   0  0  0  0  0  0  0  0  0  0  0  0
    7.2004   11.9540   24.9920 C   0  0  0  0  0  0  0  0  0  0  0  0
    8.5473   11.7435   24.3660 C   0  0  0  0  0  0  0  0  0  0  0  0
    8.7843   10.7221   23.8578 O   0  0  0  0  0  0  0  0  0  0  0  0
    9.4398   12.9872   24.5784 N   0  0  0  0  0  0  0  0  0  0  0  0
   10.7869   13.2682   24.1226 C   0  0  2  0  0  0  0  0  0  0  0  0
   11.3080   14.5740   24.7221 C   0  0  0  0  0  0  0  0  0  0  0  0
   10.9027   13.2220   22.5999 C   0  0  0  0  0  0  0  0  0  0  0  0
   10.4402   14.4391   21.9091 C   0  0  0  0  0  0  0  0  0  0  0  0
   11.1162   15.1671   20.9608 C   0  0  0  0  0  0  0  0  0  0  0  0
   10.3284   16.2106   20.5968 O   0  0  0  0  0  0  0  0  0  0  0  0
    9.2220   16.0698   21.3727 C   0  0  0  0  0  0  0  0  0  0  0  0
    9.2257   15.0225   22.1641 N   0  0  0  0  0  0  0  0  0  0  0  0
    6.4910   13.1614   24.8326 C   0  0  0  0  0  0  0  0  0  0  0  0
    6.8924   14.1542   23.7790 C   0  0  0  0  0  0  0  0  0  0  0  0
  1  2  1  0
  2  3  2  0
  3  4  1  0
  4  5  1  0
  4  6  2  0
  6  7  1  0
  7  8  1  0
  8  9  2  0
  8 10  1  0
 10 11  1  0
 11 12  1  6
 11 13  1  0
 13 14  1  0
 14 15  2  0
 15 16  1  0
 16 17  1  0
 17 18  2  0
  7 19  2  0
 19 20  1  0
 19  2  1  0
 18 14  1  0
M  END
>  <energy_score>  (1905) 
-7.194333

>  <inchikey>  (1905) 
None

>  <smiles>  (1905) 
None

>  <ref_pdb>  (1905) 
A5594a

>  <alias>  (1905) 
None

>  <HIPPO Pose ID>  (1905) 
499549

>  <name>  (1905) 
P499549

>  <HIPPO Compound ID>  (1905) 
306348

>  <ref_mols>  (1905) 
A3408a,A5594a

>  <distance_score>  (1905) 
1.61315

>  <inspiration_score>  (1905) 
None

$$$$
P499550
     RDKit          3D

 20 21  0  0  0  0  0  0  0  0999 V2000
   11.9524   15.4754   21.5839 C   0  0  0  0  0  0  0  0  0  0  0  0
   10.5717   15.0358   21.8059 C   0  0  0  0  0  0  0  0  0  0  0  0
    9.5934   15.7931   21.2362 O   0  0  0  0  0  0  0  0  0  0  0  0
    8.4434   15.1886   21.6190 C   0  0  0  0  0  0  0  0  0  0  0  0
    8.5946   14.0993   22.3370 N   0  0  0  0  0  0  0  0  0  0  0  0
    9.9654   13.9885   22.4620 C   0  0  0  0  0  0  0  0  0  0  0  0
   10.5959   12.8731   23.2133 C   0  0  0  0  0  0  0  0  0  0  0  0
    9.7945   11.5719   23.1547 C   0  0  0  0  0  0  0  0  0  0  0  0
    8.5296   11.7480   23.8026 N   0  0  0  0  0  0  0  0  0  0  0  0
    7.7982   10.8640   24.7985 C   0  0  0  0  0  0  0  0  0  0  0  0
    8.0609    9.8102   25.2022 O   0  0  0  0  0  0  0  0  0  0  0  0
    6.5976   11.5130   25.4258 C   0  0  0  0  0  0  0  0  0  0  0  0
    5.7184   10.5944   26.0440 C   0  0  0  0  0  0  0  0  0  0  0  0
    4.7016   11.0354   26.8750 C   0  0  0  0  0  0  0  0  0  0  0  0
    3.6505    9.7139   28.0860 I   0  0  0  0  0  0  0  0  0  0  0  0
    4.4435   12.3898   26.9864 C   0  0  0  0  0  0  0  0  0  0  0  0
    5.2873   13.3105   26.3690 C   0  0  0  0  0  0  0  0  0  0  0  0
    4.8792   14.9827   26.5931 Cl  0  0  0  0  0  0  0  0  0  0  0  0
    6.4410   12.9015   25.6699 C   0  0  0  0  0  0  0  0  0  0  0  0
    7.4430   13.9680   25.3049 C   0  0  0  0  0  0  0  0  0  0  0  0
  1  2  1  0
  2  3  1  0
  3  4  1  0
  4  5  2  0
  5  6  1  0
  6  7  1  0
  7  8  1  0
  8  9  1  0
  9 10  1  0
 10 11  2  0
 10 12  1  0
 12 13  2  0
 13 14  1  0
 14 15  1  0
 14 16  2  0
 16 17  1  0
 17 18  1  0
 17 19  2  0
 19 20  1  0
  6  2  2  0
 19 12  1  0
M  END
>  <energy_score>  (1906) 
-5.374247

>  <inchikey>  (1906) 
None

>  <smiles>  (1906) 
None

>  <ref_pdb>  (1906) 
A5594a

>  <alias>  (1906) 
None

>  <HIPPO Pose ID>  (1906) 
499550

>  <name>  (1906) 
P499550

>  <HIPPO Compound ID>  (1906) 
306352

>  <ref_mols>  (1906) 
A3408a,A5594a

>  <distance_score>  (1906) 
1.645555

>  <inspiration_score>  (1906) 
None

$$$$
P499551
     RDKit          3D

 20 21  0  0  0  0  0  0  0  0999 V2000
    7.3762   14.6202   25.2483 C   0  0  0  0  0  0  0  0  0  0  0  0
    7.0998   13.1645   25.4445 C   0  0  0  0  0  0  0  0  0  0  0  0
    6.0051   12.7729   26.2230 C   0  0  0  0  0  0  0  0  0  0  0  0
    5.2767   13.6966   26.8664 F   0  0  0  0  0  0  0  0  0  0  0  0
    5.6363   11.4394   26.3524 C   0  0  0  0  0  0  0  0  0  0  0  0
    6.3653   10.4602   25.6864 C   0  0  0  0  0  0  0  0  0  0  0  0
    7.4648   10.8208   24.9010 C   0  0  0  0  0  0  0  0  0  0  0  0
    8.3420    9.5636   24.1101 Cl  0  0  0  0  0  0  0  0  0  0  0  0
    7.8373   12.1709   24.7844 C   0  0  0  0  0  0  0  0  0  0  0  0
    8.8874   12.5580   23.8164 C   0  0  0  0  0  0  0  0  0  0  0  0
    8.6406   12.3527   22.6998 O   0  0  0  0  0  0  0  0  0  0  0  0
   10.1548   13.1384   24.4671 N   0  0  0  0  0  0  0  0  0  0  0  0
   11.3658   13.6839   23.8624 C   0  0  2  0  0  0  0  0  0  0  0  0
   12.5425   13.6196   24.8147 C   0  0  0  0  0  0  0  0  0  0  0  0
   11.1895   15.1438   23.4303 C   0  0  0  0  0  0  0  0  0  0  0  0
   10.1774   15.2473   22.3768 C   0  0  0  0  0  0  0  0  0  0  0  0
   10.3166   14.9844   21.0382 C   0  0  0  0  0  0  0  0  0  0  0  0
    9.0856   15.0821   20.4754 O   0  0  0  0  0  0  0  0  0  0  0  0
    8.2740   15.3922   21.5186 C   0  0  0  0  0  0  0  0  0  0  0  0
    8.8724   15.5339   22.6760 N   0  0  0  0  0  0  0  0  0  0  0  0
  1  2  1  0
  2  3  2  0
  3  4  1  0
  3  5  1  0
  5  6  2  0
  6  7  1  0
  7  8  1  0
  7  9  2  0
  9 10  1  0
 10 11  2  0
 10 12  1  0
 12 13  1  0
 13 14  1  1
 13 15  1  0
 15 16  1  0
 16 17  2  0
 17 18  1  0
 18 19  1  0
 19 20  2  0
  9  2  1  0
 20 16  1  0
M  END
>  <energy_score>  (1907) 
-9.219898

>  <inchikey>  (1907) 
None

>  <smiles>  (1907) 
None

>  <ref_pdb>  (1907) 
A5594a

>  <alias>  (1907) 
None

>  <HIPPO Pose ID>  (1907) 
499551

>  <name>  (1907) 
P499551

>  <HIPPO Compound ID>  (1907) 
306353

>  <ref_mols>  (1907) 
A3408a,A5594a

>  <distance_score>  (1907) 
1.751575

>  <inspiration_score>  (1907) 
None

$$$$
P499552
     RDKit          3D

 20 21  0  0  0  0  0  0  0  0999 V2000
    4.7782    9.9298   27.3729 C   0  0  0  0  0  0  0  0  0  0  0  0
    5.4273   10.9916   26.5337 C   0  0  0  0  0  0  0  0  0  0  0  0
    4.8459   12.2602   26.4338 C   0  0  0  0  0  0  0  0  0  0  0  0
    5.3628   13.2094   25.5523 C   0  0  0  0  0  0  0  0  0  0  0  0
    6.4909   12.9007   24.7925 C   0  0  0  0  0  0  0  0  0  0  0  0
    6.8125   13.7808   23.6546 C   0  0  0  0  0  0  0  0  0  0  0  0
    7.2314   13.3257   22.5959 O   0  0  0  0  0  0  0  0  0  0  0  0
    7.1715   11.7024   24.9986 C   0  0  0  0  0  0  0  0  0  0  0  0
    8.5155   11.4553   24.4111 C   0  0  0  0  0  0  0  0  0  0  0  0
    8.7628   10.3891   24.0088 O   0  0  0  0  0  0  0  0  0  0  0  0
    9.3750   12.7424   24.4352 N   0  0  0  0  0  0  0  0  0  0  0  0
   10.6835   13.0075   23.8818 C   0  0  1  0  0  0  0  0  0  0  0  0
   10.6320   12.6504   22.4077 C   0  0  0  0  0  0  0  0  0  0  0  0
   11.1349   14.4630   24.1056 C   0  0  0  0  0  0  0  0  0  0  0  0
   10.5341   15.3557   23.0897 C   0  0  0  0  0  0  0  0  0  0  0  0
   11.1085   15.8044   21.9217 C   0  0  0  0  0  0  0  0  0  0  0  0
   10.1169   16.3103   21.1413 O   0  0  0  0  0  0  0  0  0  0  0  0
    9.0013   16.1850   21.9089 C   0  0  0  0  0  0  0  0  0  0  0  0
    9.1899   15.6434   23.0953 N   0  0  0  0  0  0  0  0  0  0  0  0
    6.5925   10.7168   25.8057 C   0  0  0  0  0  0  0  0  0  0  0  0
  1  2  1  0
  2  3  2  0
  3  4  1  0
  4  5  2  0
  5  6  1  0
  6  7  2  0
  5  8  1  0
  8  9  1  0
  9 10  2  0
  9 11  1  0
 11 12  1  0
 12 13  1  6
 12 14  1  0
 14 15  1  0
 15 16  2  0
 16 17  1  0
 17 18  1  0
 18 19  2  0
  8 20  2  0
 20  2  1  0
 19 15  1  0
M  END
>  <energy_score>  (1908) 
-11.003881

>  <inchikey>  (1908) 
None

>  <smiles>  (1908) 
None

>  <ref_pdb>  (1908) 
A5594a

>  <alias>  (1908) 
None

>  <HIPPO Pose ID>  (1908) 
499552

>  <name>  (1908) 
P499552

>  <HIPPO Compound ID>  (1908) 
306357

>  <ref_mols>  (1908) 
A3408a,A5594a

>  <distance_score>  (1908) 
1.630179

>  <inspiration_score>  (1908) 
None

$$$$
P499553
     RDKit          3D

 20 21  0  0  0  0  0  0  0  0999 V2000
    6.9297   14.2920   26.0967 C   0  0  0  0  0  0  0  0  0  0  0  0
    6.0345   13.0947   26.3259 C   0  0  0  0  0  0  0  0  0  0  0  0
    4.8918   13.2304   27.1139 C   0  0  0  0  0  0  0  0  0  0  0  0
    4.3262   14.7705   27.6637 Cl  0  0  0  0  0  0  0  0  0  0  0  0
    4.1912   12.1083   27.5478 C   0  0  0  0  0  0  0  0  0  0  0  0
    4.6071   10.8304   27.1853 C   0  0  0  0  0  0  0  0  0  0  0  0
    3.7211    9.2287   28.1697 I   0  0  0  0  0  0  0  0  0  0  0  0
    5.6425   10.6626   26.2778 C   0  0  0  0  0  0  0  0  0  0  0  0
    6.3243   11.8010   25.8278 C   0  0  0  0  0  0  0  0  0  0  0  0
    7.5289   11.6135   25.0016 C   0  0  0  0  0  0  0  0  0  0  0  0
    8.2871   10.7912   25.3059 O   0  0  0  0  0  0  0  0  0  0  0  0
    7.5972   12.6624   23.8946 N   0  0  0  0  0  0  0  0  0  0  0  0
    8.6545   12.9875   22.9838 C   0  0  2  0  0  0  0  0  0  0  0  0
    9.7333   11.9146   22.9475 C   0  0  0  0  0  0  0  0  0  0  0  0
    9.2838   14.3393   23.3695 C   0  0  0  0  0  0  0  0  0  0  0  0
    9.9832   14.8991   22.2040 C   0  0  0  0  0  0  0  0  0  0  0  0
   11.3152   15.1493   21.9888 C   0  0  0  0  0  0  0  0  0  0  0  0
   11.4518   15.5418   20.6921 O   0  0  0  0  0  0  0  0  0  0  0  0
   10.1858   15.5146   20.1989 C   0  0  0  0  0  0  0  0  0  0  0  0
    9.2647   15.1475   21.0590 N   0  0  0  0  0  0  0  0  0  0  0  0
  1  2  1  0
  2  3  2  0
  3  4  1  0
  3  5  1  0
  5  6  2  0
  6  7  1  0
  6  8  1  0
  8  9  2  0
  9 10  1  0
 10 11  2  0
 10 12  1  0
 12 13  1  0
 13 14  1  1
 13 15  1  0
 15 16  1  0
 16 17  2  0
 17 18  1  0
 18 19  1  0
 19 20  2  0
  9  2  1  0
 20 16  1  0
M  END
>  <energy_score>  (1909) 
-12.336428

>  <inchikey>  (1909) 
None

>  <smiles>  (1909) 
None

>  <ref_pdb>  (1909) 
A5594a

>  <alias>  (1909) 
None

>  <HIPPO Pose ID>  (1909) 
499553

>  <name>  (1909) 
P499553

>  <HIPPO Compound ID>  (1909) 
306362

>  <ref_mols>  (1909) 
A3408a,A5594a

>  <distance_score>  (1909) 
1.884893

>  <inspiration_score>  (1909) 
None

$$$$
P499554
     RDKit          3D

 20 21  0  0  0  0  0  0  0  0999 V2000
    7.1687   14.3422   26.3166 C   0  0  0  0  0  0  0  0  0  0  0  0
    6.2944   13.1407   26.6001 C   0  0  0  0  0  0  0  0  0  0  0  0
    5.2916   13.2172   27.5610 C   0  0  0  0  0  0  0  0  0  0  0  0
    4.9100   14.6894   28.3837 Cl  0  0  0  0  0  0  0  0  0  0  0  0
    4.5708   12.0835   27.9201 C   0  0  0  0  0  0  0  0  0  0  0  0
    4.8338   10.8506   27.3241 C   0  0  0  0  0  0  0  0  0  0  0  0
    3.8288    9.2181   28.1195 I   0  0  0  0  0  0  0  0  0  0  0  0
    5.7576   10.7478   26.2911 C   0  0  0  0  0  0  0  0  0  0  0  0
    6.4458   11.9071   25.9182 C   0  0  0  0  0  0  0  0  0  0  0  0
    7.4321   11.8755   24.8249 C   0  0  0  0  0  0  0  0  0  0  0  0
    8.3177   11.1256   24.8362 O   0  0  0  0  0  0  0  0  0  0  0  0
    7.1045   13.0100   23.8508 N   0  0  0  0  0  0  0  0  0  0  0  0
    7.8438   13.5233   22.7409 C   0  0  1  0  0  0  0  0  0  0  0  0
    6.8901   14.2153   21.7811 C   0  0  0  0  0  0  0  0  0  0  0  0
    8.9681   14.4368   23.2553 C   0  0  0  0  0  0  0  0  0  0  0  0
    9.9335   14.7504   22.1935 C   0  0  0  0  0  0  0  0  0  0  0  0
   11.2609   14.4231   22.0780 C   0  0  0  0  0  0  0  0  0  0  0  0
   11.6856   14.8492   20.8580 O   0  0  0  0  0  0  0  0  0  0  0  0
   10.5856   15.4238   20.3067 C   0  0  0  0  0  0  0  0  0  0  0  0
    9.5187   15.4125   21.0688 N   0  0  0  0  0  0  0  0  0  0  0  0
  1  2  1  0
  2  3  2  0
  3  4  1  0
  3  5  1  0
  5  6  2  0
  6  7  1  0
  6  8  1  0
  8  9  2  0
  9 10  1  0
 10 11  2  0
 10 12  1  0
 12 13  1  0
 13 14  1  6
 13 15  1  0
 15 16  1  0
 16 17  2  0
 17 18  1  0
 18 19  1  0
 19 20  2  0
  9  2  1  0
 20 16  1  0
M  END
>  <energy_score>  (1910) 
-12.377942

>  <inchikey>  (1910) 
None

>  <smiles>  (1910) 
None

>  <ref_pdb>  (1910) 
A5594a

>  <alias>  (1910) 
None

>  <HIPPO Pose ID>  (1910) 
499554

>  <name>  (1910) 
P499554

>  <HIPPO Compound ID>  (1910) 
306362

>  <ref_mols>  (1910) 
A3408a,A5594a

>  <distance_score>  (1910) 
1.952141

>  <inspiration_score>  (1910) 
None

$$$$
P499555
     RDKit          3D

 20 21  0  0  0  0  0  0  0  0999 V2000
    7.0710   14.4326   23.1900 C   0  0  0  0  0  0  0  0  0  0  0  0
    7.3215   14.1318   24.6397 C   0  0  0  0  0  0  0  0  0  0  0  0
    7.8055   14.9124   25.4542 O   0  0  0  0  0  0  0  0  0  0  0  0
    6.9739   12.7920   25.1115 C   0  0  0  0  0  0  0  0  0  0  0  0
    5.8236   12.6783   25.8978 C   0  0  0  0  0  0  0  0  0  0  0  0
    5.3815   11.4188   26.2773 C   0  0  0  0  0  0  0  0  0  0  0  0
    6.0776   10.2895   25.8528 C   0  0  0  0  0  0  0  0  0  0  0  0
    7.2530   10.4106   25.1016 C   0  0  0  0  0  0  0  0  0  0  0  0
    7.7396   11.6770   24.7618 C   0  0  0  0  0  0  0  0  0  0  0  0
    9.0068   11.7896   23.9728 C   0  0  0  0  0  0  0  0  0  0  0  0
    9.1756   11.0131   23.1210 O   0  0  0  0  0  0  0  0  0  0  0  0
    9.8428   13.0201   24.3847 N   0  0  0  0  0  0  0  0  0  0  0  0
   11.0149   13.6089   23.7713 C   0  0  2  0  0  0  0  0  0  0  0  0
   12.2429   13.5610   24.6575 C   0  0  0  0  0  0  0  0  0  0  0  0
   10.7211   15.0768   23.4275 C   0  0  0  0  0  0  0  0  0  0  0  0
   10.6601   15.2481   21.9737 C   0  0  0  0  0  0  0  0  0  0  0  0
   11.7109   15.4298   21.1098 C   0  0  0  0  0  0  0  0  0  0  0  0
   11.2029   15.5152   19.8564 O   0  0  0  0  0  0  0  0  0  0  0  0
    9.8648   15.3933   20.0419 C   0  0  0  0  0  0  0  0  0  0  0  0
    9.4770   15.1981   21.2816 N   0  0  0  0  0  0  0  0  0  0  0  0
  1  2  1  0
  2  3  2  0
  2  4  1  0
  4  5  2  0
  5  6  1  0
  6  7  2  0
  7  8  1  0
  8  9  2  0
  9 10  1  0
 10 11  2  0
 10 12  1  0
 12 13  1  0
 13 14  1  1
 13 15  1  0
 15 16  1  0
 16 17  2  0
 17 18  1  0
 18 19  1  0
 19 20  2  0
  9  4  1  0
 20 16  1  0
M  END
>  <energy_score>  (1911) 
-8.015609

>  <inchikey>  (1911) 
None

>  <smiles>  (1911) 
None

>  <ref_pdb>  (1911) 
A5594a

>  <alias>  (1911) 
None

>  <HIPPO Pose ID>  (1911) 
499555

>  <name>  (1911) 
P499555

>  <HIPPO Compound ID>  (1911) 
306363

>  <ref_mols>  (1911) 
A3408a,A5594a

>  <distance_score>  (1911) 
1.32091

>  <inspiration_score>  (1911) 
None

$$$$
P499556
     RDKit          3D

 20 21  0  0  0  0  0  0  0  0999 V2000
    6.5552   14.5951   23.1161 C   0  0  0  0  0  0  0  0  0  0  0  0
    6.4851   14.4768   24.6153 C   0  0  0  0  0  0  0  0  0  0  0  0
    6.6714   15.4250   25.3748 O   0  0  0  0  0  0  0  0  0  0  0  0
    6.2129   13.1574   25.2168 C   0  0  0  0  0  0  0  0  0  0  0  0
    5.0807   13.0396   26.0329 C   0  0  0  0  0  0  0  0  0  0  0  0
    4.7466   11.8038   26.5899 C   0  0  0  0  0  0  0  0  0  0  0  0
    5.5271   10.6816   26.3192 C   0  0  0  0  0  0  0  0  0  0  0  0
    6.6761   10.8073   25.5376 C   0  0  0  0  0  0  0  0  0  0  0  0
    7.0507   12.0571   25.0162 C   0  0  0  0  0  0  0  0  0  0  0  0
    8.3639   12.1331   24.3147 C   0  0  0  0  0  0  0  0  0  0  0  0
    8.6287   11.1976   23.6213 O   0  0  0  0  0  0  0  0  0  0  0  0
    9.1221   13.3029   24.6351 N   0  0  0  0  0  0  0  0  0  0  0  0
   10.4723   13.6743   24.3011 C   0  0  0  0  0  0  0  0  0  0  0  0
   10.9147   13.3191   22.8955 C   0  0  0  0  0  0  0  0  0  0  0  0
   10.9778   14.4820   21.9980 C   0  0  0  0  0  0  0  0  0  0  0  0
   11.9554   15.4436   21.9379 C   0  0  0  0  0  0  0  0  0  0  0  0
   11.7338   16.1903   20.8360 O   0  0  0  0  0  0  0  0  0  0  0  0
   10.6243   15.6298   20.2734 C   0  0  0  0  0  0  0  0  0  0  0  0
   10.2660   16.1520   18.9513 C   0  0  0  0  0  0  0  0  0  0  0  0
   10.0757   14.6648   20.9825 N   0  0  0  0  0  0  0  0  0  0  0  0
  1  2  1  0
  2  3  2  0
  2  4  1  0
  4  5  2  0
  5  6  1  0
  6  7  2  0
  7  8  1  0
  8  9  2  0
  9 10  1  0
 10 11  2  0
 10 12  1  0
 12 13  1  0
 13 14  1  0
 14 15  1  0
 15 16  2  0
 16 17  1  0
 17 18  1  0
 18 19  1  0
 18 20  2  0
  9  4  1  0
 20 15  1  0
M  END
>  <energy_score>  (1912) 
-20.041901

>  <inchikey>  (1912) 
None

>  <smiles>  (1912) 
None

>  <ref_pdb>  (1912) 
A5594a

>  <alias>  (1912) 
None

>  <HIPPO Pose ID>  (1912) 
499556

>  <name>  (1912) 
P499556

>  <HIPPO Compound ID>  (1912) 
306364

>  <ref_mols>  (1912) 
A3408a,A5594a

>  <distance_score>  (1912) 
1.682414

>  <inspiration_score>  (1912) 
None

$$$$
P499557
     RDKit          3D

 20 21  0  0  0  0  0  0  0  0999 V2000
    6.9072   14.2516   23.2471 C   0  0  0  0  0  0  0  0  0  0  0  0
    7.2532   13.9729   24.6802 C   0  0  0  0  0  0  0  0  0  0  0  0
    7.8473   14.7201   25.4494 O   0  0  0  0  0  0  0  0  0  0  0  0
    6.8620   12.6679   25.1961 C   0  0  0  0  0  0  0  0  0  0  0  0
    5.7354   12.6400   26.0248 C   0  0  0  0  0  0  0  0  0  0  0  0
    5.2314   11.4190   26.4451 C   0  0  0  0  0  0  0  0  0  0  0  0
    5.8464   10.2438   26.0243 C   0  0  0  0  0  0  0  0  0  0  0  0
    6.9998   10.2819   25.2305 C   0  0  0  0  0  0  0  0  0  0  0  0
    7.5439   11.5074   24.8311 C   0  0  0  0  0  0  0  0  0  0  0  0
    8.7885   11.5023   23.9945 C   0  0  0  0  0  0  0  0  0  0  0  0
    8.9038   10.6357   23.2256 O   0  0  0  0  0  0  0  0  0  0  0  0
    9.7091   12.7001   24.2936 N   0  0  0  0  0  0  0  0  0  0  0  0
   11.0118   13.0318   23.7749 C   0  0  0  0  0  0  0  0  0  0  0  0
   11.2806   14.5295   23.7718 C   0  0  0  0  0  0  0  0  0  0  0  0
   10.5123   15.2129   22.7109 C   0  0  0  0  0  0  0  0  0  0  0  0
    9.3499   15.8841   22.9763 N   0  0  0  0  0  0  0  0  0  0  0  0
    9.0050   16.3804   21.8075 C   0  0  0  0  0  0  0  0  0  0  0  0
    9.8072   16.0305   20.7736 O   0  0  0  0  0  0  0  0  0  0  0  0
   10.7920   15.3062   21.3685 C   0  0  0  0  0  0  0  0  0  0  0  0
   11.8730   14.8425   20.5047 C   0  0  0  0  0  0  0  0  0  0  0  0
  1  2  1  0
  2  3  2  0
  2  4  1  0
  4  5  2  0
  5  6  1  0
  6  7  2  0
  7  8  1  0
  8  9  2  0
  9 10  1  0
 10 11  2  0
 10 12  1  0
 12 13  1  0
 13 14  1  0
 14 15  1  0
 15 16  1  0
 16 17  2  0
 17 18  1  0
 18 19  1  0
 19 20  1  0
  9  4  1  0
 19 15  2  0
M  END
>  <energy_score>  (1913) 
-13.009634

>  <inchikey>  (1913) 
None

>  <smiles>  (1913) 
None

>  <ref_pdb>  (1913) 
A5594a

>  <alias>  (1913) 
None

>  <HIPPO Pose ID>  (1913) 
499557

>  <name>  (1913) 
P499557

>  <HIPPO Compound ID>  (1913) 
306365

>  <ref_mols>  (1913) 
A3408a,A5594a

>  <distance_score>  (1913) 
1.620841

>  <inspiration_score>  (1913) 
None

$$$$
P499558
     RDKit          3D

 20 21  0  0  0  0  0  0  0  0999 V2000
    6.9323   14.1208   24.2720 C   0  0  0  0  0  0  0  0  0  0  0  0
    6.6299   12.8736   25.0555 C   0  0  0  0  0  0  0  0  0  0  0  0
    7.3901   11.7045   24.8593 C   0  0  0  0  0  0  0  0  0  0  0  0
    8.6971   11.6843   24.1246 C   0  0  0  0  0  0  0  0  0  0  0  0
    8.9234   10.7801   23.4264 O   0  0  0  0  0  0  0  0  0  0  0  0
    9.5798   12.8844   24.5234 N   0  0  0  0  0  0  0  0  0  0  0  0
   10.8988   13.2741   24.0692 C   0  0  2  0  0  0  0  0  0  0  0  0
   11.3321   14.5960   24.7005 C   0  0  0  0  0  0  0  0  0  0  0  0
   11.0008   13.2805   22.5458 C   0  0  0  0  0  0  0  0  0  0  0  0
   10.4237   14.4709   21.8987 C   0  0  0  0  0  0  0  0  0  0  0  0
   11.0194   15.2722   20.9566 C   0  0  0  0  0  0  0  0  0  0  0  0
   10.1427   16.2559   20.6341 O   0  0  0  0  0  0  0  0  0  0  0  0
    9.0665   16.0060   21.4250 C   0  0  0  0  0  0  0  0  0  0  0  0
    9.1683   14.9439   22.1898 N   0  0  0  0  0  0  0  0  0  0  0  0
    6.9396   10.4809   25.3719 C   0  0  0  0  0  0  0  0  0  0  0  0
    5.8106   10.4315   26.1858 C   0  0  0  0  0  0  0  0  0  0  0  0
    5.1379   11.6067   26.5139 C   0  0  0  0  0  0  0  0  0  0  0  0
    3.6871   11.4528   27.7357 Br  0  0  0  0  0  0  0  0  0  0  0  0
    5.5357   12.8265   25.9458 C   0  0  0  0  0  0  0  0  0  0  0  0
    4.6899   14.2916   26.3481 Cl  0  0  0  0  0  0  0  0  0  0  0  0
  1  2  1  0
  2  3  2  0
  3  4  1  0
  4  5  2  0
  4  6  1  0
  6  7  1  0
  7  8  1  6
  7  9  1  0
  9 10  1  0
 10 11  2  0
 11 12  1  0
 12 13  1  0
 13 14  2  0
  3 15  1  0
 15 16  2  0
 16 17  1  0
 17 18  1  0
 17 19  2  0
 19 20  1  0
 19  2  1  0
 14 10  1  0
M  END
>  <energy_score>  (1914) 
-13.760297

>  <inchikey>  (1914) 
None

>  <smiles>  (1914) 
None

>  <ref_pdb>  (1914) 
A5594a

>  <alias>  (1914) 
None

>  <HIPPO Pose ID>  (1914) 
499558

>  <name>  (1914) 
P499558

>  <HIPPO Compound ID>  (1914) 
306367

>  <ref_mols>  (1914) 
A3408a,A5594a

>  <distance_score>  (1914) 
1.423362

>  <inspiration_score>  (1914) 
None

$$$$
P499559
     RDKit          3D

 20 21  0  0  0  0  0  0  0  0999 V2000
    9.9884   15.5833   19.8951 C   0  0  0  0  0  0  0  0  0  0  0  0
   10.3655   15.0922   21.2192 C   0  0  0  0  0  0  0  0  0  0  0  0
    9.8938   14.0601   21.8867 N   0  0  0  0  0  0  0  0  0  0  0  0
   10.7947   13.9210   22.9110 C   0  0  0  0  0  0  0  0  0  0  0  0
   10.8532   12.7253   23.7730 C   0  0  0  0  0  0  0  0  0  0  0  0
    9.9719   11.5651   23.2879 C   0  0  0  0  0  0  0  0  0  0  0  0
    8.6479   11.6248   23.8254 N   0  0  0  0  0  0  0  0  0  0  0  0
    8.0159   12.6172   24.7915 C   0  0  0  0  0  0  0  0  0  0  0  0
    8.4409   13.5948   25.2525 O   0  0  0  0  0  0  0  0  0  0  0  0
    6.6909   12.1774   25.2638 C   0  0  0  0  0  0  0  0  0  0  0  0
    6.5155   10.8658   25.7275 C   0  0  0  0  0  0  0  0  0  0  0  0
    5.3848   10.5552   26.4706 C   0  0  0  0  0  0  0  0  0  0  0  0
    4.4616   11.5583   26.7726 C   0  0  0  0  0  0  0  0  0  0  0  0
    3.0271   11.0757   27.9312 Br  0  0  0  0  0  0  0  0  0  0  0  0
    4.6113   12.8565   26.2484 C   0  0  0  0  0  0  0  0  0  0  0  0
    3.4358   14.0846   26.6093 Cl  0  0  0  0  0  0  0  0  0  0  0  0
    5.7181   13.1693   25.4475 C   0  0  0  0  0  0  0  0  0  0  0  0
    5.9286   14.5302   24.8340 C   0  0  0  0  0  0  0  0  0  0  0  0
   11.6880   14.9625   22.8905 C   0  0  0  0  0  0  0  0  0  0  0  0
   11.4259   15.7222   21.8021 O   0  0  0  0  0  0  0  0  0  0  0  0
  1  2  1  0
  2  3  2  0
  3  4  1  0
  4  5  1  0
  5  6  1  0
  6  7  1  0
  7  8  1  0
  8  9  2  0
  8 10  1  0
 10 11  2  0
 11 12  1  0
 12 13  2  0
 13 14  1  0
 13 15  1  0
 15 16  1  0
 15 17  2  0
 17 18  1  0
  4 19  2  0
 19 20  1  0
 20  2  1  0
 17 10  1  0
M  END
>  <energy_score>  (1915) 
-9.777974

>  <inchikey>  (1915) 
None

>  <smiles>  (1915) 
None

>  <ref_pdb>  (1915) 
A5594a

>  <alias>  (1915) 
None

>  <HIPPO Pose ID>  (1915) 
499559

>  <name>  (1915) 
P499559

>  <HIPPO Compound ID>  (1915) 
306368

>  <ref_mols>  (1915) 
A3408a,A5594a

>  <distance_score>  (1915) 
1.711688

>  <inspiration_score>  (1915) 
None

$$$$
P499560
     RDKit          3D

 20 21  0  0  0  0  0  0  0  0999 V2000
   11.8302   14.9842   20.6187 C   0  0  0  0  0  0  0  0  0  0  0  0
   10.6865   15.3170   21.4683 C   0  0  0  0  0  0  0  0  0  0  0  0
    9.6131   15.8963   20.8657 O   0  0  0  0  0  0  0  0  0  0  0  0
    8.7576   16.1286   21.8930 C   0  0  0  0  0  0  0  0  0  0  0  0
    9.1629   15.6989   23.0692 N   0  0  0  0  0  0  0  0  0  0  0  0
   10.4045   15.1816   22.8064 C   0  0  0  0  0  0  0  0  0  0  0  0
   11.2275   14.5488   23.8556 C   0  0  0  0  0  0  0  0  0  0  0  0
   11.0068   13.0433   23.8673 C   0  0  0  0  0  0  0  0  0  0  0  0
    9.7171   12.6685   24.3990 N   0  0  0  0  0  0  0  0  0  0  0  0
    8.7434   11.5582   23.9688 C   0  0  0  0  0  0  0  0  0  0  0  0
    8.8596   10.7220   23.1687 O   0  0  0  0  0  0  0  0  0  0  0  0
    7.4787   11.5947   24.7773 C   0  0  0  0  0  0  0  0  0  0  0  0
    7.0147   10.3729   25.2770 C   0  0  0  0  0  0  0  0  0  0  0  0
    5.8979   10.3323   26.1108 C   0  0  0  0  0  0  0  0  0  0  0  0
    5.2520   11.5097   26.4787 C   0  0  0  0  0  0  0  0  0  0  0  0
    3.8160   11.3546   27.7168 Br  0  0  0  0  0  0  0  0  0  0  0  0
    5.6681   12.7313   25.9357 C   0  0  0  0  0  0  0  0  0  0  0  0
    4.8621   14.2050   26.3866 Cl  0  0  0  0  0  0  0  0  0  0  0  0
    6.7486   12.7731   25.0267 C   0  0  0  0  0  0  0  0  0  0  0  0
    7.0688   14.0407   24.2923 C   0  0  0  0  0  0  0  0  0  0  0  0
  1  2  1  0
  2  3  1  0
  3  4  1  0
  4  5  2  0
  5  6  1  0
  6  7  1  0
  7  8  1  0
  8  9  1  0
  9 10  1  0
 10 11  2  0
 10 12  1  0
 12 13  2  0
 13 14  1  0
 14 15  2  0
 15 16  1  0
 15 17  1  0
 17 18  1  0
 17 19  2  0
 19 20  1  0
  6  2  2  0
 19 12  1  0
M  END
>  <energy_score>  (1916) 
-5.294329

>  <inchikey>  (1916) 
None

>  <smiles>  (1916) 
None

>  <ref_pdb>  (1916) 
A5594a

>  <alias>  (1916) 
None

>  <HIPPO Pose ID>  (1916) 
499560

>  <name>  (1916) 
P499560

>  <HIPPO Compound ID>  (1916) 
306369

>  <ref_mols>  (1916) 
A3408a,A5594a

>  <distance_score>  (1916) 
1.656814

>  <inspiration_score>  (1916) 
None

$$$$
P499561
     RDKit          3D

 20 21  0  0  0  0  0  0  0  0999 V2000
    6.4347   15.0899   25.4348 C   0  0  0  0  0  0  0  0  0  0  0  0
    7.0920   13.9422   26.1856 C   0  0  0  0  0  0  0  0  0  0  0  0
    6.2765   12.6585   26.2919 C   0  0  0  0  0  0  0  0  0  0  0  0
    5.2350   12.5629   27.2077 C   0  0  0  0  0  0  0  0  0  0  0  0
    4.5689   11.3459   27.3805 C   0  0  0  0  0  0  0  0  0  0  0  0
    4.9434   10.2072   26.6596 C   0  0  0  0  0  0  0  0  0  0  0  0
    5.9671   10.2780   25.7267 C   0  0  0  0  0  0  0  0  0  0  0  0
    6.5773   11.5036   25.5263 C   0  0  0  0  0  0  0  0  0  0  0  0
    7.6158   11.6879   24.5204 C   0  0  0  0  0  0  0  0  0  0  0  0
    8.6211   11.1092   24.5519 O   0  0  0  0  0  0  0  0  0  0  0  0
    7.1386   12.7988   23.5814 N   0  0  0  0  0  0  0  0  0  0  0  0
    7.8234   13.4922   22.5536 C   0  0  0  0  0  0  0  0  0  0  0  0
    9.3138   13.4048   22.8056 C   0  0  0  0  0  0  0  0  0  0  0  0
   10.0079   14.3234   21.9266 C   0  0  0  0  0  0  0  0  0  0  0  0
    9.4666   14.6582   20.7265 N   0  0  0  0  0  0  0  0  0  0  0  0
   10.4125   15.3775   20.1721 C   0  0  0  0  0  0  0  0  0  0  0  0
   10.4816   15.8974   18.8152 C   0  0  0  0  0  0  0  0  0  0  0  0
   11.4902   15.6307   20.9663 O   0  0  0  0  0  0  0  0  0  0  0  0
   11.2072   14.9474   22.1011 C   0  0  0  0  0  0  0  0  0  0  0  0
   12.1670   14.9920   23.1836 C   0  0  0  0  0  0  0  0  0  0  0  0
  1  2  1  0
  2  3  1  0
  3  4  2  0
  4  5  1  0
  5  6  2  0
  6  7  1  0
  7  8  2  0
  8  9  1  0
  9 10  2  0
  9 11  1  0
 11 12  1  0
 12 13  1  0
 13 14  1  0
 14 15  1  0
 15 16  2  0
 16 17  1  0
 16 18  1  0
 18 19  1  0
 19 20  1  0
  8  3  1  0
 19 14  2  0
M  END
>  <energy_score>  (1917) 
-1.047254

>  <inchikey>  (1917) 
None

>  <smiles>  (1917) 
None

>  <ref_pdb>  (1917) 
A5594a

>  <alias>  (1917) 
None

>  <HIPPO Pose ID>  (1917) 
499561

>  <name>  (1917) 
P499561

>  <HIPPO Compound ID>  (1917) 
306370

>  <ref_mols>  (1917) 
A3408a,A5594a

>  <distance_score>  (1917) 
1.913313

>  <inspiration_score>  (1917) 
None

$$$$
P499562
     RDKit          3D

 20 21  0  0  0  0  0  0  0  0999 V2000
    4.2821    9.4168   27.1409 C   0  0  0  0  0  0  0  0  0  0  0  0
    5.0546   10.6795   26.9022 C   0  0  0  0  0  0  0  0  0  0  0  0
    5.9567   10.7541   25.8295 C   0  0  0  0  0  0  0  0  0  0  0  0
    6.6380   11.9462   25.5981 C   0  0  0  0  0  0  0  0  0  0  0  0
    7.5236   12.1199   24.4341 C   0  0  0  0  0  0  0  0  0  0  0  0
    8.4541   11.4441   24.2711 O   0  0  0  0  0  0  0  0  0  0  0  0
    7.0320   13.3424   23.6479 N   0  0  0  0  0  0  0  0  0  0  0  0
    7.6321   14.0498   22.5521 C   0  0  1  0  0  0  0  0  0  0  0  0
    6.6989   15.1852   22.1428 C   0  0  0  0  0  0  0  0  0  0  0  0
    9.0038   14.5734   23.0244 C   0  0  0  0  0  0  0  0  0  0  0  0
    9.9223   14.8487   21.9122 C   0  0  0  0  0  0  0  0  0  0  0  0
   11.2944   14.9106   21.9000 C   0  0  0  0  0  0  0  0  0  0  0  0
   11.6825   15.1730   20.6227 O   0  0  0  0  0  0  0  0  0  0  0  0
   10.5164   15.2532   19.9320 C   0  0  0  0  0  0  0  0  0  0  0  0
    9.4349   15.0706   20.6511 N   0  0  0  0  0  0  0  0  0  0  0  0
    6.5382   13.0432   26.4788 C   0  0  0  0  0  0  0  0  0  0  0  0
    7.3403   14.3126   26.3229 C   0  0  0  0  0  0  0  0  0  0  0  0
    5.6408   12.9563   27.5375 C   0  0  0  0  0  0  0  0  0  0  0  0
    4.9064   11.7898   27.7469 C   0  0  0  0  0  0  0  0  0  0  0  0
    3.7372   11.7745   29.2483 Br  0  0  0  0  0  0  0  0  0  0  0  0
  1  2  1  0
  2  3  2  0
  3  4  1  0
  4  5  1  0
  5  6  2  0
  5  7  1  0
  7  8  1  0
  8  9  1  1
  8 10  1  0
 10 11  1  0
 11 12  2  0
 12 13  1  0
 13 14  1  0
 14 15  2  0
  4 16  2  0
 16 17  1  0
 16 18  1  0
 18 19  2  0
 19 20  1  0
 19  2  1  0
 15 11  1  0
M  END
>  <energy_score>  (1918) 
-13.520354

>  <inchikey>  (1918) 
None

>  <smiles>  (1918) 
None

>  <ref_pdb>  (1918) 
A5594a

>  <alias>  (1918) 
None

>  <HIPPO Pose ID>  (1918) 
499562

>  <name>  (1918) 
P499562

>  <HIPPO Compound ID>  (1918) 
306373

>  <ref_mols>  (1918) 
A3408a,A5594a

>  <distance_score>  (1918) 
1.963968

>  <inspiration_score>  (1918) 
None

$$$$
P499563
     RDKit          3D

 20 21  0  0  0  0  0  0  0  0999 V2000
    3.8754    9.7932   27.4491 C   0  0  0  0  0  0  0  0  0  0  0  0
    4.6607   10.8721   26.7575 C   0  0  0  0  0  0  0  0  0  0  0  0
    5.7241   10.5128   25.9220 C   0  0  0  0  0  0  0  0  0  0  0  0
    6.6109   11.4647   25.3696 C   0  0  0  0  0  0  0  0  0  0  0  0
    7.8393   10.8643   24.7552 C   0  0  0  0  0  0  0  0  0  0  0  0
    8.1283    9.8181   25.1626 O   0  0  0  0  0  0  0  0  0  0  0  0
    8.5588   11.7722   23.7709 N   0  0  0  0  0  0  0  0  0  0  0  0
    9.8383   11.6360   23.1428 C   0  0  0  0  0  0  0  0  0  0  0  0
   10.6289   12.9388   23.2638 C   0  0  0  0  0  0  0  0  0  0  0  0
   10.0106   14.0596   22.5098 C   0  0  0  0  0  0  0  0  0  0  0  0
    8.6408   14.2113   22.4296 N   0  0  0  0  0  0  0  0  0  0  0  0
    8.4961   15.2769   21.6753 C   0  0  0  0  0  0  0  0  0  0  0  0
    9.6501   15.8345   21.2370 O   0  0  0  0  0  0  0  0  0  0  0  0
   10.6236   15.0701   21.8052 C   0  0  0  0  0  0  0  0  0  0  0  0
   12.0074   15.4655   21.5326 C   0  0  0  0  0  0  0  0  0  0  0  0
    6.4284   12.8274   25.6800 C   0  0  0  0  0  0  0  0  0  0  0  0
    7.3447   13.9672   25.3280 C   0  0  0  0  0  0  0  0  0  0  0  0
    5.2941   13.1867   26.4304 C   0  0  0  0  0  0  0  0  0  0  0  0
    4.4380   12.2287   26.9781 C   0  0  0  0  0  0  0  0  0  0  0  0
    3.0093   12.8557   28.0629 Br  0  0  0  0  0  0  0  0  0  0  0  0
  1  2  1  0
  2  3  2  0
  3  4  1  0
  4  5  1  0
  5  6  2  0
  5  7  1  0
  7  8  1  0
  8  9  1  0
  9 10  1  0
 10 11  1  0
 11 12  2  0
 12 13  1  0
 13 14  1  0
 14 15  1  0
  4 16  2  0
 16 17  1  0
 16 18  1  0
 18 19  2  0
 19 20  1  0
 19  2  1  0
 14 10  2  0
M  END
>  <energy_score>  (1919) 
-5.803417

>  <inchikey>  (1919) 
None

>  <smiles>  (1919) 
None

>  <ref_pdb>  (1919) 
A5594a

>  <alias>  (1919) 
None

>  <HIPPO Pose ID>  (1919) 
499563

>  <name>  (1919) 
P499563

>  <HIPPO Compound ID>  (1919) 
306375

>  <ref_mols>  (1919) 
A3408a,A5594a

>  <distance_score>  (1919) 
1.644895

>  <inspiration_score>  (1919) 
None

$$$$
P499564
     RDKit          3D

 20 21  0  0  0  0  0  0  0  0999 V2000
    7.7760   14.4880   25.3953 C   0  0  0  0  0  0  0  0  0  0  0  0
    6.8321   13.3218   25.5278 C   0  0  0  0  0  0  0  0  0  0  0  0
    5.6195   13.5336   26.2129 C   0  0  0  0  0  0  0  0  0  0  0  0
    5.0624   15.1196   26.6412 Cl  0  0  0  0  0  0  0  0  0  0  0  0
    4.8401   12.4695   26.6489 C   0  0  0  0  0  0  0  0  0  0  0  0
    5.2398   11.1739   26.3774 C   0  0  0  0  0  0  0  0  0  0  0  0
    4.3265    9.7763   27.2469 Br  0  0  0  0  0  0  0  0  0  0  0  0
    6.3362   10.9341   25.5586 C   0  0  0  0  0  0  0  0  0  0  0  0
    7.1300   12.0082   25.0937 C   0  0  0  0  0  0  0  0  0  0  0  0
    8.3984   11.6110   24.3880 C   0  0  0  0  0  0  0  0  0  0  0  0
    8.7990   10.5501   24.6449 O   0  0  0  0  0  0  0  0  0  0  0  0
    9.0057   12.7193   23.5202 N   0  0  0  0  0  0  0  0  0  0  0  0
   10.2865   12.7963   22.8565 C   0  0  2  0  0  0  0  0  0  0  0  0
   11.3552   13.2561   23.8498 C   0  0  0  0  0  0  0  0  0  0  0  0
   10.3144   13.7099   21.6498 C   0  0  0  0  0  0  0  0  0  0  0  0
    9.8147   15.0629   21.8704 C   0  0  0  0  0  0  0  0  0  0  0  0
   10.4642   16.2377   21.6129 C   0  0  0  0  0  0  0  0  0  0  0  0
    9.5207   17.2091   21.5948 O   0  0  0  0  0  0  0  0  0  0  0  0
    8.3692   16.5725   21.9361 C   0  0  0  0  0  0  0  0  0  0  0  0
    8.4865   15.2824   22.1464 N   0  0  0  0  0  0  0  0  0  0  0  0
  1  2  1  0
  2  3  2  0
  3  4  1  0
  3  5  1  0
  5  6  2  0
  6  7  1  0
  6  8  1  0
  8  9  2  0
  9 10  1  0
 10 11  2  0
 10 12  1  0
 12 13  1  0
 13 14  1  1
 13 15  1  0
 15 16  1  0
 16 17  2  0
 17 18  1  0
 18 19  1  0
 19 20  2  0
  9  2  1  0
 20 16  1  0
M  END
>  <energy_score>  (1920) 
-18.756086

>  <inchikey>  (1920) 
None

>  <smiles>  (1920) 
None

>  <ref_pdb>  (1920) 
A5594a

>  <alias>  (1920) 
None

>  <HIPPO Pose ID>  (1920) 
499564

>  <name>  (1920) 
P499564

>  <HIPPO Compound ID>  (1920) 
306378

>  <ref_mols>  (1920) 
A3408a,A5594a

>  <distance_score>  (1920) 
1.859755

>  <inspiration_score>  (1920) 
None

$$$$
P499565
     RDKit          3D

 20 21  0  0  0  0  0  0  0  0999 V2000
   12.1871   15.5752   21.4538 C   0  0  0  0  0  0  0  0  0  0  0  0
   10.8066   15.2756   21.8235 C   0  0  0  0  0  0  0  0  0  0  0  0
    9.8392   16.0059   21.2042 O   0  0  0  0  0  0  0  0  0  0  0  0
    8.6895   15.5596   21.7632 C   0  0  0  0  0  0  0  0  0  0  0  0
    8.8373   14.5893   22.6357 N   0  0  0  0  0  0  0  0  0  0  0  0
   10.1953   14.3831   22.6707 C   0  0  0  0  0  0  0  0  0  0  0  0
   10.8052   13.3093   23.4923 C   0  0  0  0  0  0  0  0  0  0  0  0
   10.0022   12.0214   23.4074 C   0  0  0  0  0  0  0  0  0  0  0  0
    8.8317   12.0333   24.2312 N   0  0  0  0  0  0  0  0  0  0  0  0
    7.7922   10.9445   24.4958 C   0  0  0  0  0  0  0  0  0  0  0  0
    7.7574    9.8368   24.1495 O   0  0  0  0  0  0  0  0  0  0  0  0
    6.6604   11.4508   25.3430 C   0  0  0  0  0  0  0  0  0  0  0  0
    6.0663   10.4892   26.1750 C   0  0  0  0  0  0  0  0  0  0  0  0
    5.0849   10.8557   27.0830 C   0  0  0  0  0  0  0  0  0  0  0  0
    4.3322    9.5929   28.2683 Br  0  0  0  0  0  0  0  0  0  0  0  0
    4.6753   12.1760   27.1689 C   0  0  0  0  0  0  0  0  0  0  0  0
    5.2061   13.1244   26.2988 C   0  0  0  0  0  0  0  0  0  0  0  0
    4.6244   14.7470   26.4750 Cl  0  0  0  0  0  0  0  0  0  0  0  0
    6.1635   12.7727   25.3326 C   0  0  0  0  0  0  0  0  0  0  0  0
    6.5475   13.7847   24.2899 C   0  0  0  0  0  0  0  0  0  0  0  0
  1  2  1  0
  2  3  1  0
  3  4  1  0
  4  5  2  0
  5  6  1  0
  6  7  1  0
  7  8  1  0
  8  9  1  0
  9 10  1  0
 10 11  2  0
 10 12  1  0
 12 13  2  0
 13 14  1  0
 14 15  1  0
 14 16  2  0
 16 17  1  0
 17 18  1  0
 17 19  2  0
 19 20  1  0
  6  2  2  0
 19 12  1  0
M  END
>  <energy_score>  (1921) 
-4.40705

>  <inchikey>  (1921) 
None

>  <smiles>  (1921) 
None

>  <ref_pdb>  (1921) 
A5594a

>  <alias>  (1921) 
None

>  <HIPPO Pose ID>  (1921) 
499565

>  <name>  (1921) 
P499565

>  <HIPPO Compound ID>  (1921) 
306380

>  <ref_mols>  (1921) 
A3408a,A5594a

>  <distance_score>  (1921) 
1.686157

>  <inspiration_score>  (1921) 
None

$$$$
P499566
     RDKit          3D

 20 21  0  0  0  0  0  0  0  0999 V2000
   10.4938   12.5615   22.4178 C   0  0  0  0  0  0  0  0  0  0  0  0
   10.6161   12.9628   23.8718 C   0  0  1  0  0  0  0  0  0  0  0  0
   11.1201   14.4096   24.0414 C   0  0  0  0  0  0  0  0  0  0  0  0
   10.7153   15.2713   22.9065 C   0  0  0  0  0  0  0  0  0  0  0  0
   11.4822   15.7053   21.8494 C   0  0  0  0  0  0  0  0  0  0  0  0
   10.6508   16.2850   20.9413 O   0  0  0  0  0  0  0  0  0  0  0  0
    9.4274   16.2063   21.5251 C   0  0  0  0  0  0  0  0  0  0  0  0
    9.3981   15.5839   22.6788 N   0  0  0  0  0  0  0  0  0  0  0  0
    9.3394   12.7338   24.5115 N   0  0  0  0  0  0  0  0  0  0  0  0
    8.3876   11.5178   24.4457 C   0  0  0  0  0  0  0  0  0  0  0  0
    8.5202   10.4821   23.9280 O   0  0  0  0  0  0  0  0  0  0  0  0
    7.0823   11.7628   25.1216 C   0  0  0  0  0  0  0  0  0  0  0  0
    6.5010   10.7167   25.8517 C   0  0  0  0  0  0  0  0  0  0  0  0
    5.3394   10.9509   26.5890 C   0  0  0  0  0  0  0  0  0  0  0  0
    4.6883    9.7540   27.6316 Cl  0  0  0  0  0  0  0  0  0  0  0  0
    4.7108   12.1929   26.5516 C   0  0  0  0  0  0  0  0  0  0  0  0
    5.2280   13.2052   25.7541 C   0  0  0  0  0  0  0  0  0  0  0  0
    6.4001   12.9753   25.0347 C   0  0  0  0  0  0  0  0  0  0  0  0
    6.8923   14.0738   24.2236 C   0  0  0  0  0  0  0  0  0  0  0  0
    7.7092   14.8134   24.7559 O   0  0  0  0  0  0  0  0  0  0  0  0
  2  1  1  6
  2  3  1  0
  3  4  1  0
  4  5  2  0
  5  6  1  0
  6  7  1  0
  7  8  2  0
  2  9  1  0
  9 10  1  0
 10 11  2  0
 10 12  1  0
 12 13  2  0
 13 14  1  0
 14 15  1  0
 14 16  2  0
 16 17  1  0
 17 18  2  0
 18 19  1  0
 19 20  2  0
  8  4  1  0
 18 12  1  0
M  END
>  <energy_score>  (1922) 
-2.034145

>  <inchikey>  (1922) 
None

>  <smiles>  (1922) 
None

>  <ref_pdb>  (1922) 
A5594a

>  <alias>  (1922) 
None

>  <HIPPO Pose ID>  (1922) 
499566

>  <name>  (1922) 
P499566

>  <HIPPO Compound ID>  (1922) 
306381

>  <ref_mols>  (1922) 
A3408a,A5594a

>  <distance_score>  (1922) 
1.790186

>  <inspiration_score>  (1922) 
None

$$$$
P499567
     RDKit          3D

 20 21  0  0  0  0  0  0  0  0999 V2000
    4.8522   14.0371   25.6747 C   0  0  0  0  0  0  0  0  0  0  0  0
    5.6701   12.7781   25.6036 C   0  0  0  0  0  0  0  0  0  0  0  0
    5.2622   11.6570   26.3394 C   0  0  0  0  0  0  0  0  0  0  0  0
    5.9075   10.4309   26.1819 C   0  0  0  0  0  0  0  0  0  0  0  0
    7.0309   10.3291   25.3624 C   0  0  0  0  0  0  0  0  0  0  0  0
    7.5048   11.4525   24.6851 C   0  0  0  0  0  0  0  0  0  0  0  0
    8.8159   11.3545   23.9730 C   0  0  0  0  0  0  0  0  0  0  0  0
    9.0563   10.3953   23.3577 O   0  0  0  0  0  0  0  0  0  0  0  0
    9.6854   12.5943   24.2736 N   0  0  0  0  0  0  0  0  0  0  0  0
   10.9981   12.9539   23.8001 C   0  0  0  0  0  0  0  0  0  0  0  0
   11.2501   14.4530   23.8822 C   0  0  0  0  0  0  0  0  0  0  0  0
   10.4141   15.1613   22.8940 C   0  0  0  0  0  0  0  0  0  0  0  0
    9.1770   15.6657   23.2126 N   0  0  0  0  0  0  0  0  0  0  0  0
    8.7424   16.1284   22.0555 C   0  0  0  0  0  0  0  0  0  0  0  0
    9.5863   15.9623   21.0053 O   0  0  0  0  0  0  0  0  0  0  0  0
   10.6704   15.3571   21.5577 C   0  0  0  0  0  0  0  0  0  0  0  0
   11.7874   15.0461   20.6640 C   0  0  0  0  0  0  0  0  0  0  0  0
    6.7639   12.6386   24.7278 C   0  0  0  0  0  0  0  0  0  0  0  0
    7.0072   13.6591   23.6953 C   0  0  0  0  0  0  0  0  0  0  0  0
    7.3203   13.3230   22.5576 O   0  0  0  0  0  0  0  0  0  0  0  0
  1  2  1  0
  2  3  2  0
  3  4  1  0
  4  5  2  0
  5  6  1  0
  6  7  1  0
  7  8  2  0
  7  9  1  0
  9 10  1  0
 10 11  1  0
 11 12  1  0
 12 13  1  0
 13 14  2  0
 14 15  1  0
 15 16  1  0
 16 17  1  0
  6 18  2  0
 18 19  1  0
 19 20  2  0
 18  2  1  0
 16 12  2  0
M  END
>  <energy_score>  (1923) 
-7.745056

>  <inchikey>  (1923) 
None

>  <smiles>  (1923) 
None

>  <ref_pdb>  (1923) 
A5594a

>  <alias>  (1923) 
None

>  <HIPPO Pose ID>  (1923) 
499567

>  <name>  (1923) 
P499567

>  <HIPPO Compound ID>  (1923) 
306383

>  <ref_mols>  (1923) 
A3408a,A5594a

>  <distance_score>  (1923) 
1.462383

>  <inspiration_score>  (1923) 
None

$$$$
P499568
     RDKit          3D

 20 21  0  0  0  0  0  0  0  0999 V2000
    6.9126   14.4547   23.4039 C   0  0  0  0  0  0  0  0  0  0  0  0
    7.2223   14.1616   24.7712 O   0  0  0  0  0  0  0  0  0  0  0  0
    6.9839   12.8349   25.0148 C   0  0  0  0  0  0  0  0  0  0  0  0
    5.8630   12.5450   25.7897 C   0  0  0  0  0  0  0  0  0  0  0  0
    5.5471   11.2241   26.0535 C   0  0  0  0  0  0  0  0  0  0  0  0
    6.3438   10.2116   25.5215 C   0  0  0  0  0  0  0  0  0  0  0  0
    7.5061   10.4929   24.7769 C   0  0  0  0  0  0  0  0  0  0  0  0
    8.3075    9.3678   24.1896 C   0  0  0  0  0  0  0  0  0  0  0  0
    7.8572   11.8324   24.5611 C   0  0  0  0  0  0  0  0  0  0  0  0
    9.1886   12.2002   23.9469 C   0  0  0  0  0  0  0  0  0  0  0  0
    9.6596   11.5358   23.1188 O   0  0  0  0  0  0  0  0  0  0  0  0
    9.7400   13.4413   24.6585 N   0  0  0  0  0  0  0  0  0  0  0  0
   11.0282   14.0744   24.5698 C   0  0  2  0  0  0  0  0  0  0  0  0
   10.9342   15.3793   25.3551 C   0  0  0  0  0  0  0  0  0  0  0  0
   11.5737   14.2255   23.1570 C   0  0  0  0  0  0  0  0  0  0  0  0
   10.7001   14.9056   22.1881 C   0  0  0  0  0  0  0  0  0  0  0  0
   10.8213   14.8826   20.8212 C   0  0  0  0  0  0  0  0  0  0  0  0
    9.8537   15.6771   20.2976 O   0  0  0  0  0  0  0  0  0  0  0  0
    9.2124   16.1608   21.3913 C   0  0  0  0  0  0  0  0  0  0  0  0
    9.6513   15.7133   22.5442 N   0  0  0  0  0  0  0  0  0  0  0  0
  1  2  1  0
  2  3  1  0
  3  4  2  0
  4  5  1  0
  5  6  2  0
  6  7  1  0
  7  8  1  0
  7  9  2  0
  9 10  1  0
 10 11  2  0
 10 12  1  0
 12 13  1  0
 13 14  1  6
 13 15  1  0
 15 16  1  0
 16 17  2  0
 17 18  1  0
 18 19  1  0
 19 20  2  0
  9  3  1  0
 20 16  1  0
M  END
>  <energy_score>  (1924) 
-23.692681

>  <inchikey>  (1924) 
None

>  <smiles>  (1924) 
None

>  <ref_pdb>  (1924) 
A5594a

>  <alias>  (1924) 
None

>  <HIPPO Pose ID>  (1924) 
499568

>  <name>  (1924) 
P499568

>  <HIPPO Compound ID>  (1924) 
306384

>  <ref_mols>  (1924) 
A3408a,A5594a

>  <distance_score>  (1924) 
1.730383

>  <inspiration_score>  (1924) 
None

$$$$
P499569
     RDKit          3D

 20 21  0  0  0  0  0  0  0  0999 V2000
    8.1709   14.7402   25.7366 C   0  0  0  0  0  0  0  0  0  0  0  0
    6.8246   14.3249   25.5296 O   0  0  0  0  0  0  0  0  0  0  0  0
    6.6601   12.9713   25.6543 C   0  0  0  0  0  0  0  0  0  0  0  0
    5.7789   12.5287   26.6280 C   0  0  0  0  0  0  0  0  0  0  0  0
    5.5394   11.1681   26.7457 C   0  0  0  0  0  0  0  0  0  0  0  0
    6.2463   10.2658   25.9453 C   0  0  0  0  0  0  0  0  0  0  0  0
    7.1675   10.6947   24.9837 C   0  0  0  0  0  0  0  0  0  0  0  0
    8.0586    9.7283   24.2676 C   0  0  0  0  0  0  0  0  0  0  0  0
    7.2499   12.0648   24.7619 C   0  0  0  0  0  0  0  0  0  0  0  0
    7.8489   12.6521   23.5429 C   0  0  0  0  0  0  0  0  0  0  0  0
    8.9581   12.4438   23.2568 O   0  0  0  0  0  0  0  0  0  0  0  0
    6.8042   13.5837   22.8891 N   0  0  0  0  0  0  0  0  0  0  0  0
    6.9367   14.5208   21.8085 C   0  0  0  0  0  0  0  0  0  0  0  0
    7.7561   15.7338   22.2636 C   0  0  0  0  0  0  0  0  0  0  0  0
    9.1934   15.4687   22.0612 C   0  0  0  0  0  0  0  0  0  0  0  0
   10.2785   15.4064   22.9018 C   0  0  0  0  0  0  0  0  0  0  0  0
   11.3713   15.0865   22.1561 O   0  0  0  0  0  0  0  0  0  0  0  0
   10.8654   14.9575   20.8936 C   0  0  0  0  0  0  0  0  0  0  0  0
   11.8050   14.6340   19.8255 C   0  0  0  0  0  0  0  0  0  0  0  0
    9.5843   15.1943   20.7853 N   0  0  0  0  0  0  0  0  0  0  0  0
  1  2  1  0
  2  3  1  0
  3  4  2  0
  4  5  1  0
  5  6  2  0
  6  7  1  0
  7  8  1  0
  7  9  2  0
  9 10  1  0
 10 11  2  0
 10 12  1  0
 12 13  1  0
 13 14  1  0
 14 15  1  0
 15 16  2  0
 16 17  1  0
 17 18  1  0
 18 19  1  0
 18 20  2  0
  9  3  1  0
 20 15  1  0
M  END
>  <energy_score>  (1925) 
-9.54907

>  <inchikey>  (1925) 
None

>  <smiles>  (1925) 
None

>  <ref_pdb>  (1925) 
A5594a

>  <alias>  (1925) 
None

>  <HIPPO Pose ID>  (1925) 
499569

>  <name>  (1925) 
P499569

>  <HIPPO Compound ID>  (1925) 
306385

>  <ref_mols>  (1925) 
A3408a,A5594a

>  <distance_score>  (1925) 
1.972879

>  <inspiration_score>  (1925) 
None

$$$$
P499570
     RDKit          3D

 20 21  0  0  0  0  0  0  0  0999 V2000
    6.8691   14.4993   23.5158 C   0  0  0  0  0  0  0  0  0  0  0  0
    7.3123   14.2097   24.8467 O   0  0  0  0  0  0  0  0  0  0  0  0
    7.0681   12.8876   25.0953 C   0  0  0  0  0  0  0  0  0  0  0  0
    5.9315   12.5930   25.8482 C   0  0  0  0  0  0  0  0  0  0  0  0
    5.5901   11.2708   26.0728 C   0  0  0  0  0  0  0  0  0  0  0  0
    6.3762   10.2611   25.5222 C   0  0  0  0  0  0  0  0  0  0  0  0
    7.5506   10.5485   24.7971 C   0  0  0  0  0  0  0  0  0  0  0  0
    8.3323    9.4203   24.1861 C   0  0  0  0  0  0  0  0  0  0  0  0
    7.9299   11.8911   24.6222 C   0  0  0  0  0  0  0  0  0  0  0  0
    9.2704   12.2517   24.0236 C   0  0  0  0  0  0  0  0  0  0  0  0
    9.7026   11.5877   23.1708 O   0  0  0  0  0  0  0  0  0  0  0  0
    9.8915   13.4496   24.7689 N   0  0  0  0  0  0  0  0  0  0  0  0
   11.1353   14.1392   24.5561 C   0  0  0  0  0  0  0  0  0  0  0  0
   11.5582   14.2519   23.1155 C   0  0  0  0  0  0  0  0  0  0  0  0
   10.6405   15.0283   22.2672 C   0  0  0  0  0  0  0  0  0  0  0  0
    9.5060   15.6600   22.7067 N   0  0  0  0  0  0  0  0  0  0  0  0
    9.0671   16.2728   21.6284 C   0  0  0  0  0  0  0  0  0  0  0  0
    9.7948   16.0632   20.5029 O   0  0  0  0  0  0  0  0  0  0  0  0
   10.8214   15.2892   20.9349 C   0  0  0  0  0  0  0  0  0  0  0  0
   11.8813   14.9629   19.9877 C   0  0  0  0  0  0  0  0  0  0  0  0
  1  2  1  0
  2  3  1  0
  3  4  2  0
  4  5  1  0
  5  6  2  0
  6  7  1  0
  7  8  1  0
  7  9  2  0
  9 10  1  0
 10 11  2  0
 10 12  1  0
 12 13  1  0
 13 14  1  0
 14 15  1  0
 15 16  1  0
 16 17  2  0
 17 18  1  0
 18 19  1  0
 19 20  1  0
  9  3  1  0
 19 15  2  0
M  END
>  <energy_score>  (1926) 
-24.477086

>  <inchikey>  (1926) 
None

>  <smiles>  (1926) 
None

>  <ref_pdb>  (1926) 
A5594a

>  <alias>  (1926) 
None

>  <HIPPO Pose ID>  (1926) 
499570

>  <name>  (1926) 
P499570

>  <HIPPO Compound ID>  (1926) 
306386

>  <ref_mols>  (1926) 
A3408a,A5594a

>  <distance_score>  (1926) 
1.582871

>  <inspiration_score>  (1926) 
None

$$$$
P499571
     RDKit          3D

 20 21  0  0  0  0  0  0  0  0999 V2000
    2.9583   11.3149   27.6188 C   0  0  0  0  0  0  0  0  0  0  0  0
    4.3682   11.7389   27.9810 C   0  0  0  0  0  0  0  0  0  0  0  0
    5.3299   11.7242   26.8191 C   0  0  0  0  0  0  0  0  0  0  0  0
    5.8997   10.5258   26.3810 C   0  0  0  0  0  0  0  0  0  0  0  0
    6.9349   10.5395   25.4435 C   0  0  0  0  0  0  0  0  0  0  0  0
    7.3892   11.7527   24.9121 C   0  0  0  0  0  0  0  0  0  0  0  0
    8.6581   11.7212   24.1165 C   0  0  0  0  0  0  0  0  0  0  0  0
    8.8181   10.8548   23.3545 O   0  0  0  0  0  0  0  0  0  0  0  0
    9.6014   12.8679   24.5402 N   0  0  0  0  0  0  0  0  0  0  0  0
   10.9083   13.2433   24.0419 C   0  0  2  0  0  0  0  0  0  0  0  0
   11.3837   14.5550   24.6660 C   0  0  0  0  0  0  0  0  0  0  0  0
   10.9631   13.2614   22.5174 C   0  0  0  0  0  0  0  0  0  0  0  0
   10.3656   14.4574   21.8999 C   0  0  0  0  0  0  0  0  0  0  0  0
   10.9395   15.2772   20.9604 C   0  0  0  0  0  0  0  0  0  0  0  0
   10.0496   16.2571   20.6647 O   0  0  0  0  0  0  0  0  0  0  0  0
    8.9869   15.9846   21.4671 C   0  0  0  0  0  0  0  0  0  0  0  0
    9.1123   14.9171   22.2203 N   0  0  0  0  0  0  0  0  0  0  0  0
    6.6833   12.9329   25.1843 C   0  0  0  0  0  0  0  0  0  0  0  0
    6.9162   14.2039   24.4246 C   0  0  0  0  0  0  0  0  0  0  0  0
    5.6895   12.9137   26.1754 C   0  0  0  0  0  0  0  0  0  0  0  0
  1  2  1  0
  2  3  1  0
  3  4  2  0
  4  5  1  0
  5  6  2  0
  6  7  1  0
  7  8  2  0
  7  9  1  0
  9 10  1  0
 10 11  1  1
 10 12  1  0
 12 13  1  0
 13 14  2  0
 14 15  1  0
 15 16  1  0
 16 17  2  0
  6 18  1  0
 18 19  1  0
 18 20  2  0
 20  3  1  0
 17 13  1  0
M  END
>  <energy_score>  (1927) 
-4.127366

>  <inchikey>  (1927) 
None

>  <smiles>  (1927) 
None

>  <ref_pdb>  (1927) 
A5594a

>  <alias>  (1927) 
None

>  <HIPPO Pose ID>  (1927) 
499571

>  <name>  (1927) 
P499571

>  <HIPPO Compound ID>  (1927) 
306388

>  <ref_mols>  (1927) 
A3408a,A5594a

>  <distance_score>  (1927) 
1.435605

>  <inspiration_score>  (1927) 
None

$$$$
P499572
     RDKit          3D

 20 21  0  0  0  0  0  0  0  0999 V2000
    4.0686   10.2271   29.5348 C   0  0  0  0  0  0  0  0  0  0  0  0
    3.5745   10.8537   28.2396 C   0  0  0  0  0  0  0  0  0  0  0  0
    4.7113   11.1400   27.2894 C   0  0  0  0  0  0  0  0  0  0  0  0
    5.2044   10.1158   26.4698 C   0  0  0  0  0  0  0  0  0  0  0  0
    6.2642   10.3460   25.6018 C   0  0  0  0  0  0  0  0  0  0  0  0
    6.7923   11.6270   25.5344 C   0  0  0  0  0  0  0  0  0  0  0  0
    7.7693   11.9567   24.4916 C   0  0  0  0  0  0  0  0  0  0  0  0
    8.8312   11.4931   24.4722 O   0  0  0  0  0  0  0  0  0  0  0  0
    7.1406   13.0281   23.6048 N   0  0  0  0  0  0  0  0  0  0  0  0
    7.7099   13.8236   22.5686 C   0  0  1  0  0  0  0  0  0  0  0  0
    6.6013   14.5136   21.8080 C   0  0  0  0  0  0  0  0  0  0  0  0
    8.7546   14.7950   23.1437 C   0  0  0  0  0  0  0  0  0  0  0  0
    9.8385   14.9922   22.1650 C   0  0  0  0  0  0  0  0  0  0  0  0
   11.1989   14.8620   22.2990 C   0  0  0  0  0  0  0  0  0  0  0  0
   11.7509   15.0375   21.0676 O   0  0  0  0  0  0  0  0  0  0  0  0
   10.6867   15.2630   20.2546 C   0  0  0  0  0  0  0  0  0  0  0  0
    9.5224   15.2564   20.8565 N   0  0  0  0  0  0  0  0  0  0  0  0
    6.3567   12.6694   26.3726 C   0  0  0  0  0  0  0  0  0  0  0  0
    6.9437   14.0551   26.3161 C   0  0  0  0  0  0  0  0  0  0  0  0
    5.3002   12.4096   27.2433 C   0  0  0  0  0  0  0  0  0  0  0  0
  1  2  1  0
  2  3  1  0
  3  4  2  0
  4  5  1  0
  5  6  2  0
  6  7  1  0
  7  8  2  0
  7  9  1  0
  9 10  1  0
 10 11  1  1
 10 12  1  0
 12 13  1  0
 13 14  2  0
 14 15  1  0
 15 16  1  0
 16 17  2  0
  6 18  1  0
 18 19  1  0
 18 20  2  0
 20  3  1  0
 17 13  1  0
M  END
>  <energy_score>  (1928) 
-10.692659

>  <inchikey>  (1928) 
None

>  <smiles>  (1928) 
None

>  <ref_pdb>  (1928) 
A5594a

>  <alias>  (1928) 
None

>  <HIPPO Pose ID>  (1928) 
499572

>  <name>  (1928) 
P499572

>  <HIPPO Compound ID>  (1928) 
306388

>  <ref_mols>  (1928) 
A3408a,A5594a

>  <distance_score>  (1928) 
1.79878

>  <inspiration_score>  (1928) 
None

$$$$
P499573
     RDKit          3D

 20 21  0  0  0  0  0  0  0  0999 V2000
    2.2068   13.2402   27.1700 C   0  0  0  0  0  0  0  0  0  0  0  0
    3.2936   12.4554   27.8899 C   0  0  0  0  0  0  0  0  0  0  0  0
    4.4434   12.0747   26.9909 C   0  0  0  0  0  0  0  0  0  0  0  0
    4.6532   10.7468   26.6359 C   0  0  0  0  0  0  0  0  0  0  0  0
    5.7266   10.4096   25.8209 C   0  0  0  0  0  0  0  0  0  0  0  0
    6.6391   11.3758   25.3577 C   0  0  0  0  0  0  0  0  0  0  0  0
    7.8549   10.7909   24.7039 C   0  0  0  0  0  0  0  0  0  0  0  0
    8.1263    9.7093   25.0222 O   0  0  0  0  0  0  0  0  0  0  0  0
    8.5894   11.7656   23.7980 N   0  0  0  0  0  0  0  0  0  0  0  0
    9.8643   11.6611   23.1598 C   0  0  0  0  0  0  0  0  0  0  0  0
   10.6367   12.9708   23.2871 C   0  0  0  0  0  0  0  0  0  0  0  0
   10.0032   14.0804   22.5304 C   0  0  0  0  0  0  0  0  0  0  0  0
    8.6314   14.2202   22.4586 N   0  0  0  0  0  0  0  0  0  0  0  0
    8.4734   15.2734   21.6904 C   0  0  0  0  0  0  0  0  0  0  0  0
    9.6201   15.8366   21.2389 O   0  0  0  0  0  0  0  0  0  0  0  0
   10.6038   15.0850   21.8074 C   0  0  0  0  0  0  0  0  0  0  0  0
   11.9839   15.4806   21.5155 C   0  0  0  0  0  0  0  0  0  0  0  0
    6.4613   12.7233   25.7364 C   0  0  0  0  0  0  0  0  0  0  0  0
    7.3615   13.8807   25.3981 C   0  0  0  0  0  0  0  0  0  0  0  0
    5.3352   13.0477   26.5206 C   0  0  0  0  0  0  0  0  0  0  0  0
  1  2  1  0
  2  3  1  0
  3  4  2  0
  4  5  1  0
  5  6  2  0
  6  7  1  0
  7  8  2  0
  7  9  1  0
  9 10  1  0
 10 11  1  0
 11 12  1  0
 12 13  1  0
 13 14  2  0
 14 15  1  0
 15 16  1  0
 16 17  1  0
  6 18  1  0
 18 19  1  0
 18 20  2  0
 20  3  1  0
 16 12  2  0
M  END
>  <energy_score>  (1929) 
-8.416434

>  <inchikey>  (1929) 
None

>  <smiles>  (1929) 
None

>  <ref_pdb>  (1929) 
A5594a

>  <alias>  (1929) 
None

>  <HIPPO Pose ID>  (1929) 
499573

>  <name>  (1929) 
P499573

>  <HIPPO Compound ID>  (1929) 
306390

>  <ref_mols>  (1929) 
A3408a,A5594a

>  <distance_score>  (1929) 
1.635688

>  <inspiration_score>  (1929) 
None

$$$$
P499574
     RDKit          3D

 20 21  0  0  0  0  0  0  0  0999 V2000
    9.7599   15.4532   19.7953 C   0  0  0  0  0  0  0  0  0  0  0  0
   10.4775   15.4668   21.0580 C   0  0  0  0  0  0  0  0  0  0  0  0
   10.1364   15.0021   22.2418 N   0  0  0  0  0  0  0  0  0  0  0  0
   11.3041   15.1166   22.9505 C   0  0  0  0  0  0  0  0  0  0  0  0
   11.4962   14.4432   24.2401 C   0  0  0  0  0  0  0  0  0  0  0  0
   11.2478   12.9570   24.0477 C   0  0  0  0  0  0  0  0  0  0  0  0
    9.9225   12.5842   24.4549 N   0  0  0  0  0  0  0  0  0  0  0  0
    8.9682   11.5192   23.8929 C   0  0  0  0  0  0  0  0  0  0  0  0
    9.1325   10.7239   23.0615 O   0  0  0  0  0  0  0  0  0  0  0  0
    7.6645   11.5921   24.6135 C   0  0  0  0  0  0  0  0  0  0  0  0
    7.1551   10.4026   25.1449 C   0  0  0  0  0  0  0  0  0  0  0  0
    6.0129   10.4308   25.9380 C   0  0  0  0  0  0  0  0  0  0  0  0
    5.3901   11.6450   26.2125 C   0  0  0  0  0  0  0  0  0  0  0  0
    5.8617   12.8416   25.6469 C   0  0  0  0  0  0  0  0  0  0  0  0
    5.1005   14.1158   25.9062 C   0  0  0  0  0  0  0  0  0  0  0  0
    4.3913   14.5174   24.7481 O   0  0  0  0  0  0  0  0  0  0  0  0
    6.9845   12.8137   24.7912 C   0  0  0  0  0  0  0  0  0  0  0  0
    7.4241   14.0588   24.0596 C   0  0  0  0  0  0  0  0  0  0  0  0
   12.2584   15.7324   22.1858 C   0  0  0  0  0  0  0  0  0  0  0  0
   11.7344   15.9717   20.9707 O   0  0  0  0  0  0  0  0  0  0  0  0
  1  2  1  0
  2  3  2  0
  3  4  1  0
  4  5  1  0
  5  6  1  0
  6  7  1  0
  7  8  1  0
  8  9  2  0
  8 10  1  0
 10 11  2  0
 11 12  1  0
 12 13  2  0
 13 14  1  0
 14 15  1  0
 15 16  1  0
 14 17  2  0
 17 18  1  0
  4 19  2  0
 19 20  1  0
 20  2  1  0
 17 10  1  0
M  END
>  <energy_score>  (1930) 
-5.152382

>  <inchikey>  (1930) 
None

>  <smiles>  (1930) 
None

>  <ref_pdb>  (1930) 
A5594a

>  <alias>  (1930) 
None

>  <HIPPO Pose ID>  (1930) 
499574

>  <name>  (1930) 
P499574

>  <HIPPO Compound ID>  (1930) 
306401

>  <ref_mols>  (1930) 
A3408a,A5594a

>  <distance_score>  (1930) 
1.712956

>  <inspiration_score>  (1930) 
None

$$$$
P499575
     RDKit          3D

 20 21  0  0  0  0  0  0  0  0999 V2000
   11.8828   15.2247   20.1896 C   0  0  0  0  0  0  0  0  0  0  0  0
   10.7140   15.2936   21.0619 C   0  0  0  0  0  0  0  0  0  0  0  0
    9.8160   16.2851   20.8336 O   0  0  0  0  0  0  0  0  0  0  0  0
    8.8751   16.0932   21.7929 C   0  0  0  0  0  0  0  0  0  0  0  0
    9.0923   15.0681   22.5882 N   0  0  0  0  0  0  0  0  0  0  0  0
   10.2652   14.5381   22.1128 C   0  0  0  0  0  0  0  0  0  0  0  0
   10.9044   13.3231   22.6481 C   0  0  0  0  0  0  0  0  0  0  0  0
   10.8120   13.2081   24.1500 C   0  0  0  0  0  0  0  0  0  0  0  0
    9.5034   12.7992   24.5848 N   0  0  0  0  0  0  0  0  0  0  0  0
    8.6313   11.6075   24.1483 C   0  0  0  0  0  0  0  0  0  0  0  0
    8.8656   10.7263   23.4249 O   0  0  0  0  0  0  0  0  0  0  0  0
    7.3255   11.6209   24.8847 C   0  0  0  0  0  0  0  0  0  0  0  0
    6.8971   10.4056   25.4259 C   0  0  0  0  0  0  0  0  0  0  0  0
    5.7715   10.3654   26.2400 C   0  0  0  0  0  0  0  0  0  0  0  0
    5.0779   11.5359   26.5254 C   0  0  0  0  0  0  0  0  0  0  0  0
    5.4364   12.7535   25.9271 C   0  0  0  0  0  0  0  0  0  0  0  0
    4.5822   13.9629   26.2278 C   0  0  0  0  0  0  0  0  0  0  0  0
    5.2776   14.8661   27.0788 O   0  0  0  0  0  0  0  0  0  0  0  0
    6.5471   12.7870   25.0525 C   0  0  0  0  0  0  0  0  0  0  0  0
    6.8471   14.0148   24.2396 C   0  0  0  0  0  0  0  0  0  0  0  0
  1  2  1  0
  2  3  1  0
  3  4  1  0
  4  5  2  0
  5  6  1  0
  6  7  1  0
  7  8  1  0
  8  9  1  0
  9 10  1  0
 10 11  2  0
 10 12  1  0
 12 13  2  0
 13 14  1  0
 14 15  2  0
 15 16  1  0
 16 17  1  0
 17 18  1  0
 16 19  2  0
 19 20  1  0
  6  2  2  0
 19 12  1  0
M  END
>  <energy_score>  (1931) 
-6.352039

>  <inchikey>  (1931) 
None

>  <smiles>  (1931) 
None

>  <ref_pdb>  (1931) 
A5594a

>  <alias>  (1931) 
None

>  <HIPPO Pose ID>  (1931) 
499575

>  <name>  (1931) 
P499575

>  <HIPPO Compound ID>  (1931) 
306402

>  <ref_mols>  (1931) 
A3408a,A5594a

>  <distance_score>  (1931) 
1.903877

>  <inspiration_score>  (1931) 
None

$$$$
P499576
     RDKit          3D

 20 21  0  0  0  0  0  0  0  0999 V2000
    5.1630   13.7641   26.6385 C   0  0  0  0  0  0  0  0  0  0  0  0
    6.0750   12.7179   26.0514 C   0  0  0  0  0  0  0  0  0  0  0  0
    5.7239   11.3757   26.2224 C   0  0  0  0  0  0  0  0  0  0  0  0
    6.4739   10.3685   25.6296 C   0  0  0  0  0  0  0  0  0  0  0  0
    7.6221   10.6687   24.8857 C   0  0  0  0  0  0  0  0  0  0  0  0
    8.3562    9.5465   24.2000 C   0  0  0  0  0  0  0  0  0  0  0  0
    8.0129   12.0205   24.7302 C   0  0  0  0  0  0  0  0  0  0  0  0
    9.1819   12.3059   23.8324 C   0  0  0  0  0  0  0  0  0  0  0  0
    9.1096   11.8610   22.7616 O   0  0  0  0  0  0  0  0  0  0  0  0
   10.2996   13.1248   24.4972 N   0  0  0  0  0  0  0  0  0  0  0  0
   11.5395   13.6565   23.9456 C   0  0  2  0  0  0  0  0  0  0  0  0
   12.6780   13.6119   24.9408 C   0  0  0  0  0  0  0  0  0  0  0  0
   11.3724   15.0952   23.4482 C   0  0  0  0  0  0  0  0  0  0  0  0
   10.4082   15.1600   22.3437 C   0  0  0  0  0  0  0  0  0  0  0  0
   10.6262   14.9415   21.0075 C   0  0  0  0  0  0  0  0  0  0  0  0
    9.4256   15.0269   20.3784 O   0  0  0  0  0  0  0  0  0  0  0  0
    8.5491   15.2764   21.3832 C   0  0  0  0  0  0  0  0  0  0  0  0
    9.0798   15.3942   22.5752 N   0  0  0  0  0  0  0  0  0  0  0  0
    7.2242   13.0540   25.2905 C   0  0  0  0  0  0  0  0  0  0  0  0
    7.4839   14.4941   24.9512 C   0  0  0  0  0  0  0  0  0  0  0  0
  1  2  1  0
  2  3  2  0
  3  4  1  0
  4  5  2  0
  5  6  1  0
  5  7  1  0
  7  8  1  0
  8  9  2  0
  8 10  1  0
 10 11  1  0
 11 12  1  1
 11 13  1  0
 13 14  1  0
 14 15  2  0
 15 16  1  0
 16 17  1  0
 17 18  2  0
  7 19  2  0
 19 20  1  0
 19  2  1  0
 18 14  1  0
M  END
>  <energy_score>  (1932) 
-22.050562

>  <inchikey>  (1932) 
None

>  <smiles>  (1932) 
None

>  <ref_pdb>  (1932) 
A5594a

>  <alias>  (1932) 
None

>  <HIPPO Pose ID>  (1932) 
499576

>  <name>  (1932) 
P499576

>  <HIPPO Compound ID>  (1932) 
306405

>  <ref_mols>  (1932) 
A3408a,A5594a

>  <distance_score>  (1932) 
1.841736

>  <inspiration_score>  (1932) 
None

$$$$
P499577
     RDKit          3D

 20 21  0  0  0  0  0  0  0  0999 V2000
    9.9050   15.6470   19.9406 C   0  0  0  0  0  0  0  0  0  0  0  0
   10.4178   15.2498   21.2496 C   0  0  0  0  0  0  0  0  0  0  0  0
    9.9507   14.3527   22.0926 N   0  0  0  0  0  0  0  0  0  0  0  0
   10.9925   14.1829   22.9686 C   0  0  0  0  0  0  0  0  0  0  0  0
   11.0527   13.0488   23.9104 C   0  0  0  0  0  0  0  0  0  0  0  0
   10.0399   11.9683   23.5600 C   0  0  0  0  0  0  0  0  0  0  0  0
    8.8422   12.1536   24.3170 N   0  0  0  0  0  0  0  0  0  0  0  0
    7.6333   11.2466   24.4932 C   0  0  0  0  0  0  0  0  0  0  0  0
    7.4422   10.1690   24.1162 O   0  0  0  0  0  0  0  0  0  0  0  0
    6.5526   11.9830   25.2444 C   0  0  0  0  0  0  0  0  0  0  0  0
    5.7500   11.2702   26.1580 C   0  0  0  0  0  0  0  0  0  0  0  0
    5.7304    9.7840   26.2678 C   0  0  0  0  0  0  0  0  0  0  0  0
    4.8260   11.9558   26.9459 C   0  0  0  0  0  0  0  0  0  0  0  0
    4.6951   13.3305   26.8393 C   0  0  0  0  0  0  0  0  0  0  0  0
    5.4295   14.0495   25.8913 C   0  0  0  0  0  0  0  0  0  0  0  0
    5.1651   15.5279   25.7595 C   0  0  0  0  0  0  0  0  0  0  0  0
    6.3175   13.3674   25.0318 C   0  0  0  0  0  0  0  0  0  0  0  0
    6.9166   14.1266   23.8663 C   0  0  0  0  0  0  0  0  0  0  0  0
   11.9646   15.1138   22.7143 C   0  0  0  0  0  0  0  0  0  0  0  0
   11.6085   15.8067   21.6092 O   0  0  0  0  0  0  0  0  0  0  0  0
  1  2  1  0
  2  3  2  0
  3  4  1  0
  4  5  1  0
  5  6  1  0
  6  7  1  0
  7  8  1  0
  8  9  2  0
  8 10  1  0
 10 11  2  0
 11 12  1  0
 11 13  1  0
 13 14  2  0
 14 15  1  0
 15 16  1  0
 15 17  2  0
 17 18  1  0
  4 19  2  0
 19 20  1  0
 20  2  1  0
 17 10  1  0
M  END
>  <energy_score>  (1933) 
-11.271125

>  <inchikey>  (1933) 
None

>  <smiles>  (1933) 
None

>  <ref_pdb>  (1933) 
A5594a

>  <alias>  (1933) 
None

>  <HIPPO Pose ID>  (1933) 
499577

>  <name>  (1933) 
P499577

>  <HIPPO Compound ID>  (1933) 
306406

>  <ref_mols>  (1933) 
A3408a,A5594a

>  <distance_score>  (1933) 
1.876938

>  <inspiration_score>  (1933) 
None

$$$$
P499578
     RDKit          3D

 20 21  0  0  0  0  0  0  0  0999 V2000
   12.0059   15.5034   21.4843 C   0  0  0  0  0  0  0  0  0  0  0  0
   10.6257   15.1254   21.7942 C   0  0  0  0  0  0  0  0  0  0  0  0
    9.6445   15.8856   21.2357 O   0  0  0  0  0  0  0  0  0  0  0  0
    8.4965   15.3441   21.7109 C   0  0  0  0  0  0  0  0  0  0  0  0
    8.6519   14.2879   22.4779 N   0  0  0  0  0  0  0  0  0  0  0  0
   10.0235   14.1328   22.5307 C   0  0  0  0  0  0  0  0  0  0  0  0
   10.6570   13.0217   23.2829 C   0  0  0  0  0  0  0  0  0  0  0  0
    9.8878   11.7141   23.1389 C   0  0  0  0  0  0  0  0  0  0  0  0
    8.6059   11.8094   23.7633 N   0  0  0  0  0  0  0  0  0  0  0  0
    7.8927   10.8549   24.7041 C   0  0  0  0  0  0  0  0  0  0  0  0
    8.1915    9.7970   25.0697 O   0  0  0  0  0  0  0  0  0  0  0  0
    6.6568   11.4229   25.3287 C   0  0  0  0  0  0  0  0  0  0  0  0
    5.7699   10.4325   25.7997 C   0  0  0  0  0  0  0  0  0  0  0  0
    4.6612   10.7513   26.5645 C   0  0  0  0  0  0  0  0  0  0  0  0
    4.3797   12.0831   26.8151 C   0  0  0  0  0  0  0  0  0  0  0  0
    5.2293   13.0899   26.3378 C   0  0  0  0  0  0  0  0  0  0  0  0
    4.8062   14.4916   26.5939 C   0  0  0  0  0  0  0  0  0  0  0  0
    3.9719   14.7785   27.4459 O   0  0  0  0  0  0  0  0  0  0  0  0
    6.4301   12.7814   25.6566 C   0  0  0  0  0  0  0  0  0  0  0  0
    7.4006   13.9025   25.3883 C   0  0  0  0  0  0  0  0  0  0  0  0
  1  2  1  0
  2  3  1  0
  3  4  1  0
  4  5  2  0
  5  6  1  0
  6  7  1  0
  7  8  1  0
  8  9  1  0
  9 10  1  0
 10 11  2  0
 10 12  1  0
 12 13  2  0
 13 14  1  0
 14 15  2  0
 15 16  1  0
 16 17  1  0
 17 18  2  0
 16 19  2  0
 19 20  1  0
  6  2  2  0
 19 12  1  0
M  END
>  <energy_score>  (1934) 
-5.565874

>  <inchikey>  (1934) 
None

>  <smiles>  (1934) 
None

>  <ref_pdb>  (1934) 
A5594a

>  <alias>  (1934) 
None

>  <HIPPO Pose ID>  (1934) 
499578

>  <name>  (1934) 
P499578

>  <HIPPO Compound ID>  (1934) 
306409

>  <ref_mols>  (1934) 
A3408a,A5594a

>  <distance_score>  (1934) 
1.643993

>  <inspiration_score>  (1934) 
None

$$$$
P499579
     RDKit          3D

 20 21  0  0  0  0  0  0  0  0999 V2000
    6.0540   14.4826   22.0931 C   0  0  0  0  0  0  0  0  0  0  0  0
    7.2017   13.9233   22.8992 C   0  0  0  0  0  0  0  0  0  0  0  0
    7.0306   14.1446   24.4041 C   0  0  0  0  0  0  0  0  0  0  0  0
    6.6854   12.8783   25.1613 C   0  0  0  0  0  0  0  0  0  0  0  0
    5.5387   12.8976   25.9743 C   0  0  0  0  0  0  0  0  0  0  0  0
    5.0451   11.7302   26.5583 C   0  0  0  0  0  0  0  0  0  0  0  0
    5.6723   10.5147   26.3206 C   0  0  0  0  0  0  0  0  0  0  0  0
    6.8351   10.4811   25.5567 C   0  0  0  0  0  0  0  0  0  0  0  0
    7.3826   11.6614   25.0287 C   0  0  0  0  0  0  0  0  0  0  0  0
    8.6618   11.5116   24.2676 C   0  0  0  0  0  0  0  0  0  0  0  0
    8.7896   10.5594   23.6084 O   0  0  0  0  0  0  0  0  0  0  0  0
    9.6004   12.7189   24.4728 N   0  0  0  0  0  0  0  0  0  0  0  0
   10.8554   13.0532   23.8339 C   0  0  1  0  0  0  0  0  0  0  0  0
   10.7311   12.7553   22.3501 C   0  0  0  0  0  0  0  0  0  0  0  0
   11.3293   14.4944   24.1132 C   0  0  0  0  0  0  0  0  0  0  0  0
   10.9035   15.4354   23.0511 C   0  0  0  0  0  0  0  0  0  0  0  0
   11.5700   15.7594   21.8899 C   0  0  0  0  0  0  0  0  0  0  0  0
   10.6992   16.4127   21.0761 O   0  0  0  0  0  0  0  0  0  0  0  0
    9.5725   16.5180   21.8264 C   0  0  0  0  0  0  0  0  0  0  0  0
    9.6430   15.9710   23.0240 N   0  0  0  0  0  0  0  0  0  0  0  0
  1  2  1  0
  2  3  1  0
  3  4  1  0
  4  5  2  0
  5  6  1  0
  6  7  2  0
  7  8  1  0
  8  9  2  0
  9 10  1  0
 10 11  2  0
 10 12  1  0
 12 13  1  0
 13 14  1  6
 13 15  1  0
 15 16  1  0
 16 17  2  0
 17 18  1  0
 18 19  1  0
 19 20  2  0
  9  4  1  0
 20 16  1  0
M  END
>  <energy_score>  (1935) 
-1.09986

>  <inchikey>  (1935) 
None

>  <smiles>  (1935) 
None

>  <ref_pdb>  (1935) 
A5594a

>  <alias>  (1935) 
None

>  <HIPPO Pose ID>  (1935) 
499579

>  <name>  (1935) 
P499579

>  <HIPPO Compound ID>  (1935) 
306410

>  <ref_mols>  (1935) 
A3408a,A5594a

>  <distance_score>  (1935) 
1.432274

>  <inspiration_score>  (1935) 
None

$$$$
P499580
     RDKit          3D

 20 21  0  0  0  0  0  0  0  0999 V2000
    4.5243   13.6810   25.7036 C   0  0  0  0  0  0  0  0  0  0  0  0
    5.5814   12.6360   25.4928 C   0  0  0  0  0  0  0  0  0  0  0  0
    5.4013   11.3424   25.9888 C   0  0  0  0  0  0  0  0  0  0  0  0
    6.3366   10.3442   25.7096 C   0  0  0  0  0  0  0  0  0  0  0  0
    7.5230   10.6420   25.0364 C   0  0  0  0  0  0  0  0  0  0  0  0
    7.7612   11.9519   24.6302 C   0  0  0  0  0  0  0  0  0  0  0  0
    9.1400   12.3842   24.2434 C   0  0  0  0  0  0  0  0  0  0  0  0
    9.7700   11.7472   23.5000 O   0  0  0  0  0  0  0  0  0  0  0  0
    9.4991   13.6804   25.0056 N   0  0  0  0  0  0  0  0  0  0  0  0
   10.6748   14.5124   24.9366 C   0  0  2  0  0  0  0  0  0  0  0  0
   10.8268   15.2690   26.2669 C   0  0  0  0  0  0  0  0  0  0  0  0
   10.4515   15.5764   23.8784 C   0  0  0  0  0  0  0  0  0  0  0  0
   10.4156   15.1358   22.4808 C   0  0  0  0  0  0  0  0  0  0  0  0
   11.4691   14.9410   21.6229 C   0  0  0  0  0  0  0  0  0  0  0  0
   10.9694   14.8995   20.3605 O   0  0  0  0  0  0  0  0  0  0  0  0
    9.6351   15.0608   20.5413 C   0  0  0  0  0  0  0  0  0  0  0  0
    9.2299   15.1165   21.7867 N   0  0  0  0  0  0  0  0  0  0  0  0
    6.7452   12.8992   24.7563 C   0  0  0  0  0  0  0  0  0  0  0  0
    6.9413   14.1836   24.0864 C   0  0  0  0  0  0  0  0  0  0  0  0
    7.1297   15.1754   24.7762 O   0  0  0  0  0  0  0  0  0  0  0  0
  1  2  1  0
  2  3  2  0
  3  4  1  0
  4  5  2  0
  5  6  1  0
  6  7  1  0
  7  8  2  0
  7  9  1  0
  9 10  1  0
 10 11  1  1
 10 12  1  0
 12 13  1  0
 13 14  2  0
 14 15  1  0
 15 16  1  0
 16 17  2  0
  6 18  2  0
 18 19  1  0
 19 20  2  0
 18  2  1  0
 17 13  1  0
M  END
>  <energy_score>  (1936) 
-3.014986

>  <inchikey>  (1936) 
None

>  <smiles>  (1936) 
None

>  <ref_pdb>  (1936) 
A5594a

>  <alias>  (1936) 
None

>  <HIPPO Pose ID>  (1936) 
499580

>  <name>  (1936) 
P499580

>  <HIPPO Compound ID>  (1936) 
306411

>  <ref_mols>  (1936) 
A3408a,A5594a

>  <distance_score>  (1936) 
1.647112

>  <inspiration_score>  (1936) 
None

$$$$
P499581
     RDKit          3D

 20 22  0  0  0  0  0  0  0  0999 V2000
   12.7156   13.5140   24.9310 C   0  0  0  0  0  0  0  0  0  0  0  0
   11.6593   13.5562   23.8453 C   0  0  2  0  0  0  0  0  0  0  0  0
   11.5373   15.0046   23.3700 C   0  0  0  0  0  0  0  0  0  0  0  0
   10.7727   15.0804   22.1238 C   0  0  0  0  0  0  0  0  0  0  0  0
   11.2450   15.0742   20.8357 C   0  0  0  0  0  0  0  0  0  0  0  0
   10.1706   15.0975   20.0059 O   0  0  0  0  0  0  0  0  0  0  0  0
    9.1145   15.1012   20.8552 C   0  0  0  0  0  0  0  0  0  0  0  0
    9.4078   15.1079   22.1299 N   0  0  0  0  0  0  0  0  0  0  0  0
   10.3804   13.0332   24.3099 N   0  0  0  0  0  0  0  0  0  0  0  0
    9.4953   11.8994   23.7454 C   0  0  0  0  0  0  0  0  0  0  0  0
    9.6874   11.1573   22.8682 O   0  0  0  0  0  0  0  0  0  0  0  0
    8.2054   11.7900   24.4769 C   0  0  0  0  0  0  0  0  0  0  0  0
    7.7279   10.5398   24.8972 C   0  0  0  0  0  0  0  0  0  0  0  0
    6.5058   10.4310   25.5852 C   0  0  0  0  0  0  0  0  0  0  0  0
    5.7205   11.5582   25.8126 C   0  0  0  0  0  0  0  0  0  0  0  0
    6.1658   12.7666   25.3088 C   0  0  0  0  0  0  0  0  0  0  0  0
    7.3928   12.8896   24.6683 C   0  0  0  0  0  0  0  0  0  0  0  0
    7.5179   14.2700   24.1417 C   0  0  0  0  0  0  0  0  0  0  0  0
    6.4723   14.9891   24.8216 O   0  0  0  0  0  0  0  0  0  0  0  0
    5.4421   14.0540   25.1879 C   0  0  0  0  0  0  0  0  0  0  0  0
  2  1  1  1
  2  3  1  0
  3  4  1  0
  4  5  2  0
  5  6  1  0
  6  7  1  0
  7  8  2  0
  2  9  1  0
  9 10  1  0
 10 11  2  0
 10 12  1  0
 12 13  2  0
 13 14  1  0
 14 15  2  0
 15 16  1  0
 16 17  2  0
 17 18  1  0
 18 19  1  0
 19 20  1  0
  8  4  1  0
 17 12  1  0
 20 16  1  0
M  END
>  <energy_score>  (1937) 
-5.630455

>  <inchikey>  (1937) 
None

>  <smiles>  (1937) 
None

>  <ref_pdb>  (1937) 
A5594a

>  <alias>  (1937) 
None

>  <HIPPO Pose ID>  (1937) 
499581

>  <name>  (1937) 
P499581

>  <HIPPO Compound ID>  (1937) 
306421

>  <ref_mols>  (1937) 
A3408a,A5594a

>  <distance_score>  (1937) 
1.992448

>  <inspiration_score>  (1937) 
None

$$$$
P499582
     RDKit          3D

 20 21  0  0  0  0  0  0  0  0999 V2000
    7.0320   14.2907   22.9463 C   0  0  0  0  0  0  0  0  0  0  0  0
    7.1076   14.2927   24.4650 C   0  0  0  0  0  0  0  0  0  0  0  0
    6.9023   12.9276   25.0757 C   0  0  0  0  0  0  0  0  0  0  0  0
    5.7697   12.7566   25.8959 C   0  0  0  0  0  0  0  0  0  0  0  0
    5.3853   11.4952   26.3370 C   0  0  0  0  0  0  0  0  0  0  0  0
    6.1186   10.3849   25.9453 C   0  0  0  0  0  0  0  0  0  0  0  0
    7.2701   10.5407   25.1755 C   0  0  0  0  0  0  0  0  0  0  0  0
    7.9484    9.4390   24.8328 F   0  0  0  0  0  0  0  0  0  0  0  0
    7.7078   11.8065   24.7816 C   0  0  0  0  0  0  0  0  0  0  0  0
    8.9355   11.9149   23.9385 C   0  0  0  0  0  0  0  0  0  0  0  0
    9.0138   11.2260   23.0041 O   0  0  0  0  0  0  0  0  0  0  0  0
    9.8686   13.0395   24.4320 N   0  0  0  0  0  0  0  0  0  0  0  0
   11.0512   13.6184   23.8218 C   0  0  2  0  0  0  0  0  0  0  0  0
   12.2782   13.5758   24.7085 C   0  0  0  0  0  0  0  0  0  0  0  0
   10.7724   15.0846   23.4524 C   0  0  0  0  0  0  0  0  0  0  0  0
   10.6960   15.2457   21.9981 C   0  0  0  0  0  0  0  0  0  0  0  0
   11.7349   15.3792   21.1117 C   0  0  0  0  0  0  0  0  0  0  0  0
   11.2069   15.4683   19.8663 O   0  0  0  0  0  0  0  0  0  0  0  0
    9.8688   15.4040   20.0795 C   0  0  0  0  0  0  0  0  0  0  0  0
    9.5000   15.2576   21.3309 N   0  0  0  0  0  0  0  0  0  0  0  0
  1  2  1  0
  2  3  1  0
  3  4  2  0
  4  5  1  0
  5  6  2  0
  6  7  1  0
  7  8  1  0
  7  9  2  0
  9 10  1  0
 10 11  2  0
 10 12  1  0
 12 13  1  0
 13 14  1  1
 13 15  1  0
 15 16  1  0
 16 17  2  0
 17 18  1  0
 18 19  1  0
 19 20  2  0
  9  3  1  0
 20 16  1  0
M  END
>  <energy_score>  (1938) 
-15.172574

>  <inchikey>  (1938) 
None

>  <smiles>  (1938) 
None

>  <ref_pdb>  (1938) 
A5594a

>  <alias>  (1938) 
None

>  <HIPPO Pose ID>  (1938) 
499582

>  <name>  (1938) 
P499582

>  <HIPPO Compound ID>  (1938) 
306424

>  <ref_mols>  (1938) 
A3408a,A5594a

>  <distance_score>  (1938) 
1.304892

>  <inspiration_score>  (1938) 
None

$$$$
P499583
     RDKit          3D

 20 21  0  0  0  0  0  0  0  0999 V2000
    7.0810   14.7057   23.8293 C   0  0  0  0  0  0  0  0  0  0  0  0
    7.4217   14.0222   25.1494 C   0  0  0  0  0  0  0  0  0  0  0  0
    6.4590   12.9117   25.5136 C   0  0  0  0  0  0  0  0  0  0  0  0
    5.3344   13.2976   26.2687 C   0  0  0  0  0  0  0  0  0  0  0  0
    4.4348   12.3599   26.7778 C   0  0  0  0  0  0  0  0  0  0  0  0
    4.6064   11.0132   26.4997 C   0  0  0  0  0  0  0  0  0  0  0  0
    5.6642   10.6163   25.7002 C   0  0  0  0  0  0  0  0  0  0  0  0
    5.7392    9.3171   25.3824 F   0  0  0  0  0  0  0  0  0  0  0  0
    6.6110   11.5350   25.2207 C   0  0  0  0  0  0  0  0  0  0  0  0
    7.8723   10.9161   24.7440 C   0  0  0  0  0  0  0  0  0  0  0  0
    8.1492    9.9069   25.2373 O   0  0  0  0  0  0  0  0  0  0  0  0
    8.6395   11.7697   23.7541 N   0  0  0  0  0  0  0  0  0  0  0  0
    9.9546   11.6196   23.2247 C   0  0  0  0  0  0  0  0  0  0  0  0
   10.8239   12.7417   23.8075 C   0  0  0  0  0  0  0  0  0  0  0  0
   10.8116   13.9568   22.9696 C   0  0  0  0  0  0  0  0  0  0  0  0
   11.7768   14.9277   22.8890 C   0  0  0  0  0  0  0  0  0  0  0  0
   11.4977   15.7076   21.8184 O   0  0  0  0  0  0  0  0  0  0  0  0
   10.3580   15.1586   21.3067 C   0  0  0  0  0  0  0  0  0  0  0  0
    9.9518   15.6524   19.9911 C   0  0  0  0  0  0  0  0  0  0  0  0
    9.8399   14.1860   22.0288 N   0  0  0  0  0  0  0  0  0  0  0  0
  1  2  1  0
  2  3  1  0
  3  4  2  0
  4  5  1  0
  5  6  2  0
  6  7  1  0
  7  8  1  0
  7  9  2  0
  9 10  1  0
 10 11  2  0
 10 12  1  0
 12 13  1  0
 13 14  1  0
 14 15  1  0
 15 16  2  0
 16 17  1  0
 17 18  1  0
 18 19  1  0
 18 20  2  0
  9  3  1  0
 20 15  1  0
M  END
>  <energy_score>  (1939) 
-2.76466

>  <inchikey>  (1939) 
None

>  <smiles>  (1939) 
None

>  <ref_pdb>  (1939) 
A5594a

>  <alias>  (1939) 
None

>  <HIPPO Pose ID>  (1939) 
499583

>  <name>  (1939) 
P499583

>  <HIPPO Compound ID>  (1939) 
306425

>  <ref_mols>  (1939) 
A3408a,A5594a

>  <distance_score>  (1939) 
1.687713

>  <inspiration_score>  (1939) 
None

$$$$
P499584
     RDKit          3D

 20 21  0  0  0  0  0  0  0  0999 V2000
    6.9284   14.7296   24.3126 C   0  0  0  0  0  0  0  0  0  0  0  0
    7.4783   13.8572   25.4282 C   0  0  0  0  0  0  0  0  0  0  0  0
    6.5471   12.7038   25.7234 C   0  0  0  0  0  0  0  0  0  0  0  0
    5.4398   13.0149   26.5408 C   0  0  0  0  0  0  0  0  0  0  0  0
    4.5336   12.0405   26.9543 C   0  0  0  0  0  0  0  0  0  0  0  0
    4.6884   10.7336   26.5258 C   0  0  0  0  0  0  0  0  0  0  0  0
    5.7376   10.4162   25.6786 C   0  0  0  0  0  0  0  0  0  0  0  0
    5.7934    9.1584   25.2234 F   0  0  0  0  0  0  0  0  0  0  0  0
    6.6878   11.3693   25.2811 C   0  0  0  0  0  0  0  0  0  0  0  0
    7.9169   10.7932   24.6701 C   0  0  0  0  0  0  0  0  0  0  0  0
    8.2100    9.7375   25.0449 O   0  0  0  0  0  0  0  0  0  0  0  0
    8.6376   11.7376   23.7246 N   0  0  0  0  0  0  0  0  0  0  0  0
    9.9216   11.6322   23.1059 C   0  0  0  0  0  0  0  0  0  0  0  0
   10.7015   12.9393   23.2288 C   0  0  0  0  0  0  0  0  0  0  0  0
   10.1200   14.0232   22.4033 C   0  0  0  0  0  0  0  0  0  0  0  0
    8.7741   14.0602   22.1199 N   0  0  0  0  0  0  0  0  0  0  0  0
    8.6502   15.1352   21.3789 C   0  0  0  0  0  0  0  0  0  0  0  0
    9.7992   15.7981   21.1196 O   0  0  0  0  0  0  0  0  0  0  0  0
   10.7433   15.0905   21.7992 C   0  0  0  0  0  0  0  0  0  0  0  0
   12.1141   15.5920   21.7105 C   0  0  0  0  0  0  0  0  0  0  0  0
  1  2  1  0
  2  3  1  0
  3  4  2  0
  4  5  1  0
  5  6  2  0
  6  7  1  0
  7  8  1  0
  7  9  2  0
  9 10  1  0
 10 11  2  0
 10 12  1  0
 12 13  1  0
 13 14  1  0
 14 15  1  0
 15 16  1  0
 16 17  2  0
 17 18  1  0
 18 19  1  0
 19 20  1  0
  9  3  1  0
 19 15  2  0
M  END
>  <energy_score>  (1940) 
-2.747821

>  <inchikey>  (1940) 
None

>  <smiles>  (1940) 
None

>  <ref_pdb>  (1940) 
A5594a

>  <alias>  (1940) 
None

>  <HIPPO Pose ID>  (1940) 
499584

>  <name>  (1940) 
P499584

>  <HIPPO Compound ID>  (1940) 
306426

>  <ref_mols>  (1940) 
A3408a,A5594a

>  <distance_score>  (1940) 
1.56177

>  <inspiration_score>  (1940) 
None

$$$$
P499585
     RDKit          3D

 20 21  0  0  0  0  0  0  0  0999 V2000
    7.0306   14.5080   24.7446 C   0  0  0  0  0  0  0  0  0  0  0  0
    6.7581   13.1140   25.2229 C   0  0  0  0  0  0  0  0  0  0  0  0
    5.6819   12.8829   26.0896 C   0  0  0  0  0  0  0  0  0  0  0  0
    5.3287   11.5832   26.4464 C   0  0  0  0  0  0  0  0  0  0  0  0
    4.0020   11.3252   27.5123 Cl  0  0  0  0  0  0  0  0  0  0  0  0
    6.0328   10.4938   25.9404 C   0  0  0  0  0  0  0  0  0  0  0  0
    7.1419   10.6991   25.1089 C   0  0  0  0  0  0  0  0  0  0  0  0
    7.9016    9.5378   24.5363 C   0  0  0  0  0  0  0  0  0  0  0  0
    7.5149   12.0179   24.7828 C   0  0  0  0  0  0  0  0  0  0  0  0
    8.7056   12.2033   23.9176 C   0  0  0  0  0  0  0  0  0  0  0  0
    8.7354   11.6283   22.9111 O   0  0  0  0  0  0  0  0  0  0  0  0
    9.7337   13.1360   24.5566 N   0  0  0  0  0  0  0  0  0  0  0  0
   11.0646   13.4888   24.1370 C   0  0  2  0  0  0  0  0  0  0  0  0
   11.4959   14.8007   24.7708 C   0  0  0  0  0  0  0  0  0  0  0  0
   11.2096   13.5035   22.6170 C   0  0  0  0  0  0  0  0  0  0  0  0
   10.5017   14.6000   21.9319 C   0  0  0  0  0  0  0  0  0  0  0  0
   10.9258   15.2778   20.8170 C   0  0  0  0  0  0  0  0  0  0  0  0
    9.9756   16.1911   20.4969 O   0  0  0  0  0  0  0  0  0  0  0  0
    9.0279   16.0244   21.4564 C   0  0  0  0  0  0  0  0  0  0  0  0
    9.2808   15.0852   22.3368 N   0  0  0  0  0  0  0  0  0  0  0  0
  1  2  1  0
  2  3  2  0
  3  4  1  0
  4  5  1  0
  4  6  2  0
  6  7  1  0
  7  8  1  0
  7  9  2  0
  9 10  1  0
 10 11  2  0
 10 12  1  0
 12 13  1  0
 13 14  1  6
 13 15  1  0
 15 16  1  0
 16 17  2  0
 17 18  1  0
 18 19  1  0
 19 20  2  0
  9  2  1  0
 20 16  1  0
M  END
>  <energy_score>  (1941) 
-20.680495

>  <inchikey>  (1941) 
None

>  <smiles>  (1941) 
None

>  <ref_pdb>  (1941) 
A5594a

>  <alias>  (1941) 
None

>  <HIPPO Pose ID>  (1941) 
499585

>  <name>  (1941) 
P499585

>  <HIPPO Compound ID>  (1941) 
306427

>  <ref_mols>  (1941) 
A3408a,A5594a

>  <distance_score>  (1941) 
1.516529

>  <inspiration_score>  (1941) 
None

$$$$
P499586
     RDKit          3D

 20 21  0  0  0  0  0  0  0  0999 V2000
    9.9691   15.6436   20.0022 C   0  0  0  0  0  0  0  0  0  0  0  0
   10.3459   15.1377   21.3229 C   0  0  0  0  0  0  0  0  0  0  0  0
    9.7959   14.1769   22.0386 N   0  0  0  0  0  0  0  0  0  0  0  0
   10.7420   13.9388   23.0049 C   0  0  0  0  0  0  0  0  0  0  0  0
   10.7037   12.7414   23.8681 C   0  0  0  0  0  0  0  0  0  0  0  0
    9.7555   11.6605   23.3376 C   0  0  0  0  0  0  0  0  0  0  0  0
    8.4487   11.9403   23.8567 N   0  0  0  0  0  0  0  0  0  0  0  0
    7.6812   11.2970   25.0009 C   0  0  0  0  0  0  0  0  0  0  0  0
    7.9457   10.3848   25.6632 O   0  0  0  0  0  0  0  0  0  0  0  0
    6.4365   12.0304   25.3827 C   0  0  0  0  0  0  0  0  0  0  0  0
    5.3789   11.2858   25.9651 C   0  0  0  0  0  0  0  0  0  0  0  0
    5.3585    9.7925   26.0751 C   0  0  0  0  0  0  0  0  0  0  0  0
    4.3079   11.9519   26.5675 C   0  0  0  0  0  0  0  0  0  0  0  0
    4.2379   13.3312   26.5329 C   0  0  0  0  0  0  0  0  0  0  0  0
    2.8817   14.1348   27.2234 Cl  0  0  0  0  0  0  0  0  0  0  0  0
    5.2661   14.0723   25.9669 C   0  0  0  0  0  0  0  0  0  0  0  0
    6.4056   13.4463   25.4366 C   0  0  0  0  0  0  0  0  0  0  0  0
    7.5267   14.3673   25.0292 C   0  0  0  0  0  0  0  0  0  0  0  0
   11.7321   14.8856   22.9325 C   0  0  0  0  0  0  0  0  0  0  0  0
   11.4902   15.6619   21.8504 O   0  0  0  0  0  0  0  0  0  0  0  0
  1  2  1  0
  2  3  2  0
  3  4  1  0
  4  5  1  0
  5  6  1  0
  6  7  1  0
  7  8  1  0
  8  9  2  0
  8 10  1  0
 10 11  2  0
 11 12  1  0
 11 13  1  0
 13 14  2  0
 14 15  1  0
 14 16  1  0
 16 17  2  0
 17 18  1  0
  4 19  2  0
 19 20  1  0
 20  2  1  0
 17 10  1  0
M  END
>  <energy_score>  (1942) 
-11.841583

>  <inchikey>  (1942) 
None

>  <smiles>  (1942) 
None

>  <ref_pdb>  (1942) 
A5594a

>  <alias>  (1942) 
None

>  <HIPPO Pose ID>  (1942) 
499586

>  <name>  (1942) 
P499586

>  <HIPPO Compound ID>  (1942) 
306428

>  <ref_mols>  (1942) 
A3408a,A5594a

>  <distance_score>  (1942) 
1.840124

>  <inspiration_score>  (1942) 
None

$$$$
P499587
     RDKit          3D

 20 21  0  0  0  0  0  0  0  0999 V2000
    7.0913   14.4374   24.5700 C   0  0  0  0  0  0  0  0  0  0  0  0
    6.9117   13.0287   25.0449 C   0  0  0  0  0  0  0  0  0  0  0  0
    5.8244   12.7414   25.8840 C   0  0  0  0  0  0  0  0  0  0  0  0
    5.5285   11.4285   26.2242 C   0  0  0  0  0  0  0  0  0  0  0  0
    4.2163   11.0949   27.2851 Cl  0  0  0  0  0  0  0  0  0  0  0  0
    6.2836   10.3853   25.7000 C   0  0  0  0  0  0  0  0  0  0  0  0
    7.4080   10.6463   24.8973 C   0  0  0  0  0  0  0  0  0  0  0  0
    8.1873    9.5030   24.3090 C   0  0  0  0  0  0  0  0  0  0  0  0
    7.7550   11.9847   24.6188 C   0  0  0  0  0  0  0  0  0  0  0  0
    9.0608   12.2649   23.9260 C   0  0  0  0  0  0  0  0  0  0  0  0
    9.3361   11.6663   22.9685 O   0  0  0  0  0  0  0  0  0  0  0  0
    9.8760   13.2927   24.7272 N   0  0  0  0  0  0  0  0  0  0  0  0
   11.1657   13.8705   24.4651 C   0  0  0  0  0  0  0  0  0  0  0  0
   11.4871   14.0649   23.0074 C   0  0  0  0  0  0  0  0  0  0  0  0
   10.5462   14.9193   22.2659 C   0  0  0  0  0  0  0  0  0  0  0  0
    9.3836   15.4454   22.7697 N   0  0  0  0  0  0  0  0  0  0  0  0
    8.8858   16.1050   21.7459 C   0  0  0  0  0  0  0  0  0  0  0  0
    9.6264   16.0587   20.6093 O   0  0  0  0  0  0  0  0  0  0  0  0
   10.7040   15.3163   20.9646 C   0  0  0  0  0  0  0  0  0  0  0  0
   11.7610   15.1153   19.9772 C   0  0  0  0  0  0  0  0  0  0  0  0
  1  2  1  0
  2  3  2  0
  3  4  1  0
  4  5  1  0
  4  6  2  0
  6  7  1  0
  7  8  1  0
  7  9  2  0
  9 10  1  0
 10 11  2  0
 10 12  1  0
 12 13  1  0
 13 14  1  0
 14 15  1  0
 15 16  1  0
 16 17  2  0
 17 18  1  0
 18 19  1  0
 19 20  1  0
  9  2  1  0
 19 15  2  0
M  END
>  <energy_score>  (1943) 
-10.565709

>  <inchikey>  (1943) 
None

>  <smiles>  (1943) 
None

>  <ref_pdb>  (1943) 
A5594a

>  <alias>  (1943) 
None

>  <HIPPO Pose ID>  (1943) 
499587

>  <name>  (1943) 
P499587

>  <HIPPO Compound ID>  (1943) 
306429

>  <ref_mols>  (1943) 
A3408a,A5594a

>  <distance_score>  (1943) 
1.686126

>  <inspiration_score>  (1943) 
None

$$$$
P499588
     RDKit          3D

 20 21  0  0  0  0  0  0  0  0999 V2000
    4.6229    9.9502   27.9517 C   0  0  0  0  0  0  0  0  0  0  0  0
    5.1679    9.7981   26.2345 S   0  0  0  0  0  0  0  0  0  0  0  0
    6.0317   11.3069   25.9554 C   0  0  0  0  0  0  0  0  0  0  0  0
    5.4973   12.5118   26.3935 C   0  0  0  0  0  0  0  0  0  0  0  0
    6.1107   13.7059   26.0502 C   0  0  0  0  0  0  0  0  0  0  0  0
    7.2763   13.7236   25.2694 C   0  0  0  0  0  0  0  0  0  0  0  0
    7.7136   15.0618   24.7648 C   0  0  0  0  0  0  0  0  0  0  0  0
    7.8532   12.5066   24.8677 C   0  0  0  0  0  0  0  0  0  0  0  0
    9.0751   12.4262   24.0036 C   0  0  0  0  0  0  0  0  0  0  0  0
    8.9848   11.8086   23.0197 O   0  0  0  0  0  0  0  0  0  0  0  0
   10.2467   13.2719   24.5510 N   0  0  0  0  0  0  0  0  0  0  0  0
   11.5316   13.6144   23.9478 C   0  0  2  0  0  0  0  0  0  0  0  0
   12.6672   13.5556   24.9491 C   0  0  0  0  0  0  0  0  0  0  0  0
   11.5067   15.0290   23.3560 C   0  0  0  0  0  0  0  0  0  0  0  0
   10.6525   15.0869   22.1673 C   0  0  0  0  0  0  0  0  0  0  0  0
   11.0228   15.0269   20.8486 C   0  0  0  0  0  0  0  0  0  0  0  0
    9.8868   15.0377   20.1048 O   0  0  0  0  0  0  0  0  0  0  0  0
    8.8964   15.0738   21.0312 C   0  0  0  0  0  0  0  0  0  0  0  0
    9.2921   15.1509   22.2755 N   0  0  0  0  0  0  0  0  0  0  0  0
    7.2072   11.3010   25.1921 C   0  0  0  0  0  0  0  0  0  0  0  0
  1  2  1  0
  2  3  1  0
  3  4  2  0
  4  5  1  0
  5  6  2  0
  6  7  1  0
  6  8  1  0
  8  9  1  0
  9 10  2  0
  9 11  1  0
 11 12  1  0
 12 13  1  1
 12 14  1  0
 14 15  1  0
 15 16  2  0
 16 17  1  0
 17 18  1  0
 18 19  2  0
  8 20  2  0
 20  3  1  0
 19 15  1  0
M  END
>  <energy_score>  (1944) 
-5.4434

>  <inchikey>  (1944) 
None

>  <smiles>  (1944) 
None

>  <ref_pdb>  (1944) 
A5594a

>  <alias>  (1944) 
None

>  <HIPPO Pose ID>  (1944) 
499588

>  <name>  (1944) 
P499588

>  <HIPPO Compound ID>  (1944) 
306430

>  <ref_mols>  (1944) 
A3408a,A5594a

>  <distance_score>  (1944) 
1.76066

>  <inspiration_score>  (1944) 
None

$$$$
P499589
     RDKit          3D

 20 21  0  0  0  0  0  0  0  0999 V2000
    3.7646    9.0876   27.6555 C   0  0  0  0  0  0  0  0  0  0  0  0
    5.0856   10.0842   28.3808 S   0  0  0  0  0  0  0  0  0  0  0  0
    5.4441   11.1337   26.9827 C   0  0  0  0  0  0  0  0  0  0  0  0
    4.8016   12.3656   26.8854 C   0  0  0  0  0  0  0  0  0  0  0  0
    5.1795   13.2820   25.9060 C   0  0  0  0  0  0  0  0  0  0  0  0
    6.2404   13.0048   25.0376 C   0  0  0  0  0  0  0  0  0  0  0  0
    6.5734   14.0193   23.9828 C   0  0  0  0  0  0  0  0  0  0  0  0
    6.9241   11.7894   25.1855 C   0  0  0  0  0  0  0  0  0  0  0  0
    8.1999   11.5023   24.4739 C   0  0  0  0  0  0  0  0  0  0  0  0
    8.3479   10.4718   23.9543 O   0  0  0  0  0  0  0  0  0  0  0  0
    9.1373   12.7217   24.5580 N   0  0  0  0  0  0  0  0  0  0  0  0
   10.4182   12.9642   23.9381 C   0  0  1  0  0  0  0  0  0  0  0  0
   10.3747   12.5313   22.4901 C   0  0  0  0  0  0  0  0  0  0  0  0
   10.8459   14.4249   24.1027 C   0  0  0  0  0  0  0  0  0  0  0  0
   10.3654   15.2763   22.9980 C   0  0  0  0  0  0  0  0  0  0  0  0
   11.0527   15.6860   21.8781 C   0  0  0  0  0  0  0  0  0  0  0  0
   10.1604   16.2773   21.0399 O   0  0  0  0  0  0  0  0  0  0  0  0
    8.9898   16.2323   21.7290 C   0  0  0  0  0  0  0  0  0  0  0  0
    9.0441   15.6255   22.8936 N   0  0  0  0  0  0  0  0  0  0  0  0
    6.4697   10.8242   26.0900 C   0  0  0  0  0  0  0  0  0  0  0  0
  1  2  1  0
  2  3  1  0
  3  4  2  0
  4  5  1  0
  5  6  2  0
  6  7  1  0
  6  8  1  0
  8  9  1  0
  9 10  2  0
  9 11  1  0
 11 12  1  0
 12 13  1  6
 12 14  1  0
 14 15  1  0
 15 16  2  0
 16 17  1  0
 17 18  1  0
 18 19  2  0
  8 20  2  0
 20  3  1  0
 19 15  1  0
M  END
>  <energy_score>  (1945) 
-8.02169

>  <inchikey>  (1945) 
None

>  <smiles>  (1945) 
None

>  <ref_pdb>  (1945) 
A5594a

>  <alias>  (1945) 
None

>  <HIPPO Pose ID>  (1945) 
499589

>  <name>  (1945) 
P499589

>  <HIPPO Compound ID>  (1945) 
306430

>  <ref_mols>  (1945) 
A3408a,A5594a

>  <distance_score>  (1945) 
1.799549

>  <inspiration_score>  (1945) 
None

$$$$
P499590
     RDKit          3D

 20 21  0  0  0  0  0  0  0  0999 V2000
    3.9193    8.9368   27.9138 C   0  0  0  0  0  0  0  0  0  0  0  0
    3.2435   10.6133   27.8381 S   0  0  0  0  0  0  0  0  0  0  0  0
    4.4333   11.4869   26.8271 C   0  0  0  0  0  0  0  0  0  0  0  0
    4.2915   12.8730   26.8241 C   0  0  0  0  0  0  0  0  0  0  0  0
    5.2101   13.6945   26.1780 C   0  0  0  0  0  0  0  0  0  0  0  0
    6.3288   13.1619   25.5296 C   0  0  0  0  0  0  0  0  0  0  0  0
    7.3462   14.1745   25.0697 C   0  0  0  0  0  0  0  0  0  0  0  0
    6.4231   11.7536   25.4268 C   0  0  0  0  0  0  0  0  0  0  0  0
    7.6483   11.0380   24.9527 C   0  0  0  0  0  0  0  0  0  0  0  0
    7.8828   10.0361   25.4886 O   0  0  0  0  0  0  0  0  0  0  0  0
    8.4419   11.8067   23.9031 N   0  0  0  0  0  0  0  0  0  0  0  0
    9.7417   11.5601   23.3529 C   0  0  0  0  0  0  0  0  0  0  0  0
   10.6661   12.6650   23.8866 C   0  0  0  0  0  0  0  0  0  0  0  0
   10.7027   13.8680   23.0313 C   0  0  0  0  0  0  0  0  0  0  0  0
   11.6912   14.8187   22.9722 C   0  0  0  0  0  0  0  0  0  0  0  0
   11.4490   15.6074   21.8994 O   0  0  0  0  0  0  0  0  0  0  0  0
   10.3050   15.0876   21.3664 C   0  0  0  0  0  0  0  0  0  0  0  0
    9.9266   15.6103   20.0529 C   0  0  0  0  0  0  0  0  0  0  0  0
    9.7546   14.1195   22.0724 N   0  0  0  0  0  0  0  0  0  0  0  0
    5.4729   10.9314   26.0849 C   0  0  0  0  0  0  0  0  0  0  0  0
  1  2  1  0
  2  3  1  0
  3  4  2  0
  4  5  1  0
  5  6  2  0
  6  7  1  0
  6  8  1  0
  8  9  1  0
  9 10  2  0
  9 11  1  0
 11 12  1  0
 12 13  1  0
 13 14  1  0
 14 15  2  0
 15 16  1  0
 16 17  1  0
 17 18  1  0
 17 19  2  0
  8 20  2  0
 20  3  1  0
 19 14  1  0
M  END
>  <energy_score>  (1946) 
-1.16121

>  <inchikey>  (1946) 
None

>  <smiles>  (1946) 
None

>  <ref_pdb>  (1946) 
A5594a

>  <alias>  (1946) 
None

>  <HIPPO Pose ID>  (1946) 
499590

>  <name>  (1946) 
P499590

>  <HIPPO Compound ID>  (1946) 
306431

>  <ref_mols>  (1946) 
A3408a,A5594a

>  <distance_score>  (1946) 
1.461331

>  <inspiration_score>  (1946) 
None

$$$$
P499591
     RDKit          3D

 20 21  0  0  0  0  0  0  0  0999 V2000
    7.4720   14.9039   24.2698 C   0  0  0  0  0  0  0  0  0  0  0  0
    6.6064   13.7030   23.9226 C   0  0  0  0  0  0  0  0  0  0  0  0
    6.2510   12.7964   25.0913 C   0  0  0  0  0  0  0  0  0  0  0  0
    5.2927   13.2833   25.9948 C   0  0  0  0  0  0  0  0  0  0  0  0
    4.7255   12.4541   26.9623 C   0  0  0  0  0  0  0  0  0  0  0  0
    5.0870   11.1153   27.0278 C   0  0  0  0  0  0  0  0  0  0  0  0
    4.2849    9.9962   28.3207 Br  0  0  0  0  0  0  0  0  0  0  0  0
    6.0502   10.6117   26.1693 C   0  0  0  0  0  0  0  0  0  0  0  0
    6.6771   11.4534   25.2391 C   0  0  0  0  0  0  0  0  0  0  0  0
    7.7905   10.8077   24.4742 C   0  0  0  0  0  0  0  0  0  0  0  0
    7.7390    9.6751   24.2340 O   0  0  0  0  0  0  0  0  0  0  0  0
    8.8367   11.8476   24.1050 N   0  0  0  0  0  0  0  0  0  0  0  0
   10.0873   11.7065   23.4445 C   0  0  0  0  0  0  0  0  0  0  0  0
   11.0060   12.8421   23.8982 C   0  0  0  0  0  0  0  0  0  0  0  0
   10.9438   14.0112   22.9986 C   0  0  0  0  0  0  0  0  0  0  0  0
   11.8922   14.9847   22.8213 C   0  0  0  0  0  0  0  0  0  0  0  0
   11.5436   15.7219   21.7419 O   0  0  0  0  0  0  0  0  0  0  0  0
   10.3794   15.1487   21.3229 C   0  0  0  0  0  0  0  0  0  0  0  0
    9.8780   15.6050   20.0282 C   0  0  0  0  0  0  0  0  0  0  0  0
    9.9179   14.1974   22.1083 N   0  0  0  0  0  0  0  0  0  0  0  0
  1  2  1  0
  2  3  1  0
  3  4  2  0
  4  5  1  0
  5  6  2  0
  6  7  1  0
  6  8  1  0
  8  9  2  0
  9 10  1  0
 10 11  2  0
 10 12  1  0
 12 13  1  0
 13 14  1  0
 14 15  1  0
 15 16  2  0
 16 17  1  0
 17 18  1  0
 18 19  1  0
 18 20  2  0
  9  3  1  0
 20 15  1  0
M  END
>  <energy_score>  (1947) 
-1.910431

>  <inchikey>  (1947) 
None

>  <smiles>  (1947) 
None

>  <ref_pdb>  (1947) 
A5594a

>  <alias>  (1947) 
None

>  <HIPPO Pose ID>  (1947) 
499591

>  <name>  (1947) 
P499591

>  <HIPPO Compound ID>  (1947) 
306434

>  <ref_mols>  (1947) 
A3408a,A5594a

>  <distance_score>  (1947) 
1.908178

>  <inspiration_score>  (1947) 
None

$$$$
P499592
     RDKit          3D

 20 21  0  0  0  0  0  0  0  0999 V2000
    7.0156   13.9837   22.6607 C   0  0  0  0  0  0  0  0  0  0  0  0
    7.0302   14.3157   24.1423 C   0  0  0  0  0  0  0  0  0  0  0  0
    6.6230   13.1643   25.0271 C   0  0  0  0  0  0  0  0  0  0  0  0
    5.5150   13.3871   25.8602 C   0  0  0  0  0  0  0  0  0  0  0  0
    4.9767   12.3647   26.6259 C   0  0  0  0  0  0  0  0  0  0  0  0
    5.5236   11.0920   26.5551 C   0  0  0  0  0  0  0  0  0  0  0  0
    4.7405    9.7728   27.6506 Br  0  0  0  0  0  0  0  0  0  0  0  0
    6.6324   10.8369   25.7465 C   0  0  0  0  0  0  0  0  0  0  0  0
    7.2243   11.8892   25.0231 C   0  0  0  0  0  0  0  0  0  0  0  0
    8.4776   11.5857   24.2532 C   0  0  0  0  0  0  0  0  0  0  0  0
    8.5227   10.6036   23.6310 O   0  0  0  0  0  0  0  0  0  0  0  0
    9.5172   12.7086   24.4217 N   0  0  0  0  0  0  0  0  0  0  0  0
   10.7969   12.9054   23.7831 C   0  0  0  0  0  0  0  0  0  0  0  0
   11.2381   14.3636   23.7609 C   0  0  0  0  0  0  0  0  0  0  0  0
   10.5268   15.1431   22.7265 C   0  0  0  0  0  0  0  0  0  0  0  0
    9.4336   15.9159   23.0198 N   0  0  0  0  0  0  0  0  0  0  0  0
    9.1227   16.4599   21.8610 C   0  0  0  0  0  0  0  0  0  0  0  0
    9.8928   16.0761   20.8167 O   0  0  0  0  0  0  0  0  0  0  0  0
   10.8112   15.2535   21.3863 C   0  0  0  0  0  0  0  0  0  0  0  0
   11.8434   14.7279   20.5000 C   0  0  0  0  0  0  0  0  0  0  0  0
  1  2  1  0
  2  3  1  0
  3  4  2  0
  4  5  1  0
  5  6  2  0
  6  7  1  0
  6  8  1  0
  8  9  2  0
  9 10  1  0
 10 11  2  0
 10 12  1  0
 12 13  1  0
 13 14  1  0
 14 15  1  0
 15 16  1  0
 16 17  2  0
 17 18  1  0
 18 19  1  0
 19 20  1  0
  9  3  1  0
 19 15  2  0
M  END
>  <energy_score>  (1948) 
-10.711014

>  <inchikey>  (1948) 
None

>  <smiles>  (1948) 
None

>  <ref_pdb>  (1948) 
A5594a

>  <alias>  (1948) 
None

>  <HIPPO Pose ID>  (1948) 
499592

>  <name>  (1948) 
P499592

>  <HIPPO Compound ID>  (1948) 
306435

>  <ref_mols>  (1948) 
A3408a,A5594a

>  <distance_score>  (1948) 
1.425162

>  <inspiration_score>  (1948) 
None

$$$$
P499593
     RDKit          3D

 20 21  0  0  0  0  0  0  0  0999 V2000
    3.9970   11.4630   27.4988 C   0  0  0  0  0  0  0  0  0  0  0  0
    5.1530   11.5812   26.5415 C   0  0  0  0  0  0  0  0  0  0  0  0
    5.8404   10.4165   26.1867 C   0  0  0  0  0  0  0  0  0  0  0  0
    6.9648   10.4759   25.3685 C   0  0  0  0  0  0  0  0  0  0  0  0
    7.4062   11.7030   24.8630 C   0  0  0  0  0  0  0  0  0  0  0  0
    8.7103   11.6885   24.1233 C   0  0  0  0  0  0  0  0  0  0  0  0
    8.9204   10.8048   23.3938 O   0  0  0  0  0  0  0  0  0  0  0  0
    9.6047   12.8746   24.5411 N   0  0  0  0  0  0  0  0  0  0  0  0
   10.9161   13.2746   24.0733 C   0  0  2  0  0  0  0  0  0  0  0  0
   11.3533   14.5932   24.7080 C   0  0  0  0  0  0  0  0  0  0  0  0
   11.0048   13.2894   22.5492 C   0  0  0  0  0  0  0  0  0  0  0  0
   10.4209   14.4805   21.9094 C   0  0  0  0  0  0  0  0  0  0  0  0
   11.0007   15.2708   20.9484 C   0  0  0  0  0  0  0  0  0  0  0  0
   10.1210   16.2539   20.6326 O   0  0  0  0  0  0  0  0  0  0  0  0
    9.0594   16.0154   21.4466 C   0  0  0  0  0  0  0  0  0  0  0  0
    9.1744   14.9627   22.2227 N   0  0  0  0  0  0  0  0  0  0  0  0
    6.6390   12.8644   25.0684 C   0  0  0  0  0  0  0  0  0  0  0  0
    6.9191   14.1074   24.2710 C   0  0  0  0  0  0  0  0  0  0  0  0
    5.5550   12.8043   25.9715 C   0  0  0  0  0  0  0  0  0  0  0  0
    4.6112   14.4013   26.4435 Br  0  0  0  0  0  0  0  0  0  0  0  0
  1  2  1  0
  2  3  2  0
  3  4  1  0
  4  5  2  0
  5  6  1  0
  6  7  2  0
  6  8  1  0
  8  9  1  0
  9 10  1  6
  9 11  1  0
 11 12  1  0
 12 13  2  0
 13 14  1  0
 14 15  1  0
 15 16  2  0
  5 17  1  0
 17 18  1  0
 17 19  2  0
 19 20  1  0
 19  2  1  0
 16 12  1  0
M  END
>  <energy_score>  (1949) 
-10.361338

>  <inchikey>  (1949) 
None

>  <smiles>  (1949) 
None

>  <ref_pdb>  (1949) 
A5594a

>  <alias>  (1949) 
None

>  <HIPPO Pose ID>  (1949) 
499593

>  <name>  (1949) 
P499593

>  <HIPPO Compound ID>  (1949) 
306436

>  <ref_mols>  (1949) 
A3408a,A5594a

>  <distance_score>  (1949) 
1.399696

>  <inspiration_score>  (1949) 
None

$$$$
P499594
     RDKit          3D

 20 21  0  0  0  0  0  0  0  0999 V2000
    3.8726   11.5316   27.6739 C   0  0  0  0  0  0  0  0  0  0  0  0
    5.0173   11.5365   26.6965 C   0  0  0  0  0  0  0  0  0  0  0  0
    5.6109   10.3156   26.3680 C   0  0  0  0  0  0  0  0  0  0  0  0
    6.7051   10.2646   25.5099 C   0  0  0  0  0  0  0  0  0  0  0  0
    7.2125   11.4309   24.9339 C   0  0  0  0  0  0  0  0  0  0  0  0
    8.4548   11.2673   24.1058 C   0  0  0  0  0  0  0  0  0  0  0  0
    8.5684   10.3108   23.4572 O   0  0  0  0  0  0  0  0  0  0  0  0
    9.4049   12.4517   24.3025 N   0  0  0  0  0  0  0  0  0  0  0  0
   10.6565   12.7583   23.6704 C   0  0  0  0  0  0  0  0  0  0  0  0
   10.9567   14.2373   23.6934 C   0  0  0  0  0  0  0  0  0  0  0  0
   10.1942   14.9791   22.6832 C   0  0  0  0  0  0  0  0  0  0  0  0
    8.9562   15.4989   22.9486 N   0  0  0  0  0  0  0  0  0  0  0  0
    8.6246   16.0752   21.8146 C   0  0  0  0  0  0  0  0  0  0  0  0
    9.5331   15.9509   20.8130 O   0  0  0  0  0  0  0  0  0  0  0  0
   10.5581   15.2696   21.3916 C   0  0  0  0  0  0  0  0  0  0  0  0
   11.7477   15.0203   20.5749 C   0  0  0  0  0  0  0  0  0  0  0  0
    6.5426   12.6554   25.1314 C   0  0  0  0  0  0  0  0  0  0  0  0
    6.8776   13.8637   24.3017 C   0  0  0  0  0  0  0  0  0  0  0  0
    5.4883   12.7058   26.0718 C   0  0  0  0  0  0  0  0  0  0  0  0
    4.6714   14.3807   26.5154 Br  0  0  0  0  0  0  0  0  0  0  0  0
  1  2  1  0
  2  3  2  0
  3  4  1  0
  4  5  2  0
  5  6  1  0
  6  7  2  0
  6  8  1  0
  8  9  1  0
  9 10  1  0
 10 11  1  0
 11 12  1  0
 12 13  2  0
 13 14  1  0
 14 15  1  0
 15 16  1  0
  5 17  1  0
 17 18  1  0
 17 19  2  0
 19 20  1  0
 19  2  1  0
 15 11  2  0
M  END
>  <energy_score>  (1950) 
-12.719347

>  <inchikey>  (1950) 
None

>  <smiles>  (1950) 
None

>  <ref_pdb>  (1950) 
A5594a

>  <alias>  (1950) 
None

>  <HIPPO Pose ID>  (1950) 
499594

>  <name>  (1950) 
P499594

>  <HIPPO Compound ID>  (1950) 
306438

>  <ref_mols>  (1950) 
A3408a,A5594a

>  <distance_score>  (1950) 
1.939028

>  <inspiration_score>  (1950) 
None

$$$$
P499595
     RDKit          3D

 20 21  0  0  0  0  0  0  0  0999 V2000
    4.4025   10.8850   27.4639 C   0  0  0  0  0  0  0  0  0  0  0  0
    5.4952   11.3174   26.5303 C   0  0  0  0  0  0  0  0  0  0  0  0
    6.2607   10.3583   25.8542 C   0  0  0  0  0  0  0  0  0  0  0  0
    7.3009   10.7277   24.9946 C   0  0  0  0  0  0  0  0  0  0  0  0
    8.1369    9.6973   24.2967 C   0  0  0  0  0  0  0  0  0  0  0  0
    7.5197   12.0940   24.7871 C   0  0  0  0  0  0  0  0  0  0  0  0
    8.4491   12.5441   23.7394 C   0  0  0  0  0  0  0  0  0  0  0  0
    8.0657   12.5620   22.6438 O   0  0  0  0  0  0  0  0  0  0  0  0
    9.7784   13.0169   24.3340 N   0  0  0  0  0  0  0  0  0  0  0  0
   10.8879   13.7026   23.7197 C   0  0  2  0  0  0  0  0  0  0  0  0
   12.1399   13.6896   24.5759 C   0  0  0  0  0  0  0  0  0  0  0  0
   10.4881   15.1521   23.4077 C   0  0  0  0  0  0  0  0  0  0  0  0
   10.5447   15.3640   21.9591 C   0  0  0  0  0  0  0  0  0  0  0  0
   11.6581   15.4991   21.1671 C   0  0  0  0  0  0  0  0  0  0  0  0
   11.2391   15.5633   19.8788 O   0  0  0  0  0  0  0  0  0  0  0  0
    9.8875   15.4796   19.9733 C   0  0  0  0  0  0  0  0  0  0  0  0
    9.4111   15.3530   21.1904 N   0  0  0  0  0  0  0  0  0  0  0  0
    6.7793   13.0763   25.4588 C   0  0  0  0  0  0  0  0  0  0  0  0
    7.0363   14.5318   25.2104 C   0  0  0  0  0  0  0  0  0  0  0  0
    5.7820   12.6737   26.3508 C   0  0  0  0  0  0  0  0  0  0  0  0
  1  2  1  0
  2  3  2  0
  3  4  1  0
  4  5  1  0
  4  6  2  0
  6  7  1  0
  7  8  2  0
  7  9  1  0
  9 10  1  0
 10 11  1  1
 10 12  1  0
 12 13  1  0
 13 14  2  0
 14 15  1  0
 15 16  1  0
 16 17  2  0
  6 18  1  0
 18 19  1  0
 18 20  2  0
 20  2  1  0
 17 13  1  0
M  END
>  <energy_score>  (1951) 
-20.018383

>  <inchikey>  (1951) 
None

>  <smiles>  (1951) 
None

>  <ref_pdb>  (1951) 
A5594a

>  <alias>  (1951) 
None

>  <HIPPO Pose ID>  (1951) 
499595

>  <name>  (1951) 
P499595

>  <HIPPO Compound ID>  (1951) 
306439

>  <ref_mols>  (1951) 
A3408a,A5594a

>  <distance_score>  (1951) 
1.828617

>  <inspiration_score>  (1951) 
None

$$$$
P499596
     RDKit          3D

 20 21  0  0  0  0  0  0  0  0999 V2000
    4.2005   10.5078   27.6118 C   0  0  0  0  0  0  0  0  0  0  0  0
    5.3242   11.0415   26.7712 C   0  0  0  0  0  0  0  0  0  0  0  0
    6.0612   10.1760   25.9485 C   0  0  0  0  0  0  0  0  0  0  0  0
    7.1325   10.6255   25.1770 C   0  0  0  0  0  0  0  0  0  0  0  0
    7.9894    9.7021   24.3689 C   0  0  0  0  0  0  0  0  0  0  0  0
    7.3717   11.9937   25.1780 C   0  0  0  0  0  0  0  0  0  0  0  0
    8.1112   12.6071   24.0653 C   0  0  0  0  0  0  0  0  0  0  0  0
    9.2694   12.6067   23.9860 O   0  0  0  0  0  0  0  0  0  0  0  0
    7.0535   13.2788   23.1798 N   0  0  0  0  0  0  0  0  0  0  0  0
    7.2010   14.1728   22.0610 C   0  0  1  0  0  0  0  0  0  0  0  0
    5.7953   14.5111   21.6091 C   0  0  0  0  0  0  0  0  0  0  0  0
    8.0153   15.4237   22.4322 C   0  0  0  0  0  0  0  0  0  0  0  0
    9.4429   15.2079   22.1028 C   0  0  0  0  0  0  0  0  0  0  0  0
   10.5606   15.1005   22.8944 C   0  0  0  0  0  0  0  0  0  0  0  0
   11.6198   14.8326   22.0849 O   0  0  0  0  0  0  0  0  0  0  0  0
   11.0781   14.7918   20.8394 C   0  0  0  0  0  0  0  0  0  0  0  0
    9.7877   15.0178   20.7886 N   0  0  0  0  0  0  0  0  0  0  0  0
    6.7079   12.8816   26.0427 C   0  0  0  0  0  0  0  0  0  0  0  0
    7.0484   14.3435   26.0561 C   0  0  0  0  0  0  0  0  0  0  0  0
    5.6784   12.3901   26.8408 C   0  0  0  0  0  0  0  0  0  0  0  0
  1  2  1  0
  2  3  2  0
  3  4  1  0
  4  5  1  0
  4  6  2  0
  6  7  1  0
  7  8  2  0
  7  9  1  0
  9 10  1  0
 10 11  1  1
 10 12  1  0
 12 13  1  0
 13 14  2  0
 14 15  1  0
 15 16  1  0
 16 17  2  0
  6 18  1  0
 18 19  1  0
 18 20  2  0
 20  2  1  0
 17 13  1  0
M  END
>  <energy_score>  (1952) 
-8.568482

>  <inchikey>  (1952) 
None

>  <smiles>  (1952) 
None

>  <ref_pdb>  (1952) 
A5594a

>  <alias>  (1952) 
None

>  <HIPPO Pose ID>  (1952) 
499596

>  <name>  (1952) 
P499596

>  <HIPPO Compound ID>  (1952) 
306439

>  <ref_mols>  (1952) 
A3408a,A5594a

>  <distance_score>  (1952) 
1.887993

>  <inspiration_score>  (1952) 
None

$$$$
P499597
     RDKit          3D

 20 21  0  0  0  0  0  0  0  0999 V2000
    4.5615   11.3112   26.9860 C   0  0  0  0  0  0  0  0  0  0  0  0
    5.7714   11.5068   26.1230 C   0  0  0  0  0  0  0  0  0  0  0  0
    6.4279   10.4083   25.5567 C   0  0  0  0  0  0  0  0  0  0  0  0
    7.5997   10.5670   24.7886 C   0  0  0  0  0  0  0  0  0  0  0  0
    8.2634    9.3583   24.1920 C   0  0  0  0  0  0  0  0  0  0  0  0
    8.1174   11.8601   24.5813 C   0  0  0  0  0  0  0  0  0  0  0  0
    9.3601   12.0689   23.7680 C   0  0  0  0  0  0  0  0  0  0  0  0
    9.4969   11.3854   22.8370 O   0  0  0  0  0  0  0  0  0  0  0  0
   10.2719   13.1654   24.3413 N   0  0  0  0  0  0  0  0  0  0  0  0
   11.5115   13.7231   23.8313 C   0  0  2  0  0  0  0  0  0  0  0  0
   12.6124   13.6802   24.8645 C   0  0  0  0  0  0  0  0  0  0  0  0
   11.3046   15.1613   23.3505 C   0  0  0  0  0  0  0  0  0  0  0  0
   10.2312   15.2065   22.3469 C   0  0  0  0  0  0  0  0  0  0  0  0
   10.3168   14.9572   21.0019 C   0  0  0  0  0  0  0  0  0  0  0  0
    9.0578   15.0113   20.4965 O   0  0  0  0  0  0  0  0  0  0  0  0
    8.2803   15.2864   21.5751 C   0  0  0  0  0  0  0  0  0  0  0  0
    8.9229   15.4114   22.7101 N   0  0  0  0  0  0  0  0  0  0  0  0
    7.4441   12.9438   25.1384 C   0  0  0  0  0  0  0  0  0  0  0  0
    7.9391   14.1788   25.0111 F   0  0  0  0  0  0  0  0  0  0  0  0
    6.2927   12.7811   25.9073 C   0  0  0  0  0  0  0  0  0  0  0  0
  1  2  1  0
  2  3  2  0
  3  4  1  0
  4  5  1  0
  4  6  2  0
  6  7  1  0
  7  8  2  0
  7  9  1  0
  9 10  1  0
 10 11  1  1
 10 12  1  0
 12 13  1  0
 13 14  2  0
 14 15  1  0
 15 16  1  0
 16 17  2  0
  6 18  1  0
 18 19  1  0
 18 20  2  0
 20  2  1  0
 17 13  1  0
M  END
>  <energy_score>  (1953) 
-6.39011

>  <inchikey>  (1953) 
None

>  <smiles>  (1953) 
None

>  <ref_pdb>  (1953) 
A5594a

>  <alias>  (1953) 
None

>  <HIPPO Pose ID>  (1953) 
499597

>  <name>  (1953) 
P499597

>  <HIPPO Compound ID>  (1953) 
306441

>  <ref_mols>  (1953) 
A3408a,A5594a

>  <distance_score>  (1953) 
1.60724

>  <inspiration_score>  (1953) 
None

$$$$
P499598
     RDKit          3D

 20 21  0  0  0  0  0  0  0  0999 V2000
    4.2720   10.9935   27.5756 C   0  0  0  0  0  0  0  0  0  0  0  0
    5.3284   11.4038   26.5919 C   0  0  0  0  0  0  0  0  0  0  0  0
    6.0963   10.4259   25.9360 C   0  0  0  0  0  0  0  0  0  0  0  0
    7.1014   10.7781   25.0267 C   0  0  0  0  0  0  0  0  0  0  0  0
    7.9824    9.7517   24.3844 C   0  0  0  0  0  0  0  0  0  0  0  0
    7.2739   12.1370   24.7555 C   0  0  0  0  0  0  0  0  0  0  0  0
    8.1987   12.6185   23.7339 C   0  0  0  0  0  0  0  0  0  0  0  0
    7.8328   12.7371   22.6353 O   0  0  0  0  0  0  0  0  0  0  0  0
    9.5770   12.8808   24.3585 N   0  0  0  0  0  0  0  0  0  0  0  0
   10.8292   13.2561   23.7447 C   0  0  1  0  0  0  0  0  0  0  0  0
   10.8347   12.8169   22.2969 C   0  0  0  0  0  0  0  0  0  0  0  0
   11.1337   14.7508   23.9072 C   0  0  0  0  0  0  0  0  0  0  0  0
   10.3912   15.5360   22.9051 C   0  0  0  0  0  0  0  0  0  0  0  0
   10.8377   15.9843   21.6843 C   0  0  0  0  0  0  0  0  0  0  0  0
    9.7526   16.3883   20.9716 O   0  0  0  0  0  0  0  0  0  0  0  0
    8.7140   16.2077   21.8329 C   0  0  0  0  0  0  0  0  0  0  0  0
    9.0361   15.7120   23.0051 N   0  0  0  0  0  0  0  0  0  0  0  0
    6.5664   13.1105   25.4342 C   0  0  0  0  0  0  0  0  0  0  0  0
    6.8675   14.3981   25.2355 F   0  0  0  0  0  0  0  0  0  0  0  0
    5.5972   12.7564   26.3591 C   0  0  0  0  0  0  0  0  0  0  0  0
  1  2  1  0
  2  3  2  0
  3  4  1  0
  4  5  1  0
  4  6  2  0
  6  7  1  0
  7  8  2  0
  7  9  1  0
  9 10  1  0
 10 11  1  6
 10 12  1  0
 12 13  1  0
 13 14  2  0
 14 15  1  0
 15 16  1  0
 16 17  2  0
  6 18  1  0
 18 19  1  0
 18 20  2  0
 20  2  1  0
 17 13  1  0
M  END
>  <energy_score>  (1954) 
-5.500771

>  <inchikey>  (1954) 
None

>  <smiles>  (1954) 
None

>  <ref_pdb>  (1954) 
A5594a

>  <alias>  (1954) 
None

>  <HIPPO Pose ID>  (1954) 
499598

>  <name>  (1954) 
P499598

>  <HIPPO Compound ID>  (1954) 
306441

>  <ref_mols>  (1954) 
A3408a,A5594a

>  <distance_score>  (1954) 
1.691036

>  <inspiration_score>  (1954) 
None

$$$$
P499599
     RDKit          3D

 20 21  0  0  0  0  0  0  0  0999 V2000
    4.0402   11.4553   27.6226 C   0  0  0  0  0  0  0  0  0  0  0  0
    5.1911   11.6666   26.6831 C   0  0  0  0  0  0  0  0  0  0  0  0
    5.8716   10.5674   26.1495 C   0  0  0  0  0  0  0  0  0  0  0  0
    6.9597   10.7553   25.2926 C   0  0  0  0  0  0  0  0  0  0  0  0
    7.7006    9.5902   24.7100 C   0  0  0  0  0  0  0  0  0  0  0  0
    7.3465   12.0657   24.9617 C   0  0  0  0  0  0  0  0  0  0  0  0
    8.4535   12.2144   23.9993 C   0  0  0  0  0  0  0  0  0  0  0  0
    8.3556   11.6448   22.9944 O   0  0  0  0  0  0  0  0  0  0  0  0
    9.6048   13.0493   24.5562 N   0  0  0  0  0  0  0  0  0  0  0  0
   10.9180   13.2848   24.0382 C   0  0  0  0  0  0  0  0  0  0  0  0
   10.8710   13.2570   22.5230 C   0  0  0  0  0  0  0  0  0  0  0  0
   10.1712   14.4418   22.0118 C   0  0  0  0  0  0  0  0  0  0  0  0
    8.8070   14.5703   21.9751 N   0  0  0  0  0  0  0  0  0  0  0  0
    8.6403   15.7915   21.5275 C   0  0  0  0  0  0  0  0  0  0  0  0
    9.7825   16.4693   21.2391 O   0  0  0  0  0  0  0  0  0  0  0  0
   10.7631   15.5990   21.5889 C   0  0  0  0  0  0  0  0  0  0  0  0
   12.1550   16.0180   21.4745 C   0  0  0  0  0  0  0  0  0  0  0  0
    6.6664   13.1793   25.4613 C   0  0  0  0  0  0  0  0  0  0  0  0
    7.0143   14.5706   25.0289 C   0  0  0  0  0  0  0  0  0  0  0  0
    5.6058   12.9638   26.3495 C   0  0  0  0  0  0  0  0  0  0  0  0
  1  2  1  0
  2  3  2  0
  3  4  1  0
  4  5  1  0
  4  6  2  0
  6  7  1  0
  7  8  2  0
  7  9  1  0
  9 10  1  0
 10 11  1  0
 11 12  1  0
 12 13  1  0
 13 14  2  0
 14 15  1  0
 15 16  1  0
 16 17  1  0
  6 18  1  0
 18 19  1  0
 18 20  2  0
 20  2  1  0
 16 12  2  0
M  END
>  <energy_score>  (1955) 
-11.334914

>  <inchikey>  (1955) 
None

>  <smiles>  (1955) 
None

>  <ref_pdb>  (1955) 
A5594a

>  <alias>  (1955) 
None

>  <HIPPO Pose ID>  (1955) 
499599

>  <name>  (1955) 
P499599

>  <HIPPO Compound ID>  (1955) 
306444

>  <ref_mols>  (1955) 
A3408a,A5594a

>  <distance_score>  (1955) 
1.728678

>  <inspiration_score>  (1955) 
None

$$$$
P499600
     RDKit          3D

 20 21  0  0  0  0  0  0  0  0999 V2000
   10.7758   14.4260   24.6688 C   0  0  0  0  0  0  0  0  0  0  0  0
   10.4785   13.0514   24.0991 C   0  0  2  0  0  0  0  0  0  0  0  0
   10.6497   12.9682   22.5863 C   0  0  0  0  0  0  0  0  0  0  0  0
   10.1390   14.1481   21.8742 C   0  0  0  0  0  0  0  0  0  0  0  0
   10.8667   15.1166   21.2247 C   0  0  0  0  0  0  0  0  0  0  0  0
   10.0055   16.1002   20.8630 O   0  0  0  0  0  0  0  0  0  0  0  0
    8.8058   15.6657   21.3301 C   0  0  0  0  0  0  0  0  0  0  0  0
    8.8078   14.4665   21.8638 N   0  0  0  0  0  0  0  0  0  0  0  0
    9.1637   12.7124   24.5762 N   0  0  0  0  0  0  0  0  0  0  0  0
    8.3170   11.4470   24.3584 C   0  0  0  0  0  0  0  0  0  0  0  0
    8.5783   10.4486   23.8239 O   0  0  0  0  0  0  0  0  0  0  0  0
    6.9803   11.6389   25.0008 C   0  0  0  0  0  0  0  0  0  0  0  0
    6.4400   10.6351   25.8098 C   0  0  0  0  0  0  0  0  0  0  0  0
    5.3293   10.9337   26.6065 C   0  0  0  0  0  0  0  0  0  0  0  0
    4.6350    9.6979   27.8541 Br  0  0  0  0  0  0  0  0  0  0  0  0
    4.7323   12.1948   26.5683 C   0  0  0  0  0  0  0  0  0  0  0  0
    5.2191   13.1654   25.7053 C   0  0  0  0  0  0  0  0  0  0  0  0
    6.3221   12.8692   24.9102 C   0  0  0  0  0  0  0  0  0  0  0  0
    6.7735   13.8963   23.9761 C   0  0  0  0  0  0  0  0  0  0  0  0
    7.3127   14.8965   24.4304 O   0  0  0  0  0  0  0  0  0  0  0  0
  2  1  1  6
  2  3  1  0
  3  4  1  0
  4  5  2  0
  5  6  1  0
  6  7  1  0
  7  8  2  0
  2  9  1  0
  9 10  1  0
 10 11  2  0
 10 12  1  0
 12 13  2  0
 13 14  1  0
 14 15  1  0
 14 16  2  0
 16 17  1  0
 17 18  2  0
 18 19  1  0
 19 20  2  0
  8  4  1  0
 18 12  1  0
M  END
>  <energy_score>  (1956) 
-5.965253

>  <inchikey>  (1956) 
None

>  <smiles>  (1956) 
None

>  <ref_pdb>  (1956) 
A5594a

>  <alias>  (1956) 
None

>  <HIPPO Pose ID>  (1956) 
499600

>  <name>  (1956) 
P499600

>  <HIPPO Compound ID>  (1956) 
306445

>  <ref_mols>  (1956) 
A3408a,A5594a

>  <distance_score>  (1956) 
1.920035

>  <inspiration_score>  (1956) 
None

$$$$
P499601
     RDKit          3D

 20 21  0  0  0  0  0  0  0  0999 V2000
   11.9068   15.4940   21.6348 C   0  0  0  0  0  0  0  0  0  0  0  0
   10.5416   14.9839   21.7983 C   0  0  0  0  0  0  0  0  0  0  0  0
    9.5416   15.7345   21.2577 O   0  0  0  0  0  0  0  0  0  0  0  0
    8.4110   15.0615   21.5837 C   0  0  0  0  0  0  0  0  0  0  0  0
    8.5985   13.9223   22.2111 N   0  0  0  0  0  0  0  0  0  0  0  0
    9.9667   13.8771   22.3814 C   0  0  0  0  0  0  0  0  0  0  0  0
   10.6232   12.7655   23.1145 C   0  0  0  0  0  0  0  0  0  0  0  0
    9.8424   11.4457   23.0735 C   0  0  0  0  0  0  0  0  0  0  0  0
    8.5656   11.6344   23.6892 N   0  0  0  0  0  0  0  0  0  0  0  0
    7.8301   10.7911   24.7199 C   0  0  0  0  0  0  0  0  0  0  0  0
    8.1024    9.7650   25.1832 O   0  0  0  0  0  0  0  0  0  0  0  0
    6.6208   11.4434   25.2881 C   0  0  0  0  0  0  0  0  0  0  0  0
    5.7156   10.5916   25.9483 C   0  0  0  0  0  0  0  0  0  0  0  0
    4.6989   11.1251   26.7303 C   0  0  0  0  0  0  0  0  0  0  0  0
    3.6357   10.0036   27.8174 Br  0  0  0  0  0  0  0  0  0  0  0  0
    4.5028   12.5004   26.7886 C   0  0  0  0  0  0  0  0  0  0  0  0
    5.3820   13.3551   26.1299 C   0  0  0  0  0  0  0  0  0  0  0  0
    6.4779   12.8324   25.4366 C   0  0  0  0  0  0  0  0  0  0  0  0
    7.5130   13.8172   25.0693 C   0  0  0  0  0  0  0  0  0  0  0  0
    7.2199   14.9010   24.5860 O   0  0  0  0  0  0  0  0  0  0  0  0
  1  2  1  0
  2  3  1  0
  3  4  1  0
  4  5  2  0
  5  6  1  0
  6  7  1  0
  7  8  1  0
  8  9  1  0
  9 10  1  0
 10 11  2  0
 10 12  1  0
 12 13  2  0
 13 14  1  0
 14 15  1  0
 14 16  2  0
 16 17  1  0
 17 18  2  0
 18 19  1  0
 19 20  2  0
  6  2  2  0
 18 12  1  0
M  END
>  <energy_score>  (1957) 
-3.5419

>  <inchikey>  (1957) 
None

>  <smiles>  (1957) 
None

>  <ref_pdb>  (1957) 
A5594a

>  <alias>  (1957) 
None

>  <HIPPO Pose ID>  (1957) 
499601

>  <name>  (1957) 
P499601

>  <HIPPO Compound ID>  (1957) 
306447

>  <ref_mols>  (1957) 
A3408a,A5594a

>  <distance_score>  (1957) 
1.455411

>  <inspiration_score>  (1957) 
None

$$$$
P499602
     RDKit          3D

 20 21  0  0  0  0  0  0  0  0999 V2000
    3.6861   13.0530   27.2152 C   0  0  0  0  0  0  0  0  0  0  0  0
    4.9599   12.7405   26.4904 C   0  0  0  0  0  0  0  0  0  0  0  0
    5.3135   11.4237   26.2038 C   0  0  0  0  0  0  0  0  0  0  0  0
    6.4806   11.1278   25.4738 C   0  0  0  0  0  0  0  0  0  0  0  0
    6.7707    9.6942   25.2126 C   0  0  0  0  0  0  0  0  0  0  0  0
    7.3409   12.1623   25.0646 C   0  0  0  0  0  0  0  0  0  0  0  0
    8.6497   11.8817   24.3722 C   0  0  0  0  0  0  0  0  0  0  0  0
    8.7281   10.9063   23.7443 O   0  0  0  0  0  0  0  0  0  0  0  0
    9.6831   12.9930   24.6196 N   0  0  0  0  0  0  0  0  0  0  0  0
   10.9957   13.1847   24.0706 C   0  0  0  0  0  0  0  0  0  0  0  0
   10.9051   13.1114   22.5559 C   0  0  0  0  0  0  0  0  0  0  0  0
   10.1001   14.2314   22.0429 C   0  0  0  0  0  0  0  0  0  0  0  0
    8.7256   14.2203   22.0164 N   0  0  0  0  0  0  0  0  0  0  0  0
    8.4347   15.4159   21.5612 C   0  0  0  0  0  0  0  0  0  0  0  0
    9.5028   16.2024   21.2590 O   0  0  0  0  0  0  0  0  0  0  0  0
   10.5725   15.4362   21.5989 C   0  0  0  0  0  0  0  0  0  0  0  0
   11.9138   15.9939   21.4410 C   0  0  0  0  0  0  0  0  0  0  0  0
    6.9478   13.4705   25.3231 C   0  0  0  0  0  0  0  0  0  0  0  0
    7.7206   14.4977   24.9457 F   0  0  0  0  0  0  0  0  0  0  0  0
    5.7782   13.7653   26.0197 C   0  0  0  0  0  0  0  0  0  0  0  0
  1  2  1  0
  2  3  2  0
  3  4  1  0
  4  5  1  0
  4  6  2  0
  6  7  1  0
  7  8  2  0
  7  9  1  0
  9 10  1  0
 10 11  1  0
 11 12  1  0
 12 13  1  0
 13 14  2  0
 14 15  1  0
 15 16  1  0
 16 17  1  0
  6 18  1  0
 18 19  1  0
 18 20  2  0
 20  2  1  0
 16 12  2  0
M  END
>  <energy_score>  (1958) 
-2.891033

>  <inchikey>  (1958) 
None

>  <smiles>  (1958) 
None

>  <ref_pdb>  (1958) 
A5594a

>  <alias>  (1958) 
None

>  <HIPPO Pose ID>  (1958) 
499602

>  <name>  (1958) 
P499602

>  <HIPPO Compound ID>  (1958) 
306448

>  <ref_mols>  (1958) 
A3408a,A5594a

>  <distance_score>  (1958) 
1.564088

>  <inspiration_score>  (1958) 
None

$$$$
P499603
     RDKit          3D

 20 21  0  0  0  0  0  0  0  0999 V2000
    7.3214   14.6609   23.3986 C   0  0  0  0  0  0  0  0  0  0  0  0
    7.3911   14.2974   24.6833 C   0  0  0  0  0  0  0  0  0  0  0  0
    7.1667   12.9098   25.0776 C   0  0  0  0  0  0  0  0  0  0  0  0
    6.0486   12.6688   25.8887 C   0  0  0  0  0  0  0  0  0  0  0  0
    5.6583   11.3684   26.1787 C   0  0  0  0  0  0  0  0  0  0  0  0
    6.3742   10.3017   25.6446 C   0  0  0  0  0  0  0  0  0  0  0  0
    7.5253   10.5142   24.8671 C   0  0  0  0  0  0  0  0  0  0  0  0
    8.2421    9.3458   24.2509 C   0  0  0  0  0  0  0  0  0  0  0  0
    7.9459   11.8330   24.6126 C   0  0  0  0  0  0  0  0  0  0  0  0
    9.1726   12.0580   23.7764 C   0  0  0  0  0  0  0  0  0  0  0  0
    9.2780   11.4365   22.8017 O   0  0  0  0  0  0  0  0  0  0  0  0
   10.0871   13.1334   24.3724 N   0  0  0  0  0  0  0  0  0  0  0  0
   11.2835   13.7434   23.8455 C   0  0  2  0  0  0  0  0  0  0  0  0
   12.4397   13.7049   24.8192 C   0  0  0  0  0  0  0  0  0  0  0  0
   10.9809   15.1897   23.4508 C   0  0  0  0  0  0  0  0  0  0  0  0
   10.7633   15.2920   22.0041 C   0  0  0  0  0  0  0  0  0  0  0  0
   11.7218   15.3599   21.0236 C   0  0  0  0  0  0  0  0  0  0  0  0
   11.0895   15.4080   19.8268 O   0  0  0  0  0  0  0  0  0  0  0  0
    9.7761   15.3786   20.1613 C   0  0  0  0  0  0  0  0  0  0  0  0
    9.5144   15.3030   21.4444 N   0  0  0  0  0  0  0  0  0  0  0  0
  1  2  2  0
  2  3  1  0
  3  4  2  0
  4  5  1  0
  5  6  2  0
  6  7  1  0
  7  8  1  0
  7  9  2  0
  9 10  1  0
 10 11  2  0
 10 12  1  0
 12 13  1  0
 13 14  1  1
 13 15  1  0
 15 16  1  0
 16 17  2  0
 17 18  1  0
 18 19  1  0
 19 20  2  0
  9  3  1  0
 20 16  1  0
M  END
>  <energy_score>  (1959) 
-20.521665

>  <inchikey>  (1959) 
None

>  <smiles>  (1959) 
None

>  <ref_pdb>  (1959) 
A5594a

>  <alias>  (1959) 
None

>  <HIPPO Pose ID>  (1959) 
499603

>  <name>  (1959) 
P499603

>  <HIPPO Compound ID>  (1959) 
306449

>  <ref_mols>  (1959) 
A3408a,A5594a

>  <distance_score>  (1959) 
1.429573

>  <inspiration_score>  (1959) 
None

$$$$
P499604
     RDKit          3D

 20 21  0  0  0  0  0  0  0  0999 V2000
   10.1737   15.3890   19.6111 C   0  0  0  0  0  0  0  0  0  0  0  0
   10.0856   14.9145   20.9982 C   0  0  0  0  0  0  0  0  0  0  0  0
    9.7408   13.7294   21.4692 N   0  0  0  0  0  0  0  0  0  0  0  0
   10.2633   13.7267   22.7281 C   0  0  0  0  0  0  0  0  0  0  0  0
   10.5112   12.5289   23.5559 C   0  0  0  0  0  0  0  0  0  0  0  0
    9.6947   11.3005   23.2038 C   0  0  0  0  0  0  0  0  0  0  0  0
    8.4071   11.5067   23.7835 N   0  0  0  0  0  0  0  0  0  0  0  0
    7.6483   10.6937   24.8118 C   0  0  0  0  0  0  0  0  0  0  0  0
    7.9057    9.6791   25.3053 O   0  0  0  0  0  0  0  0  0  0  0  0
    6.4249   11.3694   25.3339 C   0  0  0  0  0  0  0  0  0  0  0  0
    5.5082   10.4958   25.9484 C   0  0  0  0  0  0  0  0  0  0  0  0
    4.4673   10.9778   26.7265 C   0  0  0  0  0  0  0  0  0  0  0  0
    4.3079   12.3464   26.8781 C   0  0  0  0  0  0  0  0  0  0  0  0
    5.1969   13.2296   26.2653 C   0  0  0  0  0  0  0  0  0  0  0  0
    6.2840   12.7664   25.5031 C   0  0  0  0  0  0  0  0  0  0  0  0
    7.2404   13.8088   24.9846 C   0  0  0  0  0  0  0  0  0  0  0  0
    7.3651   13.7783   23.6287 F   0  0  0  0  0  0  0  0  0  0  0  0
   10.6927   14.9850   23.0315 C   0  0  0  0  0  0  0  0  0  0  0  0
   11.3297   15.5318   24.2031 C   0  0  0  0  0  0  0  0  0  0  0  0
   10.5940   15.7637   21.9335 O   0  0  0  0  0  0  0  0  0  0  0  0
  1  2  1  0
  2  3  2  0
  3  4  1  0
  4  5  1  0
  5  6  1  0
  6  7  1  0
  7  8  1  0
  8  9  2  0
  8 10  1  0
 10 11  2  0
 11 12  1  0
 12 13  2  0
 13 14  1  0
 14 15  2  0
 15 16  1  0
 16 17  1  0
  4 18  2  0
 18 19  1  0
 18 20  1  0
 20  2  1  0
 15 10  1  0
M  END
>  <energy_score>  (1960) 
-8.501317

>  <inchikey>  (1960) 
None

>  <smiles>  (1960) 
None

>  <ref_pdb>  (1960) 
A5594a

>  <alias>  (1960) 
None

>  <HIPPO Pose ID>  (1960) 
499604

>  <name>  (1960) 
P499604

>  <HIPPO Compound ID>  (1960) 
306455

>  <ref_mols>  (1960) 
A3408a,A5594a

>  <distance_score>  (1960) 
1.644259

>  <inspiration_score>  (1960) 
None

$$$$
P499605
     RDKit          3D

 20 21  0  0  0  0  0  0  0  0999 V2000
    9.8383   15.6518   20.0978 C   0  0  0  0  0  0  0  0  0  0  0  0
   10.3856   15.2446   21.3898 C   0  0  0  0  0  0  0  0  0  0  0  0
    9.9246   14.3605   22.2477 N   0  0  0  0  0  0  0  0  0  0  0  0
   11.0015   14.1265   23.0591 C   0  0  0  0  0  0  0  0  0  0  0  0
   11.0657   12.9506   23.9524 C   0  0  0  0  0  0  0  0  0  0  0  0
   10.0414   11.8830   23.5668 C   0  0  0  0  0  0  0  0  0  0  0  0
    8.8211   12.1582   24.2600 N   0  0  0  0  0  0  0  0  0  0  0  0
    7.6255   11.2507   24.5702 C   0  0  0  0  0  0  0  0  0  0  0  0
    7.4731   10.1156   24.3803 O   0  0  0  0  0  0  0  0  0  0  0  0
    6.4973   12.0657   25.1214 C   0  0  0  0  0  0  0  0  0  0  0  0
    5.6777   11.5619   26.1373 C   0  0  0  0  0  0  0  0  0  0  0  0
    5.7144    9.9697   26.7376 Cl  0  0  0  0  0  0  0  0  0  0  0  0
    4.7222   12.3715   26.7543 C   0  0  0  0  0  0  0  0  0  0  0  0
    4.5531   13.6871   26.3563 C   0  0  0  0  0  0  0  0  0  0  0  0
    5.2978   14.1818   25.2946 C   0  0  0  0  0  0  0  0  0  0  0  0
    6.2331   13.3645   24.6507 C   0  0  0  0  0  0  0  0  0  0  0  0
    6.7905   13.9191   23.3943 C   0  0  0  0  0  0  0  0  0  0  0  0
    7.0850   13.2143   22.4389 O   0  0  0  0  0  0  0  0  0  0  0  0
   11.9794   15.0492   22.7964 C   0  0  0  0  0  0  0  0  0  0  0  0
   11.5989   15.7734   21.7173 O   0  0  0  0  0  0  0  0  0  0  0  0
  1  2  1  0
  2  3  2  0
  3  4  1  0
  4  5  1  0
  5  6  1  0
  6  7  1  0
  7  8  1  0
  8  9  2  0
  8 10  1  0
 10 11  2  0
 11 12  1  0
 11 13  1  0
 13 14  2  0
 14 15  1  0
 15 16  2  0
 16 17  1  0
 17 18  2  0
  4 19  2  0
 19 20  1  0
 20  2  1  0
 16 10  1  0
M  END
>  <energy_score>  (1961) 
-2.00869

>  <inchikey>  (1961) 
None

>  <smiles>  (1961) 
None

>  <ref_pdb>  (1961) 
A5594a

>  <alias>  (1961) 
None

>  <HIPPO Pose ID>  (1961) 
499605

>  <name>  (1961) 
P499605

>  <HIPPO Compound ID>  (1961) 
306457

>  <ref_mols>  (1961) 
A3408a,A5594a

>  <distance_score>  (1961) 
1.668924

>  <inspiration_score>  (1961) 
None

$$$$
P499606
     RDKit          3D

 20 21  0  0  0  0  0  0  0  0999 V2000
    6.8972   14.1451   22.6678 C   0  0  0  0  0  0  0  0  0  0  0  0
    7.0675   14.4546   24.1467 C   0  0  0  0  0  0  0  0  0  0  0  0
    6.7095   13.2690   25.0096 C   0  0  0  0  0  0  0  0  0  0  0  0
    5.5596   13.3813   25.8051 C   0  0  0  0  0  0  0  0  0  0  0  0
    5.0158   12.2727   26.4430 C   0  0  0  0  0  0  0  0  0  0  0  0
    5.5892   11.0142   26.2758 C   0  0  0  0  0  0  0  0  0  0  0  0
    4.9035    9.8171   26.8558 C   0  0  0  0  0  0  0  0  0  0  0  0
    6.7798   10.8963   25.5435 C   0  0  0  0  0  0  0  0  0  0  0  0
    7.3690   12.0287   24.9520 C   0  0  0  0  0  0  0  0  0  0  0  0
    8.6777   11.8498   24.2448 C   0  0  0  0  0  0  0  0  0  0  0  0
    8.8270   10.9136   23.5683 O   0  0  0  0  0  0  0  0  0  0  0  0
    9.6470   12.9998   24.5882 N   0  0  0  0  0  0  0  0  0  0  0  0
   10.9757   13.2884   24.0932 C   0  0  2  0  0  0  0  0  0  0  0  0
   11.5316   14.5718   24.7044 C   0  0  0  0  0  0  0  0  0  0  0  0
   11.0448   13.2796   22.5685 C   0  0  0  0  0  0  0  0  0  0  0  0
   10.6180   14.5172   21.8896 C   0  0  0  0  0  0  0  0  0  0  0  0
   11.1935   15.0848   20.7792 C   0  0  0  0  0  0  0  0  0  0  0  0
   10.4717   16.1833   20.4452 O   0  0  0  0  0  0  0  0  0  0  0  0
    9.5110   16.2411   21.4025 C   0  0  0  0  0  0  0  0  0  0  0  0
    9.5530   15.2784   22.2957 N   0  0  0  0  0  0  0  0  0  0  0  0
  1  2  1  0
  2  3  1  0
  3  4  2  0
  4  5  1  0
  5  6  2  0
  6  7  1  0
  6  8  1  0
  8  9  2  0
  9 10  1  0
 10 11  2  0
 10 12  1  0
 12 13  1  0
 13 14  1  6
 13 15  1  0
 15 16  1  0
 16 17  2  0
 17 18  1  0
 18 19  1  0
 19 20  2  0
  9  3  1  0
 20 16  1  0
M  END
>  <energy_score>  (1962) 
-9.618172

>  <inchikey>  (1962) 
None

>  <smiles>  (1962) 
None

>  <ref_pdb>  (1962) 
A5594a

>  <alias>  (1962) 
None

>  <HIPPO Pose ID>  (1962) 
499606

>  <name>  (1962) 
P499606

>  <HIPPO Compound ID>  (1962) 
306462

>  <ref_mols>  (1962) 
A3408a,A5594a

>  <distance_score>  (1962) 
1.53488

>  <inspiration_score>  (1962) 
None

$$$$
P499607
     RDKit          3D

 20 21  0  0  0  0  0  0  0  0999 V2000
    6.7674   14.2100   23.9846 C   0  0  0  0  0  0  0  0  0  0  0  0
    6.4083   13.1132   24.9347 C   0  0  0  0  0  0  0  0  0  0  0  0
    5.2797   13.2899   25.7446 C   0  0  0  0  0  0  0  0  0  0  0  0
    4.8247   12.2583   26.5549 C   0  0  0  0  0  0  0  0  0  0  0  0
    5.4780   11.0312   26.5410 C   0  0  0  0  0  0  0  0  0  0  0  0
    4.8929    9.8164   27.6056 Cl  0  0  0  0  0  0  0  0  0  0  0  0
    6.6108   10.8458   25.7481 C   0  0  0  0  0  0  0  0  0  0  0  0
    7.2454    9.6683   25.7625 F   0  0  0  0  0  0  0  0  0  0  0  0
    7.1227   11.9058   24.9987 C   0  0  0  0  0  0  0  0  0  0  0  0
    8.4390   11.7305   24.3170 C   0  0  0  0  0  0  0  0  0  0  0  0
    8.6145   10.7893   23.6558 O   0  0  0  0  0  0  0  0  0  0  0  0
    9.3816   12.9039   24.6561 N   0  0  0  0  0  0  0  0  0  0  0  0
   10.7058   13.2106   24.1745 C   0  0  0  0  0  0  0  0  0  0  0  0
   10.7820   13.2828   22.6667 C   0  0  0  0  0  0  0  0  0  0  0  0
   10.2418   14.5377   22.1112 C   0  0  0  0  0  0  0  0  0  0  0  0
    9.0971   15.1424   22.5626 N   0  0  0  0  0  0  0  0  0  0  0  0
    8.9501   16.1688   21.7545 C   0  0  0  0  0  0  0  0  0  0  0  0
    9.9246   16.3090   20.8222 O   0  0  0  0  0  0  0  0  0  0  0  0
   10.7579   15.2665   21.0707 C   0  0  0  0  0  0  0  0  0  0  0  0
   11.9344   15.1363   20.2169 C   0  0  0  0  0  0  0  0  0  0  0  0
  1  2  1  0
  2  3  2  0
  3  4  1  0
  4  5  2  0
  5  6  1  0
  5  7  1  0
  7  8  1  0
  7  9  2  0
  9 10  1  0
 10 11  2  0
 10 12  1  0
 12 13  1  0
 13 14  1  0
 14 15  1  0
 15 16  1  0
 16 17  2  0
 17 18  1  0
 18 19  1  0
 19 20  1  0
  9  2  1  0
 19 15  2  0
M  END
>  <energy_score>  (1963) 
-7.573693

>  <inchikey>  (1963) 
None

>  <smiles>  (1963) 
None

>  <ref_pdb>  (1963) 
A5594a

>  <alias>  (1963) 
None

>  <HIPPO Pose ID>  (1963) 
499607

>  <name>  (1963) 
P499607

>  <HIPPO Compound ID>  (1963) 
306465

>  <ref_mols>  (1963) 
A3408a,A5594a

>  <distance_score>  (1963) 
1.503169

>  <inspiration_score>  (1963) 
None

$$$$
P499608
     RDKit          3D

 20 21  0  0  0  0  0  0  0  0999 V2000
    4.9798    9.8684   28.5747 C   0  0  0  0  0  0  0  0  0  0  0  0
    4.6730    9.9942   27.0922 C   0  0  0  0  0  0  0  0  0  0  0  0
    5.4066   11.1310   26.4339 C   0  0  0  0  0  0  0  0  0  0  0  0
    4.8561   12.4109   26.5223 C   0  0  0  0  0  0  0  0  0  0  0  0
    5.4098   13.4661   25.8104 C   0  0  0  0  0  0  0  0  0  0  0  0
    6.5437   13.2719   25.0163 C   0  0  0  0  0  0  0  0  0  0  0  0
    6.9452   14.3804   24.0899 C   0  0  0  0  0  0  0  0  0  0  0  0
    7.1981   12.0283   25.0465 C   0  0  0  0  0  0  0  0  0  0  0  0
    8.5087   11.8165   24.3450 C   0  0  0  0  0  0  0  0  0  0  0  0
    8.6604   10.8512   23.7108 O   0  0  0  0  0  0  0  0  0  0  0  0
    9.4421   13.0268   24.5640 N   0  0  0  0  0  0  0  0  0  0  0  0
   10.8020   13.2584   24.1215 C   0  0  2  0  0  0  0  0  0  0  0  0
   11.3548   14.5571   24.7090 C   0  0  0  0  0  0  0  0  0  0  0  0
   10.9175   13.2072   22.5987 C   0  0  0  0  0  0  0  0  0  0  0  0
   10.4463   14.4212   21.9063 C   0  0  0  0  0  0  0  0  0  0  0  0
   11.1283   15.1665   20.9758 C   0  0  0  0  0  0  0  0  0  0  0  0
   10.3308   16.1995   20.6033 O   0  0  0  0  0  0  0  0  0  0  0  0
    9.2117   16.0333   21.3552 C   0  0  0  0  0  0  0  0  0  0  0  0
    9.2165   14.9824   22.1406 N   0  0  0  0  0  0  0  0  0  0  0  0
    6.5956   10.9443   25.7082 C   0  0  0  0  0  0  0  0  0  0  0  0
  1  2  1  0
  2  3  1  0
  3  4  2  0
  4  5  1  0
  5  6  2  0
  6  7  1  0
  6  8  1  0
  8  9  1  0
  9 10  2  0
  9 11  1  0
 11 12  1  0
 12 13  1  6
 12 14  1  0
 14 15  1  0
 15 16  2  0
 16 17  1  0
 17 18  1  0
 18 19  2  0
  8 20  2  0
 20  3  1  0
 19 15  1  0
M  END
>  <energy_score>  (1964) 
-9.13462

>  <inchikey>  (1964) 
None

>  <smiles>  (1964) 
None

>  <ref_pdb>  (1964) 
A5594a

>  <alias>  (1964) 
None

>  <HIPPO Pose ID>  (1964) 
499608

>  <name>  (1964) 
P499608

>  <HIPPO Compound ID>  (1964) 
306469

>  <ref_mols>  (1964) 
A3408a,A5594a

>  <distance_score>  (1964) 
1.350454

>  <inspiration_score>  (1964) 
None

$$$$
P499609
     RDKit          3D

 20 21  0  0  0  0  0  0  0  0999 V2000
    3.7854    9.4489   27.6220 C   0  0  0  0  0  0  0  0  0  0  0  0
    5.0338   10.2228   27.9816 C   0  0  0  0  0  0  0  0  0  0  0  0
    5.4753   11.1742   26.8982 C   0  0  0  0  0  0  0  0  0  0  0  0
    4.8553   12.4209   26.7940 C   0  0  0  0  0  0  0  0  0  0  0  0
    5.2880   13.3543   25.8553 C   0  0  0  0  0  0  0  0  0  0  0  0
    6.3741   13.0809   25.0173 C   0  0  0  0  0  0  0  0  0  0  0  0
    6.7505   14.1107   23.9939 C   0  0  0  0  0  0  0  0  0  0  0  0
    7.0378   11.8552   25.1609 C   0  0  0  0  0  0  0  0  0  0  0  0
    8.3162   11.5588   24.4506 C   0  0  0  0  0  0  0  0  0  0  0  0
    8.4583   10.5143   23.9544 O   0  0  0  0  0  0  0  0  0  0  0  0
    9.2692   12.7723   24.5191 N   0  0  0  0  0  0  0  0  0  0  0  0
   10.5635   12.9871   23.9068 C   0  0  1  0  0  0  0  0  0  0  0  0
   10.4786   12.5768   22.4509 C   0  0  0  0  0  0  0  0  0  0  0  0
   11.0738   14.4296   24.0780 C   0  0  0  0  0  0  0  0  0  0  0  0
   10.5778   15.3044   22.9930 C   0  0  0  0  0  0  0  0  0  0  0  0
   11.2506   15.7233   21.8677 C   0  0  0  0  0  0  0  0  0  0  0  0
   10.3431   16.2930   21.0298 O   0  0  0  0  0  0  0  0  0  0  0  0
    9.1756   16.2304   21.7231 C   0  0  0  0  0  0  0  0  0  0  0  0
    9.2494   15.6372   22.8940 N   0  0  0  0  0  0  0  0  0  0  0  0
    6.5324   10.8757   26.0293 C   0  0  0  0  0  0  0  0  0  0  0  0
  1  2  1  0
  2  3  1  0
  3  4  2  0
  4  5  1  0
  5  6  2  0
  6  7  1  0
  6  8  1  0
  8  9  1  0
  9 10  2  0
  9 11  1  0
 11 12  1  0
 12 13  1  6
 12 14  1  0
 14 15  1  0
 15 16  2  0
 16 17  1  0
 17 18  1  0
 18 19  2  0
  8 20  2  0
 20  3  1  0
 19 15  1  0
M  END
>  <energy_score>  (1965) 
-7.683619

>  <inchikey>  (1965) 
None

>  <smiles>  (1965) 
None

>  <ref_pdb>  (1965) 
A5594a

>  <alias>  (1965) 
None

>  <HIPPO Pose ID>  (1965) 
499609

>  <name>  (1965) 
P499609

>  <HIPPO Compound ID>  (1965) 
306469

>  <ref_mols>  (1965) 
A3408a,A5594a

>  <distance_score>  (1965) 
1.454356

>  <inspiration_score>  (1965) 
None

$$$$
P499610
     RDKit          3D

 21 22  0  0  0  0  0  0  0  0999 V2000
    7.0088   13.8890   23.0628 C   0  0  0  0  0  0  0  0  0  0  0  0
    7.0052   14.0158   24.5784 C   0  0  0  0  0  0  0  0  0  0  0  0
    6.3787   12.8835   25.3822 C   0  0  0  0  0  0  0  0  0  0  0  0
    5.3566   13.2894   26.2652 C   0  0  0  0  0  0  0  0  0  0  0  0
    4.6542   12.3808   27.0559 C   0  0  0  0  0  0  0  0  0  0  0  0
    4.9463   11.0306   26.9804 C   0  0  0  0  0  0  0  0  0  0  0  0
    4.0054    9.8158   28.0771 Br  0  0  0  0  0  0  0  0  0  0  0  0
    5.9448   10.5881   26.1300 C   0  0  0  0  0  0  0  0  0  0  0  0
    6.6918   11.4991   25.3537 C   0  0  0  0  0  0  0  0  0  0  0  0
    7.7719   10.8293   24.5551 C   0  0  0  0  0  0  0  0  0  0  0  0
    7.6184    9.7300   24.2272 O   0  0  0  0  0  0  0  0  0  0  0  0
    8.9122   11.7868   24.2787 N   0  0  0  0  0  0  0  0  0  0  0  0
   10.0724   11.6375   23.4601 C   0  0  0  0  0  0  0  0  0  0  0  0
   11.0654   12.7435   23.7831 C   0  0  0  0  0  0  0  0  0  0  0  0
   10.6959   14.0062   23.1365 C   0  0  0  0  0  0  0  0  0  0  0  0
   10.4086   14.0350   21.8071 N   0  0  0  0  0  0  0  0  0  0  0  0
   10.3036   15.3113   21.5326 C   0  0  0  0  0  0  0  0  0  0  0  0
   10.1716   15.9333   20.2107 C   0  0  0  0  0  0  0  0  0  0  0  0
   10.3976   16.1267   22.6295 O   0  0  0  0  0  0  0  0  0  0  0  0
   10.6244   15.2654   23.6665 C   0  0  0  0  0  0  0  0  0  0  0  0
   10.7377   15.7947   25.0341 C   0  0  0  0  0  0  0  0  0  0  0  0
  1  2  1  0
  2  3  1  0
  3  4  2  0
  4  5  1  0
  5  6  2  0
  6  7  1  0
  6  8  1  0
  8  9  2  0
  9 10  1  0
 10 11  2  0
 10 12  1  0
 12 13  1  0
 13 14  1  0
 14 15  1  0
 15 16  1  0
 16 17  2  0
 17 18  1  0
 17 19  1  0
 19 20  1  0
 20 21  1  0
  9  3  1  0
 20 15  2  0
M  END
>  <energy_score>  (1966) 
-8.494624

>  <inchikey>  (1966) 
None

>  <smiles>  (1966) 
None

>  <ref_pdb>  (1966) 
A5594a

>  <alias>  (1966) 
None

>  <HIPPO Pose ID>  (1966) 
499610

>  <name>  (1966) 
P499610

>  <HIPPO Compound ID>  (1966) 
306474

>  <ref_mols>  (1966) 
A3408a,A5594a

>  <distance_score>  (1966) 
1.527318

>  <inspiration_score>  (1966) 
None

$$$$
P499611
     RDKit          3D

 21 22  0  0  0  0  0  0  0  0999 V2000
    7.1075   14.7463   23.5800 C   0  0  0  0  0  0  0  0  0  0  0  0
    7.2564   14.1587   24.7746 C   0  0  0  0  0  0  0  0  0  0  0  0
    6.2035   13.3010   25.3332 C   0  0  0  0  0  0  0  0  0  0  0  0
    5.1313   13.9926   25.9110 C   0  0  0  0  0  0  0  0  0  0  0  0
    4.1322   13.3193   26.6012 C   0  0  0  0  0  0  0  0  0  0  0  0
    4.1751   11.9402   26.7071 C   0  0  0  0  0  0  0  0  0  0  0  0
    5.1967   11.2109   26.0925 C   0  0  0  0  0  0  0  0  0  0  0  0
    5.1595    9.7291   26.2871 C   0  0  0  0  0  0  0  0  0  0  0  0
    6.2312   11.8892   25.4054 C   0  0  0  0  0  0  0  0  0  0  0  0
    7.4833   11.1425   25.0871 C   0  0  0  0  0  0  0  0  0  0  0  0
    7.7701   10.3219   25.8521 O   0  0  0  0  0  0  0  0  0  0  0  0
    8.2274   11.6530   23.8631 N   0  0  0  0  0  0  0  0  0  0  0  0
    9.5323   11.3319   23.3652 C   0  0  0  0  0  0  0  0  0  0  0  0
   10.4436   12.4546   23.8634 C   0  0  0  0  0  0  0  0  0  0  0  0
   10.3799   13.7088   23.0927 C   0  0  0  0  0  0  0  0  0  0  0  0
    9.9990   13.7568   21.7864 N   0  0  0  0  0  0  0  0  0  0  0  0
   10.2910   14.9859   21.4197 C   0  0  0  0  0  0  0  0  0  0  0  0
   10.2853   15.5593   20.0676 C   0  0  0  0  0  0  0  0  0  0  0  0
   10.7012   15.7975   22.4453 O   0  0  0  0  0  0  0  0  0  0  0  0
   10.7187   14.9662   23.5248 C   0  0  0  0  0  0  0  0  0  0  0  0
   11.0665   15.5035   24.8445 C   0  0  0  0  0  0  0  0  0  0  0  0
  1  2  2  0
  2  3  1  0
  3  4  2  0
  4  5  1  0
  5  6  2  0
  6  7  1  0
  7  8  1  0
  7  9  2  0
  9 10  1  0
 10 11  2  0
 10 12  1  0
 12 13  1  0
 13 14  1  0
 14 15  1  0
 15 16  1  0
 16 17  2  0
 17 18  1  0
 17 19  1  0
 19 20  1  0
 20 21  1  0
  9  3  1  0
 20 15  2  0
M  END
>  <energy_score>  (1967) 
-13.77921

>  <inchikey>  (1967) 
None

>  <smiles>  (1967) 
None

>  <ref_pdb>  (1967) 
A5594a

>  <alias>  (1967) 
None

>  <HIPPO Pose ID>  (1967) 
499611

>  <name>  (1967) 
P499611

>  <HIPPO Compound ID>  (1967) 
306478

>  <ref_mols>  (1967) 
A3408a,A5594a

>  <distance_score>  (1967) 
1.877049

>  <inspiration_score>  (1967) 
None

$$$$
P499612
     RDKit          3D

 21 22  0  0  0  0  0  0  0  0999 V2000
    6.9490   14.3658   23.1802 C   0  0  0  0  0  0  0  0  0  0  0  0
    7.3599   14.2697   24.5519 O   0  0  0  0  0  0  0  0  0  0  0  0
    6.5227   13.4187   25.2336 C   0  0  0  0  0  0  0  0  0  0  0  0
    5.5067   14.0219   25.9711 C   0  0  0  0  0  0  0  0  0  0  0  0
    4.6215   13.2420   26.7008 C   0  0  0  0  0  0  0  0  0  0  0  0
    4.7589   11.8620   26.7001 C   0  0  0  0  0  0  0  0  0  0  0  0
    5.8010   11.2428   25.9935 C   0  0  0  0  0  0  0  0  0  0  0  0
    5.8203    9.7541   26.0415 C   0  0  0  0  0  0  0  0  0  0  0  0
    6.7127   12.0286   25.2593 C   0  0  0  0  0  0  0  0  0  0  0  0
    7.8684   11.3966   24.5305 C   0  0  0  0  0  0  0  0  0  0  0  0
    7.7517   10.3167   24.1214 O   0  0  0  0  0  0  0  0  0  0  0  0
    9.0475   12.3684   24.4434 N   0  0  0  0  0  0  0  0  0  0  0  0
   10.3549   12.1875   23.9222 C   0  0  0  0  0  0  0  0  0  0  0  0
   10.5560   12.7116   22.5497 C   0  0  0  0  0  0  0  0  0  0  0  0
   10.1953   14.0954   22.3051 C   0  0  0  0  0  0  0  0  0  0  0  0
    9.6350   14.4111   21.1116 N   0  0  0  0  0  0  0  0  0  0  0  0
   10.0202   15.6508   20.9465 C   0  0  0  0  0  0  0  0  0  0  0  0
   10.2011   16.3406   19.6696 C   0  0  0  0  0  0  0  0  0  0  0  0
   10.5105   16.2516   22.0780 O   0  0  0  0  0  0  0  0  0  0  0  0
   10.5676   15.2270   22.9812 C   0  0  0  0  0  0  0  0  0  0  0  0
   11.1225   15.4763   24.3140 C   0  0  0  0  0  0  0  0  0  0  0  0
  1  2  1  0
  2  3  1  0
  3  4  2  0
  4  5  1  0
  5  6  2  0
  6  7  1  0
  7  8  1  0
  7  9  2  0
  9 10  1  0
 10 11  2  0
 10 12  1  0
 12 13  1  0
 13 14  1  0
 14 15  1  0
 15 16  1  0
 16 17  2  0
 17 18  1  0
 17 19  1  0
 19 20  1  0
 20 21  1  0
  9  3  1  0
 20 15  2  0
M  END
>  <energy_score>  (1968) 
-21.242873

>  <inchikey>  (1968) 
None

>  <smiles>  (1968) 
None

>  <ref_pdb>  (1968) 
A5594a

>  <alias>  (1968) 
None

>  <HIPPO Pose ID>  (1968) 
499612

>  <name>  (1968) 
P499612

>  <HIPPO Compound ID>  (1968) 
306488

>  <ref_mols>  (1968) 
A3408a,A5594a

>  <distance_score>  (1968) 
1.996579

>  <inspiration_score>  (1968) 
None

$$$$
P499613
     RDKit          3D

 21 22  0  0  0  0  0  0  0  0999 V2000
    6.1895   14.0763   23.7707 C   0  0  0  0  0  0  0  0  0  0  0  0
    6.5150   13.9552   25.2497 C   0  0  0  0  0  0  0  0  0  0  0  0
    6.1601   12.6066   25.8585 C   0  0  0  0  0  0  0  0  0  0  0  0
    5.0856   12.6187   26.7675 C   0  0  0  0  0  0  0  0  0  0  0  0
    4.5408   11.4390   27.2853 C   0  0  0  0  0  0  0  0  0  0  0  0
    3.3461   11.4828   28.1921 C   0  0  0  0  0  0  0  0  0  0  0  0
    5.0526   10.2150   26.8669 C   0  0  0  0  0  0  0  0  0  0  0  0
    6.1347   10.1738   25.9978 C   0  0  0  0  0  0  0  0  0  0  0  0
    6.7253   11.3468   25.5283 C   0  0  0  0  0  0  0  0  0  0  0  0
    7.8318   11.1382   24.5455 C   0  0  0  0  0  0  0  0  0  0  0  0
    7.7936   10.2374   23.8236 O   0  0  0  0  0  0  0  0  0  0  0  0
    8.8119   12.2839   24.6317 N   0  0  0  0  0  0  0  0  0  0  0  0
    9.9076   12.6294   23.7925 C   0  0  0  0  0  0  0  0  0  0  0  0
    9.3101   13.7883   23.0265 C   0  0  0  0  0  0  0  0  0  0  0  0
   10.1363   14.4079   22.0301 C   0  0  0  0  0  0  0  0  0  0  0  0
    9.6174   14.6339   20.7991 N   0  0  0  0  0  0  0  0  0  0  0  0
   10.6179   15.1950   20.1631 C   0  0  0  0  0  0  0  0  0  0  0  0
   10.7007   15.5421   18.7508 C   0  0  0  0  0  0  0  0  0  0  0  0
   11.7317   15.4291   20.9214 O   0  0  0  0  0  0  0  0  0  0  0  0
   11.3916   14.9245   22.1346 C   0  0  0  0  0  0  0  0  0  0  0  0
   12.3305   15.0436   23.2362 C   0  0  0  0  0  0  0  0  0  0  0  0
  1  2  1  0
  2  3  1  0
  3  4  2  0
  4  5  1  0
  5  6  1  0
  5  7  2  0
  7  8  1  0
  8  9  2  0
  9 10  1  0
 10 11  2  0
 10 12  1  0
 12 13  1  0
 13 14  1  0
 14 15  1  0
 15 16  1  0
 16 17  2  0
 17 18  1  0
 17 19  1  0
 19 20  1  0
 20 21  1  0
  9  3  1  0
 20 15  2  0
M  END
>  <energy_score>  (1969) 
-9.171822

>  <inchikey>  (1969) 
None

>  <smiles>  (1969) 
None

>  <ref_pdb>  (1969) 
A5594a

>  <alias>  (1969) 
None

>  <HIPPO Pose ID>  (1969) 
499613

>  <name>  (1969) 
P499613

>  <HIPPO Compound ID>  (1969) 
306497

>  <ref_mols>  (1969) 
A3408a,A5594a

>  <distance_score>  (1969) 
1.601222

>  <inspiration_score>  (1969) 
None

$$$$
P499614
     RDKit          3D

 21 22  0  0  0  0  0  0  0  0999 V2000
    7.0110   14.5865   23.7509 C   0  0  0  0  0  0  0  0  0  0  0  0
    7.2979   13.9386   25.1004 C   0  0  0  0  0  0  0  0  0  0  0  0
    6.2526   12.9305   25.5379 C   0  0  0  0  0  0  0  0  0  0  0  0
    5.1436   13.4749   26.2083 C   0  0  0  0  0  0  0  0  0  0  0  0
    4.2035   12.6628   26.8377 C   0  0  0  0  0  0  0  0  0  0  0  0
    4.3384   11.2868   26.7813 C   0  0  0  0  0  0  0  0  0  0  0  0
    3.4658   10.4702   27.4320 O   0  0  0  0  0  0  0  0  0  0  0  0
    5.3671   10.7085   26.0621 C   0  0  0  0  0  0  0  0  0  0  0  0
    6.3285   11.5167   25.4301 C   0  0  0  0  0  0  0  0  0  0  0  0
    7.5320   10.7752   24.9651 C   0  0  0  0  0  0  0  0  0  0  0  0
    7.7887    9.8035   25.5371 O   0  0  0  0  0  0  0  0  0  0  0  0
    8.2807   11.4923   23.8630 N   0  0  0  0  0  0  0  0  0  0  0  0
    9.5571   11.2272   23.2841 C   0  0  0  0  0  0  0  0  0  0  0  0
   10.4127   12.4242   23.6568 C   0  0  0  0  0  0  0  0  0  0  0  0
   10.3451   13.5972   22.7628 C   0  0  0  0  0  0  0  0  0  0  0  0
    9.4981   13.7877   21.7013 N   0  0  0  0  0  0  0  0  0  0  0  0
   10.0217   14.8478   21.1001 C   0  0  0  0  0  0  0  0  0  0  0  0
    9.8131   15.4209   19.7732 C   0  0  0  0  0  0  0  0  0  0  0  0
   11.0179   15.4602   21.7820 O   0  0  0  0  0  0  0  0  0  0  0  0
   11.2204   14.6424   22.8244 C   0  0  0  0  0  0  0  0  0  0  0  0
   12.3105   14.9747   23.7012 C   0  0  0  0  0  0  0  0  0  0  0  0
  1  2  1  0
  2  3  1  0
  3  4  2  0
  4  5  1  0
  5  6  2  0
  6  7  1  0
  6  8  1  0
  8  9  2  0
  9 10  1  0
 10 11  2  0
 10 12  1  0
 12 13  1  0
 13 14  1  0
 14 15  1  0
 15 16  1  0
 16 17  2  0
 17 18  1  0
 17 19  1  0
 19 20  1  0
 20 21  1  0
  9  3  1  0
 20 15  2  0
M  END
>  <energy_score>  (1970) 
-0.203585

>  <inchikey>  (1970) 
None

>  <smiles>  (1970) 
None

>  <ref_pdb>  (1970) 
A5594a

>  <alias>  (1970) 
None

>  <HIPPO Pose ID>  (1970) 
499614

>  <name>  (1970) 
P499614

>  <HIPPO Compound ID>  (1970) 
306498

>  <ref_mols>  (1970) 
A3408a,A5594a

>  <distance_score>  (1970) 
1.752354

>  <inspiration_score>  (1970) 
None

$$$$
P499615
     RDKit          3D

 21 22  0  0  0  0  0  0  0  0999 V2000
    6.9226   14.5256   23.6762 C   0  0  0  0  0  0  0  0  0  0  0  0
    7.2605   13.9458   25.0469 C   0  0  0  0  0  0  0  0  0  0  0  0
    6.3240   12.8353   25.4784 C   0  0  0  0  0  0  0  0  0  0  0  0
    5.2030   13.2591   26.2168 C   0  0  0  0  0  0  0  0  0  0  0  0
    4.3564   12.3527   26.8548 C   0  0  0  0  0  0  0  0  0  0  0  0
    4.5691   10.9844   26.7377 C   0  0  0  0  0  0  0  0  0  0  0  0
    3.7494   10.0123   27.5335 C   0  0  0  0  0  0  0  0  0  0  0  0
    5.6156   10.5427   25.9327 C   0  0  0  0  0  0  0  0  0  0  0  0
    6.5039   11.4419   25.3013 C   0  0  0  0  0  0  0  0  0  0  0  0
    7.7541   10.7849   24.8065 C   0  0  0  0  0  0  0  0  0  0  0  0
    8.0187    9.7816   25.3192 O   0  0  0  0  0  0  0  0  0  0  0  0
    8.5200   11.5973   23.7825 N   0  0  0  0  0  0  0  0  0  0  0  0
    9.8244   11.4056   23.2313 C   0  0  0  0  0  0  0  0  0  0  0  0
   10.6823   12.5542   23.7686 C   0  0  0  0  0  0  0  0  0  0  0  0
   10.4589   13.8387   23.0838 C   0  0  0  0  0  0  0  0  0  0  0  0
   10.0717   13.9064   21.7805 N   0  0  0  0  0  0  0  0  0  0  0  0
   10.2272   15.1745   21.4751 C   0  0  0  0  0  0  0  0  0  0  0  0
   10.1961   15.7978   20.1462 C   0  0  0  0  0  0  0  0  0  0  0  0
   10.5371   15.9755   22.5430 O   0  0  0  0  0  0  0  0  0  0  0  0
   10.6447   15.1015   23.5844 C   0  0  0  0  0  0  0  0  0  0  0  0
   10.9210   15.6139   24.9330 C   0  0  0  0  0  0  0  0  0  0  0  0
  1  2  1  0
  2  3  1  0
  3  4  2  0
  4  5  1  0
  5  6  2  0
  6  7  1  0
  6  8  1  0
  8  9  2  0
  9 10  1  0
 10 11  2  0
 10 12  1  0
 12 13  1  0
 13 14  1  0
 14 15  1  0
 15 16  1  0
 16 17  2  0
 17 18  1  0
 17 19  1  0
 19 20  1  0
 20 21  1  0
  9  3  1  0
 20 15  2  0
M  END
>  <energy_score>  (1971) 
-11.274584

>  <inchikey>  (1971) 
None

>  <smiles>  (1971) 
None

>  <ref_pdb>  (1971) 
A5594a

>  <alias>  (1971) 
None

>  <HIPPO Pose ID>  (1971) 
499615

>  <name>  (1971) 
P499615

>  <HIPPO Compound ID>  (1971) 
306504

>  <ref_mols>  (1971) 
A3408a,A5594a

>  <distance_score>  (1971) 
1.657998

>  <inspiration_score>  (1971) 
None

$$$$
P499616
     RDKit          3D

 23 24  0  0  0  0  0  0  0  0999 V2000
    7.1147   14.1453   22.0359 C   0  0  0  0  0  0  0  0  0  0  0  0
    6.6046   14.7335   23.3320 C   0  0  0  0  0  0  0  0  0  0  0  0
    7.4715   14.4155   24.5459 C   0  0  0  0  0  0  0  0  0  0  0  0
    7.2417   13.0128   25.0567 C   0  0  0  0  0  0  0  0  0  0  0  0
    6.0910   12.8049   25.8467 C   0  0  0  0  0  0  0  0  0  0  0  0
    5.6693   11.5237   26.1918 C   0  0  0  0  0  0  0  0  0  0  0  0
    6.3778   10.4223   25.7336 C   0  0  0  0  0  0  0  0  0  0  0  0
    7.5401   10.6040   24.9821 C   0  0  0  0  0  0  0  0  0  0  0  0
    8.0048   11.8956   24.6753 C   0  0  0  0  0  0  0  0  0  0  0  0
    9.2602   11.9894   23.8639 C   0  0  0  0  0  0  0  0  0  0  0  0
    9.3454   11.2999   22.9314 O   0  0  0  0  0  0  0  0  0  0  0  0
   10.2223   13.0617   24.4018 N   0  0  0  0  0  0  0  0  0  0  0  0
   11.4663   13.5857   23.8443 C   0  0  1  0  0  0  0  0  0  0  0  0
   11.3348   15.0499   23.4204 C   0  0  0  0  0  0  0  0  0  0  0  0
   10.7456   15.2479   22.0961 C   0  0  0  0  0  0  0  0  0  0  0  0
   10.1465   16.3597   21.5653 C   0  0  0  0  0  0  0  0  0  0  0  0
    9.9567   16.1433   20.2369 O   0  0  0  0  0  0  0  0  0  0  0  0
   10.4696   14.9066   20.0404 C   0  0  0  0  0  0  0  0  0  0  0  0
   10.8961   14.3085   21.1252 N   0  0  0  0  0  0  0  0  0  0  0  0
   12.5003   13.6315   24.9405 C   0  0  0  0  0  0  0  0  0  0  0  0
   12.3650   14.3572   25.9222 O   0  0  0  0  0  0  0  0  0  0  0  0
   13.5252   12.7668   24.7393 O   0  0  0  0  0  0  0  0  0  0  0  0
   14.5005   12.6996   25.7885 C   0  0  0  0  0  0  0  0  0  0  0  0
  1  2  1  0
  2  3  1  0
  3  4  1  0
  4  5  2  0
  5  6  1  0
  6  7  2  0
  7  8  1  0
  8  9  2  0
  9 10  1  0
 10 11  2  0
 10 12  1  0
 12 13  1  0
 13 14  1  1
 14 15  1  0
 15 16  2  0
 16 17  1  0
 17 18  1  0
 18 19  2  0
 13 20  1  0
 20 21  2  0
 20 22  1  0
 22 23  1  0
  9  4  1  0
 19 15  1  0
M  END
>  <energy_score>  (1972) 
-17.449536

>  <inchikey>  (1972) 
None

>  <smiles>  (1972) 
None

>  <ref_pdb>  (1972) 
A5594a

>  <alias>  (1972) 
None

>  <HIPPO Pose ID>  (1972) 
499616

>  <name>  (1972) 
P499616

>  <HIPPO Compound ID>  (1972) 
306513

>  <ref_mols>  (1972) 
A3408a,A5594a

>  <distance_score>  (1972) 
1.642046

>  <inspiration_score>  (1972) 
None

$$$$
P499617
     RDKit          3D

 26 27  0  0  0  0  0  0  0  0999 V2000
   15.6607   12.6256   28.1444 C   0  0  0  0  0  0  0  0  0  0  0  0
   14.6472   13.5389   28.5481 O   0  0  0  0  0  0  0  0  0  0  0  0
   13.7413   13.9131   27.5942 C   0  0  0  0  0  0  0  0  0  0  0  0
   12.7660   14.8296   28.0347 C   0  0  0  0  0  0  0  0  0  0  0  0
   11.7490   15.2716   27.1693 C   0  0  0  0  0  0  0  0  0  0  0  0
   11.6698   14.7534   25.8622 C   0  0  0  0  0  0  0  0  0  0  0  0
   10.7334   15.3729   24.9135 C   0  0  0  0  0  0  0  0  0  0  0  0
   10.9761   16.4753   24.6608 O   0  0  0  0  0  0  0  0  0  0  0  0
    9.6334   14.4589   24.3901 N   0  0  0  0  0  0  0  0  0  0  0  0
    8.6300   14.6796   23.3501 C   0  0  2  0  0  0  0  0  0  0  0  0
    7.3431   13.8976   23.5738 C   0  0  0  0  0  0  0  0  0  0  0  0
    6.2135   14.4641   22.7897 C   0  0  0  0  0  0  0  0  0  0  0  0
    5.5321   15.6498   22.9554 C   0  0  0  0  0  0  0  0  0  0  0  0
    4.5893   15.7333   21.9728 O   0  0  0  0  0  0  0  0  0  0  0  0
    4.7633   14.5880   21.2585 C   0  0  0  0  0  0  0  0  0  0  0  0
    5.7249   13.8010   21.6868 N   0  0  0  0  0  0  0  0  0  0  0  0
    9.1820   14.4685   21.9240 C   0  0  0  0  0  0  0  0  0  0  0  0
    8.5025   14.1991   20.9464 O   0  0  0  0  0  0  0  0  0  0  0  0
   10.5092   14.7168   21.8820 O   0  0  0  0  0  0  0  0  0  0  0  0
   11.0973   15.4742   20.7936 C   0  0  0  0  0  0  0  0  0  0  0  0
   11.6139   14.5825   19.6688 C   0  0  0  0  0  0  0  0  0  0  0  0
   10.1436   16.4951   20.1745 C   0  0  0  0  0  0  0  0  0  0  0  0
   12.2488   16.1754   21.5112 C   0  0  0  0  0  0  0  0  0  0  0  0
   12.6225   13.8134   25.4073 C   0  0  0  0  0  0  0  0  0  0  0  0
   12.4040   13.0795   24.1309 C   0  0  0  0  0  0  0  0  0  0  0  0
   13.6905   13.4288   26.2712 C   0  0  0  0  0  0  0  0  0  0  0  0
  1  2  1  0
  2  3  1  0
  3  4  2  0
  4  5  1  0
  5  6  2  0
  6  7  1  0
  7  8  2  0
  7  9  1  0
  9 10  1  0
 10 11  1  1
 11 12  1  0
 12 13  2  0
 13 14  1  0
 14 15  1  0
 15 16  2  0
 10 17  1  0
 17 18  2  0
 17 19  1  0
 19 20  1  0
 20 21  1  0
 20 22  1  0
 20 23  1  0
  6 24  1  0
 24 25  1  0
 24 26  2  0
 26  3  1  0
 16 12  1  0
M  END
>  <energy_score>  (1973) 
-6.146083

>  <inchikey>  (1973) 
None

>  <smiles>  (1973) 
None

>  <ref_pdb>  (1973) 
A5594a

>  <alias>  (1973) 
None

>  <HIPPO Pose ID>  (1973) 
499617

>  <name>  (1973) 
P499617

>  <HIPPO Compound ID>  (1973) 
306543

>  <ref_mols>  (1973) 
A3408a,A5594a

>  <distance_score>  (1973) 
1.416673

>  <inspiration_score>  (1973) 
None

$$$$
P499618
     RDKit          3D

 26 27  0  0  0  0  0  0  0  0999 V2000
   13.1881   15.7574   30.0965 C   0  0  0  0  0  0  0  0  0  0  0  0
   11.7918   16.0322   30.0416 O   0  0  0  0  0  0  0  0  0  0  0  0
   11.1706   15.8447   28.8382 C   0  0  0  0  0  0  0  0  0  0  0  0
    9.8391   16.2528   28.7947 C   0  0  0  0  0  0  0  0  0  0  0  0
    9.1034   16.1275   27.6173 C   0  0  0  0  0  0  0  0  0  0  0  0
    9.6926   15.5749   26.4719 C   0  0  0  0  0  0  0  0  0  0  0  0
    8.8769   15.5743   25.2349 C   0  0  0  0  0  0  0  0  0  0  0  0
    8.3836   16.5796   24.9294 O   0  0  0  0  0  0  0  0  0  0  0  0
    8.8472   14.2051   24.5497 N   0  0  0  0  0  0  0  0  0  0  0  0
    8.2763   13.7991   23.2792 C   0  0  1  0  0  0  0  0  0  0  0  0
    6.7480   13.7903   23.2684 C   0  0  0  0  0  0  0  0  0  0  0  0
    6.0754   15.0326   23.7079 C   0  0  0  0  0  0  0  0  0  0  0  0
    6.0242   16.2719   23.1144 C   0  0  0  0  0  0  0  0  0  0  0  0
    5.2682   17.0811   23.9041 O   0  0  0  0  0  0  0  0  0  0  0  0
    4.9094   16.2891   24.9440 C   0  0  0  0  0  0  0  0  0  0  0  0
    5.3457   15.0521   24.8820 N   0  0  0  0  0  0  0  0  0  0  0  0
    8.8535   14.4404   22.0043 C   0  0  0  0  0  0  0  0  0  0  0  0
    8.2708   14.3712   20.9281 O   0  0  0  0  0  0  0  0  0  0  0  0
   10.0827   14.9807   22.1984 O   0  0  0  0  0  0  0  0  0  0  0  0
   10.7912   15.6813   21.1292 C   0  0  0  0  0  0  0  0  0  0  0  0
   11.1867   14.7874   19.9515 C   0  0  0  0  0  0  0  0  0  0  0  0
    9.9964   16.8906   20.6393 C   0  0  0  0  0  0  0  0  0  0  0  0
   12.0843   16.1352   21.8029 C   0  0  0  0  0  0  0  0  0  0  0  0
   11.0314   15.1573   26.4888 C   0  0  0  0  0  0  0  0  0  0  0  0
   11.7220   14.6206   25.2610 C   0  0  0  0  0  0  0  0  0  0  0  0
   11.7543   15.2953   27.6935 C   0  0  0  0  0  0  0  0  0  0  0  0
  1  2  1  0
  2  3  1  0
  3  4  2  0
  4  5  1  0
  5  6  2  0
  6  7  1  0
  7  8  2  0
  7  9  1  0
  9 10  1  0
 10 11  1  1
 11 12  1  0
 12 13  2  0
 13 14  1  0
 14 15  1  0
 15 16  2  0
 10 17  1  0
 17 18  2  0
 17 19  1  0
 19 20  1  0
 20 21  1  0
 20 22  1  0
 20 23  1  0
  6 24  1  0
 24 25  1  0
 24 26  2  0
 26  3  1  0
 16 12  1  0
M  END
>  <energy_score>  (1974) 
-22.178924

>  <inchikey>  (1974) 
None

>  <smiles>  (1974) 
None

>  <ref_pdb>  (1974) 
A5594a

>  <alias>  (1974) 
None

>  <HIPPO Pose ID>  (1974) 
499618

>  <name>  (1974) 
P499618

>  <HIPPO Compound ID>  (1974) 
306543

>  <ref_mols>  (1974) 
A3408a,A5594a

>  <distance_score>  (1974) 
1.915337

>  <inspiration_score>  (1974) 
None

$$$$
P499619
     RDKit          3D

 23 26  0  0  0  0  0  0  0  0999 V2000
   11.6079   15.1035   18.6648 C   0  0  0  0  0  0  0  0  0  0  0  0
   10.7803   15.2451   19.8223 N   0  0  0  0  0  0  0  0  0  0  0  0
   11.0985   15.0904   21.1394 C   0  0  0  0  0  0  0  0  0  0  0  0
    9.9056   15.1694   21.8199 C   0  0  0  0  0  0  0  0  0  0  0  0
    9.6357   15.0481   23.1661 N   0  0  0  0  0  0  0  0  0  0  0  0
    8.2909   14.9986   23.7081 C   0  0  0  0  0  0  0  0  0  0  0  0
    8.4530   15.3039   25.1780 C   0  0  1  0  0  0  0  0  0  0  0  0
    7.5188   14.6159   26.1250 C   0  0  0  0  0  0  0  0  0  0  0  0
    7.6002   14.7702   27.3397 O   0  0  0  0  0  0  0  0  0  0  0  0
    6.6645   13.7542   25.5268 O   0  0  0  0  0  0  0  0  0  0  0  0
    6.8066   12.4727   26.0992 C   0  0  1  0  0  0  0  0  0  0  0  0
    5.4949   11.6692   26.3260 C   0  0  0  0  0  0  0  0  0  0  0  0
    5.9347   10.1648   26.2112 C   0  0  0  0  0  0  0  0  0  0  0  0
    7.1012   10.2902   25.3305 C   0  0  0  0  0  0  0  0  0  0  0  0
    7.8212    9.5082   24.4982 N   0  0  0  0  0  0  0  0  0  0  0  0
    8.7535   10.2304   23.8399 N   0  0  0  0  0  0  0  0  0  0  0  0
    8.6029   11.4811   24.2929 C   0  0  0  0  0  0  0  0  0  0  0  0
    7.5820   11.5583   25.2329 C   0  0  0  0  0  0  0  0  0  0  0  0
    9.9044   14.9083   25.4592 C   0  0  0  0  0  0  0  0  0  0  0  0
   10.6146   15.0151   24.1444 C   0  0  0  0  0  0  0  0  0  0  0  0
   11.8298   15.0726   24.0600 O   0  0  0  0  0  0  0  0  0  0  0  0
    8.9572   15.4272   20.8252 C   0  0  0  0  0  0  0  0  0  0  0  0
    9.4935   15.5046   19.6149 N   0  0  0  0  0  0  0  0  0  0  0  0
  1  2  1  0
  2  3  1  0
  3  4  2  0
  4  5  1  0
  5  6  1  0
  6  7  1  0
  7  8  1  1
  8  9  2  0
  8 10  1  0
 11 10  1  6
 11 12  1  0
 12 13  1  0
 13 14  1  0
 14 15  1  0
 15 16  1  0
 16 17  2  0
 17 18  1  0
  7 19  1  0
 19 20  1  0
 20 21  2  0
  4 22  1  0
 22 23  2  0
 23  2  1  0
 20  5  1  0
 18 11  1  0
 18 14  2  0
M  END
>  <energy_score>  (1975) 
-43.43562

>  <inchikey>  (1975) 
None

>  <smiles>  (1975) 
None

>  <ref_pdb>  (1975) 
A3956a

>  <alias>  (1975) 
None

>  <HIPPO Pose ID>  (1975) 
499619

>  <name>  (1975) 
P499619

>  <HIPPO Compound ID>  (1975) 
307058

>  <ref_mols>  (1975) 
A3956a,A0556a

>  <distance_score>  (1975) 
1.52688

>  <inspiration_score>  (1975) 
None

$$$$
P499620
     RDKit          3D

 23 26  0  0  0  0  0  0  0  0999 V2000
   11.6282   15.1833   18.3237 C   0  0  0  0  0  0  0  0  0  0  0  0
   10.9005   15.3275   19.5391 N   0  0  0  0  0  0  0  0  0  0  0  0
   11.3550   15.1513   20.8049 C   0  0  0  0  0  0  0  0  0  0  0  0
   10.2303   15.1272   21.5849 C   0  0  0  0  0  0  0  0  0  0  0  0
   10.1272   14.8886   22.9293 N   0  0  0  0  0  0  0  0  0  0  0  0
    8.8769   14.6640   23.5811 C   0  0  0  0  0  0  0  0  0  0  0  0
    9.2460   14.3362   25.0014 C   0  0  2  0  0  0  0  0  0  0  0  0
    8.1708   14.9117   25.8756 C   0  0  0  0  0  0  0  0  0  0  0  0
    8.3536   15.7304   26.7637 O   0  0  0  0  0  0  0  0  0  0  0  0
    6.9515   14.3689   25.5764 O   0  0  0  0  0  0  0  0  0  0  0  0
    6.7251   13.2298   26.3798 C   0  0  1  0  0  0  0  0  0  0  0  0
    5.2412   13.0162   26.8236 C   0  0  0  0  0  0  0  0  0  0  0  0
    5.2039   11.5117   27.2611 C   0  0  0  0  0  0  0  0  0  0  0  0
    6.1840   10.9729   26.3074 C   0  0  0  0  0  0  0  0  0  0  0  0
    6.4710    9.7799   25.7630 N   0  0  0  0  0  0  0  0  0  0  0  0
    7.4538    9.8850   24.8443 N   0  0  0  0  0  0  0  0  0  0  0  0
    7.7592   11.1936   24.8199 C   0  0  0  0  0  0  0  0  0  0  0  0
    7.0152   11.9064   25.7607 C   0  0  0  0  0  0  0  0  0  0  0  0
   10.6447   14.8978   25.1904 C   0  0  0  0  0  0  0  0  0  0  0  0
   11.1862   15.0028   23.8045 C   0  0  0  0  0  0  0  0  0  0  0  0
   12.3681   15.1940   23.5876 O   0  0  0  0  0  0  0  0  0  0  0  0
    9.1760   15.4085   20.7073 C   0  0  0  0  0  0  0  0  0  0  0  0
    9.5950   15.5602   19.4573 N   0  0  0  0  0  0  0  0  0  0  0  0
  1  2  1  0
  2  3  1  0
  3  4  2  0
  4  5  1  0
  5  6  1  0
  6  7  1  0
  7  8  1  1
  8  9  2  0
  8 10  1  0
 11 10  1  6
 11 12  1  0
 12 13  1  0
 13 14  1  0
 14 15  1  0
 15 16  1  0
 16 17  2  0
 17 18  1  0
  7 19  1  0
 19 20  1  0
 20 21  2  0
  4 22  1  0
 22 23  2  0
 23  2  1  0
 20  5  1  0
 18 11  1  0
 18 14  2  0
M  END
>  <energy_score>  (1976) 
-16.593602

>  <inchikey>  (1976) 
None

>  <smiles>  (1976) 
None

>  <ref_pdb>  (1976) 
A3956a

>  <alias>  (1976) 
None

>  <HIPPO Pose ID>  (1976) 
499620

>  <name>  (1976) 
P499620

>  <HIPPO Compound ID>  (1976) 
307058

>  <ref_mols>  (1976) 
A3956a,A0556a

>  <distance_score>  (1976) 
1.634419

>  <inspiration_score>  (1976) 
None

$$$$
P499621
     RDKit          3D

 23 24  0  0  0  0  0  0  0  0999 V2000
   11.2688   14.9477   18.6218 C   0  0  0  0  0  0  0  0  0  0  0  0
   10.9702   15.2801   20.0129 C   0  0  0  0  0  0  0  0  0  0  0  0
   11.3627   14.6706   21.1739 C   0  0  0  0  0  0  0  0  0  0  0  0
   10.8081   15.4558   22.1892 C   0  0  0  0  0  0  0  0  0  0  0  0
   10.8484   15.2038   23.6419 C   0  0  0  0  0  0  0  0  0  0  0  0
    9.7627   14.2333   24.0413 C   0  0  0  0  0  0  0  0  0  0  0  0
    9.9785   13.3148   24.7316 O   0  0  0  0  0  0  0  0  0  0  0  0
    8.4348   14.7157   23.3924 N   0  0  0  0  0  0  0  0  0  0  0  0
    7.1329   14.1175   23.3836 C   0  0  2  0  0  0  0  0  0  0  0  0
    6.5736   14.1707   21.9687 C   0  0  0  0  0  0  0  0  0  0  0  0
    6.1666   14.7124   24.4258 C   0  0  0  0  0  0  0  0  0  0  0  0
    4.9254   13.8087   24.5963 C   0  0  0  0  0  0  0  0  0  0  0  0
    4.7474   13.3050   26.0275 C   0  0  0  0  0  0  0  0  0  0  0  0
    5.9598   12.7244   26.5872 N   0  0  0  0  0  0  0  0  0  0  0  0
    6.2449   11.3052   26.2653 C   0  0  0  0  0  0  0  0  0  0  0  0
    7.2887   10.8078   25.2429 C   0  0  0  0  0  0  0  0  0  0  0  0
    6.9958   11.1365   23.9797 F   0  0  0  0  0  0  0  0  0  0  0  0
    8.5155   11.2668   25.5066 F   0  0  0  0  0  0  0  0  0  0  0  0
    7.3445    9.4537   25.2994 F   0  0  0  0  0  0  0  0  0  0  0  0
    7.0925   13.6355   26.5089 C   0  0  0  0  0  0  0  0  0  0  0  0
    6.8038   14.9545   25.7989 C   0  0  0  0  0  0  0  0  0  0  0  0
   10.0512   16.4475   21.7008 N   0  0  0  0  0  0  0  0  0  0  0  0
   10.1820   16.3264   20.3739 N   0  0  0  0  0  0  0  0  0  0  0  0
  1  2  1  0
  2  3  2  0
  3  4  1  0
  4  5  1  0
  5  6  1  0
  6  7  2  0
  6  8  1  0
  8  9  1  0
  9 10  1  6
  9 11  1  0
 11 12  1  0
 12 13  1  0
 13 14  1  0
 14 15  1  0
 15 16  1  0
 16 17  1  0
 16 18  1  0
 16 19  1  0
 14 20  1  0
 20 21  1  0
  4 22  2  0
 22 23  1  0
 23  2  1  0
 21 11  1  0
M  END
>  <energy_score>  (1977) 
-8.864612

>  <inchikey>  (1977) 
None

>  <smiles>  (1977) 
None

>  <ref_pdb>  (1977) 
A4846a

>  <alias>  (1977) 
None

>  <HIPPO Pose ID>  (1977) 
499621

>  <name>  (1977) 
P499621

>  <HIPPO Compound ID>  (1977) 
307155

>  <ref_mols>  (1977) 
A0556a,A4846a

>  <distance_score>  (1977) 
1.940007

>  <inspiration_score>  (1977) 
None

$$$$
P499622
     RDKit          3D

 23 24  0  0  0  0  0  0  0  0999 V2000
    6.6790   14.0998   22.1535 C   0  0  0  0  0  0  0  0  0  0  0  0
    6.9649   15.0661   23.3061 C   0  0  2  0  0  0  0  0  0  0  0  0
    8.3759   15.3776   23.2687 N   0  0  0  0  0  0  0  0  0  0  0  0
    9.6198   14.4654   23.4946 C   0  0  0  0  0  0  0  0  0  0  0  0
    9.6880   13.3443   23.8206 O   0  0  0  0  0  0  0  0  0  0  0  0
   10.8399   15.2947   23.1705 C   0  0  0  0  0  0  0  0  0  0  0  0
   10.8579   15.4044   21.6960 C   0  0  0  0  0  0  0  0  0  0  0  0
   11.3486   14.4777   20.8701 C   0  0  0  0  0  0  0  0  0  0  0  0
   11.1446   15.0227   19.5258 C   0  0  0  0  0  0  0  0  0  0  0  0
   11.6244   14.5564   18.5137 O   0  0  0  0  0  0  0  0  0  0  0  0
   10.4152   16.1921   19.6677 N   0  0  0  0  0  0  0  0  0  0  0  0
   10.2451   16.4496   21.0321 N   0  0  0  0  0  0  0  0  0  0  0  0
    6.4007   14.7108   24.7181 C   0  0  0  0  0  0  0  0  0  0  0  0
    7.4410   14.3442   25.7984 C   0  0  0  0  0  0  0  0  0  0  0  0
    6.8545   13.7101   27.0551 C   0  0  0  0  0  0  0  0  0  0  0  0
    5.9108   12.6321   26.7776 N   0  0  0  0  0  0  0  0  0  0  0  0
    6.4368   11.3629   26.1824 C   0  0  0  0  0  0  0  0  0  0  0  0
    7.5103   11.2176   25.0762 C   0  0  0  0  0  0  0  0  0  0  0  0
    8.7402   11.5037   25.5179 F   0  0  0  0  0  0  0  0  0  0  0  0
    7.5608    9.9431   24.6357 F   0  0  0  0  0  0  0  0  0  0  0  0
    7.2412   11.9861   24.0184 F   0  0  0  0  0  0  0  0  0  0  0  0
    4.8053   13.2381   26.0445 C   0  0  0  0  0  0  0  0  0  0  0  0
    5.1917   13.7584   24.6712 C   0  0  0  0  0  0  0  0  0  0  0  0
  2  1  1  6
  2  3  1  0
  3  4  1  0
  4  5  2  0
  4  6  1  0
  6  7  1  0
  7  8  2  0
  8  9  1  0
  9 10  2  0
  9 11  1  0
 11 12  1  0
  2 13  1  0
 13 14  1  0
 14 15  1  0
 15 16  1  0
 16 17  1  0
 17 18  1  0
 18 19  1  0
 18 20  1  0
 18 21  1  0
 16 22  1  0
 22 23  1  0
 12  7  1  0
 23 13  1  0
M  END
>  <energy_score>  (1978) 
-11.123094

>  <inchikey>  (1978) 
None

>  <smiles>  (1978) 
None

>  <ref_pdb>  (1978) 
A4846a

>  <alias>  (1978) 
None

>  <HIPPO Pose ID>  (1978) 
499622

>  <name>  (1978) 
P499622

>  <HIPPO Compound ID>  (1978) 
307156

>  <ref_mols>  (1978) 
A0556a,A4846a

>  <distance_score>  (1978) 
1.999721

>  <inspiration_score>  (1978) 
None

$$$$
P499623
     RDKit          3D

 23 24  0  0  0  0  0  0  0  0999 V2000
   11.4086   13.3713   23.1159 C   0  0  0  0  0  0  0  0  0  0  0  0
   11.0086   14.8348   22.9216 C   0  0  2  0  0  0  0  0  0  0  0  0
    9.7195   14.9799   23.7496 C   0  0  0  0  0  0  0  0  0  0  0  0
    9.7402   15.3623   24.8542 O   0  0  0  0  0  0  0  0  0  0  0  0
    8.5410   14.4470   22.8920 N   0  0  0  0  0  0  0  0  0  0  0  0
    7.1634   14.1850   23.2470 C   0  0  2  0  0  0  0  0  0  0  0  0
    6.4090   14.1563   21.9092 C   0  0  0  0  0  0  0  0  0  0  0  0
    6.3307   14.9715   24.2908 C   0  0  0  0  0  0  0  0  0  0  0  0
    6.9626   15.2817   25.6451 C   0  0  0  0  0  0  0  0  0  0  0  0
    7.3611   13.9855   26.3504 C   0  0  0  0  0  0  0  0  0  0  0  0
    6.2518   13.0388   26.4806 N   0  0  0  0  0  0  0  0  0  0  0  0
    6.5321   11.6084   26.2974 C   0  0  0  0  0  0  0  0  0  0  0  0
    7.3512   11.0399   25.1349 C   0  0  0  0  0  0  0  0  0  0  0  0
    7.3991    9.6892   25.2380 F   0  0  0  0  0  0  0  0  0  0  0  0
    6.7390   11.3277   23.9775 F   0  0  0  0  0  0  0  0  0  0  0  0
    8.6181   11.4828   25.0569 F   0  0  0  0  0  0  0  0  0  0  0  0
    4.9792   13.5344   25.9917 C   0  0  0  0  0  0  0  0  0  0  0  0
    5.0233   14.1688   24.5961 C   0  0  0  0  0  0  0  0  0  0  0  0
   10.9358   15.1915   21.4662 C   0  0  0  0  0  0  0  0  0  0  0  0
    9.9635   15.7219   20.6422 C   0  0  0  0  0  0  0  0  0  0  0  0
   10.4387   15.5048   19.3395 C   0  0  0  0  0  0  0  0  0  0  0  0
   11.6844   15.0441   19.3311 N   0  0  0  0  0  0  0  0  0  0  0  0
   12.0110   15.0211   20.6273 N   0  0  0  0  0  0  0  0  0  0  0  0
  2  1  1  6
  2  3  1  0
  3  4  2  0
  3  5  1  0
  5  6  1  0
  6  7  1  6
  6  8  1  0
  8  9  1  0
  9 10  1  0
 10 11  1  0
 11 12  1  0
 12 13  1  0
 13 14  1  0
 13 15  1  0
 13 16  1  0
 11 17  1  0
 17 18  1  0
  2 19  1  0
 19 20  2  0
 20 21  1  0
 21 22  2  0
 22 23  1  0
 18  8  1  0
 23 19  1  0
M  END
>  <energy_score>  (1979) 
-1.836406

>  <inchikey>  (1979) 
None

>  <smiles>  (1979) 
None

>  <ref_pdb>  (1979) 
A4846a

>  <alias>  (1979) 
None

>  <HIPPO Pose ID>  (1979) 
499623

>  <name>  (1979) 
P499623

>  <HIPPO Compound ID>  (1979) 
307157

>  <ref_mols>  (1979) 
A0556a,A4846a

>  <distance_score>  (1979) 
1.754742

>  <inspiration_score>  (1979) 
None

$$$$
P499624
     RDKit          3D

 23 24  0  0  0  0  0  0  0  0999 V2000
   11.8615   13.8882   23.5196 C   0  0  0  0  0  0  0  0  0  0  0  0
   10.6306   13.9917   22.6395 C   0  0  1  0  0  0  0  0  0  0  0  0
    9.5123   14.7008   23.4058 C   0  0  0  0  0  0  0  0  0  0  0  0
    9.6885   15.3685   24.3485 O   0  0  0  0  0  0  0  0  0  0  0  0
    8.1883   14.2473   22.7248 N   0  0  0  0  0  0  0  0  0  0  0  0
    6.8200   14.6014   23.0102 C   0  0  2  0  0  0  0  0  0  0  0  0
    6.5625   16.0481   22.7401 C   0  0  0  0  0  0  0  0  0  0  0  0
    6.4837   14.1525   24.4198 C   0  0  0  0  0  0  0  0  0  0  0  0
    6.8046   15.0127   25.6373 C   0  0  0  0  0  0  0  0  0  0  0  0
    6.8307   14.0641   26.8583 C   0  0  0  0  0  0  0  0  0  0  0  0
    5.8575   12.9585   26.7963 N   0  0  0  0  0  0  0  0  0  0  0  0
    6.3610   11.5894   26.4993 C   0  0  0  0  0  0  0  0  0  0  0  0
    7.2698   11.1120   25.3355 C   0  0  0  0  0  0  0  0  0  0  0  0
    7.4403    9.7689   25.4341 F   0  0  0  0  0  0  0  0  0  0  0  0
    8.4976   11.6622   25.3035 F   0  0  0  0  0  0  0  0  0  0  0  0
    6.6998   11.3408   24.1398 F   0  0  0  0  0  0  0  0  0  0  0  0
    4.6989   13.3693   26.0150 C   0  0  0  0  0  0  0  0  0  0  0  0
    5.0302   13.6963   24.5586 C   0  0  0  0  0  0  0  0  0  0  0  0
   10.8393   14.6554   21.3132 C   0  0  0  0  0  0  0  0  0  0  0  0
    9.9371   15.0615   20.3488 C   0  0  0  0  0  0  0  0  0  0  0  0
   10.7046   15.3287   19.2128 C   0  0  0  0  0  0  0  0  0  0  0  0
   12.0000   15.1816   19.4460 N   0  0  0  0  0  0  0  0  0  0  0  0
   12.0599   14.9223   20.7559 N   0  0  0  0  0  0  0  0  0  0  0  0
  2  1  1  1
  2  3  1  0
  3  4  2  0
  3  5  1  0
  5  6  1  0
  6  7  1  1
  6  8  1  0
  8  9  1  0
  9 10  1  0
 10 11  1  0
 11 12  1  0
 12 13  1  0
 13 14  1  0
 13 15  1  0
 13 16  1  0
 11 17  1  0
 17 18  1  0
  2 19  1  0
 19 20  2  0
 20 21  1  0
 21 22  2  0
 22 23  1  0
 18  8  1  0
 23 19  1  0
M  END
>  <energy_score>  (1980) 
-18.269716

>  <inchikey>  (1980) 
None

>  <smiles>  (1980) 
None

>  <ref_pdb>  (1980) 
A4846a

>  <alias>  (1980) 
None

>  <HIPPO Pose ID>  (1980) 
499624

>  <name>  (1980) 
P499624

>  <HIPPO Compound ID>  (1980) 
307157

>  <ref_mols>  (1980) 
A0556a,A4846a

>  <distance_score>  (1980) 
1.825654

>  <inspiration_score>  (1980) 
None

$$$$
P499625
     RDKit          3D

 23 24  0  0  0  0  0  0  0  0999 V2000
    5.9905   14.5981   22.1071 C   0  0  0  0  0  0  0  0  0  0  0  0
    6.8751   15.0194   23.2749 C   0  0  2  0  0  0  0  0  0  0  0  0
    8.2096   14.5286   22.9568 N   0  0  0  0  0  0  0  0  0  0  0  0
    9.4908   14.4371   23.8393 C   0  0  0  0  0  0  0  0  0  0  0  0
    9.6468   14.6699   24.9753 O   0  0  0  0  0  0  0  0  0  0  0  0
   10.5823   13.8485   22.9349 C   0  0  2  0  0  0  0  0  0  0  0  0
   11.8686   13.6510   23.7060 C   0  0  0  0  0  0  0  0  0  0  0  0
   10.7756   14.6661   21.7023 C   0  0  0  0  0  0  0  0  0  0  0  0
   10.4558   15.9633   21.3735 C   0  0  0  0  0  0  0  0  0  0  0  0
   10.6419   16.0270   19.9860 C   0  0  0  0  0  0  0  0  0  0  0  0
   11.1509   14.9103   19.4808 N   0  0  0  0  0  0  0  0  0  0  0  0
   11.2468   14.1102   20.5455 N   0  0  0  0  0  0  0  0  0  0  0  0
    6.4394   14.3703   24.5870 C   0  0  0  0  0  0  0  0  0  0  0  0
    6.7606   15.1160   25.8785 C   0  0  0  0  0  0  0  0  0  0  0  0
    6.8220   14.0494   26.9959 C   0  0  0  0  0  0  0  0  0  0  0  0
    5.8507   12.9464   26.8532 N   0  0  0  0  0  0  0  0  0  0  0  0
    6.3579   11.6058   26.4473 C   0  0  0  0  0  0  0  0  0  0  0  0
    7.2419   11.2103   25.2348 C   0  0  0  0  0  0  0  0  0  0  0  0
    6.6755   11.5607   24.0667 F   0  0  0  0  0  0  0  0  0  0  0  0
    8.4901   11.7105   25.2460 F   0  0  0  0  0  0  0  0  0  0  0  0
    7.3634    9.8562   25.2152 F   0  0  0  0  0  0  0  0  0  0  0  0
    4.6807   13.4094   26.1177 C   0  0  0  0  0  0  0  0  0  0  0  0
    4.9880   13.8830   24.6944 C   0  0  0  0  0  0  0  0  0  0  0  0
  2  1  1  6
  2  3  1  0
  3  4  1  0
  4  5  2  0
  4  6  1  0
  6  7  1  1
  6  8  1  0
  8  9  2  0
  9 10  1  0
 10 11  2  0
 11 12  1  0
  2 13  1  0
 13 14  1  0
 14 15  1  0
 15 16  1  0
 16 17  1  0
 17 18  1  0
 18 19  1  0
 18 20  1  0
 18 21  1  0
 16 22  1  0
 22 23  1  0
 12  8  1  0
 23 13  1  0
M  END
>  <energy_score>  (1981) 
-14.293175

>  <inchikey>  (1981) 
None

>  <smiles>  (1981) 
None

>  <ref_pdb>  (1981) 
A4846a

>  <alias>  (1981) 
None

>  <HIPPO Pose ID>  (1981) 
499625

>  <name>  (1981) 
P499625

>  <HIPPO Compound ID>  (1981) 
307157

>  <ref_mols>  (1981) 
A0556a,A4846a

>  <distance_score>  (1981) 
1.95407

>  <inspiration_score>  (1981) 
None

$$$$
P499626
     RDKit          3D

 23 24  0  0  0  0  0  0  0  0999 V2000
    6.8329   14.1622   21.8615 C   0  0  0  0  0  0  0  0  0  0  0  0
    7.4303   14.1916   23.2626 C   0  0  1  0  0  0  0  0  0  0  0  0
    8.7544   14.7330   23.1827 N   0  0  0  0  0  0  0  0  0  0  0  0
   10.1324   14.0818   23.4971 C   0  0  0  0  0  0  0  0  0  0  0  0
   10.3900   13.0321   23.9419 O   0  0  0  0  0  0  0  0  0  0  0  0
   11.2026   15.0384   23.0115 C   0  0  0  0  0  0  0  0  0  0  0  0
   11.1652   15.0800   21.5306 C   0  0  0  0  0  0  0  0  0  0  0  0
   11.7230   14.1313   20.7223 N   0  0  0  0  0  0  0  0  0  0  0  0
   11.6768   14.4373   19.4141 N   0  0  0  0  0  0  0  0  0  0  0  0
   10.8537   15.4825   19.3732 C   0  0  0  0  0  0  0  0  0  0  0  0
   10.5004   15.8957   20.6570 C   0  0  0  0  0  0  0  0  0  0  0  0
    9.3213   17.2511   21.1122 Br  0  0  0  0  0  0  0  0  0  0  0  0
    6.4731   14.8387   24.2793 C   0  0  0  0  0  0  0  0  0  0  0  0
    7.1076   15.1402   25.6398 C   0  0  0  0  0  0  0  0  0  0  0  0
    7.4038   13.8406   26.3851 C   0  0  0  0  0  0  0  0  0  0  0  0
    6.2773   12.9065   26.4933 N   0  0  0  0  0  0  0  0  0  0  0  0
    6.5496   11.4787   26.1940 C   0  0  0  0  0  0  0  0  0  0  0  0
    7.4713   11.0184   25.0596 C   0  0  0  0  0  0  0  0  0  0  0  0
    6.9624   11.4135   23.8849 F   0  0  0  0  0  0  0  0  0  0  0  0
    8.7233   11.4725   25.1824 F   0  0  0  0  0  0  0  0  0  0  0  0
    7.5534    9.6751   25.0177 F   0  0  0  0  0  0  0  0  0  0  0  0
    5.0550   13.4351   25.9100 C   0  0  0  0  0  0  0  0  0  0  0  0
    5.2261   13.9392   24.4802 C   0  0  0  0  0  0  0  0  0  0  0  0
  2  1  1  6
  2  3  1  0
  3  4  1  0
  4  5  2  0
  4  6  1  0
  6  7  1  0
  7  8  1  0
  8  9  1  0
  9 10  2  0
 10 11  1  0
 11 12  1  0
  2 13  1  0
 13 14  1  0
 14 15  1  0
 15 16  1  0
 16 17  1  0
 17 18  1  0
 18 19  1  0
 18 20  1  0
 18 21  1  0
 16 22  1  0
 22 23  1  0
 11  7  2  0
 23 13  1  0
M  END
>  <energy_score>  (1982) 
-3.217301

>  <inchikey>  (1982) 
None

>  <smiles>  (1982) 
None

>  <ref_pdb>  (1982) 
A4846a

>  <alias>  (1982) 
None

>  <HIPPO Pose ID>  (1982) 
499626

>  <name>  (1982) 
P499626

>  <HIPPO Compound ID>  (1982) 
307158

>  <ref_mols>  (1982) 
A0556a,A4846a

>  <distance_score>  (1982) 
1.73759

>  <inspiration_score>  (1982) 
None

$$$$
P499627
     RDKit          3D

 24 26  0  0  0  0  0  0  0  0999 V2000
    6.0875   14.0048   22.2971 C   0  0  0  0  0  0  0  0  0  0  0  0
    6.9195   14.5094   23.4638 C   0  0  2  0  0  0  0  0  0  0  0  0
    8.2100   14.8807   22.9431 N   0  0  0  0  0  0  0  0  0  0  0  0
    9.3866   14.0104   22.4800 C   0  0  0  0  0  0  0  0  0  0  0  0
    9.4739   12.8562   22.3729 O   0  0  0  0  0  0  0  0  0  0  0  0
   10.5744   14.8468   22.2332 C   0  0  0  0  0  0  0  0  0  0  0  0
   10.8402   15.1326   20.7453 C   0  0  0  0  0  0  0  0  0  0  0  0
   11.6467   14.3063   19.9645 C   0  0  0  0  0  0  0  0  0  0  0  0
   11.5697   14.8362   18.7159 C   0  0  0  0  0  0  0  0  0  0  0  0
   11.0041   16.0490   18.8895 N   0  0  0  0  0  0  0  0  0  0  0  0
   10.4163   16.2128   20.0877 N   0  0  0  0  0  0  0  0  0  0  0  0
   10.9503   15.8967   23.2255 C   0  0  0  0  0  0  0  0  0  0  0  0
   11.7763   14.6594   23.1354 C   0  0  0  0  0  0  0  0  0  0  0  0
    7.0178   13.5706   24.7007 C   0  0  0  0  0  0  0  0  0  0  0  0
    7.7201   12.2260   24.4711 C   0  0  0  0  0  0  0  0  0  0  0  0
    7.1089   11.0387   25.1898 C   0  0  0  0  0  0  0  0  0  0  0  0
    6.5637   11.3029   26.5160 N   0  0  0  0  0  0  0  0  0  0  0  0
    5.8298   10.0958   26.9774 C   0  0  0  0  0  0  0  0  0  0  0  0
    5.4030   10.0012   28.4416 C   0  0  0  0  0  0  0  0  0  0  0  0
    5.4536    8.7358   28.9079 F   0  0  0  0  0  0  0  0  0  0  0  0
    4.1290   10.4298   28.5809 F   0  0  0  0  0  0  0  0  0  0  0  0
    6.1803   10.7508   29.2571 F   0  0  0  0  0  0  0  0  0  0  0  0
    5.7532   12.5172   26.6210 C   0  0  0  0  0  0  0  0  0  0  0  0
    5.6484   13.3431   25.3401 C   0  0  0  0  0  0  0  0  0  0  0  0
  2  1  1  6
  2  3  1  0
  3  4  1  0
  4  5  2  0
  4  6  1  0
  6  7  1  0
  7  8  1  0
  8  9  2  0
  9 10  1  0
 10 11  1  0
  6 12  1  0
 12 13  1  0
  2 14  1  0
 14 15  1  0
 15 16  1  0
 16 17  1  0
 17 18  1  0
 18 19  1  0
 19 20  1  0
 19 21  1  0
 19 22  1  0
 17 23  1  0
 23 24  1  0
 13  6  1  0
 24 14  1  0
 11  7  2  0
M  END
>  <energy_score>  (1983) 
-26.563307

>  <inchikey>  (1983) 
None

>  <smiles>  (1983) 
None

>  <ref_pdb>  (1983) 
A4846a

>  <alias>  (1983) 
None

>  <HIPPO Pose ID>  (1983) 
499627

>  <name>  (1983) 
P499627

>  <HIPPO Compound ID>  (1983) 
307166

>  <ref_mols>  (1983) 
A0556a,A4846a

>  <distance_score>  (1983) 
1.311079

>  <inspiration_score>  (1983) 
None

$$$$
P499628
     RDKit          3D

 24 26  0  0  0  0  0  0  0  0999 V2000
    5.8725   15.1176   22.7388 C   0  0  0  0  0  0  0  0  0  0  0  0
    6.7096   13.8617   22.7321 C   0  0  1  0  0  0  0  0  0  0  0  0
    8.0707   14.1547   22.4002 N   0  0  0  0  0  0  0  0  0  0  0  0
    9.1545   14.8790   23.1985 C   0  0  0  0  0  0  0  0  0  0  0  0
    9.0986   15.4240   24.2254 O   0  0  0  0  0  0  0  0  0  0  0  0
   10.4798   14.7165   22.4970 C   0  0  0  0  0  0  0  0  0  0  0  0
   10.5565   15.1264   20.9667 C   0  0  0  0  0  0  0  0  0  0  0  0
   11.7637   15.2542   20.2548 C   0  0  0  0  0  0  0  0  0  0  0  0
   11.3947   15.4095   18.9490 C   0  0  0  0  0  0  0  0  0  0  0  0
   10.0411   15.3799   18.9365 N   0  0  0  0  0  0  0  0  0  0  0  0
    9.4971   15.2132   20.1576 N   0  0  0  0  0  0  0  0  0  0  0  0
   11.7397   14.6877   23.3336 C   0  0  0  0  0  0  0  0  0  0  0  0
   11.1976   13.4033   22.8159 C   0  0  0  0  0  0  0  0  0  0  0  0
    6.5264   12.9708   23.9808 C   0  0  0  0  0  0  0  0  0  0  0  0
    7.6532   11.9685   24.2531 C   0  0  0  0  0  0  0  0  0  0  0  0
    7.2418   10.9421   25.3156 C   0  0  0  0  0  0  0  0  0  0  0  0
    6.0764   11.3424   26.1220 N   0  0  0  0  0  0  0  0  0  0  0  0
    5.9271   10.4840   27.3199 C   0  0  0  0  0  0  0  0  0  0  0  0
    4.5406   10.1466   27.8532 C   0  0  0  0  0  0  0  0  0  0  0  0
    4.6413    9.5709   29.0759 F   0  0  0  0  0  0  0  0  0  0  0  0
    3.7666   11.2460   27.9935 F   0  0  0  0  0  0  0  0  0  0  0  0
    3.8972    9.2821   27.0483 F   0  0  0  0  0  0  0  0  0  0  0  0
    6.1446   12.7602   26.4972 C   0  0  0  0  0  0  0  0  0  0  0  0
    6.1900   13.7017   25.2869 C   0  0  0  0  0  0  0  0  0  0  0  0
  2  1  1  1
  2  3  1  0
  3  4  1  0
  4  5  2  0
  4  6  1  0
  6  7  1  0
  7  8  1  0
  8  9  2  0
  9 10  1  0
 10 11  1  0
  6 12  1  0
 12 13  1  0
  2 14  1  0
 14 15  1  0
 15 16  1  0
 16 17  1  0
 17 18  1  0
 18 19  1  0
 19 20  1  0
 19 21  1  0
 19 22  1  0
 17 23  1  0
 23 24  1  0
 13  6  1  0
 24 14  1  0
 11  7  2  0
M  END
>  <energy_score>  (1984) 
-28.653445

>  <inchikey>  (1984) 
None

>  <smiles>  (1984) 
None

>  <ref_pdb>  (1984) 
A4846a

>  <alias>  (1984) 
None

>  <HIPPO Pose ID>  (1984) 
499628

>  <name>  (1984) 
P499628

>  <HIPPO Compound ID>  (1984) 
307166

>  <ref_mols>  (1984) 
A0556a,A4846a

>  <distance_score>  (1984) 
1.423051

>  <inspiration_score>  (1984) 
None

$$$$
P499629
     RDKit          3D

 24 25  0  0  0  0  0  0  0  0999 V2000
    6.2533   14.3979   22.1601 C   0  0  0  0  0  0  0  0  0  0  0  0
    6.9851   14.4667   23.4921 C   0  0  1  0  0  0  0  0  0  0  0  0
    8.3039   14.9904   23.2910 N   0  0  0  0  0  0  0  0  0  0  0  0
    9.6590   14.5685   23.9116 C   0  0  0  0  0  0  0  0  0  0  0  0
    9.9218   13.6804   24.6231 O   0  0  0  0  0  0  0  0  0  0  0  0
   10.7146   15.5036   23.3669 C   0  0  0  0  0  0  0  0  0  0  0  0
   10.7879   15.4351   21.8905 C   0  0  0  0  0  0  0  0  0  0  0  0
   10.2899   16.1885   20.8643 C   0  0  0  0  0  0  0  0  0  0  0  0
    9.0980   17.7918   21.0728 I   0  0  0  0  0  0  0  0  0  0  0  0
   10.7478   15.6084   19.6776 C   0  0  0  0  0  0  0  0  0  0  0  0
   11.4595   14.5129   19.9260 N   0  0  0  0  0  0  0  0  0  0  0  0
   11.3574   14.3795   21.2594 N   0  0  0  0  0  0  0  0  0  0  0  0
   11.6366   13.1325   21.8995 C   0  0  0  0  0  0  0  0  0  0  0  0
    6.2342   15.2246   24.6097 C   0  0  0  0  0  0  0  0  0  0  0  0
    6.9589   15.2033   25.9622 C   0  0  0  0  0  0  0  0  0  0  0  0
    7.1482   13.7703   26.4529 C   0  0  0  0  0  0  0  0  0  0  0  0
    5.9832   12.8828   26.3921 N   0  0  0  0  0  0  0  0  0  0  0  0
    6.3897   11.4472   26.3020 C   0  0  0  0  0  0  0  0  0  0  0  0
    7.2968   10.9244   25.1626 C   0  0  0  0  0  0  0  0  0  0  0  0
    6.9035   11.4073   23.9725 F   0  0  0  0  0  0  0  0  0  0  0  0
    8.5955   11.2242   25.3066 F   0  0  0  0  0  0  0  0  0  0  0  0
    7.1966    9.5733   25.1076 F   0  0  0  0  0  0  0  0  0  0  0  0
    4.9745   13.1958   25.3808 C   0  0  0  0  0  0  0  0  0  0  0  0
    4.8550   14.6443   24.9159 C   0  0  0  0  0  0  0  0  0  0  0  0
  2  1  1  6
  2  3  1  0
  3  4  1  0
  4  5  2  0
  4  6  1  0
  6  7  1  0
  7  8  2  0
  8  9  1  0
  8 10  1  0
 10 11  2  0
 11 12  1  0
 12 13  1  0
  2 14  1  0
 14 15  1  0
 15 16  1  0
 16 17  1  0
 17 18  1  0
 18 19  1  0
 19 20  1  0
 19 21  1  0
 19 22  1  0
 17 23  1  0
 23 24  1  0
 12  7  1  0
 24 14  1  0
M  END
>  <energy_score>  (1985) 
-28.164507

>  <inchikey>  (1985) 
None

>  <smiles>  (1985) 
None

>  <ref_pdb>  (1985) 
A4846a

>  <alias>  (1985) 
None

>  <HIPPO Pose ID>  (1985) 
499629

>  <name>  (1985) 
P499629

>  <HIPPO Compound ID>  (1985) 
307167

>  <ref_mols>  (1985) 
A0556a,A4846a

>  <distance_score>  (1985) 
1.976502

>  <inspiration_score>  (1985) 
None

$$$$
P499630
     RDKit          3D

 24 25  0  0  0  0  0  0  0  0999 V2000
    6.2986   14.6688   22.1902 C   0  0  0  0  0  0  0  0  0  0  0  0
    7.1455   14.3274   23.4048 C   0  0  1  0  0  0  0  0  0  0  0  0
    8.4105   14.9956   23.3506 N   0  0  0  0  0  0  0  0  0  0  0  0
    9.8079   14.5484   23.8543 C   0  0  0  0  0  0  0  0  0  0  0  0
   10.1274   13.6008   24.4593 O   0  0  0  0  0  0  0  0  0  0  0  0
   10.8117   15.5391   23.3261 C   0  0  0  0  0  0  0  0  0  0  0  0
   10.8421   15.4795   21.8504 C   0  0  0  0  0  0  0  0  0  0  0  0
   10.2643   16.2169   20.8581 C   0  0  0  0  0  0  0  0  0  0  0  0
    9.1159   17.6427   21.1021 Br  0  0  0  0  0  0  0  0  0  0  0  0
   10.6556   15.6438   19.6460 C   0  0  0  0  0  0  0  0  0  0  0  0
   11.4068   14.5637   19.8501 N   0  0  0  0  0  0  0  0  0  0  0  0
   11.3914   14.4306   21.1879 N   0  0  0  0  0  0  0  0  0  0  0  0
   11.6754   13.1720   21.8053 C   0  0  0  0  0  0  0  0  0  0  0  0
    6.4359   14.4903   24.7713 C   0  0  0  0  0  0  0  0  0  0  0  0
    7.3937   14.1845   25.9470 C   0  0  0  0  0  0  0  0  0  0  0  0
    6.7764   13.5870   27.2018 C   0  0  0  0  0  0  0  0  0  0  0  0
    5.7956   12.5494   26.9169 N   0  0  0  0  0  0  0  0  0  0  0  0
    6.2832   11.2447   26.3767 C   0  0  0  0  0  0  0  0  0  0  0  0
    7.3192   11.0089   25.2497 C   0  0  0  0  0  0  0  0  0  0  0  0
    6.9356   11.5835   24.1057 F   0  0  0  0  0  0  0  0  0  0  0  0
    7.4372    9.6897   24.9839 F   0  0  0  0  0  0  0  0  0  0  0  0
    8.5511   11.4288   25.5513 F   0  0  0  0  0  0  0  0  0  0  0  0
    4.7261   13.1981   26.1733 C   0  0  0  0  0  0  0  0  0  0  0  0
    5.1350   13.6705   24.7936 C   0  0  0  0  0  0  0  0  0  0  0  0
  2  1  1  6
  2  3  1  0
  3  4  1  0
  4  5  2  0
  4  6  1  0
  6  7  1  0
  7  8  2  0
  8  9  1  0
  8 10  1  0
 10 11  2  0
 11 12  1  0
 12 13  1  0
  2 14  1  0
 14 15  1  0
 15 16  1  0
 16 17  1  0
 17 18  1  0
 18 19  1  0
 19 20  1  0
 19 21  1  0
 19 22  1  0
 17 23  1  0
 23 24  1  0
 12  7  1  0
 24 14  1  0
M  END
>  <energy_score>  (1986) 
-7.066061

>  <inchikey>  (1986) 
None

>  <smiles>  (1986) 
None

>  <ref_pdb>  (1986) 
A4846a

>  <alias>  (1986) 
None

>  <HIPPO Pose ID>  (1986) 
499630

>  <name>  (1986) 
P499630

>  <HIPPO Compound ID>  (1986) 
307168

>  <ref_mols>  (1986) 
A0556a,A4846a

>  <distance_score>  (1986) 
1.922687

>  <inspiration_score>  (1986) 
None

$$$$
P499631
     RDKit          3D

 24 25  0  0  0  0  0  0  0  0999 V2000
   10.8097   15.3141   18.8188 C   0  0  0  0  0  0  0  0  0  0  0  0
   10.9534   15.3638   20.2846 C   0  0  0  0  0  0  0  0  0  0  0  0
   11.4879   14.4221   21.1373 C   0  0  0  0  0  0  0  0  0  0  0  0
   11.2645   14.9150   22.4270 C   0  0  0  0  0  0  0  0  0  0  0  0
   11.2193   14.1749   23.7125 C   0  0  0  0  0  0  0  0  0  0  0  0
    9.9206   14.4441   24.5116 C   0  0  0  0  0  0  0  0  0  0  0  0
    9.9145   14.3971   25.6843 O   0  0  0  0  0  0  0  0  0  0  0  0
    8.7484   14.6765   23.5002 N   0  0  0  0  0  0  0  0  0  0  0  0
    7.3469   14.9937   23.7342 C   0  0  1  0  0  0  0  0  0  0  0  0
    6.6583   14.7300   22.3815 C   0  0  0  0  0  0  0  0  0  0  0  0
    6.7537   14.1483   24.8551 C   0  0  0  0  0  0  0  0  0  0  0  0
    5.2693   13.7776   24.6860 C   0  0  0  0  0  0  0  0  0  0  0  0
    4.6721   13.2768   25.9956 C   0  0  0  0  0  0  0  0  0  0  0  0
    5.6266   12.5795   26.8453 N   0  0  0  0  0  0  0  0  0  0  0  0
    6.1467   11.2657   26.3644 C   0  0  0  0  0  0  0  0  0  0  0  0
    7.2574   10.9717   25.3174 C   0  0  0  0  0  0  0  0  0  0  0  0
    8.3991   11.6287   25.5682 F   0  0  0  0  0  0  0  0  0  0  0  0
    6.9118   11.2599   24.0510 F   0  0  0  0  0  0  0  0  0  0  0  0
    7.5479    9.6461   25.3493 F   0  0  0  0  0  0  0  0  0  0  0  0
    6.6205   13.5558   27.2952 C   0  0  0  0  0  0  0  0  0  0  0  0
    6.9340   14.6809   26.2810 C   0  0  0  0  0  0  0  0  0  0  0  0
   10.8120   16.1648   22.3800 N   0  0  0  0  0  0  0  0  0  0  0  0
   10.4956   16.3700   21.0935 N   0  0  0  0  0  0  0  0  0  0  0  0
    9.6092   17.4724   20.8038 C   0  0  0  0  0  0  0  0  0  0  0  0
  1  2  1  0
  2  3  2  0
  3  4  1  0
  4  5  1  0
  5  6  1  0
  6  7  2  0
  6  8  1  0
  8  9  1  0
  9 10  1  6
  9 11  1  0
 11 12  1  0
 12 13  1  0
 13 14  1  0
 14 15  1  0
 15 16  1  0
 16 17  1  0
 16 18  1  0
 16 19  1  0
 14 20  1  0
 20 21  1  0
  4 22  2  0
 22 23  1  0
 23 24  1  0
 23  2  1  0
 21 11  1  0
M  END
>  <energy_score>  (1987) 
-7.076027

>  <inchikey>  (1987) 
None

>  <smiles>  (1987) 
None

>  <ref_pdb>  (1987) 
A4846a

>  <alias>  (1987) 
None

>  <HIPPO Pose ID>  (1987) 
499631

>  <name>  (1987) 
P499631

>  <HIPPO Compound ID>  (1987) 
307172

>  <ref_mols>  (1987) 
A0556a,A4846a

>  <distance_score>  (1987) 
1.834449

>  <inspiration_score>  (1987) 
None

$$$$
P499632
     RDKit          3D

 24 25  0  0  0  0  0  0  0  0999 V2000
    6.9179   15.0504   22.1645 C   0  0  0  0  0  0  0  0  0  0  0  0
    7.5838   14.1896   23.2196 C   0  0  1  0  0  0  0  0  0  0  0  0
    9.0032   14.2163   23.0340 N   0  0  0  0  0  0  0  0  0  0  0  0
   10.0272   13.0448   22.8577 C   0  0  0  0  0  0  0  0  0  0  0  0
    9.8703   11.8847   22.9158 O   0  0  0  0  0  0  0  0  0  0  0  0
   11.4278   13.6906   22.6286 C   0  0  2  0  0  0  0  0  0  0  0  0
   11.8613   14.2817   23.8620 O   0  0  0  0  0  0  0  0  0  0  0  0
   11.3036   14.7061   21.5435 C   0  0  0  0  0  0  0  0  0  0  0  0
   11.5801   14.6172   20.1691 C   0  0  0  0  0  0  0  0  0  0  0  0
   10.9223   15.6864   19.6132 C   0  0  0  0  0  0  0  0  0  0  0  0
   10.3874   16.3774   20.6556 N   0  0  0  0  0  0  0  0  0  0  0  0
    9.5560   17.5481   20.6392 C   0  0  0  0  0  0  0  0  0  0  0  0
   10.7092   15.8670   21.8528 N   0  0  0  0  0  0  0  0  0  0  0  0
    7.1863   14.5478   24.6742 C   0  0  0  0  0  0  0  0  0  0  0  0
    7.8851   13.7253   25.7873 C   0  0  0  0  0  0  0  0  0  0  0  0
    7.0105   12.5705   26.3573 C   0  0  0  0  0  0  0  0  0  0  0  0
    6.2522   11.8931   25.3271 N   0  0  0  0  0  0  0  0  0  0  0  0
    7.2130   11.2786   24.3475 C   0  0  0  0  0  0  0  0  0  0  0  0
    7.8800    9.9391   24.5562 C   0  0  0  0  0  0  0  0  0  0  0  0
    8.2561    9.3507   23.4092 F   0  0  0  0  0  0  0  0  0  0  0  0
    7.0925    9.0849   25.2308 F   0  0  0  0  0  0  0  0  0  0  0  0
    8.9773   10.1601   25.2719 F   0  0  0  0  0  0  0  0  0  0  0  0
    5.3218   12.8935   24.7653 C   0  0  0  0  0  0  0  0  0  0  0  0
    5.6952   14.3718   24.8992 C   0  0  0  0  0  0  0  0  0  0  0  0
  2  1  1  6
  2  3  1  0
  3  4  1  0
  4  5  2  0
  4  6  1  0
  6  7  1  1
  6  8  1  0
  8  9  1  0
  9 10  2  0
 10 11  1  0
 11 12  1  0
 11 13  1  0
  2 14  1  0
 14 15  1  0
 15 16  1  0
 16 17  1  0
 17 18  1  0
 18 19  1  0
 19 20  1  0
 19 21  1  0
 19 22  1  0
 17 23  1  0
 23 24  1  0
 13  8  2  0
 24 14  1  0
M  END
>  <energy_score>  (1988) 
-12.026197

>  <inchikey>  (1988) 
None

>  <smiles>  (1988) 
None

>  <ref_pdb>  (1988) 
A4846a

>  <alias>  (1988) 
None

>  <HIPPO Pose ID>  (1988) 
499632

>  <name>  (1988) 
P499632

>  <HIPPO Compound ID>  (1988) 
307174

>  <ref_mols>  (1988) 
A0556a,A4846a

>  <distance_score>  (1988) 
1.96198

>  <inspiration_score>  (1988) 
None

$$$$
P499633
     RDKit          3D

 24 25  0  0  0  0  0  0  0  0999 V2000
    6.3283   14.5746   22.1540 C   0  0  0  0  0  0  0  0  0  0  0  0
    7.1597   13.9929   23.2773 C   0  0  1  0  0  0  0  0  0  0  0  0
    8.4636   14.5558   23.3150 N   0  0  0  0  0  0  0  0  0  0  0  0
    9.8295   13.9101   23.6659 C   0  0  0  0  0  0  0  0  0  0  0  0
   10.0834   12.8346   24.0529 O   0  0  0  0  0  0  0  0  0  0  0  0
   10.8906   14.9917   23.5244 C   0  0  1  0  0  0  0  0  0  0  0  0
   12.0451   14.4454   24.2061 O   0  0  0  0  0  0  0  0  0  0  0  0
   11.1489   15.2452   22.0906 C   0  0  0  0  0  0  0  0  0  0  0  0
   12.4050   15.4894   21.5332 C   0  0  0  0  0  0  0  0  0  0  0  0
   12.2371   15.2178   20.2073 C   0  0  0  0  0  0  0  0  0  0  0  0
   10.9058   15.2156   20.0117 N   0  0  0  0  0  0  0  0  0  0  0  0
   10.3133   15.2969   18.7191 C   0  0  0  0  0  0  0  0  0  0  0  0
   10.1952   15.2041   21.1435 N   0  0  0  0  0  0  0  0  0  0  0  0
    6.5282   14.0746   24.6816 C   0  0  0  0  0  0  0  0  0  0  0  0
    7.5338   13.6639   25.7895 C   0  0  0  0  0  0  0  0  0  0  0  0
    6.9107   13.1027   27.0559 C   0  0  0  0  0  0  0  0  0  0  0  0
    5.9416   12.0736   26.7637 N   0  0  0  0  0  0  0  0  0  0  0  0
    6.4418   10.7845   26.1389 C   0  0  0  0  0  0  0  0  0  0  0  0
    7.5703   10.5052   25.1144 C   0  0  0  0  0  0  0  0  0  0  0  0
    7.6641    9.1692   24.9166 F   0  0  0  0  0  0  0  0  0  0  0  0
    7.3670   11.0737   23.9221 F   0  0  0  0  0  0  0  0  0  0  0  0
    8.7550   10.9149   25.5727 F   0  0  0  0  0  0  0  0  0  0  0  0
    4.8748   12.7943   26.0917 C   0  0  0  0  0  0  0  0  0  0  0  0
    5.2557   13.2352   24.7011 C   0  0  0  0  0  0  0  0  0  0  0  0
  2  1  1  6
  2  3  1  0
  3  4  1  0
  4  5  2  0
  4  6  1  0
  6  7  1  1
  6  8  1  0
  8  9  1  0
  9 10  2  0
 10 11  1  0
 11 12  1  0
 11 13  1  0
  2 14  1  0
 14 15  1  0
 15 16  1  0
 16 17  1  0
 17 18  1  0
 18 19  1  0
 19 20  1  0
 19 21  1  0
 19 22  1  0
 17 23  1  0
 23 24  1  0
 13  8  2  0
 24 14  1  0
M  END
>  <energy_score>  (1989) 
-5.891521

>  <inchikey>  (1989) 
None

>  <smiles>  (1989) 
None

>  <ref_pdb>  (1989) 
A4846a

>  <alias>  (1989) 
None

>  <HIPPO Pose ID>  (1989) 
499633

>  <name>  (1989) 
P499633

>  <HIPPO Compound ID>  (1989) 
307174

>  <ref_mols>  (1989) 
A0556a,A4846a

>  <distance_score>  (1989) 
1.865714

>  <inspiration_score>  (1989) 
None

$$$$
P499634
     RDKit          3D

 24 25  0  0  0  0  0  0  0  0999 V2000
   11.5978   14.4446   23.5171 C   0  0  0  0  0  0  0  0  0  0  0  0
   10.6671   15.5128   22.9328 C   0  0  2  0  0  0  0  0  0  0  0  0
    9.2966   15.3476   23.6492 C   0  0  0  0  0  0  0  0  0  0  0  0
    9.2343   15.4910   24.8086 O   0  0  0  0  0  0  0  0  0  0  0  0
    8.2153   14.8996   22.6336 N   0  0  0  0  0  0  0  0  0  0  0  0
    6.8677   14.4458   22.8439 C   0  0  2  0  0  0  0  0  0  0  0  0
    5.9695   15.4902   23.4337 C   0  0  0  0  0  0  0  0  0  0  0  0
    6.8849   13.1081   23.6065 C   0  0  0  0  0  0  0  0  0  0  0  0
    8.1585   12.3403   23.2544 C   0  0  0  0  0  0  0  0  0  0  0  0
    9.0031   12.0317   24.4626 C   0  0  0  0  0  0  0  0  0  0  0  0
    8.2687   11.0945   25.3012 N   0  0  0  0  0  0  0  0  0  0  0  0
    8.1796    9.7561   24.6245 C   0  0  0  0  0  0  0  0  0  0  0  0
    9.2252    9.2653   23.5959 C   0  0  0  0  0  0  0  0  0  0  0  0
   10.4226    9.1069   24.1539 F   0  0  0  0  0  0  0  0  0  0  0  0
    8.8645    8.0949   23.0478 F   0  0  0  0  0  0  0  0  0  0  0  0
    9.3847   10.1376   22.5815 F   0  0  0  0  0  0  0  0  0  0  0  0
    6.9514   11.6648   25.6920 C   0  0  0  0  0  0  0  0  0  0  0  0
    6.6603   13.0840   25.1276 C   0  0  0  0  0  0  0  0  0  0  0  0
   10.6764   15.4757   21.4337 C   0  0  0  0  0  0  0  0  0  0  0  0
   11.3255   14.6576   20.5282 C   0  0  0  0  0  0  0  0  0  0  0  0
   10.9305   15.1018   19.2579 C   0  0  0  0  0  0  0  0  0  0  0  0
   10.0624   16.1067   19.3445 N   0  0  0  0  0  0  0  0  0  0  0  0
   10.0075   16.3820   20.6528 N   0  0  0  0  0  0  0  0  0  0  0  0
    9.2845   17.5477   21.0792 C   0  0  0  0  0  0  0  0  0  0  0  0
  2  1  1  1
  2  3  1  0
  3  4  2  0
  3  5  1  0
  5  6  1  0
  6  7  1  1
  6  8  1  0
  8  9  1  0
  9 10  1  0
 10 11  1  0
 11 12  1  0
 12 13  1  0
 13 14  1  0
 13 15  1  0
 13 16  1  0
 11 17  1  0
 17 18  1  0
  2 19  1  0
 19 20  2  0
 20 21  1  0
 21 22  2  0
 22 23  1  0
 23 24  1  0
 18  8  1  0
 23 19  1  0
M  END
>  <energy_score>  (1990) 
-9.550148

>  <inchikey>  (1990) 
None

>  <smiles>  (1990) 
None

>  <ref_pdb>  (1990) 
A4846a

>  <alias>  (1990) 
None

>  <HIPPO Pose ID>  (1990) 
499634

>  <name>  (1990) 
P499634

>  <HIPPO Compound ID>  (1990) 
307175

>  <ref_mols>  (1990) 
A0556a,A4846a

>  <distance_score>  (1990) 
1.771466

>  <inspiration_score>  (1990) 
None

$$$$
P499635
     RDKit          3D

 25 26  0  0  0  0  0  0  0  0999 V2000
    6.3116   16.6038   24.2557 C   0  0  0  0  0  0  0  0  0  0  0  0
    6.8578   15.3480   23.6522 C   0  0  1  0  0  0  0  0  0  0  0  0
    8.2675   15.4636   23.3758 N   0  0  0  0  0  0  0  0  0  0  0  0
    9.4883   14.7977   24.0660 C   0  0  0  0  0  0  0  0  0  0  0  0
    9.5342   13.9938   24.9147 O   0  0  0  0  0  0  0  0  0  0  0  0
   10.7280   15.4332   23.5433 C   0  0  0  0  0  0  0  0  0  0  0  0
   11.0207   15.2797   22.1149 C   0  0  0  0  0  0  0  0  0  0  0  0
   12.3214   15.3478   21.6093 C   0  0  0  0  0  0  0  0  0  0  0  0
   12.2031   15.0658   20.2841 C   0  0  0  0  0  0  0  0  0  0  0  0
   10.8736   15.1016   20.0203 N   0  0  0  0  0  0  0  0  0  0  0  0
   10.3965   15.2702   18.6660 C   0  0  0  0  0  0  0  0  0  0  0  0
   11.0398   16.3244   18.1045 F   0  0  0  0  0  0  0  0  0  0  0  0
    9.0777   15.5369   18.5881 F   0  0  0  0  0  0  0  0  0  0  0  0
   10.1097   15.1640   21.1392 N   0  0  0  0  0  0  0  0  0  0  0  0
    6.4134   14.1357   24.4624 C   0  0  0  0  0  0  0  0  0  0  0  0
    6.7493   12.9128   23.6560 C   0  0  0  0  0  0  0  0  0  0  0  0
    6.2453   11.7503   24.4394 C   0  0  0  0  0  0  0  0  0  0  0  0
    6.9414   11.4723   25.6469 N   0  0  0  0  0  0  0  0  0  0  0  0
    8.3113   11.0024   25.3015 C   0  0  0  0  0  0  0  0  0  0  0  0
    8.6409   10.0746   24.1108 C   0  0  0  0  0  0  0  0  0  0  0  0
    7.8413    8.9938   24.1478 F   0  0  0  0  0  0  0  0  0  0  0  0
    8.4937   10.7250   22.9455 F   0  0  0  0  0  0  0  0  0  0  0  0
    9.9083    9.6216   24.1269 F   0  0  0  0  0  0  0  0  0  0  0  0
    6.7099   12.6030   26.5453 C   0  0  0  0  0  0  0  0  0  0  0  0
    6.8295   14.0240   25.9465 C   0  0  0  0  0  0  0  0  0  0  0  0
  2  1  1  1
  2  3  1  0
  3  4  1  0
  4  5  2  0
  4  6  1  0
  6  7  1  0
  7  8  1  0
  8  9  2  0
  9 10  1  0
 10 11  1  0
 11 12  1  0
 11 13  1  0
 10 14  1  0
  2 15  1  0
 15 16  1  0
 16 17  1  0
 17 18  1  0
 18 19  1  0
 19 20  1  0
 20 21  1  0
 20 22  1  0
 20 23  1  0
 18 24  1  0
 24 25  1  0
 14  7  2  0
 25 15  1  0
M  END
>  <energy_score>  (1991) 
-949.800076

>  <inchikey>  (1991) 
None

>  <smiles>  (1991) 
None

>  <ref_pdb>  (1991) 
A4846a

>  <alias>  (1991) 
None

>  <HIPPO Pose ID>  (1991) 
499635

>  <name>  (1991) 
P499635

>  <HIPPO Compound ID>  (1991) 
307178

>  <ref_mols>  (1991) 
A0556a,A4846a

>  <distance_score>  (1991) 
1.800282

>  <inspiration_score>  (1991) 
None

$$$$
P499636
     RDKit          3D

 25 27  0  0  0  0  0  0  0  0999 V2000
    9.3699   16.7699   21.1907 C   0  0  0  0  0  0  0  0  0  0  0  0
   10.3356   15.7577   20.7374 C   0  0  0  0  0  0  0  0  0  0  0  0
   10.8181   15.5613   19.4250 C   0  0  0  0  0  0  0  0  0  0  0  0
   11.6504   14.5318   19.3272 N   0  0  0  0  0  0  0  0  0  0  0  0
   11.6827   14.0572   20.5732 N   0  0  0  0  0  0  0  0  0  0  0  0
   10.9648   14.7803   21.4741 C   0  0  0  0  0  0  0  0  0  0  0  0
   10.8004   14.4568   22.9964 C   0  0  0  0  0  0  0  0  0  0  0  0
    9.5069   14.8604   23.6011 C   0  0  0  0  0  0  0  0  0  0  0  0
    9.4670   15.6545   24.4462 O   0  0  0  0  0  0  0  0  0  0  0  0
    8.3963   14.0227   22.9782 N   0  0  0  0  0  0  0  0  0  0  0  0
    7.0146   13.9104   23.3213 C   0  0  2  0  0  0  0  0  0  0  0  0
    6.1846   14.5686   22.2299 C   0  0  0  0  0  0  0  0  0  0  0  0
    6.7054   14.4022   24.7582 C   0  0  0  0  0  0  0  0  0  0  0  0
    7.6264   13.8180   25.8714 C   0  0  0  0  0  0  0  0  0  0  0  0
    6.8980   12.8838   26.8444 C   0  0  0  0  0  0  0  0  0  0  0  0
    6.1485   11.8777   26.1445 N   0  0  0  0  0  0  0  0  0  0  0  0
    6.8772   10.6787   25.6237 C   0  0  0  0  0  0  0  0  0  0  0  0
    8.0352   10.6159   24.6185 C   0  0  0  0  0  0  0  0  0  0  0  0
    7.6889   11.0307   23.3954 F   0  0  0  0  0  0  0  0  0  0  0  0
    9.0852   11.3534   24.9946 F   0  0  0  0  0  0  0  0  0  0  0  0
    8.4432    9.3336   24.5084 F   0  0  0  0  0  0  0  0  0  0  0  0
    5.1662   12.5439   25.3110 C   0  0  0  0  0  0  0  0  0  0  0  0
    5.2752   14.0601   25.1360 C   0  0  0  0  0  0  0  0  0  0  0  0
   12.0107   14.4180   23.8844 C   0  0  0  0  0  0  0  0  0  0  0  0
   11.3732   13.1428   23.4815 C   0  0  0  0  0  0  0  0  0  0  0  0
  1  2  1  0
  2  3  1  0
  3  4  2  0
  4  5  1  0
  5  6  1  0
  6  7  1  0
  7  8  1  0
  8  9  2  0
  8 10  1  0
 10 11  1  0
 11 12  1  6
 11 13  1  0
 13 14  1  0
 14 15  1  0
 15 16  1  0
 16 17  1  0
 17 18  1  0
 18 19  1  0
 18 20  1  0
 18 21  1  0
 16 22  1  0
 22 23  1  0
  7 24  1  0
 24 25  1  0
  6  2  2  0
 25  7  1  0
 23 13  1  0
M  END
>  <energy_score>  (1992) 
-29.268443

>  <inchikey>  (1992) 
None

>  <smiles>  (1992) 
None

>  <ref_pdb>  (1992) 
A4846a

>  <alias>  (1992) 
None

>  <HIPPO Pose ID>  (1992) 
499636

>  <name>  (1992) 
P499636

>  <HIPPO Compound ID>  (1992) 
307182

>  <ref_mols>  (1992) 
A0556a,A4846a

>  <distance_score>  (1992) 
1.760874

>  <inspiration_score>  (1992) 
None

$$$$
P499637
     RDKit          3D

 25 27  0  0  0  0  0  0  0  0999 V2000
    9.4183   16.8094   21.1441 C   0  0  0  0  0  0  0  0  0  0  0  0
   10.3659   15.7810   20.6892 C   0  0  0  0  0  0  0  0  0  0  0  0
   10.8308   15.5662   19.3734 C   0  0  0  0  0  0  0  0  0  0  0  0
   11.6499   14.5268   19.2751 N   0  0  0  0  0  0  0  0  0  0  0  0
   11.7028   14.0717   20.5261 N   0  0  0  0  0  0  0  0  0  0  0  0
   10.9936   14.8038   21.4269 C   0  0  0  0  0  0  0  0  0  0  0  0
   10.8401   14.4875   22.9512 C   0  0  0  0  0  0  0  0  0  0  0  0
    9.5708   14.9174   23.5822 C   0  0  0  0  0  0  0  0  0  0  0  0
    9.5765   15.6501   24.4825 O   0  0  0  0  0  0  0  0  0  0  0  0
    8.4160   14.1723   22.9199 N   0  0  0  0  0  0  0  0  0  0  0  0
    7.0353   14.0926   23.2782 C   0  0  2  0  0  0  0  0  0  0  0  0
    6.1916   14.8288   22.2582 C   0  0  0  0  0  0  0  0  0  0  0  0
    6.8071   14.5105   24.7524 C   0  0  0  0  0  0  0  0  0  0  0  0
    7.6796   13.7202   25.7678 C   0  0  0  0  0  0  0  0  0  0  0  0
    6.8876   12.6983   26.5826 C   0  0  0  0  0  0  0  0  0  0  0  0
    5.9828   11.9531   25.7571 N   0  0  0  0  0  0  0  0  0  0  0  0
    6.6293   10.9970   24.8091 C   0  0  0  0  0  0  0  0  0  0  0  0
    8.0021   10.3760   24.8950 C   0  0  0  0  0  0  0  0  0  0  0  0
    8.1277    9.3460   24.0400 F   0  0  0  0  0  0  0  0  0  0  0  0
    8.9927   11.2401   24.6473 F   0  0  0  0  0  0  0  0  0  0  0  0
    8.1079    9.8760   26.1266 F   0  0  0  0  0  0  0  0  0  0  0  0
    4.9908   12.8737   25.1911 C   0  0  0  0  0  0  0  0  0  0  0  0
    5.3599   14.3541   25.1841 C   0  0  0  0  0  0  0  0  0  0  0  0
   12.0575   14.3962   23.8248 C   0  0  0  0  0  0  0  0  0  0  0  0
   11.3698   13.1476   23.4180 C   0  0  0  0  0  0  0  0  0  0  0  0
  1  2  1  0
  2  3  1  0
  3  4  2  0
  4  5  1  0
  5  6  1  0
  6  7  1  0
  7  8  1  0
  8  9  2  0
  8 10  1  0
 10 11  1  0
 11 12  1  6
 11 13  1  0
 13 14  1  0
 14 15  1  0
 15 16  1  0
 16 17  1  0
 17 18  1  0
 18 19  1  0
 18 20  1  0
 18 21  1  0
 16 22  1  0
 22 23  1  0
  7 24  1  0
 24 25  1  0
  6  2  2  0
 25  7  1  0
 23 13  1  0
M  END
>  <energy_score>  (1993) 
-1.045786

>  <inchikey>  (1993) 
None

>  <smiles>  (1993) 
None

>  <ref_pdb>  (1993) 
A4846a

>  <alias>  (1993) 
None

>  <HIPPO Pose ID>  (1993) 
499637

>  <name>  (1993) 
P499637

>  <HIPPO Compound ID>  (1993) 
307182

>  <ref_mols>  (1993) 
A0556a,A4846a

>  <distance_score>  (1993) 
1.745553

>  <inspiration_score>  (1993) 
None

$$$$
P499638
     RDKit          3D

 25 27  0  0  0  0  0  0  0  0999 V2000
    5.8787   15.2755   22.4819 C   0  0  0  0  0  0  0  0  0  0  0  0
    6.8531   15.1774   23.6527 C   0  0  2  0  0  0  0  0  0  0  0  0
    8.1724   14.8945   23.1357 N   0  0  0  0  0  0  0  0  0  0  0  0
    9.5507   15.1079   23.7601 C   0  0  0  0  0  0  0  0  0  0  0  0
    9.8546   15.6161   24.7599 O   0  0  0  0  0  0  0  0  0  0  0  0
   10.6196   14.5626   22.8557 C   0  0  0  0  0  0  0  0  0  0  0  0
   10.6677   15.0825   21.3527 C   0  0  0  0  0  0  0  0  0  0  0  0
   11.4648   14.5827   20.3422 C   0  0  0  0  0  0  0  0  0  0  0  0
   11.0726   15.2525   19.1748 C   0  0  0  0  0  0  0  0  0  0  0  0
   10.1051   16.1318   19.4230 N   0  0  0  0  0  0  0  0  0  0  0  0
    9.9620   16.0864   20.7559 N   0  0  0  0  0  0  0  0  0  0  0  0
    9.1417   17.0882   21.3652 C   0  0  0  0  0  0  0  0  0  0  0  0
   11.9388   14.2042   23.4986 C   0  0  0  0  0  0  0  0  0  0  0  0
   11.0152   13.1152   23.0597 C   0  0  0  0  0  0  0  0  0  0  0  0
    6.3862   14.1131   24.6511 C   0  0  0  0  0  0  0  0  0  0  0  0
    6.2857   12.7685   23.9507 C   0  0  0  0  0  0  0  0  0  0  0  0
    5.9800   11.6738   24.9394 C   0  0  0  0  0  0  0  0  0  0  0  0
    6.9509   11.5462   25.9795 N   0  0  0  0  0  0  0  0  0  0  0  0
    8.2481   11.1687   25.3352 C   0  0  0  0  0  0  0  0  0  0  0  0
    8.3902   10.0573   24.2889 C   0  0  0  0  0  0  0  0  0  0  0  0
    9.6036    9.4922   24.3151 F   0  0  0  0  0  0  0  0  0  0  0  0
    8.2484   10.5896   23.0668 F   0  0  0  0  0  0  0  0  0  0  0  0
    7.5025    9.0707   24.4952 F   0  0  0  0  0  0  0  0  0  0  0  0
    6.8588   12.7921   26.7550 C   0  0  0  0  0  0  0  0  0  0  0  0
    7.2185   14.0309   25.9369 C   0  0  0  0  0  0  0  0  0  0  0  0
  2  1  1  6
  2  3  1  0
  3  4  1  0
  4  5  2  0
  4  6  1  0
  6  7  1  0
  7  8  2  0
  8  9  1  0
  9 10  2  0
 10 11  1  0
 11 12  1  0
  6 13  1  0
 13 14  1  0
  2 15  1  0
 15 16  1  0
 16 17  1  0
 17 18  1  0
 18 19  1  0
 19 20  1  0
 20 21  1  0
 20 22  1  0
 20 23  1  0
 18 24  1  0
 24 25  1  0
 14  6  1  0
 25 15  1  0
 11  7  1  0
M  END
>  <energy_score>  (1994) 
-31.703336

>  <inchikey>  (1994) 
None

>  <smiles>  (1994) 
None

>  <ref_pdb>  (1994) 
A4846a

>  <alias>  (1994) 
None

>  <HIPPO Pose ID>  (1994) 
499638

>  <name>  (1994) 
P499638

>  <HIPPO Compound ID>  (1994) 
307187

>  <ref_mols>  (1994) 
A0556a,A4846a

>  <distance_score>  (1994) 
1.73174

>  <inspiration_score>  (1994) 
None

$$$$
P499639
     RDKit          3D

 25 27  0  0  0  0  0  0  0  0999 V2000
    6.1692   14.4076   22.1828 C   0  0  0  0  0  0  0  0  0  0  0  0
    7.0663   13.8605   23.2867 C   0  0  1  0  0  0  0  0  0  0  0  0
    8.4305   14.0178   22.8839 N   0  0  0  0  0  0  0  0  0  0  0  0
    9.5581   14.8393   23.5008 C   0  0  0  0  0  0  0  0  0  0  0  0
    9.5474   15.5833   24.3920 O   0  0  0  0  0  0  0  0  0  0  0  0
   10.8045   14.5708   22.7397 C   0  0  0  0  0  0  0  0  0  0  0  0
   10.8127   15.0875   21.2523 C   0  0  0  0  0  0  0  0  0  0  0  0
   11.5905   14.6299   20.2135 C   0  0  0  0  0  0  0  0  0  0  0  0
   11.1154   15.2857   19.0723 C   0  0  0  0  0  0  0  0  0  0  0  0
   10.1285   16.1314   19.3593 N   0  0  0  0  0  0  0  0  0  0  0  0
   10.0009   16.0327   20.6948 N   0  0  0  0  0  0  0  0  0  0  0  0
    9.0688   16.8963   21.3619 C   0  0  0  0  0  0  0  0  0  0  0  0
   12.0911   14.4594   23.4976 C   0  0  0  0  0  0  0  0  0  0  0  0
   11.4423   13.2213   22.9831 C   0  0  0  0  0  0  0  0  0  0  0  0
    6.7541   14.4146   24.6993 C   0  0  0  0  0  0  0  0  0  0  0  0
    7.6541   13.8553   25.8398 C   0  0  0  0  0  0  0  0  0  0  0  0
    6.9165   12.9012   26.7893 C   0  0  0  0  0  0  0  0  0  0  0  0
    6.1724   11.9082   26.0673 N   0  0  0  0  0  0  0  0  0  0  0  0
    6.9021   10.7122   25.5390 C   0  0  0  0  0  0  0  0  0  0  0  0
    8.1534   10.6588   24.6478 C   0  0  0  0  0  0  0  0  0  0  0  0
    7.9498   11.0473   23.3843 F   0  0  0  0  0  0  0  0  0  0  0  0
    9.1399   11.4250   25.1355 F   0  0  0  0  0  0  0  0  0  0  0  0
    8.5947    9.3836   24.6035 F   0  0  0  0  0  0  0  0  0  0  0  0
    5.1817   12.5835   25.2504 C   0  0  0  0  0  0  0  0  0  0  0  0
    5.3161   14.0999   25.0797 C   0  0  0  0  0  0  0  0  0  0  0  0
  2  1  1  6
  2  3  1  0
  3  4  1  0
  4  5  2  0
  4  6  1  0
  6  7  1  0
  7  8  2  0
  8  9  1  0
  9 10  2  0
 10 11  1  0
 11 12  1  0
  6 13  1  0
 13 14  1  0
  2 15  1  0
 15 16  1  0
 16 17  1  0
 17 18  1  0
 18 19  1  0
 19 20  1  0
 20 21  1  0
 20 22  1  0
 20 23  1  0
 18 24  1  0
 24 25  1  0
 14  6  1  0
 25 15  1  0
 11  7  1  0
M  END
>  <energy_score>  (1995) 
-35.731942

>  <inchikey>  (1995) 
None

>  <smiles>  (1995) 
None

>  <ref_pdb>  (1995) 
A4846a

>  <alias>  (1995) 
None

>  <HIPPO Pose ID>  (1995) 
499639

>  <name>  (1995) 
P499639

>  <HIPPO Compound ID>  (1995) 
307187

>  <ref_mols>  (1995) 
A0556a,A4846a

>  <distance_score>  (1995) 
1.76867

>  <inspiration_score>  (1995) 
None

$$$$
P499640
     RDKit          3D

 26 27  0  0  0  0  0  0  0  0999 V2000
    6.0906   15.3570   23.4464 C   0  0  0  0  0  0  0  0  0  0  0  0
    6.9291   14.9914   24.6687 C   0  0  2  0  0  0  0  0  0  0  0  0
    8.3276   15.3230   24.4724 N   0  0  0  0  0  0  0  0  0  0  0  0
    9.5568   15.0765   25.3819 C   0  0  0  0  0  0  0  0  0  0  0  0
    9.6231   14.6385   26.4637 O   0  0  0  0  0  0  0  0  0  0  0  0
   10.8124   15.3960   24.6205 C   0  0  0  0  0  0  0  0  0  0  0  0
   10.8048   15.1422   23.1532 C   0  0  0  0  0  0  0  0  0  0  0  0
   11.5329   14.2288   22.3671 C   0  0  0  0  0  0  0  0  0  0  0  0
   11.2838   14.5970   21.0599 C   0  0  0  0  0  0  0  0  0  0  0  0
   10.4239   15.6455   21.1372 N   0  0  0  0  0  0  0  0  0  0  0  0
    9.9252   16.4732   20.0671 C   0  0  0  0  0  0  0  0  0  0  0  0
    9.2703   17.7532   20.5987 C   0  0  0  0  0  0  0  0  0  0  0  0
    8.8122   18.5113   19.5691 F   0  0  0  0  0  0  0  0  0  0  0  0
   10.1792   18.5289   21.2261 F   0  0  0  0  0  0  0  0  0  0  0  0
   10.0083   15.8836   22.3852 N   0  0  0  0  0  0  0  0  0  0  0  0
    7.0799   13.4776   24.8368 C   0  0  0  0  0  0  0  0  0  0  0  0
    7.6645   12.8979   23.5459 C   0  0  0  0  0  0  0  0  0  0  0  0
    8.3839   11.6503   23.9071 C   0  0  0  0  0  0  0  0  0  0  0  0
    7.4002   10.6875   24.3703 N   0  0  0  0  0  0  0  0  0  0  0  0
    8.0946    9.4001   24.5899 C   0  0  0  0  0  0  0  0  0  0  0  0
    9.2501    9.0022   23.6585 C   0  0  0  0  0  0  0  0  0  0  0  0
   10.3473    9.6918   23.9982 F   0  0  0  0  0  0  0  0  0  0  0  0
    9.0092    9.3218   22.3849 F   0  0  0  0  0  0  0  0  0  0  0  0
    9.5702    7.7020   23.7241 F   0  0  0  0  0  0  0  0  0  0  0  0
    6.6028   11.1640   25.5227 C   0  0  0  0  0  0  0  0  0  0  0  0
    5.9623   12.5650   25.2903 C   0  0  0  0  0  0  0  0  0  0  0  0
  2  1  1  6
  2  3  1  0
  3  4  1  0
  4  5  2  0
  4  6  1  0
  6  7  1  0
  7  8  1  0
  8  9  2  0
  9 10  1  0
 10 11  1  0
 11 12  1  0
 12 13  1  0
 12 14  1  0
 10 15  1  0
  2 16  1  0
 16 17  1  0
 17 18  1  0
 18 19  1  0
 19 20  1  0
 20 21  1  0
 21 22  1  0
 21 23  1  0
 21 24  1  0
 19 25  1  0
 25 26  1  0
 15  7  2  0
 26 16  1  0
M  END
>  <energy_score>  (1996) 
-3.449294

>  <inchikey>  (1996) 
None

>  <smiles>  (1996) 
None

>  <ref_pdb>  (1996) 
A4846a

>  <alias>  (1996) 
None

>  <HIPPO Pose ID>  (1996) 
499640

>  <name>  (1996) 
P499640

>  <HIPPO Compound ID>  (1996) 
307191

>  <ref_mols>  (1996) 
A0556a,A4846a

>  <distance_score>  (1996) 
1.917946

>  <inspiration_score>  (1996) 
None

$$$$
P499641
     RDKit          3D

 26 28  0  0  0  0  0  0  0  0999 V2000
    5.7394   15.6933   23.2099 C   0  0  0  0  0  0  0  0  0  0  0  0
    6.5868   15.1611   24.3670 C   0  0  2  0  0  0  0  0  0  0  0  0
    7.9398   15.0019   23.8953 N   0  0  0  0  0  0  0  0  0  0  0  0
    9.2730   15.1849   24.6206 C   0  0  0  0  0  0  0  0  0  0  0  0
    9.5007   15.5678   25.6941 O   0  0  0  0  0  0  0  0  0  0  0  0
   10.3991   14.6648   23.7421 C   0  0  0  0  0  0  0  0  0  0  0  0
   10.4579   15.1138   22.2114 C   0  0  0  0  0  0  0  0  0  0  0  0
   11.2780   14.4980   21.2877 C   0  0  0  0  0  0  0  0  0  0  0  0
   10.9588   15.0974   20.0800 C   0  0  0  0  0  0  0  0  0  0  0  0
   11.6088   14.6068   18.4533 Br  0  0  0  0  0  0  0  0  0  0  0  0
   10.0599   16.0504   20.1830 N   0  0  0  0  0  0  0  0  0  0  0  0
    9.7576   16.0414   21.4800 N   0  0  0  0  0  0  0  0  0  0  0  0
    8.6407   16.8666   21.7926 C   0  0  0  0  0  0  0  0  0  0  0  0
   10.8055   13.2118   24.0244 C   0  0  0  0  0  0  0  0  0  0  0  0
   11.7249   14.3155   24.3945 C   0  0  0  0  0  0  0  0  0  0  0  0
    6.0285   13.8102   24.8282 C   0  0  0  0  0  0  0  0  0  0  0  0
    6.2861   12.7519   23.7705 C   0  0  0  0  0  0  0  0  0  0  0  0
    7.5873   12.0249   23.9788 C   0  0  0  0  0  0  0  0  0  0  0  0
    7.6491   11.3371   25.2510 N   0  0  0  0  0  0  0  0  0  0  0  0
    7.7277    9.8812   25.0458 C   0  0  0  0  0  0  0  0  0  0  0  0
    8.7518    9.3508   24.0324 C   0  0  0  0  0  0  0  0  0  0  0  0
    9.8324   10.1457   23.9485 F   0  0  0  0  0  0  0  0  0  0  0  0
    9.1088    8.1066   24.3507 F   0  0  0  0  0  0  0  0  0  0  0  0
    8.2463    9.2816   22.8025 F   0  0  0  0  0  0  0  0  0  0  0  0
    6.6370   11.7849   26.2142 C   0  0  0  0  0  0  0  0  0  0  0  0
    6.5369   13.3193   26.1895 C   0  0  0  0  0  0  0  0  0  0  0  0
  2  1  1  6
  2  3  1  0
  3  4  1  0
  4  5  2  0
  4  6  1  0
  6  7  1  0
  7  8  2  0
  8  9  1  0
  9 10  1  0
  9 11  2  0
 11 12  1  0
 12 13  1  0
  6 14  1  0
 14 15  1  0
  2 16  1  0
 16 17  1  0
 17 18  1  0
 18 19  1  0
 19 20  1  0
 20 21  1  0
 21 22  1  0
 21 23  1  0
 21 24  1  0
 19 25  1  0
 25 26  1  0
 15  6  1  0
 26 16  1  0
 12  7  1  0
M  END
>  <energy_score>  (1997) 
-15.492964

>  <inchikey>  (1997) 
None

>  <smiles>  (1997) 
None

>  <ref_pdb>  (1997) 
A4846a

>  <alias>  (1997) 
None

>  <HIPPO Pose ID>  (1997) 
499641

>  <name>  (1997) 
P499641

>  <HIPPO Compound ID>  (1997) 
307198

>  <ref_mols>  (1997) 
A0556a,A4846a

>  <distance_score>  (1997) 
1.869914

>  <inspiration_score>  (1997) 
None

$$$$
P499642
     RDKit          3D

 26 28  0  0  0  0  0  0  0  0999 V2000
    5.6525   14.7457   22.9937 C   0  0  0  0  0  0  0  0  0  0  0  0
    6.5856   13.7754   23.6791 C   0  0  1  0  0  0  0  0  0  0  0  0
    7.9698   14.0515   23.3540 N   0  0  0  0  0  0  0  0  0  0  0  0
    9.0002   14.9574   24.0533 C   0  0  0  0  0  0  0  0  0  0  0  0
    8.8777   15.6838   24.9551 O   0  0  0  0  0  0  0  0  0  0  0  0
   10.3401   14.7087   23.4553 C   0  0  0  0  0  0  0  0  0  0  0  0
   10.4831   15.2621   22.0207 C   0  0  0  0  0  0  0  0  0  0  0  0
   11.4307   14.8367   21.1320 C   0  0  0  0  0  0  0  0  0  0  0  0
   10.9659   15.3158   19.9238 C   0  0  0  0  0  0  0  0  0  0  0  0
   11.6051   14.6982   18.3436 Br  0  0  0  0  0  0  0  0  0  0  0  0
    9.9266   16.1224   20.0154 N   0  0  0  0  0  0  0  0  0  0  0  0
    9.6489   16.0907   21.3214 N   0  0  0  0  0  0  0  0  0  0  0  0
    8.4239   16.7161   21.7124 C   0  0  0  0  0  0  0  0  0  0  0  0
   10.9328   13.3204   23.7396 C   0  0  0  0  0  0  0  0  0  0  0  0
   11.5802   14.5339   24.2922 C   0  0  0  0  0  0  0  0  0  0  0  0
    6.3736   13.6506   25.2221 C   0  0  0  0  0  0  0  0  0  0  0  0
    7.6044   13.1391   25.9374 C   0  0  0  0  0  0  0  0  0  0  0  0
    8.0740   11.8664   25.2410 C   0  0  0  0  0  0  0  0  0  0  0  0
    6.9836   10.9458   24.9728 N   0  0  0  0  0  0  0  0  0  0  0  0
    7.5818    9.6044   24.8427 C   0  0  0  0  0  0  0  0  0  0  0  0
    8.6464    9.4377   23.7308 C   0  0  0  0  0  0  0  0  0  0  0  0
    9.8605    9.3500   24.2878 F   0  0  0  0  0  0  0  0  0  0  0  0
    8.6951   10.5025   22.9004 F   0  0  0  0  0  0  0  0  0  0  0  0
    8.4657    8.3326   22.9984 F   0  0  0  0  0  0  0  0  0  0  0  0
    5.9249   11.1830   25.9428 C   0  0  0  0  0  0  0  0  0  0  0  0
    5.3132   12.5938   25.6143 C   0  0  0  0  0  0  0  0  0  0  0  0
  2  1  1  1
  2  3  1  0
  3  4  1  0
  4  5  2  0
  4  6  1  0
  6  7  1  0
  7  8  2  0
  8  9  1  0
  9 10  1  0
  9 11  2  0
 11 12  1  0
 12 13  1  0
  6 14  1  0
 14 15  1  0
  2 16  1  0
 16 17  1  0
 17 18  1  0
 18 19  1  0
 19 20  1  0
 20 21  1  0
 21 22  1  0
 21 23  1  0
 21 24  1  0
 19 25  1  0
 25 26  1  0
 15  6  1  0
 26 16  1  0
 12  7  1  0
M  END
>  <energy_score>  (1998) 
-0.556259

>  <inchikey>  (1998) 
None

>  <smiles>  (1998) 
None

>  <ref_pdb>  (1998) 
A4846a

>  <alias>  (1998) 
None

>  <HIPPO Pose ID>  (1998) 
499642

>  <name>  (1998) 
P499642

>  <HIPPO Compound ID>  (1998) 
307198

>  <ref_mols>  (1998) 
A0556a,A4846a

>  <distance_score>  (1998) 
1.722004

>  <inspiration_score>  (1998) 
None

$$$$
P499643
     RDKit          3D

 26 28  0  0  0  0  0  0  0  0999 V2000
    6.9683   13.6054   22.5316 C   0  0  0  0  0  0  0  0  0  0  0  0
    6.9890   13.9265   24.0236 C   0  0  2  0  0  0  0  0  0  0  0  0
    8.2999   14.4490   24.3280 N   0  0  0  0  0  0  0  0  0  0  0  0
    9.6444   13.7138   24.5837 C   0  0  0  0  0  0  0  0  0  0  0  0
    9.8797   12.5721   24.6634 O   0  0  0  0  0  0  0  0  0  0  0  0
   10.7327   14.7698   24.6200 C   0  0  0  0  0  0  0  0  0  0  0  0
   11.0308   15.0403   23.1965 C   0  0  0  0  0  0  0  0  0  0  0  0
   11.7507   14.2238   22.3183 C   0  0  0  0  0  0  0  0  0  0  0  0
   11.5589   14.7591   21.0740 C   0  0  0  0  0  0  0  0  0  0  0  0
   11.9728   14.3508   19.8426 N   0  0  0  0  0  0  0  0  0  0  0  0
   11.2407   14.7676   18.8611 C   0  0  0  0  0  0  0  0  0  0  0  0
   10.0667   15.6602   18.9881 C   0  0  0  0  0  0  0  0  0  0  0  0
    9.8960   16.2353   20.1844 C   0  0  0  0  0  0  0  0  0  0  0  0
   10.6325   15.7794   21.2543 N   0  0  0  0  0  0  0  0  0  0  0  0
   10.4193   16.0406   22.5657 N   0  0  0  0  0  0  0  0  0  0  0  0
    6.4193   12.7769   24.8864 C   0  0  0  0  0  0  0  0  0  0  0  0
    7.2144   11.4706   24.9964 C   0  0  0  0  0  0  0  0  0  0  0  0
    6.5029   10.3941   25.8333 C   0  0  0  0  0  0  0  0  0  0  0  0
    5.2937   10.8912   26.4985 N   0  0  0  0  0  0  0  0  0  0  0  0
    4.5991    9.8615   27.3328 C   0  0  0  0  0  0  0  0  0  0  0  0
    5.0776    9.5875   28.7562 C   0  0  0  0  0  0  0  0  0  0  0  0
    4.6428   10.5448   29.6091 F   0  0  0  0  0  0  0  0  0  0  0  0
    4.6387    8.4012   29.2188 F   0  0  0  0  0  0  0  0  0  0  0  0
    6.4203    9.5791   28.8271 F   0  0  0  0  0  0  0  0  0  0  0  0
    5.5725   12.1361   27.2204 C   0  0  0  0  0  0  0  0  0  0  0  0
    6.0690   13.2624   26.2984 C   0  0  0  0  0  0  0  0  0  0  0  0
  2  1  1  6
  2  3  1  0
  3  4  1  0
  4  5  2  0
  4  6  1  0
  6  7  1  0
  7  8  1  0
  8  9  2  0
  9 10  1  0
 10 11  2  0
 11 12  1  0
 12 13  2  0
 13 14  1  0
 14 15  1  0
  2 16  1  0
 16 17  1  0
 17 18  1  0
 18 19  1  0
 19 20  1  0
 20 21  1  0
 21 22  1  0
 21 23  1  0
 21 24  1  0
 19 25  1  0
 25 26  1  0
 15  7  2  0
 26 16  1  0
 14  9  1  0
M  END
>  <energy_score>  (1999) 
-13.469927

>  <inchikey>  (1999) 
None

>  <smiles>  (1999) 
None

>  <ref_pdb>  (1999) 
A4846a

>  <alias>  (1999) 
None

>  <HIPPO Pose ID>  (1999) 
499643

>  <name>  (1999) 
P499643

>  <HIPPO Compound ID>  (1999) 
307200

>  <ref_mols>  (1999) 
A0556a,A4846a

>  <distance_score>  (1999) 
1.526589

>  <inspiration_score>  (1999) 
None

$$$$
P499644
     RDKit          3D

 26 28  0  0  0  0  0  0  0  0999 V2000
    6.5805   14.1159   23.0488 C   0  0  0  0  0  0  0  0  0  0  0  0
    7.5147   13.1098   23.7041 C   0  0  1  0  0  0  0  0  0  0  0  0
    8.8129   13.6861   23.8793 N   0  0  0  0  0  0  0  0  0  0  0  0
    9.3410   14.6804   24.9555 C   0  0  0  0  0  0  0  0  0  0  0  0
    8.8160   15.1182   25.9060 O   0  0  0  0  0  0  0  0  0  0  0  0
   10.8057   14.9691   24.6516 C   0  0  0  0  0  0  0  0  0  0  0  0
   11.0625   15.1488   23.2016 C   0  0  0  0  0  0  0  0  0  0  0  0
   11.7778   14.2971   22.3503 C   0  0  0  0  0  0  0  0  0  0  0  0
   11.5631   14.7725   21.0834 C   0  0  0  0  0  0  0  0  0  0  0  0
   11.9672   14.3208   19.8641 N   0  0  0  0  0  0  0  0  0  0  0  0
   11.2516   14.7313   18.8665 C   0  0  0  0  0  0  0  0  0  0  0  0
   10.0909   15.6439   18.9640 C   0  0  0  0  0  0  0  0  0  0  0  0
    9.9211   16.2453   20.1461 C   0  0  0  0  0  0  0  0  0  0  0  0
   10.6476   15.8068   21.2283 N   0  0  0  0  0  0  0  0  0  0  0  0
   10.4319   16.1034   22.5249 N   0  0  0  0  0  0  0  0  0  0  0  0
    7.0743   12.4692   25.0359 C   0  0  0  0  0  0  0  0  0  0  0  0
    7.2940   10.9612   24.9332 C   0  0  0  0  0  0  0  0  0  0  0  0
    6.5799   10.1241   25.9786 C   0  0  0  0  0  0  0  0  0  0  0  0
    5.2466   10.5915   26.3418 N   0  0  0  0  0  0  0  0  0  0  0  0
    4.5508    9.7125   27.3290 C   0  0  0  0  0  0  0  0  0  0  0  0
    5.0343    9.6585   28.7757 C   0  0  0  0  0  0  0  0  0  0  0  0
    4.5683    8.5667   29.4142 F   0  0  0  0  0  0  0  0  0  0  0  0
    4.6189   10.7461   29.4661 F   0  0  0  0  0  0  0  0  0  0  0  0
    6.3764    9.6270   28.8551 F   0  0  0  0  0  0  0  0  0  0  0  0
    5.2765   12.0020   26.7378 C   0  0  0  0  0  0  0  0  0  0  0  0
    5.6806   12.8448   25.5271 C   0  0  0  0  0  0  0  0  0  0  0  0
  2  1  1  1
  2  3  1  0
  3  4  1  0
  4  5  2  0
  4  6  1  0
  6  7  1  0
  7  8  1  0
  8  9  2  0
  9 10  1  0
 10 11  2  0
 11 12  1  0
 12 13  2  0
 13 14  1  0
 14 15  1  0
  2 16  1  0
 16 17  1  0
 17 18  1  0
 18 19  1  0
 19 20  1  0
 20 21  1  0
 21 22  1  0
 21 23  1  0
 21 24  1  0
 19 25  1  0
 25 26  1  0
 15  7  2  0
 26 16  1  0
 14  9  1  0
M  END
>  <energy_score>  (2000) 
-14.074176

>  <inchikey>  (2000) 
None

>  <smiles>  (2000) 
None

>  <ref_pdb>  (2000) 
A4846a

>  <alias>  (2000) 
None

>  <HIPPO Pose ID>  (2000) 
499644

>  <name>  (2000) 
P499644

>  <HIPPO Compound ID>  (2000) 
307200

>  <ref_mols>  (2000) 
A0556a,A4846a

>  <distance_score>  (2000) 
1.492282

>  <inspiration_score>  (2000) 
None

$$$$
P499645
     RDKit          3D

 26 28  0  0  0  0  0  0  0  0999 V2000
    6.0197   13.8687   23.0665 C   0  0  0  0  0  0  0  0  0  0  0  0
    6.8892   14.0690   24.3013 C   0  0  2  0  0  0  0  0  0  0  0  0
    8.2508   14.3400   23.9257 N   0  0  0  0  0  0  0  0  0  0  0  0
    9.4412   14.8389   24.7677 C   0  0  0  0  0  0  0  0  0  0  0  0
    9.5267   15.0357   25.9159 O   0  0  0  0  0  0  0  0  0  0  0  0
   10.6182   15.2004   23.8753 C   0  0  0  0  0  0  0  0  0  0  0  0
   10.7600   14.6981   22.4891 C   0  0  0  0  0  0  0  0  0  0  0  0
   11.6595   13.7499   22.0535 C   0  0  0  0  0  0  0  0  0  0  0  0
   11.7930   13.9747   20.6753 C   0  0  0  0  0  0  0  0  0  0  0  0
   10.9281   14.8600   20.2321 N   0  0  0  0  0  0  0  0  0  0  0  0
   10.2577   15.2275   21.3268 N   0  0  0  0  0  0  0  0  0  0  0  0
    9.1587   16.1128   21.0267 C   0  0  0  0  0  0  0  0  0  0  0  0
    8.2093   16.7257   22.0253 C   0  0  0  0  0  0  0  0  0  0  0  0
    8.4743   18.0987   21.3555 C   0  0  0  0  0  0  0  0  0  0  0  0
    9.7383   17.5119   20.7980 C   0  0  0  0  0  0  0  0  0  0  0  0
    6.7928   12.9813   25.3857 C   0  0  0  0  0  0  0  0  0  0  0  0
    7.0173   11.5512   24.8798 C   0  0  0  0  0  0  0  0  0  0  0  0
    6.5583   10.4635   25.8669 C   0  0  0  0  0  0  0  0  0  0  0  0
    5.2309   10.7478   26.4212 N   0  0  0  0  0  0  0  0  0  0  0  0
    4.6232    9.6635   27.2481 C   0  0  0  0  0  0  0  0  0  0  0  0
    5.0731    9.4815   28.6953 C   0  0  0  0  0  0  0  0  0  0  0  0
    4.5066   10.4102   29.5012 F   0  0  0  0  0  0  0  0  0  0  0  0
    6.4064    9.6239   28.8091 F   0  0  0  0  0  0  0  0  0  0  0  0
    4.7479    8.2699   29.1834 F   0  0  0  0  0  0  0  0  0  0  0  0
    5.2224   12.0310   27.1227 C   0  0  0  0  0  0  0  0  0  0  0  0
    5.4546   13.1383   26.1144 C   0  0  0  0  0  0  0  0  0  0  0  0
  2  1  1  6
  2  3  1  0
  3  4  1  0
  4  5  2  0
  4  6  1  0
  6  7  1  0
  7  8  2  0
  8  9  1  0
  9 10  2  0
 10 11  1  0
 11 12  1  0
 12 13  1  0
 13 14  1  0
 14 15  1  0
  2 16  1  0
 16 17  1  0
 17 18  1  0
 18 19  1  0
 19 20  1  0
 20 21  1  0
 21 22  1  0
 21 23  1  0
 21 24  1  0
 19 25  1  0
 25 26  1  0
 11  7  1  0
 15 12  1  0
 26 16  1  0
M  END
>  <energy_score>  (2001) 
-13.350352

>  <inchikey>  (2001) 
None

>  <smiles>  (2001) 
None

>  <ref_pdb>  (2001) 
A4846a

>  <alias>  (2001) 
None

>  <HIPPO Pose ID>  (2001) 
499645

>  <name>  (2001) 
P499645

>  <HIPPO Compound ID>  (2001) 
307204

>  <ref_mols>  (2001) 
A0556a,A4846a

>  <distance_score>  (2001) 
1.61141

>  <inspiration_score>  (2001) 
None

$$$$
P499646
     RDKit          3D

 27 28  0  0  0  0  0  0  0  0999 V2000
    6.5728   14.9069   22.3971 C   0  0  0  0  0  0  0  0  0  0  0  0
    7.2640   15.1946   23.7396 C   0  0  2  0  0  0  0  0  0  0  0  0
    8.6614   14.8174   23.5332 N   0  0  0  0  0  0  0  0  0  0  0  0
    9.8298   14.6346   24.5639 C   0  0  0  0  0  0  0  0  0  0  0  0
    9.8235   14.6842   25.7374 O   0  0  0  0  0  0  0  0  0  0  0  0
   11.1110   14.2424   23.7863 C   0  0  0  0  0  0  0  0  0  0  0  0
   11.2059   14.9305   22.4744 C   0  0  0  0  0  0  0  0  0  0  0  0
   11.4430   14.3906   21.2057 C   0  0  0  0  0  0  0  0  0  0  0  0
   10.9495   15.3219   20.3126 C   0  0  0  0  0  0  0  0  0  0  0  0
   10.7969   15.2552   18.8518 C   0  0  0  0  0  0  0  0  0  0  0  0
   11.5895   16.1420   18.2199 F   0  0  0  0  0  0  0  0  0  0  0  0
    9.5180   15.5465   18.5054 F   0  0  0  0  0  0  0  0  0  0  0  0
   11.0912   14.0294   18.3641 F   0  0  0  0  0  0  0  0  0  0  0  0
   10.5053   16.3605   21.0815 N   0  0  0  0  0  0  0  0  0  0  0  0
    9.6307   17.4663   20.7665 C   0  0  0  0  0  0  0  0  0  0  0  0
   10.8167   16.1972   22.3756 N   0  0  0  0  0  0  0  0  0  0  0  0
    6.6556   14.3873   24.8756 C   0  0  0  0  0  0  0  0  0  0  0  0
    6.8293   14.9205   26.2975 C   0  0  0  0  0  0  0  0  0  0  0  0
    6.6640   13.7369   27.2830 C   0  0  0  0  0  0  0  0  0  0  0  0
    5.7495   12.6722   26.8295 N   0  0  0  0  0  0  0  0  0  0  0  0
    6.3472   11.4160   26.2727 C   0  0  0  0  0  0  0  0  0  0  0  0
    7.3622   11.2650   25.1038 C   0  0  0  0  0  0  0  0  0  0  0  0
    6.8147   11.6032   23.9176 F   0  0  0  0  0  0  0  0  0  0  0  0
    7.7685    9.9820   24.9800 F   0  0  0  0  0  0  0  0  0  0  0  0
    8.4794   11.9911   25.2795 F   0  0  0  0  0  0  0  0  0  0  0  0
    4.7068   13.2952   26.0245 C   0  0  0  0  0  0  0  0  0  0  0  0
    5.1961   13.9383   24.7264 C   0  0  0  0  0  0  0  0  0  0  0  0
  2  1  1  6
  2  3  1  0
  3  4  1  0
  4  5  2  0
  4  6  1  0
  6  7  1  0
  7  8  1  0
  8  9  2  0
  9 10  1  0
 10 11  1  0
 10 12  1  0
 10 13  1  0
  9 14  1  0
 14 15  1  0
 14 16  1  0
  2 17  1  0
 17 18  1  0
 18 19  1  0
 19 20  1  0
 20 21  1  0
 21 22  1  0
 22 23  1  0
 22 24  1  0
 22 25  1  0
 20 26  1  0
 26 27  1  0
 16  7  2  0
 27 17  1  0
M  END
>  <energy_score>  (2002) 
-0.753457

>  <inchikey>  (2002) 
None

>  <smiles>  (2002) 
None

>  <ref_pdb>  (2002) 
A4846a

>  <alias>  (2002) 
None

>  <HIPPO Pose ID>  (2002) 
499646

>  <name>  (2002) 
P499646

>  <HIPPO Compound ID>  (2002) 
307210

>  <ref_mols>  (2002) 
A0556a,A4846a

>  <distance_score>  (2002) 
1.652912

>  <inspiration_score>  (2002) 
None

$$$$
P499647
     RDKit          3D

 24 26  0  0  0  0  0  0  0  0999 V2000
    0.5949   14.2201   21.6183 C   0  0  0  0  0  0  0  0  0  0  0  0
    0.3736   14.1735   20.1689 C   0  0  0  0  0  0  0  0  0  0  0  0
   -0.8933   14.4058   19.6670 N   0  0  0  0  0  0  0  0  0  0  0  0
   -0.7676   14.1514   18.3919 C   0  0  0  0  0  0  0  0  0  0  0  0
   -1.8669   14.0229   17.0470 S   0  0  0  0  0  0  0  0  0  0  0  0
   -0.5581   13.3096   16.0962 C   0  0  0  0  0  0  0  0  0  0  0  0
    0.5980   13.2318   16.7785 C   0  0  0  0  0  0  0  0  0  0  0  0
    0.4818   13.7266   18.0558 N   0  0  0  0  0  0  0  0  0  0  0  0
    1.2841   13.8615   19.1688 C   0  0  0  0  0  0  0  0  0  0  0  0
    2.7347   13.5598   19.1752 C   0  0  0  0  0  0  0  0  0  0  0  0
    3.4491   14.0718   20.3350 N   0  0  0  0  0  0  0  0  0  0  0  0
    4.7088   13.5424   21.0477 C   0  0  0  0  0  0  0  0  0  0  0  0
    5.3236   12.5767   20.8662 O   0  0  0  0  0  0  0  0  0  0  0  0
    5.0806   14.4603   22.2427 C   0  0  0  0  0  0  0  0  0  0  0  0
    6.5068   14.3174   22.9607 C   0  0  1  0  0  0  0  0  0  0  0  0
    6.4238   14.8861   24.3939 C   0  0  0  0  0  0  0  0  0  0  0  0
    6.0525   13.8317   25.4313 C   0  0  0  0  0  0  0  0  0  0  0  0
    7.0330   12.6748   25.4259 C   0  0  0  0  0  0  0  0  0  0  0  0
    7.8636   12.5745   24.1374 C   0  0  1  0  0  0  0  0  0  0  0  0
    8.4223   11.1197   24.0515 C   0  0  0  0  0  0  0  0  0  0  0  0
    9.3424   10.9136   25.0109 F   0  0  0  0  0  0  0  0  0  0  0  0
    7.4886   10.1632   24.2550 F   0  0  0  0  0  0  0  0  0  0  0  0
    9.0540   10.8906   22.8839 F   0  0  0  0  0  0  0  0  0  0  0  0
    7.1432   13.0156   22.9450 O   0  0  0  0  0  0  0  0  0  0  0  0
  1  2  1  0
  2  3  1  0
  3  4  2  0
  4  5  1  0
  5  6  1  0
  6  7  2  0
  7  8  1  0
  8  9  1  0
  9 10  1  0
 10 11  1  0
 11 12  1  0
 12 13  2  0
 12 14  1  0
 15 14  1  1
 15 16  1  0
 16 17  1  0
 17 18  1  0
 18 19  1  0
 19 20  1  6
 20 21  1  0
 20 22  1  0
 20 23  1  0
 19 24  1  0
  9  2  2  0
 24 15  1  0
  8  4  1  0
M  END
>  <energy_score>  (2003) 
-4.890221

>  <inchikey>  (2003) 
None

>  <smiles>  (2003) 
None

>  <ref_pdb>  (2003) 
A1209a

>  <alias>  (2003) 
None

>  <HIPPO Pose ID>  (2003) 
499647

>  <name>  (2003) 
P499647

>  <HIPPO Compound ID>  (2003) 
307659

>  <ref_mols>  (2003) 
A0473a,A1209a

>  <distance_score>  (2003) 
1.999697

>  <inspiration_score>  (2003) 
None

$$$$
P499648
     RDKit          3D

 24 26  0  0  0  0  0  0  0  0999 V2000
    4.2018   15.3999   23.7082 O   0  0  0  0  0  0  0  0  0  0  0  0
    4.4782   14.7332   22.7850 C   0  0  0  0  0  0  0  0  0  0  0  0
    5.9602   14.4015   22.4996 C   0  0  0  0  0  0  0  0  0  0  0  0
    6.8131   13.9050   23.7271 C   0  0  1  0  0  0  0  0  0  0  0  0
    6.0537   13.8068   25.0799 C   0  0  0  0  0  0  0  0  0  0  0  0
    6.4355   12.6213   25.9443 C   0  0  0  0  0  0  0  0  0  0  0  0
    7.8957   12.3515   25.7759 C   0  0  0  0  0  0  0  0  0  0  0  0
    8.3098   12.0321   24.3451 C   0  0  1  0  0  0  0  0  0  0  0  0
    8.4179   10.4883   24.2229 C   0  0  0  0  0  0  0  0  0  0  0  0
    8.8997   10.0767   23.0370 F   0  0  0  0  0  0  0  0  0  0  0  0
    9.2781   10.0242   25.1469 F   0  0  0  0  0  0  0  0  0  0  0  0
    7.2497    9.8652   24.4890 F   0  0  0  0  0  0  0  0  0  0  0  0
    7.4634   12.6564   23.3520 O   0  0  0  0  0  0  0  0  0  0  0  0
    3.5603   14.0398   21.7259 N   0  0  0  0  0  0  0  0  0  0  0  0
    2.1111   13.9498   21.6480 C   0  0  0  0  0  0  0  0  0  0  0  0
    1.5062   13.9303   20.2712 C   0  0  0  0  0  0  0  0  0  0  0  0
    1.6914   13.0446   19.2276 C   0  0  0  0  0  0  0  0  0  0  0  0
    0.7625   13.3875   18.2798 N   0  0  0  0  0  0  0  0  0  0  0  0
    0.0491   14.4613   18.7350 C   0  0  0  0  0  0  0  0  0  0  0  0
    0.4746   14.8059   19.9381 N   0  0  0  0  0  0  0  0  0  0  0  0
   -1.0133   15.0943   17.8892 C   0  0  0  0  0  0  0  0  0  0  0  0
   -1.5023   14.1543   16.9071 O   0  0  0  0  0  0  0  0  0  0  0  0
   -0.4236   13.6015   16.1469 C   0  0  0  0  0  0  0  0  0  0  0  0
    0.4467   12.7208   17.0338 C   0  0  0  0  0  0  0  0  0  0  0  0
  1  2  2  0
  2  3  1  0
  4  3  1  6
  4  5  1  0
  5  6  1  0
  6  7  1  0
  7  8  1  0
  8  9  1  1
  9 10  1  0
  9 11  1  0
  9 12  1  0
  8 13  1  0
  2 14  1  0
 14 15  1  0
 15 16  1  0
 16 17  2  0
 17 18  1  0
 18 19  1  0
 19 20  2  0
 19 21  1  0
 21 22  1  0
 22 23  1  0
 23 24  1  0
 13  4  1  0
 20 16  1  0
 24 18  1  0
M  END
>  <energy_score>  (2004) 
-14.597296

>  <inchikey>  (2004) 
None

>  <smiles>  (2004) 
None

>  <ref_pdb>  (2004) 
A1209a

>  <alias>  (2004) 
None

>  <HIPPO Pose ID>  (2004) 
499648

>  <name>  (2004) 
P499648

>  <HIPPO Compound ID>  (2004) 
307663

>  <ref_mols>  (2004) 
A0473a,A1209a

>  <distance_score>  (2004) 
1.855956

>  <inspiration_score>  (2004) 
None

$$$$
P499649
     RDKit          3D

 24 26  0  0  0  0  0  0  0  0999 V2000
    3.6896   15.2904   24.1210 O   0  0  0  0  0  0  0  0  0  0  0  0
    4.0902   14.7274   23.1739 C   0  0  0  0  0  0  0  0  0  0  0  0
    5.6183   14.5319   22.9873 C   0  0  0  0  0  0  0  0  0  0  0  0
    6.4010   14.0062   24.2562 C   0  0  1  0  0  0  0  0  0  0  0  0
    5.4942   13.6502   25.4697 C   0  0  0  0  0  0  0  0  0  0  0  0
    5.9372   12.4593   26.2913 C   0  0  0  0  0  0  0  0  0  0  0  0
    7.4299   12.3870   26.2680 C   0  0  0  0  0  0  0  0  0  0  0  0
    7.9931   12.1821   24.8622 C   0  0  1  0  0  0  0  0  0  0  0  0
    8.0743   10.6576   24.5785 C   0  0  0  0  0  0  0  0  0  0  0  0
    8.7276   10.0248   25.5704 F   0  0  0  0  0  0  0  0  0  0  0  0
    6.8606   10.0757   24.5710 F   0  0  0  0  0  0  0  0  0  0  0  0
    8.7284   10.3575   23.4384 F   0  0  0  0  0  0  0  0  0  0  0  0
    7.2771   12.9147   23.8383 O   0  0  0  0  0  0  0  0  0  0  0  0
    3.3166   14.0699   21.9843 N   0  0  0  0  0  0  0  0  0  0  0  0
    1.8906   13.8905   21.7714 C   0  0  0  0  0  0  0  0  0  0  0  0
    1.3876   13.9156   20.3547 C   0  0  0  0  0  0  0  0  0  0  0  0
    1.6357   13.0520   19.3050 C   0  0  0  0  0  0  0  0  0  0  0  0
    0.7458   13.3981   18.3202 N   0  0  0  0  0  0  0  0  0  0  0  0
    0.0036   14.4603   18.7568 C   0  0  0  0  0  0  0  0  0  0  0  0
    0.3712   14.7926   19.9821 N   0  0  0  0  0  0  0  0  0  0  0  0
   -1.0350   15.0865   17.8773 C   0  0  0  0  0  0  0  0  0  0  0  0
   -1.4939   14.1368   16.8905 O   0  0  0  0  0  0  0  0  0  0  0  0
   -0.3926   13.5922   16.1566 C   0  0  0  0  0  0  0  0  0  0  0  0
    0.4716   12.7274   17.0656 C   0  0  0  0  0  0  0  0  0  0  0  0
  1  2  2  0
  2  3  1  0
  4  3  1  6
  4  5  1  0
  5  6  1  0
  6  7  1  0
  7  8  1  0
  8  9  1  6
  9 10  1  0
  9 11  1  0
  9 12  1  0
  8 13  1  0
  2 14  1  0
 14 15  1  0
 15 16  1  0
 16 17  2  0
 17 18  1  0
 18 19  1  0
 19 20  2  0
 19 21  1  0
 21 22  1  0
 22 23  1  0
 23 24  1  0
 13  4  1  0
 20 16  1  0
 24 18  1  0
M  END
>  <energy_score>  (2005) 
-6.934541

>  <inchikey>  (2005) 
None

>  <smiles>  (2005) 
None

>  <ref_pdb>  (2005) 
A1209a

>  <alias>  (2005) 
None

>  <HIPPO Pose ID>  (2005) 
499649

>  <name>  (2005) 
P499649

>  <HIPPO Compound ID>  (2005) 
307663

>  <ref_mols>  (2005) 
A0473a,A1209a

>  <distance_score>  (2005) 
1.868808

>  <inspiration_score>  (2005) 
None

$$$$
P499650
     RDKit          3D

 24 26  0  0  0  0  0  0  0  0999 V2000
    4.1160   14.8501   23.9310 O   0  0  0  0  0  0  0  0  0  0  0  0
    4.4007   14.4886   22.8541 C   0  0  0  0  0  0  0  0  0  0  0  0
    5.8852   14.4180   22.3914 C   0  0  0  0  0  0  0  0  0  0  0  0
    7.0183   14.0891   23.4324 C   0  0  1  0  0  0  0  0  0  0  0  0
    6.8353   14.5946   24.8681 C   0  0  0  0  0  0  0  0  0  0  0  0
    6.2257   13.5554   25.7982 C   0  0  0  0  0  0  0  0  0  0  0  0
    6.9689   12.2404   25.7534 C   0  0  0  0  0  0  0  0  0  0  0  0
    7.9405   12.1049   24.5703 C   0  0  1  0  0  0  0  0  0  0  0  0
    8.2626   10.5963   24.4574 C   0  0  0  0  0  0  0  0  0  0  0  0
    7.1603    9.8377   24.3382 F   0  0  0  0  0  0  0  0  0  0  0  0
    8.8072   10.1748   25.6144 F   0  0  0  0  0  0  0  0  0  0  0  0
    9.1199   10.2902   23.4659 F   0  0  0  0  0  0  0  0  0  0  0  0
    7.4164   12.6943   23.3542 O   0  0  0  0  0  0  0  0  0  0  0  0
    3.4884   14.0652   21.6520 N   0  0  0  0  0  0  0  0  0  0  0  0
    2.0483   13.9129   21.5722 C   0  0  0  0  0  0  0  0  0  0  0  0
    1.4460   13.8961   20.1965 C   0  0  0  0  0  0  0  0  0  0  0  0
    1.4076   12.8709   19.2715 C   0  0  0  0  0  0  0  0  0  0  0  0
    0.5626   13.2955   18.2823 N   0  0  0  0  0  0  0  0  0  0  0  0
    0.1274   14.5549   18.5873 C   0  0  0  0  0  0  0  0  0  0  0  0
    0.6376   14.9354   19.7477 N   0  0  0  0  0  0  0  0  0  0  0  0
   -0.8579   15.2750   17.7119 C   0  0  0  0  0  0  0  0  0  0  0  0
   -1.0969   14.5762   16.4683 O   0  0  0  0  0  0  0  0  0  0  0  0
   -1.2368   13.1674   16.6529 C   0  0  0  0  0  0  0  0  0  0  0  0
    0.0859   12.5790   17.1184 C   0  0  0  0  0  0  0  0  0  0  0  0
  1  2  2  0
  2  3  1  0
  4  3  1  6
  4  5  1  0
  5  6  1  0
  6  7  1  0
  7  8  1  0
  8  9  1  6
  9 10  1  0
  9 11  1  0
  9 12  1  0
  8 13  1  0
  2 14  1  0
 14 15  1  0
 15 16  1  0
 16 17  2  0
 17 18  1  0
 18 19  1  0
 19 20  2  0
 19 21  1  0
 21 22  1  0
 22 23  1  0
 23 24  1  0
 13  4  1  0
 20 16  1  0
 24 18  1  0
M  END
>  <energy_score>  (2006) 
-14.603966

>  <inchikey>  (2006) 
None

>  <smiles>  (2006) 
None

>  <ref_pdb>  (2006) 
A1209a

>  <alias>  (2006) 
None

>  <HIPPO Pose ID>  (2006) 
499650

>  <name>  (2006) 
P499650

>  <HIPPO Compound ID>  (2006) 
307663

>  <ref_mols>  (2006) 
A0473a,A1209a

>  <distance_score>  (2006) 
1.950381

>  <inspiration_score>  (2006) 
None

$$$$
P499651
     RDKit          3D

 24 26  0  0  0  0  0  0  0  0999 V2000
    3.7799   15.1640   23.6910 O   0  0  0  0  0  0  0  0  0  0  0  0
    4.1477   14.5949   22.7352 C   0  0  0  0  0  0  0  0  0  0  0  0
    5.6771   14.3884   22.5146 C   0  0  0  0  0  0  0  0  0  0  0  0
    6.5526   14.0036   23.7894 C   0  0  1  0  0  0  0  0  0  0  0  0
    5.7622   13.8769   25.1227 C   0  0  0  0  0  0  0  0  0  0  0  0
    6.1879   12.7528   26.0412 C   0  0  0  0  0  0  0  0  0  0  0  0
    7.6631   12.5590   25.9299 C   0  0  0  0  0  0  0  0  0  0  0  0
    8.1231   12.1909   24.5232 C   0  0  1  0  0  0  0  0  0  0  0  0
    8.1642   10.6379   24.4242 C   0  0  0  0  0  0  0  0  0  0  0  0
    8.7716   10.1913   23.3072 F   0  0  0  0  0  0  0  0  0  0  0  0
    6.9407   10.0864   24.5329 F   0  0  0  0  0  0  0  0  0  0  0  0
    8.8475   10.1108   25.4590 F   0  0  0  0  0  0  0  0  0  0  0  0
    7.3552   12.8230   23.4644 O   0  0  0  0  0  0  0  0  0  0  0  0
    3.3342   13.9502   21.5649 N   0  0  0  0  0  0  0  0  0  0  0  0
    1.9003   13.7943   21.3874 C   0  0  0  0  0  0  0  0  0  0  0  0
    1.3255   13.8566   19.9985 C   0  0  0  0  0  0  0  0  0  0  0  0
    0.8348   14.9313   19.2780 C   0  0  0  0  0  0  0  0  0  0  0  0
    0.1482   14.4039   18.1963 N   0  0  0  0  0  0  0  0  0  0  0  0
   -0.6061   15.0197   17.2016 C   0  0  0  0  0  0  0  0  0  0  0  0
   -1.1780   14.2747   16.2475 C   0  0  0  0  0  0  0  0  0  0  0  0
   -0.9472   12.8110   16.3786 C   0  0  0  0  0  0  0  0  0  0  0  0
   -0.2790   12.2170   17.3194 N   0  0  0  0  0  0  0  0  0  0  0  0
    0.2913   13.0249   18.2621 C   0  0  0  0  0  0  0  0  0  0  0  0
    0.9833   12.6926   19.3366 N   0  0  0  0  0  0  0  0  0  0  0  0
  1  2  2  0
  2  3  1  0
  4  3  1  6
  4  5  1  0
  5  6  1  0
  6  7  1  0
  7  8  1  0
  8  9  1  6
  9 10  1  0
  9 11  1  0
  9 12  1  0
  8 13  1  0
  2 14  1  0
 14 15  1  0
 15 16  1  0
 16 17  2  0
 17 18  1  0
 18 19  1  0
 19 20  2  0
 20 21  1  0
 21 22  2  0
 22 23  1  0
 23 24  2  0
 13  4  1  0
 24 16  1  0
 23 18  1  0
M  END
>  <energy_score>  (2007) 
-9.745722

>  <inchikey>  (2007) 
None

>  <smiles>  (2007) 
None

>  <ref_pdb>  (2007) 
A1209a

>  <alias>  (2007) 
None

>  <HIPPO Pose ID>  (2007) 
499651

>  <name>  (2007) 
P499651

>  <HIPPO Compound ID>  (2007) 
307670

>  <ref_mols>  (2007) 
A0473a,A1209a

>  <distance_score>  (2007) 
1.830665

>  <inspiration_score>  (2007) 
None

$$$$
P499652
     RDKit          3D

 24 26  0  0  0  0  0  0  0  0999 V2000
    3.9573   15.2079   23.5759 O   0  0  0  0  0  0  0  0  0  0  0  0
    4.2744   14.5987   22.6268 C   0  0  0  0  0  0  0  0  0  0  0  0
    5.7837   14.3400   22.3623 C   0  0  0  0  0  0  0  0  0  0  0  0
    6.6976   13.9622   23.6065 C   0  0  1  0  0  0  0  0  0  0  0  0
    5.9827   13.9137   24.9854 C   0  0  0  0  0  0  0  0  0  0  0  0
    6.3967   12.7779   25.8992 C   0  0  0  0  0  0  0  0  0  0  0  0
    7.8568   12.5142   25.7329 C   0  0  0  0  0  0  0  0  0  0  0  0
    8.2616   12.1497   24.3094 C   0  0  1  0  0  0  0  0  0  0  0  0
    8.3848   10.5986   24.2430 C   0  0  0  0  0  0  0  0  0  0  0  0
    8.8977   10.1505   23.0825 F   0  0  0  0  0  0  0  0  0  0  0  0
    9.2291   10.1770   25.2041 F   0  0  0  0  0  0  0  0  0  0  0  0
    7.2202    9.9678   24.5049 F   0  0  0  0  0  0  0  0  0  0  0  0
    7.4138   12.7306   23.2886 O   0  0  0  0  0  0  0  0  0  0  0  0
    3.4019   13.9505   21.5011 N   0  0  0  0  0  0  0  0  0  0  0  0
    1.9580   13.8418   21.3720 C   0  0  0  0  0  0  0  0  0  0  0  0
    1.3539   13.8829   19.9939 C   0  0  0  0  0  0  0  0  0  0  0  0
    0.8476   14.9480   19.2698 C   0  0  0  0  0  0  0  0  0  0  0  0
    0.1554   14.4073   18.1986 N   0  0  0  0  0  0  0  0  0  0  0  0
   -0.6080   15.0106   17.2030 C   0  0  0  0  0  0  0  0  0  0  0  0
   -1.1828   14.2540   16.2598 C   0  0  0  0  0  0  0  0  0  0  0  0
   -0.9444   12.7928   16.4033 C   0  0  0  0  0  0  0  0  0  0  0  0
   -0.2668   12.2107   17.3449 N   0  0  0  0  0  0  0  0  0  0  0  0
    0.3065   13.0298   18.2761 C   0  0  0  0  0  0  0  0  0  0  0  0
    1.0108   12.7110   19.3472 N   0  0  0  0  0  0  0  0  0  0  0  0
  1  2  2  0
  2  3  1  0
  4  3  1  6
  4  5  1  0
  5  6  1  0
  6  7  1  0
  7  8  1  0
  8  9  1  1
  9 10  1  0
  9 11  1  0
  9 12  1  0
  8 13  1  0
  2 14  1  0
 14 15  1  0
 15 16  1  0
 16 17  2  0
 17 18  1  0
 18 19  1  0
 19 20  2  0
 20 21  1  0
 21 22  2  0
 22 23  1  0
 23 24  2  0
 13  4  1  0
 24 16  1  0
 23 18  1  0
M  END
>  <energy_score>  (2008) 
-17.397233

>  <inchikey>  (2008) 
None

>  <smiles>  (2008) 
None

>  <ref_pdb>  (2008) 
A1209a

>  <alias>  (2008) 
None

>  <HIPPO Pose ID>  (2008) 
499652

>  <name>  (2008) 
P499652

>  <HIPPO Compound ID>  (2008) 
307670

>  <ref_mols>  (2008) 
A0473a,A1209a

>  <distance_score>  (2008) 
1.788659

>  <inspiration_score>  (2008) 
None

$$$$
P499653
     RDKit          3D

 24 26  0  0  0  0  0  0  0  0999 V2000
    4.3218   15.3411   23.7353 O   0  0  0  0  0  0  0  0  0  0  0  0
    4.5768   14.6972   22.7891 C   0  0  0  0  0  0  0  0  0  0  0  0
    6.0545   14.3816   22.4422 C   0  0  0  0  0  0  0  0  0  0  0  0
    6.9921   13.8608   23.5977 C   0  0  1  0  0  0  0  0  0  0  0  0
    6.3587   13.7476   25.0068 C   0  0  0  0  0  0  0  0  0  0  0  0
    6.8015   12.5258   25.8000 C   0  0  0  0  0  0  0  0  0  0  0  0
    8.2492   12.2469   25.5183 C   0  0  0  0  0  0  0  0  0  0  0  0
    8.5535   11.9842   24.0567 C   0  0  1  0  0  0  0  0  0  0  0  0
    8.7069   10.4468   23.8662 C   0  0  0  0  0  0  0  0  0  0  0  0
    7.6022    9.7741   24.2593 F   0  0  0  0  0  0  0  0  0  0  0  0
    9.7167    9.9458   24.5953 F   0  0  0  0  0  0  0  0  0  0  0  0
    9.0253   10.1281   22.6020 F   0  0  0  0  0  0  0  0  0  0  0  0
    7.5873   12.6033   23.1677 O   0  0  0  0  0  0  0  0  0  0  0  0
    3.6327   14.0348   21.7288 N   0  0  0  0  0  0  0  0  0  0  0  0
    2.1808   13.9536   21.6775 C   0  0  0  0  0  0  0  0  0  0  0  0
    1.5495   13.9294   20.3108 C   0  0  0  0  0  0  0  0  0  0  0  0
    1.7396   13.0650   19.2506 C   0  0  0  0  0  0  0  0  0  0  0  0
    0.7906   13.3986   18.3152 N   0  0  0  0  0  0  0  0  0  0  0  0
    0.0637   14.4511   18.8012 C   0  0  0  0  0  0  0  0  0  0  0  0
    0.4881   14.7782   20.0073 N   0  0  0  0  0  0  0  0  0  0  0  0
   -1.0202   15.0949   17.9957 C   0  0  0  0  0  0  0  0  0  0  0  0
   -1.5708   14.1563   16.9165 C   0  0  0  0  0  0  0  0  0  0  0  0
   -0.4276   13.5082   16.1431 C   0  0  0  0  0  0  0  0  0  0  0  0
    0.4903   12.7152   17.0727 C   0  0  0  0  0  0  0  0  0  0  0  0
  1  2  2  0
  2  3  1  0
  4  3  1  6
  4  5  1  0
  5  6  1  0
  6  7  1  0
  7  8  1  0
  8  9  1  1
  9 10  1  0
  9 11  1  0
  9 12  1  0
  8 13  1  0
  2 14  1  0
 14 15  1  0
 15 16  1  0
 16 17  2  0
 17 18  1  0
 18 19  1  0
 19 20  2  0
 19 21  1  0
 21 22  1  0
 22 23  1  0
 23 24  1  0
 13  4  1  0
 20 16  1  0
 24 18  1  0
M  END
>  <energy_score>  (2009) 
-4.683016

>  <inchikey>  (2009) 
None

>  <smiles>  (2009) 
None

>  <ref_pdb>  (2009) 
A1209a

>  <alias>  (2009) 
None

>  <HIPPO Pose ID>  (2009) 
499653

>  <name>  (2009) 
P499653

>  <HIPPO Compound ID>  (2009) 
307672

>  <ref_mols>  (2009) 
A0473a,A1209a

>  <distance_score>  (2009) 
1.884441

>  <inspiration_score>  (2009) 
None

$$$$
P499654
     RDKit          3D

 24 26  0  0  0  0  0  0  0  0999 V2000
    3.5869   13.9409   22.9707 O   0  0  0  0  0  0  0  0  0  0  0  0
    4.2159   13.9332   21.9797 C   0  0  0  0  0  0  0  0  0  0  0  0
    5.6986   14.4302   21.9630 C   0  0  0  0  0  0  0  0  0  0  0  0
    6.6503   14.1955   23.1947 C   0  0  1  0  0  0  0  0  0  0  0  0
    6.0697   14.6209   24.5517 C   0  0  0  0  0  0  0  0  0  0  0  0
    6.0919   13.5368   25.6181 C   0  0  0  0  0  0  0  0  0  0  0  0
    7.4521   12.8911   25.6748 C   0  0  0  0  0  0  0  0  0  0  0  0
    8.0207   12.4517   24.3155 C   0  0  1  0  0  0  0  0  0  0  0  0
    8.2819   10.9160   24.3888 C   0  0  0  0  0  0  0  0  0  0  0  0
    8.9361   10.4284   23.3147 F   0  0  0  0  0  0  0  0  0  0  0  0
    9.0667   10.6733   25.4633 F   0  0  0  0  0  0  0  0  0  0  0  0
    7.1664   10.1825   24.5944 F   0  0  0  0  0  0  0  0  0  0  0  0
    7.2512   12.8775   23.1624 O   0  0  0  0  0  0  0  0  0  0  0  0
    3.8564   13.3808   20.5473 N   0  0  0  0  0  0  0  0  0  0  0  0
    2.6823   12.6406   20.0826 C   0  0  0  0  0  0  0  0  0  0  0  0
    1.5043   13.4508   19.6490 C   0  0  0  0  0  0  0  0  0  0  0  0
    0.6305   14.2313   20.3838 C   0  0  0  0  0  0  0  0  0  0  0  0
    0.7654   14.5091   22.2191 Br  0  0  0  0  0  0  0  0  0  0  0  0
   -0.4167   14.7412   19.6461 N   0  0  0  0  0  0  0  0  0  0  0  0
   -0.2004   14.2705   18.4514 C   0  0  0  0  0  0  0  0  0  0  0  0
    0.9098   13.4760   18.4204 N   0  0  0  0  0  0  0  0  0  0  0  0
    1.0851   12.8600   17.1226 C   0  0  0  0  0  0  0  0  0  0  0  0
   -0.2688   13.1224   16.4233 C   0  0  0  0  0  0  0  0  0  0  0  0
   -0.8811   14.3405   17.1437 C   0  0  0  0  0  0  0  0  0  0  0  0
  1  2  2  0
  2  3  1  0
  4  3  1  6
  4  5  1  0
  5  6  1  0
  6  7  1  0
  7  8  1  0
  8  9  1  1
  9 10  1  0
  9 11  1  0
  9 12  1  0
  8 13  1  0
  2 14  1  0
 14 15  1  0
 15 16  1  0
 16 17  2  0
 17 18  1  0
 17 19  1  0
 19 20  2  0
 20 21  1  0
 21 22  1  0
 22 23  1  0
 23 24  1  0
 13  4  1  0
 21 16  1  0
 24 20  1  0
M  END
>  <energy_score>  (2010) 
-0.302802

>  <inchikey>  (2010) 
None

>  <smiles>  (2010) 
None

>  <ref_pdb>  (2010) 
A1209a

>  <alias>  (2010) 
None

>  <HIPPO Pose ID>  (2010) 
499654

>  <name>  (2010) 
P499654

>  <HIPPO Compound ID>  (2010) 
307680

>  <ref_mols>  (2010) 
A0473a,A1209a

>  <distance_score>  (2010) 
1.883689

>  <inspiration_score>  (2010) 
None

$$$$
P499655
     RDKit          3D

 24 26  0  0  0  0  0  0  0  0999 V2000
    3.8029   15.2412   23.9232 O   0  0  0  0  0  0  0  0  0  0  0  0
    4.1480   14.6784   22.9551 C   0  0  0  0  0  0  0  0  0  0  0  0
    5.6655   14.4662   22.6904 C   0  0  0  0  0  0  0  0  0  0  0  0
    6.5395   13.9939   23.9247 C   0  0  1  0  0  0  0  0  0  0  0  0
    5.7472   13.7666   25.2451 C   0  0  0  0  0  0  0  0  0  0  0  0
    6.1953   12.5860   26.0802 C   0  0  0  0  0  0  0  0  0  0  0  0
    7.6758   12.4400   25.9562 C   0  0  0  0  0  0  0  0  0  0  0  0
    8.1498   12.1946   24.5258 C   0  0  1  0  0  0  0  0  0  0  0  0
    8.3226   10.6603   24.3437 C   0  0  0  0  0  0  0  0  0  0  0  0
    7.1740    9.9766   24.5335 F   0  0  0  0  0  0  0  0  0  0  0  0
    8.8681   10.3147   23.1626 F   0  0  0  0  0  0  0  0  0  0  0  0
    9.1620   10.1952   25.2889 F   0  0  0  0  0  0  0  0  0  0  0  0
    7.3273   12.8295   23.5180 O   0  0  0  0  0  0  0  0  0  0  0  0
    3.3074   14.0237   21.8115 N   0  0  0  0  0  0  0  0  0  0  0  0
    1.8743   13.8476   21.6799 C   0  0  0  0  0  0  0  0  0  0  0  0
    1.2795   14.0145   20.3107 C   0  0  0  0  0  0  0  0  0  0  0  0
    0.1559   14.7454   19.9576 C   0  0  0  0  0  0  0  0  0  0  0  0
   -0.1427   14.4205   18.6533 N   0  0  0  0  0  0  0  0  0  0  0  0
   -1.2286   14.8529   17.9401 N   0  0  0  0  0  0  0  0  0  0  0  0
   -1.2867   14.3233   16.7588 C   0  0  0  0  0  0  0  0  0  0  0  0
   -0.3423   13.3338   16.1913 C   0  0  0  0  0  0  0  0  0  0  0  0
    0.6917   12.9745   16.9630 C   0  0  0  0  0  0  0  0  0  0  0  0
    0.8176   13.5097   18.2620 C   0  0  0  0  0  0  0  0  0  0  0  0
    1.6935   13.2727   19.2243 N   0  0  0  0  0  0  0  0  0  0  0  0
  1  2  2  0
  2  3  1  0
  4  3  1  6
  4  5  1  0
  5  6  1  0
  6  7  1  0
  7  8  1  0
  8  9  1  6
  9 10  1  0
  9 11  1  0
  9 12  1  0
  8 13  1  0
  2 14  1  0
 14 15  1  0
 15 16  1  0
 16 17  2  0
 17 18  1  0
 18 19  1  0
 19 20  2  0
 20 21  1  0
 21 22  2  0
 22 23  1  0
 23 24  2  0
 13  4  1  0
 24 16  1  0
 23 18  1  0
M  END
>  <energy_score>  (2011) 
-5.118435

>  <inchikey>  (2011) 
None

>  <smiles>  (2011) 
None

>  <ref_pdb>  (2011) 
A1209a

>  <alias>  (2011) 
None

>  <HIPPO Pose ID>  (2011) 
499655

>  <name>  (2011) 
P499655

>  <HIPPO Compound ID>  (2011) 
307683

>  <ref_mols>  (2011) 
A0473a,A1209a

>  <distance_score>  (2011) 
1.869743

>  <inspiration_score>  (2011) 
None

$$$$
P499656
     RDKit          3D

 25 27  0  0  0  0  0  0  0  0999 V2000
    3.8958   15.1839   24.0860 O   0  0  0  0  0  0  0  0  0  0  0  0
    4.2709   14.7425   23.0652 C   0  0  0  0  0  0  0  0  0  0  0  0
    5.8027   14.6231   22.8206 C   0  0  0  0  0  0  0  0  0  0  0  0
    6.4432   13.9167   24.0483 C   0  0  2  0  0  0  0  0  0  0  0  0
    7.0853   14.7354   25.1542 C   0  0  0  0  0  0  0  0  0  0  0  0
    7.1691   13.8279   26.4045 C   0  0  0  0  0  0  0  0  0  0  0  0
    7.2249   12.3431   26.0462 C   0  0  0  0  0  0  0  0  0  0  0  0
    7.9926   12.1472   24.7319 C   0  0  1  0  0  0  0  0  0  0  0  0
    8.2008   10.6353   24.5084 C   0  0  0  0  0  0  0  0  0  0  0  0
    8.9600   10.1659   25.5180 F   0  0  0  0  0  0  0  0  0  0  0  0
    8.8501   10.3338   23.3680 F   0  0  0  0  0  0  0  0  0  0  0  0
    7.0556    9.9283   24.5804 F   0  0  0  0  0  0  0  0  0  0  0  0
    7.3818   12.8790   23.6274 O   0  0  0  0  0  0  0  0  0  0  0  0
    3.4654   14.1485   21.8599 N   0  0  0  0  0  0  0  0  0  0  0  0
    2.0423   13.8917   21.7117 C   0  0  0  0  0  0  0  0  0  0  0  0
    1.4208   14.0584   20.3482 C   0  0  0  0  0  0  0  0  0  0  0  0
    0.2757   14.7670   20.0141 C   0  0  0  0  0  0  0  0  0  0  0  0
   -0.0513   14.4250   18.7138 N   0  0  0  0  0  0  0  0  0  0  0  0
   -1.1417   14.7914   17.9204 C   0  0  0  0  0  0  0  0  0  0  0  0
   -2.0474   15.6773   18.3871 F   0  0  0  0  0  0  0  0  0  0  0  0
   -1.2964   14.2371   16.7083 C   0  0  0  0  0  0  0  0  0  0  0  0
   -0.3075   13.2757   16.2509 C   0  0  0  0  0  0  0  0  0  0  0  0
    0.7547   12.9487   17.0158 C   0  0  0  0  0  0  0  0  0  0  0  0
    0.9131   13.5170   18.3114 C   0  0  0  0  0  0  0  0  0  0  0  0
    1.8183   13.3165   19.2553 N   0  0  0  0  0  0  0  0  0  0  0  0
  1  2  2  0
  2  3  1  0
  4  3  1  6
  4  5  1  0
  5  6  1  0
  6  7  1  0
  7  8  1  0
  8  9  1  6
  9 10  1  0
  9 11  1  0
  9 12  1  0
  8 13  1  0
  2 14  1  0
 14 15  1  0
 15 16  1  0
 16 17  2  0
 17 18  1  0
 18 19  1  0
 19 20  1  0
 19 21  2  0
 21 22  1  0
 22 23  2  0
 23 24  1  0
 24 25  2  0
 13  4  1  0
 25 16  1  0
 24 18  1  0
M  END
>  <energy_score>  (2012) 
-0.272147

>  <inchikey>  (2012) 
None

>  <smiles>  (2012) 
None

>  <ref_pdb>  (2012) 
A1209a

>  <alias>  (2012) 
None

>  <HIPPO Pose ID>  (2012) 
499656

>  <name>  (2012) 
P499656

>  <HIPPO Compound ID>  (2012) 
307697

>  <ref_mols>  (2012) 
A0473a,A1209a

>  <distance_score>  (2012) 
1.98015

>  <inspiration_score>  (2012) 
None

$$$$
P499657
     RDKit          3D

 25 27  0  0  0  0  0  0  0  0999 V2000
    4.0494   15.3214   23.7461 O   0  0  0  0  0  0  0  0  0  0  0  0
    4.3344   14.6969   22.7962 C   0  0  0  0  0  0  0  0  0  0  0  0
    5.8270   14.3963   22.5034 C   0  0  0  0  0  0  0  0  0  0  0  0
    6.7119   13.9391   23.7338 C   0  0  1  0  0  0  0  0  0  0  0  0
    5.9633   13.8223   25.0921 C   0  0  0  0  0  0  0  0  0  0  0  0
    6.3761   12.6524   25.9618 C   0  0  0  0  0  0  0  0  0  0  0  0
    7.8416   12.4179   25.7969 C   0  0  0  0  0  0  0  0  0  0  0  0
    8.2620   12.1022   24.3661 C   0  0  1  0  0  0  0  0  0  0  0  0
    8.3897   10.5571   24.2488 C   0  0  0  0  0  0  0  0  0  0  0  0
    7.2260    9.9192   24.4990 F   0  0  0  0  0  0  0  0  0  0  0  0
    9.2401   10.1070   25.1901 F   0  0  0  0  0  0  0  0  0  0  0  0
    8.8955   10.1486   23.0719 F   0  0  0  0  0  0  0  0  0  0  0  0
    7.4161   12.7156   23.3635 O   0  0  0  0  0  0  0  0  0  0  0  0
    3.4247   14.0273   21.7144 N   0  0  0  0  0  0  0  0  0  0  0  0
    1.9802   13.9121   21.6394 C   0  0  0  0  0  0  0  0  0  0  0  0
    1.3453   14.0446   20.2816 C   0  0  0  0  0  0  0  0  0  0  0  0
    0.2233   14.7832   19.9361 C   0  0  0  0  0  0  0  0  0  0  0  0
   -0.1099   14.4332   18.6408 N   0  0  0  0  0  0  0  0  0  0  0  0
   -1.1844   14.8228   17.8372 C   0  0  0  0  0  0  0  0  0  0  0  0
   -2.0697   15.7353   18.2912 F   0  0  0  0  0  0  0  0  0  0  0  0
   -1.3443   14.2654   16.6270 C   0  0  0  0  0  0  0  0  0  0  0  0
   -0.3732   13.2809   16.1801 C   0  0  0  0  0  0  0  0  0  0  0  0
    0.6733   12.9317   16.9562 C   0  0  0  0  0  0  0  0  0  0  0  0
    0.8306   13.4945   18.2528 C   0  0  0  0  0  0  0  0  0  0  0  0
    1.7188   13.2672   19.2058 N   0  0  0  0  0  0  0  0  0  0  0  0
  1  2  2  0
  2  3  1  0
  4  3  1  6
  4  5  1  0
  5  6  1  0
  6  7  1  0
  7  8  1  0
  8  9  1  1
  9 10  1  0
  9 11  1  0
  9 12  1  0
  8 13  1  0
  2 14  1  0
 14 15  1  0
 15 16  1  0
 16 17  2  0
 17 18  1  0
 18 19  1  0
 19 20  1  0
 19 21  2  0
 21 22  1  0
 22 23  2  0
 23 24  1  0
 24 25  2  0
 13  4  1  0
 25 16  1  0
 24 18  1  0
M  END
>  <energy_score>  (2013) 
-2.569894

>  <inchikey>  (2013) 
None

>  <smiles>  (2013) 
None

>  <ref_pdb>  (2013) 
A1209a

>  <alias>  (2013) 
None

>  <HIPPO Pose ID>  (2013) 
499657

>  <name>  (2013) 
P499657

>  <HIPPO Compound ID>  (2013) 
307697

>  <ref_mols>  (2013) 
A0473a,A1209a

>  <distance_score>  (2013) 
1.862847

>  <inspiration_score>  (2013) 
None

$$$$
P499658
     RDKit          3D

 25 27  0  0  0  0  0  0  0  0999 V2000
    3.9101   15.1761   23.6091 O   0  0  0  0  0  0  0  0  0  0  0  0
    4.2383   14.6033   22.6414 C   0  0  0  0  0  0  0  0  0  0  0  0
    5.7535   14.3598   22.3798 C   0  0  0  0  0  0  0  0  0  0  0  0
    6.6712   13.9762   23.6216 C   0  0  1  0  0  0  0  0  0  0  0  0
    5.9567   13.9145   25.0001 C   0  0  0  0  0  0  0  0  0  0  0  0
    6.3833   12.7811   25.9107 C   0  0  0  0  0  0  0  0  0  0  0  0
    7.8449   12.5303   25.7405 C   0  0  0  0  0  0  0  0  0  0  0  0
    8.2486   12.1702   24.3154 C   0  0  1  0  0  0  0  0  0  0  0  0
    8.3792   10.6192   24.2476 C   0  0  0  0  0  0  0  0  0  0  0  0
    9.2207   10.1984   25.2109 F   0  0  0  0  0  0  0  0  0  0  0  0
    7.2146    9.9842   24.5026 F   0  0  0  0  0  0  0  0  0  0  0  0
    8.8962   10.1759   23.0873 F   0  0  0  0  0  0  0  0  0  0  0  0
    7.3941   12.7487   23.2965 O   0  0  0  0  0  0  0  0  0  0  0  0
    3.3780   13.9827   21.4907 N   0  0  0  0  0  0  0  0  0  0  0  0
    1.9354   13.8605   21.3521 C   0  0  0  0  0  0  0  0  0  0  0  0
    1.3258   13.9431   19.9774 C   0  0  0  0  0  0  0  0  0  0  0  0
    0.8468   15.0400   19.2811 C   0  0  0  0  0  0  0  0  0  0  0  0
    0.1044   14.5542   18.2134 N   0  0  0  0  0  0  0  0  0  0  0  0
   -0.6742   15.2160   17.2591 C   0  0  0  0  0  0  0  0  0  0  0  0
   -0.7949   16.5606   17.3012 F   0  0  0  0  0  0  0  0  0  0  0  0
   -1.3124   14.5085   16.3132 C   0  0  0  0  0  0  0  0  0  0  0  0
   -1.1907   13.0601   16.3207 C   0  0  0  0  0  0  0  0  0  0  0  0
   -0.4705   12.4297   17.2689 C   0  0  0  0  0  0  0  0  0  0  0  0
    0.2157   13.1748   18.2710 C   0  0  0  0  0  0  0  0  0  0  0  0
    0.9320   12.7932   19.3126 N   0  0  0  0  0  0  0  0  0  0  0  0
  1  2  2  0
  2  3  1  0
  4  3  1  6
  4  5  1  0
  5  6  1  0
  6  7  1  0
  7  8  1  0
  8  9  1  1
  9 10  1  0
  9 11  1  0
  9 12  1  0
  8 13  1  0
  2 14  1  0
 14 15  1  0
 15 16  1  0
 16 17  2  0
 17 18  1  0
 18 19  1  0
 19 20  1  0
 19 21  2  0
 21 22  1  0
 22 23  2  0
 23 24  1  0
 24 25  2  0
 13  4  1  0
 25 16  1  0
 24 18  1  0
M  END
>  <energy_score>  (2014) 
-6.174319

>  <inchikey>  (2014) 
None

>  <smiles>  (2014) 
None

>  <ref_pdb>  (2014) 
A1209a

>  <alias>  (2014) 
None

>  <HIPPO Pose ID>  (2014) 
499658

>  <name>  (2014) 
P499658

>  <HIPPO Compound ID>  (2014) 
307697

>  <ref_mols>  (2014) 
A0473a,A1209a

>  <distance_score>  (2014) 
1.770728

>  <inspiration_score>  (2014) 
None

$$$$
P499659
     RDKit          3D

 25 27  0  0  0  0  0  0  0  0999 V2000
    4.0758   15.2738   24.0055 O   0  0  0  0  0  0  0  0  0  0  0  0
    4.4420   14.7967   22.9982 C   0  0  0  0  0  0  0  0  0  0  0  0
    5.9649   14.6174   22.7625 C   0  0  0  0  0  0  0  0  0  0  0  0
    6.5595   13.8875   23.9943 C   0  0  2  0  0  0  0  0  0  0  0  0
    7.2287   14.6840   25.1004 C   0  0  0  0  0  0  0  0  0  0  0  0
    7.2577   13.7821   26.3560 C   0  0  0  0  0  0  0  0  0  0  0  0
    7.2780   12.2952   26.0022 C   0  0  0  0  0  0  0  0  0  0  0  0
    8.0470   12.0772   24.6922 C   0  0  1  0  0  0  0  0  0  0  0  0
    8.2276   10.5628   24.4777 C   0  0  0  0  0  0  0  0  0  0  0  0
    8.9861   10.0859   25.4822 F   0  0  0  0  0  0  0  0  0  0  0  0
    7.0697    9.8787   24.5646 F   0  0  0  0  0  0  0  0  0  0  0  0
    8.8613   10.2445   23.3335 F   0  0  0  0  0  0  0  0  0  0  0  0
    7.4490   12.8081   23.5807 O   0  0  0  0  0  0  0  0  0  0  0  0
    3.6250   14.1949   21.8056 N   0  0  0  0  0  0  0  0  0  0  0  0
    2.1940   13.9731   21.6580 C   0  0  0  0  0  0  0  0  0  0  0  0
    1.5910   14.0385   20.2829 C   0  0  0  0  0  0  0  0  0  0  0  0
    0.4262   14.7703   20.0608 N   0  0  0  0  0  0  0  0  0  0  0  0
    0.0149   14.4722   18.8335 C   0  0  0  0  0  0  0  0  0  0  0  0
   -1.1370   14.8701   18.0845 C   0  0  0  0  0  0  0  0  0  0  0  0
   -1.3808   14.3291   16.8758 C   0  0  0  0  0  0  0  0  0  0  0  0
   -0.4815   13.3523   16.2884 C   0  0  0  0  0  0  0  0  0  0  0  0
    0.6232   13.0035   16.9695 C   0  0  0  0  0  0  0  0  0  0  0  0
    0.8711   13.5548   18.2277 N   0  0  0  0  0  0  0  0  0  0  0  0
    1.8804   13.3323   19.1393 C   0  0  0  0  0  0  0  0  0  0  0  0
    3.1501   12.2421   18.8152 Cl  0  0  0  0  0  0  0  0  0  0  0  0
  1  2  2  0
  2  3  1  0
  4  3  1  6
  4  5  1  0
  5  6  1  0
  6  7  1  0
  7  8  1  0
  8  9  1  6
  9 10  1  0
  9 11  1  0
  9 12  1  0
  8 13  1  0
  2 14  1  0
 14 15  1  0
 15 16  1  0
 16 17  1  0
 17 18  2  0
 18 19  1  0
 19 20  2  0
 20 21  1  0
 21 22  2  0
 22 23  1  0
 23 24  1  0
 24 25  1  0
 13  4  1  0
 24 16  2  0
 23 18  1  0
M  END
>  <energy_score>  (2015) 
-9.887248

>  <inchikey>  (2015) 
None

>  <smiles>  (2015) 
None

>  <ref_pdb>  (2015) 
A1209a

>  <alias>  (2015) 
None

>  <HIPPO Pose ID>  (2015) 
499659

>  <name>  (2015) 
P499659

>  <HIPPO Compound ID>  (2015) 
307700

>  <ref_mols>  (2015) 
A0473a,A1209a

>  <distance_score>  (2015) 
1.99457

>  <inspiration_score>  (2015) 
None

$$$$
P499660
     RDKit          3D

 25 27  0  0  0  0  0  0  0  0999 V2000
    1.4996   12.6889   21.9611 C   0  0  0  0  0  0  0  0  0  0  0  0
    1.9670   14.0218   21.3883 C   0  0  1  0  0  0  0  0  0  0  0  0
    3.4176   14.1060   21.5190 N   0  0  0  0  0  0  0  0  0  0  0  0
    4.3012   14.6835   22.6749 C   0  0  0  0  0  0  0  0  0  0  0  0
    3.9939   15.2461   23.6557 O   0  0  0  0  0  0  0  0  0  0  0  0
    5.8008   14.3823   22.4050 C   0  0  0  0  0  0  0  0  0  0  0  0
    6.7000   13.9682   23.6483 C   0  0  1  0  0  0  0  0  0  0  0  0
    5.9675   13.8824   25.0170 C   0  0  0  0  0  0  0  0  0  0  0  0
    6.3918   12.7408   25.9184 C   0  0  0  0  0  0  0  0  0  0  0  0
    7.8543   12.4940   25.7493 C   0  0  0  0  0  0  0  0  0  0  0  0
    8.2622   12.1466   24.3225 C   0  0  1  0  0  0  0  0  0  0  0  0
    8.3884   10.5969   24.2392 C   0  0  0  0  0  0  0  0  0  0  0  0
    8.9005   10.1624   23.0731 F   0  0  0  0  0  0  0  0  0  0  0  0
    7.2260    9.9609   24.4966 F   0  0  0  0  0  0  0  0  0  0  0  0
    9.2361   10.1666   25.1934 F   0  0  0  0  0  0  0  0  0  0  0  0
    7.4153   12.7408   23.3077 O   0  0  0  0  0  0  0  0  0  0  0  0
    1.3748   14.1981   20.0134 C   0  0  0  0  0  0  0  0  0  0  0  0
    0.2725   14.9671   19.6645 C   0  0  0  0  0  0  0  0  0  0  0  0
   -0.1135   14.5625   18.4031 N   0  0  0  0  0  0  0  0  0  0  0  0
   -1.2150   14.9344   17.6270 C   0  0  0  0  0  0  0  0  0  0  0  0
   -1.4319   14.3156   16.4546 C   0  0  0  0  0  0  0  0  0  0  0  0
   -0.4958   13.2903   16.0243 C   0  0  0  0  0  0  0  0  0  0  0  0
    0.5728   12.9612   16.7773 C   0  0  0  0  0  0  0  0  0  0  0  0
    0.7902   13.5828   18.0331 C   0  0  0  0  0  0  0  0  0  0  0  0
    1.7033   13.3732   18.9640 N   0  0  0  0  0  0  0  0  0  0  0  0
  2  1  1  6
  2  3  1  0
  3  4  1  0
  4  5  2  0
  4  6  1  0
  7  6  1  6
  7  8  1  0
  8  9  1  0
  9 10  1  0
 10 11  1  0
 11 12  1  1
 12 13  1  0
 12 14  1  0
 12 15  1  0
 11 16  1  0
  2 17  1  0
 17 18  2  0
 18 19  1  0
 19 20  1  0
 20 21  2  0
 21 22  1  0
 22 23  2  0
 23 24  1  0
 24 25  2  0
 16  7  1  0
 25 17  1  0
 24 19  1  0
M  END
>  <energy_score>  (2016) 
-1.875215

>  <inchikey>  (2016) 
None

>  <smiles>  (2016) 
None

>  <ref_pdb>  (2016) 
A1209a

>  <alias>  (2016) 
None

>  <HIPPO Pose ID>  (2016) 
499660

>  <name>  (2016) 
P499660

>  <HIPPO Compound ID>  (2016) 
307704

>  <ref_mols>  (2016) 
A0473a,A1209a

>  <distance_score>  (2016) 
1.84113

>  <inspiration_score>  (2016) 
None

$$$$
P499661
     RDKit          3D

 25 27  0  0  0  0  0  0  0  0999 V2000
    4.0743   14.7046   23.6410 O   0  0  0  0  0  0  0  0  0  0  0  0
    4.7716   14.5154   22.7170 C   0  0  0  0  0  0  0  0  0  0  0  0
    6.3206   14.6435   22.7466 C   0  0  0  0  0  0  0  0  0  0  0  0
    7.1468   14.0412   23.8968 C   0  0  1  0  0  0  0  0  0  0  0  0
    6.6665   14.3486   25.3190 C   0  0  0  0  0  0  0  0  0  0  0  0
    6.0421   13.1550   26.0201 C   0  0  0  0  0  0  0  0  0  0  0  0
    6.9094   11.9151   25.9296 C   0  0  0  0  0  0  0  0  0  0  0  0
    7.9187   11.9304   24.7680 C   0  0  1  0  0  0  0  0  0  0  0  0
    8.3121   10.4736   24.4708 C   0  0  0  0  0  0  0  0  0  0  0  0
    9.0517   10.0380   25.5013 F   0  0  0  0  0  0  0  0  0  0  0  0
    9.0526   10.3185   23.3578 F   0  0  0  0  0  0  0  0  0  0  0  0
    7.2578    9.6383   24.4279 F   0  0  0  0  0  0  0  0  0  0  0  0
    7.4232   12.6530   23.6294 O   0  0  0  0  0  0  0  0  0  0  0  0
    4.4122   14.2011   21.2164 N   0  0  0  0  0  0  0  0  0  0  0  0
    3.1964   13.9780   20.6201 N   0  0  0  0  0  0  0  0  0  0  0  0
    1.7636   14.2912   21.1119 C   0  0  0  0  0  0  0  0  0  0  0  0
    1.3900   14.7168   22.1328 O   0  0  0  0  0  0  0  0  0  0  0  0
    0.8460   14.0511   19.9773 C   0  0  0  0  0  0  0  0  0  0  0  0
   -0.4371   14.5695   19.8116 C   0  0  0  0  0  0  0  0  0  0  0  0
   -0.8038   14.2148   18.5404 N   0  0  0  0  0  0  0  0  0  0  0  0
   -1.8865   14.3854   17.7013 C   0  0  0  0  0  0  0  0  0  0  0  0
   -1.7079   13.7565   16.5266 C   0  0  0  0  0  0  0  0  0  0  0  0
   -0.1572   12.9265   16.4343 S   0  0  0  0  0  0  0  0  0  0  0  0
    0.2183   13.4797   18.0291 C   0  0  0  0  0  0  0  0  0  0  0  0
    1.2424   13.3613   18.8300 N   0  0  0  0  0  0  0  0  0  0  0  0
  1  2  2  0
  2  3  1  0
  4  3  1  6
  4  5  1  0
  5  6  1  0
  6  7  1  0
  7  8  1  0
  8  9  1  6
  9 10  1  0
  9 11  1  0
  9 12  1  0
  8 13  1  0
  2 14  1  0
 14 15  1  0
 15 16  1  0
 16 17  2  0
 16 18  1  0
 18 19  2  0
 19 20  1  0
 20 21  1  0
 21 22  2  0
 22 23  1  0
 23 24  1  0
 24 25  2  0
 13  4  1  0
 25 18  1  0
 24 20  1  0
M  END
>  <energy_score>  (2017) 
-5.490224

>  <inchikey>  (2017) 
None

>  <smiles>  (2017) 
None

>  <ref_pdb>  (2017) 
A1209a

>  <alias>  (2017) 
None

>  <HIPPO Pose ID>  (2017) 
499661

>  <name>  (2017) 
P499661

>  <HIPPO Compound ID>  (2017) 
307707

>  <ref_mols>  (2017) 
A0473a,A1209a

>  <distance_score>  (2017) 
1.893792

>  <inspiration_score>  (2017) 
None

$$$$
P499662
     RDKit          3D

 25 27  0  0  0  0  0  0  0  0999 V2000
    4.1265   15.2066   23.7813 O   0  0  0  0  0  0  0  0  0  0  0  0
    4.4070   14.6318   22.7990 C   0  0  0  0  0  0  0  0  0  0  0  0
    5.9036   14.3785   22.4487 C   0  0  0  0  0  0  0  0  0  0  0  0
    6.8785   13.8916   23.6002 C   0  0  1  0  0  0  0  0  0  0  0  0
    6.2712   13.7750   25.0212 C   0  0  0  0  0  0  0  0  0  0  0  0
    6.7423   12.5673   25.8182 C   0  0  0  0  0  0  0  0  0  0  0  0
    8.1922   12.3133   25.5322 C   0  0  0  0  0  0  0  0  0  0  0  0
    8.4950   12.0528   24.0694 C   0  0  1  0  0  0  0  0  0  0  0  0
    8.6690   10.5150   23.8851 C   0  0  0  0  0  0  0  0  0  0  0  0
    7.5685    9.8286   24.2686 F   0  0  0  0  0  0  0  0  0  0  0  0
    9.0072   10.1956   22.6263 F   0  0  0  0  0  0  0  0  0  0  0  0
    9.6738   10.0255   24.6286 F   0  0  0  0  0  0  0  0  0  0  0  0
    7.5201   12.6519   23.1748 O   0  0  0  0  0  0  0  0  0  0  0  0
    3.4900   14.0054   21.6937 N   0  0  0  0  0  0  0  0  0  0  0  0
    2.0461   13.8797   21.6286 C   0  0  0  0  0  0  0  0  0  0  0  0
    1.3981   14.0321   20.2782 C   0  0  0  0  0  0  0  0  0  0  0  0
    0.2795   14.7809   19.9468 C   0  0  0  0  0  0  0  0  0  0  0  0
   -0.0708   14.4510   18.6457 N   0  0  0  0  0  0  0  0  0  0  0  0
   -1.1404   14.8637   17.8324 C   0  0  0  0  0  0  0  0  0  0  0  0
   -2.2468   16.0716   18.3803 Cl  0  0  0  0  0  0  0  0  0  0  0  0
   -1.3008   14.2963   16.6235 C   0  0  0  0  0  0  0  0  0  0  0  0
   -0.3515   13.2878   16.1862 C   0  0  0  0  0  0  0  0  0  0  0  0
    0.6889   12.9280   16.9628 C   0  0  0  0  0  0  0  0  0  0  0  0
    0.8569   13.4970   18.2535 C   0  0  0  0  0  0  0  0  0  0  0  0
    1.7535   13.2607   19.1957 N   0  0  0  0  0  0  0  0  0  0  0  0
  1  2  2  0
  2  3  1  0
  4  3  1  6
  4  5  1  0
  5  6  1  0
  6  7  1  0
  7  8  1  0
  8  9  1  1
  9 10  1  0
  9 11  1  0
  9 12  1  0
  8 13  1  0
  2 14  1  0
 14 15  1  0
 15 16  1  0
 16 17  2  0
 17 18  1  0
 18 19  1  0
 19 20  1  0
 19 21  2  0
 21 22  1  0
 22 23  2  0
 23 24  1  0
 24 25  2  0
 13  4  1  0
 25 16  1  0
 24 18  1  0
M  END
>  <energy_score>  (2018) 
-6.242903

>  <inchikey>  (2018) 
None

>  <smiles>  (2018) 
None

>  <ref_pdb>  (2018) 
A1209a

>  <alias>  (2018) 
None

>  <HIPPO Pose ID>  (2018) 
499662

>  <name>  (2018) 
P499662

>  <HIPPO Compound ID>  (2018) 
307709

>  <ref_mols>  (2018) 
A0473a,A1209a

>  <distance_score>  (2018) 
1.943108

>  <inspiration_score>  (2018) 
None

$$$$
P499663
     RDKit          3D

 25 27  0  0  0  0  0  0  0  0999 V2000
    3.9417   14.8127   23.7310 O   0  0  0  0  0  0  0  0  0  0  0  0
    4.2185   14.4377   22.6561 C   0  0  0  0  0  0  0  0  0  0  0  0
    5.7014   14.3638   22.1889 C   0  0  0  0  0  0  0  0  0  0  0  0
    6.8706   14.1534   23.2240 C   0  0  1  0  0  0  0  0  0  0  0  0
    6.6873   14.7229   24.6349 C   0  0  0  0  0  0  0  0  0  0  0  0
    6.1554   13.7009   25.6302 C   0  0  0  0  0  0  0  0  0  0  0  0
    6.9766   12.4315   25.6420 C   0  0  0  0  0  0  0  0  0  0  0  0
    7.9182   12.2758   24.4365 C   0  0  1  0  0  0  0  0  0  0  0  0
    8.3393   10.7828   24.4101 C   0  0  0  0  0  0  0  0  0  0  0  0
    9.0252   10.5391   25.5483 F   0  0  0  0  0  0  0  0  0  0  0  0
    9.1423   10.4584   23.3790 F   0  0  0  0  0  0  0  0  0  0  0  0
    7.2986    9.9249   24.4426 F   0  0  0  0  0  0  0  0  0  0  0  0
    7.3490   12.7816   23.2034 O   0  0  0  0  0  0  0  0  0  0  0  0
    3.2952   14.0287   21.4537 N   0  0  0  0  0  0  0  0  0  0  0  0
    1.8501   13.9107   21.3738 C   0  0  0  0  0  0  0  0  0  0  0  0
    1.2111   13.9856   20.0114 C   0  0  0  0  0  0  0  0  0  0  0  0
    0.5586   15.0379   19.3902 C   0  0  0  0  0  0  0  0  0  0  0  0
   -0.1193   14.5218   18.2887 N   0  0  0  0  0  0  0  0  0  0  0  0
   -1.0296   15.0982   17.3777 C   0  0  0  0  0  0  0  0  0  0  0  0
   -1.6043   16.8602   17.6020 Br  0  0  0  0  0  0  0  0  0  0  0  0
   -1.5435   14.3298   16.3970 C   0  0  0  0  0  0  0  0  0  0  0  0
   -1.1908   12.9247   16.3318 C   0  0  0  0  0  0  0  0  0  0  0  0
   -0.3755   12.3781   17.2500 C   0  0  0  0  0  0  0  0  0  0  0  0
    0.2135   13.1752   18.2660 C   0  0  0  0  0  0  0  0  0  0  0  0
    1.0028   12.8431   19.2695 N   0  0  0  0  0  0  0  0  0  0  0  0
  1  2  2  0
  2  3  1  0
  4  3  1  1
  4  5  1  0
  5  6  1  0
  6  7  1  0
  7  8  1  0
  8  9  1  6
  9 10  1  0
  9 11  1  0
  9 12  1  0
  8 13  1  0
  2 14  1  0
 14 15  1  0
 15 16  1  0
 16 17  2  0
 17 18  1  0
 18 19  1  0
 19 20  1  0
 19 21  2  0
 21 22  1  0
 22 23  2  0
 23 24  1  0
 24 25  2  0
 13  4  1  0
 25 16  1  0
 24 18  1  0
M  END
>  <energy_score>  (2019) 
-1.91791

>  <inchikey>  (2019) 
None

>  <smiles>  (2019) 
None

>  <ref_pdb>  (2019) 
A1209a

>  <alias>  (2019) 
None

>  <HIPPO Pose ID>  (2019) 
499663

>  <name>  (2019) 
P499663

>  <HIPPO Compound ID>  (2019) 
307711

>  <ref_mols>  (2019) 
A0473a,A1209a

>  <distance_score>  (2019) 
1.874827

>  <inspiration_score>  (2019) 
None

$$$$
P499664
     RDKit          3D

 25 27  0  0  0  0  0  0  0  0999 V2000
    1.2997   14.1151   22.3105 C   0  0  0  0  0  0  0  0  0  0  0  0
    2.1299   13.4679   21.2108 C   0  0  2  0  0  0  0  0  0  0  0  0
    3.5424   13.8201   21.3360 N   0  0  0  0  0  0  0  0  0  0  0  0
    4.3515   14.3687   22.5685 C   0  0  0  0  0  0  0  0  0  0  0  0
    3.9845   14.6895   23.6352 O   0  0  0  0  0  0  0  0  0  0  0  0
    5.8562   14.4266   22.1920 C   0  0  0  0  0  0  0  0  0  0  0  0
    6.9487   14.1354   23.2820 C   0  0  1  0  0  0  0  0  0  0  0  0
    6.6949   14.6697   24.6977 C   0  0  0  0  0  0  0  0  0  0  0  0
    6.1406   13.6258   25.6561 C   0  0  0  0  0  0  0  0  0  0  0  0
    6.9702   12.3615   25.6668 C   0  0  0  0  0  0  0  0  0  0  0  0
    7.9267   12.2211   24.4705 C   0  0  1  0  0  0  0  0  0  0  0  0
    8.3403   10.7292   24.4203 C   0  0  0  0  0  0  0  0  0  0  0  0
    9.0205   10.4647   25.5562 F   0  0  0  0  0  0  0  0  0  0  0  0
    7.2962    9.8761   24.4373 F   0  0  0  0  0  0  0  0  0  0  0  0
    9.1458   10.4183   23.3871 F   0  0  0  0  0  0  0  0  0  0  0  0
    7.3725   12.7491   23.2421 O   0  0  0  0  0  0  0  0  0  0  0  0
    1.4850   13.6827   19.8509 C   0  0  0  0  0  0  0  0  0  0  0  0
    0.9604   14.8150   19.2510 C   0  0  0  0  0  0  0  0  0  0  0  0
    0.2137   14.3782   18.1669 N   0  0  0  0  0  0  0  0  0  0  0  0
   -0.5951   15.0720   17.2713 C   0  0  0  0  0  0  0  0  0  0  0  0
   -1.2218   14.4071   16.2923 C   0  0  0  0  0  0  0  0  0  0  0  0
   -0.9871   12.9378   16.2873 C   0  0  0  0  0  0  0  0  0  0  0  0
   -0.2683   12.2698   17.1362 N   0  0  0  0  0  0  0  0  0  0  0  0
    0.3571   12.9994   18.1065 C   0  0  0  0  0  0  0  0  0  0  0  0
    1.1108   12.5797   19.1041 N   0  0  0  0  0  0  0  0  0  0  0  0
  2  1  1  1
  2  3  1  0
  3  4  1  0
  4  5  2  0
  4  6  1  0
  7  6  1  6
  7  8  1  0
  8  9  1  0
  9 10  1  0
 10 11  1  0
 11 12  1  6
 12 13  1  0
 12 14  1  0
 12 15  1  0
 11 16  1  0
  2 17  1  0
 17 18  2  0
 18 19  1  0
 19 20  1  0
 20 21  2  0
 21 22  1  0
 22 23  2  0
 23 24  1  0
 24 25  2  0
 16  7  1  0
 25 17  1  0
 24 19  1  0
M  END
>  <energy_score>  (2020) 
-10.679749

>  <inchikey>  (2020) 
None

>  <smiles>  (2020) 
None

>  <ref_pdb>  (2020) 
A1209a

>  <alias>  (2020) 
None

>  <HIPPO Pose ID>  (2020) 
499664

>  <name>  (2020) 
P499664

>  <HIPPO Compound ID>  (2020) 
307712

>  <ref_mols>  (2020) 
A0473a,A1209a

>  <distance_score>  (2020) 
1.899279

>  <inspiration_score>  (2020) 
None

$$$$
P499665
     RDKit          3D

 26 28  0  0  0  0  0  0  0  0999 V2000
    1.3933   14.2157   22.6295 C   0  0  0  0  0  0  0  0  0  0  0  0
    2.1419   13.6335   21.4401 C   0  0  2  0  0  0  0  0  0  0  0  0
    3.5662   13.9403   21.5142 N   0  0  0  0  0  0  0  0  0  0  0  0
    4.4371   14.4502   22.7177 C   0  0  0  0  0  0  0  0  0  0  0  0
    4.1215   14.7709   23.8001 O   0  0  0  0  0  0  0  0  0  0  0  0
    5.9266   14.4559   22.2858 C   0  0  0  0  0  0  0  0  0  0  0  0
    7.0339   14.1116   23.3443 C   0  0  1  0  0  0  0  0  0  0  0  0
    6.8296   14.6232   24.7772 C   0  0  0  0  0  0  0  0  0  0  0  0
    6.2449   13.5804   25.7206 C   0  0  0  0  0  0  0  0  0  0  0  0
    7.0128   12.2786   25.6824 C   0  0  0  0  0  0  0  0  0  0  0  0
    7.9656   12.1489   24.4837 C   0  0  1  0  0  0  0  0  0  0  0  0
    8.3522   10.6539   24.3983 C   0  0  0  0  0  0  0  0  0  0  0  0
    9.1323   10.3480   23.3446 F   0  0  0  0  0  0  0  0  0  0  0  0
    7.2923    9.8205   24.4197 F   0  0  0  0  0  0  0  0  0  0  0  0
    9.0461   10.3523   25.5139 F   0  0  0  0  0  0  0  0  0  0  0  0
    7.4084   12.7117   23.2726 O   0  0  0  0  0  0  0  0  0  0  0  0
    1.4757   13.9504   20.1088 C   0  0  0  0  0  0  0  0  0  0  0  0
    0.4192   14.8009   19.8137 C   0  0  0  0  0  0  0  0  0  0  0  0
   -0.0060   14.5125   18.5230 N   0  0  0  0  0  0  0  0  0  0  0  0
   -1.0797   15.0019   17.7508 C   0  0  0  0  0  0  0  0  0  0  0  0
   -2.1498   16.3897   18.4014 Br  0  0  0  0  0  0  0  0  0  0  0  0
   -1.3173   14.4449   16.5470 C   0  0  0  0  0  0  0  0  0  0  0  0
   -0.4508   13.3824   16.0697 C   0  0  0  0  0  0  0  0  0  0  0  0
    0.5917   12.9585   16.8069 C   0  0  0  0  0  0  0  0  0  0  0  0
    0.8372   13.5009   18.0922 C   0  0  0  0  0  0  0  0  0  0  0  0
    1.7425   13.1835   18.9979 N   0  0  0  0  0  0  0  0  0  0  0  0
  2  1  1  1
  2  3  1  0
  3  4  1  0
  4  5  2  0
  4  6  1  0
  7  6  1  6
  7  8  1  0
  8  9  1  0
  9 10  1  0
 10 11  1  0
 11 12  1  6
 12 13  1  0
 12 14  1  0
 12 15  1  0
 11 16  1  0
  2 17  1  0
 17 18  2  0
 18 19  1  0
 19 20  1  0
 20 21  1  0
 20 22  2  0
 22 23  1  0
 23 24  2  0
 24 25  1  0
 25 26  2  0
 16  7  1  0
 26 17  1  0
 25 19  1  0
M  END
>  <energy_score>  (2021) 
-2.586004

>  <inchikey>  (2021) 
None

>  <smiles>  (2021) 
None

>  <ref_pdb>  (2021) 
A1209a

>  <alias>  (2021) 
None

>  <HIPPO Pose ID>  (2021) 
499665

>  <name>  (2021) 
P499665

>  <HIPPO Compound ID>  (2021) 
307723

>  <ref_mols>  (2021) 
A0473a,A1209a

>  <distance_score>  (2021) 
1.95616

>  <inspiration_score>  (2021) 
None

$$$$
P499666
     RDKit          3D

 26 28  0  0  0  0  0  0  0  0999 V2000
    1.6287   14.0407   22.6403 C   0  0  0  0  0  0  0  0  0  0  0  0
    2.3595   13.5180   21.4125 C   0  0  2  0  0  0  0  0  0  0  0  0
    3.7906   13.8026   21.4865 N   0  0  0  0  0  0  0  0  0  0  0  0
    4.6063   14.6411   22.5246 C   0  0  0  0  0  0  0  0  0  0  0  0
    4.2417   15.2913   23.4289 O   0  0  0  0  0  0  0  0  0  0  0  0
    6.1233   14.4423   22.3048 C   0  0  0  0  0  0  0  0  0  0  0  0
    6.9556   13.9286   23.5426 C   0  0  1  0  0  0  0  0  0  0  0  0
    6.2298   13.9407   24.9131 C   0  0  0  0  0  0  0  0  0  0  0  0
    6.5812   12.7853   25.8334 C   0  0  0  0  0  0  0  0  0  0  0  0
    8.0176   12.4147   25.6441 C   0  0  0  0  0  0  0  0  0  0  0  0
    8.3785   12.0217   24.2177 C   0  0  1  0  0  0  0  0  0  0  0  0
    8.4501   10.4697   24.1666 C   0  0  0  0  0  0  0  0  0  0  0  0
    8.9077    9.9941   22.9954 F   0  0  0  0  0  0  0  0  0  0  0  0
    7.2726    9.8853   24.4763 F   0  0  0  0  0  0  0  0  0  0  0  0
    9.3136   10.0275   25.0990 F   0  0  0  0  0  0  0  0  0  0  0  0
    7.5123   12.6247   23.2248 O   0  0  0  0  0  0  0  0  0  0  0  0
    1.6484   13.8718   20.1135 C   0  0  0  0  0  0  0  0  0  0  0  0
    0.5521   14.6956   19.8930 C   0  0  0  0  0  0  0  0  0  0  0  0
    0.0882   14.4467   18.6068 N   0  0  0  0  0  0  0  0  0  0  0  0
   -1.0252   14.9356   17.8921 C   0  0  0  0  0  0  0  0  0  0  0  0
   -2.1021   16.2726   18.6315 Br  0  0  0  0  0  0  0  0  0  0  0  0
   -1.2961   14.4143   16.6793 C   0  0  0  0  0  0  0  0  0  0  0  0
   -0.4275   13.3863   16.1347 C   0  0  0  0  0  0  0  0  0  0  0  0
    0.6510   12.9624   16.8181 C   0  0  0  0  0  0  0  0  0  0  0  0
    0.9376   13.4723   18.1085 C   0  0  0  0  0  0  0  0  0  0  0  0
    1.8869   13.1498   18.9660 N   0  0  0  0  0  0  0  0  0  0  0  0
  2  1  1  1
  2  3  1  0
  3  4  1  0
  4  5  2  0
  4  6  1  0
  7  6  1  6
  7  8  1  0
  8  9  1  0
  9 10  1  0
 10 11  1  0
 11 12  1  1
 12 13  1  0
 12 14  1  0
 12 15  1  0
 11 16  1  0
  2 17  1  0
 17 18  2  0
 18 19  1  0
 19 20  1  0
 20 21  1  0
 20 22  2  0
 22 23  1  0
 23 24  2  0
 24 25  1  0
 25 26  2  0
 16  7  1  0
 26 17  1  0
 25 19  1  0
M  END
>  <energy_score>  (2022) 
-6.384851

>  <inchikey>  (2022) 
None

>  <smiles>  (2022) 
None

>  <ref_pdb>  (2022) 
A1209a

>  <alias>  (2022) 
None

>  <HIPPO Pose ID>  (2022) 
499666

>  <name>  (2022) 
P499666

>  <HIPPO Compound ID>  (2022) 
307723

>  <ref_mols>  (2022) 
A0473a,A1209a

>  <distance_score>  (2022) 
1.923996

>  <inspiration_score>  (2022) 
None

$$$$
P499667
     RDKit          3D

 26 28  0  0  0  0  0  0  0  0999 V2000
    2.6102   15.2856   24.6623 O   0  0  0  0  0  0  0  0  0  0  0  0
    3.5000   14.7541   24.1155 C   0  0  0  0  0  0  0  0  0  0  0  0
    4.9271   14.7855   24.6889 C   0  0  0  0  0  0  0  0  0  0  0  0
    5.3174   13.5327   25.4720 C   0  0  2  0  0  0  0  0  0  0  0  0
    5.1864   13.6681   26.9764 C   0  0  0  0  0  0  0  0  0  0  0  0
    5.4070   12.2695   27.5345 C   0  0  0  0  0  0  0  0  0  0  0  0
    6.8000   11.7927   27.1945 C   0  0  0  0  0  0  0  0  0  0  0  0
    7.3284   12.1068   25.7828 C   0  0  1  0  0  0  0  0  0  0  0  0
    7.6603   10.7920   25.0236 C   0  0  0  0  0  0  0  0  0  0  0  0
    6.6024    9.9650   24.9208 F   0  0  0  0  0  0  0  0  0  0  0  0
    8.5768   10.1076   25.7460 F   0  0  0  0  0  0  0  0  0  0  0  0
    8.2171   10.9704   23.8090 F   0  0  0  0  0  0  0  0  0  0  0  0
    6.6583   13.1746   25.0935 O   0  0  0  0  0  0  0  0  0  0  0  0
    3.5486   14.0235   22.7309 N   0  0  0  0  0  0  0  0  0  0  0  0
    2.5851   13.8933   21.7546 N   0  0  0  0  0  0  0  0  0  0  0  0
    1.1167   14.3811   21.7203 C   0  0  0  0  0  0  0  0  0  0  0  0
    0.4724   14.9010   22.5440 O   0  0  0  0  0  0  0  0  0  0  0  0
    0.5595   14.1806   20.3607 C   0  0  0  0  0  0  0  0  0  0  0  0
   -0.6397   14.6900   19.8946 C   0  0  0  0  0  0  0  0  0  0  0  0
   -0.7603   14.2896   18.5839 N   0  0  0  0  0  0  0  0  0  0  0  0
   -1.7898   14.5093   17.6664 C   0  0  0  0  0  0  0  0  0  0  0  0
   -1.7051   13.9667   16.4414 C   0  0  0  0  0  0  0  0  0  0  0  0
   -0.5323   13.1772   16.1087 C   0  0  0  0  0  0  0  0  0  0  0  0
    0.4642   12.9841   16.9971 C   0  0  0  0  0  0  0  0  0  0  0  0
    0.3763   13.5419   18.3042 C   0  0  0  0  0  0  0  0  0  0  0  0
    1.1936   13.4852   19.3440 N   0  0  0  0  0  0  0  0  0  0  0  0
  1  2  2  0
  2  3  1  0
  4  3  1  6
  4  5  1  0
  5  6  1  0
  6  7  1  0
  7  8  1  0
  8  9  1  6
  9 10  1  0
  9 11  1  0
  9 12  1  0
  8 13  1  0
  2 14  1  0
 14 15  1  0
 15 16  1  0
 16 17  2  0
 16 18  1  0
 18 19  2  0
 19 20  1  0
 20 21  1  0
 21 22  2  0
 22 23  1  0
 23 24  2  0
 24 25  1  0
 25 26  2  0
 13  4  1  0
 26 18  1  0
 25 20  1  0
M  END
>  <energy_score>  (2023) 
-6.402125

>  <inchikey>  (2023) 
None

>  <smiles>  (2023) 
None

>  <ref_pdb>  (2023) 
A1209a

>  <alias>  (2023) 
None

>  <HIPPO Pose ID>  (2023) 
499667

>  <name>  (2023) 
P499667

>  <HIPPO Compound ID>  (2023) 
307728

>  <ref_mols>  (2023) 
A0473a,A1209a

>  <distance_score>  (2023) 
1.843331

>  <inspiration_score>  (2023) 
None

$$$$
P499668
     RDKit          3D

 30 33  0  0  0  0  0  0  0  0999 V2000
    5.5084   10.6068   27.0143 C   0  0  0  0  0  0  0  0  0  0  0  0
    6.4900   11.2995   26.2206 N   0  0  0  0  0  0  0  0  0  0  0  0
    7.4531   10.6681   25.4772 C   0  0  0  0  0  0  0  0  0  0  0  0
    8.2589   11.5279   24.9066 N   0  0  0  0  0  0  0  0  0  0  0  0
    7.7750   12.7568   25.2607 C   0  0  0  0  0  0  0  0  0  0  0  0
    6.6744   12.6649   26.0975 C   0  0  0  0  0  0  0  0  0  0  0  0
    5.8832   13.8078   26.7571 C   0  0  1  0  0  0  0  0  0  0  0  0
    4.6214   14.1940   25.9020 C   0  0  2  0  0  0  0  0  0  0  0  0
    4.9450   14.9170   24.5606 C   0  0  0  0  0  0  0  0  0  0  0  0
    4.4396   14.1371   23.4617 N   0  0  0  0  0  0  0  0  0  0  0  0
    4.1699   14.5264   22.0083 C   0  0  0  0  0  0  0  0  0  0  0  0
    4.2386   15.5550   21.4821 O   0  0  0  0  0  0  0  0  0  0  0  0
    3.7942   13.2645   21.2369 C   0  0  0  0  0  0  0  0  0  0  0  0
    3.3938   13.5813   19.7951 C   0  0  2  0  0  0  0  0  0  0  0  0
    1.9212   13.9682   19.6304 C   0  0  0  0  0  0  0  0  0  0  0  0
    1.2163   13.1517   18.5705 C   0  0  0  0  0  0  0  0  0  0  0  0
    1.5448   11.7018   18.8196 C   0  0  0  0  0  0  0  0  0  0  0  0
    3.0384   11.4540   18.6704 C   0  0  2  0  0  0  0  0  0  0  0  0
    3.4697   10.2449   19.4645 C   0  0  0  0  0  0  0  0  0  0  0  0
    4.8033   10.0742   19.4296 F   0  0  0  0  0  0  0  0  0  0  0  0
    3.0954   10.3692   20.7540 F   0  0  0  0  0  0  0  0  0  0  0  0
    2.9343    9.1156   18.9733 F   0  0  0  0  0  0  0  0  0  0  0  0
    3.8615   12.5889   18.9004 O   0  0  0  0  0  0  0  0  0  0  0  0
    3.6348   15.0866   26.6624 C   0  0  0  0  0  0  0  0  0  0  0  0
    3.3204   14.4878   28.0127 C   0  0  0  0  0  0  0  0  0  0  0  0
    4.6034   14.3559   28.8118 C   0  0  0  0  0  0  0  0  0  0  0  0
    5.5910   13.4646   28.1880 N   0  0  0  0  0  0  0  0  0  0  0  0
    6.8389   13.3556   29.0075 C   0  0  0  0  0  0  0  0  0  0  0  0
    6.9767   13.8208   30.4367 C   0  0  0  0  0  0  0  0  0  0  0  0
    6.8388   12.3606   30.1443 C   0  0  0  0  0  0  0  0  0  0  0  0
  1  2  1  0
  2  3  1  0
  3  4  2  0
  4  5  1  0
  5  6  2  0
  7  6  1  6
  7  8  1  0
  8  9  1  6
  9 10  1  0
 10 11  1  0
 11 12  2  0
 11 13  1  0
 14 13  1  1
 14 15  1  0
 15 16  1  0
 16 17  1  0
 17 18  1  0
 18 19  1  1
 19 20  1  0
 19 21  1  0
 19 22  1  0
 18 23  1  0
  8 24  1  0
 24 25  1  0
 25 26  1  0
 26 27  1  0
 27 28  1  0
 28 29  1  0
 29 30  1  0
  6  2  1  0
 27  7  1  0
 30 28  1  0
 23 14  1  0
M  END
>  <energy_score>  (2024) 
-28.899292

>  <inchikey>  (2024) 
None

>  <smiles>  (2024) 
None

>  <ref_pdb>  (2024) 
A1209a

>  <alias>  (2024) 
None

>  <HIPPO Pose ID>  (2024) 
499668

>  <name>  (2024) 
P499668

>  <HIPPO Compound ID>  (2024) 
307755

>  <ref_mols>  (2024) 
A0473a,A1209a

>  <distance_score>  (2024) 
1.971338

>  <inspiration_score>  (2024) 
None

$$$$
P499669
     RDKit          3D

 30 33  0  0  0  0  0  0  0  0999 V2000
    5.7428    9.8898   26.5361 C   0  0  0  0  0  0  0  0  0  0  0  0
    6.7557   10.6778   25.8913 N   0  0  0  0  0  0  0  0  0  0  0  0
    7.8503   10.1583   25.2603 C   0  0  0  0  0  0  0  0  0  0  0  0
    8.6630   11.1021   24.8584 N   0  0  0  0  0  0  0  0  0  0  0  0
    8.0087   12.2681   25.1309 C   0  0  0  0  0  0  0  0  0  0  0  0
    6.7978   12.0501   25.7648 C   0  0  0  0  0  0  0  0  0  0  0  0
    5.6664   13.0133   26.1300 C   0  0  2  0  0  0  0  0  0  0  0  0
    5.7310   14.3417   25.2975 C   0  0  1  0  0  0  0  0  0  0  0  0
    4.3435   14.9759   25.0297 C   0  0  0  0  0  0  0  0  0  0  0  0
    3.6721   14.4754   23.8432 N   0  0  0  0  0  0  0  0  0  0  0  0
    4.1366   14.4403   22.3609 C   0  0  0  0  0  0  0  0  0  0  0  0
    5.0945   14.8770   21.8592 O   0  0  0  0  0  0  0  0  0  0  0  0
    3.0050   13.7767   21.5511 C   0  0  0  0  0  0  0  0  0  0  0  0
    3.3776   13.6413   20.0558 C   0  0  2  0  0  0  0  0  0  0  0  0
    2.2537   14.0038   19.0862 C   0  0  0  0  0  0  0  0  0  0  0  0
    1.1134   13.0193   19.1138 C   0  0  0  0  0  0  0  0  0  0  0  0
    1.6261   11.6061   19.2491 C   0  0  0  0  0  0  0  0  0  0  0  0
    3.1294   11.4538   19.0354 C   0  0  2  0  0  0  0  0  0  0  0  0
    3.5065   10.0566   19.4584 C   0  0  0  0  0  0  0  0  0  0  0  0
    4.8280    9.8321   19.3472 F   0  0  0  0  0  0  0  0  0  0  0  0
    2.8925    9.0987   18.7540 F   0  0  0  0  0  0  0  0  0  0  0  0
    3.1432    9.9055   20.7470 F   0  0  0  0  0  0  0  0  0  0  0  0
    3.9126   12.3459   19.8321 O   0  0  0  0  0  0  0  0  0  0  0  0
    6.6847   15.3717   25.9349 C   0  0  0  0  0  0  0  0  0  0  0  0
    6.5184   15.4892   27.4399 C   0  0  0  0  0  0  0  0  0  0  0  0
    6.6121   14.1173   28.1013 C   0  0  0  0  0  0  0  0  0  0  0  0
    5.6069   13.1657   27.6075 N   0  0  0  0  0  0  0  0  0  0  0  0
    4.2662   13.4640   28.1538 C   0  0  0  0  0  0  0  0  0  0  0  0
    3.9363   12.9745   29.5411 C   0  0  0  0  0  0  0  0  0  0  0  0
    3.2420   12.3815   28.3538 C   0  0  0  0  0  0  0  0  0  0  0  0
  1  2  1  0
  2  3  1  0
  3  4  2  0
  4  5  1  0
  5  6  2  0
  7  6  1  1
  7  8  1  0
  8  9  1  1
  9 10  1  0
 10 11  1  0
 11 12  2  0
 11 13  1  0
 14 13  1  1
 14 15  1  0
 15 16  1  0
 16 17  1  0
 17 18  1  0
 18 19  1  1
 19 20  1  0
 19 21  1  0
 19 22  1  0
 18 23  1  0
  8 24  1  0
 24 25  1  0
 25 26  1  0
 26 27  1  0
 27 28  1  0
 28 29  1  0
 29 30  1  0
  6  2  1  0
 27  7  1  0
 30 28  1  0
 23 14  1  0
M  END
>  <energy_score>  (2025) 
-29.134542

>  <inchikey>  (2025) 
None

>  <smiles>  (2025) 
None

>  <ref_pdb>  (2025) 
A1209a

>  <alias>  (2025) 
None

>  <HIPPO Pose ID>  (2025) 
499669

>  <name>  (2025) 
P499669

>  <HIPPO Compound ID>  (2025) 
307755

>  <ref_mols>  (2025) 
A0473a,A1209a

>  <distance_score>  (2025) 
1.621281

>  <inspiration_score>  (2025) 
None

$$$$
P499670
     RDKit          3D

 30 33  0  0  0  0  0  0  0  0999 V2000
    8.6350   12.6977   24.1335 C   0  0  0  0  0  0  0  0  0  0  0  0
    7.9182   11.7741   24.9757 N   0  0  0  0  0  0  0  0  0  0  0  0
    8.1652   10.4232   24.9339 C   0  0  0  0  0  0  0  0  0  0  0  0
    7.3905    9.7600   25.7530 N   0  0  0  0  0  0  0  0  0  0  0  0
    6.5879   10.7085   26.3140 C   0  0  0  0  0  0  0  0  0  0  0  0
    6.8838   11.9952   25.8686 C   0  0  0  0  0  0  0  0  0  0  0  0
    6.0577   13.2511   26.1922 C   0  0  2  0  0  0  0  0  0  0  0  0
    6.5632   14.6548   25.7355 C   0  0  1  0  0  0  0  0  0  0  0  0
    5.4959   15.4508   24.9550 C   0  0  0  0  0  0  0  0  0  0  0  0
    5.2912   14.9664   23.6161 N   0  0  0  0  0  0  0  0  0  0  0  0
    4.0055   14.4311   22.9213 C   0  0  0  0  0  0  0  0  0  0  0  0
    2.9055   14.3753   23.3071 O   0  0  0  0  0  0  0  0  0  0  0  0
    4.4646   14.0254   21.5118 C   0  0  0  0  0  0  0  0  0  0  0  0
    3.4744   13.3883   20.5175 C   0  0  2  0  0  0  0  0  0  0  0  0
    2.2137   12.7880   21.1325 C   0  0  0  0  0  0  0  0  0  0  0  0
    1.3774   11.9828   20.1579 C   0  0  0  0  0  0  0  0  0  0  0  0
    2.2680   11.0188   19.4080 C   0  0  0  0  0  0  0  0  0  0  0  0
    3.4203   11.7396   18.7392 C   0  0  1  0  0  0  0  0  0  0  0  0
    2.9639   12.6419   17.5798 C   0  0  0  0  0  0  0  0  0  0  0  0
    2.1318   11.9855   16.7449 F   0  0  0  0  0  0  0  0  0  0  0  0
    4.0242   13.0448   16.8556 F   0  0  0  0  0  0  0  0  0  0  0  0
    2.3025   13.7409   17.9958 F   0  0  0  0  0  0  0  0  0  0  0  0
    4.2033   12.4019   19.7571 O   0  0  0  0  0  0  0  0  0  0  0  0
    7.0445   15.5391   26.9050 C   0  0  0  0  0  0  0  0  0  0  0  0
    7.7316   14.7008   27.9591 C   0  0  0  0  0  0  0  0  0  0  0  0
    6.7840   13.6503   28.5331 C   0  0  0  0  0  0  0  0  0  0  0  0
    5.7096   13.2150   27.6372 N   0  0  0  0  0  0  0  0  0  0  0  0
    4.3986   13.8065   27.9574 C   0  0  0  0  0  0  0  0  0  0  0  0
    3.1555   12.9884   27.7381 C   0  0  0  0  0  0  0  0  0  0  0  0
    3.6212   13.2742   29.1329 C   0  0  0  0  0  0  0  0  0  0  0  0
  1  2  1  0
  2  3  1  0
  3  4  2  0
  4  5  1  0
  5  6  2  0
  7  6  1  1
  7  8  1  0
  8  9  1  1
  9 10  1  0
 10 11  1  0
 11 12  2  0
 11 13  1  0
 14 13  1  1
 14 15  1  0
 15 16  1  0
 16 17  1  0
 17 18  1  0
 18 19  1  6
 19 20  1  0
 19 21  1  0
 19 22  1  0
 18 23  1  0
  8 24  1  0
 24 25  1  0
 25 26  1  0
 26 27  1  0
 27 28  1  0
 28 29  1  0
 29 30  1  0
  6  2  1  0
 27  7  1  0
 30 28  1  0
 23 14  1  0
M  END
>  <energy_score>  (2026) 
-33.19591

>  <inchikey>  (2026) 
None

>  <smiles>  (2026) 
None

>  <ref_pdb>  (2026) 
A1209a

>  <alias>  (2026) 
None

>  <HIPPO Pose ID>  (2026) 
499670

>  <name>  (2026) 
P499670

>  <HIPPO Compound ID>  (2026) 
307755

>  <ref_mols>  (2026) 
A0473a,A1209a

>  <distance_score>  (2026) 
1.656741

>  <inspiration_score>  (2026) 
None

$$$$
P499671
     RDKit          3D

 30 33  0  0  0  0  0  0  0  0999 V2000
    5.4525    9.9642   26.8648 C   0  0  0  0  0  0  0  0  0  0  0  0
    6.5094   10.7463   26.2819 N   0  0  0  0  0  0  0  0  0  0  0  0
    7.4869   10.2246   25.4755 C   0  0  0  0  0  0  0  0  0  0  0  0
    8.3313   11.1440   25.0828 N   0  0  0  0  0  0  0  0  0  0  0  0
    7.8431   12.3082   25.5953 C   0  0  0  0  0  0  0  0  0  0  0  0
    6.7322   12.1021   26.3980 C   0  0  0  0  0  0  0  0  0  0  0  0
    5.9080   13.1613   27.1237 C   0  0  1  0  0  0  0  0  0  0  0  0
    4.7148   13.5843   26.2041 C   0  0  2  0  0  0  0  0  0  0  0  0
    5.1403   14.6513   25.1639 C   0  0  0  0  0  0  0  0  0  0  0  0
    4.3239   14.5371   23.9802 N   0  0  0  0  0  0  0  0  0  0  0  0
    4.7289   14.4192   22.4804 C   0  0  0  0  0  0  0  0  0  0  0  0
    5.7797   14.4748   21.9742 O   0  0  0  0  0  0  0  0  0  0  0  0
    3.4277   14.0930   21.7408 C   0  0  0  0  0  0  0  0  0  0  0  0
    3.6666   13.4580   20.3596 C   0  0  2  0  0  0  0  0  0  0  0  0
    2.5362   13.7960   19.3786 C   0  0  0  0  0  0  0  0  0  0  0  0
    1.2522   13.0229   19.6200 C   0  0  0  0  0  0  0  0  0  0  0  0
    1.4783   11.8294   20.5206 C   0  0  0  0  0  0  0  0  0  0  0  0
    2.8288   11.1715   20.2705 C   0  0  1  0  0  0  0  0  0  0  0  0
    2.9717   10.5813   18.8780 C   0  0  0  0  0  0  0  0  0  0  0  0
    3.9665    9.6642   18.8513 F   0  0  0  0  0  0  0  0  0  0  0  0
    1.8247    9.9827   18.5010 F   0  0  0  0  0  0  0  0  0  0  0  0
    3.2564   11.5062   17.9387 F   0  0  0  0  0  0  0  0  0  0  0  0
    3.9187   12.0618   20.5278 O   0  0  0  0  0  0  0  0  0  0  0  0
    3.4879   14.0789   26.9894 C   0  0  0  0  0  0  0  0  0  0  0  0
    3.9412   14.8246   28.2252 C   0  0  0  0  0  0  0  0  0  0  0  0
    4.7334   13.8975   29.1437 C   0  0  0  0  0  0  0  0  0  0  0  0
    5.4354   12.7710   28.4837 N   0  0  0  0  0  0  0  0  0  0  0  0
    6.4906   12.2250   29.3776 C   0  0  0  0  0  0  0  0  0  0  0  0
    6.2242   10.8959   30.0482 C   0  0  0  0  0  0  0  0  0  0  0  0
    6.3203   12.1303   30.8788 C   0  0  0  0  0  0  0  0  0  0  0  0
  1  2  1  0
  2  3  1  0
  3  4  2  0
  4  5  1  0
  5  6  2  0
  7  6  1  6
  7  8  1  0
  8  9  1  6
  9 10  1  0
 10 11  1  0
 11 12  2  0
 11 13  1  0
 14 13  1  1
 14 15  1  0
 15 16  1  0
 16 17  1  0
 17 18  1  0
 18 19  1  6
 19 20  1  0
 19 21  1  0
 19 22  1  0
 18 23  1  0
  8 24  1  0
 24 25  1  0
 25 26  1  0
 26 27  1  0
 27 28  1  0
 28 29  1  0
 29 30  1  0
  6  2  1  0
 27  7  1  0
 30 28  1  0
 23 14  1  0
M  END
>  <energy_score>  (2027) 
-39.755294

>  <inchikey>  (2027) 
None

>  <smiles>  (2027) 
None

>  <ref_pdb>  (2027) 
A1209a

>  <alias>  (2027) 
None

>  <HIPPO Pose ID>  (2027) 
499671

>  <name>  (2027) 
P499671

>  <HIPPO Compound ID>  (2027) 
307755

>  <ref_mols>  (2027) 
A0473a,A1209a

>  <distance_score>  (2027) 
1.685252

>  <inspiration_score>  (2027) 
None

$$$$
P499672
     RDKit          3D

 30 33  0  0  0  0  0  0  0  0999 V2000
    8.7640   12.7442   24.2902 C   0  0  0  0  0  0  0  0  0  0  0  0
    7.9459   11.8654   25.0905 N   0  0  0  0  0  0  0  0  0  0  0  0
    8.0686   10.5002   25.0387 C   0  0  0  0  0  0  0  0  0  0  0  0
    7.2700    9.9092   25.8939 N   0  0  0  0  0  0  0  0  0  0  0  0
    6.5778   10.9311   26.4904 C   0  0  0  0  0  0  0  0  0  0  0  0
    6.9483   12.1738   25.9989 C   0  0  0  0  0  0  0  0  0  0  0  0
    6.3595   13.5649   26.2509 C   0  0  1  0  0  0  0  0  0  0  0  0
    4.8028   13.5449   26.0302 C   0  0  2  0  0  0  0  0  0  0  0  0
    4.2775   14.7971   25.2887 C   0  0  0  0  0  0  0  0  0  0  0  0
    4.2575   14.6712   23.8447 N   0  0  0  0  0  0  0  0  0  0  0  0
    5.3999   14.3675   22.8465 C   0  0  0  0  0  0  0  0  0  0  0  0
    6.5492   14.2473   23.0242 O   0  0  0  0  0  0  0  0  0  0  0  0
    4.8627   14.3308   21.4076 C   0  0  0  0  0  0  0  0  0  0  0  0
    3.7618   13.5048   20.7137 C   0  0  2  0  0  0  0  0  0  0  0  0
    2.3596   14.0357   20.9976 C   0  0  0  0  0  0  0  0  0  0  0  0
    1.2995   13.2332   20.2754 C   0  0  0  0  0  0  0  0  0  0  0  0
    1.4663   11.7976   20.7039 C   0  0  0  0  0  0  0  0  0  0  0  0
    2.8637   11.2686   20.3961 C   0  0  1  0  0  0  0  0  0  0  0  0
    3.0560   10.9777   18.9132 C   0  0  0  0  0  0  0  0  0  0  0  0
    2.0054   10.2609   18.4552 F   0  0  0  0  0  0  0  0  0  0  0  0
    3.1346   12.0953   18.1620 F   0  0  0  0  0  0  0  0  0  0  0  0
    4.1811   10.2568   18.7110 F   0  0  0  0  0  0  0  0  0  0  0  0
    3.8825   12.1141   20.9624 O   0  0  0  0  0  0  0  0  0  0  0  0
    4.0458   13.3113   27.3443 C   0  0  0  0  0  0  0  0  0  0  0  0
    4.4452   14.2723   28.4477 C   0  0  0  0  0  0  0  0  0  0  0  0
    5.7775   14.9646   28.1958 C   0  0  0  0  0  0  0  0  0  0  0  0
    6.7842   14.0838   27.5937 N   0  0  0  0  0  0  0  0  0  0  0  0
    8.1519   14.6813   27.5584 C   0  0  0  0  0  0  0  0  0  0  0  0
    8.4716   16.1102   27.9119 C   0  0  0  0  0  0  0  0  0  0  0  0
    8.8471   15.0121   28.8579 C   0  0  0  0  0  0  0  0  0  0  0  0
  1  2  1  0
  2  3  1  0
  3  4  2  0
  4  5  1  0
  5  6  2  0
  7  6  1  1
  7  8  1  0
  8  9  1  1
  9 10  1  0
 10 11  1  0
 11 12  2  0
 11 13  1  0
 14 13  1  1
 14 15  1  0
 15 16  1  0
 16 17  1  0
 17 18  1  0
 18 19  1  6
 19 20  1  0
 19 21  1  0
 19 22  1  0
 18 23  1  0
  8 24  1  0
 24 25  1  0
 25 26  1  0
 26 27  1  0
 27 28  1  0
 28 29  1  0
 29 30  1  0
  6  2  1  0
 27  7  1  0
 30 28  1  0
 23 14  1  0
M  END
>  <energy_score>  (2028) 
-22.473056

>  <inchikey>  (2028) 
None

>  <smiles>  (2028) 
None

>  <ref_pdb>  (2028) 
A1209a

>  <alias>  (2028) 
None

>  <HIPPO Pose ID>  (2028) 
499672

>  <name>  (2028) 
P499672

>  <HIPPO Compound ID>  (2028) 
307755

>  <ref_mols>  (2028) 
A0473a,A1209a

>  <distance_score>  (2028) 
1.6717

>  <inspiration_score>  (2028) 
None

$$$$
P499673
     RDKit          3D

 22 25  0  0  0  0  0  0  0  0999 V2000
   14.1211   14.9473   23.8267 O   0  0  0  0  0  0  0  0  0  0  0  0
   13.7046   13.9170   24.2852 C   0  0  0  0  0  0  0  0  0  0  0  0
   12.2952   13.4749   23.6813 C   0  0  0  0  0  0  0  0  0  0  0  0
   11.4522   14.6778   23.1834 C   0  0  0  0  0  0  0  0  0  0  0  0
   10.2335   14.3964   22.3043 C   0  0  0  0  0  0  0  0  0  0  0  0
    9.0485   13.9423   23.1236 C   0  0  0  0  0  0  0  0  0  0  0  0
    7.9246   14.7638   23.2663 C   0  0  0  0  0  0  0  0  0  0  0  0
    6.8472   14.3560   24.0519 C   0  0  0  0  0  0  0  0  0  0  0  0
    6.8798   13.1234   24.6981 C   0  0  0  0  0  0  0  0  0  0  0  0
    7.9897   12.2960   24.5632 C   0  0  0  0  0  0  0  0  0  0  0  0
    9.0790   12.7055   23.7845 C   0  0  0  0  0  0  0  0  0  0  0  0
   10.3117   11.8553   23.6998 C   0  0  0  0  0  0  0  0  0  0  0  0
   11.4622   12.5068   24.4877 C   0  0  0  0  0  0  0  0  0  0  0  0
   14.3187   12.9867   25.2046 N   0  0  0  0  0  0  0  0  0  0  0  0
   13.9876   13.3334   26.5851 C   0  0  0  0  0  0  0  0  0  0  0  0
   14.4522   12.1746   27.4603 C   0  0  0  0  0  0  0  0  0  0  0  0
   15.8242   11.9380   26.9514 C   0  0  1  0  0  0  0  0  0  0  0  0
   15.9575   10.5915   26.5245 O   0  0  0  0  0  0  0  0  0  0  0  0
   15.7639   12.9492   25.8170 C   0  0  2  0  0  0  0  0  0  0  0  0
   16.4881   14.2557   26.1458 C   0  0  0  0  0  0  0  0  0  0  0  0
   17.9016   14.3043   26.6987 C   0  0  0  0  0  0  0  0  0  0  0  0
   16.7671   14.7973   27.5391 C   0  0  0  0  0  0  0  0  0  0  0  0
  1  2  2  0
  2  3  1  0
  3  4  1  0
  4  5  1  0
  5  6  1  0
  6  7  2  0
  7  8  1  0
  8  9  2  0
  9 10  1  0
 10 11  2  0
 11 12  1  0
 12 13  1  0
  2 14  1  0
 14 15  1  0
 15 16  1  0
 16 17  1  0
 17 18  1  6
 17 19  1  0
 19 20  1  1
 20 21  1  0
 21 22  1  0
 13  3  1  0
 19 14  1  0
 22 20  1  0
 11  6  1  0
M  END
>  <energy_score>  (2029) 
-32.325573

>  <inchikey>  (2029) 
None

>  <smiles>  (2029) 
None

>  <ref_pdb>  (2029) 
A3371a

>  <alias>  (2029) 
None

>  <HIPPO Pose ID>  (2029) 
499673

>  <name>  (2029) 
P499673

>  <HIPPO Compound ID>  (2029) 
308726

>  <ref_mols>  (2029) 
A1778a,A3371a

>  <distance_score>  (2029) 
1.884391

>  <inspiration_score>  (2029) 
None

$$$$
P499674
     RDKit          3D

 22 25  0  0  0  0  0  0  0  0999 V2000
   12.7943   14.4257   25.9810 O   0  0  0  0  0  0  0  0  0  0  0  0
   13.1780   13.5373   25.3416 C   0  0  0  0  0  0  0  0  0  0  0  0
   14.4152   12.6362   25.5253 N   0  0  0  0  0  0  0  0  0  0  0  0
   15.4993   12.7058   26.4933 C   0  0  1  0  0  0  0  0  0  0  0  0
   15.0625   13.1285   27.8649 C   0  0  0  0  0  0  0  0  0  0  0  0
   15.3496   12.0210   28.8826 C   0  0  0  0  0  0  0  0  0  0  0  0
   16.2883   11.1039   28.2085 C   0  0  2  0  0  0  0  0  0  0  0  0
   17.5695   11.5634   27.5904 C   0  0  0  0  0  0  0  0  0  0  0  0
   16.2990   11.4533   26.7522 C   0  0  2  0  0  0  0  0  0  0  0  0
   16.1052   10.3459   25.8228 C   0  0  0  0  0  0  0  0  0  0  0  0
   15.9167   10.8791   24.5349 O   0  0  0  0  0  0  0  0  0  0  0  0
   12.4288   13.1796   24.0185 C   0  0  0  0  0  0  0  0  0  0  0  0
   11.6622   14.2773   23.2719 C   0  0  0  0  0  0  0  0  0  0  0  0
   10.3703   14.7841   23.9351 C   0  0  0  0  0  0  0  0  0  0  0  0
    9.2081   13.8677   24.2593 C   0  0  0  0  0  0  0  0  0  0  0  0
    8.1440   14.4675   24.9493 C   0  0  0  0  0  0  0  0  0  0  0  0
    7.0467   13.7250   25.3722 C   0  0  0  0  0  0  0  0  0  0  0  0
    6.9803   12.3663   25.0956 C   0  0  0  0  0  0  0  0  0  0  0  0
    8.0148   11.7482   24.4053 C   0  0  0  0  0  0  0  0  0  0  0  0
    9.1441   12.4840   24.0121 C   0  0  0  0  0  0  0  0  0  0  0  0
   10.3429   11.7360   23.5083 C   0  0  0  0  0  0  0  0  0  0  0  0
   11.4717   12.1240   24.4470 C   0  0  0  0  0  0  0  0  0  0  0  0
  1  2  2  0
  2  3  1  0
  4  3  1  6
  4  5  1  0
  5  6  1  0
  7  6  1  1
  7  8  1  0
  8  9  1  0
  9 10  1  6
 10 11  1  0
  2 12  1  0
 12 13  1  0
 13 14  1  0
 14 15  1  0
 15 16  2  0
 16 17  1  0
 17 18  2  0
 18 19  1  0
 19 20  2  0
 20 21  1  0
 21 22  1  0
  9  4  1  0
 22 12  1  0
  9  7  1  0
 20 15  1  0
M  END
>  <energy_score>  (2030) 
-11.378484

>  <inchikey>  (2030) 
None

>  <smiles>  (2030) 
None

>  <ref_pdb>  (2030) 
A3371a

>  <alias>  (2030) 
None

>  <HIPPO Pose ID>  (2030) 
499674

>  <name>  (2030) 
P499674

>  <HIPPO Compound ID>  (2030) 
308727

>  <ref_mols>  (2030) 
A1778a,A3371a

>  <distance_score>  (2030) 
1.927155

>  <inspiration_score>  (2030) 
None

$$$$
P499675
     RDKit          3D

 22 25  0  0  0  0  0  0  0  0999 V2000
   13.3497   14.3521   25.8963 O   0  0  0  0  0  0  0  0  0  0  0  0
   13.4012   13.3792   25.2614 C   0  0  0  0  0  0  0  0  0  0  0  0
   14.2673   12.1056   25.4447 N   0  0  0  0  0  0  0  0  0  0  0  0
   15.3288   11.8090   26.4078 C   0  0  2  0  0  0  0  0  0  0  0  0
   14.8734   11.5926   27.8816 C   0  0  0  0  0  0  0  0  0  0  0  0
   16.0072   11.7645   28.9418 C   0  0  0  0  0  0  0  0  0  0  0  0
   16.7783   13.1061   28.8044 C   0  0  0  0  0  0  0  0  0  0  0  0
   16.2638   13.7572   27.5733 C   0  0  1  0  0  0  0  0  0  0  0  0
   16.8293   14.1936   26.2958 C   0  0  1  0  0  0  0  0  0  0  0  0
   18.1629   14.5511   26.2890 F   0  0  0  0  0  0  0  0  0  0  0  0
   16.4838   12.7456   26.4481 C   0  0  2  0  0  0  0  0  0  0  0  0
   12.4024   13.1842   24.0055 C   0  0  0  0  0  0  0  0  0  0  0  0
   11.6463   14.4570   23.5949 C   0  0  0  0  0  0  0  0  0  0  0  0
   10.4125   14.3751   22.6961 C   0  0  0  0  0  0  0  0  0  0  0  0
    9.2228   13.8518   23.4722 C   0  0  0  0  0  0  0  0  0  0  0  0
    8.2678   14.7182   24.0025 C   0  0  0  0  0  0  0  0  0  0  0  0
    7.2132   14.2213   24.7706 C   0  0  0  0  0  0  0  0  0  0  0  0
    7.0914   12.8532   25.0036 C   0  0  0  0  0  0  0  0  0  0  0  0
    8.0481   11.9812   24.5039 C   0  0  0  0  0  0  0  0  0  0  0  0
    9.1281   12.4865   23.7715 C   0  0  0  0  0  0  0  0  0  0  0  0
   10.3231   11.6385   23.4908 C   0  0  0  0  0  0  0  0  0  0  0  0
   11.4090   12.1460   24.4407 C   0  0  0  0  0  0  0  0  0  0  0  0
  1  2  2  0
  2  3  1  0
  4  3  1  6
  4  5  1  0
  5  6  1  0
  6  7  1  0
  8  7  1  1
  8  9  1  0
  9 10  1  1
  9 11  1  0
  2 12  1  0
 12 13  1  0
 13 14  1  0
 14 15  1  0
 15 16  2  0
 16 17  1  0
 17 18  2  0
 18 19  1  0
 19 20  2  0
 20 21  1  0
 21 22  1  0
 11  4  1  6
 22 12  1  0
 11  8  1  0
 20 15  1  0
M  END
>  <energy_score>  (2031) 
-5.110874

>  <inchikey>  (2031) 
None

>  <smiles>  (2031) 
None

>  <ref_pdb>  (2031) 
A3371a

>  <alias>  (2031) 
None

>  <HIPPO Pose ID>  (2031) 
499675

>  <name>  (2031) 
P499675

>  <HIPPO Compound ID>  (2031) 
308750

>  <ref_mols>  (2031) 
A1778a,A3371a

>  <distance_score>  (2031) 
1.763185

>  <inspiration_score>  (2031) 
None

$$$$
P499676
     RDKit          3D

 25 27  0  0  0  0  0  0  0  0999 V2000
   12.9266   23.2014   24.6255 C   0  0  0  0  0  0  0  0  0  0  0  0
   12.4556   23.3189   25.9706 O   0  0  0  0  0  0  0  0  0  0  0  0
   11.1079   23.0908   26.1584 C   0  0  0  0  0  0  0  0  0  0  0  0
   10.1594   23.8135   25.3284 C   0  0  0  0  0  0  0  0  0  0  0  0
    8.8355   23.6558   25.5013 C   0  0  0  0  0  0  0  0  0  0  0  0
    8.3384   22.7261   26.4610 C   0  0  0  0  0  0  0  0  0  0  0  0
    7.1020   22.4576   26.8104 N   0  0  0  0  0  0  0  0  0  0  0  0
    7.1884   21.3904   27.6573 C   0  0  0  0  0  0  0  0  0  0  0  0
    8.4986   20.9921   27.8777 C   0  0  0  0  0  0  0  0  0  0  0  0
    8.9523   19.7498   28.6263 C   0  0  0  0  0  0  0  0  0  0  0  0
    8.4854   18.5046   27.9517 N   0  0  0  0  0  0  0  0  0  0  0  0
    8.7087   17.2177   28.6468 C   0  0  0  0  0  0  0  0  0  0  0  0
    8.9903   16.0253   27.6601 C   0  0  0  0  0  0  0  0  0  0  0  0
    7.9107   14.9385   27.4055 C   0  0  0  0  0  0  0  0  0  0  0  0
    8.1612   14.0735   26.0929 C   0  0  0  0  0  0  0  0  0  0  0  0
    7.6327   12.6681   26.0313 N   0  0  0  0  0  0  0  0  0  0  0  0
    8.1857   11.6859   25.1553 C   0  0  0  0  0  0  0  0  0  0  0  0
    9.2971   12.0057   24.1919 C   0  0  0  0  0  0  0  0  0  0  0  0
    7.6976   10.4307   25.1468 C   0  0  0  0  0  0  0  0  0  0  0  0
    6.5902   10.0622   25.9707 C   0  0  0  0  0  0  0  0  0  0  0  0
    5.9883   10.9703   26.7338 C   0  0  0  0  0  0  0  0  0  0  0  0
    6.4721   12.3704   26.7633 C   0  0  0  0  0  0  0  0  0  0  0  0
    5.8433   13.1565   27.4688 O   0  0  0  0  0  0  0  0  0  0  0  0
    9.2589   21.9818   27.2070 N   0  0  0  0  0  0  0  0  0  0  0  0
   10.6336   22.2780   27.1315 C   0  0  0  0  0  0  0  0  0  0  0  0
  1  2  1  0
  2  3  1  0
  3  4  1  0
  4  5  2  0
  5  6  1  0
  6  7  2  0
  7  8  1  0
  8  9  2  0
  9 10  1  0
 10 11  1  0
 11 12  1  0
 12 13  1  0
 13 14  1  0
 14 15  1  0
 15 16  1  0
 16 17  1  0
 17 18  1  0
 17 19  2  0
 19 20  1  0
 20 21  2  0
 21 22  1  0
 22 23  2  0
  9 24  1  0
 24 25  1  0
 25  3  2  0
 24  6  1  0
 22 16  1  0
M  END
>  <energy_score>  (2032) 
-8.135637

>  <inchikey>  (2032) 
None

>  <smiles>  (2032) 
None

>  <ref_pdb>  (2032) 
A1209a

>  <alias>  (2032) 
None

>  <HIPPO Pose ID>  (2032) 
499676

>  <name>  (2032) 
P499676

>  <HIPPO Compound ID>  (2032) 
309727

>  <ref_mols>  (2032) 
A1209a,A0525a

>  <distance_score>  (2032) 
1.894071

>  <inspiration_score>  (2032) 
None

$$$$
P499677
     RDKit          3D

 26 28  0  0  0  0  0  0  0  0999 V2000
    5.8615   20.6962   28.0987 C   0  0  0  0  0  0  0  0  0  0  0  0
    7.1371   21.3115   27.6546 C   0  0  0  0  0  0  0  0  0  0  0  0
    7.0885   22.3456   26.7613 N   0  0  0  0  0  0  0  0  0  0  0  0
    8.3318   22.6426   26.4780 C   0  0  0  0  0  0  0  0  0  0  0  0
    8.8447   23.5593   25.5131 C   0  0  0  0  0  0  0  0  0  0  0  0
   10.1699   23.7084   25.3585 C   0  0  0  0  0  0  0  0  0  0  0  0
   11.0938   22.9950   26.2087 C   0  0  0  0  0  0  0  0  0  0  0  0
   12.4099   23.1641   25.8584 O   0  0  0  0  0  0  0  0  0  0  0  0
   10.6157   22.2160   27.2067 C   0  0  0  0  0  0  0  0  0  0  0  0
    9.2309   21.9341   27.2838 N   0  0  0  0  0  0  0  0  0  0  0  0
    8.4474   20.9843   28.0021 C   0  0  0  0  0  0  0  0  0  0  0  0
    8.8549   19.9061   28.9778 C   0  0  2  0  0  0  0  0  0  0  0  0
   10.0763   20.3259   29.5556 O   0  0  0  0  0  0  0  0  0  0  0  0
    9.0788   18.5570   28.4630 N   0  0  0  0  0  0  0  0  0  0  0  0
    7.9479   17.6619   28.1397 C   0  0  0  0  0  0  0  0  0  0  0  0
    8.4644   16.2502   27.6364 C   0  0  0  0  0  0  0  0  0  0  0  0
    7.5205   15.3876   26.7221 C   0  0  0  0  0  0  0  0  0  0  0  0
    8.2605   14.1585   26.0279 C   0  0  0  0  0  0  0  0  0  0  0  0
    7.6541   12.7842   25.9984 N   0  0  0  0  0  0  0  0  0  0  0  0
    8.1002   11.7845   25.0755 C   0  0  0  0  0  0  0  0  0  0  0  0
    9.1681   12.0594   24.0503 C   0  0  0  0  0  0  0  0  0  0  0  0
    7.6027   10.5331   25.1325 C   0  0  0  0  0  0  0  0  0  0  0  0
    6.5643   10.1890   26.0536 C   0  0  0  0  0  0  0  0  0  0  0  0
    6.1885   11.0621   26.9854 C   0  0  0  0  0  0  0  0  0  0  0  0
    6.8571   12.3838   27.0820 C   0  0  0  0  0  0  0  0  0  0  0  0
    6.7006   13.0160   28.1249 O   0  0  0  0  0  0  0  0  0  0  0  0
  1  2  1  0
  2  3  1  0
  3  4  2  0
  4  5  1  0
  5  6  2  0
  6  7  1  0
  7  8  1  0
  7  9  2  0
  9 10  1  0
 10 11  1  0
 11 12  1  0
 12 13  1  6
 12 14  1  0
 14 15  1  0
 15 16  1  0
 16 17  1  0
 17 18  1  0
 18 19  1  0
 19 20  1  0
 20 21  1  0
 20 22  2  0
 22 23  1  0
 23 24  2  0
 24 25  1  0
 25 26  2  0
 11  2  2  0
 25 19  1  0
 10  4  1  0
M  END
>  <energy_score>  (2033) 
-24.457837

>  <inchikey>  (2033) 
None

>  <smiles>  (2033) 
None

>  <ref_pdb>  (2033) 
A1209a

>  <alias>  (2033) 
None

>  <HIPPO Pose ID>  (2033) 
499677

>  <name>  (2033) 
P499677

>  <HIPPO Compound ID>  (2033) 
309865

>  <ref_mols>  (2033) 
A1209a,A0525a

>  <distance_score>  (2033) 
1.794617

>  <inspiration_score>  (2033) 
None

$$$$
P499678
     RDKit          3D

 23 24  0  0  0  0  0  0  0  0999 V2000
    6.7266   14.7157   23.4718 C   0  0  0  0  0  0  0  0  0  0  0  0
    7.9151   15.5949   23.9205 C   0  0  0  0  0  0  0  0  0  0  0  0
    7.2882   16.7478   24.7063 C   0  0  0  0  0  0  0  0  0  0  0  0
    8.9057   14.9277   24.7533 N   0  0  0  0  0  0  0  0  0  0  0  0
    8.7603   14.2315   26.1125 C   0  0  0  0  0  0  0  0  0  0  0  0
    7.8431   14.1458   26.8206 O   0  0  0  0  0  0  0  0  0  0  0  0
   10.1428   13.5452   26.2989 C   0  0  0  0  0  0  0  0  0  0  0  0
   10.1537   12.1598   25.9683 O   0  0  0  0  0  0  0  0  0  0  0  0
   10.1261   11.8330   24.5735 C   0  0  1  0  0  0  0  0  0  0  0  0
   10.0982   10.3159   24.4688 C   0  0  0  0  0  0  0  0  0  0  0  0
    8.7115    9.7550   24.6907 C   0  0  0  0  0  0  0  0  0  0  0  0
    7.6732   10.7372   25.1630 C   0  0  0  0  0  0  0  0  0  0  0  0
    6.7704   10.4676   25.9415 O   0  0  0  0  0  0  0  0  0  0  0  0
    7.7345   11.9220   24.5062 N   0  0  0  0  0  0  0  0  0  0  0  0
    8.8751   12.2696   23.8375 C   0  0  0  0  0  0  0  0  0  0  0  0
    8.9069   12.8121   22.7460 O   0  0  0  0  0  0  0  0  0  0  0  0
    8.8188   15.9280   22.6817 C   0  0  0  0  0  0  0  0  0  0  0  0
   10.1820   15.8806   22.9140 N   0  0  0  0  0  0  0  0  0  0  0  0
   10.9944   15.6486   21.8528 C   0  0  0  0  0  0  0  0  0  0  0  0
   10.5127   15.4435   20.5898 C   0  0  0  0  0  0  0  0  0  0  0  0
   11.5302   14.9190   19.1179 Br  0  0  0  0  0  0  0  0  0  0  0  0
    9.1604   15.5789   20.4561 C   0  0  0  0  0  0  0  0  0  0  0  0
    8.2865   15.8204   21.4611 N   0  0  0  0  0  0  0  0  0  0  0  0
  1  2  1  0
  2  3  1  0
  2  4  1  0
  4  5  1  0
  5  6  2  0
  5  7  1  0
  7  8  1  0
  9  8  1  1
  9 10  1  0
 10 11  1  0
 11 12  1  0
 12 13  2  0
 12 14  1  0
 14 15  1  0
 15 16  2  0
  2 17  1  0
 17 18  2  0
 18 19  1  0
 19 20  2  0
 20 21  1  0
 20 22  1  0
 22 23  2  0
 15  9  1  0
 23 17  1  0
M  END
>  <energy_score>  (2034) 
-14.400535

>  <inchikey>  (2034) 
None

>  <smiles>  (2034) 
None

>  <ref_pdb>  (2034) 
A4445a

>  <alias>  (2034) 
None

>  <HIPPO Pose ID>  (2034) 
499678

>  <name>  (2034) 
P499678

>  <HIPPO Compound ID>  (2034) 
310126

>  <ref_mols>  (2034) 
A4445a,A1068a

>  <distance_score>  (2034) 
1.675957

>  <inspiration_score>  (2034) 
None

$$$$
P499679
     RDKit          3D

 23 24  0  0  0  0  0  0  0  0999 V2000
   12.2216   14.0974   25.9911 C   0  0  0  0  0  0  0  0  0  0  0  0
   10.8898   13.9690   25.3173 C   0  0  0  0  0  0  0  0  0  0  0  0
   10.1807   15.3090   24.9557 C   0  0  2  0  0  0  0  0  0  0  0  0
    8.7902   15.0182   25.2217 N   0  0  0  0  0  0  0  0  0  0  0  0
    8.0526   14.7841   26.5575 C   0  0  0  0  0  0  0  0  0  0  0  0
    8.4342   14.8657   27.6546 O   0  0  0  0  0  0  0  0  0  0  0  0
    6.6586   14.2920   26.1368 C   0  0  0  0  0  0  0  0  0  0  0  0
    6.7685   13.3548   25.0315 O   0  0  0  0  0  0  0  0  0  0  0  0
    7.7609   12.3239   25.1735 C   0  0  2  0  0  0  0  0  0  0  0  0
    8.5422   12.2535   23.8637 C   0  0  0  0  0  0  0  0  0  0  0  0
    9.5945   11.1766   23.8268 C   0  0  0  0  0  0  0  0  0  0  0  0
    9.1206    9.8661   24.3351 C   0  0  0  0  0  0  0  0  0  0  0  0
    9.7418    8.8353   24.1134 O   0  0  0  0  0  0  0  0  0  0  0  0
    8.0144    9.8853   25.1391 N   0  0  0  0  0  0  0  0  0  0  0  0
    7.2338   10.9472   25.5287 C   0  0  0  0  0  0  0  0  0  0  0  0
    6.2195   10.7622   26.1932 O   0  0  0  0  0  0  0  0  0  0  0  0
   10.3967   15.5506   23.4581 C   0  0  0  0  0  0  0  0  0  0  0  0
   11.6680   15.6166   23.0272 N   0  0  0  0  0  0  0  0  0  0  0  0
   11.8524   15.5370   21.6867 C   0  0  0  0  0  0  0  0  0  0  0  0
   10.8316   15.3727   20.7779 C   0  0  0  0  0  0  0  0  0  0  0  0
   11.1148   15.1010   18.9484 Br  0  0  0  0  0  0  0  0  0  0  0  0
    9.5709   15.3594   21.3132 C   0  0  0  0  0  0  0  0  0  0  0  0
    9.3193   15.4299   22.6402 N   0  0  0  0  0  0  0  0  0  0  0  0
  1  2  1  0
  3  2  1  6
  3  4  1  0
  4  5  1  0
  5  6  2  0
  5  7  1  0
  7  8  1  0
  9  8  1  6
  9 10  1  0
 10 11  1  0
 11 12  1  0
 12 13  2  0
 12 14  1  0
 14 15  1  0
 15 16  2  0
  3 17  1  0
 17 18  2  0
 18 19  1  0
 19 20  2  0
 20 21  1  0
 20 22  1  0
 22 23  2  0
 15  9  1  0
 23 17  1  0
M  END
>  <energy_score>  (2035) 
-8.195708

>  <inchikey>  (2035) 
None

>  <smiles>  (2035) 
None

>  <ref_pdb>  (2035) 
A4445a

>  <alias>  (2035) 
None

>  <HIPPO Pose ID>  (2035) 
499679

>  <name>  (2035) 
P499679

>  <HIPPO Compound ID>  (2035) 
310128

>  <ref_mols>  (2035) 
A4445a,A1068a

>  <distance_score>  (2035) 
1.654895

>  <inspiration_score>  (2035) 
None

$$$$
P499680
     RDKit          3D

 23 24  0  0  0  0  0  0  0  0999 V2000
   11.2831   14.8982   26.1374 C   0  0  0  0  0  0  0  0  0  0  0  0
    9.8857   15.1627   25.6073 C   0  0  0  0  0  0  0  0  0  0  0  0
    9.6969   14.5814   24.2248 C   0  0  1  0  0  0  0  0  0  0  0  0
    8.4271   13.9419   24.0672 N   0  0  0  0  0  0  0  0  0  0  0  0
    7.0713   14.2182   24.7568 C   0  0  0  0  0  0  0  0  0  0  0  0
    6.7607   15.0577   25.5018 O   0  0  0  0  0  0  0  0  0  0  0  0
    6.2164   13.0299   24.3006 C   0  0  0  0  0  0  0  0  0  0  0  0
    7.0887   11.9513   23.8432 O   0  0  0  0  0  0  0  0  0  0  0  0
    7.5059   11.0205   24.8499 C   0  0  1  0  0  0  0  0  0  0  0  0
    8.5261   10.0006   24.3420 C   0  0  0  0  0  0  0  0  0  0  0  0
    9.7953   10.6480   23.8938 C   0  0  0  0  0  0  0  0  0  0  0  0
   10.3774   11.4142   25.0286 C   0  0  0  0  0  0  0  0  0  0  0  0
   11.5886   11.5921   25.1453 O   0  0  0  0  0  0  0  0  0  0  0  0
    9.4804   11.9286   25.9358 N   0  0  0  0  0  0  0  0  0  0  0  0
    8.1299   11.7123   26.0099 C   0  0  0  0  0  0  0  0  0  0  0  0
    7.4217   12.1069   26.9291 O   0  0  0  0  0  0  0  0  0  0  0  0
   10.0852   15.3663   22.9979 C   0  0  0  0  0  0  0  0  0  0  0  0
   11.4117   15.4409   22.7677 N   0  0  0  0  0  0  0  0  0  0  0  0
   11.7777   15.4632   21.4691 C   0  0  0  0  0  0  0  0  0  0  0  0
   10.8773   15.4126   20.4309 C   0  0  0  0  0  0  0  0  0  0  0  0
   11.3500   15.0955   18.6611 Br  0  0  0  0  0  0  0  0  0  0  0  0
    9.5587   15.4873   20.7775 C   0  0  0  0  0  0  0  0  0  0  0  0
    9.1290   15.4660   22.0467 N   0  0  0  0  0  0  0  0  0  0  0  0
  1  2  1  0
  3  2  1  1
  3  4  1  0
  4  5  1  0
  5  6  2  0
  5  7  1  0
  7  8  1  0
  9  8  1  6
  9 10  1  0
 10 11  1  0
 11 12  1  0
 12 13  2  0
 12 14  1  0
 14 15  1  0
 15 16  2  0
  3 17  1  0
 17 18  2  0
 18 19  1  0
 19 20  2  0
 20 21  1  0
 20 22  1  0
 22 23  2  0
 15  9  1  0
 23 17  1  0
M  END
>  <energy_score>  (2036) 
-10.854374

>  <inchikey>  (2036) 
None

>  <smiles>  (2036) 
None

>  <ref_pdb>  (2036) 
A4445a

>  <alias>  (2036) 
None

>  <HIPPO Pose ID>  (2036) 
499680

>  <name>  (2036) 
P499680

>  <HIPPO Compound ID>  (2036) 
310128

>  <ref_mols>  (2036) 
A4445a,A1068a

>  <distance_score>  (2036) 
1.878521

>  <inspiration_score>  (2036) 
None

$$$$
P499681
     RDKit          3D

 24 26  0  0  0  0  0  0  0  0999 V2000
    6.7183   10.2170   25.8762 O   0  0  0  0  0  0  0  0  0  0  0  0
    7.7980   10.6813   25.5355 C   0  0  0  0  0  0  0  0  0  0  0  0
    8.0816   12.1206   25.7218 C   0  0  0  0  0  0  0  0  0  0  0  0
    9.5344   12.4514   25.6520 C   0  0  0  0  0  0  0  0  0  0  0  0
   10.1142   11.9923   24.3263 C   0  0  1  0  0  0  0  0  0  0  0  0
   11.5429   12.0663   24.3477 O   0  0  0  0  0  0  0  0  0  0  0  0
   12.1226   13.2806   24.8135 C   0  0  0  0  0  0  0  0  0  0  0  0
   11.5228   14.6333   24.3933 C   0  0  0  0  0  0  0  0  0  0  0  0
   11.4130   15.5154   25.1489 O   0  0  0  0  0  0  0  0  0  0  0  0
   11.0544   14.5069   22.9263 N   0  0  0  0  0  0  0  0  0  0  0  0
   10.2625   15.4106   22.1063 C   0  0  2  0  0  0  0  0  0  0  0  0
    8.8347   15.3288   22.6836 C   0  0  0  0  0  0  0  0  0  0  0  0
    8.6792   15.8067   23.9437 N   0  0  0  0  0  0  0  0  0  0  0  0
    7.6048   15.4085   24.6425 C   0  0  0  0  0  0  0  0  0  0  0  0
    6.6484   14.5772   24.1226 C   0  0  0  0  0  0  0  0  0  0  0  0
    5.2657   13.8562   25.1739 Br  0  0  0  0  0  0  0  0  0  0  0  0
    6.8449   14.1779   22.8242 C   0  0  0  0  0  0  0  0  0  0  0  0
    7.9445   14.4842   22.1110 N   0  0  0  0  0  0  0  0  0  0  0  0
   10.3121   14.9367   20.6815 C   0  0  0  0  0  0  0  0  0  0  0  0
   10.2315   15.8807   19.5114 C   0  0  0  0  0  0  0  0  0  0  0  0
   11.5307   15.2157   19.8535 C   0  0  0  0  0  0  0  0  0  0  0  0
    9.5804   10.5894   23.9481 C   0  0  0  0  0  0  0  0  0  0  0  0
    9.8130   10.0428   22.8764 O   0  0  0  0  0  0  0  0  0  0  0  0
    8.7278    9.9868   24.8262 N   0  0  0  0  0  0  0  0  0  0  0  0
  1  2  2  0
  2  3  1  0
  3  4  1  0
  4  5  1  0
  5  6  1  1
  6  7  1  0
  7  8  1  0
  8  9  2  0
  8 10  1  0
 11 10  1  1
 11 12  1  0
 12 13  2  0
 13 14  1  0
 14 15  2  0
 15 16  1  0
 15 17  1  0
 17 18  2  0
 11 19  1  0
 19 20  1  0
 20 21  1  0
  5 22  1  0
 22 23  2  0
 22 24  1  0
 24  2  1  0
 18 12  1  0
 21 19  1  0
M  END
>  <energy_score>  (2037) 
-12.573158

>  <inchikey>  (2037) 
None

>  <smiles>  (2037) 
None

>  <ref_pdb>  (2037) 
A4445a

>  <alias>  (2037) 
None

>  <HIPPO Pose ID>  (2037) 
499681

>  <name>  (2037) 
P499681

>  <HIPPO Compound ID>  (2037) 
310131

>  <ref_mols>  (2037) 
A4445a,A1068a

>  <distance_score>  (2037) 
1.863019

>  <inspiration_score>  (2037) 
None

$$$$
P499682
     RDKit          3D

 25 27  0  0  0  0  0  0  0  0999 V2000
    7.1834   10.0956   25.6764 O   0  0  0  0  0  0  0  0  0  0  0  0
    8.1389   10.6886   25.1933 C   0  0  0  0  0  0  0  0  0  0  0  0
    8.1299   12.1796   25.1048 C   0  0  0  0  0  0  0  0  0  0  0  0
    9.4529   12.7082   25.6026 C   0  0  0  0  0  0  0  0  0  0  0  0
   10.5591   12.1734   24.7164 C   0  0  1  0  0  0  0  0  0  0  0  0
   11.8249   12.7090   25.1419 O   0  0  0  0  0  0  0  0  0  0  0  0
   12.0893   14.0753   24.7543 C   0  0  0  0  0  0  0  0  0  0  0  0
   11.6457   14.3261   23.3096 C   0  0  0  0  0  0  0  0  0  0  0  0
   12.2806   13.9989   22.3963 O   0  0  0  0  0  0  0  0  0  0  0  0
   10.2468   14.9514   23.3751 N   0  0  0  0  0  0  0  0  0  0  0  0
    9.2834   15.2218   22.3217 C   0  0  0  0  0  0  0  0  0  0  0  0
    7.9202   15.0973   23.0328 C   0  0  0  0  0  0  0  0  0  0  0  0
    7.9227   15.3876   24.3642 N   0  0  0  0  0  0  0  0  0  0  0  0
    6.7638   15.2190   25.0280 C   0  0  0  0  0  0  0  0  0  0  0  0
    5.6142   14.7453   24.4381 C   0  0  0  0  0  0  0  0  0  0  0  0
    4.0235   14.5155   25.4069 Br  0  0  0  0  0  0  0  0  0  0  0  0
    5.7173   14.4212   23.1067 C   0  0  0  0  0  0  0  0  0  0  0  0
    6.8619   14.5528   22.3969 N   0  0  0  0  0  0  0  0  0  0  0  0
    9.4232   14.1837   21.2210 C   0  0  0  0  0  0  0  0  0  0  0  0
   10.3776   14.7468   20.1678 C   0  0  0  0  0  0  0  0  0  0  0  0
   10.5511   16.2033   20.5058 C   0  0  0  0  0  0  0  0  0  0  0  0
    9.4883   16.5071   21.5407 C   0  0  0  0  0  0  0  0  0  0  0  0
   10.5129   10.6427   24.8231 C   0  0  0  0  0  0  0  0  0  0  0  0
   11.5328    9.9773   25.0060 O   0  0  0  0  0  0  0  0  0  0  0  0
    9.2708   10.0656   24.7373 N   0  0  0  0  0  0  0  0  0  0  0  0
  1  2  2  0
  2  3  1  0
  3  4  1  0
  4  5  1  0
  5  6  1  1
  6  7  1  0
  7  8  1  0
  8  9  2  0
  8 10  1  0
 10 11  1  0
 11 12  1  0
 12 13  2  0
 13 14  1  0
 14 15  2  0
 15 16  1  0
 15 17  1  0
 17 18  2  0
 11 19  1  0
 19 20  1  0
 20 21  1  0
 21 22  1  0
  5 23  1  0
 23 24  2  0
 23 25  1  0
 25  2  1  0
 22 11  1  0
 18 12  1  0
M  END
>  <energy_score>  (2038) 
-15.264059

>  <inchikey>  (2038) 
None

>  <smiles>  (2038) 
None

>  <ref_pdb>  (2038) 
A4445a

>  <alias>  (2038) 
None

>  <HIPPO Pose ID>  (2038) 
499682

>  <name>  (2038) 
P499682

>  <HIPPO Compound ID>  (2038) 
310134

>  <ref_mols>  (2038) 
A4445a,A1068a

>  <distance_score>  (2038) 
1.893611

>  <inspiration_score>  (2038) 
None

$$$$
P499683
     RDKit          3D

 30 33  0  0  0  0  0  0  0  0999 V2000
    3.2633   11.9398   28.5817 C   0  0  0  0  0  0  0  0  0  0  0  0
    3.7641   13.3073   28.1051 C   0  0  0  0  0  0  0  0  0  0  0  0
    2.8501   13.9120   27.0334 C   0  0  0  0  0  0  0  0  0  0  0  0
    3.8062   14.2613   29.3085 C   0  0  0  0  0  0  0  0  0  0  0  0
    5.1380   13.2340   27.6463 O   0  0  0  0  0  0  0  0  0  0  0  0
    5.4843   12.4839   26.5624 C   0  0  0  0  0  0  0  0  0  0  0  0
    4.7307   11.8314   25.9493 O   0  0  0  0  0  0  0  0  0  0  0  0
    6.9475   12.7150   26.3646 N   0  0  0  0  0  0  0  0  0  0  0  0
    7.8904   12.1197   25.4095 C   0  0  0  0  0  0  0  0  0  0  0  0
    7.8323   10.8082   24.9515 C   0  0  0  0  0  0  0  0  0  0  0  0
    8.8423   10.3855   24.0895 C   0  0  0  0  0  0  0  0  0  0  0  0
    8.9315    8.6573   23.4008 Br  0  0  0  0  0  0  0  0  0  0  0  0
    9.8992   11.2181   23.7459 C   0  0  0  0  0  0  0  0  0  0  0  0
   10.0413   12.4498   24.3497 C   0  0  0  0  0  0  0  0  0  0  0  0
    8.9973   12.9113   25.0953 C   0  0  0  0  0  0  0  0  0  0  0  0
    8.7112   14.2823   25.5277 C   0  0  0  0  0  0  0  0  0  0  0  0
    7.2199   13.9983   25.4021 C   0  0  1  0  0  0  0  0  0  0  0  0
    6.6767   13.9279   23.9324 C   0  0  0  0  0  0  0  0  0  0  0  0
    7.2728   14.9884   23.0106 C   0  0  0  0  0  0  0  0  0  0  0  0
    6.7230   16.0231   22.9132 O   0  0  0  0  0  0  0  0  0  0  0  0
    8.5376   14.4233   22.2420 N   0  0  0  0  0  0  0  0  0  0  0  0
    9.3163   14.9992   21.1229 C   0  0  1  0  0  0  0  0  0  0  0  0
    9.0464   16.4706   21.0532 C   0  0  0  0  0  0  0  0  0  0  0  0
    9.8510   17.2036   22.0757 C   0  0  0  0  0  0  0  0  0  0  0  0
   11.2554   16.7867   22.1644 N   0  0  0  0  0  0  0  0  0  0  0  0
   11.4820   15.9279   23.3331 C   0  0  0  0  0  0  0  0  0  0  0  0
   12.3351   14.7266   22.9781 C   0  0  0  0  0  0  0  0  0  0  0  0
   11.6616   13.9267   21.8500 C   0  0  0  0  0  0  0  0  0  0  0  0
   10.8720   14.8014   20.8889 C   0  0  2  0  0  0  0  0  0  0  0  0
   11.6077   16.1455   20.8969 C   0  0  0  0  0  0  0  0  0  0  0  0
  1  2  1  0
  2  3  1  0
  2  4  1  0
  2  5  1  0
  5  6  1  0
  6  7  2  0
  6  8  1  0
  8  9  1  0
  9 10  2  0
 10 11  1  0
 11 12  1  0
 11 13  2  0
 13 14  1  0
 14 15  2  0
 15 16  1  0
 16 17  1  0
 17 18  1  6
 18 19  1  0
 19 20  2  0
 19 21  1  0
 22 21  1  1
 22 23  1  0
 23 24  1  0
 25 24  1  0
 25 26  1  0
 26 27  1  0
 27 28  1  0
 29 28  1  1
 29 30  1  0
 17  8  1  0
 29 22  1  0
 15  9  1  0
 30 25  1  0
M  END
>  <energy_score>  (2039) 
-5.123285

>  <inchikey>  (2039) 
None

>  <smiles>  (2039) 
None

>  <ref_pdb>  (2039) 
A3706b

>  <alias>  (2039) 
None

>  <HIPPO Pose ID>  (2039) 
499683

>  <name>  (2039) 
P499683

>  <HIPPO Compound ID>  (2039) 
310712

>  <ref_mols>  (2039) 
A3706b,A1778a

>  <distance_score>  (2039) 
1.983848

>  <inspiration_score>  (2039) 
None

$$$$
P499684
     RDKit          3D

 30 32  0  0  0  0  0  0  0  0999 V2000
    6.4847   16.5288   23.4562 C   0  0  0  0  0  0  0  0  0  0  0  0
    7.9205   16.9634   23.8242 C   0  0  1  0  0  0  0  0  0  0  0  0
    7.9595   17.6023   25.2527 C   0  0  0  0  0  0  0  0  0  0  0  0
    7.9221   16.7559   26.5204 C   0  0  0  0  0  0  0  0  0  0  0  0
    6.9731   15.6911   26.4946 N   0  0  0  0  0  0  0  0  0  0  0  0
    6.7901   14.5739   27.3731 C   0  0  0  0  0  0  0  0  0  0  0  0
    7.3344   14.2890   28.3984 O   0  0  0  0  0  0  0  0  0  0  0  0
    5.7868   13.6238   26.7442 C   0  0  0  0  0  0  0  0  0  0  0  0
    6.4904   12.5759   25.8294 C   0  0  1  0  0  0  0  0  0  0  0  0
    7.7325   13.1646   25.1332 C   0  0  0  0  0  0  0  0  0  0  0  0
    8.2349   11.8812   24.6848 C   0  0  0  0  0  0  0  0  0  0  0  0
    9.2040   11.5960   23.7396 C   0  0  0  0  0  0  0  0  0  0  0  0
    9.4120   10.2696   23.3899 C   0  0  0  0  0  0  0  0  0  0  0  0
    8.6264    9.2744   23.9615 C   0  0  0  0  0  0  0  0  0  0  0  0
    7.6830    9.5926   24.9417 C   0  0  0  0  0  0  0  0  0  0  0  0
    7.5172   10.9096   25.3444 C   0  0  0  0  0  0  0  0  0  0  0  0
    6.8339   11.2027   26.6144 N   0  0  0  0  0  0  0  0  0  0  0  0
    5.6615   10.6482   27.1834 C   0  0  0  0  0  0  0  0  0  0  0  0
    4.8756    9.8610   26.7373 O   0  0  0  0  0  0  0  0  0  0  0  0
    5.5899   11.1068   28.4661 O   0  0  0  0  0  0  0  0  0  0  0  0
    4.5649   10.6554   29.3872 C   0  0  0  0  0  0  0  0  0  0  0  0
    4.8380   11.4391   30.6801 C   0  0  0  0  0  0  0  0  0  0  0  0
    4.7111    9.1594   29.6807 C   0  0  0  0  0  0  0  0  0  0  0  0
    3.1588   11.0089   28.8907 C   0  0  0  0  0  0  0  0  0  0  0  0
    8.9147   15.9092   23.4462 N   0  0  0  0  0  0  0  0  0  0  0  0
    9.0257   15.8685   21.9590 C   0  0  0  0  0  0  0  0  0  0  0  0
   10.0230   14.8325   21.4429 C   0  0  0  0  0  0  0  0  0  0  0  0
   11.3957   14.9923   22.0745 C   0  0  0  0  0  0  0  0  0  0  0  0
   11.2743   15.0669   23.5884 C   0  0  0  0  0  0  0  0  0  0  0  0
   10.2586   16.1313   24.0077 C   0  0  0  0  0  0  0  0  0  0  0  0
  2  1  1  1
  2  3  1  0
  3  4  1  0
  4  5  1  0
  5  6  1  0
  6  7  2  0
  6  8  1  0
  9  8  1  1
  9 10  1  0
 10 11  1  0
 11 12  2  0
 12 13  1  0
 13 14  2  0
 14 15  1  0
 15 16  2  0
 16 17  1  0
 17 18  1  0
 18 19  2  0
 18 20  1  0
 20 21  1  0
 21 22  1  0
 21 23  1  0
 21 24  1  0
  2 25  1  0
 25 26  1  0
 26 27  1  0
 27 28  1  0
 28 29  1  0
 29 30  1  0
 17  9  1  0
 30 25  1  0
 16 11  1  0
M  END
>  <energy_score>  (2040) 
-4.329018

>  <inchikey>  (2040) 
None

>  <smiles>  (2040) 
None

>  <ref_pdb>  (2040) 
A3706b

>  <alias>  (2040) 
None

>  <HIPPO Pose ID>  (2040) 
499684

>  <name>  (2040) 
P499684

>  <HIPPO Compound ID>  (2040) 
310715

>  <ref_mols>  (2040) 
A3706b,A1778a

>  <distance_score>  (2040) 
1.944516

>  <inspiration_score>  (2040) 
None

$$$$
P499685
     RDKit          3D

 31 33  0  0  0  0  0  0  0  0999 V2000
    5.0533   12.6649   30.5153 C   0  0  0  0  0  0  0  0  0  0  0  0
    4.6255   11.9618   29.2181 C   0  0  0  0  0  0  0  0  0  0  0  0
    4.2093   10.5255   29.5542 C   0  0  0  0  0  0  0  0  0  0  0  0
    3.4812   12.7601   28.5831 C   0  0  0  0  0  0  0  0  0  0  0  0
    5.8108   11.9844   28.3827 O   0  0  0  0  0  0  0  0  0  0  0  0
    5.8024   11.4540   27.1264 C   0  0  0  0  0  0  0  0  0  0  0  0
    4.8429   10.9159   26.6498 O   0  0  0  0  0  0  0  0  0  0  0  0
    7.0888   11.6870   26.5877 N   0  0  0  0  0  0  0  0  0  0  0  0
    7.6942   11.2506   25.3192 C   0  0  0  0  0  0  0  0  0  0  0  0
    7.6039    9.9098   24.9614 C   0  0  0  0  0  0  0  0  0  0  0  0
    8.4695    9.3950   23.9914 C   0  0  0  0  0  0  0  0  0  0  0  0
    9.4278   10.2060   23.3829 C   0  0  0  0  0  0  0  0  0  0  0  0
    9.4983   11.5546   23.7036 C   0  0  0  0  0  0  0  0  0  0  0  0
    8.6238   12.0379   24.6628 C   0  0  0  0  0  0  0  0  0  0  0  0
    8.4628   13.4012   25.1308 C   0  0  0  0  0  0  0  0  0  0  0  0
    7.1367   13.1172   25.8405 C   0  0  1  0  0  0  0  0  0  0  0  0
    5.9050   13.4695   24.9831 C   0  0  0  0  0  0  0  0  0  0  0  0
    5.7984   14.9731   24.8478 C   0  0  0  0  0  0  0  0  0  0  0  0
    5.5125   15.6261   25.8079 O   0  0  0  0  0  0  0  0  0  0  0  0
    6.1699   15.3694   23.5276 N   0  0  0  0  0  0  0  0  0  0  0  0
    6.4083   16.6698   22.9657 C   0  0  0  0  0  0  0  0  0  0  0  0
    7.3871   17.5202   23.7852 C   0  0  1  0  0  0  0  0  0  0  0  0
    6.7458   17.9885   24.9848 O   0  0  0  0  0  0  0  0  0  0  0  0
    8.7016   16.8190   24.1884 C   0  0  0  0  0  0  0  0  0  0  0  0
    9.5928   16.2542   23.1588 N   0  0  0  0  0  0  0  0  0  0  0  0
    9.6622   16.8265   21.8111 C   0  0  0  0  0  0  0  0  0  0  0  0
   10.0278   15.7593   20.7842 C   0  0  0  0  0  0  0  0  0  0  0  0
   11.1124   14.8144   21.2943 C   0  0  0  0  0  0  0  0  0  0  0  0
   11.7964   15.3345   22.5451 C   0  0  0  0  0  0  0  0  0  0  0  0
   10.7729   15.6494   23.6210 C   0  0  0  0  0  0  0  0  0  0  0  0
   11.0041   15.4108   24.8058 O   0  0  0  0  0  0  0  0  0  0  0  0
  1  2  1  0
  2  3  1  0
  2  4  1  0
  2  5  1  0
  5  6  1  0
  6  7  2  0
  6  8  1  0
  8  9  1  0
  9 10  2  0
 10 11  1  0
 11 12  2  0
 12 13  1  0
 13 14  2  0
 14 15  1  0
 15 16  1  0
 16 17  1  6
 17 18  1  0
 18 19  2  0
 18 20  1  0
 20 21  1  0
 21 22  1  0
 22 23  1  1
 22 24  1  0
 24 25  1  0
 25 26  1  0
 26 27  1  0
 27 28  1  0
 28 29  1  0
 29 30  1  0
 30 31  2  0
 16  8  1  0
 30 25  1  0
 14  9  1  0
M  END
>  <energy_score>  (2041) 
-6.296613

>  <inchikey>  (2041) 
None

>  <smiles>  (2041) 
None

>  <ref_pdb>  (2041) 
A3706b

>  <alias>  (2041) 
None

>  <HIPPO Pose ID>  (2041) 
499685

>  <name>  (2041) 
P499685

>  <HIPPO Compound ID>  (2041) 
310732

>  <ref_mols>  (2041) 
A3706b,A1778a

>  <distance_score>  (2041) 
1.517178

>  <inspiration_score>  (2041) 
None

$$$$
P499686
     RDKit          3D

 31 33  0  0  0  0  0  0  0  0999 V2000
    9.0019   15.3001   21.3896 C   0  0  0  0  0  0  0  0  0  0  0  0
    9.7120   16.3543   22.2432 C   0  0  2  0  0  0  0  0  0  0  0  0
   11.1489   16.5249   21.7122 C   0  0  0  0  0  0  0  0  0  0  0  0
   12.0545   15.3575   22.0626 C   0  0  0  0  0  0  0  0  0  0  0  0
   11.9507   14.9833   23.5358 C   0  0  0  0  0  0  0  0  0  0  0  0
   10.9407   15.8320   24.3168 C   0  0  0  0  0  0  0  0  0  0  0  0
    9.6268   15.9363   23.6604 N   0  0  0  0  0  0  0  0  0  0  0  0
    8.6918   16.7094   24.5163 C   0  0  0  0  0  0  0  0  0  0  0  0
    7.2822   17.0041   23.9553 C   0  0  0  0  0  0  0  0  0  0  0  0
    6.2288   17.2506   25.0527 C   0  0  0  0  0  0  0  0  0  0  0  0
    5.8252   15.9952   25.6590 N   0  0  0  0  0  0  0  0  0  0  0  0
    6.1516   15.4165   26.9301 C   0  0  0  0  0  0  0  0  0  0  0  0
    6.7767   15.8557   27.8514 O   0  0  0  0  0  0  0  0  0  0  0  0
    5.6701   13.9583   27.0068 C   0  0  0  0  0  0  0  0  0  0  0  0
    6.4080   13.0106   26.0009 C   0  0  1  0  0  0  0  0  0  0  0  0
    7.6622   13.6970   25.4854 C   0  0  0  0  0  0  0  0  0  0  0  0
    8.2126   12.5058   24.8976 C   0  0  0  0  0  0  0  0  0  0  0  0
    9.1879   12.4430   23.9286 C   0  0  0  0  0  0  0  0  0  0  0  0
    9.5447   11.2046   23.4663 C   0  0  0  0  0  0  0  0  0  0  0  0
    8.8775   10.0830   23.9466 C   0  0  0  0  0  0  0  0  0  0  0  0
    9.4274    8.4524   23.2339 Br  0  0  0  0  0  0  0  0  0  0  0  0
    7.8777   10.1699   24.9254 C   0  0  0  0  0  0  0  0  0  0  0  0
    7.5514   11.4224   25.4313 C   0  0  0  0  0  0  0  0  0  0  0  0
    6.7812   11.5703   26.6886 N   0  0  0  0  0  0  0  0  0  0  0  0
    5.6116   10.9179   27.1361 C   0  0  0  0  0  0  0  0  0  0  0  0
    4.8912   10.1418   26.5785 O   0  0  0  0  0  0  0  0  0  0  0  0
    5.4540   11.2600   28.4468 O   0  0  0  0  0  0  0  0  0  0  0  0
    4.3979   10.6995   29.2680 C   0  0  0  0  0  0  0  0  0  0  0  0
    4.6181   11.3226   30.6551 C   0  0  0  0  0  0  0  0  0  0  0  0
    4.5301    9.1781   29.3894 C   0  0  0  0  0  0  0  0  0  0  0  0
    3.0171   11.1207   28.7576 C   0  0  0  0  0  0  0  0  0  0  0  0
  2  1  1  6
  2  3  1  0
  3  4  1  0
  4  5  1  0
  5  6  1  0
  6  7  1  0
  7  8  1  0
  8  9  1  0
  9 10  1  0
 10 11  1  0
 11 12  1  0
 12 13  2  0
 12 14  1  0
 15 14  1  1
 15 16  1  0
 16 17  1  0
 17 18  2  0
 18 19  1  0
 19 20  2  0
 20 21  1  0
 20 22  1  0
 22 23  2  0
 23 24  1  0
 24 25  1  0
 25 26  2  0
 25 27  1  0
 27 28  1  0
 28 29  1  0
 28 30  1  0
 28 31  1  0
  7  2  1  0
 24 15  1  0
 23 17  1  0
M  END
>  <energy_score>  (2042) 
-2.727267

>  <inchikey>  (2042) 
None

>  <smiles>  (2042) 
None

>  <ref_pdb>  (2042) 
A3706b

>  <alias>  (2042) 
None

>  <HIPPO Pose ID>  (2042) 
499686

>  <name>  (2042) 
P499686

>  <HIPPO Compound ID>  (2042) 
310770

>  <ref_mols>  (2042) 
A3706b,A1778a

>  <distance_score>  (2042) 
1.891715

>  <inspiration_score>  (2042) 
None

$$$$
P499687
     RDKit          3D

 23 26  0  0  0  0  0  0  0  0999 V2000
    6.0406   14.1165   26.4388 C   0  0  0  0  0  0  0  0  0  0  0  0
    6.5650   12.8380   25.8887 C   0  0  0  0  0  0  0  0  0  0  0  0
    7.5523   12.5726   24.9598 C   0  0  0  0  0  0  0  0  0  0  0  0
    8.4136   13.4385   24.3334 N   0  0  0  0  0  0  0  0  0  0  0  0
    8.7730   14.7963   24.6365 C   0  0  0  0  0  0  0  0  0  0  0  0
    8.4722   15.4994   25.5634 O   0  0  0  0  0  0  0  0  0  0  0  0
    9.6078   15.4638   23.5042 C   0  0  2  0  0  0  0  0  0  0  0  0
    8.7528   15.8747   22.2860 C   0  0  2  0  0  0  0  0  0  0  0  0
    8.5351   14.6624   21.3993 C   0  0  0  0  0  0  0  0  0  0  0  0
    9.8988   14.1793   20.9133 C   0  0  2  0  0  0  0  0  0  0  0  0
   10.7811   13.7044   22.0656 C   0  0  0  0  0  0  0  0  0  0  0  0
   10.9495   14.8769   23.0210 C   0  0  1  0  0  0  0  0  0  0  0  0
   11.6374   15.9891   22.1751 C   0  0  0  0  0  0  0  0  0  0  0  0
   10.8389   16.3971   21.0028 N   0  0  0  0  0  0  0  0  0  0  0  0
   10.6448   15.2516   20.1200 C   0  0  0  0  0  0  0  0  0  0  0  0
    9.5156   16.8962   21.4095 C   0  0  0  0  0  0  0  0  0  0  0  0
    7.4887   11.1754   24.7629 C   0  0  0  0  0  0  0  0  0  0  0  0
    6.6066   10.5836   25.5698 N   0  0  0  0  0  0  0  0  0  0  0  0
    6.0851   11.6071   26.2752 N   0  0  0  0  0  0  0  0  0  0  0  0
    5.2360   11.3016   27.4065 C   0  0  0  0  0  0  0  0  0  0  0  0
    3.8289   10.9919   26.9878 C   0  0  0  0  0  0  0  0  0  0  0  0
    3.2268   12.1076   26.4959 F   0  0  0  0  0  0  0  0  0  0  0  0
    3.1066   10.6425   28.0861 F   0  0  0  0  0  0  0  0  0  0  0  0
  1  2  1  0
  2  3  2  0
  3  4  1  0
  4  5  1  0
  5  6  2  0
  7  5  1  6
  7  8  1  0
  8  9  1  6
 10  9  1  1
 10 11  1  0
 12 11  1  6
 12 13  1  0
 14 13  1  0
 14 15  1  0
 14 16  1  0
  3 17  1  0
 17 18  2  0
 18 19  1  0
 19 20  1  0
 20 21  1  0
 21 22  1  0
 21 23  1  0
 19  2  1  0
 12  7  1  0
 16  8  1  0
 15 10  1  0
M  END
>  <energy_score>  (2043) 
-53.303084

>  <inchikey>  (2043) 
None

>  <smiles>  (2043) 
None

>  <ref_pdb>  (2043) 
A3618a

>  <alias>  (2043) 
None

>  <HIPPO Pose ID>  (2043) 
499687

>  <name>  (2043) 
P499687

>  <HIPPO Compound ID>  (2043) 
310875

>  <ref_mols>  (2043) 
A2304a,A3618a

>  <distance_score>  (2043) 
1.85167

>  <inspiration_score>  (2043) 
None

$$$$
P499688
     RDKit          3D

 24 27  0  0  0  0  0  0  0  0999 V2000
    4.1498   11.0400   28.5038 C   0  0  0  0  0  0  0  0  0  0  0  0
    3.9951   11.6415   27.1159 C   0  0  2  0  0  0  0  0  0  0  0  0
    5.2833   11.8242   26.4643 N   0  0  0  0  0  0  0  0  0  0  0  0
    6.0551   12.9562   26.3787 C   0  0  0  0  0  0  0  0  0  0  0  0
    6.8512   12.7509   25.2818 C   0  0  0  0  0  0  0  0  0  0  0  0
    7.5692   13.6892   24.6089 N   0  0  0  0  0  0  0  0  0  0  0  0
    7.9392   13.7865   23.1073 C   0  0  0  0  0  0  0  0  0  0  0  0
    7.6205   13.1187   22.2063 O   0  0  0  0  0  0  0  0  0  0  0  0
    8.9558   14.9419   22.9585 C   0  0  2  0  0  0  0  0  0  0  0  0
    8.9103   15.6076   21.5721 C   0  0  1  0  0  0  0  0  0  0  0  0
    9.8180   16.8170   21.4913 C   0  0  0  0  0  0  0  0  0  0  0  0
   11.2523   16.4027   21.8616 C   0  0  1  0  0  0  0  0  0  0  0  0
   11.3017   15.6676   23.2204 C   0  0  0  0  0  0  0  0  0  0  0  0
   10.3949   14.4472   23.2000 C   0  0  2  0  0  0  0  0  0  0  0  0
   10.9078   13.5763   22.0505 C   0  0  0  0  0  0  0  0  0  0  0  0
   10.8546   14.2931   20.7723 N   0  0  0  0  0  0  0  0  0  0  0  0
   11.7348   15.4493   20.7670 C   0  0  0  0  0  0  0  0  0  0  0  0
    9.4826   14.7068   20.4977 C   0  0  0  0  0  0  0  0  0  0  0  0
    6.6887   11.3916   24.9588 C   0  0  0  0  0  0  0  0  0  0  0  0
    5.7902   10.7962   25.7480 N   0  0  0  0  0  0  0  0  0  0  0  0
    3.1729   12.9152   27.1398 C   0  0  0  0  0  0  0  0  0  0  0  0
    1.9215   12.6766   27.6049 F   0  0  0  0  0  0  0  0  0  0  0  0
    3.7108   13.8603   27.9446 F   0  0  0  0  0  0  0  0  0  0  0  0
    3.0233   13.4556   25.9107 F   0  0  0  0  0  0  0  0  0  0  0  0
  2  1  1  1
  2  3  1  0
  3  4  1  0
  4  5  2  0
  5  6  1  0
  6  7  1  0
  7  8  2  0
  9  7  1  6
  9 10  1  0
 10 11  1  1
 12 11  1  6
 12 13  1  0
 14 13  1  6
 14 15  1  0
 16 15  1  0
 16 17  1  0
 16 18  1  0
  5 19  1  0
 19 20  2  0
  2 21  1  0
 21 22  1  0
 21 23  1  0
 21 24  1  0
 20  3  1  0
 14  9  1  0
 18 10  1  0
 17 12  1  0
M  END
>  <energy_score>  (2044) 
-24.674054

>  <inchikey>  (2044) 
None

>  <smiles>  (2044) 
None

>  <ref_pdb>  (2044) 
A3618a

>  <alias>  (2044) 
None

>  <HIPPO Pose ID>  (2044) 
499688

>  <name>  (2044) 
P499688

>  <HIPPO Compound ID>  (2044) 
310878

>  <ref_mols>  (2044) 
A2304a,A3618a

>  <distance_score>  (2044) 
1.903581

>  <inspiration_score>  (2044) 
None

$$$$
P499689
     RDKit          3D

 27 29  0  0  0  0  0  0  0  0999 V2000
    7.1918   10.1018   25.9995 O   0  0  0  0  0  0  0  0  0  0  0  0
    7.0374   11.0340   25.2684 C   0  0  0  0  0  0  0  0  0  0  0  0
    8.1392   11.3203   24.2611 C   0  0  0  0  0  0  0  0  0  0  0  0
    8.6968   12.7407   24.3062 C   0  0  0  0  0  0  0  0  0  0  0  0
    8.1570   13.5353   23.1263 C   0  0  0  0  0  0  0  0  0  0  0  0
    7.0665   13.2828   22.6855 O   0  0  0  0  0  0  0  0  0  0  0  0
    9.1170   14.4995   22.7203 N   0  0  0  0  0  0  0  0  0  0  0  0
   10.0576   13.8977   21.7038 C   0  0  0  0  0  0  0  0  0  0  0  0
   11.4949   14.3761   21.8450 C   0  0  0  0  0  0  0  0  0  0  0  0
   11.5077   15.8784   21.9236 C   0  0  0  0  0  0  0  0  0  0  0  0
   12.6642   16.3988   21.3068 O   0  0  0  0  0  0  0  0  0  0  0  0
   10.2725   16.3861   21.2225 C   0  0  0  0  0  0  0  0  0  0  0  0
    9.0371   15.5973   21.6762 C   0  0  0  0  0  0  0  0  0  0  0  0
    6.0054   12.0123   25.2141 N   0  0  0  0  0  0  0  0  0  0  0  0
    4.9387   12.2307   26.0304 C   0  0  0  0  0  0  0  0  0  0  0  0
    4.4687   11.4571   27.1106 C   0  0  0  0  0  0  0  0  0  0  0  0
    3.4169   12.0235   27.7124 N   0  0  0  0  0  0  0  0  0  0  0  0
    3.1688   13.1103   26.9578 N   0  0  0  0  0  0  0  0  0  0  0  0
    2.0395   13.9371   27.2890 C   0  0  0  0  0  0  0  0  0  0  0  0
    0.7371   13.2715   26.9471 C   0  0  0  0  0  0  0  0  0  0  0  0
   -0.2683   14.1832   27.0430 F   0  0  0  0  0  0  0  0  0  0  0  0
    0.6938   12.8037   25.6770 F   0  0  0  0  0  0  0  0  0  0  0  0
    0.4071   12.2597   27.7740 F   0  0  0  0  0  0  0  0  0  0  0  0
    4.0988   13.3132   25.9772 C   0  0  0  0  0  0  0  0  0  0  0  0
    4.1993   14.4881   24.9690 C   0  0  0  0  0  0  0  0  0  0  0  0
    5.4946   15.2595   24.8864 C   0  0  0  0  0  0  0  0  0  0  0  0
    4.2775   15.9072   25.4696 C   0  0  0  0  0  0  0  0  0  0  0  0
  1  2  2  0
  2  3  1  0
  3  4  1  0
  4  5  1  0
  5  6  2  0
  5  7  1  0
  7  8  1  0
  8  9  1  0
  9 10  1  0
 10 11  1  0
 10 12  1  0
 12 13  1  0
  2 14  1  0
 14 15  1  0
 15 16  1  0
 16 17  2  0
 17 18  1  0
 18 19  1  0
 19 20  1  0
 20 21  1  0
 20 22  1  0
 20 23  1  0
 18 24  1  0
 24 25  1  0
 25 26  1  0
 26 27  1  0
 13  7  1  0
 24 15  2  0
 27 25  1  0
M  END
>  <energy_score>  (2045) 
-5.677098

>  <inchikey>  (2045) 
None

>  <smiles>  (2045) 
None

>  <ref_pdb>  (2045) 
A3618a

>  <alias>  (2045) 
None

>  <HIPPO Pose ID>  (2045) 
499689

>  <name>  (2045) 
P499689

>  <HIPPO Compound ID>  (2045) 
310898

>  <ref_mols>  (2045) 
A2304a,A3618a

>  <distance_score>  (2045) 
1.982191

>  <inspiration_score>  (2045) 
None

$$$$
P499690
     RDKit          3D

 28 31  0  0  0  0  0  0  0  0999 V2000
   10.0574   16.7752   20.0669 O   0  0  0  0  0  0  0  0  0  0  0  0
   10.1186   15.5949   20.3723 C   0  0  0  0  0  0  0  0  0  0  0  0
   10.6080   14.6910   19.4914 O   0  0  0  0  0  0  0  0  0  0  0  0
    9.7372   15.0233   21.7624 C   0  0  1  0  0  0  0  0  0  0  0  0
    8.3892   14.3150   21.7388 N   0  0  0  0  0  0  0  0  0  0  0  0
    7.2992   15.2208   21.3534 C   0  0  0  0  0  0  0  0  0  0  0  0
    6.2475   15.7031   22.3520 C   0  0  0  0  0  0  0  0  0  0  0  0
    5.6985   14.5380   23.1389 C   0  0  0  0  0  0  0  0  0  0  0  0
    6.8787   13.9413   23.8699 C   0  0  1  0  0  0  0  0  0  0  0  0
    6.3726   12.6238   25.0233 S   0  0  0  0  0  0  0  0  0  0  0  0
    5.1434   12.9385   25.7128 O   0  0  0  0  0  0  0  0  0  0  0  0
    6.5157   11.3327   24.3900 O   0  0  0  0  0  0  0  0  0  0  0  0
    7.5825   12.7937   26.1927 N   0  0  0  0  0  0  0  0  0  0  0  0
    7.6644   14.1433   26.8611 C   0  0  0  0  0  0  0  0  0  0  0  0
    9.1073   14.6510   26.6458 C   0  0  0  0  0  0  0  0  0  0  0  0
    9.7619   13.5103   25.9321 C   0  0  0  0  0  0  0  0  0  0  0  0
   11.0760   13.3881   25.5538 C   0  0  0  0  0  0  0  0  0  0  0  0
   11.4576   12.1977   24.9439 C   0  0  0  0  0  0  0  0  0  0  0  0
   10.5260   11.1523   24.7005 C   0  0  0  0  0  0  0  0  0  0  0  0
    9.2259   11.2687   25.1265 C   0  0  0  0  0  0  0  0  0  0  0  0
    8.8713   12.4610   25.7182 C   0  0  0  0  0  0  0  0  0  0  0  0
    7.9863   13.4766   22.8838 C   0  0  0  0  0  0  0  0  0  0  0  0
   10.9875   14.2288   22.2115 C   0  0  0  0  0  0  0  0  0  0  0  0
   12.0290   15.2700   22.6321 C   0  0  0  0  0  0  0  0  0  0  0  0
   11.2569   16.5412   22.9221 C   0  0  0  0  0  0  0  0  0  0  0  0
    9.8115   16.1419   22.7926 C   0  0  0  0  0  0  0  0  0  0  0  0
    9.4465   15.6093   23.9925 F   0  0  0  0  0  0  0  0  0  0  0  0
    8.9784   17.1626   22.5843 F   0  0  0  0  0  0  0  0  0  0  0  0
  1  2  2  0
  2  3  1  0
  2  4  1  0
  4  5  1  6
  5  6  1  0
  6  7  1  0
  7  8  1  0
  8  9  1  0
  9 10  1  6
 10 11  2  0
 10 12  2  0
 10 13  1  0
 13 14  1  0
 14 15  1  0
 15 16  1  0
 16 17  2  0
 17 18  1  0
 18 19  2  0
 19 20  1  0
 20 21  2  0
  9 22  1  0
  4 23  1  0
 23 24  1  0
 24 25  1  0
 25 26  1  0
 26 27  1  0
 26 28  1  0
 26  4  1  0
 22  5  1  0
 21 13  1  0
 21 16  1  0
M  END
>  <energy_score>  (2046) 
-47.712939

>  <inchikey>  (2046) 
None

>  <smiles>  (2046) 
None

>  <ref_pdb>  (2046) 
A3868a

>  <alias>  (2046) 
None

>  <HIPPO Pose ID>  (2046) 
499690

>  <name>  (2046) 
P499690

>  <HIPPO Compound ID>  (2046) 
311034

>  <ref_mols>  (2046) 
A1778a,A3868a

>  <distance_score>  (2046) 
1.819903

>  <inspiration_score>  (2046) 
None

$$$$
P499691
     RDKit          3D

 28 31  0  0  0  0  0  0  0  0999 V2000
    9.7294   16.0769   18.2898 N   0  0  0  0  0  0  0  0  0  0  0  0
    9.9570   15.6499   19.3405 C   0  0  0  0  0  0  0  0  0  0  0  0
   10.5241   15.2097   20.5994 C   0  0  1  0  0  0  0  0  0  0  0  0
   11.5540   16.2861   20.9277 C   0  0  0  0  0  0  0  0  0  0  0  0
   12.2914   15.9862   22.1898 C   0  0  0  0  0  0  0  0  0  0  0  0
   11.2857   16.0846   23.2900 C   0  0  0  0  0  0  0  0  0  0  0  0
   10.2928   14.9741   23.1016 C   0  0  0  0  0  0  0  0  0  0  0  0
   10.9703   13.8231   23.3822 F   0  0  0  0  0  0  0  0  0  0  0  0
    9.3729   15.1487   24.0766 F   0  0  0  0  0  0  0  0  0  0  0  0
    9.5770   14.7422   21.7603 C   0  0  1  0  0  0  0  0  0  0  0  0
    8.0650   14.8586   21.8360 N   0  0  0  0  0  0  0  0  0  0  0  0
    7.5977   16.2328   22.0800 C   0  0  0  0  0  0  0  0  0  0  0  0
    6.0611   16.2640   22.2433 C   0  0  0  0  0  0  0  0  0  0  0  0
    5.5022   15.3690   23.3647 C   0  0  0  0  0  0  0  0  0  0  0  0
    6.6347   14.5751   23.9927 C   0  0  1  0  0  0  0  0  0  0  0  0
    6.1348   13.5631   25.4075 S   0  0  0  0  0  0  0  0  0  0  0  0
    5.4762   12.3354   25.0327 O   0  0  0  0  0  0  0  0  0  0  0  0
    5.4971   14.4562   26.3589 O   0  0  0  0  0  0  0  0  0  0  0  0
    7.6032   13.1428   26.1082 N   0  0  0  0  0  0  0  0  0  0  0  0
    8.5296   14.2594   26.4781 C   0  0  0  0  0  0  0  0  0  0  0  0
    9.9352   13.7680   26.0984 C   0  0  0  0  0  0  0  0  0  0  0  0
    9.6707   12.4681   25.4043 C   0  0  0  0  0  0  0  0  0  0  0  0
   10.5518   11.6211   24.7722 C   0  0  0  0  0  0  0  0  0  0  0  0
   10.0944   10.3763   24.2994 C   0  0  0  0  0  0  0  0  0  0  0  0
    8.7654   10.0010   24.4228 C   0  0  0  0  0  0  0  0  0  0  0  0
    7.8838   10.8647   25.0460 C   0  0  0  0  0  0  0  0  0  0  0  0
    8.3437   12.1025   25.4860 C   0  0  0  0  0  0  0  0  0  0  0  0
    7.4484   13.9110   22.8625 C   0  0  0  0  0  0  0  0  0  0  0  0
  1  2  3  0
  3  2  1  6
  3  4  1  0
  4  5  1  0
  5  6  1  0
  6  7  1  0
  7  8  1  0
  7  9  1  0
  7 10  1  0
 10 11  1  1
 11 12  1  0
 12 13  1  0
 13 14  1  0
 14 15  1  0
 15 16  1  1
 16 17  2  0
 16 18  2  0
 16 19  1  0
 19 20  1  0
 20 21  1  0
 21 22  1  0
 22 23  2  0
 23 24  1  0
 24 25  2  0
 25 26  1  0
 26 27  2  0
 15 28  1  0
 10  3  1  0
 28 11  1  0
 27 19  1  0
 27 22  1  0
M  END
>  <energy_score>  (2047) 
-2.516081

>  <inchikey>  (2047) 
None

>  <smiles>  (2047) 
None

>  <ref_pdb>  (2047) 
A3868a

>  <alias>  (2047) 
None

>  <HIPPO Pose ID>  (2047) 
499691

>  <name>  (2047) 
P499691

>  <HIPPO Compound ID>  (2047) 
311035

>  <ref_mols>  (2047) 
A1778a,A3868a

>  <distance_score>  (2047) 
1.437391

>  <inspiration_score>  (2047) 
None

$$$$
P499692
     RDKit          3D

 28 31  0  0  0  0  0  0  0  0999 V2000
   11.2994   14.5537   19.0056 N   0  0  0  0  0  0  0  0  0  0  0  0
   10.5138   14.9262   19.7749 C   0  0  0  0  0  0  0  0  0  0  0  0
    9.6159   15.7663   20.5739 C   0  0  2  0  0  0  0  0  0  0  0  0
   10.4379   17.0262   20.8397 C   0  0  0  0  0  0  0  0  0  0  0  0
   11.6527   16.6971   21.7033 C   0  0  0  0  0  0  0  0  0  0  0  0
   11.1896   16.1628   23.0368 C   0  0  0  0  0  0  0  0  0  0  0  0
   10.0512   15.1615   22.9485 C   0  0  0  0  0  0  0  0  0  0  0  0
   10.5713   13.9136   22.9060 F   0  0  0  0  0  0  0  0  0  0  0  0
    9.3938   15.3042   24.1346 F   0  0  0  0  0  0  0  0  0  0  0  0
    8.9527   15.3306   21.8955 C   0  0  2  0  0  0  0  0  0  0  0  0
    7.7936   14.3097   21.8595 N   0  0  0  0  0  0  0  0  0  0  0  0
    6.5670   14.9253   21.3276 C   0  0  0  0  0  0  0  0  0  0  0  0
    5.2212   14.4722   21.8768 C   0  0  0  0  0  0  0  0  0  0  0  0
    5.1314   14.6295   23.3845 C   0  0  0  0  0  0  0  0  0  0  0  0
    6.4486   14.2813   24.0825 C   0  0  1  0  0  0  0  0  0  0  0  0
    6.1183   13.3555   25.6277 S   0  0  0  0  0  0  0  0  0  0  0  0
    5.4468   12.0972   25.3798 O   0  0  0  0  0  0  0  0  0  0  0  0
    5.5313   14.3018   26.5598 O   0  0  0  0  0  0  0  0  0  0  0  0
    7.6478   13.0149   26.2315 N   0  0  0  0  0  0  0  0  0  0  0  0
    8.5637   14.1930   26.4267 C   0  0  0  0  0  0  0  0  0  0  0  0
    9.9599   13.7028   26.0061 C   0  0  0  0  0  0  0  0  0  0  0  0
    9.6693   12.3860   25.3697 C   0  0  0  0  0  0  0  0  0  0  0  0
   10.4901   11.6104   24.5948 C   0  0  0  0  0  0  0  0  0  0  0  0
   10.0197   10.3665   24.1360 C   0  0  0  0  0  0  0  0  0  0  0  0
    8.7439    9.9147   24.4420 C   0  0  0  0  0  0  0  0  0  0  0  0
    7.9121   10.7197   25.1965 C   0  0  0  0  0  0  0  0  0  0  0  0
    8.3723   11.9689   25.5941 C   0  0  0  0  0  0  0  0  0  0  0  0
    7.4679   13.6180   23.1356 C   0  0  0  0  0  0  0  0  0  0  0  0
  1  2  3  0
  3  2  1  1
  3  4  1  0
  4  5  1  0
  5  6  1  0
  6  7  1  0
  7  8  1  0
  7  9  1  0
  7 10  1  0
 10 11  1  6
 11 12  1  0
 12 13  1  0
 13 14  1  0
 14 15  1  0
 15 16  1  1
 16 17  2  0
 16 18  2  0
 16 19  1  0
 19 20  1  0
 20 21  1  0
 21 22  1  0
 22 23  2  0
 23 24  1  0
 24 25  2  0
 25 26  1  0
 26 27  2  0
 15 28  1  0
 10  3  1  0
 28 11  1  0
 27 19  1  0
 27 22  1  0
M  END
>  <energy_score>  (2048) 
-41.57369

>  <inchikey>  (2048) 
None

>  <smiles>  (2048) 
None

>  <ref_pdb>  (2048) 
A3868a

>  <alias>  (2048) 
None

>  <HIPPO Pose ID>  (2048) 
499692

>  <name>  (2048) 
P499692

>  <HIPPO Compound ID>  (2048) 
311035

>  <ref_mols>  (2048) 
A1778a,A3868a

>  <distance_score>  (2048) 
1.571647

>  <inspiration_score>  (2048) 
None

$$$$
P499693
     RDKit          3D

 28 31  0  0  0  0  0  0  0  0999 V2000
    9.9861   15.8270   18.3701 N   0  0  0  0  0  0  0  0  0  0  0  0
    9.9452   15.9709   19.5163 C   0  0  0  0  0  0  0  0  0  0  0  0
   10.0716   16.2611   20.9425 C   0  0  2  0  0  0  0  0  0  0  0  0
   11.5948   16.5231   21.1107 C   0  0  0  0  0  0  0  0  0  0  0  0
   12.2811   15.7495   22.1953 C   0  0  0  0  0  0  0  0  0  0  0  0
   11.4480   15.9015   23.4196 C   0  0  0  0  0  0  0  0  0  0  0  0
   10.1733   15.1459   23.1910 C   0  0  0  0  0  0  0  0  0  0  0  0
   10.4985   13.8417   23.4215 F   0  0  0  0  0  0  0  0  0  0  0  0
    9.3238   15.5489   24.1700 F   0  0  0  0  0  0  0  0  0  0  0  0
    9.4553   15.1356   21.8378 C   0  0  1  0  0  0  0  0  0  0  0  0
    7.9262   14.9885   21.9844 N   0  0  0  0  0  0  0  0  0  0  0  0
    7.2655   16.2702   22.2758 C   0  0  0  0  0  0  0  0  0  0  0  0
    5.7394   16.1218   22.4346 C   0  0  0  0  0  0  0  0  0  0  0  0
    5.2771   14.9817   23.3568 C   0  0  0  0  0  0  0  0  0  0  0  0
    6.4869   14.4180   24.0678 C   0  0  1  0  0  0  0  0  0  0  0  0
    6.0694   13.3571   25.4694 S   0  0  0  0  0  0  0  0  0  0  0  0
    5.4459   12.1106   25.0981 O   0  0  0  0  0  0  0  0  0  0  0  0
    5.4153   14.2096   26.4475 O   0  0  0  0  0  0  0  0  0  0  0  0
    7.5644   12.9949   26.1282 N   0  0  0  0  0  0  0  0  0  0  0  0
    8.4564   14.1497   26.4564 C   0  0  0  0  0  0  0  0  0  0  0  0
    9.8681   13.6943   26.0735 C   0  0  0  0  0  0  0  0  0  0  0  0
    9.6373   12.3781   25.4018 C   0  0  0  0  0  0  0  0  0  0  0  0
   10.5356   11.5638   24.7526 C   0  0  0  0  0  0  0  0  0  0  0  0
   10.1081   10.3092   24.2788 C   0  0  0  0  0  0  0  0  0  0  0  0
    8.7917    9.8962   24.4117 C   0  0  0  0  0  0  0  0  0  0  0  0
    7.8931   10.7296   25.0500 C   0  0  0  0  0  0  0  0  0  0  0  0
    8.3227   11.9759   25.4935 C   0  0  0  0  0  0  0  0  0  0  0  0
    7.4818   13.9303   22.9856 C   0  0  0  0  0  0  0  0  0  0  0  0
  1  2  3  0
  3  2  1  6
  3  4  1  0
  4  5  1  0
  5  6  1  0
  6  7  1  0
  7  8  1  0
  7  9  1  0
  7 10  1  0
 10 11  1  1
 11 12  1  0
 12 13  1  0
 13 14  1  0
 14 15  1  0
 15 16  1  1
 16 17  2  0
 16 18  2  0
 16 19  1  0
 19 20  1  0
 20 21  1  0
 21 22  1  0
 22 23  2  0
 23 24  1  0
 24 25  2  0
 25 26  1  0
 26 27  2  0
 15 28  1  0
 10  3  1  0
 28 11  1  0
 27 19  1  0
 27 22  1  0
M  END
>  <energy_score>  (2049) 
-25.125206

>  <inchikey>  (2049) 
None

>  <smiles>  (2049) 
None

>  <ref_pdb>  (2049) 
A3868a

>  <alias>  (2049) 
None

>  <HIPPO Pose ID>  (2049) 
499693

>  <name>  (2049) 
P499693

>  <HIPPO Compound ID>  (2049) 
311035

>  <ref_mols>  (2049) 
A1778a,A3868a

>  <distance_score>  (2049) 
1.563767

>  <inspiration_score>  (2049) 
None

$$$$
P499694
     RDKit          3D

 28 31  0  0  0  0  0  0  0  0999 V2000
   10.1121   16.7420   18.8223 N   0  0  0  0  0  0  0  0  0  0  0  0
   10.1286   15.9636   19.6766 C   0  0  0  0  0  0  0  0  0  0  0  0
   10.4003   14.8750   20.5958 C   0  0  1  0  0  0  0  0  0  0  0  0
   11.8988   14.9438   20.9338 C   0  0  0  0  0  0  0  0  0  0  0  0
   12.2470   16.1300   21.8321 C   0  0  0  0  0  0  0  0  0  0  0  0
   11.0884   16.5345   22.7209 C   0  0  0  0  0  0  0  0  0  0  0  0
   10.2619   15.3373   23.0676 C   0  0  0  0  0  0  0  0  0  0  0  0
   11.1060   14.4016   23.6047 F   0  0  0  0  0  0  0  0  0  0  0  0
    9.3946   15.6829   24.0491 F   0  0  0  0  0  0  0  0  0  0  0  0
    9.5506   14.6611   21.8815 C   0  0  1  0  0  0  0  0  0  0  0  0
    8.0380   14.6166   21.9082 N   0  0  0  0  0  0  0  0  0  0  0  0
    7.4134   15.9406   22.0261 C   0  0  0  0  0  0  0  0  0  0  0  0
    5.8781   15.7838   22.0533 C   0  0  0  0  0  0  0  0  0  0  0  0
    5.3491   14.8835   23.1916 C   0  0  0  0  0  0  0  0  0  0  0  0
    6.5120   14.3373   24.0011 C   0  0  1  0  0  0  0  0  0  0  0  0
    6.0787   13.2140   25.3624 S   0  0  0  0  0  0  0  0  0  0  0  0
    5.2977   13.9240   26.3453 O   0  0  0  0  0  0  0  0  0  0  0  0
    5.5930   11.9551   24.8665 O   0  0  0  0  0  0  0  0  0  0  0  0
    7.5558   12.9323   26.1208 N   0  0  0  0  0  0  0  0  0  0  0  0
    8.3982   14.1298   26.4407 C   0  0  0  0  0  0  0  0  0  0  0  0
    9.8290   13.7395   26.0453 C   0  0  0  0  0  0  0  0  0  0  0  0
    9.6542   12.4144   25.3753 C   0  0  0  0  0  0  0  0  0  0  0  0
   10.5552   11.6463   24.6837 C   0  0  0  0  0  0  0  0  0  0  0  0
   10.1585   10.3590   24.2538 C   0  0  0  0  0  0  0  0  0  0  0  0
    8.8813    9.8668   24.4651 C   0  0  0  0  0  0  0  0  0  0  0  0
    7.9813   10.6556   25.1414 C   0  0  0  0  0  0  0  0  0  0  0  0
    8.3699   11.9321   25.5322 C   0  0  0  0  0  0  0  0  0  0  0  0
    7.5586   13.7511   23.0382 C   0  0  0  0  0  0  0  0  0  0  0  0
  1  2  3  0
  3  2  1  1
  3  4  1  0
  4  5  1  0
  5  6  1  0
  6  7  1  0
  7  8  1  0
  7  9  1  0
  7 10  1  0
 10 11  1  6
 11 12  1  0
 12 13  1  0
 13 14  1  0
 14 15  1  0
 15 16  1  1
 16 17  2  0
 16 18  2  0
 16 19  1  0
 19 20  1  0
 20 21  1  0
 21 22  1  0
 22 23  2  0
 23 24  1  0
 24 25  2  0
 25 26  1  0
 26 27  2  0
 15 28  1  0
 10  3  1  0
 28 11  1  0
 27 19  1  0
 27 22  1  0
M  END
>  <energy_score>  (2050) 
-20.065452

>  <inchikey>  (2050) 
None

>  <smiles>  (2050) 
None

>  <ref_pdb>  (2050) 
A3868a

>  <alias>  (2050) 
None

>  <HIPPO Pose ID>  (2050) 
499694

>  <name>  (2050) 
P499694

>  <HIPPO Compound ID>  (2050) 
311035

>  <ref_mols>  (2050) 
A1778a,A3868a

>  <distance_score>  (2050) 
1.543615

>  <inspiration_score>  (2050) 
None

$$$$
P499695
     RDKit          3D

 28 31  0  0  0  0  0  0  0  0999 V2000
    9.7011   16.4587   18.6187 O   0  0  0  0  0  0  0  0  0  0  0  0
   10.3983   15.6925   19.2526 C   0  0  0  0  0  0  0  0  0  0  0  0
   11.0026   14.6924   18.5834 O   0  0  0  0  0  0  0  0  0  0  0  0
   10.7465   15.8057   20.7139 C   0  0  2  0  0  0  0  0  0  0  0  0
   11.5583   14.6753   21.3065 C   0  0  0  0  0  0  0  0  0  0  0  0
   12.0013   15.2990   22.6108 C   0  0  0  0  0  0  0  0  0  0  0  0
   10.7720   16.0663   23.0763 C   0  0  0  0  0  0  0  0  0  0  0  0
   11.2093   17.2399   23.5622 F   0  0  0  0  0  0  0  0  0  0  0  0
   10.1886   15.4636   24.1245 F   0  0  0  0  0  0  0  0  0  0  0  0
    9.7767   16.2019   21.8746 C   0  0  2  0  0  0  0  0  0  0  0  0
    8.3862   15.5998   22.0425 N   0  0  0  0  0  0  0  0  0  0  0  0
    7.4771   16.6880   22.4769 C   0  0  0  0  0  0  0  0  0  0  0  0
    6.0425   16.2195   22.6996 C   0  0  0  0  0  0  0  0  0  0  0  0
    5.9057   15.1324   23.7613 C   0  0  0  0  0  0  0  0  0  0  0  0
    7.2600   14.5314   24.1589 C   0  0  1  0  0  0  0  0  0  0  0  0
    6.9416   12.9704   25.0930 S   0  0  0  0  0  0  0  0  0  0  0  0
    6.1256   13.2420   26.2575 O   0  0  0  0  0  0  0  0  0  0  0  0
    6.4771   12.0041   24.1245 O   0  0  0  0  0  0  0  0  0  0  0  0
    8.4240   12.4160   25.7609 N   0  0  0  0  0  0  0  0  0  0  0  0
    9.5669   13.3849   25.7561 C   0  0  0  0  0  0  0  0  0  0  0  0
   10.5727   12.8569   24.7391 C   0  0  0  0  0  0  0  0  0  0  0  0
    9.8904   11.6532   24.2344 C   0  0  0  0  0  0  0  0  0  0  0  0
   10.0023   11.0210   23.0368 C   0  0  0  0  0  0  0  0  0  0  0  0
    9.4858    9.7436   22.8996 C   0  0  0  0  0  0  0  0  0  0  0  0
    8.6355    9.2377   23.8703 C   0  0  0  0  0  0  0  0  0  0  0  0
    8.2445   10.0477   24.9228 C   0  0  0  0  0  0  0  0  0  0  0  0
    8.8772   11.2656   25.0570 C   0  0  0  0  0  0  0  0  0  0  0  0
    8.1225   14.3686   22.8551 C   0  0  0  0  0  0  0  0  0  0  0  0
  1  2  2  0
  2  3  1  0
  4  2  1  6
  4  5  1  0
  5  6  1  0
  6  7  1  0
  7  8  1  0
  7  9  1  0
  7 10  1  0
 10 11  1  1
 11 12  1  0
 12 13  1  0
 13 14  1  0
 14 15  1  0
 15 16  1  6
 16 17  2  0
 16 18  2  0
 16 19  1  0
 19 20  1  0
 20 21  1  0
 21 22  1  0
 22 23  2  0
 23 24  1  0
 24 25  2  0
 25 26  1  0
 26 27  2  0
 15 28  1  0
 10  4  1  0
 28 11  1  0
 27 19  1  0
 27 22  1  0
M  END
>  <energy_score>  (2051) 
-8.982184

>  <inchikey>  (2051) 
None

>  <smiles>  (2051) 
None

>  <ref_pdb>  (2051) 
A3868a

>  <alias>  (2051) 
None

>  <HIPPO Pose ID>  (2051) 
499695

>  <name>  (2051) 
P499695

>  <HIPPO Compound ID>  (2051) 
311036

>  <ref_mols>  (2051) 
A1778a,A3868a

>  <distance_score>  (2051) 
1.619195

>  <inspiration_score>  (2051) 
None

$$$$
P499696
     RDKit          3D

 28 31  0  0  0  0  0  0  0  0999 V2000
    9.7961   17.5712   20.5296 O   0  0  0  0  0  0  0  0  0  0  0  0
    9.7560   16.3570   20.5016 C   0  0  0  0  0  0  0  0  0  0  0  0
    9.7445   15.6877   19.3366 O   0  0  0  0  0  0  0  0  0  0  0  0
    9.8186   15.4140   21.6781 C   0  0  1  0  0  0  0  0  0  0  0  0
   11.2844   14.9278   21.6438 C   0  0  0  0  0  0  0  0  0  0  0  0
   12.0107   15.9828   22.4457 C   0  0  0  0  0  0  0  0  0  0  0  0
   11.0606   16.1688   23.5928 C   0  0  0  0  0  0  0  0  0  0  0  0
   11.3972   17.2225   24.3466 F   0  0  0  0  0  0  0  0  0  0  0  0
   11.2141   15.0903   24.4075 F   0  0  0  0  0  0  0  0  0  0  0  0
    9.6031   16.1904   23.0248 C   0  0  2  0  0  0  0  0  0  0  0  0
    8.6435   15.7060   24.0933 N   0  0  0  0  0  0  0  0  0  0  0  0
    8.4184   16.7488   25.1210 C   0  0  0  0  0  0  0  0  0  0  0  0
    7.7689   16.2033   26.3972 C   0  0  0  0  0  0  0  0  0  0  0  0
    6.5349   15.3437   26.1596 C   0  0  0  0  0  0  0  0  0  0  0  0
    6.5386   14.5446   24.8637 C   0  0  2  0  0  0  0  0  0  0  0  0
    6.7339   12.7614   25.0148 S   0  0  0  0  0  0  0  0  0  0  0  0
    5.7425   12.2151   25.9249 O   0  0  0  0  0  0  0  0  0  0  0  0
    6.7388   12.3017   23.6358 O   0  0  0  0  0  0  0  0  0  0  0  0
    8.2381   12.3472   25.7150 N   0  0  0  0  0  0  0  0  0  0  0  0
    9.4244   13.2256   25.5228 C   0  0  0  0  0  0  0  0  0  0  0  0
   10.0295   12.8711   24.1799 C   0  0  0  0  0  0  0  0  0  0  0  0
    9.6002   11.4712   24.0693 C   0  0  0  0  0  0  0  0  0  0  0  0
    9.8290   10.6239   23.0249 C   0  0  0  0  0  0  0  0  0  0  0  0
    9.3680    9.3336   23.1109 C   0  0  0  0  0  0  0  0  0  0  0  0
    8.5086    8.9983   24.1456 C   0  0  0  0  0  0  0  0  0  0  0  0
    8.0735    9.9302   25.0692 C   0  0  0  0  0  0  0  0  0  0  0  0
    8.6771   11.1525   25.0447 C   0  0  0  0  0  0  0  0  0  0  0  0
    7.3455   15.1647   23.6805 C   0  0  0  0  0  0  0  0  0  0  0  0
  1  2  2  0
  2  3  1  0
  4  2  1  6
  4  5  1  0
  5  6  1  0
  6  7  1  0
  7  8  1  0
  7  9  1  0
  7 10  1  0
 10 11  1  1
 11 12  1  0
 12 13  1  0
 13 14  1  0
 14 15  1  0
 15 16  1  1
 16 17  2  0
 16 18  2  0
 16 19  1  0
 19 20  1  0
 20 21  1  0
 21 22  1  0
 22 23  2  0
 23 24  1  0
 24 25  2  0
 25 26  1  0
 26 27  2  0
 15 28  1  0
 10  4  1  0
 28 11  1  0
 27 19  1  0
 27 22  1  0
M  END
>  <energy_score>  (2052) 
-21.972489

>  <inchikey>  (2052) 
None

>  <smiles>  (2052) 
None

>  <ref_pdb>  (2052) 
A3868a

>  <alias>  (2052) 
None

>  <HIPPO Pose ID>  (2052) 
499696

>  <name>  (2052) 
P499696

>  <HIPPO Compound ID>  (2052) 
311036

>  <ref_mols>  (2052) 
A1778a,A3868a

>  <distance_score>  (2052) 
1.755034

>  <inspiration_score>  (2052) 
None

$$$$
P499697
     RDKit          3D

 28 31  0  0  0  0  0  0  0  0999 V2000
   10.7742   14.8568   19.0931 O   0  0  0  0  0  0  0  0  0  0  0  0
   10.5805   14.8662   20.2954 C   0  0  0  0  0  0  0  0  0  0  0  0
   11.2601   14.0252   21.1020 O   0  0  0  0  0  0  0  0  0  0  0  0
    9.6863   15.8107   21.0493 C   0  0  2  0  0  0  0  0  0  0  0  0
   10.6471   16.9077   21.5201 C   0  0  0  0  0  0  0  0  0  0  0  0
   10.9957   16.4933   22.9321 C   0  0  0  0  0  0  0  0  0  0  0  0
    9.6515   16.0535   23.4378 C   0  0  0  0  0  0  0  0  0  0  0  0
    8.8631   17.1038   23.7147 F   0  0  0  0  0  0  0  0  0  0  0  0
    9.8129   15.4033   24.5938 F   0  0  0  0  0  0  0  0  0  0  0  0
    9.0492   15.1784   22.3257 C   0  0  1  0  0  0  0  0  0  0  0  0
    7.5913   14.8679   22.3134 N   0  0  0  0  0  0  0  0  0  0  0  0
    6.6450   15.9889   22.4353 C   0  0  0  0  0  0  0  0  0  0  0  0
    6.0259   16.2483   23.8300 C   0  0  0  0  0  0  0  0  0  0  0  0
    5.6592   14.9762   24.6128 C   0  0  0  0  0  0  0  0  0  0  0  0
    6.8844   14.0735   24.6113 C   0  0  1  0  0  0  0  0  0  0  0  0
    6.7720   12.6188   25.6759 S   0  0  0  0  0  0  0  0  0  0  0  0
    6.4000   13.0335   27.0097 O   0  0  0  0  0  0  0  0  0  0  0  0
    5.9882   11.6012   25.0153 O   0  0  0  0  0  0  0  0  0  0  0  0
    8.3907   12.0790   25.8353 N   0  0  0  0  0  0  0  0  0  0  0  0
    9.4830   13.1127   25.8440 C   0  0  0  0  0  0  0  0  0  0  0  0
   10.4047   12.8272   24.6690 C   0  0  0  0  0  0  0  0  0  0  0  0
    9.7655   11.6309   24.0980 C   0  0  0  0  0  0  0  0  0  0  0  0
    9.9856   11.0643   22.8884 C   0  0  0  0  0  0  0  0  0  0  0  0
    9.5587    9.7648   22.6781 C   0  0  0  0  0  0  0  0  0  0  0  0
    8.7070    9.1513   23.5830 C   0  0  0  0  0  0  0  0  0  0  0  0
    8.2404    9.8615   24.6728 C   0  0  0  0  0  0  0  0  0  0  0  0
    8.7828   11.1063   24.8937 C   0  0  0  0  0  0  0  0  0  0  0  0
    7.1856   13.7252   23.1566 C   0  0  0  0  0  0  0  0  0  0  0  0
  1  2  2  0
  2  3  1  0
  4  2  1  1
  4  5  1  0
  5  6  1  0
  6  7  1  0
  7  8  1  0
  7  9  1  0
  7 10  1  0
 10 11  1  6
 11 12  1  0
 12 13  1  0
 13 14  1  0
 14 15  1  0
 15 16  1  1
 16 17  2  0
 16 18  2  0
 16 19  1  0
 19 20  1  0
 20 21  1  0
 21 22  1  0
 22 23  2  0
 23 24  1  0
 24 25  2  0
 25 26  1  0
 26 27  2  0
 15 28  1  0
 10  4  1  0
 28 11  1  0
 27 19  1  0
 27 22  1  0
M  END
>  <energy_score>  (2053) 
-34.247253

>  <inchikey>  (2053) 
None

>  <smiles>  (2053) 
None

>  <ref_pdb>  (2053) 
A3868a

>  <alias>  (2053) 
None

>  <HIPPO Pose ID>  (2053) 
499697

>  <name>  (2053) 
P499697

>  <HIPPO Compound ID>  (2053) 
311036

>  <ref_mols>  (2053) 
A1778a,A3868a

>  <distance_score>  (2053) 
1.668277

>  <inspiration_score>  (2053) 
None

$$$$
P499698
     RDKit          3D

 28 31  0  0  0  0  0  0  0  0999 V2000
    9.9260   16.9094   19.7800 O   0  0  0  0  0  0  0  0  0  0  0  0
   10.1869   15.7264   19.7654 C   0  0  0  0  0  0  0  0  0  0  0  0
   10.5835   15.1005   18.6323 O   0  0  0  0  0  0  0  0  0  0  0  0
   10.2354   14.7733   20.9298 C   0  0  1  0  0  0  0  0  0  0  0  0
   11.6585   14.9056   21.5003 C   0  0  0  0  0  0  0  0  0  0  0  0
   11.5483   15.9148   22.6428 C   0  0  0  0  0  0  0  0  0  0  0  0
   10.0564   16.0699   22.8988 C   0  0  0  0  0  0  0  0  0  0  0  0
    9.7971   16.1243   24.2206 F   0  0  0  0  0  0  0  0  0  0  0  0
    9.6182   17.2130   22.3761 F   0  0  0  0  0  0  0  0  0  0  0  0
    9.3744   14.8896   22.1933 C   0  0  1  0  0  0  0  0  0  0  0  0
    7.8724   14.6888   22.1461 N   0  0  0  0  0  0  0  0  0  0  0  0
    7.1056   15.9416   22.0817 C   0  0  0  0  0  0  0  0  0  0  0  0
    6.7273   16.5522   23.4297 C   0  0  0  0  0  0  0  0  0  0  0  0
    5.8761   15.6306   24.3031 C   0  0  0  0  0  0  0  0  0  0  0  0
    6.1327   14.1303   24.0811 C   0  0  2  0  0  0  0  0  0  0  0  0
    6.0511   13.1801   25.7035 S   0  0  0  0  0  0  0  0  0  0  0  0
    5.4324   11.8834   25.5052 O   0  0  0  0  0  0  0  0  0  0  0  0
    5.4945   14.0529   26.7215 O   0  0  0  0  0  0  0  0  0  0  0  0
    7.6509   12.9002   26.1884 N   0  0  0  0  0  0  0  0  0  0  0  0
    8.5437   14.1130   26.3299 C   0  0  0  0  0  0  0  0  0  0  0  0
    9.9144   13.6690   25.7735 C   0  0  0  0  0  0  0  0  0  0  0  0
    9.6022   12.3703   25.1087 C   0  0  0  0  0  0  0  0  0  0  0  0
   10.2962   11.7213   24.1205 C   0  0  0  0  0  0  0  0  0  0  0  0
    9.8000   10.5023   23.6327 C   0  0  0  0  0  0  0  0  0  0  0  0
    8.6624    9.9180   24.1725 C   0  0  0  0  0  0  0  0  0  0  0  0
    7.9287   10.6217   25.1110 C   0  0  0  0  0  0  0  0  0  0  0  0
    8.3670   11.8834   25.4853 C   0  0  0  0  0  0  0  0  0  0  0  0
    7.4361   13.8732   23.3104 C   0  0  0  0  0  0  0  0  0  0  0  0
  1  2  2  0
  2  3  1  0
  4  2  1  6
  4  5  1  0
  5  6  1  0
  6  7  1  0
  7  8  1  0
  7  9  1  0
  7 10  1  0
 10 11  1  6
 11 12  1  0
 12 13  1  0
 13 14  1  0
 14 15  1  0
 15 16  1  1
 16 17  2  0
 16 18  2  0
 16 19  1  0
 19 20  1  0
 20 21  1  0
 21 22  1  0
 22 23  2  0
 23 24  1  0
 24 25  2  0
 25 26  1  0
 26 27  2  0
 15 28  1  0
 10  4  1  0
 28 11  1  0
 27 19  1  0
 27 22  1  0
M  END
>  <energy_score>  (2054) 
-27.135639

>  <inchikey>  (2054) 
None

>  <smiles>  (2054) 
None

>  <ref_pdb>  (2054) 
A3868a

>  <alias>  (2054) 
None

>  <HIPPO Pose ID>  (2054) 
499698

>  <name>  (2054) 
P499698

>  <HIPPO Compound ID>  (2054) 
311036

>  <ref_mols>  (2054) 
A1778a,A3868a

>  <distance_score>  (2054) 
1.381714

>  <inspiration_score>  (2054) 
None

$$$$
P499699
     RDKit          3D

 28 31  0  0  0  0  0  0  0  0999 V2000
   10.1087   16.7044   19.0493 O   0  0  0  0  0  0  0  0  0  0  0  0
   10.3498   15.5577   19.3728 C   0  0  0  0  0  0  0  0  0  0  0  0
   10.8697   14.6962   18.4696 O   0  0  0  0  0  0  0  0  0  0  0  0
   10.1463   14.9180   20.7368 C   0  0  1  0  0  0  0  0  0  0  0  0
   11.5402   14.7416   21.3570 C   0  0  0  0  0  0  0  0  0  0  0  0
   11.2670   14.7492   22.8386 C   0  0  0  0  0  0  0  0  0  0  0  0
   10.3001   15.9015   22.9378 C   0  0  0  0  0  0  0  0  0  0  0  0
    9.6987   16.0099   24.1346 F   0  0  0  0  0  0  0  0  0  0  0  0
   11.0424   17.0122   22.7977 F   0  0  0  0  0  0  0  0  0  0  0  0
    9.3134   15.7537   21.7615 C   0  0  2  0  0  0  0  0  0  0  0  0
    7.8940   15.2602   22.0436 N   0  0  0  0  0  0  0  0  0  0  0  0
    7.0764   16.4543   22.3699 C   0  0  0  0  0  0  0  0  0  0  0  0
    5.5820   16.1283   22.5134 C   0  0  0  0  0  0  0  0  0  0  0  0
    5.2846   14.8321   23.2640 C   0  0  0  0  0  0  0  0  0  0  0  0
    6.5076   14.4969   24.0885 C   0  0  1  0  0  0  0  0  0  0  0  0
    6.1702   13.3952   25.4710 S   0  0  0  0  0  0  0  0  0  0  0  0
    5.5567   12.1497   25.0792 O   0  0  0  0  0  0  0  0  0  0  0  0
    5.5398   14.2052   26.4988 O   0  0  0  0  0  0  0  0  0  0  0  0
    7.6992   13.0555   26.0508 N   0  0  0  0  0  0  0  0  0  0  0  0
    8.6035   14.2147   26.3358 C   0  0  0  0  0  0  0  0  0  0  0  0
   10.0021   13.7482   25.9199 C   0  0  0  0  0  0  0  0  0  0  0  0
    9.7427   12.4217   25.2873 C   0  0  0  0  0  0  0  0  0  0  0  0
   10.6371   11.5709   24.6997 C   0  0  0  0  0  0  0  0  0  0  0  0
   10.1986   10.2961   24.2853 C   0  0  0  0  0  0  0  0  0  0  0  0
    8.8748    9.9072   24.4025 C   0  0  0  0  0  0  0  0  0  0  0  0
    7.9839   10.7752   24.9988 C   0  0  0  0  0  0  0  0  0  0  0  0
    8.4278   12.0310   25.3992 C   0  0  0  0  0  0  0  0  0  0  0  0
    7.6893   14.2089   23.1054 C   0  0  0  0  0  0  0  0  0  0  0  0
  1  2  2  0
  2  3  1  0
  4  2  1  6
  4  5  1  0
  5  6  1  0
  6  7  1  0
  7  8  1  0
  7  9  1  0
  7 10  1  0
 10 11  1  1
 11 12  1  0
 12 13  1  0
 13 14  1  0
 14 15  1  0
 15 16  1  6
 16 17  2  0
 16 18  2  0
 16 19  1  0
 19 20  1  0
 20 21  1  0
 21 22  1  0
 22 23  2  0
 23 24  1  0
 24 25  2  0
 25 26  1  0
 26 27  2  0
 15 28  1  0
 10  4  1  0
 28 11  1  0
 27 19  1  0
 27 22  1  0
M  END
>  <energy_score>  (2055) 
-35.443909

>  <inchikey>  (2055) 
None

>  <smiles>  (2055) 
None

>  <ref_pdb>  (2055) 
A3868a

>  <alias>  (2055) 
None

>  <HIPPO Pose ID>  (2055) 
499699

>  <name>  (2055) 
P499699

>  <HIPPO Compound ID>  (2055) 
311036

>  <ref_mols>  (2055) 
A1778a,A3868a

>  <distance_score>  (2055) 
1.404204

>  <inspiration_score>  (2055) 
None

$$$$
P499700
     RDKit          3D

 28 31  0  0  0  0  0  0  0  0999 V2000
    9.7167   16.3252   18.3258 O   0  0  0  0  0  0  0  0  0  0  0  0
   10.0941   15.6685   19.2825 C   0  0  0  0  0  0  0  0  0  0  0  0
   10.9544   14.6781   19.0558 O   0  0  0  0  0  0  0  0  0  0  0  0
    9.7341   15.9721   20.7239 C   0  0  2  0  0  0  0  0  0  0  0  0
   10.8574   16.9061   21.2012 C   0  0  0  0  0  0  0  0  0  0  0  0
   11.4416   16.3078   22.4520 C   0  0  0  0  0  0  0  0  0  0  0  0
   11.0902   14.8634   22.2852 C   0  0  0  0  0  0  0  0  0  0  0  0
   11.3282   14.2294   23.4330 F   0  0  0  0  0  0  0  0  0  0  0  0
   11.9242   14.2889   21.3900 F   0  0  0  0  0  0  0  0  0  0  0  0
    9.6132   14.8261   21.7772 C   0  0  1  0  0  0  0  0  0  0  0  0
    8.5552   14.9747   22.8867 N   0  0  0  0  0  0  0  0  0  0  0  0
    8.1393   16.3352   23.2492 C   0  0  0  0  0  0  0  0  0  0  0  0
    6.6273   16.5402   23.3763 C   0  0  0  0  0  0  0  0  0  0  0  0
    6.0096   15.5608   24.3644 C   0  0  0  0  0  0  0  0  0  0  0  0
    6.2971   14.1078   23.9642 C   0  0  2  0  0  0  0  0  0  0  0  0
    6.1919   12.9370   25.3974 S   0  0  0  0  0  0  0  0  0  0  0  0
    5.4708   13.5717   26.4784 O   0  0  0  0  0  0  0  0  0  0  0  0
    5.6934   11.6593   24.9481 O   0  0  0  0  0  0  0  0  0  0  0  0
    7.7337   12.6986   26.0189 N   0  0  0  0  0  0  0  0  0  0  0  0
    8.5533   13.9351   26.1560 C   0  0  0  0  0  0  0  0  0  0  0  0
    9.9058   13.5986   25.5410 C   0  0  0  0  0  0  0  0  0  0  0  0
    9.6235   12.3225   24.8176 C   0  0  0  0  0  0  0  0  0  0  0  0
   10.2158   11.7106   23.7455 C   0  0  0  0  0  0  0  0  0  0  0  0
    9.7579   10.4535   23.3063 C   0  0  0  0  0  0  0  0  0  0  0  0
    8.7655    9.7712   23.9857 C   0  0  0  0  0  0  0  0  0  0  0  0
    8.1094   10.4280   25.0048 C   0  0  0  0  0  0  0  0  0  0  0  0
    8.4915   11.7295   25.3130 C   0  0  0  0  0  0  0  0  0  0  0  0
    7.4513   13.9686   22.9020 C   0  0  0  0  0  0  0  0  0  0  0  0
  1  2  2  0
  2  3  1  0
  4  2  1  6
  4  5  1  0
  5  6  1  0
  6  7  1  0
  7  8  1  0
  7  9  1  0
  7 10  1  0
 10 11  1  1
 11 12  1  0
 12 13  1  0
 13 14  1  0
 14 15  1  0
 15 16  1  1
 16 17  2  0
 16 18  2  0
 16 19  1  0
 19 20  1  0
 20 21  1  0
 21 22  1  0
 22 23  2  0
 23 24  1  0
 24 25  2  0
 25 26  1  0
 26 27  2  0
 15 28  1  0
 10  4  1  0
 28 11  1  0
 27 19  1  0
 27 22  1  0
M  END
>  <energy_score>  (2056) 
-32.334204

>  <inchikey>  (2056) 
None

>  <smiles>  (2056) 
None

>  <ref_pdb>  (2056) 
A3868a

>  <alias>  (2056) 
None

>  <HIPPO Pose ID>  (2056) 
499700

>  <name>  (2056) 
P499700

>  <HIPPO Compound ID>  (2056) 
311036

>  <ref_mols>  (2056) 
A1778a,A3868a

>  <distance_score>  (2056) 
1.533584

>  <inspiration_score>  (2056) 
None

$$$$
P499701
     RDKit          3D

 28 31  0  0  0  0  0  0  0  0999 V2000
    9.7604   16.2930   18.7410 O   0  0  0  0  0  0  0  0  0  0  0  0
   10.4846   15.3984   19.1299 C   0  0  0  0  0  0  0  0  0  0  0  0
   11.0444   14.5554   18.2380 O   0  0  0  0  0  0  0  0  0  0  0  0
   10.9400   15.1556   20.5376 C   0  0  1  0  0  0  0  0  0  0  0  0
   11.5315   16.4445   21.0867 C   0  0  0  0  0  0  0  0  0  0  0  0
   11.8652   16.1192   22.5122 C   0  0  0  0  0  0  0  0  0  0  0  0
   10.8900   15.0449   22.8948 C   0  0  0  0  0  0  0  0  0  0  0  0
   11.5826   13.9903   23.3963 F   0  0  0  0  0  0  0  0  0  0  0  0
   10.1296   15.5405   23.8949 F   0  0  0  0  0  0  0  0  0  0  0  0
   10.0232   14.6053   21.6697 C   0  0  1  0  0  0  0  0  0  0  0  0
    8.5195   14.8255   21.8203 N   0  0  0  0  0  0  0  0  0  0  0  0
    8.1872   16.2441   22.0872 C   0  0  0  0  0  0  0  0  0  0  0  0
    7.0285   16.5011   23.0685 C   0  0  0  0  0  0  0  0  0  0  0  0
    5.9466   15.4298   23.0167 C   0  0  0  0  0  0  0  0  0  0  0  0
    6.5153   14.0478   23.3593 C   0  0  2  0  0  0  0  0  0  0  0  0
    6.1588   13.5447   25.1399 S   0  0  0  0  0  0  0  0  0  0  0  0
    5.4004   12.3090   25.1862 O   0  0  0  0  0  0  0  0  0  0  0  0
    5.6598   14.7013   25.8610 O   0  0  0  0  0  0  0  0  0  0  0  0
    7.6160   13.1732   25.8593 N   0  0  0  0  0  0  0  0  0  0  0  0
    8.5360   14.3003   26.1922 C   0  0  0  0  0  0  0  0  0  0  0  0
    9.9465   13.7458   25.9674 C   0  0  0  0  0  0  0  0  0  0  0  0
    9.6927   12.4312   25.3044 C   0  0  0  0  0  0  0  0  0  0  0  0
   10.5916   11.5659   24.7405 C   0  0  0  0  0  0  0  0  0  0  0  0
   10.1426   10.3060   24.3005 C   0  0  0  0  0  0  0  0  0  0  0  0
    8.8019    9.9506   24.3641 C   0  0  0  0  0  0  0  0  0  0  0  0
    7.8970   10.8461   24.9046 C   0  0  0  0  0  0  0  0  0  0  0  0
    8.3574   12.0843   25.3350 C   0  0  0  0  0  0  0  0  0  0  0  0
    7.9936   13.9492   22.9223 C   0  0  0  0  0  0  0  0  0  0  0  0
  1  2  2  0
  2  3  1  0
  4  2  1  6
  4  5  1  0
  5  6  1  0
  6  7  1  0
  7  8  1  0
  7  9  1  0
  7 10  1  0
 10 11  1  1
 11 12  1  0
 12 13  1  0
 13 14  1  0
 14 15  1  0
 15 16  1  1
 16 17  2  0
 16 18  2  0
 16 19  1  0
 19 20  1  0
 20 21  1  0
 21 22  1  0
 22 23  2  0
 23 24  1  0
 24 25  2  0
 25 26  1  0
 26 27  2  0
 15 28  1  0
 10  4  1  0
 28 11  1  0
 27 19  1  0
 27 22  1  0
M  END
>  <energy_score>  (2057) 
-19.968316

>  <inchikey>  (2057) 
None

>  <smiles>  (2057) 
None

>  <ref_pdb>  (2057) 
A3868a

>  <alias>  (2057) 
None

>  <HIPPO Pose ID>  (2057) 
499701

>  <name>  (2057) 
P499701

>  <HIPPO Compound ID>  (2057) 
311036

>  <ref_mols>  (2057) 
A1778a,A3868a

>  <distance_score>  (2057) 
1.409579

>  <inspiration_score>  (2057) 
None

$$$$
P499702
     RDKit          3D

 29 32  0  0  0  0  0  0  0  0999 V2000
   10.4225   15.7144   18.4647 C   0  0  0  0  0  0  0  0  0  0  0  0
   10.0634   15.6833   19.8324 O   0  0  0  0  0  0  0  0  0  0  0  0
    9.8880   16.8639   20.4481 C   0  0  0  0  0  0  0  0  0  0  0  0
    9.8553   17.9521   19.8978 O   0  0  0  0  0  0  0  0  0  0  0  0
    9.8414   16.6969   21.9408 C   0  0  2  0  0  0  0  0  0  0  0  0
   11.3034   16.4816   22.3668 C   0  0  0  0  0  0  0  0  0  0  0  0
   11.5244   14.9820   22.2016 C   0  0  0  0  0  0  0  0  0  0  0  0
   10.1245   14.3799   22.2408 C   0  0  0  0  0  0  0  0  0  0  0  0
   10.1103   13.4214   23.1645 F   0  0  0  0  0  0  0  0  0  0  0  0
    9.7689   13.7710   21.1011 F   0  0  0  0  0  0  0  0  0  0  0  0
    9.1340   15.5010   22.5997 C   0  0  2  0  0  0  0  0  0  0  0  0
    7.6771   15.2533   22.4038 N   0  0  0  0  0  0  0  0  0  0  0  0
    6.8272   16.4365   22.5395 C   0  0  0  0  0  0  0  0  0  0  0  0
    6.6011   16.8207   23.9938 C   0  0  0  0  0  0  0  0  0  0  0  0
    5.8940   15.7293   24.7940 C   0  0  0  0  0  0  0  0  0  0  0  0
    6.0150   14.3065   24.2179 C   0  0  2  0  0  0  0  0  0  0  0  0
    6.0339   13.0341   25.5475 S   0  0  0  0  0  0  0  0  0  0  0  0
    5.4149   13.5598   26.7424 O   0  0  0  0  0  0  0  0  0  0  0  0
    5.5337   11.7848   25.0363 O   0  0  0  0  0  0  0  0  0  0  0  0
    7.6305   12.8526   25.9463 N   0  0  0  0  0  0  0  0  0  0  0  0
    8.4690   14.0565   26.1901 C   0  0  0  0  0  0  0  0  0  0  0  0
    9.9011   13.6437   25.8429 C   0  0  0  0  0  0  0  0  0  0  0  0
    9.7124   12.2659   25.2943 C   0  0  0  0  0  0  0  0  0  0  0  0
   10.6609   11.4303   24.7685 C   0  0  0  0  0  0  0  0  0  0  0  0
   10.2871   10.1363   24.3545 C   0  0  0  0  0  0  0  0  0  0  0  0
    8.9704    9.7147   24.3999 C   0  0  0  0  0  0  0  0  0  0  0  0
    8.0251   10.5625   24.9402 C   0  0  0  0  0  0  0  0  0  0  0  0
    8.4057   11.8384   25.3427 C   0  0  0  0  0  0  0  0  0  0  0  0
    7.1274   14.0913   23.1490 C   0  0  0  0  0  0  0  0  0  0  0  0
  1  2  1  0
  2  3  1  0
  3  4  2  0
  5  3  1  6
  5  6  1  0
  6  7  1  0
  7  8  1  0
  8  9  1  0
  8 10  1  0
  8 11  1  0
 11 12  1  6
 12 13  1  0
 13 14  1  0
 14 15  1  0
 15 16  1  0
 16 17  1  1
 17 18  2  0
 17 19  2  0
 17 20  1  0
 20 21  1  0
 21 22  1  0
 22 23  1  0
 23 24  2  0
 24 25  1  0
 25 26  2  0
 26 27  1  0
 27 28  2  0
 16 29  1  0
 11  5  1  0
 29 12  1  0
 28 20  1  0
 28 23  1  0
M  END
>  <energy_score>  (2058) 
-45.481212

>  <inchikey>  (2058) 
None

>  <smiles>  (2058) 
None

>  <ref_pdb>  (2058) 
A3868a

>  <alias>  (2058) 
None

>  <HIPPO Pose ID>  (2058) 
499702

>  <name>  (2058) 
P499702

>  <HIPPO Compound ID>  (2058) 
311039

>  <ref_mols>  (2058) 
A1778a,A3868a

>  <distance_score>  (2058) 
1.681362

>  <inspiration_score>  (2058) 
None

$$$$
P499703
     RDKit          3D

 29 32  0  0  0  0  0  0  0  0999 V2000
   11.1646   15.0425   18.4733 C   0  0  0  0  0  0  0  0  0  0  0  0
   10.0646   15.9097   18.7371 O   0  0  0  0  0  0  0  0  0  0  0  0
    9.9431   16.3928   19.9865 C   0  0  0  0  0  0  0  0  0  0  0  0
   10.0159   17.5928   20.2165 O   0  0  0  0  0  0  0  0  0  0  0  0
    9.7017   15.3708   21.0805 C   0  0  1  0  0  0  0  0  0  0  0  0
   11.0554   15.2937   21.8307 C   0  0  0  0  0  0  0  0  0  0  0  0
   10.9372   16.3641   22.8957 C   0  0  0  0  0  0  0  0  0  0  0  0
    9.5105   16.1594   23.3216 C   0  0  0  0  0  0  0  0  0  0  0  0
    9.0453   17.0493   24.2017 F   0  0  0  0  0  0  0  0  0  0  0  0
    9.5334   14.9871   23.9720 F   0  0  0  0  0  0  0  0  0  0  0  0
    8.6342   15.9384   22.0904 C   0  0  2  0  0  0  0  0  0  0  0  0
    7.3337   15.1509   22.2807 N   0  0  0  0  0  0  0  0  0  0  0  0
    6.2405   16.1108   22.6023 C   0  0  0  0  0  0  0  0  0  0  0  0
    4.9593   15.4106   23.0628 C   0  0  0  0  0  0  0  0  0  0  0  0
    5.1595   14.6911   24.3945 C   0  0  0  0  0  0  0  0  0  0  0  0
    6.6252   14.2836   24.6035 C   0  0  1  0  0  0  0  0  0  0  0  0
    6.7175   13.0152   25.9146 S   0  0  0  0  0  0  0  0  0  0  0  0
    5.9380   11.8438   25.5666 O   0  0  0  0  0  0  0  0  0  0  0  0
    6.4261   13.7055   27.1604 O   0  0  0  0  0  0  0  0  0  0  0  0
    8.3453   12.5672   26.0453 N   0  0  0  0  0  0  0  0  0  0  0  0
    9.3697   13.6812   26.0673 C   0  0  0  0  0  0  0  0  0  0  0  0
   10.5364   13.1661   25.2125 C   0  0  0  0  0  0  0  0  0  0  0  0
    9.8787   12.0758   24.4517 C   0  0  0  0  0  0  0  0  0  0  0  0
   10.1522   11.5526   23.2271 C   0  0  0  0  0  0  0  0  0  0  0  0
    9.6228   10.3002   22.8993 C   0  0  0  0  0  0  0  0  0  0  0  0
    8.7114    9.6665   23.7333 C   0  0  0  0  0  0  0  0  0  0  0  0
    8.2281   10.3551   24.8304 C   0  0  0  0  0  0  0  0  0  0  0  0
    8.7859   11.5870   25.1219 C   0  0  0  0  0  0  0  0  0  0  0  0
    7.2815   13.9914   23.2315 C   0  0  0  0  0  0  0  0  0  0  0  0
  1  2  1  0
  2  3  1  0
  3  4  2  0
  5  3  1  6
  5  6  1  0
  6  7  1  0
  7  8  1  0
  8  9  1  0
  8 10  1  0
  8 11  1  0
 11 12  1  1
 12 13  1  0
 13 14  1  0
 14 15  1  0
 15 16  1  0
 16 17  1  1
 17 18  2  0
 17 19  2  0
 17 20  1  0
 20 21  1  0
 21 22  1  0
 22 23  1  0
 23 24  2  0
 24 25  1  0
 25 26  2  0
 26 27  1  0
 27 28  2  0
 16 29  1  0
 11  5  1  0
 29 12  1  0
 28 20  1  0
 28 23  1  0
M  END
>  <energy_score>  (2059) 
-26.04436

>  <inchikey>  (2059) 
None

>  <smiles>  (2059) 
None

>  <ref_pdb>  (2059) 
A3868a

>  <alias>  (2059) 
None

>  <HIPPO Pose ID>  (2059) 
499703

>  <name>  (2059) 
P499703

>  <HIPPO Compound ID>  (2059) 
311039

>  <ref_mols>  (2059) 
A1778a,A3868a

>  <distance_score>  (2059) 
1.436166

>  <inspiration_score>  (2059) 
None

$$$$
P499704
     RDKit          3D

 29 32  0  0  0  0  0  0  0  0999 V2000
   12.1069   14.6376   19.2995 C   0  0  0  0  0  0  0  0  0  0  0  0
   11.0382   14.6961   20.2274 O   0  0  0  0  0  0  0  0  0  0  0  0
   10.0399   15.5157   19.8467 C   0  0  0  0  0  0  0  0  0  0  0  0
    9.8626   15.9515   18.7190 O   0  0  0  0  0  0  0  0  0  0  0  0
    9.2093   15.9240   21.0338 C   0  0  2  0  0  0  0  0  0  0  0  0
    9.9285   17.1710   21.5245 C   0  0  0  0  0  0  0  0  0  0  0  0
   11.0495   16.6149   22.3766 C   0  0  0  0  0  0  0  0  0  0  0  0
   10.4279   15.3986   23.0027 C   0  0  0  0  0  0  0  0  0  0  0  0
   10.1357   15.7244   24.2857 F   0  0  0  0  0  0  0  0  0  0  0  0
   11.3462   14.4059   23.0369 F   0  0  0  0  0  0  0  0  0  0  0  0
    9.1274   14.9763   22.2446 C   0  0  1  0  0  0  0  0  0  0  0  0
    7.8889   15.0893   23.1106 N   0  0  0  0  0  0  0  0  0  0  0  0
    7.2429   16.3990   23.2214 C   0  0  0  0  0  0  0  0  0  0  0  0
    5.8489   16.3828   23.8512 C   0  0  0  0  0  0  0  0  0  0  0  0
    5.7858   15.4080   25.0092 C   0  0  0  0  0  0  0  0  0  0  0  0
    6.0255   13.9747   24.5097 C   0  0  2  0  0  0  0  0  0  0  0  0
    6.2896   12.8373   25.9227 S   0  0  0  0  0  0  0  0  0  0  0  0
    5.6308   11.5711   25.6658 O   0  0  0  0  0  0  0  0  0  0  0  0
    5.9366   13.5557   27.1358 O   0  0  0  0  0  0  0  0  0  0  0  0
    7.9345   12.5623   26.0435 N   0  0  0  0  0  0  0  0  0  0  0  0
    8.8282   13.7768   26.0344 C   0  0  0  0  0  0  0  0  0  0  0  0
   10.1420   13.2487   25.4766 C   0  0  0  0  0  0  0  0  0  0  0  0
    9.6584   12.1304   24.6333 C   0  0  0  0  0  0  0  0  0  0  0  0
   10.1441   11.6064   23.4743 C   0  0  0  0  0  0  0  0  0  0  0  0
    9.6567   10.3683   23.0419 C   0  0  0  0  0  0  0  0  0  0  0  0
    8.6716    9.6967   23.7562 C   0  0  0  0  0  0  0  0  0  0  0  0
    8.0520   10.3409   24.8143 C   0  0  0  0  0  0  0  0  0  0  0  0
    8.5074   11.5978   25.1679 C   0  0  0  0  0  0  0  0  0  0  0  0
    7.0012   13.9208   23.2826 C   0  0  0  0  0  0  0  0  0  0  0  0
  1  2  1  0
  2  3  1  0
  3  4  2  0
  5  3  1  6
  5  6  1  0
  6  7  1  0
  7  8  1  0
  8  9  1  0
  8 10  1  0
  8 11  1  0
 11 12  1  1
 12 13  1  0
 13 14  1  0
 14 15  1  0
 15 16  1  0
 16 17  1  1
 17 18  2  0
 17 19  2  0
 17 20  1  0
 20 21  1  0
 21 22  1  0
 22 23  1  0
 23 24  2  0
 24 25  1  0
 25 26  2  0
 26 27  1  0
 27 28  2  0
 16 29  1  0
 11  5  1  0
 29 12  1  0
 28 20  1  0
 28 23  1  0
M  END
>  <energy_score>  (2060) 
-27.761305

>  <inchikey>  (2060) 
None

>  <smiles>  (2060) 
None

>  <ref_pdb>  (2060) 
A3868a

>  <alias>  (2060) 
None

>  <HIPPO Pose ID>  (2060) 
499704

>  <name>  (2060) 
P499704

>  <HIPPO Compound ID>  (2060) 
311039

>  <ref_mols>  (2060) 
A1778a,A3868a

>  <distance_score>  (2060) 
1.504552

>  <inspiration_score>  (2060) 
None

$$$$
P499705
     RDKit          3D

 29 32  0  0  0  0  0  0  0  0999 V2000
   10.4830   15.7764   18.5977 C   0  0  0  0  0  0  0  0  0  0  0  0
   10.2237   16.8916   19.4609 O   0  0  0  0  0  0  0  0  0  0  0  0
    9.7105   16.7833   20.7080 C   0  0  0  0  0  0  0  0  0  0  0  0
    9.2009   17.7459   21.2620 O   0  0  0  0  0  0  0  0  0  0  0  0
    9.8787   15.4492   21.3943 C   0  0  1  0  0  0  0  0  0  0  0  0
   11.3927   15.2401   21.5962 C   0  0  0  0  0  0  0  0  0  0  0  0
   11.6952   16.1902   22.7355 C   0  0  0  0  0  0  0  0  0  0  0  0
   10.5225   15.9865   23.6649 C   0  0  0  0  0  0  0  0  0  0  0  0
   10.9700   15.1050   24.5896 F   0  0  0  0  0  0  0  0  0  0  0  0
   10.1864   17.0572   24.3782 F   0  0  0  0  0  0  0  0  0  0  0  0
    9.3361   15.3738   22.8574 C   0  0  1  0  0  0  0  0  0  0  0  0
    7.9470   15.7787   23.2257 N   0  0  0  0  0  0  0  0  0  0  0  0
    6.9196   15.4815   22.2360 C   0  0  0  0  0  0  0  0  0  0  0  0
    6.5778   14.0068   22.1366 C   0  0  0  0  0  0  0  0  0  0  0  0
    6.8866   13.2166   23.3982 C   0  0  0  0  0  0  0  0  0  0  0  0
    6.6898   14.0255   24.6603 C   0  0  1  0  0  0  0  0  0  0  0  0
    6.9990   13.0340   26.1491 S   0  0  0  0  0  0  0  0  0  0  0  0
    6.0352   11.9489   26.2070 O   0  0  0  0  0  0  0  0  0  0  0  0
    7.0902   13.9615   27.2603 O   0  0  0  0  0  0  0  0  0  0  0  0
    8.5327   12.3419   25.9651 N   0  0  0  0  0  0  0  0  0  0  0  0
    9.6753   13.2659   25.7394 C   0  0  0  0  0  0  0  0  0  0  0  0
   10.6117   12.5901   24.7434 C   0  0  0  0  0  0  0  0  0  0  0  0
    9.7532   11.5052   24.2419 C   0  0  0  0  0  0  0  0  0  0  0  0
    9.8778   10.8046   23.0806 C   0  0  0  0  0  0  0  0  0  0  0  0
    9.2768    9.5736   22.9955 C   0  0  0  0  0  0  0  0  0  0  0  0
    8.3480    9.2133   23.9588 C   0  0  0  0  0  0  0  0  0  0  0  0
    7.9742   10.0928   24.9641 C   0  0  0  0  0  0  0  0  0  0  0  0
    8.6956   11.2503   25.0803 C   0  0  0  0  0  0  0  0  0  0  0  0
    7.4281   15.3948   24.5733 C   0  0  0  0  0  0  0  0  0  0  0  0
  1  2  1  0
  2  3  1  0
  3  4  2  0
  5  3  1  1
  5  6  1  0
  6  7  1  0
  7  8  1  0
  8  9  1  0
  8 10  1  0
  8 11  1  0
 11 12  1  6
 12 13  1  0
 13 14  1  0
 14 15  1  0
 15 16  1  0
 16 17  1  1
 17 18  2  0
 17 19  2  0
 17 20  1  0
 20 21  1  0
 21 22  1  0
 22 23  1  0
 23 24  2  0
 24 25  1  0
 25 26  2  0
 26 27  1  0
 27 28  2  0
 16 29  1  0
 11  5  1  0
 29 12  1  0
 28 20  1  0
 28 23  1  0
M  END
>  <energy_score>  (2061) 
-12.589972

>  <inchikey>  (2061) 
None

>  <smiles>  (2061) 
None

>  <ref_pdb>  (2061) 
A3868a

>  <alias>  (2061) 
None

>  <HIPPO Pose ID>  (2061) 
499705

>  <name>  (2061) 
P499705

>  <HIPPO Compound ID>  (2061) 
311039

>  <ref_mols>  (2061) 
A1778a,A3868a

>  <distance_score>  (2061) 
1.780209

>  <inspiration_score>  (2061) 
None

$$$$
P499706
     RDKit          3D

 29 32  0  0  0  0  0  0  0  0999 V2000
   11.4997   14.6541   18.6860 C   0  0  0  0  0  0  0  0  0  0  0  0
   10.7008   14.8984   19.8317 O   0  0  0  0  0  0  0  0  0  0  0  0
   10.1193   16.1070   19.7121 C   0  0  0  0  0  0  0  0  0  0  0  0
    9.7473   16.5649   18.6445 O   0  0  0  0  0  0  0  0  0  0  0  0
   10.0986   16.8232   21.0269 C   0  0  2  0  0  0  0  0  0  0  0  0
   11.6230   16.9526   21.3411 C   0  0  0  0  0  0  0  0  0  0  0  0
   12.0075   15.8119   22.2420 C   0  0  0  0  0  0  0  0  0  0  0  0
   10.7120   15.3679   22.8281 C   0  0  0  0  0  0  0  0  0  0  0  0
   10.7881   15.5154   24.1723 F   0  0  0  0  0  0  0  0  0  0  0  0
   10.5365   14.0602   22.5596 F   0  0  0  0  0  0  0  0  0  0  0  0
    9.5384   16.2076   22.3190 C   0  0  2  0  0  0  0  0  0  0  0  0
    8.1514   15.6845   22.6086 N   0  0  0  0  0  0  0  0  0  0  0  0
    7.6863   14.6346   21.7145 C   0  0  0  0  0  0  0  0  0  0  0  0
    6.5698   13.7637   22.3217 C   0  0  0  0  0  0  0  0  0  0  0  0
    5.7916   14.3848   23.4748 C   0  0  0  0  0  0  0  0  0  0  0  0
    6.7342   14.7763   24.5961 C   0  0  1  0  0  0  0  0  0  0  0  0
    6.8547   13.5632   26.0037 S   0  0  0  0  0  0  0  0  0  0  0  0
    5.8976   12.4821   25.8452 O   0  0  0  0  0  0  0  0  0  0  0  0
    6.7981   14.3671   27.2147 O   0  0  0  0  0  0  0  0  0  0  0  0
    8.3856   12.8718   26.0395 N   0  0  0  0  0  0  0  0  0  0  0  0
    9.6196   13.7408   26.1001 C   0  0  0  0  0  0  0  0  0  0  0  0
   10.6506   13.0281   25.2224 C   0  0  0  0  0  0  0  0  0  0  0  0
    9.8174   12.0304   24.5094 C   0  0  0  0  0  0  0  0  0  0  0  0
   10.0512   11.3680   23.3434 C   0  0  0  0  0  0  0  0  0  0  0  0
    9.4108   10.1596   23.1113 C   0  0  0  0  0  0  0  0  0  0  0  0
    8.3921    9.7497   23.9620 C   0  0  0  0  0  0  0  0  0  0  0  0
    7.9399   10.6150   24.9537 C   0  0  0  0  0  0  0  0  0  0  0  0
    8.6465   11.7823   25.1697 C   0  0  0  0  0  0  0  0  0  0  0  0
    8.0813   15.1890   24.0043 C   0  0  0  0  0  0  0  0  0  0  0  0
  1  2  1  0
  2  3  1  0
  3  4  2  0
  5  3  1  6
  5  6  1  0
  6  7  1  0
  7  8  1  0
  8  9  1  0
  8 10  1  0
  8 11  1  0
 11 12  1  6
 12 13  1  0
 13 14  1  0
 14 15  1  0
 15 16  1  0
 16 17  1  1
 17 18  2  0
 17 19  2  0
 17 20  1  0
 20 21  1  0
 21 22  1  0
 22 23  1  0
 23 24  2  0
 24 25  1  0
 25 26  2  0
 26 27  1  0
 27 28  2  0
 16 29  1  0
 11  5  1  0
 29 12  1  0
 28 20  1  0
 28 23  1  0
M  END
>  <energy_score>  (2062) 
-0.285865

>  <inchikey>  (2062) 
None

>  <smiles>  (2062) 
None

>  <ref_pdb>  (2062) 
A3868a

>  <alias>  (2062) 
None

>  <HIPPO Pose ID>  (2062) 
499706

>  <name>  (2062) 
P499706

>  <HIPPO Compound ID>  (2062) 
311039

>  <ref_mols>  (2062) 
A1778a,A3868a

>  <distance_score>  (2062) 
1.732018

>  <inspiration_score>  (2062) 
None

$$$$
P499707
     RDKit          3D

 29 32  0  0  0  0  0  0  0  0999 V2000
   11.0855   15.3722   18.3082 C   0  0  0  0  0  0  0  0  0  0  0  0
   10.8224   14.8535   19.5921 O   0  0  0  0  0  0  0  0  0  0  0  0
   10.1633   15.7468   20.3701 C   0  0  0  0  0  0  0  0  0  0  0  0
    9.9113   16.9009   20.0719 O   0  0  0  0  0  0  0  0  0  0  0  0
    9.8918   15.1048   21.6959 C   0  0  1  0  0  0  0  0  0  0  0  0
   11.2495   15.2995   22.4219 C   0  0  0  0  0  0  0  0  0  0  0  0
   10.9872   16.4338   23.3827 C   0  0  0  0  0  0  0  0  0  0  0  0
    9.5415   16.2386   23.7725 C   0  0  0  0  0  0  0  0  0  0  0  0
    9.0040   17.2633   24.4422 F   0  0  0  0  0  0  0  0  0  0  0  0
    9.5142   15.2221   24.6470 F   0  0  0  0  0  0  0  0  0  0  0  0
    8.7855   15.8629   22.4901 C   0  0  2  0  0  0  0  0  0  0  0  0
    7.4292   15.2071   22.6051 N   0  0  0  0  0  0  0  0  0  0  0  0
    6.4126   16.1986   23.0324 C   0  0  0  0  0  0  0  0  0  0  0  0
    5.1032   15.5462   23.4927 C   0  0  0  0  0  0  0  0  0  0  0  0
    5.3016   14.6228   24.7024 C   0  0  0  0  0  0  0  0  0  0  0  0
    6.7195   14.0298   24.7583 C   0  0  1  0  0  0  0  0  0  0  0  0
    6.7172   12.4567   25.6874 S   0  0  0  0  0  0  0  0  0  0  0  0
    6.3354   12.7402   27.0546 O   0  0  0  0  0  0  0  0  0  0  0  0
    5.9588   11.4693   24.9567 O   0  0  0  0  0  0  0  0  0  0  0  0
    8.3226   11.9412   25.8015 N   0  0  0  0  0  0  0  0  0  0  0  0
    9.3964   12.9702   25.8355 C   0  0  0  0  0  0  0  0  0  0  0  0
   10.2247   12.8041   24.5781 C   0  0  0  0  0  0  0  0  0  0  0  0
    9.7068   11.5296   24.0641 C   0  0  0  0  0  0  0  0  0  0  0  0
    9.9619   10.9778   22.8557 C   0  0  0  0  0  0  0  0  0  0  0  0
    9.5704    9.6743   22.6353 C   0  0  0  0  0  0  0  0  0  0  0  0
    8.7190    9.0414   23.5256 C   0  0  0  0  0  0  0  0  0  0  0  0
    8.2241    9.7283   24.6190 C   0  0  0  0  0  0  0  0  0  0  0  0
    8.7318   10.9825   24.8520 C   0  0  0  0  0  0  0  0  0  0  0  0
    7.2752   13.9258   23.3272 C   0  0  0  0  0  0  0  0  0  0  0  0
  1  2  1  0
  2  3  1  0
  3  4  2  0
  5  3  1  6
  5  6  1  0
  6  7  1  0
  7  8  1  0
  8  9  1  0
  8 10  1  0
  8 11  1  0
 11 12  1  1
 12 13  1  0
 13 14  1  0
 14 15  1  0
 15 16  1  0
 16 17  1  6
 17 18  2  0
 17 19  2  0
 17 20  1  0
 20 21  1  0
 21 22  1  0
 22 23  1  0
 23 24  2  0
 24 25  1  0
 25 26  2  0
 26 27  1  0
 27 28  2  0
 16 29  1  0
 11  5  1  0
 29 12  1  0
 28 20  1  0
 28 23  1  0
M  END
>  <energy_score>  (2063) 
-15.990453

>  <inchikey>  (2063) 
None

>  <smiles>  (2063) 
None

>  <ref_pdb>  (2063) 
A3868a

>  <alias>  (2063) 
None

>  <HIPPO Pose ID>  (2063) 
499707

>  <name>  (2063) 
P499707

>  <HIPPO Compound ID>  (2063) 
311039

>  <ref_mols>  (2063) 
A1778a,A3868a

>  <distance_score>  (2063) 
1.525172

>  <inspiration_score>  (2063) 
None

$$$$
P499708
     RDKit          3D

 29 32  0  0  0  0  0  0  0  0999 V2000
   12.0526   14.6486   19.3547 C   0  0  0  0  0  0  0  0  0  0  0  0
   10.9863   14.7084   20.2904 O   0  0  0  0  0  0  0  0  0  0  0  0
    9.9787   15.5161   19.8998 C   0  0  0  0  0  0  0  0  0  0  0  0
    9.7958   15.9179   18.7602 O   0  0  0  0  0  0  0  0  0  0  0  0
    9.1511   15.9582   21.0807 C   0  0  2  0  0  0  0  0  0  0  0  0
    9.8853   17.2052   21.5449 C   0  0  0  0  0  0  0  0  0  0  0  0
   10.9919   16.6530   22.4187 C   0  0  0  0  0  0  0  0  0  0  0  0
   10.3372   15.4815   23.0879 C   0  0  0  0  0  0  0  0  0  0  0  0
   11.2312   14.4720   23.1541 F   0  0  0  0  0  0  0  0  0  0  0  0
   10.0438   15.8526   24.3637 F   0  0  0  0  0  0  0  0  0  0  0  0
    9.0599   15.0365   22.3083 C   0  0  1  0  0  0  0  0  0  0  0  0
    7.8127   15.1271   23.1487 N   0  0  0  0  0  0  0  0  0  0  0  0
    7.1981   16.4424   23.3332 C   0  0  0  0  0  0  0  0  0  0  0  0
    5.8478   16.4174   24.0587 C   0  0  0  0  0  0  0  0  0  0  0  0
    5.8010   15.3437   25.1348 C   0  0  0  0  0  0  0  0  0  0  0  0
    5.9707   13.9628   24.4892 C   0  0  2  0  0  0  0  0  0  0  0  0
    6.2295   12.6395   25.7203 S   0  0  0  0  0  0  0  0  0  0  0  0
    5.7251   13.0813   27.0019 O   0  0  0  0  0  0  0  0  0  0  0  0
    5.6879   11.4129   25.1822 O   0  0  0  0  0  0  0  0  0  0  0  0
    7.8760   12.4492   25.9600 N   0  0  0  0  0  0  0  0  0  0  0  0
    8.7167   13.6960   26.0069 C   0  0  0  0  0  0  0  0  0  0  0  0
   10.0685   13.2410   25.4785 C   0  0  0  0  0  0  0  0  0  0  0  0
    9.6549   12.1277   24.5912 C   0  0  0  0  0  0  0  0  0  0  0  0
   10.1591   11.6515   23.4212 C   0  0  0  0  0  0  0  0  0  0  0  0
    9.7137   10.4038   22.9594 C   0  0  0  0  0  0  0  0  0  0  0  0
    8.7815    9.6572   23.6668 C   0  0  0  0  0  0  0  0  0  0  0  0
    8.1475   10.2449   24.7425 C   0  0  0  0  0  0  0  0  0  0  0  0
    8.5306   11.5249   25.1017 C   0  0  0  0  0  0  0  0  0  0  0  0
    6.9018   13.9713   23.2318 C   0  0  0  0  0  0  0  0  0  0  0  0
  1  2  1  0
  2  3  1  0
  3  4  2  0
  5  3  1  6
  5  6  1  0
  6  7  1  0
  7  8  1  0
  8  9  1  0
  8 10  1  0
  8 11  1  0
 11 12  1  1
 12 13  1  0
 13 14  1  0
 14 15  1  0
 15 16  1  0
 16 17  1  1
 17 18  2  0
 17 19  2  0
 17 20  1  0
 20 21  1  0
 21 22  1  0
 22 23  1  0
 23 24  2  0
 24 25  1  0
 25 26  2  0
 26 27  1  0
 27 28  2  0
 16 29  1  0
 11  5  1  0
 29 12  1  0
 28 20  1  0
 28 23  1  0
M  END
>  <energy_score>  (2064) 
-7.799395

>  <inchikey>  (2064) 
None

>  <smiles>  (2064) 
None

>  <ref_pdb>  (2064) 
A3868a

>  <alias>  (2064) 
None

>  <HIPPO Pose ID>  (2064) 
499708

>  <name>  (2064) 
P499708

>  <HIPPO Compound ID>  (2064) 
311039

>  <ref_mols>  (2064) 
A1778a,A3868a

>  <distance_score>  (2064) 
1.49324

>  <inspiration_score>  (2064) 
None

$$$$
P499709
     RDKit          3D

 29 32  0  0  0  0  0  0  0  0999 V2000
   10.7082   15.6223   18.5167 C   0  0  0  0  0  0  0  0  0  0  0  0
   10.5246   16.6818   19.4523 O   0  0  0  0  0  0  0  0  0  0  0  0
    9.7716   16.5036   20.5622 C   0  0  0  0  0  0  0  0  0  0  0  0
    9.1347   17.4331   21.0287 O   0  0  0  0  0  0  0  0  0  0  0  0
    9.8633   15.1399   21.2189 C   0  0  1  0  0  0  0  0  0  0  0  0
   11.3557   14.9010   21.5671 C   0  0  0  0  0  0  0  0  0  0  0  0
   11.5887   15.6222   22.8861 C   0  0  0  0  0  0  0  0  0  0  0  0
   10.1968   15.8806   23.4366 C   0  0  0  0  0  0  0  0  0  0  0  0
    9.9252   17.1770   23.3261 F   0  0  0  0  0  0  0  0  0  0  0  0
   10.1594   15.6261   24.7518 F   0  0  0  0  0  0  0  0  0  0  0  0
    9.2085   15.0026   22.6170 C   0  0  1  0  0  0  0  0  0  0  0  0
    7.7255   15.0819   22.7837 N   0  0  0  0  0  0  0  0  0  0  0  0
    7.1940   16.3899   23.1744 C   0  0  0  0  0  0  0  0  0  0  0  0
    5.7935   16.3428   23.7817 C   0  0  0  0  0  0  0  0  0  0  0  0
    5.7848   15.3937   24.9707 C   0  0  0  0  0  0  0  0  0  0  0  0
    6.0304   13.9585   24.4995 C   0  0  2  0  0  0  0  0  0  0  0  0
    6.3116   12.8157   25.9131 S   0  0  0  0  0  0  0  0  0  0  0  0
    5.6002   11.5716   25.6931 O   0  0  0  0  0  0  0  0  0  0  0  0
    6.0371   13.5570   27.1322 O   0  0  0  0  0  0  0  0  0  0  0  0
    7.9482   12.4675   25.9830 N   0  0  0  0  0  0  0  0  0  0  0  0
    8.8790   13.6427   25.9057 C   0  0  0  0  0  0  0  0  0  0  0  0
   10.1588   13.0660   25.3039 C   0  0  0  0  0  0  0  0  0  0  0  0
    9.6173   11.9092   24.5591 C   0  0  0  0  0  0  0  0  0  0  0  0
   10.0532   11.3425   23.4001 C   0  0  0  0  0  0  0  0  0  0  0  0
    9.5664   10.0919   23.0374 C   0  0  0  0  0  0  0  0  0  0  0  0
    8.5690    9.4885   23.7932 C   0  0  0  0  0  0  0  0  0  0  0  0
    7.9635   10.1976   24.8244 C   0  0  0  0  0  0  0  0  0  0  0  0
    8.4602   11.4475   25.1329 C   0  0  0  0  0  0  0  0  0  0  0  0
    6.9723   13.8861   23.2551 C   0  0  0  0  0  0  0  0  0  0  0  0
  1  2  1  0
  2  3  1  0
  3  4  2  0
  5  3  1  1
  5  6  1  0
  6  7  1  0
  7  8  1  0
  8  9  1  0
  8 10  1  0
  8 11  1  0
 11 12  1  6
 12 13  1  0
 13 14  1  0
 14 15  1  0
 15 16  1  0
 16 17  1  1
 17 18  2  0
 17 19  2  0
 17 20  1  0
 20 21  1  0
 21 22  1  0
 22 23  1  0
 23 24  2  0
 24 25  1  0
 25 26  2  0
 26 27  1  0
 27 28  2  0
 16 29  1  0
 11  5  1  0
 29 12  1  0
 28 20  1  0
 28 23  1  0
M  END
>  <energy_score>  (2065) 
-33.230642

>  <inchikey>  (2065) 
None

>  <smiles>  (2065) 
None

>  <ref_pdb>  (2065) 
A3868a

>  <alias>  (2065) 
None

>  <HIPPO Pose ID>  (2065) 
499709

>  <name>  (2065) 
P499709

>  <HIPPO Compound ID>  (2065) 
311039

>  <ref_mols>  (2065) 
A1778a,A3868a

>  <distance_score>  (2065) 
1.459916

>  <inspiration_score>  (2065) 
None

$$$$
P499710
     RDKit          3D

 22 24  0  0  0  0  0  0  0  0999 V2000
    4.3572   13.8103   26.6133 C   0  0  0  0  0  0  0  0  0  0  0  0
    5.4994   13.0289   26.0832 C   0  0  0  0  0  0  0  0  0  0  0  0
    6.0742   13.2906   24.8764 N   0  0  0  0  0  0  0  0  0  0  0  0
    7.2720   12.6254   24.8240 C   0  0  0  0  0  0  0  0  0  0  0  0
    8.2490   13.0560   23.8402 C   0  0  0  0  0  0  0  0  0  0  0  0
    7.9147   13.7171   22.8579 O   0  0  0  0  0  0  0  0  0  0  0  0
    9.5838   12.8094   24.0610 N   0  0  0  0  0  0  0  0  0  0  0  0
   10.3674   13.7311   24.8567 C   0  0  0  0  0  0  0  0  0  0  0  0
   11.4715   13.0776   25.6954 C   0  0  0  0  0  0  0  0  0  0  0  0
   12.2789   12.0246   24.9446 C   0  0  0  0  0  0  0  0  0  0  0  0
   11.1725   11.0274   24.4625 C   0  0  0  0  0  0  0  0  0  0  0  0
   10.1889   11.6375   23.4982 C   0  0  0  0  0  0  0  0  0  0  0  0
   13.1088   12.8116   23.9354 C   0  0  0  0  0  0  0  0  0  0  0  0
   14.4840   12.7818   24.6169 C   0  0  0  0  0  0  0  0  0  0  0  0
   15.5986   12.7288   24.1585 O   0  0  0  0  0  0  0  0  0  0  0  0
   14.3727   12.4384   25.9174 N   0  0  0  0  0  0  0  0  0  0  0  0
   13.4365   11.4133   25.8005 C   0  0  2  0  0  0  0  0  0  0  0  0
   14.1798   10.2092   25.1489 C   0  0  0  0  0  0  0  0  0  0  0  0
   13.3405    9.0961   24.9425 O   0  0  0  0  0  0  0  0  0  0  0  0
    7.3160   11.6954   25.7729 N   0  0  0  0  0  0  0  0  0  0  0  0
    6.1580   11.9060   26.5204 C   0  0  0  0  0  0  0  0  0  0  0  0
    5.6157   10.9915   27.8547 Cl  0  0  0  0  0  0  0  0  0  0  0  0
  1  2  1  0
  2  3  1  0
  3  4  1  0
  4  5  1  0
  5  6  2  0
  5  7  1  0
  7  8  1  0
  8  9  1  0
  9 10  1  0
 10 11  1  0
 11 12  1  0
 10 13  1  0
 13 14  1  0
 14 15  2  0
 14 16  1  0
 16 17  1  0
 17 18  1  6
 18 19  1  0
  4 20  2  0
 20 21  1  0
 21 22  1  0
 21  2  2  0
 12  7  1  0
 17 10  1  0
M  END
>  <energy_score>  (2066) 
-12.484865

>  <inchikey>  (2066) 
None

>  <smiles>  (2066) 
None

>  <ref_pdb>  (2066) 
A0875a

>  <alias>  (2066) 
None

>  <HIPPO Pose ID>  (2066) 
499710

>  <name>  (2066) 
P499710

>  <HIPPO Compound ID>  (2066) 
311411

>  <ref_mols>  (2066) 
A1209a,A0875a

>  <distance_score>  (2066) 
1.95203

>  <inspiration_score>  (2066) 
None

$$$$
P499711
     RDKit          3D

 22 24  0  0  0  0  0  0  0  0999 V2000
    4.1631   13.6768   27.2618 C   0  0  0  0  0  0  0  0  0  0  0  0
    4.7732   13.9152   25.8917 C   0  0  0  0  0  0  0  0  0  0  0  0
    5.9985   13.1096   25.6288 C   0  0  0  0  0  0  0  0  0  0  0  0
    6.8505   12.3692   26.4073 C   0  0  0  0  0  0  0  0  0  0  0  0
    8.0463   12.1269   25.7623 N   0  0  0  0  0  0  0  0  0  0  0  0
    7.9118   12.7030   24.5791 C   0  0  0  0  0  0  0  0  0  0  0  0
    8.8818   12.8520   23.5122 C   0  0  0  0  0  0  0  0  0  0  0  0
    8.5045   13.1567   22.3831 O   0  0  0  0  0  0  0  0  0  0  0  0
   10.2028   12.5469   23.7685 N   0  0  0  0  0  0  0  0  0  0  0  0
   11.1700   13.5587   24.1558 C   0  0  0  0  0  0  0  0  0  0  0  0
   12.6178   13.0484   23.9356 C   0  0  0  0  0  0  0  0  0  0  0  0
   12.9966   11.8581   24.8702 C   0  0  0  0  0  0  0  0  0  0  0  0
   11.7191   10.9328   24.7639 C   0  0  0  0  0  0  0  0  0  0  0  0
   10.6671   11.1860   23.6556 C   0  0  0  0  0  0  0  0  0  0  0  0
   13.2549   12.3513   26.3258 C   0  0  0  0  0  0  0  0  0  0  0  0
   14.7272   12.6637   26.4256 C   0  0  0  0  0  0  0  0  0  0  0  0
   15.3257   13.0370   27.4144 O   0  0  0  0  0  0  0  0  0  0  0  0
   15.2779   12.3751   25.1968 N   0  0  0  0  0  0  0  0  0  0  0  0
   14.4787   11.3284   24.6302 C   0  0  1  0  0  0  0  0  0  0  0  0
   15.0490   10.0571   25.2799 C   0  0  0  0  0  0  0  0  0  0  0  0
   14.2246    8.9398   25.0983 O   0  0  0  0  0  0  0  0  0  0  0  0
    6.6112   13.1099   24.4054 N   0  0  0  0  0  0  0  0  0  0  0  0
  1  2  1  0
  2  3  1  0
  3  4  2  0
  4  5  1  0
  5  6  2  0
  6  7  1  0
  7  8  2  0
  7  9  1  0
  9 10  1  0
 10 11  1  0
 11 12  1  0
 12 13  1  0
 13 14  1  0
 12 15  1  0
 15 16  1  0
 16 17  2  0
 16 18  1  0
 18 19  1  0
 19 20  1  1
 20 21  1  0
  6 22  1  0
 22  3  1  0
 14  9  1  0
 19 12  1  0
M  END
>  <energy_score>  (2067) 
-13.000094

>  <inchikey>  (2067) 
None

>  <smiles>  (2067) 
None

>  <ref_pdb>  (2067) 
A0875a

>  <alias>  (2067) 
None

>  <HIPPO Pose ID>  (2067) 
499711

>  <name>  (2067) 
P499711

>  <HIPPO Compound ID>  (2067) 
311412

>  <ref_mols>  (2067) 
A1209a,A0875a

>  <distance_score>  (2067) 
1.97885

>  <inspiration_score>  (2067) 
None

$$$$
P499712
     RDKit          3D

 23 25  0  0  0  0  0  0  0  0999 V2000
    6.4784   13.1823   28.9205 C   0  0  0  0  0  0  0  0  0  0  0  0
    5.9900   12.0859   27.9732 C   0  0  0  0  0  0  0  0  0  0  0  0
    4.4813   11.9281   28.1741 C   0  0  0  0  0  0  0  0  0  0  0  0
    6.4369   12.3577   26.5457 C   0  0  0  0  0  0  0  0  0  0  0  0
    5.7186   13.0728   25.6256 C   0  0  0  0  0  0  0  0  0  0  0  0
    6.4859   13.1273   24.5105 N   0  0  0  0  0  0  0  0  0  0  0  0
    7.7339   12.6240   24.7873 C   0  0  0  0  0  0  0  0  0  0  0  0
    8.7424   12.7543   23.7292 C   0  0  0  0  0  0  0  0  0  0  0  0
    8.3607   13.0434   22.5906 O   0  0  0  0  0  0  0  0  0  0  0  0
   10.0864   12.4693   23.9042 N   0  0  0  0  0  0  0  0  0  0  0  0
   11.0581   13.5068   24.2300 C   0  0  0  0  0  0  0  0  0  0  0  0
   12.5180   13.0293   23.9661 C   0  0  0  0  0  0  0  0  0  0  0  0
   12.9502   11.8485   24.8891 C   0  0  0  0  0  0  0  0  0  0  0  0
   11.6913   10.9000   24.8127 C   0  0  0  0  0  0  0  0  0  0  0  0
   10.5817   11.1178   23.7685 C   0  0  0  0  0  0  0  0  0  0  0  0
   13.2342   12.3503   26.3388 C   0  0  0  0  0  0  0  0  0  0  0  0
   14.7063   12.6680   26.4143 C   0  0  0  0  0  0  0  0  0  0  0  0
   15.3226   13.0356   27.3942 O   0  0  0  0  0  0  0  0  0  0  0  0
   15.2340   12.3924   25.1726 N   0  0  0  0  0  0  0  0  0  0  0  0
   14.4347   11.3368   24.6264 C   0  0  1  0  0  0  0  0  0  0  0  0
   15.0306   10.0727   25.2709 C   0  0  0  0  0  0  0  0  0  0  0  0
   14.2208    8.9441   25.0969 O   0  0  0  0  0  0  0  0  0  0  0  0
    7.7153   12.0713   26.0019 N   0  0  0  0  0  0  0  0  0  0  0  0
  1  2  1  0
  2  3  1  0
  2  4  1  0
  4  5  2  0
  5  6  1  0
  6  7  1  0
  7  8  1  0
  8  9  2  0
  8 10  1  0
 10 11  1  0
 11 12  1  0
 12 13  1  0
 13 14  1  0
 14 15  1  0
 13 16  1  0
 16 17  1  0
 17 18  2  0
 17 19  1  0
 19 20  1  0
 20 21  1  1
 21 22  1  0
  7 23  2  0
 23  4  1  0
 15 10  1  0
 20 13  1  0
M  END
>  <energy_score>  (2068) 
-19.38053

>  <inchikey>  (2068) 
None

>  <smiles>  (2068) 
None

>  <ref_pdb>  (2068) 
A0875a

>  <alias>  (2068) 
None

>  <HIPPO Pose ID>  (2068) 
499712

>  <name>  (2068) 
P499712

>  <HIPPO Compound ID>  (2068) 
311414

>  <ref_mols>  (2068) 
A1209a,A0875a

>  <distance_score>  (2068) 
1.760261

>  <inspiration_score>  (2068) 
None

$$$$
P499713
     RDKit          3D

 23 25  0  0  0  0  0  0  0  0999 V2000
    6.1116   12.4423   28.0190 C   0  0  0  0  0  0  0  0  0  0  0  0
    6.0797   12.2045   26.5048 C   0  0  0  0  0  0  0  0  0  0  0  0
    5.2797   13.3452   25.8775 C   0  0  0  0  0  0  0  0  0  0  0  0
    7.4313   12.0307   25.8561 C   0  0  0  0  0  0  0  0  0  0  0  0
    8.0270   10.9381   25.2735 C   0  0  0  0  0  0  0  0  0  0  0  0
    9.2441   11.3570   24.7974 N   0  0  0  0  0  0  0  0  0  0  0  0
    9.3900   12.6799   25.1188 C   0  0  0  0  0  0  0  0  0  0  0  0
   10.5174   13.5585   24.7989 C   0  0  0  0  0  0  0  0  0  0  0  0
   10.3935   14.6330   24.2187 O   0  0  0  0  0  0  0  0  0  0  0  0
   11.7799   13.1746   25.2807 N   0  0  0  0  0  0  0  0  0  0  0  0
   12.2149   13.5209   26.6135 C   0  0  0  0  0  0  0  0  0  0  0  0
   13.6039   13.0711   27.1140 C   0  0  0  0  0  0  0  0  0  0  0  0
   14.2668   11.8907   26.3764 C   0  0  0  0  0  0  0  0  0  0  0  0
   13.3125   11.3227   25.2692 C   0  0  0  0  0  0  0  0  0  0  0  0
   12.6605   12.4273   24.4472 C   0  0  0  0  0  0  0  0  0  0  0  0
   14.9463   11.0628   27.5406 C   0  0  0  0  0  0  0  0  0  0  0  0
   16.2093   11.8397   27.8420 C   0  0  0  0  0  0  0  0  0  0  0  0
   16.8535   11.8262   28.8703 O   0  0  0  0  0  0  0  0  0  0  0  0
   16.5093   12.5211   26.6887 N   0  0  0  0  0  0  0  0  0  0  0  0
   15.5804   12.2212   25.6486 C   0  0  1  0  0  0  0  0  0  0  0  0
   16.0144   10.9601   24.8942 C   0  0  0  0  0  0  0  0  0  0  0  0
   15.6674   11.1675   23.5408 O   0  0  0  0  0  0  0  0  0  0  0  0
    8.3096   13.0753   25.7739 N   0  0  0  0  0  0  0  0  0  0  0  0
  1  2  1  0
  2  3  1  0
  2  4  1  0
  4  5  2  0
  5  6  1  0
  6  7  1  0
  7  8  1  0
  8  9  2  0
  8 10  1  0
 10 11  1  0
 11 12  1  0
 12 13  1  0
 13 14  1  0
 14 15  1  0
 13 16  1  0
 16 17  1  0
 17 18  2  0
 17 19  1  0
 19 20  1  0
 20 21  1  1
 21 22  1  0
  7 23  2  0
 23  4  1  0
 15 10  1  0
 20 13  1  0
M  END
>  <energy_score>  (2069) 
-0.338568

>  <inchikey>  (2069) 
None

>  <smiles>  (2069) 
None

>  <ref_pdb>  (2069) 
A0875a

>  <alias>  (2069) 
None

>  <HIPPO Pose ID>  (2069) 
499713

>  <name>  (2069) 
P499713

>  <HIPPO Compound ID>  (2069) 
311414

>  <ref_mols>  (2069) 
A1209a,A0875a

>  <distance_score>  (2069) 
1.948164

>  <inspiration_score>  (2069) 
None

$$$$
P499714
     RDKit          3D

 23 25  0  0  0  0  0  0  0  0999 V2000
    4.1059   14.1434   26.7270 C   0  0  0  0  0  0  0  0  0  0  0  0
    4.8784   14.0184   25.4257 C   0  0  0  0  0  0  0  0  0  0  0  0
    6.0410   13.0686   25.4515 C   0  0  0  0  0  0  0  0  0  0  0  0
    6.9712   13.1260   24.4471 N   0  0  0  0  0  0  0  0  0  0  0  0
    8.0443   12.3450   24.7801 C   0  0  0  0  0  0  0  0  0  0  0  0
    9.1959   12.3138   23.9051 C   0  0  0  0  0  0  0  0  0  0  0  0
    9.0355   12.5445   22.7121 O   0  0  0  0  0  0  0  0  0  0  0  0
   10.4449   11.9301   24.3604 N   0  0  0  0  0  0  0  0  0  0  0  0
   11.3507   12.9676   24.7747 C   0  0  0  0  0  0  0  0  0  0  0  0
   12.7718   12.6090   24.3209 C   0  0  0  0  0  0  0  0  0  0  0  0
   13.3219   11.4125   25.1393 C   0  0  0  0  0  0  0  0  0  0  0  0
   12.2706   10.2281   24.9197 C   0  0  0  0  0  0  0  0  0  0  0  0
   10.8290   10.5405   24.4186 C   0  0  0  0  0  0  0  0  0  0  0  0
   13.5920   11.9930   26.5738 C   0  0  0  0  0  0  0  0  0  0  0  0
   15.0215   12.4716   26.5707 C   0  0  0  0  0  0  0  0  0  0  0  0
   15.5820   13.0375   27.4878 O   0  0  0  0  0  0  0  0  0  0  0  0
   15.5774   12.0811   25.3820 N   0  0  0  0  0  0  0  0  0  0  0  0
   14.8099   11.0141   24.8066 C   0  0  1  0  0  0  0  0  0  0  0  0
   15.2703    9.7035   25.4865 C   0  0  0  0  0  0  0  0  0  0  0  0
   16.5496    9.2838   25.1018 O   0  0  0  0  0  0  0  0  0  0  0  0
    7.7465   11.6001   25.8298 N   0  0  0  0  0  0  0  0  0  0  0  0
    6.4783   12.0191   26.2318 C   0  0  0  0  0  0  0  0  0  0  0  0
    5.6489   11.3518   27.5654 Cl  0  0  0  0  0  0  0  0  0  0  0  0
  1  2  1  0
  2  3  1  0
  3  4  1  0
  4  5  1  0
  5  6  1  0
  6  7  2  0
  6  8  1  0
  8  9  1  0
  9 10  1  0
 10 11  1  0
 11 12  1  0
 12 13  1  0
 11 14  1  0
 14 15  1  0
 15 16  2  0
 15 17  1  0
 17 18  1  0
 18 19  1  1
 19 20  1  0
  5 21  2  0
 21 22  1  0
 22 23  1  0
 22  3  2  0
 13  8  1  0
 18 11  1  0
M  END
>  <energy_score>  (2070) 
-4.235035

>  <inchikey>  (2070) 
None

>  <smiles>  (2070) 
None

>  <ref_pdb>  (2070) 
A0875a

>  <alias>  (2070) 
None

>  <HIPPO Pose ID>  (2070) 
499714

>  <name>  (2070) 
P499714

>  <HIPPO Compound ID>  (2070) 
311415

>  <ref_mols>  (2070) 
A1209a,A0875a

>  <distance_score>  (2070) 
1.616869

>  <inspiration_score>  (2070) 
None

$$$$
P499715
     RDKit          3D

 24 27  0  0  0  0  0  0  0  0999 V2000
   15.5151   11.3144   23.6982 O   0  0  0  0  0  0  0  0  0  0  0  0
   14.5550   11.4927   24.4167 C   0  0  0  0  0  0  0  0  0  0  0  0
   13.4072   12.4720   24.1715 C   0  0  0  0  0  0  0  0  0  0  0  0
   12.4563   12.1488   25.2970 C   0  0  0  0  0  0  0  0  0  0  0  0
   11.5381   13.2950   25.6757 C   0  0  0  0  0  0  0  0  0  0  0  0
   10.5484   13.7201   24.5709 C   0  0  0  0  0  0  0  0  0  0  0  0
    9.7408   12.5760   24.1717 N   0  0  0  0  0  0  0  0  0  0  0  0
    8.3504   12.5764   24.2042 C   0  0  0  0  0  0  0  0  0  0  0  0
    7.7266   12.9445   23.2102 O   0  0  0  0  0  0  0  0  0  0  0  0
    7.6804   12.2394   25.4628 C   0  0  0  0  0  0  0  0  0  0  0  0
    7.6331   13.0400   26.5124 N   0  0  0  0  0  0  0  0  0  0  0  0
    6.6070   12.5947   27.3209 C   0  0  0  0  0  0  0  0  0  0  0  0
    6.0974   13.1045   28.5270 C   0  0  0  0  0  0  0  0  0  0  0  0
    5.1371   12.3706   29.2336 C   0  0  0  0  0  0  0  0  0  0  0  0
    4.7057   11.1349   28.7623 C   0  0  0  0  0  0  0  0  0  0  0  0
    5.2049   10.6099   27.5674 C   0  0  0  0  0  0  0  0  0  0  0  0
    6.1327   11.3835   26.8576 C   0  0  0  0  0  0  0  0  0  0  0  0
    6.8535   11.1722   25.7039 N   0  0  0  0  0  0  0  0  0  0  0  0
   10.4628   11.4054   23.7259 C   0  0  0  0  0  0  0  0  0  0  0  0
   11.4485   11.0020   24.8148 C   0  0  0  0  0  0  0  0  0  0  0  0
   13.5530   11.7682   26.3723 C   0  0  2  0  0  0  0  0  0  0  0  0
   14.4719   12.7592   27.1150 C   0  0  0  0  0  0  0  0  0  0  0  0
   15.1129   12.0373   28.1789 O   0  0  0  0  0  0  0  0  0  0  0  0
   14.3859   10.8787   25.6279 N   0  0  0  0  0  0  0  0  0  0  0  0
  1  2  2  0
  2  3  1  0
  3  4  1  0
  4  5  1  0
  5  6  1  0
  6  7  1  0
  7  8  1  0
  8  9  2  0
  8 10  1  0
 10 11  2  0
 11 12  1  0
 12 13  2  0
 13 14  1  0
 14 15  2  0
 15 16  1  0
 16 17  2  0
 17 18  1  0
  7 19  1  0
 19 20  1  0
  4 21  1  0
 21 22  1  6
 22 23  1  0
 21 24  1  0
 24  2  1  0
 20  4  1  0
 18 10  1  0
 17 12  1  0
M  END
>  <energy_score>  (2071) 
-1.722853

>  <inchikey>  (2071) 
None

>  <smiles>  (2071) 
None

>  <ref_pdb>  (2071) 
A0875a

>  <alias>  (2071) 
None

>  <HIPPO Pose ID>  (2071) 
499715

>  <name>  (2071) 
P499715

>  <HIPPO Compound ID>  (2071) 
311420

>  <ref_mols>  (2071) 
A1209a,A0875a

>  <distance_score>  (2071) 
1.96136

>  <inspiration_score>  (2071) 
None

$$$$
P499716
     RDKit          3D

 25 28  0  0  0  0  0  0  0  0999 V2000
   16.4745    9.2869   25.2265 O   0  0  0  0  0  0  0  0  0  0  0  0
   15.6464   10.1446   25.4203 C   0  0  0  0  0  0  0  0  0  0  0  0
   15.0407   11.1444   24.4764 C   0  0  0  0  0  0  0  0  0  0  0  0
   13.6448   11.4159   25.1176 C   0  0  0  0  0  0  0  0  0  0  0  0
   12.9815   12.6449   24.5265 C   0  0  0  0  0  0  0  0  0  0  0  0
   11.5815   12.8392   25.0872 C   0  0  0  0  0  0  0  0  0  0  0  0
   10.7645   11.8498   24.4305 N   0  0  0  0  0  0  0  0  0  0  0  0
    9.6201   12.2662   23.7788 C   0  0  0  0  0  0  0  0  0  0  0  0
    9.7271   12.5724   22.5965 O   0  0  0  0  0  0  0  0  0  0  0  0
    8.3563   12.2642   24.4853 C   0  0  0  0  0  0  0  0  0  0  0  0
    7.3963   13.0856   24.1274 N   0  0  0  0  0  0  0  0  0  0  0  0
    6.4357   13.0025   25.0875 C   0  0  0  0  0  0  0  0  0  0  0  0
    5.2993   13.8096   25.2497 C   0  0  0  0  0  0  0  0  0  0  0  0
    4.5543   13.6632   26.4141 C   0  0  0  0  0  0  0  0  0  0  0  0
    3.4634   14.4532   26.6369 O   0  0  0  0  0  0  0  0  0  0  0  0
    4.8626   12.6783   27.3460 C   0  0  0  0  0  0  0  0  0  0  0  0
    5.9262   11.7870   27.1296 C   0  0  0  0  0  0  0  0  0  0  0  0
    6.7393   12.0116   26.0089 C   0  0  0  0  0  0  0  0  0  0  0  0
    7.9070   11.4645   25.5122 N   0  0  0  0  0  0  0  0  0  0  0  0
   11.1396   10.4653   24.4575 C   0  0  0  0  0  0  0  0  0  0  0  0
   12.6065   10.2011   24.9091 C   0  0  0  0  0  0  0  0  0  0  0  0
   14.2146   11.5436   26.5604 C   0  0  2  0  0  0  0  0  0  0  0  0
   15.1035   12.7055   27.0088 C   0  0  0  0  0  0  0  0  0  0  0  0
   15.7981   12.3138   28.2039 O   0  0  0  0  0  0  0  0  0  0  0  0
   15.0406   10.3727   26.6216 N   0  0  0  0  0  0  0  0  0  0  0  0
  1  2  2  0
  2  3  1  0
  3  4  1  0
  4  5  1  0
  5  6  1  0
  6  7  1  0
  7  8  1  0
  8  9  2  0
  8 10  1  0
 10 11  2  0
 11 12  1  0
 12 13  2  0
 13 14  1  0
 14 15  1  0
 14 16  2  0
 16 17  1  0
 17 18  2  0
 18 19  1  0
  7 20  1  0
 20 21  1  0
  4 22  1  0
 22 23  1  6
 23 24  1  0
 22 25  1  0
 25  2  1  0
 21  4  1  0
 19 10  1  0
 18 12  1  0
M  END
>  <energy_score>  (2072) 
-19.552663

>  <inchikey>  (2072) 
None

>  <smiles>  (2072) 
None

>  <ref_pdb>  (2072) 
A0875a

>  <alias>  (2072) 
None

>  <HIPPO Pose ID>  (2072) 
499716

>  <name>  (2072) 
P499716

>  <HIPPO Compound ID>  (2072) 
311427

>  <ref_mols>  (2072) 
A1209a,A0875a

>  <distance_score>  (2072) 
1.801256

>  <inspiration_score>  (2072) 
None

$$$$
P499717
     RDKit          3D

 25 28  0  0  0  0  0  0  0  0999 V2000
   14.1132   12.9189   27.8526 O   0  0  0  0  0  0  0  0  0  0  0  0
   13.6341   12.3152   26.9122 C   0  0  0  0  0  0  0  0  0  0  0  0
   12.4464   12.7006   26.0873 C   0  0  0  0  0  0  0  0  0  0  0  0
   12.5166   11.8534   24.7922 C   0  0  0  0  0  0  0  0  0  0  0  0
   12.2832   12.9130   23.6798 C   0  0  0  0  0  0  0  0  0  0  0  0
   10.8113   13.4745   23.7664 C   0  0  0  0  0  0  0  0  0  0  0  0
    9.8205   12.4011   23.7443 N   0  0  0  0  0  0  0  0  0  0  0  0
    8.4525   12.5505   23.9032 C   0  0  0  0  0  0  0  0  0  0  0  0
    7.7640   12.7381   22.9008 O   0  0  0  0  0  0  0  0  0  0  0  0
    7.8472   12.3760   25.2222 C   0  0  0  0  0  0  0  0  0  0  0  0
    8.0389   13.0640   26.3266 N   0  0  0  0  0  0  0  0  0  0  0  0
    7.0177   12.6879   27.2014 C   0  0  0  0  0  0  0  0  0  0  0  0
    6.7299   13.1125   28.5217 C   0  0  0  0  0  0  0  0  0  0  0  0
    5.7406   12.4531   29.2521 C   0  0  0  0  0  0  0  0  0  0  0  0
    5.4542   12.7946   30.5412 O   0  0  0  0  0  0  0  0  0  0  0  0
    5.0554   11.3744   28.7167 C   0  0  0  0  0  0  0  0  0  0  0  0
    5.3600   10.9069   27.4367 C   0  0  0  0  0  0  0  0  0  0  0  0
    6.3233   11.6057   26.6989 C   0  0  0  0  0  0  0  0  0  0  0  0
    6.9201   11.3964   25.4895 N   0  0  0  0  0  0  0  0  0  0  0  0
   10.3190   11.0699   23.5378 C   0  0  0  0  0  0  0  0  0  0  0  0
   11.3050   10.8171   24.6739 C   0  0  0  0  0  0  0  0  0  0  0  0
   13.8858   11.0374   25.0293 C   0  0  1  0  0  0  0  0  0  0  0  0
   15.2318   11.4738   24.4662 C   0  0  0  0  0  0  0  0  0  0  0  0
   15.2619   12.8715   24.4953 O   0  0  0  0  0  0  0  0  0  0  0  0
   14.0932   11.1067   26.4590 N   0  0  0  0  0  0  0  0  0  0  0  0
  1  2  2  0
  2  3  1  0
  3  4  1  0
  4  5  1  0
  5  6  1  0
  6  7  1  0
  7  8  1  0
  8  9  2  0
  8 10  1  0
 10 11  2  0
 11 12  1  0
 12 13  2  0
 13 14  1  0
 14 15  1  0
 14 16  2  0
 16 17  1  0
 17 18  2  0
 18 19  1  0
  7 20  1  0
 20 21  1  0
  4 22  1  0
 22 23  1  6
 23 24  1  0
 22 25  1  0
 25  2  1  0
 21  4  1  0
 19 10  1  0
 18 12  1  0
M  END
>  <energy_score>  (2073) 
-5.004874

>  <inchikey>  (2073) 
None

>  <smiles>  (2073) 
None

>  <ref_pdb>  (2073) 
A0875a

>  <alias>  (2073) 
None

>  <HIPPO Pose ID>  (2073) 
499717

>  <name>  (2073) 
P499717

>  <HIPPO Compound ID>  (2073) 
311427

>  <ref_mols>  (2073) 
A1209a,A0875a

>  <distance_score>  (2073) 
1.736212

>  <inspiration_score>  (2073) 
None

$$$$
P499718
     RDKit          3D

 25 28  0  0  0  0  0  0  0  0999 V2000
   15.5661   11.2482   23.6109 O   0  0  0  0  0  0  0  0  0  0  0  0
   14.5792   11.3677   24.3035 C   0  0  0  0  0  0  0  0  0  0  0  0
   13.4542   12.3963   24.1081 C   0  0  0  0  0  0  0  0  0  0  0  0
   12.5243   12.0462   25.2311 C   0  0  0  0  0  0  0  0  0  0  0  0
   11.6302   13.1979   25.6422 C   0  0  0  0  0  0  0  0  0  0  0  0
   10.6193   13.6373   24.5561 C   0  0  0  0  0  0  0  0  0  0  0  0
    9.8159   12.5012   24.1164 N   0  0  0  0  0  0  0  0  0  0  0  0
    8.4293   12.5100   24.1084 C   0  0  0  0  0  0  0  0  0  0  0  0
    7.8293   12.8945   23.1062 O   0  0  0  0  0  0  0  0  0  0  0  0
    7.7394   12.1566   25.3448 C   0  0  0  0  0  0  0  0  0  0  0  0
    7.5605   13.0230   26.3212 N   0  0  0  0  0  0  0  0  0  0  0  0
    6.5367   12.5491   27.0986 C   0  0  0  0  0  0  0  0  0  0  0  0
    5.8856   13.1330   28.2022 C   0  0  0  0  0  0  0  0  0  0  0  0
    4.9360   12.3930   28.9131 C   0  0  0  0  0  0  0  0  0  0  0  0
    4.6547   11.0907   28.5357 C   0  0  0  0  0  0  0  0  0  0  0  0
    3.7552   10.3877   29.2354 F   0  0  0  0  0  0  0  0  0  0  0  0
    5.2793   10.4922   27.4420 C   0  0  0  0  0  0  0  0  0  0  0  0
    6.2048   11.2619   26.7188 C   0  0  0  0  0  0  0  0  0  0  0  0
    7.0286   11.0175   25.6364 N   0  0  0  0  0  0  0  0  0  0  0  0
   10.5253   11.3258   23.6738 C   0  0  0  0  0  0  0  0  0  0  0  0
   11.4993   10.9087   24.7642 C   0  0  0  0  0  0  0  0  0  0  0  0
   13.6514   11.6337   26.2488 C   0  0  2  0  0  0  0  0  0  0  0  0
   14.7309   12.5801   26.8192 C   0  0  0  0  0  0  0  0  0  0  0  0
   15.5447   11.8043   27.7130 O   0  0  0  0  0  0  0  0  0  0  0  0
   14.3683   10.6728   25.4730 N   0  0  0  0  0  0  0  0  0  0  0  0
  1  2  2  0
  2  3  1  0
  3  4  1  0
  4  5  1  0
  5  6  1  0
  6  7  1  0
  7  8  1  0
  8  9  2  0
  8 10  1  0
 10 11  2  0
 11 12  1  0
 12 13  2  0
 13 14  1  0
 14 15  2  0
 15 16  1  0
 15 17  1  0
 17 18  2  0
 18 19  1  0
  7 20  1  0
 20 21  1  0
  4 22  1  0
 22 23  1  6
 23 24  1  0
 22 25  1  0
 25  2  1  0
 21  4  1  0
 19 10  1  0
 18 12  1  0
M  END
>  <energy_score>  (2074) 
-4.258967

>  <inchikey>  (2074) 
None

>  <smiles>  (2074) 
None

>  <ref_pdb>  (2074) 
A0875a

>  <alias>  (2074) 
None

>  <HIPPO Pose ID>  (2074) 
499718

>  <name>  (2074) 
P499718

>  <HIPPO Compound ID>  (2074) 
311439

>  <ref_mols>  (2074) 
A1209a,A0875a

>  <distance_score>  (2074) 
1.819827

>  <inspiration_score>  (2074) 
None

$$$$
P499719
     RDKit          3D

 27 30  0  0  0  0  0  0  0  0999 V2000
    4.3412    9.3963   28.1201 C   0  0  0  0  0  0  0  0  0  0  0  0
    4.6715   10.8711   28.2486 C   0  0  0  0  0  0  0  0  0  0  0  0
    5.5655   11.4545   27.2022 C   0  0  0  0  0  0  0  0  0  0  0  0
    5.9066   12.7709   26.9889 C   0  0  0  0  0  0  0  0  0  0  0  0
    6.9319   12.8811   26.0947 N   0  0  0  0  0  0  0  0  0  0  0  0
    7.1629   11.6499   25.6738 C   0  0  0  0  0  0  0  0  0  0  0  0
    8.4343   11.2276   25.1052 C   0  0  0  0  0  0  0  0  0  0  0  0
    8.6217   10.1674   24.6597 O   0  0  0  0  0  0  0  0  0  0  0  0
    9.4020   12.3999   25.3279 N   0  0  0  0  0  0  0  0  0  0  0  0
   10.7699   12.4825   25.1465 C   0  0  0  0  0  0  0  0  0  0  0  0
   11.3930   13.4146   25.9632 C   0  0  0  0  0  0  0  0  0  0  0  0
   12.6834   13.1761   26.4450 C   0  0  0  0  0  0  0  0  0  0  0  0
   13.4531   12.1244   25.9692 C   0  0  0  0  0  0  0  0  0  0  0  0
   14.7778   11.6844   26.5507 C   0  0  0  0  0  0  0  0  0  0  0  0
   15.1024   10.5974   26.2762 O   0  0  0  0  0  0  0  0  0  0  0  0
   15.4311   12.7144   27.4946 N   0  0  0  0  0  0  0  0  0  0  0  0
   16.6809   12.6588   28.2317 C   0  0  2  0  0  0  0  0  0  0  0  0
   17.8508   11.9803   27.4765 C   0  0  0  0  0  0  0  0  0  0  0  0
   18.5762   11.0076   28.3336 N   0  0  0  0  0  0  0  0  0  0  0  0
   17.6320    9.9230   28.6873 C   0  0  0  0  0  0  0  0  0  0  0  0
   16.4012   10.4588   29.4370 C   0  0  0  0  0  0  0  0  0  0  0  0
   16.5220   11.9809   29.6103 C   0  0  0  0  0  0  0  0  0  0  0  0
   17.8293   12.2322   30.3843 C   0  0  0  0  0  0  0  0  0  0  0  0
   19.0163   11.6836   29.5728 C   0  0  0  0  0  0  0  0  0  0  0  0
   12.8493   11.2850   25.0259 C   0  0  0  0  0  0  0  0  0  0  0  0
   11.5076   11.4430   24.6210 C   0  0  0  0  0  0  0  0  0  0  0  0
    6.2381   10.7871   26.2063 N   0  0  0  0  0  0  0  0  0  0  0  0
  1  2  1  0
  2  3  1  0
  3  4  2  0
  4  5  1  0
  5  6  2  0
  6  7  1  0
  7  8  2  0
  7  9  1  0
  9 10  1  0
 10 11  2  0
 11 12  1  0
 12 13  2  0
 13 14  1  0
 14 15  2  0
 14 16  1  0
 17 16  1  6
 17 18  1  0
 19 18  1  0
 19 20  1  0
 20 21  1  0
 21 22  1  0
 22 23  1  0
 23 24  1  0
 13 25  1  0
 25 26  2  0
  6 27  1  0
 27  3  1  0
 26 10  1  0
 22 17  1  0
 24 19  1  0
M  END
>  <energy_score>  (2075) 
-16.806386

>  <inchikey>  (2075) 
None

>  <smiles>  (2075) 
None

>  <ref_pdb>  (2075) 
A0875a

>  <alias>  (2075) 
None

>  <HIPPO Pose ID>  (2075) 
499719

>  <name>  (2075) 
P499719

>  <HIPPO Compound ID>  (2075) 
311468

>  <ref_mols>  (2075) 
A1209a,A0875a

>  <distance_score>  (2075) 
1.961595

>  <inspiration_score>  (2075) 
None

$$$$
P499720
     RDKit          3D

 27 30  0  0  0  0  0  0  0  0999 V2000
    4.7188   10.4090   28.1389 C   0  0  0  0  0  0  0  0  0  0  0  0
    5.5670   11.2291   27.2443 C   0  0  0  0  0  0  0  0  0  0  0  0
    6.2295   10.7174   26.1618 N   0  0  0  0  0  0  0  0  0  0  0  0
    7.1261   11.6504   25.7292 C   0  0  0  0  0  0  0  0  0  0  0  0
    8.3821   11.2657   25.1105 C   0  0  0  0  0  0  0  0  0  0  0  0
    8.5497   10.2278   24.6140 O   0  0  0  0  0  0  0  0  0  0  0  0
    9.3561   12.4153   25.3551 N   0  0  0  0  0  0  0  0  0  0  0  0
   10.7145   12.5004   25.1381 C   0  0  0  0  0  0  0  0  0  0  0  0
   11.3439   13.4357   25.9397 C   0  0  0  0  0  0  0  0  0  0  0  0
   12.6389   13.2024   26.3952 C   0  0  0  0  0  0  0  0  0  0  0  0
   13.3977   12.1429   25.9173 C   0  0  0  0  0  0  0  0  0  0  0  0
   14.7928   11.7903   26.3655 C   0  0  0  0  0  0  0  0  0  0  0  0
   15.3718   11.0307   25.6985 O   0  0  0  0  0  0  0  0  0  0  0  0
   15.1907   12.4566   27.6920 N   0  0  0  0  0  0  0  0  0  0  0  0
   16.4308   12.4032   28.4363 C   0  0  1  0  0  0  0  0  0  0  0  0
   16.8802   13.8052   28.9207 C   0  0  0  0  0  0  0  0  0  0  0  0
   16.9929   13.8730   30.4001 N   0  0  0  0  0  0  0  0  0  0  0  0
   18.0030   12.8846   30.8429 C   0  0  0  0  0  0  0  0  0  0  0  0
   17.6546   11.4595   30.3789 C   0  0  0  0  0  0  0  0  0  0  0  0
   16.2939   11.4737   29.6620 C   0  0  0  0  0  0  0  0  0  0  0  0
   15.2745   12.0769   30.6471 C   0  0  0  0  0  0  0  0  0  0  0  0
   15.6857   13.5170   30.9934 C   0  0  0  0  0  0  0  0  0  0  0  0
   12.7789   11.2829   25.0092 C   0  0  0  0  0  0  0  0  0  0  0  0
   11.4385   11.4473   24.6130 C   0  0  0  0  0  0  0  0  0  0  0  0
    6.9039   12.8093   26.3282 N   0  0  0  0  0  0  0  0  0  0  0  0
    5.9133   12.5594   27.2481 C   0  0  0  0  0  0  0  0  0  0  0  0
    5.3579   13.7299   28.3497 Cl  0  0  0  0  0  0  0  0  0  0  0  0
  1  2  1  0
  2  3  1  0
  3  4  1  0
  4  5  1  0
  5  6  2  0
  5  7  1  0
  7  8  1  0
  8  9  2  0
  9 10  1  0
 10 11  2  0
 11 12  1  0
 12 13  2  0
 12 14  1  0
 15 14  1  1
 15 16  1  0
 17 16  1  0
 17 18  1  0
 18 19  1  0
 19 20  1  0
 20 21  1  0
 21 22  1  0
 11 23  1  0
 23 24  2  0
  4 25  2  0
 25 26  1  0
 26 27  1  0
 26  2  2  0
 24  8  1  0
 20 15  1  0
 22 17  1  0
M  END
>  <energy_score>  (2076) 
-27.715696

>  <inchikey>  (2076) 
None

>  <smiles>  (2076) 
None

>  <ref_pdb>  (2076) 
A0875a

>  <alias>  (2076) 
None

>  <HIPPO Pose ID>  (2076) 
499720

>  <name>  (2076) 
P499720

>  <HIPPO Compound ID>  (2076) 
311478

>  <ref_mols>  (2076) 
A1209a,A0875a

>  <distance_score>  (2076) 
1.87324

>  <inspiration_score>  (2076) 
None

$$$$
P499721
     RDKit          3D

 29 33  0  0  0  0  0  0  0  0999 V2000
   15.2097   10.4855   26.3807 O   0  0  0  0  0  0  0  0  0  0  0  0
   14.9946   11.6175   26.5608 C   0  0  0  0  0  0  0  0  0  0  0  0
   15.8061   12.6779   27.3273 N   0  0  0  0  0  0  0  0  0  0  0  0
   17.0142   12.5491   28.1203 C   0  0  2  0  0  0  0  0  0  0  0  0
   18.0945   11.6130   27.5229 C   0  0  0  0  0  0  0  0  0  0  0  0
   18.6672   10.7005   28.5462 N   0  0  0  0  0  0  0  0  0  0  0  0
   17.5839    9.8035   29.0086 C   0  0  0  0  0  0  0  0  0  0  0  0
   16.4023   10.5916   29.5977 C   0  0  0  0  0  0  0  0  0  0  0  0
   16.7178   12.0967   29.5680 C   0  0  0  0  0  0  0  0  0  0  0  0
   18.0194   12.2877   30.3687 C   0  0  0  0  0  0  0  0  0  0  0  0
   19.1534   11.4961   29.6936 C   0  0  0  0  0  0  0  0  0  0  0  0
   13.6788   12.1190   26.0370 C   0  0  0  0  0  0  0  0  0  0  0  0
   12.9428   13.1304   26.6356 C   0  0  0  0  0  0  0  0  0  0  0  0
   11.6483   13.4426   26.2011 C   0  0  0  0  0  0  0  0  0  0  0  0
   11.0035   12.6327   25.2761 C   0  0  0  0  0  0  0  0  0  0  0  0
    9.6280   12.5520   25.4211 N   0  0  0  0  0  0  0  0  0  0  0  0
    8.6452   11.4473   25.0110 C   0  0  0  0  0  0  0  0  0  0  0  0
    8.8221   10.4615   24.4160 O   0  0  0  0  0  0  0  0  0  0  0  0
    7.3550   11.7684   25.5997 C   0  0  0  0  0  0  0  0  0  0  0  0
    7.0511   12.8949   26.2233 N   0  0  0  0  0  0  0  0  0  0  0  0
    6.0401   12.5658   27.1010 C   0  0  0  0  0  0  0  0  0  0  0  0
    5.3686   13.3429   28.0577 C   0  0  0  0  0  0  0  0  0  0  0  0
    4.4784   12.7171   28.9422 C   0  0  0  0  0  0  0  0  0  0  0  0
    4.2589   11.3407   28.8819 C   0  0  0  0  0  0  0  0  0  0  0  0
    4.8921   10.5529   27.9173 C   0  0  0  0  0  0  0  0  0  0  0  0
    5.7487   11.2145   27.0317 C   0  0  0  0  0  0  0  0  0  0  0  0
    6.4818   10.7803   25.9606 N   0  0  0  0  0  0  0  0  0  0  0  0
   11.7180   11.6338   24.6444 C   0  0  0  0  0  0  0  0  0  0  0  0
   13.0525   11.3891   25.0268 C   0  0  0  0  0  0  0  0  0  0  0  0
  1  2  2  0
  2  3  1  0
  4  3  1  6
  4  5  1  0
  6  5  1  0
  6  7  1  0
  7  8  1  0
  8  9  1  0
  9 10  1  0
 10 11  1  0
  2 12  1  0
 12 13  2  0
 13 14  1  0
 14 15  2  0
 15 16  1  0
 16 17  1  0
 17 18  2  0
 17 19  1  0
 19 20  2  0
 20 21  1  0
 21 22  2  0
 22 23  1  0
 23 24  2  0
 24 25  1  0
 25 26  2  0
 26 27  1  0
 15 28  1  0
 28 29  2  0
  9  4  1  0
 29 12  1  0
 11  6  1  0
 27 19  1  0
 26 21  1  0
M  END
>  <energy_score>  (2077) 
-30.292945

>  <inchikey>  (2077) 
None

>  <smiles>  (2077) 
None

>  <ref_pdb>  (2077) 
A0875a

>  <alias>  (2077) 
None

>  <HIPPO Pose ID>  (2077) 
499721

>  <name>  (2077) 
P499721

>  <HIPPO Compound ID>  (2077) 
311523

>  <ref_mols>  (2077) 
A1209a,A0875a

>  <distance_score>  (2077) 
1.874124

>  <inspiration_score>  (2077) 
None

$$$$
P499722
     RDKit          3D

 30 31  0  0  0  0  0  0  0  0999 V2000
    8.6988    8.3277   22.7188 C   0  0  0  0  0  0  0  0  0  0  0  0
    8.9891    9.2798   23.8793 C   0  0  0  0  0  0  0  0  0  0  0  0
    9.1043   10.7593   23.4568 C   0  0  0  0  0  0  0  0  0  0  0  0
   10.3952    8.7694   24.1186 C   0  0  0  0  0  0  0  0  0  0  0  0
    7.9621    9.0718   24.9405 O   0  0  0  0  0  0  0  0  0  0  0  0
    7.7076   10.0750   25.8689 C   0  0  0  0  0  0  0  0  0  0  0  0
    8.4450   10.9685   25.9629 O   0  0  0  0  0  0  0  0  0  0  0  0
    6.3985    9.7776   26.6263 N   0  0  0  0  0  0  0  0  0  0  0  0
    5.6513   10.5938   27.6233 C   0  0  1  0  0  0  0  0  0  0  0  0
    5.0632   11.8751   26.9577 C   0  0  0  0  0  0  0  0  0  0  0  0
    6.0728   12.6070   26.2233 N   0  0  0  0  0  0  0  0  0  0  0  0
    5.9363   13.7689   25.2236 C   0  0  0  0  0  0  0  0  0  0  0  0
    4.9973   14.3720   24.8907 O   0  0  0  0  0  0  0  0  0  0  0  0
    7.2511   14.0007   24.6255 C   0  0  0  0  0  0  0  0  0  0  0  0
    8.5110   13.9967   25.2572 C   0  0  0  0  0  0  0  0  0  0  0  0
    9.5204   14.1259   24.4013 N   0  0  0  0  0  0  0  0  0  0  0  0
    8.9221   14.2892   23.2058 N   0  0  0  0  0  0  0  0  0  0  0  0
    9.7301   14.5612   22.0193 C   0  0  2  0  0  0  0  0  0  0  0  0
   11.1967   14.1100   22.0969 C   0  0  0  0  0  0  0  0  0  0  0  0
   12.0002   14.9045   23.1219 C   0  0  0  0  0  0  0  0  0  0  0  0
   11.3797   16.2499   23.3775 C   0  0  0  0  0  0  0  0  0  0  0  0
   11.4623   16.8262   24.4551 O   0  0  0  0  0  0  0  0  0  0  0  0
   10.7442   16.7624   22.2803 N   0  0  0  0  0  0  0  0  0  0  0  0
    9.7059   16.0452   21.7576 C   0  0  0  0  0  0  0  0  0  0  0  0
    8.7595   16.5969   21.2085 O   0  0  0  0  0  0  0  0  0  0  0  0
    7.5550   14.2446   23.2975 C   0  0  0  0  0  0  0  0  0  0  0  0
    4.7049    9.8644   28.6621 C   0  0  0  0  0  0  0  0  0  0  0  0
    3.5102    9.1179   28.0654 C   0  0  0  0  0  0  0  0  0  0  0  0
    5.5020    8.8543   29.4772 C   0  0  0  0  0  0  0  0  0  0  0  0
    4.1478   10.8944   29.6774 C   0  0  0  0  0  0  0  0  0  0  0  0
  1  2  1  0
  2  3  1  0
  2  4  1  0
  2  5  1  0
  5  6  1  0
  6  7  2  0
  6  8  1  0
  8  9  1  0
  9 10  1  6
 10 11  1  0
 11 12  1  0
 12 13  2  0
 12 14  1  0
 14 15  1  0
 15 16  2  0
 16 17  1  0
 18 17  1  1
 18 19  1  0
 19 20  1  0
 20 21  1  0
 21 22  2  0
 21 23  1  0
 23 24  1  0
 24 25  2  0
 17 26  1  0
  9 27  1  0
 27 28  1  0
 27 29  1  0
 27 30  1  0
 26 14  2  0
 24 18  1  0
M  END
>  <energy_score>  (2078) 
-15.738859

>  <inchikey>  (2078) 
None

>  <smiles>  (2078) 
None

>  <ref_pdb>  (2078) 
A4020b

>  <alias>  (2078) 
None

>  <HIPPO Pose ID>  (2078) 
499722

>  <name>  (2078) 
P499722

>  <HIPPO Compound ID>  (2078) 
311572

>  <ref_mols>  (2078) 
A0556a,A4020b

>  <distance_score>  (2078) 
1.979604

>  <inspiration_score>  (2078) 
None

$$$$
P499723
     RDKit          3D

 26 29  0  0  0  0  0  0  0  0999 V2000
    5.2781   15.0964   29.9652 O   0  0  0  0  0  0  0  0  0  0  0  0
    5.5337   14.7363   28.8287 C   0  0  0  0  0  0  0  0  0  0  0  0
    5.6631   15.6273   27.5872 C   0  0  0  0  0  0  0  0  0  0  0  0
    6.0129   14.6300   26.5203 C   0  0  0  0  0  0  0  0  0  0  0  0
    6.2512   14.8363   25.1688 C   0  0  0  0  0  0  0  0  0  0  0  0
    6.5468   13.7145   24.3878 C   0  0  0  0  0  0  0  0  0  0  0  0
    6.7833   13.8093   22.9108 C   0  0  0  0  0  0  0  0  0  0  0  0
    6.3351   12.9635   22.2543 O   0  0  0  0  0  0  0  0  0  0  0  0
    7.6698   14.9936   22.5305 N   0  0  0  0  0  0  0  0  0  0  0  0
    8.1228   15.4509   21.2355 C   0  0  0  0  0  0  0  0  0  0  0  0
    9.6331   15.4440   20.8813 C   0  0  0  0  0  0  0  0  0  0  0  0
   10.1833   14.0725   20.6357 C   0  0  0  0  0  0  0  0  0  0  0  0
   11.5273   13.7629   21.2752 C   0  0  0  0  0  0  0  0  0  0  0  0
   11.6287   14.1536   22.6761 N   0  0  0  0  0  0  0  0  0  0  0  0
   10.5958   13.6280   23.6011 C   0  0  0  0  0  0  0  0  0  0  0  0
   10.0232   12.2021   23.4103 C   0  0  0  0  0  0  0  0  0  0  0  0
   10.0214   11.3770   24.6852 C   0  0  0  0  0  0  0  0  0  0  0  0
    9.4814   12.1026   25.7901 O   0  0  0  0  0  0  0  0  0  0  0  0
    9.9695   13.4262   25.9575 C   0  0  0  0  0  0  0  0  0  0  0  0
   11.1055   13.7853   25.0314 C   0  0  0  0  0  0  0  0  0  0  0  0
   11.6446   15.6041   22.5592 C   0  0  0  0  0  0  0  0  0  0  0  0
   10.4131   16.1898   21.9103 C   0  0  0  0  0  0  0  0  0  0  0  0
    6.5860   12.4265   24.9815 C   0  0  0  0  0  0  0  0  0  0  0  0
    6.3318   12.2280   26.3404 C   0  0  0  0  0  0  0  0  0  0  0  0
    6.0485   13.3499   27.0797 C   0  0  0  0  0  0  0  0  0  0  0  0
    5.7707   13.4252   28.4334 N   0  0  0  0  0  0  0  0  0  0  0  0
  1  2  2  0
  2  3  1  0
  3  4  1  0
  4  5  2  0
  5  6  1  0
  6  7  1  0
  7  8  2  0
  7  9  1  0
  9 10  1  0
 10 11  1  0
 11 12  1  0
 12 13  1  0
 13 14  1  0
 14 15  1  0
 15 16  1  0
 16 17  1  0
 17 18  1  0
 18 19  1  0
 19 20  1  0
 14 21  1  0
 21 22  1  0
  6 23  2  0
 23 24  1  0
 24 25  2  0
 25 26  1  0
 26  2  1  0
 25  4  1  0
 22 11  1  0
 20 15  1  0
M  END
>  <energy_score>  (2079) 
-17.402538

>  <inchikey>  (2079) 
None

>  <smiles>  (2079) 
None

>  <ref_pdb>  (2079) 
A4708a

>  <alias>  (2079) 
None

>  <HIPPO Pose ID>  (2079) 
499723

>  <name>  (2079) 
P499723

>  <HIPPO Compound ID>  (2079) 
311593

>  <ref_mols>  (2079) 
A4708a,A1778a

>  <distance_score>  (2079) 
1.854114

>  <inspiration_score>  (2079) 
None

$$$$
P499724
     RDKit          3D

 28 31  0  0  0  0  0  0  0  0999 V2000
    5.3521   11.4506   29.6853 O   0  0  0  0  0  0  0  0  0  0  0  0
    5.5240   12.0648   28.6567 C   0  0  0  0  0  0  0  0  0  0  0  0
    5.5723   13.4261   28.4696 N   0  0  0  0  0  0  0  0  0  0  0  0
    5.8551   13.7349   27.1393 C   0  0  0  0  0  0  0  0  0  0  0  0
    5.9997   14.9839   26.5725 C   0  0  0  0  0  0  0  0  0  0  0  0
    5.8080   16.5598   27.5932 Br  0  0  0  0  0  0  0  0  0  0  0  0
    6.3006   15.0709   25.2083 C   0  0  0  0  0  0  0  0  0  0  0  0
    6.5059   13.9040   24.4383 C   0  0  0  0  0  0  0  0  0  0  0  0
    6.9033   13.9769   22.9897 C   0  0  0  0  0  0  0  0  0  0  0  0
    6.4585   13.1804   22.2642 O   0  0  0  0  0  0  0  0  0  0  0  0
    7.8198   15.1845   22.7077 N   0  0  0  0  0  0  0  0  0  0  0  0
    8.3036   15.7205   21.4623 C   0  0  0  0  0  0  0  0  0  0  0  0
    9.7327   15.4765   20.9576 C   0  0  0  0  0  0  0  0  0  0  0  0
   10.0642   14.0215   20.8015 C   0  0  0  0  0  0  0  0  0  0  0  0
   11.3296   13.5803   21.5354 C   0  0  0  0  0  0  0  0  0  0  0  0
   11.4165   14.0216   22.9133 N   0  0  0  0  0  0  0  0  0  0  0  0
   10.4113   13.4714   23.8255 C   0  0  0  0  0  0  0  0  0  0  0  0
   10.9729   13.5866   25.2336 C   0  0  0  0  0  0  0  0  0  0  0  0
    9.7848   13.4364   26.1402 C   0  0  0  0  0  0  0  0  0  0  0  0
    9.0474   12.2389   25.9249 O   0  0  0  0  0  0  0  0  0  0  0  0
    9.5603   11.3472   24.9300 C   0  0  0  0  0  0  0  0  0  0  0  0
    9.8163   12.0612   23.6167 C   0  0  0  0  0  0  0  0  0  0  0  0
   11.4172   15.4847   22.8972 C   0  0  0  0  0  0  0  0  0  0  0  0
   10.9182   16.1324   21.6164 C   0  0  0  0  0  0  0  0  0  0  0  0
    6.3248   12.6404   25.0225 C   0  0  0  0  0  0  0  0  0  0  0  0
    6.0017   12.5909   26.3649 C   0  0  0  0  0  0  0  0  0  0  0  0
    5.7706   11.4549   27.2545 C   0  0  0  0  0  0  0  0  0  0  0  0
    5.7428   10.2839   26.9744 O   0  0  0  0  0  0  0  0  0  0  0  0
  1  2  2  0
  2  3  1  0
  3  4  1  0
  4  5  2  0
  5  6  1  0
  5  7  1  0
  7  8  2  0
  8  9  1  0
  9 10  2  0
  9 11  1  0
 11 12  1  0
 12 13  1  0
 13 14  1  0
 14 15  1  0
 15 16  1  0
 16 17  1  0
 17 18  1  0
 18 19  1  0
 19 20  1  0
 20 21  1  0
 21 22  1  0
 16 23  1  0
 23 24  1  0
  8 25  1  0
 25 26  2  0
 26 27  1  0
 27 28  2  0
 27  2  1  0
 26  4  1  0
 24 13  1  0
 22 17  1  0
M  END
>  <energy_score>  (2080) 
-6.829492

>  <inchikey>  (2080) 
None

>  <smiles>  (2080) 
None

>  <ref_pdb>  (2080) 
A4708a

>  <alias>  (2080) 
None

>  <HIPPO Pose ID>  (2080) 
499724

>  <name>  (2080) 
P499724

>  <HIPPO Compound ID>  (2080) 
311598

>  <ref_mols>  (2080) 
A4708a,A1778a

>  <distance_score>  (2080) 
1.765569

>  <inspiration_score>  (2080) 
None

$$$$
P499725
     RDKit          3D

 28 31  0  0  0  0  0  0  0  0999 V2000
    5.0655   12.0701   29.2609 C   0  0  0  0  0  0  0  0  0  0  0  0
    5.4737   13.2322   28.5208 N   0  0  0  0  0  0  0  0  0  0  0  0
    5.4144   14.5276   29.0128 C   0  0  0  0  0  0  0  0  0  0  0  0
    5.0965   14.9182   30.1147 O   0  0  0  0  0  0  0  0  0  0  0  0
    5.8543   15.4285   27.8314 C   0  0  0  0  0  0  0  0  0  0  0  0
    6.0613   16.6191   27.8496 O   0  0  0  0  0  0  0  0  0  0  0  0
    6.0563   14.5245   26.6995 C   0  0  0  0  0  0  0  0  0  0  0  0
    6.3888   14.8300   25.3888 C   0  0  0  0  0  0  0  0  0  0  0  0
    6.5797   13.7521   24.5237 C   0  0  0  0  0  0  0  0  0  0  0  0
    6.9751   13.9251   23.0827 C   0  0  0  0  0  0  0  0  0  0  0  0
    6.5634   13.1515   22.3145 O   0  0  0  0  0  0  0  0  0  0  0  0
    7.9448   15.1052   22.8885 N   0  0  0  0  0  0  0  0  0  0  0  0
    8.5407   15.6426   21.6869 C   0  0  0  0  0  0  0  0  0  0  0  0
   10.0760   15.9051   21.6212 C   0  0  0  0  0  0  0  0  0  0  0  0
   10.7277   15.0479   20.5693 C   0  0  0  0  0  0  0  0  0  0  0  0
   10.9553   13.6676   21.1668 C   0  0  0  0  0  0  0  0  0  0  0  0
   11.4638   13.4587   22.5398 N   0  0  0  0  0  0  0  0  0  0  0  0
   10.4546   12.9908   23.5127 C   0  0  0  0  0  0  0  0  0  0  0  0
   10.9536   13.0385   24.9525 C   0  0  0  0  0  0  0  0  0  0  0  0
    9.7706   12.6991   25.8148 C   0  0  0  0  0  0  0  0  0  0  0  0
    9.2654   11.3836   25.6352 O   0  0  0  0  0  0  0  0  0  0  0  0
    9.7146   10.7133   24.4643 C   0  0  0  0  0  0  0  0  0  0  0  0
    9.7654   11.6351   23.2567 C   0  0  0  0  0  0  0  0  0  0  0  0
   12.0439   14.7300   22.8810 C   0  0  0  0  0  0  0  0  0  0  0  0
   10.9652   15.7908   22.8807 C   0  0  0  0  0  0  0  0  0  0  0  0
    6.4232   12.4295   25.0133 C   0  0  0  0  0  0  0  0  0  0  0  0
    6.0513   12.1495   26.3355 C   0  0  0  0  0  0  0  0  0  0  0  0
    5.8586   13.2246   27.1720 C   0  0  0  0  0  0  0  0  0  0  0  0
  1  2  1  0
  2  3  1  0
  3  4  2  0
  3  5  1  0
  5  6  2  0
  5  7  1  0
  7  8  2  0
  8  9  1  0
  9 10  1  0
 10 11  2  0
 10 12  1  0
 12 13  1  0
 13 14  1  0
 14 15  1  0
 15 16  1  0
 16 17  1  0
 17 18  1  0
 18 19  1  0
 19 20  1  0
 20 21  1  0
 21 22  1  0
 22 23  1  0
 17 24  1  0
 24 25  1  0
  9 26  2  0
 26 27  1  0
 27 28  2  0
 28  2  1  0
 28  7  1  0
 25 14  1  0
 23 18  1  0
M  END
>  <energy_score>  (2081) 
-0.131665

>  <inchikey>  (2081) 
None

>  <smiles>  (2081) 
None

>  <ref_pdb>  (2081) 
A4708a

>  <alias>  (2081) 
None

>  <HIPPO Pose ID>  (2081) 
499725

>  <name>  (2081) 
P499725

>  <HIPPO Compound ID>  (2081) 
311601

>  <ref_mols>  (2081) 
A4708a,A1778a

>  <distance_score>  (2081) 
1.535536

>  <inspiration_score>  (2081) 
None

$$$$
P499726
     RDKit          3D

 30 34  0  0  0  0  0  0  0  0999 V2000
    6.5321   13.2902   22.0665 O   0  0  0  0  0  0  0  0  0  0  0  0
    7.1433   14.0145   22.7474 C   0  0  0  0  0  0  0  0  0  0  0  0
    8.1790   15.0995   22.3790 N   0  0  0  0  0  0  0  0  0  0  0  0
    8.6100   15.5865   21.0878 C   0  0  0  0  0  0  0  0  0  0  0  0
   10.0988   15.6971   20.6504 C   0  0  0  0  0  0  0  0  0  0  0  0
   10.7546   14.4065   20.2437 C   0  0  0  0  0  0  0  0  0  0  0  0
   10.8350   13.5114   21.4679 C   0  0  0  0  0  0  0  0  0  0  0  0
   10.6982   14.1550   22.7385 N   0  0  0  0  0  0  0  0  0  0  0  0
   10.4421   13.3477   23.8955 C   0  0  0  0  0  0  0  0  0  0  0  0
   11.6932   13.1887   24.7131 C   0  0  0  0  0  0  0  0  0  0  0  0
   11.2333   12.7707   26.0708 C   0  0  0  0  0  0  0  0  0  0  0  0
    9.9817   12.0734   26.0650 O   0  0  0  0  0  0  0  0  0  0  0  0
    9.8517   11.1553   24.9759 C   0  0  0  0  0  0  0  0  0  0  0  0
    9.8144   11.9480   23.6866 C   0  0  0  0  0  0  0  0  0  0  0  0
   11.3548   15.4184   22.8686 C   0  0  0  0  0  0  0  0  0  0  0  0
   11.1314   16.2485   21.6244 C   0  0  0  0  0  0  0  0  0  0  0  0
    6.8498   13.9695   24.2241 C   0  0  0  0  0  0  0  0  0  0  0  0
    6.6802   15.1609   24.9704 C   0  0  0  0  0  0  0  0  0  0  0  0
    6.3748   15.1145   26.3380 C   0  0  0  0  0  0  0  0  0  0  0  0
    6.2045   13.8661   26.9009 C   0  0  0  0  0  0  0  0  0  0  0  0
    6.3319   12.6961   26.1792 C   0  0  0  0  0  0  0  0  0  0  0  0
    6.6493   12.7154   24.8395 C   0  0  0  0  0  0  0  0  0  0  0  0
    6.0103   11.6139   27.1076 C   0  0  0  0  0  0  0  0  0  0  0  0
    5.9720   10.4326   26.8709 O   0  0  0  0  0  0  0  0  0  0  0  0
    5.6984   12.3006   28.4734 C   0  0  0  0  0  0  0  0  0  0  0  0
    5.3839   11.7288   29.4943 O   0  0  0  0  0  0  0  0  0  0  0  0
    5.8682   13.6452   28.2329 N   0  0  0  0  0  0  0  0  0  0  0  0
    5.5719   14.7569   29.1099 C   0  0  0  0  0  0  0  0  0  0  0  0
    6.3214   16.0235   28.6784 C   0  0  0  0  0  0  0  0  0  0  0  0
    6.1227   16.3324   27.1831 C   0  0  0  0  0  0  0  0  0  0  0  0
  1  2  2  0
  2  3  1  0
  3  4  1  0
  4  5  1  0
  5  6  1  0
  6  7  1  0
  7  8  1  0
  8  9  1  0
  9 10  1  0
 10 11  1  0
 11 12  1  0
 12 13  1  0
 13 14  1  0
  8 15  1  0
 15 16  1  0
  2 17  1  0
 17 18  2  0
 18 19  1  0
 19 20  2  0
 20 21  1  0
 21 22  2  0
 21 23  1  0
 23 24  2  0
 23 25  1  0
 25 26  2  0
 25 27  1  0
 27 28  1  0
 28 29  1  0
 29 30  1  0
 16  5  1  0
 22 17  1  0
 14  9  1  0
 30 19  1  0
 27 20  1  0
M  END
>  <energy_score>  (2082) 
-20.99375

>  <inchikey>  (2082) 
None

>  <smiles>  (2082) 
None

>  <ref_pdb>  (2082) 
A4708a

>  <alias>  (2082) 
None

>  <HIPPO Pose ID>  (2082) 
499726

>  <name>  (2082) 
P499726

>  <HIPPO Compound ID>  (2082) 
311604

>  <ref_mols>  (2082) 
A4708a,A1778a

>  <distance_score>  (2082) 
1.730756

>  <inspiration_score>  (2082) 
None

$$$$
P499727
     RDKit          3D

 30 33  0  0  0  0  0  0  0  0999 V2000
    7.4474   12.8743   25.1337 C   0  0  0  0  0  0  0  0  0  0  0  0
    8.0981   14.1603   25.6353 C   0  0  0  0  0  0  0  0  0  0  0  0
    7.7807   15.4051   24.7910 C   0  0  0  0  0  0  0  0  0  0  0  0
    8.6703   15.6911   23.6469 N   0  0  0  0  0  0  0  0  0  0  0  0
    9.9208   16.2399   23.9877 C   0  0  0  0  0  0  0  0  0  0  0  0
   10.2985   16.3408   25.1555 O   0  0  0  0  0  0  0  0  0  0  0  0
   10.8654   16.5870   22.8364 C   0  0  0  0  0  0  0  0  0  0  0  0
   10.2059   17.0936   21.5719 C   0  0  0  0  0  0  0  0  0  0  0  0
    9.0713   16.1749   21.1919 C   0  0  1  0  0  0  0  0  0  0  0  0
    9.8349   14.9589   20.7120 C   0  0  0  0  0  0  0  0  0  0  0  0
   10.2705   14.8132   19.6483 O   0  0  0  0  0  0  0  0  0  0  0  0
    9.9564   14.0898   21.9570 N   0  0  0  0  0  0  0  0  0  0  0  0
   10.6952   12.9363   22.1842 C   0  0  0  0  0  0  0  0  0  0  0  0
   10.7624   12.7644   23.6672 C   0  0  2  0  0  0  0  0  0  0  0  0
   11.9030   13.5605   24.3208 C   0  0  0  0  0  0  0  0  0  0  0  0
   11.9962   13.1492   25.7071 N   0  0  0  0  0  0  0  0  0  0  0  0
   12.9521   13.8391   26.5487 C   0  0  0  0  0  0  0  0  0  0  0  0
   14.4070   13.5469   26.1752 C   0  0  0  0  0  0  0  0  0  0  0  0
   14.7125   12.0548   26.0656 C   0  0  0  0  0  0  0  0  0  0  0  0
   13.6572   11.3446   25.2346 C   0  0  0  0  0  0  0  0  0  0  0  0
   12.2633   11.7367   25.7352 C   0  0  2  0  0  0  0  0  0  0  0  0
   11.0198   11.0056   25.1470 C   0  0  0  0  0  0  0  0  0  0  0  0
   10.7948   11.3576   23.8285 O   0  0  0  0  0  0  0  0  0  0  0  0
    8.0568   16.1240   22.3566 C   0  0  1  0  0  0  0  0  0  0  0  0
    6.8990   15.2320   22.0548 C   0  0  0  0  0  0  0  0  0  0  0  0
    6.8690   13.8847   21.8168 C   0  0  0  0  0  0  0  0  0  0  0  0
    5.6187   13.4312   21.5527 N   0  0  0  0  0  0  0  0  0  0  0  0
    4.8413   14.4699   21.7307 C   0  0  0  0  0  0  0  0  0  0  0  0
    5.5687   15.5665   22.0870 N   0  0  0  0  0  0  0  0  0  0  0  0
    5.0028   16.7995   22.5451 C   0  0  0  0  0  0  0  0  0  0  0  0
  1  2  1  0
  2  3  1  0
  3  4  1  0
  4  5  1  0
  5  6  2  0
  5  7  1  0
  7  8  1  0
  8  9  1  0
  9 10  1  1
 10 11  2  0
 10 12  1  0
 12 13  1  0
 14 13  1  6
 14 15  1  0
 15 16  1  0
 16 17  1  0
 17 18  1  0
 18 19  1  0
 19 20  1  0
 21 20  1  6
 21 22  1  0
 22 23  1  0
  9 24  1  0
 24 25  1  6
 25 26  2  0
 26 27  1  0
 27 28  2  0
 28 29  1  0
 29 30  1  0
 24  4  1  0
 29 25  1  0
 23 14  1  0
 21 16  1  0
M  END
>  <energy_score>  (2083) 
-27.625985

>  <inchikey>  (2083) 
None

>  <smiles>  (2083) 
None

>  <ref_pdb>  (2083) 
A4374a

>  <alias>  (2083) 
None

>  <HIPPO Pose ID>  (2083) 
499727

>  <name>  (2083) 
P499727

>  <HIPPO Compound ID>  (2083) 
313073

>  <ref_mols>  (2083) 
A4374a,A0875a

>  <distance_score>  (2083) 
1.975542

>  <inspiration_score>  (2083) 
None

$$$$
P499728
     RDKit          3D

 17 19  0  0  0  0  0  0  0  0999 V2000
    9.2206   10.3591   23.2887 C   0  0  0  0  0  0  0  0  0  0  0  0
    8.8282   10.2635   24.6952 C   0  0  0  0  0  0  0  0  0  0  0  0
    7.5996   10.1303   25.1833 C   0  0  0  0  0  0  0  0  0  0  0  0
    8.4124   11.1961   25.7069 C   0  0  2  0  0  0  0  0  0  0  0  0
    7.8643   12.5617   25.4878 C   0  0  0  0  0  0  0  0  0  0  0  0
    7.1615   13.0047   26.3188 O   0  0  0  0  0  0  0  0  0  0  0  0
    8.4033   13.1871   24.2445 N   0  0  0  0  0  0  0  0  0  0  0  0
    9.7882   13.8949   24.5079 C   0  0  0  0  0  0  0  0  0  0  0  0
    9.5483   14.5331   23.2008 C   0  0  0  0  0  0  0  0  0  0  0  0
   10.2319   14.8354   22.1040 C   0  0  0  0  0  0  0  0  0  0  0  0
    9.7562   15.3685   20.8038 C   0  0  0  0  0  0  0  0  0  0  0  0
   10.9373   15.0284   19.9417 C   0  0  0  0  0  0  0  0  0  0  0  0
   10.9352   14.9718   18.7246 O   0  0  0  0  0  0  0  0  0  0  0  0
   12.0077   14.7647   20.7360 N   0  0  0  0  0  0  0  0  0  0  0  0
   11.6224   14.3806   21.9804 C   0  0  0  0  0  0  0  0  0  0  0  0
   12.2059   13.6953   22.8039 O   0  0  0  0  0  0  0  0  0  0  0  0
    8.1299   14.5563   23.6143 C   0  0  0  0  0  0  0  0  0  0  0  0
  1  2  1  0
  2  3  2  0
  3  4  1  0
  4  5  1  6
  5  6  2  0
  5  7  1  0
  7  8  1  0
  8  9  1  0
  9 10  2  3
 10 11  1  0
 11 12  1  0
 12 13  2  0
 12 14  1  0
 14 15  1  0
 15 16  2  0
  9 17  1  0
  4  2  1  0
 17  7  1  0
 15 10  1  0
M  END
>  <energy_score>  (2084) 
-9.67963

>  <inchikey>  (2084) 
None

>  <smiles>  (2084) 
None

>  <ref_pdb>  (2084) 
A4701a

>  <alias>  (2084) 
None

>  <HIPPO Pose ID>  (2084) 
499728

>  <name>  (2084) 
P499728

>  <HIPPO Compound ID>  (2084) 
313631

>  <ref_mols>  (2084) 
A1775a,A4701a

>  <distance_score>  (2084) 
1.993212

>  <inspiration_score>  (2084) 
None

$$$$
P499729
     RDKit          3D

 17 18  0  0  0  0  0  0  0  0999 V2000
    6.6256   10.5471   25.6677 C   0  0  0  0  0  0  0  0  0  0  0  0
    7.6990   11.2229   25.2197 C   0  0  0  0  0  0  0  0  0  0  0  0
    8.8738   10.5203   24.6163 C   0  0  0  0  0  0  0  0  0  0  0  0
    8.8531   10.6083   23.2006 O   0  0  0  0  0  0  0  0  0  0  0  0
    7.6431   12.7145   25.4365 C   0  0  0  0  0  0  0  0  0  0  0  0
    7.1231   13.1613   26.3943 O   0  0  0  0  0  0  0  0  0  0  0  0
    8.2329   13.4039   24.2411 N   0  0  0  0  0  0  0  0  0  0  0  0
    9.7723   13.7320   24.4594 C   0  0  0  0  0  0  0  0  0  0  0  0
    9.5955   14.6193   23.2950 C   0  0  0  0  0  0  0  0  0  0  0  0
   10.2608   14.9135   22.1837 C   0  0  0  0  0  0  0  0  0  0  0  0
    9.7945   15.6054   20.9566 C   0  0  0  0  0  0  0  0  0  0  0  0
   10.8240   15.1096   19.9800 C   0  0  0  0  0  0  0  0  0  0  0  0
   10.7246   15.1330   18.7657 O   0  0  0  0  0  0  0  0  0  0  0  0
   11.8826   14.6039   20.6630 N   0  0  0  0  0  0  0  0  0  0  0  0
   11.5528   14.2625   21.9346 C   0  0  0  0  0  0  0  0  0  0  0  0
   12.1211   13.5165   22.7146 O   0  0  0  0  0  0  0  0  0  0  0  0
    8.2508   14.8783   23.8504 C   0  0  0  0  0  0  0  0  0  0  0  0
  1  2  2  0
  2  3  1  0
  3  4  1  0
  2  5  1  0
  5  6  2  0
  5  7  1  0
  7  8  1  0
  8  9  1  0
  9 10  2  3
 10 11  1  0
 11 12  1  0
 12 13  2  0
 12 14  1  0
 14 15  1  0
 15 16  2  0
  9 17  1  0
 17  7  1  0
 15 10  1  0
M  END
>  <energy_score>  (2085) 
-1.271307

>  <inchikey>  (2085) 
None

>  <smiles>  (2085) 
None

>  <ref_pdb>  (2085) 
A4701a

>  <alias>  (2085) 
None

>  <HIPPO Pose ID>  (2085) 
499729

>  <name>  (2085) 
P499729

>  <HIPPO Compound ID>  (2085) 
313643

>  <ref_mols>  (2085) 
A1775a,A4701a

>  <distance_score>  (2085) 
1.998378

>  <inspiration_score>  (2085) 
None

$$$$
P499730
     RDKit          3D

 17 18  0  0  0  0  0  0  0  0999 V2000
    9.0772   10.1069   23.4293 C   0  0  0  0  0  0  0  0  0  0  0  0
    8.0582   10.4573   24.5037 C   0  0  0  0  0  0  0  0  0  0  0  0
    8.5319   11.4111   25.6116 C   0  0  1  0  0  0  0  0  0  0  0  0
    9.9477   11.4208   25.7396 O   0  0  0  0  0  0  0  0  0  0  0  0
    7.9219   12.8367   25.5016 C   0  0  0  0  0  0  0  0  0  0  0  0
    7.1635   13.2681   26.2945 O   0  0  0  0  0  0  0  0  0  0  0  0
    8.4763   13.4582   24.2395 N   0  0  0  0  0  0  0  0  0  0  0  0
    9.8090   14.2530   24.5245 C   0  0  0  0  0  0  0  0  0  0  0  0
    9.5787   14.7816   23.1656 C   0  0  0  0  0  0  0  0  0  0  0  0
   10.2657   14.9860   22.0484 C   0  0  0  0  0  0  0  0  0  0  0  0
    9.7965   15.4234   20.7103 C   0  0  0  0  0  0  0  0  0  0  0  0
   10.9792   15.0203   19.8788 C   0  0  0  0  0  0  0  0  0  0  0  0
   10.9873   14.8860   18.6681 O   0  0  0  0  0  0  0  0  0  0  0  0
   12.0405   14.7879   20.6939 N   0  0  0  0  0  0  0  0  0  0  0  0
   11.6348   14.4602   21.9469 C   0  0  0  0  0  0  0  0  0  0  0  0
   12.1711   13.7427   22.7766 O   0  0  0  0  0  0  0  0  0  0  0  0
    8.1477   14.7908   23.5521 C   0  0  0  0  0  0  0  0  0  0  0  0
  1  2  1  0
  2  3  1  0
  3  4  1  6
  3  5  1  0
  5  6  2  0
  5  7  1  0
  7  8  1  0
  8  9  1  0
  9 10  2  3
 10 11  1  0
 11 12  1  0
 12 13  2  0
 12 14  1  0
 14 15  1  0
 15 16  2  0
  9 17  1  0
 17  7  1  0
 15 10  1  0
M  END
>  <energy_score>  (2086) 
-4.713293

>  <inchikey>  (2086) 
None

>  <smiles>  (2086) 
None

>  <ref_pdb>  (2086) 
A4701a

>  <alias>  (2086) 
None

>  <HIPPO Pose ID>  (2086) 
499730

>  <name>  (2086) 
P499730

>  <HIPPO Compound ID>  (2086) 
313661

>  <ref_mols>  (2086) 
A1775a,A4701a

>  <distance_score>  (2086) 
1.908228

>  <inspiration_score>  (2086) 
None

$$$$
P499731
     RDKit          3D

 23 25  0  0  0  0  0  0  0  0999 V2000
   13.4302   10.4460   25.6311 O   0  0  0  0  0  0  0  0  0  0  0  0
   13.1760   11.5713   26.0291 C   0  0  0  0  0  0  0  0  0  0  0  0
   13.9216   12.3357   26.8623 O   0  0  0  0  0  0  0  0  0  0  0  0
   15.2074   11.9487   27.3551 C   0  0  2  0  0  0  0  0  0  0  0  0
   15.9840   10.8606   26.6757 C   0  0  0  0  0  0  0  0  0  0  0  0
   17.0477   10.5664   27.7083 C   0  0  0  0  0  0  0  0  0  0  0  0
   16.4114   10.7355   28.9889 O   0  0  0  0  0  0  0  0  0  0  0  0
   15.2156   11.5086   28.8055 C   0  0  0  0  0  0  0  0  0  0  0  0
   11.9188   12.2947   25.6761 C   0  0  0  0  0  0  0  0  0  0  0  0
   12.2747   13.3247   24.6147 C   0  0  0  0  0  0  0  0  0  0  0  0
   11.0866   14.2347   24.4024 C   0  0  0  0  0  0  0  0  0  0  0  0
    9.8603   13.4309   24.5725 N   0  0  0  0  0  0  0  0  0  0  0  0
    8.4476   14.2729   24.5722 S   0  0  0  0  0  0  0  0  0  0  0  0
    7.9009   14.2192   23.2439 O   0  0  0  0  0  0  0  0  0  0  0  0
    8.7636   15.5128   25.2392 O   0  0  0  0  0  0  0  0  0  0  0  0
    7.4718   13.4189   25.6418 N   0  0  0  0  0  0  0  0  0  0  0  0
    6.7215   12.2437   25.1547 C   0  0  0  0  0  0  0  0  0  0  0  0
    6.3869   11.3983   26.3784 C   0  0  0  0  0  0  0  0  0  0  0  0
    5.4886   12.1783   27.3341 C   0  0  0  0  0  0  0  0  0  0  0  0
    6.0913   13.5376   27.6755 C   0  0  0  0  0  0  0  0  0  0  0  0
    6.5513   14.2947   26.4332 C   0  0  0  0  0  0  0  0  0  0  0  0
    9.9914   12.0738   24.0593 C   0  0  0  0  0  0  0  0  0  0  0  0
   10.7596   11.3841   25.1804 C   0  0  0  0  0  0  0  0  0  0  0  0
  1  2  2  0
  2  3  1  0
  4  3  1  6
  4  5  1  0
  5  6  1  0
  6  7  1  0
  7  8  1  0
  2  9  1  0
  9 10  1  0
 10 11  1  0
 11 12  1  0
 12 13  1  0
 13 14  2  0
 13 15  2  0
 13 16  1  0
 16 17  1  0
 17 18  1  0
 18 19  1  0
 19 20  1  0
 20 21  1  0
 12 22  1  0
 22 23  1  0
  8  4  1  0
 23  9  1  0
 21 16  1  0
M  END
>  <energy_score>  (2087) 
-42.4419

>  <inchikey>  (2087) 
None

>  <smiles>  (2087) 
None

>  <ref_pdb>  (2087) 
A4706a

>  <alias>  (2087) 
None

>  <HIPPO Pose ID>  (2087) 
499731

>  <name>  (2087) 
P499731

>  <HIPPO Compound ID>  (2087) 
314345

>  <ref_mols>  (2087) 
A0875a,A4706a

>  <distance_score>  (2087) 
1.733747

>  <inspiration_score>  (2087) 
None

$$$$
P499732
     RDKit          3D

 23 25  0  0  0  0  0  0  0  0999 V2000
   14.2516   10.9108   26.7039 O   0  0  0  0  0  0  0  0  0  0  0  0
   13.9574   12.0694   26.9662 C   0  0  0  0  0  0  0  0  0  0  0  0
   14.4313   12.7760   28.0230 O   0  0  0  0  0  0  0  0  0  0  0  0
   15.2578   12.0319   28.9264 C   0  0  1  0  0  0  0  0  0  0  0  0
   16.6717   11.8394   28.4249 C   0  0  0  0  0  0  0  0  0  0  0  0
   17.4333   11.6290   29.7139 C   0  0  0  0  0  0  0  0  0  0  0  0
   16.7722   12.4150   30.7163 O   0  0  0  0  0  0  0  0  0  0  0  0
   15.4948   12.8154   30.2079 C   0  0  0  0  0  0  0  0  0  0  0  0
   13.0598   12.8927   26.0775 C   0  0  0  0  0  0  0  0  0  0  0  0
   12.0203   13.7455   26.8010 C   0  0  0  0  0  0  0  0  0  0  0  0
   10.6145   13.2254   26.6574 C   0  0  0  0  0  0  0  0  0  0  0  0
   10.2342   13.0241   25.2508 N   0  0  0  0  0  0  0  0  0  0  0  0
    9.0249   14.0525   24.7318 S   0  0  0  0  0  0  0  0  0  0  0  0
    8.7678   13.8320   23.3344 O   0  0  0  0  0  0  0  0  0  0  0  0
    9.3444   15.3500   25.2698 O   0  0  0  0  0  0  0  0  0  0  0  0
    7.7627   13.4152   25.6333 N   0  0  0  0  0  0  0  0  0  0  0  0
    7.4858   11.9689   25.4785 C   0  0  0  0  0  0  0  0  0  0  0  0
    6.1554   11.5968   26.1316 C   0  0  0  0  0  0  0  0  0  0  0  0
    5.8254   12.4651   27.3387 C   0  0  0  0  0  0  0  0  0  0  0  0
    5.8152   13.9529   26.9760 C   0  0  0  0  0  0  0  0  0  0  0  0
    6.5461   14.2508   25.6687 C   0  0  0  0  0  0  0  0  0  0  0  0
   11.3235   12.7942   24.2991 C   0  0  0  0  0  0  0  0  0  0  0  0
   12.4077   12.0160   25.0288 C   0  0  0  0  0  0  0  0  0  0  0  0
  1  2  2  0
  2  3  1  0
  4  3  1  6
  4  5  1  0
  5  6  1  0
  6  7  1  0
  7  8  1  0
  2  9  1  0
  9 10  1  0
 10 11  1  0
 11 12  1  0
 12 13  1  0
 13 14  2  0
 13 15  2  0
 13 16  1  0
 16 17  1  0
 17 18  1  0
 18 19  1  0
 19 20  1  0
 20 21  1  0
 12 22  1  0
 22 23  1  0
  8  4  1  0
 23  9  1  0
 21 16  1  0
M  END
>  <energy_score>  (2088) 
-55.976419

>  <inchikey>  (2088) 
None

>  <smiles>  (2088) 
None

>  <ref_pdb>  (2088) 
A4706a

>  <alias>  (2088) 
None

>  <HIPPO Pose ID>  (2088) 
499732

>  <name>  (2088) 
P499732

>  <HIPPO Compound ID>  (2088) 
314345

>  <ref_mols>  (2088) 
A4706a,A0875a

>  <distance_score>  (2088) 
1.870697

>  <inspiration_score>  (2088) 
None

$$$$
P499733
     RDKit          3D

 23 25  0  0  0  0  0  0  0  0999 V2000
   15.8776   10.3232   26.1561 C   0  0  0  0  0  0  0  0  0  0  0  0
   15.2674   11.4252   26.9891 C   0  0  0  0  0  0  0  0  0  0  0  0
   14.2299   12.1327   26.2437 O   0  0  0  0  0  0  0  0  0  0  0  0
   13.2035   11.3924   25.7507 C   0  0  0  0  0  0  0  0  0  0  0  0
   13.2085   10.1818   25.5806 O   0  0  0  0  0  0  0  0  0  0  0  0
   11.9877   12.2220   25.5276 C   0  0  0  0  0  0  0  0  0  0  0  0
   12.2957   13.3417   24.5520 C   0  0  0  0  0  0  0  0  0  0  0  0
   11.1128   14.2788   24.5013 C   0  0  0  0  0  0  0  0  0  0  0  0
    9.8809   13.4789   24.6355 N   0  0  0  0  0  0  0  0  0  0  0  0
    8.5058   14.3721   24.6752 S   0  0  0  0  0  0  0  0  0  0  0  0
    8.3424   14.9415   23.3633 O   0  0  0  0  0  0  0  0  0  0  0  0
    8.6198   15.2037   25.8520 O   0  0  0  0  0  0  0  0  0  0  0  0
    7.2766   13.2398   24.9436 N   0  0  0  0  0  0  0  0  0  0  0  0
    7.4596   12.3326   26.1087 C   0  0  0  0  0  0  0  0  0  0  0  0
    6.1372   11.8088   26.6407 C   0  0  0  0  0  0  0  0  0  0  0  0
    5.2677   12.9452   27.1550 C   0  0  0  0  0  0  0  0  0  0  0  0
    5.4254   14.2048   26.3066 C   0  0  0  0  0  0  0  0  0  0  0  0
    5.9206   13.8789   24.9004 C   0  0  0  0  0  0  0  0  0  0  0  0
    9.9584   12.1685   24.0018 C   0  0  0  0  0  0  0  0  0  0  0  0
   10.7562   11.3928   25.0520 C   0  0  0  0  0  0  0  0  0  0  0  0
   16.4269   12.3161   27.4955 C   0  0  0  0  0  0  0  0  0  0  0  0
   15.6718   12.6204   28.7023 O   0  0  0  0  0  0  0  0  0  0  0  0
   14.9915   11.3330   28.5201 C   0  0  0  0  0  0  0  0  0  0  0  0
  1  2  1  0
  2  3  1  0
  3  4  1  0
  4  5  2  0
  4  6  1  0
  6  7  1  0
  7  8  1  0
  8  9  1  0
  9 10  1  0
 10 11  2  0
 10 12  2  0
 10 13  1  0
 13 14  1  0
 14 15  1  0
 15 16  1  0
 16 17  1  0
 17 18  1  0
  9 19  1  0
 19 20  1  0
  2 21  1  0
 21 22  1  0
 22 23  1  0
 23  2  1  0
 20  6  1  0
 18 13  1  0
M  END
>  <energy_score>  (2089) 
-56.891146

>  <inchikey>  (2089) 
None

>  <smiles>  (2089) 
None

>  <ref_pdb>  (2089) 
A4706a

>  <alias>  (2089) 
None

>  <HIPPO Pose ID>  (2089) 
499733

>  <name>  (2089) 
P499733

>  <HIPPO Compound ID>  (2089) 
314346

>  <ref_mols>  (2089) 
A4706a,A0875a

>  <distance_score>  (2089) 
1.684825

>  <inspiration_score>  (2089) 
None

$$$$
P499734
     RDKit          3D

 23 25  0  0  0  0  0  0  0  0999 V2000
   16.6174   11.9570   28.5639 C   0  0  0  0  0  0  0  0  0  0  0  0
   15.1396   11.9808   28.9323 C   0  0  2  0  0  0  0  0  0  0  0  0
   14.4063   12.7614   27.9659 O   0  0  0  0  0  0  0  0  0  0  0  0
   13.9128   12.0658   26.9126 C   0  0  0  0  0  0  0  0  0  0  0  0
   14.1950   10.9072   26.6342 O   0  0  0  0  0  0  0  0  0  0  0  0
   13.0021   12.9009   26.0474 C   0  0  0  0  0  0  0  0  0  0  0  0
   11.9520   13.7177   26.7933 C   0  0  0  0  0  0  0  0  0  0  0  0
   10.5455   13.1941   26.6110 C   0  0  0  0  0  0  0  0  0  0  0  0
   10.1764   13.0504   25.1900 N   0  0  0  0  0  0  0  0  0  0  0  0
    9.0103   14.1429   24.6910 S   0  0  0  0  0  0  0  0  0  0  0  0
    8.7857   14.0027   23.2774 O   0  0  0  0  0  0  0  0  0  0  0  0
    9.3672   15.3944   25.3079 O   0  0  0  0  0  0  0  0  0  0  0  0
    7.7164   13.4906   25.5227 N   0  0  0  0  0  0  0  0  0  0  0  0
    7.2162   12.1740   25.0849 C   0  0  0  0  0  0  0  0  0  0  0  0
    6.5438   11.5235   26.2888 C   0  0  0  0  0  0  0  0  0  0  0  0
    5.4371   12.4133   26.8563 C   0  0  0  0  0  0  0  0  0  0  0  0
    5.9269   13.8398   27.1089 C   0  0  0  0  0  0  0  0  0  0  0  0
    6.6199   14.4139   25.8747 C   0  0  0  0  0  0  0  0  0  0  0  0
   11.2781   12.8231   24.2515 C   0  0  0  0  0  0  0  0  0  0  0  0
   12.3560   12.0398   24.9848 C   0  0  0  0  0  0  0  0  0  0  0  0
   14.9270   12.6138   30.2754 C   0  0  2  0  0  0  0  0  0  0  0  0
   14.7107   11.7823   31.5143 C   0  0  0  0  0  0  0  0  0  0  0  0
   13.6160   12.3958   30.8188 O   0  0  0  0  0  0  0  0  0  0  0  0
  2  1  1  6
  2  3  1  0
  3  4  1  0
  4  5  2  0
  4  6  1  0
  6  7  1  0
  7  8  1  0
  8  9  1  0
  9 10  1  0
 10 11  2  0
 10 12  2  0
 10 13  1  0
 13 14  1  0
 14 15  1  0
 15 16  1  0
 16 17  1  0
 17 18  1  0
  9 19  1  0
 19 20  1  0
  2 21  1  0
 21 22  1  1
 22 23  1  0
 20  6  1  0
 23 21  1  0
 18 13  1  0
M  END
>  <energy_score>  (2090) 
-83.769402

>  <inchikey>  (2090) 
None

>  <smiles>  (2090) 
None

>  <ref_pdb>  (2090) 
A4706a

>  <alias>  (2090) 
None

>  <HIPPO Pose ID>  (2090) 
499734

>  <name>  (2090) 
P499734

>  <HIPPO Compound ID>  (2090) 
314347

>  <ref_mols>  (2090) 
A4706a,A0875a

>  <distance_score>  (2090) 
1.858866

>  <inspiration_score>  (2090) 
None

$$$$
P499735
     RDKit          3D

 24 25  0  0  0  0  0  0  0  0999 V2000
   17.7132    9.5307   27.2397 C   0  0  0  0  0  0  0  0  0  0  0  0
   17.0077   10.7369   27.4898 O   0  0  0  0  0  0  0  0  0  0  0  0
   15.8975   10.9491   26.6217 C   0  0  0  0  0  0  0  0  0  0  0  0
   15.2514   12.2918   26.9447 C   0  0  2  0  0  0  0  0  0  0  0  0
   14.8328   12.4021   28.4251 C   0  0  0  0  0  0  0  0  0  0  0  0
   14.4755   13.7876   28.7750 N   0  0  0  0  0  0  0  0  0  0  0  0
   14.1456   12.7026   26.0937 O   0  0  0  0  0  0  0  0  0  0  0  0
   13.1580   11.8467   25.7579 C   0  0  0  0  0  0  0  0  0  0  0  0
   13.2344   10.6272   25.8026 O   0  0  0  0  0  0  0  0  0  0  0  0
   11.9003   12.5957   25.3720 C   0  0  0  0  0  0  0  0  0  0  0  0
   12.0882   13.3143   24.0451 C   0  0  0  0  0  0  0  0  0  0  0  0
   10.8432   13.7978   23.3153 C   0  0  0  0  0  0  0  0  0  0  0  0
    9.6045   13.2384   23.9056 N   0  0  0  0  0  0  0  0  0  0  0  0
    8.8750   14.3365   24.9252 S   0  0  0  0  0  0  0  0  0  0  0  0
    8.2565   15.3186   24.0745 O   0  0  0  0  0  0  0  0  0  0  0  0
    9.8510   14.7419   25.9131 O   0  0  0  0  0  0  0  0  0  0  0  0
    7.6779   13.5416   25.7652 N   0  0  0  0  0  0  0  0  0  0  0  0
    6.6601   12.7572   25.0511 C   0  0  0  0  0  0  0  0  0  0  0  0
    6.1413   11.7773   26.1022 C   0  0  0  0  0  0  0  0  0  0  0  0
    5.3902   12.5357   27.1930 C   0  0  0  0  0  0  0  0  0  0  0  0
    6.2518   13.6440   27.7884 C   0  0  0  0  0  0  0  0  0  0  0  0
    6.9846   14.4609   26.7290 C   0  0  0  0  0  0  0  0  0  0  0  0
    9.7639   11.8258   24.2110 C   0  0  0  0  0  0  0  0  0  0  0  0
   10.6970   11.6453   25.3707 C   0  0  0  0  0  0  0  0  0  0  0  0
  1  2  1  0
  2  3  1  0
  4  3  1  6
  4  5  1  0
  5  6  1  0
  4  7  1  0
  7  8  1  0
  8  9  2  0
  8 10  1  0
 10 11  1  0
 11 12  1  0
 12 13  1  0
 13 14  1  0
 14 15  2  0
 14 16  2  0
 14 17  1  0
 17 18  1  0
 18 19  1  0
 19 20  1  0
 20 21  1  0
 21 22  1  0
 13 23  1  0
 23 24  1  0
 24 10  1  0
 22 17  1  0
M  END
>  <energy_score>  (2091) 
-69.373708

>  <inchikey>  (2091) 
None

>  <smiles>  (2091) 
None

>  <ref_pdb>  (2091) 
A4706a

>  <alias>  (2091) 
None

>  <HIPPO Pose ID>  (2091) 
499735

>  <name>  (2091) 
P499735

>  <HIPPO Compound ID>  (2091) 
314348

>  <ref_mols>  (2091) 
A4706a,A0875a

>  <distance_score>  (2091) 
1.818256

>  <inspiration_score>  (2091) 
None

$$$$
P499736
     RDKit          3D

 24 26  0  0  0  0  0  0  0  0999 V2000
    9.5639   15.3149   19.2744 N   0  0  0  0  0  0  0  0  0  0  0  0
   10.3432   15.4163   20.4778 C   0  0  2  0  0  0  0  0  0  0  0  0
   10.9013   14.1885   21.1592 C   0  0  0  0  0  0  0  0  0  0  0  0
   11.4537   14.6562   22.3960 O   0  0  0  0  0  0  0  0  0  0  0  0
   10.9038   15.9603   22.6219 C   0  0  0  0  0  0  0  0  0  0  0  0
    9.7418   16.1858   21.6498 C   0  0  2  0  0  0  0  0  0  0  0  0
    8.5019   15.8291   22.3510 O   0  0  0  0  0  0  0  0  0  0  0  0
    7.6750   14.7854   22.1796 C   0  0  0  0  0  0  0  0  0  0  0  0
    7.7205   14.0122   21.2278 O   0  0  0  0  0  0  0  0  0  0  0  0
    6.6201   14.6019   23.3324 C   0  0  0  0  0  0  0  0  0  0  0  0
    6.6686   13.1327   23.8293 C   0  0  0  0  0  0  0  0  0  0  0  0
    6.7262   12.8452   25.3260 C   0  0  0  0  0  0  0  0  0  0  0  0
    7.3957   13.9235   26.0664 N   0  0  0  0  0  0  0  0  0  0  0  0
    9.0426   14.2543   25.8197 S   0  0  0  0  0  0  0  0  0  0  0  0
    9.2986   14.2908   24.4066 O   0  0  0  0  0  0  0  0  0  0  0  0
    9.3808   15.3692   26.6676 O   0  0  0  0  0  0  0  0  0  0  0  0
    9.8680   12.9114   26.4030 N   0  0  0  0  0  0  0  0  0  0  0  0
    9.7126   11.7132   25.5624 C   0  0  0  0  0  0  0  0  0  0  0  0
   10.9938   11.1719   25.0138 C   0  0  0  0  0  0  0  0  0  0  0  0
   11.9961   12.2483   24.5993 C   0  0  0  0  0  0  0  0  0  0  0  0
   12.1571   13.3877   25.5642 C   0  0  0  0  0  0  0  0  0  0  0  0
   11.2737   13.2352   26.7694 C   0  0  0  0  0  0  0  0  0  0  0  0
    6.5400   15.1319   25.9044 C   0  0  0  0  0  0  0  0  0  0  0  0
    6.6204   15.6460   24.4680 C   0  0  0  0  0  0  0  0  0  0  0  0
  2  1  1  6
  2  3  1  0
  3  4  1  0
  4  5  1  0
  5  6  1  0
  6  7  1  1
  7  8  1  0
  8  9  2  0
  8 10  1  0
 10 11  1  0
 11 12  1  0
 12 13  1  0
 13 14  1  0
 14 15  2  0
 14 16  2  0
 14 17  1  0
 17 18  1  0
 18 19  1  0
 19 20  1  0
 20 21  1  0
 21 22  1  0
 13 23  1  0
 23 24  1  0
  6  2  1  0
 24 10  1  0
 22 17  1  0
M  END
>  <energy_score>  (2092) 
-29.493621

>  <inchikey>  (2092) 
None

>  <smiles>  (2092) 
None

>  <ref_pdb>  (2092) 
A4706a

>  <alias>  (2092) 
None

>  <HIPPO Pose ID>  (2092) 
499736

>  <name>  (2092) 
P499736

>  <HIPPO Compound ID>  (2092) 
314349

>  <ref_mols>  (2092) 
A0875a,A4706a

>  <distance_score>  (2092) 
1.693309

>  <inspiration_score>  (2092) 
None

$$$$
P499737
     RDKit          3D

 24 26  0  0  0  0  0  0  0  0999 V2000
    9.7572   15.1528   19.0953 N   0  0  0  0  0  0  0  0  0  0  0  0
   10.1687   15.5039   20.4456 C   0  0  2  0  0  0  0  0  0  0  0  0
   11.6189   15.0674   20.6122 C   0  0  0  0  0  0  0  0  0  0  0  0
   11.9438   15.3138   21.9636 O   0  0  0  0  0  0  0  0  0  0  0  0
   10.7268   15.1016   22.6739 C   0  0  0  0  0  0  0  0  0  0  0  0
    9.5765   14.7926   21.6757 C   0  0  1  0  0  0  0  0  0  0  0  0
    8.2834   15.2534   22.1924 O   0  0  0  0  0  0  0  0  0  0  0  0
    7.4287   14.2654   22.6097 C   0  0  0  0  0  0  0  0  0  0  0  0
    7.5039   13.1007   22.2133 O   0  0  0  0  0  0  0  0  0  0  0  0
    6.3079   14.6439   23.6155 C   0  0  0  0  0  0  0  0  0  0  0  0
    5.7186   13.3445   24.2181 C   0  0  0  0  0  0  0  0  0  0  0  0
    6.6185   12.6259   25.2419 C   0  0  0  0  0  0  0  0  0  0  0  0
    7.4175   13.5585   26.0681 N   0  0  0  0  0  0  0  0  0  0  0  0
    9.0468   13.8413   25.8003 S   0  0  0  0  0  0  0  0  0  0  0  0
    9.1280   14.4837   24.5324 O   0  0  0  0  0  0  0  0  0  0  0  0
    9.5630   14.5411   26.9462 O   0  0  0  0  0  0  0  0  0  0  0  0
    9.8962   12.4103   25.6237 N   0  0  0  0  0  0  0  0  0  0  0  0
    9.8160   11.7695   24.2778 C   0  0  0  0  0  0  0  0  0  0  0  0
   10.1509   10.3133   24.4776 C   0  0  0  0  0  0  0  0  0  0  0  0
   11.4855   10.1782   25.2028 C   0  0  0  0  0  0  0  0  0  0  0  0
   12.2310   11.5015   25.4977 C   0  0  0  0  0  0  0  0  0  0  0  0
   11.3337   12.6276   25.9913 C   0  0  0  0  0  0  0  0  0  0  0  0
    6.6810   14.8632   26.1828 C   0  0  0  0  0  0  0  0  0  0  0  0
    6.5944   15.5743   24.8076 C   0  0  0  0  0  0  0  0  0  0  0  0
  2  1  1  6
  2  3  1  0
  3  4  1  0
  4  5  1  0
  5  6  1  0
  6  7  1  1
  7  8  1  0
  8  9  2  0
  8 10  1  0
 10 11  1  0
 11 12  1  0
 12 13  1  0
 13 14  1  0
 14 15  2  0
 14 16  2  0
 14 17  1  0
 17 18  1  0
 18 19  1  0
 19 20  1  0
 20 21  1  0
 21 22  1  0
 13 23  1  0
 23 24  1  0
  6  2  1  0
 24 10  1  0
 22 17  1  0
M  END
>  <energy_score>  (2093) 
-23.120153

>  <inchikey>  (2093) 
None

>  <smiles>  (2093) 
None

>  <ref_pdb>  (2093) 
A4706a

>  <alias>  (2093) 
None

>  <HIPPO Pose ID>  (2093) 
499737

>  <name>  (2093) 
P499737

>  <HIPPO Compound ID>  (2093) 
314349

>  <ref_mols>  (2093) 
A4706a,A0875a

>  <distance_score>  (2093) 
1.994208

>  <inspiration_score>  (2093) 
None

$$$$
P499738
     RDKit          3D

 24 26  0  0  0  0  0  0  0  0999 V2000
   15.0471   11.6429   29.0168 C   0  0  0  0  0  0  0  0  0  0  0  0
   15.5936   11.9745   27.6138 C   0  0  1  0  0  0  0  0  0  0  0  0
   14.7053   12.7344   26.7344 O   0  0  0  0  0  0  0  0  0  0  0  0
   13.4071   12.3249   26.6806 C   0  0  0  0  0  0  0  0  0  0  0  0
   12.8094   11.8964   27.6518 O   0  0  0  0  0  0  0  0  0  0  0  0
   12.7562   12.3216   25.3037 C   0  0  0  0  0  0  0  0  0  0  0  0
   12.3907   13.7199   24.8470 C   0  0  0  0  0  0  0  0  0  0  0  0
   11.1630   13.7490   23.9536 C   0  0  0  0  0  0  0  0  0  0  0  0
    9.9784   13.2407   24.7076 N   0  0  0  0  0  0  0  0  0  0  0  0
    8.8874   14.4440   25.0827 S   0  0  0  0  0  0  0  0  0  0  0  0
    8.4183   15.0083   23.8444 O   0  0  0  0  0  0  0  0  0  0  0  0
    9.5146   15.2561   26.0989 O   0  0  0  0  0  0  0  0  0  0  0  0
    7.6526   13.5883   25.8022 N   0  0  0  0  0  0  0  0  0  0  0  0
    7.0174   12.4761   25.0699 C   0  0  0  0  0  0  0  0  0  0  0  0
    6.4508   11.5471   26.1446 C   0  0  0  0  0  0  0  0  0  0  0  0
    5.4157   12.2801   26.9994 C   0  0  0  0  0  0  0  0  0  0  0  0
    5.9737   13.5888   27.5591 C   0  0  0  0  0  0  0  0  0  0  0  0
    6.6328   14.4311   26.4710 C   0  0  0  0  0  0  0  0  0  0  0  0
   10.3082   12.3088   25.8101 C   0  0  0  0  0  0  0  0  0  0  0  0
   11.4637   11.4799   25.3051 C   0  0  0  0  0  0  0  0  0  0  0  0
   16.9685   12.6051   27.8365 C   0  0  0  0  0  0  0  0  0  0  0  0
   17.8872   11.3998   28.0160 C   0  0  0  0  0  0  0  0  0  0  0  0
   17.2414   10.2857   27.3753 O   0  0  0  0  0  0  0  0  0  0  0  0
   16.0440   10.7800   26.7930 C   0  0  0  0  0  0  0  0  0  0  0  0
  2  1  1  1
  2  3  1  0
  3  4  1  0
  4  5  2  0
  4  6  1  0
  6  7  1  0
  7  8  1  0
  8  9  1  0
  9 10  1  0
 10 11  2  0
 10 12  2  0
 10 13  1  0
 13 14  1  0
 14 15  1  0
 15 16  1  0
 16 17  1  0
 17 18  1  0
  9 19  1  0
 19 20  1  0
  2 21  1  0
 21 22  1  0
 22 23  1  0
 23 24  1  0
 24  2  1  0
 20  6  1  0
 18 13  1  0
M  END
>  <energy_score>  (2094) 
-45.875718

>  <inchikey>  (2094) 
None

>  <smiles>  (2094) 
None

>  <ref_pdb>  (2094) 
A4706a

>  <alias>  (2094) 
None

>  <HIPPO Pose ID>  (2094) 
499738

>  <name>  (2094) 
P499738

>  <HIPPO Compound ID>  (2094) 
314350

>  <ref_mols>  (2094) 
A0875a,A4706a

>  <distance_score>  (2094) 
1.910414

>  <inspiration_score>  (2094) 
None

$$$$
P499739
     RDKit          3D

 24 26  0  0  0  0  0  0  0  0999 V2000
    7.9812   12.8621   22.6603 O   0  0  0  0  0  0  0  0  0  0  0  0
    7.4546   13.8773   23.0976 C   0  0  0  0  0  0  0  0  0  0  0  0
    7.8549   15.1409   22.8260 O   0  0  0  0  0  0  0  0  0  0  0  0
    8.9983   15.4743   21.9689 C   0  0  2  0  0  0  0  0  0  0  0  0
    9.0816   14.7038   20.6603 C   0  0  0  0  0  0  0  0  0  0  0  0
   10.3226   15.1148   19.8931 C   0  0  0  0  0  0  0  0  0  0  0  0
   11.5640   14.8129   20.7287 C   0  0  0  0  0  0  0  0  0  0  0  0
   11.2590   14.4862   22.0884 O   0  0  0  0  0  0  0  0  0  0  0  0
   10.3664   15.4416   22.6670 C   0  0  0  0  0  0  0  0  0  0  0  0
    6.1896   13.7803   23.9669 C   0  0  0  0  0  0  0  0  0  0  0  0
    6.2943   12.5793   24.9567 C   0  0  0  0  0  0  0  0  0  0  0  0
    7.1061   12.9076   26.2207 C   0  0  0  0  0  0  0  0  0  0  0  0
    7.8334   14.1415   25.9170 N   0  0  0  0  0  0  0  0  0  0  0  0
    9.3068   14.4875   26.5782 S   0  0  0  0  0  0  0  0  0  0  0  0
    9.8393   15.6030   25.8401 O   0  0  0  0  0  0  0  0  0  0  0  0
    9.1471   14.5615   28.0050 O   0  0  0  0  0  0  0  0  0  0  0  0
   10.3092   13.1844   26.2499 N   0  0  0  0  0  0  0  0  0  0  0  0
   10.1583   12.5597   24.9291 C   0  0  0  0  0  0  0  0  0  0  0  0
   10.9020   11.2586   24.9919 C   0  0  0  0  0  0  0  0  0  0  0  0
   12.4000   11.5534   25.2162 C   0  0  0  0  0  0  0  0  0  0  0  0
   12.6814   12.4320   26.4165 C   0  0  0  0  0  0  0  0  0  0  0  0
   11.7298   13.6079   26.4603 C   0  0  0  0  0  0  0  0  0  0  0  0
    6.9089   15.3004   25.8560 C   0  0  0  0  0  0  0  0  0  0  0  0
    5.8764   15.0471   24.7626 C   0  0  0  0  0  0  0  0  0  0  0  0
  1  2  2  0
  2  3  1  0
  4  3  1  1
  4  5  1  0
  5  6  1  0
  6  7  1  0
  7  8  1  0
  8  9  1  0
  2 10  1  0
 10 11  1  0
 11 12  1  0
 12 13  1  0
 13 14  1  0
 14 15  2  0
 14 16  2  0
 14 17  1  0
 17 18  1  0
 18 19  1  0
 19 20  1  0
 20 21  1  0
 21 22  1  0
 13 23  1  0
 23 24  1  0
  9  4  1  0
 24 10  1  0
 22 17  1  0
M  END
>  <energy_score>  (2095) 
-54.172937

>  <inchikey>  (2095) 
None

>  <smiles>  (2095) 
None

>  <ref_pdb>  (2095) 
A4706a

>  <alias>  (2095) 
None

>  <HIPPO Pose ID>  (2095) 
499739

>  <name>  (2095) 
P499739

>  <HIPPO Compound ID>  (2095) 
314351

>  <ref_mols>  (2095) 
A4706a,A0875a

>  <distance_score>  (2095) 
1.698477

>  <inspiration_score>  (2095) 
None

$$$$
P499740
     RDKit          3D

 24 26  0  0  0  0  0  0  0  0999 V2000
    6.5942   13.1524   21.8802 O   0  0  0  0  0  0  0  0  0  0  0  0
    7.3437   13.7897   22.6003 C   0  0  0  0  0  0  0  0  0  0  0  0
    8.2304   14.7285   22.1833 O   0  0  0  0  0  0  0  0  0  0  0  0
    9.4739   14.2246   21.6201 C   0  0  1  0  0  0  0  0  0  0  0  0
    9.5102   14.6780   20.1731 C   0  0  0  0  0  0  0  0  0  0  0  0
   10.0822   16.0509   19.9726 C   0  0  0  0  0  0  0  0  0  0  0  0
   10.0583   16.7833   21.2853 C   0  0  0  0  0  0  0  0  0  0  0  0
   10.9764   16.1441   22.1665 O   0  0  0  0  0  0  0  0  0  0  0  0
   10.7008   14.7647   22.3574 C   0  0  0  0  0  0  0  0  0  0  0  0
    7.4849   13.5668   24.0632 C   0  0  0  0  0  0  0  0  0  0  0  0
    7.3031   12.1388   24.5520 C   0  0  0  0  0  0  0  0  0  0  0  0
    7.8127   12.0012   25.9827 C   0  0  0  0  0  0  0  0  0  0  0  0
    8.0164   13.3196   26.6058 N   0  0  0  0  0  0  0  0  0  0  0  0
    9.4826   14.1501   26.6345 S   0  0  0  0  0  0  0  0  0  0  0  0
    9.5302   14.7504   27.9430 O   0  0  0  0  0  0  0  0  0  0  0  0
    9.6347   14.9878   25.4711 O   0  0  0  0  0  0  0  0  0  0  0  0
   10.7080   12.9637   26.5624 N   0  0  0  0  0  0  0  0  0  0  0  0
   11.9423   13.5365   27.1921 C   0  0  0  0  0  0  0  0  0  0  0  0
   13.1526   12.6246   27.0285 C   0  0  0  0  0  0  0  0  0  0  0  0
   13.4336   12.2649   25.5792 C   0  0  0  0  0  0  0  0  0  0  0  0
   12.3243   12.7903   24.6836 C   0  0  0  0  0  0  0  0  0  0  0  0
   10.9735   12.3612   25.2221 C   0  0  0  0  0  0  0  0  0  0  0  0
    6.8347   14.2076   26.4084 C   0  0  0  0  0  0  0  0  0  0  0  0
    6.6967   14.5520   24.9214 C   0  0  0  0  0  0  0  0  0  0  0  0
  1  2  2  0
  2  3  1  0
  4  3  1  1
  4  5  1  0
  5  6  1  0
  6  7  1  0
  7  8  1  0
  8  9  1  0
  2 10  1  0
 10 11  1  0
 11 12  1  0
 12 13  1  0
 13 14  1  0
 14 15  2  0
 14 16  2  0
 14 17  1  0
 17 18  1  0
 18 19  1  0
 19 20  1  0
 20 21  1  0
 21 22  1  0
 13 23  1  0
 23 24  1  0
  9  4  1  0
 24 10  1  0
 22 17  1  0
M  END
>  <energy_score>  (2096) 
-25.841953

>  <inchikey>  (2096) 
None

>  <smiles>  (2096) 
None

>  <ref_pdb>  (2096) 
A4706a

>  <alias>  (2096) 
None

>  <HIPPO Pose ID>  (2096) 
499740

>  <name>  (2096) 
P499740

>  <HIPPO Compound ID>  (2096) 
314351

>  <ref_mols>  (2096) 
A4706a,A0875a

>  <distance_score>  (2096) 
1.615106

>  <inspiration_score>  (2096) 
None

$$$$
P499741
     RDKit          3D

 24 25  0  0  0  0  0  0  0  0999 V2000
   14.1594   11.7814   30.7111 C   0  0  0  0  0  0  0  0  0  0  0  0
   14.4819   11.4316   29.3643 O   0  0  0  0  0  0  0  0  0  0  0  0
   15.2227   12.3726   28.7163 C   0  0  0  0  0  0  0  0  0  0  0  0
   15.6002   13.4411   29.1845 O   0  0  0  0  0  0  0  0  0  0  0  0
   15.5354   11.9389   27.2781 C   0  0  1  0  0  0  0  0  0  0  0  0
   16.5490   10.8001   27.3280 C   0  0  0  0  0  0  0  0  0  0  0  0
   14.4516   11.5915   26.3991 O   0  0  0  0  0  0  0  0  0  0  0  0
   13.3993   12.4598   26.4260 C   0  0  0  0  0  0  0  0  0  0  0  0
   13.1495   13.2136   27.3510 O   0  0  0  0  0  0  0  0  0  0  0  0
   12.5640   12.3495   25.1654 C   0  0  0  0  0  0  0  0  0  0  0  0
   12.2644   13.7131   24.5709 C   0  0  0  0  0  0  0  0  0  0  0  0
   11.1765   13.6638   23.5067 C   0  0  0  0  0  0  0  0  0  0  0  0
    9.9288   13.0963   24.0791 N   0  0  0  0  0  0  0  0  0  0  0  0
    9.0308   14.2214   24.9296 S   0  0  0  0  0  0  0  0  0  0  0  0
    8.5027   15.1401   23.9539 O   0  0  0  0  0  0  0  0  0  0  0  0
    9.8331   14.7041   26.0294 O   0  0  0  0  0  0  0  0  0  0  0  0
    7.7613   13.4233   25.6427 N   0  0  0  0  0  0  0  0  0  0  0  0
    6.9212   12.4689   24.9162 C   0  0  0  0  0  0  0  0  0  0  0  0
    6.4219   11.5186   26.0087 C   0  0  0  0  0  0  0  0  0  0  0  0
    5.5074   12.2711   26.9760 C   0  0  0  0  0  0  0  0  0  0  0  0
    6.1961   13.5129   27.5395 C   0  0  0  0  0  0  0  0  0  0  0  0
    6.8965   14.3316   26.4590 C   0  0  0  0  0  0  0  0  0  0  0  0
   10.1267   11.7316   24.5376 C   0  0  0  0  0  0  0  0  0  0  0  0
   11.2798   11.6250   25.4990 C   0  0  0  0  0  0  0  0  0  0  0  0
  1  2  1  0
  2  3  1  0
  3  4  2  0
  3  5  1  0
  5  6  1  1
  5  7  1  0
  7  8  1  0
  8  9  2  0
  8 10  1  0
 10 11  1  0
 11 12  1  0
 12 13  1  0
 13 14  1  0
 14 15  2  0
 14 16  2  0
 14 17  1  0
 17 18  1  0
 18 19  1  0
 19 20  1  0
 20 21  1  0
 21 22  1  0
 13 23  1  0
 23 24  1  0
 24 10  1  0
 22 17  1  0
M  END
>  <energy_score>  (2097) 
-52.50407

>  <inchikey>  (2097) 
None

>  <smiles>  (2097) 
None

>  <ref_pdb>  (2097) 
A4706a

>  <alias>  (2097) 
None

>  <HIPPO Pose ID>  (2097) 
499741

>  <name>  (2097) 
P499741

>  <HIPPO Compound ID>  (2097) 
314352

>  <ref_mols>  (2097) 
A4706a,A0875a

>  <distance_score>  (2097) 
1.771705

>  <inspiration_score>  (2097) 
None

$$$$
P499742
     RDKit          3D

 24 25  0  0  0  0  0  0  0  0999 V2000
   17.4745   12.2636   29.0061 C   0  0  0  0  0  0  0  0  0  0  0  0
   16.2191   11.7958   29.5234 O   0  0  0  0  0  0  0  0  0  0  0  0
   15.0668   11.8164   28.8095 C   0  0  0  0  0  0  0  0  0  0  0  0
   13.9877   11.6391   29.3717 O   0  0  0  0  0  0  0  0  0  0  0  0
   15.1598   12.0367   27.3004 C   0  0  1  0  0  0  0  0  0  0  0  0
   15.6527   10.7679   26.6249 C   0  0  0  0  0  0  0  0  0  0  0  0
   13.8373   12.4698   26.8709 O   0  0  0  0  0  0  0  0  0  0  0  0
   13.5370   12.4560   25.5544 C   0  0  0  0  0  0  0  0  0  0  0  0
   14.2526   11.9720   24.6910 O   0  0  0  0  0  0  0  0  0  0  0  0
   12.1730   13.0369   25.2618 C   0  0  0  0  0  0  0  0  0  0  0  0
   12.0639   13.5054   23.8162 C   0  0  0  0  0  0  0  0  0  0  0  0
   10.6750   13.7923   23.2842 C   0  0  0  0  0  0  0  0  0  0  0  0
    9.6144   13.1686   24.1029 N   0  0  0  0  0  0  0  0  0  0  0  0
    8.8312   14.2913   25.0519 S   0  0  0  0  0  0  0  0  0  0  0  0
    8.1953   15.2157   24.1484 O   0  0  0  0  0  0  0  0  0  0  0  0
    9.7653   14.7683   26.0455 O   0  0  0  0  0  0  0  0  0  0  0  0
    7.6472   13.4519   25.8645 N   0  0  0  0  0  0  0  0  0  0  0  0
    6.7649   12.5220   25.1404 C   0  0  0  0  0  0  0  0  0  0  0  0
    6.2697   11.5554   26.2156 C   0  0  0  0  0  0  0  0  0  0  0  0
    5.3973   12.3014   27.2232 C   0  0  0  0  0  0  0  0  0  0  0  0
    6.1305   13.5077   27.8056 C   0  0  0  0  0  0  0  0  0  0  0  0
    6.8246   14.3448   26.7363 C   0  0  0  0  0  0  0  0  0  0  0  0
    9.9980   11.8592   24.6124 C   0  0  0  0  0  0  0  0  0  0  0  0
   11.1518   11.9619   25.5738 C   0  0  0  0  0  0  0  0  0  0  0  0
  1  2  1  0
  2  3  1  0
  3  4  2  0
  3  5  1  0
  5  6  1  6
  5  7  1  0
  7  8  1  0
  8  9  2  0
  8 10  1  0
 10 11  1  0
 11 12  1  0
 12 13  1  0
 13 14  1  0
 14 15  2  0
 14 16  2  0
 14 17  1  0
 17 18  1  0
 18 19  1  0
 19 20  1  0
 20 21  1  0
 21 22  1  0
 13 23  1  0
 23 24  1  0
 24 10  1  0
 22 17  1  0
M  END
>  <energy_score>  (2098) 
-46.568882

>  <inchikey>  (2098) 
None

>  <smiles>  (2098) 
None

>  <ref_pdb>  (2098) 
A4706a

>  <alias>  (2098) 
None

>  <HIPPO Pose ID>  (2098) 
499742

>  <name>  (2098) 
P499742

>  <HIPPO Compound ID>  (2098) 
314352

>  <ref_mols>  (2098) 
A4706a,A0875a

>  <distance_score>  (2098) 
1.736627

>  <inspiration_score>  (2098) 
None

$$$$
P499743
     RDKit          3D

 24 26  0  0  0  0  0  0  0  0999 V2000
    9.9441   15.2557   19.3124 C   0  0  0  0  0  0  0  0  0  0  0  0
    9.7639   15.9671   20.6518 C   0  0  2  0  0  0  0  0  0  0  0  0
   11.1024   16.2273   21.1255 O   0  0  0  0  0  0  0  0  0  0  0  0
   11.5685   15.0441   21.7583 C   0  0  0  0  0  0  0  0  0  0  0  0
   10.3307   14.2980   22.1875 C   0  0  0  0  0  0  0  0  0  0  0  0
    9.1764   15.2204   21.8557 C   0  0  2  0  0  0  0  0  0  0  0  0
    7.8290   14.7097   21.7864 O   0  0  0  0  0  0  0  0  0  0  0  0
    7.4971   13.7175   22.6604 C   0  0  0  0  0  0  0  0  0  0  0  0
    8.1352   12.6755   22.7563 O   0  0  0  0  0  0  0  0  0  0  0  0
    6.2001   13.9131   23.4579 C   0  0  0  0  0  0  0  0  0  0  0  0
    6.0555   12.8058   24.5705 C   0  0  0  0  0  0  0  0  0  0  0  0
    6.9658   12.9988   25.7994 C   0  0  0  0  0  0  0  0  0  0  0  0
    7.8060   14.1347   25.4603 N   0  0  0  0  0  0  0  0  0  0  0  0
    9.3303   14.3862   26.0029 S   0  0  0  0  0  0  0  0  0  0  0  0
    9.8702   15.4026   25.1299 O   0  0  0  0  0  0  0  0  0  0  0  0
    9.2645   14.6156   27.4236 O   0  0  0  0  0  0  0  0  0  0  0  0
   10.2957   13.0437   25.7901 N   0  0  0  0  0  0  0  0  0  0  0  0
   11.7319   13.4580   25.9227 C   0  0  0  0  0  0  0  0  0  0  0  0
   12.6595   12.5950   25.0939 C   0  0  0  0  0  0  0  0  0  0  0  0
   12.3369   11.1701   25.4575 C   0  0  0  0  0  0  0  0  0  0  0  0
   10.8713   10.7923   25.1075 C   0  0  0  0  0  0  0  0  0  0  0  0
   10.0481   12.0188   24.7655 C   0  0  0  0  0  0  0  0  0  0  0  0
    6.9627   15.3580   25.3988 C   0  0  0  0  0  0  0  0  0  0  0  0
    6.1328   15.2915   24.1197 C   0  0  0  0  0  0  0  0  0  0  0  0
  2  1  1  6
  2  3  1  0
  3  4  1  0
  4  5  1  0
  5  6  1  0
  6  7  1  6
  7  8  1  0
  8  9  2  0
  8 10  1  0
 10 11  1  0
 11 12  1  0
 12 13  1  0
 13 14  1  0
 14 15  2  0
 14 16  2  0
 14 17  1  0
 17 18  1  0
 18 19  1  0
 19 20  1  0
 20 21  1  0
 21 22  1  0
 13 23  1  0
 23 24  1  0
  6  2  1  0
 24 10  1  0
 22 17  1  0
M  END
>  <energy_score>  (2099) 
-15.064747

>  <inchikey>  (2099) 
None

>  <smiles>  (2099) 
None

>  <ref_pdb>  (2099) 
A4706a

>  <alias>  (2099) 
None

>  <HIPPO Pose ID>  (2099) 
499743

>  <name>  (2099) 
P499743

>  <HIPPO Compound ID>  (2099) 
314353

>  <ref_mols>  (2099) 
A4706a,A0875a

>  <distance_score>  (2099) 
1.742501

>  <inspiration_score>  (2099) 
None

$$$$
P499744
     RDKit          3D

 24 26  0  0  0  0  0  0  0  0999 V2000
    9.9663   15.3489   19.2280 C   0  0  0  0  0  0  0  0  0  0  0  0
   10.0221   14.6040   20.5514 C   0  0  1  0  0  0  0  0  0  0  0  0
   11.4422   14.4134   20.7646 O   0  0  0  0  0  0  0  0  0  0  0  0
   11.8506   15.4292   21.6611 C   0  0  0  0  0  0  0  0  0  0  0  0
   10.7243   15.4482   22.6262 C   0  0  0  0  0  0  0  0  0  0  0  0
    9.4568   15.3367   21.7923 C   0  0  2  0  0  0  0  0  0  0  0  0
    8.5004   14.5275   22.5748 O   0  0  0  0  0  0  0  0  0  0  0  0
    7.3709   15.1018   23.0645 C   0  0  0  0  0  0  0  0  0  0  0  0
    6.9135   16.1517   22.6290 O   0  0  0  0  0  0  0  0  0  0  0  0
    6.6910   14.3939   24.2826 C   0  0  0  0  0  0  0  0  0  0  0  0
    6.7382   12.8579   24.3567 C   0  0  0  0  0  0  0  0  0  0  0  0
    7.3506   12.2197   25.6179 C   0  0  0  0  0  0  0  0  0  0  0  0
    8.3922   13.0994   26.2267 N   0  0  0  0  0  0  0  0  0  0  0  0
    9.6978   13.4008   25.2098 S   0  0  0  0  0  0  0  0  0  0  0  0
    9.4698   12.5948   24.0356 O   0  0  0  0  0  0  0  0  0  0  0  0
    9.8949   14.8306   25.1753 O   0  0  0  0  0  0  0  0  0  0  0  0
   11.1049   12.7474   25.8798 N   0  0  0  0  0  0  0  0  0  0  0  0
   12.1323   12.6278   24.7922 C   0  0  0  0  0  0  0  0  0  0  0  0
   13.1926   11.6617   25.2758 C   0  0  0  0  0  0  0  0  0  0  0  0
   13.9644   12.3192   26.3919 C   0  0  0  0  0  0  0  0  0  0  0  0
   13.0221   12.8460   27.4685 C   0  0  0  0  0  0  0  0  0  0  0  0
   11.7111   13.5150   26.9918 C   0  0  0  0  0  0  0  0  0  0  0  0
    7.6970   14.3196   26.7254 C   0  0  0  0  0  0  0  0  0  0  0  0
    7.0198   15.1224   25.6034 C   0  0  0  0  0  0  0  0  0  0  0  0
  2  1  1  6
  2  3  1  0
  3  4  1  0
  4  5  1  0
  5  6  1  0
  6  7  1  1
  7  8  1  0
  8  9  2  0
  8 10  1  0
 10 11  1  0
 11 12  1  0
 12 13  1  0
 13 14  1  0
 14 15  2  0
 14 16  2  0
 14 17  1  0
 17 18  1  0
 18 19  1  0
 19 20  1  0
 20 21  1  0
 21 22  1  0
 13 23  1  0
 23 24  1  0
  6  2  1  0
 24 10  1  0
 22 17  1  0
M  END
>  <energy_score>  (2100) 
-21.774481

>  <inchikey>  (2100) 
None

>  <smiles>  (2100) 
None

>  <ref_pdb>  (2100) 
A4706a

>  <alias>  (2100) 
None

>  <HIPPO Pose ID>  (2100) 
499744

>  <name>  (2100) 
P499744

>  <HIPPO Compound ID>  (2100) 
314353

>  <ref_mols>  (2100) 
A4706a,A0875a

>  <distance_score>  (2100) 
1.729127

>  <inspiration_score>  (2100) 
None

$$$$
P499745
     RDKit          3D

 24 26  0  0  0  0  0  0  0  0999 V2000
   10.0861   15.3276   19.0472 C   0  0  0  0  0  0  0  0  0  0  0  0
    9.7408   15.8115   20.4618 C   0  0  2  0  0  0  0  0  0  0  0  0
   10.9655   16.2744   21.0521 O   0  0  0  0  0  0  0  0  0  0  0  0
   11.6689   15.1255   21.4833 C   0  0  0  0  0  0  0  0  0  0  0  0
   10.5815   14.3165   22.1184 C   0  0  0  0  0  0  0  0  0  0  0  0
    9.2735   14.6890   21.3922 C   0  0  1  0  0  0  0  0  0  0  0  0
    8.2357   15.1384   22.3430 O   0  0  0  0  0  0  0  0  0  0  0  0
    7.1178   14.3555   22.4693 C   0  0  0  0  0  0  0  0  0  0  0  0
    6.8478   13.4269   21.7089 O   0  0  0  0  0  0  0  0  0  0  0  0
    6.1848   14.6494   23.6726 C   0  0  0  0  0  0  0  0  0  0  0  0
    5.6672   13.3291   24.3016 C   0  0  0  0  0  0  0  0  0  0  0  0
    6.6088   12.6039   25.2808 C   0  0  0  0  0  0  0  0  0  0  0  0
    7.6118   13.5408   25.8505 N   0  0  0  0  0  0  0  0  0  0  0  0
    9.0630   13.6215   24.9938 S   0  0  0  0  0  0  0  0  0  0  0  0
    9.5756   14.9646   25.1172 O   0  0  0  0  0  0  0  0  0  0  0  0
    8.8648   12.9410   23.7447 O   0  0  0  0  0  0  0  0  0  0  0  0
   10.0736   12.6717   25.8815 N   0  0  0  0  0  0  0  0  0  0  0  0
   10.6816   13.3944   26.9826 C   0  0  0  0  0  0  0  0  0  0  0  0
   12.1058   13.7513   26.7178 C   0  0  0  0  0  0  0  0  0  0  0  0
   12.9349   12.5276   26.4175 C   0  0  0  0  0  0  0  0  0  0  0  0
   12.3642   11.8487   25.2019 C   0  0  0  0  0  0  0  0  0  0  0  0
   10.8513   11.6284   25.1882 C   0  0  0  0  0  0  0  0  0  0  0  0
    6.9849   14.8600   26.1143 C   0  0  0  0  0  0  0  0  0  0  0  0
    6.6620   15.5737   24.7954 C   0  0  0  0  0  0  0  0  0  0  0  0
  2  1  1  6
  2  3  1  0
  3  4  1  0
  4  5  1  0
  5  6  1  0
  6  7  1  1
  7  8  1  0
  8  9  2  0
  8 10  1  0
 10 11  1  0
 11 12  1  0
 12 13  1  0
 13 14  1  0
 14 15  2  0
 14 16  2  0
 14 17  1  0
 17 18  1  0
 18 19  1  0
 19 20  1  0
 20 21  1  0
 21 22  1  0
 13 23  1  0
 23 24  1  0
  6  2  1  0
 24 10  1  0
 22 17  1  0
M  END
>  <energy_score>  (2101) 
-15.564856

>  <inchikey>  (2101) 
None

>  <smiles>  (2101) 
None

>  <ref_pdb>  (2101) 
A4706a

>  <alias>  (2101) 
None

>  <HIPPO Pose ID>  (2101) 
499745

>  <name>  (2101) 
P499745

>  <HIPPO Compound ID>  (2101) 
314353

>  <ref_mols>  (2101) 
A4706a,A0875a

>  <distance_score>  (2101) 
1.814237

>  <inspiration_score>  (2101) 
None

$$$$
P499746
     RDKit          3D

 24 26  0  0  0  0  0  0  0  0999 V2000
    9.9811   15.6494   19.0766 C   0  0  0  0  0  0  0  0  0  0  0  0
   10.3852   14.6942   20.1699 C   0  0  1  0  0  0  0  0  0  0  0  0
   11.6196   15.1682   20.7331 O   0  0  0  0  0  0  0  0  0  0  0  0
   11.3045   15.8511   21.9478 C   0  0  0  0  0  0  0  0  0  0  0  0
    9.8119   15.7818   22.1178 C   0  0  0  0  0  0  0  0  0  0  0  0
    9.4780   14.5085   21.3964 C   0  0  1  0  0  0  0  0  0  0  0  0
    8.0691   14.3486   21.1819 O   0  0  0  0  0  0  0  0  0  0  0  0
    7.2088   13.8579   22.1183 C   0  0  0  0  0  0  0  0  0  0  0  0
    6.1017   13.4439   21.7792 O   0  0  0  0  0  0  0  0  0  0  0  0
    7.6209   13.7480   23.5726 C   0  0  0  0  0  0  0  0  0  0  0  0
    7.4205   12.3328   24.1368 C   0  0  0  0  0  0  0  0  0  0  0  0
    7.8050   12.1735   25.6004 C   0  0  0  0  0  0  0  0  0  0  0  0
    8.0157   13.4731   26.2288 N   0  0  0  0  0  0  0  0  0  0  0  0
    9.5034   14.2186   26.3668 S   0  0  0  0  0  0  0  0  0  0  0  0
    9.8080   14.9862   25.1853 O   0  0  0  0  0  0  0  0  0  0  0  0
    9.4798   14.8687   27.6511 O   0  0  0  0  0  0  0  0  0  0  0  0
   10.6663   12.9775   26.4253 N   0  0  0  0  0  0  0  0  0  0  0  0
   10.9846   12.3565   25.1040 C   0  0  0  0  0  0  0  0  0  0  0  0
   12.3293   12.8267   24.5979 C   0  0  0  0  0  0  0  0  0  0  0  0
   13.4317   12.3204   25.5174 C   0  0  0  0  0  0  0  0  0  0  0  0
   13.0972   12.6210   26.9687 C   0  0  0  0  0  0  0  0  0  0  0  0
   11.8810   13.5233   27.1186 C   0  0  0  0  0  0  0  0  0  0  0  0
    6.8913   14.4023   25.9436 C   0  0  0  0  0  0  0  0  0  0  0  0
    6.8655   14.7603   24.4510 C   0  0  0  0  0  0  0  0  0  0  0  0
  2  1  1  6
  2  3  1  0
  3  4  1  0
  4  5  1  0
  5  6  1  0
  6  7  1  6
  7  8  1  0
  8  9  2  0
  8 10  1  0
 10 11  1  0
 11 12  1  0
 12 13  1  0
 13 14  1  0
 14 15  2  0
 14 16  2  0
 14 17  1  0
 17 18  1  0
 18 19  1  0
 19 20  1  0
 20 21  1  0
 21 22  1  0
 13 23  1  0
 23 24  1  0
  6  2  1  0
 24 10  1  0
 22 17  1  0
M  END
>  <energy_score>  (2102) 
-37.075604

>  <inchikey>  (2102) 
None

>  <smiles>  (2102) 
None

>  <ref_pdb>  (2102) 
A4706a

>  <alias>  (2102) 
None

>  <HIPPO Pose ID>  (2102) 
499746

>  <name>  (2102) 
P499746

>  <HIPPO Compound ID>  (2102) 
314353

>  <ref_mols>  (2102) 
A4706a,A0875a

>  <distance_score>  (2102) 
1.622112

>  <inspiration_score>  (2102) 
None

$$$$
P499747
     RDKit          3D

 24 25  0  0  0  0  0  0  0  0999 V2000
   19.1627   10.8497   28.2427 C   0  0  0  0  0  0  0  0  0  0  0  0
   18.0246    9.9082   27.8942 C   0  0  0  0  0  0  0  0  0  0  0  0
   16.7722   10.4249   28.3404 O   0  0  0  0  0  0  0  0  0  0  0  0
   16.1973   11.3761   27.4488 C   0  0  0  0  0  0  0  0  0  0  0  0
   14.8368   11.8171   27.9918 C   0  0  1  0  0  0  0  0  0  0  0  0
   14.9621   12.5380   29.3320 C   0  0  0  0  0  0  0  0  0  0  0  0
   14.1778   12.6988   27.0621 O   0  0  0  0  0  0  0  0  0  0  0  0
   13.3550   12.1480   26.1158 C   0  0  0  0  0  0  0  0  0  0  0  0
   13.2052   10.9524   25.9097 O   0  0  0  0  0  0  0  0  0  0  0  0
   12.6354   13.2670   25.3833 C   0  0  0  0  0  0  0  0  0  0  0  0
   11.7396   14.0226   26.3594 C   0  0  0  0  0  0  0  0  0  0  0  0
   10.4520   13.2738   26.6125 C   0  0  0  0  0  0  0  0  0  0  0  0
    9.7926   12.9135   25.3576 N   0  0  0  0  0  0  0  0  0  0  0  0
    8.7390   14.0613   24.7499 S   0  0  0  0  0  0  0  0  0  0  0  0
    8.5506   13.8676   23.3372 O   0  0  0  0  0  0  0  0  0  0  0  0
    9.1225   15.3266   25.3228 O   0  0  0  0  0  0  0  0  0  0  0  0
    7.3964   13.5088   25.5587 N   0  0  0  0  0  0  0  0  0  0  0  0
    6.8451   12.1930   25.2030 C   0  0  0  0  0  0  0  0  0  0  0  0
    6.2624   11.6030   26.4819 C   0  0  0  0  0  0  0  0  0  0  0  0
    5.2188   12.5383   27.0967 C   0  0  0  0  0  0  0  0  0  0  0  0
    5.7454   13.9685   27.2451 C   0  0  0  0  0  0  0  0  0  0  0  0
    6.3595   14.4770   25.9412 C   0  0  0  0  0  0  0  0  0  0  0  0
   10.5947   12.1293   24.4289 C   0  0  0  0  0  0  0  0  0  0  0  0
   11.8488   12.9151   24.1319 C   0  0  0  0  0  0  0  0  0  0  0  0
  1  2  1  0
  2  3  1  0
  3  4  1  0
  4  5  1  0
  5  6  1  1
  5  7  1  0
  7  8  1  0
  8  9  2  0
  8 10  1  0
 10 11  1  0
 11 12  1  0
 12 13  1  0
 13 14  1  0
 14 15  2  0
 14 16  2  0
 14 17  1  0
 17 18  1  0
 18 19  1  0
 19 20  1  0
 20 21  1  0
 21 22  1  0
 13 23  1  0
 23 24  1  0
 24 10  1  0
 22 17  1  0
M  END
>  <energy_score>  (2103) 
-82.876431

>  <inchikey>  (2103) 
None

>  <smiles>  (2103) 
None

>  <ref_pdb>  (2103) 
A4706a

>  <alias>  (2103) 
None

>  <HIPPO Pose ID>  (2103) 
499747

>  <name>  (2103) 
P499747

>  <HIPPO Compound ID>  (2103) 
314354

>  <ref_mols>  (2103) 
A4706a,A0875a

>  <distance_score>  (2103) 
1.863693

>  <inspiration_score>  (2103) 
None

$$$$
P499748
     RDKit          3D

 24 26  0  0  0  0  0  0  0  0999 V2000
    6.5345   13.6016   21.5670 O   0  0  0  0  0  0  0  0  0  0  0  0
    7.1911   14.2779   22.3414 C   0  0  0  0  0  0  0  0  0  0  0  0
    8.1787   15.1597   21.9938 O   0  0  0  0  0  0  0  0  0  0  0  0
    9.2599   14.5642   21.2344 C   0  0  2  0  0  0  0  0  0  0  0  0
   10.2795   13.9096   22.1563 C   0  0  0  0  0  0  0  0  0  0  0  0
   11.1755   14.9226   22.5934 O   0  0  0  0  0  0  0  0  0  0  0  0
   11.2150   15.9036   21.5540 C   0  0  0  0  0  0  0  0  0  0  0  0
   10.1102   15.6106   20.5531 C   0  0  1  0  0  0  0  0  0  0  0  0
   10.9215   14.8691   18.9332 Br  0  0  0  0  0  0  0  0  0  0  0  0
    7.0821   14.1614   23.8281 C   0  0  0  0  0  0  0  0  0  0  0  0
    6.6420   12.8041   24.3725 C   0  0  0  0  0  0  0  0  0  0  0  0
    6.8310   12.7353   25.8864 C   0  0  0  0  0  0  0  0  0  0  0  0
    7.4748   13.9509   26.4029 N   0  0  0  0  0  0  0  0  0  0  0  0
    9.1173   14.3300   26.4568 S   0  0  0  0  0  0  0  0  0  0  0  0
    9.5232   15.0197   25.2568 O   0  0  0  0  0  0  0  0  0  0  0  0
    9.2761   14.9858   27.7237 O   0  0  0  0  0  0  0  0  0  0  0  0
   10.0200   12.9147   26.5410 N   0  0  0  0  0  0  0  0  0  0  0  0
    9.7774   11.9299   25.4955 C   0  0  0  0  0  0  0  0  0  0  0  0
   10.9886   11.2641   24.9461 C   0  0  0  0  0  0  0  0  0  0  0  0
   12.1611   12.1965   24.6700 C   0  0  0  0  0  0  0  0  0  0  0  0
   12.2777   13.3708   25.5878 C   0  0  0  0  0  0  0  0  0  0  0  0
   11.4583   13.1988   26.8330 C   0  0  0  0  0  0  0  0  0  0  0  0
    6.6178   15.1437   26.1065 C   0  0  0  0  0  0  0  0  0  0  0  0
    6.4170   15.2955   24.5872 C   0  0  0  0  0  0  0  0  0  0  0  0
  1  2  2  0
  2  3  1  0
  4  3  1  1
  4  5  1  0
  5  6  1  0
  6  7  1  0
  7  8  1  0
  8  9  1  6
  2 10  1  0
 10 11  1  0
 11 12  1  0
 12 13  1  0
 13 14  1  0
 14 15  2  0
 14 16  2  0
 14 17  1  0
 17 18  1  0
 18 19  1  0
 19 20  1  0
 20 21  1  0
 21 22  1  0
 13 23  1  0
 23 24  1  0
  8  4  1  0
 24 10  1  0
 22 17  1  0
M  END
>  <energy_score>  (2104) 
-29.145548

>  <inchikey>  (2104) 
None

>  <smiles>  (2104) 
None

>  <ref_pdb>  (2104) 
A4706a

>  <alias>  (2104) 
None

>  <HIPPO Pose ID>  (2104) 
499748

>  <name>  (2104) 
P499748

>  <HIPPO Compound ID>  (2104) 
314355

>  <ref_mols>  (2104) 
A4706a,A0875a

>  <distance_score>  (2104) 
1.877881

>  <inspiration_score>  (2104) 
None

$$$$
P499749
     RDKit          3D

 24 26  0  0  0  0  0  0  0  0999 V2000
    7.0484   13.7082   21.9143 O   0  0  0  0  0  0  0  0  0  0  0  0
    7.4115   14.2944   22.9296 C   0  0  0  0  0  0  0  0  0  0  0  0
    8.4686   15.1401   22.9963 O   0  0  0  0  0  0  0  0  0  0  0  0
    9.3172   15.5694   21.8682 C   0  0  1  0  0  0  0  0  0  0  0  0
   10.6908   15.9614   22.4301 C   0  0  0  0  0  0  0  0  0  0  0  0
   11.5261   14.8019   22.4549 O   0  0  0  0  0  0  0  0  0  0  0  0
   11.0052   13.9096   21.4764 C   0  0  0  0  0  0  0  0  0  0  0  0
    9.7599   14.5214   20.8747 C   0  0  2  0  0  0  0  0  0  0  0  0
   10.2804   15.3372   19.1635 Br  0  0  0  0  0  0  0  0  0  0  0  0
    6.6699   14.1011   24.2955 C   0  0  0  0  0  0  0  0  0  0  0  0
    6.6565   12.6260   24.7776 C   0  0  0  0  0  0  0  0  0  0  0  0
    7.5652   12.2253   25.9534 C   0  0  0  0  0  0  0  0  0  0  0  0
    8.5225   13.3035   26.3036 N   0  0  0  0  0  0  0  0  0  0  0  0
    9.7672   13.5221   25.1874 S   0  0  0  0  0  0  0  0  0  0  0  0
    9.3952   12.7504   24.0241 O   0  0  0  0  0  0  0  0  0  0  0  0
   10.0761   14.9276   25.1476 O   0  0  0  0  0  0  0  0  0  0  0  0
   11.1306   12.7597   25.8461 N   0  0  0  0  0  0  0  0  0  0  0  0
   12.1464   12.6232   24.7618 C   0  0  0  0  0  0  0  0  0  0  0  0
   13.2046   11.6533   25.2468 C   0  0  0  0  0  0  0  0  0  0  0  0
   13.9893   12.3126   26.3517 C   0  0  0  0  0  0  0  0  0  0  0  0
   13.0536   12.8163   27.4423 C   0  0  0  0  0  0  0  0  0  0  0  0
   11.7535   13.5016   26.9724 C   0  0  0  0  0  0  0  0  0  0  0  0
    7.7496   14.5304   26.6298 C   0  0  0  0  0  0  0  0  0  0  0  0
    7.0043   15.0969   25.4179 C   0  0  0  0  0  0  0  0  0  0  0  0
  1  2  2  0
  2  3  1  0
  4  3  1  1
  4  5  1  0
  5  6  1  0
  6  7  1  0
  7  8  1  0
  8  9  1  6
  2 10  1  0
 10 11  1  0
 11 12  1  0
 12 13  1  0
 13 14  1  0
 14 15  2  0
 14 16  2  0
 14 17  1  0
 17 18  1  0
 18 19  1  0
 19 20  1  0
 20 21  1  0
 21 22  1  0
 13 23  1  0
 23 24  1  0
  8  4  1  0
 24 10  1  0
 22 17  1  0
M  END
>  <energy_score>  (2105) 
-41.111373

>  <inchikey>  (2105) 
None

>  <smiles>  (2105) 
None

>  <ref_pdb>  (2105) 
A4706a

>  <alias>  (2105) 
None

>  <HIPPO Pose ID>  (2105) 
499749

>  <name>  (2105) 
P499749

>  <HIPPO Compound ID>  (2105) 
314355

>  <ref_mols>  (2105) 
A4706a,A0875a

>  <distance_score>  (2105) 
1.878466

>  <inspiration_score>  (2105) 
None

$$$$
P499750
     RDKit          3D

 24 26  0  0  0  0  0  0  0  0999 V2000
   10.3101   15.2345   19.4399 C   0  0  0  0  0  0  0  0  0  0  0  0
    9.7843   15.6585   20.8249 C   0  0  2  0  0  0  0  0  0  0  0  0
   10.9279   15.7408   21.8227 C   0  0  0  0  0  0  0  0  0  0  0  0
   11.1565   14.4302   22.3367 O   0  0  0  0  0  0  0  0  0  0  0  0
    9.9468   13.6969   22.1518 C   0  0  0  0  0  0  0  0  0  0  0  0
    8.9145   14.5674   21.4349 C   0  0  1  0  0  0  0  0  0  0  0  0
    7.9186   15.0358   22.3900 O   0  0  0  0  0  0  0  0  0  0  0  0
    6.9900   14.0895   22.7000 C   0  0  0  0  0  0  0  0  0  0  0  0
    6.8024   13.0846   22.0098 O   0  0  0  0  0  0  0  0  0  0  0  0
    6.2230   14.2205   24.0199 C   0  0  0  0  0  0  0  0  0  0  0  0
    6.4480   12.8873   24.7886 C   0  0  0  0  0  0  0  0  0  0  0  0
    6.9300   12.9550   26.2243 C   0  0  0  0  0  0  0  0  0  0  0  0
    7.6260   14.2014   26.5383 N   0  0  0  0  0  0  0  0  0  0  0  0
    9.2020   14.5917   26.0925 S   0  0  0  0  0  0  0  0  0  0  0  0
    9.5940   15.6524   26.9874 O   0  0  0  0  0  0  0  0  0  0  0  0
    9.2445   14.8207   24.6776 O   0  0  0  0  0  0  0  0  0  0  0  0
   10.1795   13.2715   26.4101 N   0  0  0  0  0  0  0  0  0  0  0  0
   11.6024   13.6399   26.6538 C   0  0  0  0  0  0  0  0  0  0  0  0
   12.5488   13.1914   25.5602 C   0  0  0  0  0  0  0  0  0  0  0  0
   12.4337   11.7104   25.4289 C   0  0  0  0  0  0  0  0  0  0  0  0
   11.0373   11.3904   24.9443 C   0  0  0  0  0  0  0  0  0  0  0  0
    9.8980   12.0255   25.6890 C   0  0  0  0  0  0  0  0  0  0  0  0
    6.6766   15.3252   26.3182 C   0  0  0  0  0  0  0  0  0  0  0  0
    6.3998   15.5099   24.8271 C   0  0  0  0  0  0  0  0  0  0  0  0
  2  1  1  6
  2  3  1  0
  3  4  1  0
  4  5  1  0
  5  6  1  0
  6  7  1  1
  7  8  1  0
  8  9  2  0
  8 10  1  0
 10 11  1  0
 11 12  1  0
 12 13  1  0
 13 14  1  0
 14 15  2  0
 14 16  2  0
 14 17  1  0
 17 18  1  0
 18 19  1  0
 19 20  1  0
 20 21  1  0
 21 22  1  0
 13 23  1  0
 23 24  1  0
  6  2  1  0
 24 10  1  0
 22 17  1  0
M  END
>  <energy_score>  (2106) 
-8.690806

>  <inchikey>  (2106) 
None

>  <smiles>  (2106) 
None

>  <ref_pdb>  (2106) 
A4706a

>  <alias>  (2106) 
None

>  <HIPPO Pose ID>  (2106) 
499750

>  <name>  (2106) 
P499750

>  <HIPPO Compound ID>  (2106) 
314356

>  <ref_mols>  (2106) 
A0875a,A4706a

>  <distance_score>  (2106) 
1.783875

>  <inspiration_score>  (2106) 
None

$$$$
P499751
     RDKit          3D

 24 26  0  0  0  0  0  0  0  0999 V2000
    6.3361   13.3659   22.2114 O   0  0  0  0  0  0  0  0  0  0  0  0
    6.5483   14.1304   23.1499 C   0  0  0  0  0  0  0  0  0  0  0  0
    7.3707   15.2078   23.0931 O   0  0  0  0  0  0  0  0  0  0  0  0
    7.9297   15.5909   21.8197 C   0  0  0  0  0  0  0  0  0  0  0  0
    9.2396   14.9134   21.3988 C   0  0  1  0  0  0  0  0  0  0  0  0
    9.7822   15.4794   20.0998 C   0  0  0  0  0  0  0  0  0  0  0  0
   11.1336   15.0326   20.0710 O   0  0  0  0  0  0  0  0  0  0  0  0
   11.4891   14.9314   21.4531 C   0  0  0  0  0  0  0  0  0  0  0  0
   10.3440   15.1514   22.2804 O   0  0  0  0  0  0  0  0  0  0  0  0
    5.8818   13.9672   24.5348 C   0  0  0  0  0  0  0  0  0  0  0  0
    6.0029   12.5221   25.0569 C   0  0  0  0  0  0  0  0  0  0  0  0
    7.1677   12.1881   25.9856 C   0  0  0  0  0  0  0  0  0  0  0  0
    8.0237   13.3599   26.2043 N   0  0  0  0  0  0  0  0  0  0  0  0
    9.1788   13.6805   25.0145 S   0  0  0  0  0  0  0  0  0  0  0  0
    9.3750   15.1060   24.9877 O   0  0  0  0  0  0  0  0  0  0  0  0
    8.8275   12.8857   23.8622 O   0  0  0  0  0  0  0  0  0  0  0  0
   10.5212   12.9658   25.7325 N   0  0  0  0  0  0  0  0  0  0  0  0
   10.8007   11.5995   25.2375 C   0  0  0  0  0  0  0  0  0  0  0  0
   12.2157   11.2007   25.6483 C   0  0  0  0  0  0  0  0  0  0  0  0
   13.3068   12.0757   25.1185 C   0  0  0  0  0  0  0  0  0  0  0  0
   12.6938   13.3961   24.7129 C   0  0  0  0  0  0  0  0  0  0  0  0
   11.7126   13.8391   25.7842 C   0  0  0  0  0  0  0  0  0  0  0  0
    7.2321   14.5140   26.6743 C   0  0  0  0  0  0  0  0  0  0  0  0
    6.2558   15.0045   25.6073 C   0  0  0  0  0  0  0  0  0  0  0  0
  1  2  2  0
  2  3  1  0
  3  4  1  0
  5  4  1  1
  5  6  1  0
  6  7  1  0
  7  8  1  0
  8  9  1  0
  2 10  1  0
 10 11  1  0
 11 12  1  0
 12 13  1  0
 13 14  1  0
 14 15  2  0
 14 16  2  0
 14 17  1  0
 17 18  1  0
 18 19  1  0
 19 20  1  0
 20 21  1  0
 21 22  1  0
 13 23  1  0
 23 24  1  0
  9  5  1  0
 24 10  1  0
 22 17  1  0
M  END
>  <energy_score>  (2107) 
-50.218629

>  <inchikey>  (2107) 
None

>  <smiles>  (2107) 
None

>  <ref_pdb>  (2107) 
A4706a

>  <alias>  (2107) 
None

>  <HIPPO Pose ID>  (2107) 
499751

>  <name>  (2107) 
P499751

>  <HIPPO Compound ID>  (2107) 
314357

>  <ref_mols>  (2107) 
A4706a,A0875a

>  <distance_score>  (2107) 
1.320328

>  <inspiration_score>  (2107) 
None

$$$$
P499752
     RDKit          3D

 24 26  0  0  0  0  0  0  0  0999 V2000
   17.9458    8.5966   28.3386 C   0  0  0  0  0  0  0  0  0  0  0  0
   17.3473    9.4825   27.2520 C   0  0  0  0  0  0  0  0  0  0  0  0
   16.6409   10.7468   27.7912 C   0  0  0  0  0  0  0  0  0  0  0  0
   15.5752   11.1350   26.8334 O   0  0  0  0  0  0  0  0  0  0  0  0
   14.9613   12.3132   27.0768 C   0  0  0  0  0  0  0  0  0  0  0  0
   15.3294   13.1185   27.9316 O   0  0  0  0  0  0  0  0  0  0  0  0
   13.7341   12.6612   26.2548 C   0  0  0  0  0  0  0  0  0  0  0  0
   12.6875   13.0679   27.2845 C   0  0  0  0  0  0  0  0  0  0  0  0
   11.4522   13.7414   26.7340 C   0  0  0  0  0  0  0  0  0  0  0  0
   10.8829   13.0296   25.5627 N   0  0  0  0  0  0  0  0  0  0  0  0
    9.5819   13.9457   24.8908 S   0  0  0  0  0  0  0  0  0  0  0  0
    9.4360   13.6508   23.4890 O   0  0  0  0  0  0  0  0  0  0  0  0
    9.7284   15.2952   25.3747 O   0  0  0  0  0  0  0  0  0  0  0  0
    8.2785   13.2489   25.7116 N   0  0  0  0  0  0  0  0  0  0  0  0
    7.8456   11.9325   25.1769 C   0  0  0  0  0  0  0  0  0  0  0  0
    6.8726   11.2959   26.1591 C   0  0  0  0  0  0  0  0  0  0  0  0
    5.6893   12.2055   26.4728 C   0  0  0  0  0  0  0  0  0  0  0  0
    6.1603   13.5906   26.8980 C   0  0  0  0  0  0  0  0  0  0  0  0
    7.1177   14.1744   25.8661 C   0  0  0  0  0  0  0  0  0  0  0  0
   11.9173   12.6649   24.5687 C   0  0  0  0  0  0  0  0  0  0  0  0
   13.0172   11.7879   25.2448 C   0  0  0  0  0  0  0  0  0  0  0  0
   16.2471   10.7826   29.3031 C   0  0  0  0  0  0  0  0  0  0  0  0
   17.3832   11.6114   29.6304 O   0  0  0  0  0  0  0  0  0  0  0  0
   17.7211   11.7764   28.2327 C   0  0  0  0  0  0  0  0  0  0  0  0
  1  2  1  0
  2  3  1  0
  3  4  1  0
  4  5  1  0
  5  6  2  0
  5  7  1  0
  7  8  1  0
  8  9  1  0
  9 10  1  0
 10 11  1  0
 11 12  2  0
 11 13  2  0
 11 14  1  0
 14 15  1  0
 15 16  1  0
 16 17  1  0
 17 18  1  0
 18 19  1  0
 10 20  1  0
 20 21  1  0
  3 22  1  0
 22 23  1  0
 23 24  1  0
 24  3  1  0
 21  7  1  0
 19 14  1  0
M  END
>  <energy_score>  (2108) 
-91.984393

>  <inchikey>  (2108) 
None

>  <smiles>  (2108) 
None

>  <ref_pdb>  (2108) 
A4706a

>  <alias>  (2108) 
None

>  <HIPPO Pose ID>  (2108) 
499752

>  <name>  (2108) 
P499752

>  <HIPPO Compound ID>  (2108) 
314358

>  <ref_mols>  (2108) 
A0875a,A4706a

>  <distance_score>  (2108) 
1.817262

>  <inspiration_score>  (2108) 
None

$$$$
P499753
     RDKit          3D

 24 26  0  0  0  0  0  0  0  0999 V2000
   10.6317   14.9710   18.7586 C   0  0  0  0  0  0  0  0  0  0  0  0
    9.5776   15.2920   19.6567 O   0  0  0  0  0  0  0  0  0  0  0  0
    9.9282   15.8428   20.9470 C   0  0  2  0  0  0  0  0  0  0  0  0
   11.1330   15.1509   21.6717 C   0  0  0  0  0  0  0  0  0  0  0  0
   10.0690   14.1245   22.1218 C   0  0  0  0  0  0  0  0  0  0  0  0
    9.1111   15.3469   22.2040 C   0  0  2  0  0  0  0  0  0  0  0  0
    7.6632   15.2288   22.2071 O   0  0  0  0  0  0  0  0  0  0  0  0
    7.1437   14.0442   22.5764 C   0  0  0  0  0  0  0  0  0  0  0  0
    7.0376   13.1123   21.7828 O   0  0  0  0  0  0  0  0  0  0  0  0
    6.6039   13.8328   23.9929 C   0  0  0  0  0  0  0  0  0  0  0  0
    7.2478   12.5022   24.4783 C   0  0  0  0  0  0  0  0  0  0  0  0
    7.4213   12.3305   25.9625 C   0  0  0  0  0  0  0  0  0  0  0  0
    7.9553   13.5514   26.5496 N   0  0  0  0  0  0  0  0  0  0  0  0
    9.4588   14.1669   26.1534 S   0  0  0  0  0  0  0  0  0  0  0  0
    9.7444   15.1444   27.1765 O   0  0  0  0  0  0  0  0  0  0  0  0
    9.4447   14.5983   24.7863 O   0  0  0  0  0  0  0  0  0  0  0  0
   10.6755   13.0165   26.2357 N   0  0  0  0  0  0  0  0  0  0  0  0
   10.7006   11.8182   25.3581 C   0  0  0  0  0  0  0  0  0  0  0  0
   12.0614   11.1333   25.5852 C   0  0  0  0  0  0  0  0  0  0  0  0
   13.2722   11.8833   25.1408 C   0  0  0  0  0  0  0  0  0  0  0  0
   12.8535   13.3156   24.9893 C   0  0  0  0  0  0  0  0  0  0  0  0
   11.9975   13.7357   26.1854 C   0  0  0  0  0  0  0  0  0  0  0  0
    6.8879   14.6076   26.4405 C   0  0  0  0  0  0  0  0  0  0  0  0
    6.6562   15.0097   24.9757 C   0  0  0  0  0  0  0  0  0  0  0  0
  1  2  1  0
  3  2  1  6
  3  4  1  0
  4  5  1  0
  5  6  1  0
  6  7  1  6
  7  8  1  0
  8  9  2  0
  8 10  1  0
 10 11  1  0
 11 12  1  0
 12 13  1  0
 13 14  1  0
 14 15  2  0
 14 16  2  0
 14 17  1  0
 17 18  1  0
 18 19  1  0
 19 20  1  0
 20 21  1  0
 21 22  1  0
 13 23  1  0
 23 24  1  0
  6  3  1  0
 24 10  1  0
 22 17  1  0
M  END
>  <energy_score>  (2109) 
-8.891616

>  <inchikey>  (2109) 
None

>  <smiles>  (2109) 
None

>  <ref_pdb>  (2109) 
A4706a

>  <alias>  (2109) 
None

>  <HIPPO Pose ID>  (2109) 
499753

>  <name>  (2109) 
P499753

>  <HIPPO Compound ID>  (2109) 
314360

>  <ref_mols>  (2109) 
A4706a,A0875a

>  <distance_score>  (2109) 
1.221382

>  <inspiration_score>  (2109) 
None

$$$$
P499754
     RDKit          3D

 24 26  0  0  0  0  0  0  0  0999 V2000
   10.9225   14.7963   18.7160 C   0  0  0  0  0  0  0  0  0  0  0  0
   10.0148   15.3943   19.6264 O   0  0  0  0  0  0  0  0  0  0  0  0
    9.7968   14.7139   20.8936 C   0  0  1  0  0  0  0  0  0  0  0  0
   11.0516   14.5921   21.7864 C   0  0  0  0  0  0  0  0  0  0  0  0
   10.6372   15.9071   22.4252 C   0  0  0  0  0  0  0  0  0  0  0  0
    9.1609   15.6357   21.9881 C   0  0  2  0  0  0  0  0  0  0  0  0
    8.3267   15.1757   23.0847 O   0  0  0  0  0  0  0  0  0  0  0  0
    7.3136   14.2974   22.8825 C   0  0  0  0  0  0  0  0  0  0  0  0
    7.0444   13.7499   21.8188 O   0  0  0  0  0  0  0  0  0  0  0  0
    6.5353   13.9731   24.1921 C   0  0  0  0  0  0  0  0  0  0  0  0
    6.7128   12.4886   24.6026 C   0  0  0  0  0  0  0  0  0  0  0  0
    7.5074   12.1481   25.8642 C   0  0  0  0  0  0  0  0  0  0  0  0
    8.2909   13.3032   26.3194 N   0  0  0  0  0  0  0  0  0  0  0  0
    9.6565   13.6736   25.4083 S   0  0  0  0  0  0  0  0  0  0  0  0
    9.4633   13.1252   24.0929 O   0  0  0  0  0  0  0  0  0  0  0  0
    9.9424   15.0650   25.6241 O   0  0  0  0  0  0  0  0  0  0  0  0
   10.8625   12.7553   26.1761 N   0  0  0  0  0  0  0  0  0  0  0  0
   11.5823   11.8291   25.2807 C   0  0  0  0  0  0  0  0  0  0  0  0
   13.0076   12.2699   25.0569 C   0  0  0  0  0  0  0  0  0  0  0  0
   13.8401   12.3716   26.3131 C   0  0  0  0  0  0  0  0  0  0  0  0
   13.0154   12.8535   27.4819 C   0  0  0  0  0  0  0  0  0  0  0  0
   11.7199   13.5631   27.0859 C   0  0  0  0  0  0  0  0  0  0  0  0
    7.3767   14.4337   26.6073 C   0  0  0  0  0  0  0  0  0  0  0  0
    6.7111   14.9760   25.3454 C   0  0  0  0  0  0  0  0  0  0  0  0
  1  2  1  0
  3  2  1  6
  3  4  1  0
  4  5  1  0
  5  6  1  0
  6  7  1  1
  7  8  1  0
  8  9  2  0
  8 10  1  0
 10 11  1  0
 11 12  1  0
 12 13  1  0
 13 14  1  0
 14 15  2  0
 14 16  2  0
 14 17  1  0
 17 18  1  0
 18 19  1  0
 19 20  1  0
 20 21  1  0
 21 22  1  0
 13 23  1  0
 23 24  1  0
  6  3  1  0
 24 10  1  0
 22 17  1  0
M  END
>  <energy_score>  (2110) 
-22.5046

>  <inchikey>  (2110) 
None

>  <smiles>  (2110) 
None

>  <ref_pdb>  (2110) 
A4706a

>  <alias>  (2110) 
None

>  <HIPPO Pose ID>  (2110) 
499754

>  <name>  (2110) 
P499754

>  <HIPPO Compound ID>  (2110) 
314360

>  <ref_mols>  (2110) 
A4706a,A0875a

>  <distance_score>  (2110) 
1.673571

>  <inspiration_score>  (2110) 
None

$$$$
P499755
     RDKit          3D

 24 26  0  0  0  0  0  0  0  0999 V2000
   11.2031   14.9817   18.5318 C   0  0  0  0  0  0  0  0  0  0  0  0
   10.0055   14.8826   19.2707 O   0  0  0  0  0  0  0  0  0  0  0  0
    9.9586   15.5113   20.5581 C   0  0  2  0  0  0  0  0  0  0  0  0
   11.2113   15.3495   21.4475 C   0  0  0  0  0  0  0  0  0  0  0  0
   10.2728   15.1726   22.6199 C   0  0  0  0  0  0  0  0  0  0  0  0
    9.1696   14.7058   21.6458 C   0  0  1  0  0  0  0  0  0  0  0  0
    7.8014   15.1216   21.9286 O   0  0  0  0  0  0  0  0  0  0  0  0
    7.0113   14.1582   22.4880 C   0  0  0  0  0  0  0  0  0  0  0  0
    6.2821   13.4136   21.8467 O   0  0  0  0  0  0  0  0  0  0  0  0
    7.2062   14.0261   23.9741 C   0  0  0  0  0  0  0  0  0  0  0  0
    6.7539   12.6804   24.5673 C   0  0  0  0  0  0  0  0  0  0  0  0
    7.2829   12.4836   25.9897 C   0  0  0  0  0  0  0  0  0  0  0  0
    7.9313   13.7104   26.4652 N   0  0  0  0  0  0  0  0  0  0  0  0
    9.5718   14.0308   26.3370 S   0  0  0  0  0  0  0  0  0  0  0  0
   10.0391   14.2882   27.6696 O   0  0  0  0  0  0  0  0  0  0  0  0
    9.7850   15.0616   25.3614 O   0  0  0  0  0  0  0  0  0  0  0  0
   10.3490   12.6339   25.8114 N   0  0  0  0  0  0  0  0  0  0  0  0
   11.8043   12.6650   26.1240 C   0  0  0  0  0  0  0  0  0  0  0  0
   12.5235   11.4545   25.5330 C   0  0  0  0  0  0  0  0  0  0  0  0
   11.6052   10.2382   25.2386 C   0  0  0  0  0  0  0  0  0  0  0  0
   10.2734   10.5866   24.5796 C   0  0  0  0  0  0  0  0  0  0  0  0
   10.1397   12.0895   24.4538 C   0  0  0  0  0  0  0  0  0  0  0  0
    7.0314   14.8942   26.3363 C   0  0  0  0  0  0  0  0  0  0  0  0
    6.6891   15.1532   24.8561 C   0  0  0  0  0  0  0  0  0  0  0  0
  1  2  1  0
  3  2  1  6
  3  4  1  0
  4  5  1  0
  5  6  1  0
  6  7  1  1
  7  8  1  0
  8  9  2  0
  8 10  1  0
 10 11  1  0
 11 12  1  0
 12 13  1  0
 13 14  1  0
 14 15  2  0
 14 16  2  0
 14 17  1  0
 17 18  1  0
 18 19  1  0
 19 20  1  0
 20 21  1  0
 21 22  1  0
 13 23  1  0
 23 24  1  0
  6  3  1  0
 24 10  1  0
 22 17  1  0
M  END
>  <energy_score>  (2111) 
-12.985076

>  <inchikey>  (2111) 
None

>  <smiles>  (2111) 
None

>  <ref_pdb>  (2111) 
A4706a

>  <alias>  (2111) 
None

>  <HIPPO Pose ID>  (2111) 
499755

>  <name>  (2111) 
P499755

>  <HIPPO Compound ID>  (2111) 
314360

>  <ref_mols>  (2111) 
A4706a,A0875a

>  <distance_score>  (2111) 
1.786327

>  <inspiration_score>  (2111) 
None

$$$$
P499756
     RDKit          3D

 24 26  0  0  0  0  0  0  0  0999 V2000
    5.3763   15.7188   22.1962 O   0  0  0  0  0  0  0  0  0  0  0  0
    6.5367   15.4278   22.4672 C   0  0  0  0  0  0  0  0  0  0  0  0
    7.5693   15.6549   21.5941 O   0  0  0  0  0  0  0  0  0  0  0  0
    8.8097   14.8656   21.4468 C   0  0  2  0  0  0  0  0  0  0  0  0
   10.0195   15.4047   22.2148 C   0  0  0  0  0  0  0  0  0  0  0  0
   10.7288   16.3173   21.3713 O   0  0  0  0  0  0  0  0  0  0  0  0
   10.0728   16.3148   20.1048 C   0  0  0  0  0  0  0  0  0  0  0  0
    9.3347   15.0382   20.0434 C   0  0  1  0  0  0  0  0  0  0  0  0
   10.2429   14.0842   19.7214 F   0  0  0  0  0  0  0  0  0  0  0  0
    6.9009   14.7952   23.7803 C   0  0  0  0  0  0  0  0  0  0  0  0
    6.5597   13.2989   23.8373 C   0  0  0  0  0  0  0  0  0  0  0  0
    6.9397   12.6344   25.1758 C   0  0  0  0  0  0  0  0  0  0  0  0
    7.8866   13.5109   25.9197 N   0  0  0  0  0  0  0  0  0  0  0  0
    9.4082   13.6916   25.1637 S   0  0  0  0  0  0  0  0  0  0  0  0
    9.8531   15.0476   25.3594 O   0  0  0  0  0  0  0  0  0  0  0  0
    9.2985   13.1234   23.8422 O   0  0  0  0  0  0  0  0  0  0  0  0
   10.3859   12.6673   26.0286 N   0  0  0  0  0  0  0  0  0  0  0  0
   10.6255   11.3521   25.3658 C   0  0  0  0  0  0  0  0  0  0  0  0
   12.0973   11.0073   25.4716 C   0  0  0  0  0  0  0  0  0  0  0  0
   12.9013   12.0857   24.8240 C   0  0  0  0  0  0  0  0  0  0  0  0
   12.7572   13.3267   25.6518 C   0  0  0  0  0  0  0  0  0  0  0  0
   11.5795   13.3280   26.6150 C   0  0  0  0  0  0  0  0  0  0  0  0
    7.1836   14.7978   26.2864 C   0  0  0  0  0  0  0  0  0  0  0  0
    6.4411   15.4332   25.0836 C   0  0  0  0  0  0  0  0  0  0  0  0
  1  2  2  0
  2  3  1  0
  4  3  1  6
  4  5  1  0
  5  6  1  0
  6  7  1  0
  7  8  1  0
  8  9  1  1
  2 10  1  0
 10 11  1  0
 11 12  1  0
 12 13  1  0
 13 14  1  0
 14 15  2  0
 14 16  2  0
 14 17  1  0
 17 18  1  0
 18 19  1  0
 19 20  1  0
 20 21  1  0
 21 22  1  0
 13 23  1  0
 23 24  1  0
  8  4  1  0
 24 10  1  0
 22 17  1  0
M  END
>  <energy_score>  (2112) 
-17.246956

>  <inchikey>  (2112) 
None

>  <smiles>  (2112) 
None

>  <ref_pdb>  (2112) 
A4706a

>  <alias>  (2112) 
None

>  <HIPPO Pose ID>  (2112) 
499756

>  <name>  (2112) 
P499756

>  <HIPPO Compound ID>  (2112) 
314362

>  <ref_mols>  (2112) 
A4706a,A0875a

>  <distance_score>  (2112) 
1.832032

>  <inspiration_score>  (2112) 
None

$$$$
P499757
     RDKit          3D

 24 26  0  0  0  0  0  0  0  0999 V2000
    6.6848   13.3306   21.9134 O   0  0  0  0  0  0  0  0  0  0  0  0
    7.0167   14.2443   22.6688 C   0  0  0  0  0  0  0  0  0  0  0  0
    8.1142   15.0431   22.4571 O   0  0  0  0  0  0  0  0  0  0  0  0
    9.0956   14.5830   21.4651 C   0  0  2  0  0  0  0  0  0  0  0  0
   10.3575   14.0174   22.1209 C   0  0  0  0  0  0  0  0  0  0  0  0
   11.4725   14.2897   21.2919 O   0  0  0  0  0  0  0  0  0  0  0  0
   11.1811   15.5541   20.7170 C   0  0  0  0  0  0  0  0  0  0  0  0
    9.6782   15.6580   20.5568 C   0  0  1  0  0  0  0  0  0  0  0  0
    9.4184   15.3262   19.2521 F   0  0  0  0  0  0  0  0  0  0  0  0
    6.2076   14.5114   23.9756 C   0  0  0  0  0  0  0  0  0  0  0  0
    5.7475   13.1864   24.6524 C   0  0  0  0  0  0  0  0  0  0  0  0
    6.6746   12.5210   25.6938 C   0  0  0  0  0  0  0  0  0  0  0  0
    7.7708   13.4330   26.1217 N   0  0  0  0  0  0  0  0  0  0  0  0
    9.1068   13.4151   25.0981 S   0  0  0  0  0  0  0  0  0  0  0  0
    8.6452   12.7470   23.9077 O   0  0  0  0  0  0  0  0  0  0  0  0
    9.6671   14.7441   25.0812 O   0  0  0  0  0  0  0  0  0  0  0  0
   10.2185   12.3640   25.8080 N   0  0  0  0  0  0  0  0  0  0  0  0
   10.3428   11.0949   25.0062 C   0  0  0  0  0  0  0  0  0  0  0  0
   11.6057   10.3049   25.2817 C   0  0  0  0  0  0  0  0  0  0  0  0
   12.8863   11.1740   25.4156 C   0  0  0  0  0  0  0  0  0  0  0  0
   12.6007   12.6498   25.2227 C   0  0  0  0  0  0  0  0  0  0  0  0
   11.4995   13.0188   26.1943 C   0  0  0  0  0  0  0  0  0  0  0  0
    7.2018   14.7899   26.3514 C   0  0  0  0  0  0  0  0  0  0  0  0
    6.7865   15.4589   25.0318 C   0  0  0  0  0  0  0  0  0  0  0  0
  1  2  2  0
  2  3  1  0
  4  3  1  1
  4  5  1  0
  5  6  1  0
  6  7  1  0
  7  8  1  0
  8  9  1  6
  2 10  1  0
 10 11  1  0
 11 12  1  0
 12 13  1  0
 13 14  1  0
 14 15  2  0
 14 16  2  0
 14 17  1  0
 17 18  1  0
 18 19  1  0
 19 20  1  0
 20 21  1  0
 21 22  1  0
 13 23  1  0
 23 24  1  0
  8  4  1  0
 24 10  1  0
 22 17  1  0
M  END
>  <energy_score>  (2113) 
-14.380543

>  <inchikey>  (2113) 
None

>  <smiles>  (2113) 
None

>  <ref_pdb>  (2113) 
A4706a

>  <alias>  (2113) 
None

>  <HIPPO Pose ID>  (2113) 
499757

>  <name>  (2113) 
P499757

>  <HIPPO Compound ID>  (2113) 
314362

>  <ref_mols>  (2113) 
A4706a,A0875a

>  <distance_score>  (2113) 
1.640329

>  <inspiration_score>  (2113) 
None

$$$$
P499758
     RDKit          3D

 24 26  0  0  0  0  0  0  0  0999 V2000
    6.7277   14.0661   21.1504 O   0  0  0  0  0  0  0  0  0  0  0  0
    7.2819   14.3775   22.1930 C   0  0  0  0  0  0  0  0  0  0  0  0
    8.3473   15.2104   22.2617 O   0  0  0  0  0  0  0  0  0  0  0  0
    9.4684   14.7608   21.4835 C   0  0  2  0  0  0  0  0  0  0  0  0
   10.7474   14.9245   22.3001 C   0  0  0  0  0  0  0  0  0  0  0  0
   11.8492   14.9995   21.3948 O   0  0  0  0  0  0  0  0  0  0  0  0
   11.2825   15.0553   20.0891 C   0  0  0  0  0  0  0  0  0  0  0  0
    9.8648   15.5374   20.2464 C   0  0  1  0  0  0  0  0  0  0  0  0
    9.1958   15.1753   19.1378 F   0  0  0  0  0  0  0  0  0  0  0  0
    6.8661   13.7441   23.5071 C   0  0  0  0  0  0  0  0  0  0  0  0
    7.8990   12.6401   23.7752 C   0  0  0  0  0  0  0  0  0  0  0  0
    7.8213   12.0592   25.1620 C   0  0  0  0  0  0  0  0  0  0  0  0
    7.9652   13.1554   26.1097 N   0  0  0  0  0  0  0  0  0  0  0  0
    9.4008   14.0379   26.1844 S   0  0  0  0  0  0  0  0  0  0  0  0
    9.6548   14.7201   24.9422 O   0  0  0  0  0  0  0  0  0  0  0  0
    9.2696   14.7898   27.4012 O   0  0  0  0  0  0  0  0  0  0  0  0
   10.6515   12.9025   26.4053 N   0  0  0  0  0  0  0  0  0  0  0  0
   11.1098   12.1858   25.1861 C   0  0  0  0  0  0  0  0  0  0  0  0
   12.4236   12.7515   24.6985 C   0  0  0  0  0  0  0  0  0  0  0  0
   13.5258   12.4000   25.6754 C   0  0  0  0  0  0  0  0  0  0  0  0
   13.0721   12.7230   27.0935 C   0  0  0  0  0  0  0  0  0  0  0  0
   11.7932   13.5659   27.1319 C   0  0  0  0  0  0  0  0  0  0  0  0
    6.7561   14.0428   26.0350 C   0  0  0  0  0  0  0  0  0  0  0  0
    6.6690   14.7269   24.6663 C   0  0  0  0  0  0  0  0  0  0  0  0
  1  2  2  0
  2  3  1  0
  4  3  1  1
  4  5  1  0
  5  6  1  0
  6  7  1  0
  7  8  1  0
  8  9  1  6
  2 10  1  0
 10 11  1  0
 11 12  1  0
 12 13  1  0
 13 14  1  0
 14 15  2  0
 14 16  2  0
 14 17  1  0
 17 18  1  0
 18 19  1  0
 19 20  1  0
 20 21  1  0
 21 22  1  0
 13 23  1  0
 23 24  1  0
  8  4  1  0
 24 10  1  0
 22 17  1  0
M  END
>  <energy_score>  (2114) 
-24.280357

>  <inchikey>  (2114) 
None

>  <smiles>  (2114) 
None

>  <ref_pdb>  (2114) 
A4706a

>  <alias>  (2114) 
None

>  <HIPPO Pose ID>  (2114) 
499758

>  <name>  (2114) 
P499758

>  <HIPPO Compound ID>  (2114) 
314362

>  <ref_mols>  (2114) 
A4706a,A0875a

>  <distance_score>  (2114) 
1.770609

>  <inspiration_score>  (2114) 
None

$$$$
P499759
     RDKit          3D

 24 26  0  0  0  0  0  0  0  0999 V2000
    6.8427   14.1658   21.5994 O   0  0  0  0  0  0  0  0  0  0  0  0
    7.1575   14.7493   22.6308 C   0  0  0  0  0  0  0  0  0  0  0  0
    8.3021   15.4567   22.7927 O   0  0  0  0  0  0  0  0  0  0  0  0
    9.2833   15.7147   21.7325 C   0  0  1  0  0  0  0  0  0  0  0  0
   10.6431   16.0137   22.3758 C   0  0  0  0  0  0  0  0  0  0  0  0
   11.4559   14.8436   22.3871 O   0  0  0  0  0  0  0  0  0  0  0  0
   10.9401   13.9890   21.3780 C   0  0  0  0  0  0  0  0  0  0  0  0
    9.6805   14.5964   20.7948 C   0  0  2  0  0  0  0  0  0  0  0  0
   10.0065   15.1207   19.5710 F   0  0  0  0  0  0  0  0  0  0  0  0
    6.2600   14.7102   23.9017 C   0  0  0  0  0  0  0  0  0  0  0  0
    5.8104   13.2775   24.2627 C   0  0  0  0  0  0  0  0  0  0  0  0
    6.7567   12.4391   25.1385 C   0  0  0  0  0  0  0  0  0  0  0  0
    7.7975   13.2788   25.7732 N   0  0  0  0  0  0  0  0  0  0  0  0
    9.2123   13.4861   24.8704 S   0  0  0  0  0  0  0  0  0  0  0  0
    9.6800   14.8289   25.0980 O   0  0  0  0  0  0  0  0  0  0  0  0
    8.9357   12.9533   23.5587 O   0  0  0  0  0  0  0  0  0  0  0  0
   10.2617   12.4141   25.6401 N   0  0  0  0  0  0  0  0  0  0  0  0
   11.5419   13.0349   26.0557 C   0  0  0  0  0  0  0  0  0  0  0  0
   12.6533   12.5996   25.1340 C   0  0  0  0  0  0  0  0  0  0  0  0
   12.8828   11.1306   25.4073 C   0  0  0  0  0  0  0  0  0  0  0  0
   11.5821   10.2898   25.2648 C   0  0  0  0  0  0  0  0  0  0  0  0
   10.3243   11.0872   24.9619 C   0  0  0  0  0  0  0  0  0  0  0  0
    7.2013   14.5265   26.3048 C   0  0  0  0  0  0  0  0  0  0  0  0
    6.7331   15.4425   25.1690 C   0  0  0  0  0  0  0  0  0  0  0  0
  1  2  2  0
  2  3  1  0
  4  3  1  1
  4  5  1  0
  5  6  1  0
  6  7  1  0
  7  8  1  0
  8  9  1  6
  2 10  1  0
 10 11  1  0
 11 12  1  0
 12 13  1  0
 13 14  1  0
 14 15  2  0
 14 16  2  0
 14 17  1  0
 17 18  1  0
 18 19  1  0
 19 20  1  0
 20 21  1  0
 21 22  1  0
 13 23  1  0
 23 24  1  0
  8  4  1  0
 24 10  1  0
 22 17  1  0
M  END
>  <energy_score>  (2115) 
-45.830399

>  <inchikey>  (2115) 
None

>  <smiles>  (2115) 
None

>  <ref_pdb>  (2115) 
A4706a

>  <alias>  (2115) 
None

>  <HIPPO Pose ID>  (2115) 
499759

>  <name>  (2115) 
P499759

>  <HIPPO Compound ID>  (2115) 
314362

>  <ref_mols>  (2115) 
A4706a,A0875a

>  <distance_score>  (2115) 
1.651583

>  <inspiration_score>  (2115) 
None

$$$$
P499760
     RDKit          3D

 24 26  0  0  0  0  0  0  0  0999 V2000
   10.1795   15.8195   19.1198 C   0  0  0  0  0  0  0  0  0  0  0  0
   10.2007   14.9725   20.3503 C   0  0  2  0  0  0  0  0  0  0  0  0
    8.8648   14.9323   21.0483 C   0  0  0  0  0  0  0  0  0  0  0  0
    9.2925   14.2770   22.3263 C   0  0  2  0  0  0  0  0  0  0  0  0
    8.3150   14.3457   23.3538 O   0  0  0  0  0  0  0  0  0  0  0  0
    7.2811   13.4859   23.2006 C   0  0  0  0  0  0  0  0  0  0  0  0
    6.9096   13.0151   22.1305 O   0  0  0  0  0  0  0  0  0  0  0  0
    6.6486   13.0343   24.4979 C   0  0  0  0  0  0  0  0  0  0  0  0
    7.4179   11.7991   25.0098 C   0  0  0  0  0  0  0  0  0  0  0  0
    8.4127   12.1378   26.1202 C   0  0  0  0  0  0  0  0  0  0  0  0
    8.9618   13.4637   25.8364 N   0  0  0  0  0  0  0  0  0  0  0  0
   10.4228   14.0031   26.4448 S   0  0  0  0  0  0  0  0  0  0  0  0
   10.8645   15.0675   25.5774 O   0  0  0  0  0  0  0  0  0  0  0  0
   10.1812   14.2392   27.8468 O   0  0  0  0  0  0  0  0  0  0  0  0
   11.5854   12.7593   26.3719 N   0  0  0  0  0  0  0  0  0  0  0  0
   12.7573   13.0443   27.2868 C   0  0  0  0  0  0  0  0  0  0  0  0
   14.1387   12.8348   26.6723 C   0  0  0  0  0  0  0  0  0  0  0  0
   14.2668   11.4708   26.1001 C   0  0  0  0  0  0  0  0  0  0  0  0
   13.1096   11.2582   25.1603 C   0  0  0  0  0  0  0  0  0  0  0  0
   12.0337   12.3604   25.0375 C   0  0  0  0  0  0  0  0  0  0  0  0
    7.9079   14.5288   26.0952 C   0  0  0  0  0  0  0  0  0  0  0  0
    6.5498   14.1356   25.5350 C   0  0  0  0  0  0  0  0  0  0  0  0
   10.5747   15.0541   22.6139 C   0  0  0  0  0  0  0  0  0  0  0  0
   11.1280   15.4333   21.3388 O   0  0  0  0  0  0  0  0  0  0  0  0
  2  1  1  6
  2  3  1  0
  3  4  1  0
  4  5  1  1
  5  6  1  0
  6  7  2  0
  6  8  1  0
  8  9  1  0
  9 10  1  0
 10 11  1  0
 11 12  1  0
 12 13  2  0
 12 14  2  0
 12 15  1  0
 15 16  1  0
 16 17  1  0
 17 18  1  0
 18 19  1  0
 19 20  1  0
 11 21  1  0
 21 22  1  0
  4 23  1  0
 23 24  1  0
 24  2  1  0
 22  8  1  0
 20 15  1  0
M  END
>  <energy_score>  (2116) 
-40.811606

>  <inchikey>  (2116) 
None

>  <smiles>  (2116) 
None

>  <ref_pdb>  (2116) 
A4706a

>  <alias>  (2116) 
None

>  <HIPPO Pose ID>  (2116) 
499760

>  <name>  (2116) 
P499760

>  <HIPPO Compound ID>  (2116) 
314363

>  <ref_mols>  (2116) 
A4706a,A0875a

>  <distance_score>  (2116) 
1.447994

>  <inspiration_score>  (2116) 
None

$$$$
P499761
     RDKit          3D

 24 26  0  0  0  0  0  0  0  0999 V2000
   10.7547   15.1400   19.1613 C   0  0  0  0  0  0  0  0  0  0  0  0
    9.8664   15.6843   20.2633 C   0  0  1  0  0  0  0  0  0  0  0  0
    8.8186   14.6745   20.6468 C   0  0  0  0  0  0  0  0  0  0  0  0
    8.4961   14.9542   22.0680 C   0  0  2  0  0  0  0  0  0  0  0  0
    7.3994   15.9020   22.2000 O   0  0  0  0  0  0  0  0  0  0  0  0
    6.3388   15.6861   23.0638 C   0  0  0  0  0  0  0  0  0  0  0  0
    5.2116   16.1209   22.8542 O   0  0  0  0  0  0  0  0  0  0  0  0
    6.6535   14.8491   24.2892 C   0  0  0  0  0  0  0  0  0  0  0  0
    6.1350   13.4021   24.2221 C   0  0  0  0  0  0  0  0  0  0  0  0
    6.6059   12.5320   25.4083 C   0  0  0  0  0  0  0  0  0  0  0  0
    7.7065   13.2129   26.1538 N   0  0  0  0  0  0  0  0  0  0  0  0
    9.1596   13.3476   25.2686 S   0  0  0  0  0  0  0  0  0  0  0  0
    8.9380   12.7525   23.9749 O   0  0  0  0  0  0  0  0  0  0  0  0
    9.6196   14.7069   25.4130 O   0  0  0  0  0  0  0  0  0  0  0  0
   10.2534   12.3735   26.0480 N   0  0  0  0  0  0  0  0  0  0  0  0
   11.0332   13.1268   27.0221 C   0  0  0  0  0  0  0  0  0  0  0  0
   12.1767   13.8750   26.4268 C   0  0  0  0  0  0  0  0  0  0  0  0
   12.9289   13.1098   25.3431 C   0  0  0  0  0  0  0  0  0  0  0  0
   12.5841   11.6507   25.4449 C   0  0  0  0  0  0  0  0  0  0  0  0
   11.0850   11.5055   25.1571 C   0  0  0  0  0  0  0  0  0  0  0  0
    7.1710   14.5088   26.7363 C   0  0  0  0  0  0  0  0  0  0  0  0
    6.4109   15.3775   25.6931 C   0  0  0  0  0  0  0  0  0  0  0  0
    9.8869   15.3709   22.5520 C   0  0  0  0  0  0  0  0  0  0  0  0
   10.6262   15.9208   21.4497 O   0  0  0  0  0  0  0  0  0  0  0  0
  2  1  1  6
  2  3  1  0
  3  4  1  0
  4  5  1  6
  5  6  1  0
  6  7  2  0
  6  8  1  0
  8  9  1  0
  9 10  1  0
 10 11  1  0
 11 12  1  0
 12 13  2  0
 12 14  2  0
 12 15  1  0
 15 16  1  0
 16 17  1  0
 17 18  1  0
 18 19  1  0
 19 20  1  0
 11 21  1  0
 21 22  1  0
  4 23  1  0
 23 24  1  0
 24  2  1  0
 22  8  1  0
 20 15  1  0
M  END
>  <energy_score>  (2117) 
-0.010654

>  <inchikey>  (2117) 
None

>  <smiles>  (2117) 
None

>  <ref_pdb>  (2117) 
A4706a

>  <alias>  (2117) 
None

>  <HIPPO Pose ID>  (2117) 
499761

>  <name>  (2117) 
P499761

>  <HIPPO Compound ID>  (2117) 
314363

>  <ref_mols>  (2117) 
A4706a,A0875a

>  <distance_score>  (2117) 
1.91028

>  <inspiration_score>  (2117) 
None

$$$$
P499762
     RDKit          3D

 24 26  0  0  0  0  0  0  0  0999 V2000
   10.0516   15.7017   19.1600 C   0  0  0  0  0  0  0  0  0  0  0  0
   10.0290   14.7431   20.3265 C   0  0  2  0  0  0  0  0  0  0  0  0
    8.6751   14.5839   20.9778 C   0  0  0  0  0  0  0  0  0  0  0  0
    8.5727   15.7713   21.8962 C   0  0  1  0  0  0  0  0  0  0  0  0
    7.8729   15.4216   23.1039 O   0  0  0  0  0  0  0  0  0  0  0  0
    6.5735   15.0419   23.0550 C   0  0  0  0  0  0  0  0  0  0  0  0
    5.8529   15.0878   22.0671 O   0  0  0  0  0  0  0  0  0  0  0  0
    6.1260   14.4310   24.3850 C   0  0  0  0  0  0  0  0  0  0  0  0
    6.6649   12.9868   24.4011 C   0  0  0  0  0  0  0  0  0  0  0  0
    6.9589   12.4146   25.7698 C   0  0  0  0  0  0  0  0  0  0  0  0
    7.7081   13.3708   26.5835 N   0  0  0  0  0  0  0  0  0  0  0  0
    9.2963   13.8345   26.2478 S   0  0  0  0  0  0  0  0  0  0  0  0
    9.7969   14.3890   27.4833 O   0  0  0  0  0  0  0  0  0  0  0  0
    9.3217   14.6500   25.0667 O   0  0  0  0  0  0  0  0  0  0  0  0
   10.1892   12.4209   25.9542 N   0  0  0  0  0  0  0  0  0  0  0  0
   11.6511   12.6359   26.1928 C   0  0  0  0  0  0  0  0  0  0  0  0
   12.2386   13.5634   25.1593 C   0  0  0  0  0  0  0  0  0  0  0  0
   11.9483   13.1060   23.7526 C   0  0  0  0  0  0  0  0  0  0  0  0
   10.5578   12.5533   23.5049 C   0  0  0  0  0  0  0  0  0  0  0  0
   10.0296   11.7207   24.6531 C   0  0  0  0  0  0  0  0  0  0  0  0
    6.8200   14.5346   26.8778 C   0  0  0  0  0  0  0  0  0  0  0  0
    6.4798   15.3049   25.6014 C   0  0  0  0  0  0  0  0  0  0  0  0
   10.0580   16.0763   22.1631 C   0  0  0  0  0  0  0  0  0  0  0  0
   10.8668   15.1939   21.3781 O   0  0  0  0  0  0  0  0  0  0  0  0
  2  1  1  6
  2  3  1  0
  3  4  1  0
  4  5  1  1
  5  6  1  0
  6  7  2  0
  6  8  1  0
  8  9  1  0
  9 10  1  0
 10 11  1  0
 11 12  1  0
 12 13  2  0
 12 14  2  0
 12 15  1  0
 15 16  1  0
 16 17  1  0
 17 18  1  0
 18 19  1  0
 19 20  1  0
 11 21  1  0
 21 22  1  0
  4 23  1  0
 23 24  1  0
 24  2  1  0
 22  8  1  0
 20 15  1  0
M  END
>  <energy_score>  (2118) 
-37.568599

>  <inchikey>  (2118) 
None

>  <smiles>  (2118) 
None

>  <ref_pdb>  (2118) 
A4706a

>  <alias>  (2118) 
None

>  <HIPPO Pose ID>  (2118) 
499762

>  <name>  (2118) 
P499762

>  <HIPPO Compound ID>  (2118) 
314363

>  <ref_mols>  (2118) 
A0875a,A4706a

>  <distance_score>  (2118) 
1.664334

>  <inspiration_score>  (2118) 
None

$$$$
P499763
     RDKit          3D

 24 26  0  0  0  0  0  0  0  0999 V2000
   10.8542   14.8064   19.0909 C   0  0  0  0  0  0  0  0  0  0  0  0
   10.1028   15.4952   20.2001 C   0  0  1  0  0  0  0  0  0  0  0  0
    8.9767   14.7123   20.8704 C   0  0  0  0  0  0  0  0  0  0  0  0
    8.8658   15.4809   22.1597 C   0  0  1  0  0  0  0  0  0  0  0  0
    8.0529   15.0060   23.2497 O   0  0  0  0  0  0  0  0  0  0  0  0
    7.1184   14.0297   23.1835 C   0  0  0  0  0  0  0  0  0  0  0  0
    6.8349   13.3695   22.1886 O   0  0  0  0  0  0  0  0  0  0  0  0
    6.4227   13.7948   24.5503 C   0  0  0  0  0  0  0  0  0  0  0  0
    6.5838   12.3398   25.0430 C   0  0  0  0  0  0  0  0  0  0  0  0
    7.6204   12.0620   26.1369 C   0  0  0  0  0  0  0  0  0  0  0  0
    8.4915   13.2309   26.3903 N   0  0  0  0  0  0  0  0  0  0  0  0
    9.6884   13.5022   25.2495 S   0  0  0  0  0  0  0  0  0  0  0  0
    9.9639   14.9161   25.1970 O   0  0  0  0  0  0  0  0  0  0  0  0
    9.3237   12.7274   24.0879 O   0  0  0  0  0  0  0  0  0  0  0  0
   11.0910   12.7753   25.8572 N   0  0  0  0  0  0  0  0  0  0  0  0
   11.7351   13.5229   26.9675 C   0  0  0  0  0  0  0  0  0  0  0  0
   13.0370   12.8322   27.4211 C   0  0  0  0  0  0  0  0  0  0  0  0
   13.9521   12.3242   26.3165 C   0  0  0  0  0  0  0  0  0  0  0  0
   13.1476   11.6671   25.2242 C   0  0  0  0  0  0  0  0  0  0  0  0
   12.0777   12.6321   24.7466 C   0  0  0  0  0  0  0  0  0  0  0  0
    7.6622   14.4026   26.7590 C   0  0  0  0  0  0  0  0  0  0  0  0
    6.7096   14.8358   25.6446 C   0  0  0  0  0  0  0  0  0  0  0  0
   10.3649   15.5213   22.4812 C   0  0  0  0  0  0  0  0  0  0  0  0
   11.0367   15.8072   21.2504 O   0  0  0  0  0  0  0  0  0  0  0  0
  2  1  1  6
  2  3  1  0
  3  4  1  0
  4  5  1  1
  5  6  1  0
  6  7  2  0
  6  8  1  0
  8  9  1  0
  9 10  1  0
 10 11  1  0
 11 12  1  0
 12 13  2  0
 12 14  2  0
 12 15  1  0
 15 16  1  0
 16 17  1  0
 17 18  1  0
 18 19  1  0
 19 20  1  0
 11 21  1  0
 21 22  1  0
  4 23  1  0
 23 24  1  0
 24  2  1  0
 22  8  1  0
 20 15  1  0
M  END
>  <energy_score>  (2119) 
-41.413716

>  <inchikey>  (2119) 
None

>  <smiles>  (2119) 
None

>  <ref_pdb>  (2119) 
A4706a

>  <alias>  (2119) 
None

>  <HIPPO Pose ID>  (2119) 
499763

>  <name>  (2119) 
P499763

>  <HIPPO Compound ID>  (2119) 
314363

>  <ref_mols>  (2119) 
A4706a,A0875a

>  <distance_score>  (2119) 
1.459339

>  <inspiration_score>  (2119) 
None

$$$$
P499764
     RDKit          3D

 24 26  0  0  0  0  0  0  0  0999 V2000
    6.7242   13.2858   21.9786 O   0  0  0  0  0  0  0  0  0  0  0  0
    6.9257   14.2261   22.7460 C   0  0  0  0  0  0  0  0  0  0  0  0
    7.8646   15.1920   22.5227 O   0  0  0  0  0  0  0  0  0  0  0  0
    8.7473   15.0108   21.3990 C   0  0  2  0  0  0  0  0  0  0  0  0
   10.0265   14.2671   21.7578 C   0  0  0  0  0  0  0  0  0  0  0  0
   10.9505   14.6034   20.6286 C   0  0  0  0  0  0  0  0  0  0  0  0
   10.6615   15.9523   20.3493 O   0  0  0  0  0  0  0  0  0  0  0  0
    9.3898   16.2400   20.7491 C   0  0  0  0  0  0  0  0  0  0  0  0
    8.8844   17.3236   20.5285 O   0  0  0  0  0  0  0  0  0  0  0  0
    6.1181   14.3708   24.0691 C   0  0  0  0  0  0  0  0  0  0  0  0
    5.8880   13.0012   24.7665 C   0  0  0  0  0  0  0  0  0  0  0  0
    6.8901   12.5469   25.8425 C   0  0  0  0  0  0  0  0  0  0  0  0
    7.9138   13.5856   26.1091 N   0  0  0  0  0  0  0  0  0  0  0  0
    9.1710   13.6298   24.9907 S   0  0  0  0  0  0  0  0  0  0  0  0
    8.7929   12.7295   23.9292 O   0  0  0  0  0  0  0  0  0  0  0  0
    9.5097   15.0116   24.7609 O   0  0  0  0  0  0  0  0  0  0  0  0
   10.4614   12.9152   25.8002 N   0  0  0  0  0  0  0  0  0  0  0  0
   11.6669   13.7867   25.8857 C   0  0  0  0  0  0  0  0  0  0  0  0
   12.6254   13.4055   24.7588 C   0  0  0  0  0  0  0  0  0  0  0  0
   13.2664   12.0812   25.1070 C   0  0  0  0  0  0  0  0  0  0  0  0
   12.2078   11.1808   25.6577 C   0  0  0  0  0  0  0  0  0  0  0  0
   10.7766   11.5546   25.2784 C   0  0  0  0  0  0  0  0  0  0  0  0
    7.2427   14.8851   26.3525 C   0  0  0  0  0  0  0  0  0  0  0  0
    6.5686   15.4279   25.0861 C   0  0  0  0  0  0  0  0  0  0  0  0
  1  2  2  0
  2  3  1  0
  4  3  1  1
  4  5  1  0
  5  6  1  0
  6  7  1  0
  7  8  1  0
  8  9  2  0
  2 10  1  0
 10 11  1  0
 11 12  1  0
 12 13  1  0
 13 14  1  0
 14 15  2  0
 14 16  2  0
 14 17  1  0
 17 18  1  0
 18 19  1  0
 19 20  1  0
 20 21  1  0
 21 22  1  0
 13 23  1  0
 23 24  1  0
  8  4  1  0
 24 10  1  0
 22 17  1  0
M  END
>  <energy_score>  (2120) 
-31.613015

>  <inchikey>  (2120) 
None

>  <smiles>  (2120) 
None

>  <ref_pdb>  (2120) 
A4706a

>  <alias>  (2120) 
None

>  <HIPPO Pose ID>  (2120) 
499764

>  <name>  (2120) 
P499764

>  <HIPPO Compound ID>  (2120) 
314364

>  <ref_mols>  (2120) 
A0875a,A4706a

>  <distance_score>  (2120) 
1.510897

>  <inspiration_score>  (2120) 
None

$$$$
P499765
     RDKit          3D

 24 26  0  0  0  0  0  0  0  0999 V2000
    7.2838   13.9298   21.5852 O   0  0  0  0  0  0  0  0  0  0  0  0
    7.4072   14.6829   22.5426 C   0  0  0  0  0  0  0  0  0  0  0  0
    8.3586   15.6372   22.6555 O   0  0  0  0  0  0  0  0  0  0  0  0
    9.3525   15.9395   21.6670 C   0  0  1  0  0  0  0  0  0  0  0  0
   10.7212   15.8916   22.3411 C   0  0  0  0  0  0  0  0  0  0  0  0
   11.4009   14.6862   21.7680 C   0  0  0  0  0  0  0  0  0  0  0  0
   10.8663   14.5157   20.4739 O   0  0  0  0  0  0  0  0  0  0  0  0
    9.7656   15.2996   20.3294 C   0  0  0  0  0  0  0  0  0  0  0  0
    9.3067   15.5606   19.2310 O   0  0  0  0  0  0  0  0  0  0  0  0
    6.4481   14.6462   23.7798 C   0  0  0  0  0  0  0  0  0  0  0  0
    6.0221   13.2201   24.1789 C   0  0  0  0  0  0  0  0  0  0  0  0
    7.0477   12.4005   24.9842 C   0  0  0  0  0  0  0  0  0  0  0  0
    7.9588   13.2774   25.7787 N   0  0  0  0  0  0  0  0  0  0  0  0
    9.4377   13.6306   25.0481 S   0  0  0  0  0  0  0  0  0  0  0  0
    9.3164   13.3001   23.6540 O   0  0  0  0  0  0  0  0  0  0  0  0
    9.8634   14.9415   25.4745 O   0  0  0  0  0  0  0  0  0  0  0  0
   10.5307   12.4956   25.7091 N   0  0  0  0  0  0  0  0  0  0  0  0
   10.4826   11.2090   24.9459 C   0  0  0  0  0  0  0  0  0  0  0  0
   11.6450   10.2746   25.2438 C   0  0  0  0  0  0  0  0  0  0  0  0
   13.0144   10.9926   25.3779 C   0  0  0  0  0  0  0  0  0  0  0  0
   12.9413   12.1802   26.3061 C   0  0  0  0  0  0  0  0  0  0  0  0
   11.8800   13.1305   25.8012 C   0  0  0  0  0  0  0  0  0  0  0  0
    7.2173   14.4802   26.2485 C   0  0  0  0  0  0  0  0  0  0  0  0
    6.8563   15.3940   25.0659 C   0  0  0  0  0  0  0  0  0  0  0  0
  1  2  2  0
  2  3  1  0
  4  3  1  1
  4  5  1  0
  5  6  1  0
  6  7  1  0
  7  8  1  0
  8  9  2  0
  2 10  1  0
 10 11  1  0
 11 12  1  0
 12 13  1  0
 13 14  1  0
 14 15  2  0
 14 16  2  0
 14 17  1  0
 17 18  1  0
 18 19  1  0
 19 20  1  0
 20 21  1  0
 21 22  1  0
 13 23  1  0
 23 24  1  0
  8  4  1  0
 24 10  1  0
 22 17  1  0
M  END
>  <energy_score>  (2121) 
-27.022074

>  <inchikey>  (2121) 
None

>  <smiles>  (2121) 
None

>  <ref_pdb>  (2121) 
A4706a

>  <alias>  (2121) 
None

>  <HIPPO Pose ID>  (2121) 
499765

>  <name>  (2121) 
P499765

>  <HIPPO Compound ID>  (2121) 
314364

>  <ref_mols>  (2121) 
A4706a,A0875a

>  <distance_score>  (2121) 
1.454968

>  <inspiration_score>  (2121) 
None

$$$$
P499766
     RDKit          3D

 24 26  0  0  0  0  0  0  0  0999 V2000
   16.3244   11.4614   27.3504 C   0  0  0  0  0  0  0  0  0  0  0  0
   14.9375   11.7435   27.8892 C   0  0  2  0  0  0  0  0  0  0  0  0
   14.2517   12.6441   26.9938 O   0  0  0  0  0  0  0  0  0  0  0  0
   13.3727   12.1153   26.0875 C   0  0  0  0  0  0  0  0  0  0  0  0
   13.1851   10.9238   25.8838 O   0  0  0  0  0  0  0  0  0  0  0  0
   12.6511   13.2500   25.3825 C   0  0  0  0  0  0  0  0  0  0  0  0
   11.7675   13.9941   26.3776 C   0  0  0  0  0  0  0  0  0  0  0  0
   10.4691   13.2617   26.6199 C   0  0  0  0  0  0  0  0  0  0  0  0
    9.8045   12.9224   25.3608 N   0  0  0  0  0  0  0  0  0  0  0  0
    8.7542   14.0781   24.7681 S   0  0  0  0  0  0  0  0  0  0  0  0
    8.5671   13.9044   23.3522 O   0  0  0  0  0  0  0  0  0  0  0  0
    9.1363   15.3361   25.3574 O   0  0  0  0  0  0  0  0  0  0  0  0
    7.4077   13.5167   25.5643 N   0  0  0  0  0  0  0  0  0  0  0  0
    6.8587   12.2040   25.1958 C   0  0  0  0  0  0  0  0  0  0  0  0
    6.2774   11.6002   26.4690 C   0  0  0  0  0  0  0  0  0  0  0  0
    5.2328   12.5279   27.0935 C   0  0  0  0  0  0  0  0  0  0  0  0
    5.7582   13.9569   27.2573 C   0  0  0  0  0  0  0  0  0  0  0  0
    6.3716   14.4801   25.9589 C   0  0  0  0  0  0  0  0  0  0  0  0
   10.5978   12.1398   24.4243 C   0  0  0  0  0  0  0  0  0  0  0  0
   11.8553   12.9210   24.1301 C   0  0  0  0  0  0  0  0  0  0  0  0
   15.0249   12.3793   29.2748 C   0  0  2  0  0  0  0  0  0  0  0  0
   15.3730   11.4525   30.4504 C   0  0  0  0  0  0  0  0  0  0  0  0
   14.0879   11.9869   31.0740 C   0  0  0  0  0  0  0  0  0  0  0  0
   13.6961   12.6076   29.8238 O   0  0  0  0  0  0  0  0  0  0  0  0
  2  1  1  6
  2  3  1  0
  3  4  1  0
  4  5  2  0
  4  6  1  0
  6  7  1  0
  7  8  1  0
  8  9  1  0
  9 10  1  0
 10 11  2  0
 10 12  2  0
 10 13  1  0
 13 14  1  0
 14 15  1  0
 15 16  1  0
 16 17  1  0
 17 18  1  0
  9 19  1  0
 19 20  1  0
  2 21  1  0
 21 22  1  1
 22 23  1  0
 23 24  1  0
 20  6  1  0
 24 21  1  0
 18 13  1  0
M  END
>  <energy_score>  (2122) 
-71.882376

>  <inchikey>  (2122) 
None

>  <smiles>  (2122) 
None

>  <ref_pdb>  (2122) 
A4706a

>  <alias>  (2122) 
None

>  <HIPPO Pose ID>  (2122) 
499766

>  <name>  (2122) 
P499766

>  <HIPPO Compound ID>  (2122) 
314366

>  <ref_mols>  (2122) 
A0875a,A4706a

>  <distance_score>  (2122) 
1.844122

>  <inspiration_score>  (2122) 
None

$$$$
P499767
     RDKit          3D

 24 26  0  0  0  0  0  0  0  0999 V2000
   16.9070   10.5048   28.5358 C   0  0  0  0  0  0  0  0  0  0  0  0
   16.5833   11.9769   28.3154 C   0  0  1  0  0  0  0  0  0  0  0  0
   15.2335   12.2050   27.8537 O   0  0  0  0  0  0  0  0  0  0  0  0
   14.8614   11.7973   26.6184 C   0  0  0  0  0  0  0  0  0  0  0  0
   15.4476   10.9769   25.9294 O   0  0  0  0  0  0  0  0  0  0  0  0
   13.6331   12.5600   26.1429 C   0  0  0  0  0  0  0  0  0  0  0  0
   12.7556   13.0335   27.2778 C   0  0  0  0  0  0  0  0  0  0  0  0
   11.3124   13.3529   26.9085 C   0  0  0  0  0  0  0  0  0  0  0  0
   11.0759   13.5203   25.4805 N   0  0  0  0  0  0  0  0  0  0  0  0
    9.6699   14.3258   25.0595 S   0  0  0  0  0  0  0  0  0  0  0  0
    9.5272   14.3540   23.6274 O   0  0  0  0  0  0  0  0  0  0  0  0
    9.6893   15.5288   25.8548 O   0  0  0  0  0  0  0  0  0  0  0  0
    8.4309   13.3710   25.7133 N   0  0  0  0  0  0  0  0  0  0  0  0
    8.0990   12.1056   25.0179 C   0  0  0  0  0  0  0  0  0  0  0  0
    7.1992   11.2738   25.9306 C   0  0  0  0  0  0  0  0  0  0  0  0
    5.9374   12.0265   26.3417 C   0  0  0  0  0  0  0  0  0  0  0  0
    6.2783   13.3962   26.9111 C   0  0  0  0  0  0  0  0  0  0  0  0
    7.1816   14.1682   25.9579 C   0  0  0  0  0  0  0  0  0  0  0  0
   11.6898   12.6022   24.5333 C   0  0  0  0  0  0  0  0  0  0  0  0
   12.7805   11.7523   25.1936 C   0  0  0  0  0  0  0  0  0  0  0  0
   16.7057   12.7022   29.6632 C   0  0  1  0  0  0  0  0  0  0  0  0
   18.1006   13.1811   30.0859 C   0  0  0  0  0  0  0  0  0  0  0  0
   17.4432   14.5511   30.2193 C   0  0  0  0  0  0  0  0  0  0  0  0
   16.2314   14.0792   29.5763 O   0  0  0  0  0  0  0  0  0  0  0  0
  2  1  1  1
  2  3  1  0
  3  4  1  0
  4  5  2  0
  4  6  1  0
  6  7  1  0
  7  8  1  0
  8  9  1  0
  9 10  1  0
 10 11  2  0
 10 12  2  0
 10 13  1  0
 13 14  1  0
 14 15  1  0
 15 16  1  0
 16 17  1  0
 17 18  1  0
  9 19  1  0
 19 20  1  0
  2 21  1  0
 21 22  1  6
 22 23  1  0
 23 24  1  0
 20  6  1  0
 24 21  1  0
 18 13  1  0
M  END
>  <energy_score>  (2123) 
-59.104124

>  <inchikey>  (2123) 
None

>  <smiles>  (2123) 
None

>  <ref_pdb>  (2123) 
A4706a

>  <alias>  (2123) 
None

>  <HIPPO Pose ID>  (2123) 
499767

>  <name>  (2123) 
P499767

>  <HIPPO Compound ID>  (2123) 
314366

>  <ref_mols>  (2123) 
A4706a,A0875a

>  <distance_score>  (2123) 
1.622403

>  <inspiration_score>  (2123) 
None

$$$$
P499768
     RDKit          3D

 24 26  0  0  0  0  0  0  0  0999 V2000
    9.8243   15.8700   19.0677 O   0  0  0  0  0  0  0  0  0  0  0  0
    9.8836   15.5015   20.2272 C   0  0  0  0  0  0  0  0  0  0  0  0
    9.1382   16.1038   21.3711 C   0  0  0  0  0  0  0  0  0  0  0  0
    9.1939   15.0179   22.4149 C   0  0  1  0  0  0  0  0  0  0  0  0
    7.9306   14.3051   22.3740 O   0  0  0  0  0  0  0  0  0  0  0  0
    7.7741   13.2441   23.2011 C   0  0  0  0  0  0  0  0  0  0  0  0
    8.5512   12.2986   23.2443 O   0  0  0  0  0  0  0  0  0  0  0  0
    6.4710   13.2843   24.0011 C   0  0  0  0  0  0  0  0  0  0  0  0
    6.5071   12.2022   25.1101 C   0  0  0  0  0  0  0  0  0  0  0  0
    7.5593   12.4827   26.1954 C   0  0  0  0  0  0  0  0  0  0  0  0
    8.1128   13.8237   25.9491 N   0  0  0  0  0  0  0  0  0  0  0  0
    9.4913   14.3310   26.7168 S   0  0  0  0  0  0  0  0  0  0  0  0
    9.9820   15.4606   25.9664 O   0  0  0  0  0  0  0  0  0  0  0  0
    9.2032   14.4647   28.1231 O   0  0  0  0  0  0  0  0  0  0  0  0
   10.6461   13.0909   26.5070 N   0  0  0  0  0  0  0  0  0  0  0  0
   11.9115   13.5341   27.1648 C   0  0  0  0  0  0  0  0  0  0  0  0
   13.0748   12.5689   26.9599 C   0  0  0  0  0  0  0  0  0  0  0  0
   13.2132   12.0652   25.5325 C   0  0  0  0  0  0  0  0  0  0  0  0
   12.2787   12.8358   24.6258 C   0  0  0  0  0  0  0  0  0  0  0  0
   10.8447   12.6812   25.0903 C   0  0  0  0  0  0  0  0  0  0  0  0
    7.0296   14.8401   25.9282 C   0  0  0  0  0  0  0  0  0  0  0  0
    6.2242   14.6534   24.6466 C   0  0  0  0  0  0  0  0  0  0  0  0
   10.4590   14.2702   22.0369 C   0  0  0  0  0  0  0  0  0  0  0  0
   10.7093   14.5224   20.6633 O   0  0  0  0  0  0  0  0  0  0  0  0
  1  2  2  0
  2  3  1  0
  3  4  1  0
  4  5  1  6
  5  6  1  0
  6  7  2  0
  6  8  1  0
  8  9  1  0
  9 10  1  0
 10 11  1  0
 11 12  1  0
 12 13  2  0
 12 14  2  0
 12 15  1  0
 15 16  1  0
 16 17  1  0
 17 18  1  0
 18 19  1  0
 19 20  1  0
 11 21  1  0
 21 22  1  0
  4 23  1  0
 23 24  1  0
 24  2  1  0
 22  8  1  0
 20 15  1  0
M  END
>  <energy_score>  (2124) 
-53.792862

>  <inchikey>  (2124) 
None

>  <smiles>  (2124) 
None

>  <ref_pdb>  (2124) 
A4706a

>  <alias>  (2124) 
None

>  <HIPPO Pose ID>  (2124) 
499768

>  <name>  (2124) 
P499768

>  <HIPPO Compound ID>  (2124) 
314367

>  <ref_mols>  (2124) 
A4706a,A0875a

>  <distance_score>  (2124) 
1.584504

>  <inspiration_score>  (2124) 
None

$$$$
P499769
     RDKit          3D

 24 26  0  0  0  0  0  0  0  0999 V2000
   17.6045    9.6191   27.8853 C   0  0  0  0  0  0  0  0  0  0  0  0
   16.5757   10.1043   27.1772 C   0  0  0  0  0  0  0  0  0  0  0  0
   15.7531   11.2975   27.5726 C   0  0  0  0  0  0  0  0  0  0  0  0
   14.4302   11.3947   26.9247 O   0  0  0  0  0  0  0  0  0  0  0  0
   14.4230   11.7540   25.6273 C   0  0  0  0  0  0  0  0  0  0  0  0
   15.4140   11.7952   24.9173 O   0  0  0  0  0  0  0  0  0  0  0  0
   13.0722   12.0512   25.0193 C   0  0  0  0  0  0  0  0  0  0  0  0
   12.6929   13.4947   24.8207 C   0  0  0  0  0  0  0  0  0  0  0  0
   11.6838   13.9548   25.8535 C   0  0  0  0  0  0  0  0  0  0  0  0
   10.4125   13.2019   25.6876 N   0  0  0  0  0  0  0  0  0  0  0  0
    9.1404   14.1428   25.1021 S   0  0  0  0  0  0  0  0  0  0  0  0
    9.1195   14.0497   23.6655 O   0  0  0  0  0  0  0  0  0  0  0  0
    9.2545   15.4069   25.7875 O   0  0  0  0  0  0  0  0  0  0  0  0
    7.8204   13.3535   25.7479 N   0  0  0  0  0  0  0  0  0  0  0  0
    7.2491   12.1883   25.0557 C   0  0  0  0  0  0  0  0  0  0  0  0
    6.6319   11.3135   26.1414 C   0  0  0  0  0  0  0  0  0  0  0  0
    5.5419   12.0755   26.8969 C   0  0  0  0  0  0  0  0  0  0  0  0
    6.0434   13.4233   27.4100 C   0  0  0  0  0  0  0  0  0  0  0  0
    6.7507   14.2151   26.3137 C   0  0  0  0  0  0  0  0  0  0  0  0
   10.5726   11.8398   25.1503 C   0  0  0  0  0  0  0  0  0  0  0  0
   11.9272   11.3042   25.5987 C   0  0  0  0  0  0  0  0  0  0  0  0
   15.6197   11.6476   29.0912 C   0  0  0  0  0  0  0  0  0  0  0  0
   15.8767   13.0594   28.7645 O   0  0  0  0  0  0  0  0  0  0  0  0
   16.6076   12.5836   27.5901 C   0  0  0  0  0  0  0  0  0  0  0  0
  1  2  2  0
  2  3  1  0
  3  4  1  0
  4  5  1  0
  5  6  2  0
  5  7  1  0
  7  8  1  0
  8  9  1  0
  9 10  1  0
 10 11  1  0
 11 12  2  0
 11 13  2  0
 11 14  1  0
 14 15  1  0
 15 16  1  0
 16 17  1  0
 17 18  1  0
 18 19  1  0
 10 20  1  0
 20 21  1  0
  3 22  1  0
 22 23  1  0
 23 24  1  0
 24  3  1  0
 21  7  1  0
 19 14  1  0
M  END
>  <energy_score>  (2125) 
-69.611322

>  <inchikey>  (2125) 
None

>  <smiles>  (2125) 
None

>  <ref_pdb>  (2125) 
A4706a

>  <alias>  (2125) 
None

>  <HIPPO Pose ID>  (2125) 
499769

>  <name>  (2125) 
P499769

>  <HIPPO Compound ID>  (2125) 
314368

>  <ref_mols>  (2125) 
A0875a,A4706a

>  <distance_score>  (2125) 
1.210102

>  <inspiration_score>  (2125) 
None

$$$$
P499770
     RDKit          3D

 24 26  0  0  0  0  0  0  0  0999 V2000
   15.8751    9.3812   25.6241 C   0  0  0  0  0  0  0  0  0  0  0  0
   15.7004   10.3644   26.2827 C   0  0  0  0  0  0  0  0  0  0  0  0
   15.2622   11.5799   26.9035 C   0  0  0  0  0  0  0  0  0  0  0  0
   14.3192   12.2579   26.0187 O   0  0  0  0  0  0  0  0  0  0  0  0
   13.2181   11.5372   25.6665 C   0  0  0  0  0  0  0  0  0  0  0  0
   13.0782   10.3272   25.7757 O   0  0  0  0  0  0  0  0  0  0  0  0
   12.1431   12.3627   25.0657 C   0  0  0  0  0  0  0  0  0  0  0  0
   11.9073   13.6314   25.8595 C   0  0  0  0  0  0  0  0  0  0  0  0
   10.4419   13.9121   26.0885 C   0  0  0  0  0  0  0  0  0  0  0  0
    9.7179   13.7015   24.8234 N   0  0  0  0  0  0  0  0  0  0  0  0
    8.2438   14.4346   24.6984 S   0  0  0  0  0  0  0  0  0  0  0  0
    7.7789   14.2755   23.3468 O   0  0  0  0  0  0  0  0  0  0  0  0
    8.4066   15.7174   25.3325 O   0  0  0  0  0  0  0  0  0  0  0  0
    7.3148   13.4998   25.7431 N   0  0  0  0  0  0  0  0  0  0  0  0
    6.6905   12.2624   25.2306 C   0  0  0  0  0  0  0  0  0  0  0  0
    6.3883   11.3801   26.4355 C   0  0  0  0  0  0  0  0  0  0  0  0
    5.4339   12.0819   27.3975 C   0  0  0  0  0  0  0  0  0  0  0  0
    5.9401   13.4727   27.7665 C   0  0  0  0  0  0  0  0  0  0  0  0
    6.3220   14.2830   26.5326 C   0  0  0  0  0  0  0  0  0  0  0  0
    9.9604   12.4744   24.0590 C   0  0  0  0  0  0  0  0  0  0  0  0
   10.8232   11.5858   24.9140 C   0  0  0  0  0  0  0  0  0  0  0  0
   14.8471   11.5840   28.3974 C   0  0  0  0  0  0  0  0  0  0  0  0
   15.6075   12.8277   28.5877 O   0  0  0  0  0  0  0  0  0  0  0  0
   16.4409   12.4007   27.4648 C   0  0  0  0  0  0  0  0  0  0  0  0
  1  2  3  0
  2  3  1  0
  3  4  1  0
  4  5  1  0
  5  6  2  0
  5  7  1  0
  7  8  1  0
  8  9  1  0
  9 10  1  0
 10 11  1  0
 11 12  2  0
 11 13  2  0
 11 14  1  0
 14 15  1  0
 15 16  1  0
 16 17  1  0
 17 18  1  0
 18 19  1  0
 10 20  1  0
 20 21  1  0
  3 22  1  0
 22 23  1  0
 23 24  1  0
 24  3  1  0
 21  7  1  0
 19 14  1  0
M  END
>  <energy_score>  (2126) 
-49.869077

>  <inchikey>  (2126) 
None

>  <smiles>  (2126) 
None

>  <ref_pdb>  (2126) 
A4706a

>  <alias>  (2126) 
None

>  <HIPPO Pose ID>  (2126) 
499770

>  <name>  (2126) 
P499770

>  <HIPPO Compound ID>  (2126) 
314369

>  <ref_mols>  (2126) 
A4706a,A0875a

>  <distance_score>  (2126) 
1.77126

>  <inspiration_score>  (2126) 
None

$$$$
P499771
     RDKit          3D

 24 25  0  0  0  0  0  0  0  0999 V2000
   19.2076   13.4234   29.4670 C   0  0  0  0  0  0  0  0  0  0  0  0
   18.3576   12.2908   29.3240 O   0  0  0  0  0  0  0  0  0  0  0  0
   17.2758   12.5561   28.4331 C   0  0  0  0  0  0  0  0  0  0  0  0
   16.4023   11.2978   28.1849 C   0  0  0  0  0  0  0  0  0  0  0  0
   17.3219   10.1646   27.7028 C   0  0  0  0  0  0  0  0  0  0  0  0
   15.7270   10.9246   29.5119 C   0  0  0  0  0  0  0  0  0  0  0  0
   15.3391   11.7251   27.2508 O   0  0  0  0  0  0  0  0  0  0  0  0
   14.8168   10.9828   26.2485 C   0  0  0  0  0  0  0  0  0  0  0  0
   15.1427    9.8429   25.9490 O   0  0  0  0  0  0  0  0  0  0  0  0
   13.7313   11.6818   25.4253 C   0  0  0  0  0  0  0  0  0  0  0  0
   13.4484   13.1257   25.7592 C   0  0  0  0  0  0  0  0  0  0  0  0
   12.1030   13.4396   26.4740 C   0  0  0  0  0  0  0  0  0  0  0  0
   10.9181   12.8503   25.7838 N   0  0  0  0  0  0  0  0  0  0  0  0
    9.6743   13.9300   25.4393 S   0  0  0  0  0  0  0  0  0  0  0  0
   10.0690   14.7166   24.2963 O   0  0  0  0  0  0  0  0  0  0  0  0
    9.3418   14.5618   26.6938 O   0  0  0  0  0  0  0  0  0  0  0  0
    8.3718   12.9460   24.9930 N   0  0  0  0  0  0  0  0  0  0  0  0
    8.0930   11.7375   25.8090 C   0  0  0  0  0  0  0  0  0  0  0  0
    6.6373   11.6065   26.2345 C   0  0  0  0  0  0  0  0  0  0  0  0
    6.1240   12.9000   26.8414 C   0  0  0  0  0  0  0  0  0  0  0  0
    6.3240   14.0799   25.8910 C   0  0  0  0  0  0  0  0  0  0  0  0
    7.1465   13.7299   24.6492 C   0  0  0  0  0  0  0  0  0  0  0  0
   11.2805   11.8739   24.7678 C   0  0  0  0  0  0  0  0  0  0  0  0
   12.3895   11.0138   25.4053 C   0  0  0  0  0  0  0  0  0  0  0  0
  1  2  1  0
  2  3  1  0
  3  4  1  0
  4  5  1  0
  4  6  1  0
  4  7  1  0
  7  8  1  0
  8  9  2  0
  8 10  1  0
 10 11  1  0
 11 12  1  0
 12 13  1  0
 13 14  1  0
 14 15  2  0
 14 16  2  0
 14 17  1  0
 17 18  1  0
 18 19  1  0
 19 20  1  0
 20 21  1  0
 21 22  1  0
 13 23  1  0
 23 24  1  0
 24 10  1  0
 22 17  1  0
M  END
>  <energy_score>  (2127) 
-47.091694

>  <inchikey>  (2127) 
None

>  <smiles>  (2127) 
None

>  <ref_pdb>  (2127) 
A4706a

>  <alias>  (2127) 
None

>  <HIPPO Pose ID>  (2127) 
499771

>  <name>  (2127) 
P499771

>  <HIPPO Compound ID>  (2127) 
314370

>  <ref_mols>  (2127) 
A0875a,A4706a

>  <distance_score>  (2127) 
1.292934

>  <inspiration_score>  (2127) 
None

$$$$
P499772
     RDKit          3D

 24 26  0  0  0  0  0  0  0  0999 V2000
   14.7767   12.9184   28.9296 C   0  0  0  0  0  0  0  0  0  0  0  0
   15.3331   12.0188   27.8203 C   0  0  2  0  0  0  0  0  0  0  0  0
   14.2018   11.3391   27.2309 O   0  0  0  0  0  0  0  0  0  0  0  0
   13.7202   11.8548   26.0627 C   0  0  0  0  0  0  0  0  0  0  0  0
   14.3602   12.0283   25.0398 O   0  0  0  0  0  0  0  0  0  0  0  0
   12.2665   12.2316   26.2533 C   0  0  0  0  0  0  0  0  0  0  0  0
   12.1248   13.7196   26.1725 C   0  0  0  0  0  0  0  0  0  0  0  0
   10.6920   14.1198   26.0376 C   0  0  0  0  0  0  0  0  0  0  0  0
   10.1939   13.6234   24.7584 N   0  0  0  0  0  0  0  0  0  0  0  0
    8.6809   14.1517   24.3520 S   0  0  0  0  0  0  0  0  0  0  0  0
    8.3673   13.7444   23.0098 O   0  0  0  0  0  0  0  0  0  0  0  0
    8.6334   15.5211   24.7915 O   0  0  0  0  0  0  0  0  0  0  0  0
    7.7350   13.2861   25.4468 N   0  0  0  0  0  0  0  0  0  0  0  0
    7.2719   11.9572   25.0058 C   0  0  0  0  0  0  0  0  0  0  0  0
    6.8035   11.1898   26.2327 C   0  0  0  0  0  0  0  0  0  0  0  0
    5.7105   11.9385   26.9910 C   0  0  0  0  0  0  0  0  0  0  0  0
    6.1218   13.3741   27.2892 C   0  0  0  0  0  0  0  0  0  0  0  0
    6.6107   14.0777   26.0294 C   0  0  0  0  0  0  0  0  0  0  0  0
   10.7805   12.4004   24.2000 C   0  0  0  0  0  0  0  0  0  0  0  0
   11.2428   11.5206   25.3590 C   0  0  0  0  0  0  0  0  0  0  0  0
   16.3174   11.0297   28.4060 C   0  0  2  0  0  0  0  0  0  0  0  0
   15.9662   10.2962   29.6666 C   0  0  0  0  0  0  0  0  0  0  0  0
   17.7952   11.2126   28.1276 C   0  0  0  0  0  0  0  0  0  0  0  0
   17.0061   10.2458   27.4225 O   0  0  0  0  0  0  0  0  0  0  0  0
  2  1  1  1
  2  3  1  0
  3  4  1  0
  4  5  2  0
  4  6  1  0
  6  7  1  0
  7  8  1  0
  8  9  1  0
  9 10  1  0
 10 11  2  0
 10 12  2  0
 10 13  1  0
 13 14  1  0
 14 15  1  0
 15 16  1  0
 16 17  1  0
 17 18  1  0
  9 19  1  0
 19 20  1  0
  2 21  1  0
 21 22  1  1
 21 23  1  0
 23 24  1  0
 20  6  1  0
 24 21  1  0
 18 13  1  0
M  END
>  <energy_score>  (2128) 
-63.498258

>  <inchikey>  (2128) 
None

>  <smiles>  (2128) 
None

>  <ref_pdb>  (2128) 
A4706a

>  <alias>  (2128) 
None

>  <HIPPO Pose ID>  (2128) 
499772

>  <name>  (2128) 
P499772

>  <HIPPO Compound ID>  (2128) 
314372

>  <ref_mols>  (2128) 
A4706a,A0875a

>  <distance_score>  (2128) 
1.571579

>  <inspiration_score>  (2128) 
None

$$$$
P499773
     RDKit          3D

 24 26  0  0  0  0  0  0  0  0999 V2000
   17.5250   13.0265   27.9890 C   0  0  0  0  0  0  0  0  0  0  0  0
   16.1698   12.4428   28.3685 C   0  0  1  0  0  0  0  0  0  0  0  0
   14.9925   12.8959   27.5902 O   0  0  0  0  0  0  0  0  0  0  0  0
   14.6167   12.4922   26.3395 C   0  0  0  0  0  0  0  0  0  0  0  0
   15.2706   11.8024   25.5743 O   0  0  0  0  0  0  0  0  0  0  0  0
   13.1651   12.9355   26.0312 C   0  0  0  0  0  0  0  0  0  0  0  0
   12.8595   13.5096   24.6778 C   0  0  0  0  0  0  0  0  0  0  0  0
   11.5068   14.1514   24.6672 C   0  0  0  0  0  0  0  0  0  0  0  0
   10.4432   13.1332   24.8295 N   0  0  0  0  0  0  0  0  0  0  0  0
    8.9896   13.9822   25.1405 S   0  0  0  0  0  0  0  0  0  0  0  0
    8.9776   15.0968   24.2204 O   0  0  0  0  0  0  0  0  0  0  0  0
    8.9440   14.2226   26.5640 O   0  0  0  0  0  0  0  0  0  0  0  0
    7.7211   12.9694   24.6957 N   0  0  0  0  0  0  0  0  0  0  0  0
    7.4288   11.7335   25.4501 C   0  0  0  0  0  0  0  0  0  0  0  0
    6.6566   11.9900   26.7365 C   0  0  0  0  0  0  0  0  0  0  0  0
    5.4202   12.8482   26.5310 C   0  0  0  0  0  0  0  0  0  0  0  0
    5.7448   14.0962   25.7226 C   0  0  0  0  0  0  0  0  0  0  0  0
    6.4499   13.7199   24.4222 C   0  0  0  0  0  0  0  0  0  0  0  0
   10.7740   12.0586   25.7888 C   0  0  0  0  0  0  0  0  0  0  0  0
   12.2647   11.7517   26.0445 C   0  0  0  0  0  0  0  0  0  0  0  0
   16.2401   10.9666   28.6243 C   0  0  1  0  0  0  0  0  0  0  0  0
   16.8996   10.0722   27.6140 C   0  0  0  0  0  0  0  0  0  0  0  0
   16.2578   10.4880   30.0723 C   0  0  0  0  0  0  0  0  0  0  0  0
   15.0720   10.4565   29.2757 O   0  0  0  0  0  0  0  0  0  0  0  0
  2  1  1  6
  2  3  1  0
  3  4  1  0
  4  5  2  0
  4  6  1  0
  6  7  1  0
  7  8  1  0
  8  9  1  0
  9 10  1  0
 10 11  2  0
 10 12  2  0
 10 13  1  0
 13 14  1  0
 14 15  1  0
 15 16  1  0
 16 17  1  0
 17 18  1  0
  9 19  1  0
 19 20  1  0
  2 21  1  0
 21 22  1  6
 21 23  1  0
 23 24  1  0
 20  6  1  0
 24 21  1  0
 18 13  1  0
M  END
>  <energy_score>  (2129) 
-56.006442

>  <inchikey>  (2129) 
None

>  <smiles>  (2129) 
None

>  <ref_pdb>  (2129) 
A4706a

>  <alias>  (2129) 
None

>  <HIPPO Pose ID>  (2129) 
499773

>  <name>  (2129) 
P499773

>  <HIPPO Compound ID>  (2129) 
314372

>  <ref_mols>  (2129) 
A4706a,A0875a

>  <distance_score>  (2129) 
1.686031

>  <inspiration_score>  (2129) 
None

$$$$
P499774
     RDKit          3D

 24 26  0  0  0  0  0  0  0  0999 V2000
    6.7296   14.1420   21.6664 O   0  0  0  0  0  0  0  0  0  0  0  0
    7.0717   14.7124   22.6972 C   0  0  0  0  0  0  0  0  0  0  0  0
    8.1882   15.4561   22.8605 O   0  0  0  0  0  0  0  0  0  0  0  0
    9.1577   15.8611   21.8424 C   0  0  2  0  0  0  0  0  0  0  0  0
    9.2277   15.0945   20.5577 C   0  0  0  0  0  0  0  0  0  0  0  0
   10.3809   14.6384   20.0553 C   0  0  0  0  0  0  0  0  0  0  0  0
   11.6317   14.5935   20.8569 C   0  0  0  0  0  0  0  0  0  0  0  0
   11.3627   14.7533   22.2501 O   0  0  0  0  0  0  0  0  0  0  0  0
   10.5877   15.9390   22.4501 C   0  0  0  0  0  0  0  0  0  0  0  0
    6.2019   14.6421   23.9853 C   0  0  0  0  0  0  0  0  0  0  0  0
    5.7918   13.1984   24.3373 C   0  0  0  0  0  0  0  0  0  0  0  0
    6.7798   12.3690   25.1713 C   0  0  0  0  0  0  0  0  0  0  0  0
    7.8021   13.2243   25.8119 N   0  0  0  0  0  0  0  0  0  0  0  0
    9.2075   13.4811   24.9001 S   0  0  0  0  0  0  0  0  0  0  0  0
    9.6439   14.8270   25.1708 O   0  0  0  0  0  0  0  0  0  0  0  0
    8.9389   12.9699   23.5802 O   0  0  0  0  0  0  0  0  0  0  0  0
   10.2760   12.4107   25.6529 N   0  0  0  0  0  0  0  0  0  0  0  0
   11.5593   13.0412   26.0441 C   0  0  0  0  0  0  0  0  0  0  0  0
   12.6661   12.5943   25.1231 C   0  0  0  0  0  0  0  0  0  0  0  0
   12.8917   11.1264   25.4061 C   0  0  0  0  0  0  0  0  0  0  0  0
   11.5891   10.2890   25.2631 C   0  0  0  0  0  0  0  0  0  0  0  0
   10.3392   11.0951   24.9523 C   0  0  0  0  0  0  0  0  0  0  0  0
    7.1831   14.4517   26.3665 C   0  0  0  0  0  0  0  0  0  0  0  0
    6.6853   15.3745   25.2490 C   0  0  0  0  0  0  0  0  0  0  0  0
  1  2  2  0
  2  3  1  0
  4  3  1  1
  4  5  1  0
  5  6  2  0
  6  7  1  0
  7  8  1  0
  8  9  1  0
  2 10  1  0
 10 11  1  0
 11 12  1  0
 12 13  1  0
 13 14  1  0
 14 15  2  0
 14 16  2  0
 14 17  1  0
 17 18  1  0
 18 19  1  0
 19 20  1  0
 20 21  1  0
 21 22  1  0
 13 23  1  0
 23 24  1  0
  9  4  1  0
 24 10  1  0
 22 17  1  0
M  END
>  <energy_score>  (2130) 
-8.052464

>  <inchikey>  (2130) 
None

>  <smiles>  (2130) 
None

>  <ref_pdb>  (2130) 
A4706a

>  <alias>  (2130) 
None

>  <HIPPO Pose ID>  (2130) 
499774

>  <name>  (2130) 
P499774

>  <HIPPO Compound ID>  (2130) 
314374

>  <ref_mols>  (2130) 
A4706a,A0875a

>  <distance_score>  (2130) 
1.737395

>  <inspiration_score>  (2130) 
None

$$$$
P499775
     RDKit          3D

 24 26  0  0  0  0  0  0  0  0999 V2000
   17.7604    9.7362   27.3487 C   0  0  0  0  0  0  0  0  0  0  0  0
   16.4964   10.3829   27.4396 O   0  0  0  0  0  0  0  0  0  0  0  0
   16.4255   11.2263   28.5893 C   0  0  0  0  0  0  0  0  0  0  0  0
   14.9892   11.3081   29.0674 C   0  0  0  0  0  0  0  0  0  0  0  0
   13.9828   11.4801   28.0062 O   0  0  0  0  0  0  0  0  0  0  0  0
   13.9898   12.7013   27.4350 C   0  0  0  0  0  0  0  0  0  0  0  0
   14.6898   13.6131   27.8750 O   0  0  0  0  0  0  0  0  0  0  0  0
   13.0163   12.9527   26.2920 C   0  0  0  0  0  0  0  0  0  0  0  0
   11.9153   13.8904   26.8079 C   0  0  0  0  0  0  0  0  0  0  0  0
   10.5477   13.2778   26.7168 C   0  0  0  0  0  0  0  0  0  0  0  0
   10.2202   12.9235   25.3329 N   0  0  0  0  0  0  0  0  0  0  0  0
    9.1090   13.9771   24.6344 S   0  0  0  0  0  0  0  0  0  0  0  0
    8.9411   13.6645   23.2409 O   0  0  0  0  0  0  0  0  0  0  0  0
    9.4644   15.2915   25.1041 O   0  0  0  0  0  0  0  0  0  0  0  0
    7.7626   13.4493   25.4786 N   0  0  0  0  0  0  0  0  0  0  0  0
    7.2358   12.1135   25.1352 C   0  0  0  0  0  0  0  0  0  0  0  0
    6.4801   11.5911   26.3513 C   0  0  0  0  0  0  0  0  0  0  0  0
    5.3802   12.5616   26.7811 C   0  0  0  0  0  0  0  0  0  0  0  0
    5.9138   13.9856   26.9435 C   0  0  0  0  0  0  0  0  0  0  0  0
    6.6857   14.4338   25.7030 C   0  0  0  0  0  0  0  0  0  0  0  0
   11.3563   12.5282   24.4912 C   0  0  0  0  0  0  0  0  0  0  0  0
   12.4615   11.8825   25.3638 C   0  0  0  0  0  0  0  0  0  0  0  0
   14.7103   12.0355   30.3698 C   0  0  0  0  0  0  0  0  0  0  0  0
   14.5761   10.5482   30.3072 C   0  0  0  0  0  0  0  0  0  0  0  0
  1  2  1  0
  2  3  1  0
  3  4  1  0
  4  5  1  0
  5  6  1  0
  6  7  2  0
  6  8  1  0
  8  9  1  0
  9 10  1  0
 10 11  1  0
 11 12  1  0
 12 13  2  0
 12 14  2  0
 12 15  1  0
 15 16  1  0
 16 17  1  0
 17 18  1  0
 18 19  1  0
 19 20  1  0
 11 21  1  0
 21 22  1  0
  4 23  1  0
 23 24  1  0
 24  4  1  0
 22  8  1  0
 20 15  1  0
M  END
>  <energy_score>  (2131) 
-47.386338

>  <inchikey>  (2131) 
None

>  <smiles>  (2131) 
None

>  <ref_pdb>  (2131) 
A4706a

>  <alias>  (2131) 
None

>  <HIPPO Pose ID>  (2131) 
499775

>  <name>  (2131) 
P499775

>  <HIPPO Compound ID>  (2131) 
314375

>  <ref_mols>  (2131) 
A4706a,A0875a

>  <distance_score>  (2131) 
1.989102

>  <inspiration_score>  (2131) 
None

$$$$
P499776
     RDKit          3D

 24 25  0  0  0  0  0  0  0  0999 V2000
   13.9732   10.1522   31.2415 C   0  0  0  0  0  0  0  0  0  0  0  0
   13.6934   11.0522   30.1698 O   0  0  0  0  0  0  0  0  0  0  0  0
   14.8703   11.3779   29.4341 C   0  0  0  0  0  0  0  0  0  0  0  0
   14.6609   12.6483   28.6063 C   0  0  2  0  0  0  0  0  0  0  0  0
   14.3652   13.7719   29.5201 C   0  0  0  0  0  0  0  0  0  0  0  0
   14.2363   14.6849   30.2256 N   0  0  0  0  0  0  0  0  0  0  0  0
   13.6420   12.5510   27.5683 O   0  0  0  0  0  0  0  0  0  0  0  0
   14.0747   12.0796   26.3721 C   0  0  0  0  0  0  0  0  0  0  0  0
   15.2042   11.6422   26.1900 O   0  0  0  0  0  0  0  0  0  0  0  0
   13.0403   12.1018   25.2401 C   0  0  0  0  0  0  0  0  0  0  0  0
   12.6955   13.4671   24.6914 C   0  0  0  0  0  0  0  0  0  0  0  0
   11.5399   14.1292   25.4216 C   0  0  0  0  0  0  0  0  0  0  0  0
   10.3089   13.3073   25.3459 N   0  0  0  0  0  0  0  0  0  0  0  0
    8.9464   14.1740   24.9113 S   0  0  0  0  0  0  0  0  0  0  0  0
    8.7813   14.0726   23.4851 O   0  0  0  0  0  0  0  0  0  0  0  0
    9.0872   15.4412   25.5863 O   0  0  0  0  0  0  0  0  0  0  0  0
    7.7293   13.3440   25.6954 N   0  0  0  0  0  0  0  0  0  0  0  0
    7.1087   12.1794   25.0442 C   0  0  0  0  0  0  0  0  0  0  0  0
    6.6004   11.2890   26.1724 C   0  0  0  0  0  0  0  0  0  0  0  0
    5.5584   12.0279   27.0132 C   0  0  0  0  0  0  0  0  0  0  0  0
    6.0725   13.3840   27.4894 C   0  0  0  0  0  0  0  0  0  0  0  0
    6.6946   14.1890   26.3522 C   0  0  0  0  0  0  0  0  0  0  0  0
   10.5067   11.9447   24.8544 C   0  0  0  0  0  0  0  0  0  0  0  0
   11.7445   11.4282   25.5775 C   0  0  0  0  0  0  0  0  0  0  0  0
  1  2  1  0
  2  3  1  0
  4  3  1  1
  4  5  1  0
  5  6  3  0
  4  7  1  0
  7  8  1  0
  8  9  2  0
  8 10  1  0
 10 11  1  0
 11 12  1  0
 12 13  1  0
 13 14  1  0
 14 15  2  0
 14 16  2  0
 14 17  1  0
 17 18  1  0
 18 19  1  0
 19 20  1  0
 20 21  1  0
 21 22  1  0
 13 23  1  0
 23 24  1  0
 24 10  1  0
 22 17  1  0
M  END
>  <energy_score>  (2132) 
-38.675822

>  <inchikey>  (2132) 
None

>  <smiles>  (2132) 
None

>  <ref_pdb>  (2132) 
A4706a

>  <alias>  (2132) 
None

>  <HIPPO Pose ID>  (2132) 
499776

>  <name>  (2132) 
P499776

>  <HIPPO Compound ID>  (2132) 
314376

>  <ref_mols>  (2132) 
A0875a,A4706a

>  <distance_score>  (2132) 
1.525239

>  <inspiration_score>  (2132) 
None

$$$$
P499777
     RDKit          3D

 24 25  0  0  0  0  0  0  0  0999 V2000
   14.3911   14.4913   30.4436 C   0  0  0  0  0  0  0  0  0  0  0  0
   15.1196   14.0428   29.3037 O   0  0  0  0  0  0  0  0  0  0  0  0
   15.7472   12.7985   29.6110 C   0  0  0  0  0  0  0  0  0  0  0  0
   16.2590   12.1172   28.3305 C   0  0  1  0  0  0  0  0  0  0  0  0
   16.6341   10.6926   28.7119 C   0  0  0  0  0  0  0  0  0  0  0  0
   17.6348    9.7823   27.3311 Br  0  0  0  0  0  0  0  0  0  0  0  0
   15.3295   12.2429   27.2037 O   0  0  0  0  0  0  0  0  0  0  0  0
   13.9914   12.1051   27.3868 C   0  0  0  0  0  0  0  0  0  0  0  0
   13.4792   11.5579   28.3492 O   0  0  0  0  0  0  0  0  0  0  0  0
   13.1913   12.7918   26.2874 C   0  0  0  0  0  0  0  0  0  0  0  0
   12.1090   13.7030   26.8952 C   0  0  0  0  0  0  0  0  0  0  0  0
   10.7006   13.1974   26.7073 C   0  0  0  0  0  0  0  0  0  0  0  0
   10.3865   12.9590   25.2876 N   0  0  0  0  0  0  0  0  0  0  0  0
    9.2410   14.0340   24.6833 S   0  0  0  0  0  0  0  0  0  0  0  0
    9.0514   13.8122   23.2751 O   0  0  0  0  0  0  0  0  0  0  0  0
    9.5875   15.3212   25.2297 O   0  0  0  0  0  0  0  0  0  0  0  0
    7.9074   13.4421   25.5127 N   0  0  0  0  0  0  0  0  0  0  0  0
    7.4011   12.1176   25.0946 C   0  0  0  0  0  0  0  0  0  0  0  0
    6.6061   11.5363   26.2580 C   0  0  0  0  0  0  0  0  0  0  0  0
    5.4819   12.4768   26.6897 C   0  0  0  0  0  0  0  0  0  0  0  0
    5.9976   13.8942   26.9375 C   0  0  0  0  0  0  0  0  0  0  0  0
    6.8080   14.4039   25.7470 C   0  0  0  0  0  0  0  0  0  0  0  0
   11.5476   12.7044   24.4235 C   0  0  0  0  0  0  0  0  0  0  0  0
   12.5892   11.8922   25.2220 C   0  0  0  0  0  0  0  0  0  0  0  0
  1  2  1  0
  2  3  1  0
  4  3  1  1
  4  5  1  0
  5  6  1  0
  4  7  1  0
  7  8  1  0
  8  9  2  0
  8 10  1  0
 10 11  1  0
 11 12  1  0
 12 13  1  0
 13 14  1  0
 14 15  2  0
 14 16  2  0
 14 17  1  0
 17 18  1  0
 18 19  1  0
 19 20  1  0
 20 21  1  0
 21 22  1  0
 13 23  1  0
 23 24  1  0
 24 10  1  0
 22 17  1  0
M  END
>  <energy_score>  (2133) 
-70.089271

>  <inchikey>  (2133) 
None

>  <smiles>  (2133) 
None

>  <ref_pdb>  (2133) 
A4706a

>  <alias>  (2133) 
None

>  <HIPPO Pose ID>  (2133) 
499777

>  <name>  (2133) 
P499777

>  <HIPPO Compound ID>  (2133) 
314377

>  <ref_mols>  (2133) 
A4706a,A0875a

>  <distance_score>  (2133) 
1.999873

>  <inspiration_score>  (2133) 
None

$$$$
P499778
     RDKit          3D

 24 26  0  0  0  0  0  0  0  0999 V2000
   15.7695   10.9113   27.1057 C   0  0  0  0  0  0  0  0  0  0  0  0
   15.1757   12.0522   27.9309 C   0  0  0  0  0  0  0  0  0  0  0  0
   14.2398   11.5132   29.0191 C   0  0  0  0  0  0  0  0  0  0  0  0
   14.2867   12.9528   27.1430 O   0  0  0  0  0  0  0  0  0  0  0  0
   13.9334   12.7187   25.8360 C   0  0  0  0  0  0  0  0  0  0  0  0
   14.6050   12.1130   25.0099 O   0  0  0  0  0  0  0  0  0  0  0  0
   12.5104   13.2009   25.4889 C   0  0  0  0  0  0  0  0  0  0  0  0
   11.6301   12.0732   25.9452 C   0  0  0  0  0  0  0  0  0  0  0  0
   10.4062   11.7688   25.1101 C   0  0  0  0  0  0  0  0  0  0  0  0
    9.8859   12.9647   24.4731 N   0  0  0  0  0  0  0  0  0  0  0  0
    8.9503   14.0245   25.3549 S   0  0  0  0  0  0  0  0  0  0  0  0
    8.8705   15.2622   24.6212 O   0  0  0  0  0  0  0  0  0  0  0  0
    9.4063   14.0010   26.7241 O   0  0  0  0  0  0  0  0  0  0  0  0
    7.4315   13.2886   25.2756 N   0  0  0  0  0  0  0  0  0  0  0  0
    7.2958   11.9390   25.8751 C   0  0  0  0  0  0  0  0  0  0  0  0
    5.9057   11.6816   26.4241 C   0  0  0  0  0  0  0  0  0  0  0  0
    5.5323   12.7103   27.4840 C   0  0  0  0  0  0  0  0  0  0  0  0
    5.9588   14.1231   27.0849 C   0  0  0  0  0  0  0  0  0  0  0  0
    6.3075   14.2157   25.6041 C   0  0  0  0  0  0  0  0  0  0  0  0
   10.8281   13.5633   23.5211 C   0  0  0  0  0  0  0  0  0  0  0  0
   12.2626   13.4313   24.0013 C   0  0  0  0  0  0  0  0  0  0  0  0
   16.2360   12.8184   28.6990 C   0  0  1  0  0  0  0  0  0  0  0  0
   17.5146   12.2015   29.2363 C   0  0  0  0  0  0  0  0  0  0  0  0
   17.4906   12.9927   28.0425 O   0  0  0  0  0  0  0  0  0  0  0  0
  1  2  1  0
  2  3  1  0
  2  4  1  0
  4  5  1  0
  5  6  2  0
  5  7  1  0
  7  8  1  0
  8  9  1  0
  9 10  1  0
 10 11  1  0
 11 12  2  0
 11 13  2  0
 11 14  1  0
 14 15  1  0
 15 16  1  0
 16 17  1  0
 17 18  1  0
 18 19  1  0
 10 20  1  0
 20 21  1  0
 22  2  1  6
 22 23  1  0
 23 24  1  0
 21  7  1  0
 24 22  1  0
 19 14  1  0
M  END
>  <energy_score>  (2134) 
-48.993529

>  <inchikey>  (2134) 
None

>  <smiles>  (2134) 
None

>  <ref_pdb>  (2134) 
A4706a

>  <alias>  (2134) 
None

>  <HIPPO Pose ID>  (2134) 
499778

>  <name>  (2134) 
P499778

>  <HIPPO Compound ID>  (2134) 
314378

>  <ref_mols>  (2134) 
A4706a,A0875a

>  <distance_score>  (2134) 
1.772714

>  <inspiration_score>  (2134) 
None

$$$$
P499779
     RDKit          3D

 25 26  0  0  0  0  0  0  0  0999 V2000
   19.2270   10.0362   27.4565 C   0  0  0  0  0  0  0  0  0  0  0  0
   18.2103   10.9232   27.9029 O   0  0  0  0  0  0  0  0  0  0  0  0
   16.9009   10.4465   27.5875 C   0  0  0  0  0  0  0  0  0  0  0  0
   15.8483   11.3501   28.2658 C   0  0  1  0  0  0  0  0  0  0  0  0
   14.6605   11.4227   27.3963 O   0  0  0  0  0  0  0  0  0  0  0  0
   14.1256   12.6672   27.3268 C   0  0  0  0  0  0  0  0  0  0  0  0
   14.5082   13.5950   28.0403 O   0  0  0  0  0  0  0  0  0  0  0  0
   13.0792   12.9240   26.2418 C   0  0  0  0  0  0  0  0  0  0  0  0
   11.9674   13.8280   26.8125 C   0  0  0  0  0  0  0  0  0  0  0  0
   10.5902   13.2403   26.6983 C   0  0  0  0  0  0  0  0  0  0  0  0
   10.2622   12.9140   25.3087 N   0  0  0  0  0  0  0  0  0  0  0  0
    9.1465   13.9788   24.6329 S   0  0  0  0  0  0  0  0  0  0  0  0
    8.9693   13.6838   23.2366 O   0  0  0  0  0  0  0  0  0  0  0  0
    9.5095   15.2867   25.1146 O   0  0  0  0  0  0  0  0  0  0  0  0
    7.8027   13.4445   25.4787 N   0  0  0  0  0  0  0  0  0  0  0  0
    7.2707   12.1143   25.1207 C   0  0  0  0  0  0  0  0  0  0  0  0
    6.5092   11.5818   26.3287 C   0  0  0  0  0  0  0  0  0  0  0  0
    5.4105   12.5510   26.7639 C   0  0  0  0  0  0  0  0  0  0  0  0
    5.9489   13.9709   26.9443 C   0  0  0  0  0  0  0  0  0  0  0  0
    6.7278   14.4302   25.7123 C   0  0  0  0  0  0  0  0  0  0  0  0
   11.3978   12.5393   24.4589 C   0  0  0  0  0  0  0  0  0  0  0  0
   12.5024   11.8666   25.3172 C   0  0  0  0  0  0  0  0  0  0  0  0
   15.4961   10.8693   29.7075 C   0  0  0  0  0  0  0  0  0  0  0  0
   16.7329   10.7785   30.6095 C   0  0  0  0  0  0  0  0  0  0  0  0
   14.4521   11.7485   30.3995 C   0  0  0  0  0  0  0  0  0  0  0  0
  1  2  1  0
  2  3  1  0
  4  3  1  6
  4  5  1  0
  5  6  1  0
  6  7  2  0
  6  8  1  0
  8  9  1  0
  9 10  1  0
 10 11  1  0
 11 12  1  0
 12 13  2  0
 12 14  2  0
 12 15  1  0
 15 16  1  0
 16 17  1  0
 17 18  1  0
 18 19  1  0
 19 20  1  0
 11 21  1  0
 21 22  1  0
  4 23  1  0
 23 24  1  0
 23 25  1  0
 22  8  1  0
 20 15  1  0
M  END
>  <energy_score>  (2135) 
-61.473322

>  <inchikey>  (2135) 
None

>  <smiles>  (2135) 
None

>  <ref_pdb>  (2135) 
A4706a

>  <alias>  (2135) 
None

>  <HIPPO Pose ID>  (2135) 
499779

>  <name>  (2135) 
P499779

>  <HIPPO Compound ID>  (2135) 
314380

>  <ref_mols>  (2135) 
A4706a,A0875a

>  <distance_score>  (2135) 
1.983793

>  <inspiration_score>  (2135) 
None

$$$$
P499780
     RDKit          3D

 25 27  0  0  0  0  0  0  0  0999 V2000
   10.7896   14.7015   18.4867 C   0  0  0  0  0  0  0  0  0  0  0  0
    9.8536   14.9381   19.5288 O   0  0  0  0  0  0  0  0  0  0  0  0
   10.5418   15.2514   20.7030 C   0  0  2  0  0  0  0  0  0  0  0  0
   11.1508   14.0566   21.4003 C   0  0  0  0  0  0  0  0  0  0  0  0
   11.5866   14.6083   22.7242 C   0  0  0  0  0  0  0  0  0  0  0  0
   10.8421   15.9204   22.8460 C   0  0  0  0  0  0  0  0  0  0  0  0
    9.7203   15.9091   21.8041 C   0  0  2  0  0  0  0  0  0  0  0  0
    8.5930   15.1199   22.2775 O   0  0  0  0  0  0  0  0  0  0  0  0
    7.4104   15.7619   22.4106 C   0  0  0  0  0  0  0  0  0  0  0  0
    7.2321   16.8796   21.9569 O   0  0  0  0  0  0  0  0  0  0  0  0
    6.3007   15.0773   23.2421 C   0  0  0  0  0  0  0  0  0  0  0  0
    6.2500   13.5468   23.1968 C   0  0  0  0  0  0  0  0  0  0  0  0
    6.3859   12.8223   24.5393 C   0  0  0  0  0  0  0  0  0  0  0  0
    7.2162   13.6020   25.4705 N   0  0  0  0  0  0  0  0  0  0  0  0
    8.8071   13.8539   24.9856 S   0  0  0  0  0  0  0  0  0  0  0  0
    9.0098   13.1492   23.7485 O   0  0  0  0  0  0  0  0  0  0  0  0
    9.1243   15.2361   25.2072 O   0  0  0  0  0  0  0  0  0  0  0  0
    9.6097   12.9544   26.1105 N   0  0  0  0  0  0  0  0  0  0  0  0
   10.7774   13.5572   26.7611 C   0  0  0  0  0  0  0  0  0  0  0  0
   12.0908   13.2662   26.0736 C   0  0  0  0  0  0  0  0  0  0  0  0
   12.2484   11.8471   25.5903 C   0  0  0  0  0  0  0  0  0  0  0  0
   10.9684   11.2208   25.0451 C   0  0  0  0  0  0  0  0  0  0  0  0
    9.6760   11.5434   25.7506 C   0  0  0  0  0  0  0  0  0  0  0  0
    6.4858   14.8214   25.8651 C   0  0  0  0  0  0  0  0  0  0  0  0
    6.1743   15.7041   24.6522 C   0  0  0  0  0  0  0  0  0  0  0  0
  1  2  1  0
  3  2  1  6
  3  4  1  0
  4  5  1  0
  5  6  1  0
  6  7  1  0
  7  8  1  1
  8  9  1  0
  9 10  2  0
  9 11  1  0
 11 12  1  0
 12 13  1  0
 13 14  1  0
 14 15  1  0
 15 16  2  0
 15 17  2  0
 15 18  1  0
 18 19  1  0
 19 20  1  0
 20 21  1  0
 21 22  1  0
 22 23  1  0
 14 24  1  0
 24 25  1  0
  7  3  1  0
 25 11  1  0
 23 18  1  0
M  END
>  <energy_score>  (2136) 
-8.424704

>  <inchikey>  (2136) 
None

>  <smiles>  (2136) 
None

>  <ref_pdb>  (2136) 
A4706a

>  <alias>  (2136) 
None

>  <HIPPO Pose ID>  (2136) 
499780

>  <name>  (2136) 
P499780

>  <HIPPO Compound ID>  (2136) 
314381

>  <ref_mols>  (2136) 
A4706a,A0875a

>  <distance_score>  (2136) 
1.982361

>  <inspiration_score>  (2136) 
None

$$$$
P499781
     RDKit          3D

 25 27  0  0  0  0  0  0  0  0999 V2000
   10.9192   14.8947   18.6847 C   0  0  0  0  0  0  0  0  0  0  0  0
   10.0160   15.3593   19.6765 O   0  0  0  0  0  0  0  0  0  0  0  0
    9.7482   14.3952   20.7041 C   0  0  1  0  0  0  0  0  0  0  0  0
   10.9642   14.2489   21.6058 C   0  0  0  0  0  0  0  0  0  0  0  0
   10.9063   15.5016   22.4340 C   0  0  0  0  0  0  0  0  0  0  0  0
    9.4257   15.8771   22.4719 C   0  0  0  0  0  0  0  0  0  0  0  0
    8.6216   14.9192   21.6068 C   0  0  2  0  0  0  0  0  0  0  0  0
    7.9120   13.8923   22.3721 O   0  0  0  0  0  0  0  0  0  0  0  0
    7.0191   14.3700   23.2952 C   0  0  0  0  0  0  0  0  0  0  0  0
    6.6692   15.5457   23.3521 O   0  0  0  0  0  0  0  0  0  0  0  0
    6.4227   13.3331   24.2734 C   0  0  0  0  0  0  0  0  0  0  0  0
    7.1908   12.0422   24.6086 C   0  0  0  0  0  0  0  0  0  0  0  0
    7.8861   12.0264   25.9782 C   0  0  0  0  0  0  0  0  0  0  0  0
    8.4153   13.3610   26.3408 N   0  0  0  0  0  0  0  0  0  0  0  0
    9.7705   13.8370   25.4627 S   0  0  0  0  0  0  0  0  0  0  0  0
    9.5545   13.3347   24.1382 O   0  0  0  0  0  0  0  0  0  0  0  0
   10.0447   15.2290   25.7045 O   0  0  0  0  0  0  0  0  0  0  0  0
   11.0423   12.8913   26.0914 N   0  0  0  0  0  0  0  0  0  0  0  0
   11.7124   12.1464   25.0026 C   0  0  0  0  0  0  0  0  0  0  0  0
   12.8563   11.2537   25.4741 C   0  0  0  0  0  0  0  0  0  0  0  0
   13.5133   11.6763   26.7767 C   0  0  0  0  0  0  0  0  0  0  0  0
   13.4233   13.1491   26.8463 C   0  0  0  0  0  0  0  0  0  0  0  0
   11.9739   13.6380   26.9686 C   0  0  0  0  0  0  0  0  0  0  0  0
    7.3227   14.3891   26.4205 C   0  0  0  0  0  0  0  0  0  0  0  0
    6.0785   14.0183   25.6076 C   0  0  0  0  0  0  0  0  0  0  0  0
  1  2  1  0
  3  2  1  6
  3  4  1  0
  4  5  1  0
  5  6  1  0
  6  7  1  0
  7  8  1  1
  8  9  1  0
  9 10  2  0
  9 11  1  0
 11 12  1  0
 12 13  1  0
 13 14  1  0
 14 15  1  0
 15 16  2  0
 15 17  2  0
 15 18  1  0
 18 19  1  0
 19 20  1  0
 20 21  1  0
 21 22  1  0
 22 23  1  0
 14 24  1  0
 24 25  1  0
  7  3  1  0
 25 11  1  0
 23 18  1  0
M  END
>  <energy_score>  (2137) 
-25.710006

>  <inchikey>  (2137) 
None

>  <smiles>  (2137) 
None

>  <ref_pdb>  (2137) 
A4706a

>  <alias>  (2137) 
None

>  <HIPPO Pose ID>  (2137) 
499781

>  <name>  (2137) 
P499781

>  <HIPPO Compound ID>  (2137) 
314381

>  <ref_mols>  (2137) 
A0875a,A4706a

>  <distance_score>  (2137) 
1.530288

>  <inspiration_score>  (2137) 
None

$$$$
P499782
     RDKit          3D

 25 27  0  0  0  0  0  0  0  0999 V2000
   10.8693   14.9456   18.7494 C   0  0  0  0  0  0  0  0  0  0  0  0
    9.7666   14.9197   19.6311 O   0  0  0  0  0  0  0  0  0  0  0  0
    9.8211   15.7262   20.8023 C   0  0  2  0  0  0  0  0  0  0  0  0
   11.2061   15.7733   21.4539 C   0  0  0  0  0  0  0  0  0  0  0  0
   11.3753   14.4091   22.0902 C   0  0  0  0  0  0  0  0  0  0  0  0
    9.9758   13.8336   22.1749 C   0  0  0  0  0  0  0  0  0  0  0  0
    9.0279   15.0051   21.9226 C   0  0  2  0  0  0  0  0  0  0  0  0
    7.6958   14.5566   21.5708 O   0  0  0  0  0  0  0  0  0  0  0  0
    6.8514   13.9090   22.4239 C   0  0  0  0  0  0  0  0  0  0  0  0
    5.8076   13.4095   22.0121 O   0  0  0  0  0  0  0  0  0  0  0  0
    7.2688   13.7140   23.8644 C   0  0  0  0  0  0  0  0  0  0  0  0
    7.4991   12.2437   24.2168 C   0  0  0  0  0  0  0  0  0  0  0  0
    8.1335   12.0218   25.5796 C   0  0  0  0  0  0  0  0  0  0  0  0
    8.2822   13.2794   26.3104 N   0  0  0  0  0  0  0  0  0  0  0  0
    9.6928   14.1897   26.2179 S   0  0  0  0  0  0  0  0  0  0  0  0
    9.6404   15.1136   27.3160 O   0  0  0  0  0  0  0  0  0  0  0  0
    9.8800   14.7240   24.9005 O   0  0  0  0  0  0  0  0  0  0  0  0
   10.9758   13.0508   26.4721 N   0  0  0  0  0  0  0  0  0  0  0  0
   11.6322   12.6712   25.1794 C   0  0  0  0  0  0  0  0  0  0  0  0
   12.8001   11.7295   25.3788 C   0  0  0  0  0  0  0  0  0  0  0  0
   13.8525   12.2993   26.2933 C   0  0  0  0  0  0  0  0  0  0  0  0
   13.2327   12.8070   27.5749 C   0  0  0  0  0  0  0  0  0  0  0  0
   11.9795   13.6652   27.3922 C   0  0  0  0  0  0  0  0  0  0  0  0
    6.9976   14.0614   26.3523 C   0  0  0  0  0  0  0  0  0  0  0  0
    6.4318   14.3692   24.9499 C   0  0  0  0  0  0  0  0  0  0  0  0
  1  2  1  0
  3  2  1  6
  3  4  1  0
  4  5  1  0
  5  6  1  0
  6  7  1  0
  7  8  1  6
  8  9  1  0
  9 10  2  0
  9 11  1  0
 11 12  1  0
 12 13  1  0
 13 14  1  0
 14 15  1  0
 15 16  2  0
 15 17  2  0
 15 18  1  0
 18 19  1  0
 19 20  1  0
 20 21  1  0
 21 22  1  0
 22 23  1  0
 14 24  1  0
 24 25  1  0
  7  3  1  0
 25 11  1  0
 23 18  1  0
M  END
>  <energy_score>  (2138) 
-20.954021

>  <inchikey>  (2138) 
None

>  <smiles>  (2138) 
None

>  <ref_pdb>  (2138) 
A4706a

>  <alias>  (2138) 
None

>  <HIPPO Pose ID>  (2138) 
499782

>  <name>  (2138) 
P499782

>  <HIPPO Compound ID>  (2138) 
314381

>  <ref_mols>  (2138) 
A4706a,A0875a

>  <distance_score>  (2138) 
1.749004

>  <inspiration_score>  (2138) 
None

$$$$
P499783
     RDKit          3D

 25 27  0  0  0  0  0  0  0  0999 V2000
   10.8841   15.2636   18.5256 C   0  0  0  0  0  0  0  0  0  0  0  0
   10.0340   15.7330   19.5785 O   0  0  0  0  0  0  0  0  0  0  0  0
   10.1239   14.8058   20.6312 C   0  0  1  0  0  0  0  0  0  0  0  0
   11.4311   15.0281   21.3968 C   0  0  0  0  0  0  0  0  0  0  0  0
   11.2476   14.2564   22.6759 C   0  0  0  0  0  0  0  0  0  0  0  0
    9.8137   13.7669   22.6134 C   0  0  0  0  0  0  0  0  0  0  0  0
    9.0781   14.8002   21.7574 C   0  0  2  0  0  0  0  0  0  0  0  0
    7.7568   14.3411   21.3706 O   0  0  0  0  0  0  0  0  0  0  0  0
    6.6537   14.4303   22.1842 C   0  0  0  0  0  0  0  0  0  0  0  0
    5.5196   14.4306   21.7164 O   0  0  0  0  0  0  0  0  0  0  0  0
    6.8910   14.4150   23.6800 C   0  0  0  0  0  0  0  0  0  0  0  0
    6.8423   12.9691   24.1936 C   0  0  0  0  0  0  0  0  0  0  0  0
    6.9546   12.8756   25.7106 C   0  0  0  0  0  0  0  0  0  0  0  0
    7.5282   14.0962   26.2873 N   0  0  0  0  0  0  0  0  0  0  0  0
    9.1479   14.5573   26.3224 S   0  0  0  0  0  0  0  0  0  0  0  0
    9.3066   15.2912   27.5538 O   0  0  0  0  0  0  0  0  0  0  0  0
    9.4971   15.2261   25.0947 O   0  0  0  0  0  0  0  0  0  0  0  0
   10.1775   13.2492   26.4379 N   0  0  0  0  0  0  0  0  0  0  0  0
   11.5729   13.6413   26.7799 C   0  0  0  0  0  0  0  0  0  0  0  0
   12.6321   13.1593   25.8093 C   0  0  0  0  0  0  0  0  0  0  0  0
   12.4921   11.6992   25.5593 C   0  0  0  0  0  0  0  0  0  0  0  0
   11.1154   11.3967   25.0217 C   0  0  0  0  0  0  0  0  0  0  0  0
    9.9413   12.0083   25.7256 C   0  0  0  0  0  0  0  0  0  0  0  0
    6.5849   15.2579   26.0438 C   0  0  0  0  0  0  0  0  0  0  0  0
    6.0146   15.2593   24.5986 C   0  0  0  0  0  0  0  0  0  0  0  0
  1  2  1  0
  3  2  1  6
  3  4  1  0
  4  5  1  0
  5  6  1  0
  6  7  1  0
  7  8  1  6
  8  9  1  0
  9 10  2  0
  9 11  1  0
 11 12  1  0
 12 13  1  0
 13 14  1  0
 14 15  1  0
 15 16  2  0
 15 17  2  0
 15 18  1  0
 18 19  1  0
 19 20  1  0
 20 21  1  0
 21 22  1  0
 22 23  1  0
 14 24  1  0
 24 25  1  0
  7  3  1  0
 25 11  1  0
 23 18  1  0
M  END
>  <energy_score>  (2139) 
-6.014597

>  <inchikey>  (2139) 
None

>  <smiles>  (2139) 
None

>  <ref_pdb>  (2139) 
A4706a

>  <alias>  (2139) 
None

>  <HIPPO Pose ID>  (2139) 
499783

>  <name>  (2139) 
P499783

>  <HIPPO Compound ID>  (2139) 
314381

>  <ref_mols>  (2139) 
A0875a,A4706a

>  <distance_score>  (2139) 
1.625662

>  <inspiration_score>  (2139) 
None

$$$$
P499784
     RDKit          3D

 25 26  0  0  0  0  0  0  0  0999 V2000
   17.1705   10.1440   30.0353 C   0  0  0  0  0  0  0  0  0  0  0  0
   17.4174   11.2997   29.0838 C   0  0  0  0  0  0  0  0  0  0  0  0
   17.0167   10.9363   27.7543 O   0  0  0  0  0  0  0  0  0  0  0  0
   15.7052   11.1238   27.4504 C   0  0  0  0  0  0  0  0  0  0  0  0
   14.8546   11.5729   28.2124 O   0  0  0  0  0  0  0  0  0  0  0  0
   15.4154   10.7111   26.0006 C   0  0  1  0  0  0  0  0  0  0  0  0
   15.7744    9.2804   25.6902 C   0  0  0  0  0  0  0  0  0  0  0  0
   14.0203   10.9235   25.6888 O   0  0  0  0  0  0  0  0  0  0  0  0
   13.8003   12.2381   25.4806 C   0  0  0  0  0  0  0  0  0  0  0  0
   14.7031   13.0620   25.4234 O   0  0  0  0  0  0  0  0  0  0  0  0
   12.3833   12.6679   25.3501 C   0  0  0  0  0  0  0  0  0  0  0  0
   12.1766   13.5651   24.1483 C   0  0  0  0  0  0  0  0  0  0  0  0
   10.8845   14.3125   24.3142 C   0  0  0  0  0  0  0  0  0  0  0  0
    9.7343   13.4466   24.7456 N   0  0  0  0  0  0  0  0  0  0  0  0
    8.4847   14.4907   25.1642 S   0  0  0  0  0  0  0  0  0  0  0  0
    7.9886   15.0628   23.9408 O   0  0  0  0  0  0  0  0  0  0  0  0
    9.0020   15.3182   26.2319 O   0  0  0  0  0  0  0  0  0  0  0  0
    7.3381   13.5126   25.8430 N   0  0  0  0  0  0  0  0  0  0  0  0
    6.7796   12.3660   25.1177 C   0  0  0  0  0  0  0  0  0  0  0  0
    6.3955   11.3629   26.2101 C   0  0  0  0  0  0  0  0  0  0  0  0
    5.3699   11.9658   27.1749 C   0  0  0  0  0  0  0  0  0  0  0  0
    5.8200   13.3223   27.7150 C   0  0  0  0  0  0  0  0  0  0  0  0
    6.2811   14.2369   26.5877 C   0  0  0  0  0  0  0  0  0  0  0  0
   10.0480   12.4049   25.7523 C   0  0  0  0  0  0  0  0  0  0  0  0
   11.2660   11.6595   25.2643 C   0  0  0  0  0  0  0  0  0  0  0  0
  1  2  1  0
  2  3  1  0
  3  4  1  0
  4  5  2  0
  4  6  1  0
  6  7  1  1
  6  8  1  0
  8  9  1  0
  9 10  2  0
  9 11  1  0
 11 12  1  0
 12 13  1  0
 13 14  1  0
 14 15  1  0
 15 16  2  0
 15 17  2  0
 15 18  1  0
 18 19  1  0
 19 20  1  0
 20 21  1  0
 21 22  1  0
 22 23  1  0
 14 24  1  0
 24 25  1  0
 25 11  1  0
 23 18  1  0
M  END
>  <energy_score>  (2140) 
-73.99122

>  <inchikey>  (2140) 
None

>  <smiles>  (2140) 
None

>  <ref_pdb>  (2140) 
A4706a

>  <alias>  (2140) 
None

>  <HIPPO Pose ID>  (2140) 
499784

>  <name>  (2140) 
P499784

>  <HIPPO Compound ID>  (2140) 
314382

>  <ref_mols>  (2140) 
A4706a,A0875a

>  <distance_score>  (2140) 
1.612828

>  <inspiration_score>  (2140) 
None

$$$$
P499785
     RDKit          3D

 25 27  0  0  0  0  0  0  0  0999 V2000
   18.1261   13.3892   29.1877 C   0  0  0  0  0  0  0  0  0  0  0  0
   17.4964   12.1158   29.1858 O   0  0  0  0  0  0  0  0  0  0  0  0
   16.5939   11.9178   28.0922 C   0  0  0  0  0  0  0  0  0  0  0  0
   15.1666   12.4125   28.4015 C   0  0  1  0  0  0  0  0  0  0  0  0
   14.3694   12.7005   27.1983 O   0  0  0  0  0  0  0  0  0  0  0  0
   14.2366   11.7337   26.2619 C   0  0  0  0  0  0  0  0  0  0  0  0
   14.8224   10.6580   26.2796 O   0  0  0  0  0  0  0  0  0  0  0  0
   13.1925   11.9957   25.1785 C   0  0  0  0  0  0  0  0  0  0  0  0
   12.8215   13.4130   24.8274 C   0  0  0  0  0  0  0  0  0  0  0  0
   11.7193   13.9707   25.7162 C   0  0  0  0  0  0  0  0  0  0  0  0
   10.4573   13.2096   25.5370 N   0  0  0  0  0  0  0  0  0  0  0  0
    9.1545   14.1489   25.0398 S   0  0  0  0  0  0  0  0  0  0  0  0
    9.0691   14.0971   23.6038 O   0  0  0  0  0  0  0  0  0  0  0  0
    9.2954   15.3945   25.7556 O   0  0  0  0  0  0  0  0  0  0  0  0
    7.8599   13.3451   25.7225 N   0  0  0  0  0  0  0  0  0  0  0  0
    7.2656   12.1921   25.0257 C   0  0  0  0  0  0  0  0  0  0  0  0
    6.6623   11.3092   26.1129 C   0  0  0  0  0  0  0  0  0  0  0  0
    5.5805   12.0676   26.8835 C   0  0  0  0  0  0  0  0  0  0  0  0
    6.0887   13.4119   27.3990 C   0  0  0  0  0  0  0  0  0  0  0  0
    6.7963   14.2075   26.3053 C   0  0  0  0  0  0  0  0  0  0  0  0
   10.6313   11.8672   24.9710 C   0  0  0  0  0  0  0  0  0  0  0  0
   11.9201   11.2988   25.5528 C   0  0  0  0  0  0  0  0  0  0  0  0
   14.3662   11.5683   29.3616 C   0  0  0  0  0  0  0  0  0  0  0  0
   14.4572   11.8600   30.8449 C   0  0  0  0  0  0  0  0  0  0  0  0
   14.9526   10.5499   30.3153 C   0  0  0  0  0  0  0  0  0  0  0  0
  1  2  1  0
  2  3  1  0
  4  3  1  6
  4  5  1  0
  5  6  1  0
  6  7  2  0
  6  8  1  0
  8  9  1  0
  9 10  1  0
 10 11  1  0
 11 12  1  0
 12 13  2  0
 12 14  2  0
 12 15  1  0
 15 16  1  0
 16 17  1  0
 17 18  1  0
 18 19  1  0
 19 20  1  0
 11 21  1  0
 21 22  1  0
  4 23  1  0
 23 24  1  0
 24 25  1  0
 22  8  1  0
 25 23  1  0
 20 15  1  0
M  END
>  <energy_score>  (2141) 
-54.935125

>  <inchikey>  (2141) 
None

>  <smiles>  (2141) 
None

>  <ref_pdb>  (2141) 
A4706a

>  <alias>  (2141) 
None

>  <HIPPO Pose ID>  (2141) 
499785

>  <name>  (2141) 
P499785

>  <HIPPO Compound ID>  (2141) 
314383

>  <ref_mols>  (2141) 
A4706a,A0875a

>  <distance_score>  (2141) 
1.441194

>  <inspiration_score>  (2141) 
None

$$$$
P499786
     RDKit          3D

 25 26  0  0  0  0  0  0  0  0999 V2000
   13.2975   12.9853   31.5160 C   0  0  0  0  0  0  0  0  0  0  0  0
   13.5918   12.1952   30.3613 O   0  0  0  0  0  0  0  0  0  0  0  0
   14.9290   12.0837   30.1024 C   0  0  0  0  0  0  0  0  0  0  0  0
   15.8139   12.5532   30.8044 O   0  0  0  0  0  0  0  0  0  0  0  0
   15.1520   11.2264   28.8365 C   0  0  2  0  0  0  0  0  0  0  0  0
   16.6167   11.3501   28.3530 C   0  0  0  0  0  0  0  0  0  0  0  0
   16.9870   10.3617   27.3323 N   0  0  0  0  0  0  0  0  0  0  0  0
   14.2224   11.3979   27.7246 O   0  0  0  0  0  0  0  0  0  0  0  0
   14.0333   12.6848   27.3749 C   0  0  0  0  0  0  0  0  0  0  0  0
   14.6093   13.6073   27.9461 O   0  0  0  0  0  0  0  0  0  0  0  0
   13.0430   12.9564   26.2481 C   0  0  0  0  0  0  0  0  0  0  0  0
   11.9391   13.8813   26.7881 C   0  0  0  0  0  0  0  0  0  0  0  0
   10.5699   13.2700   26.7058 C   0  0  0  0  0  0  0  0  0  0  0  0
   10.2306   12.9202   25.3234 N   0  0  0  0  0  0  0  0  0  0  0  0
    9.1132   13.9780   24.6380 S   0  0  0  0  0  0  0  0  0  0  0  0
    8.9380   13.6718   23.2440 O   0  0  0  0  0  0  0  0  0  0  0  0
    9.4726   15.2896   25.1121 O   0  0  0  0  0  0  0  0  0  0  0  0
    7.7718   13.4457   25.4879 N   0  0  0  0  0  0  0  0  0  0  0  0
    7.2415   12.1130   25.1364 C   0  0  0  0  0  0  0  0  0  0  0  0
    6.4838   11.5854   26.3489 C   0  0  0  0  0  0  0  0  0  0  0  0
    5.3849   12.5551   26.7825 C   0  0  0  0  0  0  0  0  0  0  0  0
    5.9209   13.9770   26.9537 C   0  0  0  0  0  0  0  0  0  0  0  0
    6.6952   14.4306   25.7168 C   0  0  0  0  0  0  0  0  0  0  0  0
   11.3602   12.5342   24.4693 C   0  0  0  0  0  0  0  0  0  0  0  0
   12.4729   11.8862   25.3306 C   0  0  0  0  0  0  0  0  0  0  0  0
  1  2  1  0
  2  3  1  0
  3  4  2  0
  3  5  1  0
  5  6  1  6
  6  7  1  0
  5  8  1  0
  8  9  1  0
  9 10  2  0
  9 11  1  0
 11 12  1  0
 12 13  1  0
 13 14  1  0
 14 15  1  0
 15 16  2  0
 15 17  2  0
 15 18  1  0
 18 19  1  0
 19 20  1  0
 20 21  1  0
 21 22  1  0
 22 23  1  0
 14 24  1  0
 24 25  1  0
 25 11  1  0
 23 18  1  0
M  END
>  <energy_score>  (2142) 
-73.810495

>  <inchikey>  (2142) 
None

>  <smiles>  (2142) 
None

>  <ref_pdb>  (2142) 
A4706a

>  <alias>  (2142) 
None

>  <HIPPO Pose ID>  (2142) 
499786

>  <name>  (2142) 
P499786

>  <HIPPO Compound ID>  (2142) 
314384

>  <ref_mols>  (2142) 
A4706a,A0875a

>  <distance_score>  (2142) 
1.957077

>  <inspiration_score>  (2142) 
None

$$$$
P499787
     RDKit          3D

 25 28  0  0  0  0  0  0  0  0999 V2000
    7.0725   13.0262   21.9768 O   0  0  0  0  0  0  0  0  0  0  0  0
    7.4072   13.8103   22.8651 C   0  0  0  0  0  0  0  0  0  0  0  0
    8.6485   14.3865   22.9260 O   0  0  0  0  0  0  0  0  0  0  0  0
    9.5617   13.9615   21.8581 C   0  0  1  0  0  0  0  0  0  0  0  0
    9.2826   14.6921   20.5393 C   0  0  0  0  0  0  0  0  0  0  0  0
    9.7062   16.1543   20.5393 C   0  0  0  0  0  0  0  0  0  0  0  0
   10.6271   16.4560   21.7001 C   0  0  0  0  0  0  0  0  0  0  0  0
   11.6382   15.4035   21.9131 C   0  0  1  0  0  0  0  0  0  0  0  0
   11.5912   14.7758   23.1955 O   0  0  0  0  0  0  0  0  0  0  0  0
   11.0517   14.0508   22.1034 C   0  0  1  0  0  0  0  0  0  0  0  0
    6.4067   14.0543   23.9931 C   0  0  0  0  0  0  0  0  0  0  0  0
    6.3333   12.8183   24.9400 C   0  0  0  0  0  0  0  0  0  0  0  0
    7.3321   12.8547   26.1061 C   0  0  0  0  0  0  0  0  0  0  0  0
    8.1599   14.0264   25.8668 N   0  0  0  0  0  0  0  0  0  0  0  0
    9.7525   14.1471   26.2490 S   0  0  0  0  0  0  0  0  0  0  0  0
    9.8393   14.2457   27.6834 O   0  0  0  0  0  0  0  0  0  0  0  0
   10.3060   15.1874   25.4216 O   0  0  0  0  0  0  0  0  0  0  0  0
   10.4272   12.6705   25.8272 N   0  0  0  0  0  0  0  0  0  0  0  0
   10.1271   12.0897   24.5145 C   0  0  0  0  0  0  0  0  0  0  0  0
   10.2458   10.5888   24.6482 C   0  0  0  0  0  0  0  0  0  0  0  0
   11.5984   10.2163   25.2427 C   0  0  0  0  0  0  0  0  0  0  0  0
   12.5496   11.4129   25.5138 C   0  0  0  0  0  0  0  0  0  0  0  0
   11.8784   12.6353   26.1286 C   0  0  0  0  0  0  0  0  0  0  0  0
    7.3771   15.2640   25.9890 C   0  0  0  0  0  0  0  0  0  0  0  0
    6.5523   15.3851   24.7220 C   0  0  0  0  0  0  0  0  0  0  0  0
  1  2  2  0
  2  3  1  0
  4  3  1  1
  4  5  1  0
  5  6  1  0
  6  7  1  0
  8  7  1  1
  8  9  1  0
 10  9  1  1
  2 11  1  0
 11 12  1  0
 12 13  1  0
 13 14  1  0
 14 15  1  0
 15 16  2  0
 15 17  2  0
 15 18  1  0
 18 19  1  0
 19 20  1  0
 20 21  1  0
 21 22  1  0
 22 23  1  0
 14 24  1  0
 24 25  1  0
 10  4  1  0
 25 11  1  0
 10  8  1  0
 23 18  1  0
M  END
>  <energy_score>  (2143) 
-35.436089

>  <inchikey>  (2143) 
None

>  <smiles>  (2143) 
None

>  <ref_pdb>  (2143) 
A4706a

>  <alias>  (2143) 
None

>  <HIPPO Pose ID>  (2143) 
499787

>  <name>  (2143) 
P499787

>  <HIPPO Compound ID>  (2143) 
314386

>  <ref_mols>  (2143) 
A4706a,A0875a

>  <distance_score>  (2143) 
1.720056

>  <inspiration_score>  (2143) 
None

$$$$
P499788
     RDKit          3D

 25 27  0  0  0  0  0  0  0  0999 V2000
    6.4310   14.2473   21.8375 O   0  0  0  0  0  0  0  0  0  0  0  0
    6.8519   14.7400   22.8782 C   0  0  0  0  0  0  0  0  0  0  0  0
    8.0094   15.4276   23.0304 O   0  0  0  0  0  0  0  0  0  0  0  0
    8.9215   15.7698   21.9377 C   0  0  2  0  0  0  0  0  0  0  0  0
    8.8656   14.8975   20.6930 C   0  0  0  0  0  0  0  0  0  0  0  0
    9.8630   15.2986   19.6948 N   0  0  0  0  0  0  0  0  0  0  0  0
   11.1865   14.7584   20.0084 C   0  0  0  0  0  0  0  0  0  0  0  0
   11.3155   14.0370   21.3509 C   0  0  0  0  0  0  0  0  0  0  0  0
   11.2876   14.8486   22.5009 O   0  0  0  0  0  0  0  0  0  0  0  0
   10.3633   15.9173   22.4961 C   0  0  0  0  0  0  0  0  0  0  0  0
    6.0790   14.5966   24.1948 C   0  0  0  0  0  0  0  0  0  0  0  0
    5.9270   13.1148   24.5925 C   0  0  0  0  0  0  0  0  0  0  0  0
    6.6656   12.7397   25.8713 C   0  0  0  0  0  0  0  0  0  0  0  0
    7.9959   13.3803   25.8960 N   0  0  0  0  0  0  0  0  0  0  0  0
    9.1493   12.6507   24.9053 S   0  0  0  0  0  0  0  0  0  0  0  0
    9.1876   11.2580   25.2787 O   0  0  0  0  0  0  0  0  0  0  0  0
    8.9216   13.0268   23.5381 O   0  0  0  0  0  0  0  0  0  0  0  0
   10.5791   13.3533   25.4289 N   0  0  0  0  0  0  0  0  0  0  0  0
   10.7628   13.3139   26.8822 C   0  0  0  0  0  0  0  0  0  0  0  0
   12.1992   13.5162   27.2805 C   0  0  0  0  0  0  0  0  0  0  0  0
   13.1609   12.5168   26.6475 C   0  0  0  0  0  0  0  0  0  0  0  0
   12.6135   11.9297   25.3616 C   0  0  0  0  0  0  0  0  0  0  0  0
   11.7671   12.9582   24.6305 C   0  0  0  0  0  0  0  0  0  0  0  0
    7.9334   14.8593   25.9165 C   0  0  0  0  0  0  0  0  0  0  0  0
    6.6270   15.4134   25.3617 C   0  0  0  0  0  0  0  0  0  0  0  0
  1  2  2  0
  2  3  1  0
  4  3  1  1
  4  5  1  0
  5  6  1  0
  6  7  1  0
  7  8  1  0
  8  9  1  0
  9 10  1  0
  2 11  1  0
 11 12  1  0
 12 13  1  0
 13 14  1  0
 14 15  1  0
 15 16  2  0
 15 17  2  0
 15 18  1  0
 18 19  1  0
 19 20  1  0
 20 21  1  0
 21 22  1  0
 22 23  1  0
 14 24  1  0
 24 25  1  0
 10  4  1  0
 25 11  1  0
 23 18  1  0
M  END
>  <energy_score>  (2144) 
-65.119291

>  <inchikey>  (2144) 
None

>  <smiles>  (2144) 
None

>  <ref_pdb>  (2144) 
A4706a

>  <alias>  (2144) 
None

>  <HIPPO Pose ID>  (2144) 
499788

>  <name>  (2144) 
P499788

>  <HIPPO Compound ID>  (2144) 
314387

>  <ref_mols>  (2144) 
A4706a,A0875a

>  <distance_score>  (2144) 
1.988022

>  <inspiration_score>  (2144) 
None

$$$$
P499789
     RDKit          3D

 25 27  0  0  0  0  0  0  0  0999 V2000
    5.4778   15.6424   22.3203 O   0  0  0  0  0  0  0  0  0  0  0  0
    6.6588   15.4653   22.6061 C   0  0  0  0  0  0  0  0  0  0  0  0
    7.6745   15.9237   21.8082 O   0  0  0  0  0  0  0  0  0  0  0  0
    8.9657   15.2461   21.5749 C   0  0  1  0  0  0  0  0  0  0  0  0
    9.3200   15.4217   20.0777 C   0  0  0  0  0  0  0  0  0  0  0  0
   10.4174   14.7045   19.4437 N   0  0  0  0  0  0  0  0  0  0  0  0
   11.6484   14.6310   20.2029 C   0  0  0  0  0  0  0  0  0  0  0  0
   11.4540   14.0503   21.5973 C   0  0  0  0  0  0  0  0  0  0  0  0
   11.2962   15.0771   22.5557 O   0  0  0  0  0  0  0  0  0  0  0  0
   10.1235   15.8609   22.3681 C   0  0  0  0  0  0  0  0  0  0  0  0
    7.0586   14.7462   23.8748 C   0  0  0  0  0  0  0  0  0  0  0  0
    6.9975   13.2210   23.7031 C   0  0  0  0  0  0  0  0  0  0  0  0
    7.2233   12.4259   24.9956 C   0  0  0  0  0  0  0  0  0  0  0  0
    7.9087   13.2500   26.0159 N   0  0  0  0  0  0  0  0  0  0  0  0
    9.5048   13.7456   25.7042 S   0  0  0  0  0  0  0  0  0  0  0  0
    9.6646   13.9035   24.2851 O   0  0  0  0  0  0  0  0  0  0  0  0
    9.8003   14.8234   26.6157 O   0  0  0  0  0  0  0  0  0  0  0  0
   10.5734   12.4686   26.0733 N   0  0  0  0  0  0  0  0  0  0  0  0
   11.9495   13.0938   26.1295 C   0  0  0  0  0  0  0  0  0  0  0  0
   13.0422   12.0899   26.4131 C   0  0  0  0  0  0  0  0  0  0  0  0
   13.0069   10.9970   25.3692 C   0  0  0  0  0  0  0  0  0  0  0  0
   11.6105   10.3350   25.2554 C   0  0  0  0  0  0  0  0  0  0  0  0
   10.4978   11.3538   25.0749 C   0  0  0  0  0  0  0  0  0  0  0  0
    6.9734   14.3940   26.3914 C   0  0  0  0  0  0  0  0  0  0  0  0
    6.3131   15.0789   25.1654 C   0  0  0  0  0  0  0  0  0  0  0  0
  1  2  2  0
  2  3  1  0
  4  3  1  6
  4  5  1  0
  5  6  1  0
  6  7  1  0
  7  8  1  0
  8  9  1  0
  9 10  1  0
  2 11  1  0
 11 12  1  0
 12 13  1  0
 13 14  1  0
 14 15  1  0
 15 16  2  0
 15 17  2  0
 15 18  1  0
 18 19  1  0
 19 20  1  0
 20 21  1  0
 21 22  1  0
 22 23  1  0
 14 24  1  0
 24 25  1  0
 10  4  1  0
 25 11  1  0
 23 18  1  0
M  END
>  <energy_score>  (2145) 
-37.751318

>  <inchikey>  (2145) 
None

>  <smiles>  (2145) 
None

>  <ref_pdb>  (2145) 
A4706a

>  <alias>  (2145) 
None

>  <HIPPO Pose ID>  (2145) 
499789

>  <name>  (2145) 
P499789

>  <HIPPO Compound ID>  (2145) 
314387

>  <ref_mols>  (2145) 
A0875a,A4706a

>  <distance_score>  (2145) 
1.794061

>  <inspiration_score>  (2145) 
None

$$$$
P499790
     RDKit          3D

 25 27  0  0  0  0  0  0  0  0999 V2000
   10.8508   14.6821   18.5809 C   0  0  0  0  0  0  0  0  0  0  0  0
    9.8334   14.9533   19.5860 N   0  0  0  0  0  0  0  0  0  0  0  0
   10.4526   15.2171   20.8537 C   0  0  2  0  0  0  0  0  0  0  0  0
   11.0382   14.0625   21.6398 C   0  0  0  0  0  0  0  0  0  0  0  0
   11.5376   14.6705   22.8371 O   0  0  0  0  0  0  0  0  0  0  0  0
   10.8643   15.9387   22.9396 C   0  0  0  0  0  0  0  0  0  0  0  0
    9.7118   16.0027   21.9213 C   0  0  2  0  0  0  0  0  0  0  0  0
    8.4978   15.6094   22.6291 O   0  0  0  0  0  0  0  0  0  0  0  0
    7.6803   14.5600   22.4361 C   0  0  0  0  0  0  0  0  0  0  0  0
    7.6796   13.8313   21.4530 O   0  0  0  0  0  0  0  0  0  0  0  0
    6.7144   14.2893   23.6412 C   0  0  0  0  0  0  0  0  0  0  0  0
    6.8796   12.8122   24.0990 C   0  0  0  0  0  0  0  0  0  0  0  0
    7.1779   12.4878   25.5587 C   0  0  0  0  0  0  0  0  0  0  0  0
    7.7996   13.6178   26.2592 N   0  0  0  0  0  0  0  0  0  0  0  0
    9.3655   14.0796   25.8277 S   0  0  0  0  0  0  0  0  0  0  0  0
    9.6621   15.2805   26.5705 O   0  0  0  0  0  0  0  0  0  0  0  0
    9.4454   14.0536   24.3996 O   0  0  0  0  0  0  0  0  0  0  0  0
   10.3845   12.8599   26.3541 N   0  0  0  0  0  0  0  0  0  0  0  0
   11.7379   13.3653   26.7457 C   0  0  0  0  0  0  0  0  0  0  0  0
   12.7560   13.3216   25.6161 C   0  0  0  0  0  0  0  0  0  0  0  0
   12.7078   12.0975   24.7553 C   0  0  0  0  0  0  0  0  0  0  0  0
   11.8148   11.0946   25.4115 C   0  0  0  0  0  0  0  0  0  0  0  0
   10.4106   11.6499   25.4781 C   0  0  0  0  0  0  0  0  0  0  0  0
    6.8242   14.7463   26.2094 C   0  0  0  0  0  0  0  0  0  0  0  0
    6.7165   15.3163   24.7940 C   0  0  0  0  0  0  0  0  0  0  0  0
  1  2  1  0
  3  2  1  6
  3  4  1  0
  4  5  1  0
  5  6  1  0
  6  7  1  0
  7  8  1  1
  8  9  1  0
  9 10  2  0
  9 11  1  0
 11 12  1  0
 12 13  1  0
 13 14  1  0
 14 15  1  0
 15 16  2  0
 15 17  2  0
 15 18  1  0
 18 19  1  0
 19 20  1  0
 20 21  1  0
 21 22  1  0
 22 23  1  0
 14 24  1  0
 24 25  1  0
  7  3  1  0
 25 11  1  0
 23 18  1  0
M  END
>  <energy_score>  (2146) 
-20.713182

>  <inchikey>  (2146) 
None

>  <smiles>  (2146) 
None

>  <ref_pdb>  (2146) 
A4706a

>  <alias>  (2146) 
None

>  <HIPPO Pose ID>  (2146) 
499790

>  <name>  (2146) 
P499790

>  <HIPPO Compound ID>  (2146) 
314388

>  <ref_mols>  (2146) 
A4706a,A0875a

>  <distance_score>  (2146) 
1.326442

>  <inspiration_score>  (2146) 
None

$$$$
P499791
     RDKit          3D

 25 27  0  0  0  0  0  0  0  0999 V2000
   11.3396   14.6054   18.9542 C   0  0  0  0  0  0  0  0  0  0  0  0
   10.0154   14.8209   19.4817 N   0  0  0  0  0  0  0  0  0  0  0  0
    9.9086   14.8786   20.9540 C   0  0  1  0  0  0  0  0  0  0  0  0
   10.8671   15.8961   21.5443 C   0  0  0  0  0  0  0  0  0  0  0  0
   10.2695   17.1602   21.3070 O   0  0  0  0  0  0  0  0  0  0  0  0
    8.8607   16.9893   21.0893 C   0  0  0  0  0  0  0  0  0  0  0  0
    8.5515   15.5058   21.2949 C   0  0  2  0  0  0  0  0  0  0  0  0
    8.0973   15.3312   22.6535 O   0  0  0  0  0  0  0  0  0  0  0  0
    7.0565   14.4655   22.8617 C   0  0  0  0  0  0  0  0  0  0  0  0
    6.6395   13.6519   22.0435 O   0  0  0  0  0  0  0  0  0  0  0  0
    6.3938   14.7014   24.2293 C   0  0  0  0  0  0  0  0  0  0  0  0
    5.6445   13.4585   24.7566 C   0  0  0  0  0  0  0  0  0  0  0  0
    6.4788   12.4167   25.5101 C   0  0  0  0  0  0  0  0  0  0  0  0
    7.7312   12.9984   26.0631 N   0  0  0  0  0  0  0  0  0  0  0  0
    9.0806   12.5378   25.1834 S   0  0  0  0  0  0  0  0  0  0  0  0
    9.4187   11.2103   25.6175 O   0  0  0  0  0  0  0  0  0  0  0  0
    8.8051   12.7983   23.7948 O   0  0  0  0  0  0  0  0  0  0  0  0
   10.2669   13.6150   25.6573 N   0  0  0  0  0  0  0  0  0  0  0  0
   11.1834   13.2669   26.7377 C   0  0  0  0  0  0  0  0  0  0  0  0
   12.2575   12.2931   26.2646 C   0  0  0  0  0  0  0  0  0  0  0  0
   12.9434   12.7048   24.9916 C   0  0  0  0  0  0  0  0  0  0  0  0
   11.9446   13.1964   23.9485 C   0  0  0  0  0  0  0  0  0  0  0  0
   10.9927   14.2066   24.5444 C   0  0  0  0  0  0  0  0  0  0  0  0
    7.5430   14.3880   26.4907 C   0  0  0  0  0  0  0  0  0  0  0  0
    7.3141   15.3011   25.3033 C   0  0  0  0  0  0  0  0  0  0  0  0
  1  2  1  0
  3  2  1  6
  3  4  1  0
  4  5  1  0
  5  6  1  0
  6  7  1  0
  7  8  1  1
  8  9  1  0
  9 10  2  0
  9 11  1  0
 11 12  1  0
 12 13  1  0
 13 14  1  0
 14 15  1  0
 15 16  2  0
 15 17  2  0
 15 18  1  0
 18 19  1  0
 19 20  1  0
 20 21  1  0
 21 22  1  0
 22 23  1  0
 14 24  1  0
 24 25  1  0
  7  3  1  0
 25 11  1  0
 23 18  1  0
M  END
>  <energy_score>  (2147) 
-28.862564

>  <inchikey>  (2147) 
None

>  <smiles>  (2147) 
None

>  <ref_pdb>  (2147) 
A4706a

>  <alias>  (2147) 
None

>  <HIPPO Pose ID>  (2147) 
499791

>  <name>  (2147) 
P499791

>  <HIPPO Compound ID>  (2147) 
314388

>  <ref_mols>  (2147) 
A4706a,A0875a

>  <distance_score>  (2147) 
1.877901

>  <inspiration_score>  (2147) 
None

$$$$
P499792
     RDKit          3D

 25 27  0  0  0  0  0  0  0  0999 V2000
   10.9518   14.9196   18.9000 C   0  0  0  0  0  0  0  0  0  0  0  0
    9.7536   14.9998   19.7054 N   0  0  0  0  0  0  0  0  0  0  0  0
    9.8021   15.7035   20.9903 C   0  0  2  0  0  0  0  0  0  0  0  0
   11.1958   15.7825   21.6609 C   0  0  0  0  0  0  0  0  0  0  0  0
   11.4121   14.5512   22.3637 O   0  0  0  0  0  0  0  0  0  0  0  0
   10.1653   13.8652   22.3073 C   0  0  0  0  0  0  0  0  0  0  0  0
    9.0729   14.8914   22.0867 C   0  0  2  0  0  0  0  0  0  0  0  0
    7.8244   14.2312   21.7926 O   0  0  0  0  0  0  0  0  0  0  0  0
    6.7360   14.5676   22.5349 C   0  0  0  0  0  0  0  0  0  0  0  0
    5.8512   15.2794   22.0672 O   0  0  0  0  0  0  0  0  0  0  0  0
    6.5640   13.9498   23.9400 C   0  0  0  0  0  0  0  0  0  0  0  0
    7.3268   12.6484   24.2318 C   0  0  0  0  0  0  0  0  0  0  0  0
    7.6310   12.3187   25.6821 C   0  0  0  0  0  0  0  0  0  0  0  0
    8.0013   13.5049   26.4402 N   0  0  0  0  0  0  0  0  0  0  0  0
    9.5088   14.2232   26.2918 S   0  0  0  0  0  0  0  0  0  0  0  0
    9.6028   15.1312   27.4075 O   0  0  0  0  0  0  0  0  0  0  0  0
    9.6728   14.7311   24.9570 O   0  0  0  0  0  0  0  0  0  0  0  0
   10.6570   12.9830   26.5413 N   0  0  0  0  0  0  0  0  0  0  0  0
   11.0211   12.1860   25.3352 C   0  0  0  0  0  0  0  0  0  0  0  0
   12.2996   12.7362   24.7320 C   0  0  0  0  0  0  0  0  0  0  0  0
   13.4677   12.3844   25.6402 C   0  0  0  0  0  0  0  0  0  0  0  0
   13.1082   12.6875   27.0888 C   0  0  0  0  0  0  0  0  0  0  0  0
   11.8697   13.5751   27.2129 C   0  0  0  0  0  0  0  0  0  0  0  0
    6.8726   14.4805   26.4255 C   0  0  0  0  0  0  0  0  0  0  0  0
    6.6705   15.0355   25.0189 C   0  0  0  0  0  0  0  0  0  0  0  0
  1  2  1  0
  3  2  1  6
  3  4  1  0
  4  5  1  0
  5  6  1  0
  6  7  1  0
  7  8  1  6
  8  9  1  0
  9 10  2  0
  9 11  1  0
 11 12  1  0
 12 13  1  0
 13 14  1  0
 14 15  1  0
 15 16  2  0
 15 17  2  0
 15 18  1  0
 18 19  1  0
 19 20  1  0
 20 21  1  0
 21 22  1  0
 22 23  1  0
 14 24  1  0
 24 25  1  0
  7  3  1  0
 25 11  1  0
 23 18  1  0
M  END
>  <energy_score>  (2148) 
-31.967081

>  <inchikey>  (2148) 
None

>  <smiles>  (2148) 
None

>  <ref_pdb>  (2148) 
A4706a

>  <alias>  (2148) 
None

>  <HIPPO Pose ID>  (2148) 
499792

>  <name>  (2148) 
P499792

>  <HIPPO Compound ID>  (2148) 
314388

>  <ref_mols>  (2148) 
A4706a,A0875a

>  <distance_score>  (2148) 
1.540808

>  <inspiration_score>  (2148) 
None

$$$$
P499793
     RDKit          3D

 25 27  0  0  0  0  0  0  0  0999 V2000
   10.9385   14.8491   18.7356 C   0  0  0  0  0  0  0  0  0  0  0  0
   10.0640   15.4744   19.7112 N   0  0  0  0  0  0  0  0  0  0  0  0
    9.7091   14.6412   20.8899 C   0  0  1  0  0  0  0  0  0  0  0  0
   10.8982   13.9554   21.5757 C   0  0  0  0  0  0  0  0  0  0  0  0
   11.4224   14.8213   22.5757 O   0  0  0  0  0  0  0  0  0  0  0  0
   10.5372   15.9409   22.6323 C   0  0  0  0  0  0  0  0  0  0  0  0
    9.1905   15.5791   21.9859 C   0  0  2  0  0  0  0  0  0  0  0  0
    8.3005   15.1094   23.0468 O   0  0  0  0  0  0  0  0  0  0  0  0
    7.3680   14.1349   22.9483 C   0  0  0  0  0  0  0  0  0  0  0  0
    7.0830   13.5199   21.9261 O   0  0  0  0  0  0  0  0  0  0  0  0
    6.6853   13.7967   24.3085 C   0  0  0  0  0  0  0  0  0  0  0  0
    6.9614   12.3253   24.7261 C   0  0  0  0  0  0  0  0  0  0  0  0
    7.8624   12.0330   25.9343 C   0  0  0  0  0  0  0  0  0  0  0  0
    8.5385   13.2477   26.4360 N   0  0  0  0  0  0  0  0  0  0  0  0
    9.8387   13.7727   25.5029 S   0  0  0  0  0  0  0  0  0  0  0  0
   10.0889   15.1515   25.8387 O   0  0  0  0  0  0  0  0  0  0  0  0
    9.5654   13.3199   24.1679 O   0  0  0  0  0  0  0  0  0  0  0  0
   11.1709   12.8525   26.0243 N   0  0  0  0  0  0  0  0  0  0  0  0
   11.8989   13.5060   27.1400 C   0  0  0  0  0  0  0  0  0  0  0  0
   13.1788   12.7485   27.5209 C   0  0  0  0  0  0  0  0  0  0  0  0
   14.0347   12.2716   26.3586 C   0  0  0  0  0  0  0  0  0  0  0  0
   13.1726   11.6557   25.2875 C   0  0  0  0  0  0  0  0  0  0  0  0
   12.0982   12.6386   24.8712 C   0  0  0  0  0  0  0  0  0  0  0  0
    7.5082   14.2830   26.7169 C   0  0  0  0  0  0  0  0  0  0  0  0
    6.8720   14.8242   25.4388 C   0  0  0  0  0  0  0  0  0  0  0  0
  1  2  1  0
  3  2  1  6
  3  4  1  0
  4  5  1  0
  5  6  1  0
  6  7  1  0
  7  8  1  1
  8  9  1  0
  9 10  2  0
  9 11  1  0
 11 12  1  0
 12 13  1  0
 13 14  1  0
 14 15  1  0
 15 16  2  0
 15 17  2  0
 15 18  1  0
 18 19  1  0
 19 20  1  0
 20 21  1  0
 21 22  1  0
 22 23  1  0
 14 24  1  0
 24 25  1  0
  7  3  1  0
 25 11  1  0
 23 18  1  0
M  END
>  <energy_score>  (2149) 
-49.397473

>  <inchikey>  (2149) 
None

>  <smiles>  (2149) 
None

>  <ref_pdb>  (2149) 
A4706a

>  <alias>  (2149) 
None

>  <HIPPO Pose ID>  (2149) 
499793

>  <name>  (2149) 
P499793

>  <HIPPO Compound ID>  (2149) 
314388

>  <ref_mols>  (2149) 
A4706a,A0875a

>  <distance_score>  (2149) 
1.382487

>  <inspiration_score>  (2149) 
None

$$$$
P499794
     RDKit          3D

 25 27  0  0  0  0  0  0  0  0999 V2000
    7.0305   16.1997   21.9988 C   0  0  0  0  0  0  0  0  0  0  0  0
    7.7714   14.8756   22.0698 C   0  0  2  0  0  0  0  0  0  0  0  0
    7.3794   14.3161   23.3434 O   0  0  0  0  0  0  0  0  0  0  0  0
    6.1503   13.7619   23.3856 C   0  0  0  0  0  0  0  0  0  0  0  0
    5.6578   13.1676   22.4351 O   0  0  0  0  0  0  0  0  0  0  0  0
    5.4791   13.8951   24.7538 C   0  0  0  0  0  0  0  0  0  0  0  0
    5.7077   12.6330   25.5751 C   0  0  0  0  0  0  0  0  0  0  0  0
    7.1567   12.5487   26.0074 C   0  0  0  0  0  0  0  0  0  0  0  0
    7.6527   13.7728   26.6720 N   0  0  0  0  0  0  0  0  0  0  0  0
    9.1659   14.4571   26.3392 S   0  0  0  0  0  0  0  0  0  0  0  0
    9.4607   15.3319   27.4486 O   0  0  0  0  0  0  0  0  0  0  0  0
    9.2073   14.9944   25.0070 O   0  0  0  0  0  0  0  0  0  0  0  0
   10.3007   13.2099   26.4173 N   0  0  0  0  0  0  0  0  0  0  0  0
   10.0391   12.1009   25.5116 C   0  0  0  0  0  0  0  0  0  0  0  0
   11.2099   11.3779   24.9584 C   0  0  0  0  0  0  0  0  0  0  0  0
   12.5663   11.6881   25.5267 C   0  0  0  0  0  0  0  0  0  0  0  0
   12.6890   13.1723   25.5388 C   0  0  0  0  0  0  0  0  0  0  0  0
   11.6893   13.7423   26.5304 C   0  0  0  0  0  0  0  0  0  0  0  0
    6.5897   14.7913   26.8801 C   0  0  0  0  0  0  0  0  0  0  0  0
    5.8948   15.1366   25.5629 C   0  0  0  0  0  0  0  0  0  0  0  0
    9.2915   15.1002   21.9841 C   0  0  2  0  0  0  0  0  0  0  0  0
    9.7939   15.5238   20.6039 C   0  0  0  0  0  0  0  0  0  0  0  0
   11.1723   14.9071   20.4971 C   0  0  0  0  0  0  0  0  0  0  0  0
   11.3408   14.1512   21.7976 C   0  0  0  0  0  0  0  0  0  0  0  0
   10.0219   13.8973   22.2747 O   0  0  0  0  0  0  0  0  0  0  0  0
  2  1  1  1
  2  3  1  0
  3  4  1  0
  4  5  2  0
  4  6  1  0
  6  7  1  0
  7  8  1  0
  8  9  1  0
  9 10  1  0
 10 11  2  0
 10 12  2  0
 10 13  1  0
 13 14  1  0
 14 15  1  0
 15 16  1  0
 16 17  1  0
 17 18  1  0
  9 19  1  0
 19 20  1  0
  2 21  1  0
 21 22  1  6
 22 23  1  0
 23 24  1  0
 24 25  1  0
 20  6  1  0
 25 21  1  0
 18 13  1  0
M  END
>  <energy_score>  (2150) 
-17.637869

>  <inchikey>  (2150) 
None

>  <smiles>  (2150) 
None

>  <ref_pdb>  (2150) 
A4706a

>  <alias>  (2150) 
None

>  <HIPPO Pose ID>  (2150) 
499794

>  <name>  (2150) 
P499794

>  <HIPPO Compound ID>  (2150) 
314389

>  <ref_mols>  (2150) 
A4706a,A0875a

>  <distance_score>  (2150) 
1.727801

>  <inspiration_score>  (2150) 
None

$$$$
P499795
     RDKit          3D

 25 27  0  0  0  0  0  0  0  0999 V2000
    7.5389   14.1273   21.6351 C   0  0  0  0  0  0  0  0  0  0  0  0
    7.7361   15.6199   21.8465 C   0  0  1  0  0  0  0  0  0  0  0  0
    7.2420   16.0358   23.1435 O   0  0  0  0  0  0  0  0  0  0  0  0
    6.1075   15.4261   23.6186 C   0  0  0  0  0  0  0  0  0  0  0  0
    4.9836   15.5407   23.1590 O   0  0  0  0  0  0  0  0  0  0  0  0
    6.5241   14.5123   24.7413 C   0  0  0  0  0  0  0  0  0  0  0  0
    6.0935   13.0528   24.7276 C   0  0  0  0  0  0  0  0  0  0  0  0
    7.2239   12.2045   25.3531 C   0  0  0  0  0  0  0  0  0  0  0  0
    8.0147   12.9817   26.3676 N   0  0  0  0  0  0  0  0  0  0  0  0
    9.5061   13.6753   25.8801 S   0  0  0  0  0  0  0  0  0  0  0  0
    9.5163   13.9129   24.4630 O   0  0  0  0  0  0  0  0  0  0  0  0
    9.8183   14.7171   26.8268 O   0  0  0  0  0  0  0  0  0  0  0  0
   10.6620   12.4437   26.0954 N   0  0  0  0  0  0  0  0  0  0  0  0
   10.5542   11.3667   25.0672 C   0  0  0  0  0  0  0  0  0  0  0  0
   11.6485   10.3272   25.2509 C   0  0  0  0  0  0  0  0  0  0  0  0
   13.0571   10.9740   25.3613 C   0  0  0  0  0  0  0  0  0  0  0  0
   13.1094   12.0915   26.3816 C   0  0  0  0  0  0  0  0  0  0  0  0
   12.0143   13.0944   26.0931 C   0  0  0  0  0  0  0  0  0  0  0  0
    7.1150   13.9568   27.0991 C   0  0  0  0  0  0  0  0  0  0  0  0
    6.5736   15.0480   26.1564 C   0  0  0  0  0  0  0  0  0  0  0  0
    9.2129   16.0626   21.5531 C   0  0  2  0  0  0  0  0  0  0  0  0
    9.7364   15.7479   20.1443 C   0  0  0  0  0  0  0  0  0  0  0  0
   11.0431   15.0199   20.3495 C   0  0  0  0  0  0  0  0  0  0  0  0
   10.9275   14.4946   21.7557 C   0  0  0  0  0  0  0  0  0  0  0  0
   10.1576   15.4681   22.4559 O   0  0  0  0  0  0  0  0  0  0  0  0
  2  1  1  1
  2  3  1  0
  3  4  1  0
  4  5  2  0
  4  6  1  0
  6  7  1  0
  7  8  1  0
  8  9  1  0
  9 10  1  0
 10 11  2  0
 10 12  2  0
 10 13  1  0
 13 14  1  0
 14 15  1  0
 15 16  1  0
 16 17  1  0
 17 18  1  0
  9 19  1  0
 19 20  1  0
  2 21  1  0
 21 22  1  6
 22 23  1  0
 23 24  1  0
 24 25  1  0
 20  6  1  0
 25 21  1  0
 18 13  1  0
M  END
>  <energy_score>  (2151) 
-4.809229

>  <inchikey>  (2151) 
None

>  <smiles>  (2151) 
None

>  <ref_pdb>  (2151) 
A4706a

>  <alias>  (2151) 
None

>  <HIPPO Pose ID>  (2151) 
499795

>  <name>  (2151) 
P499795

>  <HIPPO Compound ID>  (2151) 
314389

>  <ref_mols>  (2151) 
A0875a,A4706a

>  <distance_score>  (2151) 
1.665378

>  <inspiration_score>  (2151) 
None

$$$$
P499796
     RDKit          3D

 25 27  0  0  0  0  0  0  0  0999 V2000
    8.5775   17.5166   20.7983 C   0  0  0  0  0  0  0  0  0  0  0  0
    8.8585   16.0996   21.2926 C   0  0  2  0  0  0  0  0  0  0  0  0
    8.1559   15.8903   22.5445 O   0  0  0  0  0  0  0  0  0  0  0  0
    7.1307   14.9926   22.5907 C   0  0  0  0  0  0  0  0  0  0  0  0
    6.7165   14.3552   21.6245 O   0  0  0  0  0  0  0  0  0  0  0  0
    6.4922   14.8520   24.0049 C   0  0  0  0  0  0  0  0  0  0  0  0
    6.0854   13.3625   24.2387 C   0  0  0  0  0  0  0  0  0  0  0  0
    6.4724   12.6831   25.5534 C   0  0  0  0  0  0  0  0  0  0  0  0
    7.7240   13.2540   26.0974 N   0  0  0  0  0  0  0  0  0  0  0  0
    9.0972   12.8403   25.1932 S   0  0  0  0  0  0  0  0  0  0  0  0
    9.3528   11.4413   25.4265 O   0  0  0  0  0  0  0  0  0  0  0  0
    8.9246   13.3270   23.8522 O   0  0  0  0  0  0  0  0  0  0  0  0
   10.2788   13.7580   25.9372 N   0  0  0  0  0  0  0  0  0  0  0  0
   11.2345   14.3819   25.0575 C   0  0  0  0  0  0  0  0  0  0  0  0
   12.1482   13.3185   24.4810 C   0  0  0  0  0  0  0  0  0  0  0  0
   12.7155   12.3646   25.5252 C   0  0  0  0  0  0  0  0  0  0  0  0
   12.3978   12.8326   26.9309 C   0  0  0  0  0  0  0  0  0  0  0  0
   10.9281   13.2386   27.1264 C   0  0  0  0  0  0  0  0  0  0  0  0
    7.4776   14.6765   26.3974 C   0  0  0  0  0  0  0  0  0  0  0  0
    7.3400   15.4833   25.1254 C   0  0  0  0  0  0  0  0  0  0  0  0
   10.3846   15.9919   21.4419 C   0  0  2  0  0  0  0  0  0  0  0  0
   11.0831   15.7152   20.1346 C   0  0  0  0  0  0  0  0  0  0  0  0
   11.0303   14.2534   19.9785 C   0  0  0  0  0  0  0  0  0  0  0  0
   10.9102   13.7745   21.4101 C   0  0  0  0  0  0  0  0  0  0  0  0
   10.8124   14.9103   22.2460 O   0  0  0  0  0  0  0  0  0  0  0  0
  2  1  1  1
  2  3  1  0
  3  4  1  0
  4  5  2  0
  4  6  1  0
  6  7  1  0
  7  8  1  0
  8  9  1  0
  9 10  1  0
 10 11  2  0
 10 12  2  0
 10 13  1  0
 13 14  1  0
 14 15  1  0
 15 16  1  0
 16 17  1  0
 17 18  1  0
  9 19  1  0
 19 20  1  0
  2 21  1  0
 21 22  1  6
 22 23  1  0
 23 24  1  0
 24 25  1  0
 20  6  1  0
 25 21  1  0
 18 13  1  0
M  END
>  <energy_score>  (2152) 
-30.572374

>  <inchikey>  (2152) 
None

>  <smiles>  (2152) 
None

>  <ref_pdb>  (2152) 
A4706a

>  <alias>  (2152) 
None

>  <HIPPO Pose ID>  (2152) 
499796

>  <name>  (2152) 
P499796

>  <HIPPO Compound ID>  (2152) 
314389

>  <ref_mols>  (2152) 
A4706a,A0875a

>  <distance_score>  (2152) 
1.952816

>  <inspiration_score>  (2152) 
None

$$$$
P499797
     RDKit          3D

 25 27  0  0  0  0  0  0  0  0999 V2000
   18.8029   13.2466   27.8900 C   0  0  0  0  0  0  0  0  0  0  0  0
   17.7808   12.7049   28.2137 C   0  0  0  0  0  0  0  0  0  0  0  0
   16.5352   12.0655   28.6503 C   0  0  2  0  0  0  0  0  0  0  0  0
   15.4162   12.5219   27.8368 O   0  0  0  0  0  0  0  0  0  0  0  0
   14.9254   11.8429   26.7674 C   0  0  0  0  0  0  0  0  0  0  0  0
   15.3615   10.8071   26.2936 O   0  0  0  0  0  0  0  0  0  0  0  0
   13.7155   12.5808   26.1965 C   0  0  0  0  0  0  0  0  0  0  0  0
   12.8097   13.0604   27.3130 C   0  0  0  0  0  0  0  0  0  0  0  0
   11.3655   13.3541   26.9263 C   0  0  0  0  0  0  0  0  0  0  0  0
   11.1521   13.5230   25.4972 N   0  0  0  0  0  0  0  0  0  0  0  0
    9.7416   14.3168   25.0584 S   0  0  0  0  0  0  0  0  0  0  0  0
    9.6111   14.3352   23.6252 O   0  0  0  0  0  0  0  0  0  0  0  0
    9.7529   15.5259   25.8448 O   0  0  0  0  0  0  0  0  0  0  0  0
    8.4969   13.3646   25.7098 N   0  0  0  0  0  0  0  0  0  0  0  0
    8.1634   12.1005   25.0103 C   0  0  0  0  0  0  0  0  0  0  0  0
    7.2470   11.2736   25.9113 C   0  0  0  0  0  0  0  0  0  0  0  0
    5.9841   12.0324   26.3065 C   0  0  0  0  0  0  0  0  0  0  0  0
    6.3261   13.3994   26.8815 C   0  0  0  0  0  0  0  0  0  0  0  0
    7.2469   14.1674   25.9419 C   0  0  0  0  0  0  0  0  0  0  0  0
   11.7713   12.5891   24.5682 C   0  0  0  0  0  0  0  0  0  0  0  0
   12.8751   11.7561   25.2393 C   0  0  0  0  0  0  0  0  0  0  0  0
   16.1741   12.4978   30.0699 C   0  0  0  0  0  0  0  0  0  0  0  0
   15.2506   11.3823   30.5245 C   0  0  0  0  0  0  0  0  0  0  0  0
   15.6227   10.2034   29.7991 O   0  0  0  0  0  0  0  0  0  0  0  0
   16.6757   10.5657   28.8856 C   0  0  0  0  0  0  0  0  0  0  0  0
  1  2  3  0
  3  2  1  6
  3  4  1  0
  4  5  1  0
  5  6  2  0
  5  7  1  0
  7  8  1  0
  8  9  1  0
  9 10  1  0
 10 11  1  0
 11 12  2  0
 11 13  2  0
 11 14  1  0
 14 15  1  0
 15 16  1  0
 16 17  1  0
 17 18  1  0
 18 19  1  0
 10 20  1  0
 20 21  1  0
  3 22  1  0
 22 23  1  0
 23 24  1  0
 24 25  1  0
 25  3  1  0
 21  7  1  0
 19 14  1  0
M  END
>  <energy_score>  (2153) 
-69.866648

>  <inchikey>  (2153) 
None

>  <smiles>  (2153) 
None

>  <ref_pdb>  (2153) 
A4706a

>  <alias>  (2153) 
None

>  <HIPPO Pose ID>  (2153) 
499797

>  <name>  (2153) 
P499797

>  <HIPPO Compound ID>  (2153) 
314390

>  <ref_mols>  (2153) 
A0875a,A4706a

>  <distance_score>  (2153) 
1.724653

>  <inspiration_score>  (2153) 
None

$$$$
P499798
     RDKit          3D

 25 27  0  0  0  0  0  0  0  0999 V2000
   15.8698    9.5130   25.6869 C   0  0  0  0  0  0  0  0  0  0  0  0
   15.5486   10.3705   26.4580 C   0  0  0  0  0  0  0  0  0  0  0  0
   14.8992   11.3781   27.2940 C   0  0  1  0  0  0  0  0  0  0  0  0
   13.5509   11.3524   26.7829 O   0  0  0  0  0  0  0  0  0  0  0  0
   12.8314   12.4776   26.5937 C   0  0  0  0  0  0  0  0  0  0  0  0
   12.7351   13.3786   27.4009 O   0  0  0  0  0  0  0  0  0  0  0  0
   12.2033   12.4046   25.2129 C   0  0  0  0  0  0  0  0  0  0  0  0
   11.9769   13.8068   24.6661 C   0  0  0  0  0  0  0  0  0  0  0  0
   10.9944   13.8461   23.5136 C   0  0  0  0  0  0  0  0  0  0  0  0
    9.7488   13.1386   23.8924 N   0  0  0  0  0  0  0  0  0  0  0  0
    8.7903   13.9670   24.9961 S   0  0  0  0  0  0  0  0  0  0  0  0
    8.6091   15.2815   24.4344 O   0  0  0  0  0  0  0  0  0  0  0  0
    9.3349   13.8084   26.3237 O   0  0  0  0  0  0  0  0  0  0  0  0
    7.3242   13.1227   24.9179 N   0  0  0  0  0  0  0  0  0  0  0  0
    7.2286   11.8413   25.6776 C   0  0  0  0  0  0  0  0  0  0  0  0
    6.0402   11.7861   26.6276 C   0  0  0  0  0  0  0  0  0  0  0  0
    5.9186   13.0579   27.4508 C   0  0  0  0  0  0  0  0  0  0  0  0
    5.9071   14.3083   26.5698 C   0  0  0  0  0  0  0  0  0  0  0  0
    6.1268   13.9913   25.0927 C   0  0  0  0  0  0  0  0  0  0  0  0
   10.0100   11.7175   24.0610 C   0  0  0  0  0  0  0  0  0  0  0  0
   10.9624   11.5073   25.2229 C   0  0  0  0  0  0  0  0  0  0  0  0
   14.9844   11.1415   28.7911 C   0  0  0  0  0  0  0  0  0  0  0  0
   14.9448   12.5339   29.3762 C   0  0  0  0  0  0  0  0  0  0  0  0
   15.4108   13.4221   28.3615 O   0  0  0  0  0  0  0  0  0  0  0  0
   15.6585   12.6676   27.1602 C   0  0  0  0  0  0  0  0  0  0  0  0
  1  2  3  0
  3  2  1  6
  3  4  1  0
  4  5  1  0
  5  6  2  0
  5  7  1  0
  7  8  1  0
  8  9  1  0
  9 10  1  0
 10 11  1  0
 11 12  2  0
 11 13  2  0
 11 14  1  0
 14 15  1  0
 15 16  1  0
 16 17  1  0
 17 18  1  0
 18 19  1  0
 10 20  1  0
 20 21  1  0
  3 22  1  0
 22 23  1  0
 23 24  1  0
 24 25  1  0
 25  3  1  0
 21  7  1  0
 19 14  1  0
M  END
>  <energy_score>  (2154) 
-46.985908

>  <inchikey>  (2154) 
None

>  <smiles>  (2154) 
None

>  <ref_pdb>  (2154) 
A4706a

>  <alias>  (2154) 
None

>  <HIPPO Pose ID>  (2154) 
499798

>  <name>  (2154) 
P499798

>  <HIPPO Compound ID>  (2154) 
314390

>  <ref_mols>  (2154) 
A4706a,A0875a

>  <distance_score>  (2154) 
1.929163

>  <inspiration_score>  (2154) 
None

$$$$
P499799
     RDKit          3D

 25 27  0  0  0  0  0  0  0  0999 V2000
    8.1471   14.6319   20.7578 N   0  0  0  0  0  0  0  0  0  0  0  0
    9.3018   15.4985   20.9986 C   0  0  2  0  0  0  0  0  0  0  0  0
   10.3568   15.3249   19.9032 C   0  0  0  0  0  0  0  0  0  0  0  0
   11.7335   15.0631   20.4656 C   0  0  0  0  0  0  0  0  0  0  0  0
   11.6638   13.9825   21.3699 O   0  0  0  0  0  0  0  0  0  0  0  0
   10.9986   14.3216   22.5689 C   0  0  0  0  0  0  0  0  0  0  0  0
    9.8160   15.2878   22.4300 C   0  0  2  0  0  0  0  0  0  0  0  0
    8.7239   15.0569   23.3778 O   0  0  0  0  0  0  0  0  0  0  0  0
    8.1724   13.8244   23.4620 C   0  0  0  0  0  0  0  0  0  0  0  0
    8.4704   12.8631   22.7554 O   0  0  0  0  0  0  0  0  0  0  0  0
    7.1084   13.6771   24.5382 C   0  0  0  0  0  0  0  0  0  0  0  0
    7.2007   12.2345   25.0737 C   0  0  0  0  0  0  0  0  0  0  0  0
    8.5789   11.9923   25.7008 C   0  0  0  0  0  0  0  0  0  0  0  0
    8.9783   13.1062   26.5759 N   0  0  0  0  0  0  0  0  0  0  0  0
   10.4550   13.9001   26.4868 S   0  0  0  0  0  0  0  0  0  0  0  0
   10.5188   14.6407   25.2577 O   0  0  0  0  0  0  0  0  0  0  0  0
   10.5452   14.5969   27.7447 O   0  0  0  0  0  0  0  0  0  0  0  0
   11.6902   12.7046   26.4773 N   0  0  0  0  0  0  0  0  0  0  0  0
   12.1361   12.2749   25.1422 C   0  0  0  0  0  0  0  0  0  0  0  0
   13.2254   11.1959   25.2262 C   0  0  0  0  0  0  0  0  0  0  0  0
   14.3590   11.4151   26.1940 C   0  0  0  0  0  0  0  0  0  0  0  0
   14.2374   12.7899   26.7547 C   0  0  0  0  0  0  0  0  0  0  0  0
   12.8592   13.0204   27.3748 C   0  0  0  0  0  0  0  0  0  0  0  0
    7.8366   14.0039   26.9473 C   0  0  0  0  0  0  0  0  0  0  0  0
    7.2241   14.6561   25.7108 C   0  0  0  0  0  0  0  0  0  0  0  0
  2  1  1  6
  2  3  1  0
  3  4  1  0
  4  5  1  0
  5  6  1  0
  6  7  1  0
  7  8  1  1
  8  9  1  0
  9 10  2  0
  9 11  1  0
 11 12  1  0
 12 13  1  0
 13 14  1  0
 14 15  1  0
 15 16  2  0
 15 17  2  0
 15 18  1  0
 18 19  1  0
 19 20  1  0
 20 21  1  0
 21 22  1  0
 22 23  1  0
 14 24  1  0
 24 25  1  0
  7  2  1  0
 25 11  1  0
 23 18  1  0
M  END
>  <energy_score>  (2155) 
-40.155397

>  <inchikey>  (2155) 
None

>  <smiles>  (2155) 
None

>  <ref_pdb>  (2155) 
A4706a

>  <alias>  (2155) 
None

>  <HIPPO Pose ID>  (2155) 
499799

>  <name>  (2155) 
P499799

>  <HIPPO Compound ID>  (2155) 
314391

>  <ref_mols>  (2155) 
A0875a,A4706a

>  <distance_score>  (2155) 
1.766408

>  <inspiration_score>  (2155) 
None

$$$$
P499800
     RDKit          3D

 25 27  0  0  0  0  0  0  0  0999 V2000
    8.2728   14.9680   20.3030 N   0  0  0  0  0  0  0  0  0  0  0  0
    9.4584   15.4620   20.9318 C   0  0  2  0  0  0  0  0  0  0  0  0
   10.6523   15.0997   20.0592 C   0  0  0  0  0  0  0  0  0  0  0  0
   11.8634   14.8277   20.9125 C   0  0  0  0  0  0  0  0  0  0  0  0
   11.8484   15.6426   22.0727 O   0  0  0  0  0  0  0  0  0  0  0  0
   10.8168   15.2533   22.9791 C   0  0  0  0  0  0  0  0  0  0  0  0
    9.5095   14.8255   22.3053 C   0  0  1  0  0  0  0  0  0  0  0  0
    8.3307   15.1368   23.1282 O   0  0  0  0  0  0  0  0  0  0  0  0
    7.2517   14.2899   23.0710 C   0  0  0  0  0  0  0  0  0  0  0  0
    7.0701   13.4317   22.2042 O   0  0  0  0  0  0  0  0  0  0  0  0
    6.2884   14.4165   24.2755 C   0  0  0  0  0  0  0  0  0  0  0  0
    5.8313   13.0172   24.7561 C   0  0  0  0  0  0  0  0  0  0  0  0
    6.8059   12.2274   25.6498 C   0  0  0  0  0  0  0  0  0  0  0  0
    7.8222   13.1181   26.2690 N   0  0  0  0  0  0  0  0  0  0  0  0
    9.2265   13.3165   25.3650 S   0  0  0  0  0  0  0  0  0  0  0  0
    9.0031   12.7143   24.0800 O   0  0  0  0  0  0  0  0  0  0  0  0
    9.6528   14.6818   25.5406 O   0  0  0  0  0  0  0  0  0  0  0  0
   10.3734   12.3564   26.0868 N   0  0  0  0  0  0  0  0  0  0  0  0
   11.1500   13.0731   27.0822 C   0  0  0  0  0  0  0  0  0  0  0  0
   12.2750   13.8484   26.5089 C   0  0  0  0  0  0  0  0  0  0  0  0
   13.1052   13.0803   25.4827 C   0  0  0  0  0  0  0  0  0  0  0  0
   12.6998   11.6363   25.4611 C   0  0  0  0  0  0  0  0  0  0  0  0
   11.2050   11.5546   25.1419 C   0  0  0  0  0  0  0  0  0  0  0  0
    7.1833   14.3948   26.6971 C   0  0  0  0  0  0  0  0  0  0  0  0
    6.7404   15.2404   25.4909 C   0  0  0  0  0  0  0  0  0  0  0  0
  2  1  1  6
  2  3  1  0
  3  4  1  0
  4  5  1  0
  5  6  1  0
  6  7  1  0
  7  8  1  1
  8  9  1  0
  9 10  2  0
  9 11  1  0
 11 12  1  0
 12 13  1  0
 13 14  1  0
 14 15  1  0
 15 16  2  0
 15 17  2  0
 15 18  1  0
 18 19  1  0
 19 20  1  0
 20 21  1  0
 21 22  1  0
 22 23  1  0
 14 24  1  0
 24 25  1  0
  7  2  1  0
 25 11  1  0
 23 18  1  0
M  END
>  <energy_score>  (2156) 
-39.708498

>  <inchikey>  (2156) 
None

>  <smiles>  (2156) 
None

>  <ref_pdb>  (2156) 
A4706a

>  <alias>  (2156) 
None

>  <HIPPO Pose ID>  (2156) 
499800

>  <name>  (2156) 
P499800

>  <HIPPO Compound ID>  (2156) 
314391

>  <ref_mols>  (2156) 
A4706a,A0875a

>  <distance_score>  (2156) 
1.79337

>  <inspiration_score>  (2156) 
None

$$$$
P499801
     RDKit          3D

 25 27  0  0  0  0  0  0  0  0999 V2000
   10.2520   14.3559   19.4454 N   0  0  0  0  0  0  0  0  0  0  0  0
    9.3884   14.8581   20.5238 C   0  0  2  0  0  0  0  0  0  0  0  0
    9.8771   16.2676   20.7847 C   0  0  0  0  0  0  0  0  0  0  0  0
   11.2555   16.2054   21.4531 C   0  0  0  0  0  0  0  0  0  0  0  0
   11.3946   15.2667   22.5040 O   0  0  0  0  0  0  0  0  0  0  0  0
   10.1305   14.8272   22.9352 C   0  0  0  0  0  0  0  0  0  0  0  0
    9.4514   14.0258   21.8384 C   0  0  1  0  0  0  0  0  0  0  0  0
    8.2214   13.4149   22.3254 O   0  0  0  0  0  0  0  0  0  0  0  0
    7.2793   14.2054   22.8901 C   0  0  0  0  0  0  0  0  0  0  0  0
    7.1674   15.4006   22.6568 O   0  0  0  0  0  0  0  0  0  0  0  0
    6.3588   13.4364   23.8570 C   0  0  0  0  0  0  0  0  0  0  0  0
    6.9782   12.1848   24.5530 C   0  0  0  0  0  0  0  0  0  0  0  0
    7.6405   12.4911   25.8992 C   0  0  0  0  0  0  0  0  0  0  0  0
    8.1994   13.8221   25.7232 N   0  0  0  0  0  0  0  0  0  0  0  0
    9.5698   14.3025   26.5128 S   0  0  0  0  0  0  0  0  0  0  0  0
   10.1308   15.3858   25.7451 O   0  0  0  0  0  0  0  0  0  0  0  0
    9.2069   14.5054   27.8916 O   0  0  0  0  0  0  0  0  0  0  0  0
   10.6753   13.0115   26.4901 N   0  0  0  0  0  0  0  0  0  0  0  0
   11.9204   13.5017   27.1817 C   0  0  0  0  0  0  0  0  0  0  0  0
   13.1181   12.5806   27.0009 C   0  0  0  0  0  0  0  0  0  0  0  0
   13.4184   12.2769   25.5414 C   0  0  0  0  0  0  0  0  0  0  0  0
   12.2912   12.7803   24.6497 C   0  0  0  0  0  0  0  0  0  0  0  0
   10.9584   12.3204   25.2096 C   0  0  0  0  0  0  0  0  0  0  0  0
    7.1170   14.8632   25.7814 C   0  0  0  0  0  0  0  0  0  0  0  0
    5.9115   14.4075   24.9561 C   0  0  0  0  0  0  0  0  0  0  0  0
  2  1  1  6
  2  3  1  0
  3  4  1  0
  4  5  1  0
  5  6  1  0
  6  7  1  0
  7  8  1  1
  8  9  1  0
  9 10  2  0
  9 11  1  0
 11 12  1  0
 12 13  1  0
 13 14  1  0
 14 15  1  0
 15 16  2  0
 15 17  2  0
 15 18  1  0
 18 19  1  0
 19 20  1  0
 20 21  1  0
 21 22  1  0
 22 23  1  0
 14 24  1  0
 24 25  1  0
  7  2  1  0
 25 11  1  0
 23 18  1  0
M  END
>  <energy_score>  (2157) 
-62.785828

>  <inchikey>  (2157) 
None

>  <smiles>  (2157) 
None

>  <ref_pdb>  (2157) 
A4706a

>  <alias>  (2157) 
None

>  <HIPPO Pose ID>  (2157) 
499801

>  <name>  (2157) 
P499801

>  <HIPPO Compound ID>  (2157) 
314391

>  <ref_mols>  (2157) 
A4706a,A0875a

>  <distance_score>  (2157) 
1.94451

>  <inspiration_score>  (2157) 
None

$$$$
P499802
     RDKit          3D

 25 26  0  0  0  0  0  0  0  0999 V2000
   17.2779    9.4871   29.1762 C   0  0  0  0  0  0  0  0  0  0  0  0
   16.3635   10.4583   29.3132 C   0  0  0  0  0  0  0  0  0  0  0  0
   16.1712   11.5958   28.3440 C   0  0  1  0  0  0  0  0  0  0  0  0
   14.7696   11.6200   28.0077 O   0  0  0  0  0  0  0  0  0  0  0  0
   14.4267   12.3734   26.9255 C   0  0  0  0  0  0  0  0  0  0  0  0
   15.2115   12.9539   26.1993 O   0  0  0  0  0  0  0  0  0  0  0  0
   12.9367   12.3046   26.6879 C   0  0  0  0  0  0  0  0  0  0  0  0
   12.0978   13.4932   27.1018 C   0  0  0  0  0  0  0  0  0  0  0  0
   10.6464   13.2471   26.7538 C   0  0  0  0  0  0  0  0  0  0  0  0
   10.4530   13.0025   25.3053 N   0  0  0  0  0  0  0  0  0  0  0  0
    9.2945   14.0317   24.6425 S   0  0  0  0  0  0  0  0  0  0  0  0
    9.1365   13.7633   23.2390 O   0  0  0  0  0  0  0  0  0  0  0  0
    9.6061   15.3405   25.1556 O   0  0  0  0  0  0  0  0  0  0  0  0
    7.9568   13.4378   25.4683 N   0  0  0  0  0  0  0  0  0  0  0  0
    7.4691   12.1024   25.0635 C   0  0  0  0  0  0  0  0  0  0  0  0
    6.6623   11.5285   26.2228 C   0  0  0  0  0  0  0  0  0  0  0  0
    5.5253   12.4648   26.6296 C   0  0  0  0  0  0  0  0  0  0  0  0
    6.0266   13.8891   26.8668 C   0  0  0  0  0  0  0  0  0  0  0  0
    6.8454   14.3919   25.6788 C   0  0  0  0  0  0  0  0  0  0  0  0
   11.6953   12.8511   24.5287 C   0  0  0  0  0  0  0  0  0  0  0  0
   12.5944   11.8475   25.2689 C   0  0  0  0  0  0  0  0  0  0  0  0
   16.5769   12.9015   29.0343 C   0  0  0  0  0  0  0  0  0  0  0  0
   15.7862   13.8122   29.2743 O   0  0  0  0  0  0  0  0  0  0  0  0
   17.9105   12.9276   29.3065 O   0  0  0  0  0  0  0  0  0  0  0  0
   18.3705   14.1419   29.9024 C   0  0  0  0  0  0  0  0  0  0  0  0
  1  2  2  0
  2  3  1  0
  3  4  1  1
  4  5  1  0
  5  6  2  0
  5  7  1  0
  7  8  1  0
  8  9  1  0
  9 10  1  0
 10 11  1  0
 11 12  2  0
 11 13  2  0
 11 14  1  0
 14 15  1  0
 15 16  1  0
 16 17  1  0
 17 18  1  0
 18 19  1  0
 10 20  1  0
 20 21  1  0
  3 22  1  0
 22 23  2  0
 22 24  1  0
 24 25  1  0
 21  7  1  0
 19 14  1  0
M  END
>  <energy_score>  (2158) 
-65.284411

>  <inchikey>  (2158) 
None

>  <smiles>  (2158) 
None

>  <ref_pdb>  (2158) 
A4706a

>  <alias>  (2158) 
None

>  <HIPPO Pose ID>  (2158) 
499802

>  <name>  (2158) 
P499802

>  <HIPPO Compound ID>  (2158) 
314392

>  <ref_mols>  (2158) 
A0875a,A4706a

>  <distance_score>  (2158) 
1.747936

>  <inspiration_score>  (2158) 
None

$$$$
P499803
     RDKit          3D

 25 26  0  0  0  0  0  0  0  0999 V2000
   14.0558   10.8588   30.7661 C   0  0  0  0  0  0  0  0  0  0  0  0
   13.9701   11.2644   29.3975 O   0  0  0  0  0  0  0  0  0  0  0  0
   15.2569   11.4570   28.7985 C   0  0  2  0  0  0  0  0  0  0  0  0
   15.9714   12.6716   29.4029 C   0  0  0  0  0  0  0  0  0  0  0  0
   15.1935   11.5668   27.2280 C   0  0  1  0  0  0  0  0  0  0  0  0
   16.0636   10.4974   26.7068 C   0  0  0  0  0  0  0  0  0  0  0  0
   16.7374    9.6041   26.4028 N   0  0  0  0  0  0  0  0  0  0  0  0
   13.8787   11.4552   26.5943 O   0  0  0  0  0  0  0  0  0  0  0  0
   13.1314   12.5675   26.7795 C   0  0  0  0  0  0  0  0  0  0  0  0
   13.4358   13.4272   27.5994 O   0  0  0  0  0  0  0  0  0  0  0  0
   11.9492   12.7532   25.8364 C   0  0  0  0  0  0  0  0  0  0  0  0
   12.3426   13.4095   24.5321 C   0  0  0  0  0  0  0  0  0  0  0  0
   11.1362   14.0997   23.9002 C   0  0  0  0  0  0  0  0  0  0  0  0
    9.8917   13.2970   24.0945 N   0  0  0  0  0  0  0  0  0  0  0  0
    8.7349   14.0361   25.0499 S   0  0  0  0  0  0  0  0  0  0  0  0
    8.5125   15.3221   24.4392 O   0  0  0  0  0  0  0  0  0  0  0  0
    9.1360   13.9452   26.4336 O   0  0  0  0  0  0  0  0  0  0  0  0
    7.3522   13.0812   24.8425 N   0  0  0  0  0  0  0  0  0  0  0  0
    7.2758   11.8101   25.6255 C   0  0  0  0  0  0  0  0  0  0  0  0
    6.0759   11.7397   26.5610 C   0  0  0  0  0  0  0  0  0  0  0  0
    5.8821   13.0411   27.3203 C   0  0  0  0  0  0  0  0  0  0  0  0
    5.7614   14.2317   26.3674 C   0  0  0  0  0  0  0  0  0  0  0  0
    6.0866   13.8677   24.9184 C   0  0  0  0  0  0  0  0  0  0  0  0
   10.1634   11.8734   24.2089 C   0  0  0  0  0  0  0  0  0  0  0  0
   11.0067   11.6028   25.4590 C   0  0  0  0  0  0  0  0  0  0  0  0
  1  2  1  0
  2  3  1  0
  3  4  1  1
  3  5  1  0
  5  6  1  6
  6  7  3  0
  5  8  1  0
  8  9  1  0
  9 10  2  0
  9 11  1  0
 11 12  1  0
 12 13  1  0
 13 14  1  0
 14 15  1  0
 15 16  2  0
 15 17  2  0
 15 18  1  0
 18 19  1  0
 19 20  1  0
 20 21  1  0
 21 22  1  0
 22 23  1  0
 14 24  1  0
 24 25  1  0
 25 11  1  0
 23 18  1  0
M  END
>  <energy_score>  (2159) 
-28.880434

>  <inchikey>  (2159) 
None

>  <smiles>  (2159) 
None

>  <ref_pdb>  (2159) 
A4706a

>  <alias>  (2159) 
None

>  <HIPPO Pose ID>  (2159) 
499803

>  <name>  (2159) 
P499803

>  <HIPPO Compound ID>  (2159) 
314393

>  <ref_mols>  (2159) 
A4706a,A0875a

>  <distance_score>  (2159) 
1.90838

>  <inspiration_score>  (2159) 
None

$$$$
P499804
     RDKit          3D

 25 27  0  0  0  0  0  0  0  0999 V2000
   10.7454   14.8316   18.5638 N   0  0  0  0  0  0  0  0  0  0  0  0
    9.9145   15.6049   19.4745 C   0  0  0  0  0  0  0  0  0  0  0  0
   10.3615   15.6522   20.9241 C   0  0  2  0  0  0  0  0  0  0  0  0
   11.8246   15.2475   21.1416 C   0  0  0  0  0  0  0  0  0  0  0  0
   11.9420   14.7384   22.4676 O   0  0  0  0  0  0  0  0  0  0  0  0
   10.6272   14.7156   22.9802 C   0  0  0  0  0  0  0  0  0  0  0  0
    9.6218   14.7058   21.8510 C   0  0  1  0  0  0  0  0  0  0  0  0
    8.3197   15.1328   22.3549 O   0  0  0  0  0  0  0  0  0  0  0  0
    7.5834   14.1192   22.9015 C   0  0  0  0  0  0  0  0  0  0  0  0
    7.8374   12.9320   22.6892 O   0  0  0  0  0  0  0  0  0  0  0  0
    6.3455   14.4986   23.7496 C   0  0  0  0  0  0  0  0  0  0  0  0
    5.8129   13.2148   24.4181 C   0  0  0  0  0  0  0  0  0  0  0  0
    6.8036   12.6421   25.4417 C   0  0  0  0  0  0  0  0  0  0  0  0
    7.4061   13.6732   26.3222 N   0  0  0  0  0  0  0  0  0  0  0  0
    9.0209   14.1388   26.2952 S   0  0  0  0  0  0  0  0  0  0  0  0
    9.1760   14.9123   25.0952 O   0  0  0  0  0  0  0  0  0  0  0  0
    9.2857   14.7973   27.5516 O   0  0  0  0  0  0  0  0  0  0  0  0
   10.1297   12.8772   26.2094 N   0  0  0  0  0  0  0  0  0  0  0  0
   11.5256   13.4609   26.1598 C   0  0  0  0  0  0  0  0  0  0  0  0
   12.4765   12.7621   25.2006 C   0  0  0  0  0  0  0  0  0  0  0  0
   12.3982   11.2964   25.4787 C   0  0  0  0  0  0  0  0  0  0  0  0
   10.9899   10.7493   25.1930 C   0  0  0  0  0  0  0  0  0  0  0  0
    9.8700   11.7590   25.3049 C   0  0  0  0  0  0  0  0  0  0  0  0
    6.5406   14.9084   26.3085 C   0  0  0  0  0  0  0  0  0  0  0  0
    6.4662   15.5274   24.8844 C   0  0  0  0  0  0  0  0  0  0  0  0
  1  2  1  0
  3  2  1  6
  3  4  1  0
  4  5  1  0
  5  6  1  0
  6  7  1  0
  7  8  1  1
  8  9  1  0
  9 10  2  0
  9 11  1  0
 11 12  1  0
 12 13  1  0
 13 14  1  0
 14 15  1  0
 15 16  2  0
 15 17  2  0
 15 18  1  0
 18 19  1  0
 19 20  1  0
 20 21  1  0
 21 22  1  0
 22 23  1  0
 14 24  1  0
 24 25  1  0
  7  3  1  0
 25 11  1  0
 23 18  1  0
M  END
>  <energy_score>  (2160) 
-23.849133

>  <inchikey>  (2160) 
None

>  <smiles>  (2160) 
None

>  <ref_pdb>  (2160) 
A4706a

>  <alias>  (2160) 
None

>  <HIPPO Pose ID>  (2160) 
499804

>  <name>  (2160) 
P499804

>  <HIPPO Compound ID>  (2160) 
314395

>  <ref_mols>  (2160) 
A4706a,A0875a

>  <distance_score>  (2160) 
1.511647

>  <inspiration_score>  (2160) 
None

$$$$
P499805
     RDKit          3D

 25 27  0  0  0  0  0  0  0  0999 V2000
   11.0948   14.5242   18.4794 N   0  0  0  0  0  0  0  0  0  0  0  0
   10.1601   15.2147   19.3590 C   0  0  0  0  0  0  0  0  0  0  0  0
    9.8694   14.4146   20.6290 C   0  0  1  0  0  0  0  0  0  0  0  0
   11.1112   14.1718   21.4680 C   0  0  0  0  0  0  0  0  0  0  0  0
   11.2111   15.2391   22.4007 O   0  0  0  0  0  0  0  0  0  0  0  0
    9.9715   15.9578   22.3232 C   0  0  0  0  0  0  0  0  0  0  0  0
    8.9424   15.1335   21.5790 C   0  0  2  0  0  0  0  0  0  0  0  0
    8.2456   14.1409   22.3925 O   0  0  0  0  0  0  0  0  0  0  0  0
    7.2951   14.6173   23.2508 C   0  0  0  0  0  0  0  0  0  0  0  0
    6.9817   15.7963   23.3476 O   0  0  0  0  0  0  0  0  0  0  0  0
    6.5640   13.5051   24.0194 C   0  0  0  0  0  0  0  0  0  0  0  0
    7.3931   12.2659   24.3866 C   0  0  0  0  0  0  0  0  0  0  0  0
    7.7274   12.1268   25.8602 C   0  0  0  0  0  0  0  0  0  0  0  0
    8.0098   13.4203   26.4659 N   0  0  0  0  0  0  0  0  0  0  0  0
    9.4748   14.1820   26.1916 S   0  0  0  0  0  0  0  0  0  0  0  0
    9.5250   14.5835   24.8174 O   0  0  0  0  0  0  0  0  0  0  0  0
    9.6141   15.1576   27.2432 O   0  0  0  0  0  0  0  0  0  0  0  0
   10.6525   12.9727   26.4098 N   0  0  0  0  0  0  0  0  0  0  0  0
   11.8379   13.5566   27.1174 C   0  0  0  0  0  0  0  0  0  0  0  0
   13.0740   12.6679   27.0212 C   0  0  0  0  0  0  0  0  0  0  0  0
   13.4621   12.3605   25.5832 C   0  0  0  0  0  0  0  0  0  0  0  0
   12.3482   12.7773   24.6360 C   0  0  0  0  0  0  0  0  0  0  0  0
   11.0213   12.2593   25.1476 C   0  0  0  0  0  0  0  0  0  0  0  0
    6.8458   14.3602   26.4185 C   0  0  0  0  0  0  0  0  0  0  0  0
    5.8743   14.0421   25.2812 C   0  0  0  0  0  0  0  0  0  0  0  0
  1  2  1  0
  3  2  1  6
  3  4  1  0
  4  5  1  0
  5  6  1  0
  6  7  1  0
  7  8  1  1
  8  9  1  0
  9 10  2  0
  9 11  1  0
 11 12  1  0
 12 13  1  0
 13 14  1  0
 14 15  1  0
 15 16  2  0
 15 17  2  0
 15 18  1  0
 18 19  1  0
 19 20  1  0
 20 21  1  0
 21 22  1  0
 22 23  1  0
 14 24  1  0
 24 25  1  0
  7  3  1  0
 25 11  1  0
 23 18  1  0
M  END
>  <energy_score>  (2161) 
-32.379107

>  <inchikey>  (2161) 
None

>  <smiles>  (2161) 
None

>  <ref_pdb>  (2161) 
A4706a

>  <alias>  (2161) 
None

>  <HIPPO Pose ID>  (2161) 
499805

>  <name>  (2161) 
P499805

>  <HIPPO Compound ID>  (2161) 
314395

>  <ref_mols>  (2161) 
A4706a,A0875a

>  <distance_score>  (2161) 
1.48269

>  <inspiration_score>  (2161) 
None

$$$$
P499806
     RDKit          3D

 25 27  0  0  0  0  0  0  0  0999 V2000
   11.0058   14.5736   19.1719 N   0  0  0  0  0  0  0  0  0  0  0  0
   10.0294   15.5501   19.6315 C   0  0  0  0  0  0  0  0  0  0  0  0
    9.7559   15.6721   21.1487 C   0  0  2  0  0  0  0  0  0  0  0  0
   11.0282   15.6388   21.9824 C   0  0  0  0  0  0  0  0  0  0  0  0
   11.2291   14.3006   22.4469 O   0  0  0  0  0  0  0  0  0  0  0  0
   10.0083   13.5864   22.2552 C   0  0  0  0  0  0  0  0  0  0  0  0
    8.9468   14.5056   21.6799 C   0  0  1  0  0  0  0  0  0  0  0  0
    8.0104   14.8634   22.7389 O   0  0  0  0  0  0  0  0  0  0  0  0
    7.0781   13.9050   22.9738 C   0  0  0  0  0  0  0  0  0  0  0  0
    6.8725   12.9730   22.1954 O   0  0  0  0  0  0  0  0  0  0  0  0
    6.3182   13.9493   24.2952 C   0  0  0  0  0  0  0  0  0  0  0  0
    6.4446   12.5599   24.9645 C   0  0  0  0  0  0  0  0  0  0  0  0
    7.8294   12.3441   25.5690 C   0  0  0  0  0  0  0  0  0  0  0  0
    8.2339   13.4710   26.4247 N   0  0  0  0  0  0  0  0  0  0  0  0
    9.7150   14.2346   26.1961 S   0  0  0  0  0  0  0  0  0  0  0  0
    9.8241   15.1321   27.3223 O   0  0  0  0  0  0  0  0  0  0  0  0
    9.7754   14.7701   24.8652 O   0  0  0  0  0  0  0  0  0  0  0  0
   10.9400   13.0466   26.3905 N   0  0  0  0  0  0  0  0  0  0  0  0
   12.1080   13.6940   27.0788 C   0  0  0  0  0  0  0  0  0  0  0  0
   13.4743   13.1224   26.6928 C   0  0  0  0  0  0  0  0  0  0  0  0
   13.4070   11.6551   26.6052 C   0  0  0  0  0  0  0  0  0  0  0  0
   12.5053   11.3400   25.4364 C   0  0  0  0  0  0  0  0  0  0  0  0
   11.3684   12.3380   25.1616 C   0  0  0  0  0  0  0  0  0  0  0  0
    7.1317   14.4650   26.6414 C   0  0  0  0  0  0  0  0  0  0  0  0
    6.6662   15.0453   25.3025 C   0  0  0  0  0  0  0  0  0  0  0  0
  1  2  1  0
  3  2  1  6
  3  4  1  0
  4  5  1  0
  5  6  1  0
  6  7  1  0
  7  8  1  1
  8  9  1  0
  9 10  2  0
  9 11  1  0
 11 12  1  0
 12 13  1  0
 13 14  1  0
 14 15  1  0
 15 16  2  0
 15 17  2  0
 15 18  1  0
 18 19  1  0
 19 20  1  0
 20 21  1  0
 21 22  1  0
 22 23  1  0
 14 24  1  0
 24 25  1  0
  7  3  1  0
 25 11  1  0
 23 18  1  0
M  END
>  <energy_score>  (2162) 
-38.722284

>  <inchikey>  (2162) 
None

>  <smiles>  (2162) 
None

>  <ref_pdb>  (2162) 
A4706a

>  <alias>  (2162) 
None

>  <HIPPO Pose ID>  (2162) 
499806

>  <name>  (2162) 
P499806

>  <HIPPO Compound ID>  (2162) 
314395

>  <ref_mols>  (2162) 
A4706a,A0875a

>  <distance_score>  (2162) 
1.664501

>  <inspiration_score>  (2162) 
None

$$$$
P499807
     RDKit          3D

 25 27  0  0  0  0  0  0  0  0999 V2000
   10.8992   14.4610   18.5813 N   0  0  0  0  0  0  0  0  0  0  0  0
   10.1439   15.2495   19.5460 C   0  0  0  0  0  0  0  0  0  0  0  0
    9.8143   14.5297   20.8722 C   0  0  1  0  0  0  0  0  0  0  0  0
   11.0740   13.9682   21.5186 C   0  0  0  0  0  0  0  0  0  0  0  0
   11.5163   14.8645   22.5283 O   0  0  0  0  0  0  0  0  0  0  0  0
   10.6335   15.9860   22.4762 C   0  0  0  0  0  0  0  0  0  0  0  0
    9.2911   15.5254   21.8972 C   0  0  2  0  0  0  0  0  0  0  0  0
    8.4792   15.0373   23.0152 O   0  0  0  0  0  0  0  0  0  0  0  0
    7.4047   14.2182   22.9240 C   0  0  0  0  0  0  0  0  0  0  0  0
    7.0147   13.6821   21.8914 O   0  0  0  0  0  0  0  0  0  0  0  0
    6.6804   13.9895   24.2924 C   0  0  0  0  0  0  0  0  0  0  0  0
    6.7373   12.5158   24.7715 C   0  0  0  0  0  0  0  0  0  0  0  0
    7.6342   12.1618   25.9697 C   0  0  0  0  0  0  0  0  0  0  0  0
    8.5479   13.2752   26.3221 N   0  0  0  0  0  0  0  0  0  0  0  0
    9.8026   13.5283   25.2258 S   0  0  0  0  0  0  0  0  0  0  0  0
    9.4532   12.7646   24.0526 O   0  0  0  0  0  0  0  0  0  0  0  0
   10.0946   14.9393   25.2146 O   0  0  0  0  0  0  0  0  0  0  0  0
   11.1663   12.7641   25.8792 N   0  0  0  0  0  0  0  0  0  0  0  0
   12.1817   12.6283   24.7936 C   0  0  0  0  0  0  0  0  0  0  0  0
   13.2333   11.6476   25.2702 C   0  0  0  0  0  0  0  0  0  0  0  0
   14.0171   12.2862   26.3893 C   0  0  0  0  0  0  0  0  0  0  0  0
   13.0836   12.7981   27.4784 C   0  0  0  0  0  0  0  0  0  0  0  0
   11.7889   13.4941   27.0100 C   0  0  0  0  0  0  0  0  0  0  0  0
    7.7273   14.4758   26.6294 C   0  0  0  0  0  0  0  0  0  0  0  0
    6.9811   15.0090   25.4041 C   0  0  0  0  0  0  0  0  0  0  0  0
  1  2  1  0
  3  2  1  6
  3  4  1  0
  4  5  1  0
  5  6  1  0
  6  7  1  0
  7  8  1  1
  8  9  1  0
  9 10  2  0
  9 11  1  0
 11 12  1  0
 12 13  1  0
 13 14  1  0
 14 15  1  0
 15 16  2  0
 15 17  2  0
 15 18  1  0
 18 19  1  0
 19 20  1  0
 20 21  1  0
 21 22  1  0
 22 23  1  0
 14 24  1  0
 24 25  1  0
  7  3  1  0
 25 11  1  0
 23 18  1  0
M  END
>  <energy_score>  (2163) 
-62.395895

>  <inchikey>  (2163) 
None

>  <smiles>  (2163) 
None

>  <ref_pdb>  (2163) 
A4706a

>  <alias>  (2163) 
None

>  <HIPPO Pose ID>  (2163) 
499807

>  <name>  (2163) 
P499807

>  <HIPPO Compound ID>  (2163) 
314395

>  <ref_mols>  (2163) 
A0875a,A4706a

>  <distance_score>  (2163) 
1.437229

>  <inspiration_score>  (2163) 
None

$$$$
P499808
     RDKit          3D

 25 27  0  0  0  0  0  0  0  0999 V2000
    6.9549   13.0267   22.1291 O   0  0  0  0  0  0  0  0  0  0  0  0
    7.5605   13.4584   23.1043 C   0  0  0  0  0  0  0  0  0  0  0  0
    8.7977   14.0137   23.0498 O   0  0  0  0  0  0  0  0  0  0  0  0
    9.4075   14.1369   21.7300 C   0  0  1  0  0  0  0  0  0  0  0  0
    8.5219   15.0159   20.8538 C   0  0  0  0  0  0  0  0  0  0  0  0
    9.2402   16.0801   20.2506 O   0  0  0  0  0  0  0  0  0  0  0  0
    9.7443   16.8856   21.2953 C   0  0  0  0  0  0  0  0  0  0  0  0
   10.8492   16.1563   22.0586 C   0  0  0  0  0  0  0  0  0  0  0  0
   10.8373   14.6755   21.7901 C   0  0  2  0  0  0  0  0  0  0  0  0
   11.7588   14.4447   20.0528 Br  0  0  0  0  0  0  0  0  0  0  0  0
    6.9897   13.2944   24.4980 C   0  0  0  0  0  0  0  0  0  0  0  0
    7.4306   11.9411   25.0630 C   0  0  0  0  0  0  0  0  0  0  0  0
    8.8810   11.9873   25.5147 C   0  0  0  0  0  0  0  0  0  0  0  0
    9.1533   13.1283   26.4090 N   0  0  0  0  0  0  0  0  0  0  0  0
   10.5655   14.0254   26.2018 S   0  0  0  0  0  0  0  0  0  0  0  0
   10.6562   14.8634   27.3673 O   0  0  0  0  0  0  0  0  0  0  0  0
   10.5547   14.6106   24.8867 O   0  0  0  0  0  0  0  0  0  0  0  0
   11.7975   12.8487   26.2718 N   0  0  0  0  0  0  0  0  0  0  0  0
   12.8282   12.9946   27.3446 C   0  0  0  0  0  0  0  0  0  0  0  0
   14.2695   12.7510   26.8977 C   0  0  0  0  0  0  0  0  0  0  0  0
   14.4342   11.4626   26.1589 C   0  0  0  0  0  0  0  0  0  0  0  0
   13.3230   11.3019   25.1536 C   0  0  0  0  0  0  0  0  0  0  0  0
   12.3767   12.4907   24.9757 C   0  0  0  0  0  0  0  0  0  0  0  0
    7.9541   13.9661   26.7246 C   0  0  0  0  0  0  0  0  0  0  0  0
    7.2850   14.4544   25.4482 C   0  0  0  0  0  0  0  0  0  0  0  0
  1  2  2  0
  2  3  1  0
  4  3  1  1
  4  5  1  0
  5  6  1  0
  6  7  1  0
  7  8  1  0
  8  9  1  0
  9 10  1  6
  2 11  1  0
 11 12  1  0
 12 13  1  0
 13 14  1  0
 14 15  1  0
 15 16  2  0
 15 17  2  0
 15 18  1  0
 18 19  1  0
 19 20  1  0
 20 21  1  0
 21 22  1  0
 22 23  1  0
 14 24  1  0
 24 25  1  0
  9  4  1  0
 25 11  1  0
 23 18  1  0
M  END
>  <energy_score>  (2164) 
-49.032905

>  <inchikey>  (2164) 
None

>  <smiles>  (2164) 
None

>  <ref_pdb>  (2164) 
A4706a

>  <alias>  (2164) 
None

>  <HIPPO Pose ID>  (2164) 
499808

>  <name>  (2164) 
P499808

>  <HIPPO Compound ID>  (2164) 
314396

>  <ref_mols>  (2164) 
A4706a,A0875a

>  <distance_score>  (2164) 
1.863509

>  <inspiration_score>  (2164) 
None

$$$$
P499809
     RDKit          3D

 25 27  0  0  0  0  0  0  0  0999 V2000
    6.4645   16.1206   22.4039 O   0  0  0  0  0  0  0  0  0  0  0  0
    7.0411   15.3771   23.1846 C   0  0  0  0  0  0  0  0  0  0  0  0
    8.3338   14.9801   23.0434 O   0  0  0  0  0  0  0  0  0  0  0  0
    9.1796   15.3733   21.9135 C   0  0  2  0  0  0  0  0  0  0  0  0
    8.5797   14.9213   20.6162 C   0  0  0  0  0  0  0  0  0  0  0  0
    9.2790   15.4926   19.5164 O   0  0  0  0  0  0  0  0  0  0  0  0
   10.5715   14.9521   19.3334 C   0  0  0  0  0  0  0  0  0  0  0  0
   11.3550   14.9745   20.6171 C   0  0  0  0  0  0  0  0  0  0  0  0
   10.5153   14.6126   21.8370 C   0  0  1  0  0  0  0  0  0  0  0  0
   11.6364   14.9863   23.2996 Br  0  0  0  0  0  0  0  0  0  0  0  0
    6.3008   14.7688   24.4075 C   0  0  0  0  0  0  0  0  0  0  0  0
    6.1044   13.2418   24.3010 C   0  0  0  0  0  0  0  0  0  0  0  0
    6.6899   12.3599   25.4125 C   0  0  0  0  0  0  0  0  0  0  0  0
    7.8062   13.0365   26.1066 N   0  0  0  0  0  0  0  0  0  0  0  0
    9.1810   13.2946   25.1629 S   0  0  0  0  0  0  0  0  0  0  0  0
    8.8797   12.7608   23.8553 O   0  0  0  0  0  0  0  0  0  0  0  0
    9.5946   14.6535   25.4091 O   0  0  0  0  0  0  0  0  0  0  0  0
   10.3316   12.2496   25.8198 N   0  0  0  0  0  0  0  0  0  0  0  0
   11.6217   12.9037   26.1737 C   0  0  0  0  0  0  0  0  0  0  0  0
   12.7276   12.4840   25.2310 C   0  0  0  0  0  0  0  0  0  0  0  0
   12.9853   11.0190   25.4386 C   0  0  0  0  0  0  0  0  0  0  0  0
   11.6801   10.1811   25.2909 C   0  0  0  0  0  0  0  0  0  0  0  0
   10.4223   10.9862   25.0225 C   0  0  0  0  0  0  0  0  0  0  0  0
    7.2749   14.2569   26.7711 C   0  0  0  0  0  0  0  0  0  0  0  0
    6.8046   15.3027   25.7552 C   0  0  0  0  0  0  0  0  0  0  0  0
  1  2  2  0
  2  3  1  0
  4  3  1  1
  4  5  1  0
  5  6  1  0
  6  7  1  0
  7  8  1  0
  8  9  1  0
  9 10  1  1
  2 11  1  0
 11 12  1  0
 12 13  1  0
 13 14  1  0
 14 15  1  0
 15 16  2  0
 15 17  2  0
 15 18  1  0
 18 19  1  0
 19 20  1  0
 20 21  1  0
 21 22  1  0
 22 23  1  0
 14 24  1  0
 24 25  1  0
  9  4  1  0
 25 11  1  0
 23 18  1  0
M  END
>  <energy_score>  (2165) 
-22.174217

>  <inchikey>  (2165) 
None

>  <smiles>  (2165) 
None

>  <ref_pdb>  (2165) 
A4706a

>  <alias>  (2165) 
None

>  <HIPPO Pose ID>  (2165) 
499809

>  <name>  (2165) 
P499809

>  <HIPPO Compound ID>  (2165) 
314396

>  <ref_mols>  (2165) 
A0875a,A4706a

>  <distance_score>  (2165) 
1.823049

>  <inspiration_score>  (2165) 
None

$$$$
P499810
     RDKit          3D

 25 27  0  0  0  0  0  0  0  0999 V2000
    6.9939   15.7507   23.2979 O   0  0  0  0  0  0  0  0  0  0  0  0
    7.1435   14.5689   23.5742 C   0  0  0  0  0  0  0  0  0  0  0  0
    8.1396   13.7851   23.0777 O   0  0  0  0  0  0  0  0  0  0  0  0
    9.0356   14.2953   22.0473 C   0  0  1  0  0  0  0  0  0  0  0  0
    8.2632   14.7455   20.8348 C   0  0  0  0  0  0  0  0  0  0  0  0
    9.1404   14.9613   19.7470 O   0  0  0  0  0  0  0  0  0  0  0  0
   10.1209   15.9479   19.9619 C   0  0  0  0  0  0  0  0  0  0  0  0
   10.0986   16.5111   21.3661 C   0  0  0  0  0  0  0  0  0  0  0  0
   10.0204   15.4109   22.4070 C   0  0  2  0  0  0  0  0  0  0  0  0
   11.8264   14.7132   22.5146 Br  0  0  0  0  0  0  0  0  0  0  0  0
    6.1472   13.7892   24.4405 C   0  0  0  0  0  0  0  0  0  0  0  0
    6.5653   12.3853   24.9013 C   0  0  0  0  0  0  0  0  0  0  0  0
    7.2596   12.3370   26.2562 C   0  0  0  0  0  0  0  0  0  0  0  0
    7.7787   13.6407   26.6232 N   0  0  0  0  0  0  0  0  0  0  0  0
    9.3014   14.2334   26.3619 S   0  0  0  0  0  0  0  0  0  0  0  0
    9.7367   14.7701   27.6264 O   0  0  0  0  0  0  0  0  0  0  0  0
    9.2495   15.1047   25.2227 O   0  0  0  0  0  0  0  0  0  0  0  0
   10.3594   13.0074   25.9822 N   0  0  0  0  0  0  0  0  0  0  0  0
   11.7704   13.5297   26.0226 C   0  0  0  0  0  0  0  0  0  0  0  0
   12.7398   12.6395   25.2509 C   0  0  0  0  0  0  0  0  0  0  0  0
   12.3587   11.2052   25.5002 C   0  0  0  0  0  0  0  0  0  0  0  0
   10.8902   10.8904   25.0845 C   0  0  0  0  0  0  0  0  0  0  0  0
   10.1451   12.1750   24.7946 C   0  0  0  0  0  0  0  0  0  0  0  0
    6.7297   14.6766   26.7810 C   0  0  0  0  0  0  0  0  0  0  0  0
    5.6988   14.6096   25.6536 C   0  0  0  0  0  0  0  0  0  0  0  0
  1  2  2  0
  2  3  1  0
  4  3  1  1
  4  5  1  0
  5  6  1  0
  6  7  1  0
  7  8  1  0
  8  9  1  0
  9 10  1  6
  2 11  1  0
 11 12  1  0
 12 13  1  0
 13 14  1  0
 14 15  1  0
 15 16  2  0
 15 17  2  0
 15 18  1  0
 18 19  1  0
 19 20  1  0
 20 21  1  0
 21 22  1  0
 22 23  1  0
 14 24  1  0
 24 25  1  0
  9  4  1  0
 25 11  1  0
 23 18  1  0
M  END
>  <energy_score>  (2166) 
-24.363546

>  <inchikey>  (2166) 
None

>  <smiles>  (2166) 
None

>  <ref_pdb>  (2166) 
A4706a

>  <alias>  (2166) 
None

>  <HIPPO Pose ID>  (2166) 
499810

>  <name>  (2166) 
P499810

>  <HIPPO Compound ID>  (2166) 
314396

>  <ref_mols>  (2166) 
A4706a,A0875a

>  <distance_score>  (2166) 
1.835116

>  <inspiration_score>  (2166) 
None

$$$$
P499811
     RDKit          3D

 25 27  0  0  0  0  0  0  0  0999 V2000
   10.7681   14.7661   18.9956 N   0  0  0  0  0  0  0  0  0  0  0  0
    9.8755   15.7695   19.5383 N   0  0  0  0  0  0  0  0  0  0  0  0
    9.7802   15.7528   21.0204 C   0  0  2  0  0  0  0  0  0  0  0  0
   11.1173   15.6991   21.7768 C   0  0  0  0  0  0  0  0  0  0  0  0
   10.9961   14.7055   22.8019 O   0  0  0  0  0  0  0  0  0  0  0  0
   10.0229   13.7809   22.3119 C   0  0  0  0  0  0  0  0  0  0  0  0
    8.9700   14.5792   21.5679 C   0  0  1  0  0  0  0  0  0  0  0  0
    7.8996   14.9967   22.4722 O   0  0  0  0  0  0  0  0  0  0  0  0
    7.0005   14.0121   22.7514 C   0  0  0  0  0  0  0  0  0  0  0  0
    7.0456   12.8980   22.2333 O   0  0  0  0  0  0  0  0  0  0  0  0
    5.9000   14.3332   23.7613 C   0  0  0  0  0  0  0  0  0  0  0  0
    5.7890   13.1624   24.7874 C   0  0  0  0  0  0  0  0  0  0  0  0
    6.7845   13.2841   25.9488 C   0  0  0  0  0  0  0  0  0  0  0  0
    7.8028   14.2538   25.5031 N   0  0  0  0  0  0  0  0  0  0  0  0
    9.3685   14.2274   26.0602 S   0  0  0  0  0  0  0  0  0  0  0  0
    9.2945   14.0689   27.4897 O   0  0  0  0  0  0  0  0  0  0  0  0
   10.0726   15.3573   25.5042 O   0  0  0  0  0  0  0  0  0  0  0  0
   10.1204   12.8620   25.4268 N   0  0  0  0  0  0  0  0  0  0  0  0
   11.4757   12.7214   26.0118 C   0  0  0  0  0  0  0  0  0  0  0  0
   12.2660   11.5758   25.4156 C   0  0  0  0  0  0  0  0  0  0  0  0
   11.4400   10.2987   25.1763 C   0  0  0  0  0  0  0  0  0  0  0  0
   10.1291   10.5919   24.4816 C   0  0  0  0  0  0  0  0  0  0  0  0
    9.3589   11.6179   25.2798 C   0  0  0  0  0  0  0  0  0  0  0  0
    7.1688   15.5964   25.5536 C   0  0  0  0  0  0  0  0  0  0  0  0
    6.0745   15.6592   24.4952 C   0  0  0  0  0  0  0  0  0  0  0  0
  1  2  1  0
  3  2  1  6
  3  4  1  0
  4  5  1  0
  5  6  1  0
  6  7  1  0
  7  8  1  1
  8  9  1  0
  9 10  2  0
  9 11  1  0
 11 12  1  0
 12 13  1  0
 13 14  1  0
 14 15  1  0
 15 16  2  0
 15 17  2  0
 15 18  1  0
 18 19  1  0
 19 20  1  0
 20 21  1  0
 21 22  1  0
 22 23  1  0
 14 24  1  0
 24 25  1  0
  7  3  1  0
 25 11  1  0
 23 18  1  0
M  END
>  <energy_score>  (2167) 
-36.738162

>  <inchikey>  (2167) 
None

>  <smiles>  (2167) 
None

>  <ref_pdb>  (2167) 
A4706a

>  <alias>  (2167) 
None

>  <HIPPO Pose ID>  (2167) 
499811

>  <name>  (2167) 
P499811

>  <HIPPO Compound ID>  (2167) 
314397

>  <ref_mols>  (2167) 
A4706a,A0875a

>  <distance_score>  (2167) 
1.880201

>  <inspiration_score>  (2167) 
None

$$$$
P499812
     RDKit          3D

 25 27  0  0  0  0  0  0  0  0999 V2000
   10.7966   14.5445   18.6357 N   0  0  0  0  0  0  0  0  0  0  0  0
   10.1415   15.4000   19.5964 N   0  0  0  0  0  0  0  0  0  0  0  0
    9.7724   14.6790   20.8543 C   0  0  1  0  0  0  0  0  0  0  0  0
   10.9753   14.0005   21.5331 C   0  0  0  0  0  0  0  0  0  0  0  0
   11.4139   14.7848   22.6349 O   0  0  0  0  0  0  0  0  0  0  0  0
   10.6572   15.9903   22.5756 C   0  0  0  0  0  0  0  0  0  0  0  0
    9.3163   15.7240   21.8787 C   0  0  2  0  0  0  0  0  0  0  0  0
    8.3209   15.4055   22.9028 O   0  0  0  0  0  0  0  0  0  0  0  0
    7.1938   14.6786   22.7103 C   0  0  0  0  0  0  0  0  0  0  0  0
    6.9034   14.0935   21.6733 O   0  0  0  0  0  0  0  0  0  0  0  0
    6.2812   14.6265   23.9722 C   0  0  0  0  0  0  0  0  0  0  0  0
    5.8674   13.1895   24.3508 C   0  0  0  0  0  0  0  0  0  0  0  0
    6.8362   12.3806   25.2308 C   0  0  0  0  0  0  0  0  0  0  0  0
    7.8313   13.2558   25.9001 N   0  0  0  0  0  0  0  0  0  0  0  0
    9.2571   13.5160   25.0274 S   0  0  0  0  0  0  0  0  0  0  0  0
    9.0028   13.0276   23.6973 O   0  0  0  0  0  0  0  0  0  0  0  0
    9.6976   14.8584   25.3162 O   0  0  0  0  0  0  0  0  0  0  0  0
   10.3236   12.4228   25.7460 N   0  0  0  0  0  0  0  0  0  0  0  0
   11.6277   13.0336   26.1033 C   0  0  0  0  0  0  0  0  0  0  0  0
   12.7054   12.5839   25.1499 C   0  0  0  0  0  0  0  0  0  0  0  0
   12.9223   11.1111   25.4079 C   0  0  0  0  0  0  0  0  0  0  0  0
   11.6083   10.2904   25.2781 C   0  0  0  0  0  0  0  0  0  0  0  0
   10.3618   11.1166   25.0140 C   0  0  0  0  0  0  0  0  0  0  0  0
    7.1714   14.4896   26.3961 C   0  0  0  0  0  0  0  0  0  0  0  0
    6.7215   15.3866   25.2360 C   0  0  0  0  0  0  0  0  0  0  0  0
  1  2  1  0
  3  2  1  6
  3  4  1  0
  4  5  1  0
  5  6  1  0
  6  7  1  0
  7  8  1  1
  8  9  1  0
  9 10  2  0
  9 11  1  0
 11 12  1  0
 12 13  1  0
 13 14  1  0
 14 15  1  0
 15 16  2  0
 15 17  2  0
 15 18  1  0
 18 19  1  0
 19 20  1  0
 20 21  1  0
 21 22  1  0
 22 23  1  0
 14 24  1  0
 24 25  1  0
  7  3  1  0
 25 11  1  0
 23 18  1  0
M  END
>  <energy_score>  (2168) 
-27.075148

>  <inchikey>  (2168) 
None

>  <smiles>  (2168) 
None

>  <ref_pdb>  (2168) 
A4706a

>  <alias>  (2168) 
None

>  <HIPPO Pose ID>  (2168) 
499812

>  <name>  (2168) 
P499812

>  <HIPPO Compound ID>  (2168) 
314397

>  <ref_mols>  (2168) 
A0875a,A4706a

>  <distance_score>  (2168) 
1.399429

>  <inspiration_score>  (2168) 
None

$$$$
P499813
     RDKit          3D

 25 27  0  0  0  0  0  0  0  0999 V2000
   11.3508   14.9490   18.3156 N   0  0  0  0  0  0  0  0  0  0  0  0
   10.1343   14.6997   19.0236 N   0  0  0  0  0  0  0  0  0  0  0  0
   10.2249   15.2817   20.3416 C   0  0  2  0  0  0  0  0  0  0  0  0
   11.2898   14.6861   21.2665 C   0  0  0  0  0  0  0  0  0  0  0  0
   10.9064   15.0444   22.6005 O   0  0  0  0  0  0  0  0  0  0  0  0
    9.7508   15.8694   22.4330 C   0  0  0  0  0  0  0  0  0  0  0  0
    8.9785   15.3701   21.2371 C   0  0  2  0  0  0  0  0  0  0  0  0
    8.2815   14.1345   21.5280 O   0  0  0  0  0  0  0  0  0  0  0  0
    7.0538   14.2656   22.1424 C   0  0  0  0  0  0  0  0  0  0  0  0
    6.0036   14.3692   21.5280 O   0  0  0  0  0  0  0  0  0  0  0  0
    7.1393   14.1575   23.6512 C   0  0  0  0  0  0  0  0  0  0  0  0
    6.8295   12.7672   24.2276 C   0  0  0  0  0  0  0  0  0  0  0  0
    7.1797   12.6728   25.7170 C   0  0  0  0  0  0  0  0  0  0  0  0
    7.7766   13.9370   26.1427 N   0  0  0  0  0  0  0  0  0  0  0  0
    9.4212   14.2193   26.2334 S   0  0  0  0  0  0  0  0  0  0  0  0
    9.7712   15.3235   25.3821 O   0  0  0  0  0  0  0  0  0  0  0  0
    9.7293   14.2825   27.6401 O   0  0  0  0  0  0  0  0  0  0  0  0
   10.1943   12.8697   25.6285 N   0  0  0  0  0  0  0  0  0  0  0  0
   11.6046   12.7864   26.0777 C   0  0  0  0  0  0  0  0  0  0  0  0
   12.2312   11.5244   25.4924 C   0  0  0  0  0  0  0  0  0  0  0  0
   11.1536   10.4595   25.1096 C   0  0  0  0  0  0  0  0  0  0  0  0
   10.0984   11.0098   24.1452 C   0  0  0  0  0  0  0  0  0  0  0  0
   10.1496   12.5246   24.1891 C   0  0  0  0  0  0  0  0  0  0  0  0
    6.8761   15.1055   25.9601 C   0  0  0  0  0  0  0  0  0  0  0  0
    6.4205   15.2073   24.4890 C   0  0  0  0  0  0  0  0  0  0  0  0
  1  2  1  0
  3  2  1  6
  3  4  1  0
  4  5  1  0
  5  6  1  0
  6  7  1  0
  7  8  1  1
  8  9  1  0
  9 10  2  0
  9 11  1  0
 11 12  1  0
 12 13  1  0
 13 14  1  0
 14 15  1  0
 15 16  2  0
 15 17  2  0
 15 18  1  0
 18 19  1  0
 19 20  1  0
 20 21  1  0
 21 22  1  0
 22 23  1  0
 14 24  1  0
 24 25  1  0
  7  3  1  0
 25 11  1  0
 23 18  1  0
M  END
>  <energy_score>  (2169) 
-17.248333

>  <inchikey>  (2169) 
None

>  <smiles>  (2169) 
None

>  <ref_pdb>  (2169) 
A4706a

>  <alias>  (2169) 
None

>  <HIPPO Pose ID>  (2169) 
499813

>  <name>  (2169) 
P499813

>  <HIPPO Compound ID>  (2169) 
314397

>  <ref_mols>  (2169) 
A4706a,A0875a

>  <distance_score>  (2169) 
1.851858

>  <inspiration_score>  (2169) 
None

$$$$
P499814
     RDKit          3D

 25 27  0  0  0  0  0  0  0  0999 V2000
   10.5726   14.9334   18.4803 N   0  0  0  0  0  0  0  0  0  0  0  0
    9.7644   15.4799   19.5459 N   0  0  0  0  0  0  0  0  0  0  0  0
   10.1103   14.7893   20.8020 C   0  0  1  0  0  0  0  0  0  0  0  0
   11.6281   14.7683   21.0392 C   0  0  0  0  0  0  0  0  0  0  0  0
   11.8968   14.8245   22.4347 O   0  0  0  0  0  0  0  0  0  0  0  0
   10.6611   15.0766   23.0793 C   0  0  0  0  0  0  0  0  0  0  0  0
    9.6037   15.4865   22.0611 C   0  0  2  0  0  0  0  0  0  0  0  0
    8.2287   15.2730   22.5047 O   0  0  0  0  0  0  0  0  0  0  0  0
    7.8372   14.0703   22.9970 C   0  0  0  0  0  0  0  0  0  0  0  0
    8.4291   13.0182   22.7805 O   0  0  0  0  0  0  0  0  0  0  0  0
    6.5226   14.1069   23.8090 C   0  0  0  0  0  0  0  0  0  0  0  0
    6.3022   12.7855   24.5840 C   0  0  0  0  0  0  0  0  0  0  0  0
    6.8417   12.6895   26.0087 C   0  0  0  0  0  0  0  0  0  0  0  0
    7.3985   13.9418   26.5052 N   0  0  0  0  0  0  0  0  0  0  0  0
    8.9827   14.4613   26.4221 S   0  0  0  0  0  0  0  0  0  0  0  0
    9.1307   15.1538   25.1737 O   0  0  0  0  0  0  0  0  0  0  0  0
    9.2215   15.1978   27.6383 O   0  0  0  0  0  0  0  0  0  0  0  0
   10.0763   13.2044   26.4141 N   0  0  0  0  0  0  0  0  0  0  0  0
   11.4730   13.6455   26.6956 C   0  0  0  0  0  0  0  0  0  0  0  0
   12.5196   13.1965   25.6986 C   0  0  0  0  0  0  0  0  0  0  0  0
   12.3799   11.7449   25.4036 C   0  0  0  0  0  0  0  0  0  0  0  0
   11.0120   11.4983   24.8129 C   0  0  0  0  0  0  0  0  0  0  0  0
    9.8474   12.0365   25.5783 C   0  0  0  0  0  0  0  0  0  0  0  0
    6.4279   15.0408   26.2410 C   0  0  0  0  0  0  0  0  0  0  0  0
    6.3010   15.3189   24.7324 C   0  0  0  0  0  0  0  0  0  0  0  0
  1  2  1  0
  3  2  1  6
  3  4  1  0
  4  5  1  0
  5  6  1  0
  6  7  1  0
  7  8  1  1
  8  9  1  0
  9 10  2  0
  9 11  1  0
 11 12  1  0
 12 13  1  0
 13 14  1  0
 14 15  1  0
 15 16  2  0
 15 17  2  0
 15 18  1  0
 18 19  1  0
 19 20  1  0
 20 21  1  0
 21 22  1  0
 22 23  1  0
 14 24  1  0
 24 25  1  0
  7  3  1  0
 25 11  1  0
 23 18  1  0
M  END
>  <energy_score>  (2170) 
-25.133933

>  <inchikey>  (2170) 
None

>  <smiles>  (2170) 
None

>  <ref_pdb>  (2170) 
A4706a

>  <alias>  (2170) 
None

>  <HIPPO Pose ID>  (2170) 
499814

>  <name>  (2170) 
P499814

>  <HIPPO Compound ID>  (2170) 
314397

>  <ref_mols>  (2170) 
A0875a,A4706a

>  <distance_score>  (2170) 
1.548041

>  <inspiration_score>  (2170) 
None

$$$$
P499815
     RDKit          3D

 25 26  0  0  0  0  0  0  0  0999 V2000
    9.8418   15.6293   19.1820 C   0  0  0  0  0  0  0  0  0  0  0  0
   10.9928   15.0591   19.5457 C   0  0  0  0  0  0  0  0  0  0  0  0
   11.5969   15.1796   20.9033 C   0  0  0  0  0  0  0  0  0  0  0  0
   10.7257   15.9068   21.7550 O   0  0  0  0  0  0  0  0  0  0  0  0
   10.4777   15.3135   23.0119 C   0  0  0  0  0  0  0  0  0  0  0  0
    9.3096   14.3246   23.0389 C   0  0  2  0  0  0  0  0  0  0  0  0
    9.6306   13.1336   22.1955 C   0  0  0  0  0  0  0  0  0  0  0  0
    7.9851   14.8952   22.9020 O   0  0  0  0  0  0  0  0  0  0  0  0
    6.9650   13.9960   22.8737 C   0  0  0  0  0  0  0  0  0  0  0  0
    6.8760   13.0931   22.0430 O   0  0  0  0  0  0  0  0  0  0  0  0
    5.9454   14.0595   24.0047 C   0  0  0  0  0  0  0  0  0  0  0  0
    6.1477   12.8480   24.9556 C   0  0  0  0  0  0  0  0  0  0  0  0
    6.9269   13.1967   26.2254 C   0  0  0  0  0  0  0  0  0  0  0  0
    7.7946   14.3313   25.8806 N   0  0  0  0  0  0  0  0  0  0  0  0
    9.2814   14.5522   26.5933 S   0  0  0  0  0  0  0  0  0  0  0  0
    9.1874   14.2280   27.9861 O   0  0  0  0  0  0  0  0  0  0  0  0
    9.7840   15.8328   26.1723 O   0  0  0  0  0  0  0  0  0  0  0  0
   10.3216   13.4587   25.8506 N   0  0  0  0  0  0  0  0  0  0  0  0
   11.7216   13.7365   26.2338 C   0  0  0  0  0  0  0  0  0  0  0  0
   12.6841   13.0067   25.3199 C   0  0  0  0  0  0  0  0  0  0  0  0
   12.4352   11.5415   25.5087 C   0  0  0  0  0  0  0  0  0  0  0  0
   10.9941   11.2150   25.1069 C   0  0  0  0  0  0  0  0  0  0  0  0
    9.9367   12.0536   25.7913 C   0  0  0  0  0  0  0  0  0  0  0  0
    6.9781   15.5669   25.7856 C   0  0  0  0  0  0  0  0  0  0  0  0
    5.8715   15.3810   24.7564 C   0  0  0  0  0  0  0  0  0  0  0  0
  1  2  2  0
  2  3  1  0
  3  4  1  0
  4  5  1  0
  5  6  1  0
  6  7  1  6
  6  8  1  0
  8  9  1  0
  9 10  2  0
  9 11  1  0
 11 12  1  0
 12 13  1  0
 13 14  1  0
 14 15  1  0
 15 16  2  0
 15 17  2  0
 15 18  1  0
 18 19  1  0
 19 20  1  0
 20 21  1  0
 21 22  1  0
 22 23  1  0
 14 24  1  0
 24 25  1  0
 25 11  1  0
 23 18  1  0
M  END
>  <energy_score>  (2171) 
-29.546577

>  <inchikey>  (2171) 
None

>  <smiles>  (2171) 
None

>  <ref_pdb>  (2171) 
A4706a

>  <alias>  (2171) 
None

>  <HIPPO Pose ID>  (2171) 
499815

>  <name>  (2171) 
P499815

>  <HIPPO Compound ID>  (2171) 
314398

>  <ref_mols>  (2171) 
A4706a,A0875a

>  <distance_score>  (2171) 
1.760334

>  <inspiration_score>  (2171) 
None

$$$$
P499816
     RDKit          3D

 25 26  0  0  0  0  0  0  0  0999 V2000
   10.6273   15.1014   18.7206 C   0  0  0  0  0  0  0  0  0  0  0  0
   11.2213   15.0881   19.9115 C   0  0  0  0  0  0  0  0  0  0  0  0
   10.6721   15.7896   21.0923 C   0  0  0  0  0  0  0  0  0  0  0  0
   10.3848   14.8430   22.0850 O   0  0  0  0  0  0  0  0  0  0  0  0
    9.1514   14.1628   21.9396 C   0  0  0  0  0  0  0  0  0  0  0  0
    8.0096   14.7828   22.7612 C   0  0  1  0  0  0  0  0  0  0  0  0
    7.4563   16.0616   22.1740 C   0  0  0  0  0  0  0  0  0  0  0  0
    6.8403   13.9399   22.8460 O   0  0  0  0  0  0  0  0  0  0  0  0
    6.9226   12.9686   23.7755 C   0  0  0  0  0  0  0  0  0  0  0  0
    7.7940   12.1088   23.7662 O   0  0  0  0  0  0  0  0  0  0  0  0
    5.7572   13.0094   24.7528 C   0  0  0  0  0  0  0  0  0  0  0  0
    6.0401   11.9852   25.8610 C   0  0  0  0  0  0  0  0  0  0  0  0
    7.3051   12.3565   26.6450 C   0  0  0  0  0  0  0  0  0  0  0  0
    7.6355   13.7577   26.3671 N   0  0  0  0  0  0  0  0  0  0  0  0
    9.1428   14.4325   26.4893 S   0  0  0  0  0  0  0  0  0  0  0  0
    9.6411   14.2492   27.8258 O   0  0  0  0  0  0  0  0  0  0  0  0
    9.0252   15.7495   25.9187 O   0  0  0  0  0  0  0  0  0  0  0  0
   10.1095   13.5464   25.4431 N   0  0  0  0  0  0  0  0  0  0  0  0
   11.1481   14.3914   24.8255 C   0  0  0  0  0  0  0  0  0  0  0  0
   12.1360   13.5229   24.0780 C   0  0  0  0  0  0  0  0  0  0  0  0
   12.9584   12.7084   25.0710 C   0  0  0  0  0  0  0  0  0  0  0  0
   12.1587   12.4643   26.3276 C   0  0  0  0  0  0  0  0  0  0  0  0
   10.6769   12.2994   25.9708 C   0  0  0  0  0  0  0  0  0  0  0  0
    6.4774   14.6441   26.5580 C   0  0  0  0  0  0  0  0  0  0  0  0
    5.5485   14.4037   25.3724 C   0  0  0  0  0  0  0  0  0  0  0  0
  1  2  2  0
  2  3  1  0
  3  4  1  0
  4  5  1  0
  5  6  1  0
  6  7  1  6
  6  8  1  0
  8  9  1  0
  9 10  2  0
  9 11  1  0
 11 12  1  0
 12 13  1  0
 13 14  1  0
 14 15  1  0
 15 16  2  0
 15 17  2  0
 15 18  1  0
 18 19  1  0
 19 20  1  0
 20 21  1  0
 21 22  1  0
 22 23  1  0
 14 24  1  0
 24 25  1  0
 25 11  1  0
 23 18  1  0
M  END
>  <energy_score>  (2172) 
-35.930285

>  <inchikey>  (2172) 
None

>  <smiles>  (2172) 
None

>  <ref_pdb>  (2172) 
A4706a

>  <alias>  (2172) 
None

>  <HIPPO Pose ID>  (2172) 
499816

>  <name>  (2172) 
P499816

>  <HIPPO Compound ID>  (2172) 
314398

>  <ref_mols>  (2172) 
A0875a,A4706a

>  <distance_score>  (2172) 
1.871658

>  <inspiration_score>  (2172) 
None

$$$$
P499817
     RDKit          3D

 25 27  0  0  0  0  0  0  0  0999 V2000
   14.6557   13.5969   30.1965 C   0  0  0  0  0  0  0  0  0  0  0  0
   14.5383   12.1376   29.7415 C   0  0  0  0  0  0  0  0  0  0  0  0
   13.7526   11.4057   30.8466 C   0  0  0  0  0  0  0  0  0  0  0  0
   13.6952   12.0468   28.5221 O   0  0  0  0  0  0  0  0  0  0  0  0
   14.1273   12.5570   27.3453 C   0  0  0  0  0  0  0  0  0  0  0  0
   15.2948   12.8274   27.1010 O   0  0  0  0  0  0  0  0  0  0  0  0
   13.0292   12.8952   26.3355 C   0  0  0  0  0  0  0  0  0  0  0  0
   11.9405   13.7847   26.9398 C   0  0  0  0  0  0  0  0  0  0  0  0
   10.5563   13.2318   26.7432 C   0  0  0  0  0  0  0  0  0  0  0  0
   10.2654   12.9548   25.3333 N   0  0  0  0  0  0  0  0  0  0  0  0
    9.1568   14.0248   24.6655 S   0  0  0  0  0  0  0  0  0  0  0  0
    8.9997   13.7614   23.2608 O   0  0  0  0  0  0  0  0  0  0  0  0
    9.5084   15.3212   25.1853 O   0  0  0  0  0  0  0  0  0  0  0  0
    7.8043   13.4678   25.4814 N   0  0  0  0  0  0  0  0  0  0  0  0
    7.2893   12.1366   25.1037 C   0  0  0  0  0  0  0  0  0  0  0  0
    6.5274   11.5828   26.3024 C   0  0  0  0  0  0  0  0  0  0  0  0
    5.4166   12.5362   26.7426 C   0  0  0  0  0  0  0  0  0  0  0  0
    5.9375   13.9607   26.9390 C   0  0  0  0  0  0  0  0  0  0  0  0
    6.7180   14.4399   25.7155 C   0  0  0  0  0  0  0  0  0  0  0  0
   11.4075   12.5827   24.4930 C   0  0  0  0  0  0  0  0  0  0  0  0
   12.4812   11.8738   25.3526 C   0  0  0  0  0  0  0  0  0  0  0  0
   15.9275   11.4621   29.6755 C   0  0  2  0  0  0  0  0  0  0  0  0
   17.2207   12.1196   29.1554 C   0  0  0  0  0  0  0  0  0  0  0  0
   17.3571   10.8486   28.3207 C   0  0  0  0  0  0  0  0  0  0  0  0
   16.0071   10.4396   28.6514 O   0  0  0  0  0  0  0  0  0  0  0  0
  1  2  1  0
  2  3  1  0
  2  4  1  0
  4  5  1  0
  5  6  2  0
  5  7  1  0
  7  8  1  0
  8  9  1  0
  9 10  1  0
 10 11  1  0
 11 12  2  0
 11 13  2  0
 11 14  1  0
 14 15  1  0
 15 16  1  0
 16 17  1  0
 17 18  1  0
 18 19  1  0
 10 20  1  0
 20 21  1  0
 22  2  1  6
 22 23  1  0
 23 24  1  0
 24 25  1  0
 21  7  1  0
 25 22  1  0
 19 14  1  0
M  END
>  <energy_score>  (2173) 
-54.443065

>  <inchikey>  (2173) 
None

>  <smiles>  (2173) 
None

>  <ref_pdb>  (2173) 
A4706a

>  <alias>  (2173) 
None

>  <HIPPO Pose ID>  (2173) 
499817

>  <name>  (2173) 
P499817

>  <HIPPO Compound ID>  (2173) 
314399

>  <ref_mols>  (2173) 
A4706a,A0875a

>  <distance_score>  (2173) 
1.92706

>  <inspiration_score>  (2173) 
None

$$$$
P499818
     RDKit          3D

 25 27  0  0  0  0  0  0  0  0999 V2000
   14.3313   11.0534   29.8686 C   0  0  0  0  0  0  0  0  0  0  0  0
   14.6520   12.0437   28.7381 C   0  0  0  0  0  0  0  0  0  0  0  0
   14.2931   13.4345   29.2817 C   0  0  0  0  0  0  0  0  0  0  0  0
   13.7682   11.7525   27.5779 O   0  0  0  0  0  0  0  0  0  0  0  0
   14.0109   12.3869   26.3964 C   0  0  0  0  0  0  0  0  0  0  0  0
   14.9793   13.1077   26.2068 O   0  0  0  0  0  0  0  0  0  0  0  0
   13.0149   12.1420   25.2579 C   0  0  0  0  0  0  0  0  0  0  0  0
   12.6259   13.4434   24.5638 C   0  0  0  0  0  0  0  0  0  0  0  0
   11.4839   14.1641   25.2518 C   0  0  0  0  0  0  0  0  0  0  0  0
   10.2674   13.3264   25.3144 N   0  0  0  0  0  0  0  0  0  0  0  0
    8.8837   14.1608   24.8936 S   0  0  0  0  0  0  0  0  0  0  0  0
    8.6954   14.0401   23.4718 O   0  0  0  0  0  0  0  0  0  0  0  0
    9.0212   15.4388   25.5500 O   0  0  0  0  0  0  0  0  0  0  0  0
    7.6920   13.3254   25.7090 N   0  0  0  0  0  0  0  0  0  0  0  0
    7.0751   12.1508   25.0705 C   0  0  0  0  0  0  0  0  0  0  0  0
    6.5761   11.2674   26.2075 C   0  0  0  0  0  0  0  0  0  0  0  0
    5.5382   12.0074   27.0521 C   0  0  0  0  0  0  0  0  0  0  0  0
    6.0498   13.3690   27.5147 C   0  0  0  0  0  0  0  0  0  0  0  0
    6.6557   14.1683   26.3652 C   0  0  0  0  0  0  0  0  0  0  0  0
   10.4668   11.9413   24.8957 C   0  0  0  0  0  0  0  0  0  0  0  0
   11.7228   11.4771   25.6282 C   0  0  0  0  0  0  0  0  0  0  0  0
   16.1552   11.9246   28.3787 C   0  0  1  0  0  0  0  0  0  0  0  0
   17.2527   11.6158   29.4210 C   0  0  0  0  0  0  0  0  0  0  0  0
   17.6747   10.5248   28.4385 C   0  0  0  0  0  0  0  0  0  0  0  0
   16.4359   10.6616   27.6985 O   0  0  0  0  0  0  0  0  0  0  0  0
  1  2  1  0
  2  3  1  0
  2  4  1  0
  4  5  1  0
  5  6  2  0
  5  7  1  0
  7  8  1  0
  8  9  1  0
  9 10  1  0
 10 11  1  0
 11 12  2  0
 11 13  2  0
 11 14  1  0
 14 15  1  0
 15 16  1  0
 16 17  1  0
 17 18  1  0
 18 19  1  0
 10 20  1  0
 20 21  1  0
 22  2  1  1
 22 23  1  0
 23 24  1  0
 24 25  1  0
 21  7  1  0
 25 22  1  0
 19 14  1  0
M  END
>  <energy_score>  (2174) 
-76.685102

>  <inchikey>  (2174) 
None

>  <smiles>  (2174) 
None

>  <ref_pdb>  (2174) 
A4706a

>  <alias>  (2174) 
None

>  <HIPPO Pose ID>  (2174) 
499818

>  <name>  (2174) 
P499818

>  <HIPPO Compound ID>  (2174) 
314399

>  <ref_mols>  (2174) 
A4706a,A0875a

>  <distance_score>  (2174) 
1.55939

>  <inspiration_score>  (2174) 
None

$$$$
P499819
     RDKit          3D

 25 28  0  0  0  0  0  0  0  0999 V2000
    6.7871   12.9020   22.0401 O   0  0  0  0  0  0  0  0  0  0  0  0
    6.8475   13.7980   22.8779 C   0  0  0  0  0  0  0  0  0  0  0  0
    7.6763   14.8661   22.7530 O   0  0  0  0  0  0  0  0  0  0  0  0
    8.6111   14.7387   21.6533 C   0  0  2  0  0  0  0  0  0  0  0  0
    9.8542   13.9746   22.1069 C   0  0  0  0  0  0  0  0  0  0  0  0
   11.0017   14.8132   21.5734 C   0  0  1  0  0  0  0  0  0  0  0  0
   11.0258   14.9109   20.0508 C   0  0  0  0  0  0  0  0  0  0  0  0
    9.8264   15.8035   19.7667 C   0  0  0  0  0  0  0  0  0  0  0  0
    9.2610   16.0449   21.1697 C   0  0  2  0  0  0  0  0  0  0  0  0
   10.5034   16.1150   21.9175 O   0  0  0  0  0  0  0  0  0  0  0  0
    5.9940   13.6821   24.1321 C   0  0  0  0  0  0  0  0  0  0  0  0
    6.4400   12.4601   24.9852 C   0  0  0  0  0  0  0  0  0  0  0  0
    7.4348   12.8136   26.0955 C   0  0  0  0  0  0  0  0  0  0  0  0
    8.1450   13.9998   25.6295 N   0  0  0  0  0  0  0  0  0  0  0  0
    9.6244   14.4214   26.2438 S   0  0  0  0  0  0  0  0  0  0  0  0
   10.2517   15.2923   25.2814 O   0  0  0  0  0  0  0  0  0  0  0  0
    9.3899   14.8555   27.5994 O   0  0  0  0  0  0  0  0  0  0  0  0
   10.5935   13.0342   26.3709 N   0  0  0  0  0  0  0  0  0  0  0  0
   10.8761   12.3231   25.1045 C   0  0  0  0  0  0  0  0  0  0  0  0
   12.2102   12.7861   24.5495 C   0  0  0  0  0  0  0  0  0  0  0  0
   13.3338   12.2790   25.4517 C   0  0  0  0  0  0  0  0  0  0  0  0
   13.0305   12.5580   26.9115 C   0  0  0  0  0  0  0  0  0  0  0  0
   11.8427   13.4824   27.0937 C   0  0  0  0  0  0  0  0  0  0  0  0
    7.2430   15.2044   25.6736 C   0  0  0  0  0  0  0  0  0  0  0  0
    5.9288   14.9372   24.9720 C   0  0  0  0  0  0  0  0  0  0  0  0
  1  2  2  0
  2  3  1  0
  4  3  1  1
  4  5  1  0
  6  5  1  6
  6  7  1  0
  7  8  1  0
  9  8  1  6
  9 10  1  0
  2 11  1  0
 11 12  1  0
 12 13  1  0
 13 14  1  0
 14 15  1  0
 15 16  2  0
 15 17  2  0
 15 18  1  0
 18 19  1  0
 19 20  1  0
 20 21  1  0
 21 22  1  0
 22 23  1  0
 14 24  1  0
 24 25  1  0
  9  4  1  0
 25 11  1  0
 10  6  1  0
 23 18  1  0
M  END
>  <energy_score>  (2175) 
-37.326304

>  <inchikey>  (2175) 
None

>  <smiles>  (2175) 
None

>  <ref_pdb>  (2175) 
A4706a

>  <alias>  (2175) 
None

>  <HIPPO Pose ID>  (2175) 
499819

>  <name>  (2175) 
P499819

>  <HIPPO Compound ID>  (2175) 
314401

>  <ref_mols>  (2175) 
A4706a,A0875a

>  <distance_score>  (2175) 
1.756028

>  <inspiration_score>  (2175) 
None

$$$$
P499820
     RDKit          3D

 25 28  0  0  0  0  0  0  0  0999 V2000
    6.3445   13.2135   21.9205 O   0  0  0  0  0  0  0  0  0  0  0  0
    6.8644   14.0255   22.6708 C   0  0  0  0  0  0  0  0  0  0  0  0
    7.5755   15.1304   22.2930 O   0  0  0  0  0  0  0  0  0  0  0  0
    8.5696   14.8673   21.2920 C   0  0  2  0  0  0  0  0  0  0  0  0
    9.7526   14.1011   21.8836 C   0  0  0  0  0  0  0  0  0  0  0  0
   10.9666   14.8359   21.3506 C   0  0  1  0  0  0  0  0  0  0  0  0
   11.0518   14.8412   19.8267 C   0  0  0  0  0  0  0  0  0  0  0  0
    9.9327   15.7945   19.4433 C   0  0  0  0  0  0  0  0  0  0  0  0
    9.3094   16.1227   20.7968 C   0  0  2  0  0  0  0  0  0  0  0  0
   10.5184   16.1759   21.6057 O   0  0  0  0  0  0  0  0  0  0  0  0
    6.9004   13.8873   24.1607 C   0  0  0  0  0  0  0  0  0  0  0  0
    6.5362   12.5575   24.8119 C   0  0  0  0  0  0  0  0  0  0  0  0
    7.1837   12.4689   26.2066 C   0  0  0  0  0  0  0  0  0  0  0  0
    7.7234   13.7757   26.6388 N   0  0  0  0  0  0  0  0  0  0  0  0
    9.2897   14.3518   26.3694 S   0  0  0  0  0  0  0  0  0  0  0  0
    9.3223   15.1950   25.1989 O   0  0  0  0  0  0  0  0  0  0  0  0
    9.7181   14.8906   27.6355 O   0  0  0  0  0  0  0  0  0  0  0  0
   10.3240   13.0741   26.0304 N   0  0  0  0  0  0  0  0  0  0  0  0
   11.7412   13.6048   26.0494 C   0  0  0  0  0  0  0  0  0  0  0  0
   12.6912   12.7514   25.2125 C   0  0  0  0  0  0  0  0  0  0  0  0
   12.3488   11.3006   25.4707 C   0  0  0  0  0  0  0  0  0  0  0  0
   10.8769   10.9662   25.0871 C   0  0  0  0  0  0  0  0  0  0  0  0
   10.1138   12.2458   24.8346 C   0  0  0  0  0  0  0  0  0  0  0  0
    6.6841   14.8424   26.4827 C   0  0  0  0  0  0  0  0  0  0  0  0
    6.3697   15.0508   24.9905 C   0  0  0  0  0  0  0  0  0  0  0  0
  1  2  2  0
  2  3  1  0
  4  3  1  1
  4  5  1  0
  6  5  1  6
  6  7  1  0
  7  8  1  0
  9  8  1  6
  9 10  1  0
  2 11  1  0
 11 12  1  0
 12 13  1  0
 13 14  1  0
 14 15  1  0
 15 16  2  0
 15 17  2  0
 15 18  1  0
 18 19  1  0
 19 20  1  0
 20 21  1  0
 21 22  1  0
 22 23  1  0
 14 24  1  0
 24 25  1  0
  9  4  1  0
 25 11  1  0
 10  6  1  0
 23 18  1  0
M  END
>  <energy_score>  (2176) 
-18.22343

>  <inchikey>  (2176) 
None

>  <smiles>  (2176) 
None

>  <ref_pdb>  (2176) 
A4706a

>  <alias>  (2176) 
None

>  <HIPPO Pose ID>  (2176) 
499820

>  <name>  (2176) 
P499820

>  <HIPPO Compound ID>  (2176) 
314401

>  <ref_mols>  (2176) 
A4706a,A0875a

>  <distance_score>  (2176) 
1.579611

>  <inspiration_score>  (2176) 
None

$$$$
P499821
     RDKit          3D

 25 27  0  0  0  0  0  0  0  0999 V2000
   11.4957   13.7192   22.2604 C   0  0  0  0  0  0  0  0  0  0  0  0
   10.3978   14.6507   21.8098 C   0  0  2  0  0  0  0  0  0  0  0  0
    9.1245   14.5434   22.5518 O   0  0  0  0  0  0  0  0  0  0  0  0
    8.5907   13.3729   22.9842 C   0  0  0  0  0  0  0  0  0  0  0  0
    9.1133   12.2696   22.8665 O   0  0  0  0  0  0  0  0  0  0  0  0
    7.1835   13.4937   23.6038 C   0  0  0  0  0  0  0  0  0  0  0  0
    6.9873   12.3735   24.6848 C   0  0  0  0  0  0  0  0  0  0  0  0
    7.7990   12.6352   25.9705 C   0  0  0  0  0  0  0  0  0  0  0  0
    8.5491   13.8499   25.6953 N   0  0  0  0  0  0  0  0  0  0  0  0
   10.0489   14.2332   26.2283 S   0  0  0  0  0  0  0  0  0  0  0  0
   10.6246   15.1072   25.2345 O   0  0  0  0  0  0  0  0  0  0  0  0
    9.8850   14.6658   27.5925 O   0  0  0  0  0  0  0  0  0  0  0  0
   11.0053   12.8609   26.2792 N   0  0  0  0  0  0  0  0  0  0  0  0
   11.0315   11.9138   25.1468 C   0  0  0  0  0  0  0  0  0  0  0  0
   12.1814   10.9531   25.3835 C   0  0  0  0  0  0  0  0  0  0  0  0
   13.5700   11.5158   25.3187 C   0  0  0  0  0  0  0  0  0  0  0  0
   13.4949   12.9503   25.7923 C   0  0  0  0  0  0  0  0  0  0  0  0
   12.3784   13.1670   26.8325 C   0  0  0  0  0  0  0  0  0  0  0  0
    7.6273   15.0058   25.5680 C   0  0  0  0  0  0  0  0  0  0  0  0
    6.8920   14.8540   24.2442 C   0  0  0  0  0  0  0  0  0  0  0  0
   10.1603   14.4317   20.3170 C   0  0  0  0  0  0  0  0  0  0  0  0
    9.8282   15.6732   19.5255 C   0  0  0  0  0  0  0  0  0  0  0  0
    9.2921   16.7291   20.4543 C   0  0  0  0  0  0  0  0  0  0  0  0
   10.2878   17.0925   21.3751 O   0  0  0  0  0  0  0  0  0  0  0  0
   10.9701   16.0445   22.0333 C   0  0  0  0  0  0  0  0  0  0  0  0
  2  1  1  1
  2  3  1  0
  3  4  1  0
  4  5  2  0
  4  6  1  0
  6  7  1  0
  7  8  1  0
  8  9  1  0
  9 10  1  0
 10 11  2  0
 10 12  2  0
 10 13  1  0
 13 14  1  0
 14 15  1  0
 15 16  1  0
 16 17  1  0
 17 18  1  0
  9 19  1  0
 19 20  1  0
  2 21  1  0
 21 22  1  0
 22 23  1  0
 23 24  1  0
 24 25  1  0
 25  2  1  0
 20  6  1  0
 18 13  1  0
M  END
>  <energy_score>  (2177) 
-29.431131

>  <inchikey>  (2177) 
None

>  <smiles>  (2177) 
None

>  <ref_pdb>  (2177) 
A4706a

>  <alias>  (2177) 
None

>  <HIPPO Pose ID>  (2177) 
499821

>  <name>  (2177) 
P499821

>  <HIPPO Compound ID>  (2177) 
314402

>  <ref_mols>  (2177) 
A4706a,A0875a

>  <distance_score>  (2177) 
1.609365

>  <inspiration_score>  (2177) 
None

$$$$
P499822
     RDKit          3D

 25 27  0  0  0  0  0  0  0  0999 V2000
   16.6066   10.9525   30.8404 C   0  0  0  0  0  0  0  0  0  0  0  0
   15.8538   11.7646   29.7854 C   0  0  2  0  0  0  0  0  0  0  0  0
   14.4597   11.2771   29.7162 N   0  0  0  0  0  0  0  0  0  0  0  0
   16.5339   11.7922   28.3859 C   0  0  0  0  0  0  0  0  0  0  0  0
   15.6611   12.4963   27.4469 O   0  0  0  0  0  0  0  0  0  0  0  0
   14.8182   11.7401   26.6915 C   0  0  0  0  0  0  0  0  0  0  0  0
   14.9171   10.5439   26.4659 O   0  0  0  0  0  0  0  0  0  0  0  0
   13.7025   12.5942   26.1370 C   0  0  0  0  0  0  0  0  0  0  0  0
   12.7905   13.0352   27.2573 C   0  0  0  0  0  0  0  0  0  0  0  0
   11.5374   13.7755   26.8076 C   0  0  0  0  0  0  0  0  0  0  0  0
   10.8495   13.1457   25.6425 N   0  0  0  0  0  0  0  0  0  0  0  0
    9.5354   14.1099   25.0987 S   0  0  0  0  0  0  0  0  0  0  0  0
    9.3934   13.9998   23.6692 O   0  0  0  0  0  0  0  0  0  0  0  0
    9.6497   15.3867   25.7587 O   0  0  0  0  0  0  0  0  0  0  0  0
    8.2437   13.2946   25.8143 N   0  0  0  0  0  0  0  0  0  0  0  0
    7.8756   12.0077   25.1746 C   0  0  0  0  0  0  0  0  0  0  0  0
    6.9262   11.2611   26.1023 C   0  0  0  0  0  0  0  0  0  0  0  0
    5.7017   12.0949   26.4680 C   0  0  0  0  0  0  0  0  0  0  0  0
    6.1028   13.4696   26.9870 C   0  0  0  0  0  0  0  0  0  0  0  0
    7.0429   14.1593   26.0072 C   0  0  0  0  0  0  0  0  0  0  0  0
   11.7735   12.7658   24.5562 C   0  0  0  0  0  0  0  0  0  0  0  0
   12.8500   11.8462   25.1320 C   0  0  0  0  0  0  0  0  0  0  0  0
   17.9601   12.4109   28.4509 C   0  0  0  0  0  0  0  0  0  0  0  0
   18.5722   11.1007   28.3749 O   0  0  0  0  0  0  0  0  0  0  0  0
   17.3206   10.5413   27.9025 C   0  0  0  0  0  0  0  0  0  0  0  0
  2  1  1  1
  2  3  1  0
  2  4  1  0
  4  5  1  0
  5  6  1  0
  6  7  2  0
  6  8  1  0
  8  9  1  0
  9 10  1  0
 10 11  1  0
 11 12  1  0
 12 13  2  0
 12 14  2  0
 12 15  1  0
 15 16  1  0
 16 17  1  0
 17 18  1  0
 18 19  1  0
 19 20  1  0
 11 21  1  0
 21 22  1  0
  4 23  1  0
 23 24  1  0
 24 25  1  0
 25  4  1  0
 22  8  1  0
 20 15  1  0
M  END
>  <energy_score>  (2178) 
-89.822146

>  <inchikey>  (2178) 
None

>  <smiles>  (2178) 
None

>  <ref_pdb>  (2178) 
A4706a

>  <alias>  (2178) 
None

>  <HIPPO Pose ID>  (2178) 
499822

>  <name>  (2178) 
P499822

>  <HIPPO Compound ID>  (2178) 
314403

>  <ref_mols>  (2178) 
A0875a,A4706a

>  <distance_score>  (2178) 
1.702665

>  <inspiration_score>  (2178) 
None

$$$$
P499823
     RDKit          3D

 25 27  0  0  0  0  0  0  0  0999 V2000
   17.6628   11.2852   29.3127 C   0  0  0  0  0  0  0  0  0  0  0  0
   16.3751   10.6989   28.7352 C   0  0  2  0  0  0  0  0  0  0  0  0
   16.5672   10.4638   27.2923 N   0  0  0  0  0  0  0  0  0  0  0  0
   15.1008   11.5483   29.0561 C   0  0  0  0  0  0  0  0  0  0  0  0
   14.0963   11.5404   27.9728 O   0  0  0  0  0  0  0  0  0  0  0  0
   14.3617   12.4121   26.9660 C   0  0  0  0  0  0  0  0  0  0  0  0
   15.4626   12.9112   26.7768 O   0  0  0  0  0  0  0  0  0  0  0  0
   13.1490   12.8053   26.1547 C   0  0  0  0  0  0  0  0  0  0  0  0
   12.1471   13.4355   27.0854 C   0  0  0  0  0  0  0  0  0  0  0  0
   11.0586   14.1667   26.3529 C   0  0  0  0  0  0  0  0  0  0  0  0
   10.6524   13.4490   25.1322 N   0  0  0  0  0  0  0  0  0  0  0  0
    9.1976   14.0028   24.4981 S   0  0  0  0  0  0  0  0  0  0  0  0
    9.0264   13.4902   23.1658 O   0  0  0  0  0  0  0  0  0  0  0  0
    9.1708   15.4090   24.7989 O   0  0  0  0  0  0  0  0  0  0  0  0
    8.0795   13.2526   25.5298 N   0  0  0  0  0  0  0  0  0  0  0  0
    7.4973   11.9863   25.0195 C   0  0  0  0  0  0  0  0  0  0  0  0
    6.8064   11.2763   26.1742 C   0  0  0  0  0  0  0  0  0  0  0  0
    5.7206   12.1477   26.7971 C   0  0  0  0  0  0  0  0  0  0  0  0
    6.2677   13.5174   27.1793 C   0  0  0  0  0  0  0  0  0  0  0  0
    7.0026   14.1717   26.0142 C   0  0  0  0  0  0  0  0  0  0  0  0
   10.9615   12.0235   25.0596 C   0  0  0  0  0  0  0  0  0  0  0  0
   12.4738   11.7887   25.2604 C   0  0  0  0  0  0  0  0  0  0  0  0
   15.2455   12.9236   29.7848 C   0  0  0  0  0  0  0  0  0  0  0  0
   14.9432   12.3413   31.0671 O   0  0  0  0  0  0  0  0  0  0  0  0
   14.5203   11.1149   30.4349 C   0  0  0  0  0  0  0  0  0  0  0  0
  2  1  1  6
  2  3  1  0
  2  4  1  0
  4  5  1  0
  5  6  1  0
  6  7  2  0
  6  8  1  0
  8  9  1  0
  9 10  1  0
 10 11  1  0
 11 12  1  0
 12 13  2  0
 12 14  2  0
 12 15  1  0
 15 16  1  0
 16 17  1  0
 17 18  1  0
 18 19  1  0
 19 20  1  0
 11 21  1  0
 21 22  1  0
  4 23  1  0
 23 24  1  0
 24 25  1  0
 25  4  1  0
 22  8  1  0
 20 15  1  0
M  END
>  <energy_score>  (2179) 
-625.784382

>  <inchikey>  (2179) 
None

>  <smiles>  (2179) 
None

>  <ref_pdb>  (2179) 
A4706a

>  <alias>  (2179) 
None

>  <HIPPO Pose ID>  (2179) 
499823

>  <name>  (2179) 
P499823

>  <HIPPO Compound ID>  (2179) 
314403

>  <ref_mols>  (2179) 
A4706a,A0875a

>  <distance_score>  (2179) 
1.773348

>  <inspiration_score>  (2179) 
None

$$$$
P499824
     RDKit          3D

 25 27  0  0  0  0  0  0  0  0999 V2000
   10.4424   15.1672   19.2237 C   0  0  0  0  0  0  0  0  0  0  0  0
   10.9982   15.3308   20.6190 C   0  0  1  0  0  0  0  0  0  0  0  0
   10.1316   16.2447   21.4579 C   0  0  0  0  0  0  0  0  0  0  0  0
    8.7619   15.6547   21.7664 C   0  0  0  0  0  0  0  0  0  0  0  0
    8.7499   14.1369   21.7557 C   0  0  2  0  0  0  0  0  0  0  0  0
    7.8344   13.4504   22.6530 O   0  0  0  0  0  0  0  0  0  0  0  0
    6.7390   14.0274   23.2034 C   0  0  0  0  0  0  0  0  0  0  0  0
    6.1982   15.0489   22.8077 O   0  0  0  0  0  0  0  0  0  0  0  0
    6.1753   13.1714   24.3444 C   0  0  0  0  0  0  0  0  0  0  0  0
    7.0618   12.0016   24.8195 C   0  0  0  0  0  0  0  0  0  0  0  0
    7.4643   12.1025   26.2695 C   0  0  0  0  0  0  0  0  0  0  0  0
    7.8910   13.4505   26.6000 N   0  0  0  0  0  0  0  0  0  0  0  0
    9.2957   14.1654   26.0543 S   0  0  0  0  0  0  0  0  0  0  0  0
    9.5922   15.1780   27.0406 O   0  0  0  0  0  0  0  0  0  0  0  0
    9.0955   14.5695   24.6922 O   0  0  0  0  0  0  0  0  0  0  0  0
   10.5894   13.1000   26.0848 N   0  0  0  0  0  0  0  0  0  0  0  0
   11.8632   13.8857   25.9745 C   0  0  0  0  0  0  0  0  0  0  0  0
   12.7763   13.3890   24.8557 C   0  0  0  0  0  0  0  0  0  0  0  0
   13.2347   11.9877   25.1313 C   0  0  0  0  0  0  0  0  0  0  0  0
   12.0366   11.2254   25.5946 C   0  0  0  0  0  0  0  0  0  0  0  0
   10.6646   11.8602   25.2893 C   0  0  0  0  0  0  0  0  0  0  0  0
    6.7402   14.4127   26.5528 C   0  0  0  0  0  0  0  0  0  0  0  0
    5.6764   14.0157   25.5262 C   0  0  0  0  0  0  0  0  0  0  0  0
   10.1616   13.6457   22.0934 C   0  0  0  0  0  0  0  0  0  0  0  0
   11.1944   14.0650   21.2235 O   0  0  0  0  0  0  0  0  0  0  0  0
  2  1  1  6
  2  3  1  0
  3  4  1  0
  4  5  1  0
  5  6  1  1
  6  7  1  0
  7  8  2  0
  7  9  1  0
  9 10  1  0
 10 11  1  0
 11 12  1  0
 12 13  1  0
 13 14  2  0
 13 15  2  0
 13 16  1  0
 16 17  1  0
 17 18  1  0
 18 19  1  0
 19 20  1  0
 20 21  1  0
 12 22  1  0
 22 23  1  0
  5 24  1  0
 24 25  1  0
 25  2  1  0
 23  9  1  0
 21 16  1  0
M  END
>  <energy_score>  (2180) 
-34.011775

>  <inchikey>  (2180) 
None

>  <smiles>  (2180) 
None

>  <ref_pdb>  (2180) 
A4706a

>  <alias>  (2180) 
None

>  <HIPPO Pose ID>  (2180) 
499824

>  <name>  (2180) 
P499824

>  <HIPPO Compound ID>  (2180) 
314404

>  <ref_mols>  (2180) 
A4706a,A0875a

>  <distance_score>  (2180) 
1.772793

>  <inspiration_score>  (2180) 
None

$$$$
P499825
     RDKit          3D

 25 28  0  0  0  0  0  0  0  0999 V2000
    6.9936   13.0033   22.1927 O   0  0  0  0  0  0  0  0  0  0  0  0
    7.1166   13.8164   23.1059 C   0  0  0  0  0  0  0  0  0  0  0  0
    8.1645   14.6761   23.2172 O   0  0  0  0  0  0  0  0  0  0  0  0
    9.2275   14.5001   22.2611 C   0  0  2  0  0  0  0  0  0  0  0  0
   10.5215   15.2713   22.5885 C   0  0  0  0  0  0  0  0  0  0  0  0
   11.1206   15.6659   21.3413 O   0  0  0  0  0  0  0  0  0  0  0  0
   10.2141   15.2607   20.3138 C   0  0  0  0  0  0  0  0  0  0  0  0
   10.8807   14.4325   19.2456 C   0  0  0  0  0  0  0  0  0  0  0  0
   10.2991   15.7515   18.9193 C   0  0  0  0  0  0  0  0  0  0  0  0
    8.8732   15.0542   20.9095 C   0  0  0  0  0  0  0  0  0  0  0  0
    6.1180   13.8267   24.2626 C   0  0  0  0  0  0  0  0  0  0  0  0
    6.3219   12.5645   25.1438 C   0  0  0  0  0  0  0  0  0  0  0  0
    7.3450   12.7643   26.2696 C   0  0  0  0  0  0  0  0  0  0  0  0
    8.1192   13.9465   25.9017 N   0  0  0  0  0  0  0  0  0  0  0  0
    9.7255   14.1196   26.2409 S   0  0  0  0  0  0  0  0  0  0  0  0
    9.8612   14.2275   27.6693 O   0  0  0  0  0  0  0  0  0  0  0  0
   10.2644   15.1343   25.3732 O   0  0  0  0  0  0  0  0  0  0  0  0
   10.4160   12.6639   25.7890 N   0  0  0  0  0  0  0  0  0  0  0  0
   10.1252   12.1254   24.4516 C   0  0  0  0  0  0  0  0  0  0  0  0
   10.2385   10.6192   24.5703 C   0  0  0  0  0  0  0  0  0  0  0  0
   11.5670   10.2264   25.2155 C   0  0  0  0  0  0  0  0  0  0  0  0
   12.5325   11.4097   25.4920 C   0  0  0  0  0  0  0  0  0  0  0  0
   11.8644   12.6335   26.0997 C   0  0  0  0  0  0  0  0  0  0  0  0
    7.3160   15.1800   26.0495 C   0  0  0  0  0  0  0  0  0  0  0  0
    6.1293   15.1066   25.0955 C   0  0  0  0  0  0  0  0  0  0  0  0
  1  2  2  0
  2  3  1  0
  4  3  1  1
  4  5  1  0
  5  6  1  0
  6  7  1  0
  7  8  1  0
  8  9  1  0
  7 10  1  0
  2 11  1  0
 11 12  1  0
 12 13  1  0
 13 14  1  0
 14 15  1  0
 15 16  2  0
 15 17  2  0
 15 18  1  0
 18 19  1  0
 19 20  1  0
 20 21  1  0
 21 22  1  0
 22 23  1  0
 14 24  1  0
 24 25  1  0
 10  4  1  0
 25 11  1  0
  9  7  1  0
 23 18  1  0
M  END
>  <energy_score>  (2181) 
-74.581733

>  <inchikey>  (2181) 
None

>  <smiles>  (2181) 
None

>  <ref_pdb>  (2181) 
A4706a

>  <alias>  (2181) 
None

>  <HIPPO Pose ID>  (2181) 
499825

>  <name>  (2181) 
P499825

>  <HIPPO Compound ID>  (2181) 
314405

>  <ref_mols>  (2181) 
A4706a,A0875a

>  <distance_score>  (2181) 
1.690339

>  <inspiration_score>  (2181) 
None

$$$$
P499826
     RDKit          3D

 25 26  0  0  0  0  0  0  0  0999 V2000
   12.0993   14.6762   22.8563 C   0  0  0  0  0  0  0  0  0  0  0  0
   10.9441   15.4821   22.8619 O   0  0  0  0  0  0  0  0  0  0  0  0
   10.7993   16.0855   21.5892 C   0  0  0  0  0  0  0  0  0  0  0  0
    9.4763   15.8044   20.8761 C   0  0  2  0  0  0  0  0  0  0  0  0
    8.6191   14.6392   21.3908 C   0  0  0  0  0  0  0  0  0  0  0  0
    7.8711   14.9377   22.6007 O   0  0  0  0  0  0  0  0  0  0  0  0
    7.0432   13.9234   22.9745 C   0  0  0  0  0  0  0  0  0  0  0  0
    6.8061   12.9514   22.2580 O   0  0  0  0  0  0  0  0  0  0  0  0
    6.3653   14.0530   24.3443 C   0  0  0  0  0  0  0  0  0  0  0  0
    6.3015   12.6744   25.0508 C   0  0  0  0  0  0  0  0  0  0  0  0
    7.5807   12.2294   25.7726 C   0  0  0  0  0  0  0  0  0  0  0  0
    8.3311   13.3838   26.3384 N   0  0  0  0  0  0  0  0  0  0  0  0
    9.7200   13.8333   25.4753 S   0  0  0  0  0  0  0  0  0  0  0  0
   10.0490   15.1780   25.8794 O   0  0  0  0  0  0  0  0  0  0  0  0
    9.4935   13.4520   24.1077 O   0  0  0  0  0  0  0  0  0  0  0  0
   10.9246   12.7801   26.1218 N   0  0  0  0  0  0  0  0  0  0  0  0
   11.8339   13.5194   27.0238 C   0  0  0  0  0  0  0  0  0  0  0  0
   13.0979   12.7643   27.3950 C   0  0  0  0  0  0  0  0  0  0  0  0
   13.8608   12.3301   26.1771 C   0  0  0  0  0  0  0  0  0  0  0  0
   12.9861   11.4956   25.2921 C   0  0  0  0  0  0  0  0  0  0  0  0
   11.5488   11.9532   25.0677 C   0  0  0  0  0  0  0  0  0  0  0  0
    7.4211   14.5325   26.6179 C   0  0  0  0  0  0  0  0  0  0  0  0
    6.8832   15.1233   25.3104 C   0  0  0  0  0  0  0  0  0  0  0  0
    9.6855   15.7188   19.4443 O   0  0  0  0  0  0  0  0  0  0  0  0
   10.6784   14.8027   18.9995 C   0  0  0  0  0  0  0  0  0  0  0  0
  1  2  1  0
  2  3  1  0
  4  3  1  1
  4  5  1  0
  5  6  1  0
  6  7  1  0
  7  8  2  0
  7  9  1  0
  9 10  1  0
 10 11  1  0
 11 12  1  0
 12 13  1  0
 13 14  2  0
 13 15  2  0
 13 16  1  0
 16 17  1  0
 17 18  1  0
 18 19  1  0
 19 20  1  0
 20 21  1  0
 12 22  1  0
 22 23  1  0
  4 24  1  0
 24 25  1  0
 23  9  1  0
 21 16  1  0
M  END
>  <energy_score>  (2182) 
-52.871183

>  <inchikey>  (2182) 
None

>  <smiles>  (2182) 
None

>  <ref_pdb>  (2182) 
A4706a

>  <alias>  (2182) 
None

>  <HIPPO Pose ID>  (2182) 
499826

>  <name>  (2182) 
P499826

>  <HIPPO Compound ID>  (2182) 
314406

>  <ref_mols>  (2182) 
A0875a,A4706a

>  <distance_score>  (2182) 
1.54552

>  <inspiration_score>  (2182) 
None

$$$$
P499827
     RDKit          3D

 25 26  0  0  0  0  0  0  0  0999 V2000
   12.1229   14.7847   23.2024 C   0  0  0  0  0  0  0  0  0  0  0  0
   11.1998   14.2639   22.2977 O   0  0  0  0  0  0  0  0  0  0  0  0
   10.3877   15.3390   21.8267 C   0  0  0  0  0  0  0  0  0  0  0  0
    9.4353   14.7514   20.8101 C   0  0  1  0  0  0  0  0  0  0  0  0
    7.9784   14.8672   21.2875 C   0  0  0  0  0  0  0  0  0  0  0  0
    7.7510   14.1530   22.5153 O   0  0  0  0  0  0  0  0  0  0  0  0
    6.4532   14.0029   22.8897 C   0  0  0  0  0  0  0  0  0  0  0  0
    5.4891   14.3038   22.1994 O   0  0  0  0  0  0  0  0  0  0  0  0
    6.3231   13.4369   24.3024 C   0  0  0  0  0  0  0  0  0  0  0  0
    7.2816   12.2517   24.5488 C   0  0  0  0  0  0  0  0  0  0  0  0
    7.7021   12.0436   25.9867 C   0  0  0  0  0  0  0  0  0  0  0  0
    8.0743   13.3166   26.6068 N   0  0  0  0  0  0  0  0  0  0  0  0
    9.4637   14.1193   26.0903 S   0  0  0  0  0  0  0  0  0  0  0  0
    9.6212   15.2458   26.9797 O   0  0  0  0  0  0  0  0  0  0  0  0
    9.3856   14.3568   24.6761 O   0  0  0  0  0  0  0  0  0  0  0  0
   10.7332   12.9991   26.4119 N   0  0  0  0  0  0  0  0  0  0  0  0
   11.1518   12.1904   25.2385 C   0  0  0  0  0  0  0  0  0  0  0  0
   12.5965   11.6899   25.2563 C   0  0  0  0  0  0  0  0  0  0  0  0
   13.6402   12.3782   26.0868 C   0  0  0  0  0  0  0  0  0  0  0  0
   13.0544   12.8421   27.3809 C   0  0  0  0  0  0  0  0  0  0  0  0
   11.8172   13.6882   27.1503 C   0  0  0  0  0  0  0  0  0  0  0  0
    6.8713   14.1922   26.6882 C   0  0  0  0  0  0  0  0  0  0  0  0
    6.4223   14.6072   25.2946 C   0  0  0  0  0  0  0  0  0  0  0  0
    9.6275   15.4241   19.5565 O   0  0  0  0  0  0  0  0  0  0  0  0
   10.7936   14.9652   18.8705 C   0  0  0  0  0  0  0  0  0  0  0  0
  1  2  1  0
  2  3  1  0
  4  3  1  1
  4  5  1  0
  5  6  1  0
  6  7  1  0
  7  8  2  0
  7  9  1  0
  9 10  1  0
 10 11  1  0
 11 12  1  0
 12 13  1  0
 13 14  2  0
 13 15  2  0
 13 16  1  0
 16 17  1  0
 17 18  1  0
 18 19  1  0
 19 20  1  0
 20 21  1  0
 12 22  1  0
 22 23  1  0
  4 24  1  0
 24 25  1  0
 23  9  1  0
 21 16  1  0
M  END
>  <energy_score>  (2183) 
-29.444851

>  <inchikey>  (2183) 
None

>  <smiles>  (2183) 
None

>  <ref_pdb>  (2183) 
A4706a

>  <alias>  (2183) 
None

>  <HIPPO Pose ID>  (2183) 
499827

>  <name>  (2183) 
P499827

>  <HIPPO Compound ID>  (2183) 
314406

>  <ref_mols>  (2183) 
A4706a,A0875a

>  <distance_score>  (2183) 
1.498646

>  <inspiration_score>  (2183) 
None

$$$$
P499828
     RDKit          3D

 25 27  0  0  0  0  0  0  0  0999 V2000
   12.2523   15.6472   21.8684 C   0  0  0  0  0  0  0  0  0  0  0  0
   11.4460   14.6097   21.1456 C   0  0  2  0  0  0  0  0  0  0  0  0
   11.0710   15.0975   19.8569 O   0  0  0  0  0  0  0  0  0  0  0  0
    9.7300   15.5412   20.0417 C   0  0  0  0  0  0  0  0  0  0  0  0
    9.1955   14.5648   21.0594 C   0  0  2  0  0  0  0  0  0  0  0  0
    7.9257   14.9792   21.7899 C   0  0  0  0  0  0  0  0  0  0  0  0
    7.4157   13.8463   22.5276 O   0  0  0  0  0  0  0  0  0  0  0  0
    6.2817   14.0962   23.2276 C   0  0  0  0  0  0  0  0  0  0  0  0
    5.4128   14.8841   22.8739 O   0  0  0  0  0  0  0  0  0  0  0  0
    6.2475   13.3688   24.5727 C   0  0  0  0  0  0  0  0  0  0  0  0
    7.2114   12.1611   24.6688 C   0  0  0  0  0  0  0  0  0  0  0  0
    7.9603   11.9645   25.9724 C   0  0  0  0  0  0  0  0  0  0  0  0
    8.3272   13.2448   26.5853 N   0  0  0  0  0  0  0  0  0  0  0  0
    9.5701   14.1456   25.8752 S   0  0  0  0  0  0  0  0  0  0  0  0
    9.3100   14.2478   24.4686 O   0  0  0  0  0  0  0  0  0  0  0  0
    9.7300   15.3303   26.6805 O   0  0  0  0  0  0  0  0  0  0  0  0
   10.9140   13.1082   26.1374 N   0  0  0  0  0  0  0  0  0  0  0  0
   11.6314   12.7691   24.8819 C   0  0  0  0  0  0  0  0  0  0  0  0
   12.7691   11.8077   25.2039 C   0  0  0  0  0  0  0  0  0  0  0  0
   13.7731   12.3815   26.1671 C   0  0  0  0  0  0  0  0  0  0  0  0
   13.0734   12.8499   27.4184 C   0  0  0  0  0  0  0  0  0  0  0  0
   11.8173   13.6847   27.1706 C   0  0  0  0  0  0  0  0  0  0  0  0
    7.1032   14.0142   26.9094 C   0  0  0  0  0  0  0  0  0  0  0  0
    6.4191   14.4697   25.6374 C   0  0  0  0  0  0  0  0  0  0  0  0
   10.2961   14.3618   21.9446 O   0  0  0  0  0  0  0  0  0  0  0  0
  2  1  1  1
  2  3  1  0
  3  4  1  0
  4  5  1  0
  5  6  1  1
  6  7  1  0
  7  8  1  0
  8  9  2  0
  8 10  1  0
 10 11  1  0
 11 12  1  0
 12 13  1  0
 13 14  1  0
 14 15  2  0
 14 16  2  0
 14 17  1  0
 17 18  1  0
 18 19  1  0
 19 20  1  0
 20 21  1  0
 21 22  1  0
 13 23  1  0
 23 24  1  0
  5 25  1  0
 25  2  1  0
 24 10  1  0
 22 17  1  0
M  END
>  <energy_score>  (2184) 
-55.742499

>  <inchikey>  (2184) 
None

>  <smiles>  (2184) 
None

>  <ref_pdb>  (2184) 
A4706a

>  <alias>  (2184) 
None

>  <HIPPO Pose ID>  (2184) 
499828

>  <name>  (2184) 
P499828

>  <HIPPO Compound ID>  (2184) 
314407

>  <ref_mols>  (2184) 
A0875a,A4706a

>  <distance_score>  (2184) 
1.679702

>  <inspiration_score>  (2184) 
None

$$$$
P499829
     RDKit          3D

 25 27  0  0  0  0  0  0  0  0999 V2000
   12.1127   14.8872   22.2106 C   0  0  0  0  0  0  0  0  0  0  0  0
   11.0004   15.7209   21.6811 C   0  0  1  0  0  0  0  0  0  0  0  0
   10.8753   15.4720   20.2763 O   0  0  0  0  0  0  0  0  0  0  0  0
    9.4914   15.6929   20.0666 C   0  0  0  0  0  0  0  0  0  0  0  0
    8.8774   15.0614   21.2986 C   0  0  2  0  0  0  0  0  0  0  0  0
    7.4747   15.5587   21.6601 C   0  0  0  0  0  0  0  0  0  0  0  0
    7.0547   15.1782   22.9686 O   0  0  0  0  0  0  0  0  0  0  0  0
    6.9528   13.8344   23.1076 C   0  0  0  0  0  0  0  0  0  0  0  0
    6.4755   13.0553   22.2972 O   0  0  0  0  0  0  0  0  0  0  0  0
    7.6210   13.4661   24.3801 C   0  0  0  0  0  0  0  0  0  0  0  0
    8.2844   12.0971   24.3372 C   0  0  0  0  0  0  0  0  0  0  0  0
    8.8081   11.7056   25.7038 C   0  0  0  0  0  0  0  0  0  0  0  0
    9.0625   12.8899   26.5346 N   0  0  0  0  0  0  0  0  0  0  0  0
   10.4572   13.8338   26.3404 S   0  0  0  0  0  0  0  0  0  0  0  0
   10.4684   14.4373   25.0341 O   0  0  0  0  0  0  0  0  0  0  0  0
   10.5079   14.6465   27.5277 O   0  0  0  0  0  0  0  0  0  0  0  0
   11.7431   12.6992   26.4005 N   0  0  0  0  0  0  0  0  0  0  0  0
   12.8534   13.0198   27.3528 C   0  0  0  0  0  0  0  0  0  0  0  0
   14.2601   12.7797   26.8010 C   0  0  0  0  0  0  0  0  0  0  0  0
   14.4005   11.4213   26.1980 C   0  0  0  0  0  0  0  0  0  0  0  0
   13.2927   11.2078   25.1968 C   0  0  0  0  0  0  0  0  0  0  0  0
   12.2419   12.3156   25.0731 C   0  0  0  0  0  0  0  0  0  0  0  0
    7.7978   13.6911   26.8102 C   0  0  0  0  0  0  0  0  0  0  0  0
    6.8131   13.6446   25.6402 C   0  0  0  0  0  0  0  0  0  0  0  0
    9.7909   15.3898   22.3430 O   0  0  0  0  0  0  0  0  0  0  0  0
  2  1  1  1
  2  3  1  0
  3  4  1  0
  4  5  1  0
  5  6  1  1
  6  7  1  0
  7  8  1  0
  8  9  2  0
  8 10  1  0
 10 11  1  0
 11 12  1  0
 12 13  1  0
 13 14  1  0
 14 15  2  0
 14 16  2  0
 14 17  1  0
 17 18  1  0
 18 19  1  0
 19 20  1  0
 20 21  1  0
 21 22  1  0
 13 23  1  0
 23 24  1  0
  5 25  1  0
 25  2  1  0
 24 10  1  0
 22 17  1  0
M  END
>  <energy_score>  (2185) 
-27.080809

>  <inchikey>  (2185) 
None

>  <smiles>  (2185) 
None

>  <ref_pdb>  (2185) 
A4706a

>  <alias>  (2185) 
None

>  <HIPPO Pose ID>  (2185) 
499829

>  <name>  (2185) 
P499829

>  <HIPPO Compound ID>  (2185) 
314407

>  <ref_mols>  (2185) 
A4706a,A0875a

>  <distance_score>  (2185) 
1.610678

>  <inspiration_score>  (2185) 
None

$$$$
P499830
     RDKit          3D

 25 27  0  0  0  0  0  0  0  0999 V2000
   12.3636   15.3167   21.6904 C   0  0  0  0  0  0  0  0  0  0  0  0
   10.9233   15.7021   21.6986 C   0  0  1  0  0  0  0  0  0  0  0  0
   10.5420   16.1061   20.3810 O   0  0  0  0  0  0  0  0  0  0  0  0
    9.7257   15.0521   19.9165 C   0  0  0  0  0  0  0  0  0  0  0  0
    9.0702   14.5621   21.1846 C   0  0  2  0  0  0  0  0  0  0  0  0
    7.9347   15.4545   21.7148 C   0  0  0  0  0  0  0  0  0  0  0  0
    7.4410   15.0605   23.0078 O   0  0  0  0  0  0  0  0  0  0  0  0
    6.7483   13.9063   23.0921 C   0  0  0  0  0  0  0  0  0  0  0  0
    6.4289   13.2064   22.1330 O   0  0  0  0  0  0  0  0  0  0  0  0
    6.4769   13.4670   24.5284 C   0  0  0  0  0  0  0  0  0  0  0  0
    7.3213   12.1883   24.7289 C   0  0  0  0  0  0  0  0  0  0  0  0
    7.9531   12.0027   26.0854 C   0  0  0  0  0  0  0  0  0  0  0  0
    8.4567   13.2730   26.6141 N   0  0  0  0  0  0  0  0  0  0  0  0
    9.7835   14.0486   25.9011 S   0  0  0  0  0  0  0  0  0  0  0  0
    9.4923   14.2582   24.5153 O   0  0  0  0  0  0  0  0  0  0  0  0
   10.0967   15.1560   26.7675 O   0  0  0  0  0  0  0  0  0  0  0  0
   11.0076   12.9084   26.0031 N   0  0  0  0  0  0  0  0  0  0  0  0
   11.2051   11.9962   24.8563 C   0  0  0  0  0  0  0  0  0  0  0  0
   12.2581   10.9923   25.3269 C   0  0  0  0  0  0  0  0  0  0  0  0
   13.6506   11.5378   25.4357 C   0  0  0  0  0  0  0  0  0  0  0  0
   13.5238   12.9880   25.8501 C   0  0  0  0  0  0  0  0  0  0  0  0
   12.2660   13.2902   26.7003 C   0  0  0  0  0  0  0  0  0  0  0  0
    7.2990   14.1686   26.8786 C   0  0  0  0  0  0  0  0  0  0  0  0
    6.6388   14.5909   25.5757 C   0  0  0  0  0  0  0  0  0  0  0  0
   10.1809   14.5520   22.0718 O   0  0  0  0  0  0  0  0  0  0  0  0
  2  1  1  6
  2  3  1  0
  3  4  1  0
  4  5  1  0
  5  6  1  1
  6  7  1  0
  7  8  1  0
  8  9  2  0
  8 10  1  0
 10 11  1  0
 11 12  1  0
 12 13  1  0
 13 14  1  0
 14 15  2  0
 14 16  2  0
 14 17  1  0
 17 18  1  0
 18 19  1  0
 19 20  1  0
 20 21  1  0
 21 22  1  0
 13 23  1  0
 23 24  1  0
  5 25  1  0
 25  2  1  0
 24 10  1  0
 22 17  1  0
M  END
>  <energy_score>  (2186) 
-46.82449

>  <inchikey>  (2186) 
None

>  <smiles>  (2186) 
None

>  <ref_pdb>  (2186) 
A4706a

>  <alias>  (2186) 
None

>  <HIPPO Pose ID>  (2186) 
499830

>  <name>  (2186) 
P499830

>  <HIPPO Compound ID>  (2186) 
314407

>  <ref_mols>  (2186) 
A4706a,A0875a

>  <distance_score>  (2186) 
1.300326

>  <inspiration_score>  (2186) 
None

$$$$
P499831
     RDKit          3D

 25 27  0  0  0  0  0  0  0  0999 V2000
   11.4837   13.8188   22.0842 C   0  0  0  0  0  0  0  0  0  0  0  0
   11.2856   15.1174   21.3555 C   0  0  1  0  0  0  0  0  0  0  0  0
   10.9155   14.8476   20.0008 O   0  0  0  0  0  0  0  0  0  0  0  0
    9.8065   15.7002   19.7646 C   0  0  0  0  0  0  0  0  0  0  0  0
    9.1504   15.8728   21.1184 C   0  0  1  0  0  0  0  0  0  0  0  0
    8.1638   14.7410   21.4192 C   0  0  0  0  0  0  0  0  0  0  0  0
    7.4040   14.9773   22.6183 O   0  0  0  0  0  0  0  0  0  0  0  0
    6.5986   13.9346   22.9315 C   0  0  0  0  0  0  0  0  0  0  0  0
    6.2421   13.0841   22.1161 O   0  0  0  0  0  0  0  0  0  0  0  0
    6.2354   13.8017   24.4082 C   0  0  0  0  0  0  0  0  0  0  0  0
    6.7925   12.4138   24.8356 C   0  0  0  0  0  0  0  0  0  0  0  0
    7.4122   12.3079   26.2091 C   0  0  0  0  0  0  0  0  0  0  0  0
    8.1546   13.5254   26.5438 N   0  0  0  0  0  0  0  0  0  0  0  0
    9.5681   13.9315   25.6949 S   0  0  0  0  0  0  0  0  0  0  0  0
    9.2914   13.9115   24.2849 O   0  0  0  0  0  0  0  0  0  0  0  0
   10.0754   15.1144   26.3435 O   0  0  0  0  0  0  0  0  0  0  0  0
   10.5999   12.6237   26.0332 N   0  0  0  0  0  0  0  0  0  0  0  0
   10.6015   11.5409   25.0017 C   0  0  0  0  0  0  0  0  0  0  0  0
   11.7006   10.5179   25.2661 C   0  0  0  0  0  0  0  0  0  0  0  0
   13.1022   11.1727   25.3878 C   0  0  0  0  0  0  0  0  0  0  0  0
   13.0419   12.6712   25.5964 C   0  0  0  0  0  0  0  0  0  0  0  0
   11.9349   13.0205   26.5562 C   0  0  0  0  0  0  0  0  0  0  0  0
    7.1839   14.6488   26.6537 C   0  0  0  0  0  0  0  0  0  0  0  0
    6.6302   15.0073   25.2822 C   0  0  0  0  0  0  0  0  0  0  0  0
   10.2623   15.8526   22.0183 O   0  0  0  0  0  0  0  0  0  0  0  0
  2  1  1  1
  2  3  1  0
  3  4  1  0
  4  5  1  0
  5  6  1  1
  6  7  1  0
  7  8  1  0
  8  9  2  0
  8 10  1  0
 10 11  1  0
 11 12  1  0
 12 13  1  0
 13 14  1  0
 14 15  2  0
 14 16  2  0
 14 17  1  0
 17 18  1  0
 18 19  1  0
 19 20  1  0
 20 21  1  0
 21 22  1  0
 13 23  1  0
 23 24  1  0
  5 25  1  0
 25  2  1  0
 24 10  1  0
 22 17  1  0
M  END
>  <energy_score>  (2187) 
-44.087888

>  <inchikey>  (2187) 
None

>  <smiles>  (2187) 
None

>  <ref_pdb>  (2187) 
A4706a

>  <alias>  (2187) 
None

>  <HIPPO Pose ID>  (2187) 
499831

>  <name>  (2187) 
P499831

>  <HIPPO Compound ID>  (2187) 
314407

>  <ref_mols>  (2187) 
A4706a,A0875a

>  <distance_score>  (2187) 
1.275665

>  <inspiration_score>  (2187) 
None

$$$$
P499832
     RDKit          3D

 25 28  0  0  0  0  0  0  0  0999 V2000
    6.5724   16.0249   22.3674 O   0  0  0  0  0  0  0  0  0  0  0  0
    7.0070   15.0221   22.9174 C   0  0  0  0  0  0  0  0  0  0  0  0
    8.2300   14.4826   22.6419 O   0  0  0  0  0  0  0  0  0  0  0  0
    9.1904   15.4088   22.0540 C   0  0  2  0  0  0  0  0  0  0  0  0
    9.0948   15.4588   20.5183 C   0  0  0  0  0  0  0  0  0  0  0  0
   10.2264   14.9864   19.7917 O   0  0  0  0  0  0  0  0  0  0  0  0
   11.3643   14.6530   20.5989 C   0  0  1  0  0  0  0  0  0  0  0  0
   11.7171   15.6968   21.6885 C   0  0  0  0  0  0  0  0  0  0  0  0
   10.6025   15.0150   22.4976 C   0  0  2  0  0  0  0  0  0  0  0  0
   11.0269   13.7267   21.7910 C   0  0  0  0  0  0  0  0  0  0  0  0
    6.2224   14.3150   24.0376 C   0  0  0  0  0  0  0  0  0  0  0  0
    6.6579   12.8694   24.3185 C   0  0  0  0  0  0  0  0  0  0  0  0
    6.9622   12.5041   25.7599 C   0  0  0  0  0  0  0  0  0  0  0  0
    7.5417   13.6204   26.5004 N   0  0  0  0  0  0  0  0  0  0  0  0
    9.0596   14.2788   26.2301 S   0  0  0  0  0  0  0  0  0  0  0  0
    9.0382   15.0560   25.0222 O   0  0  0  0  0  0  0  0  0  0  0  0
    9.4297   14.9322   27.4621 O   0  0  0  0  0  0  0  0  0  0  0  0
   10.1783   13.0518   26.0065 N   0  0  0  0  0  0  0  0  0  0  0  0
   11.5737   13.6158   26.1286 C   0  0  0  0  0  0  0  0  0  0  0  0
   12.5956   12.8495   25.2931 C   0  0  0  0  0  0  0  0  0  0  0  0
   12.3447   11.3712   25.4751 C   0  0  0  0  0  0  0  0  0  0  0  0
   10.8976   10.9667   25.0906 C   0  0  0  0  0  0  0  0  0  0  0  0
   10.0491   12.1861   24.8304 C   0  0  0  0  0  0  0  0  0  0  0  0
    6.4895   14.6665   26.6295 C   0  0  0  0  0  0  0  0  0  0  0  0
    6.1285   15.2542   25.2640 C   0  0  0  0  0  0  0  0  0  0  0  0
  1  2  2  0
  2  3  1  0
  4  3  1  6
  4  5  1  0
  5  6  1  0
  6  7  1  0
  7  8  1  1
  9  8  1  6
  9 10  1  0
  2 11  1  0
 11 12  1  0
 12 13  1  0
 13 14  1  0
 14 15  1  0
 15 16  2  0
 15 17  2  0
 15 18  1  0
 18 19  1  0
 19 20  1  0
 20 21  1  0
 21 22  1  0
 22 23  1  0
 14 24  1  0
 24 25  1  0
  9  4  1  0
 25 11  1  0
 10  7  1  0
 23 18  1  0
M  END
>  <energy_score>  (2188) 
-30.841406

>  <inchikey>  (2188) 
None

>  <smiles>  (2188) 
None

>  <ref_pdb>  (2188) 
A4706a

>  <alias>  (2188) 
None

>  <HIPPO Pose ID>  (2188) 
499832

>  <name>  (2188) 
P499832

>  <HIPPO Compound ID>  (2188) 
314408

>  <ref_mols>  (2188) 
A4706a,A0875a

>  <distance_score>  (2188) 
1.773455

>  <inspiration_score>  (2188) 
None

$$$$
P499833
     RDKit          3D

 25 27  0  0  0  0  0  0  0  0999 V2000
   11.1937   14.7132   19.0064 C   0  0  0  0  0  0  0  0  0  0  0  0
    9.9808   16.0046   19.2624 S   0  0  0  0  0  0  0  0  0  0  0  0
    9.6010   15.9062   21.0502 C   0  0  2  0  0  0  0  0  0  0  0  0
   10.8083   15.8314   21.9681 C   0  0  0  0  0  0  0  0  0  0  0  0
   11.0530   14.4596   22.2524 O   0  0  0  0  0  0  0  0  0  0  0  0
    9.8071   13.7790   22.1062 C   0  0  0  0  0  0  0  0  0  0  0  0
    8.7930   14.6725   21.3929 C   0  0  1  0  0  0  0  0  0  0  0  0
    7.7095   15.0380   22.2724 O   0  0  0  0  0  0  0  0  0  0  0  0
    6.9054   13.9938   22.6213 C   0  0  0  0  0  0  0  0  0  0  0  0
    6.4034   13.1808   21.8648 O   0  0  0  0  0  0  0  0  0  0  0  0
    6.8148   13.9327   24.1059 C   0  0  0  0  0  0  0  0  0  0  0  0
    6.4949   12.5690   24.7215 C   0  0  0  0  0  0  0  0  0  0  0  0
    6.8230   12.5666   26.2192 C   0  0  0  0  0  0  0  0  0  0  0  0
    7.3980   13.8654   26.5937 N   0  0  0  0  0  0  0  0  0  0  0  0
    8.9982   14.3529   26.4502 S   0  0  0  0  0  0  0  0  0  0  0  0
    9.6026   14.2741   27.7492 O   0  0  0  0  0  0  0  0  0  0  0  0
    8.9927   15.6097   25.7493 O   0  0  0  0  0  0  0  0  0  0  0  0
    9.9217   13.3339   25.4597 N   0  0  0  0  0  0  0  0  0  0  0  0
    9.8240   11.9050   25.7333 C   0  0  0  0  0  0  0  0  0  0  0  0
   10.9175   11.0904   25.1046 C   0  0  0  0  0  0  0  0  0  0  0  0
   12.2987   11.6326   25.4466 C   0  0  0  0  0  0  0  0  0  0  0  0
   12.3809   13.0053   24.8381 C   0  0  0  0  0  0  0  0  0  0  0  0
   11.3300   13.8960   25.4578 C   0  0  0  0  0  0  0  0  0  0  0  0
    6.3872   14.9489   26.3469 C   0  0  0  0  0  0  0  0  0  0  0  0
    6.1102   15.0606   24.8388 C   0  0  0  0  0  0  0  0  0  0  0  0
  1  2  1  0
  3  2  1  6
  3  4  1  0
  4  5  1  0
  5  6  1  0
  6  7  1  0
  7  8  1  1
  8  9  1  0
  9 10  2  0
  9 11  1  0
 11 12  1  0
 12 13  1  0
 13 14  1  0
 14 15  1  0
 15 16  2  0
 15 17  2  0
 15 18  1  0
 18 19  1  0
 19 20  1  0
 20 21  1  0
 21 22  1  0
 22 23  1  0
 14 24  1  0
 24 25  1  0
  7  3  1  0
 25 11  1  0
 23 18  1  0
M  END
>  <energy_score>  (2189) 
-25.001046

>  <inchikey>  (2189) 
None

>  <smiles>  (2189) 
None

>  <ref_pdb>  (2189) 
A4706a

>  <alias>  (2189) 
None

>  <HIPPO Pose ID>  (2189) 
499833

>  <name>  (2189) 
P499833

>  <HIPPO Compound ID>  (2189) 
314409

>  <ref_mols>  (2189) 
A4706a,A0875a

>  <distance_score>  (2189) 
1.811697

>  <inspiration_score>  (2189) 
None

$$$$
P499834
     RDKit          3D

 25 27  0  0  0  0  0  0  0  0999 V2000
   11.1867   14.7215   18.9505 C   0  0  0  0  0  0  0  0  0  0  0  0
    9.9674   15.9919   19.2821 S   0  0  0  0  0  0  0  0  0  0  0  0
    9.6934   15.8738   21.0898 C   0  0  2  0  0  0  0  0  0  0  0  0
   10.9626   15.7727   21.9214 C   0  0  0  0  0  0  0  0  0  0  0  0
   11.2020   14.3835   22.1294 O   0  0  0  0  0  0  0  0  0  0  0  0
    9.9138   13.7759   22.2026 C   0  0  0  0  0  0  0  0  0  0  0  0
    8.8916   14.6370   21.4605 C   0  0  1  0  0  0  0  0  0  0  0  0
    7.7925   15.0135   22.3227 O   0  0  0  0  0  0  0  0  0  0  0  0
    6.9783   13.9906   22.7091 C   0  0  0  0  0  0  0  0  0  0  0  0
    6.4844   13.1494   21.9768 O   0  0  0  0  0  0  0  0  0  0  0  0
    6.8658   13.9942   24.2018 C   0  0  0  0  0  0  0  0  0  0  0  0
    6.4574   12.7149   24.9152 C   0  0  0  0  0  0  0  0  0  0  0  0
    6.9059   12.7806   26.3838 C   0  0  0  0  0  0  0  0  0  0  0  0
    7.5873   14.0573   26.7169 N   0  0  0  0  0  0  0  0  0  0  0  0
    9.2354   14.4291   26.5437 S   0  0  0  0  0  0  0  0  0  0  0  0
    9.5833   15.1756   27.7249 O   0  0  0  0  0  0  0  0  0  0  0  0
    9.4929   15.0288   25.2534 O   0  0  0  0  0  0  0  0  0  0  0  0
   10.1049   12.9836   26.5975 N   0  0  0  0  0  0  0  0  0  0  0  0
   11.5614   13.2129   26.8262 C   0  0  0  0  0  0  0  0  0  0  0  0
   12.3018   13.4124   25.5352 C   0  0  0  0  0  0  0  0  0  0  0  0
   12.1399   12.2451   24.6193 C   0  0  0  0  0  0  0  0  0  0  0  0
   10.9652   11.3281   24.9263 C   0  0  0  0  0  0  0  0  0  0  0  0
    9.7899   11.9840   25.5705 C   0  0  0  0  0  0  0  0  0  0  0  0
    6.6836   15.2104   26.4034 C   0  0  0  0  0  0  0  0  0  0  0  0
    6.3322   15.2317   24.9035 C   0  0  0  0  0  0  0  0  0  0  0  0
  1  2  1  0
  3  2  1  6
  3  4  1  0
  4  5  1  0
  5  6  1  0
  6  7  1  0
  7  8  1  1
  8  9  1  0
  9 10  2  0
  9 11  1  0
 11 12  1  0
 12 13  1  0
 13 14  1  0
 14 15  1  0
 15 16  2  0
 15 17  2  0
 15 18  1  0
 18 19  1  0
 19 20  1  0
 20 21  1  0
 21 22  1  0
 22 23  1  0
 14 24  1  0
 24 25  1  0
  7  3  1  0
 25 11  1  0
 23 18  1  0
M  END
>  <energy_score>  (2190) 
-21.006485

>  <inchikey>  (2190) 
None

>  <smiles>  (2190) 
None

>  <ref_pdb>  (2190) 
A4706a

>  <alias>  (2190) 
None

>  <HIPPO Pose ID>  (2190) 
499834

>  <name>  (2190) 
P499834

>  <HIPPO Compound ID>  (2190) 
314409

>  <ref_mols>  (2190) 
A4706a,A0875a

>  <distance_score>  (2190) 
1.550139

>  <inspiration_score>  (2190) 
None

$$$$
P499835
     RDKit          3D

 25 27  0  0  0  0  0  0  0  0999 V2000
   11.3170   14.9769   18.3250 C   0  0  0  0  0  0  0  0  0  0  0  0
    9.9253   15.7515   19.1522 S   0  0  0  0  0  0  0  0  0  0  0  0
   10.1993   14.9971   20.7293 C   0  0  1  0  0  0  0  0  0  0  0  0
   11.3097   15.6939   21.4893 C   0  0  0  0  0  0  0  0  0  0  0  0
   11.2779   15.0346   22.7425 O   0  0  0  0  0  0  0  0  0  0  0  0
    9.8841   14.8945   23.0051 C   0  0  0  0  0  0  0  0  0  0  0  0
    9.0661   14.8120   21.7279 C   0  0  1  0  0  0  0  0  0  0  0  0
    7.9216   15.7101   21.6871 O   0  0  0  0  0  0  0  0  0  0  0  0
    6.7468   15.4576   22.3682 C   0  0  0  0  0  0  0  0  0  0  0  0
    5.6337   15.6856   21.9055 O   0  0  0  0  0  0  0  0  0  0  0  0
    6.8722   14.8235   23.7266 C   0  0  0  0  0  0  0  0  0  0  0  0
    6.6598   13.3299   23.6901 C   0  0  0  0  0  0  0  0  0  0  0  0
    7.2386   12.6772   24.9311 C   0  0  0  0  0  0  0  0  0  0  0  0
    7.4309   13.6322   26.0482 N   0  0  0  0  0  0  0  0  0  0  0  0
    8.9194   14.3604   26.4016 S   0  0  0  0  0  0  0  0  0  0  0  0
    9.1395   14.2752   27.8199 O   0  0  0  0  0  0  0  0  0  0  0  0
    8.9677   15.6483   25.7660 O   0  0  0  0  0  0  0  0  0  0  0  0
   10.0868   13.4118   25.6444 N   0  0  0  0  0  0  0  0  0  0  0  0
   11.4580   14.0288   25.7576 C   0  0  0  0  0  0  0  0  0  0  0  0
   12.4923   13.2023   24.9891 C   0  0  0  0  0  0  0  0  0  0  0  0
   12.4818   11.7606   25.4409 C   0  0  0  0  0  0  0  0  0  0  0  0
   11.0609   11.2368   25.2375 C   0  0  0  0  0  0  0  0  0  0  0  0
   10.1344   12.0446   26.1257 C   0  0  0  0  0  0  0  0  0  0  0  0
    6.2597   14.5639   26.1730 C   0  0  0  0  0  0  0  0  0  0  0  0
    6.0684   15.4049   24.8885 C   0  0  0  0  0  0  0  0  0  0  0  0
  1  2  1  0
  3  2  1  6
  3  4  1  0
  4  5  1  0
  5  6  1  0
  6  7  1  0
  7  8  1  1
  8  9  1  0
  9 10  2  0
  9 11  1  0
 11 12  1  0
 12 13  1  0
 13 14  1  0
 14 15  1  0
 15 16  2  0
 15 17  2  0
 15 18  1  0
 18 19  1  0
 19 20  1  0
 20 21  1  0
 21 22  1  0
 22 23  1  0
 14 24  1  0
 24 25  1  0
  7  3  1  0
 25 11  1  0
 23 18  1  0
M  END
>  <energy_score>  (2191) 
-19.955649

>  <inchikey>  (2191) 
None

>  <smiles>  (2191) 
None

>  <ref_pdb>  (2191) 
A4706a

>  <alias>  (2191) 
None

>  <HIPPO Pose ID>  (2191) 
499835

>  <name>  (2191) 
P499835

>  <HIPPO Compound ID>  (2191) 
314409

>  <ref_mols>  (2191) 
A0875a,A4706a

>  <distance_score>  (2191) 
1.886495

>  <inspiration_score>  (2191) 
None

$$$$
P499836
     RDKit          3D

 25 26  0  0  0  0  0  0  0  0999 V2000
   17.3225    9.8659   27.3965 C   0  0  0  0  0  0  0  0  0  0  0  0
   16.6956   10.6416   28.0665 C   0  0  0  0  0  0  0  0  0  0  0  0
   15.9521   11.6085   28.9035 C   0  0  1  0  0  0  0  0  0  0  0  0
   15.6692   10.9659   30.2723 C   0  0  0  0  0  0  0  0  0  0  0  0
   16.7971   12.8820   29.1157 C   0  0  0  0  0  0  0  0  0  0  0  0
   15.9984   13.9338   29.6789 O   0  0  0  0  0  0  0  0  0  0  0  0
   16.8154   14.9297   30.2930 C   0  0  0  0  0  0  0  0  0  0  0  0
   14.6255   11.8648   28.3566 O   0  0  0  0  0  0  0  0  0  0  0  0
   14.4430   12.4439   27.1429 C   0  0  0  0  0  0  0  0  0  0  0  0
   15.3151   12.8891   26.4221 O   0  0  0  0  0  0  0  0  0  0  0  0
   12.9747   12.3628   26.7688 C   0  0  0  0  0  0  0  0  0  0  0  0
   12.0871   13.5149   27.1871 C   0  0  0  0  0  0  0  0  0  0  0  0
   10.6586   13.2464   26.7703 C   0  0  0  0  0  0  0  0  0  0  0  0
   10.5236   13.0148   25.3123 N   0  0  0  0  0  0  0  0  0  0  0  0
    9.3588   14.0289   24.6316 S   0  0  0  0  0  0  0  0  0  0  0  0
    9.2212   13.7564   23.2271 O   0  0  0  0  0  0  0  0  0  0  0  0
    9.6510   15.3420   25.1460 O   0  0  0  0  0  0  0  0  0  0  0  0
    8.0142   13.4269   25.4429 N   0  0  0  0  0  0  0  0  0  0  0  0
    7.5409   12.0873   25.0361 C   0  0  0  0  0  0  0  0  0  0  0  0
    6.7183   11.5119   26.1840 C   0  0  0  0  0  0  0  0  0  0  0  0
    5.5705   12.4430   26.5722 C   0  0  0  0  0  0  0  0  0  0  0  0
    6.0609   13.8702   26.8136 C   0  0  0  0  0  0  0  0  0  0  0  0
    6.8933   14.3746   25.6357 C   0  0  0  0  0  0  0  0  0  0  0  0
   11.8003   12.9250   24.5774 C   0  0  0  0  0  0  0  0  0  0  0  0
   12.7109   11.9354   25.3211 C   0  0  0  0  0  0  0  0  0  0  0  0
  1  2  3  0
  3  2  1  0
  3  4  1  1
  3  5  1  0
  5  6  1  0
  6  7  1  0
  3  8  1  0
  8  9  1  0
  9 10  2  0
  9 11  1  0
 11 12  1  0
 12 13  1  0
 13 14  1  0
 14 15  1  0
 15 16  2  0
 15 17  2  0
 15 18  1  0
 18 19  1  0
 19 20  1  0
 20 21  1  0
 21 22  1  0
 22 23  1  0
 14 24  1  0
 24 25  1  0
 25 11  1  0
 23 18  1  0
M  END
>  <energy_score>  (2192) 
-68.254419

>  <inchikey>  (2192) 
None

>  <smiles>  (2192) 
None

>  <ref_pdb>  (2192) 
A4706a

>  <alias>  (2192) 
None

>  <HIPPO Pose ID>  (2192) 
499836

>  <name>  (2192) 
P499836

>  <HIPPO Compound ID>  (2192) 
314410

>  <ref_mols>  (2192) 
A4706a,A0875a

>  <distance_score>  (2192) 
1.843937

>  <inspiration_score>  (2192) 
None

$$$$
P499837
     RDKit          3D

 25 27  0  0  0  0  0  0  0  0999 V2000
   10.3608   14.9956   18.8754 C   0  0  0  0  0  0  0  0  0  0  0  0
    9.9981   14.5834   20.2954 C   0  0  1  0  0  0  0  0  0  0  0  0
   11.2048   14.0565   21.0269 C   0  0  0  0  0  0  0  0  0  0  0  0
   11.7687   15.1311   21.7267 O   0  0  0  0  0  0  0  0  0  0  0  0
   10.9185   16.1723   21.5998 C   0  0  0  0  0  0  0  0  0  0  0  0
   11.3053   17.3035   21.7755 O   0  0  0  0  0  0  0  0  0  0  0  0
    9.5496   15.7445   21.1378 C   0  0  2  0  0  0  0  0  0  0  0  0
    8.8302   15.3744   22.3224 O   0  0  0  0  0  0  0  0  0  0  0  0
    7.7343   14.5628   22.3286 C   0  0  0  0  0  0  0  0  0  0  0  0
    7.1144   14.1512   21.3648 O   0  0  0  0  0  0  0  0  0  0  0  0
    7.4798   14.1705   23.7632 C   0  0  0  0  0  0  0  0  0  0  0  0
    7.2640   12.6965   24.0817 C   0  0  0  0  0  0  0  0  0  0  0  0
    7.4539   12.4037   25.5776 C   0  0  0  0  0  0  0  0  0  0  0  0
    7.6406   13.6545   26.3487 N   0  0  0  0  0  0  0  0  0  0  0  0
    9.1710   14.3921   26.4841 S   0  0  0  0  0  0  0  0  0  0  0  0
    9.6482   14.2447   27.8319 O   0  0  0  0  0  0  0  0  0  0  0  0
    9.0755   15.6936   25.8751 O   0  0  0  0  0  0  0  0  0  0  0  0
   10.1707   13.4563   25.4763 N   0  0  0  0  0  0  0  0  0  0  0  0
   11.1673   14.2770   24.7741 C   0  0  0  0  0  0  0  0  0  0  0  0
   12.2663   13.4078   24.2115 C   0  0  0  0  0  0  0  0  0  0  0  0
   13.0569   12.6620   25.2772 C   0  0  0  0  0  0  0  0  0  0  0  0
   12.2237   12.5513   26.5293 C   0  0  0  0  0  0  0  0  0  0  0  0
   10.7718   12.2914   26.1218 C   0  0  0  0  0  0  0  0  0  0  0  0
    6.5233   14.6139   26.0594 C   0  0  0  0  0  0  0  0  0  0  0  0
    6.5188   15.0300   24.5731 C   0  0  0  0  0  0  0  0  0  0  0  0
  2  1  1  6
  2  3  1  0
  3  4  1  0
  4  5  1  0
  5  6  2  0
  5  7  1  0
  7  8  1  1
  8  9  1  0
  9 10  2  0
  9 11  1  0
 11 12  1  0
 12 13  1  0
 13 14  1  0
 14 15  1  0
 15 16  2  0
 15 17  2  0
 15 18  1  0
 18 19  1  0
 19 20  1  0
 20 21  1  0
 21 22  1  0
 22 23  1  0
 14 24  1  0
 24 25  1  0
  7  2  1  0
 25 11  1  0
 23 18  1  0
M  END
>  <energy_score>  (2193) 
-9.566859

>  <inchikey>  (2193) 
None

>  <smiles>  (2193) 
None

>  <ref_pdb>  (2193) 
A4706a

>  <alias>  (2193) 
None

>  <HIPPO Pose ID>  (2193) 
499837

>  <name>  (2193) 
P499837

>  <HIPPO Compound ID>  (2193) 
314411

>  <ref_mols>  (2193) 
A4706a,A0875a

>  <distance_score>  (2193) 
1.883114

>  <inspiration_score>  (2193) 
None

$$$$
P499838
     RDKit          3D

 25 27  0  0  0  0  0  0  0  0999 V2000
   10.1272   15.2198   19.2486 C   0  0  0  0  0  0  0  0  0  0  0  0
    9.9106   14.6744   20.6629 C   0  0  1  0  0  0  0  0  0  0  0  0
   11.2548   14.1672   21.1399 C   0  0  0  0  0  0  0  0  0  0  0  0
   11.8283   15.2061   21.8920 O   0  0  0  0  0  0  0  0  0  0  0  0
   10.7834   15.7459   22.5662 C   0  0  0  0  0  0  0  0  0  0  0  0
   10.9132   16.0908   23.7283 O   0  0  0  0  0  0  0  0  0  0  0  0
    9.5140   15.7298   21.7040 C   0  0  2  0  0  0  0  0  0  0  0  0
    8.4048   15.4968   22.6318 O   0  0  0  0  0  0  0  0  0  0  0  0
    7.3749   14.6500   22.4483 C   0  0  0  0  0  0  0  0  0  0  0  0
    7.0931   14.1154   21.3801 O   0  0  0  0  0  0  0  0  0  0  0  0
    6.5909   14.2804   23.7434 C   0  0  0  0  0  0  0  0  0  0  0  0
    6.8299   12.7748   24.0401 C   0  0  0  0  0  0  0  0  0  0  0  0
    7.3337   12.3034   25.3998 C   0  0  0  0  0  0  0  0  0  0  0  0
    7.9823   13.3906   26.1293 N   0  0  0  0  0  0  0  0  0  0  0  0
    9.4558   13.9687   25.5427 S   0  0  0  0  0  0  0  0  0  0  0  0
    9.6491   15.2249   26.2255 O   0  0  0  0  0  0  0  0  0  0  0  0
    9.4661   13.8223   24.1112 O   0  0  0  0  0  0  0  0  0  0  0  0
   10.6605   12.9244   26.0704 N   0  0  0  0  0  0  0  0  0  0  0  0
   10.7928   11.6511   25.3024 C   0  0  0  0  0  0  0  0  0  0  0  0
   12.1816   11.0761   25.5945 C   0  0  0  0  0  0  0  0  0  0  0  0
   13.3452   11.8850   25.1211 C   0  0  0  0  0  0  0  0  0  0  0  0
   12.8498   13.2920   24.9317 C   0  0  0  0  0  0  0  0  0  0  0  0
   11.9635   13.6726   26.1131 C   0  0  0  0  0  0  0  0  0  0  0  0
    6.9690   14.4858   26.2910 C   0  0  0  0  0  0  0  0  0  0  0  0
    6.7306   15.2072   24.9605 C   0  0  0  0  0  0  0  0  0  0  0  0
  2  1  1  6
  2  3  1  0
  3  4  1  0
  4  5  1  0
  5  6  2  0
  5  7  1  0
  7  8  1  1
  8  9  1  0
  9 10  2  0
  9 11  1  0
 11 12  1  0
 12 13  1  0
 13 14  1  0
 14 15  1  0
 15 16  2  0
 15 17  2  0
 15 18  1  0
 18 19  1  0
 19 20  1  0
 20 21  1  0
 21 22  1  0
 22 23  1  0
 14 24  1  0
 24 25  1  0
  7  2  1  0
 25 11  1  0
 23 18  1  0
M  END
>  <energy_score>  (2194) 
-11.299702

>  <inchikey>  (2194) 
None

>  <smiles>  (2194) 
None

>  <ref_pdb>  (2194) 
A4706a

>  <alias>  (2194) 
None

>  <HIPPO Pose ID>  (2194) 
499838

>  <name>  (2194) 
P499838

>  <HIPPO Compound ID>  (2194) 
314411

>  <ref_mols>  (2194) 
A4706a,A0875a

>  <distance_score>  (2194) 
1.580775

>  <inspiration_score>  (2194) 
None

$$$$
P499839
     RDKit          3D

 25 27  0  0  0  0  0  0  0  0999 V2000
   10.0476   15.1617   19.0994 C   0  0  0  0  0  0  0  0  0  0  0  0
   10.1289   15.5919   20.5489 C   0  0  2  0  0  0  0  0  0  0  0  0
   11.5273   15.2021   21.0222 C   0  0  0  0  0  0  0  0  0  0  0  0
   11.5143   15.3524   22.4220 O   0  0  0  0  0  0  0  0  0  0  0  0
   10.2071   15.3396   22.7910 C   0  0  0  0  0  0  0  0  0  0  0  0
    9.8503   15.6778   23.9079 O   0  0  0  0  0  0  0  0  0  0  0  0
    9.3114   14.9019   21.6440 C   0  0  1  0  0  0  0  0  0  0  0  0
    7.9926   15.3626   22.0472 O   0  0  0  0  0  0  0  0  0  0  0  0
    7.1578   14.3527   22.4548 C   0  0  0  0  0  0  0  0  0  0  0  0
    7.0901   13.2828   21.8511 O   0  0  0  0  0  0  0  0  0  0  0  0
    6.2365   14.6307   23.6735 C   0  0  0  0  0  0  0  0  0  0  0  0
    5.6624   13.3198   24.2893 C   0  0  0  0  0  0  0  0  0  0  0  0
    6.1121   12.9881   25.7168 C   0  0  0  0  0  0  0  0  0  0  0  0
    7.5349   13.3523   25.9233 N   0  0  0  0  0  0  0  0  0  0  0  0
    8.6220   12.4207   25.0472 S   0  0  0  0  0  0  0  0  0  0  0  0
    8.0415   11.1080   24.9036 O   0  0  0  0  0  0  0  0  0  0  0  0
    9.0446   13.1478   23.8828 O   0  0  0  0  0  0  0  0  0  0  0  0
    9.9976   12.1849   25.9935 N   0  0  0  0  0  0  0  0  0  0  0  0
   10.9269   11.2695   25.2434 C   0  0  0  0  0  0  0  0  0  0  0  0
   12.3954   11.5398   25.5820 C   0  0  0  0  0  0  0  0  0  0  0  0
   12.7440   12.9338   25.1331 C   0  0  0  0  0  0  0  0  0  0  0  0
   11.6736   13.9158   25.5655 C   0  0  0  0  0  0  0  0  0  0  0  0
   10.6823   13.3618   26.5507 C   0  0  0  0  0  0  0  0  0  0  0  0
    7.6728   14.8262   25.8561 C   0  0  0  0  0  0  0  0  0  0  0  0
    6.7591   15.4930   24.8181 C   0  0  0  0  0  0  0  0  0  0  0  0
  2  1  1  6
  2  3  1  0
  3  4  1  0
  4  5  1  0
  5  6  2  0
  5  7  1  0
  7  8  1  1
  8  9  1  0
  9 10  2  0
  9 11  1  0
 11 12  1  0
 12 13  1  0
 13 14  1  0
 14 15  1  0
 15 16  2  0
 15 17  2  0
 15 18  1  0
 18 19  1  0
 19 20  1  0
 20 21  1  0
 21 22  1  0
 22 23  1  0
 14 24  1  0
 24 25  1  0
  7  2  1  0
 25 11  1  0
 23 18  1  0
M  END
>  <energy_score>  (2195) 
-20.566273

>  <inchikey>  (2195) 
None

>  <smiles>  (2195) 
None

>  <ref_pdb>  (2195) 
A4706a

>  <alias>  (2195) 
None

>  <HIPPO Pose ID>  (2195) 
499839

>  <name>  (2195) 
P499839

>  <HIPPO Compound ID>  (2195) 
314411

>  <ref_mols>  (2195) 
A4706a,A0875a

>  <distance_score>  (2195) 
1.849024

>  <inspiration_score>  (2195) 
None

$$$$
P499840
     RDKit          3D

 25 28  0  0  0  0  0  0  0  0999 V2000
    6.8204   13.2700   21.7264 O   0  0  0  0  0  0  0  0  0  0  0  0
    7.0618   14.2581   22.4198 C   0  0  0  0  0  0  0  0  0  0  0  0
    8.1897   15.0244   22.2692 O   0  0  0  0  0  0  0  0  0  0  0  0
    9.2098   14.5173   21.3420 C   0  0  2  0  0  0  0  0  0  0  0  0
   10.4015   13.7810   21.9930 C   0  0  0  0  0  0  0  0  0  0  0  0
   11.2046   14.8026   22.6141 O   0  0  0  0  0  0  0  0  0  0  0  0
   11.2160   15.8550   21.6317 C   0  0  0  0  0  0  0  0  0  0  0  0
   10.0454   15.5905   20.7480 C   0  0  1  0  0  0  0  0  0  0  0  0
   10.2273   15.6164   19.2403 C   0  0  0  0  0  0  0  0  0  0  0  0
    9.5132   16.6343   19.9623 O   0  0  0  0  0  0  0  0  0  0  0  0
    6.0826   14.6153   23.5758 C   0  0  0  0  0  0  0  0  0  0  0  0
    5.6967   13.3635   24.4176 C   0  0  0  0  0  0  0  0  0  0  0  0
    6.4667   13.0988   25.7231 C   0  0  0  0  0  0  0  0  0  0  0  0
    7.4998   14.1312   25.9722 N   0  0  0  0  0  0  0  0  0  0  0  0
    8.9198   13.9622   25.0842 S   0  0  0  0  0  0  0  0  0  0  0  0
    9.5226   15.2541   24.9113 O   0  0  0  0  0  0  0  0  0  0  0  0
    8.5782   13.0700   24.0074 O   0  0  0  0  0  0  0  0  0  0  0  0
    9.8590   13.0598   26.0981 N   0  0  0  0  0  0  0  0  0  0  0  0
   11.1838   13.6021   26.4611 C   0  0  0  0  0  0  0  0  0  0  0  0
   12.2518   13.1430   25.4851 C   0  0  0  0  0  0  0  0  0  0  0  0
   12.3026   11.6424   25.4984 C   0  0  0  0  0  0  0  0  0  0  0  0
   10.9420   11.0691   25.0997 C   0  0  0  0  0  0  0  0  0  0  0  0
    9.7493   11.6200   25.8449 C   0  0  0  0  0  0  0  0  0  0  0  0
    6.8755   15.4685   25.8953 C   0  0  0  0  0  0  0  0  0  0  0  0
    6.4176   15.7993   24.4745 C   0  0  0  0  0  0  0  0  0  0  0  0
  1  2  2  0
  2  3  1  0
  4  3  1  1
  4  5  1  0
  5  6  1  0
  6  7  1  0
  8  7  1  1
  8  9  1  0
  9 10  1  0
  2 11  1  0
 11 12  1  0
 12 13  1  0
 13 14  1  0
 14 15  1  0
 15 16  2  0
 15 17  2  0
 15 18  1  0
 18 19  1  0
 19 20  1  0
 20 21  1  0
 21 22  1  0
 22 23  1  0
 14 24  1  0
 24 25  1  0
  8  4  1  0
 25 11  1  0
  8 10  1  0
 23 18  1  0
M  END
>  <energy_score>  (2196) 
-24.191814

>  <inchikey>  (2196) 
None

>  <smiles>  (2196) 
None

>  <ref_pdb>  (2196) 
A4706a

>  <alias>  (2196) 
None

>  <HIPPO Pose ID>  (2196) 
499840

>  <name>  (2196) 
P499840

>  <HIPPO Compound ID>  (2196) 
314412

>  <ref_mols>  (2196) 
A0875a,A4706a

>  <distance_score>  (2196) 
1.745684

>  <inspiration_score>  (2196) 
None

$$$$
P499841
     RDKit          3D

 25 28  0  0  0  0  0  0  0  0999 V2000
    7.5327   13.8808   21.3495 O   0  0  0  0  0  0  0  0  0  0  0  0
    7.6022   14.5570   22.3688 C   0  0  0  0  0  0  0  0  0  0  0  0
    8.5079   15.5303   22.5787 O   0  0  0  0  0  0  0  0  0  0  0  0
    9.6369   15.8977   21.7110 C   0  0  1  0  0  0  0  0  0  0  0  0
   10.8815   15.9781   22.6177 C   0  0  0  0  0  0  0  0  0  0  0  0
   11.5349   14.6944   22.6472 O   0  0  0  0  0  0  0  0  0  0  0  0
   11.0539   13.9773   21.5031 C   0  0  0  0  0  0  0  0  0  0  0  0
   10.1967   14.9219   20.7298 C   0  0  1  0  0  0  0  0  0  0  0  0
   10.0425   14.9030   19.2083 C   0  0  0  0  0  0  0  0  0  0  0  0
   11.0533   15.6629   19.8004 O   0  0  0  0  0  0  0  0  0  0  0  0
    6.6518   14.3045   23.5907 C   0  0  0  0  0  0  0  0  0  0  0  0
    6.7883   12.8415   24.0921 C   0  0  0  0  0  0  0  0  0  0  0  0
    7.2048   12.5763   25.5375 C   0  0  0  0  0  0  0  0  0  0  0  0
    7.9306   13.7227   26.1057 N   0  0  0  0  0  0  0  0  0  0  0  0
    9.4634   14.0583   25.4806 S   0  0  0  0  0  0  0  0  0  0  0  0
    9.4469   13.7148   24.0944 O   0  0  0  0  0  0  0  0  0  0  0  0
    9.8451   15.3740   25.9239 O   0  0  0  0  0  0  0  0  0  0  0  0
   10.4401   12.9069   26.2049 N   0  0  0  0  0  0  0  0  0  0  0  0
   10.5047   11.6079   25.4633 C   0  0  0  0  0  0  0  0  0  0  0  0
   11.9254   11.0853   25.4679 C   0  0  0  0  0  0  0  0  0  0  0  0
   12.8117   12.0710   24.7847 C   0  0  0  0  0  0  0  0  0  0  0  0
   12.8346   13.3267   25.5976 C   0  0  0  0  0  0  0  0  0  0  0  0
   11.7520   13.4336   26.6640 C   0  0  0  0  0  0  0  0  0  0  0  0
    7.0026   14.8788   26.1245 C   0  0  0  0  0  0  0  0  0  0  0  0
    6.6630   15.3585   24.7145 C   0  0  0  0  0  0  0  0  0  0  0  0
  1  2  2  0
  2  3  1  0
  4  3  1  1
  4  5  1  0
  5  6  1  0
  6  7  1  0
  8  7  1  6
  8  9  1  0
  9 10  1  0
  2 11  1  0
 11 12  1  0
 12 13  1  0
 13 14  1  0
 14 15  1  0
 15 16  2  0
 15 17  2  0
 15 18  1  0
 18 19  1  0
 19 20  1  0
 20 21  1  0
 21 22  1  0
 22 23  1  0
 14 24  1  0
 24 25  1  0
  8  4  1  0
 25 11  1  0
  8 10  1  0
 23 18  1  0
M  END
>  <energy_score>  (2197) 
-22.050471

>  <inchikey>  (2197) 
None

>  <smiles>  (2197) 
None

>  <ref_pdb>  (2197) 
A4706a

>  <alias>  (2197) 
None

>  <HIPPO Pose ID>  (2197) 
499841

>  <name>  (2197) 
P499841

>  <HIPPO Compound ID>  (2197) 
314412

>  <ref_mols>  (2197) 
A4706a,A0875a

>  <distance_score>  (2197) 
1.593836

>  <inspiration_score>  (2197) 
None

$$$$
P499842
     RDKit          3D

 25 28  0  0  0  0  0  0  0  0999 V2000
    6.8914   13.1000   22.1294 O   0  0  0  0  0  0  0  0  0  0  0  0
    7.2472   13.9844   22.9092 C   0  0  0  0  0  0  0  0  0  0  0  0
    8.3188   14.8013   22.6763 O   0  0  0  0  0  0  0  0  0  0  0  0
    9.1792   14.4495   21.5486 C   0  0  2  0  0  0  0  0  0  0  0  0
   10.4117   13.6274   21.9597 C   0  0  0  0  0  0  0  0  0  0  0  0
   11.3002   14.5320   22.6471 O   0  0  0  0  0  0  0  0  0  0  0  0
   11.1995   15.7504   21.8753 C   0  0  0  0  0  0  0  0  0  0  0  0
    9.9792   15.5867   21.0335 C   0  0  1  0  0  0  0  0  0  0  0  0
   10.1020   15.7080   19.5204 C   0  0  0  0  0  0  0  0  0  0  0  0
    9.4350   16.6844   20.3372 O   0  0  0  0  0  0  0  0  0  0  0  0
    6.4817   14.1979   24.2522 C   0  0  0  0  0  0  0  0  0  0  0  0
    6.2524   12.8604   25.0207 C   0  0  0  0  0  0  0  0  0  0  0  0
    7.1760   12.5269   26.2150 C   0  0  0  0  0  0  0  0  0  0  0  0
    8.2342   13.5593   26.4189 N   0  0  0  0  0  0  0  0  0  0  0  0
    9.4795   13.4802   25.2890 S   0  0  0  0  0  0  0  0  0  0  0  0
    8.9905   12.5486   24.2994 O   0  0  0  0  0  0  0  0  0  0  0  0
    9.8978   14.8226   24.9734 O   0  0  0  0  0  0  0  0  0  0  0  0
   10.7861   12.6914   26.0441 N   0  0  0  0  0  0  0  0  0  0  0  0
   11.6533   13.5920   26.8414 C   0  0  0  0  0  0  0  0  0  0  0  0
   13.1304   13.2182   26.7361 C   0  0  0  0  0  0  0  0  0  0  0  0
   13.4098   11.7642   26.7032 C   0  0  0  0  0  0  0  0  0  0  0  0
   12.7900   11.2316   25.4404 C   0  0  0  0  0  0  0  0  0  0  0  0
   11.5239   11.9490   24.9919 C   0  0  0  0  0  0  0  0  0  0  0  0
    7.5696   14.8858   26.5133 C   0  0  0  0  0  0  0  0  0  0  0  0
    6.9508   15.3226   25.1807 C   0  0  0  0  0  0  0  0  0  0  0  0
  1  2  2  0
  2  3  1  0
  4  3  1  1
  4  5  1  0
  5  6  1  0
  6  7  1  0
  8  7  1  1
  8  9  1  0
  9 10  1  0
  2 11  1  0
 11 12  1  0
 12 13  1  0
 13 14  1  0
 14 15  1  0
 15 16  2  0
 15 17  2  0
 15 18  1  0
 18 19  1  0
 19 20  1  0
 20 21  1  0
 21 22  1  0
 22 23  1  0
 14 24  1  0
 24 25  1  0
  8  4  1  0
 25 11  1  0
  8 10  1  0
 23 18  1  0
M  END
>  <energy_score>  (2198) 
-24.711199

>  <inchikey>  (2198) 
None

>  <smiles>  (2198) 
None

>  <ref_pdb>  (2198) 
A4706a

>  <alias>  (2198) 
None

>  <HIPPO Pose ID>  (2198) 
499842

>  <name>  (2198) 
P499842

>  <HIPPO Compound ID>  (2198) 
314412

>  <ref_mols>  (2198) 
A0875a,A4706a

>  <distance_score>  (2198) 
1.677399

>  <inspiration_score>  (2198) 
None

$$$$
P499843
     RDKit          3D

 25 28  0  0  0  0  0  0  0  0999 V2000
    6.2746   15.0372   21.6474 O   0  0  0  0  0  0  0  0  0  0  0  0
    6.9741   14.3320   22.3688 C   0  0  0  0  0  0  0  0  0  0  0  0
    8.2684   13.9852   22.0277 O   0  0  0  0  0  0  0  0  0  0  0  0
    8.8502   14.9251   21.0383 C   0  0  1  0  0  0  0  0  0  0  0  0
    9.1119   16.2441   21.7597 C   0  0  0  0  0  0  0  0  0  0  0  0
   10.3695   16.0389   22.4811 O   0  0  0  0  0  0  0  0  0  0  0  0
   11.1415   15.0962   21.7380 C   0  0  0  0  0  0  0  0  0  0  0  0
   10.2798   14.7078   20.5859 C   0  0  1  0  0  0  0  0  0  0  0  0
   10.8877   14.3642   19.2172 C   0  0  0  0  0  0  0  0  0  0  0  0
   10.5103   15.6789   19.4868 O   0  0  0  0  0  0  0  0  0  0  0  0
    6.3827   13.8601   23.7191 C   0  0  0  0  0  0  0  0  0  0  0  0
    6.8918   12.5271   24.2548 C   0  0  0  0  0  0  0  0  0  0  0  0
    7.2608   12.4288   25.7225 C   0  0  0  0  0  0  0  0  0  0  0  0
    7.7702   13.6913   26.2386 N   0  0  0  0  0  0  0  0  0  0  0  0
    9.2396   14.3333   25.7512 S   0  0  0  0  0  0  0  0  0  0  0  0
    9.6363   15.2565   26.7871 O   0  0  0  0  0  0  0  0  0  0  0  0
    9.1203   14.7763   24.3950 O   0  0  0  0  0  0  0  0  0  0  0  0
   10.3563   13.0909   25.7273 N   0  0  0  0  0  0  0  0  0  0  0  0
   10.2783   12.1186   24.6147 C   0  0  0  0  0  0  0  0  0  0  0  0
   11.0222   10.9071   25.1176 C   0  0  0  0  0  0  0  0  0  0  0  0
   12.4598   11.3091   25.5375 C   0  0  0  0  0  0  0  0  0  0  0  0
   12.7705   12.7496   25.1901 C   0  0  0  0  0  0  0  0  0  0  0  0
   11.7389   13.6471   25.8554 C   0  0  0  0  0  0  0  0  0  0  0  0
    6.6682   14.6933   26.1827 C   0  0  0  0  0  0  0  0  0  0  0  0
    6.3044   15.0253   24.7330 C   0  0  0  0  0  0  0  0  0  0  0  0
  1  2  2  0
  2  3  1  0
  4  3  1  1
  4  5  1  0
  5  6  1  0
  6  7  1  0
  8  7  1  6
  8  9  1  0
  9 10  1  0
  2 11  1  0
 11 12  1  0
 12 13  1  0
 13 14  1  0
 14 15  1  0
 15 16  2  0
 15 17  2  0
 15 18  1  0
 18 19  1  0
 19 20  1  0
 20 21  1  0
 21 22  1  0
 22 23  1  0
 14 24  1  0
 24 25  1  0
  8  4  1  0
 25 11  1  0
  8 10  1  0
 23 18  1  0
M  END
>  <energy_score>  (2199) 
-27.175699

>  <inchikey>  (2199) 
None

>  <smiles>  (2199) 
None

>  <ref_pdb>  (2199) 
A4706a

>  <alias>  (2199) 
None

>  <HIPPO Pose ID>  (2199) 
499843

>  <name>  (2199) 
P499843

>  <HIPPO Compound ID>  (2199) 
314412

>  <ref_mols>  (2199) 
A4706a,A0875a

>  <distance_score>  (2199) 
1.408973

>  <inspiration_score>  (2199) 
None

$$$$
P499844
     RDKit          3D

 25 26  0  0  0  0  0  0  0  0999 V2000
   19.0466   10.9039   28.1397 C   0  0  0  0  0  0  0  0  0  0  0  0
   17.8251   11.6232   28.0254 O   0  0  0  0  0  0  0  0  0  0  0  0
   16.7590   10.7900   27.5776 C   0  0  0  0  0  0  0  0  0  0  0  0
   15.4570   11.5991   27.4683 C   0  0  2  0  0  0  0  0  0  0  0  0
   14.8470   11.8341   28.8629 C   0  0  0  0  0  0  0  0  0  0  0  0
   15.7157   12.5083   29.7672 O   0  0  0  0  0  0  0  0  0  0  0  0
   15.7284   13.9317   29.4522 N   0  0  0  0  0  0  0  0  0  0  0  0
   14.4989   10.8442   26.6801 O   0  0  0  0  0  0  0  0  0  0  0  0
   13.8597   11.5366   25.7065 C   0  0  0  0  0  0  0  0  0  0  0  0
   14.3313   11.7263   24.6010 O   0  0  0  0  0  0  0  0  0  0  0  0
   12.4806   11.9694   26.1465 C   0  0  0  0  0  0  0  0  0  0  0  0
   12.4335   13.4623   26.1911 C   0  0  0  0  0  0  0  0  0  0  0  0
   11.0228   13.9836   26.1657 C   0  0  0  0  0  0  0  0  0  0  0  0
   10.3960   13.5939   24.8989 N   0  0  0  0  0  0  0  0  0  0  0  0
    8.9001   14.2336   24.5986 S   0  0  0  0  0  0  0  0  0  0  0  0
    8.5461   14.0138   23.2222 O   0  0  0  0  0  0  0  0  0  0  0  0
    8.9217   15.5405   25.2022 O   0  0  0  0  0  0  0  0  0  0  0  0
    7.8972   13.3001   25.5871 N   0  0  0  0  0  0  0  0  0  0  0  0
    7.4235   12.0183   25.0220 C   0  0  0  0  0  0  0  0  0  0  0  0
    6.8479   11.1876   26.1601 C   0  0  0  0  0  0  0  0  0  0  0  0
    5.7139   11.9157   26.8754 C   0  0  0  0  0  0  0  0  0  0  0  0
    6.1334   13.3155   27.3006 C   0  0  0  0  0  0  0  0  0  0  0  0
    6.7421   14.0828   26.1345 C   0  0  0  0  0  0  0  0  0  0  0  0
   10.8759   12.3809   24.2322 C   0  0  0  0  0  0  0  0  0  0  0  0
   11.3066   11.4071   25.3277 C   0  0  0  0  0  0  0  0  0  0  0  0
  1  2  1  0
  2  3  1  0
  4  3  1  1
  4  5  1  0
  5  6  1  0
  6  7  1  0
  4  8  1  0
  8  9  1  0
  9 10  2  0
  9 11  1  0
 11 12  1  0
 12 13  1  0
 13 14  1  0
 14 15  1  0
 15 16  2  0
 15 17  2  0
 15 18  1  0
 18 19  1  0
 19 20  1  0
 20 21  1  0
 21 22  1  0
 22 23  1  0
 14 24  1  0
 24 25  1  0
 25 11  1  0
 23 18  1  0
M  END
>  <energy_score>  (2200) 
-73.929903

>  <inchikey>  (2200) 
None

>  <smiles>  (2200) 
None

>  <ref_pdb>  (2200) 
A4706a

>  <alias>  (2200) 
None

>  <HIPPO Pose ID>  (2200) 
499844

>  <name>  (2200) 
P499844

>  <HIPPO Compound ID>  (2200) 
314413

>  <ref_mols>  (2200) 
A4706a,A0875a

>  <distance_score>  (2200) 
1.343082

>  <inspiration_score>  (2200) 
None

$$$$
P499845
     RDKit          3D

 25 28  0  0  0  0  0  0  0  0999 V2000
    6.8164   13.2840   21.9877 O   0  0  0  0  0  0  0  0  0  0  0  0
    7.0705   14.1672   22.8058 C   0  0  0  0  0  0  0  0  0  0  0  0
    8.0469   15.1072   22.6410 O   0  0  0  0  0  0  0  0  0  0  0  0
    8.8108   15.0437   21.4231 C   0  0  2  0  0  0  0  0  0  0  0  0
   10.0294   14.1152   21.3101 C   0  0  1  0  0  0  0  0  0  0  0  0
   10.6042   14.5711   19.9359 C   0  0  0  0  0  0  0  0  0  0  0  0
   10.2841   15.9851   19.8976 O   0  0  0  0  0  0  0  0  0  0  0  0
    9.7188   16.2373   21.2165 C   0  0  2  0  0  0  0  0  0  0  0  0
   10.8586   16.0223   22.2366 C   0  0  0  0  0  0  0  0  0  0  0  0
   11.0224   14.5615   22.3347 N   0  0  0  0  0  0  0  0  0  0  0  0
    6.2677   14.2941   24.1250 C   0  0  0  0  0  0  0  0  0  0  0  0
    6.0827   12.9300   24.8351 C   0  0  0  0  0  0  0  0  0  0  0  0
    7.1592   12.4932   25.8409 C   0  0  0  0  0  0  0  0  0  0  0  0
    8.0541   13.6162   26.2186 N   0  0  0  0  0  0  0  0  0  0  0  0
    9.4173   13.7921   25.2245 S   0  0  0  0  0  0  0  0  0  0  0  0
    9.0730   13.1340   23.9992 O   0  0  0  0  0  0  0  0  0  0  0  0
    9.8744   15.1543   25.3142 O   0  0  0  0  0  0  0  0  0  0  0  0
   10.5012   12.7837   25.9928 N   0  0  0  0  0  0  0  0  0  0  0  0
   10.6898   11.4676   25.3298 C   0  0  0  0  0  0  0  0  0  0  0  0
   12.1278   11.0290   25.5001 C   0  0  0  0  0  0  0  0  0  0  0  0
   13.0101   12.0341   24.8514 C   0  0  0  0  0  0  0  0  0  0  0  0
   12.9022   13.3113   25.6236 C   0  0  0  0  0  0  0  0  0  0  0  0
   11.7011   13.4284   26.5558 C   0  0  0  0  0  0  0  0  0  0  0  0
    7.2668   14.8493   26.4341 C   0  0  0  0  0  0  0  0  0  0  0  0
    6.6964   15.3805   25.1205 C   0  0  0  0  0  0  0  0  0  0  0  0
  1  2  2  0
  2  3  1  0
  4  3  1  1
  4  5  1  0
  5  6  1  6
  6  7  1  0
  7  8  1  0
  8  9  1  1
  9 10  1  0
  2 11  1  0
 11 12  1  0
 12 13  1  0
 13 14  1  0
 14 15  1  0
 15 16  2  0
 15 17  2  0
 15 18  1  0
 18 19  1  0
 19 20  1  0
 20 21  1  0
 21 22  1  0
 22 23  1  0
 14 24  1  0
 24 25  1  0
  8  4  1  0
 25 11  1  0
 10  5  1  0
 23 18  1  0
M  END
>  <energy_score>  (2201) 
-55.473929

>  <inchikey>  (2201) 
None

>  <smiles>  (2201) 
None

>  <ref_pdb>  (2201) 
A4706a

>  <alias>  (2201) 
None

>  <HIPPO Pose ID>  (2201) 
499845

>  <name>  (2201) 
P499845

>  <HIPPO Compound ID>  (2201) 
314414

>  <ref_mols>  (2201) 
A4706a,A0875a

>  <distance_score>  (2201) 
1.552308

>  <inspiration_score>  (2201) 
None

$$$$
P499846
     RDKit          3D

 25 28  0  0  0  0  0  0  0  0999 V2000
    6.7143   13.4890   21.8138 O   0  0  0  0  0  0  0  0  0  0  0  0
    6.9731   14.3484   22.6542 C   0  0  0  0  0  0  0  0  0  0  0  0
    8.0237   15.2146   22.5620 O   0  0  0  0  0  0  0  0  0  0  0  0
    8.8094   15.1312   21.3611 C   0  0  2  0  0  0  0  0  0  0  0  0
    9.9919   14.1602   21.2464 C   0  0  1  0  0  0  0  0  0  0  0  0
   10.5963   14.6115   19.8851 C   0  0  0  0  0  0  0  0  0  0  0  0
   10.3277   16.0357   19.8666 O   0  0  0  0  0  0  0  0  0  0  0  0
    9.7623   16.2909   21.1851 C   0  0  2  0  0  0  0  0  0  0  0  0
   10.8812   16.0181   22.2160 C   0  0  0  0  0  0  0  0  0  0  0  0
   10.9851   14.5503   22.2925 N   0  0  0  0  0  0  0  0  0  0  0  0
    6.1040   14.5213   23.9205 C   0  0  0  0  0  0  0  0  0  0  0  0
    5.7159   13.1524   24.5215 C   0  0  0  0  0  0  0  0  0  0  0  0
    6.7536   12.4663   25.4198 C   0  0  0  0  0  0  0  0  0  0  0  0
    7.7472   13.4430   25.9166 N   0  0  0  0  0  0  0  0  0  0  0  0
    9.1466   13.5809   24.9695 S   0  0  0  0  0  0  0  0  0  0  0  0
    9.6398   14.9258   25.1286 O   0  0  0  0  0  0  0  0  0  0  0  0
    8.8775   12.9389   23.7132 O   0  0  0  0  0  0  0  0  0  0  0  0
   10.1599   12.5667   25.8182 N   0  0  0  0  0  0  0  0  0  0  0  0
   10.8283   13.2564   26.9038 C   0  0  0  0  0  0  0  0  0  0  0  0
   12.0954   13.9279   26.4811 C   0  0  0  0  0  0  0  0  0  0  0  0
   12.9246   13.1408   25.4668 C   0  0  0  0  0  0  0  0  0  0  0  0
   12.4745   11.7115   25.4500 C   0  0  0  0  0  0  0  0  0  0  0  0
   11.0134   11.6753   25.0002 C   0  0  0  0  0  0  0  0  0  0  0  0
    7.1008   14.7229   26.2795 C   0  0  0  0  0  0  0  0  0  0  0  0
    6.6070   15.4532   25.0302 C   0  0  0  0  0  0  0  0  0  0  0  0
  1  2  2  0
  2  3  1  0
  4  3  1  1
  4  5  1  0
  5  6  1  6
  6  7  1  0
  7  8  1  0
  8  9  1  1
  9 10  1  0
  2 11  1  0
 11 12  1  0
 12 13  1  0
 13 14  1  0
 14 15  1  0
 15 16  2  0
 15 17  2  0
 15 18  1  0
 18 19  1  0
 19 20  1  0
 20 21  1  0
 21 22  1  0
 22 23  1  0
 14 24  1  0
 24 25  1  0
  8  4  1  0
 25 11  1  0
 10  5  1  0
 23 18  1  0
M  END
>  <energy_score>  (2202) 
-31.774132

>  <inchikey>  (2202) 
None

>  <smiles>  (2202) 
None

>  <ref_pdb>  (2202) 
A4706a

>  <alias>  (2202) 
None

>  <HIPPO Pose ID>  (2202) 
499846

>  <name>  (2202) 
P499846

>  <HIPPO Compound ID>  (2202) 
314414

>  <ref_mols>  (2202) 
A4706a,A0875a

>  <distance_score>  (2202) 
1.799781

>  <inspiration_score>  (2202) 
None

$$$$
P499847
     RDKit          3D

 25 28  0  0  0  0  0  0  0  0999 V2000
    7.1440   13.2831   22.1427 O   0  0  0  0  0  0  0  0  0  0  0  0
    7.1163   14.3751   22.7169 C   0  0  0  0  0  0  0  0  0  0  0  0
    7.9054   15.4312   22.3624 O   0  0  0  0  0  0  0  0  0  0  0  0
    8.7009   15.1646   21.2000 C   0  0  1  0  0  0  0  0  0  0  0  0
    9.5200   16.3178   20.6237 C   0  0  2  0  0  0  0  0  0  0  0  0
   10.1144   15.5888   19.3956 C   0  0  0  0  0  0  0  0  0  0  0  0
   10.3913   14.2655   19.9038 O   0  0  0  0  0  0  0  0  0  0  0  0
    9.9627   14.3157   21.3012 C   0  0  1  0  0  0  0  0  0  0  0  0
   11.0139   15.1787   21.9994 C   0  0  0  0  0  0  0  0  0  0  0  0
   10.6260   16.5347   21.6019 N   0  0  0  0  0  0  0  0  0  0  0  0
    6.1035   14.6274   23.8529 C   0  0  0  0  0  0  0  0  0  0  0  0
    5.7531   13.2691   24.4925 C   0  0  0  0  0  0  0  0  0  0  0  0
    6.9554   12.6912   25.2400 C   0  0  0  0  0  0  0  0  0  0  0  0
    7.6193   13.6904   26.1241 N   0  0  0  0  0  0  0  0  0  0  0  0
    9.1963   14.1870   25.7999 S   0  0  0  0  0  0  0  0  0  0  0  0
    9.2729   14.5942   24.4243 O   0  0  0  0  0  0  0  0  0  0  0  0
    9.5706   15.1189   26.8381 O   0  0  0  0  0  0  0  0  0  0  0  0
   10.2458   12.8815   25.9473 N   0  0  0  0  0  0  0  0  0  0  0  0
   10.0134   11.7595   25.0139 C   0  0  0  0  0  0  0  0  0  0  0  0
   11.0484   10.6682   25.1531 C   0  0  0  0  0  0  0  0  0  0  0  0
   12.4668   11.2107   25.4275 C   0  0  0  0  0  0  0  0  0  0  0  0
   12.5849   12.6572   25.0308 C   0  0  0  0  0  0  0  0  0  0  0  0
   11.6474   13.4345   25.9269 C   0  0  0  0  0  0  0  0  0  0  0  0
    6.7318   14.8803   26.3309 C   0  0  0  0  0  0  0  0  0  0  0  0
    6.4773   15.5900   24.9877 C   0  0  0  0  0  0  0  0  0  0  0  0
  1  2  2  0
  2  3  1  0
  4  3  1  1
  4  5  1  0
  5  6  1  6
  6  7  1  0
  7  8  1  0
  8  9  1  1
  9 10  1  0
  2 11  1  0
 11 12  1  0
 12 13  1  0
 13 14  1  0
 14 15  1  0
 15 16  2  0
 15 17  2  0
 15 18  1  0
 18 19  1  0
 19 20  1  0
 20 21  1  0
 21 22  1  0
 22 23  1  0
 14 24  1  0
 24 25  1  0
  8  4  1  0
 25 11  1  0
 10  5  1  0
 23 18  1  0
M  END
>  <energy_score>  (2203) 
-31.485828

>  <inchikey>  (2203) 
None

>  <smiles>  (2203) 
None

>  <ref_pdb>  (2203) 
A4706a

>  <alias>  (2203) 
None

>  <HIPPO Pose ID>  (2203) 
499847

>  <name>  (2203) 
P499847

>  <HIPPO Compound ID>  (2203) 
314414

>  <ref_mols>  (2203) 
A0875a,A4706a

>  <distance_score>  (2203) 
1.640203

>  <inspiration_score>  (2203) 
None

$$$$
P499848
     RDKit          3D

 25 28  0  0  0  0  0  0  0  0999 V2000
    6.6821   13.3482   21.8172 O   0  0  0  0  0  0  0  0  0  0  0  0
    7.1959   14.1451   22.5850 C   0  0  0  0  0  0  0  0  0  0  0  0
    8.0440   15.1767   22.2746 O   0  0  0  0  0  0  0  0  0  0  0  0
    8.7488   15.0261   21.0526 C   0  0  1  0  0  0  0  0  0  0  0  0
    9.5450   16.2338   20.5688 C   0  0  2  0  0  0  0  0  0  0  0  0
   10.1816   15.5848   19.3197 C   0  0  0  0  0  0  0  0  0  0  0  0
   10.5387   14.2669   19.7802 O   0  0  0  0  0  0  0  0  0  0  0  0
   10.0321   14.2178   21.1412 C   0  0  1  0  0  0  0  0  0  0  0  0
   10.9786   15.0680   21.9870 C   0  0  0  0  0  0  0  0  0  0  0  0
   10.6129   16.4338   21.5965 N   0  0  0  0  0  0  0  0  0  0  0  0
    7.0647   14.0668   24.0696 C   0  0  0  0  0  0  0  0  0  0  0  0
    6.5931   12.7859   24.7382 C   0  0  0  0  0  0  0  0  0  0  0  0
    7.0328   12.7977   26.2141 C   0  0  0  0  0  0  0  0  0  0  0  0
    7.6745   14.0830   26.6149 N   0  0  0  0  0  0  0  0  0  0  0  0
    9.3017   14.5435   26.4436 S   0  0  0  0  0  0  0  0  0  0  0  0
    9.5906   15.3446   27.6061 O   0  0  0  0  0  0  0  0  0  0  0  0
    9.5626   15.1221   25.1457 O   0  0  0  0  0  0  0  0  0  0  0  0
   10.2688   13.1828   26.5279 N   0  0  0  0  0  0  0  0  0  0  0  0
   11.6967   13.5157   26.8001 C   0  0  0  0  0  0  0  0  0  0  0  0
   12.6390   13.1869   25.6652 C   0  0  0  0  0  0  0  0  0  0  0  0
   12.4858   11.7447   25.3294 C   0  0  0  0  0  0  0  0  0  0  0  0
   11.0870   11.5329   24.8009 C   0  0  0  0  0  0  0  0  0  0  0  0
    9.9691   12.0719   25.6272 C   0  0  0  0  0  0  0  0  0  0  0  0
    6.7327   15.2047   26.3029 C   0  0  0  0  0  0  0  0  0  0  0  0
    6.5073   15.2906   24.7852 C   0  0  0  0  0  0  0  0  0  0  0  0
  1  2  2  0
  2  3  1  0
  4  3  1  1
  4  5  1  0
  5  6  1  6
  6  7  1  0
  7  8  1  0
  8  9  1  1
  9 10  1  0
  2 11  1  0
 11 12  1  0
 12 13  1  0
 13 14  1  0
 14 15  1  0
 15 16  2  0
 15 17  2  0
 15 18  1  0
 18 19  1  0
 19 20  1  0
 20 21  1  0
 21 22  1  0
 22 23  1  0
 14 24  1  0
 24 25  1  0
  8  4  1  0
 25 11  1  0
 10  5  1  0
 23 18  1  0
M  END
>  <energy_score>  (2204) 
-23.588961

>  <inchikey>  (2204) 
None

>  <smiles>  (2204) 
None

>  <ref_pdb>  (2204) 
A4706a

>  <alias>  (2204) 
None

>  <HIPPO Pose ID>  (2204) 
499848

>  <name>  (2204) 
P499848

>  <HIPPO Compound ID>  (2204) 
314414

>  <ref_mols>  (2204) 
A4706a,A0875a

>  <distance_score>  (2204) 
1.560409

>  <inspiration_score>  (2204) 
None

$$$$
P499849
     RDKit          3D

 25 27  0  0  0  0  0  0  0  0999 V2000
    6.9730   13.4947   21.6930 O   0  0  0  0  0  0  0  0  0  0  0  0
    7.0975   14.5086   22.3756 C   0  0  0  0  0  0  0  0  0  0  0  0
    8.0504   15.4643   22.1374 O   0  0  0  0  0  0  0  0  0  0  0  0
    9.2517   14.9914   21.4571 C   0  0  2  0  0  0  0  0  0  0  0  0
   10.4801   15.4237   22.2541 C   0  0  0  0  0  0  0  0  0  0  0  0
   11.6318   15.0891   21.4786 O   0  0  0  0  0  0  0  0  0  0  0  0
   11.1675   15.0704   20.1171 C   0  0  0  0  0  0  0  0  0  0  0  0
    9.7273   15.5488   20.1202 C   0  0  0  0  0  0  0  0  0  0  0  0
    9.1160   15.0948   19.0258 F   0  0  0  0  0  0  0  0  0  0  0  0
    9.6618   16.8955   20.0774 F   0  0  0  0  0  0  0  0  0  0  0  0
    6.1677   14.7554   23.5891 C   0  0  0  0  0  0  0  0  0  0  0  0
    5.7565   13.4246   24.2898 C   0  0  0  0  0  0  0  0  0  0  0  0
    6.3286   13.2479   25.7041 C   0  0  0  0  0  0  0  0  0  0  0  0
    7.7507   13.6925   25.7406 N   0  0  0  0  0  0  0  0  0  0  0  0
    8.7850   12.6657   24.9075 S   0  0  0  0  0  0  0  0  0  0  0  0
    8.2105   11.3436   24.9805 O   0  0  0  0  0  0  0  0  0  0  0  0
    9.0978   13.2525   23.6360 O   0  0  0  0  0  0  0  0  0  0  0  0
   10.2506   12.6092   25.7603 N   0  0  0  0  0  0  0  0  0  0  0  0
   10.9776   11.3962   25.2707 C   0  0  0  0  0  0  0  0  0  0  0  0
   12.4354   11.3793   25.7350 C   0  0  0  0  0  0  0  0  0  0  0  0
   13.2238   12.6092   25.4146 C   0  0  0  0  0  0  0  0  0  0  0  0
   12.3056   13.5786   24.7215 C   0  0  0  0  0  0  0  0  0  0  0  0
   11.1162   13.8242   25.6616 C   0  0  0  0  0  0  0  0  0  0  0  0
    7.8513   15.1502   25.4746 C   0  0  0  0  0  0  0  0  0  0  0  0
    6.6656   15.7005   24.6754 C   0  0  0  0  0  0  0  0  0  0  0  0
  1  2  2  0
  2  3  1  0
  4  3  1  1
  4  5  1  0
  5  6  1  0
  6  7  1  0
  7  8  1  0
  8  9  1  0
  8 10  1  0
  2 11  1  0
 11 12  1  0
 12 13  1  0
 13 14  1  0
 14 15  1  0
 15 16  2  0
 15 17  2  0
 15 18  1  0
 18 19  1  0
 19 20  1  0
 20 21  1  0
 21 22  1  0
 22 23  1  0
 14 24  1  0
 24 25  1  0
  8  4  1  0
 25 11  1  0
 23 18  1  0
M  END
>  <energy_score>  (2205) 
-32.724551

>  <inchikey>  (2205) 
None

>  <smiles>  (2205) 
None

>  <ref_pdb>  (2205) 
A4706a

>  <alias>  (2205) 
None

>  <HIPPO Pose ID>  (2205) 
499849

>  <name>  (2205) 
P499849

>  <HIPPO Compound ID>  (2205) 
314415

>  <ref_mols>  (2205) 
A4706a,A0875a

>  <distance_score>  (2205) 
1.778672

>  <inspiration_score>  (2205) 
None

$$$$
P499850
     RDKit          3D

 25 27  0  0  0  0  0  0  0  0999 V2000
   10.7377   14.7691   18.8192 C   0  0  0  0  0  0  0  0  0  0  0  0
    9.7597   15.6850   19.2941 O   0  0  0  0  0  0  0  0  0  0  0  0
    9.7542   15.9387   20.7032 C   0  0  2  0  0  0  0  0  0  0  0  0
   11.1658   15.9486   21.3494 C   0  0  0  0  0  0  0  0  0  0  0  0
   11.1791   14.9410   22.3600 O   0  0  0  0  0  0  0  0  0  0  0  0
    9.8225   14.8774   22.7342 C   0  0  0  0  0  0  0  0  0  0  0  0
    8.9793   14.8769   21.4940 C   0  0  1  0  0  0  0  0  0  0  0  0
    7.6313   15.1676   21.9542 O   0  0  0  0  0  0  0  0  0  0  0  0
    7.0291   14.0963   22.5631 C   0  0  0  0  0  0  0  0  0  0  0  0
    7.3038   12.9303   22.2903 O   0  0  0  0  0  0  0  0  0  0  0  0
    5.9910   14.4131   23.6412 C   0  0  0  0  0  0  0  0  0  0  0  0
    5.8538   13.2098   24.6280 C   0  0  0  0  0  0  0  0  0  0  0  0
    7.0529   13.0036   25.5795 C   0  0  0  0  0  0  0  0  0  0  0  0
    7.9868   14.1283   25.3707 N   0  0  0  0  0  0  0  0  0  0  0  0
    9.5067   14.1112   26.0670 S   0  0  0  0  0  0  0  0  0  0  0  0
    9.3307   14.1246   27.4960 O   0  0  0  0  0  0  0  0  0  0  0  0
   10.2732   15.1715   25.4566 O   0  0  0  0  0  0  0  0  0  0  0  0
   10.2375   12.6533   25.6693 N   0  0  0  0  0  0  0  0  0  0  0  0
   10.0543   12.0148   24.3504 C   0  0  0  0  0  0  0  0  0  0  0  0
   10.2137   10.5251   24.5668 C   0  0  0  0  0  0  0  0  0  0  0  0
   11.5511   10.2220   25.2320 C   0  0  0  0  0  0  0  0  0  0  0  0
   12.4302   11.4613   25.5255 C   0  0  0  0  0  0  0  0  0  0  0  0
   11.6694   12.6587   26.0778 C   0  0  0  0  0  0  0  0  0  0  0  0
    7.2517   15.4011   25.6213 C   0  0  0  0  0  0  0  0  0  0  0  0
    6.3017   15.6666   24.4560 C   0  0  0  0  0  0  0  0  0  0  0  0
  1  2  1  0
  3  2  1  6
  3  4  1  0
  4  5  1  0
  5  6  1  0
  6  7  1  0
  7  8  1  1
  8  9  1  0
  9 10  2  0
  9 11  1  0
 11 12  1  0
 12 13  1  0
 13 14  1  0
 14 15  1  0
 15 16  2  0
 15 17  2  0
 15 18  1  0
 18 19  1  0
 19 20  1  0
 20 21  1  0
 21 22  1  0
 22 23  1  0
 14 24  1  0
 24 25  1  0
  7  3  1  0
 25 11  1  0
 23 18  1  0
M  END
>  <energy_score>  (2206) 
-24.212244

>  <inchikey>  (2206) 
None

>  <smiles>  (2206) 
None

>  <ref_pdb>  (2206) 
A4706a

>  <alias>  (2206) 
None

>  <HIPPO Pose ID>  (2206) 
499850

>  <name>  (2206) 
P499850

>  <HIPPO Compound ID>  (2206) 
314416

>  <ref_mols>  (2206) 
A4706a,A0875a

>  <distance_score>  (2206) 
1.853291

>  <inspiration_score>  (2206) 
None

$$$$
P499851
     RDKit          3D

 25 27  0  0  0  0  0  0  0  0999 V2000
   11.0289   14.8537   18.8382 C   0  0  0  0  0  0  0  0  0  0  0  0
   10.3490   15.4709   19.9185 O   0  0  0  0  0  0  0  0  0  0  0  0
    9.8782   14.5695   20.9377 C   0  0  1  0  0  0  0  0  0  0  0  0
   10.9983   13.8678   21.6943 C   0  0  0  0  0  0  0  0  0  0  0  0
   11.4764   14.7579   22.6988 O   0  0  0  0  0  0  0  0  0  0  0  0
   10.5554   15.8494   22.7266 C   0  0  0  0  0  0  0  0  0  0  0  0
    9.2618   15.4309   22.0285 C   0  0  2  0  0  0  0  0  0  0  0  0
    8.3905   14.7899   23.0053 O   0  0  0  0  0  0  0  0  0  0  0  0
    7.2451   14.2172   22.5698 C   0  0  0  0  0  0  0  0  0  0  0  0
    7.0567   13.8689   21.4112 O   0  0  0  0  0  0  0  0  0  0  0  0
    6.1737   13.9766   23.6382 C   0  0  0  0  0  0  0  0  0  0  0  0
    6.4498   12.7375   24.5194 C   0  0  0  0  0  0  0  0  0  0  0  0
    6.9114   13.1080   25.9240 C   0  0  0  0  0  0  0  0  0  0  0  0
    7.7152   14.3054   25.7408 N   0  0  0  0  0  0  0  0  0  0  0  0
    9.2211   14.5089   26.3646 S   0  0  0  0  0  0  0  0  0  0  0  0
    9.6778   15.8295   26.0349 O   0  0  0  0  0  0  0  0  0  0  0  0
    9.2137   14.0942   27.7389 O   0  0  0  0  0  0  0  0  0  0  0  0
   10.2163   13.4530   25.5013 N   0  0  0  0  0  0  0  0  0  0  0  0
   11.6342   13.8165   25.7836 C   0  0  0  0  0  0  0  0  0  0  0  0
   12.6231   12.9368   25.0593 C   0  0  0  0  0  0  0  0  0  0  0  0
   12.3760   11.5181   25.4714 C   0  0  0  0  0  0  0  0  0  0  0  0
   10.9503   11.1414   25.0637 C   0  0  0  0  0  0  0  0  0  0  0  0
    9.9066   12.0332   25.6736 C   0  0  0  0  0  0  0  0  0  0  0  0
    6.8736   15.4985   25.5701 C   0  0  0  0  0  0  0  0  0  0  0  0
    5.8575   15.2288   24.4632 C   0  0  0  0  0  0  0  0  0  0  0  0
  1  2  1  0
  3  2  1  6
  3  4  1  0
  4  5  1  0
  5  6  1  0
  6  7  1  0
  7  8  1  1
  8  9  1  0
  9 10  2  0
  9 11  1  0
 11 12  1  0
 12 13  1  0
 13 14  1  0
 14 15  1  0
 15 16  2  0
 15 17  2  0
 15 18  1  0
 18 19  1  0
 19 20  1  0
 20 21  1  0
 21 22  1  0
 22 23  1  0
 14 24  1  0
 24 25  1  0
  7  3  1  0
 25 11  1  0
 23 18  1  0
M  END
>  <energy_score>  (2207) 
-31.813914

>  <inchikey>  (2207) 
None

>  <smiles>  (2207) 
None

>  <ref_pdb>  (2207) 
A4706a

>  <alias>  (2207) 
None

>  <HIPPO Pose ID>  (2207) 
499851

>  <name>  (2207) 
P499851

>  <HIPPO Compound ID>  (2207) 
314416

>  <ref_mols>  (2207) 
A4706a,A0875a

>  <distance_score>  (2207) 
1.712959

>  <inspiration_score>  (2207) 
None

$$$$
P499852
     RDKit          3D

 25 27  0  0  0  0  0  0  0  0999 V2000
   10.8287   15.2029   19.1111 C   0  0  0  0  0  0  0  0  0  0  0  0
    9.9543   16.1520   19.7122 O   0  0  0  0  0  0  0  0  0  0  0  0
    9.6366   16.0564   21.1192 C   0  0  2  0  0  0  0  0  0  0  0  0
   10.8526   15.8242   22.0127 C   0  0  0  0  0  0  0  0  0  0  0  0
   10.9998   14.4090   22.1782 O   0  0  0  0  0  0  0  0  0  0  0  0
    9.7748   13.8175   21.7209 C   0  0  0  0  0  0  0  0  0  0  0  0
    8.7264   14.8823   21.4403 C   0  0  1  0  0  0  0  0  0  0  0  0
    7.8840   15.0669   22.6040 O   0  0  0  0  0  0  0  0  0  0  0  0
    7.0276   14.0343   22.8249 C   0  0  0  0  0  0  0  0  0  0  0  0
    6.6855   13.2300   21.9569 O   0  0  0  0  0  0  0  0  0  0  0  0
    6.5662   13.8220   24.2657 C   0  0  0  0  0  0  0  0  0  0  0  0
    7.1894   12.4580   24.6789 C   0  0  0  0  0  0  0  0  0  0  0  0
    7.7049   12.3244   26.0927 C   0  0  0  0  0  0  0  0  0  0  0  0
    8.3072   13.5742   26.5603 N   0  0  0  0  0  0  0  0  0  0  0  0
    9.7557   14.1583   25.9106 S   0  0  0  0  0  0  0  0  0  0  0  0
    9.5647   14.3686   24.5067 O   0  0  0  0  0  0  0  0  0  0  0  0
   10.1292   15.2616   26.7595 O   0  0  0  0  0  0  0  0  0  0  0  0
   10.8734   12.9141   26.0962 N   0  0  0  0  0  0  0  0  0  0  0  0
   10.9827   11.9300   24.9828 C   0  0  0  0  0  0  0  0  0  0  0  0
   12.1176   10.9852   25.3593 C   0  0  0  0  0  0  0  0  0  0  0  0
   13.4922   11.5748   25.2860 C   0  0  0  0  0  0  0  0  0  0  0  0
   13.3656   13.0363   25.6548 C   0  0  0  0  0  0  0  0  0  0  0  0
   12.2104   13.3193   26.6415 C   0  0  0  0  0  0  0  0  0  0  0  0
    7.2359   14.6120   26.6266 C   0  0  0  0  0  0  0  0  0  0  0  0
    6.7784   15.0036   25.2244 C   0  0  0  0  0  0  0  0  0  0  0  0
  1  2  1  0
  3  2  1  6
  3  4  1  0
  4  5  1  0
  5  6  1  0
  6  7  1  0
  7  8  1  1
  8  9  1  0
  9 10  2  0
  9 11  1  0
 11 12  1  0
 12 13  1  0
 13 14  1  0
 14 15  1  0
 15 16  2  0
 15 17  2  0
 15 18  1  0
 18 19  1  0
 19 20  1  0
 20 21  1  0
 21 22  1  0
 22 23  1  0
 14 24  1  0
 24 25  1  0
  7  3  1  0
 25 11  1  0
 23 18  1  0
M  END
>  <energy_score>  (2208) 
-31.423655

>  <inchikey>  (2208) 
None

>  <smiles>  (2208) 
None

>  <ref_pdb>  (2208) 
A4706a

>  <alias>  (2208) 
None

>  <HIPPO Pose ID>  (2208) 
499852

>  <name>  (2208) 
P499852

>  <HIPPO Compound ID>  (2208) 
314416

>  <ref_mols>  (2208) 
A0875a,A4706a

>  <distance_score>  (2208) 
1.243504

>  <inspiration_score>  (2208) 
None

$$$$
P499853
     RDKit          3D

 25 27  0  0  0  0  0  0  0  0999 V2000
   10.2690   15.2832   18.6119 C   0  0  0  0  0  0  0  0  0  0  0  0
   10.0760   15.9222   19.8651 O   0  0  0  0  0  0  0  0  0  0  0  0
   10.4161   15.0522   20.9077 C   0  0  1  0  0  0  0  0  0  0  0  0
   10.9217   15.6807   22.1678 C   0  0  0  0  0  0  0  0  0  0  0  0
   10.8935   14.6057   23.1194 O   0  0  0  0  0  0  0  0  0  0  0  0
   10.0269   13.5775   22.5746 C   0  0  0  0  0  0  0  0  0  0  0  0
    9.2615   14.2311   21.4464 C   0  0  1  0  0  0  0  0  0  0  0  0
    8.1160   14.9485   22.0027 O   0  0  0  0  0  0  0  0  0  0  0  0
    7.0913   14.1219   22.3525 C   0  0  0  0  0  0  0  0  0  0  0  0
    7.0497   12.9367   22.0216 O   0  0  0  0  0  0  0  0  0  0  0  0
    5.9688   14.6635   23.2290 C   0  0  0  0  0  0  0  0  0  0  0  0
    5.6353   13.5761   24.2854 C   0  0  0  0  0  0  0  0  0  0  0  0
    6.8585   13.2583   25.1623 C   0  0  0  0  0  0  0  0  0  0  0  0
    7.7345   14.4529   25.2095 N   0  0  0  0  0  0  0  0  0  0  0  0
    9.0877   14.4813   26.1826 S   0  0  0  0  0  0  0  0  0  0  0  0
    8.6899   14.0555   27.4968 O   0  0  0  0  0  0  0  0  0  0  0  0
    9.7034   15.7682   26.0021 O   0  0  0  0  0  0  0  0  0  0  0  0
   10.1757   13.3675   25.5664 N   0  0  0  0  0  0  0  0  0  0  0  0
   11.5768   13.7607   25.9056 C   0  0  0  0  0  0  0  0  0  0  0  0
   12.5893   12.9194   25.1536 C   0  0  0  0  0  0  0  0  0  0  0  0
   12.3643   11.4826   25.5221 C   0  0  0  0  0  0  0  0  0  0  0  0
   10.9297   11.0830   25.1508 C   0  0  0  0  0  0  0  0  0  0  0  0
    9.8863   11.9598   25.8076 C   0  0  0  0  0  0  0  0  0  0  0  0
    6.9074   15.6837   25.3378 C   0  0  0  0  0  0  0  0  0  0  0  0
    6.2660   15.9529   23.9789 C   0  0  0  0  0  0  0  0  0  0  0  0
  1  2  1  0
  3  2  1  6
  3  4  1  0
  4  5  1  0
  5  6  1  0
  6  7  1  0
  7  8  1  1
  8  9  1  0
  9 10  2  0
  9 11  1  0
 11 12  1  0
 12 13  1  0
 13 14  1  0
 14 15  1  0
 15 16  2  0
 15 17  2  0
 15 18  1  0
 18 19  1  0
 19 20  1  0
 20 21  1  0
 21 22  1  0
 22 23  1  0
 14 24  1  0
 24 25  1  0
  7  3  1  0
 25 11  1  0
 23 18  1  0
M  END
>  <energy_score>  (2209) 
-43.017771

>  <inchikey>  (2209) 
None

>  <smiles>  (2209) 
None

>  <ref_pdb>  (2209) 
A4706a

>  <alias>  (2209) 
None

>  <HIPPO Pose ID>  (2209) 
499853

>  <name>  (2209) 
P499853

>  <HIPPO Compound ID>  (2209) 
314416

>  <ref_mols>  (2209) 
A4706a,A0875a

>  <distance_score>  (2209) 
1.797926

>  <inspiration_score>  (2209) 
None

$$$$
P499854
     RDKit          3D

 25 27  0  0  0  0  0  0  0  0999 V2000
   11.3429   15.0983   18.5632 C   0  0  0  0  0  0  0  0  0  0  0  0
   10.1540   14.9523   19.4743 C   0  0  0  0  0  0  0  0  0  0  0  0
   10.2582   15.4685   20.8989 C   0  0  2  0  0  0  0  0  0  0  0  0
   11.6637   15.3227   21.4702 C   0  0  0  0  0  0  0  0  0  0  0  0
   11.5271   15.3217   22.8837 O   0  0  0  0  0  0  0  0  0  0  0  0
   10.2241   14.8273   23.1554 C   0  0  0  0  0  0  0  0  0  0  0  0
    9.4766   14.5832   21.8660 C   0  0  1  0  0  0  0  0  0  0  0  0
    8.0762   14.8479   22.0668 O   0  0  0  0  0  0  0  0  0  0  0  0
    7.4468   13.8448   22.7530 C   0  0  0  0  0  0  0  0  0  0  0  0
    7.8738   12.6936   22.8199 O   0  0  0  0  0  0  0  0  0  0  0  0
    6.1287   14.2276   23.4210 C   0  0  0  0  0  0  0  0  0  0  0  0
    5.8018   13.1823   24.5269 C   0  0  0  0  0  0  0  0  0  0  0  0
    6.7404   13.2550   25.7437 C   0  0  0  0  0  0  0  0  0  0  0  0
    7.6632   14.3936   25.5276 N   0  0  0  0  0  0  0  0  0  0  0  0
    9.0340   14.5439   26.4635 S   0  0  0  0  0  0  0  0  0  0  0  0
    8.7086   14.1351   27.7990 O   0  0  0  0  0  0  0  0  0  0  0  0
    9.5783   15.8537   26.2232 O   0  0  0  0  0  0  0  0  0  0  0  0
   10.1670   13.4911   25.8250 N   0  0  0  0  0  0  0  0  0  0  0  0
    9.8378   12.0766   25.6852 C   0  0  0  0  0  0  0  0  0  0  0  0
   10.9496   11.3160   24.9948 C   0  0  0  0  0  0  0  0  0  0  0  0
   12.3605   11.6368   25.4848 C   0  0  0  0  0  0  0  0  0  0  0  0
   12.5853   13.1166   25.4469 C   0  0  0  0  0  0  0  0  0  0  0  0
   11.5372   13.7771   26.3273 C   0  0  0  0  0  0  0  0  0  0  0  0
    6.8435   15.6295   25.4215 C   0  0  0  0  0  0  0  0  0  0  0  0
    6.1556   15.6195   24.0569 C   0  0  0  0  0  0  0  0  0  0  0  0
  1  2  1  0
  3  2  1  6
  3  4  1  0
  4  5  1  0
  5  6  1  0
  6  7  1  0
  7  8  1  1
  8  9  1  0
  9 10  2  0
  9 11  1  0
 11 12  1  0
 12 13  1  0
 13 14  1  0
 14 15  1  0
 15 16  2  0
 15 17  2  0
 15 18  1  0
 18 19  1  0
 19 20  1  0
 20 21  1  0
 21 22  1  0
 22 23  1  0
 14 24  1  0
 24 25  1  0
  7  3  1  0
 25 11  1  0
 23 18  1  0
M  END
>  <energy_score>  (2210) 
-56.375375

>  <inchikey>  (2210) 
None

>  <smiles>  (2210) 
None

>  <ref_pdb>  (2210) 
A4706a

>  <alias>  (2210) 
None

>  <HIPPO Pose ID>  (2210) 
499854

>  <name>  (2210) 
P499854

>  <HIPPO Compound ID>  (2210) 
314417

>  <ref_mols>  (2210) 
A4706a,A0875a

>  <distance_score>  (2210) 
1.752701

>  <inspiration_score>  (2210) 
None

$$$$
P499855
     RDKit          3D

 25 27  0  0  0  0  0  0  0  0999 V2000
   10.2794   15.0992   18.7683 C   0  0  0  0  0  0  0  0  0  0  0  0
    9.6473   15.3465   20.1181 C   0  0  0  0  0  0  0  0  0  0  0  0
   10.0894   14.3504   21.1689 C   0  0  1  0  0  0  0  0  0  0  0  0
   11.5978   14.2867   21.3426 C   0  0  0  0  0  0  0  0  0  0  0  0
   11.9439   15.1741   22.4141 O   0  0  0  0  0  0  0  0  0  0  0  0
   10.7129   15.7275   22.8866 C   0  0  0  0  0  0  0  0  0  0  0  0
    9.6598   14.6849   22.5727 C   0  0  1  0  0  0  0  0  0  0  0  0
    8.2967   15.0882   22.7831 O   0  0  0  0  0  0  0  0  0  0  0  0
    7.4818   14.0522   23.1242 C   0  0  0  0  0  0  0  0  0  0  0  0
    7.6837   12.8901   22.7675 O   0  0  0  0  0  0  0  0  0  0  0  0
    6.2592   14.4034   23.9847 C   0  0  0  0  0  0  0  0  0  0  0  0
    5.8211   13.1396   24.7483 C   0  0  0  0  0  0  0  0  0  0  0  0
    6.8065   12.7191   25.8456 C   0  0  0  0  0  0  0  0  0  0  0  0
    7.4333   13.8629   26.5437 N   0  0  0  0  0  0  0  0  0  0  0  0
    9.0388   14.3529   26.4701 S   0  0  0  0  0  0  0  0  0  0  0  0
    9.2848   15.1084   27.6729 O   0  0  0  0  0  0  0  0  0  0  0  0
    9.2404   15.0013   25.2069 O   0  0  0  0  0  0  0  0  0  0  0  0
   10.1255   13.0805   26.4936 N   0  0  0  0  0  0  0  0  0  0  0  0
   11.5315   13.6031   26.6157 C   0  0  0  0  0  0  0  0  0  0  0  0
   12.4657   13.1637   25.5088 C   0  0  0  0  0  0  0  0  0  0  0  0
   12.4186   11.6764   25.4419 C   0  0  0  0  0  0  0  0  0  0  0  0
   11.0407   11.2919   24.9538 C   0  0  0  0  0  0  0  0  0  0  0  0
    9.8657   11.9728   25.5815 C   0  0  0  0  0  0  0  0  0  0  0  0
    6.5261   15.0538   26.4708 C   0  0  0  0  0  0  0  0  0  0  0  0
    6.3833   15.5383   25.0123 C   0  0  0  0  0  0  0  0  0  0  0  0
  1  2  1  0
  3  2  1  6
  3  4  1  0
  4  5  1  0
  5  6  1  0
  6  7  1  0
  7  8  1  6
  8  9  1  0
  9 10  2  0
  9 11  1  0
 11 12  1  0
 12 13  1  0
 13 14  1  0
 14 15  1  0
 15 16  2  0
 15 17  2  0
 15 18  1  0
 18 19  1  0
 19 20  1  0
 20 21  1  0
 21 22  1  0
 22 23  1  0
 14 24  1  0
 24 25  1  0
  7  3  1  0
 25 11  1  0
 23 18  1  0
M  END
>  <energy_score>  (2211) 
-5.73897

>  <inchikey>  (2211) 
None

>  <smiles>  (2211) 
None

>  <ref_pdb>  (2211) 
A4706a

>  <alias>  (2211) 
None

>  <HIPPO Pose ID>  (2211) 
499855

>  <name>  (2211) 
P499855

>  <HIPPO Compound ID>  (2211) 
314417

>  <ref_mols>  (2211) 
A4706a,A0875a

>  <distance_score>  (2211) 
1.530512

>  <inspiration_score>  (2211) 
None

$$$$
P499856
     RDKit          3D

 25 27  0  0  0  0  0  0  0  0999 V2000
   11.1171   15.0363   19.1210 C   0  0  0  0  0  0  0  0  0  0  0  0
    9.9535   15.8219   19.7061 C   0  0  0  0  0  0  0  0  0  0  0  0
    9.6526   15.7925   21.2288 C   0  0  2  0  0  0  0  0  0  0  0  0
   10.8872   15.7812   22.1423 C   0  0  0  0  0  0  0  0  0  0  0  0
   11.1025   14.4402   22.6103 O   0  0  0  0  0  0  0  0  0  0  0  0
   10.1477   13.6503   21.9001 C   0  0  0  0  0  0  0  0  0  0  0  0
    8.9287   14.5202   21.6362 C   0  0  1  0  0  0  0  0  0  0  0  0
    8.1184   14.7556   22.8248 O   0  0  0  0  0  0  0  0  0  0  0  0
    7.0787   13.8980   23.0332 C   0  0  0  0  0  0  0  0  0  0  0  0
    6.7240   13.0529   22.2124 O   0  0  0  0  0  0  0  0  0  0  0  0
    6.3608   14.0299   24.3996 C   0  0  0  0  0  0  0  0  0  0  0  0
    6.2595   12.6610   25.1300 C   0  0  0  0  0  0  0  0  0  0  0  0
    7.2737   12.3387   26.2446 C   0  0  0  0  0  0  0  0  0  0  0  0
    8.2078   13.4664   26.5039 N   0  0  0  0  0  0  0  0  0  0  0  0
    9.4977   13.5526   25.4198 S   0  0  0  0  0  0  0  0  0  0  0  0
    9.8759   14.9329   25.2974 O   0  0  0  0  0  0  0  0  0  0  0  0
    9.0675   12.7508   24.3075 O   0  0  0  0  0  0  0  0  0  0  0  0
   10.7630   12.7127   26.1813 N   0  0  0  0  0  0  0  0  0  0  0  0
   11.5094   11.8496   25.2311 C   0  0  0  0  0  0  0  0  0  0  0  0
   12.9282   12.3100   25.0146 C   0  0  0  0  0  0  0  0  0  0  0  0
   13.7576   12.3780   26.2654 C   0  0  0  0  0  0  0  0  0  0  0  0
   12.9427   12.8990   27.4273 C   0  0  0  0  0  0  0  0  0  0  0  0
   11.6286   13.5823   27.0269 C   0  0  0  0  0  0  0  0  0  0  0  0
    7.4254   14.7194   26.6508 C   0  0  0  0  0  0  0  0  0  0  0  0
    6.8061   15.1678   25.3264 C   0  0  0  0  0  0  0  0  0  0  0  0
  1  2  1  0
  3  2  1  6
  3  4  1  0
  4  5  1  0
  5  6  1  0
  6  7  1  0
  7  8  1  1
  8  9  1  0
  9 10  2  0
  9 11  1  0
 11 12  1  0
 12 13  1  0
 13 14  1  0
 14 15  1  0
 15 16  2  0
 15 17  2  0
 15 18  1  0
 18 19  1  0
 19 20  1  0
 20 21  1  0
 21 22  1  0
 22 23  1  0
 14 24  1  0
 24 25  1  0
  7  3  1  0
 25 11  1  0
 23 18  1  0
M  END
>  <energy_score>  (2212) 
-42.647269

>  <inchikey>  (2212) 
None

>  <smiles>  (2212) 
None

>  <ref_pdb>  (2212) 
A4706a

>  <alias>  (2212) 
None

>  <HIPPO Pose ID>  (2212) 
499856

>  <name>  (2212) 
P499856

>  <HIPPO Compound ID>  (2212) 
314417

>  <ref_mols>  (2212) 
A4706a,A0875a

>  <distance_score>  (2212) 
1.553469

>  <inspiration_score>  (2212) 
None

$$$$
P499857
     RDKit          3D

 25 27  0  0  0  0  0  0  0  0999 V2000
   11.0861   14.7789   18.7066 C   0  0  0  0  0  0  0  0  0  0  0  0
   10.0985   15.3881   19.6738 C   0  0  0  0  0  0  0  0  0  0  0  0
    9.7218   14.5785   20.9334 C   0  0  1  0  0  0  0  0  0  0  0  0
   10.9204   13.9271   21.6096 C   0  0  0  0  0  0  0  0  0  0  0  0
   11.4292   14.8110   22.5976 O   0  0  0  0  0  0  0  0  0  0  0  0
   10.5407   15.9294   22.6328 C   0  0  0  0  0  0  0  0  0  0  0  0
    9.1976   15.5443   21.9913 C   0  0  2  0  0  0  0  0  0  0  0  0
    8.3235   15.0764   23.0635 O   0  0  0  0  0  0  0  0  0  0  0  0
    7.3537   14.1382   22.9627 C   0  0  0  0  0  0  0  0  0  0  0  0
    7.0294   13.5540   21.9333 O   0  0  0  0  0  0  0  0  0  0  0  0
    6.6819   13.8007   24.3282 C   0  0  0  0  0  0  0  0  0  0  0  0
    6.9507   12.3275   24.7414 C   0  0  0  0  0  0  0  0  0  0  0  0
    7.8490   12.0295   25.9506 C   0  0  0  0  0  0  0  0  0  0  0  0
    8.5446   13.2372   26.4444 N   0  0  0  0  0  0  0  0  0  0  0  0
    9.8421   13.7450   25.4970 S   0  0  0  0  0  0  0  0  0  0  0  0
    9.5625   13.2634   24.1732 O   0  0  0  0  0  0  0  0  0  0  0  0
   10.0940   15.1291   25.8089 O   0  0  0  0  0  0  0  0  0  0  0  0
   11.1793   12.8370   26.0294 N   0  0  0  0  0  0  0  0  0  0  0  0
   11.8984   13.4985   27.1463 C   0  0  0  0  0  0  0  0  0  0  0  0
   13.1763   12.7416   27.5389 C   0  0  0  0  0  0  0  0  0  0  0  0
   14.0399   12.2520   26.3876 C   0  0  0  0  0  0  0  0  0  0  0  0
   13.1873   11.6481   25.3007 C   0  0  0  0  0  0  0  0  0  0  0  0
   12.1173   12.6354   24.8830 C   0  0  0  0  0  0  0  0  0  0  0  0
    7.5282   14.2855   26.7297 C   0  0  0  0  0  0  0  0  0  0  0  0
    6.8848   14.8279   25.4557 C   0  0  0  0  0  0  0  0  0  0  0  0
  1  2  1  0
  3  2  1  6
  3  4  1  0
  4  5  1  0
  5  6  1  0
  6  7  1  0
  7  8  1  1
  8  9  1  0
  9 10  2  0
  9 11  1  0
 11 12  1  0
 12 13  1  0
 13 14  1  0
 14 15  1  0
 15 16  2  0
 15 17  2  0
 15 18  1  0
 18 19  1  0
 19 20  1  0
 20 21  1  0
 21 22  1  0
 22 23  1  0
 14 24  1  0
 24 25  1  0
  7  3  1  0
 25 11  1  0
 23 18  1  0
M  END
>  <energy_score>  (2213) 
-39.49582

>  <inchikey>  (2213) 
None

>  <smiles>  (2213) 
None

>  <ref_pdb>  (2213) 
A4706a

>  <alias>  (2213) 
None

>  <HIPPO Pose ID>  (2213) 
499857

>  <name>  (2213) 
P499857

>  <HIPPO Compound ID>  (2213) 
314417

>  <ref_mols>  (2213) 
A4706a,A0875a

>  <distance_score>  (2213) 
1.451585

>  <inspiration_score>  (2213) 
None

$$$$
P499858
     RDKit          3D

 25 27  0  0  0  0  0  0  0  0999 V2000
   18.6236   12.7253   28.1876 C   0  0  0  0  0  0  0  0  0  0  0  0
   17.2338   12.9285   28.4543 O   0  0  0  0  0  0  0  0  0  0  0  0
   16.5180   11.7975   28.6774 C   0  0  0  0  0  0  0  0  0  0  0  0
   16.9242   10.6483   28.6058 O   0  0  0  0  0  0  0  0  0  0  0  0
   15.1315   12.1371   29.1178 C   0  0  0  0  0  0  0  0  0  0  0  0
   14.2920   12.7992   28.1335 O   0  0  0  0  0  0  0  0  0  0  0  0
   13.9067   12.0874   27.0427 C   0  0  0  0  0  0  0  0  0  0  0  0
   14.2710   10.9521   26.7732 O   0  0  0  0  0  0  0  0  0  0  0  0
   13.0115   12.8848   26.1224 C   0  0  0  0  0  0  0  0  0  0  0  0
   11.9469   13.7333   26.8138 C   0  0  0  0  0  0  0  0  0  0  0  0
   10.5465   13.1989   26.6271 C   0  0  0  0  0  0  0  0  0  0  0  0
   10.2009   13.0234   25.2064 N   0  0  0  0  0  0  0  0  0  0  0  0
    9.0455   14.1128   24.6691 S   0  0  0  0  0  0  0  0  0  0  0  0
    8.8343   13.9447   23.2570 O   0  0  0  0  0  0  0  0  0  0  0  0
    9.4046   15.3743   25.2645 O   0  0  0  0  0  0  0  0  0  0  0  0
    7.7402   13.4837   25.5031 N   0  0  0  0  0  0  0  0  0  0  0  0
    7.2352   12.1629   25.0811 C   0  0  0  0  0  0  0  0  0  0  0  0
    6.5443   11.5363   26.2874 C   0  0  0  0  0  0  0  0  0  0  0  0
    5.4369   12.4425   26.8268 C   0  0  0  0  0  0  0  0  0  0  0  0
    5.9336   13.8697   27.0620 C   0  0  0  0  0  0  0  0  0  0  0  0
    6.6449   14.4194   25.8267 C   0  0  0  0  0  0  0  0  0  0  0  0
   11.3216   12.7789   24.2928 C   0  0  0  0  0  0  0  0  0  0  0  0
   12.3903   12.0021   25.0564 C   0  0  0  0  0  0  0  0  0  0  0  0
   14.4403   11.3273   30.1865 C   0  0  0  0  0  0  0  0  0  0  0  0
   14.9577   12.6908   30.5221 C   0  0  0  0  0  0  0  0  0  0  0  0
  1  2  1  0
  2  3  1  0
  3  4  2  0
  3  5  1  0
  5  6  1  0
  6  7  1  0
  7  8  2  0
  7  9  1  0
  9 10  1  0
 10 11  1  0
 11 12  1  0
 12 13  1  0
 13 14  2  0
 13 15  2  0
 13 16  1  0
 16 17  1  0
 17 18  1  0
 18 19  1  0
 19 20  1  0
 20 21  1  0
 12 22  1  0
 22 23  1  0
  5 24  1  0
 24 25  1  0
 25  5  1  0
 23  9  1  0
 21 16  1  0
M  END
>  <energy_score>  (2214) 
-51.708849

>  <inchikey>  (2214) 
None

>  <smiles>  (2214) 
None

>  <ref_pdb>  (2214) 
A4706a

>  <alias>  (2214) 
None

>  <HIPPO Pose ID>  (2214) 
499858

>  <name>  (2214) 
P499858

>  <HIPPO Compound ID>  (2214) 
314419

>  <ref_mols>  (2214) 
A4706a,A0875a

>  <distance_score>  (2214) 
1.849376

>  <inspiration_score>  (2214) 
None

$$$$
P499859
     RDKit          3D

 25 27  0  0  0  0  0  0  0  0999 V2000
   11.2524   14.3920   18.6674 O   0  0  0  0  0  0  0  0  0  0  0  0
   10.8273   14.9043   19.6870 C   0  0  0  0  0  0  0  0  0  0  0  0
   11.3548   14.6971   20.9289 O   0  0  0  0  0  0  0  0  0  0  0  0
   10.7365   15.6425   21.7780 C   0  0  0  0  0  0  0  0  0  0  0  0
    9.3956   15.8544   21.1426 C   0  0  2  0  0  0  0  0  0  0  0  0
    8.3315   14.7852   21.4481 C   0  0  0  0  0  0  0  0  0  0  0  0
    7.5234   15.1039   22.6032 O   0  0  0  0  0  0  0  0  0  0  0  0
    6.5577   14.1828   22.8986 C   0  0  0  0  0  0  0  0  0  0  0  0
    6.2806   13.2294   22.1750 O   0  0  0  0  0  0  0  0  0  0  0  0
    5.8539   14.4249   24.2468 C   0  0  0  0  0  0  0  0  0  0  0  0
    5.5720   13.0937   24.9749 C   0  0  0  0  0  0  0  0  0  0  0  0
    6.7768   12.4190   25.6419 C   0  0  0  0  0  0  0  0  0  0  0  0
    7.8513   13.4050   25.9100 N   0  0  0  0  0  0  0  0  0  0  0  0
    9.0751   13.4864   24.7580 S   0  0  0  0  0  0  0  0  0  0  0  0
    9.4711   14.8643   24.5918 O   0  0  0  0  0  0  0  0  0  0  0  0
    8.7239   12.6294   23.6560 O   0  0  0  0  0  0  0  0  0  0  0  0
   10.3564   12.7434   25.5149 N   0  0  0  0  0  0  0  0  0  0  0  0
   11.4908   12.5637   24.5761 C   0  0  0  0  0  0  0  0  0  0  0  0
   12.5765   11.7636   25.2833 C   0  0  0  0  0  0  0  0  0  0  0  0
   13.0854   12.4851   26.5155 C   0  0  0  0  0  0  0  0  0  0  0  0
   12.1762   13.6410   26.8999 C   0  0  0  0  0  0  0  0  0  0  0  0
   10.7132   13.3415   26.8015 C   0  0  0  0  0  0  0  0  0  0  0  0
    7.2916   14.7016   26.3594 C   0  0  0  0  0  0  0  0  0  0  0  0
    6.5273   15.3952   25.2283 C   0  0  0  0  0  0  0  0  0  0  0  0
    9.7570   15.7536   19.7585 O   0  0  0  0  0  0  0  0  0  0  0  0
  1  2  2  0
  2  3  1  0
  3  4  1  0
  4  5  1  0
  5  6  1  1
  6  7  1  0
  7  8  1  0
  8  9  2  0
  8 10  1  0
 10 11  1  0
 11 12  1  0
 12 13  1  0
 13 14  1  0
 14 15  2  0
 14 16  2  0
 14 17  1  0
 17 18  1  0
 18 19  1  0
 19 20  1  0
 20 21  1  0
 21 22  1  0
 13 23  1  0
 23 24  1  0
  5 25  1  0
 25  2  1  0
 24 10  1  0
 22 17  1  0
M  END
>  <energy_score>  (2215) 
-51.833088

>  <inchikey>  (2215) 
None

>  <smiles>  (2215) 
None

>  <ref_pdb>  (2215) 
A4706a

>  <alias>  (2215) 
None

>  <HIPPO Pose ID>  (2215) 
499859

>  <name>  (2215) 
P499859

>  <HIPPO Compound ID>  (2215) 
314420

>  <ref_mols>  (2215) 
A0875a,A4706a

>  <distance_score>  (2215) 
1.724968

>  <inspiration_score>  (2215) 
None

$$$$
P499860
     RDKit          3D

 25 27  0  0  0  0  0  0  0  0999 V2000
   11.2290   14.3941   18.6504 O   0  0  0  0  0  0  0  0  0  0  0  0
   10.8131   14.9172   19.6686 C   0  0  0  0  0  0  0  0  0  0  0  0
   11.3377   14.7056   20.9096 O   0  0  0  0  0  0  0  0  0  0  0  0
   10.7318   15.6556   21.7613 C   0  0  0  0  0  0  0  0  0  0  0  0
    9.4026   15.9042   21.1194 C   0  0  2  0  0  0  0  0  0  0  0  0
    8.3080   14.8743   21.4395 C   0  0  0  0  0  0  0  0  0  0  0  0
    7.6287   15.1223   22.6893 O   0  0  0  0  0  0  0  0  0  0  0  0
    6.6950   14.1751   23.0133 C   0  0  0  0  0  0  0  0  0  0  0  0
    6.3555   13.2570   22.2683 O   0  0  0  0  0  0  0  0  0  0  0  0
    6.1137   14.3309   24.4290 C   0  0  0  0  0  0  0  0  0  0  0  0
    5.9290   12.9534   25.0977 C   0  0  0  0  0  0  0  0  0  0  0  0
    7.2210   12.2831   25.5803 C   0  0  0  0  0  0  0  0  0  0  0  0
    8.2738   13.2862   25.9236 N   0  0  0  0  0  0  0  0  0  0  0  0
    9.4727   13.5356   24.7512 S   0  0  0  0  0  0  0  0  0  0  0  0
    9.9428   14.8951   24.8606 O   0  0  0  0  0  0  0  0  0  0  0  0
    8.9930   12.9650   23.5228 O   0  0  0  0  0  0  0  0  0  0  0  0
   10.6992   12.5283   25.2339 N   0  0  0  0  0  0  0  0  0  0  0  0
   10.4190   11.0970   25.0489 C   0  0  0  0  0  0  0  0  0  0  0  0
   11.6573   10.2576   25.2632 C   0  0  0  0  0  0  0  0  0  0  0  0
   12.9501   11.0987   25.4023 C   0  0  0  0  0  0  0  0  0  0  0  0
   12.8373   12.2158   26.4273 C   0  0  0  0  0  0  0  0  0  0  0  0
   11.5053   12.9565   26.3730 C   0  0  0  0  0  0  0  0  0  0  0  0
    7.6620   14.5240   26.4711 C   0  0  0  0  0  0  0  0  0  0  0  0
    6.8576   15.2631   25.3978 C   0  0  0  0  0  0  0  0  0  0  0  0
    9.7571   15.7848   19.7366 O   0  0  0  0  0  0  0  0  0  0  0  0
  1  2  2  0
  2  3  1  0
  3  4  1  0
  4  5  1  0
  5  6  1  1
  6  7  1  0
  7  8  1  0
  8  9  2  0
  8 10  1  0
 10 11  1  0
 11 12  1  0
 12 13  1  0
 13 14  1  0
 14 15  2  0
 14 16  2  0
 14 17  1  0
 17 18  1  0
 18 19  1  0
 19 20  1  0
 20 21  1  0
 21 22  1  0
 13 23  1  0
 23 24  1  0
  5 25  1  0
 25  2  1  0
 24 10  1  0
 22 17  1  0
M  END
>  <energy_score>  (2216) 
-39.781505

>  <inchikey>  (2216) 
None

>  <smiles>  (2216) 
None

>  <ref_pdb>  (2216) 
A4706a

>  <alias>  (2216) 
None

>  <HIPPO Pose ID>  (2216) 
499860

>  <name>  (2216) 
P499860

>  <HIPPO Compound ID>  (2216) 
314420

>  <ref_mols>  (2216) 
A4706a,A0875a

>  <distance_score>  (2216) 
1.411709

>  <inspiration_score>  (2216) 
None

$$$$
P499861
     RDKit          3D

 25 28  0  0  0  0  0  0  0  0999 V2000
    6.7114   13.4853   21.7680 O   0  0  0  0  0  0  0  0  0  0  0  0
    6.9583   14.3693   22.5858 C   0  0  0  0  0  0  0  0  0  0  0  0
    7.9893   15.2554   22.4657 O   0  0  0  0  0  0  0  0  0  0  0  0
    8.7918   15.1447   21.2754 C   0  0  0  0  0  0  0  0  0  0  0  0
    9.9768   14.1791   21.2078 C   0  0  1  0  0  0  0  0  0  0  0  0
   10.6365   14.5926   19.8731 C   0  0  0  0  0  0  0  0  0  0  0  0
   10.3324   16.0105   19.8006 O   0  0  0  0  0  0  0  0  0  0  0  0
    9.7454   16.2999   21.0991 C   0  0  2  0  0  0  0  0  0  0  0  0
   10.8274   16.0279   22.1573 C   0  0  0  0  0  0  0  0  0  0  0  0
   10.9111   14.5941   22.2379 O   0  0  0  0  0  0  0  0  0  0  0  0
    6.0932   14.5458   23.8515 C   0  0  0  0  0  0  0  0  0  0  0  0
    5.7642   13.1809   24.4958 C   0  0  0  0  0  0  0  0  0  0  0  0
    6.8581   12.5562   25.3698 C   0  0  0  0  0  0  0  0  0  0  0  0
    7.8062   13.5901   25.8387 N   0  0  0  0  0  0  0  0  0  0  0  0
    9.2172   13.7513   24.9139 S   0  0  0  0  0  0  0  0  0  0  0  0
    8.9679   13.1329   23.6447 O   0  0  0  0  0  0  0  0  0  0  0  0
    9.7290   15.0832   25.1079 O   0  0  0  0  0  0  0  0  0  0  0  0
   10.1947   12.7307   25.7547 N   0  0  0  0  0  0  0  0  0  0  0  0
   10.6954   13.3017   26.9838 C   0  0  0  0  0  0  0  0  0  0  0  0
   12.1101   13.7651   26.8747 C   0  0  0  0  0  0  0  0  0  0  0  0
   13.0142   12.6623   26.3667 C   0  0  0  0  0  0  0  0  0  0  0  0
   12.5149   12.2391   25.0084 C   0  0  0  0  0  0  0  0  0  0  0  0
   11.0560   11.8037   25.0160 C   0  0  0  0  0  0  0  0  0  0  0  0
    7.1154   14.8470   26.1849 C   0  0  0  0  0  0  0  0  0  0  0  0
    6.5774   15.5240   24.9276 C   0  0  0  0  0  0  0  0  0  0  0  0
  1  2  2  0
  2  3  1  0
  3  4  1  0
  4  5  1  0
  5  6  1  6
  6  7  1  0
  7  8  1  0
  8  9  1  1
  9 10  1  0
  2 11  1  0
 11 12  1  0
 12 13  1  0
 13 14  1  0
 14 15  1  0
 15 16  2  0
 15 17  2  0
 15 18  1  0
 18 19  1  0
 19 20  1  0
 20 21  1  0
 21 22  1  0
 22 23  1  0
 14 24  1  0
 24 25  1  0
  8  4  1  0
 25 11  1  0
 10  5  1  0
 23 18  1  0
M  END
>  <energy_score>  (2217) 
-55.957098

>  <inchikey>  (2217) 
None

>  <smiles>  (2217) 
None

>  <ref_pdb>  (2217) 
A4706a

>  <alias>  (2217) 
None

>  <HIPPO Pose ID>  (2217) 
499861

>  <name>  (2217) 
P499861

>  <HIPPO Compound ID>  (2217) 
314421

>  <ref_mols>  (2217) 
A0875a,A4706a

>  <distance_score>  (2217) 
1.834711

>  <inspiration_score>  (2217) 
None

$$$$
P499862
     RDKit          3D

 25 28  0  0  0  0  0  0  0  0999 V2000
    6.5768   13.3322   21.8334 O   0  0  0  0  0  0  0  0  0  0  0  0
    7.1213   14.0818   22.6271 C   0  0  0  0  0  0  0  0  0  0  0  0
    7.9836   15.1084   22.3426 O   0  0  0  0  0  0  0  0  0  0  0  0
    8.6820   15.0004   21.1104 C   0  0  0  0  0  0  0  0  0  0  0  0
    9.4610   16.2252   20.6504 C   0  0  2  0  0  0  0  0  0  0  0  0
   10.1130   15.6221   19.3926 C   0  0  0  0  0  0  0  0  0  0  0  0
   10.4795   14.2960   19.8305 O   0  0  0  0  0  0  0  0  0  0  0  0
    9.9770   14.2164   21.1879 C   0  0  1  0  0  0  0  0  0  0  0  0
   10.8910   15.0885   22.0325 C   0  0  0  0  0  0  0  0  0  0  0  0
   10.5125   16.4120   21.6412 O   0  0  0  0  0  0  0  0  0  0  0  0
    7.0189   13.9390   24.1111 C   0  0  0  0  0  0  0  0  0  0  0  0
    6.5974   12.6158   24.7421 C   0  0  0  0  0  0  0  0  0  0  0  0
    7.1739   12.5276   26.1709 C   0  0  0  0  0  0  0  0  0  0  0  0
    7.7044   13.8368   26.6190 N   0  0  0  0  0  0  0  0  0  0  0  0
    9.2843   14.3968   26.4059 S   0  0  0  0  0  0  0  0  0  0  0  0
    9.6970   14.8982   27.6916 O   0  0  0  0  0  0  0  0  0  0  0  0
    9.3587   15.2739   25.2605 O   0  0  0  0  0  0  0  0  0  0  0  0
   10.3111   13.1245   26.0418 N   0  0  0  0  0  0  0  0  0  0  0  0
   10.1058   12.3310   24.8209 C   0  0  0  0  0  0  0  0  0  0  0  0
   10.8679   11.0445   25.0528 C   0  0  0  0  0  0  0  0  0  0  0  0
   12.3390   11.3536   25.4478 C   0  0  0  0  0  0  0  0  0  0  0  0
   12.6825   12.8089   25.2335 C   0  0  0  0  0  0  0  0  0  0  0  0
   11.7336   13.6320   26.1005 C   0  0  0  0  0  0  0  0  0  0  0  0
    6.6778   14.9072   26.4083 C   0  0  0  0  0  0  0  0  0  0  0  0
    6.4390   15.1069   24.9001 C   0  0  0  0  0  0  0  0  0  0  0  0
  1  2  2  0
  2  3  1  0
  3  4  1  0
  4  5  1  0
  5  6  1  6
  6  7  1  0
  7  8  1  0
  8  9  1  1
  9 10  1  0
  2 11  1  0
 11 12  1  0
 12 13  1  0
 13 14  1  0
 14 15  1  0
 15 16  2  0
 15 17  2  0
 15 18  1  0
 18 19  1  0
 19 20  1  0
 20 21  1  0
 21 22  1  0
 22 23  1  0
 14 24  1  0
 24 25  1  0
  8  4  1  0
 25 11  1  0
 10  5  1  0
 23 18  1  0
M  END
>  <energy_score>  (2218) 
-20.014213

>  <inchikey>  (2218) 
None

>  <smiles>  (2218) 
None

>  <ref_pdb>  (2218) 
A4706a

>  <alias>  (2218) 
None

>  <HIPPO Pose ID>  (2218) 
499862

>  <name>  (2218) 
P499862

>  <HIPPO Compound ID>  (2218) 
314421

>  <ref_mols>  (2218) 
A4706a,A0875a

>  <distance_score>  (2218) 
1.57434

>  <inspiration_score>  (2218) 
None

$$$$
P499863
     RDKit          3D

 25 27  0  0  0  0  0  0  0  0999 V2000
   10.9265   15.4071   18.6596 C   0  0  0  0  0  0  0  0  0  0  0  0
   10.4012   15.0021   19.6551 C   0  0  0  0  0  0  0  0  0  0  0  0
    9.9258   14.3956   20.9051 C   0  0  1  0  0  0  0  0  0  0  0  0
   11.1217   13.7809   21.6120 C   0  0  0  0  0  0  0  0  0  0  0  0
   11.6283   14.7191   22.5584 O   0  0  0  0  0  0  0  0  0  0  0  0
   10.7245   15.8297   22.5614 C   0  0  0  0  0  0  0  0  0  0  0  0
    9.4055   15.3775   21.9315 C   0  0  2  0  0  0  0  0  0  0  0  0
    8.5824   14.7586   22.9772 O   0  0  0  0  0  0  0  0  0  0  0  0
    7.3534   14.2804   22.6810 C   0  0  0  0  0  0  0  0  0  0  0  0
    6.9818   14.0113   21.5448 O   0  0  0  0  0  0  0  0  0  0  0  0
    6.4640   13.9976   23.9044 C   0  0  0  0  0  0  0  0  0  0  0  0
    6.7426   12.6100   24.5155 C   0  0  0  0  0  0  0  0  0  0  0  0
    7.2469   12.5220   25.9526 C   0  0  0  0  0  0  0  0  0  0  0  0
    7.6168   13.8213   26.4836 N   0  0  0  0  0  0  0  0  0  0  0  0
    9.1484   14.4748   26.5181 S   0  0  0  0  0  0  0  0  0  0  0  0
    9.3059   15.3561   25.3931 O   0  0  0  0  0  0  0  0  0  0  0  0
    9.3322   14.9733   27.8556 O   0  0  0  0  0  0  0  0  0  0  0  0
   10.2398   13.2175   26.2957 N   0  0  0  0  0  0  0  0  0  0  0  0
   10.2452   12.7230   24.9155 C   0  0  0  0  0  0  0  0  0  0  0  0
   10.9202   11.3927   24.9670 C   0  0  0  0  0  0  0  0  0  0  0  0
   12.4082   11.6648   25.2402 C   0  0  0  0  0  0  0  0  0  0  0  0
   12.6420   12.5283   26.4730 C   0  0  0  0  0  0  0  0  0  0  0  0
   11.6346   13.6682   26.6204 C   0  0  0  0  0  0  0  0  0  0  0  0
    6.5220   14.7964   26.3502 C   0  0  0  0  0  0  0  0  0  0  0  0
    6.3480   15.1726   24.8844 C   0  0  0  0  0  0  0  0  0  0  0  0
  1  2  3  0
  3  2  1  6
  3  4  1  0
  4  5  1  0
  5  6  1  0
  6  7  1  0
  7  8  1  1
  8  9  1  0
  9 10  2  0
  9 11  1  0
 11 12  1  0
 12 13  1  0
 13 14  1  0
 14 15  1  0
 15 16  2  0
 15 17  2  0
 15 18  1  0
 18 19  1  0
 19 20  1  0
 20 21  1  0
 21 22  1  0
 22 23  1  0
 14 24  1  0
 24 25  1  0
  7  3  1  0
 25 11  1  0
 23 18  1  0
M  END
>  <energy_score>  (2219) 
-28.733062

>  <inchikey>  (2219) 
None

>  <smiles>  (2219) 
None

>  <ref_pdb>  (2219) 
A4706a

>  <alias>  (2219) 
None

>  <HIPPO Pose ID>  (2219) 
499863

>  <name>  (2219) 
P499863

>  <HIPPO Compound ID>  (2219) 
314422

>  <ref_mols>  (2219) 
A4706a,A0875a

>  <distance_score>  (2219) 
1.685289

>  <inspiration_score>  (2219) 
None

$$$$
P499864
     RDKit          3D

 25 27  0  0  0  0  0  0  0  0999 V2000
   11.0449   14.7670   18.5987 C   0  0  0  0  0  0  0  0  0  0  0  0
   10.2545   14.8378   19.4959 C   0  0  0  0  0  0  0  0  0  0  0  0
    9.3698   15.0372   20.6644 C   0  0  2  0  0  0  0  0  0  0  0  0
    9.6869   16.3891   21.2639 C   0  0  0  0  0  0  0  0  0  0  0  0
   10.9079   16.2057   22.0027 O   0  0  0  0  0  0  0  0  0  0  0  0
   11.0454   14.8039   22.2582 C   0  0  0  0  0  0  0  0  0  0  0  0
    9.7314   14.1437   21.8408 C   0  0  1  0  0  0  0  0  0  0  0  0
    8.7729   14.2044   22.9525 O   0  0  0  0  0  0  0  0  0  0  0  0
    7.5393   13.6812   22.8202 C   0  0  0  0  0  0  0  0  0  0  0  0
    7.0919   13.2346   21.7712 O   0  0  0  0  0  0  0  0  0  0  0  0
    6.7201   13.5568   24.1010 C   0  0  0  0  0  0  0  0  0  0  0  0
    6.9984   12.2097   24.7830 C   0  0  0  0  0  0  0  0  0  0  0  0
    8.3043   12.2145   25.5486 C   0  0  0  0  0  0  0  0  0  0  0  0
    8.4340   13.3954   26.4037 N   0  0  0  0  0  0  0  0  0  0  0  0
    9.8410   14.3059   26.3546 S   0  0  0  0  0  0  0  0  0  0  0  0
    9.8132   15.0722   27.5746 O   0  0  0  0  0  0  0  0  0  0  0  0
    9.9361   14.9748   25.0888 O   0  0  0  0  0  0  0  0  0  0  0  0
   11.1057   13.1402   26.4679 N   0  0  0  0  0  0  0  0  0  0  0  0
   11.7760   12.8709   25.1602 C   0  0  0  0  0  0  0  0  0  0  0  0
   12.8360   11.7999   25.3341 C   0  0  0  0  0  0  0  0  0  0  0  0
   13.9232   12.2466   26.2807 C   0  0  0  0  0  0  0  0  0  0  0  0
   13.3300   12.7196   27.5895 C   0  0  0  0  0  0  0  0  0  0  0  0
   12.1085   13.6287   27.4631 C   0  0  0  0  0  0  0  0  0  0  0  0
    7.2103   14.2439   26.4808 C   0  0  0  0  0  0  0  0  0  0  0  0
    6.8101   14.7211   25.0862 C   0  0  0  0  0  0  0  0  0  0  0  0
  1  2  3  0
  3  2  1  6
  3  4  1  0
  4  5  1  0
  5  6  1  0
  6  7  1  0
  7  8  1  1
  8  9  1  0
  9 10  2  0
  9 11  1  0
 11 12  1  0
 12 13  1  0
 13 14  1  0
 14 15  1  0
 15 16  2  0
 15 17  2  0
 15 18  1  0
 18 19  1  0
 19 20  1  0
 20 21  1  0
 21 22  1  0
 22 23  1  0
 14 24  1  0
 24 25  1  0
  7  3  1  0
 25 11  1  0
 23 18  1  0
M  END
>  <energy_score>  (2220) 
-28.025441

>  <inchikey>  (2220) 
None

>  <smiles>  (2220) 
None

>  <ref_pdb>  (2220) 
A4706a

>  <alias>  (2220) 
None

>  <HIPPO Pose ID>  (2220) 
499864

>  <name>  (2220) 
P499864

>  <HIPPO Compound ID>  (2220) 
314422

>  <ref_mols>  (2220) 
A4706a,A0875a

>  <distance_score>  (2220) 
1.685707

>  <inspiration_score>  (2220) 
None

$$$$
P499865
     RDKit          3D

 25 27  0  0  0  0  0  0  0  0999 V2000
   10.9910   14.9813   18.6807 C   0  0  0  0  0  0  0  0  0  0  0  0
   10.4164   15.3037   19.6815 C   0  0  0  0  0  0  0  0  0  0  0  0
    9.8047   15.6848   20.9760 C   0  0  2  0  0  0  0  0  0  0  0  0
   10.8915   15.7373   22.0395 C   0  0  0  0  0  0  0  0  0  0  0  0
   11.0894   14.4132   22.5402 O   0  0  0  0  0  0  0  0  0  0  0  0
    9.9175   13.6695   22.1983 C   0  0  0  0  0  0  0  0  0  0  0  0
    8.9056   14.5774   21.4970 C   0  0  1  0  0  0  0  0  0  0  0  0
    7.8898   15.0276   22.4417 O   0  0  0  0  0  0  0  0  0  0  0  0
    6.9706   14.0704   22.7389 C   0  0  0  0  0  0  0  0  0  0  0  0
    6.7987   13.0704   22.0390 O   0  0  0  0  0  0  0  0  0  0  0  0
    6.1990   14.1918   24.0578 C   0  0  0  0  0  0  0  0  0  0  0  0
    6.4300   12.8581   24.8234 C   0  0  0  0  0  0  0  0  0  0  0  0
    6.9279   12.9226   26.2543 C   0  0  0  0  0  0  0  0  0  0  0  0
    7.6203   14.1716   26.5681 N   0  0  0  0  0  0  0  0  0  0  0  0
    9.1888   14.5696   26.1024 S   0  0  0  0  0  0  0  0  0  0  0  0
    9.2077   14.7831   24.6850 O   0  0  0  0  0  0  0  0  0  0  0  0
    9.5849   15.6423   26.9805 O   0  0  0  0  0  0  0  0  0  0  0  0
   10.1782   13.2590   26.4178 N   0  0  0  0  0  0  0  0  0  0  0  0
   11.5982   13.6348   26.6674 C   0  0  0  0  0  0  0  0  0  0  0  0
   12.5584   13.1834   25.5872 C   0  0  0  0  0  0  0  0  0  0  0  0
   12.4401   11.7044   25.4421 C   0  0  0  0  0  0  0  0  0  0  0  0
   11.0456   11.3874   24.9509 C   0  0  0  0  0  0  0  0  0  0  0  0
    9.9027   12.0121   25.6976 C   0  0  0  0  0  0  0  0  0  0  0  0
    6.6623   15.2908   26.3591 C   0  0  0  0  0  0  0  0  0  0  0  0
    6.3710   15.4800   24.8708 C   0  0  0  0  0  0  0  0  0  0  0  0
  1  2  3  0
  3  2  1  6
  3  4  1  0
  4  5  1  0
  5  6  1  0
  6  7  1  0
  7  8  1  1
  8  9  1  0
  9 10  2  0
  9 11  1  0
 11 12  1  0
 12 13  1  0
 13 14  1  0
 14 15  1  0
 15 16  2  0
 15 17  2  0
 15 18  1  0
 18 19  1  0
 19 20  1  0
 20 21  1  0
 21 22  1  0
 22 23  1  0
 14 24  1  0
 24 25  1  0
  7  3  1  0
 25 11  1  0
 23 18  1  0
M  END
>  <energy_score>  (2221) 
-28.241075

>  <inchikey>  (2221) 
None

>  <smiles>  (2221) 
None

>  <ref_pdb>  (2221) 
A4706a

>  <alias>  (2221) 
None

>  <HIPPO Pose ID>  (2221) 
499865

>  <name>  (2221) 
P499865

>  <HIPPO Compound ID>  (2221) 
314422

>  <ref_mols>  (2221) 
A4706a,A0875a

>  <distance_score>  (2221) 
1.752333

>  <inspiration_score>  (2221) 
None

$$$$
P499866
     RDKit          3D

 25 27  0  0  0  0  0  0  0  0999 V2000
   11.0577   15.0149   18.6489 C   0  0  0  0  0  0  0  0  0  0  0  0
   10.4831   15.3023   19.6599 C   0  0  0  0  0  0  0  0  0  0  0  0
    9.8675   15.6178   20.9678 C   0  0  2  0  0  0  0  0  0  0  0  0
   10.9477   15.8847   22.0074 C   0  0  0  0  0  0  0  0  0  0  0  0
   11.3691   14.6421   22.5802 O   0  0  0  0  0  0  0  0  0  0  0  0
   10.4298   13.6667   22.1264 C   0  0  0  0  0  0  0  0  0  0  0  0
    9.2087   14.3826   21.5451 C   0  0  1  0  0  0  0  0  0  0  0  0
    8.2607   14.6790   22.6121 O   0  0  0  0  0  0  0  0  0  0  0  0
    7.2241   13.8163   22.7342 C   0  0  0  0  0  0  0  0  0  0  0  0
    6.7106   13.2200   21.7928 O   0  0  0  0  0  0  0  0  0  0  0  0
    6.7580   13.5040   24.1478 C   0  0  0  0  0  0  0  0  0  0  0  0
    7.5393   12.2305   24.5528 C   0  0  0  0  0  0  0  0  0  0  0  0
    7.9359   12.0819   25.9989 C   0  0  0  0  0  0  0  0  0  0  0  0
    8.2668   13.3717   26.5865 N   0  0  0  0  0  0  0  0  0  0  0  0
    9.6909   14.1762   26.1991 S   0  0  0  0  0  0  0  0  0  0  0  0
    9.7938   15.2073   27.2018 O   0  0  0  0  0  0  0  0  0  0  0  0
    9.6718   14.5222   24.8073 O   0  0  0  0  0  0  0  0  0  0  0  0
   10.9550   13.0431   26.4496 N   0  0  0  0  0  0  0  0  0  0  0  0
   12.0939   13.7299   27.1369 C   0  0  0  0  0  0  0  0  0  0  0  0
   13.4692   13.1379   26.8098 C   0  0  0  0  0  0  0  0  0  0  0  0
   13.3978   11.6696   26.7150 C   0  0  0  0  0  0  0  0  0  0  0  0
   12.5390   11.3538   25.5018 C   0  0  0  0  0  0  0  0  0  0  0  0
   11.4103   12.3524   25.2152 C   0  0  0  0  0  0  0  0  0  0  0  0
    7.0690   14.2614   26.5578 C   0  0  0  0  0  0  0  0  0  0  0  0
    6.7563   14.6806   25.1252 C   0  0  0  0  0  0  0  0  0  0  0  0
  1  2  3  0
  3  2  1  6
  3  4  1  0
  4  5  1  0
  5  6  1  0
  6  7  1  0
  7  8  1  1
  8  9  1  0
  9 10  2  0
  9 11  1  0
 11 12  1  0
 12 13  1  0
 13 14  1  0
 14 15  1  0
 15 16  2  0
 15 17  2  0
 15 18  1  0
 18 19  1  0
 19 20  1  0
 20 21  1  0
 21 22  1  0
 22 23  1  0
 14 24  1  0
 24 25  1  0
  7  3  1  0
 25 11  1  0
 23 18  1  0
M  END
>  <energy_score>  (2222) 
-32.684028

>  <inchikey>  (2222) 
None

>  <smiles>  (2222) 
None

>  <ref_pdb>  (2222) 
A4706a

>  <alias>  (2222) 
None

>  <HIPPO Pose ID>  (2222) 
499866

>  <name>  (2222) 
P499866

>  <HIPPO Compound ID>  (2222) 
314422

>  <ref_mols>  (2222) 
A4706a,A0875a

>  <distance_score>  (2222) 
1.660331

>  <inspiration_score>  (2222) 
None

$$$$
P499867
     RDKit          3D

 25 26  0  0  0  0  0  0  0  0999 V2000
   11.4353   13.7358   22.6488 C   0  0  0  0  0  0  0  0  0  0  0  0
   10.0006   13.5422   22.1884 C   0  0  2  0  0  0  0  0  0  0  0  0
    9.8517   14.5054   21.0425 C   0  0  0  0  0  0  0  0  0  0  0  0
   10.2672   15.7949   21.4852 O   0  0  0  0  0  0  0  0  0  0  0  0
    9.4435   16.7350   20.8619 C   0  0  0  0  0  0  0  0  0  0  0  0
    9.5536   16.5364   19.5241 F   0  0  0  0  0  0  0  0  0  0  0  0
    8.1751   16.4570   21.2398 F   0  0  0  0  0  0  0  0  0  0  0  0
    9.0157   13.7416   23.2418 O   0  0  0  0  0  0  0  0  0  0  0  0
    7.7076   13.5103   22.9690 C   0  0  0  0  0  0  0  0  0  0  0  0
    7.2696   13.1852   21.8709 O   0  0  0  0  0  0  0  0  0  0  0  0
    6.7599   13.5629   24.1547 C   0  0  0  0  0  0  0  0  0  0  0  0
    6.8474   12.2521   24.9424 C   0  0  0  0  0  0  0  0  0  0  0  0
    8.0960   12.1928   25.8015 C   0  0  0  0  0  0  0  0  0  0  0  0
    8.3360   13.4517   26.5110 N   0  0  0  0  0  0  0  0  0  0  0  0
    9.8139   14.2371   26.4959 S   0  0  0  0  0  0  0  0  0  0  0  0
    9.7857   15.0562   27.6827 O   0  0  0  0  0  0  0  0  0  0  0  0
   10.0684   14.8651   25.2283 O   0  0  0  0  0  0  0  0  0  0  0  0
   10.9901   13.0188   26.7522 N   0  0  0  0  0  0  0  0  0  0  0  0
   11.4214   12.2505   25.5609 C   0  0  0  0  0  0  0  0  0  0  0  0
   12.8736   12.4890   25.1987 C   0  0  0  0  0  0  0  0  0  0  0  0
   13.8660   12.2273   26.2960 C   0  0  0  0  0  0  0  0  0  0  0  0
   13.3411   12.7086   27.6283 C   0  0  0  0  0  0  0  0  0  0  0  0
   12.1140   13.6085   27.5382 C   0  0  0  0  0  0  0  0  0  0  0  0
    7.1874   14.3979   26.4888 C   0  0  0  0  0  0  0  0  0  0  0  0
    6.8837   14.7925   25.0487 C   0  0  0  0  0  0  0  0  0  0  0  0
  2  1  1  1
  2  3  1  0
  3  4  1  0
  4  5  1  0
  5  6  1  0
  5  7  1  0
  2  8  1  0
  8  9  1  0
  9 10  2  0
  9 11  1  0
 11 12  1  0
 12 13  1  0
 13 14  1  0
 14 15  1  0
 15 16  2  0
 15 17  2  0
 15 18  1  0
 18 19  1  0
 19 20  1  0
 20 21  1  0
 21 22  1  0
 22 23  1  0
 14 24  1  0
 24 25  1  0
 25 11  1  0
 23 18  1  0
M  END
>  <energy_score>  (2223) 
-25.642629

>  <inchikey>  (2223) 
None

>  <smiles>  (2223) 
None

>  <ref_pdb>  (2223) 
A4706a

>  <alias>  (2223) 
None

>  <HIPPO Pose ID>  (2223) 
499867

>  <name>  (2223) 
P499867

>  <HIPPO Compound ID>  (2223) 
314424

>  <ref_mols>  (2223) 
A4706a,A0875a

>  <distance_score>  (2223) 
1.734611

>  <inspiration_score>  (2223) 
None

$$$$
P499868
     RDKit          3D

 25 26  0  0  0  0  0  0  0  0999 V2000
    8.7432   16.8436   21.2447 C   0  0  0  0  0  0  0  0  0  0  0  0
    8.8443   15.6440   22.1721 C   0  0  2  0  0  0  0  0  0  0  0  0
   10.3128   15.1529   22.3425 C   0  0  0  0  0  0  0  0  0  0  0  0
   11.1979   15.4247   21.2643 O   0  0  0  0  0  0  0  0  0  0  0  0
   10.8756   14.7042   20.0925 C   0  0  0  0  0  0  0  0  0  0  0  0
   10.6004   15.5946   19.1173 F   0  0  0  0  0  0  0  0  0  0  0  0
    9.7528   13.9939   20.3107 F   0  0  0  0  0  0  0  0  0  0  0  0
    7.9023   14.6376   21.6757 O   0  0  0  0  0  0  0  0  0  0  0  0
    7.1826   13.7842   22.4392 C   0  0  0  0  0  0  0  0  0  0  0  0
    6.2598   13.1234   21.9708 O   0  0  0  0  0  0  0  0  0  0  0  0
    7.6067   13.5731   23.8600 C   0  0  0  0  0  0  0  0  0  0  0  0
    7.5826   12.1126   24.3156 C   0  0  0  0  0  0  0  0  0  0  0  0
    8.2354   11.9414   25.6814 C   0  0  0  0  0  0  0  0  0  0  0  0
    8.2909   13.2167   26.4131 N   0  0  0  0  0  0  0  0  0  0  0  0
    9.6491   14.2040   26.4230 S   0  0  0  0  0  0  0  0  0  0  0  0
    9.5716   14.9531   27.6447 O   0  0  0  0  0  0  0  0  0  0  0  0
    9.7697   14.9535   25.2050 O   0  0  0  0  0  0  0  0  0  0  0  0
   10.9772   13.1279   26.4830 N   0  0  0  0  0  0  0  0  0  0  0  0
   11.5624   12.8576   25.1314 C   0  0  0  0  0  0  0  0  0  0  0  0
   12.7036   11.8659   25.2594 C   0  0  0  0  0  0  0  0  0  0  0  0
   13.8105   12.3494   26.1610 C   0  0  0  0  0  0  0  0  0  0  0  0
   13.2544   12.7997   27.4920 C   0  0  0  0  0  0  0  0  0  0  0  0
   12.0147   13.6867   27.3958 C   0  0  0  0  0  0  0  0  0  0  0  0
    7.0062   13.9639   26.2958 C   0  0  0  0  0  0  0  0  0  0  0  0
    6.8100   14.4323   24.8502 C   0  0  0  0  0  0  0  0  0  0  0  0
  2  1  1  6
  2  3  1  0
  3  4  1  0
  4  5  1  0
  5  6  1  0
  5  7  1  0
  2  8  1  0
  8  9  1  0
  9 10  2  0
  9 11  1  0
 11 12  1  0
 12 13  1  0
 13 14  1  0
 14 15  1  0
 15 16  2  0
 15 17  2  0
 15 18  1  0
 18 19  1  0
 19 20  1  0
 20 21  1  0
 21 22  1  0
 22 23  1  0
 14 24  1  0
 24 25  1  0
 25 11  1  0
 23 18  1  0
M  END
>  <energy_score>  (2224) 
-41.332161

>  <inchikey>  (2224) 
None

>  <smiles>  (2224) 
None

>  <ref_pdb>  (2224) 
A4706a

>  <alias>  (2224) 
None

>  <HIPPO Pose ID>  (2224) 
499868

>  <name>  (2224) 
P499868

>  <HIPPO Compound ID>  (2224) 
314424

>  <ref_mols>  (2224) 
A4706a,A0875a

>  <distance_score>  (2224) 
1.662884

>  <inspiration_score>  (2224) 
None

$$$$
P499869
     RDKit          3D

 25 26  0  0  0  0  0  0  0  0999 V2000
   20.2192   12.7318   28.9944 C   0  0  0  0  0  0  0  0  0  0  0  0
   19.0368   11.8764   28.9521 N   0  0  0  0  0  0  0  0  0  0  0  0
   17.9085   12.5844   28.3396 C   0  0  0  0  0  0  0  0  0  0  0  0
   16.6219   11.7333   28.3070 C   0  0  1  0  0  0  0  0  0  0  0  0
   16.1008   11.5199   29.7375 C   0  0  0  0  0  0  0  0  0  0  0  0
   14.8256   10.8660   29.7185 O   0  0  0  0  0  0  0  0  0  0  0  0
   14.4246   10.5143   31.0407 C   0  0  0  0  0  0  0  0  0  0  0  0
   15.6170   12.4599   27.5541 O   0  0  0  0  0  0  0  0  0  0  0  0
   14.8874   11.7446   26.6495 C   0  0  0  0  0  0  0  0  0  0  0  0
   15.1146   10.6084   26.2613 O   0  0  0  0  0  0  0  0  0  0  0  0
   13.7254   12.5780   26.1469 C   0  0  0  0  0  0  0  0  0  0  0  0
   12.8925   13.0474   27.3153 C   0  0  0  0  0  0  0  0  0  0  0  0
   11.6305   13.7908   26.9123 C   0  0  0  0  0  0  0  0  0  0  0  0
   10.8245   13.0654   25.8871 N   0  0  0  0  0  0  0  0  0  0  0  0
    9.4642   14.0234   25.4860 S   0  0  0  0  0  0  0  0  0  0  0  0
    9.8825   14.9830   24.4915 O   0  0  0  0  0  0  0  0  0  0  0  0
    8.8957   14.4653   26.7367 O   0  0  0  0  0  0  0  0  0  0  0  0
    8.3784   12.9566   24.7776 N   0  0  0  0  0  0  0  0  0  0  0  0
    8.0456   11.6956   25.4784 C   0  0  0  0  0  0  0  0  0  0  0  0
    6.9671   11.8701   26.5412 C   0  0  0  0  0  0  0  0  0  0  0  0
    5.7376   12.6029   26.0362 C   0  0  0  0  0  0  0  0  0  0  0  0
    6.1228   13.9007   25.3443 C   0  0  0  0  0  0  0  0  0  0  0  0
    7.1572   13.6449   24.2512 C   0  0  0  0  0  0  0  0  0  0  0  0
   11.6415   12.6719   24.7143 C   0  0  0  0  0  0  0  0  0  0  0  0
   12.8147   11.8136   25.1990 C   0  0  0  0  0  0  0  0  0  0  0  0
  1  2  1  0
  2  3  1  0
  4  3  1  1
  4  5  1  0
  5  6  1  0
  6  7  1  0
  4  8  1  0
  8  9  1  0
  9 10  2  0
  9 11  1  0
 11 12  1  0
 12 13  1  0
 13 14  1  0
 14 15  1  0
 15 16  2  0
 15 17  2  0
 15 18  1  0
 18 19  1  0
 19 20  1  0
 20 21  1  0
 21 22  1  0
 22 23  1  0
 14 24  1  0
 24 25  1  0
 25 11  1  0
 23 18  1  0
M  END
>  <energy_score>  (2225) 
-76.465322

>  <inchikey>  (2225) 
None

>  <smiles>  (2225) 
None

>  <ref_pdb>  (2225) 
A4706a

>  <alias>  (2225) 
None

>  <HIPPO Pose ID>  (2225) 
499869

>  <name>  (2225) 
P499869

>  <HIPPO Compound ID>  (2225) 
314426

>  <ref_mols>  (2225) 
A4706a,A0875a

>  <distance_score>  (2225) 
1.739145

>  <inspiration_score>  (2225) 
None

$$$$
P499870
     RDKit          3D

 25 26  0  0  0  0  0  0  0  0999 V2000
   17.5280    8.3858   28.9390 C   0  0  0  0  0  0  0  0  0  0  0  0
   17.4620    9.7239   29.6492 C   0  0  0  0  0  0  0  0  0  0  0  0
   16.1603   10.3299   29.5103 O   0  0  0  0  0  0  0  0  0  0  0  0
   15.9522   11.1539   28.4596 C   0  0  0  0  0  0  0  0  0  0  0  0
   16.7638   11.1933   27.4597 N   0  0  0  0  0  0  0  0  0  0  0  0
   14.6983   12.0356   28.5756 C   0  0  2  0  0  0  0  0  0  0  0  0
   14.0243   11.9183   29.9368 C   0  0  0  0  0  0  0  0  0  0  0  0
   13.7174   11.8132   27.5309 O   0  0  0  0  0  0  0  0  0  0  0  0
   14.0258   12.3592   26.3260 C   0  0  0  0  0  0  0  0  0  0  0  0
   15.0893   12.9266   26.1128 O   0  0  0  0  0  0  0  0  0  0  0  0
   12.9935   12.1659   25.2151 C   0  0  0  0  0  0  0  0  0  0  0  0
   12.6097   13.4770   24.5476 C   0  0  0  0  0  0  0  0  0  0  0  0
   11.4659   14.1841   25.2458 C   0  0  0  0  0  0  0  0  0  0  0  0
   10.2527   13.3403   25.3013 N   0  0  0  0  0  0  0  0  0  0  0  0
    8.8644   14.1728   24.8904 S   0  0  0  0  0  0  0  0  0  0  0  0
    8.6723   14.0566   23.4689 O   0  0  0  0  0  0  0  0  0  0  0  0
    9.0029   15.4480   25.5520 O   0  0  0  0  0  0  0  0  0  0  0  0
    7.6794   13.3312   25.7083 N   0  0  0  0  0  0  0  0  0  0  0  0
    7.0613   12.1572   25.0698 C   0  0  0  0  0  0  0  0  0  0  0  0
    6.5734   11.2685   26.2076 C   0  0  0  0  0  0  0  0  0  0  0  0
    5.5381   12.0024   27.0608 C   0  0  0  0  0  0  0  0  0  0  0  0
    6.0472   13.3648   27.5236 C   0  0  0  0  0  0  0  0  0  0  0  0
    6.6440   14.1691   26.3729 C   0  0  0  0  0  0  0  0  0  0  0  0
   10.4523   11.9583   24.8716 C   0  0  0  0  0  0  0  0  0  0  0  0
   11.7076   11.4930   25.6019 C   0  0  0  0  0  0  0  0  0  0  0  0
  1  2  1  0
  2  3  1  0
  3  4  1  0
  4  5  2  3
  4  6  1  0
  6  7  1  1
  6  8  1  0
  8  9  1  0
  9 10  2  0
  9 11  1  0
 11 12  1  0
 12 13  1  0
 13 14  1  0
 14 15  1  0
 15 16  2  0
 15 17  2  0
 15 18  1  0
 18 19  1  0
 19 20  1  0
 20 21  1  0
 21 22  1  0
 22 23  1  0
 14 24  1  0
 24 25  1  0
 25 11  1  0
 23 18  1  0
M  END
>  <energy_score>  (2226) 
-46.569843

>  <inchikey>  (2226) 
None

>  <smiles>  (2226) 
None

>  <ref_pdb>  (2226) 
A4706a

>  <alias>  (2226) 
None

>  <HIPPO Pose ID>  (2226) 
499870

>  <name>  (2226) 
P499870

>  <HIPPO Compound ID>  (2226) 
314427

>  <ref_mols>  (2226) 
A4706a,A0875a

>  <distance_score>  (2226) 
1.56925

>  <inspiration_score>  (2226) 
None

$$$$
P499871
     RDKit          3D

 25 26  0  0  0  0  0  0  0  0999 V2000
   14.4996   12.0035   31.3006 C   0  0  0  0  0  0  0  0  0  0  0  0
   14.8211   10.5983   30.8292 C   0  0  0  0  0  0  0  0  0  0  0  0
   15.1049   10.6147   29.4179 O   0  0  0  0  0  0  0  0  0  0  0  0
   16.3856   10.8250   29.0286 C   0  0  0  0  0  0  0  0  0  0  0  0
   17.3526   10.9717   29.8699 N   0  0  0  0  0  0  0  0  0  0  0  0
   16.5572   10.8522   27.4995 C   0  0  1  0  0  0  0  0  0  0  0  0
   17.2032    9.5471   27.0401 C   0  0  0  0  0  0  0  0  0  0  0  0
   15.3519   11.0861   26.7336 O   0  0  0  0  0  0  0  0  0  0  0  0
   14.8585   12.3249   26.9549 C   0  0  0  0  0  0  0  0  0  0  0  0
   15.3620   13.1270   27.7406 O   0  0  0  0  0  0  0  0  0  0  0  0
   13.5968   12.6982   26.2010 C   0  0  0  0  0  0  0  0  0  0  0  0
   12.6481   13.1905   27.2798 C   0  0  0  0  0  0  0  0  0  0  0  0
   11.2068   13.3579   26.8618 C   0  0  0  0  0  0  0  0  0  0  0  0
   11.0540   13.5018   25.4234 N   0  0  0  0  0  0  0  0  0  0  0  0
    9.6762   14.2931   24.8786 S   0  0  0  0  0  0  0  0  0  0  0  0
    9.9270   14.7571   23.5382 O   0  0  0  0  0  0  0  0  0  0  0  0
    9.2782   15.2085   25.9230 O   0  0  0  0  0  0  0  0  0  0  0  0
    8.4578   13.1053   24.7808 N   0  0  0  0  0  0  0  0  0  0  0  0
    8.3274   12.1755   25.9236 C   0  0  0  0  0  0  0  0  0  0  0  0
    6.9496   11.5385   26.0000 C   0  0  0  0  0  0  0  0  0  0  0  0
    5.8947   12.5999   26.2907 C   0  0  0  0  0  0  0  0  0  0  0  0
    6.2311   13.9270   25.6117 C   0  0  0  0  0  0  0  0  0  0  0  0
    7.1341   13.7261   24.3934 C   0  0  0  0  0  0  0  0  0  0  0  0
   11.6815   12.4912   24.5695 C   0  0  0  0  0  0  0  0  0  0  0  0
   12.8417   11.7503   25.2978 C   0  0  0  0  0  0  0  0  0  0  0  0
  1  2  1  0
  2  3  1  0
  3  4  1  0
  4  5  2  3
  4  6  1  0
  6  7  1  6
  6  8  1  0
  8  9  1  0
  9 10  2  0
  9 11  1  0
 11 12  1  0
 12 13  1  0
 13 14  1  0
 14 15  1  0
 15 16  2  0
 15 17  2  0
 15 18  1  0
 18 19  1  0
 19 20  1  0
 20 21  1  0
 21 22  1  0
 22 23  1  0
 14 24  1  0
 24 25  1  0
 25 11  1  0
 23 18  1  0
M  END
>  <energy_score>  (2227) 
-71.976376

>  <inchikey>  (2227) 
None

>  <smiles>  (2227) 
None

>  <ref_pdb>  (2227) 
A4706a

>  <alias>  (2227) 
None

>  <HIPPO Pose ID>  (2227) 
499871

>  <name>  (2227) 
P499871

>  <HIPPO Compound ID>  (2227) 
314427

>  <ref_mols>  (2227) 
A0875a,A4706a

>  <distance_score>  (2227) 
1.783547

>  <inspiration_score>  (2227) 
None

$$$$
P499872
     RDKit          3D

 25 27  0  0  0  0  0  0  0  0999 V2000
   11.2608   15.3652   22.6668 C   0  0  0  0  0  0  0  0  0  0  0  0
   10.5098   14.3185   22.1058 O   0  0  0  0  0  0  0  0  0  0  0  0
    9.4591   14.5796   21.1405 C   0  0  2  0  0  0  0  0  0  0  0  0
    9.7738   15.3773   19.8340 C   0  0  2  0  0  0  0  0  0  0  0  0
   11.1868   15.3361   19.5241 N   0  0  0  0  0  0  0  0  0  0  0  0
    9.3037   16.6264   20.6257 C   0  0  0  0  0  0  0  0  0  0  0  0
    8.3224   15.6310   21.3424 C   0  0  2  0  0  0  0  0  0  0  0  0
    7.7814   15.9450   22.6375 O   0  0  0  0  0  0  0  0  0  0  0  0
    6.4852   15.5011   22.8763 C   0  0  0  0  0  0  0  0  0  0  0  0
    5.5121   15.6313   22.1521 O   0  0  0  0  0  0  0  0  0  0  0  0
    6.5072   14.7221   24.1644 C   0  0  0  0  0  0  0  0  0  0  0  0
    5.7712   13.4002   24.3552 C   0  0  0  0  0  0  0  0  0  0  0  0
    6.5391   12.4791   25.3470 C   0  0  0  0  0  0  0  0  0  0  0  0
    7.6890   13.1984   26.0054 N   0  0  0  0  0  0  0  0  0  0  0  0
    9.1076   13.3379   25.0294 S   0  0  0  0  0  0  0  0  0  0  0  0
    8.8392   12.6712   23.7774 O   0  0  0  0  0  0  0  0  0  0  0  0
    9.5520   14.7078   25.1193 O   0  0  0  0  0  0  0  0  0  0  0  0
   10.2062   12.4193   25.8723 N   0  0  0  0  0  0  0  0  0  0  0  0
   11.1050   11.6209   25.0112 C   0  0  0  0  0  0  0  0  0  0  0  0
   12.5546   11.6563   25.4890 C   0  0  0  0  0  0  0  0  0  0  0  0
   13.0128   13.0815   25.5413 C   0  0  0  0  0  0  0  0  0  0  0  0
   12.0939   13.9120   26.4362 C   0  0  0  0  0  0  0  0  0  0  0  0
   10.8741   13.1919   26.9077 C   0  0  0  0  0  0  0  0  0  0  0  0
    7.1968   14.4984   26.5810 C   0  0  0  0  0  0  0  0  0  0  0  0
    6.6759   15.4516   25.4848 C   0  0  0  0  0  0  0  0  0  0  0  0
  1  2  1  0
  3  2  1  1
  3  4  1  0
  4  5  1  1
  4  6  1  0
  6  7  1  0
  7  8  1  1
  8  9  1  0
  9 10  2  0
  9 11  1  0
 11 12  1  0
 12 13  1  0
 13 14  1  0
 14 15  1  0
 15 16  2  0
 15 17  2  0
 15 18  1  0
 18 19  1  0
 19 20  1  0
 20 21  1  0
 21 22  1  0
 22 23  1  0
 14 24  1  0
 24 25  1  0
  7  3  1  0
 25 11  1  0
 23 18  1  0
M  END
>  <energy_score>  (2228) 
-1.886132

>  <inchikey>  (2228) 
None

>  <smiles>  (2228) 
None

>  <ref_pdb>  (2228) 
A4706a

>  <alias>  (2228) 
None

>  <HIPPO Pose ID>  (2228) 
499872

>  <name>  (2228) 
P499872

>  <HIPPO Compound ID>  (2228) 
314428

>  <ref_mols>  (2228) 
A4706a,A0875a

>  <distance_score>  (2228) 
1.945407

>  <inspiration_score>  (2228) 
None

$$$$
P499873
     RDKit          3D

 25 27  0  0  0  0  0  0  0  0999 V2000
   11.0221   15.0990   18.5862 C   0  0  0  0  0  0  0  0  0  0  0  0
   10.1174   15.7548   19.4573 O   0  0  0  0  0  0  0  0  0  0  0  0
   10.1752   15.4640   20.8705 C   0  0  1  0  0  0  0  0  0  0  0  0
    9.2003   14.3876   21.4154 C   0  0  2  0  0  0  0  0  0  0  0  0
    8.0195   14.8477   22.1249 O   0  0  0  0  0  0  0  0  0  0  0  0
    7.3115   13.8433   22.7123 C   0  0  0  0  0  0  0  0  0  0  0  0
    6.4681   13.1660   22.1423 O   0  0  0  0  0  0  0  0  0  0  0  0
    7.7716   13.5973   24.1216 C   0  0  0  0  0  0  0  0  0  0  0  0
    8.1650   12.1305   24.3103 C   0  0  0  0  0  0  0  0  0  0  0  0
    8.6928   11.8493   25.7031 C   0  0  0  0  0  0  0  0  0  0  0  0
    8.8962   13.0868   26.4482 N   0  0  0  0  0  0  0  0  0  0  0  0
   10.3369   13.9484   26.5224 S   0  0  0  0  0  0  0  0  0  0  0  0
   10.4498   14.8372   25.3929 O   0  0  0  0  0  0  0  0  0  0  0  0
   10.3240   14.5042   27.8520 O   0  0  0  0  0  0  0  0  0  0  0  0
   11.6136   12.8034   26.4500 N   0  0  0  0  0  0  0  0  0  0  0  0
   12.7767   13.1234   27.3516 C   0  0  0  0  0  0  0  0  0  0  0  0
   14.1615   12.8455   26.7596 C   0  0  0  0  0  0  0  0  0  0  0  0
   14.2551   11.4814   26.1754 C   0  0  0  0  0  0  0  0  0  0  0  0
   13.1143   11.3034   25.2051 C   0  0  0  0  0  0  0  0  0  0  0  0
   12.0702   12.4311   25.1008 C   0  0  0  0  0  0  0  0  0  0  0  0
    7.6352   13.9068   26.5870 C   0  0  0  0  0  0  0  0  0  0  0  0
    6.8622   14.0173   25.2578 C   0  0  0  0  0  0  0  0  0  0  0  0
   10.3691   13.8477   22.2717 C   0  0  0  0  0  0  0  0  0  0  0  0
   11.3480   14.5857   21.3916 C   0  0  2  0  0  0  0  0  0  0  0  0
   12.2327   15.3749   22.2341 N   0  0  0  0  0  0  0  0  0  0  0  0
  1  2  1  0
  3  2  1  6
  3  4  1  0
  4  5  1  1
  5  6  1  0
  6  7  2  0
  6  8  1  0
  8  9  1  0
  9 10  1  0
 10 11  1  0
 11 12  1  0
 12 13  2  0
 12 14  2  0
 12 15  1  0
 15 16  1  0
 16 17  1  0
 17 18  1  0
 18 19  1  0
 19 20  1  0
 11 21  1  0
 21 22  1  0
  4 23  1  0
 23 24  1  0
 24 25  1  1
 24  3  1  0
 22  8  1  0
 20 15  1  0
M  END
>  <energy_score>  (2229) 
-32.215586

>  <inchikey>  (2229) 
None

>  <smiles>  (2229) 
None

>  <ref_pdb>  (2229) 
A4706a

>  <alias>  (2229) 
None

>  <HIPPO Pose ID>  (2229) 
499873

>  <name>  (2229) 
P499873

>  <HIPPO Compound ID>  (2229) 
314428

>  <ref_mols>  (2229) 
A0875a,A4706a

>  <distance_score>  (2229) 
1.505426

>  <inspiration_score>  (2229) 
None

$$$$
P499874
     RDKit          3D

 25 27  0  0  0  0  0  0  0  0999 V2000
   10.3458   15.0086   18.6484 C   0  0  0  0  0  0  0  0  0  0  0  0
    9.9347   15.6986   19.8062 O   0  0  0  0  0  0  0  0  0  0  0  0
    9.4909   14.9090   20.9494 C   0  0  2  0  0  0  0  0  0  0  0  0
    8.9786   15.8157   22.1185 C   0  0  1  0  0  0  0  0  0  0  0  0
    8.1091   15.3963   23.2041 O   0  0  0  0  0  0  0  0  0  0  0  0
    6.9981   14.6439   23.0040 C   0  0  0  0  0  0  0  0  0  0  0  0
    6.6754   14.1297   21.9396 O   0  0  0  0  0  0  0  0  0  0  0  0
    6.1855   14.4511   24.3292 C   0  0  0  0  0  0  0  0  0  0  0  0
    5.9518   12.9657   24.6913 C   0  0  0  0  0  0  0  0  0  0  0  0
    6.8858   12.2879   25.7131 C   0  0  0  0  0  0  0  0  0  0  0  0
    7.9151   13.2194   26.2361 N   0  0  0  0  0  0  0  0  0  0  0  0
    9.2274   13.4651   25.2111 S   0  0  0  0  0  0  0  0  0  0  0  0
    9.6978   14.8142   25.4102 O   0  0  0  0  0  0  0  0  0  0  0  0
    8.8056   12.9481   23.9331 O   0  0  0  0  0  0  0  0  0  0  0  0
   10.4402   12.4047   25.7830 N   0  0  0  0  0  0  0  0  0  0  0  0
   10.4872   11.1825   24.9186 C   0  0  0  0  0  0  0  0  0  0  0  0
   11.6559   10.2724   25.2469 C   0  0  0  0  0  0  0  0  0  0  0  0
   12.9960   11.0387   25.3970 C   0  0  0  0  0  0  0  0  0  0  0  0
   12.8760   12.2271   26.3246 C   0  0  0  0  0  0  0  0  0  0  0  0
   11.7497   13.1291   25.8593 C   0  0  0  0  0  0  0  0  0  0  0  0
    7.2459   14.4596   26.7073 C   0  0  0  0  0  0  0  0  0  0  0  0
    6.6330   15.2671   25.5572 C   0  0  0  0  0  0  0  0  0  0  0  0
   10.5008   15.8460   22.5413 C   0  0  0  0  0  0  0  0  0  0  0  0
   10.6161   14.4596   21.9137 C   0  0  2  0  0  0  0  0  0  0  0  0
   11.9008   14.3394   21.2571 N   0  0  0  0  0  0  0  0  0  0  0  0
  1  2  1  0
  3  2  1  6
  3  4  1  0
  4  5  1  1
  5  6  1  0
  6  7  2  0
  6  8  1  0
  8  9  1  0
  9 10  1  0
 10 11  1  0
 11 12  1  0
 12 13  2  0
 12 14  2  0
 12 15  1  0
 15 16  1  0
 16 17  1  0
 17 18  1  0
 18 19  1  0
 19 20  1  0
 11 21  1  0
 21 22  1  0
  4 23  1  0
 23 24  1  0
 24 25  1  6
 24  3  1  0
 22  8  1  0
 20 15  1  0
M  END
>  <energy_score>  (2230) 
-40.739763

>  <inchikey>  (2230) 
None

>  <smiles>  (2230) 
None

>  <ref_pdb>  (2230) 
A4706a

>  <alias>  (2230) 
None

>  <HIPPO Pose ID>  (2230) 
499874

>  <name>  (2230) 
P499874

>  <HIPPO Compound ID>  (2230) 
314428

>  <ref_mols>  (2230) 
A4706a,A0875a

>  <distance_score>  (2230) 
1.364124

>  <inspiration_score>  (2230) 
None

$$$$
P499875
     RDKit          3D

 25 27  0  0  0  0  0  0  0  0999 V2000
   12.3036   15.2682   22.2540 C   0  0  0  0  0  0  0  0  0  0  0  0
   11.0660   15.9398   22.3476 O   0  0  0  0  0  0  0  0  0  0  0  0
   10.0180   15.1513   21.7875 C   0  0  2  0  0  0  0  0  0  0  0  0
    9.6903   15.3658   20.2750 C   0  0  1  0  0  0  0  0  0  0  0  0
   10.5403   14.5403   19.4196 N   0  0  0  0  0  0  0  0  0  0  0  0
    8.3981   14.6281   20.7256 C   0  0  0  0  0  0  0  0  0  0  0  0
    8.4876   15.5024   21.9952 C   0  0  1  0  0  0  0  0  0  0  0  0
    7.7783   15.1541   23.2133 O   0  0  0  0  0  0  0  0  0  0  0  0
    6.9956   14.0465   23.3050 C   0  0  0  0  0  0  0  0  0  0  0  0
    6.7566   13.2339   22.4140 O   0  0  0  0  0  0  0  0  0  0  0  0
    6.3758   13.8853   24.7059 C   0  0  0  0  0  0  0  0  0  0  0  0
    6.5122   12.4362   25.2069 C   0  0  0  0  0  0  0  0  0  0  0  0
    7.9028   12.0528   25.7200 C   0  0  0  0  0  0  0  0  0  0  0  0
    8.6404   13.2150   26.2957 N   0  0  0  0  0  0  0  0  0  0  0  0
    9.8339   13.9063   25.3042 S   0  0  0  0  0  0  0  0  0  0  0  0
    9.5326   13.4939   23.9639 O   0  0  0  0  0  0  0  0  0  0  0  0
   10.0054   15.2730   25.7137 O   0  0  0  0  0  0  0  0  0  0  0  0
   11.2214   13.0900   25.6957 N   0  0  0  0  0  0  0  0  0  0  0  0
   11.9898   13.5378   26.8400 C   0  0  0  0  0  0  0  0  0  0  0  0
   13.4449   13.1093   26.6791 C   0  0  0  0  0  0  0  0  0  0  0  0
   13.5599   11.6361   26.5858 C   0  0  0  0  0  0  0  0  0  0  0  0
   12.7835   11.2016   25.3631 C   0  0  0  0  0  0  0  0  0  0  0  0
   11.3455   11.7173   25.2470 C   0  0  0  0  0  0  0  0  0  0  0  0
    7.6934   14.2079   26.8813 C   0  0  0  0  0  0  0  0  0  0  0  0
    6.8315   14.8646   25.8008 C   0  0  0  0  0  0  0  0  0  0  0  0
  1  2  1  0
  3  2  1  1
  3  4  1  0
  4  5  1  6
  4  6  1  0
  6  7  1  0
  7  8  1  1
  8  9  1  0
  9 10  2  0
  9 11  1  0
 11 12  1  0
 12 13  1  0
 13 14  1  0
 14 15  1  0
 15 16  2  0
 15 17  2  0
 15 18  1  0
 18 19  1  0
 19 20  1  0
 20 21  1  0
 21 22  1  0
 22 23  1  0
 14 24  1  0
 24 25  1  0
  7  3  1  0
 25 11  1  0
 23 18  1  0
M  END
>  <energy_score>  (2231) 
-19.984251

>  <inchikey>  (2231) 
None

>  <smiles>  (2231) 
None

>  <ref_pdb>  (2231) 
A4706a

>  <alias>  (2231) 
None

>  <HIPPO Pose ID>  (2231) 
499875

>  <name>  (2231) 
P499875

>  <HIPPO Compound ID>  (2231) 
314428

>  <ref_mols>  (2231) 
A4706a,A0875a

>  <distance_score>  (2231) 
1.450892

>  <inspiration_score>  (2231) 
None

$$$$
P499876
     RDKit          3D

 25 27  0  0  0  0  0  0  0  0999 V2000
   12.0019   14.9160   22.3681 C   0  0  0  0  0  0  0  0  0  0  0  0
   10.6418   15.1679   22.5653 O   0  0  0  0  0  0  0  0  0  0  0  0
    9.9335   15.9832   21.6069 C   0  0  1  0  0  0  0  0  0  0  0  0
    9.7276   15.4862   20.1421 C   0  0  1  0  0  0  0  0  0  0  0  0
   10.7523   14.5927   19.6169 N   0  0  0  0  0  0  0  0  0  0  0  0
    8.5608   14.6776   20.7412 C   0  0  0  0  0  0  0  0  0  0  0  0
    8.3467   15.8668   21.7099 C   0  0  1  0  0  0  0  0  0  0  0  0
    7.7114   15.5755   22.9829 O   0  0  0  0  0  0  0  0  0  0  0  0
    6.4862   14.9908   22.9237 C   0  0  0  0  0  0  0  0  0  0  0  0
    5.9200   14.6497   21.8877 O   0  0  0  0  0  0  0  0  0  0  0  0
    5.8378   14.7368   24.2911 C   0  0  0  0  0  0  0  0  0  0  0  0
    5.6582   13.2247   24.5440 C   0  0  0  0  0  0  0  0  0  0  0  0
    6.7786   12.4930   25.2857 C   0  0  0  0  0  0  0  0  0  0  0  0
    7.7482   13.4405   25.8491 N   0  0  0  0  0  0  0  0  0  0  0  0
    9.1089   13.7839   24.8994 S   0  0  0  0  0  0  0  0  0  0  0  0
    9.5083   15.1379   25.1876 O   0  0  0  0  0  0  0  0  0  0  0  0
    8.8868   13.2259   23.5932 O   0  0  0  0  0  0  0  0  0  0  0  0
   10.1798   12.8220   25.6963 N   0  0  0  0  0  0  0  0  0  0  0  0
   10.8557   11.7032   25.0659 C   0  0  0  0  0  0  0  0  0  0  0  0
   12.3834   11.8353   25.1500 C   0  0  0  0  0  0  0  0  0  0  0  0
   12.9603   12.4974   26.3783 C   0  0  0  0  0  0  0  0  0  0  0  0
   12.1459   13.7169   26.7343 C   0  0  0  0  0  0  0  0  0  0  0  0
   10.7089   13.3667   26.9203 C   0  0  0  0  0  0  0  0  0  0  0  0
    7.0970   14.5807   26.5148 C   0  0  0  0  0  0  0  0  0  0  0  0
    6.4227   15.4858   25.4935 C   0  0  0  0  0  0  0  0  0  0  0  0
  1  2  1  0
  3  2  1  1
  3  4  1  0
  4  5  1  1
  4  6  1  0
  6  7  1  0
  7  8  1  1
  8  9  1  0
  9 10  2  0
  9 11  1  0
 11 12  1  0
 12 13  1  0
 13 14  1  0
 14 15  1  0
 15 16  2  0
 15 17  2  0
 15 18  1  0
 18 19  1  0
 19 20  1  0
 20 21  1  0
 21 22  1  0
 22 23  1  0
 14 24  1  0
 24 25  1  0
  7  3  1  0
 25 11  1  0
 23 18  1  0
M  END
>  <energy_score>  (2232) 
-34.866438

>  <inchikey>  (2232) 
None

>  <smiles>  (2232) 
None

>  <ref_pdb>  (2232) 
A4706a

>  <alias>  (2232) 
None

>  <HIPPO Pose ID>  (2232) 
499876

>  <name>  (2232) 
P499876

>  <HIPPO Compound ID>  (2232) 
314428

>  <ref_mols>  (2232) 
A4706a,A0875a

>  <distance_score>  (2232) 
1.747397

>  <inspiration_score>  (2232) 
None

$$$$
P499877
     RDKit          3D

 25 27  0  0  0  0  0  0  0  0999 V2000
   12.3351   15.4194   22.0192 C   0  0  0  0  0  0  0  0  0  0  0  0
   11.0629   15.9349   22.3393 O   0  0  0  0  0  0  0  0  0  0  0  0
   10.0142   15.1211   21.8141 C   0  0  2  0  0  0  0  0  0  0  0  0
    9.5956   15.4205   20.3318 C   0  0  1  0  0  0  0  0  0  0  0  0
   10.4171   14.6939   19.3677 N   0  0  0  0  0  0  0  0  0  0  0  0
    8.3468   14.6246   20.7968 C   0  0  0  0  0  0  0  0  0  0  0  0
    8.4899   15.4198   22.1111 C   0  0  1  0  0  0  0  0  0  0  0  0
    7.8733   14.9762   23.3408 O   0  0  0  0  0  0  0  0  0  0  0  0
    6.9379   13.9908   23.3573 C   0  0  0  0  0  0  0  0  0  0  0  0
    6.5889   13.2949   22.4079 O   0  0  0  0  0  0  0  0  0  0  0  0
    6.3166   13.8085   24.7530 C   0  0  0  0  0  0  0  0  0  0  0  0
    6.4020   12.3461   25.2235 C   0  0  0  0  0  0  0  0  0  0  0  0
    7.7187   11.9029   25.8645 C   0  0  0  0  0  0  0  0  0  0  0  0
    8.5402   13.0591   26.2843 N   0  0  0  0  0  0  0  0  0  0  0  0
    9.7263   13.5507   25.1955 S   0  0  0  0  0  0  0  0  0  0  0  0
    9.4334   12.9296   23.9296 O   0  0  0  0  0  0  0  0  0  0  0  0
    9.9135   14.9672   25.3408 O   0  0  0  0  0  0  0  0  0  0  0  0
   11.1250   12.7953   25.7926 N   0  0  0  0  0  0  0  0  0  0  0  0
   12.1276   12.6563   24.7105 C   0  0  0  0  0  0  0  0  0  0  0  0
   13.1723   11.6689   25.2036 C   0  0  0  0  0  0  0  0  0  0  0  0
   13.9680   12.3152   26.3089 C   0  0  0  0  0  0  0  0  0  0  0  0
   13.0384   12.8112   27.4058 C   0  0  0  0  0  0  0  0  0  0  0  0
   11.7432   13.5057   26.9424 C   0  0  0  0  0  0  0  0  0  0  0  0
    7.7106   14.1323   26.8812 C   0  0  0  0  0  0  0  0  0  0  0  0
    6.7843   14.7741   25.8520 C   0  0  0  0  0  0  0  0  0  0  0  0
  1  2  1  0
  3  2  1  1
  3  4  1  0
  4  5  1  6
  4  6  1  0
  6  7  1  0
  7  8  1  1
  8  9  1  0
  9 10  2  0
  9 11  1  0
 11 12  1  0
 12 13  1  0
 13 14  1  0
 14 15  1  0
 15 16  2  0
 15 17  2  0
 15 18  1  0
 18 19  1  0
 19 20  1  0
 20 21  1  0
 21 22  1  0
 22 23  1  0
 14 24  1  0
 24 25  1  0
  7  3  1  0
 25 11  1  0
 23 18  1  0
M  END
>  <energy_score>  (2233) 
-66.163955

>  <inchikey>  (2233) 
None

>  <smiles>  (2233) 
None

>  <ref_pdb>  (2233) 
A4706a

>  <alias>  (2233) 
None

>  <HIPPO Pose ID>  (2233) 
499877

>  <name>  (2233) 
P499877

>  <HIPPO Compound ID>  (2233) 
314428

>  <ref_mols>  (2233) 
A4706a,A0875a

>  <distance_score>  (2233) 
1.5422

>  <inspiration_score>  (2233) 
None

$$$$
P499878
     RDKit          3D

 25 27  0  0  0  0  0  0  0  0999 V2000
   12.0118   14.9404   22.3332 C   0  0  0  0  0  0  0  0  0  0  0  0
   10.6218   14.9909   22.4697 O   0  0  0  0  0  0  0  0  0  0  0  0
    9.8904   15.8957   21.6128 C   0  0  1  0  0  0  0  0  0  0  0  0
    9.6499   15.4591   20.1353 C   0  0  1  0  0  0  0  0  0  0  0  0
   10.6658   14.5740   19.5766 N   0  0  0  0  0  0  0  0  0  0  0  0
    8.4902   14.6344   20.7475 C   0  0  0  0  0  0  0  0  0  0  0  0
    8.3033   15.8053   21.7372 C   0  0  1  0  0  0  0  0  0  0  0  0
    7.6767   15.4881   23.0043 O   0  0  0  0  0  0  0  0  0  0  0  0
    6.3996   15.0270   22.9514 C   0  0  0  0  0  0  0  0  0  0  0  0
    5.7755   14.8068   21.9170 O   0  0  0  0  0  0  0  0  0  0  0  0
    5.7902   14.7281   24.3308 C   0  0  0  0  0  0  0  0  0  0  0  0
    5.7000   13.2043   24.5678 C   0  0  0  0  0  0  0  0  0  0  0  0
    6.6234   12.5965   25.6207 C   0  0  0  0  0  0  0  0  0  0  0  0
    7.7153   13.5198   25.9447 N   0  0  0  0  0  0  0  0  0  0  0  0
    8.9959   13.6054   24.8457 S   0  0  0  0  0  0  0  0  0  0  0  0
    8.6085   12.8358   23.6903 O   0  0  0  0  0  0  0  0  0  0  0  0
    9.4930   14.9573   24.8393 O   0  0  0  0  0  0  0  0  0  0  0  0
   10.0951   12.7214   25.7182 N   0  0  0  0  0  0  0  0  0  0  0  0
   10.6521   13.4137   26.8628 C   0  0  0  0  0  0  0  0  0  0  0  0
   12.0857   13.7650   26.6519 C   0  0  0  0  0  0  0  0  0  0  0  0
   12.9163   12.5383   26.3743 C   0  0  0  0  0  0  0  0  0  0  0  0
   12.3738   11.8474   25.1523 C   0  0  0  0  0  0  0  0  0  0  0  0
   10.8561   11.6600   25.0707 C   0  0  0  0  0  0  0  0  0  0  0  0
    7.2085   14.7815   26.5002 C   0  0  0  0  0  0  0  0  0  0  0  0
    6.3698   15.5478   25.4893 C   0  0  0  0  0  0  0  0  0  0  0  0
  1  2  1  0
  3  2  1  1
  3  4  1  0
  4  5  1  1
  4  6  1  0
  6  7  1  0
  7  8  1  1
  8  9  1  0
  9 10  2  0
  9 11  1  0
 11 12  1  0
 12 13  1  0
 13 14  1  0
 14 15  1  0
 15 16  2  0
 15 17  2  0
 15 18  1  0
 18 19  1  0
 19 20  1  0
 20 21  1  0
 21 22  1  0
 22 23  1  0
 14 24  1  0
 24 25  1  0
  7  3  1  0
 25 11  1  0
 23 18  1  0
M  END
>  <energy_score>  (2234) 
-63.884958

>  <inchikey>  (2234) 
None

>  <smiles>  (2234) 
None

>  <ref_pdb>  (2234) 
A4706a

>  <alias>  (2234) 
None

>  <HIPPO Pose ID>  (2234) 
499878

>  <name>  (2234) 
P499878

>  <HIPPO Compound ID>  (2234) 
314428

>  <ref_mols>  (2234) 
A4706a,A0875a

>  <distance_score>  (2234) 
1.768414

>  <inspiration_score>  (2234) 
None

$$$$
P499879
     RDKit          3D

 25 26  0  0  0  0  0  0  0  0999 V2000
   10.9859   14.7664   18.7417 C   0  0  0  0  0  0  0  0  0  0  0  0
    9.8604   15.3031   19.4096 O   0  0  0  0  0  0  0  0  0  0  0  0
    9.8553   15.0304   20.8151 C   0  0  0  0  0  0  0  0  0  0  0  0
   10.9792   15.7111   21.3668 O   0  0  0  0  0  0  0  0  0  0  0  0
   11.5267   15.0340   22.4612 C   0  0  0  0  0  0  0  0  0  0  0  0
    8.5223   15.5928   21.3559 C   0  0  2  0  0  0  0  0  0  0  0  0
    8.5278   17.1127   21.2348 C   0  0  0  0  0  0  0  0  0  0  0  0
    8.1747   15.2599   22.7258 O   0  0  0  0  0  0  0  0  0  0  0  0
    7.2647   14.2554   22.8873 C   0  0  0  0  0  0  0  0  0  0  0  0
    6.9606   13.4305   22.0275 O   0  0  0  0  0  0  0  0  0  0  0  0
    6.5666   14.2734   24.2537 C   0  0  0  0  0  0  0  0  0  0  0  0
    6.5611   12.8792   24.9165 C   0  0  0  0  0  0  0  0  0  0  0  0
    7.3028   12.8585   26.2533 C   0  0  0  0  0  0  0  0  0  0  0  0
    8.6077   13.5823   26.1490 N   0  0  0  0  0  0  0  0  0  0  0  0
    9.7385   12.7408   25.2383 S   0  0  0  0  0  0  0  0  0  0  0  0
    9.7728   11.4058   25.7693 O   0  0  0  0  0  0  0  0  0  0  0  0
    9.4663   12.9776   23.8441 O   0  0  0  0  0  0  0  0  0  0  0  0
   11.2348   13.3981   25.5551 N   0  0  0  0  0  0  0  0  0  0  0  0
   12.2806   12.9136   24.6418 C   0  0  0  0  0  0  0  0  0  0  0  0
   13.0922   11.7876   25.2467 C   0  0  0  0  0  0  0  0  0  0  0  0
   13.8920   12.3596   26.3785 C   0  0  0  0  0  0  0  0  0  0  0  0
   12.9359   12.9275   27.4044 C   0  0  0  0  0  0  0  0  0  0  0  0
   11.6750   13.6757   26.9267 C   0  0  0  0  0  0  0  0  0  0  0  0
    8.4304   15.0160   25.8240 C   0  0  0  0  0  0  0  0  0  0  0  0
    7.0576   15.3336   25.2376 C   0  0  0  0  0  0  0  0  0  0  0  0
  1  2  1  0
  2  3  1  0
  3  4  1  0
  4  5  1  0
  3  6  1  0
  6  7  1  1
  6  8  1  0
  8  9  1  0
  9 10  2  0
  9 11  1  0
 11 12  1  0
 12 13  1  0
 13 14  1  0
 14 15  1  0
 15 16  2  0
 15 17  2  0
 15 18  1  0
 18 19  1  0
 19 20  1  0
 20 21  1  0
 21 22  1  0
 22 23  1  0
 14 24  1  0
 24 25  1  0
 25 11  1  0
 23 18  1  0
M  END
>  <energy_score>  (2235) 
-53.405709

>  <inchikey>  (2235) 
None

>  <smiles>  (2235) 
None

>  <ref_pdb>  (2235) 
A4706a

>  <alias>  (2235) 
None

>  <HIPPO Pose ID>  (2235) 
499879

>  <name>  (2235) 
P499879

>  <HIPPO Compound ID>  (2235) 
314429

>  <ref_mols>  (2235) 
A4706a,A0875a

>  <distance_score>  (2235) 
1.822452

>  <inspiration_score>  (2235) 
None

$$$$
P499880
     RDKit          3D

 25 26  0  0  0  0  0  0  0  0999 V2000
   10.7027   15.0654   19.3513 C   0  0  0  0  0  0  0  0  0  0  0  0
    9.6743   15.6434   20.1391 O   0  0  0  0  0  0  0  0  0  0  0  0
    9.5279   15.1015   21.4669 C   0  0  0  0  0  0  0  0  0  0  0  0
   10.4705   15.6597   22.3726 O   0  0  0  0  0  0  0  0  0  0  0  0
   11.7070   14.9754   22.4043 C   0  0  0  0  0  0  0  0  0  0  0  0
    8.0366   15.4055   21.9517 C   0  0  1  0  0  0  0  0  0  0  0  0
    7.1776   14.3633   21.2518 C   0  0  0  0  0  0  0  0  0  0  0  0
    7.7759   15.2140   23.3716 O   0  0  0  0  0  0  0  0  0  0  0  0
    6.4900   15.2945   23.8129 C   0  0  0  0  0  0  0  0  0  0  0  0
    5.5638   15.8433   23.2286 O   0  0  0  0  0  0  0  0  0  0  0  0
    6.2784   14.5084   25.1116 C   0  0  0  0  0  0  0  0  0  0  0  0
    6.5098   12.9929   24.8894 C   0  0  0  0  0  0  0  0  0  0  0  0
    7.5721   12.2988   25.7397 C   0  0  0  0  0  0  0  0  0  0  0  0
    8.5797   13.2510   26.2488 N   0  0  0  0  0  0  0  0  0  0  0  0
    9.6974   13.8512   25.1221 S   0  0  0  0  0  0  0  0  0  0  0  0
    9.3572   13.3182   23.8268 O   0  0  0  0  0  0  0  0  0  0  0  0
    9.9052   15.2425   25.4196 O   0  0  0  0  0  0  0  0  0  0  0  0
   11.1056   13.0791   25.5497 N   0  0  0  0  0  0  0  0  0  0  0  0
   11.2037   11.6685   25.2286 C   0  0  0  0  0  0  0  0  0  0  0  0
   12.6544   11.1879   25.3596 C   0  0  0  0  0  0  0  0  0  0  0  0
   13.4187   11.6699   26.5710 C   0  0  0  0  0  0  0  0  0  0  0  0
   13.2773   13.1430   26.6278 C   0  0  0  0  0  0  0  0  0  0  0  0
   11.8164   13.5640   26.7237 C   0  0  0  0  0  0  0  0  0  0  0  0
    7.9084   14.2734   27.0916 C   0  0  0  0  0  0  0  0  0  0  0  0
    7.0102   15.1832   26.2707 C   0  0  0  0  0  0  0  0  0  0  0  0
  1  2  1  0
  2  3  1  0
  3  4  1  0
  4  5  1  0
  3  6  1  0
  6  7  1  6
  6  8  1  0
  8  9  1  0
  9 10  2  0
  9 11  1  0
 11 12  1  0
 12 13  1  0
 13 14  1  0
 14 15  1  0
 15 16  2  0
 15 17  2  0
 15 18  1  0
 18 19  1  0
 19 20  1  0
 20 21  1  0
 21 22  1  0
 22 23  1  0
 14 24  1  0
 24 25  1  0
 25 11  1  0
 23 18  1  0
M  END
>  <energy_score>  (2236) 
-55.628152

>  <inchikey>  (2236) 
None

>  <smiles>  (2236) 
None

>  <ref_pdb>  (2236) 
A4706a

>  <alias>  (2236) 
None

>  <HIPPO Pose ID>  (2236) 
499880

>  <name>  (2236) 
P499880

>  <HIPPO Compound ID>  (2236) 
314429

>  <ref_mols>  (2236) 
A0875a,A4706a

>  <distance_score>  (2236) 
1.755248

>  <inspiration_score>  (2236) 
None

$$$$
P499881
     RDKit          3D

 25 28  0  0  0  0  0  0  0  0999 V2000
    6.6383   13.2529   22.0185 O   0  0  0  0  0  0  0  0  0  0  0  0
    6.8014   14.2015   22.7883 C   0  0  0  0  0  0  0  0  0  0  0  0
    7.6517   15.2349   22.5568 O   0  0  0  0  0  0  0  0  0  0  0  0
    8.5059   15.0712   21.4181 C   0  0  2  0  0  0  0  0  0  0  0  0
    9.5384   13.9527   21.5985 C   0  0  0  0  0  0  0  0  0  0  0  0
   10.8888   14.6173   21.3446 C   0  0  1  0  0  0  0  0  0  0  0  0
   10.9226   15.0098   19.8648 C   0  0  0  0  0  0  0  0  0  0  0  0
    9.9445   16.0739   19.7794 O   0  0  0  0  0  0  0  0  0  0  0  0
    9.4477   16.2558   21.1394 C   0  0  2  0  0  0  0  0  0  0  0  0
   10.6844   15.9652   21.9797 C   0  0  0  0  0  0  0  0  0  0  0  0
    6.1029   14.2164   24.1538 C   0  0  0  0  0  0  0  0  0  0  0  0
    6.4298   12.8560   24.8247 C   0  0  0  0  0  0  0  0  0  0  0  0
    6.9242   12.8771   26.2570 C   0  0  0  0  0  0  0  0  0  0  0  0
    7.6487   14.1105   26.5830 N   0  0  0  0  0  0  0  0  0  0  0  0
    9.1859   14.4906   25.9951 S   0  0  0  0  0  0  0  0  0  0  0  0
    9.1709   14.5290   24.5614 O   0  0  0  0  0  0  0  0  0  0  0  0
    9.6272   15.6407   26.7430 O   0  0  0  0  0  0  0  0  0  0  0  0
   10.1659   13.2018   26.4059 N   0  0  0  0  0  0  0  0  0  0  0  0
   11.5782   13.5695   26.6878 C   0  0  0  0  0  0  0  0  0  0  0  0
   12.5283   13.1928   25.5724 C   0  0  0  0  0  0  0  0  0  0  0  0
   12.4314   11.7170   25.3712 C   0  0  0  0  0  0  0  0  0  0  0  0
   11.0347   11.3973   24.8799 C   0  0  0  0  0  0  0  0  0  0  0  0
    9.9001   11.9494   25.6849 C   0  0  0  0  0  0  0  0  0  0  0  0
    6.6877   15.2384   26.4687 C   0  0  0  0  0  0  0  0  0  0  0  0
    6.3188   15.4776   25.0097 C   0  0  0  0  0  0  0  0  0  0  0  0
  1  2  2  0
  2  3  1  0
  4  3  1  1
  4  5  1  0
  6  5  1  6
  6  7  1  0
  7  8  1  0
  9  8  1  6
  9 10  1  0
  2 11  1  0
 11 12  1  0
 12 13  1  0
 13 14  1  0
 14 15  1  0
 15 16  2  0
 15 17  2  0
 15 18  1  0
 18 19  1  0
 19 20  1  0
 20 21  1  0
 21 22  1  0
 22 23  1  0
 14 24  1  0
 24 25  1  0
  9  4  1  0
 25 11  1  0
 10  6  1  0
 23 18  1  0
M  END
>  <energy_score>  (2237) 
-36.475241

>  <inchikey>  (2237) 
None

>  <smiles>  (2237) 
None

>  <ref_pdb>  (2237) 
A4706a

>  <alias>  (2237) 
None

>  <HIPPO Pose ID>  (2237) 
499881

>  <name>  (2237) 
P499881

>  <HIPPO Compound ID>  (2237) 
314431

>  <ref_mols>  (2237) 
A4706a,A0875a

>  <distance_score>  (2237) 
1.667935

>  <inspiration_score>  (2237) 
None

$$$$
P499882
     RDKit          3D

 25 28  0  0  0  0  0  0  0  0999 V2000
    6.9105   12.9829   22.1848 O   0  0  0  0  0  0  0  0  0  0  0  0
    6.8566   13.9953   22.8817 C   0  0  0  0  0  0  0  0  0  0  0  0
    7.6107   15.1101   22.6471 O   0  0  0  0  0  0  0  0  0  0  0  0
    8.5140   14.9700   21.5279 C   0  0  2  0  0  0  0  0  0  0  0  0
    9.6846   14.0550   21.8914 C   0  0  0  0  0  0  0  0  0  0  0  0
   10.9253   14.7622   21.3659 C   0  0  1  0  0  0  0  0  0  0  0  0
   10.8016   14.9964   19.8608 C   0  0  0  0  0  0  0  0  0  0  0  0
    9.7617   15.9989   19.7547 O   0  0  0  0  0  0  0  0  0  0  0  0
    9.3108   16.2317   21.1224 C   0  0  2  0  0  0  0  0  0  0  0  0
   10.6236   16.1386   21.8892 C   0  0  0  0  0  0  0  0  0  0  0  0
    5.9200   14.0395   24.0900 C   0  0  0  0  0  0  0  0  0  0  0  0
    6.1239   12.7721   24.9747 C   0  0  0  0  0  0  0  0  0  0  0  0
    7.2315   12.9263   26.0256 C   0  0  0  0  0  0  0  0  0  0  0  0
    8.0651   14.0438   25.5710 N   0  0  0  0  0  0  0  0  0  0  0  0
    9.6657   14.1535   25.9894 S   0  0  0  0  0  0  0  0  0  0  0  0
   10.2992   15.0943   25.0982 O   0  0  0  0  0  0  0  0  0  0  0  0
    9.7319   14.3408   27.4165 O   0  0  0  0  0  0  0  0  0  0  0  0
   10.3175   12.6453   25.6722 N   0  0  0  0  0  0  0  0  0  0  0  0
   11.7506   12.6066   26.0510 C   0  0  0  0  0  0  0  0  0  0  0  0
   12.4494   11.3825   25.4855 C   0  0  0  0  0  0  0  0  0  0  0  0
   11.5074   10.1732   25.2137 C   0  0  0  0  0  0  0  0  0  0  0  0
   10.1749   10.5250   24.5648 C   0  0  0  0  0  0  0  0  0  0  0  0
   10.0602   12.0197   24.3638 C   0  0  0  0  0  0  0  0  0  0  0  0
    7.3317   15.3253   25.7463 C   0  0  0  0  0  0  0  0  0  0  0  0
    6.0376   15.2932   24.9461 C   0  0  0  0  0  0  0  0  0  0  0  0
  1  2  2  0
  2  3  1  0
  4  3  1  1
  4  5  1  0
  6  5  1  1
  6  7  1  0
  7  8  1  0
  9  8  1  6
  9 10  1  0
  2 11  1  0
 11 12  1  0
 12 13  1  0
 13 14  1  0
 14 15  1  0
 15 16  2  0
 15 17  2  0
 15 18  1  0
 18 19  1  0
 19 20  1  0
 20 21  1  0
 21 22  1  0
 22 23  1  0
 14 24  1  0
 24 25  1  0
  9  4  1  0
 25 11  1  0
 10  6  1  0
 23 18  1  0
M  END
>  <energy_score>  (2238) 
-52.851865

>  <inchikey>  (2238) 
None

>  <smiles>  (2238) 
None

>  <ref_pdb>  (2238) 
A4706a

>  <alias>  (2238) 
None

>  <HIPPO Pose ID>  (2238) 
499882

>  <name>  (2238) 
P499882

>  <HIPPO Compound ID>  (2238) 
314431

>  <ref_mols>  (2238) 
A4706a,A0875a

>  <distance_score>  (2238) 
1.790268

>  <inspiration_score>  (2238) 
None

$$$$
P499883
     RDKit          3D

 25 28  0  0  0  0  0  0  0  0999 V2000
    5.9969   13.8932   21.9911 O   0  0  0  0  0  0  0  0  0  0  0  0
    7.0239   13.7180   22.6190 C   0  0  0  0  0  0  0  0  0  0  0  0
    8.2860   13.6660   22.0961 O   0  0  0  0  0  0  0  0  0  0  0  0
    8.5505   14.6362   21.0936 C   0  0  1  0  0  0  0  0  0  0  0  0
    8.6725   16.0365   21.6926 C   0  0  0  0  0  0  0  0  0  0  0  0
   10.0292   16.5249   21.1564 C   0  0  1  0  0  0  0  0  0  0  0  0
   11.1425   15.7994   21.8817 C   0  0  0  0  0  0  0  0  0  0  0  0
   10.9438   14.4289   21.5039 O   0  0  0  0  0  0  0  0  0  0  0  0
    9.9409   14.4835   20.4679 C   0  0  2  0  0  0  0  0  0  0  0  0
   10.1521   15.8241   19.8263 C   0  0  0  0  0  0  0  0  0  0  0  0
    7.1642   13.5421   24.0967 C   0  0  0  0  0  0  0  0  0  0  0  0
    7.4889   12.1198   24.5298 C   0  0  0  0  0  0  0  0  0  0  0  0
    7.9218   12.0692   25.9857 C   0  0  0  0  0  0  0  0  0  0  0  0
    7.8914   13.4108   26.5814 N   0  0  0  0  0  0  0  0  0  0  0  0
    9.2358   14.4186   26.6213 S   0  0  0  0  0  0  0  0  0  0  0  0
    9.4386   14.7303   28.0115 O   0  0  0  0  0  0  0  0  0  0  0  0
    9.0875   15.4766   25.6506 O   0  0  0  0  0  0  0  0  0  0  0  0
   10.5130   13.4400   26.1066 N   0  0  0  0  0  0  0  0  0  0  0  0
   11.7394   13.6110   26.9168 C   0  0  0  0  0  0  0  0  0  0  0  0
   12.8602   12.6790   26.4502 C   0  0  0  0  0  0  0  0  0  0  0  0
   12.5016   11.7876   25.2815 C   0  0  0  0  0  0  0  0  0  0  0  0
   11.6193   12.4495   24.2251 C   0  0  0  0  0  0  0  0  0  0  0  0
   10.8711   13.6522   24.6910 C   0  0  0  0  0  0  0  0  0  0  0  0
    6.5653   14.0807   26.4698 C   0  0  0  0  0  0  0  0  0  0  0  0
    6.1128   14.1625   25.0012 C   0  0  0  0  0  0  0  0  0  0  0  0
  1  2  2  0
  2  3  1  0
  4  3  1  1
  4  5  1  0
  6  5  1  1
  6  7  1  0
  7  8  1  0
  9  8  1  1
  9 10  1  0
  2 11  1  0
 11 12  1  0
 12 13  1  0
 13 14  1  0
 14 15  1  0
 15 16  2  0
 15 17  2  0
 15 18  1  0
 18 19  1  0
 19 20  1  0
 20 21  1  0
 21 22  1  0
 22 23  1  0
 14 24  1  0
 24 25  1  0
  9  4  1  0
 25 11  1  0
 10  6  1  0
 23 18  1  0
M  END
>  <energy_score>  (2239) 
-25.22211

>  <inchikey>  (2239) 
None

>  <smiles>  (2239) 
None

>  <ref_pdb>  (2239) 
A4706a

>  <alias>  (2239) 
None

>  <HIPPO Pose ID>  (2239) 
499883

>  <name>  (2239) 
P499883

>  <HIPPO Compound ID>  (2239) 
314431

>  <ref_mols>  (2239) 
A4706a,A0875a

>  <distance_score>  (2239) 
1.785043

>  <inspiration_score>  (2239) 
None

$$$$
P499884
     RDKit          3D

 25 28  0  0  0  0  0  0  0  0999 V2000
    5.7235   14.1793   21.9844 O   0  0  0  0  0  0  0  0  0  0  0  0
    6.7131   13.8877   22.6298 C   0  0  0  0  0  0  0  0  0  0  0  0
    7.9667   13.6654   22.1120 O   0  0  0  0  0  0  0  0  0  0  0  0
    8.4007   14.6364   21.1602 C   0  0  1  0  0  0  0  0  0  0  0  0
    8.6032   16.0248   21.7635 C   0  0  0  0  0  0  0  0  0  0  0  0
   10.0415   16.3935   21.3411 C   0  0  1  0  0  0  0  0  0  0  0  0
   11.0321   15.5625   22.1312 C   0  0  0  0  0  0  0  0  0  0  0  0
   10.7469   14.2215   21.7039 O   0  0  0  0  0  0  0  0  0  0  0  0
    9.8135   14.3830   20.6196 C   0  0  2  0  0  0  0  0  0  0  0  0
   10.1902   15.7047   20.0096 C   0  0  0  0  0  0  0  0  0  0  0  0
    6.8183   13.7644   24.1245 C   0  0  0  0  0  0  0  0  0  0  0  0
    6.5662   12.4315   24.8076 C   0  0  0  0  0  0  0  0  0  0  0  0
    7.2306   12.4255   26.1972 C   0  0  0  0  0  0  0  0  0  0  0  0
    7.6815   13.7802   26.5884 N   0  0  0  0  0  0  0  0  0  0  0  0
    9.2170   14.4248   26.3088 S   0  0  0  0  0  0  0  0  0  0  0  0
    9.2050   15.2807   25.1461 O   0  0  0  0  0  0  0  0  0  0  0  0
    9.6383   14.9823   27.5698 O   0  0  0  0  0  0  0  0  0  0  0  0
   10.2850   13.1921   25.9541 N   0  0  0  0  0  0  0  0  0  0  0  0
   11.6958   13.7085   26.0263 C   0  0  0  0  0  0  0  0  0  0  0  0
   12.6681   12.8452   25.2250 C   0  0  0  0  0  0  0  0  0  0  0  0
   12.3018   11.3959   25.4577 C   0  0  0  0  0  0  0  0  0  0  0  0
   10.8350   11.0994   25.0329 C   0  0  0  0  0  0  0  0  0  0  0  0
   10.1061   12.3941   24.7284 C   0  0  0  0  0  0  0  0  0  0  0  0
    6.5756   14.7729   26.4216 C   0  0  0  0  0  0  0  0  0  0  0  0
    6.2059   14.9057   24.9331 C   0  0  0  0  0  0  0  0  0  0  0  0
  1  2  2  0
  2  3  1  0
  4  3  1  1
  4  5  1  0
  6  5  1  1
  6  7  1  0
  7  8  1  0
  9  8  1  1
  9 10  1  0
  2 11  1  0
 11 12  1  0
 12 13  1  0
 13 14  1  0
 14 15  1  0
 15 16  2  0
 15 17  2  0
 15 18  1  0
 18 19  1  0
 19 20  1  0
 20 21  1  0
 21 22  1  0
 22 23  1  0
 14 24  1  0
 24 25  1  0
  9  4  1  0
 25 11  1  0
 10  6  1  0
 23 18  1  0
M  END
>  <energy_score>  (2240) 
-25.306298

>  <inchikey>  (2240) 
None

>  <smiles>  (2240) 
None

>  <ref_pdb>  (2240) 
A4706a

>  <alias>  (2240) 
None

>  <HIPPO Pose ID>  (2240) 
499884

>  <name>  (2240) 
P499884

>  <HIPPO Compound ID>  (2240) 
314431

>  <ref_mols>  (2240) 
A4706a,A0875a

>  <distance_score>  (2240) 
1.676724

>  <inspiration_score>  (2240) 
None

$$$$
P499885
     RDKit          3D

 25 27  0  0  0  0  0  0  0  0999 V2000
   10.9002   14.6767   18.5273 C   0  0  0  0  0  0  0  0  0  0  0  0
    9.8815   14.7585   19.5080 O   0  0  0  0  0  0  0  0  0  0  0  0
   10.1931   15.6441   20.5710 C   0  0  2  0  0  0  0  0  0  0  0  0
   11.3551   15.1906   21.4887 C   0  0  2  0  0  0  0  0  0  0  0  0
   11.5304   13.7446   21.8526 C   0  0  0  0  0  0  0  0  0  0  0  0
   10.6492   15.9373   22.5855 C   0  0  0  0  0  0  0  0  0  0  0  0
    9.2957   15.7520   21.8162 C   0  0  2  0  0  0  0  0  0  0  0  0
    8.5068   14.5901   22.1840 O   0  0  0  0  0  0  0  0  0  0  0  0
    7.4095   14.8407   22.9480 C   0  0  0  0  0  0  0  0  0  0  0  0
    6.8019   15.9029   22.9690 O   0  0  0  0  0  0  0  0  0  0  0  0
    6.9963   13.6410   23.8133 C   0  0  0  0  0  0  0  0  0  0  0  0
    8.1004   12.5620   23.8801 C   0  0  0  0  0  0  0  0  0  0  0  0
    8.1960   11.8036   25.1826 C   0  0  0  0  0  0  0  0  0  0  0  0
    8.2243   12.7628   26.2879 N   0  0  0  0  0  0  0  0  0  0  0  0
    9.4702   13.9091   26.3890 S   0  0  0  0  0  0  0  0  0  0  0  0
    9.2978   14.5546   27.6663 O   0  0  0  0  0  0  0  0  0  0  0  0
    9.5156   14.7145   25.1966 O   0  0  0  0  0  0  0  0  0  0  0  0
   10.9097   12.9710   26.4633 N   0  0  0  0  0  0  0  0  0  0  0  0
   11.9130   13.6731   27.3235 C   0  0  0  0  0  0  0  0  0  0  0  0
   13.1934   12.8519   27.4921 C   0  0  0  0  0  0  0  0  0  0  0  0
   13.7990   12.3698   26.1947 C   0  0  0  0  0  0  0  0  0  0  0  0
   12.7375   11.8029   25.2890 C   0  0  0  0  0  0  0  0  0  0  0  0
   11.5232   12.7034   25.1362 C   0  0  0  0  0  0  0  0  0  0  0  0
    6.8651   13.3637   26.4097 C   0  0  0  0  0  0  0  0  0  0  0  0
    6.5439   14.2122   25.1870 C   0  0  0  0  0  0  0  0  0  0  0  0
  1  2  1  0
  3  2  1  6
  3  4  1  0
  4  5  1  1
  4  6  1  0
  6  7  1  0
  7  8  1  1
  8  9  1  0
  9 10  2  0
  9 11  1  0
 11 12  1  0
 12 13  1  0
 13 14  1  0
 14 15  1  0
 15 16  2  0
 15 17  2  0
 15 18  1  0
 18 19  1  0
 19 20  1  0
 20 21  1  0
 21 22  1  0
 22 23  1  0
 14 24  1  0
 24 25  1  0
  7  3  1  0
 25 11  1  0
 23 18  1  0
M  END
>  <energy_score>  (2241) 
-50.249567

>  <inchikey>  (2241) 
None

>  <smiles>  (2241) 
None

>  <ref_pdb>  (2241) 
A4706a

>  <alias>  (2241) 
None

>  <HIPPO Pose ID>  (2241) 
499885

>  <name>  (2241) 
P499885

>  <HIPPO Compound ID>  (2241) 
314432

>  <ref_mols>  (2241) 
A0875a,A4706a

>  <distance_score>  (2241) 
1.693583

>  <inspiration_score>  (2241) 
None

$$$$
P499886
     RDKit          3D

 25 27  0  0  0  0  0  0  0  0999 V2000
   11.3766   14.8810   18.6636 C   0  0  0  0  0  0  0  0  0  0  0  0
   10.3215   14.4425   19.4883 O   0  0  0  0  0  0  0  0  0  0  0  0
    9.6566   15.4493   20.2496 C   0  0  1  0  0  0  0  0  0  0  0  0
    8.4686   15.0205   21.1639 C   0  0  1  0  0  0  0  0  0  0  0  0
    8.4261   13.7065   21.7412 O   0  0  0  0  0  0  0  0  0  0  0  0
    7.2993   13.4957   22.4698 C   0  0  0  0  0  0  0  0  0  0  0  0
    6.2010   13.2652   21.9914 O   0  0  0  0  0  0  0  0  0  0  0  0
    7.6060   13.4789   23.9249 C   0  0  0  0  0  0  0  0  0  0  0  0
    7.4686   12.0841   24.5452 C   0  0  0  0  0  0  0  0  0  0  0  0
    7.7367   12.1240   26.0443 C   0  0  0  0  0  0  0  0  0  0  0  0
    8.2387   13.4526   26.3880 N   0  0  0  0  0  0  0  0  0  0  0  0
    9.8245   13.9652   26.3288 S   0  0  0  0  0  0  0  0  0  0  0  0
    9.8141   15.3127   25.7975 O   0  0  0  0  0  0  0  0  0  0  0  0
   10.3982   13.7071   27.6216 O   0  0  0  0  0  0  0  0  0  0  0  0
   10.7521   13.0879   25.2370 N   0  0  0  0  0  0  0  0  0  0  0  0
   12.1020   13.6801   25.0846 C   0  0  0  0  0  0  0  0  0  0  0  0
   13.0960   13.1986   26.1457 C   0  0  0  0  0  0  0  0  0  0  0  0
   13.0438   11.7484   26.4728 C   0  0  0  0  0  0  0  0  0  0  0  0
   12.2634   11.0968   25.3779 C   0  0  0  0  0  0  0  0  0  0  0  0
   10.8314   11.6306   25.1906 C   0  0  0  0  0  0  0  0  0  0  0  0
    7.1827   14.4831   26.1872 C   0  0  0  0  0  0  0  0  0  0  0  0
    6.7803   14.4994   24.7127 C   0  0  0  0  0  0  0  0  0  0  0  0
    8.9518   16.1063   22.1137 C   0  0  0  0  0  0  0  0  0  0  0  0
   10.3578   15.9710   21.5143 C   0  0  1  0  0  0  0  0  0  0  0  0
   11.3136   15.0465   22.2294 C   0  0  0  0  0  0  0  0  0  0  0  0
  1  2  1  0
  3  2  1  1
  3  4  1  0
  4  5  1  1
  5  6  1  0
  6  7  2  0
  6  8  1  0
  8  9  1  0
  9 10  1  0
 10 11  1  0
 11 12  1  0
 12 13  2  0
 12 14  2  0
 12 15  1  0
 15 16  1  0
 16 17  1  0
 17 18  1  0
 18 19  1  0
 19 20  1  0
 11 21  1  0
 21 22  1  0
  4 23  1  0
 23 24  1  0
 24 25  1  1
 24  3  1  0
 22  8  1  0
 20 15  1  0
M  END
>  <energy_score>  (2242) 
-18.622139

>  <inchikey>  (2242) 
None

>  <smiles>  (2242) 
None

>  <ref_pdb>  (2242) 
A4706a

>  <alias>  (2242) 
None

>  <HIPPO Pose ID>  (2242) 
499886

>  <name>  (2242) 
P499886

>  <HIPPO Compound ID>  (2242) 
314432

>  <ref_mols>  (2242) 
A4706a,A0875a

>  <distance_score>  (2242) 
1.494028

>  <inspiration_score>  (2242) 
None

$$$$
P499887
     RDKit          3D

 25 27  0  0  0  0  0  0  0  0999 V2000
   11.3542   14.7827   18.7789 C   0  0  0  0  0  0  0  0  0  0  0  0
   10.0741   14.5684   19.3213 O   0  0  0  0  0  0  0  0  0  0  0  0
    9.9092   14.5851   20.7569 C   0  0  2  0  0  0  0  0  0  0  0  0
    8.5148   15.1448   21.2055 C   0  0  1  0  0  0  0  0  0  0  0  0
    8.0034   14.8716   22.5183 O   0  0  0  0  0  0  0  0  0  0  0  0
    7.0876   13.8837   22.7207 C   0  0  0  0  0  0  0  0  0  0  0  0
    6.5246   13.1959   21.8907 O   0  0  0  0  0  0  0  0  0  0  0  0
    6.9695   13.7207   24.2066 C   0  0  0  0  0  0  0  0  0  0  0  0
    6.5919   12.3953   24.8504 C   0  0  0  0  0  0  0  0  0  0  0  0
    7.1908   12.3405   26.2736 C   0  0  0  0  0  0  0  0  0  0  0  0
    7.6642   13.6771   26.7090 N   0  0  0  0  0  0  0  0  0  0  0  0
    9.2242   14.2949   26.4996 S   0  0  0  0  0  0  0  0  0  0  0  0
    9.6550   14.7271   27.8055 O   0  0  0  0  0  0  0  0  0  0  0  0
    9.2281   15.2574   25.4228 O   0  0  0  0  0  0  0  0  0  0  0  0
   10.2883   13.0818   26.0416 N   0  0  0  0  0  0  0  0  0  0  0  0
   10.0791   12.2713   24.8333 C   0  0  0  0  0  0  0  0  0  0  0  0
   10.8740   11.0036   25.0617 C   0  0  0  0  0  0  0  0  0  0  0  0
   12.3399   11.3465   25.4479 C   0  0  0  0  0  0  0  0  0  0  0  0
   12.6552   12.8053   25.2143 C   0  0  0  0  0  0  0  0  0  0  0  0
   11.6948   13.6281   26.0707 C   0  0  0  0  0  0  0  0  0  0  0  0
    6.5934   14.7025   26.4913 C   0  0  0  0  0  0  0  0  0  0  0  0
    6.3439   14.8780   24.9818 C   0  0  0  0  0  0  0  0  0  0  0  0
    9.2178   16.5298   21.1396 C   0  0  0  0  0  0  0  0  0  0  0  0
   10.5509   15.7869   21.4745 C   0  0  1  0  0  0  0  0  0  0  0  0
   11.0161   15.4247   22.8651 C   0  0  0  0  0  0  0  0  0  0  0  0
  1  2  1  0
  3  2  1  6
  3  4  1  0
  4  5  1  1
  5  6  1  0
  6  7  2  0
  6  8  1  0
  8  9  1  0
  9 10  1  0
 10 11  1  0
 11 12  1  0
 12 13  2  0
 12 14  2  0
 12 15  1  0
 15 16  1  0
 16 17  1  0
 17 18  1  0
 18 19  1  0
 19 20  1  0
 11 21  1  0
 21 22  1  0
  4 23  1  0
 23 24  1  0
 24 25  1  1
 24  3  1  0
 22  8  1  0
 20 15  1  0
M  END
>  <energy_score>  (2243) 
-16.394648

>  <inchikey>  (2243) 
None

>  <smiles>  (2243) 
None

>  <ref_pdb>  (2243) 
A4706a

>  <alias>  (2243) 
None

>  <HIPPO Pose ID>  (2243) 
499887

>  <name>  (2243) 
P499887

>  <HIPPO Compound ID>  (2243) 
314432

>  <ref_mols>  (2243) 
A0875a,A4706a

>  <distance_score>  (2243) 
1.357911

>  <inspiration_score>  (2243) 
None

$$$$
P499888
     RDKit          3D

 25 27  0  0  0  0  0  0  0  0999 V2000
   10.7289   14.5502   18.6127 C   0  0  0  0  0  0  0  0  0  0  0  0
    9.7648   14.6204   19.6613 O   0  0  0  0  0  0  0  0  0  0  0  0
   10.1116   15.5871   20.6274 C   0  0  2  0  0  0  0  0  0  0  0  0
   11.3176   15.2043   21.5177 C   0  0  2  0  0  0  0  0  0  0  0  0
   11.3813   13.8274   22.1244 C   0  0  0  0  0  0  0  0  0  0  0  0
   10.7754   16.2659   22.4363 C   0  0  0  0  0  0  0  0  0  0  0  0
    9.3196   15.9494   21.9002 C   0  0  2  0  0  0  0  0  0  0  0  0
    8.6056   15.0321   22.7723 O   0  0  0  0  0  0  0  0  0  0  0  0
    7.2842   14.8462   22.5802 C   0  0  0  0  0  0  0  0  0  0  0  0
    6.7570   14.7482   21.4810 O   0  0  0  0  0  0  0  0  0  0  0  0
    6.4792   14.6504   23.8825 C   0  0  0  0  0  0  0  0  0  0  0  0
    6.3271   13.1660   24.2079 C   0  0  0  0  0  0  0  0  0  0  0  0
    7.5972   12.5868   24.8256 C   0  0  0  0  0  0  0  0  0  0  0  0
    8.0612   13.3698   26.0019 N   0  0  0  0  0  0  0  0  0  0  0  0
    9.6663   13.8907   26.0539 S   0  0  0  0  0  0  0  0  0  0  0  0
   10.0224   14.5204   24.8159 O   0  0  0  0  0  0  0  0  0  0  0  0
    9.8157   14.6214   27.2905 O   0  0  0  0  0  0  0  0  0  0  0  0
   10.6460   12.5266   26.1989 N   0  0  0  0  0  0  0  0  0  0  0  0
   12.0242   12.9234   26.6433 C   0  0  0  0  0  0  0  0  0  0  0  0
   13.0791   12.6129   25.6191 C   0  0  0  0  0  0  0  0  0  0  0  0
   13.1203   11.1261   25.3490 C   0  0  0  0  0  0  0  0  0  0  0  0
   11.7045   10.4881   25.2632 C   0  0  0  0  0  0  0  0  0  0  0  0
   10.6027   11.5292   25.1000 C   0  0  0  0  0  0  0  0  0  0  0  0
    7.1149   14.4836   26.3430 C   0  0  0  0  0  0  0  0  0  0  0  0
    6.9358   15.4079   25.1339 C   0  0  0  0  0  0  0  0  0  0  0  0
  1  2  1  0
  3  2  1  1
  3  4  1  0
  4  5  1  1
  4  6  1  0
  6  7  1  0
  7  8  1  1
  8  9  1  0
  9 10  2  0
  9 11  1  0
 11 12  1  0
 12 13  1  0
 13 14  1  0
 14 15  1  0
 15 16  2  0
 15 17  2  0
 15 18  1  0
 18 19  1  0
 19 20  1  0
 20 21  1  0
 21 22  1  0
 22 23  1  0
 14 24  1  0
 24 25  1  0
  7  3  1  0
 25 11  1  0
 23 18  1  0
M  END
>  <energy_score>  (2244) 
-32.490651

>  <inchikey>  (2244) 
None

>  <smiles>  (2244) 
None

>  <ref_pdb>  (2244) 
A4706a

>  <alias>  (2244) 
None

>  <HIPPO Pose ID>  (2244) 
499888

>  <name>  (2244) 
P499888

>  <HIPPO Compound ID>  (2244) 
314432

>  <ref_mols>  (2244) 
A4706a,A0875a

>  <distance_score>  (2244) 
1.421969

>  <inspiration_score>  (2244) 
None

$$$$
P499889
     RDKit          3D

 25 27  0  0  0  0  0  0  0  0999 V2000
   11.1133   14.8579   18.8825 C   0  0  0  0  0  0  0  0  0  0  0  0
    9.8025   14.8251   19.4070 O   0  0  0  0  0  0  0  0  0  0  0  0
    9.6466   14.5862   20.8242 C   0  0  1  0  0  0  0  0  0  0  0  0
   10.0132   15.8216   21.6558 C   0  0  2  0  0  0  0  0  0  0  0  0
   11.0300   15.4767   22.7215 C   0  0  0  0  0  0  0  0  0  0  0  0
    8.4941   16.0786   21.8199 C   0  0  0  0  0  0  0  0  0  0  0  0
    8.1757   14.6583   21.3507 C   0  0  2  0  0  0  0  0  0  0  0  0
    7.6637   13.7824   22.4110 O   0  0  0  0  0  0  0  0  0  0  0  0
    6.3804   14.1081   22.7926 C   0  0  0  0  0  0  0  0  0  0  0  0
    5.5951   14.7190   22.0731 O   0  0  0  0  0  0  0  0  0  0  0  0
    5.9796   13.6835   24.2164 C   0  0  0  0  0  0  0  0  0  0  0  0
    6.6231   12.3769   24.6916 C   0  0  0  0  0  0  0  0  0  0  0  0
    7.2470   12.3443   26.0714 C   0  0  0  0  0  0  0  0  0  0  0  0
    7.7594   13.6450   26.4803 N   0  0  0  0  0  0  0  0  0  0  0  0
    9.1554   14.3236   25.8510 S   0  0  0  0  0  0  0  0  0  0  0  0
    9.6231   15.2636   26.8408 O   0  0  0  0  0  0  0  0  0  0  0  0
    8.9058   14.7645   24.5104 O   0  0  0  0  0  0  0  0  0  0  0  0
   10.2905   13.1047   25.7425 N   0  0  0  0  0  0  0  0  0  0  0  0
   11.6779   13.6462   25.8577 C   0  0  0  0  0  0  0  0  0  0  0  0
   12.6894   12.7453   25.1647 C   0  0  0  0  0  0  0  0  0  0  0  0
   12.3592   11.3084   25.5139 C   0  0  0  0  0  0  0  0  0  0  0  0
   10.9150   10.9168   25.0955 C   0  0  0  0  0  0  0  0  0  0  0  0
   10.1672   12.1415   24.6261 C   0  0  0  0  0  0  0  0  0  0  0  0
    6.6269   14.6050   26.5591 C   0  0  0  0  0  0  0  0  0  0  0  0
    6.0657   14.8920   25.1691 C   0  0  0  0  0  0  0  0  0  0  0  0
  1  2  1  0
  3  2  1  6
  3  4  1  0
  4  5  1  1
  4  6  1  0
  6  7  1  0
  7  8  1  1
  8  9  1  0
  9 10  2  0
  9 11  1  0
 11 12  1  0
 12 13  1  0
 13 14  1  0
 14 15  1  0
 15 16  2  0
 15 17  2  0
 15 18  1  0
 18 19  1  0
 19 20  1  0
 20 21  1  0
 21 22  1  0
 22 23  1  0
 14 24  1  0
 24 25  1  0
  7  3  1  0
 25 11  1  0
 23 18  1  0
M  END
>  <energy_score>  (2245) 
-46.547905

>  <inchikey>  (2245) 
None

>  <smiles>  (2245) 
None

>  <ref_pdb>  (2245) 
A4706a

>  <alias>  (2245) 
None

>  <HIPPO Pose ID>  (2245) 
499889

>  <name>  (2245) 
P499889

>  <HIPPO Compound ID>  (2245) 
314432

>  <ref_mols>  (2245) 
A4706a,A0875a

>  <distance_score>  (2245) 
1.425668

>  <inspiration_score>  (2245) 
None

$$$$
P499890
     RDKit          3D

 25 27  0  0  0  0  0  0  0  0999 V2000
   10.4675   15.0365   19.1239 C   0  0  0  0  0  0  0  0  0  0  0  0
    9.8324   16.0337   19.9010 O   0  0  0  0  0  0  0  0  0  0  0  0
    9.4584   15.8259   21.2883 C   0  0  2  0  0  0  0  0  0  0  0  0
   10.4993   15.2959   22.2972 C   0  0  2  0  0  0  0  0  0  0  0  0
   11.9665   15.2423   21.9921 C   0  0  0  0  0  0  0  0  0  0  0  0
    9.8098   13.9263   22.2324 C   0  0  0  0  0  0  0  0  0  0  0  0
    8.5459   14.6311   21.6889 C   0  0  1  0  0  0  0  0  0  0  0  0
    7.5573   14.8209   22.7458 O   0  0  0  0  0  0  0  0  0  0  0  0
    6.7885   13.7248   22.9450 C   0  0  0  0  0  0  0  0  0  0  0  0
    6.4958   12.9473   22.0428 O   0  0  0  0  0  0  0  0  0  0  0  0
    6.3832   13.4233   24.3774 C   0  0  0  0  0  0  0  0  0  0  0  0
    7.1453   12.1774   24.9018 C   0  0  0  0  0  0  0  0  0  0  0  0
    8.1693   12.4926   25.9982 C   0  0  0  0  0  0  0  0  0  0  0  0
    8.8873   13.7030   25.5821 N   0  0  0  0  0  0  0  0  0  0  0  0
   10.3369   14.1230   26.3154 S   0  0  0  0  0  0  0  0  0  0  0  0
   10.0071   14.3596   27.6999 O   0  0  0  0  0  0  0  0  0  0  0  0
   10.9142   15.1703   25.5071 O   0  0  0  0  0  0  0  0  0  0  0  0
   11.4339   12.8233   26.3142 N   0  0  0  0  0  0  0  0  0  0  0  0
   12.6147   13.1322   27.2075 C   0  0  0  0  0  0  0  0  0  0  0  0
   13.9835   12.9235   26.5691 C   0  0  0  0  0  0  0  0  0  0  0  0
   14.1279   11.5168   26.1334 C   0  0  0  0  0  0  0  0  0  0  0  0
   12.9894   11.2508   25.1856 C   0  0  0  0  0  0  0  0  0  0  0  0
   11.8604   12.3041   25.0131 C   0  0  0  0  0  0  0  0  0  0  0  0
    7.9691   14.9113   25.6409 C   0  0  0  0  0  0  0  0  0  0  0  0
    6.5187   14.5942   25.3254 C   0  0  0  0  0  0  0  0  0  0  0  0
  1  2  1  0
  3  2  1  6
  3  4  1  0
  4  5  1  6
  4  6  1  0
  6  7  1  0
  7  8  1  1
  8  9  1  0
  9 10  2  0
  9 11  1  0
 11 12  1  0
 12 13  1  0
 13 14  1  0
 14 15  1  0
 15 16  2  0
 15 17  2  0
 15 18  1  0
 18 19  1  0
 19 20  1  0
 20 21  1  0
 21 22  1  0
 22 23  1  0
 14 24  1  0
 24 25  1  0
  7  3  1  0
 25 11  1  0
 23 18  1  0
M  END
>  <energy_score>  (2246) 
-45.82675

>  <inchikey>  (2246) 
None

>  <smiles>  (2246) 
None

>  <ref_pdb>  (2246) 
A4706a

>  <alias>  (2246) 
None

>  <HIPPO Pose ID>  (2246) 
499890

>  <name>  (2246) 
P499890

>  <HIPPO Compound ID>  (2246) 
314432

>  <ref_mols>  (2246) 
A0875a,A4706a

>  <distance_score>  (2246) 
1.712298

>  <inspiration_score>  (2246) 
None

$$$$
P499891
     RDKit          3D

 25 27  0  0  0  0  0  0  0  0999 V2000
   10.7591   15.4470   18.8058 C   0  0  0  0  0  0  0  0  0  0  0  0
    9.8159   15.8046   19.8305 O   0  0  0  0  0  0  0  0  0  0  0  0
    9.7513   14.7772   20.8209 C   0  0  1  0  0  0  0  0  0  0  0  0
   10.4025   14.9476   22.1858 C   0  0  2  0  0  0  0  0  0  0  0  0
   11.8974   14.8696   22.1950 C   0  0  0  0  0  0  0  0  0  0  0  0
    9.6113   13.6243   22.4897 C   0  0  0  0  0  0  0  0  0  0  0  0
    8.5089   14.2486   21.5608 C   0  0  1  0  0  0  0  0  0  0  0  0
    7.5275   14.9129   22.4145 O   0  0  0  0  0  0  0  0  0  0  0  0
    6.6204   13.9930   22.8608 C   0  0  0  0  0  0  0  0  0  0  0  0
    6.2781   13.0304   22.1696 O   0  0  0  0  0  0  0  0  0  0  0  0
    6.1009   14.0907   24.2876 C   0  0  0  0  0  0  0  0  0  0  0  0
    6.3011   12.7164   24.9894 C   0  0  0  0  0  0  0  0  0  0  0  0
    7.6819   12.5263   25.6193 C   0  0  0  0  0  0  0  0  0  0  0  0
    8.0766   13.6738   26.4466 N   0  0  0  0  0  0  0  0  0  0  0  0
    9.6016   14.3714   26.3451 S   0  0  0  0  0  0  0  0  0  0  0  0
    9.6934   15.1844   27.5334 O   0  0  0  0  0  0  0  0  0  0  0  0
    9.7649   14.9892   25.0565 O   0  0  0  0  0  0  0  0  0  0  0  0
   10.7896   13.1069   26.5072 N   0  0  0  0  0  0  0  0  0  0  0  0
   11.3048   12.6388   25.1885 C   0  0  0  0  0  0  0  0  0  0  0  0
   12.5658   11.7970   25.2834 C   0  0  0  0  0  0  0  0  0  0  0  0
   13.6741   12.3542   26.1306 C   0  0  0  0  0  0  0  0  0  0  0  0
   13.1346   12.7961   27.4587 C   0  0  0  0  0  0  0  0  0  0  0  0
   11.9036   13.6834   27.3393 C   0  0  0  0  0  0  0  0  0  0  0  0
    7.0056   14.7192   26.5589 C   0  0  0  0  0  0  0  0  0  0  0  0
    6.6106   15.2231   25.1693 C   0  0  0  0  0  0  0  0  0  0  0  0
  1  2  1  0
  3  2  1  1
  3  4  1  0
  4  5  1  6
  4  6  1  0
  6  7  1  0
  7  8  1  1
  8  9  1  0
  9 10  2  0
  9 11  1  0
 11 12  1  0
 12 13  1  0
 13 14  1  0
 14 15  1  0
 15 16  2  0
 15 17  2  0
 15 18  1  0
 18 19  1  0
 19 20  1  0
 20 21  1  0
 21 22  1  0
 22 23  1  0
 14 24  1  0
 24 25  1  0
  7  3  1  0
 25 11  1  0
 23 18  1  0
M  END
>  <energy_score>  (2247) 
-35.24615

>  <inchikey>  (2247) 
None

>  <smiles>  (2247) 
None

>  <ref_pdb>  (2247) 
A4706a

>  <alias>  (2247) 
None

>  <HIPPO Pose ID>  (2247) 
499891

>  <name>  (2247) 
P499891

>  <HIPPO Compound ID>  (2247) 
314432

>  <ref_mols>  (2247) 
A4706a,A0875a

>  <distance_score>  (2247) 
1.632407

>  <inspiration_score>  (2247) 
None

$$$$
P499892
     RDKit          3D

 25 27  0  0  0  0  0  0  0  0999 V2000
   11.4334   14.8397   18.4982 C   0  0  0  0  0  0  0  0  0  0  0  0
   10.3335   14.4285   19.2795 O   0  0  0  0  0  0  0  0  0  0  0  0
   10.1426   15.2778   20.3778 C   0  0  2  0  0  0  0  0  0  0  0  0
   11.2132   15.1872   21.4631 C   0  0  0  0  0  0  0  0  0  0  0  0
   10.5808   15.7741   22.6495 N   0  0  0  0  0  0  0  0  0  0  0  0
    9.1550   15.9830   22.2824 C   0  0  0  0  0  0  0  0  0  0  0  0
    8.8662   15.0094   21.1660 C   0  0  2  0  0  0  0  0  0  0  0  0
    8.7773   13.6907   21.7170 O   0  0  0  0  0  0  0  0  0  0  0  0
    7.6522   13.4663   22.4558 C   0  0  0  0  0  0  0  0  0  0  0  0
    6.5134   13.4477   22.0243 O   0  0  0  0  0  0  0  0  0  0  0  0
    8.0505   13.1706   23.8650 C   0  0  0  0  0  0  0  0  0  0  0  0
    8.7581   11.8318   23.9973 C   0  0  0  0  0  0  0  0  0  0  0  0
    9.0368   11.4933   25.4457 C   0  0  0  0  0  0  0  0  0  0  0  0
    9.0860   12.7061   26.2667 N   0  0  0  0  0  0  0  0  0  0  0  0
   10.4351   13.7284   26.3141 S   0  0  0  0  0  0  0  0  0  0  0  0
   10.3347   14.4055   27.5806 O   0  0  0  0  0  0  0  0  0  0  0  0
   10.5249   14.4882   25.0911 O   0  0  0  0  0  0  0  0  0  0  0  0
   11.7810   12.6772   26.3496 N   0  0  0  0  0  0  0  0  0  0  0  0
   12.3610   12.4060   25.0284 C   0  0  0  0  0  0  0  0  0  0  0  0
   13.3656   11.2606   25.1568 C   0  0  0  0  0  0  0  0  0  0  0  0
   14.4599   11.4466   26.1761 C   0  0  0  0  0  0  0  0  0  0  0  0
   14.2801   12.7542   26.8796 C   0  0  0  0  0  0  0  0  0  0  0  0
   12.8440   12.9896   27.3583 C   0  0  0  0  0  0  0  0  0  0  0  0
    7.7480   13.4142   26.3174 C   0  0  0  0  0  0  0  0  0  0  0  0
    7.0164   13.3499   24.9631 C   0  0  0  0  0  0  0  0  0  0  0  0
  1  2  1  0
  3  2  1  6
  3  4  1  0
  4  5  1  0
  5  6  1  0
  6  7  1  0
  7  8  1  1
  8  9  1  0
  9 10  2  0
  9 11  1  0
 11 12  1  0
 12 13  1  0
 13 14  1  0
 14 15  1  0
 15 16  2  0
 15 17  2  0
 15 18  1  0
 18 19  1  0
 19 20  1  0
 20 21  1  0
 21 22  1  0
 22 23  1  0
 14 24  1  0
 24 25  1  0
  7  3  1  0
 25 11  1  0
 23 18  1  0
M  END
>  <energy_score>  (2248) 
-48.882778

>  <inchikey>  (2248) 
None

>  <smiles>  (2248) 
None

>  <ref_pdb>  (2248) 
A4706a

>  <alias>  (2248) 
None

>  <HIPPO Pose ID>  (2248) 
499892

>  <name>  (2248) 
P499892

>  <HIPPO Compound ID>  (2248) 
314434

>  <ref_mols>  (2248) 
A0875a,A4706a

>  <distance_score>  (2248) 
1.563219

>  <inspiration_score>  (2248) 
None

$$$$
P499893
     RDKit          3D

 25 27  0  0  0  0  0  0  0  0999 V2000
   10.9608   14.8929   18.7361 C   0  0  0  0  0  0  0  0  0  0  0  0
   10.1903   15.4861   19.7641 O   0  0  0  0  0  0  0  0  0  0  0  0
    9.8175   14.6239   20.8607 C   0  0  1  0  0  0  0  0  0  0  0  0
   11.0221   13.9525   21.5232 C   0  0  0  0  0  0  0  0  0  0  0  0
   11.6441   14.9154   22.4305 N   0  0  0  0  0  0  0  0  0  0  0  0
   10.6640   16.0148   22.4964 C   0  0  0  0  0  0  0  0  0  0  0  0
    9.2946   15.5557   21.9484 C   0  0  2  0  0  0  0  0  0  0  0  0
    8.4879   15.0600   23.0587 O   0  0  0  0  0  0  0  0  0  0  0  0
    7.4569   14.1871   22.9580 C   0  0  0  0  0  0  0  0  0  0  0  0
    7.1362   13.5897   21.9357 O   0  0  0  0  0  0  0  0  0  0  0  0
    6.6919   13.9767   24.3074 C   0  0  0  0  0  0  0  0  0  0  0  0
    6.7257   12.5079   24.8050 C   0  0  0  0  0  0  0  0  0  0  0  0
    7.6311   12.1531   25.9978 C   0  0  0  0  0  0  0  0  0  0  0  0
    8.5409   13.2703   26.3558 N   0  0  0  0  0  0  0  0  0  0  0  0
    9.7982   13.5245   25.2635 S   0  0  0  0  0  0  0  0  0  0  0  0
    9.4466   12.7570   24.0941 O   0  0  0  0  0  0  0  0  0  0  0  0
   10.0882   14.9363   25.2554 O   0  0  0  0  0  0  0  0  0  0  0  0
   11.1657   12.7596   25.9097 N   0  0  0  0  0  0  0  0  0  0  0  0
   11.7983   13.4926   27.0317 C   0  0  0  0  0  0  0  0  0  0  0  0
   13.0943   12.7939   27.4928 C   0  0  0  0  0  0  0  0  0  0  0  0
   14.0198   12.2793   26.3977 C   0  0  0  0  0  0  0  0  0  0  0  0
   13.2298   11.6426   25.2815 C   0  0  0  0  0  0  0  0  0  0  0  0
   12.1726   12.6211   24.8150 C   0  0  0  0  0  0  0  0  0  0  0  0
    7.7129   14.4690   26.6541 C   0  0  0  0  0  0  0  0  0  0  0  0
    6.9702   14.9973   25.4240 C   0  0  0  0  0  0  0  0  0  0  0  0
  1  2  1  0
  3  2  1  6
  3  4  1  0
  4  5  1  0
  5  6  1  0
  6  7  1  0
  7  8  1  1
  8  9  1  0
  9 10  2  0
  9 11  1  0
 11 12  1  0
 12 13  1  0
 13 14  1  0
 14 15  1  0
 15 16  2  0
 15 17  2  0
 15 18  1  0
 18 19  1  0
 19 20  1  0
 20 21  1  0
 21 22  1  0
 22 23  1  0
 14 24  1  0
 24 25  1  0
  7  3  1  0
 25 11  1  0
 23 18  1  0
M  END
>  <energy_score>  (2249) 
-32.800134

>  <inchikey>  (2249) 
None

>  <smiles>  (2249) 
None

>  <ref_pdb>  (2249) 
A4706a

>  <alias>  (2249) 
None

>  <HIPPO Pose ID>  (2249) 
499893

>  <name>  (2249) 
P499893

>  <HIPPO Compound ID>  (2249) 
314434

>  <ref_mols>  (2249) 
A4706a,A0875a

>  <distance_score>  (2249) 
1.494045

>  <inspiration_score>  (2249) 
None

$$$$
P499894
     RDKit          3D

 25 27  0  0  0  0  0  0  0  0999 V2000
   10.7886   15.2535   19.0195 C   0  0  0  0  0  0  0  0  0  0  0  0
    9.8776   16.2091   19.5546 O   0  0  0  0  0  0  0  0  0  0  0  0
    9.4943   16.1444   20.9448 C   0  0  2  0  0  0  0  0  0  0  0  0
   10.6701   15.9325   21.8990 C   0  0  0  0  0  0  0  0  0  0  0  0
   10.7541   14.4983   22.1769 N   0  0  0  0  0  0  0  0  0  0  0  0
    9.5607   13.9068   21.5727 C   0  0  0  0  0  0  0  0  0  0  0  0
    8.5505   14.9852   21.2646 C   0  0  1  0  0  0  0  0  0  0  0  0
    7.6697   15.2068   22.3974 O   0  0  0  0  0  0  0  0  0  0  0  0
    6.7973   14.1869   22.6476 C   0  0  0  0  0  0  0  0  0  0  0  0
    6.7622   13.1403   22.0001 O   0  0  0  0  0  0  0  0  0  0  0  0
    5.8285   14.3944   23.8091 C   0  0  0  0  0  0  0  0  0  0  0  0
    5.8409   13.1386   24.7166 C   0  0  0  0  0  0  0  0  0  0  0  0
    7.1073   13.0062   25.5688 C   0  0  0  0  0  0  0  0  0  0  0  0
    7.9311   14.2153   25.3437 N   0  0  0  0  0  0  0  0  0  0  0  0
    9.4881   14.2414   25.9122 S   0  0  0  0  0  0  0  0  0  0  0  0
    9.5589   13.4771   27.1247 O   0  0  0  0  0  0  0  0  0  0  0  0
    9.9515   15.6058   25.8814 O   0  0  0  0  0  0  0  0  0  0  0  0
   10.4588   13.4877   24.7929 N   0  0  0  0  0  0  0  0  0  0  0  0
   10.1969   12.1356   24.2742 C   0  0  0  0  0  0  0  0  0  0  0  0
   10.7606   11.0933   25.1990 C   0  0  0  0  0  0  0  0  0  0  0  0
   12.2302   11.3723   25.5720 C   0  0  0  0  0  0  0  0  0  0  0  0
   12.7764   12.5858   24.8821 C   0  0  0  0  0  0  0  0  0  0  0  0
   11.8870   13.7587   25.1342 C   0  0  0  0  0  0  0  0  0  0  0  0
    7.1260   15.4108   25.7276 C   0  0  0  0  0  0  0  0  0  0  0  0
    6.0755   15.6423   24.6508 C   0  0  0  0  0  0  0  0  0  0  0  0
  1  2  1  0
  3  2  1  6
  3  4  1  0
  4  5  1  0
  5  6  1  0
  6  7  1  0
  7  8  1  1
  8  9  1  0
  9 10  2  0
  9 11  1  0
 11 12  1  0
 12 13  1  0
 13 14  1  0
 14 15  1  0
 15 16  2  0
 15 17  2  0
 15 18  1  0
 18 19  1  0
 19 20  1  0
 20 21  1  0
 21 22  1  0
 22 23  1  0
 14 24  1  0
 24 25  1  0
  7  3  1  0
 25 11  1  0
 23 18  1  0
M  END
>  <energy_score>  (2250) 
-46.766345

>  <inchikey>  (2250) 
None

>  <smiles>  (2250) 
None

>  <ref_pdb>  (2250) 
A4706a

>  <alias>  (2250) 
None

>  <HIPPO Pose ID>  (2250) 
499894

>  <name>  (2250) 
P499894

>  <HIPPO Compound ID>  (2250) 
314434

>  <ref_mols>  (2250) 
A4706a,A0875a

>  <distance_score>  (2250) 
1.737761

>  <inspiration_score>  (2250) 
None

$$$$
P499895
     RDKit          3D

 25 27  0  0  0  0  0  0  0  0999 V2000
   10.9580   15.0280   18.6982 C   0  0  0  0  0  0  0  0  0  0  0  0
   10.2614   15.6308   19.7774 O   0  0  0  0  0  0  0  0  0  0  0  0
    9.8676   14.7276   20.8218 C   0  0  1  0  0  0  0  0  0  0  0  0
   11.0792   14.0097   21.4363 C   0  0  0  0  0  0  0  0  0  0  0  0
   11.6112   14.9108   22.4555 N   0  0  0  0  0  0  0  0  0  0  0  0
   10.3821   15.4231   23.0520 C   0  0  0  0  0  0  0  0  0  0  0  0
    9.3081   15.5750   21.9786 C   0  0  2  0  0  0  0  0  0  0  0  0
    7.9735   15.2597   22.5054 O   0  0  0  0  0  0  0  0  0  0  0  0
    7.6070   14.0098   22.8754 C   0  0  0  0  0  0  0  0  0  0  0  0
    8.2264   12.9969   22.5776 O   0  0  0  0  0  0  0  0  0  0  0  0
    6.2909   13.9394   23.6745 C   0  0  0  0  0  0  0  0  0  0  0  0
    6.2906   12.7199   24.6570 C   0  0  0  0  0  0  0  0  0  0  0  0
    7.0292   12.9985   25.9766 C   0  0  0  0  0  0  0  0  0  0  0  0
    7.8673   14.1685   25.7051 N   0  0  0  0  0  0  0  0  0  0  0  0
    9.3321   14.3939   26.4389 S   0  0  0  0  0  0  0  0  0  0  0  0
    9.1466   14.2674   27.8577 O   0  0  0  0  0  0  0  0  0  0  0  0
    9.8652   15.6222   25.9065 O   0  0  0  0  0  0  0  0  0  0  0  0
   10.3531   13.1679   25.9380 N   0  0  0  0  0  0  0  0  0  0  0  0
   10.0353   12.2504   24.8428 C   0  0  0  0  0  0  0  0  0  0  0  0
   10.8092   10.9700   25.0930 C   0  0  0  0  0  0  0  0  0  0  0  0
   12.2835   11.2684   25.4782 C   0  0  0  0  0  0  0  0  0  0  0  0
   12.6746   12.6796   25.1253 C   0  0  0  0  0  0  0  0  0  0  0  0
   11.7796   13.6157   25.9228 C   0  0  0  0  0  0  0  0  0  0  0  0
    7.0126   15.3837   25.6290 C   0  0  0  0  0  0  0  0  0  0  0  0
    6.0069   15.2028   24.4919 C   0  0  0  0  0  0  0  0  0  0  0  0
  1  2  1  0
  3  2  1  6
  3  4  1  0
  4  5  1  0
  5  6  1  0
  6  7  1  0
  7  8  1  1
  8  9  1  0
  9 10  2  0
  9 11  1  0
 11 12  1  0
 12 13  1  0
 13 14  1  0
 14 15  1  0
 15 16  2  0
 15 17  2  0
 15 18  1  0
 18 19  1  0
 19 20  1  0
 20 21  1  0
 21 22  1  0
 22 23  1  0
 14 24  1  0
 24 25  1  0
  7  3  1  0
 25 11  1  0
 23 18  1  0
M  END
>  <energy_score>  (2251) 
-31.720136

>  <inchikey>  (2251) 
None

>  <smiles>  (2251) 
None

>  <ref_pdb>  (2251) 
A4706a

>  <alias>  (2251) 
None

>  <HIPPO Pose ID>  (2251) 
499895

>  <name>  (2251) 
P499895

>  <HIPPO Compound ID>  (2251) 
314434

>  <ref_mols>  (2251) 
A4706a,A0875a

>  <distance_score>  (2251) 
1.634325

>  <inspiration_score>  (2251) 
None

$$$$
P499896
     RDKit          3D

 25 28  0  0  0  0  0  0  0  0999 V2000
    6.0299   13.4310   21.7718 O   0  0  0  0  0  0  0  0  0  0  0  0
    6.9391   14.1305   22.2178 C   0  0  0  0  0  0  0  0  0  0  0  0
    7.6821   14.8947   21.3827 O   0  0  0  0  0  0  0  0  0  0  0  0
    8.7486   15.7958   21.7878 C   0  0  2  0  0  0  0  0  0  0  0  0
    9.2371   16.6960   20.6441 C   0  0  0  0  0  0  0  0  0  0  0  0
    9.6736   15.9203   19.5276 O   0  0  0  0  0  0  0  0  0  0  0  0
   10.8208   15.1059   19.7748 C   0  0  0  0  0  0  0  0  0  0  0  0
   11.0280   14.7542   21.2151 C   0  0  2  0  0  0  0  0  0  0  0  0
   10.1840   13.6648   21.7988 C   0  0  0  0  0  0  0  0  0  0  0  0
    9.9658   15.0652   22.2456 C   0  0  2  0  0  0  0  0  0  0  0  0
    7.2871   14.0427   23.6878 C   0  0  0  0  0  0  0  0  0  0  0  0
    7.1685   12.5762   24.1764 C   0  0  0  0  0  0  0  0  0  0  0  0
    7.2972   12.3934   25.6785 C   0  0  0  0  0  0  0  0  0  0  0  0
    7.7066   13.6554   26.2640 N   0  0  0  0  0  0  0  0  0  0  0  0
    9.2716   14.2080   26.3451 S   0  0  0  0  0  0  0  0  0  0  0  0
    9.8063   13.9010   27.6441 O   0  0  0  0  0  0  0  0  0  0  0  0
    9.2419   15.5766   25.8803 O   0  0  0  0  0  0  0  0  0  0  0  0
   10.2810   13.4218   25.2495 N   0  0  0  0  0  0  0  0  0  0  0  0
   10.5155   11.9703   25.2957 C   0  0  0  0  0  0  0  0  0  0  0  0
   11.9192   11.5883   25.7631 C   0  0  0  0  0  0  0  0  0  0  0  0
   13.0981   12.2668   25.1438 C   0  0  0  0  0  0  0  0  0  0  0  0
   12.6196   13.5053   24.4470 C   0  0  0  0  0  0  0  0  0  0  0  0
   11.5550   14.1876   25.2495 C   0  0  0  0  0  0  0  0  0  0  0  0
    6.6488   14.6878   26.0658 C   0  0  0  0  0  0  0  0  0  0  0  0
    6.4356   14.9567   24.5691 C   0  0  0  0  0  0  0  0  0  0  0  0
  1  2  2  0
  2  3  1  0
  4  3  1  6
  4  5  1  0
  5  6  1  0
  6  7  1  0
  8  7  1  6
  8  9  1  0
 10  9  1  6
  2 11  1  0
 11 12  1  0
 12 13  1  0
 13 14  1  0
 14 15  1  0
 15 16  2  0
 15 17  2  0
 15 18  1  0
 18 19  1  0
 19 20  1  0
 20 21  1  0
 21 22  1  0
 22 23  1  0
 14 24  1  0
 24 25  1  0
 10  4  1  0
 25 11  1  0
 10  8  1  0
 23 18  1  0
M  END
>  <energy_score>  (2252) 
-14.132024

>  <inchikey>  (2252) 
None

>  <smiles>  (2252) 
None

>  <ref_pdb>  (2252) 
A4706a

>  <alias>  (2252) 
None

>  <HIPPO Pose ID>  (2252) 
499896

>  <name>  (2252) 
P499896

>  <HIPPO Compound ID>  (2252) 
314435

>  <ref_mols>  (2252) 
A4706a,A0875a

>  <distance_score>  (2252) 
1.805163

>  <inspiration_score>  (2252) 
None

$$$$
P499897
     RDKit          3D

 25 28  0  0  0  0  0  0  0  0999 V2000
    6.9767   12.9808   22.0249 O   0  0  0  0  0  0  0  0  0  0  0  0
    7.2604   13.8154   22.8781 C   0  0  0  0  0  0  0  0  0  0  0  0
    8.4084   14.5210   22.8778 O   0  0  0  0  0  0  0  0  0  0  0  0
    9.4548   14.1103   21.9485 C   0  0  1  0  0  0  0  0  0  0  0  0
    9.1693   14.5768   20.5105 C   0  0  0  0  0  0  0  0  0  0  0  0
    9.4918   15.9211   20.1509 O   0  0  0  0  0  0  0  0  0  0  0  0
    9.7978   16.7208   21.2741 C   0  0  0  0  0  0  0  0  0  0  0  0
   10.9329   16.1146   22.0398 C   0  0  2  0  0  0  0  0  0  0  0  0
   11.8789   15.0986   21.4754 C   0  0  0  0  0  0  0  0  0  0  0  0
   10.7589   14.6846   22.4060 C   0  0  2  0  0  0  0  0  0  0  0  0
    6.3393   14.0140   24.0765 C   0  0  0  0  0  0  0  0  0  0  0  0
    6.4427   12.7431   24.9579 C   0  0  0  0  0  0  0  0  0  0  0  0
    6.9403   12.9221   26.3834 C   0  0  0  0  0  0  0  0  0  0  0  0
    7.6246   14.1908   26.5556 N   0  0  0  0  0  0  0  0  0  0  0  0
    9.2506   14.5154   26.4402 S   0  0  0  0  0  0  0  0  0  0  0  0
    9.5261   15.1185   25.1627 O   0  0  0  0  0  0  0  0  0  0  0  0
    9.5872   15.2335   27.6415 O   0  0  0  0  0  0  0  0  0  0  0  0
   10.0696   13.0448   26.4843 N   0  0  0  0  0  0  0  0  0  0  0  0
   11.5110   13.2088   26.8332 C   0  0  0  0  0  0  0  0  0  0  0  0
   12.3950   13.3312   25.6295 C   0  0  0  0  0  0  0  0  0  0  0  0
   12.2243   12.1814   24.6869 C   0  0  0  0  0  0  0  0  0  0  0  0
   10.9538   11.3628   24.8851 C   0  0  0  0  0  0  0  0  0  0  0  0
    9.7867   12.1617   25.3468 C   0  0  0  0  0  0  0  0  0  0  0  0
    6.7257   15.3162   26.2721 C   0  0  0  0  0  0  0  0  0  0  0  0
    6.4436   15.3723   24.7789 C   0  0  0  0  0  0  0  0  0  0  0  0
  1  2  2  0
  2  3  1  0
  4  3  1  1
  4  5  1  0
  5  6  1  0
  6  7  1  0
  8  7  1  6
  8  9  1  0
 10  9  1  6
  2 11  1  0
 11 12  1  0
 12 13  1  0
 13 14  1  0
 14 15  1  0
 15 16  2  0
 15 17  2  0
 15 18  1  0
 18 19  1  0
 19 20  1  0
 20 21  1  0
 21 22  1  0
 22 23  1  0
 14 24  1  0
 24 25  1  0
 10  4  1  0
 25 11  1  0
 10  8  1  0
 23 18  1  0
M  END
>  <energy_score>  (2253) 
-38.180171

>  <inchikey>  (2253) 
None

>  <smiles>  (2253) 
None

>  <ref_pdb>  (2253) 
A4706a

>  <alias>  (2253) 
None

>  <HIPPO Pose ID>  (2253) 
499897

>  <name>  (2253) 
P499897

>  <HIPPO Compound ID>  (2253) 
314435

>  <ref_mols>  (2253) 
A0875a,A4706a

>  <distance_score>  (2253) 
1.94286

>  <inspiration_score>  (2253) 
None

$$$$
P499898
     RDKit          3D

 25 28  0  0  0  0  0  0  0  0999 V2000
    5.7786   13.9105   21.5068 O   0  0  0  0  0  0  0  0  0  0  0  0
    6.8996   14.0297   21.9821 C   0  0  0  0  0  0  0  0  0  0  0  0
    8.0195   14.0838   21.2017 O   0  0  0  0  0  0  0  0  0  0  0  0
    8.8611   15.2788   21.1205 C   0  0  2  0  0  0  0  0  0  0  0  0
    9.4848   15.4059   19.6943 C   0  0  0  0  0  0  0  0  0  0  0  0
   10.4633   14.4160   19.4275 O   0  0  0  0  0  0  0  0  0  0  0  0
   11.6359   14.5771   20.1905 C   0  0  0  0  0  0  0  0  0  0  0  0
   11.3416   14.7587   21.6326 C   0  0  1  0  0  0  0  0  0  0  0  0
   11.1166   16.1548   22.1271 C   0  0  0  0  0  0  0  0  0  0  0  0
    9.9794   15.1910   22.1143 C   0  0  1  0  0  0  0  0  0  0  0  0
    7.1424   14.0149   23.4692 C   0  0  0  0  0  0  0  0  0  0  0  0
    6.6143   12.7985   24.2644 C   0  0  0  0  0  0  0  0  0  0  0  0
    7.1150   12.8036   25.7197 C   0  0  0  0  0  0  0  0  0  0  0  0
    7.8107   14.0664   25.9441 N   0  0  0  0  0  0  0  0  0  0  0  0
    9.4379   14.2217   26.1479 S   0  0  0  0  0  0  0  0  0  0  0  0
    9.7488   15.6318   26.1011 O   0  0  0  0  0  0  0  0  0  0  0  0
    9.8437   13.4316   27.2761 O   0  0  0  0  0  0  0  0  0  0  0  0
   10.2923   13.5839   24.8601 N   0  0  0  0  0  0  0  0  0  0  0  0
   10.0923   12.2416   24.2907 C   0  0  0  0  0  0  0  0  0  0  0  0
   10.7256   11.1873   25.1635 C   0  0  0  0  0  0  0  0  0  0  0  0
   12.1686   11.5364   25.5585 C   0  0  0  0  0  0  0  0  0  0  0  0
   12.6619   12.7536   24.8321 C   0  0  0  0  0  0  0  0  0  0  0  0
   11.7368   13.9181   25.0448 C   0  0  0  0  0  0  0  0  0  0  0  0
    6.9688   15.2422   25.6489 C   0  0  0  0  0  0  0  0  0  0  0  0
    6.6702   15.2880   24.1537 C   0  0  0  0  0  0  0  0  0  0  0  0
  1  2  2  0
  2  3  1  0
  4  3  1  6
  4  5  1  0
  5  6  1  0
  6  7  1  0
  8  7  1  6
  8  9  1  0
 10  9  1  6
  2 11  1  0
 11 12  1  0
 12 13  1  0
 13 14  1  0
 14 15  1  0
 15 16  2  0
 15 17  2  0
 15 18  1  0
 18 19  1  0
 19 20  1  0
 20 21  1  0
 21 22  1  0
 22 23  1  0
 14 24  1  0
 24 25  1  0
 10  4  1  0
 25 11  1  0
 10  8  1  0
 23 18  1  0
M  END
>  <energy_score>  (2254) 
-26.441383

>  <inchikey>  (2254) 
None

>  <smiles>  (2254) 
None

>  <ref_pdb>  (2254) 
A4706a

>  <alias>  (2254) 
None

>  <HIPPO Pose ID>  (2254) 
499898

>  <name>  (2254) 
P499898

>  <HIPPO Compound ID>  (2254) 
314435

>  <ref_mols>  (2254) 
A4706a,A0875a

>  <distance_score>  (2254) 
1.899197

>  <inspiration_score>  (2254) 
None

$$$$
P499899
     RDKit          3D

 25 27  0  0  0  0  0  0  0  0999 V2000
   11.2684   14.7168   18.4906 N   0  0  0  0  0  0  0  0  0  0  0  0
   10.9534   14.6231   19.5991 C   0  0  0  0  0  0  0  0  0  0  0  0
   10.6020   14.4286   20.9954 C   0  0  1  0  0  0  0  0  0  0  0  0
   11.3576   15.3990   21.8784 C   0  0  0  0  0  0  0  0  0  0  0  0
   10.3880   15.8543   22.8186 O   0  0  0  0  0  0  0  0  0  0  0  0
    9.1735   15.9701   22.0512 C   0  0  0  0  0  0  0  0  0  0  0  0
    9.1210   14.6829   21.2604 C   0  0  2  0  0  0  0  0  0  0  0  0
    8.6360   13.6281   22.1277 O   0  0  0  0  0  0  0  0  0  0  0  0
    7.3346   13.7253   22.5394 C   0  0  0  0  0  0  0  0  0  0  0  0
    6.3810   13.8970   21.8067 O   0  0  0  0  0  0  0  0  0  0  0  0
    7.3237   13.5936   24.0338 C   0  0  0  0  0  0  0  0  0  0  0  0
    7.6298   12.1717   24.5134 C   0  0  0  0  0  0  0  0  0  0  0  0
    7.8668   12.1260   26.0166 C   0  0  0  0  0  0  0  0  0  0  0  0
    7.8355   13.4874   26.5426 N   0  0  0  0  0  0  0  0  0  0  0  0
    9.2098   14.3930   26.8342 S   0  0  0  0  0  0  0  0  0  0  0  0
    9.3190   14.4695   28.2666 O   0  0  0  0  0  0  0  0  0  0  0  0
    9.1628   15.6013   26.0506 O   0  0  0  0  0  0  0  0  0  0  0  0
   10.5009   13.4346   26.2724 N   0  0  0  0  0  0  0  0  0  0  0  0
   11.7463   13.6565   27.0485 C   0  0  0  0  0  0  0  0  0  0  0  0
   12.8456   12.6751   26.6238 C   0  0  0  0  0  0  0  0  0  0  0  0
   12.5530   11.8401   25.3887 C   0  0  0  0  0  0  0  0  0  0  0  0
   11.6271   12.4824   24.3651 C   0  0  0  0  0  0  0  0  0  0  0  0
   10.8484   13.6634   24.8593 C   0  0  0  0  0  0  0  0  0  0  0  0
    6.5505   14.2060   26.3221 C   0  0  0  0  0  0  0  0  0  0  0  0
    6.1644   14.1704   24.8293 C   0  0  0  0  0  0  0  0  0  0  0  0
  1  2  3  0
  3  2  1  6
  3  4  1  0
  4  5  1  0
  5  6  1  0
  6  7  1  0
  7  8  1  1
  8  9  1  0
  9 10  2  0
  9 11  1  0
 11 12  1  0
 12 13  1  0
 13 14  1  0
 14 15  1  0
 15 16  2  0
 15 17  2  0
 15 18  1  0
 18 19  1  0
 19 20  1  0
 20 21  1  0
 21 22  1  0
 22 23  1  0
 14 24  1  0
 24 25  1  0
  7  3  1  0
 25 11  1  0
 23 18  1  0
M  END
>  <energy_score>  (2255) 
-22.856727

>  <inchikey>  (2255) 
None

>  <smiles>  (2255) 
None

>  <ref_pdb>  (2255) 
A4706a

>  <alias>  (2255) 
None

>  <HIPPO Pose ID>  (2255) 
499899

>  <name>  (2255) 
P499899

>  <HIPPO Compound ID>  (2255) 
314436

>  <ref_mols>  (2255) 
A4706a,A0875a

>  <distance_score>  (2255) 
1.422854

>  <inspiration_score>  (2255) 
None

$$$$
P499900
     RDKit          3D

 25 27  0  0  0  0  0  0  0  0999 V2000
    9.7845   15.4299   18.6060 N   0  0  0  0  0  0  0  0  0  0  0  0
    9.9681   15.5456   19.7407 C   0  0  0  0  0  0  0  0  0  0  0  0
   10.2992   15.6945   21.1441 C   0  0  2  0  0  0  0  0  0  0  0  0
   11.7822   15.3399   21.3077 C   0  0  0  0  0  0  0  0  0  0  0  0
   11.9219   14.5544   22.4944 O   0  0  0  0  0  0  0  0  0  0  0  0
   10.6531   14.5865   23.1188 C   0  0  0  0  0  0  0  0  0  0  0  0
    9.5978   14.6883   22.0362 C   0  0  1  0  0  0  0  0  0  0  0  0
    8.3223   15.0976   22.6032 O   0  0  0  0  0  0  0  0  0  0  0  0
    7.5774   14.0634   23.0947 C   0  0  0  0  0  0  0  0  0  0  0  0
    7.8455   12.8843   22.8599 O   0  0  0  0  0  0  0  0  0  0  0  0
    6.3228   14.4305   23.9092 C   0  0  0  0  0  0  0  0  0  0  0  0
    5.8125   13.1600   24.6156 C   0  0  0  0  0  0  0  0  0  0  0  0
    6.7701   12.6667   25.7075 C   0  0  0  0  0  0  0  0  0  0  0  0
    7.3565   13.7616   26.5148 N   0  0  0  0  0  0  0  0  0  0  0  0
    8.9673   14.2364   26.5453 S   0  0  0  0  0  0  0  0  0  0  0  0
    9.1669   14.9230   27.7967 O   0  0  0  0  0  0  0  0  0  0  0  0
    9.1965   14.9766   25.3340 O   0  0  0  0  0  0  0  0  0  0  0  0
   10.0711   12.9486   26.5473 N   0  0  0  0  0  0  0  0  0  0  0  0
    9.8375   11.9176   25.5391 C   0  0  0  0  0  0  0  0  0  0  0  0
   11.0040   11.0808   25.1110 C   0  0  0  0  0  0  0  0  0  0  0  0
   12.3690   11.7597   25.1640 C   0  0  0  0  0  0  0  0  0  0  0  0
   12.5690   12.5324   26.4367 C   0  0  0  0  0  0  0  0  0  0  0  0
   11.4563   13.5384   26.6006 C   0  0  0  0  0  0  0  0  0  0  0  0
    6.4735   14.9759   26.4335 C   0  0  0  0  0  0  0  0  0  0  0  0
    6.4207   15.5209   24.9848 C   0  0  0  0  0  0  0  0  0  0  0  0
  1  2  3  0
  3  2  1  6
  3  4  1  0
  4  5  1  0
  5  6  1  0
  6  7  1  0
  7  8  1  1
  8  9  1  0
  9 10  2  0
  9 11  1  0
 11 12  1  0
 12 13  1  0
 13 14  1  0
 14 15  1  0
 15 16  2  0
 15 17  2  0
 15 18  1  0
 18 19  1  0
 19 20  1  0
 20 21  1  0
 21 22  1  0
 22 23  1  0
 14 24  1  0
 24 25  1  0
  7  3  1  0
 25 11  1  0
 23 18  1  0
M  END
>  <energy_score>  (2256) 
-37.36504

>  <inchikey>  (2256) 
None

>  <smiles>  (2256) 
None

>  <ref_pdb>  (2256) 
A4706a

>  <alias>  (2256) 
None

>  <HIPPO Pose ID>  (2256) 
499900

>  <name>  (2256) 
P499900

>  <HIPPO Compound ID>  (2256) 
314436

>  <ref_mols>  (2256) 
A4706a,A0875a

>  <distance_score>  (2256) 
1.699926

>  <inspiration_score>  (2256) 
None

$$$$
P499901
     RDKit          3D

 25 27  0  0  0  0  0  0  0  0999 V2000
   10.9911   14.8952   18.7729 C   0  0  0  0  0  0  0  0  0  0  0  0
    9.7199   15.0212   19.3876 O   0  0  0  0  0  0  0  0  0  0  0  0
    9.6388   14.6353   20.7793 C   0  0  1  0  0  0  0  0  0  0  0  0
   10.0980   15.7530   21.7111 C   0  0  2  0  0  0  0  0  0  0  0  0
   11.4245   15.3191   22.8238 Cl  0  0  0  0  0  0  0  0  0  0  0  0
    8.6385   15.9423   22.1472 C   0  0  0  0  0  0  0  0  0  0  0  0
    8.2266   14.6574   21.4310 C   0  0  2  0  0  0  0  0  0  0  0  0
    7.8128   13.5836   22.3265 O   0  0  0  0  0  0  0  0  0  0  0  0
    6.6218   13.8256   22.9536 C   0  0  0  0  0  0  0  0  0  0  0  0
    5.7608   14.5745   22.5076 O   0  0  0  0  0  0  0  0  0  0  0  0
    6.4699   13.1495   24.3201 C   0  0  0  0  0  0  0  0  0  0  0  0
    7.4174   11.9555   24.5663 C   0  0  0  0  0  0  0  0  0  0  0  0
    7.9866   11.8005   25.9599 C   0  0  0  0  0  0  0  0  0  0  0  0
    8.3109   13.1021   26.5426 N   0  0  0  0  0  0  0  0  0  0  0  0
    9.5874   13.9828   25.8792 S   0  0  0  0  0  0  0  0  0  0  0  0
    9.3994   14.0431   24.4577 O   0  0  0  0  0  0  0  0  0  0  0  0
    9.6879   15.1875   26.6665 O   0  0  0  0  0  0  0  0  0  0  0  0
   10.9321   12.9874   26.2012 N   0  0  0  0  0  0  0  0  0  0  0  0
   11.9890   13.7244   26.9379 C   0  0  0  0  0  0  0  0  0  0  0  0
   13.3924   13.1528   26.7182 C   0  0  0  0  0  0  0  0  0  0  0  0
   13.3671   11.6805   26.6755 C   0  0  0  0  0  0  0  0  0  0  0  0
   12.5773   11.2904   25.4389 C   0  0  0  0  0  0  0  0  0  0  0  0
   11.4506   12.2519   25.0281 C   0  0  0  0  0  0  0  0  0  0  0  0
    7.0574   13.8803   26.7216 C   0  0  0  0  0  0  0  0  0  0  0  0
    6.4906   14.2792   25.3719 C   0  0  0  0  0  0  0  0  0  0  0  0
  1  2  1  0
  3  2  1  6
  3  4  1  0
  4  5  1  1
  4  6  1  0
  6  7  1  0
  7  8  1  1
  8  9  1  0
  9 10  2  0
  9 11  1  0
 11 12  1  0
 12 13  1  0
 13 14  1  0
 14 15  1  0
 15 16  2  0
 15 17  2  0
 15 18  1  0
 18 19  1  0
 19 20  1  0
 20 21  1  0
 21 22  1  0
 22 23  1  0
 14 24  1  0
 24 25  1  0
  7  3  1  0
 25 11  1  0
 23 18  1  0
M  END
>  <energy_score>  (2257) 
-50.141961

>  <inchikey>  (2257) 
None

>  <smiles>  (2257) 
None

>  <ref_pdb>  (2257) 
A4706a

>  <alias>  (2257) 
None

>  <HIPPO Pose ID>  (2257) 
499901

>  <name>  (2257) 
P499901

>  <HIPPO Compound ID>  (2257) 
314437

>  <ref_mols>  (2257) 
A4706a,A0875a

>  <distance_score>  (2257) 
1.583669

>  <inspiration_score>  (2257) 
None

$$$$
P499902
     RDKit          3D

 25 27  0  0  0  0  0  0  0  0999 V2000
   10.9885   14.7703   18.4618 C   0  0  0  0  0  0  0  0  0  0  0  0
   10.0334   15.4853   19.2292 O   0  0  0  0  0  0  0  0  0  0  0  0
    9.7878   14.9487   20.5487 C   0  0  1  0  0  0  0  0  0  0  0  0
   11.0315   14.9907   21.4579 C   0  0  2  0  0  0  0  0  0  0  0  0
   11.3848   13.5714   22.4242 Cl  0  0  0  0  0  0  0  0  0  0  0  0
   10.4395   16.1903   22.1468 C   0  0  0  0  0  0  0  0  0  0  0  0
    9.0575   15.9121   21.5202 C   0  0  2  0  0  0  0  0  0  0  0  0
    8.0405   15.5109   22.4748 O   0  0  0  0  0  0  0  0  0  0  0  0
    7.7019   14.2045   22.6015 C   0  0  0  0  0  0  0  0  0  0  0  0
    7.1871   13.5081   21.7423 O   0  0  0  0  0  0  0  0  0  0  0  0
    8.1255   13.7113   23.9580 C   0  0  0  0  0  0  0  0  0  0  0  0
    8.0319   12.2084   24.1851 C   0  0  0  0  0  0  0  0  0  0  0  0
    8.8137   11.7972   25.4348 C   0  0  0  0  0  0  0  0  0  0  0  0
    9.0382   12.9312   26.3510 N   0  0  0  0  0  0  0  0  0  0  0  0
   10.4741   13.8172   26.4683 S   0  0  0  0  0  0  0  0  0  0  0  0
   10.6444   14.6741   25.3199 O   0  0  0  0  0  0  0  0  0  0  0  0
   10.3998   14.4142   27.7787 O   0  0  0  0  0  0  0  0  0  0  0  0
   11.7620   12.6757   26.4901 N   0  0  0  0  0  0  0  0  0  0  0  0
   12.2810   12.3293   25.1623 C   0  0  0  0  0  0  0  0  0  0  0  0
   13.3257   11.2172   25.2421 C   0  0  0  0  0  0  0  0  0  0  0  0
   14.4320   11.4144   26.2476 C   0  0  0  0  0  0  0  0  0  0  0  0
   14.2955   12.7639   26.8764 C   0  0  0  0  0  0  0  0  0  0  0  0
   12.8885   13.0161   27.4284 C   0  0  0  0  0  0  0  0  0  0  0  0
    7.7963   13.7692   26.4634 C   0  0  0  0  0  0  0  0  0  0  0  0
    7.4982   14.4653   25.1317 C   0  0  0  0  0  0  0  0  0  0  0  0
  1  2  1  0
  3  2  1  6
  3  4  1  0
  4  5  1  1
  4  6  1  0
  6  7  1  0
  7  8  1  1
  8  9  1  0
  9 10  2  0
  9 11  1  0
 11 12  1  0
 12 13  1  0
 13 14  1  0
 14 15  1  0
 15 16  2  0
 15 17  2  0
 15 18  1  0
 18 19  1  0
 19 20  1  0
 20 21  1  0
 21 22  1  0
 22 23  1  0
 14 24  1  0
 24 25  1  0
  7  3  1  0
 25 11  1  0
 23 18  1  0
M  END
>  <energy_score>  (2258) 
-6.797351

>  <inchikey>  (2258) 
None

>  <smiles>  (2258) 
None

>  <ref_pdb>  (2258) 
A4706a

>  <alias>  (2258) 
None

>  <HIPPO Pose ID>  (2258) 
499902

>  <name>  (2258) 
P499902

>  <HIPPO Compound ID>  (2258) 
314437

>  <ref_mols>  (2258) 
A4706a,A0875a

>  <distance_score>  (2258) 
1.527778

>  <inspiration_score>  (2258) 
None

$$$$
P499903
     RDKit          3D

 25 27  0  0  0  0  0  0  0  0999 V2000
   10.6705   14.9306   18.6687 C   0  0  0  0  0  0  0  0  0  0  0  0
    9.5428   15.1624   19.5055 O   0  0  0  0  0  0  0  0  0  0  0  0
    9.7701   15.5258   20.8814 C   0  0  1  0  0  0  0  0  0  0  0  0
    9.0519   14.6560   21.9865 C   0  0  2  0  0  0  0  0  0  0  0  0
    7.8246   15.0780   22.6699 O   0  0  0  0  0  0  0  0  0  0  0  0
    6.9843   14.0408   22.9938 C   0  0  0  0  0  0  0  0  0  0  0  0
    6.8337   13.0517   22.2757 O   0  0  0  0  0  0  0  0  0  0  0  0
    6.2204   14.1655   24.3372 C   0  0  0  0  0  0  0  0  0  0  0  0
    6.0876   12.7857   25.0518 C   0  0  0  0  0  0  0  0  0  0  0  0
    7.1799   12.3522   26.0544 C   0  0  0  0  0  0  0  0  0  0  0  0
    7.9557   13.5058   26.6069 N   0  0  0  0  0  0  0  0  0  0  0  0
    9.3672   13.8376   25.7488 S   0  0  0  0  0  0  0  0  0  0  0  0
    9.7671   15.1902   26.0477 O   0  0  0  0  0  0  0  0  0  0  0  0
    9.0458   13.4131   24.4160 O   0  0  0  0  0  0  0  0  0  0  0  0
   10.5826   12.7895   26.3100 N   0  0  0  0  0  0  0  0  0  0  0  0
   11.6296   13.5190   27.1207 C   0  0  0  0  0  0  0  0  0  0  0  0
   12.9547   12.7444   27.2252 C   0  0  0  0  0  0  0  0  0  0  0  0
   13.5423   12.3727   25.8684 C   0  0  0  0  0  0  0  0  0  0  0  0
   12.5016   12.5937   24.7939 C   0  0  0  0  0  0  0  0  0  0  0  0
   11.1878   11.9697   25.2127 C   0  0  0  0  0  0  0  0  0  0  0  0
    7.0527   14.6944   26.7169 C   0  0  0  0  0  0  0  0  0  0  0  0
    6.6692   15.2441   25.3324 C   0  0  0  0  0  0  0  0  0  0  0  0
   10.3517   14.9416   22.8090 C   0  0  0  0  0  0  0  0  0  0  0  0
   11.0808   14.9611   21.5058 C   0  0  2  0  0  0  0  0  0  0  0  0
   12.5654   15.8430   21.5096 Cl  0  0  0  0  0  0  0  0  0  0  0  0
  1  2  1  0
  3  2  1  6
  3  4  1  0
  4  5  1  1
  5  6  1  0
  6  7  2  0
  6  8  1  0
  8  9  1  0
  9 10  1  0
 10 11  1  0
 11 12  1  0
 12 13  2  0
 12 14  2  0
 12 15  1  0
 15 16  1  0
 16 17  1  0
 17 18  1  0
 18 19  1  0
 19 20  1  0
 11 21  1  0
 21 22  1  0
  4 23  1  0
 23 24  1  0
 24 25  1  1
 24  3  1  0
 22  8  1  0
 20 15  1  0
M  END
>  <energy_score>  (2259) 
-36.713562

>  <inchikey>  (2259) 
None

>  <smiles>  (2259) 
None

>  <ref_pdb>  (2259) 
A4706a

>  <alias>  (2259) 
None

>  <HIPPO Pose ID>  (2259) 
499903

>  <name>  (2259) 
P499903

>  <HIPPO Compound ID>  (2259) 
314437

>  <ref_mols>  (2259) 
A4706a,A0875a

>  <distance_score>  (2259) 
1.467582

>  <inspiration_score>  (2259) 
None

$$$$
P499904
     RDKit          3D

 25 27  0  0  0  0  0  0  0  0999 V2000
   11.0049   14.9715   18.6791 C   0  0  0  0  0  0  0  0  0  0  0  0
    9.9673   15.4619   19.5180 O   0  0  0  0  0  0  0  0  0  0  0  0
    9.6215   14.5878   20.6147 C   0  0  2  0  0  0  0  0  0  0  0  0
    8.2961   14.8849   21.3893 C   0  0  1  0  0  0  0  0  0  0  0  0
    7.6558   13.7135   21.9645 O   0  0  0  0  0  0  0  0  0  0  0  0
    6.6214   13.9659   22.8256 C   0  0  0  0  0  0  0  0  0  0  0  0
    5.5435   14.4274   22.5046 O   0  0  0  0  0  0  0  0  0  0  0  0
    7.0852   13.6336   24.2179 C   0  0  0  0  0  0  0  0  0  0  0  0
    7.7798   12.2684   24.3233 C   0  0  0  0  0  0  0  0  0  0  0  0
    8.1959   11.9221   25.7389 C   0  0  0  0  0  0  0  0  0  0  0  0
    8.3670   13.1475   26.5146 N   0  0  0  0  0  0  0  0  0  0  0  0
    9.7343   14.1079   26.2723 S   0  0  0  0  0  0  0  0  0  0  0  0
    9.8056   14.5870   24.9182 O   0  0  0  0  0  0  0  0  0  0  0  0
    9.7475   15.0451   27.3657 O   0  0  0  0  0  0  0  0  0  0  0  0
   11.0467   13.0113   26.4489 N   0  0  0  0  0  0  0  0  0  0  0  0
   11.6787   12.6836   25.1269 C   0  0  0  0  0  0  0  0  0  0  0  0
   12.8418   11.7280   25.3194 C   0  0  0  0  0  0  0  0  0  0  0  0
   13.9001   12.2627   26.2510 C   0  0  0  0  0  0  0  0  0  0  0  0
   13.2907   12.7399   27.5468 C   0  0  0  0  0  0  0  0  0  0  0  0
   12.0476   13.6056   27.3776 C   0  0  0  0  0  0  0  0  0  0  0  0
    7.0595   13.8972   26.6779 C   0  0  0  0  0  0  0  0  0  0  0  0
    6.1746   13.8231   25.4124 C   0  0  0  0  0  0  0  0  0  0  0  0
    9.1930   15.7549   22.2806 C   0  0  0  0  0  0  0  0  0  0  0  0
   10.3484   14.8028   21.9587 C   0  0  2  0  0  0  0  0  0  0  0  0
   12.0040   15.4172   22.0318 Cl  0  0  0  0  0  0  0  0  0  0  0  0
  1  2  1  0
  3  2  1  6
  3  4  1  0
  4  5  1  1
  5  6  1  0
  6  7  2  0
  6  8  1  0
  8  9  1  0
  9 10  1  0
 10 11  1  0
 11 12  1  0
 12 13  2  0
 12 14  2  0
 12 15  1  0
 15 16  1  0
 16 17  1  0
 17 18  1  0
 18 19  1  0
 19 20  1  0
 11 21  1  0
 21 22  1  0
  4 23  1  0
 23 24  1  0
 24 25  1  6
 24  3  1  0
 22  8  1  0
 20 15  1  0
M  END
>  <energy_score>  (2260) 
-41.971431

>  <inchikey>  (2260) 
None

>  <smiles>  (2260) 
None

>  <ref_pdb>  (2260) 
A4706a

>  <alias>  (2260) 
None

>  <HIPPO Pose ID>  (2260) 
499904

>  <name>  (2260) 
P499904

>  <HIPPO Compound ID>  (2260) 
314437

>  <ref_mols>  (2260) 
A0875a,A4706a

>  <distance_score>  (2260) 
1.774384

>  <inspiration_score>  (2260) 
None

$$$$
P499905
     RDKit          3D

 25 27  0  0  0  0  0  0  0  0999 V2000
   10.2313   15.3571   18.8050 C   0  0  0  0  0  0  0  0  0  0  0  0
    9.9258   16.2775   19.8468 O   0  0  0  0  0  0  0  0  0  0  0  0
    9.8043   15.8313   21.2296 C   0  0  2  0  0  0  0  0  0  0  0  0
   10.7788   14.7046   21.6484 C   0  0  1  0  0  0  0  0  0  0  0  0
   11.8202   14.7843   23.0844 Cl  0  0  0  0  0  0  0  0  0  0  0  0
    9.5898   13.7623   21.6616 C   0  0  0  0  0  0  0  0  0  0  0  0
    8.5893   14.9140   21.5634 C   0  0  1  0  0  0  0  0  0  0  0  0
    7.7371   15.1241   22.7300 O   0  0  0  0  0  0  0  0  0  0  0  0
    6.9236   14.0618   22.9919 C   0  0  0  0  0  0  0  0  0  0  0  0
    6.8014   13.1044   22.2226 O   0  0  0  0  0  0  0  0  0  0  0  0
    6.1433   14.0820   24.3090 C   0  0  0  0  0  0  0  0  0  0  0  0
    6.1893   12.6673   24.9316 C   0  0  0  0  0  0  0  0  0  0  0  0
    7.5360   12.3404   25.5728 C   0  0  0  0  0  0  0  0  0  0  0  0
    8.0238   13.4442   26.4338 N   0  0  0  0  0  0  0  0  0  0  0  0
    9.4780   14.1866   25.9965 S   0  0  0  0  0  0  0  0  0  0  0  0
    9.4246   14.4232   24.5830 O   0  0  0  0  0  0  0  0  0  0  0  0
    9.6474   15.2827   26.9193 O   0  0  0  0  0  0  0  0  0  0  0  0
   10.7054   13.0568   26.3207 N   0  0  0  0  0  0  0  0  0  0  0  0
   11.9061   13.7582   26.8492 C   0  0  0  0  0  0  0  0  0  0  0  0
   13.2578   13.1557   26.5071 C   0  0  0  0  0  0  0  0  0  0  0  0
   13.2165   11.6878   26.5020 C   0  0  0  0  0  0  0  0  0  0  0  0
   12.2861   11.3249   25.3837 C   0  0  0  0  0  0  0  0  0  0  0  0
   10.9058   11.9797   25.3383 C   0  0  0  0  0  0  0  0  0  0  0  0
    6.9563   14.4674   26.6908 C   0  0  0  0  0  0  0  0  0  0  0  0
    6.5107   15.1202   25.3739 C   0  0  0  0  0  0  0  0  0  0  0  0
  1  2  1  0
  3  2  1  6
  3  4  1  0
  4  5  1  1
  4  6  1  0
  6  7  1  0
  7  8  1  1
  8  9  1  0
  9 10  2  0
  9 11  1  0
 11 12  1  0
 12 13  1  0
 13 14  1  0
 14 15  1  0
 15 16  2  0
 15 17  2  0
 15 18  1  0
 18 19  1  0
 19 20  1  0
 20 21  1  0
 21 22  1  0
 22 23  1  0
 14 24  1  0
 24 25  1  0
  7  3  1  0
 25 11  1  0
 23 18  1  0
M  END
>  <energy_score>  (2261) 
-33.120199

>  <inchikey>  (2261) 
None

>  <smiles>  (2261) 
None

>  <ref_pdb>  (2261) 
A4706a

>  <alias>  (2261) 
None

>  <HIPPO Pose ID>  (2261) 
499905

>  <name>  (2261) 
P499905

>  <HIPPO Compound ID>  (2261) 
314437

>  <ref_mols>  (2261) 
A4706a,A0875a

>  <distance_score>  (2261) 
1.677324

>  <inspiration_score>  (2261) 
None

$$$$
P499906
     RDKit          3D

 25 27  0  0  0  0  0  0  0  0999 V2000
   11.2194   14.8993   18.6636 C   0  0  0  0  0  0  0  0  0  0  0  0
    9.9020   14.7816   19.1630 O   0  0  0  0  0  0  0  0  0  0  0  0
    9.7613   14.7052   20.5941 C   0  0  1  0  0  0  0  0  0  0  0  0
   10.0436   16.0345   21.2803 C   0  0  2  0  0  0  0  0  0  0  0  0
   11.5371   15.9980   22.2148 Cl  0  0  0  0  0  0  0  0  0  0  0  0
    8.6638   15.9908   21.9308 C   0  0  0  0  0  0  0  0  0  0  0  0
    8.3274   14.7007   21.1770 C   0  0  2  0  0  0  0  0  0  0  0  0
    7.9287   13.6002   22.0275 O   0  0  0  0  0  0  0  0  0  0  0  0
    6.7053   13.7887   22.6229 C   0  0  0  0  0  0  0  0  0  0  0  0
    5.6698   14.0251   22.0287 O   0  0  0  0  0  0  0  0  0  0  0  0
    6.8952   13.6813   24.1072 C   0  0  0  0  0  0  0  0  0  0  0  0
    7.1040   12.2672   24.6319 C   0  0  0  0  0  0  0  0  0  0  0  0
    7.3523   12.2460   26.1372 C   0  0  0  0  0  0  0  0  0  0  0  0
    7.5997   13.6090   26.6576 N   0  0  0  0  0  0  0  0  0  0  0  0
    9.0844   14.4009   26.3902 S   0  0  0  0  0  0  0  0  0  0  0  0
    8.8171   15.5908   25.6309 O   0  0  0  0  0  0  0  0  0  0  0  0
    9.8066   14.4939   27.6255 O   0  0  0  0  0  0  0  0  0  0  0  0
    9.9228   13.3205   25.4122 N   0  0  0  0  0  0  0  0  0  0  0  0
   10.6519   12.2851   26.1369 C   0  0  0  0  0  0  0  0  0  0  0  0
   12.1222   12.6259   26.2976 C   0  0  0  0  0  0  0  0  0  0  0  0
   12.7740   12.6475   24.9370 C   0  0  0  0  0  0  0  0  0  0  0  0
   11.7580   12.9761   23.8431 C   0  0  0  0  0  0  0  0  0  0  0  0
   10.7214   13.9466   24.3536 C   0  0  0  0  0  0  0  0  0  0  0  0
    6.3878   14.4674   26.4582 C   0  0  0  0  0  0  0  0  0  0  0  0
    5.9254   14.4576   24.9880 C   0  0  0  0  0  0  0  0  0  0  0  0
  1  2  1  0
  3  2  1  6
  3  4  1  0
  4  5  1  1
  4  6  1  0
  6  7  1  0
  7  8  1  1
  8  9  1  0
  9 10  2  0
  9 11  1  0
 11 12  1  0
 12 13  1  0
 13 14  1  0
 14 15  1  0
 15 16  2  0
 15 17  2  0
 15 18  1  0
 18 19  1  0
 19 20  1  0
 20 21  1  0
 21 22  1  0
 22 23  1  0
 14 24  1  0
 24 25  1  0
  7  3  1  0
 25 11  1  0
 23 18  1  0
M  END
>  <energy_score>  (2262) 
-32.866023

>  <inchikey>  (2262) 
None

>  <smiles>  (2262) 
None

>  <ref_pdb>  (2262) 
A4706a

>  <alias>  (2262) 
None

>  <HIPPO Pose ID>  (2262) 
499906

>  <name>  (2262) 
P499906

>  <HIPPO Compound ID>  (2262) 
314437

>  <ref_mols>  (2262) 
A0875a,A4706a

>  <distance_score>  (2262) 
1.749287

>  <inspiration_score>  (2262) 
None

$$$$
P499907
     RDKit          3D

 25 27  0  0  0  0  0  0  0  0999 V2000
   10.2066   15.3656   18.6972 C   0  0  0  0  0  0  0  0  0  0  0  0
    9.8429   16.3026   19.7033 O   0  0  0  0  0  0  0  0  0  0  0  0
    9.7285   15.8884   21.0919 C   0  0  2  0  0  0  0  0  0  0  0  0
   10.7464   14.8161   21.5300 C   0  0  1  0  0  0  0  0  0  0  0  0
   11.7443   15.0272   22.9684 Cl  0  0  0  0  0  0  0  0  0  0  0  0
    9.6002   13.8150   21.5268 C   0  0  0  0  0  0  0  0  0  0  0  0
    8.5561   14.9280   21.4554 C   0  0  1  0  0  0  0  0  0  0  0  0
    7.7523   15.0986   22.6565 O   0  0  0  0  0  0  0  0  0  0  0  0
    6.9192   14.0446   22.8927 C   0  0  0  0  0  0  0  0  0  0  0  0
    6.5693   13.2443   22.0222 O   0  0  0  0  0  0  0  0  0  0  0  0
    6.5028   13.8086   24.3464 C   0  0  0  0  0  0  0  0  0  0  0  0
    7.1166   12.4282   24.7250 C   0  0  0  0  0  0  0  0  0  0  0  0
    7.7056   12.2711   26.1115 C   0  0  0  0  0  0  0  0  0  0  0  0
    8.3304   13.5147   26.5802 N   0  0  0  0  0  0  0  0  0  0  0  0
    9.7342   14.0980   25.8305 S   0  0  0  0  0  0  0  0  0  0  0  0
    9.4471   14.1842   24.4288 O   0  0  0  0  0  0  0  0  0  0  0  0
   10.1191   15.2647   26.5831 O   0  0  0  0  0  0  0  0  0  0  0  0
   10.8856   12.8906   26.0426 N   0  0  0  0  0  0  0  0  0  0  0  0
   11.0293   11.8978   24.9481 C   0  0  0  0  0  0  0  0  0  0  0  0
   12.1568   10.9596   25.3569 C   0  0  0  0  0  0  0  0  0  0  0  0
   13.5352   11.5434   25.3522 C   0  0  0  0  0  0  0  0  0  0  0  0
   13.4065   12.9959   25.7546 C   0  0  0  0  0  0  0  0  0  0  0  0
   12.1879   13.3008   26.6550 C   0  0  0  0  0  0  0  0  0  0  0  0
    7.2603   14.5520   26.6962 C   0  0  0  0  0  0  0  0  0  0  0  0
    6.7596   14.9724   25.3171 C   0  0  0  0  0  0  0  0  0  0  0  0
  1  2  1  0
  3  2  1  6
  3  4  1  0
  4  5  1  1
  4  6  1  0
  6  7  1  0
  7  8  1  1
  8  9  1  0
  9 10  2  0
  9 11  1  0
 11 12  1  0
 12 13  1  0
 13 14  1  0
 14 15  1  0
 15 16  2  0
 15 17  2  0
 15 18  1  0
 18 19  1  0
 19 20  1  0
 20 21  1  0
 21 22  1  0
 22 23  1  0
 14 24  1  0
 24 25  1  0
  7  3  1  0
 25 11  1  0
 23 18  1  0
M  END
>  <energy_score>  (2263) 
-24.897343

>  <inchikey>  (2263) 
None

>  <smiles>  (2263) 
None

>  <ref_pdb>  (2263) 
A4706a

>  <alias>  (2263) 
None

>  <HIPPO Pose ID>  (2263) 
499907

>  <name>  (2263) 
P499907

>  <HIPPO Compound ID>  (2263) 
314437

>  <ref_mols>  (2263) 
A4706a,A0875a

>  <distance_score>  (2263) 
1.315048

>  <inspiration_score>  (2263) 
None

$$$$
P499908
     RDKit          3D

 25 27  0  0  0  0  0  0  0  0999 V2000
   10.8976   14.9603   18.6463 C   0  0  0  0  0  0  0  0  0  0  0  0
    9.7157   15.3632   19.3306 O   0  0  0  0  0  0  0  0  0  0  0  0
    9.5931   14.8255   20.6594 C   0  0  1  0  0  0  0  0  0  0  0  0
   10.3811   15.6304   21.7274 C   0  0  2  0  0  0  0  0  0  0  0  0
   11.9628   15.0638   22.2719 Cl  0  0  0  0  0  0  0  0  0  0  0  0
    9.2673   15.2495   22.6585 C   0  0  0  0  0  0  0  0  0  0  0  0
    8.2906   15.1192   21.5017 C   0  0  2  0  0  0  0  0  0  0  0  0
    7.3084   14.0465   21.6647 O   0  0  0  0  0  0  0  0  0  0  0  0
    6.3062   14.2786   22.5835 C   0  0  0  0  0  0  0  0  0  0  0  0
    5.1631   14.5547   22.2505 O   0  0  0  0  0  0  0  0  0  0  0  0
    6.7407   14.0494   24.0265 C   0  0  0  0  0  0  0  0  0  0  0  0
    6.3691   12.7076   24.6633 C   0  0  0  0  0  0  0  0  0  0  0  0
    7.0974   12.4936   26.0028 C   0  0  0  0  0  0  0  0  0  0  0  0
    7.7838   13.7242   26.4045 N   0  0  0  0  0  0  0  0  0  0  0  0
    9.4239   14.0224   26.3286 S   0  0  0  0  0  0  0  0  0  0  0  0
    9.6849   15.0334   25.3379 O   0  0  0  0  0  0  0  0  0  0  0  0
    9.8485   14.2596   27.6850 O   0  0  0  0  0  0  0  0  0  0  0  0
   10.1925   12.6178   25.8152 N   0  0  0  0  0  0  0  0  0  0  0  0
    9.9704   12.1185   24.4408 C   0  0  0  0  0  0  0  0  0  0  0  0
   10.1727   10.6160   24.4943 C   0  0  0  0  0  0  0  0  0  0  0  0
   11.4870   10.2733   25.1939 C   0  0  0  0  0  0  0  0  0  0  0  0
   12.3930   11.4950   25.4916 C   0  0  0  0  0  0  0  0  0  0  0  0
   11.6571   12.6868   26.0948 C   0  0  0  0  0  0  0  0  0  0  0  0
    6.8865   14.9054   26.4063 C   0  0  0  0  0  0  0  0  0  0  0  0
    6.3885   15.1900   24.9806 C   0  0  0  0  0  0  0  0  0  0  0  0
  1  2  1  0
  3  2  1  6
  3  4  1  0
  4  5  1  1
  4  6  1  0
  6  7  1  0
  7  8  1  1
  8  9  1  0
  9 10  2  0
  9 11  1  0
 11 12  1  0
 12 13  1  0
 13 14  1  0
 14 15  1  0
 15 16  2  0
 15 17  2  0
 15 18  1  0
 18 19  1  0
 19 20  1  0
 20 21  1  0
 21 22  1  0
 22 23  1  0
 14 24  1  0
 24 25  1  0
  7  3  1  0
 25 11  1  0
 23 18  1  0
M  END
>  <energy_score>  (2264) 
-35.441697

>  <inchikey>  (2264) 
None

>  <smiles>  (2264) 
None

>  <ref_pdb>  (2264) 
A4706a

>  <alias>  (2264) 
None

>  <HIPPO Pose ID>  (2264) 
499908

>  <name>  (2264) 
P499908

>  <HIPPO Compound ID>  (2264) 
314437

>  <ref_mols>  (2264) 
A4706a,A0875a

>  <distance_score>  (2264) 
1.710397

>  <inspiration_score>  (2264) 
None

$$$$
P499909
     RDKit          3D

 25 27  0  0  0  0  0  0  0  0999 V2000
    9.1771   17.7744   20.5299 C   0  0  0  0  0  0  0  0  0  0  0  0
    9.4542   16.4934   21.2468 C   0  0  1  0  0  0  0  0  0  0  0  0
    9.0955   15.4425   20.3663 O   0  0  0  0  0  0  0  0  0  0  0  0
    9.7312   14.2360   20.7377 C   0  0  0  0  0  0  0  0  0  0  0  0
   10.0005   14.1406   22.2265 C   0  0  2  0  0  0  0  0  0  0  0  0
    8.7321   14.3282   22.9524 O   0  0  0  0  0  0  0  0  0  0  0  0
    7.9874   13.2380   23.2418 C   0  0  0  0  0  0  0  0  0  0  0  0
    8.3639   12.0932   23.0157 O   0  0  0  0  0  0  0  0  0  0  0  0
    6.6185   13.5056   23.8814 C   0  0  0  0  0  0  0  0  0  0  0  0
    6.3989   12.5236   25.0726 C   0  0  0  0  0  0  0  0  0  0  0  0
    7.1738   12.9326   26.3423 C   0  0  0  0  0  0  0  0  0  0  0  0
    8.0070   14.0714   25.9480 N   0  0  0  0  0  0  0  0  0  0  0  0
    9.4722   14.4477   26.6183 S   0  0  0  0  0  0  0  0  0  0  0  0
    9.2663   14.7686   28.0031 O   0  0  0  0  0  0  0  0  0  0  0  0
   10.1082   15.3764   25.7137 O   0  0  0  0  0  0  0  0  0  0  0  0
   10.3999   13.0360   26.5542 N   0  0  0  0  0  0  0  0  0  0  0  0
   11.8358   13.3282   26.8692 C   0  0  0  0  0  0  0  0  0  0  0  0
   12.7500   13.0711   25.6898 C   0  0  0  0  0  0  0  0  0  0  0  0
   12.6236   11.6341   25.2625 C   0  0  0  0  0  0  0  0  0  0  0  0
   11.1637   11.1876   25.1037 C   0  0  0  0  0  0  0  0  0  0  0  0
   10.2031   12.3031   25.3146 C   0  0  0  0  0  0  0  0  0  0  0  0
    7.1498   15.2415   25.6462 C   0  0  0  0  0  0  0  0  0  0  0  0
    6.4042   14.9469   24.3508 C   0  0  0  0  0  0  0  0  0  0  0  0
   10.9652   15.2809   22.5495 C   0  0  0  0  0  0  0  0  0  0  0  0
   10.8156   16.3684   21.6344 O   0  0  0  0  0  0  0  0  0  0  0  0
  2  1  1  6
  2  3  1  0
  3  4  1  0
  4  5  1  0
  5  6  1  1
  6  7  1  0
  7  8  2  0
  7  9  1  0
  9 10  1  0
 10 11  1  0
 11 12  1  0
 12 13  1  0
 13 14  2  0
 13 15  2  0
 13 16  1  0
 16 17  1  0
 17 18  1  0
 18 19  1  0
 19 20  1  0
 20 21  1  0
 12 22  1  0
 22 23  1  0
  5 24  1  0
 24 25  1  0
 25  2  1  0
 23  9  1  0
 21 16  1  0
M  END
>  <energy_score>  (2265) 
-52.565031

>  <inchikey>  (2265) 
None

>  <smiles>  (2265) 
None

>  <ref_pdb>  (2265) 
A4706a

>  <alias>  (2265) 
None

>  <HIPPO Pose ID>  (2265) 
499909

>  <name>  (2265) 
P499909

>  <HIPPO Compound ID>  (2265) 
314438

>  <ref_mols>  (2265) 
A4706a,A0875a

>  <distance_score>  (2265) 
1.808623

>  <inspiration_score>  (2265) 
None

$$$$
P499910
     RDKit          3D

 25 27  0  0  0  0  0  0  0  0999 V2000
    9.4148   17.3807   20.6867 C   0  0  0  0  0  0  0  0  0  0  0  0
   10.1005   16.0299   20.6466 C   0  0  2  0  0  0  0  0  0  0  0  0
    9.2391   15.0761   20.0423 O   0  0  0  0  0  0  0  0  0  0  0  0
    8.1628   14.7900   20.9037 C   0  0  0  0  0  0  0  0  0  0  0  0
    8.6445   14.1727   22.1798 C   0  0  2  0  0  0  0  0  0  0  0  0
    7.8185   14.6956   23.2563 O   0  0  0  0  0  0  0  0  0  0  0  0
    6.6350   14.0254   23.4230 C   0  0  0  0  0  0  0  0  0  0  0  0
    6.1564   13.2776   22.5705 O   0  0  0  0  0  0  0  0  0  0  0  0
    5.9974   14.1928   24.8172 C   0  0  0  0  0  0  0  0  0  0  0  0
    5.7979   12.8128   25.4973 C   0  0  0  0  0  0  0  0  0  0  0  0
    6.8896   12.3051   26.4577 C   0  0  0  0  0  0  0  0  0  0  0  0
    7.9788   13.2961   26.6451 N   0  0  0  0  0  0  0  0  0  0  0  0
    9.1390   13.2970   25.4373 S   0  0  0  0  0  0  0  0  0  0  0  0
    8.5327   12.5458   24.3644 O   0  0  0  0  0  0  0  0  0  0  0  0
    9.6444   14.6393   25.2980 O   0  0  0  0  0  0  0  0  0  0  0  0
   10.3839   12.2989   25.9629 N   0  0  0  0  0  0  0  0  0  0  0  0
   10.5241   11.1367   25.0145 C   0  0  0  0  0  0  0  0  0  0  0  0
   11.7529   10.3089   25.2922 C   0  0  0  0  0  0  0  0  0  0  0  0
   13.0370   11.1654   25.4325 C   0  0  0  0  0  0  0  0  0  0  0  0
   12.7507   12.6530   25.3247 C   0  0  0  0  0  0  0  0  0  0  0  0
   11.6514   13.0039   26.3079 C   0  0  0  0  0  0  0  0  0  0  0  0
    7.3895   14.6232   26.9544 C   0  0  0  0  0  0  0  0  0  0  0  0
    6.6430   15.2192   25.7578 C   0  0  0  0  0  0  0  0  0  0  0  0
   10.1633   14.3845   22.3046 C   0  0  0  0  0  0  0  0  0  0  0  0
   10.5251   15.7070   21.9662 O   0  0  0  0  0  0  0  0  0  0  0  0
  2  1  1  1
  2  3  1  0
  3  4  1  0
  4  5  1  0
  5  6  1  1
  6  7  1  0
  7  8  2  0
  7  9  1  0
  9 10  1  0
 10 11  1  0
 11 12  1  0
 12 13  1  0
 13 14  2  0
 13 15  2  0
 13 16  1  0
 16 17  1  0
 17 18  1  0
 18 19  1  0
 19 20  1  0
 20 21  1  0
 12 22  1  0
 22 23  1  0
  5 24  1  0
 24 25  1  0
 25  2  1  0
 23  9  1  0
 21 16  1  0
M  END
>  <energy_score>  (2266) 
-24.93249

>  <inchikey>  (2266) 
None

>  <smiles>  (2266) 
None

>  <ref_pdb>  (2266) 
A4706a

>  <alias>  (2266) 
None

>  <HIPPO Pose ID>  (2266) 
499910

>  <name>  (2266) 
P499910

>  <HIPPO Compound ID>  (2266) 
314438

>  <ref_mols>  (2266) 
A0875a,A4706a

>  <distance_score>  (2266) 
1.635168

>  <inspiration_score>  (2266) 
None

$$$$
P499911
     RDKit          3D

 25 27  0  0  0  0  0  0  0  0999 V2000
    6.1137   15.3222   22.2553 O   0  0  0  0  0  0  0  0  0  0  0  0
    6.7710   14.7150   23.0931 C   0  0  0  0  0  0  0  0  0  0  0  0
    8.1286   14.5828   23.0671 O   0  0  0  0  0  0  0  0  0  0  0  0
    8.8380   15.4364   22.1252 C   0  0  2  0  0  0  0  0  0  0  0  0
    8.7680   14.7929   20.7520 C   0  0  0  0  0  0  0  0  0  0  0  0
    9.8073   15.3306   19.7734 C   0  0  0  0  0  0  0  0  0  0  0  0
   11.1926   14.7577   20.0424 C   0  0  0  0  0  0  0  0  0  0  0  0
   11.3143   14.0049   21.3597 C   0  0  0  0  0  0  0  0  0  0  0  0
   11.3195   14.8163   22.5059 O   0  0  0  0  0  0  0  0  0  0  0  0
   10.2833   15.7794   22.5792 C   0  0  0  0  0  0  0  0  0  0  0  0
    6.0997   14.0427   24.2916 C   0  0  0  0  0  0  0  0  0  0  0  0
    6.6522   12.6446   24.6017 C   0  0  0  0  0  0  0  0  0  0  0  0
    7.2446   12.3932   25.9776 C   0  0  0  0  0  0  0  0  0  0  0  0
    7.5781   13.6219   26.6822 N   0  0  0  0  0  0  0  0  0  0  0  0
    9.0241   14.4514   26.5275 S   0  0  0  0  0  0  0  0  0  0  0  0
    9.2923   14.9977   27.8328 O   0  0  0  0  0  0  0  0  0  0  0  0
    8.9647   15.3174   25.3826 O   0  0  0  0  0  0  0  0  0  0  0  0
   10.1839   13.2904   26.2227 N   0  0  0  0  0  0  0  0  0  0  0  0
   10.2262   12.8286   24.8371 C   0  0  0  0  0  0  0  0  0  0  0  0
   10.9063   11.5015   24.9075 C   0  0  0  0  0  0  0  0  0  0  0  0
   12.3830   11.7301   25.2531 C   0  0  0  0  0  0  0  0  0  0  0  0
   12.6711   13.0614   25.9114 C   0  0  0  0  0  0  0  0  0  0  0  0
   11.5340   13.6851   26.7087 C   0  0  0  0  0  0  0  0  0  0  0  0
    6.3898   14.4865   26.8164 C   0  0  0  0  0  0  0  0  0  0  0  0
    5.9865   15.0361   25.4564 C   0  0  0  0  0  0  0  0  0  0  0  0
  1  2  2  0
  2  3  1  0
  4  3  1  1
  4  5  1  0
  5  6  1  0
  6  7  1  0
  7  8  1  0
  8  9  1  0
  9 10  1  0
  2 11  1  0
 11 12  1  0
 12 13  1  0
 13 14  1  0
 14 15  1  0
 15 16  2  0
 15 17  2  0
 15 18  1  0
 18 19  1  0
 19 20  1  0
 20 21  1  0
 21 22  1  0
 22 23  1  0
 14 24  1  0
 24 25  1  0
 10  4  1  0
 25 11  1  0
 23 18  1  0
M  END
>  <energy_score>  (2267) 
-32.967841

>  <inchikey>  (2267) 
None

>  <smiles>  (2267) 
None

>  <ref_pdb>  (2267) 
A4706a

>  <alias>  (2267) 
None

>  <HIPPO Pose ID>  (2267) 
499911

>  <name>  (2267) 
P499911

>  <HIPPO Compound ID>  (2267) 
314439

>  <ref_mols>  (2267) 
A4706a,A0875a

>  <distance_score>  (2267) 
1.650167

>  <inspiration_score>  (2267) 
None

$$$$
P499912
     RDKit          3D

 25 27  0  0  0  0  0  0  0  0999 V2000
    6.4543   12.9953   22.4846 O   0  0  0  0  0  0  0  0  0  0  0  0
    6.5707   13.9621   23.2400 C   0  0  0  0  0  0  0  0  0  0  0  0
    7.3611   15.0226   22.9550 O   0  0  0  0  0  0  0  0  0  0  0  0
    8.2266   14.8165   21.8114 C   0  0  1  0  0  0  0  0  0  0  0  0
    8.8620   16.1210   21.3664 C   0  0  0  0  0  0  0  0  0  0  0  0
    9.8305   15.8849   20.2034 C   0  0  0  0  0  0  0  0  0  0  0  0
   11.2471   15.6100   20.6905 C   0  0  0  0  0  0  0  0  0  0  0  0
   11.5165   14.4489   21.6129 C   0  0  0  0  0  0  0  0  0  0  0  0
   10.5354   14.2536   22.6036 O   0  0  0  0  0  0  0  0  0  0  0  0
    9.3163   13.7578   22.0682 C   0  0  0  0  0  0  0  0  0  0  0  0
    5.8515   13.9969   24.5894 C   0  0  0  0  0  0  0  0  0  0  0  0
    5.9921   12.6048   25.2305 C   0  0  0  0  0  0  0  0  0  0  0  0
    7.4170   12.3555   25.7032 C   0  0  0  0  0  0  0  0  0  0  0  0
    7.9319   13.4417   26.5656 N   0  0  0  0  0  0  0  0  0  0  0  0
    9.3728   14.2141   26.1419 S   0  0  0  0  0  0  0  0  0  0  0  0
    9.6631   15.1338   27.2148 O   0  0  0  0  0  0  0  0  0  0  0  0
    9.2222   14.7118   24.8058 O   0  0  0  0  0  0  0  0  0  0  0  0
   10.6367   13.0792   26.1542 N   0  0  0  0  0  0  0  0  0  0  0  0
   10.5334   11.9075   25.2684 C   0  0  0  0  0  0  0  0  0  0  0  0
   11.8186   11.1134   25.3835 C   0  0  0  0  0  0  0  0  0  0  0  0
   12.9772   11.8994   24.8657 C   0  0  0  0  0  0  0  0  0  0  0  0
   13.1741   13.0061   25.8515 C   0  0  0  0  0  0  0  0  0  0  0  0
   11.9060   13.8569   25.9166 C   0  0  0  0  0  0  0  0  0  0  0  0
    6.8695   14.4527   26.8895 C   0  0  0  0  0  0  0  0  0  0  0  0
    6.2753   15.0615   25.6097 C   0  0  0  0  0  0  0  0  0  0  0  0
  1  2  2  0
  2  3  1  0
  4  3  1  1
  4  5  1  0
  5  6  1  0
  6  7  1  0
  7  8  1  0
  8  9  1  0
  9 10  1  0
  2 11  1  0
 11 12  1  0
 12 13  1  0
 13 14  1  0
 14 15  1  0
 15 16  2  0
 15 17  2  0
 15 18  1  0
 18 19  1  0
 19 20  1  0
 20 21  1  0
 21 22  1  0
 22 23  1  0
 14 24  1  0
 24 25  1  0
 10  4  1  0
 25 11  1  0
 23 18  1  0
M  END
>  <energy_score>  (2268) 
-48.204621

>  <inchikey>  (2268) 
None

>  <smiles>  (2268) 
None

>  <ref_pdb>  (2268) 
A4706a

>  <alias>  (2268) 
None

>  <HIPPO Pose ID>  (2268) 
499912

>  <name>  (2268) 
P499912

>  <HIPPO Compound ID>  (2268) 
314439

>  <ref_mols>  (2268) 
A4706a,A0875a

>  <distance_score>  (2268) 
1.684261

>  <inspiration_score>  (2268) 
None

$$$$
P499913
     RDKit          3D

 25 28  0  0  0  0  0  0  0  0999 V2000
    5.9589   14.0422   22.2622 O   0  0  0  0  0  0  0  0  0  0  0  0
    6.6145   13.8680   23.2829 C   0  0  0  0  0  0  0  0  0  0  0  0
    7.9701   13.9915   23.3521 O   0  0  0  0  0  0  0  0  0  0  0  0
    8.5437   14.8703   22.3533 C   0  0  2  0  0  0  0  0  0  0  0  0
    8.6860   14.1767   21.0128 C   0  0  0  0  0  0  0  0  0  0  0  0
    9.0166   15.0247   19.9350 O   0  0  0  0  0  0  0  0  0  0  0  0
   10.0698   15.9425   20.1728 C   0  0  1  0  0  0  0  0  0  0  0  0
    9.5990   17.1849   20.8821 C   0  0  0  0  0  0  0  0  0  0  0  0
   10.5033   16.1937   21.5797 C   0  0  1  0  0  0  0  0  0  0  0  0
    9.9768   15.3298   22.6704 C   0  0  0  0  0  0  0  0  0  0  0  0
    5.9535   13.4829   24.5999 C   0  0  0  0  0  0  0  0  0  0  0  0
    6.4553   12.1419   25.1540 C   0  0  0  0  0  0  0  0  0  0  0  0
    7.3246   12.1734   26.3995 C   0  0  0  0  0  0  0  0  0  0  0  0
    7.7232   13.5218   26.7338 N   0  0  0  0  0  0  0  0  0  0  0  0
    9.1655   14.2660   26.4078 S   0  0  0  0  0  0  0  0  0  0  0  0
    9.6605   14.7186   27.6848 O   0  0  0  0  0  0  0  0  0  0  0  0
    8.9494   15.2321   25.3680 O   0  0  0  0  0  0  0  0  0  0  0  0
   10.2705   13.1485   25.8660 N   0  0  0  0  0  0  0  0  0  0  0  0
   11.6482   13.7292   25.8343 C   0  0  0  0  0  0  0  0  0  0  0  0
   12.6203   12.8096   25.0992 C   0  0  0  0  0  0  0  0  0  0  0  0
   12.2707   11.3742   25.4420 C   0  0  0  0  0  0  0  0  0  0  0  0
   10.8049   11.0240   25.0333 C   0  0  0  0  0  0  0  0  0  0  0  0
   10.0367   12.2921   24.7040 C   0  0  0  0  0  0  0  0  0  0  0  0
    6.5690   14.4143   26.9129 C   0  0  0  0  0  0  0  0  0  0  0  0
    5.9294   14.6801   25.5603 C   0  0  0  0  0  0  0  0  0  0  0  0
  1  2  2  0
  2  3  1  0
  4  3  1  1
  4  5  1  0
  5  6  1  0
  6  7  1  0
  7  8  1  1
  9  8  1  1
  9 10  1  0
  2 11  1  0
 11 12  1  0
 12 13  1  0
 13 14  1  0
 14 15  1  0
 15 16  2  0
 15 17  2  0
 15 18  1  0
 18 19  1  0
 19 20  1  0
 20 21  1  0
 21 22  1  0
 22 23  1  0
 14 24  1  0
 24 25  1  0
 10  4  1  0
 25 11  1  0
  9  7  1  0
 23 18  1  0
M  END
>  <energy_score>  (2269) 
-28.978771

>  <inchikey>  (2269) 
None

>  <smiles>  (2269) 
None

>  <ref_pdb>  (2269) 
A4706a

>  <alias>  (2269) 
None

>  <HIPPO Pose ID>  (2269) 
499913

>  <name>  (2269) 
P499913

>  <HIPPO Compound ID>  (2269) 
314440

>  <ref_mols>  (2269) 
A0875a,A4706a

>  <distance_score>  (2269) 
1.654832

>  <inspiration_score>  (2269) 
None

$$$$
P499914
     RDKit          3D

 25 28  0  0  0  0  0  0  0  0999 V2000
    7.0250   15.0016   21.9589 O   0  0  0  0  0  0  0  0  0  0  0  0
    7.4080   14.2153   22.8123 C   0  0  0  0  0  0  0  0  0  0  0  0
    8.6379   13.6380   22.8385 O   0  0  0  0  0  0  0  0  0  0  0  0
    9.7883   14.2331   22.1259 C   0  0  1  0  0  0  0  0  0  0  0  0
    9.7715   14.1126   20.6229 C   0  0  0  0  0  0  0  0  0  0  0  0
    9.0636   15.1364   19.9819 O   0  0  0  0  0  0  0  0  0  0  0  0
    9.7827   16.3438   20.0925 C   0  0  1  0  0  0  0  0  0  0  0  0
    9.1657   17.3939   20.9427 C   0  0  0  0  0  0  0  0  0  0  0  0
   10.3388   16.5919   21.4646 C   0  0  1  0  0  0  0  0  0  0  0  0
   10.0931   15.6412   22.5755 C   0  0  0  0  0  0  0  0  0  0  0  0
    6.4778   13.8017   23.9746 C   0  0  0  0  0  0  0  0  0  0  0  0
    6.7170   12.4118   24.5786 C   0  0  0  0  0  0  0  0  0  0  0  0
    7.1808   12.3110   26.0226 C   0  0  0  0  0  0  0  0  0  0  0  0
    7.6956   13.5687   26.5252 N   0  0  0  0  0  0  0  0  0  0  0  0
    9.2273   14.1710   26.2847 S   0  0  0  0  0  0  0  0  0  0  0  0
    9.6012   14.8021   27.5257 O   0  0  0  0  0  0  0  0  0  0  0  0
    9.2309   14.9507   25.0812 O   0  0  0  0  0  0  0  0  0  0  0  0
   10.3266   12.9290   26.0389 N   0  0  0  0  0  0  0  0  0  0  0  0
   10.1561   12.0352   24.8873 C   0  0  0  0  0  0  0  0  0  0  0  0
   11.0057   10.8171   25.1336 C   0  0  0  0  0  0  0  0  0  0  0  0
   12.4561   11.2526   25.4810 C   0  0  0  0  0  0  0  0  0  0  0  0
   12.6980   12.7203   25.1997 C   0  0  0  0  0  0  0  0  0  0  0  0
   11.7177   13.5228   26.0509 C   0  0  0  0  0  0  0  0  0  0  0  0
    6.6366   14.6058   26.4496 C   0  0  0  0  0  0  0  0  0  0  0  0
    6.3103   14.9459   24.9937 C   0  0  0  0  0  0  0  0  0  0  0  0
  1  2  2  0
  2  3  1  0
  4  3  1  6
  4  5  1  0
  5  6  1  0
  6  7  1  0
  7  8  1  1
  9  8  1  1
  9 10  1  0
  2 11  1  0
 11 12  1  0
 12 13  1  0
 13 14  1  0
 14 15  1  0
 15 16  2  0
 15 17  2  0
 15 18  1  0
 18 19  1  0
 19 20  1  0
 20 21  1  0
 21 22  1  0
 22 23  1  0
 14 24  1  0
 24 25  1  0
 10  4  1  0
 25 11  1  0
  9  7  1  0
 23 18  1  0
M  END
>  <energy_score>  (2270) 
-1.860659

>  <inchikey>  (2270) 
None

>  <smiles>  (2270) 
None

>  <ref_pdb>  (2270) 
A4706a

>  <alias>  (2270) 
None

>  <HIPPO Pose ID>  (2270) 
499914

>  <name>  (2270) 
P499914

>  <HIPPO Compound ID>  (2270) 
314440

>  <ref_mols>  (2270) 
A4706a,A0875a

>  <distance_score>  (2270) 
1.674385

>  <inspiration_score>  (2270) 
None

$$$$
P499915
     RDKit          3D

 25 28  0  0  0  0  0  0  0  0999 V2000
    6.4890   12.8720   22.3699 O   0  0  0  0  0  0  0  0  0  0  0  0
    6.7237   13.5805   23.3422 C   0  0  0  0  0  0  0  0  0  0  0  0
    7.8156   14.3767   23.4241 O   0  0  0  0  0  0  0  0  0  0  0  0
    8.7821   14.2889   22.3327 C   0  0  1  0  0  0  0  0  0  0  0  0
    8.1516   14.7100   21.0208 C   0  0  0  0  0  0  0  0  0  0  0  0
    9.0992   14.8636   19.9898 O   0  0  0  0  0  0  0  0  0  0  0  0
   10.0660   15.8722   20.2048 C   0  0  1  0  0  0  0  0  0  0  0  0
    9.6638   17.0570   21.0330 C   0  0  0  0  0  0  0  0  0  0  0  0
   10.5679   15.9907   21.6011 C   0  0  1  0  0  0  0  0  0  0  0  0
   10.0323   15.1176   22.6773 C   0  0  0  0  0  0  0  0  0  0  0  0
    5.8303   13.5051   24.5709 C   0  0  0  0  0  0  0  0  0  0  0  0
    6.2329   12.2953   25.4470 C   0  0  0  0  0  0  0  0  0  0  0  0
    7.2720   12.6349   26.5192 C   0  0  0  0  0  0  0  0  0  0  0  0
    7.8760   13.8993   26.1145 N   0  0  0  0  0  0  0  0  0  0  0  0
    9.4381   14.3083   26.4361 S   0  0  0  0  0  0  0  0  0  0  0  0
    9.6091   14.3261   27.8642 O   0  0  0  0  0  0  0  0  0  0  0  0
    9.7361   15.4870   25.6683 O   0  0  0  0  0  0  0  0  0  0  0  0
   10.4195   13.1103   25.8509 N   0  0  0  0  0  0  0  0  0  0  0  0
   10.0686   12.2297   24.7420 C   0  0  0  0  0  0  0  0  0  0  0  0
   10.7873   10.9255   25.0496 C   0  0  0  0  0  0  0  0  0  0  0  0
   12.2738   11.2034   25.4424 C   0  0  0  0  0  0  0  0  0  0  0  0
   12.7139   12.5931   25.0501 C   0  0  0  0  0  0  0  0  0  0  0  0
   11.8342   13.5756   25.7995 C   0  0  0  0  0  0  0  0  0  0  0  0
    6.9200   15.0195   26.2911 C   0  0  0  0  0  0  0  0  0  0  0  0
    5.7455   14.8124   25.3487 C   0  0  0  0  0  0  0  0  0  0  0  0
  1  2  2  0
  2  3  1  0
  4  3  1  1
  4  5  1  0
  5  6  1  0
  6  7  1  0
  7  8  1  1
  9  8  1  1
  9 10  1  0
  2 11  1  0
 11 12  1  0
 12 13  1  0
 13 14  1  0
 14 15  1  0
 15 16  2  0
 15 17  2  0
 15 18  1  0
 18 19  1  0
 19 20  1  0
 20 21  1  0
 21 22  1  0
 22 23  1  0
 14 24  1  0
 24 25  1  0
 10  4  1  0
 25 11  1  0
  9  7  1  0
 23 18  1  0
M  END
>  <energy_score>  (2271) 
-18.972196

>  <inchikey>  (2271) 
None

>  <smiles>  (2271) 
None

>  <ref_pdb>  (2271) 
A4706a

>  <alias>  (2271) 
None

>  <HIPPO Pose ID>  (2271) 
499915

>  <name>  (2271) 
P499915

>  <HIPPO Compound ID>  (2271) 
314440

>  <ref_mols>  (2271) 
A4706a,A0875a

>  <distance_score>  (2271) 
1.729804

>  <inspiration_score>  (2271) 
None

$$$$
P499916
     RDKit          3D

 25 28  0  0  0  0  0  0  0  0999 V2000
    6.5316   13.2323   22.4416 O   0  0  0  0  0  0  0  0  0  0  0  0
    6.8400   14.1447   23.2073 C   0  0  0  0  0  0  0  0  0  0  0  0
    7.8969   14.9907   23.0028 O   0  0  0  0  0  0  0  0  0  0  0  0
    9.0531   14.4674   22.2828 C   0  0  1  0  0  0  0  0  0  0  0  0
    8.8603   14.1697   20.8224 C   0  0  0  0  0  0  0  0  0  0  0  0
    8.9077   15.2173   19.9061 O   0  0  0  0  0  0  0  0  0  0  0  0
    9.9169   16.1666   20.1224 C   0  0  1  0  0  0  0  0  0  0  0  0
    9.4272   17.2418   21.0432 C   0  0  0  0  0  0  0  0  0  0  0  0
   10.5313   16.3130   21.4736 C   0  0  1  0  0  0  0  0  0  0  0  0
   10.3074   15.2991   22.5174 C   0  0  0  0  0  0  0  0  0  0  0  0
    6.0954   14.3695   24.5557 C   0  0  0  0  0  0  0  0  0  0  0  0
    5.7357   13.0205   25.2461 C   0  0  0  0  0  0  0  0  0  0  0  0
    6.6975   12.4521   26.3150 C   0  0  0  0  0  0  0  0  0  0  0  0
    7.8737   13.3375   26.5457 N   0  0  0  0  0  0  0  0  0  0  0  0
    9.0529   13.2159   25.3636 S   0  0  0  0  0  0  0  0  0  0  0  0
    9.6208   14.5225   25.1600 O   0  0  0  0  0  0  0  0  0  0  0  0
    8.4282   12.4421   24.3196 O   0  0  0  0  0  0  0  0  0  0  0  0
   10.2769   12.2275   25.9460 N   0  0  0  0  0  0  0  0  0  0  0  0
   10.4561   11.0655   25.0015 C   0  0  0  0  0  0  0  0  0  0  0  0
   11.7129   10.2804   25.2799 C   0  0  0  0  0  0  0  0  0  0  0  0
   12.9729   11.1782   25.4105 C   0  0  0  0  0  0  0  0  0  0  0  0
   12.6368   12.6562   25.3124 C   0  0  0  0  0  0  0  0  0  0  0  0
   11.5339   12.9508   26.3107 C   0  0  0  0  0  0  0  0  0  0  0  0
    7.3784   14.7171   26.7969 C   0  0  0  0  0  0  0  0  0  0  0  0
    6.7307   15.3484   25.5564 C   0  0  0  0  0  0  0  0  0  0  0  0
  1  2  2  0
  2  3  1  0
  4  3  1  6
  4  5  1  0
  5  6  1  0
  6  7  1  0
  7  8  1  1
  9  8  1  1
  9 10  1  0
  2 11  1  0
 11 12  1  0
 12 13  1  0
 13 14  1  0
 14 15  1  0
 15 16  2  0
 15 17  2  0
 15 18  1  0
 18 19  1  0
 19 20  1  0
 20 21  1  0
 21 22  1  0
 22 23  1  0
 14 24  1  0
 24 25  1  0
 10  4  1  0
 25 11  1  0
  9  7  1  0
 23 18  1  0
M  END
>  <energy_score>  (2272) 
-4.189487

>  <inchikey>  (2272) 
None

>  <smiles>  (2272) 
None

>  <ref_pdb>  (2272) 
A4706a

>  <alias>  (2272) 
None

>  <HIPPO Pose ID>  (2272) 
499916

>  <name>  (2272) 
P499916

>  <HIPPO Compound ID>  (2272) 
314440

>  <ref_mols>  (2272) 
A0875a,A4706a

>  <distance_score>  (2272) 
1.509785

>  <inspiration_score>  (2272) 
None

$$$$
P499917
     RDKit          3D

 25 27  0  0  0  0  0  0  0  0999 V2000
   11.2977   14.5555   18.6494 N   0  0  0  0  0  0  0  0  0  0  0  0
   10.1653   15.1608   19.3480 C   0  0  0  0  0  0  0  0  0  0  0  0
    9.8955   14.4542   20.6887 C   0  0  1  0  0  0  0  0  0  0  0  0
   10.9110   14.8192   21.6362 O   0  0  0  0  0  0  0  0  0  0  0  0
   10.4272   15.9986   22.2621 C   0  0  0  0  0  0  0  0  0  0  0  0
    8.9187   16.0802   22.0209 C   0  0  0  0  0  0  0  0  0  0  0  0
    8.5621   14.8144   21.3100 C   0  0  2  0  0  0  0  0  0  0  0  0
    8.1580   13.8209   22.2911 O   0  0  0  0  0  0  0  0  0  0  0  0
    6.8778   13.8899   22.7420 C   0  0  0  0  0  0  0  0  0  0  0  0
    5.9759   14.4869   22.1675 O   0  0  0  0  0  0  0  0  0  0  0  0
    6.6737   13.1948   24.0932 C   0  0  0  0  0  0  0  0  0  0  0  0
    7.6765   12.0494   24.3651 C   0  0  0  0  0  0  0  0  0  0  0  0
    8.0791   11.8377   25.8033 C   0  0  0  0  0  0  0  0  0  0  0  0
    8.3271   13.1193   26.4474 N   0  0  0  0  0  0  0  0  0  0  0  0
    9.6469   14.0522   25.9769 S   0  0  0  0  0  0  0  0  0  0  0  0
    9.7103   15.1299   26.9341 O   0  0  0  0  0  0  0  0  0  0  0  0
    9.5590   14.3397   24.5733 O   0  0  0  0  0  0  0  0  0  0  0  0
   10.9754   13.0152   26.2273 N   0  0  0  0  0  0  0  0  0  0  0  0
   12.0557   13.7091   26.9767 C   0  0  0  0  0  0  0  0  0  0  0  0
   13.4526   13.1402   26.6982 C   0  0  0  0  0  0  0  0  0  0  0  0
   13.4097   11.6709   26.6028 C   0  0  0  0  0  0  0  0  0  0  0  0
   12.5799   11.3305   25.3855 C   0  0  0  0  0  0  0  0  0  0  0  0
   11.4830   12.3433   25.0083 C   0  0  0  0  0  0  0  0  0  0  0  0
    7.0520   13.8786   26.5458 C   0  0  0  0  0  0  0  0  0  0  0  0
    6.5878   14.3027   25.1625 C   0  0  0  0  0  0  0  0  0  0  0  0
  1  2  1  0
  3  2  1  6
  3  4  1  0
  4  5  1  0
  5  6  1  0
  6  7  1  0
  7  8  1  1
  8  9  1  0
  9 10  2  0
  9 11  1  0
 11 12  1  0
 12 13  1  0
 13 14  1  0
 14 15  1  0
 15 16  2  0
 15 17  2  0
 15 18  1  0
 18 19  1  0
 19 20  1  0
 20 21  1  0
 21 22  1  0
 22 23  1  0
 14 24  1  0
 24 25  1  0
  7  3  1  0
 25 11  1  0
 23 18  1  0
M  END
>  <energy_score>  (2273) 
-45.441537

>  <inchikey>  (2273) 
None

>  <smiles>  (2273) 
None

>  <ref_pdb>  (2273) 
A4706a

>  <alias>  (2273) 
None

>  <HIPPO Pose ID>  (2273) 
499917

>  <name>  (2273) 
P499917

>  <HIPPO Compound ID>  (2273) 
314441

>  <ref_mols>  (2273) 
A4706a,A0875a

>  <distance_score>  (2273) 
1.502252

>  <inspiration_score>  (2273) 
None

$$$$
P499918
     RDKit          3D

 25 27  0  0  0  0  0  0  0  0999 V2000
   11.0244   14.4851   18.9655 N   0  0  0  0  0  0  0  0  0  0  0  0
   10.0643   15.5402   19.2951 C   0  0  0  0  0  0  0  0  0  0  0  0
    9.7229   15.8011   20.7796 C   0  0  2  0  0  0  0  0  0  0  0  0
   10.9476   16.1537   21.4517 O   0  0  0  0  0  0  0  0  0  0  0  0
   11.1753   15.2226   22.4976 C   0  0  0  0  0  0  0  0  0  0  0  0
   10.3097   14.0219   22.2071 C   0  0  0  0  0  0  0  0  0  0  0  0
    9.1028   14.6030   21.4997 C   0  0  1  0  0  0  0  0  0  0  0  0
    8.0416   15.0104   22.4196 O   0  0  0  0  0  0  0  0  0  0  0  0
    7.3232   13.9930   22.9692 C   0  0  0  0  0  0  0  0  0  0  0  0
    7.4902   12.8118   22.6644 O   0  0  0  0  0  0  0  0  0  0  0  0
    6.1927   14.3956   23.9283 C   0  0  0  0  0  0  0  0  0  0  0  0
    5.7994   13.1796   24.7882 C   0  0  0  0  0  0  0  0  0  0  0  0
    6.8381   12.8212   25.8548 C   0  0  0  0  0  0  0  0  0  0  0  0
    7.5147   14.0031   26.4381 N   0  0  0  0  0  0  0  0  0  0  0  0
    9.1170   14.4545   26.1644 S   0  0  0  0  0  0  0  0  0  0  0  0
    9.4296   15.4328   27.1770 O   0  0  0  0  0  0  0  0  0  0  0  0
    9.2617   14.8083   24.7823 O   0  0  0  0  0  0  0  0  0  0  0  0
   10.1483   13.1588   26.4218 N   0  0  0  0  0  0  0  0  0  0  0  0
    9.8917   11.9551   25.6296 C   0  0  0  0  0  0  0  0  0  0  0  0
   11.0663   11.2687   25.0017 C   0  0  0  0  0  0  0  0  0  0  0  0
   12.4512   11.6655   25.4610 C   0  0  0  0  0  0  0  0  0  0  0  0
   12.5066   13.1539   25.5063 C   0  0  0  0  0  0  0  0  0  0  0  0
   11.5640   13.6148   26.5982 C   0  0  0  0  0  0  0  0  0  0  0  0
    6.6147   15.1950   26.3382 C   0  0  0  0  0  0  0  0  0  0  0  0
    6.4134   15.5892   24.8641 C   0  0  0  0  0  0  0  0  0  0  0  0
  1  2  1  0
  3  2  1  6
  3  4  1  0
  4  5  1  0
  5  6  1  0
  6  7  1  0
  7  8  1  1
  8  9  1  0
  9 10  2  0
  9 11  1  0
 11 12  1  0
 12 13  1  0
 13 14  1  0
 14 15  1  0
 15 16  2  0
 15 17  2  0
 15 18  1  0
 18 19  1  0
 19 20  1  0
 20 21  1  0
 21 22  1  0
 22 23  1  0
 14 24  1  0
 24 25  1  0
  7  3  1  0
 25 11  1  0
 23 18  1  0
M  END
>  <energy_score>  (2274) 
-45.079096

>  <inchikey>  (2274) 
None

>  <smiles>  (2274) 
None

>  <ref_pdb>  (2274) 
A4706a

>  <alias>  (2274) 
None

>  <HIPPO Pose ID>  (2274) 
499918

>  <name>  (2274) 
P499918

>  <HIPPO Compound ID>  (2274) 
314441

>  <ref_mols>  (2274) 
A0875a,A4706a

>  <distance_score>  (2274) 
1.550208

>  <inspiration_score>  (2274) 
None

$$$$
P499919
     RDKit          3D

 25 27  0  0  0  0  0  0  0  0999 V2000
   10.6643   14.6802   18.5985 N   0  0  0  0  0  0  0  0  0  0  0  0
    9.8982   15.2309   19.7188 C   0  0  0  0  0  0  0  0  0  0  0  0
   10.1207   14.3604   20.9590 C   0  0  1  0  0  0  0  0  0  0  0  0
   11.5589   14.2425   21.1544 O   0  0  0  0  0  0  0  0  0  0  0  0
   11.9478   15.2991   22.0274 C   0  0  0  0  0  0  0  0  0  0  0  0
   10.6733   15.9206   22.5369 C   0  0  0  0  0  0  0  0  0  0  0  0
    9.6597   14.8235   22.3272 C   0  0  1  0  0  0  0  0  0  0  0  0
    8.3072   15.1866   22.6428 O   0  0  0  0  0  0  0  0  0  0  0  0
    7.5016   14.1141   22.8521 C   0  0  0  0  0  0  0  0  0  0  0  0
    7.5493   13.1032   22.1548 O   0  0  0  0  0  0  0  0  0  0  0  0
    6.5123   14.1559   24.0244 C   0  0  0  0  0  0  0  0  0  0  0  0
    6.4842   12.7507   24.6812 C   0  0  0  0  0  0  0  0  0  0  0  0
    7.7822   12.4541   25.4336 C   0  0  0  0  0  0  0  0  0  0  0  0
    8.1053   13.5274   26.3889 N   0  0  0  0  0  0  0  0  0  0  0  0
    9.6038   14.2774   26.3581 S   0  0  0  0  0  0  0  0  0  0  0  0
    9.7432   14.9425   25.0950 O   0  0  0  0  0  0  0  0  0  0  0  0
    9.6487   15.0455   27.5775 O   0  0  0  0  0  0  0  0  0  0  0  0
   10.8395   13.0754   26.4551 N   0  0  0  0  0  0  0  0  0  0  0  0
   11.4063   12.7286   25.1118 C   0  0  0  0  0  0  0  0  0  0  0  0
   12.6176   11.8189   25.2361 C   0  0  0  0  0  0  0  0  0  0  0  0
   13.7212   12.3411   26.1148 C   0  0  0  0  0  0  0  0  0  0  0  0
   13.1645   12.7708   27.4426 C   0  0  0  0  0  0  0  0  0  0  0  0
   11.9269   13.6502   27.3252 C   0  0  0  0  0  0  0  0  0  0  0  0
    7.0078   14.5512   26.5008 C   0  0  0  0  0  0  0  0  0  0  0  0
    6.7144   15.1921   25.1325 C   0  0  0  0  0  0  0  0  0  0  0  0
  1  2  1  0
  3  2  1  6
  3  4  1  0
  4  5  1  0
  5  6  1  0
  6  7  1  0
  7  8  1  6
  8  9  1  0
  9 10  2  0
  9 11  1  0
 11 12  1  0
 12 13  1  0
 13 14  1  0
 14 15  1  0
 15 16  2  0
 15 17  2  0
 15 18  1  0
 18 19  1  0
 19 20  1  0
 20 21  1  0
 21 22  1  0
 22 23  1  0
 14 24  1  0
 24 25  1  0
  7  3  1  0
 25 11  1  0
 23 18  1  0
M  END
>  <energy_score>  (2275) 
-44.733246

>  <inchikey>  (2275) 
None

>  <smiles>  (2275) 
None

>  <ref_pdb>  (2275) 
A4706a

>  <alias>  (2275) 
None

>  <HIPPO Pose ID>  (2275) 
499919

>  <name>  (2275) 
P499919

>  <HIPPO Compound ID>  (2275) 
314441

>  <ref_mols>  (2275) 
A4706a,A0875a

>  <distance_score>  (2275) 
1.656509

>  <inspiration_score>  (2275) 
None

$$$$
P499920
     RDKit          3D

 25 27  0  0  0  0  0  0  0  0999 V2000
    7.2845   14.3552   21.2150 C   0  0  0  0  0  0  0  0  0  0  0  0
    8.5119   14.8533   21.3668 C   0  0  0  0  0  0  0  0  0  0  0  0
    9.5632   14.8113   20.2992 C   0  0  0  0  0  0  0  0  0  0  0  0
   10.5978   15.8828   20.4961 C   0  0  0  0  0  0  0  0  0  0  0  0
   11.2621   15.8510   21.7525 O   0  0  0  0  0  0  0  0  0  0  0  0
   10.4197   15.4069   22.8168 C   0  0  0  0  0  0  0  0  0  0  0  0
    8.8995   15.6133   22.5908 C   0  0  2  0  0  0  0  0  0  0  0  0
    8.1505   15.1442   23.7362 O   0  0  0  0  0  0  0  0  0  0  0  0
    6.9056   15.5519   24.0580 C   0  0  0  0  0  0  0  0  0  0  0  0
    6.3116   16.4917   23.5503 O   0  0  0  0  0  0  0  0  0  0  0  0
    6.3026   14.6728   25.1673 C   0  0  0  0  0  0  0  0  0  0  0  0
    6.3791   13.1542   24.8618 C   0  0  0  0  0  0  0  0  0  0  0  0
    7.1755   12.2827   25.8360 C   0  0  0  0  0  0  0  0  0  0  0  0
    8.2276   13.0626   26.5189 N   0  0  0  0  0  0  0  0  0  0  0  0
    9.5496   13.5215   25.5814 S   0  0  0  0  0  0  0  0  0  0  0  0
    9.3206   13.0007   24.2567 O   0  0  0  0  0  0  0  0  0  0  0  0
    9.8074   14.9159   25.8502 O   0  0  0  0  0  0  0  0  0  0  0  0
   10.8440   12.6446   26.2482 N   0  0  0  0  0  0  0  0  0  0  0  0
   11.5422   11.7683   25.2770 C   0  0  0  0  0  0  0  0  0  0  0  0
   12.9546   12.2365   25.0152 C   0  0  0  0  0  0  0  0  0  0  0  0
   13.8299   12.2987   26.2398 C   0  0  0  0  0  0  0  0  0  0  0  0
   13.0558   12.7964   27.4387 C   0  0  0  0  0  0  0  0  0  0  0  0
   11.7501   13.5003   27.0711 C   0  0  0  0  0  0  0  0  0  0  0  0
    7.6038   14.1151   27.3508 C   0  0  0  0  0  0  0  0  0  0  0  0
    6.8462   15.1421   26.5206 C   0  0  0  0  0  0  0  0  0  0  0  0
  1  2  2  0
  2  3  1  0
  3  4  1  0
  4  5  1  0
  5  6  1  0
  6  7  1  0
  7  8  1  1
  8  9  1  0
  9 10  2  0
  9 11  1  0
 11 12  1  0
 12 13  1  0
 13 14  1  0
 14 15  1  0
 15 16  2  0
 15 17  2  0
 15 18  1  0
 18 19  1  0
 19 20  1  0
 20 21  1  0
 21 22  1  0
 22 23  1  0
 14 24  1  0
 24 25  1  0
  7  2  1  0
 25 11  1  0
 23 18  1  0
M  END
>  <energy_score>  (2276) 
-36.338652

>  <inchikey>  (2276) 
None

>  <smiles>  (2276) 
None

>  <ref_pdb>  (2276) 
A4706a

>  <alias>  (2276) 
None

>  <HIPPO Pose ID>  (2276) 
499920

>  <name>  (2276) 
P499920

>  <HIPPO Compound ID>  (2276) 
314442

>  <ref_mols>  (2276) 
A0875a,A4706a

>  <distance_score>  (2276) 
1.956222

>  <inspiration_score>  (2276) 
None

$$$$
P499921
     RDKit          3D

 25 27  0  0  0  0  0  0  0  0999 V2000
    7.0380   12.6565   22.9124 O   0  0  0  0  0  0  0  0  0  0  0  0
    6.7901   13.8091   23.2594 C   0  0  0  0  0  0  0  0  0  0  0  0
    7.2665   14.8887   22.5983 O   0  0  0  0  0  0  0  0  0  0  0  0
    8.1940   14.5517   21.5347 C   0  0  0  0  0  0  0  0  0  0  0  0
    9.2918   15.6011   21.3444 C   0  0  2  0  0  0  0  0  0  0  0  0
    9.8178   15.5963   19.8927 C   0  0  0  0  0  0  0  0  0  0  0  0
   10.7881   14.5992   19.6288 O   0  0  0  0  0  0  0  0  0  0  0  0
   11.8308   14.5801   20.5967 C   0  0  0  0  0  0  0  0  0  0  0  0
   11.6271   15.4903   21.7976 C   0  0  0  0  0  0  0  0  0  0  0  0
   10.3236   15.3107   22.3125 O   0  0  0  0  0  0  0  0  0  0  0  0
    5.8280   14.0830   24.4073 C   0  0  0  0  0  0  0  0  0  0  0  0
    5.8224   12.8575   25.3442 C   0  0  0  0  0  0  0  0  0  0  0  0
    7.1156   12.7085   26.1466 C   0  0  0  0  0  0  0  0  0  0  0  0
    7.6748   14.0087   26.5537 N   0  0  0  0  0  0  0  0  0  0  0  0
    9.1474   14.6186   26.0145 S   0  0  0  0  0  0  0  0  0  0  0  0
    8.9914   15.0961   24.6709 O   0  0  0  0  0  0  0  0  0  0  0  0
    9.5903   15.5076   27.0594 O   0  0  0  0  0  0  0  0  0  0  0  0
   10.2140   13.3262   25.9605 N   0  0  0  0  0  0  0  0  0  0  0  0
   10.1808   12.6023   24.6624 C   0  0  0  0  0  0  0  0  0  0  0  0
   10.8447   11.2882   24.9594 C   0  0  0  0  0  0  0  0  0  0  0  0
   12.3351   11.5831   25.2331 C   0  0  0  0  0  0  0  0  0  0  0  0
   12.5497   12.5767   26.3568 C   0  0  0  0  0  0  0  0  0  0  0  0
   11.6138   13.7700   26.2334 C   0  0  0  0  0  0  0  0  0  0  0  0
    6.6340   15.0679   26.6264 C   0  0  0  0  0  0  0  0  0  0  0  0
    6.0663   15.3541   25.2304 C   0  0  0  0  0  0  0  0  0  0  0  0
  1  2  2  0
  2  3  1  0
  3  4  1  0
  5  4  1  6
  5  6  1  0
  6  7  1  0
  7  8  1  0
  8  9  1  0
  9 10  1  0
  2 11  1  0
 11 12  1  0
 12 13  1  0
 13 14  1  0
 14 15  1  0
 15 16  2  0
 15 17  2  0
 15 18  1  0
 18 19  1  0
 19 20  1  0
 20 21  1  0
 21 22  1  0
 22 23  1  0
 14 24  1  0
 24 25  1  0
 10  5  1  0
 25 11  1  0
 23 18  1  0
M  END
>  <energy_score>  (2277) 
-63.325372

>  <inchikey>  (2277) 
None

>  <smiles>  (2277) 
None

>  <ref_pdb>  (2277) 
A4706a

>  <alias>  (2277) 
None

>  <HIPPO Pose ID>  (2277) 
499921

>  <name>  (2277) 
P499921

>  <HIPPO Compound ID>  (2277) 
314443

>  <ref_mols>  (2277) 
A4706a,A0875a

>  <distance_score>  (2277) 
1.47289

>  <inspiration_score>  (2277) 
None

$$$$
P499922
     RDKit          3D

 25 27  0  0  0  0  0  0  0  0999 V2000
    6.7061   12.9993   22.2001 O   0  0  0  0  0  0  0  0  0  0  0  0
    6.6546   13.7711   23.1535 C   0  0  0  0  0  0  0  0  0  0  0  0
    7.3260   14.9420   23.2054 O   0  0  0  0  0  0  0  0  0  0  0  0
    7.8786   15.4387   21.9670 C   0  0  0  0  0  0  0  0  0  0  0  0
    9.1967   14.7991   21.5015 C   0  0  1  0  0  0  0  0  0  0  0  0
    9.6475   15.4410   20.1771 C   0  0  0  0  0  0  0  0  0  0  0  0
   10.8789   14.8909   19.7175 O   0  0  0  0  0  0  0  0  0  0  0  0
   11.8756   15.0563   20.7212 C   0  0  0  0  0  0  0  0  0  0  0  0
   11.4577   14.4171   22.0303 C   0  0  0  0  0  0  0  0  0  0  0  0
   10.2249   14.9793   22.4884 O   0  0  0  0  0  0  0  0  0  0  0  0
    5.7838   13.4739   24.3787 C   0  0  0  0  0  0  0  0  0  0  0  0
    6.3383   12.2835   25.2006 C   0  0  0  0  0  0  0  0  0  0  0  0
    7.2269   12.7274   26.3683 C   0  0  0  0  0  0  0  0  0  0  0  0
    7.7878   14.0060   25.9548 N   0  0  0  0  0  0  0  0  0  0  0  0
    9.3146   14.5006   26.3363 S   0  0  0  0  0  0  0  0  0  0  0  0
    9.7268   15.4517   25.3400 O   0  0  0  0  0  0  0  0  0  0  0  0
    9.3266   14.8154   27.7408 O   0  0  0  0  0  0  0  0  0  0  0  0
   10.3051   13.1685   26.1370 N   0  0  0  0  0  0  0  0  0  0  0  0
   10.1795   12.5179   24.8264 C   0  0  0  0  0  0  0  0  0  0  0  0
   10.8792   11.1989   24.9857 C   0  0  0  0  0  0  0  0  0  0  0  0
   12.3825   11.4782   25.2397 C   0  0  0  0  0  0  0  0  0  0  0  0
   12.6588   12.4073   26.4030 C   0  0  0  0  0  0  0  0  0  0  0  0
   11.7202   13.5946   26.3751 C   0  0  0  0  0  0  0  0  0  0  0  0
    6.7869   15.0983   26.0417 C   0  0  0  0  0  0  0  0  0  0  0  0
    5.5372   14.6891   25.2733 C   0  0  0  0  0  0  0  0  0  0  0  0
  1  2  2  0
  2  3  1  0
  3  4  1  0
  5  4  1  1
  5  6  1  0
  6  7  1  0
  7  8  1  0
  8  9  1  0
  9 10  1  0
  2 11  1  0
 11 12  1  0
 12 13  1  0
 13 14  1  0
 14 15  1  0
 15 16  2  0
 15 17  2  0
 15 18  1  0
 18 19  1  0
 19 20  1  0
 20 21  1  0
 21 22  1  0
 22 23  1  0
 14 24  1  0
 24 25  1  0
 10  5  1  0
 25 11  1  0
 23 18  1  0
M  END
>  <energy_score>  (2278) 
-68.047417

>  <inchikey>  (2278) 
None

>  <smiles>  (2278) 
None

>  <ref_pdb>  (2278) 
A4706a

>  <alias>  (2278) 
None

>  <HIPPO Pose ID>  (2278) 
499922

>  <name>  (2278) 
P499922

>  <HIPPO Compound ID>  (2278) 
314443

>  <ref_mols>  (2278) 
A4706a,A0875a

>  <distance_score>  (2278) 
1.641267

>  <inspiration_score>  (2278) 
None

$$$$
P499923
     RDKit          3D

 25 27  0  0  0  0  0  0  0  0999 V2000
    7.0470   12.9818   22.4771 O   0  0  0  0  0  0  0  0  0  0  0  0
    6.6496   13.9066   23.1805 C   0  0  0  0  0  0  0  0  0  0  0  0
    7.0805   15.1874   23.0742 O   0  0  0  0  0  0  0  0  0  0  0  0
    8.1588   15.4321   22.1503 C   0  0  0  0  0  0  0  0  0  0  0  0
    9.5225   15.1098   22.7846 C   0  0  0  0  0  0  0  0  0  0  0  0
   10.6239   15.3788   21.9255 O   0  0  0  0  0  0  0  0  0  0  0  0
   10.7015   14.4063   20.8964 C   0  0  0  0  0  0  0  0  0  0  0  0
   10.5137   15.0563   19.5771 C   0  0  1  0  0  0  0  0  0  0  0  0
   11.6217   15.0453   18.5771 C   0  0  0  0  0  0  0  0  0  0  0  0
   10.5473   14.1287   18.4810 O   0  0  0  0  0  0  0  0  0  0  0  0
    5.6001   13.7035   24.2765 C   0  0  0  0  0  0  0  0  0  0  0  0
    6.0063   12.5116   25.1818 C   0  0  0  0  0  0  0  0  0  0  0  0
    6.8553   12.9461   26.3779 C   0  0  0  0  0  0  0  0  0  0  0  0
    7.5454   14.1736   25.9683 N   0  0  0  0  0  0  0  0  0  0  0  0
    9.0808   14.5314   26.4834 S   0  0  0  0  0  0  0  0  0  0  0  0
    9.2340   14.1329   27.8528 O   0  0  0  0  0  0  0  0  0  0  0  0
    9.3717   15.8777   26.0884 O   0  0  0  0  0  0  0  0  0  0  0  0
   10.0834   13.5822   25.5524 N   0  0  0  0  0  0  0  0  0  0  0  0
    9.8162   12.1520   25.5107 C   0  0  0  0  0  0  0  0  0  0  0  0
   10.8925   11.4341   24.7600 C   0  0  0  0  0  0  0  0  0  0  0  0
   12.3190   11.7409   25.2288 C   0  0  0  0  0  0  0  0  0  0  0  0
   12.3747   12.8771   26.2072 C   0  0  0  0  0  0  0  0  0  0  0  0
   11.5104   13.9940   25.6629 C   0  0  0  0  0  0  0  0  0  0  0  0
    6.6034   15.3233   25.9553 C   0  0  0  0  0  0  0  0  0  0  0  0
    5.3619   14.9417   25.1473 C   0  0  0  0  0  0  0  0  0  0  0  0
  1  2  2  0
  2  3  1  0
  3  4  1  0
  4  5  1  0
  5  6  1  0
  6  7  1  0
  8  7  1  1
  8  9  1  0
  9 10  1  0
  2 11  1  0
 11 12  1  0
 12 13  1  0
 13 14  1  0
 14 15  1  0
 15 16  2  0
 15 17  2  0
 15 18  1  0
 18 19  1  0
 19 20  1  0
 20 21  1  0
 21 22  1  0
 22 23  1  0
 14 24  1  0
 24 25  1  0
 10  8  1  0
 25 11  1  0
 23 18  1  0
M  END
>  <energy_score>  (2279) 
-45.867909

>  <inchikey>  (2279) 
None

>  <smiles>  (2279) 
None

>  <ref_pdb>  (2279) 
A4706a

>  <alias>  (2279) 
None

>  <HIPPO Pose ID>  (2279) 
499923

>  <name>  (2279) 
P499923

>  <HIPPO Compound ID>  (2279) 
314444

>  <ref_mols>  (2279) 
A0875a,A4706a

>  <distance_score>  (2279) 
1.66933

>  <inspiration_score>  (2279) 
None

$$$$
P499924
     RDKit          3D

 25 27  0  0  0  0  0  0  0  0999 V2000
    9.3147   16.8661   20.5170 N   0  0  0  0  0  0  0  0  0  0  0  0
    9.3411   15.4044   20.5759 C   0  0  1  0  0  0  0  0  0  0  0  0
   10.7271   14.9212   20.2423 C   0  0  0  0  0  0  0  0  0  0  0  0
   11.1256   14.6372   19.1311 O   0  0  0  0  0  0  0  0  0  0  0  0
   11.4954   14.8781   21.3716 O   0  0  0  0  0  0  0  0  0  0  0  0
   10.6177   14.9963   22.4838 C   0  0  0  0  0  0  0  0  0  0  0  0
    9.2154   14.7584   21.9357 C   0  0  1  0  0  0  0  0  0  0  0  0
    8.1519   15.2341   22.7948 O   0  0  0  0  0  0  0  0  0  0  0  0
    7.0290   14.4490   22.8332 C   0  0  0  0  0  0  0  0  0  0  0  0
    6.7298   13.6550   21.9423 O   0  0  0  0  0  0  0  0  0  0  0  0
    6.1939   14.5620   24.1416 C   0  0  0  0  0  0  0  0  0  0  0  0
    5.7787   13.1640   24.6790 C   0  0  0  0  0  0  0  0  0  0  0  0
    6.7064   12.4531   25.6867 C   0  0  0  0  0  0  0  0  0  0  0  0
    7.8019   13.3410   26.1541 N   0  0  0  0  0  0  0  0  0  0  0  0
    9.1310   13.3988   25.1251 S   0  0  0  0  0  0  0  0  0  0  0  0
    9.6649   14.7381   25.1549 O   0  0  0  0  0  0  0  0  0  0  0  0
    8.7022   12.7678   23.9014 O   0  0  0  0  0  0  0  0  0  0  0  0
   10.2634   12.3511   25.8004 N   0  0  0  0  0  0  0  0  0  0  0  0
   11.5409   13.0049   26.1974 C   0  0  0  0  0  0  0  0  0  0  0  0
   12.6519   12.6341   25.2387 C   0  0  0  0  0  0  0  0  0  0  0  0
   12.9263   11.1557   25.4149 C   0  0  0  0  0  0  0  0  0  0  0  0
   11.6389   10.2953   25.2782 C   0  0  0  0  0  0  0  0  0  0  0  0
   10.3878   11.0965   24.9822 C   0  0  0  0  0  0  0  0  0  0  0  0
    7.2348   14.6656   26.5173 C   0  0  0  0  0  0  0  0  0  0  0  0
    6.7391   15.4324   25.2837 C   0  0  0  0  0  0  0  0  0  0  0  0
  2  1  1  1
  2  3  1  0
  3  4  2  0
  3  5  1  0
  5  6  1  0
  6  7  1  0
  7  8  1  1
  8  9  1  0
  9 10  2  0
  9 11  1  0
 11 12  1  0
 12 13  1  0
 13 14  1  0
 14 15  1  0
 15 16  2  0
 15 17  2  0
 15 18  1  0
 18 19  1  0
 19 20  1  0
 20 21  1  0
 21 22  1  0
 22 23  1  0
 14 24  1  0
 24 25  1  0
  7  2  1  0
 25 11  1  0
 23 18  1  0
M  END
>  <energy_score>  (2280) 
-15.071142

>  <inchikey>  (2280) 
None

>  <smiles>  (2280) 
None

>  <ref_pdb>  (2280) 
A4706a

>  <alias>  (2280) 
None

>  <HIPPO Pose ID>  (2280) 
499924

>  <name>  (2280) 
P499924

>  <HIPPO Compound ID>  (2280) 
314445

>  <ref_mols>  (2280) 
A4706a,A0875a

>  <distance_score>  (2280) 
1.68039

>  <inspiration_score>  (2280) 
None

$$$$
P499925
     RDKit          3D

 25 27  0  0  0  0  0  0  0  0999 V2000
    9.6695   15.5666   19.2278 N   0  0  0  0  0  0  0  0  0  0  0  0
    9.5960   14.9390   20.5763 C   0  0  1  0  0  0  0  0  0  0  0  0
   11.0024   14.5095   20.9266 C   0  0  0  0  0  0  0  0  0  0  0  0
   11.7916   14.0234   20.1387 O   0  0  0  0  0  0  0  0  0  0  0  0
   11.3350   14.8590   22.1858 O   0  0  0  0  0  0  0  0  0  0  0  0
   10.5939   16.0393   22.4035 C   0  0  0  0  0  0  0  0  0  0  0  0
    9.2357   15.8897   21.7190 C   0  0  2  0  0  0  0  0  0  0  0  0
    8.2706   15.5042   22.7641 O   0  0  0  0  0  0  0  0  0  0  0  0
    7.1991   14.6904   22.6403 C   0  0  0  0  0  0  0  0  0  0  0  0
    6.9028   14.0616   21.6312 O   0  0  0  0  0  0  0  0  0  0  0  0
    6.3361   14.6159   23.9333 C   0  0  0  0  0  0  0  0  0  0  0  0
    5.9473   13.1697   24.2959 C   0  0  0  0  0  0  0  0  0  0  0  0
    7.0144   12.3380   25.0252 C   0  0  0  0  0  0  0  0  0  0  0  0
    7.9845   13.2018   25.7418 N   0  0  0  0  0  0  0  0  0  0  0  0
    9.4158   13.5512   24.9134 S   0  0  0  0  0  0  0  0  0  0  0  0
    9.8257   14.8842   25.2793 O   0  0  0  0  0  0  0  0  0  0  0  0
    9.2276   13.1500   23.5421 O   0  0  0  0  0  0  0  0  0  0  0  0
   10.5356   12.4650   25.6056 N   0  0  0  0  0  0  0  0  0  0  0  0
   11.8774   13.1176   25.6507 C   0  0  0  0  0  0  0  0  0  0  0  0
   12.9293   12.2065   26.2423 C   0  0  0  0  0  0  0  0  0  0  0  0
   13.0360   10.9725   25.3811 C   0  0  0  0  0  0  0  0  0  0  0  0
   11.6713   10.2419   25.2374 C   0  0  0  0  0  0  0  0  0  0  0  0
   10.4937   11.1490   24.9060 C   0  0  0  0  0  0  0  0  0  0  0  0
    7.3023   14.3904   26.3162 C   0  0  0  0  0  0  0  0  0  0  0  0
    6.8253   15.3347   25.2039 C   0  0  0  0  0  0  0  0  0  0  0  0
  2  1  1  6
  2  3  1  0
  3  4  2  0
  3  5  1  0
  5  6  1  0
  6  7  1  0
  7  8  1  1
  8  9  1  0
  9 10  2  0
  9 11  1  0
 11 12  1  0
 12 13  1  0
 13 14  1  0
 14 15  1  0
 15 16  2  0
 15 17  2  0
 15 18  1  0
 18 19  1  0
 19 20  1  0
 20 21  1  0
 21 22  1  0
 22 23  1  0
 14 24  1  0
 24 25  1  0
  7  2  1  0
 25 11  1  0
 23 18  1  0
M  END
>  <energy_score>  (2281) 
-32.766003

>  <inchikey>  (2281) 
None

>  <smiles>  (2281) 
None

>  <ref_pdb>  (2281) 
A4706a

>  <alias>  (2281) 
None

>  <HIPPO Pose ID>  (2281) 
499925

>  <name>  (2281) 
P499925

>  <HIPPO Compound ID>  (2281) 
314445

>  <ref_mols>  (2281) 
A0875a,A4706a

>  <distance_score>  (2281) 
1.61936

>  <inspiration_score>  (2281) 
None

$$$$
P499926
     RDKit          3D

 25 27  0  0  0  0  0  0  0  0999 V2000
   10.1215   14.6937   18.9727 N   0  0  0  0  0  0  0  0  0  0  0  0
   10.8517   15.0738   20.1601 C   0  0  1  0  0  0  0  0  0  0  0  0
   10.2640   16.2375   20.9129 C   0  0  0  0  0  0  0  0  0  0  0  0
    9.3845   16.9829   20.5251 O   0  0  0  0  0  0  0  0  0  0  0  0
   10.9172   16.3346   22.1110 O   0  0  0  0  0  0  0  0  0  0  0  0
   11.7305   15.1801   22.2380 C   0  0  0  0  0  0  0  0  0  0  0  0
   11.0552   14.1512   21.3506 C   0  0  1  0  0  0  0  0  0  0  0  0
    9.9413   13.5417   22.0933 O   0  0  0  0  0  0  0  0  0  0  0  0
    8.6264   13.8812   22.0644 C   0  0  0  0  0  0  0  0  0  0  0  0
    8.0966   14.5385   21.1806 O   0  0  0  0  0  0  0  0  0  0  0  0
    7.7815   13.2915   23.2388 C   0  0  0  0  0  0  0  0  0  0  0  0
    8.4191   12.0497   23.9160 C   0  0  0  0  0  0  0  0  0  0  0  0
    8.3408   11.9504   25.4267 C   0  0  0  0  0  0  0  0  0  0  0  0
    8.4322   13.2712   26.0535 N   0  0  0  0  0  0  0  0  0  0  0  0
    9.8430   14.1675   25.8378 S   0  0  0  0  0  0  0  0  0  0  0  0
    9.8070   15.2621   26.7677 O   0  0  0  0  0  0  0  0  0  0  0  0
    9.9551   14.4528   24.4417 O   0  0  0  0  0  0  0  0  0  0  0  0
   11.1113   13.0718   26.2241 N   0  0  0  0  0  0  0  0  0  0  0  0
   11.9593   13.6269   27.3122 C   0  0  0  0  0  0  0  0  0  0  0  0
   13.2066   12.7819   27.6015 C   0  0  0  0  0  0  0  0  0  0  0  0
   13.9465   12.2425   26.3944 C   0  0  0  0  0  0  0  0  0  0  0  0
   12.9814   11.6968   25.3725 C   0  0  0  0  0  0  0  0  0  0  0  0
   11.9401   12.7372   25.0259 C   0  0  0  0  0  0  0  0  0  0  0  0
    7.2151   14.0525   25.6772 C   0  0  0  0  0  0  0  0  0  0  0  0
    7.2199   14.3906   24.1822 C   0  0  0  0  0  0  0  0  0  0  0  0
  2  1  1  6
  2  3  1  0
  3  4  2  0
  3  5  1  0
  5  6  1  0
  6  7  1  0
  7  8  1  1
  8  9  1  0
  9 10  2  0
  9 11  1  0
 11 12  1  0
 12 13  1  0
 13 14  1  0
 14 15  1  0
 15 16  2  0
 15 17  2  0
 15 18  1  0
 18 19  1  0
 19 20  1  0
 20 21  1  0
 21 22  1  0
 22 23  1  0
 14 24  1  0
 24 25  1  0
  7  2  1  0
 25 11  1  0
 23 18  1  0
M  END
>  <energy_score>  (2282) 
-11.89853

>  <inchikey>  (2282) 
None

>  <smiles>  (2282) 
None

>  <ref_pdb>  (2282) 
A4706a

>  <alias>  (2282) 
None

>  <HIPPO Pose ID>  (2282) 
499926

>  <name>  (2282) 
P499926

>  <HIPPO Compound ID>  (2282) 
314445

>  <ref_mols>  (2282) 
A4706a,A0875a

>  <distance_score>  (2282) 
1.901998

>  <inspiration_score>  (2282) 
None

$$$$
P499927
     RDKit          3D

 25 27  0  0  0  0  0  0  0  0999 V2000
    6.9882   13.0557   22.1556 O   0  0  0  0  0  0  0  0  0  0  0  0
    7.0694   13.9049   23.0354 C   0  0  0  0  0  0  0  0  0  0  0  0
    7.8233   15.0161   22.9419 O   0  0  0  0  0  0  0  0  0  0  0  0
    9.0404   14.9783   22.1888 C   0  0  2  0  0  0  0  0  0  0  0  0
    8.9137   15.3375   20.7208 C   0  0  0  0  0  0  0  0  0  0  0  0
   10.0820   15.1055   19.9290 O   0  0  0  0  0  0  0  0  0  0  0  0
   11.2939   15.1943   20.6654 C   0  0  0  0  0  0  0  0  0  0  0  0
   11.3908   14.1230   21.7272 C   0  0  0  0  0  0  0  0  0  0  0  0
   10.0114   13.7906   22.2229 C   0  0  0  0  0  0  0  0  0  0  0  0
    9.7490   12.6839   22.6975 O   0  0  0  0  0  0  0  0  0  0  0  0
    6.2842   13.7887   24.3506 C   0  0  0  0  0  0  0  0  0  0  0  0
    6.4726   12.3826   24.9496 C   0  0  0  0  0  0  0  0  0  0  0  0
    7.8471   12.1752   25.5755 C   0  0  0  0  0  0  0  0  0  0  0  0
    8.2439   13.3101   26.4350 N   0  0  0  0  0  0  0  0  0  0  0  0
    9.6724   14.1191   26.0846 S   0  0  0  0  0  0  0  0  0  0  0  0
    9.7014   14.4453   24.6955 O   0  0  0  0  0  0  0  0  0  0  0  0
    9.7776   15.2080   27.0210 O   0  0  0  0  0  0  0  0  0  0  0  0
   10.9409   13.0094   26.3857 N   0  0  0  0  0  0  0  0  0  0  0  0
   12.0687   13.7094   27.0633 C   0  0  0  0  0  0  0  0  0  0  0  0
   13.4494   13.1351   26.7463 C   0  0  0  0  0  0  0  0  0  0  0  0
   13.4074   11.6642   26.6957 C   0  0  0  0  0  0  0  0  0  0  0  0
   12.5672   11.3083   25.4857 C   0  0  0  0  0  0  0  0  0  0  0  0
   11.3764   12.2314   25.1944 C   0  0  0  0  0  0  0  0  0  0  0  0
    7.1045   14.2300   26.7282 C   0  0  0  0  0  0  0  0  0  0  0  0
    6.5586   14.8442   25.4359 C   0  0  0  0  0  0  0  0  0  0  0  0
  1  2  2  0
  2  3  1  0
  4  3  1  6
  4  5  1  0
  5  6  1  0
  6  7  1  0
  7  8  1  0
  8  9  1  0
  9 10  2  0
  2 11  1  0
 11 12  1  0
 12 13  1  0
 13 14  1  0
 14 15  1  0
 15 16  2  0
 15 17  2  0
 15 18  1  0
 18 19  1  0
 19 20  1  0
 20 21  1  0
 21 22  1  0
 22 23  1  0
 14 24  1  0
 24 25  1  0
  9  4  1  0
 25 11  1  0
 23 18  1  0
M  END
>  <energy_score>  (2283) 
-20.226188

>  <inchikey>  (2283) 
None

>  <smiles>  (2283) 
None

>  <ref_pdb>  (2283) 
A4706a

>  <alias>  (2283) 
None

>  <HIPPO Pose ID>  (2283) 
499927

>  <name>  (2283) 
P499927

>  <HIPPO Compound ID>  (2283) 
314446

>  <ref_mols>  (2283) 
A4706a,A0875a

>  <distance_score>  (2283) 
1.831405

>  <inspiration_score>  (2283) 
None

$$$$
P499928
     RDKit          3D

 25 27  0  0  0  0  0  0  0  0999 V2000
    7.0719   12.9765   21.9048 O   0  0  0  0  0  0  0  0  0  0  0  0
    7.3803   13.6363   22.8907 C   0  0  0  0  0  0  0  0  0  0  0  0
    8.5373   14.3417   22.9823 O   0  0  0  0  0  0  0  0  0  0  0  0
    9.5603   14.0110   22.0062 C   0  0  1  0  0  0  0  0  0  0  0  0
    9.2763   14.5064   20.5777 C   0  0  0  0  0  0  0  0  0  0  0  0
    9.5632   15.8658   20.2649 O   0  0  0  0  0  0  0  0  0  0  0  0
    9.9175   16.6035   21.4100 C   0  0  0  0  0  0  0  0  0  0  0  0
   11.1721   16.0117   22.0120 C   0  0  0  0  0  0  0  0  0  0  0  0
   10.9383   14.5698   22.3224 C   0  0  0  0  0  0  0  0  0  0  0  0
   11.8495   13.8732   22.7749 O   0  0  0  0  0  0  0  0  0  0  0  0
    6.4667   13.5646   24.1076 C   0  0  0  0  0  0  0  0  0  0  0  0
    6.8294   12.3406   24.9915 C   0  0  0  0  0  0  0  0  0  0  0  0
    7.7630   12.6975   26.1523 C   0  0  0  0  0  0  0  0  0  0  0  0
    8.4786   13.8855   25.7035 N   0  0  0  0  0  0  0  0  0  0  0  0
   10.0137   14.2794   26.1582 S   0  0  0  0  0  0  0  0  0  0  0  0
   10.5296   15.1733   25.1483 O   0  0  0  0  0  0  0  0  0  0  0  0
    9.9070   14.7175   27.5284 O   0  0  0  0  0  0  0  0  0  0  0  0
   10.9543   12.9044   26.1853 N   0  0  0  0  0  0  0  0  0  0  0  0
   12.3205   13.1835   26.7584 C   0  0  0  0  0  0  0  0  0  0  0  0
   13.4429   12.9495   25.7404 C   0  0  0  0  0  0  0  0  0  0  0  0
   13.4981   11.5088   25.2898 C   0  0  0  0  0  0  0  0  0  0  0  0
   12.0965   10.9628   25.3294 C   0  0  0  0  0  0  0  0  0  0  0  0
   10.9621   11.9454   25.0618 C   0  0  0  0  0  0  0  0  0  0  0  0
    7.5733   15.0734   25.7829 C   0  0  0  0  0  0  0  0  0  0  0  0
    6.3682   14.8588   24.8911 C   0  0  0  0  0  0  0  0  0  0  0  0
  1  2  2  0
  2  3  1  0
  4  3  1  1
  4  5  1  0
  5  6  1  0
  6  7  1  0
  7  8  1  0
  8  9  1  0
  9 10  2  0
  2 11  1  0
 11 12  1  0
 12 13  1  0
 13 14  1  0
 14 15  1  0
 15 16  2  0
 15 17  2  0
 15 18  1  0
 18 19  1  0
 19 20  1  0
 20 21  1  0
 21 22  1  0
 22 23  1  0
 14 24  1  0
 24 25  1  0
  9  4  1  0
 25 11  1  0
 23 18  1  0
M  END
>  <energy_score>  (2284) 
-38.533767

>  <inchikey>  (2284) 
None

>  <smiles>  (2284) 
None

>  <ref_pdb>  (2284) 
A4706a

>  <alias>  (2284) 
None

>  <HIPPO Pose ID>  (2284) 
499928

>  <name>  (2284) 
P499928

>  <HIPPO Compound ID>  (2284) 
314446

>  <ref_mols>  (2284) 
A4706a,A0875a

>  <distance_score>  (2284) 
1.426216

>  <inspiration_score>  (2284) 
None

$$$$
P499929
     RDKit          3D

 25 27  0  0  0  0  0  0  0  0999 V2000
   11.7739   15.2704   20.0920 C   0  0  0  0  0  0  0  0  0  0  0  0
   10.4045   15.0240   20.7477 C   0  0  0  0  0  0  0  0  0  0  0  0
    9.5210   15.1128   19.5458 C   0  0  0  0  0  0  0  0  0  0  0  0
   10.6890   13.8131   21.6147 C   0  0  0  0  0  0  0  0  0  0  0  0
   11.2282   14.3332   22.8578 O   0  0  0  0  0  0  0  0  0  0  0  0
   10.9094   15.7253   22.8947 C   0  0  0  0  0  0  0  0  0  0  0  0
    9.8692   15.9772   21.8215 C   0  0  2  0  0  0  0  0  0  0  0  0
    8.5011   15.8002   22.4550 O   0  0  0  0  0  0  0  0  0  0  0  0
    7.5393   14.8442   22.3487 C   0  0  0  0  0  0  0  0  0  0  0  0
    7.5451   13.9178   21.5414 O   0  0  0  0  0  0  0  0  0  0  0  0
    6.3281   14.9914   23.3404 C   0  0  0  0  0  0  0  0  0  0  0  0
    5.7282   13.6189   23.7355 C   0  0  0  0  0  0  0  0  0  0  0  0
    6.4717   12.8416   24.8400 C   0  0  0  0  0  0  0  0  0  0  0  0
    7.2709   13.7430   25.7303 N   0  0  0  0  0  0  0  0  0  0  0  0
    8.8697   14.0075   25.2475 S   0  0  0  0  0  0  0  0  0  0  0  0
    9.2148   15.3682   25.5646 O   0  0  0  0  0  0  0  0  0  0  0  0
    8.9741   13.4364   23.9380 O   0  0  0  0  0  0  0  0  0  0  0  0
    9.8066   13.0260   26.2214 N   0  0  0  0  0  0  0  0  0  0  0  0
   11.1648   13.6214   26.4480 C   0  0  0  0  0  0  0  0  0  0  0  0
   12.3087   12.6373   26.4816 C   0  0  0  0  0  0  0  0  0  0  0  0
   12.2683   11.7585   25.2669 C   0  0  0  0  0  0  0  0  0  0  0  0
   10.8896   11.1631   24.9708 C   0  0  0  0  0  0  0  0  0  0  0  0
    9.7195   11.6308   25.7851 C   0  0  0  0  0  0  0  0  0  0  0  0
    6.5129   15.0034   25.9401 C   0  0  0  0  0  0  0  0  0  0  0  0
    6.4411   15.8170   24.6341 C   0  0  0  0  0  0  0  0  0  0  0  0
  1  2  1  0
  2  3  1  0
  2  4  1  0
  4  5  1  0
  5  6  1  0
  6  7  1  0
  7  8  1  1
  8  9  1  0
  9 10  2  0
  9 11  1  0
 11 12  1  0
 12 13  1  0
 13 14  1  0
 14 15  1  0
 15 16  2  0
 15 17  2  0
 15 18  1  0
 18 19  1  0
 19 20  1  0
 20 21  1  0
 21 22  1  0
 22 23  1  0
 14 24  1  0
 24 25  1  0
  7  2  1  0
 25 11  1  0
 23 18  1  0
M  END
>  <energy_score>  (2285) 
-11.70027

>  <inchikey>  (2285) 
None

>  <smiles>  (2285) 
None

>  <ref_pdb>  (2285) 
A4706a

>  <alias>  (2285) 
None

>  <HIPPO Pose ID>  (2285) 
499929

>  <name>  (2285) 
P499929

>  <HIPPO Compound ID>  (2285) 
314447

>  <ref_mols>  (2285) 
A4706a,A0875a

>  <distance_score>  (2285) 
1.908001

>  <inspiration_score>  (2285) 
None

$$$$
P499930
     RDKit          3D

 25 27  0  0  0  0  0  0  0  0999 V2000
    9.9668   15.0680   18.9700 C   0  0  0  0  0  0  0  0  0  0  0  0
   10.0973   15.5473   20.4061 C   0  0  0  0  0  0  0  0  0  0  0  0
    9.6667   17.0114   20.4741 C   0  0  0  0  0  0  0  0  0  0  0  0
   11.5690   15.2500   20.7100 C   0  0  0  0  0  0  0  0  0  0  0  0
   11.7664   15.5123   22.0753 O   0  0  0  0  0  0  0  0  0  0  0  0
   10.5657   15.0553   22.6734 C   0  0  0  0  0  0  0  0  0  0  0  0
    9.4719   14.7897   21.5926 C   0  0  1  0  0  0  0  0  0  0  0  0
    8.1978   15.2743   22.1623 O   0  0  0  0  0  0  0  0  0  0  0  0
    7.1803   14.3814   22.3377 C   0  0  0  0  0  0  0  0  0  0  0  0
    7.0509   13.3624   21.6648 O   0  0  0  0  0  0  0  0  0  0  0  0
    6.1741   14.6858   23.4805 C   0  0  0  0  0  0  0  0  0  0  0  0
    5.6169   13.3682   24.0801 C   0  0  0  0  0  0  0  0  0  0  0  0
    6.5280   12.6074   25.0676 C   0  0  0  0  0  0  0  0  0  0  0  0
    7.4636   13.5327   25.7654 N   0  0  0  0  0  0  0  0  0  0  0  0
    8.9842   13.6645   25.0519 S   0  0  0  0  0  0  0  0  0  0  0  0
    8.8915   13.1032   23.7360 O   0  0  0  0  0  0  0  0  0  0  0  0
    9.4620   14.9989   25.3157 O   0  0  0  0  0  0  0  0  0  0  0  0
    9.9634   12.6574   25.9076 N   0  0  0  0  0  0  0  0  0  0  0  0
   10.6245   13.3517   26.9991 C   0  0  0  0  0  0  0  0  0  0  0  0
   12.0081   13.8070   26.6608 C   0  0  0  0  0  0  0  0  0  0  0  0
   12.8695   12.6206   26.3056 C   0  0  0  0  0  0  0  0  0  0  0  0
   12.2567   11.9007   25.1358 C   0  0  0  0  0  0  0  0  0  0  0  0
   10.7484   11.6354   25.1783 C   0  0  0  0  0  0  0  0  0  0  0  0
    6.7992   14.8481   25.9843 C   0  0  0  0  0  0  0  0  0  0  0  0
    6.6058   15.5834   24.6457 C   0  0  0  0  0  0  0  0  0  0  0  0
  1  2  1  0
  2  3  1  0
  2  4  1  0
  4  5  1  0
  5  6  1  0
  6  7  1  0
  7  8  1  1
  8  9  1  0
  9 10  2  0
  9 11  1  0
 11 12  1  0
 12 13  1  0
 13 14  1  0
 14 15  1  0
 15 16  2  0
 15 17  2  0
 15 18  1  0
 18 19  1  0
 19 20  1  0
 20 21  1  0
 21 22  1  0
 22 23  1  0
 14 24  1  0
 24 25  1  0
  7  2  1  0
 25 11  1  0
 23 18  1  0
M  END
>  <energy_score>  (2286) 
-24.408126

>  <inchikey>  (2286) 
None

>  <smiles>  (2286) 
None

>  <ref_pdb>  (2286) 
A4706a

>  <alias>  (2286) 
None

>  <HIPPO Pose ID>  (2286) 
499930

>  <name>  (2286) 
P499930

>  <HIPPO Compound ID>  (2286) 
314447

>  <ref_mols>  (2286) 
A0875a,A4706a

>  <distance_score>  (2286) 
1.898119

>  <inspiration_score>  (2286) 
None

$$$$
P499931
     RDKit          3D

 25 28  0  0  0  0  0  0  0  0999 V2000
    6.0349   13.2389   21.8759 O   0  0  0  0  0  0  0  0  0  0  0  0
    7.0247   13.7663   22.3756 C   0  0  0  0  0  0  0  0  0  0  0  0
    8.0516   14.1878   21.5864 O   0  0  0  0  0  0  0  0  0  0  0  0
    9.2627   14.7732   22.1041 C   0  0  1  0  0  0  0  0  0  0  0  0
   10.3279   13.7703   22.5112 C   0  0  0  0  0  0  0  0  0  0  0  0
   11.5431   14.5166   22.6339 O   0  0  0  0  0  0  0  0  0  0  0  0
   11.4932   15.4921   21.5739 C   0  0  0  0  0  0  0  0  0  0  0  0
   10.0628   15.5492   21.1120 C   0  0  0  0  0  0  0  0  0  0  0  0
    9.8096   15.6860   19.6315 C   0  0  0  0  0  0  0  0  0  0  0  0
    9.4263   16.7974   20.5710 C   0  0  0  0  0  0  0  0  0  0  0  0
    7.1563   13.8472   23.8744 C   0  0  0  0  0  0  0  0  0  0  0  0
    6.6840   12.6024   24.6334 C   0  0  0  0  0  0  0  0  0  0  0  0
    6.9816   12.7074   26.1336 C   0  0  0  0  0  0  0  0  0  0  0  0
    7.5715   14.0089   26.5020 N   0  0  0  0  0  0  0  0  0  0  0  0
    9.1929   14.4699   26.4694 S   0  0  0  0  0  0  0  0  0  0  0  0
    9.4971   15.0500   25.1816 O   0  0  0  0  0  0  0  0  0  0  0  0
    9.3968   15.2826   27.6404 O   0  0  0  0  0  0  0  0  0  0  0  0
   10.2141   13.1233   26.6277 N   0  0  0  0  0  0  0  0  0  0  0  0
    9.9558   12.0000   25.7306 C   0  0  0  0  0  0  0  0  0  0  0  0
   11.1121   11.3035   25.0808 C   0  0  0  0  0  0  0  0  0  0  0  0
   12.4860   11.9401   25.1867 C   0  0  0  0  0  0  0  0  0  0  0  0
   12.6876   12.5840   26.5270 C   0  0  0  0  0  0  0  0  0  0  0  0
   11.6213   13.6332   26.7236 C   0  0  0  0  0  0  0  0  0  0  0  0
    6.6589   15.1038   26.0416 C   0  0  0  0  0  0  0  0  0  0  0  0
    6.5410   15.0954   24.5048 C   0  0  0  0  0  0  0  0  0  0  0  0
  1  2  2  0
  2  3  1  0
  4  3  1  6
  4  5  1  0
  5  6  1  0
  6  7  1  0
  7  8  1  0
  8  9  1  0
  9 10  1  0
  2 11  1  0
 11 12  1  0
 12 13  1  0
 13 14  1  0
 14 15  1  0
 15 16  2  0
 15 17  2  0
 15 18  1  0
 18 19  1  0
 19 20  1  0
 20 21  1  0
 21 22  1  0
 22 23  1  0
 14 24  1  0
 24 25  1  0
  8  4  1  0
 25 11  1  0
 10  8  1  0
 23 18  1  0
M  END
>  <energy_score>  (2287) 
-4.028385

>  <inchikey>  (2287) 
None

>  <smiles>  (2287) 
None

>  <ref_pdb>  (2287) 
A4706a

>  <alias>  (2287) 
None

>  <HIPPO Pose ID>  (2287) 
499931

>  <name>  (2287) 
P499931

>  <HIPPO Compound ID>  (2287) 
314448

>  <ref_mols>  (2287) 
A4706a,A0875a

>  <distance_score>  (2287) 
1.608701

>  <inspiration_score>  (2287) 
None

$$$$
P499932
     RDKit          3D

 25 28  0  0  0  0  0  0  0  0999 V2000
    7.0279   13.0328   22.1707 O   0  0  0  0  0  0  0  0  0  0  0  0
    7.0314   14.1441   22.6902 C   0  0  0  0  0  0  0  0  0  0  0  0
    7.7050   15.1754   22.1153 O   0  0  0  0  0  0  0  0  0  0  0  0
    9.1392   15.1005   22.1672 C   0  0  1  0  0  0  0  0  0  0  0  0
    9.9095   13.8054   21.9712 C   0  0  0  0  0  0  0  0  0  0  0  0
   11.2950   14.2163   22.1065 O   0  0  0  0  0  0  0  0  0  0  0  0
   11.3598   15.5318   21.4952 C   0  0  0  0  0  0  0  0  0  0  0  0
    9.9282   15.8757   21.1635 C   0  0  0  0  0  0  0  0  0  0  0  0
    9.6562   15.8989   19.6807 C   0  0  0  0  0  0  0  0  0  0  0  0
    9.3421   17.0988   20.5397 C   0  0  0  0  0  0  0  0  0  0  0  0
    6.1835   14.4706   23.9594 C   0  0  0  0  0  0  0  0  0  0  0  0
    5.6475   13.1869   24.6576 C   0  0  0  0  0  0  0  0  0  0  0  0
    6.3530   12.6660   25.9236 C   0  0  0  0  0  0  0  0  0  0  0  0
    7.6034   13.4123   26.2090 N   0  0  0  0  0  0  0  0  0  0  0  0
    8.8681   13.0292   25.1827 S   0  0  0  0  0  0  0  0  0  0  0  0
    9.3769   14.2669   24.6562 O   0  0  0  0  0  0  0  0  0  0  0  0
    8.4287   11.9371   24.3537 O   0  0  0  0  0  0  0  0  0  0  0  0
   10.1370   12.4507   26.1063 N   0  0  0  0  0  0  0  0  0  0  0  0
   10.7338   13.5006   26.9454 C   0  0  0  0  0  0  0  0  0  0  0  0
   12.1981   13.6961   26.7353 C   0  0  0  0  0  0  0  0  0  0  0  0
   12.9956   12.4244   26.6405 C   0  0  0  0  0  0  0  0  0  0  0  0
   12.5308   11.7030   25.4131 C   0  0  0  0  0  0  0  0  0  0  0  0
   11.0243   11.6101   25.2318 C   0  0  0  0  0  0  0  0  0  0  0  0
    7.2643   14.8530   26.3166 C   0  0  0  0  0  0  0  0  0  0  0  0
    6.7845   15.4444   24.9807 C   0  0  0  0  0  0  0  0  0  0  0  0
  1  2  2  0
  2  3  1  0
  4  3  1  6
  4  5  1  0
  5  6  1  0
  6  7  1  0
  7  8  1  0
  8  9  1  0
  9 10  1  0
  2 11  1  0
 11 12  1  0
 12 13  1  0
 13 14  1  0
 14 15  1  0
 15 16  2  0
 15 17  2  0
 15 18  1  0
 18 19  1  0
 19 20  1  0
 20 21  1  0
 21 22  1  0
 22 23  1  0
 14 24  1  0
 24 25  1  0
  8  4  1  0
 25 11  1  0
 10  8  1  0
 23 18  1  0
M  END
>  <energy_score>  (2288) 
-14.474031

>  <inchikey>  (2288) 
None

>  <smiles>  (2288) 
None

>  <ref_pdb>  (2288) 
A4706a

>  <alias>  (2288) 
None

>  <HIPPO Pose ID>  (2288) 
499932

>  <name>  (2288) 
P499932

>  <HIPPO Compound ID>  (2288) 
314448

>  <ref_mols>  (2288) 
A4706a,A0875a

>  <distance_score>  (2288) 
1.883495

>  <inspiration_score>  (2288) 
None

$$$$
P499933
     RDKit          3D

 25 28  0  0  0  0  0  0  0  0999 V2000
    6.7218   13.3871   21.7215 O   0  0  0  0  0  0  0  0  0  0  0  0
    7.5604   13.9812   22.3833 C   0  0  0  0  0  0  0  0  0  0  0  0
    8.4775   14.8577   21.8859 O   0  0  0  0  0  0  0  0  0  0  0  0
    9.6021   14.2461   21.2162 C   0  0  2  0  0  0  0  0  0  0  0  0
   10.6983   13.8467   22.1845 C   0  0  0  0  0  0  0  0  0  0  0  0
   11.3461   15.1811   22.5155 C   0  0  0  0  0  0  0  0  0  0  0  0
   11.3183   15.9097   21.2876 O   0  0  0  0  0  0  0  0  0  0  0  0
   10.3808   15.2334   20.4278 C   0  0  0  0  0  0  0  0  0  0  0  0
   10.9802   14.8807   19.0858 C   0  0  0  0  0  0  0  0  0  0  0  0
    9.8770   15.8793   19.1996 C   0  0  0  0  0  0  0  0  0  0  0  0
    7.7550   13.7292   23.8478 C   0  0  0  0  0  0  0  0  0  0  0  0
    7.6743   12.2531   24.2345 C   0  0  0  0  0  0  0  0  0  0  0  0
    8.1952   12.0111   25.6449 C   0  0  0  0  0  0  0  0  0  0  0  0
    8.2796   13.2651   26.3975 N   0  0  0  0  0  0  0  0  0  0  0  0
    9.6849   14.1724   26.5630 S   0  0  0  0  0  0  0  0  0  0  0  0
    9.5646   14.7650   27.8700 O   0  0  0  0  0  0  0  0  0  0  0  0
    9.9041   15.0152   25.4138 O   0  0  0  0  0  0  0  0  0  0  0  0
   10.9900   13.0401   26.6032 N   0  0  0  0  0  0  0  0  0  0  0  0
   12.0617   13.6138   27.4623 C   0  0  0  0  0  0  0  0  0  0  0  0
   13.2925   12.7125   27.5479 C   0  0  0  0  0  0  0  0  0  0  0  0
   13.8619   12.3249   26.2066 C   0  0  0  0  0  0  0  0  0  0  0  0
   12.7558   11.8397   25.3170 C   0  0  0  0  0  0  0  0  0  0  0  0
   11.5589   12.7676   25.2585 C   0  0  0  0  0  0  0  0  0  0  0  0
    7.0418   14.0939   26.2378 C   0  0  0  0  0  0  0  0  0  0  0  0
    6.9014   14.5753   24.7852 C   0  0  0  0  0  0  0  0  0  0  0  0
  1  2  2  0
  2  3  1  0
  4  3  1  1
  4  5  1  0
  5  6  1  0
  6  7  1  0
  7  8  1  0
  8  9  1  0
  9 10  1  0
  2 11  1  0
 11 12  1  0
 12 13  1  0
 13 14  1  0
 14 15  1  0
 15 16  2  0
 15 17  2  0
 15 18  1  0
 18 19  1  0
 19 20  1  0
 20 21  1  0
 21 22  1  0
 22 23  1  0
 14 24  1  0
 24 25  1  0
  8  4  1  0
 25 11  1  0
 10  8  1  0
 23 18  1  0
M  END
>  <energy_score>  (2289) 
-26.970276

>  <inchikey>  (2289) 
None

>  <smiles>  (2289) 
None

>  <ref_pdb>  (2289) 
A4706a

>  <alias>  (2289) 
None

>  <HIPPO Pose ID>  (2289) 
499933

>  <name>  (2289) 
P499933

>  <HIPPO Compound ID>  (2289) 
314449

>  <ref_mols>  (2289) 
A0875a,A4706a

>  <distance_score>  (2289) 
1.762608

>  <inspiration_score>  (2289) 
None

$$$$
P499934
     RDKit          3D

 25 27  0  0  0  0  0  0  0  0999 V2000
    6.4983   13.1580   21.9471 O   0  0  0  0  0  0  0  0  0  0  0  0
    7.0156   13.9287   22.7372 C   0  0  0  0  0  0  0  0  0  0  0  0
    7.8034   14.9940   22.4134 O   0  0  0  0  0  0  0  0  0  0  0  0
    9.0849   14.6537   21.8164 C   0  0  0  0  0  0  0  0  0  0  0  0
    9.0623   15.0997   20.3771 C   0  0  0  0  0  0  0  0  0  0  0  0
   10.0229   14.4138   19.5896 O   0  0  0  0  0  0  0  0  0  0  0  0
   11.2920   15.0201   19.5640 C   0  0  0  0  0  0  0  0  0  0  0  0
   11.9173   15.0374   20.9466 C   0  0  0  0  0  0  0  0  0  0  0  0
   11.2440   15.9375   21.8131 O   0  0  0  0  0  0  0  0  0  0  0  0
   10.2250   15.3267   22.5874 C   0  0  0  0  0  0  0  0  0  0  0  0
    6.9669   13.7836   24.2228 C   0  0  0  0  0  0  0  0  0  0  0  0
    6.5686   12.4589   24.8621 C   0  0  0  0  0  0  0  0  0  0  0  0
    7.1674   12.3793   26.2815 C   0  0  0  0  0  0  0  0  0  0  0  0
    7.6833   13.6962   26.7189 N   0  0  0  0  0  0  0  0  0  0  0  0
    9.2508   14.2830   26.4920 S   0  0  0  0  0  0  0  0  0  0  0  0
    9.2647   15.2038   25.3796 O   0  0  0  0  0  0  0  0  0  0  0  0
    9.6893   14.7437   27.7839 O   0  0  0  0  0  0  0  0  0  0  0  0
   10.2956   13.0471   26.0539 N   0  0  0  0  0  0  0  0  0  0  0  0
   10.0620   12.2205   24.8624 C   0  0  0  0  0  0  0  0  0  0  0  0
   10.8687   10.9579   25.0743 C   0  0  0  0  0  0  0  0  0  0  0  0
   12.3342   11.3092   25.4562 C   0  0  0  0  0  0  0  0  0  0  0  0
   12.6487   12.7629   25.1852 C   0  0  0  0  0  0  0  0  0  0  0  0
   11.7053   13.5997   26.0451 C   0  0  0  0  0  0  0  0  0  0  0  0
    6.6363   14.7502   26.5237 C   0  0  0  0  0  0  0  0  0  0  0  0
    6.3784   14.9461   25.0179 C   0  0  0  0  0  0  0  0  0  0  0  0
  1  2  2  0
  2  3  1  0
  3  4  1  0
  4  5  1  0
  5  6  1  0
  6  7  1  0
  7  8  1  0
  8  9  1  0
  9 10  1  0
  2 11  1  0
 11 12  1  0
 12 13  1  0
 13 14  1  0
 14 15  1  0
 15 16  2  0
 15 17  2  0
 15 18  1  0
 18 19  1  0
 19 20  1  0
 20 21  1  0
 21 22  1  0
 22 23  1  0
 14 24  1  0
 24 25  1  0
 10  4  1  0
 25 11  1  0
 23 18  1  0
M  END
>  <energy_score>  (2290) 
-30.611539

>  <inchikey>  (2290) 
None

>  <smiles>  (2290) 
None

>  <ref_pdb>  (2290) 
A4706a

>  <alias>  (2290) 
None

>  <HIPPO Pose ID>  (2290) 
499934

>  <name>  (2290) 
P499934

>  <HIPPO Compound ID>  (2290) 
314450

>  <ref_mols>  (2290) 
A4706a,A0875a

>  <distance_score>  (2290) 
1.570254

>  <inspiration_score>  (2290) 
None

$$$$
P499935
     RDKit          3D

 25 27  0  0  0  0  0  0  0  0999 V2000
   15.8715   10.3965   26.1843 C   0  0  0  0  0  0  0  0  0  0  0  0
   15.1115   11.3421   27.1067 C   0  0  0  0  0  0  0  0  0  0  0  0
   15.4805   12.7418   26.6770 C   0  0  0  0  0  0  0  0  0  0  0  0
   13.6635   11.3673   26.9207 O   0  0  0  0  0  0  0  0  0  0  0  0
   13.1262   11.0309   25.7328 C   0  0  0  0  0  0  0  0  0  0  0  0
   13.3161    9.9338   25.2281 O   0  0  0  0  0  0  0  0  0  0  0  0
   12.2086   12.0378   25.1404 C   0  0  0  0  0  0  0  0  0  0  0  0
   12.1329   13.3735   25.8493 C   0  0  0  0  0  0  0  0  0  0  0  0
   10.7163   13.8030   26.1258 C   0  0  0  0  0  0  0  0  0  0  0  0
    9.9106   13.6338   24.9141 N   0  0  0  0  0  0  0  0  0  0  0  0
    8.5241   14.5129   24.7893 S   0  0  0  0  0  0  0  0  0  0  0  0
    8.4353   14.9691   23.4272 O   0  0  0  0  0  0  0  0  0  0  0  0
    8.4841   15.4193   25.9122 O   0  0  0  0  0  0  0  0  0  0  0  0
    7.3251   13.3367   25.0311 N   0  0  0  0  0  0  0  0  0  0  0  0
    7.4791   12.4747   26.2296 C   0  0  0  0  0  0  0  0  0  0  0  0
    6.1681   11.8110   26.6104 C   0  0  0  0  0  0  0  0  0  0  0  0
    5.1545   12.8620   27.0417 C   0  0  0  0  0  0  0  0  0  0  0  0
    5.3091   14.1565   26.2443 C   0  0  0  0  0  0  0  0  0  0  0  0
    5.9467   13.9058   24.8808 C   0  0  0  0  0  0  0  0  0  0  0  0
   10.0608   12.4381   24.0792 C   0  0  0  0  0  0  0  0  0  0  0  0
   10.8173   11.4312   24.9136 C   0  0  0  0  0  0  0  0  0  0  0  0
   15.4344   11.1851   28.6093 C   0  0  1  0  0  0  0  0  0  0  0  0
   14.4437   11.7406   29.5979 C   0  0  0  0  0  0  0  0  0  0  0  0
   16.4924   10.2189   29.1442 C   0  0  0  0  0  0  0  0  0  0  0  0
   16.7828   11.5969   28.9343 O   0  0  0  0  0  0  0  0  0  0  0  0
  1  2  1  0
  2  3  1  0
  2  4  1  0
  4  5  1  0
  5  6  2  0
  5  7  1  0
  7  8  1  0
  8  9  1  0
  9 10  1  0
 10 11  1  0
 11 12  2  0
 11 13  2  0
 11 14  1  0
 14 15  1  0
 15 16  1  0
 16 17  1  0
 17 18  1  0
 18 19  1  0
 10 20  1  0
 20 21  1  0
 22  2  1  0
 22 23  1  1
 22 24  1  0
 24 25  1  0
 21  7  1  0
 25 22  1  0
 19 14  1  0
M  END
>  <energy_score>  (2291) 
-37.472761

>  <inchikey>  (2291) 
None

>  <smiles>  (2291) 
None

>  <ref_pdb>  (2291) 
A4706a

>  <alias>  (2291) 
None

>  <HIPPO Pose ID>  (2291) 
499935

>  <name>  (2291) 
P499935

>  <HIPPO Compound ID>  (2291) 
314451

>  <ref_mols>  (2291) 
A0875a,A4706a

>  <distance_score>  (2291) 
1.654384

>  <inspiration_score>  (2291) 
None

$$$$
P499936
     RDKit          3D

 26 28  0  0  0  0  0  0  0  0999 V2000
   11.4808   14.8017   18.1713 C   0  0  0  0  0  0  0  0  0  0  0  0
   10.3523   14.3988   18.9185 O   0  0  0  0  0  0  0  0  0  0  0  0
   10.3456   15.0617   20.1563 C   0  0  2  0  0  0  0  0  0  0  0  0
   11.5269   14.6209   21.0016 C   0  0  0  0  0  0  0  0  0  0  0  0
   11.2319   14.7462   22.4509 C   0  0  0  0  0  0  0  0  0  0  0  0
   10.4522   15.9887   22.7350 C   0  0  0  0  0  0  0  0  0  0  0  0
    9.2007   16.2357   21.8709 C   0  0  0  0  0  0  0  0  0  0  0  0
    8.9818   15.1136   20.8782 C   0  0  2  0  0  0  0  0  0  0  0  0
    8.4541   13.9711   21.5783 O   0  0  0  0  0  0  0  0  0  0  0  0
    7.2245   14.1886   22.1970 C   0  0  0  0  0  0  0  0  0  0  0  0
    6.1892   14.4840   21.6258 O   0  0  0  0  0  0  0  0  0  0  0  0
    7.3726   14.0267   23.6943 C   0  0  0  0  0  0  0  0  0  0  0  0
    6.8039   12.7469   24.3256 C   0  0  0  0  0  0  0  0  0  0  0  0
    7.1242   12.6949   25.8348 C   0  0  0  0  0  0  0  0  0  0  0  0
    8.4092   13.4536   26.0885 N   0  0  0  0  0  0  0  0  0  0  0  0
    9.7172   12.5769   25.4573 S   0  0  0  0  0  0  0  0  0  0  0  0
    9.7467   11.4107   26.2808 O   0  0  0  0  0  0  0  0  0  0  0  0
    9.5683   12.3760   24.0411 O   0  0  0  0  0  0  0  0  0  0  0  0
   11.1617   13.3790   25.6644 N   0  0  0  0  0  0  0  0  0  0  0  0
   11.6475   13.7304   27.0056 C   0  0  0  0  0  0  0  0  0  0  0  0
   12.9118   12.9756   27.4827 C   0  0  0  0  0  0  0  0  0  0  0  0
   13.8527   12.3549   26.4705 C   0  0  0  0  0  0  0  0  0  0  0  0
   13.0497   11.7787   25.3416 C   0  0  0  0  0  0  0  0  0  0  0  0
   12.2371   12.9073   24.7544 C   0  0  0  0  0  0  0  0  0  0  0  0
    8.1884   14.9058   25.8217 C   0  0  0  0  0  0  0  0  0  0  0  0
    7.1469   15.1444   24.6942 C   0  0  0  0  0  0  0  0  0  0  0  0
  1  2  1  0
  3  2  1  6
  3  4  1  0
  4  5  1  0
  5  6  1  0
  6  7  1  0
  7  8  1  0
  8  9  1  1
  9 10  1  0
 10 11  2  0
 10 12  1  0
 12 13  1  0
 13 14  1  0
 14 15  1  0
 15 16  1  0
 16 17  2  0
 16 18  2  0
 16 19  1  0
 19 20  1  0
 20 21  1  0
 21 22  1  0
 22 23  1  0
 23 24  1  0
 15 25  1  0
 25 26  1  0
  8  3  1  0
 26 12  1  0
 24 19  1  0
M  END
>  <energy_score>  (2292) 
-1.044959

>  <inchikey>  (2292) 
None

>  <smiles>  (2292) 
None

>  <ref_pdb>  (2292) 
A4706a

>  <alias>  (2292) 
None

>  <HIPPO Pose ID>  (2292) 
499936

>  <name>  (2292) 
P499936

>  <HIPPO Compound ID>  (2292) 
314452

>  <ref_mols>  (2292) 
A4706a,A0875a

>  <distance_score>  (2292) 
1.689085

>  <inspiration_score>  (2292) 
None

$$$$
P499937
     RDKit          3D

 26 28  0  0  0  0  0  0  0  0999 V2000
   11.1690   14.9018   18.6366 C   0  0  0  0  0  0  0  0  0  0  0  0
   10.3653   15.3769   19.7012 O   0  0  0  0  0  0  0  0  0  0  0  0
    9.9942   14.3403   20.6116 C   0  0  1  0  0  0  0  0  0  0  0  0
   11.1429   13.8903   21.5022 C   0  0  0  0  0  0  0  0  0  0  0  0
   11.7377   15.0233   22.2672 C   0  0  0  0  0  0  0  0  0  0  0  0
   10.7560   16.1265   22.5420 C   0  0  0  0  0  0  0  0  0  0  0  0
    9.2497   15.9741   22.2597 C   0  0  0  0  0  0  0  0  0  0  0  0
    8.8082   14.7938   21.4364 C   0  0  2  0  0  0  0  0  0  0  0  0
    8.3364   13.7476   22.3239 O   0  0  0  0  0  0  0  0  0  0  0  0
    7.0430   13.8283   22.7350 C   0  0  0  0  0  0  0  0  0  0  0  0
    6.1596   14.4223   22.1334 O   0  0  0  0  0  0  0  0  0  0  0  0
    6.7911   13.1396   24.0801 C   0  0  0  0  0  0  0  0  0  0  0  0
    7.7773   11.9895   24.3817 C   0  0  0  0  0  0  0  0  0  0  0  0
    8.1052   11.7716   25.8376 C   0  0  0  0  0  0  0  0  0  0  0  0
    8.3647   13.0501   26.4880 N   0  0  0  0  0  0  0  0  0  0  0  0
    9.7112   13.9614   26.0542 S   0  0  0  0  0  0  0  0  0  0  0  0
    9.6825   14.2545   24.6491 O   0  0  0  0  0  0  0  0  0  0  0  0
    9.7708   15.0341   27.0169 O   0  0  0  0  0  0  0  0  0  0  0  0
   11.0345   12.9094   26.3191 N   0  0  0  0  0  0  0  0  0  0  0  0
   11.4980   12.1955   25.1053 C   0  0  0  0  0  0  0  0  0  0  0  0
   12.6706   11.2546   25.4123 C   0  0  0  0  0  0  0  0  0  0  0  0
   13.5236   11.6281   26.6014 C   0  0  0  0  0  0  0  0  0  0  0  0
   13.5330   13.1017   26.6690 C   0  0  0  0  0  0  0  0  0  0  0  0
   12.1374   13.6388   27.0015 C   0  0  0  0  0  0  0  0  0  0  0  0
    7.0991   13.8332   26.5438 C   0  0  0  0  0  0  0  0  0  0  0  0
    6.6807   14.2520   25.1440 C   0  0  0  0  0  0  0  0  0  0  0  0
  1  2  1  0
  3  2  1  1
  3  4  1  0
  4  5  1  0
  5  6  1  0
  6  7  1  0
  7  8  1  0
  8  9  1  1
  9 10  1  0
 10 11  2  0
 10 12  1  0
 12 13  1  0
 13 14  1  0
 14 15  1  0
 15 16  1  0
 16 17  2  0
 16 18  2  0
 16 19  1  0
 19 20  1  0
 20 21  1  0
 21 22  1  0
 22 23  1  0
 23 24  1  0
 15 25  1  0
 25 26  1  0
  8  3  1  0
 26 12  1  0
 24 19  1  0
M  END
>  <energy_score>  (2293) 
-55.795213

>  <inchikey>  (2293) 
None

>  <smiles>  (2293) 
None

>  <ref_pdb>  (2293) 
A4706a

>  <alias>  (2293) 
None

>  <HIPPO Pose ID>  (2293) 
499937

>  <name>  (2293) 
P499937

>  <HIPPO Compound ID>  (2293) 
314452

>  <ref_mols>  (2293) 
A0875a,A4706a

>  <distance_score>  (2293) 
1.467861

>  <inspiration_score>  (2293) 
None

$$$$
P499938
     RDKit          3D

 26 28  0  0  0  0  0  0  0  0999 V2000
   10.6952   15.2510   19.0889 C   0  0  0  0  0  0  0  0  0  0  0  0
    9.8083   16.1427   19.7328 O   0  0  0  0  0  0  0  0  0  0  0  0
    9.5642   16.0544   21.1486 C   0  0  2  0  0  0  0  0  0  0  0  0
   10.8233   16.1706   22.0098 C   0  0  0  0  0  0  0  0  0  0  0  0
   11.7128   14.9619   22.0774 C   0  0  0  0  0  0  0  0  0  0  0  0
   10.9115   13.7696   22.4905 C   0  0  0  0  0  0  0  0  0  0  0  0
    9.5579   13.6411   21.8180 C   0  0  0  0  0  0  0  0  0  0  0  0
    8.6845   14.8557   21.5372 C   0  0  1  0  0  0  0  0  0  0  0  0
    7.7904   15.1253   22.6512 O   0  0  0  0  0  0  0  0  0  0  0  0
    6.8342   14.1876   22.8893 C   0  0  0  0  0  0  0  0  0  0  0  0
    6.6452   13.2067   22.1645 O   0  0  0  0  0  0  0  0  0  0  0  0
    5.9861   14.3823   24.1563 C   0  0  0  0  0  0  0  0  0  0  0  0
    5.8935   13.0317   24.9143 C   0  0  0  0  0  0  0  0  0  0  0  0
    6.5665   12.9314   26.2743 C   0  0  0  0  0  0  0  0  0  0  0  0
    7.4669   14.0399   26.5508 N   0  0  0  0  0  0  0  0  0  0  0  0
    9.0681   14.1826   26.1062 S   0  0  0  0  0  0  0  0  0  0  0  0
    9.1423   14.7790   24.8008 O   0  0  0  0  0  0  0  0  0  0  0  0
    9.7351   14.8306   27.2089 O   0  0  0  0  0  0  0  0  0  0  0  0
    9.7411   12.6396   25.9722 N   0  0  0  0  0  0  0  0  0  0  0  0
   11.2275   12.7515   26.0460 C   0  0  0  0  0  0  0  0  0  0  0  0
   12.0129   11.5959   25.4688 C   0  0  0  0  0  0  0  0  0  0  0  0
   11.1466   10.3892   25.1182 C   0  0  0  0  0  0  0  0  0  0  0  0
   10.0399   10.8292   24.2036 C   0  0  0  0  0  0  0  0  0  0  0  0
    9.1201   11.7308   24.9784 C   0  0  0  0  0  0  0  0  0  0  0  0
    6.7165   15.3118   26.4767 C   0  0  0  0  0  0  0  0  0  0  0  0
    6.2884   15.6027   25.0390 C   0  0  0  0  0  0  0  0  0  0  0  0
  1  2  1  0
  3  2  1  6
  3  4  1  0
  4  5  1  0
  5  6  1  0
  6  7  1  0
  7  8  1  0
  8  9  1  1
  9 10  1  0
 10 11  2  0
 10 12  1  0
 12 13  1  0
 13 14  1  0
 14 15  1  0
 15 16  1  0
 16 17  2  0
 16 18  2  0
 16 19  1  0
 19 20  1  0
 20 21  1  0
 21 22  1  0
 22 23  1  0
 23 24  1  0
 15 25  1  0
 25 26  1  0
  8  3  1  0
 26 12  1  0
 24 19  1  0
M  END
>  <energy_score>  (2294) 
-23.657815

>  <inchikey>  (2294) 
None

>  <smiles>  (2294) 
None

>  <ref_pdb>  (2294) 
A4706a

>  <alias>  (2294) 
None

>  <HIPPO Pose ID>  (2294) 
499938

>  <name>  (2294) 
P499938

>  <HIPPO Compound ID>  (2294) 
314452

>  <ref_mols>  (2294) 
A4706a,A0875a

>  <distance_score>  (2294) 
1.888767

>  <inspiration_score>  (2294) 
None

$$$$
P499939
     RDKit          3D

 26 28  0  0  0  0  0  0  0  0999 V2000
   11.2971   13.4384   22.0229 C   0  0  0  0  0  0  0  0  0  0  0  0
   10.7884   14.7438   21.4904 C   0  0  0  0  0  0  0  0  0  0  0  0
   11.6352   15.8839   22.0135 C   0  0  0  0  0  0  0  0  0  0  0  0
   10.7700   14.7714   20.0655 O   0  0  0  0  0  0  0  0  0  0  0  0
    9.6784   15.6327   19.7639 C   0  0  0  0  0  0  0  0  0  0  0  0
    8.6990   15.4278   20.9089 C   0  0  2  0  0  0  0  0  0  0  0  0
    8.0685   16.7182   21.4402 C   0  0  0  0  0  0  0  0  0  0  0  0
    7.0575   16.5678   22.4753 O   0  0  0  0  0  0  0  0  0  0  0  0
    6.4227   15.3884   22.6491 C   0  0  0  0  0  0  0  0  0  0  0  0
    5.5941   14.9178   21.8830 O   0  0  0  0  0  0  0  0  0  0  0  0
    6.9598   14.7012   23.8808 C   0  0  0  0  0  0  0  0  0  0  0  0
    6.9002   13.1895   23.7490 C   0  0  0  0  0  0  0  0  0  0  0  0
    7.6062   12.4445   24.8728 C   0  0  0  0  0  0  0  0  0  0  0  0
    8.0138   13.3365   25.9747 N   0  0  0  0  0  0  0  0  0  0  0  0
    9.5327   14.0848   25.9683 S   0  0  0  0  0  0  0  0  0  0  0  0
    9.8949   14.5702   24.6659 O   0  0  0  0  0  0  0  0  0  0  0  0
    9.5554   14.9737   27.1044 O   0  0  0  0  0  0  0  0  0  0  0  0
   10.6360   12.8600   26.3029 N   0  0  0  0  0  0  0  0  0  0  0  0
   10.6999   11.7198   25.3672 C   0  0  0  0  0  0  0  0  0  0  0  0
   12.0550   11.0559   25.4944 C   0  0  0  0  0  0  0  0  0  0  0  0
   13.1022   11.9340   24.9223 C   0  0  0  0  0  0  0  0  0  0  0  0
   13.0588   13.2435   25.6452 C   0  0  0  0  0  0  0  0  0  0  0  0
   11.9712   13.4036   26.7105 C   0  0  0  0  0  0  0  0  0  0  0  0
    6.8647   14.2210   26.3661 C   0  0  0  0  0  0  0  0  0  0  0  0
    6.4332   15.1600   25.2290 C   0  0  0  0  0  0  0  0  0  0  0  0
    9.4634   14.8711   21.9685 O   0  0  0  0  0  0  0  0  0  0  0  0
  1  2  1  0
  2  3  1  0
  2  4  1  0
  4  5  1  0
  5  6  1  0
  6  7  1  1
  7  8  1  0
  8  9  1  0
  9 10  2  0
  9 11  1  0
 11 12  1  0
 12 13  1  0
 13 14  1  0
 14 15  1  0
 15 16  2  0
 15 17  2  0
 15 18  1  0
 18 19  1  0
 19 20  1  0
 20 21  1  0
 21 22  1  0
 22 23  1  0
 14 24  1  0
 24 25  1  0
  6 26  1  0
 26  2  1  0
 25 11  1  0
 23 18  1  0
M  END
>  <energy_score>  (2295) 
-11.599855

>  <inchikey>  (2295) 
None

>  <smiles>  (2295) 
None

>  <ref_pdb>  (2295) 
A4706a

>  <alias>  (2295) 
None

>  <HIPPO Pose ID>  (2295) 
499939

>  <name>  (2295) 
P499939

>  <HIPPO Compound ID>  (2295) 
314453

>  <ref_mols>  (2295) 
A4706a,A0875a

>  <distance_score>  (2295) 
1.729513

>  <inspiration_score>  (2295) 
None

$$$$
P499940
     RDKit          3D

 26 28  0  0  0  0  0  0  0  0999 V2000
   11.3804   14.5723   19.4080 C   0  0  0  0  0  0  0  0  0  0  0  0
   10.9108   14.6440   20.8529 C   0  0  0  0  0  0  0  0  0  0  0  0
   11.6370   13.7954   21.8559 C   0  0  0  0  0  0  0  0  0  0  0  0
   11.0862   16.0074   21.2217 O   0  0  0  0  0  0  0  0  0  0  0  0
    9.8255   16.3866   21.7372 C   0  0  0  0  0  0  0  0  0  0  0  0
    8.8641   15.5101   21.0170 C   0  0  2  0  0  0  0  0  0  0  0  0
    7.4889   15.4272   21.6567 C   0  0  0  0  0  0  0  0  0  0  0  0
    7.5164   14.8782   22.9765 O   0  0  0  0  0  0  0  0  0  0  0  0
    6.8440   13.7182   23.1508 C   0  0  0  0  0  0  0  0  0  0  0  0
    6.2634   13.0848   22.2752 O   0  0  0  0  0  0  0  0  0  0  0  0
    6.9597   13.1835   24.5568 C   0  0  0  0  0  0  0  0  0  0  0  0
    8.0541   12.1081   24.4988 C   0  0  0  0  0  0  0  0  0  0  0  0
    8.6781   11.7833   25.8312 C   0  0  0  0  0  0  0  0  0  0  0  0
    9.0216   13.0093   26.5617 N   0  0  0  0  0  0  0  0  0  0  0  0
   10.3386   13.9520   26.0697 S   0  0  0  0  0  0  0  0  0  0  0  0
   10.1607   14.2928   24.6815 O   0  0  0  0  0  0  0  0  0  0  0  0
   10.4729   14.9791   27.0686 O   0  0  0  0  0  0  0  0  0  0  0  0
   11.6334   12.8434   26.2291 N   0  0  0  0  0  0  0  0  0  0  0  0
   12.6868   13.1394   27.2335 C   0  0  0  0  0  0  0  0  0  0  0  0
   14.1153   12.8772   26.7446 C   0  0  0  0  0  0  0  0  0  0  0  0
   14.2811   11.4942   26.2173 C   0  0  0  0  0  0  0  0  0  0  0  0
   13.2030   11.2370   25.1964 C   0  0  0  0  0  0  0  0  0  0  0  0
   12.1595   12.3403   24.9650 C   0  0  0  0  0  0  0  0  0  0  0  0
    7.7834   13.7836   26.8748 C   0  0  0  0  0  0  0  0  0  0  0  0
    7.1502   14.2961   25.5986 C   0  0  0  0  0  0  0  0  0  0  0  0
    9.5307   14.2674   20.9494 O   0  0  0  0  0  0  0  0  0  0  0  0
  1  2  1  0
  2  3  1  0
  2  4  1  0
  4  5  1  0
  5  6  1  0
  6  7  1  1
  7  8  1  0
  8  9  1  0
  9 10  2  0
  9 11  1  0
 11 12  1  0
 12 13  1  0
 13 14  1  0
 14 15  1  0
 15 16  2  0
 15 17  2  0
 15 18  1  0
 18 19  1  0
 19 20  1  0
 20 21  1  0
 21 22  1  0
 22 23  1  0
 14 24  1  0
 24 25  1  0
  6 26  1  0
 26  2  1  0
 25 11  1  0
 23 18  1  0
M  END
>  <energy_score>  (2296) 
-78.005401

>  <inchikey>  (2296) 
None

>  <smiles>  (2296) 
None

>  <ref_pdb>  (2296) 
A4706a

>  <alias>  (2296) 
None

>  <HIPPO Pose ID>  (2296) 
499940

>  <name>  (2296) 
P499940

>  <HIPPO Compound ID>  (2296) 
314453

>  <ref_mols>  (2296) 
A4706a,A0875a

>  <distance_score>  (2296) 
1.789936

>  <inspiration_score>  (2296) 
None

$$$$
P499941
     RDKit          3D

 26 27  0  0  0  0  0  0  0  0999 V2000
   14.8889   12.5749   31.3848 C   0  0  0  0  0  0  0  0  0  0  0  0
   14.0051   11.4660   30.8421 C   0  0  0  0  0  0  0  0  0  0  0  0
   13.8919   11.5766   29.4116 O   0  0  0  0  0  0  0  0  0  0  0  0
   14.9226   11.0156   28.7108 C   0  0  0  0  0  0  0  0  0  0  0  0
   15.8554   10.4126   29.2255 O   0  0  0  0  0  0  0  0  0  0  0  0
   14.8105   11.3389   27.1954 C   0  0  0  0  0  0  0  0  0  0  0  0
   15.6682   10.3908   26.3530 C   0  0  0  0  0  0  0  0  0  0  0  0
   15.4079   12.7221   27.1502 C   0  0  0  0  0  0  0  0  0  0  0  0
   13.4362   11.4520   26.7095 O   0  0  0  0  0  0  0  0  0  0  0  0
   13.2789   11.8255   25.4113 C   0  0  0  0  0  0  0  0  0  0  0  0
   14.1468   11.7138   24.5581 O   0  0  0  0  0  0  0  0  0  0  0  0
   11.9545   12.4607   25.0743 C   0  0  0  0  0  0  0  0  0  0  0  0
   11.6961   13.6478   25.9818 C   0  0  0  0  0  0  0  0  0  0  0  0
   10.4260   13.5254   26.7650 C   0  0  0  0  0  0  0  0  0  0  0  0
    9.3389   13.0386   25.9217 N   0  0  0  0  0  0  0  0  0  0  0  0
    8.6719   14.1330   24.8533 S   0  0  0  0  0  0  0  0  0  0  0  0
    8.9536   13.6801   23.5158 O   0  0  0  0  0  0  0  0  0  0  0  0
    9.0791   15.4338   25.3180 O   0  0  0  0  0  0  0  0  0  0  0  0
    7.0506   13.9368   25.1881 N   0  0  0  0  0  0  0  0  0  0  0  0
    6.3461   12.6700   24.9543 C   0  0  0  0  0  0  0  0  0  0  0  0
    6.1943   11.8856   26.2606 C   0  0  0  0  0  0  0  0  0  0  0  0
    5.5561   12.7327   27.3563 C   0  0  0  0  0  0  0  0  0  0  0  0
    6.3017   14.0540   27.5254 C   0  0  0  0  0  0  0  0  0  0  0  0
    6.4090   14.7934   26.1996 C   0  0  0  0  0  0  0  0  0  0  0  0
    9.5038   11.6623   25.4863 C   0  0  0  0  0  0  0  0  0  0  0  0
   10.8438   11.4308   24.8538 C   0  0  0  0  0  0  0  0  0  0  0  0
  1  2  1  0
  2  3  1  0
  3  4  1  0
  4  5  2  0
  4  6  1  0
  6  7  1  0
  6  8  1  0
  6  9  1  0
  9 10  1  0
 10 11  2  0
 10 12  1  0
 12 13  1  0
 13 14  1  0
 14 15  1  0
 15 16  1  0
 16 17  2  0
 16 18  2  0
 16 19  1  0
 19 20  1  0
 20 21  1  0
 21 22  1  0
 22 23  1  0
 23 24  1  0
 15 25  1  0
 25 26  1  0
 26 12  1  0
 24 19  1  0
M  END
>  <energy_score>  (2297) 
-48.25807

>  <inchikey>  (2297) 
None

>  <smiles>  (2297) 
None

>  <ref_pdb>  (2297) 
A4706a

>  <alias>  (2297) 
None

>  <HIPPO Pose ID>  (2297) 
499941

>  <name>  (2297) 
P499941

>  <HIPPO Compound ID>  (2297) 
314455

>  <ref_mols>  (2297) 
A4706a,A0875a

>  <distance_score>  (2297) 
1.709107

>  <inspiration_score>  (2297) 
None

$$$$
P499942
     RDKit          3D

 26 27  0  0  0  0  0  0  0  0999 V2000
   11.9790   15.1292   20.4413 C   0  0  0  0  0  0  0  0  0  0  0  0
   10.7837   14.5832   21.1615 C   0  0  0  0  0  0  0  0  0  0  0  0
    9.7423   14.3644   20.1240 C   0  0  0  0  0  0  0  0  0  0  0  0
   10.3457   15.5097   22.1303 O   0  0  0  0  0  0  0  0  0  0  0  0
    9.2125   15.0823   22.8701 C   0  0  0  0  0  0  0  0  0  0  0  0
    7.7947   15.3410   22.3331 C   0  0  2  0  0  0  0  0  0  0  0  0
    7.3998   16.7586   21.9795 C   0  0  0  0  0  0  0  0  0  0  0  0
    8.7064   17.9097   20.7642 I   0  0  0  0  0  0  0  0  0  0  0  0
    6.8530   14.9940   23.4011 O   0  0  0  0  0  0  0  0  0  0  0  0
    6.4459   13.7166   23.5156 C   0  0  0  0  0  0  0  0  0  0  0  0
    6.7676   12.8292   22.7346 O   0  0  0  0  0  0  0  0  0  0  0  0
    5.5441   13.4883   24.7324 C   0  0  0  0  0  0  0  0  0  0  0  0
    5.9838   12.2115   25.4657 C   0  0  0  0  0  0  0  0  0  0  0  0
    7.4279   12.3006   25.9382 C   0  0  0  0  0  0  0  0  0  0  0  0
    7.7987   13.7064   26.0820 N   0  0  0  0  0  0  0  0  0  0  0  0
    9.3480   14.2023   26.3693 S   0  0  0  0  0  0  0  0  0  0  0  0
    9.3718   15.6168   26.0902 O   0  0  0  0  0  0  0  0  0  0  0  0
    9.8144   13.7301   27.6403 O   0  0  0  0  0  0  0  0  0  0  0  0
   10.3006   13.4589   25.2201 N   0  0  0  0  0  0  0  0  0  0  0  0
   10.5522   12.0103   25.2498 C   0  0  0  0  0  0  0  0  0  0  0  0
   11.9464   11.6683   25.7583 C   0  0  0  0  0  0  0  0  0  0  0  0
   13.0930   12.3743   25.1052 C   0  0  0  0  0  0  0  0  0  0  0  0
   12.5565   13.5204   24.2877 C   0  0  0  0  0  0  0  0  0  0  0  0
   11.5140   14.2657   25.0494 C   0  0  0  0  0  0  0  0  0  0  0  0
    6.7400   14.5156   26.7282 C   0  0  0  0  0  0  0  0  0  0  0  0
    5.5672   14.6388   25.7539 C   0  0  0  0  0  0  0  0  0  0  0  0
  1  2  1  0
  2  3  1  0
  2  4  1  0
  4  5  1  0
  6  5  1  1
  6  7  1  0
  7  8  1  0
  6  9  1  0
  9 10  1  0
 10 11  2  0
 10 12  1  0
 12 13  1  0
 13 14  1  0
 14 15  1  0
 15 16  1  0
 16 17  2  0
 16 18  2  0
 16 19  1  0
 19 20  1  0
 20 21  1  0
 21 22  1  0
 22 23  1  0
 23 24  1  0
 15 25  1  0
 25 26  1  0
 26 12  1  0
 24 19  1  0
M  END
>  <energy_score>  (2298) 
-44.470608

>  <inchikey>  (2298) 
None

>  <smiles>  (2298) 
None

>  <ref_pdb>  (2298) 
A4706a

>  <alias>  (2298) 
None

>  <HIPPO Pose ID>  (2298) 
499942

>  <name>  (2298) 
P499942

>  <HIPPO Compound ID>  (2298) 
314456

>  <ref_mols>  (2298) 
A4706a,A0875a

>  <distance_score>  (2298) 
1.774244

>  <inspiration_score>  (2298) 
None

$$$$
P499943
     RDKit          3D

 26 28  0  0  0  0  0  0  0  0999 V2000
    6.9094   16.0878   22.2199 C   0  0  0  0  0  0  0  0  0  0  0  0
    7.9920   15.1886   21.6242 C   0  0  2  0  0  0  0  0  0  0  0  0
    8.1497   14.1033   22.5624 O   0  0  0  0  0  0  0  0  0  0  0  0
    7.0262   13.3909   22.8016 C   0  0  0  0  0  0  0  0  0  0  0  0
    6.1660   13.1542   21.9609 O   0  0  0  0  0  0  0  0  0  0  0  0
    6.9141   12.8523   24.2081 C   0  0  0  0  0  0  0  0  0  0  0  0
    8.0396   11.8391   24.4403 C   0  0  0  0  0  0  0  0  0  0  0  0
    8.4366   11.6962   25.8843 C   0  0  0  0  0  0  0  0  0  0  0  0
    8.5618   13.0136   26.5174 N   0  0  0  0  0  0  0  0  0  0  0  0
    9.8074   14.0403   26.0187 S   0  0  0  0  0  0  0  0  0  0  0  0
    9.8322   15.1346   26.9562 O   0  0  0  0  0  0  0  0  0  0  0  0
    9.7030   14.2831   24.6112 O   0  0  0  0  0  0  0  0  0  0  0  0
   11.1634   13.0312   26.2688 N   0  0  0  0  0  0  0  0  0  0  0  0
   11.8791   12.7164   25.0030 C   0  0  0  0  0  0  0  0  0  0  0  0
   12.9886   11.7226   25.2914 C   0  0  0  0  0  0  0  0  0  0  0  0
   13.9956   12.2877   26.2612 C   0  0  0  0  0  0  0  0  0  0  0  0
   13.3072   12.7553   27.5276 C   0  0  0  0  0  0  0  0  0  0  0  0
   12.0518   13.5957   27.3060 C   0  0  0  0  0  0  0  0  0  0  0  0
    7.2339   13.6708   26.5991 C   0  0  0  0  0  0  0  0  0  0  0  0
    6.7543   14.0136   25.2028 C   0  0  0  0  0  0  0  0  0  0  0  0
    9.3524   15.9252   21.2954 C   0  0  2  0  0  0  0  0  0  0  0  0
    9.1737   17.4002   20.8996 C   0  0  0  0  0  0  0  0  0  0  0  0
   10.1388   15.2303   20.1716 C   0  0  0  0  0  0  0  0  0  0  0  0
   11.1889   14.4499   20.9004 C   0  0  0  0  0  0  0  0  0  0  0  0
   11.5073   15.3840   22.0290 C   0  0  0  0  0  0  0  0  0  0  0  0
   10.2421   15.9022   22.4409 O   0  0  0  0  0  0  0  0  0  0  0  0
  2  1  1  1
  2  3  1  0
  3  4  1  0
  4  5  2  0
  4  6  1  0
  6  7  1  0
  7  8  1  0
  8  9  1  0
  9 10  1  0
 10 11  2  0
 10 12  2  0
 10 13  1  0
 13 14  1  0
 14 15  1  0
 15 16  1  0
 16 17  1  0
 17 18  1  0
  9 19  1  0
 19 20  1  0
  2 21  1  0
 21 22  1  6
 21 23  1  0
 23 24  1  0
 24 25  1  0
 25 26  1  0
 20  6  1  0
 26 21  1  0
 18 13  1  0
M  END
>  <energy_score>  (2299) 
-37.775501

>  <inchikey>  (2299) 
None

>  <smiles>  (2299) 
None

>  <ref_pdb>  (2299) 
A4706a

>  <alias>  (2299) 
None

>  <HIPPO Pose ID>  (2299) 
499943

>  <name>  (2299) 
P499943

>  <HIPPO Compound ID>  (2299) 
314457

>  <ref_mols>  (2299) 
A0875a,A4706a

>  <distance_score>  (2299) 
1.512681

>  <inspiration_score>  (2299) 
None

$$$$
P499944
     RDKit          3D

 26 28  0  0  0  0  0  0  0  0999 V2000
    7.2399   15.7205   22.1231 C   0  0  0  0  0  0  0  0  0  0  0  0
    8.5761   15.1963   22.6453 C   0  0  1  0  0  0  0  0  0  0  0  0
    8.4737   13.9159   23.3176 O   0  0  0  0  0  0  0  0  0  0  0  0
    7.2967   13.2641   23.2807 C   0  0  0  0  0  0  0  0  0  0  0  0
    6.6804   12.9848   22.2606 O   0  0  0  0  0  0  0  0  0  0  0  0
    6.8098   12.8509   24.6525 C   0  0  0  0  0  0  0  0  0  0  0  0
    7.4964   11.5612   25.0904 C   0  0  0  0  0  0  0  0  0  0  0  0
    8.9443   11.8167   25.4549 C   0  0  0  0  0  0  0  0  0  0  0  0
    9.0872   12.8968   26.4374 N   0  0  0  0  0  0  0  0  0  0  0  0
   10.4308   13.9066   26.3793 S   0  0  0  0  0  0  0  0  0  0  0  0
   10.4469   14.5736   27.6562 O   0  0  0  0  0  0  0  0  0  0  0  0
   10.3881   14.6788   25.1676 O   0  0  0  0  0  0  0  0  0  0  0  0
   11.7559   12.8302   26.3285 N   0  0  0  0  0  0  0  0  0  0  0  0
   12.8257   13.0206   27.3573 C   0  0  0  0  0  0  0  0  0  0  0  0
   14.2549   12.7618   26.8752 C   0  0  0  0  0  0  0  0  0  0  0  0
   14.3991   11.4875   26.1114 C   0  0  0  0  0  0  0  0  0  0  0  0
   13.2608   11.3419   25.1377 C   0  0  0  0  0  0  0  0  0  0  0  0
   12.3032   12.5305   25.0032 C   0  0  0  0  0  0  0  0  0  0  0  0
    7.8125   13.5617   26.8546 C   0  0  0  0  0  0  0  0  0  0  0  0
    6.9628   13.9823   25.6731 C   0  0  0  0  0  0  0  0  0  0  0  0
    9.7919   15.2732   21.6814 C   0  0  2  0  0  0  0  0  0  0  0  0
   11.1124   15.3445   22.4762 C   0  0  0  0  0  0  0  0  0  0  0  0
    9.7499   16.4204   20.6688 C   0  0  0  0  0  0  0  0  0  0  0  0
   10.1659   15.7914   19.3545 C   0  0  0  0  0  0  0  0  0  0  0  0
   10.7015   14.4599   19.7529 C   0  0  0  0  0  0  0  0  0  0  0  0
    9.8959   14.0960   20.8770 O   0  0  0  0  0  0  0  0  0  0  0  0
  2  1  1  6
  2  3  1  0
  3  4  1  0
  4  5  2  0
  4  6  1  0
  6  7  1  0
  7  8  1  0
  8  9  1  0
  9 10  1  0
 10 11  2  0
 10 12  2  0
 10 13  1  0
 13 14  1  0
 14 15  1  0
 15 16  1  0
 16 17  1  0
 17 18  1  0
  9 19  1  0
 19 20  1  0
  2 21  1  0
 21 22  1  1
 21 23  1  0
 23 24  1  0
 24 25  1  0
 25 26  1  0
 20  6  1  0
 26 21  1  0
 18 13  1  0
M  END
>  <energy_score>  (2300) 
-38.87656

>  <inchikey>  (2300) 
None

>  <smiles>  (2300) 
None

>  <ref_pdb>  (2300) 
A4706a

>  <alias>  (2300) 
None

>  <HIPPO Pose ID>  (2300) 
499944

>  <name>  (2300) 
P499944

>  <HIPPO Compound ID>  (2300) 
314457

>  <ref_mols>  (2300) 
A4706a,A0875a

>  <distance_score>  (2300) 
1.715761

>  <inspiration_score>  (2300) 
None

$$$$
P499945
     RDKit          3D

 26 28  0  0  0  0  0  0  0  0999 V2000
    8.4686   17.5125   21.3119 C   0  0  0  0  0  0  0  0  0  0  0  0
    8.2998   16.0191   21.5868 C   0  0  2  0  0  0  0  0  0  0  0  0
    7.8211   15.7586   22.9472 O   0  0  0  0  0  0  0  0  0  0  0  0
    6.7612   14.9097   23.1023 C   0  0  0  0  0  0  0  0  0  0  0  0
    6.2115   14.2973   22.1877 O   0  0  0  0  0  0  0  0  0  0  0  0
    6.2679   14.7688   24.5477 C   0  0  0  0  0  0  0  0  0  0  0  0
    6.2291   13.2908   24.9991 C   0  0  0  0  0  0  0  0  0  0  0  0
    7.0024   13.0390   26.2971 C   0  0  0  0  0  0  0  0  0  0  0  0
    8.3695   13.6443   26.2504 N   0  0  0  0  0  0  0  0  0  0  0  0
    9.4367   12.7296   25.3329 S   0  0  0  0  0  0  0  0  0  0  0  0
    9.4652   11.4084   25.9013 O   0  0  0  0  0  0  0  0  0  0  0  0
    9.0390   12.9060   23.9665 O   0  0  0  0  0  0  0  0  0  0  0  0
   10.9468   13.4033   25.5119 N   0  0  0  0  0  0  0  0  0  0  0  0
   11.9413   12.9818   24.5113 C   0  0  0  0  0  0  0  0  0  0  0  0
   12.8372   11.8997   25.0997 C   0  0  0  0  0  0  0  0  0  0  0  0
   13.6733   12.4864   26.1958 C   0  0  0  0  0  0  0  0  0  0  0  0
   12.7469   13.0187   27.2631 C   0  0  0  0  0  0  0  0  0  0  0  0
   11.4900   13.7849   26.8191 C   0  0  0  0  0  0  0  0  0  0  0  0
    8.3539   15.0977   25.9524 C   0  0  0  0  0  0  0  0  0  0  0  0
    6.9773   15.6321   25.5845 C   0  0  0  0  0  0  0  0  0  0  0  0
    9.5971   15.2650   21.2465 C   0  0  1  0  0  0  0  0  0  0  0  0
    9.3866   13.7847   21.4166 C   0  0  0  0  0  0  0  0  0  0  0  0
   10.1062   15.5218   19.8230 C   0  0  0  0  0  0  0  0  0  0  0  0
   11.5006   14.9685   19.9141 C   0  0  0  0  0  0  0  0  0  0  0  0
   11.9080   15.3244   21.3395 C   0  0  0  0  0  0  0  0  0  0  0  0
   10.7140   15.6392   22.0775 O   0  0  0  0  0  0  0  0  0  0  0  0
  2  1  1  1
  2  3  1  0
  3  4  1  0
  4  5  2  0
  4  6  1  0
  6  7  1  0
  7  8  1  0
  8  9  1  0
  9 10  1  0
 10 11  2  0
 10 12  2  0
 10 13  1  0
 13 14  1  0
 14 15  1  0
 15 16  1  0
 16 17  1  0
 17 18  1  0
  9 19  1  0
 19 20  1  0
  2 21  1  0
 21 22  1  6
 21 23  1  0
 23 24  1  0
 24 25  1  0
 25 26  1  0
 20  6  1  0
 26 21  1  0
 18 13  1  0
M  END
>  <energy_score>  (2301) 
-36.906295

>  <inchikey>  (2301) 
None

>  <smiles>  (2301) 
None

>  <ref_pdb>  (2301) 
A4706a

>  <alias>  (2301) 
None

>  <HIPPO Pose ID>  (2301) 
499945

>  <name>  (2301) 
P499945

>  <HIPPO Compound ID>  (2301) 
314457

>  <ref_mols>  (2301) 
A4706a,A0875a

>  <distance_score>  (2301) 
1.713933

>  <inspiration_score>  (2301) 
None

$$$$
P499946
     RDKit          3D

 26 27  0  0  0  0  0  0  0  0999 V2000
   11.3641   14.5961   18.7914 C   0  0  0  0  0  0  0  0  0  0  0  0
   10.8252   15.8901   18.7889 O   0  0  0  0  0  0  0  0  0  0  0  0
    9.6979   16.0222   19.6227 C   0  0  0  0  0  0  0  0  0  0  0  0
    9.9638   16.3690   21.0695 C   0  0  0  0  0  0  0  0  0  0  0  0
   10.9695   15.5473   21.6228 O   0  0  0  0  0  0  0  0  0  0  0  0
   10.7077   15.2450   22.9785 C   0  0  0  0  0  0  0  0  0  0  0  0
    9.6431   14.1544   23.1112 C   0  0  2  0  0  0  0  0  0  0  0  0
    9.9245   13.0858   22.1024 C   0  0  0  0  0  0  0  0  0  0  0  0
    8.2834   14.6455   23.1623 O   0  0  0  0  0  0  0  0  0  0  0  0
    7.3024   13.7148   23.0813 C   0  0  0  0  0  0  0  0  0  0  0  0
    7.0204   13.1311   22.0384 O   0  0  0  0  0  0  0  0  0  0  0  0
    6.5789   13.3595   24.3724 C   0  0  0  0  0  0  0  0  0  0  0  0
    7.2004   12.1034   25.0230 C   0  0  0  0  0  0  0  0  0  0  0  0
    8.0556   12.4283   26.2501 C   0  0  0  0  0  0  0  0  0  0  0  0
    8.6975   13.7128   25.9755 N   0  0  0  0  0  0  0  0  0  0  0  0
   10.1936   14.1436   26.5732 S   0  0  0  0  0  0  0  0  0  0  0  0
   10.6585   15.2518   25.7752 O   0  0  0  0  0  0  0  0  0  0  0  0
   10.0298   14.2856   27.9951 O   0  0  0  0  0  0  0  0  0  0  0  0
   11.2681   12.8833   26.3254 N   0  0  0  0  0  0  0  0  0  0  0  0
   11.3957   12.1335   25.0545 C   0  0  0  0  0  0  0  0  0  0  0  0
   12.3900   11.0180   25.3621 C   0  0  0  0  0  0  0  0  0  0  0  0
   13.8232   11.4559   25.5018 C   0  0  0  0  0  0  0  0  0  0  0  0
   13.7971   12.8681   26.0465 C   0  0  0  0  0  0  0  0  0  0  0  0
   12.6052   13.1059   27.0000 C   0  0  0  0  0  0  0  0  0  0  0  0
    7.7141   14.8359   26.0966 C   0  0  0  0  0  0  0  0  0  0  0  0
    6.4279   14.5162   25.3493 C   0  0  0  0  0  0  0  0  0  0  0  0
  1  2  1  0
  2  3  1  0
  3  4  1  0
  4  5  1  0
  5  6  1  0
  6  7  1  0
  7  8  1  6
  7  9  1  0
  9 10  1  0
 10 11  2  0
 10 12  1  0
 12 13  1  0
 13 14  1  0
 14 15  1  0
 15 16  1  0
 16 17  2  0
 16 18  2  0
 16 19  1  0
 19 20  1  0
 20 21  1  0
 21 22  1  0
 22 23  1  0
 23 24  1  0
 15 25  1  0
 25 26  1  0
 26 12  1  0
 24 19  1  0
M  END
>  <energy_score>  (2302) 
-23.57606

>  <inchikey>  (2302) 
None

>  <smiles>  (2302) 
None

>  <ref_pdb>  (2302) 
A4706a

>  <alias>  (2302) 
None

>  <HIPPO Pose ID>  (2302) 
499946

>  <name>  (2302) 
P499946

>  <HIPPO Compound ID>  (2302) 
314458

>  <ref_mols>  (2302) 
A4706a,A0875a

>  <distance_score>  (2302) 
1.3736

>  <inspiration_score>  (2302) 
None

$$$$
P499947
     RDKit          3D

 26 27  0  0  0  0  0  0  0  0999 V2000
   10.8673   14.8420   18.3612 C   0  0  0  0  0  0  0  0  0  0  0  0
   11.1751   14.2150   19.5727 O   0  0  0  0  0  0  0  0  0  0  0  0
   11.7899   15.0924   20.4827 C   0  0  0  0  0  0  0  0  0  0  0  0
   11.7658   14.5136   21.8772 C   0  0  0  0  0  0  0  0  0  0  0  0
   10.6407   14.9615   22.5984 O   0  0  0  0  0  0  0  0  0  0  0  0
    9.4478   14.3450   22.1601 C   0  0  0  0  0  0  0  0  0  0  0  0
    8.3045   15.3620   22.2155 C   0  0  1  0  0  0  0  0  0  0  0  0
    8.6195   16.5235   21.2870 C   0  0  0  0  0  0  0  0  0  0  0  0
    7.0549   14.7535   21.8173 O   0  0  0  0  0  0  0  0  0  0  0  0
    6.3932   13.8780   22.6125 C   0  0  0  0  0  0  0  0  0  0  0  0
    5.6298   13.0608   22.1128 O   0  0  0  0  0  0  0  0  0  0  0  0
    6.7081   13.8705   24.0887 C   0  0  0  0  0  0  0  0  0  0  0  0
    6.4308   12.5576   24.8209 C   0  0  0  0  0  0  0  0  0  0  0  0
    6.9427   12.6078   26.2622 C   0  0  0  0  0  0  0  0  0  0  0  0
    7.5297   13.9156   26.6055 N   0  0  0  0  0  0  0  0  0  0  0  0
    9.1188   14.4471   26.4210 S   0  0  0  0  0  0  0  0  0  0  0  0
    9.2955   15.0284   25.1167 O   0  0  0  0  0  0  0  0  0  0  0  0
    9.3856   15.2529   27.5857 O   0  0  0  0  0  0  0  0  0  0  0  0
   10.1637   13.1423   26.4855 N   0  0  0  0  0  0  0  0  0  0  0  0
    9.8974   12.0230   25.5871 C   0  0  0  0  0  0  0  0  0  0  0  0
   11.0431   11.4767   24.8052 C   0  0  0  0  0  0  0  0  0  0  0  0
   12.4256   11.7374   25.3544 C   0  0  0  0  0  0  0  0  0  0  0  0
   12.5426   13.1980   25.6146 C   0  0  0  0  0  0  0  0  0  0  0  0
   11.5756   13.5779   26.7123 C   0  0  0  0  0  0  0  0  0  0  0  0
    6.5255   14.9963   26.3635 C   0  0  0  0  0  0  0  0  0  0  0  0
    6.1202   15.0361   24.8808 C   0  0  0  0  0  0  0  0  0  0  0  0
  1  2  1  0
  2  3  1  0
  3  4  1  0
  4  5  1  0
  5  6  1  0
  6  7  1  0
  7  8  1  6
  7  9  1  0
  9 10  1  0
 10 11  2  0
 10 12  1  0
 12 13  1  0
 13 14  1  0
 14 15  1  0
 15 16  1  0
 16 17  2  0
 16 18  2  0
 16 19  1  0
 19 20  1  0
 20 21  1  0
 21 22  1  0
 22 23  1  0
 23 24  1  0
 15 25  1  0
 25 26  1  0
 26 12  1  0
 24 19  1  0
M  END
>  <energy_score>  (2303) 
-26.131285

>  <inchikey>  (2303) 
None

>  <smiles>  (2303) 
None

>  <ref_pdb>  (2303) 
A4706a

>  <alias>  (2303) 
None

>  <HIPPO Pose ID>  (2303) 
499947

>  <name>  (2303) 
P499947

>  <HIPPO Compound ID>  (2303) 
314458

>  <ref_mols>  (2303) 
A4706a,A0875a

>  <distance_score>  (2303) 
1.83668

>  <inspiration_score>  (2303) 
None

$$$$
P499948
     RDKit          3D

 26 28  0  0  0  0  0  0  0  0999 V2000
   11.4584   14.8371   18.2979 C   0  0  0  0  0  0  0  0  0  0  0  0
   10.3773   14.4141   19.0968 O   0  0  0  0  0  0  0  0  0  0  0  0
   10.4272   15.0263   20.3626 C   0  0  2  0  0  0  0  0  0  0  0  0
   11.6092   14.5326   21.2142 C   0  0  0  0  0  0  0  0  0  0  0  0
   11.4095   14.7418   22.6083 O   0  0  0  0  0  0  0  0  0  0  0  0
   10.7406   15.9780   22.7825 C   0  0  0  0  0  0  0  0  0  0  0  0
    9.2962   15.9502   22.2520 C   0  0  0  0  0  0  0  0  0  0  0  0
    9.1247   14.9150   21.1567 C   0  0  2  0  0  0  0  0  0  0  0  0
    8.9651   13.6208   21.7520 O   0  0  0  0  0  0  0  0  0  0  0  0
    7.8387   13.4461   22.4964 C   0  0  0  0  0  0  0  0  0  0  0  0
    6.7000   13.4388   22.0602 O   0  0  0  0  0  0  0  0  0  0  0  0
    8.2267   13.1605   23.9132 C   0  0  0  0  0  0  0  0  0  0  0  0
    8.2291   11.6891   24.2715 C   0  0  0  0  0  0  0  0  0  0  0  0
    8.9793   11.4864   25.5802 C   0  0  0  0  0  0  0  0  0  0  0  0
    9.0248   12.7169   26.3916 N   0  0  0  0  0  0  0  0  0  0  0  0
   10.3655   13.7363   26.5171 S   0  0  0  0  0  0  0  0  0  0  0  0
   10.2851   14.2612   27.8568 O   0  0  0  0  0  0  0  0  0  0  0  0
   10.3887   14.6539   25.4094 O   0  0  0  0  0  0  0  0  0  0  0  0
   11.7331   12.7225   26.4186 N   0  0  0  0  0  0  0  0  0  0  0  0
   12.2538   12.4834   25.0641 C   0  0  0  0  0  0  0  0  0  0  0  0
   13.2509   11.3187   25.1572 C   0  0  0  0  0  0  0  0  0  0  0  0
   14.3772   11.4621   26.1514 C   0  0  0  0  0  0  0  0  0  0  0  0
   14.2540   12.7691   26.8618 C   0  0  0  0  0  0  0  0  0  0  0  0
   12.8392   13.0373   27.3824 C   0  0  0  0  0  0  0  0  0  0  0  0
    7.7138   13.4411   26.3691 C   0  0  0  0  0  0  0  0  0  0  0  0
    7.4206   13.9490   24.9538 C   0  0  0  0  0  0  0  0  0  0  0  0
  1  2  1  0
  3  2  1  6
  3  4  1  0
  4  5  1  0
  5  6  1  0
  6  7  1  0
  7  8  1  0
  8  9  1  1
  9 10  1  0
 10 11  2  0
 10 12  1  0
 12 13  1  0
 13 14  1  0
 14 15  1  0
 15 16  1  0
 16 17  2  0
 16 18  2  0
 16 19  1  0
 19 20  1  0
 20 21  1  0
 21 22  1  0
 22 23  1  0
 23 24  1  0
 15 25  1  0
 25 26  1  0
  8  3  1  0
 26 12  1  0
 24 19  1  0
M  END
>  <energy_score>  (2304) 
-28.321448

>  <inchikey>  (2304) 
None

>  <smiles>  (2304) 
None

>  <ref_pdb>  (2304) 
A4706a

>  <alias>  (2304) 
None

>  <HIPPO Pose ID>  (2304) 
499948

>  <name>  (2304) 
P499948

>  <HIPPO Compound ID>  (2304) 
314459

>  <ref_mols>  (2304) 
A4706a,A0875a

>  <distance_score>  (2304) 
1.529448

>  <inspiration_score>  (2304) 
None

$$$$
P499949
     RDKit          3D

 26 28  0  0  0  0  0  0  0  0999 V2000
   11.3191   14.6172   19.1334 C   0  0  0  0  0  0  0  0  0  0  0  0
   10.0460   14.5226   19.7323 O   0  0  0  0  0  0  0  0  0  0  0  0
   10.0134   14.3287   21.1560 C   0  0  1  0  0  0  0  0  0  0  0  0
   10.9140   15.3106   21.8860 C   0  0  0  0  0  0  0  0  0  0  0  0
   10.5926   16.6640   21.6219 O   0  0  0  0  0  0  0  0  0  0  0  0
    9.2645   16.9047   21.1375 C   0  0  0  0  0  0  0  0  0  0  0  0
    8.2506   15.9987   21.8108 C   0  0  0  0  0  0  0  0  0  0  0  0
    8.5404   14.5267   21.5621 C   0  0  2  0  0  0  0  0  0  0  0  0
    8.1892   13.8140   22.7831 O   0  0  0  0  0  0  0  0  0  0  0  0
    6.8811   13.4609   22.8804 C   0  0  0  0  0  0  0  0  0  0  0  0
    6.1185   13.4034   21.9225 O   0  0  0  0  0  0  0  0  0  0  0  0
    6.4041   13.0565   24.2666 C   0  0  0  0  0  0  0  0  0  0  0  0
    7.2227   11.9216   24.9078 C   0  0  0  0  0  0  0  0  0  0  0  0
    8.0812   12.4243   26.0631 C   0  0  0  0  0  0  0  0  0  0  0  0
    8.6376   13.6967   25.6009 N   0  0  0  0  0  0  0  0  0  0  0  0
   10.1077   14.2396   26.1358 S   0  0  0  0  0  0  0  0  0  0  0  0
    9.9286   14.5579   27.5308 O   0  0  0  0  0  0  0  0  0  0  0  0
   10.5723   15.2425   25.2112 O   0  0  0  0  0  0  0  0  0  0  0  0
   11.1636   12.9553   26.0764 N   0  0  0  0  0  0  0  0  0  0  0  0
   12.4468   13.1870   26.8230 C   0  0  0  0  0  0  0  0  0  0  0  0
   13.6878   12.9040   25.9548 C   0  0  0  0  0  0  0  0  0  0  0  0
   13.7261   11.4735   25.4607 C   0  0  0  0  0  0  0  0  0  0  0  0
   12.2964   11.0261   25.3009 C   0  0  0  0  0  0  0  0  0  0  0  0
   11.3265   12.1364   24.8611 C   0  0  0  0  0  0  0  0  0  0  0  0
    7.6045   14.7796   25.6598 C   0  0  0  0  0  0  0  0  0  0  0  0
    6.2600   14.2770   25.1647 C   0  0  0  0  0  0  0  0  0  0  0  0
  1  2  1  0
  3  2  1  6
  3  4  1  0
  4  5  1  0
  5  6  1  0
  6  7  1  0
  7  8  1  0
  8  9  1  1
  9 10  1  0
 10 11  2  0
 10 12  1  0
 12 13  1  0
 13 14  1  0
 14 15  1  0
 15 16  1  0
 16 17  2  0
 16 18  2  0
 16 19  1  0
 19 20  1  0
 20 21  1  0
 21 22  1  0
 22 23  1  0
 23 24  1  0
 15 25  1  0
 25 26  1  0
  8  3  1  0
 26 12  1  0
 24 19  1  0
M  END
>  <energy_score>  (2305) 
-48.102514

>  <inchikey>  (2305) 
None

>  <smiles>  (2305) 
None

>  <ref_pdb>  (2305) 
A4706a

>  <alias>  (2305) 
None

>  <HIPPO Pose ID>  (2305) 
499949

>  <name>  (2305) 
P499949

>  <HIPPO Compound ID>  (2305) 
314459

>  <ref_mols>  (2305) 
A0875a,A4706a

>  <distance_score>  (2305) 
1.42614

>  <inspiration_score>  (2305) 
None

$$$$
P499950
     RDKit          3D

 26 28  0  0  0  0  0  0  0  0999 V2000
   11.2637   14.7738   18.4343 C   0  0  0  0  0  0  0  0  0  0  0  0
   10.2122   14.3062   19.2619 O   0  0  0  0  0  0  0  0  0  0  0  0
   10.2847   14.8468   20.5560 C   0  0  2  0  0  0  0  0  0  0  0  0
   11.4669   14.3302   21.3548 C   0  0  0  0  0  0  0  0  0  0  0  0
   11.4372   14.7566   22.6934 O   0  0  0  0  0  0  0  0  0  0  0  0
   10.7938   16.0005   22.8175 C   0  0  0  0  0  0  0  0  0  0  0  0
    9.3129   15.9542   22.4333 C   0  0  0  0  0  0  0  0  0  0  0  0
    8.9643   14.9387   21.3642 C   0  0  2  0  0  0  0  0  0  0  0  0
    8.2555   13.8624   22.0764 O   0  0  0  0  0  0  0  0  0  0  0  0
    6.9635   14.2518   22.3924 C   0  0  0  0  0  0  0  0  0  0  0  0
    6.3846   15.1641   21.8005 O   0  0  0  0  0  0  0  0  0  0  0  0
    6.1966   13.5888   23.5497 C   0  0  0  0  0  0  0  0  0  0  0  0
    6.7452   12.3658   24.2926 C   0  0  0  0  0  0  0  0  0  0  0  0
    7.3573   12.6867   25.6367 C   0  0  0  0  0  0  0  0  0  0  0  0
    7.9764   13.9916   25.4485 N   0  0  0  0  0  0  0  0  0  0  0  0
    9.4713   14.2487   26.0690 S   0  0  0  0  0  0  0  0  0  0  0  0
    9.7310   15.6608   26.1583 O   0  0  0  0  0  0  0  0  0  0  0  0
    9.6266   13.4304   27.2299 O   0  0  0  0  0  0  0  0  0  0  0  0
   10.5265   13.6127   24.9666 N   0  0  0  0  0  0  0  0  0  0  0  0
   11.9174   13.8253   25.4122 C   0  0  0  0  0  0  0  0  0  0  0  0
   12.8353   12.7122   24.9986 C   0  0  0  0  0  0  0  0  0  0  0  0
   12.3070   11.4233   25.5556 C   0  0  0  0  0  0  0  0  0  0  0  0
   10.8387   11.1975   25.1435 C   0  0  0  0  0  0  0  0  0  0  0  0
   10.3187   12.3298   24.2849 C   0  0  0  0  0  0  0  0  0  0  0  0
    6.9830   15.0765   25.4777 C   0  0  0  0  0  0  0  0  0  0  0  0
    5.8040   14.6730   24.5849 C   0  0  0  0  0  0  0  0  0  0  0  0
  1  2  1  0
  3  2  1  6
  3  4  1  0
  4  5  1  0
  5  6  1  0
  6  7  1  0
  7  8  1  0
  8  9  1  1
  9 10  1  0
 10 11  2  0
 10 12  1  0
 12 13  1  0
 13 14  1  0
 14 15  1  0
 15 16  1  0
 16 17  2  0
 16 18  2  0
 16 19  1  0
 19 20  1  0
 20 21  1  0
 21 22  1  0
 22 23  1  0
 23 24  1  0
 15 25  1  0
 25 26  1  0
  8  3  1  0
 26 12  1  0
 24 19  1  0
M  END
>  <energy_score>  (2306) 
-14.311194

>  <inchikey>  (2306) 
None

>  <smiles>  (2306) 
None

>  <ref_pdb>  (2306) 
A4706a

>  <alias>  (2306) 
None

>  <HIPPO Pose ID>  (2306) 
499950

>  <name>  (2306) 
P499950

>  <HIPPO Compound ID>  (2306) 
314459

>  <ref_mols>  (2306) 
A4706a,A0875a

>  <distance_score>  (2306) 
1.702427

>  <inspiration_score>  (2306) 
None

$$$$
P499951
     RDKit          3D

 26 28  0  0  0  0  0  0  0  0999 V2000
   10.4483   15.1642   19.2255 C   0  0  0  0  0  0  0  0  0  0  0  0
    9.9715   15.6435   20.6181 C   0  0  0  0  0  0  0  0  0  0  0  0
    9.4134   17.0596   20.5256 C   0  0  0  0  0  0  0  0  0  0  0  0
   11.1365   15.5829   21.5970 C   0  0  0  0  0  0  0  0  0  0  0  0
   11.2253   14.2367   22.0335 O   0  0  0  0  0  0  0  0  0  0  0  0
    9.9861   13.6890   21.9340 C   0  0  0  0  0  0  0  0  0  0  0  0
    9.6803   12.6211   22.4476 O   0  0  0  0  0  0  0  0  0  0  0  0
    9.0123   14.6138   21.2276 C   0  0  1  0  0  0  0  0  0  0  0  0
    8.0855   15.0924   22.2130 O   0  0  0  0  0  0  0  0  0  0  0  0
    7.1652   14.1391   22.5904 C   0  0  0  0  0  0  0  0  0  0  0  0
    6.5257   13.4253   21.8342 O   0  0  0  0  0  0  0  0  0  0  0  0
    7.1387   14.0293   24.0857 C   0  0  0  0  0  0  0  0  0  0  0  0
    6.7450   12.6779   24.6838 C   0  0  0  0  0  0  0  0  0  0  0  0
    7.2154   12.5844   26.1464 C   0  0  0  0  0  0  0  0  0  0  0  0
    7.6704   13.8994   26.6541 N   0  0  0  0  0  0  0  0  0  0  0  0
    9.2607   14.4754   26.6251 S   0  0  0  0  0  0  0  0  0  0  0  0
    9.4885   15.0390   27.9294 O   0  0  0  0  0  0  0  0  0  0  0  0
    9.4733   15.2974   25.4522 O   0  0  0  0  0  0  0  0  0  0  0  0
   10.3059   13.1457   26.4624 N   0  0  0  0  0  0  0  0  0  0  0  0
   10.2578   12.5917   25.1043 C   0  0  0  0  0  0  0  0  0  0  0  0
   11.0120   11.3089   25.0657 C   0  0  0  0  0  0  0  0  0  0  0  0
   12.4921   11.6345   25.2842 C   0  0  0  0  0  0  0  0  0  0  0  0
   12.7326   12.4655   26.5368 C   0  0  0  0  0  0  0  0  0  0  0  0
   11.7193   13.5937   26.7192 C   0  0  0  0  0  0  0  0  0  0  0  0
    6.6457   14.9510   26.3810 C   0  0  0  0  0  0  0  0  0  0  0  0
    6.4884   15.1631   24.8640 C   0  0  0  0  0  0  0  0  0  0  0  0
  1  2  1  0
  2  3  1  0
  2  4  1  0
  4  5  1  0
  5  6  1  0
  6  7  2  0
  6  8  1  0
  8  9  1  1
  9 10  1  0
 10 11  2  0
 10 12  1  0
 12 13  1  0
 13 14  1  0
 14 15  1  0
 15 16  1  0
 16 17  2  0
 16 18  2  0
 16 19  1  0
 19 20  1  0
 20 21  1  0
 21 22  1  0
 22 23  1  0
 23 24  1  0
 15 25  1  0
 25 26  1  0
  8  2  1  0
 26 12  1  0
 24 19  1  0
M  END
>  <energy_score>  (2307) 
-28.42201

>  <inchikey>  (2307) 
None

>  <smiles>  (2307) 
None

>  <ref_pdb>  (2307) 
A4706a

>  <alias>  (2307) 
None

>  <HIPPO Pose ID>  (2307) 
499951

>  <name>  (2307) 
P499951

>  <HIPPO Compound ID>  (2307) 
314460

>  <ref_mols>  (2307) 
A0875a,A4706a

>  <distance_score>  (2307) 
1.58721

>  <inspiration_score>  (2307) 
None

$$$$
P499952
     RDKit          3D

 26 28  0  0  0  0  0  0  0  0999 V2000
   10.7693   14.2601   19.7558 C   0  0  0  0  0  0  0  0  0  0  0  0
    9.6911   15.1666   20.3016 C   0  0  2  0  0  0  0  0  0  0  0  0
   10.4670   16.3676   20.3374 O   0  0  0  0  0  0  0  0  0  0  0  0
   11.2117   16.3326   21.5544 C   0  0  0  0  0  0  0  0  0  0  0  0
   10.3890   15.5293   22.5022 C   0  0  0  0  0  0  0  0  0  0  0  0
    9.1014   15.1939   21.7520 C   0  0  1  0  0  0  0  0  0  0  0  0
    8.0104   16.3240   21.7762 C   0  0  0  0  0  0  0  0  0  0  0  0
    8.3023   17.6318   21.2223 N   0  0  0  0  0  0  0  0  0  0  0  0
    8.5642   14.0173   22.4504 O   0  0  0  0  0  0  0  0  0  0  0  0
    7.2308   13.8305   22.5766 C   0  0  0  0  0  0  0  0  0  0  0  0
    6.5763   13.3845   21.6388 O   0  0  0  0  0  0  0  0  0  0  0  0
    6.5120   14.0561   23.9267 C   0  0  0  0  0  0  0  0  0  0  0  0
    6.2998   12.7144   24.6354 C   0  0  0  0  0  0  0  0  0  0  0  0
    7.5741   12.2766   25.3263 C   0  0  0  0  0  0  0  0  0  0  0  0
    8.0846   13.3020   26.2616 N   0  0  0  0  0  0  0  0  0  0  0  0
    9.6808   13.8067   26.1310 S   0  0  0  0  0  0  0  0  0  0  0  0
    9.9290   14.6447   27.2790 O   0  0  0  0  0  0  0  0  0  0  0  0
    9.8899   14.3349   24.8167 O   0  0  0  0  0  0  0  0  0  0  0  0
   10.6897   12.4714   26.2551 N   0  0  0  0  0  0  0  0  0  0  0  0
   12.0835   12.9220   26.5826 C   0  0  0  0  0  0  0  0  0  0  0  0
   13.0486   12.6064   25.4717 C   0  0  0  0  0  0  0  0  0  0  0  0
   13.1425   11.1015   25.3512 C   0  0  0  0  0  0  0  0  0  0  0  0
   11.7407   10.4367   25.2779 C   0  0  0  0  0  0  0  0  0  0  0  0
   10.6153   11.4552   25.1610 C   0  0  0  0  0  0  0  0  0  0  0  0
    7.1729   14.4917   26.3460 C   0  0  0  0  0  0  0  0  0  0  0  0
    6.9889   15.0932   24.9453 C   0  0  0  0  0  0  0  0  0  0  0  0
  2  1  1  1
  2  3  1  0
  3  4  1  0
  4  5  1  0
  5  6  1  0
  6  7  1  6
  7  8  1  0
  6  9  1  0
  9 10  1  0
 10 11  2  0
 10 12  1  0
 12 13  1  0
 13 14  1  0
 14 15  1  0
 15 16  1  0
 16 17  2  0
 16 18  2  0
 16 19  1  0
 19 20  1  0
 20 21  1  0
 21 22  1  0
 22 23  1  0
 23 24  1  0
 15 25  1  0
 25 26  1  0
  6  2  1  0
 26 12  1  0
 24 19  1  0
M  END
>  <energy_score>  (2308) 
-1.910815

>  <inchikey>  (2308) 
None

>  <smiles>  (2308) 
None

>  <ref_pdb>  (2308) 
A4706a

>  <alias>  (2308) 
None

>  <HIPPO Pose ID>  (2308) 
499952

>  <name>  (2308) 
P499952

>  <HIPPO Compound ID>  (2308) 
314461

>  <ref_mols>  (2308) 
A4706a,A0875a

>  <distance_score>  (2308) 
1.273009

>  <inspiration_score>  (2308) 
None

$$$$
P499953
     RDKit          3D

 26 28  0  0  0  0  0  0  0  0999 V2000
    9.9377   15.7121   18.9535 C   0  0  0  0  0  0  0  0  0  0  0  0
   10.4077   14.8502   20.0749 C   0  0  1  0  0  0  0  0  0  0  0  0
   11.7414   15.2965   20.4047 O   0  0  0  0  0  0  0  0  0  0  0  0
   11.8892   15.2155   21.8088 C   0  0  0  0  0  0  0  0  0  0  0  0
   10.8082   14.2718   22.2344 C   0  0  0  0  0  0  0  0  0  0  0  0
    9.6263   14.7713   21.4096 C   0  0  1  0  0  0  0  0  0  0  0  0
    9.1418   16.1520   21.8945 C   0  0  0  0  0  0  0  0  0  0  0  0
    7.7960   16.5169   21.5052 N   0  0  0  0  0  0  0  0  0  0  0  0
    8.5036   13.8514   21.3568 O   0  0  0  0  0  0  0  0  0  0  0  0
    7.6369   13.5391   22.3527 C   0  0  0  0  0  0  0  0  0  0  0  0
    6.4778   13.2202   22.0971 O   0  0  0  0  0  0  0  0  0  0  0  0
    8.1389   13.4778   23.7656 C   0  0  0  0  0  0  0  0  0  0  0  0
    8.7721   12.0978   23.9737 C   0  0  0  0  0  0  0  0  0  0  0  0
    8.9823   11.7464   25.4317 C   0  0  0  0  0  0  0  0  0  0  0  0
    9.0540   12.9514   26.2486 N   0  0  0  0  0  0  0  0  0  0  0  0
   10.4408   13.8753   26.4557 S   0  0  0  0  0  0  0  0  0  0  0  0
   10.5729   14.8053   25.3607 O   0  0  0  0  0  0  0  0  0  0  0  0
   10.3241   14.3824   27.7988 O   0  0  0  0  0  0  0  0  0  0  0  0
   11.7602   12.7849   26.4085 N   0  0  0  0  0  0  0  0  0  0  0  0
   12.8515   13.0552   27.4064 C   0  0  0  0  0  0  0  0  0  0  0  0
   14.2758   12.7844   26.9134 C   0  0  0  0  0  0  0  0  0  0  0  0
   14.4136   11.4710   26.2181 C   0  0  0  0  0  0  0  0  0  0  0  0
   13.3017   11.3183   25.2033 C   0  0  0  0  0  0  0  0  0  0  0  0
   12.3161   12.4882   25.0824 C   0  0  0  0  0  0  0  0  0  0  0  0
    7.7629   13.7287   26.2411 C   0  0  0  0  0  0  0  0  0  0  0  0
    7.0877   13.7004   24.8567 C   0  0  0  0  0  0  0  0  0  0  0  0
  2  1  1  6
  2  3  1  0
  3  4  1  0
  4  5  1  0
  5  6  1  0
  6  7  1  1
  7  8  1  0
  6  9  1  0
  9 10  1  0
 10 11  2  0
 10 12  1  0
 12 13  1  0
 13 14  1  0
 14 15  1  0
 15 16  1  0
 16 17  2  0
 16 18  2  0
 16 19  1  0
 19 20  1  0
 20 21  1  0
 21 22  1  0
 22 23  1  0
 23 24  1  0
 15 25  1  0
 25 26  1  0
  6  2  1  0
 26 12  1  0
 24 19  1  0
M  END
>  <energy_score>  (2309) 
-15.178895

>  <inchikey>  (2309) 
None

>  <smiles>  (2309) 
None

>  <ref_pdb>  (2309) 
A4706a

>  <alias>  (2309) 
None

>  <HIPPO Pose ID>  (2309) 
499953

>  <name>  (2309) 
P499953

>  <HIPPO Compound ID>  (2309) 
314461

>  <ref_mols>  (2309) 
A4706a,A0875a

>  <distance_score>  (2309) 
1.725791

>  <inspiration_score>  (2309) 
None

$$$$
P499954
     RDKit          3D

 26 27  0  0  0  0  0  0  0  0999 V2000
   19.2519    8.7823   28.7185 C   0  0  0  0  0  0  0  0  0  0  0  0
   18.1940    9.1798   27.7063 C   0  0  0  0  0  0  0  0  0  0  0  0
   17.8097   10.5261   27.9982 O   0  0  0  0  0  0  0  0  0  0  0  0
   16.6231   10.9257   27.4713 C   0  0  0  0  0  0  0  0  0  0  0  0
   15.9405   10.2792   26.6862 O   0  0  0  0  0  0  0  0  0  0  0  0
   16.2590   12.3215   27.9731 C   0  0  2  0  0  0  0  0  0  0  0  0
   16.6152   12.5276   29.4431 C   0  0  0  0  0  0  0  0  0  0  0  0
   15.5743   11.3386   30.6021 Br  0  0  0  0  0  0  0  0  0  0  0  0
   14.8564   12.6369   27.8241 O   0  0  0  0  0  0  0  0  0  0  0  0
   14.3683   12.6684   26.5573 C   0  0  0  0  0  0  0  0  0  0  0  0
   15.0363   12.8081   25.5484 O   0  0  0  0  0  0  0  0  0  0  0  0
   12.8844   12.4030   26.5629 C   0  0  0  0  0  0  0  0  0  0  0  0
   12.0087   13.5620   26.9902 C   0  0  0  0  0  0  0  0  0  0  0  0
   10.5590   13.2431   26.7118 C   0  0  0  0  0  0  0  0  0  0  0  0
   10.3153   13.0200   25.2711 N   0  0  0  0  0  0  0  0  0  0  0  0
    9.1695   14.0732   24.6421 S   0  0  0  0  0  0  0  0  0  0  0  0
    8.9954   13.8366   23.2350 O   0  0  0  0  0  0  0  0  0  0  0  0
    9.5021   15.3653   25.1840 O   0  0  0  0  0  0  0  0  0  0  0  0
    7.8400   13.4738   25.4694 N   0  0  0  0  0  0  0  0  0  0  0  0
    7.3449   12.1416   25.0681 C   0  0  0  0  0  0  0  0  0  0  0  0
    6.5934   11.5532   26.2572 C   0  0  0  0  0  0  0  0  0  0  0  0
    5.4693   12.4805   26.7189 C   0  0  0  0  0  0  0  0  0  0  0  0
    5.9683   13.9087   26.9411 C   0  0  0  0  0  0  0  0  0  0  0  0
    6.7366   14.4226   25.7242 C   0  0  0  0  0  0  0  0  0  0  0  0
   11.5199   12.8089   24.4542 C   0  0  0  0  0  0  0  0  0  0  0  0
   12.4266   11.8358   25.2170 C   0  0  0  0  0  0  0  0  0  0  0  0
  1  2  1  0
  2  3  1  0
  3  4  1  0
  4  5  2  0
  4  6  1  0
  6  7  1  1
  7  8  1  0
  6  9  1  0
  9 10  1  0
 10 11  2  0
 10 12  1  0
 12 13  1  0
 13 14  1  0
 14 15  1  0
 15 16  1  0
 16 17  2  0
 16 18  2  0
 16 19  1  0
 19 20  1  0
 20 21  1  0
 21 22  1  0
 22 23  1  0
 23 24  1  0
 15 25  1  0
 25 26  1  0
 26 12  1  0
 24 19  1  0
M  END
>  <energy_score>  (2310) 
-79.346868

>  <inchikey>  (2310) 
None

>  <smiles>  (2310) 
None

>  <ref_pdb>  (2310) 
A4706a

>  <alias>  (2310) 
None

>  <HIPPO Pose ID>  (2310) 
499954

>  <name>  (2310) 
P499954

>  <HIPPO Compound ID>  (2310) 
314462

>  <ref_mols>  (2310) 
A4706a,A0875a

>  <distance_score>  (2310) 
1.7986

>  <inspiration_score>  (2310) 
None

$$$$
P499955
     RDKit          3D

 26 27  0  0  0  0  0  0  0  0999 V2000
   18.3594    8.9118   28.8393 C   0  0  0  0  0  0  0  0  0  0  0  0
   17.7299    9.7376   27.7349 C   0  0  0  0  0  0  0  0  0  0  0  0
   16.6550   10.4943   28.3109 O   0  0  0  0  0  0  0  0  0  0  0  0
   15.8546   11.1315   27.4175 C   0  0  0  0  0  0  0  0  0  0  0  0
   15.9893   11.0998   26.2020 O   0  0  0  0  0  0  0  0  0  0  0  0
   14.7054   11.8469   28.1163 C   0  0  1  0  0  0  0  0  0  0  0  0
   15.1922   12.6886   29.2890 C   0  0  0  0  0  0  0  0  0  0  0  0
   14.8149   11.7955   30.9847 Br  0  0  0  0  0  0  0  0  0  0  0  0
   14.0346   12.7310   27.1896 O   0  0  0  0  0  0  0  0  0  0  0  0
   13.2520   12.1719   26.2142 C   0  0  0  0  0  0  0  0  0  0  0  0
   13.0679   10.9756   26.0505 O   0  0  0  0  0  0  0  0  0  0  0  0
   12.5958   13.2827   25.4194 C   0  0  0  0  0  0  0  0  0  0  0  0
   11.6799   14.0730   26.3465 C   0  0  0  0  0  0  0  0  0  0  0  0
   10.4008   13.3077   26.6044 C   0  0  0  0  0  0  0  0  0  0  0  0
    9.7597   12.9245   25.3468 N   0  0  0  0  0  0  0  0  0  0  0  0
    8.7033   14.0565   24.7154 S   0  0  0  0  0  0  0  0  0  0  0  0
    8.5233   13.8418   23.3050 O   0  0  0  0  0  0  0  0  0  0  0  0
    9.0751   15.3317   25.2741 O   0  0  0  0  0  0  0  0  0  0  0  0
    7.3626   13.5061   25.5266 N   0  0  0  0  0  0  0  0  0  0  0  0
    6.8187   12.1831   25.1913 C   0  0  0  0  0  0  0  0  0  0  0  0
    6.2649   11.5975   26.4850 C   0  0  0  0  0  0  0  0  0  0  0  0
    5.2267   12.5293   27.1146 C   0  0  0  0  0  0  0  0  0  0  0  0
    5.7435   13.9655   27.2413 C   0  0  0  0  0  0  0  0  0  0  0  0
    6.3271   14.4691   25.9215 C   0  0  0  0  0  0  0  0  0  0  0  0
   10.5753   12.1306   24.4358 C   0  0  0  0  0  0  0  0  0  0  0  0
   11.8411   12.9050   24.1571 C   0  0  0  0  0  0  0  0  0  0  0  0
  1  2  1  0
  2  3  1  0
  3  4  1  0
  4  5  2  0
  4  6  1  0
  6  7  1  1
  7  8  1  0
  6  9  1  0
  9 10  1  0
 10 11  2  0
 10 12  1  0
 12 13  1  0
 13 14  1  0
 14 15  1  0
 15 16  1  0
 16 17  2  0
 16 18  2  0
 16 19  1  0
 19 20  1  0
 20 21  1  0
 21 22  1  0
 22 23  1  0
 23 24  1  0
 15 25  1  0
 25 26  1  0
 26 12  1  0
 24 19  1  0
M  END
>  <energy_score>  (2311) 
-78.979872

>  <inchikey>  (2311) 
None

>  <smiles>  (2311) 
None

>  <ref_pdb>  (2311) 
A4706a

>  <alias>  (2311) 
None

>  <HIPPO Pose ID>  (2311) 
499955

>  <name>  (2311) 
P499955

>  <HIPPO Compound ID>  (2311) 
314462

>  <ref_mols>  (2311) 
A4706a,A0875a

>  <distance_score>  (2311) 
1.869798

>  <inspiration_score>  (2311) 
None

$$$$
P499956
     RDKit          3D

 26 27  0  0  0  0  0  0  0  0999 V2000
    9.4505   16.9504   19.8323 C   0  0  0  0  0  0  0  0  0  0  0  0
    9.6885   15.7656   19.2476 C   0  0  0  0  0  0  0  0  0  0  0  0
   10.3766   14.5504   19.7627 C   0  0  0  0  0  0  0  0  0  0  0  0
   11.4631   14.8102   20.6166 O   0  0  0  0  0  0  0  0  0  0  0  0
   11.1449   15.5402   21.6925 C   0  0  0  0  0  0  0  0  0  0  0  0
   11.7550   16.5788   21.9024 O   0  0  0  0  0  0  0  0  0  0  0  0
   10.0960   14.9596   22.6623 C   0  0  1  0  0  0  0  0  0  0  0  0
   10.8605   15.2109   23.9505 C   0  0  0  0  0  0  0  0  0  0  0  0
    8.7982   15.4946   22.9751 O   0  0  0  0  0  0  0  0  0  0  0  0
    7.6842   14.8134   22.5978 C   0  0  0  0  0  0  0  0  0  0  0  0
    7.6159   14.1085   21.5955 O   0  0  0  0  0  0  0  0  0  0  0  0
    6.4864   14.9819   23.5766 C   0  0  0  0  0  0  0  0  0  0  0  0
    5.8065   13.6311   23.9246 C   0  0  0  0  0  0  0  0  0  0  0  0
    6.1051   13.0963   25.3389 C   0  0  0  0  0  0  0  0  0  0  0  0
    7.4922   13.4479   25.7525 N   0  0  0  0  0  0  0  0  0  0  0  0
    8.6142   12.4037   25.0998 S   0  0  0  0  0  0  0  0  0  0  0  0
    8.3892   11.1357   25.7492 O   0  0  0  0  0  0  0  0  0  0  0  0
    8.5315   12.4914   23.6662 O   0  0  0  0  0  0  0  0  0  0  0  0
   10.1717   12.8770   25.4784 N   0  0  0  0  0  0  0  0  0  0  0  0
   11.1296   11.9032   24.8981 C   0  0  0  0  0  0  0  0  0  0  0  0
   12.5908   12.2439   25.1451 C   0  0  0  0  0  0  0  0  0  0  0  0
   12.8873   12.6492   26.5646 C   0  0  0  0  0  0  0  0  0  0  0  0
   11.8920   13.7024   27.0178 C   0  0  0  0  0  0  0  0  0  0  0  0
   10.4621   13.2353   26.8546 C   0  0  0  0  0  0  0  0  0  0  0  0
    7.6618   14.9063   25.8377 C   0  0  0  0  0  0  0  0  0  0  0  0
    6.7416   15.6832   24.9057 C   0  0  0  0  0  0  0  0  0  0  0  0
  1  2  2  0
  2  3  1  0
  3  4  1  0
  4  5  1  0
  5  6  2  0
  5  7  1  0
  7  8  1  1
  7  9  1  0
  9 10  1  0
 10 11  2  0
 10 12  1  0
 12 13  1  0
 13 14  1  0
 14 15  1  0
 15 16  1  0
 16 17  2  0
 16 18  2  0
 16 19  1  0
 19 20  1  0
 20 21  1  0
 21 22  1  0
 22 23  1  0
 23 24  1  0
 15 25  1  0
 25 26  1  0
 26 12  1  0
 24 19  1  0
M  END
>  <energy_score>  (2312) 
-9.962301

>  <inchikey>  (2312) 
None

>  <smiles>  (2312) 
None

>  <ref_pdb>  (2312) 
A4706a

>  <alias>  (2312) 
None

>  <HIPPO Pose ID>  (2312) 
499956

>  <name>  (2312) 
P499956

>  <HIPPO Compound ID>  (2312) 
314463

>  <ref_mols>  (2312) 
A0875a,A4706a

>  <distance_score>  (2312) 
1.970034

>  <inspiration_score>  (2312) 
None

$$$$
P499957
     RDKit          3D

 26 27  0  0  0  0  0  0  0  0999 V2000
   17.2382   13.2939   31.2371 C   0  0  0  0  0  0  0  0  0  0  0  0
   17.1366   12.2313   30.2865 O   0  0  0  0  0  0  0  0  0  0  0  0
   16.3891   12.5190   29.1917 C   0  0  0  0  0  0  0  0  0  0  0  0
   15.8173   13.5875   28.9892 O   0  0  0  0  0  0  0  0  0  0  0  0
   16.3164   11.3213   28.2348 C   0  0  2  0  0  0  0  0  0  0  0  0
   17.7049   10.8841   27.7858 C   0  0  0  0  0  0  0  0  0  0  0  0
   18.3340    9.9918   28.7664 C   0  0  0  0  0  0  0  0  0  0  0  0
   18.8155    9.2796   29.5441 N   0  0  0  0  0  0  0  0  0  0  0  0
   15.5286   11.7082   27.0672 O   0  0  0  0  0  0  0  0  0  0  0  0
   14.2114   11.8611   27.3686 C   0  0  0  0  0  0  0  0  0  0  0  0
   13.7204   11.4556   28.4142 O   0  0  0  0  0  0  0  0  0  0  0  0
   13.4235   12.6580   26.3446 C   0  0  0  0  0  0  0  0  0  0  0  0
   12.3678   13.4001   27.1574 C   0  0  0  0  0  0  0  0  0  0  0  0
   11.3165   14.1495   26.3936 C   0  0  0  0  0  0  0  0  0  0  0  0
   10.7079   13.2558   25.3824 N   0  0  0  0  0  0  0  0  0  0  0  0
    9.3571   13.9983   24.6588 S   0  0  0  0  0  0  0  0  0  0  0  0
    9.2143   13.5662   23.2939 O   0  0  0  0  0  0  0  0  0  0  0  0
    9.4137   15.3880   25.0261 O   0  0  0  0  0  0  0  0  0  0  0  0
    8.1314   13.2874   25.5760 N   0  0  0  0  0  0  0  0  0  0  0  0
    7.7141   11.9414   25.1197 C   0  0  0  0  0  0  0  0  0  0  0  0
    6.8585   11.2956   26.1989 C   0  0  0  0  0  0  0  0  0  0  0  0
    5.6733   12.1694   26.5965 C   0  0  0  0  0  0  0  0  0  0  0  0
    6.1241   13.5822   26.9449 C   0  0  0  0  0  0  0  0  0  0  0  0
    6.9593   14.1746   25.8158 C   0  0  0  0  0  0  0  0  0  0  0  0
   11.7247   12.7275   24.4579 C   0  0  0  0  0  0  0  0  0  0  0  0
   12.7242   11.8537   25.2572 C   0  0  0  0  0  0  0  0  0  0  0  0
  1  2  1  0
  2  3  1  0
  3  4  2  0
  3  5  1  0
  5  6  1  6
  6  7  1  0
  7  8  3  0
  5  9  1  0
  9 10  1  0
 10 11  2  0
 10 12  1  0
 12 13  1  0
 13 14  1  0
 14 15  1  0
 15 16  1  0
 16 17  2  0
 16 18  2  0
 16 19  1  0
 19 20  1  0
 20 21  1  0
 21 22  1  0
 22 23  1  0
 23 24  1  0
 15 25  1  0
 25 26  1  0
 26 12  1  0
 24 19  1  0
M  END
>  <energy_score>  (2313) 
-79.671806

>  <inchikey>  (2313) 
None

>  <smiles>  (2313) 
None

>  <ref_pdb>  (2313) 
A4706a

>  <alias>  (2313) 
None

>  <HIPPO Pose ID>  (2313) 
499957

>  <name>  (2313) 
P499957

>  <HIPPO Compound ID>  (2313) 
314464

>  <ref_mols>  (2313) 
A4706a,A0875a

>  <distance_score>  (2313) 
1.951216

>  <inspiration_score>  (2313) 
None

$$$$
P499958
     RDKit          3D

 26 27  0  0  0  0  0  0  0  0999 V2000
   14.4686   10.7485   31.0069 C   0  0  0  0  0  0  0  0  0  0  0  0
   14.6991   10.8647   29.5998 O   0  0  0  0  0  0  0  0  0  0  0  0
   15.9552   11.2900   29.2835 C   0  0  0  0  0  0  0  0  0  0  0  0
   16.8343   11.5389   30.0966 O   0  0  0  0  0  0  0  0  0  0  0  0
   16.1658   11.3328   27.7606 C   0  0  1  0  0  0  0  0  0  0  0  0
   16.9911   10.0927   27.3964 C   0  0  0  0  0  0  0  0  0  0  0  0
   18.4369   10.3417   27.4715 C   0  0  0  0  0  0  0  0  0  0  0  0
   19.5835   10.5110   27.5001 N   0  0  0  0  0  0  0  0  0  0  0  0
   14.9443   11.4084   26.9576 O   0  0  0  0  0  0  0  0  0  0  0  0
   14.2743   12.5780   27.1604 C   0  0  0  0  0  0  0  0  0  0  0  0
   14.6120   13.3868   28.0236 O   0  0  0  0  0  0  0  0  0  0  0  0
   13.1408   12.8941   26.1826 C   0  0  0  0  0  0  0  0  0  0  0  0
   12.0389   13.7313   26.8623 C   0  0  0  0  0  0  0  0  0  0  0  0
   10.6422   13.1984   26.6929 C   0  0  0  0  0  0  0  0  0  0  0  0
   10.3159   12.9358   25.2908 N   0  0  0  0  0  0  0  0  0  0  0  0
    9.1918   14.0163   24.6601 S   0  0  0  0  0  0  0  0  0  0  0  0
    9.0073   13.7694   23.2557 O   0  0  0  0  0  0  0  0  0  0  0  0
    9.5553   15.3066   25.1868 O   0  0  0  0  0  0  0  0  0  0  0  0
    7.8523   13.4513   25.4955 N   0  0  0  0  0  0  0  0  0  0  0  0
    7.3271   12.1281   25.0996 C   0  0  0  0  0  0  0  0  0  0  0  0
    6.5542   11.5650   26.2868 C   0  0  0  0  0  0  0  0  0  0  0  0
    5.4461   12.5192   26.7309 C   0  0  0  0  0  0  0  0  0  0  0  0
    5.9762   13.9367   26.9499 C   0  0  0  0  0  0  0  0  0  0  0  0
    6.7681   14.4266   25.7383 C   0  0  0  0  0  0  0  0  0  0  0  0
   11.4382   12.5780   24.4200 C   0  0  0  0  0  0  0  0  0  0  0  0
   12.5380   11.8649   25.2497 C   0  0  0  0  0  0  0  0  0  0  0  0
  1  2  1  0
  2  3  1  0
  3  4  2  0
  3  5  1  0
  5  6  1  6
  6  7  1  0
  7  8  3  0
  5  9  1  0
  9 10  1  0
 10 11  2  0
 10 12  1  0
 12 13  1  0
 13 14  1  0
 14 15  1  0
 15 16  1  0
 16 17  2  0
 16 18  2  0
 16 19  1  0
 19 20  1  0
 20 21  1  0
 21 22  1  0
 22 23  1  0
 23 24  1  0
 15 25  1  0
 25 26  1  0
 26 12  1  0
 24 19  1  0
M  END
>  <energy_score>  (2314) 
-60.698619

>  <inchikey>  (2314) 
None

>  <smiles>  (2314) 
None

>  <ref_pdb>  (2314) 
A4706a

>  <alias>  (2314) 
None

>  <HIPPO Pose ID>  (2314) 
499958

>  <name>  (2314) 
P499958

>  <HIPPO Compound ID>  (2314) 
314464

>  <ref_mols>  (2314) 
A4706a,A0875a

>  <distance_score>  (2314) 
1.854146

>  <inspiration_score>  (2314) 
None

$$$$
P499959
     RDKit          3D

 26 29  0  0  0  0  0  0  0  0999 V2000
    5.6200   15.0289   22.2957 O   0  0  0  0  0  0  0  0  0  0  0  0
    6.3681   15.1349   23.2641 C   0  0  0  0  0  0  0  0  0  0  0  0
    7.6810   15.5041   23.1800 O   0  0  0  0  0  0  0  0  0  0  0  0
    8.1855   15.7259   21.8502 C   0  0  2  0  0  0  0  0  0  0  0  0
    8.2233   14.4469   21.0553 C   0  0  0  0  0  0  0  0  0  0  0  0
    9.1742   14.6172   20.0094 O   0  0  0  0  0  0  0  0  0  0  0  0
    9.9750   15.7405   20.2759 C   0  0  2  0  0  0  0  0  0  0  0  0
   11.3470   15.3953   20.2128 O   0  0  0  0  0  0  0  0  0  0  0  0
   11.8307   15.1934   21.5328 C   0  0  0  0  0  0  0  0  0  0  0  0
   10.6892   15.4104   22.4854 C   0  0  0  0  0  0  0  0  0  0  0  0
    9.6420   16.1479   21.6873 C   0  0  2  0  0  0  0  0  0  0  0  0
    5.8924   14.7545   24.6780 C   0  0  0  0  0  0  0  0  0  0  0  0
    5.8098   13.2124   24.8198 C   0  0  0  0  0  0  0  0  0  0  0  0
    6.6819   12.5526   25.8899 C   0  0  0  0  0  0  0  0  0  0  0  0
    7.8186   13.4199   26.2506 N   0  0  0  0  0  0  0  0  0  0  0  0
    9.0348   13.5564   25.0955 S   0  0  0  0  0  0  0  0  0  0  0  0
    9.4990   14.9208   25.0739 O   0  0  0  0  0  0  0  0  0  0  0  0
    8.5835   12.8451   23.9263 O   0  0  0  0  0  0  0  0  0  0  0  0
   10.2234   12.6519   25.8169 N   0  0  0  0  0  0  0  0  0  0  0  0
   11.2875   13.3838   26.5103 C   0  0  0  0  0  0  0  0  0  0  0  0
   12.5675   13.4028   25.6918 C   0  0  0  0  0  0  0  0  0  0  0  0
   12.8398   12.1787   24.8611 C   0  0  0  0  0  0  0  0  0  0  0  0
   12.0359   11.0619   25.4407 C   0  0  0  0  0  0  0  0  0  0  0  0
   10.5594   11.3535   25.2096 C   0  0  0  0  0  0  0  0  0  0  0  0
    7.3293   14.6770   26.8410 C   0  0  0  0  0  0  0  0  0  0  0  0
    6.5807   15.5202   25.8166 C   0  0  0  0  0  0  0  0  0  0  0  0
  1  2  2  0
  2  3  1  0
  4  3  1  1
  4  5  1  0
  5  6  1  0
  7  6  1  1
  7  8  1  0
  8  9  1  0
  9 10  1  0
 11 10  1  1
  2 12  1  0
 12 13  1  0
 13 14  1  0
 14 15  1  0
 15 16  1  0
 16 17  2  0
 16 18  2  0
 16 19  1  0
 19 20  1  0
 20 21  1  0
 21 22  1  0
 22 23  1  0
 23 24  1  0
 15 25  1  0
 25 26  1  0
 11  4  1  0
 26 12  1  0
 11  7  1  0
 24 19  1  0
M  END
>  <energy_score>  (2315) 
-45.35514

>  <inchikey>  (2315) 
None

>  <smiles>  (2315) 
None

>  <ref_pdb>  (2315) 
A4706a

>  <alias>  (2315) 
None

>  <HIPPO Pose ID>  (2315) 
499959

>  <name>  (2315) 
P499959

>  <HIPPO Compound ID>  (2315) 
314466

>  <ref_mols>  (2315) 
A4706a,A0875a

>  <distance_score>  (2315) 
1.643518

>  <inspiration_score>  (2315) 
None

$$$$
P499960
     RDKit          3D

 26 29  0  0  0  0  0  0  0  0999 V2000
    6.7240   13.0237   22.3010 O   0  0  0  0  0  0  0  0  0  0  0  0
    6.7562   13.8997   23.1640 C   0  0  0  0  0  0  0  0  0  0  0  0
    7.5655   15.0002   23.1184 O   0  0  0  0  0  0  0  0  0  0  0  0
    8.1365   15.4127   21.8463 C   0  0  2  0  0  0  0  0  0  0  0  0
    8.4494   14.3241   20.8685 C   0  0  0  0  0  0  0  0  0  0  0  0
    9.2887   14.8538   19.8495 O   0  0  0  0  0  0  0  0  0  0  0  0
   10.0117   15.9188   20.4134 C   0  0  2  0  0  0  0  0  0  0  0  0
   11.3890   15.5886   20.4768 O   0  0  0  0  0  0  0  0  0  0  0  0
   11.6363   14.9687   21.7253 C   0  0  0  0  0  0  0  0  0  0  0  0
   10.5817   15.4681   22.6720 C   0  0  0  0  0  0  0  0  0  0  0  0
    9.4982   16.0873   21.8275 C   0  0  2  0  0  0  0  0  0  0  0  0
    5.8332   13.7553   24.3751 C   0  0  0  0  0  0  0  0  0  0  0  0
    6.2069   12.4949   25.2055 C   0  0  0  0  0  0  0  0  0  0  0  0
    7.2240   12.7886   26.3129 C   0  0  0  0  0  0  0  0  0  0  0  0
    7.8821   14.0238   25.9027 N   0  0  0  0  0  0  0  0  0  0  0  0
    9.4459   14.3740   26.2623 S   0  0  0  0  0  0  0  0  0  0  0  0
    9.7981   15.5171   25.4656 O   0  0  0  0  0  0  0  0  0  0  0  0
    9.5778   14.4078   27.6946 O   0  0  0  0  0  0  0  0  0  0  0  0
   10.4062   13.1454   25.7236 N   0  0  0  0  0  0  0  0  0  0  0  0
   10.0689   12.2566   24.6151 C   0  0  0  0  0  0  0  0  0  0  0  0
   10.7466   10.9451   25.0021 C   0  0  0  0  0  0  0  0  0  0  0  0
   12.2334   11.1953   25.4187 C   0  0  0  0  0  0  0  0  0  0  0  0
   12.7112   12.5663   25.0147 C   0  0  0  0  0  0  0  0  0  0  0  0
   11.8341   13.5707   25.7295 C   0  0  0  0  0  0  0  0  0  0  0  0
    6.9761   15.1897   26.1014 C   0  0  0  0  0  0  0  0  0  0  0  0
    5.7320   14.9937   25.2531 C   0  0  0  0  0  0  0  0  0  0  0  0
  1  2  2  0
  2  3  1  0
  4  3  1  1
  4  5  1  0
  5  6  1  0
  7  6  1  1
  7  8  1  0
  8  9  1  0
  9 10  1  0
 11 10  1  1
  2 12  1  0
 12 13  1  0
 13 14  1  0
 14 15  1  0
 15 16  1  0
 16 17  2  0
 16 18  2  0
 16 19  1  0
 19 20  1  0
 20 21  1  0
 21 22  1  0
 22 23  1  0
 23 24  1  0
 15 25  1  0
 25 26  1  0
 11  4  1  0
 26 12  1  0
 11  7  1  0
 24 19  1  0
M  END
>  <energy_score>  (2316) 
-47.141722

>  <inchikey>  (2316) 
None

>  <smiles>  (2316) 
None

>  <ref_pdb>  (2316) 
A4706a

>  <alias>  (2316) 
None

>  <HIPPO Pose ID>  (2316) 
499960

>  <name>  (2316) 
P499960

>  <HIPPO Compound ID>  (2316) 
314466

>  <ref_mols>  (2316) 
A4706a,A0875a

>  <distance_score>  (2316) 
1.538752

>  <inspiration_score>  (2316) 
None

$$$$
P499961
     RDKit          3D

 26 29  0  0  0  0  0  0  0  0999 V2000
    6.5185   13.1143   22.0134 O   0  0  0  0  0  0  0  0  0  0  0  0
    6.8673   14.0740   22.6967 C   0  0  0  0  0  0  0  0  0  0  0  0
    7.9946   14.8023   22.4392 O   0  0  0  0  0  0  0  0  0  0  0  0
    8.9171   14.2936   21.4344 C   0  0  2  0  0  0  0  0  0  0  0  0
   10.1433   13.5813   21.9931 C   0  0  0  0  0  0  0  0  0  0  0  0
   11.2029   13.7109   21.0589 O   0  0  0  0  0  0  0  0  0  0  0  0
   10.9977   14.8972   20.3414 C   0  0  2  0  0  0  0  0  0  0  0  0
   11.8361   15.8453   20.9733 O   0  0  0  0  0  0  0  0  0  0  0  0
   11.0072   16.6087   21.8276 C   0  0  0  0  0  0  0  0  0  0  0  0
    9.6700   16.6937   21.1437 C   0  0  0  0  0  0  0  0  0  0  0  0
    9.5520   15.3364   20.5364 C   0  0  2  0  0  0  0  0  0  0  0  0
    6.0471   14.5102   23.9376 C   0  0  0  0  0  0  0  0  0  0  0  0
    5.5002   13.2865   24.7149 C   0  0  0  0  0  0  0  0  0  0  0  0
    6.4104   12.6359   25.7701 C   0  0  0  0  0  0  0  0  0  0  0  0
    7.5885   13.4879   26.0626 N   0  0  0  0  0  0  0  0  0  0  0  0
    8.8842   13.2589   25.0208 S   0  0  0  0  0  0  0  0  0  0  0  0
    8.4611   12.3102   24.0233 O   0  0  0  0  0  0  0  0  0  0  0  0
    9.4421   14.5530   24.7088 O   0  0  0  0  0  0  0  0  0  0  0  0
   10.0136   12.4728   25.9517 N   0  0  0  0  0  0  0  0  0  0  0  0
   10.8907   11.5379   25.1884 C   0  0  0  0  0  0  0  0  0  0  0  0
   12.3627   11.6859   25.5642 C   0  0  0  0  0  0  0  0  0  0  0  0
   12.7470   13.1190   25.3445 C   0  0  0  0  0  0  0  0  0  0  0  0
   11.9322   14.0087   26.2788 C   0  0  0  0  0  0  0  0  0  0  0  0
   10.6969   13.3847   26.8574 C   0  0  0  0  0  0  0  0  0  0  0  0
    7.1571   14.8947   26.2423 C   0  0  0  0  0  0  0  0  0  0  0  0
    6.6761   15.5040   24.9196 C   0  0  0  0  0  0  0  0  0  0  0  0
  1  2  2  0
  2  3  1  0
  4  3  1  1
  4  5  1  0
  5  6  1  0
  7  6  1  1
  7  8  1  0
  8  9  1  0
  9 10  1  0
 11 10  1  1
  2 12  1  0
 12 13  1  0
 13 14  1  0
 14 15  1  0
 15 16  1  0
 16 17  2  0
 16 18  2  0
 16 19  1  0
 19 20  1  0
 20 21  1  0
 21 22  1  0
 22 23  1  0
 23 24  1  0
 15 25  1  0
 25 26  1  0
 11  4  1  0
 26 12  1  0
 11  7  1  0
 24 19  1  0
M  END
>  <energy_score>  (2317) 
-48.229781

>  <inchikey>  (2317) 
None

>  <smiles>  (2317) 
None

>  <ref_pdb>  (2317) 
A4706a

>  <alias>  (2317) 
None

>  <HIPPO Pose ID>  (2317) 
499961

>  <name>  (2317) 
P499961

>  <HIPPO Compound ID>  (2317) 
314466

>  <ref_mols>  (2317) 
A0875a,A4706a

>  <distance_score>  (2317) 
1.984578

>  <inspiration_score>  (2317) 
None

$$$$
P499962
     RDKit          3D

 26 29  0  0  0  0  0  0  0  0999 V2000
    5.2969   15.5799   23.1222 O   0  0  0  0  0  0  0  0  0  0  0  0
    6.1694   15.3451   23.9488 C   0  0  0  0  0  0  0  0  0  0  0  0
    7.5081   15.4330   23.7211 O   0  0  0  0  0  0  0  0  0  0  0  0
    7.9645   15.6073   22.3706 C   0  0  2  0  0  0  0  0  0  0  0  0
    7.3719   14.5311   21.4641 C   0  0  0  0  0  0  0  0  0  0  0  0
    8.3082   14.3169   20.3990 O   0  0  0  0  0  0  0  0  0  0  0  0
    9.4365   15.1269   20.6469 C   0  0  2  0  0  0  0  0  0  0  0  0
   10.7322   14.6291   20.3428 O   0  0  0  0  0  0  0  0  0  0  0  0
   11.5864   15.0690   21.4261 C   0  0  0  0  0  0  0  0  0  0  0  0
   10.7114   15.9425   22.3215 C   0  0  0  0  0  0  0  0  0  0  0  0
    9.4171   15.2248   22.1386 C   0  0  1  0  0  0  0  0  0  0  0  0
    5.8549   14.8041   25.3464 C   0  0  0  0  0  0  0  0  0  0  0  0
    5.7852   13.2571   25.3085 C   0  0  0  0  0  0  0  0  0  0  0  0
    6.7562   12.5073   26.2186 C   0  0  0  0  0  0  0  0  0  0  0  0
    7.9761   13.3017   26.4458 N   0  0  0  0  0  0  0  0  0  0  0  0
    9.0565   13.4139   25.1683 S   0  0  0  0  0  0  0  0  0  0  0  0
    8.4217   12.7704   24.0428 O   0  0  0  0  0  0  0  0  0  0  0  0
    9.6025   14.7483   25.1187 O   0  0  0  0  0  0  0  0  0  0  0  0
   10.2734   12.3851   25.7088 N   0  0  0  0  0  0  0  0  0  0  0  0
   11.5324   13.0504   26.1176 C   0  0  0  0  0  0  0  0  0  0  0  0
   12.6583   12.6446   25.1930 C   0  0  0  0  0  0  0  0  0  0  0  0
   12.9017   11.1651   25.4109 C   0  0  0  0  0  0  0  0  0  0  0  0
   11.6040   10.3225   25.2470 C   0  0  0  0  0  0  0  0  0  0  0  0
   10.3792   11.1480   24.8906 C   0  0  0  0  0  0  0  0  0  0  0  0
    7.6714   14.5265   27.1946 C   0  0  0  0  0  0  0  0  0  0  0  0
    6.7398   15.4492   26.4232 C   0  0  0  0  0  0  0  0  0  0  0  0
  1  2  2  0
  2  3  1  0
  4  3  1  1
  4  5  1  0
  5  6  1  0
  7  6  1  1
  7  8  1  0
  8  9  1  0
  9 10  1  0
 11 10  1  6
  2 12  1  0
 12 13  1  0
 13 14  1  0
 14 15  1  0
 15 16  1  0
 16 17  2  0
 16 18  2  0
 16 19  1  0
 19 20  1  0
 20 21  1  0
 21 22  1  0
 22 23  1  0
 23 24  1  0
 15 25  1  0
 25 26  1  0
 11  4  1  0
 26 12  1  0
 11  7  1  0
 24 19  1  0
M  END
>  <energy_score>  (2318) 
-45.09701

>  <inchikey>  (2318) 
None

>  <smiles>  (2318) 
None

>  <ref_pdb>  (2318) 
A4706a

>  <alias>  (2318) 
None

>  <HIPPO Pose ID>  (2318) 
499962

>  <name>  (2318) 
P499962

>  <HIPPO Compound ID>  (2318) 
314466

>  <ref_mols>  (2318) 
A4706a,A0875a

>  <distance_score>  (2318) 
1.784755

>  <inspiration_score>  (2318) 
None

$$$$
P499963
     RDKit          3D

 26 29  0  0  0  0  0  0  0  0999 V2000
    5.4933   15.5795   23.3448 O   0  0  0  0  0  0  0  0  0  0  0  0
    6.3241   15.0224   24.0522 C   0  0  0  0  0  0  0  0  0  0  0  0
    7.6650   15.0378   23.8252 O   0  0  0  0  0  0  0  0  0  0  0  0
    8.0987   15.4346   22.5118 C   0  0  2  0  0  0  0  0  0  0  0  0
    7.4355   14.5607   21.4465 C   0  0  0  0  0  0  0  0  0  0  0  0
    8.3160   14.5341   20.3087 O   0  0  0  0  0  0  0  0  0  0  0  0
    9.4752   15.2611   20.6603 C   0  0  2  0  0  0  0  0  0  0  0  0
   10.7392   14.8101   20.1978 O   0  0  0  0  0  0  0  0  0  0  0  0
   11.6484   14.9894   21.3110 C   0  0  0  0  0  0  0  0  0  0  0  0
   10.8506   15.6760   22.4170 C   0  0  0  0  0  0  0  0  0  0  0  0
    9.5220   15.0574   22.1442 C   0  0  1  0  0  0  0  0  0  0  0  0
    5.9187   14.1635   25.2486 C   0  0  0  0  0  0  0  0  0  0  0  0
    6.4173   12.7098   25.1840 C   0  0  0  0  0  0  0  0  0  0  0  0
    7.4033   12.3517   26.2985 C   0  0  0  0  0  0  0  0  0  0  0  0
    8.3411   13.4663   26.5600 N   0  0  0  0  0  0  0  0  0  0  0  0
    9.6092   13.6424   25.4668 S   0  0  0  0  0  0  0  0  0  0  0  0
    9.2150   12.9669   24.2573 O   0  0  0  0  0  0  0  0  0  0  0  0
   10.0580   15.0103   25.4835 O   0  0  0  0  0  0  0  0  0  0  0  0
   10.8397   12.7139   26.1882 N   0  0  0  0  0  0  0  0  0  0  0  0
   11.7237   13.5207   27.0796 C   0  0  0  0  0  0  0  0  0  0  0  0
   13.0227   12.8011   27.4476 C   0  0  0  0  0  0  0  0  0  0  0  0
   13.8194   12.3183   26.2575 C   0  0  0  0  0  0  0  0  0  0  0  0
   12.9728   12.2782   25.0143 C   0  0  0  0  0  0  0  0  0  0  0  0
   11.5485   11.8371   25.2343 C   0  0  0  0  0  0  0  0  0  0  0  0
    7.6803   14.7148   27.0198 C   0  0  0  0  0  0  0  0  0  0  0  0
    6.2263   14.8258   26.5819 C   0  0  0  0  0  0  0  0  0  0  0  0
  1  2  2  0
  2  3  1  0
  4  3  1  1
  4  5  1  0
  5  6  1  0
  7  6  1  6
  7  8  1  0
  8  9  1  0
  9 10  1  0
 11 10  1  1
  2 12  1  0
 12 13  1  0
 13 14  1  0
 14 15  1  0
 15 16  1  0
 16 17  2  0
 16 18  2  0
 16 19  1  0
 19 20  1  0
 20 21  1  0
 21 22  1  0
 22 23  1  0
 23 24  1  0
 15 25  1  0
 25 26  1  0
 11  4  1  0
 26 12  1  0
 11  7  1  0
 24 19  1  0
M  END
>  <energy_score>  (2319) 
-62.443612

>  <inchikey>  (2319) 
None

>  <smiles>  (2319) 
None

>  <ref_pdb>  (2319) 
A4706a

>  <alias>  (2319) 
None

>  <HIPPO Pose ID>  (2319) 
499963

>  <name>  (2319) 
P499963

>  <HIPPO Compound ID>  (2319) 
314466

>  <ref_mols>  (2319) 
A0875a,A4706a

>  <distance_score>  (2319) 
1.958475

>  <inspiration_score>  (2319) 
None

$$$$
P499964
     RDKit          3D

 26 29  0  0  0  0  0  0  0  0999 V2000
    5.5615   14.9339   22.3918 O   0  0  0  0  0  0  0  0  0  0  0  0
    6.3306   15.0506   23.3428 C   0  0  0  0  0  0  0  0  0  0  0  0
    7.6219   15.4781   23.2295 O   0  0  0  0  0  0  0  0  0  0  0  0
    8.0999   15.7198   21.8915 C   0  0  2  0  0  0  0  0  0  0  0  0
    8.1371   14.4447   21.0902 C   0  0  0  0  0  0  0  0  0  0  0  0
    9.0874   14.6127   20.0446 O   0  0  0  0  0  0  0  0  0  0  0  0
    9.8660   15.7582   20.2849 C   0  0  2  0  0  0  0  0  0  0  0  0
   11.2430   15.4378   20.1915 O   0  0  0  0  0  0  0  0  0  0  0  0
   11.7642   15.2775   21.5022 C   0  0  0  0  0  0  0  0  0  0  0  0
   10.6281   15.4450   22.4729 C   0  0  0  0  0  0  0  0  0  0  0  0
    9.5496   16.1648   21.7003 C   0  0  2  0  0  0  0  0  0  0  0  0
    5.9110   14.6028   24.7578 C   0  0  0  0  0  0  0  0  0  0  0  0
    5.9364   13.0565   24.8557 C   0  0  0  0  0  0  0  0  0  0  0  0
    6.8570   12.4207   25.8994 C   0  0  0  0  0  0  0  0  0  0  0  0
    7.9438   13.3408   26.2870 N   0  0  0  0  0  0  0  0  0  0  0  0
    9.1190   13.6297   25.1167 S   0  0  0  0  0  0  0  0  0  0  0  0
    9.3768   15.0459   25.0968 O   0  0  0  0  0  0  0  0  0  0  0  0
    8.7376   12.8749   23.9488 O   0  0  0  0  0  0  0  0  0  0  0  0
   10.4769   12.8948   25.7812 N   0  0  0  0  0  0  0  0  0  0  0  0
   10.7598   11.5471   25.2324 C   0  0  0  0  0  0  0  0  0  0  0  0
   12.1847   11.1468   25.6216 C   0  0  0  0  0  0  0  0  0  0  0  0
   13.2741   12.0348   25.1085 C   0  0  0  0  0  0  0  0  0  0  0  0
   12.6543   13.3633   24.7451 C   0  0  0  0  0  0  0  0  0  0  0  0
   11.6801   13.7682   25.8440 C   0  0  0  0  0  0  0  0  0  0  0  0
    7.3650   14.5496   26.9152 C   0  0  0  0  0  0  0  0  0  0  0  0
    6.5576   15.3762   25.9149 C   0  0  0  0  0  0  0  0  0  0  0  0
  1  2  2  0
  2  3  1  0
  4  3  1  1
  4  5  1  0
  5  6  1  0
  7  6  1  1
  7  8  1  0
  8  9  1  0
  9 10  1  0
 11 10  1  1
  2 12  1  0
 12 13  1  0
 13 14  1  0
 14 15  1  0
 15 16  1  0
 16 17  2  0
 16 18  2  0
 16 19  1  0
 19 20  1  0
 20 21  1  0
 21 22  1  0
 22 23  1  0
 23 24  1  0
 15 25  1  0
 25 26  1  0
 11  4  1  0
 26 12  1  0
 11  7  1  0
 24 19  1  0
M  END
>  <energy_score>  (2320) 
-14.957493

>  <inchikey>  (2320) 
None

>  <smiles>  (2320) 
None

>  <ref_pdb>  (2320) 
A4706a

>  <alias>  (2320) 
None

>  <HIPPO Pose ID>  (2320) 
499964

>  <name>  (2320) 
P499964

>  <HIPPO Compound ID>  (2320) 
314466

>  <ref_mols>  (2320) 
A4706a,A0875a

>  <distance_score>  (2320) 
1.572692

>  <inspiration_score>  (2320) 
None

$$$$
P499965
     RDKit          3D

 26 29  0  0  0  0  0  0  0  0999 V2000
    5.2464   15.7489   23.0925 O   0  0  0  0  0  0  0  0  0  0  0  0
    6.0933   15.3949   23.8978 C   0  0  0  0  0  0  0  0  0  0  0  0
    7.4323   15.4083   23.6749 O   0  0  0  0  0  0  0  0  0  0  0  0
    7.9146   15.5960   22.3391 C   0  0  2  0  0  0  0  0  0  0  0  0
    7.3395   14.5083   21.4404 C   0  0  0  0  0  0  0  0  0  0  0  0
    8.2828   14.3098   20.3793 O   0  0  0  0  0  0  0  0  0  0  0  0
    9.4063   15.1221   20.6341 C   0  0  2  0  0  0  0  0  0  0  0  0
   10.7081   14.6335   20.3369 O   0  0  0  0  0  0  0  0  0  0  0  0
   11.5510   15.0713   21.4287 C   0  0  0  0  0  0  0  0  0  0  0  0
   10.6643   15.9351   22.3214 C   0  0  0  0  0  0  0  0  0  0  0  0
    9.3724   15.2149   22.1247 C   0  0  1  0  0  0  0  0  0  0  0  0
    5.7569   14.7741   25.2542 C   0  0  0  0  0  0  0  0  0  0  0  0
    5.7504   13.2316   25.1307 C   0  0  0  0  0  0  0  0  0  0  0  0
    6.6412   12.4756   26.1106 C   0  0  0  0  0  0  0  0  0  0  0  0
    7.8620   13.2527   26.3992 N   0  0  0  0  0  0  0  0  0  0  0  0
    8.9801   13.3721   25.1543 S   0  0  0  0  0  0  0  0  0  0  0  0
    9.3995   14.7413   24.9764 O   0  0  0  0  0  0  0  0  0  0  0  0
    8.5245   12.5348   24.0721 O   0  0  0  0  0  0  0  0  0  0  0  0
   10.3304   12.6198   25.8321 N   0  0  0  0  0  0  0  0  0  0  0  0
   11.2702   12.2238   24.7558 C   0  0  0  0  0  0  0  0  0  0  0  0
   12.5063   11.5268   25.3278 C   0  0  0  0  0  0  0  0  0  0  0  0
   13.1104   12.2022   26.5346 C   0  0  0  0  0  0  0  0  0  0  0  0
   12.4296   13.5171   26.7624 C   0  0  0  0  0  0  0  0  0  0  0  0
   10.9388   13.4667   26.8796 C   0  0  0  0  0  0  0  0  0  0  0  0
    7.5278   14.4703   27.1509 C   0  0  0  0  0  0  0  0  0  0  0  0
    6.6094   15.3987   26.3698 C   0  0  0  0  0  0  0  0  0  0  0  0
  1  2  2  0
  2  3  1  0
  4  3  1  1
  4  5  1  0
  5  6  1  0
  7  6  1  1
  7  8  1  0
  8  9  1  0
  9 10  1  0
 11 10  1  6
  2 12  1  0
 12 13  1  0
 13 14  1  0
 14 15  1  0
 15 16  1  0
 16 17  2  0
 16 18  2  0
 16 19  1  0
 19 20  1  0
 20 21  1  0
 21 22  1  0
 22 23  1  0
 23 24  1  0
 15 25  1  0
 25 26  1  0
 11  4  1  0
 26 12  1  0
 11  7  1  0
 24 19  1  0
M  END
>  <energy_score>  (2321) 
-28.744974

>  <inchikey>  (2321) 
None

>  <smiles>  (2321) 
None

>  <ref_pdb>  (2321) 
A4706a

>  <alias>  (2321) 
None

>  <HIPPO Pose ID>  (2321) 
499965

>  <name>  (2321) 
P499965

>  <HIPPO Compound ID>  (2321) 
314466

>  <ref_mols>  (2321) 
A4706a,A0875a

>  <distance_score>  (2321) 
1.972425

>  <inspiration_score>  (2321) 
None

$$$$
P499966
     RDKit          3D

 26 28  0  0  0  0  0  0  0  0999 V2000
    7.1020   16.1227   22.4151 C   0  0  0  0  0  0  0  0  0  0  0  0
    7.8338   15.0858   21.5728 C   0  0  2  0  0  0  0  0  0  0  0  0
    7.8298   13.7701   22.1446 O   0  0  0  0  0  0  0  0  0  0  0  0
    6.6858   13.4805   22.8142 C   0  0  0  0  0  0  0  0  0  0  0  0
    5.6149   13.2750   22.2760 O   0  0  0  0  0  0  0  0  0  0  0  0
    7.0069   13.3641   24.2613 C   0  0  0  0  0  0  0  0  0  0  0  0
    7.3880   11.9591   24.6868 C   0  0  0  0  0  0  0  0  0  0  0  0
    7.7981   11.9368   26.1451 C   0  0  0  0  0  0  0  0  0  0  0  0
    7.9470   13.2986   26.6704 N   0  0  0  0  0  0  0  0  0  0  0  0
    9.3657   14.1948   26.5582 S   0  0  0  0  0  0  0  0  0  0  0  0
    9.3753   15.0487   25.3964 O   0  0  0  0  0  0  0  0  0  0  0  0
    9.5198   14.7883   27.8628 O   0  0  0  0  0  0  0  0  0  0  0  0
   10.5972   13.0292   26.3628 N   0  0  0  0  0  0  0  0  0  0  0  0
   10.7902   12.5790   24.9446 C   0  0  0  0  0  0  0  0  0  0  0  0
   12.2219   12.7988   24.4944 C   0  0  0  0  0  0  0  0  0  0  0  0
   13.1599   12.0409   25.4216 C   0  0  0  0  0  0  0  0  0  0  0  0
   13.0240   12.5848   26.8315 C   0  0  0  0  0  0  0  0  0  0  0  0
   11.8462   13.5381   26.9989 C   0  0  0  0  0  0  0  0  0  0  0  0
    6.6838   14.0916   26.6235 C   0  0  0  0  0  0  0  0  0  0  0  0
    6.0246   13.9816   25.2410 C   0  0  0  0  0  0  0  0  0  0  0  0
    9.2743   15.5472   21.2649 C   0  0  2  0  0  0  0  0  0  0  0  0
    9.7839   14.8329   20.0065 C   0  0  0  0  0  0  0  0  0  0  0  0
   11.1785   15.0500   19.6508 N   0  0  0  0  0  0  0  0  0  0  0  0
   11.9807   14.8896   20.8610 C   0  0  0  0  0  0  0  0  0  0  0  0
   11.4522   15.6289   22.0871 C   0  0  0  0  0  0  0  0  0  0  0  0
   10.1177   15.2448   22.3867 O   0  0  0  0  0  0  0  0  0  0  0  0
  2  1  1  1
  2  3  1  0
  3  4  1  0
  4  5  2  0
  4  6  1  0
  6  7  1  0
  7  8  1  0
  8  9  1  0
  9 10  1  0
 10 11  2  0
 10 12  2  0
 10 13  1  0
 13 14  1  0
 14 15  1  0
 15 16  1  0
 16 17  1  0
 17 18  1  0
  9 19  1  0
 19 20  1  0
  2 21  1  0
 21 22  1  6
 22 23  1  0
 23 24  1  0
 24 25  1  0
 25 26  1  0
 20  6  1  0
 26 21  1  0
 18 13  1  0
M  END
>  <energy_score>  (2322) 
-28.239974

>  <inchikey>  (2322) 
None

>  <smiles>  (2322) 
None

>  <ref_pdb>  (2322) 
A4706a

>  <alias>  (2322) 
None

>  <HIPPO Pose ID>  (2322) 
499966

>  <name>  (2322) 
P499966

>  <HIPPO Compound ID>  (2322) 
314467

>  <ref_mols>  (2322) 
A0875a,A4706a

>  <distance_score>  (2322) 
1.41602

>  <inspiration_score>  (2322) 
None

$$$$
P499967
     RDKit          3D

 26 28  0  0  0  0  0  0  0  0999 V2000
    7.2040   14.2701   21.0976 C   0  0  0  0  0  0  0  0  0  0  0  0
    7.8098   15.3164   21.9876 C   0  0  1  0  0  0  0  0  0  0  0  0
    7.3781   15.0816   23.3618 O   0  0  0  0  0  0  0  0  0  0  0  0
    6.7449   13.9285   23.7349 C   0  0  0  0  0  0  0  0  0  0  0  0
    6.8205   12.8304   23.1844 O   0  0  0  0  0  0  0  0  0  0  0  0
    5.8189   14.0839   24.9321 C   0  0  0  0  0  0  0  0  0  0  0  0
    6.0084   12.8256   25.8011 C   0  0  0  0  0  0  0  0  0  0  0  0
    7.4438   12.7479   26.3370 C   0  0  0  0  0  0  0  0  0  0  0  0
    8.1366   14.0145   26.0034 N   0  0  0  0  0  0  0  0  0  0  0  0
    9.7875   14.1332   26.0133 S   0  0  0  0  0  0  0  0  0  0  0  0
   10.1408   15.5248   25.8663 O   0  0  0  0  0  0  0  0  0  0  0  0
   10.2478   13.3901   27.1582 O   0  0  0  0  0  0  0  0  0  0  0  0
   10.3821   13.4212   24.6240 N   0  0  0  0  0  0  0  0  0  0  0  0
   10.1248   12.0377   24.2376 C   0  0  0  0  0  0  0  0  0  0  0  0
   10.8804   11.1336   25.1908 C   0  0  0  0  0  0  0  0  0  0  0  0
   12.3379   11.5579   25.5449 C   0  0  0  0  0  0  0  0  0  0  0  0
   12.6658   13.0314   25.4511 C   0  0  0  0  0  0  0  0  0  0  0  0
   11.8176   13.7054   24.4088 C   0  0  0  0  0  0  0  0  0  0  0  0
    7.3966   15.1720   26.5654 C   0  0  0  0  0  0  0  0  0  0  0  0
    6.1025   15.3264   25.7732 C   0  0  0  0  0  0  0  0  0  0  0  0
    9.3457   15.4437   21.6934 C   0  0  2  0  0  0  0  0  0  0  0  0
    9.5520   16.0063   20.2443 C   0  0  0  0  0  0  0  0  0  0  0  0
   10.8731   15.8820   19.6430 N   0  0  0  0  0  0  0  0  0  0  0  0
   11.4003   14.5550   19.8452 C   0  0  0  0  0  0  0  0  0  0  0  0
   11.3291   14.2223   21.3249 C   0  0  0  0  0  0  0  0  0  0  0  0
    9.9786   14.1596   21.7913 O   0  0  0  0  0  0  0  0  0  0  0  0
  2  1  1  6
  2  3  1  0
  3  4  1  0
  4  5  2  0
  4  6  1  0
  6  7  1  0
  7  8  1  0
  8  9  1  0
  9 10  1  0
 10 11  2  0
 10 12  2  0
 10 13  1  0
 13 14  1  0
 14 15  1  0
 15 16  1  0
 16 17  1  0
 17 18  1  0
  9 19  1  0
 19 20  1  0
  2 21  1  0
 21 22  1  6
 22 23  1  0
 23 24  1  0
 24 25  1  0
 25 26  1  0
 20  6  1  0
 26 21  1  0
 18 13  1  0
M  END
>  <energy_score>  (2323) 
-32.074655

>  <inchikey>  (2323) 
None

>  <smiles>  (2323) 
None

>  <ref_pdb>  (2323) 
A4706a

>  <alias>  (2323) 
None

>  <HIPPO Pose ID>  (2323) 
499967

>  <name>  (2323) 
P499967

>  <HIPPO Compound ID>  (2323) 
314467

>  <ref_mols>  (2323) 
A4706a,A0875a

>  <distance_score>  (2323) 
1.738587

>  <inspiration_score>  (2323) 
None

$$$$
P499968
     RDKit          3D

 26 28  0  0  0  0  0  0  0  0999 V2000
    8.0179   16.8375   21.6609 C   0  0  0  0  0  0  0  0  0  0  0  0
    7.9460   15.3274   21.6084 C   0  0  2  0  0  0  0  0  0  0  0  0
    7.4522   14.9023   22.9052 O   0  0  0  0  0  0  0  0  0  0  0  0
    6.6203   13.8369   22.9178 C   0  0  0  0  0  0  0  0  0  0  0  0
    6.5699   13.0122   22.0107 O   0  0  0  0  0  0  0  0  0  0  0  0
    5.7262   13.7067   24.1517 C   0  0  0  0  0  0  0  0  0  0  0  0
    6.1416   12.4826   25.0038 C   0  0  0  0  0  0  0  0  0  0  0  0
    7.1260   12.8400   26.1110 C   0  0  0  0  0  0  0  0  0  0  0  0
    7.8048   14.0460   25.6418 N   0  0  0  0  0  0  0  0  0  0  0  0
    9.3913   14.2991   25.9976 S   0  0  0  0  0  0  0  0  0  0  0  0
    9.9283   15.3474   25.1742 O   0  0  0  0  0  0  0  0  0  0  0  0
    9.4791   14.3378   27.4327 O   0  0  0  0  0  0  0  0  0  0  0  0
   10.0986   12.8822   25.5197 N   0  0  0  0  0  0  0  0  0  0  0  0
    9.9327   12.4916   24.1090 C   0  0  0  0  0  0  0  0  0  0  0  0
    9.9577   10.9782   24.0806 C   0  0  0  0  0  0  0  0  0  0  0  0
   11.0167   10.4684   25.0633 C   0  0  0  0  0  0  0  0  0  0  0  0
   12.1096   11.5280   25.4072 C   0  0  0  0  0  0  0  0  0  0  0  0
   11.5029   12.8032   25.9529 C   0  0  0  0  0  0  0  0  0  0  0  0
    6.9425   15.2380   25.7649 C   0  0  0  0  0  0  0  0  0  0  0  0
    5.6479   14.9751   25.0047 C   0  0  0  0  0  0  0  0  0  0  0  0
    9.2900   14.7250   21.1494 C   0  0  1  0  0  0  0  0  0  0  0  0
    9.7323   15.3445   19.7926 C   0  0  0  0  0  0  0  0  0  0  0  0
   10.9679   14.7555   19.2900 N   0  0  0  0  0  0  0  0  0  0  0  0
   11.9776   14.8955   20.3348 C   0  0  0  0  0  0  0  0  0  0  0  0
   11.5475   14.3747   21.7008 C   0  0  0  0  0  0  0  0  0  0  0  0
   10.3144   14.9551   22.1307 O   0  0  0  0  0  0  0  0  0  0  0  0
  2  1  1  1
  2  3  1  0
  3  4  1  0
  4  5  2  0
  4  6  1  0
  6  7  1  0
  7  8  1  0
  8  9  1  0
  9 10  1  0
 10 11  2  0
 10 12  2  0
 10 13  1  0
 13 14  1  0
 14 15  1  0
 15 16  1  0
 16 17  1  0
 17 18  1  0
  9 19  1  0
 19 20  1  0
  2 21  1  0
 21 22  1  6
 22 23  1  0
 23 24  1  0
 24 25  1  0
 25 26  1  0
 20  6  1  0
 26 21  1  0
 18 13  1  0
M  END
>  <energy_score>  (2324) 
-73.71443

>  <inchikey>  (2324) 
None

>  <smiles>  (2324) 
None

>  <ref_pdb>  (2324) 
A4706a

>  <alias>  (2324) 
None

>  <HIPPO Pose ID>  (2324) 
499968

>  <name>  (2324) 
P499968

>  <HIPPO Compound ID>  (2324) 
314467

>  <ref_mols>  (2324) 
A0875a,A4706a

>  <distance_score>  (2324) 
1.99076

>  <inspiration_score>  (2324) 
None

$$$$
P499969
     RDKit          3D

 26 28  0  0  0  0  0  0  0  0999 V2000
    6.8014   14.3287   21.3791 C   0  0  0  0  0  0  0  0  0  0  0  0
    7.6984   15.3390   22.0725 C   0  0  1  0  0  0  0  0  0  0  0  0
    7.4542   15.1337   23.4898 O   0  0  0  0  0  0  0  0  0  0  0  0
    6.1919   15.2642   23.9780 C   0  0  0  0  0  0  0  0  0  0  0  0
    5.2541   15.8029   23.4034 O   0  0  0  0  0  0  0  0  0  0  0  0
    6.0368   14.5464   25.3225 C   0  0  0  0  0  0  0  0  0  0  0  0
    6.1908   13.0154   25.1472 C   0  0  0  0  0  0  0  0  0  0  0  0
    7.2615   12.3205   25.9847 C   0  0  0  0  0  0  0  0  0  0  0  0
    8.3756   13.2347   26.3159 N   0  0  0  0  0  0  0  0  0  0  0  0
    9.3969   13.6716   25.0321 S   0  0  0  0  0  0  0  0  0  0  0  0
    8.9396   12.9349   23.8781 O   0  0  0  0  0  0  0  0  0  0  0  0
    9.5948   15.0952   25.1004 O   0  0  0  0  0  0  0  0  0  0  0  0
   10.8508   13.0004   25.4800 N   0  0  0  0  0  0  0  0  0  0  0  0
   11.0347   11.5866   25.2129 C   0  0  0  0  0  0  0  0  0  0  0  0
   12.5156   11.2076   25.3570 C   0  0  0  0  0  0  0  0  0  0  0  0
   13.2466   11.7585   26.5558 C   0  0  0  0  0  0  0  0  0  0  0  0
   12.9966   13.2206   26.5865 C   0  0  0  0  0  0  0  0  0  0  0  0
   11.5229   13.5741   26.6389 C   0  0  0  0  0  0  0  0  0  0  0  0
    7.8683   14.3512   27.1471 C   0  0  0  0  0  0  0  0  0  0  0  0
    6.8905   15.2366   26.3898 C   0  0  0  0  0  0  0  0  0  0  0  0
    9.1817   15.0139   21.6380 C   0  0  1  0  0  0  0  0  0  0  0  0
    9.5206   15.5070   20.2081 C   0  0  0  0  0  0  0  0  0  0  0  0
   10.8026   15.0067   19.6997 N   0  0  0  0  0  0  0  0  0  0  0  0
   11.7238   14.7615   20.8077 C   0  0  0  0  0  0  0  0  0  0  0  0
   11.4640   15.6008   22.0612 C   0  0  0  0  0  0  0  0  0  0  0  0
   10.1259   15.5764   22.5491 O   0  0  0  0  0  0  0  0  0  0  0  0
  2  1  1  6
  2  3  1  0
  3  4  1  0
  4  5  2  0
  4  6  1  0
  6  7  1  0
  7  8  1  0
  8  9  1  0
  9 10  1  0
 10 11  2  0
 10 12  2  0
 10 13  1  0
 13 14  1  0
 14 15  1  0
 15 16  1  0
 16 17  1  0
 17 18  1  0
  9 19  1  0
 19 20  1  0
  2 21  1  0
 21 22  1  6
 22 23  1  0
 23 24  1  0
 24 25  1  0
 25 26  1  0
 20  6  1  0
 26 21  1  0
 18 13  1  0
M  END
>  <energy_score>  (2325) 
-43.568792

>  <inchikey>  (2325) 
None

>  <smiles>  (2325) 
None

>  <ref_pdb>  (2325) 
A4706a

>  <alias>  (2325) 
None

>  <HIPPO Pose ID>  (2325) 
499969

>  <name>  (2325) 
P499969

>  <HIPPO Compound ID>  (2325) 
314467

>  <ref_mols>  (2325) 
A4706a,A0875a

>  <distance_score>  (2325) 
1.812896

>  <inspiration_score>  (2325) 
None

$$$$
P499970
     RDKit          3D

 26 28  0  0  0  0  0  0  0  0999 V2000
   10.6560   14.8462   19.0646 C   0  0  0  0  0  0  0  0  0  0  0  0
    9.5034   15.0447   19.8673 O   0  0  0  0  0  0  0  0  0  0  0  0
    9.6096   15.0326   21.3029 C   0  0  2  0  0  0  0  0  0  0  0  0
    8.1703   15.2677   21.8464 C   0  0  0  0  0  0  0  0  0  0  0  0
    7.6320   14.1232   22.5570 O   0  0  0  0  0  0  0  0  0  0  0  0
    6.9216   14.4121   23.6839 C   0  0  0  0  0  0  0  0  0  0  0  0
    6.5208   15.5226   24.0049 O   0  0  0  0  0  0  0  0  0  0  0  0
    6.6196   13.1560   24.4984 C   0  0  0  0  0  0  0  0  0  0  0  0
    7.7482   12.1161   24.5166 C   0  0  0  0  0  0  0  0  0  0  0  0
    8.5781   12.1166   25.7889 C   0  0  0  0  0  0  0  0  0  0  0  0
    8.7414   13.4502   26.3747 N   0  0  0  0  0  0  0  0  0  0  0  0
    9.9176   14.5370   25.8447 S   0  0  0  0  0  0  0  0  0  0  0  0
    9.9636   15.5748   26.8446 O   0  0  0  0  0  0  0  0  0  0  0  0
    9.6299   14.8786   24.4848 O   0  0  0  0  0  0  0  0  0  0  0  0
   11.3862   13.7291   25.9201 N   0  0  0  0  0  0  0  0  0  0  0  0
   11.8664   12.9184   24.7970 C   0  0  0  0  0  0  0  0  0  0  0  0
   12.8416   11.8294   25.2342 C   0  0  0  0  0  0  0  0  0  0  0  0
   13.8870   12.3326   26.1867 C   0  0  0  0  0  0  0  0  0  0  0  0
   13.2325   12.8832   27.4276 C   0  0  0  0  0  0  0  0  0  0  0  0
   11.7913   13.3460   27.2577 C   0  0  0  0  0  0  0  0  0  0  0  0
    7.4331   14.1134   26.7098 C   0  0  0  0  0  0  0  0  0  0  0  0
    6.2519   13.5217   25.9397 C   0  0  0  0  0  0  0  0  0  0  0  0
   10.6098   16.0485   21.7969 C   0  0  0  0  0  0  0  0  0  0  0  0
   11.9305   15.3152   21.7945 C   0  0  0  0  0  0  0  0  0  0  0  0
   11.6481   13.9150   21.8738 O   0  0  0  0  0  0  0  0  0  0  0  0
   10.2273   13.7700   21.8540 C   0  0  0  0  0  0  0  0  0  0  0  0
  1  2  1  0
  3  2  1  0
  3  4  1  1
  4  5  1  0
  5  6  1  0
  6  7  2  0
  6  8  1  0
  8  9  1  0
  9 10  1  0
 10 11  1  0
 11 12  1  0
 12 13  2  0
 12 14  2  0
 12 15  1  0
 15 16  1  0
 16 17  1  0
 17 18  1  0
 18 19  1  0
 19 20  1  0
 11 21  1  0
 21 22  1  0
  3 23  1  0
 23 24  1  0
 24 25  1  0
 25 26  1  0
 26  3  1  0
 22  8  1  0
 20 15  1  0
M  END
>  <energy_score>  (2326) 
-59.29703

>  <inchikey>  (2326) 
None

>  <smiles>  (2326) 
None

>  <ref_pdb>  (2326) 
A4706a

>  <alias>  (2326) 
None

>  <HIPPO Pose ID>  (2326) 
499970

>  <name>  (2326) 
P499970

>  <HIPPO Compound ID>  (2326) 
314468

>  <ref_mols>  (2326) 
A0875a,A4706a

>  <distance_score>  (2326) 
1.606755

>  <inspiration_score>  (2326) 
None

$$$$
P499971
     RDKit          3D

 26 28  0  0  0  0  0  0  0  0999 V2000
   10.4411   14.9622   18.7223 C   0  0  0  0  0  0  0  0  0  0  0  0
   10.3216   15.7487   19.8796 O   0  0  0  0  0  0  0  0  0  0  0  0
    9.9697   15.1182   21.1162 C   0  0  1  0  0  0  0  0  0  0  0  0
    8.5260   14.5901   21.1794 C   0  0  0  0  0  0  0  0  0  0  0  0
    8.1678   14.1124   22.4910 O   0  0  0  0  0  0  0  0  0  0  0  0
    6.9075   13.6681   22.6921 C   0  0  0  0  0  0  0  0  0  0  0  0
    6.0658   13.5427   21.8144 O   0  0  0  0  0  0  0  0  0  0  0  0
    6.6729   13.2291   24.1329 C   0  0  0  0  0  0  0  0  0  0  0  0
    7.6378   12.0719   24.4677 C   0  0  0  0  0  0  0  0  0  0  0  0
    8.0436   11.9498   25.9156 C   0  0  0  0  0  0  0  0  0  0  0  0
    8.3457   13.2627   26.4774 N   0  0  0  0  0  0  0  0  0  0  0  0
    9.7215   14.1004   25.9815 S   0  0  0  0  0  0  0  0  0  0  0  0
    9.6791   14.3076   24.5626 O   0  0  0  0  0  0  0  0  0  0  0  0
    9.8219   15.2194   26.8859 O   0  0  0  0  0  0  0  0  0  0  0  0
   10.9991   13.0053   26.2936 N   0  0  0  0  0  0  0  0  0  0  0  0
   12.0983   13.6861   27.0313 C   0  0  0  0  0  0  0  0  0  0  0  0
   13.4885   13.1201   26.7220 C   0  0  0  0  0  0  0  0  0  0  0  0
   13.4427   11.6485   26.6405 C   0  0  0  0  0  0  0  0  0  0  0  0
   12.6015   11.2996   25.4321 C   0  0  0  0  0  0  0  0  0  0  0  0
   11.4831   12.2913   25.0867 C   0  0  0  0  0  0  0  0  0  0  0  0
    7.1114   14.0985   26.4937 C   0  0  0  0  0  0  0  0  0  0  0  0
    6.6914   14.4442   25.0718 C   0  0  0  0  0  0  0  0  0  0  0  0
   11.0666   14.1898   21.5919 C   0  0  0  0  0  0  0  0  0  0  0  0
   12.0571   15.1282   22.2205 C   0  0  0  0  0  0  0  0  0  0  0  0
   11.3136   16.1674   22.8158 O   0  0  0  0  0  0  0  0  0  0  0  0
   10.0582   16.2358   22.1315 C   0  0  0  0  0  0  0  0  0  0  0  0
  1  2  1  0
  3  2  1  0
  3  4  1  6
  4  5  1  0
  5  6  1  0
  6  7  2  0
  6  8  1  0
  8  9  1  0
  9 10  1  0
 10 11  1  0
 11 12  1  0
 12 13  2  0
 12 14  2  0
 12 15  1  0
 15 16  1  0
 16 17  1  0
 17 18  1  0
 18 19  1  0
 19 20  1  0
 11 21  1  0
 21 22  1  0
  3 23  1  0
 23 24  1  0
 24 25  1  0
 25 26  1  0
 26  3  1  0
 22  8  1  0
 20 15  1  0
M  END
>  <energy_score>  (2327) 
-55.83319

>  <inchikey>  (2327) 
None

>  <smiles>  (2327) 
None

>  <ref_pdb>  (2327) 
A4706a

>  <alias>  (2327) 
None

>  <HIPPO Pose ID>  (2327) 
499971

>  <name>  (2327) 
P499971

>  <HIPPO Compound ID>  (2327) 
314468

>  <ref_mols>  (2327) 
A4706a,A0875a

>  <distance_score>  (2327) 
1.305943

>  <inspiration_score>  (2327) 
None

$$$$
P499972
     RDKit          3D

 26 28  0  0  0  0  0  0  0  0999 V2000
    8.5541   17.7382   21.1690 N   0  0  0  0  0  0  0  0  0  0  0  0
    8.1513   16.3394   21.2582 C   0  0  0  0  0  0  0  0  0  0  0  0
    8.7609   15.3459   22.2232 C   0  0  2  0  0  0  0  0  0  0  0  0
    7.9382   15.3331   23.4253 O   0  0  0  0  0  0  0  0  0  0  0  0
    6.8763   14.4618   23.3877 C   0  0  0  0  0  0  0  0  0  0  0  0
    6.5348   13.8228   22.3910 O   0  0  0  0  0  0  0  0  0  0  0  0
    6.1374   14.2866   24.7258 C   0  0  0  0  0  0  0  0  0  0  0  0
    5.9956   12.7877   25.0786 C   0  0  0  0  0  0  0  0  0  0  0  0
    7.1819   12.1213   25.7899 C   0  0  0  0  0  0  0  0  0  0  0  0
    8.1182   13.1239   26.3509 N   0  0  0  0  0  0  0  0  0  0  0  0
    9.3728   13.6087   25.3239 S   0  0  0  0  0  0  0  0  0  0  0  0
    9.0503   13.0668   24.0288 O   0  0  0  0  0  0  0  0  0  0  0  0
    9.5882   15.0069   25.5875 O   0  0  0  0  0  0  0  0  0  0  0  0
   10.6965   12.7586   25.9068 N   0  0  0  0  0  0  0  0  0  0  0  0
   10.9163   11.4930   25.1749 C   0  0  0  0  0  0  0  0  0  0  0  0
   12.2806   10.9572   25.5709 C   0  0  0  0  0  0  0  0  0  0  0  0
   13.4764   11.7640   25.2031 C   0  0  0  0  0  0  0  0  0  0  0  0
   13.0094   13.1834   25.0538 C   0  0  0  0  0  0  0  0  0  0  0  0
   11.9411   13.5695   26.0751 C   0  0  0  0  0  0  0  0  0  0  0  0
    7.3658   14.2414   26.9812 C   0  0  0  0  0  0  0  0  0  0  0  0
    6.6322   15.0878   25.9347 C   0  0  0  0  0  0  0  0  0  0  0  0
   10.2838   15.5949   22.3863 C   0  0  2  0  0  0  0  0  0  0  0  0
   11.0344   15.7873   21.0785 C   0  0  0  0  0  0  0  0  0  0  0  0
   11.1749   14.3969   20.5462 C   0  0  0  0  0  0  0  0  0  0  0  0
   11.1780   13.5758   21.8211 C   0  0  0  0  0  0  0  0  0  0  0  0
   10.9801   14.4660   22.9176 O   0  0  0  0  0  0  0  0  0  0  0  0
  1  2  1  0
  3  2  1  6
  3  4  1  0
  4  5  1  0
  5  6  2  0
  5  7  1  0
  7  8  1  0
  8  9  1  0
  9 10  1  0
 10 11  1  0
 11 12  2  0
 11 13  2  0
 11 14  1  0
 14 15  1  0
 15 16  1  0
 16 17  1  0
 17 18  1  0
 18 19  1  0
 10 20  1  0
 20 21  1  0
  3 22  1  0
 22 23  1  6
 23 24  1  0
 24 25  1  0
 25 26  1  0
 21  7  1  0
 26 22  1  0
 19 14  1  0
M  END
>  <energy_score>  (2328) 
-21.62435

>  <inchikey>  (2328) 
None

>  <smiles>  (2328) 
None

>  <ref_pdb>  (2328) 
A4706a

>  <alias>  (2328) 
None

>  <HIPPO Pose ID>  (2328) 
499972

>  <name>  (2328) 
P499972

>  <HIPPO Compound ID>  (2328) 
314470

>  <ref_mols>  (2328) 
A4706a,A0875a

>  <distance_score>  (2328) 
1.608508

>  <inspiration_score>  (2328) 
None

$$$$
P499973
     RDKit          3D

 26 28  0  0  0  0  0  0  0  0999 V2000
    8.9412   12.5654   22.9030 N   0  0  0  0  0  0  0  0  0  0  0  0
    9.4846   13.6997   22.1661 C   0  0  0  0  0  0  0  0  0  0  0  0
    8.8122   15.0907   22.2176 C   0  0  2  0  0  0  0  0  0  0  0  0
    7.3755   15.1440   22.0072 O   0  0  0  0  0  0  0  0  0  0  0  0
    6.6294   14.2118   22.6485 C   0  0  0  0  0  0  0  0  0  0  0  0
    6.4475   13.1083   22.1238 O   0  0  0  0  0  0  0  0  0  0  0  0
    5.9216   14.5744   23.9684 C   0  0  0  0  0  0  0  0  0  0  0  0
    5.7268   13.3127   24.8443 C   0  0  0  0  0  0  0  0  0  0  0  0
    7.0005   12.9103   25.5916 C   0  0  0  0  0  0  0  0  0  0  0  0
    7.6579   14.0335   26.2932 N   0  0  0  0  0  0  0  0  0  0  0  0
    9.3016   14.4244   26.2126 S   0  0  0  0  0  0  0  0  0  0  0  0
    9.5215   15.3807   27.2711 O   0  0  0  0  0  0  0  0  0  0  0  0
    9.6687   14.7845   24.8759 O   0  0  0  0  0  0  0  0  0  0  0  0
   10.2661   13.1054   26.5878 N   0  0  0  0  0  0  0  0  0  0  0  0
   11.6924   13.5297   26.7818 C   0  0  0  0  0  0  0  0  0  0  0  0
   12.6067   13.1544   25.6299 C   0  0  0  0  0  0  0  0  0  0  0  0
   12.5839   11.6688   25.5054 C   0  0  0  0  0  0  0  0  0  0  0  0
   11.1876   11.2683   25.1014 C   0  0  0  0  0  0  0  0  0  0  0  0
   10.0275   11.8812   25.8317 C   0  0  0  0  0  0  0  0  0  0  0  0
    6.7951   15.2544   26.2838 C   0  0  0  0  0  0  0  0  0  0  0  0
    6.5005   15.6860   24.8424 C   0  0  0  0  0  0  0  0  0  0  0  0
    9.6252   16.0625   21.3173 C   0  0  2  0  0  0  0  0  0  0  0  0
    9.7703   15.7106   19.8518 C   0  0  0  0  0  0  0  0  0  0  0  0
   11.1297   15.0790   19.6926 C   0  0  0  0  0  0  0  0  0  0  0  0
   11.8445   15.3542   21.0000 C   0  0  0  0  0  0  0  0  0  0  0  0
   10.9786   16.1395   21.8152 O   0  0  0  0  0  0  0  0  0  0  0  0
  1  2  1  0
  3  2  1  6
  3  4  1  0
  4  5  1  0
  5  6  2  0
  5  7  1  0
  7  8  1  0
  8  9  1  0
  9 10  1  0
 10 11  1  0
 11 12  2  0
 11 13  2  0
 11 14  1  0
 14 15  1  0
 15 16  1  0
 16 17  1  0
 17 18  1  0
 18 19  1  0
 10 20  1  0
 20 21  1  0
  3 22  1  0
 22 23  1  6
 23 24  1  0
 24 25  1  0
 25 26  1  0
 21  7  1  0
 26 22  1  0
 19 14  1  0
M  END
>  <energy_score>  (2329) 
-8.958187

>  <inchikey>  (2329) 
None

>  <smiles>  (2329) 
None

>  <ref_pdb>  (2329) 
A4706a

>  <alias>  (2329) 
None

>  <HIPPO Pose ID>  (2329) 
499973

>  <name>  (2329) 
P499973

>  <HIPPO Compound ID>  (2329) 
314470

>  <ref_mols>  (2329) 
A4706a,A0875a

>  <distance_score>  (2329) 
1.717778

>  <inspiration_score>  (2329) 
None

$$$$
P499974
     RDKit          3D

 26 28  0  0  0  0  0  0  0  0999 V2000
    8.4084   18.1761   21.0208 N   0  0  0  0  0  0  0  0  0  0  0  0
    9.2199   16.9820   20.9976 C   0  0  0  0  0  0  0  0  0  0  0  0
    8.5701   15.6000   21.2061 C   0  0  2  0  0  0  0  0  0  0  0  0
    7.9614   15.4778   22.5103 O   0  0  0  0  0  0  0  0  0  0  0  0
    7.4333   14.2429   22.7603 C   0  0  0  0  0  0  0  0  0  0  0  0
    6.7284   13.5848   22.0059 O   0  0  0  0  0  0  0  0  0  0  0  0
    7.9411   13.7562   24.0823 C   0  0  0  0  0  0  0  0  0  0  0  0
    7.8902   12.2500   24.2946 C   0  0  0  0  0  0  0  0  0  0  0  0
    8.8166   11.8543   25.4446 C   0  0  0  0  0  0  0  0  0  0  0  0
    9.0528   12.9713   26.3806 N   0  0  0  0  0  0  0  0  0  0  0  0
   10.4730   13.8974   26.3983 S   0  0  0  0  0  0  0  0  0  0  0  0
   10.4572   14.5166   27.6999 O   0  0  0  0  0  0  0  0  0  0  0  0
   10.5779   14.7155   25.2172 O   0  0  0  0  0  0  0  0  0  0  0  0
   11.7551   12.7602   26.3718 N   0  0  0  0  0  0  0  0  0  0  0  0
   12.8510   13.0004   27.3725 C   0  0  0  0  0  0  0  0  0  0  0  0
   14.2729   12.7487   26.8661 C   0  0  0  0  0  0  0  0  0  0  0  0
   14.4111   11.4583   26.1277 C   0  0  0  0  0  0  0  0  0  0  0  0
   13.2765   11.3113   25.1467 C   0  0  0  0  0  0  0  0  0  0  0  0
   12.3012   12.4884   25.0345 C   0  0  0  0  0  0  0  0  0  0  0  0
    7.8009   13.7793   26.5870 C   0  0  0  0  0  0  0  0  0  0  0  0
    7.4010   14.4981   25.2964 C   0  0  0  0  0  0  0  0  0  0  0  0
    9.6435   14.5280   20.9892 C   0  0  1  0  0  0  0  0  0  0  0  0
   10.5306   14.6929   19.7583 C   0  0  0  0  0  0  0  0  0  0  0  0
   11.8950   14.8637   20.3465 C   0  0  0  0  0  0  0  0  0  0  0  0
   11.7994   14.2650   21.7246 C   0  0  0  0  0  0  0  0  0  0  0  0
   10.4787   14.4931   22.1532 O   0  0  0  0  0  0  0  0  0  0  0  0
  1  2  1  0
  3  2  1  1
  3  4  1  0
  4  5  1  0
  5  6  2  0
  5  7  1  0
  7  8  1  0
  8  9  1  0
  9 10  1  0
 10 11  1  0
 11 12  2  0
 11 13  2  0
 11 14  1  0
 14 15  1  0
 15 16  1  0
 16 17  1  0
 17 18  1  0
 18 19  1  0
 10 20  1  0
 20 21  1  0
  3 22  1  0
 22 23  1  6
 23 24  1  0
 24 25  1  0
 25 26  1  0
 21  7  1  0
 26 22  1  0
 19 14  1  0
M  END
>  <energy_score>  (2330) 
-49.008479

>  <inchikey>  (2330) 
None

>  <smiles>  (2330) 
None

>  <ref_pdb>  (2330) 
A4706a

>  <alias>  (2330) 
None

>  <HIPPO Pose ID>  (2330) 
499974

>  <name>  (2330) 
P499974

>  <HIPPO Compound ID>  (2330) 
314470

>  <ref_mols>  (2330) 
A4706a,A0875a

>  <distance_score>  (2330) 
1.632664

>  <inspiration_score>  (2330) 
None

$$$$
P499975
     RDKit          3D

 26 28  0  0  0  0  0  0  0  0999 V2000
    6.4119   16.4879   22.8028 N   0  0  0  0  0  0  0  0  0  0  0  0
    7.3086   16.1687   21.6719 C   0  0  0  0  0  0  0  0  0  0  0  0
    8.6664   15.6075   22.0135 C   0  0  1  0  0  0  0  0  0  0  0  0
    8.4544   14.7437   23.1151 O   0  0  0  0  0  0  0  0  0  0  0  0
    7.6938   13.6169   23.0262 C   0  0  0  0  0  0  0  0  0  0  0  0
    7.0483   13.1812   22.0926 O   0  0  0  0  0  0  0  0  0  0  0  0
    7.9266   12.9901   24.3317 C   0  0  0  0  0  0  0  0  0  0  0  0
    7.9394   11.5205   24.5948 C   0  0  0  0  0  0  0  0  0  0  0  0
    8.9548   11.3396   25.7293 C   0  0  0  0  0  0  0  0  0  0  0  0
    9.1160   12.5707   26.5635 N   0  0  0  0  0  0  0  0  0  0  0  0
   10.4267   13.6672   26.4701 S   0  0  0  0  0  0  0  0  0  0  0  0
   10.4075   14.3360   27.7466 O   0  0  0  0  0  0  0  0  0  0  0  0
   10.3918   14.4480   25.2584 O   0  0  0  0  0  0  0  0  0  0  0  0
   11.7973   12.6529   26.4126 N   0  0  0  0  0  0  0  0  0  0  0  0
   12.8924   12.9724   27.3821 C   0  0  0  0  0  0  0  0  0  0  0  0
   14.3082   12.7379   26.8509 C   0  0  0  0  0  0  0  0  0  0  0  0
   14.4538   11.4313   26.1401 C   0  0  0  0  0  0  0  0  0  0  0  0
   13.3315   11.2646   25.1466 C   0  0  0  0  0  0  0  0  0  0  0  0
   12.3095   12.4032   25.0608 C   0  0  0  0  0  0  0  0  0  0  0  0
    7.7913   13.2500   26.7848 C   0  0  0  0  0  0  0  0  0  0  0  0
    7.2768   13.7801   25.4638 C   0  0  0  0  0  0  0  0  0  0  0  0
    9.4773   14.8731   20.9523 C   0  0  1  0  0  0  0  0  0  0  0  0
    9.8006   15.6313   19.6836 C   0  0  0  0  0  0  0  0  0  0  0  0
   11.0749   14.9764   19.2442 C   0  0  0  0  0  0  0  0  0  0  0  0
   11.7621   14.7017   20.5598 C   0  0  0  0  0  0  0  0  0  0  0  0
   10.7532   14.5364   21.5498 O   0  0  0  0  0  0  0  0  0  0  0  0
  1  2  1  0
  3  2  1  6
  3  4  1  0
  4  5  1  0
  5  6  2  0
  5  7  1  0
  7  8  1  0
  8  9  1  0
  9 10  1  0
 10 11  1  0
 11 12  2  0
 11 13  2  0
 11 14  1  0
 14 15  1  0
 15 16  1  0
 16 17  1  0
 17 18  1  0
 18 19  1  0
 10 20  1  0
 20 21  1  0
  3 22  1  0
 22 23  1  6
 23 24  1  0
 24 25  1  0
 25 26  1  0
 21  7  1  0
 26 22  1  0
 19 14  1  0
M  END
>  <energy_score>  (2331) 
-19.569056

>  <inchikey>  (2331) 
None

>  <smiles>  (2331) 
None

>  <ref_pdb>  (2331) 
A4706a

>  <alias>  (2331) 
None

>  <HIPPO Pose ID>  (2331) 
499975

>  <name>  (2331) 
P499975

>  <HIPPO Compound ID>  (2331) 
314470

>  <ref_mols>  (2331) 
A4706a,A0875a

>  <distance_score>  (2331) 
1.502281

>  <inspiration_score>  (2331) 
None

$$$$
P499976
     RDKit          3D

 26 28  0  0  0  0  0  0  0  0999 V2000
    8.0759   16.8160   21.5974 C   0  0  0  0  0  0  0  0  0  0  0  0
    8.0784   15.3120   21.7724 C   0  0  2  0  0  0  0  0  0  0  0  0
    7.6387   15.0388   23.1206 O   0  0  0  0  0  0  0  0  0  0  0  0
    6.9526   13.8793   23.3088 C   0  0  0  0  0  0  0  0  0  0  0  0
    6.7922   13.0209   22.4450 O   0  0  0  0  0  0  0  0  0  0  0  0
    6.3362   13.7513   24.7063 C   0  0  0  0  0  0  0  0  0  0  0  0
    6.5121   12.3261   25.2643 C   0  0  0  0  0  0  0  0  0  0  0  0
    7.8918   12.0101   25.8455 C   0  0  0  0  0  0  0  0  0  0  0  0
    8.5599   13.2249   26.3843 N   0  0  0  0  0  0  0  0  0  0  0  0
    9.7963   13.8540   25.4300 S   0  0  0  0  0  0  0  0  0  0  0  0
   10.0438   15.2187   25.8210 O   0  0  0  0  0  0  0  0  0  0  0  0
    9.5155   13.4911   24.0682 O   0  0  0  0  0  0  0  0  0  0  0  0
   11.1371   12.9234   25.9148 N   0  0  0  0  0  0  0  0  0  0  0  0
   11.8482   13.5270   27.0709 C   0  0  0  0  0  0  0  0  0  0  0  0
   13.1181   12.7591   27.4588 C   0  0  0  0  0  0  0  0  0  0  0  0
   13.9772   12.2779   26.3058 C   0  0  0  0  0  0  0  0  0  0  0  0
   13.1094   11.6781   25.2298 C   0  0  0  0  0  0  0  0  0  0  0  0
   12.0633   12.6849   24.7806 C   0  0  0  0  0  0  0  0  0  0  0  0
    7.5781   14.2160   26.8898 C   0  0  0  0  0  0  0  0  0  0  0  0
    6.7542   14.8023   25.7474 C   0  0  0  0  0  0  0  0  0  0  0  0
    9.4295   14.6961   21.3798 C   0  0  2  0  0  0  0  0  0  0  0  0
   10.7157   15.2746   21.9430 C   0  0  0  0  0  0  0  0  0  0  0  0
   11.6989   14.8828   20.8756 C   0  0  0  0  0  0  0  0  0  0  0  0
   10.8715   15.0647   19.6501 C   0  0  0  0  0  0  0  0  0  0  0  0
   11.2757   15.3084   18.5324 O   0  0  0  0  0  0  0  0  0  0  0  0
    9.5649   14.9034   19.9612 O   0  0  0  0  0  0  0  0  0  0  0  0
  2  1  1  1
  2  3  1  0
  3  4  1  0
  4  5  2  0
  4  6  1  0
  6  7  1  0
  7  8  1  0
  8  9  1  0
  9 10  1  0
 10 11  2  0
 10 12  2  0
 10 13  1  0
 13 14  1  0
 14 15  1  0
 15 16  1  0
 16 17  1  0
 17 18  1  0
  9 19  1  0
 19 20  1  0
  2 21  1  0
 21 22  1  1
 22 23  1  0
 23 24  1  0
 24 25  2  0
 24 26  1  0
 20  6  1  0
 26 21  1  0
 18 13  1  0
M  END
>  <energy_score>  (2332) 
-66.90235

>  <inchikey>  (2332) 
None

>  <smiles>  (2332) 
None

>  <ref_pdb>  (2332) 
A4706a

>  <alias>  (2332) 
None

>  <HIPPO Pose ID>  (2332) 
499976

>  <name>  (2332) 
P499976

>  <HIPPO Compound ID>  (2332) 
314471

>  <ref_mols>  (2332) 
A4706a,A0875a

>  <distance_score>  (2332) 
1.739677

>  <inspiration_score>  (2332) 
None

$$$$
P499977
     RDKit          3D

 26 28  0  0  0  0  0  0  0  0999 V2000
    7.6015   15.9289   21.6727 C   0  0  0  0  0  0  0  0  0  0  0  0
    8.4157   15.0494   22.5759 C   0  0  1  0  0  0  0  0  0  0  0  0
    7.5002   14.0546   23.1010 O   0  0  0  0  0  0  0  0  0  0  0  0
    6.7489   14.4479   24.1630 C   0  0  0  0  0  0  0  0  0  0  0  0
    6.6239   15.5994   24.5567 O   0  0  0  0  0  0  0  0  0  0  0  0
    6.0891   13.2493   24.8217 C   0  0  0  0  0  0  0  0  0  0  0  0
    7.0009   12.0097   24.8481 C   0  0  0  0  0  0  0  0  0  0  0  0
    7.7973   11.8601   26.1256 C   0  0  0  0  0  0  0  0  0  0  0  0
    8.1089   13.1559   26.7074 N   0  0  0  0  0  0  0  0  0  0  0  0
    9.4924   14.0152   26.3566 S   0  0  0  0  0  0  0  0  0  0  0  0
    9.6518   14.9780   27.4152 O   0  0  0  0  0  0  0  0  0  0  0  0
    9.5027   14.4366   24.9860 O   0  0  0  0  0  0  0  0  0  0  0  0
   10.7355   12.8642   26.4933 N   0  0  0  0  0  0  0  0  0  0  0  0
   11.9287   13.4910   27.1470 C   0  0  0  0  0  0  0  0  0  0  0  0
   13.1719   12.6196   27.0206 C   0  0  0  0  0  0  0  0  0  0  0  0
   13.5113   12.3064   25.5714 C   0  0  0  0  0  0  0  0  0  0  0  0
   12.3629   12.7181   24.6605 C   0  0  0  0  0  0  0  0  0  0  0  0
   11.0597   12.1711   25.2066 C   0  0  0  0  0  0  0  0  0  0  0  0
    6.9192   13.9598   27.1044 C   0  0  0  0  0  0  0  0  0  0  0  0
    5.6950   13.6139   26.2538 C   0  0  0  0  0  0  0  0  0  0  0  0
    9.5774   14.2703   21.9135 C   0  0  2  0  0  0  0  0  0  0  0  0
   10.9625   14.7905   22.2023 C   0  0  0  0  0  0  0  0  0  0  0  0
   11.1704   15.8102   21.1329 C   0  0  0  0  0  0  0  0  0  0  0  0
   10.2674   15.3531   20.0345 C   0  0  0  0  0  0  0  0  0  0  0  0
   10.1678   15.8577   18.9312 O   0  0  0  0  0  0  0  0  0  0  0  0
    9.4846   14.3342   20.4860 O   0  0  0  0  0  0  0  0  0  0  0  0
  2  1  1  6
  2  3  1  0
  3  4  1  0
  4  5  2  0
  4  6  1  0
  6  7  1  0
  7  8  1  0
  8  9  1  0
  9 10  1  0
 10 11  2  0
 10 12  2  0
 10 13  1  0
 13 14  1  0
 14 15  1  0
 15 16  1  0
 16 17  1  0
 17 18  1  0
  9 19  1  0
 19 20  1  0
  2 21  1  0
 21 22  1  1
 22 23  1  0
 23 24  1  0
 24 25  2  0
 24 26  1  0
 20  6  1  0
 26 21  1  0
 18 13  1  0
M  END
>  <energy_score>  (2333) 
-38.390589

>  <inchikey>  (2333) 
None

>  <smiles>  (2333) 
None

>  <ref_pdb>  (2333) 
A4706a

>  <alias>  (2333) 
None

>  <HIPPO Pose ID>  (2333) 
499977

>  <name>  (2333) 
P499977

>  <HIPPO Compound ID>  (2333) 
314471

>  <ref_mols>  (2333) 
A4706a,A0875a

>  <distance_score>  (2333) 
1.793963

>  <inspiration_score>  (2333) 
None

$$$$
P499978
     RDKit          3D

 26 28  0  0  0  0  0  0  0  0999 V2000
    8.5059   16.6465   21.2687 C   0  0  0  0  0  0  0  0  0  0  0  0
    8.2443   15.1649   21.4728 C   0  0  2  0  0  0  0  0  0  0  0  0
    7.5413   15.0348   22.7087 O   0  0  0  0  0  0  0  0  0  0  0  0
    6.7971   13.9109   22.9164 C   0  0  0  0  0  0  0  0  0  0  0  0
    6.3311   13.1635   22.0756 O   0  0  0  0  0  0  0  0  0  0  0  0
    6.7466   13.7076   24.3947 C   0  0  0  0  0  0  0  0  0  0  0  0
    6.4704   12.3687   25.0482 C   0  0  0  0  0  0  0  0  0  0  0  0
    7.2196   12.3259   26.3988 C   0  0  0  0  0  0  0  0  0  0  0  0
    7.7311   13.6682   26.7957 N   0  0  0  0  0  0  0  0  0  0  0  0
    9.2514   14.3216   26.4191 S   0  0  0  0  0  0  0  0  0  0  0  0
    9.7319   14.9143   27.6410 O   0  0  0  0  0  0  0  0  0  0  0  0
    9.1918   15.1378   25.2273 O   0  0  0  0  0  0  0  0  0  0  0  0
   10.3092   13.0776   26.0450 N   0  0  0  0  0  0  0  0  0  0  0  0
   11.7157   13.6240   26.0302 C   0  0  0  0  0  0  0  0  0  0  0  0
   12.6621   12.7695   25.1922 C   0  0  0  0  0  0  0  0  0  0  0  0
   12.3263   11.3201   25.4527 C   0  0  0  0  0  0  0  0  0  0  0  0
   10.8573   10.9856   25.0634 C   0  0  0  0  0  0  0  0  0  0  0  0
   10.0650   12.2563   24.8501 C   0  0  0  0  0  0  0  0  0  0  0  0
    6.6318   14.6792   26.7127 C   0  0  0  0  0  0  0  0  0  0  0  0
    6.2098   14.8570   25.2457 C   0  0  0  0  0  0  0  0  0  0  0  0
    9.5341   14.3183   21.4630 C   0  0  2  0  0  0  0  0  0  0  0  0
   10.7711   14.7861   22.1922 C   0  0  0  0  0  0  0  0  0  0  0  0
   11.5087   15.6058   21.1756 C   0  0  0  0  0  0  0  0  0  0  0  0
   10.8994   15.1768   19.8757 C   0  0  0  0  0  0  0  0  0  0  0  0
   11.1458   15.6102   18.7690 O   0  0  0  0  0  0  0  0  0  0  0  0
    9.9489   14.2456   20.1026 O   0  0  0  0  0  0  0  0  0  0  0  0
  2  1  1  1
  2  3  1  0
  3  4  1  0
  4  5  2  0
  4  6  1  0
  6  7  1  0
  7  8  1  0
  8  9  1  0
  9 10  1  0
 10 11  2  0
 10 12  2  0
 10 13  1  0
 13 14  1  0
 14 15  1  0
 15 16  1  0
 16 17  1  0
 17 18  1  0
  9 19  1  0
 19 20  1  0
  2 21  1  0
 21 22  1  1
 22 23  1  0
 23 24  1  0
 24 25  2  0
 24 26  1  0
 20  6  1  0
 26 21  1  0
 18 13  1  0
M  END
>  <energy_score>  (2334) 
-1.895532

>  <inchikey>  (2334) 
None

>  <smiles>  (2334) 
None

>  <ref_pdb>  (2334) 
A4706a

>  <alias>  (2334) 
None

>  <HIPPO Pose ID>  (2334) 
499978

>  <name>  (2334) 
P499978

>  <HIPPO Compound ID>  (2334) 
314471

>  <ref_mols>  (2334) 
A4706a,A0875a

>  <distance_score>  (2334) 
1.570856

>  <inspiration_score>  (2334) 
None

$$$$
P499979
     RDKit          3D

 26 28  0  0  0  0  0  0  0  0999 V2000
   10.2648   12.7465   22.5696 C   0  0  0  0  0  0  0  0  0  0  0  0
    9.4163   13.8205   21.9208 C   0  0  1  0  0  0  0  0  0  0  0  0
    8.0797   13.6980   22.4561 O   0  0  0  0  0  0  0  0  0  0  0  0
    7.7802   14.2674   23.6497 C   0  0  0  0  0  0  0  0  0  0  0  0
    8.1432   15.3747   24.0041 O   0  0  0  0  0  0  0  0  0  0  0  0
    6.9027   13.3312   24.4727 C   0  0  0  0  0  0  0  0  0  0  0  0
    7.5630   11.9632   24.6876 C   0  0  0  0  0  0  0  0  0  0  0  0
    8.5224   11.8890   25.8708 C   0  0  0  0  0  0  0  0  0  0  0  0
    8.9243   13.1971   26.3607 N   0  0  0  0  0  0  0  0  0  0  0  0
   10.4385   13.9078   26.3039 S   0  0  0  0  0  0  0  0  0  0  0  0
   10.4897   14.6962   27.5097 O   0  0  0  0  0  0  0  0  0  0  0  0
   10.6217   14.5437   25.0249 O   0  0  0  0  0  0  0  0  0  0  0  0
   11.6306   12.6662   26.4526 N   0  0  0  0  0  0  0  0  0  0  0  0
   12.0523   12.0648   25.1764 C   0  0  0  0  0  0  0  0  0  0  0  0
   13.2506   11.1085   25.2650 C   0  0  0  0  0  0  0  0  0  0  0  0
   14.3479   11.4251   26.2392 C   0  0  0  0  0  0  0  0  0  0  0  0
   14.1679   12.8413   26.6617 C   0  0  0  0  0  0  0  0  0  0  0  0
   12.8018   13.0466   27.3123 C   0  0  0  0  0  0  0  0  0  0  0  0
    7.8066   14.1310   26.7051 C   0  0  0  0  0  0  0  0  0  0  0  0
    6.5679   13.9244   25.8368 C   0  0  0  0  0  0  0  0  0  0  0  0
   10.1667   15.1646   21.9061 C   0  0  2  0  0  0  0  0  0  0  0  0
    9.4107   16.2570   21.2098 C   0  0  0  0  0  0  0  0  0  0  0  0
    9.6597   15.9451   19.7637 C   0  0  0  0  0  0  0  0  0  0  0  0
   10.9735   15.2616   19.7785 C   0  0  0  0  0  0  0  0  0  0  0  0
   11.6014   14.9425   18.7887 O   0  0  0  0  0  0  0  0  0  0  0  0
   11.3323   14.9926   21.0644 O   0  0  0  0  0  0  0  0  0  0  0  0
  2  1  1  1
  2  3  1  0
  3  4  1  0
  4  5  2  0
  4  6  1  0
  6  7  1  0
  7  8  1  0
  8  9  1  0
  9 10  1  0
 10 11  2  0
 10 12  2  0
 10 13  1  0
 13 14  1  0
 14 15  1  0
 15 16  1  0
 16 17  1  0
 17 18  1  0
  9 19  1  0
 19 20  1  0
  2 21  1  0
 21 22  1  6
 22 23  1  0
 23 24  1  0
 24 25  2  0
 24 26  1  0
 20  6  1  0
 26 21  1  0
 18 13  1  0
M  END
>  <energy_score>  (2335) 
-28.670772

>  <inchikey>  (2335) 
None

>  <smiles>  (2335) 
None

>  <ref_pdb>  (2335) 
A4706a

>  <alias>  (2335) 
None

>  <HIPPO Pose ID>  (2335) 
499979

>  <name>  (2335) 
P499979

>  <HIPPO Compound ID>  (2335) 
314471

>  <ref_mols>  (2335) 
A4706a,A0875a

>  <distance_score>  (2335) 
1.822255

>  <inspiration_score>  (2335) 
None

$$$$
P499980
     RDKit          3D

 26 28  0  0  0  0  0  0  0  0999 V2000
    7.3787   14.6626   22.3320 O   0  0  0  0  0  0  0  0  0  0  0  0
    7.6335   13.8224   23.1821 C   0  0  0  0  0  0  0  0  0  0  0  0
    8.8642   13.3373   23.4615 O   0  0  0  0  0  0  0  0  0  0  0  0
   10.1478   13.8987   23.0190 C   0  0  0  0  0  0  0  0  0  0  0  0
   10.2780   15.4079   22.9625 C   0  0  0  0  0  0  0  0  0  0  0  0
   10.6491   15.9037   21.6903 O   0  0  0  0  0  0  0  0  0  0  0  0
    9.5301   15.9289   20.8162 C   0  0  1  0  0  0  0  0  0  0  0  0
    9.9167   16.4957   19.4892 C   0  0  0  0  0  0  0  0  0  0  0  0
   10.9287   15.4844   19.0258 C   0  0  0  0  0  0  0  0  0  0  0  0
   10.2630   14.2598   19.3216 O   0  0  0  0  0  0  0  0  0  0  0  0
    9.2283   14.5669   20.2916 C   0  0  0  0  0  0  0  0  0  0  0  0
    6.5183   13.2505   24.0719 C   0  0  0  0  0  0  0  0  0  0  0  0
    6.9024   12.0335   24.9516 C   0  0  0  0  0  0  0  0  0  0  0  0
    7.4569   12.4706   26.3103 C   0  0  0  0  0  0  0  0  0  0  0  0
    8.1104   13.7378   26.0389 N   0  0  0  0  0  0  0  0  0  0  0  0
    9.5865   14.1980   26.5827 S   0  0  0  0  0  0  0  0  0  0  0  0
    9.4485   14.4806   27.9870 O   0  0  0  0  0  0  0  0  0  0  0  0
   10.0614   15.2304   25.6948 O   0  0  0  0  0  0  0  0  0  0  0  0
   10.6584   12.9318   26.4551 N   0  0  0  0  0  0  0  0  0  0  0  0
   10.5269   11.7749   25.5590 C   0  0  0  0  0  0  0  0  0  0  0  0
   11.8747   11.0969   25.4340 C   0  0  0  0  0  0  0  0  0  0  0  0
   12.8751   12.0068   24.8036 C   0  0  0  0  0  0  0  0  0  0  0  0
   12.9967   13.2494   25.6313 C   0  0  0  0  0  0  0  0  0  0  0  0
   12.0471   13.3294   26.8225 C   0  0  0  0  0  0  0  0  0  0  0  0
    7.1141   14.8402   25.9263 C   0  0  0  0  0  0  0  0  0  0  0  0
    6.0106   14.3913   24.9668 C   0  0  0  0  0  0  0  0  0  0  0  0
  1  2  2  0
  2  3  1  0
  3  4  1  0
  4  5  1  0
  5  6  1  0
  7  6  1  1
  7  8  1  0
  8  9  1  0
  9 10  1  0
 10 11  1  0
  2 12  1  0
 12 13  1  0
 13 14  1  0
 14 15  1  0
 15 16  1  0
 16 17  2  0
 16 18  2  0
 16 19  1  0
 19 20  1  0
 20 21  1  0
 21 22  1  0
 22 23  1  0
 23 24  1  0
 15 25  1  0
 25 26  1  0
 11  7  1  0
 26 12  1  0
 24 19  1  0
M  END
>  <energy_score>  (2336) 
-15.314403

>  <inchikey>  (2336) 
None

>  <smiles>  (2336) 
None

>  <ref_pdb>  (2336) 
A4706a

>  <alias>  (2336) 
None

>  <HIPPO Pose ID>  (2336) 
499980

>  <name>  (2336) 
P499980

>  <HIPPO Compound ID>  (2336) 
314472

>  <ref_mols>  (2336) 
A0875a,A4706a

>  <distance_score>  (2336) 
1.538518

>  <inspiration_score>  (2336) 
None

$$$$
P499981
     RDKit          3D

 26 28  0  0  0  0  0  0  0  0999 V2000
   10.6613   14.4385   18.3300 C   0  0  0  0  0  0  0  0  0  0  0  0
   11.0311   15.5491   19.2211 C   0  0  0  0  0  0  0  0  0  0  0  0
    9.9288   15.8841   20.0302 O   0  0  0  0  0  0  0  0  0  0  0  0
    9.7545   15.2704   21.3427 C   0  0  0  0  0  0  0  0  0  0  0  0
    8.2265   15.2884   21.5496 C   0  0  0  0  0  0  0  0  0  0  0  0
    7.7528   14.9511   22.8644 O   0  0  0  0  0  0  0  0  0  0  0  0
    6.9223   13.8900   22.9909 C   0  0  0  0  0  0  0  0  0  0  0  0
    6.5766   13.1570   22.0663 O   0  0  0  0  0  0  0  0  0  0  0  0
    6.5061   13.5750   24.4315 C   0  0  0  0  0  0  0  0  0  0  0  0
    7.1636   12.2179   24.7892 C   0  0  0  0  0  0  0  0  0  0  0  0
    7.8022   12.0926   26.1557 C   0  0  0  0  0  0  0  0  0  0  0  0
    8.3867   13.3650   26.6008 N   0  0  0  0  0  0  0  0  0  0  0  0
    9.7411   13.9929   25.8012 S   0  0  0  0  0  0  0  0  0  0  0  0
   10.0860   15.2109   26.4882 O   0  0  0  0  0  0  0  0  0  0  0  0
    9.4410   13.9823   24.4012 O   0  0  0  0  0  0  0  0  0  0  0  0
   10.9320   12.8397   26.0484 N   0  0  0  0  0  0  0  0  0  0  0  0
   11.1025   11.8541   24.9516 C   0  0  0  0  0  0  0  0  0  0  0  0
   12.2411   10.9447   25.3774 C   0  0  0  0  0  0  0  0  0  0  0  0
   13.6015   11.5642   25.3447 C   0  0  0  0  0  0  0  0  0  0  0  0
   13.4299   13.0245   25.7040 C   0  0  0  0  0  0  0  0  0  0  0  0
   12.2242   13.3067   26.6326 C   0  0  0  0  0  0  0  0  0  0  0  0
    7.2828   14.3481   26.7744 C   0  0  0  0  0  0  0  0  0  0  0  0
    6.6923   14.7388   25.4267 C   0  0  0  0  0  0  0  0  0  0  0  0
   10.6440   15.8757   22.4397 C   0  0  0  0  0  0  0  0  0  0  0  0
   11.3897   14.6593   22.6422 O   0  0  0  0  0  0  0  0  0  0  0  0
   10.5478   13.9856   21.6792 C   0  0  0  0  0  0  0  0  0  0  0  0
  1  2  1  0
  2  3  1  0
  3  4  1  0
  4  5  1  0
  5  6  1  0
  6  7  1  0
  7  8  2  0
  7  9  1  0
  9 10  1  0
 10 11  1  0
 11 12  1  0
 12 13  1  0
 13 14  2  0
 13 15  2  0
 13 16  1  0
 16 17  1  0
 17 18  1  0
 18 19  1  0
 19 20  1  0
 20 21  1  0
 12 22  1  0
 22 23  1  0
  4 24  1  0
 24 25  1  0
 25 26  1  0
 26  4  1  0
 23  9  1  0
 21 16  1  0
M  END
>  <energy_score>  (2337) 
-61.750122

>  <inchikey>  (2337) 
None

>  <smiles>  (2337) 
None

>  <ref_pdb>  (2337) 
A4706a

>  <alias>  (2337) 
None

>  <HIPPO Pose ID>  (2337) 
499981

>  <name>  (2337) 
P499981

>  <HIPPO Compound ID>  (2337) 
314474

>  <ref_mols>  (2337) 
A4706a,A0875a

>  <distance_score>  (2337) 
1.115781

>  <inspiration_score>  (2337) 
None

$$$$
P499982
     RDKit          3D

 26 28  0  0  0  0  0  0  0  0999 V2000
    7.5689   14.0803   21.4919 C   0  0  0  0  0  0  0  0  0  0  0  0
    7.9148   15.4524   22.0268 C   0  0  1  0  0  0  0  0  0  0  0  0
    7.6848   15.3804   23.4593 O   0  0  0  0  0  0  0  0  0  0  0  0
    6.3821   15.2043   23.8375 C   0  0  0  0  0  0  0  0  0  0  0  0
    5.4042   15.4725   23.1469 O   0  0  0  0  0  0  0  0  0  0  0  0
    6.2521   14.5209   25.1988 C   0  0  0  0  0  0  0  0  0  0  0  0
    6.5300   13.0017   25.0440 C   0  0  0  0  0  0  0  0  0  0  0  0
    7.5136   12.3608   26.0232 C   0  0  0  0  0  0  0  0  0  0  0  0
    8.5170   13.3371   26.4983 N   0  0  0  0  0  0  0  0  0  0  0  0
    9.7120   13.7870   25.3873 S   0  0  0  0  0  0  0  0  0  0  0  0
   10.0461   15.1694   25.6097 O   0  0  0  0  0  0  0  0  0  0  0  0
    9.3390   13.2424   24.1078 O   0  0  0  0  0  0  0  0  0  0  0  0
   11.0594   12.8685   25.9391 N   0  0  0  0  0  0  0  0  0  0  0  0
   11.9985   12.6398   24.8147 C   0  0  0  0  0  0  0  0  0  0  0  0
   13.0671   11.6599   25.2626 C   0  0  0  0  0  0  0  0  0  0  0  0
   13.9215   12.2821   26.3367 C   0  0  0  0  0  0  0  0  0  0  0  0
   13.0560   12.7959   27.4701 C   0  0  0  0  0  0  0  0  0  0  0  0
   11.7758   13.5422   27.0587 C   0  0  0  0  0  0  0  0  0  0  0  0
    7.8418   14.4391   27.2172 C   0  0  0  0  0  0  0  0  0  0  0  0
    7.0223   15.2948   26.2704 C   0  0  0  0  0  0  0  0  0  0  0  0
    9.3724   15.8967   21.6169 C   0  0  2  0  0  0  0  0  0  0  0  0
    9.6496   15.8917   20.0897 C   0  0  0  0  0  0  0  0  0  0  0  0
   10.8237   15.1216   19.5239 C   0  0  0  0  0  0  0  0  0  0  0  0
   11.8276   14.7564   20.5738 C   0  0  0  0  0  0  0  0  0  0  0  0
   11.1203   14.2691   21.8124 C   0  0  0  0  0  0  0  0  0  0  0  0
   10.4084   15.3279   22.4154 O   0  0  0  0  0  0  0  0  0  0  0  0
  2  1  1  6
  2  3  1  0
  3  4  1  0
  4  5  2  0
  4  6  1  0
  6  7  1  0
  7  8  1  0
  8  9  1  0
  9 10  1  0
 10 11  2  0
 10 12  2  0
 10 13  1  0
 13 14  1  0
 14 15  1  0
 15 16  1  0
 16 17  1  0
 17 18  1  0
  9 19  1  0
 19 20  1  0
  2 21  1  0
 21 22  1  6
 22 23  1  0
 23 24  1  0
 24 25  1  0
 25 26  1  0
 20  6  1  0
 26 21  1  0
 18 13  1  0
M  END
>  <energy_score>  (2338) 
-40.288257

>  <inchikey>  (2338) 
None

>  <smiles>  (2338) 
None

>  <ref_pdb>  (2338) 
A4706a

>  <alias>  (2338) 
None

>  <HIPPO Pose ID>  (2338) 
499982

>  <name>  (2338) 
P499982

>  <HIPPO Compound ID>  (2338) 
314475

>  <ref_mols>  (2338) 
A0875a,A4706a

>  <distance_score>  (2338) 
1.888295

>  <inspiration_score>  (2338) 
None

$$$$
P499983
     RDKit          3D

 26 28  0  0  0  0  0  0  0  0999 V2000
    8.1626   17.1429   21.4865 C   0  0  0  0  0  0  0  0  0  0  0  0
    8.0369   15.6303   21.5845 C   0  0  2  0  0  0  0  0  0  0  0  0
    7.4991   15.3620   22.8968 O   0  0  0  0  0  0  0  0  0  0  0  0
    6.8232   14.2074   23.0845 C   0  0  0  0  0  0  0  0  0  0  0  0
    6.8046   13.2632   22.2954 O   0  0  0  0  0  0  0  0  0  0  0  0
    5.9695   14.2341   24.3650 C   0  0  0  0  0  0  0  0  0  0  0  0
    5.8473   12.8133   24.9195 C   0  0  0  0  0  0  0  0  0  0  0  0
    7.1667   12.3135   25.4868 C   0  0  0  0  0  0  0  0  0  0  0  0
    7.8331   13.3234   26.3489 N   0  0  0  0  0  0  0  0  0  0  0  0
    9.3197   13.9428   25.8390 S   0  0  0  0  0  0  0  0  0  0  0  0
    9.6977   14.9680   26.7842 O   0  0  0  0  0  0  0  0  0  0  0  0
    9.2599   14.2219   24.4346 O   0  0  0  0  0  0  0  0  0  0  0  0
   10.4461   12.6938   26.0175 N   0  0  0  0  0  0  0  0  0  0  0  0
   10.2515   11.5299   25.1144 C   0  0  0  0  0  0  0  0  0  0  0  0
   11.3598   10.5023   25.2425 C   0  0  0  0  0  0  0  0  0  0  0  0
   12.7512   11.1422   25.4328 C   0  0  0  0  0  0  0  0  0  0  0  0
   12.7532   12.5945   25.0379 C   0  0  0  0  0  0  0  0  0  0  0  0
   11.8052   13.3213   25.9565 C   0  0  0  0  0  0  0  0  0  0  0  0
    6.8919   14.4168   26.7405 C   0  0  0  0  0  0  0  0  0  0  0  0
    6.4135   15.1765   25.4972 C   0  0  0  0  0  0  0  0  0  0  0  0
    9.3739   14.9619   21.1884 C   0  0  1  0  0  0  0  0  0  0  0  0
    9.7683   15.4483   19.7784 C   0  0  0  0  0  0  0  0  0  0  0  0
   11.0437   14.8301   19.2888 C   0  0  0  0  0  0  0  0  0  0  0  0
   11.9833   14.5776   20.4427 C   0  0  0  0  0  0  0  0  0  0  0  0
   11.6980   15.4052   21.6793 C   0  0  0  0  0  0  0  0  0  0  0  0
   10.3786   15.2620   22.1633 O   0  0  0  0  0  0  0  0  0  0  0  0
  2  1  1  1
  2  3  1  0
  3  4  1  0
  4  5  2  0
  4  6  1  0
  6  7  1  0
  7  8  1  0
  8  9  1  0
  9 10  1  0
 10 11  2  0
 10 12  2  0
 10 13  1  0
 13 14  1  0
 14 15  1  0
 15 16  1  0
 16 17  1  0
 17 18  1  0
  9 19  1  0
 19 20  1  0
  2 21  1  0
 21 22  1  6
 22 23  1  0
 23 24  1  0
 24 25  1  0
 25 26  1  0
 20  6  1  0
 26 21  1  0
 18 13  1  0
M  END
>  <energy_score>  (2339) 
-51.460476

>  <inchikey>  (2339) 
None

>  <smiles>  (2339) 
None

>  <ref_pdb>  (2339) 
A4706a

>  <alias>  (2339) 
None

>  <HIPPO Pose ID>  (2339) 
499983

>  <name>  (2339) 
P499983

>  <HIPPO Compound ID>  (2339) 
314475

>  <ref_mols>  (2339) 
A4706a,A0875a

>  <distance_score>  (2339) 
1.278831

>  <inspiration_score>  (2339) 
None

$$$$
P499984
     RDKit          3D

 26 28  0  0  0  0  0  0  0  0999 V2000
    6.3278   14.2455   21.5809 O   0  0  0  0  0  0  0  0  0  0  0  0
    7.2652   14.6201   22.2715 C   0  0  0  0  0  0  0  0  0  0  0  0
    8.3794   15.2559   21.7737 O   0  0  0  0  0  0  0  0  0  0  0  0
    9.2894   14.3325   21.1531 C   0  0  2  0  0  0  0  0  0  0  0  0
   10.2245   13.7212   22.1726 C   0  0  0  0  0  0  0  0  0  0  0  0
   11.2967   14.6586   22.3511 O   0  0  0  0  0  0  0  0  0  0  0  0
   11.3030   15.5488   21.2444 C   0  0  0  0  0  0  0  0  0  0  0  0
   10.3491   14.9270   20.2653 C   0  0  2  0  0  0  0  0  0  0  0  0
    9.9563   15.8522   19.1860 C   0  0  0  0  0  0  0  0  0  0  0  0
   11.0369   15.9781   18.3777 F   0  0  0  0  0  0  0  0  0  0  0  0
    9.0030   15.2989   18.4108 F   0  0  0  0  0  0  0  0  0  0  0  0
    7.3766   14.3382   23.7524 C   0  0  0  0  0  0  0  0  0  0  0  0
    7.2485   12.8315   24.0247 C   0  0  0  0  0  0  0  0  0  0  0  0
    7.4952   12.4459   25.4768 C   0  0  0  0  0  0  0  0  0  0  0  0
    7.6924   13.6407   26.3011 N   0  0  0  0  0  0  0  0  0  0  0  0
    9.1960   14.3784   26.4810 S   0  0  0  0  0  0  0  0  0  0  0  0
    9.0905   15.6944   25.9026 O   0  0  0  0  0  0  0  0  0  0  0  0
    9.6374   14.2183   27.8396 O   0  0  0  0  0  0  0  0  0  0  0  0
   10.2837   13.5257   25.5060 N   0  0  0  0  0  0  0  0  0  0  0  0
   10.7761   12.2383   26.0198 C   0  0  0  0  0  0  0  0  0  0  0  0
   12.2080   12.3685   26.5821 C   0  0  0  0  0  0  0  0  0  0  0  0
   13.1892   12.6417   25.4751 C   0  0  0  0  0  0  0  0  0  0  0  0
   12.5277   13.5915   24.5100 C   0  0  0  0  0  0  0  0  0  0  0  0
   11.4165   14.4096   25.1482 C   0  0  0  0  0  0  0  0  0  0  0  0
    6.5446   14.5934   26.1383 C   0  0  0  0  0  0  0  0  0  0  0  0
    6.4248   15.0878   24.6791 C   0  0  0  0  0  0  0  0  0  0  0  0
  1  2  2  0
  2  3  1  0
  4  3  1  1
  4  5  1  0
  5  6  1  0
  6  7  1  0
  7  8  1  0
  8  9  1  6
  9 10  1  0
  9 11  1  0
  2 12  1  0
 12 13  1  0
 13 14  1  0
 14 15  1  0
 15 16  1  0
 16 17  2  0
 16 18  2  0
 16 19  1  0
 19 20  1  0
 20 21  1  0
 21 22  1  0
 22 23  1  0
 23 24  1  0
 15 25  1  0
 25 26  1  0
  8  4  1  0
 26 12  1  0
 24 19  1  0
M  END
>  <energy_score>  (2340) 
-21.757334

>  <inchikey>  (2340) 
None

>  <smiles>  (2340) 
None

>  <ref_pdb>  (2340) 
A4706a

>  <alias>  (2340) 
None

>  <HIPPO Pose ID>  (2340) 
499984

>  <name>  (2340) 
P499984

>  <HIPPO Compound ID>  (2340) 
314477

>  <ref_mols>  (2340) 
A4706a,A0875a

>  <distance_score>  (2340) 
1.650054

>  <inspiration_score>  (2340) 
None

$$$$
P499985
     RDKit          3D

 26 29  0  0  0  0  0  0  0  0999 V2000
    5.6448   15.1673   22.7312 O   0  0  0  0  0  0  0  0  0  0  0  0
    6.6698   15.0579   23.3778 C   0  0  0  0  0  0  0  0  0  0  0  0
    7.9169   15.5539   23.0590 O   0  0  0  0  0  0  0  0  0  0  0  0
    8.2225   15.8388   21.7065 C   0  0  2  0  0  0  0  0  0  0  0  0
    8.0934   14.6246   20.8408 C   0  0  0  0  0  0  0  0  0  0  0  0
    8.8716   14.9063   19.6675 O   0  0  0  0  0  0  0  0  0  0  0  0
    9.7396   15.9982   19.9121 C   0  0  0  0  0  0  0  0  0  0  0  0
    9.6934   16.1435   21.4123 C   0  0  2  0  0  0  0  0  0  0  0  0
   10.6813   15.1491   21.9639 C   0  0  0  0  0  0  0  0  0  0  0  0
   11.4421   15.4334   23.1985 C   0  0  0  0  0  0  0  0  0  0  0  0
   12.1137   15.5510   21.8688 C   0  0  0  0  0  0  0  0  0  0  0  0
    6.8605   14.2608   24.6453 C   0  0  0  0  0  0  0  0  0  0  0  0
    6.9798   12.7540   24.3574 C   0  0  0  0  0  0  0  0  0  0  0  0
    7.6172   11.9762   25.5219 C   0  0  0  0  0  0  0  0  0  0  0  0
    8.2936   12.9234   26.4500 N   0  0  0  0  0  0  0  0  0  0  0  0
    9.6974   13.6731   25.7899 S   0  0  0  0  0  0  0  0  0  0  0  0
    9.8345   14.9610   26.4300 O   0  0  0  0  0  0  0  0  0  0  0  0
    9.6240   13.5578   24.3531 O   0  0  0  0  0  0  0  0  0  0  0  0
   11.0142   12.6832   26.2847 N   0  0  0  0  0  0  0  0  0  0  0  0
   11.9528   13.4825   27.1074 C   0  0  0  0  0  0  0  0  0  0  0  0
   13.2236   12.7340   27.4666 C   0  0  0  0  0  0  0  0  0  0  0  0
   13.9672   12.2723   26.2451 C   0  0  0  0  0  0  0  0  0  0  0  0
   13.0629   11.4819   25.3344 C   0  0  0  0  0  0  0  0  0  0  0  0
   11.6612   12.0351   25.1075 C   0  0  0  0  0  0  0  0  0  0  0  0
    7.2362   13.8713   27.0501 C   0  0  0  0  0  0  0  0  0  0  0  0
    6.2367   14.4526   25.9985 C   0  0  0  0  0  0  0  0  0  0  0  0
  1  2  2  0
  2  3  1  0
  4  3  1  1
  4  5  1  0
  5  6  1  0
  6  7  1  0
  7  8  1  0
  8  9  1  1
  9 10  1  0
 10 11  1  0
  2 12  1  0
 12 13  1  0
 13 14  1  0
 14 15  1  0
 15 16  1  0
 16 17  2  0
 16 18  2  0
 16 19  1  0
 19 20  1  0
 20 21  1  0
 21 22  1  0
 22 23  1  0
 23 24  1  0
 15 25  1  0
 25 26  1  0
  8  4  1  0
 11  9  1  0
 26 12  1  0
 24 19  1  0
M  END
>  <energy_score>  (2341) 
-27.8366

>  <inchikey>  (2341) 
None

>  <smiles>  (2341) 
None

>  <ref_pdb>  (2341) 
A4706a

>  <alias>  (2341) 
None

>  <HIPPO Pose ID>  (2341) 
499985

>  <name>  (2341) 
P499985

>  <HIPPO Compound ID>  (2341) 
314478

>  <ref_mols>  (2341) 
A4706a,A0875a

>  <distance_score>  (2341) 
1.807597

>  <inspiration_score>  (2341) 
None

$$$$
P499986
     RDKit          3D

 26 29  0  0  0  0  0  0  0  0999 V2000
    5.7296   15.0107   22.3843 O   0  0  0  0  0  0  0  0  0  0  0  0
    6.5141   15.0939   23.3265 C   0  0  0  0  0  0  0  0  0  0  0  0
    7.8185   15.4939   23.2061 O   0  0  0  0  0  0  0  0  0  0  0  0
    8.2519   15.7563   21.8545 C   0  0  2  0  0  0  0  0  0  0  0  0
    8.2446   14.5193   20.9951 C   0  0  0  0  0  0  0  0  0  0  0  0
    9.0728   14.7899   19.8604 O   0  0  0  0  0  0  0  0  0  0  0  0
    9.8449   15.9454   20.1093 C   0  0  0  0  0  0  0  0  0  0  0  0
    9.7040   16.2041   21.5967 C   0  0  2  0  0  0  0  0  0  0  0  0
   10.7340   15.5067   22.4427 C   0  0  0  0  0  0  0  0  0  0  0  0
   12.1652   15.3582   22.0140 C   0  0  0  0  0  0  0  0  0  0  0  0
   11.2951   14.1495   22.0941 C   0  0  0  0  0  0  0  0  0  0  0  0
    6.0859   14.6451   24.7359 C   0  0  0  0  0  0  0  0  0  0  0  0
    6.0452   13.0955   24.8177 C   0  0  0  0  0  0  0  0  0  0  0  0
    6.9459   12.3995   25.8431 C   0  0  0  0  0  0  0  0  0  0  0  0
    8.0299   13.2912   26.3000 N   0  0  0  0  0  0  0  0  0  0  0  0
    9.2731   13.5705   25.1959 S   0  0  0  0  0  0  0  0  0  0  0  0
    9.7673   14.9092   25.4109 O   0  0  0  0  0  0  0  0  0  0  0  0
    8.8078   13.0921   23.9186 O   0  0  0  0  0  0  0  0  0  0  0  0
   10.4674   12.4768   25.7479 N   0  0  0  0  0  0  0  0  0  0  0  0
   11.7782   13.1648   25.9249 C   0  0  0  0  0  0  0  0  0  0  0  0
   12.8804   12.2220   26.3637 C   0  0  0  0  0  0  0  0  0  0  0  0
   12.9763   11.0561   25.4060 C   0  0  0  0  0  0  0  0  0  0  0  0
   11.6282   10.3135   25.2425 C   0  0  0  0  0  0  0  0  0  0  0  0
   10.4870   11.2523   24.8978 C   0  0  0  0  0  0  0  0  0  0  0  0
    7.4430   14.4950   26.9265 C   0  0  0  0  0  0  0  0  0  0  0  0
    6.7732   15.3849   25.8885 C   0  0  0  0  0  0  0  0  0  0  0  0
  1  2  2  0
  2  3  1  0
  4  3  1  1
  4  5  1  0
  5  6  1  0
  6  7  1  0
  7  8  1  0
  8  9  1  1
  9 10  1  0
 10 11  1  0
  2 12  1  0
 12 13  1  0
 13 14  1  0
 14 15  1  0
 15 16  1  0
 16 17  2  0
 16 18  2  0
 16 19  1  0
 19 20  1  0
 20 21  1  0
 21 22  1  0
 22 23  1  0
 23 24  1  0
 15 25  1  0
 25 26  1  0
  8  4  1  0
 11  9  1  0
 26 12  1  0
 24 19  1  0
M  END
>  <energy_score>  (2342) 
-43.178052

>  <inchikey>  (2342) 
None

>  <smiles>  (2342) 
None

>  <ref_pdb>  (2342) 
A4706a

>  <alias>  (2342) 
None

>  <HIPPO Pose ID>  (2342) 
499986

>  <name>  (2342) 
P499986

>  <HIPPO Compound ID>  (2342) 
314478

>  <ref_mols>  (2342) 
A4706a,A0875a

>  <distance_score>  (2342) 
1.609127

>  <inspiration_score>  (2342) 
None

$$$$
P499987
     RDKit          3D

 26 29  0  0  0  0  0  0  0  0999 V2000
    7.3500   13.5182   21.6394 O   0  0  0  0  0  0  0  0  0  0  0  0
    7.2324   14.4486   22.4301 C   0  0  0  0  0  0  0  0  0  0  0  0
    7.6686   15.7027   22.1928 O   0  0  0  0  0  0  0  0  0  0  0  0
    8.9739   16.0015   21.5961 C   0  0  2  0  0  0  0  0  0  0  0  0
    8.9346   17.2806   20.7694 C   0  0  0  0  0  0  0  0  0  0  0  0
    9.5558   17.0312   19.5018 O   0  0  0  0  0  0  0  0  0  0  0  0
    9.7399   15.6368   19.3289 C   0  0  0  0  0  0  0  0  0  0  0  0
    9.7376   15.0131   20.7134 C   0  0  1  0  0  0  0  0  0  0  0  0
   11.1812   14.8103   21.1166 C   0  0  0  0  0  0  0  0  0  0  0  0
   11.4018   13.7496   22.1409 C   0  0  0  0  0  0  0  0  0  0  0  0
   11.8249   15.1524   22.4316 C   0  0  0  0  0  0  0  0  0  0  0  0
    6.4931   14.2320   23.7738 C   0  0  0  0  0  0  0  0  0  0  0  0
    6.8855   12.8125   24.2927 C   0  0  0  0  0  0  0  0  0  0  0  0
    7.2067   12.6400   25.7633 C   0  0  0  0  0  0  0  0  0  0  0  0
    7.8692   13.8289   26.3072 N   0  0  0  0  0  0  0  0  0  0  0  0
    9.4116   14.2878   25.7830 S   0  0  0  0  0  0  0  0  0  0  0  0
    9.4078   14.3812   24.3491 O   0  0  0  0  0  0  0  0  0  0  0  0
    9.7605   15.4480   26.5678 O   0  0  0  0  0  0  0  0  0  0  0  0
   10.4376   13.0349   26.2239 N   0  0  0  0  0  0  0  0  0  0  0  0
   11.7869   13.4699   26.6808 C   0  0  0  0  0  0  0  0  0  0  0  0
   12.8604   13.3130   25.6111 C   0  0  0  0  0  0  0  0  0  0  0  0
   12.8204   12.0379   24.8316 C   0  0  0  0  0  0  0  0  0  0  0  0
   11.7947   11.1404   25.4268 C   0  0  0  0  0  0  0  0  0  0  0  0
   10.4279   11.8024   25.3993 C   0  0  0  0  0  0  0  0  0  0  0  0
    6.8774   14.9428   26.2494 C   0  0  0  0  0  0  0  0  0  0  0  0
    6.6378   15.3692   24.8027 C   0  0  0  0  0  0  0  0  0  0  0  0
  1  2  2  0
  2  3  1  0
  4  3  1  6
  4  5  1  0
  5  6  1  0
  6  7  1  0
  7  8  1  0
  8  9  1  1
  9 10  1  0
 10 11  1  0
  2 12  1  0
 12 13  1  0
 13 14  1  0
 14 15  1  0
 15 16  1  0
 16 17  2  0
 16 18  2  0
 16 19  1  0
 19 20  1  0
 20 21  1  0
 21 22  1  0
 22 23  1  0
 23 24  1  0
 15 25  1  0
 25 26  1  0
  8  4  1  0
 11  9  1  0
 26 12  1  0
 24 19  1  0
M  END
>  <energy_score>  (2343) 
-1.534095

>  <inchikey>  (2343) 
None

>  <smiles>  (2343) 
None

>  <ref_pdb>  (2343) 
A4706a

>  <alias>  (2343) 
None

>  <HIPPO Pose ID>  (2343) 
499987

>  <name>  (2343) 
P499987

>  <HIPPO Compound ID>  (2343) 
314478

>  <ref_mols>  (2343) 
A4706a,A0875a

>  <distance_score>  (2343) 
1.487273

>  <inspiration_score>  (2343) 
None

$$$$
P499988
     RDKit          3D

 26 29  0  0  0  0  0  0  0  0999 V2000
    7.0991   12.8691   22.6101 O   0  0  0  0  0  0  0  0  0  0  0  0
    7.1676   13.5936   23.5951 C   0  0  0  0  0  0  0  0  0  0  0  0
    7.8693   14.7389   23.6741 O   0  0  0  0  0  0  0  0  0  0  0  0
    8.5074   15.2757   22.5152 C   0  0  2  0  0  0  0  0  0  0  0  0
    7.5625   15.4387   21.3751 C   0  0  0  0  0  0  0  0  0  0  0  0
    8.1835   14.7661   20.2757 O   0  0  0  0  0  0  0  0  0  0  0  0
    9.5790   14.9067   20.4524 C   0  0  0  0  0  0  0  0  0  0  0  0
    9.7411   14.6056   21.9232 C   0  0  1  0  0  0  0  0  0  0  0  0
   11.0157   15.2025   22.4224 C   0  0  0  0  0  0  0  0  0  0  0  0
   12.2684   15.1738   21.6087 C   0  0  0  0  0  0  0  0  0  0  0  0
   12.0951   14.2367   22.7627 C   0  0  0  0  0  0  0  0  0  0  0  0
    6.4363   13.2678   24.8880 C   0  0  0  0  0  0  0  0  0  0  0  0
    6.8561   11.8693   25.3408 C   0  0  0  0  0  0  0  0  0  0  0  0
    8.3393   11.8397   25.6750 C   0  0  0  0  0  0  0  0  0  0  0  0
    8.7293   12.9670   26.5388 N   0  0  0  0  0  0  0  0  0  0  0  0
   10.1270   13.8384   26.2088 S   0  0  0  0  0  0  0  0  0  0  0  0
   10.2415   14.8335   27.2444 O   0  0  0  0  0  0  0  0  0  0  0  0
   10.1019   14.2383   24.8344 O   0  0  0  0  0  0  0  0  0  0  0  0
   11.3874   12.7123   26.4089 N   0  0  0  0  0  0  0  0  0  0  0  0
   11.6110   11.7299   25.3394 C   0  0  0  0  0  0  0  0  0  0  0  0
   13.0192   11.1081   25.2640 C   0  0  0  0  0  0  0  0  0  0  0  0
   14.1013   11.5101   26.2149 C   0  0  0  0  0  0  0  0  0  0  0  0
   13.8897   12.9565   26.4594 C   0  0  0  0  0  0  0  0  0  0  0  0
   12.5666   13.1767   27.1694 C   0  0  0  0  0  0  0  0  0  0  0  0
    7.5853   13.7470   27.0999 C   0  0  0  0  0  0  0  0  0  0  0  0
    6.6498   14.2757   26.0239 C   0  0  0  0  0  0  0  0  0  0  0  0
  1  2  2  0
  2  3  1  0
  4  3  1  1
  4  5  1  0
  5  6  1  0
  6  7  1  0
  7  8  1  0
  8  9  1  1
  9 10  1  0
 10 11  1  0
  2 12  1  0
 12 13  1  0
 13 14  1  0
 14 15  1  0
 15 16  1  0
 16 17  2  0
 16 18  2  0
 16 19  1  0
 19 20  1  0
 20 21  1  0
 21 22  1  0
 22 23  1  0
 23 24  1  0
 15 25  1  0
 25 26  1  0
  8  4  1  0
 11  9  1  0
 26 12  1  0
 24 19  1  0
M  END
>  <energy_score>  (2344) 
-26.886463

>  <inchikey>  (2344) 
None

>  <smiles>  (2344) 
None

>  <ref_pdb>  (2344) 
A4706a

>  <alias>  (2344) 
None

>  <HIPPO Pose ID>  (2344) 
499988

>  <name>  (2344) 
P499988

>  <HIPPO Compound ID>  (2344) 
314478

>  <ref_mols>  (2344) 
A4706a,A0875a

>  <distance_score>  (2344) 
1.657352

>  <inspiration_score>  (2344) 
None

$$$$
P499989
     RDKit          3D

 26 28  0  0  0  0  0  0  0  0999 V2000
   12.0262   14.2653   19.7329 C   0  0  0  0  0  0  0  0  0  0  0  0
   11.1637   14.9003   18.9517 C   0  0  0  0  0  0  0  0  0  0  0  0
    9.8177   15.3887   19.3112 C   0  0  0  0  0  0  0  0  0  0  0  0
    9.3638   15.5857   20.7441 C   0  0  2  0  0  0  0  0  0  0  0  0
   10.3305   15.6015   21.8845 C   0  0  0  0  0  0  0  0  0  0  0  0
    9.4959   15.9051   23.0013 O   0  0  0  0  0  0  0  0  0  0  0  0
    8.1198   16.0171   22.5292 C   0  0  0  0  0  0  0  0  0  0  0  0
    8.0745   15.0342   21.3910 C   0  0  2  0  0  0  0  0  0  0  0  0
    7.9866   13.7582   22.0643 O   0  0  0  0  0  0  0  0  0  0  0  0
    6.7417   13.6145   22.6550 C   0  0  0  0  0  0  0  0  0  0  0  0
    5.7106   14.0539   22.1542 O   0  0  0  0  0  0  0  0  0  0  0  0
    6.7161   12.9053   24.0135 C   0  0  0  0  0  0  0  0  0  0  0  0
    7.9911   12.1180   24.3017 C   0  0  0  0  0  0  0  0  0  0  0  0
    8.2060   11.8198   25.7615 C   0  0  0  0  0  0  0  0  0  0  0  0
    8.0461   13.0370   26.5555 N   0  0  0  0  0  0  0  0  0  0  0  0
    9.1845   14.2816   26.5081 S   0  0  0  0  0  0  0  0  0  0  0  0
    8.8380   15.1745   25.4381 O   0  0  0  0  0  0  0  0  0  0  0  0
    9.2944   14.7683   27.8580 O   0  0  0  0  0  0  0  0  0  0  0  0
   10.6010   13.4811   26.1025 N   0  0  0  0  0  0  0  0  0  0  0  0
   11.0827   13.7568   24.7471 C   0  0  0  0  0  0  0  0  0  0  0  0
   11.8092   12.5311   24.3076 C   0  0  0  0  0  0  0  0  0  0  0  0
   12.6483   11.8646   25.3936 C   0  0  0  0  0  0  0  0  0  0  0  0
   12.8646   12.6836   26.6599 C   0  0  0  0  0  0  0  0  0  0  0  0
   11.7251   13.6440   27.0320 C   0  0  0  0  0  0  0  0  0  0  0  0
    6.6400   13.4971   26.5329 C   0  0  0  0  0  0  0  0  0  0  0  0
    6.2289   13.8739   25.1138 C   0  0  0  0  0  0  0  0  0  0  0  0
  1  2  2  0
  2  3  1  0
  4  3  1  6
  4  5  1  0
  5  6  1  0
  6  7  1  0
  7  8  1  0
  8  9  1  1
  9 10  1  0
 10 11  2  0
 10 12  1  0
 12 13  1  0
 13 14  1  0
 14 15  1  0
 15 16  1  0
 16 17  2  0
 16 18  2  0
 16 19  1  0
 19 20  1  0
 20 21  1  0
 21 22  1  0
 22 23  1  0
 23 24  1  0
 15 25  1  0
 25 26  1  0
  8  4  1  0
 26 12  1  0
 24 19  1  0
M  END
>  <energy_score>  (2345) 
-5.944614

>  <inchikey>  (2345) 
None

>  <smiles>  (2345) 
None

>  <ref_pdb>  (2345) 
A4706a

>  <alias>  (2345) 
None

>  <HIPPO Pose ID>  (2345) 
499989

>  <name>  (2345) 
P499989

>  <HIPPO Compound ID>  (2345) 
314479

>  <ref_mols>  (2345) 
A4706a,A0875a

>  <distance_score>  (2345) 
1.664414

>  <inspiration_score>  (2345) 
None

$$$$
P499990
     RDKit          3D

 26 28  0  0  0  0  0  0  0  0999 V2000
   11.4520   14.6891   18.3987 C   0  0  0  0  0  0  0  0  0  0  0  0
   10.2086   15.0503   18.7057 C   0  0  0  0  0  0  0  0  0  0  0  0
    9.6147   15.4466   19.9953 C   0  0  0  0  0  0  0  0  0  0  0  0
   10.1826   14.8264   21.2377 C   0  0  1  0  0  0  0  0  0  0  0  0
   11.6754   15.0478   21.3992 C   0  0  0  0  0  0  0  0  0  0  0  0
   11.9551   15.3053   22.7582 O   0  0  0  0  0  0  0  0  0  0  0  0
   10.7135   15.3078   23.4266 C   0  0  0  0  0  0  0  0  0  0  0  0
    9.5897   15.5017   22.4478 C   0  0  2  0  0  0  0  0  0  0  0  0
    8.2764   15.1041   22.9273 O   0  0  0  0  0  0  0  0  0  0  0  0
    8.0070   13.8300   23.3016 C   0  0  0  0  0  0  0  0  0  0  0  0
    8.6748   12.8545   22.9782 O   0  0  0  0  0  0  0  0  0  0  0  0
    6.7199   13.6843   24.1269 C   0  0  0  0  0  0  0  0  0  0  0  0
    6.6553   12.2872   24.7721 C   0  0  0  0  0  0  0  0  0  0  0  0
    7.6680   12.0551   25.8836 C   0  0  0  0  0  0  0  0  0  0  0  0
    7.9026   13.2621   26.6691 N   0  0  0  0  0  0  0  0  0  0  0  0
    9.3589   14.0749   26.7036 S   0  0  0  0  0  0  0  0  0  0  0  0
    9.4015   14.7087   27.9976 O   0  0  0  0  0  0  0  0  0  0  0  0
    9.3989   14.9166   25.5445 O   0  0  0  0  0  0  0  0  0  0  0  0
   10.6530   12.9669   26.6434 N   0  0  0  0  0  0  0  0  0  0  0  0
   10.9771   12.3091   25.3424 C   0  0  0  0  0  0  0  0  0  0  0  0
   12.3549   12.7112   24.8357 C   0  0  0  0  0  0  0  0  0  0  0  0
   13.4422   12.2559   25.7833 C   0  0  0  0  0  0  0  0  0  0  0  0
   13.1032   12.6977   27.1954 C   0  0  0  0  0  0  0  0  0  0  0  0
   11.8661   13.5976   27.2722 C   0  0  0  0  0  0  0  0  0  0  0  0
    6.7329   14.1906   26.6469 C   0  0  0  0  0  0  0  0  0  0  0  0
    6.4927   14.7353   25.2267 C   0  0  0  0  0  0  0  0  0  0  0  0
  1  2  2  0
  2  3  1  0
  4  3  1  6
  4  5  1  0
  5  6  1  0
  6  7  1  0
  7  8  1  0
  8  9  1  1
  9 10  1  0
 10 11  2  0
 10 12  1  0
 12 13  1  0
 13 14  1  0
 14 15  1  0
 15 16  1  0
 16 17  2  0
 16 18  2  0
 16 19  1  0
 19 20  1  0
 20 21  1  0
 21 22  1  0
 22 23  1  0
 23 24  1  0
 15 25  1  0
 25 26  1  0
  8  4  1  0
 26 12  1  0
 24 19  1  0
M  END
>  <energy_score>  (2346) 
-32.342752

>  <inchikey>  (2346) 
None

>  <smiles>  (2346) 
None

>  <ref_pdb>  (2346) 
A4706a

>  <alias>  (2346) 
None

>  <HIPPO Pose ID>  (2346) 
499990

>  <name>  (2346) 
P499990

>  <HIPPO Compound ID>  (2346) 
314479

>  <ref_mols>  (2346) 
A4706a,A0875a

>  <distance_score>  (2346) 
1.555486

>  <inspiration_score>  (2346) 
None

$$$$
P499991
     RDKit          3D

 26 28  0  0  0  0  0  0  0  0999 V2000
   12.0186   14.6144   19.7196 C   0  0  0  0  0  0  0  0  0  0  0  0
   10.8940   14.8387   19.0439 C   0  0  0  0  0  0  0  0  0  0  0  0
    9.8556   15.8501   19.3824 C   0  0  0  0  0  0  0  0  0  0  0  0
    9.2138   15.9815   20.7803 C   0  0  2  0  0  0  0  0  0  0  0  0
   10.1980   16.0169   21.9241 C   0  0  0  0  0  0  0  0  0  0  0  0
   10.4850   14.6726   22.2681 O   0  0  0  0  0  0  0  0  0  0  0  0
    9.4554   13.8620   21.7157 C   0  0  0  0  0  0  0  0  0  0  0  0
    8.3769   14.7762   21.1629 C   0  0  1  0  0  0  0  0  0  0  0  0
    7.4108   15.1353   22.1643 O   0  0  0  0  0  0  0  0  0  0  0  0
    6.8033   14.0348   22.6854 C   0  0  0  0  0  0  0  0  0  0  0  0
    6.1422   13.2263   22.0523 O   0  0  0  0  0  0  0  0  0  0  0  0
    7.1607   13.9166   24.1302 C   0  0  0  0  0  0  0  0  0  0  0  0
    7.1003   12.4754   24.6699 C   0  0  0  0  0  0  0  0  0  0  0  0
    7.5508   12.4372   26.1294 C   0  0  0  0  0  0  0  0  0  0  0  0
    8.2312   13.6989   26.4175 N   0  0  0  0  0  0  0  0  0  0  0  0
    9.8635   14.0046   26.2005 S   0  0  0  0  0  0  0  0  0  0  0  0
   10.5315   13.4888   27.3655 O   0  0  0  0  0  0  0  0  0  0  0  0
    9.9897   15.3991   25.8432 O   0  0  0  0  0  0  0  0  0  0  0  0
   10.4716   13.1541   24.8802 N   0  0  0  0  0  0  0  0  0  0  0  0
   11.7841   13.6995   24.3795 C   0  0  0  0  0  0  0  0  0  0  0  0
   12.9535   13.2713   25.2497 C   0  0  0  0  0  0  0  0  0  0  0  0
   13.1545   11.7847   25.2192 C   0  0  0  0  0  0  0  0  0  0  0  0
   11.8085   11.1872   25.5038 C   0  0  0  0  0  0  0  0  0  0  0  0
   10.5441   11.6951   24.8252 C   0  0  0  0  0  0  0  0  0  0  0  0
    7.2768   14.8485   26.4224 C   0  0  0  0  0  0  0  0  0  0  0  0
    6.5127   14.8933   25.0919 C   0  0  0  0  0  0  0  0  0  0  0  0
  1  2  2  0
  2  3  1  0
  4  3  1  6
  4  5  1  0
  5  6  1  0
  6  7  1  0
  7  8  1  0
  8  9  1  1
  9 10  1  0
 10 11  2  0
 10 12  1  0
 12 13  1  0
 13 14  1  0
 14 15  1  0
 15 16  1  0
 16 17  2  0
 16 18  2  0
 16 19  1  0
 19 20  1  0
 20 21  1  0
 21 22  1  0
 22 23  1  0
 23 24  1  0
 15 25  1  0
 25 26  1  0
  8  4  1  0
 26 12  1  0
 24 19  1  0
M  END
>  <energy_score>  (2347) 
-23.787015

>  <inchikey>  (2347) 
None

>  <smiles>  (2347) 
None

>  <ref_pdb>  (2347) 
A4706a

>  <alias>  (2347) 
None

>  <HIPPO Pose ID>  (2347) 
499991

>  <name>  (2347) 
P499991

>  <HIPPO Compound ID>  (2347) 
314479

>  <ref_mols>  (2347) 
A4706a,A0875a

>  <distance_score>  (2347) 
1.296445

>  <inspiration_score>  (2347) 
None

$$$$
P499992
     RDKit          3D

 26 28  0  0  0  0  0  0  0  0999 V2000
   11.4898   15.2098   18.0358 C   0  0  0  0  0  0  0  0  0  0  0  0
   10.5310   14.6452   18.7372 C   0  0  0  0  0  0  0  0  0  0  0  0
    9.8020   15.2842   19.8362 C   0  0  0  0  0  0  0  0  0  0  0  0
   10.5125   14.7550   21.0471 C   0  0  1  0  0  0  0  0  0  0  0  0
   11.5360   15.7475   21.5601 C   0  0  0  0  0  0  0  0  0  0  0  0
   11.6774   15.3968   22.9190 O   0  0  0  0  0  0  0  0  0  0  0  0
   10.3444   15.1279   23.3171 C   0  0  0  0  0  0  0  0  0  0  0  0
    9.6477   14.3652   22.2214 C   0  0  1  0  0  0  0  0  0  0  0  0
    8.2470   14.6776   22.0754 O   0  0  0  0  0  0  0  0  0  0  0  0
    7.3329   13.8289   22.6230 C   0  0  0  0  0  0  0  0  0  0  0  0
    6.4499   13.2906   21.9669 O   0  0  0  0  0  0  0  0  0  0  0  0
    7.4808   13.5930   24.0971 C   0  0  0  0  0  0  0  0  0  0  0  0
    7.3455   12.1355   24.5277 C   0  0  0  0  0  0  0  0  0  0  0  0
    7.7609   11.9462   25.9844 C   0  0  0  0  0  0  0  0  0  0  0  0
    7.9040   13.2402   26.6624 N   0  0  0  0  0  0  0  0  0  0  0  0
    9.3455   14.0822   26.8522 S   0  0  0  0  0  0  0  0  0  0  0  0
    9.3659   14.4943   28.2326 O   0  0  0  0  0  0  0  0  0  0  0  0
    9.4236   15.1180   25.8554 O   0  0  0  0  0  0  0  0  0  0  0  0
   10.6407   12.9832   26.6358 N   0  0  0  0  0  0  0  0  0  0  0  0
   10.8950   12.3501   25.3091 C   0  0  0  0  0  0  0  0  0  0  0  0
   12.2585   12.7368   24.7506 C   0  0  0  0  0  0  0  0  0  0  0  0
   13.3596   12.2117   25.6481 C   0  0  0  0  0  0  0  0  0  0  0  0
   13.0996   12.6581   27.0796 C   0  0  0  0  0  0  0  0  0  0  0  0
   11.8866   13.5827   27.2235 C   0  0  0  0  0  0  0  0  0  0  0  0
    6.7105   14.1115   26.4473 C   0  0  0  0  0  0  0  0  0  0  0  0
    6.6001   14.4929   24.9627 C   0  0  0  0  0  0  0  0  0  0  0  0
  1  2  2  0
  2  3  1  0
  4  3  1  6
  4  5  1  0
  5  6  1  0
  6  7  1  0
  7  8  1  0
  8  9  1  6
  9 10  1  0
 10 11  2  0
 10 12  1  0
 12 13  1  0
 13 14  1  0
 14 15  1  0
 15 16  1  0
 16 17  2  0
 16 18  2  0
 16 19  1  0
 19 20  1  0
 20 21  1  0
 21 22  1  0
 22 23  1  0
 23 24  1  0
 15 25  1  0
 25 26  1  0
  8  4  1  0
 26 12  1  0
 24 19  1  0
M  END
>  <energy_score>  (2348) 
-6.055821

>  <inchikey>  (2348) 
None

>  <smiles>  (2348) 
None

>  <ref_pdb>  (2348) 
A4706a

>  <alias>  (2348) 
None

>  <HIPPO Pose ID>  (2348) 
499992

>  <name>  (2348) 
P499992

>  <HIPPO Compound ID>  (2348) 
314479

>  <ref_mols>  (2348) 
A4706a,A0875a

>  <distance_score>  (2348) 
1.41429

>  <inspiration_score>  (2348) 
None

$$$$
P499993
     RDKit          3D

 26 28  0  0  0  0  0  0  0  0999 V2000
   11.9107   14.8004   18.9020 C   0  0  0  0  0  0  0  0  0  0  0  0
   10.4542   14.6316   18.6562 C   0  0  0  0  0  0  0  0  0  0  0  0
    9.8294   14.1048   19.8063 O   0  0  0  0  0  0  0  0  0  0  0  0
    9.7872   14.9639   20.8765 C   0  0  2  0  0  0  0  0  0  0  0  0
   10.8382   14.6234   21.9009 C   0  0  0  0  0  0  0  0  0  0  0  0
   10.4364   15.5454   23.0101 C   0  0  0  0  0  0  0  0  0  0  0  0
    8.9834   15.9342   22.6868 C   0  0  0  0  0  0  0  0  0  0  0  0
    8.4496   15.0100   21.6335 C   0  0  2  0  0  0  0  0  0  0  0  0
    7.8507   13.9100   22.3552 O   0  0  0  0  0  0  0  0  0  0  0  0
    6.6371   14.2448   22.8963 C   0  0  0  0  0  0  0  0  0  0  0  0
    5.8315   14.9699   22.3163 O   0  0  0  0  0  0  0  0  0  0  0  0
    6.3355   13.7760   24.3342 C   0  0  0  0  0  0  0  0  0  0  0  0
    6.6410   12.3425   24.7608 C   0  0  0  0  0  0  0  0  0  0  0  0
    7.2864   12.2573   26.1437 C   0  0  0  0  0  0  0  0  0  0  0  0
    8.5092   13.1141   26.1926 N   0  0  0  0  0  0  0  0  0  0  0  0
    9.7326   12.4771   25.2315 S   0  0  0  0  0  0  0  0  0  0  0  0
    9.8784   11.0964   25.6032 O   0  0  0  0  0  0  0  0  0  0  0  0
    9.4252   12.8118   23.8736 O   0  0  0  0  0  0  0  0  0  0  0  0
   11.1670   13.2425   25.5736 N   0  0  0  0  0  0  0  0  0  0  0  0
   12.2435   12.9003   24.6252 C   0  0  0  0  0  0  0  0  0  0  0  0
   13.1135   11.7938   25.1982 C   0  0  0  0  0  0  0  0  0  0  0  0
   13.8845   12.3622   26.3523 C   0  0  0  0  0  0  0  0  0  0  0  0
   12.9054   12.8693   27.3908 C   0  0  0  0  0  0  0  0  0  0  0  0
   11.6191   13.5776   26.9202 C   0  0  0  0  0  0  0  0  0  0  0  0
    8.1682   14.5444   26.0164 C   0  0  0  0  0  0  0  0  0  0  0  0
    6.7866   14.7929   25.3983 C   0  0  0  0  0  0  0  0  0  0  0  0
  1  2  1  0
  2  3  1  0
  4  3  1  6
  4  5  1  0
  5  6  1  0
  6  7  1  0
  7  8  1  0
  8  9  1  1
  9 10  1  0
 10 11  2  0
 10 12  1  0
 12 13  1  0
 13 14  1  0
 14 15  1  0
 15 16  1  0
 16 17  2  0
 16 18  2  0
 16 19  1  0
 19 20  1  0
 20 21  1  0
 21 22  1  0
 22 23  1  0
 23 24  1  0
 15 25  1  0
 25 26  1  0
  8  4  1  0
 26 12  1  0
 24 19  1  0
M  END
>  <energy_score>  (2349) 
-14.915972

>  <inchikey>  (2349) 
None

>  <smiles>  (2349) 
None

>  <ref_pdb>  (2349) 
A4706a

>  <alias>  (2349) 
None

>  <HIPPO Pose ID>  (2349) 
499993

>  <name>  (2349) 
P499993

>  <HIPPO Compound ID>  (2349) 
314480

>  <ref_mols>  (2349) 
A4706a,A0875a

>  <distance_score>  (2349) 
1.684411

>  <inspiration_score>  (2349) 
None

$$$$
P499994
     RDKit          3D

 26 28  0  0  0  0  0  0  0  0999 V2000
   11.6598   14.5631   18.5589 C   0  0  0  0  0  0  0  0  0  0  0  0
   10.5078   15.5053   18.6536 C   0  0  0  0  0  0  0  0  0  0  0  0
   10.1032   15.8964   19.9471 O   0  0  0  0  0  0  0  0  0  0  0  0
    9.9574   14.7938   20.8198 C   0  0  1  0  0  0  0  0  0  0  0  0
   11.2928   14.6386   21.5569 C   0  0  0  0  0  0  0  0  0  0  0  0
   11.0568   15.4105   22.8145 C   0  0  0  0  0  0  0  0  0  0  0  0
    9.6647   14.9578   23.1419 C   0  0  0  0  0  0  0  0  0  0  0  0
    8.8732   15.1078   21.8686 C   0  0  2  0  0  0  0  0  0  0  0  0
    7.7696   14.1733   21.6632 O   0  0  0  0  0  0  0  0  0  0  0  0
    6.8081   13.7086   22.4837 C   0  0  0  0  0  0  0  0  0  0  0  0
    5.8766   13.0610   22.0176 O   0  0  0  0  0  0  0  0  0  0  0  0
    6.9386   13.8869   23.9587 C   0  0  0  0  0  0  0  0  0  0  0  0
    6.3854   12.7477   24.8445 C   0  0  0  0  0  0  0  0  0  0  0  0
    6.8435   12.9514   26.3089 C   0  0  0  0  0  0  0  0  0  0  0  0
    7.5448   14.2406   26.3878 N   0  0  0  0  0  0  0  0  0  0  0  0
    9.1473   14.5196   26.6951 S   0  0  0  0  0  0  0  0  0  0  0  0
    9.4602   15.8554   26.2535 O   0  0  0  0  0  0  0  0  0  0  0  0
    9.4200   14.1579   28.0577 O   0  0  0  0  0  0  0  0  0  0  0  0
   10.1244   13.5135   25.7340 N   0  0  0  0  0  0  0  0  0  0  0  0
    9.8399   12.0752   25.7433 C   0  0  0  0  0  0  0  0  0  0  0  0
   10.9054   11.2547   25.0499 C   0  0  0  0  0  0  0  0  0  0  0  0
   12.3275   11.6080   25.4812 C   0  0  0  0  0  0  0  0  0  0  0  0
   12.5381   13.0607   25.1825 C   0  0  0  0  0  0  0  0  0  0  0  0
   11.5580   13.8518   26.0285 C   0  0  0  0  0  0  0  0  0  0  0  0
    6.6819   15.3627   25.9589 C   0  0  0  0  0  0  0  0  0  0  0  0
    6.4328   15.2316   24.4588 C   0  0  0  0  0  0  0  0  0  0  0  0
  1  2  1  0
  2  3  1  0
  4  3  1  6
  4  5  1  0
  5  6  1  0
  6  7  1  0
  7  8  1  0
  8  9  1  1
  9 10  1  0
 10 11  2  0
 10 12  1  0
 12 13  1  0
 13 14  1  0
 14 15  1  0
 15 16  1  0
 16 17  2  0
 16 18  2  0
 16 19  1  0
 19 20  1  0
 20 21  1  0
 21 22  1  0
 22 23  1  0
 23 24  1  0
 15 25  1  0
 25 26  1  0
  8  4  1  0
 26 12  1  0
 24 19  1  0
M  END
>  <energy_score>  (2350) 
-3.8681

>  <inchikey>  (2350) 
None

>  <smiles>  (2350) 
None

>  <ref_pdb>  (2350) 
A4706a

>  <alias>  (2350) 
None

>  <HIPPO Pose ID>  (2350) 
499994

>  <name>  (2350) 
P499994

>  <HIPPO Compound ID>  (2350) 
314480

>  <ref_mols>  (2350) 
A0875a,A4706a

>  <distance_score>  (2350) 
1.638437

>  <inspiration_score>  (2350) 
None

$$$$
P499995
     RDKit          3D

 26 28  0  0  0  0  0  0  0  0999 V2000
   11.6434   15.0813   18.2693 C   0  0  0  0  0  0  0  0  0  0  0  0
   10.2824   14.7808   18.7731 C   0  0  0  0  0  0  0  0  0  0  0  0
   10.0460   15.4838   19.9664 O   0  0  0  0  0  0  0  0  0  0  0  0
    9.6482   14.6213   21.0418 C   0  0  1  0  0  0  0  0  0  0  0  0
   10.8828   13.9103   21.5962 C   0  0  0  0  0  0  0  0  0  0  0  0
   11.5714   14.8986   22.4900 C   0  0  0  0  0  0  0  0  0  0  0  0
   10.5735   16.0179   22.6474 C   0  0  0  0  0  0  0  0  0  0  0  0
    9.1913   15.5530   22.1490 C   0  0  2  0  0  0  0  0  0  0  0  0
    8.4074   15.0376   23.2529 O   0  0  0  0  0  0  0  0  0  0  0  0
    7.3281   14.2282   23.1154 C   0  0  0  0  0  0  0  0  0  0  0  0
    6.9771   13.6786   22.0758 O   0  0  0  0  0  0  0  0  0  0  0  0
    6.5535   14.0220   24.4493 C   0  0  0  0  0  0  0  0  0  0  0  0
    6.5586   12.5477   24.9193 C   0  0  0  0  0  0  0  0  0  0  0  0
    7.4605   12.1700   26.1033 C   0  0  0  0  0  0  0  0  0  0  0  0
    8.4073   13.2570   26.4438 N   0  0  0  0  0  0  0  0  0  0  0  0
    9.6881   13.4540   25.3760 S   0  0  0  0  0  0  0  0  0  0  0  0
    9.3380   12.6816   24.2080 O   0  0  0  0  0  0  0  0  0  0  0  0
   10.0192   14.8541   25.3309 O   0  0  0  0  0  0  0  0  0  0  0  0
   11.0044   12.6506   26.1067 N   0  0  0  0  0  0  0  0  0  0  0  0
   11.9010   13.5348   26.8877 C   0  0  0  0  0  0  0  0  0  0  0  0
   13.3738   13.1427   26.7991 C   0  0  0  0  0  0  0  0  0  0  0  0
   13.6048   11.6824   26.7919 C   0  0  0  0  0  0  0  0  0  0  0  0
   13.0192   11.1898   25.4874 C   0  0  0  0  0  0  0  0  0  0  0  0
   11.6625   11.7810   25.1137 C   0  0  0  0  0  0  0  0  0  0  0  0
    7.6429   14.4850   26.7689 C   0  0  0  0  0  0  0  0  0  0  0  0
    6.8593   15.0259   25.5726 C   0  0  0  0  0  0  0  0  0  0  0  0
  1  2  1  0
  2  3  1  0
  4  3  1  6
  4  5  1  0
  5  6  1  0
  6  7  1  0
  7  8  1  0
  8  9  1  1
  9 10  1  0
 10 11  2  0
 10 12  1  0
 12 13  1  0
 13 14  1  0
 14 15  1  0
 15 16  1  0
 16 17  2  0
 16 18  2  0
 16 19  1  0
 19 20  1  0
 20 21  1  0
 21 22  1  0
 22 23  1  0
 23 24  1  0
 15 25  1  0
 25 26  1  0
  8  4  1  0
 26 12  1  0
 24 19  1  0
M  END
>  <energy_score>  (2351) 
-21.753226

>  <inchikey>  (2351) 
None

>  <smiles>  (2351) 
None

>  <ref_pdb>  (2351) 
A4706a

>  <alias>  (2351) 
None

>  <HIPPO Pose ID>  (2351) 
499995

>  <name>  (2351) 
P499995

>  <HIPPO Compound ID>  (2351) 
314480

>  <ref_mols>  (2351) 
A4706a,A0875a

>  <distance_score>  (2351) 
1.423582

>  <inspiration_score>  (2351) 
None

$$$$
P499996
     RDKit          3D

 26 28  0  0  0  0  0  0  0  0999 V2000
   11.4166   14.9998   18.3509 C   0  0  0  0  0  0  0  0  0  0  0  0
   11.1759   14.8802   19.8159 C   0  0  0  0  0  0  0  0  0  0  0  0
    9.7611   15.1263   20.0697 N   0  0  0  0  0  0  0  0  0  0  0  0
    9.3689   14.5171   21.3461 C   0  0  1  0  0  0  0  0  0  0  0  0
   10.0403   15.3871   22.4102 C   0  0  0  0  0  0  0  0  0  0  0  0
    8.9756   15.7889   23.2591 O   0  0  0  0  0  0  0  0  0  0  0  0
    7.8335   15.9352   22.3877 C   0  0  0  0  0  0  0  0  0  0  0  0
    7.8504   14.5935   21.7062 C   0  0  2  0  0  0  0  0  0  0  0  0
    7.4749   13.5431   22.6658 O   0  0  0  0  0  0  0  0  0  0  0  0
    6.3060   13.7135   23.3386 C   0  0  0  0  0  0  0  0  0  0  0  0
    5.4010   14.4404   22.9433 O   0  0  0  0  0  0  0  0  0  0  0  0
    6.1913   12.9486   24.6639 C   0  0  0  0  0  0  0  0  0  0  0  0
    7.1727   11.8050   24.9356 C   0  0  0  0  0  0  0  0  0  0  0  0
    8.0106   11.9877   26.1975 C   0  0  0  0  0  0  0  0  0  0  0  0
    8.5476   13.3625   26.3586 N   0  0  0  0  0  0  0  0  0  0  0  0
    9.8571   13.7414   25.3720 S   0  0  0  0  0  0  0  0  0  0  0  0
    9.5640   13.1508   24.0987 O   0  0  0  0  0  0  0  0  0  0  0  0
   10.2154   15.1286   25.5333 O   0  0  0  0  0  0  0  0  0  0  0  0
   11.1791   12.8393   25.9532 N   0  0  0  0  0  0  0  0  0  0  0  0
   11.8610   13.4978   27.0959 C   0  0  0  0  0  0  0  0  0  0  0  0
   13.1438   12.7558   27.5064 C   0  0  0  0  0  0  0  0  0  0  0  0
   14.0328   12.2763   26.3691 C   0  0  0  0  0  0  0  0  0  0  0  0
   13.2013   11.6582   25.2749 C   0  0  0  0  0  0  0  0  0  0  0  0
   12.1485   12.6519   24.8303 C   0  0  0  0  0  0  0  0  0  0  0  0
    7.4778   14.4155   26.3194 C   0  0  0  0  0  0  0  0  0  0  0  0
    6.1194   13.9053   25.8576 C   0  0  0  0  0  0  0  0  0  0  0  0
  1  2  1  0
  2  3  1  0
  4  3  1  6
  4  5  1  0
  5  6  1  0
  6  7  1  0
  7  8  1  0
  8  9  1  1
  9 10  1  0
 10 11  2  0
 10 12  1  0
 12 13  1  0
 13 14  1  0
 14 15  1  0
 15 16  1  0
 16 17  2  0
 16 18  2  0
 16 19  1  0
 19 20  1  0
 20 21  1  0
 21 22  1  0
 22 23  1  0
 23 24  1  0
 15 25  1  0
 25 26  1  0
  8  4  1  0
 26 12  1  0
 24 19  1  0
M  END
>  <energy_score>  (2352) 
-41.638037

>  <inchikey>  (2352) 
None

>  <smiles>  (2352) 
None

>  <ref_pdb>  (2352) 
A4706a

>  <alias>  (2352) 
None

>  <HIPPO Pose ID>  (2352) 
499996

>  <name>  (2352) 
P499996

>  <HIPPO Compound ID>  (2352) 
314481

>  <ref_mols>  (2352) 
A0875a,A4706a

>  <distance_score>  (2352) 
1.744834

>  <inspiration_score>  (2352) 
None

$$$$
P499997
     RDKit          3D

 26 28  0  0  0  0  0  0  0  0999 V2000
   11.4375   15.0301   18.3084 C   0  0  0  0  0  0  0  0  0  0  0  0
   10.0678   15.3555   18.8596 C   0  0  0  0  0  0  0  0  0  0  0  0
    9.7647   14.5333   20.0193 N   0  0  0  0  0  0  0  0  0  0  0  0
   10.4997   15.0309   21.1476 C   0  0  2  0  0  0  0  0  0  0  0  0
   11.2256   13.9688   21.9435 C   0  0  0  0  0  0  0  0  0  0  0  0
   11.5639   14.5852   23.1853 O   0  0  0  0  0  0  0  0  0  0  0  0
   10.9105   15.8733   23.1519 C   0  0  0  0  0  0  0  0  0  0  0  0
    9.7257   15.8153   22.1839 C   0  0  2  0  0  0  0  0  0  0  0  0
    8.6177   15.1201   22.8098 O   0  0  0  0  0  0  0  0  0  0  0  0
    7.3465   15.5640   22.7252 C   0  0  0  0  0  0  0  0  0  0  0  0
    6.9853   16.4178   21.9341 O   0  0  0  0  0  0  0  0  0  0  0  0
    6.3646   14.9407   23.7625 C   0  0  0  0  0  0  0  0  0  0  0  0
    6.2093   13.4171   23.6288 C   0  0  0  0  0  0  0  0  0  0  0  0
    6.5490   12.5517   24.8528 C   0  0  0  0  0  0  0  0  0  0  0  0
    7.5383   13.2197   25.7211 N   0  0  0  0  0  0  0  0  0  0  0  0
    9.0432   13.4704   24.9884 S   0  0  0  0  0  0  0  0  0  0  0  0
    8.9829   12.8692   23.6836 O   0  0  0  0  0  0  0  0  0  0  0  0
    9.3866   14.8408   25.2766 O   0  0  0  0  0  0  0  0  0  0  0  0
   10.0760   12.5530   25.8862 N   0  0  0  0  0  0  0  0  0  0  0  0
   10.8761   11.5278   25.1924 C   0  0  0  0  0  0  0  0  0  0  0  0
   12.3872   11.7757   25.2025 C   0  0  0  0  0  0  0  0  0  0  0  0
   12.9573   12.4996   26.3911 C   0  0  0  0  0  0  0  0  0  0  0  0
   12.1030   13.7101   26.6716 C   0  0  0  0  0  0  0  0  0  0  0  0
   10.6942   13.3120   26.9577 C   0  0  0  0  0  0  0  0  0  0  0  0
    6.9091   14.4420   26.2838 C   0  0  0  0  0  0  0  0  0  0  0  0
    6.5706   15.4691   25.1951 C   0  0  0  0  0  0  0  0  0  0  0  0
  1  2  1  0
  2  3  1  0
  4  3  1  6
  4  5  1  0
  5  6  1  0
  6  7  1  0
  7  8  1  0
  8  9  1  1
  9 10  1  0
 10 11  2  0
 10 12  1  0
 12 13  1  0
 13 14  1  0
 14 15  1  0
 15 16  1  0
 16 17  2  0
 16 18  2  0
 16 19  1  0
 19 20  1  0
 20 21  1  0
 21 22  1  0
 22 23  1  0
 23 24  1  0
 15 25  1  0
 25 26  1  0
  8  4  1  0
 26 12  1  0
 24 19  1  0
M  END
>  <energy_score>  (2353) 
-27.821997

>  <inchikey>  (2353) 
None

>  <smiles>  (2353) 
None

>  <ref_pdb>  (2353) 
A4706a

>  <alias>  (2353) 
None

>  <HIPPO Pose ID>  (2353) 
499997

>  <name>  (2353) 
P499997

>  <HIPPO Compound ID>  (2353) 
314481

>  <ref_mols>  (2353) 
A4706a,A0875a

>  <distance_score>  (2353) 
1.98792

>  <inspiration_score>  (2353) 
None

$$$$
P499998
     RDKit          3D

 26 28  0  0  0  0  0  0  0  0999 V2000
   11.4051   14.7493   18.4465 C   0  0  0  0  0  0  0  0  0  0  0  0
   10.6238   15.5509   19.4420 C   0  0  0  0  0  0  0  0  0  0  0  0
    9.5504   14.7664   19.9866 N   0  0  0  0  0  0  0  0  0  0  0  0
    9.6441   14.3710   21.3842 C   0  0  1  0  0  0  0  0  0  0  0  0
   11.0210   13.8729   21.8213 C   0  0  0  0  0  0  0  0  0  0  0  0
   11.5152   14.7296   22.8418 O   0  0  0  0  0  0  0  0  0  0  0  0
   10.6786   15.8859   22.8394 C   0  0  0  0  0  0  0  0  0  0  0  0
    9.2883   15.5227   22.3159 C   0  0  2  0  0  0  0  0  0  0  0  0
    8.3995   15.2006   23.4291 O   0  0  0  0  0  0  0  0  0  0  0  0
    7.2570   14.4860   23.2580 C   0  0  0  0  0  0  0  0  0  0  0  0
    6.8002   14.1369   22.1736 O   0  0  0  0  0  0  0  0  0  0  0  0
    6.5971   14.0573   24.5939 C   0  0  0  0  0  0  0  0  0  0  0  0
    6.7661   12.5360   24.8424 C   0  0  0  0  0  0  0  0  0  0  0  0
    7.7023   12.0634   25.9659 C   0  0  0  0  0  0  0  0  0  0  0  0
    8.5295   13.1676   26.5038 N   0  0  0  0  0  0  0  0  0  0  0  0
    9.8129   13.6448   25.5249 S   0  0  0  0  0  0  0  0  0  0  0  0
    9.5109   13.1290   24.2141 O   0  0  0  0  0  0  0  0  0  0  0  0
   10.0694   15.0363   25.8031 O   0  0  0  0  0  0  0  0  0  0  0  0
   11.1694   12.7675   26.0717 N   0  0  0  0  0  0  0  0  0  0  0  0
   11.8934   13.4706   27.1626 C   0  0  0  0  0  0  0  0  0  0  0  0
   13.1746   12.7259   27.5702 C   0  0  0  0  0  0  0  0  0  0  0  0
   14.0413   12.2193   26.4289 C   0  0  0  0  0  0  0  0  0  0  0  0
   13.2020   11.6083   25.3344 C   0  0  0  0  0  0  0  0  0  0  0  0
   12.1093   12.5712   24.9290 C   0  0  0  0  0  0  0  0  0  0  0  0
    7.6313   14.2602   26.9607 C   0  0  0  0  0  0  0  0  0  0  0  0
    6.9141   14.9489   25.8027 C   0  0  0  0  0  0  0  0  0  0  0  0
  1  2  1  0
  2  3  1  0
  4  3  1  6
  4  5  1  0
  5  6  1  0
  6  7  1  0
  7  8  1  0
  8  9  1  1
  9 10  1  0
 10 11  2  0
 10 12  1  0
 12 13  1  0
 13 14  1  0
 14 15  1  0
 15 16  1  0
 16 17  2  0
 16 18  2  0
 16 19  1  0
 19 20  1  0
 20 21  1  0
 21 22  1  0
 22 23  1  0
 23 24  1  0
 15 25  1  0
 25 26  1  0
  8  4  1  0
 26 12  1  0
 24 19  1  0
M  END
>  <energy_score>  (2354) 
-41.473454

>  <inchikey>  (2354) 
None

>  <smiles>  (2354) 
None

>  <ref_pdb>  (2354) 
A4706a

>  <alias>  (2354) 
None

>  <HIPPO Pose ID>  (2354) 
499998

>  <name>  (2354) 
P499998

>  <HIPPO Compound ID>  (2354) 
314481

>  <ref_mols>  (2354) 
A4706a,A0875a

>  <distance_score>  (2354) 
1.547597

>  <inspiration_score>  (2354) 
None

$$$$
P499999
     RDKit          3D

 26 27  0  0  0  0  0  0  0  0999 V2000
   13.6766   11.5860   31.4830 C   0  0  0  0  0  0  0  0  0  0  0  0
   14.0547   11.6919   30.1133 O   0  0  0  0  0  0  0  0  0  0  0  0
   15.1448   10.8217   29.8055 C   0  0  0  0  0  0  0  0  0  0  0  0
   15.7263   11.1241   28.4151 C   0  0  1  0  0  0  0  0  0  0  0  0
   14.6884   11.3552   27.3918 O   0  0  0  0  0  0  0  0  0  0  0  0
   14.2490   12.6248   27.2965 C   0  0  0  0  0  0  0  0  0  0  0  0
   14.7127   13.5386   27.9710 O   0  0  0  0  0  0  0  0  0  0  0  0
   13.1277   12.9033   26.3030 C   0  0  0  0  0  0  0  0  0  0  0  0
   12.0721   13.6935   27.0931 C   0  0  0  0  0  0  0  0  0  0  0  0
   10.6717   13.3059   26.7599 C   0  0  0  0  0  0  0  0  0  0  0  0
   10.5303   13.3495   25.3237 N   0  0  0  0  0  0  0  0  0  0  0  0
    9.2287   14.1555   24.6906 S   0  0  0  0  0  0  0  0  0  0  0  0
    9.4898   14.4562   23.3078 O   0  0  0  0  0  0  0  0  0  0  0  0
    8.9008   15.1972   25.6368 O   0  0  0  0  0  0  0  0  0  0  0  0
    7.9660   13.0143   24.7514 N   0  0  0  0  0  0  0  0  0  0  0  0
    7.9187   12.1218   25.9327 C   0  0  0  0  0  0  0  0  0  0  0  0
    6.5338   11.5535   26.1745 C   0  0  0  0  0  0  0  0  0  0  0  0
    5.5691   12.6776   26.5337 C   0  0  0  0  0  0  0  0  0  0  0  0
    5.8634   13.9516   25.7411 C   0  0  0  0  0  0  0  0  0  0  0  0
    6.6365   13.6585   24.4543 C   0  0  0  0  0  0  0  0  0  0  0  0
   11.3455   12.4289   24.5415 C   0  0  0  0  0  0  0  0  0  0  0  0
   12.5110   11.8437   25.3988 C   0  0  0  0  0  0  0  0  0  0  0  0
   16.8945   12.1168   28.5475 C   0  0  0  0  0  0  0  0  0  0  0  0
   17.9786   11.4580   29.0385 F   0  0  0  0  0  0  0  0  0  0  0  0
   17.2510   12.6057   27.3441 F   0  0  0  0  0  0  0  0  0  0  0  0
   16.6631   13.1453   29.3842 F   0  0  0  0  0  0  0  0  0  0  0  0
  1  2  1  0
  2  3  1  0
  4  3  1  1
  4  5  1  0
  5  6  1  0
  6  7  2  0
  6  8  1  0
  8  9  1  0
  9 10  1  0
 10 11  1  0
 11 12  1  0
 12 13  2  0
 12 14  2  0
 12 15  1  0
 15 16  1  0
 16 17  1  0
 17 18  1  0
 18 19  1  0
 19 20  1  0
 11 21  1  0
 21 22  1  0
  4 23  1  0
 23 24  1  0
 23 25  1  0
 23 26  1  0
 22  8  1  0
 20 15  1  0
M  END
>  <energy_score>  (2355) 
-46.786091

>  <inchikey>  (2355) 
None

>  <smiles>  (2355) 
None

>  <ref_pdb>  (2355) 
A4706a

>  <alias>  (2355) 
None

>  <HIPPO Pose ID>  (2355) 
499999

>  <name>  (2355) 
P499999

>  <HIPPO Compound ID>  (2355) 
314482

>  <ref_mols>  (2355) 
A4706a,A0875a

>  <distance_score>  (2355) 
1.969439

>  <inspiration_score>  (2355) 
None

$$$$
P500000
     RDKit          3D

 26 29  0  0  0  0  0  0  0  0999 V2000
    5.6215   14.6873   22.4681 O   0  0  0  0  0  0  0  0  0  0  0  0
    6.4757   14.7938   23.3415 C   0  0  0  0  0  0  0  0  0  0  0  0
    7.6805   15.4329   23.1838 O   0  0  0  0  0  0  0  0  0  0  0  0
    8.1614   15.3958   21.8243 C   0  0  2  0  0  0  0  0  0  0  0  0
    8.5493   13.9530   21.5442 C   0  0  0  0  0  0  0  0  0  0  0  0
    9.9506   13.6163   22.0434 C   0  0  0  0  0  0  0  0  0  0  0  0
   10.9901   14.6314   21.5697 C   0  0  1  0  0  0  0  0  0  0  0  0
   10.8189   15.0030   20.0958 C   0  0  0  0  0  0  0  0  0  0  0  0
    9.7594   15.9912   20.0603 O   0  0  0  0  0  0  0  0  0  0  0  0
    9.3770   16.2903   21.4415 C   0  0  2  0  0  0  0  0  0  0  0  0
   10.6471   15.9541   22.2029 C   0  0  0  0  0  0  0  0  0  0  0  0
    6.3129   14.1073   24.6911 C   0  0  0  0  0  0  0  0  0  0  0  0
    7.1037   12.7746   24.6417 C   0  0  0  0  0  0  0  0  0  0  0  0
    7.6666   12.2554   25.9468 C   0  0  0  0  0  0  0  0  0  0  0  0
    8.1782   13.3593   26.7581 N   0  0  0  0  0  0  0  0  0  0  0  0
    9.5858   14.1811   26.3390 S   0  0  0  0  0  0  0  0  0  0  0  0
    9.7636   15.1552   27.3884 O   0  0  0  0  0  0  0  0  0  0  0  0
    9.5216   14.6205   24.9753 O   0  0  0  0  0  0  0  0  0  0  0  0
   10.8698   13.0562   26.4703 N   0  0  0  0  0  0  0  0  0  0  0  0
   12.0457   13.7504   27.0922 C   0  0  0  0  0  0  0  0  0  0  0  0
   13.4011   13.1470   26.7208 C   0  0  0  0  0  0  0  0  0  0  0  0
   13.3086   11.6813   26.6417 C   0  0  0  0  0  0  0  0  0  0  0  0
   12.4047   11.3772   25.4611 C   0  0  0  0  0  0  0  0  0  0  0  0
   11.2510   12.3656   25.2151 C   0  0  0  0  0  0  0  0  0  0  0  0
    7.0476   14.2760   27.1041 C   0  0  0  0  0  0  0  0  0  0  0  0
    6.5990   15.0385   25.8670 C   0  0  0  0  0  0  0  0  0  0  0  0
  1  2  2  0
  2  3  1  0
  4  3  1  1
  4  5  1  0
  5  6  1  0
  7  6  1  1
  7  8  1  0
  8  9  1  0
 10  9  1  6
 10 11  1  0
  2 12  1  0
 12 13  1  0
 13 14  1  0
 14 15  1  0
 15 16  1  0
 16 17  2  0
 16 18  2  0
 16 19  1  0
 19 20  1  0
 20 21  1  0
 21 22  1  0
 22 23  1  0
 23 24  1  0
 15 25  1  0
 25 26  1  0
 10  4  1  0
 26 12  1  0
 11  7  1  0
 24 19  1  0
M  END
>  <energy_score>  (2356) 
-36.54632

>  <inchikey>  (2356) 
None

>  <smiles>  (2356) 
None

>  <ref_pdb>  (2356) 
A4706a

>  <alias>  (2356) 
None

>  <HIPPO Pose ID>  (2356) 
500000

>  <name>  (2356) 
P500000

>  <HIPPO Compound ID>  (2356) 
314483

>  <ref_mols>  (2356) 
A4706a,A0875a

>  <distance_score>  (2356) 
1.751959

>  <inspiration_score>  (2356) 
None

$$$$
P500001
     RDKit          3D

 26 29  0  0  0  0  0  0  0  0999 V2000
    6.7622   14.3107   21.6838 O   0  0  0  0  0  0  0  0  0  0  0  0
    7.0735   14.8692   22.7319 C   0  0  0  0  0  0  0  0  0  0  0  0
    8.1239   15.7054   22.9089 O   0  0  0  0  0  0  0  0  0  0  0  0
    9.1599   16.0713   21.9288 C   0  0  1  0  0  0  0  0  0  0  0  0
   10.5799   16.1054   22.5961 C   0  0  0  0  0  0  0  0  0  0  0  0
   11.4926   14.8893   22.5124 C   0  0  0  0  0  0  0  0  0  0  0  0
   11.2162   14.0604   21.2902 C   0  0  2  0  0  0  0  0  0  0  0  0
   11.4299   14.8217   19.9963 C   0  0  0  0  0  0  0  0  0  0  0  0
   10.2612   15.6339   19.8102 O   0  0  0  0  0  0  0  0  0  0  0  0
    9.2579   15.1704   20.7329 C   0  0  1  0  0  0  0  0  0  0  0  0
    9.7393   13.8463   21.2281 C   0  0  0  0  0  0  0  0  0  0  0  0
    6.3031   14.5519   24.0317 C   0  0  0  0  0  0  0  0  0  0  0  0
    6.6231   13.0786   24.4055 C   0  0  0  0  0  0  0  0  0  0  0  0
    6.8920   12.7779   25.8727 C   0  0  0  0  0  0  0  0  0  0  0  0
    7.5957   13.8933   26.5375 N   0  0  0  0  0  0  0  0  0  0  0  0
    9.1565   14.3566   26.0705 S   0  0  0  0  0  0  0  0  0  0  0  0
    9.5203   15.5157   26.8472 O   0  0  0  0  0  0  0  0  0  0  0  0
    9.2514   14.3794   24.6390 O   0  0  0  0  0  0  0  0  0  0  0  0
   10.1883   13.1058   26.5313 N   0  0  0  0  0  0  0  0  0  0  0  0
    9.9831   11.8965   25.7269 C   0  0  0  0  0  0  0  0  0  0  0  0
   11.1628   11.4044   24.9605 C   0  0  0  0  0  0  0  0  0  0  0  0
   12.5758   11.8089   25.3503 C   0  0  0  0  0  0  0  0  0  0  0  0
   12.6525   12.5774   26.6350 C   0  0  0  0  0  0  0  0  0  0  0  0
   11.5797   13.6385   26.6434 C   0  0  0  0  0  0  0  0  0  0  0  0
    6.6456   15.0417   26.5630 C   0  0  0  0  0  0  0  0  0  0  0  0
    6.4419   15.5965   25.1570 C   0  0  0  0  0  0  0  0  0  0  0  0
  1  2  2  0
  2  3  1  0
  4  3  1  1
  4  5  1  0
  5  6  1  0
  7  6  1  1
  7  8  1  0
  8  9  1  0
 10  9  1  6
 10 11  1  0
  2 12  1  0
 12 13  1  0
 13 14  1  0
 14 15  1  0
 15 16  1  0
 16 17  2  0
 16 18  2  0
 16 19  1  0
 19 20  1  0
 20 21  1  0
 21 22  1  0
 22 23  1  0
 23 24  1  0
 15 25  1  0
 25 26  1  0
 10  4  1  0
 26 12  1  0
 11  7  1  0
 24 19  1  0
M  END
>  <energy_score>  (2357) 
-26.928636

>  <inchikey>  (2357) 
None

>  <smiles>  (2357) 
None

>  <ref_pdb>  (2357) 
A4706a

>  <alias>  (2357) 
None

>  <HIPPO Pose ID>  (2357) 
500001

>  <name>  (2357) 
P500001

>  <HIPPO Compound ID>  (2357) 
314483

>  <ref_mols>  (2357) 
A0875a,A4706a

>  <distance_score>  (2357) 
1.823398

>  <inspiration_score>  (2357) 
None

$$$$
P500002
     RDKit          3D

 26 29  0  0  0  0  0  0  0  0999 V2000
    6.8500   13.3250   22.1536 O   0  0  0  0  0  0  0  0  0  0  0  0
    6.9346   14.3228   22.8710 C   0  0  0  0  0  0  0  0  0  0  0  0
    7.8189   15.3298   22.6737 O   0  0  0  0  0  0  0  0  0  0  0  0
    8.5981   15.3003   21.4569 C   0  0  1  0  0  0  0  0  0  0  0  0
    9.3361   16.6252   21.2639 C   0  0  0  0  0  0  0  0  0  0  0  0
   10.7620   16.5285   21.8283 C   0  0  0  0  0  0  0  0  0  0  0  0
   11.5642   15.3265   21.3410 C   0  0  2  0  0  0  0  0  0  0  0  0
   11.3211   14.9511   19.8836 C   0  0  0  0  0  0  0  0  0  0  0  0
   10.0461   14.2963   19.8773 O   0  0  0  0  0  0  0  0  0  0  0  0
    9.6065   14.1555   21.2511 C   0  0  1  0  0  0  0  0  0  0  0  0
   10.9104   14.1637   22.0178 C   0  0  0  0  0  0  0  0  0  0  0  0
    5.9897   14.5102   24.0740 C   0  0  0  0  0  0  0  0  0  0  0  0
    5.7566   13.1334   24.7132 C   0  0  0  0  0  0  0  0  0  0  0  0
    7.0402   12.6337   25.3624 C   0  0  0  0  0  0  0  0  0  0  0  0
    7.6648   13.6364   26.2649 N   0  0  0  0  0  0  0  0  0  0  0  0
    9.2305   14.1835   25.9738 S   0  0  0  0  0  0  0  0  0  0  0  0
    9.6022   15.0236   27.0876 O   0  0  0  0  0  0  0  0  0  0  0  0
    9.2903   14.7264   24.6454 O   0  0  0  0  0  0  0  0  0  0  0  0
   10.2986   12.8828   26.0027 N   0  0  0  0  0  0  0  0  0  0  0  0
   11.6937   13.4463   25.9557 C   0  0  0  0  0  0  0  0  0  0  0  0
   12.6334   12.6596   25.0679 C   0  0  0  0  0  0  0  0  0  0  0  0
   12.4976   11.2108   25.4427 C   0  0  0  0  0  0  0  0  0  0  0  0
   11.0747   10.6846   25.1630 C   0  0  0  0  0  0  0  0  0  0  0  0
   10.0482   11.7864   25.0512 C   0  0  0  0  0  0  0  0  0  0  0  0
    6.7419   14.7905   26.5112 C   0  0  0  0  0  0  0  0  0  0  0  0
    6.3898   15.4905   25.1870 C   0  0  0  0  0  0  0  0  0  0  0  0
  1  2  2  0
  2  3  1  0
  4  3  1  1
  4  5  1  0
  5  6  1  0
  7  6  1  1
  7  8  1  0
  8  9  1  0
 10  9  1  6
 10 11  1  0
  2 12  1  0
 12 13  1  0
 13 14  1  0
 14 15  1  0
 15 16  1  0
 16 17  2  0
 16 18  2  0
 16 19  1  0
 19 20  1  0
 20 21  1  0
 21 22  1  0
 22 23  1  0
 23 24  1  0
 15 25  1  0
 25 26  1  0
 10  4  1  0
 26 12  1  0
 11  7  1  0
 24 19  1  0
M  END
>  <energy_score>  (2358) 
-36.976433

>  <inchikey>  (2358) 
None

>  <smiles>  (2358) 
None

>  <ref_pdb>  (2358) 
A4706a

>  <alias>  (2358) 
None

>  <HIPPO Pose ID>  (2358) 
500002

>  <name>  (2358) 
P500002

>  <HIPPO Compound ID>  (2358) 
314483

>  <ref_mols>  (2358) 
A4706a,A0875a

>  <distance_score>  (2358) 
1.684524

>  <inspiration_score>  (2358) 
None

$$$$
P500003
     RDKit          3D

 26 27  0  0  0  0  0  0  0  0999 V2000
   11.3849   14.5315   19.7274 C   0  0  0  0  0  0  0  0  0  0  0  0
   10.9831   15.1790   21.0301 C   0  0  0  0  0  0  0  0  0  0  0  0
   12.1135   15.7045   21.8398 C   0  0  0  0  0  0  0  0  0  0  0  0
   10.3575   14.3187   21.9570 O   0  0  0  0  0  0  0  0  0  0  0  0
    8.9682   14.2183   21.8308 C   0  0  0  0  0  0  0  0  0  0  0  0
    8.1181   15.4229   22.3044 C   0  0  1  0  0  0  0  0  0  0  0  0
    8.0471   16.5120   21.2519 C   0  0  0  0  0  0  0  0  0  0  0  0
    8.9863   17.9777   21.0938 Cl  0  0  0  0  0  0  0  0  0  0  0  0
    6.6938   15.0035   22.3638 O   0  0  0  0  0  0  0  0  0  0  0  0
    6.3148   13.8616   22.9651 C   0  0  0  0  0  0  0  0  0  0  0  0
    5.7558   12.9754   22.3386 O   0  0  0  0  0  0  0  0  0  0  0  0
    6.7299   13.7479   24.3941 C   0  0  0  0  0  0  0  0  0  0  0  0
    6.5133   12.3979   25.0703 C   0  0  0  0  0  0  0  0  0  0  0  0
    7.2970   12.3423   26.3873 C   0  0  0  0  0  0  0  0  0  0  0  0
    7.7845   13.6801   26.7821 N   0  0  0  0  0  0  0  0  0  0  0  0
    9.2916   14.3398   26.4164 S   0  0  0  0  0  0  0  0  0  0  0  0
    9.7674   14.9150   27.6481 O   0  0  0  0  0  0  0  0  0  0  0  0
    9.2058   15.1726   25.2427 O   0  0  0  0  0  0  0  0  0  0  0  0
   10.3470   13.1125   26.0171 N   0  0  0  0  0  0  0  0  0  0  0  0
   11.7520   13.6561   26.0029 C   0  0  0  0  0  0  0  0  0  0  0  0
   12.6958   12.7807   25.1826 C   0  0  0  0  0  0  0  0  0  0  0  0
   12.3296   11.3363   25.4425 C   0  0  0  0  0  0  0  0  0  0  0  0
   10.8551   11.0293   25.0427 C   0  0  0  0  0  0  0  0  0  0  0  0
   10.1109   12.3243   24.7983 C   0  0  0  0  0  0  0  0  0  0  0  0
    6.6776   14.6768   26.7436 C   0  0  0  0  0  0  0  0  0  0  0  0
    6.2198   14.8754   25.2927 C   0  0  0  0  0  0  0  0  0  0  0  0
  1  2  1  0
  2  3  1  0
  2  4  1  0
  4  5  1  0
  6  5  1  6
  6  7  1  0
  7  8  1  0
  6  9  1  0
  9 10  1  0
 10 11  2  0
 10 12  1  0
 12 13  1  0
 13 14  1  0
 14 15  1  0
 15 16  1  0
 16 17  2  0
 16 18  2  0
 16 19  1  0
 19 20  1  0
 20 21  1  0
 21 22  1  0
 22 23  1  0
 23 24  1  0
 15 25  1  0
 25 26  1  0
 26 12  1  0
 24 19  1  0
M  END
>  <energy_score>  (2359) 
-4.405739

>  <inchikey>  (2359) 
None

>  <smiles>  (2359) 
None

>  <ref_pdb>  (2359) 
A4706a

>  <alias>  (2359) 
None

>  <HIPPO Pose ID>  (2359) 
500003

>  <name>  (2359) 
P500003

>  <HIPPO Compound ID>  (2359) 
314484

>  <ref_mols>  (2359) 
A4706a,A0875a

>  <distance_score>  (2359) 
1.801414

>  <inspiration_score>  (2359) 
None

$$$$
P500004
     RDKit          3D

 26 28  0  0  0  0  0  0  0  0999 V2000
   11.1104   14.8899   18.3529 C   0  0  0  0  0  0  0  0  0  0  0  0
    9.9713   14.8147   19.1938 O   0  0  0  0  0  0  0  0  0  0  0  0
   10.2194   15.3674   20.4503 C   0  0  2  0  0  0  0  0  0  0  0  0
   11.4268   14.7031   21.1319 C   0  0  0  0  0  0  0  0  0  0  0  0
   10.9465   14.4341   22.5271 C   0  0  1  0  0  0  0  0  0  0  0  0
   12.0352   14.4374   23.4716 N   0  0  0  0  0  0  0  0  0  0  0  0
    9.9152   15.5338   22.6972 C   0  0  0  0  0  0  0  0  0  0  0  0
    9.0531   15.3376   21.4745 C   0  0  2  0  0  0  0  0  0  0  0  0
    8.3268   14.0745   21.4647 O   0  0  0  0  0  0  0  0  0  0  0  0
    7.3531   13.6956   22.3311 C   0  0  0  0  0  0  0  0  0  0  0  0
    6.2557   13.3221   21.9267 O   0  0  0  0  0  0  0  0  0  0  0  0
    7.6719   13.6301   23.8054 C   0  0  0  0  0  0  0  0  0  0  0  0
    7.3321   12.2581   24.4239 C   0  0  0  0  0  0  0  0  0  0  0  0
    7.6600   12.1898   25.9164 C   0  0  0  0  0  0  0  0  0  0  0  0
    8.2036   13.4665   26.3699 N   0  0  0  0  0  0  0  0  0  0  0  0
    9.8036   13.8982   26.5023 S   0  0  0  0  0  0  0  0  0  0  0  0
    9.9506   14.3611   27.8602 O   0  0  0  0  0  0  0  0  0  0  0  0
   10.1503   14.8186   25.4497 O   0  0  0  0  0  0  0  0  0  0  0  0
   10.8113   12.5583   26.3346 N   0  0  0  0  0  0  0  0  0  0  0  0
   12.2023   12.8640   26.8355 C   0  0  0  0  0  0  0  0  0  0  0  0
   13.3242   12.4949   25.8971 C   0  0  0  0  0  0  0  0  0  0  0  0
   13.2184   11.0841   25.3549 C   0  0  0  0  0  0  0  0  0  0  0  0
   11.7617   10.5740   25.2649 C   0  0  0  0  0  0  0  0  0  0  0  0
   10.7960   11.7402   25.1007 C   0  0  0  0  0  0  0  0  0  0  0  0
    7.2538   14.5839   26.1283 C   0  0  0  0  0  0  0  0  0  0  0  0
    6.9713   14.7177   24.6252 C   0  0  0  0  0  0  0  0  0  0  0  0
  1  2  1  0
  3  2  1  6
  3  4  1  0
  4  5  1  0
  5  6  1  1
  5  7  1  0
  7  8  1  0
  8  9  1  1
  9 10  1  0
 10 11  2  0
 10 12  1  0
 12 13  1  0
 13 14  1  0
 14 15  1  0
 15 16  1  0
 16 17  2  0
 16 18  2  0
 16 19  1  0
 19 20  1  0
 20 21  1  0
 21 22  1  0
 22 23  1  0
 23 24  1  0
 15 25  1  0
 25 26  1  0
  8  3  1  0
 26 12  1  0
 24 19  1  0
M  END
>  <energy_score>  (2360) 
-6.656126

>  <inchikey>  (2360) 
None

>  <smiles>  (2360) 
None

>  <ref_pdb>  (2360) 
A4706a

>  <alias>  (2360) 
None

>  <HIPPO Pose ID>  (2360) 
500004

>  <name>  (2360) 
P500004

>  <HIPPO Compound ID>  (2360) 
314485

>  <ref_mols>  (2360) 
A4706a,A0875a

>  <distance_score>  (2360) 
1.232655

>  <inspiration_score>  (2360) 
None

$$$$
P500005
     RDKit          3D

 26 28  0  0  0  0  0  0  0  0999 V2000
    9.8046   15.2168   18.6149 C   0  0  0  0  0  0  0  0  0  0  0  0
    9.1582   14.9125   19.8488 O   0  0  0  0  0  0  0  0  0  0  0  0
   10.1306   14.7463   20.8269 C   0  0  1  0  0  0  0  0  0  0  0  0
   10.3058   16.0362   21.5732 C   0  0  0  0  0  0  0  0  0  0  0  0
   11.3637   15.6181   22.5536 C   0  0  2  0  0  0  0  0  0  0  0  0
   12.6794   15.7665   21.9646 N   0  0  0  0  0  0  0  0  0  0  0  0
   11.1085   14.1358   22.8072 C   0  0  0  0  0  0  0  0  0  0  0  0
    9.8650   13.7936   21.9866 C   0  0  1  0  0  0  0  0  0  0  0  0
    8.6131   14.0761   22.6542 O   0  0  0  0  0  0  0  0  0  0  0  0
    8.0735   13.0406   23.3354 C   0  0  0  0  0  0  0  0  0  0  0  0
    8.5547   11.9086   23.3450 O   0  0  0  0  0  0  0  0  0  0  0  0
    6.7435   13.3381   24.0288 C   0  0  0  0  0  0  0  0  0  0  0  0
    6.4844   12.2157   25.0495 C   0  0  0  0  0  0  0  0  0  0  0  0
    7.5139   12.2243   26.1753 C   0  0  0  0  0  0  0  0  0  0  0  0
    7.8751   13.5860   26.5759 N   0  0  0  0  0  0  0  0  0  0  0  0
    9.3970   14.2639   26.4521 S   0  0  0  0  0  0  0  0  0  0  0  0
    9.5531   14.8134   25.1320 O   0  0  0  0  0  0  0  0  0  0  0  0
    9.4769   15.1605   27.5794 O   0  0  0  0  0  0  0  0  0  0  0  0
   10.5924   13.0582   26.6895 N   0  0  0  0  0  0  0  0  0  0  0  0
   10.8327   12.1184   25.5723 C   0  0  0  0  0  0  0  0  0  0  0  0
   12.2799   11.7935   25.2190 C   0  0  0  0  0  0  0  0  0  0  0  0
   13.4427   12.3920   25.9590 C   0  0  0  0  0  0  0  0  0  0  0  0
   13.0273   12.8307   27.3252 C   0  0  0  0  0  0  0  0  0  0  0  0
   11.8086   13.7283   27.2320 C   0  0  0  0  0  0  0  0  0  0  0  0
    6.8019   14.5735   26.2677 C   0  0  0  0  0  0  0  0  0  0  0  0
    6.6177   14.6898   24.7465 C   0  0  0  0  0  0  0  0  0  0  0  0
  1  2  1  0
  3  2  1  6
  3  4  1  0
  4  5  1  0
  5  6  1  6
  5  7  1  0
  7  8  1  0
  8  9  1  1
  9 10  1  0
 10 11  2  0
 10 12  1  0
 12 13  1  0
 13 14  1  0
 14 15  1  0
 15 16  1  0
 16 17  2  0
 16 18  2  0
 16 19  1  0
 19 20  1  0
 20 21  1  0
 21 22  1  0
 22 23  1  0
 23 24  1  0
 15 25  1  0
 25 26  1  0
  8  3  1  0
 26 12  1  0
 24 19  1  0
M  END
>  <energy_score>  (2361) 
-35.618317

>  <inchikey>  (2361) 
None

>  <smiles>  (2361) 
None

>  <ref_pdb>  (2361) 
A4706a

>  <alias>  (2361) 
None

>  <HIPPO Pose ID>  (2361) 
500005

>  <name>  (2361) 
P500005

>  <HIPPO Compound ID>  (2361) 
314485

>  <ref_mols>  (2361) 
A4706a,A0875a

>  <distance_score>  (2361) 
1.696443

>  <inspiration_score>  (2361) 
None

$$$$
P500006
     RDKit          3D

 26 28  0  0  0  0  0  0  0  0999 V2000
   10.3987   15.0244   18.7404 C   0  0  0  0  0  0  0  0  0  0  0  0
    9.8393   15.9991   19.6029 O   0  0  0  0  0  0  0  0  0  0  0  0
    9.9628   15.7473   20.9970 C   0  0  2  0  0  0  0  0  0  0  0  0
   11.4000   15.4080   21.4031 C   0  0  0  0  0  0  0  0  0  0  0  0
   11.2326   14.5795   22.6501 C   0  0  1  0  0  0  0  0  0  0  0  0
   11.0415   15.4538   23.7820 N   0  0  0  0  0  0  0  0  0  0  0  0
    9.9926   13.7439   22.3832 C   0  0  0  0  0  0  0  0  0  0  0  0
    9.0694   14.5916   21.5088 C   0  0  1  0  0  0  0  0  0  0  0  0
    7.9386   15.0578   22.2973 O   0  0  0  0  0  0  0  0  0  0  0  0
    7.0231   14.0942   22.5954 C   0  0  0  0  0  0  0  0  0  0  0  0
    7.0975   12.9370   22.1869 O   0  0  0  0  0  0  0  0  0  0  0  0
    5.8643   14.5071   23.4911 C   0  0  0  0  0  0  0  0  0  0  0  0
    5.6150   13.3904   24.5341 C   0  0  0  0  0  0  0  0  0  0  0  0
    6.7006   13.2952   25.6150 C   0  0  0  0  0  0  0  0  0  0  0  0
    7.6421   14.4375   25.4437 N   0  0  0  0  0  0  0  0  0  0  0  0
    8.9762   14.5333   26.4426 S   0  0  0  0  0  0  0  0  0  0  0  0
    9.5660   15.8315   26.2400 O   0  0  0  0  0  0  0  0  0  0  0  0
    8.5687   14.1259   27.7567 O   0  0  0  0  0  0  0  0  0  0  0  0
   10.1637   13.4758   25.8797 N   0  0  0  0  0  0  0  0  0  0  0  0
    9.8052   12.0796   25.6848 C   0  0  0  0  0  0  0  0  0  0  0  0
   10.9174   11.3241   25.0003 C   0  0  0  0  0  0  0  0  0  0  0  0
   12.3319   11.8697   25.1973 C   0  0  0  0  0  0  0  0  0  0  0  0
   12.5030   12.6460   26.4683 C   0  0  0  0  0  0  0  0  0  0  0  0
   11.4238   13.6909   26.6724 C   0  0  0  0  0  0  0  0  0  0  0  0
    6.8203   15.6911   25.5080 C   0  0  0  0  0  0  0  0  0  0  0  0
    6.0436   15.8370   24.2089 C   0  0  0  0  0  0  0  0  0  0  0  0
  1  2  1  0
  3  2  1  6
  3  4  1  0
  4  5  1  0
  5  6  1  1
  5  7  1  0
  7  8  1  0
  8  9  1  1
  9 10  1  0
 10 11  2  0
 10 12  1  0
 12 13  1  0
 13 14  1  0
 14 15  1  0
 15 16  1  0
 16 17  2  0
 16 18  2  0
 16 19  1  0
 19 20  1  0
 20 21  1  0
 21 22  1  0
 22 23  1  0
 23 24  1  0
 15 25  1  0
 25 26  1  0
  8  3  1  0
 26 12  1  0
 24 19  1  0
M  END
>  <energy_score>  (2362) 
-44.775609

>  <inchikey>  (2362) 
None

>  <smiles>  (2362) 
None

>  <ref_pdb>  (2362) 
A4706a

>  <alias>  (2362) 
None

>  <HIPPO Pose ID>  (2362) 
500006

>  <name>  (2362) 
P500006

>  <HIPPO Compound ID>  (2362) 
314485

>  <ref_mols>  (2362) 
A0875a,A4706a

>  <distance_score>  (2362) 
1.793233

>  <inspiration_score>  (2362) 
None

$$$$
P500007
     RDKit          3D

 26 28  0  0  0  0  0  0  0  0999 V2000
   10.8982   14.5901   18.6008 C   0  0  0  0  0  0  0  0  0  0  0  0
    9.8731   15.1080   19.4156 O   0  0  0  0  0  0  0  0  0  0  0  0
    9.6387   14.4740   20.6896 C   0  0  1  0  0  0  0  0  0  0  0  0
   10.8691   14.5881   21.5580 C   0  0  0  0  0  0  0  0  0  0  0  0
   10.7983   16.0268   22.0565 C   0  0  2  0  0  0  0  0  0  0  0  0
   10.9224   15.9491   23.5021 N   0  0  0  0  0  0  0  0  0  0  0  0
    9.4545   16.5840   21.5225 C   0  0  0  0  0  0  0  0  0  0  0  0
    8.5821   15.3510   21.3850 C   0  0  2  0  0  0  0  0  0  0  0  0
    8.0203   15.0517   22.6866 O   0  0  0  0  0  0  0  0  0  0  0  0
    7.1892   13.9958   22.8360 C   0  0  0  0  0  0  0  0  0  0  0  0
    7.0513   13.1105   21.9975 O   0  0  0  0  0  0  0  0  0  0  0  0
    6.3429   13.9943   24.1276 C   0  0  0  0  0  0  0  0  0  0  0  0
    6.2701   12.5871   24.7548 C   0  0  0  0  0  0  0  0  0  0  0  0
    7.4821   12.1715   25.5834 C   0  0  0  0  0  0  0  0  0  0  0  0
    8.0094   13.3027   26.3740 N   0  0  0  0  0  0  0  0  0  0  0  0
    9.4765   13.9465   25.8780 S   0  0  0  0  0  0  0  0  0  0  0  0
    9.6729   15.1392   26.6552 O   0  0  0  0  0  0  0  0  0  0  0  0
    9.4669   14.0004   24.4439 O   0  0  0  0  0  0  0  0  0  0  0  0
   10.6496   12.8066   26.3259 N   0  0  0  0  0  0  0  0  0  0  0  0
   11.7675   13.4789   27.0848 C   0  0  0  0  0  0  0  0  0  0  0  0
   13.0548   12.6514   27.1049 C   0  0  0  0  0  0  0  0  0  0  0  0
   13.5370   12.2868   25.7070 C   0  0  0  0  0  0  0  0  0  0  0  0
   12.4456   12.5939   24.6983 C   0  0  0  0  0  0  0  0  0  0  0  0
   11.1367   11.9962   25.1711 C   0  0  0  0  0  0  0  0  0  0  0  0
    6.9743   14.3693   26.5679 C   0  0  0  0  0  0  0  0  0  0  0  0
    6.6384   15.0297   25.2220 C   0  0  0  0  0  0  0  0  0  0  0  0
  1  2  1  0
  3  2  1  6
  3  4  1  0
  4  5  1  0
  5  6  1  1
  5  7  1  0
  7  8  1  0
  8  9  1  1
  9 10  1  0
 10 11  2  0
 10 12  1  0
 12 13  1  0
 13 14  1  0
 14 15  1  0
 15 16  1  0
 16 17  2  0
 16 18  2  0
 16 19  1  0
 19 20  1  0
 20 21  1  0
 21 22  1  0
 22 23  1  0
 23 24  1  0
 15 25  1  0
 25 26  1  0
  8  3  1  0
 26 12  1  0
 24 19  1  0
M  END
>  <energy_score>  (2363) 
-44.055818

>  <inchikey>  (2363) 
None

>  <smiles>  (2363) 
None

>  <ref_pdb>  (2363) 
A4706a

>  <alias>  (2363) 
None

>  <HIPPO Pose ID>  (2363) 
500007

>  <name>  (2363) 
P500007

>  <HIPPO Compound ID>  (2363) 
314485

>  <ref_mols>  (2363) 
A4706a,A0875a

>  <distance_score>  (2363) 
1.531886

>  <inspiration_score>  (2363) 
None

$$$$
P500008
     RDKit          3D

 26 28  0  0  0  0  0  0  0  0999 V2000
   10.6827   15.4966   18.8969 C   0  0  0  0  0  0  0  0  0  0  0  0
    9.8026   16.3410   19.6263 O   0  0  0  0  0  0  0  0  0  0  0  0
    9.6014   16.1681   21.0461 C   0  0  2  0  0  0  0  0  0  0  0  0
   10.8710   15.8081   21.8173 C   0  0  0  0  0  0  0  0  0  0  0  0
   11.0002   14.3270   21.5441 C   0  0  1  0  0  0  0  0  0  0  0  0
   11.6616   13.5859   22.5845 N   0  0  0  0  0  0  0  0  0  0  0  0
    9.5689   13.8294   21.3780 C   0  0  0  0  0  0  0  0  0  0  0  0
    8.6295   15.0179   21.3671 C   0  0  1  0  0  0  0  0  0  0  0  0
    7.9565   15.0792   22.6510 O   0  0  0  0  0  0  0  0  0  0  0  0
    7.0579   14.0699   22.8575 C   0  0  0  0  0  0  0  0  0  0  0  0
    6.6189   13.3414   21.9659 O   0  0  0  0  0  0  0  0  0  0  0  0
    6.6771   13.7845   24.3118 C   0  0  0  0  0  0  0  0  0  0  0  0
    7.3098   12.4043   24.6587 C   0  0  0  0  0  0  0  0  0  0  0  0
    7.9375   12.2106   26.0307 C   0  0  0  0  0  0  0  0  0  0  0  0
    8.4583   13.4716   26.5840 N   0  0  0  0  0  0  0  0  0  0  0  0
    9.8673   14.1061   25.9073 S   0  0  0  0  0  0  0  0  0  0  0  0
    9.7256   14.0306   24.4766 O   0  0  0  0  0  0  0  0  0  0  0  0
   10.1183   15.3697   26.5514 O   0  0  0  0  0  0  0  0  0  0  0  0
   11.1014   12.9772   26.3784 N   0  0  0  0  0  0  0  0  0  0  0  0
   11.9969   13.5847   27.4046 C   0  0  0  0  0  0  0  0  0  0  0  0
   13.2526   12.7467   27.6857 C   0  0  0  0  0  0  0  0  0  0  0  0
   13.9899   12.2295   26.4644 C   0  0  0  0  0  0  0  0  0  0  0  0
   13.0312   11.6357   25.4683 C   0  0  0  0  0  0  0  0  0  0  0  0
   11.8942   12.5773   25.1886 C   0  0  0  0  0  0  0  0  0  0  0  0
    7.3407   14.4541   26.6842 C   0  0  0  0  0  0  0  0  0  0  0  0
    6.9254   14.9295   25.2985 C   0  0  0  0  0  0  0  0  0  0  0  0
  1  2  1  0
  3  2  1  6
  3  4  1  0
  4  5  1  0
  5  6  1  1
  5  7  1  0
  7  8  1  0
  8  9  1  1
  9 10  1  0
 10 11  2  0
 10 12  1  0
 12 13  1  0
 13 14  1  0
 14 15  1  0
 15 16  1  0
 16 17  2  0
 16 18  2  0
 16 19  1  0
 19 20  1  0
 20 21  1  0
 21 22  1  0
 22 23  1  0
 23 24  1  0
 15 25  1  0
 25 26  1  0
  8  3  1  0
 26 12  1  0
 24 19  1  0
M  END
>  <energy_score>  (2364) 
-33.857459

>  <inchikey>  (2364) 
None

>  <smiles>  (2364) 
None

>  <ref_pdb>  (2364) 
A4706a

>  <alias>  (2364) 
None

>  <HIPPO Pose ID>  (2364) 
500008

>  <name>  (2364) 
P500008

>  <HIPPO Compound ID>  (2364) 
314485

>  <ref_mols>  (2364) 
A4706a,A0875a

>  <distance_score>  (2364) 
1.626409

>  <inspiration_score>  (2364) 
None

$$$$
P500009
     RDKit          3D

 26 28  0  0  0  0  0  0  0  0999 V2000
   11.1110   14.8849   18.5540 C   0  0  0  0  0  0  0  0  0  0  0  0
   10.3805   15.6561   19.4866 O   0  0  0  0  0  0  0  0  0  0  0  0
    9.7813   14.9114   20.5447 C   0  0  1  0  0  0  0  0  0  0  0  0
   10.7710   14.0603   21.3210 C   0  0  0  0  0  0  0  0  0  0  0  0
   11.5912   15.0388   22.0968 C   0  0  2  0  0  0  0  0  0  0  0  0
   12.0616   14.4099   23.3260 N   0  0  0  0  0  0  0  0  0  0  0  0
   10.6637   16.2186   22.2850 C   0  0  0  0  0  0  0  0  0  0  0  0
    9.3236   15.9229   21.5795 C   0  0  2  0  0  0  0  0  0  0  0  0
    8.4452   15.4550   22.6247 O   0  0  0  0  0  0  0  0  0  0  0  0
    7.4250   14.5596   22.5730 C   0  0  0  0  0  0  0  0  0  0  0  0
    6.8744   14.0929   21.5941 O   0  0  0  0  0  0  0  0  0  0  0  0
    7.1738   14.1725   24.0169 C   0  0  0  0  0  0  0  0  0  0  0  0
    6.6470   12.8219   24.4696 C   0  0  0  0  0  0  0  0  0  0  0  0
    7.1908   12.5004   25.8807 C   0  0  0  0  0  0  0  0  0  0  0  0
    7.9087   13.6570   26.4759 N   0  0  0  0  0  0  0  0  0  0  0  0
    9.5659   13.9748   26.3036 S   0  0  0  0  0  0  0  0  0  0  0  0
   10.0431   14.3341   27.6094 O   0  0  0  0  0  0  0  0  0  0  0  0
    9.8246   14.9100   25.2410 O   0  0  0  0  0  0  0  0  0  0  0  0
   10.3106   12.5342   25.8726 N   0  0  0  0  0  0  0  0  0  0  0  0
   11.7734   12.5726   26.1733 C   0  0  0  0  0  0  0  0  0  0  0  0
   12.5073   11.4072   25.5213 C   0  0  0  0  0  0  0  0  0  0  0  0
   11.6045   10.1770   25.2346 C   0  0  0  0  0  0  0  0  0  0  0  0
   10.2555   10.4999   24.6030 C   0  0  0  0  0  0  0  0  0  0  0  0
   10.0850   11.9969   24.5092 C   0  0  0  0  0  0  0  0  0  0  0  0
    7.0484   14.8774   26.4416 C   0  0  0  0  0  0  0  0  0  0  0  0
    6.7211   15.2605   24.9862 C   0  0  0  0  0  0  0  0  0  0  0  0
  1  2  1  0
  3  2  1  6
  3  4  1  0
  4  5  1  0
  5  6  1  1
  5  7  1  0
  7  8  1  0
  8  9  1  1
  9 10  1  0
 10 11  2  0
 10 12  1  0
 12 13  1  0
 13 14  1  0
 14 15  1  0
 15 16  1  0
 16 17  2  0
 16 18  2  0
 16 19  1  0
 19 20  1  0
 20 21  1  0
 21 22  1  0
 22 23  1  0
 23 24  1  0
 15 25  1  0
 25 26  1  0
  8  3  1  0
 26 12  1  0
 24 19  1  0
M  END
>  <energy_score>  (2365) 
-18.441152

>  <inchikey>  (2365) 
None

>  <smiles>  (2365) 
None

>  <ref_pdb>  (2365) 
A4706a

>  <alias>  (2365) 
None

>  <HIPPO Pose ID>  (2365) 
500009

>  <name>  (2365) 
P500009

>  <HIPPO Compound ID>  (2365) 
314485

>  <ref_mols>  (2365) 
A4706a,A0875a

>  <distance_score>  (2365) 
1.84121

>  <inspiration_score>  (2365) 
None

$$$$
P500010
     RDKit          3D

 26 28  0  0  0  0  0  0  0  0999 V2000
   10.7004   15.2494   19.1137 C   0  0  0  0  0  0  0  0  0  0  0  0
    9.7716   16.1524   19.6884 O   0  0  0  0  0  0  0  0  0  0  0  0
    9.4515   16.0833   21.0904 C   0  0  2  0  0  0  0  0  0  0  0  0
   10.6619   15.8634   21.9925 C   0  0  0  0  0  0  0  0  0  0  0  0
   10.7013   14.3781   22.2820 C   0  0  2  0  0  0  0  0  0  0  0  0
   11.8386   13.6868   21.7197 N   0  0  0  0  0  0  0  0  0  0  0  0
    9.3913   13.8048   21.7750 C   0  0  0  0  0  0  0  0  0  0  0  0
    8.4618   14.9576   21.4444 C   0  0  1  0  0  0  0  0  0  0  0  0
    7.6040   15.2290   22.5725 O   0  0  0  0  0  0  0  0  0  0  0  0
    6.6828   14.2574   22.8204 C   0  0  0  0  0  0  0  0  0  0  0  0
    6.4179   13.3453   22.0333 O   0  0  0  0  0  0  0  0  0  0  0  0
    6.0433   14.2784   24.2129 C   0  0  0  0  0  0  0  0  0  0  0  0
    6.3977   12.9080   24.8490 C   0  0  0  0  0  0  0  0  0  0  0  0
    6.8063   12.9006   26.3057 C   0  0  0  0  0  0  0  0  0  0  0  0
    7.5489   14.1060   26.6845 N   0  0  0  0  0  0  0  0  0  0  0  0
    9.1242   14.4388   26.1691 S   0  0  0  0  0  0  0  0  0  0  0  0
    9.1076   14.6489   24.7474 O   0  0  0  0  0  0  0  0  0  0  0  0
    9.6223   15.4708   27.0405 O   0  0  0  0  0  0  0  0  0  0  0  0
    9.9991   13.0306   26.4707 N   0  0  0  0  0  0  0  0  0  0  0  0
    9.7485   11.9401   25.5192 C   0  0  0  0  0  0  0  0  0  0  0  0
   10.9588   11.2449   24.9889 C   0  0  0  0  0  0  0  0  0  0  0  0
   12.2154   12.0907   24.8187 C   0  0  0  0  0  0  0  0  0  0  0  0
   12.3199   13.3221   25.6616 C   0  0  0  0  0  0  0  0  0  0  0  0
   11.4137   13.2565   26.8479 C   0  0  0  0  0  0  0  0  0  0  0  0
    6.6367   15.2709   26.5397 C   0  0  0  0  0  0  0  0  0  0  0  0
    6.3164   15.5269   25.0688 C   0  0  0  0  0  0  0  0  0  0  0  0
  1  2  1  0
  3  2  1  6
  3  4  1  0
  4  5  1  0
  5  6  1  6
  5  7  1  0
  7  8  1  0
  8  9  1  1
  9 10  1  0
 10 11  2  0
 10 12  1  0
 12 13  1  0
 13 14  1  0
 14 15  1  0
 15 16  1  0
 16 17  2  0
 16 18  2  0
 16 19  1  0
 19 20  1  0
 20 21  1  0
 21 22  1  0
 22 23  1  0
 23 24  1  0
 15 25  1  0
 25 26  1  0
  8  3  1  0
 26 12  1  0
 24 19  1  0
M  END
>  <energy_score>  (2366) 
-36.336286

>  <inchikey>  (2366) 
None

>  <smiles>  (2366) 
None

>  <ref_pdb>  (2366) 
A4706a

>  <alias>  (2366) 
None

>  <HIPPO Pose ID>  (2366) 
500010

>  <name>  (2366) 
P500010

>  <HIPPO Compound ID>  (2366) 
314485

>  <ref_mols>  (2366) 
A4706a,A0875a

>  <distance_score>  (2366) 
1.652107

>  <inspiration_score>  (2366) 
None

$$$$
P500011
     RDKit          3D

 26 28  0  0  0  0  0  0  0  0999 V2000
    9.9781   15.2349   18.5105 C   0  0  0  0  0  0  0  0  0  0  0  0
    9.4140   15.1474   19.7999 O   0  0  0  0  0  0  0  0  0  0  0  0
   10.3594   14.6396   20.6884 C   0  0  1  0  0  0  0  0  0  0  0  0
   11.2331   15.7100   21.2737 C   0  0  0  0  0  0  0  0  0  0  0  0
   11.6134   15.1682   22.6287 C   0  0  1  0  0  0  0  0  0  0  0  0
   11.0846   16.0383   23.6438 N   0  0  0  0  0  0  0  0  0  0  0  0
   10.9593   13.8088   22.7419 C   0  0  0  0  0  0  0  0  0  0  0  0
    9.7400   13.8980   21.8559 C   0  0  1  0  0  0  0  0  0  0  0  0
    8.5606   14.4830   22.4719 O   0  0  0  0  0  0  0  0  0  0  0  0
    7.7711   13.5727   23.1145 C   0  0  0  0  0  0  0  0  0  0  0  0
    8.0004   12.3617   23.0863 O   0  0  0  0  0  0  0  0  0  0  0  0
    6.4998   14.0719   23.8215 C   0  0  0  0  0  0  0  0  0  0  0  0
    5.9921   12.9550   24.7600 C   0  0  0  0  0  0  0  0  0  0  0  0
    6.8632   12.7369   26.0025 C   0  0  0  0  0  0  0  0  0  0  0  0
    7.4973   13.9746   26.4984 N   0  0  0  0  0  0  0  0  0  0  0  0
    9.1089   14.4162   26.3300 S   0  0  0  0  0  0  0  0  0  0  0  0
    9.2656   14.8530   24.9733 O   0  0  0  0  0  0  0  0  0  0  0  0
    9.3717   15.3596   27.3887 O   0  0  0  0  0  0  0  0  0  0  0  0
   10.1740   13.1393   26.5387 N   0  0  0  0  0  0  0  0  0  0  0  0
    9.9456   11.9323   25.7513 C   0  0  0  0  0  0  0  0  0  0  0  0
   11.1273   11.2599   25.1172 C   0  0  0  0  0  0  0  0  0  0  0  0
   12.5109   11.6530   25.5775 C   0  0  0  0  0  0  0  0  0  0  0  0
   12.6108   13.1260   25.7512 C   0  0  0  0  0  0  0  0  0  0  0  0
   11.5785   13.6165   26.7467 C   0  0  0  0  0  0  0  0  0  0  0  0
    6.6120   15.1439   26.1720 C   0  0  0  0  0  0  0  0  0  0  0  0
    6.5350   15.3657   24.6424 C   0  0  0  0  0  0  0  0  0  0  0  0
  1  2  1  0
  3  2  1  6
  3  4  1  0
  4  5  1  0
  5  6  1  1
  5  7  1  0
  7  8  1  0
  8  9  1  1
  9 10  1  0
 10 11  2  0
 10 12  1  0
 12 13  1  0
 13 14  1  0
 14 15  1  0
 15 16  1  0
 16 17  2  0
 16 18  2  0
 16 19  1  0
 19 20  1  0
 20 21  1  0
 21 22  1  0
 22 23  1  0
 23 24  1  0
 15 25  1  0
 25 26  1  0
  8  3  1  0
 26 12  1  0
 24 19  1  0
M  END
>  <energy_score>  (2367) 
-26.424637

>  <inchikey>  (2367) 
None

>  <smiles>  (2367) 
None

>  <ref_pdb>  (2367) 
A4706a

>  <alias>  (2367) 
None

>  <HIPPO Pose ID>  (2367) 
500011

>  <name>  (2367) 
P500011

>  <HIPPO Compound ID>  (2367) 
314485

>  <ref_mols>  (2367) 
A4706a,A0875a

>  <distance_score>  (2367) 
1.502946

>  <inspiration_score>  (2367) 
None

$$$$
P500012
     RDKit          3D

 26 27  0  0  0  0  0  0  0  0999 V2000
   11.4997   14.9093   18.4643 C   0  0  0  0  0  0  0  0  0  0  0  0
   10.7188   14.4748   19.5576 O   0  0  0  0  0  0  0  0  0  0  0  0
    9.8569   15.3820   20.0714 C   0  0  0  0  0  0  0  0  0  0  0  0
    9.6452   16.4932   19.6089 O   0  0  0  0  0  0  0  0  0  0  0  0
    9.2311   14.8076   21.3402 C   0  0  2  0  0  0  0  0  0  0  0  0
    8.2542   15.8492   21.8968 C   0  0  0  0  0  0  0  0  0  0  0  0
    7.5044   15.5358   23.0851 O   0  0  0  0  0  0  0  0  0  0  0  0
    6.7050   14.4536   23.1165 C   0  0  0  0  0  0  0  0  0  0  0  0
    6.6428   13.5942   22.2397 O   0  0  0  0  0  0  0  0  0  0  0  0
    5.8203   14.4133   24.3744 C   0  0  0  0  0  0  0  0  0  0  0  0
    5.7622   12.9719   24.8825 C   0  0  0  0  0  0  0  0  0  0  0  0
    7.1099   12.5578   25.4468 C   0  0  0  0  0  0  0  0  0  0  0  0
    7.6537   13.5241   26.4340 N   0  0  0  0  0  0  0  0  0  0  0  0
    9.1989   14.1775   26.1968 S   0  0  0  0  0  0  0  0  0  0  0  0
    9.2817   14.7331   24.8742 O   0  0  0  0  0  0  0  0  0  0  0  0
    9.4824   15.0052   27.3430 O   0  0  0  0  0  0  0  0  0  0  0  0
   10.2960   12.8729   26.2776 N   0  0  0  0  0  0  0  0  0  0  0  0
   11.6778   13.4517   26.3426 C   0  0  0  0  0  0  0  0  0  0  0  0
   12.7533   12.3879   26.3819 C   0  0  0  0  0  0  0  0  0  0  0  0
   12.5805   11.4559   25.2084 C   0  0  0  0  0  0  0  0  0  0  0  0
   11.1719   10.8453   25.1426 C   0  0  0  0  0  0  0  0  0  0  0  0
   10.1166   11.9041   25.1831 C   0  0  0  0  0  0  0  0  0  0  0  0
    6.6577   14.5766   26.7909 C   0  0  0  0  0  0  0  0  0  0  0  0
    6.2050   15.3407   25.5422 C   0  0  0  0  0  0  0  0  0  0  0  0
   10.2083   14.3101   22.2600 O   0  0  0  0  0  0  0  0  0  0  0  0
   11.2301   15.2220   22.6173 C   0  0  0  0  0  0  0  0  0  0  0  0
  1  2  1  0
  2  3  1  0
  3  4  2  0
  3  5  1  0
  5  6  1  1
  6  7  1  0
  7  8  1  0
  8  9  2  0
  8 10  1  0
 10 11  1  0
 11 12  1  0
 12 13  1  0
 13 14  1  0
 14 15  2  0
 14 16  2  0
 14 17  1  0
 17 18  1  0
 18 19  1  0
 19 20  1  0
 20 21  1  0
 21 22  1  0
 13 23  1  0
 23 24  1  0
  5 25  1  0
 25 26  1  0
 24 10  1  0
 22 17  1  0
M  END
>  <energy_score>  (2368) 
-39.433665

>  <inchikey>  (2368) 
None

>  <smiles>  (2368) 
None

>  <ref_pdb>  (2368) 
A4706a

>  <alias>  (2368) 
None

>  <HIPPO Pose ID>  (2368) 
500012

>  <name>  (2368) 
P500012

>  <HIPPO Compound ID>  (2368) 
314486

>  <ref_mols>  (2368) 
A4706a,A0875a

>  <distance_score>  (2368) 
1.450392

>  <inspiration_score>  (2368) 
None

$$$$
P500013
     RDKit          3D

 26 27  0  0  0  0  0  0  0  0999 V2000
   11.1093   14.8531   18.5776 C   0  0  0  0  0  0  0  0  0  0  0  0
   10.4417   14.7017   19.8184 O   0  0  0  0  0  0  0  0  0  0  0  0
    9.7674   15.7764   20.2971 C   0  0  0  0  0  0  0  0  0  0  0  0
    9.5543   16.8117   19.6845 O   0  0  0  0  0  0  0  0  0  0  0  0
    9.3620   15.5203   21.7391 C   0  0  1  0  0  0  0  0  0  0  0  0
    7.9873   14.8531   21.7571 C   0  0  0  0  0  0  0  0  0  0  0  0
    7.3238   15.0216   23.0313 O   0  0  0  0  0  0  0  0  0  0  0  0
    6.4230   14.0515   23.3486 C   0  0  0  0  0  0  0  0  0  0  0  0
    6.0802   13.1528   22.5835 O   0  0  0  0  0  0  0  0  0  0  0  0
    5.8684   14.1899   24.7740 C   0  0  0  0  0  0  0  0  0  0  0  0
    5.7596   12.8172   25.4665 C   0  0  0  0  0  0  0  0  0  0  0  0
    7.0634   12.2375   26.0261 C   0  0  0  0  0  0  0  0  0  0  0  0
    8.0622   13.2997   26.3072 N   0  0  0  0  0  0  0  0  0  0  0  0
    9.2592   13.5126   25.1307 S   0  0  0  0  0  0  0  0  0  0  0  0
    9.7427   14.8693   25.2073 O   0  0  0  0  0  0  0  0  0  0  0  0
    8.7422   12.9080   23.9303 O   0  0  0  0  0  0  0  0  0  0  0  0
   10.4733   12.4569   25.7322 N   0  0  0  0  0  0  0  0  0  0  0  0
   10.5406   11.2475   24.8615 C   0  0  0  0  0  0  0  0  0  0  0  0
   11.6785   10.3213   25.2428 C   0  0  0  0  0  0  0  0  0  0  0  0
   13.0132   11.0850   25.4085 C   0  0  0  0  0  0  0  0  0  0  0  0
   12.8823   12.2566   26.3590 C   0  0  0  0  0  0  0  0  0  0  0  0
   11.7632   13.1765   25.9068 C   0  0  0  0  0  0  0  0  0  0  0  0
    7.4176   14.5390   26.7936 C   0  0  0  0  0  0  0  0  0  0  0  0
    6.5793   15.1953   25.6971 C   0  0  0  0  0  0  0  0  0  0  0  0
   10.3319   14.6841   22.3940 O   0  0  0  0  0  0  0  0  0  0  0  0
   11.5808   15.3272   22.5424 C   0  0  0  0  0  0  0  0  0  0  0  0
  1  2  1  0
  2  3  1  0
  3  4  2  0
  3  5  1  0
  5  6  1  6
  6  7  1  0
  7  8  1  0
  8  9  2  0
  8 10  1  0
 10 11  1  0
 11 12  1  0
 12 13  1  0
 13 14  1  0
 14 15  2  0
 14 16  2  0
 14 17  1  0
 17 18  1  0
 18 19  1  0
 19 20  1  0
 20 21  1  0
 21 22  1  0
 13 23  1  0
 23 24  1  0
  5 25  1  0
 25 26  1  0
 24 10  1  0
 22 17  1  0
M  END
>  <energy_score>  (2369) 
-40.372024

>  <inchikey>  (2369) 
None

>  <smiles>  (2369) 
None

>  <ref_pdb>  (2369) 
A4706a

>  <alias>  (2369) 
None

>  <HIPPO Pose ID>  (2369) 
500013

>  <name>  (2369) 
P500013

>  <HIPPO Compound ID>  (2369) 
314486

>  <ref_mols>  (2369) 
A0875a,A4706a

>  <distance_score>  (2369) 
1.32336

>  <inspiration_score>  (2369) 
None

$$$$
P500014
     RDKit          3D

 26 28  0  0  0  0  0  0  0  0999 V2000
    6.0919   13.0944   22.2620 O   0  0  0  0  0  0  0  0  0  0  0  0
    6.5888   13.9171   23.0158 C   0  0  0  0  0  0  0  0  0  0  0  0
    6.8342   15.2148   22.6939 O   0  0  0  0  0  0  0  0  0  0  0  0
    7.9567   15.3508   21.7972 C   0  0  0  0  0  0  0  0  0  0  0  0
    9.2818   15.2210   22.5537 C   0  0  0  0  0  0  0  0  0  0  0  0
   10.5242   15.6234   21.8083 C   0  0  0  0  0  0  0  0  0  0  0  0
   10.9111   14.4709   21.0865 O   0  0  0  0  0  0  0  0  0  0  0  0
   11.8844   14.7599   20.0944 C   0  0  0  0  0  0  0  0  0  0  0  0
   11.2492   15.1096   18.7987 C   0  0  2  0  0  0  0  0  0  0  0  0
    9.7655   15.1498   18.6636 C   0  0  0  0  0  0  0  0  0  0  0  0
   10.5360   14.0067   18.2564 O   0  0  0  0  0  0  0  0  0  0  0  0
    7.1124   13.6172   24.3885 C   0  0  0  0  0  0  0  0  0  0  0  0
    7.5721   12.1717   24.5518 C   0  0  0  0  0  0  0  0  0  0  0  0
    8.1119   11.9304   25.9484 C   0  0  0  0  0  0  0  0  0  0  0  0
    8.4991   13.1934   26.5821 N   0  0  0  0  0  0  0  0  0  0  0  0
    9.9754   13.9772   26.3744 S   0  0  0  0  0  0  0  0  0  0  0  0
   10.1707   14.6765   27.6194 O   0  0  0  0  0  0  0  0  0  0  0  0
   10.0206   14.7151   25.1439 O   0  0  0  0  0  0  0  0  0  0  0  0
   11.1573   12.8020   26.2519 N   0  0  0  0  0  0  0  0  0  0  0  0
   12.4756   13.1508   26.8942 C   0  0  0  0  0  0  0  0  0  0  0  0
   13.6866   12.9082   25.9671 C   0  0  0  0  0  0  0  0  0  0  0  0
   13.7703   11.4815   25.4734 C   0  0  0  0  0  0  0  0  0  0  0  0
   12.3588   10.9894   25.3221 C   0  0  0  0  0  0  0  0  0  0  0  0
   11.3355   12.0698   24.9681 C   0  0  0  0  0  0  0  0  0  0  0  0
    7.3116   14.1029   26.8039 C   0  0  0  0  0  0  0  0  0  0  0  0
    6.3404   14.0766   25.6047 C   0  0  0  0  0  0  0  0  0  0  0  0
  1  2  2  0
  2  3  1  0
  3  4  1  0
  4  5  1  0
  5  6  1  0
  6  7  1  0
  7  8  1  0
  9  8  1  1
  9 10  1  0
 10 11  1  0
  2 12  1  0
 12 13  1  0
 13 14  1  0
 14 15  1  0
 15 16  1  0
 16 17  2  0
 16 18  2  0
 16 19  1  0
 19 20  1  0
 20 21  1  0
 21 22  1  0
 22 23  1  0
 23 24  1  0
 15 25  1  0
 25 26  1  0
 11  9  1  0
 26 12  1  0
 24 19  1  0
M  END
>  <energy_score>  (2370) 
-12.952014

>  <inchikey>  (2370) 
None

>  <smiles>  (2370) 
None

>  <ref_pdb>  (2370) 
A4706a

>  <alias>  (2370) 
None

>  <HIPPO Pose ID>  (2370) 
500014

>  <name>  (2370) 
P500014

>  <HIPPO Compound ID>  (2370) 
314487

>  <ref_mols>  (2370) 
A4706a,A0875a

>  <distance_score>  (2370) 
1.550466

>  <inspiration_score>  (2370) 
None

$$$$
P500015
     RDKit          3D

 26 28  0  0  0  0  0  0  0  0999 V2000
    6.7659   12.8270   22.8173 O   0  0  0  0  0  0  0  0  0  0  0  0
    6.3376   13.6840   23.5841 C   0  0  0  0  0  0  0  0  0  0  0  0
    6.5466   15.0162   23.4212 O   0  0  0  0  0  0  0  0  0  0  0  0
    7.4454   15.3467   22.3473 C   0  0  0  0  0  0  0  0  0  0  0  0
    8.9051   15.0954   22.7643 C   0  0  0  0  0  0  0  0  0  0  0  0
    9.7115   14.3207   21.7581 C   0  0  0  0  0  0  0  0  0  0  0  0
    9.2762   14.6639   20.4623 O   0  0  0  0  0  0  0  0  0  0  0  0
    9.8747   15.8409   19.9571 C   0  0  0  0  0  0  0  0  0  0  0  0
   11.2462   15.5043   19.5801 C   0  0  1  0  0  0  0  0  0  0  0  0
   11.4537   14.3657   18.6739 C   0  0  0  0  0  0  0  0  0  0  0  0
   11.5900   15.6962   18.2047 O   0  0  0  0  0  0  0  0  0  0  0  0
    5.5325   13.3471   24.8350 C   0  0  0  0  0  0  0  0  0  0  0  0
    6.1977   12.1635   25.5793 C   0  0  0  0  0  0  0  0  0  0  0  0
    7.2588   12.6184   26.5879 C   0  0  0  0  0  0  0  0  0  0  0  0
    7.7656   13.9202   26.1307 N   0  0  0  0  0  0  0  0  0  0  0  0
    9.2944   14.4404   26.5431 S   0  0  0  0  0  0  0  0  0  0  0  0
    9.3209   14.6415   27.9671 O   0  0  0  0  0  0  0  0  0  0  0  0
    9.6685   15.4937   25.6348 O   0  0  0  0  0  0  0  0  0  0  0  0
   10.3227   13.1662   26.2125 N   0  0  0  0  0  0  0  0  0  0  0  0
   11.7347   13.5976   26.4406 C   0  0  0  0  0  0  0  0  0  0  0  0
   12.6804   12.4147   26.4138 C   0  0  0  0  0  0  0  0  0  0  0  0
   12.3905   11.5103   25.2325 C   0  0  0  0  0  0  0  0  0  0  0  0
   10.8859   11.2420   24.9823 C   0  0  0  0  0  0  0  0  0  0  0  0
   10.1848   12.5654   24.8796 C   0  0  0  0  0  0  0  0  0  0  0  0
    6.7417   14.9883   26.3357 C   0  0  0  0  0  0  0  0  0  0  0  0
    5.3899   14.5277   25.7956 C   0  0  0  0  0  0  0  0  0  0  0  0
  1  2  2  0
  2  3  1  0
  3  4  1  0
  4  5  1  0
  5  6  1  0
  6  7  1  0
  7  8  1  0
  9  8  1  6
  9 10  1  0
 10 11  1  0
  2 12  1  0
 12 13  1  0
 13 14  1  0
 14 15  1  0
 15 16  1  0
 16 17  2  0
 16 18  2  0
 16 19  1  0
 19 20  1  0
 20 21  1  0
 21 22  1  0
 22 23  1  0
 23 24  1  0
 15 25  1  0
 25 26  1  0
 11  9  1  0
 26 12  1  0
 24 19  1  0
M  END
>  <energy_score>  (2371) 
-51.441295

>  <inchikey>  (2371) 
None

>  <smiles>  (2371) 
None

>  <ref_pdb>  (2371) 
A4706a

>  <alias>  (2371) 
None

>  <HIPPO Pose ID>  (2371) 
500015

>  <name>  (2371) 
P500015

>  <HIPPO Compound ID>  (2371) 
314487

>  <ref_mols>  (2371) 
A0875a,A4706a

>  <distance_score>  (2371) 
1.821109

>  <inspiration_score>  (2371) 
None

$$$$
P500016
     RDKit          3D

 26 28  0  0  0  0  0  0  0  0999 V2000
    9.8097   16.6471   18.9619 O   0  0  0  0  0  0  0  0  0  0  0  0
   10.2262   15.9690   19.8836 C   0  0  0  0  0  0  0  0  0  0  0  0
   10.4550   14.5030   19.7976 C   0  0  0  0  0  0  0  0  0  0  0  0
    9.5063   13.8752   20.6618 O   0  0  0  0  0  0  0  0  0  0  0  0
    9.3618   14.5004   21.9454 C   0  0  2  0  0  0  0  0  0  0  0  0
    7.9684   15.1836   21.9980 C   0  0  0  0  0  0  0  0  0  0  0  0
    7.3001   14.9890   23.2610 O   0  0  0  0  0  0  0  0  0  0  0  0
    6.7228   13.7779   23.4114 C   0  0  0  0  0  0  0  0  0  0  0  0
    6.7216   12.9129   22.5406 O   0  0  0  0  0  0  0  0  0  0  0  0
    6.0713   13.5472   24.7698 C   0  0  0  0  0  0  0  0  0  0  0  0
    6.4472   12.1359   25.2560 C   0  0  0  0  0  0  0  0  0  0  0  0
    7.9159   12.0448   25.6443 C   0  0  0  0  0  0  0  0  0  0  0  0
    8.3118   13.1605   26.5198 N   0  0  0  0  0  0  0  0  0  0  0  0
    9.6577   14.0759   26.1206 S   0  0  0  0  0  0  0  0  0  0  0  0
    9.7733   15.0806   27.1479 O   0  0  0  0  0  0  0  0  0  0  0  0
    9.5928   14.4643   24.7408 O   0  0  0  0  0  0  0  0  0  0  0  0
   10.9683   12.9973   26.3012 N   0  0  0  0  0  0  0  0  0  0  0  0
   12.0949   13.6867   26.9931 C   0  0  0  0  0  0  0  0  0  0  0  0
   13.4753   13.1225   26.6496 C   0  0  0  0  0  0  0  0  0  0  0  0
   13.4231   11.6532   26.5759 C   0  0  0  0  0  0  0  0  0  0  0  0
   12.5518   11.3141   25.3904 C   0  0  0  0  0  0  0  0  0  0  0  0
   11.4011   12.2886   25.0777 C   0  0  0  0  0  0  0  0  0  0  0  0
    7.1604   13.9640   27.0241 C   0  0  0  0  0  0  0  0  0  0  0  0
    6.3887   14.5796   25.8612 C   0  0  0  0  0  0  0  0  0  0  0  0
   10.4948   15.4991   22.1782 C   0  0  0  0  0  0  0  0  0  0  0  0
   10.4705   16.4713   21.1262 O   0  0  0  0  0  0  0  0  0  0  0  0
  1  2  2  0
  2  3  1  0
  3  4  1  0
  4  5  1  0
  5  6  1  6
  6  7  1  0
  7  8  1  0
  8  9  2  0
  8 10  1  0
 10 11  1  0
 11 12  1  0
 12 13  1  0
 13 14  1  0
 14 15  2  0
 14 16  2  0
 14 17  1  0
 17 18  1  0
 18 19  1  0
 19 20  1  0
 20 21  1  0
 21 22  1  0
 13 23  1  0
 23 24  1  0
  5 25  1  0
 25 26  1  0
 26  2  1  0
 24 10  1  0
 22 17  1  0
M  END
>  <energy_score>  (2372) 
-54.138309

>  <inchikey>  (2372) 
None

>  <smiles>  (2372) 
None

>  <ref_pdb>  (2372) 
A4706a

>  <alias>  (2372) 
None

>  <HIPPO Pose ID>  (2372) 
500016

>  <name>  (2372) 
P500016

>  <HIPPO Compound ID>  (2372) 
314488

>  <ref_mols>  (2372) 
A4706a,A0875a

>  <distance_score>  (2372) 
1.688132

>  <inspiration_score>  (2372) 
None

$$$$
P500017
     RDKit          3D

 26 28  0  0  0  0  0  0  0  0999 V2000
    9.8124   16.6540   18.9668 O   0  0  0  0  0  0  0  0  0  0  0  0
   10.2268   15.9717   19.8868 C   0  0  0  0  0  0  0  0  0  0  0  0
   10.4569   14.5059   19.7976 C   0  0  0  0  0  0  0  0  0  0  0  0
    9.5047   13.8780   20.6578 O   0  0  0  0  0  0  0  0  0  0  0  0
    9.3599   14.4974   21.9441 C   0  0  2  0  0  0  0  0  0  0  0  0
    7.9651   15.1797   21.9947 C   0  0  0  0  0  0  0  0  0  0  0  0
    7.2920   14.9928   23.2565 O   0  0  0  0  0  0  0  0  0  0  0  0
    6.7253   13.7762   23.4121 C   0  0  0  0  0  0  0  0  0  0  0  0
    6.7356   12.9076   22.5451 O   0  0  0  0  0  0  0  0  0  0  0  0
    6.0679   13.5465   24.7678 C   0  0  0  0  0  0  0  0  0  0  0  0
    6.4401   12.1348   25.2562 C   0  0  0  0  0  0  0  0  0  0  0  0
    7.9070   12.0406   25.6512 C   0  0  0  0  0  0  0  0  0  0  0  0
    8.3023   13.1593   26.5232 N   0  0  0  0  0  0  0  0  0  0  0  0
    9.6457   14.0769   26.1178 S   0  0  0  0  0  0  0  0  0  0  0  0
    9.5711   14.4608   24.7372 O   0  0  0  0  0  0  0  0  0  0  0  0
    9.7574   15.0859   27.1413 O   0  0  0  0  0  0  0  0  0  0  0  0
   10.9583   13.0020   26.2980 N   0  0  0  0  0  0  0  0  0  0  0  0
   12.0837   13.6944   26.9896 C   0  0  0  0  0  0  0  0  0  0  0  0
   13.4644   13.1269   26.6516 C   0  0  0  0  0  0  0  0  0  0  0  0
   13.4118   11.6578   26.5776 C   0  0  0  0  0  0  0  0  0  0  0  0
   12.5428   11.3188   25.3904 C   0  0  0  0  0  0  0  0  0  0  0  0
   11.3943   12.2948   25.0745 C   0  0  0  0  0  0  0  0  0  0  0  0
    7.1501   13.9620   27.0257 C   0  0  0  0  0  0  0  0  0  0  0  0
    6.3816   14.5785   25.8607 C   0  0  0  0  0  0  0  0  0  0  0  0
   10.4921   15.4967   22.1807 C   0  0  0  0  0  0  0  0  0  0  0  0
   10.4638   16.4727   21.1316 O   0  0  0  0  0  0  0  0  0  0  0  0
  1  2  2  0
  2  3  1  0
  3  4  1  0
  4  5  1  0
  5  6  1  6
  6  7  1  0
  7  8  1  0
  8  9  2  0
  8 10  1  0
 10 11  1  0
 11 12  1  0
 12 13  1  0
 13 14  1  0
 14 15  2  0
 14 16  2  0
 14 17  1  0
 17 18  1  0
 18 19  1  0
 19 20  1  0
 20 21  1  0
 21 22  1  0
 13 23  1  0
 23 24  1  0
  5 25  1  0
 25 26  1  0
 26  2  1  0
 24 10  1  0
 22 17  1  0
M  END
>  <energy_score>  (2373) 
-31.414596

>  <inchikey>  (2373) 
None

>  <smiles>  (2373) 
None

>  <ref_pdb>  (2373) 
A4706a

>  <alias>  (2373) 
None

>  <HIPPO Pose ID>  (2373) 
500017

>  <name>  (2373) 
P500017

>  <HIPPO Compound ID>  (2373) 
314488

>  <ref_mols>  (2373) 
A4706a,A0875a

>  <distance_score>  (2373) 
1.693568

>  <inspiration_score>  (2373) 
None

$$$$
P500018
     RDKit          3D

 26 29  0  0  0  0  0  0  0  0999 V2000
    8.1576   16.8317   21.2742 C   0  0  0  0  0  0  0  0  0  0  0  0
    8.3079   15.3493   21.5700 C   0  0  2  0  0  0  0  0  0  0  0  0
    7.7503   15.1524   22.8915 O   0  0  0  0  0  0  0  0  0  0  0  0
    6.6906   14.2951   22.9878 C   0  0  0  0  0  0  0  0  0  0  0  0
    6.3510   13.4970   22.1162 O   0  0  0  0  0  0  0  0  0  0  0  0
    5.9209   14.4110   24.3169 C   0  0  0  0  0  0  0  0  0  0  0  0
    5.6236   13.0186   24.9092 C   0  0  0  0  0  0  0  0  0  0  0  0
    6.7353   12.3597   25.7298 C   0  0  0  0  0  0  0  0  0  0  0  0
    7.7433   13.3570   26.1389 N   0  0  0  0  0  0  0  0  0  0  0  0
    9.0622   13.5090   25.1017 S   0  0  0  0  0  0  0  0  0  0  0  0
    9.5519   14.8628   25.1945 O   0  0  0  0  0  0  0  0  0  0  0  0
    8.7444   12.8592   23.8592 O   0  0  0  0  0  0  0  0  0  0  0  0
   10.1565   12.5355   25.8915 N   0  0  0  0  0  0  0  0  0  0  0  0
   10.9775   11.6167   25.0696 C   0  0  0  0  0  0  0  0  0  0  0  0
   12.4580   11.6800   25.4638 C   0  0  0  0  0  0  0  0  0  0  0  0
   12.9058   13.1115   25.4333 C   0  0  0  0  0  0  0  0  0  0  0  0
   12.0972   13.9282   26.4385 C   0  0  0  0  0  0  0  0  0  0  0  0
   10.8654   13.2480   26.9347 C   0  0  0  0  0  0  0  0  0  0  0  0
    7.1134   14.6207   26.5742 C   0  0  0  0  0  0  0  0  0  0  0  0
    6.4849   15.3518   25.3903 C   0  0  0  0  0  0  0  0  0  0  0  0
    9.7727   15.0147   21.3954 C   0  0  2  0  0  0  0  0  0  0  0  0
   10.8563   16.0194   21.9587 C   0  0  0  0  0  0  0  0  0  0  0  0
   11.7730   14.9005   21.4128 C   0  0  2  0  0  0  0  0  0  0  0  0
   11.4605   14.7818   19.9227 C   0  0  0  0  0  0  0  0  0  0  0  0
   10.0430   14.8670   19.9625 O   0  0  0  0  0  0  0  0  0  0  0  0
   10.7323   13.9817   22.1239 C   0  0  0  0  0  0  0  0  0  0  0  0
  2  1  1  1
  2  3  1  0
  3  4  1  0
  4  5  2  0
  4  6  1  0
  6  7  1  0
  7  8  1  0
  8  9  1  0
  9 10  1  0
 10 11  2  0
 10 12  2  0
 10 13  1  0
 13 14  1  0
 14 15  1  0
 15 16  1  0
 16 17  1  0
 17 18  1  0
  9 19  1  0
 19 20  1  0
  2 21  1  0
 21 22  1  1
 23 22  1  1
 23 24  1  0
 24 25  1  0
 23 26  1  0
 20  6  1  0
 21 25  1  0
 18 13  1  0
 26 21  1  0
M  END
>  <energy_score>  (2374) 
-37.814278

>  <inchikey>  (2374) 
None

>  <smiles>  (2374) 
None

>  <ref_pdb>  (2374) 
A4706a

>  <alias>  (2374) 
None

>  <HIPPO Pose ID>  (2374) 
500018

>  <name>  (2374) 
P500018

>  <HIPPO Compound ID>  (2374) 
314489

>  <ref_mols>  (2374) 
A4706a,A0875a

>  <distance_score>  (2374) 
1.912072

>  <inspiration_score>  (2374) 
None

$$$$
P500019
     RDKit          3D

 26 29  0  0  0  0  0  0  0  0999 V2000
    7.0388   14.3522   21.2781 C   0  0  0  0  0  0  0  0  0  0  0  0
    7.8289   15.5540   21.7609 C   0  0  1  0  0  0  0  0  0  0  0  0
    7.6800   15.7410   23.1713 O   0  0  0  0  0  0  0  0  0  0  0  0
    6.7296   15.0387   23.8465 C   0  0  0  0  0  0  0  0  0  0  0  0
    5.5336   14.9888   23.6251 O   0  0  0  0  0  0  0  0  0  0  0  0
    7.4693   14.2488   24.8657 C   0  0  0  0  0  0  0  0  0  0  0  0
    7.3277   12.7342   24.8345 C   0  0  0  0  0  0  0  0  0  0  0  0
    8.5659   12.1406   25.5285 C   0  0  0  0  0  0  0  0  0  0  0  0
    9.0738   13.0434   26.5970 N   0  0  0  0  0  0  0  0  0  0  0  0
   10.5188   13.9228   26.4215 S   0  0  0  0  0  0  0  0  0  0  0  0
   10.5530   14.6080   25.1548 O   0  0  0  0  0  0  0  0  0  0  0  0
   10.6369   14.6677   27.6470 O   0  0  0  0  0  0  0  0  0  0  0  0
   11.7563   12.7363   26.4103 N   0  0  0  0  0  0  0  0  0  0  0  0
   12.2365   12.3720   25.0707 C   0  0  0  0  0  0  0  0  0  0  0  0
   13.2716   11.2452   25.1694 C   0  0  0  0  0  0  0  0  0  0  0  0
   14.4169   11.4283   26.1301 C   0  0  0  0  0  0  0  0  0  0  0  0
   14.2853   12.7538   26.8004 C   0  0  0  0  0  0  0  0  0  0  0  0
   12.8858   12.9714   27.3743 C   0  0  0  0  0  0  0  0  0  0  0  0
    7.9439   13.8314   27.2378 C   0  0  0  0  0  0  0  0  0  0  0  0
    7.3270   14.8101   26.2583 C   0  0  0  0  0  0  0  0  0  0  0  0
    9.2938   15.3032   21.3938 C   0  0  2  0  0  0  0  0  0  0  0  0
   10.5499   16.0354   21.9999 C   0  0  0  0  0  0  0  0  0  0  0  0
   11.2402   14.8132   21.3198 C   0  0  2  0  0  0  0  0  0  0  0  0
   10.8808   14.9419   19.8328 C   0  0  0  0  0  0  0  0  0  0  0  0
    9.4992   15.2985   19.9444 O   0  0  0  0  0  0  0  0  0  0  0  0
   10.0478   14.0309   21.9503 C   0  0  0  0  0  0  0  0  0  0  0  0
  2  1  1  1
  2  3  1  0
  3  4  1  0
  4  5  2  0
  4  6  1  0
  6  7  1  0
  7  8  1  0
  8  9  1  0
  9 10  1  0
 10 11  2  0
 10 12  2  0
 10 13  1  0
 13 14  1  0
 14 15  1  0
 15 16  1  0
 16 17  1  0
 17 18  1  0
  9 19  1  0
 19 20  1  0
  2 21  1  0
 21 22  1  1
 23 22  1  1
 23 24  1  0
 24 25  1  0
 23 26  1  0
 20  6  1  0
 21 25  1  0
 18 13  1  0
 26 21  1  0
M  END
>  <energy_score>  (2375) 
-31.373831

>  <inchikey>  (2375) 
None

>  <smiles>  (2375) 
None

>  <ref_pdb>  (2375) 
A4706a

>  <alias>  (2375) 
None

>  <HIPPO Pose ID>  (2375) 
500019

>  <name>  (2375) 
P500019

>  <HIPPO Compound ID>  (2375) 
314489

>  <ref_mols>  (2375) 
A4706a,A0875a

>  <distance_score>  (2375) 
1.805227

>  <inspiration_score>  (2375) 
None

$$$$
P500020
     RDKit          3D

 26 28  0  0  0  0  0  0  0  0999 V2000
   12.0054   14.3853   23.2390 O   0  0  0  0  0  0  0  0  0  0  0  0
   10.9849   14.6744   22.6331 C   0  0  0  0  0  0  0  0  0  0  0  0
    9.8409   13.7417   22.4283 C   0  0  0  0  0  0  0  0  0  0  0  0
    8.7995   14.5690   21.7220 C   0  0  1  0  0  0  0  0  0  0  0  0
    7.7305   14.8964   22.6620 O   0  0  0  0  0  0  0  0  0  0  0  0
    6.7955   13.9162   22.7820 C   0  0  0  0  0  0  0  0  0  0  0  0
    6.7813   12.9267   22.0543 O   0  0  0  0  0  0  0  0  0  0  0  0
    5.7707   14.0248   23.8988 C   0  0  0  0  0  0  0  0  0  0  0  0
    5.9600   12.8386   24.8840 C   0  0  0  0  0  0  0  0  0  0  0  0
    6.8524   13.1869   26.0726 C   0  0  0  0  0  0  0  0  0  0  0  0
    7.7388   14.2722   25.6137 N   0  0  0  0  0  0  0  0  0  0  0  0
    9.1996   14.5153   26.3737 S   0  0  0  0  0  0  0  0  0  0  0  0
    9.7429   15.7519   25.8880 O   0  0  0  0  0  0  0  0  0  0  0  0
    9.0013   14.2918   27.7799 O   0  0  0  0  0  0  0  0  0  0  0  0
   10.2688   13.3835   25.8043 N   0  0  0  0  0  0  0  0  0  0  0  0
    9.8816   11.9987   25.7311 C   0  0  0  0  0  0  0  0  0  0  0  0
   10.9314   11.1898   25.0194 C   0  0  0  0  0  0  0  0  0  0  0  0
   12.3885   11.6309   25.2254 C   0  0  0  0  0  0  0  0  0  0  0  0
   12.5892   12.5440   26.3924 C   0  0  0  0  0  0  0  0  0  0  0  0
   11.6354   13.7069   26.3081 C   0  0  0  0  0  0  0  0  0  0  0  0
    6.9405   15.5341   25.5543 C   0  0  0  0  0  0  0  0  0  0  0  0
    5.7463   15.3541   24.6321 C   0  0  0  0  0  0  0  0  0  0  0  0
    9.5667   15.7901   21.2427 C   0  0  2  0  0  0  0  0  0  0  0  0
    9.8673   15.7662   19.7436 C   0  0  0  0  0  0  0  0  0  0  0  0
   11.3397   14.6586   19.1804 Br  0  0  0  0  0  0  0  0  0  0  0  0
   10.7701   15.8602   22.0109 O   0  0  0  0  0  0  0  0  0  0  0  0
  1  2  2  0
  2  3  1  0
  3  4  1  0
  4  5  1  1
  5  6  1  0
  6  7  2  0
  6  8  1  0
  8  9  1  0
  9 10  1  0
 10 11  1  0
 11 12  1  0
 12 13  2  0
 12 14  2  0
 12 15  1  0
 15 16  1  0
 16 17  1  0
 17 18  1  0
 18 19  1  0
 19 20  1  0
 11 21  1  0
 21 22  1  0
  4 23  1  0
 23 24  1  6
 24 25  1  0
 23 26  1  0
 26  2  1  0
 22  8  1  0
 20 15  1  0
M  END
>  <energy_score>  (2376) 
-47.871291

>  <inchikey>  (2376) 
None

>  <smiles>  (2376) 
None

>  <ref_pdb>  (2376) 
A4706a

>  <alias>  (2376) 
None

>  <HIPPO Pose ID>  (2376) 
500020

>  <name>  (2376) 
P500020

>  <HIPPO Compound ID>  (2376) 
314490

>  <ref_mols>  (2376) 
A4706a,A0875a

>  <distance_score>  (2376) 
1.589795

>  <inspiration_score>  (2376) 
None

$$$$
P500021
     RDKit          3D

 26 28  0  0  0  0  0  0  0  0999 V2000
   11.1222   15.9604   23.3443 O   0  0  0  0  0  0  0  0  0  0  0  0
   10.3275   15.5031   22.5433 C   0  0  0  0  0  0  0  0  0  0  0  0
    8.8835   15.8964   22.3526 C   0  0  0  0  0  0  0  0  0  0  0  0
    8.3393   14.8378   21.4408 C   0  0  2  0  0  0  0  0  0  0  0  0
    7.8435   13.6960   22.1756 O   0  0  0  0  0  0  0  0  0  0  0  0
    6.6638   13.8578   22.8641 C   0  0  0  0  0  0  0  0  0  0  0  0
    5.6390   14.3211   22.4038 O   0  0  0  0  0  0  0  0  0  0  0  0
    6.9383   13.4504   24.2872 C   0  0  0  0  0  0  0  0  0  0  0  0
    7.5838   12.0670   24.4298 C   0  0  0  0  0  0  0  0  0  0  0  0
    8.0124   11.7551   25.8494 C   0  0  0  0  0  0  0  0  0  0  0  0
    8.2411   12.9999   26.5750 N   0  0  0  0  0  0  0  0  0  0  0  0
    9.6159   13.9335   26.2304 S   0  0  0  0  0  0  0  0  0  0  0  0
    9.6598   14.9277   27.2735 O   0  0  0  0  0  0  0  0  0  0  0  0
    9.6179   14.3242   24.8479 O   0  0  0  0  0  0  0  0  0  0  0  0
   10.9607   12.8912   26.4103 N   0  0  0  0  0  0  0  0  0  0  0  0
   12.0877   13.6703   27.0200 C   0  0  0  0  0  0  0  0  0  0  0  0
   13.4771   13.1186   26.6786 C   0  0  0  0  0  0  0  0  0  0  0  0
   13.4555   11.6473   26.5923 C   0  0  0  0  0  0  0  0  0  0  0  0
   12.5829   11.2996   25.4077 C   0  0  0  0  0  0  0  0  0  0  0  0
   11.4089   12.2547   25.1378 C   0  0  0  0  0  0  0  0  0  0  0  0
    6.9412   13.7859   26.7321 C   0  0  0  0  0  0  0  0  0  0  0  0
    6.0343   13.7080   25.4692 C   0  0  0  0  0  0  0  0  0  0  0  0
    9.6024   14.4609   20.7010 C   0  0  1  0  0  0  0  0  0  0  0  0
    9.9196   15.3696   19.5291 C   0  0  0  0  0  0  0  0  0  0  0  0
   11.4886   14.6899   18.6501 Br  0  0  0  0  0  0  0  0  0  0  0  0
   10.6573   14.5360   21.6588 O   0  0  0  0  0  0  0  0  0  0  0  0
  1  2  2  0
  2  3  1  0
  3  4  1  0
  4  5  1  1
  5  6  1  0
  6  7  2  0
  6  8  1  0
  8  9  1  0
  9 10  1  0
 10 11  1  0
 11 12  1  0
 12 13  2  0
 12 14  2  0
 12 15  1  0
 15 16  1  0
 16 17  1  0
 17 18  1  0
 18 19  1  0
 19 20  1  0
 11 21  1  0
 21 22  1  0
  4 23  1  0
 23 24  1  6
 24 25  1  0
 23 26  1  0
 26  2  1  0
 22  8  1  0
 20 15  1  0
M  END
>  <energy_score>  (2377) 
-29.401376

>  <inchikey>  (2377) 
None

>  <smiles>  (2377) 
None

>  <ref_pdb>  (2377) 
A4706a

>  <alias>  (2377) 
None

>  <HIPPO Pose ID>  (2377) 
500021

>  <name>  (2377) 
P500021

>  <HIPPO Compound ID>  (2377) 
314490

>  <ref_mols>  (2377) 
A4706a,A0875a

>  <distance_score>  (2377) 
1.508251

>  <inspiration_score>  (2377) 
None

$$$$
P500022
     RDKit          3D

 26 27  0  0  0  0  0  0  0  0999 V2000
    7.3964   14.3304   21.2075 C   0  0  0  0  0  0  0  0  0  0  0  0
    7.6931   15.1041   22.4638 C   0  0  0  0  0  0  0  0  0  0  0  0
    7.0780   16.4791   22.2829 C   0  0  0  0  0  0  0  0  0  0  0  0
    9.2239   15.1175   22.7412 C   0  0  0  0  0  0  0  0  0  0  0  0
    9.9985   15.7146   21.6990 O   0  0  0  0  0  0  0  0  0  0  0  0
   10.6322   14.7758   20.8341 C   0  0  0  0  0  0  0  0  0  0  0  0
   10.4598   15.2200   19.3820 C   0  0  0  0  0  0  0  0  0  0  0  0
   11.2688   14.4407   18.4574 N   0  0  0  0  0  0  0  0  0  0  0  0
    6.9058   14.5620   23.5473 O   0  0  0  0  0  0  0  0  0  0  0  0
    6.9152   13.2457   23.8213 C   0  0  0  0  0  0  0  0  0  0  0  0
    7.6301   12.4164   23.2753 O   0  0  0  0  0  0  0  0  0  0  0  0
    5.8815   12.8913   24.8755 C   0  0  0  0  0  0  0  0  0  0  0  0
    6.4691   11.7711   25.7375 C   0  0  0  0  0  0  0  0  0  0  0  0
    7.5483   12.3129   26.6747 C   0  0  0  0  0  0  0  0  0  0  0  0
    7.9059   13.6875   26.2751 N   0  0  0  0  0  0  0  0  0  0  0  0
    9.3248   14.3900   26.7872 S   0  0  0  0  0  0  0  0  0  0  0  0
    9.5898   15.5171   25.9285 O   0  0  0  0  0  0  0  0  0  0  0  0
    9.2060   14.5665   28.2102 O   0  0  0  0  0  0  0  0  0  0  0  0
   10.5616   13.2575   26.5138 N   0  0  0  0  0  0  0  0  0  0  0  0
   10.8226   13.0893   25.0723 C   0  0  0  0  0  0  0  0  0  0  0  0
   11.9838   12.1607   24.8531 C   0  0  0  0  0  0  0  0  0  0  0  0
   13.2538   12.5131   25.5916 C   0  0  0  0  0  0  0  0  0  0  0  0
   12.9661   12.7914   27.0449 C   0  0  0  0  0  0  0  0  0  0  0  0
   11.7930   13.7488   27.2110 C   0  0  0  0  0  0  0  0  0  0  0  0
    6.7481   14.6187   26.4831 C   0  0  0  0  0  0  0  0  0  0  0  0
    5.5178   14.0726   25.7727 C   0  0  0  0  0  0  0  0  0  0  0  0
  1  2  1  0
  2  3  1  0
  2  4  1  0
  4  5  1  0
  5  6  1  0
  6  7  1  0
  7  8  1  0
  2  9  1  0
  9 10  1  0
 10 11  2  0
 10 12  1  0
 12 13  1  0
 13 14  1  0
 14 15  1  0
 15 16  1  0
 16 17  2  0
 16 18  2  0
 16 19  1  0
 19 20  1  0
 20 21  1  0
 21 22  1  0
 22 23  1  0
 23 24  1  0
 15 25  1  0
 25 26  1  0
 26 12  1  0
 24 19  1  0
M  END
>  <energy_score>  (2378) 
-44.128614

>  <inchikey>  (2378) 
None

>  <smiles>  (2378) 
None

>  <ref_pdb>  (2378) 
A4706a

>  <alias>  (2378) 
None

>  <HIPPO Pose ID>  (2378) 
500022

>  <name>  (2378) 
P500022

>  <HIPPO Compound ID>  (2378) 
314491

>  <ref_mols>  (2378) 
A4706a,A0875a

>  <distance_score>  (2378) 
1.686219

>  <inspiration_score>  (2378) 
None

$$$$
P500023
     RDKit          3D

 26 28  0  0  0  0  0  0  0  0999 V2000
    9.0861   18.8646   20.8324 C   0  0  0  0  0  0  0  0  0  0  0  0
    8.5727   17.6507   20.8637 C   0  0  0  0  0  0  0  0  0  0  0  0
    9.1603   16.3974   21.3153 C   0  0  1  0  0  0  0  0  0  0  0  0
    9.1589   15.5447   20.2075 O   0  0  0  0  0  0  0  0  0  0  0  0
    9.2196   14.2180   20.6680 C   0  0  0  0  0  0  0  0  0  0  0  0
    9.7025   14.0476   22.0966 C   0  0  2  0  0  0  0  0  0  0  0  0
    8.6491   14.3445   23.0959 O   0  0  0  0  0  0  0  0  0  0  0  0
    7.4765   13.6697   23.1683 C   0  0  0  0  0  0  0  0  0  0  0  0
    7.0660   12.9046   22.3035 O   0  0  0  0  0  0  0  0  0  0  0  0
    6.6944   13.8703   24.4841 C   0  0  0  0  0  0  0  0  0  0  0  0
    6.5200   12.5269   25.2319 C   0  0  0  0  0  0  0  0  0  0  0  0
    7.5096   12.2008   26.3630 C   0  0  0  0  0  0  0  0  0  0  0  0
    8.5313   13.2711   26.5664 N   0  0  0  0  0  0  0  0  0  0  0  0
    9.7961   13.2456   25.4676 S   0  0  0  0  0  0  0  0  0  0  0  0
   10.1677   14.6056   25.1680 O   0  0  0  0  0  0  0  0  0  0  0  0
    9.3848   12.2933   24.4607 O   0  0  0  0  0  0  0  0  0  0  0  0
   11.1529   12.5257   26.2037 N   0  0  0  0  0  0  0  0  0  0  0  0
   12.0388   13.4612   26.9296 C   0  0  0  0  0  0  0  0  0  0  0  0
   13.5237   13.1089   26.8041 C   0  0  0  0  0  0  0  0  0  0  0  0
   13.8212   11.6563   26.7639 C   0  0  0  0  0  0  0  0  0  0  0  0
   13.2154   11.1503   25.4833 C   0  0  0  0  0  0  0  0  0  0  0  0
   11.8353   11.7113   25.1680 C   0  0  0  0  0  0  0  0  0  0  0  0
    7.8306   14.5748   26.7039 C   0  0  0  0  0  0  0  0  0  0  0  0
    7.1486   15.0100   25.4039 C   0  0  0  0  0  0  0  0  0  0  0  0
   10.8514   15.0680   22.2367 C   0  0  0  0  0  0  0  0  0  0  0  0
   10.4560   16.3990   21.8750 O   0  0  0  0  0  0  0  0  0  0  0  0
  1  2  2  0
  3  2  1  6
  3  4  1  0
  4  5  1  0
  5  6  1  0
  6  7  1  1
  7  8  1  0
  8  9  2  0
  8 10  1  0
 10 11  1  0
 11 12  1  0
 12 13  1  0
 13 14  1  0
 14 15  2  0
 14 16  2  0
 14 17  1  0
 17 18  1  0
 18 19  1  0
 19 20  1  0
 20 21  1  0
 21 22  1  0
 13 23  1  0
 23 24  1  0
  6 25  1  0
 25 26  1  0
 26  3  1  0
 24 10  1  0
 22 17  1  0
M  END
>  <energy_score>  (2379) 
-29.816988

>  <inchikey>  (2379) 
None

>  <smiles>  (2379) 
None

>  <ref_pdb>  (2379) 
A4706a

>  <alias>  (2379) 
None

>  <HIPPO Pose ID>  (2379) 
500023

>  <name>  (2379) 
P500023

>  <HIPPO Compound ID>  (2379) 
314492

>  <ref_mols>  (2379) 
A4706a,A0875a

>  <distance_score>  (2379) 
1.709029

>  <inspiration_score>  (2379) 
None

$$$$
P500024
     RDKit          3D

 26 28  0  0  0  0  0  0  0  0999 V2000
    9.3333   17.6091   20.7501 C   0  0  0  0  0  0  0  0  0  0  0  0
   10.2593   16.7183   21.1306 C   0  0  0  0  0  0  0  0  0  0  0  0
   10.4775   15.3034   20.7206 C   0  0  2  0  0  0  0  0  0  0  0  0
    9.3041   14.7346   20.1901 O   0  0  0  0  0  0  0  0  0  0  0  0
    8.2621   14.6533   21.1433 C   0  0  0  0  0  0  0  0  0  0  0  0
    8.6785   13.9993   22.4518 C   0  0  2  0  0  0  0  0  0  0  0  0
    7.6926   14.1897   23.4845 O   0  0  0  0  0  0  0  0  0  0  0  0
    6.5202   13.5349   23.3359 C   0  0  0  0  0  0  0  0  0  0  0  0
    6.2089   12.9406   22.3113 O   0  0  0  0  0  0  0  0  0  0  0  0
    5.6510   13.4934   24.5823 C   0  0  0  0  0  0  0  0  0  0  0  0
    6.1327   12.3737   25.5299 C   0  0  0  0  0  0  0  0  0  0  0  0
    7.0050   12.9005   26.6741 C   0  0  0  0  0  0  0  0  0  0  0  0
    7.7254   14.0525   26.1394 N   0  0  0  0  0  0  0  0  0  0  0  0
    9.2563   14.4865   26.5965 S   0  0  0  0  0  0  0  0  0  0  0  0
    9.2132   14.7939   28.0013 O   0  0  0  0  0  0  0  0  0  0  0  0
    9.7282   15.4584   25.6434 O   0  0  0  0  0  0  0  0  0  0  0  0
   10.2602   13.1815   26.4274 N   0  0  0  0  0  0  0  0  0  0  0  0
   11.6725   13.5031   26.7347 C   0  0  0  0  0  0  0  0  0  0  0  0
   12.6213   13.1447   25.6189 C   0  0  0  0  0  0  0  0  0  0  0  0
   12.4405   11.6942   25.3283 C   0  0  0  0  0  0  0  0  0  0  0  0
   11.0312   11.4480   24.8111 C   0  0  0  0  0  0  0  0  0  0  0  0
    9.9013   12.0571   25.5832 C   0  0  0  0  0  0  0  0  0  0  0  0
    6.8199   15.2310   26.0215 C   0  0  0  0  0  0  0  0  0  0  0  0
    5.5458   14.8419   25.2833 C   0  0  0  0  0  0  0  0  0  0  0  0
   10.0164   14.5723   22.8941 C   0  0  0  0  0  0  0  0  0  0  0  0
   10.9652   14.5629   21.8388 O   0  0  0  0  0  0  0  0  0  0  0  0
  1  2  2  0
  3  2  1  1
  3  4  1  0
  4  5  1  0
  5  6  1  0
  6  7  1  1
  7  8  1  0
  8  9  2  0
  8 10  1  0
 10 11  1  0
 11 12  1  0
 12 13  1  0
 13 14  1  0
 14 15  2  0
 14 16  2  0
 14 17  1  0
 17 18  1  0
 18 19  1  0
 19 20  1  0
 20 21  1  0
 21 22  1  0
 13 23  1  0
 23 24  1  0
  6 25  1  0
 25 26  1  0
 26  3  1  0
 24 10  1  0
 22 17  1  0
M  END
>  <energy_score>  (2380) 
-43.242224

>  <inchikey>  (2380) 
None

>  <smiles>  (2380) 
None

>  <ref_pdb>  (2380) 
A4706a

>  <alias>  (2380) 
None

>  <HIPPO Pose ID>  (2380) 
500024

>  <name>  (2380) 
P500024

>  <HIPPO Compound ID>  (2380) 
314492

>  <ref_mols>  (2380) 
A4706a,A0875a

>  <distance_score>  (2380) 
1.922946

>  <inspiration_score>  (2380) 
None

$$$$
P500025
     RDKit          3D

 26 28  0  0  0  0  0  0  0  0999 V2000
    6.7299   13.1503   22.0905 O   0  0  0  0  0  0  0  0  0  0  0  0
    7.3419   13.8900   22.8467 C   0  0  0  0  0  0  0  0  0  0  0  0
    7.5526   15.2103   22.6386 O   0  0  0  0  0  0  0  0  0  0  0  0
    8.7018   15.6373   21.8585 C   0  0  2  0  0  0  0  0  0  0  0  0
    8.8240   14.8864   20.5367 C   0  0  0  0  0  0  0  0  0  0  0  0
    9.5960   15.6347   19.5386 N   0  0  0  0  0  0  0  0  0  0  0  0
   10.8377   14.9928   19.1414 C   0  0  0  0  0  0  0  0  0  0  0  0
   11.7370   14.5205   20.2769 C   0  0  0  0  0  0  0  0  0  0  0  0
   12.1128   15.4851   21.3880 C   0  0  0  0  0  0  0  0  0  0  0  0
   11.0441   16.2761   21.8648 O   0  0  0  0  0  0  0  0  0  0  0  0
   10.0523   15.5398   22.5740 C   0  0  0  0  0  0  0  0  0  0  0  0
    7.9694   13.4437   24.1260 C   0  0  0  0  0  0  0  0  0  0  0  0
    7.9423   11.9500   24.4022 C   0  0  0  0  0  0  0  0  0  0  0  0
    8.9112   11.6240   25.5371 C   0  0  0  0  0  0  0  0  0  0  0  0
    9.1166   12.7720   26.4417 N   0  0  0  0  0  0  0  0  0  0  0  0
   10.4999   13.7458   26.4395 S   0  0  0  0  0  0  0  0  0  0  0  0
   10.4760   14.3997   27.7208 O   0  0  0  0  0  0  0  0  0  0  0  0
   10.5552   14.5183   25.2264 O   0  0  0  0  0  0  0  0  0  0  0  0
   11.8157   12.6598   26.4015 N   0  0  0  0  0  0  0  0  0  0  0  0
   12.3596   12.4243   25.0570 C   0  0  0  0  0  0  0  0  0  0  0  0
   13.3577   11.2701   25.1390 C   0  0  0  0  0  0  0  0  0  0  0  0
   14.4881   11.4315   26.1210 C   0  0  0  0  0  0  0  0  0  0  0  0
   14.3290   12.7103   26.8794 C   0  0  0  0  0  0  0  0  0  0  0  0
   12.9069   12.9275   27.3994 C   0  0  0  0  0  0  0  0  0  0  0  0
    7.8443   13.5459   26.6361 C   0  0  0  0  0  0  0  0  0  0  0  0
    7.4463   14.2270   25.3314 C   0  0  0  0  0  0  0  0  0  0  0  0
  1  2  2  0
  2  3  1  0
  4  3  1  1
  4  5  1  0
  5  6  1  0
  6  7  1  0
  7  8  1  0
  8  9  1  0
  9 10  1  0
 10 11  1  0
  2 12  1  0
 12 13  1  0
 13 14  1  0
 14 15  1  0
 15 16  1  0
 16 17  2  0
 16 18  2  0
 16 19  1  0
 19 20  1  0
 20 21  1  0
 21 22  1  0
 22 23  1  0
 23 24  1  0
 15 25  1  0
 25 26  1  0
 11  4  1  0
 26 12  1  0
 24 19  1  0
M  END
>  <energy_score>  (2381) 
-51.325223

>  <inchikey>  (2381) 
None

>  <smiles>  (2381) 
None

>  <ref_pdb>  (2381) 
A4706a

>  <alias>  (2381) 
None

>  <HIPPO Pose ID>  (2381) 
500025

>  <name>  (2381) 
P500025

>  <HIPPO Compound ID>  (2381) 
314493

>  <ref_mols>  (2381) 
A0875a,A4706a

>  <distance_score>  (2381) 
1.956185

>  <inspiration_score>  (2381) 
None

$$$$
P500026
     RDKit          3D

 26 28  0  0  0  0  0  0  0  0999 V2000
    7.0060   15.5651   23.1898 O   0  0  0  0  0  0  0  0  0  0  0  0
    7.1441   14.3547   23.2989 C   0  0  0  0  0  0  0  0  0  0  0  0
    8.1097   13.6368   22.6750 O   0  0  0  0  0  0  0  0  0  0  0  0
    9.1711   14.3301   21.9408 C   0  0  1  0  0  0  0  0  0  0  0  0
    8.6473   15.0477   20.7020 C   0  0  0  0  0  0  0  0  0  0  0  0
    9.6088   15.7052   19.8108 N   0  0  0  0  0  0  0  0  0  0  0  0
   10.7339   14.9477   19.3079 C   0  0  0  0  0  0  0  0  0  0  0  0
   11.8166   14.6434   20.3248 C   0  0  0  0  0  0  0  0  0  0  0  0
   11.9455   15.6222   21.4778 C   0  0  0  0  0  0  0  0  0  0  0  0
   11.3559   15.1286   22.6697 O   0  0  0  0  0  0  0  0  0  0  0  0
    9.9534   15.3505   22.7520 C   0  0  0  0  0  0  0  0  0  0  0  0
    6.1842   13.4754   24.1151 C   0  0  0  0  0  0  0  0  0  0  0  0
    6.8089   12.1841   24.7238 C   0  0  0  0  0  0  0  0  0  0  0  0
    7.3274   12.4029   26.1400 C   0  0  0  0  0  0  0  0  0  0  0  0
    7.8274   13.7550   26.1239 N   0  0  0  0  0  0  0  0  0  0  0  0
    9.3749   14.2127   26.4025 S   0  0  0  0  0  0  0  0  0  0  0  0
    9.4405   15.6250   26.1184 O   0  0  0  0  0  0  0  0  0  0  0  0
    9.8155   13.7317   27.6795 O   0  0  0  0  0  0  0  0  0  0  0  0
   10.3556   13.4665   25.2688 N   0  0  0  0  0  0  0  0  0  0  0  0
   10.5012   12.0146   25.0898 C   0  0  0  0  0  0  0  0  0  0  0  0
   11.8270   11.5077   25.6626 C   0  0  0  0  0  0  0  0  0  0  0  0
   13.0920   12.1399   25.1618 C   0  0  0  0  0  0  0  0  0  0  0  0
   12.7020   13.4385   24.5230 C   0  0  0  0  0  0  0  0  0  0  0  0
   11.6709   14.1418   25.3562 C   0  0  0  0  0  0  0  0  0  0  0  0
    6.7432   14.7608   26.2189 C   0  0  0  0  0  0  0  0  0  0  0  0
    5.6168   14.3367   25.2622 C   0  0  0  0  0  0  0  0  0  0  0  0
  1  2  2  0
  2  3  1  0
  4  3  1  1
  4  5  1  0
  5  6  1  0
  6  7  1  0
  7  8  1  0
  8  9  1  0
  9 10  1  0
 10 11  1  0
  2 12  1  0
 12 13  1  0
 13 14  1  0
 14 15  1  0
 15 16  1  0
 16 17  2  0
 16 18  2  0
 16 19  1  0
 19 20  1  0
 20 21  1  0
 21 22  1  0
 22 23  1  0
 23 24  1  0
 15 25  1  0
 25 26  1  0
 11  4  1  0
 26 12  1  0
 24 19  1  0
M  END
>  <energy_score>  (2382) 
-40.302438

>  <inchikey>  (2382) 
None

>  <smiles>  (2382) 
None

>  <ref_pdb>  (2382) 
A4706a

>  <alias>  (2382) 
None

>  <HIPPO Pose ID>  (2382) 
500026

>  <name>  (2382) 
P500026

>  <HIPPO Compound ID>  (2382) 
314493

>  <ref_mols>  (2382) 
A4706a,A0875a

>  <distance_score>  (2382) 
1.83367

>  <inspiration_score>  (2382) 
None

$$$$
P500027
     RDKit          3D

 26 28  0  0  0  0  0  0  0  0999 V2000
    7.3542   15.9647   22.0856 C   0  0  0  0  0  0  0  0  0  0  0  0
    8.2248   14.7522   22.3989 C   0  0  1  0  0  0  0  0  0  0  0  0
    9.6963   15.1521   22.6511 C   0  0  0  0  0  0  0  0  0  0  0  0
   10.5913   14.4422   21.7923 O   0  0  0  0  0  0  0  0  0  0  0  0
   11.0390   15.2064   20.6531 C   0  0  0  0  0  0  0  0  0  0  0  0
   11.7776   14.4714   19.5369 C   0  0  0  0  0  0  0  0  0  0  0  0
   10.6016   14.5502   18.6783 N   0  0  0  0  0  0  0  0  0  0  0  0
    9.9856   15.5242   19.5823 C   0  0  0  0  0  0  0  0  0  0  0  0
    7.6369   14.1694   23.5851 O   0  0  0  0  0  0  0  0  0  0  0  0
    6.5106   13.4417   23.4035 C   0  0  0  0  0  0  0  0  0  0  0  0
    6.1576   13.0131   22.3094 O   0  0  0  0  0  0  0  0  0  0  0  0
    5.7350   13.1405   24.6825 C   0  0  0  0  0  0  0  0  0  0  0  0
    6.3564   11.9732   25.4728 C   0  0  0  0  0  0  0  0  0  0  0  0
    7.3119   12.4279   26.5761 C   0  0  0  0  0  0  0  0  0  0  0  0
    7.7627   13.7592   26.2068 N   0  0  0  0  0  0  0  0  0  0  0  0
    9.2931   14.3214   26.4370 S   0  0  0  0  0  0  0  0  0  0  0  0
    9.5325   14.3847   27.8547 O   0  0  0  0  0  0  0  0  0  0  0  0
    9.4327   15.5080   25.6344 O   0  0  0  0  0  0  0  0  0  0  0  0
   10.3385   13.1873   25.8318 N   0  0  0  0  0  0  0  0  0  0  0  0
   10.0372   12.3279   24.6884 C   0  0  0  0  0  0  0  0  0  0  0  0
   10.7673   11.0325   25.0195 C   0  0  0  0  0  0  0  0  0  0  0  0
   12.2455   11.3271   25.4334 C   0  0  0  0  0  0  0  0  0  0  0  0
   12.6577   12.7369   25.0694 C   0  0  0  0  0  0  0  0  0  0  0  0
   11.7359   13.6960   25.8080 C   0  0  0  0  0  0  0  0  0  0  0  0
    6.7029   14.7734   26.3858 C   0  0  0  0  0  0  0  0  0  0  0  0
    5.5006   14.3859   25.5372 C   0  0  0  0  0  0  0  0  0  0  0  0
  2  1  1  1
  2  3  1  0
  3  4  1  0
  4  5  1  0
  5  6  1  0
  6  7  1  0
  7  8  1  0
  2  9  1  0
  9 10  1  0
 10 11  2  0
 10 12  1  0
 12 13  1  0
 13 14  1  0
 14 15  1  0
 15 16  1  0
 16 17  2  0
 16 18  2  0
 16 19  1  0
 19 20  1  0
 20 21  1  0
 21 22  1  0
 22 23  1  0
 23 24  1  0
 15 25  1  0
 25 26  1  0
  8  5  1  0
 26 12  1  0
 24 19  1  0
M  END
>  <energy_score>  (2383) 
-64.252125

>  <inchikey>  (2383) 
None

>  <smiles>  (2383) 
None

>  <ref_pdb>  (2383) 
A4706a

>  <alias>  (2383) 
None

>  <HIPPO Pose ID>  (2383) 
500027

>  <name>  (2383) 
P500027

>  <HIPPO Compound ID>  (2383) 
314494

>  <ref_mols>  (2383) 
A0875a,A4706a

>  <distance_score>  (2383) 
1.719212

>  <inspiration_score>  (2383) 
None

$$$$
P500028
     RDKit          3D

 26 29  0  0  0  0  0  0  0  0999 V2000
    6.2364   13.0228   22.6592 O   0  0  0  0  0  0  0  0  0  0  0  0
    6.7192   13.7484   23.5126 C   0  0  0  0  0  0  0  0  0  0  0  0
    7.7018   14.6994   23.3691 O   0  0  0  0  0  0  0  0  0  0  0  0
    8.3000   14.9988   22.1211 C   0  0  0  0  0  0  0  0  0  0  0  0
    9.6733   14.4511   21.8165 C   0  0  1  0  0  0  0  0  0  0  0  0
   10.2946   14.8605   20.4752 C   0  0  0  0  0  0  0  0  0  0  0  0
   11.7497   14.7264   20.7800 C   0  0  0  0  0  0  0  0  0  0  0  0
   11.7877   15.3152   22.1673 C   0  0  0  0  0  0  0  0  0  0  0  0
   10.6182   14.8362   22.8305 O   0  0  0  0  0  0  0  0  0  0  0  0
    7.3429   15.0075   21.0229 C   0  0  0  0  0  0  0  0  0  0  0  0
    7.8503   16.3187   21.5781 C   0  0  0  0  0  0  0  0  0  0  0  0
    6.4237   13.7059   24.9714 C   0  0  0  0  0  0  0  0  0  0  0  0
    6.0946   12.4347   25.7201 C   0  0  0  0  0  0  0  0  0  0  0  0
    7.0069   12.4023   26.9705 C   0  0  0  0  0  0  0  0  0  0  0  0
    7.6493   13.7359   27.2324 N   0  0  0  0  0  0  0  0  0  0  0  0
    9.2342   14.1814   26.7310 S   0  0  0  0  0  0  0  0  0  0  0  0
    9.1601   15.1842   25.6957 O   0  0  0  0  0  0  0  0  0  0  0  0
    9.9581   14.4614   27.9453 O   0  0  0  0  0  0  0  0  0  0  0  0
    9.9660   12.8105   26.0449 N   0  0  0  0  0  0  0  0  0  0  0  0
   11.4325   13.0488   25.8682 C   0  0  0  0  0  0  0  0  0  0  0  0
   12.1163   11.7152   25.5921 C   0  0  0  0  0  0  0  0  0  0  0  0
   11.1035   10.6413   25.1348 C   0  0  0  0  0  0  0  0  0  0  0  0
   10.2296   11.2740   24.0788 C   0  0  0  0  0  0  0  0  0  0  0  0
    9.3939   12.3257   24.7550 C   0  0  0  0  0  0  0  0  0  0  0  0
    6.6474   14.8512   27.1687 C   0  0  0  0  0  0  0  0  0  0  0  0
    6.0530   14.9572   25.7484 C   0  0  0  0  0  0  0  0  0  0  0  0
  1  2  2  0
  2  3  1  0
  3  4  1  0
  5  4  1  1
  5  6  1  0
  6  7  1  0
  7  8  1  0
  8  9  1  0
  4 10  1  0
 10 11  1  0
  2 12  1  0
 12 13  1  0
 13 14  1  0
 14 15  1  0
 15 16  1  0
 16 17  2  0
 16 18  2  0
 16 19  1  0
 19 20  1  0
 20 21  1  0
 21 22  1  0
 22 23  1  0
 23 24  1  0
 15 25  1  0
 25 26  1  0
 11  4  1  0
 26 12  1  0
  9  5  1  0
 24 19  1  0
M  END
>  <energy_score>  (2384) 
-24.683911

>  <inchikey>  (2384) 
None

>  <smiles>  (2384) 
None

>  <ref_pdb>  (2384) 
A4706a

>  <alias>  (2384) 
None

>  <HIPPO Pose ID>  (2384) 
500028

>  <name>  (2384) 
P500028

>  <HIPPO Compound ID>  (2384) 
314495

>  <ref_mols>  (2384) 
A4706a,A0875a

>  <distance_score>  (2384) 
1.874659

>  <inspiration_score>  (2384) 
None

$$$$
P500029
     RDKit          3D

 26 29  0  0  0  0  0  0  0  0999 V2000
    5.0637   13.7863   22.6267 O   0  0  0  0  0  0  0  0  0  0  0  0
    6.2698   13.7580   22.8313 C   0  0  0  0  0  0  0  0  0  0  0  0
    7.1646   13.8336   21.8017 O   0  0  0  0  0  0  0  0  0  0  0  0
    8.1568   14.8961   21.6973 C   0  0  0  0  0  0  0  0  0  0  0  0
    9.3832   14.5293   20.9034 C   0  0  1  0  0  0  0  0  0  0  0  0
    9.7564   15.4174   19.7315 C   0  0  0  0  0  0  0  0  0  0  0  0
   11.1518   14.9446   19.4706 C   0  0  0  0  0  0  0  0  0  0  0  0
   11.6780   14.7700   20.8815 C   0  0  0  0  0  0  0  0  0  0  0  0
   10.5621   14.4963   21.7356 O   0  0  0  0  0  0  0  0  0  0  0  0
    8.3839   15.8033   22.8460 C   0  0  0  0  0  0  0  0  0  0  0  0
    7.6239   16.3137   21.6851 C   0  0  0  0  0  0  0  0  0  0  0  0
    6.8799   13.5298   24.1985 C   0  0  0  0  0  0  0  0  0  0  0  0
    7.1264   12.0797   24.5789 C   0  0  0  0  0  0  0  0  0  0  0  0
    7.9250   11.9682   25.8724 C   0  0  0  0  0  0  0  0  0  0  0  0
    7.9150   13.2309   26.6225 N   0  0  0  0  0  0  0  0  0  0  0  0
    9.2055   14.3062   26.6542 S   0  0  0  0  0  0  0  0  0  0  0  0
    9.4111   14.6144   28.0449 O   0  0  0  0  0  0  0  0  0  0  0  0
    8.9847   15.3616   25.7002 O   0  0  0  0  0  0  0  0  0  0  0  0
   10.5095   13.3896   26.1088 N   0  0  0  0  0  0  0  0  0  0  0  0
   10.7897   13.6197   24.6754 C   0  0  0  0  0  0  0  0  0  0  0  0
   11.6292   12.4856   24.1862 C   0  0  0  0  0  0  0  0  0  0  0  0
   12.5024   11.8107   25.2435 C   0  0  0  0  0  0  0  0  0  0  0  0
   12.8702   12.6974   26.4112 C   0  0  0  0  0  0  0  0  0  0  0  0
   11.7515   13.6322   26.8721 C   0  0  0  0  0  0  0  0  0  0  0  0
    6.5742   13.8498   26.7034 C   0  0  0  0  0  0  0  0  0  0  0  0
    6.0925   14.2443   25.3071 C   0  0  0  0  0  0  0  0  0  0  0  0
  1  2  2  0
  2  3  1  0
  3  4  1  0
  5  4  1  1
  5  6  1  0
  6  7  1  0
  7  8  1  0
  8  9  1  0
  4 10  1  0
 10 11  1  0
  2 12  1  0
 12 13  1  0
 13 14  1  0
 14 15  1  0
 15 16  1  0
 16 17  2  0
 16 18  2  0
 16 19  1  0
 19 20  1  0
 20 21  1  0
 21 22  1  0
 22 23  1  0
 23 24  1  0
 15 25  1  0
 25 26  1  0
 11  4  1  0
 26 12  1  0
  9  5  1  0
 24 19  1  0
M  END
>  <energy_score>  (2385) 
-33.189769

>  <inchikey>  (2385) 
None

>  <smiles>  (2385) 
None

>  <ref_pdb>  (2385) 
A4706a

>  <alias>  (2385) 
None

>  <HIPPO Pose ID>  (2385) 
500029

>  <name>  (2385) 
P500029

>  <HIPPO Compound ID>  (2385) 
314495

>  <ref_mols>  (2385) 
A4706a,A0875a

>  <distance_score>  (2385) 
1.632291

>  <inspiration_score>  (2385) 
None

$$$$
P500030
     RDKit          3D

 26 29  0  0  0  0  0  0  0  0999 V2000
    6.3072   13.1544   22.1783 O   0  0  0  0  0  0  0  0  0  0  0  0
    6.7340   13.8486   23.0847 C   0  0  0  0  0  0  0  0  0  0  0  0
    7.1646   15.1393   23.0417 O   0  0  0  0  0  0  0  0  0  0  0  0
    7.3521   15.6949   21.7611 C   0  0  0  0  0  0  0  0  0  0  0  0
    8.6400   15.2353   21.1645 C   0  0  1  0  0  0  0  0  0  0  0  0
    9.5404   16.2670   20.5340 C   0  0  2  0  0  0  0  0  0  0  0  0
   10.0641   15.9324   19.2330 O   0  0  0  0  0  0  0  0  0  0  0  0
   11.0259   14.8908   19.1941 C   0  0  0  0  0  0  0  0  0  0  0  0
   11.8053   14.7233   20.4884 C   0  0  0  0  0  0  0  0  0  0  0  0
   10.9508   14.4730   21.6056 O   0  0  0  0  0  0  0  0  0  0  0  0
    9.9875   15.5278   21.7669 C   0  0  2  0  0  0  0  0  0  0  0  0
    6.9890   13.4112   24.4748 C   0  0  0  0  0  0  0  0  0  0  0  0
    7.1985   11.9564   24.8045 C   0  0  0  0  0  0  0  0  0  0  0  0
    8.0454   11.8906   26.0734 C   0  0  0  0  0  0  0  0  0  0  0  0
    8.0414   13.1856   26.8050 N   0  0  0  0  0  0  0  0  0  0  0  0
    9.2911   14.3302   26.6887 S   0  0  0  0  0  0  0  0  0  0  0  0
    9.5636   14.7177   28.0478 O   0  0  0  0  0  0  0  0  0  0  0  0
    8.9795   15.3299   25.6950 O   0  0  0  0  0  0  0  0  0  0  0  0
   10.5850   13.4206   26.1139 N   0  0  0  0  0  0  0  0  0  0  0  0
   10.8832   13.6657   24.6882 C   0  0  0  0  0  0  0  0  0  0  0  0
   11.6545   12.4857   24.1910 C   0  0  0  0  0  0  0  0  0  0  0  0
   12.5337   11.7967   25.2372 C   0  0  0  0  0  0  0  0  0  0  0  0
   12.9429   12.6925   26.3824 C   0  0  0  0  0  0  0  0  0  0  0  0
   11.8221   13.5949   26.8985 C   0  0  0  0  0  0  0  0  0  0  0  0
    6.6822   13.7687   26.9286 C   0  0  0  0  0  0  0  0  0  0  0  0
    6.1596   14.1251   25.5380 C   0  0  0  0  0  0  0  0  0  0  0  0
  1  2  2  0
  2  3  1  0
  3  4  1  0
  5  4  1  1
  5  6  1  0
  6  7  1  6
  7  8  1  0
  8  9  1  0
  9 10  1  0
 11 10  1  6
  2 12  1  0
 12 13  1  0
 13 14  1  0
 14 15  1  0
 15 16  1  0
 16 17  2  0
 16 18  2  0
 16 19  1  0
 19 20  1  0
 20 21  1  0
 21 22  1  0
 22 23  1  0
 23 24  1  0
 15 25  1  0
 25 26  1  0
 11  5  1  0
 26 12  1  0
 11  6  1  0
 24 19  1  0
M  END
>  <energy_score>  (2386) 
-37.518926

>  <inchikey>  (2386) 
None

>  <smiles>  (2386) 
None

>  <ref_pdb>  (2386) 
A4706a

>  <alias>  (2386) 
None

>  <HIPPO Pose ID>  (2386) 
500030

>  <name>  (2386) 
P500030

>  <HIPPO Compound ID>  (2386) 
314496

>  <ref_mols>  (2386) 
A4706a,A0875a

>  <distance_score>  (2386) 
1.626389

>  <inspiration_score>  (2386) 
None

$$$$
P500031
     RDKit          3D

 26 29  0  0  0  0  0  0  0  0999 V2000
    4.4233   14.8282   22.6752 O   0  0  0  0  0  0  0  0  0  0  0  0
    5.6382   14.6693   22.7402 C   0  0  0  0  0  0  0  0  0  0  0  0
    6.4097   14.6678   21.6190 O   0  0  0  0  0  0  0  0  0  0  0  0
    7.8585   14.4766   21.5365 C   0  0  0  0  0  0  0  0  0  0  0  0
    8.6185   15.7489   21.6091 C   0  0  2  0  0  0  0  0  0  0  0  0
    9.5260   16.3021   20.5345 C   0  0  2  0  0  0  0  0  0  0  0  0
    9.6561   15.5421   19.3197 O   0  0  0  0  0  0  0  0  0  0  0  0
   10.9155   14.9041   19.1398 C   0  0  0  0  0  0  0  0  0  0  0  0
   11.6823   14.6186   20.4318 C   0  0  0  0  0  0  0  0  0  0  0  0
   10.8052   14.4529   21.5511 O   0  0  0  0  0  0  0  0  0  0  0  0
   10.1171   15.6997   21.7815 C   0  0  2  0  0  0  0  0  0  0  0  0
    6.3494   14.4416   24.0470 C   0  0  0  0  0  0  0  0  0  0  0  0
    6.5872   12.9545   24.3304 C   0  0  0  0  0  0  0  0  0  0  0  0
    7.0729   12.6903   25.7502 C   0  0  0  0  0  0  0  0  0  0  0  0
    7.7111   13.8818   26.3172 N   0  0  0  0  0  0  0  0  0  0  0  0
    9.2340   14.4532   25.8725 S   0  0  0  0  0  0  0  0  0  0  0  0
    9.6803   15.2522   26.9884 O   0  0  0  0  0  0  0  0  0  0  0  0
    9.2154   15.0281   24.5543 O   0  0  0  0  0  0  0  0  0  0  0  0
   10.2807   13.1576   25.7652 N   0  0  0  0  0  0  0  0  0  0  0  0
   10.1313   12.2428   24.6152 C   0  0  0  0  0  0  0  0  0  0  0  0
   10.8570   10.9855   25.0515 C   0  0  0  0  0  0  0  0  0  0  0  0
   12.3181   11.3246   25.4689 C   0  0  0  0  0  0  0  0  0  0  0  0
   12.6798   12.7542   25.1368 C   0  0  0  0  0  0  0  0  0  0  0  0
   11.6950   13.6673   25.8517 C   0  0  0  0  0  0  0  0  0  0  0  0
    6.6931   14.9827   26.4884 C   0  0  0  0  0  0  0  0  0  0  0  0
    5.7256   15.0710   25.2893 C   0  0  0  0  0  0  0  0  0  0  0  0
  1  2  2  0
  2  3  1  0
  3  4  1  0
  5  4  1  6
  5  6  1  0
  6  7  1  6
  7  8  1  0
  8  9  1  0
  9 10  1  0
 11 10  1  6
  2 12  1  0
 12 13  1  0
 13 14  1  0
 14 15  1  0
 15 16  1  0
 16 17  2  0
 16 18  2  0
 16 19  1  0
 19 20  1  0
 20 21  1  0
 21 22  1  0
 22 23  1  0
 23 24  1  0
 15 25  1  0
 25 26  1  0
 11  5  1  0
 26 12  1  0
 11  6  1  0
 24 19  1  0
M  END
>  <energy_score>  (2387) 
-58.38423

>  <inchikey>  (2387) 
None

>  <smiles>  (2387) 
None

>  <ref_pdb>  (2387) 
A4706a

>  <alias>  (2387) 
None

>  <HIPPO Pose ID>  (2387) 
500031

>  <name>  (2387) 
P500031

>  <HIPPO Compound ID>  (2387) 
314496

>  <ref_mols>  (2387) 
A0875a,A4706a

>  <distance_score>  (2387) 
1.934337

>  <inspiration_score>  (2387) 
None

$$$$
P500032
     RDKit          3D

 26 29  0  0  0  0  0  0  0  0999 V2000
    6.6182   12.9116   22.7255 O   0  0  0  0  0  0  0  0  0  0  0  0
    6.4643   13.8729   23.4756 C   0  0  0  0  0  0  0  0  0  0  0  0
    6.7476   15.1482   23.1403 O   0  0  0  0  0  0  0  0  0  0  0  0
    7.2657   15.3680   21.8131 C   0  0  0  0  0  0  0  0  0  0  0  0
    8.6837   14.9229   21.5999 C   0  0  1  0  0  0  0  0  0  0  0  0
    9.4231   15.3741   20.3651 C   0  0  2  0  0  0  0  0  0  0  0  0
   10.2695   14.3977   19.7529 O   0  0  0  0  0  0  0  0  0  0  0  0
   11.6181   14.7892   19.9016 C   0  0  0  0  0  0  0  0  0  0  0  0
   11.9885   14.8188   21.3768 C   0  0  0  0  0  0  0  0  0  0  0  0
   11.0444   15.3641   22.2935 O   0  0  0  0  0  0  0  0  0  0  0  0
    9.8406   15.8811   21.7091 C   0  0  2  0  0  0  0  0  0  0  0  0
    5.8711   13.7244   24.8797 C   0  0  0  0  0  0  0  0  0  0  0  0
    6.3412   12.3959   25.4864 C   0  0  0  0  0  0  0  0  0  0  0  0
    7.8349   12.4339   25.7873 C   0  0  0  0  0  0  0  0  0  0  0  0
    8.2694   13.6752   26.4811 N   0  0  0  0  0  0  0  0  0  0  0  0
    9.4395   14.6969   25.7861 S   0  0  0  0  0  0  0  0  0  0  0  0
    8.9524   15.1110   24.5049 O   0  0  0  0  0  0  0  0  0  0  0  0
    9.7719   15.6710   26.7971 O   0  0  0  0  0  0  0  0  0  0  0  0
   10.7881   13.7714   25.5428 N   0  0  0  0  0  0  0  0  0  0  0  0
   10.7957   12.8653   24.3974 C   0  0  0  0  0  0  0  0  0  0  0  0
   11.0241   11.4845   24.9563 C   0  0  0  0  0  0  0  0  0  0  0  0
   12.5023   11.4879   25.3488 C   0  0  0  0  0  0  0  0  0  0  0  0
   12.7891   12.5358   26.4116 C   0  0  0  0  0  0  0  0  0  0  0  0
   11.5878   13.4296   26.7247 C   0  0  0  0  0  0  0  0  0  0  0  0
    7.1042   14.4491   27.0068 C   0  0  0  0  0  0  0  0  0  0  0  0
    6.1615   14.8638   25.8725 C   0  0  0  0  0  0  0  0  0  0  0  0
  1  2  2  0
  2  3  1  0
  3  4  1  0
  5  4  1  6
  5  6  1  0
  6  7  1  1
  7  8  1  0
  8  9  1  0
  9 10  1  0
 11 10  1  1
  2 12  1  0
 12 13  1  0
 13 14  1  0
 14 15  1  0
 15 16  1  0
 16 17  2  0
 16 18  2  0
 16 19  1  0
 19 20  1  0
 20 21  1  0
 21 22  1  0
 22 23  1  0
 23 24  1  0
 15 25  1  0
 25 26  1  0
 11  5  1  0
 26 12  1  0
 11  6  1  0
 24 19  1  0
M  END
>  <energy_score>  (2388) 
-92.547115

>  <inchikey>  (2388) 
None

>  <smiles>  (2388) 
None

>  <ref_pdb>  (2388) 
A4706a

>  <alias>  (2388) 
None

>  <HIPPO Pose ID>  (2388) 
500032

>  <name>  (2388) 
P500032

>  <HIPPO Compound ID>  (2388) 
314496

>  <ref_mols>  (2388) 
A4706a,A0875a

>  <distance_score>  (2388) 
1.576621

>  <inspiration_score>  (2388) 
None

$$$$
P500033
     RDKit          3D

 26 29  0  0  0  0  0  0  0  0999 V2000
    6.0650   12.8885   22.1170 O   0  0  0  0  0  0  0  0  0  0  0  0
    6.2561   13.6880   23.0269 C   0  0  0  0  0  0  0  0  0  0  0  0
    7.1635   14.6816   22.9347 O   0  0  0  0  0  0  0  0  0  0  0  0
    7.9965   14.6166   21.7523 C   0  0  0  0  0  0  0  0  0  0  0  0
    8.8325   15.8365   21.6857 C   0  0  2  0  0  0  0  0  0  0  0  0
    9.6293   16.2770   20.4928 C   0  0  2  0  0  0  0  0  0  0  0  0
    9.6478   15.4089   19.3525 O   0  0  0  0  0  0  0  0  0  0  0  0
   10.9305   14.8657   19.0783 C   0  0  0  0  0  0  0  0  0  0  0  0
   11.7656   14.5655   20.3272 C   0  0  0  0  0  0  0  0  0  0  0  0
   10.9859   14.4956   21.5229 O   0  0  0  0  0  0  0  0  0  0  0  0
   10.3346   15.7677   21.7282 C   0  0  2  0  0  0  0  0  0  0  0  0
    5.5524   13.5401   24.3757 C   0  0  0  0  0  0  0  0  0  0  0  0
    6.1811   12.3862   25.2082 C   0  0  0  0  0  0  0  0  0  0  0  0
    7.2261   12.8692   26.2223 C   0  0  0  0  0  0  0  0  0  0  0  0
    7.7766   14.0807   25.6382 N   0  0  0  0  0  0  0  0  0  0  0  0
    9.3466   14.5513   25.7738 S   0  0  0  0  0  0  0  0  0  0  0  0
    9.5365   15.0270   27.1212 O   0  0  0  0  0  0  0  0  0  0  0  0
    9.6449   15.3843   24.6394 O   0  0  0  0  0  0  0  0  0  0  0  0
   10.3096   13.2155   25.6162 N   0  0  0  0  0  0  0  0  0  0  0  0
   10.0890   12.2885   24.5005 C   0  0  0  0  0  0  0  0  0  0  0  0
   10.7566   11.0043   24.9892 C   0  0  0  0  0  0  0  0  0  0  0  0
   12.2306   11.2767   25.4290 C   0  0  0  0  0  0  0  0  0  0  0  0
   12.6780   12.6667   25.0540 C   0  0  0  0  0  0  0  0  0  0  0  0
   11.7405   13.6390   25.7399 C   0  0  0  0  0  0  0  0  0  0  0  0
    6.8302   15.2213   25.7679 C   0  0  0  0  0  0  0  0  0  0  0  0
    5.4822   14.8323   25.1813 C   0  0  0  0  0  0  0  0  0  0  0  0
  1  2  2  0
  2  3  1  0
  3  4  1  0
  5  4  1  6
  5  6  1  0
  6  7  1  6
  7  8  1  0
  8  9  1  0
  9 10  1  0
 11 10  1  6
  2 12  1  0
 12 13  1  0
 13 14  1  0
 14 15  1  0
 15 16  1  0
 16 17  2  0
 16 18  2  0
 16 19  1  0
 19 20  1  0
 20 21  1  0
 21 22  1  0
 22 23  1  0
 23 24  1  0
 15 25  1  0
 25 26  1  0
 11  5  1  0
 26 12  1  0
 11  6  1  0
 24 19  1  0
M  END
>  <energy_score>  (2389) 
-109.980299

>  <inchikey>  (2389) 
None

>  <smiles>  (2389) 
None

>  <ref_pdb>  (2389) 
A4706a

>  <alias>  (2389) 
None

>  <HIPPO Pose ID>  (2389) 
500033

>  <name>  (2389) 
P500033

>  <HIPPO Compound ID>  (2389) 
314496

>  <ref_mols>  (2389) 
A4706a,A0875a

>  <distance_score>  (2389) 
1.670828

>  <inspiration_score>  (2389) 
None

$$$$
P500034
     RDKit          3D

 26 28  0  0  0  0  0  0  0  0999 V2000
   11.5876   15.0051   18.0763 N   0  0  0  0  0  0  0  0  0  0  0  0
   11.1862   14.9352   19.4607 C   0  0  0  0  0  0  0  0  0  0  0  0
    9.9397   15.7684   19.7374 C   0  0  0  0  0  0  0  0  0  0  0  0
    9.4780   15.8908   21.2133 C   0  0  2  0  0  0  0  0  0  0  0  0
   10.6339   15.8040   22.1962 C   0  0  0  0  0  0  0  0  0  0  0  0
   10.8860   14.4161   22.4184 O   0  0  0  0  0  0  0  0  0  0  0  0
    9.6717   13.7206   22.1020 C   0  0  0  0  0  0  0  0  0  0  0  0
    8.6147   14.7127   21.6324 C   0  0  1  0  0  0  0  0  0  0  0  0
    7.6890   15.0254   22.7118 O   0  0  0  0  0  0  0  0  0  0  0  0
    6.8604   13.9906   23.0070 C   0  0  0  0  0  0  0  0  0  0  0  0
    6.7584   13.0003   22.2798 O   0  0  0  0  0  0  0  0  0  0  0  0
    6.0677   14.0602   24.3146 C   0  0  0  0  0  0  0  0  0  0  0  0
    6.1146   12.6611   24.9660 C   0  0  0  0  0  0  0  0  0  0  0  0
    7.4893   12.3473   25.5465 C   0  0  0  0  0  0  0  0  0  0  0  0
    7.9880   13.4308   26.4190 N   0  0  0  0  0  0  0  0  0  0  0  0
    9.4527   14.1637   26.0553 S   0  0  0  0  0  0  0  0  0  0  0  0
    9.3708   14.6792   24.7213 O   0  0  0  0  0  0  0  0  0  0  0  0
    9.7172   15.0834   27.1376 O   0  0  0  0  0  0  0  0  0  0  0  0
   10.6911   13.0434   26.1001 N   0  0  0  0  0  0  0  0  0  0  0  0
   10.7294   11.8275   25.2682 C   0  0  0  0  0  0  0  0  0  0  0  0
   12.0717   11.1354   25.5703 C   0  0  0  0  0  0  0  0  0  0  0  0
   13.3104   11.8606   25.1541 C   0  0  0  0  0  0  0  0  0  0  0  0
   12.9161   13.2944   24.9545 C   0  0  0  0  0  0  0  0  0  0  0  0
   11.9975   13.7678   26.0748 C   0  0  0  0  0  0  0  0  0  0  0  0
    6.9330   14.4701   26.6823 C   0  0  0  0  0  0  0  0  0  0  0  0
    6.4492   15.1062   25.3667 C   0  0  0  0  0  0  0  0  0  0  0  0
  1  2  1  0
  2  3  1  0
  4  3  1  6
  4  5  1  0
  5  6  1  0
  6  7  1  0
  7  8  1  0
  8  9  1  1
  9 10  1  0
 10 11  2  0
 10 12  1  0
 12 13  1  0
 13 14  1  0
 14 15  1  0
 15 16  1  0
 16 17  2  0
 16 18  2  0
 16 19  1  0
 19 20  1  0
 20 21  1  0
 21 22  1  0
 22 23  1  0
 23 24  1  0
 15 25  1  0
 25 26  1  0
  8  4  1  0
 26 12  1  0
 24 19  1  0
M  END
>  <energy_score>  (2390) 
-40.372183

>  <inchikey>  (2390) 
None

>  <smiles>  (2390) 
None

>  <ref_pdb>  (2390) 
A4706a

>  <alias>  (2390) 
None

>  <HIPPO Pose ID>  (2390) 
500034

>  <name>  (2390) 
P500034

>  <HIPPO Compound ID>  (2390) 
314498

>  <ref_mols>  (2390) 
A0875a,A4706a

>  <distance_score>  (2390) 
1.26857

>  <inspiration_score>  (2390) 
None

$$$$
P500035
     RDKit          3D

 26 28  0  0  0  0  0  0  0  0999 V2000
   11.7380   13.9022   18.9163 N   0  0  0  0  0  0  0  0  0  0  0  0
   11.2419   15.2429   19.0815 C   0  0  0  0  0  0  0  0  0  0  0  0
    9.8222   15.3638   19.5997 C   0  0  0  0  0  0  0  0  0  0  0  0
    9.5361   14.4906   20.8379 C   0  0  1  0  0  0  0  0  0  0  0  0
   10.4659   14.8324   21.9780 C   0  0  0  0  0  0  0  0  0  0  0  0
    9.8371   15.9085   22.6618 O   0  0  0  0  0  0  0  0  0  0  0  0
    8.4545   15.9886   22.2270 C   0  0  0  0  0  0  0  0  0  0  0  0
    8.1700   14.7291   21.4520 C   0  0  2  0  0  0  0  0  0  0  0  0
    7.8106   13.6662   22.3764 O   0  0  0  0  0  0  0  0  0  0  0  0
    6.5900   13.8074   22.9695 C   0  0  0  0  0  0  0  0  0  0  0  0
    5.6823   14.4881   22.5062 O   0  0  0  0  0  0  0  0  0  0  0  0
    6.4799   13.1053   24.3263 C   0  0  0  0  0  0  0  0  0  0  0  0
    7.5071   11.9718   24.5370 C   0  0  0  0  0  0  0  0  0  0  0  0
    7.9861   11.7554   25.9528 C   0  0  0  0  0  0  0  0  0  0  0  0
    8.2575   13.0335   26.6039 N   0  0  0  0  0  0  0  0  0  0  0  0
    9.5449   13.9786   26.0663 S   0  0  0  0  0  0  0  0  0  0  0  0
    9.3845   14.2043   24.6606 O   0  0  0  0  0  0  0  0  0  0  0  0
    9.6276   15.0841   26.9887 O   0  0  0  0  0  0  0  0  0  0  0  0
   10.9093   12.9757   26.2875 N   0  0  0  0  0  0  0  0  0  0  0  0
   12.0029   13.7260   26.9649 C   0  0  0  0  0  0  0  0  0  0  0  0
   13.3966   13.1485   26.6913 C   0  0  0  0  0  0  0  0  0  0  0  0
   13.3614   11.6767   26.6231 C   0  0  0  0  0  0  0  0  0  0  0  0
   12.5280   11.3164   25.4128 C   0  0  0  0  0  0  0  0  0  0  0  0
   11.3875   12.2885   25.0660 C   0  0  0  0  0  0  0  0  0  0  0  0
    6.9823   13.7840   26.7598 C   0  0  0  0  0  0  0  0  0  0  0  0
    6.4539   14.2119   25.4012 C   0  0  0  0  0  0  0  0  0  0  0  0
  1  2  1  0
  2  3  1  0
  4  3  1  6
  4  5  1  0
  5  6  1  0
  6  7  1  0
  7  8  1  0
  8  9  1  1
  9 10  1  0
 10 11  2  0
 10 12  1  0
 12 13  1  0
 13 14  1  0
 14 15  1  0
 15 16  1  0
 16 17  2  0
 16 18  2  0
 16 19  1  0
 19 20  1  0
 20 21  1  0
 21 22  1  0
 22 23  1  0
 23 24  1  0
 15 25  1  0
 25 26  1  0
  8  4  1  0
 26 12  1  0
 24 19  1  0
M  END
>  <energy_score>  (2391) 
-36.254679

>  <inchikey>  (2391) 
None

>  <smiles>  (2391) 
None

>  <ref_pdb>  (2391) 
A4706a

>  <alias>  (2391) 
None

>  <HIPPO Pose ID>  (2391) 
500035

>  <name>  (2391) 
P500035

>  <HIPPO Compound ID>  (2391) 
314498

>  <ref_mols>  (2391) 
A4706a,A0875a

>  <distance_score>  (2391) 
1.535286

>  <inspiration_score>  (2391) 
None

$$$$
P500036
     RDKit          3D

 26 28  0  0  0  0  0  0  0  0999 V2000
   10.9568   14.2006   18.1019 N   0  0  0  0  0  0  0  0  0  0  0  0
   11.1612   14.8099   19.3828 C   0  0  0  0  0  0  0  0  0  0  0  0
    9.9148   15.5525   19.8427 C   0  0  0  0  0  0  0  0  0  0  0  0
    9.8606   15.9486   21.3258 C   0  0  2  0  0  0  0  0  0  0  0  0
   11.1923   15.8183   22.0594 C   0  0  0  0  0  0  0  0  0  0  0  0
   11.2873   14.4571   22.5059 O   0  0  0  0  0  0  0  0  0  0  0  0
    9.9985   13.8627   22.3300 C   0  0  0  0  0  0  0  0  0  0  0  0
    9.0219   15.0116   22.1913 C   0  0  2  0  0  0  0  0  0  0  0  0
    7.7537   14.6037   21.6560 O   0  0  0  0  0  0  0  0  0  0  0  0
    6.8675   13.8839   22.3977 C   0  0  0  0  0  0  0  0  0  0  0  0
    6.0098   13.1905   21.8621 O   0  0  0  0  0  0  0  0  0  0  0  0
    7.0051   13.9156   23.8940 C   0  0  0  0  0  0  0  0  0  0  0  0
    6.5390   12.6458   24.6360 C   0  0  0  0  0  0  0  0  0  0  0  0
    6.8385   12.7447   26.1425 C   0  0  0  0  0  0  0  0  0  0  0  0
    7.4484   14.0489   26.4071 N   0  0  0  0  0  0  0  0  0  0  0  0
    9.0713   14.4206   26.4822 S   0  0  0  0  0  0  0  0  0  0  0  0
    9.2392   15.7026   25.8455 O   0  0  0  0  0  0  0  0  0  0  0  0
    9.5043   14.2159   27.8385 O   0  0  0  0  0  0  0  0  0  0  0  0
   10.0140   13.3844   25.5253 N   0  0  0  0  0  0  0  0  0  0  0  0
   11.4446   13.8705   25.6353 C   0  0  0  0  0  0  0  0  0  0  0  0
   12.4751   12.9839   24.9717 C   0  0  0  0  0  0  0  0  0  0  0  0
   12.3276   11.5840   25.4842 C   0  0  0  0  0  0  0  0  0  0  0  0
   10.9248   11.1120   25.1170 C   0  0  0  0  0  0  0  0  0  0  0  0
    9.8458   11.9506   25.7490 C   0  0  0  0  0  0  0  0  0  0  0  0
    6.5249   15.1487   26.0333 C   0  0  0  0  0  0  0  0  0  0  0  0
    6.3595   15.1537   24.5142 C   0  0  0  0  0  0  0  0  0  0  0  0
  1  2  1  0
  2  3  1  0
  4  3  1  6
  4  5  1  0
  5  6  1  0
  6  7  1  0
  7  8  1  0
  8  9  1  6
  9 10  1  0
 10 11  2  0
 10 12  1  0
 12 13  1  0
 13 14  1  0
 14 15  1  0
 15 16  1  0
 16 17  2  0
 16 18  2  0
 16 19  1  0
 19 20  1  0
 20 21  1  0
 21 22  1  0
 22 23  1  0
 23 24  1  0
 15 25  1  0
 25 26  1  0
  8  4  1  0
 26 12  1  0
 24 19  1  0
M  END
>  <energy_score>  (2392) 
-25.817548

>  <inchikey>  (2392) 
None

>  <smiles>  (2392) 
None

>  <ref_pdb>  (2392) 
A4706a

>  <alias>  (2392) 
None

>  <HIPPO Pose ID>  (2392) 
500036

>  <name>  (2392) 
P500036

>  <HIPPO Compound ID>  (2392) 
314498

>  <ref_mols>  (2392) 
A4706a,A0875a

>  <distance_score>  (2392) 
1.610172

>  <inspiration_score>  (2392) 
None

$$$$
P500037
     RDKit          3D

 26 28  0  0  0  0  0  0  0  0999 V2000
   10.7191   16.0727   18.1297 N   0  0  0  0  0  0  0  0  0  0  0  0
   10.9089   15.2232   19.2512 C   0  0  0  0  0  0  0  0  0  0  0  0
    9.7809   15.5553   20.2156 C   0  0  0  0  0  0  0  0  0  0  0  0
    9.9500   14.6274   21.3603 C   0  0  1  0  0  0  0  0  0  0  0  0
   10.6937   15.0707   22.5622 C   0  0  0  0  0  0  0  0  0  0  0  0
   10.6041   13.8825   23.3598 O   0  0  0  0  0  0  0  0  0  0  0  0
    9.5730   13.0109   22.8293 C   0  0  0  0  0  0  0  0  0  0  0  0
    8.7523   13.9114   21.9263 C   0  0  1  0  0  0  0  0  0  0  0  0
    7.7960   14.5669   22.7743 O   0  0  0  0  0  0  0  0  0  0  0  0
    6.7282   13.7378   22.9788 C   0  0  0  0  0  0  0  0  0  0  0  0
    6.2874   13.0003   22.0983 O   0  0  0  0  0  0  0  0  0  0  0  0
    6.1465   13.6548   24.3790 C   0  0  0  0  0  0  0  0  0  0  0  0
    6.7094   12.4249   25.1359 C   0  0  0  0  0  0  0  0  0  0  0  0
    7.7797   12.7655   26.1863 C   0  0  0  0  0  0  0  0  0  0  0  0
    8.5637   13.9095   25.7002 N   0  0  0  0  0  0  0  0  0  0  0  0
    9.9747   14.3474   26.5003 S   0  0  0  0  0  0  0  0  0  0  0  0
   10.5921   15.4107   25.7384 O   0  0  0  0  0  0  0  0  0  0  0  0
    9.5493   14.5978   27.8586 O   0  0  0  0  0  0  0  0  0  0  0  0
   11.1115   13.0508   26.6081 N   0  0  0  0  0  0  0  0  0  0  0  0
   12.1803   13.5455   27.5494 C   0  0  0  0  0  0  0  0  0  0  0  0
   13.3875   12.6255   27.6716 C   0  0  0  0  0  0  0  0  0  0  0  0
   13.9650   12.1763   26.3529 C   0  0  0  0  0  0  0  0  0  0  0  0
   12.8758   11.6948   25.4330 C   0  0  0  0  0  0  0  0  0  0  0  0
   11.7250   12.6719   25.3127 C   0  0  0  0  0  0  0  0  0  0  0  0
    7.7098   15.1583   25.6188 C   0  0  0  0  0  0  0  0  0  0  0  0
    6.2802   14.9081   25.2004 C   0  0  0  0  0  0  0  0  0  0  0  0
  1  2  1  0
  2  3  1  0
  4  3  1  1
  4  5  1  0
  5  6  1  0
  6  7  1  0
  7  8  1  0
  8  9  1  1
  9 10  1  0
 10 11  2  0
 10 12  1  0
 12 13  1  0
 13 14  1  0
 14 15  1  0
 15 16  1  0
 16 17  2  0
 16 18  2  0
 16 19  1  0
 19 20  1  0
 20 21  1  0
 21 22  1  0
 22 23  1  0
 23 24  1  0
 15 25  1  0
 25 26  1  0
  8  4  1  0
 26 12  1  0
 24 19  1  0
M  END
>  <energy_score>  (2393) 
-15.277266

>  <inchikey>  (2393) 
None

>  <smiles>  (2393) 
None

>  <ref_pdb>  (2393) 
A4706a

>  <alias>  (2393) 
None

>  <HIPPO Pose ID>  (2393) 
500037

>  <name>  (2393) 
P500037

>  <HIPPO Compound ID>  (2393) 
314498

>  <ref_mols>  (2393) 
A4706a,A0875a

>  <distance_score>  (2393) 
1.770458

>  <inspiration_score>  (2393) 
None

$$$$
P500038
     RDKit          3D

 26 28  0  0  0  0  0  0  0  0999 V2000
   10.2376   12.1155   22.6525 N   0  0  0  0  0  0  0  0  0  0  0  0
   10.8274   13.4108   22.2915 C   0  0  0  0  0  0  0  0  0  0  0  0
    9.8754   14.6119   22.0012 C   0  0  2  0  0  0  0  0  0  0  0  0
    8.7842   14.7890   22.9888 O   0  0  0  0  0  0  0  0  0  0  0  0
    7.8036   13.8732   23.1492 C   0  0  0  0  0  0  0  0  0  0  0  0
    7.5422   12.9925   22.3299 O   0  0  0  0  0  0  0  0  0  0  0  0
    7.0138   13.9164   24.4573 C   0  0  0  0  0  0  0  0  0  0  0  0
    7.0056   12.4987   25.0763 C   0  0  0  0  0  0  0  0  0  0  0  0
    8.3400   12.1397   25.7378 C   0  0  0  0  0  0  0  0  0  0  0  0
    8.8735   13.2380   26.5864 N   0  0  0  0  0  0  0  0  0  0  0  0
   10.3880   13.8915   26.2055 S   0  0  0  0  0  0  0  0  0  0  0  0
   10.3559   14.1724   24.8091 O   0  0  0  0  0  0  0  0  0  0  0  0
   10.6108   14.9920   27.1025 O   0  0  0  0  0  0  0  0  0  0  0  0
   11.5556   12.6667   26.4984 N   0  0  0  0  0  0  0  0  0  0  0  0
   12.7397   13.0728   27.2969 C   0  0  0  0  0  0  0  0  0  0  0  0
   14.0656   12.8784   26.5753 C   0  0  0  0  0  0  0  0  0  0  0  0
   14.2806   11.4345   26.2815 C   0  0  0  0  0  0  0  0  0  0  0  0
   13.1927   11.0336   25.3322 C   0  0  0  0  0  0  0  0  0  0  0  0
   11.8560   11.7956   25.3415 C   0  0  0  0  0  0  0  0  0  0  0  0
    7.8431   14.2991   26.8334 C   0  0  0  0  0  0  0  0  0  0  0  0
    7.4062   14.9491   25.5166 C   0  0  0  0  0  0  0  0  0  0  0  0
    9.3202   14.5055   20.5810 C   0  0  0  0  0  0  0  0  0  0  0  0
    9.7789   15.6120   19.6613 C   0  0  0  0  0  0  0  0  0  0  0  0
    9.4855   16.8715   20.4281 C   0  0  0  0  0  0  0  0  0  0  0  0
   10.4279   17.0060   21.4668 O   0  0  0  0  0  0  0  0  0  0  0  0
   10.8287   15.8212   22.1274 C   0  0  0  0  0  0  0  0  0  0  0  0
  1  2  1  0
  3  2  1  1
  3  4  1  0
  4  5  1  0
  5  6  2  0
  5  7  1  0
  7  8  1  0
  8  9  1  0
  9 10  1  0
 10 11  1  0
 11 12  2  0
 11 13  2  0
 11 14  1  0
 14 15  1  0
 15 16  1  0
 16 17  1  0
 17 18  1  0
 18 19  1  0
 10 20  1  0
 20 21  1  0
  3 22  1  0
 22 23  1  0
 23 24  1  0
 24 25  1  0
 25 26  1  0
 26  3  1  0
 21  7  1  0
 19 14  1  0
M  END
>  <energy_score>  (2394) 
-7.94236

>  <inchikey>  (2394) 
None

>  <smiles>  (2394) 
None

>  <ref_pdb>  (2394) 
A4706a

>  <alias>  (2394) 
None

>  <HIPPO Pose ID>  (2394) 
500038

>  <name>  (2394) 
P500038

>  <HIPPO Compound ID>  (2394) 
314499

>  <ref_mols>  (2394) 
A4706a,A0875a

>  <distance_score>  (2394) 
1.873169

>  <inspiration_score>  (2394) 
None

$$$$
P500039
     RDKit          3D

 26 28  0  0  0  0  0  0  0  0999 V2000
    7.7142   13.0845   22.2889 O   0  0  0  0  0  0  0  0  0  0  0  0
    7.3259   14.0714   22.8981 C   0  0  0  0  0  0  0  0  0  0  0  0
    7.8958   15.2949   22.8298 O   0  0  0  0  0  0  0  0  0  0  0  0
    9.1103   15.5485   22.0518 C   0  0  2  0  0  0  0  0  0  0  0  0
    9.0193   15.2184   20.5689 C   0  0  0  0  0  0  0  0  0  0  0  0
   10.0268   14.3365   20.1252 O   0  0  0  0  0  0  0  0  0  0  0  0
   11.3458   14.8038   20.3165 C   0  0  0  0  0  0  0  0  0  0  0  0
   11.5750   15.3241   21.7169 C   0  0  0  0  0  0  0  0  0  0  0  0
   10.4127   15.0080   22.6273 C   0  0  0  0  0  0  0  0  0  0  0  0
   10.3589   13.6764   22.8517 F   0  0  0  0  0  0  0  0  0  0  0  0
   10.6804   15.5966   23.8190 F   0  0  0  0  0  0  0  0  0  0  0  0
    6.0612   13.9993   23.7642 C   0  0  0  0  0  0  0  0  0  0  0  0
    6.1474   12.7866   24.7335 C   0  0  0  0  0  0  0  0  0  0  0  0
    6.8413   13.1394   26.0496 C   0  0  0  0  0  0  0  0  0  0  0  0
    7.6602   14.3219   25.7646 N   0  0  0  0  0  0  0  0  0  0  0  0
    9.1379   14.5541   26.4664 S   0  0  0  0  0  0  0  0  0  0  0  0
    9.5746   15.8875   26.1624 O   0  0  0  0  0  0  0  0  0  0  0  0
    9.0579   14.1377   27.8375 O   0  0  0  0  0  0  0  0  0  0  0  0
   10.1926   13.5291   25.6607 N   0  0  0  0  0  0  0  0  0  0  0  0
    9.8589   12.1061   25.6416 C   0  0  0  0  0  0  0  0  0  0  0  0
   10.9353   11.2758   24.9887 C   0  0  0  0  0  0  0  0  0  0  0  0
   12.3548   11.6228   25.4415 C   0  0  0  0  0  0  0  0  0  0  0  0
   12.5854   13.0859   25.1986 C   0  0  0  0  0  0  0  0  0  0  0  0
   11.5900   13.8438   26.0510 C   0  0  0  0  0  0  0  0  0  0  0  0
    6.8022   15.5225   25.6516 C   0  0  0  0  0  0  0  0  0  0  0  0
    5.7610   15.2702   24.5631 C   0  0  0  0  0  0  0  0  0  0  0  0
  1  2  2  0
  2  3  1  0
  4  3  1  1
  4  5  1  0
  5  6  1  0
  6  7  1  0
  7  8  1  0
  8  9  1  0
  9 10  1  0
  9 11  1  0
  2 12  1  0
 12 13  1  0
 13 14  1  0
 14 15  1  0
 15 16  1  0
 16 17  2  0
 16 18  2  0
 16 19  1  0
 19 20  1  0
 20 21  1  0
 21 22  1  0
 22 23  1  0
 23 24  1  0
 15 25  1  0
 25 26  1  0
  9  4  1  0
 26 12  1  0
 24 19  1  0
M  END
>  <energy_score>  (2395) 
-74.161687

>  <inchikey>  (2395) 
None

>  <smiles>  (2395) 
None

>  <ref_pdb>  (2395) 
A4706a

>  <alias>  (2395) 
None

>  <HIPPO Pose ID>  (2395) 
500039

>  <name>  (2395) 
P500039

>  <HIPPO Compound ID>  (2395) 
314500

>  <ref_mols>  (2395) 
A0875a,A4706a

>  <distance_score>  (2395) 
1.993433

>  <inspiration_score>  (2395) 
None

$$$$
P500040
     RDKit          3D

 26 28  0  0  0  0  0  0  0  0999 V2000
    6.7716   13.5426   21.8171 O   0  0  0  0  0  0  0  0  0  0  0  0
    7.0714   14.3274   22.7134 C   0  0  0  0  0  0  0  0  0  0  0  0
    8.2369   15.0366   22.7307 O   0  0  0  0  0  0  0  0  0  0  0  0
    9.2597   14.7039   21.7306 C   0  0  1  0  0  0  0  0  0  0  0  0
    9.0186   15.5983   20.5350 C   0  0  0  0  0  0  0  0  0  0  0  0
   10.1450   15.9821   19.7674 O   0  0  0  0  0  0  0  0  0  0  0  0
   11.0696   14.9268   19.6477 C   0  0  0  0  0  0  0  0  0  0  0  0
   11.6960   14.6708   20.9967 C   0  0  0  0  0  0  0  0  0  0  0  0
   10.7295   14.8405   22.1530 C   0  0  0  0  0  0  0  0  0  0  0  0
   11.0827   13.8919   23.0687 F   0  0  0  0  0  0  0  0  0  0  0  0
   10.9639   16.0362   22.7474 F   0  0  0  0  0  0  0  0  0  0  0  0
    6.1632   14.5278   23.9541 C   0  0  0  0  0  0  0  0  0  0  0  0
    5.7235   13.1711   24.5556 C   0  0  0  0  0  0  0  0  0  0  0  0
    6.6268   12.5316   25.6217 C   0  0  0  0  0  0  0  0  0  0  0  0
    7.7229   13.4457   26.0092 N   0  0  0  0  0  0  0  0  0  0  0  0
    9.0695   13.4065   24.9969 S   0  0  0  0  0  0  0  0  0  0  0  0
    8.7230   12.5545   23.8862 O   0  0  0  0  0  0  0  0  0  0  0  0
    9.5673   14.7546   24.8645 O   0  0  0  0  0  0  0  0  0  0  0  0
   10.1703   12.5885   25.9267 N   0  0  0  0  0  0  0  0  0  0  0  0
   10.7718   13.4398   26.9448 C   0  0  0  0  0  0  0  0  0  0  0  0
   12.2244   13.6763   26.7217 C   0  0  0  0  0  0  0  0  0  0  0  0
   13.0148   12.4114   26.5272 C   0  0  0  0  0  0  0  0  0  0  0  0
   12.4886   11.7314   25.2968 C   0  0  0  0  0  0  0  0  0  0  0  0
   10.9745   11.5782   25.2099 C   0  0  0  0  0  0  0  0  0  0  0  0
    7.1843   14.7873   26.3175 C   0  0  0  0  0  0  0  0  0  0  0  0
    6.6429   15.4740   25.0616 C   0  0  0  0  0  0  0  0  0  0  0  0
  1  2  2  0
  2  3  1  0
  4  3  1  1
  4  5  1  0
  5  6  1  0
  6  7  1  0
  7  8  1  0
  8  9  1  0
  9 10  1  0
  9 11  1  0
  2 12  1  0
 12 13  1  0
 13 14  1  0
 14 15  1  0
 15 16  1  0
 16 17  2  0
 16 18  2  0
 16 19  1  0
 19 20  1  0
 20 21  1  0
 21 22  1  0
 22 23  1  0
 23 24  1  0
 15 25  1  0
 25 26  1  0
  9  4  1  0
 26 12  1  0
 24 19  1  0
M  END
>  <energy_score>  (2396) 
-33.998005

>  <inchikey>  (2396) 
None

>  <smiles>  (2396) 
None

>  <ref_pdb>  (2396) 
A4706a

>  <alias>  (2396) 
None

>  <HIPPO Pose ID>  (2396) 
500040

>  <name>  (2396) 
P500040

>  <HIPPO Compound ID>  (2396) 
314500

>  <ref_mols>  (2396) 
A4706a,A0875a

>  <distance_score>  (2396) 
1.934174

>  <inspiration_score>  (2396) 
None

$$$$
P500041
     RDKit          3D

 26 28  0  0  0  0  0  0  0  0999 V2000
    7.0544   16.3131   21.9743 C   0  0  0  0  0  0  0  0  0  0  0  0
    7.8348   15.0414   21.7424 C   0  0  2  0  0  0  0  0  0  0  0  0
    7.6975   14.3333   22.9770 O   0  0  0  0  0  0  0  0  0  0  0  0
    6.6722   13.4911   23.1612 C   0  0  0  0  0  0  0  0  0  0  0  0
    5.8639   13.1519   22.3130 O   0  0  0  0  0  0  0  0  0  0  0  0
    6.7384   12.9420   24.5677 C   0  0  0  0  0  0  0  0  0  0  0  0
    7.9515   11.9940   24.5783 C   0  0  0  0  0  0  0  0  0  0  0  0
    8.7480   11.9765   25.8540 C   0  0  0  0  0  0  0  0  0  0  0  0
    8.9238   13.3181   26.4199 N   0  0  0  0  0  0  0  0  0  0  0  0
   10.0128   14.4457   25.7759 S   0  0  0  0  0  0  0  0  0  0  0  0
   10.0253   15.5478   26.7070 O   0  0  0  0  0  0  0  0  0  0  0  0
    9.7517   14.6832   24.3906 O   0  0  0  0  0  0  0  0  0  0  0  0
   11.5155   13.6991   25.8822 N   0  0  0  0  0  0  0  0  0  0  0  0
   11.9614   12.8617   24.7632 C   0  0  0  0  0  0  0  0  0  0  0  0
   12.9291   11.7727   25.2192 C   0  0  0  0  0  0  0  0  0  0  0  0
   13.9777   12.2765   26.1720 C   0  0  0  0  0  0  0  0  0  0  0  0
   13.3305   12.8384   27.4113 C   0  0  0  0  0  0  0  0  0  0  0  0
   11.9032   13.3313   27.2302 C   0  0  0  0  0  0  0  0  0  0  0  0
    7.5949   13.8752   26.7998 C   0  0  0  0  0  0  0  0  0  0  0  0
    6.7406   14.1121   25.5717 C   0  0  0  0  0  0  0  0  0  0  0  0
    9.3345   15.2805   21.4776 C   0  0  2  0  0  0  0  0  0  0  0  0
    9.5999   15.8056   20.0589 C   0  0  0  0  0  0  0  0  0  0  0  0
   10.9818   15.8295   19.7215 O   0  0  0  0  0  0  0  0  0  0  0  0
   11.6122   14.5864   19.9692 C   0  0  0  0  0  0  0  0  0  0  0  0
   11.4089   14.1946   21.4226 C   0  0  0  0  0  0  0  0  0  0  0  0
   10.0156   14.0221   21.6622 O   0  0  0  0  0  0  0  0  0  0  0  0
  2  1  1  1
  2  3  1  0
  3  4  1  0
  4  5  2  0
  4  6  1  0
  6  7  1  0
  7  8  1  0
  8  9  1  0
  9 10  1  0
 10 11  2  0
 10 12  2  0
 10 13  1  0
 13 14  1  0
 14 15  1  0
 15 16  1  0
 16 17  1  0
 17 18  1  0
  9 19  1  0
 19 20  1  0
  2 21  1  0
 21 22  1  6
 22 23  1  0
 23 24  1  0
 24 25  1  0
 25 26  1  0
 20  6  1  0
 26 21  1  0
 18 13  1  0
M  END
>  <energy_score>  (2397) 
-49.120204

>  <inchikey>  (2397) 
None

>  <smiles>  (2397) 
None

>  <ref_pdb>  (2397) 
A4706a

>  <alias>  (2397) 
None

>  <HIPPO Pose ID>  (2397) 
500041

>  <name>  (2397) 
P500041

>  <HIPPO Compound ID>  (2397) 
314502

>  <ref_mols>  (2397) 
A0875a,A4706a

>  <distance_score>  (2397) 
1.584462

>  <inspiration_score>  (2397) 
None

$$$$
P500042
     RDKit          3D

 26 28  0  0  0  0  0  0  0  0999 V2000
    7.1452   16.5447   21.9848 C   0  0  0  0  0  0  0  0  0  0  0  0
    8.1991   15.5040   22.2650 C   0  0  1  0  0  0  0  0  0  0  0  0
    7.5840   14.2227   21.9556 O   0  0  0  0  0  0  0  0  0  0  0  0
    6.6350   13.7059   22.7897 C   0  0  0  0  0  0  0  0  0  0  0  0
    5.6125   13.2129   22.3385 O   0  0  0  0  0  0  0  0  0  0  0  0
    6.9878   13.6918   24.2487 C   0  0  0  0  0  0  0  0  0  0  0  0
    6.7679   12.3588   24.9714 C   0  0  0  0  0  0  0  0  0  0  0  0
    7.6450   12.3059   26.2280 C   0  0  0  0  0  0  0  0  0  0  0  0
    8.2821   13.6170   26.4514 N   0  0  0  0  0  0  0  0  0  0  0  0
    9.8852   13.9719   26.0404 S   0  0  0  0  0  0  0  0  0  0  0  0
    9.8890   15.1789   25.2549 O   0  0  0  0  0  0  0  0  0  0  0  0
   10.6236   13.8779   27.2743 O   0  0  0  0  0  0  0  0  0  0  0  0
   10.3705   12.7197   25.0647 N   0  0  0  0  0  0  0  0  0  0  0  0
   11.4332   11.8197   25.4529 C   0  0  0  0  0  0  0  0  0  0  0  0
   10.8610   10.4249   25.2018 C   0  0  0  0  0  0  0  0  0  0  0  0
    9.9789   10.2176   23.9800 C   0  0  0  0  0  0  0  0  0  0  0  0
    9.7430   11.4425   23.1247 C   0  0  0  0  0  0  0  0  0  0  0  0
   10.3125   12.7563   23.6102 C   0  0  0  0  0  0  0  0  0  0  0  0
    7.3040   14.7384   26.4928 C   0  0  0  0  0  0  0  0  0  0  0  0
    6.5347   14.8212   25.1607 C   0  0  0  0  0  0  0  0  0  0  0  0
    9.5260   15.7459   21.4907 C   0  0  2  0  0  0  0  0  0  0  0  0
    9.6298   14.9459   20.1982 C   0  0  0  0  0  0  0  0  0  0  0  0
   10.8884   15.1225   19.5508 O   0  0  0  0  0  0  0  0  0  0  0  0
   11.9275   14.7178   20.4385 C   0  0  0  0  0  0  0  0  0  0  0  0
   11.8752   15.5157   21.7298 C   0  0  0  0  0  0  0  0  0  0  0  0
   10.6113   15.3469   22.3601 O   0  0  0  0  0  0  0  0  0  0  0  0
  2  1  1  6
  2  3  1  0
  3  4  1  0
  4  5  2  0
  4  6  1  0
  6  7  1  0
  7  8  1  0
  8  9  1  0
  9 10  1  0
 10 11  2  0
 10 12  2  0
 10 13  1  0
 13 14  1  0
 14 15  1  0
 15 16  1  0
 16 17  1  0
 17 18  1  0
  9 19  1  0
 19 20  1  0
  2 21  1  0
 21 22  1  6
 22 23  1  0
 23 24  1  0
 24 25  1  0
 25 26  1  0
 20  6  1  0
 26 21  1  0
 18 13  1  0
M  END
>  <energy_score>  (2398) 
-14.567721

>  <inchikey>  (2398) 
None

>  <smiles>  (2398) 
None

>  <ref_pdb>  (2398) 
A4706a

>  <alias>  (2398) 
None

>  <HIPPO Pose ID>  (2398) 
500042

>  <name>  (2398) 
P500042

>  <HIPPO Compound ID>  (2398) 
314502

>  <ref_mols>  (2398) 
A4706a,A0875a

>  <distance_score>  (2398) 
1.997713

>  <inspiration_score>  (2398) 
None

$$$$
P500043
     RDKit          3D

 26 28  0  0  0  0  0  0  0  0999 V2000
    8.0269   16.8440   21.6615 C   0  0  0  0  0  0  0  0  0  0  0  0
    7.9692   15.3328   21.6741 C   0  0  2  0  0  0  0  0  0  0  0  0
    7.6084   14.9490   23.0280 O   0  0  0  0  0  0  0  0  0  0  0  0
    6.8174   13.8614   23.1828 C   0  0  0  0  0  0  0  0  0  0  0  0
    6.5258   13.0854   22.2761 O   0  0  0  0  0  0  0  0  0  0  0  0
    6.2657   13.7004   24.6107 C   0  0  0  0  0  0  0  0  0  0  0  0
    6.5387   12.2883   25.1660 C   0  0  0  0  0  0  0  0  0  0  0  0
    7.6661   12.1357   26.1853 C   0  0  0  0  0  0  0  0  0  0  0  0
    8.4826   13.3608   26.3062 N   0  0  0  0  0  0  0  0  0  0  0  0
    9.6312   13.6012   25.0997 S   0  0  0  0  0  0  0  0  0  0  0  0
    9.2279   12.7790   23.9849 O   0  0  0  0  0  0  0  0  0  0  0  0
    9.9306   15.0068   24.9961 O   0  0  0  0  0  0  0  0  0  0  0  0
   11.0173   12.8519   25.7633 N   0  0  0  0  0  0  0  0  0  0  0  0
   12.0160   12.6454   24.6898 C   0  0  0  0  0  0  0  0  0  0  0  0
   13.0693   11.6849   25.2130 C   0  0  0  0  0  0  0  0  0  0  0  0
   13.8677   12.3654   26.2938 C   0  0  0  0  0  0  0  0  0  0  0  0
   12.9375   12.9040   27.3676 C   0  0  0  0  0  0  0  0  0  0  0  0
   11.6457   13.5970   26.8835 C   0  0  0  0  0  0  0  0  0  0  0  0
    7.6367   14.5166   26.6598 C   0  0  0  0  0  0  0  0  0  0  0  0
    6.5959   14.8339   25.5931 C   0  0  0  0  0  0  0  0  0  0  0  0
    9.2979   14.7305   21.1955 C   0  0  1  0  0  0  0  0  0  0  0  0
    9.7328   15.2977   19.8291 C   0  0  0  0  0  0  0  0  0  0  0  0
   10.8927   14.6165   19.3612 O   0  0  0  0  0  0  0  0  0  0  0  0
   11.9355   14.7740   20.3149 C   0  0  0  0  0  0  0  0  0  0  0  0
   11.5415   14.3474   21.7211 C   0  0  0  0  0  0  0  0  0  0  0  0
   10.3512   15.0069   22.1409 O   0  0  0  0  0  0  0  0  0  0  0  0
  2  1  1  1
  2  3  1  0
  3  4  1  0
  4  5  2  0
  4  6  1  0
  6  7  1  0
  7  8  1  0
  8  9  1  0
  9 10  1  0
 10 11  2  0
 10 12  2  0
 10 13  1  0
 13 14  1  0
 14 15  1  0
 15 16  1  0
 16 17  1  0
 17 18  1  0
  9 19  1  0
 19 20  1  0
  2 21  1  0
 21 22  1  6
 22 23  1  0
 23 24  1  0
 24 25  1  0
 25 26  1  0
 20  6  1  0
 26 21  1  0
 18 13  1  0
M  END
>  <energy_score>  (2399) 
-85.745195

>  <inchikey>  (2399) 
None

>  <smiles>  (2399) 
None

>  <ref_pdb>  (2399) 
A4706a

>  <alias>  (2399) 
None

>  <HIPPO Pose ID>  (2399) 
500043

>  <name>  (2399) 
P500043

>  <HIPPO Compound ID>  (2399) 
314502

>  <ref_mols>  (2399) 
A4706a,A0875a

>  <distance_score>  (2399) 
1.447138

>  <inspiration_score>  (2399) 
None

$$$$
P500044
     RDKit          3D

 26 29  0  0  0  0  0  0  0  0999 V2000
    7.2218   15.2397   23.0547 O   0  0  0  0  0  0  0  0  0  0  0  0
    7.5262   14.1129   23.4115 C   0  0  0  0  0  0  0  0  0  0  0  0
    8.6781   13.4695   23.0976 O   0  0  0  0  0  0  0  0  0  0  0  0
    9.7323   14.0949   22.3450 C   0  0  2  0  0  0  0  0  0  0  0  0
   10.2870   15.4488   22.7556 C   0  0  0  0  0  0  0  0  0  0  0  0
   10.8615   16.0037   21.5710 O   0  0  0  0  0  0  0  0  0  0  0  0
   10.4657   15.2123   20.4295 C   0  0  0  0  0  0  0  0  0  0  0  0
   10.0468   15.8972   19.1432 C   0  0  0  0  0  0  0  0  0  0  0  0
   11.2336   15.4056   18.4536 N   0  0  0  0  0  0  0  0  0  0  0  0
   11.6604   14.6611   19.6301 C   0  0  0  0  0  0  0  0  0  0  0  0
    9.3435   14.3420   20.9246 C   0  0  0  0  0  0  0  0  0  0  0  0
    6.5745   13.2063   24.1950 C   0  0  0  0  0  0  0  0  0  0  0  0
    7.1984   11.9095   24.7404 C   0  0  0  0  0  0  0  0  0  0  0  0
    7.7647   12.0256   26.1410 C   0  0  0  0  0  0  0  0  0  0  0  0
    8.0121   13.4081   26.4831 N   0  0  0  0  0  0  0  0  0  0  0  0
    9.4800   14.1639   26.5015 S   0  0  0  0  0  0  0  0  0  0  0  0
    9.6275   14.9094   25.2832 O   0  0  0  0  0  0  0  0  0  0  0  0
    9.5307   14.8456   27.7690 O   0  0  0  0  0  0  0  0  0  0  0  0
   10.6735   12.9560   26.5180 N   0  0  0  0  0  0  0  0  0  0  0  0
   11.9020   13.5056   27.1606 C   0  0  0  0  0  0  0  0  0  0  0  0
   13.1045   12.5851   26.9860 C   0  0  0  0  0  0  0  0  0  0  0  0
   13.4311   12.3350   25.5259 C   0  0  0  0  0  0  0  0  0  0  0  0
   12.2911   12.8292   24.6479 C   0  0  0  0  0  0  0  0  0  0  0  0
   10.9732   12.3220   25.2119 C   0  0  0  0  0  0  0  0  0  0  0  0
    6.8356   14.3043   26.4752 C   0  0  0  0  0  0  0  0  0  0  0  0
    5.8874   13.9623   25.3327 C   0  0  0  0  0  0  0  0  0  0  0  0
  1  2  2  0
  2  3  1  0
  4  3  1  1
  4  5  1  0
  5  6  1  0
  6  7  1  0
  7  8  1  0
  8  9  1  0
  9 10  1  0
  7 11  1  0
  2 12  1  0
 12 13  1  0
 13 14  1  0
 14 15  1  0
 15 16  1  0
 16 17  2  0
 16 18  2  0
 16 19  1  0
 19 20  1  0
 20 21  1  0
 21 22  1  0
 22 23  1  0
 23 24  1  0
 15 25  1  0
 25 26  1  0
 11  4  1  0
 26 12  1  0
 10  7  1  0
 24 19  1  0
M  END
>  <energy_score>  (2400) 
-59.603244

>  <inchikey>  (2400) 
None

>  <smiles>  (2400) 
None

>  <ref_pdb>  (2400) 
A4706a

>  <alias>  (2400) 
None

>  <HIPPO Pose ID>  (2400) 
500044

>  <name>  (2400) 
P500044

>  <HIPPO Compound ID>  (2400) 
314504

>  <ref_mols>  (2400) 
A4706a,A0875a

>  <distance_score>  (2400) 
1.701064

>  <inspiration_score>  (2400) 
None

$$$$
P500045
     RDKit          3D

 26 29  0  0  0  0  0  0  0  0999 V2000
    8.7287   12.6235   22.8317 O   0  0  0  0  0  0  0  0  0  0  0  0
    8.0263   13.6182   22.9544 C   0  0  0  0  0  0  0  0  0  0  0  0
    8.3222   14.8455   22.4580 O   0  0  0  0  0  0  0  0  0  0  0  0
    9.6671   15.4149   22.5340 C   0  0  1  0  0  0  0  0  0  0  0  0
   10.9060   14.5300   22.6399 C   0  0  0  0  0  0  0  0  0  0  0  0
   11.6031   14.6196   21.4049 O   0  0  0  0  0  0  0  0  0  0  0  0
   10.7698   15.3082   20.4528 C   0  0  0  0  0  0  0  0  0  0  0  0
   11.3541   15.4153   19.0250 C   0  0  0  0  0  0  0  0  0  0  0  0
   10.5446   14.2949   18.5931 N   0  0  0  0  0  0  0  0  0  0  0  0
    9.7043   14.4964   19.7768 C   0  0  0  0  0  0  0  0  0  0  0  0
    9.9865   16.2882   21.3101 C   0  0  0  0  0  0  0  0  0  0  0  0
    6.6653   13.5329   23.6616 C   0  0  0  0  0  0  0  0  0  0  0  0
    6.6705   12.3486   24.6838 C   0  0  0  0  0  0  0  0  0  0  0  0
    7.5946   12.5812   25.8887 C   0  0  0  0  0  0  0  0  0  0  0  0
    8.2555   13.8604   25.6418 N   0  0  0  0  0  0  0  0  0  0  0  0
    9.6369   14.2911   26.4197 S   0  0  0  0  0  0  0  0  0  0  0  0
    9.2272   14.5691   27.7692 O   0  0  0  0  0  0  0  0  0  0  0  0
   10.2604   15.3026   25.5983 O   0  0  0  0  0  0  0  0  0  0  0  0
   10.7118   12.9852   26.5028 N   0  0  0  0  0  0  0  0  0  0  0  0
   11.9380   13.4740   27.2339 C   0  0  0  0  0  0  0  0  0  0  0  0
   13.1479   12.5487   27.1219 C   0  0  0  0  0  0  0  0  0  0  0  0
   13.4746   12.1358   25.6944 C   0  0  0  0  0  0  0  0  0  0  0  0
   12.4180   12.6807   24.7587 C   0  0  0  0  0  0  0  0  0  0  0  0
   11.0325   12.2991   25.2362 C   0  0  0  0  0  0  0  0  0  0  0  0
    7.2457   14.9692   25.6403 C   0  0  0  0  0  0  0  0  0  0  0  0
    6.3305   14.8063   24.4342 C   0  0  0  0  0  0  0  0  0  0  0  0
  1  2  2  0
  2  3  1  0
  4  3  1  6
  4  5  1  0
  5  6  1  0
  6  7  1  0
  7  8  1  0
  8  9  1  0
  9 10  1  0
  7 11  1  0
  2 12  1  0
 12 13  1  0
 13 14  1  0
 14 15  1  0
 15 16  1  0
 16 17  2  0
 16 18  2  0
 16 19  1  0
 19 20  1  0
 20 21  1  0
 21 22  1  0
 22 23  1  0
 23 24  1  0
 15 25  1  0
 25 26  1  0
 11  4  1  0
 26 12  1  0
 10  7  1  0
 24 19  1  0
M  END
>  <energy_score>  (2401) 
-26.94274

>  <inchikey>  (2401) 
None

>  <smiles>  (2401) 
None

>  <ref_pdb>  (2401) 
A4706a

>  <alias>  (2401) 
None

>  <HIPPO Pose ID>  (2401) 
500045

>  <name>  (2401) 
P500045

>  <HIPPO Compound ID>  (2401) 
314504

>  <ref_mols>  (2401) 
A4706a,A0875a

>  <distance_score>  (2401) 
1.727047

>  <inspiration_score>  (2401) 
None

$$$$
P500046
     RDKit          3D

 26 28  0  0  0  0  0  0  0  0999 V2000
    9.2034   13.7495   21.5198 C   0  0  0  0  0  0  0  0  0  0  0  0
    9.2462   15.2523   21.5745 C   0  0  2  0  0  0  0  0  0  0  0  0
    7.8383   15.7993   21.9570 C   0  0  0  0  0  0  0  0  0  0  0  0
    7.3254   15.3932   23.2587 O   0  0  0  0  0  0  0  0  0  0  0  0
    6.3646   14.4354   23.3333 C   0  0  0  0  0  0  0  0  0  0  0  0
    5.9411   13.8029   22.3677 O   0  0  0  0  0  0  0  0  0  0  0  0
    5.8259   14.1942   24.7644 C   0  0  0  0  0  0  0  0  0  0  0  0
    5.9254   12.7005   25.1599 C   0  0  0  0  0  0  0  0  0  0  0  0
    6.9925   12.2930   26.1813 C   0  0  0  0  0  0  0  0  0  0  0  0
    7.9572   13.3833   26.4233 N   0  0  0  0  0  0  0  0  0  0  0  0
    9.0706   13.6607   25.1860 S   0  0  0  0  0  0  0  0  0  0  0  0
    9.2742   15.0822   25.1135 O   0  0  0  0  0  0  0  0  0  0  0  0
    8.6292   12.8371   24.0898 O   0  0  0  0  0  0  0  0  0  0  0  0
   10.4670   12.9584   25.8048 N   0  0  0  0  0  0  0  0  0  0  0  0
   10.7473   11.6071   25.2638 C   0  0  0  0  0  0  0  0  0  0  0  0
   12.1732   11.2126   25.6490 C   0  0  0  0  0  0  0  0  0  0  0  0
   13.2469   12.0985   25.1024 C   0  0  0  0  0  0  0  0  0  0  0  0
   12.6138   13.4094   24.6975 C   0  0  0  0  0  0  0  0  0  0  0  0
   11.6518   13.8531   25.7920 C   0  0  0  0  0  0  0  0  0  0  0  0
    7.2423   14.5817   26.9134 C   0  0  0  0  0  0  0  0  0  0  0  0
    6.3050   15.1652   25.8560 C   0  0  0  0  0  0  0  0  0  0  0  0
    9.6827   15.7893   20.1830 C   0  0  0  0  0  0  0  0  0  0  0  0
   10.9448   15.2846   19.7248 O   0  0  0  0  0  0  0  0  0  0  0  0
   11.8327   14.9863   20.7964 C   0  0  0  0  0  0  0  0  0  0  0  0
   11.5261   15.7854   22.0501 C   0  0  0  0  0  0  0  0  0  0  0  0
   10.2212   15.5745   22.5757 O   0  0  0  0  0  0  0  0  0  0  0  0
  2  1  1  6
  2  3  1  0
  3  4  1  0
  4  5  1  0
  5  6  2  0
  5  7  1  0
  7  8  1  0
  8  9  1  0
  9 10  1  0
 10 11  1  0
 11 12  2  0
 11 13  2  0
 11 14  1  0
 14 15  1  0
 15 16  1  0
 16 17  1  0
 17 18  1  0
 18 19  1  0
 10 20  1  0
 20 21  1  0
  2 22  1  0
 22 23  1  0
 23 24  1  0
 24 25  1  0
 25 26  1  0
 26  2  1  0
 21  7  1  0
 19 14  1  0
M  END
>  <energy_score>  (2402) 
-64.63571

>  <inchikey>  (2402) 
None

>  <smiles>  (2402) 
None

>  <ref_pdb>  (2402) 
A4706a

>  <alias>  (2402) 
None

>  <HIPPO Pose ID>  (2402) 
500046

>  <name>  (2402) 
P500046

>  <HIPPO Compound ID>  (2402) 
314505

>  <ref_mols>  (2402) 
A0875a,A4706a

>  <distance_score>  (2402) 
1.414822

>  <inspiration_score>  (2402) 
None

$$$$
P500047
     RDKit          3D

 26 28  0  0  0  0  0  0  0  0999 V2000
    8.8435   17.3228   21.0428 C   0  0  0  0  0  0  0  0  0  0  0  0
    9.3700   15.8867   21.0529 C   0  0  1  0  0  0  0  0  0  0  0  0
    8.2914   14.8253   21.3740 C   0  0  0  0  0  0  0  0  0  0  0  0
    7.4658   15.1079   22.5326 O   0  0  0  0  0  0  0  0  0  0  0  0
    6.7444   14.0246   22.9196 C   0  0  0  0  0  0  0  0  0  0  0  0
    6.6436   13.0029   22.2394 O   0  0  0  0  0  0  0  0  0  0  0  0
    6.0205   14.1360   24.2623 C   0  0  0  0  0  0  0  0  0  0  0  0
    6.0257   12.7481   24.9419 C   0  0  0  0  0  0  0  0  0  0  0  0
    7.3938   12.3444   25.4917 C   0  0  0  0  0  0  0  0  0  0  0  0
    8.0565   13.4774   26.1798 N   0  0  0  0  0  0  0  0  0  0  0  0
    9.4659   14.0928   25.4817 S   0  0  0  0  0  0  0  0  0  0  0  0
    9.7266   15.3443   26.1546 O   0  0  0  0  0  0  0  0  0  0  0  0
    9.3821   13.9953   24.0538 O   0  0  0  0  0  0  0  0  0  0  0  0
   10.6720   13.0231   25.9610 N   0  0  0  0  0  0  0  0  0  0  0  0
   10.7585   11.7346   25.2239 C   0  0  0  0  0  0  0  0  0  0  0  0
   12.1117   11.0974   25.5665 C   0  0  0  0  0  0  0  0  0  0  0  0
   13.3335   11.8484   25.1432 C   0  0  0  0  0  0  0  0  0  0  0  0
   12.9105   13.2752   24.9244 C   0  0  0  0  0  0  0  0  0  0  0  0
   11.9835   13.7168   26.0456 C   0  0  0  0  0  0  0  0  0  0  0  0
    7.0857   14.5575   26.5353 C   0  0  0  0  0  0  0  0  0  0  0  0
    6.5167   15.1899   25.2595 C   0  0  0  0  0  0  0  0  0  0  0  0
    9.9671   15.5888   19.6545 C   0  0  0  0  0  0  0  0  0  0  0  0
   10.7485   14.4149   19.6401 O   0  0  0  0  0  0  0  0  0  0  0  0
   11.7399   14.4137   20.6590 C   0  0  0  0  0  0  0  0  0  0  0  0
   11.6624   15.5301   21.6872 C   0  0  0  0  0  0  0  0  0  0  0  0
   10.3436   15.7965   22.1214 O   0  0  0  0  0  0  0  0  0  0  0  0
  2  1  1  6
  2  3  1  0
  3  4  1  0
  4  5  1  0
  5  6  2  0
  5  7  1  0
  7  8  1  0
  8  9  1  0
  9 10  1  0
 10 11  1  0
 11 12  2  0
 11 13  2  0
 11 14  1  0
 14 15  1  0
 15 16  1  0
 16 17  1  0
 17 18  1  0
 18 19  1  0
 10 20  1  0
 20 21  1  0
  2 22  1  0
 22 23  1  0
 23 24  1  0
 24 25  1  0
 25 26  1  0
 26  2  1  0
 21  7  1  0
 19 14  1  0
M  END
>  <energy_score>  (2403) 
-59.437073

>  <inchikey>  (2403) 
None

>  <smiles>  (2403) 
None

>  <ref_pdb>  (2403) 
A4706a

>  <alias>  (2403) 
None

>  <HIPPO Pose ID>  (2403) 
500047

>  <name>  (2403) 
P500047

>  <HIPPO Compound ID>  (2403) 
314505

>  <ref_mols>  (2403) 
A4706a,A0875a

>  <distance_score>  (2403) 
1.274189

>  <inspiration_score>  (2403) 
None

$$$$
P500048
     RDKit          3D

 26 27  0  0  0  0  0  0  0  0999 V2000
   14.9080   10.0235   30.7757 C   0  0  0  0  0  0  0  0  0  0  0  0
   15.1844   10.6037   29.7601 C   0  0  0  0  0  0  0  0  0  0  0  0
   15.5115   11.3316   28.5025 C   0  0  2  0  0  0  0  0  0  0  0  0
   16.1636   12.6536   28.9107 C   0  0  0  0  0  0  0  0  0  0  0  0
   14.2326   11.5751   27.8552 O   0  0  0  0  0  0  0  0  0  0  0  0
   14.2072   12.1015   26.6068 C   0  0  0  0  0  0  0  0  0  0  0  0
   15.1937   12.3718   25.9444 O   0  0  0  0  0  0  0  0  0  0  0  0
   12.7829   12.4111   26.1687 C   0  0  0  0  0  0  0  0  0  0  0  0
   12.7999   13.4083   25.0148 C   0  0  0  0  0  0  0  0  0  0  0  0
   11.5202   14.1801   25.0475 C   0  0  0  0  0  0  0  0  0  0  0  0
   10.3938   13.2437   25.3126 N   0  0  0  0  0  0  0  0  0  0  0  0
    8.9572   14.0163   24.8774 S   0  0  0  0  0  0  0  0  0  0  0  0
    8.7423   13.8226   23.4671 O   0  0  0  0  0  0  0  0  0  0  0  0
    9.0693   15.3343   25.4576 O   0  0  0  0  0  0  0  0  0  0  0  0
    7.8003   13.1937   25.7599 N   0  0  0  0  0  0  0  0  0  0  0  0
    7.1730   12.0179   25.1260 C   0  0  0  0  0  0  0  0  0  0  0  0
    6.5810   11.1829   26.2505 C   0  0  0  0  0  0  0  0  0  0  0  0
    5.5305   11.9731   27.0279 C   0  0  0  0  0  0  0  0  0  0  0  0
    6.0746   13.3160   27.4996 C   0  0  0  0  0  0  0  0  0  0  0  0
    6.7582   14.0741   26.3681 C   0  0  0  0  0  0  0  0  0  0  0  0
   10.6565   11.8509   24.8649 C   0  0  0  0  0  0  0  0  0  0  0  0
   11.9952   11.3178   25.4834 C   0  0  0  0  0  0  0  0  0  0  0  0
   16.5385   10.5032   27.6721 C   0  0  0  0  0  0  0  0  0  0  0  0
   16.2921    9.9569   26.6017 O   0  0  0  0  0  0  0  0  0  0  0  0
   17.7353   10.4104   28.3261 O   0  0  0  0  0  0  0  0  0  0  0  0
   18.6906    9.5719   27.6796 C   0  0  0  0  0  0  0  0  0  0  0  0
  1  2  3  0
  3  2  1  0
  3  4  1  1
  3  5  1  0
  5  6  1  0
  6  7  2  0
  6  8  1  0
  8  9  1  0
  9 10  1  0
 10 11  1  0
 11 12  1  0
 12 13  2  0
 12 14  2  0
 12 15  1  0
 15 16  1  0
 16 17  1  0
 17 18  1  0
 18 19  1  0
 19 20  1  0
 11 21  1  0
 21 22  1  0
  3 23  1  0
 23 24  2  0
 23 25  1  0
 25 26  1  0
 22  8  1  0
 20 15  1  0
M  END
>  <energy_score>  (2404) 
-47.228426

>  <inchikey>  (2404) 
None

>  <smiles>  (2404) 
None

>  <ref_pdb>  (2404) 
A4706a

>  <alias>  (2404) 
None

>  <HIPPO Pose ID>  (2404) 
500048

>  <name>  (2404) 
P500048

>  <HIPPO Compound ID>  (2404) 
314506

>  <ref_mols>  (2404) 
A4706a,A0875a

>  <distance_score>  (2404) 
1.558938

>  <inspiration_score>  (2404) 
None

$$$$
P500049
     RDKit          3D

 26 28  0  0  0  0  0  0  0  0999 V2000
   12.2392   14.5979   19.7936 C   0  0  0  0  0  0  0  0  0  0  0  0
   10.9472   14.6748   20.5330 C   0  0  2  0  0  0  0  0  0  0  0  0
    9.8586   15.1874   19.6138 C   0  0  0  0  0  0  0  0  0  0  0  0
    8.5913   14.9675   20.2412 O   0  0  0  0  0  0  0  0  0  0  0  0
    8.6386   15.0900   21.6761 C   0  0  2  0  0  0  0  0  0  0  0  0
    7.2506   15.5415   22.1704 C   0  0  0  0  0  0  0  0  0  0  0  0
    6.9843   15.1469   23.5363 O   0  0  0  0  0  0  0  0  0  0  0  0
    5.6723   14.9212   23.8235 C   0  0  0  0  0  0  0  0  0  0  0  0
    4.7436   15.1164   23.0462 O   0  0  0  0  0  0  0  0  0  0  0  0
    5.4412   14.3531   25.2230 C   0  0  0  0  0  0  0  0  0  0  0  0
    5.7540   12.8524   25.3304 C   0  0  0  0  0  0  0  0  0  0  0  0
    6.8763   12.5236   26.3146 C   0  0  0  0  0  0  0  0  0  0  0  0
    7.9600   13.5166   26.2095 N   0  0  0  0  0  0  0  0  0  0  0  0
    9.0008   13.3433   24.9036 S   0  0  0  0  0  0  0  0  0  0  0  0
    8.3001   12.5937   23.8890 O   0  0  0  0  0  0  0  0  0  0  0  0
    9.6510   14.5976   24.6359 O   0  0  0  0  0  0  0  0  0  0  0  0
   10.1514   12.3246   25.5987 N   0  0  0  0  0  0  0  0  0  0  0  0
   10.3427   11.0823   24.8095 C   0  0  0  0  0  0  0  0  0  0  0  0
   11.5823   10.3121   25.2320 C   0  0  0  0  0  0  0  0  0  0  0  0
   12.8450   11.2017   25.4167 C   0  0  0  0  0  0  0  0  0  0  0  0
   12.5495   12.6734   25.2016 C   0  0  0  0  0  0  0  0  0  0  0  0
   11.3696   13.0224   26.0844 C   0  0  0  0  0  0  0  0  0  0  0  0
    7.5596   14.8919   26.5755 C   0  0  0  0  0  0  0  0  0  0  0  0
    6.0834   15.1728   26.3351 C   0  0  0  0  0  0  0  0  0  0  0  0
    9.7910   16.0217   22.0689 C   0  0  0  0  0  0  0  0  0  0  0  0
   11.0788   15.5138   21.6871 O   0  0  0  0  0  0  0  0  0  0  0  0
  2  1  1  6
  2  3  1  0
  3  4  1  0
  4  5  1  0
  5  6  1  6
  6  7  1  0
  7  8  1  0
  8  9  2  0
  8 10  1  0
 10 11  1  0
 11 12  1  0
 12 13  1  0
 13 14  1  0
 14 15  2  0
 14 16  2  0
 14 17  1  0
 17 18  1  0
 18 19  1  0
 19 20  1  0
 20 21  1  0
 21 22  1  0
 13 23  1  0
 23 24  1  0
  5 25  1  0
 25 26  1  0
 26  2  1  0
 24 10  1  0
 22 17  1  0
M  END
>  <energy_score>  (2405) 
-64.984292

>  <inchikey>  (2405) 
None

>  <smiles>  (2405) 
None

>  <ref_pdb>  (2405) 
A4706a

>  <alias>  (2405) 
None

>  <HIPPO Pose ID>  (2405) 
500049

>  <name>  (2405) 
P500049

>  <HIPPO Compound ID>  (2405) 
314507

>  <ref_mols>  (2405) 
A4706a,A0875a

>  <distance_score>  (2405) 
1.854216

>  <inspiration_score>  (2405) 
None

$$$$
P500050
     RDKit          3D

 26 28  0  0  0  0  0  0  0  0999 V2000
   11.4801   13.7826   21.9068 C   0  0  0  0  0  0  0  0  0  0  0  0
   11.6635   14.8104   20.8034 C   0  0  1  0  0  0  0  0  0  0  0  0
   10.6636   14.7170   19.6597 C   0  0  0  0  0  0  0  0  0  0  0  0
    9.3489   14.6878   20.2333 O   0  0  0  0  0  0  0  0  0  0  0  0
    9.0966   15.9467   20.8573 C   0  0  1  0  0  0  0  0  0  0  0  0
    7.6900   15.9703   21.4877 C   0  0  0  0  0  0  0  0  0  0  0  0
    7.5963   15.5696   22.8394 O   0  0  0  0  0  0  0  0  0  0  0  0
    6.3625   15.0969   23.2320 C   0  0  0  0  0  0  0  0  0  0  0  0
    5.2984   15.2033   22.6485 O   0  0  0  0  0  0  0  0  0  0  0  0
    6.6127   14.3261   24.4882 C   0  0  0  0  0  0  0  0  0  0  0  0
    6.1189   12.9125   24.6945 C   0  0  0  0  0  0  0  0  0  0  0  0
    7.2588   12.1765   25.4403 C   0  0  0  0  0  0  0  0  0  0  0  0
    7.9750   13.0880   26.4043 N   0  0  0  0  0  0  0  0  0  0  0  0
    9.5089   13.7578   26.0314 S   0  0  0  0  0  0  0  0  0  0  0  0
    9.8082   14.6684   27.1122 O   0  0  0  0  0  0  0  0  0  0  0  0
    9.6174   14.2152   24.6694 O   0  0  0  0  0  0  0  0  0  0  0  0
   10.6088   12.4880   26.1669 N   0  0  0  0  0  0  0  0  0  0  0  0
   11.9820   13.0557   26.3542 C   0  0  0  0  0  0  0  0  0  0  0  0
   12.9496   12.5793   25.3037 C   0  0  0  0  0  0  0  0  0  0  0  0
   13.0428   11.0800   25.3928 C   0  0  0  0  0  0  0  0  0  0  0  0
   11.6454   10.4081   25.2818 C   0  0  0  0  0  0  0  0  0  0  0  0
   10.5044   11.4114   25.1467 C   0  0  0  0  0  0  0  0  0  0  0  0
    7.0239   14.1396   26.9308 C   0  0  0  0  0  0  0  0  0  0  0  0
    6.6209   15.0943   25.7966 C   0  0  0  0  0  0  0  0  0  0  0  0
   10.2006   16.3655   21.8051 C   0  0  0  0  0  0  0  0  0  0  0  0
   11.5397   16.0884   21.4154 O   0  0  0  0  0  0  0  0  0  0  0  0
  2  1  1  1
  2  3  1  0
  3  4  1  0
  4  5  1  0
  5  6  1  1
  6  7  1  0
  7  8  1  0
  8  9  2  0
  8 10  1  0
 10 11  1  0
 11 12  1  0
 12 13  1  0
 13 14  1  0
 14 15  2  0
 14 16  2  0
 14 17  1  0
 17 18  1  0
 18 19  1  0
 19 20  1  0
 20 21  1  0
 21 22  1  0
 13 23  1  0
 23 24  1  0
  5 25  1  0
 25 26  1  0
 26  2  1  0
 24 10  1  0
 22 17  1  0
M  END
>  <energy_score>  (2406) 
-22.338057

>  <inchikey>  (2406) 
None

>  <smiles>  (2406) 
None

>  <ref_pdb>  (2406) 
A4706a

>  <alias>  (2406) 
None

>  <HIPPO Pose ID>  (2406) 
500050

>  <name>  (2406) 
P500050

>  <HIPPO Compound ID>  (2406) 
314507

>  <ref_mols>  (2406) 
A4706a,A0875a

>  <distance_score>  (2406) 
1.639779

>  <inspiration_score>  (2406) 
None

$$$$
P500051
     RDKit          3D

 26 28  0  0  0  0  0  0  0  0999 V2000
   12.3214   15.0328   20.4269 C   0  0  0  0  0  0  0  0  0  0  0  0
   11.2589   14.2151   21.0962 C   0  0  2  0  0  0  0  0  0  0  0  0
   10.0185   14.2958   20.2186 C   0  0  0  0  0  0  0  0  0  0  0  0
    9.4626   15.6089   20.1465 O   0  0  0  0  0  0  0  0  0  0  0  0
    9.2282   16.1555   21.4435 C   0  0  1  0  0  0  0  0  0  0  0  0
    7.8686   15.7616   22.0656 C   0  0  0  0  0  0  0  0  0  0  0  0
    7.3668   14.4580   21.7200 O   0  0  0  0  0  0  0  0  0  0  0  0
    6.5257   13.7792   22.5389 C   0  0  0  0  0  0  0  0  0  0  0  0
    5.6022   13.1265   22.0712 O   0  0  0  0  0  0  0  0  0  0  0  0
    6.8428   13.7754   24.0121 C   0  0  0  0  0  0  0  0  0  0  0  0
    6.6131   12.4197   24.7047 C   0  0  0  0  0  0  0  0  0  0  0  0
    7.2108   12.3879   26.1154 C   0  0  0  0  0  0  0  0  0  0  0  0
    7.6479   13.7271   26.5275 N   0  0  0  0  0  0  0  0  0  0  0  0
    9.1786   14.3727   26.2848 S   0  0  0  0  0  0  0  0  0  0  0  0
    9.1420   15.2528   25.1443 O   0  0  0  0  0  0  0  0  0  0  0  0
    9.5842   14.9074   27.5602 O   0  0  0  0  0  0  0  0  0  0  0  0
   10.2642   13.1642   25.9094 N   0  0  0  0  0  0  0  0  0  0  0  0
   11.6670   13.7086   25.9592 C   0  0  0  0  0  0  0  0  0  0  0  0
   12.6518   12.8266   25.1938 C   0  0  0  0  0  0  0  0  0  0  0  0
   12.2991   11.3798   25.4670 C   0  0  0  0  0  0  0  0  0  0  0  0
   10.8364   11.0549   25.0459 C   0  0  0  0  0  0  0  0  0  0  0  0
   10.0943   12.3336   24.7094 C   0  0  0  0  0  0  0  0  0  0  0  0
    6.5441   14.7171   26.3577 C   0  0  0  0  0  0  0  0  0  0  0  0
    6.1624   14.8463   24.8693 C   0  0  0  0  0  0  0  0  0  0  0  0
   10.4452   15.9721   22.3663 C   0  0  0  0  0  0  0  0  0  0  0  0
   10.9678   14.6584   22.4133 O   0  0  0  0  0  0  0  0  0  0  0  0
  2  1  1  6
  2  3  1  0
  3  4  1  0
  4  5  1  0
  5  6  1  1
  6  7  1  0
  7  8  1  0
  8  9  2  0
  8 10  1  0
 10 11  1  0
 11 12  1  0
 12 13  1  0
 13 14  1  0
 14 15  2  0
 14 16  2  0
 14 17  1  0
 17 18  1  0
 18 19  1  0
 19 20  1  0
 20 21  1  0
 21 22  1  0
 13 23  1  0
 23 24  1  0
  5 25  1  0
 25 26  1  0
 26  2  1  0
 24 10  1  0
 22 17  1  0
M  END
>  <energy_score>  (2407) 
-23.925529

>  <inchikey>  (2407) 
None

>  <smiles>  (2407) 
None

>  <ref_pdb>  (2407) 
A4706a

>  <alias>  (2407) 
None

>  <HIPPO Pose ID>  (2407) 
500051

>  <name>  (2407) 
P500051

>  <HIPPO Compound ID>  (2407) 
314507

>  <ref_mols>  (2407) 
A0875a,A4706a

>  <distance_score>  (2407) 
1.516521

>  <inspiration_score>  (2407) 
None

$$$$
P500052
     RDKit          3D

 26 28  0  0  0  0  0  0  0  0999 V2000
   10.0460   13.2326   21.9186 C   0  0  0  0  0  0  0  0  0  0  0  0
   11.2051   14.0253   21.3615 C   0  0  1  0  0  0  0  0  0  0  0  0
   10.9568   14.7341   20.0176 C   0  0  0  0  0  0  0  0  0  0  0  0
    9.8080   15.5834   20.0165 O   0  0  0  0  0  0  0  0  0  0  0  0
    9.4716   16.1183   21.3130 C   0  0  1  0  0  0  0  0  0  0  0  0
    8.0315   15.6348   21.6858 C   0  0  0  0  0  0  0  0  0  0  0  0
    7.7010   15.2319   23.0287 O   0  0  0  0  0  0  0  0  0  0  0  0
    7.0166   14.0608   23.1570 C   0  0  0  0  0  0  0  0  0  0  0  0
    6.8959   13.2147   22.2694 O   0  0  0  0  0  0  0  0  0  0  0  0
    6.3189   13.8475   24.5027 C   0  0  0  0  0  0  0  0  0  0  0  0
    6.5738   12.4130   25.0069 C   0  0  0  0  0  0  0  0  0  0  0  0
    7.9609   12.2349   25.6101 C   0  0  0  0  0  0  0  0  0  0  0  0
    8.3077   13.3413   26.5281 N   0  0  0  0  0  0  0  0  0  0  0  0
    9.6849   14.2431   26.1692 S   0  0  0  0  0  0  0  0  0  0  0  0
    9.6057   14.6513   24.7985 O   0  0  0  0  0  0  0  0  0  0  0  0
    9.7956   15.2344   27.2095 O   0  0  0  0  0  0  0  0  0  0  0  0
   10.9673   13.1091   26.3514 N   0  0  0  0  0  0  0  0  0  0  0  0
   11.6069   12.7613   25.0491 C   0  0  0  0  0  0  0  0  0  0  0  0
   12.7671   11.8041   25.2630 C   0  0  0  0  0  0  0  0  0  0  0  0
   13.8283   12.3513   26.1781 C   0  0  0  0  0  0  0  0  0  0  0  0
   13.2071   12.7937   27.4796 C   0  0  0  0  0  0  0  0  0  0  0  0
   11.9614   13.6591   27.3175 C   0  0  0  0  0  0  0  0  0  0  0  0
    7.1382   14.2016   26.8758 C   0  0  0  0  0  0  0  0  0  0  0  0
    6.5740   14.8650   25.6195 C   0  0  0  0  0  0  0  0  0  0  0  0
   10.6494   16.0863   22.3083 C   0  0  0  0  0  0  0  0  0  0  0  0
   11.5358   14.9728   22.3597 O   0  0  0  0  0  0  0  0  0  0  0  0
  2  1  1  1
  2  3  1  0
  3  4  1  0
  4  5  1  0
  5  6  1  1
  6  7  1  0
  7  8  1  0
  8  9  2  0
  8 10  1  0
 10 11  1  0
 11 12  1  0
 12 13  1  0
 13 14  1  0
 14 15  2  0
 14 16  2  0
 14 17  1  0
 17 18  1  0
 18 19  1  0
 19 20  1  0
 20 21  1  0
 21 22  1  0
 13 23  1  0
 23 24  1  0
  5 25  1  0
 25 26  1  0
 26  2  1  0
 24 10  1  0
 22 17  1  0
M  END
>  <energy_score>  (2408) 
-30.156425

>  <inchikey>  (2408) 
None

>  <smiles>  (2408) 
None

>  <ref_pdb>  (2408) 
A4706a

>  <alias>  (2408) 
None

>  <HIPPO Pose ID>  (2408) 
500052

>  <name>  (2408) 
P500052

>  <HIPPO Compound ID>  (2408) 
314507

>  <ref_mols>  (2408) 
A4706a,A0875a

>  <distance_score>  (2408) 
1.710812

>  <inspiration_score>  (2408) 
None

$$$$
P500053
     RDKit          3D

 26 28  0  0  0  0  0  0  0  0999 V2000
    9.2525   17.5516   20.7200 C   0  0  0  0  0  0  0  0  0  0  0  0
   10.3340   16.5665   21.1707 C   0  0  2  0  0  0  0  0  0  0  0  0
   10.7238   15.5849   20.0761 C   0  0  0  0  0  0  0  0  0  0  0  0
    9.7347   14.5821   20.1828 O   0  0  0  0  0  0  0  0  0  0  0  0
    9.3992   14.5594   21.5845 C   0  0  2  0  0  0  0  0  0  0  0  0
   10.2459   13.4624   22.2132 C   0  0  0  0  0  0  0  0  0  0  0  0
    7.8587   14.4534   21.6374 C   0  0  0  0  0  0  0  0  0  0  0  0
    7.1765   14.8701   22.8339 O   0  0  0  0  0  0  0  0  0  0  0  0
    6.1135   14.0931   23.1769 C   0  0  0  0  0  0  0  0  0  0  0  0
    5.7151   13.1500   22.4976 O   0  0  0  0  0  0  0  0  0  0  0  0
    5.4687   14.4652   24.5172 C   0  0  0  0  0  0  0  0  0  0  0  0
    5.3035   13.2183   25.4112 C   0  0  0  0  0  0  0  0  0  0  0  0
    6.5275   12.7917   26.2277 C   0  0  0  0  0  0  0  0  0  0  0  0
    7.5124   13.8929   26.3687 N   0  0  0  0  0  0  0  0  0  0  0  0
    8.7686   13.9045   25.2456 S   0  0  0  0  0  0  0  0  0  0  0  0
    9.2899   15.2352   25.1090 O   0  0  0  0  0  0  0  0  0  0  0  0
    8.3256   13.0869   24.1449 O   0  0  0  0  0  0  0  0  0  0  0  0
    9.8826   12.9855   26.0330 N   0  0  0  0  0  0  0  0  0  0  0  0
    9.7914   11.5597   25.7648 C   0  0  0  0  0  0  0  0  0  0  0  0
   11.0099   11.0621   25.0489 C   0  0  0  0  0  0  0  0  0  0  0  0
   12.3507   11.6530   25.4806 C   0  0  0  0  0  0  0  0  0  0  0  0
   12.2863   13.1524   25.5323 C   0  0  0  0  0  0  0  0  0  0  0  0
   11.1584   13.5774   26.4549 C   0  0  0  0  0  0  0  0  0  0  0  0
    6.8385   15.1909   26.5661 C   0  0  0  0  0  0  0  0  0  0  0  0
    6.1045   15.6256   25.2991 C   0  0  0  0  0  0  0  0  0  0  0  0
    9.8294   15.7588   22.2122 O   0  0  0  0  0  0  0  0  0  0  0  0
  2  1  1  6
  2  3  1  0
  3  4  1  0
  4  5  1  0
  5  6  1  1
  5  7  1  0
  7  8  1  0
  8  9  1  0
  9 10  2  0
  9 11  1  0
 11 12  1  0
 12 13  1  0
 13 14  1  0
 14 15  1  0
 15 16  2  0
 15 17  2  0
 15 18  1  0
 18 19  1  0
 19 20  1  0
 20 21  1  0
 21 22  1  0
 22 23  1  0
 14 24  1  0
 24 25  1  0
  5 26  1  0
 26  2  1  0
 25 11  1  0
 23 18  1  0
M  END
>  <energy_score>  (2409) 
-25.731731

>  <inchikey>  (2409) 
None

>  <smiles>  (2409) 
None

>  <ref_pdb>  (2409) 
A4706a

>  <alias>  (2409) 
None

>  <HIPPO Pose ID>  (2409) 
500053

>  <name>  (2409) 
P500053

>  <HIPPO Compound ID>  (2409) 
314508

>  <ref_mols>  (2409) 
A4706a,A0875a

>  <distance_score>  (2409) 
1.77982

>  <inspiration_score>  (2409) 
None

$$$$
P500054
     RDKit          3D

 26 28  0  0  0  0  0  0  0  0999 V2000
   11.8932   14.4677   22.4967 C   0  0  0  0  0  0  0  0  0  0  0  0
   10.6250   14.6136   21.7176 C   0  0  2  0  0  0  0  0  0  0  0  0
   10.7935   14.9173   20.2497 C   0  0  0  0  0  0  0  0  0  0  0  0
    9.5229   15.4666   19.9085 O   0  0  0  0  0  0  0  0  0  0  0  0
    9.0382   16.0800   21.1299 C   0  0  1  0  0  0  0  0  0  0  0  0
    9.0113   17.5856   20.9046 C   0  0  0  0  0  0  0  0  0  0  0  0
    7.6267   15.5292   21.4472 C   0  0  0  0  0  0  0  0  0  0  0  0
    7.4263   15.1582   22.7999 O   0  0  0  0  0  0  0  0  0  0  0  0
    6.6565   14.0627   23.0394 C   0  0  0  0  0  0  0  0  0  0  0  0
    6.0389   13.3836   22.2374 O   0  0  0  0  0  0  0  0  0  0  0  0
    6.8013   13.7886   24.4947 C   0  0  0  0  0  0  0  0  0  0  0  0
    6.5013   12.4220   25.0707 C   0  0  0  0  0  0  0  0  0  0  0  0
    7.3289   12.2438   26.3514 C   0  0  0  0  0  0  0  0  0  0  0  0
    7.9848   13.5116   26.7680 N   0  0  0  0  0  0  0  0  0  0  0  0
    9.5596   13.9795   26.3397 S   0  0  0  0  0  0  0  0  0  0  0  0
   10.1746   14.4088   27.5711 O   0  0  0  0  0  0  0  0  0  0  0  0
    9.5648   14.8694   25.2049 O   0  0  0  0  0  0  0  0  0  0  0  0
   10.3323   12.5623   25.8630 N   0  0  0  0  0  0  0  0  0  0  0  0
   10.0429   12.0355   24.5083 C   0  0  0  0  0  0  0  0  0  0  0  0
   10.2446   10.5377   24.5707 C   0  0  0  0  0  0  0  0  0  0  0  0
   11.5834   10.2052   25.2223 C   0  0  0  0  0  0  0  0  0  0  0  0
   12.5045   11.4259   25.4928 C   0  0  0  0  0  0  0  0  0  0  0  0
   11.7951   12.6253   26.1066 C   0  0  0  0  0  0  0  0  0  0  0  0
    7.0043   14.6300   26.8476 C   0  0  0  0  0  0  0  0  0  0  0  0
    6.4129   14.9036   25.4595 C   0  0  0  0  0  0  0  0  0  0  0  0
    9.9450   15.7634   22.1897 O   0  0  0  0  0  0  0  0  0  0  0  0
  2  1  1  1
  2  3  1  0
  3  4  1  0
  4  5  1  0
  5  6  1  6
  5  7  1  0
  7  8  1  0
  8  9  1  0
  9 10  2  0
  9 11  1  0
 11 12  1  0
 12 13  1  0
 13 14  1  0
 14 15  1  0
 15 16  2  0
 15 17  2  0
 15 18  1  0
 18 19  1  0
 19 20  1  0
 20 21  1  0
 21 22  1  0
 22 23  1  0
 14 24  1  0
 24 25  1  0
  5 26  1  0
 26  2  1  0
 25 11  1  0
 23 18  1  0
M  END
>  <energy_score>  (2410) 
-14.665619

>  <inchikey>  (2410) 
None

>  <smiles>  (2410) 
None

>  <ref_pdb>  (2410) 
A4706a

>  <alias>  (2410) 
None

>  <HIPPO Pose ID>  (2410) 
500054

>  <name>  (2410) 
P500054

>  <HIPPO Compound ID>  (2410) 
314508

>  <ref_mols>  (2410) 
A0875a,A4706a

>  <distance_score>  (2410) 
1.562763

>  <inspiration_score>  (2410) 
None

$$$$
P500055
     RDKit          3D

 26 28  0  0  0  0  0  0  0  0999 V2000
   11.5888   13.9226   21.9562 C   0  0  0  0  0  0  0  0  0  0  0  0
   11.3866   15.2095   21.2050 C   0  0  1  0  0  0  0  0  0  0  0  0
   10.9460   14.9904   19.7688 C   0  0  0  0  0  0  0  0  0  0  0  0
    9.8816   15.9052   19.5781 O   0  0  0  0  0  0  0  0  0  0  0  0
    9.2962   16.0749   20.8803 C   0  0  1  0  0  0  0  0  0  0  0  0
    8.7677   17.4970   20.9577 C   0  0  0  0  0  0  0  0  0  0  0  0
    8.2475   14.9500   21.1229 C   0  0  0  0  0  0  0  0  0  0  0  0
    7.1976   15.2600   22.0511 O   0  0  0  0  0  0  0  0  0  0  0  0
    6.7128   14.1234   22.6222 C   0  0  0  0  0  0  0  0  0  0  0  0
    6.0156   13.2965   22.0524 O   0  0  0  0  0  0  0  0  0  0  0  0
    7.2417   13.9743   24.0162 C   0  0  0  0  0  0  0  0  0  0  0  0
    7.5922   12.5155   24.3406 C   0  0  0  0  0  0  0  0  0  0  0  0
    7.9517   12.3320   25.8043 C   0  0  0  0  0  0  0  0  0  0  0  0
    8.4781   13.5811   26.3632 N   0  0  0  0  0  0  0  0  0  0  0  0
   10.0188   14.1775   25.9804 S   0  0  0  0  0  0  0  0  0  0  0  0
   10.1097   14.5652   24.5992 O   0  0  0  0  0  0  0  0  0  0  0  0
   10.2976   15.1454   27.0118 O   0  0  0  0  0  0  0  0  0  0  0  0
   11.0670   12.8707   26.1725 N   0  0  0  0  0  0  0  0  0  0  0  0
   11.2040   11.9429   25.0126 C   0  0  0  0  0  0  0  0  0  0  0  0
   12.3035   10.9601   25.3764 C   0  0  0  0  0  0  0  0  0  0  0  0
   13.6958   11.5144   25.4078 C   0  0  0  0  0  0  0  0  0  0  0  0
   13.5814   12.9590   25.8446 C   0  0  0  0  0  0  0  0  0  0  0  0
   12.3935   13.2044   26.8005 C   0  0  0  0  0  0  0  0  0  0  0  0
    7.3942   14.6388   26.4114 C   0  0  0  0  0  0  0  0  0  0  0  0
    6.4802   14.5978   25.1669 C   0  0  0  0  0  0  0  0  0  0  0  0
   10.3372   15.9219   21.8535 O   0  0  0  0  0  0  0  0  0  0  0  0
  2  1  1  1
  2  3  1  0
  3  4  1  0
  4  5  1  0
  5  6  1  6
  5  7  1  0
  7  8  1  0
  8  9  1  0
  9 10  2  0
  9 11  1  0
 11 12  1  0
 12 13  1  0
 13 14  1  0
 14 15  1  0
 15 16  2  0
 15 17  2  0
 15 18  1  0
 18 19  1  0
 19 20  1  0
 20 21  1  0
 21 22  1  0
 22 23  1  0
 14 24  1  0
 24 25  1  0
  5 26  1  0
 26  2  1  0
 25 11  1  0
 23 18  1  0
M  END
>  <energy_score>  (2411) 
-25.111052

>  <inchikey>  (2411) 
None

>  <smiles>  (2411) 
None

>  <ref_pdb>  (2411) 
A4706a

>  <alias>  (2411) 
None

>  <HIPPO Pose ID>  (2411) 
500055

>  <name>  (2411) 
P500055

>  <HIPPO Compound ID>  (2411) 
314508

>  <ref_mols>  (2411) 
A4706a,A0875a

>  <distance_score>  (2411) 
1.413127

>  <inspiration_score>  (2411) 
None

$$$$
P500056
     RDKit          3D

 26 29  0  0  0  0  0  0  0  0999 V2000
    5.3614   14.7653   22.5831 O   0  0  0  0  0  0  0  0  0  0  0  0
    6.2541   14.9177   23.4113 C   0  0  0  0  0  0  0  0  0  0  0  0
    7.4280   15.5708   23.1716 O   0  0  0  0  0  0  0  0  0  0  0  0
    7.8985   15.5307   21.8099 C   0  0  2  0  0  0  0  0  0  0  0  0
    8.2181   14.0786   21.4768 C   0  0  0  0  0  0  0  0  0  0  0  0
    9.6215   13.7074   21.9487 C   0  0  0  0  0  0  0  0  0  0  0  0
   10.6703   14.7181   21.4946 C   0  0  1  0  0  0  0  0  0  0  0  0
   10.5671   15.1373   20.0443 C   0  0  0  0  0  0  0  0  0  0  0  0
    9.5013   16.1015   20.0275 O   0  0  0  0  0  0  0  0  0  0  0  0
    9.1787   16.3621   21.4254 C   0  0  2  0  0  0  0  0  0  0  0  0
   10.3360   15.9304   22.1603 O   0  0  0  0  0  0  0  0  0  0  0  0
    6.1888   14.2797   24.8032 C   0  0  0  0  0  0  0  0  0  0  0  0
    7.0546   12.9954   24.7814 C   0  0  0  0  0  0  0  0  0  0  0  0
    7.8337   12.6472   26.0356 C   0  0  0  0  0  0  0  0  0  0  0  0
    8.3108   13.8414   26.7550 N   0  0  0  0  0  0  0  0  0  0  0  0
    9.5811   14.7565   26.1134 S   0  0  0  0  0  0  0  0  0  0  0  0
    9.9856   15.7000   27.1193 O   0  0  0  0  0  0  0  0  0  0  0  0
    9.1836   15.1935   24.8107 O   0  0  0  0  0  0  0  0  0  0  0  0
   10.8135   13.6801   25.8871 N   0  0  0  0  0  0  0  0  0  0  0  0
   11.5808   13.2582   27.0433 C   0  0  0  0  0  0  0  0  0  0  0  0
   12.8464   12.4756   26.6586 C   0  0  0  0  0  0  0  0  0  0  0  0
   12.7154   11.7156   25.3435 C   0  0  0  0  0  0  0  0  0  0  0  0
   11.9593   12.5109   24.2716 C   0  0  0  0  0  0  0  0  0  0  0  0
   11.6578   13.8956   24.7337 C   0  0  0  0  0  0  0  0  0  0  0  0
    7.1373   14.6720   27.1503 C   0  0  0  0  0  0  0  0  0  0  0  0
    6.4576   15.2812   25.9294 C   0  0  0  0  0  0  0  0  0  0  0  0
  1  2  2  0
  2  3  1  0
  4  3  1  1
  4  5  1  0
  5  6  1  0
  7  6  1  6
  7  8  1  0
  8  9  1  0
 10  9  1  6
 10 11  1  0
  2 12  1  0
 12 13  1  0
 13 14  1  0
 14 15  1  0
 15 16  1  0
 16 17  2  0
 16 18  2  0
 16 19  1  0
 19 20  1  0
 20 21  1  0
 21 22  1  0
 22 23  1  0
 23 24  1  0
 15 25  1  0
 25 26  1  0
 10  4  1  0
 26 12  1  0
 11  7  1  0
 24 19  1  0
M  END
>  <energy_score>  (2412) 
-32.791103

>  <inchikey>  (2412) 
None

>  <smiles>  (2412) 
None

>  <ref_pdb>  (2412) 
A4706a

>  <alias>  (2412) 
None

>  <HIPPO Pose ID>  (2412) 
500056

>  <name>  (2412) 
P500056

>  <HIPPO Compound ID>  (2412) 
314509

>  <ref_mols>  (2412) 
A4706a,A0875a

>  <distance_score>  (2412) 
1.798397

>  <inspiration_score>  (2412) 
None

$$$$
P500057
     RDKit          3D

 26 29  0  0  0  0  0  0  0  0999 V2000
    6.6916   12.9287   22.0637 O   0  0  0  0  0  0  0  0  0  0  0  0
    6.8970   13.7724   22.9314 C   0  0  0  0  0  0  0  0  0  0  0  0
    7.7887   14.7859   22.7863 O   0  0  0  0  0  0  0  0  0  0  0  0
    8.7614   14.5717   21.7196 C   0  0  2  0  0  0  0  0  0  0  0  0
    9.8914   13.7223   22.3134 C   0  0  0  0  0  0  0  0  0  0  0  0
   11.3232   14.0544   21.8985 C   0  0  0  0  0  0  0  0  0  0  0  0
   11.4452   15.2931   21.0458 C   0  0  1  0  0  0  0  0  0  0  0  0
   10.9116   15.1250   19.6306 C   0  0  0  0  0  0  0  0  0  0  0  0
    9.5518   15.5557   19.6894 O   0  0  0  0  0  0  0  0  0  0  0  0
    9.3023   15.8665   21.0742 C   0  0  2  0  0  0  0  0  0  0  0  0
   10.5635   16.2475   21.6235 O   0  0  0  0  0  0  0  0  0  0  0  0
    6.2094   13.6278   24.2809 C   0  0  0  0  0  0  0  0  0  0  0  0
    6.7544   12.3793   25.0315 C   0  0  0  0  0  0  0  0  0  0  0  0
    7.8028   12.7165   26.1006 C   0  0  0  0  0  0  0  0  0  0  0  0
    8.5384   13.8764   25.5963 N   0  0  0  0  0  0  0  0  0  0  0  0
   10.0678   14.2589   26.1434 S   0  0  0  0  0  0  0  0  0  0  0  0
   10.6479   15.1802   25.1975 O   0  0  0  0  0  0  0  0  0  0  0  0
    9.9069   14.6239   27.5301 O   0  0  0  0  0  0  0  0  0  0  0  0
   11.0280   12.8882   26.1490 N   0  0  0  0  0  0  0  0  0  0  0  0
   11.1357   12.0198   24.9615 C   0  0  0  0  0  0  0  0  0  0  0  0
   12.1838   10.9668   25.3180 C   0  0  0  0  0  0  0  0  0  0  0  0
   13.6023   11.4732   25.3648 C   0  0  0  0  0  0  0  0  0  0  0  0
   13.5478   12.9125   25.8364 C   0  0  0  0  0  0  0  0  0  0  0  0
   12.3701   13.1606   26.7964 C   0  0  0  0  0  0  0  0  0  0  0  0
    7.6694   15.1075   25.6857 C   0  0  0  0  0  0  0  0  0  0  0  0
    6.2695   14.8597   25.1567 C   0  0  0  0  0  0  0  0  0  0  0  0
  1  2  2  0
  2  3  1  0
  4  3  1  1
  4  5  1  0
  5  6  1  0
  7  6  1  1
  7  8  1  0
  8  9  1  0
 10  9  1  6
 10 11  1  0
  2 12  1  0
 12 13  1  0
 13 14  1  0
 14 15  1  0
 15 16  1  0
 16 17  2  0
 16 18  2  0
 16 19  1  0
 19 20  1  0
 20 21  1  0
 21 22  1  0
 22 23  1  0
 23 24  1  0
 15 25  1  0
 25 26  1  0
 10  4  1  0
 26 12  1  0
 11  7  1  0
 24 19  1  0
M  END
>  <energy_score>  (2413) 
-40.230436

>  <inchikey>  (2413) 
None

>  <smiles>  (2413) 
None

>  <ref_pdb>  (2413) 
A4706a

>  <alias>  (2413) 
None

>  <HIPPO Pose ID>  (2413) 
500057

>  <name>  (2413) 
P500057

>  <HIPPO Compound ID>  (2413) 
314509

>  <ref_mols>  (2413) 
A4706a,A0875a

>  <distance_score>  (2413) 
1.525629

>  <inspiration_score>  (2413) 
None

$$$$
P500058
     RDKit          3D

 26 29  0  0  0  0  0  0  0  0999 V2000
    5.6061   13.0219   22.2462 O   0  0  0  0  0  0  0  0  0  0  0  0
    6.4581   13.7732   22.6997 C   0  0  0  0  0  0  0  0  0  0  0  0
    7.1255   14.5997   21.8736 O   0  0  0  0  0  0  0  0  0  0  0  0
    8.4036   15.2177   22.1733 C   0  0  2  0  0  0  0  0  0  0  0  0
    8.5888   16.3233   21.1772 C   0  0  0  0  0  0  0  0  0  0  0  0
   10.0050   16.7819   20.9396 C   0  0  0  0  0  0  0  0  0  0  0  0
   11.0825   15.7123   21.2104 C   0  0  2  0  0  0  0  0  0  0  0  0
   10.9685   14.6398   20.1576 C   0  0  0  0  0  0  0  0  0  0  0  0
    9.7553   13.9843   20.5526 O   0  0  0  0  0  0  0  0  0  0  0  0
    9.5951   14.2733   21.9498 C   0  0  1  0  0  0  0  0  0  0  0  0
   10.7688   14.9656   22.3911 O   0  0  0  0  0  0  0  0  0  0  0  0
    6.8666   13.7291   24.1423 C   0  0  0  0  0  0  0  0  0  0  0  0
    6.5920   12.4102   24.8740 C   0  0  0  0  0  0  0  0  0  0  0  0
    7.2802   12.3914   26.2448 C   0  0  0  0  0  0  0  0  0  0  0  0
    7.7593   13.7342   26.6188 N   0  0  0  0  0  0  0  0  0  0  0  0
    9.2960   14.3505   26.3377 S   0  0  0  0  0  0  0  0  0  0  0  0
    9.7093   14.9540   27.5790 O   0  0  0  0  0  0  0  0  0  0  0  0
    9.2958   15.1551   25.1415 O   0  0  0  0  0  0  0  0  0  0  0  0
   10.3558   13.0944   26.0337 N   0  0  0  0  0  0  0  0  0  0  0  0
   11.7680   13.6212   26.0864 C   0  0  0  0  0  0  0  0  0  0  0  0
   12.7339   12.7740   25.2590 C   0  0  0  0  0  0  0  0  0  0  0  0
   12.3827   11.3182   25.4829 C   0  0  0  0  0  0  0  0  0  0  0  0
   10.9117   10.9962   25.0892 C   0  0  0  0  0  0  0  0  0  0  0  0
   10.1749   12.2840   24.8206 C   0  0  0  0  0  0  0  0  0  0  0  0
    6.6731   14.7424   26.4611 C   0  0  0  0  0  0  0  0  0  0  0  0
    6.3130   14.8884   24.9746 C   0  0  0  0  0  0  0  0  0  0  0  0
  1  2  2  0
  2  3  1  0
  4  3  1  6
  4  5  1  0
  5  6  1  0
  7  6  1  6
  7  8  1  0
  8  9  1  0
 10  9  1  6
 10 11  1  0
  2 12  1  0
 12 13  1  0
 13 14  1  0
 14 15  1  0
 15 16  1  0
 16 17  2  0
 16 18  2  0
 16 19  1  0
 19 20  1  0
 20 21  1  0
 21 22  1  0
 22 23  1  0
 23 24  1  0
 15 25  1  0
 25 26  1  0
 10  4  1  0
 26 12  1  0
 11  7  1  0
 24 19  1  0
M  END
>  <energy_score>  (2414) 
-31.765102

>  <inchikey>  (2414) 
None

>  <smiles>  (2414) 
None

>  <ref_pdb>  (2414) 
A4706a

>  <alias>  (2414) 
None

>  <HIPPO Pose ID>  (2414) 
500058

>  <name>  (2414) 
P500058

>  <HIPPO Compound ID>  (2414) 
314509

>  <ref_mols>  (2414) 
A0875a,A4706a

>  <distance_score>  (2414) 
1.510705

>  <inspiration_score>  (2414) 
None

$$$$
P500059
     RDKit          3D

 26 29  0  0  0  0  0  0  0  0999 V2000
    6.1973   13.0153   22.0504 O   0  0  0  0  0  0  0  0  0  0  0  0
    6.6013   13.8437   22.8441 C   0  0  0  0  0  0  0  0  0  0  0  0
    7.1450   15.0419   22.5393 O   0  0  0  0  0  0  0  0  0  0  0  0
    8.0325   15.1132   21.4096 C   0  0  1  0  0  0  0  0  0  0  0  0
    8.3804   16.5911   21.3041 C   0  0  0  0  0  0  0  0  0  0  0  0
    9.7615   16.8949   20.7748 C   0  0  0  0  0  0  0  0  0  0  0  0
   10.8433   15.9129   21.2830 C   0  0  2  0  0  0  0  0  0  0  0  0
   11.1059   14.8714   20.2217 C   0  0  0  0  0  0  0  0  0  0  0  0
    9.8871   14.1354   20.2569 O   0  0  0  0  0  0  0  0  0  0  0  0
    9.3494   14.3267   21.5741 C   0  0  1  0  0  0  0  0  0  0  0  0
   10.3030   15.0955   22.3228 O   0  0  0  0  0  0  0  0  0  0  0  0
    6.6837   13.6806   24.3269 C   0  0  0  0  0  0  0  0  0  0  0  0
    6.4911   12.3381   25.0054 C   0  0  0  0  0  0  0  0  0  0  0  0
    7.2779   12.3314   26.3301 C   0  0  0  0  0  0  0  0  0  0  0  0
    7.7348   13.6930   26.7125 N   0  0  0  0  0  0  0  0  0  0  0  0
    9.2229   14.3952   26.3027 S   0  0  0  0  0  0  0  0  0  0  0  0
    9.6907   15.0314   27.5087 O   0  0  0  0  0  0  0  0  0  0  0  0
    9.1112   15.1912   25.1037 O   0  0  0  0  0  0  0  0  0  0  0  0
   10.3050   13.1729   25.9487 N   0  0  0  0  0  0  0  0  0  0  0  0
   11.7072   13.7100   25.9755 C   0  0  0  0  0  0  0  0  0  0  0  0
   12.6739   12.8238   25.1925 C   0  0  0  0  0  0  0  0  0  0  0  0
   12.3103   11.3787   25.4608 C   0  0  0  0  0  0  0  0  0  0  0  0
   10.8424   11.0670   25.0449 C   0  0  0  0  0  0  0  0  0  0  0  0
   10.1039   12.3547   24.7416 C   0  0  0  0  0  0  0  0  0  0  0  0
    6.5957   14.6572   26.6487 C   0  0  0  0  0  0  0  0  0  0  0  0
    6.1320   14.8132   25.1922 C   0  0  0  0  0  0  0  0  0  0  0  0
  1  2  2  0
  2  3  1  0
  4  3  1  1
  4  5  1  0
  5  6  1  0
  7  6  1  6
  7  8  1  0
  8  9  1  0
 10  9  1  6
 10 11  1  0
  2 12  1  0
 12 13  1  0
 13 14  1  0
 14 15  1  0
 15 16  1  0
 16 17  2  0
 16 18  2  0
 16 19  1  0
 19 20  1  0
 20 21  1  0
 21 22  1  0
 22 23  1  0
 23 24  1  0
 15 25  1  0
 25 26  1  0
 10  4  1  0
 26 12  1  0
 11  7  1  0
 24 19  1  0
M  END
>  <energy_score>  (2415) 
-21.02322

>  <inchikey>  (2415) 
None

>  <smiles>  (2415) 
None

>  <ref_pdb>  (2415) 
A4706a

>  <alias>  (2415) 
None

>  <HIPPO Pose ID>  (2415) 
500059

>  <name>  (2415) 
P500059

>  <HIPPO Compound ID>  (2415) 
314509

>  <ref_mols>  (2415) 
A4706a,A0875a

>  <distance_score>  (2415) 
1.475204

>  <inspiration_score>  (2415) 
None

$$$$
P500060
     RDKit          3D

 26 27  0  0  0  0  0  0  0  0999 V2000
    9.4362   13.4257   22.2232 C   0  0  0  0  0  0  0  0  0  0  0  0
    9.0591   14.8079   22.7077 C   0  0  1  0  0  0  0  0  0  0  0  0
    9.3717   15.8430   21.6350 C   0  0  0  0  0  0  0  0  0  0  0  0
   10.7662   15.9701   21.3527 O   0  0  0  0  0  0  0  0  0  0  0  0
   11.3077   15.0800   20.3830 C   0  0  0  0  0  0  0  0  0  0  0  0
   10.8357   15.2155   18.9431 C   0  0  0  0  0  0  0  0  0  0  0  0
   11.2828   14.1297   18.2627 F   0  0  0  0  0  0  0  0  0  0  0  0
    9.4889   15.2012   18.8485 F   0  0  0  0  0  0  0  0  0  0  0  0
    7.7110   14.9172   23.2457 O   0  0  0  0  0  0  0  0  0  0  0  0
    6.7892   13.9339   23.1044 C   0  0  0  0  0  0  0  0  0  0  0  0
    6.7270   13.1577   22.1551 O   0  0  0  0  0  0  0  0  0  0  0  0
    5.8585   13.7786   24.3088 C   0  0  0  0  0  0  0  0  0  0  0  0
    6.2865   12.5541   25.1626 C   0  0  0  0  0  0  0  0  0  0  0  0
    7.1580   12.9228   26.3747 C   0  0  0  0  0  0  0  0  0  0  0  0
    7.8944   14.1332   25.9946 N   0  0  0  0  0  0  0  0  0  0  0  0
    9.3882   14.5045   26.6434 S   0  0  0  0  0  0  0  0  0  0  0  0
    9.9879   15.5048   25.7960 O   0  0  0  0  0  0  0  0  0  0  0  0
    9.2241   14.7040   28.0571 O   0  0  0  0  0  0  0  0  0  0  0  0
   10.3252   13.1252   26.4406 N   0  0  0  0  0  0  0  0  0  0  0  0
   10.2284   12.6024   25.0899 C   0  0  0  0  0  0  0  0  0  0  0  0
   11.0369   11.3605   24.9835 C   0  0  0  0  0  0  0  0  0  0  0  0
   12.5245   11.6969   25.1817 C   0  0  0  0  0  0  0  0  0  0  0  0
   12.7602   13.0496   25.8055 C   0  0  0  0  0  0  0  0  0  0  0  0
   11.7422   13.3631   26.8768 C   0  0  0  0  0  0  0  0  0  0  0  0
    6.9829   15.3151   25.9996 C   0  0  0  0  0  0  0  0  0  0  0  0
    5.7336   15.0294   25.1719 C   0  0  0  0  0  0  0  0  0  0  0  0
  2  1  1  6
  2  3  1  0
  3  4  1  0
  4  5  1  0
  5  6  1  0
  6  7  1  0
  6  8  1  0
  2  9  1  0
  9 10  1  0
 10 11  2  0
 10 12  1  0
 12 13  1  0
 13 14  1  0
 14 15  1  0
 15 16  1  0
 16 17  2  0
 16 18  2  0
 16 19  1  0
 19 20  1  0
 20 21  1  0
 21 22  1  0
 22 23  1  0
 23 24  1  0
 15 25  1  0
 25 26  1  0
 26 12  1  0
 24 19  1  0
M  END
>  <energy_score>  (2416) 
-32.424162

>  <inchikey>  (2416) 
None

>  <smiles>  (2416) 
None

>  <ref_pdb>  (2416) 
A4706a

>  <alias>  (2416) 
None

>  <HIPPO Pose ID>  (2416) 
500060

>  <name>  (2416) 
P500060

>  <HIPPO Compound ID>  (2416) 
314510

>  <ref_mols>  (2416) 
A0875a,A4706a

>  <distance_score>  (2416) 
1.652726

>  <inspiration_score>  (2416) 
None

$$$$
P500061
     RDKit          3D

 26 28  0  0  0  0  0  0  0  0999 V2000
   10.7600   15.2767   19.0108 C   0  0  0  0  0  0  0  0  0  0  0  0
    9.5514   15.7886   19.6435 N   0  0  0  0  0  0  0  0  0  0  0  0
    9.5860   17.2004   19.9523 C   0  0  0  0  0  0  0  0  0  0  0  0
    8.9349   14.9536   20.6907 C   0  0  1  0  0  0  0  0  0  0  0  0
    9.9057   14.0209   21.4075 C   0  0  0  0  0  0  0  0  0  0  0  0
   10.2642   14.5964   22.6361 O   0  0  0  0  0  0  0  0  0  0  0  0
    9.3797   15.6660   22.8830 C   0  0  0  0  0  0  0  0  0  0  0  0
    8.2648   15.6813   21.8623 C   0  0  2  0  0  0  0  0  0  0  0  0
    6.9468   15.1796   22.2173 O   0  0  0  0  0  0  0  0  0  0  0  0
    6.7326   13.9441   22.6939 C   0  0  0  0  0  0  0  0  0  0  0  0
    6.4166   12.9998   21.9880 O   0  0  0  0  0  0  0  0  0  0  0  0
    6.9986   13.8183   24.1544 C   0  0  0  0  0  0  0  0  0  0  0  0
    6.6295   12.4854   24.8287 C   0  0  0  0  0  0  0  0  0  0  0  0
    7.3401   12.3689   26.1896 C   0  0  0  0  0  0  0  0  0  0  0  0
    7.9209   13.6749   26.5155 N   0  0  0  0  0  0  0  0  0  0  0  0
    9.5324   14.0643   26.4188 S   0  0  0  0  0  0  0  0  0  0  0  0
   10.2199   13.4017   27.4929 O   0  0  0  0  0  0  0  0  0  0  0  0
    9.6271   15.5030   26.2905 O   0  0  0  0  0  0  0  0  0  0  0  0
   10.2679   13.4822   25.0489 N   0  0  0  0  0  0  0  0  0  0  0  0
   10.0954   12.1741   24.4065 C   0  0  0  0  0  0  0  0  0  0  0  0
   10.8009   11.1088   25.1914 C   0  0  0  0  0  0  0  0  0  0  0  0
   12.2316   11.5299   25.5704 C   0  0  0  0  0  0  0  0  0  0  0  0
   12.6601   12.7762   24.8359 C   0  0  0  0  0  0  0  0  0  0  0  0
   11.6994   13.9209   25.0380 C   0  0  0  0  0  0  0  0  0  0  0  0
    6.9136   14.7602   26.4637 C   0  0  0  0  0  0  0  0  0  0  0  0
    6.4955   14.9770   25.0137 C   0  0  0  0  0  0  0  0  0  0  0  0
  1  2  1  0
  2  3  1  0
  4  2  1  6
  4  5  1  0
  5  6  1  0
  6  7  1  0
  7  8  1  0
  8  9  1  1
  9 10  1  0
 10 11  2  0
 10 12  1  0
 12 13  1  0
 13 14  1  0
 14 15  1  0
 15 16  1  0
 16 17  2  0
 16 18  2  0
 16 19  1  0
 19 20  1  0
 20 21  1  0
 21 22  1  0
 22 23  1  0
 23 24  1  0
 15 25  1  0
 25 26  1  0
  8  4  1  0
 26 12  1  0
 24 19  1  0
M  END
>  <energy_score>  (2417) 
-2.552865

>  <inchikey>  (2417) 
None

>  <smiles>  (2417) 
None

>  <ref_pdb>  (2417) 
A4706a

>  <alias>  (2417) 
None

>  <HIPPO Pose ID>  (2417) 
500061

>  <name>  (2417) 
P500061

>  <HIPPO Compound ID>  (2417) 
314512

>  <ref_mols>  (2417) 
A4706a,A0875a

>  <distance_score>  (2417) 
1.632142

>  <inspiration_score>  (2417) 
None

$$$$
P500062
     RDKit          3D

 26 28  0  0  0  0  0  0  0  0999 V2000
   11.2246   14.4727   18.7628 C   0  0  0  0  0  0  0  0  0  0  0  0
   10.1579   14.8310   19.6914 N   0  0  0  0  0  0  0  0  0  0  0  0
    9.5538   16.0224   19.1726 C   0  0  0  0  0  0  0  0  0  0  0  0
   10.6724   15.0756   21.0119 C   0  0  2  0  0  0  0  0  0  0  0  0
   11.0884   13.8764   21.8270 C   0  0  0  0  0  0  0  0  0  0  0  0
   11.4376   14.4112   23.1096 O   0  0  0  0  0  0  0  0  0  0  0  0
   10.9744   15.7707   23.1095 C   0  0  0  0  0  0  0  0  0  0  0  0
    9.9024   15.9195   22.0368 C   0  0  2  0  0  0  0  0  0  0  0  0
    8.5995   15.6466   22.6526 O   0  0  0  0  0  0  0  0  0  0  0  0
    7.5599   14.8897   22.2428 C   0  0  0  0  0  0  0  0  0  0  0  0
    7.5426   14.1937   21.2361 O   0  0  0  0  0  0  0  0  0  0  0  0
    6.3106   14.9751   23.1968 C   0  0  0  0  0  0  0  0  0  0  0  0
    5.7023   13.5973   23.5251 C   0  0  0  0  0  0  0  0  0  0  0  0
    6.3638   12.8050   24.6691 C   0  0  0  0  0  0  0  0  0  0  0  0
    7.1666   13.6849   25.5599 N   0  0  0  0  0  0  0  0  0  0  0  0
    8.7785   13.8967   25.1027 S   0  0  0  0  0  0  0  0  0  0  0  0
    9.1445   15.2529   25.4136 O   0  0  0  0  0  0  0  0  0  0  0  0
    8.9084   13.2871   23.8094 O   0  0  0  0  0  0  0  0  0  0  0  0
    9.5796   12.9072   26.1504 N   0  0  0  0  0  0  0  0  0  0  0  0
    9.6315   11.5196   25.6999 C   0  0  0  0  0  0  0  0  0  0  0  0
   10.8958   11.2207   24.9403 C   0  0  0  0  0  0  0  0  0  0  0  0
   12.1984   11.8131   25.4720 C   0  0  0  0  0  0  0  0  0  0  0  0
   12.0648   13.2223   25.9788 C   0  0  0  0  0  0  0  0  0  0  0  0
   10.7984   13.4667   26.7583 C   0  0  0  0  0  0  0  0  0  0  0  0
    6.4372   14.9503   25.7981 C   0  0  0  0  0  0  0  0  0  0  0  0
    6.3656   15.7838   24.5088 C   0  0  0  0  0  0  0  0  0  0  0  0
  1  2  1  0
  2  3  1  0
  4  2  1  6
  4  5  1  0
  5  6  1  0
  6  7  1  0
  7  8  1  0
  8  9  1  1
  9 10  1  0
 10 11  2  0
 10 12  1  0
 12 13  1  0
 13 14  1  0
 14 15  1  0
 15 16  1  0
 16 17  2  0
 16 18  2  0
 16 19  1  0
 19 20  1  0
 20 21  1  0
 21 22  1  0
 22 23  1  0
 23 24  1  0
 15 25  1  0
 25 26  1  0
  8  4  1  0
 26 12  1  0
 24 19  1  0
M  END
>  <energy_score>  (2418) 
-16.946095

>  <inchikey>  (2418) 
None

>  <smiles>  (2418) 
None

>  <ref_pdb>  (2418) 
A4706a

>  <alias>  (2418) 
None

>  <HIPPO Pose ID>  (2418) 
500062

>  <name>  (2418) 
P500062

>  <HIPPO Compound ID>  (2418) 
314512

>  <ref_mols>  (2418) 
A4706a,A0875a

>  <distance_score>  (2418) 
1.887737

>  <inspiration_score>  (2418) 
None

$$$$
P500063
     RDKit          3D

 26 28  0  0  0  0  0  0  0  0999 V2000
   11.4022   14.5795   18.8493 C   0  0  0  0  0  0  0  0  0  0  0  0
   10.6740   15.3031   19.8708 N   0  0  0  0  0  0  0  0  0  0  0  0
    9.4797   15.8342   19.2560 C   0  0  0  0  0  0  0  0  0  0  0  0
   10.2359   14.4894   21.0287 C   0  0  1  0  0  0  0  0  0  0  0  0
   11.3651   13.8456   21.8134 C   0  0  0  0  0  0  0  0  0  0  0  0
   11.8791   14.7987   22.7369 O   0  0  0  0  0  0  0  0  0  0  0  0
   10.9589   15.9034   22.7111 C   0  0  0  0  0  0  0  0  0  0  0  0
    9.6540   15.4140   22.0946 C   0  0  2  0  0  0  0  0  0  0  0  0
    8.9057   14.7146   23.1056 O   0  0  0  0  0  0  0  0  0  0  0  0
    7.7914   14.0061   22.8362 C   0  0  0  0  0  0  0  0  0  0  0  0
    7.2198   13.9271   21.7596 O   0  0  0  0  0  0  0  0  0  0  0  0
    7.3877   13.2064   24.0698 C   0  0  0  0  0  0  0  0  0  0  0  0
    8.4113   12.0593   24.1806 C   0  0  0  0  0  0  0  0  0  0  0  0
    8.7352   11.5916   25.5747 C   0  0  0  0  0  0  0  0  0  0  0  0
    8.9367   12.7292   26.4615 N   0  0  0  0  0  0  0  0  0  0  0  0
   10.3092   13.7097   26.4175 S   0  0  0  0  0  0  0  0  0  0  0  0
   10.2813   14.4219   27.6697 O   0  0  0  0  0  0  0  0  0  0  0  0
   10.3250   14.4326   25.1795 O   0  0  0  0  0  0  0  0  0  0  0  0
   11.6530   12.6423   26.4324 N   0  0  0  0  0  0  0  0  0  0  0  0
   12.7824   13.0664   27.3276 C   0  0  0  0  0  0  0  0  0  0  0  0
   14.1847   12.8225   26.7596 C   0  0  0  0  0  0  0  0  0  0  0  0
   14.3404   11.4464   26.2081 C   0  0  0  0  0  0  0  0  0  0  0  0
   13.2408   11.2085   25.2052 C   0  0  0  0  0  0  0  0  0  0  0  0
   12.1480   12.2820   25.0959 C   0  0  0  0  0  0  0  0  0  0  0  0
    7.6514   13.4783   26.6130 C   0  0  0  0  0  0  0  0  0  0  0  0
    7.2405   14.1245   25.2987 C   0  0  0  0  0  0  0  0  0  0  0  0
  1  2  1  0
  2  3  1  0
  4  2  1  6
  4  5  1  0
  5  6  1  0
  6  7  1  0
  7  8  1  0
  8  9  1  1
  9 10  1  0
 10 11  2  0
 10 12  1  0
 12 13  1  0
 13 14  1  0
 14 15  1  0
 15 16  1  0
 16 17  2  0
 16 18  2  0
 16 19  1  0
 19 20  1  0
 20 21  1  0
 21 22  1  0
 22 23  1  0
 23 24  1  0
 15 25  1  0
 25 26  1  0
  8  4  1  0
 26 12  1  0
 24 19  1  0
M  END
>  <energy_score>  (2419) 
-58.741302

>  <inchikey>  (2419) 
None

>  <smiles>  (2419) 
None

>  <ref_pdb>  (2419) 
A4706a

>  <alias>  (2419) 
None

>  <HIPPO Pose ID>  (2419) 
500063

>  <name>  (2419) 
P500063

>  <HIPPO Compound ID>  (2419) 
314512

>  <ref_mols>  (2419) 
A4706a,A0875a

>  <distance_score>  (2419) 
1.403466

>  <inspiration_score>  (2419) 
None

$$$$
P500064
     RDKit          3D

 26 28  0  0  0  0  0  0  0  0999 V2000
    8.8848   17.2866   21.1384 C   0  0  0  0  0  0  0  0  0  0  0  0
    8.9164   15.7976   21.5496 C   0  0  1  0  0  0  0  0  0  0  0  0
    7.6862   15.5598   22.3256 O   0  0  0  0  0  0  0  0  0  0  0  0
    7.2239   14.3023   22.5547 C   0  0  0  0  0  0  0  0  0  0  0  0
    6.7927   13.5212   21.7203 O   0  0  0  0  0  0  0  0  0  0  0  0
    7.4090   13.9334   23.9907 C   0  0  0  0  0  0  0  0  0  0  0  0
    7.2323   12.4610   24.3439 C   0  0  0  0  0  0  0  0  0  0  0  0
    7.7265   12.1593   25.7560 C   0  0  0  0  0  0  0  0  0  0  0  0
    7.9856   13.3958   26.5081 N   0  0  0  0  0  0  0  0  0  0  0  0
    9.4710   14.1796   26.5767 S   0  0  0  0  0  0  0  0  0  0  0  0
    9.6842   15.0419   25.4402 O   0  0  0  0  0  0  0  0  0  0  0  0
    9.5239   14.7531   27.8973 O   0  0  0  0  0  0  0  0  0  0  0  0
   10.6648   12.9712   26.4876 N   0  0  0  0  0  0  0  0  0  0  0  0
   10.9129   12.4120   25.1219 C   0  0  0  0  0  0  0  0  0  0  0  0
   12.2604   12.8513   24.5846 C   0  0  0  0  0  0  0  0  0  0  0  0
   13.3758   12.3052   25.4694 C   0  0  0  0  0  0  0  0  0  0  0  0
   13.1049   12.6048   26.9316 C   0  0  0  0  0  0  0  0  0  0  0  0
   11.9070   13.5170   27.1253 C   0  0  0  0  0  0  0  0  0  0  0  0
    6.8230   14.3254   26.4200 C   0  0  0  0  0  0  0  0  0  0  0  0
    6.6716   14.8314   24.9817 C   0  0  0  0  0  0  0  0  0  0  0  0
    8.9845   14.8787   20.3318 C   0  0  0  0  0  0  0  0  0  0  0  0
    9.8280   15.3669   19.2564 N   0  0  0  0  0  0  0  0  0  0  0  0
   11.2079   14.9652   19.3969 C   0  0  0  0  0  0  0  0  0  0  0  0
   11.8123   14.8667   20.8043 C   0  0  0  0  0  0  0  0  0  0  0  0
   11.3985   15.8265   21.7671 O   0  0  0  0  0  0  0  0  0  0  0  0
   10.1679   15.5015   22.4025 C   0  0  0  0  0  0  0  0  0  0  0  0
  2  1  1  6
  2  3  1  0
  3  4  1  0
  4  5  2  0
  4  6  1  0
  6  7  1  0
  7  8  1  0
  8  9  1  0
  9 10  1  0
 10 11  2  0
 10 12  2  0
 10 13  1  0
 13 14  1  0
 14 15  1  0
 15 16  1  0
 16 17  1  0
 17 18  1  0
  9 19  1  0
 19 20  1  0
  2 21  1  0
 21 22  1  0
 22 23  1  0
 23 24  1  0
 24 25  1  0
 25 26  1  0
 26  2  1  0
 20  6  1  0
 18 13  1  0
M  END
>  <energy_score>  (2420) 
-39.758247

>  <inchikey>  (2420) 
None

>  <smiles>  (2420) 
None

>  <ref_pdb>  (2420) 
A4706a

>  <alias>  (2420) 
None

>  <HIPPO Pose ID>  (2420) 
500064

>  <name>  (2420) 
P500064

>  <HIPPO Compound ID>  (2420) 
314513

>  <ref_mols>  (2420) 
A0875a,A4706a

>  <distance_score>  (2420) 
1.677227

>  <inspiration_score>  (2420) 
None

$$$$
P500065
     RDKit          3D

 26 27  0  0  0  0  0  0  0  0999 V2000
   18.8907   11.5652   28.7343 C   0  0  0  0  0  0  0  0  0  0  0  0
   17.7074   12.1930   29.2089 O   0  0  0  0  0  0  0  0  0  0  0  0
   16.5708   11.8559   28.4093 C   0  0  0  0  0  0  0  0  0  0  0  0
   15.3113   12.4912   29.0250 C   0  0  2  0  0  0  0  0  0  0  0  0
   14.5380   11.5637   29.9942 C   0  0  0  0  0  0  0  0  0  0  0  0
   15.2935   11.0063   31.1239 N   0  0  0  0  0  0  0  0  0  0  0  0
   15.7029   12.0343   32.0811 C   0  0  0  0  0  0  0  0  0  0  0  0
   14.5095    9.9714   31.8049 C   0  0  0  0  0  0  0  0  0  0  0  0
   14.4062   13.0241   28.0060 O   0  0  0  0  0  0  0  0  0  0  0  0
   13.9266   12.2015   27.0382 C   0  0  0  0  0  0  0  0  0  0  0  0
   14.2420   11.0319   26.8819 O   0  0  0  0  0  0  0  0  0  0  0  0
   12.9955   12.9271   26.0940 C   0  0  0  0  0  0  0  0  0  0  0  0
   11.9282   13.7731   26.7837 C   0  0  0  0  0  0  0  0  0  0  0  0
   10.5363   13.2125   26.6235 C   0  0  0  0  0  0  0  0  0  0  0  0
   10.1792   13.0096   25.2096 N   0  0  0  0  0  0  0  0  0  0  0  0
    9.0281   14.0964   24.6575 S   0  0  0  0  0  0  0  0  0  0  0  0
    8.8151   13.9098   23.2479 O   0  0  0  0  0  0  0  0  0  0  0  0
    9.3886   15.3653   25.2358 O   0  0  0  0  0  0  0  0  0  0  0  0
    7.7218   13.4802   25.4994 N   0  0  0  0  0  0  0  0  0  0  0  0
    7.2122   12.1570   25.0913 C   0  0  0  0  0  0  0  0  0  0  0  0
    6.5244   11.5429   26.3055 C   0  0  0  0  0  0  0  0  0  0  0  0
    5.4219   12.4569   26.8416 C   0  0  0  0  0  0  0  0  0  0  0  0
    5.9236   13.8846   27.0625 C   0  0  0  0  0  0  0  0  0  0  0  0
    6.6313   14.4220   25.8196 C   0  0  0  0  0  0  0  0  0  0  0  0
   11.2915   12.7362   24.2932 C   0  0  0  0  0  0  0  0  0  0  0  0
   12.3781   11.9948   25.0700 C   0  0  0  0  0  0  0  0  0  0  0  0
  1  2  1  0
  2  3  1  0
  4  3  1  6
  4  5  1  0
  5  6  1  0
  6  7  1  0
  6  8  1  0
  4  9  1  0
  9 10  1  0
 10 11  2  0
 10 12  1  0
 12 13  1  0
 13 14  1  0
 14 15  1  0
 15 16  1  0
 16 17  2  0
 16 18  2  0
 16 19  1  0
 19 20  1  0
 20 21  1  0
 21 22  1  0
 22 23  1  0
 23 24  1  0
 15 25  1  0
 25 26  1  0
 26 12  1  0
 24 19  1  0
M  END
>  <energy_score>  (2421) 
-103.912761

>  <inchikey>  (2421) 
None

>  <smiles>  (2421) 
None

>  <ref_pdb>  (2421) 
A4706a

>  <alias>  (2421) 
None

>  <HIPPO Pose ID>  (2421) 
500065

>  <name>  (2421) 
P500065

>  <HIPPO Compound ID>  (2421) 
314514

>  <ref_mols>  (2421) 
A4706a,A0875a

>  <distance_score>  (2421) 
1.921993

>  <inspiration_score>  (2421) 
None

$$$$
P500066
     RDKit          3D

 26 27  0  0  0  0  0  0  0  0999 V2000
   17.9601   13.5736   29.0971 C   0  0  0  0  0  0  0  0  0  0  0  0
   16.5430   13.4009   29.1081 O   0  0  0  0  0  0  0  0  0  0  0  0
   16.1967   12.0121   29.0420 C   0  0  0  0  0  0  0  0  0  0  0  0
   14.6897   11.8444   29.2785 C   0  0  1  0  0  0  0  0  0  0  0  0
   14.2573   12.3430   30.6765 C   0  0  0  0  0  0  0  0  0  0  0  0
   14.8130   11.5718   31.8047 N   0  0  0  0  0  0  0  0  0  0  0  0
   14.6051   12.2984   33.0609 C   0  0  0  0  0  0  0  0  0  0  0  0
   14.2146   10.2362   31.9071 C   0  0  0  0  0  0  0  0  0  0  0  0
   13.9328   12.6021   28.2962 O   0  0  0  0  0  0  0  0  0  0  0  0
   13.7895   12.0390   27.0759 C   0  0  0  0  0  0  0  0  0  0  0  0
   14.2763   10.9690   26.7315 O   0  0  0  0  0  0  0  0  0  0  0  0
   12.9757   12.8850   26.1268 C   0  0  0  0  0  0  0  0  0  0  0  0
   11.9158   13.7813   26.7638 C   0  0  0  0  0  0  0  0  0  0  0  0
   10.5224   13.2213   26.6134 C   0  0  0  0  0  0  0  0  0  0  0  0
   10.1642   13.0149   25.1964 N   0  0  0  0  0  0  0  0  0  0  0  0
    9.0036   14.0979   24.6519 S   0  0  0  0  0  0  0  0  0  0  0  0
    8.7834   13.9102   23.2434 O   0  0  0  0  0  0  0  0  0  0  0  0
    9.3614   15.3686   25.2278 O   0  0  0  0  0  0  0  0  0  0  0  0
    7.7050   13.4762   25.5011 N   0  0  0  0  0  0  0  0  0  0  0  0
    7.1968   12.1525   25.0943 C   0  0  0  0  0  0  0  0  0  0  0  0
    6.5200   11.5344   26.3125 C   0  0  0  0  0  0  0  0  0  0  0  0
    5.4195   12.4443   26.8597 C   0  0  0  0  0  0  0  0  0  0  0  0
    5.9186   13.8732   27.0788 C   0  0  0  0  0  0  0  0  0  0  0  0
    6.6146   14.4144   25.8310 C   0  0  0  0  0  0  0  0  0  0  0  0
   11.2899   12.7879   24.2808 C   0  0  0  0  0  0  0  0  0  0  0  0
   12.3630   12.0177   25.0417 C   0  0  0  0  0  0  0  0  0  0  0  0
  1  2  1  0
  2  3  1  0
  4  3  1  6
  4  5  1  0
  5  6  1  0
  6  7  1  0
  6  8  1  0
  4  9  1  0
  9 10  1  0
 10 11  2  0
 10 12  1  0
 12 13  1  0
 13 14  1  0
 14 15  1  0
 15 16  1  0
 16 17  2  0
 16 18  2  0
 16 19  1  0
 19 20  1  0
 20 21  1  0
 21 22  1  0
 22 23  1  0
 23 24  1  0
 15 25  1  0
 25 26  1  0
 26 12  1  0
 24 19  1  0
M  END
>  <energy_score>  (2422) 
-87.735839

>  <inchikey>  (2422) 
None

>  <smiles>  (2422) 
None

>  <ref_pdb>  (2422) 
A4706a

>  <alias>  (2422) 
None

>  <HIPPO Pose ID>  (2422) 
500066

>  <name>  (2422) 
P500066

>  <HIPPO Compound ID>  (2422) 
314514

>  <ref_mols>  (2422) 
A4706a,A0875a

>  <distance_score>  (2422) 
1.9062

>  <inspiration_score>  (2422) 
None

$$$$
P500067
     RDKit          3D

 26 28  0  0  0  0  0  0  0  0999 V2000
   11.1748   14.8292   18.5181 C   0  0  0  0  0  0  0  0  0  0  0  0
   10.6114   14.7932   19.9093 C   0  0  1  0  0  0  0  0  0  0  0  0
   11.7299   14.6918   20.9389 C   0  0  0  0  0  0  0  0  0  0  0  0
   11.2122   14.7186   22.2672 O   0  0  0  0  0  0  0  0  0  0  0  0
   10.4444   15.9117   22.4172 C   0  0  0  0  0  0  0  0  0  0  0  0
    9.2579   15.9876   21.4462 C   0  0  2  0  0  0  0  0  0  0  0  0
    8.1924   14.8978   21.6625 C   0  0  0  0  0  0  0  0  0  0  0  0
    7.3608   15.1052   22.8240 O   0  0  0  0  0  0  0  0  0  0  0  0
    6.6471   13.9901   23.1429 C   0  0  0  0  0  0  0  0  0  0  0  0
    6.5588   13.0068   22.4065 O   0  0  0  0  0  0  0  0  0  0  0  0
    5.9490   14.0244   24.5056 C   0  0  0  0  0  0  0  0  0  0  0  0
    5.9949   12.6136   25.1309 C   0  0  0  0  0  0  0  0  0  0  0  0
    7.3666   12.2058   25.6694 C   0  0  0  0  0  0  0  0  0  0  0  0
    8.0467   13.3374   26.3442 N   0  0  0  0  0  0  0  0  0  0  0  0
    9.3982   13.9848   25.5677 S   0  0  0  0  0  0  0  0  0  0  0  0
    9.2207   13.8430   24.1526 O   0  0  0  0  0  0  0  0  0  0  0  0
    9.6392   15.2691   26.1819 O   0  0  0  0  0  0  0  0  0  0  0  0
   10.6720   12.9810   25.9906 N   0  0  0  0  0  0  0  0  0  0  0  0
   11.9577   13.7317   26.0126 C   0  0  0  0  0  0  0  0  0  0  0  0
   12.8910   13.2802   24.9010 C   0  0  0  0  0  0  0  0  0  0  0  0
   13.3520   11.8704   25.1461 C   0  0  0  0  0  0  0  0  0  0  0  0
   12.1501   11.0962   25.5830 C   0  0  0  0  0  0  0  0  0  0  0  0
   10.7829   11.7018   25.2432 C   0  0  0  0  0  0  0  0  0  0  0  0
    7.0728   14.3907   26.7658 C   0  0  0  0  0  0  0  0  0  0  0  0
    6.4400   15.0525   25.5345 C   0  0  0  0  0  0  0  0  0  0  0  0
    9.7816   15.9419   20.1006 O   0  0  0  0  0  0  0  0  0  0  0  0
  2  1  1  6
  2  3  1  0
  3  4  1  0
  4  5  1  0
  5  6  1  0
  6  7  1  1
  7  8  1  0
  8  9  1  0
  9 10  2  0
  9 11  1  0
 11 12  1  0
 12 13  1  0
 13 14  1  0
 14 15  1  0
 15 16  2  0
 15 17  2  0
 15 18  1  0
 18 19  1  0
 19 20  1  0
 20 21  1  0
 21 22  1  0
 22 23  1  0
 14 24  1  0
 24 25  1  0
  6 26  1  0
 26  2  1  0
 25 11  1  0
 23 18  1  0
M  END
>  <energy_score>  (2423) 
-62.514342

>  <inchikey>  (2423) 
None

>  <smiles>  (2423) 
None

>  <ref_pdb>  (2423) 
A4706a

>  <alias>  (2423) 
None

>  <HIPPO Pose ID>  (2423) 
500067

>  <name>  (2423) 
P500067

>  <HIPPO Compound ID>  (2423) 
314515

>  <ref_mols>  (2423) 
A0875a,A4706a

>  <distance_score>  (2423) 
1.413384

>  <inspiration_score>  (2423) 
None

$$$$
P500068
     RDKit          3D

 26 28  0  0  0  0  0  0  0  0999 V2000
   11.2415   14.9168   18.5691 C   0  0  0  0  0  0  0  0  0  0  0  0
   10.6463   14.7856   19.9443 C   0  0  1  0  0  0  0  0  0  0  0  0
   11.7193   14.5574   21.0034 C   0  0  0  0  0  0  0  0  0  0  0  0
   11.1421   14.4375   22.3095 O   0  0  0  0  0  0  0  0  0  0  0  0
   10.4285   15.6462   22.5739 C   0  0  0  0  0  0  0  0  0  0  0  0
    9.3042   15.8773   21.5634 C   0  0  2  0  0  0  0  0  0  0  0  0
    8.1848   14.8344   21.6784 C   0  0  0  0  0  0  0  0  0  0  0  0
    7.7027   14.6468   23.0150 O   0  0  0  0  0  0  0  0  0  0  0  0
    6.8349   13.6103   23.1002 C   0  0  0  0  0  0  0  0  0  0  0  0
    6.3766   13.0190   22.1266 O   0  0  0  0  0  0  0  0  0  0  0  0
    6.5354   13.1349   24.5048 C   0  0  0  0  0  0  0  0  0  0  0  0
    7.4536   11.9498   24.8643 C   0  0  0  0  0  0  0  0  0  0  0  0
    8.4545   12.2852   25.9669 C   0  0  0  0  0  0  0  0  0  0  0  0
    9.0241   13.6043   25.6590 N   0  0  0  0  0  0  0  0  0  0  0  0
   10.4543   14.0880   26.3993 S   0  0  0  0  0  0  0  0  0  0  0  0
   10.1249   14.2161   27.7983 O   0  0  0  0  0  0  0  0  0  0  0  0
   10.9530   15.2235   25.6617 O   0  0  0  0  0  0  0  0  0  0  0  0
   11.6066   12.8434   26.3071 N   0  0  0  0  0  0  0  0  0  0  0  0
   12.0918   12.4859   24.9742 C   0  0  0  0  0  0  0  0  0  0  0  0
   13.1130   11.3336   25.1235 C   0  0  0  0  0  0  0  0  0  0  0  0
   14.2707   11.4992   26.0729 C   0  0  0  0  0  0  0  0  0  0  0  0
   14.1483   12.8293   26.7197 C   0  0  0  0  0  0  0  0  0  0  0  0
   12.7454   13.0546   27.2777 C   0  0  0  0  0  0  0  0  0  0  0  0
    7.9868   14.6931   25.8662 C   0  0  0  0  0  0  0  0  0  0  0  0
    6.5724   14.2437   25.5381 C   0  0  0  0  0  0  0  0  0  0  0  0
    9.8416   15.9323   20.2282 O   0  0  0  0  0  0  0  0  0  0  0  0
  2  1  1  6
  2  3  1  0
  3  4  1  0
  4  5  1  0
  5  6  1  0
  6  7  1  6
  7  8  1  0
  8  9  1  0
  9 10  2  0
  9 11  1  0
 11 12  1  0
 12 13  1  0
 13 14  1  0
 14 15  1  0
 15 16  2  0
 15 17  2  0
 15 18  1  0
 18 19  1  0
 19 20  1  0
 20 21  1  0
 21 22  1  0
 22 23  1  0
 14 24  1  0
 24 25  1  0
  6 26  1  0
 26  2  1  0
 25 11  1  0
 23 18  1  0
M  END
>  <energy_score>  (2424) 
-71.134356

>  <inchikey>  (2424) 
None

>  <smiles>  (2424) 
None

>  <ref_pdb>  (2424) 
A4706a

>  <alias>  (2424) 
None

>  <HIPPO Pose ID>  (2424) 
500068

>  <name>  (2424) 
P500068

>  <HIPPO Compound ID>  (2424) 
314515

>  <ref_mols>  (2424) 
A4706a,A0875a

>  <distance_score>  (2424) 
1.63109

>  <inspiration_score>  (2424) 
None

$$$$
P500069
     RDKit          3D

 26 28  0  0  0  0  0  0  0  0999 V2000
   11.2643   14.7033   18.5974 C   0  0  0  0  0  0  0  0  0  0  0  0
   10.7233   15.2184   19.9037 C   0  0  2  0  0  0  0  0  0  0  0  0
   11.7286   14.9939   21.0457 C   0  0  0  0  0  0  0  0  0  0  0  0
   11.2807   15.5057   22.3051 O   0  0  0  0  0  0  0  0  0  0  0  0
    9.8755   15.7835   22.2588 C   0  0  0  0  0  0  0  0  0  0  0  0
    9.1115   14.6429   21.5835 C   0  0  1  0  0  0  0  0  0  0  0  0
    7.5791   14.7600   21.7074 C   0  0  0  0  0  0  0  0  0  0  0  0
    7.0871   13.9496   22.7970 O   0  0  0  0  0  0  0  0  0  0  0  0
    5.8891   14.3198   23.3274 C   0  0  0  0  0  0  0  0  0  0  0  0
    5.0940   15.0759   22.7825 O   0  0  0  0  0  0  0  0  0  0  0  0
    5.6583   13.7441   24.7341 C   0  0  0  0  0  0  0  0  0  0  0  0
    6.3850   12.4074   24.9848 C   0  0  0  0  0  0  0  0  0  0  0  0
    7.1835   12.2585   26.2646 C   0  0  0  0  0  0  0  0  0  0  0  0
    7.7503   13.5226   26.7255 N   0  0  0  0  0  0  0  0  0  0  0  0
    9.0477   14.2735   25.9685 S   0  0  0  0  0  0  0  0  0  0  0  0
    9.5630   15.2355   26.9112 O   0  0  0  0  0  0  0  0  0  0  0  0
    8.6307   14.6965   24.6651 O   0  0  0  0  0  0  0  0  0  0  0  0
   10.2266   13.1202   25.7376 N   0  0  0  0  0  0  0  0  0  0  0  0
   11.5923   13.7306   25.7050 C   0  0  0  0  0  0  0  0  0  0  0  0
   12.6056   12.7907   25.0601 C   0  0  0  0  0  0  0  0  0  0  0  0
   12.2859   11.3627   25.4625 C   0  0  0  0  0  0  0  0  0  0  0  0
   10.8371   10.9542   25.0530 C   0  0  0  0  0  0  0  0  0  0  0  0
   10.0547   12.1749   24.6180 C   0  0  0  0  0  0  0  0  0  0  0  0
    6.6341   14.4565   27.0345 C   0  0  0  0  0  0  0  0  0  0  0  0
    5.9017   14.8667   25.7619 C   0  0  0  0  0  0  0  0  0  0  0  0
    9.4639   14.5981   20.1892 O   0  0  0  0  0  0  0  0  0  0  0  0
  2  1  1  6
  2  3  1  0
  3  4  1  0
  4  5  1  0
  5  6  1  0
  6  7  1  6
  7  8  1  0
  8  9  1  0
  9 10  2  0
  9 11  1  0
 11 12  1  0
 12 13  1  0
 13 14  1  0
 14 15  1  0
 15 16  2  0
 15 17  2  0
 15 18  1  0
 18 19  1  0
 19 20  1  0
 20 21  1  0
 21 22  1  0
 22 23  1  0
 14 24  1  0
 24 25  1  0
  6 26  1  0
 26  2  1  0
 25 11  1  0
 23 18  1  0
M  END
>  <energy_score>  (2425) 
-55.844808

>  <inchikey>  (2425) 
None

>  <smiles>  (2425) 
None

>  <ref_pdb>  (2425) 
A4706a

>  <alias>  (2425) 
None

>  <HIPPO Pose ID>  (2425) 
500069

>  <name>  (2425) 
P500069

>  <HIPPO Compound ID>  (2425) 
314515

>  <ref_mols>  (2425) 
A4706a,A0875a

>  <distance_score>  (2425) 
1.685749

>  <inspiration_score>  (2425) 
None

$$$$
P500070
     RDKit          3D

 26 28  0  0  0  0  0  0  0  0999 V2000
   11.1677   14.7487   18.6071 C   0  0  0  0  0  0  0  0  0  0  0  0
   10.6891   15.2368   19.9507 C   0  0  2  0  0  0  0  0  0  0  0  0
   11.6714   14.8424   21.0652 C   0  0  0  0  0  0  0  0  0  0  0  0
   11.3123   15.3374   22.3587 O   0  0  0  0  0  0  0  0  0  0  0  0
    9.9545   15.7776   22.3673 C   0  0  0  0  0  0  0  0  0  0  0  0
    9.0222   14.8271   21.6122 C   0  0  1  0  0  0  0  0  0  0  0  0
    7.5546   15.2651   21.7714 C   0  0  0  0  0  0  0  0  0  0  0  0
    6.9952   15.1261   23.0930 O   0  0  0  0  0  0  0  0  0  0  0  0
    6.5148   13.8911   23.3847 C   0  0  0  0  0  0  0  0  0  0  0  0
    6.5579   12.9410   22.6076 O   0  0  0  0  0  0  0  0  0  0  0  0
    5.8477   13.7957   24.7606 C   0  0  0  0  0  0  0  0  0  0  0  0
    6.0089   12.3727   25.3217 C   0  0  0  0  0  0  0  0  0  0  0  0
    7.4122   12.0434   25.8150 C   0  0  0  0  0  0  0  0  0  0  0  0
    8.0353   13.1999   26.4961 N   0  0  0  0  0  0  0  0  0  0  0  0
    9.3109   13.9518   25.6964 S   0  0  0  0  0  0  0  0  0  0  0  0
    9.5126   15.2252   26.3447 O   0  0  0  0  0  0  0  0  0  0  0  0
    9.0812   13.8521   24.2853 O   0  0  0  0  0  0  0  0  0  0  0  0
   10.6496   13.0068   26.0184 N   0  0  0  0  0  0  0  0  0  0  0  0
   10.7681   11.7195   25.2919 C   0  0  0  0  0  0  0  0  0  0  0  0
   12.1588   11.1574   25.6119 C   0  0  0  0  0  0  0  0  0  0  0  0
   13.3169   11.9673   25.1233 C   0  0  0  0  0  0  0  0  0  0  0  0
   12.7907   13.3412   24.8007 C   0  0  0  0  0  0  0  0  0  0  0  0
   11.8915   13.8179   25.9274 C   0  0  0  0  0  0  0  0  0  0  0  0
    7.0142   14.1666   26.9961 C   0  0  0  0  0  0  0  0  0  0  0  0
    6.2847   14.8210   25.8186 C   0  0  0  0  0  0  0  0  0  0  0  0
    9.3540   14.7937   20.2095 O   0  0  0  0  0  0  0  0  0  0  0  0
  2  1  1  6
  2  3  1  0
  3  4  1  0
  4  5  1  0
  5  6  1  0
  6  7  1  6
  7  8  1  0
  8  9  1  0
  9 10  2  0
  9 11  1  0
 11 12  1  0
 12 13  1  0
 13 14  1  0
 14 15  1  0
 15 16  2  0
 15 17  2  0
 15 18  1  0
 18 19  1  0
 19 20  1  0
 20 21  1  0
 21 22  1  0
 22 23  1  0
 14 24  1  0
 24 25  1  0
  6 26  1  0
 26  2  1  0
 25 11  1  0
 23 18  1  0
M  END
>  <energy_score>  (2426) 
-51.295903

>  <inchikey>  (2426) 
None

>  <smiles>  (2426) 
None

>  <ref_pdb>  (2426) 
A4706a

>  <alias>  (2426) 
None

>  <HIPPO Pose ID>  (2426) 
500070

>  <name>  (2426) 
P500070

>  <HIPPO Compound ID>  (2426) 
314515

>  <ref_mols>  (2426) 
A0875a,A4706a

>  <distance_score>  (2426) 
1.40294

>  <inspiration_score>  (2426) 
None

$$$$
P500071
     RDKit          3D

 26 29  0  0  0  0  0  0  0  0999 V2000
    7.5406   14.1783   20.8426 O   0  0  0  0  0  0  0  0  0  0  0  0
    7.8924   14.8754   21.7748 C   0  0  0  0  0  0  0  0  0  0  0  0
    8.7261   15.9339   21.7335 O   0  0  0  0  0  0  0  0  0  0  0  0
    9.7496   16.1307   20.7471 C   0  0  2  0  0  0  0  0  0  0  0  0
    9.4520   16.1027   19.2817 C   0  0  0  0  0  0  0  0  0  0  0  0
   10.6942   15.8743   18.6208 O   0  0  0  0  0  0  0  0  0  0  0  0
   11.2582   14.8143   19.3709 C   0  0  0  0  0  0  0  0  0  0  0  0
   10.9268   15.1694   20.8050 C   0  0  0  0  0  0  0  0  0  0  0  0
   11.0388   14.0400   21.8263 C   0  0  0  0  0  0  0  0  0  0  0  0
   11.6605   15.0600   22.7734 C   0  0  0  0  0  0  0  0  0  0  0  0
   12.0756   15.8506   21.5555 C   0  0  0  0  0  0  0  0  0  0  0  0
    7.5330   14.6143   23.2104 C   0  0  0  0  0  0  0  0  0  0  0  0
    7.0611   13.1820   23.5088 C   0  0  0  0  0  0  0  0  0  0  0  0
    6.9710   12.9175   25.0203 C   0  0  0  0  0  0  0  0  0  0  0  0
    7.5768   14.0633   25.6820 N   0  0  0  0  0  0  0  0  0  0  0  0
    9.1805   14.1999   26.0772 S   0  0  0  0  0  0  0  0  0  0  0  0
    9.5381   15.5954   25.9801 O   0  0  0  0  0  0  0  0  0  0  0  0
    9.3683   13.5211   27.3233 O   0  0  0  0  0  0  0  0  0  0  0  0
   10.2465   13.4414   25.0257 N   0  0  0  0  0  0  0  0  0  0  0  0
   11.6322   13.7056   25.5627 C   0  0  0  0  0  0  0  0  0  0  0  0
   12.6508   12.7361   25.0205 C   0  0  0  0  0  0  0  0  0  0  0  0
   12.2799   11.3814   25.5523 C   0  0  0  0  0  0  0  0  0  0  0  0
   10.8154   11.0316   25.2210 C   0  0  0  0  0  0  0  0  0  0  0  0
   10.0956   12.0965   24.4428 C   0  0  0  0  0  0  0  0  0  0  0  0
    6.7811   15.3108   25.4675 C   0  0  0  0  0  0  0  0  0  0  0  0
    6.6077   15.5573   23.9586 C   0  0  0  0  0  0  0  0  0  0  0  0
  1  2  2  0
  2  3  1  0
  4  3  1  1
  4  5  1  0
  5  6  1  0
  6  7  1  0
  7  8  1  0
  8  9  1  0
  9 10  1  0
 10 11  1  0
  2 12  1  0
 12 13  1  0
 13 14  1  0
 14 15  1  0
 15 16  1  0
 16 17  2  0
 16 18  2  0
 16 19  1  0
 19 20  1  0
 20 21  1  0
 21 22  1  0
 22 23  1  0
 23 24  1  0
 15 25  1  0
 25 26  1  0
  8  4  1  0
 26 12  1  0
 11  8  1  0
 24 19  1  0
M  END
>  <energy_score>  (2427) 
-4.262523

>  <inchikey>  (2427) 
None

>  <smiles>  (2427) 
None

>  <ref_pdb>  (2427) 
A4706a

>  <alias>  (2427) 
None

>  <HIPPO Pose ID>  (2427) 
500071

>  <name>  (2427) 
P500071

>  <HIPPO Compound ID>  (2427) 
314518

>  <ref_mols>  (2427) 
A4706a,A0875a

>  <distance_score>  (2427) 
1.944044

>  <inspiration_score>  (2427) 
None

$$$$
P500072
     RDKit          3D

 26 29  0  0  0  0  0  0  0  0999 V2000
    6.8559   12.9996   22.1961 O   0  0  0  0  0  0  0  0  0  0  0  0
    7.1712   13.7431   23.1228 C   0  0  0  0  0  0  0  0  0  0  0  0
    8.3054   14.4862   23.1335 O   0  0  0  0  0  0  0  0  0  0  0  0
    8.6843   15.2047   21.9326 C   0  0  2  0  0  0  0  0  0  0  0  0
    8.3588   14.5217   20.6435 C   0  0  0  0  0  0  0  0  0  0  0  0
    9.0747   15.1748   19.5869 O   0  0  0  0  0  0  0  0  0  0  0  0
   10.1089   15.9190   20.2009 C   0  0  0  0  0  0  0  0  0  0  0  0
   10.1689   15.3669   21.6273 C   0  0  0  0  0  0  0  0  0  0  0  0
   11.1794   14.1941   21.6181 C   0  0  0  0  0  0  0  0  0  0  0  0
   12.1965   15.1141   22.2690 C   0  0  0  0  0  0  0  0  0  0  0  0
   11.1047   16.1150   22.5495 C   0  0  0  0  0  0  0  0  0  0  0  0
    6.2851   13.7775   24.3609 C   0  0  0  0  0  0  0  0  0  0  0  0
    6.4090   12.4640   25.1643 C   0  0  0  0  0  0  0  0  0  0  0  0
    7.2870   12.5061   26.4116 C   0  0  0  0  0  0  0  0  0  0  0  0
    7.8082   13.8426   26.6255 N   0  0  0  0  0  0  0  0  0  0  0  0
    9.3467   14.3884   26.3816 S   0  0  0  0  0  0  0  0  0  0  0  0
    9.3575   15.2838   25.2563 O   0  0  0  0  0  0  0  0  0  0  0  0
    9.8014   14.8767   27.6589 O   0  0  0  0  0  0  0  0  0  0  0  0
   10.3460   13.1167   25.9911 N   0  0  0  0  0  0  0  0  0  0  0  0
   10.0546   12.3007   24.8116 C   0  0  0  0  0  0  0  0  0  0  0  0
   10.7892   10.9930   25.0459 C   0  0  0  0  0  0  0  0  0  0  0  0
   12.2690   11.2622   25.4566 C   0  0  0  0  0  0  0  0  0  0  0  0
   12.6787   12.6793   25.1556 C   0  0  0  0  0  0  0  0  0  0  0  0
   11.7699   13.6024   25.9600 C   0  0  0  0  0  0  0  0  0  0  0  0
    6.7576   14.8679   26.6143 C   0  0  0  0  0  0  0  0  0  0  0  0
    6.3035   15.0724   25.1782 C   0  0  0  0  0  0  0  0  0  0  0  0
  1  2  2  0
  2  3  1  0
  4  3  1  1
  4  5  1  0
  5  6  1  0
  6  7  1  0
  7  8  1  0
  8  9  1  0
  9 10  1  0
 10 11  1  0
  2 12  1  0
 12 13  1  0
 13 14  1  0
 14 15  1  0
 15 16  1  0
 16 17  2  0
 16 18  2  0
 16 19  1  0
 19 20  1  0
 20 21  1  0
 21 22  1  0
 22 23  1  0
 23 24  1  0
 15 25  1  0
 25 26  1  0
  8  4  1  0
 26 12  1  0
 11  8  1  0
 24 19  1  0
M  END
>  <energy_score>  (2428) 
-11.596043

>  <inchikey>  (2428) 
None

>  <smiles>  (2428) 
None

>  <ref_pdb>  (2428) 
A4706a

>  <alias>  (2428) 
None

>  <HIPPO Pose ID>  (2428) 
500072

>  <name>  (2428) 
P500072

>  <HIPPO Compound ID>  (2428) 
314518

>  <ref_mols>  (2428) 
A0875a,A4706a

>  <distance_score>  (2428) 
1.562187

>  <inspiration_score>  (2428) 
None

$$$$
P500073
     RDKit          3D

 26 29  0  0  0  0  0  0  0  0999 V2000
    6.4489   13.6768   22.3411 O   0  0  0  0  0  0  0  0  0  0  0  0
    6.7592   14.4394   23.2561 C   0  0  0  0  0  0  0  0  0  0  0  0
    7.6720   15.4446   23.1749 O   0  0  0  0  0  0  0  0  0  0  0  0
    8.1987   15.7694   21.8632 C   0  0  2  0  0  0  0  0  0  0  0  0
    8.5150   14.6435   20.8648 C   0  0  0  0  0  0  0  0  0  0  0  0
    9.5782   15.5786   20.2407 C   0  0  2  0  0  0  0  0  0  0  0  0
   10.6641   14.7573   19.7292 N   0  0  0  0  0  0  0  0  0  0  0  0
   11.8258   14.7700   20.6054 C   0  0  0  0  0  0  0  0  0  0  0  0
   11.4785   14.5241   22.0673 C   0  0  0  0  0  0  0  0  0  0  0  0
   10.7116   15.6082   22.5754 O   0  0  0  0  0  0  0  0  0  0  0  0
    9.7201   16.1589   21.6702 C   0  0  2  0  0  0  0  0  0  0  0  0
    6.0831   14.3275   24.6288 C   0  0  0  0  0  0  0  0  0  0  0  0
    5.9623   12.8443   25.0218 C   0  0  0  0  0  0  0  0  0  0  0  0
    7.2885   12.2232   25.4574 C   0  0  0  0  0  0  0  0  0  0  0  0
    8.0973   13.1581   26.2835 N   0  0  0  0  0  0  0  0  0  0  0  0
    9.5295   13.7522   25.5970 S   0  0  0  0  0  0  0  0  0  0  0  0
    9.3750   13.7833   24.1708 O   0  0  0  0  0  0  0  0  0  0  0  0
    9.9251   14.9075   26.3642 O   0  0  0  0  0  0  0  0  0  0  0  0
   10.6652   12.5175   25.9337 N   0  0  0  0  0  0  0  0  0  0  0  0
   10.5651   11.3733   24.9822 C   0  0  0  0  0  0  0  0  0  0  0  0
   11.6477   10.3331   25.2410 C   0  0  0  0  0  0  0  0  0  0  0  0
   13.0574   10.9676   25.3751 C   0  0  0  0  0  0  0  0  0  0  0  0
   13.0833   12.1188   26.3554 C   0  0  0  0  0  0  0  0  0  0  0  0
   12.0255   13.1317   25.9744 C   0  0  0  0  0  0  0  0  0  0  0  0
    7.2586   14.2323   26.8876 C   0  0  0  0  0  0  0  0  0  0  0  0
    6.6802   15.1314   25.7928 C   0  0  0  0  0  0  0  0  0  0  0  0
  1  2  2  0
  2  3  1  0
  4  3  1  1
  4  5  1  0
  6  5  1  1
  6  7  1  0
  7  8  1  0
  8  9  1  0
  9 10  1  0
 11 10  1  1
  2 12  1  0
 12 13  1  0
 13 14  1  0
 14 15  1  0
 15 16  1  0
 16 17  2  0
 16 18  2  0
 16 19  1  0
 19 20  1  0
 20 21  1  0
 21 22  1  0
 22 23  1  0
 23 24  1  0
 15 25  1  0
 25 26  1  0
 11  4  1  0
 26 12  1  0
 11  6  1  0
 24 19  1  0
M  END
>  <energy_score>  (2429) 
-52.284272

>  <inchikey>  (2429) 
None

>  <smiles>  (2429) 
None

>  <ref_pdb>  (2429) 
A4706a

>  <alias>  (2429) 
None

>  <HIPPO Pose ID>  (2429) 
500073

>  <name>  (2429) 
P500073

>  <HIPPO Compound ID>  (2429) 
314519

>  <ref_mols>  (2429) 
A4706a,A0875a

>  <distance_score>  (2429) 
1.463204

>  <inspiration_score>  (2429) 
None

$$$$
P500074
     RDKit          3D

 26 29  0  0  0  0  0  0  0  0999 V2000
    5.0301   15.5347   23.4973 O   0  0  0  0  0  0  0  0  0  0  0  0
    6.2368   15.3143   23.4359 C   0  0  0  0  0  0  0  0  0  0  0  0
    6.9792   15.6938   22.3393 O   0  0  0  0  0  0  0  0  0  0  0  0
    8.2768   15.1013   22.0666 C   0  0  1  0  0  0  0  0  0  0  0  0
    8.4928   14.5547   20.6811 C   0  0  0  0  0  0  0  0  0  0  0  0
    9.4887   15.6693   20.3300 C   0  0  2  0  0  0  0  0  0  0  0  0
   10.6299   14.9875   19.7132 N   0  0  0  0  0  0  0  0  0  0  0  0
   11.8089   14.9411   20.5657 C   0  0  0  0  0  0  0  0  0  0  0  0
   11.5004   14.5651   22.0023 C   0  0  0  0  0  0  0  0  0  0  0  0
   10.7239   15.5974   22.5942 O   0  0  0  0  0  0  0  0  0  0  0  0
    9.5452   15.9707   21.8394 C   0  0  2  0  0  0  0  0  0  0  0  0
    6.9714   14.6144   24.5663 C   0  0  0  0  0  0  0  0  0  0  0  0
    6.8687   13.0724   24.4998 C   0  0  0  0  0  0  0  0  0  0  0  0
    7.5906   12.3571   25.6650 C   0  0  0  0  0  0  0  0  0  0  0  0
    8.4887   13.3021   26.3999 N   0  0  0  0  0  0  0  0  0  0  0  0
    9.8602   13.8007   25.5143 S   0  0  0  0  0  0  0  0  0  0  0  0
    9.6468   13.3747   24.1560 O   0  0  0  0  0  0  0  0  0  0  0  0
   10.1453   15.1698   25.8578 O   0  0  0  0  0  0  0  0  0  0  0  0
   11.1633   12.8423   26.0602 N   0  0  0  0  0  0  0  0  0  0  0  0
   11.9007   13.4962   27.1737 C   0  0  0  0  0  0  0  0  0  0  0  0
   13.1757   12.7304   27.5586 C   0  0  0  0  0  0  0  0  0  0  0  0
   14.0319   12.2408   26.4025 C   0  0  0  0  0  0  0  0  0  0  0  0
   13.1735   11.6353   25.3218 C   0  0  0  0  0  0  0  0  0  0  0  0
   12.0968   12.6153   24.9136 C   0  0  0  0  0  0  0  0  0  0  0  0
    7.6486   14.4171   26.9912 C   0  0  0  0  0  0  0  0  0  0  0  0
    6.6360   15.0267   25.9925 C   0  0  0  0  0  0  0  0  0  0  0  0
  1  2  2  0
  2  3  1  0
  4  3  1  6
  4  5  1  0
  6  5  1  1
  6  7  1  0
  7  8  1  0
  8  9  1  0
  9 10  1  0
 11 10  1  1
  2 12  1  0
 12 13  1  0
 13 14  1  0
 14 15  1  0
 15 16  1  0
 16 17  2  0
 16 18  2  0
 16 19  1  0
 19 20  1  0
 20 21  1  0
 21 22  1  0
 22 23  1  0
 23 24  1  0
 15 25  1  0
 25 26  1  0
 11  4  1  0
 26 12  1  0
 11  6  1  0
 24 19  1  0
M  END
>  <energy_score>  (2430) 
-33.940446

>  <inchikey>  (2430) 
None

>  <smiles>  (2430) 
None

>  <ref_pdb>  (2430) 
A4706a

>  <alias>  (2430) 
None

>  <HIPPO Pose ID>  (2430) 
500074

>  <name>  (2430) 
P500074

>  <HIPPO Compound ID>  (2430) 
314519

>  <ref_mols>  (2430) 
A4706a,A0875a

>  <distance_score>  (2430) 
1.842702

>  <inspiration_score>  (2430) 
None

$$$$
P500075
     RDKit          3D

 26 29  0  0  0  0  0  0  0  0999 V2000
    5.7335   14.6730   22.2141 O   0  0  0  0  0  0  0  0  0  0  0  0
    6.4003   14.9196   23.2162 C   0  0  0  0  0  0  0  0  0  0  0  0
    7.6450   15.4670   23.1964 O   0  0  0  0  0  0  0  0  0  0  0  0
    8.1653   15.8123   21.8881 C   0  0  2  0  0  0  0  0  0  0  0  0
    8.4197   14.6578   20.8956 C   0  0  0  0  0  0  0  0  0  0  0  0
    9.5168   15.5514   20.2599 C   0  0  2  0  0  0  0  0  0  0  0  0
   10.5717   14.7011   19.7284 N   0  0  0  0  0  0  0  0  0  0  0  0
   11.7652   14.7458   20.5616 C   0  0  0  0  0  0  0  0  0  0  0  0
   11.4636   14.4487   22.0249 C   0  0  0  0  0  0  0  0  0  0  0  0
   10.6354   15.4484   22.5966 O   0  0  0  0  0  0  0  0  0  0  0  0
    9.7070   16.1006   21.6958 C   0  0  2  0  0  0  0  0  0  0  0  0
    5.8881   14.5713   24.6282 C   0  0  0  0  0  0  0  0  0  0  0  0
    5.8063   13.0381   24.8171 C   0  0  0  0  0  0  0  0  0  0  0  0
    6.7998   12.3697   25.7708 C   0  0  0  0  0  0  0  0  0  0  0  0
    7.8818   13.2898   26.1558 N   0  0  0  0  0  0  0  0  0  0  0  0
    9.0888   13.5478   24.9984 S   0  0  0  0  0  0  0  0  0  0  0  0
    8.5971   12.9768   23.7685 O   0  0  0  0  0  0  0  0  0  0  0  0
    9.5453   14.9048   25.1483 O   0  0  0  0  0  0  0  0  0  0  0  0
   10.2762   12.5014   25.5976 N   0  0  0  0  0  0  0  0  0  0  0  0
   10.3334   11.2127   24.8595 C   0  0  0  0  0  0  0  0  0  0  0  0
   11.5273   10.3546   25.2461 C   0  0  0  0  0  0  0  0  0  0  0  0
   12.8410   11.1527   25.4541 C   0  0  0  0  0  0  0  0  0  0  0  0
   12.6839   12.6147   25.1128 C   0  0  0  0  0  0  0  0  0  0  0  0
   11.5528   13.1610   25.9514 C   0  0  0  0  0  0  0  0  0  0  0  0
    7.3215   14.5022   26.7846 C   0  0  0  0  0  0  0  0  0  0  0  0
    6.5370   15.3441   25.7851 C   0  0  0  0  0  0  0  0  0  0  0  0
  1  2  2  0
  2  3  1  0
  4  3  1  1
  4  5  1  0
  6  5  1  1
  6  7  1  0
  7  8  1  0
  8  9  1  0
  9 10  1  0
 11 10  1  1
  2 12  1  0
 12 13  1  0
 13 14  1  0
 14 15  1  0
 15 16  1  0
 16 17  2  0
 16 18  2  0
 16 19  1  0
 19 20  1  0
 20 21  1  0
 21 22  1  0
 22 23  1  0
 23 24  1  0
 15 25  1  0
 25 26  1  0
 11  4  1  0
 26 12  1  0
 11  6  1  0
 24 19  1  0
M  END
>  <energy_score>  (2431) 
-65.500637

>  <inchikey>  (2431) 
None

>  <smiles>  (2431) 
None

>  <ref_pdb>  (2431) 
A4706a

>  <alias>  (2431) 
None

>  <HIPPO Pose ID>  (2431) 
500075

>  <name>  (2431) 
P500075

>  <HIPPO Compound ID>  (2431) 
314519

>  <ref_mols>  (2431) 
A4706a,A0875a

>  <distance_score>  (2431) 
1.503871

>  <inspiration_score>  (2431) 
None

$$$$
P500076
     RDKit          3D

 26 29  0  0  0  0  0  0  0  0999 V2000
    6.5323   13.1222   22.1618 O   0  0  0  0  0  0  0  0  0  0  0  0
    6.6854   13.8203   23.1626 C   0  0  0  0  0  0  0  0  0  0  0  0
    7.6126   14.8119   23.2774 O   0  0  0  0  0  0  0  0  0  0  0  0
    8.0887   15.3992   22.0352 C   0  0  2  0  0  0  0  0  0  0  0  0
    8.5360   14.4621   20.9038 C   0  0  0  0  0  0  0  0  0  0  0  0
    9.4886   15.5622   20.4276 C   0  0  2  0  0  0  0  0  0  0  0  0
   10.7107   15.0234   19.8471 N   0  0  0  0  0  0  0  0  0  0  0  0
   11.6575   14.4867   20.8149 C   0  0  0  0  0  0  0  0  0  0  0  0
   11.8305   15.3529   22.0492 C   0  0  0  0  0  0  0  0  0  0  0  0
   10.5847   15.4021   22.7301 O   0  0  0  0  0  0  0  0  0  0  0  0
    9.5443   15.9826   21.9111 C   0  0  2  0  0  0  0  0  0  0  0  0
    5.8355   13.5516   24.4034 C   0  0  0  0  0  0  0  0  0  0  0  0
    6.3720   12.3473   25.2115 C   0  0  0  0  0  0  0  0  0  0  0  0
    7.2570   12.7664   26.3875 C   0  0  0  0  0  0  0  0  0  0  0  0
    7.8247   14.0536   26.0075 N   0  0  0  0  0  0  0  0  0  0  0  0
    9.3447   14.5249   26.4346 S   0  0  0  0  0  0  0  0  0  0  0  0
    9.3484   14.7270   27.8595 O   0  0  0  0  0  0  0  0  0  0  0  0
    9.7553   15.5618   25.5288 O   0  0  0  0  0  0  0  0  0  0  0  0
   10.3427   13.2315   26.1263 N   0  0  0  0  0  0  0  0  0  0  0  0
   10.2142   12.6467   24.7844 C   0  0  0  0  0  0  0  0  0  0  0  0
   10.8721   11.3019   24.9340 C   0  0  0  0  0  0  0  0  0  0  0  0
   12.3810   11.5334   25.2014 C   0  0  0  0  0  0  0  0  0  0  0  0
   12.6745   12.4370   26.3804 C   0  0  0  0  0  0  0  0  0  0  0  0
   11.7564   13.6389   26.3731 C   0  0  0  0  0  0  0  0  0  0  0  0
    6.8306   15.1476   26.0987 C   0  0  0  0  0  0  0  0  0  0  0  0
    5.6060   14.7802   25.2767 C   0  0  0  0  0  0  0  0  0  0  0  0
  1  2  2  0
  2  3  1  0
  4  3  1  1
  4  5  1  0
  6  5  1  1
  6  7  1  0
  7  8  1  0
  8  9  1  0
  9 10  1  0
 11 10  1  1
  2 12  1  0
 12 13  1  0
 13 14  1  0
 14 15  1  0
 15 16  1  0
 16 17  2  0
 16 18  2  0
 16 19  1  0
 19 20  1  0
 20 21  1  0
 21 22  1  0
 22 23  1  0
 23 24  1  0
 15 25  1  0
 25 26  1  0
 11  4  1  0
 26 12  1  0
 11  6  1  0
 24 19  1  0
M  END
>  <energy_score>  (2432) 
-91.091402

>  <inchikey>  (2432) 
None

>  <smiles>  (2432) 
None

>  <ref_pdb>  (2432) 
A4706a

>  <alias>  (2432) 
None

>  <HIPPO Pose ID>  (2432) 
500076

>  <name>  (2432) 
P500076

>  <HIPPO Compound ID>  (2432) 
314519

>  <ref_mols>  (2432) 
A4706a,A0875a

>  <distance_score>  (2432) 
1.602405

>  <inspiration_score>  (2432) 
None

$$$$
P500077
     RDKit          3D

 26 29  0  0  0  0  0  0  0  0999 V2000
    5.4920   15.3909   22.2011 O   0  0  0  0  0  0  0  0  0  0  0  0
    6.1593   15.3189   23.2258 C   0  0  0  0  0  0  0  0  0  0  0  0
    7.5047   15.4700   23.3046 O   0  0  0  0  0  0  0  0  0  0  0  0
    8.2109   15.7087   22.0641 C   0  0  2  0  0  0  0  0  0  0  0  0
    8.1078   14.5225   21.0258 C   0  0  0  0  0  0  0  0  0  0  0  0
    9.3815   15.1491   20.4402 C   0  0  2  0  0  0  0  0  0  0  0  0
   10.3785   14.2495   19.8910 N   0  0  0  0  0  0  0  0  0  0  0  0
   11.6768   14.9293   20.0300 C   0  0  0  0  0  0  0  0  0  0  0  0
   12.0169   15.4252   21.4688 C   0  0  0  0  0  0  0  0  0  0  0  0
   10.9135   16.1363   22.0660 O   0  0  0  0  0  0  0  0  0  0  0  0
    9.7365   15.3245   21.9438 C   0  0  1  0  0  0  0  0  0  0  0  0
    5.5502   14.9304   24.5685 C   0  0  0  0  0  0  0  0  0  0  0  0
    5.6253   13.4067   24.7374 C   0  0  0  0  0  0  0  0  0  0  0  0
    7.0174   12.9379   25.1396 C   0  0  0  0  0  0  0  0  0  0  0  0
    7.6316   13.7629   26.2158 N   0  0  0  0  0  0  0  0  0  0  0  0
    9.1942   14.3902   25.9821 S   0  0  0  0  0  0  0  0  0  0  0  0
    9.4149   15.4330   26.9510 O   0  0  0  0  0  0  0  0  0  0  0  0
    9.4707   14.5915   24.5914 O   0  0  0  0  0  0  0  0  0  0  0  0
   10.1920   13.1162   26.4181 N   0  0  0  0  0  0  0  0  0  0  0  0
    9.9416   11.8555   25.7167 C   0  0  0  0  0  0  0  0  0  0  0  0
   11.0982   11.2776   24.9670 C   0  0  0  0  0  0  0  0  0  0  0  0
   12.4905   11.6679   25.4171 C   0  0  0  0  0  0  0  0  0  0  0  0
   12.5385   13.1557   25.5275 C   0  0  0  0  0  0  0  0  0  0  0  0
   11.5987   13.5531   26.6460 C   0  0  0  0  0  0  0  0  0  0  0  0
    6.6767   14.7130   26.8346 C   0  0  0  0  0  0  0  0  0  0  0  0
    6.1371   15.6701   25.7777 C   0  0  0  0  0  0  0  0  0  0  0  0
  1  2  2  0
  2  3  1  0
  4  3  1  1
  4  5  1  0
  6  5  1  1
  6  7  1  0
  7  8  1  0
  8  9  1  0
  9 10  1  0
 11 10  1  6
  2 12  1  0
 12 13  1  0
 13 14  1  0
 14 15  1  0
 15 16  1  0
 16 17  2  0
 16 18  2  0
 16 19  1  0
 19 20  1  0
 20 21  1  0
 21 22  1  0
 22 23  1  0
 23 24  1  0
 15 25  1  0
 25 26  1  0
 11  4  1  0
 26 12  1  0
 11  6  1  0
 24 19  1  0
M  END
>  <energy_score>  (2433) 
-50.945115

>  <inchikey>  (2433) 
None

>  <smiles>  (2433) 
None

>  <ref_pdb>  (2433) 
A4706a

>  <alias>  (2433) 
None

>  <HIPPO Pose ID>  (2433) 
500077

>  <name>  (2433) 
P500077

>  <HIPPO Compound ID>  (2433) 
314519

>  <ref_mols>  (2433) 
A0875a,A4706a

>  <distance_score>  (2433) 
1.91824

>  <inspiration_score>  (2433) 
None

$$$$
P500078
     RDKit          3D

 26 29  0  0  0  0  0  0  0  0999 V2000
    5.4511   14.5350   22.6321 O   0  0  0  0  0  0  0  0  0  0  0  0
    6.0871   13.8755   23.4474 C   0  0  0  0  0  0  0  0  0  0  0  0
    7.4230   13.6132   23.3424 O   0  0  0  0  0  0  0  0  0  0  0  0
    8.1873   14.6907   22.7230 C   0  0  2  0  0  0  0  0  0  0  0  0
    7.8419   15.0133   21.2437 C   0  0  0  0  0  0  0  0  0  0  0  0
    9.2754   15.4735   21.0792 C   0  0  2  0  0  0  0  0  0  0  0  0
   10.0434   15.0313   19.9193 N   0  0  0  0  0  0  0  0  0  0  0  0
   11.4581   14.8779   20.3890 C   0  0  0  0  0  0  0  0  0  0  0  0
   11.7562   15.3324   21.8579 C   0  0  0  0  0  0  0  0  0  0  0  0
   10.8515   14.7298   22.8074 O   0  0  0  0  0  0  0  0  0  0  0  0
    9.6029   14.3966   22.1659 C   0  0  1  0  0  0  0  0  0  0  0  0
    5.4351   13.3693   24.7293 C   0  0  0  0  0  0  0  0  0  0  0  0
    6.1478   12.2174   25.4632 C   0  0  0  0  0  0  0  0  0  0  0  0
    7.0283   12.7227   26.6119 C   0  0  0  0  0  0  0  0  0  0  0  0
    7.6112   13.9775   26.1356 N   0  0  0  0  0  0  0  0  0  0  0  0
    9.1538   14.4510   26.5356 S   0  0  0  0  0  0  0  0  0  0  0  0
    9.1540   14.7933   27.9330 O   0  0  0  0  0  0  0  0  0  0  0  0
    9.5982   15.3833   25.5313 O   0  0  0  0  0  0  0  0  0  0  0  0
   10.0676   13.0548   26.3699 N   0  0  0  0  0  0  0  0  0  0  0  0
   11.4914   13.2782   26.7561 C   0  0  0  0  0  0  0  0  0  0  0  0
   12.4195   13.3212   25.5773 C   0  0  0  0  0  0  0  0  0  0  0  0
   12.2709   12.1162   24.7001 C   0  0  0  0  0  0  0  0  0  0  0  0
   10.9193   11.4113   24.8058 C   0  0  0  0  0  0  0  0  0  0  0  0
    9.8578   12.4076   25.0748 C   0  0  0  0  0  0  0  0  0  0  0  0
    6.6234   15.0864   26.1545 C   0  0  0  0  0  0  0  0  0  0  0  0
    5.2702   14.5773   25.6585 C   0  0  0  0  0  0  0  0  0  0  0  0
  1  2  2  0
  2  3  1  0
  4  3  1  6
  4  5  1  0
  6  5  1  6
  6  7  1  0
  7  8  1  0
  8  9  1  0
  9 10  1  0
 11 10  1  1
  2 12  1  0
 12 13  1  0
 13 14  1  0
 14 15  1  0
 15 16  1  0
 16 17  2  0
 16 18  2  0
 16 19  1  0
 19 20  1  0
 20 21  1  0
 21 22  1  0
 22 23  1  0
 23 24  1  0
 15 25  1  0
 25 26  1  0
 11  4  1  0
 26 12  1  0
 11  6  1  0
 24 19  1  0
M  END
>  <energy_score>  (2434) 
-56.81901

>  <inchikey>  (2434) 
None

>  <smiles>  (2434) 
None

>  <ref_pdb>  (2434) 
A4706a

>  <alias>  (2434) 
None

>  <HIPPO Pose ID>  (2434) 
500078

>  <name>  (2434) 
P500078

>  <HIPPO Compound ID>  (2434) 
314519

>  <ref_mols>  (2434) 
A4706a,A0875a

>  <distance_score>  (2434) 
1.820361

>  <inspiration_score>  (2434) 
None

$$$$
P500079
     RDKit          3D

 26 29  0  0  0  0  0  0  0  0999 V2000
    6.4446   16.4368   22.6864 O   0  0  0  0  0  0  0  0  0  0  0  0
    6.9467   15.4278   23.1517 C   0  0  0  0  0  0  0  0  0  0  0  0
    8.0329   14.8104   22.6301 O   0  0  0  0  0  0  0  0  0  0  0  0
    9.1348   15.6027   22.0864 C   0  0  1  0  0  0  0  0  0  0  0  0
   10.3555   15.5232   23.0759 C   0  0  0  0  0  0  0  0  0  0  0  0
   11.4034   14.7126   22.4590 O   0  0  0  0  0  0  0  0  0  0  0  0
   11.2316   15.1790   21.1427 C   0  0  1  0  0  0  0  0  0  0  0  0
   11.7466   14.5910   19.9093 C   0  0  0  0  0  0  0  0  0  0  0  0
   10.7675   14.7902   19.0234 C   0  0  0  0  0  0  0  0  0  0  0  0
    9.5669   15.2955   19.5501 O   0  0  0  0  0  0  0  0  0  0  0  0
    9.7645   14.8999   20.9032 C   0  0  2  0  0  0  0  0  0  0  0  0
    6.4493   14.8089   24.4692 C   0  0  0  0  0  0  0  0  0  0  0  0
    6.1562   13.2995   24.3946 C   0  0  0  0  0  0  0  0  0  0  0  0
    6.3779   12.5564   25.7167 C   0  0  0  0  0  0  0  0  0  0  0  0
    7.7300   12.8944   26.2816 N   0  0  0  0  0  0  0  0  0  0  0  0
    8.9505   12.3530   25.2628 S   0  0  0  0  0  0  0  0  0  0  0  0
    9.1138   13.3035   24.2040 O   0  0  0  0  0  0  0  0  0  0  0  0
    8.6086   10.9903   24.9332 O   0  0  0  0  0  0  0  0  0  0  0  0
   10.4493   12.2887   26.0418 N   0  0  0  0  0  0  0  0  0  0  0  0
   10.9731   13.5294   26.6318 C   0  0  0  0  0  0  0  0  0  0  0  0
   12.4189   13.3475   27.0702 C   0  0  0  0  0  0  0  0  0  0  0  0
   13.2895   13.0165   25.8729 C   0  0  0  0  0  0  0  0  0  0  0  0
   12.8543   11.6794   25.3862 C   0  0  0  0  0  0  0  0  0  0  0  0
   11.3808   11.6857   25.0296 C   0  0  0  0  0  0  0  0  0  0  0  0
    7.6646   14.2991   26.7277 C   0  0  0  0  0  0  0  0  0  0  0  0
    7.4064   15.2683   25.5866 C   0  0  0  0  0  0  0  0  0  0  0  0
  1  2  2  0
  2  3  1  0
  4  3  1  1
  4  5  1  0
  5  6  1  0
  7  6  1  1
  7  8  1  0
  8  9  2  0
  9 10  1  0
 11 10  1  6
  2 12  1  0
 12 13  1  0
 13 14  1  0
 14 15  1  0
 15 16  1  0
 16 17  2  0
 16 18  2  0
 16 19  1  0
 19 20  1  0
 20 21  1  0
 21 22  1  0
 22 23  1  0
 23 24  1  0
 15 25  1  0
 25 26  1  0
 11  4  1  0
 26 12  1  0
 11  7  1  0
 24 19  1  0
M  END
>  <energy_score>  (2435) 
-44.428127

>  <inchikey>  (2435) 
None

>  <smiles>  (2435) 
None

>  <ref_pdb>  (2435) 
A4706a

>  <alias>  (2435) 
None

>  <HIPPO Pose ID>  (2435) 
500079

>  <name>  (2435) 
P500079

>  <HIPPO Compound ID>  (2435) 
314520

>  <ref_mols>  (2435) 
A0875a,A4706a

>  <distance_score>  (2435) 
1.731399

>  <inspiration_score>  (2435) 
None

$$$$
P500080
     RDKit          3D

 26 29  0  0  0  0  0  0  0  0999 V2000
    7.9775   13.0204   22.5280 O   0  0  0  0  0  0  0  0  0  0  0  0
    7.3361   14.0221   22.8178 C   0  0  0  0  0  0  0  0  0  0  0  0
    7.6504   15.2744   22.3949 O   0  0  0  0  0  0  0  0  0  0  0  0
    9.0017   15.6201   21.9556 C   0  0  1  0  0  0  0  0  0  0  0  0
   10.0551   15.2476   23.0284 C   0  0  0  0  0  0  0  0  0  0  0  0
   11.2243   14.6542   22.4019 O   0  0  0  0  0  0  0  0  0  0  0  0
   11.1015   15.2098   21.1223 C   0  0  1  0  0  0  0  0  0  0  0  0
   11.7031   14.6718   19.9071 C   0  0  0  0  0  0  0  0  0  0  0  0
   10.7812   14.8883   18.9675 C   0  0  0  0  0  0  0  0  0  0  0  0
    9.5480   15.3806   19.4269 O   0  0  0  0  0  0  0  0  0  0  0  0
    9.6467   14.9346   20.7751 C   0  0  2  0  0  0  0  0  0  0  0  0
    6.0860   13.9418   23.7107 C   0  0  0  0  0  0  0  0  0  0  0  0
    6.1685   12.7163   24.6809 C   0  0  0  0  0  0  0  0  0  0  0  0
    6.9981   12.9809   25.9460 C   0  0  0  0  0  0  0  0  0  0  0  0
    7.8237   14.1552   25.6411 N   0  0  0  0  0  0  0  0  0  0  0  0
    9.3038   14.3681   26.3540 S   0  0  0  0  0  0  0  0  0  0  0  0
    9.8176   15.6228   25.8625 O   0  0  0  0  0  0  0  0  0  0  0  0
    9.1590   14.1896   27.7711 O   0  0  0  0  0  0  0  0  0  0  0  0
   10.3327   13.1921   25.7787 N   0  0  0  0  0  0  0  0  0  0  0  0
   10.0145   12.2279   24.7180 C   0  0  0  0  0  0  0  0  0  0  0  0
   10.7761   10.9600   25.0654 C   0  0  0  0  0  0  0  0  0  0  0  0
   12.2503   11.2759   25.4512 C   0  0  0  0  0  0  0  0  0  0  0  0
   12.6535   12.6677   25.0363 C   0  0  0  0  0  0  0  0  0  0  0  0
   11.7495   13.6457   25.7613 C   0  0  0  0  0  0  0  0  0  0  0  0
    6.9628   15.3702   25.6183 C   0  0  0  0  0  0  0  0  0  0  0  0
    5.8703   15.1945   24.5625 C   0  0  0  0  0  0  0  0  0  0  0  0
  1  2  2  0
  2  3  1  0
  4  3  1  1
  4  5  1  0
  5  6  1  0
  7  6  1  1
  7  8  1  0
  8  9  2  0
  9 10  1  0
 11 10  1  6
  2 12  1  0
 12 13  1  0
 13 14  1  0
 14 15  1  0
 15 16  1  0
 16 17  2  0
 16 18  2  0
 16 19  1  0
 19 20  1  0
 20 21  1  0
 21 22  1  0
 22 23  1  0
 23 24  1  0
 15 25  1  0
 25 26  1  0
 11  4  1  0
 26 12  1  0
 11  7  1  0
 24 19  1  0
M  END
>  <energy_score>  (2436) 
-45.818643

>  <inchikey>  (2436) 
None

>  <smiles>  (2436) 
None

>  <ref_pdb>  (2436) 
A4706a

>  <alias>  (2436) 
None

>  <HIPPO Pose ID>  (2436) 
500080

>  <name>  (2436) 
P500080

>  <HIPPO Compound ID>  (2436) 
314520

>  <ref_mols>  (2436) 
A4706a,A0875a

>  <distance_score>  (2436) 
1.647701

>  <inspiration_score>  (2436) 
None

$$$$
P500081
     RDKit          3D

 26 29  0  0  0  0  0  0  0  0999 V2000
    7.2074   13.6833   21.7613 O   0  0  0  0  0  0  0  0  0  0  0  0
    7.2469   14.5513   22.6254 C   0  0  0  0  0  0  0  0  0  0  0  0
    8.2250   15.4779   22.7473 O   0  0  0  0  0  0  0  0  0  0  0  0
    9.6043   15.3502   22.3151 C   0  0  1  0  0  0  0  0  0  0  0  0
   10.3525   14.0258   22.3083 C   0  0  0  0  0  0  0  0  0  0  0  0
   11.6596   14.3166   21.8071 O   0  0  0  0  0  0  0  0  0  0  0  0
   11.5012   15.4349   20.9387 C   0  0  1  0  0  0  0  0  0  0  0  0
   11.5972   14.9434   19.5590 C   0  0  0  0  0  0  0  0  0  0  0  0
   10.3859   14.9666   19.0301 C   0  0  0  0  0  0  0  0  0  0  0  0
    9.3641   15.3855   19.8533 O   0  0  0  0  0  0  0  0  0  0  0  0
   10.0425   15.9323   20.9966 C   0  0  1  0  0  0  0  0  0  0  0  0
    6.1636   14.6701   23.7605 C   0  0  0  0  0  0  0  0  0  0  0  0
    5.6694   13.2948   24.2780 C   0  0  0  0  0  0  0  0  0  0  0  0
    6.4052   12.6370   25.4670 C   0  0  0  0  0  0  0  0  0  0  0  0
    7.4434   13.5345   26.0397 N   0  0  0  0  0  0  0  0  0  0  0  0
    8.8742   13.5500   25.1616 S   0  0  0  0  0  0  0  0  0  0  0  0
    8.6088   12.8002   23.9637 O   0  0  0  0  0  0  0  0  0  0  0  0
    9.3857   14.8980   25.1547 O   0  0  0  0  0  0  0  0  0  0  0  0
    9.9688   12.6687   26.0392 N   0  0  0  0  0  0  0  0  0  0  0  0
   10.6538   13.5016   27.0306 C   0  0  0  0  0  0  0  0  0  0  0  0
   12.0842   13.7682   26.7000 C   0  0  0  0  0  0  0  0  0  0  0  0
   12.8645   12.5031   26.4607 C   0  0  0  0  0  0  0  0  0  0  0  0
   12.2549   11.7932   25.2857 C   0  0  0  0  0  0  0  0  0  0  0  0
   10.7360   11.6339   25.2897 C   0  0  0  0  0  0  0  0  0  0  0  0
    6.8440   14.8712   26.2778 C   0  0  0  0  0  0  0  0  0  0  0  0
    6.4653   15.5800   24.9677 C   0  0  0  0  0  0  0  0  0  0  0  0
  1  2  2  0
  2  3  1  0
  4  3  1  6
  4  5  1  0
  5  6  1  0
  7  6  1  1
  7  8  1  0
  8  9  2  0
  9 10  1  0
 11 10  1  6
  2 12  1  0
 12 13  1  0
 13 14  1  0
 14 15  1  0
 15 16  1  0
 16 17  2  0
 16 18  2  0
 16 19  1  0
 19 20  1  0
 20 21  1  0
 21 22  1  0
 22 23  1  0
 23 24  1  0
 15 25  1  0
 25 26  1  0
 11  4  1  0
 26 12  1  0
 11  7  1  0
 24 19  1  0
M  END
>  <energy_score>  (2437) 
-44.841867

>  <inchikey>  (2437) 
None

>  <smiles>  (2437) 
None

>  <ref_pdb>  (2437) 
A4706a

>  <alias>  (2437) 
None

>  <HIPPO Pose ID>  (2437) 
500081

>  <name>  (2437) 
P500081

>  <HIPPO Compound ID>  (2437) 
314520

>  <ref_mols>  (2437) 
A4706a,A0875a

>  <distance_score>  (2437) 
1.929783

>  <inspiration_score>  (2437) 
None

$$$$
P500082
     RDKit          3D

 26 29  0  0  0  0  0  0  0  0999 V2000
    6.7122   13.0364   22.2838 O   0  0  0  0  0  0  0  0  0  0  0  0
    6.8049   14.0418   22.9932 C   0  0  0  0  0  0  0  0  0  0  0  0
    7.6321   15.0786   22.6870 O   0  0  0  0  0  0  0  0  0  0  0  0
    8.5402   14.7460   21.6044 C   0  0  2  0  0  0  0  0  0  0  0  0
    9.5687   13.7183   22.0635 C   0  0  0  0  0  0  0  0  0  0  0  0
   10.7594   14.3952   22.4806 O   0  0  0  0  0  0  0  0  0  0  0  0
   10.8360   15.5591   21.6687 C   0  0  1  0  0  0  0  0  0  0  0  0
   11.5930   15.1954   20.4497 C   0  0  0  0  0  0  0  0  0  0  0  0
   10.8048   15.3310   19.3935 C   0  0  0  0  0  0  0  0  0  0  0  0
    9.5408   15.7965   19.6567 O   0  0  0  0  0  0  0  0  0  0  0  0
    9.4419   15.8724   21.1148 C   0  0  1  0  0  0  0  0  0  0  0  0
    6.0196   14.1202   24.3034 C   0  0  0  0  0  0  0  0  0  0  0  0
    6.0727   12.7231   24.9605 C   0  0  0  0  0  0  0  0  0  0  0  0
    7.4564   12.4114   25.5225 C   0  0  0  0  0  0  0  0  0  0  0  0
    7.9686   13.5000   26.3807 N   0  0  0  0  0  0  0  0  0  0  0  0
    9.4337   14.2274   26.0044 S   0  0  0  0  0  0  0  0  0  0  0  0
    9.3565   14.7491   24.6709 O   0  0  0  0  0  0  0  0  0  0  0  0
    9.7070   15.1426   27.0891 O   0  0  0  0  0  0  0  0  0  0  0  0
   10.6632   13.0953   26.0590 N   0  0  0  0  0  0  0  0  0  0  0  0
   11.9741   13.8063   26.0385 C   0  0  0  0  0  0  0  0  0  0  0  0
   12.8955   13.3154   24.9288 C   0  0  0  0  0  0  0  0  0  0  0  0
   13.2788   11.8814   25.1480 C   0  0  0  0  0  0  0  0  0  0  0  0
   12.0318   11.1678   25.5628 C   0  0  0  0  0  0  0  0  0  0  0  0
   10.6946   11.8677   25.2461 C   0  0  0  0  0  0  0  0  0  0  0  0
    6.9185   14.5401   26.6557 C   0  0  0  0  0  0  0  0  0  0  0  0
    6.4162   15.1702   25.3455 C   0  0  0  0  0  0  0  0  0  0  0  0
  1  2  2  0
  2  3  1  0
  4  3  1  1
  4  5  1  0
  5  6  1  0
  7  6  1  1
  7  8  1  0
  8  9  2  0
  9 10  1  0
 11 10  1  6
  2 12  1  0
 12 13  1  0
 13 14  1  0
 14 15  1  0
 15 16  1  0
 16 17  2  0
 16 18  2  0
 16 19  1  0
 19 20  1  0
 20 21  1  0
 21 22  1  0
 22 23  1  0
 23 24  1  0
 15 25  1  0
 25 26  1  0
 11  4  1  0
 26 12  1  0
 11  7  1  0
 24 19  1  0
M  END
>  <energy_score>  (2438) 
-66.356536

>  <inchikey>  (2438) 
None

>  <smiles>  (2438) 
None

>  <ref_pdb>  (2438) 
A4706a

>  <alias>  (2438) 
None

>  <HIPPO Pose ID>  (2438) 
500082

>  <name>  (2438) 
P500082

>  <HIPPO Compound ID>  (2438) 
314520

>  <ref_mols>  (2438) 
A4706a,A0875a

>  <distance_score>  (2438) 
1.398527

>  <inspiration_score>  (2438) 
None

$$$$
P500083
     RDKit          3D

 26 29  0  0  0  0  0  0  0  0999 V2000
    6.5096   13.1968   22.0835 O   0  0  0  0  0  0  0  0  0  0  0  0
    6.8799   14.0016   22.9410 C   0  0  0  0  0  0  0  0  0  0  0  0
    7.7392   15.0285   22.6901 O   0  0  0  0  0  0  0  0  0  0  0  0
    8.5853   14.7578   21.5522 C   0  0  2  0  0  0  0  0  0  0  0  0
    9.6174   13.7043   21.9266 C   0  0  0  0  0  0  0  0  0  0  0  0
   10.8152   14.3515   22.3757 O   0  0  0  0  0  0  0  0  0  0  0  0
   10.8967   15.5411   21.6027 C   0  0  1  0  0  0  0  0  0  0  0  0
   11.6200   15.1951   20.3593 C   0  0  0  0  0  0  0  0  0  0  0  0
   10.8126   15.3727   19.3242 C   0  0  0  0  0  0  0  0  0  0  0  0
    9.5647   15.8593   19.6251 O   0  0  0  0  0  0  0  0  0  0  0  0
    9.4940   15.8907   21.0869 C   0  0  1  0  0  0  0  0  0  0  0  0
    6.4568   13.7983   24.3918 C   0  0  0  0  0  0  0  0  0  0  0  0
    7.0997   12.4397   24.7902 C   0  0  0  0  0  0  0  0  0  0  0  0
    7.6660   12.3128   26.1832 C   0  0  0  0  0  0  0  0  0  0  0  0
    8.2618   13.5680   26.6388 N   0  0  0  0  0  0  0  0  0  0  0  0
    9.7038   14.1742   26.0022 S   0  0  0  0  0  0  0  0  0  0  0  0
   10.0827   15.2365   26.9004 O   0  0  0  0  0  0  0  0  0  0  0  0
    9.4942   14.4637   24.6157 O   0  0  0  0  0  0  0  0  0  0  0  0
   10.8370   12.9319   26.1229 N   0  0  0  0  0  0  0  0  0  0  0  0
   12.1866   13.3451   26.6331 C   0  0  0  0  0  0  0  0  0  0  0  0
   13.3251   13.0492   25.6302 C   0  0  0  0  0  0  0  0  0  0  0  0
   13.4440   11.5850   25.2726 C   0  0  0  0  0  0  0  0  0  0  0  0
   12.0671   11.0023   25.3603 C   0  0  0  0  0  0  0  0  0  0  0  0
   10.9272   11.9529   25.0057 C   0  0  0  0  0  0  0  0  0  0  0  0
    7.1836   14.5966   26.7290 C   0  0  0  0  0  0  0  0  0  0  0  0
    6.6905   14.9843   25.3379 C   0  0  0  0  0  0  0  0  0  0  0  0
  1  2  2  0
  2  3  1  0
  4  3  1  1
  4  5  1  0
  5  6  1  0
  7  6  1  1
  7  8  1  0
  8  9  2  0
  9 10  1  0
 11 10  1  6
  2 12  1  0
 12 13  1  0
 13 14  1  0
 14 15  1  0
 15 16  1  0
 16 17  2  0
 16 18  2  0
 16 19  1  0
 19 20  1  0
 20 21  1  0
 21 22  1  0
 22 23  1  0
 23 24  1  0
 15 25  1  0
 25 26  1  0
 11  4  1  0
 26 12  1  0
 11  7  1  0
 24 19  1  0
M  END
>  <energy_score>  (2439) 
-24.569683

>  <inchikey>  (2439) 
None

>  <smiles>  (2439) 
None

>  <ref_pdb>  (2439) 
A4706a

>  <alias>  (2439) 
None

>  <HIPPO Pose ID>  (2439) 
500083

>  <name>  (2439) 
P500083

>  <HIPPO Compound ID>  (2439) 
314520

>  <ref_mols>  (2439) 
A4706a,A0875a

>  <distance_score>  (2439) 
1.343817

>  <inspiration_score>  (2439) 
None

$$$$
P500084
     RDKit          3D

 26 29  0  0  0  0  0  0  0  0999 V2000
    6.3384   13.3457   22.3111 O   0  0  0  0  0  0  0  0  0  0  0  0
    6.6822   14.2340   23.0921 C   0  0  0  0  0  0  0  0  0  0  0  0
    7.6917   15.1250   22.8184 O   0  0  0  0  0  0  0  0  0  0  0  0
    8.4151   14.8639   21.5892 C   0  0  2  0  0  0  0  0  0  0  0  0
    9.4072   13.7290   21.7435 C   0  0  0  0  0  0  0  0  0  0  0  0
   10.5777   14.2557   22.3834 O   0  0  0  0  0  0  0  0  0  0  0  0
   10.7553   15.5296   21.7636 C   0  0  1  0  0  0  0  0  0  0  0  0
   11.5821   15.2978   20.5585 C   0  0  0  0  0  0  0  0  0  0  0  0
   10.8357   15.4859   19.4778 C   0  0  0  0  0  0  0  0  0  0  0  0
    9.5515   15.9155   19.7103 O   0  0  0  0  0  0  0  0  0  0  0  0
    9.4014   15.9558   21.1678 C   0  0  1  0  0  0  0  0  0  0  0  0
    6.0256   14.4037   24.4941 C   0  0  0  0  0  0  0  0  0  0  0  0
    5.8120   13.0391   25.2146 C   0  0  0  0  0  0  0  0  0  0  0  0
    6.8199   12.6174   26.3077 C   0  0  0  0  0  0  0  0  0  0  0  0
    7.9511   13.5793   26.4326 N   0  0  0  0  0  0  0  0  0  0  0  0
    9.0914   13.4519   25.1980 S   0  0  0  0  0  0  0  0  0  0  0  0
    9.6480   14.7595   24.9529 O   0  0  0  0  0  0  0  0  0  0  0  0
    8.4070   12.6647   24.2060 O   0  0  0  0  0  0  0  0  0  0  0  0
   10.2777   12.4275   25.8283 N   0  0  0  0  0  0  0  0  0  0  0  0
   11.5465   13.1080   26.1908 C   0  0  0  0  0  0  0  0  0  0  0  0
   12.6621   12.7008   25.2467 C   0  0  0  0  0  0  0  0  0  0  0  0
   12.9214   11.2173   25.4393 C   0  0  0  0  0  0  0  0  0  0  0  0
   11.6335   10.3729   25.2782 C   0  0  0  0  0  0  0  0  0  0  0  0
   10.4109   11.2057   24.9586 C   0  0  0  0  0  0  0  0  0  0  0  0
    7.3964   14.9352   26.6458 C   0  0  0  0  0  0  0  0  0  0  0  0
    6.6391   15.4607   25.4243 C   0  0  0  0  0  0  0  0  0  0  0  0
  1  2  2  0
  2  3  1  0
  4  3  1  1
  4  5  1  0
  5  6  1  0
  7  6  1  6
  7  8  1  0
  8  9  2  0
  9 10  1  0
 11 10  1  6
  2 12  1  0
 12 13  1  0
 13 14  1  0
 14 15  1  0
 15 16  1  0
 16 17  2  0
 16 18  2  0
 16 19  1  0
 19 20  1  0
 20 21  1  0
 21 22  1  0
 22 23  1  0
 23 24  1  0
 15 25  1  0
 25 26  1  0
 11  4  1  0
 26 12  1  0
 11  7  1  0
 24 19  1  0
M  END
>  <energy_score>  (2440) 
-36.188981

>  <inchikey>  (2440) 
None

>  <smiles>  (2440) 
None

>  <ref_pdb>  (2440) 
A4706a

>  <alias>  (2440) 
None

>  <HIPPO Pose ID>  (2440) 
500084

>  <name>  (2440) 
P500084

>  <HIPPO Compound ID>  (2440) 
314520

>  <ref_mols>  (2440) 
A0875a,A4706a

>  <distance_score>  (2440) 
1.37387

>  <inspiration_score>  (2440) 
None

$$$$
P500085
     RDKit          3D

 26 27  0  0  0  0  0  0  0  0999 V2000
   15.6626    9.6458   25.7329 C   0  0  0  0  0  0  0  0  0  0  0  0
   14.7645   10.4450   26.4839 O   0  0  0  0  0  0  0  0  0  0  0  0
   15.3614   11.1833   27.4584 C   0  0  0  0  0  0  0  0  0  0  0  0
   16.3877   10.8770   28.0496 O   0  0  0  0  0  0  0  0  0  0  0  0
   14.6171   12.4974   27.6285 C   0  0  1  0  0  0  0  0  0  0  0  0
   13.2991   12.5439   27.0733 O   0  0  0  0  0  0  0  0  0  0  0  0
   13.2877   12.6853   25.7157 C   0  0  0  0  0  0  0  0  0  0  0  0
   14.2466   12.5053   24.9815 O   0  0  0  0  0  0  0  0  0  0  0  0
   11.9341   13.1076   25.2392 C   0  0  0  0  0  0  0  0  0  0  0  0
   11.9449   13.5159   23.7748 C   0  0  0  0  0  0  0  0  0  0  0  0
   10.5787   13.7575   23.1579 C   0  0  0  0  0  0  0  0  0  0  0  0
    9.4871   13.1517   23.9617 N   0  0  0  0  0  0  0  0  0  0  0  0
    8.6830   14.2950   24.8767 S   0  0  0  0  0  0  0  0  0  0  0  0
    8.0147   15.1665   23.9462 O   0  0  0  0  0  0  0  0  0  0  0  0
    9.6036   14.8401   25.8481 O   0  0  0  0  0  0  0  0  0  0  0  0
    7.5379   13.4649   25.7496 N   0  0  0  0  0  0  0  0  0  0  0  0
    6.6479   12.4922   25.1000 C   0  0  0  0  0  0  0  0  0  0  0  0
    6.2431   11.5442   26.2305 C   0  0  0  0  0  0  0  0  0  0  0  0
    5.4066   12.2966   27.2647 C   0  0  0  0  0  0  0  0  0  0  0  0
    6.1296   13.5463   27.7640 C   0  0  0  0  0  0  0  0  0  0  0  0
    6.7325   14.3668   26.6283 C   0  0  0  0  0  0  0  0  0  0  0  0
    9.8613   11.8457   24.4891 C   0  0  0  0  0  0  0  0  0  0  0  0
   10.9668   11.9688   25.5004 C   0  0  0  0  0  0  0  0  0  0  0  0
   14.5979   12.9227   29.1168 C   0  0  2  0  0  0  0  0  0  0  0  0
   13.5839   14.0280   29.4128 C   0  0  0  0  0  0  0  0  0  0  0  0
   15.9076   13.4650   29.5094 N   0  0  0  0  0  0  0  0  0  0  0  0
  1  2  1  0
  2  3  1  0
  3  4  2  0
  3  5  1  0
  5  6  1  1
  6  7  1  0
  7  8  2  0
  7  9  1  0
  9 10  1  0
 10 11  1  0
 11 12  1  0
 12 13  1  0
 13 14  2  0
 13 15  2  0
 13 16  1  0
 16 17  1  0
 17 18  1  0
 18 19  1  0
 19 20  1  0
 20 21  1  0
 12 22  1  0
 22 23  1  0
  5 24  1  0
 24 25  1  6
 24 26  1  0
 23  9  1  0
 21 16  1  0
M  END
>  <energy_score>  (2441) 
-119.518145

>  <inchikey>  (2441) 
None

>  <smiles>  (2441) 
None

>  <ref_pdb>  (2441) 
A4706a

>  <alias>  (2441) 
None

>  <HIPPO Pose ID>  (2441) 
500085

>  <name>  (2441) 
P500085

>  <HIPPO Compound ID>  (2441) 
314521

>  <ref_mols>  (2441) 
A4706a,A0875a

>  <distance_score>  (2441) 
1.897382

>  <inspiration_score>  (2441) 
None

$$$$
P500086
     RDKit          3D

 26 27  0  0  0  0  0  0  0  0999 V2000
   13.3362   13.9474   31.1187 C   0  0  0  0  0  0  0  0  0  0  0  0
   13.6384   12.7716   30.3653 O   0  0  0  0  0  0  0  0  0  0  0  0
   14.2988   13.0041   29.1980 C   0  0  0  0  0  0  0  0  0  0  0  0
   14.6489   14.1059   28.7942 O   0  0  0  0  0  0  0  0  0  0  0  0
   14.5191   11.7048   28.4381 C   0  0  1  0  0  0  0  0  0  0  0  0
   13.5609   11.6709   27.3350 O   0  0  0  0  0  0  0  0  0  0  0  0
   13.8616   12.2619   26.1644 C   0  0  0  0  0  0  0  0  0  0  0  0
   14.9516   12.7370   25.8790 O   0  0  0  0  0  0  0  0  0  0  0  0
   12.7235   12.2941   25.1629 C   0  0  0  0  0  0  0  0  0  0  0  0
   12.4335   13.7477   24.8635 C   0  0  0  0  0  0  0  0  0  0  0  0
   11.2682   13.9412   23.9393 C   0  0  0  0  0  0  0  0  0  0  0  0
   10.1262   13.3371   24.6441 N   0  0  0  0  0  0  0  0  0  0  0  0
    8.6972   14.0854   24.2908 S   0  0  0  0  0  0  0  0  0  0  0  0
    8.3986   13.7836   22.9155 O   0  0  0  0  0  0  0  0  0  0  0  0
    8.8273   15.4321   24.7834 O   0  0  0  0  0  0  0  0  0  0  0  0
    7.5949   13.2979   25.3064 N   0  0  0  0  0  0  0  0  0  0  0  0
    6.2184   13.3475   24.7502 C   0  0  0  0  0  0  0  0  0  0  0  0
    5.2667   12.5806   25.6486 C   0  0  0  0  0  0  0  0  0  0  0  0
    5.2663   13.1050   27.0726 C   0  0  0  0  0  0  0  0  0  0  0  0
    6.6848   13.0861   27.5999 C   0  0  0  0  0  0  0  0  0  0  0  0
    7.6213   13.8662   26.6895 C   0  0  0  0  0  0  0  0  0  0  0  0
   10.2298   11.8834   24.6062 C   0  0  0  0  0  0  0  0  0  0  0  0
   11.4300   11.5738   25.5058 C   0  0  0  0  0  0  0  0  0  0  0  0
   16.0335   11.5318   28.1185 C   0  0  1  0  0  0  0  0  0  0  0  0
   16.8035   11.1333   29.3838 C   0  0  0  0  0  0  0  0  0  0  0  0
   16.2877   10.5205   27.0769 N   0  0  0  0  0  0  0  0  0  0  0  0
  1  2  1  0
  2  3  1  0
  3  4  2  0
  3  5  1  0
  5  6  1  6
  6  7  1  0
  7  8  2  0
  7  9  1  0
  9 10  1  0
 10 11  1  0
 11 12  1  0
 12 13  1  0
 13 14  2  0
 13 15  2  0
 13 16  1  0
 16 17  1  0
 17 18  1  0
 18 19  1  0
 19 20  1  0
 20 21  1  0
 12 22  1  0
 22 23  1  0
  5 24  1  0
 24 25  1  1
 24 26  1  0
 23  9  1  0
 21 16  1  0
M  END
>  <energy_score>  (2442) 
-70.710467

>  <inchikey>  (2442) 
None

>  <smiles>  (2442) 
None

>  <ref_pdb>  (2442) 
A4706a

>  <alias>  (2442) 
None

>  <HIPPO Pose ID>  (2442) 
500086

>  <name>  (2442) 
P500086

>  <HIPPO Compound ID>  (2442) 
314521

>  <ref_mols>  (2442) 
A4706a,A0875a

>  <distance_score>  (2442) 
1.868937

>  <inspiration_score>  (2442) 
None

$$$$
P500087
     RDKit          3D

 26 28  0  0  0  0  0  0  0  0999 V2000
   10.6395   16.0716   22.1805 C   0  0  0  0  0  0  0  0  0  0  0  0
    9.4126   16.2782   21.2699 C   0  0  0  0  0  0  0  0  0  0  0  0
    8.9881   17.7184   21.0346 C   0  0  0  0  0  0  0  0  0  0  0  0
    9.8242   15.6426   19.9687 C   0  0  0  0  0  0  0  0  0  0  0  0
   10.2131   16.1865   18.9552 O   0  0  0  0  0  0  0  0  0  0  0  0
    9.6953   14.3028   20.1097 O   0  0  0  0  0  0  0  0  0  0  0  0
    8.8005   14.0657   21.1944 C   0  0  0  0  0  0  0  0  0  0  0  0
    8.2106   15.3904   21.5892 C   0  0  1  0  0  0  0  0  0  0  0  0
    7.5330   15.4910   22.8560 O   0  0  0  0  0  0  0  0  0  0  0  0
    6.6959   14.4583   23.1950 C   0  0  0  0  0  0  0  0  0  0  0  0
    6.4759   13.4752   22.4856 O   0  0  0  0  0  0  0  0  0  0  0  0
    6.0187   14.6033   24.5648 C   0  0  0  0  0  0  0  0  0  0  0  0
    5.8320   13.2110   25.2087 C   0  0  0  0  0  0  0  0  0  0  0  0
    7.1218   12.6068   25.7737 C   0  0  0  0  0  0  0  0  0  0  0  0
    8.0367   13.6337   26.3426 N   0  0  0  0  0  0  0  0  0  0  0  0
    9.4620   14.0034   25.5199 S   0  0  0  0  0  0  0  0  0  0  0  0
   10.2038   14.9834   26.2680 O   0  0  0  0  0  0  0  0  0  0  0  0
    9.1298   14.2519   24.1555 O   0  0  0  0  0  0  0  0  0  0  0  0
   10.2816   12.5548   25.4973 N   0  0  0  0  0  0  0  0  0  0  0  0
   10.1262   11.8109   24.2162 C   0  0  0  0  0  0  0  0  0  0  0  0
   10.3065   10.3607   24.5571 C   0  0  0  0  0  0  0  0  0  0  0  0
   11.6463   10.1603   25.2480 C   0  0  0  0  0  0  0  0  0  0  0  0
   12.4847   11.4327   25.5347 C   0  0  0  0  0  0  0  0  0  0  0  0
   11.6823   12.6560   25.9424 C   0  0  0  0  0  0  0  0  0  0  0  0
    7.2834   14.8352   26.7833 C   0  0  0  0  0  0  0  0  0  0  0  0
    6.6711   15.5546   25.5788 C   0  0  0  0  0  0  0  0  0  0  0  0
  1  2  1  0
  2  3  1  0
  2  4  1  0
  4  5  2  0
  4  6  1  0
  6  7  1  0
  7  8  1  0
  8  9  1  1
  9 10  1  0
 10 11  2  0
 10 12  1  0
 12 13  1  0
 13 14  1  0
 14 15  1  0
 15 16  1  0
 16 17  2  0
 16 18  2  0
 16 19  1  0
 19 20  1  0
 20 21  1  0
 21 22  1  0
 22 23  1  0
 23 24  1  0
 15 25  1  0
 25 26  1  0
  8  2  1  0
 26 12  1  0
 24 19  1  0
M  END
>  <energy_score>  (2443) 
-26.231516

>  <inchikey>  (2443) 
None

>  <smiles>  (2443) 
None

>  <ref_pdb>  (2443) 
A4706a

>  <alias>  (2443) 
None

>  <HIPPO Pose ID>  (2443) 
500087

>  <name>  (2443) 
P500087

>  <HIPPO Compound ID>  (2443) 
314524

>  <ref_mols>  (2443) 
A0875a,A4706a

>  <distance_score>  (2443) 
1.747601

>  <inspiration_score>  (2443) 
None

$$$$
P500088
     RDKit          3D

 26 28  0  0  0  0  0  0  0  0999 V2000
   11.3660   16.1908   22.0690 C   0  0  0  0  0  0  0  0  0  0  0  0
   10.3915   15.1995   21.5059 C   0  0  0  0  0  0  0  0  0  0  0  0
   10.7787   13.8339   22.0572 C   0  0  0  0  0  0  0  0  0  0  0  0
   10.4242   15.1910   19.9963 C   0  0  0  0  0  0  0  0  0  0  0  0
   11.3937   15.2803   19.2717 O   0  0  0  0  0  0  0  0  0  0  0  0
    9.1588   15.0501   19.5321 O   0  0  0  0  0  0  0  0  0  0  0  0
    8.3506   14.7552   20.6521 C   0  0  0  0  0  0  0  0  0  0  0  0
    8.9228   15.5896   21.7319 C   0  0  1  0  0  0  0  0  0  0  0  0
    8.4005   15.1803   22.9812 O   0  0  0  0  0  0  0  0  0  0  0  0
    7.0547   15.0076   23.2237 C   0  0  0  0  0  0  0  0  0  0  0  0
    6.1104   15.2808   22.5117 O   0  0  0  0  0  0  0  0  0  0  0  0
    7.0250   14.3038   24.5414 C   0  0  0  0  0  0  0  0  0  0  0  0
    7.4311   12.8347   24.3371 C   0  0  0  0  0  0  0  0  0  0  0  0
    7.7704   12.1545   25.6499 C   0  0  0  0  0  0  0  0  0  0  0  0
    8.1110   13.1785   26.6386 N   0  0  0  0  0  0  0  0  0  0  0  0
    9.5920   14.0279   26.5333 S   0  0  0  0  0  0  0  0  0  0  0  0
    9.6603   14.8047   27.7446 O   0  0  0  0  0  0  0  0  0  0  0  0
    9.8013   14.6682   25.2582 O   0  0  0  0  0  0  0  0  0  0  0  0
   10.8051   12.8313   26.6187 N   0  0  0  0  0  0  0  0  0  0  0  0
   12.0231   13.4586   27.2434 C   0  0  0  0  0  0  0  0  0  0  0  0
   13.2642   12.5858   27.1027 C   0  0  0  0  0  0  0  0  0  0  0  0
   13.5809   12.2497   25.6548 C   0  0  0  0  0  0  0  0  0  0  0  0
   12.4357   12.6845   24.7617 C   0  0  0  0  0  0  0  0  0  0  0  0
   11.1143   12.1766   25.3082 C   0  0  0  0  0  0  0  0  0  0  0  0
    6.8761   14.0348   26.9596 C   0  0  0  0  0  0  0  0  0  0  0  0
    6.0511   14.3928   25.6818 C   0  0  0  0  0  0  0  0  0  0  0  0
  1  2  1  0
  2  3  1  0
  2  4  1  0
  4  5  2  0
  4  6  1  0
  6  7  1  0
  7  8  1  0
  8  9  1  1
  9 10  1  0
 10 11  2  0
 10 12  1  0
 12 13  1  0
 13 14  1  0
 14 15  1  0
 15 16  1  0
 16 17  2  0
 16 18  2  0
 16 19  1  0
 19 20  1  0
 20 21  1  0
 21 22  1  0
 22 23  1  0
 23 24  1  0
 15 25  1  0
 25 26  1  0
  8  2  1  0
 26 12  1  0
 24 19  1  0
M  END
>  <energy_score>  (2444) 
-21.360041

>  <inchikey>  (2444) 
None

>  <smiles>  (2444) 
None

>  <ref_pdb>  (2444) 
A4706a

>  <alias>  (2444) 
None

>  <HIPPO Pose ID>  (2444) 
500088

>  <name>  (2444) 
P500088

>  <HIPPO Compound ID>  (2444) 
314524

>  <ref_mols>  (2444) 
A4706a,A0875a

>  <distance_score>  (2444) 
1.621551

>  <inspiration_score>  (2444) 
None

$$$$
P500089
     RDKit          3D

 26 29  0  0  0  0  0  0  0  0999 V2000
    7.1863   13.9170   21.6403 O   0  0  0  0  0  0  0  0  0  0  0  0
    8.3108   13.7939   22.1041 C   0  0  0  0  0  0  0  0  0  0  0  0
    9.4519   13.8567   21.3502 O   0  0  0  0  0  0  0  0  0  0  0  0
    9.9429   15.1616   20.9398 C   0  0  2  0  0  0  0  0  0  0  0  0
    9.7232   15.4757   19.4834 C   0  0  0  0  0  0  0  0  0  0  0  0
   10.8876   14.7854   18.7505 C   0  0  0  0  0  0  0  0  0  0  0  0
   11.9245   14.4250   19.8076 C   0  0  0  0  0  0  0  0  0  0  0  0
   11.4537   15.2116   20.9717 C   0  0  2  0  0  0  0  0  0  0  0  0
   11.7407   15.0035   22.4008 C   0  0  0  0  0  0  0  0  0  0  0  0
   10.7206   15.8321   23.0164 O   0  0  0  0  0  0  0  0  0  0  0  0
    9.7264   16.1906   22.0001 C   0  0  0  0  0  0  0  0  0  0  0  0
    8.6008   13.4469   23.5551 C   0  0  0  0  0  0  0  0  0  0  0  0
    8.4266   11.9768   23.9175 C   0  0  0  0  0  0  0  0  0  0  0  0
    9.0103   11.6743   25.2990 C   0  0  0  0  0  0  0  0  0  0  0  0
    9.0666   12.8755   26.1453 N   0  0  0  0  0  0  0  0  0  0  0  0
   10.4583   13.7721   26.4577 S   0  0  0  0  0  0  0  0  0  0  0  0
   10.2956   14.2179   27.8178 O   0  0  0  0  0  0  0  0  0  0  0  0
   10.6630   14.7410   25.4152 O   0  0  0  0  0  0  0  0  0  0  0  0
   11.7749   12.6806   26.4025 N   0  0  0  0  0  0  0  0  0  0  0  0
   12.3375   12.4593   25.0636 C   0  0  0  0  0  0  0  0  0  0  0  0
   13.3253   11.2933   25.1517 C   0  0  0  0  0  0  0  0  0  0  0  0
   14.4499   11.4458   26.1436 C   0  0  0  0  0  0  0  0  0  0  0  0
   14.2946   12.7301   26.8935 C   0  0  0  0  0  0  0  0  0  0  0  0
   12.8685   12.9685   27.3973 C   0  0  0  0  0  0  0  0  0  0  0  0
    7.8414   13.7193   25.9792 C   0  0  0  0  0  0  0  0  0  0  0  0
    7.7874   14.2955   24.5550 C   0  0  0  0  0  0  0  0  0  0  0  0
  1  2  2  0
  2  3  1  0
  4  3  1  1
  4  5  1  0
  5  6  1  0
  6  7  1  0
  8  7  1  6
  8  9  1  0
  9 10  1  0
 10 11  1  0
  2 12  1  0
 12 13  1  0
 13 14  1  0
 14 15  1  0
 15 16  1  0
 16 17  2  0
 16 18  2  0
 16 19  1  0
 19 20  1  0
 20 21  1  0
 21 22  1  0
 22 23  1  0
 23 24  1  0
 15 25  1  0
 25 26  1  0
  8  4  1  0
 26 12  1  0
 11  4  1  0
 24 19  1  0
M  END
>  <energy_score>  (2445) 
-68.903606

>  <inchikey>  (2445) 
None

>  <smiles>  (2445) 
None

>  <ref_pdb>  (2445) 
A4706a

>  <alias>  (2445) 
None

>  <HIPPO Pose ID>  (2445) 
500089

>  <name>  (2445) 
P500089

>  <HIPPO Compound ID>  (2445) 
314525

>  <ref_mols>  (2445) 
A0875a,A4706a

>  <distance_score>  (2445) 
1.803979

>  <inspiration_score>  (2445) 
None

$$$$
P500090
     RDKit          3D

 26 29  0  0  0  0  0  0  0  0999 V2000
    6.5698   14.0134   21.5312 O   0  0  0  0  0  0  0  0  0  0  0  0
    7.2644   13.7337   22.5010 C   0  0  0  0  0  0  0  0  0  0  0  0
    8.6311   13.6815   22.5098 O   0  0  0  0  0  0  0  0  0  0  0  0
    9.4023   14.6766   21.7674 C   0  0  2  0  0  0  0  0  0  0  0  0
    8.7220   15.2634   20.5597 C   0  0  0  0  0  0  0  0  0  0  0  0
    9.8089   15.6750   19.5867 C   0  0  0  0  0  0  0  0  0  0  0  0
   10.8694   14.6226   19.7755 C   0  0  0  0  0  0  0  0  0  0  0  0
   10.7907   14.2621   21.2656 C   0  0  1  0  0  0  0  0  0  0  0  0
   11.7772   15.1345   22.0183 C   0  0  0  0  0  0  0  0  0  0  0  0
   11.0885   15.5998   23.1550 O   0  0  0  0  0  0  0  0  0  0  0  0
    9.7422   15.7746   22.7408 C   0  0  0  0  0  0  0  0  0  0  0  0
    6.5748   13.4413   23.8194 C   0  0  0  0  0  0  0  0  0  0  0  0
    7.2366   12.3204   24.6337 C   0  0  0  0  0  0  0  0  0  0  0  0
    7.0273   12.4813   26.1235 C   0  0  0  0  0  0  0  0  0  0  0  0
    7.3685   13.8514   26.4577 N   0  0  0  0  0  0  0  0  0  0  0  0
    8.8970   14.4874   26.6176 S   0  0  0  0  0  0  0  0  0  0  0  0
    8.8825   15.8016   26.0260 O   0  0  0  0  0  0  0  0  0  0  0  0
    9.2873   14.3267   27.9947 O   0  0  0  0  0  0  0  0  0  0  0  0
   10.0211   13.6046   25.7230 N   0  0  0  0  0  0  0  0  0  0  0  0
   11.3505   14.3103   25.8477 C   0  0  0  0  0  0  0  0  0  0  0  0
   12.5418   13.4348   25.4856 C   0  0  0  0  0  0  0  0  0  0  0  0
   12.2341   12.2622   24.6248 C   0  0  0  0  0  0  0  0  0  0  0  0
   10.9880   11.5033   25.0279 C   0  0  0  0  0  0  0  0  0  0  0  0
   10.2424   12.2259   26.1196 C   0  0  0  0  0  0  0  0  0  0  0  0
    6.3065   14.7640   26.0129 C   0  0  0  0  0  0  0  0  0  0  0  0
    6.3315   14.8047   24.5002 C   0  0  0  0  0  0  0  0  0  0  0  0
  1  2  2  0
  2  3  1  0
  4  3  1  1
  4  5  1  0
  5  6  1  0
  6  7  1  0
  8  7  1  6
  8  9  1  0
  9 10  1  0
 10 11  1  0
  2 12  1  0
 12 13  1  0
 13 14  1  0
 14 15  1  0
 15 16  1  0
 16 17  2  0
 16 18  2  0
 16 19  1  0
 19 20  1  0
 20 21  1  0
 21 22  1  0
 22 23  1  0
 23 24  1  0
 15 25  1  0
 25 26  1  0
  8  4  1  0
 26 12  1  0
 11  4  1  0
 24 19  1  0
M  END
>  <energy_score>  (2446) 
-24.774427

>  <inchikey>  (2446) 
None

>  <smiles>  (2446) 
None

>  <ref_pdb>  (2446) 
A4706a

>  <alias>  (2446) 
None

>  <HIPPO Pose ID>  (2446) 
500090

>  <name>  (2446) 
P500090

>  <HIPPO Compound ID>  (2446) 
314525

>  <ref_mols>  (2446) 
A4706a,A0875a

>  <distance_score>  (2446) 
1.694227

>  <inspiration_score>  (2446) 
None

$$$$
P500091
     RDKit          3D

 26 29  0  0  0  0  0  0  0  0999 V2000
    8.8030   12.2943   22.9123 O   0  0  0  0  0  0  0  0  0  0  0  0
    8.2961   13.4008   23.0723 C   0  0  0  0  0  0  0  0  0  0  0  0
    8.7505   14.5404   22.4880 O   0  0  0  0  0  0  0  0  0  0  0  0
    9.9365   14.5060   21.5994 C   0  0  1  0  0  0  0  0  0  0  0  0
    9.4876   14.4297   20.1753 C   0  0  0  0  0  0  0  0  0  0  0  0
    9.7121   15.7937   19.5230 C   0  0  0  0  0  0  0  0  0  0  0  0
    9.6411   16.7025   20.7437 C   0  0  0  0  0  0  0  0  0  0  0  0
   10.5972   15.8616   21.5351 C   0  0  1  0  0  0  0  0  0  0  0  0
   11.0886   15.9469   22.9045 C   0  0  0  0  0  0  0  0  0  0  0  0
   11.7113   14.6591   23.1073 O   0  0  0  0  0  0  0  0  0  0  0  0
   11.1387   13.7570   22.1216 C   0  0  0  0  0  0  0  0  0  0  0  0
    7.0000   13.5380   23.8896 C   0  0  0  0  0  0  0  0  0  0  0  0
    6.7975   12.2659   24.7445 C   0  0  0  0  0  0  0  0  0  0  0  0
    7.8072   12.1338   25.8776 C   0  0  0  0  0  0  0  0  0  0  0  0
    8.0849   13.4248   26.5149 N   0  0  0  0  0  0  0  0  0  0  0  0
    9.5881   14.1541   26.4071 S   0  0  0  0  0  0  0  0  0  0  0  0
    9.7376   14.6448   25.0702 O   0  0  0  0  0  0  0  0  0  0  0  0
    9.6285   15.0835   27.5082 O   0  0  0  0  0  0  0  0  0  0  0  0
   10.7836   12.9653   26.6630 N   0  0  0  0  0  0  0  0  0  0  0  0
   11.9400   13.6012   27.3813 C   0  0  0  0  0  0  0  0  0  0  0  0
   13.1867   12.7164   27.4316 C   0  0  0  0  0  0  0  0  0  0  0  0
   13.6544   12.2454   26.0712 C   0  0  0  0  0  0  0  0  0  0  0  0
   12.6244   12.5941   25.0254 C   0  0  0  0  0  0  0  0  0  0  0  0
   11.2102   12.2331   25.4291 C   0  0  0  0  0  0  0  0  0  0  0  0
    6.9813   14.4107   26.3010 C   0  0  0  0  0  0  0  0  0  0  0  0
    6.8485   14.7607   24.8061 C   0  0  0  0  0  0  0  0  0  0  0  0
  1  2  2  0
  2  3  1  0
  4  3  1  1
  4  5  1  0
  5  6  1  0
  6  7  1  0
  8  7  1  1
  8  9  1  0
  9 10  1  0
 10 11  1  0
  2 12  1  0
 12 13  1  0
 13 14  1  0
 14 15  1  0
 15 16  1  0
 16 17  2  0
 16 18  2  0
 16 19  1  0
 19 20  1  0
 20 21  1  0
 21 22  1  0
 22 23  1  0
 23 24  1  0
 15 25  1  0
 25 26  1  0
  8  4  1  0
 26 12  1  0
 11  4  1  0
 24 19  1  0
M  END
>  <energy_score>  (2447) 
-30.468626

>  <inchikey>  (2447) 
None

>  <smiles>  (2447) 
None

>  <ref_pdb>  (2447) 
A4706a

>  <alias>  (2447) 
None

>  <HIPPO Pose ID>  (2447) 
500091

>  <name>  (2447) 
P500091

>  <HIPPO Compound ID>  (2447) 
314525

>  <ref_mols>  (2447) 
A0875a,A4706a

>  <distance_score>  (2447) 
1.778047

>  <inspiration_score>  (2447) 
None

$$$$
P500092
     RDKit          3D

 26 27  0  0  0  0  0  0  0  0999 V2000
   17.8344    9.5122   29.1499 C   0  0  0  0  0  0  0  0  0  0  0  0
   17.3253   10.4717   28.6381 C   0  0  0  0  0  0  0  0  0  0  0  0
   16.7020   11.6405   27.9985 C   0  0  0  0  0  0  0  0  0  0  0  0
   15.3791   12.0239   28.6660 C   0  0  2  0  0  0  0  0  0  0  0  0
   14.5412   12.7866   27.7546 O   0  0  0  0  0  0  0  0  0  0  0  0
   13.8894   12.0714   26.8125 C   0  0  0  0  0  0  0  0  0  0  0  0
   14.0502   10.8772   26.6052 O   0  0  0  0  0  0  0  0  0  0  0  0
   12.9701   12.9254   25.9806 C   0  0  0  0  0  0  0  0  0  0  0  0
   11.9365   13.7187   26.7680 C   0  0  0  0  0  0  0  0  0  0  0  0
   10.5279   13.1952   26.5952 C   0  0  0  0  0  0  0  0  0  0  0  0
   10.1363   13.0787   25.1779 N   0  0  0  0  0  0  0  0  0  0  0  0
    8.9628   14.1768   24.7145 S   0  0  0  0  0  0  0  0  0  0  0  0
    8.7270   14.0676   23.3002 O   0  0  0  0  0  0  0  0  0  0  0  0
    9.3179   15.4141   25.3601 O   0  0  0  0  0  0  0  0  0  0  0  0
    7.6805   13.4992   25.5428 N   0  0  0  0  0  0  0  0  0  0  0  0
    7.1857   12.1873   25.0864 C   0  0  0  0  0  0  0  0  0  0  0  0
    6.5362   11.5115   26.2892 C   0  0  0  0  0  0  0  0  0  0  0  0
    5.4301   12.3826   26.8871 C   0  0  0  0  0  0  0  0  0  0  0  0
    5.9086   13.8105   27.1534 C   0  0  0  0  0  0  0  0  0  0  0  0
    6.5802   14.4083   25.9187 C   0  0  0  0  0  0  0  0  0  0  0  0
   11.2178   12.8622   24.2140 C   0  0  0  0  0  0  0  0  0  0  0  0
   12.3077   12.0792   24.9214 C   0  0  0  0  0  0  0  0  0  0  0  0
   15.6482   12.9666   29.8299 C   0  0  0  0  0  0  0  0  0  0  0  0
   15.4598   14.1781   29.7812 O   0  0  0  0  0  0  0  0  0  0  0  0
   16.1089   12.2888   30.9139 O   0  0  0  0  0  0  0  0  0  0  0  0
   16.4160   13.1136   32.0394 C   0  0  0  0  0  0  0  0  0  0  0  0
  1  2  3  0
  2  3  1  0
  4  3  1  6
  4  5  1  0
  5  6  1  0
  6  7  2  0
  6  8  1  0
  8  9  1  0
  9 10  1  0
 10 11  1  0
 11 12  1  0
 12 13  2  0
 12 14  2  0
 12 15  1  0
 15 16  1  0
 16 17  1  0
 17 18  1  0
 18 19  1  0
 19 20  1  0
 11 21  1  0
 21 22  1  0
  4 23  1  0
 23 24  2  0
 23 25  1  0
 25 26  1  0
 22  8  1  0
 20 15  1  0
M  END
>  <energy_score>  (2448) 
-64.079564

>  <inchikey>  (2448) 
None

>  <smiles>  (2448) 
None

>  <ref_pdb>  (2448) 
A4706a

>  <alias>  (2448) 
None

>  <HIPPO Pose ID>  (2448) 
500092

>  <name>  (2448) 
P500092

>  <HIPPO Compound ID>  (2448) 
314526

>  <ref_mols>  (2448) 
A4706a,A0875a

>  <distance_score>  (2448) 
1.846002

>  <inspiration_score>  (2448) 
None

$$$$
P500093
     RDKit          3D

 26 27  0  0  0  0  0  0  0  0999 V2000
   17.8075    9.3621   27.0905 C   0  0  0  0  0  0  0  0  0  0  0  0
   17.4190   10.0315   28.0048 C   0  0  0  0  0  0  0  0  0  0  0  0
   16.9690   10.9207   29.0786 C   0  0  0  0  0  0  0  0  0  0  0  0
   16.7164   12.3309   28.5316 C   0  0  1  0  0  0  0  0  0  0  0  0
   15.3061   12.4827   28.2267 O   0  0  0  0  0  0  0  0  0  0  0  0
   14.8668   12.1781   26.9741 C   0  0  0  0  0  0  0  0  0  0  0  0
   15.5653   11.8303   26.0387 O   0  0  0  0  0  0  0  0  0  0  0  0
   13.3455   12.2268   26.9244 C   0  0  0  0  0  0  0  0  0  0  0  0
   12.7830   13.4349   27.6437 C   0  0  0  0  0  0  0  0  0  0  0  0
   11.5057   14.0570   27.1106 C   0  0  0  0  0  0  0  0  0  0  0  0
   10.8117   13.2532   26.0551 N   0  0  0  0  0  0  0  0  0  0  0  0
    9.4525   14.1457   25.5097 S   0  0  0  0  0  0  0  0  0  0  0  0
    9.9111   15.0485   24.4808 O   0  0  0  0  0  0  0  0  0  0  0  0
    8.8055   14.6524   26.6959 O   0  0  0  0  0  0  0  0  0  0  0  0
    8.4122   13.0288   24.8082 N   0  0  0  0  0  0  0  0  0  0  0  0
    8.0707   11.7864   25.5345 C   0  0  0  0  0  0  0  0  0  0  0  0
    6.9704   11.9811   26.5697 C   0  0  0  0  0  0  0  0  0  0  0  0
    5.7387   12.6603   26.0008 C   0  0  0  0  0  0  0  0  0  0  0  0
    6.1133   13.9384   25.2665 C   0  0  0  0  0  0  0  0  0  0  0  0
    7.1945   13.6752   24.2197 C   0  0  0  0  0  0  0  0  0  0  0  0
   11.7565   12.8919   24.9785 C   0  0  0  0  0  0  0  0  0  0  0  0
   12.7511   11.8840   25.5408 C   0  0  0  0  0  0  0  0  0  0  0  0
   17.1493   13.3325   29.6058 C   0  0  0  0  0  0  0  0  0  0  0  0
   18.2241   13.2973   30.1913 O   0  0  0  0  0  0  0  0  0  0  0  0
   16.1915   14.2845   29.8155 O   0  0  0  0  0  0  0  0  0  0  0  0
   16.5819   15.2763   30.7680 C   0  0  0  0  0  0  0  0  0  0  0  0
  1  2  3  0
  2  3  1  0
  4  3  1  1
  4  5  1  0
  5  6  1  0
  6  7  2  0
  6  8  1  0
  8  9  1  0
  9 10  1  0
 10 11  1  0
 11 12  1  0
 12 13  2  0
 12 14  2  0
 12 15  1  0
 15 16  1  0
 16 17  1  0
 17 18  1  0
 18 19  1  0
 19 20  1  0
 11 21  1  0
 21 22  1  0
  4 23  1  0
 23 24  2  0
 23 25  1  0
 25 26  1  0
 22  8  1  0
 20 15  1  0
M  END
>  <energy_score>  (2449) 
-44.685153

>  <inchikey>  (2449) 
None

>  <smiles>  (2449) 
None

>  <ref_pdb>  (2449) 
A4706a

>  <alias>  (2449) 
None

>  <HIPPO Pose ID>  (2449) 
500093

>  <name>  (2449) 
P500093

>  <HIPPO Compound ID>  (2449) 
314526

>  <ref_mols>  (2449) 
A4706a,A0875a

>  <distance_score>  (2449) 
1.957375

>  <inspiration_score>  (2449) 
None

$$$$
P500094
     RDKit          3D

 26 29  0  0  0  0  0  0  0  0999 V2000
   10.4252   14.4585   18.5308 N   0  0  0  0  0  0  0  0  0  0  0  0
   10.7008   15.3535   19.6307 C   0  0  2  0  0  0  0  0  0  0  0  0
   11.7578   14.7639   20.5667 C   0  0  0  0  0  0  0  0  0  0  0  0
   11.1171   14.9411   21.9275 C   0  0  2  0  0  0  0  0  0  0  0  0
    9.9167   14.0237   22.0989 C   0  0  0  0  0  0  0  0  0  0  0  0
    8.8212   14.6841   21.2557 C   0  0  1  0  0  0  0  0  0  0  0  0
    7.7531   15.1566   22.1174 O   0  0  0  0  0  0  0  0  0  0  0  0
    6.8981   14.1817   22.5517 C   0  0  0  0  0  0  0  0  0  0  0  0
    6.3674   13.3313   21.8518 O   0  0  0  0  0  0  0  0  0  0  0  0
    6.7696   14.2180   24.0503 C   0  0  0  0  0  0  0  0  0  0  0  0
    6.2240   12.9675   24.7528 C   0  0  0  0  0  0  0  0  0  0  0  0
    6.6880   12.9334   26.2211 C   0  0  0  0  0  0  0  0  0  0  0  0
    7.5493   14.0895   26.5338 N   0  0  0  0  0  0  0  0  0  0  0  0
    9.2198   14.2025   26.3273 S   0  0  0  0  0  0  0  0  0  0  0  0
    9.7740   14.5076   27.6233 O   0  0  0  0  0  0  0  0  0  0  0  0
    9.4985   15.1108   25.2366 O   0  0  0  0  0  0  0  0  0  0  0  0
    9.8958   12.7171   25.8807 N   0  0  0  0  0  0  0  0  0  0  0  0
   11.3492   12.9310   25.5752 C   0  0  0  0  0  0  0  0  0  0  0  0
   12.1028   11.6154   25.5507 C   0  0  0  0  0  0  0  0  0  0  0  0
   11.1992   10.4424   25.1352 C   0  0  0  0  0  0  0  0  0  0  0  0
   10.1559   10.9201   24.1495 C   0  0  0  0  0  0  0  0  0  0  0  0
    9.2247   11.8541   24.8777 C   0  0  0  0  0  0  0  0  0  0  0  0
    6.8046   15.3714   26.2797 C   0  0  0  0  0  0  0  0  0  0  0  0
    6.3503   15.4649   24.8027 C   0  0  0  0  0  0  0  0  0  0  0  0
    9.6201   15.8304   20.6338 C   0  0  1  0  0  0  0  0  0  0  0  0
   10.4776   16.2092   21.7552 O   0  0  0  0  0  0  0  0  0  0  0  0
  2  1  1  6
  2  3  1  0
  4  3  1  6
  4  5  1  0
  5  6  1  0
  6  7  1  1
  7  8  1  0
  8  9  2  0
  8 10  1  0
 10 11  1  0
 11 12  1  0
 12 13  1  0
 13 14  1  0
 14 15  2  0
 14 16  2  0
 14 17  1  0
 17 18  1  0
 18 19  1  0
 19 20  1  0
 20 21  1  0
 21 22  1  0
 13 23  1  0
 23 24  1  0
  6 25  1  0
 25 26  1  1
 25  2  1  0
 26  4  1  0
 24 10  1  0
 22 17  1  0
M  END
>  <energy_score>  (2450) 
-5.008917

>  <inchikey>  (2450) 
None

>  <smiles>  (2450) 
None

>  <ref_pdb>  (2450) 
A4706a

>  <alias>  (2450) 
None

>  <HIPPO Pose ID>  (2450) 
500094

>  <name>  (2450) 
P500094

>  <HIPPO Compound ID>  (2450) 
314527

>  <ref_mols>  (2450) 
A4706a,A0875a

>  <distance_score>  (2450) 
1.958435

>  <inspiration_score>  (2450) 
None

$$$$
P500095
     RDKit          3D

 26 29  0  0  0  0  0  0  0  0999 V2000
    9.9920   15.8842   18.6097 N   0  0  0  0  0  0  0  0  0  0  0  0
    9.5218   15.4915   19.9354 C   0  0  2  0  0  0  0  0  0  0  0  0
    9.6077   16.6490   20.9284 C   0  0  0  0  0  0  0  0  0  0  0  0
   10.7959   16.2185   21.8026 C   0  0  1  0  0  0  0  0  0  0  0  0
   10.3510   15.2060   22.8282 C   0  0  0  0  0  0  0  0  0  0  0  0
    9.9362   14.0249   21.9454 C   0  0  1  0  0  0  0  0  0  0  0  0
    8.4974   13.9100   22.0904 O   0  0  0  0  0  0  0  0  0  0  0  0
    8.0761   12.9740   22.9833 C   0  0  0  0  0  0  0  0  0  0  0  0
    8.6821   11.9287   23.2018 O   0  0  0  0  0  0  0  0  0  0  0  0
    6.7194   13.2854   23.6329 C   0  0  0  0  0  0  0  0  0  0  0  0
    6.5211   12.3279   24.8456 C   0  0  0  0  0  0  0  0  0  0  0  0
    7.5816   12.5413   25.9393 C   0  0  0  0  0  0  0  0  0  0  0  0
    8.2433   13.8194   25.6387 N   0  0  0  0  0  0  0  0  0  0  0  0
    9.5681   14.2957   26.4917 S   0  0  0  0  0  0  0  0  0  0  0  0
    9.1221   14.4368   27.8496 O   0  0  0  0  0  0  0  0  0  0  0  0
   10.1512   15.4020   25.7720 O   0  0  0  0  0  0  0  0  0  0  0  0
   10.6984   13.0285   26.4474 N   0  0  0  0  0  0  0  0  0  0  0  0
   10.9844   12.4988   25.0985 C   0  0  0  0  0  0  0  0  0  0  0  0
   12.4043   12.7743   24.6637 C   0  0  0  0  0  0  0  0  0  0  0  0
   13.3846   12.1022   25.6000 C   0  0  0  0  0  0  0  0  0  0  0  0
   13.1189   12.5537   27.0284 C   0  0  0  0  0  0  0  0  0  0  0  0
   11.9245   13.4934   27.1704 C   0  0  0  0  0  0  0  0  0  0  0  0
    7.2312   14.9002   25.4952 C   0  0  0  0  0  0  0  0  0  0  0  0
    6.6019   14.7337   24.1213 C   0  0  0  0  0  0  0  0  0  0  0  0
   10.4664   14.5053   20.5790 C   0  0  2  0  0  0  0  0  0  0  0  0
   11.5673   15.3652   20.9483 O   0  0  0  0  0  0  0  0  0  0  0  0
  2  1  1  6
  2  3  1  0
  4  3  1  6
  4  5  1  0
  5  6  1  0
  6  7  1  6
  7  8  1  0
  8  9  2  0
  8 10  1  0
 10 11  1  0
 11 12  1  0
 12 13  1  0
 13 14  1  0
 14 15  2  0
 14 16  2  0
 14 17  1  0
 17 18  1  0
 18 19  1  0
 19 20  1  0
 20 21  1  0
 21 22  1  0
 13 23  1  0
 23 24  1  0
  6 25  1  0
 25 26  1  1
 25  2  1  0
 26  4  1  0
 24 10  1  0
 22 17  1  0
M  END
>  <energy_score>  (2451) 
-75.483569

>  <inchikey>  (2451) 
None

>  <smiles>  (2451) 
None

>  <ref_pdb>  (2451) 
A4706a

>  <alias>  (2451) 
None

>  <HIPPO Pose ID>  (2451) 
500095

>  <name>  (2451) 
P500095

>  <HIPPO Compound ID>  (2451) 
314527

>  <ref_mols>  (2451) 
A4706a,A0875a

>  <distance_score>  (2451) 
1.773006

>  <inspiration_score>  (2451) 
None

$$$$
P500096
     RDKit          3D

 26 29  0  0  0  0  0  0  0  0999 V2000
   10.1957   14.5001   18.6006 N   0  0  0  0  0  0  0  0  0  0  0  0
   10.6857   15.2925   19.6873 C   0  0  2  0  0  0  0  0  0  0  0  0
   11.9054   14.6544   20.3316 C   0  0  0  0  0  0  0  0  0  0  0  0
   11.7849   15.1371   21.7574 C   0  0  2  0  0  0  0  0  0  0  0  0
   10.7575   14.2764   22.4692 C   0  0  0  0  0  0  0  0  0  0  0  0
    9.4522   14.9836   22.1031 C   0  0  2  0  0  0  0  0  0  0  0  0
    8.3087   14.1228   22.1678 O   0  0  0  0  0  0  0  0  0  0  0  0
    7.1910   14.7993   22.5772 C   0  0  0  0  0  0  0  0  0  0  0  0
    6.8237   15.8365   22.0394 O   0  0  0  0  0  0  0  0  0  0  0  0
    6.4194   14.2111   23.7861 C   0  0  0  0  0  0  0  0  0  0  0  0
    6.8595   12.8168   24.2567 C   0  0  0  0  0  0  0  0  0  0  0  0
    6.8766   12.5772   25.7543 C   0  0  0  0  0  0  0  0  0  0  0  0
    7.4540   13.7075   26.4771 N   0  0  0  0  0  0  0  0  0  0  0  0
    9.0367   14.2522   26.2905 S   0  0  0  0  0  0  0  0  0  0  0  0
    9.3187   15.0691   27.4435 O   0  0  0  0  0  0  0  0  0  0  0  0
    9.1680   14.8157   24.9740 O   0  0  0  0  0  0  0  0  0  0  0  0
   10.1185   12.9275   26.3547 N   0  0  0  0  0  0  0  0  0  0  0  0
   11.5097   13.5092   26.4658 C   0  0  0  0  0  0  0  0  0  0  0  0
   12.6069   12.4671   26.4072 C   0  0  0  0  0  0  0  0  0  0  0  0
   12.4344   11.5862   25.1959 C   0  0  0  0  0  0  0  0  0  0  0  0
   11.0327   10.9757   25.1059 C   0  0  0  0  0  0  0  0  0  0  0  0
    9.9689   12.0177   25.2079 C   0  0  0  0  0  0  0  0  0  0  0  0
    6.4741   14.8316   26.3586 C   0  0  0  0  0  0  0  0  0  0  0  0
    6.3271   15.2893   24.9015 C   0  0  0  0  0  0  0  0  0  0  0  0
    9.8885   15.8315   20.8990 C   0  0  1  0  0  0  0  0  0  0  0  0
   11.0867   16.3860   21.5885 O   0  0  0  0  0  0  0  0  0  0  0  0
  2  1  1  1
  2  3  1  0
  4  3  1  6
  4  5  1  0
  5  6  1  0
  6  7  1  6
  7  8  1  0
  8  9  2  0
  8 10  1  0
 10 11  1  0
 11 12  1  0
 12 13  1  0
 13 14  1  0
 14 15  2  0
 14 16  2  0
 14 17  1  0
 17 18  1  0
 18 19  1  0
 19 20  1  0
 20 21  1  0
 21 22  1  0
 13 23  1  0
 23 24  1  0
  6 25  1  0
 25 26  1  1
 25  2  1  0
 26  4  1  0
 24 10  1  0
 22 17  1  0
M  END
>  <energy_score>  (2452) 
-15.224437

>  <inchikey>  (2452) 
None

>  <smiles>  (2452) 
None

>  <ref_pdb>  (2452) 
A4706a

>  <alias>  (2452) 
None

>  <HIPPO Pose ID>  (2452) 
500096

>  <name>  (2452) 
P500096

>  <HIPPO Compound ID>  (2452) 
314527

>  <ref_mols>  (2452) 
A4706a,A0875a

>  <distance_score>  (2452) 
1.63725

>  <inspiration_score>  (2452) 
None

$$$$
P500097
     RDKit          3D

 26 29  0  0  0  0  0  0  0  0999 V2000
   10.9245   15.2895   18.5088 N   0  0  0  0  0  0  0  0  0  0  0  0
   10.5399   14.8441   19.8275 C   0  0  1  0  0  0  0  0  0  0  0  0
   11.8300   14.4938   20.5656 C   0  0  0  0  0  0  0  0  0  0  0  0
   11.4895   14.9263   21.9646 C   0  0  2  0  0  0  0  0  0  0  0  0
   10.2655   14.1528   22.4522 C   0  0  0  0  0  0  0  0  0  0  0  0
    9.1067   15.0234   21.9485 C   0  0  2  0  0  0  0  0  0  0  0  0
    7.9587   14.2818   21.5041 O   0  0  0  0  0  0  0  0  0  0  0  0
    6.9939   13.7940   22.3305 C   0  0  0  0  0  0  0  0  0  0  0  0
    6.0342   13.1850   21.8670 O   0  0  0  0  0  0  0  0  0  0  0  0
    7.1615   13.9035   23.8227 C   0  0  0  0  0  0  0  0  0  0  0  0
    6.7026   12.6503   24.5880 C   0  0  0  0  0  0  0  0  0  0  0  0
    6.9965   12.7575   26.0874 C   0  0  0  0  0  0  0  0  0  0  0  0
    7.5685   14.0673   26.4402 N   0  0  0  0  0  0  0  0  0  0  0  0
    9.1804   14.5385   26.4263 S   0  0  0  0  0  0  0  0  0  0  0  0
    9.3931   15.2465   27.6631 O   0  0  0  0  0  0  0  0  0  0  0  0
    9.4585   15.2356   25.1940 O   0  0  0  0  0  0  0  0  0  0  0  0
   10.2095   13.2208   26.4540 N   0  0  0  0  0  0  0  0  0  0  0  0
    9.9422   12.0519   25.6294 C   0  0  0  0  0  0  0  0  0  0  0  0
   11.0955   11.4345   24.9056 C   0  0  0  0  0  0  0  0  0  0  0  0
   12.4802   11.7217   25.4302 C   0  0  0  0  0  0  0  0  0  0  0  0
   12.6017   13.1901   25.6435 C   0  0  0  0  0  0  0  0  0  0  0  0
   11.6234   13.6125   26.7207 C   0  0  0  0  0  0  0  0  0  0  0  0
    6.6401   15.1495   25.9883 C   0  0  0  0  0  0  0  0  0  0  0  0
    6.5093   15.1337   24.4531 C   0  0  0  0  0  0  0  0  0  0  0  0
    9.8510   15.7981   20.8430 C   0  0  1  0  0  0  0  0  0  0  0  0
   10.9723   16.2384   21.6633 O   0  0  0  0  0  0  0  0  0  0  0  0
  2  1  1  6
  2  3  1  0
  4  3  1  6
  4  5  1  0
  5  6  1  0
  6  7  1  6
  7  8  1  0
  8  9  2  0
  8 10  1  0
 10 11  1  0
 11 12  1  0
 12 13  1  0
 13 14  1  0
 14 15  2  0
 14 16  2  0
 14 17  1  0
 17 18  1  0
 18 19  1  0
 19 20  1  0
 20 21  1  0
 21 22  1  0
 13 23  1  0
 23 24  1  0
  6 25  1  0
 25 26  1  1
 25  2  1  0
 26  4  1  0
 24 10  1  0
 22 17  1  0
M  END
>  <energy_score>  (2453) 
-39.774566

>  <inchikey>  (2453) 
None

>  <smiles>  (2453) 
None

>  <ref_pdb>  (2453) 
A4706a

>  <alias>  (2453) 
None

>  <HIPPO Pose ID>  (2453) 
500097

>  <name>  (2453) 
P500097

>  <HIPPO Compound ID>  (2453) 
314527

>  <ref_mols>  (2453) 
A4706a,A0875a

>  <distance_score>  (2453) 
1.659504

>  <inspiration_score>  (2453) 
None

$$$$
P500098
     RDKit          3D

 26 29  0  0  0  0  0  0  0  0999 V2000
    9.6637   14.9924   18.5947 N   0  0  0  0  0  0  0  0  0  0  0  0
   10.4578   15.6308   19.5935 C   0  0  2  0  0  0  0  0  0  0  0  0
   11.5918   14.7308   20.0853 C   0  0  0  0  0  0  0  0  0  0  0  0
   11.4063   14.8174   21.5796 C   0  0  2  0  0  0  0  0  0  0  0  0
   10.0921   14.1447   21.9697 C   0  0  0  0  0  0  0  0  0  0  0  0
    9.1128   15.3075   21.9008 C   0  0  2  0  0  0  0  0  0  0  0  0
    7.7030   15.0761   21.8125 O   0  0  0  0  0  0  0  0  0  0  0  0
    7.2458   14.0923   22.6386 C   0  0  0  0  0  0  0  0  0  0  0  0
    7.6400   12.9297   22.5579 O   0  0  0  0  0  0  0  0  0  0  0  0
    6.1179   14.4734   23.6165 C   0  0  0  0  0  0  0  0  0  0  0  0
    5.7242   13.2320   24.4405 C   0  0  0  0  0  0  0  0  0  0  0  0
    6.8236   12.7883   25.4116 C   0  0  0  0  0  0  0  0  0  0  0  0
    7.4300   13.9089   26.1689 N   0  0  0  0  0  0  0  0  0  0  0  0
    9.0524   14.3417   26.0627 S   0  0  0  0  0  0  0  0  0  0  0  0
    9.2940   14.8337   24.7354 O   0  0  0  0  0  0  0  0  0  0  0  0
    9.3196   15.2169   27.1798 O   0  0  0  0  0  0  0  0  0  0  0  0
   10.0898   13.0236   26.2579 N   0  0  0  0  0  0  0  0  0  0  0  0
   11.5033   13.5457   26.2787 C   0  0  0  0  0  0  0  0  0  0  0  0
   12.3845   12.9515   25.1972 C   0  0  0  0  0  0  0  0  0  0  0  0
   12.3741   11.4689   25.4142 C   0  0  0  0  0  0  0  0  0  0  0  0
   10.9709   10.9018   25.1714 C   0  0  0  0  0  0  0  0  0  0  0  0
    9.8371   11.8770   25.3750 C   0  0  0  0  0  0  0  0  0  0  0  0
    6.5556   15.1252   26.0814 C   0  0  0  0  0  0  0  0  0  0  0  0
    6.4084   15.5966   24.6177 C   0  0  0  0  0  0  0  0  0  0  0  0
    9.8602   16.2074   20.9108 C   0  0  1  0  0  0  0  0  0  0  0  0
   11.1219   16.2332   21.6891 O   0  0  0  0  0  0  0  0  0  0  0  0
  2  1  1  1
  2  3  1  0
  4  3  1  6
  4  5  1  0
  5  6  1  0
  6  7  1  6
  7  8  1  0
  8  9  2  0
  8 10  1  0
 10 11  1  0
 11 12  1  0
 12 13  1  0
 13 14  1  0
 14 15  2  0
 14 16  2  0
 14 17  1  0
 17 18  1  0
 18 19  1  0
 19 20  1  0
 20 21  1  0
 21 22  1  0
 13 23  1  0
 23 24  1  0
  6 25  1  0
 25 26  1  1
 25  2  1  0
 26  4  1  0
 24 10  1  0
 22 17  1  0
M  END
>  <energy_score>  (2454) 
-14.138361

>  <inchikey>  (2454) 
None

>  <smiles>  (2454) 
None

>  <ref_pdb>  (2454) 
A4706a

>  <alias>  (2454) 
None

>  <HIPPO Pose ID>  (2454) 
500098

>  <name>  (2454) 
P500098

>  <HIPPO Compound ID>  (2454) 
314527

>  <ref_mols>  (2454) 
A4706a,A0875a

>  <distance_score>  (2454) 
1.731599

>  <inspiration_score>  (2454) 
None

$$$$
P500099
     RDKit          3D

 26 29  0  0  0  0  0  0  0  0999 V2000
   11.1903   15.3024   18.4606 N   0  0  0  0  0  0  0  0  0  0  0  0
   10.6458   14.8277   19.7147 C   0  0  1  0  0  0  0  0  0  0  0  0
   11.7466   14.5876   20.7462 C   0  0  0  0  0  0  0  0  0  0  0  0
   11.1169   15.1088   22.0207 C   0  0  2  0  0  0  0  0  0  0  0  0
    9.8867   14.3165   22.4369 C   0  0  0  0  0  0  0  0  0  0  0  0
    8.8383   14.7026   21.3936 C   0  0  1  0  0  0  0  0  0  0  0  0
    7.6640   15.2169   22.0550 O   0  0  0  0  0  0  0  0  0  0  0  0
    6.8158   14.2369   22.4806 C   0  0  0  0  0  0  0  0  0  0  0  0
    6.8973   13.0603   22.1234 O   0  0  0  0  0  0  0  0  0  0  0  0
    5.7287   14.6644   23.4632 C   0  0  0  0  0  0  0  0  0  0  0  0
    5.5262   13.5146   24.4808 C   0  0  0  0  0  0  0  0  0  0  0  0
    6.8236   13.2101   25.2431 C   0  0  0  0  0  0  0  0  0  0  0  0
    7.6492   14.4353   25.2954 N   0  0  0  0  0  0  0  0  0  0  0  0
    9.0775   14.4658   26.1425 S   0  0  0  0  0  0  0  0  0  0  0  0
    9.6768   15.7509   25.9094 O   0  0  0  0  0  0  0  0  0  0  0  0
    8.8190   14.0314   27.4867 O   0  0  0  0  0  0  0  0  0  0  0  0
   10.1165   13.3613   25.4001 N   0  0  0  0  0  0  0  0  0  0  0  0
    9.8631   11.9587   25.7462 C   0  0  0  0  0  0  0  0  0  0  0  0
   10.8902   11.0580   25.1056 C   0  0  0  0  0  0  0  0  0  0  0  0
   12.3203   11.4905   25.4572 C   0  0  0  0  0  0  0  0  0  0  0  0
   12.5241   12.8955   24.9623 C   0  0  0  0  0  0  0  0  0  0  0  0
   11.5282   13.7879   25.6614 C   0  0  0  0  0  0  0  0  0  0  0  0
    6.8015   15.6320   25.5416 C   0  0  0  0  0  0  0  0  0  0  0  0
    6.0327   15.9337   24.2583 C   0  0  0  0  0  0  0  0  0  0  0  0
    9.6526   15.6914   20.5370 C   0  0  1  0  0  0  0  0  0  0  0  0
   10.5178   16.3118   21.5211 O   0  0  0  0  0  0  0  0  0  0  0  0
  2  1  1  6
  2  3  1  0
  4  3  1  6
  4  5  1  0
  5  6  1  0
  6  7  1  1
  7  8  1  0
  8  9  2  0
  8 10  1  0
 10 11  1  0
 11 12  1  0
 12 13  1  0
 13 14  1  0
 14 15  2  0
 14 16  2  0
 14 17  1  0
 17 18  1  0
 18 19  1  0
 19 20  1  0
 20 21  1  0
 21 22  1  0
 13 23  1  0
 23 24  1  0
  6 25  1  0
 25 26  1  1
 25  2  1  0
 26  4  1  0
 24 10  1  0
 22 17  1  0
M  END
>  <energy_score>  (2455) 
-56.043719

>  <inchikey>  (2455) 
None

>  <smiles>  (2455) 
None

>  <ref_pdb>  (2455) 
A4706a

>  <alias>  (2455) 
None

>  <HIPPO Pose ID>  (2455) 
500099

>  <name>  (2455) 
P500099

>  <HIPPO Compound ID>  (2455) 
314527

>  <ref_mols>  (2455) 
A4706a,A0875a

>  <distance_score>  (2455) 
1.992484

>  <inspiration_score>  (2455) 
None

$$$$
P500100
     RDKit          3D

 26 29  0  0  0  0  0  0  0  0999 V2000
   11.4408   13.7500   21.8906 N   0  0  0  0  0  0  0  0  0  0  0  0
   11.1426   14.8781   21.0521 C   0  0  2  0  0  0  0  0  0  0  0  0
   10.9568   16.1612   21.8470 C   0  0  0  0  0  0  0  0  0  0  0  0
    9.7155   16.7553   21.1909 C   0  0  2  0  0  0  0  0  0  0  0  0
    8.4633   16.0897   21.7252 C   0  0  0  0  0  0  0  0  0  0  0  0
    8.5319   14.7098   21.0800 C   0  0  2  0  0  0  0  0  0  0  0  0
    8.3713   13.7205   22.1035 O   0  0  0  0  0  0  0  0  0  0  0  0
    7.0847   13.6068   22.5533 C   0  0  0  0  0  0  0  0  0  0  0  0
    6.0981   13.9837   21.9303 O   0  0  0  0  0  0  0  0  0  0  0  0
    6.9437   12.9777   23.9352 C   0  0  0  0  0  0  0  0  0  0  0  0
    8.0142   11.9069   24.2342 C   0  0  0  0  0  0  0  0  0  0  0  0
    8.3505   11.7444   25.6946 C   0  0  0  0  0  0  0  0  0  0  0  0
    8.5011   13.0595   26.3118 N   0  0  0  0  0  0  0  0  0  0  0  0
    9.7752   14.0434   25.8057 S   0  0  0  0  0  0  0  0  0  0  0  0
    9.7270   14.2420   24.3808 O   0  0  0  0  0  0  0  0  0  0  0  0
    9.7558   15.1695   26.6958 O   0  0  0  0  0  0  0  0  0  0  0  0
   11.1128   13.0389   26.1598 N   0  0  0  0  0  0  0  0  0  0  0  0
   11.9532   13.6230   27.2285 C   0  0  0  0  0  0  0  0  0  0  0  0
   13.2120   12.8016   27.5157 C   0  0  0  0  0  0  0  0  0  0  0  0
   13.9538   12.2983   26.2950 C   0  0  0  0  0  0  0  0  0  0  0  0
   12.9889   11.7012   25.3034 C   0  0  0  0  0  0  0  0  0  0  0  0
   11.8872   12.6796   24.9484 C   0  0  0  0  0  0  0  0  0  0  0  0
    7.1890   13.7537   26.3583 C   0  0  0  0  0  0  0  0  0  0  0  0
    6.7648   14.1237   24.9499 C   0  0  0  0  0  0  0  0  0  0  0  0
    9.8513   14.8113   20.2758 C   0  0  1  0  0  0  0  0  0  0  0  0
    9.7882   16.1998   19.8602 O   0  0  0  0  0  0  0  0  0  0  0  0
  2  1  1  1
  2  3  1  0
  4  3  1  1
  4  5  1  0
  5  6  1  0
  6  7  1  1
  7  8  1  0
  8  9  2  0
  8 10  1  0
 10 11  1  0
 11 12  1  0
 12 13  1  0
 13 14  1  0
 14 15  2  0
 14 16  2  0
 14 17  1  0
 17 18  1  0
 18 19  1  0
 19 20  1  0
 20 21  1  0
 21 22  1  0
 13 23  1  0
 23 24  1  0
  6 25  1  0
 25 26  1  1
 25  2  1  0
 26  4  1  0
 24 10  1  0
 22 17  1  0
M  END
>  <energy_score>  (2456) 
-60.801562

>  <inchikey>  (2456) 
None

>  <smiles>  (2456) 
None

>  <ref_pdb>  (2456) 
A4706a

>  <alias>  (2456) 
None

>  <HIPPO Pose ID>  (2456) 
500100

>  <name>  (2456) 
P500100

>  <HIPPO Compound ID>  (2456) 
314527

>  <ref_mols>  (2456) 
A4706a,A0875a

>  <distance_score>  (2456) 
1.98108

>  <inspiration_score>  (2456) 
None

$$$$
P500101
     RDKit          3D

 26 28  0  0  0  0  0  0  0  0999 V2000
    9.9926   11.9178   22.4399 C   0  0  0  0  0  0  0  0  0  0  0  0
    9.7991   13.0865   22.2756 C   0  0  0  0  0  0  0  0  0  0  0  0
    9.2863   14.4589   22.2053 C   0  0  2  0  0  0  0  0  0  0  0  0
    8.0663   14.2279   22.9484 O   0  0  0  0  0  0  0  0  0  0  0  0
    7.1112   15.0621   23.3717 C   0  0  0  0  0  0  0  0  0  0  0  0
    6.9837   16.2264   23.0399 O   0  0  0  0  0  0  0  0  0  0  0  0
    6.1249   14.3044   24.2855 C   0  0  0  0  0  0  0  0  0  0  0  0
    6.5148   12.8603   24.6681 C   0  0  0  0  0  0  0  0  0  0  0  0
    6.8605   12.6583   26.1320 C   0  0  0  0  0  0  0  0  0  0  0  0
    7.5478   13.8028   26.7307 N   0  0  0  0  0  0  0  0  0  0  0  0
    9.1212   14.2984   26.4476 S   0  0  0  0  0  0  0  0  0  0  0  0
    9.4890   15.1233   27.5718 O   0  0  0  0  0  0  0  0  0  0  0  0
    9.1548   14.8828   25.1379 O   0  0  0  0  0  0  0  0  0  0  0  0
   10.2275   13.0299   26.4457 N   0  0  0  0  0  0  0  0  0  0  0  0
   11.6116   13.5996   26.3081 C   0  0  0  0  0  0  0  0  0  0  0  0
   12.4514   12.9553   25.2233 C   0  0  0  0  0  0  0  0  0  0  0  0
   12.4623   11.4846   25.4932 C   0  0  0  0  0  0  0  0  0  0  0  0
   11.0590   10.9203   25.2965 C   0  0  0  0  0  0  0  0  0  0  0  0
    9.9060   11.8378   25.6672 C   0  0  0  0  0  0  0  0  0  0  0  0
    6.6201   14.9847   26.7661 C   0  0  0  0  0  0  0  0  0  0  0  0
    5.7171   15.1014   25.5290 C   0  0  0  0  0  0  0  0  0  0  0  0
    9.0010   14.9334   20.7887 C   0  0  0  0  0  0  0  0  0  0  0  0
   10.2465   15.0401   19.9080 C   0  0  0  0  0  0  0  0  0  0  0  0
   11.5228   14.9925   20.7268 C   0  0  0  0  0  0  0  0  0  0  0  0
   11.3973   15.8084   21.8791 O   0  0  0  0  0  0  0  0  0  0  0  0
   10.3823   15.3655   22.7931 C   0  0  0  0  0  0  0  0  0  0  0  0
  1  2  3  0
  3  2  1  6
  3  4  1  0
  4  5  1  0
  5  6  2  0
  5  7  1  0
  7  8  1  0
  8  9  1  0
  9 10  1  0
 10 11  1  0
 11 12  2  0
 11 13  2  0
 11 14  1  0
 14 15  1  0
 15 16  1  0
 16 17  1  0
 17 18  1  0
 18 19  1  0
 10 20  1  0
 20 21  1  0
  3 22  1  0
 22 23  1  0
 23 24  1  0
 24 25  1  0
 25 26  1  0
 26  3  1  0
 21  7  1  0
 19 14  1  0
M  END
>  <energy_score>  (2457) 
-17.31357

>  <inchikey>  (2457) 
None

>  <smiles>  (2457) 
None

>  <ref_pdb>  (2457) 
A4706a

>  <alias>  (2457) 
None

>  <HIPPO Pose ID>  (2457) 
500101

>  <name>  (2457) 
P500101

>  <HIPPO Compound ID>  (2457) 
314528

>  <ref_mols>  (2457) 
A4706a,A0875a

>  <distance_score>  (2457) 
1.871222

>  <inspiration_score>  (2457) 
None

$$$$
P500102
     RDKit          3D

 26 28  0  0  0  0  0  0  0  0999 V2000
    8.5405   18.0615   20.8405 C   0  0  0  0  0  0  0  0  0  0  0  0
    8.7169   16.9738   21.3172 C   0  0  0  0  0  0  0  0  0  0  0  0
    9.0082   15.6435   21.8693 C   0  0  1  0  0  0  0  0  0  0  0  0
    8.0961   15.2802   22.9510 O   0  0  0  0  0  0  0  0  0  0  0  0
    6.8546   14.7967   22.7244 C   0  0  0  0  0  0  0  0  0  0  0  0
    6.2958   14.7179   21.6393 O   0  0  0  0  0  0  0  0  0  0  0  0
    6.2232   14.2314   23.9941 C   0  0  0  0  0  0  0  0  0  0  0  0
    6.8392   12.8318   24.1929 C   0  0  0  0  0  0  0  0  0  0  0  0
    7.1867   12.4114   25.5954 C   0  0  0  0  0  0  0  0  0  0  0  0
    7.6891   13.5478   26.3277 N   0  0  0  0  0  0  0  0  0  0  0  0
    9.2248   14.1604   26.2847 S   0  0  0  0  0  0  0  0  0  0  0  0
    9.8006   13.9646   27.5912 O   0  0  0  0  0  0  0  0  0  0  0  0
    9.1357   15.4969   25.7482 O   0  0  0  0  0  0  0  0  0  0  0  0
   10.2292   13.3546   25.2185 N   0  0  0  0  0  0  0  0  0  0  0  0
   11.5059   14.1223   25.2240 C   0  0  0  0  0  0  0  0  0  0  0  0
   12.5178   13.4579   24.3435 C   0  0  0  0  0  0  0  0  0  0  0  0
   13.0471   12.2474   25.0609 C   0  0  0  0  0  0  0  0  0  0  0  0
   11.8951   11.5430   25.7150 C   0  0  0  0  0  0  0  0  0  0  0  0
   10.4682   11.9068   25.2872 C   0  0  0  0  0  0  0  0  0  0  0  0
    6.6159   14.5520   26.5231 C   0  0  0  0  0  0  0  0  0  0  0  0
    6.2539   15.1952   25.1869 C   0  0  0  0  0  0  0  0  0  0  0  0
    9.0386   14.5955   20.7580 C   0  0  0  0  0  0  0  0  0  0  0  0
   10.4375   14.2632   20.2845 C   0  0  0  0  0  0  0  0  0  0  0  0
   11.3538   15.4249   20.3315 C   0  0  0  0  0  0  0  0  0  0  0  0
   11.5079   15.9275   21.6480 O   0  0  0  0  0  0  0  0  0  0  0  0
   10.4081   15.6291   22.5049 C   0  0  0  0  0  0  0  0  0  0  0  0
  1  2  3  0
  3  2  1  6
  3  4  1  0
  4  5  1  0
  5  6  2  0
  5  7  1  0
  7  8  1  0
  8  9  1  0
  9 10  1  0
 10 11  1  0
 11 12  2  0
 11 13  2  0
 11 14  1  0
 14 15  1  0
 15 16  1  0
 16 17  1  0
 17 18  1  0
 18 19  1  0
 10 20  1  0
 20 21  1  0
  3 22  1  0
 22 23  1  0
 23 24  1  0
 24 25  1  0
 25 26  1  0
 26  3  1  0
 21  7  1  0
 19 14  1  0
M  END
>  <energy_score>  (2458) 
-15.118615

>  <inchikey>  (2458) 
None

>  <smiles>  (2458) 
None

>  <ref_pdb>  (2458) 
A4706a

>  <alias>  (2458) 
None

>  <HIPPO Pose ID>  (2458) 
500102

>  <name>  (2458) 
P500102

>  <HIPPO Compound ID>  (2458) 
314528

>  <ref_mols>  (2458) 
A4706a,A0875a

>  <distance_score>  (2458) 
1.885847

>  <inspiration_score>  (2458) 
None

$$$$
P500103
     RDKit          3D

 26 28  0  0  0  0  0  0  0  0999 V2000
    6.7758   13.0826   22.5429 O   0  0  0  0  0  0  0  0  0  0  0  0
    7.0313   13.9195   23.4081 C   0  0  0  0  0  0  0  0  0  0  0  0
    7.9701   14.9014   23.2706 O   0  0  0  0  0  0  0  0  0  0  0  0
    8.9721   14.6128   22.2918 C   0  0  2  0  0  0  0  0  0  0  0  0
   10.3537   15.2147   22.5729 C   0  0  0  0  0  0  0  0  0  0  0  0
   10.9808   15.4357   21.3020 O   0  0  0  0  0  0  0  0  0  0  0  0
   10.0593   14.9115   20.3288 C   0  0  2  0  0  0  0  0  0  0  0  0
   10.2251   15.4528   18.9418 C   0  0  0  0  0  0  0  0  0  0  0  0
   11.4626   15.1746   18.4764 F   0  0  0  0  0  0  0  0  0  0  0  0
   10.0430   16.7882   18.9546 F   0  0  0  0  0  0  0  0  0  0  0  0
    8.6941   15.1578   20.9334 C   0  0  0  0  0  0  0  0  0  0  0  0
    6.3548   13.8963   24.7862 C   0  0  0  0  0  0  0  0  0  0  0  0
    6.3618   12.4673   25.3727 C   0  0  0  0  0  0  0  0  0  0  0  0
    7.6322   12.0173   26.1110 C   0  0  0  0  0  0  0  0  0  0  0  0
    8.4780   13.1645   26.5554 N   0  0  0  0  0  0  0  0  0  0  0  0
    9.7287   13.5736   25.5153 S   0  0  0  0  0  0  0  0  0  0  0  0
    9.4142   12.9317   24.2680 O   0  0  0  0  0  0  0  0  0  0  0  0
    9.9783   14.9886   25.6223 O   0  0  0  0  0  0  0  0  0  0  0  0
   11.1307   12.7845   26.0431 N   0  0  0  0  0  0  0  0  0  0  0  0
   11.8469   13.5135   27.1198 C   0  0  0  0  0  0  0  0  0  0  0  0
   13.1467   12.7905   27.5145 C   0  0  0  0  0  0  0  0  0  0  0  0
   14.0102   12.2961   26.3620 C   0  0  0  0  0  0  0  0  0  0  0  0
   13.1625   11.6555   25.2925 C   0  0  0  0  0  0  0  0  0  0  0  0
   12.0637   12.6116   24.8805 C   0  0  0  0  0  0  0  0  0  0  0  0
    7.6180   14.2970   26.9938 C   0  0  0  0  0  0  0  0  0  0  0  0
    6.8438   14.9156   25.8263 C   0  0  0  0  0  0  0  0  0  0  0  0
  1  2  2  0
  2  3  1  0
  4  3  1  1
  4  5  1  0
  5  6  1  0
  6  7  1  0
  7  8  1  6
  8  9  1  0
  8 10  1  0
  7 11  1  0
  2 12  1  0
 12 13  1  0
 13 14  1  0
 14 15  1  0
 15 16  1  0
 16 17  2  0
 16 18  2  0
 16 19  1  0
 19 20  1  0
 20 21  1  0
 21 22  1  0
 22 23  1  0
 23 24  1  0
 15 25  1  0
 25 26  1  0
 11  4  1  0
 26 12  1  0
 24 19  1  0
M  END
>  <energy_score>  (2459) 
-36.987941

>  <inchikey>  (2459) 
None

>  <smiles>  (2459) 
None

>  <ref_pdb>  (2459) 
A4706a

>  <alias>  (2459) 
None

>  <HIPPO Pose ID>  (2459) 
500103

>  <name>  (2459) 
P500103

>  <HIPPO Compound ID>  (2459) 
314529

>  <ref_mols>  (2459) 
A0875a,A4706a

>  <distance_score>  (2459) 
1.443051

>  <inspiration_score>  (2459) 
None

$$$$
P500104
     RDKit          3D

 26 28  0  0  0  0  0  0  0  0999 V2000
    8.3037   12.9353   22.6008 O   0  0  0  0  0  0  0  0  0  0  0  0
    7.6218   13.7900   23.1502 C   0  0  0  0  0  0  0  0  0  0  0  0
    7.8205   15.1219   23.0209 O   0  0  0  0  0  0  0  0  0  0  0  0
    8.9098   15.6362   22.2240 C   0  0  1  0  0  0  0  0  0  0  0  0
   10.3348   15.3597   22.6830 C   0  0  0  0  0  0  0  0  0  0  0  0
   11.1321   15.3387   21.4936 O   0  0  0  0  0  0  0  0  0  0  0  0
   10.2953   14.6810   20.5278 C   0  0  2  0  0  0  0  0  0  0  0  0
   10.7309   14.8688   19.0815 C   0  0  0  0  0  0  0  0  0  0  0  0
   11.9907   14.4261   18.8905 F   0  0  0  0  0  0  0  0  0  0  0  0
   10.6801   16.1716   18.7288 F   0  0  0  0  0  0  0  0  0  0  0  0
    8.9087   15.2287   20.7776 C   0  0  0  0  0  0  0  0  0  0  0  0
    6.4062   13.4196   24.0154 C   0  0  0  0  0  0  0  0  0  0  0  0
    6.7246   12.1663   24.8857 C   0  0  0  0  0  0  0  0  0  0  0  0
    7.5530   12.4968   26.1334 C   0  0  0  0  0  0  0  0  0  0  0  0
    8.1011   13.8214   25.8869 N   0  0  0  0  0  0  0  0  0  0  0  0
    9.5506   14.3307   26.4657 S   0  0  0  0  0  0  0  0  0  0  0  0
   10.0403   15.3180   25.5366 O   0  0  0  0  0  0  0  0  0  0  0  0
    9.3454   14.6521   27.8540 O   0  0  0  0  0  0  0  0  0  0  0  0
   10.6253   13.0219   26.4142 N   0  0  0  0  0  0  0  0  0  0  0  0
   10.8582   12.4275   25.0723 C   0  0  0  0  0  0  0  0  0  0  0  0
   12.2323   12.8070   24.5524 C   0  0  0  0  0  0  0  0  0  0  0  0
   13.3035   12.1904   25.4461 C   0  0  0  0  0  0  0  0  0  0  0  0
   13.0621   12.5505   26.9000 C   0  0  0  0  0  0  0  0  0  0  0  0
   11.8841   13.4867   27.0905 C   0  0  0  0  0  0  0  0  0  0  0  0
    7.0457   14.8741   25.9587 C   0  0  0  0  0  0  0  0  0  0  0  0
    5.9577   14.5479   24.9435 C   0  0  0  0  0  0  0  0  0  0  0  0
  1  2  2  0
  2  3  1  0
  4  3  1  1
  4  5  1  0
  5  6  1  0
  6  7  1  0
  7  8  1  6
  8  9  1  0
  8 10  1  0
  7 11  1  0
  2 12  1  0
 12 13  1  0
 13 14  1  0
 14 15  1  0
 15 16  1  0
 16 17  2  0
 16 18  2  0
 16 19  1  0
 19 20  1  0
 20 21  1  0
 21 22  1  0
 22 23  1  0
 23 24  1  0
 15 25  1  0
 25 26  1  0
 11  4  1  0
 26 12  1  0
 24 19  1  0
M  END
>  <energy_score>  (2460) 
-45.705027

>  <inchikey>  (2460) 
None

>  <smiles>  (2460) 
None

>  <ref_pdb>  (2460) 
A4706a

>  <alias>  (2460) 
None

>  <HIPPO Pose ID>  (2460) 
500104

>  <name>  (2460) 
P500104

>  <HIPPO Compound ID>  (2460) 
314529

>  <ref_mols>  (2460) 
A4706a,A0875a

>  <distance_score>  (2460) 
1.528548

>  <inspiration_score>  (2460) 
None

$$$$
P500105
     RDKit          3D

 26 28  0  0  0  0  0  0  0  0999 V2000
    5.5087   15.3513   22.2600 O   0  0  0  0  0  0  0  0  0  0  0  0
    6.5852   15.2561   22.8315 C   0  0  0  0  0  0  0  0  0  0  0  0
    7.7593   15.7903   22.3449 O   0  0  0  0  0  0  0  0  0  0  0  0
    8.9115   14.9224   22.2087 C   0  0  2  0  0  0  0  0  0  0  0  0
   10.3084   15.5070   22.4271 C   0  0  0  0  0  0  0  0  0  0  0  0
   10.8226   15.9996   21.1885 O   0  0  0  0  0  0  0  0  0  0  0  0
    9.8107   15.7383   20.2234 C   0  0  1  0  0  0  0  0  0  0  0  0
   10.3182   15.4314   18.8389 C   0  0  0  0  0  0  0  0  0  0  0  0
   10.8627   14.1934   18.7578 F   0  0  0  0  0  0  0  0  0  0  0  0
    9.2160   15.4421   18.0437 F   0  0  0  0  0  0  0  0  0  0  0  0
    8.9877   14.5912   20.7643 C   0  0  0  0  0  0  0  0  0  0  0  0
    6.7632   14.5759   24.1630 C   0  0  0  0  0  0  0  0  0  0  0  0
    6.8234   13.0474   24.1097 C   0  0  0  0  0  0  0  0  0  0  0  0
    7.2042   12.4400   25.4567 C   0  0  0  0  0  0  0  0  0  0  0  0
    7.7017   13.4727   26.3742 N   0  0  0  0  0  0  0  0  0  0  0  0
    9.2869   14.0707   26.3065 S   0  0  0  0  0  0  0  0  0  0  0  0
    9.5732   14.7495   25.0709 O   0  0  0  0  0  0  0  0  0  0  0  0
    9.4700   14.7670   27.5543 O   0  0  0  0  0  0  0  0  0  0  0  0
   10.2685   12.6934   26.3039 N   0  0  0  0  0  0  0  0  0  0  0  0
   10.5788   12.1005   24.9621 C   0  0  0  0  0  0  0  0  0  0  0  0
   11.7945   12.7749   24.3349 C   0  0  0  0  0  0  0  0  0  0  0  0
   12.9858   12.6648   25.2533 C   0  0  0  0  0  0  0  0  0  0  0  0
   12.6109   13.4848   26.4476 C   0  0  0  0  0  0  0  0  0  0  0  0
   11.4690   12.8974   27.1455 C   0  0  0  0  0  0  0  0  0  0  0  0
    6.6380   14.5182   26.6461 C   0  0  0  0  0  0  0  0  0  0  0  0
    5.9193   14.9789   25.3555 C   0  0  0  0  0  0  0  0  0  0  0  0
  1  2  2  0
  2  3  1  0
  4  3  1  6
  4  5  1  0
  5  6  1  0
  6  7  1  0
  7  8  1  6
  8  9  1  0
  8 10  1  0
  7 11  1  0
  2 12  1  0
 12 13  1  0
 13 14  1  0
 14 15  1  0
 15 16  1  0
 16 17  2  0
 16 18  2  0
 16 19  1  0
 19 20  1  0
 20 21  1  0
 21 22  1  0
 22 23  1  0
 23 24  1  0
 15 25  1  0
 25 26  1  0
 11  4  1  0
 26 12  1  0
 24 19  1  0
M  END
>  <energy_score>  (2461) 
-31.035005

>  <inchikey>  (2461) 
None

>  <smiles>  (2461) 
None

>  <ref_pdb>  (2461) 
A4706a

>  <alias>  (2461) 
None

>  <HIPPO Pose ID>  (2461) 
500105

>  <name>  (2461) 
P500105

>  <HIPPO Compound ID>  (2461) 
314529

>  <ref_mols>  (2461) 
A0875a,A4706a

>  <distance_score>  (2461) 
1.678412

>  <inspiration_score>  (2461) 
None

$$$$
P500106
     RDKit          3D

 26 28  0  0  0  0  0  0  0  0999 V2000
    5.9691   13.1248   22.1770 O   0  0  0  0  0  0  0  0  0  0  0  0
    7.0444   13.5894   22.5392 C   0  0  0  0  0  0  0  0  0  0  0  0
    7.8937   14.1224   21.6393 O   0  0  0  0  0  0  0  0  0  0  0  0
    9.0250   14.9719   21.9621 C   0  0  1  0  0  0  0  0  0  0  0  0
   10.2761   14.2021   22.3722 C   0  0  0  0  0  0  0  0  0  0  0  0
   11.1933   14.1717   21.2916 O   0  0  0  0  0  0  0  0  0  0  0  0
   10.8902   15.3022   20.4836 C   0  0  1  0  0  0  0  0  0  0  0  0
   11.2252   15.0682   19.0228 C   0  0  0  0  0  0  0  0  0  0  0  0
   10.5494   14.0134   18.5199 F   0  0  0  0  0  0  0  0  0  0  0  0
   10.8434   16.1478   18.3041 F   0  0  0  0  0  0  0  0  0  0  0  0
    9.4266   15.6361   20.6759 C   0  0  0  0  0  0  0  0  0  0  0  0
    7.4887   13.4781   23.9616 C   0  0  0  0  0  0  0  0  0  0  0  0
    7.5104   12.0326   24.4553 C   0  0  0  0  0  0  0  0  0  0  0  0
    8.2035   11.9172   25.8035 C   0  0  0  0  0  0  0  0  0  0  0  0
    8.2699   13.2175   26.4808 N   0  0  0  0  0  0  0  0  0  0  0  0
    9.6343   14.1995   26.4751 S   0  0  0  0  0  0  0  0  0  0  0  0
    9.5653   14.9075   27.7271 O   0  0  0  0  0  0  0  0  0  0  0  0
    9.7314   14.9411   25.2418 O   0  0  0  0  0  0  0  0  0  0  0  0
   10.9664   13.1099   26.5352 N   0  0  0  0  0  0  0  0  0  0  0  0
   12.0164   13.6896   27.4251 C   0  0  0  0  0  0  0  0  0  0  0  0
   13.2569   12.8032   27.5282 C   0  0  0  0  0  0  0  0  0  0  0  0
   13.8080   12.3320   26.2032 C   0  0  0  0  0  0  0  0  0  0  0  0
   12.7006   11.8399   25.3068 C   0  0  0  0  0  0  0  0  0  0  0  0
   11.5440   12.8148   25.1904 C   0  0  0  0  0  0  0  0  0  0  0  0
    6.9808   13.9658   26.3834 C   0  0  0  0  0  0  0  0  0  0  0  0
    6.7163   14.3722   24.9291 C   0  0  0  0  0  0  0  0  0  0  0  0
  1  2  2  0
  2  3  1  0
  4  3  1  6
  4  5  1  0
  5  6  1  0
  6  7  1  0
  7  8  1  6
  8  9  1  0
  8 10  1  0
  7 11  1  0
  2 12  1  0
 12 13  1  0
 13 14  1  0
 14 15  1  0
 15 16  1  0
 16 17  2  0
 16 18  2  0
 16 19  1  0
 19 20  1  0
 20 21  1  0
 21 22  1  0
 22 23  1  0
 23 24  1  0
 15 25  1  0
 25 26  1  0
 11  4  1  0
 26 12  1  0
 24 19  1  0
M  END
>  <energy_score>  (2462) 
-67.941401

>  <inchikey>  (2462) 
None

>  <smiles>  (2462) 
None

>  <ref_pdb>  (2462) 
A4706a

>  <alias>  (2462) 
None

>  <HIPPO Pose ID>  (2462) 
500106

>  <name>  (2462) 
P500106

>  <HIPPO Compound ID>  (2462) 
314529

>  <ref_mols>  (2462) 
A4706a,A0875a

>  <distance_score>  (2462) 
1.667263

>  <inspiration_score>  (2462) 
None

$$$$
P500107
     RDKit          3D

 26 29  0  0  0  0  0  0  0  0999 V2000
    7.1426   12.9150   22.4506 O   0  0  0  0  0  0  0  0  0  0  0  0
    6.8620   13.8703   23.1665 C   0  0  0  0  0  0  0  0  0  0  0  0
    7.3949   15.1098   23.0501 O   0  0  0  0  0  0  0  0  0  0  0  0
    8.3720   15.4514   22.0279 C   0  0  2  0  0  0  0  0  0  0  0  0
    8.3669   14.6057   20.7643 C   0  0  0  0  0  0  0  0  0  0  0  0
    9.1042   15.1822   19.6933 O   0  0  0  0  0  0  0  0  0  0  0  0
   10.2124   15.9559   20.1042 C   0  0  0  0  0  0  0  0  0  0  0  0
   10.7945   15.4059   21.3682 C   0  0  0  0  0  0  0  0  0  0  0  0
   12.2599   15.5307   21.6729 C   0  0  0  0  0  0  0  0  0  0  0  0
   11.7245   14.2366   21.1630 C   0  0  0  0  0  0  0  0  0  0  0  0
    9.8151   15.3304   22.5183 C   0  0  0  0  0  0  0  0  0  0  0  0
    5.8334   13.7218   24.2905 C   0  0  0  0  0  0  0  0  0  0  0  0
    6.1716   12.4639   25.1304 C   0  0  0  0  0  0  0  0  0  0  0  0
    7.2614   12.7244   26.1692 C   0  0  0  0  0  0  0  0  0  0  0  0
    7.9203   13.9833   25.7927 N   0  0  0  0  0  0  0  0  0  0  0  0
    9.5130   14.2288   26.1388 S   0  0  0  0  0  0  0  0  0  0  0  0
    9.8375   13.5809   27.3778 O   0  0  0  0  0  0  0  0  0  0  0  0
    9.8161   15.6266   25.9536 O   0  0  0  0  0  0  0  0  0  0  0  0
   10.3909   13.4715   24.9638 N   0  0  0  0  0  0  0  0  0  0  0  0
   10.0684   12.1849   24.3492 C   0  0  0  0  0  0  0  0  0  0  0  0
   10.7111   11.0716   25.1371 C   0  0  0  0  0  0  0  0  0  0  0  0
   12.1726   11.3838   25.5252 C   0  0  0  0  0  0  0  0  0  0  0  0
   12.7029   12.6067   24.8317 C   0  0  0  0  0  0  0  0  0  0  0  0
   11.8223   13.7821   25.1133 C   0  0  0  0  0  0  0  0  0  0  0  0
    7.0196   15.1421   26.0165 C   0  0  0  0  0  0  0  0  0  0  0  0
    5.7348   14.9314   25.2195 C   0  0  0  0  0  0  0  0  0  0  0  0
  1  2  2  0
  2  3  1  0
  4  3  1  1
  4  5  1  0
  5  6  1  0
  6  7  1  0
  7  8  1  0
  8  9  1  0
  9 10  1  0
  8 11  1  0
  2 12  1  0
 12 13  1  0
 13 14  1  0
 14 15  1  0
 15 16  1  0
 16 17  2  0
 16 18  2  0
 16 19  1  0
 19 20  1  0
 20 21  1  0
 21 22  1  0
 22 23  1  0
 23 24  1  0
 15 25  1  0
 25 26  1  0
 11  4  1  0
 26 12  1  0
 10  8  1  0
 24 19  1  0
M  END
>  <energy_score>  (2463) 
-49.111526

>  <inchikey>  (2463) 
None

>  <smiles>  (2463) 
None

>  <ref_pdb>  (2463) 
A4706a

>  <alias>  (2463) 
None

>  <HIPPO Pose ID>  (2463) 
500107

>  <name>  (2463) 
P500107

>  <HIPPO Compound ID>  (2463) 
314530

>  <ref_mols>  (2463) 
A4706a,A0875a

>  <distance_score>  (2463) 
1.925344

>  <inspiration_score>  (2463) 
None

$$$$
P500108
     RDKit          3D

 26 28  0  0  0  0  0  0  0  0999 V2000
    9.8843   15.7093   18.4241 N   0  0  0  0  0  0  0  0  0  0  0  0
   10.5168   15.2088   19.6248 C   0  0  0  0  0  0  0  0  0  0  0  0
    9.7851   15.6366   20.9240 C   0  0  2  0  0  0  0  0  0  0  0  0
   10.7370   16.1855   21.8346 O   0  0  0  0  0  0  0  0  0  0  0  0
   11.6237   15.2887   22.4711 C   0  0  0  0  0  0  0  0  0  0  0  0
   11.3702   13.8285   22.2034 C   0  0  0  0  0  0  0  0  0  0  0  0
    9.8945   13.5462   22.3464 C   0  0  0  0  0  0  0  0  0  0  0  0
    8.9853   14.4744   21.5396 C   0  0  1  0  0  0  0  0  0  0  0  0
    7.9196   14.9180   22.4341 O   0  0  0  0  0  0  0  0  0  0  0  0
    6.9615   13.9861   22.6748 C   0  0  0  0  0  0  0  0  0  0  0  0
    6.8406   12.9535   22.0193 O   0  0  0  0  0  0  0  0  0  0  0  0
    6.0591   14.2075   23.8759 C   0  0  0  0  0  0  0  0  0  0  0  0
    6.1562   12.9688   24.8019 C   0  0  0  0  0  0  0  0  0  0  0  0
    7.5658   12.7735   25.3815 C   0  0  0  0  0  0  0  0  0  0  0  0
    8.2758   14.0658   25.3663 N   0  0  0  0  0  0  0  0  0  0  0  0
    9.7447   14.2444   26.1128 S   0  0  0  0  0  0  0  0  0  0  0  0
   10.2256   15.5539   25.7533 O   0  0  0  0  0  0  0  0  0  0  0  0
    9.5398   13.9088   27.4975 O   0  0  0  0  0  0  0  0  0  0  0  0
   10.9388   13.2197   25.5443 N   0  0  0  0  0  0  0  0  0  0  0  0
   10.7399   11.8089   25.2177 C   0  0  0  0  0  0  0  0  0  0  0  0
   12.0274   11.0147   25.4682 C   0  0  0  0  0  0  0  0  0  0  0  0
   13.3746   11.6067   25.1697 C   0  0  0  0  0  0  0  0  0  0  0  0
   13.3870   13.0531   25.5898 C   0  0  0  0  0  0  0  0  0  0  0  0
   12.1512   13.4470   26.3846 C   0  0  0  0  0  0  0  0  0  0  0  0
    7.3486   15.1706   25.7999 C   0  0  0  0  0  0  0  0  0  0  0  0
    6.3577   15.4587   24.6856 C   0  0  0  0  0  0  0  0  0  0  0  0
  1  2  1  0
  3  2  1  6
  3  4  1  0
  4  5  1  0
  5  6  1  0
  6  7  1  0
  7  8  1  0
  8  9  1  1
  9 10  1  0
 10 11  2  0
 10 12  1  0
 12 13  1  0
 13 14  1  0
 14 15  1  0
 15 16  1  0
 16 17  2  0
 16 18  2  0
 16 19  1  0
 19 20  1  0
 20 21  1  0
 21 22  1  0
 22 23  1  0
 23 24  1  0
 15 25  1  0
 25 26  1  0
  8  3  1  0
 26 12  1  0
 24 19  1  0
M  END
>  <energy_score>  (2464) 
-38.481661

>  <inchikey>  (2464) 
None

>  <smiles>  (2464) 
None

>  <ref_pdb>  (2464) 
A4706a

>  <alias>  (2464) 
None

>  <HIPPO Pose ID>  (2464) 
500108

>  <name>  (2464) 
P500108

>  <HIPPO Compound ID>  (2464) 
314531

>  <ref_mols>  (2464) 
A4706a,A0875a

>  <distance_score>  (2464) 
1.523354

>  <inspiration_score>  (2464) 
None

$$$$
P500109
     RDKit          3D

 26 28  0  0  0  0  0  0  0  0999 V2000
   10.5982   14.9176   18.5823 N   0  0  0  0  0  0  0  0  0  0  0  0
    9.9289   15.7037   19.6164 C   0  0  0  0  0  0  0  0  0  0  0  0
    9.2782   14.8592   20.7326 C   0  0  1  0  0  0  0  0  0  0  0  0
   10.1510   13.7814   21.0460 O   0  0  0  0  0  0  0  0  0  0  0  0
   11.4831   14.1376   21.3931 C   0  0  0  0  0  0  0  0  0  0  0  0
   11.5191   15.3177   22.3216 C   0  0  0  0  0  0  0  0  0  0  0  0
   10.1782   15.4212   23.0018 C   0  0  0  0  0  0  0  0  0  0  0  0
    8.9937   15.5952   22.0459 C   0  0  2  0  0  0  0  0  0  0  0  0
    7.7555   15.1714   22.7370 O   0  0  0  0  0  0  0  0  0  0  0  0
    7.5191   13.8714   23.0651 C   0  0  0  0  0  0  0  0  0  0  0  0
    8.1570   12.9086   22.6626 O   0  0  0  0  0  0  0  0  0  0  0  0
    6.3125   13.6622   23.9859 C   0  0  0  0  0  0  0  0  0  0  0  0
    6.5349   12.4132   24.8920 C   0  0  0  0  0  0  0  0  0  0  0  0
    7.4776   12.6723   26.0771 C   0  0  0  0  0  0  0  0  0  0  0  0
    8.1580   13.9414   25.8093 N   0  0  0  0  0  0  0  0  0  0  0  0
    9.5691   14.3305   26.5858 S   0  0  0  0  0  0  0  0  0  0  0  0
   10.1778   15.4047   25.8432 O   0  0  0  0  0  0  0  0  0  0  0  0
    9.2394   14.5131   27.9759 O   0  0  0  0  0  0  0  0  0  0  0  0
   10.6356   13.0128   26.5039 N   0  0  0  0  0  0  0  0  0  0  0  0
   10.8623   12.4087   25.1673 C   0  0  0  0  0  0  0  0  0  0  0  0
   12.2572   12.7331   24.6722 C   0  0  0  0  0  0  0  0  0  0  0  0
   13.3063   12.0992   25.5675 C   0  0  0  0  0  0  0  0  0  0  0  0
   13.0849   12.5237   27.0068 C   0  0  0  0  0  0  0  0  0  0  0  0
   11.9059   13.4682   27.1794 C   0  0  0  0  0  0  0  0  0  0  0  0
    7.1872   15.0836   25.8643 C   0  0  0  0  0  0  0  0  0  0  0  0
    6.0375   14.8528   24.8930 C   0  0  0  0  0  0  0  0  0  0  0  0
  1  2  1  0
  3  2  1  6
  3  4  1  0
  4  5  1  0
  5  6  1  0
  6  7  1  0
  7  8  1  0
  8  9  1  1
  9 10  1  0
 10 11  2  0
 10 12  1  0
 12 13  1  0
 13 14  1  0
 14 15  1  0
 15 16  1  0
 16 17  2  0
 16 18  2  0
 16 19  1  0
 19 20  1  0
 20 21  1  0
 21 22  1  0
 22 23  1  0
 23 24  1  0
 15 25  1  0
 25 26  1  0
  8  3  1  0
 26 12  1  0
 24 19  1  0
M  END
>  <energy_score>  (2465) 
-36.548992

>  <inchikey>  (2465) 
None

>  <smiles>  (2465) 
None

>  <ref_pdb>  (2465) 
A4706a

>  <alias>  (2465) 
None

>  <HIPPO Pose ID>  (2465) 
500109

>  <name>  (2465) 
P500109

>  <HIPPO Compound ID>  (2465) 
314531

>  <ref_mols>  (2465) 
A4706a,A0875a

>  <distance_score>  (2465) 
1.558534

>  <inspiration_score>  (2465) 
None

$$$$
P500110
     RDKit          3D

 26 28  0  0  0  0  0  0  0  0999 V2000
   10.9769   14.6517   18.8988 N   0  0  0  0  0  0  0  0  0  0  0  0
   10.0077   15.7251   19.1395 C   0  0  0  0  0  0  0  0  0  0  0  0
    9.5720   16.0599   20.5910 C   0  0  2  0  0  0  0  0  0  0  0  0
   10.7875   16.3610   21.2904 O   0  0  0  0  0  0  0  0  0  0  0  0
   11.0328   15.5969   22.4433 C   0  0  0  0  0  0  0  0  0  0  0  0
   10.9077   14.1408   22.1240 C   0  0  0  0  0  0  0  0  0  0  0  0
    9.5425   13.7934   21.5880 C   0  0  0  0  0  0  0  0  0  0  0  0
    8.6724   14.9590   21.1794 C   0  0  1  0  0  0  0  0  0  0  0  0
    7.8685   15.3743   22.2966 O   0  0  0  0  0  0  0  0  0  0  0  0
    6.9770   14.3991   22.6741 C   0  0  0  0  0  0  0  0  0  0  0  0
    6.1506   13.8611   21.9524 O   0  0  0  0  0  0  0  0  0  0  0  0
    7.2482   14.0166   24.1000 C   0  0  0  0  0  0  0  0  0  0  0  0
    7.0777   12.5413   24.4434 C   0  0  0  0  0  0  0  0  0  0  0  0
    7.7382   12.1988   25.7782 C   0  0  0  0  0  0  0  0  0  0  0  0
    8.0660   13.4078   26.5499 N   0  0  0  0  0  0  0  0  0  0  0  0
    9.5684   14.1737   26.5298 S   0  0  0  0  0  0  0  0  0  0  0  0
    9.6138   14.9072   27.7696 O   0  0  0  0  0  0  0  0  0  0  0  0
    9.8167   14.8705   25.2933 O   0  0  0  0  0  0  0  0  0  0  0  0
   10.7472   12.9398   26.6239 N   0  0  0  0  0  0  0  0  0  0  0  0
   11.0596   12.2694   25.3259 C   0  0  0  0  0  0  0  0  0  0  0  0
   12.4289   12.6896   24.8195 C   0  0  0  0  0  0  0  0  0  0  0  0
   13.5276   12.2254   25.7501 C   0  0  0  0  0  0  0  0  0  0  0  0
   13.1939   12.6220   27.1769 C   0  0  0  0  0  0  0  0  0  0  0  0
   11.9691   13.5270   27.2778 C   0  0  0  0  0  0  0  0  0  0  0  0
    6.9072   14.3575   26.5672 C   0  0  0  0  0  0  0  0  0  0  0  0
    6.6507   14.9200   25.1640 C   0  0  0  0  0  0  0  0  0  0  0  0
  1  2  1  0
  3  2  1  6
  3  4  1  0
  4  5  1  0
  5  6  1  0
  6  7  1  0
  7  8  1  0
  8  9  1  1
  9 10  1  0
 10 11  2  0
 10 12  1  0
 12 13  1  0
 13 14  1  0
 14 15  1  0
 15 16  1  0
 16 17  2  0
 16 18  2  0
 16 19  1  0
 19 20  1  0
 20 21  1  0
 21 22  1  0
 22 23  1  0
 23 24  1  0
 15 25  1  0
 25 26  1  0
  8  3  1  0
 26 12  1  0
 24 19  1  0
M  END
>  <energy_score>  (2466) 
-33.994099

>  <inchikey>  (2466) 
None

>  <smiles>  (2466) 
None

>  <ref_pdb>  (2466) 
A4706a

>  <alias>  (2466) 
None

>  <HIPPO Pose ID>  (2466) 
500110

>  <name>  (2466) 
P500110

>  <HIPPO Compound ID>  (2466) 
314531

>  <ref_mols>  (2466) 
A4706a,A0875a

>  <distance_score>  (2466) 
1.488481

>  <inspiration_score>  (2466) 
None

$$$$
P500111
     RDKit          3D

 26 28  0  0  0  0  0  0  0  0999 V2000
    9.8360   16.2502   18.7487 N   0  0  0  0  0  0  0  0  0  0  0  0
    9.4893   16.4275   20.1698 C   0  0  0  0  0  0  0  0  0  0  0  0
    9.3019   15.0551   20.7916 C   0  0  1  0  0  0  0  0  0  0  0  0
   10.3726   14.2591   20.2611 O   0  0  0  0  0  0  0  0  0  0  0  0
   11.6344   14.5106   20.8531 C   0  0  0  0  0  0  0  0  0  0  0  0
   11.5980   14.0880   22.2944 C   0  0  0  0  0  0  0  0  0  0  0  0
   10.1768   13.9199   22.7896 C   0  0  0  0  0  0  0  0  0  0  0  0
    9.3004   15.0747   22.3159 C   0  0  2  0  0  0  0  0  0  0  0  0
    7.9701   15.1636   22.9000 O   0  0  0  0  0  0  0  0  0  0  0  0
    7.2325   14.0680   23.1727 C   0  0  0  0  0  0  0  0  0  0  0  0
    7.4158   12.9608   22.6742 O   0  0  0  0  0  0  0  0  0  0  0  0
    6.0771   14.3275   24.1511 C   0  0  0  0  0  0  0  0  0  0  0  0
    5.7752   13.0388   24.9274 C   0  0  0  0  0  0  0  0  0  0  0  0
    6.8668   12.6741   25.9334 C   0  0  0  0  0  0  0  0  0  0  0  0
    7.4701   13.8466   26.5975 N   0  0  0  0  0  0  0  0  0  0  0  0
    9.0556   14.3977   26.4853 S   0  0  0  0  0  0  0  0  0  0  0  0
    9.2977   15.1213   27.7096 O   0  0  0  0  0  0  0  0  0  0  0  0
    9.2131   15.0991   25.2408 O   0  0  0  0  0  0  0  0  0  0  0  0
   10.1592   13.1360   26.4908 N   0  0  0  0  0  0  0  0  0  0  0  0
   11.5545   13.6243   26.7096 C   0  0  0  0  0  0  0  0  0  0  0  0
   12.5759   13.1509   25.6976 C   0  0  0  0  0  0  0  0  0  0  0  0
   12.4832   11.6765   25.5315 C   0  0  0  0  0  0  0  0  0  0  0  0
   11.1094   11.3166   25.0226 C   0  0  0  0  0  0  0  0  0  0  0  0
    9.9189   11.9778   25.6453 C   0  0  0  0  0  0  0  0  0  0  0  0
    6.5094   14.9912   26.6024 C   0  0  0  0  0  0  0  0  0  0  0  0
    6.2389   15.4716   25.1661 C   0  0  0  0  0  0  0  0  0  0  0  0
  1  2  1  0
  3  2  1  6
  3  4  1  0
  4  5  1  0
  5  6  1  0
  6  7  1  0
  7  8  1  0
  8  9  1  1
  9 10  1  0
 10 11  2  0
 10 12  1  0
 12 13  1  0
 13 14  1  0
 14 15  1  0
 15 16  1  0
 16 17  2  0
 16 18  2  0
 16 19  1  0
 19 20  1  0
 20 21  1  0
 21 22  1  0
 22 23  1  0
 23 24  1  0
 15 25  1  0
 25 26  1  0
  8  3  1  0
 26 12  1  0
 24 19  1  0
M  END
>  <energy_score>  (2467) 
-5.98449

>  <inchikey>  (2467) 
None

>  <smiles>  (2467) 
None

>  <ref_pdb>  (2467) 
A4706a

>  <alias>  (2467) 
None

>  <HIPPO Pose ID>  (2467) 
500111

>  <name>  (2467) 
P500111

>  <HIPPO Compound ID>  (2467) 
314531

>  <ref_mols>  (2467) 
A4706a,A0875a

>  <distance_score>  (2467) 
1.789722

>  <inspiration_score>  (2467) 
None

$$$$
P500112
     RDKit          3D

 26 29  0  0  0  0  0  0  0  0999 V2000
    6.7621   16.4552   23.4104 O   0  0  0  0  0  0  0  0  0  0  0  0
    6.7321   15.2319   23.4259 C   0  0  0  0  0  0  0  0  0  0  0  0
    7.4391   14.4395   22.5760 O   0  0  0  0  0  0  0  0  0  0  0  0
    8.7385   14.8494   22.0561 C   0  0  2  0  0  0  0  0  0  0  0  0
    9.1973   16.2884   22.0149 C   0  0  0  0  0  0  0  0  0  0  0  0
   10.1173   16.4346   20.9271 O   0  0  0  0  0  0  0  0  0  0  0  0
   10.2716   15.1665   20.2849 C   0  0  0  0  0  0  0  0  0  0  0  0
   10.7006   15.1100   18.8216 C   0  0  0  0  0  0  0  0  0  0  0  0
   11.7740   14.1838   19.1259 O   0  0  0  0  0  0  0  0  0  0  0  0
   11.6379   14.5051   20.5341 C   0  0  0  0  0  0  0  0  0  0  0  0
    9.0069   14.4224   20.6542 C   0  0  0  0  0  0  0  0  0  0  0  0
    5.8355   14.5110   24.4553 C   0  0  0  0  0  0  0  0  0  0  0  0
    5.8530   12.9809   24.5531 C   0  0  0  0  0  0  0  0  0  0  0  0
    6.5773   12.4041   25.7794 C   0  0  0  0  0  0  0  0  0  0  0  0
    7.7196   13.2691   26.1561 N   0  0  0  0  0  0  0  0  0  0  0  0
    8.9541   13.3113   25.0211 S   0  0  0  0  0  0  0  0  0  0  0  0
    8.6244   12.3772   23.9716 O   0  0  0  0  0  0  0  0  0  0  0  0
    9.3033   14.6882   24.7613 O   0  0  0  0  0  0  0  0  0  0  0  0
   10.2854   12.6545   25.7968 N   0  0  0  0  0  0  0  0  0  0  0  0
   11.3096   12.3264   24.7633 C   0  0  0  0  0  0  0  0  0  0  0  0
   12.5160   11.6415   25.3860 C   0  0  0  0  0  0  0  0  0  0  0  0
   13.0368   12.3520   26.6170 C   0  0  0  0  0  0  0  0  0  0  0  0
   12.2769   13.6389   26.8400 C   0  0  0  0  0  0  0  0  0  0  0  0
   10.7846   13.5152   26.8832 C   0  0  0  0  0  0  0  0  0  0  0  0
    7.2377   14.5884   26.6493 C   0  0  0  0  0  0  0  0  0  0  0  0
    6.0273   15.1097   25.8622 C   0  0  0  0  0  0  0  0  0  0  0  0
  1  2  2  0
  2  3  1  0
  4  3  1  6
  4  5  1  0
  5  6  1  0
  6  7  1  0
  7  8  1  0
  8  9  1  0
  9 10  1  0
  7 11  1  0
  2 12  1  0
 12 13  1  0
 13 14  1  0
 14 15  1  0
 15 16  1  0
 16 17  2  0
 16 18  2  0
 16 19  1  0
 19 20  1  0
 20 21  1  0
 21 22  1  0
 22 23  1  0
 23 24  1  0
 15 25  1  0
 25 26  1  0
 11  4  1  0
 26 12  1  0
 10  7  1  0
 24 19  1  0
M  END
>  <energy_score>  (2468) 
-44.215901

>  <inchikey>  (2468) 
None

>  <smiles>  (2468) 
None

>  <ref_pdb>  (2468) 
A4706a

>  <alias>  (2468) 
None

>  <HIPPO Pose ID>  (2468) 
500112

>  <name>  (2468) 
P500112

>  <HIPPO Compound ID>  (2468) 
314532

>  <ref_mols>  (2468) 
A0875a,A4706a

>  <distance_score>  (2468) 
1.810048

>  <inspiration_score>  (2468) 
None

$$$$
P500113
     RDKit          3D

 26 29  0  0  0  0  0  0  0  0999 V2000
    6.9263   16.1180   24.1048 O   0  0  0  0  0  0  0  0  0  0  0  0
    7.0937   14.9125   23.9801 C   0  0  0  0  0  0  0  0  0  0  0  0
    7.9017   14.3438   23.0518 O   0  0  0  0  0  0  0  0  0  0  0  0
    8.6789   15.2140   22.2002 C   0  0  1  0  0  0  0  0  0  0  0  0
   10.0808   15.5980   22.6526 C   0  0  0  0  0  0  0  0  0  0  0  0
   10.6308   16.1516   21.4548 O   0  0  0  0  0  0  0  0  0  0  0  0
   10.3586   15.1583   20.4502 C   0  0  0  0  0  0  0  0  0  0  0  0
   10.3956   15.4249   18.9428 C   0  0  0  0  0  0  0  0  0  0  0  0
   11.2476   14.2508   18.7416 O   0  0  0  0  0  0  0  0  0  0  0  0
   11.6490   14.3777   20.1268 C   0  0  0  0  0  0  0  0  0  0  0  0
    9.0878   14.4542   20.9420 C   0  0  0  0  0  0  0  0  0  0  0  0
    6.3507   13.9241   24.8912 C   0  0  0  0  0  0  0  0  0  0  0  0
    6.7245   12.4339   24.8507 C   0  0  0  0  0  0  0  0  0  0  0  0
    7.6272   11.9728   26.0051 C   0  0  0  0  0  0  0  0  0  0  0  0
    8.5632   13.0563   26.3958 N   0  0  0  0  0  0  0  0  0  0  0  0
    9.7737   13.3757   25.2753 S   0  0  0  0  0  0  0  0  0  0  0  0
    9.9767   14.7995   25.2102 O   0  0  0  0  0  0  0  0  0  0  0  0
    9.4986   12.5740   24.1078 O   0  0  0  0  0  0  0  0  0  0  0  0
   11.2018   12.7373   25.9076 N   0  0  0  0  0  0  0  0  0  0  0  0
   12.2258   12.6494   24.8254 C   0  0  0  0  0  0  0  0  0  0  0  0
   13.2934   11.6868   25.3113 C   0  0  0  0  0  0  0  0  0  0  0  0
   14.0465   12.3290   26.4593 C   0  0  0  0  0  0  0  0  0  0  0  0
   13.0869   12.8332   27.5285 C   0  0  0  0  0  0  0  0  0  0  0  0
   11.7854   13.5006   27.0363 C   0  0  0  0  0  0  0  0  0  0  0  0
    7.8273   14.2379   26.9545 C   0  0  0  0  0  0  0  0  0  0  0  0
    6.4344   14.4120   26.3413 C   0  0  0  0  0  0  0  0  0  0  0  0
  1  2  2  0
  2  3  1  0
  4  3  1  1
  4  5  1  0
  5  6  1  0
  6  7  1  0
  7  8  1  0
  8  9  1  0
  9 10  1  0
  7 11  1  0
  2 12  1  0
 12 13  1  0
 13 14  1  0
 14 15  1  0
 15 16  1  0
 16 17  2  0
 16 18  2  0
 16 19  1  0
 19 20  1  0
 20 21  1  0
 21 22  1  0
 22 23  1  0
 23 24  1  0
 15 25  1  0
 25 26  1  0
 11  4  1  0
 26 12  1  0
 10  7  1  0
 24 19  1  0
M  END
>  <energy_score>  (2469) 
-50.925043

>  <inchikey>  (2469) 
None

>  <smiles>  (2469) 
None

>  <ref_pdb>  (2469) 
A4706a

>  <alias>  (2469) 
None

>  <HIPPO Pose ID>  (2469) 
500113

>  <name>  (2469) 
P500113

>  <HIPPO Compound ID>  (2469) 
314532

>  <ref_mols>  (2469) 
A4706a,A0875a

>  <distance_score>  (2469) 
1.594112

>  <inspiration_score>  (2469) 
None

$$$$
P500114
     RDKit          3D

 26 28  0  0  0  0  0  0  0  0999 V2000
   11.5460   14.9463   18.4246 C   0  0  0  0  0  0  0  0  0  0  0  0
   10.3927   14.2433   18.9112 N   0  0  0  0  0  0  0  0  0  0  0  0
    9.5839   15.0186   19.8466 C   0  0  0  0  0  0  0  0  0  0  0  0
   10.3646   15.3173   21.0707 C   0  0  2  0  0  0  0  0  0  0  0  0
   11.1751   14.2383   21.5457 O   0  0  0  0  0  0  0  0  0  0  0  0
   11.6813   14.7146   22.7787 C   0  0  0  0  0  0  0  0  0  0  0  0
   10.9304   15.9906   23.0690 C   0  0  0  0  0  0  0  0  0  0  0  0
    9.6405   15.8712   22.2756 C   0  0  2  0  0  0  0  0  0  0  0  0
    8.7676   15.0766   23.1214 O   0  0  0  0  0  0  0  0  0  0  0  0
    7.4549   14.8537   22.8968 C   0  0  0  0  0  0  0  0  0  0  0  0
    6.9102   14.9908   21.8103 O   0  0  0  0  0  0  0  0  0  0  0  0
    6.6731   14.3916   24.1756 C   0  0  0  0  0  0  0  0  0  0  0  0
    6.6568   12.8593   24.3715 C   0  0  0  0  0  0  0  0  0  0  0  0
    7.2344   12.2664   25.6710 C   0  0  0  0  0  0  0  0  0  0  0  0
    8.2033   13.1944   26.3133 N   0  0  0  0  0  0  0  0  0  0  0  0
    9.6152   13.4458   25.4258 S   0  0  0  0  0  0  0  0  0  0  0  0
    9.9437   14.8432   25.5533 O   0  0  0  0  0  0  0  0  0  0  0  0
    9.3951   12.7927   24.1612 O   0  0  0  0  0  0  0  0  0  0  0  0
   10.8608   12.5899   26.2215 N   0  0  0  0  0  0  0  0  0  0  0  0
   11.6251   11.7007   25.3054 C   0  0  0  0  0  0  0  0  0  0  0  0
   13.0680   12.1225   25.1262 C   0  0  0  0  0  0  0  0  0  0  0  0
   13.8684   12.2363   26.3905 C   0  0  0  0  0  0  0  0  0  0  0  0
   13.0293   12.8009   27.5125 C   0  0  0  0  0  0  0  0  0  0  0  0
   11.7268   13.4724   27.0619 C   0  0  0  0  0  0  0  0  0  0  0  0
    7.4609   14.4340   26.6730 C   0  0  0  0  0  0  0  0  0  0  0  0
    6.9858   15.2111   25.4405 C   0  0  0  0  0  0  0  0  0  0  0  0
  1  2  1  0
  2  3  1  0
  4  3  1  6
  4  5  1  0
  5  6  1  0
  6  7  1  0
  7  8  1  0
  8  9  1  1
  9 10  1  0
 10 11  2  0
 10 12  1  0
 12 13  1  0
 13 14  1  0
 14 15  1  0
 15 16  1  0
 16 17  2  0
 16 18  2  0
 16 19  1  0
 19 20  1  0
 20 21  1  0
 21 22  1  0
 22 23  1  0
 23 24  1  0
 15 25  1  0
 25 26  1  0
  8  4  1  0
 26 12  1  0
 24 19  1  0
M  END
>  <energy_score>  (2470) 
-25.206093

>  <inchikey>  (2470) 
None

>  <smiles>  (2470) 
None

>  <ref_pdb>  (2470) 
A4706a

>  <alias>  (2470) 
None

>  <HIPPO Pose ID>  (2470) 
500114

>  <name>  (2470) 
P500114

>  <HIPPO Compound ID>  (2470) 
314533

>  <ref_mols>  (2470) 
A4706a,A0875a

>  <distance_score>  (2470) 
1.608578

>  <inspiration_score>  (2470) 
None

$$$$
P500115
     RDKit          3D

 26 28  0  0  0  0  0  0  0  0999 V2000
   11.6599   14.8733   18.3057 C   0  0  0  0  0  0  0  0  0  0  0  0
   10.5309   14.3073   18.9786 N   0  0  0  0  0  0  0  0  0  0  0  0
    9.9611   15.2689   19.8977 C   0  0  0  0  0  0  0  0  0  0  0  0
    9.4122   14.5571   21.1495 C   0  0  1  0  0  0  0  0  0  0  0  0
   10.4862   13.7888   21.7420 O   0  0  0  0  0  0  0  0  0  0  0  0
   11.2933   14.6882   22.4777 C   0  0  0  0  0  0  0  0  0  0  0  0
   10.4581   15.9231   22.6899 C   0  0  0  0  0  0  0  0  0  0  0  0
    9.0456   15.5850   22.1997 C   0  0  2  0  0  0  0  0  0  0  0  0
    8.2470   15.1353   23.3307 O   0  0  0  0  0  0  0  0  0  0  0  0
    7.1174   14.3951   23.2085 C   0  0  0  0  0  0  0  0  0  0  0  0
    6.6832   13.9314   22.1590 O   0  0  0  0  0  0  0  0  0  0  0  0
    6.3909   14.1693   24.5620 C   0  0  0  0  0  0  0  0  0  0  0  0
    6.3693   12.6805   24.9808 C   0  0  0  0  0  0  0  0  0  0  0  0
    7.2612   12.2529   26.1556 C   0  0  0  0  0  0  0  0  0  0  0  0
    8.2625   13.2913   26.4962 N   0  0  0  0  0  0  0  0  0  0  0  0
    9.5369   13.4383   25.4086 S   0  0  0  0  0  0  0  0  0  0  0  0
    9.1403   12.6722   24.2539 O   0  0  0  0  0  0  0  0  0  0  0  0
    9.9212   14.8248   25.3571 O   0  0  0  0  0  0  0  0  0  0  0  0
   10.8253   12.6181   26.1667 N   0  0  0  0  0  0  0  0  0  0  0  0
   11.5847   11.7741   25.2188 C   0  0  0  0  0  0  0  0  0  0  0  0
   13.0267   12.1980   25.0642 C   0  0  0  0  0  0  0  0  0  0  0  0
   13.8201   12.2888   26.3332 C   0  0  0  0  0  0  0  0  0  0  0  0
   12.9791   12.8400   27.4600 C   0  0  0  0  0  0  0  0  0  0  0  0
   11.6723   13.5068   27.0146 C   0  0  0  0  0  0  0  0  0  0  0  0
    7.5683   14.5465   26.8567 C   0  0  0  0  0  0  0  0  0  0  0  0
    6.7709   15.1360   25.6946 C   0  0  0  0  0  0  0  0  0  0  0  0
  1  2  1  0
  2  3  1  0
  4  3  1  6
  4  5  1  0
  5  6  1  0
  6  7  1  0
  7  8  1  0
  8  9  1  1
  9 10  1  0
 10 11  2  0
 10 12  1  0
 12 13  1  0
 13 14  1  0
 14 15  1  0
 15 16  1  0
 16 17  2  0
 16 18  2  0
 16 19  1  0
 19 20  1  0
 20 21  1  0
 21 22  1  0
 22 23  1  0
 23 24  1  0
 15 25  1  0
 25 26  1  0
  8  4  1  0
 26 12  1  0
 24 19  1  0
M  END
>  <energy_score>  (2471) 
-31.289455

>  <inchikey>  (2471) 
None

>  <smiles>  (2471) 
None

>  <ref_pdb>  (2471) 
A4706a

>  <alias>  (2471) 
None

>  <HIPPO Pose ID>  (2471) 
500115

>  <name>  (2471) 
P500115

>  <HIPPO Compound ID>  (2471) 
314533

>  <ref_mols>  (2471) 
A0875a,A4706a

>  <distance_score>  (2471) 
1.590554

>  <inspiration_score>  (2471) 
None

$$$$
P500116
     RDKit          3D

 26 29  0  0  0  0  0  0  0  0999 V2000
   10.7299   14.6223   18.4448 C   0  0  0  0  0  0  0  0  0  0  0  0
    9.7774   15.3307   19.2111 O   0  0  0  0  0  0  0  0  0  0  0  0
    9.6814   14.9324   20.5940 C   0  0  2  0  0  0  0  0  0  0  0  0
    8.8892   15.9199   21.4949 C   0  0  1  0  0  0  0  0  0  0  0  0
    8.0085   15.5113   22.5631 O   0  0  0  0  0  0  0  0  0  0  0  0
    6.9548   14.7316   22.2611 C   0  0  0  0  0  0  0  0  0  0  0  0
    6.9218   13.9397   21.3282 O   0  0  0  0  0  0  0  0  0  0  0  0
    5.7975   14.8736   23.2501 C   0  0  0  0  0  0  0  0  0  0  0  0
    5.5208   13.5205   23.9018 C   0  0  0  0  0  0  0  0  0  0  0  0
    6.6594   13.0529   24.8021 C   0  0  0  0  0  0  0  0  0  0  0  0
    7.6022   14.1797   25.0465 N   0  0  0  0  0  0  0  0  0  0  0  0
    8.9477   13.8138   25.9574 S   0  0  0  0  0  0  0  0  0  0  0  0
    8.6566   12.5768   26.6212 O   0  0  0  0  0  0  0  0  0  0  0  0
    9.3498   14.9871   26.6947 O   0  0  0  0  0  0  0  0  0  0  0  0
   10.1836   13.4648   24.8738 N   0  0  0  0  0  0  0  0  0  0  0  0
   10.1278   12.1417   24.2001 C   0  0  0  0  0  0  0  0  0  0  0  0
   10.7929   11.0749   25.0664 C   0  0  0  0  0  0  0  0  0  0  0  0
   12.2246   11.4551   25.5090 C   0  0  0  0  0  0  0  0  0  0  0  0
   12.5983   12.8343   25.0388 C   0  0  0  0  0  0  0  0  0  0  0  0
   11.5120   13.7926   25.4769 C   0  0  0  0  0  0  0  0  0  0  0  0
    6.8689   15.3916   25.4967 C   0  0  0  0  0  0  0  0  0  0  0  0
    5.9986   15.9082   24.3558 C   0  0  0  0  0  0  0  0  0  0  0  0
   10.2278   16.4177   22.0154 C   0  0  0  0  0  0  0  0  0  0  0  0
   10.8680   15.2714   21.4008 C   0  0  0  0  0  0  0  0  0  0  0  0
   11.7909   14.3365   22.0697 C   0  0  0  0  0  0  0  0  0  0  0  0
   12.3169   15.2844   21.0473 C   0  0  0  0  0  0  0  0  0  0  0  0
  1  2  1  0
  3  2  1  6
  3  4  1  0
  4  5  1  1
  5  6  1  0
  6  7  2  0
  6  8  1  0
  8  9  1  0
  9 10  1  0
 10 11  1  0
 11 12  1  0
 12 13  2  0
 12 14  2  0
 12 15  1  0
 15 16  1  0
 16 17  1  0
 17 18  1  0
 18 19  1  0
 19 20  1  0
 11 21  1  0
 21 22  1  0
  4 23  1  0
 23 24  1  0
 24 25  1  0
 25 26  1  0
 24  3  1  0
 22  8  1  0
 26 24  1  0
 20 15  1  0
M  END
>  <energy_score>  (2472) 
-40.421573

>  <inchikey>  (2472) 
None

>  <smiles>  (2472) 
None

>  <ref_pdb>  (2472) 
A4706a

>  <alias>  (2472) 
None

>  <HIPPO Pose ID>  (2472) 
500116

>  <name>  (2472) 
P500116

>  <HIPPO Compound ID>  (2472) 
314534

>  <ref_mols>  (2472) 
A4706a,A0875a

>  <distance_score>  (2472) 
1.936742

>  <inspiration_score>  (2472) 
None

$$$$
P500117
     RDKit          3D

 26 29  0  0  0  0  0  0  0  0999 V2000
   10.3434   15.2333   18.7767 C   0  0  0  0  0  0  0  0  0  0  0  0
    9.7819   16.2501   19.5922 O   0  0  0  0  0  0  0  0  0  0  0  0
    9.4799   16.0176   20.9927 C   0  0  1  0  0  0  0  0  0  0  0  0
    8.3533   15.0094   21.3791 C   0  0  2  0  0  0  0  0  0  0  0  0
    7.4291   15.3256   22.4691 O   0  0  0  0  0  0  0  0  0  0  0  0
    6.6962   14.2574   22.8853 C   0  0  0  0  0  0  0  0  0  0  0  0
    6.6997   13.1680   22.3048 O   0  0  0  0  0  0  0  0  0  0  0  0
    5.8207   14.4930   24.1268 C   0  0  0  0  0  0  0  0  0  0  0  0
    5.6298   13.1435   24.8434 C   0  0  0  0  0  0  0  0  0  0  0  0
    6.9351   12.6684   25.4731 C   0  0  0  0  0  0  0  0  0  0  0  0
    7.5794   13.7048   26.3205 N   0  0  0  0  0  0  0  0  0  0  0  0
    9.1436   14.2249   25.9549 S   0  0  0  0  0  0  0  0  0  0  0  0
    9.1502   14.6558   24.5848 O   0  0  0  0  0  0  0  0  0  0  0  0
    9.5327   15.1411   26.9997 O   0  0  0  0  0  0  0  0  0  0  0  0
   10.2053   12.9128   26.0751 N   0  0  0  0  0  0  0  0  0  0  0  0
    9.9545   11.7813   25.1668 C   0  0  0  0  0  0  0  0  0  0  0  0
   11.0286   10.7181   25.1801 C   0  0  0  0  0  0  0  0  0  0  0  0
   12.4458   11.2644   25.4358 C   0  0  0  0  0  0  0  0  0  0  0  0
   12.5265   12.7248   25.0976 C   0  0  0  0  0  0  0  0  0  0  0  0
   11.6118   13.4455   26.0703 C   0  0  0  0  0  0  0  0  0  0  0  0
    6.6740   14.8861   26.5166 C   0  0  0  0  0  0  0  0  0  0  0  0
    6.2990   15.5191   25.1638 C   0  0  0  0  0  0  0  0  0  0  0  0
    9.4592   14.0011   21.7025 C   0  0  0  0  0  0  0  0  0  0  0  0
   10.3966   15.1268   21.7359 C   0  0  0  0  0  0  0  0  0  0  0  0
   11.3337   15.5018   22.8161 C   0  0  0  0  0  0  0  0  0  0  0  0
   11.8708   14.9820   21.5287 C   0  0  0  0  0  0  0  0  0  0  0  0
  1  2  1  0
  3  2  1  6
  3  4  1  0
  4  5  1  1
  5  6  1  0
  6  7  2  0
  6  8  1  0
  8  9  1  0
  9 10  1  0
 10 11  1  0
 11 12  1  0
 12 13  2  0
 12 14  2  0
 12 15  1  0
 15 16  1  0
 16 17  1  0
 17 18  1  0
 18 19  1  0
 19 20  1  0
 11 21  1  0
 21 22  1  0
  4 23  1  0
 23 24  1  0
 24 25  1  0
 25 26  1  0
 24  3  1  0
 22  8  1  0
 26 24  1  0
 20 15  1  0
M  END
>  <energy_score>  (2473) 
-26.86913

>  <inchikey>  (2473) 
None

>  <smiles>  (2473) 
None

>  <ref_pdb>  (2473) 
A4706a

>  <alias>  (2473) 
None

>  <HIPPO Pose ID>  (2473) 
500117

>  <name>  (2473) 
P500117

>  <HIPPO Compound ID>  (2473) 
314534

>  <ref_mols>  (2473) 
A0875a,A4706a

>  <distance_score>  (2473) 
1.65788

>  <inspiration_score>  (2473) 
None

$$$$
P500118
     RDKit          3D

 26 29  0  0  0  0  0  0  0  0999 V2000
   11.0011   14.7074   18.8753 C   0  0  0  0  0  0  0  0  0  0  0  0
    9.7066   14.8504   19.4209 O   0  0  0  0  0  0  0  0  0  0  0  0
    9.5484   14.6908   20.8512 C   0  0  2  0  0  0  0  0  0  0  0  0
    8.2184   15.2917   21.4446 C   0  0  1  0  0  0  0  0  0  0  0  0
    7.7823   15.0308   22.8092 O   0  0  0  0  0  0  0  0  0  0  0  0
    6.9776   13.9564   22.9869 C   0  0  0  0  0  0  0  0  0  0  0  0
    6.7207   13.1188   22.1285 O   0  0  0  0  0  0  0  0  0  0  0  0
    6.3687   13.9017   24.3886 C   0  0  0  0  0  0  0  0  0  0  0  0
    6.5545   12.5070   25.0149 C   0  0  0  0  0  0  0  0  0  0  0  0
    7.3782   12.5324   26.2945 C   0  0  0  0  0  0  0  0  0  0  0  0
    8.5894   13.3821   26.1287 N   0  0  0  0  0  0  0  0  0  0  0  0
    9.7796   12.6983   25.1516 S   0  0  0  0  0  0  0  0  0  0  0  0
    9.4904   13.0441   23.7866 O   0  0  0  0  0  0  0  0  0  0  0  0
    9.9031   11.3170   25.5368 O   0  0  0  0  0  0  0  0  0  0  0  0
   11.2154   13.4606   25.5880 N   0  0  0  0  0  0  0  0  0  0  0  0
   11.5278   13.7065   27.0068 C   0  0  0  0  0  0  0  0  0  0  0  0
   12.8426   13.0908   27.4917 C   0  0  0  0  0  0  0  0  0  0  0  0
   13.2692   11.9319   26.6462 C   0  0  0  0  0  0  0  0  0  0  0  0
   13.5068   12.3843   25.2584 C   0  0  0  0  0  0  0  0  0  0  0  0
   12.3539   13.1909   24.6808 C   0  0  0  0  0  0  0  0  0  0  0  0
    8.2533   14.8029   25.8700 C   0  0  0  0  0  0  0  0  0  0  0  0
    6.8306   15.0024   25.3495 C   0  0  0  0  0  0  0  0  0  0  0  0
    8.9791   16.6413   21.3130 C   0  0  0  0  0  0  0  0  0  0  0  0
   10.1550   15.7903   21.6200 C   0  0  0  0  0  0  0  0  0  0  0  0
   10.9065   15.5507   22.8747 C   0  0  0  0  0  0  0  0  0  0  0  0
   11.5643   16.2161   21.7166 C   0  0  0  0  0  0  0  0  0  0  0  0
  1  2  1  0
  3  2  1  6
  3  4  1  0
  4  5  1  1
  5  6  1  0
  6  7  2  0
  6  8  1  0
  8  9  1  0
  9 10  1  0
 10 11  1  0
 11 12  1  0
 12 13  2  0
 12 14  2  0
 12 15  1  0
 15 16  1  0
 16 17  1  0
 17 18  1  0
 18 19  1  0
 19 20  1  0
 11 21  1  0
 21 22  1  0
  4 23  1  0
 23 24  1  0
 24 25  1  0
 25 26  1  0
 24  3  1  0
 22  8  1  0
 26 24  1  0
 20 15  1  0
M  END
>  <energy_score>  (2474) 
-41.511268

>  <inchikey>  (2474) 
None

>  <smiles>  (2474) 
None

>  <ref_pdb>  (2474) 
A4706a

>  <alias>  (2474) 
None

>  <HIPPO Pose ID>  (2474) 
500118

>  <name>  (2474) 
P500118

>  <HIPPO Compound ID>  (2474) 
314534

>  <ref_mols>  (2474) 
A4706a,A0875a

>  <distance_score>  (2474) 
1.79505

>  <inspiration_score>  (2474) 
None

$$$$
P500119
     RDKit          3D

 26 29  0  0  0  0  0  0  0  0999 V2000
   10.5709   15.2432   18.7855 C   0  0  0  0  0  0  0  0  0  0  0  0
    9.7569   16.1495   19.5236 O   0  0  0  0  0  0  0  0  0  0  0  0
    9.4843   15.9697   20.9427 C   0  0  1  0  0  0  0  0  0  0  0  0
    8.4054   14.9105   21.3904 C   0  0  2  0  0  0  0  0  0  0  0  0
    7.6235   15.0720   22.6226 O   0  0  0  0  0  0  0  0  0  0  0  0
    6.8618   13.9743   22.9084 C   0  0  0  0  0  0  0  0  0  0  0  0
    6.5715   13.1192   22.0694 O   0  0  0  0  0  0  0  0  0  0  0  0
    6.4519   13.7602   24.3749 C   0  0  0  0  0  0  0  0  0  0  0  0
    7.0037   12.3603   24.7982 C   0  0  0  0  0  0  0  0  0  0  0  0
    7.7358   12.2076   26.1278 C   0  0  0  0  0  0  0  0  0  0  0  0
    8.3182   13.4784   26.6027 N   0  0  0  0  0  0  0  0  0  0  0  0
    9.6659   14.0469   25.7678 S   0  0  0  0  0  0  0  0  0  0  0  0
    9.3739   13.8686   24.3763 O   0  0  0  0  0  0  0  0  0  0  0  0
    9.9812   15.3547   26.2899 O   0  0  0  0  0  0  0  0  0  0  0  0
   10.9499   12.9728   26.1631 N   0  0  0  0  0  0  0  0  0  0  0  0
   11.7225   12.5835   24.9406 C   0  0  0  0  0  0  0  0  0  0  0  0
   12.8736   11.6589   25.2926 C   0  0  0  0  0  0  0  0  0  0  0  0
   13.8376   12.2895   26.2613 C   0  0  0  0  0  0  0  0  0  0  0  0
   13.1013   12.7784   27.4848 C   0  0  0  0  0  0  0  0  0  0  0  0
   11.8390   13.5898   27.1900 C   0  0  0  0  0  0  0  0  0  0  0  0
    7.2181   14.4826   26.7144 C   0  0  0  0  0  0  0  0  0  0  0  0
    6.7373   14.9221   25.3345 C   0  0  0  0  0  0  0  0  0  0  0  0
    9.5874   13.9450   21.5257 C   0  0  0  0  0  0  0  0  0  0  0  0
   10.4263   15.1375   21.7210 C   0  0  0  0  0  0  0  0  0  0  0  0
   11.9167   15.0607   21.6961 C   0  0  0  0  0  0  0  0  0  0  0  0
   11.2191   15.6426   22.8654 C   0  0  0  0  0  0  0  0  0  0  0  0
  1  2  1  0
  3  2  1  6
  3  4  1  0
  4  5  1  1
  5  6  1  0
  6  7  2  0
  6  8  1  0
  8  9  1  0
  9 10  1  0
 10 11  1  0
 11 12  1  0
 12 13  2  0
 12 14  2  0
 12 15  1  0
 15 16  1  0
 16 17  1  0
 17 18  1  0
 18 19  1  0
 19 20  1  0
 11 21  1  0
 21 22  1  0
  4 23  1  0
 23 24  1  0
 24 25  1  0
 25 26  1  0
 24  3  1  0
 22  8  1  0
 26 24  1  0
 20 15  1  0
M  END
>  <energy_score>  (2475) 
-26.044791

>  <inchikey>  (2475) 
None

>  <smiles>  (2475) 
None

>  <ref_pdb>  (2475) 
A4706a

>  <alias>  (2475) 
None

>  <HIPPO Pose ID>  (2475) 
500119

>  <name>  (2475) 
P500119

>  <HIPPO Compound ID>  (2475) 
314534

>  <ref_mols>  (2475) 
A4706a,A0875a

>  <distance_score>  (2475) 
1.560608

>  <inspiration_score>  (2475) 
None

$$$$
P500120
     RDKit          3D

 26 29  0  0  0  0  0  0  0  0999 V2000
    6.7087   13.2702   22.0833 O   0  0  0  0  0  0  0  0  0  0  0  0
    7.1998   13.9652   22.9751 C   0  0  0  0  0  0  0  0  0  0  0  0
    8.0718   14.9917   22.7690 O   0  0  0  0  0  0  0  0  0  0  0  0
    8.7116   14.9444   21.4847 C   0  0  2  0  0  0  0  0  0  0  0  0
    9.7499   13.8289   21.4514 C   0  0  0  0  0  0  0  0  0  0  0  0
   11.1423   14.3070   21.0280 C   0  0  1  0  0  0  0  0  0  0  0  0
   11.0322   14.8406   19.5953 C   0  0  0  0  0  0  0  0  0  0  0  0
    9.9432   15.9080   19.5735 C   0  0  0  0  0  0  0  0  0  0  0  0
    9.4442   16.2015   21.0073 C   0  0  2  0  0  0  0  0  0  0  0  0
   10.5866   16.4972   21.8228 O   0  0  0  0  0  0  0  0  0  0  0  0
   11.5417   15.4524   21.9262 C   0  0  0  0  0  0  0  0  0  0  0  0
    6.9251   13.6222   24.4314 C   0  0  0  0  0  0  0  0  0  0  0  0
    7.6567   12.2740   24.6619 C   0  0  0  0  0  0  0  0  0  0  0  0
    8.3106   12.0493   26.0075 C   0  0  0  0  0  0  0  0  0  0  0  0
    8.8397   13.2960   26.5764 N   0  0  0  0  0  0  0  0  0  0  0  0
   10.2368   13.9936   25.9244 S   0  0  0  0  0  0  0  0  0  0  0  0
   10.0515   14.0871   24.5022 O   0  0  0  0  0  0  0  0  0  0  0  0
   10.5056   15.1633   26.7179 O   0  0  0  0  0  0  0  0  0  0  0  0
   11.4454   12.8151   26.2249 N   0  0  0  0  0  0  0  0  0  0  0  0
   12.5442   13.2143   27.1391 C   0  0  0  0  0  0  0  0  0  0  0  0
   13.9397   12.9581   26.5717 C   0  0  0  0  0  0  0  0  0  0  0  0
   14.1203   11.5168   26.2641 C   0  0  0  0  0  0  0  0  0  0  0  0
   13.0713   11.1535   25.2493 C   0  0  0  0  0  0  0  0  0  0  0  0
   11.8998   12.1278   25.0086 C   0  0  0  0  0  0  0  0  0  0  0  0
    7.7154   14.2584   26.7717 C   0  0  0  0  0  0  0  0  0  0  0  0
    7.2036   14.7528   25.4282 C   0  0  0  0  0  0  0  0  0  0  0  0
  1  2  2  0
  2  3  1  0
  4  3  1  1
  4  5  1  0
  6  5  1  1
  6  7  1  0
  7  8  1  0
  9  8  1  6
  9 10  1  0
 10 11  1  0
  2 12  1  0
 12 13  1  0
 13 14  1  0
 14 15  1  0
 15 16  1  0
 16 17  2  0
 16 18  2  0
 16 19  1  0
 19 20  1  0
 20 21  1  0
 21 22  1  0
 22 23  1  0
 23 24  1  0
 15 25  1  0
 25 26  1  0
  9  4  1  0
 26 12  1  0
 11  6  1  0
 24 19  1  0
M  END
>  <energy_score>  (2476) 
-43.520825

>  <inchikey>  (2476) 
None

>  <smiles>  (2476) 
None

>  <ref_pdb>  (2476) 
A4706a

>  <alias>  (2476) 
None

>  <HIPPO Pose ID>  (2476) 
500120

>  <name>  (2476) 
P500120

>  <HIPPO Compound ID>  (2476) 
314535

>  <ref_mols>  (2476) 
A4706a,A0875a

>  <distance_score>  (2476) 
1.423581

>  <inspiration_score>  (2476) 
None

$$$$
P500121
     RDKit          3D

 26 29  0  0  0  0  0  0  0  0999 V2000
    7.0239   12.9754   22.2372 O   0  0  0  0  0  0  0  0  0  0  0  0
    7.0955   13.9914   22.9298 C   0  0  0  0  0  0  0  0  0  0  0  0
    7.9119   15.0325   22.6383 O   0  0  0  0  0  0  0  0  0  0  0  0
    8.7782   14.8153   21.4960 C   0  0  2  0  0  0  0  0  0  0  0  0
    9.9417   13.8773   21.8213 C   0  0  0  0  0  0  0  0  0  0  0  0
   11.2228   14.3225   21.1079 C   0  0  1  0  0  0  0  0  0  0  0  0
   10.9919   14.6740   19.6292 C   0  0  0  0  0  0  0  0  0  0  0  0
    9.9420   15.7700   19.5278 C   0  0  0  0  0  0  0  0  0  0  0  0
    9.4111   16.0998   20.9288 C   0  0  2  0  0  0  0  0  0  0  0  0
   10.5333   16.5380   21.7157 O   0  0  0  0  0  0  0  0  0  0  0  0
   11.6092   15.6079   21.8100 C   0  0  0  0  0  0  0  0  0  0  0  0
    6.2092   14.1201   24.1675 C   0  0  0  0  0  0  0  0  0  0  0  0
    6.1967   12.7595   24.8987 C   0  0  0  0  0  0  0  0  0  0  0  0
    7.5174   12.4873   25.6116 C   0  0  0  0  0  0  0  0  0  0  0  0
    7.9582   13.6462   26.4090 N   0  0  0  0  0  0  0  0  0  0  0  0
    9.4775   14.3265   26.1609 S   0  0  0  0  0  0  0  0  0  0  0  0
    9.6594   15.2487   27.2548 O   0  0  0  0  0  0  0  0  0  0  0  0
    9.5874   14.7870   24.8057 O   0  0  0  0  0  0  0  0  0  0  0  0
   10.5863   13.0470   26.3877 N   0  0  0  0  0  0  0  0  0  0  0  0
   10.9459   12.3009   25.1484 C   0  0  0  0  0  0  0  0  0  0  0  0
   12.2686   12.8161   24.6143 C   0  0  0  0  0  0  0  0  0  0  0  0
   13.3979   12.4217   25.5567 C   0  0  0  0  0  0  0  0  0  0  0  0
   13.0107   12.6842   27.0005 C   0  0  0  0  0  0  0  0  0  0  0  0
   11.7886   13.5853   27.1160 C   0  0  0  0  0  0  0  0  0  0  0  0
    6.9035   14.6953   26.5459 C   0  0  0  0  0  0  0  0  0  0  0  0
    6.5144   15.2378   25.1677 C   0  0  0  0  0  0  0  0  0  0  0  0
  1  2  2  0
  2  3  1  0
  4  3  1  1
  4  5  1  0
  6  5  1  1
  6  7  1  0
  7  8  1  0
  9  8  1  6
  9 10  1  0
 10 11  1  0
  2 12  1  0
 12 13  1  0
 13 14  1  0
 14 15  1  0
 15 16  1  0
 16 17  2  0
 16 18  2  0
 16 19  1  0
 19 20  1  0
 20 21  1  0
 21 22  1  0
 22 23  1  0
 23 24  1  0
 15 25  1  0
 25 26  1  0
  9  4  1  0
 26 12  1  0
 11  6  1  0
 24 19  1  0
M  END
>  <energy_score>  (2477) 
-57.181831

>  <inchikey>  (2477) 
None

>  <smiles>  (2477) 
None

>  <ref_pdb>  (2477) 
A4706a

>  <alias>  (2477) 
None

>  <HIPPO Pose ID>  (2477) 
500121

>  <name>  (2477) 
P500121

>  <HIPPO Compound ID>  (2477) 
314535

>  <ref_mols>  (2477) 
A4706a,A0875a

>  <distance_score>  (2477) 
1.590997

>  <inspiration_score>  (2477) 
None

$$$$
P500122
     RDKit          3D

 26 29  0  0  0  0  0  0  0  0999 V2000
    6.4335   14.2563   21.7685 O   0  0  0  0  0  0  0  0  0  0  0  0
    7.0644   14.5352   22.7837 C   0  0  0  0  0  0  0  0  0  0  0  0
    8.1870   15.3006   22.8231 O   0  0  0  0  0  0  0  0  0  0  0  0
    8.8800   15.5845   21.5755 C   0  0  1  0  0  0  0  0  0  0  0  0
   10.2011   16.3282   21.8293 C   0  0  0  0  0  0  0  0  0  0  0  0
   11.4362   15.5693   21.3052 C   0  0  2  0  0  0  0  0  0  0  0  0
   11.3386   15.2614   19.8200 C   0  0  0  0  0  0  0  0  0  0  0  0
   10.0202   14.6175   19.5657 C   0  0  0  0  0  0  0  0  0  0  0  0
    9.3042   14.2954   20.8859 C   0  0  1  0  0  0  0  0  0  0  0  0
   10.1509   13.5727   21.8045 O   0  0  0  0  0  0  0  0  0  0  0  0
   11.4004   14.2283   22.0132 C   0  0  0  0  0  0  0  0  0  0  0  0
    6.6920   13.9331   24.1409 C   0  0  0  0  0  0  0  0  0  0  0  0
    7.4723   12.6064   24.2959 C   0  0  0  0  0  0  0  0  0  0  0  0
    7.8635   12.1846   25.6950 C   0  0  0  0  0  0  0  0  0  0  0  0
    8.2842   13.3388   26.4791 N   0  0  0  0  0  0  0  0  0  0  0  0
    9.7247   14.1299   26.1220 S   0  0  0  0  0  0  0  0  0  0  0  0
    9.8435   15.1419   27.1455 O   0  0  0  0  0  0  0  0  0  0  0  0
    9.7763   14.5138   24.7402 O   0  0  0  0  0  0  0  0  0  0  0  0
   10.9684   12.9772   26.3778 N   0  0  0  0  0  0  0  0  0  0  0  0
   12.1257   13.6544   27.0375 C   0  0  0  0  0  0  0  0  0  0  0  0
   13.4941   13.1003   26.6415 C   0  0  0  0  0  0  0  0  0  0  0  0
   13.4491   11.6288   26.5871 C   0  0  0  0  0  0  0  0  0  0  0  0
   12.5438   11.2712   25.4330 C   0  0  0  0  0  0  0  0  0  0  0  0
   11.3699   12.2232   25.1626 C   0  0  0  0  0  0  0  0  0  0  0  0
    7.1221   14.2660   26.6348 C   0  0  0  0  0  0  0  0  0  0  0  0
    6.7922   14.9290   25.3035 C   0  0  0  0  0  0  0  0  0  0  0  0
  1  2  2  0
  2  3  1  0
  4  3  1  1
  4  5  1  0
  6  5  1  1
  6  7  1  0
  7  8  1  0
  9  8  1  6
  9 10  1  0
 10 11  1  0
  2 12  1  0
 12 13  1  0
 13 14  1  0
 14 15  1  0
 15 16  1  0
 16 17  2  0
 16 18  2  0
 16 19  1  0
 19 20  1  0
 20 21  1  0
 21 22  1  0
 22 23  1  0
 23 24  1  0
 15 25  1  0
 25 26  1  0
  9  4  1  0
 26 12  1  0
 11  6  1  0
 24 19  1  0
M  END
>  <energy_score>  (2478) 
-38.977229

>  <inchikey>  (2478) 
None

>  <smiles>  (2478) 
None

>  <ref_pdb>  (2478) 
A4706a

>  <alias>  (2478) 
None

>  <HIPPO Pose ID>  (2478) 
500122

>  <name>  (2478) 
P500122

>  <HIPPO Compound ID>  (2478) 
314535

>  <ref_mols>  (2478) 
A0875a,A4706a

>  <distance_score>  (2478) 
1.616222

>  <inspiration_score>  (2478) 
None

$$$$
P500123
     RDKit          3D

 26 29  0  0  0  0  0  0  0  0999 V2000
    6.3944   14.4884   21.8367 O   0  0  0  0  0  0  0  0  0  0  0  0
    7.2207   14.7942   22.6785 C   0  0  0  0  0  0  0  0  0  0  0  0
    8.2551   15.6799   22.5605 O   0  0  0  0  0  0  0  0  0  0  0  0
    9.0005   15.8354   21.3369 C   0  0  1  0  0  0  0  0  0  0  0  0
   10.3877   16.3921   21.6898 C   0  0  0  0  0  0  0  0  0  0  0  0
   11.5300   15.4890   21.1956 C   0  0  2  0  0  0  0  0  0  0  0  0
   11.4418   15.1906   19.7042 C   0  0  0  0  0  0  0  0  0  0  0  0
   10.0672   14.7049   19.3791 C   0  0  0  0  0  0  0  0  0  0  0  0
    9.2655   14.4974   20.6660 C   0  0  1  0  0  0  0  0  0  0  0  0
    9.9906   13.6646   21.5876 O   0  0  0  0  0  0  0  0  0  0  0  0
   11.2861   14.1690   21.9048 C   0  0  0  0  0  0  0  0  0  0  0  0
    7.3638   14.1803   24.0436 C   0  0  0  0  0  0  0  0  0  0  0  0
    8.1519   12.8663   23.8996 C   0  0  0  0  0  0  0  0  0  0  0  0
    8.2089   12.0708   25.1851 C   0  0  0  0  0  0  0  0  0  0  0  0
    8.2880   13.0290   26.2872 N   0  0  0  0  0  0  0  0  0  0  0  0
    9.6660   14.0301   26.4200 S   0  0  0  0  0  0  0  0  0  0  0  0
    9.5223   14.6737   27.7026 O   0  0  0  0  0  0  0  0  0  0  0  0
    9.9067   14.8400   25.2491 O   0  0  0  0  0  0  0  0  0  0  0  0
   11.0112   12.9484   26.5184 N   0  0  0  0  0  0  0  0  0  0  0  0
   11.6235   12.6659   25.1796 C   0  0  0  0  0  0  0  0  0  0  0  0
   12.8158   11.7375   25.3168 C   0  0  0  0  0  0  0  0  0  0  0  0
   13.8922   12.2909   26.2142 C   0  0  0  0  0  0  0  0  0  0  0  0
   13.3069   12.7487   27.5294 C   0  0  0  0  0  0  0  0  0  0  0  0
   12.0447   13.5949   27.3906 C   0  0  0  0  0  0  0  0  0  0  0  0
    6.9489   13.7568   26.4301 C   0  0  0  0  0  0  0  0  0  0  0  0
    6.2573   14.0034   25.0548 C   0  0  0  0  0  0  0  0  0  0  0  0
  1  2  2  0
  2  3  1  0
  4  3  1  1
  4  5  1  0
  6  5  1  1
  6  7  1  0
  7  8  1  0
  9  8  1  6
  9 10  1  0
 10 11  1  0
  2 12  1  0
 12 13  1  0
 13 14  1  0
 14 15  1  0
 15 16  1  0
 16 17  2  0
 16 18  2  0
 16 19  1  0
 19 20  1  0
 20 21  1  0
 21 22  1  0
 22 23  1  0
 23 24  1  0
 15 25  1  0
 25 26  1  0
  9  4  1  0
 26 12  1  0
 11  6  1  0
 24 19  1  0
M  END
>  <energy_score>  (2479) 
-44.355523

>  <inchikey>  (2479) 
None

>  <smiles>  (2479) 
None

>  <ref_pdb>  (2479) 
A4706a

>  <alias>  (2479) 
None

>  <HIPPO Pose ID>  (2479) 
500123

>  <name>  (2479) 
P500123

>  <HIPPO Compound ID>  (2479) 
314535

>  <ref_mols>  (2479) 
A4706a,A0875a

>  <distance_score>  (2479) 
1.672196

>  <inspiration_score>  (2479) 
None

$$$$
P500124
     RDKit          3D

 26 28  0  0  0  0  0  0  0  0999 V2000
   11.3052   14.2919   19.3058 C   0  0  0  0  0  0  0  0  0  0  0  0
   10.5734   15.1986   20.2857 C   0  0  0  0  0  0  0  0  0  0  0  0
    9.9816   16.2691   19.3881 C   0  0  0  0  0  0  0  0  0  0  0  0
   11.6252   15.7579   21.2650 C   0  0  0  0  0  0  0  0  0  0  0  0
   11.6534   14.9935   22.4606 O   0  0  0  0  0  0  0  0  0  0  0  0
   10.4610   15.2183   23.1971 C   0  0  0  0  0  0  0  0  0  0  0  0
    9.1939   15.3852   22.3385 C   0  0  2  0  0  0  0  0  0  0  0  0
    8.0507   15.2266   23.1992 O   0  0  0  0  0  0  0  0  0  0  0  0
    7.0191   14.3642   23.0725 C   0  0  0  0  0  0  0  0  0  0  0  0
    6.7949   13.6241   22.1239 O   0  0  0  0  0  0  0  0  0  0  0  0
    6.1447   14.4270   24.3443 C   0  0  0  0  0  0  0  0  0  0  0  0
    5.9158   13.0373   24.9757 C   0  0  0  0  0  0  0  0  0  0  0  0
    6.5737   12.8835   26.3549 C   0  0  0  0  0  0  0  0  0  0  0  0
    7.9646   13.4430   26.3518 N   0  0  0  0  0  0  0  0  0  0  0  0
    9.0026   12.4671   25.4804 S   0  0  0  0  0  0  0  0  0  0  0  0
    8.8573   11.1438   26.0306 O   0  0  0  0  0  0  0  0  0  0  0  0
    8.7412   12.6664   24.0784 O   0  0  0  0  0  0  0  0  0  0  0  0
   10.5850   12.9053   25.7012 N   0  0  0  0  0  0  0  0  0  0  0  0
   11.4387   12.0196   24.9177 C   0  0  0  0  0  0  0  0  0  0  0  0
   12.8596   12.4803   24.8845 C   0  0  0  0  0  0  0  0  0  0  0  0
   13.5108   12.5354   26.2253 C   0  0  0  0  0  0  0  0  0  0  0  0
   12.5525   13.0359   27.2791 C   0  0  0  0  0  0  0  0  0  0  0  0
   11.1794   13.5856   26.8421 C   0  0  0  0  0  0  0  0  0  0  0  0
    7.9589   14.8982   26.1047 C   0  0  0  0  0  0  0  0  0  0  0  0
    6.6764   15.3914   25.4200 C   0  0  0  0  0  0  0  0  0  0  0  0
    9.3999   14.5475   21.0803 C   0  0  0  0  0  0  0  0  0  0  0  0
  1  2  1  0
  2  3  1  0
  2  4  1  0
  4  5  1  0
  5  6  1  0
  6  7  1  0
  7  8  1  1
  8  9  1  0
  9 10  2  0
  9 11  1  0
 11 12  1  0
 12 13  1  0
 13 14  1  0
 14 15  1  0
 15 16  2  0
 15 17  2  0
 15 18  1  0
 18 19  1  0
 19 20  1  0
 20 21  1  0
 21 22  1  0
 22 23  1  0
 14 24  1  0
 24 25  1  0
  7 26  1  0
 26  2  1  0
 25 11  1  0
 23 18  1  0
M  END
>  <energy_score>  (2480) 
-48.780835

>  <inchikey>  (2480) 
None

>  <smiles>  (2480) 
None

>  <ref_pdb>  (2480) 
A4706a

>  <alias>  (2480) 
None

>  <HIPPO Pose ID>  (2480) 
500124

>  <name>  (2480) 
P500124

>  <HIPPO Compound ID>  (2480) 
314536

>  <ref_mols>  (2480) 
A0875a,A4706a

>  <distance_score>  (2480) 
1.905205

>  <inspiration_score>  (2480) 
None

$$$$
P500125
     RDKit          3D

 26 28  0  0  0  0  0  0  0  0999 V2000
   11.4408   16.1807   21.4533 C   0  0  0  0  0  0  0  0  0  0  0  0
   10.2447   15.6228   20.7068 C   0  0  0  0  0  0  0  0  0  0  0  0
   10.0770   16.1056   19.2793 C   0  0  0  0  0  0  0  0  0  0  0  0
   10.5412   14.1521   20.6415 C   0  0  0  0  0  0  0  0  0  0  0  0
   10.4318   13.5611   21.9201 O   0  0  0  0  0  0  0  0  0  0  0  0
    9.1519   13.7410   22.4887 C   0  0  0  0  0  0  0  0  0  0  0  0
    8.1699   14.6788   21.7542 C   0  0  1  0  0  0  0  0  0  0  0  0
    7.0119   15.0162   22.5338 O   0  0  0  0  0  0  0  0  0  0  0  0
    6.3789   13.9164   23.0151 C   0  0  0  0  0  0  0  0  0  0  0  0
    5.8596   13.0630   22.3166 O   0  0  0  0  0  0  0  0  0  0  0  0
    6.5180   13.8779   24.5077 C   0  0  0  0  0  0  0  0  0  0  0  0
    6.2994   12.5398   25.1933 C   0  0  0  0  0  0  0  0  0  0  0  0
    6.8431   12.5892   26.6247 C   0  0  0  0  0  0  0  0  0  0  0  0
    7.4725   13.8886   26.9478 N   0  0  0  0  0  0  0  0  0  0  0  0
    9.0848   14.3489   26.7116 S   0  0  0  0  0  0  0  0  0  0  0  0
    9.4683   15.0213   27.9265 O   0  0  0  0  0  0  0  0  0  0  0  0
    9.2201   15.0618   25.4634 O   0  0  0  0  0  0  0  0  0  0  0  0
   10.0299   12.9515   26.6089 N   0  0  0  0  0  0  0  0  0  0  0  0
   11.4853   13.2521   26.7600 C   0  0  0  0  0  0  0  0  0  0  0  0
   12.1282   13.5082   25.4264 C   0  0  0  0  0  0  0  0  0  0  0  0
   12.0390   12.3031   24.5525 C   0  0  0  0  0  0  0  0  0  0  0  0
   10.8753   11.3728   24.8534 C   0  0  0  0  0  0  0  0  0  0  0  0
    9.7044   12.0079   25.5302 C   0  0  0  0  0  0  0  0  0  0  0  0
    6.4920   15.0033   26.7639 C   0  0  0  0  0  0  0  0  0  0  0  0
    5.9658   15.0382   25.3172 C   0  0  0  0  0  0  0  0  0  0  0  0
    8.9623   15.9412   21.4927 C   0  0  0  0  0  0  0  0  0  0  0  0
  1  2  1  0
  2  3  1  0
  2  4  1  0
  4  5  1  0
  5  6  1  0
  6  7  1  0
  7  8  1  1
  8  9  1  0
  9 10  2  0
  9 11  1  0
 11 12  1  0
 12 13  1  0
 13 14  1  0
 14 15  1  0
 15 16  2  0
 15 17  2  0
 15 18  1  0
 18 19  1  0
 19 20  1  0
 20 21  1  0
 21 22  1  0
 22 23  1  0
 14 24  1  0
 24 25  1  0
  7 26  1  0
 26  2  1  0
 25 11  1  0
 23 18  1  0
M  END
>  <energy_score>  (2481) 
-17.26312

>  <inchikey>  (2481) 
None

>  <smiles>  (2481) 
None

>  <ref_pdb>  (2481) 
A4706a

>  <alias>  (2481) 
None

>  <HIPPO Pose ID>  (2481) 
500125

>  <name>  (2481) 
P500125

>  <HIPPO Compound ID>  (2481) 
314536

>  <ref_mols>  (2481) 
A4706a,A0875a

>  <distance_score>  (2481) 
1.892885

>  <inspiration_score>  (2481) 
None

$$$$
P500126
     RDKit          3D

 26 29  0  0  0  0  0  0  0  0999 V2000
   10.7178   14.8059   18.7674 C   0  0  0  0  0  0  0  0  0  0  0  0
    9.6613   14.8189   19.7149 O   0  0  0  0  0  0  0  0  0  0  0  0
    9.7524   15.7325   20.8255 C   0  0  2  0  0  0  0  0  0  0  0  0
   11.1685   15.9737   21.3928 C   0  0  0  0  0  0  0  0  0  0  0  0
   10.8510   14.8552   22.2870 C   0  0  0  0  0  0  0  0  0  0  0  0
   11.8087   14.3748   23.2988 C   0  0  0  0  0  0  0  0  0  0  0  0
   11.3682   13.4610   22.1956 C   0  0  0  0  0  0  0  0  0  0  0  0
    9.3923   15.1857   22.2479 C   0  0  2  0  0  0  0  0  0  0  0  0
    8.4532   14.0915   22.4362 O   0  0  0  0  0  0  0  0  0  0  0  0
    7.2197   14.5020   22.8331 C   0  0  0  0  0  0  0  0  0  0  0  0
    6.6387   15.4628   22.3436 O   0  0  0  0  0  0  0  0  0  0  0  0
    6.6265   13.7029   24.0137 C   0  0  0  0  0  0  0  0  0  0  0  0
    7.3891   12.4123   24.3821 C   0  0  0  0  0  0  0  0  0  0  0  0
    7.4958   12.0884   25.8521 C   0  0  0  0  0  0  0  0  0  0  0  0
    7.8540   13.2742   26.6168 N   0  0  0  0  0  0  0  0  0  0  0  0
    9.2998   14.1009   26.3673 S   0  0  0  0  0  0  0  0  0  0  0  0
    9.3997   15.0256   27.4699 O   0  0  0  0  0  0  0  0  0  0  0  0
    9.3265   14.6102   25.0240 O   0  0  0  0  0  0  0  0  0  0  0  0
   10.5949   13.0016   26.5365 N   0  0  0  0  0  0  0  0  0  0  0  0
   11.8152   13.7574   26.9669 C   0  0  0  0  0  0  0  0  0  0  0  0
   13.1598   13.1834   26.5504 C   0  0  0  0  0  0  0  0  0  0  0  0
   13.1559   11.7166   26.4730 C   0  0  0  0  0  0  0  0  0  0  0  0
   12.1681   11.3799   25.3953 C   0  0  0  0  0  0  0  0  0  0  0  0
   10.7663   11.9720   25.4942 C   0  0  0  0  0  0  0  0  0  0  0  0
    6.6700   14.1879   26.5942 C   0  0  0  0  0  0  0  0  0  0  0  0
    6.4009   14.7025   25.1801 C   0  0  0  0  0  0  0  0  0  0  0  0
  1  2  1  0
  3  2  1  6
  3  4  1  0
  4  5  1  0
  5  6  1  0
  6  7  1  0
  5  8  1  0
  8  9  1  6
  9 10  1  0
 10 11  2  0
 10 12  1  0
 12 13  1  0
 13 14  1  0
 14 15  1  0
 15 16  1  0
 16 17  2  0
 16 18  2  0
 16 19  1  0
 19 20  1  0
 20 21  1  0
 21 22  1  0
 22 23  1  0
 23 24  1  0
 15 25  1  0
 25 26  1  0
  8  3  1  0
 26 12  1  0
  7  5  1  0
 24 19  1  0
M  END
>  <energy_score>  (2482) 
-26.651758

>  <inchikey>  (2482) 
None

>  <smiles>  (2482) 
None

>  <ref_pdb>  (2482) 
A4706a

>  <alias>  (2482) 
None

>  <HIPPO Pose ID>  (2482) 
500126

>  <name>  (2482) 
P500126

>  <HIPPO Compound ID>  (2482) 
314537

>  <ref_mols>  (2482) 
A4706a,A0875a

>  <distance_score>  (2482) 
1.597371

>  <inspiration_score>  (2482) 
None

$$$$
P500127
     RDKit          3D

 26 29  0  0  0  0  0  0  0  0999 V2000
   10.0499   15.2602   18.4136 C   0  0  0  0  0  0  0  0  0  0  0  0
    9.5474   15.8194   19.6053 O   0  0  0  0  0  0  0  0  0  0  0  0
    9.8954   15.0142   20.7175 C   0  0  1  0  0  0  0  0  0  0  0  0
   11.4171   15.1311   21.0122 C   0  0  0  0  0  0  0  0  0  0  0  0
   10.9685   14.7746   22.3526 C   0  0  0  0  0  0  0  0  0  0  0  0
   11.1020   13.3483   22.7380 C   0  0  0  0  0  0  0  0  0  0  0  0
   11.7981   14.4487   23.5081 C   0  0  0  0  0  0  0  0  0  0  0  0
    9.6659   15.5112   22.1494 C   0  0  2  0  0  0  0  0  0  0  0  0
    8.5174   15.2171   22.9821 O   0  0  0  0  0  0  0  0  0  0  0  0
    7.6519   14.2148   22.7450 C   0  0  0  0  0  0  0  0  0  0  0  0
    7.5440   13.5900   21.6959 O   0  0  0  0  0  0  0  0  0  0  0  0
    6.8209   13.7929   23.9810 C   0  0  0  0  0  0  0  0  0  0  0  0
    7.3645   12.4234   24.4554 C   0  0  0  0  0  0  0  0  0  0  0  0
    7.5284   12.1735   25.9374 C   0  0  0  0  0  0  0  0  0  0  0  0
    7.8517   13.3887   26.6676 N   0  0  0  0  0  0  0  0  0  0  0  0
    9.3408   14.1510   26.5514 S   0  0  0  0  0  0  0  0  0  0  0  0
    9.3909   15.0638   27.6653 O   0  0  0  0  0  0  0  0  0  0  0  0
    9.4782   14.6600   25.2191 O   0  0  0  0  0  0  0  0  0  0  0  0
   10.5888   12.9923   26.7890 N   0  0  0  0  0  0  0  0  0  0  0  0
   11.7942   13.7094   27.3031 C   0  0  0  0  0  0  0  0  0  0  0  0
   13.0365   12.8406   27.3933 C   0  0  0  0  0  0  0  0  0  0  0  0
   13.4424   12.3688   26.0342 C   0  0  0  0  0  0  0  0  0  0  0  0
   12.2836   11.7265   25.3238 C   0  0  0  0  0  0  0  0  0  0  0  0
   10.8359   12.0832   25.6517 C   0  0  0  0  0  0  0  0  0  0  0  0
    6.7115   14.3458   26.5128 C   0  0  0  0  0  0  0  0  0  0  0  0
    6.6090   14.8584   25.0733 C   0  0  0  0  0  0  0  0  0  0  0  0
  1  2  1  0
  3  2  1  6
  3  4  1  0
  4  5  1  0
  5  6  1  0
  6  7  1  0
  5  8  1  0
  8  9  1  1
  9 10  1  0
 10 11  2  0
 10 12  1  0
 12 13  1  0
 13 14  1  0
 14 15  1  0
 15 16  1  0
 16 17  2  0
 16 18  2  0
 16 19  1  0
 19 20  1  0
 20 21  1  0
 21 22  1  0
 22 23  1  0
 23 24  1  0
 15 25  1  0
 25 26  1  0
  8  3  1  0
 26 12  1  0
  7  5  1  0
 24 19  1  0
M  END
>  <energy_score>  (2483) 
-14.028961

>  <inchikey>  (2483) 
None

>  <smiles>  (2483) 
None

>  <ref_pdb>  (2483) 
A4706a

>  <alias>  (2483) 
None

>  <HIPPO Pose ID>  (2483) 
500127

>  <name>  (2483) 
P500127

>  <HIPPO Compound ID>  (2483) 
314537

>  <ref_mols>  (2483) 
A4706a,A0875a

>  <distance_score>  (2483) 
1.501597

>  <inspiration_score>  (2483) 
None

$$$$
P500128
     RDKit          3D

 26 29  0  0  0  0  0  0  0  0999 V2000
   10.9586   14.6997   18.7023 C   0  0  0  0  0  0  0  0  0  0  0  0
   10.0704   15.6029   19.3215 O   0  0  0  0  0  0  0  0  0  0  0  0
    9.2381   15.1637   20.4312 C   0  0  2  0  0  0  0  0  0  0  0  0
    9.2918   16.1898   21.5908 C   0  0  0  0  0  0  0  0  0  0  0  0
   10.3551   15.2967   22.0993 C   0  0  0  0  0  0  0  0  0  0  0  0
   11.2189   15.3705   23.2837 C   0  0  0  0  0  0  0  0  0  0  0  0
   11.8076   15.6451   21.9385 C   0  0  0  0  0  0  0  0  0  0  0  0
    9.7003   14.1207   21.4779 C   0  0  1  0  0  0  0  0  0  0  0  0
    8.7785   13.3692   22.3145 O   0  0  0  0  0  0  0  0  0  0  0  0
    7.4871   13.7885   22.5133 C   0  0  0  0  0  0  0  0  0  0  0  0
    6.6776   14.0353   21.6403 O   0  0  0  0  0  0  0  0  0  0  0  0
    7.2249   13.7855   23.9971 C   0  0  0  0  0  0  0  0  0  0  0  0
    6.7461   12.4878   24.6433 C   0  0  0  0  0  0  0  0  0  0  0  0
    7.0616   12.4912   26.1535 C   0  0  0  0  0  0  0  0  0  0  0  0
    7.5089   13.8268   26.5925 N   0  0  0  0  0  0  0  0  0  0  0  0
    9.1094   14.3616   26.6744 S   0  0  0  0  0  0  0  0  0  0  0  0
    9.3075   14.8159   28.0261 O   0  0  0  0  0  0  0  0  0  0  0  0
    9.3547   15.2685   25.5771 O   0  0  0  0  0  0  0  0  0  0  0  0
   10.1777   13.0465   26.4456 N   0  0  0  0  0  0  0  0  0  0  0  0
   10.0847   12.4101   25.1274 C   0  0  0  0  0  0  0  0  0  0  0  0
   10.9776   11.2199   25.0487 C   0  0  0  0  0  0  0  0  0  0  0  0
   12.4319   11.6598   25.2300 C   0  0  0  0  0  0  0  0  0  0  0  0
   12.6454   12.4818   26.4848 C   0  0  0  0  0  0  0  0  0  0  0  0
   11.5833   13.5551   26.6723 C   0  0  0  0  0  0  0  0  0  0  0  0
    6.5375   14.8843   26.1558 C   0  0  0  0  0  0  0  0  0  0  0  0
    6.4848   14.9666   24.6134 C   0  0  0  0  0  0  0  0  0  0  0  0
  1  2  1  0
  3  2  1  6
  3  4  1  0
  4  5  1  0
  5  6  1  0
  6  7  1  0
  5  8  1  0
  8  9  1  1
  9 10  1  0
 10 11  2  0
 10 12  1  0
 12 13  1  0
 13 14  1  0
 14 15  1  0
 15 16  1  0
 16 17  2  0
 16 18  2  0
 16 19  1  0
 19 20  1  0
 20 21  1  0
 21 22  1  0
 22 23  1  0
 23 24  1  0
 15 25  1  0
 25 26  1  0
  8  3  1  0
 26 12  1  0
  7  5  1  0
 24 19  1  0
M  END
>  <energy_score>  (2484) 
-17.851868

>  <inchikey>  (2484) 
None

>  <smiles>  (2484) 
None

>  <ref_pdb>  (2484) 
A4706a

>  <alias>  (2484) 
None

>  <HIPPO Pose ID>  (2484) 
500128

>  <name>  (2484) 
P500128

>  <HIPPO Compound ID>  (2484) 
314537

>  <ref_mols>  (2484) 
A4706a,A0875a

>  <distance_score>  (2484) 
1.647065

>  <inspiration_score>  (2484) 
None

$$$$
P500129
     RDKit          3D

 26 29  0  0  0  0  0  0  0  0999 V2000
   10.9194   15.2607   18.3974 C   0  0  0  0  0  0  0  0  0  0  0  0
    9.8654   15.6134   19.3032 O   0  0  0  0  0  0  0  0  0  0  0  0
   10.1427   14.9728   20.5406 C   0  0  1  0  0  0  0  0  0  0  0  0
   11.0796   15.7500   21.4633 C   0  0  0  0  0  0  0  0  0  0  0  0
   10.6288   14.7379   22.4123 C   0  0  0  0  0  0  0  0  0  0  0  0
   11.3199   13.4179   22.6368 C   0  0  0  0  0  0  0  0  0  0  0  0
   11.2490   14.4602   23.6984 C   0  0  0  0  0  0  0  0  0  0  0  0
    9.2589   14.6637   21.7575 C   0  0  1  0  0  0  0  0  0  0  0  0
    8.2167   15.4775   22.3599 O   0  0  0  0  0  0  0  0  0  0  0  0
    7.0738   14.7504   22.5922 C   0  0  0  0  0  0  0  0  0  0  0  0
    6.5899   13.9959   21.7480 O   0  0  0  0  0  0  0  0  0  0  0  0
    6.4591   14.8824   24.0198 C   0  0  0  0  0  0  0  0  0  0  0  0
    5.7987   13.5129   24.4062 C   0  0  0  0  0  0  0  0  0  0  0  0
    6.0260   12.9709   25.8213 C   0  0  0  0  0  0  0  0  0  0  0  0
    7.4264   13.2423   26.2792 N   0  0  0  0  0  0  0  0  0  0  0  0
    8.5434   12.4002   25.3351 S   0  0  0  0  0  0  0  0  0  0  0  0
    8.0751   11.0372   25.2644 O   0  0  0  0  0  0  0  0  0  0  0  0
    8.7217   13.1297   24.1117 O   0  0  0  0  0  0  0  0  0  0  0  0
   10.0438   12.3127   26.0894 N   0  0  0  0  0  0  0  0  0  0  0  0
   10.5876   13.4667   26.7995 C   0  0  0  0  0  0  0  0  0  0  0  0
   12.0894   13.6002   26.8126 C   0  0  0  0  0  0  0  0  0  0  0  0
   12.8936   12.3391   26.6696 C   0  0  0  0  0  0  0  0  0  0  0  0
   12.4419   11.6411   25.4191 C   0  0  0  0  0  0  0  0  0  0  0  0
   10.9406   11.4127   25.3052 C   0  0  0  0  0  0  0  0  0  0  0  0
    7.5080   14.7122   26.4222 C   0  0  0  0  0  0  0  0  0  0  0  0
    7.4295   15.4400   25.0845 C   0  0  0  0  0  0  0  0  0  0  0  0
  1  2  1  0
  3  2  1  6
  3  4  1  0
  4  5  1  0
  5  6  1  0
  6  7  1  0
  5  8  1  0
  8  9  1  1
  9 10  1  0
 10 11  2  0
 10 12  1  0
 12 13  1  0
 13 14  1  0
 14 15  1  0
 15 16  1  0
 16 17  2  0
 16 18  2  0
 16 19  1  0
 19 20  1  0
 20 21  1  0
 21 22  1  0
 22 23  1  0
 23 24  1  0
 15 25  1  0
 25 26  1  0
  8  3  1  0
 26 12  1  0
  7  5  1  0
 24 19  1  0
M  END
>  <energy_score>  (2485) 
-18.929481

>  <inchikey>  (2485) 
None

>  <smiles>  (2485) 
None

>  <ref_pdb>  (2485) 
A4706a

>  <alias>  (2485) 
None

>  <HIPPO Pose ID>  (2485) 
500129

>  <name>  (2485) 
P500129

>  <HIPPO Compound ID>  (2485) 
314537

>  <ref_mols>  (2485) 
A4706a,A0875a

>  <distance_score>  (2485) 
1.734401

>  <inspiration_score>  (2485) 
None

$$$$
P500130
     RDKit          3D

 26 29  0  0  0  0  0  0  0  0999 V2000
    6.1405   13.6609   21.9620 O   0  0  0  0  0  0  0  0  0  0  0  0
    6.7946   13.5512   22.9923 C   0  0  0  0  0  0  0  0  0  0  0  0
    8.0832   13.9425   23.1209 O   0  0  0  0  0  0  0  0  0  0  0  0
    8.4617   14.9906   22.2320 C   0  0  2  0  0  0  0  0  0  0  0  0
    8.6760   14.6029   20.7819 C   0  0  0  0  0  0  0  0  0  0  0  0
    9.6614   15.5645   20.1873 N   0  0  0  0  0  0  0  0  0  0  0  0
   10.9327   14.8553   19.9693 C   0  0  0  0  0  0  0  0  0  0  0  0
   11.6580   14.5013   21.2878 C   0  0  0  0  0  0  0  0  0  0  0  0
   10.8325   14.4827   22.4570 O   0  0  0  0  0  0  0  0  0  0  0  0
    9.8478   15.5386   22.4998 C   0  0  1  0  0  0  0  0  0  0  0  0
    9.9279   16.4883   21.3140 C   0  0  0  0  0  0  0  0  0  0  0  0
    6.1974   12.9490   24.2535 C   0  0  0  0  0  0  0  0  0  0  0  0
    7.0588   11.8444   24.8902 C   0  0  0  0  0  0  0  0  0  0  0  0
    7.8001   12.3353   26.1238 C   0  0  0  0  0  0  0  0  0  0  0  0
    8.2007   13.7047   25.8192 N   0  0  0  0  0  0  0  0  0  0  0  0
    9.5178   14.3553   26.5625 S   0  0  0  0  0  0  0  0  0  0  0  0
    9.9023   15.5296   25.8235 O   0  0  0  0  0  0  0  0  0  0  0  0
    9.1515   14.4317   27.9508 O   0  0  0  0  0  0  0  0  0  0  0  0
   10.7756   13.2264   26.4292 N   0  0  0  0  0  0  0  0  0  0  0  0
   11.2333   13.0890   25.0322 C   0  0  0  0  0  0  0  0  0  0  0  0
   12.3699   12.0979   24.9819 C   0  0  0  0  0  0  0  0  0  0  0  0
   13.5575   12.4471   25.8441 C   0  0  0  0  0  0  0  0  0  0  0  0
   13.1102   12.7805   27.2475 C   0  0  0  0  0  0  0  0  0  0  0  0
   11.9012   13.7096   27.2901 C   0  0  0  0  0  0  0  0  0  0  0  0
    7.0504   14.6601   25.8679 C   0  0  0  0  0  0  0  0  0  0  0  0
    5.8197   14.0439   25.2381 C   0  0  0  0  0  0  0  0  0  0  0  0
  1  2  2  0
  2  3  1  0
  4  3  1  1
  4  5  1  0
  6  5  1  0
  6  7  1  0
  7  8  1  0
  8  9  1  0
 10  9  1  6
 10 11  1  0
  2 12  1  0
 12 13  1  0
 13 14  1  0
 14 15  1  0
 15 16  1  0
 16 17  2  0
 16 18  2  0
 16 19  1  0
 19 20  1  0
 20 21  1  0
 21 22  1  0
 22 23  1  0
 23 24  1  0
 15 25  1  0
 25 26  1  0
 10  4  1  0
 26 12  1  0
 11  6  1  0
 24 19  1  0
M  END
>  <energy_score>  (2486) 
-78.160828

>  <inchikey>  (2486) 
None

>  <smiles>  (2486) 
None

>  <ref_pdb>  (2486) 
A4706a

>  <alias>  (2486) 
None

>  <HIPPO Pose ID>  (2486) 
500130

>  <name>  (2486) 
P500130

>  <HIPPO Compound ID>  (2486) 
314538

>  <ref_mols>  (2486) 
A4706a,A0875a

>  <distance_score>  (2486) 
1.824137

>  <inspiration_score>  (2486) 
None

$$$$
P500131
     RDKit          3D

 26 29  0  0  0  0  0  0  0  0999 V2000
    5.8164   14.5344   22.0021 O   0  0  0  0  0  0  0  0  0  0  0  0
    6.4291   14.9195   22.9954 C   0  0  0  0  0  0  0  0  0  0  0  0
    7.5613   15.6773   22.9545 O   0  0  0  0  0  0  0  0  0  0  0  0
    8.2397   15.6624   21.6947 C   0  0  2  0  0  0  0  0  0  0  0  0
    8.6641   14.2638   21.2608 C   0  0  0  0  0  0  0  0  0  0  0  0
    9.9019   14.3682   20.4427 N   0  0  0  0  0  0  0  0  0  0  0  0
   11.0930   14.0692   21.2803 C   0  0  0  0  0  0  0  0  0  0  0  0
   11.5677   15.2276   22.1610 C   0  0  0  0  0  0  0  0  0  0  0  0
   10.4928   16.0627   22.5595 O   0  0  0  0  0  0  0  0  0  0  0  0
    9.5720   16.3942   21.4958 C   0  0  1  0  0  0  0  0  0  0  0  0
    9.9918   15.8013   20.1390 C   0  0  0  0  0  0  0  0  0  0  0  0
    6.0136   14.4696   24.3969 C   0  0  0  0  0  0  0  0  0  0  0  0
    6.5265   13.0111   24.5403 C   0  0  0  0  0  0  0  0  0  0  0  0
    6.9852   12.5971   25.9243 C   0  0  0  0  0  0  0  0  0  0  0  0
    7.7599   13.6707   26.5589 N   0  0  0  0  0  0  0  0  0  0  0  0
    9.2255   14.2265   25.9243 S   0  0  0  0  0  0  0  0  0  0  0  0
    9.0678   14.5806   24.5447 O   0  0  0  0  0  0  0  0  0  0  0  0
    9.7344   15.1786   26.8811 O   0  0  0  0  0  0  0  0  0  0  0  0
   10.2991   12.9400   25.8914 N   0  0  0  0  0  0  0  0  0  0  0  0
   10.0843   11.9778   24.7841 C   0  0  0  0  0  0  0  0  0  0  0  0
   10.9292   10.7667   25.0939 C   0  0  0  0  0  0  0  0  0  0  0  0
   12.3803   11.1949   25.4569 C   0  0  0  0  0  0  0  0  0  0  0  0
   12.6629   12.6287   25.0828 C   0  0  0  0  0  0  0  0  0  0  0  0
   11.6988   13.5069   25.8612 C   0  0  0  0  0  0  0  0  0  0  0  0
    6.8150   14.7968   26.8317 C   0  0  0  0  0  0  0  0  0  0  0  0
    6.3757   15.4522   25.5245 C   0  0  0  0  0  0  0  0  0  0  0  0
  1  2  2  0
  2  3  1  0
  4  3  1  1
  4  5  1  0
  6  5  1  0
  6  7  1  0
  7  8  1  0
  8  9  1  0
 10  9  1  1
 10 11  1  0
  2 12  1  0
 12 13  1  0
 13 14  1  0
 14 15  1  0
 15 16  1  0
 16 17  2  0
 16 18  2  0
 16 19  1  0
 19 20  1  0
 20 21  1  0
 21 22  1  0
 22 23  1  0
 23 24  1  0
 15 25  1  0
 25 26  1  0
 10  4  1  0
 26 12  1  0
 11  6  1  0
 24 19  1  0
M  END
>  <energy_score>  (2487) 
-46.111956

>  <inchikey>  (2487) 
None

>  <smiles>  (2487) 
None

>  <ref_pdb>  (2487) 
A4706a

>  <alias>  (2487) 
None

>  <HIPPO Pose ID>  (2487) 
500131

>  <name>  (2487) 
P500131

>  <HIPPO Compound ID>  (2487) 
314538

>  <ref_mols>  (2487) 
A4706a,A0875a

>  <distance_score>  (2487) 
1.585311

>  <inspiration_score>  (2487) 
None

$$$$
P500132
     RDKit          3D

 26 29  0  0  0  0  0  0  0  0999 V2000
    5.7911   14.6426   22.0386 O   0  0  0  0  0  0  0  0  0  0  0  0
    6.4466   14.9492   23.0312 C   0  0  0  0  0  0  0  0  0  0  0  0
    7.6266   15.6288   23.0005 O   0  0  0  0  0  0  0  0  0  0  0  0
    8.2685   15.6600   21.7246 C   0  0  2  0  0  0  0  0  0  0  0  0
    8.6583   14.2642   21.2584 C   0  0  0  0  0  0  0  0  0  0  0  0
    9.9065   14.3549   20.4588 N   0  0  0  0  0  0  0  0  0  0  0  0
   11.0778   14.0185   21.3099 C   0  0  0  0  0  0  0  0  0  0  0  0
   11.5742   15.1483   22.2146 C   0  0  0  0  0  0  0  0  0  0  0  0
   10.5312   16.0287   22.5963 O   0  0  0  0  0  0  0  0  0  0  0  0
    9.6128   16.3724   21.5344 C   0  0  1  0  0  0  0  0  0  0  0  0
   10.0282   15.7890   20.1746 C   0  0  0  0  0  0  0  0  0  0  0  0
    6.0373   14.4845   24.4270 C   0  0  0  0  0  0  0  0  0  0  0  0
    6.6124   13.0540   24.5812 C   0  0  0  0  0  0  0  0  0  0  0  0
    7.0490   12.6555   25.9780 C   0  0  0  0  0  0  0  0  0  0  0  0
    7.7416   13.7620   26.6499 N   0  0  0  0  0  0  0  0  0  0  0  0
    9.2415   14.3422   26.1235 S   0  0  0  0  0  0  0  0  0  0  0  0
    9.6852   15.2745   27.1283 O   0  0  0  0  0  0  0  0  0  0  0  0
    9.1705   14.7287   24.7438 O   0  0  0  0  0  0  0  0  0  0  0  0
   10.2893   13.0114   26.1579 N   0  0  0  0  0  0  0  0  0  0  0  0
   10.1943   12.2321   24.8974 C   0  0  0  0  0  0  0  0  0  0  0  0
   10.9929   10.9818   25.0698 C   0  0  0  0  0  0  0  0  0  0  0  0
   12.4721   11.3844   25.2817 C   0  0  0  0  0  0  0  0  0  0  0  0
   12.6906   12.3613   26.4180 C   0  0  0  0  0  0  0  0  0  0  0  0
   11.6941   13.5042   26.3529 C   0  0  0  0  0  0  0  0  0  0  0  0
    6.7553   14.8587   26.8706 C   0  0  0  0  0  0  0  0  0  0  0  0
    6.3587   15.4917   25.5417 C   0  0  0  0  0  0  0  0  0  0  0  0
  1  2  2  0
  2  3  1  0
  4  3  1  1
  4  5  1  0
  6  5  1  0
  6  7  1  0
  7  8  1  0
  8  9  1  0
 10  9  1  1
 10 11  1  0
  2 12  1  0
 12 13  1  0
 13 14  1  0
 14 15  1  0
 15 16  1  0
 16 17  2  0
 16 18  2  0
 16 19  1  0
 19 20  1  0
 20 21  1  0
 21 22  1  0
 22 23  1  0
 23 24  1  0
 15 25  1  0
 25 26  1  0
 10  4  1  0
 26 12  1  0
 11  6  1  0
 24 19  1  0
M  END
>  <energy_score>  (2488) 
-43.863587

>  <inchikey>  (2488) 
None

>  <smiles>  (2488) 
None

>  <ref_pdb>  (2488) 
A4706a

>  <alias>  (2488) 
None

>  <HIPPO Pose ID>  (2488) 
500132

>  <name>  (2488) 
P500132

>  <HIPPO Compound ID>  (2488) 
314538

>  <ref_mols>  (2488) 
A4706a,A0875a

>  <distance_score>  (2488) 
1.679385

>  <inspiration_score>  (2488) 
None

$$$$
P500133
     RDKit          3D

 26 29  0  0  0  0  0  0  0  0999 V2000
    6.7429   15.4554   24.0840 O   0  0  0  0  0  0  0  0  0  0  0  0
    7.0300   14.3129   23.7527 C   0  0  0  0  0  0  0  0  0  0  0  0
    7.7943   13.9695   22.6774 O   0  0  0  0  0  0  0  0  0  0  0  0
    8.3681   15.0779   21.9819 C   0  0  2  0  0  0  0  0  0  0  0  0
    8.7739   14.6710   20.5855 C   0  0  0  0  0  0  0  0  0  0  0  0
    9.8407   15.6000   20.1025 N   0  0  0  0  0  0  0  0  0  0  0  0
   11.0988   14.8343   20.0389 C   0  0  0  0  0  0  0  0  0  0  0  0
   11.6498   14.4569   21.4334 C   0  0  0  0  0  0  0  0  0  0  0  0
   10.6925   14.4753   22.4930 O   0  0  0  0  0  0  0  0  0  0  0  0
    9.7378   15.5643   22.4217 C   0  0  1  0  0  0  0  0  0  0  0  0
   10.0090   16.5094   21.2620 C   0  0  0  0  0  0  0  0  0  0  0  0
    6.4879   13.0729   24.4539 C   0  0  0  0  0  0  0  0  0  0  0  0
    7.5147   11.9363   24.5858 C   0  0  0  0  0  0  0  0  0  0  0  0
    8.0448   11.7450   25.9888 C   0  0  0  0  0  0  0  0  0  0  0  0
    8.2589   13.0269   26.6403 N   0  0  0  0  0  0  0  0  0  0  0  0
    9.5874   13.9735   26.2667 S   0  0  0  0  0  0  0  0  0  0  0  0
    9.4731   14.3900   24.9037 O   0  0  0  0  0  0  0  0  0  0  0  0
    9.6654   14.9449   27.3296 O   0  0  0  0  0  0  0  0  0  0  0  0
   10.9442   12.9454   26.3887 N   0  0  0  0  0  0  0  0  0  0  0  0
   12.0725   13.7012   27.0161 C   0  0  0  0  0  0  0  0  0  0  0  0
   13.4557   13.1310   26.6772 C   0  0  0  0  0  0  0  0  0  0  0  0
   13.4075   11.6616   26.5811 C   0  0  0  0  0  0  0  0  0  0  0  0
   12.5285   11.3357   25.3938 C   0  0  0  0  0  0  0  0  0  0  0  0
   11.3794   12.3222   25.1138 C   0  0  0  0  0  0  0  0  0  0  0  0
    7.0006   13.8172   26.8295 C   0  0  0  0  0  0  0  0  0  0  0  0
    5.9147   13.4281   25.8280 C   0  0  0  0  0  0  0  0  0  0  0  0
  1  2  2  0
  2  3  1  0
  4  3  1  1
  4  5  1  0
  6  5  1  0
  6  7  1  0
  7  8  1  0
  8  9  1  0
 10  9  1  6
 10 11  1  0
  2 12  1  0
 12 13  1  0
 13 14  1  0
 14 15  1  0
 15 16  1  0
 16 17  2  0
 16 18  2  0
 16 19  1  0
 19 20  1  0
 20 21  1  0
 21 22  1  0
 22 23  1  0
 23 24  1  0
 15 25  1  0
 25 26  1  0
 10  4  1  0
 26 12  1  0
 11  6  1  0
 24 19  1  0
M  END
>  <energy_score>  (2489) 
-30.187025

>  <inchikey>  (2489) 
None

>  <smiles>  (2489) 
None

>  <ref_pdb>  (2489) 
A4706a

>  <alias>  (2489) 
None

>  <HIPPO Pose ID>  (2489) 
500133

>  <name>  (2489) 
P500133

>  <HIPPO Compound ID>  (2489) 
314538

>  <ref_mols>  (2489) 
A4706a,A0875a

>  <distance_score>  (2489) 
1.820613

>  <inspiration_score>  (2489) 
None

$$$$
P500134
     RDKit          3D

 26 28  0  0  0  0  0  0  0  0999 V2000
   10.1002   15.2828   19.0579 C   0  0  0  0  0  0  0  0  0  0  0  0
    9.9081   15.7192   20.5281 C   0  0  0  0  0  0  0  0  0  0  0  0
    9.2520   17.0801   20.6080 C   0  0  0  0  0  0  0  0  0  0  0  0
   11.2532   15.8898   21.0171 O   0  0  0  0  0  0  0  0  0  0  0  0
   11.7080   14.6175   21.4253 C   0  0  0  0  0  0  0  0  0  0  0  0
   10.5031   13.9904   22.0813 C   0  0  2  0  0  0  0  0  0  0  0  0
   10.5140   12.5432   22.2578 N   0  0  0  0  0  0  0  0  0  0  0  0
    9.2703   14.5884   21.3917 C   0  0  1  0  0  0  0  0  0  0  0  0
    8.3182   14.9400   22.4517 O   0  0  0  0  0  0  0  0  0  0  0  0
    7.3695   14.0035   22.7231 C   0  0  0  0  0  0  0  0  0  0  0  0
    7.0454   13.1144   21.9352 O   0  0  0  0  0  0  0  0  0  0  0  0
    6.7294   13.9877   24.1179 C   0  0  0  0  0  0  0  0  0  0  0  0
    7.0777   12.6481   24.8057 C   0  0  0  0  0  0  0  0  0  0  0  0
    8.5134   12.6790   25.3163 C   0  0  0  0  0  0  0  0  0  0  0  0
    8.7855   13.8194   26.2238 N   0  0  0  0  0  0  0  0  0  0  0  0
   10.1617   14.7808   25.9804 S   0  0  0  0  0  0  0  0  0  0  0  0
   10.0748   15.3811   24.6834 O   0  0  0  0  0  0  0  0  0  0  0  0
   10.2149   15.6497   27.1298 O   0  0  0  0  0  0  0  0  0  0  0  0
   11.5304   13.8062   26.0459 N   0  0  0  0  0  0  0  0  0  0  0  0
   11.8485   13.3050   27.3606 C   0  0  0  0  0  0  0  0  0  0  0  0
   13.2965   12.8560   27.5333 C   0  0  0  0  0  0  0  0  0  0  0  0
   13.9524   12.3049   26.2874 C   0  0  0  0  0  0  0  0  0  0  0  0
   12.9071   11.8406   25.3157 C   0  0  0  0  0  0  0  0  0  0  0  0
   11.9063   12.9300   24.9358 C   0  0  0  0  0  0  0  0  0  0  0  0
    7.5633   14.6771   26.4243 C   0  0  0  0  0  0  0  0  0  0  0  0
    6.9926   15.1443   25.0784 C   0  0  0  0  0  0  0  0  0  0  0  0
  1  2  1  0
  2  3  1  0
  2  4  1  0
  4  5  1  0
  5  6  1  0
  6  7  1  6
  6  8  1  0
  8  9  1  1
  9 10  1  0
 10 11  2  0
 10 12  1  0
 12 13  1  0
 13 14  1  0
 14 15  1  0
 15 16  1  0
 16 17  2  0
 16 18  2  0
 16 19  1  0
 19 20  1  0
 20 21  1  0
 21 22  1  0
 22 23  1  0
 23 24  1  0
 15 25  1  0
 25 26  1  0
  8  2  1  0
 26 12  1  0
 24 19  1  0
M  END
>  <energy_score>  (2490) 
-42.512879

>  <inchikey>  (2490) 
None

>  <smiles>  (2490) 
None

>  <ref_pdb>  (2490) 
A4706a

>  <alias>  (2490) 
None

>  <HIPPO Pose ID>  (2490) 
500134

>  <name>  (2490) 
P500134

>  <HIPPO Compound ID>  (2490) 
314539

>  <ref_mols>  (2490) 
A0875a,A4706a

>  <distance_score>  (2490) 
1.662612

>  <inspiration_score>  (2490) 
None

$$$$
P500135
     RDKit          3D

 26 28  0  0  0  0  0  0  0  0999 V2000
   10.0243   15.1938   18.9105 C   0  0  0  0  0  0  0  0  0  0  0  0
   10.0229   15.6587   20.3668 C   0  0  0  0  0  0  0  0  0  0  0  0
    9.3261   16.9872   20.5537 C   0  0  0  0  0  0  0  0  0  0  0  0
   11.4168   15.9256   20.5797 O   0  0  0  0  0  0  0  0  0  0  0  0
   12.0138   14.7606   21.1000 C   0  0  0  0  0  0  0  0  0  0  0  0
   11.0108   14.3346   22.1263 C   0  0  1  0  0  0  0  0  0  0  0  0
   11.2206   15.2539   23.2632 N   0  0  0  0  0  0  0  0  0  0  0  0
    9.6670   14.5635   21.4017 C   0  0  1  0  0  0  0  0  0  0  0  0
    8.6811   14.8590   22.4287 O   0  0  0  0  0  0  0  0  0  0  0  0
    7.5286   14.1515   22.3414 C   0  0  0  0  0  0  0  0  0  0  0  0
    6.9403   13.9445   21.2907 O   0  0  0  0  0  0  0  0  0  0  0  0
    7.0664   13.5264   23.6544 C   0  0  0  0  0  0  0  0  0  0  0  0
    8.0824   12.4181   23.9884 C   0  0  0  0  0  0  0  0  0  0  0  0
    7.9923   11.9153   25.4086 C   0  0  0  0  0  0  0  0  0  0  0  0
    8.1210   13.0508   26.3169 N   0  0  0  0  0  0  0  0  0  0  0  0
    9.5304   13.9690   26.3689 S   0  0  0  0  0  0  0  0  0  0  0  0
    9.4677   14.6794   27.6227 O   0  0  0  0  0  0  0  0  0  0  0  0
    9.6232   14.7318   25.1526 O   0  0  0  0  0  0  0  0  0  0  0  0
   10.8825   12.9198   26.4456 N   0  0  0  0  0  0  0  0  0  0  0  0
   12.0221   13.6974   27.0560 C   0  0  0  0  0  0  0  0  0  0  0  0
   13.4104   13.1452   26.7112 C   0  0  0  0  0  0  0  0  0  0  0  0
   13.3996   11.6744   26.6249 C   0  0  0  0  0  0  0  0  0  0  0  0
   12.5237   11.3298   25.4440 C   0  0  0  0  0  0  0  0  0  0  0  0
   11.3397   12.2774   25.1916 C   0  0  0  0  0  0  0  0  0  0  0  0
    6.8938   13.9125   26.1913 C   0  0  0  0  0  0  0  0  0  0  0  0
    6.7828   14.5257   24.7851 C   0  0  0  0  0  0  0  0  0  0  0  0
  1  2  1  0
  2  3  1  0
  2  4  1  0
  4  5  1  0
  5  6  1  0
  6  7  1  1
  6  8  1  0
  8  9  1  1
  9 10  1  0
 10 11  2  0
 10 12  1  0
 12 13  1  0
 13 14  1  0
 14 15  1  0
 15 16  1  0
 16 17  2  0
 16 18  2  0
 16 19  1  0
 19 20  1  0
 20 21  1  0
 21 22  1  0
 22 23  1  0
 23 24  1  0
 15 25  1  0
 25 26  1  0
  8  2  1  0
 26 12  1  0
 24 19  1  0
M  END
>  <energy_score>  (2491) 
-25.545194

>  <inchikey>  (2491) 
None

>  <smiles>  (2491) 
None

>  <ref_pdb>  (2491) 
A4706a

>  <alias>  (2491) 
None

>  <HIPPO Pose ID>  (2491) 
500135

>  <name>  (2491) 
P500135

>  <HIPPO Compound ID>  (2491) 
314539

>  <ref_mols>  (2491) 
A4706a,A0875a

>  <distance_score>  (2491) 
1.566558

>  <inspiration_score>  (2491) 
None

$$$$
P500136
     RDKit          3D

 26 27  0  0  0  0  0  0  0  0999 V2000
    8.8533   17.2476   20.6620 C   0  0  0  0  0  0  0  0  0  0  0  0
    9.0497   15.7534   20.9067 C   0  0  2  0  0  0  0  0  0  0  0  0
    8.6520   15.4919   22.2594 O   0  0  0  0  0  0  0  0  0  0  0  0
    7.6971   14.5444   22.4904 C   0  0  0  0  0  0  0  0  0  0  0  0
    6.8679   14.1056   21.7097 O   0  0  0  0  0  0  0  0  0  0  0  0
    7.9130   14.0409   23.8883 C   0  0  0  0  0  0  0  0  0  0  0  0
    8.5505   12.6465   23.7938 C   0  0  0  0  0  0  0  0  0  0  0  0
    8.4838   11.9075   25.1135 C   0  0  0  0  0  0  0  0  0  0  0  0
    8.7034   12.8601   26.2063 N   0  0  0  0  0  0  0  0  0  0  0  0
   10.1816   13.6983   26.3717 S   0  0  0  0  0  0  0  0  0  0  0  0
   10.0783   14.3622   27.6488 O   0  0  0  0  0  0  0  0  0  0  0  0
   10.4658   14.4877   25.2013 O   0  0  0  0  0  0  0  0  0  0  0  0
   11.4410   12.5528   26.5043 N   0  0  0  0  0  0  0  0  0  0  0  0
   12.6346   13.0951   27.2159 C   0  0  0  0  0  0  0  0  0  0  0  0
   13.9483   12.9261   26.4767 C   0  0  0  0  0  0  0  0  0  0  0  0
   14.2105   11.4902   26.2148 C   0  0  0  0  0  0  0  0  0  0  0  0
   13.1391   11.0716   25.2629 C   0  0  0  0  0  0  0  0  0  0  0  0
   11.7331   11.6961   25.3430 C   0  0  0  0  0  0  0  0  0  0  0  0
    7.4697   13.7671   26.3176 C   0  0  0  0  0  0  0  0  0  0  0  0
    6.8155   14.0518   24.9343 C   0  0  0  0  0  0  0  0  0  0  0  0
   10.5399   15.4179   20.7248 C   0  0  2  0  0  0  0  0  0  0  0  0
   10.8810   15.0452   19.2910 C   0  0  0  0  0  0  0  0  0  0  0  0
   10.9711   14.3663   21.5819 O   0  0  0  0  0  0  0  0  0  0  0  0
   11.7174   14.9178   22.6464 C   0  0  0  0  0  0  0  0  0  0  0  0
   12.7610   15.6035   22.1267 F   0  0  0  0  0  0  0  0  0  0  0  0
   12.2502   13.8917   23.3493 F   0  0  0  0  0  0  0  0  0  0  0  0
  2  1  1  1
  2  3  1  0
  3  4  1  0
  4  5  2  0
  4  6  1  0
  6  7  1  0
  7  8  1  0
  8  9  1  0
  9 10  1  0
 10 11  2  0
 10 12  2  0
 10 13  1  0
 13 14  1  0
 14 15  1  0
 15 16  1  0
 16 17  1  0
 17 18  1  0
  9 19  1  0
 19 20  1  0
  2 21  1  0
 21 22  1  6
 21 23  1  0
 23 24  1  0
 24 25  1  0
 24 26  1  0
 20  6  1  0
 18 13  1  0
M  END
>  <energy_score>  (2492) 
-34.175992

>  <inchikey>  (2492) 
None

>  <smiles>  (2492) 
None

>  <ref_pdb>  (2492) 
A4706a

>  <alias>  (2492) 
None

>  <HIPPO Pose ID>  (2492) 
500136

>  <name>  (2492) 
P500136

>  <HIPPO Compound ID>  (2492) 
314541

>  <ref_mols>  (2492) 
A0875a,A4706a

>  <distance_score>  (2492) 
1.558924

>  <inspiration_score>  (2492) 
None

$$$$
P500137
     RDKit          3D

 26 27  0  0  0  0  0  0  0  0999 V2000
    9.4776   16.7014   20.8872 C   0  0  0  0  0  0  0  0  0  0  0  0
    9.2129   15.7017   22.0119 C   0  0  2  0  0  0  0  0  0  0  0  0
    9.9871   14.5338   21.7280 O   0  0  0  0  0  0  0  0  0  0  0  0
   11.3612   14.6694   22.0021 C   0  0  0  0  0  0  0  0  0  0  0  0
   11.5384   15.1609   23.2494 F   0  0  0  0  0  0  0  0  0  0  0  0
   11.9220   15.5347   21.1312 F   0  0  0  0  0  0  0  0  0  0  0  0
    7.6746   15.3962   22.0881 C   0  0  1  0  0  0  0  0  0  0  0  0
    7.3716   14.3279   21.0828 C   0  0  0  0  0  0  0  0  0  0  0  0
    7.1463   15.0984   23.4265 O   0  0  0  0  0  0  0  0  0  0  0  0
    6.4599   13.9619   23.7257 C   0  0  0  0  0  0  0  0  0  0  0  0
    6.2602   13.0078   22.9759 O   0  0  0  0  0  0  0  0  0  0  0  0
    5.8780   13.9329   25.1348 C   0  0  0  0  0  0  0  0  0  0  0  0
    5.9986   12.4902   25.6693 C   0  0  0  0  0  0  0  0  0  0  0  0
    7.4539   12.0846   25.9061 C   0  0  0  0  0  0  0  0  0  0  0  0
    8.2270   13.2107   26.4818 N   0  0  0  0  0  0  0  0  0  0  0  0
    9.4634   13.8919   25.5547 S   0  0  0  0  0  0  0  0  0  0  0  0
    9.2064   13.6615   24.1625 O   0  0  0  0  0  0  0  0  0  0  0  0
    9.7079   15.2041   26.0969 O   0  0  0  0  0  0  0  0  0  0  0  0
   10.7661   12.9127   25.9549 N   0  0  0  0  0  0  0  0  0  0  0  0
   12.0439   13.6549   26.0665 C   0  0  0  0  0  0  0  0  0  0  0  0
   13.0462   13.2036   25.0136 C   0  0  0  0  0  0  0  0  0  0  0  0
   13.4502   11.7682   25.1889 C   0  0  0  0  0  0  0  0  0  0  0  0
   12.2123   11.0207   25.5601 C   0  0  0  0  0  0  0  0  0  0  0  0
   10.8760   11.6548   25.1836 C   0  0  0  0  0  0  0  0  0  0  0  0
    7.3664   14.2116   27.1675 C   0  0  0  0  0  0  0  0  0  0  0  0
    6.4729   14.9164   26.1492 C   0  0  0  0  0  0  0  0  0  0  0  0
  2  1  1  6
  2  3  1  0
  3  4  1  0
  4  5  1  0
  4  6  1  0
  2  7  1  0
  7  8  1  6
  7  9  1  0
  9 10  1  0
 10 11  2  0
 10 12  1  0
 12 13  1  0
 13 14  1  0
 14 15  1  0
 15 16  1  0
 16 17  2  0
 16 18  2  0
 16 19  1  0
 19 20  1  0
 20 21  1  0
 21 22  1  0
 22 23  1  0
 23 24  1  0
 15 25  1  0
 25 26  1  0
 26 12  1  0
 24 19  1  0
M  END
>  <energy_score>  (2493) 
-28.044804

>  <inchikey>  (2493) 
None

>  <smiles>  (2493) 
None

>  <ref_pdb>  (2493) 
A4706a

>  <alias>  (2493) 
None

>  <HIPPO Pose ID>  (2493) 
500137

>  <name>  (2493) 
P500137

>  <HIPPO Compound ID>  (2493) 
314541

>  <ref_mols>  (2493) 
A4706a,A0875a

>  <distance_score>  (2493) 
1.551148

>  <inspiration_score>  (2493) 
None

$$$$
P500138
     RDKit          3D

 26 27  0  0  0  0  0  0  0  0999 V2000
    8.6329   17.0052   21.0074 C   0  0  0  0  0  0  0  0  0  0  0  0
    8.4716   15.5102   21.2760 C   0  0  2  0  0  0  0  0  0  0  0  0
    7.7778   15.3833   22.5534 O   0  0  0  0  0  0  0  0  0  0  0  0
    7.1099   14.2323   22.8187 C   0  0  0  0  0  0  0  0  0  0  0  0
    7.0903   13.2482   22.0803 O   0  0  0  0  0  0  0  0  0  0  0  0
    6.2639   14.2816   24.1050 C   0  0  0  0  0  0  0  0  0  0  0  0
    6.1628   12.8791   24.7341 C   0  0  0  0  0  0  0  0  0  0  0  0
    7.4579   12.4269   25.4068 C   0  0  0  0  0  0  0  0  0  0  0  0
    8.0984   13.5263   26.1782 N   0  0  0  0  0  0  0  0  0  0  0  0
    9.5818   14.1184   25.5917 S   0  0  0  0  0  0  0  0  0  0  0  0
    9.8653   15.3176   26.3411 O   0  0  0  0  0  0  0  0  0  0  0  0
    9.5175   14.1021   24.1595 O   0  0  0  0  0  0  0  0  0  0  0  0
   10.6641   12.9359   26.0686 N   0  0  0  0  0  0  0  0  0  0  0  0
   11.9596   13.4292   26.6025 C   0  0  0  0  0  0  0  0  0  0  0  0
   13.1951   13.1013   25.7577 C   0  0  0  0  0  0  0  0  0  0  0  0
   13.0915   11.8863   24.8936 C   0  0  0  0  0  0  0  0  0  0  0  0
   12.0289   11.0210   25.4637 C   0  0  0  0  0  0  0  0  0  0  0  0
   10.6841   11.6907   25.2819 C   0  0  0  0  0  0  0  0  0  0  0  0
    7.1313   14.6192   26.4848 C   0  0  0  0  0  0  0  0  0  0  0  0
    6.6700   15.2923   25.1885 C   0  0  0  0  0  0  0  0  0  0  0  0
    9.8451   14.8142   21.1857 C   0  0  1  0  0  0  0  0  0  0  0  0
   10.4650   14.9585   19.7879 C   0  0  0  0  0  0  0  0  0  0  0  0
   10.7059   15.4501   22.1213 O   0  0  0  0  0  0  0  0  0  0  0  0
   11.9046   14.7706   22.3440 C   0  0  0  0  0  0  0  0  0  0  0  0
   12.1112   14.7636   23.6761 F   0  0  0  0  0  0  0  0  0  0  0  0
   11.8162   13.4702   21.9826 F   0  0  0  0  0  0  0  0  0  0  0  0
  2  1  1  1
  2  3  1  0
  3  4  1  0
  4  5  2  0
  4  6  1  0
  6  7  1  0
  7  8  1  0
  8  9  1  0
  9 10  1  0
 10 11  2  0
 10 12  2  0
 10 13  1  0
 13 14  1  0
 14 15  1  0
 15 16  1  0
 16 17  1  0
 17 18  1  0
  9 19  1  0
 19 20  1  0
  2 21  1  0
 21 22  1  6
 21 23  1  0
 23 24  1  0
 24 25  1  0
 24 26  1  0
 20  6  1  0
 18 13  1  0
M  END
>  <energy_score>  (2494) 
-57.103558

>  <inchikey>  (2494) 
None

>  <smiles>  (2494) 
None

>  <ref_pdb>  (2494) 
A4706a

>  <alias>  (2494) 
None

>  <HIPPO Pose ID>  (2494) 
500138

>  <name>  (2494) 
P500138

>  <HIPPO Compound ID>  (2494) 
314541

>  <ref_mols>  (2494) 
A4706a,A0875a

>  <distance_score>  (2494) 
1.234627

>  <inspiration_score>  (2494) 
None

$$$$
P500139
     RDKit          3D

 26 27  0  0  0  0  0  0  0  0999 V2000
    6.9928   14.3557   21.3107 C   0  0  0  0  0  0  0  0  0  0  0  0
    7.8765   15.3914   21.9918 C   0  0  1  0  0  0  0  0  0  0  0  0
    7.5666   15.2639   23.4061 O   0  0  0  0  0  0  0  0  0  0  0  0
    6.2767   15.4826   23.7983 C   0  0  0  0  0  0  0  0  0  0  0  0
    5.4189   16.0541   23.1347 O   0  0  0  0  0  0  0  0  0  0  0  0
    5.9553   14.8309   25.1469 C   0  0  0  0  0  0  0  0  0  0  0  0
    5.8658   13.2905   24.9926 C   0  0  0  0  0  0  0  0  0  0  0  0
    6.7646   12.4491   25.8943 C   0  0  0  0  0  0  0  0  0  0  0  0
    7.9720   13.1983   26.2744 N   0  0  0  0  0  0  0  0  0  0  0  0
    9.1300   13.4365   25.0650 S   0  0  0  0  0  0  0  0  0  0  0  0
    8.6069   12.8357   23.8608 O   0  0  0  0  0  0  0  0  0  0  0  0
    9.6013   14.7941   25.1581 O   0  0  0  0  0  0  0  0  0  0  0  0
   10.3302   12.4051   25.6524 N   0  0  0  0  0  0  0  0  0  0  0  0
   10.3952   11.1271   24.8999 C   0  0  0  0  0  0  0  0  0  0  0  0
   11.6107   10.2879   25.2589 C   0  0  0  0  0  0  0  0  0  0  0  0
   12.9221   11.1023   25.4387 C   0  0  0  0  0  0  0  0  0  0  0  0
   12.7259   12.5662   25.1408 C   0  0  0  0  0  0  0  0  0  0  0  0
   11.6018   13.0656   26.0172 C   0  0  0  0  0  0  0  0  0  0  0  0
    7.6137   14.3768   27.0819 C   0  0  0  0  0  0  0  0  0  0  0  0
    6.8443   15.3976   26.2589 C   0  0  0  0  0  0  0  0  0  0  0  0
    9.3668   15.0171   21.5951 C   0  0  1  0  0  0  0  0  0  0  0  0
    9.7492   15.5525   20.2043 C   0  0  0  0  0  0  0  0  0  0  0  0
   10.3126   15.5069   22.5360 O   0  0  0  0  0  0  0  0  0  0  0  0
   11.5962   14.9386   22.3843 C   0  0  0  0  0  0  0  0  0  0  0  0
   11.5077   13.6569   21.9572 F   0  0  0  0  0  0  0  0  0  0  0  0
   12.1413   14.8587   23.6172 F   0  0  0  0  0  0  0  0  0  0  0  0
  2  1  1  6
  2  3  1  0
  3  4  1  0
  4  5  2  0
  4  6  1  0
  6  7  1  0
  7  8  1  0
  8  9  1  0
  9 10  1  0
 10 11  2  0
 10 12  2  0
 10 13  1  0
 13 14  1  0
 14 15  1  0
 15 16  1  0
 16 17  1  0
 17 18  1  0
  9 19  1  0
 19 20  1  0
  2 21  1  0
 21 22  1  6
 21 23  1  0
 23 24  1  0
 24 25  1  0
 24 26  1  0
 20  6  1  0
 18 13  1  0
M  END
>  <energy_score>  (2495) 
-58.023799

>  <inchikey>  (2495) 
None

>  <smiles>  (2495) 
None

>  <ref_pdb>  (2495) 
A4706a

>  <alias>  (2495) 
None

>  <HIPPO Pose ID>  (2495) 
500139

>  <name>  (2495) 
P500139

>  <HIPPO Compound ID>  (2495) 
314541

>  <ref_mols>  (2495) 
A4706a,A0875a

>  <distance_score>  (2495) 
1.738468

>  <inspiration_score>  (2495) 
None

$$$$
P500140
     RDKit          3D

 26 29  0  0  0  0  0  0  0  0999 V2000
    6.5791   13.4131   21.9313 O   0  0  0  0  0  0  0  0  0  0  0  0
    6.9277   14.0119   22.9441 C   0  0  0  0  0  0  0  0  0  0  0  0
    7.8296   15.0096   22.9957 O   0  0  0  0  0  0  0  0  0  0  0  0
    8.7697   15.3599   21.9394 C   0  0  2  0  0  0  0  0  0  0  0  0
    9.2594   14.2464   21.0431 C   0  0  1  0  0  0  0  0  0  0  0  0
   10.0379   14.8326   19.8583 C   0  0  0  0  0  0  0  0  0  0  0  0
   11.2590   15.4354   20.3234 N   0  0  0  0  0  0  0  0  0  0  0  0
   11.0365   16.2920   21.4964 C   0  0  0  0  0  0  0  0  0  0  0  0
   10.1408   15.6581   22.5551 C   0  0  2  0  0  0  0  0  0  0  0  0
   10.7308   14.3976   22.9102 O   0  0  0  0  0  0  0  0  0  0  0  0
   10.1969   13.4717   21.9716 C   0  0  0  0  0  0  0  0  0  0  0  0
    6.4130   13.5715   24.3216 C   0  0  0  0  0  0  0  0  0  0  0  0
    7.1806   12.2691   24.6448 C   0  0  0  0  0  0  0  0  0  0  0  0
    7.4852   12.0130   26.0952 C   0  0  0  0  0  0  0  0  0  0  0  0
    7.9852   13.2232   26.7364 N   0  0  0  0  0  0  0  0  0  0  0  0
    9.4104   13.9830   26.2738 S   0  0  0  0  0  0  0  0  0  0  0  0
    9.6971   14.9244   27.3314 O   0  0  0  0  0  0  0  0  0  0  0  0
    9.2314   14.4821   24.9483 O   0  0  0  0  0  0  0  0  0  0  0  0
   10.7093   12.9243   26.2187 N   0  0  0  0  0  0  0  0  0  0  0  0
   10.7647   11.7822   25.2848 C   0  0  0  0  0  0  0  0  0  0  0  0
   12.1071   11.0865   25.5647 C   0  0  0  0  0  0  0  0  0  0  0  0
   13.3444   11.8263   25.1873 C   0  0  0  0  0  0  0  0  0  0  0  0
   12.9410   13.2610   25.0275 C   0  0  0  0  0  0  0  0  0  0  0  0
   11.9879   13.7217   26.1365 C   0  0  0  0  0  0  0  0  0  0  0  0
    6.8413   14.1928   26.8119 C   0  0  0  0  0  0  0  0  0  0  0  0
    6.4097   14.6593   25.4166 C   0  0  0  0  0  0  0  0  0  0  0  0
  1  2  2  0
  2  3  1  0
  4  3  1  1
  4  5  1  0
  5  6  1  6
  6  7  1  0
  7  8  1  0
  9  8  1  6
  9 10  1  0
 10 11  1  0
  2 12  1  0
 12 13  1  0
 13 14  1  0
 14 15  1  0
 15 16  1  0
 16 17  2  0
 16 18  2  0
 16 19  1  0
 19 20  1  0
 20 21  1  0
 21 22  1  0
 22 23  1  0
 23 24  1  0
 15 25  1  0
 25 26  1  0
  9  4  1  0
 26 12  1  0
 11  5  1  0
 24 19  1  0
M  END
>  <energy_score>  (2496) 
-20.82264

>  <inchikey>  (2496) 
None

>  <smiles>  (2496) 
None

>  <ref_pdb>  (2496) 
A4706a

>  <alias>  (2496) 
None

>  <HIPPO Pose ID>  (2496) 
500140

>  <name>  (2496) 
P500140

>  <HIPPO Compound ID>  (2496) 
314542

>  <ref_mols>  (2496) 
A4706a,A0875a

>  <distance_score>  (2496) 
1.394763

>  <inspiration_score>  (2496) 
None

$$$$
P500141
     RDKit          3D

 26 29  0  0  0  0  0  0  0  0999 V2000
    6.8344   13.4339   22.2130 O   0  0  0  0  0  0  0  0  0  0  0  0
    7.1389   14.1184   23.1861 C   0  0  0  0  0  0  0  0  0  0  0  0
    8.1699   14.9983   23.2381 O   0  0  0  0  0  0  0  0  0  0  0  0
    9.0866   15.3348   22.1485 C   0  0  2  0  0  0  0  0  0  0  0  0
    9.4884   14.2583   21.1641 C   0  0  1  0  0  0  0  0  0  0  0  0
   10.1920   14.9173   19.9679 C   0  0  0  0  0  0  0  0  0  0  0  0
   11.4572   15.5140   20.3490 N   0  0  0  0  0  0  0  0  0  0  0  0
   11.4113   16.1703   21.6655 C   0  0  0  0  0  0  0  0  0  0  0  0
   10.4920   15.5518   22.7169 C   0  0  2  0  0  0  0  0  0  0  0  0
   11.0092   14.2402   23.0104 O   0  0  0  0  0  0  0  0  0  0  0  0
   10.4986   13.4201   21.9556 C   0  0  0  0  0  0  0  0  0  0  0  0
    6.3516   14.0266   24.5292 C   0  0  0  0  0  0  0  0  0  0  0  0
    6.3025   12.5829   25.0932 C   0  0  0  0  0  0  0  0  0  0  0  0
    7.2199   12.2291   26.2796 C   0  0  0  0  0  0  0  0  0  0  0  0
    8.1765   13.3223   26.5990 N   0  0  0  0  0  0  0  0  0  0  0  0
    9.4589   13.4670   25.5141 S   0  0  0  0  0  0  0  0  0  0  0  0
    9.7919   14.8687   25.4431 O   0  0  0  0  0  0  0  0  0  0  0  0
    9.0350   12.6622   24.3956 O   0  0  0  0  0  0  0  0  0  0  0  0
   10.7700   12.6584   26.2395 N   0  0  0  0  0  0  0  0  0  0  0  0
   11.5170   11.8179   25.2636 C   0  0  0  0  0  0  0  0  0  0  0  0
   12.9372   12.2807   25.0441 C   0  0  0  0  0  0  0  0  0  0  0  0
   13.7709   12.3516   26.2919 C   0  0  0  0  0  0  0  0  0  0  0  0
   12.9641   12.8903   27.4515 C   0  0  0  0  0  0  0  0  0  0  0  0
   11.6431   13.5581   27.0475 C   0  0  0  0  0  0  0  0  0  0  0  0
    7.4087   14.5672   26.8482 C   0  0  0  0  0  0  0  0  0  0  0  0
    6.6885   15.0796   25.5988 C   0  0  0  0  0  0  0  0  0  0  0  0
  1  2  2  0
  2  3  1  0
  4  3  1  1
  4  5  1  0
  5  6  1  6
  6  7  1  0
  7  8  1  0
  9  8  1  6
  9 10  1  0
 10 11  1  0
  2 12  1  0
 12 13  1  0
 13 14  1  0
 14 15  1  0
 15 16  1  0
 16 17  2  0
 16 18  2  0
 16 19  1  0
 19 20  1  0
 20 21  1  0
 21 22  1  0
 22 23  1  0
 23 24  1  0
 15 25  1  0
 25 26  1  0
  9  4  1  0
 26 12  1  0
 11  5  1  0
 24 19  1  0
M  END
>  <energy_score>  (2497) 
-44.980537

>  <inchikey>  (2497) 
None

>  <smiles>  (2497) 
None

>  <ref_pdb>  (2497) 
A4706a

>  <alias>  (2497) 
None

>  <HIPPO Pose ID>  (2497) 
500141

>  <name>  (2497) 
P500141

>  <HIPPO Compound ID>  (2497) 
314542

>  <ref_mols>  (2497) 
A4706a,A0875a

>  <distance_score>  (2497) 
1.569322

>  <inspiration_score>  (2497) 
None

$$$$
P500142
     RDKit          3D

 26 29  0  0  0  0  0  0  0  0999 V2000
    6.6394   13.9941   21.5668 O   0  0  0  0  0  0  0  0  0  0  0  0
    7.4656   13.9595   22.4581 C   0  0  0  0  0  0  0  0  0  0  0  0
    8.8305   13.9410   22.3139 O   0  0  0  0  0  0  0  0  0  0  0  0
    9.4208   14.3539   21.0926 C   0  0  1  0  0  0  0  0  0  0  0  0
    9.4083   15.8419   20.9535 C   0  0  2  0  0  0  0  0  0  0  0  0
    9.7583   16.1479   19.4976 C   0  0  0  0  0  0  0  0  0  0  0  0
   11.0628   15.6920   19.0726 N   0  0  0  0  0  0  0  0  0  0  0  0
   11.4211   14.3952   19.6092 C   0  0  0  0  0  0  0  0  0  0  0  0
   10.9357   14.1540   21.0542 C   0  0  1  0  0  0  0  0  0  0  0  0
   11.4981   15.1756   21.8960 O   0  0  0  0  0  0  0  0  0  0  0  0
   10.5185   16.2140   21.9259 C   0  0  0  0  0  0  0  0  0  0  0  0
    7.1980   13.8902   23.9318 C   0  0  0  0  0  0  0  0  0  0  0  0
    6.8062   12.5620   24.5789 C   0  0  0  0  0  0  0  0  0  0  0  0
    7.3613   12.5007   26.0168 C   0  0  0  0  0  0  0  0  0  0  0  0
    7.9851   13.7959   26.3354 N   0  0  0  0  0  0  0  0  0  0  0  0
    9.6452   14.0665   26.2085 S   0  0  0  0  0  0  0  0  0  0  0  0
    9.8346   15.4938   26.0952 O   0  0  0  0  0  0  0  0  0  0  0  0
   10.2631   13.3336   27.2805 O   0  0  0  0  0  0  0  0  0  0  0  0
   10.2855   13.4379   24.7685 N   0  0  0  0  0  0  0  0  0  0  0  0
   11.6959   13.8652   24.5542 C   0  0  0  0  0  0  0  0  0  0  0  0
   12.6353   13.1560   25.5045 C   0  0  0  0  0  0  0  0  0  0  0  0
   12.4367   11.6573   25.5265 C   0  0  0  0  0  0  0  0  0  0  0  0
   11.0036   11.1729   25.2338 C   0  0  0  0  0  0  0  0  0  0  0  0
   10.2001   12.0452   24.3146 C   0  0  0  0  0  0  0  0  0  0  0  0
    7.0356   14.9457   26.1495 C   0  0  0  0  0  0  0  0  0  0  0  0
    6.5828   15.0518   24.6793 C   0  0  0  0  0  0  0  0  0  0  0  0
  1  2  2  0
  2  3  1  0
  4  3  1  1
  4  5  1  0
  5  6  1  6
  6  7  1  0
  7  8  1  0
  9  8  1  6
  9 10  1  0
 10 11  1  0
  2 12  1  0
 12 13  1  0
 13 14  1  0
 14 15  1  0
 15 16  1  0
 16 17  2  0
 16 18  2  0
 16 19  1  0
 19 20  1  0
 20 21  1  0
 21 22  1  0
 22 23  1  0
 23 24  1  0
 15 25  1  0
 25 26  1  0
  9  4  1  0
 26 12  1  0
 11  5  1  0
 24 19  1  0
M  END
>  <energy_score>  (2498) 
-7.797506

>  <inchikey>  (2498) 
None

>  <smiles>  (2498) 
None

>  <ref_pdb>  (2498) 
A4706a

>  <alias>  (2498) 
None

>  <HIPPO Pose ID>  (2498) 
500142

>  <name>  (2498) 
P500142

>  <HIPPO Compound ID>  (2498) 
314542

>  <ref_mols>  (2498) 
A4706a,A0875a

>  <distance_score>  (2498) 
1.411364

>  <inspiration_score>  (2498) 
None

$$$$
P500143
     RDKit          3D

 26 29  0  0  0  0  0  0  0  0999 V2000
    6.7792   13.0665   22.0867 O   0  0  0  0  0  0  0  0  0  0  0  0
    7.1925   13.8278   22.9580 C   0  0  0  0  0  0  0  0  0  0  0  0
    8.2307   14.6821   22.7793 O   0  0  0  0  0  0  0  0  0  0  0  0
    8.9116   14.7194   21.4880 C   0  0  1  0  0  0  0  0  0  0  0  0
    9.4365   16.1188   21.2996 C   0  0  2  0  0  0  0  0  0  0  0  0
    9.8114   16.2792   19.8237 C   0  0  0  0  0  0  0  0  0  0  0  0
   11.0303   15.5730   19.5018 N   0  0  0  0  0  0  0  0  0  0  0  0
   10.9397   14.2068   19.9913 C   0  0  0  0  0  0  0  0  0  0  0  0
   10.2806   14.0176   21.4073 C   0  0  1  0  0  0  0  0  0  0  0  0
   11.1371   14.7320   22.3166 O   0  0  0  0  0  0  0  0  0  0  0  0
   10.6761   16.0896   22.2162 C   0  0  0  0  0  0  0  0  0  0  0  0
    6.5387   13.8631   24.3622 C   0  0  0  0  0  0  0  0  0  0  0  0
    6.5352   12.4696   25.0405 C   0  0  0  0  0  0  0  0  0  0  0  0
    7.6181   12.1602   26.0864 C   0  0  0  0  0  0  0  0  0  0  0  0
    8.5242   13.3132   26.3141 N   0  0  0  0  0  0  0  0  0  0  0  0
    9.7335   13.4891   25.1529 S   0  0  0  0  0  0  0  0  0  0  0  0
    9.3479   12.6244   24.0632 O   0  0  0  0  0  0  0  0  0  0  0  0
   10.0148   14.8953   25.0156 O   0  0  0  0  0  0  0  0  0  0  0  0
   11.1188   12.7841   25.8173 N   0  0  0  0  0  0  0  0  0  0  0  0
   11.7285   13.5346   26.9394 C   0  0  0  0  0  0  0  0  0  0  0  0
   13.0253   12.8484   27.4207 C   0  0  0  0  0  0  0  0  0  0  0  0
   13.9631   12.3223   26.3426 C   0  0  0  0  0  0  0  0  0  0  0  0
   13.1808   11.6706   25.2297 C   0  0  0  0  0  0  0  0  0  0  0  0
   12.1336   12.6496   24.7308 C   0  0  0  0  0  0  0  0  0  0  0  0
    7.7105   14.5306   26.5661 C   0  0  0  0  0  0  0  0  0  0  0  0
    6.9643   14.9901   25.3125 C   0  0  0  0  0  0  0  0  0  0  0  0
  1  2  2  0
  2  3  1  0
  4  3  1  1
  4  5  1  0
  5  6  1  6
  6  7  1  0
  7  8  1  0
  9  8  1  6
  9 10  1  0
 10 11  1  0
  2 12  1  0
 12 13  1  0
 13 14  1  0
 14 15  1  0
 15 16  1  0
 16 17  2  0
 16 18  2  0
 16 19  1  0
 19 20  1  0
 20 21  1  0
 21 22  1  0
 22 23  1  0
 23 24  1  0
 15 25  1  0
 25 26  1  0
  9  4  1  0
 26 12  1  0
 11  5  1  0
 24 19  1  0
M  END
>  <energy_score>  (2499) 
-68.780128

>  <inchikey>  (2499) 
None

>  <smiles>  (2499) 
None

>  <ref_pdb>  (2499) 
A4706a

>  <alias>  (2499) 
None

>  <HIPPO Pose ID>  (2499) 
500143

>  <name>  (2499) 
P500143

>  <HIPPO Compound ID>  (2499) 
314542

>  <ref_mols>  (2499) 
A4706a,A0875a

>  <distance_score>  (2499) 
1.504911

>  <inspiration_score>  (2499) 
None

$$$$
P500144
     RDKit          3D

 26 29  0  0  0  0  0  0  0  0999 V2000
    7.3854   13.1783   22.1277 O   0  0  0  0  0  0  0  0  0  0  0  0
    7.6585   13.8518   23.1146 C   0  0  0  0  0  0  0  0  0  0  0  0
    8.6258   14.7847   23.1903 O   0  0  0  0  0  0  0  0  0  0  0  0
    9.3422   15.3736   22.0675 C   0  0  2  0  0  0  0  0  0  0  0  0
    8.5384   15.5906   20.8232 C   0  0  0  0  0  0  0  0  0  0  0  0
    9.5709   15.6868   19.7088 C   0  0  0  0  0  0  0  0  0  0  0  0
   10.5617   14.7586   20.1008 O   0  0  0  0  0  0  0  0  0  0  0  0
   10.6157   14.7117   21.5497 C   0  0  0  0  0  0  0  0  0  0  0  0
   11.8898   15.3758   22.1163 C   0  0  0  0  0  0  0  0  0  0  0  0
   11.9871   14.2845   23.1040 N   0  0  0  0  0  0  0  0  0  0  0  0
   11.1825   13.4493   22.1863 C   0  0  0  0  0  0  0  0  0  0  0  0
    6.8821   13.6405   24.4168 C   0  0  0  0  0  0  0  0  0  0  0  0
    7.0993   12.2036   24.9070 C   0  0  0  0  0  0  0  0  0  0  0  0
    8.5038   12.0317   25.4579 C   0  0  0  0  0  0  0  0  0  0  0  0
    8.8332   13.0543   26.4632 N   0  0  0  0  0  0  0  0  0  0  0  0
   10.3024   13.8685   26.3932 S   0  0  0  0  0  0  0  0  0  0  0  0
   10.3565   14.6467   27.6040 O   0  0  0  0  0  0  0  0  0  0  0  0
   10.3935   14.5364   25.1228 O   0  0  0  0  0  0  0  0  0  0  0  0
   11.5173   12.6820   26.4988 N   0  0  0  0  0  0  0  0  0  0  0  0
   11.7230   11.7471   25.3861 C   0  0  0  0  0  0  0  0  0  0  0  0
   13.1085   11.0850   25.2725 C   0  0  0  0  0  0  0  0  0  0  0  0
   14.2246   11.4541   26.1989 C   0  0  0  0  0  0  0  0  0  0  0  0
   14.0280   12.8943   26.5023 C   0  0  0  0  0  0  0  0  0  0  0  0
   12.7267   13.0840   27.2599 C   0  0  0  0  0  0  0  0  0  0  0  0
    7.6810   13.9515   26.8041 C   0  0  0  0  0  0  0  0  0  0  0  0
    7.1359   14.6377   25.5537 C   0  0  0  0  0  0  0  0  0  0  0  0
  1  2  2  0
  2  3  1  0
  4  3  1  1
  4  5  1  0
  5  6  1  0
  6  7  1  0
  7  8  1  0
  8  9  1  0
  9 10  1  0
 10 11  1  0
  2 12  1  0
 12 13  1  0
 13 14  1  0
 14 15  1  0
 15 16  1  0
 16 17  2  0
 16 18  2  0
 16 19  1  0
 19 20  1  0
 20 21  1  0
 21 22  1  0
 22 23  1  0
 23 24  1  0
 15 25  1  0
 25 26  1  0
  8  4  1  0
 26 12  1  0
 11  8  1  0
 24 19  1  0
M  END
>  <energy_score>  (2500) 
-45.165283

>  <inchikey>  (2500) 
None

>  <smiles>  (2500) 
None

>  <ref_pdb>  (2500) 
A4706a

>  <alias>  (2500) 
None

>  <HIPPO Pose ID>  (2500) 
500144

>  <name>  (2500) 
P500144

>  <HIPPO Compound ID>  (2500) 
314543

>  <ref_mols>  (2500) 
A4706a,A0875a

>  <distance_score>  (2500) 
1.423764

>  <inspiration_score>  (2500) 
None

$$$$
P500145
     RDKit          3D

 26 29  0  0  0  0  0  0  0  0999 V2000
    6.6081   13.8241   21.8379 O   0  0  0  0  0  0  0  0  0  0  0  0
    6.9954   14.5165   22.7764 C   0  0  0  0  0  0  0  0  0  0  0  0
    8.1605   15.2316   22.7943 O   0  0  0  0  0  0  0  0  0  0  0  0
    8.9117   15.5254   21.5835 C   0  0  2  0  0  0  0  0  0  0  0  0
    8.7510   14.6192   20.4033 C   0  0  0  0  0  0  0  0  0  0  0  0
    9.8097   15.0894   19.3960 C   0  0  0  0  0  0  0  0  0  0  0  0
   10.8036   15.6652   20.2242 O   0  0  0  0  0  0  0  0  0  0  0  0
   10.4325   15.3886   21.6117 C   0  0  0  0  0  0  0  0  0  0  0  0
   11.2396   16.1172   22.6421 C   0  0  0  0  0  0  0  0  0  0  0  0
   12.2563   15.0551   22.5997 N   0  0  0  0  0  0  0  0  0  0  0  0
   11.2034   14.1401   22.1225 C   0  0  0  0  0  0  0  0  0  0  0  0
    6.1436   14.6092   24.0648 C   0  0  0  0  0  0  0  0  0  0  0  0
    5.6924   13.2084   24.5421 C   0  0  0  0  0  0  0  0  0  0  0  0
    6.6491   12.4377   25.4616 C   0  0  0  0  0  0  0  0  0  0  0  0
    7.7006   13.3288   25.9938 N   0  0  0  0  0  0  0  0  0  0  0  0
    9.0830   13.4482   25.0333 S   0  0  0  0  0  0  0  0  0  0  0  0
    8.8034   12.8031   23.7769 O   0  0  0  0  0  0  0  0  0  0  0  0
    9.5732   14.7985   25.1455 O   0  0  0  0  0  0  0  0  0  0  0  0
   10.1369   12.4820   25.8839 N   0  0  0  0  0  0  0  0  0  0  0  0
   10.9756   11.5446   25.1020 C   0  0  0  0  0  0  0  0  0  0  0  0
   12.4533   11.6157   25.5097 C   0  0  0  0  0  0  0  0  0  0  0  0
   12.9150   13.0397   25.4428 C   0  0  0  0  0  0  0  0  0  0  0  0
   12.0919   13.8918   26.4035 C   0  0  0  0  0  0  0  0  0  0  0  0
   10.8433   13.2388   26.9050 C   0  0  0  0  0  0  0  0  0  0  0  0
    7.1247   14.6172   26.4389 C   0  0  0  0  0  0  0  0  0  0  0  0
    6.6577   15.4461   25.2412 C   0  0  0  0  0  0  0  0  0  0  0  0
  1  2  2  0
  2  3  1  0
  4  3  1  1
  4  5  1  0
  5  6  1  0
  6  7  1  0
  7  8  1  0
  8  9  1  0
  9 10  1  0
 10 11  1  0
  2 12  1  0
 12 13  1  0
 13 14  1  0
 14 15  1  0
 15 16  1  0
 16 17  2  0
 16 18  2  0
 16 19  1  0
 19 20  1  0
 20 21  1  0
 21 22  1  0
 22 23  1  0
 23 24  1  0
 15 25  1  0
 25 26  1  0
  8  4  1  0
 26 12  1  0
 11  8  1  0
 24 19  1  0
M  END
>  <energy_score>  (2501) 
-25.075871

>  <inchikey>  (2501) 
None

>  <smiles>  (2501) 
None

>  <ref_pdb>  (2501) 
A4706a

>  <alias>  (2501) 
None

>  <HIPPO Pose ID>  (2501) 
500145

>  <name>  (2501) 
P500145

>  <HIPPO Compound ID>  (2501) 
314543

>  <ref_mols>  (2501) 
A4706a,A0875a

>  <distance_score>  (2501) 
1.730786

>  <inspiration_score>  (2501) 
None

$$$$
P500146
     RDKit          3D

 26 28  0  0  0  0  0  0  0  0999 V2000
    8.7199   14.5938   20.4516 C   0  0  0  0  0  0  0  0  0  0  0  0
   10.2316   14.6670   20.2724 C   0  0  0  0  0  0  0  0  0  0  0  0
   10.7520   14.3686   18.8654 C   0  0  0  0  0  0  0  0  0  0  0  0
   10.6016   16.0821   20.4248 C   0  0  0  0  0  0  0  0  0  0  0  0
   10.2503   16.5966   21.7728 C   0  0  0  0  0  0  0  0  0  0  0  0
   10.3138   15.5518   22.8781 C   0  0  1  0  0  0  0  0  0  0  0  0
    9.0897   14.7867   23.0315 O   0  0  0  0  0  0  0  0  0  0  0  0
    8.2862   14.8389   24.1080 C   0  0  0  0  0  0  0  0  0  0  0  0
    8.1831   15.7573   24.9047 O   0  0  0  0  0  0  0  0  0  0  0  0
    7.5163   13.5284   24.2283 C   0  0  0  0  0  0  0  0  0  0  0  0
    8.4369   12.2964   24.1022 C   0  0  0  0  0  0  0  0  0  0  0  0
    8.8505   11.6921   25.4330 C   0  0  0  0  0  0  0  0  0  0  0  0
    9.0617   12.7284   26.4331 N   0  0  0  0  0  0  0  0  0  0  0  0
   10.4742   13.6452   26.5411 S   0  0  0  0  0  0  0  0  0  0  0  0
   10.6285   14.4467   25.3625 O   0  0  0  0  0  0  0  0  0  0  0  0
   10.4237   14.2523   27.8455 O   0  0  0  0  0  0  0  0  0  0  0  0
   11.7935   12.5408   26.5205 N   0  0  0  0  0  0  0  0  0  0  0  0
   12.2927   12.2505   25.1672 C   0  0  0  0  0  0  0  0  0  0  0  0
   13.3701   11.1690   25.2106 C   0  0  0  0  0  0  0  0  0  0  0  0
   14.4868   11.3809   26.2014 C   0  0  0  0  0  0  0  0  0  0  0  0
   14.3294   12.7194   26.8506 C   0  0  0  0  0  0  0  0  0  0  0  0
   12.9295   12.9279   27.4339 C   0  0  0  0  0  0  0  0  0  0  0  0
    7.7893   13.4917   26.7422 C   0  0  0  0  0  0  0  0  0  0  0  0
    6.7964   13.4877   25.5742 C   0  0  0  0  0  0  0  0  0  0  0  0
   11.3429   14.5277   22.4353 C   0  0  0  0  0  0  0  0  0  0  0  0
   10.9395   13.8750   21.2296 O   0  0  0  0  0  0  0  0  0  0  0  0
  1  2  1  0
  2  3  1  0
  2  4  1  0
  4  5  1  0
  5  6  1  0
  6  7  1  6
  7  8  1  0
  8  9  2  0
  8 10  1  0
 10 11  1  0
 11 12  1  0
 12 13  1  0
 13 14  1  0
 14 15  2  0
 14 16  2  0
 14 17  1  0
 17 18  1  0
 18 19  1  0
 19 20  1  0
 20 21  1  0
 21 22  1  0
 13 23  1  0
 23 24  1  0
  6 25  1  0
 25 26  1  0
 26  2  1  0
 24 10  1  0
 22 17  1  0
M  END
>  <energy_score>  (2502) 
-19.365686

>  <inchikey>  (2502) 
None

>  <smiles>  (2502) 
None

>  <ref_pdb>  (2502) 
A4706a

>  <alias>  (2502) 
None

>  <HIPPO Pose ID>  (2502) 
500146

>  <name>  (2502) 
P500146

>  <HIPPO Compound ID>  (2502) 
314544

>  <ref_mols>  (2502) 
A4706a,A0875a

>  <distance_score>  (2502) 
1.960867

>  <inspiration_score>  (2502) 
None

$$$$
P500147
     RDKit          3D

 26 28  0  0  0  0  0  0  0  0999 V2000
    7.7177   14.3080   21.0627 C   0  0  0  0  0  0  0  0  0  0  0  0
    9.1073   14.8899   21.1536 C   0  0  2  0  0  0  0  0  0  0  0  0
    9.6685   15.4602   19.7924 C   0  0  0  0  0  0  0  0  0  0  0  0
   10.8922   14.8240   19.2774 N   0  0  0  0  0  0  0  0  0  0  0  0
   10.0178   13.8662   21.6064 O   0  0  0  0  0  0  0  0  0  0  0  0
   11.0502   14.5216   22.3386 C   0  0  0  0  0  0  0  0  0  0  0  0
   10.5655   15.9184   22.6358 C   0  0  0  0  0  0  0  0  0  0  0  0
    9.0830   15.9074   22.2858 C   0  0  2  0  0  0  0  0  0  0  0  0
    8.2943   15.4293   23.4525 O   0  0  0  0  0  0  0  0  0  0  0  0
    6.9664   15.6796   23.6330 C   0  0  0  0  0  0  0  0  0  0  0  0
    6.2752   16.3489   22.8766 O   0  0  0  0  0  0  0  0  0  0  0  0
    6.3532   15.0244   24.8916 C   0  0  0  0  0  0  0  0  0  0  0  0
    6.1034   13.5035   24.7440 C   0  0  0  0  0  0  0  0  0  0  0  0
    6.7768   12.5891   25.7748 C   0  0  0  0  0  0  0  0  0  0  0  0
    8.0001   13.2167   26.3274 N   0  0  0  0  0  0  0  0  0  0  0  0
    9.2619   13.4047   25.2233 S   0  0  0  0  0  0  0  0  0  0  0  0
    8.7775   12.8603   23.9804 O   0  0  0  0  0  0  0  0  0  0  0  0
    9.8097   14.7303   25.3749 O   0  0  0  0  0  0  0  0  0  0  0  0
   10.4075   12.3211   25.8159 N   0  0  0  0  0  0  0  0  0  0  0  0
   11.6850   12.9363   26.2589 C   0  0  0  0  0  0  0  0  0  0  0  0
   12.8115   12.5732   25.3227 C   0  0  0  0  0  0  0  0  0  0  0  0
   13.0382   11.0824   25.4128 C   0  0  0  0  0  0  0  0  0  0  0  0
   11.7188   10.2647   25.2707 C   0  0  0  0  0  0  0  0  0  0  0  0
   10.4977   11.1085   24.9564 C   0  0  0  0  0  0  0  0  0  0  0  0
    7.6253   14.4270   27.0853 C   0  0  0  0  0  0  0  0  0  0  0  0
    7.0364   15.5031   26.1797 C   0  0  0  0  0  0  0  0  0  0  0  0
  2  1  1  6
  2  3  1  0
  3  4  1  0
  2  5  1  0
  5  6  1  0
  6  7  1  0
  7  8  1  0
  8  9  1  1
  9 10  1  0
 10 11  2  0
 10 12  1  0
 12 13  1  0
 13 14  1  0
 14 15  1  0
 15 16  1  0
 16 17  2  0
 16 18  2  0
 16 19  1  0
 19 20  1  0
 20 21  1  0
 21 22  1  0
 22 23  1  0
 23 24  1  0
 15 25  1  0
 25 26  1  0
  8  2  1  0
 26 12  1  0
 24 19  1  0
M  END
>  <energy_score>  (2503) 
-26.811173

>  <inchikey>  (2503) 
None

>  <smiles>  (2503) 
None

>  <ref_pdb>  (2503) 
A4706a

>  <alias>  (2503) 
None

>  <HIPPO Pose ID>  (2503) 
500147

>  <name>  (2503) 
P500147

>  <HIPPO Compound ID>  (2503) 
314545

>  <ref_mols>  (2503) 
A4706a,A0875a

>  <distance_score>  (2503) 
1.623614

>  <inspiration_score>  (2503) 
None

$$$$
P500148
     RDKit          3D

 26 28  0  0  0  0  0  0  0  0999 V2000
    9.0967   17.3885   20.7717 C   0  0  0  0  0  0  0  0  0  0  0  0
    9.7940   16.0164   20.8111 C   0  0  1  0  0  0  0  0  0  0  0  0
   10.0281   15.5467   19.3480 C   0  0  0  0  0  0  0  0  0  0  0  0
   11.0373   14.5216   19.0611 N   0  0  0  0  0  0  0  0  0  0  0  0
   11.1111   16.1745   21.4140 O   0  0  0  0  0  0  0  0  0  0  0  0
   11.3529   15.0451   22.2549 C   0  0  0  0  0  0  0  0  0  0  0  0
   10.1756   14.1147   22.1242 C   0  0  0  0  0  0  0  0  0  0  0  0
    9.0727   15.0839   21.8008 C   0  0  2  0  0  0  0  0  0  0  0  0
    7.8709   14.4520   21.3387 O   0  0  0  0  0  0  0  0  0  0  0  0
    6.9465   13.9084   22.1734 C   0  0  0  0  0  0  0  0  0  0  0  0
    5.9811   13.2961   21.7232 O   0  0  0  0  0  0  0  0  0  0  0  0
    7.1400   13.9915   23.6644 C   0  0  0  0  0  0  0  0  0  0  0  0
    6.6952   12.7023   24.4024 C   0  0  0  0  0  0  0  0  0  0  0  0
    6.8370   12.8206   25.9247 C   0  0  0  0  0  0  0  0  0  0  0  0
    7.4418   14.1134   26.2156 N   0  0  0  0  0  0  0  0  0  0  0  0
    9.0527   14.4469   26.4108 S   0  0  0  0  0  0  0  0  0  0  0  0
    9.2921   15.7320   25.8087 O   0  0  0  0  0  0  0  0  0  0  0  0
    9.3905   14.2195   27.7904 O   0  0  0  0  0  0  0  0  0  0  0  0
   10.0425   13.4083   25.5059 N   0  0  0  0  0  0  0  0  0  0  0  0
   11.4654   13.8617   25.7453 C   0  0  0  0  0  0  0  0  0  0  0  0
   12.4819   13.0351   24.9911 C   0  0  0  0  0  0  0  0  0  0  0  0
   12.3488   11.6097   25.4436 C   0  0  0  0  0  0  0  0  0  0  0  0
   10.9392   11.1437   25.0862 C   0  0  0  0  0  0  0  0  0  0  0  0
    9.8633   11.9734   25.7390 C   0  0  0  0  0  0  0  0  0  0  0  0
    6.5580   15.2244   25.7899 C   0  0  0  0  0  0  0  0  0  0  0  0
    6.4251   15.2006   24.2676 C   0  0  0  0  0  0  0  0  0  0  0  0
  2  1  1  6
  2  3  1  0
  3  4  1  0
  2  5  1  0
  5  6  1  0
  6  7  1  0
  7  8  1  0
  8  9  1  6
  9 10  1  0
 10 11  2  0
 10 12  1  0
 12 13  1  0
 13 14  1  0
 14 15  1  0
 15 16  1  0
 16 17  2  0
 16 18  2  0
 16 19  1  0
 19 20  1  0
 20 21  1  0
 21 22  1  0
 22 23  1  0
 23 24  1  0
 15 25  1  0
 25 26  1  0
  8  2  1  0
 26 12  1  0
 24 19  1  0
M  END
>  <energy_score>  (2504) 
-19.470614

>  <inchikey>  (2504) 
None

>  <smiles>  (2504) 
None

>  <ref_pdb>  (2504) 
A4706a

>  <alias>  (2504) 
None

>  <HIPPO Pose ID>  (2504) 
500148

>  <name>  (2504) 
P500148

>  <HIPPO Compound ID>  (2504) 
314545

>  <ref_mols>  (2504) 
A0875a,A4706a

>  <distance_score>  (2504) 
1.525851

>  <inspiration_score>  (2504) 
None

$$$$
P500149
     RDKit          3D

 26 28  0  0  0  0  0  0  0  0999 V2000
    8.6724   14.0031   20.9461 C   0  0  0  0  0  0  0  0  0  0  0  0
    9.8450   14.8629   21.1921 C   0  0  2  0  0  0  0  0  0  0  0  0
   10.4096   15.5109   19.8828 C   0  0  0  0  0  0  0  0  0  0  0  0
   10.7656   14.6527   18.7455 N   0  0  0  0  0  0  0  0  0  0  0  0
   10.8801   14.0421   21.7887 O   0  0  0  0  0  0  0  0  0  0  0  0
   11.7128   14.9099   22.5242 C   0  0  0  0  0  0  0  0  0  0  0  0
   10.9012   16.1483   22.7630 C   0  0  0  0  0  0  0  0  0  0  0  0
    9.4924   15.8840   22.2556 C   0  0  2  0  0  0  0  0  0  0  0  0
    8.6698   15.3617   23.3622 O   0  0  0  0  0  0  0  0  0  0  0  0
    7.3120   15.3064   23.3201 C   0  0  0  0  0  0  0  0  0  0  0  0
    6.6386   15.6160   22.3445 O   0  0  0  0  0  0  0  0  0  0  0  0
    6.6599   14.7528   24.6177 C   0  0  0  0  0  0  0  0  0  0  0  0
    6.5550   13.2093   24.6323 C   0  0  0  0  0  0  0  0  0  0  0  0
    7.2187   12.4739   25.8071 C   0  0  0  0  0  0  0  0  0  0  0  0
    8.3559   13.2521   26.3678 N   0  0  0  0  0  0  0  0  0  0  0  0
    9.6704   13.4294   25.3289 S   0  0  0  0  0  0  0  0  0  0  0  0
    9.3267   12.6876   24.1403 O   0  0  0  0  0  0  0  0  0  0  0  0
   10.0696   14.8140   25.3282 O   0  0  0  0  0  0  0  0  0  0  0  0
   10.9646   12.5844   26.0855 N   0  0  0  0  0  0  0  0  0  0  0  0
   11.7233   11.9035   25.0146 C   0  0  0  0  0  0  0  0  0  0  0  0
   13.1441   11.4617   25.3151 C   0  0  0  0  0  0  0  0  0  0  0  0
   13.9335   12.3585   26.2197 C   0  0  0  0  0  0  0  0  0  0  0  0
   13.0881   12.8023   27.3878 C   0  0  0  0  0  0  0  0  0  0  0  0
   11.7911   13.4689   26.9405 C   0  0  0  0  0  0  0  0  0  0  0  0
    7.8271   14.5034   26.9528 C   0  0  0  0  0  0  0  0  0  0  0  0
    7.1849   15.4115   25.9032 C   0  0  0  0  0  0  0  0  0  0  0  0
  2  1  1  6
  2  3  1  0
  3  4  1  0
  2  5  1  0
  5  6  1  0
  6  7  1  0
  7  8  1  0
  8  9  1  1
  9 10  1  0
 10 11  2  0
 10 12  1  0
 12 13  1  0
 13 14  1  0
 14 15  1  0
 15 16  1  0
 16 17  2  0
 16 18  2  0
 16 19  1  0
 19 20  1  0
 20 21  1  0
 21 22  1  0
 22 23  1  0
 23 24  1  0
 15 25  1  0
 25 26  1  0
  8  2  1  0
 26 12  1  0
 24 19  1  0
M  END
>  <energy_score>  (2505) 
-26.845128

>  <inchikey>  (2505) 
None

>  <smiles>  (2505) 
None

>  <ref_pdb>  (2505) 
A4706a

>  <alias>  (2505) 
None

>  <HIPPO Pose ID>  (2505) 
500149

>  <name>  (2505) 
P500149

>  <HIPPO Compound ID>  (2505) 
314545

>  <ref_mols>  (2505) 
A4706a,A0875a

>  <distance_score>  (2505) 
1.672811

>  <inspiration_score>  (2505) 
None

$$$$
P500150
     RDKit          3D

 27 29  0  0  0  0  0  0  0  0999 V2000
    6.7707   16.5248   22.1554 N   0  0  0  0  0  0  0  0  0  0  0  0
    8.1702   16.2735   21.7611 C   0  0  0  0  0  0  0  0  0  0  0  0
    8.7491   15.2423   22.7083 C   0  0  2  0  0  0  0  0  0  0  0  0
   10.2801   15.2153   22.8685 C   0  0  0  0  0  0  0  0  0  0  0  0
   11.0309   15.8393   21.8480 O   0  0  0  0  0  0  0  0  0  0  0  0
   11.5753   14.9127   20.9341 C   0  0  0  0  0  0  0  0  0  0  0  0
   10.5840   14.6148   19.8903 C   0  0  0  0  0  0  0  0  0  0  0  0
   11.0336   14.6803   18.4686 C   0  0  0  0  0  0  0  0  0  0  0  0
   10.0272   15.6553   18.9753 C   0  0  0  0  0  0  0  0  0  0  0  0
    8.2134   13.9435   22.3080 O   0  0  0  0  0  0  0  0  0  0  0  0
    7.0277   13.5250   22.8500 C   0  0  0  0  0  0  0  0  0  0  0  0
    6.1181   13.0859   22.1607 O   0  0  0  0  0  0  0  0  0  0  0  0
    6.9838   13.5487   24.3525 C   0  0  0  0  0  0  0  0  0  0  0  0
    6.6218   12.2268   25.0361 C   0  0  0  0  0  0  0  0  0  0  0  0
    7.1768   12.2263   26.4736 C   0  0  0  0  0  0  0  0  0  0  0  0
    7.6432   13.5780   26.8507 N   0  0  0  0  0  0  0  0  0  0  0  0
    9.2125   14.1764   26.6991 S   0  0  0  0  0  0  0  0  0  0  0  0
    9.6435   14.5464   28.0223 O   0  0  0  0  0  0  0  0  0  0  0  0
    9.2301   15.1897   25.6715 O   0  0  0  0  0  0  0  0  0  0  0  0
   10.2830   12.9844   26.1834 N   0  0  0  0  0  0  0  0  0  0  0  0
   11.6744   13.5794   26.1233 C   0  0  0  0  0  0  0  0  0  0  0  0
   12.6087   12.7990   25.2005 C   0  0  0  0  0  0  0  0  0  0  0  0
   12.3674   11.3300   25.4527 C   0  0  0  0  0  0  0  0  0  0  0  0
   10.9122   10.9284   25.1043 C   0  0  0  0  0  0  0  0  0  0  0  0
   10.0226   12.1453   25.0111 C   0  0  0  0  0  0  0  0  0  0  0  0
    6.5674   14.5904   26.6022 C   0  0  0  0  0  0  0  0  0  0  0  0
    6.2653   14.6738   25.0917 C   0  0  0  0  0  0  0  0  0  0  0  0
  1  2  1  0
  3  2  1  6
  3  4  1  0
  4  5  1  0
  5  6  1  0
  6  7  1  0
  7  8  1  0
  8  9  1  0
  3 10  1  0
 10 11  1  0
 11 12  2  0
 11 13  1  0
 13 14  1  0
 14 15  1  0
 15 16  1  0
 16 17  1  0
 17 18  2  0
 17 19  2  0
 17 20  1  0
 20 21  1  0
 21 22  1  0
 22 23  1  0
 23 24  1  0
 24 25  1  0
 16 26  1  0
 26 27  1  0
  9  7  1  0
 27 13  1  0
 25 20  1  0
M  END
>  <energy_score>  (2506) 
-7.459934

>  <inchikey>  (2506) 
None

>  <smiles>  (2506) 
None

>  <ref_pdb>  (2506) 
A4706a

>  <alias>  (2506) 
None

>  <HIPPO Pose ID>  (2506) 
500150

>  <name>  (2506) 
P500150

>  <HIPPO Compound ID>  (2506) 
314546

>  <ref_mols>  (2506) 
A0875a,A4706a

>  <distance_score>  (2506) 
1.509298

>  <inspiration_score>  (2506) 
None

$$$$
P500151
     RDKit          3D

 27 29  0  0  0  0  0  0  0  0999 V2000
    8.2950   18.8583   19.8663 C   0  0  0  0  0  0  0  0  0  0  0  0
    9.0445   17.6494   20.0835 O   0  0  0  0  0  0  0  0  0  0  0  0
    8.5621   17.0416   21.2722 C   0  0  0  0  0  0  0  0  0  0  0  0
    9.0529   15.6443   21.7205 C   0  0  0  0  0  0  0  0  0  0  0  0
    8.0733   15.3000   22.8036 O   0  0  0  0  0  0  0  0  0  0  0  0
    6.9653   14.5284   22.7170 C   0  0  0  0  0  0  0  0  0  0  0  0
    6.6282   13.8818   21.7317 O   0  0  0  0  0  0  0  0  0  0  0  0
    6.1195   14.5263   24.0233 C   0  0  0  0  0  0  0  0  0  0  0  0
    5.7977   13.0998   24.5194 C   0  0  0  0  0  0  0  0  0  0  0  0
    6.7670   12.4389   25.5109 C   0  0  0  0  0  0  0  0  0  0  0  0
    7.7696   13.4056   26.0071 N   0  0  0  0  0  0  0  0  0  0  0  0
    9.1431   13.5592   25.0458 S   0  0  0  0  0  0  0  0  0  0  0  0
    8.8545   12.8891   23.8037 O   0  0  0  0  0  0  0  0  0  0  0  0
    9.6003   14.9246   25.1367 O   0  0  0  0  0  0  0  0  0  0  0  0
   10.2288   12.6141   25.8780 N   0  0  0  0  0  0  0  0  0  0  0  0
   10.5823   11.3169   25.2563 C   0  0  0  0  0  0  0  0  0  0  0  0
   12.0678   11.0514   25.4540 C   0  0  0  0  0  0  0  0  0  0  0  0
   12.8418   12.1835   24.8632 C   0  0  0  0  0  0  0  0  0  0  0  0
   12.5654   13.3996   25.7037 C   0  0  0  0  0  0  0  0  0  0  0  0
   11.3103   13.3437   26.5570 C   0  0  0  0  0  0  0  0  0  0  0  0
    7.1161   14.6709   26.4032 C   0  0  0  0  0  0  0  0  0  0  0  0
    6.5741   15.4229   25.1861 C   0  0  0  0  0  0  0  0  0  0  0  0
    9.1213   14.6870   20.5404 C   0  0  0  0  0  0  0  0  0  0  0  0
   10.3366   14.9321   19.6407 C   0  0  0  0  0  0  0  0  0  0  0  0
   11.5586   14.6844   20.3970 N   0  0  0  0  0  0  0  0  0  0  0  0
   11.6490   15.5684   21.5447 C   0  0  0  0  0  0  0  0  0  0  0  0
   10.4240   15.5131   22.4199 C   0  0  0  0  0  0  0  0  0  0  0  0
  1  2  1  0
  2  3  1  0
  3  4  1  0
  4  5  1  0
  5  6  1  0
  6  7  2  0
  6  8  1  0
  8  9  1  0
  9 10  1  0
 10 11  1  0
 11 12  1  0
 12 13  2  0
 12 14  2  0
 12 15  1  0
 15 16  1  0
 16 17  1  0
 17 18  1  0
 18 19  1  0
 19 20  1  0
 11 21  1  0
 21 22  1  0
  4 23  1  0
 23 24  1  0
 24 25  1  0
 25 26  1  0
 26 27  1  0
 27  4  1  0
 22  8  1  0
 20 15  1  0
M  END
>  <energy_score>  (2507) 
-21.494514

>  <inchikey>  (2507) 
None

>  <smiles>  (2507) 
None

>  <ref_pdb>  (2507) 
A4706a

>  <alias>  (2507) 
None

>  <HIPPO Pose ID>  (2507) 
500151

>  <name>  (2507) 
P500151

>  <HIPPO Compound ID>  (2507) 
314548

>  <ref_mols>  (2507) 
A4706a,A0875a

>  <distance_score>  (2507) 
1.57005

>  <inspiration_score>  (2507) 
None

$$$$
P500152
     RDKit          3D

 27 28  0  0  0  0  0  0  0  0999 V2000
    7.2480   14.3686   21.4488 C   0  0  0  0  0  0  0  0  0  0  0  0
    7.8020   15.6325   22.0868 C   0  0  2  0  0  0  0  0  0  0  0  0
    9.3105   15.4432   22.4418 C   0  0  0  0  0  0  0  0  0  0  0  0
   10.1875   15.8568   21.3876 O   0  0  0  0  0  0  0  0  0  0  0  0
   10.6542   14.7707   20.5747 C   0  0  0  0  0  0  0  0  0  0  0  0
   10.5239   15.0236   19.0786 C   0  0  0  0  0  0  0  0  0  0  0  0
   10.7915   13.8886   18.3979 F   0  0  0  0  0  0  0  0  0  0  0  0
    9.2719   15.4118   18.7609 F   0  0  0  0  0  0  0  0  0  0  0  0
   11.3684   15.9500   18.6215 F   0  0  0  0  0  0  0  0  0  0  0  0
    6.9210   16.0822   23.1724 O   0  0  0  0  0  0  0  0  0  0  0  0
    6.1157   15.2268   23.8700 C   0  0  0  0  0  0  0  0  0  0  0  0
    4.8972   15.2173   23.7878 O   0  0  0  0  0  0  0  0  0  0  0  0
    6.9019   14.3783   24.8245 C   0  0  0  0  0  0  0  0  0  0  0  0
    6.5012   12.9097   24.9747 C   0  0  0  0  0  0  0  0  0  0  0  0
    7.5180   12.1168   25.8285 C   0  0  0  0  0  0  0  0  0  0  0  0
    8.5128   13.0282   26.4903 N   0  0  0  0  0  0  0  0  0  0  0  0
    9.8297   13.5131   25.5326 S   0  0  0  0  0  0  0  0  0  0  0  0
    9.5812   12.9937   24.2074 O   0  0  0  0  0  0  0  0  0  0  0  0
   10.0405   14.9209   25.7581 O   0  0  0  0  0  0  0  0  0  0  0  0
   11.1616   12.6493   26.1442 N   0  0  0  0  0  0  0  0  0  0  0  0
   11.7490   11.8136   25.0842 C   0  0  0  0  0  0  0  0  0  0  0  0
   13.0711   11.1183   25.4046 C   0  0  0  0  0  0  0  0  0  0  0  0
   13.7909   11.6070   26.6317 C   0  0  0  0  0  0  0  0  0  0  0  0
   13.5869   13.0728   26.6729 C   0  0  0  0  0  0  0  0  0  0  0  0
   12.1277   13.4660   26.9099 C   0  0  0  0  0  0  0  0  0  0  0  0
    7.7818   14.1407   27.1849 C   0  0  0  0  0  0  0  0  0  0  0  0
    7.0364   15.0370   26.1913 C   0  0  0  0  0  0  0  0  0  0  0  0
  2  1  1  1
  2  3  1  0
  3  4  1  0
  4  5  1  0
  5  6  1  0
  6  7  1  0
  6  8  1  0
  6  9  1  0
  2 10  1  0
 10 11  1  0
 11 12  2  0
 11 13  1  0
 13 14  1  0
 14 15  1  0
 15 16  1  0
 16 17  1  0
 17 18  2  0
 17 19  2  0
 17 20  1  0
 20 21  1  0
 21 22  1  0
 22 23  1  0
 23 24  1  0
 24 25  1  0
 16 26  1  0
 26 27  1  0
 27 13  1  0
 25 20  1  0
M  END
>  <energy_score>  (2508) 
-29.045096

>  <inchikey>  (2508) 
None

>  <smiles>  (2508) 
None

>  <ref_pdb>  (2508) 
A4706a

>  <alias>  (2508) 
None

>  <HIPPO Pose ID>  (2508) 
500152

>  <name>  (2508) 
P500152

>  <HIPPO Compound ID>  (2508) 
314549

>  <ref_mols>  (2508) 
A4706a,A0875a

>  <distance_score>  (2508) 
1.843202

>  <inspiration_score>  (2508) 
None

$$$$
P500153
     RDKit          3D

 27 28  0  0  0  0  0  0  0  0999 V2000
    8.2300   17.0497   21.3104 C   0  0  0  0  0  0  0  0  0  0  0  0
    8.6738   15.7529   21.9650 C   0  0  1  0  0  0  0  0  0  0  0  0
   10.1732   15.9156   22.3490 C   0  0  0  0  0  0  0  0  0  0  0  0
   11.0814   14.8523   22.1476 O   0  0  0  0  0  0  0  0  0  0  0  0
   10.8821   14.0883   20.9676 C   0  0  0  0  0  0  0  0  0  0  0  0
   10.7660   14.7715   19.6049 C   0  0  0  0  0  0  0  0  0  0  0  0
   11.1189   13.9426   18.5996 F   0  0  0  0  0  0  0  0  0  0  0  0
   11.5766   15.8279   19.5399 F   0  0  0  0  0  0  0  0  0  0  0  0
    9.5201   15.2111   19.3436 F   0  0  0  0  0  0  0  0  0  0  0  0
    7.7920   15.5293   23.1086 O   0  0  0  0  0  0  0  0  0  0  0  0
    6.9835   14.4298   23.0935 C   0  0  0  0  0  0  0  0  0  0  0  0
    6.9107   13.6113   22.1767 O   0  0  0  0  0  0  0  0  0  0  0  0
    6.1304   14.2802   24.3671 C   0  0  0  0  0  0  0  0  0  0  0  0
    6.0415   12.7957   24.7699 C   0  0  0  0  0  0  0  0  0  0  0  0
    7.3200   12.2165   25.3844 C   0  0  0  0  0  0  0  0  0  0  0  0
    8.0536   13.2419   26.1653 N   0  0  0  0  0  0  0  0  0  0  0  0
    9.4240   13.9109   25.4416 S   0  0  0  0  0  0  0  0  0  0  0  0
    9.6128   15.2156   26.0302 O   0  0  0  0  0  0  0  0  0  0  0  0
    9.3574   13.7016   24.0232 O   0  0  0  0  0  0  0  0  0  0  0  0
   10.6787   12.9382   25.9765 N   0  0  0  0  0  0  0  0  0  0  0  0
   11.9569   13.6997   26.0205 C   0  0  0  0  0  0  0  0  0  0  0  0
   12.8800   13.2791   24.8893 C   0  0  0  0  0  0  0  0  0  0  0  0
   13.3720   11.8773   25.1342 C   0  0  0  0  0  0  0  0  0  0  0  0
   12.1963   11.0760   25.5941 C   0  0  0  0  0  0  0  0  0  0  0  0
   10.8156   11.6422   25.2584 C   0  0  0  0  0  0  0  0  0  0  0  0
    7.1227   14.2628   26.7263 C   0  0  0  0  0  0  0  0  0  0  0  0
    6.5174   15.1122   25.6003 C   0  0  0  0  0  0  0  0  0  0  0  0
  2  1  1  1
  2  3  1  0
  3  4  1  0
  4  5  1  0
  5  6  1  0
  6  7  1  0
  6  8  1  0
  6  9  1  0
  2 10  1  0
 10 11  1  0
 11 12  2  0
 11 13  1  0
 13 14  1  0
 14 15  1  0
 15 16  1  0
 16 17  1  0
 17 18  2  0
 17 19  2  0
 17 20  1  0
 20 21  1  0
 21 22  1  0
 22 23  1  0
 23 24  1  0
 24 25  1  0
 16 26  1  0
 26 27  1  0
 27 13  1  0
 25 20  1  0
M  END
>  <energy_score>  (2509) 
-49.581406

>  <inchikey>  (2509) 
None

>  <smiles>  (2509) 
None

>  <ref_pdb>  (2509) 
A4706a

>  <alias>  (2509) 
None

>  <HIPPO Pose ID>  (2509) 
500153

>  <name>  (2509) 
P500153

>  <HIPPO Compound ID>  (2509) 
314549

>  <ref_mols>  (2509) 
A4706a,A0875a

>  <distance_score>  (2509) 
1.370125

>  <inspiration_score>  (2509) 
None

$$$$
P500154
     RDKit          3D

 27 29  0  0  0  0  0  0  0  0999 V2000
    8.4213   18.5254   20.1574 C   0  0  0  0  0  0  0  0  0  0  0  0
    9.2104   17.6241   19.4123 O   0  0  0  0  0  0  0  0  0  0  0  0
    9.4019   16.3290   19.9727 C   0  0  0  0  0  0  0  0  0  0  0  0
    9.2062   16.1842   21.4791 C   0  0  1  0  0  0  0  0  0  0  0  0
    7.8923   16.1091   22.1471 O   0  0  0  0  0  0  0  0  0  0  0  0
    7.0984   15.0128   22.1414 C   0  0  0  0  0  0  0  0  0  0  0  0
    6.9668   14.2537   21.1853 O   0  0  0  0  0  0  0  0  0  0  0  0
    6.3410   14.7159   23.4724 C   0  0  0  0  0  0  0  0  0  0  0  0
    6.6964   13.2657   23.9028 C   0  0  0  0  0  0  0  0  0  0  0  0
    6.7874   12.9547   25.3876 C   0  0  0  0  0  0  0  0  0  0  0  0
    7.4061   14.0559   26.1429 N   0  0  0  0  0  0  0  0  0  0  0  0
    9.0182   14.5290   25.8994 S   0  0  0  0  0  0  0  0  0  0  0  0
    9.2409   14.7449   24.4997 O   0  0  0  0  0  0  0  0  0  0  0  0
    9.2561   15.6043   26.8328 O   0  0  0  0  0  0  0  0  0  0  0  0
   10.0103   13.2685   26.3643 N   0  0  0  0  0  0  0  0  0  0  0  0
    9.8385   11.9709   25.7227 C   0  0  0  0  0  0  0  0  0  0  0  0
   11.0804   11.3123   25.1875 C   0  0  0  0  0  0  0  0  0  0  0  0
   12.4284   11.7419   25.7098 C   0  0  0  0  0  0  0  0  0  0  0  0
   12.4933   13.2114   25.9336 C   0  0  0  0  0  0  0  0  0  0  0  0
   11.3604   13.6971   26.8028 C   0  0  0  0  0  0  0  0  0  0  0  0
    6.4622   15.2131   26.0314 C   0  0  0  0  0  0  0  0  0  0  0  0
    6.4409   15.7550   24.6001 C   0  0  0  0  0  0  0  0  0  0  0  0
   10.0022   15.0107   21.8337 C   0  0  0  0  0  0  0  0  0  0  0  0
    9.5573   13.7906   21.6886 N   0  0  0  0  0  0  0  0  0  0  0  0
   10.4944   12.9527   22.1603 C   0  0  0  0  0  0  0  0  0  0  0  0
   11.6553   13.5359   22.5812 C   0  0  0  0  0  0  0  0  0  0  0  0
   11.6222   15.2007   22.3297 S   0  0  0  0  0  0  0  0  0  0  0  0
  1  2  1  0
  2  3  1  0
  4  3  1  6
  4  5  1  0
  5  6  1  0
  6  7  2  0
  6  8  1  0
  8  9  1  0
  9 10  1  0
 10 11  1  0
 11 12  1  0
 12 13  2  0
 12 14  2  0
 12 15  1  0
 15 16  1  0
 16 17  1  0
 17 18  1  0
 18 19  1  0
 19 20  1  0
 11 21  1  0
 21 22  1  0
  4 23  1  0
 23 24  2  0
 24 25  1  0
 25 26  2  0
 26 27  1  0
 22  8  1  0
 27 23  1  0
 20 15  1  0
M  END
>  <energy_score>  (2510) 
-49.249988

>  <inchikey>  (2510) 
None

>  <smiles>  (2510) 
None

>  <ref_pdb>  (2510) 
A4706a

>  <alias>  (2510) 
None

>  <HIPPO Pose ID>  (2510) 
500154

>  <name>  (2510) 
P500154

>  <HIPPO Compound ID>  (2510) 
314550

>  <ref_mols>  (2510) 
A4706a,A0875a

>  <distance_score>  (2510) 
1.989347

>  <inspiration_score>  (2510) 
None

$$$$
P500155
     RDKit          3D

 27 28  0  0  0  0  0  0  0  0999 V2000
   11.6302   14.6947   18.6687 C   0  0  0  0  0  0  0  0  0  0  0  0
   10.3822   15.0718   18.9257 C   0  0  0  0  0  0  0  0  0  0  0  0
    9.8012   15.3763   20.2472 C   0  0  0  0  0  0  0  0  0  0  0  0
   10.3416   14.6006   21.4300 C   0  0  0  0  0  0  0  0  0  0  0  0
   10.2695   15.4369   22.5846 O   0  0  0  0  0  0  0  0  0  0  0  0
    9.2070   15.3960   23.4070 C   0  0  0  0  0  0  0  0  0  0  0  0
    9.4293   15.5445   24.6086 O   0  0  0  0  0  0  0  0  0  0  0  0
    7.7866   15.1965   22.8451 C   0  0  2  0  0  0  0  0  0  0  0  0
    7.1879   16.3938   22.1619 C   0  0  0  0  0  0  0  0  0  0  0  0
    6.9049   15.0027   23.9784 O   0  0  0  0  0  0  0  0  0  0  0  0
    6.0856   13.9291   23.9538 C   0  0  0  0  0  0  0  0  0  0  0  0
    5.9017   13.2130   22.9768 O   0  0  0  0  0  0  0  0  0  0  0  0
    5.4566   13.7089   25.3285 C   0  0  0  0  0  0  0  0  0  0  0  0
    5.5523   12.2319   25.7292 C   0  0  0  0  0  0  0  0  0  0  0  0
    6.5711   11.9259   26.8078 C   0  0  0  0  0  0  0  0  0  0  0  0
    7.7777   12.7285   26.5777 N   0  0  0  0  0  0  0  0  0  0  0  0
    8.7647   12.1871   25.3348 S   0  0  0  0  0  0  0  0  0  0  0  0
    8.5867   10.7607   25.2231 O   0  0  0  0  0  0  0  0  0  0  0  0
    8.6149   12.9874   24.1532 O   0  0  0  0  0  0  0  0  0  0  0  0
   10.3253   12.3918   25.8612 N   0  0  0  0  0  0  0  0  0  0  0  0
   10.6712   13.5114   26.7272 C   0  0  0  0  0  0  0  0  0  0  0  0
   12.1645   13.7247   26.7308 C   0  0  0  0  0  0  0  0  0  0  0  0
   13.0112   12.4750   26.5448 C   0  0  0  0  0  0  0  0  0  0  0  0
   12.5758   11.7138   25.3059 C   0  0  0  0  0  0  0  0  0  0  0  0
   11.2677   12.2429   24.7362 C   0  0  0  0  0  0  0  0  0  0  0  0
    7.5067   14.1730   26.7798 C   0  0  0  0  0  0  0  0  0  0  0  0
    6.0647   14.5673   26.4424 C   0  0  0  0  0  0  0  0  0  0  0  0
  1  2  2  0
  2  3  1  0
  3  4  1  0
  4  5  1  0
  5  6  1  0
  6  7  2  0
  6  8  1  0
  8  9  1  1
  8 10  1  0
 10 11  1  0
 11 12  2  0
 11 13  1  0
 13 14  1  0
 14 15  1  0
 15 16  1  0
 16 17  1  0
 17 18  2  0
 17 19  2  0
 17 20  1  0
 20 21  1  0
 21 22  1  0
 22 23  1  0
 23 24  1  0
 24 25  1  0
 16 26  1  0
 26 27  1  0
 27 13  1  0
 25 20  1  0
M  END
>  <energy_score>  (2511) 
-26.369306

>  <inchikey>  (2511) 
None

>  <smiles>  (2511) 
None

>  <ref_pdb>  (2511) 
A4706a

>  <alias>  (2511) 
None

>  <HIPPO Pose ID>  (2511) 
500155

>  <name>  (2511) 
P500155

>  <HIPPO Compound ID>  (2511) 
314554

>  <ref_mols>  (2511) 
A0875a,A4706a

>  <distance_score>  (2511) 
1.961896

>  <inspiration_score>  (2511) 
None

$$$$
P500156
     RDKit          3D

 27 29  0  0  0  0  0  0  0  0999 V2000
    6.0565   12.9231   22.4618 O   0  0  0  0  0  0  0  0  0  0  0  0
    6.0337   13.7664   23.3524 C   0  0  0  0  0  0  0  0  0  0  0  0
    6.6380   14.9764   23.2338 O   0  0  0  0  0  0  0  0  0  0  0  0
    7.6675   15.0279   22.2149 C   0  0  0  0  0  0  0  0  0  0  0  0
    8.7986   14.0854   22.6256 C   0  0  0  0  0  0  0  0  0  0  0  0
    9.9513   14.0503   21.8346 O   0  0  0  0  0  0  0  0  0  0  0  0
   10.9008   15.0367   22.1853 C   0  0  0  0  0  0  0  0  0  0  0  0
   11.4091   15.6466   20.9075 C   0  0  1  0  0  0  0  0  0  0  0  0
   11.8687   14.6318   19.8752 C   0  0  0  0  0  0  0  0  0  0  0  0
   10.9912   14.8770   18.6881 C   0  0  0  0  0  0  0  0  0  0  0  0
    9.7945   15.5358   19.2946 C   0  0  0  0  0  0  0  0  0  0  0  0
   10.2954   16.3611   20.3342 O   0  0  0  0  0  0  0  0  0  0  0  0
    5.4186   13.4955   24.7236 C   0  0  0  0  0  0  0  0  0  0  0  0
    6.1172   12.2782   25.3945 C   0  0  0  0  0  0  0  0  0  0  0  0
    7.2021   12.6714   26.4052 C   0  0  0  0  0  0  0  0  0  0  0  0
    7.7990   13.9079   25.8951 N   0  0  0  0  0  0  0  0  0  0  0  0
    9.3655   14.3337   26.2666 S   0  0  0  0  0  0  0  0  0  0  0  0
    9.4647   14.4629   27.6964 O   0  0  0  0  0  0  0  0  0  0  0  0
    9.7082   15.4454   25.4134 O   0  0  0  0  0  0  0  0  0  0  0  0
   10.3762   13.0885   25.8308 N   0  0  0  0  0  0  0  0  0  0  0  0
   10.1012   12.1765   24.7182 C   0  0  0  0  0  0  0  0  0  0  0  0
   10.8318   10.8939   25.0682 C   0  0  0  0  0  0  0  0  0  0  0  0
   12.3100   11.2039   25.4607 C   0  0  0  0  0  0  0  0  0  0  0  0
   12.7151   12.6115   25.0996 C   0  0  0  0  0  0  0  0  0  0  0  0
   11.7973   13.5537   25.8577 C   0  0  0  0  0  0  0  0  0  0  0  0
    6.8607   15.0577   26.1136 C   0  0  0  0  0  0  0  0  0  0  0  0
    5.4476   14.6976   25.6629 C   0  0  0  0  0  0  0  0  0  0  0  0
  1  2  2  0
  2  3  1  0
  3  4  1  0
  4  5  1  0
  5  6  1  0
  6  7  1  0
  8  7  1  1
  8  9  1  0
  9 10  1  0
 10 11  1  0
 11 12  1  0
  2 13  1  0
 13 14  1  0
 14 15  1  0
 15 16  1  0
 16 17  1  0
 17 18  2  0
 17 19  2  0
 17 20  1  0
 20 21  1  0
 21 22  1  0
 22 23  1  0
 23 24  1  0
 24 25  1  0
 16 26  1  0
 26 27  1  0
 12  8  1  0
 27 13  1  0
 25 20  1  0
M  END
>  <energy_score>  (2512) 
-64.691587

>  <inchikey>  (2512) 
None

>  <smiles>  (2512) 
None

>  <ref_pdb>  (2512) 
A4706a

>  <alias>  (2512) 
None

>  <HIPPO Pose ID>  (2512) 
500156

>  <name>  (2512) 
P500156

>  <HIPPO Compound ID>  (2512) 
314556

>  <ref_mols>  (2512) 
A4706a,A0875a

>  <distance_score>  (2512) 
1.949739

>  <inspiration_score>  (2512) 
None

$$$$
P500157
     RDKit          3D

 27 28  0  0  0  0  0  0  0  0999 V2000
   14.8078    7.5156   31.9210 C   0  0  0  0  0  0  0  0  0  0  0  0
   15.6876    8.6166   31.3472 C   0  0  0  0  0  0  0  0  0  0  0  0
   14.9125    9.8798   31.0949 C   0  0  0  0  0  0  0  0  0  0  0  0
   15.0200   10.6192   29.9764 C   0  0  0  0  0  0  0  0  0  0  0  0
   14.3125   11.9286   29.7634 C   0  0  2  0  0  0  0  0  0  0  0  0
   13.4387   11.9471   28.6057 O   0  0  0  0  0  0  0  0  0  0  0  0
   13.9744   11.9879   27.3652 C   0  0  0  0  0  0  0  0  0  0  0  0
   15.0472   11.4860   27.0602 O   0  0  0  0  0  0  0  0  0  0  0  0
   13.1074   12.7418   26.3621 C   0  0  0  0  0  0  0  0  0  0  0  0
   12.0376   13.6719   26.9476 C   0  0  0  0  0  0  0  0  0  0  0  0
   10.6275   13.1913   26.7123 C   0  0  0  0  0  0  0  0  0  0  0  0
   10.3457   12.9671   25.2832 N   0  0  0  0  0  0  0  0  0  0  0  0
    9.2074   14.0441   24.6704 S   0  0  0  0  0  0  0  0  0  0  0  0
    9.0269   13.8224   23.2612 O   0  0  0  0  0  0  0  0  0  0  0  0
    9.5550   15.3290   25.2210 O   0  0  0  0  0  0  0  0  0  0  0  0
    7.8710   13.4533   25.4936 N   0  0  0  0  0  0  0  0  0  0  0  0
    7.3643   12.1280   25.0821 C   0  0  0  0  0  0  0  0  0  0  0  0
    6.5908   11.5450   26.2594 C   0  0  0  0  0  0  0  0  0  0  0  0
    5.4702   12.4827   26.7079 C   0  0  0  0  0  0  0  0  0  0  0  0
    5.9828   13.9038   26.9428 C   0  0  0  0  0  0  0  0  0  0  0  0
    6.7739   14.4133   25.7390 C   0  0  0  0  0  0  0  0  0  0  0  0
   11.5232   12.7290   24.4372 C   0  0  0  0  0  0  0  0  0  0  0  0
   12.5366   11.8911   25.2374 C   0  0  0  0  0  0  0  0  0  0  0  0
   15.2572   13.1390   29.7609 C   0  0  0  0  0  0  0  0  0  0  0  0
   15.1202   14.0843   28.9887 O   0  0  0  0  0  0  0  0  0  0  0  0
   16.2053   13.0661   30.7323 O   0  0  0  0  0  0  0  0  0  0  0  0
   17.1285   14.1577   30.7417 C   0  0  0  0  0  0  0  0  0  0  0  0
  1  2  1  0
  2  3  1  0
  3  4  2  0
  4  5  1  0
  5  6  1  6
  6  7  1  0
  7  8  2  0
  7  9  1  0
  9 10  1  0
 10 11  1  0
 11 12  1  0
 12 13  1  0
 13 14  2  0
 13 15  2  0
 13 16  1  0
 16 17  1  0
 17 18  1  0
 18 19  1  0
 19 20  1  0
 20 21  1  0
 12 22  1  0
 22 23  1  0
  5 24  1  0
 24 25  2  0
 24 26  1  0
 26 27  1  0
 23  9  1  0
 21 16  1  0
M  END
>  <energy_score>  (2513) 
-79.911074

>  <inchikey>  (2513) 
None

>  <smiles>  (2513) 
None

>  <ref_pdb>  (2513) 
A4706a

>  <alias>  (2513) 
None

>  <HIPPO Pose ID>  (2513) 
500157

>  <name>  (2513) 
P500157

>  <HIPPO Compound ID>  (2513) 
314557

>  <ref_mols>  (2513) 
A0875a,A4706a

>  <distance_score>  (2513) 
1.910581

>  <inspiration_score>  (2513) 
None

$$$$
P500158
     RDKit          3D

 27 28  0  0  0  0  0  0  0  0999 V2000
   18.3458    8.5655   28.5844 C   0  0  0  0  0  0  0  0  0  0  0  0
   17.7517    9.7355   29.3476 C   0  0  0  0  0  0  0  0  0  0  0  0
   17.0293   10.6772   28.4263 C   0  0  0  0  0  0  0  0  0  0  0  0
   15.7180   10.9496   28.5249 C   0  0  0  0  0  0  0  0  0  0  0  0
   14.9859   11.9394   27.6663 C   0  0  1  0  0  0  0  0  0  0  0  0
   13.8400   11.3120   27.0607 O   0  0  0  0  0  0  0  0  0  0  0  0
   13.6183   11.6750   25.7764 C   0  0  0  0  0  0  0  0  0  0  0  0
   14.4525   11.5973   24.8875 O   0  0  0  0  0  0  0  0  0  0  0  0
   12.2479   12.2843   25.6150 C   0  0  0  0  0  0  0  0  0  0  0  0
   12.3877   13.4076   24.5980 C   0  0  0  0  0  0  0  0  0  0  0  0
   11.1467   14.2577   24.6188 C   0  0  0  0  0  0  0  0  0  0  0  0
    9.9707   13.3763   24.7742 N   0  0  0  0  0  0  0  0  0  0  0  0
    8.5381   14.1779   24.6475 S   0  0  0  0  0  0  0  0  0  0  0  0
    8.0573   14.0163   23.3016 O   0  0  0  0  0  0  0  0  0  0  0  0
    8.7646   15.4766   25.2356 O   0  0  0  0  0  0  0  0  0  0  0  0
    7.5140   13.4005   25.7196 N   0  0  0  0  0  0  0  0  0  0  0  0
    7.2675   11.9542   25.6055 C   0  0  0  0  0  0  0  0  0  0  0  0
    6.0109   11.5297   26.3628 C   0  0  0  0  0  0  0  0  0  0  0  0
    5.7666   12.3372   27.6287 C   0  0  0  0  0  0  0  0  0  0  0  0
    5.7516   13.8381   27.3519 C   0  0  0  0  0  0  0  0  0  0  0  0
    6.2705   14.1815   25.9628 C   0  0  0  0  0  0  0  0  0  0  0  0
   10.1660   12.0478   24.1777 C   0  0  0  0  0  0  0  0  0  0  0  0
   11.0698   11.3722   25.2130 C   0  0  0  0  0  0  0  0  0  0  0  0
   14.4385   13.0229   28.6039 C   0  0  0  0  0  0  0  0  0  0  0  0
   13.2605   13.3433   28.6867 O   0  0  0  0  0  0  0  0  0  0  0  0
   15.4455   13.6241   29.2996 O   0  0  0  0  0  0  0  0  0  0  0  0
   15.0025   14.5092   30.3299 C   0  0  0  0  0  0  0  0  0  0  0  0
  1  2  1  0
  2  3  1  0
  3  4  2  0
  4  5  1  0
  5  6  1  1
  6  7  1  0
  7  8  2  0
  7  9  1  0
  9 10  1  0
 10 11  1  0
 11 12  1  0
 12 13  1  0
 13 14  2  0
 13 15  2  0
 13 16  1  0
 16 17  1  0
 17 18  1  0
 18 19  1  0
 19 20  1  0
 20 21  1  0
 12 22  1  0
 22 23  1  0
  5 24  1  0
 24 25  2  0
 24 26  1  0
 26 27  1  0
 23  9  1  0
 21 16  1  0
M  END
>  <energy_score>  (2514) 
-61.140299

>  <inchikey>  (2514) 
None

>  <smiles>  (2514) 
None

>  <ref_pdb>  (2514) 
A4706a

>  <alias>  (2514) 
None

>  <HIPPO Pose ID>  (2514) 
500158

>  <name>  (2514) 
P500158

>  <HIPPO Compound ID>  (2514) 
314557

>  <ref_mols>  (2514) 
A4706a,A0875a

>  <distance_score>  (2514) 
1.503606

>  <inspiration_score>  (2514) 
None

$$$$
P500159
     RDKit          3D

 27 29  0  0  0  0  0  0  0  0999 V2000
    6.6737   13.1052   21.9180 O   0  0  0  0  0  0  0  0  0  0  0  0
    7.1413   13.9463   22.6723 C   0  0  0  0  0  0  0  0  0  0  0  0
    7.4591   15.1938   22.2708 O   0  0  0  0  0  0  0  0  0  0  0  0
    8.8064   15.5700   21.8481 C   0  0  1  0  0  0  0  0  0  0  0  0
    9.8186   15.6474   22.9602 C   0  0  0  0  0  0  0  0  0  0  0  0
   10.4669   14.3846   23.0726 O   0  0  0  0  0  0  0  0  0  0  0  0
   10.2997   13.7017   21.8405 C   0  0  0  0  0  0  0  0  0  0  0  0
    9.4865   14.5912   20.9328 C   0  0  2  0  0  0  0  0  0  0  0  0
   10.5811   15.4899   19.8995 S   0  0  0  0  0  0  0  0  0  0  0  0
    9.8098   16.4890   19.1960 O   0  0  0  0  0  0  0  0  0  0  0  0
   11.7419   15.8115   20.7031 O   0  0  0  0  0  0  0  0  0  0  0  0
   11.3149   14.3186   18.4574 Cl  0  0  0  0  0  0  0  0  0  0  0  0
    7.4259   13.6744   24.1146 C   0  0  0  0  0  0  0  0  0  0  0  0
    7.2987   12.2059   24.5174 C   0  0  0  0  0  0  0  0  0  0  0  0
    7.8193   11.9654   25.9280 C   0  0  0  0  0  0  0  0  0  0  0  0
    8.0231   13.2333   26.6299 N   0  0  0  0  0  0  0  0  0  0  0  0
    9.4825   14.0428   26.7848 S   0  0  0  0  0  0  0  0  0  0  0  0
    9.6535   14.9970   25.7258 O   0  0  0  0  0  0  0  0  0  0  0  0
    9.4932   14.5317   28.1403 O   0  0  0  0  0  0  0  0  0  0  0  0
   10.7338   12.9001   26.6391 N   0  0  0  0  0  0  0  0  0  0  0  0
   11.9753   13.5046   27.2280 C   0  0  0  0  0  0  0  0  0  0  0  0
   13.1907   12.6031   27.0511 C   0  0  0  0  0  0  0  0  0  0  0  0
   13.4329   12.2178   25.6022 C   0  0  0  0  0  0  0  0  0  0  0  0
   12.3206   12.7649   24.7219 C   0  0  0  0  0  0  0  0  0  0  0  0
   10.9720   12.3416   25.2741 C   0  0  0  0  0  0  0  0  0  0  0  0
    6.8350   14.1231   26.5287 C   0  0  0  0  0  0  0  0  0  0  0  0
    6.6514   14.5736   25.0768 C   0  0  0  0  0  0  0  0  0  0  0  0
  1  2  2  0
  2  3  1  0
  4  3  1  1
  4  5  1  0
  5  6  1  0
  6  7  1  0
  7  8  1  0
  8  9  1  6
  9 10  2  0
  9 11  2  0
  9 12  1  0
  2 13  1  0
 13 14  1  0
 14 15  1  0
 15 16  1  0
 16 17  1  0
 17 18  2  0
 17 19  2  0
 17 20  1  0
 20 21  1  0
 21 22  1  0
 22 23  1  0
 23 24  1  0
 24 25  1  0
 16 26  1  0
 26 27  1  0
  8  4  1  0
 27 13  1  0
 25 20  1  0
M  END
>  <energy_score>  (2515) 
-29.260163

>  <inchikey>  (2515) 
None

>  <smiles>  (2515) 
None

>  <ref_pdb>  (2515) 
A4706a

>  <alias>  (2515) 
None

>  <HIPPO Pose ID>  (2515) 
500159

>  <name>  (2515) 
P500159

>  <HIPPO Compound ID>  (2515) 
314558

>  <ref_mols>  (2515) 
A4706a,A0875a

>  <distance_score>  (2515) 
1.527226

>  <inspiration_score>  (2515) 
None

$$$$
P500160
     RDKit          3D

 27 29  0  0  0  0  0  0  0  0999 V2000
    6.8548   13.6006   21.7894 O   0  0  0  0  0  0  0  0  0  0  0  0
    7.0959   14.2919   22.7748 C   0  0  0  0  0  0  0  0  0  0  0  0
    8.0037   15.2901   22.8079 O   0  0  0  0  0  0  0  0  0  0  0  0
    9.0356   15.5671   21.7859 C   0  0  1  0  0  0  0  0  0  0  0  0
   10.3341   15.8661   22.5510 C   0  0  0  0  0  0  0  0  0  0  0  0
   11.0927   14.6553   22.6835 O   0  0  0  0  0  0  0  0  0  0  0  0
   10.4582   13.6875   21.8542 C   0  0  0  0  0  0  0  0  0  0  0  0
    9.5138   14.4140   20.9278 C   0  0  2  0  0  0  0  0  0  0  0  0
   10.3611   14.9633   19.4484 S   0  0  0  0  0  0  0  0  0  0  0  0
   10.0361   16.3491   19.2021 O   0  0  0  0  0  0  0  0  0  0  0  0
   10.3269   13.9841   18.3900 O   0  0  0  0  0  0  0  0  0  0  0  0
   12.3074   14.8629   19.8513 Cl  0  0  0  0  0  0  0  0  0  0  0  0
    6.4250   13.9791   24.1340 C   0  0  0  0  0  0  0  0  0  0  0  0
    6.7946   12.5071   24.4819 C   0  0  0  0  0  0  0  0  0  0  0  0
    7.2007   12.1664   25.9029 C   0  0  0  0  0  0  0  0  0  0  0  0
    7.9306   13.2758   26.5144 N   0  0  0  0  0  0  0  0  0  0  0  0
    9.4163   13.7723   25.9001 S   0  0  0  0  0  0  0  0  0  0  0  0
    9.8137   14.8950   26.7064 O   0  0  0  0  0  0  0  0  0  0  0  0
    9.2771   13.9287   24.4852 O   0  0  0  0  0  0  0  0  0  0  0  0
   10.5528   12.5249   26.1245 N   0  0  0  0  0  0  0  0  0  0  0  0
   11.9192   13.1598   26.1771 C   0  0  0  0  0  0  0  0  0  0  0  0
   13.0153   12.1414   26.4192 C   0  0  0  0  0  0  0  0  0  0  0  0
   12.9603   11.0531   25.3674 C   0  0  0  0  0  0  0  0  0  0  0  0
   11.5527   10.4140   25.2484 C   0  0  0  0  0  0  0  0  0  0  0  0
   10.4943   11.4830   25.0484 C   0  0  0  0  0  0  0  0  0  0  0  0
    6.9632   14.4170   26.6359 C   0  0  0  0  0  0  0  0  0  0  0  0
    6.6428   15.0099   25.2614 C   0  0  0  0  0  0  0  0  0  0  0  0
  1  2  2  0
  2  3  1  0
  4  3  1  1
  4  5  1  0
  5  6  1  0
  6  7  1  0
  7  8  1  0
  8  9  1  6
  9 10  2  0
  9 11  2  0
  9 12  1  0
  2 13  1  0
 13 14  1  0
 14 15  1  0
 15 16  1  0
 16 17  1  0
 17 18  2  0
 17 19  2  0
 17 20  1  0
 20 21  1  0
 21 22  1  0
 22 23  1  0
 23 24  1  0
 24 25  1  0
 16 26  1  0
 26 27  1  0
  8  4  1  0
 27 13  1  0
 25 20  1  0
M  END
>  <energy_score>  (2516) 
-36.491612

>  <inchikey>  (2516) 
None

>  <smiles>  (2516) 
None

>  <ref_pdb>  (2516) 
A4706a

>  <alias>  (2516) 
None

>  <HIPPO Pose ID>  (2516) 
500160

>  <name>  (2516) 
P500160

>  <HIPPO Compound ID>  (2516) 
314558

>  <ref_mols>  (2516) 
A0875a,A4706a

>  <distance_score>  (2516) 
1.465836

>  <inspiration_score>  (2516) 
None

$$$$
P500161
     RDKit          3D

 27 29  0  0  0  0  0  0  0  0999 V2000
    6.5592   13.0170   22.1534 O   0  0  0  0  0  0  0  0  0  0  0  0
    6.7508   13.9701   22.9067 C   0  0  0  0  0  0  0  0  0  0  0  0
    7.6702   14.9227   22.6349 O   0  0  0  0  0  0  0  0  0  0  0  0
    8.6814   14.5563   21.6459 C   0  0  2  0  0  0  0  0  0  0  0  0
    9.6426   13.5191   22.2131 C   0  0  0  0  0  0  0  0  0  0  0  0
   10.7246   14.1921   22.8657 O   0  0  0  0  0  0  0  0  0  0  0  0
   10.5416   15.5876   22.6487 C   0  0  0  0  0  0  0  0  0  0  0  0
    9.6115   15.7065   21.4660 C   0  0  1  0  0  0  0  0  0  0  0  0
   10.5500   15.7213   20.0024 S   0  0  0  0  0  0  0  0  0  0  0  0
    9.9249   16.7336   19.1797 O   0  0  0  0  0  0  0  0  0  0  0  0
   11.9359   15.7531   20.4162 O   0  0  0  0  0  0  0  0  0  0  0  0
   10.6519   14.2000   18.7227 Cl  0  0  0  0  0  0  0  0  0  0  0  0
    6.0304   14.0695   24.2604 C   0  0  0  0  0  0  0  0  0  0  0  0
    6.2893   12.7285   24.9974 C   0  0  0  0  0  0  0  0  0  0  0  0
    6.7791   12.7673   26.4345 C   0  0  0  0  0  0  0  0  0  0  0  0
    7.4975   13.9991   26.7751 N   0  0  0  0  0  0  0  0  0  0  0  0
    9.0648   14.3312   26.2480 S   0  0  0  0  0  0  0  0  0  0  0  0
    8.9971   14.4793   24.8256 O   0  0  0  0  0  0  0  0  0  0  0  0
    9.5609   15.4130   27.0585 O   0  0  0  0  0  0  0  0  0  0  0  0
    9.9820   12.9569   26.5613 N   0  0  0  0  0  0  0  0  0  0  0  0
   11.4110   13.2330   26.8501 C   0  0  0  0  0  0  0  0  0  0  0  0
   12.2188   13.3914   25.6006 C   0  0  0  0  0  0  0  0  0  0  0  0
   12.1233   12.1843   24.7235 C   0  0  0  0  0  0  0  0  0  0  0  0
   10.9293   11.2633   24.9571 C   0  0  0  0  0  0  0  0  0  0  0  0
    9.7284   11.8357   25.6431 C   0  0  0  0  0  0  0  0  0  0  0  0
    6.5681   15.1444   26.5682 C   0  0  0  0  0  0  0  0  0  0  0  0
    6.2632   15.3497   25.0824 C   0  0  0  0  0  0  0  0  0  0  0  0
  1  2  2  0
  2  3  1  0
  4  3  1  1
  4  5  1  0
  5  6  1  0
  6  7  1  0
  7  8  1  0
  8  9  1  6
  9 10  2  0
  9 11  2  0
  9 12  1  0
  2 13  1  0
 13 14  1  0
 14 15  1  0
 15 16  1  0
 16 17  1  0
 17 18  2  0
 17 19  2  0
 17 20  1  0
 20 21  1  0
 21 22  1  0
 22 23  1  0
 23 24  1  0
 24 25  1  0
 16 26  1  0
 26 27  1  0
  8  4  1  0
 27 13  1  0
 25 20  1  0
M  END
>  <energy_score>  (2517) 
-24.112297

>  <inchikey>  (2517) 
None

>  <smiles>  (2517) 
None

>  <ref_pdb>  (2517) 
A4706a

>  <alias>  (2517) 
None

>  <HIPPO Pose ID>  (2517) 
500161

>  <name>  (2517) 
P500161

>  <HIPPO Compound ID>  (2517) 
314558

>  <ref_mols>  (2517) 
A4706a,A0875a

>  <distance_score>  (2517) 
1.598702

>  <inspiration_score>  (2517) 
None

$$$$
P500162
     RDKit          3D

 27 29  0  0  0  0  0  0  0  0999 V2000
    8.2141   12.7850   22.9561 O   0  0  0  0  0  0  0  0  0  0  0  0
    7.8845   13.9333   23.2537 C   0  0  0  0  0  0  0  0  0  0  0  0
    8.6099   15.0320   22.9017 O   0  0  0  0  0  0  0  0  0  0  0  0
    9.9170   14.7342   22.3552 C   0  0  2  0  0  0  0  0  0  0  0  0
   10.9987   14.8466   23.3872 C   0  0  0  0  0  0  0  0  0  0  0  0
   12.2358   14.8972   22.7074 O   0  0  0  0  0  0  0  0  0  0  0  0
   11.9591   15.4769   21.4329 C   0  0  0  0  0  0  0  0  0  0  0  0
   10.4751   15.7480   21.3928 C   0  0  1  0  0  0  0  0  0  0  0  0
    9.7610   15.5619   19.8407 S   0  0  0  0  0  0  0  0  0  0  0  0
    9.6780   16.8647   19.2297 O   0  0  0  0  0  0  0  0  0  0  0  0
    8.5716   14.7699   20.0730 O   0  0  0  0  0  0  0  0  0  0  0  0
   10.9719   14.4953   18.6050 Cl  0  0  0  0  0  0  0  0  0  0  0  0
    6.5899   14.1900   24.0433 C   0  0  0  0  0  0  0  0  0  0  0  0
    6.1774   12.8704   24.7245 C   0  0  0  0  0  0  0  0  0  0  0  0
    7.2215   12.4153   25.7490 C   0  0  0  0  0  0  0  0  0  0  0  0
    7.7359   13.5295   26.5677 N   0  0  0  0  0  0  0  0  0  0  0  0
    9.3092   14.1019   26.5590 S   0  0  0  0  0  0  0  0  0  0  0  0
    9.4986   14.7221   27.8476 O   0  0  0  0  0  0  0  0  0  0  0  0
    9.4457   14.9360   25.4003 O   0  0  0  0  0  0  0  0  0  0  0  0
   10.4631   12.8995   26.4550 N   0  0  0  0  0  0  0  0  0  0  0  0
   10.4046   11.8172   25.4652 C   0  0  0  0  0  0  0  0  0  0  0  0
   11.7490   11.1240   25.3908 C   0  0  0  0  0  0  0  0  0  0  0  0
   12.7744   12.0324   24.8053 C   0  0  0  0  0  0  0  0  0  0  0  0
   12.9030   13.2251   25.6997 C   0  0  0  0  0  0  0  0  0  0  0  0
   11.8443   13.3942   26.7889 C   0  0  0  0  0  0  0  0  0  0  0  0
    6.7663   14.6778   26.5681 C   0  0  0  0  0  0  0  0  0  0  0  0
    6.6080   15.2609   25.1441 C   0  0  0  0  0  0  0  0  0  0  0  0
  1  2  2  0
  2  3  1  0
  4  3  1  1
  4  5  1  0
  5  6  1  0
  6  7  1  0
  7  8  1  0
  8  9  1  6
  9 10  2  0
  9 11  2  0
  9 12  1  0
  2 13  1  0
 13 14  1  0
 14 15  1  0
 15 16  1  0
 16 17  1  0
 17 18  2  0
 17 19  2  0
 17 20  1  0
 20 21  1  0
 21 22  1  0
 22 23  1  0
 23 24  1  0
 24 25  1  0
 16 26  1  0
 26 27  1  0
  8  4  1  0
 27 13  1  0
 25 20  1  0
M  END
>  <energy_score>  (2518) 
-37.338627

>  <inchikey>  (2518) 
None

>  <smiles>  (2518) 
None

>  <ref_pdb>  (2518) 
A4706a

>  <alias>  (2518) 
None

>  <HIPPO Pose ID>  (2518) 
500162

>  <name>  (2518) 
P500162

>  <HIPPO Compound ID>  (2518) 
314558

>  <ref_mols>  (2518) 
A0875a,A4706a

>  <distance_score>  (2518) 
1.36206

>  <inspiration_score>  (2518) 
None

$$$$
P500163
     RDKit          3D

 27 29  0  0  0  0  0  0  0  0999 V2000
    8.8877   17.8734   20.8794 C   0  0  0  0  0  0  0  0  0  0  0  0
    8.3209   16.6044   21.4550 C   0  0  0  0  0  0  0  0  0  0  0  0
    7.2878   16.6194   22.1259 O   0  0  0  0  0  0  0  0  0  0  0  0
    9.0261   15.2801   21.2070 C   0  0  2  0  0  0  0  0  0  0  0  0
    8.0039   14.2196   21.2045 O   0  0  0  0  0  0  0  0  0  0  0  0
    7.0259   13.9193   22.1100 C   0  0  0  0  0  0  0  0  0  0  0  0
    5.9364   13.5118   21.7112 O   0  0  0  0  0  0  0  0  0  0  0  0
    7.2956   13.9691   23.6031 C   0  0  0  0  0  0  0  0  0  0  0  0
    7.0148   12.5802   24.2353 C   0  0  0  0  0  0  0  0  0  0  0  0
    7.3602   12.4807   25.7210 C   0  0  0  0  0  0  0  0  0  0  0  0
    7.6922   13.8000   26.2505 N   0  0  0  0  0  0  0  0  0  0  0  0
    9.2249   14.4578   26.2998 S   0  0  0  0  0  0  0  0  0  0  0  0
    9.4091   15.3695   25.1995 O   0  0  0  0  0  0  0  0  0  0  0  0
    9.4195   14.9309   27.6453 O   0  0  0  0  0  0  0  0  0  0  0  0
   10.3418   13.2502   26.0425 N   0  0  0  0  0  0  0  0  0  0  0  0
   10.3883   12.5635   24.7483 C   0  0  0  0  0  0  0  0  0  0  0  0
   11.0248   11.2477   25.0814 C   0  0  0  0  0  0  0  0  0  0  0  0
   12.4888   11.5144   25.4989 C   0  0  0  0  0  0  0  0  0  0  0  0
   12.8107   12.9873   25.6592 C   0  0  0  0  0  0  0  0  0  0  0  0
   11.7116   13.6676   26.4800 C   0  0  0  0  0  0  0  0  0  0  0  0
    6.6041   14.7672   25.9471 C   0  0  0  0  0  0  0  0  0  0  0  0
    6.5174   15.0070   24.4292 C   0  0  0  0  0  0  0  0  0  0  0  0
   10.1265   14.9543   22.1890 C   0  0  0  0  0  0  0  0  0  0  0  0
   11.4168   15.2612   21.4987 C   0  0  0  0  0  0  0  0  0  0  0  0
   11.1537   15.0527   20.1323 O   0  0  0  0  0  0  0  0  0  0  0  0
    9.8355   15.3118   19.9026 C   0  0  0  0  0  0  0  0  0  0  0  0
    9.4270   15.5986   18.7922 O   0  0  0  0  0  0  0  0  0  0  0  0
  1  2  1  0
  2  3  2  0
  2  4  1  0
  4  5  1  6
  5  6  1  0
  6  7  2  0
  6  8  1  0
  8  9  1  0
  9 10  1  0
 10 11  1  0
 11 12  1  0
 12 13  2  0
 12 14  2  0
 12 15  1  0
 15 16  1  0
 16 17  1  0
 17 18  1  0
 18 19  1  0
 19 20  1  0
 11 21  1  0
 21 22  1  0
  4 23  1  0
 23 24  1  0
 24 25  1  0
 25 26  1  0
 26 27  2  0
 26  4  1  0
 22  8  1  0
 20 15  1  0
M  END
>  <energy_score>  (2519) 
-12.112352

>  <inchikey>  (2519) 
None

>  <smiles>  (2519) 
None

>  <ref_pdb>  (2519) 
A4706a

>  <alias>  (2519) 
None

>  <HIPPO Pose ID>  (2519) 
500163

>  <name>  (2519) 
P500163

>  <HIPPO Compound ID>  (2519) 
314559

>  <ref_mols>  (2519) 
A4706a,A0875a

>  <distance_score>  (2519) 
1.462691

>  <inspiration_score>  (2519) 
None

$$$$
P500164
     RDKit          3D

 27 29  0  0  0  0  0  0  0  0999 V2000
    9.9048   12.5655   22.4407 C   0  0  0  0  0  0  0  0  0  0  0  0
   10.4967   13.8594   22.7854 C   0  0  0  0  0  0  0  0  0  0  0  0
   11.4746   13.8889   23.5397 O   0  0  0  0  0  0  0  0  0  0  0  0
    9.8432   15.0975   22.1316 C   0  0  1  0  0  0  0  0  0  0  0  0
    8.6078   15.4676   22.7846 O   0  0  0  0  0  0  0  0  0  0  0  0
    7.5649   14.5970   22.7486 C   0  0  0  0  0  0  0  0  0  0  0  0
    7.4583   13.7134   21.8989 O   0  0  0  0  0  0  0  0  0  0  0  0
    6.5059   14.6849   23.8798 C   0  0  0  0  0  0  0  0  0  0  0  0
    6.2099   13.2724   24.4405 C   0  0  0  0  0  0  0  0  0  0  0  0
    7.2691   12.7567   25.4227 C   0  0  0  0  0  0  0  0  0  0  0  0
    7.7460   13.7892   26.3720 N   0  0  0  0  0  0  0  0  0  0  0  0
    9.3244   14.3894   26.3470 S   0  0  0  0  0  0  0  0  0  0  0  0
    9.4286   15.2730   27.4822 O   0  0  0  0  0  0  0  0  0  0  0  0
    9.5629   14.9217   25.0357 O   0  0  0  0  0  0  0  0  0  0  0  0
   10.4511   13.1661   26.6101 N   0  0  0  0  0  0  0  0  0  0  0  0
   11.7766   13.7642   26.9745 C   0  0  0  0  0  0  0  0  0  0  0  0
   13.0166   13.1723   26.3243 C   0  0  0  0  0  0  0  0  0  0  0  0
   12.9507   11.7025   26.2409 C   0  0  0  0  0  0  0  0  0  0  0  0
   11.7633   11.3817   25.3867 C   0  0  0  0  0  0  0  0  0  0  0  0
   10.4305   12.0095   25.7258 C   0  0  0  0  0  0  0  0  0  0  0  0
    6.7578   14.9177   26.4356 C   0  0  0  0  0  0  0  0  0  0  0  0
    6.6786   15.6344   25.0725 C   0  0  0  0  0  0  0  0  0  0  0  0
   10.9135   16.1597   22.2710 C   0  0  0  0  0  0  0  0  0  0  0  0
   12.0047   15.6329   21.3697 C   0  0  0  0  0  0  0  0  0  0  0  0
   11.2912   15.1318   20.2469 O   0  0  0  0  0  0  0  0  0  0  0  0
    9.9683   15.0877   20.6024 C   0  0  0  0  0  0  0  0  0  0  0  0
    9.0710   15.1569   19.7874 O   0  0  0  0  0  0  0  0  0  0  0  0
  1  2  1  0
  2  3  2  0
  2  4  1  0
  4  5  1  6
  5  6  1  0
  6  7  2  0
  6  8  1  0
  8  9  1  0
  9 10  1  0
 10 11  1  0
 11 12  1  0
 12 13  2  0
 12 14  2  0
 12 15  1  0
 15 16  1  0
 16 17  1  0
 17 18  1  0
 18 19  1  0
 19 20  1  0
 11 21  1  0
 21 22  1  0
  4 23  1  0
 23 24  1  0
 24 25  1  0
 25 26  1  0
 26 27  2  0
 26  4  1  0
 22  8  1  0
 20 15  1  0
M  END
>  <energy_score>  (2520) 
-7.592031

>  <inchikey>  (2520) 
None

>  <smiles>  (2520) 
None

>  <ref_pdb>  (2520) 
A4706a

>  <alias>  (2520) 
None

>  <HIPPO Pose ID>  (2520) 
500164

>  <name>  (2520) 
P500164

>  <HIPPO Compound ID>  (2520) 
314559

>  <ref_mols>  (2520) 
A4706a,A0875a

>  <distance_score>  (2520) 
1.722579

>  <inspiration_score>  (2520) 
None

$$$$
P500165
     RDKit          3D

 27 30  0  0  0  0  0  0  0  0999 V2000
    7.6252   15.8507   23.7572 O   0  0  0  0  0  0  0  0  0  0  0  0
    7.6755   14.8551   23.0609 C   0  0  0  0  0  0  0  0  0  0  0  0
    8.2718   14.7081   21.8501 O   0  0  0  0  0  0  0  0  0  0  0  0
    9.4306   15.5053   21.3462 C   0  0  0  0  0  0  0  0  0  0  0  0
    9.0893   16.8492   20.7437 C   0  0  2  0  0  0  0  0  0  0  0  0
    8.5669   18.2334   21.0963 C   0  0  0  0  0  0  0  0  0  0  0  0
    7.7250   17.1153   21.0946 O   0  0  0  0  0  0  0  0  0  0  0  0
    9.8219   14.6500   20.1237 C   0  0  0  0  0  0  0  0  0  0  0  0
   11.2248   14.8416   19.6315 C   0  0  0  0  0  0  0  0  0  0  0  0
   12.1087   14.6257   20.7092 O   0  0  0  0  0  0  0  0  0  0  0  0
   11.9334   15.5751   21.7436 C   0  0  0  0  0  0  0  0  0  0  0  0
   10.5654   15.4404   22.3516 C   0  0  0  0  0  0  0  0  0  0  0  0
    7.0809   13.5258   23.5110 C   0  0  0  0  0  0  0  0  0  0  0  0
    8.1964   12.4866   23.7336 C   0  0  0  0  0  0  0  0  0  0  0  0
    8.2544   11.9442   25.1484 C   0  0  0  0  0  0  0  0  0  0  0  0
    8.2746   13.0545   26.0911 N   0  0  0  0  0  0  0  0  0  0  0  0
    9.6291   14.0401   26.2254 S   0  0  0  0  0  0  0  0  0  0  0  0
    9.8240   14.7925   25.0182 O   0  0  0  0  0  0  0  0  0  0  0  0
    9.4715   14.7254   27.4848 O   0  0  0  0  0  0  0  0  0  0  0  0
   10.9794   12.9781   26.3641 N   0  0  0  0  0  0  0  0  0  0  0  0
   11.6350   12.6824   25.0480 C   0  0  0  0  0  0  0  0  0  0  0  0
   12.8233   11.7573   25.2609 C   0  0  0  0  0  0  0  0  0  0  0  0
   13.8699   12.3381   26.1732 C   0  0  0  0  0  0  0  0  0  0  0  0
   13.2386   12.7932   27.4657 C   0  0  0  0  0  0  0  0  0  0  0  0
   11.9716   13.6224   27.2813 C   0  0  0  0  0  0  0  0  0  0  0  0
    6.9984   13.8490   26.0707 C   0  0  0  0  0  0  0  0  0  0  0  0
    6.2076   13.6758   24.7690 C   0  0  0  0  0  0  0  0  0  0  0  0
  1  2  2  0
  2  3  1  0
  3  4  1  0
  5  4  1  1
  5  6  1  0
  6  7  1  0
  4  8  1  0
  8  9  1  0
  9 10  1  0
 10 11  1  0
 11 12  1  0
  2 13  1  0
 13 14  1  0
 14 15  1  0
 15 16  1  0
 16 17  1  0
 17 18  2  0
 17 19  2  0
 17 20  1  0
 20 21  1  0
 21 22  1  0
 22 23  1  0
 23 24  1  0
 24 25  1  0
 16 26  1  0
 26 27  1  0
 12  4  1  0
 27 13  1  0
  7  5  1  0
 25 20  1  0
M  END
>  <energy_score>  (2521) 
-34.700133

>  <inchikey>  (2521) 
None

>  <smiles>  (2521) 
None

>  <ref_pdb>  (2521) 
A4706a

>  <alias>  (2521) 
None

>  <HIPPO Pose ID>  (2521) 
500165

>  <name>  (2521) 
P500165

>  <HIPPO Compound ID>  (2521) 
314560

>  <ref_mols>  (2521) 
A4706a,A0875a

>  <distance_score>  (2521) 
1.729076

>  <inspiration_score>  (2521) 
None

$$$$
P500166
     RDKit          3D

 27 28  0  0  0  0  0  0  0  0999 V2000
   15.4969   14.1073   31.8649 C   0  0  0  0  0  0  0  0  0  0  0  0
   15.8449   14.6843   30.5061 C   0  0  0  0  0  0  0  0  0  0  0  0
   15.8280   13.6506   29.5092 O   0  0  0  0  0  0  0  0  0  0  0  0
   16.9918   12.9363   29.3912 C   0  0  0  0  0  0  0  0  0  0  0  0
   18.0211   13.1881   30.0044 O   0  0  0  0  0  0  0  0  0  0  0  0
   16.8435   11.8157   28.3542 C   0  0  2  0  0  0  0  0  0  0  0  0
   15.4587   11.5213   28.0396 O   0  0  0  0  0  0  0  0  0  0  0  0
   14.9138   12.2278   27.0194 C   0  0  0  0  0  0  0  0  0  0  0  0
   15.5265   12.9268   26.2340 O   0  0  0  0  0  0  0  0  0  0  0  0
   13.4133   12.1083   26.9820 C   0  0  0  0  0  0  0  0  0  0  0  0
   12.7862   13.3121   27.6506 C   0  0  0  0  0  0  0  0  0  0  0  0
   11.4612   13.8334   27.0985 C   0  0  0  0  0  0  0  0  0  0  0  0
   11.0092   13.1996   25.8218 N   0  0  0  0  0  0  0  0  0  0  0  0
    9.7189   14.0670   25.0962 S   0  0  0  0  0  0  0  0  0  0  0  0
    9.6710   13.8081   23.6804 O   0  0  0  0  0  0  0  0  0  0  0  0
    9.7763   15.4059   25.6235 O   0  0  0  0  0  0  0  0  0  0  0  0
    8.3894   13.2975   25.8098 N   0  0  0  0  0  0  0  0  0  0  0  0
    8.0315   11.9884   25.2013 C   0  0  0  0  0  0  0  0  0  0  0  0
    7.0109   11.2896   26.0906 C   0  0  0  0  0  0  0  0  0  0  0  0
    5.7845   12.1554   26.3605 C   0  0  0  0  0  0  0  0  0  0  0  0
    6.1863   13.5364   26.8616 C   0  0  0  0  0  0  0  0  0  0  0  0
    7.1901   14.1821   25.9146 C   0  0  0  0  0  0  0  0  0  0  0  0
   12.1333   12.9111   24.9208 C   0  0  0  0  0  0  0  0  0  0  0  0
   12.9277   11.7800   25.5614 C   0  0  0  0  0  0  0  0  0  0  0  0
   17.5401   10.5336   28.8772 C   0  0  2  0  0  0  0  0  0  0  0  0
   17.8162    9.5610   27.7269 C   0  0  0  0  0  0  0  0  0  0  0  0
   16.7553    9.8569   29.9230 N   0  0  0  0  0  0  0  0  0  0  0  0
  1  2  1  0
  2  3  1  0
  3  4  1  0
  4  5  2  0
  4  6  1  0
  6  7  1  1
  7  8  1  0
  8  9  2  0
  8 10  1  0
 10 11  1  0
 11 12  1  0
 12 13  1  0
 13 14  1  0
 14 15  2  0
 14 16  2  0
 14 17  1  0
 17 18  1  0
 18 19  1  0
 19 20  1  0
 20 21  1  0
 21 22  1  0
 13 23  1  0
 23 24  1  0
  6 25  1  0
 25 26  1  6
 25 27  1  0
 24 10  1  0
 22 17  1  0
M  END
>  <energy_score>  (2522) 
-76.842428

>  <inchikey>  (2522) 
None

>  <smiles>  (2522) 
None

>  <ref_pdb>  (2522) 
A4706a

>  <alias>  (2522) 
None

>  <HIPPO Pose ID>  (2522) 
500166

>  <name>  (2522) 
P500166

>  <HIPPO Compound ID>  (2522) 
314561

>  <ref_mols>  (2522) 
A4706a,A0875a

>  <distance_score>  (2522) 
1.878693

>  <inspiration_score>  (2522) 
None

$$$$
P500167
     RDKit          3D

 27 28  0  0  0  0  0  0  0  0999 V2000
   14.8807   12.8300   31.9341 C   0  0  0  0  0  0  0  0  0  0  0  0
   16.0616   13.4717   31.2295 C   0  0  0  0  0  0  0  0  0  0  0  0
   16.3820   12.7417   30.0338 O   0  0  0  0  0  0  0  0  0  0  0  0
   15.6656   13.0618   28.9256 C   0  0  0  0  0  0  0  0  0  0  0  0
   14.8218   13.9531   28.8824 O   0  0  0  0  0  0  0  0  0  0  0  0
   16.0837   12.2730   27.6663 C   0  0  2  0  0  0  0  0  0  0  0  0
   15.1760   12.4056   26.5074 O   0  0  0  0  0  0  0  0  0  0  0  0
   13.8652   12.0997   26.6797 C   0  0  0  0  0  0  0  0  0  0  0  0
   13.4240   11.7060   27.7523 O   0  0  0  0  0  0  0  0  0  0  0  0
   13.0017   12.1816   25.3829 C   0  0  0  0  0  0  0  0  0  0  0  0
   11.6537   11.5738   25.6889 C   0  0  0  0  0  0  0  0  0  0  0  0
   10.4372   11.7450   24.8194 C   0  0  0  0  0  0  0  0  0  0  0  0
   10.3206   13.0682   24.2507 N   0  0  0  0  0  0  0  0  0  0  0  0
    9.3309   14.2380   24.9168 S   0  0  0  0  0  0  0  0  0  0  0  0
    8.8599   15.0580   23.8299 O   0  0  0  0  0  0  0  0  0  0  0  0
   10.0425   14.8273   26.0274 O   0  0  0  0  0  0  0  0  0  0  0  0
    8.0211   13.4489   25.5866 N   0  0  0  0  0  0  0  0  0  0  0  0
    7.2401   12.4730   24.8125 C   0  0  0  0  0  0  0  0  0  0  0  0
    6.6078   11.5588   25.8666 C   0  0  0  0  0  0  0  0  0  0  0  0
    5.6291   12.3498   26.7343 C   0  0  0  0  0  0  0  0  0  0  0  0
    6.2973   13.5823   27.3401 C   0  0  0  0  0  0  0  0  0  0  0  0
    7.0933   14.3761   26.3073 C   0  0  0  0  0  0  0  0  0  0  0  0
   11.6123   13.5724   23.7405 C   0  0  0  0  0  0  0  0  0  0  0  0
   12.6612   13.5545   24.8620 C   0  0  0  0  0  0  0  0  0  0  0  0
   16.4736   10.8047   27.9673 C   0  0  1  0  0  0  0  0  0  0  0  0
   17.9817   10.6467   28.2016 C   0  0  0  0  0  0  0  0  0  0  0  0
   15.8082   10.2209   29.1421 N   0  0  0  0  0  0  0  0  0  0  0  0
  1  2  1  0
  2  3  1  0
  3  4  1  0
  4  5  2  0
  4  6  1  0
  6  7  1  6
  7  8  1  0
  8  9  2  0
  8 10  1  0
 10 11  1  0
 11 12  1  0
 12 13  1  0
 13 14  1  0
 14 15  2  0
 14 16  2  0
 14 17  1  0
 17 18  1  0
 18 19  1  0
 19 20  1  0
 20 21  1  0
 21 22  1  0
 13 23  1  0
 23 24  1  0
  6 25  1  0
 25 26  1  1
 25 27  1  0
 24 10  1  0
 22 17  1  0
M  END
>  <energy_score>  (2523) 
-64.837439

>  <inchikey>  (2523) 
None

>  <smiles>  (2523) 
None

>  <ref_pdb>  (2523) 
A4706a

>  <alias>  (2523) 
None

>  <HIPPO Pose ID>  (2523) 
500167

>  <name>  (2523) 
P500167

>  <HIPPO Compound ID>  (2523) 
314561

>  <ref_mols>  (2523) 
A0875a,A4706a

>  <distance_score>  (2523) 
1.911969

>  <inspiration_score>  (2523) 
None

$$$$
P500168
     RDKit          3D

 27 29  0  0  0  0  0  0  0  0999 V2000
   11.4042   15.1907   18.3890 C   0  0  0  0  0  0  0  0  0  0  0  0
   11.2853   14.8898   19.8367 C   0  0  0  0  0  0  0  0  0  0  0  0
   12.1833   14.7132   20.5499 O   0  0  0  0  0  0  0  0  0  0  0  0
    9.7737   14.7765   20.0911 N   0  0  0  0  0  0  0  0  0  0  0  0
    9.0565   14.3313   21.2474 C   0  0  1  0  0  0  0  0  0  0  0  0
    9.9647   13.5066   22.1696 C   0  0  0  0  0  0  0  0  0  0  0  0
   10.5851   14.4087   23.0754 O   0  0  0  0  0  0  0  0  0  0  0  0
    9.9168   15.6603   22.8782 C   0  0  0  0  0  0  0  0  0  0  0  0
    8.5760   15.4027   22.1878 C   0  0  2  0  0  0  0  0  0  0  0  0
    7.5550   14.6809   22.9525 O   0  0  0  0  0  0  0  0  0  0  0  0
    6.7278   15.2827   23.8392 C   0  0  0  0  0  0  0  0  0  0  0  0
    6.6199   16.4869   24.0010 O   0  0  0  0  0  0  0  0  0  0  0  0
    5.8735   14.2479   24.5901 C   0  0  0  0  0  0  0  0  0  0  0  0
    6.4986   12.8499   24.7530 C   0  0  0  0  0  0  0  0  0  0  0  0
    6.8642   12.4986   26.1904 C   0  0  0  0  0  0  0  0  0  0  0  0
    7.4839   13.6242   26.9113 N   0  0  0  0  0  0  0  0  0  0  0  0
    9.0012   14.2546   26.5268 S   0  0  0  0  0  0  0  0  0  0  0  0
    9.3632   15.1564   27.5924 O   0  0  0  0  0  0  0  0  0  0  0  0
    8.8968   14.7533   25.1923 O   0  0  0  0  0  0  0  0  0  0  0  0
   10.1818   13.0635   26.4989 N   0  0  0  0  0  0  0  0  0  0  0  0
   11.5493   13.6938   26.4554 C   0  0  0  0  0  0  0  0  0  0  0  0
   12.5333   13.1163   25.4572 C   0  0  0  0  0  0  0  0  0  0  0  0
   12.4510   11.6309   25.4990 C   0  0  0  0  0  0  0  0  0  0  0  0
   11.0744   11.2487   25.0012 C   0  0  0  0  0  0  0  0  0  0  0  0
    9.9045   11.9086   25.6555 C   0  0  0  0  0  0  0  0  0  0  0  0
    6.4782   14.7426   27.0615 C   0  0  0  0  0  0  0  0  0  0  0  0
    5.4111   14.7649   25.9579 C   0  0  0  0  0  0  0  0  0  0  0  0
  1  2  1  0
  2  3  2  0
  2  4  1  0
  5  4  1  6
  5  6  1  0
  6  7  1  0
  7  8  1  0
  8  9  1  0
  9 10  1  1
 10 11  1  0
 11 12  2  0
 11 13  1  0
 13 14  1  0
 14 15  1  0
 15 16  1  0
 16 17  1  0
 17 18  2  0
 17 19  2  0
 17 20  1  0
 20 21  1  0
 21 22  1  0
 22 23  1  0
 23 24  1  0
 24 25  1  0
 16 26  1  0
 26 27  1  0
  9  5  1  0
 27 13  1  0
 25 20  1  0
M  END
>  <energy_score>  (2524) 
-3.773737

>  <inchikey>  (2524) 
None

>  <smiles>  (2524) 
None

>  <ref_pdb>  (2524) 
A4706a

>  <alias>  (2524) 
None

>  <HIPPO Pose ID>  (2524) 
500168

>  <name>  (2524) 
P500168

>  <HIPPO Compound ID>  (2524) 
314562

>  <ref_mols>  (2524) 
A4706a,A0875a

>  <distance_score>  (2524) 
1.859365

>  <inspiration_score>  (2524) 
None

$$$$
P500169
     RDKit          3D

 27 29  0  0  0  0  0  0  0  0999 V2000
   11.5013   14.9575   18.2788 C   0  0  0  0  0  0  0  0  0  0  0  0
   10.3323   15.5873   18.9679 C   0  0  0  0  0  0  0  0  0  0  0  0
    9.3617   15.9058   18.4251 O   0  0  0  0  0  0  0  0  0  0  0  0
   10.6884   15.6101   20.4466 N   0  0  0  0  0  0  0  0  0  0  0  0
    9.8829   15.9456   21.6055 C   0  0  2  0  0  0  0  0  0  0  0  0
   10.8024   15.6607   22.7707 C   0  0  0  0  0  0  0  0  0  0  0  0
   10.8354   14.2270   22.8859 O   0  0  0  0  0  0  0  0  0  0  0  0
    9.6670   13.7283   22.1959 C   0  0  0  0  0  0  0  0  0  0  0  0
    8.7829   14.9028   21.7736 C   0  0  1  0  0  0  0  0  0  0  0  0
    7.7854   15.2335   22.7779 O   0  0  0  0  0  0  0  0  0  0  0  0
    6.8797   14.2425   23.0058 C   0  0  0  0  0  0  0  0  0  0  0  0
    6.7959   13.2327   22.2998 O   0  0  0  0  0  0  0  0  0  0  0  0
    5.9588   14.4205   24.2278 C   0  0  0  0  0  0  0  0  0  0  0  0
    5.7365   13.0334   24.8592 C   0  0  0  0  0  0  0  0  0  0  0  0
    7.0013   12.5211   25.5424 C   0  0  0  0  0  0  0  0  0  0  0  0
    7.6028   13.5065   26.4813 N   0  0  0  0  0  0  0  0  0  0  0  0
    9.1686   14.0690   26.2073 S   0  0  0  0  0  0  0  0  0  0  0  0
    9.1596   14.6364   24.8913 O   0  0  0  0  0  0  0  0  0  0  0  0
    9.5280   14.9045   27.3273 O   0  0  0  0  0  0  0  0  0  0  0  0
   10.2908   12.8087   26.2005 N   0  0  0  0  0  0  0  0  0  0  0  0
   11.6571   13.4290   26.0465 C   0  0  0  0  0  0  0  0  0  0  0  0
   12.5775   12.6943   25.0942 C   0  0  0  0  0  0  0  0  0  0  0  0
   12.5419   11.2409   25.4547 C   0  0  0  0  0  0  0  0  0  0  0  0
   11.1388   10.6474   25.2389 C   0  0  0  0  0  0  0  0  0  0  0  0
   10.0213   11.6624   25.3254 C   0  0  0  0  0  0  0  0  0  0  0  0
    6.6771   14.6773   26.6866 C   0  0  0  0  0  0  0  0  0  0  0  0
    6.3633   15.3870   25.3503 C   0  0  0  0  0  0  0  0  0  0  0  0
  1  2  1  0
  2  3  2  0
  2  4  1  0
  5  4  1  6
  5  6  1  0
  6  7  1  0
  7  8  1  0
  8  9  1  0
  9 10  1  1
 10 11  1  0
 11 12  2  0
 11 13  1  0
 13 14  1  0
 14 15  1  0
 15 16  1  0
 16 17  1  0
 17 18  2  0
 17 19  2  0
 17 20  1  0
 20 21  1  0
 21 22  1  0
 22 23  1  0
 23 24  1  0
 24 25  1  0
 16 26  1  0
 26 27  1  0
  9  5  1  0
 27 13  1  0
 25 20  1  0
M  END
>  <energy_score>  (2525) 
-32.8805

>  <inchikey>  (2525) 
None

>  <smiles>  (2525) 
None

>  <ref_pdb>  (2525) 
A4706a

>  <alias>  (2525) 
None

>  <HIPPO Pose ID>  (2525) 
500169

>  <name>  (2525) 
P500169

>  <HIPPO Compound ID>  (2525) 
314562

>  <ref_mols>  (2525) 
A0875a,A4706a

>  <distance_score>  (2525) 
1.61105

>  <inspiration_score>  (2525) 
None

$$$$
P500170
     RDKit          3D

 27 28  0  0  0  0  0  0  0  0999 V2000
   11.5806   15.0848   20.9501 C   0  0  0  0  0  0  0  0  0  0  0  0
   10.1245   15.1513   20.5092 C   0  0  0  0  0  0  0  0  0  0  0  0
    9.4390   16.4483   20.9298 C   0  0  0  0  0  0  0  0  0  0  0  0
   10.1422   15.0716   18.9828 C   0  0  0  0  0  0  0  0  0  0  0  0
    9.4004   14.0306   21.0644 O   0  0  0  0  0  0  0  0  0  0  0  0
    9.3477   14.0572   22.4844 C   0  0  0  0  0  0  0  0  0  0  0  0
    8.6423   12.8924   23.1829 C   0  0  2  0  0  0  0  0  0  0  0  0
    9.4277   11.5833   23.2150 C   0  0  0  0  0  0  0  0  0  0  0  0
    8.8229   10.6978   24.0593 F   0  0  0  0  0  0  0  0  0  0  0  0
    7.2513   12.7362   22.8578 O   0  0  0  0  0  0  0  0  0  0  0  0
    6.4573   13.6390   23.5099 C   0  0  0  0  0  0  0  0  0  0  0  0
    6.3247   14.7892   23.1161 O   0  0  0  0  0  0  0  0  0  0  0  0
    5.6793   13.0474   24.6925 C   0  0  0  0  0  0  0  0  0  0  0  0
    6.3727   11.8972   25.4501 C   0  0  0  0  0  0  0  0  0  0  0  0
    7.4649   12.3610   26.4231 C   0  0  0  0  0  0  0  0  0  0  0  0
    7.7019   13.7745   26.1736 N   0  0  0  0  0  0  0  0  0  0  0  0
    9.1396   14.5751   26.3503 S   0  0  0  0  0  0  0  0  0  0  0  0
    9.3845   14.7446   27.7569 O   0  0  0  0  0  0  0  0  0  0  0  0
    9.0067   15.6887   25.4525 O   0  0  0  0  0  0  0  0  0  0  0  0
   10.3867   13.6123   25.6957 N   0  0  0  0  0  0  0  0  0  0  0  0
   11.3956   14.4573   25.0321 C   0  0  0  0  0  0  0  0  0  0  0  0
   12.4262   13.5928   24.3342 C   0  0  0  0  0  0  0  0  0  0  0  0
   13.1597   12.6639   25.2743 C   0  0  0  0  0  0  0  0  0  0  0  0
   12.1816   11.9715   26.1633 C   0  0  0  0  0  0  0  0  0  0  0  0
   11.1004   12.8703   26.7377 C   0  0  0  0  0  0  0  0  0  0  0  0
    6.5175   14.6129   26.5043 C   0  0  0  0  0  0  0  0  0  0  0  0
    5.3154   14.1418   25.6991 C   0  0  0  0  0  0  0  0  0  0  0  0
  1  2  1  0
  2  3  1  0
  2  4  1  0
  2  5  1  0
  5  6  1  0
  7  6  1  6
  7  8  1  0
  8  9  1  0
  7 10  1  0
 10 11  1  0
 11 12  2  0
 11 13  1  0
 13 14  1  0
 14 15  1  0
 15 16  1  0
 16 17  1  0
 17 18  2  0
 17 19  2  0
 17 20  1  0
 20 21  1  0
 21 22  1  0
 22 23  1  0
 23 24  1  0
 24 25  1  0
 16 26  1  0
 26 27  1  0
 27 13  1  0
 25 20  1  0
M  END
>  <energy_score>  (2526) 
-60.840809

>  <inchikey>  (2526) 
None

>  <smiles>  (2526) 
None

>  <ref_pdb>  (2526) 
A4706a

>  <alias>  (2526) 
None

>  <HIPPO Pose ID>  (2526) 
500170

>  <name>  (2526) 
P500170

>  <HIPPO Compound ID>  (2526) 
314563

>  <ref_mols>  (2526) 
A4706a,A0875a

>  <distance_score>  (2526) 
1.979551

>  <inspiration_score>  (2526) 
None

$$$$
P500171
     RDKit          3D

 27 29  0  0  0  0  0  0  0  0999 V2000
   12.0105   14.6833   19.3445 C   0  0  0  0  0  0  0  0  0  0  0  0
   10.6258   15.1167   18.9970 C   0  0  0  0  0  0  0  0  0  0  0  0
    9.9506   15.8521   19.9920 O   0  0  0  0  0  0  0  0  0  0  0  0
    9.6329   15.3167   21.2831 C   0  0  2  0  0  0  0  0  0  0  0  0
    8.1226   15.5940   21.4686 C   0  0  0  0  0  0  0  0  0  0  0  0
    7.6048   15.2549   22.7554 O   0  0  0  0  0  0  0  0  0  0  0  0
    6.9942   14.0427   22.9086 C   0  0  0  0  0  0  0  0  0  0  0  0
    6.4252   13.3731   22.0629 O   0  0  0  0  0  0  0  0  0  0  0  0
    7.2448   13.6235   24.3200 C   0  0  0  0  0  0  0  0  0  0  0  0
    7.1457   12.1699   24.7303 C   0  0  0  0  0  0  0  0  0  0  0  0
    7.9531   11.9469   26.0135 C   0  0  0  0  0  0  0  0  0  0  0  0
    8.4071   13.2192   26.6175 N   0  0  0  0  0  0  0  0  0  0  0  0
    9.8845   14.0006   26.3428 S   0  0  0  0  0  0  0  0  0  0  0  0
   10.1156   14.7274   27.5661 O   0  0  0  0  0  0  0  0  0  0  0  0
    9.8861   14.7270   25.0997 O   0  0  0  0  0  0  0  0  0  0  0  0
   11.0627   12.8169   26.2258 N   0  0  0  0  0  0  0  0  0  0  0  0
   11.2179   12.0382   24.9708 C   0  0  0  0  0  0  0  0  0  0  0  0
   12.2587   10.9768   25.3236 C   0  0  0  0  0  0  0  0  0  0  0  0
   13.6704   11.4840   25.4232 C   0  0  0  0  0  0  0  0  0  0  0  0
   13.5901   12.9210   25.8938 C   0  0  0  0  0  0  0  0  0  0  0  0
   12.3924   13.1850   26.8331 C   0  0  0  0  0  0  0  0  0  0  0  0
    7.2511   14.1565   26.7746 C   0  0  0  0  0  0  0  0  0  0  0  0
    6.7295   14.5706   25.3976 C   0  0  0  0  0  0  0  0  0  0  0  0
   10.5531   15.9774   22.2739 C   0  0  0  0  0  0  0  0  0  0  0  0
   11.6618   14.9933   22.5535 C   0  0  0  0  0  0  0  0  0  0  0  0
   11.2820   13.7368   22.0080 O   0  0  0  0  0  0  0  0  0  0  0  0
    9.9295   13.8671   21.5701 C   0  0  0  0  0  0  0  0  0  0  0  0
  1  2  1  0
  2  3  1  0
  4  3  1  0
  4  5  1  1
  5  6  1  0
  6  7  1  0
  7  8  2  0
  7  9  1  0
  9 10  1  0
 10 11  1  0
 11 12  1  0
 12 13  1  0
 13 14  2  0
 13 15  2  0
 13 16  1  0
 16 17  1  0
 17 18  1  0
 18 19  1  0
 19 20  1  0
 20 21  1  0
 12 22  1  0
 22 23  1  0
  4 24  1  0
 24 25  1  0
 25 26  1  0
 26 27  1  0
 27  4  1  0
 23  9  1  0
 21 16  1  0
M  END
>  <energy_score>  (2527) 
-92.946199

>  <inchikey>  (2527) 
None

>  <smiles>  (2527) 
None

>  <ref_pdb>  (2527) 
A4706a

>  <alias>  (2527) 
None

>  <HIPPO Pose ID>  (2527) 
500171

>  <name>  (2527) 
P500171

>  <HIPPO Compound ID>  (2527) 
314564

>  <ref_mols>  (2527) 
A4706a,A0875a

>  <distance_score>  (2527) 
1.205858

>  <inspiration_score>  (2527) 
None

$$$$
P500172
     RDKit          3D

 27 29  0  0  0  0  0  0  0  0999 V2000
   11.6382   15.0033   18.2861 C   0  0  0  0  0  0  0  0  0  0  0  0
   10.2975   14.8602   18.9149 C   0  0  0  0  0  0  0  0  0  0  0  0
   10.2241   15.7164   20.0277 O   0  0  0  0  0  0  0  0  0  0  0  0
    9.8427   15.0998   21.2698 C   0  0  1  0  0  0  0  0  0  0  0  0
    8.4046   14.5365   21.2270 C   0  0  0  0  0  0  0  0  0  0  0  0
    7.5285   14.8957   22.3241 O   0  0  0  0  0  0  0  0  0  0  0  0
    6.5788   13.9834   22.6341 C   0  0  0  0  0  0  0  0  0  0  0  0
    6.2639   13.0582   21.8887 O   0  0  0  0  0  0  0  0  0  0  0  0
    5.9667   14.0767   24.0338 C   0  0  0  0  0  0  0  0  0  0  0  0
    6.3175   12.7303   24.7341 C   0  0  0  0  0  0  0  0  0  0  0  0
    6.8180   12.7730   26.1630 C   0  0  0  0  0  0  0  0  0  0  0  0
    7.5687   14.0020   26.4263 N   0  0  0  0  0  0  0  0  0  0  0  0
    9.0632   14.3058   25.7112 S   0  0  0  0  0  0  0  0  0  0  0  0
    9.4965   15.5761   26.2236 O   0  0  0  0  0  0  0  0  0  0  0  0
    9.0012   14.0520   24.2981 O   0  0  0  0  0  0  0  0  0  0  0  0
   10.1008   13.1431   26.3361 N   0  0  0  0  0  0  0  0  0  0  0  0
    9.8965   11.8290   25.7201 C   0  0  0  0  0  0  0  0  0  0  0  0
   11.0537   11.3175   24.9322 C   0  0  0  0  0  0  0  0  0  0  0  0
   12.4747   11.7133   25.3236 C   0  0  0  0  0  0  0  0  0  0  0  0
   12.5495   12.6121   26.5220 C   0  0  0  0  0  0  0  0  0  0  0  0
   11.4915   13.6808   26.4010 C   0  0  0  0  0  0  0  0  0  0  0  0
    6.6225   15.1454   26.2862 C   0  0  0  0  0  0  0  0  0  0  0  0
    6.2746   15.3613   24.8184 C   0  0  0  0  0  0  0  0  0  0  0  0
   10.9254   14.1404   21.7371 C   0  0  0  0  0  0  0  0  0  0  0  0
   11.9516   15.0431   22.3541 C   0  0  0  0  0  0  0  0  0  0  0  0
   11.2398   16.1074   22.9447 O   0  0  0  0  0  0  0  0  0  0  0  0
    9.9652   16.1919   22.2866 C   0  0  0  0  0  0  0  0  0  0  0  0
  1  2  1  0
  2  3  1  0
  4  3  1  0
  4  5  1  6
  5  6  1  0
  6  7  1  0
  7  8  2  0
  7  9  1  0
  9 10  1  0
 10 11  1  0
 11 12  1  0
 12 13  1  0
 13 14  2  0
 13 15  2  0
 13 16  1  0
 16 17  1  0
 17 18  1  0
 18 19  1  0
 19 20  1  0
 20 21  1  0
 12 22  1  0
 22 23  1  0
  4 24  1  0
 24 25  1  0
 25 26  1  0
 26 27  1  0
 27  4  1  0
 23  9  1  0
 21 16  1  0
M  END
>  <energy_score>  (2528) 
-47.840593

>  <inchikey>  (2528) 
None

>  <smiles>  (2528) 
None

>  <ref_pdb>  (2528) 
A4706a

>  <alias>  (2528) 
None

>  <HIPPO Pose ID>  (2528) 
500172

>  <name>  (2528) 
P500172

>  <HIPPO Compound ID>  (2528) 
314564

>  <ref_mols>  (2528) 
A4706a,A0875a

>  <distance_score>  (2528) 
1.700772

>  <inspiration_score>  (2528) 
None

$$$$
P500173
     RDKit          3D

 27 29  0  0  0  0  0  0  0  0999 V2000
   11.3691   14.3772   18.8699 C   0  0  0  0  0  0  0  0  0  0  0  0
   10.6712   15.0673   20.0296 C   0  0  0  0  0  0  0  0  0  0  0  0
   10.0200   16.2689   19.3870 C   0  0  0  0  0  0  0  0  0  0  0  0
   11.7352   15.2204   21.1453 C   0  0  0  0  0  0  0  0  0  0  0  0
   11.2832   15.5625   22.4497 O   0  0  0  0  0  0  0  0  0  0  0  0
    9.8873   15.7663   22.4562 C   0  0  0  0  0  0  0  0  0  0  0  0
    9.0937   14.6371   21.7956 C   0  0  1  0  0  0  0  0  0  0  0  0
    7.6030   15.0411   21.7489 C   0  0  0  0  0  0  0  0  0  0  0  0
    6.9275   15.0355   23.0287 O   0  0  0  0  0  0  0  0  0  0  0  0
    6.5113   13.8093   23.4252 C   0  0  0  0  0  0  0  0  0  0  0  0
    6.6441   12.8059   22.7318 O   0  0  0  0  0  0  0  0  0  0  0  0
    5.8064   13.7692   24.7825 C   0  0  0  0  0  0  0  0  0  0  0  0
    5.9684   12.3668   25.3991 C   0  0  0  0  0  0  0  0  0  0  0  0
    7.3739   12.0770   25.9121 C   0  0  0  0  0  0  0  0  0  0  0  0
    7.9484   13.2338   26.6404 N   0  0  0  0  0  0  0  0  0  0  0  0
    9.2514   14.0108   25.9186 S   0  0  0  0  0  0  0  0  0  0  0  0
    9.4856   15.2189   26.6725 O   0  0  0  0  0  0  0  0  0  0  0  0
    8.9874   14.0598   24.5139 O   0  0  0  0  0  0  0  0  0  0  0  0
   10.6013   13.0506   26.0994 N   0  0  0  0  0  0  0  0  0  0  0  0
   11.8249   13.8844   25.9107 C   0  0  0  0  0  0  0  0  0  0  0  0
   12.6763   13.3979   24.7492 C   0  0  0  0  0  0  0  0  0  0  0  0
   13.2292   12.0398   25.0879 C   0  0  0  0  0  0  0  0  0  0  0  0
   12.0974   11.2158   25.6178 C   0  0  0  0  0  0  0  0  0  0  0  0
   10.6906   11.7765   25.3492 C   0  0  0  0  0  0  0  0  0  0  0  0
    6.8865   14.2080   27.0509 C   0  0  0  0  0  0  0  0  0  0  0  0
    6.2208   14.8285   25.8139 C   0  0  0  0  0  0  0  0  0  0  0  0
    9.5693   14.2852   20.4893 O   0  0  0  0  0  0  0  0  0  0  0  0
  1  2  1  0
  2  3  1  0
  2  4  1  0
  4  5  1  0
  5  6  1  0
  6  7  1  0
  7  8  1  6
  8  9  1  0
  9 10  1  0
 10 11  2  0
 10 12  1  0
 12 13  1  0
 13 14  1  0
 14 15  1  0
 15 16  1  0
 16 17  2  0
 16 18  2  0
 16 19  1  0
 19 20  1  0
 20 21  1  0
 21 22  1  0
 22 23  1  0
 23 24  1  0
 15 25  1  0
 25 26  1  0
  7 27  1  0
 27  2  1  0
 26 12  1  0
 24 19  1  0
M  END
>  <energy_score>  (2529) 
-63.930159

>  <inchikey>  (2529) 
None

>  <smiles>  (2529) 
None

>  <ref_pdb>  (2529) 
A4706a

>  <alias>  (2529) 
None

>  <HIPPO Pose ID>  (2529) 
500173

>  <name>  (2529) 
P500173

>  <HIPPO Compound ID>  (2529) 
314566

>  <ref_mols>  (2529) 
A4706a,A0875a

>  <distance_score>  (2529) 
1.655321

>  <inspiration_score>  (2529) 
None

$$$$
P500174
     RDKit          3D

 27 29  0  0  0  0  0  0  0  0999 V2000
   11.7331   15.6061   20.2670 C   0  0  0  0  0  0  0  0  0  0  0  0
   10.6135   14.6054   20.2739 C   0  0  0  0  0  0  0  0  0  0  0  0
   10.6941   14.2022   18.8060 C   0  0  0  0  0  0  0  0  0  0  0  0
   10.9838   13.7231   21.4773 C   0  0  0  0  0  0  0  0  0  0  0  0
   11.0247   14.5297   22.6888 O   0  0  0  0  0  0  0  0  0  0  0  0
   10.0000   15.5456   22.6534 C   0  0  0  0  0  0  0  0  0  0  0  0
    8.8138   15.0871   21.8186 C   0  0  1  0  0  0  0  0  0  0  0  0
    7.5232   15.8909   22.0407 C   0  0  0  0  0  0  0  0  0  0  0  0
    6.3266   15.0451   21.9344 O   0  0  0  0  0  0  0  0  0  0  0  0
    5.4802   14.8868   23.0041 C   0  0  0  0  0  0  0  0  0  0  0  0
    4.2649   14.9888   22.8883 O   0  0  0  0  0  0  0  0  0  0  0  0
    6.1536   14.4708   24.3015 C   0  0  0  0  0  0  0  0  0  0  0  0
    6.5772   12.9958   24.2394 C   0  0  0  0  0  0  0  0  0  0  0  0
    6.7879   12.3692   25.6160 C   0  0  0  0  0  0  0  0  0  0  0  0
    7.3903   13.3410   26.5400 N   0  0  0  0  0  0  0  0  0  0  0  0
    8.9223   14.0151   26.2821 S   0  0  0  0  0  0  0  0  0  0  0  0
    8.8601   14.7917   25.0798 O   0  0  0  0  0  0  0  0  0  0  0  0
    9.3013   14.6650   27.5126 O   0  0  0  0  0  0  0  0  0  0  0  0
   10.0884   12.8542   25.9876 N   0  0  0  0  0  0  0  0  0  0  0  0
    9.9534   11.9769   24.8181 C   0  0  0  0  0  0  0  0  0  0  0  0
   10.8720   10.8020   25.0766 C   0  0  0  0  0  0  0  0  0  0  0  0
   12.3023   11.2838   25.4563 C   0  0  0  0  0  0  0  0  0  0  0  0
   12.4929   12.7533   25.1641 C   0  0  0  0  0  0  0  0  0  0  0  0
   11.4553   13.5319   25.9728 C   0  0  0  0  0  0  0  0  0  0  0  0
    6.3450   14.4151   26.8337 C   0  0  0  0  0  0  0  0  0  0  0  0
    5.4195   14.7109   25.6186 C   0  0  0  0  0  0  0  0  0  0  0  0
    9.2838   15.1705   20.4479 O   0  0  0  0  0  0  0  0  0  0  0  0
  1  2  1  0
  2  3  1  0
  2  4  1  0
  4  5  1  0
  5  6  1  0
  6  7  1  0
  7  8  1  6
  8  9  1  0
  9 10  1  0
 10 11  2  0
 10 12  1  0
 12 13  1  0
 13 14  1  0
 14 15  1  0
 15 16  1  0
 16 17  2  0
 16 18  2  0
 16 19  1  0
 19 20  1  0
 20 21  1  0
 21 22  1  0
 22 23  1  0
 23 24  1  0
 15 25  1  0
 25 26  1  0
  7 27  1  0
 27  2  1  0
 26 12  1  0
 24 19  1  0
M  END
>  <energy_score>  (2530) 
-5.187305

>  <inchikey>  (2530) 
None

>  <smiles>  (2530) 
None

>  <ref_pdb>  (2530) 
A4706a

>  <alias>  (2530) 
None

>  <HIPPO Pose ID>  (2530) 
500174

>  <name>  (2530) 
P500174

>  <HIPPO Compound ID>  (2530) 
314566

>  <ref_mols>  (2530) 
A4706a,A0875a

>  <distance_score>  (2530) 
1.834117

>  <inspiration_score>  (2530) 
None

$$$$
P500175
     RDKit          3D

 27 30  0  0  0  0  0  0  0  0999 V2000
    5.7925   15.1063   22.4804 O   0  0  0  0  0  0  0  0  0  0  0  0
    6.7919   15.1379   23.1752 C   0  0  0  0  0  0  0  0  0  0  0  0
    7.9878   15.7518   22.8903 O   0  0  0  0  0  0  0  0  0  0  0  0
    8.2923   16.0052   21.5313 C   0  0  2  0  0  0  0  0  0  0  0  0
    8.2775   14.7360   20.7232 C   0  0  0  0  0  0  0  0  0  0  0  0
    9.1693   14.9118   19.6234 O   0  0  0  0  0  0  0  0  0  0  0  0
    9.8678   16.1277   19.7798 C   0  0  0  0  0  0  0  0  0  0  0  0
    9.7053   16.5074   21.2304 C   0  0  2  0  0  0  0  0  0  0  0  0
   10.8573   15.9600   22.0622 C   0  0  0  0  0  0  0  0  0  0  0  0
   11.2065   14.5313   21.8345 C   0  0  0  0  0  0  0  0  0  0  0  0
   11.7953   13.8064   22.9844 C   0  0  0  0  0  0  0  0  0  0  0  0
   10.4352   13.4441   22.5137 C   0  0  0  0  0  0  0  0  0  0  0  0
    6.9941   14.4192   24.4772 C   0  0  0  0  0  0  0  0  0  0  0  0
    6.6104   12.9611   24.6119 C   0  0  0  0  0  0  0  0  0  0  0  0
    7.7167   12.3066   25.4624 C   0  0  0  0  0  0  0  0  0  0  0  0
    8.2492   13.2381   26.5107 N   0  0  0  0  0  0  0  0  0  0  0  0
    9.7785   13.9900   26.4035 S   0  0  0  0  0  0  0  0  0  0  0  0
    9.9547   14.6389   27.6808 O   0  0  0  0  0  0  0  0  0  0  0  0
    9.8953   14.7996   25.2192 O   0  0  0  0  0  0  0  0  0  0  0  0
   10.9533   12.8032   26.3277 N   0  0  0  0  0  0  0  0  0  0  0  0
   12.3073   13.2501   26.7966 C   0  0  0  0  0  0  0  0  0  0  0  0
   13.4721   12.9649   25.8252 C   0  0  0  0  0  0  0  0  0  0  0  0
   13.5479   11.5536   25.3017 C   0  0  0  0  0  0  0  0  0  0  0  0
   12.2116   10.9271   25.4907 C   0  0  0  0  0  0  0  0  0  0  0  0
   10.9501   11.7392   25.3208 C   0  0  0  0  0  0  0  0  0  0  0  0
    7.1706   14.2120   26.9484 C   0  0  0  0  0  0  0  0  0  0  0  0
    6.7781   15.1473   25.7876 C   0  0  0  0  0  0  0  0  0  0  0  0
  1  2  2  0
  2  3  1  0
  4  3  1  1
  4  5  1  0
  5  6  1  0
  6  7  1  0
  7  8  1  0
  8  9  1  1
  9 10  1  0
 10 11  1  0
 11 12  1  0
  2 13  1  0
 13 14  1  0
 14 15  1  0
 15 16  1  0
 16 17  1  0
 17 18  2  0
 17 19  2  0
 17 20  1  0
 20 21  1  0
 21 22  1  0
 22 23  1  0
 23 24  1  0
 24 25  1  0
 16 26  1  0
 26 27  1  0
  8  4  1  0
 12 10  1  0
 27 13  1  0
 25 20  1  0
M  END
>  <energy_score>  (2531) 
-3.27841

>  <inchikey>  (2531) 
None

>  <smiles>  (2531) 
None

>  <ref_pdb>  (2531) 
A4706a

>  <alias>  (2531) 
None

>  <HIPPO Pose ID>  (2531) 
500175

>  <name>  (2531) 
P500175

>  <HIPPO Compound ID>  (2531) 
314568

>  <ref_mols>  (2531) 
A0875a,A4706a

>  <distance_score>  (2531) 
1.534056

>  <inspiration_score>  (2531) 
None

$$$$
P500176
     RDKit          3D

 27 30  0  0  0  0  0  0  0  0999 V2000
    6.7198   13.0256   22.1451 O   0  0  0  0  0  0  0  0  0  0  0  0
    6.9082   13.5352   23.2416 C   0  0  0  0  0  0  0  0  0  0  0  0
    7.9780   14.2924   23.5548 O   0  0  0  0  0  0  0  0  0  0  0  0
    8.8151   14.9274   22.5590 C   0  0  2  0  0  0  0  0  0  0  0  0
    7.9829   15.6620   21.5216 C   0  0  0  0  0  0  0  0  0  0  0  0
    8.2831   14.9884   20.2854 O   0  0  0  0  0  0  0  0  0  0  0  0
    9.6488   14.6664   20.3376 C   0  0  0  0  0  0  0  0  0  0  0  0
    9.7271   14.0325   21.7055 C   0  0  1  0  0  0  0  0  0  0  0  0
   11.1765   13.7691   22.0104 C   0  0  0  0  0  0  0  0  0  0  0  0
   11.9277   14.9212   22.4944 C   0  0  0  0  0  0  0  0  0  0  0  0
   12.6124   15.7600   21.4682 C   0  0  0  0  0  0  0  0  0  0  0  0
   11.4933   16.3254   22.2631 C   0  0  0  0  0  0  0  0  0  0  0  0
    5.9455   13.3100   24.4068 C   0  0  0  0  0  0  0  0  0  0  0  0
    6.4182   12.1781   25.3366 C   0  0  0  0  0  0  0  0  0  0  0  0
    7.1914   12.6795   26.5597 C   0  0  0  0  0  0  0  0  0  0  0  0
    7.7367   13.9856   26.2051 N   0  0  0  0  0  0  0  0  0  0  0  0
    9.2328   14.5136   26.6623 S   0  0  0  0  0  0  0  0  0  0  0  0
    9.6612   15.5189   25.7179 O   0  0  0  0  0  0  0  0  0  0  0  0
    9.2015   14.7796   28.0739 O   0  0  0  0  0  0  0  0  0  0  0  0
   10.2481   13.1984   26.4237 N   0  0  0  0  0  0  0  0  0  0  0  0
   11.6380   13.5285   26.8556 C   0  0  0  0  0  0  0  0  0  0  0  0
   12.7282   12.9649   25.9730 C   0  0  0  0  0  0  0  0  0  0  0  0
   12.4184   11.6806   25.2505 C   0  0  0  0  0  0  0  0  0  0  0  0
   10.9340   11.4253   24.9861 C   0  0  0  0  0  0  0  0  0  0  0  0
   10.1663   12.7006   25.0597 C   0  0  0  0  0  0  0  0  0  0  0  0
    6.7002   15.0314   26.1373 C   0  0  0  0  0  0  0  0  0  0  0  0
    5.6116   14.5960   25.1645 C   0  0  0  0  0  0  0  0  0  0  0  0
  1  2  2  0
  2  3  1  0
  4  3  1  1
  4  5  1  0
  5  6  1  0
  6  7  1  0
  7  8  1  0
  8  9  1  1
  9 10  1  0
 10 11  1  0
 11 12  1  0
  2 13  1  0
 13 14  1  0
 14 15  1  0
 15 16  1  0
 16 17  1  0
 17 18  2  0
 17 19  2  0
 17 20  1  0
 20 21  1  0
 21 22  1  0
 22 23  1  0
 23 24  1  0
 24 25  1  0
 16 26  1  0
 26 27  1  0
  8  4  1  0
 12 10  1  0
 27 13  1  0
 25 20  1  0
M  END
>  <energy_score>  (2532) 
-21.238532

>  <inchikey>  (2532) 
None

>  <smiles>  (2532) 
None

>  <ref_pdb>  (2532) 
A4706a

>  <alias>  (2532) 
None

>  <HIPPO Pose ID>  (2532) 
500176

>  <name>  (2532) 
P500176

>  <HIPPO Compound ID>  (2532) 
314568

>  <ref_mols>  (2532) 
A4706a,A0875a

>  <distance_score>  (2532) 
1.623737

>  <inspiration_score>  (2532) 
None

$$$$
P500177
     RDKit          3D

 27 30  0  0  0  0  0  0  0  0999 V2000
    5.1679   15.1349   23.3507 O   0  0  0  0  0  0  0  0  0  0  0  0
    6.2449   15.0892   23.9131 C   0  0  0  0  0  0  0  0  0  0  0  0
    7.3926   15.7713   23.5805 O   0  0  0  0  0  0  0  0  0  0  0  0
    7.8115   15.7682   22.2226 C   0  0  2  0  0  0  0  0  0  0  0  0
    7.3191   14.5801   21.4187 C   0  0  0  0  0  0  0  0  0  0  0  0
    8.1360   14.5353   20.2431 O   0  0  0  0  0  0  0  0  0  0  0  0
    9.3574   14.9405   20.6875 C   0  0  0  0  0  0  0  0  0  0  0  0
   10.5295   14.7313   19.9989 C   0  0  0  0  0  0  0  0  0  0  0  0
   11.7071   14.9717   20.6782 C   0  0  0  0  0  0  0  0  0  0  0  0
   11.6729   15.4228   21.9990 C   0  0  0  0  0  0  0  0  0  0  0  0
   10.4575   15.7140   22.6260 C   0  0  0  0  0  0  0  0  0  0  0  0
    9.2785   15.5085   21.9450 C   0  0  0  0  0  0  0  0  0  0  0  0
    6.6403   14.2013   25.0552 C   0  0  0  0  0  0  0  0  0  0  0  0
    6.3107   12.7251   25.1887 C   0  0  0  0  0  0  0  0  0  0  0  0
    7.5176   11.9872   25.8475 C   0  0  0  0  0  0  0  0  0  0  0  0
    8.4983   12.9546   26.4858 N   0  0  0  0  0  0  0  0  0  0  0  0
    9.7316   13.5813   25.4602 S   0  0  0  0  0  0  0  0  0  0  0  0
    9.4446   13.1505   24.1117 O   0  0  0  0  0  0  0  0  0  0  0  0
    9.9117   14.9737   25.7953 O   0  0  0  0  0  0  0  0  0  0  0  0
   11.1366   12.7663   25.9502 N   0  0  0  0  0  0  0  0  0  0  0  0
   11.8418   13.4659   27.0579 C   0  0  0  0  0  0  0  0  0  0  0  0
   13.1319   12.7400   27.4640 C   0  0  0  0  0  0  0  0  0  0  0  0
   14.0034   12.2615   26.3158 C   0  0  0  0  0  0  0  0  0  0  0  0
   13.1587   11.6422   25.2301 C   0  0  0  0  0  0  0  0  0  0  0  0
   12.0695   12.6116   24.8003 C   0  0  0  0  0  0  0  0  0  0  0  0
    7.7413   13.9944   27.2796 C   0  0  0  0  0  0  0  0  0  0  0  0
    6.8657   14.8786   26.3884 C   0  0  0  0  0  0  0  0  0  0  0  0
  1  2  2  0
  2  3  1  0
  4  3  1  1
  4  5  1  0
  5  6  1  0
  6  7  1  0
  7  8  2  0
  8  9  1  0
  9 10  2  0
 10 11  1  0
 11 12  2  0
  2 13  1  0
 13 14  1  0
 14 15  1  0
 15 16  1  0
 16 17  1  0
 17 18  2  0
 17 19  2  0
 17 20  1  0
 20 21  1  0
 21 22  1  0
 22 23  1  0
 23 24  1  0
 24 25  1  0
 16 26  1  0
 26 27  1  0
 12  4  1  0
 27 13  1  0
 12  7  1  0
 25 20  1  0
M  END
>  <energy_score>  (2533) 
-12.3154

>  <inchikey>  (2533) 
None

>  <smiles>  (2533) 
None

>  <ref_pdb>  (2533) 
A4706a

>  <alias>  (2533) 
None

>  <HIPPO Pose ID>  (2533) 
500177

>  <name>  (2533) 
P500177

>  <HIPPO Compound ID>  (2533) 
314570

>  <ref_mols>  (2533) 
A4706a,A0875a

>  <distance_score>  (2533) 
1.907001

>  <inspiration_score>  (2533) 
None

$$$$
P500178
     RDKit          3D

 27 29  0  0  0  0  0  0  0  0999 V2000
   14.8816   13.6465   30.5662 C   0  0  0  0  0  0  0  0  0  0  0  0
   16.2807   13.0878   30.8891 C   0  0  0  0  0  0  0  0  0  0  0  0
   16.2770   12.6815   32.3800 C   0  0  0  0  0  0  0  0  0  0  0  0
   17.3064   14.2204   30.7027 C   0  0  0  0  0  0  0  0  0  0  0  0
   16.5920   11.8345   30.0121 C   0  0  2  0  0  0  0  0  0  0  0  0
   17.8820   11.0946   30.3795 C   0  0  0  0  0  0  0  0  0  0  0  0
   18.2805   10.3272   29.2362 O   0  0  0  0  0  0  0  0  0  0  0  0
   17.3940   10.6456   28.1563 C   0  0  0  0  0  0  0  0  0  0  0  0
   16.7700   11.9964   28.4961 C   0  0  1  0  0  0  0  0  0  0  0  0
   15.5384   12.3987   27.8573 O   0  0  0  0  0  0  0  0  0  0  0  0
   15.0426   11.7773   26.7560 C   0  0  0  0  0  0  0  0  0  0  0  0
   15.5000   10.7793   26.2216 O   0  0  0  0  0  0  0  0  0  0  0  0
   13.8316   12.5209   26.2056 C   0  0  0  0  0  0  0  0  0  0  0  0
   12.9094   13.0006   27.3068 C   0  0  0  0  0  0  0  0  0  0  0  0
   11.5101   13.4174   26.8567 C   0  0  0  0  0  0  0  0  0  0  0  0
   11.4036   13.5434   25.3942 N   0  0  0  0  0  0  0  0  0  0  0  0
    9.8727   14.1334   24.9151 S   0  0  0  0  0  0  0  0  0  0  0  0
    8.9145   13.0662   25.0465 O   0  0  0  0  0  0  0  0  0  0  0  0
    9.6788   15.3821   25.6045 O   0  0  0  0  0  0  0  0  0  0  0  0
   10.1152   14.3943   23.2767 N   0  0  0  0  0  0  0  0  0  0  0  0
   11.2679   15.2439   22.9107 C   0  0  0  0  0  0  0  0  0  0  0  0
   11.5520   15.1418   21.4276 C   0  0  0  0  0  0  0  0  0  0  0  0
   10.3292   15.5420   20.6236 C   0  0  0  0  0  0  0  0  0  0  0  0
    9.1481   14.6875   21.0444 C   0  0  0  0  0  0  0  0  0  0  0  0
    8.8875   14.7837   22.5362 C   0  0  0  0  0  0  0  0  0  0  0  0
   11.7878   12.3305   24.6695 C   0  0  0  0  0  0  0  0  0  0  0  0
   13.0284   11.6586   25.2528 C   0  0  0  0  0  0  0  0  0  0  0  0
  1  2  1  0
  2  3  1  0
  2  4  1  0
  5  2  1  1
  5  6  1  0
  6  7  1  0
  7  8  1  0
  8  9  1  0
  9 10  1  6
 10 11  1  0
 11 12  2  0
 11 13  1  0
 13 14  1  0
 14 15  1  0
 15 16  1  0
 16 17  1  0
 17 18  2  0
 17 19  2  0
 17 20  1  0
 20 21  1  0
 21 22  1  0
 22 23  1  0
 23 24  1  0
 24 25  1  0
 16 26  1  0
 26 27  1  0
  9  5  1  0
 27 13  1  0
 25 20  1  0
M  END
>  <energy_score>  (2534) 
-70.588154

>  <inchikey>  (2534) 
None

>  <smiles>  (2534) 
None

>  <ref_pdb>  (2534) 
A4706a

>  <alias>  (2534) 
None

>  <HIPPO Pose ID>  (2534) 
500178

>  <name>  (2534) 
P500178

>  <HIPPO Compound ID>  (2534) 
314571

>  <ref_mols>  (2534) 
A4706a,A0875a

>  <distance_score>  (2534) 
1.934978

>  <inspiration_score>  (2534) 
None

$$$$
P500179
     RDKit          3D

 27 30  0  0  0  0  0  0  0  0999 V2000
    5.4318   14.8167   22.6344 O   0  0  0  0  0  0  0  0  0  0  0  0
    6.2759   14.9297   23.5191 C   0  0  0  0  0  0  0  0  0  0  0  0
    7.5167   15.4619   23.3286 O   0  0  0  0  0  0  0  0  0  0  0  0
    7.8531   15.7844   21.9590 C   0  0  2  0  0  0  0  0  0  0  0  0
    7.8941   14.5650   21.0753 C   0  0  0  0  0  0  0  0  0  0  0  0
    8.7930   14.8306   19.9868 O   0  0  0  0  0  0  0  0  0  0  0  0
    9.5098   16.0354   20.2351 C   0  0  0  0  0  0  0  0  0  0  0  0
    9.2591   16.3538   21.6971 C   0  0  2  0  0  0  0  0  0  0  0  0
   10.3193   15.8465   22.5709 N   0  0  0  0  0  0  0  0  0  0  0  0
   10.8790   14.5889   22.1631 C   0  0  0  0  0  0  0  0  0  0  0  0
   12.1733   14.6661   21.4473 C   0  0  0  0  0  0  0  0  0  0  0  0
   12.0785   14.0570   22.8228 C   0  0  0  0  0  0  0  0  0  0  0  0
    6.0314   14.3619   24.9275 C   0  0  0  0  0  0  0  0  0  0  0  0
    6.2758   12.8325   24.9296 C   0  0  0  0  0  0  0  0  0  0  0  0
    7.3262   12.2635   25.8862 C   0  0  0  0  0  0  0  0  0  0  0  0
    8.2881   13.2979   26.3230 N   0  0  0  0  0  0  0  0  0  0  0  0
    9.4003   13.8129   25.1603 S   0  0  0  0  0  0  0  0  0  0  0  0
    9.6258   15.2200   25.3697 O   0  0  0  0  0  0  0  0  0  0  0  0
    8.9818   13.2620   23.8983 O   0  0  0  0  0  0  0  0  0  0  0  0
   10.8084   13.0547   25.5898 N   0  0  0  0  0  0  0  0  0  0  0  0
   11.5416   13.5946   26.7288 C   0  0  0  0  0  0  0  0  0  0  0  0
   13.0054   13.2141   26.6213 C   0  0  0  0  0  0  0  0  0  0  0  0
   13.2172   11.7490   26.5678 C   0  0  0  0  0  0  0  0  0  0  0  0
   12.4450   11.2287   25.3799 C   0  0  0  0  0  0  0  0  0  0  0  0
   10.9734   11.6518   25.2517 C   0  0  0  0  0  0  0  0  0  0  0  0
    7.5504   14.3819   27.0186 C   0  0  0  0  0  0  0  0  0  0  0  0
    6.6738   15.1744   26.0569 C   0  0  0  0  0  0  0  0  0  0  0  0
  1  2  2  0
  2  3  1  0
  4  3  1  1
  4  5  1  0
  5  6  1  0
  6  7  1  0
  7  8  1  0
  8  9  1  1
  9 10  1  0
 10 11  1  0
 11 12  1  0
  2 13  1  0
 13 14  1  0
 14 15  1  0
 15 16  1  0
 16 17  1  0
 17 18  2  0
 17 19  2  0
 17 20  1  0
 20 21  1  0
 21 22  1  0
 22 23  1  0
 23 24  1  0
 24 25  1  0
 16 26  1  0
 26 27  1  0
  8  4  1  0
 12 10  1  0
 27 13  1  0
 25 20  1  0
M  END
>  <energy_score>  (2535) 
-48.893717

>  <inchikey>  (2535) 
None

>  <smiles>  (2535) 
None

>  <ref_pdb>  (2535) 
A4706a

>  <alias>  (2535) 
None

>  <HIPPO Pose ID>  (2535) 
500179

>  <name>  (2535) 
P500179

>  <HIPPO Compound ID>  (2535) 
314573

>  <ref_mols>  (2535) 
A0875a,A4706a

>  <distance_score>  (2535) 
1.824428

>  <inspiration_score>  (2535) 
None

$$$$
P500180
     RDKit          3D

 27 29  0  0  0  0  0  0  0  0999 V2000
   11.1563   15.3948   18.5753 C   0  0  0  0  0  0  0  0  0  0  0  0
    9.7896   15.6117   19.2066 C   0  0  0  0  0  0  0  0  0  0  0  0
    9.4810   16.9720   19.8957 C   0  0  0  0  0  0  0  0  0  0  0  0
    9.6063   14.5485   20.1852 N   0  0  0  0  0  0  0  0  0  0  0  0
   10.4204   14.8198   21.3400 C   0  0  2  0  0  0  0  0  0  0  0  0
   11.2907   13.7299   21.9074 C   0  0  0  0  0  0  0  0  0  0  0  0
   11.7143   14.2710   23.1783 O   0  0  0  0  0  0  0  0  0  0  0  0
   10.7976   15.3565   23.4550 C   0  0  0  0  0  0  0  0  0  0  0  0
    9.5926   15.1905   22.5407 C   0  0  2  0  0  0  0  0  0  0  0  0
    8.7538   14.0560   22.8646 O   0  0  0  0  0  0  0  0  0  0  0  0
    7.4033   14.2556   22.9648 C   0  0  0  0  0  0  0  0  0  0  0  0
    6.6768   14.5698   22.0431 O   0  0  0  0  0  0  0  0  0  0  0  0
    7.0176   13.9696   24.3927 C   0  0  0  0  0  0  0  0  0  0  0  0
    6.5953   12.5832   24.8484 C   0  0  0  0  0  0  0  0  0  0  0  0
    6.9819   12.4018   26.3398 C   0  0  0  0  0  0  0  0  0  0  0  0
    7.4326   13.6814   26.9550 N   0  0  0  0  0  0  0  0  0  0  0  0
    9.0292   14.2782   26.9939 S   0  0  0  0  0  0  0  0  0  0  0  0
    9.1542   15.3138   25.9920 O   0  0  0  0  0  0  0  0  0  0  0  0
    9.2868   14.6400   28.3637 O   0  0  0  0  0  0  0  0  0  0  0  0
   10.1401   13.0338   26.6040 N   0  0  0  0  0  0  0  0  0  0  0  0
   10.0045   12.4452   25.2689 C   0  0  0  0  0  0  0  0  0  0  0  0
   10.9417   11.2998   25.0597 C   0  0  0  0  0  0  0  0  0  0  0  0
   12.3959   11.7256   25.2595 C   0  0  0  0  0  0  0  0  0  0  0  0
   12.6166   12.5155   26.5330 C   0  0  0  0  0  0  0  0  0  0  0  0
   11.5458   13.5713   26.7699 C   0  0  0  0  0  0  0  0  0  0  0  0
    6.4086   14.7567   26.7000 C   0  0  0  0  0  0  0  0  0  0  0  0
    6.2963   15.0501   25.1852 C   0  0  0  0  0  0  0  0  0  0  0  0
  1  2  1  0
  2  3  1  0
  2  4  1  0
  5  4  1  6
  5  6  1  0
  6  7  1  0
  7  8  1  0
  8  9  1  0
  9 10  1  1
 10 11  1  0
 11 12  2  0
 11 13  1  0
 13 14  1  0
 14 15  1  0
 15 16  1  0
 16 17  1  0
 17 18  2  0
 17 19  2  0
 17 20  1  0
 20 21  1  0
 21 22  1  0
 22 23  1  0
 23 24  1  0
 24 25  1  0
 16 26  1  0
 26 27  1  0
  9  5  1  0
 27 13  1  0
 25 20  1  0
M  END
>  <energy_score>  (2536) 
-7.092251

>  <inchikey>  (2536) 
None

>  <smiles>  (2536) 
None

>  <ref_pdb>  (2536) 
A4706a

>  <alias>  (2536) 
None

>  <HIPPO Pose ID>  (2536) 
500180

>  <name>  (2536) 
P500180

>  <HIPPO Compound ID>  (2536) 
314574

>  <ref_mols>  (2536) 
A4706a,A0875a

>  <distance_score>  (2536) 
1.663423

>  <inspiration_score>  (2536) 
None

$$$$
P500181
     RDKit          3D

 27 29  0  0  0  0  0  0  0  0999 V2000
   11.9595   14.7025   20.5727 C   0  0  0  0  0  0  0  0  0  0  0  0
   10.5762   14.8859   19.9858 C   0  0  0  0  0  0  0  0  0  0  0  0
   10.6569   15.2643   18.5350 C   0  0  0  0  0  0  0  0  0  0  0  0
    9.8501   15.8920   20.7371 N   0  0  0  0  0  0  0  0  0  0  0  0
    9.1999   15.4790   22.0001 C   0  0  2  0  0  0  0  0  0  0  0  0
    9.2858   13.9889   22.3668 C   0  0  0  0  0  0  0  0  0  0  0  0
    8.0009   13.4000   22.1327 O   0  0  0  0  0  0  0  0  0  0  0  0
    7.2350   14.3668   21.4012 C   0  0  0  0  0  0  0  0  0  0  0  0
    7.6593   15.7057   21.9556 C   0  0  1  0  0  0  0  0  0  0  0  0
    7.0809   16.0139   23.2480 O   0  0  0  0  0  0  0  0  0  0  0  0
    6.0932   15.2136   23.7485 C   0  0  0  0  0  0  0  0  0  0  0  0
    4.9395   15.1806   23.3564 O   0  0  0  0  0  0  0  0  0  0  0  0
    6.6950   14.3658   24.8277 C   0  0  0  0  0  0  0  0  0  0  0  0
    6.5084   12.8581   24.7674 C   0  0  0  0  0  0  0  0  0  0  0  0
    7.7550   12.2302   25.4208 C   0  0  0  0  0  0  0  0  0  0  0  0
    8.2398   13.0608   26.5636 N   0  0  0  0  0  0  0  0  0  0  0  0
    9.6568   13.9921   26.4784 S   0  0  0  0  0  0  0  0  0  0  0  0
    9.7523   14.7826   25.2777 O   0  0  0  0  0  0  0  0  0  0  0  0
    9.7221   14.6723   27.7509 O   0  0  0  0  0  0  0  0  0  0  0  0
   10.9743   12.9097   26.4752 N   0  0  0  0  0  0  0  0  0  0  0  0
   11.3108   12.2388   25.2051 C   0  0  0  0  0  0  0  0  0  0  0  0
   12.5290   11.3125   25.3919 C   0  0  0  0  0  0  0  0  0  0  0  0
   13.4601   11.6296   26.5373 C   0  0  0  0  0  0  0  0  0  0  0  0
   13.5118   13.0991   26.6107 C   0  0  0  0  0  0  0  0  0  0  0  0
   12.1528   13.6430   27.0486 C   0  0  0  0  0  0  0  0  0  0  0  0
    7.0904   13.8052   27.2119 C   0  0  0  0  0  0  0  0  0  0  0  0
    6.5172   14.8544   26.2513 C   0  0  0  0  0  0  0  0  0  0  0  0
  1  2  1  0
  2  3  1  0
  2  4  1  0
  5  4  1  6
  5  6  1  0
  6  7  1  0
  7  8  1  0
  8  9  1  0
  9 10  1  1
 10 11  1  0
 11 12  2  0
 11 13  1  0
 13 14  1  0
 14 15  1  0
 15 16  1  0
 16 17  1  0
 17 18  2  0
 17 19  2  0
 17 20  1  0
 20 21  1  0
 21 22  1  0
 22 23  1  0
 23 24  1  0
 24 25  1  0
 16 26  1  0
 26 27  1  0
  9  5  1  0
 27 13  1  0
 25 20  1  0
M  END
>  <energy_score>  (2537) 
-43.836639

>  <inchikey>  (2537) 
None

>  <smiles>  (2537) 
None

>  <ref_pdb>  (2537) 
A4706a

>  <alias>  (2537) 
None

>  <HIPPO Pose ID>  (2537) 
500181

>  <name>  (2537) 
P500181

>  <HIPPO Compound ID>  (2537) 
314574

>  <ref_mols>  (2537) 
A0875a,A4706a

>  <distance_score>  (2537) 
1.897482

>  <inspiration_score>  (2537) 
None

$$$$
P500182
     RDKit          3D

 27 30  0  0  0  0  0  0  0  0999 V2000
    5.7211   15.2193   22.0711 O   0  0  0  0  0  0  0  0  0  0  0  0
    6.4237   14.9291   23.0278 C   0  0  0  0  0  0  0  0  0  0  0  0
    7.7808   14.9481   23.0329 O   0  0  0  0  0  0  0  0  0  0  0  0
    8.4541   15.5544   21.9197 C   0  0  2  0  0  0  0  0  0  0  0  0
    8.4712   14.5710   20.7035 C   0  0  0  0  0  0  0  0  0  0  0  0
    9.6043   14.8140   19.6108 C   0  0  0  0  0  0  0  0  0  0  0  0
   10.8516   15.5287   20.0409 C   0  0  2  0  0  0  0  0  0  0  0  0
   11.9485   14.7097   20.7294 C   0  0  0  0  0  0  0  0  0  0  0  0
   12.2685   15.1455   22.1934 C   0  0  0  0  0  0  0  0  0  0  0  0
   11.0970   15.7522   23.0056 C   0  0  0  0  0  0  0  0  0  0  0  0
    9.9417   15.6497   22.0933 C   0  0  2  0  0  0  0  0  0  0  0  0
   10.3705   16.4450   20.9767 O   0  0  0  0  0  0  0  0  0  0  0  0
    5.8508   14.4184   24.3508 C   0  0  0  0  0  0  0  0  0  0  0  0
    6.2449   12.9467   24.5680 C   0  0  0  0  0  0  0  0  0  0  0  0
    6.9586   12.5710   25.8533 C   0  0  0  0  0  0  0  0  0  0  0  0
    7.5927   13.7115   26.4921 N   0  0  0  0  0  0  0  0  0  0  0  0
    9.1457   14.2397   26.1866 S   0  0  0  0  0  0  0  0  0  0  0  0
    9.1243   15.2392   25.1581 O   0  0  0  0  0  0  0  0  0  0  0  0
    9.7102   14.5488   27.4773 O   0  0  0  0  0  0  0  0  0  0  0  0
    9.9581   12.9139   25.5911 N   0  0  0  0  0  0  0  0  0  0  0  0
    9.8015   12.5662   24.1595 C   0  0  0  0  0  0  0  0  0  0  0  0
    9.9133   11.0578   24.0463 C   0  0  0  0  0  0  0  0  0  0  0  0
   10.9390   10.5507   25.0595 C   0  0  0  0  0  0  0  0  0  0  0  0
   12.0141   11.6219   25.4022 C   0  0  0  0  0  0  0  0  0  0  0  0
   11.3783   12.8682   25.9958 C   0  0  0  0  0  0  0  0  0  0  0  0
    6.6137   14.7720   26.7868 C   0  0  0  0  0  0  0  0  0  0  0  0
    6.1259   15.4051   25.4927 C   0  0  0  0  0  0  0  0  0  0  0  0
  1  2  2  0
  2  3  1  0
  4  3  1  1
  4  5  1  0
  5  6  1  0
  7  6  1  1
  7  8  1  0
  8  9  1  0
  9 10  1  0
 11 10  1  1
 11 12  1  0
  2 13  1  0
 13 14  1  0
 14 15  1  0
 15 16  1  0
 16 17  1  0
 17 18  2  0
 17 19  2  0
 17 20  1  0
 20 21  1  0
 21 22  1  0
 22 23  1  0
 23 24  1  0
 24 25  1  0
 16 26  1  0
 26 27  1  0
 11  4  1  0
 27 13  1  0
 12  7  1  0
 25 20  1  0
M  END
>  <energy_score>  (2538) 
-41.732689

>  <inchikey>  (2538) 
None

>  <smiles>  (2538) 
None

>  <ref_pdb>  (2538) 
A4706a

>  <alias>  (2538) 
None

>  <HIPPO Pose ID>  (2538) 
500182

>  <name>  (2538) 
P500182

>  <HIPPO Compound ID>  (2538) 
314575

>  <ref_mols>  (2538) 
A4706a,A0875a

>  <distance_score>  (2538) 
1.97858

>  <inspiration_score>  (2538) 
None

$$$$
P500183
     RDKit          3D

 27 30  0  0  0  0  0  0  0  0999 V2000
    5.8014   14.5534   21.8129 O   0  0  0  0  0  0  0  0  0  0  0  0
    6.4716   14.7992   22.8099 C   0  0  0  0  0  0  0  0  0  0  0  0
    7.6820   15.4130   22.8040 O   0  0  0  0  0  0  0  0  0  0  0  0
    8.3517   15.6491   21.5528 C   0  0  2  0  0  0  0  0  0  0  0  0
    8.7218   14.3798   20.8200 C   0  0  0  0  0  0  0  0  0  0  0  0
    9.6750   14.6345   19.6302 C   0  0  0  0  0  0  0  0  0  0  0  0
   10.8126   15.5437   19.8667 C   0  0  2  0  0  0  0  0  0  0  0  0
   11.8989   14.9527   20.7530 C   0  0  0  0  0  0  0  0  0  0  0  0
   11.4795   14.7842   22.1957 C   0  0  0  0  0  0  0  0  0  0  0  0
   10.7226   16.0183   22.6180 C   0  0  0  0  0  0  0  0  0  0  0  0
    9.6163   16.4863   21.6668 C   0  0  1  0  0  0  0  0  0  0  0  0
   10.1988   16.6995   20.3883 O   0  0  0  0  0  0  0  0  0  0  0  0
    6.0455   14.3238   24.2064 C   0  0  0  0  0  0  0  0  0  0  0  0
    6.5705   12.8764   24.3644 C   0  0  0  0  0  0  0  0  0  0  0  0
    6.9641   12.4490   25.7651 C   0  0  0  0  0  0  0  0  0  0  0  0
    7.7224   13.5116   26.4354 N   0  0  0  0  0  0  0  0  0  0  0  0
    9.1981   14.0643   25.8430 S   0  0  0  0  0  0  0  0  0  0  0  0
    9.6688   15.0617   26.7735 O   0  0  0  0  0  0  0  0  0  0  0  0
    9.0719   14.3668   24.4490 O   0  0  0  0  0  0  0  0  0  0  0  0
   10.3049   12.8109   25.8629 N   0  0  0  0  0  0  0  0  0  0  0  0
   10.1303   11.8116   24.7755 C   0  0  0  0  0  0  0  0  0  0  0  0
   11.0215   10.6417   25.1129 C   0  0  0  0  0  0  0  0  0  0  0  0
   12.4555   11.1337   25.4643 C   0  0  0  0  0  0  0  0  0  0  0  0
   12.6831   12.5709   25.0709 C   0  0  0  0  0  0  0  0  0  0  0  0
   11.6891   13.4204   25.8382 C   0  0  0  0  0  0  0  0  0  0  0  0
    6.7683   14.6458   26.6687 C   0  0  0  0  0  0  0  0  0  0  0  0
    6.3840   15.3064   25.3437 C   0  0  0  0  0  0  0  0  0  0  0  0
  1  2  2  0
  2  3  1  0
  4  3  1  1
  4  5  1  0
  5  6  1  0
  7  6  1  1
  7  8  1  0
  8  9  1  0
  9 10  1  0
 11 10  1  1
 11 12  1  0
  2 13  1  0
 13 14  1  0
 14 15  1  0
 15 16  1  0
 16 17  1  0
 17 18  2  0
 17 19  2  0
 17 20  1  0
 20 21  1  0
 21 22  1  0
 22 23  1  0
 23 24  1  0
 24 25  1  0
 16 26  1  0
 26 27  1  0
 11  4  1  0
 27 13  1  0
 12  7  1  0
 25 20  1  0
M  END
>  <energy_score>  (2539) 
-111.889652

>  <inchikey>  (2539) 
None

>  <smiles>  (2539) 
None

>  <ref_pdb>  (2539) 
A4706a

>  <alias>  (2539) 
None

>  <HIPPO Pose ID>  (2539) 
500183

>  <name>  (2539) 
P500183

>  <HIPPO Compound ID>  (2539) 
314575

>  <ref_mols>  (2539) 
A4706a,A0875a

>  <distance_score>  (2539) 
1.66107

>  <inspiration_score>  (2539) 
None

$$$$
P500184
     RDKit          3D

 27 30  0  0  0  0  0  0  0  0999 V2000
    6.3284   13.4823   22.5943 O   0  0  0  0  0  0  0  0  0  0  0  0
    6.5569   14.2696   23.5103 C   0  0  0  0  0  0  0  0  0  0  0  0
    7.5610   15.1947   23.5085 O   0  0  0  0  0  0  0  0  0  0  0  0
    8.6179   14.8912   22.5994 C   0  0  2  0  0  0  0  0  0  0  0  0
    9.9951   15.4160   23.0368 C   0  0  0  0  0  0  0  0  0  0  0  0
   10.5583   16.0951   21.8809 O   0  0  0  0  0  0  0  0  0  0  0  0
    9.8784   15.4774   20.7848 C   0  0  0  0  0  0  0  0  0  0  0  0
   10.0080   16.0282   19.3744 C   0  0  0  0  0  0  0  0  0  0  0  0
   11.1251   15.2394   18.6928 C   0  0  0  0  0  0  0  0  0  0  0  0
   11.7820   14.4865   19.8120 C   0  0  0  0  0  0  0  0  0  0  0  0
   10.5674   14.1440   20.6469 C   0  0  0  0  0  0  0  0  0  0  0  0
    8.4422   15.4743   21.2457 C   0  0  0  0  0  0  0  0  0  0  0  0
    5.7874   14.2591   24.8336 C   0  0  0  0  0  0  0  0  0  0  0  0
    5.6071   12.8098   25.3359 C   0  0  0  0  0  0  0  0  0  0  0  0
    6.3596   12.5019   26.6305 C   0  0  0  0  0  0  0  0  0  0  0  0
    7.7381   13.0545   26.5688 N   0  0  0  0  0  0  0  0  0  0  0  0
    8.7354   12.2268   25.5005 S   0  0  0  0  0  0  0  0  0  0  0  0
    8.3194   10.8501   25.4573 O   0  0  0  0  0  0  0  0  0  0  0  0
    8.8233   12.9891   24.2948 O   0  0  0  0  0  0  0  0  0  0  0  0
   10.3044   12.2409   26.1038 N   0  0  0  0  0  0  0  0  0  0  0  0
   11.1749   11.6092   25.0710 C   0  0  0  0  0  0  0  0  0  0  0  0
   12.6569   11.5414   25.4181 C   0  0  0  0  0  0  0  0  0  0  0  0
   13.0452   12.3165   26.6437 C   0  0  0  0  0  0  0  0  0  0  0  0
   12.2826   13.6149   26.6167 C   0  0  0  0  0  0  0  0  0  0  0  0
   10.7834   13.5330   26.5807 C   0  0  0  0  0  0  0  0  0  0  0  0
    7.7096   14.5456   26.5053 C   0  0  0  0  0  0  0  0  0  0  0  0
    6.4010   15.1141   25.9461 C   0  0  0  0  0  0  0  0  0  0  0  0
  1  2  2  0
  2  3  1  0
  4  3  1  1
  4  5  1  0
  5  6  1  0
  6  7  1  0
  7  8  1  0
  8  9  1  0
  9 10  1  0
 10 11  1  0
  7 12  1  0
  2 13  1  0
 13 14  1  0
 14 15  1  0
 15 16  1  0
 16 17  1  0
 17 18  2  0
 17 19  2  0
 17 20  1  0
 20 21  1  0
 21 22  1  0
 22 23  1  0
 23 24  1  0
 24 25  1  0
 16 26  1  0
 26 27  1  0
 12  4  1  0
 27 13  1  0
 11  7  1  0
 25 20  1  0
M  END
>  <energy_score>  (2540) 
-30.219662

>  <inchikey>  (2540) 
None

>  <smiles>  (2540) 
None

>  <ref_pdb>  (2540) 
A4706a

>  <alias>  (2540) 
None

>  <HIPPO Pose ID>  (2540) 
500184

>  <name>  (2540) 
P500184

>  <HIPPO Compound ID>  (2540) 
314576

>  <ref_mols>  (2540) 
A4706a,A0875a

>  <distance_score>  (2540) 
1.795025

>  <inspiration_score>  (2540) 
None

$$$$
P500185
     RDKit          3D

 27 30  0  0  0  0  0  0  0  0999 V2000
    6.4008   13.4225   22.4945 O   0  0  0  0  0  0  0  0  0  0  0  0
    6.6758   14.0429   23.5174 C   0  0  0  0  0  0  0  0  0  0  0  0
    7.5656   15.0581   23.6219 O   0  0  0  0  0  0  0  0  0  0  0  0
    8.3720   15.5638   22.5442 C   0  0  1  0  0  0  0  0  0  0  0  0
    9.8619   15.6389   22.8913 C   0  0  0  0  0  0  0  0  0  0  0  0
   10.4568   16.1162   21.6930 O   0  0  0  0  0  0  0  0  0  0  0  0
    9.8489   15.2860   20.7154 C   0  0  0  0  0  0  0  0  0  0  0  0
    9.8750   15.8731   19.3137 C   0  0  0  0  0  0  0  0  0  0  0  0
   11.1142   15.2810   18.6308 C   0  0  0  0  0  0  0  0  0  0  0  0
   11.9064   14.6433   19.7399 C   0  0  0  0  0  0  0  0  0  0  0  0
   10.7813   14.1335   20.5814 C   0  0  0  0  0  0  0  0  0  0  0  0
    8.5080   14.7827   21.2710 C   0  0  0  0  0  0  0  0  0  0  0  0
    6.0389   13.6977   24.8796 C   0  0  0  0  0  0  0  0  0  0  0  0
    6.2911   12.2240   25.2544 C   0  0  0  0  0  0  0  0  0  0  0  0
    7.3809   11.9209   26.2815 C   0  0  0  0  0  0  0  0  0  0  0  0
    8.2104   13.1029   26.5713 N   0  0  0  0  0  0  0  0  0  0  0  0
    9.3904   13.4746   25.4471 S   0  0  0  0  0  0  0  0  0  0  0  0
    9.0146   12.7946   24.2306 O   0  0  0  0  0  0  0  0  0  0  0  0
    9.6213   14.8940   25.5064 O   0  0  0  0  0  0  0  0  0  0  0  0
   10.7923   12.7034   26.0284 N   0  0  0  0  0  0  0  0  0  0  0  0
   11.6930   13.5976   26.8062 C   0  0  0  0  0  0  0  0  0  0  0  0
   13.1620   13.1926   26.6881 C   0  0  0  0  0  0  0  0  0  0  0  0
   13.3833   11.7323   26.6470 C   0  0  0  0  0  0  0  0  0  0  0  0
   12.7205   11.2263   25.3914 C   0  0  0  0  0  0  0  0  0  0  0  0
   11.4836   12.0035   24.9298 C   0  0  0  0  0  0  0  0  0  0  0  0
    7.3708   14.2226   27.0513 C   0  0  0  0  0  0  0  0  0  0  0  0
    6.3341   14.6759   26.0260 C   0  0  0  0  0  0  0  0  0  0  0  0
  1  2  2  0
  2  3  1  0
  4  3  1  1
  4  5  1  0
  5  6  1  0
  6  7  1  0
  7  8  1  0
  8  9  1  0
  9 10  1  0
 10 11  1  0
  7 12  1  0
  2 13  1  0
 13 14  1  0
 14 15  1  0
 15 16  1  0
 16 17  1  0
 17 18  2  0
 17 19  2  0
 17 20  1  0
 20 21  1  0
 21 22  1  0
 22 23  1  0
 23 24  1  0
 24 25  1  0
 16 26  1  0
 26 27  1  0
 12  4  1  0
 27 13  1  0
 11  7  1  0
 25 20  1  0
M  END
>  <energy_score>  (2541) 
-23.77446

>  <inchikey>  (2541) 
None

>  <smiles>  (2541) 
None

>  <ref_pdb>  (2541) 
A4706a

>  <alias>  (2541) 
None

>  <HIPPO Pose ID>  (2541) 
500185

>  <name>  (2541) 
P500185

>  <HIPPO Compound ID>  (2541) 
314576

>  <ref_mols>  (2541) 
A0875a,A4706a

>  <distance_score>  (2541) 
1.475202

>  <inspiration_score>  (2541) 
None

$$$$
P500186
     RDKit          3D

 27 29  0  0  0  0  0  0  0  0999 V2000
    7.6615   16.4474   21.9484 C   0  0  0  0  0  0  0  0  0  0  0  0
    8.9420   16.6824   21.1448 C   0  0  0  0  0  0  0  0  0  0  0  0
    8.8583   18.0664   20.5182 C   0  0  0  0  0  0  0  0  0  0  0  0
    9.0109   15.7794   20.0463 O   0  0  0  0  0  0  0  0  0  0  0  0
   10.3120   15.3425   19.7410 C   0  0  0  0  0  0  0  0  0  0  0  0
   10.5531   14.1521   20.6195 C   0  0  0  0  0  0  0  0  0  0  0  0
    9.9532   14.1108   22.0243 C   0  0  2  0  0  0  0  0  0  0  0  0
    8.5197   13.8213   21.8271 O   0  0  0  0  0  0  0  0  0  0  0  0
    7.5239   13.4525   22.6461 C   0  0  0  0  0  0  0  0  0  0  0  0
    6.4593   13.0510   22.1830 O   0  0  0  0  0  0  0  0  0  0  0  0
    7.7429   13.4782   24.1154 C   0  0  0  0  0  0  0  0  0  0  0  0
    7.8752   12.0617   24.6672 C   0  0  0  0  0  0  0  0  0  0  0  0
    8.0354   12.0728   26.1798 C   0  0  0  0  0  0  0  0  0  0  0  0
    8.0935   13.4439   26.6933 N   0  0  0  0  0  0  0  0  0  0  0  0
    9.4814   14.3149   27.0173 S   0  0  0  0  0  0  0  0  0  0  0  0
    9.6913   15.2875   25.9727 O   0  0  0  0  0  0  0  0  0  0  0  0
    9.3746   14.7543   28.3852 O   0  0  0  0  0  0  0  0  0  0  0  0
   10.7761   13.2094   26.9029 N   0  0  0  0  0  0  0  0  0  0  0  0
   11.9812   13.7789   27.5801 C   0  0  0  0  0  0  0  0  0  0  0  0
   13.1923   12.8548   27.4315 C   0  0  0  0  0  0  0  0  0  0  0  0
   13.5129   12.4912   25.9849 C   0  0  0  0  0  0  0  0  0  0  0  0
   12.4438   12.9937   25.0345 C   0  0  0  0  0  0  0  0  0  0  0  0
   11.0604   12.6720   25.5453 C   0  0  0  0  0  0  0  0  0  0  0  0
    6.8841   14.2398   26.3738 C   0  0  0  0  0  0  0  0  0  0  0  0
    6.6255   14.2169   24.8653 C   0  0  0  0  0  0  0  0  0  0  0  0
   10.2786   15.4199   22.7276 C   0  0  0  0  0  0  0  0  0  0  0  0
   10.1245   16.5814   21.9304 O   0  0  0  0  0  0  0  0  0  0  0  0
  1  2  1  0
  2  3  1  0
  2  4  1  0
  4  5  1  0
  5  6  1  0
  6  7  1  0
  7  8  1  6
  8  9  1  0
  9 10  2  0
  9 11  1  0
 11 12  1  0
 12 13  1  0
 13 14  1  0
 14 15  1  0
 15 16  2  0
 15 17  2  0
 15 18  1  0
 18 19  1  0
 19 20  1  0
 20 21  1  0
 21 22  1  0
 22 23  1  0
 14 24  1  0
 24 25  1  0
  7 26  1  0
 26 27  1  0
 27  2  1  0
 25 11  1  0
 23 18  1  0
M  END
>  <energy_score>  (2542) 
-28.477471

>  <inchikey>  (2542) 
None

>  <smiles>  (2542) 
None

>  <ref_pdb>  (2542) 
A4706a

>  <alias>  (2542) 
None

>  <HIPPO Pose ID>  (2542) 
500186

>  <name>  (2542) 
P500186

>  <HIPPO Compound ID>  (2542) 
314577

>  <ref_mols>  (2542) 
A4706a,A0875a

>  <distance_score>  (2542) 
1.965931

>  <inspiration_score>  (2542) 
None

$$$$
P500187
     RDKit          3D

 27 30  0  0  0  0  0  0  0  0999 V2000
    9.4063   16.0548   18.3504 O   0  0  0  0  0  0  0  0  0  0  0  0
    9.8201   15.6333   19.4079 C   0  0  0  0  0  0  0  0  0  0  0  0
    9.9263   16.4262   20.6612 C   0  0  0  0  0  0  0  0  0  0  0  0
   11.1267   15.7037   21.2309 C   0  0  1  0  0  0  0  0  0  0  0  0
   11.2928   15.6778   22.6990 C   0  0  0  0  0  0  0  0  0  0  0  0
   10.0774   14.9232   23.1461 C   0  0  0  0  0  0  0  0  0  0  0  0
    9.7143   13.9106   22.0614 C   0  0  1  0  0  0  0  0  0  0  0  0
    8.3206   14.0455   21.6533 O   0  0  0  0  0  0  0  0  0  0  0  0
    7.2523   13.6221   22.3794 C   0  0  0  0  0  0  0  0  0  0  0  0
    6.2498   13.1744   21.8340 O   0  0  0  0  0  0  0  0  0  0  0  0
    7.2993   13.7228   23.8703 C   0  0  0  0  0  0  0  0  0  0  0  0
    6.6727   12.5496   24.6564 C   0  0  0  0  0  0  0  0  0  0  0  0
    6.9073   12.7286   26.1742 C   0  0  0  0  0  0  0  0  0  0  0  0
    7.5033   14.0523   26.3856 N   0  0  0  0  0  0  0  0  0  0  0  0
    9.0915   14.4352   26.6760 S   0  0  0  0  0  0  0  0  0  0  0  0
    9.3462   14.2583   28.0781 O   0  0  0  0  0  0  0  0  0  0  0  0
    9.3428   15.7183   26.0610 O   0  0  0  0  0  0  0  0  0  0  0  0
   10.1484   13.3970   25.8712 N   0  0  0  0  0  0  0  0  0  0  0  0
    9.8929   11.9686   25.8111 C   0  0  0  0  0  0  0  0  0  0  0  0
   10.9912   11.2093   25.1032 C   0  0  0  0  0  0  0  0  0  0  0  0
   12.4055   11.5939   25.5233 C   0  0  0  0  0  0  0  0  0  0  0  0
   12.5668   13.0698   25.3196 C   0  0  0  0  0  0  0  0  0  0  0  0
   11.5628   13.7680   26.2210 C   0  0  0  0  0  0  0  0  0  0  0  0
    6.6267   15.1187   25.8578 C   0  0  0  0  0  0  0  0  0  0  0  0
    6.6486   15.0313   24.3360 C   0  0  0  0  0  0  0  0  0  0  0  0
   10.7300   14.2822   20.9447 C   0  0  1  0  0  0  0  0  0  0  0  0
   10.2357   14.3565   19.6252 O   0  0  0  0  0  0  0  0  0  0  0  0
  1  2  2  0
  2  3  1  0
  4  3  1  1
  4  5  1  0
  5  6  1  0
  6  7  1  0
  7  8  1  6
  8  9  1  0
  9 10  2  0
  9 11  1  0
 11 12  1  0
 12 13  1  0
 13 14  1  0
 14 15  1  0
 15 16  2  0
 15 17  2  0
 15 18  1  0
 18 19  1  0
 19 20  1  0
 20 21  1  0
 21 22  1  0
 22 23  1  0
 14 24  1  0
 24 25  1  0
  7 26  1  0
 26 27  1  6
 27  2  1  0
 26  4  1  0
 25 11  1  0
 23 18  1  0
M  END
>  <energy_score>  (2543) 
-12.950754

>  <inchikey>  (2543) 
None

>  <smiles>  (2543) 
None

>  <ref_pdb>  (2543) 
A4706a

>  <alias>  (2543) 
None

>  <HIPPO Pose ID>  (2543) 
500187

>  <name>  (2543) 
P500187

>  <HIPPO Compound ID>  (2543) 
314578

>  <ref_mols>  (2543) 
A4706a,A0875a

>  <distance_score>  (2543) 
1.669847

>  <inspiration_score>  (2543) 
None

$$$$
P500188
     RDKit          3D

 27 30  0  0  0  0  0  0  0  0999 V2000
   10.7648   13.9578   18.4868 O   0  0  0  0  0  0  0  0  0  0  0  0
   10.2223   14.5846   19.3734 C   0  0  0  0  0  0  0  0  0  0  0  0
   10.2996   16.0286   19.4985 C   0  0  0  0  0  0  0  0  0  0  0  0
   10.1872   16.1970   20.9800 C   0  0  2  0  0  0  0  0  0  0  0  0
   11.4041   15.7401   21.7890 C   0  0  0  0  0  0  0  0  0  0  0  0
   10.9274   14.5538   22.6214 C   0  0  0  0  0  0  0  0  0  0  0  0
    9.4111   14.7439   22.6982 C   0  0  2  0  0  0  0  0  0  0  0  0
    8.6917   13.5818   23.1323 O   0  0  0  0  0  0  0  0  0  0  0  0
    7.3550   13.8056   23.2878 C   0  0  0  0  0  0  0  0  0  0  0  0
    6.7312   14.7025   22.7305 O   0  0  0  0  0  0  0  0  0  0  0  0
    6.6671   12.9151   24.3165 C   0  0  0  0  0  0  0  0  0  0  0  0
    7.4854   11.7165   24.8353 C   0  0  0  0  0  0  0  0  0  0  0  0
    8.2886   12.0839   26.0844 C   0  0  0  0  0  0  0  0  0  0  0  0
    8.6796   13.4799   25.9025 N   0  0  0  0  0  0  0  0  0  0  0  0
   10.1365   14.1019   26.3729 S   0  0  0  0  0  0  0  0  0  0  0  0
   10.4305   15.2288   25.5207 O   0  0  0  0  0  0  0  0  0  0  0  0
   10.0272   14.3006   27.7964 O   0  0  0  0  0  0  0  0  0  0  0  0
   11.3012   12.9316   26.1500 N   0  0  0  0  0  0  0  0  0  0  0  0
   12.5669   13.1441   26.9269 C   0  0  0  0  0  0  0  0  0  0  0  0
   13.8262   12.8619   26.0860 C   0  0  0  0  0  0  0  0  0  0  0  0
   13.8595   11.4422   25.5641 C   0  0  0  0  0  0  0  0  0  0  0  0
   12.4316   11.0135   25.3380 C   0  0  0  0  0  0  0  0  0  0  0  0
   11.4899   12.1480   24.9137 C   0  0  0  0  0  0  0  0  0  0  0  0
    7.5231   14.3982   26.1538 C   0  0  0  0  0  0  0  0  0  0  0  0
    6.2706   13.8257   25.4876 C   0  0  0  0  0  0  0  0  0  0  0  0
    9.1340   15.1630   21.2768 C   0  0  2  0  0  0  0  0  0  0  0  0
    9.4501   14.0939   20.3824 O   0  0  0  0  0  0  0  0  0  0  0  0
  1  2  2  0
  2  3  1  0
  4  3  1  6
  4  5  1  0
  5  6  1  0
  6  7  1  0
  7  8  1  6
  8  9  1  0
  9 10  2  0
  9 11  1  0
 11 12  1  0
 12 13  1  0
 13 14  1  0
 14 15  1  0
 15 16  2  0
 15 17  2  0
 15 18  1  0
 18 19  1  0
 19 20  1  0
 20 21  1  0
 21 22  1  0
 22 23  1  0
 14 24  1  0
 24 25  1  0
  7 26  1  0
 26 27  1  6
 27  2  1  0
 26  4  1  0
 25 11  1  0
 23 18  1  0
M  END
>  <energy_score>  (2544) 
-50.159064

>  <inchikey>  (2544) 
None

>  <smiles>  (2544) 
None

>  <ref_pdb>  (2544) 
A4706a

>  <alias>  (2544) 
None

>  <HIPPO Pose ID>  (2544) 
500188

>  <name>  (2544) 
P500188

>  <HIPPO Compound ID>  (2544) 
314578

>  <ref_mols>  (2544) 
A0875a,A4706a

>  <distance_score>  (2544) 
1.738853

>  <inspiration_score>  (2544) 
None

$$$$
P500189
     RDKit          3D

 27 30  0  0  0  0  0  0  0  0999 V2000
   11.4949   14.4610   18.2627 O   0  0  0  0  0  0  0  0  0  0  0  0
   10.9968   14.7042   19.3408 C   0  0  0  0  0  0  0  0  0  0  0  0
    9.9987   15.7549   19.5936 C   0  0  0  0  0  0  0  0  0  0  0  0
   10.2449   16.0329   21.0305 C   0  0  1  0  0  0  0  0  0  0  0  0
    9.0202   16.3561   21.8234 C   0  0  0  0  0  0  0  0  0  0  0  0
    9.3587   15.5871   23.1021 C   0  0  0  0  0  0  0  0  0  0  0  0
    9.6904   14.2189   22.5445 C   0  0  1  0  0  0  0  0  0  0  0  0
    8.3775   13.7680   22.1450 O   0  0  0  0  0  0  0  0  0  0  0  0
    7.8273   12.9551   23.0900 C   0  0  0  0  0  0  0  0  0  0  0  0
    8.3907   11.9159   23.4205 O   0  0  0  0  0  0  0  0  0  0  0  0
    6.4285   13.3276   23.6392 C   0  0  0  0  0  0  0  0  0  0  0  0
    6.1320   12.4477   24.8957 C   0  0  0  0  0  0  0  0  0  0  0  0
    6.8398   12.9299   26.1689 C   0  0  0  0  0  0  0  0  0  0  0  0
    7.5938   14.1317   25.8045 N   0  0  0  0  0  0  0  0  0  0  0  0
    9.0612   14.5203   26.4539 S   0  0  0  0  0  0  0  0  0  0  0  0
    9.3967   15.8578   26.0520 O   0  0  0  0  0  0  0  0  0  0  0  0
    9.0844   14.1718   27.8443 O   0  0  0  0  0  0  0  0  0  0  0  0
   10.1651   13.5334   25.6324 N   0  0  0  0  0  0  0  0  0  0  0  0
    9.9912   12.0944   25.8640 C   0  0  0  0  0  0  0  0  0  0  0  0
   11.0212   11.2757   25.1235 C   0  0  0  0  0  0  0  0  0  0  0  0
   12.4402   11.7142   25.4623 C   0  0  0  0  0  0  0  0  0  0  0  0
   12.5654   13.1696   25.0960 C   0  0  0  0  0  0  0  0  0  0  0  0
   11.5630   13.9731   25.9099 C   0  0  0  0  0  0  0  0  0  0  0  0
    6.6723   15.1954   25.3777 C   0  0  0  0  0  0  0  0  0  0  0  0
    6.1453   14.7945   23.9953 C   0  0  0  0  0  0  0  0  0  0  0  0
   10.7701   14.7326   21.5743 C   0  0  1  0  0  0  0  0  0  0  0  0
   11.2325   14.0027   20.4777 O   0  0  0  0  0  0  0  0  0  0  0  0
  1  2  2  0
  2  3  1  0
  4  3  1  6
  4  5  1  0
  5  6  1  0
  6  7  1  0
  7  8  1  6
  8  9  1  0
  9 10  2  0
  9 11  1  0
 11 12  1  0
 12 13  1  0
 13 14  1  0
 14 15  1  0
 15 16  2  0
 15 17  2  0
 15 18  1  0
 18 19  1  0
 19 20  1  0
 20 21  1  0
 21 22  1  0
 22 23  1  0
 14 24  1  0
 24 25  1  0
  7 26  1  0
 26 27  1  6
 27  2  1  0
 26  4  1  0
 25 11  1  0
 23 18  1  0
M  END
>  <energy_score>  (2545) 
-23.536195

>  <inchikey>  (2545) 
None

>  <smiles>  (2545) 
None

>  <ref_pdb>  (2545) 
A4706a

>  <alias>  (2545) 
None

>  <HIPPO Pose ID>  (2545) 
500189

>  <name>  (2545) 
P500189

>  <HIPPO Compound ID>  (2545) 
314578

>  <ref_mols>  (2545) 
A4706a,A0875a

>  <distance_score>  (2545) 
1.855896

>  <inspiration_score>  (2545) 
None

$$$$
P500190
     RDKit          3D

 27 30  0  0  0  0  0  0  0  0999 V2000
   11.6664   14.1436   19.3420 O   0  0  0  0  0  0  0  0  0  0  0  0
   10.8330   14.6100   20.0948 C   0  0  0  0  0  0  0  0  0  0  0  0
   10.0324   15.7875   19.7713 C   0  0  0  0  0  0  0  0  0  0  0  0
    9.8356   16.3840   21.1393 C   0  0  1  0  0  0  0  0  0  0  0  0
    8.4468   16.9706   21.2396 C   0  0  0  0  0  0  0  0  0  0  0  0
    7.5950   15.7720   21.6449 C   0  0  0  0  0  0  0  0  0  0  0  0
    8.4627   15.0706   22.6663 C   0  0  1  0  0  0  0  0  0  0  0  0
    8.0561   13.7850   23.1454 O   0  0  0  0  0  0  0  0  0  0  0  0
    6.7465   13.4662   23.0436 C   0  0  0  0  0  0  0  0  0  0  0  0
    6.2339   13.2211   21.9566 O   0  0  0  0  0  0  0  0  0  0  0  0
    5.9538   13.3114   24.3408 C   0  0  0  0  0  0  0  0  0  0  0  0
    6.4596   12.1578   25.2323 C   0  0  0  0  0  0  0  0  0  0  0  0
    7.3932   12.6182   26.3511 C   0  0  0  0  0  0  0  0  0  0  0  0
    7.9339   13.9014   25.9112 N   0  0  0  0  0  0  0  0  0  0  0  0
    9.4797   14.3697   26.2069 S   0  0  0  0  0  0  0  0  0  0  0  0
    9.7811   15.4633   25.3167 O   0  0  0  0  0  0  0  0  0  0  0  0
    9.6304   14.5346   27.6280 O   0  0  0  0  0  0  0  0  0  0  0  0
   10.4718   13.1362   25.7502 N   0  0  0  0  0  0  0  0  0  0  0  0
   11.8935   13.5698   25.7799 C   0  0  0  0  0  0  0  0  0  0  0  0
   12.7863   12.5771   25.0657 C   0  0  0  0  0  0  0  0  0  0  0  0
   12.3162   11.1949   25.4437 C   0  0  0  0  0  0  0  0  0  0  0  0
   10.8351   10.9464   25.0182 C   0  0  0  0  0  0  0  0  0  0  0  0
   10.1772   12.2585   24.6147 C   0  0  0  0  0  0  0  0  0  0  0  0
    6.9199   14.9651   26.0280 C   0  0  0  0  0  0  0  0  0  0  0  0
    5.7751   14.6371   25.0821 C   0  0  0  0  0  0  0  0  0  0  0  0
    9.9054   15.1968   22.0970 C   0  0  1  0  0  0  0  0  0  0  0  0
   10.4303   14.1236   21.3100 O   0  0  0  0  0  0  0  0  0  0  0  0
  1  2  2  0
  2  3  1  0
  4  3  1  6
  4  5  1  0
  5  6  1  0
  6  7  1  0
  7  8  1  6
  8  9  1  0
  9 10  2  0
  9 11  1  0
 11 12  1  0
 12 13  1  0
 13 14  1  0
 14 15  1  0
 15 16  2  0
 15 17  2  0
 15 18  1  0
 18 19  1  0
 19 20  1  0
 20 21  1  0
 21 22  1  0
 22 23  1  0
 14 24  1  0
 24 25  1  0
  7 26  1  0
 26 27  1  6
 27  2  1  0
 26  4  1  0
 25 11  1  0
 23 18  1  0
M  END
>  <energy_score>  (2546) 
-41.779153

>  <inchikey>  (2546) 
None

>  <smiles>  (2546) 
None

>  <ref_pdb>  (2546) 
A4706a

>  <alias>  (2546) 
None

>  <HIPPO Pose ID>  (2546) 
500190

>  <name>  (2546) 
P500190

>  <HIPPO Compound ID>  (2546) 
314578

>  <ref_mols>  (2546) 
A4706a,A0875a

>  <distance_score>  (2546) 
1.81136

>  <inspiration_score>  (2546) 
None

$$$$
P500191
     RDKit          3D

 27 30  0  0  0  0  0  0  0  0999 V2000
   10.6966   15.3087   18.5294 O   0  0  0  0  0  0  0  0  0  0  0  0
   10.6660   14.7659   19.6121 C   0  0  0  0  0  0  0  0  0  0  0  0
   11.7680   14.6629   20.5877 C   0  0  0  0  0  0  0  0  0  0  0  0
   11.0066   14.8974   21.8540 C   0  0  1  0  0  0  0  0  0  0  0  0
   10.6434   16.3623   22.0348 C   0  0  0  0  0  0  0  0  0  0  0  0
    9.2010   16.5474   21.5064 C   0  0  0  0  0  0  0  0  0  0  0  0
    8.6092   15.2699   22.0732 C   0  0  1  0  0  0  0  0  0  0  0  0
    7.2762   14.9109   21.6949 O   0  0  0  0  0  0  0  0  0  0  0  0
    6.5926   13.9957   22.4465 C   0  0  0  0  0  0  0  0  0  0  0  0
    5.8269   13.1890   21.9324 O   0  0  0  0  0  0  0  0  0  0  0  0
    6.8860   13.9614   23.9324 C   0  0  0  0  0  0  0  0  0  0  0  0
    6.4623   12.7155   24.7106 C   0  0  0  0  0  0  0  0  0  0  0  0
    6.9116   12.7994   26.1759 C   0  0  0  0  0  0  0  0  0  0  0  0
    7.6158   14.0643   26.4865 N   0  0  0  0  0  0  0  0  0  0  0  0
    9.2598   14.3999   26.3379 S   0  0  0  0  0  0  0  0  0  0  0  0
    9.5768   14.8453   25.0016 O   0  0  0  0  0  0  0  0  0  0  0  0
    9.5913   15.2712   27.4349 O   0  0  0  0  0  0  0  0  0  0  0  0
   10.0960   12.9581   26.5462 N   0  0  0  0  0  0  0  0  0  0  0  0
    9.8133   11.9309   25.5331 C   0  0  0  0  0  0  0  0  0  0  0  0
   11.0169   11.2700   24.9592 C   0  0  0  0  0  0  0  0  0  0  0  0
   12.1528   12.2269   24.6218 C   0  0  0  0  0  0  0  0  0  0  0  0
   12.3447   13.3619   25.5781 C   0  0  0  0  0  0  0  0  0  0  0  0
   11.5425   13.1810   26.8350 C   0  0  0  0  0  0  0  0  0  0  0  0
    6.7363   15.2170   26.1573 C   0  0  0  0  0  0  0  0  0  0  0  0
    6.3921   15.2136   24.6628 C   0  0  0  0  0  0  0  0  0  0  0  0
    9.6632   14.2541   21.6119 C   0  0  1  0  0  0  0  0  0  0  0  0
    9.5673   14.1987   20.1817 O   0  0  0  0  0  0  0  0  0  0  0  0
  1  2  2  0
  2  3  1  0
  4  3  1  6
  4  5  1  0
  5  6  1  0
  6  7  1  0
  7  8  1  6
  8  9  1  0
  9 10  2  0
  9 11  1  0
 11 12  1  0
 12 13  1  0
 13 14  1  0
 14 15  1  0
 15 16  2  0
 15 17  2  0
 15 18  1  0
 18 19  1  0
 19 20  1  0
 20 21  1  0
 21 22  1  0
 22 23  1  0
 14 24  1  0
 24 25  1  0
  7 26  1  0
 26 27  1  6
 27  2  1  0
 26  4  1  0
 25 11  1  0
 23 18  1  0
M  END
>  <energy_score>  (2547) 
-12.778245

>  <inchikey>  (2547) 
None

>  <smiles>  (2547) 
None

>  <ref_pdb>  (2547) 
A4706a

>  <alias>  (2547) 
None

>  <HIPPO Pose ID>  (2547) 
500191

>  <name>  (2547) 
P500191

>  <HIPPO Compound ID>  (2547) 
314578

>  <ref_mols>  (2547) 
A4706a,A0875a

>  <distance_score>  (2547) 
1.882097

>  <inspiration_score>  (2547) 
None

$$$$
P500192
     RDKit          3D

 27 29  0  0  0  0  0  0  0  0999 V2000
    6.6067   16.5171   22.3240 N   0  0  0  0  0  0  0  0  0  0  0  0
    7.6273   16.0775   21.9963 C   0  0  0  0  0  0  0  0  0  0  0  0
    8.7885   15.2074   21.7294 C   0  0  1  0  0  0  0  0  0  0  0  0
    8.3953   13.8202   22.0244 O   0  0  0  0  0  0  0  0  0  0  0  0
    7.1832   13.5535   22.6105 C   0  0  0  0  0  0  0  0  0  0  0  0
    6.2050   13.2190   21.9606 O   0  0  0  0  0  0  0  0  0  0  0  0
    7.2111   13.6070   24.1146 C   0  0  0  0  0  0  0  0  0  0  0  0
    6.8252   12.2766   24.7833 C   0  0  0  0  0  0  0  0  0  0  0  0
    7.3034   12.2363   26.2436 C   0  0  0  0  0  0  0  0  0  0  0  0
    7.6908   13.5846   26.6877 N   0  0  0  0  0  0  0  0  0  0  0  0
    9.2433   14.2328   26.5983 S   0  0  0  0  0  0  0  0  0  0  0  0
    9.2726   15.2403   25.5669 O   0  0  0  0  0  0  0  0  0  0  0  0
    9.6043   14.6088   27.9410 O   0  0  0  0  0  0  0  0  0  0  0  0
   10.3421   13.0526   26.1333 N   0  0  0  0  0  0  0  0  0  0  0  0
   11.7372   13.6256   26.1857 C   0  0  0  0  0  0  0  0  0  0  0  0
   12.7222   12.8404   25.3163 C   0  0  0  0  0  0  0  0  0  0  0  0
   12.4261   11.3658   25.4752 C   0  0  0  0  0  0  0  0  0  0  0  0
   10.9653   11.0186   25.0919 C   0  0  0  0  0  0  0  0  0  0  0  0
   10.1715   12.2835   24.8991 C   0  0  0  0  0  0  0  0  0  0  0  0
    6.6017   14.5609   26.3822 C   0  0  0  0  0  0  0  0  0  0  0  0
    6.4786   14.7296   24.8558 C   0  0  0  0  0  0  0  0  0  0  0  0
    9.1869   15.3723   20.2359 C   0  0  0  0  0  0  0  0  0  0  0  0
   10.3291   14.7206   19.5965 N   0  0  0  0  0  0  0  0  0  0  0  0
   11.5558   14.6812   20.3616 C   0  0  0  0  0  0  0  0  0  0  0  0
   11.3604   13.9296   21.6716 C   0  0  0  0  0  0  0  0  0  0  0  0
   11.0741   14.7640   22.7771 O   0  0  0  0  0  0  0  0  0  0  0  0
    9.9931   15.6589   22.5662 C   0  0  0  0  0  0  0  0  0  0  0  0
  1  2  3  0
  3  2  1  1
  3  4  1  0
  4  5  1  0
  5  6  2  0
  5  7  1  0
  7  8  1  0
  8  9  1  0
  9 10  1  0
 10 11  1  0
 11 12  2  0
 11 13  2  0
 11 14  1  0
 14 15  1  0
 15 16  1  0
 16 17  1  0
 17 18  1  0
 18 19  1  0
 10 20  1  0
 20 21  1  0
  3 22  1  0
 22 23  1  0
 23 24  1  0
 24 25  1  0
 25 26  1  0
 26 27  1  0
 27  3  1  0
 21  7  1  0
 19 14  1  0
M  END
>  <energy_score>  (2548) 
-4.648995

>  <inchikey>  (2548) 
None

>  <smiles>  (2548) 
None

>  <ref_pdb>  (2548) 
A4706a

>  <alias>  (2548) 
None

>  <HIPPO Pose ID>  (2548) 
500192

>  <name>  (2548) 
P500192

>  <HIPPO Compound ID>  (2548) 
314579

>  <ref_mols>  (2548) 
A4706a,A0875a

>  <distance_score>  (2548) 
1.548139

>  <inspiration_score>  (2548) 
None

$$$$
P500193
     RDKit          3D

 27 29  0  0  0  0  0  0  0  0999 V2000
    8.8655   13.4025   22.3037 O   0  0  0  0  0  0  0  0  0  0  0  0
    8.6991   14.6125   22.3926 C   0  0  0  0  0  0  0  0  0  0  0  0
    7.3303   15.2882   22.4343 C   0  0  0  0  0  0  0  0  0  0  0  0
    6.5371   14.8765   23.5419 O   0  0  0  0  0  0  0  0  0  0  0  0
    6.0616   13.6143   23.4681 C   0  0  0  0  0  0  0  0  0  0  0  0
    6.0755   12.9401   22.4457 O   0  0  0  0  0  0  0  0  0  0  0  0
    5.5533   13.0943   24.8085 C   0  0  0  0  0  0  0  0  0  0  0  0
    6.4383   11.9237   25.3019 C   0  0  0  0  0  0  0  0  0  0  0  0
    7.4962   12.3492   26.3187 C   0  0  0  0  0  0  0  0  0  0  0  0
    7.8895   13.7040   25.9491 N   0  0  0  0  0  0  0  0  0  0  0  0
    9.3887   14.3152   26.3138 S   0  0  0  0  0  0  0  0  0  0  0  0
    9.7533   15.2418   25.2735 O   0  0  0  0  0  0  0  0  0  0  0  0
    9.3191   14.7417   27.6905 O   0  0  0  0  0  0  0  0  0  0  0  0
   10.5005   13.0391   26.2846 N   0  0  0  0  0  0  0  0  0  0  0  0
   10.7528   12.4497   24.9423 C   0  0  0  0  0  0  0  0  0  0  0  0
   12.0900   12.9239   24.4030 C   0  0  0  0  0  0  0  0  0  0  0  0
   13.2325   12.4335   25.2969 C   0  0  0  0  0  0  0  0  0  0  0  0
   12.9227   12.6125   26.7655 C   0  0  0  0  0  0  0  0  0  0  0  0
   11.7407   13.5312   26.9726 C   0  0  0  0  0  0  0  0  0  0  0  0
    6.8158   14.6867   26.3172 C   0  0  0  0  0  0  0  0  0  0  0  0
    5.4487   14.1777   25.8781 C   0  0  0  0  0  0  0  0  0  0  0  0
    9.7313   15.4718   22.5632 O   0  0  0  0  0  0  0  0  0  0  0  0
   10.4221   15.9821   21.4128 C   0  0  1  0  0  0  0  0  0  0  0  0
   11.2170   14.9247   20.6713 C   0  0  0  0  0  0  0  0  0  0  0  0
   10.7226   15.0041   19.2453 C   0  0  0  0  0  0  0  0  0  0  0  0
    9.4405   15.6264   19.3142 O   0  0  0  0  0  0  0  0  0  0  0  0
    9.4859   16.5711   20.3856 C   0  0  0  0  0  0  0  0  0  0  0  0
  1  2  2  0
  2  3  1  0
  3  4  1  0
  4  5  1  0
  5  6  2  0
  5  7  1  0
  7  8  1  0
  8  9  1  0
  9 10  1  0
 10 11  1  0
 11 12  2  0
 11 13  2  0
 11 14  1  0
 14 15  1  0
 15 16  1  0
 16 17  1  0
 17 18  1  0
 18 19  1  0
 10 20  1  0
 20 21  1  0
  2 22  1  0
 23 22  1  1
 23 24  1  0
 24 25  1  0
 25 26  1  0
 26 27  1  0
 21  7  1  0
 27 23  1  0
 19 14  1  0
M  END
>  <energy_score>  (2549) 
-45.440751

>  <inchikey>  (2549) 
None

>  <smiles>  (2549) 
None

>  <ref_pdb>  (2549) 
A4706a

>  <alias>  (2549) 
None

>  <HIPPO Pose ID>  (2549) 
500193

>  <name>  (2549) 
P500193

>  <HIPPO Compound ID>  (2549) 
314580

>  <ref_mols>  (2549) 
A0875a,A4706a

>  <distance_score>  (2549) 
1.865123

>  <inspiration_score>  (2549) 
None

$$$$
P500194
     RDKit          3D

 27 29  0  0  0  0  0  0  0  0999 V2000
    9.0125   15.8151   17.9260 N   0  0  0  0  0  0  0  0  0  0  0  0
    9.7805   15.1713   18.4496 N   0  0  0  0  0  0  0  0  0  0  0  0
   10.5147   14.4876   19.1624 N   0  0  0  0  0  0  0  0  0  0  0  0
   10.5852   15.0615   20.4903 C   0  0  2  0  0  0  0  0  0  0  0  0
   11.8030   14.5567   21.1921 C   0  0  0  0  0  0  0  0  0  0  0  0
   11.6556   14.8088   22.6582 C   0  0  0  0  0  0  0  0  0  0  0  0
   10.9353   16.0043   22.8927 O   0  0  0  0  0  0  0  0  0  0  0  0
    9.5744   15.9908   22.4132 C   0  0  0  0  0  0  0  0  0  0  0  0
    9.2900   14.9825   21.3164 C   0  0  2  0  0  0  0  0  0  0  0  0
    8.9686   13.7454   21.9905 O   0  0  0  0  0  0  0  0  0  0  0  0
    7.7066   13.7226   22.5300 C   0  0  0  0  0  0  0  0  0  0  0  0
    6.7471   14.3171   22.0546 O   0  0  0  0  0  0  0  0  0  0  0  0
    7.5873   12.9345   23.8355 C   0  0  0  0  0  0  0  0  0  0  0  0
    8.7248   11.9275   24.0054 C   0  0  0  0  0  0  0  0  0  0  0  0
    8.9252   11.4529   25.4236 C   0  0  0  0  0  0  0  0  0  0  0  0
    9.0070   12.5914   26.3408 N   0  0  0  0  0  0  0  0  0  0  0  0
   10.3285   13.6471   26.3676 S   0  0  0  0  0  0  0  0  0  0  0  0
   10.2377   14.3245   27.6354 O   0  0  0  0  0  0  0  0  0  0  0  0
   10.3223   14.4029   25.1457 O   0  0  0  0  0  0  0  0  0  0  0  0
   11.7159   12.6368   26.3885 N   0  0  0  0  0  0  0  0  0  0  0  0
   12.2721   12.3174   25.0735 C   0  0  0  0  0  0  0  0  0  0  0  0
   13.3281   11.2175   25.1982 C   0  0  0  0  0  0  0  0  0  0  0  0
   14.4092   11.4458   26.2223 C   0  0  0  0  0  0  0  0  0  0  0  0
   14.2285   12.7955   26.8381 C   0  0  0  0  0  0  0  0  0  0  0  0
   12.8004   13.0380   27.3442 C   0  0  0  0  0  0  0  0  0  0  0  0
    7.6864   13.2998   26.3745 C   0  0  0  0  0  0  0  0  0  0  0  0
    7.3701   13.9066   25.0119 C   0  0  0  0  0  0  0  0  0  0  0  0
  1  2  2  0
  2  3  2  0
  4  3  1  6
  4  5  1  0
  5  6  1  0
  6  7  1  0
  7  8  1  0
  8  9  1  0
  9 10  1  1
 10 11  1  0
 11 12  2  0
 11 13  1  0
 13 14  1  0
 14 15  1  0
 15 16  1  0
 16 17  1  0
 17 18  2  0
 17 19  2  0
 17 20  1  0
 20 21  1  0
 21 22  1  0
 22 23  1  0
 23 24  1  0
 24 25  1  0
 16 26  1  0
 26 27  1  0
  9  4  1  0
 27 13  1  0
 25 20  1  0
M  CHG  2   1  -1   2   1
M  END
>  <energy_score>  (2550) 
-55.511419

>  <inchikey>  (2550) 
None

>  <smiles>  (2550) 
None

>  <ref_pdb>  (2550) 
A4706a

>  <alias>  (2550) 
None

>  <HIPPO Pose ID>  (2550) 
500194

>  <name>  (2550) 
P500194

>  <HIPPO Compound ID>  (2550) 
314581

>  <ref_mols>  (2550) 
A4706a,A0875a

>  <distance_score>  (2550) 
1.521286

>  <inspiration_score>  (2550) 
None

$$$$
P500195
     RDKit          3D

 27 29  0  0  0  0  0  0  0  0999 V2000
    9.2443   17.8901   19.8045 N   0  0  0  0  0  0  0  0  0  0  0  0
    9.4199   16.7867   19.5955 N   0  0  0  0  0  0  0  0  0  0  0  0
    9.5062   15.5567   19.4308 N   0  0  0  0  0  0  0  0  0  0  0  0
    9.7750   14.7689   20.6448 C   0  0  1  0  0  0  0  0  0  0  0  0
   11.3012   14.6936   20.6752 C   0  0  0  0  0  0  0  0  0  0  0  0
   11.8380   14.2398   22.0000 C   0  0  0  0  0  0  0  0  0  0  0  0
   11.0491   14.5767   23.1132 O   0  0  0  0  0  0  0  0  0  0  0  0
   10.2738   15.7286   22.8456 C   0  0  0  0  0  0  0  0  0  0  0  0
    9.1206   15.3781   21.9165 C   0  0  2  0  0  0  0  0  0  0  0  0
    8.1815   14.4431   22.5577 O   0  0  0  0  0  0  0  0  0  0  0  0
    7.0183   14.9919   23.0346 C   0  0  0  0  0  0  0  0  0  0  0  0
    6.5715   16.0705   22.6600 O   0  0  0  0  0  0  0  0  0  0  0  0
    6.2635   14.1820   24.1164 C   0  0  0  0  0  0  0  0  0  0  0  0
    6.7386   12.7407   24.3245 C   0  0  0  0  0  0  0  0  0  0  0  0
    6.9640   12.2817   25.7539 C   0  0  0  0  0  0  0  0  0  0  0  0
    7.5444   13.3385   26.5788 N   0  0  0  0  0  0  0  0  0  0  0  0
    9.0408   14.0385   26.2683 S   0  0  0  0  0  0  0  0  0  0  0  0
    9.4297   14.7168   27.4810 O   0  0  0  0  0  0  0  0  0  0  0  0
    8.9101   14.8034   25.0657 O   0  0  0  0  0  0  0  0  0  0  0  0
   10.1993   12.8670   25.9876 N   0  0  0  0  0  0  0  0  0  0  0  0
   10.0659   11.9798   24.8229 C   0  0  0  0  0  0  0  0  0  0  0  0
   10.9585   10.7926   25.1009 C   0  0  0  0  0  0  0  0  0  0  0  0
   12.3930   11.2541   25.4801 C   0  0  0  0  0  0  0  0  0  0  0  0
   12.6110   12.7246   25.2307 C   0  0  0  0  0  0  0  0  0  0  0  0
   11.5702   13.5077   26.0260 C   0  0  0  0  0  0  0  0  0  0  0  0
    6.4850   14.3819   26.7464 C   0  0  0  0  0  0  0  0  0  0  0  0
    6.1160   15.0353   25.4062 C   0  0  0  0  0  0  0  0  0  0  0  0
  1  2  2  0
  2  3  2  0
  4  3  1  6
  4  5  1  0
  5  6  1  0
  6  7  1  0
  7  8  1  0
  8  9  1  0
  9 10  1  1
 10 11  1  0
 11 12  2  0
 11 13  1  0
 13 14  1  0
 14 15  1  0
 15 16  1  0
 16 17  1  0
 17 18  2  0
 17 19  2  0
 17 20  1  0
 20 21  1  0
 21 22  1  0
 22 23  1  0
 23 24  1  0
 24 25  1  0
 16 26  1  0
 26 27  1  0
  9  4  1  0
 27 13  1  0
 25 20  1  0
M  CHG  2   1  -1   2   1
M  END
>  <energy_score>  (2551) 
-30.559991

>  <inchikey>  (2551) 
None

>  <smiles>  (2551) 
None

>  <ref_pdb>  (2551) 
A4706a

>  <alias>  (2551) 
None

>  <HIPPO Pose ID>  (2551) 
500195

>  <name>  (2551) 
P500195

>  <HIPPO Compound ID>  (2551) 
314581

>  <ref_mols>  (2551) 
A0875a,A4706a

>  <distance_score>  (2551) 
1.533987

>  <inspiration_score>  (2551) 
None

$$$$
P500196
     RDKit          3D

 27 29  0  0  0  0  0  0  0  0999 V2000
   11.4218   14.5449   18.2485 N   0  0  0  0  0  0  0  0  0  0  0  0
   10.6100   15.1818   18.7282 N   0  0  0  0  0  0  0  0  0  0  0  0
    9.7688   15.8300   19.3683 N   0  0  0  0  0  0  0  0  0  0  0  0
    9.8413   15.7263   20.8438 C   0  0  2  0  0  0  0  0  0  0  0  0
   11.2896   15.4690   21.2932 C   0  0  0  0  0  0  0  0  0  0  0  0
   11.3461   15.3231   22.7794 C   0  0  0  0  0  0  0  0  0  0  0  0
   10.2315   14.6386   23.3038 O   0  0  0  0  0  0  0  0  0  0  0  0
    9.6305   13.7511   22.3672 C   0  0  0  0  0  0  0  0  0  0  0  0
    8.8843   14.6163   21.3570 C   0  0  1  0  0  0  0  0  0  0  0  0
    7.7294   15.1965   22.0242 O   0  0  0  0  0  0  0  0  0  0  0  0
    6.7734   14.2962   22.3872 C   0  0  0  0  0  0  0  0  0  0  0  0
    6.6990   13.1525   21.9426 O   0  0  0  0  0  0  0  0  0  0  0  0
    5.8113   14.8123   23.4431 C   0  0  0  0  0  0  0  0  0  0  0  0
    5.3287   13.6554   24.3176 C   0  0  0  0  0  0  0  0  0  0  0  0
    6.4611   12.9541   25.0581 C   0  0  0  0  0  0  0  0  0  0  0  0
    7.7032   13.7939   25.1141 N   0  0  0  0  0  0  0  0  0  0  0  0
    8.8409   13.1394   26.1710 S   0  0  0  0  0  0  0  0  0  0  0  0
    8.8375   13.9689   27.3525 O   0  0  0  0  0  0  0  0  0  0  0  0
    8.5430   11.7324   26.2286 O   0  0  0  0  0  0  0  0  0  0  0  0
   10.3475   13.2477   25.4810 N   0  0  0  0  0  0  0  0  0  0  0  0
   11.2599   14.2634   26.0238 C   0  0  0  0  0  0  0  0  0  0  0  0
   12.0919   13.6039   27.0970 C   0  0  0  0  0  0  0  0  0  0  0  0
   13.0087   12.5418   26.5140 C   0  0  0  0  0  0  0  0  0  0  0  0
   12.5038   12.0203   25.1814 C   0  0  0  0  0  0  0  0  0  0  0  0
   10.9833   11.9935   25.0211 C   0  0  0  0  0  0  0  0  0  0  0  0
    7.4040   15.2235   25.3940 C   0  0  0  0  0  0  0  0  0  0  0  0
    6.4259   15.8271   24.3888 C   0  0  0  0  0  0  0  0  0  0  0  0
  1  2  2  0
  2  3  2  0
  4  3  1  6
  4  5  1  0
  5  6  1  0
  6  7  1  0
  7  8  1  0
  8  9  1  0
  9 10  1  1
 10 11  1  0
 11 12  2  0
 11 13  1  0
 13 14  1  0
 14 15  1  0
 15 16  1  0
 16 17  1  0
 17 18  2  0
 17 19  2  0
 17 20  1  0
 20 21  1  0
 21 22  1  0
 22 23  1  0
 23 24  1  0
 24 25  1  0
 16 26  1  0
 26 27  1  0
  9  4  1  0
 27 13  1  0
 25 20  1  0
M  CHG  2   1  -1   2   1
M  END
>  <energy_score>  (2552) 
-46.642315

>  <inchikey>  (2552) 
None

>  <smiles>  (2552) 
None

>  <ref_pdb>  (2552) 
A4706a

>  <alias>  (2552) 
None

>  <HIPPO Pose ID>  (2552) 
500196

>  <name>  (2552) 
P500196

>  <HIPPO Compound ID>  (2552) 
314581

>  <ref_mols>  (2552) 
A4706a,A0875a

>  <distance_score>  (2552) 
1.959184

>  <inspiration_score>  (2552) 
None

$$$$
P500197
     RDKit          3D

 27 29  0  0  0  0  0  0  0  0999 V2000
    8.9572   18.0924   20.7254 N   0  0  0  0  0  0  0  0  0  0  0  0
    9.2353   17.1031   20.2408 N   0  0  0  0  0  0  0  0  0  0  0  0
    9.4989   16.0167   19.7023 N   0  0  0  0  0  0  0  0  0  0  0  0
    9.9897   14.9163   20.5304 C   0  0  1  0  0  0  0  0  0  0  0  0
   11.5169   14.9102   20.3736 C   0  0  0  0  0  0  0  0  0  0  0  0
   12.1350   15.4706   21.6346 C   0  0  0  0  0  0  0  0  0  0  0  0
   11.8921   14.5881   22.7274 O   0  0  0  0  0  0  0  0  0  0  0  0
   10.5857   13.9972   22.6747 C   0  0  0  0  0  0  0  0  0  0  0  0
    9.5622   14.9303   22.0151 C   0  0  2  0  0  0  0  0  0  0  0  0
    8.1397   14.7130   22.2423 O   0  0  0  0  0  0  0  0  0  0  0  0
    7.7157   13.6591   22.9747 C   0  0  0  0  0  0  0  0  0  0  0  0
    8.2543   12.5583   22.9482 O   0  0  0  0  0  0  0  0  0  0  0  0
    6.4271   13.9106   23.7690 C   0  0  0  0  0  0  0  0  0  0  0  0
    6.1514   12.7455   24.7427 C   0  0  0  0  0  0  0  0  0  0  0  0
    6.8912   12.7787   26.0788 C   0  0  0  0  0  0  0  0  0  0  0  0
    7.4905   14.0773   26.3752 N   0  0  0  0  0  0  0  0  0  0  0  0
    9.0868   14.5512   26.2247 S   0  0  0  0  0  0  0  0  0  0  0  0
    9.2611   15.0867   24.9012 O   0  0  0  0  0  0  0  0  0  0  0  0
    9.3317   15.4272   27.3444 O   0  0  0  0  0  0  0  0  0  0  0  0
   10.1340   13.2614   26.4000 N   0  0  0  0  0  0  0  0  0  0  0  0
   11.5315   13.6675   26.7112 C   0  0  0  0  0  0  0  0  0  0  0  0
   12.5779   13.1746   25.7332 C   0  0  0  0  0  0  0  0  0  0  0  0
   12.4527   11.7082   25.5147 C   0  0  0  0  0  0  0  0  0  0  0  0
   11.0731   11.3773   24.9993 C   0  0  0  0  0  0  0  0  0  0  0  0
    9.9044   12.0065   25.6979 C   0  0  0  0  0  0  0  0  0  0  0  0
    6.5334   15.1628   26.0344 C   0  0  0  0  0  0  0  0  0  0  0  0
    6.3422   15.2537   24.5126 C   0  0  0  0  0  0  0  0  0  0  0  0
  1  2  2  0
  2  3  2  0
  4  3  1  6
  4  5  1  0
  5  6  1  0
  6  7  1  0
  7  8  1  0
  8  9  1  0
  9 10  1  6
 10 11  1  0
 11 12  2  0
 11 13  1  0
 13 14  1  0
 14 15  1  0
 15 16  1  0
 16 17  1  0
 17 18  2  0
 17 19  2  0
 17 20  1  0
 20 21  1  0
 21 22  1  0
 22 23  1  0
 23 24  1  0
 24 25  1  0
 16 26  1  0
 26 27  1  0
  9  4  1  0
 27 13  1  0
 25 20  1  0
M  CHG  2   1  -1   2   1
M  END
>  <energy_score>  (2553) 
-26.487879

>  <inchikey>  (2553) 
None

>  <smiles>  (2553) 
None

>  <ref_pdb>  (2553) 
A4706a

>  <alias>  (2553) 
None

>  <HIPPO Pose ID>  (2553) 
500197

>  <name>  (2553) 
P500197

>  <HIPPO Compound ID>  (2553) 
314581

>  <ref_mols>  (2553) 
A4706a,A0875a

>  <distance_score>  (2553) 
1.574568

>  <inspiration_score>  (2553) 
None

$$$$
P500198
     RDKit          3D

 27 30  0  0  0  0  0  0  0  0999 V2000
    6.4650   12.7670   23.2707 O   0  0  0  0  0  0  0  0  0  0  0  0
    6.7086   13.6851   24.0512 C   0  0  0  0  0  0  0  0  0  0  0  0
    7.5176   14.7551   23.7961 O   0  0  0  0  0  0  0  0  0  0  0  0
    7.7997   15.0835   22.4232 C   0  0  0  0  0  0  0  0  0  0  0  0
    9.2601   15.3526   21.9708 C   0  0  2  0  0  0  0  0  0  0  0  0
    9.5543   14.9348   20.5110 C   0  0  0  0  0  0  0  0  0  0  0  0
   10.8847   15.3207   20.0318 N   0  0  0  0  0  0  0  0  0  0  0  0
   11.8765   14.8310   20.9882 C   0  0  0  0  0  0  0  0  0  0  0  0
   11.5375   15.1623   22.4445 C   0  0  0  0  0  0  0  0  0  0  0  0
   10.2328   14.7006   22.7938 O   0  0  0  0  0  0  0  0  0  0  0  0
    6.8768   16.1727   21.9587 C   0  0  0  0  0  0  0  0  0  0  0  0
    6.6896   14.7780   21.4539 C   0  0  0  0  0  0  0  0  0  0  0  0
    6.0685   13.7576   25.4246 C   0  0  0  0  0  0  0  0  0  0  0  0
    6.1118   12.3621   26.0495 C   0  0  0  0  0  0  0  0  0  0  0  0
    7.5414   11.8899   26.2954 C   0  0  0  0  0  0  0  0  0  0  0  0
    8.4520   13.0351   26.5858 N   0  0  0  0  0  0  0  0  0  0  0  0
    9.6018   13.4173   25.4113 S   0  0  0  0  0  0  0  0  0  0  0  0
    9.8066   14.8449   25.4262 O   0  0  0  0  0  0  0  0  0  0  0  0
    9.2273   12.6538   24.2455 O   0  0  0  0  0  0  0  0  0  0  0  0
   10.9993   12.6629   26.0491 N   0  0  0  0  0  0  0  0  0  0  0  0
   11.9040   13.5631   26.7886 C   0  0  0  0  0  0  0  0  0  0  0  0
   13.3726   13.1426   26.6841 C   0  0  0  0  0  0  0  0  0  0  0  0
   13.5757   11.6778   26.6696 C   0  0  0  0  0  0  0  0  0  0  0  0
   12.9445   11.1758   25.3990 C   0  0  0  0  0  0  0  0  0  0  0  0
   11.6359   11.8576   25.0020 C   0  0  0  0  0  0  0  0  0  0  0  0
    7.7807   14.1718   27.2573 C   0  0  0  0  0  0  0  0  0  0  0  0
    6.6955   14.7810   26.3780 C   0  0  0  0  0  0  0  0  0  0  0  0
  1  2  2  0
  2  3  1  0
  3  4  1  0
  5  4  1  1
  5  6  1  0
  6  7  1  0
  7  8  1  0
  8  9  1  0
  9 10  1  0
  4 11  1  0
 11 12  1  0
  2 13  1  0
 13 14  1  0
 14 15  1  0
 15 16  1  0
 16 17  1  0
 17 18  2  0
 17 19  2  0
 17 20  1  0
 20 21  1  0
 21 22  1  0
 22 23  1  0
 23 24  1  0
 24 25  1  0
 16 26  1  0
 26 27  1  0
 12  4  1  0
 27 13  1  0
 10  5  1  0
 25 20  1  0
M  END
>  <energy_score>  (2554) 
-27.268833

>  <inchikey>  (2554) 
None

>  <smiles>  (2554) 
None

>  <ref_pdb>  (2554) 
A4706a

>  <alias>  (2554) 
None

>  <HIPPO Pose ID>  (2554) 
500198

>  <name>  (2554) 
P500198

>  <HIPPO Compound ID>  (2554) 
314582

>  <ref_mols>  (2554) 
A0875a,A4706a

>  <distance_score>  (2554) 
1.75563

>  <inspiration_score>  (2554) 
None

$$$$
P500199
     RDKit          3D

 27 30  0  0  0  0  0  0  0  0999 V2000
    6.3536   12.8871   22.4908 O   0  0  0  0  0  0  0  0  0  0  0  0
    6.5093   13.3349   23.6216 C   0  0  0  0  0  0  0  0  0  0  0  0
    7.2765   14.4063   23.8866 O   0  0  0  0  0  0  0  0  0  0  0  0
    7.1882   15.4901   22.9512 C   0  0  0  0  0  0  0  0  0  0  0  0
    8.4410   15.7071   22.0723 C   0  0  2  0  0  0  0  0  0  0  0  0
    8.6039   14.6358   20.9856 C   0  0  0  0  0  0  0  0  0  0  0  0
    9.7759   14.8620   20.1089 N   0  0  0  0  0  0  0  0  0  0  0  0
   10.9721   14.8709   20.9606 C   0  0  0  0  0  0  0  0  0  0  0  0
   10.8199   15.8678   22.1093 C   0  0  0  0  0  0  0  0  0  0  0  0
    9.6372   15.6230   22.8842 O   0  0  0  0  0  0  0  0  0  0  0  0
    6.4150   16.6607   23.5478 C   0  0  0  0  0  0  0  0  0  0  0  0
    5.7665   15.8292   22.5086 C   0  0  0  0  0  0  0  0  0  0  0  0
    5.8461   12.7508   24.8514 C   0  0  0  0  0  0  0  0  0  0  0  0
    6.7388   11.6592   25.4446 C   0  0  0  0  0  0  0  0  0  0  0  0
    7.5810   12.1831   26.5962 C   0  0  0  0  0  0  0  0  0  0  0  0
    7.7585   13.6167   26.3915 N   0  0  0  0  0  0  0  0  0  0  0  0
    9.1501   14.4206   26.7881 S   0  0  0  0  0  0  0  0  0  0  0  0
    9.2450   15.6027   25.9735 O   0  0  0  0  0  0  0  0  0  0  0  0
    9.1928   14.5048   28.2239 O   0  0  0  0  0  0  0  0  0  0  0  0
   10.3585   13.3526   26.3012 N   0  0  0  0  0  0  0  0  0  0  0  0
   11.6608   13.7605   26.8927 C   0  0  0  0  0  0  0  0  0  0  0  0
   12.7428   12.7538   26.5351 C   0  0  0  0  0  0  0  0  0  0  0  0
   12.8036   12.5458   25.0402 C   0  0  0  0  0  0  0  0  0  0  0  0
   11.4306   12.2658   24.4491 C   0  0  0  0  0  0  0  0  0  0  0  0
   10.4423   13.3190   24.8282 C   0  0  0  0  0  0  0  0  0  0  0  0
    6.5329   14.3804   26.6881 C   0  0  0  0  0  0  0  0  0  0  0  0
    5.3906   13.7969   25.8731 C   0  0  0  0  0  0  0  0  0  0  0  0
  1  2  2  0
  2  3  1  0
  3  4  1  0
  5  4  1  1
  5  6  1  0
  6  7  1  0
  7  8  1  0
  8  9  1  0
  9 10  1  0
  4 11  1  0
 11 12  1  0
  2 13  1  0
 13 14  1  0
 14 15  1  0
 15 16  1  0
 16 17  1  0
 17 18  2  0
 17 19  2  0
 17 20  1  0
 20 21  1  0
 21 22  1  0
 22 23  1  0
 23 24  1  0
 24 25  1  0
 16 26  1  0
 26 27  1  0
 12  4  1  0
 27 13  1  0
 10  5  1  0
 25 20  1  0
M  END
>  <energy_score>  (2555) 
-79.788061

>  <inchikey>  (2555) 
None

>  <smiles>  (2555) 
None

>  <ref_pdb>  (2555) 
A4706a

>  <alias>  (2555) 
None

>  <HIPPO Pose ID>  (2555) 
500199

>  <name>  (2555) 
P500199

>  <HIPPO Compound ID>  (2555) 
314582

>  <ref_mols>  (2555) 
A4706a,A0875a

>  <distance_score>  (2555) 
1.960987

>  <inspiration_score>  (2555) 
None

$$$$
P500200
     RDKit          3D

 27 29  0  0  0  0  0  0  0  0999 V2000
    6.0237   17.1316   23.4099 N   0  0  0  0  0  0  0  0  0  0  0  0
    6.4184   16.3627   22.2082 C   0  0  0  0  0  0  0  0  0  0  0  0
    7.3693   15.2115   22.5190 C   0  0  2  0  0  0  0  0  0  0  0  0
    7.1353   14.9994   23.9252 O   0  0  0  0  0  0  0  0  0  0  0  0
    5.9692   14.3351   24.1916 C   0  0  0  0  0  0  0  0  0  0  0  0
    5.2196   13.8559   23.3435 O   0  0  0  0  0  0  0  0  0  0  0  0
    5.6746   14.2059   25.6737 C   0  0  0  0  0  0  0  0  0  0  0  0
    5.5861   12.7194   26.0517 C   0  0  0  0  0  0  0  0  0  0  0  0
    6.9288   11.9957   26.1317 C   0  0  0  0  0  0  0  0  0  0  0  0
    8.0362   12.9344   26.4123 N   0  0  0  0  0  0  0  0  0  0  0  0
    9.0343   13.3452   25.1118 S   0  0  0  0  0  0  0  0  0  0  0  0
    9.7030   14.5806   25.4397 O   0  0  0  0  0  0  0  0  0  0  0  0
    8.3123   13.0443   23.9009 O   0  0  0  0  0  0  0  0  0  0  0  0
   10.1363   12.0984   25.1789 N   0  0  0  0  0  0  0  0  0  0  0  0
    9.8624   11.1183   24.0795 C   0  0  0  0  0  0  0  0  0  0  0  0
   10.4443    9.8164   24.4863 C   0  0  0  0  0  0  0  0  0  0  0  0
   11.7511    9.9928   25.2346 C   0  0  0  0  0  0  0  0  0  0  0  0
   12.3916   11.3776   25.5079 C   0  0  0  0  0  0  0  0  0  0  0  0
   11.5298   12.5513   25.1248 C   0  0  0  0  0  0  0  0  0  0  0  0
    7.6248   14.0590   27.2855 C   0  0  0  0  0  0  0  0  0  0  0  0
    6.6233   14.9709   26.5980 C   0  0  0  0  0  0  0  0  0  0  0  0
    8.8522   15.5167   22.0122 C   0  0  2  0  0  0  0  0  0  0  0  0
    9.0861   14.7747   20.6891 C   0  0  0  0  0  0  0  0  0  0  0  0
   10.4281   15.0886   20.0519 C   0  0  0  0  0  0  0  0  0  0  0  0
   11.5302   14.8298   21.0626 C   0  0  0  0  0  0  0  0  0  0  0  0
   11.2015   15.4589   22.4036 C   0  0  0  0  0  0  0  0  0  0  0  0
    9.9092   15.0833   22.8710 O   0  0  0  0  0  0  0  0  0  0  0  0
  1  2  1  0
  3  2  1  1
  3  4  1  0
  4  5  1  0
  5  6  2  0
  5  7  1  0
  7  8  1  0
  8  9  1  0
  9 10  1  0
 10 11  1  0
 11 12  2  0
 11 13  2  0
 11 14  1  0
 14 15  1  0
 15 16  1  0
 16 17  1  0
 17 18  1  0
 18 19  1  0
 10 20  1  0
 20 21  1  0
  3 22  1  0
 22 23  1  6
 23 24  1  0
 24 25  1  0
 25 26  1  0
 26 27  1  0
 21  7  1  0
 27 22  1  0
 19 14  1  0
M  END
>  <energy_score>  (2556) 
-27.613341

>  <inchikey>  (2556) 
None

>  <smiles>  (2556) 
None

>  <ref_pdb>  (2556) 
A4706a

>  <alias>  (2556) 
None

>  <HIPPO Pose ID>  (2556) 
500200

>  <name>  (2556) 
P500200

>  <HIPPO Compound ID>  (2556) 
314584

>  <ref_mols>  (2556) 
A0875a,A4706a

>  <distance_score>  (2556) 
1.934176

>  <inspiration_score>  (2556) 
None

$$$$
P500201
     RDKit          3D

 27 29  0  0  0  0  0  0  0  0999 V2000
    6.2904   13.3178   21.7436 N   0  0  0  0  0  0  0  0  0  0  0  0
    7.6344   13.9283   21.7853 C   0  0  0  0  0  0  0  0  0  0  0  0
    7.7008   15.4441   22.0011 C   0  0  1  0  0  0  0  0  0  0  0  0
    7.3036   15.7190   23.3726 O   0  0  0  0  0  0  0  0  0  0  0  0
    6.0191   15.4601   23.7305 C   0  0  0  0  0  0  0  0  0  0  0  0
    5.0493   15.6008   22.9915 O   0  0  0  0  0  0  0  0  0  0  0  0
    5.8954   14.8577   25.1372 C   0  0  0  0  0  0  0  0  0  0  0  0
    6.3481   13.3665   25.0963 C   0  0  0  0  0  0  0  0  0  0  0  0
    7.0016   12.8245   26.3527 C   0  0  0  0  0  0  0  0  0  0  0  0
    7.9256   13.8138   26.9269 N   0  0  0  0  0  0  0  0  0  0  0  0
    9.3232   14.3175   26.1169 S   0  0  0  0  0  0  0  0  0  0  0  0
    9.9733   15.2530   27.0016 O   0  0  0  0  0  0  0  0  0  0  0  0
    9.0065   14.6830   24.7703 O   0  0  0  0  0  0  0  0  0  0  0  0
   10.3517   13.0010   25.9666 N   0  0  0  0  0  0  0  0  0  0  0  0
   11.7559   13.5324   25.8155 C   0  0  0  0  0  0  0  0  0  0  0  0
   12.6635   12.5831   25.0544 C   0  0  0  0  0  0  0  0  0  0  0  0
   12.3098   11.1767   25.4581 C   0  0  0  0  0  0  0  0  0  0  0  0
   10.8413   10.8183   25.0886 C   0  0  0  0  0  0  0  0  0  0  0  0
   10.0187   12.0681   24.8665 C   0  0  0  0  0  0  0  0  0  0  0  0
    7.1064   14.9759   27.3916 C   0  0  0  0  0  0  0  0  0  0  0  0
    6.5517   15.7460   26.1988 C   0  0  0  0  0  0  0  0  0  0  0  0
    9.1526   15.9713   21.6189 C   0  0  2  0  0  0  0  0  0  0  0  0
    9.5047   15.8388   20.1136 C   0  0  0  0  0  0  0  0  0  0  0  0
   10.7741   15.1412   19.6702 C   0  0  0  0  0  0  0  0  0  0  0  0
   11.7571   14.9541   20.7890 C   0  0  0  0  0  0  0  0  0  0  0  0
   11.0355   14.5029   22.0302 C   0  0  0  0  0  0  0  0  0  0  0  0
   10.1849   15.5258   22.4966 O   0  0  0  0  0  0  0  0  0  0  0  0
  1  2  1  0
  3  2  1  1
  3  4  1  0
  4  5  1  0
  5  6  2  0
  5  7  1  0
  7  8  1  0
  8  9  1  0
  9 10  1  0
 10 11  1  0
 11 12  2  0
 11 13  2  0
 11 14  1  0
 14 15  1  0
 15 16  1  0
 16 17  1  0
 17 18  1  0
 18 19  1  0
 10 20  1  0
 20 21  1  0
  3 22  1  0
 22 23  1  6
 23 24  1  0
 24 25  1  0
 25 26  1  0
 26 27  1  0
 21  7  1  0
 27 22  1  0
 19 14  1  0
M  END
>  <energy_score>  (2557) 
-28.234186

>  <inchikey>  (2557) 
None

>  <smiles>  (2557) 
None

>  <ref_pdb>  (2557) 
A4706a

>  <alias>  (2557) 
None

>  <HIPPO Pose ID>  (2557) 
500201

>  <name>  (2557) 
P500201

>  <HIPPO Compound ID>  (2557) 
314584

>  <ref_mols>  (2557) 
A4706a,A0875a

>  <distance_score>  (2557) 
1.757546

>  <inspiration_score>  (2557) 
None

$$$$
P500202
     RDKit          3D

 27 29  0  0  0  0  0  0  0  0999 V2000
    8.1226   17.5779   21.2216 N   0  0  0  0  0  0  0  0  0  0  0  0
    7.3617   16.5662   21.9373 C   0  0  0  0  0  0  0  0  0  0  0  0
    7.8562   15.1298   21.8539 C   0  0  2  0  0  0  0  0  0  0  0  0
    7.5622   14.6460   23.1923 O   0  0  0  0  0  0  0  0  0  0  0  0
    6.6893   13.6389   23.3373 C   0  0  0  0  0  0  0  0  0  0  0  0
    6.3043   12.9329   22.4131 O   0  0  0  0  0  0  0  0  0  0  0  0
    6.1834   13.4663   24.7685 C   0  0  0  0  0  0  0  0  0  0  0  0
    6.4974   12.0652   25.3071 C   0  0  0  0  0  0  0  0  0  0  0  0
    7.9283   11.8565   25.7834 C   0  0  0  0  0  0  0  0  0  0  0  0
    8.5022   13.0941   26.3455 N   0  0  0  0  0  0  0  0  0  0  0  0
    9.7507   13.8163   25.4690 S   0  0  0  0  0  0  0  0  0  0  0  0
    9.8994   15.1644   25.9553 O   0  0  0  0  0  0  0  0  0  0  0  0
    9.5620   13.4728   24.0873 O   0  0  0  0  0  0  0  0  0  0  0  0
   11.0716   12.8818   26.0155 N   0  0  0  0  0  0  0  0  0  0  0  0
   12.0238   13.6175   26.8684 C   0  0  0  0  0  0  0  0  0  0  0  0
   13.4672   13.1249   26.7026 C   0  0  0  0  0  0  0  0  0  0  0  0
   13.5370   11.6507   26.6456 C   0  0  0  0  0  0  0  0  0  0  0  0
   12.8227   11.2153   25.3877 C   0  0  0  0  0  0  0  0  0  0  0  0
   11.6899   12.1302   24.9164 C   0  0  0  0  0  0  0  0  0  0  0  0
    7.4788   14.0189   26.8875 C   0  0  0  0  0  0  0  0  0  0  0  0
    6.5898   14.5565   25.7735 C   0  0  0  0  0  0  0  0  0  0  0  0
    9.3288   14.8914   21.4320 C   0  0  1  0  0  0  0  0  0  0  0  0
    9.6439   15.3914   20.0105 C   0  0  0  0  0  0  0  0  0  0  0  0
   10.9771   14.8852   19.5248 C   0  0  0  0  0  0  0  0  0  0  0  0
   11.9077   14.6789   20.7000 C   0  0  0  0  0  0  0  0  0  0  0  0
   11.5857   15.5396   21.9110 C   0  0  0  0  0  0  0  0  0  0  0  0
   10.2450   15.4731   22.3682 O   0  0  0  0  0  0  0  0  0  0  0  0
  1  2  1  0
  3  2  1  1
  3  4  1  0
  4  5  1  0
  5  6  2  0
  5  7  1  0
  7  8  1  0
  8  9  1  0
  9 10  1  0
 10 11  1  0
 11 12  2  0
 11 13  2  0
 11 14  1  0
 14 15  1  0
 15 16  1  0
 16 17  1  0
 17 18  1  0
 18 19  1  0
 10 20  1  0
 20 21  1  0
  3 22  1  0
 22 23  1  6
 23 24  1  0
 24 25  1  0
 25 26  1  0
 26 27  1  0
 21  7  1  0
 27 22  1  0
 19 14  1  0
M  END
>  <energy_score>  (2558) 
-35.947994

>  <inchikey>  (2558) 
None

>  <smiles>  (2558) 
None

>  <ref_pdb>  (2558) 
A4706a

>  <alias>  (2558) 
None

>  <HIPPO Pose ID>  (2558) 
500202

>  <name>  (2558) 
P500202

>  <HIPPO Compound ID>  (2558) 
314584

>  <ref_mols>  (2558) 
A0875a,A4706a

>  <distance_score>  (2558) 
1.549053

>  <inspiration_score>  (2558) 
None

$$$$
P500203
     RDKit          3D

 27 29  0  0  0  0  0  0  0  0999 V2000
    6.5092   13.0792   22.3095 N   0  0  0  0  0  0  0  0  0  0  0  0
    6.6585   14.3768   21.6175 C   0  0  0  0  0  0  0  0  0  0  0  0
    7.6527   15.3323   22.3151 C   0  0  1  0  0  0  0  0  0  0  0  0
    7.4770   15.1515   23.7609 O   0  0  0  0  0  0  0  0  0  0  0  0
    6.2389   15.3629   24.2812 C   0  0  0  0  0  0  0  0  0  0  0  0
    5.2917   15.8461   23.6702 O   0  0  0  0  0  0  0  0  0  0  0  0
    6.0850   14.8325   25.7039 C   0  0  0  0  0  0  0  0  0  0  0  0
    5.9707   13.2955   25.7940 C   0  0  0  0  0  0  0  0  0  0  0  0
    7.2577   12.4992   26.0281 C   0  0  0  0  0  0  0  0  0  0  0  0
    8.3694   13.3508   26.4987 N   0  0  0  0  0  0  0  0  0  0  0  0
    9.5616   13.7603   25.3751 S   0  0  0  0  0  0  0  0  0  0  0  0
    9.1747   13.1710   24.1163 O   0  0  0  0  0  0  0  0  0  0  0  0
    9.8822   15.1499   25.5586 O   0  0  0  0  0  0  0  0  0  0  0  0
   10.8894   12.8566   25.9625 N   0  0  0  0  0  0  0  0  0  0  0  0
   11.5722   12.1485   24.8710 C   0  0  0  0  0  0  0  0  0  0  0  0
   12.6933   11.2393   25.3902 C   0  0  0  0  0  0  0  0  0  0  0  0
   13.3870   11.7009   26.6507 C   0  0  0  0  0  0  0  0  0  0  0  0
   13.2669   13.1704   26.7019 C   0  0  0  0  0  0  0  0  0  0  0  0
   11.8135   13.6374   26.8265 C   0  0  0  0  0  0  0  0  0  0  0  0
    7.9240   14.4219   27.4114 C   0  0  0  0  0  0  0  0  0  0  0  0
    7.0838   15.4527   26.6745 C   0  0  0  0  0  0  0  0  0  0  0  0
    9.1127   14.9819   21.8149 C   0  0  1  0  0  0  0  0  0  0  0  0
    9.3763   15.4761   20.3857 C   0  0  0  0  0  0  0  0  0  0  0  0
   10.7149   15.0182   19.8361 C   0  0  0  0  0  0  0  0  0  0  0  0
   11.6889   14.7322   20.9572 C   0  0  0  0  0  0  0  0  0  0  0  0
   11.4198   15.5870   22.1781 C   0  0  0  0  0  0  0  0  0  0  0  0
   10.0991   15.5197   22.6936 O   0  0  0  0  0  0  0  0  0  0  0  0
  1  2  1  0
  3  2  1  6
  3  4  1  0
  4  5  1  0
  5  6  2  0
  5  7  1  0
  7  8  1  0
  8  9  1  0
  9 10  1  0
 10 11  1  0
 11 12  2  0
 11 13  2  0
 11 14  1  0
 14 15  1  0
 15 16  1  0
 16 17  1  0
 17 18  1  0
 18 19  1  0
 10 20  1  0
 20 21  1  0
  3 22  1  0
 22 23  1  6
 23 24  1  0
 24 25  1  0
 25 26  1  0
 26 27  1  0
 21  7  1  0
 27 22  1  0
 19 14  1  0
M  END
>  <energy_score>  (2559) 
-35.89518

>  <inchikey>  (2559) 
None

>  <smiles>  (2559) 
None

>  <ref_pdb>  (2559) 
A4706a

>  <alias>  (2559) 
None

>  <HIPPO Pose ID>  (2559) 
500203

>  <name>  (2559) 
P500203

>  <HIPPO Compound ID>  (2559) 
314584

>  <ref_mols>  (2559) 
A4706a,A0875a

>  <distance_score>  (2559) 
1.886226

>  <inspiration_score>  (2559) 
None

$$$$
P500204
     RDKit          3D

 27 29  0  0  0  0  0  0  0  0999 V2000
    9.7983   15.2999   19.0038 C   0  0  0  0  0  0  0  0  0  0  0  0
   10.3749   15.0904   20.3767 C   0  0  0  0  0  0  0  0  0  0  0  0
   11.8795   15.0983   20.1089 C   0  0  0  0  0  0  0  0  0  0  0  0
    9.9897   13.8162   20.8603 O   0  0  0  0  0  0  0  0  0  0  0  0
   10.5050   13.5482   22.1647 C   0  0  0  0  0  0  0  0  0  0  0  0
   11.2405   14.7137   22.8233 C   0  0  0  0  0  0  0  0  0  0  0  0
   10.5652   15.9504   22.6778 O   0  0  0  0  0  0  0  0  0  0  0  0
    9.8258   16.0638   21.4528 C   0  0  2  0  0  0  0  0  0  0  0  0
    8.2714   15.8951   21.6825 C   0  0  0  0  0  0  0  0  0  0  0  0
    7.7669   15.5131   22.9905 O   0  0  0  0  0  0  0  0  0  0  0  0
    7.1075   14.3303   23.1037 C   0  0  0  0  0  0  0  0  0  0  0  0
    7.0676   13.4562   22.2362 O   0  0  0  0  0  0  0  0  0  0  0  0
    6.2793   14.1754   24.3966 C   0  0  0  0  0  0  0  0  0  0  0  0
    6.2516   12.6967   24.8234 C   0  0  0  0  0  0  0  0  0  0  0  0
    7.5799   12.2399   25.4183 C   0  0  0  0  0  0  0  0  0  0  0  0
    8.0955   13.1802   26.4493 N   0  0  0  0  0  0  0  0  0  0  0  0
    9.5604   13.9590   26.1339 S   0  0  0  0  0  0  0  0  0  0  0  0
    9.7939   14.8442   27.2483 O   0  0  0  0  0  0  0  0  0  0  0  0
    9.4532   14.4758   24.8048 O   0  0  0  0  0  0  0  0  0  0  0  0
   10.7957   12.8213   26.1628 N   0  0  0  0  0  0  0  0  0  0  0  0
   12.1325   13.4070   26.5167 C   0  0  0  0  0  0  0  0  0  0  0  0
   13.2674   13.0629   25.5295 C   0  0  0  0  0  0  0  0  0  0  0  0
   13.4417   11.5992   25.2350 C   0  0  0  0  0  0  0  0  0  0  0  0
   12.1256   10.9420   25.4663 C   0  0  0  0  0  0  0  0  0  0  0  0
   10.8623   11.7367   25.1750 C   0  0  0  0  0  0  0  0  0  0  0  0
    7.0482   14.1930   26.8338 C   0  0  0  0  0  0  0  0  0  0  0  0
    6.6269   15.0373   25.6176 C   0  0  0  0  0  0  0  0  0  0  0  0
  1  2  1  0
  2  3  1  0
  2  4  1  0
  4  5  1  0
  5  6  1  0
  6  7  1  0
  7  8  1  0
  8  9  1  1
  9 10  1  0
 10 11  1  0
 11 12  2  0
 11 13  1  0
 13 14  1  0
 14 15  1  0
 15 16  1  0
 16 17  1  0
 17 18  2  0
 17 19  2  0
 17 20  1  0
 20 21  1  0
 21 22  1  0
 22 23  1  0
 23 24  1  0
 24 25  1  0
 16 26  1  0
 26 27  1  0
  8  2  1  0
 27 13  1  0
 25 20  1  0
M  END
>  <energy_score>  (2560) 
-7.864551

>  <inchikey>  (2560) 
None

>  <smiles>  (2560) 
None

>  <ref_pdb>  (2560) 
A4706a

>  <alias>  (2560) 
None

>  <HIPPO Pose ID>  (2560) 
500204

>  <name>  (2560) 
P500204

>  <HIPPO Compound ID>  (2560) 
314585

>  <ref_mols>  (2560) 
A4706a,A0875a

>  <distance_score>  (2560) 
1.396145

>  <inspiration_score>  (2560) 
None

$$$$
P500205
     RDKit          3D

 27 29  0  0  0  0  0  0  0  0999 V2000
   11.8701   14.9295   20.1661 C   0  0  0  0  0  0  0  0  0  0  0  0
   10.3746   15.1317   20.4252 C   0  0  0  0  0  0  0  0  0  0  0  0
    9.8097   15.6561   19.1218 C   0  0  0  0  0  0  0  0  0  0  0  0
    9.8200   13.8542   20.7542 O   0  0  0  0  0  0  0  0  0  0  0  0
   10.1390   13.4350   22.0950 C   0  0  0  0  0  0  0  0  0  0  0  0
   11.0609   14.3747   22.8569 C   0  0  0  0  0  0  0  0  0  0  0  0
   10.6053   15.7176   22.8248 O   0  0  0  0  0  0  0  0  0  0  0  0
    9.9209   16.0404   21.6057 C   0  0  2  0  0  0  0  0  0  0  0  0
    8.3381   16.0232   21.7288 C   0  0  0  0  0  0  0  0  0  0  0  0
    7.7068   15.7306   22.9997 O   0  0  0  0  0  0  0  0  0  0  0  0
    6.8993   14.6416   23.0833 C   0  0  0  0  0  0  0  0  0  0  0  0
    6.8300   13.7463   22.2400 O   0  0  0  0  0  0  0  0  0  0  0  0
    5.9677   14.6333   24.3112 C   0  0  0  0  0  0  0  0  0  0  0  0
    5.7492   13.1848   24.7822 C   0  0  0  0  0  0  0  0  0  0  0  0
    6.9762   12.6332   25.4989 C   0  0  0  0  0  0  0  0  0  0  0  0
    7.5395   13.5663   26.5202 N   0  0  0  0  0  0  0  0  0  0  0  0
    9.1092   14.1665   26.2987 S   0  0  0  0  0  0  0  0  0  0  0  0
    9.3985   15.0573   27.3938 O   0  0  0  0  0  0  0  0  0  0  0  0
    9.1942   14.6323   24.9445 O   0  0  0  0  0  0  0  0  0  0  0  0
   10.1951   12.8556   26.4544 N   0  0  0  0  0  0  0  0  0  0  0  0
   11.5790   13.4223   26.5810 C   0  0  0  0  0  0  0  0  0  0  0  0
   12.6881   12.4064   26.4384 C   0  0  0  0  0  0  0  0  0  0  0  0
   12.4841   11.5695   25.2033 C   0  0  0  0  0  0  0  0  0  0  0  0
   11.1170   10.8821   25.1804 C   0  0  0  0  0  0  0  0  0  0  0  0
    9.9817   11.8198   25.4371 C   0  0  0  0  0  0  0  0  0  0  0  0
    6.5877   14.6901   26.7959 C   0  0  0  0  0  0  0  0  0  0  0  0
    6.3324   15.5079   25.5200 C   0  0  0  0  0  0  0  0  0  0  0  0
  1  2  1  0
  2  3  1  0
  2  4  1  0
  4  5  1  0
  5  6  1  0
  6  7  1  0
  7  8  1  0
  8  9  1  1
  9 10  1  0
 10 11  1  0
 11 12  2  0
 11 13  1  0
 13 14  1  0
 14 15  1  0
 15 16  1  0
 16 17  1  0
 17 18  2  0
 17 19  2  0
 17 20  1  0
 20 21  1  0
 21 22  1  0
 22 23  1  0
 23 24  1  0
 24 25  1  0
 16 26  1  0
 26 27  1  0
  8  2  1  0
 27 13  1  0
 25 20  1  0
M  END
>  <energy_score>  (2561) 
-40.672188

>  <inchikey>  (2561) 
None

>  <smiles>  (2561) 
None

>  <ref_pdb>  (2561) 
A4706a

>  <alias>  (2561) 
None

>  <HIPPO Pose ID>  (2561) 
500205

>  <name>  (2561) 
P500205

>  <HIPPO Compound ID>  (2561) 
314585

>  <ref_mols>  (2561) 
A0875a,A4706a

>  <distance_score>  (2561) 
1.661182

>  <inspiration_score>  (2561) 
None

$$$$
P500206
     RDKit          3D

 27 29  0  0  0  0  0  0  0  0999 V2000
   10.6291   14.9721   18.9218 C   0  0  0  0  0  0  0  0  0  0  0  0
    9.4575   15.2895   19.6562 O   0  0  0  0  0  0  0  0  0  0  0  0
    9.6504   15.9914   20.8827 C   0  0  1  0  0  0  0  0  0  0  0  0
    8.2863   16.2974   21.4960 C   0  0  0  0  0  0  0  0  0  0  0  0
    7.9483   15.1348   22.4221 C   0  0  1  0  0  0  0  0  0  0  0  0
    6.6605   14.5417   22.1585 O   0  0  0  0  0  0  0  0  0  0  0  0
    5.8684   14.0867   23.1761 C   0  0  0  0  0  0  0  0  0  0  0  0
    4.6644   13.9256   23.0261 O   0  0  0  0  0  0  0  0  0  0  0  0
    6.5667   13.7619   24.4745 C   0  0  0  0  0  0  0  0  0  0  0  0
    6.4153   12.3623   25.0435 C   0  0  0  0  0  0  0  0  0  0  0  0
    7.5447   12.1218   26.0587 C   0  0  0  0  0  0  0  0  0  0  0  0
    7.9683   13.3806   26.7301 N   0  0  0  0  0  0  0  0  0  0  0  0
    9.4161   14.1733   26.3608 S   0  0  0  0  0  0  0  0  0  0  0  0
    9.4297   14.6513   25.0106 O   0  0  0  0  0  0  0  0  0  0  0  0
    9.6221   15.1505   27.3948 O   0  0  0  0  0  0  0  0  0  0  0  0
   10.6171   12.9771   26.4841 N   0  0  0  0  0  0  0  0  0  0  0  0
   11.8397   13.5616   27.1257 C   0  0  0  0  0  0  0  0  0  0  0  0
   13.0605   12.6712   26.9420 C   0  0  0  0  0  0  0  0  0  0  0  0
   13.3796   12.4479   25.4722 C   0  0  0  0  0  0  0  0  0  0  0  0
   12.1930   12.8266   24.5929 C   0  0  0  0  0  0  0  0  0  0  0  0
   10.9206   12.2654   25.1992 C   0  0  0  0  0  0  0  0  0  0  0  0
    6.8118   14.3061   26.9230 C   0  0  0  0  0  0  0  0  0  0  0  0
    6.3039   14.7994   25.5666 C   0  0  0  0  0  0  0  0  0  0  0  0
    9.1057   14.1633   22.2066 C   0  0  0  0  0  0  0  0  0  0  0  0
   10.2401   15.1367   22.0135 C   0  0  1  0  0  0  0  0  0  0  0  0
   11.4671   14.5059   21.7623 O   0  0  0  0  0  0  0  0  0  0  0  0
   12.4757   15.4920   21.6470 C   0  0  0  0  0  0  0  0  0  0  0  0
  1  2  1  0
  3  2  1  6
  3  4  1  0
  4  5  1  0
  5  6  1  6
  6  7  1  0
  7  8  2  0
  7  9  1  0
  9 10  1  0
 10 11  1  0
 11 12  1  0
 12 13  1  0
 13 14  2  0
 13 15  2  0
 13 16  1  0
 16 17  1  0
 17 18  1  0
 18 19  1  0
 19 20  1  0
 20 21  1  0
 12 22  1  0
 22 23  1  0
  5 24  1  0
 24 25  1  0
 25 26  1  6
 26 27  1  0
 25  3  1  0
 23  9  1  0
 21 16  1  0
M  END
>  <energy_score>  (2562) 
-40.851382

>  <inchikey>  (2562) 
None

>  <smiles>  (2562) 
None

>  <ref_pdb>  (2562) 
A4706a

>  <alias>  (2562) 
None

>  <HIPPO Pose ID>  (2562) 
500206

>  <name>  (2562) 
P500206

>  <HIPPO Compound ID>  (2562) 
314586

>  <ref_mols>  (2562) 
A4706a,A0875a

>  <distance_score>  (2562) 
1.749684

>  <inspiration_score>  (2562) 
None

$$$$
P500207
     RDKit          3D

 27 29  0  0  0  0  0  0  0  0999 V2000
   10.8742   14.9972   18.6342 C   0  0  0  0  0  0  0  0  0  0  0  0
    9.6155   14.9820   19.2757 O   0  0  0  0  0  0  0  0  0  0  0  0
    9.4989   15.6810   20.5016 C   0  0  1  0  0  0  0  0  0  0  0  0
    8.1849   15.2755   21.1788 C   0  0  0  0  0  0  0  0  0  0  0  0
    8.5693   14.4817   22.4026 C   0  0  0  0  0  0  0  0  0  0  0  0
    7.5956   14.5959   23.4360 O   0  0  0  0  0  0  0  0  0  0  0  0
    6.5931   13.6864   23.3715 C   0  0  0  0  0  0  0  0  0  0  0  0
    6.4040   12.9579   22.4031 O   0  0  0  0  0  0  0  0  0  0  0  0
    5.7790   13.5615   24.6520 C   0  0  0  0  0  0  0  0  0  0  0  0
    6.2504   12.3082   25.4259 C   0  0  0  0  0  0  0  0  0  0  0  0
    7.3307   12.6115   26.4675 C   0  0  0  0  0  0  0  0  0  0  0  0
    8.0188   13.8293   26.0278 N   0  0  0  0  0  0  0  0  0  0  0  0
    9.6295   14.0795   26.3426 S   0  0  0  0  0  0  0  0  0  0  0  0
    9.7976   14.1315   27.7704 O   0  0  0  0  0  0  0  0  0  0  0  0
   10.1053   15.1808   25.5455 O   0  0  0  0  0  0  0  0  0  0  0  0
   10.3711   12.6757   25.8043 N   0  0  0  0  0  0  0  0  0  0  0  0
   11.8199   12.6622   26.0906 C   0  0  0  0  0  0  0  0  0  0  0  0
   12.4880   11.4356   25.4853 C   0  0  0  0  0  0  0  0  0  0  0  0
   11.5289   10.2437   25.2153 C   0  0  0  0  0  0  0  0  0  0  0  0
   10.1926   10.6249   24.5788 C   0  0  0  0  0  0  0  0  0  0  0  0
   10.0520   12.1310   24.4729 C   0  0  0  0  0  0  0  0  0  0  0  0
    7.1616   15.0248   26.2232 C   0  0  0  0  0  0  0  0  0  0  0  0
    5.8139   14.8093   25.5347 C   0  0  0  0  0  0  0  0  0  0  0  0
    9.8759   15.1101   22.7963 C   0  0  0  0  0  0  0  0  0  0  0  0
   10.5645   15.2561   21.4835 C   0  0  2  0  0  0  0  0  0  0  0  0
   11.5406   16.2662   21.5779 O   0  0  0  0  0  0  0  0  0  0  0  0
   12.8043   15.6689   21.6135 C   0  0  0  0  0  0  0  0  0  0  0  0
  1  2  1  0
  3  2  1  6
  3  4  1  0
  4  5  1  0
  5  6  1  0
  6  7  1  0
  7  8  2  0
  7  9  1  0
  9 10  1  0
 10 11  1  0
 11 12  1  0
 12 13  1  0
 13 14  2  0
 13 15  2  0
 13 16  1  0
 16 17  1  0
 17 18  1  0
 18 19  1  0
 19 20  1  0
 20 21  1  0
 12 22  1  0
 22 23  1  0
  5 24  1  0
 24 25  1  0
 25 26  1  1
 26 27  1  0
 25  3  1  0
 23  9  1  0
 21 16  1  0
M  END
>  <energy_score>  (2563) 
-40.044655

>  <inchikey>  (2563) 
None

>  <smiles>  (2563) 
None

>  <ref_pdb>  (2563) 
A4706a

>  <alias>  (2563) 
None

>  <HIPPO Pose ID>  (2563) 
500207

>  <name>  (2563) 
P500207

>  <HIPPO Compound ID>  (2563) 
314586

>  <ref_mols>  (2563) 
A4706a,A0875a

>  <distance_score>  (2563) 
1.604832

>  <inspiration_score>  (2563) 
None

$$$$
P500208
     RDKit          3D

 27 29  0  0  0  0  0  0  0  0999 V2000
    9.9650   15.2147   18.7225 C   0  0  0  0  0  0  0  0  0  0  0  0
    9.9230   16.4125   19.4767 O   0  0  0  0  0  0  0  0  0  0  0  0
    9.5797   16.3170   20.8509 C   0  0  1  0  0  0  0  0  0  0  0  0
    8.2664   15.6161   21.1428 C   0  0  0  0  0  0  0  0  0  0  0  0
    8.4906   14.7739   22.3536 C   0  0  2  0  0  0  0  0  0  0  0  0
    7.4441   14.9589   23.3040 O   0  0  0  0  0  0  0  0  0  0  0  0
    6.4386   14.0500   23.2793 C   0  0  0  0  0  0  0  0  0  0  0  0
    6.1732   13.3114   22.3371 O   0  0  0  0  0  0  0  0  0  0  0  0
    5.7272   14.0041   24.6305 C   0  0  0  0  0  0  0  0  0  0  0  0
    5.7410   12.5685   25.1823 C   0  0  0  0  0  0  0  0  0  0  0  0
    6.6276   12.3657   26.4012 C   0  0  0  0  0  0  0  0  0  0  0  0
    7.8980   13.0928   26.2278 N   0  0  0  0  0  0  0  0  0  0  0  0
    9.0090   12.3245   25.2195 S   0  0  0  0  0  0  0  0  0  0  0  0
    9.1933   10.9959   25.7392 O   0  0  0  0  0  0  0  0  0  0  0  0
    8.6304   12.5005   23.8508 O   0  0  0  0  0  0  0  0  0  0  0  0
   10.4245   13.1734   25.4896 N   0  0  0  0  0  0  0  0  0  0  0  0
   11.5654   12.7822   24.6093 C   0  0  0  0  0  0  0  0  0  0  0  0
   12.5313   11.8590   25.3311 C   0  0  0  0  0  0  0  0  0  0  0  0
   13.1097   12.5287   26.5628 C   0  0  0  0  0  0  0  0  0  0  0  0
   12.1951   13.6167   27.1108 C   0  0  0  0  0  0  0  0  0  0  0  0
   10.7428   13.3393   26.9038 C   0  0  0  0  0  0  0  0  0  0  0  0
    7.7103   14.5595   26.1381 C   0  0  0  0  0  0  0  0  0  0  0  0
    6.3088   14.9629   25.6742 C   0  0  0  0  0  0  0  0  0  0  0  0
    9.7922   15.2481   22.9608 C   0  0  0  0  0  0  0  0  0  0  0  0
   10.6185   15.7005   21.7961 C   0  0  1  0  0  0  0  0  0  0  0  0
   11.2290   14.5144   21.3201 O   0  0  0  0  0  0  0  0  0  0  0  0
   12.3269   14.8350   20.5061 C   0  0  0  0  0  0  0  0  0  0  0  0
  1  2  1  0
  3  2  1  6
  3  4  1  0
  4  5  1  0
  5  6  1  1
  6  7  1  0
  7  8  2  0
  7  9  1  0
  9 10  1  0
 10 11  1  0
 11 12  1  0
 12 13  1  0
 13 14  2  0
 13 15  2  0
 13 16  1  0
 16 17  1  0
 17 18  1  0
 18 19  1  0
 19 20  1  0
 20 21  1  0
 12 22  1  0
 22 23  1  0
  5 24  1  0
 24 25  1  0
 25 26  1  6
 26 27  1  0
 25  3  1  0
 23  9  1  0
 21 16  1  0
M  END
>  <energy_score>  (2564) 
-43.229974

>  <inchikey>  (2564) 
None

>  <smiles>  (2564) 
None

>  <ref_pdb>  (2564) 
A4706a

>  <alias>  (2564) 
None

>  <HIPPO Pose ID>  (2564) 
500208

>  <name>  (2564) 
P500208

>  <HIPPO Compound ID>  (2564) 
314586

>  <ref_mols>  (2564) 
A0875a,A4706a

>  <distance_score>  (2564) 
1.859079

>  <inspiration_score>  (2564) 
None

$$$$
P500209
     RDKit          3D

 27 29  0  0  0  0  0  0  0  0999 V2000
   10.9263   14.8960   18.6281 C   0  0  0  0  0  0  0  0  0  0  0  0
   10.0270   15.5869   19.4865 O   0  0  0  0  0  0  0  0  0  0  0  0
    9.7534   14.8437   20.6603 C   0  0  2  0  0  0  0  0  0  0  0  0
    8.3067   14.9695   21.1001 C   0  0  0  0  0  0  0  0  0  0  0  0
    8.3722   14.3936   22.4885 C   0  0  0  0  0  0  0  0  0  0  0  0
    7.2591   14.7437   23.3011 O   0  0  0  0  0  0  0  0  0  0  0  0
    6.3261   13.7744   23.3687 C   0  0  0  0  0  0  0  0  0  0  0  0
    6.0470   13.0441   22.4221 O   0  0  0  0  0  0  0  0  0  0  0  0
    5.7284   13.5956   24.7596 C   0  0  0  0  0  0  0  0  0  0  0  0
    6.4008   12.3068   25.2777 C   0  0  0  0  0  0  0  0  0  0  0  0
    6.8440   12.2917   26.7174 C   0  0  0  0  0  0  0  0  0  0  0  0
    7.3772   13.5749   27.1462 N   0  0  0  0  0  0  0  0  0  0  0  0
    8.8774   14.2211   26.7750 S   0  0  0  0  0  0  0  0  0  0  0  0
    8.7709   14.8773   25.5053 O   0  0  0  0  0  0  0  0  0  0  0  0
    9.2707   14.9990   27.9216 O   0  0  0  0  0  0  0  0  0  0  0  0
   10.0444   12.9867   26.5938 N   0  0  0  0  0  0  0  0  0  0  0  0
    9.7974   12.1051   25.4419 C   0  0  0  0  0  0  0  0  0  0  0  0
   10.9583   11.2657   25.0019 C   0  0  0  0  0  0  0  0  0  0  0  0
   12.3164   11.9557   25.0514 C   0  0  0  0  0  0  0  0  0  0  0  0
   12.5219   12.6654   26.3588 C   0  0  0  0  0  0  0  0  0  0  0  0
   11.3983   13.6536   26.5669 C   0  0  0  0  0  0  0  0  0  0  0  0
    6.2825   14.5820   27.1094 C   0  0  0  0  0  0  0  0  0  0  0  0
    5.8095   14.8328   25.6759 C   0  0  0  0  0  0  0  0  0  0  0  0
    9.6535   14.9797   23.0449 C   0  0  0  0  0  0  0  0  0  0  0  0
   10.4649   15.4201   21.8703 C   0  0  1  0  0  0  0  0  0  0  0  0
   11.7511   14.8899   22.1059 O   0  0  0  0  0  0  0  0  0  0  0  0
   12.7047   15.6907   21.4691 C   0  0  0  0  0  0  0  0  0  0  0  0
  1  2  1  0
  3  2  1  6
  3  4  1  0
  4  5  1  0
  5  6  1  0
  6  7  1  0
  7  8  2  0
  7  9  1  0
  9 10  1  0
 10 11  1  0
 11 12  1  0
 12 13  1  0
 13 14  2  0
 13 15  2  0
 13 16  1  0
 16 17  1  0
 17 18  1  0
 18 19  1  0
 19 20  1  0
 20 21  1  0
 12 22  1  0
 22 23  1  0
  5 24  1  0
 24 25  1  0
 25 26  1  1
 26 27  1  0
 25  3  1  0
 23  9  1  0
 21 16  1  0
M  END
>  <energy_score>  (2565) 
-39.140733

>  <inchikey>  (2565) 
None

>  <smiles>  (2565) 
None

>  <ref_pdb>  (2565) 
A4706a

>  <alias>  (2565) 
None

>  <HIPPO Pose ID>  (2565) 
500209

>  <name>  (2565) 
P500209

>  <HIPPO Compound ID>  (2565) 
314586

>  <ref_mols>  (2565) 
A4706a,A0875a

>  <distance_score>  (2565) 
1.612505

>  <inspiration_score>  (2565) 
None

$$$$
P500210
     RDKit          3D

 27 29  0  0  0  0  0  0  0  0999 V2000
    6.8040   16.5048   22.1050 C   0  0  0  0  0  0  0  0  0  0  0  0
    7.4702   15.1545   22.1451 C   0  0  0  0  0  0  0  0  0  0  0  0
    6.8753   14.1254   21.2340 C   0  0  0  0  0  0  0  0  0  0  0  0
    7.1816   14.6085   23.4354 O   0  0  0  0  0  0  0  0  0  0  0  0
    5.9020   14.5173   23.9509 C   0  0  0  0  0  0  0  0  0  0  0  0
    4.8358   14.7653   23.4243 O   0  0  0  0  0  0  0  0  0  0  0  0
    6.1327   14.0210   25.3288 C   0  0  0  0  0  0  0  0  0  0  0  0
    6.4584   12.5407   25.3896 C   0  0  0  0  0  0  0  0  0  0  0  0
    7.2961   12.2840   26.6302 C   0  0  0  0  0  0  0  0  0  0  0  0
    7.8657   13.5422   27.1730 N   0  0  0  0  0  0  0  0  0  0  0  0
    9.2752   14.3097   26.5821 S   0  0  0  0  0  0  0  0  0  0  0  0
    9.8313   14.9904   27.7253 O   0  0  0  0  0  0  0  0  0  0  0  0
    9.0678   15.0576   25.3665 O   0  0  0  0  0  0  0  0  0  0  0  0
   10.3587   13.0961   26.1789 N   0  0  0  0  0  0  0  0  0  0  0  0
   10.0629   12.3517   24.9457 C   0  0  0  0  0  0  0  0  0  0  0  0
   10.8406   11.0617   25.0589 C   0  0  0  0  0  0  0  0  0  0  0  0
   12.3162   11.3606   25.4563 C   0  0  0  0  0  0  0  0  0  0  0  0
   12.6774   12.8129   25.2403 C   0  0  0  0  0  0  0  0  0  0  0  0
   11.7484   13.6674   26.1033 C   0  0  0  0  0  0  0  0  0  0  0  0
    6.7615   14.4804   27.6474 C   0  0  0  0  0  0  0  0  0  0  0  0
    5.5846   14.5446   26.6257 C   0  0  0  0  0  0  0  0  0  0  0  0
    9.0332   15.2785   21.9111 C   0  0  2  0  0  0  0  0  0  0  0  0
    9.3993   15.8326   20.5016 C   0  0  0  0  0  0  0  0  0  0  0  0
   10.8170   15.8516   20.1710 N   0  0  0  0  0  0  0  0  0  0  0  0
   11.4706   14.6088   20.5133 C   0  0  0  0  0  0  0  0  0  0  0  0
   11.0943   14.1318   21.9122 C   0  0  0  0  0  0  0  0  0  0  0  0
    9.6719   13.9896   22.0661 O   0  0  0  0  0  0  0  0  0  0  0  0
  1  2  1  0
  2  3  1  0
  2  4  1  0
  4  5  1  0
  5  6  2  0
  5  7  1  0
  7  8  1  0
  8  9  1  0
  9 10  1  0
 10 11  1  0
 11 12  2  0
 11 13  2  0
 11 14  1  0
 14 15  1  0
 15 16  1  0
 16 17  1  0
 17 18  1  0
 18 19  1  0
 10 20  1  0
 20 21  1  0
 22  2  1  6
 22 23  1  0
 23 24  1  0
 24 25  1  0
 25 26  1  0
 26 27  1  0
 21  7  1  0
 27 22  1  0
 19 14  1  0
M  END
>  <energy_score>  (2566) 
-10.076712

>  <inchikey>  (2566) 
None

>  <smiles>  (2566) 
None

>  <ref_pdb>  (2566) 
A4706a

>  <alias>  (2566) 
None

>  <HIPPO Pose ID>  (2566) 
500210

>  <name>  (2566) 
P500210

>  <HIPPO Compound ID>  (2566) 
314587

>  <ref_mols>  (2566) 
A4706a,A0875a

>  <distance_score>  (2566) 
1.779469

>  <inspiration_score>  (2566) 
None

$$$$
P500211
     RDKit          3D

 27 29  0  0  0  0  0  0  0  0999 V2000
    6.7830   14.4817   21.2400 C   0  0  0  0  0  0  0  0  0  0  0  0
    7.9008   14.5360   22.2315 C   0  0  2  0  0  0  0  0  0  0  0  0
    7.2449   14.8122   23.5054 O   0  0  0  0  0  0  0  0  0  0  0  0
    6.4206   13.8290   23.9725 C   0  0  0  0  0  0  0  0  0  0  0  0
    6.1649   12.7849   23.3763 O   0  0  0  0  0  0  0  0  0  0  0  0
    5.8475   14.1075   25.3496 C   0  0  0  0  0  0  0  0  0  0  0  0
    5.7641   12.7660   26.1012 C   0  0  0  0  0  0  0  0  0  0  0  0
    7.1424   12.1665   26.3983 C   0  0  0  0  0  0  0  0  0  0  0  0
    8.1598   13.2310   26.6316 N   0  0  0  0  0  0  0  0  0  0  0  0
    9.3266   13.4564   25.4376 S   0  0  0  0  0  0  0  0  0  0  0  0
    8.8086   12.8546   24.2427 O   0  0  0  0  0  0  0  0  0  0  0  0
    9.8167   14.8072   25.5125 O   0  0  0  0  0  0  0  0  0  0  0  0
   10.5322   12.3883   25.9360 N   0  0  0  0  0  0  0  0  0  0  0  0
   11.8196   13.0143   26.3059 C   0  0  0  0  0  0  0  0  0  0  0  0
   12.8994   12.6180   25.3275 C   0  0  0  0  0  0  0  0  0  0  0  0
   13.1108   11.1205   25.4222 C   0  0  0  0  0  0  0  0  0  0  0  0
   11.7855   10.3223   25.2922 C   0  0  0  0  0  0  0  0  0  0  0  0
   10.5894   11.2029   25.0188 C   0  0  0  0  0  0  0  0  0  0  0  0
    7.5705   14.4666   27.1933 C   0  0  0  0  0  0  0  0  0  0  0  0
    6.6262   15.1270   26.1915 C   0  0  0  0  0  0  0  0  0  0  0  0
    8.9560   15.6316   21.8870 C   0  0  2  0  0  0  0  0  0  0  0  0
    9.5267   15.6634   20.4436 C   0  0  0  0  0  0  0  0  0  0  0  0
   10.6031   14.7187   20.1718 N   0  0  0  0  0  0  0  0  0  0  0  0
   11.1006   14.8516   18.8131 C   0  0  0  0  0  0  0  0  0  0  0  0
   11.6490   14.9005   21.1667 C   0  0  0  0  0  0  0  0  0  0  0  0
   11.0606   14.6874   22.5530 C   0  0  0  0  0  0  0  0  0  0  0  0
   10.0411   15.6396   22.8402 O   0  0  0  0  0  0  0  0  0  0  0  0
  2  1  1  6
  2  3  1  0
  3  4  1  0
  4  5  2  0
  4  6  1  0
  6  7  1  0
  7  8  1  0
  8  9  1  0
  9 10  1  0
 10 11  2  0
 10 12  2  0
 10 13  1  0
 13 14  1  0
 14 15  1  0
 15 16  1  0
 16 17  1  0
 17 18  1  0
  9 19  1  0
 19 20  1  0
  2 21  1  0
 21 22  1  6
 22 23  1  0
 23 24  1  0
 23 25  1  0
 25 26  1  0
 26 27  1  0
 20  6  1  0
 27 21  1  0
 18 13  1  0
M  END
>  <energy_score>  (2567) 
-32.381218

>  <inchikey>  (2567) 
None

>  <smiles>  (2567) 
None

>  <ref_pdb>  (2567) 
A4706a

>  <alias>  (2567) 
None

>  <HIPPO Pose ID>  (2567) 
500211

>  <name>  (2567) 
P500211

>  <HIPPO Compound ID>  (2567) 
314588

>  <ref_mols>  (2567) 
A4706a,A0875a

>  <distance_score>  (2567) 
1.501471

>  <inspiration_score>  (2567) 
None

$$$$
P500212
     RDKit          3D

 27 29  0  0  0  0  0  0  0  0999 V2000
    7.1369   14.1139   21.6022 C   0  0  0  0  0  0  0  0  0  0  0  0
    7.6475   15.4157   22.1986 C   0  0  1  0  0  0  0  0  0  0  0  0
    7.4084   15.3357   23.6287 O   0  0  0  0  0  0  0  0  0  0  0  0
    6.1072   15.2424   24.0264 C   0  0  0  0  0  0  0  0  0  0  0  0
    5.1387   15.6012   23.3658 O   0  0  0  0  0  0  0  0  0  0  0  0
    5.9686   14.5262   25.3709 C   0  0  0  0  0  0  0  0  0  0  0  0
    6.1995   13.0044   25.1746 C   0  0  0  0  0  0  0  0  0  0  0  0
    7.1887   12.3166   26.1139 C   0  0  0  0  0  0  0  0  0  0  0  0
    8.2400   13.2494   26.5654 N   0  0  0  0  0  0  0  0  0  0  0  0
    9.4061   13.6860   25.4157 S   0  0  0  0  0  0  0  0  0  0  0  0
    9.0065   13.0769   24.1713 O   0  0  0  0  0  0  0  0  0  0  0  0
    9.6885   15.0866   25.5990 O   0  0  0  0  0  0  0  0  0  0  0  0
   10.7721   12.8161   25.9852 N   0  0  0  0  0  0  0  0  0  0  0  0
   11.4203   12.0672   24.8971 C   0  0  0  0  0  0  0  0  0  0  0  0
   12.6172   11.2366   25.3795 C   0  0  0  0  0  0  0  0  0  0  0  0
   13.3249   11.7335   26.6114 C   0  0  0  0  0  0  0  0  0  0  0  0
   13.1622   13.1981   26.6439 C   0  0  0  0  0  0  0  0  0  0  0  0
   11.7090   13.6440   26.7891 C   0  0  0  0  0  0  0  0  0  0  0  0
    7.6334   14.3565   27.3346 C   0  0  0  0  0  0  0  0  0  0  0  0
    6.7784   15.2484   26.4513 C   0  0  0  0  0  0  0  0  0  0  0  0
    9.1597   15.6738   21.8408 C   0  0  2  0  0  0  0  0  0  0  0  0
    9.5622   15.1843   20.4326 C   0  0  0  0  0  0  0  0  0  0  0  0
   10.9550   15.4738   20.0890 N   0  0  0  0  0  0  0  0  0  0  0  0
   11.2662   14.9679   18.7634 C   0  0  0  0  0  0  0  0  0  0  0  0
   11.8240   14.9039   21.1163 C   0  0  0  0  0  0  0  0  0  0  0  0
   11.3993   15.3574   22.5097 C   0  0  0  0  0  0  0  0  0  0  0  0
   10.0405   15.0305   22.7752 O   0  0  0  0  0  0  0  0  0  0  0  0
  2  1  1  6
  2  3  1  0
  3  4  1  0
  4  5  2  0
  4  6  1  0
  6  7  1  0
  7  8  1  0
  8  9  1  0
  9 10  1  0
 10 11  2  0
 10 12  2  0
 10 13  1  0
 13 14  1  0
 14 15  1  0
 15 16  1  0
 16 17  1  0
 17 18  1  0
  9 19  1  0
 19 20  1  0
  2 21  1  0
 21 22  1  6
 22 23  1  0
 23 24  1  0
 23 25  1  0
 25 26  1  0
 26 27  1  0
 20  6  1  0
 27 21  1  0
 18 13  1  0
M  END
>  <energy_score>  (2568) 
-63.110817

>  <inchikey>  (2568) 
None

>  <smiles>  (2568) 
None

>  <ref_pdb>  (2568) 
A4706a

>  <alias>  (2568) 
None

>  <HIPPO Pose ID>  (2568) 
500212

>  <name>  (2568) 
P500212

>  <HIPPO Compound ID>  (2568) 
314588

>  <ref_mols>  (2568) 
A0875a,A4706a

>  <distance_score>  (2568) 
1.889807

>  <inspiration_score>  (2568) 
None

$$$$
P500213
     RDKit          3D

 27 30  0  0  0  0  0  0  0  0999 V2000
    4.8774   14.7725   23.2428 O   0  0  0  0  0  0  0  0  0  0  0  0
    5.8937   14.4725   23.8553 C   0  0  0  0  0  0  0  0  0  0  0  0
    7.1562   14.4867   23.3306 O   0  0  0  0  0  0  0  0  0  0  0  0
    7.2072   15.0122   22.0123 C   0  0  0  0  0  0  0  0  0  0  0  0
    8.5784   15.0984   21.3837 C   0  0  0  0  0  0  0  0  0  0  0  0
    8.7431   15.1021   20.1007 N   0  0  0  0  0  0  0  0  0  0  0  0
   10.0822   15.4379   19.8381 O   0  0  0  0  0  0  0  0  0  0  0  0
   10.6287   15.9173   21.0713 C   0  0  2  0  0  0  0  0  0  0  0  0
   12.0226   15.3641   21.2400 C   0  0  0  0  0  0  0  0  0  0  0  0
   11.9256   14.2600   22.1578 O   0  0  0  0  0  0  0  0  0  0  0  0
   10.5482   13.9270   22.1645 C   0  0  0  0  0  0  0  0  0  0  0  0
    9.8290   15.2330   22.1246 C   0  0  2  0  0  0  0  0  0  0  0  0
    5.8877   14.0536   25.3217 C   0  0  0  0  0  0  0  0  0  0  0  0
    6.2251   12.5560   25.4500 C   0  0  0  0  0  0  0  0  0  0  0  0
    7.2458   12.1824   26.5209 C   0  0  0  0  0  0  0  0  0  0  0  0
    8.2869   13.2344   26.6768 N   0  0  0  0  0  0  0  0  0  0  0  0
    9.3779   13.3693   25.4143 S   0  0  0  0  0  0  0  0  0  0  0  0
    8.9091   12.4524   24.4013 O   0  0  0  0  0  0  0  0  0  0  0  0
    9.6229   14.7647   25.1348 O   0  0  0  0  0  0  0  0  0  0  0  0
   10.8549   12.7303   26.0066 N   0  0  0  0  0  0  0  0  0  0  0  0
   11.7604   12.4542   24.8518 C   0  0  0  0  0  0  0  0  0  0  0  0
   12.9581   11.6441   25.2936 C   0  0  0  0  0  0  0  0  0  0  0  0
   13.7869   12.4158   26.2822 C   0  0  0  0  0  0  0  0  0  0  0  0
   12.9143   12.9576   27.4005 C   0  0  0  0  0  0  0  0  0  0  0  0
   11.5820   13.6056   26.9639 C   0  0  0  0  0  0  0  0  0  0  0  0
    7.6586   14.4760   27.1670 C   0  0  0  0  0  0  0  0  0  0  0  0
    6.7147   15.0652   26.1327 C   0  0  0  0  0  0  0  0  0  0  0  0
  1  2  2  0
  2  3  1  0
  3  4  1  0
  4  5  1  0
  5  6  2  0
  6  7  1  0
  7  8  1  0
  8  9  1  1
  9 10  1  0
 10 11  1  0
 12 11  1  6
  2 13  1  0
 13 14  1  0
 14 15  1  0
 15 16  1  0
 16 17  1  0
 17 18  2  0
 17 19  2  0
 17 20  1  0
 20 21  1  0
 21 22  1  0
 22 23  1  0
 23 24  1  0
 24 25  1  0
 16 26  1  0
 26 27  1  0
 12  5  1  0
 27 13  1  0
 12  8  1  0
 25 20  1  0
M  END
>  <energy_score>  (2569) 
-77.018715

>  <inchikey>  (2569) 
None

>  <smiles>  (2569) 
None

>  <ref_pdb>  (2569) 
A4706a

>  <alias>  (2569) 
None

>  <HIPPO Pose ID>  (2569) 
500213

>  <name>  (2569) 
P500213

>  <HIPPO Compound ID>  (2569) 
314589

>  <ref_mols>  (2569) 
A4706a,A0875a

>  <distance_score>  (2569) 
1.89287

>  <inspiration_score>  (2569) 
None

$$$$
P500214
     RDKit          3D

 27 30  0  0  0  0  0  0  0  0999 V2000
    7.4443   14.9993   22.3729 O   0  0  0  0  0  0  0  0  0  0  0  0
    7.5646   15.2370   23.5647 C   0  0  0  0  0  0  0  0  0  0  0  0
    8.7271   15.5531   24.1982 O   0  0  0  0  0  0  0  0  0  0  0  0
   10.0082   15.3248   23.6481 C   0  0  0  0  0  0  0  0  0  0  0  0
   10.4484   15.0682   22.2497 C   0  0  0  0  0  0  0  0  0  0  0  0
   10.8045   13.8930   21.8480 N   0  0  0  0  0  0  0  0  0  0  0  0
   11.3298   14.0496   20.5577 O   0  0  0  0  0  0  0  0  0  0  0  0
   10.9972   15.3332   20.1136 C   0  0  1  0  0  0  0  0  0  0  0  0
    9.6901   15.4356   19.3971 C   0  0  0  0  0  0  0  0  0  0  0  0
    9.3712   16.8213   19.5561 O   0  0  0  0  0  0  0  0  0  0  0  0
    9.5949   17.0813   20.9460 C   0  0  0  0  0  0  0  0  0  0  0  0
   10.7436   16.1750   21.3279 C   0  0  1  0  0  0  0  0  0  0  0  0
    6.4153   15.1654   24.5908 C   0  0  0  0  0  0  0  0  0  0  0  0
    5.6973   13.7932   24.5784 C   0  0  0  0  0  0  0  0  0  0  0  0
    5.9687   12.9686   25.8473 C   0  0  0  0  0  0  0  0  0  0  0  0
    7.4245   13.0356   26.1900 N   0  0  0  0  0  0  0  0  0  0  0  0
    8.3350   12.1854   25.0700 S   0  0  0  0  0  0  0  0  0  0  0  0
    8.6208   12.9864   23.9176 O   0  0  0  0  0  0  0  0  0  0  0  0
    7.6083   10.9522   24.8906 O   0  0  0  0  0  0  0  0  0  0  0  0
    9.8148   11.7445   25.7121 N   0  0  0  0  0  0  0  0  0  0  0  0
   10.3274   10.6771   24.7884 C   0  0  0  0  0  0  0  0  0  0  0  0
   11.6652   10.1708   25.2522 C   0  0  0  0  0  0  0  0  0  0  0  0
   12.7128   11.2848   25.4726 C   0  0  0  0  0  0  0  0  0  0  0  0
   12.1102   12.6545   25.2349 C   0  0  0  0  0  0  0  0  0  0  0  0
   10.8233   12.7819   26.0424 C   0  0  0  0  0  0  0  0  0  0  0  0
    7.7672   14.3990   26.6402 C   0  0  0  0  0  0  0  0  0  0  0  0
    6.8628   15.4833   26.0280 C   0  0  0  0  0  0  0  0  0  0  0  0
  1  2  2  0
  2  3  1  0
  3  4  1  0
  4  5  1  0
  5  6  2  0
  6  7  1  0
  7  8  1  0
  8  9  1  6
  9 10  1  0
 10 11  1  0
 12 11  1  6
  2 13  1  0
 13 14  1  0
 14 15  1  0
 15 16  1  0
 16 17  1  0
 17 18  2  0
 17 19  2  0
 17 20  1  0
 20 21  1  0
 21 22  1  0
 22 23  1  0
 23 24  1  0
 24 25  1  0
 16 26  1  0
 26 27  1  0
 12  5  1  0
 27 13  1  0
 12  8  1  0
 25 20  1  0
M  END
>  <energy_score>  (2570) 
-9.335435

>  <inchikey>  (2570) 
None

>  <smiles>  (2570) 
None

>  <ref_pdb>  (2570) 
A4706a

>  <alias>  (2570) 
None

>  <HIPPO Pose ID>  (2570) 
500214

>  <name>  (2570) 
P500214

>  <HIPPO Compound ID>  (2570) 
314589

>  <ref_mols>  (2570) 
A0875a,A4706a

>  <distance_score>  (2570) 
1.960596

>  <inspiration_score>  (2570) 
None

$$$$
P500215
     RDKit          3D

 27 29  0  0  0  0  0  0  0  0999 V2000
   10.0959   15.1560   19.1302 C   0  0  0  0  0  0  0  0  0  0  0  0
   10.0525   15.7318   20.5441 C   0  0  0  0  0  0  0  0  0  0  0  0
    9.4885   17.1573   20.4732 C   0  0  0  0  0  0  0  0  0  0  0  0
   11.4443   15.7798   20.9074 O   0  0  0  0  0  0  0  0  0  0  0  0
   11.5088   15.9156   22.3148 C   0  0  0  0  0  0  0  0  0  0  0  0
   10.2035   15.4569   22.8957 C   0  0  0  0  0  0  0  0  0  0  0  0
    9.4168   14.9270   21.7281 C   0  0  2  0  0  0  0  0  0  0  0  0
    9.7504   13.4531   21.6807 C   0  0  0  0  0  0  0  0  0  0  0  0
   11.1399   13.0714   21.9498 N   0  0  0  0  0  0  0  0  0  0  0  0
    7.9731   15.1513   21.8472 O   0  0  0  0  0  0  0  0  0  0  0  0
    7.1499   14.2419   22.4416 C   0  0  0  0  0  0  0  0  0  0  0  0
    6.4549   13.4644   21.7982 O   0  0  0  0  0  0  0  0  0  0  0  0
    7.2247   14.1924   23.9472 C   0  0  0  0  0  0  0  0  0  0  0  0
    6.7998   12.8324   24.5355 C   0  0  0  0  0  0  0  0  0  0  0  0
    6.9318   12.8001   26.0637 C   0  0  0  0  0  0  0  0  0  0  0  0
    7.5389   14.0402   26.5567 N   0  0  0  0  0  0  0  0  0  0  0  0
    9.1687   14.3842   26.7434 S   0  0  0  0  0  0  0  0  0  0  0  0
    9.3289   14.8010   28.1118 O   0  0  0  0  0  0  0  0  0  0  0  0
    9.5679   15.2892   25.6927 O   0  0  0  0  0  0  0  0  0  0  0  0
   10.0970   12.9866   26.5537 N   0  0  0  0  0  0  0  0  0  0  0  0
   11.5386   13.2477   26.8867 C   0  0  0  0  0  0  0  0  0  0  0  0
   12.4370   13.2632   25.6854 C   0  0  0  0  0  0  0  0  0  0  0  0
   12.3519   11.9849   24.9137 C   0  0  0  0  0  0  0  0  0  0  0  0
   10.9909   11.3067   24.9632 C   0  0  0  0  0  0  0  0  0  0  0  0
    9.8919   12.2427   25.3152 C   0  0  0  0  0  0  0  0  0  0  0  0
    6.6917   15.2173   26.2084 C   0  0  0  0  0  0  0  0  0  0  0  0
    6.4921   15.3076   24.6830 C   0  0  0  0  0  0  0  0  0  0  0  0
  1  2  1  0
  2  3  1  0
  2  4  1  0
  4  5  1  0
  5  6  1  0
  6  7  1  0
  7  8  1  6
  8  9  1  0
  7 10  1  0
 10 11  1  0
 11 12  2  0
 11 13  1  0
 13 14  1  0
 14 15  1  0
 15 16  1  0
 16 17  1  0
 17 18  2  0
 17 19  2  0
 17 20  1  0
 20 21  1  0
 21 22  1  0
 22 23  1  0
 23 24  1  0
 24 25  1  0
 16 26  1  0
 26 27  1  0
  7  2  1  0
 27 13  1  0
 25 20  1  0
M  END
>  <energy_score>  (2571) 
-21.456238

>  <inchikey>  (2571) 
None

>  <smiles>  (2571) 
None

>  <ref_pdb>  (2571) 
A4706a

>  <alias>  (2571) 
None

>  <HIPPO Pose ID>  (2571) 
500215

>  <name>  (2571) 
P500215

>  <HIPPO Compound ID>  (2571) 
314591

>  <ref_mols>  (2571) 
A4706a,A0875a

>  <distance_score>  (2571) 
1.687911

>  <inspiration_score>  (2571) 
None

$$$$
P500216
     RDKit          3D

 27 30  0  0  0  0  0  0  0  0999 V2000
    6.7027   13.4688   22.9420 O   0  0  0  0  0  0  0  0  0  0  0  0
    6.8873   14.4682   23.6366 C   0  0  0  0  0  0  0  0  0  0  0  0
    7.8586   15.3922   23.4142 O   0  0  0  0  0  0  0  0  0  0  0  0
    8.9207   14.9582   22.5583 C   0  0  2  0  0  0  0  0  0  0  0  0
   10.3129   15.5691   22.8484 C   0  0  0  0  0  0  0  0  0  0  0  0
   10.7685   16.1779   21.6152 O   0  0  0  0  0  0  0  0  0  0  0  0
   10.0636   15.4488   20.6170 C   0  0  1  0  0  0  0  0  0  0  0  0
   10.1068   15.9162   19.1939 C   0  0  0  0  0  0  0  0  0  0  0  0
   11.1807   15.0824   18.5212 C   0  0  0  0  0  0  0  0  0  0  0  0
   11.7757   14.2754   19.5227 O   0  0  0  0  0  0  0  0  0  0  0  0
   10.7472   14.1231   20.4962 C   0  0  0  0  0  0  0  0  0  0  0  0
    8.6572   15.3933   21.1579 C   0  0  0  0  0  0  0  0  0  0  0  0
    6.0576   14.7945   24.8820 C   0  0  0  0  0  0  0  0  0  0  0  0
    5.4872   13.4975   25.4689 C   0  0  0  0  0  0  0  0  0  0  0  0
    6.5940   12.5750   25.9808 C   0  0  0  0  0  0  0  0  0  0  0  0
    7.7228   13.2979   26.6077 N   0  0  0  0  0  0  0  0  0  0  0  0
    9.3261   13.2909   26.0872 S   0  0  0  0  0  0  0  0  0  0  0  0
    9.4646   14.1545   24.9552 O   0  0  0  0  0  0  0  0  0  0  0  0
   10.1533   13.5667   27.2365 O   0  0  0  0  0  0  0  0  0  0  0  0
    9.7043   11.7445   25.5512 N   0  0  0  0  0  0  0  0  0  0  0  0
   11.1584   11.5805   25.3134 C   0  0  0  0  0  0  0  0  0  0  0  0
   11.4447   10.0810   25.1783 C   0  0  0  0  0  0  0  0  0  0  0  0
   10.5067    9.3426   24.2343 C   0  0  0  0  0  0  0  0  0  0  0  0
    9.6579   10.3136   23.4640 C   0  0  0  0  0  0  0  0  0  0  0  0
    8.9031   11.1952   24.4258 C   0  0  0  0  0  0  0  0  0  0  0  0
    7.2881   14.6163   27.1387 C   0  0  0  0  0  0  0  0  0  0  0  0
    6.8206   15.5314   26.0004 C   0  0  0  0  0  0  0  0  0  0  0  0
  1  2  2  0
  2  3  1  0
  4  3  1  1
  4  5  1  0
  5  6  1  0
  7  6  1  0
  7  8  1  6
  8  9  1  0
  9 10  1  0
 10 11  1  0
  7 12  1  0
  2 13  1  0
 13 14  1  0
 14 15  1  0
 15 16  1  0
 16 17  1  0
 17 18  2  0
 17 19  2  0
 17 20  1  0
 20 21  1  0
 21 22  1  0
 22 23  1  0
 23 24  1  0
 24 25  1  0
 16 26  1  0
 26 27  1  0
 12  4  1  0
 27 13  1  0
 11  7  1  0
 25 20  1  0
M  END
>  <energy_score>  (2572) 
-22.240558

>  <inchikey>  (2572) 
None

>  <smiles>  (2572) 
None

>  <ref_pdb>  (2572) 
A4706a

>  <alias>  (2572) 
None

>  <HIPPO Pose ID>  (2572) 
500216

>  <name>  (2572) 
P500216

>  <HIPPO Compound ID>  (2572) 
314592

>  <ref_mols>  (2572) 
A4706a,A0875a

>  <distance_score>  (2572) 
1.941695

>  <inspiration_score>  (2572) 
None

$$$$
P500217
     RDKit          3D

 27 30  0  0  0  0  0  0  0  0999 V2000
    6.0768   13.2954   22.0311 O   0  0  0  0  0  0  0  0  0  0  0  0
    6.6079   14.1817   22.6902 C   0  0  0  0  0  0  0  0  0  0  0  0
    6.8295   15.4370   22.2079 O   0  0  0  0  0  0  0  0  0  0  0  0
    8.2051   15.7979   21.9819 C   0  0  2  0  0  0  0  0  0  0  0  0
    8.4027   17.1438   21.2984 C   0  0  0  0  0  0  0  0  0  0  0  0
    9.6321   17.0669   20.5788 O   0  0  0  0  0  0  0  0  0  0  0  0
    9.9857   15.6992   20.4147 C   0  0  2  0  0  0  0  0  0  0  0  0
   11.2976   15.3923   21.0994 C   0  0  0  0  0  0  0  0  0  0  0  0
   11.9546   14.4027   20.1662 C   0  0  0  0  0  0  0  0  0  0  0  0
   11.1483   14.2461   19.0016 O   0  0  0  0  0  0  0  0  0  0  0  0
   10.3034   15.3876   18.9656 C   0  0  0  0  0  0  0  0  0  0  0  0
    8.8583   14.8600   20.9923 C   0  0  0  0  0  0  0  0  0  0  0  0
    7.0938   13.9626   24.0983 C   0  0  0  0  0  0  0  0  0  0  0  0
    7.3722   12.4985   24.4318 C   0  0  0  0  0  0  0  0  0  0  0  0
    8.0644   12.3583   25.7869 C   0  0  0  0  0  0  0  0  0  0  0  0
    7.9462   13.5789   26.6033 N   0  0  0  0  0  0  0  0  0  0  0  0
    9.1103   14.8034   26.7135 S   0  0  0  0  0  0  0  0  0  0  0  0
    9.2321   15.0971   28.1203 O   0  0  0  0  0  0  0  0  0  0  0  0
    8.7213   15.8309   25.7845 O   0  0  0  0  0  0  0  0  0  0  0  0
   10.5740   14.1721   26.1629 N   0  0  0  0  0  0  0  0  0  0  0  0
   10.7531   13.9757   24.7196 C   0  0  0  0  0  0  0  0  0  0  0  0
   12.0719   13.3275   24.3466 C   0  0  0  0  0  0  0  0  0  0  0  0
   12.4325   12.1668   25.2534 C   0  0  0  0  0  0  0  0  0  0  0  0
   12.5501   12.6819   26.6630 C   0  0  0  0  0  0  0  0  0  0  0  0
   11.2476   13.3058   27.1168 C   0  0  0  0  0  0  0  0  0  0  0  0
    6.5443   14.1078   26.5750 C   0  0  0  0  0  0  0  0  0  0  0  0
    6.1651   14.5642   25.1549 C   0  0  0  0  0  0  0  0  0  0  0  0
  1  2  2  0
  2  3  1  0
  4  3  1  6
  4  5  1  0
  5  6  1  0
  7  6  1  0
  7  8  1  1
  8  9  1  0
  9 10  1  0
 10 11  1  0
  7 12  1  0
  2 13  1  0
 13 14  1  0
 14 15  1  0
 15 16  1  0
 16 17  1  0
 17 18  2  0
 17 19  2  0
 17 20  1  0
 20 21  1  0
 21 22  1  0
 22 23  1  0
 23 24  1  0
 24 25  1  0
 16 26  1  0
 26 27  1  0
 12  4  1  0
 27 13  1  0
 11  7  1  0
 25 20  1  0
M  END
>  <energy_score>  (2573) 
-35.042616

>  <inchikey>  (2573) 
None

>  <smiles>  (2573) 
None

>  <ref_pdb>  (2573) 
A4706a

>  <alias>  (2573) 
None

>  <HIPPO Pose ID>  (2573) 
500217

>  <name>  (2573) 
P500217

>  <HIPPO Compound ID>  (2573) 
314592

>  <ref_mols>  (2573) 
A4706a,A0875a

>  <distance_score>  (2573) 
1.928272

>  <inspiration_score>  (2573) 
None

$$$$
P500218
     RDKit          3D

 27 30  0  0  0  0  0  0  0  0999 V2000
    7.9289   11.8280   23.3134 O   0  0  0  0  0  0  0  0  0  0  0  0
    7.7424   13.0377   23.4658 C   0  0  0  0  0  0  0  0  0  0  0  0
    8.7473   13.7969   23.0491 O   0  0  0  0  0  0  0  0  0  0  0  0
    8.9571   15.2103   22.9428 C   0  0  1  0  0  0  0  0  0  0  0  0
   10.4633   15.5376   23.0241 C   0  0  0  0  0  0  0  0  0  0  0  0
   10.8172   16.1645   21.7827 O   0  0  0  0  0  0  0  0  0  0  0  0
    9.9181   15.5928   20.8365 C   0  0  2  0  0  0  0  0  0  0  0  0
   10.5220   14.2757   20.4754 C   0  0  0  0  0  0  0  0  0  0  0  0
   11.5897   14.6978   19.5000 C   0  0  0  0  0  0  0  0  0  0  0  0
   11.0591   15.8013   18.7754 O   0  0  0  0  0  0  0  0  0  0  0  0
    9.8916   16.2361   19.4752 C   0  0  0  0  0  0  0  0  0  0  0  0
    8.5789   15.6028   21.5403 C   0  0  0  0  0  0  0  0  0  0  0  0
    6.4280   13.4537   24.1174 C   0  0  0  0  0  0  0  0  0  0  0  0
    6.2015   12.4837   25.3319 C   0  0  0  0  0  0  0  0  0  0  0  0
    7.1877   12.7622   26.4879 C   0  0  0  0  0  0  0  0  0  0  0  0
    7.9363   13.9648   26.0975 N   0  0  0  0  0  0  0  0  0  0  0  0
    9.4270   14.3695   26.6888 S   0  0  0  0  0  0  0  0  0  0  0  0
    9.3023   14.6015   28.1004 O   0  0  0  0  0  0  0  0  0  0  0  0
    9.9203   15.4021   25.8107 O   0  0  0  0  0  0  0  0  0  0  0  0
   10.4442   13.0358   26.4671 N   0  0  0  0  0  0  0  0  0  0  0  0
   11.8640   13.4892   26.6003 C   0  0  0  0  0  0  0  0  0  0  0  0
   12.8471   12.3396   26.4919 C   0  0  0  0  0  0  0  0  0  0  0  0
   12.5677   11.4954   25.2620 C   0  0  0  0  0  0  0  0  0  0  0  0
   11.0875   11.1156   25.1080 C   0  0  0  0  0  0  0  0  0  0  0  0
   10.2489   12.3439   25.1969 C   0  0  0  0  0  0  0  0  0  0  0  0
    7.0054   15.1105   25.9316 C   0  0  0  0  0  0  0  0  0  0  0  0
    6.2227   14.8701   24.6426 C   0  0  0  0  0  0  0  0  0  0  0  0
  1  2  2  0
  2  3  1  0
  4  3  1  6
  4  5  1  0
  5  6  1  0
  7  6  1  0
  7  8  1  6
  8  9  1  0
  9 10  1  0
 10 11  1  0
  7 12  1  0
  2 13  1  0
 13 14  1  0
 14 15  1  0
 15 16  1  0
 16 17  1  0
 17 18  2  0
 17 19  2  0
 17 20  1  0
 20 21  1  0
 21 22  1  0
 22 23  1  0
 23 24  1  0
 24 25  1  0
 16 26  1  0
 26 27  1  0
 12  4  1  0
 27 13  1  0
 11  7  1  0
 25 20  1  0
M  END
>  <energy_score>  (2574) 
-17.269122

>  <inchikey>  (2574) 
None

>  <smiles>  (2574) 
None

>  <ref_pdb>  (2574) 
A4706a

>  <alias>  (2574) 
None

>  <HIPPO Pose ID>  (2574) 
500218

>  <name>  (2574) 
P500218

>  <HIPPO Compound ID>  (2574) 
314592

>  <ref_mols>  (2574) 
A4706a,A0875a

>  <distance_score>  (2574) 
1.623139

>  <inspiration_score>  (2574) 
None

$$$$
P500219
     RDKit          3D

 27 30  0  0  0  0  0  0  0  0999 V2000
    6.6161   13.4198   21.9361 O   0  0  0  0  0  0  0  0  0  0  0  0
    6.8326   14.3815   22.6794 C   0  0  0  0  0  0  0  0  0  0  0  0
    7.8794   15.2638   22.5149 O   0  0  0  0  0  0  0  0  0  0  0  0
    8.6463   15.0052   21.3037 C   0  0  2  0  0  0  0  0  0  0  0  0
    9.4125   13.7498   21.3935 C   0  0  0  0  0  0  0  0  0  0  0  0
    9.7180   13.5233   20.0504 O   0  0  0  0  0  0  0  0  0  0  0  0
   10.5794   14.3432   19.2597 C   0  0  0  0  0  0  0  0  0  0  0  0
   10.0656   15.7432   19.3567 C   0  0  0  0  0  0  0  0  0  0  0  0
    9.8230   15.9152   20.8361 C   0  0  0  0  0  0  0  0  0  0  0  0
   11.2971   15.7455   21.4890 C   0  0  0  0  0  0  0  0  0  0  0  0
   10.6616   16.3822   22.6644 C   0  0  0  0  0  0  0  0  0  0  0  0
    9.7718   17.2008   21.5706 C   0  0  0  0  0  0  0  0  0  0  0  0
    5.8984   14.5955   23.8666 C   0  0  0  0  0  0  0  0  0  0  0  0
    5.8342   13.2905   24.7069 C   0  0  0  0  0  0  0  0  0  0  0  0
    7.0896   13.0458   25.5539 C   0  0  0  0  0  0  0  0  0  0  0  0
    7.9347   14.2472   25.4413 N   0  0  0  0  0  0  0  0  0  0  0  0
    9.5207   14.2174   25.9012 S   0  0  0  0  0  0  0  0  0  0  0  0
    9.6715   13.3603   27.0429 O   0  0  0  0  0  0  0  0  0  0  0  0
    9.9841   15.5834   25.9548 O   0  0  0  0  0  0  0  0  0  0  0  0
   10.3760   13.5360   24.6390 N   0  0  0  0  0  0  0  0  0  0  0  0
   10.1225   12.1686   24.1675 C   0  0  0  0  0  0  0  0  0  0  0  0
   10.6851   11.1612   25.1395 C   0  0  0  0  0  0  0  0  0  0  0  0
   12.1144   11.5226   25.5788 C   0  0  0  0  0  0  0  0  0  0  0  0
   12.7016   12.6555   24.7930 C   0  0  0  0  0  0  0  0  0  0  0  0
   11.8185   13.8640   24.7712 C   0  0  0  0  0  0  0  0  0  0  0  0
    7.1633   15.4357   25.8815 C   0  0  0  0  0  0  0  0  0  0  0  0
    6.2019   15.7921   24.7588 C   0  0  0  0  0  0  0  0  0  0  0  0
  1  2  2  0
  2  3  1  0
  4  3  1  1
  4  5  1  0
  5  6  1  0
  6  7  1  0
  7  8  1  0
  8  9  1  0
  9 10  1  0
 10 11  1  0
 11 12  1  0
  2 13  1  0
 13 14  1  0
 14 15  1  0
 15 16  1  0
 16 17  1  0
 17 18  2  0
 17 19  2  0
 17 20  1  0
 20 21  1  0
 21 22  1  0
 22 23  1  0
 23 24  1  0
 24 25  1  0
 16 26  1  0
 26 27  1  0
  9  4  1  0
 27 13  1  0
 12  9  1  0
 25 20  1  0
M  END
>  <energy_score>  (2575) 
-6.655529

>  <inchikey>  (2575) 
None

>  <smiles>  (2575) 
None

>  <ref_pdb>  (2575) 
A4706a

>  <alias>  (2575) 
None

>  <HIPPO Pose ID>  (2575) 
500219

>  <name>  (2575) 
P500219

>  <HIPPO Compound ID>  (2575) 
314593

>  <ref_mols>  (2575) 
A4706a,A0875a

>  <distance_score>  (2575) 
1.632371

>  <inspiration_score>  (2575) 
None

$$$$
P500220
     RDKit          3D

 27 30  0  0  0  0  0  0  0  0999 V2000
    6.7659   13.4551   21.8348 O   0  0  0  0  0  0  0  0  0  0  0  0
    7.2552   14.2169   22.6539 C   0  0  0  0  0  0  0  0  0  0  0  0
    8.0612   15.2925   22.4070 O   0  0  0  0  0  0  0  0  0  0  0  0
    8.8063   15.3459   21.1732 C   0  0  1  0  0  0  0  0  0  0  0  0
    8.9629   16.7988   20.6919 C   0  0  0  0  0  0  0  0  0  0  0  0
    9.6224   16.8785   19.4201 O   0  0  0  0  0  0  0  0  0  0  0  0
   10.3020   15.6946   18.9909 C   0  0  0  0  0  0  0  0  0  0  0  0
   11.0881   15.0168   20.0876 C   0  0  0  0  0  0  0  0  0  0  0  0
   10.2664   14.9030   21.3788 C   0  0  0  0  0  0  0  0  0  0  0  0
   10.9119   15.7039   22.5553 C   0  0  0  0  0  0  0  0  0  0  0  0
   11.6999   14.4745   22.9113 C   0  0  0  0  0  0  0  0  0  0  0  0
   10.6291   13.6403   22.1913 C   0  0  0  0  0  0  0  0  0  0  0  0
    7.1409   14.0430   24.1451 C   0  0  0  0  0  0  0  0  0  0  0  0
    6.6634   12.7036   24.7023 C   0  0  0  0  0  0  0  0  0  0  0  0
    7.0211   12.5864   26.1997 C   0  0  0  0  0  0  0  0  0  0  0  0
    7.5570   13.8571   26.7379 N   0  0  0  0  0  0  0  0  0  0  0  0
    9.1710   14.3610   26.7685 S   0  0  0  0  0  0  0  0  0  0  0  0
    9.3929   14.8900   28.0886 O   0  0  0  0  0  0  0  0  0  0  0  0
    9.4447   15.2033   25.6243 O   0  0  0  0  0  0  0  0  0  0  0  0
   10.2025   13.0011   26.6074 N   0  0  0  0  0  0  0  0  0  0  0  0
   11.6202   13.5004   26.8045 C   0  0  0  0  0  0  0  0  0  0  0  0
   12.6787   12.4367   26.5604 C   0  0  0  0  0  0  0  0  0  0  0  0
   12.4389   11.6383   25.2951 C   0  0  0  0  0  0  0  0  0  0  0  0
   10.9853   11.2110   25.1055 C   0  0  0  0  0  0  0  0  0  0  0  0
   10.0731   12.3713   25.2962 C   0  0  0  0  0  0  0  0  0  0  0  0
    6.6057   14.9720   26.4420 C   0  0  0  0  0  0  0  0  0  0  0  0
    6.5075   15.1937   24.9221 C   0  0  0  0  0  0  0  0  0  0  0  0
  1  2  2  0
  2  3  1  0
  4  3  1  1
  4  5  1  0
  5  6  1  0
  6  7  1  0
  7  8  1  0
  8  9  1  0
  9 10  1  0
 10 11  1  0
 11 12  1  0
  2 13  1  0
 13 14  1  0
 14 15  1  0
 15 16  1  0
 16 17  1  0
 17 18  2  0
 17 19  2  0
 17 20  1  0
 20 21  1  0
 21 22  1  0
 22 23  1  0
 23 24  1  0
 24 25  1  0
 16 26  1  0
 26 27  1  0
  9  4  1  0
 27 13  1  0
 12  9  1  0
 25 20  1  0
M  END
>  <energy_score>  (2576) 
-29.177503

>  <inchikey>  (2576) 
None

>  <smiles>  (2576) 
None

>  <ref_pdb>  (2576) 
A4706a

>  <alias>  (2576) 
None

>  <HIPPO Pose ID>  (2576) 
500220

>  <name>  (2576) 
P500220

>  <HIPPO Compound ID>  (2576) 
314593

>  <ref_mols>  (2576) 
A4706a,A0875a

>  <distance_score>  (2576) 
1.666867

>  <inspiration_score>  (2576) 
None

$$$$
P500221
     RDKit          3D

 27 30  0  0  0  0  0  0  0  0999 V2000
    9.3180   11.9623   23.1194 N   0  0  0  0  0  0  0  0  0  0  0  0
    9.8915   13.2004   22.5773 C   0  0  0  0  0  0  0  0  0  0  0  0
    9.0210   14.4529   22.3058 C   0  0  2  0  0  0  0  0  0  0  0  0
    7.9802   14.5982   23.3190 O   0  0  0  0  0  0  0  0  0  0  0  0
    6.9680   13.6857   23.3069 C   0  0  0  0  0  0  0  0  0  0  0  0
    6.7180   12.9427   22.3587 O   0  0  0  0  0  0  0  0  0  0  0  0
    6.1805   13.5132   24.5859 C   0  0  0  0  0  0  0  0  0  0  0  0
    6.7069   12.2849   25.3564 C   0  0  0  0  0  0  0  0  0  0  0  0
    7.8330   12.6164   26.3431 C   0  0  0  0  0  0  0  0  0  0  0  0
    8.4584   13.8781   25.9384 N   0  0  0  0  0  0  0  0  0  0  0  0
    9.9201   14.3728   26.5633 S   0  0  0  0  0  0  0  0  0  0  0  0
   10.4546   15.3615   25.6529 O   0  0  0  0  0  0  0  0  0  0  0  0
    9.6307   14.7272   27.9324 O   0  0  0  0  0  0  0  0  0  0  0  0
   11.0693   13.1003   26.6522 N   0  0  0  0  0  0  0  0  0  0  0  0
   12.1715   13.5986   27.5435 C   0  0  0  0  0  0  0  0  0  0  0  0
   13.3913   12.6890   27.5967 C   0  0  0  0  0  0  0  0  0  0  0  0
   13.9168   12.2860   26.2413 C   0  0  0  0  0  0  0  0  0  0  0  0
   12.7912   11.7771   25.3854 C   0  0  0  0  0  0  0  0  0  0  0  0
   11.5978   12.7066   25.3323 C   0  0  0  0  0  0  0  0  0  0  0  0
    7.4777   15.0233   26.1051 C   0  0  0  0  0  0  0  0  0  0  0  0
    6.1410   14.7457   25.4523 C   0  0  0  0  0  0  0  0  0  0  0  0
    8.4197   14.4661   20.9046 C   0  0  0  0  0  0  0  0  0  0  0  0
    9.3887   14.7487   19.9094 O   0  0  0  0  0  0  0  0  0  0  0  0
   10.2444   15.8364   20.2544 C   0  0  2  0  0  0  0  0  0  0  0  0
   11.2541   15.5105   21.3878 C   0  0  0  0  0  0  0  0  0  0  0  0
    9.9970   15.6752   22.3262 C   0  0  1  0  0  0  0  0  0  0  0  0
    9.6123   16.8059   21.2879 C   0  0  0  0  0  0  0  0  0  0  0  0
  1  2  1  0
  3  2  1  1
  3  4  1  0
  4  5  1  0
  5  6  2  0
  5  7  1  0
  7  8  1  0
  8  9  1  0
  9 10  1  0
 10 11  1  0
 11 12  2  0
 11 13  2  0
 11 14  1  0
 14 15  1  0
 15 16  1  0
 16 17  1  0
 17 18  1  0
 18 19  1  0
 10 20  1  0
 20 21  1  0
  3 22  1  0
 22 23  1  0
 23 24  1  0
 24 25  1  1
 26 25  1  6
 26 27  1  0
 26  3  1  0
 21  7  1  0
 27 24  1  0
 19 14  1  0
M  END
>  <energy_score>  (2577) 
-60.472751

>  <inchikey>  (2577) 
None

>  <smiles>  (2577) 
None

>  <ref_pdb>  (2577) 
A4706a

>  <alias>  (2577) 
None

>  <HIPPO Pose ID>  (2577) 
500221

>  <name>  (2577) 
P500221

>  <HIPPO Compound ID>  (2577) 
314594

>  <ref_mols>  (2577) 
A0875a,A4706a

>  <distance_score>  (2577) 
1.824066

>  <inspiration_score>  (2577) 
None

$$$$
P500222
     RDKit          3D

 27 30  0  0  0  0  0  0  0  0999 V2000
   10.3893   13.0050   21.9262 N   0  0  0  0  0  0  0  0  0  0  0  0
    9.7839   13.7287   20.7718 C   0  0  2  0  0  0  0  0  0  0  0  0
   10.7026   14.2426   19.5589 C   0  0  0  0  0  0  0  0  0  0  0  0
   10.5795   15.6524   19.6633 O   0  0  0  0  0  0  0  0  0  0  0  0
   10.2648   15.7787   21.0459 C   0  0  0  0  0  0  0  0  0  0  0  0
   10.0493   17.0361   21.7336 C   0  0  0  0  0  0  0  0  0  0  0  0
   10.7980   16.2760   22.9455 C   0  0  0  0  0  0  0  0  0  0  0  0
   11.6076   15.6195   21.8855 C   0  0  0  0  0  0  0  0  0  0  0  0
    9.0303   14.9188   21.2309 C   0  0  2  0  0  0  0  0  0  0  0  0
    8.3635   14.8323   22.5337 O   0  0  0  0  0  0  0  0  0  0  0  0
    7.3220   13.9664   22.6291 C   0  0  0  0  0  0  0  0  0  0  0  0
    7.0643   13.1117   21.7867 O   0  0  0  0  0  0  0  0  0  0  0  0
    6.4125   14.0447   23.8434 C   0  0  0  0  0  0  0  0  0  0  0  0
    6.5635   12.8085   24.7611 C   0  0  0  0  0  0  0  0  0  0  0  0
    7.7791   12.8510   25.6914 C   0  0  0  0  0  0  0  0  0  0  0  0
    8.3420   14.2084   25.6615 N   0  0  0  0  0  0  0  0  0  0  0  0
    9.6521   14.5640   26.6148 S   0  0  0  0  0  0  0  0  0  0  0  0
    9.1965   14.5031   27.9795 O   0  0  0  0  0  0  0  0  0  0  0  0
   10.2424   15.7673   26.0843 O   0  0  0  0  0  0  0  0  0  0  0  0
   10.8061   13.3396   26.4189 N   0  0  0  0  0  0  0  0  0  0  0  0
   11.9523   13.6820   27.3239 C   0  0  0  0  0  0  0  0  0  0  0  0
   13.1247   12.7150   27.2118 C   0  0  0  0  0  0  0  0  0  0  0  0
   13.5402   12.4278   25.7874 C   0  0  0  0  0  0  0  0  0  0  0  0
   12.3254   12.1777   24.9276 C   0  0  0  0  0  0  0  0  0  0  0  0
   11.2701   13.2465   25.0252 C   0  0  0  0  0  0  0  0  0  0  0  0
    7.2675   15.2232   25.8800 C   0  0  0  0  0  0  0  0  0  0  0  0
    6.4629   15.3546   24.6084 C   0  0  0  0  0  0  0  0  0  0  0  0
  2  1  1  1
  2  3  1  0
  3  4  1  0
  4  5  1  0
  5  6  1  0
  6  7  1  0
  7  8  1  0
  5  9  1  0
  9 10  1  1
 10 11  1  0
 11 12  2  0
 11 13  1  0
 13 14  1  0
 14 15  1  0
 15 16  1  0
 16 17  1  0
 17 18  2  0
 17 19  2  0
 17 20  1  0
 20 21  1  0
 21 22  1  0
 22 23  1  0
 23 24  1  0
 24 25  1  0
 16 26  1  0
 26 27  1  0
  9  2  1  0
 27 13  1  0
  8  5  1  0
 25 20  1  0
M  END
>  <energy_score>  (2578) 
-17.626456

>  <inchikey>  (2578) 
None

>  <smiles>  (2578) 
None

>  <ref_pdb>  (2578) 
A4706a

>  <alias>  (2578) 
None

>  <HIPPO Pose ID>  (2578) 
500222

>  <name>  (2578) 
P500222

>  <HIPPO Compound ID>  (2578) 
314595

>  <ref_mols>  (2578) 
A4706a,A0875a

>  <distance_score>  (2578) 
1.714168

>  <inspiration_score>  (2578) 
None

$$$$
P500223
     RDKit          3D

 27 30  0  0  0  0  0  0  0  0999 V2000
    7.5402   14.2366   20.8762 N   0  0  0  0  0  0  0  0  0  0  0  0
    8.3571   15.4707   20.9318 C   0  0  2  0  0  0  0  0  0  0  0  0
    9.3823   15.6393   19.7967 C   0  0  0  0  0  0  0  0  0  0  0  0
   10.4985   14.8974   20.2168 O   0  0  0  0  0  0  0  0  0  0  0  0
   10.5322   14.8844   21.6589 C   0  0  0  0  0  0  0  0  0  0  0  0
   11.1805   13.6306   22.2355 C   0  0  0  0  0  0  0  0  0  0  0  0
   11.8793   14.5430   23.2432 C   0  0  0  0  0  0  0  0  0  0  0  0
   11.7726   15.6432   22.1975 C   0  0  0  0  0  0  0  0  0  0  0  0
    9.1859   15.4422   22.1913 C   0  0  2  0  0  0  0  0  0  0  0  0
    8.4601   14.6822   23.2301 O   0  0  0  0  0  0  0  0  0  0  0  0
    7.2753   15.2053   23.6871 C   0  0  0  0  0  0  0  0  0  0  0  0
    6.7885   16.2450   23.2535 O   0  0  0  0  0  0  0  0  0  0  0  0
    6.5396   14.4529   24.8212 C   0  0  0  0  0  0  0  0  0  0  0  0
    6.4726   12.9192   24.7551 C   0  0  0  0  0  0  0  0  0  0  0  0
    7.0897   12.1740   25.9475 C   0  0  0  0  0  0  0  0  0  0  0  0
    8.2099   12.9544   26.5490 N   0  0  0  0  0  0  0  0  0  0  0  0
    9.4889   13.2415   25.4956 S   0  0  0  0  0  0  0  0  0  0  0  0
    9.1886   12.4307   24.3397 O   0  0  0  0  0  0  0  0  0  0  0  0
    9.6721   14.6733   25.4486 O   0  0  0  0  0  0  0  0  0  0  0  0
   10.8851   12.5532   26.1896 N   0  0  0  0  0  0  0  0  0  0  0  0
   11.7872   13.5109   26.8653 C   0  0  0  0  0  0  0  0  0  0  0  0
   13.2648   13.1561   26.7516 C   0  0  0  0  0  0  0  0  0  0  0  0
   13.5744   11.7087   26.7400 C   0  0  0  0  0  0  0  0  0  0  0  0
   12.9530   11.1760   25.4804 C   0  0  0  0  0  0  0  0  0  0  0  0
   11.5157   11.6138   25.2293 C   0  0  0  0  0  0  0  0  0  0  0  0
    7.6404   14.1686   27.1880 C   0  0  0  0  0  0  0  0  0  0  0  0
    6.8827   15.0558   26.1949 C   0  0  0  0  0  0  0  0  0  0  0  0
  2  1  1  6
  2  3  1  0
  3  4  1  0
  4  5  1  0
  5  6  1  0
  6  7  1  0
  7  8  1  0
  5  9  1  0
  9 10  1  1
 10 11  1  0
 11 12  2  0
 11 13  1  0
 13 14  1  0
 14 15  1  0
 15 16  1  0
 16 17  1  0
 17 18  2  0
 17 19  2  0
 17 20  1  0
 20 21  1  0
 21 22  1  0
 22 23  1  0
 23 24  1  0
 24 25  1  0
 16 26  1  0
 26 27  1  0
  9  2  1  0
 27 13  1  0
  8  5  1  0
 25 20  1  0
M  END
>  <energy_score>  (2579) 
-11.135565

>  <inchikey>  (2579) 
None

>  <smiles>  (2579) 
None

>  <ref_pdb>  (2579) 
A4706a

>  <alias>  (2579) 
None

>  <HIPPO Pose ID>  (2579) 
500223

>  <name>  (2579) 
P500223

>  <HIPPO Compound ID>  (2579) 
314595

>  <ref_mols>  (2579) 
A4706a,A0875a

>  <distance_score>  (2579) 
1.786591

>  <inspiration_score>  (2579) 
None

$$$$
P500224
     RDKit          3D

 27 30  0  0  0  0  0  0  0  0999 V2000
    9.0951   15.5508   18.0916 N   0  0  0  0  0  0  0  0  0  0  0  0
    9.9782   14.8749   19.0078 C   0  0  1  0  0  0  0  0  0  0  0  0
   11.4071   15.1468   18.6681 C   0  0  0  0  0  0  0  0  0  0  0  0
   12.0425   14.7091   19.8468 O   0  0  0  0  0  0  0  0  0  0  0  0
   11.1835   14.9813   20.9759 C   0  0  0  0  0  0  0  0  0  0  0  0
   11.2930   14.0260   22.1638 C   0  0  0  0  0  0  0  0  0  0  0  0
   11.1662   15.2774   23.0389 C   0  0  0  0  0  0  0  0  0  0  0  0
   11.7909   16.0451   21.8990 C   0  0  0  0  0  0  0  0  0  0  0  0
    9.7468   15.2231   20.4848 C   0  0  2  0  0  0  0  0  0  0  0  0
    8.8137   14.3083   21.1861 O   0  0  0  0  0  0  0  0  0  0  0  0
    7.8553   14.8436   22.0089 C   0  0  0  0  0  0  0  0  0  0  0  0
    7.1317   15.7727   21.6955 O   0  0  0  0  0  0  0  0  0  0  0  0
    7.8509   14.2301   23.4210 C   0  0  0  0  0  0  0  0  0  0  0  0
    7.5429   12.7629   23.6161 C   0  0  0  0  0  0  0  0  0  0  0  0
    7.8642   12.2498   25.0286 C   0  0  0  0  0  0  0  0  0  0  0  0
    7.9886   13.3404   26.0032 N   0  0  0  0  0  0  0  0  0  0  0  0
    9.4249   14.0841   26.4567 S   0  0  0  0  0  0  0  0  0  0  0  0
    9.2172   14.5258   27.8132 O   0  0  0  0  0  0  0  0  0  0  0  0
    9.8027   15.0711   25.4790 O   0  0  0  0  0  0  0  0  0  0  0  0
   10.6808   12.9288   26.4924 N   0  0  0  0  0  0  0  0  0  0  0  0
   11.8525   13.5427   27.2152 C   0  0  0  0  0  0  0  0  0  0  0  0
   13.0974   12.6487   27.2215 C   0  0  0  0  0  0  0  0  0  0  0  0
   13.5013   12.1448   25.8484 C   0  0  0  0  0  0  0  0  0  0  0  0
   12.5153   12.6427   24.8300 C   0  0  0  0  0  0  0  0  0  0  0  0
   11.0778   12.3383   25.1907 C   0  0  0  0  0  0  0  0  0  0  0  0
    6.8731   14.3206   25.8104 C   0  0  0  0  0  0  0  0  0  0  0  0
    6.9995   15.0203   24.4425 C   0  0  0  0  0  0  0  0  0  0  0  0
  2  1  1  6
  2  3  1  0
  3  4  1  0
  4  5  1  0
  5  6  1  0
  6  7  1  0
  7  8  1  0
  5  9  1  0
  9 10  1  1
 10 11  1  0
 11 12  2  0
 11 13  1  0
 13 14  1  0
 14 15  1  0
 15 16  1  0
 16 17  1  0
 17 18  2  0
 17 19  2  0
 17 20  1  0
 20 21  1  0
 21 22  1  0
 22 23  1  0
 23 24  1  0
 24 25  1  0
 16 26  1  0
 26 27  1  0
  9  2  1  0
 27 13  1  0
  8  5  1  0
 25 20  1  0
M  END
>  <energy_score>  (2580) 
-13.075547

>  <inchikey>  (2580) 
None

>  <smiles>  (2580) 
None

>  <ref_pdb>  (2580) 
A4706a

>  <alias>  (2580) 
None

>  <HIPPO Pose ID>  (2580) 
500224

>  <name>  (2580) 
P500224

>  <HIPPO Compound ID>  (2580) 
314595

>  <ref_mols>  (2580) 
A0875a,A4706a

>  <distance_score>  (2580) 
1.761591

>  <inspiration_score>  (2580) 
None

$$$$
P500225
     RDKit          3D

 27 30  0  0  0  0  0  0  0  0999 V2000
    7.4211   16.0938   22.0009 C   0  0  0  0  0  0  0  0  0  0  0  0
    7.9863   14.8064   21.4187 C   0  0  2  0  0  0  0  0  0  0  0  0
    7.5565   13.6258   22.1550 O   0  0  0  0  0  0  0  0  0  0  0  0
    6.3751   13.7213   22.8371 C   0  0  0  0  0  0  0  0  0  0  0  0
    5.2808   13.7943   22.3101 O   0  0  0  0  0  0  0  0  0  0  0  0
    6.6738   13.6867   24.3077 C   0  0  0  0  0  0  0  0  0  0  0  0
    6.5357   12.3405   24.9982 C   0  0  0  0  0  0  0  0  0  0  0  0
    7.2039   12.3812   26.3781 C   0  0  0  0  0  0  0  0  0  0  0  0
    7.5964   13.7568   26.7579 N   0  0  0  0  0  0  0  0  0  0  0  0
    9.1164   14.4488   26.5057 S   0  0  0  0  0  0  0  0  0  0  0  0
    9.4506   15.1148   27.7382 O   0  0  0  0  0  0  0  0  0  0  0  0
    9.1519   15.2032   25.2729 O   0  0  0  0  0  0  0  0  0  0  0  0
   10.2031   13.1645   26.3189 N   0  0  0  0  0  0  0  0  0  0  0  0
   10.0959   12.5366   24.9877 C   0  0  0  0  0  0  0  0  0  0  0  0
   10.8975   11.2771   25.0012 C   0  0  0  0  0  0  0  0  0  0  0  0
   12.3767   11.6411   25.2126 C   0  0  0  0  0  0  0  0  0  0  0  0
   12.6167   12.5229   26.4225 C   0  0  0  0  0  0  0  0  0  0  0  0
   11.6065   13.6561   26.5169 C   0  0  0  0  0  0  0  0  0  0  0  0
    6.4564   14.7037   26.6101 C   0  0  0  0  0  0  0  0  0  0  0  0
    6.0118   14.7803   25.1420 C   0  0  0  0  0  0  0  0  0  0  0  0
    9.5304   14.8589   21.2780 C   0  0  2  0  0  0  0  0  0  0  0  0
   10.0114   14.7139   19.8263 C   0  0  0  0  0  0  0  0  0  0  0  0
   11.4730   15.0776   19.8580 C   0  0  0  0  0  0  0  0  0  0  0  0
   11.6510   15.4924   21.3147 C   0  0  2  0  0  0  0  0  0  0  0  0
   11.5637   14.2377   22.1605 C   0  0  0  0  0  0  0  0  0  0  0  0
   10.1817   13.8424   22.0752 O   0  0  0  0  0  0  0  0  0  0  0  0
   10.3065   16.1035   21.6781 C   0  0  0  0  0  0  0  0  0  0  0  0
  2  1  1  1
  2  3  1  0
  3  4  1  0
  4  5  2  0
  4  6  1  0
  6  7  1  0
  7  8  1  0
  8  9  1  0
  9 10  1  0
 10 11  2  0
 10 12  2  0
 10 13  1  0
 13 14  1  0
 14 15  1  0
 15 16  1  0
 16 17  1  0
 17 18  1  0
  9 19  1  0
 19 20  1  0
  2 21  1  0
 21 22  1  6
 22 23  1  0
 24 23  1  6
 24 25  1  0
 25 26  1  0
 24 27  1  0
 20  6  1  0
 21 26  1  0
 18 13  1  0
 27 21  1  0
M  END
>  <energy_score>  (2581) 
-26.79348

>  <inchikey>  (2581) 
None

>  <smiles>  (2581) 
None

>  <ref_pdb>  (2581) 
A4706a

>  <alias>  (2581) 
None

>  <HIPPO Pose ID>  (2581) 
500225

>  <name>  (2581) 
P500225

>  <HIPPO Compound ID>  (2581) 
314597

>  <ref_mols>  (2581) 
A4706a,A0875a

>  <distance_score>  (2581) 
1.503577

>  <inspiration_score>  (2581) 
None

$$$$
P500226
     RDKit          3D

 27 30  0  0  0  0  0  0  0  0999 V2000
    7.2256   14.3824   21.0986 C   0  0  0  0  0  0  0  0  0  0  0  0
    8.0865   15.2797   21.9489 C   0  0  1  0  0  0  0  0  0  0  0  0
    7.5773   15.2237   23.3069 O   0  0  0  0  0  0  0  0  0  0  0  0
    7.1341   14.0344   23.8021 C   0  0  0  0  0  0  0  0  0  0  0  0
    7.3418   12.9194   23.3265 O   0  0  0  0  0  0  0  0  0  0  0  0
    6.2149   14.1944   25.0035 C   0  0  0  0  0  0  0  0  0  0  0  0
    6.0873   12.8134   25.6722 C   0  0  0  0  0  0  0  0  0  0  0  0
    7.4594   12.3483   26.1691 C   0  0  0  0  0  0  0  0  0  0  0  0
    8.2197   13.4498   26.8037 N   0  0  0  0  0  0  0  0  0  0  0  0
    9.7217   13.9725   26.2418 S   0  0  0  0  0  0  0  0  0  0  0  0
   10.1904   14.8865   27.2571 O   0  0  0  0  0  0  0  0  0  0  0  0
    9.6215   14.4514   24.8954 O   0  0  0  0  0  0  0  0  0  0  0  0
   10.7386   12.6216   26.2805 N   0  0  0  0  0  0  0  0  0  0  0  0
   12.1279   12.9386   26.7220 C   0  0  0  0  0  0  0  0  0  0  0  0
   13.1637   12.6238   25.6789 C   0  0  0  0  0  0  0  0  0  0  0  0
   13.1400   11.1527   25.3317 C   0  0  0  0  0  0  0  0  0  0  0  0
   11.7043   10.5694   25.2674 C   0  0  0  0  0  0  0  0  0  0  0  0
   10.6297   11.6433   25.1627 C   0  0  0  0  0  0  0  0  0  0  0  0
    7.3365   14.5640   27.2435 C   0  0  0  0  0  0  0  0  0  0  0  0
    6.6863   15.2256   26.0313 C   0  0  0  0  0  0  0  0  0  0  0  0
    9.5862   15.0101   21.6853 C   0  0  2  0  0  0  0  0  0  0  0  0
    9.9568   14.8624   20.1932 C   0  0  0  0  0  0  0  0  0  0  0  0
   11.4661   14.9717   20.1593 C   0  0  0  0  0  0  0  0  0  0  0  0
   11.7807   15.2558   21.6241 C   0  0  2  0  0  0  0  0  0  0  0  0
   11.5013   13.9837   22.4012 C   0  0  0  0  0  0  0  0  0  0  0  0
   10.0763   13.8056   22.3092 O   0  0  0  0  0  0  0  0  0  0  0  0
   10.5892   16.0626   22.1030 C   0  0  0  0  0  0  0  0  0  0  0  0
  2  1  1  6
  2  3  1  0
  3  4  1  0
  4  5  2  0
  4  6  1  0
  6  7  1  0
  7  8  1  0
  8  9  1  0
  9 10  1  0
 10 11  2  0
 10 12  2  0
 10 13  1  0
 13 14  1  0
 14 15  1  0
 15 16  1  0
 16 17  1  0
 17 18  1  0
  9 19  1  0
 19 20  1  0
  2 21  1  0
 21 22  1  6
 22 23  1  0
 24 23  1  6
 24 25  1  0
 25 26  1  0
 24 27  1  0
 20  6  1  0
 21 26  1  0
 18 13  1  0
 27 21  1  0
M  END
>  <energy_score>  (2582) 
-27.957563

>  <inchikey>  (2582) 
None

>  <smiles>  (2582) 
None

>  <ref_pdb>  (2582) 
A4706a

>  <alias>  (2582) 
None

>  <HIPPO Pose ID>  (2582) 
500226

>  <name>  (2582) 
P500226

>  <HIPPO Compound ID>  (2582) 
314597

>  <ref_mols>  (2582) 
A0875a,A4706a

>  <distance_score>  (2582) 
1.439177

>  <inspiration_score>  (2582) 
None

$$$$
P500227
     RDKit          3D

 27 30  0  0  0  0  0  0  0  0999 V2000
    8.3447   17.5986   21.2696 C   0  0  0  0  0  0  0  0  0  0  0  0
    8.3373   16.0904   21.5403 C   0  0  2  0  0  0  0  0  0  0  0  0
    7.7925   15.8009   22.8671 O   0  0  0  0  0  0  0  0  0  0  0  0
    6.5228   15.2780   22.9380 C   0  0  0  0  0  0  0  0  0  0  0  0
    5.8490   14.9549   21.9596 O   0  0  0  0  0  0  0  0  0  0  0  0
    5.9594   15.0495   24.3747 C   0  0  0  0  0  0  0  0  0  0  0  0
    5.6197   13.5498   24.6474 C   0  0  0  0  0  0  0  0  0  0  0  0
    6.5261   12.7581   25.6123 C   0  0  0  0  0  0  0  0  0  0  0  0
    7.7296   13.5358   25.9941 N   0  0  0  0  0  0  0  0  0  0  0  0
    8.8820   13.6444   24.7688 S   0  0  0  0  0  0  0  0  0  0  0  0
    9.6702   14.8359   24.9497 O   0  0  0  0  0  0  0  0  0  0  0  0
    8.1831   13.3140   23.5513 O   0  0  0  0  0  0  0  0  0  0  0  0
    9.8320   12.3137   25.0979 N   0  0  0  0  0  0  0  0  0  0  0  0
    9.8792   11.3636   23.9677 C   0  0  0  0  0  0  0  0  0  0  0  0
   10.3025   10.0294   24.4947 C   0  0  0  0  0  0  0  0  0  0  0  0
   11.6113   10.1330   25.2493 C   0  0  0  0  0  0  0  0  0  0  0  0
   12.1547   11.5460   25.5273 C   0  0  0  0  0  0  0  0  0  0  0  0
   11.0921   12.5931   25.8044 C   0  0  0  0  0  0  0  0  0  0  0  0
    7.3074   14.8243   26.5785 C   0  0  0  0  0  0  0  0  0  0  0  0
    6.6868   15.7425   25.5325 C   0  0  0  0  0  0  0  0  0  0  0  0
    9.7404   15.5587   21.1980 C   0  0  1  0  0  0  0  0  0  0  0  0
   10.0014   15.6691   19.6705 C   0  0  0  0  0  0  0  0  0  0  0  0
   11.1857   14.7463   19.4518 C   0  0  0  0  0  0  0  0  0  0  0  0
   11.4650   14.2502   20.8687 C   0  0  1  0  0  0  0  0  0  0  0  0
   11.9761   15.3856   21.7352 C   0  0  0  0  0  0  0  0  0  0  0  0
   10.8305   16.2410   21.8656 O   0  0  0  0  0  0  0  0  0  0  0  0
   10.0749   14.1201   21.4549 C   0  0  0  0  0  0  0  0  0  0  0  0
  2  1  1  1
  2  3  1  0
  3  4  1  0
  4  5  2  0
  4  6  1  0
  6  7  1  0
  7  8  1  0
  8  9  1  0
  9 10  1  0
 10 11  2  0
 10 12  2  0
 10 13  1  0
 13 14  1  0
 14 15  1  0
 15 16  1  0
 16 17  1  0
 17 18  1  0
  9 19  1  0
 19 20  1  0
  2 21  1  0
 21 22  1  6
 22 23  1  0
 24 23  1  6
 24 25  1  0
 25 26  1  0
 24 27  1  0
 20  6  1  0
 21 26  1  0
 18 13  1  0
 27 21  1  0
M  END
>  <energy_score>  (2583) 
-28.100823

>  <inchikey>  (2583) 
None

>  <smiles>  (2583) 
None

>  <ref_pdb>  (2583) 
A4706a

>  <alias>  (2583) 
None

>  <HIPPO Pose ID>  (2583) 
500227

>  <name>  (2583) 
P500227

>  <HIPPO Compound ID>  (2583) 
314597

>  <ref_mols>  (2583) 
A4706a,A0875a

>  <distance_score>  (2583) 
1.764848

>  <inspiration_score>  (2583) 
None

$$$$
P500228
     RDKit          3D

 27 30  0  0  0  0  0  0  0  0999 V2000
    7.2460   16.0450   22.0399 C   0  0  0  0  0  0  0  0  0  0  0  0
    8.4166   15.2877   22.6314 C   0  0  1  0  0  0  0  0  0  0  0  0
    8.0521   14.0179   23.2507 O   0  0  0  0  0  0  0  0  0  0  0  0
    6.7990   13.5452   23.1763 C   0  0  0  0  0  0  0  0  0  0  0  0
    6.3044   13.1524   22.1265 O   0  0  0  0  0  0  0  0  0  0  0  0
    6.0889   13.4365   24.5184 C   0  0  0  0  0  0  0  0  0  0  0  0
    6.4482   12.1073   25.1866 C   0  0  0  0  0  0  0  0  0  0  0  0
    7.8605   12.1125   25.7373 C   0  0  0  0  0  0  0  0  0  0  0  0
    8.1369   13.3143   26.5249 N   0  0  0  0  0  0  0  0  0  0  0  0
    9.5877   14.1397   26.3892 S   0  0  0  0  0  0  0  0  0  0  0  0
    9.6620   14.9645   27.5693 O   0  0  0  0  0  0  0  0  0  0  0  0
    9.7505   14.7249   25.0900 O   0  0  0  0  0  0  0  0  0  0  0  0
   10.7794   12.9283   26.5375 N   0  0  0  0  0  0  0  0  0  0  0  0
   11.9703   13.5277   27.2236 C   0  0  0  0  0  0  0  0  0  0  0  0
   13.2087   12.6490   27.1121 C   0  0  0  0  0  0  0  0  0  0  0  0
   13.5811   12.3531   25.6706 C   0  0  0  0  0  0  0  0  0  0  0  0
   12.4531   12.7579   24.7359 C   0  0  0  0  0  0  0  0  0  0  0  0
   11.1267   12.2521   25.2544 C   0  0  0  0  0  0  0  0  0  0  0  0
    6.9601   14.1816   26.7809 C   0  0  0  0  0  0  0  0  0  0  0  0
    6.3238   14.6175   25.4675 C   0  0  0  0  0  0  0  0  0  0  0  0
    9.6777   15.1931   21.7510 C   0  0  1  0  0  0  0  0  0  0  0  0
    9.5435   15.5398   20.2598 C   0  0  0  0  0  0  0  0  0  0  0  0
   10.7945   14.9220   19.6397 C   0  0  0  0  0  0  0  0  0  0  0  0
   11.4870   14.3220   20.8627 C   0  0  1  0  0  0  0  0  0  0  0  0
   11.9771   15.4330   21.7671 C   0  0  0  0  0  0  0  0  0  0  0  0
   10.7610   16.0260   22.2535 O   0  0  0  0  0  0  0  0  0  0  0  0
   10.3354   13.8405   21.7166 C   0  0  0  0  0  0  0  0  0  0  0  0
  2  1  1  6
  2  3  1  0
  3  4  1  0
  4  5  2  0
  4  6  1  0
  6  7  1  0
  7  8  1  0
  8  9  1  0
  9 10  1  0
 10 11  2  0
 10 12  2  0
 10 13  1  0
 13 14  1  0
 14 15  1  0
 15 16  1  0
 16 17  1  0
 17 18  1  0
  9 19  1  0
 19 20  1  0
  2 21  1  0
 21 22  1  6
 22 23  1  0
 24 23  1  6
 24 25  1  0
 25 26  1  0
 24 27  1  0
 20  6  1  0
 21 26  1  0
 18 13  1  0
 27 21  1  0
M  END
>  <energy_score>  (2584) 
-29.881958

>  <inchikey>  (2584) 
None

>  <smiles>  (2584) 
None

>  <ref_pdb>  (2584) 
A4706a

>  <alias>  (2584) 
None

>  <HIPPO Pose ID>  (2584) 
500228

>  <name>  (2584) 
P500228

>  <HIPPO Compound ID>  (2584) 
314597

>  <ref_mols>  (2584) 
A4706a,A0875a

>  <distance_score>  (2584) 
1.689537

>  <inspiration_score>  (2584) 
None

$$$$
P500229
     RDKit          3D

 27 29  0  0  0  0  0  0  0  0999 V2000
    8.5551   14.8619   20.7585 C   0  0  0  0  0  0  0  0  0  0  0  0
    9.9008   15.5496   20.5153 C   0  0  0  0  0  0  0  0  0  0  0  0
    9.6870   16.4484   19.3185 C   0  0  0  0  0  0  0  0  0  0  0  0
   11.0346   14.6055   20.0710 C   0  0  0  0  0  0  0  0  0  0  0  0
   11.7097   13.8860   21.0847 O   0  0  0  0  0  0  0  0  0  0  0  0
   10.9066   13.3309   22.1123 C   0  0  0  0  0  0  0  0  0  0  0  0
   10.3884   14.3376   23.1196 C   0  0  2  0  0  0  0  0  0  0  0  0
    8.9588   14.3806   23.4317 O   0  0  0  0  0  0  0  0  0  0  0  0
    8.1646   13.2878   23.4672 C   0  0  0  0  0  0  0  0  0  0  0  0
    8.5258   12.1455   23.2013 O   0  0  0  0  0  0  0  0  0  0  0  0
    6.7118   13.5651   23.8742 C   0  0  0  0  0  0  0  0  0  0  0  0
    6.3408   12.6119   25.0410 C   0  0  0  0  0  0  0  0  0  0  0  0
    6.9931   13.0364   26.3683 C   0  0  0  0  0  0  0  0  0  0  0  0
    7.7986   14.2248   26.0789 N   0  0  0  0  0  0  0  0  0  0  0  0
    9.2850   14.5537   26.6979 S   0  0  0  0  0  0  0  0  0  0  0  0
    9.7341   15.8193   26.1771 O   0  0  0  0  0  0  0  0  0  0  0  0
    9.2420   14.3264   28.1151 O   0  0  0  0  0  0  0  0  0  0  0  0
   10.3614   13.4555   26.0389 N   0  0  0  0  0  0  0  0  0  0  0  0
   11.7372   13.7036   26.5370 C   0  0  0  0  0  0  0  0  0  0  0  0
   12.7697   13.0706   25.6176 C   0  0  0  0  0  0  0  0  0  0  0  0
   12.5163   11.5959   25.5714 C   0  0  0  0  0  0  0  0  0  0  0  0
   11.0727   11.2714   25.1869 C   0  0  0  0  0  0  0  0  0  0  0  0
   10.0084   12.0548   25.9285 C   0  0  0  0  0  0  0  0  0  0  0  0
    6.9491   15.3515   25.6602 C   0  0  0  0  0  0  0  0  0  0  0  0
    6.4179   15.0183   24.2707 C   0  0  0  0  0  0  0  0  0  0  0  0
   10.8899   15.7252   22.7750 C   0  0  0  0  0  0  0  0  0  0  0  0
   10.1660   16.3540   21.6944 N   0  0  0  0  0  0  0  0  0  0  0  0
  1  2  1  0
  2  3  1  0
  2  4  1  0
  4  5  1  0
  5  6  1  0
  6  7  1  0
  7  8  1  6
  8  9  1  0
  9 10  2  0
  9 11  1  0
 11 12  1  0
 12 13  1  0
 13 14  1  0
 14 15  1  0
 15 16  2  0
 15 17  2  0
 15 18  1  0
 18 19  1  0
 19 20  1  0
 20 21  1  0
 21 22  1  0
 22 23  1  0
 14 24  1  0
 24 25  1  0
  7 26  1  0
 26 27  1  0
 27  2  1  0
 25 11  1  0
 23 18  1  0
M  END
>  <energy_score>  (2585) 
-47.888967

>  <inchikey>  (2585) 
None

>  <smiles>  (2585) 
None

>  <ref_pdb>  (2585) 
A4706a

>  <alias>  (2585) 
None

>  <HIPPO Pose ID>  (2585) 
500229

>  <name>  (2585) 
P500229

>  <HIPPO Compound ID>  (2585) 
314598

>  <ref_mols>  (2585) 
A4706a,A0875a

>  <distance_score>  (2585) 
1.853531

>  <inspiration_score>  (2585) 
None

$$$$
P500230
     RDKit          3D

 27 29  0  0  0  0  0  0  0  0999 V2000
    7.9723   16.0596   21.5399 C   0  0  0  0  0  0  0  0  0  0  0  0
    9.3211   16.4501   20.9011 C   0  0  0  0  0  0  0  0  0  0  0  0
    9.1087   17.8885   20.4057 C   0  0  0  0  0  0  0  0  0  0  0  0
    9.6868   15.5590   19.6623 C   0  0  0  0  0  0  0  0  0  0  0  0
   10.9650   14.9236   19.5833 O   0  0  0  0  0  0  0  0  0  0  0  0
   11.4169   14.2009   20.7316 C   0  0  0  0  0  0  0  0  0  0  0  0
   10.3195   13.9186   21.7935 C   0  0  1  0  0  0  0  0  0  0  0  0
   10.4914   12.6778   22.5108 O   0  0  0  0  0  0  0  0  0  0  0  0
    9.4447   11.8976   22.9294 C   0  0  0  0  0  0  0  0  0  0  0  0
    9.4121   10.6961   22.6793 O   0  0  0  0  0  0  0  0  0  0  0  0
    8.3805   12.5184   23.8050 C   0  0  0  0  0  0  0  0  0  0  0  0
    7.9129   11.5420   24.9120 C   0  0  0  0  0  0  0  0  0  0  0  0
    7.3460   12.3065   26.1146 C   0  0  0  0  0  0  0  0  0  0  0  0
    7.6316   13.7405   25.9525 N   0  0  0  0  0  0  0  0  0  0  0  0
    9.0819   14.4493   26.4546 S   0  0  0  0  0  0  0  0  0  0  0  0
    9.1387   15.7495   25.8443 O   0  0  0  0  0  0  0  0  0  0  0  0
    9.2150   14.2940   27.8765 O   0  0  0  0  0  0  0  0  0  0  0  0
   10.3572   13.5609   25.7620 N   0  0  0  0  0  0  0  0  0  0  0  0
   10.6230   12.2692   26.3631 C   0  0  0  0  0  0  0  0  0  0  0  0
   11.5072   11.4354   25.4497 C   0  0  0  0  0  0  0  0  0  0  0  0
   12.8767   12.0619   25.4238 C   0  0  0  0  0  0  0  0  0  0  0  0
   12.6728   13.4709   24.9111 C   0  0  0  0  0  0  0  0  0  0  0  0
   11.6500   14.2764   25.7386 C   0  0  0  0  0  0  0  0  0  0  0  0
    6.9400   14.2986   24.7472 C   0  0  0  0  0  0  0  0  0  0  0  0
    7.1690   13.3784   23.5217 C   0  0  0  0  0  0  0  0  0  0  0  0
   10.4225   15.1598   22.6845 C   0  0  0  0  0  0  0  0  0  0  0  0
   10.3878   16.3895   21.9015 N   0  0  0  0  0  0  0  0  0  0  0  0
  1  2  1  0
  2  3  1  0
  2  4  1  0
  4  5  1  0
  5  6  1  0
  6  7  1  0
  7  8  1  1
  8  9  1  0
  9 10  2  0
  9 11  1  0
 11 12  1  0
 12 13  1  0
 13 14  1  0
 14 15  1  0
 15 16  2  0
 15 17  2  0
 15 18  1  0
 18 19  1  0
 19 20  1  0
 20 21  1  0
 21 22  1  0
 22 23  1  0
 14 24  1  0
 24 25  1  0
  7 26  1  0
 26 27  1  0
 27  2  1  0
 25 11  1  0
 23 18  1  0
M  END
>  <energy_score>  (2586) 
-11.020085

>  <inchikey>  (2586) 
None

>  <smiles>  (2586) 
None

>  <ref_pdb>  (2586) 
A4706a

>  <alias>  (2586) 
None

>  <HIPPO Pose ID>  (2586) 
500230

>  <name>  (2586) 
P500230

>  <HIPPO Compound ID>  (2586) 
314598

>  <ref_mols>  (2586) 
A4706a,A0875a

>  <distance_score>  (2586) 
1.824581

>  <inspiration_score>  (2586) 
None

$$$$
P500231
     RDKit          3D

 27 30  0  0  0  0  0  0  0  0999 V2000
    5.9605   16.1381   24.1061 O   0  0  0  0  0  0  0  0  0  0  0  0
    6.1660   14.9529   23.8866 C   0  0  0  0  0  0  0  0  0  0  0  0
    6.8051   14.4538   22.7954 O   0  0  0  0  0  0  0  0  0  0  0  0
    7.3497   15.3959   21.8449 C   0  0  0  0  0  0  0  0  0  0  0  0
    8.8452   15.7137   22.0299 C   0  0  2  0  0  0  0  0  0  0  0  0
    9.5240   16.4328   20.8566 C   0  0  0  0  0  0  0  0  0  0  0  0
    9.7941   15.2717   19.9368 C   0  0  1  0  0  0  0  0  0  0  0  0
   10.9536   15.2026   18.9838 C   0  0  0  0  0  0  0  0  0  0  0  0
   12.0895   14.7200   19.7035 O   0  0  0  0  0  0  0  0  0  0  0  0
   11.6577   14.3017   20.9974 C   0  0  0  0  0  0  0  0  0  0  0  0
   10.1602   14.2315   20.9497 C   0  0  1  0  0  0  0  0  0  0  0  0
    9.5842   14.5024   22.1939 O   0  0  0  0  0  0  0  0  0  0  0  0
    5.6267   13.8274   24.7746 C   0  0  0  0  0  0  0  0  0  0  0  0
    6.4648   12.5380   24.7768 C   0  0  0  0  0  0  0  0  0  0  0  0
    7.1735   12.2606   26.0894 C   0  0  0  0  0  0  0  0  0  0  0  0
    7.7530   13.4807   26.6323 N   0  0  0  0  0  0  0  0  0  0  0  0
    9.0982   14.2292   25.9716 S   0  0  0  0  0  0  0  0  0  0  0  0
    8.7394   14.8089   24.7159 O   0  0  0  0  0  0  0  0  0  0  0  0
    9.6059   15.0668   27.0253 O   0  0  0  0  0  0  0  0  0  0  0  0
   10.2561   13.0763   25.6873 N   0  0  0  0  0  0  0  0  0  0  0  0
   10.0854   12.1394   24.5670 C   0  0  0  0  0  0  0  0  0  0  0  0
   10.8487   10.9154   25.0378 C   0  0  0  0  0  0  0  0  0  0  0  0
   12.2996   11.3186   25.4559 C   0  0  0  0  0  0  0  0  0  0  0  0
   12.6352   12.7384   25.0396 C   0  0  0  0  0  0  0  0  0  0  0  0
   11.6202   13.6892   25.6593 C   0  0  0  0  0  0  0  0  0  0  0  0
    6.6966   14.4789   27.0122 C   0  0  0  0  0  0  0  0  0  0  0  0
    5.4035   14.3057   26.2124 C   0  0  0  0  0  0  0  0  0  0  0  0
  1  2  2  0
  2  3  1  0
  3  4  1  0
  5  4  1  6
  5  6  1  0
  7  6  1  1
  7  8  1  0
  8  9  1  0
  9 10  1  0
 11 10  1  1
 11 12  1  0
  2 13  1  0
 13 14  1  0
 14 15  1  0
 15 16  1  0
 16 17  1  0
 17 18  2  0
 17 19  2  0
 17 20  1  0
 20 21  1  0
 21 22  1  0
 22 23  1  0
 23 24  1  0
 24 25  1  0
 16 26  1  0
 26 27  1  0
 12  5  1  0
 27 13  1  0
 11  7  1  0
 25 20  1  0
M  END
>  <energy_score>  (2587) 
-76.704342

>  <inchikey>  (2587) 
None

>  <smiles>  (2587) 
None

>  <ref_pdb>  (2587) 
A4706a

>  <alias>  (2587) 
None

>  <HIPPO Pose ID>  (2587) 
500231

>  <name>  (2587) 
P500231

>  <HIPPO Compound ID>  (2587) 
314599

>  <ref_mols>  (2587) 
A0875a,A4706a

>  <distance_score>  (2587) 
1.954308

>  <inspiration_score>  (2587) 
None

$$$$
P500232
     RDKit          3D

 27 30  0  0  0  0  0  0  0  0999 V2000
    6.8091   12.8547   22.9479 O   0  0  0  0  0  0  0  0  0  0  0  0
    6.4610   13.8628   23.5579 C   0  0  0  0  0  0  0  0  0  0  0  0
    6.6583   15.1256   23.1153 O   0  0  0  0  0  0  0  0  0  0  0  0
    7.3247   15.2520   21.8474 C   0  0  0  0  0  0  0  0  0  0  0  0
    8.8232   14.9219   21.8481 C   0  0  1  0  0  0  0  0  0  0  0  0
    9.3722   14.6995   20.4636 C   0  0  0  0  0  0  0  0  0  0  0  0
   10.6929   15.4060   20.3738 C   0  0  2  0  0  0  0  0  0  0  0  0
   11.8659   14.4730   20.3368 C   0  0  0  0  0  0  0  0  0  0  0  0
   11.9336   13.9723   21.6818 O   0  0  0  0  0  0  0  0  0  0  0  0
   11.8344   15.1685   22.4650 C   0  0  0  0  0  0  0  0  0  0  0  0
   10.8415   16.0461   21.7327 C   0  0  2  0  0  0  0  0  0  0  0  0
    9.5723   16.0118   22.3614 O   0  0  0  0  0  0  0  0  0  0  0  0
    5.6566   13.8264   24.8539 C   0  0  0  0  0  0  0  0  0  0  0  0
    5.8786   12.4966   25.5813 C   0  0  0  0  0  0  0  0  0  0  0  0
    7.2201   12.3852   26.2912 C   0  0  0  0  0  0  0  0  0  0  0  0
    7.7257   13.6791   26.7757 N   0  0  0  0  0  0  0  0  0  0  0  0
    9.0942   14.4330   26.1408 S   0  0  0  0  0  0  0  0  0  0  0  0
    9.5372   15.3621   27.1491 O   0  0  0  0  0  0  0  0  0  0  0  0
    8.8143   14.8825   24.8086 O   0  0  0  0  0  0  0  0  0  0  0  0
   10.2298   13.2059   26.0281 N   0  0  0  0  0  0  0  0  0  0  0  0
   10.1984   12.5022   24.7219 C   0  0  0  0  0  0  0  0  0  0  0  0
   10.8869   11.1993   24.9872 C   0  0  0  0  0  0  0  0  0  0  0  0
   12.3751   11.5290   25.2488 C   0  0  0  0  0  0  0  0  0  0  0  0
   12.5892   12.5101   26.3860 C   0  0  0  0  0  0  0  0  0  0  0  0
   11.6113   13.6756   26.3287 C   0  0  0  0  0  0  0  0  0  0  0  0
    6.6276   14.6227   27.0870 C   0  0  0  0  0  0  0  0  0  0  0  0
    5.8844   15.0106   25.8101 C   0  0  0  0  0  0  0  0  0  0  0  0
  1  2  2  0
  2  3  1  0
  3  4  1  0
  5  4  1  6
  5  6  1  0
  7  6  1  1
  7  8  1  0
  8  9  1  0
  9 10  1  0
 11 10  1  1
 11 12  1  0
  2 13  1  0
 13 14  1  0
 14 15  1  0
 15 16  1  0
 16 17  1  0
 17 18  2  0
 17 19  2  0
 17 20  1  0
 20 21  1  0
 21 22  1  0
 22 23  1  0
 23 24  1  0
 24 25  1  0
 16 26  1  0
 26 27  1  0
 12  5  1  0
 27 13  1  0
 11  7  1  0
 25 20  1  0
M  END
>  <energy_score>  (2588) 
-94.747032

>  <inchikey>  (2588) 
None

>  <smiles>  (2588) 
None

>  <ref_pdb>  (2588) 
A4706a

>  <alias>  (2588) 
None

>  <HIPPO Pose ID>  (2588) 
500232

>  <name>  (2588) 
P500232

>  <HIPPO Compound ID>  (2588) 
314599

>  <ref_mols>  (2588) 
A4706a,A0875a

>  <distance_score>  (2588) 
1.734051

>  <inspiration_score>  (2588) 
None

$$$$
P500233
     RDKit          3D

 27 30  0  0  0  0  0  0  0  0999 V2000
    6.8263   13.1596   22.4705 O   0  0  0  0  0  0  0  0  0  0  0  0
    6.7519   13.9773   23.3865 C   0  0  0  0  0  0  0  0  0  0  0  0
    7.1838   15.2543   23.3248 O   0  0  0  0  0  0  0  0  0  0  0  0
    7.3976   15.8362   22.0316 C   0  0  0  0  0  0  0  0  0  0  0  0
    8.8354   15.9036   21.4865 C   0  0  2  0  0  0  0  0  0  0  0  0
    9.2582   14.7498   20.5949 C   0  0  0  0  0  0  0  0  0  0  0  0
   10.6187   14.3477   21.0947 C   0  0  2  0  0  0  0  0  0  0  0  0
   10.5749   13.2757   22.1691 C   0  0  0  0  0  0  0  0  0  0  0  0
   11.7544   13.4820   22.9497 O   0  0  0  0  0  0  0  0  0  0  0  0
   11.8998   14.9019   23.0129 C   0  0  0  0  0  0  0  0  0  0  0  0
   11.0449   15.5093   21.9379 C   0  0  2  0  0  0  0  0  0  0  0  0
    9.8305   16.0048   22.4949 O   0  0  0  0  0  0  0  0  0  0  0  0
    6.0411   13.6685   24.7108 C   0  0  0  0  0  0  0  0  0  0  0  0
    6.3018   12.2198   25.1324 C   0  0  0  0  0  0  0  0  0  0  0  0
    7.7030   11.9993   25.6684 C   0  0  0  0  0  0  0  0  0  0  0  0
    8.1133   13.0691   26.5968 N   0  0  0  0  0  0  0  0  0  0  0  0
    9.4569   13.9942   26.1662 S   0  0  0  0  0  0  0  0  0  0  0  0
    9.3481   14.3212   24.7756 O   0  0  0  0  0  0  0  0  0  0  0  0
    9.5699   15.0334   27.1605 O   0  0  0  0  0  0  0  0  0  0  0  0
   10.7764   12.9462   26.3971 N   0  0  0  0  0  0  0  0  0  0  0  0
   11.9668   13.7359   26.7926 C   0  0  0  0  0  0  0  0  0  0  0  0
   13.3286   13.1287   26.4938 C   0  0  0  0  0  0  0  0  0  0  0  0
   13.2993   11.6581   26.5155 C   0  0  0  0  0  0  0  0  0  0  0  0
   12.3694   11.2722   25.4020 C   0  0  0  0  0  0  0  0  0  0  0  0
   10.9580   11.8525   25.4334 C   0  0  0  0  0  0  0  0  0  0  0  0
    6.9678   13.9003   27.0669 C   0  0  0  0  0  0  0  0  0  0  0  0
    6.3154   14.6189   25.8879 C   0  0  0  0  0  0  0  0  0  0  0  0
  1  2  2  0
  2  3  1  0
  3  4  1  0
  5  4  1  1
  5  6  1  0
  7  6  1  1
  7  8  1  0
  8  9  1  0
  9 10  1  0
 11 10  1  1
 11 12  1  0
  2 13  1  0
 13 14  1  0
 14 15  1  0
 15 16  1  0
 16 17  1  0
 17 18  2  0
 17 19  2  0
 17 20  1  0
 20 21  1  0
 21 22  1  0
 22 23  1  0
 23 24  1  0
 24 25  1  0
 16 26  1  0
 26 27  1  0
 12  5  1  0
 27 13  1  0
 11  7  1  0
 25 20  1  0
M  END
>  <energy_score>  (2589) 
-57.498269

>  <inchikey>  (2589) 
None

>  <smiles>  (2589) 
None

>  <ref_pdb>  (2589) 
A4706a

>  <alias>  (2589) 
None

>  <HIPPO Pose ID>  (2589) 
500233

>  <name>  (2589) 
P500233

>  <HIPPO Compound ID>  (2589) 
314599

>  <ref_mols>  (2589) 
A0875a,A4706a

>  <distance_score>  (2589) 
1.673159

>  <inspiration_score>  (2589) 
None

$$$$
P500234
     RDKit          3D

 27 30  0  0  0  0  0  0  0  0999 V2000
    5.4573   16.0741   22.5098 O   0  0  0  0  0  0  0  0  0  0  0  0
    6.5413   15.7549   22.9617 C   0  0  0  0  0  0  0  0  0  0  0  0
    7.7883   16.0630   22.4926 O   0  0  0  0  0  0  0  0  0  0  0  0
    8.0164   17.0784   21.5064 C   0  0  0  0  0  0  0  0  0  0  0  0
    9.1961   16.7034   20.6235 C   0  0  2  0  0  0  0  0  0  0  0  0
    9.0508   15.3035   20.0604 C   0  0  0  0  0  0  0  0  0  0  0  0
   10.2631   14.6012   20.5132 C   0  0  1  0  0  0  0  0  0  0  0  0
   11.3478   14.7192   19.4866 C   0  0  0  0  0  0  0  0  0  0  0  0
   12.5248   14.6225   20.2502 O   0  0  0  0  0  0  0  0  0  0  0  0
   12.2695   15.2051   21.5430 C   0  0  0  0  0  0  0  0  0  0  0  0
   10.7920   15.4090   21.6484 C   0  0  1  0  0  0  0  0  0  0  0  0
   10.4186   16.7416   21.3621 O   0  0  0  0  0  0  0  0  0  0  0  0
    6.7886   14.8796   24.1652 C   0  0  0  0  0  0  0  0  0  0  0  0
    6.9989   13.4159   23.7564 C   0  0  0  0  0  0  0  0  0  0  0  0
    7.2964   12.5179   24.9590 C   0  0  0  0  0  0  0  0  0  0  0  0
    7.8126   13.3259   26.0878 N   0  0  0  0  0  0  0  0  0  0  0  0
    9.3556   14.0518   25.9111 S   0  0  0  0  0  0  0  0  0  0  0  0
    9.6397   14.3307   24.5271 O   0  0  0  0  0  0  0  0  0  0  0  0
    9.4631   15.0815   26.9133 O   0  0  0  0  0  0  0  0  0  0  0  0
   10.4363   12.8433   26.3309 N   0  0  0  0  0  0  0  0  0  0  0  0
   10.4679   11.6729   25.4232 C   0  0  0  0  0  0  0  0  0  0  0  0
   11.8624   11.0926   25.4145 C   0  0  0  0  0  0  0  0  0  0  0  0
   12.7742   12.0736   24.7531 C   0  0  0  0  0  0  0  0  0  0  0  0
   12.7932   13.3308   25.5627 C   0  0  0  0  0  0  0  0  0  0  0  0
   11.7812   13.3938   26.6993 C   0  0  0  0  0  0  0  0  0  0  0  0
    6.7101   14.2604   26.5730 C   0  0  0  0  0  0  0  0  0  0  0  0
    5.9282   14.9245   25.4083 C   0  0  0  0  0  0  0  0  0  0  0  0
  1  2  2  0
  2  3  1  0
  3  4  1  0
  5  4  1  1
  5  6  1  0
  7  6  1  6
  7  8  1  0
  8  9  1  0
  9 10  1  0
 11 10  1  6
 11 12  1  0
  2 13  1  0
 13 14  1  0
 14 15  1  0
 15 16  1  0
 16 17  1  0
 17 18  2  0
 17 19  2  0
 17 20  1  0
 20 21  1  0
 21 22  1  0
 22 23  1  0
 23 24  1  0
 24 25  1  0
 16 26  1  0
 26 27  1  0
 12  5  1  0
 27 13  1  0
 11  7  1  0
 25 20  1  0
M  END
>  <energy_score>  (2590) 
-44.240978

>  <inchikey>  (2590) 
None

>  <smiles>  (2590) 
None

>  <ref_pdb>  (2590) 
A4706a

>  <alias>  (2590) 
None

>  <HIPPO Pose ID>  (2590) 
500234

>  <name>  (2590) 
P500234

>  <HIPPO Compound ID>  (2590) 
314599

>  <ref_mols>  (2590) 
A4706a,A0875a

>  <distance_score>  (2590) 
1.978162

>  <inspiration_score>  (2590) 
None

$$$$
P500235
     RDKit          3D

 27 30  0  0  0  0  0  0  0  0999 V2000
    6.2973   13.0344   22.3728 O   0  0  0  0  0  0  0  0  0  0  0  0
    6.2587   13.7265   23.3851 C   0  0  0  0  0  0  0  0  0  0  0  0
    6.7547   14.9785   23.4795 O   0  0  0  0  0  0  0  0  0  0  0  0
    7.0742   15.6845   22.2782 C   0  0  0  0  0  0  0  0  0  0  0  0
    8.2806   15.2212   21.4491 C   0  0  1  0  0  0  0  0  0  0  0  0
    9.2323   16.3447   21.0134 C   0  0  0  0  0  0  0  0  0  0  0  0
   10.5561   15.6486   20.8230 C   0  0  1  0  0  0  0  0  0  0  0  0
   11.6000   15.9164   21.9013 C   0  0  0  0  0  0  0  0  0  0  0  0
   12.0417   14.6642   22.4404 O   0  0  0  0  0  0  0  0  0  0  0  0
   11.5181   13.6746   21.5650 C   0  0  0  0  0  0  0  0  0  0  0  0
   10.2251   14.2190   21.0703 C   0  0  1  0  0  0  0  0  0  0  0  0
    9.1490   14.2317   22.0131 O   0  0  0  0  0  0  0  0  0  0  0  0
    5.5766   13.2700   24.6861 C   0  0  0  0  0  0  0  0  0  0  0  0
    6.3286   12.0916   25.3528 C   0  0  0  0  0  0  0  0  0  0  0  0
    7.3188   12.5557   26.4279 C   0  0  0  0  0  0  0  0  0  0  0  0
    7.7212   13.8897   26.0243 N   0  0  0  0  0  0  0  0  0  0  0  0
    9.2558   14.4827   25.9742 S   0  0  0  0  0  0  0  0  0  0  0  0
    9.3701   15.3210   24.8089 O   0  0  0  0  0  0  0  0  0  0  0  0
    9.5378   15.0071   27.2882 O   0  0  0  0  0  0  0  0  0  0  0  0
   10.2847   13.1957   25.7655 N   0  0  0  0  0  0  0  0  0  0  0  0
   11.7014   13.6833   25.7921 C   0  0  0  0  0  0  0  0  0  0  0  0
   12.6561   12.7141   25.1144 C   0  0  0  0  0  0  0  0  0  0  0  0
   12.2363   11.3091   25.4619 C   0  0  0  0  0  0  0  0  0  0  0  0
   10.7672   11.0125   25.0283 C   0  0  0  0  0  0  0  0  0  0  0  0
   10.0423   12.2918   24.6413 C   0  0  0  0  0  0  0  0  0  0  0  0
    6.6744   14.8970   26.2993 C   0  0  0  0  0  0  0  0  0  0  0  0
    5.3602   14.4078   25.6952 C   0  0  0  0  0  0  0  0  0  0  0  0
  1  2  2  0
  2  3  1  0
  3  4  1  0
  5  4  1  1
  5  6  1  0
  7  6  1  1
  7  8  1  0
  8  9  1  0
  9 10  1  0
 11 10  1  1
 11 12  1  0
  2 13  1  0
 13 14  1  0
 14 15  1  0
 15 16  1  0
 16 17  1  0
 17 18  2  0
 17 19  2  0
 17 20  1  0
 20 21  1  0
 21 22  1  0
 22 23  1  0
 23 24  1  0
 24 25  1  0
 16 26  1  0
 26 27  1  0
 12  5  1  0
 27 13  1  0
 11  7  1  0
 25 20  1  0
M  END
>  <energy_score>  (2591) 
-18.290458

>  <inchikey>  (2591) 
None

>  <smiles>  (2591) 
None

>  <ref_pdb>  (2591) 
A4706a

>  <alias>  (2591) 
None

>  <HIPPO Pose ID>  (2591) 
500235

>  <name>  (2591) 
P500235

>  <HIPPO Compound ID>  (2591) 
314599

>  <ref_mols>  (2591) 
A4706a,A0875a

>  <distance_score>  (2591) 
1.963623

>  <inspiration_score>  (2591) 
None

$$$$
P500236
     RDKit          3D

 27 29  0  0  0  0  0  0  0  0999 V2000
    5.1069   15.4208   22.3990 O   0  0  0  0  0  0  0  0  0  0  0  0
    6.2843   15.3308   22.7297 C   0  0  0  0  0  0  0  0  0  0  0  0
    7.3033   15.6280   21.8725 O   0  0  0  0  0  0  0  0  0  0  0  0
    8.6581   15.1273   21.9675 C   0  0  2  0  0  0  0  0  0  0  0  0
    9.7588   16.1498   22.1134 C   0  0  0  0  0  0  0  0  0  0  0  0
   10.9464   15.6585   21.4885 O   0  0  0  0  0  0  0  0  0  0  0  0
   10.5490   14.6155   20.5908 C   0  0  2  0  0  0  0  0  0  0  0  0
   10.9835   14.8528   19.1510 C   0  0  0  0  0  0  0  0  0  0  0  0
   12.3127   14.7583   19.0165 F   0  0  0  0  0  0  0  0  0  0  0  0
   10.5767   16.0611   18.7137 F   0  0  0  0  0  0  0  0  0  0  0  0
   10.4684   13.9157   18.3276 F   0  0  0  0  0  0  0  0  0  0  0  0
    9.0424   14.5550   20.6567 C   0  0  0  0  0  0  0  0  0  0  0  0
    6.6993   14.8840   24.1033 C   0  0  0  0  0  0  0  0  0  0  0  0
    6.7722   13.3497   24.2330 C   0  0  0  0  0  0  0  0  0  0  0  0
    6.9563   12.9217   25.6890 C   0  0  0  0  0  0  0  0  0  0  0  0
    7.6577   13.9800   26.4533 N   0  0  0  0  0  0  0  0  0  0  0  0
    9.2786   14.4248   26.1545 S   0  0  0  0  0  0  0  0  0  0  0  0
    9.5995   15.4627   27.0999 O   0  0  0  0  0  0  0  0  0  0  0  0
    9.5257   14.6363   24.7530 O   0  0  0  0  0  0  0  0  0  0  0  0
   10.2266   13.0979   26.5239 N   0  0  0  0  0  0  0  0  0  0  0  0
    9.9552   11.9072   25.7069 C   0  0  0  0  0  0  0  0  0  0  0  0
   11.1039   11.3303   24.9439 C   0  0  0  0  0  0  0  0  0  0  0  0
   12.5023   11.6765   25.4034 C   0  0  0  0  0  0  0  0  0  0  0  0
   12.5726   13.1517   25.6054 C   0  0  0  0  0  0  0  0  0  0  0  0
   11.6533   13.4850   26.7590 C   0  0  0  0  0  0  0  0  0  0  0  0
    6.7173   15.1650   26.5925 C   0  0  0  0  0  0  0  0  0  0  0  0
    5.9209   15.4314   25.2930 C   0  0  0  0  0  0  0  0  0  0  0  0
  1  2  2  0
  2  3  1  0
  4  3  1  6
  4  5  1  0
  5  6  1  0
  6  7  1  0
  7  8  1  6
  8  9  1  0
  8 10  1  0
  8 11  1  0
  7 12  1  0
  2 13  1  0
 13 14  1  0
 14 15  1  0
 15 16  1  0
 16 17  1  0
 17 18  2  0
 17 19  2  0
 17 20  1  0
 20 21  1  0
 21 22  1  0
 22 23  1  0
 23 24  1  0
 24 25  1  0
 16 26  1  0
 26 27  1  0
 12  4  1  0
 27 13  1  0
 25 20  1  0
M  END
>  <energy_score>  (2592) 
-21.966219

>  <inchikey>  (2592) 
None

>  <smiles>  (2592) 
None

>  <ref_pdb>  (2592) 
A4706a

>  <alias>  (2592) 
None

>  <HIPPO Pose ID>  (2592) 
500236

>  <name>  (2592) 
P500236

>  <HIPPO Compound ID>  (2592) 
314600

>  <ref_mols>  (2592) 
A4706a,A0875a

>  <distance_score>  (2592) 
1.82473

>  <inspiration_score>  (2592) 
None

$$$$
P500237
     RDKit          3D

 27 29  0  0  0  0  0  0  0  0999 V2000
    7.2549   13.3160   22.3155 O   0  0  0  0  0  0  0  0  0  0  0  0
    7.2323   14.1530   23.2133 C   0  0  0  0  0  0  0  0  0  0  0  0
    7.8836   15.3420   23.2251 O   0  0  0  0  0  0  0  0  0  0  0  0
    8.7856   15.8635   22.2158 C   0  0  1  0  0  0  0  0  0  0  0  0
   10.2806   15.7847   22.5311 C   0  0  0  0  0  0  0  0  0  0  0  0
   10.8005   14.6334   21.8634 O   0  0  0  0  0  0  0  0  0  0  0  0
    9.9645   14.4184   20.7063 C   0  0  2  0  0  0  0  0  0  0  0  0
   10.6407   14.7793   19.3800 C   0  0  0  0  0  0  0  0  0  0  0  0
   11.4356   13.8308   18.8616 F   0  0  0  0  0  0  0  0  0  0  0  0
   11.3956   15.8732   19.5473 F   0  0  0  0  0  0  0  0  0  0  0  0
    9.7075   15.0947   18.4505 F   0  0  0  0  0  0  0  0  0  0  0  0
    8.7396   15.2958   20.8515 C   0  0  0  0  0  0  0  0  0  0  0  0
    6.3641   13.9626   24.4743 C   0  0  0  0  0  0  0  0  0  0  0  0
    6.3821   12.4989   24.9544 C   0  0  0  0  0  0  0  0  0  0  0  0
    7.6595   12.0610   25.6736 C   0  0  0  0  0  0  0  0  0  0  0  0
    8.2779   13.1904   26.4036 N   0  0  0  0  0  0  0  0  0  0  0  0
    9.6667   13.8533   25.7124 S   0  0  0  0  0  0  0  0  0  0  0  0
    9.5851   13.6640   24.2932 O   0  0  0  0  0  0  0  0  0  0  0  0
    9.8565   15.1584   26.2968 O   0  0  0  0  0  0  0  0  0  0  0  0
   10.8686   12.8100   26.3025 N   0  0  0  0  0  0  0  0  0  0  0  0
   11.8465   13.5394   27.1551 C   0  0  0  0  0  0  0  0  0  0  0  0
   13.1212   12.7488   27.4243 C   0  0  0  0  0  0  0  0  0  0  0  0
   13.8117   12.2810   26.1648 C   0  0  0  0  0  0  0  0  0  0  0  0
   12.8816   12.3346   24.9761 C   0  0  0  0  0  0  0  0  0  0  0  0
   11.4646   11.9114   25.2831 C   0  0  0  0  0  0  0  0  0  0  0  0
    7.2694   14.1800   26.8575 C   0  0  0  0  0  0  0  0  0  0  0  0
    6.6431   14.9004   25.6636 C   0  0  0  0  0  0  0  0  0  0  0  0
  1  2  2  0
  2  3  1  0
  4  3  1  1
  4  5  1  0
  5  6  1  0
  6  7  1  0
  7  8  1  6
  8  9  1  0
  8 10  1  0
  8 11  1  0
  7 12  1  0
  2 13  1  0
 13 14  1  0
 14 15  1  0
 15 16  1  0
 16 17  1  0
 17 18  2  0
 17 19  2  0
 17 20  1  0
 20 21  1  0
 21 22  1  0
 22 23  1  0
 23 24  1  0
 24 25  1  0
 16 26  1  0
 26 27  1  0
 12  4  1  0
 27 13  1  0
 25 20  1  0
M  END
>  <energy_score>  (2593) 
-31.891811

>  <inchikey>  (2593) 
None

>  <smiles>  (2593) 
None

>  <ref_pdb>  (2593) 
A4706a

>  <alias>  (2593) 
None

>  <HIPPO Pose ID>  (2593) 
500237

>  <name>  (2593) 
P500237

>  <HIPPO Compound ID>  (2593) 
314600

>  <ref_mols>  (2593) 
A4706a,A0875a

>  <distance_score>  (2593) 
1.438721

>  <inspiration_score>  (2593) 
None

$$$$
P500238
     RDKit          3D

 27 29  0  0  0  0  0  0  0  0999 V2000
    7.0105   13.0759   22.1725 O   0  0  0  0  0  0  0  0  0  0  0  0
    7.4970   13.4993   23.2138 C   0  0  0  0  0  0  0  0  0  0  0  0
    8.6779   14.1455   23.3137 O   0  0  0  0  0  0  0  0  0  0  0  0
    9.4877   14.2792   22.1420 C   0  0  2  0  0  0  0  0  0  0  0  0
   10.7848   15.0109   22.4411 C   0  0  0  0  0  0  0  0  0  0  0  0
   11.2355   15.5517   21.2072 O   0  0  0  0  0  0  0  0  0  0  0  0
   10.0661   15.7998   20.3984 C   0  0  1  0  0  0  0  0  0  0  0  0
   10.2757   15.3306   18.9656 C   0  0  0  0  0  0  0  0  0  0  0  0
   10.6477   14.0429   18.8758 F   0  0  0  0  0  0  0  0  0  0  0  0
   11.2216   16.0602   18.3559 F   0  0  0  0  0  0  0  0  0  0  0  0
    9.1357   15.4924   18.2601 F   0  0  0  0  0  0  0  0  0  0  0  0
    8.8738   15.1759   21.1057 C   0  0  0  0  0  0  0  0  0  0  0  0
    6.8554   13.2406   24.5653 C   0  0  0  0  0  0  0  0  0  0  0  0
    7.3395   11.8781   25.0751 C   0  0  0  0  0  0  0  0  0  0  0  0
    8.8003   11.9425   25.5007 C   0  0  0  0  0  0  0  0  0  0  0  0
    9.0505   13.0361   26.4461 N   0  0  0  0  0  0  0  0  0  0  0  0
   10.4741   13.9292   26.3981 S   0  0  0  0  0  0  0  0  0  0  0  0
   10.5156   14.6087   27.6661 O   0  0  0  0  0  0  0  0  0  0  0  0
   10.5150   14.6790   25.1721 O   0  0  0  0  0  0  0  0  0  0  0  0
   11.7391   12.7726   26.3758 N   0  0  0  0  0  0  0  0  0  0  0  0
   12.2660   12.4452   25.0454 C   0  0  0  0  0  0  0  0  0  0  0  0
   13.2627   11.2865   25.1651 C   0  0  0  0  0  0  0  0  0  0  0  0
   14.3982   11.4524   26.1413 C   0  0  0  0  0  0  0  0  0  0  0  0
   14.2619   12.7629   26.8413 C   0  0  0  0  0  0  0  0  0  0  0  0
   12.8462   13.0056   27.3681 C   0  0  0  0  0  0  0  0  0  0  0  0
    7.8387   13.8354   26.8197 C   0  0  0  0  0  0  0  0  0  0  0  0
    7.0993   14.3499   25.5925 C   0  0  0  0  0  0  0  0  0  0  0  0
  1  2  2  0
  2  3  1  0
  4  3  1  1
  4  5  1  0
  5  6  1  0
  6  7  1  0
  7  8  1  6
  8  9  1  0
  8 10  1  0
  8 11  1  0
  7 12  1  0
  2 13  1  0
 13 14  1  0
 14 15  1  0
 15 16  1  0
 16 17  1  0
 17 18  2  0
 17 19  2  0
 17 20  1  0
 20 21  1  0
 21 22  1  0
 22 23  1  0
 23 24  1  0
 24 25  1  0
 16 26  1  0
 26 27  1  0
 12  4  1  0
 27 13  1  0
 25 20  1  0
M  END
>  <energy_score>  (2594) 
-49.907244

>  <inchikey>  (2594) 
None

>  <smiles>  (2594) 
None

>  <ref_pdb>  (2594) 
A4706a

>  <alias>  (2594) 
None

>  <HIPPO Pose ID>  (2594) 
500238

>  <name>  (2594) 
P500238

>  <HIPPO Compound ID>  (2594) 
314600

>  <ref_mols>  (2594) 
A0875a,A4706a

>  <distance_score>  (2594) 
1.548675

>  <inspiration_score>  (2594) 
None

$$$$
P500239
     RDKit          3D

 27 29  0  0  0  0  0  0  0  0999 V2000
    7.2509   13.0819   22.6312 O   0  0  0  0  0  0  0  0  0  0  0  0
    7.0796   14.1774   23.1576 C   0  0  0  0  0  0  0  0  0  0  0  0
    7.7986   15.2841   22.8901 O   0  0  0  0  0  0  0  0  0  0  0  0
    9.1196   15.2483   22.3261 C   0  0  1  0  0  0  0  0  0  0  0  0
   10.0235   14.0286   22.4360 C   0  0  0  0  0  0  0  0  0  0  0  0
   11.0434   14.1747   21.4416 O   0  0  0  0  0  0  0  0  0  0  0  0
   10.6456   15.2577   20.5837 C   0  0  1  0  0  0  0  0  0  0  0  0
   10.9369   15.0627   19.1083 C   0  0  0  0  0  0  0  0  0  0  0  0
   12.2361   14.8275   18.8740 F   0  0  0  0  0  0  0  0  0  0  0  0
   10.2749   14.0402   18.5560 F   0  0  0  0  0  0  0  0  0  0  0  0
   10.5843   16.1876   18.4514 F   0  0  0  0  0  0  0  0  0  0  0  0
    9.1732   15.5224   20.8583 C   0  0  0  0  0  0  0  0  0  0  0  0
    5.9739   14.4335   24.1968 C   0  0  0  0  0  0  0  0  0  0  0  0
    5.6785   13.1324   24.9528 C   0  0  0  0  0  0  0  0  0  0  0  0
    6.8627   12.7047   25.8166 C   0  0  0  0  0  0  0  0  0  0  0  0
    7.4878   13.8286   26.5542 N   0  0  0  0  0  0  0  0  0  0  0  0
    9.1017   14.3072   26.3950 S   0  0  0  0  0  0  0  0  0  0  0  0
    9.2966   14.8585   25.0824 O   0  0  0  0  0  0  0  0  0  0  0  0
    9.3984   15.1203   27.5463 O   0  0  0  0  0  0  0  0  0  0  0  0
   10.0582   12.9296   26.5111 N   0  0  0  0  0  0  0  0  0  0  0  0
   11.4864   13.2247   26.8167 C   0  0  0  0  0  0  0  0  0  0  0  0
   12.3282   13.3511   25.5811 C   0  0  0  0  0  0  0  0  0  0  0  0
   12.2168   12.1523   24.6910 C   0  0  0  0  0  0  0  0  0  0  0  0
   11.0481   11.2204   24.9956 C   0  0  0  0  0  0  0  0  0  0  0  0
    9.8316   11.9273   25.4724 C   0  0  0  0  0  0  0  0  0  0  0  0
    6.5671   14.9965   26.6393 C   0  0  0  0  0  0  0  0  0  0  0  0
    6.2523   15.5361   25.2368 C   0  0  0  0  0  0  0  0  0  0  0  0
  1  2  2  0
  2  3  1  0
  4  3  1  6
  4  5  1  0
  5  6  1  0
  6  7  1  0
  7  8  1  6
  8  9  1  0
  8 10  1  0
  8 11  1  0
  7 12  1  0
  2 13  1  0
 13 14  1  0
 14 15  1  0
 15 16  1  0
 16 17  1  0
 17 18  2  0
 17 19  2  0
 17 20  1  0
 20 21  1  0
 21 22  1  0
 22 23  1  0
 23 24  1  0
 24 25  1  0
 16 26  1  0
 26 27  1  0
 12  4  1  0
 27 13  1  0
 25 20  1  0
M  END
>  <energy_score>  (2595) 
-47.658692

>  <inchikey>  (2595) 
None

>  <smiles>  (2595) 
None

>  <ref_pdb>  (2595) 
A4706a

>  <alias>  (2595) 
None

>  <HIPPO Pose ID>  (2595) 
500239

>  <name>  (2595) 
P500239

>  <HIPPO Compound ID>  (2595) 
314600

>  <ref_mols>  (2595) 
A4706a,A0875a

>  <distance_score>  (2595) 
1.673551

>  <inspiration_score>  (2595) 
None

$$$$
P500240
     RDKit          3D

 27 29  0  0  0  0  0  0  0  0999 V2000
    9.5237   10.6354   23.1689 C   0  0  0  0  0  0  0  0  0  0  0  0
    9.9170   11.9272   22.6819 O   0  0  0  0  0  0  0  0  0  0  0  0
    8.8947   12.8921   22.8640 C   0  0  0  0  0  0  0  0  0  0  0  0
    9.0857   14.3688   22.4198 C   0  0  2  0  0  0  0  0  0  0  0  0
    8.0580   15.1062   23.1934 O   0  0  0  0  0  0  0  0  0  0  0  0
    6.8264   14.5198   23.2563 C   0  0  0  0  0  0  0  0  0  0  0  0
    6.2548   14.0510   22.2725 O   0  0  0  0  0  0  0  0  0  0  0  0
    6.2128   14.3617   24.6512 C   0  0  0  0  0  0  0  0  0  0  0  0
    6.3370   12.8909   25.1428 C   0  0  0  0  0  0  0  0  0  0  0  0
    7.4978   12.5408   26.0936 C   0  0  0  0  0  0  0  0  0  0  0  0
    7.9905   13.6845   26.8643 N   0  0  0  0  0  0  0  0  0  0  0  0
    9.5166   14.3684   26.6629 S   0  0  0  0  0  0  0  0  0  0  0  0
    9.5767   14.9481   25.3523 O   0  0  0  0  0  0  0  0  0  0  0  0
    9.6829   15.2191   27.8134 O   0  0  0  0  0  0  0  0  0  0  0  0
   10.7086   13.1394   26.7807 N   0  0  0  0  0  0  0  0  0  0  0  0
   11.0417   12.4286   25.5264 C   0  0  0  0  0  0  0  0  0  0  0  0
   12.3927   12.8031   24.9532 C   0  0  0  0  0  0  0  0  0  0  0  0
   13.5023   12.3695   25.8775 C   0  0  0  0  0  0  0  0  0  0  0  0
   13.1582   12.7619   27.3090 C   0  0  0  0  0  0  0  0  0  0  0  0
   11.9431   13.6949   27.4337 C   0  0  0  0  0  0  0  0  0  0  0  0
    6.9248   14.7119   27.0589 C   0  0  0  0  0  0  0  0  0  0  0  0
    6.5810   15.3782   25.7264 C   0  0  0  0  0  0  0  0  0  0  0  0
    8.8923   14.5562   20.9034 C   0  0  0  0  0  0  0  0  0  0  0  0
    9.9064   15.4900   20.2459 C   0  0  0  0  0  0  0  0  0  0  0  0
   11.3266   14.9816   20.4930 C   0  0  0  0  0  0  0  0  0  0  0  0
   11.5119   14.3528   21.7991 N   0  0  0  0  0  0  0  0  0  0  0  0
   10.5166   14.8672   22.7428 C   0  0  0  0  0  0  0  0  0  0  0  0
  1  2  1  0
  2  3  1  0
  4  3  1  6
  4  5  1  0
  5  6  1  0
  6  7  2  0
  6  8  1  0
  8  9  1  0
  9 10  1  0
 10 11  1  0
 11 12  1  0
 12 13  2  0
 12 14  2  0
 12 15  1  0
 15 16  1  0
 16 17  1  0
 17 18  1  0
 18 19  1  0
 19 20  1  0
 11 21  1  0
 21 22  1  0
  4 23  1  0
 23 24  1  0
 24 25  1  0
 25 26  1  0
 26 27  1  0
 27  4  1  0
 22  8  1  0
 20 15  1  0
M  END
>  <energy_score>  (2596) 
-36.452776

>  <inchikey>  (2596) 
None

>  <smiles>  (2596) 
None

>  <ref_pdb>  (2596) 
A4706a

>  <alias>  (2596) 
None

>  <HIPPO Pose ID>  (2596) 
500240

>  <name>  (2596) 
P500240

>  <HIPPO Compound ID>  (2596) 
314601

>  <ref_mols>  (2596) 
A4706a,A0875a

>  <distance_score>  (2596) 
1.827264

>  <inspiration_score>  (2596) 
None

$$$$
P500241
     RDKit          3D

 27 28  0  0  0  0  0  0  0  0999 V2000
    7.3414   16.1760   21.8312 C   0  0  0  0  0  0  0  0  0  0  0  0
    8.1376   14.9383   21.4118 C   0  0  2  0  0  0  0  0  0  0  0  0
    8.0100   14.0025   22.5086 O   0  0  0  0  0  0  0  0  0  0  0  0
    6.7512   13.5675   22.7777 C   0  0  0  0  0  0  0  0  0  0  0  0
    5.8604   13.4877   21.9412 O   0  0  0  0  0  0  0  0  0  0  0  0
    6.5526   13.1228   24.2210 C   0  0  0  0  0  0  0  0  0  0  0  0
    7.6434   12.1158   24.6015 C   0  0  0  0  0  0  0  0  0  0  0  0
    8.0806   12.1785   26.0389 C   0  0  0  0  0  0  0  0  0  0  0  0
    8.2566   13.5600   26.4967 N   0  0  0  0  0  0  0  0  0  0  0  0
    9.4699   14.5836   25.9138 S   0  0  0  0  0  0  0  0  0  0  0  0
    9.1359   14.9953   24.5801 O   0  0  0  0  0  0  0  0  0  0  0  0
    9.6717   15.5757   26.9400 O   0  0  0  0  0  0  0  0  0  0  0  0
   10.8457   13.6664   25.8245 N   0  0  0  0  0  0  0  0  0  0  0  0
   11.4703   13.2403   27.0662 C   0  0  0  0  0  0  0  0  0  0  0  0
   12.8579   12.5853   26.9238 C   0  0  0  0  0  0  0  0  0  0  0  0
   13.1043   11.8547   25.6133 C   0  0  0  0  0  0  0  0  0  0  0  0
   12.5125   12.6987   24.5209 C   0  0  0  0  0  0  0  0  0  0  0  0
   11.0265   12.7849   24.6889 C   0  0  0  0  0  0  0  0  0  0  0  0
    6.9221   14.2203   26.5414 C   0  0  0  0  0  0  0  0  0  0  0  0
    6.3395   14.3438   25.1367 C   0  0  0  0  0  0  0  0  0  0  0  0
    9.6101   15.3688   21.1109 C   0  0  2  0  0  0  0  0  0  0  0  0
   10.0033   15.2385   19.6361 C   0  0  0  0  0  0  0  0  0  0  0  0
   10.5417   14.5885   21.8382 O   0  0  0  0  0  0  0  0  0  0  0  0
   11.5706   15.3999   22.3327 C   0  0  0  0  0  0  0  0  0  0  0  0
   11.1430   16.1150   23.3815 F   0  0  0  0  0  0  0  0  0  0  0  0
   12.0624   16.2204   21.3934 F   0  0  0  0  0  0  0  0  0  0  0  0
   12.5607   14.6068   22.7468 F   0  0  0  0  0  0  0  0  0  0  0  0
  2  1  1  1
  2  3  1  0
  3  4  1  0
  4  5  2  0
  4  6  1  0
  6  7  1  0
  7  8  1  0
  8  9  1  0
  9 10  1  0
 10 11  2  0
 10 12  2  0
 10 13  1  0
 13 14  1  0
 14 15  1  0
 15 16  1  0
 16 17  1  0
 17 18  1  0
  9 19  1  0
 19 20  1  0
  2 21  1  0
 21 22  1  6
 21 23  1  0
 23 24  1  0
 24 25  1  0
 24 26  1  0
 24 27  1  0
 20  6  1  0
 18 13  1  0
M  END
>  <energy_score>  (2597) 
-28.658267

>  <inchikey>  (2597) 
None

>  <smiles>  (2597) 
None

>  <ref_pdb>  (2597) 
A4706a

>  <alias>  (2597) 
None

>  <HIPPO Pose ID>  (2597) 
500241

>  <name>  (2597) 
P500241

>  <HIPPO Compound ID>  (2597) 
314603

>  <ref_mols>  (2597) 
A4706a,A0875a

>  <distance_score>  (2597) 
1.364073

>  <inspiration_score>  (2597) 
None

$$$$
P500242
     RDKit          3D

 27 28  0  0  0  0  0  0  0  0999 V2000
    9.9833   15.0780   19.4468 C   0  0  0  0  0  0  0  0  0  0  0  0
    9.5387   15.9401   20.6072 C   0  0  2  0  0  0  0  0  0  0  0  0
   10.6842   16.4946   21.2468 O   0  0  0  0  0  0  0  0  0  0  0  0
   11.5341   15.6163   21.9187 C   0  0  0  0  0  0  0  0  0  0  0  0
   11.3083   14.3306   21.6027 F   0  0  0  0  0  0  0  0  0  0  0  0
   11.3561   15.7854   23.2341 F   0  0  0  0  0  0  0  0  0  0  0  0
   12.8042   15.9148   21.6095 F   0  0  0  0  0  0  0  0  0  0  0  0
    8.5052   15.4228   21.6595 C   0  0  1  0  0  0  0  0  0  0  0  0
    7.5402   16.5367   22.0287 C   0  0  0  0  0  0  0  0  0  0  0  0
    7.7053   14.2642   21.3113 O   0  0  0  0  0  0  0  0  0  0  0  0
    6.7713   13.7433   22.1757 C   0  0  0  0  0  0  0  0  0  0  0  0
    5.7747   13.1712   21.7469 O   0  0  0  0  0  0  0  0  0  0  0  0
    7.0371   13.7809   23.6612 C   0  0  0  0  0  0  0  0  0  0  0  0
    7.1763   12.3937   24.3080 C   0  0  0  0  0  0  0  0  0  0  0  0
    7.3907   12.4830   25.8160 C   0  0  0  0  0  0  0  0  0  0  0  0
    7.7854   13.8514   26.1970 N   0  0  0  0  0  0  0  0  0  0  0  0
    9.3656   14.4160   25.9270 S   0  0  0  0  0  0  0  0  0  0  0  0
    9.3420   15.3877   24.8708 O   0  0  0  0  0  0  0  0  0  0  0  0
    9.9112   14.7214   27.2237 O   0  0  0  0  0  0  0  0  0  0  0  0
   10.1118   13.0623   25.3418 N   0  0  0  0  0  0  0  0  0  0  0  0
   10.7819   12.2325   26.2848 C   0  0  0  0  0  0  0  0  0  0  0  0
   12.2342   12.6252   26.4550 C   0  0  0  0  0  0  0  0  0  0  0  0
   12.9303   12.4226   25.1354 C   0  0  0  0  0  0  0  0  0  0  0  0
   12.1434   13.1375   24.0369 C   0  0  0  0  0  0  0  0  0  0  0  0
   10.6423   12.9006   24.0062 C   0  0  0  0  0  0  0  0  0  0  0  0
    6.6967   14.8373   25.9231 C   0  0  0  0  0  0  0  0  0  0  0  0
    6.0736   14.5868   24.5342 C   0  0  0  0  0  0  0  0  0  0  0  0
  2  1  1  6
  2  3  1  0
  3  4  1  0
  4  5  1  0
  4  6  1  0
  4  7  1  0
  2  8  1  0
  8  9  1  6
  8 10  1  0
 10 11  1  0
 11 12  2  0
 11 13  1  0
 13 14  1  0
 14 15  1  0
 15 16  1  0
 16 17  1  0
 17 18  2  0
 17 19  2  0
 17 20  1  0
 20 21  1  0
 21 22  1  0
 22 23  1  0
 23 24  1  0
 24 25  1  0
 16 26  1  0
 26 27  1  0
 27 13  1  0
 25 20  1  0
M  END
>  <energy_score>  (2598) 
-4.227915

>  <inchikey>  (2598) 
None

>  <smiles>  (2598) 
None

>  <ref_pdb>  (2598) 
A4706a

>  <alias>  (2598) 
None

>  <HIPPO Pose ID>  (2598) 
500242

>  <name>  (2598) 
P500242

>  <HIPPO Compound ID>  (2598) 
314603

>  <ref_mols>  (2598) 
A4706a,A0875a

>  <distance_score>  (2598) 
1.512447

>  <inspiration_score>  (2598) 
None

$$$$
P500243
     RDKit          3D

 27 28  0  0  0  0  0  0  0  0999 V2000
    8.5361   16.9929   21.2430 C   0  0  0  0  0  0  0  0  0  0  0  0
    8.5602   15.4742   21.2720 C   0  0  2  0  0  0  0  0  0  0  0  0
    8.1738   15.0578   22.6166 O   0  0  0  0  0  0  0  0  0  0  0  0
    7.2908   14.0285   22.7309 C   0  0  0  0  0  0  0  0  0  0  0  0
    6.9222   13.3297   21.7878 O   0  0  0  0  0  0  0  0  0  0  0  0
    6.7629   13.7058   24.1407 C   0  0  0  0  0  0  0  0  0  0  0  0
    7.2455   12.2787   24.5336 C   0  0  0  0  0  0  0  0  0  0  0  0
    7.9085   12.0556   25.8871 C   0  0  0  0  0  0  0  0  0  0  0  0
    8.4366   13.3053   26.4469 N   0  0  0  0  0  0  0  0  0  0  0  0
    9.8129   13.9496   25.7095 S   0  0  0  0  0  0  0  0  0  0  0  0
    9.6479   13.7754   24.2918 O   0  0  0  0  0  0  0  0  0  0  0  0
   10.0110   15.2432   26.3130 O   0  0  0  0  0  0  0  0  0  0  0  0
   11.0705   12.8945   26.1914 N   0  0  0  0  0  0  0  0  0  0  0  0
   12.1152   13.5897   26.9891 C   0  0  0  0  0  0  0  0  0  0  0  0
   13.5361   13.0924   26.6992 C   0  0  0  0  0  0  0  0  0  0  0  0
   13.5768   11.6180   26.6260 C   0  0  0  0  0  0  0  0  0  0  0  0
   12.7658   11.2055   25.4210 C   0  0  0  0  0  0  0  0  0  0  0  0
   11.6234   12.1459   25.0401 C   0  0  0  0  0  0  0  0  0  0  0  0
    7.3184   14.2867   26.5684 C   0  0  0  0  0  0  0  0  0  0  0  0
    6.9169   14.8092   25.1943 C   0  0  0  0  0  0  0  0  0  0  0  0
    9.9241   14.9429   20.7581 C   0  0  1  0  0  0  0  0  0  0  0  0
   10.0953   15.2127   19.2576 C   0  0  0  0  0  0  0  0  0  0  0  0
   11.0411   15.6429   21.2847 O   0  0  0  0  0  0  0  0  0  0  0  0
   11.5660   15.1236   22.4580 C   0  0  0  0  0  0  0  0  0  0  0  0
   10.9597   15.6614   23.5255 F   0  0  0  0  0  0  0  0  0  0  0  0
   11.5174   13.7804   22.4813 F   0  0  0  0  0  0  0  0  0  0  0  0
   12.8601   15.4767   22.5097 F   0  0  0  0  0  0  0  0  0  0  0  0
  2  1  1  1
  2  3  1  0
  3  4  1  0
  4  5  2  0
  4  6  1  0
  6  7  1  0
  7  8  1  0
  8  9  1  0
  9 10  1  0
 10 11  2  0
 10 12  2  0
 10 13  1  0
 13 14  1  0
 14 15  1  0
 15 16  1  0
 16 17  1  0
 17 18  1  0
  9 19  1  0
 19 20  1  0
  2 21  1  0
 21 22  1  6
 21 23  1  0
 23 24  1  0
 24 25  1  0
 24 26  1  0
 24 27  1  0
 20  6  1  0
 18 13  1  0
M  END
>  <energy_score>  (2599) 
-33.099778

>  <inchikey>  (2599) 
None

>  <smiles>  (2599) 
None

>  <ref_pdb>  (2599) 
A4706a

>  <alias>  (2599) 
None

>  <HIPPO Pose ID>  (2599) 
500243

>  <name>  (2599) 
P500243

>  <HIPPO Compound ID>  (2599) 
314603

>  <ref_mols>  (2599) 
A4706a,A0875a

>  <distance_score>  (2599) 
1.468266

>  <inspiration_score>  (2599) 
None

$$$$
P500244
     RDKit          3D

 27 28  0  0  0  0  0  0  0  0999 V2000
    7.4601   14.5827   21.1446 C   0  0  0  0  0  0  0  0  0  0  0  0
    8.7162   15.1701   21.7523 C   0  0  1  0  0  0  0  0  0  0  0  0
    8.7686   14.6922   23.1223 O   0  0  0  0  0  0  0  0  0  0  0  0
    8.4028   13.4053   23.3570 C   0  0  0  0  0  0  0  0  0  0  0  0
    9.0367   12.4442   22.9382 O   0  0  0  0  0  0  0  0  0  0  0  0
    7.0571   13.2501   24.1016 C   0  0  0  0  0  0  0  0  0  0  0  0
    7.1403   12.0416   25.0639 C   0  0  0  0  0  0  0  0  0  0  0  0
    7.9696   12.3797   26.3078 C   0  0  0  0  0  0  0  0  0  0  0  0
    8.6008   13.6684   26.0336 N   0  0  0  0  0  0  0  0  0  0  0  0
   10.0950   14.1296   26.5385 S   0  0  0  0  0  0  0  0  0  0  0  0
   10.5493   15.1682   25.6556 O   0  0  0  0  0  0  0  0  0  0  0  0
    9.9797   14.3682   27.9542 O   0  0  0  0  0  0  0  0  0  0  0  0
   11.1340   12.8396   26.3495 N   0  0  0  0  0  0  0  0  0  0  0  0
   11.1669   12.0531   25.0968 C   0  0  0  0  0  0  0  0  0  0  0  0
   12.2267   10.9857   25.3382 C   0  0  0  0  0  0  0  0  0  0  0  0
   13.6502   11.4727   25.3633 C   0  0  0  0  0  0  0  0  0  0  0  0
   13.6226   12.8998   25.8710 C   0  0  0  0  0  0  0  0  0  0  0  0
   12.5065   13.1151   26.9115 C   0  0  0  0  0  0  0  0  0  0  0  0
    7.5989   14.7664   26.0283 C   0  0  0  0  0  0  0  0  0  0  0  0
    6.6336   14.4980   24.8828 C   0  0  0  0  0  0  0  0  0  0  0  0
    9.9882   14.9406   20.8693 C   0  0  1  0  0  0  0  0  0  0  0  0
    9.8875   15.5130   19.4513 C   0  0  0  0  0  0  0  0  0  0  0  0
   11.1248   15.6669   21.3018 O   0  0  0  0  0  0  0  0  0  0  0  0
   11.6637   15.2331   22.4976 C   0  0  0  0  0  0  0  0  0  0  0  0
   11.0586   15.8805   23.4883 F   0  0  0  0  0  0  0  0  0  0  0  0
   11.5675   13.9047   22.6379 F   0  0  0  0  0  0  0  0  0  0  0  0
   12.9606   15.5594   22.4948 F   0  0  0  0  0  0  0  0  0  0  0  0
  2  1  1  6
  2  3  1  0
  3  4  1  0
  4  5  2  0
  4  6  1  0
  6  7  1  0
  7  8  1  0
  8  9  1  0
  9 10  1  0
 10 11  2  0
 10 12  2  0
 10 13  1  0
 13 14  1  0
 14 15  1  0
 15 16  1  0
 16 17  1  0
 17 18  1  0
  9 19  1  0
 19 20  1  0
  2 21  1  0
 21 22  1  6
 21 23  1  0
 23 24  1  0
 24 25  1  0
 24 26  1  0
 24 27  1  0
 20  6  1  0
 18 13  1  0
M  END
>  <energy_score>  (2600) 
-18.494631

>  <inchikey>  (2600) 
None

>  <smiles>  (2600) 
None

>  <ref_pdb>  (2600) 
A4706a

>  <alias>  (2600) 
None

>  <HIPPO Pose ID>  (2600) 
500244

>  <name>  (2600) 
P500244

>  <HIPPO Compound ID>  (2600) 
314603

>  <ref_mols>  (2600) 
A4706a,A0875a

>  <distance_score>  (2600) 
1.417351

>  <inspiration_score>  (2600) 
None

$$$$
P500245
     RDKit          3D

 27 29  0  0  0  0  0  0  0  0999 V2000
   11.0984   13.0278   22.0797 N   0  0  0  0  0  0  0  0  0  0  0  0
   11.8694   14.0727   21.4194 C   0  0  0  0  0  0  0  0  0  0  0  0
   11.2070   15.3778   21.0627 C   0  0  1  0  0  0  0  0  0  0  0  0
   10.1771   15.3254   19.9293 C   0  0  0  0  0  0  0  0  0  0  0  0
    8.9214   14.7421   20.2803 O   0  0  0  0  0  0  0  0  0  0  0  0
    8.5732   14.8715   21.6593 C   0  0  2  0  0  0  0  0  0  0  0  0
    7.0685   15.1531   21.8207 C   0  0  0  0  0  0  0  0  0  0  0  0
    6.5851   15.0922   23.1729 O   0  0  0  0  0  0  0  0  0  0  0  0
    6.3018   13.8485   23.6252 C   0  0  0  0  0  0  0  0  0  0  0  0
    6.4449   12.8292   22.9583 O   0  0  0  0  0  0  0  0  0  0  0  0
    5.7052   13.8703   25.0317 C   0  0  0  0  0  0  0  0  0  0  0  0
    5.8165   12.4774   25.6636 C   0  0  0  0  0  0  0  0  0  0  0  0
    7.2622   12.1037   25.9606 C   0  0  0  0  0  0  0  0  0  0  0  0
    8.0005   13.2106   26.6195 N   0  0  0  0  0  0  0  0  0  0  0  0
    9.3702   13.8222   25.8351 S   0  0  0  0  0  0  0  0  0  0  0  0
    9.8004   14.9757   26.5885 O   0  0  0  0  0  0  0  0  0  0  0  0
    9.0583   13.9314   24.4393 O   0  0  0  0  0  0  0  0  0  0  0  0
   10.5460   12.6024   26.0468 N   0  0  0  0  0  0  0  0  0  0  0  0
   10.3981   11.4510   25.1125 C   0  0  0  0  0  0  0  0  0  0  0  0
   11.5248   10.4391   25.2414 C   0  0  0  0  0  0  0  0  0  0  0  0
   12.9277   11.0908   25.3357 C   0  0  0  0  0  0  0  0  0  0  0  0
   12.9769   12.2206   26.3372 C   0  0  0  0  0  0  0  0  0  0  0  0
   11.8992   13.2281   25.9931 C   0  0  0  0  0  0  0  0  0  0  0  0
    7.0944   14.2782   27.1287 C   0  0  0  0  0  0  0  0  0  0  0  0
    6.3245   14.9172   25.9732 C   0  0  0  0  0  0  0  0  0  0  0  0
    9.3396   15.9926   22.3288 C   0  0  0  0  0  0  0  0  0  0  0  0
   10.7483   15.9224   22.2866 O   0  0  0  0  0  0  0  0  0  0  0  0
  1  2  1  0
  3  2  1  1
  3  4  1  0
  4  5  1  0
  5  6  1  0
  6  7  1  6
  7  8  1  0
  8  9  1  0
  9 10  2  0
  9 11  1  0
 11 12  1  0
 12 13  1  0
 13 14  1  0
 14 15  1  0
 15 16  2  0
 15 17  2  0
 15 18  1  0
 18 19  1  0
 19 20  1  0
 20 21  1  0
 21 22  1  0
 22 23  1  0
 14 24  1  0
 24 25  1  0
  6 26  1  0
 26 27  1  0
 27  3  1  0
 25 11  1  0
 23 18  1  0
M  END
>  <energy_score>  (2601) 
-72.170516

>  <inchikey>  (2601) 
None

>  <smiles>  (2601) 
None

>  <ref_pdb>  (2601) 
A4706a

>  <alias>  (2601) 
None

>  <HIPPO Pose ID>  (2601) 
500245

>  <name>  (2601) 
P500245

>  <HIPPO Compound ID>  (2601) 
314604

>  <ref_mols>  (2601) 
A0875a,A4706a

>  <distance_score>  (2601) 
1.694328

>  <inspiration_score>  (2601) 
None

$$$$
P500246
     RDKit          3D

 27 29  0  0  0  0  0  0  0  0999 V2000
   12.1708   15.0818   23.0200 N   0  0  0  0  0  0  0  0  0  0  0  0
   12.0835   15.6879   21.6784 C   0  0  0  0  0  0  0  0  0  0  0  0
   11.4209   14.6932   20.7172 C   0  0  2  0  0  0  0  0  0  0  0  0
   10.4734   15.3359   19.7054 C   0  0  0  0  0  0  0  0  0  0  0  0
    9.3785   16.0271   20.3364 O   0  0  0  0  0  0  0  0  0  0  0  0
    8.9870   15.4584   21.6136 C   0  0  1  0  0  0  0  0  0  0  0  0
    7.4849   15.6521   21.8591 C   0  0  0  0  0  0  0  0  0  0  0  0
    7.0498   15.3067   23.1898 O   0  0  0  0  0  0  0  0  0  0  0  0
    6.5652   14.0573   23.3862 C   0  0  0  0  0  0  0  0  0  0  0  0
    6.5331   13.1773   22.5275 O   0  0  0  0  0  0  0  0  0  0  0  0
    6.0271   13.8409   24.8011 C   0  0  0  0  0  0  0  0  0  0  0  0
    6.3463   12.4054   25.2469 C   0  0  0  0  0  0  0  0  0  0  0  0
    7.8358   12.2232   25.5050 C   0  0  0  0  0  0  0  0  0  0  0  0
    8.3882   13.2968   26.3586 N   0  0  0  0  0  0  0  0  0  0  0  0
    9.7776   14.1157   25.8473 S   0  0  0  0  0  0  0  0  0  0  0  0
   10.0409   15.1129   26.8542 O   0  0  0  0  0  0  0  0  0  0  0  0
    9.6165   14.5008   24.4715 O   0  0  0  0  0  0  0  0  0  0  0  0
   10.9650   12.9373   25.9592 N   0  0  0  0  0  0  0  0  0  0  0  0
   11.1136   11.9339   24.8927 C   0  0  0  0  0  0  0  0  0  0  0  0
   12.2160   10.9823   25.3511 C   0  0  0  0  0  0  0  0  0  0  0  0
   13.6036   11.5430   25.3749 C   0  0  0  0  0  0  0  0  0  0  0  0
   13.4863   12.9959   25.7756 C   0  0  0  0  0  0  0  0  0  0  0  0
   12.2400   13.3222   26.6271 C   0  0  0  0  0  0  0  0  0  0  0  0
    7.3438   14.1734   26.9561 C   0  0  0  0  0  0  0  0  0  0  0  0
    6.5155   14.8406   25.8634 C   0  0  0  0  0  0  0  0  0  0  0  0
    9.3479   13.9858   21.6371 C   0  0  0  0  0  0  0  0  0  0  0  0
   10.7416   13.7340   21.5577 O   0  0  0  0  0  0  0  0  0  0  0  0
  1  2  1  0
  3  2  1  1
  3  4  1  0
  4  5  1  0
  5  6  1  0
  6  7  1  6
  7  8  1  0
  8  9  1  0
  9 10  2  0
  9 11  1  0
 11 12  1  0
 12 13  1  0
 13 14  1  0
 14 15  1  0
 15 16  2  0
 15 17  2  0
 15 18  1  0
 18 19  1  0
 19 20  1  0
 20 21  1  0
 21 22  1  0
 22 23  1  0
 14 24  1  0
 24 25  1  0
  6 26  1  0
 26 27  1  0
 27  3  1  0
 25 11  1  0
 23 18  1  0
M  END
>  <energy_score>  (2602) 
-70.587452

>  <inchikey>  (2602) 
None

>  <smiles>  (2602) 
None

>  <ref_pdb>  (2602) 
A4706a

>  <alias>  (2602) 
None

>  <HIPPO Pose ID>  (2602) 
500246

>  <name>  (2602) 
P500246

>  <HIPPO Compound ID>  (2602) 
314604

>  <ref_mols>  (2602) 
A4706a,A0875a

>  <distance_score>  (2602) 
1.558448

>  <inspiration_score>  (2602) 
None

$$$$
P500247
     RDKit          3D

 27 29  0  0  0  0  0  0  0  0999 V2000
   10.4667   14.3294   18.0283 C   0  0  0  0  0  0  0  0  0  0  0  0
   10.8580   14.2451   19.3984 N   0  0  0  0  0  0  0  0  0  0  0  0
   12.0551   15.0283   19.4801 C   0  0  0  0  0  0  0  0  0  0  0  0
    9.7630   14.7178   20.2377 C   0  0  0  0  0  0  0  0  0  0  0  0
   10.3247   15.1062   21.5399 C   0  0  2  0  0  0  0  0  0  0  0  0
   11.0949   14.0053   22.2332 C   0  0  0  0  0  0  0  0  0  0  0  0
   11.4075   14.5880   23.4910 O   0  0  0  0  0  0  0  0  0  0  0  0
   10.5540   15.7356   23.5941 C   0  0  0  0  0  0  0  0  0  0  0  0
    9.3807   15.5389   22.6163 C   0  0  2  0  0  0  0  0  0  0  0  0
    8.4493   14.4628   22.9060 O   0  0  0  0  0  0  0  0  0  0  0  0
    7.4443   14.7073   23.7969 C   0  0  0  0  0  0  0  0  0  0  0  0
    7.1224   15.8172   24.1993 O   0  0  0  0  0  0  0  0  0  0  0  0
    6.7291   13.4141   24.2321 C   0  0  0  0  0  0  0  0  0  0  0  0
    7.6268   12.1730   24.3859 C   0  0  0  0  0  0  0  0  0  0  0  0
    7.8836   11.7116   25.8106 C   0  0  0  0  0  0  0  0  0  0  0  0
    8.0486   12.8392   26.7133 N   0  0  0  0  0  0  0  0  0  0  0  0
    9.4395   13.7682   26.6245 S   0  0  0  0  0  0  0  0  0  0  0  0
    9.4546   14.6014   27.7991 O   0  0  0  0  0  0  0  0  0  0  0  0
    9.3878   14.3614   25.3338 O   0  0  0  0  0  0  0  0  0  0  0  0
   10.8055   12.7587   26.6614 N   0  0  0  0  0  0  0  0  0  0  0  0
   11.1994   12.1324   25.3588 C   0  0  0  0  0  0  0  0  0  0  0  0
   12.6221   12.4994   24.9643 C   0  0  0  0  0  0  0  0  0  0  0  0
   13.6498   12.0975   25.9854 C   0  0  0  0  0  0  0  0  0  0  0  0
   13.2297   12.6425   27.3390 C   0  0  0  0  0  0  0  0  0  0  0  0
   11.9541   13.4952   27.2912 C   0  0  0  0  0  0  0  0  0  0  0  0
    6.8071   13.6895   26.7903 C   0  0  0  0  0  0  0  0  0  0  0  0
    5.9365   13.6129   25.5305 C   0  0  0  0  0  0  0  0  0  0  0  0
  1  2  1  0
  2  3  1  0
  2  4  1  0
  5  4  1  6
  5  6  1  0
  6  7  1  0
  7  8  1  0
  8  9  1  0
  9 10  1  1
 10 11  1  0
 11 12  2  0
 11 13  1  0
 13 14  1  0
 14 15  1  0
 15 16  1  0
 16 17  1  0
 17 18  2  0
 17 19  2  0
 17 20  1  0
 20 21  1  0
 21 22  1  0
 22 23  1  0
 23 24  1  0
 24 25  1  0
 16 26  1  0
 26 27  1  0
  9  5  1  0
 27 13  1  0
 25 20  1  0
M  END
>  <energy_score>  (2603) 
-16.233492

>  <inchikey>  (2603) 
None

>  <smiles>  (2603) 
None

>  <ref_pdb>  (2603) 
A4706a

>  <alias>  (2603) 
None

>  <HIPPO Pose ID>  (2603) 
500247

>  <name>  (2603) 
P500247

>  <HIPPO Compound ID>  (2603) 
314605

>  <ref_mols>  (2603) 
A0875a,A4706a

>  <distance_score>  (2603) 
1.699881

>  <inspiration_score>  (2603) 
None

$$$$
P500248
     RDKit          3D

 27 29  0  0  0  0  0  0  0  0999 V2000
   11.1987   14.8765   18.3531 C   0  0  0  0  0  0  0  0  0  0  0  0
   10.9681   14.5932   19.7449 N   0  0  0  0  0  0  0  0  0  0  0  0
   12.0965   14.9794   20.5697 C   0  0  0  0  0  0  0  0  0  0  0  0
    9.7349   15.2152   20.1785 C   0  0  0  0  0  0  0  0  0  0  0  0
    8.9584   14.4211   21.2495 C   0  0  1  0  0  0  0  0  0  0  0  0
    9.7945   13.5494   22.1725 C   0  0  0  0  0  0  0  0  0  0  0  0
   10.4252   14.4224   23.0934 O   0  0  0  0  0  0  0  0  0  0  0  0
    9.6696   15.6250   23.0606 C   0  0  0  0  0  0  0  0  0  0  0  0
    8.3990   15.4115   22.2413 C   0  0  2  0  0  0  0  0  0  0  0  0
    7.3559   15.0058   23.1725 O   0  0  0  0  0  0  0  0  0  0  0  0
    6.5755   13.9136   23.0874 C   0  0  0  0  0  0  0  0  0  0  0  0
    6.6073   13.0810   22.1890 O   0  0  0  0  0  0  0  0  0  0  0  0
    5.6392   13.7496   24.2847 C   0  0  0  0  0  0  0  0  0  0  0  0
    6.0963   12.5561   25.1539 C   0  0  0  0  0  0  0  0  0  0  0  0
    6.9006   12.9958   26.3759 C   0  0  0  0  0  0  0  0  0  0  0  0
    7.6359   14.2060   25.9798 N   0  0  0  0  0  0  0  0  0  0  0  0
    9.1529   14.5272   26.5857 S   0  0  0  0  0  0  0  0  0  0  0  0
    9.5112   15.8798   26.2511 O   0  0  0  0  0  0  0  0  0  0  0  0
    9.1916   14.1368   27.9656 O   0  0  0  0  0  0  0  0  0  0  0  0
   10.1892   13.5293   25.7228 N   0  0  0  0  0  0  0  0  0  0  0  0
   11.5999   13.8888   26.0019 C   0  0  0  0  0  0  0  0  0  0  0  0
   12.5831   13.0960   25.1652 C   0  0  0  0  0  0  0  0  0  0  0  0
   12.3680   11.6400   25.4591 C   0  0  0  0  0  0  0  0  0  0  0  0
   10.9503   11.2801   25.0225 C   0  0  0  0  0  0  0  0  0  0  0  0
    9.8821   12.1031   25.6954 C   0  0  0  0  0  0  0  0  0  0  0  0
    6.7196   15.3719   25.9400 C   0  0  0  0  0  0  0  0  0  0  0  0
    5.4695   15.0145   25.1329 C   0  0  0  0  0  0  0  0  0  0  0  0
  1  2  1  0
  2  3  1  0
  2  4  1  0
  5  4  1  6
  5  6  1  0
  6  7  1  0
  7  8  1  0
  8  9  1  0
  9 10  1  1
 10 11  1  0
 11 12  2  0
 11 13  1  0
 13 14  1  0
 14 15  1  0
 15 16  1  0
 16 17  1  0
 17 18  2  0
 17 19  2  0
 17 20  1  0
 20 21  1  0
 21 22  1  0
 22 23  1  0
 23 24  1  0
 24 25  1  0
 16 26  1  0
 26 27  1  0
  9  5  1  0
 27 13  1  0
 25 20  1  0
M  END
>  <energy_score>  (2604) 
-59.834157

>  <inchikey>  (2604) 
None

>  <smiles>  (2604) 
None

>  <ref_pdb>  (2604) 
A4706a

>  <alias>  (2604) 
None

>  <HIPPO Pose ID>  (2604) 
500248

>  <name>  (2604) 
P500248

>  <HIPPO Compound ID>  (2604) 
314605

>  <ref_mols>  (2604) 
A4706a,A0875a

>  <distance_score>  (2604) 
1.752607

>  <inspiration_score>  (2604) 
None

$$$$
P500249
     RDKit          3D

 27 29  0  0  0  0  0  0  0  0999 V2000
   10.2705   15.7425   18.5171 C   0  0  0  0  0  0  0  0  0  0  0  0
   10.5986   14.5249   19.1896 N   0  0  0  0  0  0  0  0  0  0  0  0
   12.0219   14.4257   19.3435 C   0  0  0  0  0  0  0  0  0  0  0  0
    9.7938   14.4897   20.3901 C   0  0  0  0  0  0  0  0  0  0  0  0
   10.3296   15.2671   21.5449 C   0  0  2  0  0  0  0  0  0  0  0  0
   11.5150   14.5851   22.1929 C   0  0  0  0  0  0  0  0  0  0  0  0
   11.3687   14.7329   23.5839 O   0  0  0  0  0  0  0  0  0  0  0  0
   10.2733   15.6059   23.7929 C   0  0  0  0  0  0  0  0  0  0  0  0
    9.3113   15.4550   22.6385 C   0  0  2  0  0  0  0  0  0  0  0  0
    8.4392   14.3452   22.9048 O   0  0  0  0  0  0  0  0  0  0  0  0
    7.1768   14.4107   22.4222 C   0  0  0  0  0  0  0  0  0  0  0  0
    6.9183   14.1343   21.2570 O   0  0  0  0  0  0  0  0  0  0  0  0
    6.0558   14.7313   23.4027 C   0  0  0  0  0  0  0  0  0  0  0  0
    5.5266   13.4122   23.9576 C   0  0  0  0  0  0  0  0  0  0  0  0
    6.5507   12.7097   24.8443 C   0  0  0  0  0  0  0  0  0  0  0  0
    7.5280   13.7072   25.3312 N   0  0  0  0  0  0  0  0  0  0  0  0
    8.7822   13.1418   26.2366 S   0  0  0  0  0  0  0  0  0  0  0  0
    8.4033   11.8159   26.6518 O   0  0  0  0  0  0  0  0  0  0  0  0
    9.1445   14.1991   27.1473 O   0  0  0  0  0  0  0  0  0  0  0  0
   10.0851   12.9739   25.2254 N   0  0  0  0  0  0  0  0  0  0  0  0
   10.1351   11.7923   24.3453 C   0  0  0  0  0  0  0  0  0  0  0  0
   10.9383   10.7062   25.0475 C   0  0  0  0  0  0  0  0  0  0  0  0
   12.3610   11.2009   25.4572 C   0  0  0  0  0  0  0  0  0  0  0  0
   12.5598   12.6706   25.2057 C   0  0  0  0  0  0  0  0  0  0  0  0
   11.3847   13.3486   25.8833 C   0  0  0  0  0  0  0  0  0  0  0  0
    6.8796   14.9492   25.7877 C   0  0  0  0  0  0  0  0  0  0  0  0
    6.3751   15.6753   24.5515 C   0  0  0  0  0  0  0  0  0  0  0  0
  1  2  1  0
  2  3  1  0
  2  4  1  0
  5  4  1  6
  5  6  1  0
  6  7  1  0
  7  8  1  0
  8  9  1  0
  9 10  1  1
 10 11  1  0
 11 12  2  0
 11 13  1  0
 13 14  1  0
 14 15  1  0
 15 16  1  0
 16 17  1  0
 17 18  2  0
 17 19  2  0
 17 20  1  0
 20 21  1  0
 21 22  1  0
 22 23  1  0
 23 24  1  0
 24 25  1  0
 16 26  1  0
 26 27  1  0
  9  5  1  0
 27 13  1  0
 25 20  1  0
M  END
>  <energy_score>  (2605) 
-9.406683

>  <inchikey>  (2605) 
None

>  <smiles>  (2605) 
None

>  <ref_pdb>  (2605) 
A4706a

>  <alias>  (2605) 
None

>  <HIPPO Pose ID>  (2605) 
500249

>  <name>  (2605) 
P500249

>  <HIPPO Compound ID>  (2605) 
314605

>  <ref_mols>  (2605) 
A4706a,A0875a

>  <distance_score>  (2605) 
1.874091

>  <inspiration_score>  (2605) 
None

$$$$
P500250
     RDKit          3D

 27 29  0  0  0  0  0  0  0  0999 V2000
   12.3024   14.7008   19.8830 C   0  0  0  0  0  0  0  0  0  0  0  0
   11.1136   15.2901   19.3336 N   0  0  0  0  0  0  0  0  0  0  0  0
   10.5802   14.4960   18.2849 C   0  0  0  0  0  0  0  0  0  0  0  0
   10.1202   15.7288   20.2701 C   0  0  0  0  0  0  0  0  0  0  0  0
    9.4146   14.7704   21.2526 C   0  0  1  0  0  0  0  0  0  0  0  0
   10.3122   13.7771   21.9660 C   0  0  0  0  0  0  0  0  0  0  0  0
   10.9203   14.4074   23.0890 O   0  0  0  0  0  0  0  0  0  0  0  0
   10.3450   15.7112   23.1542 C   0  0  0  0  0  0  0  0  0  0  0  0
    8.9921   15.6800   22.3964 C   0  0  2  0  0  0  0  0  0  0  0  0
    7.9496   15.3148   23.3407 O   0  0  0  0  0  0  0  0  0  0  0  0
    6.8566   14.5580   23.0939 C   0  0  0  0  0  0  0  0  0  0  0  0
    6.5773   14.0490   22.0139 O   0  0  0  0  0  0  0  0  0  0  0  0
    5.9839   14.3537   24.3721 C   0  0  0  0  0  0  0  0  0  0  0  0
    5.7827   12.8609   24.7173 C   0  0  0  0  0  0  0  0  0  0  0  0
    6.7051   12.1873   25.7513 C   0  0  0  0  0  0  0  0  0  0  0  0
    7.6236   13.1595   26.3837 N   0  0  0  0  0  0  0  0  0  0  0  0
    8.9943   13.5077   25.4554 S   0  0  0  0  0  0  0  0  0  0  0  0
    8.6814   13.0349   24.1379 O   0  0  0  0  0  0  0  0  0  0  0  0
    9.3604   14.8590   25.8007 O   0  0  0  0  0  0  0  0  0  0  0  0
   10.1668   12.5112   26.0602 N   0  0  0  0  0  0  0  0  0  0  0  0
   10.9238   11.6430   25.1328 C   0  0  0  0  0  0  0  0  0  0  0  0
   12.4119   11.9933   24.9775 C   0  0  0  0  0  0  0  0  0  0  0  0
   13.1047   12.7697   26.0606 C   0  0  0  0  0  0  0  0  0  0  0  0
   12.1632   13.8371   26.5745 C   0  0  0  0  0  0  0  0  0  0  0  0
   10.9541   13.1533   27.0874 C   0  0  0  0  0  0  0  0  0  0  0  0
    6.8512   14.3574   26.8128 C   0  0  0  0  0  0  0  0  0  0  0  0
    6.3427   15.1777   25.6210 C   0  0  0  0  0  0  0  0  0  0  0  0
  1  2  1  0
  2  3  1  0
  2  4  1  0
  5  4  1  6
  5  6  1  0
  6  7  1  0
  7  8  1  0
  8  9  1  0
  9 10  1  1
 10 11  1  0
 11 12  2  0
 11 13  1  0
 13 14  1  0
 14 15  1  0
 15 16  1  0
 16 17  1  0
 17 18  2  0
 17 19  2  0
 17 20  1  0
 20 21  1  0
 21 22  1  0
 22 23  1  0
 23 24  1  0
 24 25  1  0
 16 26  1  0
 26 27  1  0
  9  5  1  0
 27 13  1  0
 25 20  1  0
M  END
>  <energy_score>  (2606) 
-9.464712

>  <inchikey>  (2606) 
None

>  <smiles>  (2606) 
None

>  <ref_pdb>  (2606) 
A4706a

>  <alias>  (2606) 
None

>  <HIPPO Pose ID>  (2606) 
500250

>  <name>  (2606) 
P500250

>  <HIPPO Compound ID>  (2606) 
314605

>  <ref_mols>  (2606) 
A4706a,A0875a

>  <distance_score>  (2606) 
1.673517

>  <inspiration_score>  (2606) 
None

$$$$
P500251
     RDKit          3D

 27 28  0  0  0  0  0  0  0  0999 V2000
   14.7001   13.9732   30.2939 C   0  0  0  0  0  0  0  0  0  0  0  0
   14.7989   13.5981   28.9223 O   0  0  0  0  0  0  0  0  0  0  0  0
   15.3675   12.2822   28.7843 C   0  0  0  0  0  0  0  0  0  0  0  0
   15.2614   11.9062   27.3023 C   0  0  1  0  0  0  0  0  0  0  0  0
   16.1034   10.7408   26.8062 C   0  0  0  0  0  0  0  0  0  0  0  0
   17.2901   10.3622   27.6498 C   0  0  0  0  0  0  0  0  0  0  0  0
   16.8909    9.9253   28.8635 F   0  0  0  0  0  0  0  0  0  0  0  0
   18.1162   11.4101   27.8363 F   0  0  0  0  0  0  0  0  0  0  0  0
   17.9990    9.3726   27.0701 F   0  0  0  0  0  0  0  0  0  0  0  0
   13.8441   11.6785   27.0394 O   0  0  0  0  0  0  0  0  0  0  0  0
   13.4718   11.7027   25.7375 C   0  0  0  0  0  0  0  0  0  0  0  0
   14.1760   11.3536   24.8041 O   0  0  0  0  0  0  0  0  0  0  0  0
   12.1152   12.3167   25.5839 C   0  0  0  0  0  0  0  0  0  0  0  0
   12.3299   13.4169   24.5551 C   0  0  0  0  0  0  0  0  0  0  0  0
   11.1388   14.3230   24.5540 C   0  0  0  0  0  0  0  0  0  0  0  0
    9.9245   13.5070   24.7585 N   0  0  0  0  0  0  0  0  0  0  0  0
    8.5743   14.4411   24.6904 S   0  0  0  0  0  0  0  0  0  0  0  0
    8.4012   14.8487   23.3213 O   0  0  0  0  0  0  0  0  0  0  0  0
    8.7325   15.4079   25.7550 O   0  0  0  0  0  0  0  0  0  0  0  0
    7.2974   13.4240   25.1332 N   0  0  0  0  0  0  0  0  0  0  0  0
    7.4931   12.7347   26.4319 C   0  0  0  0  0  0  0  0  0  0  0  0
    6.3066   11.8319   26.7292 C   0  0  0  0  0  0  0  0  0  0  0  0
    5.0475   12.6685   26.8489 C   0  0  0  0  0  0  0  0  0  0  0  0
    4.8291   13.4250   25.5507 C   0  0  0  0  0  0  0  0  0  0  0  0
    6.0377   14.2523   25.1558 C   0  0  0  0  0  0  0  0  0  0  0  0
   10.0072   12.1690   24.1606 C   0  0  0  0  0  0  0  0  0  0  0  0
   10.9226   11.4312   25.1574 C   0  0  0  0  0  0  0  0  0  0  0  0
  1  2  1  0
  2  3  1  0
  4  3  1  1
  4  5  1  0
  5  6  1  0
  6  7  1  0
  6  8  1  0
  6  9  1  0
  4 10  1  0
 10 11  1  0
 11 12  2  0
 11 13  1  0
 13 14  1  0
 14 15  1  0
 15 16  1  0
 16 17  1  0
 17 18  2  0
 17 19  2  0
 17 20  1  0
 20 21  1  0
 21 22  1  0
 22 23  1  0
 23 24  1  0
 24 25  1  0
 16 26  1  0
 26 27  1  0
 27 13  1  0
 25 20  1  0
M  END
>  <energy_score>  (2607) 
-59.871136

>  <inchikey>  (2607) 
None

>  <smiles>  (2607) 
None

>  <ref_pdb>  (2607) 
A4706a

>  <alias>  (2607) 
None

>  <HIPPO Pose ID>  (2607) 
500251

>  <name>  (2607) 
P500251

>  <HIPPO Compound ID>  (2607) 
314606

>  <ref_mols>  (2607) 
A4706a,A0875a

>  <distance_score>  (2607) 
1.660818

>  <inspiration_score>  (2607) 
None

$$$$
P500252
     RDKit          3D

 27 30  0  0  0  0  0  0  0  0999 V2000
    6.6681   13.3431   22.5229 O   0  0  0  0  0  0  0  0  0  0  0  0
    6.7879   14.0926   23.4892 C   0  0  0  0  0  0  0  0  0  0  0  0
    7.3485   15.3299   23.4603 O   0  0  0  0  0  0  0  0  0  0  0  0
    7.7178   15.9062   22.1908 C   0  0  0  0  0  0  0  0  0  0  0  0
    9.1405   15.5714   21.6996 C   0  0  2  0  0  0  0  0  0  0  0  0
    9.0980   14.2817   20.9041 C   0  0  0  0  0  0  0  0  0  0  0  0
   10.0504   14.4093   19.8370 O   0  0  0  0  0  0  0  0  0  0  0  0
   10.7108   15.6531   20.0248 C   0  0  2  0  0  0  0  0  0  0  0  0
   11.8674   15.4118   20.9815 C   0  0  0  0  0  0  0  0  0  0  0  0
   11.3741   14.9442   22.3355 C   0  0  0  0  0  0  0  0  0  0  0  0
   10.1434   15.5543   22.7390 O   0  0  0  0  0  0  0  0  0  0  0  0
    9.6748   16.5469   20.6741 C   0  0  0  0  0  0  0  0  0  0  0  0
    6.2158   13.7597   24.8767 C   0  0  0  0  0  0  0  0  0  0  0  0
    6.4361   12.2856   25.2599 C   0  0  0  0  0  0  0  0  0  0  0  0
    7.7920   11.9261   25.8700 C   0  0  0  0  0  0  0  0  0  0  0  0
    8.4745   13.1103   26.4424 N   0  0  0  0  0  0  0  0  0  0  0  0
    9.6704   13.7960   25.4669 S   0  0  0  0  0  0  0  0  0  0  0  0
    9.3564   13.4168   24.1155 O   0  0  0  0  0  0  0  0  0  0  0  0
    9.8756   15.1582   25.8909 O   0  0  0  0  0  0  0  0  0  0  0  0
   11.0444   12.8874   25.9526 N   0  0  0  0  0  0  0  0  0  0  0  0
   11.7865   13.5498   27.0585 C   0  0  0  0  0  0  0  0  0  0  0  0
   13.0628   12.7938   27.4527 C   0  0  0  0  0  0  0  0  0  0  0  0
   13.9044   12.2811   26.3034 C   0  0  0  0  0  0  0  0  0  0  0  0
   13.0286   11.6517   25.2506 C   0  0  0  0  0  0  0  0  0  0  0  0
   11.9445   12.6193   24.8084 C   0  0  0  0  0  0  0  0  0  0  0  0
    7.5158   14.0507   27.0641 C   0  0  0  0  0  0  0  0  0  0  0  0
    6.6173   14.7035   26.0232 C   0  0  0  0  0  0  0  0  0  0  0  0
  1  2  2  0
  2  3  1  0
  3  4  1  0
  5  4  1  1
  5  6  1  0
  6  7  1  0
  7  8  1  0
  8  9  1  1
  9 10  1  0
 10 11  1  0
  8 12  1  0
  2 13  1  0
 13 14  1  0
 14 15  1  0
 15 16  1  0
 16 17  1  0
 17 18  2  0
 17 19  2  0
 17 20  1  0
 20 21  1  0
 21 22  1  0
 22 23  1  0
 23 24  1  0
 24 25  1  0
 16 26  1  0
 26 27  1  0
 11  5  1  0
 27 13  1  0
 12  5  1  0
 25 20  1  0
M  END
>  <energy_score>  (2608) 
-57.697288

>  <inchikey>  (2608) 
None

>  <smiles>  (2608) 
None

>  <ref_pdb>  (2608) 
A4706a

>  <alias>  (2608) 
None

>  <HIPPO Pose ID>  (2608) 
500252

>  <name>  (2608) 
P500252

>  <HIPPO Compound ID>  (2608) 
314607

>  <ref_mols>  (2608) 
A4706a,A0875a

>  <distance_score>  (2608) 
1.634638

>  <inspiration_score>  (2608) 
None

$$$$
P500253
     RDKit          3D

 27 30  0  0  0  0  0  0  0  0999 V2000
    5.2521   14.5225   22.5698 O   0  0  0  0  0  0  0  0  0  0  0  0
    6.2425   14.0738   23.1295 C   0  0  0  0  0  0  0  0  0  0  0  0
    7.4988   14.1091   22.6253 O   0  0  0  0  0  0  0  0  0  0  0  0
    7.7389   14.9727   21.4967 C   0  0  0  0  0  0  0  0  0  0  0  0
    9.2446   15.1855   21.2951 C   0  0  1  0  0  0  0  0  0  0  0  0
    9.6418   15.8347   19.9601 C   0  0  0  0  0  0  0  0  0  0  0  0
   10.9894   15.3948   19.6698 O   0  0  0  0  0  0  0  0  0  0  0  0
   11.3353   14.4397   20.6809 C   0  0  1  0  0  0  0  0  0  0  0  0
   12.0222   15.1484   21.8242 C   0  0  0  0  0  0  0  0  0  0  0  0
   11.1128   16.2127   22.3760 C   0  0  0  0  0  0  0  0  0  0  0  0
    9.7434   15.8742   22.4306 O   0  0  0  0  0  0  0  0  0  0  0  0
   10.0139   13.9107   21.1912 C   0  0  0  0  0  0  0  0  0  0  0  0
    6.2287   13.4547   24.5274 C   0  0  0  0  0  0  0  0  0  0  0  0
    7.1267   12.1980   24.6274 C   0  0  0  0  0  0  0  0  0  0  0  0
    7.8573   11.9621   25.9374 C   0  0  0  0  0  0  0  0  0  0  0  0
    8.3211   13.2199   26.5271 N   0  0  0  0  0  0  0  0  0  0  0  0
    9.6303   14.0171   25.8134 S   0  0  0  0  0  0  0  0  0  0  0  0
    9.7798   15.2549   26.5367 O   0  0  0  0  0  0  0  0  0  0  0  0
    9.4750   13.9844   24.3888 O   0  0  0  0  0  0  0  0  0  0  0  0
   10.9418   12.9876   26.1992 N   0  0  0  0  0  0  0  0  0  0  0  0
   11.4714   12.2481   25.0334 C   0  0  0  0  0  0  0  0  0  0  0  0
   12.5989   11.2898   25.4439 C   0  0  0  0  0  0  0  0  0  0  0  0
   13.3829   11.6768   26.6852 C   0  0  0  0  0  0  0  0  0  0  0  0
   13.4003   13.1487   26.7375 C   0  0  0  0  0  0  0  0  0  0  0  0
   11.9938   13.7115   26.9610 C   0  0  0  0  0  0  0  0  0  0  0  0
    7.1538   14.0966   26.8163 C   0  0  0  0  0  0  0  0  0  0  0  0
    6.5329   14.5851   25.5210 C   0  0  0  0  0  0  0  0  0  0  0  0
  1  2  2  0
  2  3  1  0
  3  4  1  0
  5  4  1  1
  5  6  1  0
  6  7  1  0
  7  8  1  0
  8  9  1  1
  9 10  1  0
 10 11  1  0
  8 12  1  0
  2 13  1  0
 13 14  1  0
 14 15  1  0
 15 16  1  0
 16 17  1  0
 17 18  2  0
 17 19  2  0
 17 20  1  0
 20 21  1  0
 21 22  1  0
 22 23  1  0
 23 24  1  0
 24 25  1  0
 16 26  1  0
 26 27  1  0
 11  5  1  0
 27 13  1  0
 12  5  1  0
 25 20  1  0
M  END
>  <energy_score>  (2609) 
-59.246279

>  <inchikey>  (2609) 
None

>  <smiles>  (2609) 
None

>  <ref_pdb>  (2609) 
A4706a

>  <alias>  (2609) 
None

>  <HIPPO Pose ID>  (2609) 
500253

>  <name>  (2609) 
P500253

>  <HIPPO Compound ID>  (2609) 
314607

>  <ref_mols>  (2609) 
A4706a,A0875a

>  <distance_score>  (2609) 
1.53289

>  <inspiration_score>  (2609) 
None

$$$$
P500254
     RDKit          3D

 27 29  0  0  0  0  0  0  0  0999 V2000
   10.8113   15.2979   18.6436 C   0  0  0  0  0  0  0  0  0  0  0  0
    9.9265   16.0904   19.4477 O   0  0  0  0  0  0  0  0  0  0  0  0
    9.7766   15.6505   20.8168 C   0  0  2  0  0  0  0  0  0  0  0  0
    8.6084   16.4310   21.4800 C   0  0  0  0  0  0  0  0  0  0  0  0
    8.2307   15.8528   22.7374 O   0  0  0  0  0  0  0  0  0  0  0  0
    7.2016   14.9543   22.8239 C   0  0  0  0  0  0  0  0  0  0  0  0
    6.3474   14.7059   21.9895 O   0  0  0  0  0  0  0  0  0  0  0  0
    7.3829   14.2371   24.1303 C   0  0  0  0  0  0  0  0  0  0  0  0
    7.1888   12.7357   24.1950 C   0  0  0  0  0  0  0  0  0  0  0  0
    7.8501   12.1705   25.4623 C   0  0  0  0  0  0  0  0  0  0  0  0
    8.1041   13.2161   26.4802 N   0  0  0  0  0  0  0  0  0  0  0  0
    9.5605   14.0661   26.6547 S   0  0  0  0  0  0  0  0  0  0  0  0
    9.8534   14.9196   25.5328 O   0  0  0  0  0  0  0  0  0  0  0  0
    9.4730   14.6620   27.9654 O   0  0  0  0  0  0  0  0  0  0  0  0
   10.8218   12.9176   26.7204 N   0  0  0  0  0  0  0  0  0  0  0  0
   11.1838   12.2872   25.4257 C   0  0  0  0  0  0  0  0  0  0  0  0
   12.6038   12.6221   25.0050 C   0  0  0  0  0  0  0  0  0  0  0  0
   13.6539   12.2355   26.0112 C   0  0  0  0  0  0  0  0  0  0  0  0
   13.2414   12.6905   27.3942 C   0  0  0  0  0  0  0  0  0  0  0  0
   11.9949   13.5719   27.3952 C   0  0  0  0  0  0  0  0  0  0  0  0
    6.9048   14.1106   26.5963 C   0  0  0  0  0  0  0  0  0  0  0  0
    6.7444   14.9410   25.3201 C   0  0  0  0  0  0  0  0  0  0  0  0
   11.1119   15.9392   21.5456 C   0  0  0  0  0  0  0  0  0  0  0  0
   11.4422   14.9838   22.6612 C   0  0  0  0  0  0  0  0  0  0  0  0
   11.1406   13.5930   22.1836 C   0  0  0  0  0  0  0  0  0  0  0  0
    9.7381   13.4753   22.0220 O   0  0  0  0  0  0  0  0  0  0  0  0
    9.3801   14.1770   20.8425 C   0  0  0  0  0  0  0  0  0  0  0  0
  1  2  1  0
  3  2  1  0
  3  4  1  1
  4  5  1  0
  5  6  1  0
  6  7  2  0
  6  8  1  0
  8  9  1  0
  9 10  1  0
 10 11  1  0
 11 12  1  0
 12 13  2  0
 12 14  2  0
 12 15  1  0
 15 16  1  0
 16 17  1  0
 17 18  1  0
 18 19  1  0
 19 20  1  0
 11 21  1  0
 21 22  1  0
  3 23  1  0
 23 24  1  0
 24 25  1  0
 25 26  1  0
 26 27  1  0
 27  3  1  0
 22  8  1  0
 20 15  1  0
M  END
>  <energy_score>  (2610) 
-39.820299

>  <inchikey>  (2610) 
None

>  <smiles>  (2610) 
None

>  <ref_pdb>  (2610) 
A4706a

>  <alias>  (2610) 
None

>  <HIPPO Pose ID>  (2610) 
500254

>  <name>  (2610) 
P500254

>  <HIPPO Compound ID>  (2610) 
314609

>  <ref_mols>  (2610) 
A4706a,A0875a

>  <distance_score>  (2610) 
1.601358

>  <inspiration_score>  (2610) 
None

$$$$
P500255
     RDKit          3D

 27 29  0  0  0  0  0  0  0  0999 V2000
   10.7718   14.8361   18.9969 C   0  0  0  0  0  0  0  0  0  0  0  0
    9.5440   15.0560   19.6502 O   0  0  0  0  0  0  0  0  0  0  0  0
    9.4600   15.1668   21.0750 C   0  0  1  0  0  0  0  0  0  0  0  0
    7.9206   15.1710   21.3348 C   0  0  0  0  0  0  0  0  0  0  0  0
    7.5451   14.9293   22.6845 O   0  0  0  0  0  0  0  0  0  0  0  0
    6.8719   13.7709   22.9294 C   0  0  0  0  0  0  0  0  0  0  0  0
    6.2307   13.0980   22.1426 O   0  0  0  0  0  0  0  0  0  0  0  0
    7.1521   13.4114   24.3451 C   0  0  0  0  0  0  0  0  0  0  0  0
    7.1021   11.9711   24.8017 C   0  0  0  0  0  0  0  0  0  0  0  0
    7.9914   11.8188   26.0371 C   0  0  0  0  0  0  0  0  0  0  0  0
    8.2615   13.1228   26.6816 N   0  0  0  0  0  0  0  0  0  0  0  0
    9.6568   14.0469   26.4589 S   0  0  0  0  0  0  0  0  0  0  0  0
    9.6957   14.6988   25.1724 O   0  0  0  0  0  0  0  0  0  0  0  0
    9.7212   14.8707   27.6417 O   0  0  0  0  0  0  0  0  0  0  0  0
   10.9745   12.9589   26.5199 N   0  0  0  0  0  0  0  0  0  0  0  0
   11.3652   12.3418   25.2324 C   0  0  0  0  0  0  0  0  0  0  0  0
   12.5093   11.3398   25.4340 C   0  0  0  0  0  0  0  0  0  0  0  0
   13.4486   11.6440   26.5800 C   0  0  0  0  0  0  0  0  0  0  0  0
   13.5088   13.1118   26.7028 C   0  0  0  0  0  0  0  0  0  0  0  0
   12.1468   13.6707   27.1357 C   0  0  0  0  0  0  0  0  0  0  0  0
    7.0110   13.9380   26.7819 C   0  0  0  0  0  0  0  0  0  0  0  0
    6.5716   14.3644   25.3821 C   0  0  0  0  0  0  0  0  0  0  0  0
   10.1442   14.0439   21.8535 C   0  0  0  0  0  0  0  0  0  0  0  0
   11.4955   14.3971   22.4428 C   0  0  0  0  0  0  0  0  0  0  0  0
   12.2081   15.4839   21.7030 C   0  0  0  0  0  0  0  0  0  0  0  0
   11.4209   16.6452   21.6008 O   0  0  0  0  0  0  0  0  0  0  0  0
   10.0079   16.4859   21.5781 C   0  0  0  0  0  0  0  0  0  0  0  0
  1  2  1  0
  3  2  1  0
  3  4  1  6
  4  5  1  0
  5  6  1  0
  6  7  2  0
  6  8  1  0
  8  9  1  0
  9 10  1  0
 10 11  1  0
 11 12  1  0
 12 13  2  0
 12 14  2  0
 12 15  1  0
 15 16  1  0
 16 17  1  0
 17 18  1  0
 18 19  1  0
 19 20  1  0
 11 21  1  0
 21 22  1  0
  3 23  1  0
 23 24  1  0
 24 25  1  0
 25 26  1  0
 26 27  1  0
 27  3  1  0
 22  8  1  0
 20 15  1  0
M  END
>  <energy_score>  (2611) 
-27.273043

>  <inchikey>  (2611) 
None

>  <smiles>  (2611) 
None

>  <ref_pdb>  (2611) 
A4706a

>  <alias>  (2611) 
None

>  <HIPPO Pose ID>  (2611) 
500255

>  <name>  (2611) 
P500255

>  <HIPPO Compound ID>  (2611) 
314609

>  <ref_mols>  (2611) 
A4706a,A0875a

>  <distance_score>  (2611) 
1.540035

>  <inspiration_score>  (2611) 
None

$$$$
P500256
     RDKit          3D

 27 28  0  0  0  0  0  0  0  0999 V2000
   15.7602    9.5012   25.7784 C   0  0  0  0  0  0  0  0  0  0  0  0
   15.8236   10.8272   26.2935 O   0  0  0  0  0  0  0  0  0  0  0  0
   16.3062   10.9347   27.5732 C   0  0  0  0  0  0  0  0  0  0  0  0
   16.9114   10.0503   28.1616 O   0  0  0  0  0  0  0  0  0  0  0  0
   15.9908   12.3300   28.1585 C   0  0  1  0  0  0  0  0  0  0  0  0
   14.9414   13.0497   27.4461 O   0  0  0  0  0  0  0  0  0  0  0  0
   13.7885   12.3958   27.1698 C   0  0  0  0  0  0  0  0  0  0  0  0
   13.4308   11.3711   27.7168 O   0  0  0  0  0  0  0  0  0  0  0  0
   12.9805   13.0336   26.0754 C   0  0  0  0  0  0  0  0  0  0  0  0
   11.9048   13.9280   26.6837 C   0  0  0  0  0  0  0  0  0  0  0  0
   10.5429   13.2831   26.6247 C   0  0  0  0  0  0  0  0  0  0  0  0
   10.1559   12.9849   25.2319 N   0  0  0  0  0  0  0  0  0  0  0  0
    8.9976   14.0462   24.6346 S   0  0  0  0  0  0  0  0  0  0  0  0
    8.7838   13.7942   23.2349 O   0  0  0  0  0  0  0  0  0  0  0  0
    9.3542   15.3418   25.1525 O   0  0  0  0  0  0  0  0  0  0  0  0
    7.6956   13.4607   25.5038 N   0  0  0  0  0  0  0  0  0  0  0  0
    7.1771   12.1308   25.1305 C   0  0  0  0  0  0  0  0  0  0  0  0
    6.4829   11.5509   26.3570 C   0  0  0  0  0  0  0  0  0  0  0  0
    5.3877   12.4853   26.8715 C   0  0  0  0  0  0  0  0  0  0  0  0
    5.9025   13.9126   27.0614 C   0  0  0  0  0  0  0  0  0  0  0  0
    6.6123   14.4169   25.8061 C   0  0  0  0  0  0  0  0  0  0  0  0
   11.2628   12.6811   24.3135 C   0  0  0  0  0  0  0  0  0  0  0  0
   12.3873   12.0167   25.1114 C   0  0  0  0  0  0  0  0  0  0  0  0
   15.8455   12.4071   29.7235 C   0  0  0  0  0  0  0  0  0  0  0  0
   14.8043   11.4292   30.2980 C   0  0  0  0  0  0  0  0  0  0  0  0
   15.4281   13.8284   30.1630 C   0  0  0  0  0  0  0  0  0  0  0  0
   17.2045   12.1067   30.3977 C   0  0  0  0  0  0  0  0  0  0  0  0
  1  2  1  0
  2  3  1  0
  3  4  2  0
  3  5  1  0
  5  6  1  6
  6  7  1  0
  7  8  2  0
  7  9  1  0
  9 10  1  0
 10 11  1  0
 11 12  1  0
 12 13  1  0
 13 14  2  0
 13 15  2  0
 13 16  1  0
 16 17  1  0
 17 18  1  0
 18 19  1  0
 19 20  1  0
 20 21  1  0
 12 22  1  0
 22 23  1  0
  5 24  1  0
 24 25  1  0
 24 26  1  0
 24 27  1  0
 23  9  1  0
 21 16  1  0
M  END
>  <energy_score>  (2612) 
-78.061088

>  <inchikey>  (2612) 
None

>  <smiles>  (2612) 
None

>  <ref_pdb>  (2612) 
A4706a

>  <alias>  (2612) 
None

>  <HIPPO Pose ID>  (2612) 
500256

>  <name>  (2612) 
P500256

>  <HIPPO Compound ID>  (2612) 
314610

>  <ref_mols>  (2612) 
A4706a,A0875a

>  <distance_score>  (2612) 
1.983342

>  <inspiration_score>  (2612) 
None

$$$$
P500257
     RDKit          3D

 27 30  0  0  0  0  0  0  0  0999 V2000
   11.2643   14.4313   18.3920 O   0  0  0  0  0  0  0  0  0  0  0  0
   10.8571   15.0080   19.3779 C   0  0  0  0  0  0  0  0  0  0  0  0
    9.9785   16.0443   19.3553 O   0  0  0  0  0  0  0  0  0  0  0  0
    9.6726   16.3722   20.6958 C   0  0  1  0  0  0  0  0  0  0  0  0
    8.3874   15.7031   21.1456 C   0  0  0  0  0  0  0  0  0  0  0  0
    8.7268   14.8224   22.3115 C   0  0  2  0  0  0  0  0  0  0  0  0
    7.7621   15.0309   23.3613 O   0  0  0  0  0  0  0  0  0  0  0  0
    6.6893   14.1843   23.3744 C   0  0  0  0  0  0  0  0  0  0  0  0
    6.3709   13.4516   22.4402 O   0  0  0  0  0  0  0  0  0  0  0  0
    5.9680   14.1619   24.7384 C   0  0  0  0  0  0  0  0  0  0  0  0
    5.8178   12.7131   25.2556 C   0  0  0  0  0  0  0  0  0  0  0  0
    6.9328   12.1323   26.1381 C   0  0  0  0  0  0  0  0  0  0  0  0
    7.9448   13.1513   26.4943 N   0  0  0  0  0  0  0  0  0  0  0  0
    9.1809   13.3576   25.3792 S   0  0  0  0  0  0  0  0  0  0  0  0
    9.6466   14.7190   25.4770 O   0  0  0  0  0  0  0  0  0  0  0  0
    8.7043   12.7618   24.1578 O   0  0  0  0  0  0  0  0  0  0  0  0
   10.3982   12.3260   25.9083 N   0  0  0  0  0  0  0  0  0  0  0  0
   11.6818   12.9966   26.2440 C   0  0  0  0  0  0  0  0  0  0  0  0
   12.7634   12.6115   25.2602 C   0  0  0  0  0  0  0  0  0  0  0  0
   13.0208   11.1255   25.4163 C   0  0  0  0  0  0  0  0  0  0  0  0
   11.7196   10.2863   25.2849 C   0  0  0  0  0  0  0  0  0  0  0  0
   10.4931   11.1251   25.0095 C   0  0  0  0  0  0  0  0  0  0  0  0
    7.2755   14.3910   26.9564 C   0  0  0  0  0  0  0  0  0  0  0  0
    6.5184   15.0950   25.8287 C   0  0  0  0  0  0  0  0  0  0  0  0
   10.1478   15.2121   22.7275 C   0  0  0  0  0  0  0  0  0  0  0  0
   10.7846   15.7432   21.4744 C   0  0  1  0  0  0  0  0  0  0  0  0
   11.2171   14.6855   20.6515 O   0  0  0  0  0  0  0  0  0  0  0  0
  1  2  2  0
  2  3  1  0
  3  4  1  0
  4  5  1  1
  5  6  1  0
  6  7  1  1
  7  8  1  0
  8  9  2  0
  8 10  1  0
 10 11  1  0
 11 12  1  0
 12 13  1  0
 13 14  1  0
 14 15  2  0
 14 16  2  0
 14 17  1  0
 17 18  1  0
 18 19  1  0
 19 20  1  0
 20 21  1  0
 21 22  1  0
 13 23  1  0
 23 24  1  0
  6 25  1  0
 26 25  1  1
 26 27  1  0
 27  2  1  0
 26  4  1  0
 24 10  1  0
 22 17  1  0
M  END
>  <energy_score>  (2613) 
-39.806071

>  <inchikey>  (2613) 
None

>  <smiles>  (2613) 
None

>  <ref_pdb>  (2613) 
A4706a

>  <alias>  (2613) 
None

>  <HIPPO Pose ID>  (2613) 
500257

>  <name>  (2613) 
P500257

>  <HIPPO Compound ID>  (2613) 
314611

>  <ref_mols>  (2613) 
A0875a,A4706a

>  <distance_score>  (2613) 
1.402305

>  <inspiration_score>  (2613) 
None

$$$$
P500258
     RDKit          3D

 27 29  0  0  0  0  0  0  0  0999 V2000
   11.3141   14.5465   18.6177 C   0  0  0  0  0  0  0  0  0  0  0  0
   10.9525   15.7424   19.2433 O   0  0  0  0  0  0  0  0  0  0  0  0
    9.6508   15.7681   19.7855 C   0  0  0  0  0  0  0  0  0  0  0  0
    9.5035   15.3876   21.2836 C   0  0  2  0  0  0  0  0  0  0  0  0
    8.0041   15.6797   21.6453 C   0  0  0  0  0  0  0  0  0  0  0  0
    7.5693   15.5521   23.0187 O   0  0  0  0  0  0  0  0  0  0  0  0
    6.2434   15.2375   23.1778 C   0  0  0  0  0  0  0  0  0  0  0  0
    5.4364   15.1408   22.2544 O   0  0  0  0  0  0  0  0  0  0  0  0
    5.8145   14.9369   24.6345 C   0  0  0  0  0  0  0  0  0  0  0  0
    5.5404   13.4203   24.8480 C   0  0  0  0  0  0  0  0  0  0  0  0
    6.4975   12.6320   25.7573 C   0  0  0  0  0  0  0  0  0  0  0  0
    7.7267   13.4027   26.0427 N   0  0  0  0  0  0  0  0  0  0  0  0
    8.7986   13.5020   24.7431 S   0  0  0  0  0  0  0  0  0  0  0  0
    8.0449   13.1378   23.5705 O   0  0  0  0  0  0  0  0  0  0  0  0
    9.5794   14.7063   24.8805 O   0  0  0  0  0  0  0  0  0  0  0  0
    9.7783   12.1957   25.0730 N   0  0  0  0  0  0  0  0  0  0  0  0
   11.0305   12.5105   25.7706 C   0  0  0  0  0  0  0  0  0  0  0  0
   12.1174   11.4969   25.4991 C   0  0  0  0  0  0  0  0  0  0  0  0
   11.6052   10.0701   25.2426 C   0  0  0  0  0  0  0  0  0  0  0  0
   10.2999    9.9024   24.4953 C   0  0  0  0  0  0  0  0  0  0  0  0
    9.7835   11.2030   23.9786 C   0  0  0  0  0  0  0  0  0  0  0  0
    7.3725   14.6814   26.6850 C   0  0  0  0  0  0  0  0  0  0  0  0
    6.6557   15.6162   25.7218 C   0  0  0  0  0  0  0  0  0  0  0  0
   10.5452   16.1119   22.1058 C   0  0  0  0  0  0  0  0  0  0  0  0
   11.7574   15.2350   22.0574 C   0  0  0  0  0  0  0  0  0  0  0  0
   11.1403   13.8756   21.9911 C   0  0  0  0  0  0  0  0  0  0  0  0
    9.8126   13.9912   21.4636 O   0  0  0  0  0  0  0  0  0  0  0  0
  1  2  1  0
  2  3  1  0
  4  3  1  6
  4  5  1  0
  5  6  1  0
  6  7  1  0
  7  8  2  0
  7  9  1  0
  9 10  1  0
 10 11  1  0
 11 12  1  0
 12 13  1  0
 13 14  2  0
 13 15  2  0
 13 16  1  0
 16 17  1  0
 17 18  1  0
 18 19  1  0
 19 20  1  0
 20 21  1  0
 12 22  1  0
 22 23  1  0
  4 24  1  0
 24 25  1  0
 25 26  1  0
 26 27  1  0
 27  4  1  0
 23  9  1  0
 21 16  1  0
M  END
>  <energy_score>  (2614) 
-51.693438

>  <inchikey>  (2614) 
None

>  <smiles>  (2614) 
None

>  <ref_pdb>  (2614) 
A4706a

>  <alias>  (2614) 
None

>  <HIPPO Pose ID>  (2614) 
500258

>  <name>  (2614) 
P500258

>  <HIPPO Compound ID>  (2614) 
314612

>  <ref_mols>  (2614) 
A4706a,A0875a

>  <distance_score>  (2614) 
1.789324

>  <inspiration_score>  (2614) 
None

$$$$
P500259
     RDKit          3D

 27 29  0  0  0  0  0  0  0  0999 V2000
   10.9842   14.9973   18.5176 C   0  0  0  0  0  0  0  0  0  0  0  0
    9.7502   15.3834   19.1034 O   0  0  0  0  0  0  0  0  0  0  0  0
    9.9149   16.0959   20.3219 C   0  0  0  0  0  0  0  0  0  0  0  0
    9.3613   15.3476   21.5614 C   0  0  1  0  0  0  0  0  0  0  0  0
    7.8294   15.4751   21.6419 C   0  0  0  0  0  0  0  0  0  0  0  0
    7.2396   15.2197   22.9370 O   0  0  0  0  0  0  0  0  0  0  0  0
    6.5801   14.0525   23.1376 C   0  0  0  0  0  0  0  0  0  0  0  0
    6.5033   13.1399   22.3182 O   0  0  0  0  0  0  0  0  0  0  0  0
    5.8697   14.0098   24.5032 C   0  0  0  0  0  0  0  0  0  0  0  0
    5.8891   12.5928   25.1064 C   0  0  0  0  0  0  0  0  0  0  0  0
    7.1259   12.1775   25.8989 C   0  0  0  0  0  0  0  0  0  0  0  0
    7.8389   13.3482   26.4492 N   0  0  0  0  0  0  0  0  0  0  0  0
    9.1946   13.8212   25.5634 S   0  0  0  0  0  0  0  0  0  0  0  0
    9.6017   15.1180   26.0444 O   0  0  0  0  0  0  0  0  0  0  0  0
    8.9248   13.5491   24.1888 O   0  0  0  0  0  0  0  0  0  0  0  0
   10.2943   12.6735   26.0794 N   0  0  0  0  0  0  0  0  0  0  0  0
   11.1253   13.1531   27.1559 C   0  0  0  0  0  0  0  0  0  0  0  0
   12.2953   13.8923   26.6453 C   0  0  0  0  0  0  0  0  0  0  0  0
   13.0596   13.1314   25.5639 C   0  0  0  0  0  0  0  0  0  0  0  0
   12.5005   11.7528   25.3771 C   0  0  0  0  0  0  0  0  0  0  0  0
   10.9882   11.8053   25.0924 C   0  0  0  0  0  0  0  0  0  0  0  0
    6.9078   14.4446   26.7999 C   0  0  0  0  0  0  0  0  0  0  0  0
    6.2979   15.0593   25.5439 C   0  0  0  0  0  0  0  0  0  0  0  0
    9.8661   13.9296   21.5173 C   0  0  0  0  0  0  0  0  0  0  0  0
   11.2783   14.0373   22.0218 C   0  0  0  0  0  0  0  0  0  0  0  0
   11.2460   15.2517   22.9069 C   0  0  0  0  0  0  0  0  0  0  0  0
    9.9866   15.8977   22.7335 O   0  0  0  0  0  0  0  0  0  0  0  0
  1  2  1  0
  2  3  1  0
  4  3  1  6
  4  5  1  0
  5  6  1  0
  6  7  1  0
  7  8  2  0
  7  9  1  0
  9 10  1  0
 10 11  1  0
 11 12  1  0
 12 13  1  0
 13 14  2  0
 13 15  2  0
 13 16  1  0
 16 17  1  0
 17 18  1  0
 18 19  1  0
 19 20  1  0
 20 21  1  0
 12 22  1  0
 22 23  1  0
  4 24  1  0
 24 25  1  0
 25 26  1  0
 26 27  1  0
 27  4  1  0
 23  9  1  0
 21 16  1  0
M  END
>  <energy_score>  (2615) 
-38.066926

>  <inchikey>  (2615) 
None

>  <smiles>  (2615) 
None

>  <ref_pdb>  (2615) 
A4706a

>  <alias>  (2615) 
None

>  <HIPPO Pose ID>  (2615) 
500259

>  <name>  (2615) 
P500259

>  <HIPPO Compound ID>  (2615) 
314612

>  <ref_mols>  (2615) 
A0875a,A4706a

>  <distance_score>  (2615) 
1.800468

>  <inspiration_score>  (2615) 
None

$$$$
P500260
     RDKit          3D

 27 30  0  0  0  0  0  0  0  0999 V2000
    6.7885   13.1159   22.4290 O   0  0  0  0  0  0  0  0  0  0  0  0
    7.2790   13.7310   23.3725 C   0  0  0  0  0  0  0  0  0  0  0  0
    8.3259   14.5922   23.2976 O   0  0  0  0  0  0  0  0  0  0  0  0
    8.7114   15.2212   22.0494 C   0  0  2  0  0  0  0  0  0  0  0  0
    8.1694   14.5966   20.8082 C   0  0  0  0  0  0  0  0  0  0  0  0
    8.8857   15.1353   19.7073 O   0  0  0  0  0  0  0  0  0  0  0  0
   10.1518   15.3540   20.1177 C   0  0  0  0  0  0  0  0  0  0  0  0
   11.0350   15.6305   19.3282 O   0  0  0  0  0  0  0  0  0  0  0  0
   10.1859   15.1535   21.6776 C   0  0  0  0  0  0  0  0  0  0  0  0
   11.0798   13.9720   22.1057 C   0  0  0  0  0  0  0  0  0  0  0  0
   12.1684   14.9971   22.3987 C   0  0  0  0  0  0  0  0  0  0  0  0
   11.1054   16.0694   22.4730 C   0  0  0  0  0  0  0  0  0  0  0  0
    6.7570   13.4795   24.7743 C   0  0  0  0  0  0  0  0  0  0  0  0
    7.1673   12.0640   25.2016 C   0  0  0  0  0  0  0  0  0  0  0  0
    8.6490   12.0245   25.5417 C   0  0  0  0  0  0  0  0  0  0  0  0
    9.0165   13.0606   26.5255 N   0  0  0  0  0  0  0  0  0  0  0  0
   10.4506   13.9220   26.3265 S   0  0  0  0  0  0  0  0  0  0  0  0
   10.5618   14.7545   27.4952 O   0  0  0  0  0  0  0  0  0  0  0  0
   10.4386   14.5133   25.0176 O   0  0  0  0  0  0  0  0  0  0  0  0
   11.6826   12.7303   26.4006 N   0  0  0  0  0  0  0  0  0  0  0  0
   12.1073   12.1969   25.1036 C   0  0  0  0  0  0  0  0  0  0  0  0
   13.2333   11.1608   25.2179 C   0  0  0  0  0  0  0  0  0  0  0  0
   14.3585   11.4323   26.1774 C   0  0  0  0  0  0  0  0  0  0  0  0
   14.2076   12.8217   26.6916 C   0  0  0  0  0  0  0  0  0  0  0  0
   12.8282   13.0341   27.3132 C   0  0  0  0  0  0  0  0  0  0  0  0
    7.8654   13.9036   26.9904 C   0  0  0  0  0  0  0  0  0  0  0  0
    7.1341   14.5314   25.8171 C   0  0  0  0  0  0  0  0  0  0  0  0
  1  2  2  0
  2  3  1  0
  4  3  1  1
  4  5  1  0
  5  6  1  0
  6  7  1  0
  7  8  2  0
  7  9  1  0
  9 10  1  0
 10 11  1  0
 11 12  1  0
  2 13  1  0
 13 14  1  0
 14 15  1  0
 15 16  1  0
 16 17  1  0
 17 18  2  0
 17 19  2  0
 17 20  1  0
 20 21  1  0
 21 22  1  0
 22 23  1  0
 23 24  1  0
 24 25  1  0
 16 26  1  0
 26 27  1  0
  9  4  1  0
 27 13  1  0
 12  9  1  0
 25 20  1  0
M  END
>  <energy_score>  (2616) 
-29.909346

>  <inchikey>  (2616) 
None

>  <smiles>  (2616) 
None

>  <ref_pdb>  (2616) 
A4706a

>  <alias>  (2616) 
None

>  <HIPPO Pose ID>  (2616) 
500260

>  <name>  (2616) 
P500260

>  <HIPPO Compound ID>  (2616) 
314613

>  <ref_mols>  (2616) 
A4706a,A0875a

>  <distance_score>  (2616) 
1.517556

>  <inspiration_score>  (2616) 
None

$$$$
P500261
     RDKit          3D

 27 30  0  0  0  0  0  0  0  0999 V2000
    6.1881   15.8771   22.3528 O   0  0  0  0  0  0  0  0  0  0  0  0
    6.9525   15.3268   23.1346 C   0  0  0  0  0  0  0  0  0  0  0  0
    8.3113   15.2534   22.9781 O   0  0  0  0  0  0  0  0  0  0  0  0
    8.8667   15.6539   21.7134 C   0  0  2  0  0  0  0  0  0  0  0  0
    8.3188   14.7329   20.6630 C   0  0  0  0  0  0  0  0  0  0  0  0
    9.0238   15.0582   19.4737 O   0  0  0  0  0  0  0  0  0  0  0  0
   10.3124   15.2286   19.8418 C   0  0  0  0  0  0  0  0  0  0  0  0
   11.2101   15.3250   19.0261 O   0  0  0  0  0  0  0  0  0  0  0  0
   10.3384   15.2980   21.4121 C   0  0  0  0  0  0  0  0  0  0  0  0
   11.5605   16.0503   21.9496 C   0  0  0  0  0  0  0  0  0  0  0  0
   11.6430   15.0208   23.0595 C   0  0  0  0  0  0  0  0  0  0  0  0
   10.9247   14.0450   22.1259 C   0  0  0  0  0  0  0  0  0  0  0  0
    6.4226   14.5511   24.3424 C   0  0  0  0  0  0  0  0  0  0  0  0
    6.8160   13.0621   24.2315 C   0  0  0  0  0  0  0  0  0  0  0  0
    7.0647   12.3350   25.5416 C   0  0  0  0  0  0  0  0  0  0  0  0
    7.7890   13.1798   26.5080 N   0  0  0  0  0  0  0  0  0  0  0  0
    9.3423   13.7505   26.1808 S   0  0  0  0  0  0  0  0  0  0  0  0
    9.6949   14.6250   27.2731 O   0  0  0  0  0  0  0  0  0  0  0  0
    9.3833   14.2350   24.8348 O   0  0  0  0  0  0  0  0  0  0  0  0
   10.4629   12.5011   26.2075 N   0  0  0  0  0  0  0  0  0  0  0  0
   11.8314   13.1384   26.2052 C   0  0  0  0  0  0  0  0  0  0  0  0
   12.7552   12.5559   25.1608 C   0  0  0  0  0  0  0  0  0  0  0  0
   12.8374   11.0812   25.4155 C   0  0  0  0  0  0  0  0  0  0  0  0
   11.4451   10.4133   25.2713 C   0  0  0  0  0  0  0  0  0  0  0  0
   10.2938   11.4131   25.2163 C   0  0  0  0  0  0  0  0  0  0  0  0
    6.8708   14.3216   26.8569 C   0  0  0  0  0  0  0  0  0  0  0  0
    6.7225   15.2668   25.6643 C   0  0  0  0  0  0  0  0  0  0  0  0
  1  2  2  0
  2  3  1  0
  4  3  1  1
  4  5  1  0
  5  6  1  0
  6  7  1  0
  7  8  2  0
  7  9  1  0
  9 10  1  0
 10 11  1  0
 11 12  1  0
  2 13  1  0
 13 14  1  0
 14 15  1  0
 15 16  1  0
 16 17  1  0
 17 18  2  0
 17 19  2  0
 17 20  1  0
 20 21  1  0
 21 22  1  0
 22 23  1  0
 23 24  1  0
 24 25  1  0
 16 26  1  0
 26 27  1  0
  9  4  1  0
 27 13  1  0
 12  9  1  0
 25 20  1  0
M  END
>  <energy_score>  (2617) 
-26.462978

>  <inchikey>  (2617) 
None

>  <smiles>  (2617) 
None

>  <ref_pdb>  (2617) 
A4706a

>  <alias>  (2617) 
None

>  <HIPPO Pose ID>  (2617) 
500261

>  <name>  (2617) 
P500261

>  <HIPPO Compound ID>  (2617) 
314613

>  <ref_mols>  (2617) 
A4706a,A0875a

>  <distance_score>  (2617) 
1.43987

>  <inspiration_score>  (2617) 
None

$$$$
P500262
     RDKit          3D

 27 29  0  0  0  0  0  0  0  0999 V2000
   11.5938   14.6639   21.6584 C   0  0  0  0  0  0  0  0  0  0  0  0
   10.6661   15.1215   20.5413 C   0  0  0  0  0  0  0  0  0  0  0  0
   11.3561   15.0025   19.1781 C   0  0  0  0  0  0  0  0  0  0  0  0
    9.3838   14.3468   20.4552 C   0  0  0  0  0  0  0  0  0  0  0  0
    8.5951   14.3574   21.6220 O   0  0  0  0  0  0  0  0  0  0  0  0
    8.1060   15.6686   21.7993 C   0  0  1  0  0  0  0  0  0  0  0  0
    7.2364   15.7897   23.0564 C   0  0  0  0  0  0  0  0  0  0  0  0
    6.0996   14.9077   23.1534 O   0  0  0  0  0  0  0  0  0  0  0  0
    6.3556   13.6540   23.5966 C   0  0  0  0  0  0  0  0  0  0  0  0
    6.8035   12.7725   22.8745 O   0  0  0  0  0  0  0  0  0  0  0  0
    5.9342   13.4020   25.0451 C   0  0  0  0  0  0  0  0  0  0  0  0
    6.4283   12.0275   25.5348 C   0  0  0  0  0  0  0  0  0  0  0  0
    7.9298   11.9687   25.7903 C   0  0  0  0  0  0  0  0  0  0  0  0
    8.4245   13.2072   26.4321 N   0  0  0  0  0  0  0  0  0  0  0  0
    9.6531   14.0316   25.6327 S   0  0  0  0  0  0  0  0  0  0  0  0
    9.8290   15.3074   26.2808 O   0  0  0  0  0  0  0  0  0  0  0  0
    9.4014   13.9512   24.2232 O   0  0  0  0  0  0  0  0  0  0  0  0
   10.9982   13.0397   26.0075 N   0  0  0  0  0  0  0  0  0  0  0  0
   11.8080   13.6230   27.1092 C   0  0  0  0  0  0  0  0  0  0  0  0
   13.0672   12.8173   27.4364 C   0  0  0  0  0  0  0  0  0  0  0  0
   13.8462   12.3252   26.2403 C   0  0  0  0  0  0  0  0  0  0  0  0
   12.9081   11.7320   25.2226 C   0  0  0  0  0  0  0  0  0  0  0  0
   11.8192   12.7160   24.8150 C   0  0  0  0  0  0  0  0  0  0  0  0
    7.3666   14.0252   27.0661 C   0  0  0  0  0  0  0  0  0  0  0  0
    6.3236   14.4874   26.0556 C   0  0  0  0  0  0  0  0  0  0  0  0
    9.3101   16.6168   21.7977 C   0  0  0  0  0  0  0  0  0  0  0  0
   10.2603   16.4709   20.7418 O   0  0  0  0  0  0  0  0  0  0  0  0
  1  2  1  0
  2  3  1  0
  2  4  1  0
  4  5  1  0
  5  6  1  0
  6  7  1  1
  7  8  1  0
  8  9  1  0
  9 10  2  0
  9 11  1  0
 11 12  1  0
 12 13  1  0
 13 14  1  0
 14 15  1  0
 15 16  2  0
 15 17  2  0
 15 18  1  0
 18 19  1  0
 19 20  1  0
 20 21  1  0
 21 22  1  0
 22 23  1  0
 14 24  1  0
 24 25  1  0
  6 26  1  0
 26 27  1  0
 27  2  1  0
 25 11  1  0
 23 18  1  0
M  END
>  <energy_score>  (2618) 
-33.074159

>  <inchikey>  (2618) 
None

>  <smiles>  (2618) 
None

>  <ref_pdb>  (2618) 
A4706a

>  <alias>  (2618) 
None

>  <HIPPO Pose ID>  (2618) 
500262

>  <name>  (2618) 
P500262

>  <HIPPO Compound ID>  (2618) 
314614

>  <ref_mols>  (2618) 
A4706a,A0875a

>  <distance_score>  (2618) 
1.972594

>  <inspiration_score>  (2618) 
None

$$$$
P500263
     RDKit          3D

 27 30  0  0  0  0  0  0  0  0999 V2000
    9.6036   15.3015   19.3006 N   0  0  0  0  0  0  0  0  0  0  0  0
    8.7232   15.0269   20.4480 C   0  0  0  0  0  0  0  0  0  0  0  0
    9.3353   14.4862   21.7350 C   0  0  1  0  0  0  0  0  0  0  0  0
    8.3729   13.6764   22.4746 O   0  0  0  0  0  0  0  0  0  0  0  0
    7.1382   14.1605   22.8145 C   0  0  0  0  0  0  0  0  0  0  0  0
    6.3231   14.6451   22.0532 O   0  0  0  0  0  0  0  0  0  0  0  0
    6.9866   13.9683   24.2945 C   0  0  0  0  0  0  0  0  0  0  0  0
    6.5852   12.6062   24.8395 C   0  0  0  0  0  0  0  0  0  0  0  0
    7.0383   12.4860   26.3108 C   0  0  0  0  0  0  0  0  0  0  0  0
    7.5162   13.7840   26.8411 N   0  0  0  0  0  0  0  0  0  0  0  0
    9.1134   14.3628   26.8032 S   0  0  0  0  0  0  0  0  0  0  0  0
    9.2576   15.3037   25.7169 O   0  0  0  0  0  0  0  0  0  0  0  0
    9.3885   14.7994   28.1481 O   0  0  0  0  0  0  0  0  0  0  0  0
   10.1788   13.0700   26.4880 N   0  0  0  0  0  0  0  0  0  0  0  0
   11.5876   13.6079   26.6189 C   0  0  0  0  0  0  0  0  0  0  0  0
   12.6308   12.5163   26.4540 C   0  0  0  0  0  0  0  0  0  0  0  0
   12.3910   11.6911   25.2083 C   0  0  0  0  0  0  0  0  0  0  0  0
   10.9269   11.2769   25.0251 C   0  0  0  0  0  0  0  0  0  0  0  0
   10.0279   12.4635   25.1600 C   0  0  0  0  0  0  0  0  0  0  0  0
    6.4980   14.8573   26.5965 C   0  0  0  0  0  0  0  0  0  0  0  0
    6.3146   15.0853   25.0826 C   0  0  0  0  0  0  0  0  0  0  0  0
   10.5564   13.5997   21.5875 C   0  0  0  0  0  0  0  0  0  0  0  0
   11.6613   14.3421   22.2853 C   0  0  1  0  0  0  0  0  0  0  0  0
   12.0555   15.4945   21.3824 C   0  0  0  0  0  0  0  0  0  0  0  0
   10.9060   16.4441   21.6756 C   0  0  0  0  0  0  0  0  0  0  0  0
    9.9777   15.6130   22.5424 C   0  0  2  0  0  0  0  0  0  0  0  0
   10.9660   14.9589   23.3590 O   0  0  0  0  0  0  0  0  0  0  0  0
  1  2  1  0
  3  2  1  6
  3  4  1  0
  4  5  1  0
  5  6  2  0
  5  7  1  0
  7  8  1  0
  8  9  1  0
  9 10  1  0
 10 11  1  0
 11 12  2  0
 11 13  2  0
 11 14  1  0
 14 15  1  0
 15 16  1  0
 16 17  1  0
 17 18  1  0
 18 19  1  0
 10 20  1  0
 20 21  1  0
  3 22  1  0
 23 22  1  6
 23 24  1  0
 24 25  1  0
 26 25  1  6
 26 27  1  0
 26  3  1  0
 21  7  1  0
 27 23  1  0
 19 14  1  0
M  END
>  <energy_score>  (2619) 
-29.12331

>  <inchikey>  (2619) 
None

>  <smiles>  (2619) 
None

>  <ref_pdb>  (2619) 
A4706a

>  <alias>  (2619) 
None

>  <HIPPO Pose ID>  (2619) 
500263

>  <name>  (2619) 
P500263

>  <HIPPO Compound ID>  (2619) 
314615

>  <ref_mols>  (2619) 
A4706a,A0875a

>  <distance_score>  (2619) 
1.693304

>  <inspiration_score>  (2619) 
None

$$$$
P500264
     RDKit          3D

 27 30  0  0  0  0  0  0  0  0999 V2000
    8.2251   17.2217   21.3220 N   0  0  0  0  0  0  0  0  0  0  0  0
    8.2703   15.7753   21.2117 C   0  0  0  0  0  0  0  0  0  0  0  0
    9.0664   14.9603   22.2419 C   0  0  1  0  0  0  0  0  0  0  0  0
    8.1904   14.7259   23.3884 O   0  0  0  0  0  0  0  0  0  0  0  0
    7.1176   13.8887   23.2343 C   0  0  0  0  0  0  0  0  0  0  0  0
    6.9191   13.1821   22.2448 O   0  0  0  0  0  0  0  0  0  0  0  0
    6.1564   13.8070   24.4193 C   0  0  0  0  0  0  0  0  0  0  0  0
    6.4066   12.5166   25.2380 C   0  0  0  0  0  0  0  0  0  0  0  0
    7.3863   12.7244   26.3985 C   0  0  0  0  0  0  0  0  0  0  0  0
    8.1477   13.9236   26.0670 N   0  0  0  0  0  0  0  0  0  0  0  0
    9.7635   14.1053   26.3632 S   0  0  0  0  0  0  0  0  0  0  0  0
    9.9251   14.2297   27.7885 O   0  0  0  0  0  0  0  0  0  0  0  0
   10.2640   15.1336   25.4890 O   0  0  0  0  0  0  0  0  0  0  0  0
   10.4439   12.6367   25.9216 N   0  0  0  0  0  0  0  0  0  0  0  0
   11.9081   12.6217   26.1567 C   0  0  0  0  0  0  0  0  0  0  0  0
   12.5593   11.4028   25.5098 C   0  0  0  0  0  0  0  0  0  0  0  0
   11.5936   10.2148   25.2405 C   0  0  0  0  0  0  0  0  0  0  0  0
   10.2404   10.6062   24.6576 C   0  0  0  0  0  0  0  0  0  0  0  0
   10.1153   12.1103   24.5930 C   0  0  0  0  0  0  0  0  0  0  0  0
    7.3388   15.1482   26.2232 C   0  0  0  0  0  0  0  0  0  0  0  0
    6.1340   15.0573   25.2954 C   0  0  0  0  0  0  0  0  0  0  0  0
    9.5853   13.6458   21.6508 C   0  0  0  0  0  0  0  0  0  0  0  0
   11.1005   13.7897   21.6397 C   0  0  1  0  0  0  0  0  0  0  0  0
   11.4983   14.7896   20.5735 C   0  0  0  0  0  0  0  0  0  0  0  0
   11.1476   16.0691   21.3024 C   0  0  0  0  0  0  0  0  0  0  0  0
   10.4407   15.5925   22.5627 C   0  0  2  0  0  0  0  0  0  0  0  0
   11.3106   14.4820   22.8698 O   0  0  0  0  0  0  0  0  0  0  0  0
  1  2  1  0
  3  2  1  6
  3  4  1  0
  4  5  1  0
  5  6  2  0
  5  7  1  0
  7  8  1  0
  8  9  1  0
  9 10  1  0
 10 11  1  0
 11 12  2  0
 11 13  2  0
 11 14  1  0
 14 15  1  0
 15 16  1  0
 16 17  1  0
 17 18  1  0
 18 19  1  0
 10 20  1  0
 20 21  1  0
  3 22  1  0
 23 22  1  6
 23 24  1  0
 24 25  1  0
 26 25  1  6
 26 27  1  0
 26  3  1  0
 21  7  1  0
 27 23  1  0
 19 14  1  0
M  END
>  <energy_score>  (2620) 
-13.23196

>  <inchikey>  (2620) 
None

>  <smiles>  (2620) 
None

>  <ref_pdb>  (2620) 
A4706a

>  <alias>  (2620) 
None

>  <HIPPO Pose ID>  (2620) 
500264

>  <name>  (2620) 
P500264

>  <HIPPO Compound ID>  (2620) 
314615

>  <ref_mols>  (2620) 
A4706a,A0875a

>  <distance_score>  (2620) 
1.742115

>  <inspiration_score>  (2620) 
None

$$$$
P500265
     RDKit          3D

 27 30  0  0  0  0  0  0  0  0999 V2000
    6.9150   16.1629   23.0658 N   0  0  0  0  0  0  0  0  0  0  0  0
    7.8718   16.3033   21.9589 C   0  0  0  0  0  0  0  0  0  0  0  0
    8.9572   15.2212   21.7012 C   0  0  2  0  0  0  0  0  0  0  0  0
    8.3186   13.9351   21.5550 O   0  0  0  0  0  0  0  0  0  0  0  0
    7.5085   13.4401   22.5355 C   0  0  0  0  0  0  0  0  0  0  0  0
    6.3580   13.1009   22.2657 O   0  0  0  0  0  0  0  0  0  0  0  0
    8.0790   13.2122   23.9179 C   0  0  0  0  0  0  0  0  0  0  0  0
    8.1001   11.7317   24.2880 C   0  0  0  0  0  0  0  0  0  0  0  0
    8.9862   11.4977   25.5069 C   0  0  0  0  0  0  0  0  0  0  0  0
    9.0804   12.6889   26.3655 N   0  0  0  0  0  0  0  0  0  0  0  0
   10.4302   13.6954   26.4769 S   0  0  0  0  0  0  0  0  0  0  0  0
   10.3516   14.2631   27.7981 O   0  0  0  0  0  0  0  0  0  0  0  0
   10.5082   14.5639   25.3336 O   0  0  0  0  0  0  0  0  0  0  0  0
   11.7863   12.6588   26.4118 N   0  0  0  0  0  0  0  0  0  0  0  0
   12.3296   12.4384   25.0641 C   0  0  0  0  0  0  0  0  0  0  0  0
   13.3312   11.2831   25.1471 C   0  0  0  0  0  0  0  0  0  0  0  0
   14.4540   11.4382   26.1416 C   0  0  0  0  0  0  0  0  0  0  0  0
   14.3020   12.7289   26.8809 C   0  0  0  0  0  0  0  0  0  0  0  0
   12.8798   12.9647   27.3958 C   0  0  0  0  0  0  0  0  0  0  0  0
    7.7704   13.4137   26.4295 C   0  0  0  0  0  0  0  0  0  0  0  0
    7.4383   14.0095   25.0610 C   0  0  0  0  0  0  0  0  0  0  0  0
   10.1740   15.1446   22.6340 C   0  0  0  0  0  0  0  0  0  0  0  0
   11.3319   15.6441   21.8062 C   0  0  1  0  0  0  0  0  0  0  0  0
   11.7298   14.6412   20.7304 C   0  0  0  0  0  0  0  0  0  0  0  0
   10.6178   14.7916   19.7213 C   0  0  0  0  0  0  0  0  0  0  0  0
    9.6874   15.7421   20.4277 C   0  0  2  0  0  0  0  0  0  0  0  0
   10.6496   16.6263   21.0488 O   0  0  0  0  0  0  0  0  0  0  0  0
  1  2  1  0
  3  2  1  1
  3  4  1  0
  4  5  1  0
  5  6  2  0
  5  7  1  0
  7  8  1  0
  8  9  1  0
  9 10  1  0
 10 11  1  0
 11 12  2  0
 11 13  2  0
 11 14  1  0
 14 15  1  0
 15 16  1  0
 16 17  1  0
 17 18  1  0
 18 19  1  0
 10 20  1  0
 20 21  1  0
  3 22  1  0
 23 22  1  1
 23 24  1  0
 24 25  1  0
 26 25  1  1
 26 27  1  0
 26  3  1  0
 21  7  1  0
 27 23  1  0
 19 14  1  0
M  END
>  <energy_score>  (2621) 
-52.428443

>  <inchikey>  (2621) 
None

>  <smiles>  (2621) 
None

>  <ref_pdb>  (2621) 
A4706a

>  <alias>  (2621) 
None

>  <HIPPO Pose ID>  (2621) 
500265

>  <name>  (2621) 
P500265

>  <HIPPO Compound ID>  (2621) 
314615

>  <ref_mols>  (2621) 
A4706a,A0875a

>  <distance_score>  (2621) 
1.627653

>  <inspiration_score>  (2621) 
None

$$$$
P500266
     RDKit          3D

 27 29  0  0  0  0  0  0  0  0999 V2000
   11.6648   14.8896   18.2364 C   0  0  0  0  0  0  0  0  0  0  0  0
   10.3687   14.6261   18.6947 O   0  0  0  0  0  0  0  0  0  0  0  0
   10.0840   15.4096   19.8262 C   0  0  0  0  0  0  0  0  0  0  0  0
   10.5052   14.6844   21.0802 C   0  0  0  0  0  0  0  0  0  0  0  0
   10.0253   15.4105   22.1875 O   0  0  0  0  0  0  0  0  0  0  0  0
    9.2128   14.6225   23.0517 C   0  0  0  0  0  0  0  0  0  0  0  0
    7.7133   14.6217   22.7602 C   0  0  0  0  0  0  0  0  0  0  0  0
    6.9510   13.9285   23.7771 O   0  0  0  0  0  0  0  0  0  0  0  0
    5.5943   14.0040   23.9104 C   0  0  0  0  0  0  0  0  0  0  0  0
    4.7958   14.4900   23.1189 O   0  0  0  0  0  0  0  0  0  0  0  0
    5.1418   13.4726   25.2588 C   0  0  0  0  0  0  0  0  0  0  0  0
    5.9716   12.2875   25.7799 C   0  0  0  0  0  0  0  0  0  0  0  0
    6.9936   12.7326   26.8251 C   0  0  0  0  0  0  0  0  0  0  0  0
    7.5546   14.0103   26.3714 N   0  0  0  0  0  0  0  0  0  0  0  0
    9.1325   14.4682   26.6502 S   0  0  0  0  0  0  0  0  0  0  0  0
    9.2926   15.8139   26.1693 O   0  0  0  0  0  0  0  0  0  0  0  0
    9.4744   14.1552   28.0100 O   0  0  0  0  0  0  0  0  0  0  0  0
   10.1038   13.5091   25.6503 N   0  0  0  0  0  0  0  0  0  0  0  0
    9.8675   12.0708   25.7002 C   0  0  0  0  0  0  0  0  0  0  0  0
   10.9292   11.2631   25.0052 C   0  0  0  0  0  0  0  0  0  0  0  0
   12.3397   11.6949   25.3984 C   0  0  0  0  0  0  0  0  0  0  0  0
   12.4863   13.1343   24.9839 C   0  0  0  0  0  0  0  0  0  0  0  0
   11.5183   13.9554   25.8040 C   0  0  0  0  0  0  0  0  0  0  0  0
    6.5758   15.1246   26.5362 C   0  0  0  0  0  0  0  0  0  0  0  0
    5.1548   14.6398   26.2457 C   0  0  0  0  0  0  0  0  0  0  0  0
    7.1510   14.4674   21.3857 C   0  0  0  0  0  0  0  0  0  0  0  0
    7.1475   15.8201   22.0585 C   0  0  0  0  0  0  0  0  0  0  0  0
  1  2  1  0
  2  3  1  0
  3  4  1  0
  4  5  1  0
  5  6  1  0
  6  7  1  0
  7  8  1  0
  8  9  1  0
  9 10  2  0
  9 11  1  0
 11 12  1  0
 12 13  1  0
 13 14  1  0
 14 15  1  0
 15 16  2  0
 15 17  2  0
 15 18  1  0
 18 19  1  0
 19 20  1  0
 20 21  1  0
 21 22  1  0
 22 23  1  0
 14 24  1  0
 24 25  1  0
  7 26  1  0
 26 27  1  0
 27  7  1  0
 25 11  1  0
 23 18  1  0
M  END
>  <energy_score>  (2622) 
-46.646021

>  <inchikey>  (2622) 
None

>  <smiles>  (2622) 
None

>  <ref_pdb>  (2622) 
A4706a

>  <alias>  (2622) 
None

>  <HIPPO Pose ID>  (2622) 
500266

>  <name>  (2622) 
P500266

>  <HIPPO Compound ID>  (2622) 
314616

>  <ref_mols>  (2622) 
A0875a,A4706a

>  <distance_score>  (2622) 
1.926919

>  <inspiration_score>  (2622) 
None

$$$$
P500267
     RDKit          3D

 27 28  0  0  0  0  0  0  0  0999 V2000
   15.0818    9.5670   31.4269 C   0  0  0  0  0  0  0  0  0  0  0  0
   15.9263   10.3031   30.5360 O   0  0  0  0  0  0  0  0  0  0  0  0
   15.2690   11.1145   29.6726 C   0  0  0  0  0  0  0  0  0  0  0  0
   14.0467   11.2202   29.6182 O   0  0  0  0  0  0  0  0  0  0  0  0
   16.2138   11.9814   28.8339 C   0  0  2  0  0  0  0  0  0  0  0  0
   15.5029   12.5920   27.7141 O   0  0  0  0  0  0  0  0  0  0  0  0
   14.8000   11.8151   26.8467 C   0  0  0  0  0  0  0  0  0  0  0  0
   14.9573   10.6217   26.6584 O   0  0  0  0  0  0  0  0  0  0  0  0
   13.7063   12.6254   26.1857 C   0  0  0  0  0  0  0  0  0  0  0  0
   12.7437   13.0847   27.2607 C   0  0  0  0  0  0  0  0  0  0  0  0
   11.5022   13.8054   26.7655 C   0  0  0  0  0  0  0  0  0  0  0  0
   10.8553   13.1388   25.6006 N   0  0  0  0  0  0  0  0  0  0  0  0
    9.5368   14.0710   25.0146 S   0  0  0  0  0  0  0  0  0  0  0  0
    9.3938   13.8963   23.5920 O   0  0  0  0  0  0  0  0  0  0  0  0
    9.6483   15.3760   25.6161 O   0  0  0  0  0  0  0  0  0  0  0  0
    8.2497   13.2827   25.7693 N   0  0  0  0  0  0  0  0  0  0  0  0
    7.8691   11.9822   25.1653 C   0  0  0  0  0  0  0  0  0  0  0  0
    6.9222   11.2624   26.1159 C   0  0  0  0  0  0  0  0  0  0  0  0
    5.7061   12.1114   26.4736 C   0  0  0  0  0  0  0  0  0  0  0  0
    6.1216   13.4933   26.9613 C   0  0  0  0  0  0  0  0  0  0  0  0
    7.0560   14.1575   25.9584 C   0  0  0  0  0  0  0  0  0  0  0  0
   11.8197   12.7614   24.5483 C   0  0  0  0  0  0  0  0  0  0  0  0
   12.8903   11.8506   25.1649 C   0  0  0  0  0  0  0  0  0  0  0  0
   17.6175   11.4386   28.4914 C   0  0  0  0  0  0  0  0  0  0  0  0
   17.6703   10.1001   27.7655 C   0  0  0  0  0  0  0  0  0  0  0  0
   18.5437   11.3865   29.7138 C   0  0  0  0  0  0  0  0  0  0  0  0
   18.1934   12.3662   27.6550 F   0  0  0  0  0  0  0  0  0  0  0  0
  1  2  1  0
  2  3  1  0
  3  4  2  0
  3  5  1  0
  5  6  1  6
  6  7  1  0
  7  8  2  0
  7  9  1  0
  9 10  1  0
 10 11  1  0
 11 12  1  0
 12 13  1  0
 13 14  2  0
 13 15  2  0
 13 16  1  0
 16 17  1  0
 17 18  1  0
 18 19  1  0
 19 20  1  0
 20 21  1  0
 12 22  1  0
 22 23  1  0
  5 24  1  0
 24 25  1  0
 24 26  1  0
 24 27  1  0
 23  9  1  0
 21 16  1  0
M  END
>  <energy_score>  (2623) 
-55.124129

>  <inchikey>  (2623) 
None

>  <smiles>  (2623) 
None

>  <ref_pdb>  (2623) 
A4706a

>  <alias>  (2623) 
None

>  <HIPPO Pose ID>  (2623) 
500267

>  <name>  (2623) 
P500267

>  <HIPPO Compound ID>  (2623) 
314617

>  <ref_mols>  (2623) 
A4706a,A0875a

>  <distance_score>  (2623) 
1.728016

>  <inspiration_score>  (2623) 
None

$$$$
P500268
     RDKit          3D

 27 29  0  0  0  0  0  0  0  0999 V2000
   12.1383   14.8911   20.1442 C   0  0  0  0  0  0  0  0  0  0  0  0
   10.9740   15.4772   19.3786 C   0  0  0  0  0  0  0  0  0  0  0  0
   10.4334   14.5005   18.4077 C   0  0  0  0  0  0  0  0  0  0  0  0
    9.9586   16.2187   20.0266 O   0  0  0  0  0  0  0  0  0  0  0  0
    9.4248   16.0133   21.3292 C   0  0  2  0  0  0  0  0  0  0  0  0
   10.4292   15.7513   22.4390 C   0  0  0  0  0  0  0  0  0  0  0  0
   10.5541   14.3360   22.5899 O   0  0  0  0  0  0  0  0  0  0  0  0
    9.4765   13.7602   21.8272 C   0  0  0  0  0  0  0  0  0  0  0  0
    8.4699   14.8399   21.4656 C   0  0  1  0  0  0  0  0  0  0  0  0
    7.5103   15.1005   22.5316 O   0  0  0  0  0  0  0  0  0  0  0  0
    6.5985   14.1183   22.7826 C   0  0  0  0  0  0  0  0  0  0  0  0
    6.4372   13.1463   22.0465 O   0  0  0  0  0  0  0  0  0  0  0  0
    5.8300   14.2657   24.1243 C   0  0  0  0  0  0  0  0  0  0  0  0
    5.8817   12.9200   24.9131 C   0  0  0  0  0  0  0  0  0  0  0  0
    6.6245   12.8664   26.2552 C   0  0  0  0  0  0  0  0  0  0  0  0
    7.4959   14.0427   26.4782 N   0  0  0  0  0  0  0  0  0  0  0  0
    8.9117   14.1353   25.5648 S   0  0  0  0  0  0  0  0  0  0  0  0
    8.5734   13.5524   24.3068 O   0  0  0  0  0  0  0  0  0  0  0  0
    9.4570   15.4595   25.6914 O   0  0  0  0  0  0  0  0  0  0  0  0
    9.9240   13.0437   26.2936 N   0  0  0  0  0  0  0  0  0  0  0  0
   11.2831   13.5314   26.6197 C   0  0  0  0  0  0  0  0  0  0  0  0
   12.2912   13.1880   25.5456 C   0  0  0  0  0  0  0  0  0  0  0  0
   12.3221   11.6981   25.3968 C   0  0  0  0  0  0  0  0  0  0  0  0
   10.9518   11.2098   24.9459 C   0  0  0  0  0  0  0  0  0  0  0  0
    9.7778   11.6750   25.7589 C   0  0  0  0  0  0  0  0  0  0  0  0
    6.6436   15.2536   26.3936 C   0  0  0  0  0  0  0  0  0  0  0  0
    6.1691   15.5114   24.9653 C   0  0  0  0  0  0  0  0  0  0  0  0
  1  2  1  0
  2  3  1  0
  2  4  1  0
  5  4  1  6
  5  6  1  0
  6  7  1  0
  7  8  1  0
  8  9  1  0
  9 10  1  1
 10 11  1  0
 11 12  2  0
 11 13  1  0
 13 14  1  0
 14 15  1  0
 15 16  1  0
 16 17  1  0
 17 18  2  0
 17 19  2  0
 17 20  1  0
 20 21  1  0
 21 22  1  0
 22 23  1  0
 23 24  1  0
 24 25  1  0
 16 26  1  0
 26 27  1  0
  9  5  1  0
 27 13  1  0
 25 20  1  0
M  END
>  <energy_score>  (2624) 
-27.818404

>  <inchikey>  (2624) 
None

>  <smiles>  (2624) 
None

>  <ref_pdb>  (2624) 
A4706a

>  <alias>  (2624) 
None

>  <HIPPO Pose ID>  (2624) 
500268

>  <name>  (2624) 
P500268

>  <HIPPO Compound ID>  (2624) 
314618

>  <ref_mols>  (2624) 
A4706a,A0875a

>  <distance_score>  (2624) 
1.738556

>  <inspiration_score>  (2624) 
None

$$$$
P500269
     RDKit          3D

 27 29  0  0  0  0  0  0  0  0999 V2000
   11.2630   15.1047   18.7227 C   0  0  0  0  0  0  0  0  0  0  0  0
   11.3376   14.5676   20.1309 C   0  0  0  0  0  0  0  0  0  0  0  0
   12.1678   15.3456   21.1444 C   0  0  0  0  0  0  0  0  0  0  0  0
   10.0051   14.2668   20.5453 O   0  0  0  0  0  0  0  0  0  0  0  0
    9.4068   15.1296   21.4941 C   0  0  1  0  0  0  0  0  0  0  0  0
    9.2294   16.5421   20.9985 C   0  0  0  0  0  0  0  0  0  0  0  0
    8.0344   17.0452   21.5590 O   0  0  0  0  0  0  0  0  0  0  0  0
    7.2893   15.9897   22.1438 C   0  0  0  0  0  0  0  0  0  0  0  0
    7.9862   14.6833   21.8232 C   0  0  2  0  0  0  0  0  0  0  0  0
    7.9184   13.8274   22.9843 O   0  0  0  0  0  0  0  0  0  0  0  0
    6.6794   13.3645   23.2599 C   0  0  0  0  0  0  0  0  0  0  0  0
    5.8257   13.1976   22.4005 O   0  0  0  0  0  0  0  0  0  0  0  0
    6.4655   13.0060   24.7191 C   0  0  0  0  0  0  0  0  0  0  0  0
    7.3052   11.8028   25.1485 C   0  0  0  0  0  0  0  0  0  0  0  0
    8.7538   12.1784   25.4068 C   0  0  0  0  0  0  0  0  0  0  0  0
    8.9021   13.3667   26.2761 N   0  0  0  0  0  0  0  0  0  0  0  0
   10.0167   14.5610   25.8231 S   0  0  0  0  0  0  0  0  0  0  0  0
    9.7727   14.9662   24.4724 O   0  0  0  0  0  0  0  0  0  0  0  0
   10.0052   15.5473   26.8749 O   0  0  0  0  0  0  0  0  0  0  0  0
   11.5062   13.7872   25.8970 N   0  0  0  0  0  0  0  0  0  0  0  0
   11.8587   13.3218   27.2293 C   0  0  0  0  0  0  0  0  0  0  0  0
   13.2913   12.8434   27.4149 C   0  0  0  0  0  0  0  0  0  0  0  0
   13.9357   12.2630   26.1821 C   0  0  0  0  0  0  0  0  0  0  0  0
   12.8842   11.8561   25.1857 C   0  0  0  0  0  0  0  0  0  0  0  0
   12.0046   13.0255   24.7454 C   0  0  0  0  0  0  0  0  0  0  0  0
    7.6059   13.9088   26.7855 C   0  0  0  0  0  0  0  0  0  0  0  0
    6.6587   14.2161   25.6383 C   0  0  0  0  0  0  0  0  0  0  0  0
  1  2  1  0
  2  3  1  0
  2  4  1  0
  5  4  1  6
  5  6  1  0
  6  7  1  0
  7  8  1  0
  8  9  1  0
  9 10  1  1
 10 11  1  0
 11 12  2  0
 11 13  1  0
 13 14  1  0
 14 15  1  0
 15 16  1  0
 16 17  1  0
 17 18  2  0
 17 19  2  0
 17 20  1  0
 20 21  1  0
 21 22  1  0
 22 23  1  0
 23 24  1  0
 24 25  1  0
 16 26  1  0
 26 27  1  0
  9  5  1  0
 27 13  1  0
 25 20  1  0
M  END
>  <energy_score>  (2625) 
-46.414775

>  <inchikey>  (2625) 
None

>  <smiles>  (2625) 
None

>  <ref_pdb>  (2625) 
A4706a

>  <alias>  (2625) 
None

>  <HIPPO Pose ID>  (2625) 
500269

>  <name>  (2625) 
P500269

>  <HIPPO Compound ID>  (2625) 
314618

>  <ref_mols>  (2625) 
A0875a,A4706a

>  <distance_score>  (2625) 
1.93584

>  <inspiration_score>  (2625) 
None

$$$$
P500270
     RDKit          3D

 27 29  0  0  0  0  0  0  0  0999 V2000
   11.5669   15.0443   18.2322 C   0  0  0  0  0  0  0  0  0  0  0  0
   10.3039   15.0322   19.0325 C   0  0  0  0  0  0  0  0  0  0  0  0
    9.0668   15.1464   18.2209 C   0  0  0  0  0  0  0  0  0  0  0  0
   10.2060   16.1557   19.8746 O   0  0  0  0  0  0  0  0  0  0  0  0
   10.6451   15.9687   21.1846 C   0  0  2  0  0  0  0  0  0  0  0  0
   11.9209   15.1724   21.3813 C   0  0  0  0  0  0  0  0  0  0  0  0
   11.9919   14.9119   22.7683 O   0  0  0  0  0  0  0  0  0  0  0  0
   10.6763   15.1354   23.2681 C   0  0  0  0  0  0  0  0  0  0  0  0
    9.6565   15.3912   22.1795 C   0  0  2  0  0  0  0  0  0  0  0  0
    8.9652   14.1836   21.7517 O   0  0  0  0  0  0  0  0  0  0  0  0
    7.8104   13.7731   22.3641 C   0  0  0  0  0  0  0  0  0  0  0  0
    6.7962   13.4998   21.7308 O   0  0  0  0  0  0  0  0  0  0  0  0
    7.8491   13.5544   23.8536 C   0  0  0  0  0  0  0  0  0  0  0  0
    7.7464   12.0853   24.2666 C   0  0  0  0  0  0  0  0  0  0  0  0
    8.2050   11.8836   25.7094 C   0  0  0  0  0  0  0  0  0  0  0  0
    8.1900   13.1547   26.4417 N   0  0  0  0  0  0  0  0  0  0  0  0
    9.5493   14.0864   26.7589 S   0  0  0  0  0  0  0  0  0  0  0  0
    9.6868   15.0938   25.7382 O   0  0  0  0  0  0  0  0  0  0  0  0
    9.3823   14.5228   28.1211 O   0  0  0  0  0  0  0  0  0  0  0  0
   10.9315   13.0504   26.6960 N   0  0  0  0  0  0  0  0  0  0  0  0
   11.4868   12.7931   25.3370 C   0  0  0  0  0  0  0  0  0  0  0  0
   12.6533   11.8279   25.3728 C   0  0  0  0  0  0  0  0  0  0  0  0
   13.7855   12.3201   26.2390 C   0  0  0  0  0  0  0  0  0  0  0  0
   13.2758   12.8017   27.5805 C   0  0  0  0  0  0  0  0  0  0  0  0
   12.0232   13.6818   27.5166 C   0  0  0  0  0  0  0  0  0  0  0  0
    6.9465   13.9477   26.1776 C   0  0  0  0  0  0  0  0  0  0  0  0
    6.8982   14.3961   24.7029 C   0  0  0  0  0  0  0  0  0  0  0  0
  1  2  1  0
  2  3  1  0
  2  4  1  0
  5  4  1  6
  5  6  1  0
  6  7  1  0
  7  8  1  0
  8  9  1  0
  9 10  1  6
 10 11  1  0
 11 12  2  0
 11 13  1  0
 13 14  1  0
 14 15  1  0
 15 16  1  0
 16 17  1  0
 17 18  2  0
 17 19  2  0
 17 20  1  0
 20 21  1  0
 21 22  1  0
 22 23  1  0
 23 24  1  0
 24 25  1  0
 16 26  1  0
 26 27  1  0
  9  5  1  0
 27 13  1  0
 25 20  1  0
M  END
>  <energy_score>  (2626) 
-10.663561

>  <inchikey>  (2626) 
None

>  <smiles>  (2626) 
None

>  <ref_pdb>  (2626) 
A4706a

>  <alias>  (2626) 
None

>  <HIPPO Pose ID>  (2626) 
500270

>  <name>  (2626) 
P500270

>  <HIPPO Compound ID>  (2626) 
314618

>  <ref_mols>  (2626) 
A4706a,A0875a

>  <distance_score>  (2626) 
1.60846

>  <inspiration_score>  (2626) 
None

$$$$
P500271
     RDKit          3D

 27 30  0  0  0  0  0  0  0  0999 V2000
    7.0435   13.1396   22.2574 O   0  0  0  0  0  0  0  0  0  0  0  0
    7.2391   13.9960   23.1189 C   0  0  0  0  0  0  0  0  0  0  0  0
    8.0701   15.0695   22.9957 O   0  0  0  0  0  0  0  0  0  0  0  0
    8.8516   15.4239   21.7919 C   0  0  2  0  0  0  0  0  0  0  0  0
    8.5724   14.6047   20.5617 C   0  0  0  0  0  0  0  0  0  0  0  0
    9.4415   14.9939   19.3515 C   0  0  0  0  0  0  0  0  0  0  0  0
   10.2615   16.1938   19.5709 C   0  0  0  0  0  0  0  0  0  0  0  0
   10.9853   16.0725   20.7759 O   0  0  0  0  0  0  0  0  0  0  0  0
   10.3855   15.3376   21.8848 C   0  0  0  0  0  0  0  0  0  0  0  0
   11.0398   15.7051   23.1956 C   0  0  0  0  0  0  0  0  0  0  0  0
   11.9832   14.5800   23.0784 N   0  0  0  0  0  0  0  0  0  0  0  0
   11.0915   13.9657   22.0712 C   0  0  0  0  0  0  0  0  0  0  0  0
    6.4541   13.9163   24.4483 C   0  0  0  0  0  0  0  0  0  0  0  0
    6.4072   12.4663   24.9880 C   0  0  0  0  0  0  0  0  0  0  0  0
    7.6259   11.9941   25.7899 C   0  0  0  0  0  0  0  0  0  0  0  0
    8.2578   13.1056   26.5470 N   0  0  0  0  0  0  0  0  0  0  0  0
    9.6503   13.7559   25.8481 S   0  0  0  0  0  0  0  0  0  0  0  0
    9.4686   13.5871   24.4367 O   0  0  0  0  0  0  0  0  0  0  0  0
    9.8221   15.0550   26.4551 O   0  0  0  0  0  0  0  0  0  0  0  0
   10.9594   12.7635   26.3130 N   0  0  0  0  0  0  0  0  0  0  0  0
   12.0574   13.6043   26.8645 C   0  0  0  0  0  0  0  0  0  0  0  0
   13.4717   13.0857   26.6451 C   0  0  0  0  0  0  0  0  0  0  0  0
   13.5290   11.6148   26.6668 C   0  0  0  0  0  0  0  0  0  0  0  0
   12.7490   11.1702   25.4524 C   0  0  0  0  0  0  0  0  0  0  0  0
   11.3708   11.8102   25.2515 C   0  0  0  0  0  0  0  0  0  0  0  0
    7.2446   14.1658   26.8635 C   0  0  0  0  0  0  0  0  0  0  0  0
    6.7964   14.8894   25.5830 C   0  0  0  0  0  0  0  0  0  0  0  0
  1  2  2  0
  2  3  1  0
  4  3  1  1
  4  5  1  0
  5  6  1  0
  6  7  1  0
  7  8  1  0
  8  9  1  0
  9 10  1  0
 10 11  1  0
 11 12  1  0
  2 13  1  0
 13 14  1  0
 14 15  1  0
 15 16  1  0
 16 17  1  0
 17 18  2  0
 17 19  2  0
 17 20  1  0
 20 21  1  0
 21 22  1  0
 22 23  1  0
 23 24  1  0
 24 25  1  0
 16 26  1  0
 26 27  1  0
  9  4  1  0
 27 13  1  0
 12  9  1  0
 25 20  1  0
M  END
>  <energy_score>  (2627) 
-21.291819

>  <inchikey>  (2627) 
None

>  <smiles>  (2627) 
None

>  <ref_pdb>  (2627) 
A4706a

>  <alias>  (2627) 
None

>  <HIPPO Pose ID>  (2627) 
500271

>  <name>  (2627) 
P500271

>  <HIPPO Compound ID>  (2627) 
314619

>  <ref_mols>  (2627) 
A0875a,A4706a

>  <distance_score>  (2627) 
1.481394

>  <inspiration_score>  (2627) 
None

$$$$
P500272
     RDKit          3D

 27 30  0  0  0  0  0  0  0  0999 V2000
    6.5682   15.4201   22.1336 O   0  0  0  0  0  0  0  0  0  0  0  0
    7.4776   15.0976   22.8685 C   0  0  0  0  0  0  0  0  0  0  0  0
    8.8353   15.1852   22.6598 O   0  0  0  0  0  0  0  0  0  0  0  0
    9.4754   15.6240   21.4466 C   0  0  2  0  0  0  0  0  0  0  0  0
    8.8987   14.8855   20.2792 C   0  0  0  0  0  0  0  0  0  0  0  0
    9.5281   15.4475   19.0099 C   0  0  0  0  0  0  0  0  0  0  0  0
   10.9649   15.0144   18.9520 C   0  0  0  0  0  0  0  0  0  0  0  0
   11.5903   15.4688   20.1333 O   0  0  0  0  0  0  0  0  0  0  0  0
   10.9623   15.1883   21.4152 C   0  0  0  0  0  0  0  0  0  0  0  0
   11.2525   13.7920   22.0074 C   0  0  0  0  0  0  0  0  0  0  0  0
   11.6807   14.4152   23.2717 N   0  0  0  0  0  0  0  0  0  0  0  0
   11.8345   15.6829   22.5552 C   0  0  0  0  0  0  0  0  0  0  0  0
    7.3517   14.4226   24.2020 C   0  0  0  0  0  0  0  0  0  0  0  0
    7.8173   12.9631   24.0540 C   0  0  0  0  0  0  0  0  0  0  0  0
    7.8394   12.2143   25.3697 C   0  0  0  0  0  0  0  0  0  0  0  0
    8.0873   13.1784   26.4406 N   0  0  0  0  0  0  0  0  0  0  0  0
    9.5802   13.9977   26.5270 S   0  0  0  0  0  0  0  0  0  0  0  0
    9.5206   14.7504   27.7551 O   0  0  0  0  0  0  0  0  0  0  0  0
    9.9107   14.6914   25.3045 O   0  0  0  0  0  0  0  0  0  0  0  0
   10.8220   12.8299   26.7000 N   0  0  0  0  0  0  0  0  0  0  0  0
   11.9948   13.5570   27.2714 C   0  0  0  0  0  0  0  0  0  0  0  0
   13.2337   12.7010   27.4077 C   0  0  0  0  0  0  0  0  0  0  0  0
   13.7225   12.2935   26.0551 C   0  0  0  0  0  0  0  0  0  0  0  0
   12.6113   11.6946   25.2396 C   0  0  0  0  0  0  0  0  0  0  0  0
   11.1438   12.0483   25.4745 C   0  0  0  0  0  0  0  0  0  0  0  0
    6.8496   14.0852   26.5832 C   0  0  0  0  0  0  0  0  0  0  0  0
    6.2233   14.4678   25.2010 C   0  0  0  0  0  0  0  0  0  0  0  0
  1  2  2  0
  2  3  1  0
  4  3  1  1
  4  5  1  0
  5  6  1  0
  6  7  1  0
  7  8  1  0
  8  9  1  0
  9 10  1  0
 10 11  1  0
 11 12  1  0
  2 13  1  0
 13 14  1  0
 14 15  1  0
 15 16  1  0
 16 17  1  0
 17 18  2  0
 17 19  2  0
 17 20  1  0
 20 21  1  0
 21 22  1  0
 22 23  1  0
 23 24  1  0
 24 25  1  0
 16 26  1  0
 26 27  1  0
  9  4  1  0
 27 13  1  0
 12  9  1  0
 25 20  1  0
M  END
>  <energy_score>  (2628) 
-14.191574

>  <inchikey>  (2628) 
None

>  <smiles>  (2628) 
None

>  <ref_pdb>  (2628) 
A4706a

>  <alias>  (2628) 
None

>  <HIPPO Pose ID>  (2628) 
500272

>  <name>  (2628) 
P500272

>  <HIPPO Compound ID>  (2628) 
314619

>  <ref_mols>  (2628) 
A4706a,A0875a

>  <distance_score>  (2628) 
1.703336

>  <inspiration_score>  (2628) 
None

$$$$
P500273
     RDKit          3D

 27 30  0  0  0  0  0  0  0  0999 V2000
    5.9944   12.8827   22.0960 O   0  0  0  0  0  0  0  0  0  0  0  0
    6.2484   13.7399   22.9364 C   0  0  0  0  0  0  0  0  0  0  0  0
    7.1930   14.6868   22.7246 O   0  0  0  0  0  0  0  0  0  0  0  0
    7.8844   14.5196   21.4571 C   0  0  0  0  0  0  0  0  0  0  0  0
    8.7623   15.7216   21.1488 C   0  0  2  0  0  0  0  0  0  0  0  0
    9.5112   15.7214   19.8052 C   0  0  0  0  0  0  0  0  0  0  0  0
   10.7786   15.1117   20.0269 O   0  0  0  0  0  0  0  0  0  0  0  0
   10.9788   14.9599   21.4422 C   0  0  0  0  0  0  0  0  0  0  0  0
   12.2817   15.3535   22.0895 C   0  0  0  0  0  0  0  0  0  0  0  0
   12.2294   14.1520   22.9333 O   0  0  0  0  0  0  0  0  0  0  0  0
   11.3761   13.5695   21.9080 C   0  0  0  0  0  0  0  0  0  0  0  0
    9.8969   15.7497   22.1240 C   0  0  0  0  0  0  0  0  0  0  0  0
    5.5709   13.7133   24.2988 C   0  0  0  0  0  0  0  0  0  0  0  0
    6.1179   12.5559   25.1732 C   0  0  0  0  0  0  0  0  0  0  0  0
    7.0209   13.0329   26.3146 C   0  0  0  0  0  0  0  0  0  0  0  0
    7.7819   14.1609   25.7736 N   0  0  0  0  0  0  0  0  0  0  0  0
    9.2810   14.5463   26.3871 S   0  0  0  0  0  0  0  0  0  0  0  0
    9.1337   14.8440   27.7863 O   0  0  0  0  0  0  0  0  0  0  0  0
    9.8680   15.4942   25.4731 O   0  0  0  0  0  0  0  0  0  0  0  0
   10.2226   13.1540   26.2721 N   0  0  0  0  0  0  0  0  0  0  0  0
   11.6560   13.5702   26.4926 C   0  0  0  0  0  0  0  0  0  0  0  0
   12.6240   12.4109   26.4378 C   0  0  0  0  0  0  0  0  0  0  0  0
   12.3545   11.5341   25.2363 C   0  0  0  0  0  0  0  0  0  0  0  0
   10.8637   11.2206   25.0032 C   0  0  0  0  0  0  0  0  0  0  0  0
   10.0686   12.4896   24.9771 C   0  0  0  0  0  0  0  0  0  0  0  0
    6.9299   15.3758   25.6397 C   0  0  0  0  0  0  0  0  0  0  0  0
    5.5766   15.0391   25.0403 C   0  0  0  0  0  0  0  0  0  0  0  0
  1  2  2  0
  2  3  1  0
  3  4  1  0
  5  4  1  1
  5  6  1  0
  6  7  1  0
  7  8  1  0
  8  9  1  0
  9 10  1  0
 10 11  1  0
  8 12  1  0
  2 13  1  0
 13 14  1  0
 14 15  1  0
 15 16  1  0
 16 17  1  0
 17 18  2  0
 17 19  2  0
 17 20  1  0
 20 21  1  0
 21 22  1  0
 22 23  1  0
 23 24  1  0
 24 25  1  0
 16 26  1  0
 26 27  1  0
 12  5  1  0
 27 13  1  0
 11  8  1  0
 25 20  1  0
M  END
>  <energy_score>  (2629) 
-90.847761

>  <inchikey>  (2629) 
None

>  <smiles>  (2629) 
None

>  <ref_pdb>  (2629) 
A4706a

>  <alias>  (2629) 
None

>  <HIPPO Pose ID>  (2629) 
500273

>  <name>  (2629) 
P500273

>  <HIPPO Compound ID>  (2629) 
314620

>  <ref_mols>  (2629) 
A4706a,A0875a

>  <distance_score>  (2629) 
1.795105

>  <inspiration_score>  (2629) 
None

$$$$
P500274
     RDKit          3D

 27 30  0  0  0  0  0  0  0  0999 V2000
    5.7327   14.9245   21.6808 O   0  0  0  0  0  0  0  0  0  0  0  0
    6.3626   15.4589   22.5774 C   0  0  0  0  0  0  0  0  0  0  0  0
    7.0799   16.6108   22.5108 O   0  0  0  0  0  0  0  0  0  0  0  0
    7.9334   16.9380   21.3877 C   0  0  0  0  0  0  0  0  0  0  0  0
    8.8753   15.7963   21.0155 C   0  0  1  0  0  0  0  0  0  0  0  0
    9.6029   15.8338   19.6642 C   0  0  0  0  0  0  0  0  0  0  0  0
   10.8106   15.0832   19.8778 O   0  0  0  0  0  0  0  0  0  0  0  0
   11.0398   14.9917   21.3004 C   0  0  0  0  0  0  0  0  0  0  0  0
   12.3769   15.3361   21.8827 C   0  0  0  0  0  0  0  0  0  0  0  0
   12.2837   14.2115   22.8037 O   0  0  0  0  0  0  0  0  0  0  0  0
   11.2963   13.6307   21.9176 C   0  0  0  0  0  0  0  0  0  0  0  0
   10.0569   15.9138   21.9317 C   0  0  0  0  0  0  0  0  0  0  0  0
    6.5736   14.8922   23.9590 C   0  0  0  0  0  0  0  0  0  0  0  0
    6.5839   13.3570   24.0379 C   0  0  0  0  0  0  0  0  0  0  0  0
    6.7894   12.8868   25.4822 C   0  0  0  0  0  0  0  0  0  0  0  0
    7.5445   13.9095   26.2589 N   0  0  0  0  0  0  0  0  0  0  0  0
    9.1720   14.2827   25.8442 S   0  0  0  0  0  0  0  0  0  0  0  0
    9.3715   14.1913   24.4218 O   0  0  0  0  0  0  0  0  0  0  0  0
    9.5420   15.4684   26.5742 O   0  0  0  0  0  0  0  0  0  0  0  0
   10.0505   13.0081   26.4663 N   0  0  0  0  0  0  0  0  0  0  0  0
    9.8717   11.7552   25.7210 C   0  0  0  0  0  0  0  0  0  0  0  0
   11.0598   11.2993   24.9346 C   0  0  0  0  0  0  0  0  0  0  0  0
   12.4447   11.7435   25.3634 C   0  0  0  0  0  0  0  0  0  0  0  0
   12.4538   13.1735   25.7882 C   0  0  0  0  0  0  0  0  0  0  0  0
   11.4337   13.3783   26.8671 C   0  0  0  0  0  0  0  0  0  0  0  0
    6.6524   15.1237   26.4448 C   0  0  0  0  0  0  0  0  0  0  0  0
    5.8620   15.4775   25.1605 C   0  0  0  0  0  0  0  0  0  0  0  0
  1  2  2  0
  2  3  1  0
  3  4  1  0
  5  4  1  6
  5  6  1  0
  6  7  1  0
  7  8  1  0
  8  9  1  0
  9 10  1  0
 10 11  1  0
  8 12  1  0
  2 13  1  0
 13 14  1  0
 14 15  1  0
 15 16  1  0
 16 17  1  0
 17 18  2  0
 17 19  2  0
 17 20  1  0
 20 21  1  0
 21 22  1  0
 22 23  1  0
 23 24  1  0
 24 25  1  0
 16 26  1  0
 26 27  1  0
 12  5  1  0
 27 13  1  0
 11  8  1  0
 25 20  1  0
M  END
>  <energy_score>  (2630) 
-15.331373

>  <inchikey>  (2630) 
None

>  <smiles>  (2630) 
None

>  <ref_pdb>  (2630) 
A4706a

>  <alias>  (2630) 
None

>  <HIPPO Pose ID>  (2630) 
500274

>  <name>  (2630) 
P500274

>  <HIPPO Compound ID>  (2630) 
314620

>  <ref_mols>  (2630) 
A4706a,A0875a

>  <distance_score>  (2630) 
1.893289

>  <inspiration_score>  (2630) 
None

$$$$
P500275
     RDKit          3D

 27 28  0  0  0  0  0  0  0  0999 V2000
   15.8395   11.8697   32.7857 C   0  0  0  0  0  0  0  0  0  0  0  0
   16.7954   12.9897   32.4077 C   0  0  0  0  0  0  0  0  0  0  0  0
   17.3706   12.8814   30.9914 C   0  0  0  0  0  0  0  0  0  0  0  0
   16.3344   13.0336   29.8806 C   0  0  0  0  0  0  0  0  0  0  0  0
   15.5769   11.8329   29.7664 O   0  0  0  0  0  0  0  0  0  0  0  0
   14.4800   11.9110   28.8665 C   0  0  0  0  0  0  0  0  0  0  0  0
   14.8048   11.9543   27.3563 C   0  0  1  0  0  0  0  0  0  0  0  0
   15.8303   10.9164   26.8456 C   0  0  0  0  0  0  0  0  0  0  0  0
   16.9731   10.6221   27.6939 N   0  0  0  0  0  0  0  0  0  0  0  0
   13.5024   11.8581   26.6808 O   0  0  0  0  0  0  0  0  0  0  0  0
   13.4694   11.8931   25.3287 C   0  0  0  0  0  0  0  0  0  0  0  0
   14.4346   11.6889   24.6102 O   0  0  0  0  0  0  0  0  0  0  0  0
   12.1261   12.2979   24.7459 C   0  0  0  0  0  0  0  0  0  0  0  0
   11.8415   13.7119   25.1478 C   0  0  0  0  0  0  0  0  0  0  0  0
   11.1184   13.7085   26.4607 C   0  0  0  0  0  0  0  0  0  0  0  0
    9.7857   13.1361   26.2312 N   0  0  0  0  0  0  0  0  0  0  0  0
    8.6618   14.2992   25.7306 S   0  0  0  0  0  0  0  0  0  0  0  0
    8.7335   14.4079   24.2936 O   0  0  0  0  0  0  0  0  0  0  0  0
    8.8693   15.4461   26.5799 O   0  0  0  0  0  0  0  0  0  0  0  0
    7.2515   13.5037   26.2119 N   0  0  0  0  0  0  0  0  0  0  0  0
    6.5865   12.5893   25.2528 C   0  0  0  0  0  0  0  0  0  0  0  0
    5.3751   13.2358   24.5959 C   0  0  0  0  0  0  0  0  0  0  0  0
    5.4575   14.7523   24.5529 C   0  0  0  0  0  0  0  0  0  0  0  0
    5.6508   15.3468   25.9469 C   0  0  0  0  0  0  0  0  0  0  0  0
    6.2745   14.3570   26.9241 C   0  0  0  0  0  0  0  0  0  0  0  0
    9.7116   11.8842   25.4673 C   0  0  0  0  0  0  0  0  0  0  0  0
   11.0185   11.2924   25.0408 C   0  0  0  0  0  0  0  0  0  0  0  0
  1  2  1  0
  2  3  1  0
  3  4  1  0
  4  5  1  0
  5  6  1  0
  7  6  1  1
  7  8  1  0
  8  9  1  0
  7 10  1  0
 10 11  1  0
 11 12  2  0
 11 13  1  0
 13 14  1  0
 14 15  1  0
 15 16  1  0
 16 17  1  0
 17 18  2  0
 17 19  2  0
 17 20  1  0
 20 21  1  0
 21 22  1  0
 22 23  1  0
 23 24  1  0
 24 25  1  0
 16 26  1  0
 26 27  1  0
 27 13  1  0
 25 20  1  0
M  END
>  <energy_score>  (2631) 
-44.328188

>  <inchikey>  (2631) 
None

>  <smiles>  (2631) 
None

>  <ref_pdb>  (2631) 
A4706a

>  <alias>  (2631) 
None

>  <HIPPO Pose ID>  (2631) 
500275

>  <name>  (2631) 
P500275

>  <HIPPO Compound ID>  (2631) 
314621

>  <ref_mols>  (2631) 
A4706a,A0875a

>  <distance_score>  (2631) 
1.998389

>  <inspiration_score>  (2631) 
None

$$$$
P500276
     RDKit          3D

 27 31  0  0  0  0  0  0  0  0999 V2000
    6.8936   12.9616   22.1828 O   0  0  0  0  0  0  0  0  0  0  0  0
    6.9918   13.7529   23.1180 C   0  0  0  0  0  0  0  0  0  0  0  0
    8.0205   14.6321   23.2511 O   0  0  0  0  0  0  0  0  0  0  0  0
    9.0792   14.4673   22.2787 C   0  0  1  0  0  0  0  0  0  0  0  0
    8.7151   15.1198   20.9414 C   0  0  2  0  0  0  0  0  0  0  0  0
    9.7731   14.7686   19.9052 C   0  0  0  0  0  0  0  0  0  0  0  0
   11.0147   15.4597   20.4025 C   0  0  2  0  0  0  0  0  0  0  0  0
   11.9997   14.6123   21.1434 C   0  0  0  0  0  0  0  0  0  0  0  0
   11.5139   14.4065   22.4762 O   0  0  0  0  0  0  0  0  0  0  0  0
   10.3644   15.2500   22.6402 C   0  0  1  0  0  0  0  0  0  0  0  0
   10.4739   16.2993   21.5428 C   0  0  2  0  0  0  0  0  0  0  0  0
    9.0480   16.5895   21.1612 C   0  0  0  0  0  0  0  0  0  0  0  0
    5.9753   13.7072   24.2533 C   0  0  0  0  0  0  0  0  0  0  0  0
    6.2649   12.5083   25.1914 C   0  0  0  0  0  0  0  0  0  0  0  0
    7.1464   12.8662   26.3936 C   0  0  0  0  0  0  0  0  0  0  0  0
    7.8416   14.0998   26.0324 N   0  0  0  0  0  0  0  0  0  0  0  0
    9.3439   14.4747   26.6080 S   0  0  0  0  0  0  0  0  0  0  0  0
    9.2511   14.6103   28.0365 O   0  0  0  0  0  0  0  0  0  0  0  0
    9.8514   15.5512   25.7973 O   0  0  0  0  0  0  0  0  0  0  0  0
   10.3234   13.1505   26.2967 N   0  0  0  0  0  0  0  0  0  0  0  0
   11.7501   13.5659   26.5007 C   0  0  0  0  0  0  0  0  0  0  0  0
   12.6973   12.3887   26.4344 C   0  0  0  0  0  0  0  0  0  0  0  0
   12.3968   11.5175   25.2330 C   0  0  0  0  0  0  0  0  0  0  0  0
   10.8935   11.2422   25.0020 C   0  0  0  0  0  0  0  0  0  0  0  0
   10.1630   12.5515   24.9676 C   0  0  0  0  0  0  0  0  0  0  0  0
    6.9128   15.2551   26.0340 C   0  0  0  0  0  0  0  0  0  0  0  0
    5.8151   15.0190   25.0093 C   0  0  0  0  0  0  0  0  0  0  0  0
  1  2  2  0
  2  3  1  0
  4  3  1  1
  4  5  1  0
  5  6  1  6
  7  6  1  1
  7  8  1  0
  8  9  1  0
 10  9  1  6
 10 11  1  0
 11 12  1  6
  2 13  1  0
 13 14  1  0
 14 15  1  0
 15 16  1  0
 16 17  1  0
 17 18  2  0
 17 19  2  0
 17 20  1  0
 20 21  1  0
 21 22  1  0
 22 23  1  0
 23 24  1  0
 24 25  1  0
 16 26  1  0
 26 27  1  0
 10  4  1  0
 27 13  1  0
 12  5  1  0
 25 20  1  0
 11  7  1  0
M  END
>  <energy_score>  (2632) 
-57.746519

>  <inchikey>  (2632) 
None

>  <smiles>  (2632) 
None

>  <ref_pdb>  (2632) 
A4706a

>  <alias>  (2632) 
None

>  <HIPPO Pose ID>  (2632) 
500276

>  <name>  (2632) 
P500276

>  <HIPPO Compound ID>  (2632) 
314623

>  <ref_mols>  (2632) 
A0875a,A4706a

>  <distance_score>  (2632) 
1.788022

>  <inspiration_score>  (2632) 
None

$$$$
P500277
     RDKit          3D

 27 31  0  0  0  0  0  0  0  0999 V2000
    6.9846   12.9765   22.4138 O   0  0  0  0  0  0  0  0  0  0  0  0
    6.9170   13.9957   23.0977 C   0  0  0  0  0  0  0  0  0  0  0  0
    7.5462   15.1548   22.7873 O   0  0  0  0  0  0  0  0  0  0  0  0
    8.3718   15.1418   21.6084 C   0  0  1  0  0  0  0  0  0  0  0  0
    9.1464   16.4531   21.4584 C   0  0  2  0  0  0  0  0  0  0  0  0
    9.7772   16.4725   20.0666 C   0  0  0  0  0  0  0  0  0  0  0  0
   10.9620   15.5053   20.2302 C   0  0  2  0  0  0  0  0  0  0  0  0
   10.7036   14.2760   19.4801 C   0  0  0  0  0  0  0  0  0  0  0  0
    9.6299   13.6865   20.2320 O   0  0  0  0  0  0  0  0  0  0  0  0
    9.5659   14.1660   21.5633 C   0  0  1  0  0  0  0  0  0  0  0  0
   10.8266   15.0005   21.6595 C   0  0  2  0  0  0  0  0  0  0  0  0
   10.4050   16.2440   22.3244 C   0  0  0  0  0  0  0  0  0  0  0  0
    6.0338   14.0465   24.3508 C   0  0  0  0  0  0  0  0  0  0  0  0
    6.0564   12.6844   25.0773 C   0  0  0  0  0  0  0  0  0  0  0  0
    7.1541   12.4665   26.1145 C   0  0  0  0  0  0  0  0  0  0  0  0
    7.7787   13.7108   26.5624 N   0  0  0  0  0  0  0  0  0  0  0  0
    9.2418   14.2978   26.0119 S   0  0  0  0  0  0  0  0  0  0  0  0
    9.0855   14.8044   24.6831 O   0  0  0  0  0  0  0  0  0  0  0  0
    9.7405   15.1646   27.0511 O   0  0  0  0  0  0  0  0  0  0  0  0
   10.3253   13.0455   25.8509 N   0  0  0  0  0  0  0  0  0  0  0  0
   11.7278   13.5905   25.8850 C   0  0  0  0  0  0  0  0  0  0  0  0
   12.7081   12.6840   25.1527 C   0  0  0  0  0  0  0  0  0  0  0  0
   12.3470   11.2491   25.4733 C   0  0  0  0  0  0  0  0  0  0  0  0
   10.8801   10.8936   25.0664 C   0  0  0  0  0  0  0  0  0  0  0  0
   10.1533   12.1588   24.6745 C   0  0  0  0  0  0  0  0  0  0  0  0
    6.7530   14.7779   26.7088 C   0  0  0  0  0  0  0  0  0  0  0  0
    6.2303   15.2102   25.3353 C   0  0  0  0  0  0  0  0  0  0  0  0
  1  2  2  0
  2  3  1  0
  4  3  1  1
  4  5  1  0
  5  6  1  6
  7  6  1  6
  7  8  1  0
  8  9  1  0
 10  9  1  6
 10 11  1  0
 11 12  1  1
  2 13  1  0
 13 14  1  0
 14 15  1  0
 15 16  1  0
 16 17  1  0
 17 18  2  0
 17 19  2  0
 17 20  1  0
 20 21  1  0
 21 22  1  0
 22 23  1  0
 23 24  1  0
 24 25  1  0
 16 26  1  0
 26 27  1  0
 10  4  1  0
 27 13  1  0
 12  5  1  0
 25 20  1  0
 11  7  1  0
M  END
>  <energy_score>  (2633) 
-37.781072

>  <inchikey>  (2633) 
None

>  <smiles>  (2633) 
None

>  <ref_pdb>  (2633) 
A4706a

>  <alias>  (2633) 
None

>  <HIPPO Pose ID>  (2633) 
500277

>  <name>  (2633) 
P500277

>  <HIPPO Compound ID>  (2633) 
314623

>  <ref_mols>  (2633) 
A4706a,A0875a

>  <distance_score>  (2633) 
1.59673

>  <inspiration_score>  (2633) 
None

$$$$
P500278
     RDKit          3D

 27 31  0  0  0  0  0  0  0  0999 V2000
    6.3584   13.4145   21.9216 O   0  0  0  0  0  0  0  0  0  0  0  0
    6.8400   14.2199   22.7051 C   0  0  0  0  0  0  0  0  0  0  0  0
    7.4842   15.3843   22.3792 O   0  0  0  0  0  0  0  0  0  0  0  0
    8.4843   15.2277   21.3550 C   0  0  2  0  0  0  0  0  0  0  0  0
    9.6478   14.3835   21.9198 C   0  0  1  0  0  0  0  0  0  0  0  0
   10.6027   14.0616   20.8001 C   0  0  0  0  0  0  0  0  0  0  0  0
   11.1657   15.3836   20.3644 C   0  0  1  0  0  0  0  0  0  0  0  0
   10.4415   15.8480   19.1238 C   0  0  0  0  0  0  0  0  0  0  0  0
    9.4113   16.7248   19.5872 O   0  0  0  0  0  0  0  0  0  0  0  0
    9.2382   16.5524   21.0045 C   0  0  2  0  0  0  0  0  0  0  0  0
   10.6660   16.2789   21.4940 C   0  0  1  0  0  0  0  0  0  0  0  0
   10.4982   15.3775   22.6820 C   0  0  0  0  0  0  0  0  0  0  0  0
    6.9012   14.0123   24.1927 C   0  0  0  0  0  0  0  0  0  0  0  0
    6.5590   12.6285   24.7452 C   0  0  0  0  0  0  0  0  0  0  0  0
    7.1324   12.4546   26.1629 C   0  0  0  0  0  0  0  0  0  0  0  0
    7.6180   13.7377   26.7058 N   0  0  0  0  0  0  0  0  0  0  0  0
    9.1832   14.3442   26.5805 S   0  0  0  0  0  0  0  0  0  0  0  0
    9.2451   15.3013   25.5044 O   0  0  0  0  0  0  0  0  0  0  0  0
    9.5482   14.7729   27.9061 O   0  0  0  0  0  0  0  0  0  0  0  0
   10.2614   13.1310   26.1667 N   0  0  0  0  0  0  0  0  0  0  0  0
   11.6750   13.6560   26.2908 C   0  0  0  0  0  0  0  0  0  0  0  0
   12.6607   12.9105   25.3843 C   0  0  0  0  0  0  0  0  0  0  0  0
   12.3384   11.4356   25.4567 C   0  0  0  0  0  0  0  0  0  0  0  0
   10.8692   11.1323   25.0549 C   0  0  0  0  0  0  0  0  0  0  0  0
   10.1037   12.4231   24.8954 C   0  0  0  0  0  0  0  0  0  0  0  0
    6.5632   14.7919   26.5703 C   0  0  0  0  0  0  0  0  0  0  0  0
    6.3063   15.0974   25.0825 C   0  0  0  0  0  0  0  0  0  0  0  0
  1  2  2  0
  2  3  1  0
  4  3  1  1
  4  5  1  0
  5  6  1  6
  7  6  1  1
  7  8  1  0
  8  9  1  0
 10  9  1  6
 10 11  1  0
 11 12  1  1
  2 13  1  0
 13 14  1  0
 14 15  1  0
 15 16  1  0
 16 17  1  0
 17 18  2  0
 17 19  2  0
 17 20  1  0
 20 21  1  0
 21 22  1  0
 22 23  1  0
 23 24  1  0
 24 25  1  0
 16 26  1  0
 26 27  1  0
 10  4  1  0
 27 13  1  0
 12  5  1  0
 25 20  1  0
 11  7  1  0
M  END
>  <energy_score>  (2634) 
-7.757092

>  <inchikey>  (2634) 
None

>  <smiles>  (2634) 
None

>  <ref_pdb>  (2634) 
A4706a

>  <alias>  (2634) 
None

>  <HIPPO Pose ID>  (2634) 
500278

>  <name>  (2634) 
P500278

>  <HIPPO Compound ID>  (2634) 
314623

>  <ref_mols>  (2634) 
A0875a,A4706a

>  <distance_score>  (2634) 
1.619502

>  <inspiration_score>  (2634) 
None

$$$$
P500279
     RDKit          3D

 27 31  0  0  0  0  0  0  0  0999 V2000
    6.7220   13.2187   22.1953 O   0  0  0  0  0  0  0  0  0  0  0  0
    6.8931   14.1703   22.9574 C   0  0  0  0  0  0  0  0  0  0  0  0
    7.7109   15.2321   22.6833 O   0  0  0  0  0  0  0  0  0  0  0  0
    8.5721   15.1298   21.5058 C   0  0  2  0  0  0  0  0  0  0  0  0
    9.8189   14.2701   21.8280 C   0  0  1  0  0  0  0  0  0  0  0  0
   10.7096   14.1070   20.6212 C   0  0  0  0  0  0  0  0  0  0  0  0
   11.1674   15.4827   20.3005 C   0  0  1  0  0  0  0  0  0  0  0  0
   10.3251   15.9980   19.1680 C   0  0  0  0  0  0  0  0  0  0  0  0
    9.3179   16.8014   19.7777 O   0  0  0  0  0  0  0  0  0  0  0  0
    9.2553   16.5006   21.1804 C   0  0  2  0  0  0  0  0  0  0  0  0
   10.7225   16.2439   21.5449 C   0  0  1  0  0  0  0  0  0  0  0  0
   10.6819   15.2193   22.6458 C   0  0  0  0  0  0  0  0  0  0  0  0
    6.1728   14.2596   24.3345 C   0  0  0  0  0  0  0  0  0  0  0  0
    5.9714   12.8650   24.9873 C   0  0  0  0  0  0  0  0  0  0  0  0
    7.0482   12.3241   25.9502 C   0  0  0  0  0  0  0  0  0  0  0  0
    7.9643   13.3862   26.4592 N   0  0  0  0  0  0  0  0  0  0  0  0
    9.3320   13.6409   25.5101 S   0  0  0  0  0  0  0  0  0  0  0  0
    8.9096   13.2466   24.2016 O   0  0  0  0  0  0  0  0  0  0  0  0
    9.8468   14.9594   25.7895 O   0  0  0  0  0  0  0  0  0  0  0  0
   10.5059   12.4852   25.9721 N   0  0  0  0  0  0  0  0  0  0  0  0
   10.5152   11.3393   24.9899 C   0  0  0  0  0  0  0  0  0  0  0  0
   11.6300   10.3481   25.2599 C   0  0  0  0  0  0  0  0  0  0  0  0
   12.9976   11.0582   25.3985 C   0  0  0  0  0  0  0  0  0  0  0  0
   12.9590   12.1845   26.4108 C   0  0  0  0  0  0  0  0  0  0  0  0
   11.8432   13.1557   26.0764 C   0  0  0  0  0  0  0  0  0  0  0  0
    7.1698   14.6310   26.6888 C   0  0  0  0  0  0  0  0  0  0  0  0
    6.7171   15.2640   25.3642 C   0  0  0  0  0  0  0  0  0  0  0  0
  1  2  2  0
  2  3  1  0
  4  3  1  1
  4  5  1  0
  5  6  1  6
  7  6  1  1
  7  8  1  0
  8  9  1  0
 10  9  1  6
 10 11  1  0
 11 12  1  1
  2 13  1  0
 13 14  1  0
 14 15  1  0
 15 16  1  0
 16 17  1  0
 17 18  2  0
 17 19  2  0
 17 20  1  0
 20 21  1  0
 21 22  1  0
 22 23  1  0
 23 24  1  0
 24 25  1  0
 16 26  1  0
 26 27  1  0
 10  4  1  0
 27 13  1  0
 12  5  1  0
 25 20  1  0
 11  7  1  0
M  END
>  <energy_score>  (2635) 
-33.774898

>  <inchikey>  (2635) 
None

>  <smiles>  (2635) 
None

>  <ref_pdb>  (2635) 
A4706a

>  <alias>  (2635) 
None

>  <HIPPO Pose ID>  (2635) 
500279

>  <name>  (2635) 
P500279

>  <HIPPO Compound ID>  (2635) 
314623

>  <ref_mols>  (2635) 
A4706a,A0875a

>  <distance_score>  (2635) 
1.646473

>  <inspiration_score>  (2635) 
None

$$$$
P500280
     RDKit          3D

 27 30  0  0  0  0  0  0  0  0999 V2000
   10.6906   14.1537   18.1760 N   0  0  0  0  0  0  0  0  0  0  0  0
    9.7007   15.1144   18.6634 C   0  0  2  0  0  0  0  0  0  0  0  0
   10.4830   16.2043   19.3004 C   0  0  0  0  0  0  0  0  0  0  0  0
   10.3752   15.5146   20.6610 C   0  0  1  0  0  0  0  0  0  0  0  0
   11.3813   14.5642   21.2601 C   0  0  0  0  0  0  0  0  0  0  0  0
   10.6410   14.2081   22.5468 C   0  0  2  0  0  0  0  0  0  0  0  0
    9.5496   13.2804   22.2225 O   0  0  0  0  0  0  0  0  0  0  0  0
    8.2993   13.2808   22.7633 C   0  0  0  0  0  0  0  0  0  0  0  0
    7.2582   13.2920   22.1209 O   0  0  0  0  0  0  0  0  0  0  0  0
    8.3427   13.1590   24.2237 C   0  0  0  0  0  0  0  0  0  0  0  0
    8.1822   11.7198   24.6585 C   0  0  0  0  0  0  0  0  0  0  0  0
    8.8819   11.6023   25.9973 C   0  0  0  0  0  0  0  0  0  0  0  0
    9.0667   12.9286   26.6313 N   0  0  0  0  0  0  0  0  0  0  0  0
   10.5070   13.8060   26.7144 S   0  0  0  0  0  0  0  0  0  0  0  0
   10.6138   14.6986   25.5846 O   0  0  0  0  0  0  0  0  0  0  0  0
   10.4999   14.3506   28.0457 O   0  0  0  0  0  0  0  0  0  0  0  0
   11.7901   12.6711   26.5932 N   0  0  0  0  0  0  0  0  0  0  0  0
   12.9671   12.9706   27.4838 C   0  0  0  0  0  0  0  0  0  0  0  0
   14.3389   12.7320   26.8488 C   0  0  0  0  0  0  0  0  0  0  0  0
   14.4349   11.4088   26.1614 C   0  0  0  0  0  0  0  0  0  0  0  0
   13.2677   11.2415   25.2241 C   0  0  0  0  0  0  0  0  0  0  0  0
   12.2170   12.3511   25.2223 C   0  0  0  0  0  0  0  0  0  0  0  0
    7.8187   13.7692   26.5608 C   0  0  0  0  0  0  0  0  0  0  0  0
    7.4861   14.0669   25.0916 C   0  0  0  0  0  0  0  0  0  0  0  0
   10.1930   15.5919   22.9811 C   0  0  0  0  0  0  0  0  0  0  0  0
    9.9820   16.3265   21.7751 O   0  0  0  0  0  0  0  0  0  0  0  0
    9.2138   14.7586   20.0519 C   0  0  0  0  0  0  0  0  0  0  0  0
  2  1  1  1
  2  3  1  0
  4  3  1  6
  4  5  1  0
  5  6  1  0
  6  7  1  6
  7  8  1  0
  8  9  2  0
  8 10  1  0
 10 11  1  0
 11 12  1  0
 12 13  1  0
 13 14  1  0
 14 15  2  0
 14 16  2  0
 14 17  1  0
 17 18  1  0
 18 19  1  0
 19 20  1  0
 20 21  1  0
 21 22  1  0
 13 23  1  0
 23 24  1  0
  6 25  1  0
 25 26  1  0
  4 27  1  0
 27  2  1  0
  4 26  1  0
 24 10  1  0
 22 17  1  0
M  END
>  <energy_score>  (2636) 
-19.570746

>  <inchikey>  (2636) 
None

>  <smiles>  (2636) 
None

>  <ref_pdb>  (2636) 
A4706a

>  <alias>  (2636) 
None

>  <HIPPO Pose ID>  (2636) 
500280

>  <name>  (2636) 
P500280

>  <HIPPO Compound ID>  (2636) 
314624

>  <ref_mols>  (2636) 
A4706a,A0875a

>  <distance_score>  (2636) 
1.749634

>  <inspiration_score>  (2636) 
None

$$$$
P500281
     RDKit          3D

 27 30  0  0  0  0  0  0  0  0999 V2000
   12.4075   15.7637   20.7819 N   0  0  0  0  0  0  0  0  0  0  0  0
   11.4754   15.4666   19.6745 C   0  0  2  0  0  0  0  0  0  0  0  0
   10.0806   16.0619   19.9525 C   0  0  0  0  0  0  0  0  0  0  0  0
    9.8680   14.8633   20.9079 C   0  0  2  0  0  0  0  0  0  0  0  0
    8.3957   14.5361   21.1377 C   0  0  0  0  0  0  0  0  0  0  0  0
    8.2817   14.4913   22.6484 C   0  0  2  0  0  0  0  0  0  0  0  0
    7.0279   14.8624   23.1957 O   0  0  0  0  0  0  0  0  0  0  0  0
    6.2678   13.7772   23.4418 C   0  0  0  0  0  0  0  0  0  0  0  0
    6.1855   12.8429   22.6539 O   0  0  0  0  0  0  0  0  0  0  0  0
    5.6200   13.7740   24.8191 C   0  0  0  0  0  0  0  0  0  0  0  0
    6.0396   12.4869   25.5492 C   0  0  0  0  0  0  0  0  0  0  0  0
    7.5564   12.3954   25.7369 C   0  0  0  0  0  0  0  0  0  0  0  0
    8.1539   13.7484   25.7687 N   0  0  0  0  0  0  0  0  0  0  0  0
    9.7914   13.9118   26.1026 S   0  0  0  0  0  0  0  0  0  0  0  0
   10.1331   15.3034   25.9609 O   0  0  0  0  0  0  0  0  0  0  0  0
   10.0770   13.2492   27.3408 O   0  0  0  0  0  0  0  0  0  0  0  0
   10.5749   13.0466   24.8860 N   0  0  0  0  0  0  0  0  0  0  0  0
   10.6544   11.5769   25.0092 C   0  0  0  0  0  0  0  0  0  0  0  0
   12.0699   11.0903   25.3906 C   0  0  0  0  0  0  0  0  0  0  0  0
   12.7891   11.9595   26.3689 C   0  0  0  0  0  0  0  0  0  0  0  0
   12.8510   13.3282   25.7401 C   0  0  0  0  0  0  0  0  0  0  0  0
   11.9065   13.5930   24.5662 C   0  0  0  0  0  0  0  0  0  0  0  0
    7.2926   14.7167   26.5015 C   0  0  0  0  0  0  0  0  0  0  0  0
    6.0103   14.9673   25.7025 C   0  0  0  0  0  0  0  0  0  0  0  0
    9.2950   15.5375   22.9773 C   0  0  0  0  0  0  0  0  0  0  0  0
   10.3975   15.0943   22.2408 O   0  0  0  0  0  0  0  0  0  0  0  0
   10.8693   14.1403   19.9911 C   0  0  0  0  0  0  0  0  0  0  0  0
  2  1  1  1
  2  3  1  0
  4  3  1  6
  4  5  1  0
  5  6  1  0
  6  7  1  6
  7  8  1  0
  8  9  2  0
  8 10  1  0
 10 11  1  0
 11 12  1  0
 12 13  1  0
 13 14  1  0
 14 15  2  0
 14 16  2  0
 14 17  1  0
 17 18  1  0
 18 19  1  0
 19 20  1  0
 20 21  1  0
 21 22  1  0
 13 23  1  0
 23 24  1  0
  6 25  1  0
 25 26  1  0
  4 27  1  0
 27  2  1  0
  4 26  1  0
 24 10  1  0
 22 17  1  0
M  END
>  <energy_score>  (2637) 
-42.274804

>  <inchikey>  (2637) 
None

>  <smiles>  (2637) 
None

>  <ref_pdb>  (2637) 
A4706a

>  <alias>  (2637) 
None

>  <HIPPO Pose ID>  (2637) 
500281

>  <name>  (2637) 
P500281

>  <HIPPO Compound ID>  (2637) 
314624

>  <ref_mols>  (2637) 
A4706a,A0875a

>  <distance_score>  (2637) 
1.759827

>  <inspiration_score>  (2637) 
None

$$$$
P500282
     RDKit          3D

 27 30  0  0  0  0  0  0  0  0999 V2000
   10.9728   16.1485   18.0932 N   0  0  0  0  0  0  0  0  0  0  0  0
   11.0724   15.5760   19.4078 C   0  0  1  0  0  0  0  0  0  0  0  0
   10.2494   16.3616   20.4598 C   0  0  0  0  0  0  0  0  0  0  0  0
    9.6358   14.9991   20.8269 C   0  0  2  0  0  0  0  0  0  0  0  0
    8.2010   15.0718   21.3114 C   0  0  0  0  0  0  0  0  0  0  0  0
    8.3027   14.8592   22.8054 C   0  0  1  0  0  0  0  0  0  0  0  0
    7.6528   13.6344   23.2059 O   0  0  0  0  0  0  0  0  0  0  0  0
    6.3211   13.7913   23.4286 C   0  0  0  0  0  0  0  0  0  0  0  0
    5.6039   14.5575   22.7966 O   0  0  0  0  0  0  0  0  0  0  0  0
    5.8145   12.9968   24.6255 C   0  0  0  0  0  0  0  0  0  0  0  0
    6.7077   11.8302   25.1029 C   0  0  0  0  0  0  0  0  0  0  0  0
    7.6235   12.2227   26.2594 C   0  0  0  0  0  0  0  0  0  0  0  0
    8.0522   13.5898   25.9788 N   0  0  0  0  0  0  0  0  0  0  0  0
    9.4789   14.1759   26.5748 S   0  0  0  0  0  0  0  0  0  0  0  0
    9.8889   15.2756   25.7371 O   0  0  0  0  0  0  0  0  0  0  0  0
    9.2354   14.4010   27.9744 O   0  0  0  0  0  0  0  0  0  0  0  0
   10.6487   12.9569   26.4960 N   0  0  0  0  0  0  0  0  0  0  0  0
   10.9117   12.2687   25.2068 C   0  0  0  0  0  0  0  0  0  0  0  0
   12.2018   12.7945   24.5990 C   0  0  0  0  0  0  0  0  0  0  0  0
   13.3818   12.3532   25.4642 C   0  0  0  0  0  0  0  0  0  0  0  0
   13.0995   12.6001   26.9357 C   0  0  0  0  0  0  0  0  0  0  0  0
   11.8949   13.5021   27.1392 C   0  0  0  0  0  0  0  0  0  0  0  0
    6.9338   14.5701   26.2200 C   0  0  0  0  0  0  0  0  0  0  0  0
    5.6020   13.9954   25.7586 C   0  0  0  0  0  0  0  0  0  0  0  0
    9.7984   14.7652   23.0672 C   0  0  0  0  0  0  0  0  0  0  0  0
   10.3614   14.3097   21.8532 O   0  0  0  0  0  0  0  0  0  0  0  0
    9.9187   14.6356   19.3855 C   0  0  0  0  0  0  0  0  0  0  0  0
  2  1  1  6
  2  3  1  0
  4  3  1  6
  4  5  1  0
  5  6  1  0
  6  7  1  6
  7  8  1  0
  8  9  2  0
  8 10  1  0
 10 11  1  0
 11 12  1  0
 12 13  1  0
 13 14  1  0
 14 15  2  0
 14 16  2  0
 14 17  1  0
 17 18  1  0
 18 19  1  0
 19 20  1  0
 20 21  1  0
 21 22  1  0
 13 23  1  0
 23 24  1  0
  6 25  1  0
 25 26  1  0
  4 27  1  0
 27  2  1  0
  4 26  1  0
 24 10  1  0
 22 17  1  0
M  END
>  <energy_score>  (2638) 
-53.810971

>  <inchikey>  (2638) 
None

>  <smiles>  (2638) 
None

>  <ref_pdb>  (2638) 
A4706a

>  <alias>  (2638) 
None

>  <HIPPO Pose ID>  (2638) 
500282

>  <name>  (2638) 
P500282

>  <HIPPO Compound ID>  (2638) 
314624

>  <ref_mols>  (2638) 
A4706a,A0875a

>  <distance_score>  (2638) 
1.802537

>  <inspiration_score>  (2638) 
None

$$$$
P500283
     RDKit          3D

 27 29  0  0  0  0  0  0  0  0999 V2000
    8.2243   17.9249   21.0551 C   0  0  0  0  0  0  0  0  0  0  0  0
    8.0289   16.8283   21.5081 C   0  0  0  0  0  0  0  0  0  0  0  0
    8.1740   15.4551   22.0044 C   0  0  2  0  0  0  0  0  0  0  0  0
    7.5106   14.3761   21.1750 C   0  0  0  0  0  0  0  0  0  0  0  0
    7.6546   15.2563   23.3577 O   0  0  0  0  0  0  0  0  0  0  0  0
    6.2961   15.2736   23.5202 C   0  0  0  0  0  0  0  0  0  0  0  0
    5.4902   15.7813   22.7456 O   0  0  0  0  0  0  0  0  0  0  0  0
    5.7937   14.5110   24.7476 C   0  0  0  0  0  0  0  0  0  0  0  0
    6.3341   13.0652   24.8992 C   0  0  0  0  0  0  0  0  0  0  0  0
    7.3424   12.9451   26.0497 C   0  0  0  0  0  0  0  0  0  0  0  0
    8.1585   14.1437   25.9410 N   0  0  0  0  0  0  0  0  0  0  0  0
    9.7988   14.2021   26.0797 S   0  0  0  0  0  0  0  0  0  0  0  0
   10.3155   15.1226   25.0974 O   0  0  0  0  0  0  0  0  0  0  0  0
   10.0775   14.4083   27.4811 O   0  0  0  0  0  0  0  0  0  0  0  0
   10.3823   12.6756   25.7310 N   0  0  0  0  0  0  0  0  0  0  0  0
   11.8257   12.5908   26.0673 C   0  0  0  0  0  0  0  0  0  0  0  0
   12.4683   11.3531   25.4670 C   0  0  0  0  0  0  0  0  0  0  0  0
   11.4716   10.1834   25.1963 C   0  0  0  0  0  0  0  0  0  0  0  0
   10.1481   10.6031   24.5579 C   0  0  0  0  0  0  0  0  0  0  0  0
   10.0946   12.1098   24.4032 C   0  0  0  0  0  0  0  0  0  0  0  0
    7.4662   15.3625   26.4215 C   0  0  0  0  0  0  0  0  0  0  0  0
    6.0040   15.3424   26.0041 C   0  0  0  0  0  0  0  0  0  0  0  0
    9.7238   15.2797   21.9156 C   0  0  2  0  0  0  0  0  0  0  0  0
   10.3230   15.4079   20.5039 C   0  0  0  0  0  0  0  0  0  0  0  0
   11.7236   14.9048   20.7081 C   0  0  0  0  0  0  0  0  0  0  0  0
   11.5847   14.0065   21.9198 C   0  0  0  0  0  0  0  0  0  0  0  0
   10.2018   13.9944   22.2939 O   0  0  0  0  0  0  0  0  0  0  0  0
  1  2  3  0
  3  2  1  0
  3  4  1  6
  3  5  1  0
  5  6  1  0
  6  7  2  0
  6  8  1  0
  8  9  1  0
  9 10  1  0
 10 11  1  0
 11 12  1  0
 12 13  2  0
 12 14  2  0
 12 15  1  0
 15 16  1  0
 16 17  1  0
 17 18  1  0
 18 19  1  0
 19 20  1  0
 11 21  1  0
 21 22  1  0
  3 23  1  0
 23 24  1  6
 24 25  1  0
 25 26  1  0
 26 27  1  0
 22  8  1  0
 27 23  1  0
 20 15  1  0
M  END
>  <energy_score>  (2639) 
-43.750379

>  <inchikey>  (2639) 
None

>  <smiles>  (2639) 
None

>  <ref_pdb>  (2639) 
A4706a

>  <alias>  (2639) 
None

>  <HIPPO Pose ID>  (2639) 
500283

>  <name>  (2639) 
P500283

>  <HIPPO Compound ID>  (2639) 
314626

>  <ref_mols>  (2639) 
A0875a,A4706a

>  <distance_score>  (2639) 
1.872968

>  <inspiration_score>  (2639) 
None

$$$$
P500284
     RDKit          3D

 27 29  0  0  0  0  0  0  0  0999 V2000
    6.2597   14.0096   21.2367 C   0  0  0  0  0  0  0  0  0  0  0  0
    7.2389   14.6949   21.3638 C   0  0  0  0  0  0  0  0  0  0  0  0
    8.1478   15.7114   21.9143 C   0  0  1  0  0  0  0  0  0  0  0  0
    8.1252   17.0605   21.2045 C   0  0  0  0  0  0  0  0  0  0  0  0
    7.5838   16.0527   23.2137 O   0  0  0  0  0  0  0  0  0  0  0  0
    6.7849   15.2007   23.8974 C   0  0  0  0  0  0  0  0  0  0  0  0
    5.5630   15.2008   23.8885 O   0  0  0  0  0  0  0  0  0  0  0  0
    7.6278   14.3284   24.7454 C   0  0  0  0  0  0  0  0  0  0  0  0
    7.5181   12.8283   24.5366 C   0  0  0  0  0  0  0  0  0  0  0  0
    8.7014   12.1563   25.2472 C   0  0  0  0  0  0  0  0  0  0  0  0
    9.1394   12.9250   26.4453 N   0  0  0  0  0  0  0  0  0  0  0  0
   10.5665   13.8526   26.4119 S   0  0  0  0  0  0  0  0  0  0  0  0
   10.5875   14.5268   27.6855 O   0  0  0  0  0  0  0  0  0  0  0  0
   10.6771   14.6116   25.1923 O   0  0  0  0  0  0  0  0  0  0  0  0
   11.8317   12.6893   26.4342 N   0  0  0  0  0  0  0  0  0  0  0  0
   12.3501   12.3428   25.1088 C   0  0  0  0  0  0  0  0  0  0  0  0
   13.3855   11.2193   25.2103 C   0  0  0  0  0  0  0  0  0  0  0  0
   14.4967   11.4064   26.2199 C   0  0  0  0  0  0  0  0  0  0  0  0
   14.3490   12.7391   26.8779 C   0  0  0  0  0  0  0  0  0  0  0  0
   12.9356   12.9652   27.4143 C   0  0  0  0  0  0  0  0  0  0  0  0
    7.9673   13.6331   27.0879 C   0  0  0  0  0  0  0  0  0  0  0  0
    7.4242   14.7191   26.1937 C   0  0  0  0  0  0  0  0  0  0  0  0
    9.6437   15.3266   21.8916 C   0  0  2  0  0  0  0  0  0  0  0  0
   10.2644   15.2120   20.4953 C   0  0  0  0  0  0  0  0  0  0  0  0
   11.6012   14.6023   20.7955 C   0  0  0  0  0  0  0  0  0  0  0  0
   11.3505   13.8570   22.0958 C   0  0  0  0  0  0  0  0  0  0  0  0
    9.9778   14.0586   22.4655 O   0  0  0  0  0  0  0  0  0  0  0  0
  1  2  3  0
  3  2  1  0
  3  4  1  6
  3  5  1  0
  5  6  1  0
  6  7  2  0
  6  8  1  0
  8  9  1  0
  9 10  1  0
 10 11  1  0
 11 12  1  0
 12 13  2  0
 12 14  2  0
 12 15  1  0
 15 16  1  0
 16 17  1  0
 17 18  1  0
 18 19  1  0
 19 20  1  0
 11 21  1  0
 21 22  1  0
  3 23  1  0
 23 24  1  6
 24 25  1  0
 25 26  1  0
 26 27  1  0
 22  8  1  0
 27 23  1  0
 20 15  1  0
M  END
>  <energy_score>  (2640) 
-5.270741

>  <inchikey>  (2640) 
None

>  <smiles>  (2640) 
None

>  <ref_pdb>  (2640) 
A4706a

>  <alias>  (2640) 
None

>  <HIPPO Pose ID>  (2640) 
500284

>  <name>  (2640) 
P500284

>  <HIPPO Compound ID>  (2640) 
314626

>  <ref_mols>  (2640) 
A4706a,A0875a

>  <distance_score>  (2640) 
1.969856

>  <inspiration_score>  (2640) 
None

$$$$
P500285
     RDKit          3D

 27 29  0  0  0  0  0  0  0  0999 V2000
    8.3707   17.8600   21.0616 C   0  0  0  0  0  0  0  0  0  0  0  0
    8.1892   16.7607   21.5116 C   0  0  0  0  0  0  0  0  0  0  0  0
    8.1442   15.3912   22.0372 C   0  0  2  0  0  0  0  0  0  0  0  0
    7.2575   14.4374   21.2477 C   0  0  0  0  0  0  0  0  0  0  0  0
    7.6631   15.3594   23.4232 O   0  0  0  0  0  0  0  0  0  0  0  0
    6.3279   15.4217   23.6954 C   0  0  0  0  0  0  0  0  0  0  0  0
    5.4687   15.9288   22.9832 O   0  0  0  0  0  0  0  0  0  0  0  0
    5.9413   14.6726   24.9822 C   0  0  0  0  0  0  0  0  0  0  0  0
    6.0341   13.1388   24.7687 C   0  0  0  0  0  0  0  0  0  0  0  0
    6.8543   12.3126   25.7623 C   0  0  0  0  0  0  0  0  0  0  0  0
    7.8725   13.1289   26.4512 N   0  0  0  0  0  0  0  0  0  0  0  0
    9.1899   13.6420   25.5183 S   0  0  0  0  0  0  0  0  0  0  0  0
    8.8683   13.3804   24.1430 O   0  0  0  0  0  0  0  0  0  0  0  0
    9.5998   14.9213   26.0442 O   0  0  0  0  0  0  0  0  0  0  0  0
   10.4123   12.5277   25.8914 N   0  0  0  0  0  0  0  0  0  0  0  0
   11.7353   13.2247   25.9064 C   0  0  0  0  0  0  0  0  0  0  0  0
   12.7605   12.5487   25.0350 C   0  0  0  0  0  0  0  0  0  0  0  0
   12.8521   11.1026   25.4475 C   0  0  0  0  0  0  0  0  0  0  0  0
   11.5047   10.3611   25.2698 C   0  0  0  0  0  0  0  0  0  0  0  0
   10.3344   11.2997   25.0401 C   0  0  0  0  0  0  0  0  0  0  0  0
    7.1864   14.2280   27.1846 C   0  0  0  0  0  0  0  0  0  0  0  0
    6.6163   15.2606   26.2205 C   0  0  0  0  0  0  0  0  0  0  0  0
    9.6020   14.7952   21.8536 C   0  0  1  0  0  0  0  0  0  0  0  0
   10.2262   14.9459   20.4549 C   0  0  0  0  0  0  0  0  0  0  0  0
   11.6724   14.7146   20.7613 C   0  0  0  0  0  0  0  0  0  0  0  0
   11.8053   15.4802   22.0539 C   0  0  0  0  0  0  0  0  0  0  0  0
   10.5848   15.3116   22.7777 O   0  0  0  0  0  0  0  0  0  0  0  0
  1  2  3  0
  3  2  1  0
  3  4  1  6
  3  5  1  0
  5  6  1  0
  6  7  2  0
  6  8  1  0
  8  9  1  0
  9 10  1  0
 10 11  1  0
 11 12  1  0
 12 13  2  0
 12 14  2  0
 12 15  1  0
 15 16  1  0
 16 17  1  0
 17 18  1  0
 18 19  1  0
 19 20  1  0
 11 21  1  0
 21 22  1  0
  3 23  1  0
 23 24  1  6
 24 25  1  0
 25 26  1  0
 26 27  1  0
 22  8  1  0
 27 23  1  0
 20 15  1  0
M  END
>  <energy_score>  (2641) 
-12.063555

>  <inchikey>  (2641) 
None

>  <smiles>  (2641) 
None

>  <ref_pdb>  (2641) 
A4706a

>  <alias>  (2641) 
None

>  <HIPPO Pose ID>  (2641) 
500285

>  <name>  (2641) 
P500285

>  <HIPPO Compound ID>  (2641) 
314626

>  <ref_mols>  (2641) 
A4706a,A0875a

>  <distance_score>  (2641) 
1.620438

>  <inspiration_score>  (2641) 
None

$$$$
P500286
     RDKit          3D

 27 29  0  0  0  0  0  0  0  0999 V2000
   12.0941   13.9963   19.2427 N   0  0  0  0  0  0  0  0  0  0  0  0
   11.0408   14.9344   18.9356 C   0  0  0  0  0  0  0  0  0  0  0  0
   10.3336   15.3488   20.2136 C   0  0  2  0  0  0  0  0  0  0  0  0
   11.2110   15.2880   21.4971 C   0  0  0  0  0  0  0  0  0  0  0  0
   10.4263   15.2603   22.7025 O   0  0  0  0  0  0  0  0  0  0  0  0
    9.1587   15.8448   22.4460 C   0  0  0  0  0  0  0  0  0  0  0  0
    8.3401   15.0903   21.4243 C   0  0  2  0  0  0  0  0  0  0  0  0
    7.4407   14.0313   22.0536 C   0  0  0  0  0  0  0  0  0  0  0  0
    6.1019   14.5300   22.3220 O   0  0  0  0  0  0  0  0  0  0  0  0
    5.4215   14.4199   23.4924 C   0  0  0  0  0  0  0  0  0  0  0  0
    4.2113   14.6091   23.5447 O   0  0  0  0  0  0  0  0  0  0  0  0
    6.2394   14.1000   24.7133 C   0  0  0  0  0  0  0  0  0  0  0  0
    6.3453   12.6102   25.0191 C   0  0  0  0  0  0  0  0  0  0  0  0
    7.1677   12.3333   26.2763 C   0  0  0  0  0  0  0  0  0  0  0  0
    7.7294   13.5613   26.8530 N   0  0  0  0  0  0  0  0  0  0  0  0
    9.1856   14.2958   26.4532 S   0  0  0  0  0  0  0  0  0  0  0  0
    8.9972   15.1962   25.3505 O   0  0  0  0  0  0  0  0  0  0  0  0
    9.7009   14.8211   27.6933 O   0  0  0  0  0  0  0  0  0  0  0  0
   10.2714   13.1488   25.9459 N   0  0  0  0  0  0  0  0  0  0  0  0
   10.0265   12.3759   24.7258 C   0  0  0  0  0  0  0  0  0  0  0  0
   10.7750   11.0801   24.9942 C   0  0  0  0  0  0  0  0  0  0  0  0
   12.2476   11.3898   25.4179 C   0  0  0  0  0  0  0  0  0  0  0  0
   12.6184   12.8294   25.1280 C   0  0  0  0  0  0  0  0  0  0  0  0
   11.6585   13.7281   25.9061 C   0  0  0  0  0  0  0  0  0  0  0  0
    6.6444   14.5296   27.1912 C   0  0  0  0  0  0  0  0  0  0  0  0
    5.8014   14.8737   25.9564 C   0  0  0  0  0  0  0  0  0  0  0  0
    9.1840   14.5137   20.4274 O   0  0  0  0  0  0  0  0  0  0  0  0
  1  2  1  0
  3  2  1  6
  3  4  1  0
  4  5  1  0
  5  6  1  0
  6  7  1  0
  7  8  1  1
  8  9  1  0
  9 10  1  0
 10 11  2  0
 10 12  1  0
 12 13  1  0
 13 14  1  0
 14 15  1  0
 15 16  1  0
 16 17  2  0
 16 18  2  0
 16 19  1  0
 19 20  1  0
 20 21  1  0
 21 22  1  0
 22 23  1  0
 23 24  1  0
 15 25  1  0
 25 26  1  0
  7 27  1  0
 27  3  1  0
 26 12  1  0
 24 19  1  0
M  END
>  <energy_score>  (2642) 
-34.883682

>  <inchikey>  (2642) 
None

>  <smiles>  (2642) 
None

>  <ref_pdb>  (2642) 
A4706a

>  <alias>  (2642) 
None

>  <HIPPO Pose ID>  (2642) 
500286

>  <name>  (2642) 
P500286

>  <HIPPO Compound ID>  (2642) 
314628

>  <ref_mols>  (2642) 
A4706a,A0875a

>  <distance_score>  (2642) 
1.918391

>  <inspiration_score>  (2642) 
None

$$$$
P500287
     RDKit          3D

 27 29  0  0  0  0  0  0  0  0999 V2000
   11.5808   14.3396   18.2475 N   0  0  0  0  0  0  0  0  0  0  0  0
   10.4970   15.1195   18.7967 C   0  0  0  0  0  0  0  0  0  0  0  0
   10.1648   14.7246   20.2125 C   0  0  1  0  0  0  0  0  0  0  0  0
   11.3264   14.9919   21.1779 C   0  0  0  0  0  0  0  0  0  0  0  0
   10.9160   14.8729   22.5443 O   0  0  0  0  0  0  0  0  0  0  0  0
    9.7420   15.6789   22.7190 C   0  0  0  0  0  0  0  0  0  0  0  0
    8.5741   15.1815   21.8782 C   0  0  1  0  0  0  0  0  0  0  0  0
    7.2341   15.9112   22.1222 C   0  0  0  0  0  0  0  0  0  0  0  0
    6.7840   15.8592   23.4804 O   0  0  0  0  0  0  0  0  0  0  0  0
    5.9218   14.8366   23.7762 C   0  0  0  0  0  0  0  0  0  0  0  0
    4.8854   14.5697   23.1966 O   0  0  0  0  0  0  0  0  0  0  0  0
    6.5609   14.0535   24.8853 C   0  0  0  0  0  0  0  0  0  0  0  0
    6.3206   12.5575   25.0122 C   0  0  0  0  0  0  0  0  0  0  0  0
    7.4907   11.8678   25.7545 C   0  0  0  0  0  0  0  0  0  0  0  0
    8.3261   12.8614   26.5086 N   0  0  0  0  0  0  0  0  0  0  0  0
    9.6274   13.5688   25.6520 S   0  0  0  0  0  0  0  0  0  0  0  0
    9.4341   13.2599   24.2553 O   0  0  0  0  0  0  0  0  0  0  0  0
    9.7420   14.9238   26.1369 O   0  0  0  0  0  0  0  0  0  0  0  0
   11.0031   12.6942   26.1606 N   0  0  0  0  0  0  0  0  0  0  0  0
   12.0108   13.5663   26.8199 C   0  0  0  0  0  0  0  0  0  0  0  0
   13.4554   13.0985   26.6286 C   0  0  0  0  0  0  0  0  0  0  0  0
   13.5769   11.6273   26.6161 C   0  0  0  0  0  0  0  0  0  0  0  0
   12.8431   11.1501   25.3901 C   0  0  0  0  0  0  0  0  0  0  0  0
   11.5612   11.9110   25.0387 C   0  0  0  0  0  0  0  0  0  0  0  0
    7.4294   13.8455   27.2231 C   0  0  0  0  0  0  0  0  0  0  0  0
    6.6330   14.7184   26.2448 C   0  0  0  0  0  0  0  0  0  0  0  0
    8.9590   15.4286   20.5248 O   0  0  0  0  0  0  0  0  0  0  0  0
  1  2  1  0
  3  2  1  6
  3  4  1  0
  4  5  1  0
  5  6  1  0
  6  7  1  0
  7  8  1  1
  8  9  1  0
  9 10  1  0
 10 11  2  0
 10 12  1  0
 12 13  1  0
 13 14  1  0
 14 15  1  0
 15 16  1  0
 16 17  2  0
 16 18  2  0
 16 19  1  0
 19 20  1  0
 20 21  1  0
 21 22  1  0
 22 23  1  0
 23 24  1  0
 15 25  1  0
 25 26  1  0
  7 27  1  0
 27  3  1  0
 26 12  1  0
 24 19  1  0
M  END
>  <energy_score>  (2643) 
-29.075948

>  <inchikey>  (2643) 
None

>  <smiles>  (2643) 
None

>  <ref_pdb>  (2643) 
A4706a

>  <alias>  (2643) 
None

>  <HIPPO Pose ID>  (2643) 
500287

>  <name>  (2643) 
P500287

>  <HIPPO Compound ID>  (2643) 
314628

>  <ref_mols>  (2643) 
A4706a,A0875a

>  <distance_score>  (2643) 
1.8214

>  <inspiration_score>  (2643) 
None

$$$$
P500288
     RDKit          3D

 27 29  0  0  0  0  0  0  0  0999 V2000
   11.6704   15.1971   17.9855 N   0  0  0  0  0  0  0  0  0  0  0  0
   10.4661   14.7690   18.6433 C   0  0  0  0  0  0  0  0  0  0  0  0
   10.3007   15.2775   20.0399 C   0  0  2  0  0  0  0  0  0  0  0  0
   11.4060   14.8192   20.9902 C   0  0  0  0  0  0  0  0  0  0  0  0
   11.1918   15.2630   22.3371 O   0  0  0  0  0  0  0  0  0  0  0  0
    9.8750   15.7885   22.5038 C   0  0  0  0  0  0  0  0  0  0  0  0
    8.7867   14.9344   21.8558 C   0  0  1  0  0  0  0  0  0  0  0  0
    7.3729   15.5084   22.0421 C   0  0  0  0  0  0  0  0  0  0  0  0
    6.8143   15.3726   23.3540 O   0  0  0  0  0  0  0  0  0  0  0  0
    6.3380   14.1360   23.6521 C   0  0  0  0  0  0  0  0  0  0  0  0
    6.4456   13.1498   22.9247 O   0  0  0  0  0  0  0  0  0  0  0  0
    5.5835   14.1199   24.9863 C   0  0  0  0  0  0  0  0  0  0  0  0
    5.5721   12.6924   25.5428 C   0  0  0  0  0  0  0  0  0  0  0  0
    6.9695   12.2520   25.9522 C   0  0  0  0  0  0  0  0  0  0  0  0
    7.6598   13.2655   26.7878 N   0  0  0  0  0  0  0  0  0  0  0  0
    9.1319   13.8860   26.2334 S   0  0  0  0  0  0  0  0  0  0  0  0
    8.9288   14.3226   24.8820 O   0  0  0  0  0  0  0  0  0  0  0  0
    9.5869   14.8272   27.2273 O   0  0  0  0  0  0  0  0  0  0  0  0
   10.2050   12.5746   26.2713 N   0  0  0  0  0  0  0  0  0  0  0  0
   11.6192   13.0136   26.4682 C   0  0  0  0  0  0  0  0  0  0  0  0
   12.1558   13.6360   25.1991 C   0  0  0  0  0  0  0  0  0  0  0  0
   12.0030   12.6960   24.0404 C   0  0  0  0  0  0  0  0  0  0  0  0
   10.5934   12.1442   23.8858 C   0  0  0  0  0  0  0  0  0  0  0  0
   10.1300   11.5563   25.1910 C   0  0  0  0  0  0  0  0  0  0  0  0
    6.7368   14.3404   27.2546 C   0  0  0  0  0  0  0  0  0  0  0  0
    6.1183   15.0781   26.0639 C   0  0  0  0  0  0  0  0  0  0  0  0
    9.0056   14.8265   20.4488 O   0  0  0  0  0  0  0  0  0  0  0  0
  1  2  1  0
  3  2  1  6
  3  4  1  0
  4  5  1  0
  5  6  1  0
  6  7  1  0
  7  8  1  6
  8  9  1  0
  9 10  1  0
 10 11  2  0
 10 12  1  0
 12 13  1  0
 13 14  1  0
 14 15  1  0
 15 16  1  0
 16 17  2  0
 16 18  2  0
 16 19  1  0
 19 20  1  0
 20 21  1  0
 21 22  1  0
 22 23  1  0
 23 24  1  0
 15 25  1  0
 25 26  1  0
  7 27  1  0
 27  3  1  0
 26 12  1  0
 24 19  1  0
M  END
>  <energy_score>  (2644) 
-70.278074

>  <inchikey>  (2644) 
None

>  <smiles>  (2644) 
None

>  <ref_pdb>  (2644) 
A4706a

>  <alias>  (2644) 
None

>  <HIPPO Pose ID>  (2644) 
500288

>  <name>  (2644) 
P500288

>  <HIPPO Compound ID>  (2644) 
314628

>  <ref_mols>  (2644) 
A4706a,A0875a

>  <distance_score>  (2644) 
1.888053

>  <inspiration_score>  (2644) 
None

$$$$
P500289
     RDKit          3D

 27 29  0  0  0  0  0  0  0  0999 V2000
   11.8026   14.8010   18.2371 C   0  0  0  0  0  0  0  0  0  0  0  0
   10.5457   14.1982   18.5568 N   0  0  0  0  0  0  0  0  0  0  0  0
    9.7200   15.1906   19.1807 C   0  0  0  0  0  0  0  0  0  0  0  0
    9.9903   15.2308   20.6487 C   0  0  2  0  0  0  0  0  0  0  0  0
   11.0666   14.3938   21.0862 O   0  0  0  0  0  0  0  0  0  0  0  0
   11.2606   14.4586   22.4834 C   0  0  0  0  0  0  0  0  0  0  0  0
   10.7228   15.7522   23.0422 C   0  0  0  0  0  0  0  0  0  0  0  0
    9.2279   15.9395   22.6911 C   0  0  0  0  0  0  0  0  0  0  0  0
    8.7472   15.1219   21.5305 C   0  0  2  0  0  0  0  0  0  0  0  0
    8.3473   13.8429   22.0623 O   0  0  0  0  0  0  0  0  0  0  0  0
    7.1106   13.8649   22.6539 C   0  0  0  0  0  0  0  0  0  0  0  0
    6.1810   14.5656   22.2700 O   0  0  0  0  0  0  0  0  0  0  0  0
    6.9841   12.9915   23.9086 C   0  0  0  0  0  0  0  0  0  0  0  0
    8.1386   11.9906   24.0887 C   0  0  0  0  0  0  0  0  0  0  0  0
    8.2661   11.4623   25.4986 C   0  0  0  0  0  0  0  0  0  0  0  0
    8.3602   12.5874   26.4281 N   0  0  0  0  0  0  0  0  0  0  0  0
    9.6504   13.6663   26.3299 S   0  0  0  0  0  0  0  0  0  0  0  0
    9.5711   14.4926   27.5089 O   0  0  0  0  0  0  0  0  0  0  0  0
    9.6369   14.2876   25.0382 O   0  0  0  0  0  0  0  0  0  0  0  0
   11.0851   12.7503   26.4273 N   0  0  0  0  0  0  0  0  0  0  0  0
   11.5820   12.1625   25.1643 C   0  0  0  0  0  0  0  0  0  0  0  0
   12.7779   11.2377   25.4252 C   0  0  0  0  0  0  0  0  0  0  0  0
   13.6212   11.6109   26.6271 C   0  0  0  0  0  0  0  0  0  0  0  0
   13.5795   13.0860   26.7305 C   0  0  0  0  0  0  0  0  0  0  0  0
   12.1618   13.5851   27.0508 C   0  0  0  0  0  0  0  0  0  0  0  0
    7.0336   13.2802   26.4749 C   0  0  0  0  0  0  0  0  0  0  0  0
    6.7090   13.9103   25.1231 C   0  0  0  0  0  0  0  0  0  0  0  0
  1  2  1  0
  2  3  1  0
  4  3  1  6
  4  5  1  0
  5  6  1  0
  6  7  1  0
  7  8  1  0
  8  9  1  0
  9 10  1  1
 10 11  1  0
 11 12  2  0
 11 13  1  0
 13 14  1  0
 14 15  1  0
 15 16  1  0
 16 17  1  0
 17 18  2  0
 17 19  2  0
 17 20  1  0
 20 21  1  0
 21 22  1  0
 22 23  1  0
 23 24  1  0
 24 25  1  0
 16 26  1  0
 26 27  1  0
  9  4  1  0
 27 13  1  0
 25 20  1  0
M  END
>  <energy_score>  (2645) 
-4.369326

>  <inchikey>  (2645) 
None

>  <smiles>  (2645) 
None

>  <ref_pdb>  (2645) 
A4706a

>  <alias>  (2645) 
None

>  <HIPPO Pose ID>  (2645) 
500289

>  <name>  (2645) 
P500289

>  <HIPPO Compound ID>  (2645) 
314629

>  <ref_mols>  (2645) 
A4706a,A0875a

>  <distance_score>  (2645) 
1.47234

>  <inspiration_score>  (2645) 
None

$$$$
P500290
     RDKit          3D

 27 29  0  0  0  0  0  0  0  0999 V2000
   11.7606   14.8007   18.1428 C   0  0  0  0  0  0  0  0  0  0  0  0
   10.6777   14.0999   18.7515 N   0  0  0  0  0  0  0  0  0  0  0  0
    9.7749   15.0371   19.3735 C   0  0  0  0  0  0  0  0  0  0  0  0
    9.3682   14.4940   20.7691 C   0  0  1  0  0  0  0  0  0  0  0  0
   10.5411   14.2061   21.5452 O   0  0  0  0  0  0  0  0  0  0  0  0
   11.4109   15.3062   21.6451 C   0  0  0  0  0  0  0  0  0  0  0  0
   10.6415   16.4976   22.1216 C   0  0  0  0  0  0  0  0  0  0  0  0
    9.2424   16.7645   21.5280 C   0  0  0  0  0  0  0  0  0  0  0  0
    8.4419   15.4818   21.4619 C   0  0  2  0  0  0  0  0  0  0  0  0
    7.8778   15.1206   22.7484 O   0  0  0  0  0  0  0  0  0  0  0  0
    6.9379   14.1316   22.7373 C   0  0  0  0  0  0  0  0  0  0  0  0
    6.8938   13.2321   21.9014 O   0  0  0  0  0  0  0  0  0  0  0  0
    5.8541   14.2117   23.8164 C   0  0  0  0  0  0  0  0  0  0  0  0
    5.8645   12.9389   24.6975 C   0  0  0  0  0  0  0  0  0  0  0  0
    6.9828   12.9181   25.7369 C   0  0  0  0  0  0  0  0  0  0  0  0
    7.7223   14.1635   25.5517 N   0  0  0  0  0  0  0  0  0  0  0  0
    9.2703   14.3065   26.0700 S   0  0  0  0  0  0  0  0  0  0  0  0
    9.2183   14.3377   27.5098 O   0  0  0  0  0  0  0  0  0  0  0  0
    9.8816   15.3868   25.3416 O   0  0  0  0  0  0  0  0  0  0  0  0
    9.9807   12.8595   25.6033 N   0  0  0  0  0  0  0  0  0  0  0  0
   10.2674   12.6716   24.1595 C   0  0  0  0  0  0  0  0  0  0  0  0
   11.7724   12.7695   23.9150 C   0  0  0  0  0  0  0  0  0  0  0  0
   12.4208   13.8318   24.7471 C   0  0  0  0  0  0  0  0  0  0  0  0
   12.2705   13.5187   26.2191 C   0  0  0  0  0  0  0  0  0  0  0  0
   11.1522   12.5485   26.4153 C   0  0  0  0  0  0  0  0  0  0  0  0
    6.8759   15.3414   25.8252 C   0  0  0  0  0  0  0  0  0  0  0  0
    5.8930   15.4739   24.6757 C   0  0  0  0  0  0  0  0  0  0  0  0
  1  2  1  0
  2  3  1  0
  4  3  1  6
  4  5  1  0
  5  6  1  0
  6  7  1  0
  7  8  1  0
  8  9  1  0
  9 10  1  1
 10 11  1  0
 11 12  2  0
 11 13  1  0
 13 14  1  0
 14 15  1  0
 15 16  1  0
 16 17  1  0
 17 18  2  0
 17 19  2  0
 17 20  1  0
 20 21  1  0
 21 22  1  0
 22 23  1  0
 23 24  1  0
 24 25  1  0
 16 26  1  0
 26 27  1  0
  9  4  1  0
 27 13  1  0
 25 20  1  0
M  END
>  <energy_score>  (2646) 
-41.911717

>  <inchikey>  (2646) 
None

>  <smiles>  (2646) 
None

>  <ref_pdb>  (2646) 
A4706a

>  <alias>  (2646) 
None

>  <HIPPO Pose ID>  (2646) 
500290

>  <name>  (2646) 
P500290

>  <HIPPO Compound ID>  (2646) 
314629

>  <ref_mols>  (2646) 
A0875a,A4706a

>  <distance_score>  (2646) 
1.941883

>  <inspiration_score>  (2646) 
None

$$$$
P500291
     RDKit          3D

 27 29  0  0  0  0  0  0  0  0999 V2000
   12.0487   14.6343   19.2167 C   0  0  0  0  0  0  0  0  0  0  0  0
   10.6499   14.3416   19.1081 N   0  0  0  0  0  0  0  0  0  0  0  0
    9.8353   15.5153   19.3932 C   0  0  0  0  0  0  0  0  0  0  0  0
    9.4660   15.8225   20.8727 C   0  0  2  0  0  0  0  0  0  0  0  0
   10.6647   16.3068   21.4714 O   0  0  0  0  0  0  0  0  0  0  0  0
   11.1908   15.6148   22.5714 C   0  0  0  0  0  0  0  0  0  0  0  0
   11.0787   14.1267   22.4584 C   0  0  0  0  0  0  0  0  0  0  0  0
    9.6727   13.6481   22.2034 C   0  0  0  0  0  0  0  0  0  0  0  0
    8.7232   14.6569   21.5599 C   0  0  1  0  0  0  0  0  0  0  0  0
    7.7424   15.1117   22.5537 O   0  0  0  0  0  0  0  0  0  0  0  0
    6.8442   14.1612   22.9383 C   0  0  0  0  0  0  0  0  0  0  0  0
    6.7573   13.0603   22.3876 O   0  0  0  0  0  0  0  0  0  0  0  0
    5.9149   14.5187   24.1085 C   0  0  0  0  0  0  0  0  0  0  0  0
    5.6690   13.2482   24.9492 C   0  0  0  0  0  0  0  0  0  0  0  0
    6.9232   12.8436   25.7248 C   0  0  0  0  0  0  0  0  0  0  0  0
    7.5653   13.9795   26.4400 N   0  0  0  0  0  0  0  0  0  0  0  0
    9.1555   14.4763   26.1343 S   0  0  0  0  0  0  0  0  0  0  0  0
    9.2617   14.7988   24.7426 O   0  0  0  0  0  0  0  0  0  0  0  0
    9.4571   15.4842   27.1200 O   0  0  0  0  0  0  0  0  0  0  0  0
   10.1989   13.2035   26.4202 N   0  0  0  0  0  0  0  0  0  0  0  0
    9.9880   11.9614   25.6962 C   0  0  0  0  0  0  0  0  0  0  0  0
   11.1859   11.3493   25.0444 C   0  0  0  0  0  0  0  0  0  0  0  0
   12.5583   11.7004   25.5580 C   0  0  0  0  0  0  0  0  0  0  0  0
   12.6684   13.1595   25.8217 C   0  0  0  0  0  0  0  0  0  0  0  0
   11.5827   13.6252   26.7688 C   0  0  0  0  0  0  0  0  0  0  0  0
    6.6479   15.1630   26.4816 C   0  0  0  0  0  0  0  0  0  0  0  0
    6.3328   15.6481   25.0571 C   0  0  0  0  0  0  0  0  0  0  0  0
  1  2  1  0
  2  3  1  0
  4  3  1  6
  4  5  1  0
  5  6  1  0
  6  7  1  0
  7  8  1  0
  8  9  1  0
  9 10  1  1
 10 11  1  0
 11 12  2  0
 11 13  1  0
 13 14  1  0
 14 15  1  0
 15 16  1  0
 16 17  1  0
 17 18  2  0
 17 19  2  0
 17 20  1  0
 20 21  1  0
 21 22  1  0
 22 23  1  0
 23 24  1  0
 24 25  1  0
 16 26  1  0
 26 27  1  0
  9  4  1  0
 27 13  1  0
 25 20  1  0
M  END
>  <energy_score>  (2647) 
-37.911392

>  <inchikey>  (2647) 
None

>  <smiles>  (2647) 
None

>  <ref_pdb>  (2647) 
A4706a

>  <alias>  (2647) 
None

>  <HIPPO Pose ID>  (2647) 
500291

>  <name>  (2647) 
P500291

>  <HIPPO Compound ID>  (2647) 
314629

>  <ref_mols>  (2647) 
A4706a,A0875a

>  <distance_score>  (2647) 
1.550782

>  <inspiration_score>  (2647) 
None

$$$$
P500292
     RDKit          3D

 27 29  0  0  0  0  0  0  0  0999 V2000
   11.6387   15.0635   18.2891 C   0  0  0  0  0  0  0  0  0  0  0  0
   10.3490   14.4787   18.5165 N   0  0  0  0  0  0  0  0  0  0  0  0
    9.3737   15.4103   19.0486 C   0  0  0  0  0  0  0  0  0  0  0  0
    9.6484   16.2389   20.2743 C   0  0  0  0  0  0  0  0  0  0  0  0
   10.3767   15.3644   21.2263 C   0  0  1  0  0  0  0  0  0  0  0  0
   11.0710   16.0432   22.2483 O   0  0  0  0  0  0  0  0  0  0  0  0
   11.4348   14.9891   23.1299 C   0  0  0  0  0  0  0  0  0  0  0  0
   10.6385   13.7460   22.7393 C   0  0  0  0  0  0  0  0  0  0  0  0
    9.5277   14.2923   21.8870 C   0  0  1  0  0  0  0  0  0  0  0  0
    8.4335   14.7785   22.7132 O   0  0  0  0  0  0  0  0  0  0  0  0
    7.3511   13.9751   22.8285 C   0  0  0  0  0  0  0  0  0  0  0  0
    7.0852   13.0709   22.0353 O   0  0  0  0  0  0  0  0  0  0  0  0
    6.4663   14.1263   24.0764 C   0  0  0  0  0  0  0  0  0  0  0  0
    6.5190   12.7754   24.8372 C   0  0  0  0  0  0  0  0  0  0  0  0
    6.9095   12.7809   26.3049 C   0  0  0  0  0  0  0  0  0  0  0  0
    7.6124   13.9903   26.7272 N   0  0  0  0  0  0  0  0  0  0  0  0
    9.2355   14.3330   26.4586 S   0  0  0  0  0  0  0  0  0  0  0  0
    9.3720   14.7096   25.0852 O   0  0  0  0  0  0  0  0  0  0  0  0
    9.6259   15.2578   27.4897 O   0  0  0  0  0  0  0  0  0  0  0  0
   10.1331   12.9242   26.6600 N   0  0  0  0  0  0  0  0  0  0  0  0
   11.5618   13.1528   27.0040 C   0  0  0  0  0  0  0  0  0  0  0  0
   12.4816   13.1621   25.8340 C   0  0  0  0  0  0  0  0  0  0  0  0
   12.3443   11.9374   24.9905 C   0  0  0  0  0  0  0  0  0  0  0  0
   11.0212   11.1764   25.0719 C   0  0  0  0  0  0  0  0  0  0  0  0
    9.8435   11.8457   25.7133 C   0  0  0  0  0  0  0  0  0  0  0  0
    6.7361   15.1614   26.4396 C   0  0  0  0  0  0  0  0  0  0  0  0
    6.6025   15.3894   24.9316 C   0  0  0  0  0  0  0  0  0  0  0  0
  1  2  1  0
  2  3  1  0
  3  4  1  0
  5  4  1  1
  5  6  1  0
  6  7  1  0
  7  8  1  0
  8  9  1  0
  9 10  1  1
 10 11  1  0
 11 12  2  0
 11 13  1  0
 13 14  1  0
 14 15  1  0
 15 16  1  0
 16 17  1  0
 17 18  2  0
 17 19  2  0
 17 20  1  0
 20 21  1  0
 21 22  1  0
 22 23  1  0
 23 24  1  0
 24 25  1  0
 16 26  1  0
 26 27  1  0
  9  5  1  0
 27 13  1  0
 25 20  1  0
M  END
>  <energy_score>  (2648) 
-2.142046

>  <inchikey>  (2648) 
None

>  <smiles>  (2648) 
None

>  <ref_pdb>  (2648) 
A4706a

>  <alias>  (2648) 
None

>  <HIPPO Pose ID>  (2648) 
500292

>  <name>  (2648) 
P500292

>  <HIPPO Compound ID>  (2648) 
314630

>  <ref_mols>  (2648) 
A0875a,A4706a

>  <distance_score>  (2648) 
1.540099

>  <inspiration_score>  (2648) 
None

$$$$
P500293
     RDKit          3D

 27 29  0  0  0  0  0  0  0  0999 V2000
    7.6544   16.6761   22.0269 C   0  0  0  0  0  0  0  0  0  0  0  0
    8.7612   15.7161   21.6204 C   0  0  1  0  0  0  0  0  0  0  0  0
    8.0751   14.4252   21.4477 O   0  0  0  0  0  0  0  0  0  0  0  0
    7.2548   13.8015   22.3297 C   0  0  0  0  0  0  0  0  0  0  0  0
    6.2321   13.2419   21.9347 O   0  0  0  0  0  0  0  0  0  0  0  0
    7.6420   13.6870   23.7863 C   0  0  0  0  0  0  0  0  0  0  0  0
    7.5356   12.2165   24.2409 C   0  0  0  0  0  0  0  0  0  0  0  0
    7.9307   11.9661   25.6870 C   0  0  0  0  0  0  0  0  0  0  0  0
    8.0414   13.2216   26.4223 N   0  0  0  0  0  0  0  0  0  0  0  0
    9.4711   14.0710   26.6136 S   0  0  0  0  0  0  0  0  0  0  0  0
    9.4306   14.5821   27.9604 O   0  0  0  0  0  0  0  0  0  0  0  0
    9.6710   15.0042   25.5380 O   0  0  0  0  0  0  0  0  0  0  0  0
   10.7342   12.9348   26.5238 N   0  0  0  0  0  0  0  0  0  0  0  0
   11.0257   12.3998   25.1587 C   0  0  0  0  0  0  0  0  0  0  0  0
   12.3962   12.8121   24.6742 C   0  0  0  0  0  0  0  0  0  0  0  0
   13.4730   12.2649   25.5940 C   0  0  0  0  0  0  0  0  0  0  0  0
   13.1673   12.6307   27.0362 C   0  0  0  0  0  0  0  0  0  0  0  0
   11.9429   13.5271   27.1763 C   0  0  0  0  0  0  0  0  0  0  0  0
    6.8432   14.0692   26.1992 C   0  0  0  0  0  0  0  0  0  0  0  0
    6.8222   14.5661   24.7479 C   0  0  0  0  0  0  0  0  0  0  0  0
    9.3394   16.3138   20.2888 C   0  0  0  0  0  0  0  0  0  0  0  0
    9.5847   15.3445   19.2450 N   0  0  0  0  0  0  0  0  0  0  0  0
   10.9692   14.9934   19.0441 C   0  0  0  0  0  0  0  0  0  0  0  0
   11.7669   14.7842   20.3243 C   0  0  0  0  0  0  0  0  0  0  0  0
   11.0658   13.9192   21.3596 C   0  0  0  0  0  0  0  0  0  0  0  0
   10.8171   14.5320   22.6098 O   0  0  0  0  0  0  0  0  0  0  0  0
    9.9728   15.6714   22.5809 C   0  0  0  0  0  0  0  0  0  0  0  0
  2  1  1  1
  2  3  1  0
  3  4  1  0
  4  5  2  0
  4  6  1  0
  6  7  1  0
  7  8  1  0
  8  9  1  0
  9 10  1  0
 10 11  2  0
 10 12  2  0
 10 13  1  0
 13 14  1  0
 14 15  1  0
 15 16  1  0
 16 17  1  0
 17 18  1  0
  9 19  1  0
 19 20  1  0
  2 21  1  0
 21 22  1  0
 22 23  1  0
 23 24  1  0
 24 25  1  0
 25 26  1  0
 26 27  1  0
 27  2  1  0
 20  6  1  0
 18 13  1  0
M  END
>  <energy_score>  (2649) 
-21.87379

>  <inchikey>  (2649) 
None

>  <smiles>  (2649) 
None

>  <ref_pdb>  (2649) 
A4706a

>  <alias>  (2649) 
None

>  <HIPPO Pose ID>  (2649) 
500293

>  <name>  (2649) 
P500293

>  <HIPPO Compound ID>  (2649) 
314631

>  <ref_mols>  (2649) 
A4706a,A0875a

>  <distance_score>  (2649) 
1.720096

>  <inspiration_score>  (2649) 
None

$$$$
P500294
     RDKit          3D

 27 29  0  0  0  0  0  0  0  0999 V2000
    9.1977   12.8029   22.8331 C   0  0  0  0  0  0  0  0  0  0  0  0
    8.5692   14.1682   22.6399 C   0  0  2  0  0  0  0  0  0  0  0  0
    9.6801   15.2165   22.8329 C   0  0  0  0  0  0  0  0  0  0  0  0
   10.8409   14.9652   22.0453 O   0  0  0  0  0  0  0  0  0  0  0  0
   10.5022   14.8452   20.6829 C   0  0  2  0  0  0  0  0  0  0  0  0
   11.7073   14.7618   19.8185 C   0  0  0  0  0  0  0  0  0  0  0  0
   11.1030   15.1158   18.4888 C   0  0  0  0  0  0  0  0  0  0  0  0
   10.0359   16.0509   18.7312 O   0  0  0  0  0  0  0  0  0  0  0  0
    9.7713   16.0409   20.1283 C   0  0  0  0  0  0  0  0  0  0  0  0
    7.5076   14.3855   23.5755 O   0  0  0  0  0  0  0  0  0  0  0  0
    6.4003   13.6304   23.3773 C   0  0  0  0  0  0  0  0  0  0  0  0
    6.1725   13.0223   22.3362 O   0  0  0  0  0  0  0  0  0  0  0  0
    5.5119   13.5130   24.6063 C   0  0  0  0  0  0  0  0  0  0  0  0
    6.0266   12.3591   25.4956 C   0  0  0  0  0  0  0  0  0  0  0  0
    6.9052   12.8437   26.6501 C   0  0  0  0  0  0  0  0  0  0  0  0
    7.5792   14.0544   26.1875 N   0  0  0  0  0  0  0  0  0  0  0  0
    9.1375   14.4636   26.5856 S   0  0  0  0  0  0  0  0  0  0  0  0
    9.3889   15.7681   26.0390 O   0  0  0  0  0  0  0  0  0  0  0  0
    9.3350   14.2230   27.9880 O   0  0  0  0  0  0  0  0  0  0  0  0
   10.1536   13.4273   25.7343 N   0  0  0  0  0  0  0  0  0  0  0  0
    9.9162   11.9916   25.8700 C   0  0  0  0  0  0  0  0  0  0  0  0
   10.9822   11.1276   25.2166 C   0  0  0  0  0  0  0  0  0  0  0  0
   12.4053   11.6084   25.4924 C   0  0  0  0  0  0  0  0  0  0  0  0
   12.5194   13.0460   25.0638 C   0  0  0  0  0  0  0  0  0  0  0  0
   11.5663   13.8620   25.9103 C   0  0  0  0  0  0  0  0  0  0  0  0
    6.6351   15.2034   26.1544 C   0  0  0  0  0  0  0  0  0  0  0  0
    5.3722   14.8161   25.3885 C   0  0  0  0  0  0  0  0  0  0  0  0
  2  1  1  1
  2  3  1  0
  3  4  1  0
  5  4  1  1
  5  6  1  0
  6  7  1  0
  7  8  1  0
  8  9  1  0
  2 10  1  0
 10 11  1  0
 11 12  2  0
 11 13  1  0
 13 14  1  0
 14 15  1  0
 15 16  1  0
 16 17  1  0
 17 18  2  0
 17 19  2  0
 17 20  1  0
 20 21  1  0
 21 22  1  0
 22 23  1  0
 23 24  1  0
 24 25  1  0
 16 26  1  0
 26 27  1  0
  9  5  1  0
 27 13  1  0
 25 20  1  0
M  END
>  <energy_score>  (2650) 
-42.619829

>  <inchikey>  (2650) 
None

>  <smiles>  (2650) 
None

>  <ref_pdb>  (2650) 
A4706a

>  <alias>  (2650) 
None

>  <HIPPO Pose ID>  (2650) 
500294

>  <name>  (2650) 
P500294

>  <HIPPO Compound ID>  (2650) 
314633

>  <ref_mols>  (2650) 
A4706a,A0875a

>  <distance_score>  (2650) 
1.729485

>  <inspiration_score>  (2650) 
None

$$$$
P500295
     RDKit          3D

 27 29  0  0  0  0  0  0  0  0999 V2000
   10.1578   15.6279   23.5804 C   0  0  0  0  0  0  0  0  0  0  0  0
   10.2035   14.1941   23.1739 C   0  0  2  0  0  0  0  0  0  0  0  0
   11.3861   13.9223   22.2854 C   0  0  0  0  0  0  0  0  0  0  0  0
   11.2205   14.1920   20.9325 O   0  0  0  0  0  0  0  0  0  0  0  0
   10.9878   15.5207   20.5237 C   0  0  1  0  0  0  0  0  0  0  0  0
   11.2287   15.4450   19.0345 C   0  0  0  0  0  0  0  0  0  0  0  0
    9.9402   14.8927   18.5441 C   0  0  0  0  0  0  0  0  0  0  0  0
    8.9789   15.0074   19.5895 O   0  0  0  0  0  0  0  0  0  0  0  0
    9.5210   15.9075   20.5288 C   0  0  0  0  0  0  0  0  0  0  0  0
    8.9089   13.7930   22.7302 O   0  0  0  0  0  0  0  0  0  0  0  0
    8.5333   12.6347   23.3096 C   0  0  0  0  0  0  0  0  0  0  0  0
    9.1704   11.5917   23.1986 O   0  0  0  0  0  0  0  0  0  0  0  0
    7.2775   12.7647   24.1740 C   0  0  0  0  0  0  0  0  0  0  0  0
    7.3748   11.6734   25.2445 C   0  0  0  0  0  0  0  0  0  0  0  0
    8.6466   11.8591   26.0932 C   0  0  0  0  0  0  0  0  0  0  0  0
    9.1221   13.2626   26.0074 N   0  0  0  0  0  0  0  0  0  0  0  0
   10.5167   13.8227   26.7539 S   0  0  0  0  0  0  0  0  0  0  0  0
   10.1972   13.9746   28.1464 O   0  0  0  0  0  0  0  0  0  0  0  0
   10.9801   14.9759   26.0247 O   0  0  0  0  0  0  0  0  0  0  0  0
   11.7430   12.6339   26.6036 N   0  0  0  0  0  0  0  0  0  0  0  0
   12.9359   12.9459   27.4771 C   0  0  0  0  0  0  0  0  0  0  0  0
   14.2978   12.7462   26.8149 C   0  0  0  0  0  0  0  0  0  0  0  0
   14.4129   11.3974   26.1879 C   0  0  0  0  0  0  0  0  0  0  0  0
   13.2565   11.2048   25.2418 C   0  0  0  0  0  0  0  0  0  0  0  0
   12.1540   12.2700   25.2415 C   0  0  0  0  0  0  0  0  0  0  0  0
    7.9702   14.2093   26.1447 C   0  0  0  0  0  0  0  0  0  0  0  0
    7.1081   14.1140   24.8868 C   0  0  0  0  0  0  0  0  0  0  0  0
  2  1  1  6
  2  3  1  0
  3  4  1  0
  5  4  1  1
  5  6  1  0
  6  7  1  0
  7  8  1  0
  8  9  1  0
  2 10  1  0
 10 11  1  0
 11 12  2  0
 11 13  1  0
 13 14  1  0
 14 15  1  0
 15 16  1  0
 16 17  1  0
 17 18  2  0
 17 19  2  0
 17 20  1  0
 20 21  1  0
 21 22  1  0
 22 23  1  0
 23 24  1  0
 24 25  1  0
 16 26  1  0
 26 27  1  0
  9  5  1  0
 27 13  1  0
 25 20  1  0
M  END
>  <energy_score>  (2651) 
-6.091183

>  <inchikey>  (2651) 
None

>  <smiles>  (2651) 
None

>  <ref_pdb>  (2651) 
A4706a

>  <alias>  (2651) 
None

>  <HIPPO Pose ID>  (2651) 
500295

>  <name>  (2651) 
P500295

>  <HIPPO Compound ID>  (2651) 
314633

>  <ref_mols>  (2651) 
A4706a,A0875a

>  <distance_score>  (2651) 
1.757888

>  <inspiration_score>  (2651) 
None

$$$$
P500296
     RDKit          3D

 27 30  0  0  0  0  0  0  0  0999 V2000
    6.2151   14.0789   21.1264 O   0  0  0  0  0  0  0  0  0  0  0  0
    7.1067   13.9435   21.9719 C   0  0  0  0  0  0  0  0  0  0  0  0
    8.3693   13.8639   21.5161 O   0  0  0  0  0  0  0  0  0  0  0  0
    9.7691   13.5742   21.9311 C   0  0  2  0  0  0  0  0  0  0  0  0
   10.0640   14.0892   23.3078 C   0  0  0  0  0  0  0  0  0  0  0  0
   10.1275   15.6085   23.3930 C   0  0  0  0  0  0  0  0  0  0  0  0
   10.3389   16.1983   21.9998 C   0  0  2  0  0  0  0  0  0  0  0  0
    9.7894   16.7255   20.6978 C   0  0  0  0  0  0  0  0  0  0  0  0
    9.8910   15.9570   19.5892 C   0  0  0  0  0  0  0  0  0  0  0  0
   10.6530   14.6687   19.5859 C   0  0  0  0  0  0  0  0  0  0  0  0
   10.9170   14.1882   21.0054 C   0  0  1  0  0  0  0  0  0  0  0  0
   11.4536   15.3726   21.6294 O   0  0  0  0  0  0  0  0  0  0  0  0
    6.5886   13.8850   23.4055 C   0  0  0  0  0  0  0  0  0  0  0  0
    6.9434   12.6702   24.2804 C   0  0  0  0  0  0  0  0  0  0  0  0
    7.1059   13.0182   25.7574 C   0  0  0  0  0  0  0  0  0  0  0  0
    7.8634   14.2628   25.7541 N   0  0  0  0  0  0  0  0  0  0  0  0
    9.2265   14.5412   26.6411 S   0  0  0  0  0  0  0  0  0  0  0  0
    8.9494   14.1927   28.0030 O   0  0  0  0  0  0  0  0  0  0  0  0
    9.6998   15.8600   26.3171 O   0  0  0  0  0  0  0  0  0  0  0  0
   10.3931   13.4919   26.0327 N   0  0  0  0  0  0  0  0  0  0  0  0
   10.0826   12.0812   25.8780 C   0  0  0  0  0  0  0  0  0  0  0  0
   11.1836   11.3373   25.1613 C   0  0  0  0  0  0  0  0  0  0  0  0
   12.5985   11.6621   25.6055 C   0  0  0  0  0  0  0  0  0  0  0  0
   12.8103   13.1415   25.7005 C   0  0  0  0  0  0  0  0  0  0  0  0
   11.7355   13.7565   26.5913 C   0  0  0  0  0  0  0  0  0  0  0  0
    6.9604   15.3866   25.4941 C   0  0  0  0  0  0  0  0  0  0  0  0
    6.5559   15.2936   24.0310 C   0  0  0  0  0  0  0  0  0  0  0  0
  1  2  2  0
  2  3  1  0
  4  3  1  6
  4  5  1  0
  5  6  1  0
  7  6  1  6
  7  8  1  0
  8  9  2  0
  9 10  1  0
 11 10  1  6
 11 12  1  0
  2 13  1  0
 13 14  1  0
 14 15  1  0
 15 16  1  0
 16 17  1  0
 17 18  2  0
 17 19  2  0
 17 20  1  0
 20 21  1  0
 21 22  1  0
 22 23  1  0
 23 24  1  0
 24 25  1  0
 16 26  1  0
 26 27  1  0
 11  4  1  0
 27 13  1  0
 12  7  1  0
 25 20  1  0
M  END
>  <energy_score>  (2652) 
-12.299954

>  <inchikey>  (2652) 
None

>  <smiles>  (2652) 
None

>  <ref_pdb>  (2652) 
A4706a

>  <alias>  (2652) 
None

>  <HIPPO Pose ID>  (2652) 
500296

>  <name>  (2652) 
P500296

>  <HIPPO Compound ID>  (2652) 
314634

>  <ref_mols>  (2652) 
A0875a,A4706a

>  <distance_score>  (2652) 
1.852004

>  <inspiration_score>  (2652) 
None

$$$$
P500297
     RDKit          3D

 27 30  0  0  0  0  0  0  0  0999 V2000
    6.4235   13.3792   21.9921 O   0  0  0  0  0  0  0  0  0  0  0  0
    6.7488   14.2130   22.8419 C   0  0  0  0  0  0  0  0  0  0  0  0
    7.7034   15.1655   22.6423 O   0  0  0  0  0  0  0  0  0  0  0  0
    8.5629   14.9092   21.5014 C   0  0  2  0  0  0  0  0  0  0  0  0
    9.4808   13.7312   21.7910 C   0  0  0  0  0  0  0  0  0  0  0  0
   10.8777   14.0332   22.3196 C   0  0  0  0  0  0  0  0  0  0  0  0
   11.5144   15.2043   21.6239 C   0  0  1  0  0  0  0  0  0  0  0  0
   11.8086   14.8684   20.1956 C   0  0  0  0  0  0  0  0  0  0  0  0
   10.9994   15.2268   19.2004 C   0  0  0  0  0  0  0  0  0  0  0  0
    9.7604   15.9843   19.5154 C   0  0  0  0  0  0  0  0  0  0  0  0
    9.3935   16.1112   21.0146 C   0  0  2  0  0  0  0  0  0  0  0  0
   10.6152   16.3033   21.7500 O   0  0  0  0  0  0  0  0  0  0  0  0
    6.1400   14.1271   24.2440 C   0  0  0  0  0  0  0  0  0  0  0  0
    6.6044   12.7457   24.7780 C   0  0  0  0  0  0  0  0  0  0  0  0
    6.9716   12.6625   26.2409 C   0  0  0  0  0  0  0  0  0  0  0  0
    7.6896   13.8592   26.6779 N   0  0  0  0  0  0  0  0  0  0  0  0
    9.2109   14.3106   26.1268 S   0  0  0  0  0  0  0  0  0  0  0  0
    9.7114   15.2639   27.0885 O   0  0  0  0  0  0  0  0  0  0  0  0
    9.1156   14.7030   24.7490 O   0  0  0  0  0  0  0  0  0  0  0  0
   10.2682   12.9837   26.1544 N   0  0  0  0  0  0  0  0  0  0  0  0
   11.6791   13.5281   26.0851 C   0  0  0  0  0  0  0  0  0  0  0  0
   12.6174   12.7331   25.1925 C   0  0  0  0  0  0  0  0  0  0  0  0
   12.4221   11.2755   25.4866 C   0  0  0  0  0  0  0  0  0  0  0  0
   10.9849   10.8125   25.1781 C   0  0  0  0  0  0  0  0  0  0  0  0
    9.9973   11.9494   25.1360 C   0  0  0  0  0  0  0  0  0  0  0  0
    6.7231   15.0002   26.6226 C   0  0  0  0  0  0  0  0  0  0  0  0
    6.3475   15.3334   25.1747 C   0  0  0  0  0  0  0  0  0  0  0  0
  1  2  2  0
  2  3  1  0
  4  3  1  1
  4  5  1  0
  5  6  1  0
  7  6  1  6
  7  8  1  0
  8  9  2  0
  9 10  1  0
 11 10  1  6
 11 12  1  0
  2 13  1  0
 13 14  1  0
 14 15  1  0
 15 16  1  0
 16 17  1  0
 17 18  2  0
 17 19  2  0
 17 20  1  0
 20 21  1  0
 21 22  1  0
 22 23  1  0
 23 24  1  0
 24 25  1  0
 16 26  1  0
 26 27  1  0
 11  4  1  0
 27 13  1  0
 12  7  1  0
 25 20  1  0
M  END
>  <energy_score>  (2653) 
-124.311853

>  <inchikey>  (2653) 
None

>  <smiles>  (2653) 
None

>  <ref_pdb>  (2653) 
A4706a

>  <alias>  (2653) 
None

>  <HIPPO Pose ID>  (2653) 
500297

>  <name>  (2653) 
P500297

>  <HIPPO Compound ID>  (2653) 
314634

>  <ref_mols>  (2653) 
A4706a,A0875a

>  <distance_score>  (2653) 
1.550652

>  <inspiration_score>  (2653) 
None

$$$$
P500298
     RDKit          3D

 27 30  0  0  0  0  0  0  0  0999 V2000
    5.8512   13.4564   21.7935 O   0  0  0  0  0  0  0  0  0  0  0  0
    6.7427   14.1264   22.3029 C   0  0  0  0  0  0  0  0  0  0  0  0
    7.5333   14.9485   21.5517 O   0  0  0  0  0  0  0  0  0  0  0  0
    8.9308   15.1565   21.8770 C   0  0  1  0  0  0  0  0  0  0  0  0
    9.6790   13.8592   21.6570 C   0  0  0  0  0  0  0  0  0  0  0  0
   11.1621   14.0265   21.9489 C   0  0  0  0  0  0  0  0  0  0  0  0
   11.7857   15.2135   21.2717 C   0  0  1  0  0  0  0  0  0  0  0  0
   11.8839   14.9009   19.8240 C   0  0  0  0  0  0  0  0  0  0  0  0
   10.9075   15.2376   18.9866 C   0  0  0  0  0  0  0  0  0  0  0  0
    9.6910   15.9222   19.5113 C   0  0  0  0  0  0  0  0  0  0  0  0
    9.6371   16.2123   21.0205 C   0  0  2  0  0  0  0  0  0  0  0  0
   10.9802   16.3670   21.5179 O   0  0  0  0  0  0  0  0  0  0  0  0
    7.0458   14.0349   23.7766 C   0  0  0  0  0  0  0  0  0  0  0  0
    6.5791   12.7507   24.4977 C   0  0  0  0  0  0  0  0  0  0  0  0
    7.1404   12.6826   25.9281 C   0  0  0  0  0  0  0  0  0  0  0  0
    7.8118   13.9503   26.2072 N   0  0  0  0  0  0  0  0  0  0  0  0
    9.4416   14.1557   26.3383 S   0  0  0  0  0  0  0  0  0  0  0  0
    9.9338   13.2877   27.3626 O   0  0  0  0  0  0  0  0  0  0  0  0
    9.7164   15.5683   26.4206 O   0  0  0  0  0  0  0  0  0  0  0  0
   10.2827   13.5891   25.0036 N   0  0  0  0  0  0  0  0  0  0  0  0
   11.7380   13.9082   25.2672 C   0  0  0  0  0  0  0  0  0  0  0  0
   12.6782   12.7820   24.9277 C   0  0  0  0  0  0  0  0  0  0  0  0
   12.2340   11.5175   25.6118 C   0  0  0  0  0  0  0  0  0  0  0  0
   10.7776   11.1626   25.2707 C   0  0  0  0  0  0  0  0  0  0  0  0
   10.1027   12.2208   24.4570 C   0  0  0  0  0  0  0  0  0  0  0  0
    6.9261   15.1206   26.0258 C   0  0  0  0  0  0  0  0  0  0  0  0
    6.5555   15.2491   24.5527 C   0  0  0  0  0  0  0  0  0  0  0  0
  1  2  2  0
  2  3  1  0
  4  3  1  6
  4  5  1  0
  5  6  1  0
  7  6  1  1
  7  8  1  0
  8  9  2  0
  9 10  1  0
 11 10  1  6
 11 12  1  0
  2 13  1  0
 13 14  1  0
 14 15  1  0
 15 16  1  0
 16 17  1  0
 17 18  2  0
 17 19  2  0
 17 20  1  0
 20 21  1  0
 21 22  1  0
 22 23  1  0
 23 24  1  0
 24 25  1  0
 16 26  1  0
 26 27  1  0
 11  4  1  0
 27 13  1  0
 12  7  1  0
 25 20  1  0
M  END
>  <energy_score>  (2654) 
-4.205308

>  <inchikey>  (2654) 
None

>  <smiles>  (2654) 
None

>  <ref_pdb>  (2654) 
A4706a

>  <alias>  (2654) 
None

>  <HIPPO Pose ID>  (2654) 
500298

>  <name>  (2654) 
P500298

>  <HIPPO Compound ID>  (2654) 
314634

>  <ref_mols>  (2654) 
A4706a,A0875a

>  <distance_score>  (2654) 
1.836636

>  <inspiration_score>  (2654) 
None

$$$$
P500299
     RDKit          3D

 27 30  0  0  0  0  0  0  0  0999 V2000
    5.7501   13.1209   21.9008 O   0  0  0  0  0  0  0  0  0  0  0  0
    6.6313   13.7761   22.4651 C   0  0  0  0  0  0  0  0  0  0  0  0
    7.5212   14.3905   21.6731 O   0  0  0  0  0  0  0  0  0  0  0  0
    8.8208   14.9163   21.9729 C   0  0  1  0  0  0  0  0  0  0  0  0
    9.7805   13.8073   22.5394 C   0  0  0  0  0  0  0  0  0  0  0  0
   11.3410   14.0212   22.3494 C   0  0  0  0  0  0  0  0  0  0  0  0
   11.7873   15.0821   21.3313 C   0  0  1  0  0  0  0  0  0  0  0  0
   11.9682   14.7656   19.8500 C   0  0  0  0  0  0  0  0  0  0  0  0
   11.0779   15.1720   18.9090 C   0  0  0  0  0  0  0  0  0  0  0  0
    9.7041   15.7448   19.3375 C   0  0  0  0  0  0  0  0  0  0  0  0
    9.6191   15.2746   20.7551 C   0  0  1  0  0  0  0  0  0  0  0  0
   10.7176   15.9942   21.3661 O   0  0  0  0  0  0  0  0  0  0  0  0
    6.6634   13.7053   23.9872 C   0  0  0  0  0  0  0  0  0  0  0  0
    7.3466   12.3970   24.4547 C   0  0  0  0  0  0  0  0  0  0  0  0
    7.7724   12.3549   25.9086 C   0  0  0  0  0  0  0  0  0  0  0  0
    8.2982   13.6371   26.3298 N   0  0  0  0  0  0  0  0  0  0  0  0
    9.8713   14.1722   26.3050 S   0  0  0  0  0  0  0  0  0  0  0  0
   10.0322   14.7890   27.5989 O   0  0  0  0  0  0  0  0  0  0  0  0
   10.1009   14.9712   25.1290 O   0  0  0  0  0  0  0  0  0  0  0  0
   10.9380   12.8681   26.2654 N   0  0  0  0  0  0  0  0  0  0  0  0
   12.3149   13.2492   26.7715 C   0  0  0  0  0  0  0  0  0  0  0  0
   13.4379   12.9965   25.7395 C   0  0  0  0  0  0  0  0  0  0  0  0
   13.5349   11.5518   25.3052 C   0  0  0  0  0  0  0  0  0  0  0  0
   12.1553   10.9782   25.3981 C   0  0  0  0  0  0  0  0  0  0  0  0
   11.0130   11.9410   25.1133 C   0  0  0  0  0  0  0  0  0  0  0  0
    7.2700   14.7020   26.2328 C   0  0  0  0  0  0  0  0  0  0  0  0
    6.9977   14.9768   24.7588 C   0  0  0  0  0  0  0  0  0  0  0  0
  1  2  2  0
  2  3  1  0
  4  3  1  6
  4  5  1  0
  5  6  1  0
  7  6  1  1
  7  8  1  0
  8  9  2  0
  9 10  1  0
 11 10  1  6
 11 12  1  0
  2 13  1  0
 13 14  1  0
 14 15  1  0
 15 16  1  0
 16 17  1  0
 17 18  2  0
 17 19  2  0
 17 20  1  0
 20 21  1  0
 21 22  1  0
 22 23  1  0
 23 24  1  0
 24 25  1  0
 16 26  1  0
 26 27  1  0
 11  4  1  0
 27 13  1  0
 12  7  1  0
 25 20  1  0
M  END
>  <energy_score>  (2655) 
-31.850442

>  <inchikey>  (2655) 
None

>  <smiles>  (2655) 
None

>  <ref_pdb>  (2655) 
A4706a

>  <alias>  (2655) 
None

>  <HIPPO Pose ID>  (2655) 
500299

>  <name>  (2655) 
P500299

>  <HIPPO Compound ID>  (2655) 
314634

>  <ref_mols>  (2655) 
A4706a,A0875a

>  <distance_score>  (2655) 
1.302481

>  <inspiration_score>  (2655) 
None

$$$$
P500300
     RDKit          3D

 27 30  0  0  0  0  0  0  0  0999 V2000
    6.2581   13.0082   22.1854 O   0  0  0  0  0  0  0  0  0  0  0  0
    6.9481   13.8694   22.7481 C   0  0  0  0  0  0  0  0  0  0  0  0
    7.8758   14.4394   21.9860 O   0  0  0  0  0  0  0  0  0  0  0  0
    8.8453   15.5185   22.0335 C   0  0  1  0  0  0  0  0  0  0  0  0
   10.0201   15.2680   23.0562 C   0  0  0  0  0  0  0  0  0  0  0  0
   11.3490   14.6397   22.4438 C   0  0  0  0  0  0  0  0  0  0  0  0
   11.8334   15.4080   21.2113 C   0  0  1  0  0  0  0  0  0  0  0  0
   11.9365   14.7661   19.8324 C   0  0  0  0  0  0  0  0  0  0  0  0
   10.9849   14.9636   18.8853 C   0  0  0  0  0  0  0  0  0  0  0  0
    9.6490   15.6346   19.2712 C   0  0  0  0  0  0  0  0  0  0  0  0
    9.6387   15.4848   20.7559 C   0  0  1  0  0  0  0  0  0  0  0  0
   10.7731   16.3296   21.0792 O   0  0  0  0  0  0  0  0  0  0  0  0
    6.6071   14.1550   24.2124 C   0  0  0  0  0  0  0  0  0  0  0  0
    6.4470   12.8144   24.9862 C   0  0  0  0  0  0  0  0  0  0  0  0
    7.1325   12.7667   26.3457 C   0  0  0  0  0  0  0  0  0  0  0  0
    8.4807   13.3957   26.2837 N   0  0  0  0  0  0  0  0  0  0  0  0
    9.5929   12.5239   25.3811 S   0  0  0  0  0  0  0  0  0  0  0  0
    9.2441   12.6628   23.9972 O   0  0  0  0  0  0  0  0  0  0  0  0
    9.6417   11.2033   25.9250 O   0  0  0  0  0  0  0  0  0  0  0  0
   11.1018   13.2038   25.6228 N   0  0  0  0  0  0  0  0  0  0  0  0
   12.1449   12.7303   24.7045 C   0  0  0  0  0  0  0  0  0  0  0  0
   13.0186   11.6578   25.3051 C   0  0  0  0  0  0  0  0  0  0  0  0
   13.8254   12.2926   26.4016 C   0  0  0  0  0  0  0  0  0  0  0  0
   12.8883   12.8994   27.4218 C   0  0  0  0  0  0  0  0  0  0  0  0
   11.5987   13.6016   26.9429 C   0  0  0  0  0  0  0  0  0  0  0  0
    8.3465   14.8404   26.0679 C   0  0  0  0  0  0  0  0  0  0  0  0
    7.2966   15.2357   25.0270 C   0  0  0  0  0  0  0  0  0  0  0  0
  1  2  2  0
  2  3  1  0
  4  3  1  6
  4  5  1  0
  5  6  1  0
  7  6  1  1
  7  8  1  0
  8  9  2  0
  9 10  1  0
 11 10  1  6
 11 12  1  0
  2 13  1  0
 13 14  1  0
 14 15  1  0
 15 16  1  0
 16 17  1  0
 17 18  2  0
 17 19  2  0
 17 20  1  0
 20 21  1  0
 21 22  1  0
 22 23  1  0
 23 24  1  0
 24 25  1  0
 16 26  1  0
 26 27  1  0
 11  4  1  0
 27 13  1  0
 12  7  1  0
 25 20  1  0
M  END
>  <energy_score>  (2656) 
-38.82085

>  <inchikey>  (2656) 
None

>  <smiles>  (2656) 
None

>  <ref_pdb>  (2656) 
A4706a

>  <alias>  (2656) 
None

>  <HIPPO Pose ID>  (2656) 
500300

>  <name>  (2656) 
P500300

>  <HIPPO Compound ID>  (2656) 
314634

>  <ref_mols>  (2656) 
A4706a,A0875a

>  <distance_score>  (2656) 
1.953514

>  <inspiration_score>  (2656) 
None

$$$$
P500301
     RDKit          3D

 27 29  0  0  0  0  0  0  0  0999 V2000
    6.1890   12.9693   22.3170 O   0  0  0  0  0  0  0  0  0  0  0  0
    6.7852   13.6016   23.1879 C   0  0  0  0  0  0  0  0  0  0  0  0
    8.0283   14.0316   22.9252 O   0  0  0  0  0  0  0  0  0  0  0  0
    8.2820   15.4375   22.6534 C   0  0  2  0  0  0  0  0  0  0  0  0
    7.0439   16.1848   22.1944 C   0  0  0  0  0  0  0  0  0  0  0  0
    6.3093   15.3907   21.3849 F   0  0  0  0  0  0  0  0  0  0  0  0
    6.2402   16.4426   23.2612 F   0  0  0  0  0  0  0  0  0  0  0  0
    9.4668   15.6526   21.6819 C   0  0  2  0  0  0  0  0  0  0  0  0
    9.5177   14.7812   20.4533 C   0  0  0  0  0  0  0  0  0  0  0  0
   10.9664   14.8652   20.0571 C   0  0  0  0  0  0  0  0  0  0  0  0
   11.6436   14.8496   21.4106 C   0  0  0  0  0  0  0  0  0  0  0  0
   10.7325   15.4321   22.3448 O   0  0  0  0  0  0  0  0  0  0  0  0
    6.1578   13.7841   24.5726 C   0  0  0  0  0  0  0  0  0  0  0  0
    6.2135   12.4055   25.2450 C   0  0  0  0  0  0  0  0  0  0  0  0
    7.6434   12.0926   25.6476 C   0  0  0  0  0  0  0  0  0  0  0  0
    8.2396   13.1573   26.4754 N   0  0  0  0  0  0  0  0  0  0  0  0
    9.7564   13.7826   26.0979 S   0  0  0  0  0  0  0  0  0  0  0  0
   10.0991   14.6685   27.1836 O   0  0  0  0  0  0  0  0  0  0  0  0
    9.7692   14.2711   24.7519 O   0  0  0  0  0  0  0  0  0  0  0  0
   10.8596   12.4932   26.1460 N   0  0  0  0  0  0  0  0  0  0  0  0
   10.7247   11.4827   25.0612 C   0  0  0  0  0  0  0  0  0  0  0  0
   11.7468   10.3699   25.2550 C   0  0  0  0  0  0  0  0  0  0  0  0
   13.1827   10.9349   25.3633 C   0  0  0  0  0  0  0  0  0  0  0  0
   13.2933   12.0352   26.3984 C   0  0  0  0  0  0  0  0  0  0  0  0
   12.2352   13.0874   26.1551 C   0  0  0  0  0  0  0  0  0  0  0  0
    7.2593   14.2258   26.8313 C   0  0  0  0  0  0  0  0  0  0  0  0
    6.6665   14.8373   25.5619 C   0  0  0  0  0  0  0  0  0  0  0  0
  1  2  2  0
  2  3  1  0
  4  3  1  6
  4  5  1  0
  5  6  1  0
  5  7  1  0
  4  8  1  0
  8  9  1  6
  9 10  1  0
 10 11  1  0
 11 12  1  0
  2 13  1  0
 13 14  1  0
 14 15  1  0
 15 16  1  0
 16 17  1  0
 17 18  2  0
 17 19  2  0
 17 20  1  0
 20 21  1  0
 21 22  1  0
 22 23  1  0
 23 24  1  0
 24 25  1  0
 16 26  1  0
 26 27  1  0
 12  8  1  0
 27 13  1  0
 25 20  1  0
M  END
>  <energy_score>  (2657) 
-36.236796

>  <inchikey>  (2657) 
None

>  <smiles>  (2657) 
None

>  <ref_pdb>  (2657) 
A4706a

>  <alias>  (2657) 
None

>  <HIPPO Pose ID>  (2657) 
500301

>  <name>  (2657) 
P500301

>  <HIPPO Compound ID>  (2657) 
314636

>  <ref_mols>  (2657) 
A4706a,A0875a

>  <distance_score>  (2657) 
1.427471

>  <inspiration_score>  (2657) 
None

$$$$
P500302
     RDKit          3D

 27 29  0  0  0  0  0  0  0  0999 V2000
    6.7941   13.9873   21.6339 O   0  0  0  0  0  0  0  0  0  0  0  0
    6.8717   14.7725   22.5786 C   0  0  0  0  0  0  0  0  0  0  0  0
    7.5582   15.9400   22.5520 O   0  0  0  0  0  0  0  0  0  0  0  0
    8.4835   16.1732   21.4367 C   0  0  1  0  0  0  0  0  0  0  0  0
    8.5780   17.6922   21.1236 C   0  0  0  0  0  0  0  0  0  0  0  0
    9.8701   18.0905   21.0267 F   0  0  0  0  0  0  0  0  0  0  0  0
    8.0565   18.0165   19.9175 F   0  0  0  0  0  0  0  0  0  0  0  0
    9.8813   15.6411   21.7723 C   0  0  2  0  0  0  0  0  0  0  0  0
   10.8763   15.7845   20.6242 C   0  0  0  0  0  0  0  0  0  0  0  0
   11.3670   14.4079   20.3303 C   0  0  0  0  0  0  0  0  0  0  0  0
   11.2329   13.8284   21.7114 C   0  0  0  0  0  0  0  0  0  0  0  0
    9.9224   14.2421   22.0989 O   0  0  0  0  0  0  0  0  0  0  0  0
    6.1860   14.4423   23.9244 C   0  0  0  0  0  0  0  0  0  0  0  0
    6.6275   13.0015   24.2884 C   0  0  0  0  0  0  0  0  0  0  0  0
    6.9389   12.7073   25.7398 C   0  0  0  0  0  0  0  0  0  0  0  0
    7.6276   13.8323   26.3712 N   0  0  0  0  0  0  0  0  0  0  0  0
    9.1554   14.3686   25.9105 S   0  0  0  0  0  0  0  0  0  0  0  0
    9.6127   15.2077   26.9942 O   0  0  0  0  0  0  0  0  0  0  0  0
    9.0972   14.9188   24.5862 O   0  0  0  0  0  0  0  0  0  0  0  0
   10.2173   13.0703   25.8411 N   0  0  0  0  0  0  0  0  0  0  0  0
   11.6256   13.6154   25.8418 C   0  0  0  0  0  0  0  0  0  0  0  0
   12.6111   12.7150   25.1126 C   0  0  0  0  0  0  0  0  0  0  0  0
   12.3109   11.2842   25.4815 C   0  0  0  0  0  0  0  0  0  0  0  0
   10.8622   10.8812   25.0947 C   0  0  0  0  0  0  0  0  0  0  0  0
   10.0287   12.0954   24.7493 C   0  0  0  0  0  0  0  0  0  0  0  0
    6.6467   14.9557   26.4491 C   0  0  0  0  0  0  0  0  0  0  0  0
    6.3072   15.4887   25.0528 C   0  0  0  0  0  0  0  0  0  0  0  0
  1  2  2  0
  2  3  1  0
  4  3  1  1
  4  5  1  0
  5  6  1  0
  5  7  1  0
  4  8  1  0
  8  9  1  6
  9 10  1  0
 10 11  1  0
 11 12  1  0
  2 13  1  0
 13 14  1  0
 14 15  1  0
 15 16  1  0
 16 17  1  0
 17 18  2  0
 17 19  2  0
 17 20  1  0
 20 21  1  0
 21 22  1  0
 22 23  1  0
 23 24  1  0
 24 25  1  0
 16 26  1  0
 26 27  1  0
 12  8  1  0
 27 13  1  0
 25 20  1  0
M  END
>  <energy_score>  (2658) 
-31.443615

>  <inchikey>  (2658) 
None

>  <smiles>  (2658) 
None

>  <ref_pdb>  (2658) 
A4706a

>  <alias>  (2658) 
None

>  <HIPPO Pose ID>  (2658) 
500302

>  <name>  (2658) 
P500302

>  <HIPPO Compound ID>  (2658) 
314636

>  <ref_mols>  (2658) 
A0875a,A4706a

>  <distance_score>  (2658) 
1.663398

>  <inspiration_score>  (2658) 
None

$$$$
P500303
     RDKit          3D

 27 29  0  0  0  0  0  0  0  0999 V2000
    6.5079   13.2486   22.1026 O   0  0  0  0  0  0  0  0  0  0  0  0
    6.8667   13.5102   23.2451 C   0  0  0  0  0  0  0  0  0  0  0  0
    7.8991   14.3150   23.5544 O   0  0  0  0  0  0  0  0  0  0  0  0
    8.4703   15.2099   22.5569 C   0  0  2  0  0  0  0  0  0  0  0  0
    7.3842   16.1165   22.0263 C   0  0  0  0  0  0  0  0  0  0  0  0
    6.6571   16.6106   23.0663 F   0  0  0  0  0  0  0  0  0  0  0  0
    7.9332   17.1633   21.3765 F   0  0  0  0  0  0  0  0  0  0  0  0
    9.2533   14.4465   21.4872 C   0  0  1  0  0  0  0  0  0  0  0  0
    9.9453   15.2394   20.3891 C   0  0  0  0  0  0  0  0  0  0  0  0
   11.3173   15.4568   20.9434 C   0  0  0  0  0  0  0  0  0  0  0  0
   11.5558   14.2274   21.7672 C   0  0  0  0  0  0  0  0  0  0  0  0
   10.2925   13.7343   22.1952 O   0  0  0  0  0  0  0  0  0  0  0  0
    6.1824   12.9131   24.4634 C   0  0  0  0  0  0  0  0  0  0  0  0
    7.0266   11.7903   25.0917 C   0  0  0  0  0  0  0  0  0  0  0  0
    7.7902   12.2576   26.3265 C   0  0  0  0  0  0  0  0  0  0  0  0
    8.1126   13.6547   26.0929 N   0  0  0  0  0  0  0  0  0  0  0  0
    9.4996   14.3756   26.6095 S   0  0  0  0  0  0  0  0  0  0  0  0
    9.3019   14.6439   28.0110 O   0  0  0  0  0  0  0  0  0  0  0  0
    9.8163   15.4373   25.6853 O   0  0  0  0  0  0  0  0  0  0  0  0
   10.7363   13.2098   26.4922 N   0  0  0  0  0  0  0  0  0  0  0  0
   11.8964   13.7195   27.2886 C   0  0  0  0  0  0  0  0  0  0  0  0
   13.0982   12.7853   27.2413 C   0  0  0  0  0  0  0  0  0  0  0  0
   13.5126   12.4439   25.8341 C   0  0  0  0  0  0  0  0  0  0  0  0
   12.3110   12.0610   25.0067 C   0  0  0  0  0  0  0  0  0  0  0  0
   11.1243   12.9919   25.0834 C   0  0  0  0  0  0  0  0  0  0  0  0
    6.9313   14.5482   26.2401 C   0  0  0  0  0  0  0  0  0  0  0  0
    5.7555   13.9781   25.4677 C   0  0  0  0  0  0  0  0  0  0  0  0
  1  2  2  0
  2  3  1  0
  4  3  1  1
  4  5  1  0
  5  6  1  0
  5  7  1  0
  4  8  1  0
  8  9  1  6
  9 10  1  0
 10 11  1  0
 11 12  1  0
  2 13  1  0
 13 14  1  0
 14 15  1  0
 15 16  1  0
 16 17  1  0
 17 18  2  0
 17 19  2  0
 17 20  1  0
 20 21  1  0
 21 22  1  0
 22 23  1  0
 23 24  1  0
 24 25  1  0
 16 26  1  0
 26 27  1  0
 12  8  1  0
 27 13  1  0
 25 20  1  0
M  END
>  <energy_score>  (2659) 
-68.202545

>  <inchikey>  (2659) 
None

>  <smiles>  (2659) 
None

>  <ref_pdb>  (2659) 
A4706a

>  <alias>  (2659) 
None

>  <HIPPO Pose ID>  (2659) 
500303

>  <name>  (2659) 
P500303

>  <HIPPO Compound ID>  (2659) 
314636

>  <ref_mols>  (2659) 
A4706a,A0875a

>  <distance_score>  (2659) 
1.657597

>  <inspiration_score>  (2659) 
None

$$$$
P500304
     RDKit          3D

 27 29  0  0  0  0  0  0  0  0999 V2000
    6.8227   13.3729   21.9621 O   0  0  0  0  0  0  0  0  0  0  0  0
    7.4683   14.0844   22.7167 C   0  0  0  0  0  0  0  0  0  0  0  0
    7.9574   15.3209   22.4540 O   0  0  0  0  0  0  0  0  0  0  0  0
    8.5934   15.5045   21.1699 C   0  0  1  0  0  0  0  0  0  0  0  0
    8.9895   16.9719   21.0209 C   0  0  0  0  0  0  0  0  0  0  0  0
    9.2172   17.2916   19.7219 F   0  0  0  0  0  0  0  0  0  0  0  0
    7.9911   17.7668   21.4294 F   0  0  0  0  0  0  0  0  0  0  0  0
    9.8360   14.6331   21.0438 C   0  0  1  0  0  0  0  0  0  0  0  0
   10.6384   14.7890   19.7584 C   0  0  0  0  0  0  0  0  0  0  0  0
   12.0168   14.5106   20.2614 C   0  0  0  0  0  0  0  0  0  0  0  0
   12.0058   15.1998   21.6047 C   0  0  0  0  0  0  0  0  0  0  0  0
   10.7190   14.9279   22.1443 O   0  0  0  0  0  0  0  0  0  0  0  0
    7.9461   13.6805   24.0736 C   0  0  0  0  0  0  0  0  0  0  0  0
    8.6850   12.3422   23.9933 C   0  0  0  0  0  0  0  0  0  0  0  0
    8.9523   11.7641   25.3682 C   0  0  0  0  0  0  0  0  0  0  0  0
    9.1026   12.8448   26.3456 N   0  0  0  0  0  0  0  0  0  0  0  0
   10.4961   13.8188   26.3787 S   0  0  0  0  0  0  0  0  0  0  0  0
   10.4383   14.4737   27.6606 O   0  0  0  0  0  0  0  0  0  0  0  0
   10.6162   14.5953   25.1706 O   0  0  0  0  0  0  0  0  0  0  0  0
   11.8021   12.7046   26.4017 N   0  0  0  0  0  0  0  0  0  0  0  0
   12.8850   13.0015   27.3971 C   0  0  0  0  0  0  0  0  0  0  0  0
   14.3110   12.7595   26.8978 C   0  0  0  0  0  0  0  0  0  0  0  0
   14.4688   11.4377   26.2203 C   0  0  0  0  0  0  0  0  0  0  0  0
   13.3704   11.2621   25.1941 C   0  0  0  0  0  0  0  0  0  0  0  0
   12.3572   12.4060   25.0733 C   0  0  0  0  0  0  0  0  0  0  0  0
    7.7949   13.6057   26.5331 C   0  0  0  0  0  0  0  0  0  0  0  0
    6.9744   13.6934   25.2305 C   0  0  0  0  0  0  0  0  0  0  0  0
  1  2  2  0
  2  3  1  0
  4  3  1  1
  4  5  1  0
  5  6  1  0
  5  7  1  0
  4  8  1  0
  8  9  1  6
  9 10  1  0
 10 11  1  0
 11 12  1  0
  2 13  1  0
 13 14  1  0
 14 15  1  0
 15 16  1  0
 16 17  1  0
 17 18  2  0
 17 19  2  0
 17 20  1  0
 20 21  1  0
 21 22  1  0
 22 23  1  0
 23 24  1  0
 24 25  1  0
 16 26  1  0
 26 27  1  0
 12  8  1  0
 27 13  1  0
 25 20  1  0
M  END
>  <energy_score>  (2660) 
-18.516683

>  <inchikey>  (2660) 
None

>  <smiles>  (2660) 
None

>  <ref_pdb>  (2660) 
A4706a

>  <alias>  (2660) 
None

>  <HIPPO Pose ID>  (2660) 
500304

>  <name>  (2660) 
P500304

>  <HIPPO Compound ID>  (2660) 
314636

>  <ref_mols>  (2660) 
A0875a,A4706a

>  <distance_score>  (2660) 
1.659815

>  <inspiration_score>  (2660) 
None

$$$$
P500305
     RDKit          3D

 27 29  0  0  0  0  0  0  0  0999 V2000
    5.6874   16.7858   23.5943 C   0  0  0  0  0  0  0  0  0  0  0  0
    6.9926   16.2562   23.4571 O   0  0  0  0  0  0  0  0  0  0  0  0
    7.5207   16.3208   22.1275 C   0  0  0  0  0  0  0  0  0  0  0  0
    8.5414   15.1746   21.9279 C   0  0  0  0  0  0  0  0  0  0  0  0
    7.6419   14.0436   22.2766 O   0  0  0  0  0  0  0  0  0  0  0  0
    7.9124   13.0489   23.1401 C   0  0  0  0  0  0  0  0  0  0  0  0
    8.8968   12.3289   23.0397 O   0  0  0  0  0  0  0  0  0  0  0  0
    6.8008   12.8375   24.2002 C   0  0  0  0  0  0  0  0  0  0  0  0
    7.0293   11.5107   24.9330 C   0  0  0  0  0  0  0  0  0  0  0  0
    8.0180   11.5428   26.0764 C   0  0  0  0  0  0  0  0  0  0  0  0
    8.1408   12.8636   26.6984 N   0  0  0  0  0  0  0  0  0  0  0  0
    9.4633   13.8293   26.3325 S   0  0  0  0  0  0  0  0  0  0  0  0
    9.3822   14.1342   24.9466 O   0  0  0  0  0  0  0  0  0  0  0  0
    9.5079   14.9172   27.2704 O   0  0  0  0  0  0  0  0  0  0  0  0
   10.8076   12.8230   26.5391 N   0  0  0  0  0  0  0  0  0  0  0  0
   11.9354   13.5436   27.1955 C   0  0  0  0  0  0  0  0  0  0  0  0
   13.2271   12.7283   27.1034 C   0  0  0  0  0  0  0  0  0  0  0  0
   13.6316   12.4503   25.6580 C   0  0  0  0  0  0  0  0  0  0  0  0
   12.4673   12.7457   24.7238 C   0  0  0  0  0  0  0  0  0  0  0  0
   11.2262   12.1066   25.2918 C   0  0  0  0  0  0  0  0  0  0  0  0
    6.8487   13.5830   26.6669 C   0  0  0  0  0  0  0  0  0  0  0  0
    6.5204   13.9487   25.2241 C   0  0  0  0  0  0  0  0  0  0  0  0
    8.9315   15.1407   20.4457 C   0  0  0  0  0  0  0  0  0  0  0  0
   10.2947   14.5252   20.2394 C   0  0  0  0  0  0  0  0  0  0  0  0
   11.3227   15.3554   20.7553 O   0  0  0  0  0  0  0  0  0  0  0  0
   10.9310   16.0538   21.9269 C   0  0  0  0  0  0  0  0  0  0  0  0
    9.8565   15.3207   22.7141 C   0  0  0  0  0  0  0  0  0  0  0  0
  1  2  1  0
  2  3  1  0
  3  4  1  0
  4  5  1  0
  5  6  1  0
  6  7  2  0
  6  8  1  0
  8  9  1  0
  9 10  1  0
 10 11  1  0
 11 12  1  0
 12 13  2  0
 12 14  2  0
 12 15  1  0
 15 16  1  0
 16 17  1  0
 17 18  1  0
 18 19  1  0
 19 20  1  0
 11 21  1  0
 21 22  1  0
  4 23  1  0
 23 24  1  0
 24 25  1  0
 25 26  1  0
 26 27  1  0
 27  4  1  0
 22  8  1  0
 20 15  1  0
M  END
>  <energy_score>  (2661) 
-12.80618

>  <inchikey>  (2661) 
None

>  <smiles>  (2661) 
None

>  <ref_pdb>  (2661) 
A4706a

>  <alias>  (2661) 
None

>  <HIPPO Pose ID>  (2661) 
500305

>  <name>  (2661) 
P500305

>  <HIPPO Compound ID>  (2661) 
314637

>  <ref_mols>  (2661) 
A4706a,A0875a

>  <distance_score>  (2661) 
1.750783

>  <inspiration_score>  (2661) 
None

$$$$
P500306
     RDKit          3D

 27 30  0  0  0  0  0  0  0  0999 V2000
    9.2320   13.9637   20.5892 N   0  0  0  0  0  0  0  0  0  0  0  0
    9.6873   15.3156   20.7690 C   0  0  2  0  0  0  0  0  0  0  0  0
   11.1520   15.1599   21.0013 C   0  0  0  0  0  0  0  0  0  0  0  0
   11.6000   14.3679   22.1954 C   0  0  0  0  0  0  0  0  0  0  0  0
   11.9793   15.7999   22.0615 C   0  0  0  0  0  0  0  0  0  0  0  0
    8.8470   16.0705   21.8233 C   0  0  0  0  0  0  0  0  0  0  0  0
    8.8667   15.5552   23.1846 O   0  0  0  0  0  0  0  0  0  0  0  0
    8.2170   14.3650   23.3925 C   0  0  0  0  0  0  0  0  0  0  0  0
    8.6294   13.2860   22.9661 O   0  0  0  0  0  0  0  0  0  0  0  0
    6.9242   14.4080   24.2114 C   0  0  0  0  0  0  0  0  0  0  0  0
    6.6207   12.9739   24.7111 C   0  0  0  0  0  0  0  0  0  0  0  0
    7.6819   12.4764   25.7011 C   0  0  0  0  0  0  0  0  0  0  0  0
    8.1519   13.5691   26.5693 N   0  0  0  0  0  0  0  0  0  0  0  0
    9.7019   14.2014   26.5456 S   0  0  0  0  0  0  0  0  0  0  0  0
    9.8147   14.9105   27.7967 O   0  0  0  0  0  0  0  0  0  0  0  0
    9.9662   14.9236   25.3306 O   0  0  0  0  0  0  0  0  0  0  0  0
   10.8078   12.9122   26.6002 N   0  0  0  0  0  0  0  0  0  0  0  0
   11.0815   12.2726   25.2782 C   0  0  0  0  0  0  0  0  0  0  0  0
   12.4532   12.6656   24.7707 C   0  0  0  0  0  0  0  0  0  0  0  0
   13.5444   12.1242   25.6671 C   0  0  0  0  0  0  0  0  0  0  0  0
   13.2647   12.5162   27.1060 C   0  0  0  0  0  0  0  0  0  0  0  0
   12.0598   13.4336   27.2549 C   0  0  0  0  0  0  0  0  0  0  0  0
    7.1112   14.6219   26.7426 C   0  0  0  0  0  0  0  0  0  0  0  0
    6.9017   15.3567   25.4141 C   0  0  0  0  0  0  0  0  0  0  0  0
    7.3947   16.3891   21.5094 C   0  0  0  0  0  0  0  0  0  0  0  0
    7.8177   17.4555   20.6225 O   0  0  0  0  0  0  0  0  0  0  0  0
    9.0044   17.5765   21.4063 C   0  0  0  0  0  0  0  0  0  0  0  0
  2  1  1  1
  2  3  1  0
  3  4  1  0
  4  5  1  0
  2  6  1  0
  6  7  1  0
  7  8  1  0
  8  9  2  0
  8 10  1  0
 10 11  1  0
 11 12  1  0
 12 13  1  0
 13 14  1  0
 14 15  2  0
 14 16  2  0
 14 17  1  0
 17 18  1  0
 18 19  1  0
 19 20  1  0
 20 21  1  0
 21 22  1  0
 13 23  1  0
 23 24  1  0
  6 25  1  0
 25 26  1  0
 26 27  1  0
  5  3  1  0
 27  6  1  0
 24 10  1  0
 22 17  1  0
M  END
>  <energy_score>  (2662) 
-30.556184

>  <inchikey>  (2662) 
None

>  <smiles>  (2662) 
None

>  <ref_pdb>  (2662) 
A4706a

>  <alias>  (2662) 
None

>  <HIPPO Pose ID>  (2662) 
500306

>  <name>  (2662) 
P500306

>  <HIPPO Compound ID>  (2662) 
314638

>  <ref_mols>  (2662) 
A0875a,A4706a

>  <distance_score>  (2662) 
1.731691

>  <inspiration_score>  (2662) 
None

$$$$
P500307
     RDKit          3D

 27 30  0  0  0  0  0  0  0  0999 V2000
    9.8045   15.1730   19.9956 N   0  0  0  0  0  0  0  0  0  0  0  0
    9.6442   15.0587   21.4593 C   0  0  1  0  0  0  0  0  0  0  0  0
   10.9826   15.3828   22.0567 C   0  0  0  0  0  0  0  0  0  0  0  0
   11.8820   14.2443   22.3863 C   0  0  0  0  0  0  0  0  0  0  0  0
   12.2761   15.2112   21.3133 C   0  0  0  0  0  0  0  0  0  0  0  0
    8.5771   15.9906   22.0994 C   0  0  0  0  0  0  0  0  0  0  0  0
    8.1316   15.5986   23.4417 O   0  0  0  0  0  0  0  0  0  0  0  0
    7.3169   14.4852   23.4649 C   0  0  0  0  0  0  0  0  0  0  0  0
    7.2319   13.6506   22.5620 O   0  0  0  0  0  0  0  0  0  0  0  0
    6.4011   14.3857   24.6810 C   0  0  0  0  0  0  0  0  0  0  0  0
    6.2896   12.9004   25.0812 C   0  0  0  0  0  0  0  0  0  0  0  0
    7.6209   12.3695   25.6155 C   0  0  0  0  0  0  0  0  0  0  0  0
    8.3198   13.3992   26.4263 N   0  0  0  0  0  0  0  0  0  0  0  0
    9.7748   14.0452   25.8596 S   0  0  0  0  0  0  0  0  0  0  0  0
    9.7737   14.0914   24.4283 O   0  0  0  0  0  0  0  0  0  0  0  0
   10.0649   15.2141   26.6498 O   0  0  0  0  0  0  0  0  0  0  0  0
   10.8440   12.8362   26.2667 N   0  0  0  0  0  0  0  0  0  0  0  0
   10.8382   11.6608   25.3609 C   0  0  0  0  0  0  0  0  0  0  0  0
   12.1761   10.9780   25.4922 C   0  0  0  0  0  0  0  0  0  0  0  0
   13.2400   11.8480   24.9378 C   0  0  0  0  0  0  0  0  0  0  0  0
   13.3003   13.1019   25.7593 C   0  0  0  0  0  0  0  0  0  0  0  0
   12.1663   13.2907   26.7665 C   0  0  0  0  0  0  0  0  0  0  0  0
    7.3907   14.3936   27.0133 C   0  0  0  0  0  0  0  0  0  0  0  0
    6.7737   15.2348   25.9008 C   0  0  0  0  0  0  0  0  0  0  0  0
    7.3110   16.2309   21.3514 C   0  0  0  0  0  0  0  0  0  0  0  0
    7.9156   17.2969   20.5786 O   0  0  0  0  0  0  0  0  0  0  0  0
    8.8500   17.4775   21.6200 C   0  0  0  0  0  0  0  0  0  0  0  0
  2  1  1  6
  2  3  1  0
  3  4  1  0
  4  5  1  0
  2  6  1  0
  6  7  1  0
  7  8  1  0
  8  9  2  0
  8 10  1  0
 10 11  1  0
 11 12  1  0
 12 13  1  0
 13 14  1  0
 14 15  2  0
 14 16  2  0
 14 17  1  0
 17 18  1  0
 18 19  1  0
 19 20  1  0
 20 21  1  0
 21 22  1  0
 13 23  1  0
 23 24  1  0
  6 25  1  0
 25 26  1  0
 26 27  1  0
  5  3  1  0
 27  6  1  0
 24 10  1  0
 22 17  1  0
M  END
>  <energy_score>  (2663) 
-50.788496

>  <inchikey>  (2663) 
None

>  <smiles>  (2663) 
None

>  <ref_pdb>  (2663) 
A4706a

>  <alias>  (2663) 
None

>  <HIPPO Pose ID>  (2663) 
500307

>  <name>  (2663) 
P500307

>  <HIPPO Compound ID>  (2663) 
314638

>  <ref_mols>  (2663) 
A4706a,A0875a

>  <distance_score>  (2663) 
1.341662

>  <inspiration_score>  (2663) 
None

$$$$
P500308
     RDKit          3D

 27 30  0  0  0  0  0  0  0  0999 V2000
   12.0534   14.2900   22.9441 N   0  0  0  0  0  0  0  0  0  0  0  0
   11.9285   14.4169   21.5030 C   0  0  0  0  0  0  0  0  0  0  0  0
   10.6102   14.9580   21.0903 C   0  0  2  0  0  0  0  0  0  0  0  0
   10.5537   15.2840   19.5981 C   0  0  0  0  0  0  0  0  0  0  0  0
    9.4892   16.2456   19.5359 O   0  0  0  0  0  0  0  0  0  0  0  0
    8.9619   16.3493   20.8916 C   0  0  2  0  0  0  0  0  0  0  0  0
   10.2125   16.2613   21.7234 C   0  0  0  0  0  0  0  0  0  0  0  0
    8.2191   15.0363   21.2308 C   0  0  2  0  0  0  0  0  0  0  0  0
    7.4329   15.1325   22.4168 O   0  0  0  0  0  0  0  0  0  0  0  0
    6.8390   13.9510   22.7602 C   0  0  0  0  0  0  0  0  0  0  0  0
    6.2246   13.2000   22.0204 O   0  0  0  0  0  0  0  0  0  0  0  0
    7.1546   13.6643   24.1907 C   0  0  0  0  0  0  0  0  0  0  0  0
    7.0191   12.2425   24.7059 C   0  0  0  0  0  0  0  0  0  0  0  0
    7.9687   12.0459   25.8882 C   0  0  0  0  0  0  0  0  0  0  0  0
    8.2872   13.3308   26.5479 N   0  0  0  0  0  0  0  0  0  0  0  0
    9.7463   14.1493   26.2898 S   0  0  0  0  0  0  0  0  0  0  0  0
    9.8052   15.1233   27.3517 O   0  0  0  0  0  0  0  0  0  0  0  0
    9.9143   14.6020   24.9292 O   0  0  0  0  0  0  0  0  0  0  0  0
   10.9347   12.9569   26.5947 N   0  0  0  0  0  0  0  0  0  0  0  0
   11.3945   12.1773   25.4062 C   0  0  0  0  0  0  0  0  0  0  0  0
   12.8657   12.4078   25.1248 C   0  0  0  0  0  0  0  0  0  0  0  0
   13.8064   12.1106   26.2583 C   0  0  0  0  0  0  0  0  0  0  0  0
   13.2631   12.6630   27.5543 C   0  0  0  0  0  0  0  0  0  0  0  0
   12.0367   13.5582   27.3986 C   0  0  0  0  0  0  0  0  0  0  0  0
    7.0855   14.2215   26.6237 C   0  0  0  0  0  0  0  0  0  0  0  0
    6.6822   14.6788   25.2199 C   0  0  0  0  0  0  0  0  0  0  0  0
    9.4059   14.0888   21.4207 C   0  0  0  0  0  0  0  0  0  0  0  0
  1  2  1  0
  3  2  1  1
  3  4  1  0
  4  5  1  0
  6  5  1  6
  6  7  1  0
  6  8  1  0
  8  9  1  1
  9 10  1  0
 10 11  2  0
 10 12  1  0
 12 13  1  0
 13 14  1  0
 14 15  1  0
 15 16  1  0
 16 17  2  0
 16 18  2  0
 16 19  1  0
 19 20  1  0
 20 21  1  0
 21 22  1  0
 22 23  1  0
 23 24  1  0
 15 25  1  0
 25 26  1  0
  8 27  1  0
  7  3  1  0
 26 12  1  0
 27  3  1  0
 24 19  1  0
M  END
>  <energy_score>  (2664) 
-33.775209

>  <inchikey>  (2664) 
None

>  <smiles>  (2664) 
None

>  <ref_pdb>  (2664) 
A4706a

>  <alias>  (2664) 
None

>  <HIPPO Pose ID>  (2664) 
500308

>  <name>  (2664) 
P500308

>  <HIPPO Compound ID>  (2664) 
314639

>  <ref_mols>  (2664) 
A4706a,A0875a

>  <distance_score>  (2664) 
1.676058

>  <inspiration_score>  (2664) 
None

$$$$
P500309
     RDKit          3D

 27 30  0  0  0  0  0  0  0  0999 V2000
   10.9955   14.3570   18.5030 N   0  0  0  0  0  0  0  0  0  0  0  0
   10.2643   15.4713   19.0864 C   0  0  0  0  0  0  0  0  0  0  0  0
   10.0431   15.3074   20.5694 C   0  0  2  0  0  0  0  0  0  0  0  0
    9.6861   16.5725   21.3291 C   0  0  0  0  0  0  0  0  0  0  0  0
   10.0685   16.2297   22.6770 O   0  0  0  0  0  0  0  0  0  0  0  0
   10.4258   14.8545   22.6637 C   0  0  2  0  0  0  0  0  0  0  0  0
   11.2177   14.7782   21.3859 C   0  0  0  0  0  0  0  0  0  0  0  0
    9.1221   14.0708   22.4098 C   0  0  1  0  0  0  0  0  0  0  0  0
    8.0155   14.5743   23.1862 O   0  0  0  0  0  0  0  0  0  0  0  0
    6.8694   13.8755   23.1772 C   0  0  0  0  0  0  0  0  0  0  0  0
    6.6236   12.9985   22.3529 O   0  0  0  0  0  0  0  0  0  0  0  0
    5.9268   14.1769   24.3485 C   0  0  0  0  0  0  0  0  0  0  0  0
    5.7804   12.8737   25.1417 C   0  0  0  0  0  0  0  0  0  0  0  0
    7.1114   12.5183   25.7881 C   0  0  0  0  0  0  0  0  0  0  0  0
    7.6736   13.6095   26.6084 N   0  0  0  0  0  0  0  0  0  0  0  0
    9.2607   14.1525   26.4706 S   0  0  0  0  0  0  0  0  0  0  0  0
    9.3839   14.8881   25.2457 O   0  0  0  0  0  0  0  0  0  0  0  0
    9.5754   14.8194   27.7096 O   0  0  0  0  0  0  0  0  0  0  0  0
   10.3544   12.8674   26.3605 N   0  0  0  0  0  0  0  0  0  0  0  0
   11.7387   13.4526   26.2619 C   0  0  0  0  0  0  0  0  0  0  0  0
   12.6000   12.8090   25.1887 C   0  0  0  0  0  0  0  0  0  0  0  0
   12.5686   11.3295   25.4290 C   0  0  0  0  0  0  0  0  0  0  0  0
   11.1510   10.7723   25.2288 C   0  0  0  0  0  0  0  0  0  0  0  0
   10.0597   11.7982   25.4097 C   0  0  0  0  0  0  0  0  0  0  0  0
    6.7313   14.7722   26.7156 C   0  0  0  0  0  0  0  0  0  0  0  0
    6.3249   15.2939   25.3253 C   0  0  0  0  0  0  0  0  0  0  0  0
    8.9303   14.3230   20.9299 C   0  0  0  0  0  0  0  0  0  0  0  0
  1  2  1  0
  3  2  1  6
  3  4  1  0
  4  5  1  0
  6  5  1  6
  6  7  1  0
  6  8  1  0
  8  9  1  1
  9 10  1  0
 10 11  2  0
 10 12  1  0
 12 13  1  0
 13 14  1  0
 14 15  1  0
 15 16  1  0
 16 17  2  0
 16 18  2  0
 16 19  1  0
 19 20  1  0
 20 21  1  0
 21 22  1  0
 22 23  1  0
 23 24  1  0
 15 25  1  0
 25 26  1  0
  8 27  1  0
  7  3  1  0
 26 12  1  0
 27  3  1  0
 24 19  1  0
M  END
>  <energy_score>  (2665) 
-23.363966

>  <inchikey>  (2665) 
None

>  <smiles>  (2665) 
None

>  <ref_pdb>  (2665) 
A4706a

>  <alias>  (2665) 
None

>  <HIPPO Pose ID>  (2665) 
500309

>  <name>  (2665) 
P500309

>  <HIPPO Compound ID>  (2665) 
314639

>  <ref_mols>  (2665) 
A0875a,A4706a

>  <distance_score>  (2665) 
1.551432

>  <inspiration_score>  (2665) 
None

$$$$
P500310
     RDKit          3D

 27 29  0  0  0  0  0  0  0  0999 V2000
    7.8406   16.1642   21.6492 C   0  0  0  0  0  0  0  0  0  0  0  0
    9.1540   16.6775   21.0688 C   0  0  0  0  0  0  0  0  0  0  0  0
    8.9472   18.1799   20.8915 C   0  0  0  0  0  0  0  0  0  0  0  0
    9.5954   16.0597   19.7356 C   0  0  0  0  0  0  0  0  0  0  0  0
   10.9245   15.5587   19.7824 O   0  0  0  0  0  0  0  0  0  0  0  0
   10.9349   14.2594   20.3311 C   0  0  0  0  0  0  0  0  0  0  0  0
   10.2928   14.0701   21.7311 C   0  0  2  0  0  0  0  0  0  0  0  0
    8.8714   13.7082   21.5937 O   0  0  0  0  0  0  0  0  0  0  0  0
    7.9223   13.3420   22.4918 C   0  0  0  0  0  0  0  0  0  0  0  0
    6.8001   13.0213   22.0996 O   0  0  0  0  0  0  0  0  0  0  0  0
    8.2245   13.2824   23.9474 C   0  0  0  0  0  0  0  0  0  0  0  0
    8.1967   11.8597   24.4958 C   0  0  0  0  0  0  0  0  0  0  0  0
    8.7616   11.8485   25.9159 C   0  0  0  0  0  0  0  0  0  0  0  0
    8.7123   13.1943   26.5100 N   0  0  0  0  0  0  0  0  0  0  0  0
   10.0325   14.1914   26.8031 S   0  0  0  0  0  0  0  0  0  0  0  0
   10.0985   14.3569   28.2274 O   0  0  0  0  0  0  0  0  0  0  0  0
    9.9214   15.3280   25.9169 O   0  0  0  0  0  0  0  0  0  0  0  0
   11.3658   13.3044   26.3110 N   0  0  0  0  0  0  0  0  0  0  0  0
   12.5270   13.0770   27.1967 C   0  0  0  0  0  0  0  0  0  0  0  0
   13.7380   12.4784   26.4530 C   0  0  0  0  0  0  0  0  0  0  0  0
   13.3270   11.6252   25.2682 C   0  0  0  0  0  0  0  0  0  0  0  0
   12.2505   12.2989   24.4310 C   0  0  0  0  0  0  0  0  0  0  0  0
   11.8092   13.5923   24.9746 C   0  0  0  0  0  0  0  0  0  0  0  0
    7.4162   13.8721   26.2837 C   0  0  0  0  0  0  0  0  0  0  0  0
    7.2868   14.1750   24.7898 C   0  0  0  0  0  0  0  0  0  0  0  0
   10.5201   15.3260   22.5602 C   0  0  0  0  0  0  0  0  0  0  0  0
   10.2628   16.5564   21.9542 O   0  0  0  0  0  0  0  0  0  0  0  0
  1  2  1  0
  2  3  1  0
  2  4  1  0
  4  5  1  0
  5  6  1  0
  6  7  1  0
  7  8  1  6
  8  9  1  0
  9 10  2  0
  9 11  1  0
 11 12  1  0
 12 13  1  0
 13 14  1  0
 14 15  1  0
 15 16  2  0
 15 17  2  0
 15 18  1  0
 18 19  1  0
 19 20  1  0
 20 21  1  0
 21 22  1  0
 22 23  1  0
 14 24  1  0
 24 25  1  0
  7 26  1  0
 26 27  1  0
 27  2  1  0
 25 11  1  0
 23 18  1  0
M  END
>  <energy_score>  (2666) 
-1.397797

>  <inchikey>  (2666) 
None

>  <smiles>  (2666) 
None

>  <ref_pdb>  (2666) 
A4706a

>  <alias>  (2666) 
None

>  <HIPPO Pose ID>  (2666) 
500310

>  <name>  (2666) 
P500310

>  <HIPPO Compound ID>  (2666) 
314640

>  <ref_mols>  (2666) 
A4706a,A0875a

>  <distance_score>  (2666) 
1.572159

>  <inspiration_score>  (2666) 
None

$$$$
P500311
     RDKit          3D

 27 30  0  0  0  0  0  0  0  0999 V2000
   12.1142   13.9033   19.4733 N   0  0  0  0  0  0  0  0  0  0  0  0
   11.3089   15.1074   19.4952 C   0  0  1  0  0  0  0  0  0  0  0  0
    9.9405   15.0138   18.8674 C   0  0  0  0  0  0  0  0  0  0  0  0
    8.9401   14.9034   19.9179 O   0  0  0  0  0  0  0  0  0  0  0  0
    9.6502   14.7244   21.1121 C   0  0  1  0  0  0  0  0  0  0  0  0
   10.8914   15.5425   20.8627 C   0  0  1  0  0  0  0  0  0  0  0  0
   11.6685   15.3602   22.0148 O   0  0  0  0  0  0  0  0  0  0  0  0
   10.6480   15.4108   23.0398 C   0  0  0  0  0  0  0  0  0  0  0  0
    9.2331   15.4151   22.3795 C   0  0  2  0  0  0  0  0  0  0  0  0
    8.2000   14.9239   23.2592 O   0  0  0  0  0  0  0  0  0  0  0  0
    7.2737   13.9932   22.9430 C   0  0  0  0  0  0  0  0  0  0  0  0
    7.3016   13.2767   21.9514 O   0  0  0  0  0  0  0  0  0  0  0  0
    6.1690   13.8166   24.0022 C   0  0  0  0  0  0  0  0  0  0  0  0
    6.3611   12.5047   24.8130 C   0  0  0  0  0  0  0  0  0  0  0  0
    7.2286   12.6775   26.0606 C   0  0  0  0  0  0  0  0  0  0  0  0
    7.9868   13.8961   25.8170 N   0  0  0  0  0  0  0  0  0  0  0  0
    9.5525   14.0714   26.2778 S   0  0  0  0  0  0  0  0  0  0  0  0
   10.0885   15.2368   25.6287 O   0  0  0  0  0  0  0  0  0  0  0  0
    9.5747   13.9929   27.7089 O   0  0  0  0  0  0  0  0  0  0  0  0
   10.3347   12.7169   25.6966 N   0  0  0  0  0  0  0  0  0  0  0  0
   10.0824   12.1812   24.3489 C   0  0  0  0  0  0  0  0  0  0  0  0
   10.1794   10.6722   24.4871 C   0  0  0  0  0  0  0  0  0  0  0  0
   11.4837   10.2786   25.1880 C   0  0  0  0  0  0  0  0  0  0  0  0
   12.4484   11.4604   25.4826 C   0  0  0  0  0  0  0  0  0  0  0  0
   11.7670   12.6945   26.0554 C   0  0  0  0  0  0  0  0  0  0  0  0
    7.1334   15.0948   25.9744 C   0  0  0  0  0  0  0  0  0  0  0  0
    6.0097   15.0151   24.9434 C   0  0  0  0  0  0  0  0  0  0  0  0
  2  1  1  1
  2  3  1  0
  3  4  1  0
  5  4  1  6
  5  6  1  0
  6  7  1  1
  7  8  1  0
  8  9  1  0
  9 10  1  1
 10 11  1  0
 11 12  2  0
 11 13  1  0
 13 14  1  0
 14 15  1  0
 15 16  1  0
 16 17  1  0
 17 18  2  0
 17 19  2  0
 17 20  1  0
 20 21  1  0
 21 22  1  0
 22 23  1  0
 23 24  1  0
 24 25  1  0
 16 26  1  0
 26 27  1  0
  6  2  1  0
 27 13  1  0
  9  5  1  0
 25 20  1  0
M  END
>  <energy_score>  (2667) 
-16.181196

>  <inchikey>  (2667) 
None

>  <smiles>  (2667) 
None

>  <ref_pdb>  (2667) 
A4706a

>  <alias>  (2667) 
None

>  <HIPPO Pose ID>  (2667) 
500311

>  <name>  (2667) 
P500311

>  <HIPPO Compound ID>  (2667) 
314641

>  <ref_mols>  (2667) 
A0875a,A4706a

>  <distance_score>  (2667) 
1.776463

>  <inspiration_score>  (2667) 
None

$$$$
P500312
     RDKit          3D

 27 30  0  0  0  0  0  0  0  0999 V2000
   12.6814   14.6438   19.3568 N   0  0  0  0  0  0  0  0  0  0  0  0
   11.4756   14.4714   20.0905 C   0  0  2  0  0  0  0  0  0  0  0  0
   10.3380   14.6432   19.1216 C   0  0  0  0  0  0  0  0  0  0  0  0
    9.2135   14.8644   19.9817 O   0  0  0  0  0  0  0  0  0  0  0  0
    9.7123   15.8510   20.8513 C   0  0  2  0  0  0  0  0  0  0  0  0
   11.1730   15.4891   21.1383 C   0  0  1  0  0  0  0  0  0  0  0  0
   11.2430   14.8914   22.4427 O   0  0  0  0  0  0  0  0  0  0  0  0
   10.2868   15.6381   23.1718 C   0  0  0  0  0  0  0  0  0  0  0  0
    9.1467   16.0199   22.2204 C   0  0  2  0  0  0  0  0  0  0  0  0
    7.8177   15.8335   22.7401 O   0  0  0  0  0  0  0  0  0  0  0  0
    7.0270   14.7424   22.7295 C   0  0  0  0  0  0  0  0  0  0  0  0
    7.0356   13.8400   21.9050 O   0  0  0  0  0  0  0  0  0  0  0  0
    6.0523   14.8131   23.9447 C   0  0  0  0  0  0  0  0  0  0  0  0
    5.5195   13.4345   24.4016 C   0  0  0  0  0  0  0  0  0  0  0  0
    6.0637   12.9697   25.7648 C   0  0  0  0  0  0  0  0  0  0  0  0
    7.5127   13.3103   25.8835 N   0  0  0  0  0  0  0  0  0  0  0  0
    8.4560   12.4660   24.7782 S   0  0  0  0  0  0  0  0  0  0  0  0
    8.9531   13.3438   23.7623 O   0  0  0  0  0  0  0  0  0  0  0  0
    7.6955   11.2910   24.4367 O   0  0  0  0  0  0  0  0  0  0  0  0
    9.8113   11.9010   25.5975 N   0  0  0  0  0  0  0  0  0  0  0  0
   10.8544   12.9144   25.9153 C   0  0  0  0  0  0  0  0  0  0  0  0
   12.1422   12.6880   25.1372 C   0  0  0  0  0  0  0  0  0  0  0  0
   12.6855   11.3104   25.4774 C   0  0  0  0  0  0  0  0  0  0  0  0
   11.6222   10.2138   25.2589 C   0  0  0  0  0  0  0  0  0  0  0  0
   10.2894   10.7289   24.7924 C   0  0  0  0  0  0  0  0  0  0  0  0
    7.6767   14.7774   25.9757 C   0  0  0  0  0  0  0  0  0  0  0  0
    6.6062   15.5459   25.1837 C   0  0  0  0  0  0  0  0  0  0  0  0
  2  1  1  6
  2  3  1  0
  3  4  1  0
  5  4  1  1
  5  6  1  0
  6  7  1  1
  7  8  1  0
  8  9  1  0
  9 10  1  6
 10 11  1  0
 11 12  2  0
 11 13  1  0
 13 14  1  0
 14 15  1  0
 15 16  1  0
 16 17  1  0
 17 18  2  0
 17 19  2  0
 17 20  1  0
 20 21  1  0
 21 22  1  0
 22 23  1  0
 23 24  1  0
 24 25  1  0
 16 26  1  0
 26 27  1  0
  6  2  1  0
 27 13  1  0
  9  5  1  0
 25 20  1  0
M  END
>  <energy_score>  (2668) 
-17.144265

>  <inchikey>  (2668) 
None

>  <smiles>  (2668) 
None

>  <ref_pdb>  (2668) 
A4706a

>  <alias>  (2668) 
None

>  <HIPPO Pose ID>  (2668) 
500312

>  <name>  (2668) 
P500312

>  <HIPPO Compound ID>  (2668) 
314641

>  <ref_mols>  (2668) 
A4706a,A0875a

>  <distance_score>  (2668) 
1.718431

>  <inspiration_score>  (2668) 
None

$$$$
P500313
     RDKit          3D

 27 30  0  0  0  0  0  0  0  0999 V2000
   11.5162   13.8021   22.4398 N   0  0  0  0  0  0  0  0  0  0  0  0
   11.6161   14.9673   21.5331 C   0  0  1  0  0  0  0  0  0  0  0  0
   11.5223   14.5237   20.0707 C   0  0  0  0  0  0  0  0  0  0  0  0
   10.1267   14.1844   19.9122 O   0  0  0  0  0  0  0  0  0  0  0  0
    9.4164   15.1721   20.6173 C   0  0  2  0  0  0  0  0  0  0  0  0
   10.3766   15.8424   21.5719 C   0  0  1  0  0  0  0  0  0  0  0  0
    9.6596   15.9617   22.7818 O   0  0  0  0  0  0  0  0  0  0  0  0
    8.2683   16.0494   22.3575 C   0  0  0  0  0  0  0  0  0  0  0  0
    8.1280   14.8762   21.4152 C   0  0  2  0  0  0  0  0  0  0  0  0
    7.8757   13.7266   22.2691 O   0  0  0  0  0  0  0  0  0  0  0  0
    6.6185   13.8338   22.8322 C   0  0  0  0  0  0  0  0  0  0  0  0
    5.7230   14.5161   22.3298 O   0  0  0  0  0  0  0  0  0  0  0  0
    6.3381   13.1114   24.1516 C   0  0  0  0  0  0  0  0  0  0  0  0
    7.2612   11.9857   24.5995 C   0  0  0  0  0  0  0  0  0  0  0  0
    7.5957   12.0618   26.0754 C   0  0  0  0  0  0  0  0  0  0  0  0
    8.1452   13.3726   26.3969 N   0  0  0  0  0  0  0  0  0  0  0  0
    9.6371   13.8487   25.7878 S   0  0  0  0  0  0  0  0  0  0  0  0
   10.0423   14.9731   26.5946 O   0  0  0  0  0  0  0  0  0  0  0  0
    9.4976   13.9759   24.3655 O   0  0  0  0  0  0  0  0  0  0  0  0
   10.7289   12.5589   26.0587 N   0  0  0  0  0  0  0  0  0  0  0  0
   12.1081   13.1483   26.1376 C   0  0  0  0  0  0  0  0  0  0  0  0
   13.1670   12.1033   26.4218 C   0  0  0  0  0  0  0  0  0  0  0  0
   13.1122   10.9975   25.3884 C   0  0  0  0  0  0  0  0  0  0  0  0
   11.6963   10.3960   25.2604 C   0  0  0  0  0  0  0  0  0  0  0  0
   10.6625   11.4831   25.0140 C   0  0  0  0  0  0  0  0  0  0  0  0
    7.1270   14.4598   26.2403 C   0  0  0  0  0  0  0  0  0  0  0  0
    5.9885   14.0910   25.2901 C   0  0  0  0  0  0  0  0  0  0  0  0
  2  1  1  1
  2  3  1  0
  3  4  1  0
  5  4  1  1
  5  6  1  0
  6  7  1  1
  7  8  1  0
  8  9  1  0
  9 10  1  1
 10 11  1  0
 11 12  2  0
 11 13  1  0
 13 14  1  0
 14 15  1  0
 15 16  1  0
 16 17  1  0
 17 18  2  0
 17 19  2  0
 17 20  1  0
 20 21  1  0
 21 22  1  0
 22 23  1  0
 23 24  1  0
 24 25  1  0
 16 26  1  0
 26 27  1  0
  6  2  1  0
 27 13  1  0
  9  5  1  0
 25 20  1  0
M  END
>  <energy_score>  (2669) 
-34.402184

>  <inchikey>  (2669) 
None

>  <smiles>  (2669) 
None

>  <ref_pdb>  (2669) 
A4706a

>  <alias>  (2669) 
None

>  <HIPPO Pose ID>  (2669) 
500313

>  <name>  (2669) 
P500313

>  <HIPPO Compound ID>  (2669) 
314641

>  <ref_mols>  (2669) 
A4706a,A0875a

>  <distance_score>  (2669) 
1.396465

>  <inspiration_score>  (2669) 
None

$$$$
P500314
     RDKit          3D

 27 30  0  0  0  0  0  0  0  0999 V2000
   11.9243   14.6204   22.4654 N   0  0  0  0  0  0  0  0  0  0  0  0
   11.5576   15.4178   21.2772 C   0  0  1  0  0  0  0  0  0  0  0  0
   11.4588   14.6418   19.9330 C   0  0  0  0  0  0  0  0  0  0  0  0
   10.0518   14.2423   19.7804 O   0  0  0  0  0  0  0  0  0  0  0  0
    9.4619   14.4670   21.0530 C   0  0  1  0  0  0  0  0  0  0  0  0
   10.1042   15.7970   21.3165 C   0  0  1  0  0  0  0  0  0  0  0  0
    9.4283   16.2337   22.4451 O   0  0  0  0  0  0  0  0  0  0  0  0
    8.0462   16.1216   21.9817 C   0  0  0  0  0  0  0  0  0  0  0  0
    7.9775   14.7254   21.3433 C   0  0  2  0  0  0  0  0  0  0  0  0
    7.4496   13.7895   22.3487 O   0  0  0  0  0  0  0  0  0  0  0  0
    6.1940   14.0823   22.8147 C   0  0  0  0  0  0  0  0  0  0  0  0
    5.3779   14.7329   22.1741 O   0  0  0  0  0  0  0  0  0  0  0  0
    5.9259   13.6227   24.2612 C   0  0  0  0  0  0  0  0  0  0  0  0
    6.6872   12.3480   24.6499 C   0  0  0  0  0  0  0  0  0  0  0  0
    7.2700   12.2788   26.0448 C   0  0  0  0  0  0  0  0  0  0  0  0
    7.8162   13.5664   26.4601 N   0  0  0  0  0  0  0  0  0  0  0  0
    9.1952   14.2289   25.7608 S   0  0  0  0  0  0  0  0  0  0  0  0
    8.9474   14.5285   24.3811 O   0  0  0  0  0  0  0  0  0  0  0  0
    9.6502   15.2553   26.6669 O   0  0  0  0  0  0  0  0  0  0  0  0
   10.3431   13.0128   25.7452 N   0  0  0  0  0  0  0  0  0  0  0  0
   11.7245   13.5771   25.8521 C   0  0  0  0  0  0  0  0  0  0  0  0
   12.7544   12.6749   25.1905 C   0  0  0  0  0  0  0  0  0  0  0  0
   12.4435   11.2392   25.5430 C   0  0  0  0  0  0  0  0  0  0  0  0
   11.0074   10.8197   25.1217 C   0  0  0  0  0  0  0  0  0  0  0  0
   10.2376   12.0248   24.6447 C   0  0  0  0  0  0  0  0  0  0  0  0
    6.6920   14.5331   26.5803 C   0  0  0  0  0  0  0  0  0  0  0  0
    6.0905   14.8302   25.2104 C   0  0  0  0  0  0  0  0  0  0  0  0
  2  1  1  1
  2  3  1  0
  3  4  1  0
  5  4  1  6
  5  6  1  0
  6  7  1  1
  7  8  1  0
  8  9  1  0
  9 10  1  1
 10 11  1  0
 11 12  2  0
 11 13  1  0
 13 14  1  0
 14 15  1  0
 15 16  1  0
 16 17  1  0
 17 18  2  0
 17 19  2  0
 17 20  1  0
 20 21  1  0
 21 22  1  0
 22 23  1  0
 23 24  1  0
 24 25  1  0
 16 26  1  0
 26 27  1  0
  6  2  1  0
 27 13  1  0
  9  5  1  0
 25 20  1  0
M  END
>  <energy_score>  (2670) 
-14.581655

>  <inchikey>  (2670) 
None

>  <smiles>  (2670) 
None

>  <ref_pdb>  (2670) 
A4706a

>  <alias>  (2670) 
None

>  <HIPPO Pose ID>  (2670) 
500314

>  <name>  (2670) 
P500314

>  <HIPPO Compound ID>  (2670) 
314641

>  <ref_mols>  (2670) 
A0875a,A4706a

>  <distance_score>  (2670) 
1.532903

>  <inspiration_score>  (2670) 
None

$$$$
P500315
     RDKit          3D

 27 30  0  0  0  0  0  0  0  0999 V2000
   12.3078   14.3138   19.4225 N   0  0  0  0  0  0  0  0  0  0  0  0
   11.0182   14.7226   19.9219 C   0  0  2  0  0  0  0  0  0  0  0  0
   10.2540   15.6909   19.0603 C   0  0  0  0  0  0  0  0  0  0  0  0
    9.4226   16.4581   19.9375 O   0  0  0  0  0  0  0  0  0  0  0  0
    9.5911   15.9827   21.2810 C   0  0  2  0  0  0  0  0  0  0  0  0
   10.9667   15.3530   21.3159 C   0  0  1  0  0  0  0  0  0  0  0  0
   10.9356   14.3910   22.3671 O   0  0  0  0  0  0  0  0  0  0  0  0
    9.6259   13.8154   22.2762 C   0  0  0  0  0  0  0  0  0  0  0  0
    8.6544   14.8310   21.6596 C   0  0  1  0  0  0  0  0  0  0  0  0
    7.6328   15.2126   22.6220 O   0  0  0  0  0  0  0  0  0  0  0  0
    6.8104   14.1904   22.9823 C   0  0  0  0  0  0  0  0  0  0  0  0
    6.8143   13.0966   22.4130 O   0  0  0  0  0  0  0  0  0  0  0  0
    5.8891   14.4632   24.1796 C   0  0  0  0  0  0  0  0  0  0  0  0
    5.7130   13.1481   24.9633 C   0  0  0  0  0  0  0  0  0  0  0  0
    7.0115   12.7548   25.6637 C   0  0  0  0  0  0  0  0  0  0  0  0
    7.6035   13.8565   26.4658 N   0  0  0  0  0  0  0  0  0  0  0  0
    9.1966   14.3781   26.2446 S   0  0  0  0  0  0  0  0  0  0  0  0
    9.4999   15.2630   27.3433 O   0  0  0  0  0  0  0  0  0  0  0  0
    9.3278   14.8876   24.9045 O   0  0  0  0  0  0  0  0  0  0  0  0
   10.2513   13.0448   26.4199 N   0  0  0  0  0  0  0  0  0  0  0  0
    9.9735   11.9140   25.5277 C   0  0  0  0  0  0  0  0  0  0  0  0
   11.0987   10.9881   25.1775 C   0  0  0  0  0  0  0  0  0  0  0  0
   12.4836   11.6306   25.1790 C   0  0  0  0  0  0  0  0  0  0  0  0
   12.7023   12.5027   26.3830 C   0  0  0  0  0  0  0  0  0  0  0  0
   11.6478   13.5817   26.3814 C   0  0  0  0  0  0  0  0  0  0  0  0
    6.6667   15.0199   26.5653 C   0  0  0  0  0  0  0  0  0  0  0  0
    6.3142   15.5581   25.1688 C   0  0  0  0  0  0  0  0  0  0  0  0
  2  1  1  6
  2  3  1  0
  3  4  1  0
  5  4  1  6
  5  6  1  0
  6  7  1  1
  7  8  1  0
  8  9  1  0
  9 10  1  1
 10 11  1  0
 11 12  2  0
 11 13  1  0
 13 14  1  0
 14 15  1  0
 15 16  1  0
 16 17  1  0
 17 18  2  0
 17 19  2  0
 17 20  1  0
 20 21  1  0
 21 22  1  0
 22 23  1  0
 23 24  1  0
 24 25  1  0
 16 26  1  0
 26 27  1  0
  6  2  1  0
 27 13  1  0
  9  5  1  0
 25 20  1  0
M  END
>  <energy_score>  (2671) 
-73.968008

>  <inchikey>  (2671) 
None

>  <smiles>  (2671) 
None

>  <ref_pdb>  (2671) 
A4706a

>  <alias>  (2671) 
None

>  <HIPPO Pose ID>  (2671) 
500315

>  <name>  (2671) 
P500315

>  <HIPPO Compound ID>  (2671) 
314641

>  <ref_mols>  (2671) 
A4706a,A0875a

>  <distance_score>  (2671) 
1.738778

>  <inspiration_score>  (2671) 
None

$$$$
P500316
     RDKit          3D

 27 30  0  0  0  0  0  0  0  0999 V2000
   12.2602   13.9327   19.5631 N   0  0  0  0  0  0  0  0  0  0  0  0
   11.4031   15.0930   19.5071 C   0  0  1  0  0  0  0  0  0  0  0  0
   10.1675   14.8804   18.7027 C   0  0  0  0  0  0  0  0  0  0  0  0
    9.0668   15.0301   19.5804 O   0  0  0  0  0  0  0  0  0  0  0  0
    9.4580   15.9364   20.5943 C   0  0  2  0  0  0  0  0  0  0  0  0
   10.9063   15.5765   20.8545 C   0  0  1  0  0  0  0  0  0  0  0  0
   10.8499   14.5060   21.8043 O   0  0  0  0  0  0  0  0  0  0  0  0
    9.7623   14.8761   22.6406 C   0  0  0  0  0  0  0  0  0  0  0  0
    8.7057   15.6441   21.8705 C   0  0  2  0  0  0  0  0  0  0  0  0
    7.4498   14.9257   21.6977 O   0  0  0  0  0  0  0  0  0  0  0  0
    6.4554   15.0202   22.6401 C   0  0  0  0  0  0  0  0  0  0  0  0
    5.3067   15.3351   22.3625 O   0  0  0  0  0  0  0  0  0  0  0  0
    6.8628   14.5972   24.0349 C   0  0  0  0  0  0  0  0  0  0  0  0
    6.7277   13.0802   24.1797 C   0  0  0  0  0  0  0  0  0  0  0  0
    7.0990   12.5793   25.5744 C   0  0  0  0  0  0  0  0  0  0  0  0
    7.7711   13.6245   26.3538 N   0  0  0  0  0  0  0  0  0  0  0  0
    9.4160   13.9674   26.3203 S   0  0  0  0  0  0  0  0  0  0  0  0
    9.6739   15.0004   25.3526 O   0  0  0  0  0  0  0  0  0  0  0  0
    9.7962   14.2299   27.6860 O   0  0  0  0  0  0  0  0  0  0  0  0
   10.2507   12.5942   25.8346 N   0  0  0  0  0  0  0  0  0  0  0  0
   10.0900   12.0616   24.4683 C   0  0  0  0  0  0  0  0  0  0  0  0
   10.2737   10.5655   24.5753 C   0  0  0  0  0  0  0  0  0  0  0  0
   11.6086   10.2607   25.2454 C   0  0  0  0  0  0  0  0  0  0  0  0
   12.4773   11.5056   25.5605 C   0  0  0  0  0  0  0  0  0  0  0  0
   11.7060   12.6891   26.1489 C   0  0  0  0  0  0  0  0  0  0  0  0
    6.8764   14.8178   26.5497 C   0  0  0  0  0  0  0  0  0  0  0  0
    6.1864   15.2496   25.2327 C   0  0  0  0  0  0  0  0  0  0  0  0
  2  1  1  1
  2  3  1  0
  3  4  1  0
  5  4  1  6
  5  6  1  0
  6  7  1  1
  7  8  1  0
  8  9  1  0
  9 10  1  6
 10 11  1  0
 11 12  2  0
 11 13  1  0
 13 14  1  0
 14 15  1  0
 15 16  1  0
 16 17  1  0
 17 18  2  0
 17 19  2  0
 17 20  1  0
 20 21  1  0
 21 22  1  0
 22 23  1  0
 23 24  1  0
 24 25  1  0
 16 26  1  0
 26 27  1  0
  6  2  1  0
 27 13  1  0
  9  5  1  0
 25 20  1  0
M  END
>  <energy_score>  (2672) 
-30.643599

>  <inchikey>  (2672) 
None

>  <smiles>  (2672) 
None

>  <ref_pdb>  (2672) 
A4706a

>  <alias>  (2672) 
None

>  <HIPPO Pose ID>  (2672) 
500316

>  <name>  (2672) 
P500316

>  <HIPPO Compound ID>  (2672) 
314641

>  <ref_mols>  (2672) 
A0875a,A4706a

>  <distance_score>  (2672) 
1.79698

>  <inspiration_score>  (2672) 
None

$$$$
P500317
     RDKit          3D

 27 30  0  0  0  0  0  0  0  0999 V2000
   11.8997   14.8064   20.2203 N   0  0  0  0  0  0  0  0  0  0  0  0
   11.1550   15.7352   21.0903 C   0  0  1  0  0  0  0  0  0  0  0  0
   10.0300   16.5169   20.3191 C   0  0  0  0  0  0  0  0  0  0  0  0
    8.7572   15.9341   20.6396 O   0  0  0  0  0  0  0  0  0  0  0  0
    9.1321   14.7319   21.2072 C   0  0  1  0  0  0  0  0  0  0  0  0
   10.2807   15.0475   22.1029 C   0  0  1  0  0  0  0  0  0  0  0  0
   10.6296   13.7934   22.6617 O   0  0  0  0  0  0  0  0  0  0  0  0
    9.3623   13.0557   22.6683 C   0  0  0  0  0  0  0  0  0  0  0  0
    8.2433   13.9074   22.0456 C   0  0  1  0  0  0  0  0  0  0  0  0
    7.4800   14.5443   23.0881 O   0  0  0  0  0  0  0  0  0  0  0  0
    6.4543   13.7512   23.4821 C   0  0  0  0  0  0  0  0  0  0  0  0
    6.0397   12.8298   22.7809 O   0  0  0  0  0  0  0  0  0  0  0  0
    5.8841   13.9447   24.8747 C   0  0  0  0  0  0  0  0  0  0  0  0
    6.0384   12.5962   25.6126 C   0  0  0  0  0  0  0  0  0  0  0  0
    7.4828   12.3448   26.0406 C   0  0  0  0  0  0  0  0  0  0  0  0
    8.0795   13.5010   26.7371 N   0  0  0  0  0  0  0  0  0  0  0  0
    9.5467   14.1788   26.2788 S   0  0  0  0  0  0  0  0  0  0  0  0
    9.8894   15.1001   27.3358 O   0  0  0  0  0  0  0  0  0  0  0  0
    9.4117   14.7064   24.9508 O   0  0  0  0  0  0  0  0  0  0  0  0
   10.7882   13.0129   26.2788 N   0  0  0  0  0  0  0  0  0  0  0  0
   10.7127   11.8365   25.3982 C   0  0  0  0  0  0  0  0  0  0  0  0
   12.0046   11.0578   25.5131 C   0  0  0  0  0  0  0  0  0  0  0  0
   13.1467   11.8381   24.9627 C   0  0  0  0  0  0  0  0  0  0  0  0
   13.3537   12.9406   25.9530 C   0  0  0  0  0  0  0  0  0  0  0  0
   12.0729   13.7741   26.0759 C   0  0  0  0  0  0  0  0  0  0  0  0
    7.0664   14.5703   27.0311 C   0  0  0  0  0  0  0  0  0  0  0  0
    6.4305   15.0831   25.7341 C   0  0  0  0  0  0  0  0  0  0  0  0
  2  1  1  6
  2  3  1  0
  3  4  1  0
  5  4  1  1
  5  6  1  0
  6  7  1  6
  7  8  1  0
  8  9  1  0
  9 10  1  1
 10 11  1  0
 11 12  2  0
 11 13  1  0
 13 14  1  0
 14 15  1  0
 15 16  1  0
 16 17  1  0
 17 18  2  0
 17 19  2  0
 17 20  1  0
 20 21  1  0
 21 22  1  0
 22 23  1  0
 23 24  1  0
 24 25  1  0
 16 26  1  0
 26 27  1  0
  6  2  1  0
 27 13  1  0
  9  5  1  0
 25 20  1  0
M  END
>  <energy_score>  (2673) 
-14.283617

>  <inchikey>  (2673) 
None

>  <smiles>  (2673) 
None

>  <ref_pdb>  (2673) 
A4706a

>  <alias>  (2673) 
None

>  <HIPPO Pose ID>  (2673) 
500317

>  <name>  (2673) 
P500317

>  <HIPPO Compound ID>  (2673) 
314641

>  <ref_mols>  (2673) 
A4706a,A0875a

>  <distance_score>  (2673) 
1.481792

>  <inspiration_score>  (2673) 
None

$$$$
P500318
     RDKit          3D

 27 30  0  0  0  0  0  0  0  0999 V2000
   12.6853   15.5068   20.8695 N   0  0  0  0  0  0  0  0  0  0  0  0
   11.3185   15.0924   20.7527 C   0  0  2  0  0  0  0  0  0  0  0  0
   10.6558   15.0500   19.3956 C   0  0  0  0  0  0  0  0  0  0  0  0
    9.2601   15.0796   19.7443 O   0  0  0  0  0  0  0  0  0  0  0  0
    9.1135   16.0082   20.8206 C   0  0  2  0  0  0  0  0  0  0  0  0
   10.4788   16.1258   21.4669 C   0  0  1  0  0  0  0  0  0  0  0  0
   10.4096   15.7685   22.8285 O   0  0  0  0  0  0  0  0  0  0  0  0
    9.1801   15.0975   22.9528 C   0  0  0  0  0  0  0  0  0  0  0  0
    8.1789   15.5909   21.9515 C   0  0  2  0  0  0  0  0  0  0  0  0
    7.1689   14.6003   21.6374 O   0  0  0  0  0  0  0  0  0  0  0  0
    6.4485   13.8377   22.5048 C   0  0  0  0  0  0  0  0  0  0  0  0
    5.6415   13.0327   22.0522 O   0  0  0  0  0  0  0  0  0  0  0  0
    6.7133   13.8919   23.9985 C   0  0  0  0  0  0  0  0  0  0  0  0
    6.2969   12.6873   24.8688 C   0  0  0  0  0  0  0  0  0  0  0  0
    6.8720   12.8176   26.3056 C   0  0  0  0  0  0  0  0  0  0  0  0
    7.5853   14.1019   26.4460 N   0  0  0  0  0  0  0  0  0  0  0  0
    9.2471   14.3535   26.4853 S   0  0  0  0  0  0  0  0  0  0  0  0
    9.7882   13.9091   27.7391 O   0  0  0  0  0  0  0  0  0  0  0  0
    9.4936   15.7023   26.0508 O   0  0  0  0  0  0  0  0  0  0  0  0
    9.8940   13.3333   25.3092 N   0  0  0  0  0  0  0  0  0  0  0  0
    9.8072   11.9009   25.6076 C   0  0  0  0  0  0  0  0  0  0  0  0
   10.9760   11.1456   25.0492 C   0  0  0  0  0  0  0  0  0  0  0  0
   12.3384   11.6689   25.4985 C   0  0  0  0  0  0  0  0  0  0  0  0
   12.3744   13.1659   25.5258 C   0  0  0  0  0  0  0  0  0  0  0  0
   11.2221   13.7674   24.7681 C   0  0  0  0  0  0  0  0  0  0  0  0
    6.6978   15.2452   26.1396 C   0  0  0  0  0  0  0  0  0  0  0  0
    6.2456   15.1757   24.6788 C   0  0  0  0  0  0  0  0  0  0  0  0
  2  1  1  6
  2  3  1  0
  3  4  1  0
  5  4  1  6
  5  6  1  0
  6  7  1  1
  7  8  1  0
  8  9  1  0
  9 10  1  6
 10 11  1  0
 11 12  2  0
 11 13  1  0
 13 14  1  0
 14 15  1  0
 15 16  1  0
 16 17  1  0
 17 18  2  0
 17 19  2  0
 17 20  1  0
 20 21  1  0
 21 22  1  0
 22 23  1  0
 23 24  1  0
 24 25  1  0
 16 26  1  0
 26 27  1  0
  6  2  1  0
 27 13  1  0
  9  5  1  0
 25 20  1  0
M  END
>  <energy_score>  (2674) 
-11.600138

>  <inchikey>  (2674) 
None

>  <smiles>  (2674) 
None

>  <ref_pdb>  (2674) 
A4706a

>  <alias>  (2674) 
None

>  <HIPPO Pose ID>  (2674) 
500318

>  <name>  (2674) 
P500318

>  <HIPPO Compound ID>  (2674) 
314641

>  <ref_mols>  (2674) 
A4706a,A0875a

>  <distance_score>  (2674) 
1.755204

>  <inspiration_score>  (2674) 
None

$$$$
P500319
     RDKit          3D

 27 30  0  0  0  0  0  0  0  0999 V2000
   11.5960   13.8734   21.1893 N   0  0  0  0  0  0  0  0  0  0  0  0
   11.3189   15.1536   20.4963 C   0  0  1  0  0  0  0  0  0  0  0  0
   10.3218   14.9256   19.3829 C   0  0  0  0  0  0  0  0  0  0  0  0
    9.0918   14.7170   20.1205 O   0  0  0  0  0  0  0  0  0  0  0  0
    9.0692   15.6996   21.1461 C   0  0  2  0  0  0  0  0  0  0  0  0
   10.5131   16.1479   21.3291 C   0  0  1  0  0  0  0  0  0  0  0  0
   10.8840   16.1337   22.6869 O   0  0  0  0  0  0  0  0  0  0  0  0
    9.9351   15.2840   23.2823 C   0  0  0  0  0  0  0  0  0  0  0  0
    8.6060   15.2892   22.5222 C   0  0  2  0  0  0  0  0  0  0  0  0
    7.8681   14.0555   22.6824 O   0  0  0  0  0  0  0  0  0  0  0  0
    6.6272   14.2152   23.2231 C   0  0  0  0  0  0  0  0  0  0  0  0
    5.7984   14.9892   22.7536 O   0  0  0  0  0  0  0  0  0  0  0  0
    6.3533   13.4463   24.5406 C   0  0  0  0  0  0  0  0  0  0  0  0
    6.9868   12.0445   24.6849 C   0  0  0  0  0  0  0  0  0  0  0  0
    7.6817   11.6495   25.9972 C   0  0  0  0  0  0  0  0  0  0  0  0
    8.2253   12.8197   26.7194 N   0  0  0  0  0  0  0  0  0  0  0  0
    9.5451   13.5507   25.9923 S   0  0  0  0  0  0  0  0  0  0  0  0
    9.6682   14.8786   26.5397 O   0  0  0  0  0  0  0  0  0  0  0  0
    9.2910   13.3126   24.6044 O   0  0  0  0  0  0  0  0  0  0  0  0
   10.9778   12.6908   26.3259 N   0  0  0  0  0  0  0  0  0  0  0  0
   11.7097   12.3981   25.0374 C   0  0  0  0  0  0  0  0  0  0  0  0
   12.9748   11.6025   25.3006 C   0  0  0  0  0  0  0  0  0  0  0  0
   13.9173   12.2809   26.2596 C   0  0  0  0  0  0  0  0  0  0  0  0
   13.1889   12.7573   27.4974 C   0  0  0  0  0  0  0  0  0  0  0  0
   11.8852   13.4979   27.1995 C   0  0  0  0  0  0  0  0  0  0  0  0
    7.0910   13.7579   26.9929 C   0  0  0  0  0  0  0  0  0  0  0  0
    6.5926   14.4159   25.7111 C   0  0  0  0  0  0  0  0  0  0  0  0
  2  1  1  1
  2  3  1  0
  3  4  1  0
  5  4  1  6
  5  6  1  0
  6  7  1  1
  7  8  1  0
  8  9  1  0
  9 10  1  6
 10 11  1  0
 11 12  2  0
 11 13  1  0
 13 14  1  0
 14 15  1  0
 15 16  1  0
 16 17  1  0
 17 18  2  0
 17 19  2  0
 17 20  1  0
 20 21  1  0
 21 22  1  0
 22 23  1  0
 23 24  1  0
 24 25  1  0
 16 26  1  0
 26 27  1  0
  6  2  1  0
 27 13  1  0
  9  5  1  0
 25 20  1  0
M  END
>  <energy_score>  (2675) 
-14.828758

>  <inchikey>  (2675) 
None

>  <smiles>  (2675) 
None

>  <ref_pdb>  (2675) 
A4706a

>  <alias>  (2675) 
None

>  <HIPPO Pose ID>  (2675) 
500319

>  <name>  (2675) 
P500319

>  <HIPPO Compound ID>  (2675) 
314641

>  <ref_mols>  (2675) 
A0875a,A4706a

>  <distance_score>  (2675) 
1.639986

>  <inspiration_score>  (2675) 
None

$$$$
P500320
     RDKit          3D

 27 30  0  0  0  0  0  0  0  0999 V2000
   12.6220   15.6763   21.1016 N   0  0  0  0  0  0  0  0  0  0  0  0
   11.4221   14.9179   20.8353 C   0  0  2  0  0  0  0  0  0  0  0  0
   10.7396   15.0116   19.4481 C   0  0  0  0  0  0  0  0  0  0  0  0
    9.2922   15.0259   19.7086 O   0  0  0  0  0  0  0  0  0  0  0  0
    9.1706   14.6576   21.0727 C   0  0  1  0  0  0  0  0  0  0  0  0
   10.2966   15.4654   21.6565 C   0  0  1  0  0  0  0  0  0  0  0  0
   10.2640   15.2289   23.0360 O   0  0  0  0  0  0  0  0  0  0  0  0
    8.8583   15.1124   23.2814 C   0  0  0  0  0  0  0  0  0  0  0  0
    8.0369   15.0624   21.9886 C   0  0  2  0  0  0  0  0  0  0  0  0
    7.0140   14.0662   22.2898 O   0  0  0  0  0  0  0  0  0  0  0  0
    6.0990   14.5904   23.1716 C   0  0  0  0  0  0  0  0  0  0  0  0
    5.7522   15.7672   23.1351 O   0  0  0  0  0  0  0  0  0  0  0  0
    5.5946   13.6488   24.2812 C   0  0  0  0  0  0  0  0  0  0  0  0
    6.4715   12.4392   24.7021 C   0  0  0  0  0  0  0  0  0  0  0  0
    7.2144   12.6369   26.0356 C   0  0  0  0  0  0  0  0  0  0  0  0
    7.7521   13.9909   25.9441 N   0  0  0  0  0  0  0  0  0  0  0  0
    9.2260   14.3979   26.6056 S   0  0  0  0  0  0  0  0  0  0  0  0
    9.7048   15.5967   25.9785 O   0  0  0  0  0  0  0  0  0  0  0  0
    9.0693   14.3965   28.0286 O   0  0  0  0  0  0  0  0  0  0  0  0
   10.3049   13.1737   26.2204 N   0  0  0  0  0  0  0  0  0  0  0  0
   10.2654   12.5945   24.8755 C   0  0  0  0  0  0  0  0  0  0  0  0
   10.9303   11.2589   25.0148 C   0  0  0  0  0  0  0  0  0  0  0  0
   12.4213   11.5257   25.2880 C   0  0  0  0  0  0  0  0  0  0  0  0
   12.6771   12.4395   26.4752 C   0  0  0  0  0  0  0  0  0  0  0  0
   11.7029   13.6073   26.5267 C   0  0  0  0  0  0  0  0  0  0  0  0
    6.6713   15.0006   26.1644 C   0  0  0  0  0  0  0  0  0  0  0  0
    5.3521   14.5119   25.5406 C   0  0  0  0  0  0  0  0  0  0  0  0
  2  1  1  6
  2  3  1  0
  3  4  1  0
  5  4  1  6
  5  6  1  0
  6  7  1  1
  7  8  1  0
  8  9  1  0
  9 10  1  1
 10 11  1  0
 11 12  2  0
 11 13  1  0
 13 14  1  0
 14 15  1  0
 15 16  1  0
 16 17  1  0
 17 18  2  0
 17 19  2  0
 17 20  1  0
 20 21  1  0
 21 22  1  0
 22 23  1  0
 23 24  1  0
 24 25  1  0
 16 26  1  0
 26 27  1  0
  6  2  1  0
 27 13  1  0
  9  5  1  0
 25 20  1  0
M  END
>  <energy_score>  (2676) 
-43.355755

>  <inchikey>  (2676) 
None

>  <smiles>  (2676) 
None

>  <ref_pdb>  (2676) 
A4706a

>  <alias>  (2676) 
None

>  <HIPPO Pose ID>  (2676) 
500320

>  <name>  (2676) 
P500320

>  <HIPPO Compound ID>  (2676) 
314641

>  <ref_mols>  (2676) 
A4706a,A0875a

>  <distance_score>  (2676) 
1.890861

>  <inspiration_score>  (2676) 
None

$$$$
P500321
     RDKit          3D

 27 30  0  0  0  0  0  0  0  0999 V2000
   12.3413   14.2920   19.3678 N   0  0  0  0  0  0  0  0  0  0  0  0
   11.0553   14.7117   19.8562 C   0  0  2  0  0  0  0  0  0  0  0  0
   10.2849   15.6500   18.9692 C   0  0  0  0  0  0  0  0  0  0  0  0
    9.4404   16.4244   19.8292 O   0  0  0  0  0  0  0  0  0  0  0  0
    9.6171   15.9738   21.1776 C   0  0  2  0  0  0  0  0  0  0  0  0
   11.0124   15.3969   21.2167 C   0  0  1  0  0  0  0  0  0  0  0  0
   11.0463   14.4722   22.2896 O   0  0  0  0  0  0  0  0  0  0  0  0
    9.7337   13.9058   22.3513 C   0  0  0  0  0  0  0  0  0  0  0  0
    8.7391   14.7771   21.5610 C   0  0  1  0  0  0  0  0  0  0  0  0
    7.6032   15.1485   22.3634 O   0  0  0  0  0  0  0  0  0  0  0  0
    6.8569   14.0734   22.7593 C   0  0  0  0  0  0  0  0  0  0  0  0
    6.4065   13.2090   22.0229 O   0  0  0  0  0  0  0  0  0  0  0  0
    6.7585   14.0495   24.2561 C   0  0  0  0  0  0  0  0  0  0  0  0
    6.3851   12.7414   24.9390 C   0  0  0  0  0  0  0  0  0  0  0  0
    6.8504   12.7681   26.4031 C   0  0  0  0  0  0  0  0  0  0  0  0
    7.5283   14.0377   26.7629 N   0  0  0  0  0  0  0  0  0  0  0  0
    9.1726   14.4197   26.5944 S   0  0  0  0  0  0  0  0  0  0  0  0
    9.4156   15.0716   25.3277 O   0  0  0  0  0  0  0  0  0  0  0  0
    9.5234   15.1305   27.7970 O   0  0  0  0  0  0  0  0  0  0  0  0
   10.0591   12.9836   26.5959 N   0  0  0  0  0  0  0  0  0  0  0  0
    9.7409   11.9932   25.5603 C   0  0  0  0  0  0  0  0  0  0  0  0
   10.9158   11.3451   24.9021 C   0  0  0  0  0  0  0  0  0  0  0  0
   12.0947   12.2598   24.6072 C   0  0  0  0  0  0  0  0  0  0  0  0
   12.2406   13.4358   25.5149 C   0  0  0  0  0  0  0  0  0  0  0  0
   11.5156   13.2239   26.8124 C   0  0  0  0  0  0  0  0  0  0  0  0
    6.6134   15.1957   26.4961 C   0  0  0  0  0  0  0  0  0  0  0  0
    6.2257   15.2578   25.0045 C   0  0  0  0  0  0  0  0  0  0  0  0
  2  1  1  6
  2  3  1  0
  3  4  1  0
  5  4  1  6
  5  6  1  0
  6  7  1  1
  7  8  1  0
  8  9  1  0
  9 10  1  1
 10 11  1  0
 11 12  2  0
 11 13  1  0
 13 14  1  0
 14 15  1  0
 15 16  1  0
 16 17  1  0
 17 18  2  0
 17 19  2  0
 17 20  1  0
 20 21  1  0
 21 22  1  0
 22 23  1  0
 23 24  1  0
 24 25  1  0
 16 26  1  0
 26 27  1  0
  6  2  1  0
 27 13  1  0
  9  5  1  0
 25 20  1  0
M  END
>  <energy_score>  (2677) 
-17.215759

>  <inchikey>  (2677) 
None

>  <smiles>  (2677) 
None

>  <ref_pdb>  (2677) 
A4706a

>  <alias>  (2677) 
None

>  <HIPPO Pose ID>  (2677) 
500321

>  <name>  (2677) 
P500321

>  <HIPPO Compound ID>  (2677) 
314641

>  <ref_mols>  (2677) 
A0875a,A4706a

>  <distance_score>  (2677) 
1.698283

>  <inspiration_score>  (2677) 
None

$$$$
P500322
     RDKit          3D

 27 30  0  0  0  0  0  0  0  0999 V2000
   11.9031   14.0577   19.5388 N   0  0  0  0  0  0  0  0  0  0  0  0
   11.1495   15.3055   19.6017 C   0  0  1  0  0  0  0  0  0  0  0  0
    9.7779   15.2465   19.0086 C   0  0  0  0  0  0  0  0  0  0  0  0
    8.9007   14.8498   20.0607 O   0  0  0  0  0  0  0  0  0  0  0  0
    9.3655   15.4947   21.2329 C   0  0  2  0  0  0  0  0  0  0  0  0
   10.8425   15.7881   21.0122 C   0  0  1  0  0  0  0  0  0  0  0  0
   11.6088   15.1057   22.0010 O   0  0  0  0  0  0  0  0  0  0  0  0
   10.6757   14.8958   23.0447 C   0  0  0  0  0  0  0  0  0  0  0  0
    9.3276   14.5600   22.4026 C   0  0  1  0  0  0  0  0  0  0  0  0
    8.2088   14.8244   23.2872 O   0  0  0  0  0  0  0  0  0  0  0  0
    7.1752   13.9335   23.2777 C   0  0  0  0  0  0  0  0  0  0  0  0
    6.9436   13.1448   22.3645 O   0  0  0  0  0  0  0  0  0  0  0  0
    6.3465   13.9235   24.5889 C   0  0  0  0  0  0  0  0  0  0  0  0
    6.2245   12.4886   25.1649 C   0  0  0  0  0  0  0  0  0  0  0  0
    7.2306   12.0315   26.2367 C   0  0  0  0  0  0  0  0  0  0  0  0
    8.1722   13.1130   26.6256 N   0  0  0  0  0  0  0  0  0  0  0  0
    9.4592   13.3313   25.5824 S   0  0  0  0  0  0  0  0  0  0  0  0
    9.1259   12.5513   24.4145 O   0  0  0  0  0  0  0  0  0  0  0  0
    9.7160   14.7507   25.5309 O   0  0  0  0  0  0  0  0  0  0  0  0
   10.8517   12.5898   26.2218 N   0  0  0  0  0  0  0  0  0  0  0  0
   11.4548   11.6779   25.2060 C   0  0  0  0  0  0  0  0  0  0  0  0
   12.8746   11.1819   25.4643 C   0  0  0  0  0  0  0  0  0  0  0  0
   13.5247   11.6961   26.7190 C   0  0  0  0  0  0  0  0  0  0  0  0
   13.2619   13.1509   26.7298 C   0  0  0  0  0  0  0  0  0  0  0  0
   11.7947   13.5339   26.8765 C   0  0  0  0  0  0  0  0  0  0  0  0
    7.3861   14.3438   26.9278 C   0  0  0  0  0  0  0  0  0  0  0  0
    6.7226   14.9394   25.6782 C   0  0  0  0  0  0  0  0  0  0  0  0
  2  1  1  1
  2  3  1  0
  3  4  1  0
  5  4  1  6
  5  6  1  0
  6  7  1  1
  7  8  1  0
  8  9  1  0
  9 10  1  1
 10 11  1  0
 11 12  2  0
 11 13  1  0
 13 14  1  0
 14 15  1  0
 15 16  1  0
 16 17  1  0
 17 18  2  0
 17 19  2  0
 17 20  1  0
 20 21  1  0
 21 22  1  0
 22 23  1  0
 23 24  1  0
 24 25  1  0
 16 26  1  0
 26 27  1  0
  6  2  1  0
 27 13  1  0
  9  5  1  0
 25 20  1  0
M  END
>  <energy_score>  (2678) 
-14.873331

>  <inchikey>  (2678) 
None

>  <smiles>  (2678) 
None

>  <ref_pdb>  (2678) 
A4706a

>  <alias>  (2678) 
None

>  <HIPPO Pose ID>  (2678) 
500322

>  <name>  (2678) 
P500322

>  <HIPPO Compound ID>  (2678) 
314641

>  <ref_mols>  (2678) 
A4706a,A0875a

>  <distance_score>  (2678) 
1.491919

>  <inspiration_score>  (2678) 
None

$$$$
P500323
     RDKit          3D

 27 29  0  0  0  0  0  0  0  0999 V2000
    8.7947   14.9793   20.2563 C   0  0  0  0  0  0  0  0  0  0  0  0
    9.5737   15.9882   21.0426 C   0  0  0  0  0  0  0  0  0  0  0  0
    9.2203   17.3973   20.5659 C   0  0  0  0  0  0  0  0  0  0  0  0
   11.0660   15.6999   20.8205 C   0  0  0  0  0  0  0  0  0  0  0  0
   11.4767   14.3106   20.9264 N   0  0  0  0  0  0  0  0  0  0  0  0
   11.3608   13.7282   22.2486 C   0  0  0  0  0  0  0  0  0  0  0  0
   10.0673   13.8561   23.0792 C   0  0  2  0  0  0  0  0  0  0  0  0
    8.9656   13.1074   22.5324 O   0  0  0  0  0  0  0  0  0  0  0  0
    7.6723   13.1461   22.8956 C   0  0  0  0  0  0  0  0  0  0  0  0
    6.7955   13.3571   22.0567 O   0  0  0  0  0  0  0  0  0  0  0  0
    7.2310   12.8217   24.3021 C   0  0  0  0  0  0  0  0  0  0  0  0
    7.9684   11.6042   24.8637 C   0  0  0  0  0  0  0  0  0  0  0  0
    8.8079   11.9121   26.0850 C   0  0  0  0  0  0  0  0  0  0  0  0
    9.2427   13.3053   25.9916 N   0  0  0  0  0  0  0  0  0  0  0  0
   10.6548   13.8845   26.6653 S   0  0  0  0  0  0  0  0  0  0  0  0
   11.0934   14.9773   25.8290 O   0  0  0  0  0  0  0  0  0  0  0  0
   10.3612   14.1036   28.0559 O   0  0  0  0  0  0  0  0  0  0  0  0
   11.8459   12.6595   26.5694 N   0  0  0  0  0  0  0  0  0  0  0  0
   13.0117   12.9283   27.4862 C   0  0  0  0  0  0  0  0  0  0  0  0
   14.3878   12.7298   26.8581 C   0  0  0  0  0  0  0  0  0  0  0  0
   14.5127   11.3836   26.2262 C   0  0  0  0  0  0  0  0  0  0  0  0
   13.3732   11.1912   25.2530 C   0  0  0  0  0  0  0  0  0  0  0  0
   12.2770   12.2616   25.2269 C   0  0  0  0  0  0  0  0  0  0  0  0
    8.0776   14.2022   26.2761 C   0  0  0  0  0  0  0  0  0  0  0  0
    7.0414   14.0503   25.1820 C   0  0  0  0  0  0  0  0  0  0  0  0
    9.8149   15.3116   23.3472 C   0  0  0  0  0  0  0  0  0  0  0  0
    9.0638   15.9440   22.3603 O   0  0  0  0  0  0  0  0  0  0  0  0
  1  2  1  0
  2  3  1  0
  2  4  1  0
  4  5  1  0
  5  6  1  0
  6  7  1  0
  7  8  1  6
  8  9  1  0
  9 10  2  0
  9 11  1  0
 11 12  1  0
 12 13  1  0
 13 14  1  0
 14 15  1  0
 15 16  2  0
 15 17  2  0
 15 18  1  0
 18 19  1  0
 19 20  1  0
 20 21  1  0
 21 22  1  0
 22 23  1  0
 14 24  1  0
 24 25  1  0
  7 26  1  0
 26 27  1  0
 27  2  1  0
 25 11  1  0
 23 18  1  0
M  END
>  <energy_score>  (2679) 
-22.094357

>  <inchikey>  (2679) 
None

>  <smiles>  (2679) 
None

>  <ref_pdb>  (2679) 
A4706a

>  <alias>  (2679) 
None

>  <HIPPO Pose ID>  (2679) 
500323

>  <name>  (2679) 
P500323

>  <HIPPO Compound ID>  (2679) 
314642

>  <ref_mols>  (2679) 
A0875a,A4706a

>  <distance_score>  (2679) 
1.878302

>  <inspiration_score>  (2679) 
None

$$$$
P500324
     RDKit          3D

 27 30  0  0  0  0  0  0  0  0999 V2000
    8.9604   15.5334   23.2507 O   0  0  0  0  0  0  0  0  0  0  0  0
    8.3385   14.6530   22.6712 C   0  0  0  0  0  0  0  0  0  0  0  0
    8.3874   14.4925   21.3024 O   0  0  0  0  0  0  0  0  0  0  0  0
    9.4090   15.3572   20.6551 C   0  0  2  0  0  0  0  0  0  0  0  0
    9.4524   15.5407   19.1229 C   0  0  0  0  0  0  0  0  0  0  0  0
   10.6005   14.5807   18.9849 C   0  0  0  0  0  0  0  0  0  0  0  0
   10.8353   14.7587   20.4844 C   0  0  2  0  0  0  0  0  0  0  0  0
   11.0694   13.5644   21.3264 C   0  0  0  0  0  0  0  0  0  0  0  0
   11.4175   13.8252   22.7228 C   0  0  0  0  0  0  0  0  0  0  0  0
   11.9846   15.1590   22.9854 C   0  0  0  0  0  0  0  0  0  0  0  0
   12.2760   16.0652   21.8340 C   0  0  0  0  0  0  0  0  0  0  0  0
   11.9916   15.5616   20.5861 O   0  0  0  0  0  0  0  0  0  0  0  0
    7.4455   13.6600   23.4468 C   0  0  0  0  0  0  0  0  0  0  0  0
    8.1088   12.3231   23.9054 C   0  0  0  0  0  0  0  0  0  0  0  0
    8.6529   12.2957   25.3533 C   0  0  0  0  0  0  0  0  0  0  0  0
    9.1650   13.6270   25.5844 N   0  0  0  0  0  0  0  0  0  0  0  0
   10.4826   14.0128   26.5229 S   0  0  0  0  0  0  0  0  0  0  0  0
   11.0819   15.1719   25.9077 O   0  0  0  0  0  0  0  0  0  0  0  0
    9.9960   14.1013   27.8760 O   0  0  0  0  0  0  0  0  0  0  0  0
   11.6544   12.7433   26.5154 N   0  0  0  0  0  0  0  0  0  0  0  0
   12.8146   13.0340   27.4523 C   0  0  0  0  0  0  0  0  0  0  0  0
   14.2153   12.7930   26.8753 C   0  0  0  0  0  0  0  0  0  0  0  0
   14.3505   11.4428   26.2501 C   0  0  0  0  0  0  0  0  0  0  0  0
   13.2149   11.2373   25.2811 C   0  0  0  0  0  0  0  0  0  0  0  0
   12.1662   12.3477   25.2150 C   0  0  0  0  0  0  0  0  0  0  0  0
    8.0199   14.5962   25.7619 C   0  0  0  0  0  0  0  0  0  0  0  0
    6.9163   14.3626   24.7123 C   0  0  0  0  0  0  0  0  0  0  0  0
  1  2  2  0
  2  3  1  0
  4  3  1  6
  4  5  1  0
  5  6  1  0
  7  6  1  6
  7  8  1  0
  8  9  1  0
  9 10  1  0
 10 11  1  0
 11 12  1  0
  2 13  1  0
 13 14  1  0
 14 15  1  0
 15 16  1  0
 16 17  1  0
 17 18  2  0
 17 19  2  0
 17 20  1  0
 20 21  1  0
 21 22  1  0
 22 23  1  0
 23 24  1  0
 24 25  1  0
 16 26  1  0
 26 27  1  0
  7  4  1  0
 27 13  1  0
  7 12  1  0
 25 20  1  0
M  END
>  <energy_score>  (2680) 
-42.857093

>  <inchikey>  (2680) 
None

>  <smiles>  (2680) 
None

>  <ref_pdb>  (2680) 
A4706a

>  <alias>  (2680) 
None

>  <HIPPO Pose ID>  (2680) 
500324

>  <name>  (2680) 
P500324

>  <HIPPO Compound ID>  (2680) 
314643

>  <ref_mols>  (2680) 
A4706a,A0875a

>  <distance_score>  (2680) 
1.882809

>  <inspiration_score>  (2680) 
None

$$$$
P500325
     RDKit          3D

 27 29  0  0  0  0  0  0  0  0999 V2000
   11.3748   13.5419   21.6478 C   0  0  0  0  0  0  0  0  0  0  0  0
   11.1585   15.0077   21.8543 C   0  0  0  0  0  0  0  0  0  0  0  0
   12.3117   15.5587   22.5821 C   0  0  0  0  0  0  0  0  0  0  0  0
    9.8537   15.2699   22.5237 C   0  0  0  0  0  0  0  0  0  0  0  0
    8.8346   15.3720   21.4190 C   0  0  2  0  0  0  0  0  0  0  0  0
    8.0680   14.1640   21.2511 O   0  0  0  0  0  0  0  0  0  0  0  0
    7.0519   13.8622   22.1269 C   0  0  0  0  0  0  0  0  0  0  0  0
    5.9270   13.5885   21.7242 O   0  0  0  0  0  0  0  0  0  0  0  0
    7.4004   13.7699   23.6028 C   0  0  0  0  0  0  0  0  0  0  0  0
    8.2303   12.4872   23.8296 C   0  0  0  0  0  0  0  0  0  0  0  0
    8.1621   11.9397   25.2413 C   0  0  0  0  0  0  0  0  0  0  0  0
    8.1278   13.0516   26.1780 N   0  0  0  0  0  0  0  0  0  0  0  0
    9.4776   14.0223   26.4493 S   0  0  0  0  0  0  0  0  0  0  0  0
    9.6880   14.9209   25.3441 O   0  0  0  0  0  0  0  0  0  0  0  0
    9.2744   14.5811   27.7625 O   0  0  0  0  0  0  0  0  0  0  0  0
   10.8598   12.9814   26.5285 N   0  0  0  0  0  0  0  0  0  0  0  0
   11.4443   12.6406   25.2010 C   0  0  0  0  0  0  0  0  0  0  0  0
   12.7034   11.7989   25.3218 C   0  0  0  0  0  0  0  0  0  0  0  0
   13.7715   12.3846   26.2014 C   0  0  0  0  0  0  0  0  0  0  0  0
   13.1815   12.8553   27.5064 C   0  0  0  0  0  0  0  0  0  0  0  0
   11.9066   13.6833   27.3475 C   0  0  0  0  0  0  0  0  0  0  0  0
    6.8273   13.8169   26.0589 C   0  0  0  0  0  0  0  0  0  0  0  0
    6.2538   13.7786   24.6185 C   0  0  0  0  0  0  0  0  0  0  0  0
    9.7399   15.8641   20.2619 C   0  0  2  0  0  0  0  0  0  0  0  0
    9.8207   15.3504   18.8386 C   0  0  0  0  0  0  0  0  0  0  0  0
   10.6969   14.2120   18.5514 N   0  0  0  0  0  0  0  0  0  0  0  0
   11.1122   15.7534   20.6745 O   0  0  0  0  0  0  0  0  0  0  0  0
  1  2  1  0
  2  3  1  0
  2  4  1  0
  4  5  1  0
  5  6  1  6
  6  7  1  0
  7  8  2  0
  7  9  1  0
  9 10  1  0
 10 11  1  0
 11 12  1  0
 12 13  1  0
 13 14  2  0
 13 15  2  0
 13 16  1  0
 16 17  1  0
 17 18  1  0
 18 19  1  0
 19 20  1  0
 20 21  1  0
 12 22  1  0
 22 23  1  0
  5 24  1  0
 24 25  1  6
 25 26  1  0
 24 27  1  0
 27  2  1  0
 23  9  1  0
 21 16  1  0
M  END
>  <energy_score>  (2681) 
-44.365277

>  <inchikey>  (2681) 
None

>  <smiles>  (2681) 
None

>  <ref_pdb>  (2681) 
A4706a

>  <alias>  (2681) 
None

>  <HIPPO Pose ID>  (2681) 
500325

>  <name>  (2681) 
P500325

>  <HIPPO Compound ID>  (2681) 
314644

>  <ref_mols>  (2681) 
A4706a,A0875a

>  <distance_score>  (2681) 
1.791083

>  <inspiration_score>  (2681) 
None

$$$$
P500326
     RDKit          3D

 27 29  0  0  0  0  0  0  0  0999 V2000
   10.7431   16.1726   22.5478 C   0  0  0  0  0  0  0  0  0  0  0  0
   10.9153   14.7332   22.1929 C   0  0  0  0  0  0  0  0  0  0  0  0
   12.0654   14.1981   22.9727 C   0  0  0  0  0  0  0  0  0  0  0  0
    9.6927   13.8609   22.2764 C   0  0  0  0  0  0  0  0  0  0  0  0
    8.8275   14.3560   21.1520 C   0  0  1  0  0  0  0  0  0  0  0  0
    7.9240   15.3890   21.6034 O   0  0  0  0  0  0  0  0  0  0  0  0
    6.7768   14.9294   22.2321 C   0  0  0  0  0  0  0  0  0  0  0  0
    5.7436   14.6625   21.6314 O   0  0  0  0  0  0  0  0  0  0  0  0
    6.9513   14.6808   23.7253 C   0  0  0  0  0  0  0  0  0  0  0  0
    6.8785   13.1718   24.0510 C   0  0  0  0  0  0  0  0  0  0  0  0
    6.9010   12.8734   25.5487 C   0  0  0  0  0  0  0  0  0  0  0  0
    7.5061   13.9708   26.3049 N   0  0  0  0  0  0  0  0  0  0  0  0
    9.1494   14.3307   26.3941 S   0  0  0  0  0  0  0  0  0  0  0  0
    9.5598   15.0173   25.2032 O   0  0  0  0  0  0  0  0  0  0  0  0
    9.3377   15.0249   27.6370 O   0  0  0  0  0  0  0  0  0  0  0  0
   10.1175   12.9121   26.4446 N   0  0  0  0  0  0  0  0  0  0  0  0
   11.5368   13.3883   26.7274 C   0  0  0  0  0  0  0  0  0  0  0  0
   12.6253   12.3414   26.5517 C   0  0  0  0  0  0  0  0  0  0  0  0
   12.4284   11.4537   25.3404 C   0  0  0  0  0  0  0  0  0  0  0  0
   10.9843   10.9722   25.1555 C   0  0  0  0  0  0  0  0  0  0  0  0
   10.0494   12.1341   25.1986 C   0  0  0  0  0  0  0  0  0  0  0  0
    6.6346   15.2097   26.1753 C   0  0  0  0  0  0  0  0  0  0  0  0
    6.0734   15.4041   24.7367 C   0  0  0  0  0  0  0  0  0  0  0  0
    9.9656   14.6330   20.1322 C   0  0  1  0  0  0  0  0  0  0  0  0
    9.8723   15.7377   19.1273 C   0  0  0  0  0  0  0  0  0  0  0  0
   11.0492   15.6340   18.2616 N   0  0  0  0  0  0  0  0  0  0  0  0
   11.2261   14.7285   20.8262 O   0  0  0  0  0  0  0  0  0  0  0  0
  1  2  1  0
  2  3  1  0
  2  4  1  0
  4  5  1  0
  5  6  1  1
  6  7  1  0
  7  8  2  0
  7  9  1  0
  9 10  1  0
 10 11  1  0
 11 12  1  0
 12 13  1  0
 13 14  2  0
 13 15  2  0
 13 16  1  0
 16 17  1  0
 17 18  1  0
 18 19  1  0
 19 20  1  0
 20 21  1  0
 12 22  1  0
 22 23  1  0
  5 24  1  0
 24 25  1  1
 25 26  1  0
 24 27  1  0
 27  2  1  0
 23  9  1  0
 21 16  1  0
M  END
>  <energy_score>  (2682) 
-20.145493

>  <inchikey>  (2682) 
None

>  <smiles>  (2682) 
None

>  <ref_pdb>  (2682) 
A4706a

>  <alias>  (2682) 
None

>  <HIPPO Pose ID>  (2682) 
500326

>  <name>  (2682) 
P500326

>  <HIPPO Compound ID>  (2682) 
314644

>  <ref_mols>  (2682) 
A4706a,A0875a

>  <distance_score>  (2682) 
1.815211

>  <inspiration_score>  (2682) 
None

$$$$
P500327
     RDKit          3D

 28 30  0  0  0  0  0  0  0  0999 V2000
    8.2216   18.8181   20.1783 C   0  0  0  0  0  0  0  0  0  0  0  0
    7.8681   17.6137   20.8411 O   0  0  0  0  0  0  0  0  0  0  0  0
    8.9764   16.8074   21.1062 C   0  0  0  0  0  0  0  0  0  0  0  0
    8.5516   15.4121   21.5897 C   0  0  1  0  0  0  0  0  0  0  0  0
    9.8467   14.6598   21.9005 C   0  0  0  0  0  0  0  0  0  0  0  0
   10.7057   14.6133   20.7509 N   0  0  0  0  0  0  0  0  0  0  0  0
   12.0349   14.8002   20.7091 C   0  0  0  0  0  0  0  0  0  0  0  0
   12.4296   14.6958   19.4650 N   0  0  0  0  0  0  0  0  0  0  0  0
   11.2735   14.6495   18.7690 C   0  0  0  0  0  0  0  0  0  0  0  0
   10.1863   14.5727   19.5216 N   0  0  0  0  0  0  0  0  0  0  0  0
    7.6673   15.4721   22.7411 O   0  0  0  0  0  0  0  0  0  0  0  0
    7.0441   14.3123   23.0797 C   0  0  0  0  0  0  0  0  0  0  0  0
    7.1834   13.2460   22.4797 O   0  0  0  0  0  0  0  0  0  0  0  0
    6.0928   14.4506   24.2718 C   0  0  0  0  0  0  0  0  0  0  0  0
    5.8705   13.0727   24.9195 C   0  0  0  0  0  0  0  0  0  0  0  0
    7.0816   12.5545   25.6956 C   0  0  0  0  0  0  0  0  0  0  0  0
    7.8505   13.6399   26.3283 N   0  0  0  0  0  0  0  0  0  0  0  0
    9.4226   14.0599   25.9275 S   0  0  0  0  0  0  0  0  0  0  0  0
    9.9913   14.6406   27.1198 O   0  0  0  0  0  0  0  0  0  0  0  0
    9.4382   14.8139   24.7044 O   0  0  0  0  0  0  0  0  0  0  0  0
   10.2363   12.6317   25.6309 N   0  0  0  0  0  0  0  0  0  0  0  0
   11.6628   12.6890   26.0295 C   0  0  0  0  0  0  0  0  0  0  0  0
   12.4283   11.4729   25.5210 C   0  0  0  0  0  0  0  0  0  0  0  0
   11.5417   10.2346   25.2176 C   0  0  0  0  0  0  0  0  0  0  0  0
   10.2246   10.5381   24.4995 C   0  0  0  0  0  0  0  0  0  0  0  0
   10.0845   12.0292   24.2872 C   0  0  0  0  0  0  0  0  0  0  0  0
    6.9919   14.8075   26.6482 C   0  0  0  0  0  0  0  0  0  0  0  0
    6.4921   15.4623   25.3572 C   0  0  0  0  0  0  0  0  0  0  0  0
  1  2  1  0
  2  3  1  0
  4  3  1  1
  4  5  1  0
  5  6  1  0
  6  7  1  0
  7  8  2  0
  8  9  1  0
  9 10  2  0
  4 11  1  0
 11 12  1  0
 12 13  2  0
 12 14  1  0
 14 15  1  0
 15 16  1  0
 16 17  1  0
 17 18  1  0
 18 19  2  0
 18 20  2  0
 18 21  1  0
 21 22  1  0
 22 23  1  0
 23 24  1  0
 24 25  1  0
 25 26  1  0
 17 27  1  0
 27 28  1  0
 10  6  1  0
 28 14  1  0
 26 21  1  0
M  END
>  <energy_score>  (2683) 
-42.21937

>  <inchikey>  (2683) 
None

>  <smiles>  (2683) 
None

>  <ref_pdb>  (2683) 
A4706a

>  <alias>  (2683) 
None

>  <HIPPO Pose ID>  (2683) 
500327

>  <name>  (2683) 
P500327

>  <HIPPO Compound ID>  (2683) 
314646

>  <ref_mols>  (2683) 
A4706a,A0875a

>  <distance_score>  (2683) 
1.895289

>  <inspiration_score>  (2683) 
None

$$$$
P500328
     RDKit          3D

 28 30  0  0  0  0  0  0  0  0999 V2000
    5.8351   12.9927   22.3919 O   0  0  0  0  0  0  0  0  0  0  0  0
    6.2071   13.5804   23.4005 C   0  0  0  0  0  0  0  0  0  0  0  0
    7.3507   14.3046   23.4167 O   0  0  0  0  0  0  0  0  0  0  0  0
    7.7160   14.9105   22.1452 C   0  0  2  0  0  0  0  0  0  0  0  0
    9.2268   15.2025   22.0122 C   0  0  2  0  0  0  0  0  0  0  0  0
    9.6765   15.6337   20.6081 C   0  0  0  0  0  0  0  0  0  0  0  0
   11.0046   14.9458   20.3756 C   0  0  0  0  0  0  0  0  0  0  0  0
   11.3023   14.2991   21.7036 C   0  0  0  0  0  0  0  0  0  0  0  0
   10.0208   14.0324   22.2702 O   0  0  0  0  0  0  0  0  0  0  0  0
    6.9082   16.1940   22.1044 C   0  0  0  0  0  0  0  0  0  0  0  0
    6.8030   16.7596   23.3264 F   0  0  0  0  0  0  0  0  0  0  0  0
    5.6317   15.9193   21.7352 F   0  0  0  0  0  0  0  0  0  0  0  0
    7.4641   17.0734   21.2618 F   0  0  0  0  0  0  0  0  0  0  0  0
    5.4542   13.5240   24.7321 C   0  0  0  0  0  0  0  0  0  0  0  0
    5.9340   12.3762   25.6433 C   0  0  0  0  0  0  0  0  0  0  0  0
    6.9825   12.8250   26.6722 C   0  0  0  0  0  0  0  0  0  0  0  0
    7.6407   13.9907   26.0946 N   0  0  0  0  0  0  0  0  0  0  0  0
    9.2727   14.2585   26.1277 S   0  0  0  0  0  0  0  0  0  0  0  0
    9.5978   15.2423   25.1242 O   0  0  0  0  0  0  0  0  0  0  0  0
    9.6695   14.4561   27.4985 O   0  0  0  0  0  0  0  0  0  0  0  0
    9.9532   12.8155   25.6358 N   0  0  0  0  0  0  0  0  0  0  0  0
   11.4017   12.9802   25.3713 C   0  0  0  0  0  0  0  0  0  0  0  0
   12.0575   11.6186   25.4535 C   0  0  0  0  0  0  0  0  0  0  0  0
   11.0624   10.4993   25.0646 C   0  0  0  0  0  0  0  0  0  0  0  0
   10.0984   10.9724   23.9854 C   0  0  0  0  0  0  0  0  0  0  0  0
    9.2561   12.0762   24.5582 C   0  0  0  0  0  0  0  0  0  0  0  0
    6.7840   15.1893   26.1476 C   0  0  0  0  0  0  0  0  0  0  0  0
    5.4492   14.8643   25.4775 C   0  0  0  0  0  0  0  0  0  0  0  0
  1  2  2  0
  2  3  1  0
  4  3  1  1
  4  5  1  0
  5  6  1  6
  6  7  1  0
  7  8  1  0
  8  9  1  0
  4 10  1  0
 10 11  1  0
 10 12  1  0
 10 13  1  0
  2 14  1  0
 14 15  1  0
 15 16  1  0
 16 17  1  0
 17 18  1  0
 18 19  2  0
 18 20  2  0
 18 21  1  0
 21 22  1  0
 22 23  1  0
 23 24  1  0
 24 25  1  0
 25 26  1  0
 17 27  1  0
 27 28  1  0
  9  5  1  0
 28 14  1  0
 26 21  1  0
M  END
>  <energy_score>  (2684) 
-24.576579

>  <inchikey>  (2684) 
None

>  <smiles>  (2684) 
None

>  <ref_pdb>  (2684) 
A4706a

>  <alias>  (2684) 
None

>  <HIPPO Pose ID>  (2684) 
500328

>  <name>  (2684) 
P500328

>  <HIPPO Compound ID>  (2684) 
314647

>  <ref_mols>  (2684) 
A4706a,A0875a

>  <distance_score>  (2684) 
1.864171

>  <inspiration_score>  (2684) 
None

$$$$
P500329
     RDKit          3D

 28 30  0  0  0  0  0  0  0  0999 V2000
    6.9748   13.5329   21.8175 O   0  0  0  0  0  0  0  0  0  0  0  0
    7.1931   14.3214   22.7385 C   0  0  0  0  0  0  0  0  0  0  0  0
    7.9344   15.4538   22.6075 O   0  0  0  0  0  0  0  0  0  0  0  0
    8.6157   15.6516   21.3223 C   0  0  2  0  0  0  0  0  0  0  0  0
    9.8555   14.7687   21.1849 C   0  0  1  0  0  0  0  0  0  0  0  0
   10.5790   14.8617   19.8454 C   0  0  0  0  0  0  0  0  0  0  0  0
   11.9786   14.5318   20.2553 C   0  0  0  0  0  0  0  0  0  0  0  0
   12.0932   15.2458   21.5784 C   0  0  0  0  0  0  0  0  0  0  0  0
   10.8210   15.1288   22.1923 O   0  0  0  0  0  0  0  0  0  0  0  0
    8.9911   17.1177   21.0316 C   0  0  0  0  0  0  0  0  0  0  0  0
    8.9524   17.3871   19.7015 F   0  0  0  0  0  0  0  0  0  0  0  0
   10.2533   17.4192   21.3811 F   0  0  0  0  0  0  0  0  0  0  0  0
    8.1657   17.9861   21.6240 F   0  0  0  0  0  0  0  0  0  0  0  0
    6.6559   14.0195   24.1529 C   0  0  0  0  0  0  0  0  0  0  0  0
    7.1130   12.5761   24.5280 C   0  0  0  0  0  0  0  0  0  0  0  0
    7.7349   12.3416   25.8966 C   0  0  0  0  0  0  0  0  0  0  0  0
    8.4065   13.5463   26.4063 N   0  0  0  0  0  0  0  0  0  0  0  0
    9.8191   14.0903   25.6333 S   0  0  0  0  0  0  0  0  0  0  0  0
   10.2071   15.2984   26.3164 O   0  0  0  0  0  0  0  0  0  0  0  0
    9.5681   14.0573   24.2221 O   0  0  0  0  0  0  0  0  0  0  0  0
   10.9402   12.8832   25.9622 N   0  0  0  0  0  0  0  0  0  0  0  0
   12.2090   13.2906   26.6347 C   0  0  0  0  0  0  0  0  0  0  0  0
   13.4513   13.0055   25.7596 C   0  0  0  0  0  0  0  0  0  0  0  0
   13.6104   11.5476   25.3824 C   0  0  0  0  0  0  0  0  0  0  0  0
   12.2369   10.9516   25.3471 C   0  0  0  0  0  0  0  0  0  0  0  0
   11.1314   11.8881   24.8792 C   0  0  0  0  0  0  0  0  0  0  0  0
    7.3728   14.6083   26.5676 C   0  0  0  0  0  0  0  0  0  0  0  0
    6.9015   15.1116   25.2089 C   0  0  0  0  0  0  0  0  0  0  0  0
  1  2  2  0
  2  3  1  0
  4  3  1  1
  4  5  1  0
  5  6  1  6
  6  7  1  0
  7  8  1  0
  8  9  1  0
  4 10  1  0
 10 11  1  0
 10 12  1  0
 10 13  1  0
  2 14  1  0
 14 15  1  0
 15 16  1  0
 16 17  1  0
 17 18  1  0
 18 19  2  0
 18 20  2  0
 18 21  1  0
 21 22  1  0
 22 23  1  0
 23 24  1  0
 24 25  1  0
 25 26  1  0
 17 27  1  0
 27 28  1  0
  9  5  1  0
 28 14  1  0
 26 21  1  0
M  END
>  <energy_score>  (2685) 
-34.528897

>  <inchikey>  (2685) 
None

>  <smiles>  (2685) 
None

>  <ref_pdb>  (2685) 
A4706a

>  <alias>  (2685) 
None

>  <HIPPO Pose ID>  (2685) 
500329

>  <name>  (2685) 
P500329

>  <HIPPO Compound ID>  (2685) 
314647

>  <ref_mols>  (2685) 
A0875a,A4706a

>  <distance_score>  (2685) 
1.309317

>  <inspiration_score>  (2685) 
None

$$$$
P500330
     RDKit          3D

 28 30  0  0  0  0  0  0  0  0999 V2000
    6.5813   13.0272   22.1992 O   0  0  0  0  0  0  0  0  0  0  0  0
    6.7800   13.5097   23.3065 C   0  0  0  0  0  0  0  0  0  0  0  0
    7.7978   14.3453   23.5764 O   0  0  0  0  0  0  0  0  0  0  0  0
    8.3143   15.2695   22.5698 C   0  0  1  0  0  0  0  0  0  0  0  0
    9.1568   14.6355   21.4638 C   0  0  1  0  0  0  0  0  0  0  0  0
    9.7294   15.5737   20.4049 C   0  0  0  0  0  0  0  0  0  0  0  0
   11.0016   14.8863   20.0030 C   0  0  0  0  0  0  0  0  0  0  0  0
   11.4808   14.3859   21.3394 C   0  0  0  0  0  0  0  0  0  0  0  0
   10.3179   14.0569   22.0968 O   0  0  0  0  0  0  0  0  0  0  0  0
    7.1919   16.1631   22.1085 C   0  0  0  0  0  0  0  0  0  0  0  0
    6.5795   16.7445   23.1690 F   0  0  0  0  0  0  0  0  0  0  0  0
    6.2350   15.4541   21.4758 F   0  0  0  0  0  0  0  0  0  0  0  0
    7.6548   17.1215   21.2917 F   0  0  0  0  0  0  0  0  0  0  0  0
    5.9074   13.1777   24.5217 C   0  0  0  0  0  0  0  0  0  0  0  0
    6.4665   12.0013   25.3481 C   0  0  0  0  0  0  0  0  0  0  0  0
    7.3764   12.4498   26.4967 C   0  0  0  0  0  0  0  0  0  0  0  0
    7.8455   13.7779   26.1440 N   0  0  0  0  0  0  0  0  0  0  0  0
    9.3875   14.3272   26.3145 S   0  0  0  0  0  0  0  0  0  0  0  0
    9.5802   15.4086   25.3826 O   0  0  0  0  0  0  0  0  0  0  0  0
    9.6185   14.5289   27.7216 O   0  0  0  0  0  0  0  0  0  0  0  0
   10.4082   13.1122   25.8430 N   0  0  0  0  0  0  0  0  0  0  0  0
   11.8156   13.6068   25.8179 C   0  0  0  0  0  0  0  0  0  0  0  0
   12.7282   12.6383   25.0841 C   0  0  0  0  0  0  0  0  0  0  0  0
   12.2953   11.2358   25.4460 C   0  0  0  0  0  0  0  0  0  0  0  0
   10.8127   10.9542   25.0351 C   0  0  0  0  0  0  0  0  0  0  0  0
   10.1151   12.2603   24.6917 C   0  0  0  0  0  0  0  0  0  0  0  0
    6.7909   14.8028   26.2771 C   0  0  0  0  0  0  0  0  0  0  0  0
    5.6111   14.3986   25.3997 C   0  0  0  0  0  0  0  0  0  0  0  0
  1  2  2  0
  2  3  1  0
  4  3  1  6
  4  5  1  0
  5  6  1  6
  6  7  1  0
  7  8  1  0
  8  9  1  0
  4 10  1  0
 10 11  1  0
 10 12  1  0
 10 13  1  0
  2 14  1  0
 14 15  1  0
 15 16  1  0
 16 17  1  0
 17 18  1  0
 18 19  2  0
 18 20  2  0
 18 21  1  0
 21 22  1  0
 22 23  1  0
 23 24  1  0
 24 25  1  0
 25 26  1  0
 17 27  1  0
 27 28  1  0
  9  5  1  0
 28 14  1  0
 26 21  1  0
M  END
>  <energy_score>  (2686) 
-45.214597

>  <inchikey>  (2686) 
None

>  <smiles>  (2686) 
None

>  <ref_pdb>  (2686) 
A4706a

>  <alias>  (2686) 
None

>  <HIPPO Pose ID>  (2686) 
500330

>  <name>  (2686) 
P500330

>  <HIPPO Compound ID>  (2686) 
314647

>  <ref_mols>  (2686) 
A4706a,A0875a

>  <distance_score>  (2686) 
1.573397

>  <inspiration_score>  (2686) 
None

$$$$
P500331
     RDKit          3D

 28 29  0  0  0  0  0  0  0  0999 V2000
   10.5068   15.1007   19.5548 C   0  0  0  0  0  0  0  0  0  0  0  0
    9.5155   15.6907   20.3837 O   0  0  0  0  0  0  0  0  0  0  0  0
    9.3136   15.0856   21.6773 C   0  0  0  0  0  0  0  0  0  0  0  0
   10.2612   15.5705   22.6197 O   0  0  0  0  0  0  0  0  0  0  0  0
   11.5323   14.9641   22.5282 C   0  0  0  0  0  0  0  0  0  0  0  0
    7.8370   15.4400   22.1532 C   0  0  2  0  0  0  0  0  0  0  0  0
    7.5799   15.3023   23.5855 O   0  0  0  0  0  0  0  0  0  0  0  0
    6.3035   15.5274   24.0053 C   0  0  0  0  0  0  0  0  0  0  0  0
    5.4567   16.1380   23.3679 O   0  0  0  0  0  0  0  0  0  0  0  0
    5.9827   14.8370   25.3321 C   0  0  0  0  0  0  0  0  0  0  0  0
    5.8878   13.3005   25.1508 C   0  0  0  0  0  0  0  0  0  0  0  0
    6.8430   12.4352   25.9677 C   0  0  0  0  0  0  0  0  0  0  0  0
    8.0311   13.2000   26.3728 N   0  0  0  0  0  0  0  0  0  0  0  0
    9.1937   13.4946   25.1870 S   0  0  0  0  0  0  0  0  0  0  0  0
    8.6986   12.9543   23.9453 O   0  0  0  0  0  0  0  0  0  0  0  0
    9.6673   14.8458   25.3367 O   0  0  0  0  0  0  0  0  0  0  0  0
   10.3971   12.4410   25.7179 N   0  0  0  0  0  0  0  0  0  0  0  0
   11.6801   13.0780   26.0749 C   0  0  0  0  0  0  0  0  0  0  0  0
   12.7781   12.5852   25.1645 C   0  0  0  0  0  0  0  0  0  0  0  0
   12.9614   11.1099   25.4304 C   0  0  0  0  0  0  0  0  0  0  0  0
   11.6371   10.3120   25.2678 C   0  0  0  0  0  0  0  0  0  0  0  0
   10.4288   11.1729   24.9426 C   0  0  0  0  0  0  0  0  0  0  0  0
    7.6544   14.3350   27.2315 C   0  0  0  0  0  0  0  0  0  0  0  0
    6.8744   15.3785   26.4521 C   0  0  0  0  0  0  0  0  0  0  0  0
    6.9689   14.4175   21.4468 C   0  0  0  0  0  0  0  0  0  0  0  0
    6.9735   13.2023   22.0565 F   0  0  0  0  0  0  0  0  0  0  0  0
    7.4383   14.1801   20.2170 F   0  0  0  0  0  0  0  0  0  0  0  0
    5.6698   14.7527   21.3269 F   0  0  0  0  0  0  0  0  0  0  0  0
  1  2  1  0
  2  3  1  0
  3  4  1  0
  4  5  1  0
  3  6  1  0
  6  7  1  1
  7  8  1  0
  8  9  2  0
  8 10  1  0
 10 11  1  0
 11 12  1  0
 12 13  1  0
 13 14  1  0
 14 15  2  0
 14 16  2  0
 14 17  1  0
 17 18  1  0
 18 19  1  0
 19 20  1  0
 20 21  1  0
 21 22  1  0
 13 23  1  0
 23 24  1  0
  6 25  1  0
 25 26  1  0
 25 27  1  0
 25 28  1  0
 24 10  1  0
 22 17  1  0
M  END
>  <energy_score>  (2687) 
-29.045926

>  <inchikey>  (2687) 
None

>  <smiles>  (2687) 
None

>  <ref_pdb>  (2687) 
A4706a

>  <alias>  (2687) 
None

>  <HIPPO Pose ID>  (2687) 
500331

>  <name>  (2687) 
P500331

>  <HIPPO Compound ID>  (2687) 
314648

>  <ref_mols>  (2687) 
A4706a,A0875a

>  <distance_score>  (2687) 
1.652444

>  <inspiration_score>  (2687) 
None

$$$$
P500332
     RDKit          3D

 28 29  0  0  0  0  0  0  0  0999 V2000
   10.4874   14.9556   19.4965 C   0  0  0  0  0  0  0  0  0  0  0  0
    9.8535   15.8171   20.4340 O   0  0  0  0  0  0  0  0  0  0  0  0
    9.7568   15.3342   21.7825 C   0  0  0  0  0  0  0  0  0  0  0  0
   10.9637   14.6805   22.1630 O   0  0  0  0  0  0  0  0  0  0  0  0
   12.0006   15.6053   22.3291 C   0  0  0  0  0  0  0  0  0  0  0  0
    8.5933   14.3739   22.1100 C   0  0  1  0  0  0  0  0  0  0  0  0
    8.0701   14.4294   23.4671 O   0  0  0  0  0  0  0  0  0  0  0  0
    7.3066   13.3390   23.7549 C   0  0  0  0  0  0  0  0  0  0  0  0
    7.5399   12.2399   23.2660 O   0  0  0  0  0  0  0  0  0  0  0  0
    6.0835   13.5667   24.6331 C   0  0  0  0  0  0  0  0  0  0  0  0
    6.0919   12.5172   25.7663 C   0  0  0  0  0  0  0  0  0  0  0  0
    7.1771   12.8178   26.8122 C   0  0  0  0  0  0  0  0  0  0  0  0
    7.9119   13.9847   26.3254 N   0  0  0  0  0  0  0  0  0  0  0  0
    9.5158   14.2914   26.5325 S   0  0  0  0  0  0  0  0  0  0  0  0
    9.6656   14.7808   27.8782 O   0  0  0  0  0  0  0  0  0  0  0  0
    9.9474   15.1070   25.4198 O   0  0  0  0  0  0  0  0  0  0  0  0
   10.3212   12.8137   26.4757 N   0  0  0  0  0  0  0  0  0  0  0  0
   10.0439   11.8684   25.3713 C   0  0  0  0  0  0  0  0  0  0  0  0
   10.7158   12.3132   24.1191 C   0  0  0  0  0  0  0  0  0  0  0  0
   12.1981   12.4917   24.3517 C   0  0  0  0  0  0  0  0  0  0  0  0
   12.5108   13.4202   25.4757 C   0  0  0  0  0  0  0  0  0  0  0  0
   11.7839   12.9974   26.7283 C   0  0  0  0  0  0  0  0  0  0  0  0
    7.0495   15.1895   26.2939 C   0  0  0  0  0  0  0  0  0  0  0  0
    5.9999   14.9776   25.2121 C   0  0  0  0  0  0  0  0  0  0  0  0
    7.4290   14.7357   21.2730 C   0  0  0  0  0  0  0  0  0  0  0  0
    7.7523   14.5434   19.9981 F   0  0  0  0  0  0  0  0  0  0  0  0
    6.3500   13.9460   21.5067 F   0  0  0  0  0  0  0  0  0  0  0  0
    7.0429   16.0003   21.5028 F   0  0  0  0  0  0  0  0  0  0  0  0
  1  2  1  0
  2  3  1  0
  3  4  1  0
  4  5  1  0
  3  6  1  0
  6  7  1  1
  7  8  1  0
  8  9  2  0
  8 10  1  0
 10 11  1  0
 11 12  1  0
 12 13  1  0
 13 14  1  0
 14 15  2  0
 14 16  2  0
 14 17  1  0
 17 18  1  0
 18 19  1  0
 19 20  1  0
 20 21  1  0
 21 22  1  0
 13 23  1  0
 23 24  1  0
  6 25  1  0
 25 26  1  0
 25 27  1  0
 25 28  1  0
 24 10  1  0
 22 17  1  0
M  END
>  <energy_score>  (2688) 
-41.919788

>  <inchikey>  (2688) 
None

>  <smiles>  (2688) 
None

>  <ref_pdb>  (2688) 
A4706a

>  <alias>  (2688) 
None

>  <HIPPO Pose ID>  (2688) 
500332

>  <name>  (2688) 
P500332

>  <HIPPO Compound ID>  (2688) 
314648

>  <ref_mols>  (2688) 
A4706a,A0875a

>  <distance_score>  (2688) 
1.707453

>  <inspiration_score>  (2688) 
None

$$$$
P500333
     RDKit          3D

 28 31  0  0  0  0  0  0  0  0999 V2000
    5.3825   15.0641   23.1105 O   0  0  0  0  0  0  0  0  0  0  0  0
    6.0380   14.1061   23.5052 C   0  0  0  0  0  0  0  0  0  0  0  0
    7.2404   13.7410   22.9838 O   0  0  0  0  0  0  0  0  0  0  0  0
    8.0947   14.8537   22.6215 C   0  0  2  0  0  0  0  0  0  0  0  0
    7.7442   15.5830   21.3605 C   0  0  0  0  0  0  0  0  0  0  0  0
    8.6802   16.7759   21.1270 C   0  0  0  0  0  0  0  0  0  0  0  0
    9.9536   16.5916   21.7148 O   0  0  0  0  0  0  0  0  0  0  0  0
   10.4100   15.2761   21.6306 C   0  0  1  0  0  0  0  0  0  0  0  0
   10.6364   14.8621   20.1759 C   0  0  0  0  0  0  0  0  0  0  0  0
   12.0121   14.2679   20.2139 C   0  0  0  0  0  0  0  0  0  0  0  0
   12.2271   13.9765   21.5998 O   0  0  0  0  0  0  0  0  0  0  0  0
   11.7878   15.1650   22.2311 C   0  0  0  0  0  0  0  0  0  0  0  0
    9.4951   14.3264   22.4116 C   0  0  0  0  0  0  0  0  0  0  0  0
    5.5948   13.2908   24.7202 C   0  0  0  0  0  0  0  0  0  0  0  0
    6.4837   12.1031   25.1605 C   0  0  0  0  0  0  0  0  0  0  0  0
    7.4503   12.4784   26.2897 C   0  0  0  0  0  0  0  0  0  0  0  0
    7.9146   13.8256   25.9594 N   0  0  0  0  0  0  0  0  0  0  0  0
    9.4441   14.3475   26.3333 S   0  0  0  0  0  0  0  0  0  0  0  0
    9.4716   14.6077   27.7492 O   0  0  0  0  0  0  0  0  0  0  0  0
    9.8012   15.3833   25.3961 O   0  0  0  0  0  0  0  0  0  0  0  0
   10.4771   13.0631   26.0698 N   0  0  0  0  0  0  0  0  0  0  0  0
   11.8861   13.4723   26.3371 C   0  0  0  0  0  0  0  0  0  0  0  0
   12.7996   12.2652   26.4456 C   0  0  0  0  0  0  0  0  0  0  0  0
   12.5280   11.2780   25.3235 C   0  0  0  0  0  0  0  0  0  0  0  0
   11.0164   11.0068   25.0637 C   0  0  0  0  0  0  0  0  0  0  0  0
   10.3941   12.3437   24.7898 C   0  0  0  0  0  0  0  0  0  0  0  0
    6.8575   14.8427   26.2552 C   0  0  0  0  0  0  0  0  0  0  0  0
    5.4798   14.2901   25.8803 C   0  0  0  0  0  0  0  0  0  0  0  0
  1  2  2  0
  2  3  1  0
  4  3  1  6
  4  5  1  0
  5  6  1  0
  6  7  1  0
  8  7  1  0
  8  9  1  6
  9 10  1  0
 10 11  1  0
 11 12  1  0
  8 13  1  0
  2 14  1  0
 14 15  1  0
 15 16  1  0
 16 17  1  0
 17 18  1  0
 18 19  2  0
 18 20  2  0
 18 21  1  0
 21 22  1  0
 22 23  1  0
 23 24  1  0
 24 25  1  0
 25 26  1  0
 17 27  1  0
 27 28  1  0
 13  4  1  0
 28 14  1  0
 12  8  1  0
 26 21  1  0
M  END
>  <energy_score>  (2689) 
-52.277845

>  <inchikey>  (2689) 
None

>  <smiles>  (2689) 
None

>  <ref_pdb>  (2689) 
A4706a

>  <alias>  (2689) 
None

>  <HIPPO Pose ID>  (2689) 
500333

>  <name>  (2689) 
P500333

>  <HIPPO Compound ID>  (2689) 
314649

>  <ref_mols>  (2689) 
A4706a,A0875a

>  <distance_score>  (2689) 
1.918286

>  <inspiration_score>  (2689) 
None

$$$$
P500334
     RDKit          3D

 28 29  0  0  0  0  0  0  0  0999 V2000
   18.0775   12.9267   32.5810 C   0  0  0  0  0  0  0  0  0  0  0  0
   17.7509   12.3941   31.2000 C   0  0  0  0  0  0  0  0  0  0  0  0
   16.6474   11.4976   31.3138 O   0  0  0  0  0  0  0  0  0  0  0  0
   16.2361   10.9577   30.0596 C   0  0  0  0  0  0  0  0  0  0  0  0
   15.2227   11.8718   29.3690 C   0  0  0  0  0  0  0  0  0  0  0  0
   14.8191   11.3561   28.0992 O   0  0  0  0  0  0  0  0  0  0  0  0
   15.7031   11.7306   27.0354 C   0  0  0  0  0  0  0  0  0  0  0  0
   15.2584   11.0223   25.7260 C   0  0  1  0  0  0  0  0  0  0  0  0
   15.5499    9.5413   25.8754 C   0  0  0  0  0  0  0  0  0  0  0  0
   16.0006    8.6158   24.8941 N   0  0  0  0  0  0  0  0  0  0  0  0
   13.8131   11.1720   25.5241 O   0  0  0  0  0  0  0  0  0  0  0  0
   13.4921   12.4510   25.2799 C   0  0  0  0  0  0  0  0  0  0  0  0
   14.3565   13.3033   25.1464 O   0  0  0  0  0  0  0  0  0  0  0  0
   12.0588   12.8033   25.0914 C   0  0  0  0  0  0  0  0  0  0  0  0
   11.8598   13.5536   23.7768 C   0  0  0  0  0  0  0  0  0  0  0  0
   10.4522   14.1093   23.6137 C   0  0  0  0  0  0  0  0  0  0  0  0
    9.4643   13.3963   24.4790 N   0  0  0  0  0  0  0  0  0  0  0  0
    9.1183   14.2073   25.9324 S   0  0  0  0  0  0  0  0  0  0  0  0
    9.1597   15.6120   25.6274 O   0  0  0  0  0  0  0  0  0  0  0  0
    9.9382   13.6769   26.9906 O   0  0  0  0  0  0  0  0  0  0  0  0
    7.5537   13.8401   26.3229 N   0  0  0  0  0  0  0  0  0  0  0  0
    6.4837   14.7770   25.9706 C   0  0  0  0  0  0  0  0  0  0  0  0
    6.0719   14.5214   24.5379 C   0  0  0  0  0  0  0  0  0  0  0  0
    6.1888   13.0459   24.1622 C   0  0  0  0  0  0  0  0  0  0  0  0
    6.1518   12.0935   25.3622 C   0  0  0  0  0  0  0  0  0  0  0  0
    7.0949   12.4700   26.4993 C   0  0  0  0  0  0  0  0  0  0  0  0
    9.7627   11.9469   24.4586 C   0  0  0  0  0  0  0  0  0  0  0  0
   11.0334   11.6881   25.2466 C   0  0  0  0  0  0  0  0  0  0  0  0
  1  2  1  0
  2  3  1  0
  3  4  1  0
  4  5  1  0
  5  6  1  0
  6  7  1  0
  8  7  1  1
  8  9  1  0
  9 10  1  0
  8 11  1  0
 11 12  1  0
 12 13  2  0
 12 14  1  0
 14 15  1  0
 15 16  1  0
 16 17  1  0
 17 18  1  0
 18 19  2  0
 18 20  2  0
 18 21  1  0
 21 22  1  0
 22 23  1  0
 23 24  1  0
 24 25  1  0
 25 26  1  0
 17 27  1  0
 27 28  1  0
 28 14  1  0
 26 21  1  0
M  END
>  <energy_score>  (2690) 
-67.630939

>  <inchikey>  (2690) 
None

>  <smiles>  (2690) 
None

>  <ref_pdb>  (2690) 
A4706a

>  <alias>  (2690) 
None

>  <HIPPO Pose ID>  (2690) 
500334

>  <name>  (2690) 
P500334

>  <HIPPO Compound ID>  (2690) 
314650

>  <ref_mols>  (2690) 
A4706a,A0875a

>  <distance_score>  (2690) 
1.877138

>  <inspiration_score>  (2690) 
None

$$$$
P500335
     RDKit          3D

 28 31  0  0  0  0  0  0  0  0999 V2000
    6.1811   15.7639   22.2379 O   0  0  0  0  0  0  0  0  0  0  0  0
    6.8366   14.7342   22.3088 C   0  0  0  0  0  0  0  0  0  0  0  0
    7.7930   14.3720   21.3941 O   0  0  0  0  0  0  0  0  0  0  0  0
    8.5470   15.4623   20.7781 C   0  0  2  0  0  0  0  0  0  0  0  0
    9.3351   15.0625   19.5038 C   0  0  0  0  0  0  0  0  0  0  0  0
   10.5984   15.7109   19.4112 O   0  0  0  0  0  0  0  0  0  0  0  0
   10.8999   15.6264   20.7285 C   0  0  0  0  0  0  0  0  0  0  0  0
   12.1340   15.4468   21.2344 C   0  0  0  0  0  0  0  0  0  0  0  0
   12.1669   15.2968   22.5890 C   0  0  0  0  0  0  0  0  0  0  0  0
   13.2901   14.9932   23.1919 F   0  0  0  0  0  0  0  0  0  0  0  0
   11.0810   15.4403   23.4213 C   0  0  0  0  0  0  0  0  0  0  0  0
    9.8569   15.6162   22.8841 C   0  0  0  0  0  0  0  0  0  0  0  0
    9.7841   15.6068   21.5402 C   0  0  0  0  0  0  0  0  0  0  0  0
    6.6485   13.7204   23.4654 C   0  0  0  0  0  0  0  0  0  0  0  0
    7.8529   12.7950   23.6488 C   0  0  0  0  0  0  0  0  0  0  0  0
    7.8153   11.9856   24.9332 C   0  0  0  0  0  0  0  0  0  0  0  0
    7.8183   12.8836   26.0918 N   0  0  0  0  0  0  0  0  0  0  0  0
    9.1611   13.8424   26.4602 S   0  0  0  0  0  0  0  0  0  0  0  0
    8.9863   14.3062   27.8130 O   0  0  0  0  0  0  0  0  0  0  0  0
    9.2939   14.8361   25.4382 O   0  0  0  0  0  0  0  0  0  0  0  0
   10.5583   12.8566   26.4287 N   0  0  0  0  0  0  0  0  0  0  0  0
   11.6968   13.5473   27.1355 C   0  0  0  0  0  0  0  0  0  0  0  0
   12.9791   12.6928   27.1545 C   0  0  0  0  0  0  0  0  0  0  0  0
   13.3964   12.1659   25.7887 C   0  0  0  0  0  0  0  0  0  0  0  0
   12.4045   12.6499   24.7709 C   0  0  0  0  0  0  0  0  0  0  0  0
   10.9816   12.2821   25.1245 C   0  0  0  0  0  0  0  0  0  0  0  0
    6.5306   13.6615   26.0816 C   0  0  0  0  0  0  0  0  0  0  0  0
    6.3534   14.4792   24.7884 C   0  0  0  0  0  0  0  0  0  0  0  0
  1  2  2  0
  2  3  1  0
  4  3  1  1
  4  5  1  0
  5  6  1  0
  6  7  1  0
  7  8  2  0
  8  9  1  0
  9 10  1  0
  9 11  2  0
 11 12  1  0
 12 13  2  0
  2 14  1  0
 14 15  1  0
 15 16  1  0
 16 17  1  0
 17 18  1  0
 18 19  2  0
 18 20  2  0
 18 21  1  0
 21 22  1  0
 22 23  1  0
 23 24  1  0
 24 25  1  0
 25 26  1  0
 17 27  1  0
 27 28  1  0
 13  4  1  0
 28 14  1  0
 13  7  1  0
 26 21  1  0
M  END
>  <energy_score>  (2691) 
-27.967399

>  <inchikey>  (2691) 
None

>  <smiles>  (2691) 
None

>  <ref_pdb>  (2691) 
A4706a

>  <alias>  (2691) 
None

>  <HIPPO Pose ID>  (2691) 
500335

>  <name>  (2691) 
P500335

>  <HIPPO Compound ID>  (2691) 
314651

>  <ref_mols>  (2691) 
A0875a,A4706a

>  <distance_score>  (2691) 
1.70173

>  <inspiration_score>  (2691) 
None

$$$$
P500336
     RDKit          3D

 28 30  0  0  0  0  0  0  0  0999 V2000
    9.7737   15.1506   18.6061 C   0  0  0  0  0  0  0  0  0  0  0  0
    9.1583   15.0146   19.8927 O   0  0  0  0  0  0  0  0  0  0  0  0
    9.9308   15.6026   20.9108 C   0  0  0  0  0  0  0  0  0  0  0  0
   10.0879   17.0061   20.6488 O   0  0  0  0  0  0  0  0  0  0  0  0
    8.9027   17.7933   20.5471 C   0  0  0  0  0  0  0  0  0  0  0  0
   11.3470   14.9418   20.8848 C   0  0  0  0  0  0  0  0  0  0  0  0
   11.3469   13.8546   21.9251 C   0  0  0  0  0  0  0  0  0  0  0  0
   11.3632   14.4422   23.2146 O   0  0  0  0  0  0  0  0  0  0  0  0
   10.5773   15.6261   23.2380 C   0  0  0  0  0  0  0  0  0  0  0  0
    9.3201   15.5196   22.3450 C   0  0  2  0  0  0  0  0  0  0  0  0
    8.4509   14.4017   22.7064 O   0  0  0  0  0  0  0  0  0  0  0  0
    7.1391   14.7615   22.9003 C   0  0  0  0  0  0  0  0  0  0  0  0
    6.5794   15.6510   22.2670 O   0  0  0  0  0  0  0  0  0  0  0  0
    6.3749   14.0392   24.0399 C   0  0  0  0  0  0  0  0  0  0  0  0
    6.8445   12.6186   24.3476 C   0  0  0  0  0  0  0  0  0  0  0  0
    6.9905   12.2303   25.8073 C   0  0  0  0  0  0  0  0  0  0  0  0
    7.5362   13.3188   26.6105 N   0  0  0  0  0  0  0  0  0  0  0  0
    9.0553   13.9849   26.3542 S   0  0  0  0  0  0  0  0  0  0  0  0
    8.9475   14.7685   25.1617 O   0  0  0  0  0  0  0  0  0  0  0  0
    9.4232   14.6509   27.5801 O   0  0  0  0  0  0  0  0  0  0  0  0
   10.2170   12.8044   26.0858 N   0  0  0  0  0  0  0  0  0  0  0  0
   10.0811   11.9072   24.9317 C   0  0  0  0  0  0  0  0  0  0  0  0
   11.0196   10.7428   25.1395 C   0  0  0  0  0  0  0  0  0  0  0  0
   12.4473   11.2196   25.5063 C   0  0  0  0  0  0  0  0  0  0  0  0
   12.6364   12.6936   25.2882 C   0  0  0  0  0  0  0  0  0  0  0  0
   11.5943   13.4429   26.1197 C   0  0  0  0  0  0  0  0  0  0  0  0
    6.4835   14.3873   26.6593 C   0  0  0  0  0  0  0  0  0  0  0  0
    6.1911   14.9722   25.2649 C   0  0  0  0  0  0  0  0  0  0  0  0
  1  2  1  0
  2  3  1  0
  3  4  1  0
  4  5  1  0
  3  6  1  0
  6  7  1  0
  7  8  1  0
  8  9  1  0
  9 10  1  0
 10 11  1  6
 11 12  1  0
 12 13  2  0
 12 14  1  0
 14 15  1  0
 15 16  1  0
 16 17  1  0
 17 18  1  0
 18 19  2  0
 18 20  2  0
 18 21  1  0
 21 22  1  0
 22 23  1  0
 23 24  1  0
 24 25  1  0
 25 26  1  0
 17 27  1  0
 27 28  1  0
 10  3  1  0
 28 14  1  0
 26 21  1  0
M  END
>  <energy_score>  (2692) 
-12.184756

>  <inchikey>  (2692) 
None

>  <smiles>  (2692) 
None

>  <ref_pdb>  (2692) 
A4706a

>  <alias>  (2692) 
None

>  <HIPPO Pose ID>  (2692) 
500336

>  <name>  (2692) 
P500336

>  <HIPPO Compound ID>  (2692) 
314655

>  <ref_mols>  (2692) 
A4706a,A0875a

>  <distance_score>  (2692) 
1.663743

>  <inspiration_score>  (2692) 
None

$$$$
P500337
     RDKit          3D

 28 30  0  0  0  0  0  0  0  0999 V2000
   11.2296   14.8440   18.6783 C   0  0  0  0  0  0  0  0  0  0  0  0
   10.1811   14.5299   19.5733 O   0  0  0  0  0  0  0  0  0  0  0  0
    9.7870   15.5738   20.4675 C   0  0  0  0  0  0  0  0  0  0  0  0
    9.4857   16.7121   19.6390 O   0  0  0  0  0  0  0  0  0  0  0  0
    8.9237   17.8890   20.1965 C   0  0  0  0  0  0  0  0  0  0  0  0
   10.9491   15.8927   21.4162 C   0  0  0  0  0  0  0  0  0  0  0  0
   10.7027   15.2972   22.7633 C   0  0  0  0  0  0  0  0  0  0  0  0
    9.4697   15.7455   23.3282 O   0  0  0  0  0  0  0  0  0  0  0  0
    8.3491   15.8710   22.4478 C   0  0  0  0  0  0  0  0  0  0  0  0
    8.5304   15.0115   21.2311 C   0  0  2  0  0  0  0  0  0  0  0  0
    8.6882   13.6636   21.7425 O   0  0  0  0  0  0  0  0  0  0  0  0
    7.6540   13.2660   22.5369 C   0  0  0  0  0  0  0  0  0  0  0  0
    6.4980   13.1554   22.1581 O   0  0  0  0  0  0  0  0  0  0  0  0
    8.1233   12.9814   23.9290 C   0  0  0  0  0  0  0  0  0  0  0  0
    8.7599   11.6206   24.0917 C   0  0  0  0  0  0  0  0  0  0  0  0
    9.1063   11.3574   25.5432 C   0  0  0  0  0  0  0  0  0  0  0  0
    9.1320   12.5866   26.3446 N   0  0  0  0  0  0  0  0  0  0  0  0
   10.4628   13.6063   26.5093 S   0  0  0  0  0  0  0  0  0  0  0  0
   10.5624   14.4921   25.3852 O   0  0  0  0  0  0  0  0  0  0  0  0
   10.3479   14.1553   27.8359 O   0  0  0  0  0  0  0  0  0  0  0  0
   11.8318   12.5898   26.4520 N   0  0  0  0  0  0  0  0  0  0  0  0
   12.3591   12.3722   25.0984 C   0  0  0  0  0  0  0  0  0  0  0  0
   13.3865   11.2421   25.1596 C   0  0  0  0  0  0  0  0  0  0  0  0
   14.5025   11.4118   26.1597 C   0  0  0  0  0  0  0  0  0  0  0  0
   14.3452   12.7125   26.8833 C   0  0  0  0  0  0  0  0  0  0  0  0
   12.9278   12.9336   27.4170 C   0  0  0  0  0  0  0  0  0  0  0  0
    7.7984   13.2891   26.3830 C   0  0  0  0  0  0  0  0  0  0  0  0
    7.0938   13.2360   25.0227 C   0  0  0  0  0  0  0  0  0  0  0  0
  1  2  1  0
  2  3  1  0
  3  4  1  0
  4  5  1  0
  3  6  1  0
  6  7  1  0
  7  8  1  0
  8  9  1  0
  9 10  1  0
 10 11  1  1
 11 12  1  0
 12 13  2  0
 12 14  1  0
 14 15  1  0
 15 16  1  0
 16 17  1  0
 17 18  1  0
 18 19  2  0
 18 20  2  0
 18 21  1  0
 21 22  1  0
 22 23  1  0
 23 24  1  0
 24 25  1  0
 25 26  1  0
 17 27  1  0
 27 28  1  0
 10  3  1  0
 28 14  1  0
 26 21  1  0
M  END
>  <energy_score>  (2693) 
-18.768349

>  <inchikey>  (2693) 
None

>  <smiles>  (2693) 
None

>  <ref_pdb>  (2693) 
A4706a

>  <alias>  (2693) 
None

>  <HIPPO Pose ID>  (2693) 
500337

>  <name>  (2693) 
P500337

>  <HIPPO Compound ID>  (2693) 
314655

>  <ref_mols>  (2693) 
A0875a,A4706a

>  <distance_score>  (2693) 
1.727656

>  <inspiration_score>  (2693) 
None

$$$$
P500338
     RDKit          3D

 28 31  0  0  0  0  0  0  0  0999 V2000
    5.3579   15.2776   22.5358 O   0  0  0  0  0  0  0  0  0  0  0  0
    6.1974   15.2050   23.4284 C   0  0  0  0  0  0  0  0  0  0  0  0
    7.5168   15.5003   23.2617 O   0  0  0  0  0  0  0  0  0  0  0  0
    7.9595   15.8076   21.9298 C   0  0  2  0  0  0  0  0  0  0  0  0
    7.8274   14.6153   21.0272 C   0  0  0  0  0  0  0  0  0  0  0  0
    8.6825   14.8635   19.8982 O   0  0  0  0  0  0  0  0  0  0  0  0
    9.5525   15.9617   20.1712 C   0  0  0  0  0  0  0  0  0  0  0  0
    9.4379   16.1494   21.6615 C   0  0  2  0  0  0  0  0  0  0  0  0
   10.4293   15.2981   22.2620 N   0  0  0  0  0  0  0  0  0  0  0  0
   10.7164   14.0103   21.9550 C   0  0  0  0  0  0  0  0  0  0  0  0
   11.7752   13.7053   22.7356 C   0  0  0  0  0  0  0  0  0  0  0  0
   12.1420   14.7848   23.4424 N   0  0  0  0  0  0  0  0  0  0  0  0
   11.3441   15.7852   23.0982 N   0  0  0  0  0  0  0  0  0  0  0  0
    5.8440   14.6535   24.8227 C   0  0  0  0  0  0  0  0  0  0  0  0
    5.8736   13.1066   24.7980 C   0  0  0  0  0  0  0  0  0  0  0  0
    6.7905   12.4004   25.7959 C   0  0  0  0  0  0  0  0  0  0  0  0
    7.9250   13.2616   26.1803 N   0  0  0  0  0  0  0  0  0  0  0  0
    9.0668   13.5679   24.9718 S   0  0  0  0  0  0  0  0  0  0  0  0
    9.2995   14.9872   24.9547 O   0  0  0  0  0  0  0  0  0  0  0  0
    8.6598   12.8068   23.8153 O   0  0  0  0  0  0  0  0  0  0  0  0
   10.4326   12.8855   25.5908 N   0  0  0  0  0  0  0  0  0  0  0  0
   11.0393   13.5289   26.7421 C   0  0  0  0  0  0  0  0  0  0  0  0
   12.5335   13.3803   26.6687 C   0  0  0  0  0  0  0  0  0  0  0  0
   13.0085   11.9656   26.5811 C   0  0  0  0  0  0  0  0  0  0  0  0
   12.3236   11.3174   25.3990 C   0  0  0  0  0  0  0  0  0  0  0  0
   10.8047   11.5290   25.2426 C   0  0  0  0  0  0  0  0  0  0  0  0
    7.4174   14.4568   26.8925 C   0  0  0  0  0  0  0  0  0  0  0  0
    6.5688   15.3464   25.9854 C   0  0  0  0  0  0  0  0  0  0  0  0
  1  2  2  0
  2  3  1  0
  4  3  1  1
  4  5  1  0
  5  6  1  0
  6  7  1  0
  7  8  1  0
  8  9  1  1
  9 10  1  0
 10 11  2  0
 11 12  1  0
 12 13  2  0
  2 14  1  0
 14 15  1  0
 15 16  1  0
 16 17  1  0
 17 18  1  0
 18 19  2  0
 18 20  2  0
 18 21  1  0
 21 22  1  0
 22 23  1  0
 23 24  1  0
 24 25  1  0
 25 26  1  0
 17 27  1  0
 27 28  1  0
  8  4  1  0
 13  9  1  0
 28 14  1  0
 26 21  1  0
M  END
>  <energy_score>  (2694) 
-46.646398

>  <inchikey>  (2694) 
None

>  <smiles>  (2694) 
None

>  <ref_pdb>  (2694) 
A4706a

>  <alias>  (2694) 
None

>  <HIPPO Pose ID>  (2694) 
500338

>  <name>  (2694) 
P500338

>  <HIPPO Compound ID>  (2694) 
314658

>  <ref_mols>  (2694) 
A4706a,A0875a

>  <distance_score>  (2694) 
1.842849

>  <inspiration_score>  (2694) 
None

$$$$
P500339
     RDKit          3D

 28 31  0  0  0  0  0  0  0  0999 V2000
    6.7610   13.3160   22.4558 O   0  0  0  0  0  0  0  0  0  0  0  0
    6.9879   14.2170   23.2631 C   0  0  0  0  0  0  0  0  0  0  0  0
    7.7272   15.3432   23.0139 O   0  0  0  0  0  0  0  0  0  0  0  0
    8.1673   15.6560   21.6704 C   0  0  2  0  0  0  0  0  0  0  0  0
    8.2454   14.5442   20.6693 C   0  0  0  0  0  0  0  0  0  0  0  0
    8.9408   15.0661   19.5138 O   0  0  0  0  0  0  0  0  0  0  0  0
    9.6775   16.2110   19.9084 C   0  0  0  0  0  0  0  0  0  0  0  0
    9.5611   16.2342   21.4128 C   0  0  2  0  0  0  0  0  0  0  0  0
   10.6356   15.4438   21.9401 N   0  0  0  0  0  0  0  0  0  0  0  0
   11.2609   15.6236   23.1084 C   0  0  0  0  0  0  0  0  0  0  0  0
   12.1414   14.5901   23.1482 C   0  0  0  0  0  0  0  0  0  0  0  0
   12.0141   13.8107   22.0599 N   0  0  0  0  0  0  0  0  0  0  0  0
   11.1417   14.3941   21.2743 N   0  0  0  0  0  0  0  0  0  0  0  0
    6.3613   14.1589   24.6659 C   0  0  0  0  0  0  0  0  0  0  0  0
    6.3534   12.7070   25.1969 C   0  0  0  0  0  0  0  0  0  0  0  0
    7.7023   12.2223   25.7402 C   0  0  0  0  0  0  0  0  0  0  0  0
    8.4629   13.3068   26.4342 N   0  0  0  0  0  0  0  0  0  0  0  0
    9.8022   13.9262   25.5985 S   0  0  0  0  0  0  0  0  0  0  0  0
    9.4555   13.8442   24.2077 O   0  0  0  0  0  0  0  0  0  0  0  0
   10.1628   15.1710   26.2283 O   0  0  0  0  0  0  0  0  0  0  0  0
   11.0243   12.8276   25.8810 N   0  0  0  0  0  0  0  0  0  0  0  0
   11.2148   11.7891   24.8697 C   0  0  0  0  0  0  0  0  0  0  0  0
   12.3245   10.8784   25.3481 C   0  0  0  0  0  0  0  0  0  0  0  0
   13.6977   11.4553   25.4772 C   0  0  0  0  0  0  0  0  0  0  0  0
   13.5779   12.8427   26.0647 C   0  0  0  0  0  0  0  0  0  0  0  0
   12.2081   13.2146   26.6837 C   0  0  0  0  0  0  0  0  0  0  0  0
    7.5405   14.3764   26.9186 C   0  0  0  0  0  0  0  0  0  0  0  0
    6.9028   15.1137   25.7373 C   0  0  0  0  0  0  0  0  0  0  0  0
  1  2  2  0
  2  3  1  0
  4  3  1  1
  4  5  1  0
  5  6  1  0
  6  7  1  0
  7  8  1  0
  8  9  1  1
  9 10  1  0
 10 11  2  0
 11 12  1  0
 12 13  2  0
  2 14  1  0
 14 15  1  0
 15 16  1  0
 16 17  1  0
 17 18  1  0
 18 19  2  0
 18 20  2  0
 18 21  1  0
 21 22  1  0
 22 23  1  0
 23 24  1  0
 24 25  1  0
 25 26  1  0
 17 27  1  0
 27 28  1  0
  8  4  1  0
 13  9  1  0
 28 14  1  0
 26 21  1  0
M  END
>  <energy_score>  (2695) 
-25.293868

>  <inchikey>  (2695) 
None

>  <smiles>  (2695) 
None

>  <ref_pdb>  (2695) 
A4706a

>  <alias>  (2695) 
None

>  <HIPPO Pose ID>  (2695) 
500339

>  <name>  (2695) 
P500339

>  <HIPPO Compound ID>  (2695) 
314658

>  <ref_mols>  (2695) 
A4706a,A0875a

>  <distance_score>  (2695) 
1.309659

>  <inspiration_score>  (2695) 
None

$$$$
P500340
     RDKit          3D

 28 31  0  0  0  0  0  0  0  0999 V2000
    6.6133   16.7516   23.6604 O   0  0  0  0  0  0  0  0  0  0  0  0
    6.6098   15.5988   23.2587 C   0  0  0  0  0  0  0  0  0  0  0  0
    7.2377   15.1788   22.1217 O   0  0  0  0  0  0  0  0  0  0  0  0
    8.5071   15.8218   21.8149 C   0  0  2  0  0  0  0  0  0  0  0  0
    8.5329   17.1322   21.0498 C   0  0  0  0  0  0  0  0  0  0  0  0
    9.4547   17.0107   19.9463 O   0  0  0  0  0  0  0  0  0  0  0  0
    9.7489   15.6389   19.7140 C   0  0  0  0  0  0  0  0  0  0  0  0
    9.3299   14.8828   20.9498 C   0  0  1  0  0  0  0  0  0  0  0  0
   10.4757   14.4479   21.7037 N   0  0  0  0  0  0  0  0  0  0  0  0
   11.5055   15.2092   22.1506 C   0  0  0  0  0  0  0  0  0  0  0  0
   12.1052   14.3915   23.0556 C   0  0  0  0  0  0  0  0  0  0  0  0
   11.4856   13.1872   23.0888 N   0  0  0  0  0  0  0  0  0  0  0  0
   10.4540   13.2376   22.2761 N   0  0  0  0  0  0  0  0  0  0  0  0
    5.8241   14.5012   23.9749 C   0  0  0  0  0  0  0  0  0  0  0  0
    6.5388   13.1490   24.0797 C   0  0  0  0  0  0  0  0  0  0  0  0
    6.8322   12.7089   25.5083 C   0  0  0  0  0  0  0  0  0  0  0  0
    7.4661   13.7810   26.2914 N   0  0  0  0  0  0  0  0  0  0  0  0
    9.0600   14.2789   26.0030 S   0  0  0  0  0  0  0  0  0  0  0  0
    9.3715   15.2596   27.0155 O   0  0  0  0  0  0  0  0  0  0  0  0
    9.1649   14.6376   24.6128 O   0  0  0  0  0  0  0  0  0  0  0  0
   10.1017   12.9555   26.3157 N   0  0  0  0  0  0  0  0  0  0  0  0
   11.4965   13.4809   26.4399 C   0  0  0  0  0  0  0  0  0  0  0  0
   12.5829   12.4289   26.4836 C   0  0  0  0  0  0  0  0  0  0  0  0
   12.4593   11.4628   25.3357 C   0  0  0  0  0  0  0  0  0  0  0  0
   11.0491   10.8867   25.1774 C   0  0  0  0  0  0  0  0  0  0  0  0
    9.8983   11.8227   25.4063 C   0  0  0  0  0  0  0  0  0  0  0  0
    6.5347   14.9629   26.4130 C   0  0  0  0  0  0  0  0  0  0  0  0
    5.3935   14.9513   25.3846 C   0  0  0  0  0  0  0  0  0  0  0  0
  1  2  2  0
  2  3  1  0
  4  3  1  6
  4  5  1  0
  5  6  1  0
  6  7  1  0
  7  8  1  0
  8  9  1  1
  9 10  1  0
 10 11  2  0
 11 12  1  0
 12 13  2  0
  2 14  1  0
 14 15  1  0
 15 16  1  0
 16 17  1  0
 17 18  1  0
 18 19  2  0
 18 20  2  0
 18 21  1  0
 21 22  1  0
 22 23  1  0
 23 24  1  0
 24 25  1  0
 25 26  1  0
 17 27  1  0
 27 28  1  0
  8  4  1  0
 13  9  1  0
 28 14  1  0
 26 21  1  0
M  END
>  <energy_score>  (2696) 
-41.002496

>  <inchikey>  (2696) 
None

>  <smiles>  (2696) 
None

>  <ref_pdb>  (2696) 
A4706a

>  <alias>  (2696) 
None

>  <HIPPO Pose ID>  (2696) 
500340

>  <name>  (2696) 
P500340

>  <HIPPO Compound ID>  (2696) 
314658

>  <ref_mols>  (2696) 
A4706a,A0875a

>  <distance_score>  (2696) 
1.893366

>  <inspiration_score>  (2696) 
None

$$$$
P500341
     RDKit          3D

 28 31  0  0  0  0  0  0  0  0999 V2000
    5.9203   12.9512   22.1521 O   0  0  0  0  0  0  0  0  0  0  0  0
    6.0011   13.8732   22.9572 C   0  0  0  0  0  0  0  0  0  0  0  0
    5.5425   15.0892   22.6547 O   0  0  0  0  0  0  0  0  0  0  0  0
    6.5030   16.1459   22.4849 C   0  0  0  0  0  0  0  0  0  0  0  0
    7.7614   15.8499   21.6431 C   0  0  1  0  0  0  0  0  0  0  0  0
    8.3943   17.1274   21.1258 C   0  0  0  0  0  0  0  0  0  0  0  0
    9.7944   16.7260   20.8096 C   0  0  0  0  0  0  0  0  0  0  0  0
   10.0544   15.5316   21.6918 C   0  0  1  0  0  0  0  0  0  0  0  0
   10.4786   14.3331   20.9013 C   0  0  0  0  0  0  0  0  0  0  0  0
   11.1090   13.4848   21.9722 C   0  0  0  0  0  0  0  0  0  0  0  0
   11.7214   14.3574   22.9159 O   0  0  0  0  0  0  0  0  0  0  0  0
   11.2214   15.6752   22.6450 C   0  0  0  0  0  0  0  0  0  0  0  0
    8.8234   15.2370   22.3805 O   0  0  0  0  0  0  0  0  0  0  0  0
    6.6764   13.7138   24.2871 C   0  0  0  0  0  0  0  0  0  0  0  0
    6.4156   12.3618   24.9352 C   0  0  0  0  0  0  0  0  0  0  0  0
    7.5732   12.0607   25.8688 C   0  0  0  0  0  0  0  0  0  0  0  0
    8.0367   13.2641   26.5966 N   0  0  0  0  0  0  0  0  0  0  0  0
    9.5142   14.0186   26.2172 S   0  0  0  0  0  0  0  0  0  0  0  0
    9.7057   15.0041   27.2531 O   0  0  0  0  0  0  0  0  0  0  0  0
    9.5328   14.4254   24.8433 O   0  0  0  0  0  0  0  0  0  0  0  0
   10.6946   12.8405   26.4091 N   0  0  0  0  0  0  0  0  0  0  0  0
   10.7329   11.7268   25.4388 C   0  0  0  0  0  0  0  0  0  0  0  0
   12.0943   11.0744   25.5003 C   0  0  0  0  0  0  0  0  0  0  0  0
   13.0879   11.9735   24.8800 C   0  0  0  0  0  0  0  0  0  0  0  0
   13.0984   13.2457   25.6627 C   0  0  0  0  0  0  0  0  0  0  0  0
   12.0351   13.4075   26.7518 C   0  0  0  0  0  0  0  0  0  0  0  0
    6.9189   14.2494   26.7553 C   0  0  0  0  0  0  0  0  0  0  0  0
    6.4912   14.7775   25.3775 C   0  0  0  0  0  0  0  0  0  0  0  0
  1  2  2  0
  2  3  1  0
  3  4  1  0
  5  4  1  1
  5  6  1  0
  6  7  1  0
  8  7  1  6
  8  9  1  0
  9 10  1  0
 10 11  1  0
 11 12  1  0
  8 13  1  0
  2 14  1  0
 14 15  1  0
 15 16  1  0
 16 17  1  0
 17 18  1  0
 18 19  2  0
 18 20  2  0
 18 21  1  0
 21 22  1  0
 22 23  1  0
 23 24  1  0
 24 25  1  0
 25 26  1  0
 17 27  1  0
 27 28  1  0
 13  5  1  0
 28 14  1  0
 12  8  1  0
 26 21  1  0
M  END
>  <energy_score>  (2697) 
-22.064201

>  <inchikey>  (2697) 
None

>  <smiles>  (2697) 
None

>  <ref_pdb>  (2697) 
A4706a

>  <alias>  (2697) 
None

>  <HIPPO Pose ID>  (2697) 
500341

>  <name>  (2697) 
P500341

>  <HIPPO Compound ID>  (2697) 
314660

>  <ref_mols>  (2697) 
A4706a,A0875a

>  <distance_score>  (2697) 
1.924873

>  <inspiration_score>  (2697) 
None

$$$$
P500342
     RDKit          3D

 28 31  0  0  0  0  0  0  0  0999 V2000
    5.9549   12.9628   22.5372 O   0  0  0  0  0  0  0  0  0  0  0  0
    6.2234   13.9536   23.2106 C   0  0  0  0  0  0  0  0  0  0  0  0
    7.0255   14.9508   22.7631 O   0  0  0  0  0  0  0  0  0  0  0  0
    7.6911   14.6590   21.5059 C   0  0  0  0  0  0  0  0  0  0  0  0
    8.7909   15.6862   21.2384 C   0  0  2  0  0  0  0  0  0  0  0  0
    9.4551   15.7195   19.8658 C   0  0  0  0  0  0  0  0  0  0  0  0
   10.7506   14.9828   19.9699 C   0  0  0  0  0  0  0  0  0  0  0  0
   10.9385   14.8072   21.4514 C   0  0  2  0  0  0  0  0  0  0  0  0
   12.1037   15.4969   22.0592 C   0  0  0  0  0  0  0  0  0  0  0  0
   12.1987   14.7182   23.3484 C   0  0  0  0  0  0  0  0  0  0  0  0
   11.8374   13.3744   23.1121 O   0  0  0  0  0  0  0  0  0  0  0  0
   11.1867   13.3749   21.8539 C   0  0  0  0  0  0  0  0  0  0  0  0
    9.8295   15.3631   22.1440 O   0  0  0  0  0  0  0  0  0  0  0  0
    5.6606   14.1786   24.6200 C   0  0  0  0  0  0  0  0  0  0  0  0
    5.5681   12.8500   25.3959 C   0  0  0  0  0  0  0  0  0  0  0  0
    6.8947   12.2877   25.9135 C   0  0  0  0  0  0  0  0  0  0  0  0
    7.8814   13.3695   26.1340 N   0  0  0  0  0  0  0  0  0  0  0  0
    9.0501   13.5750   24.9191 S   0  0  0  0  0  0  0  0  0  0  0  0
    9.3054   14.9884   24.8224 O   0  0  0  0  0  0  0  0  0  0  0  0
    8.6552   12.7397   23.8148 O   0  0  0  0  0  0  0  0  0  0  0  0
   10.3570   12.8825   25.6488 N   0  0  0  0  0  0  0  0  0  0  0  0
   10.8148   11.5644   25.2368 C   0  0  0  0  0  0  0  0  0  0  0  0
   12.3374   11.4027   25.4028 C   0  0  0  0  0  0  0  0  0  0  0  0
   12.9812   12.0666   26.5989 C   0  0  0  0  0  0  0  0  0  0  0  0
   12.4219   13.4501   26.7418 C   0  0  0  0  0  0  0  0  0  0  0  0
   10.9246   13.5313   26.8072 C   0  0  0  0  0  0  0  0  0  0  0  0
    7.2357   14.6222   26.5969 C   0  0  0  0  0  0  0  0  0  0  0  0
    6.3624   15.2302   25.4944 C   0  0  0  0  0  0  0  0  0  0  0  0
  1  2  2  0
  2  3  1  0
  3  4  1  0
  5  4  1  6
  5  6  1  0
  6  7  1  0
  8  7  1  6
  8  9  1  0
  9 10  1  0
 10 11  1  0
 11 12  1  0
  8 13  1  0
  2 14  1  0
 14 15  1  0
 15 16  1  0
 16 17  1  0
 17 18  1  0
 18 19  2  0
 18 20  2  0
 18 21  1  0
 21 22  1  0
 22 23  1  0
 23 24  1  0
 24 25  1  0
 25 26  1  0
 17 27  1  0
 27 28  1  0
 13  5  1  0
 28 14  1  0
 12  8  1  0
 26 21  1  0
M  END
>  <energy_score>  (2698) 
-37.164503

>  <inchikey>  (2698) 
None

>  <smiles>  (2698) 
None

>  <ref_pdb>  (2698) 
A4706a

>  <alias>  (2698) 
None

>  <HIPPO Pose ID>  (2698) 
500342

>  <name>  (2698) 
P500342

>  <HIPPO Compound ID>  (2698) 
314660

>  <ref_mols>  (2698) 
A0875a,A4706a

>  <distance_score>  (2698) 
1.789268

>  <inspiration_score>  (2698) 
None

$$$$
P500343
     RDKit          3D

 28 31  0  0  0  0  0  0  0  0999 V2000
    5.3087   15.2280   22.8616 O   0  0  0  0  0  0  0  0  0  0  0  0
    6.1964   15.1555   23.7053 C   0  0  0  0  0  0  0  0  0  0  0  0
    7.5140   15.4116   23.4558 O   0  0  0  0  0  0  0  0  0  0  0  0
    7.8601   15.6837   22.0913 C   0  0  2  0  0  0  0  0  0  0  0  0
    7.5997   14.5069   21.2030 C   0  0  0  0  0  0  0  0  0  0  0  0
    8.4389   14.6793   20.0584 O   0  0  0  0  0  0  0  0  0  0  0  0
    9.3900   15.7189   20.2546 C   0  0  0  0  0  0  0  0  0  0  0  0
    9.3309   15.9554   21.7342 C   0  0  2  0  0  0  0  0  0  0  0  0
   10.3648   15.1319   22.2936 N   0  0  0  0  0  0  0  0  0  0  0  0
   10.6029   13.8068   22.1560 C   0  0  0  0  0  0  0  0  0  0  0  0
   11.7657   13.5093   22.6699 N   0  0  0  0  0  0  0  0  0  0  0  0
   12.3471   14.6785   23.0517 N   0  0  0  0  0  0  0  0  0  0  0  0
   11.5171   15.6403   22.7659 C   0  0  0  0  0  0  0  0  0  0  0  0
    5.9194   14.6515   25.1276 C   0  0  0  0  0  0  0  0  0  0  0  0
    5.9679   13.1038   25.1657 C   0  0  0  0  0  0  0  0  0  0  0  0
    6.9671   12.4643   26.1309 C   0  0  0  0  0  0  0  0  0  0  0  0
    8.0974   13.3739   26.4048 N   0  0  0  0  0  0  0  0  0  0  0  0
    9.1957   13.6042   25.1445 S   0  0  0  0  0  0  0  0  0  0  0  0
    9.5501   15.0006   25.0987 O   0  0  0  0  0  0  0  0  0  0  0  0
    8.6363   12.8926   24.0174 O   0  0  0  0  0  0  0  0  0  0  0  0
   10.4983   12.7547   25.7040 N   0  0  0  0  0  0  0  0  0  0  0  0
   10.7160   11.4214   25.1560 C   0  0  0  0  0  0  0  0  0  0  0  0
   12.1174   10.9522   25.4982 C   0  0  0  0  0  0  0  0  0  0  0  0
   13.1552   11.8934   25.0231 C   0  0  0  0  0  0  0  0  0  0  0  0
   12.9753   13.1781   25.7756 C   0  0  0  0  0  0  0  0  0  0  0  0
   11.5959   13.4527   26.3825 C   0  0  0  0  0  0  0  0  0  0  0  0
    7.6202   14.5851   27.0924 C   0  0  0  0  0  0  0  0  0  0  0  0
    6.7109   15.4163   26.1978 C   0  0  0  0  0  0  0  0  0  0  0  0
  1  2  2  0
  2  3  1  0
  4  3  1  1
  4  5  1  0
  5  6  1  0
  6  7  1  0
  7  8  1  0
  8  9  1  1
  9 10  1  0
 10 11  2  0
 11 12  1  0
 12 13  2  0
  2 14  1  0
 14 15  1  0
 15 16  1  0
 16 17  1  0
 17 18  1  0
 18 19  2  0
 18 20  2  0
 18 21  1  0
 21 22  1  0
 22 23  1  0
 23 24  1  0
 24 25  1  0
 25 26  1  0
 17 27  1  0
 27 28  1  0
  8  4  1  0
 13  9  1  0
 28 14  1  0
 26 21  1  0
M  END
>  <energy_score>  (2699) 
-44.69364

>  <inchikey>  (2699) 
None

>  <smiles>  (2699) 
None

>  <ref_pdb>  (2699) 
A4706a

>  <alias>  (2699) 
None

>  <HIPPO Pose ID>  (2699) 
500343

>  <name>  (2699) 
P500343

>  <HIPPO Compound ID>  (2699) 
314665

>  <ref_mols>  (2699) 
A4706a,A0875a

>  <distance_score>  (2699) 
1.683681

>  <inspiration_score>  (2699) 
None

$$$$
P500344
     RDKit          3D

 28 31  0  0  0  0  0  0  0  0999 V2000
    5.7268   15.1905   22.2555 O   0  0  0  0  0  0  0  0  0  0  0  0
    6.5399   15.1343   23.1743 C   0  0  0  0  0  0  0  0  0  0  0  0
    7.8474   15.5320   23.0650 O   0  0  0  0  0  0  0  0  0  0  0  0
    8.2868   15.8284   21.7275 C   0  0  2  0  0  0  0  0  0  0  0  0
    8.2472   14.6138   20.8351 C   0  0  0  0  0  0  0  0  0  0  0  0
    9.0197   14.9472   19.6649 O   0  0  0  0  0  0  0  0  0  0  0  0
    9.7984   16.1012   19.9375 C   0  0  0  0  0  0  0  0  0  0  0  0
    9.7500   16.2256   21.4424 C   0  0  2  0  0  0  0  0  0  0  0  0
   10.7444   15.3705   22.0393 N   0  0  0  0  0  0  0  0  0  0  0  0
   11.1730   15.4546   23.3089 C   0  0  0  0  0  0  0  0  0  0  0  0
   11.9551   14.4451   23.5849 N   0  0  0  0  0  0  0  0  0  0  0  0
   12.0269   13.6684   22.4719 N   0  0  0  0  0  0  0  0  0  0  0  0
   11.3707   14.2827   21.5219 C   0  0  0  0  0  0  0  0  0  0  0  0
    6.1644   14.4914   24.5189 C   0  0  0  0  0  0  0  0  0  0  0  0
    6.4667   12.9724   24.4626 C   0  0  0  0  0  0  0  0  0  0  0  0
    7.2089   12.3262   25.6350 C   0  0  0  0  0  0  0  0  0  0  0  0
    8.0513   13.3046   26.3495 N   0  0  0  0  0  0  0  0  0  0  0  0
    9.4263   13.8672   25.5240 S   0  0  0  0  0  0  0  0  0  0  0  0
    9.7149   15.1655   26.0849 O   0  0  0  0  0  0  0  0  0  0  0  0
    9.1740   13.6648   24.1210 O   0  0  0  0  0  0  0  0  0  0  0  0
   10.6367   12.8132   25.9994 N   0  0  0  0  0  0  0  0  0  0  0  0
   11.8970   13.4521   26.4864 C   0  0  0  0  0  0  0  0  0  0  0  0
   13.2257   13.0284   25.8333 C   0  0  0  0  0  0  0  0  0  0  0  0
   13.2185   11.7785   25.0132 C   0  0  0  0  0  0  0  0  0  0  0  0
   12.0945   10.9469   25.4914 C   0  0  0  0  0  0  0  0  0  0  0  0
   10.7623   11.5943   25.1883 C   0  0  0  0  0  0  0  0  0  0  0  0
    7.1755   14.3898   26.8728 C   0  0  0  0  0  0  0  0  0  0  0  0
    6.6682   15.2691   25.7364 C   0  0  0  0  0  0  0  0  0  0  0  0
  1  2  2  0
  2  3  1  0
  4  3  1  1
  4  5  1  0
  5  6  1  0
  6  7  1  0
  7  8  1  0
  8  9  1  1
  9 10  1  0
 10 11  2  0
 11 12  1  0
 12 13  2  0
  2 14  1  0
 14 15  1  0
 15 16  1  0
 16 17  1  0
 17 18  1  0
 18 19  2  0
 18 20  2  0
 18 21  1  0
 21 22  1  0
 22 23  1  0
 23 24  1  0
 24 25  1  0
 25 26  1  0
 17 27  1  0
 27 28  1  0
  8  4  1  0
 13  9  1  0
 28 14  1  0
 26 21  1  0
M  END
>  <energy_score>  (2700) 
-35.440249

>  <inchikey>  (2700) 
None

>  <smiles>  (2700) 
None

>  <ref_pdb>  (2700) 
A4706a

>  <alias>  (2700) 
None

>  <HIPPO Pose ID>  (2700) 
500344

>  <name>  (2700) 
P500344

>  <HIPPO Compound ID>  (2700) 
314665

>  <ref_mols>  (2700) 
A4706a,A0875a

>  <distance_score>  (2700) 
1.494909

>  <inspiration_score>  (2700) 
None

$$$$
P500345
     RDKit          3D

 28 30  0  0  0  0  0  0  0  0999 V2000
    5.6568   16.9066   24.1762 C   0  0  0  0  0  0  0  0  0  0  0  0
    6.6391   16.2007   23.4195 O   0  0  0  0  0  0  0  0  0  0  0  0
    6.1641   15.6157   22.2885 C   0  0  0  0  0  0  0  0  0  0  0  0
    5.0587   15.8299   21.8025 O   0  0  0  0  0  0  0  0  0  0  0  0
    7.1496   14.5576   21.7460 C   0  0  2  0  0  0  0  0  0  0  0  0
    6.8141   13.2723   22.3693 O   0  0  0  0  0  0  0  0  0  0  0  0
    6.2025   13.3456   23.5890 C   0  0  0  0  0  0  0  0  0  0  0  0
    4.9973   13.3338   23.7626 O   0  0  0  0  0  0  0  0  0  0  0  0
    7.2063   13.4415   24.6746 C   0  0  0  0  0  0  0  0  0  0  0  0
    8.0806   12.1978   24.7039 C   0  0  0  0  0  0  0  0  0  0  0  0
    8.8595   12.1286   25.9976 C   0  0  0  0  0  0  0  0  0  0  0  0
    9.1046   13.4745   26.5826 N   0  0  0  0  0  0  0  0  0  0  0  0
   10.2334   14.5173   25.8449 S   0  0  0  0  0  0  0  0  0  0  0  0
   10.3417   15.6912   26.6688 O   0  0  0  0  0  0  0  0  0  0  0  0
    9.8994   14.6750   24.4693 O   0  0  0  0  0  0  0  0  0  0  0  0
   11.6871   13.6911   25.9247 N   0  0  0  0  0  0  0  0  0  0  0  0
   12.0753   13.2927   27.2622 C   0  0  0  0  0  0  0  0  0  0  0  0
   13.4971   12.7828   27.4152 C   0  0  0  0  0  0  0  0  0  0  0  0
   14.1108   12.2324   26.1526 C   0  0  0  0  0  0  0  0  0  0  0  0
   13.0355   11.7324   25.2259 C   0  0  0  0  0  0  0  0  0  0  0  0
   12.0563   12.8226   24.7998 C   0  0  0  0  0  0  0  0  0  0  0  0
    7.8056   14.1586   26.9602 C   0  0  0  0  0  0  0  0  0  0  0  0
    6.6475   13.7342   26.0555 C   0  0  0  0  0  0  0  0  0  0  0  0
    8.6688   14.9207   21.7736 C   0  0  2  0  0  0  0  0  0  0  0  0
    9.2650   15.5167   20.4910 C   0  0  0  0  0  0  0  0  0  0  0  0
   10.6833   14.9861   20.3984 C   0  0  0  0  0  0  0  0  0  0  0  0
   10.8455   14.2114   21.6776 C   0  0  0  0  0  0  0  0  0  0  0  0
    9.5172   13.7764   22.0058 O   0  0  0  0  0  0  0  0  0  0  0  0
  1  2  1  0
  2  3  1  0
  3  4  2  0
  3  5  1  0
  5  6  1  1
  6  7  1  0
  7  8  2  0
  7  9  1  0
  9 10  1  0
 10 11  1  0
 11 12  1  0
 12 13  1  0
 13 14  2  0
 13 15  2  0
 13 16  1  0
 16 17  1  0
 17 18  1  0
 18 19  1  0
 19 20  1  0
 20 21  1  0
 12 22  1  0
 22 23  1  0
  5 24  1  0
 24 25  1  6
 25 26  1  0
 26 27  1  0
 27 28  1  0
 23  9  1  0
 28 24  1  0
 21 16  1  0
M  END
>  <energy_score>  (2701) 
-15.677033

>  <inchikey>  (2701) 
None

>  <smiles>  (2701) 
None

>  <ref_pdb>  (2701) 
A4706a

>  <alias>  (2701) 
None

>  <HIPPO Pose ID>  (2701) 
500345

>  <name>  (2701) 
P500345

>  <HIPPO Compound ID>  (2701) 
314667

>  <ref_mols>  (2701) 
A4706a,A0875a

>  <distance_score>  (2701) 
1.926828

>  <inspiration_score>  (2701) 
None

$$$$
P500346
     RDKit          3D

 28 30  0  0  0  0  0  0  0  0999 V2000
    8.6006   18.3567   20.9758 C   0  0  0  0  0  0  0  0  0  0  0  0
    8.6877   16.9445   20.9299 O   0  0  0  0  0  0  0  0  0  0  0  0
    7.8854   16.2308   21.7449 C   0  0  0  0  0  0  0  0  0  0  0  0
    6.9567   16.6566   22.4243 O   0  0  0  0  0  0  0  0  0  0  0  0
    8.2300   14.7675   21.6896 C   0  0  2  0  0  0  0  0  0  0  0  0
    7.8152   14.3664   23.0265 O   0  0  0  0  0  0  0  0  0  0  0  0
    6.6945   13.6410   23.1763 C   0  0  0  0  0  0  0  0  0  0  0  0
    6.1313   13.0697   22.2493 O   0  0  0  0  0  0  0  0  0  0  0  0
    6.2403   13.5130   24.6383 C   0  0  0  0  0  0  0  0  0  0  0  0
    6.5815   12.1160   25.1908 C   0  0  0  0  0  0  0  0  0  0  0  0
    7.6641   12.0054   26.2612 C   0  0  0  0  0  0  0  0  0  0  0  0
    8.4745   13.2357   26.3788 N   0  0  0  0  0  0  0  0  0  0  0  0
    9.6216   13.4731   25.1693 S   0  0  0  0  0  0  0  0  0  0  0  0
    9.8491   14.8894   25.0288 O   0  0  0  0  0  0  0  0  0  0  0  0
    9.2548   12.5834   24.0919 O   0  0  0  0  0  0  0  0  0  0  0  0
   11.0493   12.8114   25.8057 N   0  0  0  0  0  0  0  0  0  0  0  0
   11.6700   13.5804   26.9081 C   0  0  0  0  0  0  0  0  0  0  0  0
   12.9710   12.8973   27.3846 C   0  0  0  0  0  0  0  0  0  0  0  0
   13.8981   12.3631   26.3023 C   0  0  0  0  0  0  0  0  0  0  0  0
   13.1026   11.6965   25.2086 C   0  0  0  0  0  0  0  0  0  0  0  0
   12.0416   12.6616   24.7049 C   0  0  0  0  0  0  0  0  0  0  0  0
    7.5904   14.3846   26.6780 C   0  0  0  0  0  0  0  0  0  0  0  0
    6.6356   14.6994   25.5332 C   0  0  0  0  0  0  0  0  0  0  0  0
    9.7081   14.4344   21.4592 C   0  0  1  0  0  0  0  0  0  0  0  0
   10.3167   14.7452   20.0935 C   0  0  0  0  0  0  0  0  0  0  0  0
   11.7736   14.6970   20.4327 C   0  0  0  0  0  0  0  0  0  0  0  0
   11.7954   15.4140   21.7591 C   0  0  0  0  0  0  0  0  0  0  0  0
   10.5840   15.0568   22.4224 O   0  0  0  0  0  0  0  0  0  0  0  0
  1  2  1  0
  2  3  1  0
  3  4  2  0
  3  5  1  0
  5  6  1  1
  6  7  1  0
  7  8  2  0
  7  9  1  0
  9 10  1  0
 10 11  1  0
 11 12  1  0
 12 13  1  0
 13 14  2  0
 13 15  2  0
 13 16  1  0
 16 17  1  0
 17 18  1  0
 18 19  1  0
 19 20  1  0
 20 21  1  0
 12 22  1  0
 22 23  1  0
  5 24  1  0
 24 25  1  6
 25 26  1  0
 26 27  1  0
 27 28  1  0
 23  9  1  0
 28 24  1  0
 21 16  1  0
M  END
>  <energy_score>  (2702) 
-62.95534

>  <inchikey>  (2702) 
None

>  <smiles>  (2702) 
None

>  <ref_pdb>  (2702) 
A4706a

>  <alias>  (2702) 
None

>  <HIPPO Pose ID>  (2702) 
500346

>  <name>  (2702) 
P500346

>  <HIPPO Compound ID>  (2702) 
314667

>  <ref_mols>  (2702) 
A4706a,A0875a

>  <distance_score>  (2702) 
1.541882

>  <inspiration_score>  (2702) 
None

$$$$
P500347
     RDKit          3D

 28 30  0  0  0  0  0  0  0  0999 V2000
    4.0705   14.0274   20.9484 C   0  0  0  0  0  0  0  0  0  0  0  0
    5.0507   14.9760   21.3773 O   0  0  0  0  0  0  0  0  0  0  0  0
    6.1931   14.4332   21.8879 C   0  0  0  0  0  0  0  0  0  0  0  0
    6.4429   13.2306   21.8678 O   0  0  0  0  0  0  0  0  0  0  0  0
    7.0584   15.4957   22.5776 C   0  0  1  0  0  0  0  0  0  0  0  0
    7.0420   15.0613   23.9679 O   0  0  0  0  0  0  0  0  0  0  0  0
    5.8020   15.0363   24.5304 C   0  0  0  0  0  0  0  0  0  0  0  0
    4.8674   15.7479   24.1788 O   0  0  0  0  0  0  0  0  0  0  0  0
    5.6341   13.9801   25.6120 C   0  0  0  0  0  0  0  0  0  0  0  0
    6.2653   12.6185   25.2842 C   0  0  0  0  0  0  0  0  0  0  0  0
    7.3745   12.2332   26.2486 C   0  0  0  0  0  0  0  0  0  0  0  0
    8.2625   13.3740   26.5160 N   0  0  0  0  0  0  0  0  0  0  0  0
    9.4947   13.7237   25.4159 S   0  0  0  0  0  0  0  0  0  0  0  0
   10.0504   14.9983   25.8014 O   0  0  0  0  0  0  0  0  0  0  0  0
    9.0472   13.4053   24.0852 O   0  0  0  0  0  0  0  0  0  0  0  0
   10.6575   12.5288   25.8387 N   0  0  0  0  0  0  0  0  0  0  0  0
   12.0035   13.1610   25.9635 C   0  0  0  0  0  0  0  0  0  0  0  0
   13.0659   12.1556   26.3607 C   0  0  0  0  0  0  0  0  0  0  0  0
   13.0805   10.9990   25.3840 C   0  0  0  0  0  0  0  0  0  0  0  0
   11.6811   10.3500   25.2299 C   0  0  0  0  0  0  0  0  0  0  0  0
   10.6287   11.3914   24.8756 C   0  0  0  0  0  0  0  0  0  0  0  0
    7.5851   14.5710   27.0905 C   0  0  0  0  0  0  0  0  0  0  0  0
    6.0730   14.5102   26.9660 C   0  0  0  0  0  0  0  0  0  0  0  0
    8.4807   15.6800   21.9380 C   0  0  2  0  0  0  0  0  0  0  0  0
    8.9511   14.7037   20.8814 C   0  0  0  0  0  0  0  0  0  0  0  0
   10.4013   15.0765   20.7138 C   0  0  0  0  0  0  0  0  0  0  0  0
   10.7953   15.3625   22.1490 C   0  0  0  0  0  0  0  0  0  0  0  0
    9.5933   15.7267   22.8535 O   0  0  0  0  0  0  0  0  0  0  0  0
  1  2  1  0
  2  3  1  0
  3  4  2  0
  3  5  1  0
  5  6  1  1
  6  7  1  0
  7  8  2  0
  7  9  1  0
  9 10  1  0
 10 11  1  0
 11 12  1  0
 12 13  1  0
 13 14  2  0
 13 15  2  0
 13 16  1  0
 16 17  1  0
 17 18  1  0
 18 19  1  0
 19 20  1  0
 20 21  1  0
 12 22  1  0
 22 23  1  0
  5 24  1  0
 24 25  1  6
 25 26  1  0
 26 27  1  0
 27 28  1  0
 23  9  1  0
 28 24  1  0
 21 16  1  0
M  END
>  <energy_score>  (2703) 
-35.485094

>  <inchikey>  (2703) 
None

>  <smiles>  (2703) 
None

>  <ref_pdb>  (2703) 
A4706a

>  <alias>  (2703) 
None

>  <HIPPO Pose ID>  (2703) 
500347

>  <name>  (2703) 
P500347

>  <HIPPO Compound ID>  (2703) 
314667

>  <ref_mols>  (2703) 
A0875a,A4706a

>  <distance_score>  (2703) 
1.947724

>  <inspiration_score>  (2703) 
None

$$$$
P500348
     RDKit          3D

 28 31  0  0  0  0  0  0  0  0999 V2000
   10.9927   13.6796   21.8442 C   0  0  0  0  0  0  0  0  0  0  0  0
   11.1633   15.1644   21.7055 C   0  0  0  0  0  0  0  0  0  0  0  0
   12.5652   15.5456   21.9389 C   0  0  0  0  0  0  0  0  0  0  0  0
   10.2797   15.8085   22.6022 O   0  0  0  0  0  0  0  0  0  0  0  0
    9.2114   16.2820   21.7962 C   0  0  2  0  0  0  0  0  0  0  0  0
    7.9037   15.4608   21.8735 C   0  0  2  0  0  0  0  0  0  0  0  0
    7.6529   14.7108   23.0849 O   0  0  0  0  0  0  0  0  0  0  0  0
    6.7032   13.7350   23.0710 C   0  0  0  0  0  0  0  0  0  0  0  0
    6.3151   13.1323   22.0731 O   0  0  0  0  0  0  0  0  0  0  0  0
    6.0984   13.3457   24.4105 C   0  0  0  0  0  0  0  0  0  0  0  0
    6.8318   12.1498   25.0506 C   0  0  0  0  0  0  0  0  0  0  0  0
    7.7047   12.5692   26.2288 C   0  0  0  0  0  0  0  0  0  0  0  0
    8.2619   13.8611   25.8462 N   0  0  0  0  0  0  0  0  0  0  0  0
    9.7273   14.3884   26.3906 S   0  0  0  0  0  0  0  0  0  0  0  0
   10.2795   15.2699   25.3920 O   0  0  0  0  0  0  0  0  0  0  0  0
    9.5041   14.8619   27.7345 O   0  0  0  0  0  0  0  0  0  0  0  0
   10.7537   13.0484   26.5322 N   0  0  0  0  0  0  0  0  0  0  0  0
   11.9738   13.5228   27.2724 C   0  0  0  0  0  0  0  0  0  0  0  0
   13.1723   12.5971   27.1534 C   0  0  0  0  0  0  0  0  0  0  0  0
   13.5241   12.2651   25.7185 C   0  0  0  0  0  0  0  0  0  0  0  0
   12.4322   12.7348   24.7750 C   0  0  0  0  0  0  0  0  0  0  0  0
   11.0549   12.3408   25.2696 C   0  0  0  0  0  0  0  0  0  0  0  0
    7.2442   14.9530   25.9570 C   0  0  0  0  0  0  0  0  0  0  0  0
    5.9247   14.5205   25.3542 C   0  0  0  0  0  0  0  0  0  0  0  0
    8.0438   14.6767   20.6277 C   0  0  0  0  0  0  0  0  0  0  0  0
    8.9656   15.1465   19.7805 C   0  0  0  0  0  0  0  0  0  0  0  0
    9.7264   16.2134   20.3753 C   0  0  2  0  0  0  0  0  0  0  0  0
   10.9911   15.6333   20.3840 O   0  0  0  0  0  0  0  0  0  0  0  0
  1  2  1  0
  2  3  1  0
  2  4  1  0
  5  4  1  1
  5  6  1  0
  6  7  1  1
  7  8  1  0
  8  9  2  0
  8 10  1  0
 10 11  1  0
 11 12  1  0
 12 13  1  0
 13 14  1  0
 14 15  2  0
 14 16  2  0
 14 17  1  0
 17 18  1  0
 18 19  1  0
 19 20  1  0
 20 21  1  0
 21 22  1  0
 13 23  1  0
 23 24  1  0
  6 25  1  0
 25 26  2  0
 26 27  1  0
 27 28  1  1
 28  2  1  0
 27  5  1  0
 24 10  1  0
 22 17  1  0
M  END
>  <energy_score>  (2704) 
-81.940336

>  <inchikey>  (2704) 
None

>  <smiles>  (2704) 
None

>  <ref_pdb>  (2704) 
A4706a

>  <alias>  (2704) 
None

>  <HIPPO Pose ID>  (2704) 
500348

>  <name>  (2704) 
P500348

>  <HIPPO Compound ID>  (2704) 
314669

>  <ref_mols>  (2704) 
A4706a,A0875a

>  <distance_score>  (2704) 
1.770054

>  <inspiration_score>  (2704) 
None

$$$$
P500349
     RDKit          3D

 28 31  0  0  0  0  0  0  0  0999 V2000
   12.3439   15.9060   21.7469 C   0  0  0  0  0  0  0  0  0  0  0  0
   11.0844   15.1282   21.6577 C   0  0  0  0  0  0  0  0  0  0  0  0
   11.3687   13.6895   21.9703 C   0  0  0  0  0  0  0  0  0  0  0  0
   10.0894   15.6910   22.5253 O   0  0  0  0  0  0  0  0  0  0  0  0
    9.0949   16.2935   21.6484 C   0  0  2  0  0  0  0  0  0  0  0  0
    7.5965   15.9378   21.9982 C   0  0  2  0  0  0  0  0  0  0  0  0
    7.2866   16.0187   23.3866 O   0  0  0  0  0  0  0  0  0  0  0  0
    6.2550   15.2610   23.8704 C   0  0  0  0  0  0  0  0  0  0  0  0
    5.1270   15.1777   23.4205 O   0  0  0  0  0  0  0  0  0  0  0  0
    6.8437   14.4788   25.0104 C   0  0  0  0  0  0  0  0  0  0  0  0
    6.4403   13.0327   25.2668 C   0  0  0  0  0  0  0  0  0  0  0  0
    7.4198   12.3645   26.2633 C   0  0  0  0  0  0  0  0  0  0  0  0
    8.5666   13.2794   26.6467 N   0  0  0  0  0  0  0  0  0  0  0  0
    9.7769   13.4688   25.4643 S   0  0  0  0  0  0  0  0  0  0  0  0
   10.0838   14.8686   25.2974 O   0  0  0  0  0  0  0  0  0  0  0  0
    9.3681   12.6426   24.3558 O   0  0  0  0  0  0  0  0  0  0  0  0
   11.1720   12.7308   26.1024 N   0  0  0  0  0  0  0  0  0  0  0  0
   11.8550   13.5188   27.1539 C   0  0  0  0  0  0  0  0  0  0  0  0
   13.1621   12.8215   27.5912 C   0  0  0  0  0  0  0  0  0  0  0  0
   14.0548   12.2789   26.4788 C   0  0  0  0  0  0  0  0  0  0  0  0
   13.2465   11.6153   25.3920 C   0  0  0  0  0  0  0  0  0  0  0  0
   12.1270   12.5335   24.9828 C   0  0  0  0  0  0  0  0  0  0  0  0
    8.0270   14.5431   27.2384 C   0  0  0  0  0  0  0  0  0  0  0  0
    7.0439   15.2538   26.2979 C   0  0  0  0  0  0  0  0  0  0  0  0
    7.5627   14.5312   21.4941 C   0  0  0  0  0  0  0  0  0  0  0  0
    8.5783   14.3556   20.6501 C   0  0  0  0  0  0  0  0  0  0  0  0
    9.3571   15.5740   20.3554 C   0  0  2  0  0  0  0  0  0  0  0  0
   10.7057   15.2278   20.3007 O   0  0  0  0  0  0  0  0  0  0  0  0
  1  2  1  0
  2  3  1  0
  2  4  1  0
  5  4  1  1
  5  6  1  0
  6  7  1  1
  7  8  1  0
  8  9  2  0
  8 10  1  0
 10 11  1  0
 11 12  1  0
 12 13  1  0
 13 14  1  0
 14 15  2  0
 14 16  2  0
 14 17  1  0
 17 18  1  0
 18 19  1  0
 19 20  1  0
 20 21  1  0
 21 22  1  0
 13 23  1  0
 23 24  1  0
  6 25  1  0
 25 26  2  0
 26 27  1  0
 27 28  1  1
 28  2  1  0
 27  5  1  0
 24 10  1  0
 22 17  1  0
M  END
>  <energy_score>  (2705) 
-11.241144

>  <inchikey>  (2705) 
None

>  <smiles>  (2705) 
None

>  <ref_pdb>  (2705) 
A4706a

>  <alias>  (2705) 
None

>  <HIPPO Pose ID>  (2705) 
500349

>  <name>  (2705) 
P500349

>  <HIPPO Compound ID>  (2705) 
314669

>  <ref_mols>  (2705) 
A0875a,A4706a

>  <distance_score>  (2705) 
1.985815

>  <inspiration_score>  (2705) 
None

$$$$
P500350
     RDKit          3D

 28 31  0  0  0  0  0  0  0  0999 V2000
   11.1792   13.7116   21.8919 C   0  0  0  0  0  0  0  0  0  0  0  0
   11.2799   15.1820   21.5906 C   0  0  0  0  0  0  0  0  0  0  0  0
   12.6481   15.6803   21.8005 C   0  0  0  0  0  0  0  0  0  0  0  0
   10.3717   15.8827   22.4125 O   0  0  0  0  0  0  0  0  0  0  0  0
    9.4068   16.4532   21.5332 C   0  0  1  0  0  0  0  0  0  0  0  0
    9.9163   16.1950   20.1406 C   0  0  2  0  0  0  0  0  0  0  0  0
    9.0783   15.1410   19.6340 C   0  0  0  0  0  0  0  0  0  0  0  0
    8.1438   14.7920   20.5250 C   0  0  0  0  0  0  0  0  0  0  0  0
    8.0344   15.7699   21.6345 C   0  0  1  0  0  0  0  0  0  0  0  0
    7.8145   15.2016   22.9135 O   0  0  0  0  0  0  0  0  0  0  0  0
    7.2534   13.9778   23.0768 C   0  0  0  0  0  0  0  0  0  0  0  0
    6.4828   13.3654   22.3552 O   0  0  0  0  0  0  0  0  0  0  0  0
    7.8612   13.4473   24.3201 C   0  0  0  0  0  0  0  0  0  0  0  0
    7.8324   11.9545   24.5523 C   0  0  0  0  0  0  0  0  0  0  0  0
    8.8732   11.6202   25.6207 C   0  0  0  0  0  0  0  0  0  0  0  0
    9.1377   12.7635   26.5241 N   0  0  0  0  0  0  0  0  0  0  0  0
   10.5171   13.7523   26.4321 S   0  0  0  0  0  0  0  0  0  0  0  0
   10.5539   14.4707   25.1849 O   0  0  0  0  0  0  0  0  0  0  0  0
   10.5164   14.4647   27.6841 O   0  0  0  0  0  0  0  0  0  0  0  0
   11.8294   12.6470   26.4467 N   0  0  0  0  0  0  0  0  0  0  0  0
   12.9309   12.9641   27.4144 C   0  0  0  0  0  0  0  0  0  0  0  0
   14.3443   12.7307   26.8764 C   0  0  0  0  0  0  0  0  0  0  0  0
   14.4900   11.4013   26.2063 C   0  0  0  0  0  0  0  0  0  0  0  0
   13.3846   11.2168   25.1971 C   0  0  0  0  0  0  0  0  0  0  0  0
   12.3528   12.3398   25.1117 C   0  0  0  0  0  0  0  0  0  0  0  0
    7.8758   13.5304   26.8088 C   0  0  0  0  0  0  0  0  0  0  0  0
    7.3992   14.2248   25.5472 C   0  0  0  0  0  0  0  0  0  0  0  0
   11.1184   15.4896   20.2170 O   0  0  0  0  0  0  0  0  0  0  0  0
  1  2  1  0
  2  3  1  0
  2  4  1  0
  5  4  1  1
  5  6  1  0
  6  7  1  0
  7  8  2  0
  8  9  1  0
  9 10  1  1
 10 11  1  0
 11 12  2  0
 11 13  1  0
 13 14  1  0
 14 15  1  0
 15 16  1  0
 16 17  1  0
 17 18  2  0
 17 19  2  0
 17 20  1  0
 20 21  1  0
 21 22  1  0
 22 23  1  0
 23 24  1  0
 24 25  1  0
 16 26  1  0
 26 27  1  0
  6 28  1  1
 28  2  1  0
  9  5  1  0
 27 13  1  0
 25 20  1  0
M  END
>  <energy_score>  (2706) 
-50.621719

>  <inchikey>  (2706) 
None

>  <smiles>  (2706) 
None

>  <ref_pdb>  (2706) 
A4706a

>  <alias>  (2706) 
None

>  <HIPPO Pose ID>  (2706) 
500350

>  <name>  (2706) 
P500350

>  <HIPPO Compound ID>  (2706) 
314669

>  <ref_mols>  (2706) 
A4706a,A0875a

>  <distance_score>  (2706) 
1.594802

>  <inspiration_score>  (2706) 
None

$$$$
P500351
     RDKit          3D

 28 31  0  0  0  0  0  0  0  0999 V2000
   12.2072   14.8551   22.9461 C   0  0  0  0  0  0  0  0  0  0  0  0
   11.2809   14.8695   21.7855 C   0  0  0  0  0  0  0  0  0  0  0  0
   11.8453   14.1841   20.5690 C   0  0  0  0  0  0  0  0  0  0  0  0
   10.0926   14.2441   22.2789 O   0  0  0  0  0  0  0  0  0  0  0  0
    9.1621   15.3458   22.3890 C   0  0  2  0  0  0  0  0  0  0  0  0
    7.7683   14.9635   21.9409 C   0  0  2  0  0  0  0  0  0  0  0  0
    7.2658   13.7023   22.3684 O   0  0  0  0  0  0  0  0  0  0  0  0
    6.1755   13.8639   23.1717 C   0  0  0  0  0  0  0  0  0  0  0  0
    5.0385   14.0262   22.7727 O   0  0  0  0  0  0  0  0  0  0  0  0
    6.6185   13.7582   24.5908 C   0  0  0  0  0  0  0  0  0  0  0  0
    6.4842   12.3717   25.1945 C   0  0  0  0  0  0  0  0  0  0  0  0
    7.2480   12.3050   26.5172 C   0  0  0  0  0  0  0  0  0  0  0  0
    7.6568   13.6499   26.9796 N   0  0  0  0  0  0  0  0  0  0  0  0
    9.1646   14.3598   26.7264 S   0  0  0  0  0  0  0  0  0  0  0  0
    9.5345   14.9371   27.9918 O   0  0  0  0  0  0  0  0  0  0  0  0
    9.1413   15.2008   25.5541 O   0  0  0  0  0  0  0  0  0  0  0  0
   10.2508   13.1091   26.4058 N   0  0  0  0  0  0  0  0  0  0  0  0
   11.6574   13.5803   26.6135 C   0  0  0  0  0  0  0  0  0  0  0  0
   12.6554   12.4416   26.4721 C   0  0  0  0  0  0  0  0  0  0  0  0
   12.3738   11.5543   25.2732 C   0  0  0  0  0  0  0  0  0  0  0  0
   10.8823   11.2665   25.0200 C   0  0  0  0  0  0  0  0  0  0  0  0
   10.1267   12.5582   25.0418 C   0  0  0  0  0  0  0  0  0  0  0  0
    6.5154   14.6054   26.9565 C   0  0  0  0  0  0  0  0  0  0  0  0
    6.0557   14.8330   25.5123 C   0  0  0  0  0  0  0  0  0  0  0  0
    8.1169   14.8286   20.5204 C   0  0  0  0  0  0  0  0  0  0  0  0
    9.1407   15.5973   20.1198 C   0  0  0  0  0  0  0  0  0  0  0  0
    9.6532   16.3054   21.3193 C   0  0  2  0  0  0  0  0  0  0  0  0
   11.0480   16.2233   21.4205 O   0  0  0  0  0  0  0  0  0  0  0  0
  1  2  1  0
  2  3  1  0
  2  4  1  0
  5  4  1  6
  5  6  1  0
  6  7  1  1
  7  8  1  0
  8  9  2  0
  8 10  1  0
 10 11  1  0
 11 12  1  0
 12 13  1  0
 13 14  1  0
 14 15  2  0
 14 16  2  0
 14 17  1  0
 17 18  1  0
 18 19  1  0
 19 20  1  0
 20 21  1  0
 21 22  1  0
 13 23  1  0
 23 24  1  0
  6 25  1  0
 25 26  2  0
 26 27  1  0
 27 28  1  6
 28  2  1  0
 27  5  1  0
 24 10  1  0
 22 17  1  0
M  END
>  <energy_score>  (2707) 
-36.013803

>  <inchikey>  (2707) 
None

>  <smiles>  (2707) 
None

>  <ref_pdb>  (2707) 
A4706a

>  <alias>  (2707) 
None

>  <HIPPO Pose ID>  (2707) 
500351

>  <name>  (2707) 
P500351

>  <HIPPO Compound ID>  (2707) 
314669

>  <ref_mols>  (2707) 
A4706a,A0875a

>  <distance_score>  (2707) 
1.772555

>  <inspiration_score>  (2707) 
None

$$$$
P500352
     RDKit          3D

 28 31  0  0  0  0  0  0  0  0999 V2000
   11.4903   13.4695   21.6556 C   0  0  0  0  0  0  0  0  0  0  0  0
   11.2797   14.9318   21.8122 C   0  0  0  0  0  0  0  0  0  0  0  0
   12.4110   15.5580   22.5089 C   0  0  0  0  0  0  0  0  0  0  0  0
   10.1382   15.1243   22.6273 O   0  0  0  0  0  0  0  0  0  0  0  0
    9.3378   16.0488   21.9169 C   0  0  2  0  0  0  0  0  0  0  0  0
    7.8892   15.6373   21.7978 C   0  0  2  0  0  0  0  0  0  0  0  0
    7.1857   15.2080   22.9689 O   0  0  0  0  0  0  0  0  0  0  0  0
    6.9718   13.9228   23.3146 C   0  0  0  0  0  0  0  0  0  0  0  0
    7.4106   12.9365   22.7320 O   0  0  0  0  0  0  0  0  0  0  0  0
    5.9968   13.8002   24.4935 C   0  0  0  0  0  0  0  0  0  0  0  0
    6.1737   12.4605   25.2289 C   0  0  0  0  0  0  0  0  0  0  0  0
    7.2220   12.4299   26.3332 C   0  0  0  0  0  0  0  0  0  0  0  0
    7.6439   13.7669   26.7542 N   0  0  0  0  0  0  0  0  0  0  0  0
    9.0860   14.5023   26.3250 S   0  0  0  0  0  0  0  0  0  0  0  0
    9.4769   15.2975   27.4616 O   0  0  0  0  0  0  0  0  0  0  0  0
    8.9454   15.1392   25.0446 O   0  0  0  0  0  0  0  0  0  0  0  0
   10.1987   13.2566   26.1610 N   0  0  0  0  0  0  0  0  0  0  0  0
   10.1134   12.5939   24.8414 C   0  0  0  0  0  0  0  0  0  0  0  0
   10.8447   11.2937   24.9845 C   0  0  0  0  0  0  0  0  0  0  0  0
   12.3330   11.6010   25.2482 C   0  0  0  0  0  0  0  0  0  0  0  0
   12.5677   12.5564   26.4032 C   0  0  0  0  0  0  0  0  0  0  0  0
   11.5958   13.7282   26.3853 C   0  0  0  0  0  0  0  0  0  0  0  0
    6.4959   14.6870   26.8580 C   0  0  0  0  0  0  0  0  0  0  0  0
    5.9409   14.9909   25.4687 C   0  0  0  0  0  0  0  0  0  0  0  0
    8.0412   14.7023   20.6535 C   0  0  0  0  0  0  0  0  0  0  0  0
    9.0934   15.0397   19.8847 C   0  0  0  0  0  0  0  0  0  0  0  0
    9.8803   16.0849   20.5167 C   0  0  2  0  0  0  0  0  0  0  0  0
   11.1911   15.6033   20.5687 O   0  0  0  0  0  0  0  0  0  0  0  0
  1  2  1  0
  2  3  1  0
  2  4  1  0
  5  4  1  1
  5  6  1  0
  6  7  1  1
  7  8  1  0
  8  9  2  0
  8 10  1  0
 10 11  1  0
 11 12  1  0
 12 13  1  0
 13 14  1  0
 14 15  2  0
 14 16  2  0
 14 17  1  0
 17 18  1  0
 18 19  1  0
 19 20  1  0
 20 21  1  0
 21 22  1  0
 13 23  1  0
 23 24  1  0
  6 25  1  0
 25 26  2  0
 26 27  1  0
 27 28  1  1
 28  2  1  0
 27  5  1  0
 24 10  1  0
 22 17  1  0
M  END
>  <energy_score>  (2708) 
-20.999749

>  <inchikey>  (2708) 
None

>  <smiles>  (2708) 
None

>  <ref_pdb>  (2708) 
A4706a

>  <alias>  (2708) 
None

>  <HIPPO Pose ID>  (2708) 
500352

>  <name>  (2708) 
P500352

>  <HIPPO Compound ID>  (2708) 
314669

>  <ref_mols>  (2708) 
A0875a,A4706a

>  <distance_score>  (2708) 
1.627827

>  <inspiration_score>  (2708) 
None

$$$$
P500353
     RDKit          3D

 28 31  0  0  0  0  0  0  0  0999 V2000
   12.3580   15.4881   22.4039 C   0  0  0  0  0  0  0  0  0  0  0  0
   11.3074   15.0312   21.4614 C   0  0  0  0  0  0  0  0  0  0  0  0
   11.8308   14.0889   20.4279 C   0  0  0  0  0  0  0  0  0  0  0  0
   10.2453   14.5112   22.2679 O   0  0  0  0  0  0  0  0  0  0  0  0
    9.3203   15.6356   22.3293 C   0  0  1  0  0  0  0  0  0  0  0  0
    9.5132   16.2495   20.9765 C   0  0  2  0  0  0  0  0  0  0  0  0
    8.7701   15.2293   20.1998 C   0  0  0  0  0  0  0  0  0  0  0  0
    7.8150   14.6771   20.9761 C   0  0  0  0  0  0  0  0  0  0  0  0
    7.8256   15.3114   22.3229 C   0  0  1  0  0  0  0  0  0  0  0  0
    7.3605   14.6566   23.5039 O   0  0  0  0  0  0  0  0  0  0  0  0
    6.4389   13.6720   23.4749 C   0  0  0  0  0  0  0  0  0  0  0  0
    6.0523   13.0828   22.4727 O   0  0  0  0  0  0  0  0  0  0  0  0
    5.9177   13.3123   24.8673 C   0  0  0  0  0  0  0  0  0  0  0  0
    6.5025   11.9903   25.3739 C   0  0  0  0  0  0  0  0  0  0  0  0
    7.5210   12.1353   26.4974 C   0  0  0  0  0  0  0  0  0  0  0  0
    8.2695   13.4121   26.4345 N   0  0  0  0  0  0  0  0  0  0  0  0
    9.4492   13.5161   25.2346 S   0  0  0  0  0  0  0  0  0  0  0  0
    8.9926   12.6771   24.1545 O   0  0  0  0  0  0  0  0  0  0  0  0
    9.8243   14.9000   25.0673 O   0  0  0  0  0  0  0  0  0  0  0  0
   10.7792   12.7200   25.9403 N   0  0  0  0  0  0  0  0  0  0  0  0
   11.6340   13.5872   26.7843 C   0  0  0  0  0  0  0  0  0  0  0  0
   13.1101   13.2162   26.6813 C   0  0  0  0  0  0  0  0  0  0  0  0
   13.3732   11.7616   26.6432 C   0  0  0  0  0  0  0  0  0  0  0  0
   12.7359   11.2315   25.3869 C   0  0  0  0  0  0  0  0  0  0  0  0
   11.5121   12.0002   24.8863 C   0  0  0  0  0  0  0  0  0  0  0  0
    7.3800   14.5913   26.5768 C   0  0  0  0  0  0  0  0  0  0  0  0
    6.0168   14.4217   25.9120 C   0  0  0  0  0  0  0  0  0  0  0  0
   10.8772   16.1644   20.7314 O   0  0  0  0  0  0  0  0  0  0  0  0
  1  2  1  0
  2  3  1  0
  2  4  1  0
  5  4  1  6
  5  6  1  0
  6  7  1  0
  7  8  2  0
  8  9  1  0
  9 10  1  1
 10 11  1  0
 11 12  2  0
 11 13  1  0
 13 14  1  0
 14 15  1  0
 15 16  1  0
 16 17  1  0
 17 18  2  0
 17 19  2  0
 17 20  1  0
 20 21  1  0
 21 22  1  0
 22 23  1  0
 23 24  1  0
 24 25  1  0
 16 26  1  0
 26 27  1  0
  6 28  1  6
 28  2  1  0
  9  5  1  0
 27 13  1  0
 25 20  1  0
M  END
>  <energy_score>  (2709) 
-19.611973

>  <inchikey>  (2709) 
None

>  <smiles>  (2709) 
None

>  <ref_pdb>  (2709) 
A4706a

>  <alias>  (2709) 
None

>  <HIPPO Pose ID>  (2709) 
500353

>  <name>  (2709) 
P500353

>  <HIPPO Compound ID>  (2709) 
314669

>  <ref_mols>  (2709) 
A4706a,A0875a

>  <distance_score>  (2709) 
1.867426

>  <inspiration_score>  (2709) 
None

$$$$
P500354
     RDKit          3D

 28 30  0  0  0  0  0  0  0  0999 V2000
    7.9385   19.3337   19.3342 C   0  0  0  0  0  0  0  0  0  0  0  0
    8.4539   18.0513   19.6890 O   0  0  0  0  0  0  0  0  0  0  0  0
    8.4778   17.8332   21.0330 C   0  0  0  0  0  0  0  0  0  0  0  0
    8.4306   18.7672   21.8110 O   0  0  0  0  0  0  0  0  0  0  0  0
    8.4767   16.3230   21.3925 C   0  0  2  0  0  0  0  0  0  0  0  0
    7.9997   15.9384   22.6990 O   0  0  0  0  0  0  0  0  0  0  0  0
    7.2800   14.7919   22.7699 C   0  0  0  0  0  0  0  0  0  0  0  0
    7.3725   13.8672   21.9615 O   0  0  0  0  0  0  0  0  0  0  0  0
    6.2261   14.7631   23.8977 C   0  0  0  0  0  0  0  0  0  0  0  0
    5.8647   13.3080   24.2278 C   0  0  0  0  0  0  0  0  0  0  0  0
    7.0295   12.5795   24.8910 C   0  0  0  0  0  0  0  0  0  0  0  0
    7.7151   13.4302   25.8879 N   0  0  0  0  0  0  0  0  0  0  0  0
    9.3257   13.8734   25.6941 S   0  0  0  0  0  0  0  0  0  0  0  0
    9.3547   15.1557   25.0397 O   0  0  0  0  0  0  0  0  0  0  0  0
    9.9725   13.7055   26.9718 O   0  0  0  0  0  0  0  0  0  0  0  0
    9.9292   12.7522   24.6119 N   0  0  0  0  0  0  0  0  0  0  0  0
   10.8749   13.3107   23.6366 C   0  0  0  0  0  0  0  0  0  0  0  0
   12.1501   13.6987   24.3566 C   0  0  0  0  0  0  0  0  0  0  0  0
   12.8050   12.4858   24.9721 C   0  0  0  0  0  0  0  0  0  0  0  0
   11.8124   11.6108   25.6861 C   0  0  0  0  0  0  0  0  0  0  0  0
   10.3968   11.4754   25.1186 C   0  0  0  0  0  0  0  0  0  0  0  0
    6.8747   14.5532   26.3767 C   0  0  0  0  0  0  0  0  0  0  0  0
    6.5047   15.4952   25.2176 C   0  0  0  0  0  0  0  0  0  0  0  0
    9.8121   15.7656   21.0446 C   0  0  0  0  0  0  0  0  0  0  0  0
   10.2635   15.1500   19.8924 C   0  0  0  0  0  0  0  0  0  0  0  0
   11.6295   14.8862   20.0849 C   0  0  0  0  0  0  0  0  0  0  0  0
   11.9485   15.4392   21.3023 C   0  0  0  0  0  0  0  0  0  0  0  0
   10.8542   15.9724   21.8952 O   0  0  0  0  0  0  0  0  0  0  0  0
  1  2  1  0
  2  3  1  0
  3  4  2  0
  3  5  1  0
  5  6  1  1
  6  7  1  0
  7  8  2  0
  7  9  1  0
  9 10  1  0
 10 11  1  0
 11 12  1  0
 12 13  1  0
 13 14  2  0
 13 15  2  0
 13 16  1  0
 16 17  1  0
 17 18  1  0
 18 19  1  0
 19 20  1  0
 20 21  1  0
 12 22  1  0
 22 23  1  0
  5 24  1  0
 24 25  2  0
 25 26  1  0
 26 27  2  0
 27 28  1  0
 23  9  1  0
 28 24  1  0
 21 16  1  0
M  END
>  <energy_score>  (2710) 
-50.631901

>  <inchikey>  (2710) 
None

>  <smiles>  (2710) 
None

>  <ref_pdb>  (2710) 
A4706a

>  <alias>  (2710) 
None

>  <HIPPO Pose ID>  (2710) 
500354

>  <name>  (2710) 
P500354

>  <HIPPO Compound ID>  (2710) 
314670

>  <ref_mols>  (2710) 
A0875a,A4706a

>  <distance_score>  (2710) 
1.766179

>  <inspiration_score>  (2710) 
None

$$$$
P500355
     RDKit          3D

 28 30  0  0  0  0  0  0  0  0999 V2000
    4.3830   13.7151   20.7838 C   0  0  0  0  0  0  0  0  0  0  0  0
    5.7065   14.1545   21.1282 O   0  0  0  0  0  0  0  0  0  0  0  0
    5.7217   15.2633   21.9109 C   0  0  0  0  0  0  0  0  0  0  0  0
    4.7003   15.9173   22.1297 O   0  0  0  0  0  0  0  0  0  0  0  0
    7.0486   15.5861   22.5912 C   0  0  1  0  0  0  0  0  0  0  0  0
    6.9780   15.0361   23.9221 O   0  0  0  0  0  0  0  0  0  0  0  0
    6.5728   13.7487   24.0628 C   0  0  0  0  0  0  0  0  0  0  0  0
    6.5565   12.8933   23.1855 O   0  0  0  0  0  0  0  0  0  0  0  0
    6.0184   13.4939   25.4526 C   0  0  0  0  0  0  0  0  0  0  0  0
    6.3690   12.0710   25.8979 C   0  0  0  0  0  0  0  0  0  0  0  0
    7.8710   11.8640   26.0478 C   0  0  0  0  0  0  0  0  0  0  0  0
    8.5428   13.1078   26.4950 N   0  0  0  0  0  0  0  0  0  0  0  0
    9.6709   13.7902   25.4444 S   0  0  0  0  0  0  0  0  0  0  0  0
    9.8660   15.1673   25.8173 O   0  0  0  0  0  0  0  0  0  0  0  0
    9.3360   13.3686   24.1122 O   0  0  0  0  0  0  0  0  0  0  0  0
   11.0703   12.9229   25.9045 N   0  0  0  0  0  0  0  0  0  0  0  0
   11.9700   12.6912   24.7498 C   0  0  0  0  0  0  0  0  0  0  0  0
   13.0428   11.7078   25.2009 C   0  0  0  0  0  0  0  0  0  0  0  0
   13.9198   12.3267   26.2582 C   0  0  0  0  0  0  0  0  0  0  0  0
   13.0715   12.8180   27.4142 C   0  0  0  0  0  0  0  0  0  0  0  0
   11.7939   13.5739   27.0253 C   0  0  0  0  0  0  0  0  0  0  0  0
    7.6902   14.0292   27.2815 C   0  0  0  0  0  0  0  0  0  0  0  0
    6.4826   14.5110   26.4996 C   0  0  0  0  0  0  0  0  0  0  0  0
    8.3813   15.3095   21.9501 C   0  0  0  0  0  0  0  0  0  0  0  0
    8.8097   14.8928   20.7127 C   0  0  0  0  0  0  0  0  0  0  0  0
   10.2210   14.9306   20.6758 C   0  0  0  0  0  0  0  0  0  0  0  0
   10.5982   15.3903   21.9127 C   0  0  0  0  0  0  0  0  0  0  0  0
    9.5037   15.6435   22.6762 O   0  0  0  0  0  0  0  0  0  0  0  0
  1  2  1  0
  2  3  1  0
  3  4  2  0
  3  5  1  0
  5  6  1  1
  6  7  1  0
  7  8  2  0
  7  9  1  0
  9 10  1  0
 10 11  1  0
 11 12  1  0
 12 13  1  0
 13 14  2  0
 13 15  2  0
 13 16  1  0
 16 17  1  0
 17 18  1  0
 18 19  1  0
 19 20  1  0
 20 21  1  0
 12 22  1  0
 22 23  1  0
  5 24  1  0
 24 25  2  0
 25 26  1  0
 26 27  2  0
 27 28  1  0
 23  9  1  0
 28 24  1  0
 21 16  1  0
M  END
>  <energy_score>  (2711) 
-57.810896

>  <inchikey>  (2711) 
None

>  <smiles>  (2711) 
None

>  <ref_pdb>  (2711) 
A4706a

>  <alias>  (2711) 
None

>  <HIPPO Pose ID>  (2711) 
500355

>  <name>  (2711) 
P500355

>  <HIPPO Compound ID>  (2711) 
314670

>  <ref_mols>  (2711) 
A4706a,A0875a

>  <distance_score>  (2711) 
1.861205

>  <inspiration_score>  (2711) 
None

$$$$
P500356
     RDKit          3D

 28 31  0  0  0  0  0  0  0  0999 V2000
    5.9849   13.0140   22.2238 O   0  0  0  0  0  0  0  0  0  0  0  0
    6.9259   13.6331   22.7036 C   0  0  0  0  0  0  0  0  0  0  0  0
    7.6616   14.4691   21.9461 O   0  0  0  0  0  0  0  0  0  0  0  0
    8.4445   15.5697   22.4961 C   0  0  2  0  0  0  0  0  0  0  0  0
    8.2799   16.7444   21.5443 C   0  0  0  0  0  0  0  0  0  0  0  0
    8.8581   16.5644   20.2825 O   0  0  0  0  0  0  0  0  0  0  0  0
    9.8629   15.6889   20.1964 C   0  0  0  0  0  0  0  0  0  0  0  0
   10.1990   15.3634   18.9125 C   0  0  0  0  0  0  0  0  0  0  0  0
   11.3750   14.7218   18.6734 C   0  0  0  0  0  0  0  0  0  0  0  0
   12.1397   14.3558   19.7578 C   0  0  0  0  0  0  0  0  0  0  0  0
   11.7208   14.5318   21.0633 C   0  0  0  0  0  0  0  0  0  0  0  0
   10.5312   15.1678   21.2778 C   0  0  0  0  0  0  0  0  0  0  0  0
    9.9281   15.2261   22.6220 C   0  0  0  0  0  0  0  0  0  0  0  0
    7.3713   13.4099   24.1155 C   0  0  0  0  0  0  0  0  0  0  0  0
    7.4624   11.9424   24.5237 C   0  0  0  0  0  0  0  0  0  0  0  0
    8.1392   11.7866   25.8782 C   0  0  0  0  0  0  0  0  0  0  0  0
    8.2688   13.0810   26.5578 N   0  0  0  0  0  0  0  0  0  0  0  0
    9.6304   14.0550   26.5326 S   0  0  0  0  0  0  0  0  0  0  0  0
    9.6682   14.8898   25.3581 O   0  0  0  0  0  0  0  0  0  0  0  0
    9.6333   14.7009   27.8215 O   0  0  0  0  0  0  0  0  0  0  0  0
   10.9796   13.0285   26.4720 N   0  0  0  0  0  0  0  0  0  0  0  0
   11.3905   12.5065   25.1493 C   0  0  0  0  0  0  0  0  0  0  0  0
   12.4803   11.4395   25.3707 C   0  0  0  0  0  0  0  0  0  0  0  0
   13.4009   11.6701   26.5519 C   0  0  0  0  0  0  0  0  0  0  0  0
   13.5033   13.1290   26.7308 C   0  0  0  0  0  0  0  0  0  0  0  0
   12.1393   13.7081   27.1403 C   0  0  0  0  0  0  0  0  0  0  0  0
    6.9740   13.8176   26.5775 C   0  0  0  0  0  0  0  0  0  0  0  0
    6.5699   14.1991   25.1511 C   0  0  0  0  0  0  0  0  0  0  0  0
  1  2  2  0
  2  3  1  0
  4  3  1  6
  4  5  1  0
  5  6  1  0
  6  7  1  0
  7  8  2  0
  8  9  1  0
  9 10  2  0
 10 11  1  0
 11 12  2  0
 12 13  1  0
  2 14  1  0
 14 15  1  0
 15 16  1  0
 16 17  1  0
 17 18  1  0
 18 19  2  0
 18 20  2  0
 18 21  1  0
 21 22  1  0
 22 23  1  0
 23 24  1  0
 24 25  1  0
 25 26  1  0
 17 27  1  0
 27 28  1  0
 13  4  1  0
 28 14  1  0
 12  7  1  0
 26 21  1  0
M  END
>  <energy_score>  (2712) 
-17.245499

>  <inchikey>  (2712) 
None

>  <smiles>  (2712) 
None

>  <ref_pdb>  (2712) 
A4706a

>  <alias>  (2712) 
None

>  <HIPPO Pose ID>  (2712) 
500356

>  <name>  (2712) 
P500356

>  <HIPPO Compound ID>  (2712) 
314671

>  <ref_mols>  (2712) 
A0875a,A4706a

>  <distance_score>  (2712) 
1.979928

>  <inspiration_score>  (2712) 
None

$$$$
P500357
     RDKit          3D

 28 30  0  0  0  0  0  0  0  0999 V2000
    7.9155   19.3474   19.3559 C   0  0  0  0  0  0  0  0  0  0  0  0
    8.3650   18.0522   19.7433 O   0  0  0  0  0  0  0  0  0  0  0  0
    8.3569   17.8505   21.0899 C   0  0  0  0  0  0  0  0  0  0  0  0
    8.3927   18.7959   21.8537 O   0  0  0  0  0  0  0  0  0  0  0  0
    8.2818   16.3319   21.4741 C   0  0  2  0  0  0  0  0  0  0  0  0
    7.6924   15.9262   22.7369 O   0  0  0  0  0  0  0  0  0  0  0  0
    6.9248   14.8008   22.7105 C   0  0  0  0  0  0  0  0  0  0  0  0
    6.6879   14.1351   21.7006 O   0  0  0  0  0  0  0  0  0  0  0  0
    6.3418   14.3456   24.0654 C   0  0  0  0  0  0  0  0  0  0  0  0
    6.7086   12.8432   24.2465 C   0  0  0  0  0  0  0  0  0  0  0  0
    7.2960   12.3621   25.5638 C   0  0  0  0  0  0  0  0  0  0  0  0
    7.9888   13.4491   26.2622 N   0  0  0  0  0  0  0  0  0  0  0  0
    9.4041   14.0750   25.5840 S   0  0  0  0  0  0  0  0  0  0  0  0
    9.6559   15.3036   26.3022 O   0  0  0  0  0  0  0  0  0  0  0  0
    9.3016   14.0614   24.1511 O   0  0  0  0  0  0  0  0  0  0  0  0
   10.6421   13.0183   25.9902 N   0  0  0  0  0  0  0  0  0  0  0  0
   11.9467   13.7432   26.0300 C   0  0  0  0  0  0  0  0  0  0  0  0
   12.8692   13.2925   24.9078 C   0  0  0  0  0  0  0  0  0  0  0  0
   13.3168   11.8777   25.1451 C   0  0  0  0  0  0  0  0  0  0  0  0
   12.1045   11.1158   25.5722 C   0  0  0  0  0  0  0  0  0  0  0  0
   10.7420   11.7422   25.2356 C   0  0  0  0  0  0  0  0  0  0  0  0
    6.9740   14.5101   26.5542 C   0  0  0  0  0  0  0  0  0  0  0  0
    6.6017   15.2550   25.2746 C   0  0  0  0  0  0  0  0  0  0  0  0
    9.6405   15.7456   21.2224 C   0  0  0  0  0  0  0  0  0  0  0  0
   10.0911   15.2693   19.9427 C   0  0  0  0  0  0  0  0  0  0  0  0
   11.3900   14.8309   19.9782 C   0  0  0  0  0  0  0  0  0  0  0  0
   12.0531   15.0193   21.5349 S   0  0  0  0  0  0  0  0  0  0  0  0
   10.6464   15.6878   22.1555 C   0  0  0  0  0  0  0  0  0  0  0  0
  1  2  1  0
  2  3  1  0
  3  4  2  0
  3  5  1  0
  5  6  1  1
  6  7  1  0
  7  8  2  0
  7  9  1  0
  9 10  1  0
 10 11  1  0
 11 12  1  0
 12 13  1  0
 13 14  2  0
 13 15  2  0
 13 16  1  0
 16 17  1  0
 17 18  1  0
 18 19  1  0
 19 20  1  0
 20 21  1  0
 12 22  1  0
 22 23  1  0
  5 24  1  0
 24 25  1  0
 25 26  2  0
 26 27  1  0
 27 28  1  0
 23  9  1  0
 28 24  2  0
 21 16  1  0
M  END
>  <energy_score>  (2713) 
-37.969832

>  <inchikey>  (2713) 
None

>  <smiles>  (2713) 
None

>  <ref_pdb>  (2713) 
A4706a

>  <alias>  (2713) 
None

>  <HIPPO Pose ID>  (2713) 
500357

>  <name>  (2713) 
P500357

>  <HIPPO Compound ID>  (2713) 
314672

>  <ref_mols>  (2713) 
A4706a,A0875a

>  <distance_score>  (2713) 
1.392567

>  <inspiration_score>  (2713) 
None

$$$$
P500358
     RDKit          3D

 28 30  0  0  0  0  0  0  0  0999 V2000
    8.3226   18.5590   20.2946 C   0  0  0  0  0  0  0  0  0  0  0  0
    8.8796   17.2852   20.6020 O   0  0  0  0  0  0  0  0  0  0  0  0
    8.1344   16.4750   21.3966 C   0  0  0  0  0  0  0  0  0  0  0  0
    7.1292   16.7850   22.0235 O   0  0  0  0  0  0  0  0  0  0  0  0
    8.6508   15.0491   21.3881 C   0  0  2  0  0  0  0  0  0  0  0  0
    8.1876   14.6366   22.7211 O   0  0  0  0  0  0  0  0  0  0  0  0
    7.0120   13.9529   22.8298 C   0  0  0  0  0  0  0  0  0  0  0  0
    6.5347   13.2873   21.9135 O   0  0  0  0  0  0  0  0  0  0  0  0
    6.3210   14.0071   24.2223 C   0  0  0  0  0  0  0  0  0  0  0  0
    6.2808   12.6267   24.9289 C   0  0  0  0  0  0  0  0  0  0  0  0
    7.2481   12.3706   26.0960 C   0  0  0  0  0  0  0  0  0  0  0  0
    8.1883   13.4992   26.2885 N   0  0  0  0  0  0  0  0  0  0  0  0
    9.4222   13.5854   25.1341 S   0  0  0  0  0  0  0  0  0  0  0  0
    9.7511   14.9779   24.9617 O   0  0  0  0  0  0  0  0  0  0  0  0
    8.9949   12.7037   24.0734 O   0  0  0  0  0  0  0  0  0  0  0  0
   10.7059   12.8003   25.8910 N   0  0  0  0  0  0  0  0  0  0  0  0
   11.9349   13.6273   26.0487 C   0  0  0  0  0  0  0  0  0  0  0  0
   12.9795   13.2283   25.0038 C   0  0  0  0  0  0  0  0  0  0  0  0
   13.5283   11.8528   25.2467 C   0  0  0  0  0  0  0  0  0  0  0  0
   12.3638   11.0155   25.6430 C   0  0  0  0  0  0  0  0  0  0  0  0
   10.9818   11.4941   25.2367 C   0  0  0  0  0  0  0  0  0  0  0  0
    7.4046   14.7502   26.4510 C   0  0  0  0  0  0  0  0  0  0  0  0
    6.7164   15.1630   25.1502 C   0  0  0  0  0  0  0  0  0  0  0  0
   10.1684   14.9369   21.1491 C   0  0  0  0  0  0  0  0  0  0  0  0
   10.5819   15.0781   19.6748 C   0  0  0  0  0  0  0  0  0  0  0  0
   11.0134   15.7946   22.0977 C   0  0  0  0  0  0  0  0  0  0  0  0
   11.5283   14.6365   22.7717 O   0  0  0  0  0  0  0  0  0  0  0  0
   10.9517   13.7781   21.7699 C   0  0  0  0  0  0  0  0  0  0  0  0
  1  2  1  0
  2  3  1  0
  3  4  2  0
  3  5  1  0
  5  6  1  1
  6  7  1  0
  7  8  2  0
  7  9  1  0
  9 10  1  0
 10 11  1  0
 11 12  1  0
 12 13  1  0
 13 14  2  0
 13 15  2  0
 13 16  1  0
 16 17  1  0
 17 18  1  0
 18 19  1  0
 19 20  1  0
 20 21  1  0
 12 22  1  0
 22 23  1  0
  5 24  1  0
 24 25  1  0
 24 26  1  0
 26 27  1  0
 27 28  1  0
 23  9  1  0
 28 24  1  0
 21 16  1  0
M  END
>  <energy_score>  (2714) 
-15.886093

>  <inchikey>  (2714) 
None

>  <smiles>  (2714) 
None

>  <ref_pdb>  (2714) 
A4706a

>  <alias>  (2714) 
None

>  <HIPPO Pose ID>  (2714) 
500358

>  <name>  (2714) 
P500358

>  <HIPPO Compound ID>  (2714) 
314673

>  <ref_mols>  (2714) 
A4706a,A0875a

>  <distance_score>  (2714) 
1.157274

>  <inspiration_score>  (2714) 
None

$$$$
P500359
     RDKit          3D

 28 30  0  0  0  0  0  0  0  0999 V2000
    4.5413   13.9773   21.3128 C   0  0  0  0  0  0  0  0  0  0  0  0
    5.6371   14.8882   21.4257 O   0  0  0  0  0  0  0  0  0  0  0  0
    6.8367   14.3501   21.7741 C   0  0  0  0  0  0  0  0  0  0  0  0
    7.0391   13.1439   21.8002 O   0  0  0  0  0  0  0  0  0  0  0  0
    7.8295   15.4234   22.2208 C   0  0  1  0  0  0  0  0  0  0  0  0
    7.6776   15.3146   23.6843 O   0  0  0  0  0  0  0  0  0  0  0  0
    6.4451   15.6101   24.2042 C   0  0  0  0  0  0  0  0  0  0  0  0
    5.6173   16.3326   23.6641 O   0  0  0  0  0  0  0  0  0  0  0  0
    6.1373   14.8844   25.5165 C   0  0  0  0  0  0  0  0  0  0  0  0
    6.0308   13.3489   25.3283 C   0  0  0  0  0  0  0  0  0  0  0  0
    6.9313   12.4796   26.2068 C   0  0  0  0  0  0  0  0  0  0  0  0
    8.1481   13.2166   26.6063 N   0  0  0  0  0  0  0  0  0  0  0  0
    9.2787   13.4911   25.3864 S   0  0  0  0  0  0  0  0  0  0  0  0
    9.7631   14.8431   25.5257 O   0  0  0  0  0  0  0  0  0  0  0  0
    8.6830   12.9656   24.1862 O   0  0  0  0  0  0  0  0  0  0  0  0
   10.5303   12.4243   25.8393 N   0  0  0  0  0  0  0  0  0  0  0  0
   11.8367   13.1369   25.9185 C   0  0  0  0  0  0  0  0  0  0  0  0
   12.9544   12.2030   26.3432 C   0  0  0  0  0  0  0  0  0  0  0  0
   13.0350   11.0273   25.3914 C   0  0  0  0  0  0  0  0  0  0  0  0
   11.6762   10.2931   25.2428 C   0  0  0  0  0  0  0  0  0  0  0  0
   10.5403   11.2468   24.9223 C   0  0  0  0  0  0  0  0  0  0  0  0
    7.7822   14.3779   27.4384 C   0  0  0  0  0  0  0  0  0  0  0  0
    7.0317   15.4233   26.6334 C   0  0  0  0  0  0  0  0  0  0  0  0
    9.3098   15.2552   21.7174 C   0  0  0  0  0  0  0  0  0  0  0  0
    9.5159   15.8378   20.3066 C   0  0  0  0  0  0  0  0  0  0  0  0
   10.1131   13.9414   21.7679 C   0  0  0  0  0  0  0  0  0  0  0  0
   10.9983   14.4293   22.7940 O   0  0  0  0  0  0  0  0  0  0  0  0
   10.4400   15.7502   22.6417 C   0  0  0  0  0  0  0  0  0  0  0  0
  1  2  1  0
  2  3  1  0
  3  4  2  0
  3  5  1  0
  5  6  1  1
  6  7  1  0
  7  8  2  0
  7  9  1  0
  9 10  1  0
 10 11  1  0
 11 12  1  0
 12 13  1  0
 13 14  2  0
 13 15  2  0
 13 16  1  0
 16 17  1  0
 17 18  1  0
 18 19  1  0
 19 20  1  0
 20 21  1  0
 12 22  1  0
 22 23  1  0
  5 24  1  0
 24 25  1  0
 24 26  1  0
 26 27  1  0
 27 28  1  0
 23  9  1  0
 28 24  1  0
 21 16  1  0
M  END
>  <energy_score>  (2715) 
-40.944515

>  <inchikey>  (2715) 
None

>  <smiles>  (2715) 
None

>  <ref_pdb>  (2715) 
A4706a

>  <alias>  (2715) 
None

>  <HIPPO Pose ID>  (2715) 
500359

>  <name>  (2715) 
P500359

>  <HIPPO Compound ID>  (2715) 
314673

>  <ref_mols>  (2715) 
A0875a,A4706a

>  <distance_score>  (2715) 
1.736379

>  <inspiration_score>  (2715) 
None

$$$$
P500360
     RDKit          3D

 28 29  0  0  0  0  0  0  0  0999 V2000
   12.0626   14.7403   23.1115 C   0  0  0  0  0  0  0  0  0  0  0  0
   11.1144   14.1347   22.1397 C   0  0  0  0  0  0  0  0  0  0  0  0
   10.0527   15.0628   22.1302 O   0  0  0  0  0  0  0  0  0  0  0  0
    8.9902   14.6909   21.2431 C   0  0  2  0  0  0  0  0  0  0  0  0
    9.2682   15.6296   20.0888 C   0  0  0  0  0  0  0  0  0  0  0  0
    7.7065   14.7366   22.1284 C   0  0  2  0  0  0  0  0  0  0  0  0
    7.9472   13.5322   23.0096 O   0  0  0  0  0  0  0  0  0  0  0  0
    7.2119   12.9248   23.9466 C   0  0  0  0  0  0  0  0  0  0  0  0
    7.4458   11.7296   24.1429 O   0  0  0  0  0  0  0  0  0  0  0  0
    6.0997   13.6067   24.7331 C   0  0  0  0  0  0  0  0  0  0  0  0
    5.8690   12.7248   25.9750 C   0  0  0  0  0  0  0  0  0  0  0  0
    7.0966   12.7328   26.8972 C   0  0  0  0  0  0  0  0  0  0  0  0
    7.8023   14.0377   26.9095 N   0  0  0  0  0  0  0  0  0  0  0  0
    9.3153   14.3673   26.2504 S   0  0  0  0  0  0  0  0  0  0  0  0
    9.1477   14.5749   24.8440 O   0  0  0  0  0  0  0  0  0  0  0  0
    9.8660   15.4778   26.9861 O   0  0  0  0  0  0  0  0  0  0  0  0
   10.3270   12.9973   26.4546 N   0  0  0  0  0  0  0  0  0  0  0  0
   11.7415   13.4687   26.5501 C   0  0  0  0  0  0  0  0  0  0  0  0
   12.7756   12.3662   26.4775 C   0  0  0  0  0  0  0  0  0  0  0  0
   12.5505   11.4889   25.2694 C   0  0  0  0  0  0  0  0  0  0  0  0
   11.1261   10.9450   25.1898 C   0  0  0  0  0  0  0  0  0  0  0  0
   10.0934   12.0113   25.3650 C   0  0  0  0  0  0  0  0  0  0  0  0
    6.8368   15.1404   26.6660 C   0  0  0  0  0  0  0  0  0  0  0  0
    6.2911   15.0477   25.2322 C   0  0  0  0  0  0  0  0  0  0  0  0
    6.3212   14.3088   21.7057 C   0  0  0  0  0  0  0  0  0  0  0  0
    6.0179   13.1395   21.4901 O   0  0  0  0  0  0  0  0  0  0  0  0
    5.3995   15.3008   21.6755 O   0  0  0  0  0  0  0  0  0  0  0  0
    4.0801   14.7929   21.4286 C   0  0  0  0  0  0  0  0  0  0  0  0
  1  2  1  0
  2  3  1  0
  3  4  1  0
  4  5  1  6
  4  6  1  0
  6  7  1  1
  7  8  1  0
  8  9  2  0
  8 10  1  0
 10 11  1  0
 11 12  1  0
 12 13  1  0
 13 14  1  0
 14 15  2  0
 14 16  2  0
 14 17  1  0
 17 18  1  0
 18 19  1  0
 19 20  1  0
 20 21  1  0
 21 22  1  0
 13 23  1  0
 23 24  1  0
  6 25  1  0
 25 26  2  0
 25 27  1  0
 27 28  1  0
 24 10  1  0
 22 17  1  0
M  END
>  <energy_score>  (2716) 
-21.88111

>  <inchikey>  (2716) 
None

>  <smiles>  (2716) 
None

>  <ref_pdb>  (2716) 
A4706a

>  <alias>  (2716) 
None

>  <HIPPO Pose ID>  (2716) 
500360

>  <name>  (2716) 
P500360

>  <HIPPO Compound ID>  (2716) 
314675

>  <ref_mols>  (2716) 
A4706a,A0875a

>  <distance_score>  (2716) 
1.690717

>  <inspiration_score>  (2716) 
None

$$$$
P500361
     RDKit          3D

 28 29  0  0  0  0  0  0  0  0999 V2000
   11.0137   15.8347   23.5412 C   0  0  0  0  0  0  0  0  0  0  0  0
   11.6041   14.7941   22.6663 C   0  0  0  0  0  0  0  0  0  0  0  0
   11.3645   15.2582   21.3726 O   0  0  0  0  0  0  0  0  0  0  0  0
   10.2498   14.6480   20.7346 C   0  0  2  0  0  0  0  0  0  0  0  0
   10.7978   14.5891   19.2977 C   0  0  0  0  0  0  0  0  0  0  0  0
    8.8932   15.3948   20.9087 C   0  0  1  0  0  0  0  0  0  0  0  0
    8.1909   15.3755   22.2020 O   0  0  0  0  0  0  0  0  0  0  0  0
    7.3716   14.3298   22.5013 C   0  0  0  0  0  0  0  0  0  0  0  0
    7.2994   13.3123   21.8153 O   0  0  0  0  0  0  0  0  0  0  0  0
    6.4115   14.5061   23.7130 C   0  0  0  0  0  0  0  0  0  0  0  0
    6.0206   13.1360   24.3228 C   0  0  0  0  0  0  0  0  0  0  0  0
    7.0820   12.4953   25.2325 C   0  0  0  0  0  0  0  0  0  0  0  0
    7.7520   13.5090   26.1018 N   0  0  0  0  0  0  0  0  0  0  0  0
    9.3158   13.9516   25.6492 S   0  0  0  0  0  0  0  0  0  0  0  0
    9.6146   15.1707   26.3632 O   0  0  0  0  0  0  0  0  0  0  0  0
    9.3468   13.8823   24.2153 O   0  0  0  0  0  0  0  0  0  0  0  0
   10.3691   12.7830   26.1983 N   0  0  0  0  0  0  0  0  0  0  0  0
   10.4672   11.5546   25.3663 C   0  0  0  0  0  0  0  0  0  0  0  0
   11.8889   11.0264   25.4172 C   0  0  0  0  0  0  0  0  0  0  0  0
   12.8282   12.0254   24.8226 C   0  0  0  0  0  0  0  0  0  0  0  0
   12.8075   13.2520   25.6812 C   0  0  0  0  0  0  0  0  0  0  0  0
   11.6746   13.3256   26.6947 C   0  0  0  0  0  0  0  0  0  0  0  0
    6.8815   14.7290   26.2292 C   0  0  0  0  0  0  0  0  0  0  0  0
    6.7778   15.4475   24.8661 C   0  0  0  0  0  0  0  0  0  0  0  0
    9.0520   16.7962   20.3331 C   0  0  0  0  0  0  0  0  0  0  0  0
    9.6428   17.0082   19.2825 O   0  0  0  0  0  0  0  0  0  0  0  0
    8.4106   17.7649   21.0155 O   0  0  0  0  0  0  0  0  0  0  0  0
    8.1644   18.9285   20.2145 C   0  0  0  0  0  0  0  0  0  0  0  0
  1  2  1  0
  2  3  1  0
  3  4  1  0
  4  5  1  6
  4  6  1  0
  6  7  1  1
  7  8  1  0
  8  9  2  0
  8 10  1  0
 10 11  1  0
 11 12  1  0
 12 13  1  0
 13 14  1  0
 14 15  2  0
 14 16  2  0
 14 17  1  0
 17 18  1  0
 18 19  1  0
 19 20  1  0
 20 21  1  0
 21 22  1  0
 13 23  1  0
 23 24  1  0
  6 25  1  0
 25 26  2  0
 25 27  1  0
 27 28  1  0
 24 10  1  0
 22 17  1  0
M  END
>  <energy_score>  (2717) 
-27.673318

>  <inchikey>  (2717) 
None

>  <smiles>  (2717) 
None

>  <ref_pdb>  (2717) 
A4706a

>  <alias>  (2717) 
None

>  <HIPPO Pose ID>  (2717) 
500361

>  <name>  (2717) 
P500361

>  <HIPPO Compound ID>  (2717) 
314675

>  <ref_mols>  (2717) 
A4706a,A0875a

>  <distance_score>  (2717) 
1.436501

>  <inspiration_score>  (2717) 
None

$$$$
P500362
     RDKit          3D

 28 29  0  0  0  0  0  0  0  0999 V2000
   11.6223   13.8156   21.9099 C   0  0  0  0  0  0  0  0  0  0  0  0
   11.2561   15.1935   22.3778 C   0  0  0  0  0  0  0  0  0  0  0  0
   10.8904   16.0601   21.3365 O   0  0  0  0  0  0  0  0  0  0  0  0
    9.7870   15.7456   20.4886 C   0  0  1  0  0  0  0  0  0  0  0  0
   10.2981   15.0302   19.2495 C   0  0  0  0  0  0  0  0  0  0  0  0
    8.4892   15.1430   21.1228 C   0  0  1  0  0  0  0  0  0  0  0  0
    8.7417   14.0340   21.9782 O   0  0  0  0  0  0  0  0  0  0  0  0
    7.6820   13.4237   22.5713 C   0  0  0  0  0  0  0  0  0  0  0  0
    6.6197   13.1373   22.0476 O   0  0  0  0  0  0  0  0  0  0  0  0
    8.0731   13.1332   23.9793 C   0  0  0  0  0  0  0  0  0  0  0  0
    8.8034   11.8069   24.0724 C   0  0  0  0  0  0  0  0  0  0  0  0
    9.0873   11.4410   25.5122 C   0  0  0  0  0  0  0  0  0  0  0  0
    9.1194   12.6341   26.3643 N   0  0  0  0  0  0  0  0  0  0  0  0
   10.4547   13.6727   26.4579 S   0  0  0  0  0  0  0  0  0  0  0  0
   10.3424   14.2931   27.7523 O   0  0  0  0  0  0  0  0  0  0  0  0
   10.5348   14.4897   25.2743 O   0  0  0  0  0  0  0  0  0  0  0  0
   11.8166   12.6335   26.4570 N   0  0  0  0  0  0  0  0  0  0  0  0
   12.9065   12.9753   27.4299 C   0  0  0  0  0  0  0  0  0  0  0  0
   14.3296   12.7347   26.9127 C   0  0  0  0  0  0  0  0  0  0  0  0
   14.4910   11.4265   26.2012 C   0  0  0  0  0  0  0  0  0  0  0  0
   13.3848   11.2462   25.1941 C   0  0  0  0  0  0  0  0  0  0  0  0
   12.3655   12.3783   25.1227 C   0  0  0  0  0  0  0  0  0  0  0  0
    7.7697   13.3271   26.4223 C   0  0  0  0  0  0  0  0  0  0  0  0
    7.0292   13.2433   25.0741 C   0  0  0  0  0  0  0  0  0  0  0  0
    7.7535   16.2797   21.8344 C   0  0  0  0  0  0  0  0  0  0  0  0
    7.9641   17.4566   21.6058 O   0  0  0  0  0  0  0  0  0  0  0  0
    6.8266   15.7962   22.7090 O   0  0  0  0  0  0  0  0  0  0  0  0
    5.9553   16.7128   23.3671 C   0  0  0  0  0  0  0  0  0  0  0  0
  1  2  1  0
  2  3  1  0
  3  4  1  0
  4  5  1  6
  4  6  1  0
  6  7  1  1
  7  8  1  0
  8  9  2  0
  8 10  1  0
 10 11  1  0
 11 12  1  0
 12 13  1  0
 13 14  1  0
 14 15  2  0
 14 16  2  0
 14 17  1  0
 17 18  1  0
 18 19  1  0
 19 20  1  0
 20 21  1  0
 21 22  1  0
 13 23  1  0
 23 24  1  0
  6 25  1  0
 25 26  2  0
 25 27  1  0
 27 28  1  0
 24 10  1  0
 22 17  1  0
M  END
>  <energy_score>  (2718) 
-27.881275

>  <inchikey>  (2718) 
None

>  <smiles>  (2718) 
None

>  <ref_pdb>  (2718) 
A4706a

>  <alias>  (2718) 
None

>  <HIPPO Pose ID>  (2718) 
500362

>  <name>  (2718) 
P500362

>  <HIPPO Compound ID>  (2718) 
314675

>  <ref_mols>  (2718) 
A4706a,A0875a

>  <distance_score>  (2718) 
1.736823

>  <inspiration_score>  (2718) 
None

$$$$
P500363
     RDKit          3D

 28 30  0  0  0  0  0  0  0  0999 V2000
   11.2081   15.1148   18.3435 C   0  0  0  0  0  0  0  0  0  0  0  0
   11.4193   15.1074   19.7356 O   0  0  0  0  0  0  0  0  0  0  0  0
   10.4317   15.7775   20.3968 C   0  0  0  0  0  0  0  0  0  0  0  0
    9.7871   16.7079   19.9379 O   0  0  0  0  0  0  0  0  0  0  0  0
   10.1888   15.1158   21.7485 C   0  0  2  0  0  0  0  0  0  0  0  0
   11.0593   13.9222   21.8419 N   0  0  0  0  0  0  0  0  0  0  0  0
    8.7201   14.7564   21.9989 C   0  0  0  0  0  0  0  0  0  0  0  0
    8.5497   13.5779   22.8278 O   0  0  0  0  0  0  0  0  0  0  0  0
    7.2432   13.2810   23.1440 C   0  0  0  0  0  0  0  0  0  0  0  0
    6.3578   12.9425   22.3803 O   0  0  0  0  0  0  0  0  0  0  0  0
    7.1175   13.3431   24.5960 C   0  0  0  0  0  0  0  0  0  0  0  0
    7.1865   11.9577   25.2020 C   0  0  0  0  0  0  0  0  0  0  0  0
    7.5098   12.1051   26.6721 C   0  0  0  0  0  0  0  0  0  0  0  0
    7.8692   13.5086   26.9654 N   0  0  0  0  0  0  0  0  0  0  0  0
    9.4186   14.1625   26.7267 S   0  0  0  0  0  0  0  0  0  0  0  0
    9.2362   15.5336   26.2931 O   0  0  0  0  0  0  0  0  0  0  0  0
   10.2313   13.8654   27.8750 O   0  0  0  0  0  0  0  0  0  0  0  0
   10.2171   13.4305   25.4359 N   0  0  0  0  0  0  0  0  0  0  0  0
   11.3597   14.2980   25.0418 C   0  0  0  0  0  0  0  0  0  0  0  0
   12.4999   13.5504   24.3945 C   0  0  0  0  0  0  0  0  0  0  0  0
   13.1026   12.5246   25.3045 C   0  0  0  0  0  0  0  0  0  0  0  0
   11.9795   11.7253   25.8827 C   0  0  0  0  0  0  0  0  0  0  0  0
   10.5715   12.0120   25.3655 C   0  0  0  0  0  0  0  0  0  0  0  0
    6.6788   14.4150   26.7401 C   0  0  0  0  0  0  0  0  0  0  0  0
    6.1197   14.2146   25.3165 C   0  0  0  0  0  0  0  0  0  0  0  0
    7.8412   14.6682   20.7859 C   0  0  0  0  0  0  0  0  0  0  0  0
    6.8226   15.4702   21.4351 O   0  0  0  0  0  0  0  0  0  0  0  0
    7.8399   15.9865   22.3129 C   0  0  0  0  0  0  0  0  0  0  0  0
  1  2  1  0
  2  3  1  0
  3  4  2  0
  3  5  1  0
  5  6  1  6
  5  7  1  0
  7  8  1  0
  8  9  1  0
  9 10  2  0
  9 11  1  0
 11 12  1  0
 12 13  1  0
 13 14  1  0
 14 15  1  0
 15 16  2  0
 15 17  2  0
 15 18  1  0
 18 19  1  0
 19 20  1  0
 20 21  1  0
 21 22  1  0
 22 23  1  0
 14 24  1  0
 24 25  1  0
  7 26  1  0
 26 27  1  0
 27 28  1  0
 28  7  1  0
 25 11  1  0
 23 18  1  0
M  END
>  <energy_score>  (2719) 
-13.358066

>  <inchikey>  (2719) 
None

>  <smiles>  (2719) 
None

>  <ref_pdb>  (2719) 
A4706a

>  <alias>  (2719) 
None

>  <HIPPO Pose ID>  (2719) 
500363

>  <name>  (2719) 
P500363

>  <HIPPO Compound ID>  (2719) 
314678

>  <ref_mols>  (2719) 
A4706a,A0875a

>  <distance_score>  (2719) 
1.471283

>  <inspiration_score>  (2719) 
None

$$$$
P500364
     RDKit          3D

 28 30  0  0  0  0  0  0  0  0999 V2000
   11.1972   14.9172   18.6727 C   0  0  0  0  0  0  0  0  0  0  0  0
   10.9797   14.6211   20.0459 O   0  0  0  0  0  0  0  0  0  0  0  0
   10.1066   15.4404   20.6836 C   0  0  0  0  0  0  0  0  0  0  0  0
    9.6729   16.4946   20.2458 O   0  0  0  0  0  0  0  0  0  0  0  0
    9.7729   14.8517   22.0643 C   0  0  1  0  0  0  0  0  0  0  0  0
   10.7209   15.4963   22.9977 N   0  0  0  0  0  0  0  0  0  0  0  0
    8.2587   14.9068   22.4413 C   0  0  0  0  0  0  0  0  0  0  0  0
    7.9276   14.1471   23.6615 O   0  0  0  0  0  0  0  0  0  0  0  0
    6.7572   13.4594   23.6884 C   0  0  0  0  0  0  0  0  0  0  0  0
    6.3432   12.7768   22.7595 O   0  0  0  0  0  0  0  0  0  0  0  0
    5.9837   13.4562   24.9807 C   0  0  0  0  0  0  0  0  0  0  0  0
    6.3126   12.1297   25.6687 C   0  0  0  0  0  0  0  0  0  0  0  0
    7.7599   12.1478   26.1214 C   0  0  0  0  0  0  0  0  0  0  0  0
    8.0715   13.3880   26.8386 N   0  0  0  0  0  0  0  0  0  0  0  0
    9.4979   14.2282   26.6298 S   0  0  0  0  0  0  0  0  0  0  0  0
    9.4372   15.0488   25.4539 O   0  0  0  0  0  0  0  0  0  0  0  0
    9.7289   14.8538   27.9087 O   0  0  0  0  0  0  0  0  0  0  0  0
   10.6834   13.0164   26.4355 N   0  0  0  0  0  0  0  0  0  0  0  0
   11.9493   13.5012   27.0541 C   0  0  0  0  0  0  0  0  0  0  0  0
   13.1178   12.5468   26.8571 C   0  0  0  0  0  0  0  0  0  0  0  0
   13.2435   12.0364   25.4344 C   0  0  0  0  0  0  0  0  0  0  0  0
   12.2653   12.7804   24.5366 C   0  0  0  0  0  0  0  0  0  0  0  0
   10.8542   12.5310   25.0336 C   0  0  0  0  0  0  0  0  0  0  0  0
    6.9184   14.2558   27.1677 C   0  0  0  0  0  0  0  0  0  0  0  0
    6.2054   14.6607   25.8888 C   0  0  0  0  0  0  0  0  0  0  0  0
    7.4817   14.5258   21.1801 C   0  0  0  0  0  0  0  0  0  0  0  0
    6.3768   15.3693   21.5970 O   0  0  0  0  0  0  0  0  0  0  0  0
    7.3649   16.1828   22.3113 C   0  0  0  0  0  0  0  0  0  0  0  0
  1  2  1  0
  2  3  1  0
  3  4  2  0
  3  5  1  0
  5  6  1  1
  5  7  1  0
  7  8  1  0
  8  9  1  0
  9 10  2  0
  9 11  1  0
 11 12  1  0
 12 13  1  0
 13 14  1  0
 14 15  1  0
 15 16  2  0
 15 17  2  0
 15 18  1  0
 18 19  1  0
 19 20  1  0
 20 21  1  0
 21 22  1  0
 22 23  1  0
 14 24  1  0
 24 25  1  0
  7 26  1  0
 26 27  1  0
 27 28  1  0
 28  7  1  0
 25 11  1  0
 23 18  1  0
M  END
>  <energy_score>  (2720) 
-65.609004

>  <inchikey>  (2720) 
None

>  <smiles>  (2720) 
None

>  <ref_pdb>  (2720) 
A4706a

>  <alias>  (2720) 
None

>  <HIPPO Pose ID>  (2720) 
500364

>  <name>  (2720) 
P500364

>  <HIPPO Compound ID>  (2720) 
314678

>  <ref_mols>  (2720) 
A4706a,A0875a

>  <distance_score>  (2720) 
1.569646

>  <inspiration_score>  (2720) 
None

$$$$
P500365
     RDKit          3D

 28 30  0  0  0  0  0  0  0  0999 V2000
    4.7068   15.1244   21.8338 C   0  0  0  0  0  0  0  0  0  0  0  0
    5.5911   15.6572   22.8017 O   0  0  0  0  0  0  0  0  0  0  0  0
    6.9098   16.0136   22.3345 C   0  0  0  0  0  0  0  0  0  0  0  0
    7.8224   14.8077   22.0417 C   0  0  2  0  0  0  0  0  0  0  0  0
    7.8272   14.0254   23.2694 O   0  0  0  0  0  0  0  0  0  0  0  0
    6.7053   13.2890   23.4040 C   0  0  0  0  0  0  0  0  0  0  0  0
    6.1318   12.8001   22.4364 O   0  0  0  0  0  0  0  0  0  0  0  0
    6.2055   13.0279   24.8033 C   0  0  0  0  0  0  0  0  0  0  0  0
    6.8296   11.7428   25.3402 C   0  0  0  0  0  0  0  0  0  0  0  0
    8.2578   11.9854   25.7648 C   0  0  0  0  0  0  0  0  0  0  0  0
    8.3678   13.1375   26.6691 N   0  0  0  0  0  0  0  0  0  0  0  0
    9.6347   14.2043   26.4457 S   0  0  0  0  0  0  0  0  0  0  0  0
    9.6778   15.0226   27.6302 O   0  0  0  0  0  0  0  0  0  0  0  0
    9.5062   14.8248   25.1617 O   0  0  0  0  0  0  0  0  0  0  0  0
   10.9957   13.1699   26.4456 N   0  0  0  0  0  0  0  0  0  0  0  0
   11.5755   12.9347   25.0954 C   0  0  0  0  0  0  0  0  0  0  0  0
   12.6921   11.9125   25.2182 C   0  0  0  0  0  0  0  0  0  0  0  0
   13.8072   12.3535   26.1330 C   0  0  0  0  0  0  0  0  0  0  0  0
   13.2550   12.7879   27.4707 C   0  0  0  0  0  0  0  0  0  0  0  0
   12.0227   13.6860   27.3897 C   0  0  0  0  0  0  0  0  0  0  0  0
    7.0851   13.8032   27.0184 C   0  0  0  0  0  0  0  0  0  0  0  0
    6.3495   14.2128   25.7565 C   0  0  0  0  0  0  0  0  0  0  0  0
    9.2346   15.0834   21.5205 C   0  0  0  0  0  0  0  0  0  0  0  0
    9.4821   15.0510   20.1431 C   0  0  0  0  0  0  0  0  0  0  0  0
   10.7630   14.9928   19.6067 C   0  0  0  0  0  0  0  0  0  0  0  0
   11.8392   15.0167   20.4701 C   0  0  0  0  0  0  0  0  0  0  0  0
   11.6397   15.2211   21.8267 C   0  0  0  0  0  0  0  0  0  0  0  0
   10.3452   15.2854   22.3306 C   0  0  0  0  0  0  0  0  0  0  0  0
  1  2  1  0
  2  3  1  0
  4  3  1  1
  4  5  1  0
  5  6  1  0
  6  7  2  0
  6  8  1  0
  8  9  1  0
  9 10  1  0
 10 11  1  0
 11 12  1  0
 12 13  2  0
 12 14  2  0
 12 15  1  0
 15 16  1  0
 16 17  1  0
 17 18  1  0
 18 19  1  0
 19 20  1  0
 11 21  1  0
 21 22  1  0
  4 23  1  0
 23 24  2  0
 24 25  1  0
 25 26  2  0
 26 27  1  0
 27 28  2  0
 22  8  1  0
 28 23  1  0
 20 15  1  0
M  END
>  <energy_score>  (2721) 
-70.442618

>  <inchikey>  (2721) 
None

>  <smiles>  (2721) 
None

>  <ref_pdb>  (2721) 
A4706a

>  <alias>  (2721) 
None

>  <HIPPO Pose ID>  (2721) 
500365

>  <name>  (2721) 
P500365

>  <HIPPO Compound ID>  (2721) 
314679

>  <ref_mols>  (2721) 
A4706a,A0875a

>  <distance_score>  (2721) 
1.687648

>  <inspiration_score>  (2721) 
None

$$$$
P500366
     RDKit          3D

 28 30  0  0  0  0  0  0  0  0999 V2000
   11.2568   15.0715   18.7972 C   0  0  0  0  0  0  0  0  0  0  0  0
    9.9583   14.9285   19.5555 C   0  0  0  0  0  0  0  0  0  0  0  0
    9.7672   15.6965   20.8580 C   0  0  0  0  0  0  0  0  0  0  0  0
    9.6602   17.2252   20.5988 C   0  0  0  0  0  0  0  0  0  0  0  0
    8.4222   18.0268   20.9112 C   0  0  0  0  0  0  0  0  0  0  0  0
   10.9479   15.4179   21.7875 C   0  0  0  0  0  0  0  0  0  0  0  0
   10.4619   15.7713   23.0726 O   0  0  0  0  0  0  0  0  0  0  0  0
    9.1050   15.5978   23.0769 C   0  0  0  0  0  0  0  0  0  0  0  0
    8.3917   15.6716   24.0717 O   0  0  0  0  0  0  0  0  0  0  0  0
    8.6188   15.1684   21.7257 C   0  0  2  0  0  0  0  0  0  0  0  0
    8.5353   13.7383   21.7791 O   0  0  0  0  0  0  0  0  0  0  0  0
    7.5444   13.2800   22.5938 C   0  0  0  0  0  0  0  0  0  0  0  0
    6.3964   13.1202   22.2093 O   0  0  0  0  0  0  0  0  0  0  0  0
    8.0466   12.9012   23.9570 C   0  0  0  0  0  0  0  0  0  0  0  0
    8.6242   11.5164   24.1253 C   0  0  0  0  0  0  0  0  0  0  0  0
    9.0845   11.3097   25.5604 C   0  0  0  0  0  0  0  0  0  0  0  0
    9.1469   12.5590   26.3372 N   0  0  0  0  0  0  0  0  0  0  0  0
   10.4836   13.5882   26.4089 S   0  0  0  0  0  0  0  0  0  0  0  0
   10.5962   14.3593   25.2021 O   0  0  0  0  0  0  0  0  0  0  0  0
   10.3842   14.2461   27.6863 O   0  0  0  0  0  0  0  0  0  0  0  0
   11.8406   12.5522   26.4249 N   0  0  0  0  0  0  0  0  0  0  0  0
   12.3765   12.3037   25.0800 C   0  0  0  0  0  0  0  0  0  0  0  0
   13.4255   11.1976   25.1594 C   0  0  0  0  0  0  0  0  0  0  0  0
   14.5244   11.3977   26.1720 C   0  0  0  0  0  0  0  0  0  0  0  0
   14.3471   12.7146   26.8614 C   0  0  0  0  0  0  0  0  0  0  0  0
   12.9258   12.9207   27.3904 C   0  0  0  0  0  0  0  0  0  0  0  0
    7.8182   13.2735   26.4111 C   0  0  0  0  0  0  0  0  0  0  0  0
    7.0653   13.2040   25.0822 C   0  0  0  0  0  0  0  0  0  0  0  0
  1  2  1  0
  2  3  1  0
  3  4  1  0
  4  5  1  0
  3  6  1  0
  6  7  1  0
  7  8  1  0
  8  9  2  0
  8 10  1  0
 10 11  1  1
 11 12  1  0
 12 13  2  0
 12 14  1  0
 14 15  1  0
 15 16  1  0
 16 17  1  0
 17 18  1  0
 18 19  2  0
 18 20  2  0
 18 21  1  0
 21 22  1  0
 22 23  1  0
 23 24  1  0
 24 25  1  0
 25 26  1  0
 17 27  1  0
 27 28  1  0
 10  3  1  0
 28 14  1  0
 26 21  1  0
M  END
>  <energy_score>  (2722) 
-28.334224

>  <inchikey>  (2722) 
None

>  <smiles>  (2722) 
None

>  <ref_pdb>  (2722) 
A4706a

>  <alias>  (2722) 
None

>  <HIPPO Pose ID>  (2722) 
500366

>  <name>  (2722) 
P500366

>  <HIPPO Compound ID>  (2722) 
314680

>  <ref_mols>  (2722) 
A0875a,A4706a

>  <distance_score>  (2722) 
1.675451

>  <inspiration_score>  (2722) 
None

$$$$
P500367
     RDKit          3D

 28 30  0  0  0  0  0  0  0  0999 V2000
   11.0835   14.6416   19.0252 C   0  0  0  0  0  0  0  0  0  0  0  0
    9.9821   15.5276   19.5605 C   0  0  0  0  0  0  0  0  0  0  0  0
    9.6420   15.5247   21.0767 C   0  0  0  0  0  0  0  0  0  0  0  0
    8.6263   16.6385   21.3656 C   0  0  0  0  0  0  0  0  0  0  0  0
    8.9511   18.0153   20.8433 C   0  0  0  0  0  0  0  0  0  0  0  0
   10.9149   15.6267   21.9131 C   0  0  0  0  0  0  0  0  0  0  0  0
   11.3241   14.2838   22.1943 O   0  0  0  0  0  0  0  0  0  0  0  0
   10.2238   13.4787   22.1423 C   0  0  0  0  0  0  0  0  0  0  0  0
   10.1887   12.3371   22.5844 O   0  0  0  0  0  0  0  0  0  0  0  0
    9.0358   14.2274   21.6136 C   0  0  1  0  0  0  0  0  0  0  0  0
    8.1930   14.4087   22.7944 O   0  0  0  0  0  0  0  0  0  0  0  0
    7.0493   13.7073   22.8867 C   0  0  0  0  0  0  0  0  0  0  0  0
    6.5926   13.0358   21.9690 O   0  0  0  0  0  0  0  0  0  0  0  0
    6.3829   13.6951   24.2599 C   0  0  0  0  0  0  0  0  0  0  0  0
    6.6435   12.3380   24.9360 C   0  0  0  0  0  0  0  0  0  0  0  0
    8.0610   12.2495   25.4762 C   0  0  0  0  0  0  0  0  0  0  0  0
    8.3930   13.3982   26.3354 N   0  0  0  0  0  0  0  0  0  0  0  0
    9.8542   14.1947   26.1042 S   0  0  0  0  0  0  0  0  0  0  0  0
    9.9494   14.6760   24.7527 O   0  0  0  0  0  0  0  0  0  0  0  0
    9.9268   15.1440   27.1907 O   0  0  0  0  0  0  0  0  0  0  0  0
   11.0731   13.0190   26.3717 N   0  0  0  0  0  0  0  0  0  0  0  0
   11.4995   12.2636   25.1700 C   0  0  0  0  0  0  0  0  0  0  0  0
   12.6606   11.2966   25.4391 C   0  0  0  0  0  0  0  0  0  0  0  0
   13.5476   11.6229   26.6150 C   0  0  0  0  0  0  0  0  0  0  0  0
   13.5897   13.0935   26.7064 C   0  0  0  0  0  0  0  0  0  0  0  0
   12.2147   13.6316   27.1075 C   0  0  0  0  0  0  0  0  0  0  0  0
    7.2497   14.3383   26.5482 C   0  0  0  0  0  0  0  0  0  0  0  0
    6.7212   14.8481   25.2082 C   0  0  0  0  0  0  0  0  0  0  0  0
  1  2  1  0
  2  3  1  0
  3  4  1  0
  4  5  1  0
  3  6  1  0
  6  7  1  0
  7  8  1  0
  8  9  2  0
  8 10  1  0
 10 11  1  1
 11 12  1  0
 12 13  2  0
 12 14  1  0
 14 15  1  0
 15 16  1  0
 16 17  1  0
 17 18  1  0
 18 19  2  0
 18 20  2  0
 18 21  1  0
 21 22  1  0
 22 23  1  0
 23 24  1  0
 24 25  1  0
 25 26  1  0
 17 27  1  0
 27 28  1  0
 10  3  1  0
 28 14  1  0
 26 21  1  0
M  END
>  <energy_score>  (2723) 
-39.149786

>  <inchikey>  (2723) 
None

>  <smiles>  (2723) 
None

>  <ref_pdb>  (2723) 
A4706a

>  <alias>  (2723) 
None

>  <HIPPO Pose ID>  (2723) 
500367

>  <name>  (2723) 
P500367

>  <HIPPO Compound ID>  (2723) 
314680

>  <ref_mols>  (2723) 
A4706a,A0875a

>  <distance_score>  (2723) 
1.600505

>  <inspiration_score>  (2723) 
None

$$$$
P500368
     RDKit          3D

 28 31  0  0  0  0  0  0  0  0999 V2000
    4.8479   15.3991   23.4311 O   0  0  0  0  0  0  0  0  0  0  0  0
    5.8052   15.0917   24.1260 C   0  0  0  0  0  0  0  0  0  0  0  0
    7.1072   15.3152   23.8120 O   0  0  0  0  0  0  0  0  0  0  0  0
    7.3648   15.6033   22.4400 C   0  0  2  0  0  0  0  0  0  0  0  0
    6.9506   14.4551   21.5287 C   0  0  0  0  0  0  0  0  0  0  0  0
    7.8380   14.4297   20.3899 O   0  0  0  0  0  0  0  0  0  0  0  0
    8.9887   14.9838   20.8529 C   0  0  0  0  0  0  0  0  0  0  0  0
   10.2253   14.7597   20.3028 C   0  0  0  0  0  0  0  0  0  0  0  0
   11.2778   14.9289   21.1865 C   0  0  0  0  0  0  0  0  0  0  0  0
   11.6849   13.2845   22.1031 Br  0  0  0  0  0  0  0  0  0  0  0  0
   11.1835   15.8102   22.2388 C   0  0  0  0  0  0  0  0  0  0  0  0
    9.9329   15.9022   22.8041 C   0  0  0  0  0  0  0  0  0  0  0  0
    8.8151   15.5648   22.0857 C   0  0  0  0  0  0  0  0  0  0  0  0
    5.6842   14.3016   25.4209 C   0  0  0  0  0  0  0  0  0  0  0  0
    5.9879   12.8186   25.0984 C   0  0  0  0  0  0  0  0  0  0  0  0
    6.9973   12.0862   25.9708 C   0  0  0  0  0  0  0  0  0  0  0  0
    7.9808   13.0130   26.5431 N   0  0  0  0  0  0  0  0  0  0  0  0
    9.2309   13.5821   25.5619 S   0  0  0  0  0  0  0  0  0  0  0  0
    9.6435   14.8624   26.0872 O   0  0  0  0  0  0  0  0  0  0  0  0
    8.8651   13.3889   24.1837 O   0  0  0  0  0  0  0  0  0  0  0  0
   10.4768   12.4648   25.9174 N   0  0  0  0  0  0  0  0  0  0  0  0
   10.4341   11.2752   25.0179 C   0  0  0  0  0  0  0  0  0  0  0  0
   11.5982   10.3279   25.2468 C   0  0  0  0  0  0  0  0  0  0  0  0
   12.9618   11.0562   25.3728 C   0  0  0  0  0  0  0  0  0  0  0  0
   12.9173   12.2073   26.3518 C   0  0  0  0  0  0  0  0  0  0  0  0
   11.7952   13.1572   25.9835 C   0  0  0  0  0  0  0  0  0  0  0  0
    7.2987   14.0181   27.3886 C   0  0  0  0  0  0  0  0  0  0  0  0
    6.4876   14.9743   26.5390 C   0  0  0  0  0  0  0  0  0  0  0  0
  1  2  2  0
  2  3  1  0
  4  3  1  1
  4  5  1  0
  5  6  1  0
  6  7  1  0
  7  8  2  0
  8  9  1  0
  9 10  1  0
  9 11  2  0
 11 12  1  0
 12 13  2  0
  2 14  1  0
 14 15  1  0
 15 16  1  0
 16 17  1  0
 17 18  1  0
 18 19  2  0
 18 20  2  0
 18 21  1  0
 21 22  1  0
 22 23  1  0
 23 24  1  0
 24 25  1  0
 25 26  1  0
 17 27  1  0
 27 28  1  0
 13  4  1  0
 28 14  1  0
 13  7  1  0
 26 21  1  0
M  END
>  <energy_score>  (2724) 
-2.435088

>  <inchikey>  (2724) 
None

>  <smiles>  (2724) 
None

>  <ref_pdb>  (2724) 
A4706a

>  <alias>  (2724) 
None

>  <HIPPO Pose ID>  (2724) 
500368

>  <name>  (2724) 
P500368

>  <HIPPO Compound ID>  (2724) 
314681

>  <ref_mols>  (2724) 
A0875a,A4706a

>  <distance_score>  (2724) 
1.884681

>  <inspiration_score>  (2724) 
None

$$$$
P500369
     RDKit          3D

 28 31  0  0  0  0  0  0  0  0999 V2000
    6.3128   12.9963   22.4874 O   0  0  0  0  0  0  0  0  0  0  0  0
    6.4311   14.0515   23.1089 C   0  0  0  0  0  0  0  0  0  0  0  0
    7.0987   15.1345   22.6160 O   0  0  0  0  0  0  0  0  0  0  0  0
    7.8884   14.8189   21.4421 C   0  0  0  0  0  0  0  0  0  0  0  0
    8.7236   16.0205   20.9299 C   0  0  2  0  0  0  0  0  0  0  0  0
    9.5661   15.7097   19.6507 C   0  0  0  0  0  0  0  0  0  0  0  0
   10.5433   14.6812   19.8373 O   0  0  0  0  0  0  0  0  0  0  0  0
   11.0001   14.7195   21.1023 C   0  0  0  0  0  0  0  0  0  0  0  0
   11.7471   13.7316   21.6478 C   0  0  0  0  0  0  0  0  0  0  0  0
   12.0460   13.9987   23.2883 S   0  0  0  0  0  0  0  0  0  0  0  0
   11.1545   15.4221   23.3045 C   0  0  0  0  0  0  0  0  0  0  0  0
   10.5918   15.6191   22.0914 C   0  0  0  0  0  0  0  0  0  0  0  0
    9.6085   16.4982   21.9341 O   0  0  0  0  0  0  0  0  0  0  0  0
    5.7957   14.2680   24.4896 C   0  0  0  0  0  0  0  0  0  0  0  0
    5.6038   12.9202   25.2199 C   0  0  0  0  0  0  0  0  0  0  0  0
    6.8763   12.3019   25.8129 C   0  0  0  0  0  0  0  0  0  0  0  0
    7.7969   13.3428   26.3451 N   0  0  0  0  0  0  0  0  0  0  0  0
    9.1819   13.6406   25.4227 S   0  0  0  0  0  0  0  0  0  0  0  0
    8.8348   13.3337   24.0618 O   0  0  0  0  0  0  0  0  0  0  0  0
    9.6742   14.9370   25.8176 O   0  0  0  0  0  0  0  0  0  0  0  0
   10.2836   12.4448   25.9635 N   0  0  0  0  0  0  0  0  0  0  0  0
   11.5499   13.0609   26.4700 C   0  0  0  0  0  0  0  0  0  0  0  0
   12.7740   12.1630   26.5289 C   0  0  0  0  0  0  0  0  0  0  0  0
   12.8286   11.1280   25.4265 C   0  0  0  0  0  0  0  0  0  0  0  0
   11.5043   10.3623   25.2592 C   0  0  0  0  0  0  0  0  0  0  0  0
   10.3574   11.3077   25.0010 C   0  0  0  0  0  0  0  0  0  0  0  0
    7.0567   14.5914   26.6932 C   0  0  0  0  0  0  0  0  0  0  0  0
    6.5032   15.2588   25.4267 C   0  0  0  0  0  0  0  0  0  0  0  0
  1  2  2  0
  2  3  1  0
  3  4  1  0
  5  4  1  1
  5  6  1  0
  6  7  1  0
  7  8  1  0
  8  9  2  0
  9 10  1  0
 10 11  1  0
 11 12  2  0
 12 13  1  0
  2 14  1  0
 14 15  1  0
 15 16  1  0
 16 17  1  0
 17 18  1  0
 18 19  2  0
 18 20  2  0
 18 21  1  0
 21 22  1  0
 22 23  1  0
 23 24  1  0
 24 25  1  0
 25 26  1  0
 17 27  1  0
 27 28  1  0
 13  5  1  0
 28 14  1  0
 12  8  1  0
 26 21  1  0
M  END
>  <energy_score>  (2725) 
-61.940827

>  <inchikey>  (2725) 
None

>  <smiles>  (2725) 
None

>  <ref_pdb>  (2725) 
A4706a

>  <alias>  (2725) 
None

>  <HIPPO Pose ID>  (2725) 
500369

>  <name>  (2725) 
P500369

>  <HIPPO Compound ID>  (2725) 
314682

>  <ref_mols>  (2725) 
A4706a,A0875a

>  <distance_score>  (2725) 
1.561574

>  <inspiration_score>  (2725) 
None

$$$$
P500370
     RDKit          3D

 28 30  0  0  0  0  0  0  0  0999 V2000
   11.4638   14.9198   18.3674 C   0  0  0  0  0  0  0  0  0  0  0  0
   10.5672   14.5295   19.3842 O   0  0  0  0  0  0  0  0  0  0  0  0
    9.8440   15.5296   19.9372 C   0  0  0  0  0  0  0  0  0  0  0  0
    9.5855   16.5923   19.3891 O   0  0  0  0  0  0  0  0  0  0  0  0
    9.4872   15.1836   21.3908 C   0  0  2  0  0  0  0  0  0  0  0  0
    7.9939   15.4812   21.6049 C   0  0  0  0  0  0  0  0  0  0  0  0
    7.5073   15.2109   22.9398 O   0  0  0  0  0  0  0  0  0  0  0  0
    6.1727   14.9778   23.0589 C   0  0  0  0  0  0  0  0  0  0  0  0
    5.3809   14.9534   22.1219 O   0  0  0  0  0  0  0  0  0  0  0  0
    5.7331   14.6669   24.4987 C   0  0  0  0  0  0  0  0  0  0  0  0
    5.6608   13.1392   24.7099 C   0  0  0  0  0  0  0  0  0  0  0  0
    6.4890   12.5489   25.8471 C   0  0  0  0  0  0  0  0  0  0  0  0
    7.6736   13.3843   26.1084 N   0  0  0  0  0  0  0  0  0  0  0  0
    8.8840   13.3341   24.9328 S   0  0  0  0  0  0  0  0  0  0  0  0
    8.4485   12.4189   23.9104 O   0  0  0  0  0  0  0  0  0  0  0  0
    9.3677   14.6702   24.6988 O   0  0  0  0  0  0  0  0  0  0  0  0
   10.0897   12.5961   25.8145 N   0  0  0  0  0  0  0  0  0  0  0  0
   10.7013   13.4386   26.8320 C   0  0  0  0  0  0  0  0  0  0  0  0
   12.1607   13.6551   26.6076 C   0  0  0  0  0  0  0  0  0  0  0  0
   12.9241   12.3691   26.4559 C   0  0  0  0  0  0  0  0  0  0  0  0
   12.3626   11.6355   25.2703 C   0  0  0  0  0  0  0  0  0  0  0  0
   10.8374   11.5039   25.1848 C   0  0  0  0  0  0  0  0  0  0  0  0
    7.2627   14.7060   26.6059 C   0  0  0  0  0  0  0  0  0  0  0  0
    6.4806   15.4875   25.5607 C   0  0  0  0  0  0  0  0  0  0  0  0
   10.4970   15.9773   22.1973 C   0  0  0  0  0  0  0  0  0  0  0  0
   11.7109   15.0929   22.2034 C   0  0  0  0  0  0  0  0  0  0  0  0
   11.1189   13.7146   22.1566 C   0  0  0  0  0  0  0  0  0  0  0  0
    9.7562   13.8169   21.7357 O   0  0  0  0  0  0  0  0  0  0  0  0
  1  2  1  0
  2  3  1  0
  3  4  2  0
  3  5  1  0
  5  6  1  1
  6  7  1  0
  7  8  1  0
  8  9  2  0
  8 10  1  0
 10 11  1  0
 11 12  1  0
 12 13  1  0
 13 14  1  0
 14 15  2  0
 14 16  2  0
 14 17  1  0
 17 18  1  0
 18 19  1  0
 19 20  1  0
 20 21  1  0
 21 22  1  0
 13 23  1  0
 23 24  1  0
  5 25  1  0
 25 26  1  0
 26 27  1  0
 27 28  1  0
 28  5  1  0
 24 10  1  0
 22 17  1  0
M  END
>  <energy_score>  (2726) 
-39.571606

>  <inchikey>  (2726) 
None

>  <smiles>  (2726) 
None

>  <ref_pdb>  (2726) 
A4706a

>  <alias>  (2726) 
None

>  <HIPPO Pose ID>  (2726) 
500370

>  <name>  (2726) 
P500370

>  <HIPPO Compound ID>  (2726) 
314683

>  <ref_mols>  (2726) 
A4706a,A0875a

>  <distance_score>  (2726) 
1.766799

>  <inspiration_score>  (2726) 
None

$$$$
P500371
     RDKit          3D

 28 30  0  0  0  0  0  0  0  0999 V2000
   12.1405   13.9479   19.6673 C   0  0  0  0  0  0  0  0  0  0  0  0
   11.0782   14.2180   18.7755 O   0  0  0  0  0  0  0  0  0  0  0  0
   10.0158   14.9732   19.1135 C   0  0  0  0  0  0  0  0  0  0  0  0
    9.3036   15.4291   18.2194 O   0  0  0  0  0  0  0  0  0  0  0  0
    9.6422   15.2184   20.5691 C   0  0  1  0  0  0  0  0  0  0  0  0
    8.4943   14.3532   21.1166 C   0  0  0  0  0  0  0  0  0  0  0  0
    7.8531   14.7789   22.3657 O   0  0  0  0  0  0  0  0  0  0  0  0
    6.9674   13.8640   22.8381 C   0  0  0  0  0  0  0  0  0  0  0  0
    6.5968   12.9086   22.1602 O   0  0  0  0  0  0  0  0  0  0  0  0
    6.4271   14.0322   24.2623 C   0  0  0  0  0  0  0  0  0  0  0  0
    6.4595   12.6787   25.0226 C   0  0  0  0  0  0  0  0  0  0  0  0
    7.7937   12.3114   25.6878 C   0  0  0  0  0  0  0  0  0  0  0  0
    8.5199   13.5118   26.1996 N   0  0  0  0  0  0  0  0  0  0  0  0
    9.8729   13.9645   25.2991 S   0  0  0  0  0  0  0  0  0  0  0  0
   10.2349   15.3104   25.6709 O   0  0  0  0  0  0  0  0  0  0  0  0
    9.6093   13.6081   23.9308 O   0  0  0  0  0  0  0  0  0  0  0  0
   11.1189   12.9420   25.8513 N   0  0  0  0  0  0  0  0  0  0  0  0
   11.8122   13.5101   27.0433 C   0  0  0  0  0  0  0  0  0  0  0  0
   13.0775   12.7412   27.4461 C   0  0  0  0  0  0  0  0  0  0  0  0
   13.9590   12.2699   26.3084 C   0  0  0  0  0  0  0  0  0  0  0  0
   13.1068   11.6688   25.2230 C   0  0  0  0  0  0  0  0  0  0  0  0
   12.0819   12.6842   24.7493 C   0  0  0  0  0  0  0  0  0  0  0  0
    7.5768   14.6397   26.4551 C   0  0  0  0  0  0  0  0  0  0  0  0
    6.9875   15.1537   25.1374 C   0  0  0  0  0  0  0  0  0  0  0  0
   10.7821   15.3425   21.5365 C   0  0  0  0  0  0  0  0  0  0  0  0
   10.3003   16.3767   22.4356 C   0  0  0  0  0  0  0  0  0  0  0  0
    9.5378   17.3110   21.4903 C   0  0  0  0  0  0  0  0  0  0  0  0
    9.0957   16.5373   20.4258 O   0  0  0  0  0  0  0  0  0  0  0  0
  1  2  1  0
  2  3  1  0
  3  4  2  0
  3  5  1  0
  5  6  1  1
  6  7  1  0
  7  8  1  0
  8  9  2  0
  8 10  1  0
 10 11  1  0
 11 12  1  0
 12 13  1  0
 13 14  1  0
 14 15  2  0
 14 16  2  0
 14 17  1  0
 17 18  1  0
 18 19  1  0
 19 20  1  0
 20 21  1  0
 21 22  1  0
 13 23  1  0
 23 24  1  0
  5 25  1  0
 25 26  1  0
 26 27  1  0
 27 28  1  0
 28  5  1  0
 24 10  1  0
 22 17  1  0
M  END
>  <energy_score>  (2727) 
-42.098536

>  <inchikey>  (2727) 
None

>  <smiles>  (2727) 
None

>  <ref_pdb>  (2727) 
A4706a

>  <alias>  (2727) 
None

>  <HIPPO Pose ID>  (2727) 
500371

>  <name>  (2727) 
P500371

>  <HIPPO Compound ID>  (2727) 
314683

>  <ref_mols>  (2727) 
A4706a,A0875a

>  <distance_score>  (2727) 
1.573861

>  <inspiration_score>  (2727) 
None

$$$$
P500372
     RDKit          3D

 28 30  0  0  0  0  0  0  0  0999 V2000
    7.5947   13.7755   21.8846 O   0  0  0  0  0  0  0  0  0  0  0  0
    7.3261   14.8220   22.4685 C   0  0  0  0  0  0  0  0  0  0  0  0
    7.9098   16.0187   22.2309 O   0  0  0  0  0  0  0  0  0  0  0  0
    9.0808   16.2960   21.3386 C   0  0  2  0  0  0  0  0  0  0  0  0
    8.8431   17.7377   20.7751 C   0  0  0  0  0  0  0  0  0  0  0  0
    9.7376   17.9686   19.7929 F   0  0  0  0  0  0  0  0  0  0  0  0
    8.9256   18.7527   21.6342 F   0  0  0  0  0  0  0  0  0  0  0  0
    7.6560   17.8945   20.1784 F   0  0  0  0  0  0  0  0  0  0  0  0
    9.1932   15.3873   20.0995 C   0  0  0  0  0  0  0  0  0  0  0  0
   10.2279   14.3060   20.1468 C   0  0  0  0  0  0  0  0  0  0  0  0
   11.4989   14.6543   20.8415 C   0  0  0  0  0  0  0  0  0  0  0  0
   11.1590   15.0291   22.1551 O   0  0  0  0  0  0  0  0  0  0  0  0
   10.4164   16.2469   22.1345 C   0  0  0  0  0  0  0  0  0  0  0  0
    6.1773   14.8840   23.5166 C   0  0  0  0  0  0  0  0  0  0  0  0
    5.7812   13.4555   23.9314 C   0  0  0  0  0  0  0  0  0  0  0  0
    6.9029   12.7745   24.7243 C   0  0  0  0  0  0  0  0  0  0  0  0
    7.4798   13.6428   25.7930 N   0  0  0  0  0  0  0  0  0  0  0  0
    9.0703   14.1908   25.6438 S   0  0  0  0  0  0  0  0  0  0  0  0
    9.2135   14.7568   24.3338 O   0  0  0  0  0  0  0  0  0  0  0  0
    9.3534   15.0056   26.8038 O   0  0  0  0  0  0  0  0  0  0  0  0
   10.1435   12.9115   25.7196 N   0  0  0  0  0  0  0  0  0  0  0  0
   11.5379   13.4956   25.7698 C   0  0  0  0  0  0  0  0  0  0  0  0
   12.5544   12.6612   25.0184 C   0  0  0  0  0  0  0  0  0  0  0  0
   12.3631   11.2269   25.4448 C   0  0  0  0  0  0  0  0  0  0  0  0
   10.9434   10.7143   25.0910 C   0  0  0  0  0  0  0  0  0  0  0  0
   10.0058   11.8415   24.7146 C   0  0  0  0  0  0  0  0  0  0  0  0
    6.5592   14.7921   26.0727 C   0  0  0  0  0  0  0  0  0  0  0  0
    6.4070   15.6767   24.8173 C   0  0  0  0  0  0  0  0  0  0  0  0
  1  2  2  0
  2  3  1  0
  4  3  1  1
  4  5  1  0
  5  6  1  0
  5  7  1  0
  5  8  1  0
  4  9  1  0
  9 10  1  0
 10 11  1  0
 11 12  1  0
 12 13  1  0
  2 14  1  0
 14 15  1  0
 15 16  1  0
 16 17  1  0
 17 18  1  0
 18 19  2  0
 18 20  2  0
 18 21  1  0
 21 22  1  0
 22 23  1  0
 23 24  1  0
 24 25  1  0
 25 26  1  0
 17 27  1  0
 27 28  1  0
 13  4  1  0
 28 14  1  0
 26 21  1  0
M  END
>  <energy_score>  (2728) 
-36.760101

>  <inchikey>  (2728) 
None

>  <smiles>  (2728) 
None

>  <ref_pdb>  (2728) 
A4706a

>  <alias>  (2728) 
None

>  <HIPPO Pose ID>  (2728) 
500372

>  <name>  (2728) 
P500372

>  <HIPPO Compound ID>  (2728) 
314685

>  <ref_mols>  (2728) 
A4706a,A0875a

>  <distance_score>  (2728) 
1.997092

>  <inspiration_score>  (2728) 
None

$$$$
P500373
     RDKit          3D

 28 30  0  0  0  0  0  0  0  0999 V2000
    7.2937   15.7881   22.8768 O   0  0  0  0  0  0  0  0  0  0  0  0
    7.5804   14.6680   23.2624 C   0  0  0  0  0  0  0  0  0  0  0  0
    8.7252   14.0255   22.9803 O   0  0  0  0  0  0  0  0  0  0  0  0
    9.7756   14.4576   22.0596 C   0  0  1  0  0  0  0  0  0  0  0  0
   10.9032   13.4474   22.3328 C   0  0  0  0  0  0  0  0  0  0  0  0
   11.5782   13.7734   23.4659 F   0  0  0  0  0  0  0  0  0  0  0  0
   11.8474   13.3154   21.3966 F   0  0  0  0  0  0  0  0  0  0  0  0
   10.3784   12.2060   22.5393 F   0  0  0  0  0  0  0  0  0  0  0  0
    9.1581   14.3652   20.6706 C   0  0  0  0  0  0  0  0  0  0  0  0
    9.7180   15.3466   19.6641 C   0  0  0  0  0  0  0  0  0  0  0  0
   11.1898   15.4066   19.8830 C   0  0  0  0  0  0  0  0  0  0  0  0
   11.4952   15.9338   21.1863 O   0  0  0  0  0  0  0  0  0  0  0  0
   10.4404   15.8143   22.1735 C   0  0  0  0  0  0  0  0  0  0  0  0
    6.6290   13.7539   24.0506 C   0  0  0  0  0  0  0  0  0  0  0  0
    7.2189   12.4098   24.5314 C   0  0  0  0  0  0  0  0  0  0  0  0
    7.5846   12.3754   26.0025 C   0  0  0  0  0  0  0  0  0  0  0  0
    7.9817   13.6835   26.4909 N   0  0  0  0  0  0  0  0  0  0  0  0
    9.5152   14.3281   26.4102 S   0  0  0  0  0  0  0  0  0  0  0  0
    9.7536   14.8509   25.0913 O   0  0  0  0  0  0  0  0  0  0  0  0
    9.5803   15.2310   27.5328 O   0  0  0  0  0  0  0  0  0  0  0  0
   10.6422   13.0730   26.7020 N   0  0  0  0  0  0  0  0  0  0  0  0
   11.8640   13.7039   27.2761 C   0  0  0  0  0  0  0  0  0  0  0  0
   13.0705   12.7920   27.3634 C   0  0  0  0  0  0  0  0  0  0  0  0
   13.4778   12.3483   25.9970 C   0  0  0  0  0  0  0  0  0  0  0  0
   12.3093   11.7525   25.2625 C   0  0  0  0  0  0  0  0  0  0  0  0
   10.8679   12.1480   25.5727 C   0  0  0  0  0  0  0  0  0  0  0  0
    6.9019   14.7088   26.4058 C   0  0  0  0  0  0  0  0  0  0  0  0
    5.9668   14.4776   25.2213 C   0  0  0  0  0  0  0  0  0  0  0  0
  1  2  2  0
  2  3  1  0
  4  3  1  1
  4  5  1  0
  5  6  1  0
  5  7  1  0
  5  8  1  0
  4  9  1  0
  9 10  1  0
 10 11  1  0
 11 12  1  0
 12 13  1  0
  2 14  1  0
 14 15  1  0
 15 16  1  0
 16 17  1  0
 17 18  1  0
 18 19  2  0
 18 20  2  0
 18 21  1  0
 21 22  1  0
 22 23  1  0
 23 24  1  0
 24 25  1  0
 25 26  1  0
 17 27  1  0
 27 28  1  0
 13  4  1  0
 28 14  1  0
 26 21  1  0
M  END
>  <energy_score>  (2729) 
-8.685983

>  <inchikey>  (2729) 
None

>  <smiles>  (2729) 
None

>  <ref_pdb>  (2729) 
A4706a

>  <alias>  (2729) 
None

>  <HIPPO Pose ID>  (2729) 
500373

>  <name>  (2729) 
P500373

>  <HIPPO Compound ID>  (2729) 
314685

>  <ref_mols>  (2729) 
A4706a,A0875a

>  <distance_score>  (2729) 
1.829935

>  <inspiration_score>  (2729) 
None

$$$$
P500374
     RDKit          3D

 28 31  0  0  0  0  0  0  0  0999 V2000
    5.5466   16.1199   23.1616 O   0  0  0  0  0  0  0  0  0  0  0  0
    6.3382   15.5310   23.8831 C   0  0  0  0  0  0  0  0  0  0  0  0
    7.6843   15.5229   23.6950 O   0  0  0  0  0  0  0  0  0  0  0  0
    8.1869   15.7850   22.3534 C   0  0  2  0  0  0  0  0  0  0  0  0
    7.6266   14.7009   21.4279 C   0  0  0  0  0  0  0  0  0  0  0  0
    8.1459   14.7021   20.1064 O   0  0  0  0  0  0  0  0  0  0  0  0
    9.3269   15.4532   19.8323 C   0  0  0  0  0  0  0  0  0  0  0  0
   10.2083   15.2366   20.9780 C   0  0  0  0  0  0  0  0  0  0  0  0
   11.3271   14.4606   20.8422 C   0  0  0  0  0  0  0  0  0  0  0  0
   11.8803   14.0031   22.0026 C   0  0  0  0  0  0  0  0  0  0  0  0
   11.6427   14.6217   23.2032 C   0  0  0  0  0  0  0  0  0  0  0  0
   10.5544   15.4533   23.3229 C   0  0  0  0  0  0  0  0  0  0  0  0
    9.7085   15.5816   22.2431 C   0  0  0  0  0  0  0  0  0  0  0  0
    5.8961   14.6404   25.0544 C   0  0  0  0  0  0  0  0  0  0  0  0
    6.0422   13.1391   24.6936 C   0  0  0  0  0  0  0  0  0  0  0  0
    6.7793   12.2217   25.6762 C   0  0  0  0  0  0  0  0  0  0  0  0
    7.7569   12.9677   26.4935 N   0  0  0  0  0  0  0  0  0  0  0  0
    9.1404   13.5147   25.6936 S   0  0  0  0  0  0  0  0  0  0  0  0
    8.8957   13.3958   24.2807 O   0  0  0  0  0  0  0  0  0  0  0  0
    9.5442   14.7456   26.3326 O   0  0  0  0  0  0  0  0  0  0  0  0
   10.3286   12.3500   26.0721 N   0  0  0  0  0  0  0  0  0  0  0  0
   10.4165   11.3202   24.9973 C   0  0  0  0  0  0  0  0  0  0  0  0
   11.5444   10.3497   25.2467 C   0  0  0  0  0  0  0  0  0  0  0  0
   12.8737   11.1252   25.3857 C   0  0  0  0  0  0  0  0  0  0  0  0
   12.8397   12.1384   26.5096 C   0  0  0  0  0  0  0  0  0  0  0  0
   11.6066   13.0213   26.4722 C   0  0  0  0  0  0  0  0  0  0  0  0
    7.0348   14.0063   27.2740 C   0  0  0  0  0  0  0  0  0  0  0  0
    6.5181   15.1160   26.3698 C   0  0  0  0  0  0  0  0  0  0  0  0
  1  2  2  0
  2  3  1  0
  4  3  1  1
  4  5  1  0
  5  6  1  0
  6  7  1  0
  7  8  1  0
  8  9  2  0
  9 10  1  0
 10 11  2  0
 11 12  1  0
 12 13  2  0
  2 14  1  0
 14 15  1  0
 15 16  1  0
 16 17  1  0
 17 18  1  0
 18 19  2  0
 18 20  2  0
 18 21  1  0
 21 22  1  0
 22 23  1  0
 23 24  1  0
 24 25  1  0
 25 26  1  0
 17 27  1  0
 27 28  1  0
 13  4  1  0
 28 14  1  0
 13  8  1  0
 26 21  1  0
M  END
>  <energy_score>  (2730) 
-21.402914

>  <inchikey>  (2730) 
None

>  <smiles>  (2730) 
None

>  <ref_pdb>  (2730) 
A4706a

>  <alias>  (2730) 
None

>  <HIPPO Pose ID>  (2730) 
500374

>  <name>  (2730) 
P500374

>  <HIPPO Compound ID>  (2730) 
314688

>  <ref_mols>  (2730) 
A4706a,A0875a

>  <distance_score>  (2730) 
1.832479

>  <inspiration_score>  (2730) 
None

$$$$
P500375
     RDKit          3D

 28 31  0  0  0  0  0  0  0  0999 V2000
    5.8235   13.9892   21.3410 C   0  0  0  0  0  0  0  0  0  0  0  0
    6.9556   14.3450   21.5405 C   0  0  0  0  0  0  0  0  0  0  0  0
    8.2535   14.8423   22.0729 C   0  0  1  0  0  0  0  0  0  0  0  0
    8.0113   15.0774   23.4923 O   0  0  0  0  0  0  0  0  0  0  0  0
    6.8528   15.6581   23.9151 C   0  0  0  0  0  0  0  0  0  0  0  0
    6.1792   16.4326   23.2481 O   0  0  0  0  0  0  0  0  0  0  0  0
    6.3985   15.1968   25.3188 C   0  0  0  0  0  0  0  0  0  0  0  0
    6.0448   13.6903   25.3876 C   0  0  0  0  0  0  0  0  0  0  0  0
    6.7859   12.8680   26.4511 C   0  0  0  0  0  0  0  0  0  0  0  0
    8.1408   13.4256   26.7221 N   0  0  0  0  0  0  0  0  0  0  0  0
    9.1993   13.3470   25.4257 S   0  0  0  0  0  0  0  0  0  0  0  0
    9.7808   14.6491   25.2095 O   0  0  0  0  0  0  0  0  0  0  0  0
    8.4704   12.5986   24.4309 O   0  0  0  0  0  0  0  0  0  0  0  0
   10.4672   12.3245   25.9272 N   0  0  0  0  0  0  0  0  0  0  0  0
   11.7458   13.0899   26.0885 C   0  0  0  0  0  0  0  0  0  0  0  0
   12.9215   12.1917   26.4300 C   0  0  0  0  0  0  0  0  0  0  0  0
   13.0433   11.0639   25.4218 C   0  0  0  0  0  0  0  0  0  0  0  0
   11.7232   10.2760   25.2629 C   0  0  0  0  0  0  0  0  0  0  0  0
   10.5655   11.1933   24.9515 C   0  0  0  0  0  0  0  0  0  0  0  0
    7.9885   14.7513   27.3502 C   0  0  0  0  0  0  0  0  0  0  0  0
    7.3045   15.7524   26.4227 C   0  0  0  0  0  0  0  0  0  0  0  0
    9.2950   13.7011   21.9004 C   0  0  0  0  0  0  0  0  0  0  0  0
   10.7601   14.0900   22.1068 C   0  0  0  0  0  0  0  0  0  0  0  0
   11.0677   15.3476   21.3165 C   0  0  1  0  0  0  0  0  0  0  0  0
   10.6077   15.2776   19.8710 C   0  0  0  0  0  0  0  0  0  0  0  0
    9.2142   15.6133   19.9213 O   0  0  0  0  0  0  0  0  0  0  0  0
    8.9193   16.0302   21.2851 C   0  0  2  0  0  0  0  0  0  0  0  0
   10.2082   16.3465   21.8534 O   0  0  0  0  0  0  0  0  0  0  0  0
  1  2  3  0
  3  2  1  6
  3  4  1  0
  4  5  1  0
  5  6  2  0
  5  7  1  0
  7  8  1  0
  8  9  1  0
  9 10  1  0
 10 11  1  0
 11 12  2  0
 11 13  2  0
 11 14  1  0
 14 15  1  0
 15 16  1  0
 16 17  1  0
 17 18  1  0
 18 19  1  0
 10 20  1  0
 20 21  1  0
  3 22  1  0
 22 23  1  0
 24 23  1  1
 24 25  1  0
 25 26  1  0
 27 26  1  6
 27 28  1  0
 27  3  1  0
 21  7  1  0
 28 24  1  0
 19 14  1  0
M  END
>  <energy_score>  (2731) 
-22.459307

>  <inchikey>  (2731) 
None

>  <smiles>  (2731) 
None

>  <ref_pdb>  (2731) 
A4706a

>  <alias>  (2731) 
None

>  <HIPPO Pose ID>  (2731) 
500375

>  <name>  (2731) 
P500375

>  <HIPPO Compound ID>  (2731) 
314689

>  <ref_mols>  (2731) 
A0875a,A4706a

>  <distance_score>  (2731) 
1.750788

>  <inspiration_score>  (2731) 
None

$$$$
P500376
     RDKit          3D

 28 31  0  0  0  0  0  0  0  0999 V2000
    8.4071   18.4126   20.7125 C   0  0  0  0  0  0  0  0  0  0  0  0
    8.5519   17.3477   21.2476 C   0  0  0  0  0  0  0  0  0  0  0  0
    8.9126   16.0413   21.8164 C   0  0  1  0  0  0  0  0  0  0  0  0
    8.2166   15.6785   23.0697 O   0  0  0  0  0  0  0  0  0  0  0  0
    6.8712   15.4846   23.0797 C   0  0  0  0  0  0  0  0  0  0  0  0
    6.1143   15.6903   22.1362 O   0  0  0  0  0  0  0  0  0  0  0  0
    6.3036   14.8559   24.3567 C   0  0  0  0  0  0  0  0  0  0  0  0
    6.3731   13.3270   24.2633 C   0  0  0  0  0  0  0  0  0  0  0  0
    7.7324   12.7791   24.6673 C   0  0  0  0  0  0  0  0  0  0  0  0
    8.2429   13.3371   25.9273 N   0  0  0  0  0  0  0  0  0  0  0  0
    9.8024   13.9733   25.9568 S   0  0  0  0  0  0  0  0  0  0  0  0
   10.2567   13.8516   27.3203 O   0  0  0  0  0  0  0  0  0  0  0  0
    9.7793   15.2627   25.3178 O   0  0  0  0  0  0  0  0  0  0  0  0
   10.7719   12.9916   25.0214 N   0  0  0  0  0  0  0  0  0  0  0  0
   10.7684   11.5470   25.1707 C   0  0  0  0  0  0  0  0  0  0  0  0
   12.1818   11.0010   25.4375 C   0  0  0  0  0  0  0  0  0  0  0  0
   12.9630   11.7545   26.4750 C   0  0  0  0  0  0  0  0  0  0  0  0
   13.0443   13.1758   26.0157 C   0  0  0  0  0  0  0  0  0  0  0  0
   12.1270   13.5502   24.8545 C   0  0  0  0  0  0  0  0  0  0  0  0
    7.2691   14.2312   26.6225 C   0  0  0  0  0  0  0  0  0  0  0  0
    6.8066   15.3659   25.7027 C   0  0  0  0  0  0  0  0  0  0  0  0
    8.6396   14.9337   20.8241 C   0  0  0  0  0  0  0  0  0  0  0  0
    9.4545   13.7278   21.2139 C   0  0  0  0  0  0  0  0  0  0  0  0
   10.9209   13.9488   21.5296 C   0  0  1  0  0  0  0  0  0  0  0  0
   11.6022   14.7240   20.4347 C   0  0  0  0  0  0  0  0  0  0  0  0
   11.0611   16.0230   20.6177 O   0  0  0  0  0  0  0  0  0  0  0  0
   10.4886   16.0366   21.9528 C   0  0  2  0  0  0  0  0  0  0  0  0
   10.9486   14.8545   22.6053 O   0  0  0  0  0  0  0  0  0  0  0  0
  1  2  3  0
  3  2  1  6
  3  4  1  0
  4  5  1  0
  5  6  2  0
  5  7  1  0
  7  8  1  0
  8  9  1  0
  9 10  1  0
 10 11  1  0
 11 12  2  0
 11 13  2  0
 11 14  1  0
 14 15  1  0
 15 16  1  0
 16 17  1  0
 17 18  1  0
 18 19  1  0
 10 20  1  0
 20 21  1  0
  3 22  1  0
 22 23  1  0
 24 23  1  6
 24 25  1  0
 25 26  1  0
 27 26  1  6
 27 28  1  0
 27  3  1  0
 21  7  1  0
 28 24  1  0
 19 14  1  0
M  END
>  <energy_score>  (2732) 
-45.242087

>  <inchikey>  (2732) 
None

>  <smiles>  (2732) 
None

>  <ref_pdb>  (2732) 
A4706a

>  <alias>  (2732) 
None

>  <HIPPO Pose ID>  (2732) 
500376

>  <name>  (2732) 
P500376

>  <HIPPO Compound ID>  (2732) 
314689

>  <ref_mols>  (2732) 
A4706a,A0875a

>  <distance_score>  (2732) 
1.825805

>  <inspiration_score>  (2732) 
None

$$$$
P500377
     RDKit          3D

 28 31  0  0  0  0  0  0  0  0999 V2000
    8.4834   18.2501   20.6394 C   0  0  0  0  0  0  0  0  0  0  0  0
    8.7332   17.2024   21.1699 C   0  0  0  0  0  0  0  0  0  0  0  0
    9.1261   15.9163   21.7966 C   0  0  2  0  0  0  0  0  0  0  0  0
    8.1432   15.6370   22.8641 O   0  0  0  0  0  0  0  0  0  0  0  0
    7.2825   14.5918   22.8924 C   0  0  0  0  0  0  0  0  0  0  0  0
    7.1578   13.7265   22.0287 O   0  0  0  0  0  0  0  0  0  0  0  0
    6.3617   14.5679   24.1322 C   0  0  0  0  0  0  0  0  0  0  0  0
    6.0844   13.1042   24.5339 C   0  0  0  0  0  0  0  0  0  0  0  0
    7.3128   12.4343   25.1568 C   0  0  0  0  0  0  0  0  0  0  0  0
    7.9862   13.3095   26.1626 N   0  0  0  0  0  0  0  0  0  0  0  0
    9.5401   13.8662   25.8045 S   0  0  0  0  0  0  0  0  0  0  0  0
    9.6071   14.1741   24.4053 O   0  0  0  0  0  0  0  0  0  0  0  0
    9.8703   14.8753   26.7829 O   0  0  0  0  0  0  0  0  0  0  0  0
   10.6117   12.5690   26.0609 N   0  0  0  0  0  0  0  0  0  0  0  0
   11.9931   13.1475   26.1499 C   0  0  0  0  0  0  0  0  0  0  0  0
   13.0528   12.1024   26.4078 C   0  0  0  0  0  0  0  0  0  0  0  0
   12.9737   11.0310   25.3447 C   0  0  0  0  0  0  0  0  0  0  0  0
   11.5548   10.4169   25.2328 C   0  0  0  0  0  0  0  0  0  0  0  0
   10.4941   11.4882   25.0396 C   0  0  0  0  0  0  0  0  0  0  0  0
    7.0875   14.4309   26.5828 C   0  0  0  0  0  0  0  0  0  0  0  0
    6.7924   15.3466   25.3852 C   0  0  0  0  0  0  0  0  0  0  0  0
   10.5595   16.1110   22.4131 C   0  0  0  0  0  0  0  0  0  0  0  0
   11.6072   15.0167   22.2590 C   0  0  0  0  0  0  0  0  0  0  0  0
   11.2713   14.0501   21.1641 C   0  0  2  0  0  0  0  0  0  0  0  0
   11.3196   14.6521   19.7793 C   0  0  0  0  0  0  0  0  0  0  0  0
   10.0836   15.3320   19.6316 O   0  0  0  0  0  0  0  0  0  0  0  0
    9.2546   14.8476   20.7074 C   0  0  1  0  0  0  0  0  0  0  0  0
    9.8981   13.7194   21.3100 O   0  0  0  0  0  0  0  0  0  0  0  0
  1  2  3  0
  3  2  1  6
  3  4  1  0
  4  5  1  0
  5  6  2  0
  5  7  1  0
  7  8  1  0
  8  9  1  0
  9 10  1  0
 10 11  1  0
 11 12  2  0
 11 13  2  0
 11 14  1  0
 14 15  1  0
 15 16  1  0
 16 17  1  0
 17 18  1  0
 18 19  1  0
 10 20  1  0
 20 21  1  0
  3 22  1  0
 22 23  1  0
 24 23  1  1
 24 25  1  0
 25 26  1  0
 27 26  1  6
 27 28  1  0
 27  3  1  0
 21  7  1  0
 28 24  1  0
 19 14  1  0
M  END
>  <energy_score>  (2733) 
-57.814429

>  <inchikey>  (2733) 
None

>  <smiles>  (2733) 
None

>  <ref_pdb>  (2733) 
A4706a

>  <alias>  (2733) 
None

>  <HIPPO Pose ID>  (2733) 
500377

>  <name>  (2733) 
P500377

>  <HIPPO Compound ID>  (2733) 
314689

>  <ref_mols>  (2733) 
A4706a,A0875a

>  <distance_score>  (2733) 
1.54906

>  <inspiration_score>  (2733) 
None

$$$$
P500378
     RDKit          3D

 28 31  0  0  0  0  0  0  0  0999 V2000
    5.0279   13.9264   21.0767 C   0  0  0  0  0  0  0  0  0  0  0  0
    6.0613   14.3834   21.4913 C   0  0  0  0  0  0  0  0  0  0  0  0
    7.2334   14.9560   22.2166 C   0  0  2  0  0  0  0  0  0  0  0  0
    6.9390   14.7453   23.6262 O   0  0  0  0  0  0  0  0  0  0  0  0
    6.6736   13.4786   24.0066 C   0  0  0  0  0  0  0  0  0  0  0  0
    6.8406   12.4910   23.3029 O   0  0  0  0  0  0  0  0  0  0  0  0
    6.0687   13.3939   25.3910 C   0  0  0  0  0  0  0  0  0  0  0  0
    6.4477   12.0339   25.9908 C   0  0  0  0  0  0  0  0  0  0  0  0
    7.9605   11.9109   26.1560 C   0  0  0  0  0  0  0  0  0  0  0  0
    8.5619   13.1871   26.6401 N   0  0  0  0  0  0  0  0  0  0  0  0
    9.7220   13.9011   25.6513 S   0  0  0  0  0  0  0  0  0  0  0  0
    9.9482   15.2516   26.1001 O   0  0  0  0  0  0  0  0  0  0  0  0
    9.3716   13.5862   24.3004 O   0  0  0  0  0  0  0  0  0  0  0  0
   11.0940   12.9641   26.0362 N   0  0  0  0  0  0  0  0  0  0  0  0
   11.9241   12.6929   24.8335 C   0  0  0  0  0  0  0  0  0  0  0  0
   13.0213   11.7154   25.2274 C   0  0  0  0  0  0  0  0  0  0  0  0
   13.9470   12.3238   26.2479 C   0  0  0  0  0  0  0  0  0  0  0  0
   13.1559   12.7891   27.4539 C   0  0  0  0  0  0  0  0  0  0  0  0
   11.8833   13.5760   27.1308 C   0  0  0  0  0  0  0  0  0  0  0  0
    7.5946   14.1053   27.2877 C   0  0  0  0  0  0  0  0  0  0  0  0
    6.4997   14.5326   26.3243 C   0  0  0  0  0  0  0  0  0  0  0  0
    7.2214   16.4810   22.0732 C   0  0  0  0  0  0  0  0  0  0  0  0
    8.4384   17.1466   21.3729 C   0  0  0  0  0  0  0  0  0  0  0  0
    9.7489   16.3299   21.3912 C   0  0  2  0  0  0  0  0  0  0  0  0
    9.8812   15.4694   20.1577 C   0  0  0  0  0  0  0  0  0  0  0  0
    8.8224   14.5363   20.3609 O   0  0  0  0  0  0  0  0  0  0  0  0
    8.6478   14.4467   21.7853 C   0  0  1  0  0  0  0  0  0  0  0  0
    9.6488   15.3158   22.3809 O   0  0  0  0  0  0  0  0  0  0  0  0
  1  2  3  0
  3  2  1  6
  3  4  1  0
  4  5  1  0
  5  6  2  0
  5  7  1  0
  7  8  1  0
  8  9  1  0
  9 10  1  0
 10 11  1  0
 11 12  2  0
 11 13  2  0
 11 14  1  0
 14 15  1  0
 15 16  1  0
 16 17  1  0
 17 18  1  0
 18 19  1  0
 10 20  1  0
 20 21  1  0
  3 22  1  0
 22 23  1  0
 24 23  1  6
 24 25  1  0
 25 26  1  0
 27 26  1  6
 27 28  1  0
 27  3  1  0
 21  7  1  0
 28 24  1  0
 19 14  1  0
M  END
>  <energy_score>  (2734) 
-70.021577

>  <inchikey>  (2734) 
None

>  <smiles>  (2734) 
None

>  <ref_pdb>  (2734) 
A4706a

>  <alias>  (2734) 
None

>  <HIPPO Pose ID>  (2734) 
500378

>  <name>  (2734) 
P500378

>  <HIPPO Compound ID>  (2734) 
314689

>  <ref_mols>  (2734) 
A4706a,A0875a

>  <distance_score>  (2734) 
1.804847

>  <inspiration_score>  (2734) 
None

$$$$
P500379
     RDKit          3D

 28 30  0  0  0  0  0  0  0  0999 V2000
    9.4649   10.7200   23.2043 C   0  0  0  0  0  0  0  0  0  0  0  0
    9.0915   12.0827   22.9524 O   0  0  0  0  0  0  0  0  0  0  0  0
   10.0561   12.9772   22.5816 C   0  0  0  0  0  0  0  0  0  0  0  0
   11.2489   12.7073   22.6180 O   0  0  0  0  0  0  0  0  0  0  0  0
    9.4883   14.3598   22.1629 C   0  0  2  0  0  0  0  0  0  0  0  0
    8.3430   14.7468   22.9984 O   0  0  0  0  0  0  0  0  0  0  0  0
    7.2316   13.9673   23.0378 C   0  0  0  0  0  0  0  0  0  0  0  0
    6.8864   13.1957   22.1424 O   0  0  0  0  0  0  0  0  0  0  0  0
    6.4381   13.9979   24.3444 C   0  0  0  0  0  0  0  0  0  0  0  0
    6.5298   12.6207   25.0375 C   0  0  0  0  0  0  0  0  0  0  0  0
    7.7722   12.4254   25.9060 C   0  0  0  0  0  0  0  0  0  0  0  0
    8.1411   13.6263   26.6707 N   0  0  0  0  0  0  0  0  0  0  0  0
    9.6482   14.3506   26.4567 S   0  0  0  0  0  0  0  0  0  0  0  0
    9.7884   14.7194   25.0775 O   0  0  0  0  0  0  0  0  0  0  0  0
    9.7321   15.3637   27.4769 O   0  0  0  0  0  0  0  0  0  0  0  0
   10.8285   13.1601   26.7988 N   0  0  0  0  0  0  0  0  0  0  0  0
   11.9642   13.7704   27.5580 C   0  0  0  0  0  0  0  0  0  0  0  0
   13.2117   12.8846   27.5937 C   0  0  0  0  0  0  0  0  0  0  0  0
   13.7157   12.4626   26.2294 C   0  0  0  0  0  0  0  0  0  0  0  0
   12.6746   12.7130   25.1630 C   0  0  0  0  0  0  0  0  0  0  0  0
   11.2784   12.3753   25.6270 C   0  0  0  0  0  0  0  0  0  0  0  0
    7.0301   14.6199   26.7356 C   0  0  0  0  0  0  0  0  0  0  0  0
    6.6965   15.1357   25.3340 C   0  0  0  0  0  0  0  0  0  0  0  0
    9.1359   14.3326   20.6733 C   0  0  0  0  0  0  0  0  0  0  0  0
    9.7360   15.4278   19.8116 C   0  0  0  0  0  0  0  0  0  0  0  0
    9.5893   16.6953   20.6029 C   0  0  0  0  0  0  0  0  0  0  0  0
   10.5852   16.6433   21.6509 N   0  0  0  0  0  0  0  0  0  0  0  0
   10.6800   15.3600   22.3458 C   0  0  0  0  0  0  0  0  0  0  0  0
  1  2  1  0
  2  3  1  0
  3  4  2  0
  3  5  1  0
  5  6  1  1
  6  7  1  0
  7  8  2  0
  7  9  1  0
  9 10  1  0
 10 11  1  0
 11 12  1  0
 12 13  1  0
 13 14  2  0
 13 15  2  0
 13 16  1  0
 16 17  1  0
 17 18  1  0
 18 19  1  0
 19 20  1  0
 20 21  1  0
 12 22  1  0
 22 23  1  0
  5 24  1  0
 24 25  1  0
 25 26  1  0
 26 27  1  0
 27 28  1  0
 28  5  1  0
 23  9  1  0
 21 16  1  0
M  END
>  <energy_score>  (2735) 
-33.564912

>  <inchikey>  (2735) 
None

>  <smiles>  (2735) 
None

>  <ref_pdb>  (2735) 
A4706a

>  <alias>  (2735) 
None

>  <HIPPO Pose ID>  (2735) 
500379

>  <name>  (2735) 
P500379

>  <HIPPO Compound ID>  (2735) 
314693

>  <ref_mols>  (2735) 
A4706a,A0875a

>  <distance_score>  (2735) 
1.963641

>  <inspiration_score>  (2735) 
None

$$$$
P500380
     RDKit          3D

 28 31  0  0  0  0  0  0  0  0999 V2000
   12.1069   14.0124   20.3125 C   0  0  0  0  0  0  0  0  0  0  0  0
   11.0179   14.9105   19.8394 C   0  0  0  0  0  0  0  0  0  0  0  0
   11.3086   15.3037   18.4308 C   0  0  0  0  0  0  0  0  0  0  0  0
    9.7103   14.3497   19.8030 O   0  0  0  0  0  0  0  0  0  0  0  0
    9.3149   14.4344   21.1184 C   0  0  2  0  0  0  0  0  0  0  0  0
    7.8976   14.4352   21.6375 C   0  0  0  0  0  0  0  0  0  0  0  0
    8.0107   15.4678   22.7916 C   0  0  0  0  0  0  0  0  0  0  0  0
    7.4228   15.1260   24.0442 O   0  0  0  0  0  0  0  0  0  0  0  0
    6.1654   14.6246   24.0478 C   0  0  0  0  0  0  0  0  0  0  0  0
    5.4656   14.4713   23.0554 O   0  0  0  0  0  0  0  0  0  0  0  0
    5.7202   14.1889   25.4377 C   0  0  0  0  0  0  0  0  0  0  0  0
    5.6857   12.6584   25.5387 C   0  0  0  0  0  0  0  0  0  0  0  0
    7.0275   11.9652   25.7779 C   0  0  0  0  0  0  0  0  0  0  0  0
    7.9979   12.8510   26.4567 N   0  0  0  0  0  0  0  0  0  0  0  0
    9.2836   13.4362   25.5449 S   0  0  0  0  0  0  0  0  0  0  0  0
    9.6542   14.7328   26.0587 O   0  0  0  0  0  0  0  0  0  0  0  0
    8.9951   13.1882   24.1554 O   0  0  0  0  0  0  0  0  0  0  0  0
   10.5535   12.3636   25.9142 N   0  0  0  0  0  0  0  0  0  0  0  0
   11.8600   13.0872   25.9045 C   0  0  0  0  0  0  0  0  0  0  0  0
   12.9895   12.1660   26.3230 C   0  0  0  0  0  0  0  0  0  0  0  0
   13.0515   10.9738   25.3916 C   0  0  0  0  0  0  0  0  0  0  0  0
   11.6862   10.2436   25.2511 C   0  0  0  0  0  0  0  0  0  0  0  0
   10.5346   11.1938   24.9797 C   0  0  0  0  0  0  0  0  0  0  0  0
    7.3437   13.8254   27.3649 C   0  0  0  0  0  0  0  0  0  0  0  0
    6.4866   14.8245   26.6003 C   0  0  0  0  0  0  0  0  0  0  0  0
    9.5597   15.6719   22.8815 C   0  0  0  0  0  0  0  0  0  0  0  0
    9.7941   15.8215   21.4279 C   0  0  1  0  0  0  0  0  0  0  0  0
   11.0587   15.9302   20.8512 O   0  0  0  0  0  0  0  0  0  0  0  0
  1  2  1  0
  2  3  1  0
  2  4  1  0
  4  5  1  0
  5  6  1  6
  6  7  1  0
  7  8  1  0
  8  9  1  0
  9 10  2  0
  9 11  1  0
 11 12  1  0
 12 13  1  0
 13 14  1  0
 14 15  1  0
 15 16  2  0
 15 17  2  0
 15 18  1  0
 18 19  1  0
 19 20  1  0
 20 21  1  0
 21 22  1  0
 22 23  1  0
 14 24  1  0
 24 25  1  0
  7 26  1  0
 27 26  1  1
 27 28  1  0
 28  2  1  0
 27  5  1  0
 25 11  1  0
 23 18  1  0
M  END
>  <energy_score>  (2736) 
-56.57509

>  <inchikey>  (2736) 
None

>  <smiles>  (2736) 
None

>  <ref_pdb>  (2736) 
A4706a

>  <alias>  (2736) 
None

>  <HIPPO Pose ID>  (2736) 
500380

>  <name>  (2736) 
P500380

>  <HIPPO Compound ID>  (2736) 
314695

>  <ref_mols>  (2736) 
A0875a,A4706a

>  <distance_score>  (2736) 
1.565362

>  <inspiration_score>  (2736) 
None

$$$$
P500381
     RDKit          3D

 28 30  0  0  0  0  0  0  0  0999 V2000
   16.5800    6.0193   30.3016 C   0  0  0  0  0  0  0  0  0  0  0  0
   17.2953    7.3091   30.6863 C   0  0  0  0  0  0  0  0  0  0  0  0
   17.0434    7.6720   32.1430 C   0  0  0  0  0  0  0  0  0  0  0  0
   18.7084    7.1531   30.4873 O   0  0  0  0  0  0  0  0  0  0  0  0
   18.9715    7.8379   29.2651 C   0  0  0  0  0  0  0  0  0  0  0  0
   17.9884    8.9844   29.2945 C   0  0  1  0  0  0  0  0  0  0  0  0
   17.6832    9.6126   27.9187 C   0  0  2  0  0  0  0  0  0  0  0  0
   18.8835   10.1529   27.2580 N   0  0  0  0  0  0  0  0  0  0  0  0
   16.6081   10.7179   28.0764 C   0  0  0  0  0  0  0  0  0  0  0  0
   15.8588   10.8943   26.8492 O   0  0  0  0  0  0  0  0  0  0  0  0
   14.5826   11.3171   27.0282 C   0  0  0  0  0  0  0  0  0  0  0  0
   14.0262   11.4489   28.1123 O   0  0  0  0  0  0  0  0  0  0  0  0
   13.9137   11.7308   25.7238 C   0  0  0  0  0  0  0  0  0  0  0  0
   13.5976   13.1765   25.9589 C   0  0  0  0  0  0  0  0  0  0  0  0
   12.2028   13.4440   26.5861 C   0  0  0  0  0  0  0  0  0  0  0  0
   11.1644   13.0453   25.6331 N   0  0  0  0  0  0  0  0  0  0  0  0
    9.8675   14.0489   25.3135 S   0  0  0  0  0  0  0  0  0  0  0  0
    9.5610   14.0047   23.9054 O   0  0  0  0  0  0  0  0  0  0  0  0
   10.0932   15.2974   25.9983 O   0  0  0  0  0  0  0  0  0  0  0  0
    8.6403   13.2364   26.1537 N   0  0  0  0  0  0  0  0  0  0  0  0
    7.5106   14.1111   26.5861 C   0  0  0  0  0  0  0  0  0  0  0  0
    6.4589   14.2013   25.4935 C   0  0  0  0  0  0  0  0  0  0  0  0
    5.9667   12.8212   25.0643 C   0  0  0  0  0  0  0  0  0  0  0  0
    6.7298   11.6899   25.7444 C   0  0  0  0  0  0  0  0  0  0  0  0
    8.2239   11.9166   25.6143 C   0  0  0  0  0  0  0  0  0  0  0  0
   11.5520   12.0151   24.6859 C   0  0  0  0  0  0  0  0  0  0  0  0
   12.5902   11.0919   25.3798 C   0  0  0  0  0  0  0  0  0  0  0  0
   16.8123    8.3702   29.8443 O   0  0  0  0  0  0  0  0  0  0  0  0
  1  2  1  0
  2  3  1  0
  2  4  1  0
  4  5  1  0
  6  5  1  6
  6  7  1  0
  7  8  1  1
  7  9  1  0
  9 10  1  0
 10 11  1  0
 11 12  2  0
 11 13  1  0
 13 14  1  0
 14 15  1  0
 15 16  1  0
 16 17  1  0
 17 18  2  0
 17 19  2  0
 17 20  1  0
 20 21  1  0
 21 22  1  0
 22 23  1  0
 23 24  1  0
 24 25  1  0
 16 26  1  0
 26 27  1  0
  6 28  1  0
 28  2  1  0
 27 13  1  0
 25 20  1  0
M  END
>  <energy_score>  (2737) 
-79.094207

>  <inchikey>  (2737) 
None

>  <smiles>  (2737) 
None

>  <ref_pdb>  (2737) 
A4706a

>  <alias>  (2737) 
None

>  <HIPPO Pose ID>  (2737) 
500381

>  <name>  (2737) 
P500381

>  <HIPPO Compound ID>  (2737) 
314698

>  <ref_mols>  (2737) 
A4706a,A0875a

>  <distance_score>  (2737) 
1.872045

>  <inspiration_score>  (2737) 
None

$$$$
P500382
     RDKit          3D

 28 30  0  0  0  0  0  0  0  0999 V2000
   10.7189   15.8062   22.1813 C   0  0  0  0  0  0  0  0  0  0  0  0
    9.4365   15.9981   21.3600 C   0  0  0  0  0  0  0  0  0  0  0  0
    9.1449   17.4942   21.1060 C   0  0  0  0  0  0  0  0  0  0  0  0
    9.8683   15.4452   19.9633 C   0  0  0  0  0  0  0  0  0  0  0  0
    9.6632   16.1711   18.9553 O   0  0  0  0  0  0  0  0  0  0  0  0
   10.3813   14.2996   19.9701 O   0  0  0  0  0  0  0  0  0  0  0  0
    8.1957   15.2870   22.0293 C   0  0  0  0  0  0  0  0  0  0  0  0
    8.4059   14.7916   23.3912 O   0  0  0  0  0  0  0  0  0  0  0  0
    7.6128   13.7439   23.7692 C   0  0  0  0  0  0  0  0  0  0  0  0
    7.7795   12.5894   23.3739 O   0  0  0  0  0  0  0  0  0  0  0  0
    6.4606   14.0685   24.7066 C   0  0  0  0  0  0  0  0  0  0  0  0
    6.1656   12.8074   25.5445 C   0  0  0  0  0  0  0  0  0  0  0  0
    7.2855   12.4935   26.5407 C   0  0  0  0  0  0  0  0  0  0  0  0
    8.0628   13.6966   26.8358 N   0  0  0  0  0  0  0  0  0  0  0  0
    9.6789   14.0025   26.6035 S   0  0  0  0  0  0  0  0  0  0  0  0
    9.8555   14.9060   25.4978 O   0  0  0  0  0  0  0  0  0  0  0  0
   10.1331   14.4459   27.9027 O   0  0  0  0  0  0  0  0  0  0  0  0
   10.5265   12.5735   26.3003 N   0  0  0  0  0  0  0  0  0  0  0  0
   12.0120   12.8000   26.4880 C   0  0  0  0  0  0  0  0  0  0  0  0
   12.8358   12.4873   25.2508 C   0  0  0  0  0  0  0  0  0  0  0  0
   12.1350   13.0678   24.0405 C   0  0  0  0  0  0  0  0  0  0  0  0
   10.7423   12.5219   23.8504 C   0  0  0  0  0  0  0  0  0  0  0  0
   10.2436   11.8016   25.0646 C   0  0  0  0  0  0  0  0  0  0  0  0
    7.2171   14.8935   26.9861 C   0  0  0  0  0  0  0  0  0  0  0  0
    6.6724   15.2816   25.6184 C   0  0  0  0  0  0  0  0  0  0  0  0
    7.4250   14.3483   21.1111 C   0  0  0  0  0  0  0  0  0  0  0  0
    6.1419   14.8688   21.5641 O   0  0  0  0  0  0  0  0  0  0  0  0
    6.8438   16.0529   22.0356 C   0  0  0  0  0  0  0  0  0  0  0  0
  1  2  1  0
  2  3  1  0
  2  4  1  0
  4  5  2  0
  4  6  1  0
  2  7  1  0
  7  8  1  0
  8  9  1  0
  9 10  2  0
  9 11  1  0
 11 12  1  0
 12 13  1  0
 13 14  1  0
 14 15  1  0
 15 16  2  0
 15 17  2  0
 15 18  1  0
 18 19  1  0
 19 20  1  0
 20 21  1  0
 21 22  1  0
 22 23  1  0
 14 24  1  0
 24 25  1  0
  7 26  1  0
 26 27  1  0
 27 28  1  0
 28  7  1  0
 25 11  1  0
 23 18  1  0
M  CHG  1   6  -1
M  END
>  <energy_score>  (2738) 
-41.361306

>  <inchikey>  (2738) 
None

>  <smiles>  (2738) 
None

>  <ref_pdb>  (2738) 
A4706a

>  <alias>  (2738) 
None

>  <HIPPO Pose ID>  (2738) 
500382

>  <name>  (2738) 
P500382

>  <HIPPO Compound ID>  (2738) 
314700

>  <ref_mols>  (2738) 
A0875a,A4706a

>  <distance_score>  (2738) 
1.782906

>  <inspiration_score>  (2738) 
None

$$$$
P500383
     RDKit          3D

 28 31  0  0  0  0  0  0  0  0999 V2000
    4.9922   15.4547   24.2288 O   0  0  0  0  0  0  0  0  0  0  0  0
    5.9882   14.8545   24.6044 C   0  0  0  0  0  0  0  0  0  0  0  0
    7.2518   14.8780   24.0615 O   0  0  0  0  0  0  0  0  0  0  0  0
    7.3630   15.1794   22.6357 C   0  0  0  0  0  0  0  0  0  0  0  0
    8.9473   15.1435   21.9879 C   0  0  0  0  0  0  0  0  0  0  0  0
    9.1906   14.9582   20.6096 C   0  0  0  0  0  0  0  0  0  0  0  0
   10.4594   14.9067   20.0205 C   0  0  0  0  0  0  0  0  0  0  0  0
   11.5724   15.0278   20.8249 C   0  0  0  0  0  0  0  0  0  0  0  0
   11.4045   15.2614   22.1797 C   0  0  0  0  0  0  0  0  0  0  0  0
   10.1191   15.3615   22.7264 C   0  0  0  0  0  0  0  0  0  0  0  0
    6.5742   16.4099   22.1869 C   0  0  0  0  0  0  0  0  0  0  0  0
    5.4907   15.5893   21.6610 O   0  0  0  0  0  0  0  0  0  0  0  0
    6.3012   14.4081   21.7997 C   0  0  0  0  0  0  0  0  0  0  0  0
    5.9238   13.9696   25.8137 C   0  0  0  0  0  0  0  0  0  0  0  0
    6.3237   12.5278   25.4320 C   0  0  0  0  0  0  0  0  0  0  0  0
    7.4655   11.9147   26.2204 C   0  0  0  0  0  0  0  0  0  0  0  0
    8.3748   12.9599   26.7031 N   0  0  0  0  0  0  0  0  0  0  0  0
    9.4881   13.5935   25.6251 S   0  0  0  0  0  0  0  0  0  0  0  0
    9.1382   13.1215   24.3089 O   0  0  0  0  0  0  0  0  0  0  0  0
    9.6546   14.9886   25.9543 O   0  0  0  0  0  0  0  0  0  0  0  0
   10.9160   12.7783   26.0778 N   0  0  0  0  0  0  0  0  0  0  0  0
   11.5092   12.0360   24.9544 C   0  0  0  0  0  0  0  0  0  0  0  0
   12.7315   11.2114   25.3789 C   0  0  0  0  0  0  0  0  0  0  0  0
   13.4464   11.6782   26.6218 C   0  0  0  0  0  0  0  0  0  0  0  0
   13.3319   13.1488   26.6528 C   0  0  0  0  0  0  0  0  0  0  0  0
   11.8855   13.6261   26.8115 C   0  0  0  0  0  0  0  0  0  0  0  0
    7.6857   13.8961   27.6224 C   0  0  0  0  0  0  0  0  0  0  0  0
    6.6703   14.7292   26.9024 C   0  0  0  0  0  0  0  0  0  0  0  0
  1  2  2  0
  2  3  1  0
  3  4  1  0
  4  5  1  0
  5  6  2  0
  6  7  1  0
  7  8  2  0
  8  9  1  0
  9 10  2  0
  4 11  1  0
 11 12  1  0
 12 13  1  0
  2 14  1  0
 14 15  1  0
 15 16  1  0
 16 17  1  0
 17 18  1  0
 18 19  2  0
 18 20  2  0
 18 21  1  0
 21 22  1  0
 22 23  1  0
 23 24  1  0
 24 25  1  0
 25 26  1  0
 17 27  1  0
 27 28  1  0
 13  4  1  0
 28 14  1  0
 10  5  1  0
 26 21  1  0
M  END
>  <energy_score>  (2739) 
-41.257528

>  <inchikey>  (2739) 
None

>  <smiles>  (2739) 
None

>  <ref_pdb>  (2739) 
A4706a

>  <alias>  (2739) 
None

>  <HIPPO Pose ID>  (2739) 
500383

>  <name>  (2739) 
P500383

>  <HIPPO Compound ID>  (2739) 
314701

>  <ref_mols>  (2739) 
A4706a,A0875a

>  <distance_score>  (2739) 
1.969497

>  <inspiration_score>  (2739) 
None

$$$$
P500384
     RDKit          3D

 28 31  0  0  0  0  0  0  0  0999 V2000
    7.1717   12.4819   22.9874 O   0  0  0  0  0  0  0  0  0  0  0  0
    7.0170   13.1291   24.0152 C   0  0  0  0  0  0  0  0  0  0  0  0
    7.0958   14.4690   24.0451 O   0  0  0  0  0  0  0  0  0  0  0  0
    7.1692   15.0325   22.7013 C   0  0  0  0  0  0  0  0  0  0  0  0
    8.6709   14.9497   22.0159 C   0  0  0  0  0  0  0  0  0  0  0  0
    8.9566   14.8967   20.6536 C   0  0  0  0  0  0  0  0  0  0  0  0
   10.2618   14.9367   20.1568 C   0  0  0  0  0  0  0  0  0  0  0  0
   11.3006   15.0199   21.0564 C   0  0  0  0  0  0  0  0  0  0  0  0
   10.9718   15.0488   22.3944 C   0  0  0  0  0  0  0  0  0  0  0  0
    9.7041   15.0052   22.8826 N   0  0  0  0  0  0  0  0  0  0  0  0
    5.9055   14.6316   21.8707 C   0  0  0  0  0  0  0  0  0  0  0  0
    5.3213   15.9353   22.0121 O   0  0  0  0  0  0  0  0  0  0  0  0
    6.5386   16.4325   22.6165 C   0  0  0  0  0  0  0  0  0  0  0  0
    6.7196   12.4747   25.3388 C   0  0  0  0  0  0  0  0  0  0  0  0
    7.7620   11.3865   25.5378 C   0  0  0  0  0  0  0  0  0  0  0  0
    9.1431   12.0183   25.5020 C   0  0  0  0  0  0  0  0  0  0  0  0
    9.2869   13.0520   26.5382 N   0  0  0  0  0  0  0  0  0  0  0  0
   10.7339   13.9327   26.5550 S   0  0  0  0  0  0  0  0  0  0  0  0
   10.8112   14.7557   25.3798 O   0  0  0  0  0  0  0  0  0  0  0  0
   10.7618   14.5246   27.8669 O   0  0  0  0  0  0  0  0  0  0  0  0
   11.9529   12.7464   26.4696 N   0  0  0  0  0  0  0  0  0  0  0  0
   13.0611   12.8890   27.4659 C   0  0  0  0  0  0  0  0  0  0  0  0
   14.4593   12.6579   26.9006 C   0  0  0  0  0  0  0  0  0  0  0  0
   14.5564   11.3941   26.1045 C   0  0  0  0  0  0  0  0  0  0  0  0
   13.3899   11.2817   25.1568 C   0  0  0  0  0  0  0  0  0  0  0  0
   12.4342   12.4700   25.1098 C   0  0  0  0  0  0  0  0  0  0  0  0
    8.1472   14.0241   26.7087 C   0  0  0  0  0  0  0  0  0  0  0  0
    6.7727   13.4115   26.5295 C   0  0  0  0  0  0  0  0  0  0  0  0
  1  2  2  0
  2  3  1  0
  3  4  1  0
  4  5  1  0
  5  6  2  0
  6  7  1  0
  7  8  2  0
  8  9  1  0
  9 10  2  0
  4 11  1  0
 11 12  1  0
 12 13  1  0
  2 14  1  0
 14 15  1  0
 15 16  1  0
 16 17  1  0
 17 18  1  0
 18 19  2  0
 18 20  2  0
 18 21  1  0
 21 22  1  0
 22 23  1  0
 23 24  1  0
 24 25  1  0
 25 26  1  0
 17 27  1  0
 27 28  1  0
 13  4  1  0
 28 14  1  0
 10  5  1  0
 26 21  1  0
M  END
>  <energy_score>  (2740) 
-67.360123

>  <inchikey>  (2740) 
None

>  <smiles>  (2740) 
None

>  <ref_pdb>  (2740) 
A4706a

>  <alias>  (2740) 
None

>  <HIPPO Pose ID>  (2740) 
500384

>  <name>  (2740) 
P500384

>  <HIPPO Compound ID>  (2740) 
314702

>  <ref_mols>  (2740) 
A4706a,A0875a

>  <distance_score>  (2740) 
1.893757

>  <inspiration_score>  (2740) 
None

$$$$
P500385
     RDKit          3D

 28 31  0  0  0  0  0  0  0  0999 V2000
    5.2889   15.3139   23.0529 O   0  0  0  0  0  0  0  0  0  0  0  0
    6.0043   14.4272   23.5091 C   0  0  0  0  0  0  0  0  0  0  0  0
    7.1345   13.9570   22.9085 O   0  0  0  0  0  0  0  0  0  0  0  0
    7.6022   14.7144   21.7618 C   0  0  0  0  0  0  0  0  0  0  0  0
    8.7258   15.7227   22.1163 C   0  0  2  0  0  0  0  0  0  0  0  0
    8.8141   16.8773   21.1163 C   0  0  0  0  0  0  0  0  0  0  0  0
    9.4822   16.4693   19.9401 O   0  0  0  0  0  0  0  0  0  0  0  0
   10.6628   15.6579   20.1491 C   0  0  0  0  0  0  0  0  0  0  0  0
   11.4793   15.5011   18.7963 C   0  0  0  0  0  0  0  0  0  0  0  0
   10.4035   14.4994   18.4488 C   0  0  0  0  0  0  0  0  0  0  0  0
   10.4843   14.1693   19.9308 C   0  0  0  0  0  0  0  0  0  0  0  0
   11.0997   15.6931   21.6153 C   0  0  0  0  0  0  0  0  0  0  0  0
   10.0246   15.1299   22.4114 O   0  0  0  0  0  0  0  0  0  0  0  0
    5.6941   13.7650   24.8546 C   0  0  0  0  0  0  0  0  0  0  0  0
    6.3688   12.4007   25.0741 C   0  0  0  0  0  0  0  0  0  0  0  0
    7.2553   12.2355   26.2917 C   0  0  0  0  0  0  0  0  0  0  0  0
    7.7846   13.4984   26.7922 N   0  0  0  0  0  0  0  0  0  0  0  0
    9.0711   14.3262   26.1037 S   0  0  0  0  0  0  0  0  0  0  0  0
    9.6056   15.1603   27.1527 O   0  0  0  0  0  0  0  0  0  0  0  0
    8.6407   14.9245   24.8771 O   0  0  0  0  0  0  0  0  0  0  0  0
   10.2363   13.2029   25.7362 N   0  0  0  0  0  0  0  0  0  0  0  0
   11.5987   13.8040   25.6938 C   0  0  0  0  0  0  0  0  0  0  0  0
   12.5974   12.8500   25.0440 C   0  0  0  0  0  0  0  0  0  0  0  0
   12.2412   11.4258   25.4274 C   0  0  0  0  0  0  0  0  0  0  0  0
   10.7836   11.0591   25.0025 C   0  0  0  0  0  0  0  0  0  0  0  0
   10.0318   12.3114   24.5844 C   0  0  0  0  0  0  0  0  0  0  0  0
    6.6577   14.3747   27.1888 C   0  0  0  0  0  0  0  0  0  0  0  0
    5.8677   14.8181   25.9661 C   0  0  0  0  0  0  0  0  0  0  0  0
  1  2  2  0
  2  3  1  0
  3  4  1  0
  5  4  1  6
  5  6  1  0
  6  7  1  0
  7  8  1  0
  8  9  1  0
  9 10  1  0
 10 11  1  0
  8 12  1  0
 12 13  1  0
  2 14  1  0
 14 15  1  0
 15 16  1  0
 16 17  1  0
 17 18  1  0
 18 19  2  0
 18 20  2  0
 18 21  1  0
 21 22  1  0
 22 23  1  0
 23 24  1  0
 24 25  1  0
 25 26  1  0
 17 27  1  0
 27 28  1  0
 13  5  1  0
 28 14  1  0
 11  8  1  0
 26 21  1  0
M  END
>  <energy_score>  (2741) 
-29.960174

>  <inchikey>  (2741) 
None

>  <smiles>  (2741) 
None

>  <ref_pdb>  (2741) 
A4706a

>  <alias>  (2741) 
None

>  <HIPPO Pose ID>  (2741) 
500385

>  <name>  (2741) 
P500385

>  <HIPPO Compound ID>  (2741) 
314703

>  <ref_mols>  (2741) 
A4706a,A0875a

>  <distance_score>  (2741) 
1.887322

>  <inspiration_score>  (2741) 
None

$$$$
P500386
     RDKit          3D

 28 31  0  0  0  0  0  0  0  0999 V2000
   14.9232   10.4687   26.3861 O   0  0  0  0  0  0  0  0  0  0  0  0
   14.8904   11.6704   26.6006 C   0  0  0  0  0  0  0  0  0  0  0  0
   15.8014   12.3752   27.3174 O   0  0  0  0  0  0  0  0  0  0  0  0
   16.5968   11.6193   28.2860 C   0  0  0  0  0  0  0  0  0  0  0  0
   15.7359   11.3888   29.5614 C   0  0  1  0  0  0  0  0  0  0  0  0
   16.4499   10.6050   30.6803 C   0  0  0  0  0  0  0  0  0  0  0  0
   15.7297   10.7009   32.0312 C   0  0  0  0  0  0  0  0  0  0  0  0
   14.2858   11.1503   31.8614 C   0  0  0  0  0  0  0  0  0  0  0  0
   14.2120   12.4894   31.1237 C   0  0  0  0  0  0  0  0  0  0  0  0
   15.2368   12.6836   30.0851 N   0  0  0  0  0  0  0  0  0  0  0  0
   18.0063   12.2267   28.5138 C   0  0  0  0  0  0  0  0  0  0  0  0
   18.6363   10.9348   28.3427 O   0  0  0  0  0  0  0  0  0  0  0  0
   17.4133   10.4002   27.7799 C   0  0  0  0  0  0  0  0  0  0  0  0
   13.7796   12.5686   26.1129 C   0  0  0  0  0  0  0  0  0  0  0  0
   12.9532   13.0489   27.2860 C   0  0  0  0  0  0  0  0  0  0  0  0
   11.6881   13.8043   26.8933 C   0  0  0  0  0  0  0  0  0  0  0  0
   10.9070   13.0999   25.8454 N   0  0  0  0  0  0  0  0  0  0  0  0
    9.5162   14.0043   25.4356 S   0  0  0  0  0  0  0  0  0  0  0  0
    9.8818   14.9450   24.4060 O   0  0  0  0  0  0  0  0  0  0  0  0
    8.9170   14.4423   26.6733 O   0  0  0  0  0  0  0  0  0  0  0  0
    8.5222   12.8180   24.7787 N   0  0  0  0  0  0  0  0  0  0  0  0
    8.3061   11.6055   25.6084 C   0  0  0  0  0  0  0  0  0  0  0  0
    6.8448   11.3544   25.9467 C   0  0  0  0  0  0  0  0  0  0  0  0
    6.1189   12.6330   26.3185 C   0  0  0  0  0  0  0  0  0  0  0  0
    6.1969   13.6604   25.1933 C   0  0  0  0  0  0  0  0  0  0  0  0
    7.2858   13.3678   24.1669 C   0  0  0  0  0  0  0  0  0  0  0  0
   11.7258   12.7294   24.6713 C   0  0  0  0  0  0  0  0  0  0  0  0
   12.8580   11.8308   25.1580 C   0  0  0  0  0  0  0  0  0  0  0  0
  1  2  2  0
  2  3  1  0
  3  4  1  0
  5  4  1  6
  5  6  1  0
  6  7  1  0
  7  8  1  0
  8  9  1  0
  9 10  1  0
  4 11  1  0
 11 12  1  0
 12 13  1  0
  2 14  1  0
 14 15  1  0
 15 16  1  0
 16 17  1  0
 17 18  1  0
 18 19  2  0
 18 20  2  0
 18 21  1  0
 21 22  1  0
 22 23  1  0
 23 24  1  0
 24 25  1  0
 25 26  1  0
 17 27  1  0
 27 28  1  0
 13  4  1  0
 28 14  1  0
 10  5  1  0
 26 21  1  0
M  END
>  <energy_score>  (2742) 
-80.981962

>  <inchikey>  (2742) 
None

>  <smiles>  (2742) 
None

>  <ref_pdb>  (2742) 
A4706a

>  <alias>  (2742) 
None

>  <HIPPO Pose ID>  (2742) 
500386

>  <name>  (2742) 
P500386

>  <HIPPO Compound ID>  (2742) 
314704

>  <ref_mols>  (2742) 
A4706a,A0875a

>  <distance_score>  (2742) 
1.864618

>  <inspiration_score>  (2742) 
None

$$$$
P500387
     RDKit          3D

 28 31  0  0  0  0  0  0  0  0999 V2000
    6.3494   12.8631   22.6559 O   0  0  0  0  0  0  0  0  0  0  0  0
    6.5806   13.8804   23.3020 C   0  0  0  0  0  0  0  0  0  0  0  0
    7.2776   14.9249   22.7894 O   0  0  0  0  0  0  0  0  0  0  0  0
    7.9008   14.6368   21.5062 C   0  0  0  0  0  0  0  0  0  0  0  0
    8.8385   15.7732   21.0865 C   0  0  2  0  0  0  0  0  0  0  0  0
    9.5204   15.6227   19.7017 C   0  0  0  0  0  0  0  0  0  0  0  0
   10.5329   14.6384   19.6392 O   0  0  0  0  0  0  0  0  0  0  0  0
   11.4399   14.7595   20.7112 C   0  0  2  0  0  0  0  0  0  0  0  0
   11.3929   13.5198   21.5805 C   0  0  0  0  0  0  0  0  0  0  0  0
   11.6325   13.9030   22.9609 N   0  0  0  0  0  0  0  0  0  0  0  0
   11.8920   15.3333   22.8975 C   0  0  0  0  0  0  0  0  0  0  0  0
   11.1292   15.8385   21.7245 C   0  0  2  0  0  0  0  0  0  0  0  0
    9.7793   15.8818   22.1440 O   0  0  0  0  0  0  0  0  0  0  0  0
    6.0367   14.0920   24.7179 C   0  0  0  0  0  0  0  0  0  0  0  0
    5.9462   12.7572   25.4930 C   0  0  0  0  0  0  0  0  0  0  0  0
    7.2327   12.2581   26.1649 C   0  0  0  0  0  0  0  0  0  0  0  0
    8.1765   13.3693   26.4647 N   0  0  0  0  0  0  0  0  0  0  0  0
    9.4524   13.5444   25.3776 S   0  0  0  0  0  0  0  0  0  0  0  0
    9.8106   14.9384   25.3082 O   0  0  0  0  0  0  0  0  0  0  0  0
    9.0682   12.8168   24.1927 O   0  0  0  0  0  0  0  0  0  0  0  0
   10.7415   12.7059   26.1449 N   0  0  0  0  0  0  0  0  0  0  0  0
   11.6046   13.5920   26.9808 C   0  0  0  0  0  0  0  0  0  0  0  0
   12.9021   12.9208   27.4599 C   0  0  0  0  0  0  0  0  0  0  0  0
   13.7431   12.2819   26.3840 C   0  0  0  0  0  0  0  0  0  0  0  0
   12.9688   12.1688   25.1076 C   0  0  0  0  0  0  0  0  0  0  0  0
   11.4998   11.8016   25.2422 C   0  0  0  0  0  0  0  0  0  0  0  0
    7.4491   14.6189   26.7933 C   0  0  0  0  0  0  0  0  0  0  0  0
    6.7223   15.1719   25.5663 C   0  0  0  0  0  0  0  0  0  0  0  0
  1  2  2  0
  2  3  1  0
  3  4  1  0
  5  4  1  1
  5  6  1  0
  6  7  1  0
  7  8  1  0
  8  9  1  1
  9 10  1  0
 10 11  1  0
 12 11  1  1
 12 13  1  0
  2 14  1  0
 14 15  1  0
 15 16  1  0
 16 17  1  0
 17 18  1  0
 18 19  2  0
 18 20  2  0
 18 21  1  0
 21 22  1  0
 22 23  1  0
 23 24  1  0
 24 25  1  0
 25 26  1  0
 17 27  1  0
 27 28  1  0
 13  5  1  0
 28 14  1  0
 12  8  1  0
 26 21  1  0
M  END
>  <energy_score>  (2743) 
-60.120622

>  <inchikey>  (2743) 
None

>  <smiles>  (2743) 
None

>  <ref_pdb>  (2743) 
A4706a

>  <alias>  (2743) 
None

>  <HIPPO Pose ID>  (2743) 
500387

>  <name>  (2743) 
P500387

>  <HIPPO Compound ID>  (2743) 
314705

>  <ref_mols>  (2743) 
A0875a,A4706a

>  <distance_score>  (2743) 
1.668628

>  <inspiration_score>  (2743) 
None

$$$$
P500388
     RDKit          3D

 28 31  0  0  0  0  0  0  0  0999 V2000
    5.8601   13.0781   22.9476 O   0  0  0  0  0  0  0  0  0  0  0  0
    5.8382   14.0304   23.7226 C   0  0  0  0  0  0  0  0  0  0  0  0
    6.1526   15.3071   23.3761 O   0  0  0  0  0  0  0  0  0  0  0  0
    6.6681   15.5243   22.0438 C   0  0  0  0  0  0  0  0  0  0  0  0
    8.0868   14.9835   21.8004 C   0  0  1  0  0  0  0  0  0  0  0  0
    8.6788   15.3118   20.4200 C   0  0  0  0  0  0  0  0  0  0  0  0
   10.0196   14.8649   20.1864 O   0  0  0  0  0  0  0  0  0  0  0  0
   10.7751   15.4762   21.2092 C   0  0  2  0  0  0  0  0  0  0  0  0
   12.2185   15.0731   21.2962 C   0  0  0  0  0  0  0  0  0  0  0  0
   12.4163   14.6952   22.7226 N   0  0  0  0  0  0  0  0  0  0  0  0
   11.3108   15.3398   23.4172 C   0  0  0  0  0  0  0  0  0  0  0  0
   10.2198   14.9588   22.5130 C   0  0  1  0  0  0  0  0  0  0  0  0
    8.9765   15.5509   22.7706 O   0  0  0  0  0  0  0  0  0  0  0  0
    5.4290   13.9521   25.2063 C   0  0  0  0  0  0  0  0  0  0  0  0
    5.5391   12.5260   25.7650 C   0  0  0  0  0  0  0  0  0  0  0  0
    6.9337   12.0443   26.1608 C   0  0  0  0  0  0  0  0  0  0  0  0
    7.8073   13.1492   26.6371 N   0  0  0  0  0  0  0  0  0  0  0  0
    8.9525   13.6762   25.5201 S   0  0  0  0  0  0  0  0  0  0  0  0
    8.2523   13.6593   24.2758 O   0  0  0  0  0  0  0  0  0  0  0  0
    9.6118   14.8447   26.0371 O   0  0  0  0  0  0  0  0  0  0  0  0
   10.0152   12.4021   25.4331 N   0  0  0  0  0  0  0  0  0  0  0  0
   11.3484   12.6027   26.0114 C   0  0  0  0  0  0  0  0  0  0  0  0
   12.3048   11.5056   25.5689 C   0  0  0  0  0  0  0  0  0  0  0  0
   11.6253   10.1485   25.2623 C   0  0  0  0  0  0  0  0  0  0  0  0
   10.2919   10.2040   24.5349 C   0  0  0  0  0  0  0  0  0  0  0  0
    9.9616   11.6228   24.1746 C   0  0  0  0  0  0  0  0  0  0  0  0
    7.0017   14.2597   27.2148 C   0  0  0  0  0  0  0  0  0  0  0  0
    6.1519   14.9436   26.1411 C   0  0  0  0  0  0  0  0  0  0  0  0
  1  2  2  0
  2  3  1  0
  3  4  1  0
  5  4  1  6
  5  6  1  0
  6  7  1  0
  7  8  1  0
  8  9  1  6
  9 10  1  0
 10 11  1  0
 12 11  1  1
 12 13  1  0
  2 14  1  0
 14 15  1  0
 15 16  1  0
 16 17  1  0
 17 18  1  0
 18 19  2  0
 18 20  2  0
 18 21  1  0
 21 22  1  0
 22 23  1  0
 23 24  1  0
 24 25  1  0
 25 26  1  0
 17 27  1  0
 27 28  1  0
 13  5  1  0
 28 14  1  0
 12  8  1  0
 26 21  1  0
M  END
>  <energy_score>  (2744) 
-50.786189

>  <inchikey>  (2744) 
None

>  <smiles>  (2744) 
None

>  <ref_pdb>  (2744) 
A4706a

>  <alias>  (2744) 
None

>  <HIPPO Pose ID>  (2744) 
500388

>  <name>  (2744) 
P500388

>  <HIPPO Compound ID>  (2744) 
314705

>  <ref_mols>  (2744) 
A4706a,A0875a

>  <distance_score>  (2744) 
1.97021

>  <inspiration_score>  (2744) 
None

$$$$
P500389
     RDKit          3D

 28 31  0  0  0  0  0  0  0  0999 V2000
    6.7384   13.0173   22.5606 O   0  0  0  0  0  0  0  0  0  0  0  0
    6.6187   13.9278   23.3779 C   0  0  0  0  0  0  0  0  0  0  0  0
    6.9094   15.2296   23.1379 O   0  0  0  0  0  0  0  0  0  0  0  0
    7.2511   15.6062   21.7771 C   0  0  0  0  0  0  0  0  0  0  0  0
    8.5667   16.3904   21.7042 C   0  0  2  0  0  0  0  0  0  0  0  0
    9.1927   16.9002   20.4169 C   0  0  0  0  0  0  0  0  0  0  0  0
    9.5593   15.8685   19.5186 O   0  0  0  0  0  0  0  0  0  0  0  0
   10.2505   14.8209   20.1592 C   0  0  1  0  0  0  0  0  0  0  0  0
   11.7519   14.9093   20.1472 C   0  0  0  0  0  0  0  0  0  0  0  0
   12.0779   13.7772   21.0116 N   0  0  0  0  0  0  0  0  0  0  0  0
   11.2425   13.9735   22.1830 C   0  0  0  0  0  0  0  0  0  0  0  0
    9.9446   14.5298   21.6385 C   0  0  1  0  0  0  0  0  0  0  0  0
    9.6083   15.6948   22.3819 O   0  0  0  0  0  0  0  0  0  0  0  0
    6.0075   13.7132   24.7688 C   0  0  0  0  0  0  0  0  0  0  0  0
    6.2244   12.2695   25.2495 C   0  0  0  0  0  0  0  0  0  0  0  0
    7.6292   11.9642   25.7516 C   0  0  0  0  0  0  0  0  0  0  0  0
    8.2095   13.1029   26.4963 N   0  0  0  0  0  0  0  0  0  0  0  0
    9.4889   13.9156   25.7537 S   0  0  0  0  0  0  0  0  0  0  0  0
    9.6499   15.1683   26.4498 O   0  0  0  0  0  0  0  0  0  0  0  0
    9.2793   13.8580   24.3355 O   0  0  0  0  0  0  0  0  0  0  0  0
   10.8520   12.9549   26.1157 N   0  0  0  0  0  0  0  0  0  0  0  0
   10.9975   11.7212   25.3178 C   0  0  0  0  0  0  0  0  0  0  0  0
   12.4434   11.2069   25.3668 C   0  0  0  0  0  0  0  0  0  0  0  0
   13.2670   11.6511   26.5422 C   0  0  0  0  0  0  0  0  0  0  0  0
   13.3477   13.1232   26.4970 C   0  0  0  0  0  0  0  0  0  0  0  0
   12.0611   13.8059   26.0296 C   0  0  0  0  0  0  0  0  0  0  0  0
    7.1580   14.0236   27.0188 C   0  0  0  0  0  0  0  0  0  0  0  0
    6.4308   14.7079   25.8608 C   0  0  0  0  0  0  0  0  0  0  0  0
  1  2  2  0
  2  3  1  0
  3  4  1  0
  5  4  1  6
  5  6  1  0
  6  7  1  0
  7  8  1  0
  8  9  1  1
  9 10  1  0
 10 11  1  0
 12 11  1  1
 12 13  1  0
  2 14  1  0
 14 15  1  0
 15 16  1  0
 16 17  1  0
 17 18  1  0
 18 19  2  0
 18 20  2  0
 18 21  1  0
 21 22  1  0
 22 23  1  0
 23 24  1  0
 24 25  1  0
 25 26  1  0
 17 27  1  0
 27 28  1  0
 13  5  1  0
 28 14  1  0
 12  8  1  0
 26 21  1  0
M  END
>  <energy_score>  (2745) 
-50.097423

>  <inchikey>  (2745) 
None

>  <smiles>  (2745) 
None

>  <ref_pdb>  (2745) 
A4706a

>  <alias>  (2745) 
None

>  <HIPPO Pose ID>  (2745) 
500389

>  <name>  (2745) 
P500389

>  <HIPPO Compound ID>  (2745) 
314705

>  <ref_mols>  (2745) 
A4706a,A0875a

>  <distance_score>  (2745) 
1.784932

>  <inspiration_score>  (2745) 
None

$$$$
P500390
     RDKit          3D

 28 31  0  0  0  0  0  0  0  0999 V2000
    5.2255   14.7266   22.9684 O   0  0  0  0  0  0  0  0  0  0  0  0
    6.1584   14.0272   23.3438 C   0  0  0  0  0  0  0  0  0  0  0  0
    7.2848   13.7883   22.6258 O   0  0  0  0  0  0  0  0  0  0  0  0
    7.4555   14.5017   21.3893 C   0  0  0  0  0  0  0  0  0  0  0  0
    8.3439   15.7584   21.4702 C   0  0  2  0  0  0  0  0  0  0  0  0
    9.2267   16.0472   20.2153 C   0  0  0  0  0  0  0  0  0  0  0  0
   10.5590   15.5965   20.2302 O   0  0  0  0  0  0  0  0  0  0  0  0
   11.1560   15.8213   21.4990 C   0  0  2  0  0  0  0  0  0  0  0  0
   12.3426   14.9169   21.5191 C   0  0  0  0  0  0  0  0  0  0  0  0
   11.8494   13.5591   21.9160 N   0  0  0  0  0  0  0  0  0  0  0  0
   10.4338   13.7486   22.2291 C   0  0  0  0  0  0  0  0  0  0  0  0
   10.3513   15.2151   22.6068 C   0  0  2  0  0  0  0  0  0  0  0  0
    9.0718   15.7774   22.6795 O   0  0  0  0  0  0  0  0  0  0  0  0
    6.1808   13.3346   24.7071 C   0  0  0  0  0  0  0  0  0  0  0  0
    7.1526   12.1320   24.7841 C   0  0  0  0  0  0  0  0  0  0  0  0
    7.8138   11.8689   26.1234 C   0  0  0  0  0  0  0  0  0  0  0  0
    8.1877   13.1161   26.8014 N   0  0  0  0  0  0  0  0  0  0  0  0
    9.4817   14.0047   26.1877 S   0  0  0  0  0  0  0  0  0  0  0  0
    9.2396   14.1294   24.7833 O   0  0  0  0  0  0  0  0  0  0  0  0
    9.6243   15.1692   27.0233 O   0  0  0  0  0  0  0  0  0  0  0  0
   10.8557   12.9761   26.4270 N   0  0  0  0  0  0  0  0  0  0  0  0
   11.8570   13.6760   27.2880 C   0  0  0  0  0  0  0  0  0  0  0  0
   13.1360   12.8624   27.4897 C   0  0  0  0  0  0  0  0  0  0  0  0
   13.7669   12.3864   26.2042 C   0  0  0  0  0  0  0  0  0  0  0  0
   12.7336   11.7484   25.3187 C   0  0  0  0  0  0  0  0  0  0  0  0
   11.4802   12.5820   25.1304 C   0  0  0  0  0  0  0  0  0  0  0  0
    6.9691   13.9292   27.0629 C   0  0  0  0  0  0  0  0  0  0  0  0
    6.3791   14.4354   25.7594 C   0  0  0  0  0  0  0  0  0  0  0  0
  1  2  2  0
  2  3  1  0
  3  4  1  0
  5  4  1  6
  5  6  1  0
  6  7  1  0
  7  8  1  0
  8  9  1  6
  9 10  1  0
 10 11  1  0
 12 11  1  6
 12 13  1  0
  2 14  1  0
 14 15  1  0
 15 16  1  0
 16 17  1  0
 17 18  1  0
 18 19  2  0
 18 20  2  0
 18 21  1  0
 21 22  1  0
 22 23  1  0
 23 24  1  0
 24 25  1  0
 25 26  1  0
 17 27  1  0
 27 28  1  0
 13  5  1  0
 28 14  1  0
 12  8  1  0
 26 21  1  0
M  END
>  <energy_score>  (2746) 
-50.826968

>  <inchikey>  (2746) 
None

>  <smiles>  (2746) 
None

>  <ref_pdb>  (2746) 
A4706a

>  <alias>  (2746) 
None

>  <HIPPO Pose ID>  (2746) 
500390

>  <name>  (2746) 
P500390

>  <HIPPO Compound ID>  (2746) 
314705

>  <ref_mols>  (2746) 
A4706a,A0875a

>  <distance_score>  (2746) 
1.71669

>  <inspiration_score>  (2746) 
None

$$$$
P500391
     RDKit          3D

 28 31  0  0  0  0  0  0  0  0999 V2000
    6.6144   13.1253   22.5742 O   0  0  0  0  0  0  0  0  0  0  0  0
    6.5466   14.0463   23.3868 C   0  0  0  0  0  0  0  0  0  0  0  0
    6.9353   15.3238   23.1431 O   0  0  0  0  0  0  0  0  0  0  0  0
    7.3764   15.6317   21.8010 C   0  0  0  0  0  0  0  0  0  0  0  0
    8.8096   15.1987   21.4775 C   0  0  1  0  0  0  0  0  0  0  0  0
    9.2824   15.4965   20.0490 C   0  0  0  0  0  0  0  0  0  0  0  0
   10.5444   14.9185   19.7230 O   0  0  0  0  0  0  0  0  0  0  0  0
   11.4094   14.8933   20.8379 C   0  0  2  0  0  0  0  0  0  0  0  0
   11.3899   13.5556   21.5587 C   0  0  0  0  0  0  0  0  0  0  0  0
   11.5881   13.7755   22.9833 N   0  0  0  0  0  0  0  0  0  0  0  0
   11.8120   15.2128   23.0831 C   0  0  0  0  0  0  0  0  0  0  0  0
   11.0535   15.8481   21.9608 C   0  0  2  0  0  0  0  0  0  0  0  0
    9.6866   15.8827   22.3631 O   0  0  0  0  0  0  0  0  0  0  0  0
    5.9028   13.8993   24.7709 C   0  0  0  0  0  0  0  0  0  0  0  0
    6.0472   12.4607   25.2858 C   0  0  0  0  0  0  0  0  0  0  0  0
    7.4498   12.1061   25.7612 C   0  0  0  0  0  0  0  0  0  0  0  0
    8.0985   13.2370   26.4658 N   0  0  0  0  0  0  0  0  0  0  0  0
    9.4200   13.9578   25.6914 S   0  0  0  0  0  0  0  0  0  0  0  0
    9.6852   15.1985   26.3736 O   0  0  0  0  0  0  0  0  0  0  0  0
    9.1727   13.8963   24.2764 O   0  0  0  0  0  0  0  0  0  0  0  0
   10.6568   12.8901   26.0325 N   0  0  0  0  0  0  0  0  0  0  0  0
   10.7308   11.6238   25.2909 C   0  0  0  0  0  0  0  0  0  0  0  0
   12.0940   10.9996   25.5194 C   0  0  0  0  0  0  0  0  0  0  0  0
   13.1937   11.8399   24.9967 C   0  0  0  0  0  0  0  0  0  0  0  0
   13.1694   13.1460   25.7270 C   0  0  0  0  0  0  0  0  0  0  0  0
   11.9183   13.4604   26.5548 C   0  0  0  0  0  0  0  0  0  0  0  0
    7.1101   14.2134   26.9952 C   0  0  0  0  0  0  0  0  0  0  0  0
    6.3733   14.8961   25.8444 C   0  0  0  0  0  0  0  0  0  0  0  0
  1  2  2  0
  2  3  1  0
  3  4  1  0
  5  4  1  6
  5  6  1  0
  6  7  1  0
  7  8  1  0
  8  9  1  1
  9 10  1  0
 10 11  1  0
 12 11  1  1
 12 13  1  0
  2 14  1  0
 14 15  1  0
 15 16  1  0
 16 17  1  0
 17 18  1  0
 18 19  2  0
 18 20  2  0
 18 21  1  0
 21 22  1  0
 22 23  1  0
 23 24  1  0
 24 25  1  0
 25 26  1  0
 17 27  1  0
 27 28  1  0
 13  5  1  0
 28 14  1  0
 12  8  1  0
 26 21  1  0
M  END
>  <energy_score>  (2747) 
-37.056203

>  <inchikey>  (2747) 
None

>  <smiles>  (2747) 
None

>  <ref_pdb>  (2747) 
A4706a

>  <alias>  (2747) 
None

>  <HIPPO Pose ID>  (2747) 
500391

>  <name>  (2747) 
P500391

>  <HIPPO Compound ID>  (2747) 
314705

>  <ref_mols>  (2747) 
A4706a,A0875a

>  <distance_score>  (2747) 
1.430185

>  <inspiration_score>  (2747) 
None

$$$$
P500392
     RDKit          3D

 28 31  0  0  0  0  0  0  0  0999 V2000
    5.3812   14.4719   22.5382 O   0  0  0  0  0  0  0  0  0  0  0  0
    6.1813   14.8321   23.3827 C   0  0  0  0  0  0  0  0  0  0  0  0
    6.9780   15.9305   23.3558 O   0  0  0  0  0  0  0  0  0  0  0  0
    7.2196   16.5546   22.1061 C   0  0  0  0  0  0  0  0  0  0  0  0
    8.3715   15.9314   21.3199 C   0  0  1  0  0  0  0  0  0  0  0  0
    9.0972   16.9654   20.4362 C   0  0  0  0  0  0  0  0  0  0  0  0
    9.8671   16.2937   19.4257 O   0  0  0  0  0  0  0  0  0  0  0  0
   10.3876   15.0535   19.8984 C   0  0  1  0  0  0  0  0  0  0  0  0
   11.8270   14.8447   19.5147 C   0  0  0  0  0  0  0  0  0  0  0  0
   12.5590   15.4970   20.5941 N   0  0  0  0  0  0  0  0  0  0  0  0
   11.7289   15.6979   21.7466 C   0  0  0  0  0  0  0  0  0  0  0  0
   10.4813   14.9235   21.4115 C   0  0  1  0  0  0  0  0  0  0  0  0
    9.3623   15.3500   22.1692 O   0  0  0  0  0  0  0  0  0  0  0  0
    6.5728   14.1051   24.6269 C   0  0  0  0  0  0  0  0  0  0  0  0
    6.0942   12.7045   24.9049 C   0  0  0  0  0  0  0  0  0  0  0  0
    7.0757   12.0386   25.8788 C   0  0  0  0  0  0  0  0  0  0  0  0
    7.9171   13.0395   26.6076 N   0  0  0  0  0  0  0  0  0  0  0  0
    9.4633   13.5178   26.0470 S   0  0  0  0  0  0  0  0  0  0  0  0
   10.3713   13.4077   27.1582 O   0  0  0  0  0  0  0  0  0  0  0  0
    9.3644   14.7757   25.3448 O   0  0  0  0  0  0  0  0  0  0  0  0
    9.7961   12.3108   24.9288 N   0  0  0  0  0  0  0  0  0  0  0  0
   10.3667   12.7231   23.6706 C   0  0  0  0  0  0  0  0  0  0  0  0
   11.7816   13.2197   23.8976 C   0  0  0  0  0  0  0  0  0  0  0  0
   12.6596   12.4038   24.8182 C   0  0  0  0  0  0  0  0  0  0  0  0
   11.9417   11.4152   25.6794 C   0  0  0  0  0  0  0  0  0  0  0  0
   10.4755   11.1144   25.3505 C   0  0  0  0  0  0  0  0  0  0  0  0
    7.0895   14.1757   27.0983 C   0  0  0  0  0  0  0  0  0  0  0  0
    6.4986   14.9402   25.9098 C   0  0  0  0  0  0  0  0  0  0  0  0
  1  2  2  0
  2  3  1  0
  3  4  1  0
  5  4  1  1
  5  6  1  0
  6  7  1  0
  7  8  1  0
  8  9  1  6
  9 10  1  0
 10 11  1  0
 12 11  1  1
 12 13  1  0
  2 14  1  0
 14 15  1  0
 15 16  1  0
 16 17  1  0
 17 18  1  0
 18 19  2  0
 18 20  2  0
 18 21  1  0
 21 22  1  0
 22 23  1  0
 23 24  1  0
 24 25  1  0
 25 26  1  0
 17 27  1  0
 27 28  1  0
 13  5  1  0
 28 14  1  0
 12  8  1  0
 26 21  1  0
M  END
>  <energy_score>  (2748) 
-14.345527

>  <inchikey>  (2748) 
None

>  <smiles>  (2748) 
None

>  <ref_pdb>  (2748) 
A4706a

>  <alias>  (2748) 
None

>  <HIPPO Pose ID>  (2748) 
500392

>  <name>  (2748) 
P500392

>  <HIPPO Compound ID>  (2748) 
314705

>  <ref_mols>  (2748) 
A0875a,A4706a

>  <distance_score>  (2748) 
1.960359

>  <inspiration_score>  (2748) 
None

$$$$
P500393
     RDKit          3D

 28 31  0  0  0  0  0  0  0  0999 V2000
   15.6647   11.7735   26.1851 O   0  0  0  0  0  0  0  0  0  0  0  0
   14.9151   11.9940   27.1171 C   0  0  0  0  0  0  0  0  0  0  0  0
   15.2509   12.0502   28.4349 O   0  0  0  0  0  0  0  0  0  0  0  0
   16.6037   11.7494   28.8912 C   0  0  0  0  0  0  0  0  0  0  0  0
   16.5506   11.7694   30.4460 C   0  0  2  0  0  0  0  0  0  0  0  0
   15.9775   13.1194   30.9334 C   0  0  0  0  0  0  0  0  0  0  0  0
   16.3936   13.4609   32.3640 C   0  0  0  0  0  0  0  0  0  0  0  0
   16.6854   12.2041   33.1729 C   0  0  0  0  0  0  0  0  0  0  0  0
   17.7819   11.4265   32.6032 N   0  0  0  0  0  0  0  0  0  0  0  0
   17.8917   11.4859   31.1435 C   0  0  0  0  0  0  0  0  0  0  0  0
   17.7892   12.5164   28.2584 C   0  0  0  0  0  0  0  0  0  0  0  0
   18.5321   11.2797   28.0899 O   0  0  0  0  0  0  0  0  0  0  0  0
   17.3197   10.5086   28.2925 C   0  0  0  0  0  0  0  0  0  0  0  0
   13.4093   12.1522   26.9833 C   0  0  0  0  0  0  0  0  0  0  0  0
   12.8998   13.3947   27.6836 C   0  0  0  0  0  0  0  0  0  0  0  0
   11.6143   14.0201   27.1614 C   0  0  0  0  0  0  0  0  0  0  0  0
   10.9859   13.2688   26.0395 N   0  0  0  0  0  0  0  0  0  0  0  0
    9.6427   14.1396   25.4451 S   0  0  0  0  0  0  0  0  0  0  0  0
   10.1299   15.0604   24.4478 O   0  0  0  0  0  0  0  0  0  0  0  0
    8.9091   14.6088   26.5951 O   0  0  0  0  0  0  0  0  0  0  0  0
    8.7281   12.9532   24.6870 N   0  0  0  0  0  0  0  0  0  0  0  0
    8.3262   11.7601   25.4672 C   0  0  0  0  0  0  0  0  0  0  0  0
    7.1235   12.0252   26.3645 C   0  0  0  0  0  0  0  0  0  0  0  0
    5.9595   12.6327   25.5957 C   0  0  0  0  0  0  0  0  0  0  0  0
    6.3899   13.8375   24.7733 C   0  0  0  0  0  0  0  0  0  0  0  0
    7.5954   13.5150   23.8963 C   0  0  0  0  0  0  0  0  0  0  0  0
   11.9675   12.9239   24.9956 C   0  0  0  0  0  0  0  0  0  0  0  0
   12.8824   11.8549   25.5662 C   0  0  0  0  0  0  0  0  0  0  0  0
  1  2  2  0
  2  3  1  0
  3  4  1  0
  5  4  1  6
  5  6  1  0
  6  7  1  0
  7  8  1  0
  8  9  1  0
  9 10  1  0
  4 11  1  0
 11 12  1  0
 12 13  1  0
  2 14  1  0
 14 15  1  0
 15 16  1  0
 16 17  1  0
 17 18  1  0
 18 19  2  0
 18 20  2  0
 18 21  1  0
 21 22  1  0
 22 23  1  0
 23 24  1  0
 24 25  1  0
 25 26  1  0
 17 27  1  0
 27 28  1  0
 13  4  1  0
 28 14  1  0
 10  5  1  0
 26 21  1  0
M  END
>  <energy_score>  (2749) 
-72.628769

>  <inchikey>  (2749) 
None

>  <smiles>  (2749) 
None

>  <ref_pdb>  (2749) 
A4706a

>  <alias>  (2749) 
None

>  <HIPPO Pose ID>  (2749) 
500393

>  <name>  (2749) 
P500393

>  <HIPPO Compound ID>  (2749) 
314706

>  <ref_mols>  (2749) 
A4706a,A0875a

>  <distance_score>  (2749) 
1.823847

>  <inspiration_score>  (2749) 
None

$$$$
P500394
     RDKit          3D

 28 31  0  0  0  0  0  0  0  0999 V2000
    6.7264   13.1733   22.4703 O   0  0  0  0  0  0  0  0  0  0  0  0
    6.6541   14.1020   23.2748 C   0  0  0  0  0  0  0  0  0  0  0  0
    7.0742   15.3782   23.0482 O   0  0  0  0  0  0  0  0  0  0  0  0
    7.4801   15.7025   21.6985 C   0  0  0  0  0  0  0  0  0  0  0  0
    8.9877   15.8080   21.4433 C   0  0  2  0  0  0  0  0  0  0  0  0
    9.3689   16.0758   19.9707 C   0  0  0  0  0  0  0  0  0  0  0  0
   10.7498   15.9134   19.6483 O   0  0  0  0  0  0  0  0  0  0  0  0
   11.1988   14.6194   20.0251 C   0  0  0  0  0  0  0  0  0  0  0  0
   10.9625   14.4860   21.5180 C   0  0  0  0  0  0  0  0  0  0  0  0
   11.9110   15.4409   22.2749 C   0  0  0  0  0  0  0  0  0  0  0  0
   12.0290   14.3694   23.3403 C   0  0  0  0  0  0  0  0  0  0  0  0
   11.5602   13.3404   22.3053 C   0  0  0  0  0  0  0  0  0  0  0  0
    9.5594   14.5717   21.7957 O   0  0  0  0  0  0  0  0  0  0  0  0
    5.9558   13.9400   24.6345 C   0  0  0  0  0  0  0  0  0  0  0  0
    6.1276   12.5085   25.1682 C   0  0  0  0  0  0  0  0  0  0  0  0
    7.5029   12.2276   25.7590 C   0  0  0  0  0  0  0  0  0  0  0  0
    8.0281   13.3747   26.5470 N   0  0  0  0  0  0  0  0  0  0  0  0
    9.3631   14.1816   25.8930 S   0  0  0  0  0  0  0  0  0  0  0  0
    9.5559   15.3853   26.6660 O   0  0  0  0  0  0  0  0  0  0  0  0
    9.1631   14.2502   24.4750 O   0  0  0  0  0  0  0  0  0  0  0  0
   10.6518   13.1576   26.2120 N   0  0  0  0  0  0  0  0  0  0  0  0
   11.7743   13.7519   26.9529 C   0  0  0  0  0  0  0  0  0  0  0  0
   13.1445   13.1831   26.6282 C   0  0  0  0  0  0  0  0  0  0  0  0
   13.1482   11.7152   26.5301 C   0  0  0  0  0  0  0  0  0  0  0  0
   12.2028   11.3582   25.4141 C   0  0  0  0  0  0  0  0  0  0  0  0
   10.7809   11.9019   25.4821 C   0  0  0  0  0  0  0  0  0  0  0  0
    6.9389   14.3053   26.9586 C   0  0  0  0  0  0  0  0  0  0  0  0
    6.3059   14.9603   25.7293 C   0  0  0  0  0  0  0  0  0  0  0  0
  1  2  2  0
  2  3  1  0
  3  4  1  0
  5  4  1  6
  5  6  1  0
  6  7  1  0
  7  8  1  0
  8  9  1  0
  9 10  1  0
 10 11  1  0
 11 12  1  0
  9 13  1  0
  2 14  1  0
 14 15  1  0
 15 16  1  0
 16 17  1  0
 17 18  1  0
 18 19  2  0
 18 20  2  0
 18 21  1  0
 21 22  1  0
 22 23  1  0
 23 24  1  0
 24 25  1  0
 25 26  1  0
 17 27  1  0
 27 28  1  0
 13  5  1  0
 28 14  1  0
 12  9  1  0
 26 21  1  0
M  END
>  <energy_score>  (2750) 
-52.626256

>  <inchikey>  (2750) 
None

>  <smiles>  (2750) 
None

>  <ref_pdb>  (2750) 
A4706a

>  <alias>  (2750) 
None

>  <HIPPO Pose ID>  (2750) 
500394

>  <name>  (2750) 
P500394

>  <HIPPO Compound ID>  (2750) 
314707

>  <ref_mols>  (2750) 
A4706a,A0875a

>  <distance_score>  (2750) 
1.744696

>  <inspiration_score>  (2750) 
None

$$$$
P500395
     RDKit          3D

 28 31  0  0  0  0  0  0  0  0999 V2000
    6.3728   12.9042   22.0826 O   0  0  0  0  0  0  0  0  0  0  0  0
    6.3762   13.9118   22.7829 C   0  0  0  0  0  0  0  0  0  0  0  0
    7.0988   15.0126   22.4616 O   0  0  0  0  0  0  0  0  0  0  0  0
    7.9198   14.7976   21.2850 C   0  0  0  0  0  0  0  0  0  0  0  0
    8.8129   16.0074   20.9579 C   0  0  2  0  0  0  0  0  0  0  0  0
    9.5138   16.0287   19.5654 C   0  0  0  0  0  0  0  0  0  0  0  0
   10.8504   15.5387   19.5026 O   0  0  0  0  0  0  0  0  0  0  0  0
   10.9922   14.4775   20.4156 C   0  0  0  0  0  0  0  0  0  0  0  0
   10.7907   15.0038   21.8281 C   0  0  0  0  0  0  0  0  0  0  0  0
   12.0898   15.3773   22.4787 C   0  0  0  0  0  0  0  0  0  0  0  0
   12.0137   14.0811   23.2694 C   0  0  0  0  0  0  0  0  0  0  0  0
   10.5591   13.9352   22.9013 C   0  0  0  0  0  0  0  0  0  0  0  0
    9.8349   16.0749   21.9228 O   0  0  0  0  0  0  0  0  0  0  0  0
    5.5657   13.9567   24.0661 C   0  0  0  0  0  0  0  0  0  0  0  0
    5.9565   12.7662   24.9812 C   0  0  0  0  0  0  0  0  0  0  0  0
    6.8855   13.1743   26.1213 C   0  0  0  0  0  0  0  0  0  0  0  0
    7.7970   14.2038   25.5768 N   0  0  0  0  0  0  0  0  0  0  0  0
    9.2408   14.4845   26.3755 S   0  0  0  0  0  0  0  0  0  0  0  0
    9.8386   15.6794   25.8386 O   0  0  0  0  0  0  0  0  0  0  0  0
    8.9651   14.3767   27.7840 O   0  0  0  0  0  0  0  0  0  0  0  0
   10.3233   13.2851   25.9632 N   0  0  0  0  0  0  0  0  0  0  0  0
   11.5743   13.4640   26.7420 C   0  0  0  0  0  0  0  0  0  0  0  0
   12.6325   12.4028   26.5390 C   0  0  0  0  0  0  0  0  0  0  0  0
   12.3829   11.5023   25.3613 C   0  0  0  0  0  0  0  0  0  0  0  0
   10.9222   11.1093   25.0926 C   0  0  0  0  0  0  0  0  0  0  0  0
    9.8532   11.9399   25.7504 C   0  0  0  0  0  0  0  0  0  0  0  0
    7.0438   15.4871   25.4103 C   0  0  0  0  0  0  0  0  0  0  0  0
    5.6579   15.2652   24.8293 C   0  0  0  0  0  0  0  0  0  0  0  0
  1  2  2  0
  2  3  1  0
  3  4  1  0
  5  4  1  1
  5  6  1  0
  6  7  1  0
  7  8  1  0
  8  9  1  0
  9 10  1  0
 10 11  1  0
 11 12  1  0
  9 13  1  0
  2 14  1  0
 14 15  1  0
 15 16  1  0
 16 17  1  0
 17 18  1  0
 18 19  2  0
 18 20  2  0
 18 21  1  0
 21 22  1  0
 22 23  1  0
 23 24  1  0
 24 25  1  0
 25 26  1  0
 17 27  1  0
 27 28  1  0
 13  5  1  0
 28 14  1  0
 12  9  1  0
 26 21  1  0
M  END
>  <energy_score>  (2751) 
-47.734851

>  <inchikey>  (2751) 
None

>  <smiles>  (2751) 
None

>  <ref_pdb>  (2751) 
A4706a

>  <alias>  (2751) 
None

>  <HIPPO Pose ID>  (2751) 
500395

>  <name>  (2751) 
P500395

>  <HIPPO Compound ID>  (2751) 
314707

>  <ref_mols>  (2751) 
A4706a,A0875a

>  <distance_score>  (2751) 
1.880455

>  <inspiration_score>  (2751) 
None

$$$$
P500396
     RDKit          3D

 28 30  0  0  0  0  0  0  0  0999 V2000
   14.9352   11.1792   30.0350 C   0  0  0  0  0  0  0  0  0  0  0  0
   15.9490   12.1062   29.3412 C   0  0  2  0  0  0  0  0  0  0  0  0
   16.1050   13.3932   30.2257 C   0  0  0  0  0  0  0  0  0  0  0  0
   16.5730   13.1984   31.5958 N   0  0  0  0  0  0  0  0  0  0  0  0
   15.3452   12.6265   28.0954 O   0  0  0  0  0  0  0  0  0  0  0  0
   14.8582   11.8580   27.0765 C   0  0  0  0  0  0  0  0  0  0  0  0
   15.1675   10.7195   26.7773 O   0  0  0  0  0  0  0  0  0  0  0  0
   13.7679   12.6251   26.3436 C   0  0  0  0  0  0  0  0  0  0  0  0
   12.7923   13.1545   27.3870 C   0  0  0  0  0  0  0  0  0  0  0  0
   11.3638   13.3653   26.9118 C   0  0  0  0  0  0  0  0  0  0  0  0
   11.3377   13.6979   25.4973 N   0  0  0  0  0  0  0  0  0  0  0  0
    9.9418   14.4846   24.9621 S   0  0  0  0  0  0  0  0  0  0  0  0
   10.2373   15.0055   23.6529 O   0  0  0  0  0  0  0  0  0  0  0  0
    9.4952   15.3256   26.0455 O   0  0  0  0  0  0  0  0  0  0  0  0
    8.8781   13.1796   24.8162 N   0  0  0  0  0  0  0  0  0  0  0  0
    7.7260   13.1322   25.7504 C   0  0  0  0  0  0  0  0  0  0  0  0
    6.6083   14.0652   25.2938 C   0  0  0  0  0  0  0  0  0  0  0  0
    6.1868   13.7623   23.8593 C   0  0  0  0  0  0  0  0  0  0  0  0
    7.3899   13.7515   22.9189 C   0  0  0  0  0  0  0  0  0  0  0  0
    8.4920   12.8257   23.4318 C   0  0  0  0  0  0  0  0  0  0  0  0
   11.9165   12.6868   24.6007 C   0  0  0  0  0  0  0  0  0  0  0  0
   12.9772   11.8252   25.3147 C   0  0  0  0  0  0  0  0  0  0  0  0
   17.3264   11.4012   29.1399 C   0  0  2  0  0  0  0  0  0  0  0  0
   18.3289   12.2451   28.3491 C   0  0  0  0  0  0  0  0  0  0  0  0
   19.6693   11.5317   28.1742 C   0  0  0  0  0  0  0  0  0  0  0  0
   19.5395   10.0154   28.2481 C   0  0  0  0  0  0  0  0  0  0  0  0
   18.1692    9.5768   27.7700 C   0  0  0  0  0  0  0  0  0  0  0  0
   17.1193   10.1014   28.5748 O   0  0  0  0  0  0  0  0  0  0  0  0
  2  1  1  1
  2  3  1  0
  3  4  1  0
  2  5  1  0
  5  6  1  0
  6  7  2  0
  6  8  1  0
  8  9  1  0
  9 10  1  0
 10 11  1  0
 11 12  1  0
 12 13  2  0
 12 14  2  0
 12 15  1  0
 15 16  1  0
 16 17  1  0
 17 18  1  0
 18 19  1  0
 19 20  1  0
 11 21  1  0
 21 22  1  0
  2 23  1  0
 23 24  1  6
 24 25  1  0
 25 26  1  0
 26 27  1  0
 27 28  1  0
 22  8  1  0
 28 23  1  0
 20 15  1  0
M  END
>  <energy_score>  (2752) 
-100.329115

>  <inchikey>  (2752) 
None

>  <smiles>  (2752) 
None

>  <ref_pdb>  (2752) 
A4706a

>  <alias>  (2752) 
None

>  <HIPPO Pose ID>  (2752) 
500396

>  <name>  (2752) 
P500396

>  <HIPPO Compound ID>  (2752) 
314708

>  <ref_mols>  (2752) 
A4706a,A0875a

>  <distance_score>  (2752) 
1.851294

>  <inspiration_score>  (2752) 
None

$$$$
P500397
     RDKit          3D

 28 30  0  0  0  0  0  0  0  0999 V2000
   10.8826   15.3747   19.0486 C   0  0  0  0  0  0  0  0  0  0  0  0
    9.8051   16.2825   19.3379 O   0  0  0  0  0  0  0  0  0  0  0  0
    9.3466   16.5873   20.5788 C   0  0  0  0  0  0  0  0  0  0  0  0
    8.9882   17.7412   20.8012 O   0  0  0  0  0  0  0  0  0  0  0  0
    9.2747   15.4974   21.6445 C   0  0  2  0  0  0  0  0  0  0  0  0
    8.9598   14.1498   21.0681 C   0  0  0  0  0  0  0  0  0  0  0  0
    7.6108   14.1061   20.5957 O   0  0  0  0  0  0  0  0  0  0  0  0
    6.5689   14.3562   21.5375 C   0  0  0  0  0  0  0  0  0  0  0  0
    7.1777   14.6047   22.8740 C   0  0  2  0  0  0  0  0  0  0  0  0
    6.2532   14.7780   23.9381 O   0  0  0  0  0  0  0  0  0  0  0  0
    5.8633   13.5502   24.3713 C   0  0  0  0  0  0  0  0  0  0  0  0
    5.8887   12.5484   23.6621 O   0  0  0  0  0  0  0  0  0  0  0  0
    5.4947   13.4651   25.8299 C   0  0  0  0  0  0  0  0  0  0  0  0
    6.0246   12.0940   26.3135 C   0  0  0  0  0  0  0  0  0  0  0  0
    7.5469   12.0030   26.1383 C   0  0  0  0  0  0  0  0  0  0  0  0
    8.1875   13.2484   26.5867 N   0  0  0  0  0  0  0  0  0  0  0  0
    9.4621   13.9475   25.7745 S   0  0  0  0  0  0  0  0  0  0  0  0
    9.3438   13.8125   24.3527 O   0  0  0  0  0  0  0  0  0  0  0  0
    9.7000   15.2348   26.3781 O   0  0  0  0  0  0  0  0  0  0  0  0
   10.7625   12.9514   26.1349 N   0  0  0  0  0  0  0  0  0  0  0  0
   12.0378   13.7125   26.1063 C   0  0  0  0  0  0  0  0  0  0  0  0
   12.9172   13.2888   24.9370 C   0  0  0  0  0  0  0  0  0  0  0  0
   13.3940   11.8758   25.1453 C   0  0  0  0  0  0  0  0  0  0  0  0
   12.2170   11.0863   25.6138 C   0  0  0  0  0  0  0  0  0  0  0  0
   10.8463   11.6963   25.3274 C   0  0  0  0  0  0  0  0  0  0  0  0
    7.3462   14.1236   27.4384 C   0  0  0  0  0  0  0  0  0  0  0  0
    6.1067   14.5844   26.6828 C   0  0  0  0  0  0  0  0  0  0  0  0
    8.1792   15.7510   22.7085 C   0  0  0  0  0  0  0  0  0  0  0  0
  1  2  1  0
  2  3  1  0
  3  4  2  0
  5  3  1  6
  5  6  1  0
  6  7  1  0
  7  8  1  0
  8  9  1  0
  9 10  1  1
 10 11  1  0
 11 12  2  0
 11 13  1  0
 13 14  1  0
 14 15  1  0
 15 16  1  0
 16 17  1  0
 17 18  2  0
 17 19  2  0
 17 20  1  0
 20 21  1  0
 21 22  1  0
 22 23  1  0
 23 24  1  0
 24 25  1  0
 16 26  1  0
 26 27  1  0
  9 28  1  0
 28  5  1  0
 27 13  1  0
 25 20  1  0
M  END
>  <energy_score>  (2753) 
-8.836734

>  <inchikey>  (2753) 
None

>  <smiles>  (2753) 
None

>  <ref_pdb>  (2753) 
A4706a

>  <alias>  (2753) 
None

>  <HIPPO Pose ID>  (2753) 
500397

>  <name>  (2753) 
P500397

>  <HIPPO Compound ID>  (2753) 
314709

>  <ref_mols>  (2753) 
A4706a,A0875a

>  <distance_score>  (2753) 
1.847494

>  <inspiration_score>  (2753) 
None

$$$$
P500398
     RDKit          3D

 28 30  0  0  0  0  0  0  0  0999 V2000
   11.3295   14.7226   18.4768 C   0  0  0  0  0  0  0  0  0  0  0  0
   10.8596   15.7224   19.3528 O   0  0  0  0  0  0  0  0  0  0  0  0
   10.1227   15.2293   20.3687 C   0  0  0  0  0  0  0  0  0  0  0  0
    9.6913   14.0924   20.4571 O   0  0  0  0  0  0  0  0  0  0  0  0
    9.9951   16.2618   21.4412 C   0  0  1  0  0  0  0  0  0  0  0  0
    9.1293   17.3981   20.9482 C   0  0  0  0  0  0  0  0  0  0  0  0
    7.7822   17.0303   20.9472 O   0  0  0  0  0  0  0  0  0  0  0  0
    7.1841   16.6119   22.1426 C   0  0  0  0  0  0  0  0  0  0  0  0
    7.9589   15.5063   22.8059 C   0  0  1  0  0  0  0  0  0  0  0  0
    7.4805   14.2888   22.2171 O   0  0  0  0  0  0  0  0  0  0  0  0
    6.8964   13.4177   23.0529 C   0  0  0  0  0  0  0  0  0  0  0  0
    5.8768   12.8261   22.7434 O   0  0  0  0  0  0  0  0  0  0  0  0
    7.6363   13.1511   24.3211 C   0  0  0  0  0  0  0  0  0  0  0  0
    8.2478   11.7677   24.3909 C   0  0  0  0  0  0  0  0  0  0  0  0
    8.8733   11.5340   25.7514 C   0  0  0  0  0  0  0  0  0  0  0  0
    9.0630   12.7848   26.5043 N   0  0  0  0  0  0  0  0  0  0  0  0
   10.4344   13.7556   26.3917 S   0  0  0  0  0  0  0  0  0  0  0  0
   10.4441   14.4505   25.1306 O   0  0  0  0  0  0  0  0  0  0  0  0
   10.4428   14.5140   27.6160 O   0  0  0  0  0  0  0  0  0  0  0  0
   11.7527   12.6782   26.3998 N   0  0  0  0  0  0  0  0  0  0  0  0
   12.8629   12.9943   27.3531 C   0  0  0  0  0  0  0  0  0  0  0  0
   14.2697   12.7689   26.7966 C   0  0  0  0  0  0  0  0  0  0  0  0
   14.4178   11.4268   26.1607 C   0  0  0  0  0  0  0  0  0  0  0  0
   13.2997   11.2214   25.1708 C   0  0  0  0  0  0  0  0  0  0  0  0
   12.2462   12.3291   25.0609 C   0  0  0  0  0  0  0  0  0  0  0  0
    7.7715   13.5331   26.7537 C   0  0  0  0  0  0  0  0  0  0  0  0
    6.8226   13.4465   25.5633 C   0  0  0  0  0  0  0  0  0  0  0  0
    9.4822   15.5558   22.6816 C   0  0  0  0  0  0  0  0  0  0  0  0
  1  2  1  0
  2  3  1  0
  3  4  2  0
  5  3  1  6
  5  6  1  0
  6  7  1  0
  7  8  1  0
  8  9  1  0
  9 10  1  6
 10 11  1  0
 11 12  2  0
 11 13  1  0
 13 14  1  0
 14 15  1  0
 15 16  1  0
 16 17  1  0
 17 18  2  0
 17 19  2  0
 17 20  1  0
 20 21  1  0
 21 22  1  0
 22 23  1  0
 23 24  1  0
 24 25  1  0
 16 26  1  0
 26 27  1  0
  9 28  1  0
 28  5  1  0
 27 13  1  0
 25 20  1  0
M  END
>  <energy_score>  (2754) 
-36.813024

>  <inchikey>  (2754) 
None

>  <smiles>  (2754) 
None

>  <ref_pdb>  (2754) 
A4706a

>  <alias>  (2754) 
None

>  <HIPPO Pose ID>  (2754) 
500398

>  <name>  (2754) 
P500398

>  <HIPPO Compound ID>  (2754) 
314709

>  <ref_mols>  (2754) 
A4706a,A0875a

>  <distance_score>  (2754) 
1.623426

>  <inspiration_score>  (2754) 
None

$$$$
P500399
     RDKit          3D

 28 30  0  0  0  0  0  0  0  0999 V2000
   11.2843   14.9554   18.4520 C   0  0  0  0  0  0  0  0  0  0  0  0
   10.3674   16.0099   18.7291 O   0  0  0  0  0  0  0  0  0  0  0  0
    9.9264   16.2395   19.9797 C   0  0  0  0  0  0  0  0  0  0  0  0
    9.3662   17.2940   20.2539 O   0  0  0  0  0  0  0  0  0  0  0  0
   10.0694   15.1197   20.9740 C   0  0  1  0  0  0  0  0  0  0  0  0
   10.5323   15.6857   22.3023 C   0  0  0  0  0  0  0  0  0  0  0  0
    9.5333   15.8226   23.3021 O   0  0  0  0  0  0  0  0  0  0  0  0
    8.1898   15.6868   22.8510 C   0  0  0  0  0  0  0  0  0  0  0  0
    8.0618   14.2918   22.2980 C   0  0  1  0  0  0  0  0  0  0  0  0
    6.6995   13.8293   22.2810 O   0  0  0  0  0  0  0  0  0  0  0  0
    6.0618   13.6725   23.4944 C   0  0  0  0  0  0  0  0  0  0  0  0
    4.8433   13.7180   23.5917 O   0  0  0  0  0  0  0  0  0  0  0  0
    6.9592   13.3888   24.6856 C   0  0  0  0  0  0  0  0  0  0  0  0
    7.4744   11.9536   24.7438 C   0  0  0  0  0  0  0  0  0  0  0  0
    8.2873   11.6968   26.0089 C   0  0  0  0  0  0  0  0  0  0  0  0
    8.8041   12.9553   26.5983 N   0  0  0  0  0  0  0  0  0  0  0  0
   10.1842   13.6758   25.9125 S   0  0  0  0  0  0  0  0  0  0  0  0
   10.3981   14.9294   26.5875 O   0  0  0  0  0  0  0  0  0  0  0  0
   10.0475   13.5868   24.4840 O   0  0  0  0  0  0  0  0  0  0  0  0
   11.4677   12.6015   26.3084 N   0  0  0  0  0  0  0  0  0  0  0  0
   12.5614   13.1472   27.1448 C   0  0  0  0  0  0  0  0  0  0  0  0
   13.9505   12.9343   26.5514 C   0  0  0  0  0  0  0  0  0  0  0  0
   14.2156   11.4877   26.3187 C   0  0  0  0  0  0  0  0  0  0  0  0
   13.2200   11.0333   25.2934 C   0  0  0  0  0  0  0  0  0  0  0  0
   11.9206   11.8361   25.1332 C   0  0  0  0  0  0  0  0  0  0  0  0
    7.6734   13.9046   26.9836 C   0  0  0  0  0  0  0  0  0  0  0  0
    6.4498   13.7878   26.0558 C   0  0  0  0  0  0  0  0  0  0  0  0
    8.7568   14.3567   20.9698 C   0  0  0  0  0  0  0  0  0  0  0  0
  1  2  1  0
  2  3  1  0
  3  4  2  0
  5  3  1  6
  5  6  1  0
  6  7  1  0
  7  8  1  0
  8  9  1  0
  9 10  1  6
 10 11  1  0
 11 12  2  0
 11 13  1  0
 13 14  1  0
 14 15  1  0
 15 16  1  0
 16 17  1  0
 17 18  2  0
 17 19  2  0
 17 20  1  0
 20 21  1  0
 21 22  1  0
 22 23  1  0
 23 24  1  0
 24 25  1  0
 16 26  1  0
 26 27  1  0
  9 28  1  0
 28  5  1  0
 27 13  1  0
 25 20  1  0
M  END
>  <energy_score>  (2755) 
-9.557526

>  <inchikey>  (2755) 
None

>  <smiles>  (2755) 
None

>  <ref_pdb>  (2755) 
A4706a

>  <alias>  (2755) 
None

>  <HIPPO Pose ID>  (2755) 
500399

>  <name>  (2755) 
P500399

>  <HIPPO Compound ID>  (2755) 
314709

>  <ref_mols>  (2755) 
A0875a,A4706a

>  <distance_score>  (2755) 
1.863016

>  <inspiration_score>  (2755) 
None

$$$$
P500400
     RDKit          3D

 28 30  0  0  0  0  0  0  0  0999 V2000
    7.9646   19.3129   19.3253 C   0  0  0  0  0  0  0  0  0  0  0  0
    8.5552   18.0411   19.6041 O   0  0  0  0  0  0  0  0  0  0  0  0
    8.5644   17.7408   20.9222 C   0  0  0  0  0  0  0  0  0  0  0  0
    8.3903   18.5924   21.7740 O   0  0  0  0  0  0  0  0  0  0  0  0
    8.8350   16.2616   21.2143 C   0  0  2  0  0  0  0  0  0  0  0  0
    8.1055   15.8719   22.4038 O   0  0  0  0  0  0  0  0  0  0  0  0
    7.3431   14.7437   22.4292 C   0  0  0  0  0  0  0  0  0  0  0  0
    6.9180   14.1117   21.4768 O   0  0  0  0  0  0  0  0  0  0  0  0
    7.1917   14.3307   23.8750 C   0  0  0  0  0  0  0  0  0  0  0  0
    6.8091   12.9056   24.2533 C   0  0  0  0  0  0  0  0  0  0  0  0
    7.1674   12.6168   25.7274 C   0  0  0  0  0  0  0  0  0  0  0  0
    7.6317   13.8323   26.4342 N   0  0  0  0  0  0  0  0  0  0  0  0
    9.2203   14.4133   26.5049 S   0  0  0  0  0  0  0  0  0  0  0  0
    9.3967   14.8923   27.8511 O   0  0  0  0  0  0  0  0  0  0  0  0
    9.4925   15.3005   25.3973 O   0  0  0  0  0  0  0  0  0  0  0  0
   10.2700   13.1114   26.2972 N   0  0  0  0  0  0  0  0  0  0  0  0
   10.2747   12.5687   24.9318 C   0  0  0  0  0  0  0  0  0  0  0  0
   10.9525   11.2421   25.0212 C   0  0  0  0  0  0  0  0  0  0  0  0
   12.4431   11.5279   25.2835 C   0  0  0  0  0  0  0  0  0  0  0  0
   12.6849   12.4199   26.4926 C   0  0  0  0  0  0  0  0  0  0  0  0
   11.6764   13.5583   26.6120 C   0  0  0  0  0  0  0  0  0  0  0  0
    6.6220   14.9220   26.2806 C   0  0  0  0  0  0  0  0  0  0  0  0
    6.4999   15.3282   24.8022 C   0  0  0  0  0  0  0  0  0  0  0  0
   10.3561   16.1385   21.4755 C   0  0  2  0  0  0  0  0  0  0  0  0
   11.1100   15.6785   20.2506 C   0  0  0  0  0  0  0  0  0  0  0  0
   11.0093   14.2046   20.2879 C   0  0  0  0  0  0  0  0  0  0  0  0
   10.8151   13.8661   21.7587 C   0  0  0  0  0  0  0  0  0  0  0  0
   10.7884   15.1358   22.4634 N   0  0  0  0  0  0  0  0  0  0  0  0
  1  2  1  0
  2  3  1  0
  3  4  2  0
  3  5  1  0
  5  6  1  1
  6  7  1  0
  7  8  2  0
  7  9  1  0
  9 10  1  0
 10 11  1  0
 11 12  1  0
 12 13  1  0
 13 14  2  0
 13 15  2  0
 13 16  1  0
 16 17  1  0
 17 18  1  0
 18 19  1  0
 19 20  1  0
 20 21  1  0
 12 22  1  0
 22 23  1  0
  5 24  1  0
 24 25  1  6
 25 26  1  0
 26 27  1  0
 27 28  1  0
 23  9  1  0
 28 24  1  0
 21 16  1  0
M  END
>  <energy_score>  (2756) 
-17.949463

>  <inchikey>  (2756) 
None

>  <smiles>  (2756) 
None

>  <ref_pdb>  (2756) 
A4706a

>  <alias>  (2756) 
None

>  <HIPPO Pose ID>  (2756) 
500400

>  <name>  (2756) 
P500400

>  <HIPPO Compound ID>  (2756) 
314710

>  <ref_mols>  (2756) 
A4706a,A0875a

>  <distance_score>  (2756) 
1.73619

>  <inspiration_score>  (2756) 
None

$$$$
P500401
     RDKit          3D

 28 30  0  0  0  0  0  0  0  0999 V2000
    8.5666   18.2059   21.0084 C   0  0  0  0  0  0  0  0  0  0  0  0
    8.6950   16.7931   21.0443 O   0  0  0  0  0  0  0  0  0  0  0  0
    7.8788   16.0648   21.8329 C   0  0  0  0  0  0  0  0  0  0  0  0
    6.9415   16.4820   22.5024 O   0  0  0  0  0  0  0  0  0  0  0  0
    8.2338   14.5898   21.7449 C   0  0  2  0  0  0  0  0  0  0  0  0
    7.7927   14.0040   23.0034 O   0  0  0  0  0  0  0  0  0  0  0  0
    6.5062   13.5961   23.0456 C   0  0  0  0  0  0  0  0  0  0  0  0
    5.8927   13.2349   22.0482 O   0  0  0  0  0  0  0  0  0  0  0  0
    5.9167   13.5168   24.4469 C   0  0  0  0  0  0  0  0  0  0  0  0
    6.3266   12.2151   25.1382 C   0  0  0  0  0  0  0  0  0  0  0  0
    7.7417   12.2638   25.6691 C   0  0  0  0  0  0  0  0  0  0  0  0
    8.0052   13.4815   26.4429 N   0  0  0  0  0  0  0  0  0  0  0  0
    9.4330   14.3288   26.1944 S   0  0  0  0  0  0  0  0  0  0  0  0
    9.4527   14.9317   24.8877 O   0  0  0  0  0  0  0  0  0  0  0  0
    9.5880   15.1653   27.3599 O   0  0  0  0  0  0  0  0  0  0  0  0
   10.6138   13.1014   26.2818 N   0  0  0  0  0  0  0  0  0  0  0  0
   11.8024   13.5933   27.0333 C   0  0  0  0  0  0  0  0  0  0  0  0
   13.0027   12.6574   26.9423 C   0  0  0  0  0  0  0  0  0  0  0  0
   13.3616   12.2693   25.5186 C   0  0  0  0  0  0  0  0  0  0  0  0
   12.3376   12.8315   24.5475 C   0  0  0  0  0  0  0  0  0  0  0  0
   10.9421   12.4505   24.9847 C   0  0  0  0  0  0  0  0  0  0  0  0
    6.8221   14.3522   26.6589 C   0  0  0  0  0  0  0  0  0  0  0  0
    6.2031   14.7405   25.3231 C   0  0  0  0  0  0  0  0  0  0  0  0
    9.7217   14.2656   21.4975 C   0  0  1  0  0  0  0  0  0  0  0  0
   10.2676   14.6432   20.1156 C   0  0  0  0  0  0  0  0  0  0  0  0
   11.7316   14.8112   20.3802 C   0  0  0  0  0  0  0  0  0  0  0  0
   11.7390   15.4792   21.7357 C   0  0  0  0  0  0  0  0  0  0  0  0
   10.7197   14.7500   22.4720 N   0  0  0  0  0  0  0  0  0  0  0  0
  1  2  1  0
  2  3  1  0
  3  4  2  0
  3  5  1  0
  5  6  1  1
  6  7  1  0
  7  8  2  0
  7  9  1  0
  9 10  1  0
 10 11  1  0
 11 12  1  0
 12 13  1  0
 13 14  2  0
 13 15  2  0
 13 16  1  0
 16 17  1  0
 17 18  1  0
 18 19  1  0
 19 20  1  0
 20 21  1  0
 12 22  1  0
 22 23  1  0
  5 24  1  0
 24 25  1  6
 25 26  1  0
 26 27  1  0
 27 28  1  0
 23  9  1  0
 28 24  1  0
 21 16  1  0
M  END
>  <energy_score>  (2757) 
-51.656594

>  <inchikey>  (2757) 
None

>  <smiles>  (2757) 
None

>  <ref_pdb>  (2757) 
A4706a

>  <alias>  (2757) 
None

>  <HIPPO Pose ID>  (2757) 
500401

>  <name>  (2757) 
P500401

>  <HIPPO Compound ID>  (2757) 
314710

>  <ref_mols>  (2757) 
A0875a,A4706a

>  <distance_score>  (2757) 
1.610608

>  <inspiration_score>  (2757) 
None

$$$$
P500402
     RDKit          3D

 28 31  0  0  0  0  0  0  0  0999 V2000
    5.3702   14.9420   22.8112 O   0  0  0  0  0  0  0  0  0  0  0  0
    6.3634   15.1401   23.4881 C   0  0  0  0  0  0  0  0  0  0  0  0
    7.4250   15.9552   23.1670 O   0  0  0  0  0  0  0  0  0  0  0  0
    7.8129   16.1497   21.7784 C   0  0  0  0  0  0  0  0  0  0  0  0
    9.2193   15.5338   21.4205 C   0  0  2  0  0  0  0  0  0  0  0  0
    9.2897   15.2744   19.9285 C   0  0  0  0  0  0  0  0  0  0  0  0
   10.3752   14.4329   19.5842 O   0  0  0  0  0  0  0  0  0  0  0  0
   11.5895   15.0631   19.9575 C   0  0  0  0  0  0  0  0  0  0  0  0
   11.5679   15.6777   21.3811 C   0  0  2  0  0  0  0  0  0  0  0  0
   11.6681   14.6236   22.4619 C   0  0  0  0  0  0  0  0  0  0  0  0
   10.6681   13.6450   22.2712 O   0  0  0  0  0  0  0  0  0  0  0  0
    9.3968   14.2789   22.2707 C   0  0  0  0  0  0  0  0  0  0  0  0
   10.3424   16.4172   21.6564 O   0  0  0  0  0  0  0  0  0  0  0  0
    6.7134   14.4529   24.7974 C   0  0  0  0  0  0  0  0  0  0  0  0
    6.3054   12.9994   25.0451 C   0  0  0  0  0  0  0  0  0  0  0  0
    7.1264   12.3569   26.1993 C   0  0  0  0  0  0  0  0  0  0  0  0
    8.2281   13.2690   26.7028 N   0  0  0  0  0  0  0  0  0  0  0  0
    9.5686   13.4203   25.6578 S   0  0  0  0  0  0  0  0  0  0  0  0
    9.1987   12.6531   24.4925 O   0  0  0  0  0  0  0  0  0  0  0  0
    9.9050   14.8248   25.5890 O   0  0  0  0  0  0  0  0  0  0  0  0
   10.9010   12.6365   26.3518 N   0  0  0  0  0  0  0  0  0  0  0  0
   11.7512   13.5450   27.1722 C   0  0  0  0  0  0  0  0  0  0  0  0
   13.0671   12.8972   27.6157 C   0  0  0  0  0  0  0  0  0  0  0  0
   13.8942   12.3118   26.4970 C   0  0  0  0  0  0  0  0  0  0  0  0
   13.1167   12.2545   25.2092 C   0  0  0  0  0  0  0  0  0  0  0  0
   11.6666   11.8507   25.3353 C   0  0  0  0  0  0  0  0  0  0  0  0
    7.6055   14.5609   27.1678 C   0  0  0  0  0  0  0  0  0  0  0  0
    6.7424   15.2519   26.0845 C   0  0  0  0  0  0  0  0  0  0  0  0
  1  2  2  0
  2  3  1  0
  3  4  1  0
  5  4  1  6
  5  6  1  0
  6  7  1  0
  7  8  1  0
  9  8  1  6
  9 10  1  0
 10 11  1  0
 11 12  1  0
  9 13  1  0
  2 14  1  0
 14 15  1  0
 15 16  1  0
 16 17  1  0
 17 18  1  0
 18 19  2  0
 18 20  2  0
 18 21  1  0
 21 22  1  0
 22 23  1  0
 23 24  1  0
 24 25  1  0
 25 26  1  0
 17 27  1  0
 27 28  1  0
 12  5  1  0
 28 14  1  0
 13  5  1  0
 26 21  1  0
M  END
>  <energy_score>  (2758) 
-50.115796

>  <inchikey>  (2758) 
None

>  <smiles>  (2758) 
None

>  <ref_pdb>  (2758) 
A4706a

>  <alias>  (2758) 
None

>  <HIPPO Pose ID>  (2758) 
500402

>  <name>  (2758) 
P500402

>  <HIPPO Compound ID>  (2758) 
314711

>  <ref_mols>  (2758) 
A4706a,A0875a

>  <distance_score>  (2758) 
1.846714

>  <inspiration_score>  (2758) 
None

$$$$
P500403
     RDKit          3D

 28 31  0  0  0  0  0  0  0  0999 V2000
    6.3910   14.0385   22.0060 O   0  0  0  0  0  0  0  0  0  0  0  0
    6.6442   14.6858   23.0209 C   0  0  0  0  0  0  0  0  0  0  0  0
    7.5295   15.7143   23.0666 O   0  0  0  0  0  0  0  0  0  0  0  0
    8.1533   16.1319   21.8333 C   0  0  0  0  0  0  0  0  0  0  0  0
    9.4399   15.3853   21.3838 C   0  0  2  0  0  0  0  0  0  0  0  0
    9.3136   15.1687   19.8814 C   0  0  0  0  0  0  0  0  0  0  0  0
   10.3900   14.3995   19.3431 O   0  0  0  0  0  0  0  0  0  0  0  0
   11.6272   15.0687   19.6236 C   0  0  0  0  0  0  0  0  0  0  0  0
   11.7964   15.4123   21.1370 C   0  0  2  0  0  0  0  0  0  0  0  0
   11.8755   15.0339   22.6204 C   0  0  0  0  0  0  0  0  0  0  0  0
   10.8782   14.0872   23.0362 O   0  0  0  0  0  0  0  0  0  0  0  0
    9.7331   14.0751   22.1559 C   0  0  0  0  0  0  0  0  0  0  0  0
   10.6004   16.2439   21.3745 O   0  0  0  0  0  0  0  0  0  0  0  0
    6.0504   14.3102   24.3852 C   0  0  0  0  0  0  0  0  0  0  0  0
    6.5923   12.9003   24.7231 C   0  0  0  0  0  0  0  0  0  0  0  0
    6.8509   12.6381   26.1890 C   0  0  0  0  0  0  0  0  0  0  0  0
    7.5358   13.7756   26.8170 N   0  0  0  0  0  0  0  0  0  0  0  0
    9.0720   14.3257   26.3625 S   0  0  0  0  0  0  0  0  0  0  0  0
    9.4796   15.2548   27.3881 O   0  0  0  0  0  0  0  0  0  0  0  0
    9.0351   14.7836   24.9996 O   0  0  0  0  0  0  0  0  0  0  0  0
   10.1550   13.0037   26.4304 N   0  0  0  0  0  0  0  0  0  0  0  0
   11.5450   13.5795   26.4329 C   0  0  0  0  0  0  0  0  0  0  0  0
   12.6236   12.5244   26.3680 C   0  0  0  0  0  0  0  0  0  0  0  0
   12.4164   11.6728   25.1462 C   0  0  0  0  0  0  0  0  0  0  0  0
   11.0189   11.0535   25.0977 C   0  0  0  0  0  0  0  0  0  0  0  0
    9.9200   12.0380   25.3400 C   0  0  0  0  0  0  0  0  0  0  0  0
    6.5456   14.8904   26.8849 C   0  0  0  0  0  0  0  0  0  0  0  0
    6.1949   15.3907   25.4827 C   0  0  0  0  0  0  0  0  0  0  0  0
  1  2  2  0
  2  3  1  0
  3  4  1  0
  5  4  1  1
  5  6  1  0
  6  7  1  0
  7  8  1  0
  9  8  1  6
  9 10  1  0
 10 11  1  0
 11 12  1  0
  9 13  1  0
  2 14  1  0
 14 15  1  0
 15 16  1  0
 16 17  1  0
 17 18  1  0
 18 19  2  0
 18 20  2  0
 18 21  1  0
 21 22  1  0
 22 23  1  0
 23 24  1  0
 24 25  1  0
 25 26  1  0
 17 27  1  0
 27 28  1  0
 12  5  1  0
 28 14  1  0
 13  5  1  0
 26 21  1  0
M  END
>  <energy_score>  (2759) 
-32.951437

>  <inchikey>  (2759) 
None

>  <smiles>  (2759) 
None

>  <ref_pdb>  (2759) 
A4706a

>  <alias>  (2759) 
None

>  <HIPPO Pose ID>  (2759) 
500403

>  <name>  (2759) 
P500403

>  <HIPPO Compound ID>  (2759) 
314711

>  <ref_mols>  (2759) 
A4706a,A0875a

>  <distance_score>  (2759) 
1.612293

>  <inspiration_score>  (2759) 
None

$$$$
P500404
     RDKit          3D

 28 31  0  0  0  0  0  0  0  0999 V2000
   12.3807   14.3423   19.2450 N   0  0  0  0  0  0  0  0  0  0  0  0
   11.3869   14.6982   20.0488 C   0  0  0  0  0  0  0  0  0  0  0  0
   10.3192   15.4722   19.5813 C   0  0  0  0  0  0  0  0  0  0  0  0
    9.5775   15.6976   20.6978 C   0  0  0  0  0  0  0  0  0  0  0  0
   10.1473   14.9644   21.6784 N   0  0  0  0  0  0  0  0  0  0  0  0
   11.3263   14.4322   21.3528 N   0  0  0  0  0  0  0  0  0  0  0  0
    9.4991   14.7209   22.9343 C   0  0  0  0  0  0  0  0  0  0  0  0
    7.9858   15.0772   22.9155 C   0  0  2  0  0  0  0  0  0  0  0  0
    7.1844   13.9358   23.3210 O   0  0  0  0  0  0  0  0  0  0  0  0
    5.9291   14.2563   23.7461 C   0  0  0  0  0  0  0  0  0  0  0  0
    5.1954   15.0683   23.2003 O   0  0  0  0  0  0  0  0  0  0  0  0
    5.5565   13.5784   25.0510 C   0  0  0  0  0  0  0  0  0  0  0  0
    6.3024   12.2550   25.2629 C   0  0  0  0  0  0  0  0  0  0  0  0
    6.9043   12.0574   26.6247 C   0  0  0  0  0  0  0  0  0  0  0  0
    7.4714   13.2854   27.1683 N   0  0  0  0  0  0  0  0  0  0  0  0
    8.8604   14.0801   26.6774 S   0  0  0  0  0  0  0  0  0  0  0  0
    8.6198   14.6931   25.4072 O   0  0  0  0  0  0  0  0  0  0  0  0
    9.2435   14.9162   27.7801 O   0  0  0  0  0  0  0  0  0  0  0  0
   10.1210   12.9996   26.4530 N   0  0  0  0  0  0  0  0  0  0  0  0
    9.8432   11.8797   25.5640 C   0  0  0  0  0  0  0  0  0  0  0  0
   11.0239   11.2404   24.9178 C   0  0  0  0  0  0  0  0  0  0  0  0
   12.3838   11.6887   25.4153 C   0  0  0  0  0  0  0  0  0  0  0  0
   12.3907   13.1773   25.2954 C   0  0  0  0  0  0  0  0  0  0  0  0
   11.4247   13.7431   26.3160 C   0  0  0  0  0  0  0  0  0  0  0  0
    6.3467   14.2178   27.4502 C   0  0  0  0  0  0  0  0  0  0  0  0
    5.6881   14.6556   26.1505 C   0  0  0  0  0  0  0  0  0  0  0  0
    7.4992   15.6128   21.5953 C   0  0  0  0  0  0  0  0  0  0  0  0
    8.4840   16.3941   20.9366 O   0  0  0  0  0  0  0  0  0  0  0  0
  1  2  1  0
  2  3  1  0
  3  4  2  0
  4  5  1  0
  5  6  1  0
  5  7  1  0
  7  8  1  0
  8  9  1  6
  9 10  1  0
 10 11  2  0
 10 12  1  0
 12 13  1  0
 13 14  1  0
 14 15  1  0
 15 16  1  0
 16 17  2  0
 16 18  2  0
 16 19  1  0
 19 20  1  0
 20 21  1  0
 21 22  1  0
 22 23  1  0
 23 24  1  0
 15 25  1  0
 25 26  1  0
  8 27  1  0
 27 28  1  0
  6  2  2  0
 26 12  1  0
 28  4  1  0
 24 19  1  0
M  END
>  <energy_score>  (2760) 
-46.379446

>  <inchikey>  (2760) 
None

>  <smiles>  (2760) 
None

>  <ref_pdb>  (2760) 
A4706a

>  <alias>  (2760) 
None

>  <HIPPO Pose ID>  (2760) 
500404

>  <name>  (2760) 
P500404

>  <HIPPO Compound ID>  (2760) 
314712

>  <ref_mols>  (2760) 
A0875a,A4706a

>  <distance_score>  (2760) 
1.904776

>  <inspiration_score>  (2760) 
None

$$$$
P500405
     RDKit          3D

 28 31  0  0  0  0  0  0  0  0999 V2000
   12.7356   15.6658   21.4079 C   0  0  0  0  0  0  0  0  0  0  0  0
   11.4024   16.1567   21.4514 N   0  0  0  0  0  0  0  0  0  0  0  0
   10.4659   15.0665   21.4683 C   0  0  2  0  0  0  0  0  0  0  0  0
    9.7916   14.8920   20.1276 C   0  0  0  0  0  0  0  0  0  0  0  0
    8.5115   14.3069   20.4400 O   0  0  0  0  0  0  0  0  0  0  0  0
    8.2605   14.4223   21.8407 C   0  0  1  0  0  0  0  0  0  0  0  0
    9.2944   15.3647   22.3490 C   0  0  2  0  0  0  0  0  0  0  0  0
    8.7931   16.6535   22.0669 O   0  0  0  0  0  0  0  0  0  0  0  0
    7.3720   16.5904   22.0124 C   0  0  0  0  0  0  0  0  0  0  0  0
    6.9514   15.1431   22.0796 C   0  0  2  0  0  0  0  0  0  0  0  0
    6.3971   14.8950   23.3850 O   0  0  0  0  0  0  0  0  0  0  0  0
    5.9250   13.6395   23.5346 C   0  0  0  0  0  0  0  0  0  0  0  0
    5.9947   12.8010   22.6451 O   0  0  0  0  0  0  0  0  0  0  0  0
    5.3482   13.3402   24.9084 C   0  0  0  0  0  0  0  0  0  0  0  0
    6.0711   12.1118   25.5008 C   0  0  0  0  0  0  0  0  0  0  0  0
    7.2784   12.4881   26.3458 C   0  0  0  0  0  0  0  0  0  0  0  0
    7.7859   13.7751   25.8462 N   0  0  0  0  0  0  0  0  0  0  0  0
    9.3932   14.1389   26.0698 S   0  0  0  0  0  0  0  0  0  0  0  0
    9.8951   13.4325   27.2166 O   0  0  0  0  0  0  0  0  0  0  0  0
    9.5522   15.5661   25.9640 O   0  0  0  0  0  0  0  0  0  0  0  0
   10.1917   13.5280   24.7420 N   0  0  0  0  0  0  0  0  0  0  0  0
   11.6115   13.9556   24.7905 C   0  0  0  0  0  0  0  0  0  0  0  0
   12.5670   12.8007   24.7024 C   0  0  0  0  0  0  0  0  0  0  0  0
   12.0976   11.6093   25.4969 C   0  0  0  0  0  0  0  0  0  0  0  0
   10.6780   11.1668   25.1015 C   0  0  0  0  0  0  0  0  0  0  0  0
    9.9738   12.1763   24.2242 C   0  0  0  0  0  0  0  0  0  0  0  0
    6.8659   14.8879   26.2268 C   0  0  0  0  0  0  0  0  0  0  0  0
    5.4259   14.5149   25.8831 C   0  0  0  0  0  0  0  0  0  0  0  0
  1  2  1  0
  3  2  1  6
  3  4  1  0
  4  5  1  0
  6  5  1  6
  6  7  1  0
  7  8  1  6
  8  9  1  0
  9 10  1  0
 10 11  1  1
 11 12  1  0
 12 13  2  0
 12 14  1  0
 14 15  1  0
 15 16  1  0
 16 17  1  0
 17 18  1  0
 18 19  2  0
 18 20  2  0
 18 21  1  0
 21 22  1  0
 22 23  1  0
 23 24  1  0
 24 25  1  0
 25 26  1  0
 17 27  1  0
 27 28  1  0
  7  3  1  0
 28 14  1  0
 10  6  1  0
 26 21  1  0
M  END
>  <energy_score>  (2761) 
-48.332841

>  <inchikey>  (2761) 
None

>  <smiles>  (2761) 
None

>  <ref_pdb>  (2761) 
A4706a

>  <alias>  (2761) 
None

>  <HIPPO Pose ID>  (2761) 
500405

>  <name>  (2761) 
P500405

>  <HIPPO Compound ID>  (2761) 
314713

>  <ref_mols>  (2761) 
A4706a,A0875a

>  <distance_score>  (2761) 
1.936379

>  <inspiration_score>  (2761) 
None

$$$$
P500406
     RDKit          3D

 28 31  0  0  0  0  0  0  0  0999 V2000
   12.4466   14.0757   19.7142 C   0  0  0  0  0  0  0  0  0  0  0  0
   11.0937   14.1917   19.3104 N   0  0  0  0  0  0  0  0  0  0  0  0
   10.6686   15.4932   19.7539 C   0  0  1  0  0  0  0  0  0  0  0  0
    9.3120   15.6716   19.2146 C   0  0  0  0  0  0  0  0  0  0  0  0
    8.4861   15.0639   20.2266 O   0  0  0  0  0  0  0  0  0  0  0  0
    8.9180   15.7106   21.4170 C   0  0  2  0  0  0  0  0  0  0  0  0
   10.4468   15.7583   21.2652 C   0  0  1  0  0  0  0  0  0  0  0  0
   10.9765   14.7087   22.1165 O   0  0  0  0  0  0  0  0  0  0  0  0
    9.8585   13.8985   22.4518 C   0  0  0  0  0  0  0  0  0  0  0  0
    8.7269   14.8715   22.6423 C   0  0  2  0  0  0  0  0  0  0  0  0
    7.5122   14.1698   22.8938 O   0  0  0  0  0  0  0  0  0  0  0  0
    6.7009   14.8542   23.7428 C   0  0  0  0  0  0  0  0  0  0  0  0
    6.5293   16.0649   23.6931 O   0  0  0  0  0  0  0  0  0  0  0  0
    6.0744   13.9846   24.8304 C   0  0  0  0  0  0  0  0  0  0  0  0
    6.4455   12.5008   24.8071 C   0  0  0  0  0  0  0  0  0  0  0  0
    7.8607   12.1804   25.2823 C   0  0  0  0  0  0  0  0  0  0  0  0
    8.2417   12.9539   26.4736 N   0  0  0  0  0  0  0  0  0  0  0  0
    9.6166   13.9266   26.4464 S   0  0  0  0  0  0  0  0  0  0  0  0
    9.6274   14.6268   27.7073 O   0  0  0  0  0  0  0  0  0  0  0  0
    9.6645   14.6746   25.2239 O   0  0  0  0  0  0  0  0  0  0  0  0
   10.9717   12.8851   26.4758 N   0  0  0  0  0  0  0  0  0  0  0  0
   11.3724   12.2353   25.2134 C   0  0  0  0  0  0  0  0  0  0  0  0
   12.5685   11.2940   25.4340 C   0  0  0  0  0  0  0  0  0  0  0  0
   13.4690   11.6347   26.6000 C   0  0  0  0  0  0  0  0  0  0  0  0
   13.5007   13.1072   26.6749 C   0  0  0  0  0  0  0  0  0  0  0  0
   12.1233   13.6557   27.0605 C   0  0  0  0  0  0  0  0  0  0  0  0
    7.0628   13.5895   27.1430 C   0  0  0  0  0  0  0  0  0  0  0  0
    6.3839   14.5853   26.2100 C   0  0  0  0  0  0  0  0  0  0  0  0
  1  2  1  0
  3  2  1  1
  3  4  1  0
  4  5  1  0
  6  5  1  6
  6  7  1  0
  7  8  1  1
  8  9  1  0
  9 10  1  0
 10 11  1  6
 11 12  1  0
 12 13  2  0
 12 14  1  0
 14 15  1  0
 15 16  1  0
 16 17  1  0
 17 18  1  0
 18 19  2  0
 18 20  2  0
 18 21  1  0
 21 22  1  0
 22 23  1  0
 23 24  1  0
 24 25  1  0
 25 26  1  0
 17 27  1  0
 27 28  1  0
  7  3  1  0
 28 14  1  0
 10  6  1  0
 26 21  1  0
M  END
>  <energy_score>  (2762) 
-35.005124

>  <inchikey>  (2762) 
None

>  <smiles>  (2762) 
None

>  <ref_pdb>  (2762) 
A4706a

>  <alias>  (2762) 
None

>  <HIPPO Pose ID>  (2762) 
500406

>  <name>  (2762) 
P500406

>  <HIPPO Compound ID>  (2762) 
314713

>  <ref_mols>  (2762) 
A4706a,A0875a

>  <distance_score>  (2762) 
1.740561

>  <inspiration_score>  (2762) 
None

$$$$
P500407
     RDKit          3D

 28 31  0  0  0  0  0  0  0  0999 V2000
   12.4585   15.7628   21.6248 C   0  0  0  0  0  0  0  0  0  0  0  0
   11.9957   15.1269   20.4131 N   0  0  0  0  0  0  0  0  0  0  0  0
   10.5889   14.8007   20.4557 C   0  0  2  0  0  0  0  0  0  0  0  0
    9.6503   15.9727   20.1211 C   0  0  0  0  0  0  0  0  0  0  0  0
    8.4316   15.7748   20.9019 O   0  0  0  0  0  0  0  0  0  0  0  0
    8.5466   14.4720   21.4127 C   0  0  1  0  0  0  0  0  0  0  0  0
    9.9959   14.4154   21.7879 C   0  0  1  0  0  0  0  0  0  0  0  0
   10.1878   13.1537   22.3835 O   0  0  0  0  0  0  0  0  0  0  0  0
    8.9193   12.8885   23.0103 C   0  0  0  0  0  0  0  0  0  0  0  0
    7.9177   14.0082   22.6944 C   0  0  2  0  0  0  0  0  0  0  0  0
    6.6101   13.4411   22.5545 O   0  0  0  0  0  0  0  0  0  0  0  0
    5.6871   13.8479   23.4659 C   0  0  0  0  0  0  0  0  0  0  0  0
    4.6878   14.4692   23.1242 O   0  0  0  0  0  0  0  0  0  0  0  0
    5.9020   13.4333   24.9255 C   0  0  0  0  0  0  0  0  0  0  0  0
    6.6741   12.1213   25.1691 C   0  0  0  0  0  0  0  0  0  0  0  0
    7.8780   12.1091   26.1143 C   0  0  0  0  0  0  0  0  0  0  0  0
    8.2313   13.4163   26.6576 N   0  0  0  0  0  0  0  0  0  0  0  0
    9.6299   14.2774   26.3164 S   0  0  0  0  0  0  0  0  0  0  0  0
    9.7565   15.2228   27.3981 O   0  0  0  0  0  0  0  0  0  0  0  0
    9.5987   14.7805   24.9688 O   0  0  0  0  0  0  0  0  0  0  0  0
   10.9204   13.1235   26.4659 N   0  0  0  0  0  0  0  0  0  0  0  0
   11.9614   13.6976   27.3721 C   0  0  0  0  0  0  0  0  0  0  0  0
   13.2079   12.8289   27.5156 C   0  0  0  0  0  0  0  0  0  0  0  0
   13.8055   12.3820   26.2065 C   0  0  0  0  0  0  0  0  0  0  0  0
   12.7326   11.8211   25.3188 C   0  0  0  0  0  0  0  0  0  0  0  0
   11.5173   12.7180   25.1539 C   0  0  0  0  0  0  0  0  0  0  0  0
    7.0445   14.2189   27.0273 C   0  0  0  0  0  0  0  0  0  0  0  0
    6.3245   14.6379   25.7649 C   0  0  0  0  0  0  0  0  0  0  0  0
  1  2  1  0
  3  2  1  1
  3  4  1  0
  4  5  1  0
  6  5  1  1
  6  7  1  0
  7  8  1  6
  8  9  1  0
  9 10  1  0
 10 11  1  6
 11 12  1  0
 12 13  2  0
 12 14  1  0
 14 15  1  0
 15 16  1  0
 16 17  1  0
 17 18  1  0
 18 19  2  0
 18 20  2  0
 18 21  1  0
 21 22  1  0
 22 23  1  0
 23 24  1  0
 24 25  1  0
 25 26  1  0
 17 27  1  0
 27 28  1  0
  7  3  1  0
 28 14  1  0
 10  6  1  0
 26 21  1  0
M  END
>  <energy_score>  (2763) 
-23.27207

>  <inchikey>  (2763) 
None

>  <smiles>  (2763) 
None

>  <ref_pdb>  (2763) 
A4706a

>  <alias>  (2763) 
None

>  <HIPPO Pose ID>  (2763) 
500407

>  <name>  (2763) 
P500407

>  <HIPPO Compound ID>  (2763) 
314713

>  <ref_mols>  (2763) 
A4706a,A0875a

>  <distance_score>  (2763) 
1.959165

>  <inspiration_score>  (2763) 
None

$$$$
P500408
     RDKit          3D

 28 31  0  0  0  0  0  0  0  0999 V2000
   11.4335   14.8581   18.8025 C   0  0  0  0  0  0  0  0  0  0  0  0
   11.7762   14.8060   20.2141 N   0  0  0  0  0  0  0  0  0  0  0  0
   11.0286   15.7335   21.0836 C   0  0  1  0  0  0  0  0  0  0  0  0
    9.8988   16.5851   20.4233 C   0  0  0  0  0  0  0  0  0  0  0  0
    8.6876   15.8310   20.4831 O   0  0  0  0  0  0  0  0  0  0  0  0
    9.0223   14.6513   21.1321 C   0  0  1  0  0  0  0  0  0  0  0  0
   10.1261   15.0221   22.0694 C   0  0  1  0  0  0  0  0  0  0  0  0
   10.4129   13.8052   22.7195 O   0  0  0  0  0  0  0  0  0  0  0  0
    9.1030   13.1625   22.8108 C   0  0  0  0  0  0  0  0  0  0  0  0
    8.0447   13.9612   22.0107 C   0  0  1  0  0  0  0  0  0  0  0  0
    7.2578   14.9190   22.7386 O   0  0  0  0  0  0  0  0  0  0  0  0
    6.1914   14.3779   23.4026 C   0  0  0  0  0  0  0  0  0  0  0  0
    5.0962   14.1685   22.9152 O   0  0  0  0  0  0  0  0  0  0  0  0
    6.6220   13.9929   24.7817 C   0  0  0  0  0  0  0  0  0  0  0  0
    6.6179   12.4959   25.0583 C   0  0  0  0  0  0  0  0  0  0  0  0
    7.6636   12.1690   26.1244 C   0  0  0  0  0  0  0  0  0  0  0  0
    8.0810   13.3827   26.8564 N   0  0  0  0  0  0  0  0  0  0  0  0
    9.5430   14.1979   26.5869 S   0  0  0  0  0  0  0  0  0  0  0  0
    9.6179   14.8003   25.2808 O   0  0  0  0  0  0  0  0  0  0  0  0
    9.6937   15.0501   27.7410 O   0  0  0  0  0  0  0  0  0  0  0  0
   10.7635   13.0013   26.6883 N   0  0  0  0  0  0  0  0  0  0  0  0
   11.1017   12.2729   25.4305 C   0  0  0  0  0  0  0  0  0  0  0  0
   12.3729   12.8140   24.8130 C   0  0  0  0  0  0  0  0  0  0  0  0
   13.5551   12.4663   25.7067 C   0  0  0  0  0  0  0  0  0  0  0  0
   13.2150   12.7210   27.1664 C   0  0  0  0  0  0  0  0  0  0  0  0
   11.9798   13.6018   27.3312 C   0  0  0  0  0  0  0  0  0  0  0  0
    6.9009   14.2498   27.2277 C   0  0  0  0  0  0  0  0  0  0  0  0
    6.1513   14.7686   25.9863 C   0  0  0  0  0  0  0  0  0  0  0  0
  1  2  1  0
  3  2  1  6
  3  4  1  0
  4  5  1  0
  6  5  1  1
  6  7  1  0
  7  8  1  6
  8  9  1  0
  9 10  1  0
 10 11  1  1
 11 12  1  0
 12 13  2  0
 12 14  1  0
 14 15  1  0
 15 16  1  0
 16 17  1  0
 17 18  1  0
 18 19  2  0
 18 20  2  0
 18 21  1  0
 21 22  1  0
 22 23  1  0
 23 24  1  0
 24 25  1  0
 25 26  1  0
 17 27  1  0
 27 28  1  0
  7  3  1  0
 28 14  1  0
 10  6  1  0
 26 21  1  0
M  END
>  <energy_score>  (2764) 
-8.677167

>  <inchikey>  (2764) 
None

>  <smiles>  (2764) 
None

>  <ref_pdb>  (2764) 
A4706a

>  <alias>  (2764) 
None

>  <HIPPO Pose ID>  (2764) 
500408

>  <name>  (2764) 
P500408

>  <HIPPO Compound ID>  (2764) 
314713

>  <ref_mols>  (2764) 
A4706a,A0875a

>  <distance_score>  (2764) 
1.848063

>  <inspiration_score>  (2764) 
None

$$$$
P500409
     RDKit          3D

 28 31  0  0  0  0  0  0  0  0999 V2000
   12.4628   15.7658   21.5132 C   0  0  0  0  0  0  0  0  0  0  0  0
   12.0554   15.0614   20.3137 N   0  0  0  0  0  0  0  0  0  0  0  0
   10.6412   14.7483   20.2853 C   0  0  2  0  0  0  0  0  0  0  0  0
    9.7552   15.8696   19.7198 C   0  0  0  0  0  0  0  0  0  0  0  0
    8.6658   16.0411   20.6661 O   0  0  0  0  0  0  0  0  0  0  0  0
    8.5431   14.7687   21.2408 C   0  0  1  0  0  0  0  0  0  0  0  0
    9.9678   14.5065   21.6196 C   0  0  1  0  0  0  0  0  0  0  0  0
    9.9595   13.2532   22.2631 O   0  0  0  0  0  0  0  0  0  0  0  0
    8.6672   13.2298   22.8970 C   0  0  0  0  0  0  0  0  0  0  0  0
    7.8787   14.5175   22.5573 C   0  0  2  0  0  0  0  0  0  0  0  0
    6.4528   14.2761   22.4720 O   0  0  0  0  0  0  0  0  0  0  0  0
    5.6745   14.2595   23.6046 C   0  0  0  0  0  0  0  0  0  0  0  0
    4.4620   14.4201   23.5623 O   0  0  0  0  0  0  0  0  0  0  0  0
    6.4039   13.9212   24.8819 C   0  0  0  0  0  0  0  0  0  0  0  0
    6.5035   12.4215   25.1439 C   0  0  0  0  0  0  0  0  0  0  0  0
    7.6670   12.1162   26.0879 C   0  0  0  0  0  0  0  0  0  0  0  0
    8.1090   13.3282   26.7962 N   0  0  0  0  0  0  0  0  0  0  0  0
    9.5241   14.1907   26.4641 S   0  0  0  0  0  0  0  0  0  0  0  0
    9.6882   15.0454   27.6142 O   0  0  0  0  0  0  0  0  0  0  0  0
    9.5072   14.7958   25.1549 O   0  0  0  0  0  0  0  0  0  0  0  0
   10.8220   13.0634   26.4979 N   0  0  0  0  0  0  0  0  0  0  0  0
   11.1751   12.4064   25.2131 C   0  0  0  0  0  0  0  0  0  0  0  0
   12.3472   11.4281   25.3978 C   0  0  0  0  0  0  0  0  0  0  0  0
   13.2877   11.7024   26.5425 C   0  0  0  0  0  0  0  0  0  0  0  0
   13.3684   13.1650   26.6575 C   0  0  0  0  0  0  0  0  0  0  0  0
   12.0225   13.7592   27.0826 C   0  0  0  0  0  0  0  0  0  0  0  0
    6.9380   14.1389   27.3052 C   0  0  0  0  0  0  0  0  0  0  0  0
    6.0282   14.6335   26.1642 C   0  0  0  0  0  0  0  0  0  0  0  0
  1  2  1  0
  3  2  1  1
  3  4  1  0
  4  5  1  0
  6  5  1  1
  6  7  1  0
  7  8  1  6
  8  9  1  0
  9 10  1  0
 10 11  1  6
 11 12  1  0
 12 13  2  0
 12 14  1  0
 14 15  1  0
 15 16  1  0
 16 17  1  0
 17 18  1  0
 18 19  2  0
 18 20  2  0
 18 21  1  0
 21 22  1  0
 22 23  1  0
 23 24  1  0
 24 25  1  0
 25 26  1  0
 17 27  1  0
 27 28  1  0
  7  3  1  0
 28 14  1  0
 10  6  1  0
 26 21  1  0
M  END
>  <energy_score>  (2765) 
-41.617177

>  <inchikey>  (2765) 
None

>  <smiles>  (2765) 
None

>  <ref_pdb>  (2765) 
A4706a

>  <alias>  (2765) 
None

>  <HIPPO Pose ID>  (2765) 
500409

>  <name>  (2765) 
P500409

>  <HIPPO Compound ID>  (2765) 
314713

>  <ref_mols>  (2765) 
A4706a,A0875a

>  <distance_score>  (2765) 
1.920903

>  <inspiration_score>  (2765) 
None

$$$$
P500410
     RDKit          3D

 28 31  0  0  0  0  0  0  0  0999 V2000
   11.7251   13.5874   22.2583 C   0  0  0  0  0  0  0  0  0  0  0  0
   11.8216   13.9129   20.8634 N   0  0  0  0  0  0  0  0  0  0  0  0
   11.2950   15.2390   20.5621 C   0  0  1  0  0  0  0  0  0  0  0  0
   10.5239   15.2301   19.2206 C   0  0  0  0  0  0  0  0  0  0  0  0
    9.0965   15.2418   19.5537 O   0  0  0  0  0  0  0  0  0  0  0  0
    9.0143   14.9662   20.9417 C   0  0  1  0  0  0  0  0  0  0  0  0
   10.1862   15.7893   21.4307 C   0  0  1  0  0  0  0  0  0  0  0  0
   10.2019   15.7086   22.8400 O   0  0  0  0  0  0  0  0  0  0  0  0
    8.8559   15.3607   23.1651 C   0  0  0  0  0  0  0  0  0  0  0  0
    7.9669   15.4712   21.9244 C   0  0  2  0  0  0  0  0  0  0  0  0
    6.7005   14.8092   22.1765 O   0  0  0  0  0  0  0  0  0  0  0  0
    6.7175   13.6849   22.9399 C   0  0  0  0  0  0  0  0  0  0  0  0
    7.4617   12.7444   22.6879 O   0  0  0  0  0  0  0  0  0  0  0  0
    5.7124   13.6641   24.0977 C   0  0  0  0  0  0  0  0  0  0  0  0
    6.0114   12.5044   25.0953 C   0  0  0  0  0  0  0  0  0  0  0  0
    6.9735   12.8392   26.2453 C   0  0  0  0  0  0  0  0  0  0  0  0
    7.6571   14.0944   25.8974 N   0  0  0  0  0  0  0  0  0  0  0  0
    9.1077   14.4840   26.6512 S   0  0  0  0  0  0  0  0  0  0  0  0
    9.6903   15.5802   25.9210 O   0  0  0  0  0  0  0  0  0  0  0  0
    8.8694   14.5844   28.0648 O   0  0  0  0  0  0  0  0  0  0  0  0
   10.1346   13.1760   26.4016 N   0  0  0  0  0  0  0  0  0  0  0  0
   10.0915   12.6649   25.0405 C   0  0  0  0  0  0  0  0  0  0  0  0
   10.9144   11.4213   24.9653 C   0  0  0  0  0  0  0  0  0  0  0  0
   12.3852   11.7226   25.2836 C   0  0  0  0  0  0  0  0  0  0  0  0
   12.6083   13.0952   25.8604 C   0  0  0  0  0  0  0  0  0  0  0  0
   11.5337   13.5176   26.8401 C   0  0  0  0  0  0  0  0  0  0  0  0
    6.6695   15.2066   25.9332 C   0  0  0  0  0  0  0  0  0  0  0  0
    5.6097   14.9955   24.8503 C   0  0  0  0  0  0  0  0  0  0  0  0
  1  2  1  0
  3  2  1  1
  3  4  1  0
  4  5  1  0
  6  5  1  6
  6  7  1  0
  7  8  1  1
  8  9  1  0
  9 10  1  0
 10 11  1  1
 11 12  1  0
 12 13  2  0
 12 14  1  0
 14 15  1  0
 15 16  1  0
 16 17  1  0
 17 18  1  0
 18 19  2  0
 18 20  2  0
 18 21  1  0
 21 22  1  0
 22 23  1  0
 23 24  1  0
 24 25  1  0
 25 26  1  0
 17 27  1  0
 27 28  1  0
  7  3  1  0
 28 14  1  0
 10  6  1  0
 26 21  1  0
M  END
>  <energy_score>  (2766) 
-37.934217

>  <inchikey>  (2766) 
None

>  <smiles>  (2766) 
None

>  <ref_pdb>  (2766) 
A4706a

>  <alias>  (2766) 
None

>  <HIPPO Pose ID>  (2766) 
500410

>  <name>  (2766) 
P500410

>  <HIPPO Compound ID>  (2766) 
314713

>  <ref_mols>  (2766) 
A4706a,A0875a

>  <distance_score>  (2766) 
1.659207

>  <inspiration_score>  (2766) 
None

$$$$
P500411
     RDKit          3D

 28 31  0  0  0  0  0  0  0  0999 V2000
   11.4123   15.0978   18.4661 C   0  0  0  0  0  0  0  0  0  0  0  0
   10.5574   15.8932   19.3387 N   0  0  0  0  0  0  0  0  0  0  0  0
   10.5774   15.3479   20.7022 C   0  0  2  0  0  0  0  0  0  0  0  0
    9.7624   14.0882   20.7234 C   0  0  0  0  0  0  0  0  0  0  0  0
    8.3832   14.4780   20.7207 O   0  0  0  0  0  0  0  0  0  0  0  0
    8.3216   15.7232   21.3958 C   0  0  2  0  0  0  0  0  0  0  0  0
    9.7563   16.1552   21.6695 C   0  0  1  0  0  0  0  0  0  0  0  0
   10.0708   15.7364   23.0060 O   0  0  0  0  0  0  0  0  0  0  0  0
    8.8631   15.2288   23.5692 C   0  0  0  0  0  0  0  0  0  0  0  0
    7.6667   15.5935   22.7332 C   0  0  2  0  0  0  0  0  0  0  0  0
    6.4886   14.8039   22.9549 O   0  0  0  0  0  0  0  0  0  0  0  0
    6.6709   13.5312   23.3662 C   0  0  0  0  0  0  0  0  0  0  0  0
    7.3914   12.7304   22.7848 O   0  0  0  0  0  0  0  0  0  0  0  0
    5.8634   13.1672   24.6057 C   0  0  0  0  0  0  0  0  0  0  0  0
    6.5350   11.9975   25.3594 C   0  0  0  0  0  0  0  0  0  0  0  0
    7.5873   12.4278   26.3856 C   0  0  0  0  0  0  0  0  0  0  0  0
    8.0241   13.8105   26.0992 N   0  0  0  0  0  0  0  0  0  0  0  0
    9.4241   14.3767   26.8698 S   0  0  0  0  0  0  0  0  0  0  0  0
    9.8528   15.6009   26.2417 O   0  0  0  0  0  0  0  0  0  0  0  0
    9.1508   14.3774   28.2818 O   0  0  0  0  0  0  0  0  0  0  0  0
   10.6508   13.2299   26.5687 N   0  0  0  0  0  0  0  0  0  0  0  0
   10.9577   13.0914   25.1287 C   0  0  0  0  0  0  0  0  0  0  0  0
   12.1182   12.1501   24.9270 C   0  0  0  0  0  0  0  0  0  0  0  0
   13.3732   12.4728   25.7017 C   0  0  0  0  0  0  0  0  0  0  0  0
   13.0521   12.7538   27.1482 C   0  0  0  0  0  0  0  0  0  0  0  0
   11.8738   13.7061   27.3006 C   0  0  0  0  0  0  0  0  0  0  0  0
    6.8796   14.7553   26.3369 C   0  0  0  0  0  0  0  0  0  0  0  0
    5.6340   14.3297   25.5670 C   0  0  0  0  0  0  0  0  0  0  0  0
  1  2  1  0
  3  2  1  6
  3  4  1  0
  4  5  1  0
  6  5  1  1
  6  7  1  0
  7  8  1  1
  8  9  1  0
  9 10  1  0
 10 11  1  6
 11 12  1  0
 12 13  2  0
 12 14  1  0
 14 15  1  0
 15 16  1  0
 16 17  1  0
 17 18  1  0
 18 19  2  0
 18 20  2  0
 18 21  1  0
 21 22  1  0
 22 23  1  0
 23 24  1  0
 24 25  1  0
 25 26  1  0
 17 27  1  0
 27 28  1  0
  7  3  1  0
 28 14  1  0
 10  6  1  0
 26 21  1  0
M  END
>  <energy_score>  (2767) 
-47.386661

>  <inchikey>  (2767) 
None

>  <smiles>  (2767) 
None

>  <ref_pdb>  (2767) 
A4706a

>  <alias>  (2767) 
None

>  <HIPPO Pose ID>  (2767) 
500411

>  <name>  (2767) 
P500411

>  <HIPPO Compound ID>  (2767) 
314713

>  <ref_mols>  (2767) 
A0875a,A4706a

>  <distance_score>  (2767) 
1.981024

>  <inspiration_score>  (2767) 
None

$$$$
P500412
     RDKit          3D

 28 31  0  0  0  0  0  0  0  0999 V2000
   11.9243   14.2633   19.6796 C   0  0  0  0  0  0  0  0  0  0  0  0
   11.9641   14.9062   20.9780 N   0  0  0  0  0  0  0  0  0  0  0  0
   10.9754   15.9794   21.1288 C   0  0  1  0  0  0  0  0  0  0  0  0
   10.1684   16.3595   19.8669 C   0  0  0  0  0  0  0  0  0  0  0  0
    9.0202   15.5598   19.9413 O   0  0  0  0  0  0  0  0  0  0  0  0
    8.5911   15.7591   21.2943 C   0  0  2  0  0  0  0  0  0  0  0  0
    9.8614   15.6626   22.1236 C   0  0  1  0  0  0  0  0  0  0  0  0
    9.9153   14.3507   22.6755 O   0  0  0  0  0  0  0  0  0  0  0  0
    8.9044   13.6206   21.9964 C   0  0  0  0  0  0  0  0  0  0  0  0
    7.7691   14.5729   21.6477 C   0  0  1  0  0  0  0  0  0  0  0  0
    6.9085   14.8870   22.7322 O   0  0  0  0  0  0  0  0  0  0  0  0
    6.2728   13.7698   23.1658 C   0  0  0  0  0  0  0  0  0  0  0  0
    5.6772   12.9893   22.4473 O   0  0  0  0  0  0  0  0  0  0  0  0
    6.5256   13.6309   24.6243 C   0  0  0  0  0  0  0  0  0  0  0  0
    6.3807   12.2792   25.2904 C   0  0  0  0  0  0  0  0  0  0  0  0
    7.2568   12.2582   26.5515 C   0  0  0  0  0  0  0  0  0  0  0  0
    7.7542   13.6102   26.9132 N   0  0  0  0  0  0  0  0  0  0  0  0
    9.2282   14.3022   26.4355 S   0  0  0  0  0  0  0  0  0  0  0  0
    9.0519   15.1062   25.2499 O   0  0  0  0  0  0  0  0  0  0  0  0
    9.7415   14.9397   27.6231 O   0  0  0  0  0  0  0  0  0  0  0  0
   10.3084   13.0758   26.0567 N   0  0  0  0  0  0  0  0  0  0  0  0
   11.6984   13.6550   25.9685 C   0  0  0  0  0  0  0  0  0  0  0  0
   12.6455   12.7702   25.1586 C   0  0  0  0  0  0  0  0  0  0  0  0
   12.3230   11.3234   25.4701 C   0  0  0  0  0  0  0  0  0  0  0  0
   10.8540   10.9619   25.0983 C   0  0  0  0  0  0  0  0  0  0  0  0
   10.0553   12.2264   24.8850 C   0  0  0  0  0  0  0  0  0  0  0  0
    6.6285   14.5929   26.9400 C   0  0  0  0  0  0  0  0  0  0  0  0
    6.0567   14.7647   25.5256 C   0  0  0  0  0  0  0  0  0  0  0  0
  1  2  1  0
  3  2  1  6
  3  4  1  0
  4  5  1  0
  6  5  1  6
  6  7  1  0
  7  8  1  6
  8  9  1  0
  9 10  1  0
 10 11  1  1
 11 12  1  0
 12 13  2  0
 12 14  1  0
 14 15  1  0
 15 16  1  0
 16 17  1  0
 17 18  1  0
 18 19  2  0
 18 20  2  0
 18 21  1  0
 21 22  1  0
 22 23  1  0
 23 24  1  0
 24 25  1  0
 25 26  1  0
 17 27  1  0
 27 28  1  0
  7  3  1  0
 28 14  1  0
 10  6  1  0
 26 21  1  0
M  END
>  <energy_score>  (2768) 
-13.96316

>  <inchikey>  (2768) 
None

>  <smiles>  (2768) 
None

>  <ref_pdb>  (2768) 
A4706a

>  <alias>  (2768) 
None

>  <HIPPO Pose ID>  (2768) 
500412

>  <name>  (2768) 
P500412

>  <HIPPO Compound ID>  (2768) 
314713

>  <ref_mols>  (2768) 
A4706a,A0875a

>  <distance_score>  (2768) 
1.649244

>  <inspiration_score>  (2768) 
None

$$$$
P500413
     RDKit          3D

 28 31  0  0  0  0  0  0  0  0999 V2000
   12.6035   14.8059   19.3840 C   0  0  0  0  0  0  0  0  0  0  0  0
   11.6283   13.8130   19.3873 N   0  0  0  0  0  0  0  0  0  0  0  0
   10.3902   14.4432   19.7234 C   0  0  2  0  0  0  0  0  0  0  0  0
    9.8852   15.5176   18.7655 C   0  0  0  0  0  0  0  0  0  0  0  0
    9.2207   16.4841   19.6268 O   0  0  0  0  0  0  0  0  0  0  0  0
    8.8843   15.6610   20.7414 C   0  0  1  0  0  0  0  0  0  0  0  0
   10.2791   15.1941   21.0062 C   0  0  1  0  0  0  0  0  0  0  0  0
   10.2356   14.5263   22.2164 O   0  0  0  0  0  0  0  0  0  0  0  0
    9.4436   15.4467   22.9772 C   0  0  0  0  0  0  0  0  0  0  0  0
    8.4697   16.1986   22.0549 C   0  0  2  0  0  0  0  0  0  0  0  0
    7.1043   15.9430   22.5205 O   0  0  0  0  0  0  0  0  0  0  0  0
    6.7292   14.6659   22.8194 C   0  0  0  0  0  0  0  0  0  0  0  0
    7.0794   13.6740   22.1844 O   0  0  0  0  0  0  0  0  0  0  0  0
    5.8880   14.5812   24.1087 C   0  0  0  0  0  0  0  0  0  0  0  0
    5.8408   13.1233   24.5960 C   0  0  0  0  0  0  0  0  0  0  0  0
    7.1727   12.6886   25.2049 C   0  0  0  0  0  0  0  0  0  0  0  0
    7.6135   13.5459   26.3242 N   0  0  0  0  0  0  0  0  0  0  0  0
    9.2295   13.9747   26.5512 S   0  0  0  0  0  0  0  0  0  0  0  0
    9.3441   14.4163   27.9206 O   0  0  0  0  0  0  0  0  0  0  0  0
    9.6090   14.9288   25.5469 O   0  0  0  0  0  0  0  0  0  0  0  0
   10.2275   12.6168   26.4239 N   0  0  0  0  0  0  0  0  0  0  0  0
   11.6639   12.9913   26.6380 C   0  0  0  0  0  0  0  0  0  0  0  0
   12.2792   13.5553   25.3751 C   0  0  0  0  0  0  0  0  0  0  0  0
   12.0165   12.7041   24.1684 C   0  0  0  0  0  0  0  0  0  0  0  0
   10.5818   12.2152   24.0464 C   0  0  0  0  0  0  0  0  0  0  0  0
   10.1216   11.6201   25.3371 C   0  0  0  0  0  0  0  0  0  0  0  0
    6.6764   14.6887   26.5657 C   0  0  0  0  0  0  0  0  0  0  0  0
    6.3940   15.4621   25.2675 C   0  0  0  0  0  0  0  0  0  0  0  0
  1  2  1  0
  3  2  1  6
  3  4  1  0
  4  5  1  0
  6  5  1  6
  6  7  1  0
  7  8  1  1
  8  9  1  0
  9 10  1  0
 10 11  1  1
 11 12  1  0
 12 13  2  0
 12 14  1  0
 14 15  1  0
 15 16  1  0
 16 17  1  0
 17 18  1  0
 18 19  2  0
 18 20  2  0
 18 21  1  0
 21 22  1  0
 22 23  1  0
 23 24  1  0
 24 25  1  0
 25 26  1  0
 17 27  1  0
 27 28  1  0
  7  3  1  0
 28 14  1  0
 10  6  1  0
 26 21  1  0
M  END
>  <energy_score>  (2769) 
-15.480612

>  <inchikey>  (2769) 
None

>  <smiles>  (2769) 
None

>  <ref_pdb>  (2769) 
A4706a

>  <alias>  (2769) 
None

>  <HIPPO Pose ID>  (2769) 
500413

>  <name>  (2769) 
P500413

>  <HIPPO Compound ID>  (2769) 
314713

>  <ref_mols>  (2769) 
A0875a,A4706a

>  <distance_score>  (2769) 
1.943991

>  <inspiration_score>  (2769) 
None

$$$$
P500414
     RDKit          3D

 28 31  0  0  0  0  0  0  0  0999 V2000
    6.1800   13.2475   22.6747 O   0  0  0  0  0  0  0  0  0  0  0  0
    6.3996   14.1475   23.4821 C   0  0  0  0  0  0  0  0  0  0  0  0
    7.0719   15.3011   23.2069 O   0  0  0  0  0  0  0  0  0  0  0  0
    7.4351   15.5477   21.8273 C   0  0  0  0  0  0  0  0  0  0  0  0
    8.7928   16.2676   21.6913 C   0  0  2  0  0  0  0  0  0  0  0  0
    9.3920   16.5171   20.3161 C   0  0  0  0  0  0  0  0  0  0  0  0
    9.7759   15.2260   19.6065 C   0  0  1  0  0  0  0  0  0  0  0  0
   11.2292   15.1417   19.1775 C   0  0  0  0  0  0  0  0  0  0  0  0
   12.0741   15.3271   20.3208 O   0  0  0  0  0  0  0  0  0  0  0  0
   11.8009   14.3467   21.3179 C   0  0  0  0  0  0  0  0  0  0  0  0
   10.3338   14.2974   21.7032 C   0  0  1  0  0  0  0  0  0  0  0  0
    9.9095   15.5603   22.4463 C   0  0  0  0  0  0  0  0  0  0  0  0
    9.5350   14.1391   20.5185 O   0  0  0  0  0  0  0  0  0  0  0  0
    5.8585   14.1269   24.9242 C   0  0  0  0  0  0  0  0  0  0  0  0
    5.7728   12.6970   25.4886 C   0  0  0  0  0  0  0  0  0  0  0  0
    7.0729   12.0985   26.0330 C   0  0  0  0  0  0  0  0  0  0  0  0
    8.0220   13.1480   26.4934 N   0  0  0  0  0  0  0  0  0  0  0  0
    9.2545   13.5337   25.4092 S   0  0  0  0  0  0  0  0  0  0  0  0
    9.7187   14.8708   25.6906 O   0  0  0  0  0  0  0  0  0  0  0  0
    8.7829   13.1402   24.1096 O   0  0  0  0  0  0  0  0  0  0  0  0
   10.5021   12.4483   25.8323 N   0  0  0  0  0  0  0  0  0  0  0  0
   10.5098   11.2637   24.9214 C   0  0  0  0  0  0  0  0  0  0  0  0
   11.6489   10.3102   25.2403 C   0  0  0  0  0  0  0  0  0  0  0  0
   13.0090   11.0415   25.3883 C   0  0  0  0  0  0  0  0  0  0  0  0
   12.9298   12.2218   26.3323 C   0  0  0  0  0  0  0  0  0  0  0  0
   11.8145   13.1559   25.9021 C   0  0  0  0  0  0  0  0  0  0  0  0
    7.2937   14.3206   27.0404 C   0  0  0  0  0  0  0  0  0  0  0  0
    6.5445   15.0637   25.9340 C   0  0  0  0  0  0  0  0  0  0  0  0
  1  2  2  0
  2  3  1  0
  3  4  1  0
  5  4  1  6
  5  6  1  0
  7  6  1  1
  7  8  1  0
  8  9  1  0
  9 10  1  0
 11 10  1  6
 11 12  1  0
 11 13  1  0
  2 14  1  0
 14 15  1  0
 15 16  1  0
 16 17  1  0
 17 18  1  0
 18 19  2  0
 18 20  2  0
 18 21  1  0
 21 22  1  0
 22 23  1  0
 23 24  1  0
 24 25  1  0
 25 26  1  0
 17 27  1  0
 27 28  1  0
 12  5  1  0
 28 14  1  0
 13  7  1  0
 26 21  1  0
M  END
>  <energy_score>  (2770) 
-47.149054

>  <inchikey>  (2770) 
None

>  <smiles>  (2770) 
None

>  <ref_pdb>  (2770) 
A4706a

>  <alias>  (2770) 
None

>  <HIPPO Pose ID>  (2770) 
500414

>  <name>  (2770) 
P500414

>  <HIPPO Compound ID>  (2770) 
314714

>  <ref_mols>  (2770) 
A4706a,A0875a

>  <distance_score>  (2770) 
1.552325

>  <inspiration_score>  (2770) 
None

$$$$
P500415
     RDKit          3D

 28 31  0  0  0  0  0  0  0  0999 V2000
    4.6289   14.4645   22.9280 O   0  0  0  0  0  0  0  0  0  0  0  0
    5.8359   14.6669   22.9916 C   0  0  0  0  0  0  0  0  0  0  0  0
    6.4960   15.3307   22.0071 O   0  0  0  0  0  0  0  0  0  0  0  0
    7.6804   14.7645   21.4033 C   0  0  0  0  0  0  0  0  0  0  0  0
    8.7110   15.8602   21.0379 C   0  0  2  0  0  0  0  0  0  0  0  0
    9.5174   15.6196   19.7378 C   0  0  0  0  0  0  0  0  0  0  0  0
   10.4687   14.4490   19.8523 C   0  0  1  0  0  0  0  0  0  0  0  0
   11.9300   14.7877   19.7127 C   0  0  0  0  0  0  0  0  0  0  0  0
   12.3531   15.6332   20.7780 O   0  0  0  0  0  0  0  0  0  0  0  0
   12.0654   15.0446   22.0343 C   0  0  0  0  0  0  0  0  0  0  0  0
   10.6098   14.6973   22.1686 C   0  0  1  0  0  0  0  0  0  0  0  0
    9.7528   15.9378   22.1278 C   0  0  0  0  0  0  0  0  0  0  0  0
   10.2409   13.8116   21.1155 O   0  0  0  0  0  0  0  0  0  0  0  0
    6.6667   14.2990   24.2070 C   0  0  0  0  0  0  0  0  0  0  0  0
    7.0649   12.8183   24.2380 C   0  0  0  0  0  0  0  0  0  0  0  0
    7.5169   12.3126   25.6027 C   0  0  0  0  0  0  0  0  0  0  0  0
    7.9218   13.4141   26.4759 N   0  0  0  0  0  0  0  0  0  0  0  0
    9.4071   14.1809   26.3345 S   0  0  0  0  0  0  0  0  0  0  0  0
    9.5366   14.9962   27.5162 O   0  0  0  0  0  0  0  0  0  0  0  0
    9.5518   14.7884   25.0392 O   0  0  0  0  0  0  0  0  0  0  0  0
   10.5852   12.9549   26.4449 N   0  0  0  0  0  0  0  0  0  0  0  0
   10.8919   12.2605   25.1604 C   0  0  0  0  0  0  0  0  0  0  0  0
   12.2368   12.7325   24.6354 C   0  0  0  0  0  0  0  0  0  0  0  0
   13.3531   12.2622   25.5526 C   0  0  0  0  0  0  0  0  0  0  0  0
   13.0315   12.6262   26.9914 C   0  0  0  0  0  0  0  0  0  0  0  0
   11.8089   13.5288   27.1109 C   0  0  0  0  0  0  0  0  0  0  0  0
    6.7791   14.3462   26.7504 C   0  0  0  0  0  0  0  0  0  0  0  0
    5.9298   14.6243   25.5068 C   0  0  0  0  0  0  0  0  0  0  0  0
  1  2  2  0
  2  3  1  0
  3  4  1  0
  5  4  1  1
  5  6  1  0
  7  6  1  1
  7  8  1  0
  8  9  1  0
  9 10  1  0
 11 10  1  6
 11 12  1  0
 11 13  1  0
  2 14  1  0
 14 15  1  0
 15 16  1  0
 16 17  1  0
 17 18  1  0
 18 19  2  0
 18 20  2  0
 18 21  1  0
 21 22  1  0
 22 23  1  0
 23 24  1  0
 24 25  1  0
 25 26  1  0
 17 27  1  0
 27 28  1  0
 12  5  1  0
 28 14  1  0
 13  7  1  0
 26 21  1  0
M  END
>  <energy_score>  (2771) 
-40.586223

>  <inchikey>  (2771) 
None

>  <smiles>  (2771) 
None

>  <ref_pdb>  (2771) 
A4706a

>  <alias>  (2771) 
None

>  <HIPPO Pose ID>  (2771) 
500415

>  <name>  (2771) 
P500415

>  <HIPPO Compound ID>  (2771) 
314714

>  <ref_mols>  (2771) 
A4706a,A0875a

>  <distance_score>  (2771) 
1.717892

>  <inspiration_score>  (2771) 
None

$$$$
P500416
     RDKit          3D

 28 31  0  0  0  0  0  0  0  0999 V2000
    7.0849   12.6192   22.8560 O   0  0  0  0  0  0  0  0  0  0  0  0
    6.5693   13.5516   23.4560 C   0  0  0  0  0  0  0  0  0  0  0  0
    6.6783   14.8304   23.0514 O   0  0  0  0  0  0  0  0  0  0  0  0
    7.2272   15.0362   21.7378 C   0  0  0  0  0  0  0  0  0  0  0  0
    8.7398   14.7672   21.5306 C   0  0  1  0  0  0  0  0  0  0  0  0
    9.2313   15.4818   20.2834 C   0  0  0  0  0  0  0  0  0  0  0  0
   10.7154   15.6727   20.1995 C   0  0  2  0  0  0  0  0  0  0  0  0
   11.6187   14.4572   20.1443 C   0  0  0  0  0  0  0  0  0  0  0  0
   11.6498   13.7368   21.3830 O   0  0  0  0  0  0  0  0  0  0  0  0
   11.9715   14.6300   22.4393 C   0  0  0  0  0  0  0  0  0  0  0  0
   10.9304   15.7105   22.5363 C   0  0  2  0  0  0  0  0  0  0  0  0
    9.5114   15.2235   22.7426 C   0  0  0  0  0  0  0  0  0  0  0  0
   11.0374   16.4831   21.3412 O   0  0  0  0  0  0  0  0  0  0  0  0
    5.6636   13.3685   24.6696 C   0  0  0  0  0  0  0  0  0  0  0  0
    6.1941   12.2239   25.5615 C   0  0  0  0  0  0  0  0  0  0  0  0
    7.2324   12.7117   26.5757 C   0  0  0  0  0  0  0  0  0  0  0  0
    7.8329   13.9400   26.0309 N   0  0  0  0  0  0  0  0  0  0  0  0
    9.3596   14.4027   26.4974 S   0  0  0  0  0  0  0  0  0  0  0  0
    9.3362   14.6327   27.9174 O   0  0  0  0  0  0  0  0  0  0  0  0
    9.8165   15.4298   25.5957 O   0  0  0  0  0  0  0  0  0  0  0  0
   10.3467   13.0730   26.2345 N   0  0  0  0  0  0  0  0  0  0  0  0
   11.7660   13.4972   26.4365 C   0  0  0  0  0  0  0  0  0  0  0  0
   12.7173   12.3244   26.4226 C   0  0  0  0  0  0  0  0  0  0  0  0
   12.4233   11.4152   25.2498 C   0  0  0  0  0  0  0  0  0  0  0  0
   10.9215   11.0918   25.0374 C   0  0  0  0  0  0  0  0  0  0  0  0
   10.1619   12.3809   24.9479 C   0  0  0  0  0  0  0  0  0  0  0  0
    6.8677   15.0768   26.0753 C   0  0  0  0  0  0  0  0  0  0  0  0
    5.5236   14.6366   25.5091 C   0  0  0  0  0  0  0  0  0  0  0  0
  1  2  2  0
  2  3  1  0
  3  4  1  0
  5  4  1  1
  5  6  1  0
  7  6  1  1
  7  8  1  0
  8  9  1  0
  9 10  1  0
 11 10  1  6
 11 12  1  0
 11 13  1  0
  2 14  1  0
 14 15  1  0
 15 16  1  0
 16 17  1  0
 17 18  1  0
 18 19  2  0
 18 20  2  0
 18 21  1  0
 21 22  1  0
 22 23  1  0
 23 24  1  0
 24 25  1  0
 25 26  1  0
 17 27  1  0
 27 28  1  0
 12  5  1  0
 28 14  1  0
 13  7  1  0
 26 21  1  0
M  END
>  <energy_score>  (2772) 
-178.40857

>  <inchikey>  (2772) 
None

>  <smiles>  (2772) 
None

>  <ref_pdb>  (2772) 
A4706a

>  <alias>  (2772) 
None

>  <HIPPO Pose ID>  (2772) 
500416

>  <name>  (2772) 
P500416

>  <HIPPO Compound ID>  (2772) 
314714

>  <ref_mols>  (2772) 
A4706a,A0875a

>  <distance_score>  (2772) 
1.639979

>  <inspiration_score>  (2772) 
None

$$$$
P500417
     RDKit          3D

 28 31  0  0  0  0  0  0  0  0999 V2000
    5.8237   12.9621   22.4788 O   0  0  0  0  0  0  0  0  0  0  0  0
    6.4147   13.7194   23.2272 C   0  0  0  0  0  0  0  0  0  0  0  0
    6.8077   14.9811   22.9277 O   0  0  0  0  0  0  0  0  0  0  0  0
    7.2803   15.1541   21.5911 C   0  0  0  0  0  0  0  0  0  0  0  0
    8.8039   14.9246   21.4352 C   0  0  1  0  0  0  0  0  0  0  0  0
    9.3235   15.4841   20.1066 C   0  0  0  0  0  0  0  0  0  0  0  0
   10.8201   15.6254   20.0083 C   0  0  2  0  0  0  0  0  0  0  0  0
   11.6724   14.3876   20.0552 C   0  0  0  0  0  0  0  0  0  0  0  0
   11.5771   13.7315   21.3197 O   0  0  0  0  0  0  0  0  0  0  0  0
   11.8552   14.6404   22.3659 C   0  0  0  0  0  0  0  0  0  0  0  0
   10.9947   15.8615   22.3423 C   0  0  2  0  0  0  0  0  0  0  0  0
    9.5101   15.7140   22.5115 C   0  0  0  0  0  0  0  0  0  0  0  0
   11.2143   16.4787   21.0942 O   0  0  0  0  0  0  0  0  0  0  0  0
    6.9260   13.3927   24.5921 C   0  0  0  0  0  0  0  0  0  0  0  0
    7.2990   11.9284   24.8052 C   0  0  0  0  0  0  0  0  0  0  0  0
    8.1281   11.7397   26.0747 C   0  0  0  0  0  0  0  0  0  0  0  0
    8.6973   13.0365   26.5446 N   0  0  0  0  0  0  0  0  0  0  0  0
    9.9921   13.6401   25.6152 S   0  0  0  0  0  0  0  0  0  0  0  0
   10.2109   15.0215   25.9671 O   0  0  0  0  0  0  0  0  0  0  0  0
    9.7808   13.2464   24.2443 O   0  0  0  0  0  0  0  0  0  0  0  0
   11.3455   12.7447   26.1404 N   0  0  0  0  0  0  0  0  0  0  0  0
   12.0471   13.4040   27.2658 C   0  0  0  0  0  0  0  0  0  0  0  0
   13.3034   12.6259   27.6811 C   0  0  0  0  0  0  0  0  0  0  0  0
   14.1827   12.1137   26.5472 C   0  0  0  0  0  0  0  0  0  0  0  0
   13.3674   11.5520   25.4049 C   0  0  0  0  0  0  0  0  0  0  0  0
   12.3064   12.5504   25.0202 C   0  0  0  0  0  0  0  0  0  0  0  0
    7.5822   14.0233   26.8813 C   0  0  0  0  0  0  0  0  0  0  0  0
    6.4131   14.0066   25.8659 C   0  0  0  0  0  0  0  0  0  0  0  0
  1  2  2  0
  2  3  1  0
  3  4  1  0
  5  4  1  6
  5  6  1  0
  7  6  1  1
  7  8  1  0
  8  9  1  0
  9 10  1  0
 11 10  1  6
 11 12  1  0
 11 13  1  0
  2 14  1  0
 14 15  1  0
 15 16  1  0
 16 17  1  0
 17 18  1  0
 18 19  2  0
 18 20  2  0
 18 21  1  0
 21 22  1  0
 22 23  1  0
 23 24  1  0
 24 25  1  0
 25 26  1  0
 17 27  1  0
 27 28  1  0
 12  5  1  0
 28 14  1  0
 13  7  1  0
 26 21  1  0
M  END
>  <energy_score>  (2773) 
-121.960954

>  <inchikey>  (2773) 
None

>  <smiles>  (2773) 
None

>  <ref_pdb>  (2773) 
A4706a

>  <alias>  (2773) 
None

>  <HIPPO Pose ID>  (2773) 
500417

>  <name>  (2773) 
P500417

>  <HIPPO Compound ID>  (2773) 
314714

>  <ref_mols>  (2773) 
A4706a,A0875a

>  <distance_score>  (2773) 
1.667909

>  <inspiration_score>  (2773) 
None

$$$$
P500418
     RDKit          3D

 28 30  0  0  0  0  0  0  0  0999 V2000
   11.4303   14.8375   18.3907 C   0  0  0  0  0  0  0  0  0  0  0  0
   10.6472   14.6861   19.5527 O   0  0  0  0  0  0  0  0  0  0  0  0
    9.8917   15.7610   19.8798 C   0  0  0  0  0  0  0  0  0  0  0  0
    9.6380   16.6785   19.1085 O   0  0  0  0  0  0  0  0  0  0  0  0
    9.4940   15.6785   21.3776 C   0  0  2  0  0  0  0  0  0  0  0  0
   10.6304   15.9674   22.2586 O   0  0  0  0  0  0  0  0  0  0  0  0
   11.7766   15.1394   22.1232 C   0  0  0  0  0  0  0  0  0  0  0  0
    8.6924   14.4253   21.8139 C   0  0  0  0  0  0  0  0  0  0  0  0
    7.9581   15.3670   22.8089 C   0  0  2  0  0  0  0  0  0  0  0  0
    6.6160   15.1020   23.2675 O   0  0  0  0  0  0  0  0  0  0  0  0
    6.3451   13.7972   23.5072 C   0  0  0  0  0  0  0  0  0  0  0  0
    6.4786   12.9258   22.6551 O   0  0  0  0  0  0  0  0  0  0  0  0
    5.7938   13.5237   24.9061 C   0  0  0  0  0  0  0  0  0  0  0  0
    6.3331   12.1947   25.4696 C   0  0  0  0  0  0  0  0  0  0  0  0
    7.3752   12.3392   26.5791 C   0  0  0  0  0  0  0  0  0  0  0  0
    8.2216   13.5527   26.4373 N   0  0  0  0  0  0  0  0  0  0  0  0
    9.4650   13.4551   25.3090 S   0  0  0  0  0  0  0  0  0  0  0  0
    8.9646   12.5860   24.2763 O   0  0  0  0  0  0  0  0  0  0  0  0
    9.9885   14.7672   25.0276 O   0  0  0  0  0  0  0  0  0  0  0  0
   10.7159   12.6326   26.1221 N   0  0  0  0  0  0  0  0  0  0  0  0
   11.4918   11.7866   25.1862 C   0  0  0  0  0  0  0  0  0  0  0  0
   12.9080   12.2715   24.9917 C   0  0  0  0  0  0  0  0  0  0  0  0
   13.7219   12.3630   26.2498 C   0  0  0  0  0  0  0  0  0  0  0  0
   12.8844   12.8771   27.3961 C   0  0  0  0  0  0  0  0  0  0  0  0
   11.5602   13.5282   26.9751 C   0  0  0  0  0  0  0  0  0  0  0  0
    7.4230   14.8071   26.4387 C   0  0  0  0  0  0  0  0  0  0  0  0
    5.9919   14.6374   25.9327 C   0  0  0  0  0  0  0  0  0  0  0  0
    8.1808   16.4436   21.7408 C   0  0  0  0  0  0  0  0  0  0  0  0
  1  2  1  0
  2  3  1  0
  3  4  2  0
  3  5  1  0
  5  6  1  1
  6  7  1  0
  5  8  1  0
  8  9  1  0
  9 10  1  6
 10 11  1  0
 11 12  2  0
 11 13  1  0
 13 14  1  0
 14 15  1  0
 15 16  1  0
 16 17  1  0
 17 18  2  0
 17 19  2  0
 17 20  1  0
 20 21  1  0
 21 22  1  0
 22 23  1  0
 23 24  1  0
 24 25  1  0
 16 26  1  0
 26 27  1  0
  9 28  1  0
 28  5  1  0
 27 13  1  0
 25 20  1  0
M  END
>  <energy_score>  (2774) 
-46.366079

>  <inchikey>  (2774) 
None

>  <smiles>  (2774) 
None

>  <ref_pdb>  (2774) 
A4706a

>  <alias>  (2774) 
None

>  <HIPPO Pose ID>  (2774) 
500418

>  <name>  (2774) 
P500418

>  <HIPPO Compound ID>  (2774) 
314715

>  <ref_mols>  (2774) 
A4706a,A0875a

>  <distance_score>  (2774) 
1.702632

>  <inspiration_score>  (2774) 
None

$$$$
P500419
     RDKit          3D

 28 31  0  0  0  0  0  0  0  0999 V2000
    6.2409   13.3344   22.7437 O   0  0  0  0  0  0  0  0  0  0  0  0
    6.5708   14.0578   23.6789 C   0  0  0  0  0  0  0  0  0  0  0  0
    7.5353   15.0184   23.6294 O   0  0  0  0  0  0  0  0  0  0  0  0
    8.4758   14.8254   22.5711 C   0  0  1  0  0  0  0  0  0  0  0  0
    8.0099   15.5128   21.3324 C   0  0  0  0  0  0  0  0  0  0  0  0
    8.8010   15.0442   20.2539 O   0  0  0  0  0  0  0  0  0  0  0  0
   10.0109   15.7702   20.0834 C   0  0  2  0  0  0  0  0  0  0  0  0
   10.5128   15.3757   18.7059 C   0  0  0  0  0  0  0  0  0  0  0  0
   11.2599   14.1386   18.9233 N   0  0  0  0  0  0  0  0  0  0  0  0
   11.9698   14.3938   20.1724 C   0  0  0  0  0  0  0  0  0  0  0  0
   11.1571   15.3505   21.0108 C   0  0  2  0  0  0  0  0  0  0  0  0
   10.8630   14.6971   22.2356 O   0  0  0  0  0  0  0  0  0  0  0  0
    9.8495   15.3404   22.9726 C   0  0  0  0  0  0  0  0  0  0  0  0
    5.9941   13.9207   25.0782 C   0  0  0  0  0  0  0  0  0  0  0  0
    6.1403   12.4600   25.5378 C   0  0  0  0  0  0  0  0  0  0  0  0
    7.1287   12.2859   26.6804 C   0  0  0  0  0  0  0  0  0  0  0  0
    8.3552   13.1085   26.4818 N   0  0  0  0  0  0  0  0  0  0  0  0
    9.4532   12.4383   25.4067 S   0  0  0  0  0  0  0  0  0  0  0  0
    9.6715   11.0824   25.8249 O   0  0  0  0  0  0  0  0  0  0  0  0
    8.9629   12.6629   24.0802 O   0  0  0  0  0  0  0  0  0  0  0  0
   10.8967   13.2551   25.5540 N   0  0  0  0  0  0  0  0  0  0  0  0
   11.4659   13.6902   26.8326 C   0  0  0  0  0  0  0  0  0  0  0  0
   12.7536   12.9702   27.2657 C   0  0  0  0  0  0  0  0  0  0  0  0
   13.6835   12.4715   26.1849 C   0  0  0  0  0  0  0  0  0  0  0  0
   12.8583   11.8547   25.0971 C   0  0  0  0  0  0  0  0  0  0  0  0
   11.9019   12.8970   24.5280 C   0  0  0  0  0  0  0  0  0  0  0  0
    8.0691   14.5567   26.4434 C   0  0  0  0  0  0  0  0  0  0  0  0
    6.6095   14.8772   26.1054 C   0  0  0  0  0  0  0  0  0  0  0  0
  1  2  2  0
  2  3  1  0
  4  3  1  1
  4  5  1  0
  5  6  1  0
  6  7  1  0
  7  8  1  6
  8  9  1  0
  9 10  1  0
 11 10  1  6
 11 12  1  0
 12 13  1  0
  2 14  1  0
 14 15  1  0
 15 16  1  0
 16 17  1  0
 17 18  1  0
 18 19  2  0
 18 20  2  0
 18 21  1  0
 21 22  1  0
 22 23  1  0
 23 24  1  0
 24 25  1  0
 25 26  1  0
 17 27  1  0
 27 28  1  0
 13  4  1  0
 28 14  1  0
 11  7  1  0
 26 21  1  0
M  END
>  <energy_score>  (2775) 
-63.779878

>  <inchikey>  (2775) 
None

>  <smiles>  (2775) 
None

>  <ref_pdb>  (2775) 
A4706a

>  <alias>  (2775) 
None

>  <HIPPO Pose ID>  (2775) 
500419

>  <name>  (2775) 
P500419

>  <HIPPO Compound ID>  (2775) 
314716

>  <ref_mols>  (2775) 
A4706a,A0875a

>  <distance_score>  (2775) 
1.893804

>  <inspiration_score>  (2775) 
None

$$$$
P500420
     RDKit          3D

 28 31  0  0  0  0  0  0  0  0999 V2000
    9.9629   16.2349   19.0777 C   0  0  0  0  0  0  0  0  0  0  0  0
   10.5885   15.1054   19.8168 C   0  0  0  0  0  0  0  0  0  0  0  0
   11.4497   14.3501   18.8605 C   0  0  0  0  0  0  0  0  0  0  0  0
    9.4527   14.3659   20.3067 O   0  0  0  0  0  0  0  0  0  0  0  0
    9.6760   14.3433   21.6763 C   0  0  2  0  0  0  0  0  0  0  0  0
    8.5736   14.5697   22.6721 C   0  0  1  0  0  0  0  0  0  0  0  0
    7.8177   13.4038   22.9890 O   0  0  0  0  0  0  0  0  0  0  0  0
    6.9581   13.6568   24.0161 C   0  0  0  0  0  0  0  0  0  0  0  0
    6.3564   14.7121   24.1666 O   0  0  0  0  0  0  0  0  0  0  0  0
    6.9083   12.5205   25.0230 C   0  0  0  0  0  0  0  0  0  0  0  0
    8.1191   11.5750   24.9714 C   0  0  0  0  0  0  0  0  0  0  0  0
    9.1551   11.8402   26.0664 C   0  0  0  0  0  0  0  0  0  0  0  0
    9.3036   13.2723   26.3577 N   0  0  0  0  0  0  0  0  0  0  0  0
   10.7112   13.9661   27.0220 S   0  0  0  0  0  0  0  0  0  0  0  0
   11.0307   15.1613   26.2775 O   0  0  0  0  0  0  0  0  0  0  0  0
   10.4974   14.0580   28.4438 O   0  0  0  0  0  0  0  0  0  0  0  0
   11.9704   12.8343   26.7511 N   0  0  0  0  0  0  0  0  0  0  0  0
   12.4277   12.6910   25.3568 C   0  0  0  0  0  0  0  0  0  0  0  0
   13.3184   11.4536   25.2840 C   0  0  0  0  0  0  0  0  0  0  0  0
   14.5207   11.4598   26.2044 C   0  0  0  0  0  0  0  0  0  0  0  0
   14.5001   12.6504   27.1192 C   0  0  0  0  0  0  0  0  0  0  0  0
   13.1280   12.9586   27.7162 C   0  0  0  0  0  0  0  0  0  0  0  0
    8.0324   13.9377   26.8089 C   0  0  0  0  0  0  0  0  0  0  0  0
    6.7889   13.1228   26.4285 C   0  0  0  0  0  0  0  0  0  0  0  0
    9.4958   14.9084   23.8592 C   0  0  0  0  0  0  0  0  0  0  0  0
   10.8118   15.4656   23.3252 C   0  0  0  0  0  0  0  0  0  0  0  0
   10.4535   15.6166   21.9016 C   0  0  1  0  0  0  0  0  0  0  0  0
   11.4145   15.5623   20.9003 O   0  0  0  0  0  0  0  0  0  0  0  0
  1  2  1  0
  2  3  1  0
  2  4  1  0
  5  4  1  6
  5  6  1  0
  6  7  1  1
  7  8  1  0
  8  9  2  0
  8 10  1  0
 10 11  1  0
 11 12  1  0
 12 13  1  0
 13 14  1  0
 14 15  2  0
 14 16  2  0
 14 17  1  0
 17 18  1  0
 18 19  1  0
 19 20  1  0
 20 21  1  0
 21 22  1  0
 13 23  1  0
 23 24  1  0
  6 25  1  0
 25 26  1  0
 27 26  1  1
 27 28  1  0
 28  2  1  0
 27  5  1  0
 24 10  1  0
 22 17  1  0
M  END
>  <energy_score>  (2776) 
-32.297738

>  <inchikey>  (2776) 
None

>  <smiles>  (2776) 
None

>  <ref_pdb>  (2776) 
A4706a

>  <alias>  (2776) 
None

>  <HIPPO Pose ID>  (2776) 
500420

>  <name>  (2776) 
P500420

>  <HIPPO Compound ID>  (2776) 
314717

>  <ref_mols>  (2776) 
A0875a,A4706a

>  <distance_score>  (2776) 
1.823972

>  <inspiration_score>  (2776) 
None

$$$$
P500421
     RDKit          3D

 28 31  0  0  0  0  0  0  0  0999 V2000
   10.7916   14.0159   19.4155 C   0  0  0  0  0  0  0  0  0  0  0  0
   10.7715   15.4635   19.6414 C   0  0  0  0  0  0  0  0  0  0  0  0
   11.0961   15.9285   18.2887 C   0  0  0  0  0  0  0  0  0  0  0  0
    9.4746   15.9026   20.0147 O   0  0  0  0  0  0  0  0  0  0  0  0
    9.4856   15.9794   21.4349 C   0  0  1  0  0  0  0  0  0  0  0  0
    9.0972   14.6411   22.1042 C   0  0  2  0  0  0  0  0  0  0  0  0
    8.1765   14.8503   23.2145 O   0  0  0  0  0  0  0  0  0  0  0  0
    7.1058   13.9977   23.3015 C   0  0  0  0  0  0  0  0  0  0  0  0
    6.7792   13.1990   22.4225 O   0  0  0  0  0  0  0  0  0  0  0  0
    6.3310   14.0618   24.6451 C   0  0  0  0  0  0  0  0  0  0  0  0
    6.1832   12.6519   25.2847 C   0  0  0  0  0  0  0  0  0  0  0  0
    7.1446   12.2495   26.4230 C   0  0  0  0  0  0  0  0  0  0  0  0
    8.1158   13.3292   26.7647 N   0  0  0  0  0  0  0  0  0  0  0  0
    9.4064   13.4454   25.6956 S   0  0  0  0  0  0  0  0  0  0  0  0
    9.7775   14.8356   25.6269 O   0  0  0  0  0  0  0  0  0  0  0  0
    8.9704   12.6777   24.5568 O   0  0  0  0  0  0  0  0  0  0  0  0
   10.7436   12.6207   26.3458 N   0  0  0  0  0  0  0  0  0  0  0  0
   11.4659   11.7821   25.3320 C   0  0  0  0  0  0  0  0  0  0  0  0
   12.8641   12.2857   25.0503 C   0  0  0  0  0  0  0  0  0  0  0  0
   13.7478   12.3352   26.2690 C   0  0  0  0  0  0  0  0  0  0  0  0
   12.9897   12.8536   27.4701 C   0  0  0  0  0  0  0  0  0  0  0  0
   11.6568   13.5243   27.1189 C   0  0  0  0  0  0  0  0  0  0  0  0
    7.3580   14.5954   26.9644 C   0  0  0  0  0  0  0  0  0  0  0  0
    6.7573   15.1310   25.6603 C   0  0  0  0  0  0  0  0  0  0  0  0
   10.4630   14.1019   22.5754 C   0  0  0  0  0  0  0  0  0  0  0  0
   11.2802   15.3244   22.9068 C   0  0  0  0  0  0  0  0  0  0  0  0
   10.9561   16.2111   21.7490 C   0  0  1  0  0  0  0  0  0  0  0  0
   11.7165   15.7610   20.6355 O   0  0  0  0  0  0  0  0  0  0  0  0
  1  2  1  0
  2  3  1  0
  2  4  1  0
  5  4  1  6
  5  6  1  0
  6  7  1  1
  7  8  1  0
  8  9  2  0
  8 10  1  0
 10 11  1  0
 11 12  1  0
 12 13  1  0
 13 14  1  0
 14 15  2  0
 14 16  2  0
 14 17  1  0
 17 18  1  0
 18 19  1  0
 19 20  1  0
 20 21  1  0
 21 22  1  0
 13 23  1  0
 23 24  1  0
  6 25  1  0
 25 26  1  0
 27 26  1  1
 27 28  1  0
 28  2  1  0
 27  5  1  0
 24 10  1  0
 22 17  1  0
M  END
>  <energy_score>  (2777) 
-16.877331

>  <inchikey>  (2777) 
None

>  <smiles>  (2777) 
None

>  <ref_pdb>  (2777) 
A4706a

>  <alias>  (2777) 
None

>  <HIPPO Pose ID>  (2777) 
500421

>  <name>  (2777) 
P500421

>  <HIPPO Compound ID>  (2777) 
314717

>  <ref_mols>  (2777) 
A4706a,A0875a

>  <distance_score>  (2777) 
1.573719

>  <inspiration_score>  (2777) 
None

$$$$
P500422
     RDKit          3D

 28 31  0  0  0  0  0  0  0  0999 V2000
    9.6619   16.2753   19.4248 C   0  0  0  0  0  0  0  0  0  0  0  0
   10.6807   15.2203   19.7125 C   0  0  0  0  0  0  0  0  0  0  0  0
   11.3426   14.6943   18.4763 C   0  0  0  0  0  0  0  0  0  0  0  0
    9.9329   14.1915   20.3433 O   0  0  0  0  0  0  0  0  0  0  0  0
   10.6239   13.9075   21.5252 C   0  0  1  0  0  0  0  0  0  0  0  0
   11.5301   15.0723   21.7846 C   0  0  2  0  0  0  0  0  0  0  0  0
   10.7437   15.9166   22.7175 C   0  0  0  0  0  0  0  0  0  0  0  0
   10.1331   14.9006   23.6273 C   0  0  0  0  0  0  0  0  0  0  0  0
    9.7144   13.7602   22.7260 C   0  0  1  0  0  0  0  0  0  0  0  0
    8.2860   13.8589   22.5781 O   0  0  0  0  0  0  0  0  0  0  0  0
    7.6250   12.9938   23.3946 C   0  0  0  0  0  0  0  0  0  0  0  0
    8.0137   11.8453   23.5981 O   0  0  0  0  0  0  0  0  0  0  0  0
    6.3350   13.5153   24.0174 C   0  0  0  0  0  0  0  0  0  0  0  0
    6.0260   12.6839   25.2934 C   0  0  0  0  0  0  0  0  0  0  0  0
    7.0042   12.9483   26.4601 C   0  0  0  0  0  0  0  0  0  0  0  0
    7.8896   14.0709   26.0752 N   0  0  0  0  0  0  0  0  0  0  0  0
    9.2613   14.4531   26.9670 S   0  0  0  0  0  0  0  0  0  0  0  0
    8.8764   14.5327   28.3490 O   0  0  0  0  0  0  0  0  0  0  0  0
    9.8692   15.5910   26.3200 O   0  0  0  0  0  0  0  0  0  0  0  0
   10.3698   13.1531   26.8031 N   0  0  0  0  0  0  0  0  0  0  0  0
   10.0591   12.1647   25.7824 C   0  0  0  0  0  0  0  0  0  0  0  0
   11.1848   11.3916   25.1571 C   0  0  0  0  0  0  0  0  0  0  0  0
   12.5506   12.0470   25.2001 C   0  0  0  0  0  0  0  0  0  0  0  0
   12.8144   12.5965   26.5795 C   0  0  0  0  0  0  0  0  0  0  0  0
   11.7685   13.6387   26.9167 C   0  0  0  0  0  0  0  0  0  0  0  0
    7.0352   15.2483   25.7507 C   0  0  0  0  0  0  0  0  0  0  0  0
    6.3831   15.0011   24.3900 C   0  0  0  0  0  0  0  0  0  0  0  0
   11.7151   15.7007   20.5565 O   0  0  0  0  0  0  0  0  0  0  0  0
  1  2  1  0
  2  3  1  0
  2  4  1  0
  5  4  1  6
  5  6  1  0
  6  7  1  1
  7  8  1  0
  8  9  1  0
  9 10  1  6
 10 11  1  0
 11 12  2  0
 11 13  1  0
 13 14  1  0
 14 15  1  0
 15 16  1  0
 16 17  1  0
 17 18  2  0
 17 19  2  0
 17 20  1  0
 20 21  1  0
 21 22  1  0
 22 23  1  0
 23 24  1  0
 24 25  1  0
 16 26  1  0
 26 27  1  0
  6 28  1  0
 28  2  1  0
  9  5  1  0
 27 13  1  0
 25 20  1  0
M  END
>  <energy_score>  (2778) 
-30.726422

>  <inchikey>  (2778) 
None

>  <smiles>  (2778) 
None

>  <ref_pdb>  (2778) 
A4706a

>  <alias>  (2778) 
None

>  <HIPPO Pose ID>  (2778) 
500422

>  <name>  (2778) 
P500422

>  <HIPPO Compound ID>  (2778) 
314717

>  <ref_mols>  (2778) 
A4706a,A0875a

>  <distance_score>  (2778) 
1.891726

>  <inspiration_score>  (2778) 
None

$$$$
P500423
     RDKit          3D

 28 31  0  0  0  0  0  0  0  0999 V2000
    6.2471   12.8870   22.5302 O   0  0  0  0  0  0  0  0  0  0  0  0
    6.5497   13.5477   23.5187 C   0  0  0  0  0  0  0  0  0  0  0  0
    7.7250   14.2212   23.6295 O   0  0  0  0  0  0  0  0  0  0  0  0
    8.7167   13.8488   22.6509 C   0  0  1  0  0  0  0  0  0  0  0  0
    8.3393   14.3494   21.2777 C   0  0  0  0  0  0  0  0  0  0  0  0
    9.4029   14.0471   20.4084 O   0  0  0  0  0  0  0  0  0  0  0  0
   10.4645   14.9738   20.2886 C   0  0  1  0  0  0  0  0  0  0  0  0
   10.1898   15.7969   19.0597 C   0  0  0  0  0  0  0  0  0  0  0  0
    9.5312   16.9965   19.4950 O   0  0  0  0  0  0  0  0  0  0  0  0
    9.6764   17.1250   20.9160 C   0  0  0  0  0  0  0  0  0  0  0  0
   10.6064   16.0135   21.3840 C   0  0  1  0  0  0  0  0  0  0  0  0
   10.3820   15.6651   22.7363 O   0  0  0  0  0  0  0  0  0  0  0  0
   10.1496   14.2993   22.9954 C   0  0  0  0  0  0  0  0  0  0  0  0
    5.6529   13.5556   24.7403 C   0  0  0  0  0  0  0  0  0  0  0  0
    6.0713   12.4140   25.6904 C   0  0  0  0  0  0  0  0  0  0  0  0
    6.9656   12.8952   26.8366 C   0  0  0  0  0  0  0  0  0  0  0  0
    7.7215   14.0303   26.3191 N   0  0  0  0  0  0  0  0  0  0  0  0
    9.2514   14.4498   26.8040 S   0  0  0  0  0  0  0  0  0  0  0  0
    9.7140   15.4362   25.8581 O   0  0  0  0  0  0  0  0  0  0  0  0
    9.1979   14.7493   28.2095 O   0  0  0  0  0  0  0  0  0  0  0  0
   10.2710   13.1053   26.6390 N   0  0  0  0  0  0  0  0  0  0  0  0
   11.6772   13.6046   26.6746 C   0  0  0  0  0  0  0  0  0  0  0  0
   12.7047   12.5312   26.4517 C   0  0  0  0  0  0  0  0  0  0  0  0
   12.4301   11.8881   25.1241 C   0  0  0  0  0  0  0  0  0  0  0  0
   11.0178   11.3163   25.0297 C   0  0  0  0  0  0  0  0  0  0  0  0
    9.8994   12.1178   25.6325 C   0  0  0  0  0  0  0  0  0  0  0  0
    6.8448   15.2373   26.2092 C   0  0  0  0  0  0  0  0  0  0  0  0
    5.5796   14.9031   25.4363 C   0  0  0  0  0  0  0  0  0  0  0  0
  1  2  2  0
  2  3  1  0
  4  3  1  1
  4  5  1  0
  5  6  1  0
  6  7  1  0
  7  8  1  6
  8  9  1  0
  9 10  1  0
 11 10  1  6
 11 12  1  0
 12 13  1  0
  2 14  1  0
 14 15  1  0
 15 16  1  0
 16 17  1  0
 17 18  1  0
 18 19  2  0
 18 20  2  0
 18 21  1  0
 21 22  1  0
 22 23  1  0
 23 24  1  0
 24 25  1  0
 25 26  1  0
 17 27  1  0
 27 28  1  0
 13  4  1  0
 28 14  1  0
 11  7  1  0
 26 21  1  0
M  END
>  <energy_score>  (2779) 
-41.324952

>  <inchikey>  (2779) 
None

>  <smiles>  (2779) 
None

>  <ref_pdb>  (2779) 
A4706a

>  <alias>  (2779) 
None

>  <HIPPO Pose ID>  (2779) 
500423

>  <name>  (2779) 
P500423

>  <HIPPO Compound ID>  (2779) 
314718

>  <ref_mols>  (2779) 
A4706a,A0875a

>  <distance_score>  (2779) 
1.852866

>  <inspiration_score>  (2779) 
None

$$$$
P500424
     RDKit          3D

 28 31  0  0  0  0  0  0  0  0999 V2000
    6.8458   13.1322   22.2206 O   0  0  0  0  0  0  0  0  0  0  0  0
    7.9375   13.2104   22.7717 C   0  0  0  0  0  0  0  0  0  0  0  0
    9.0955   13.3555   22.0766 O   0  0  0  0  0  0  0  0  0  0  0  0
   10.3241   13.9225   22.6147 C   0  0  0  0  0  0  0  0  0  0  0  0
   11.4346   14.0147   21.5640 C   0  0  0  0  0  0  0  0  0  0  0  0
   11.1015   14.4718   20.2680 O   0  0  0  0  0  0  0  0  0  0  0  0
    9.9494   15.2834   20.2086 C   0  0  2  0  0  0  0  0  0  0  0  0
    9.9194   15.9917   18.9113 C   0  0  0  0  0  0  0  0  0  0  0  0
    9.3605   17.2942   19.1555 O   0  0  0  0  0  0  0  0  0  0  0  0
    9.0806   17.4479   20.5354 C   0  0  0  0  0  0  0  0  0  0  0  0
    9.9159   16.4140   21.2005 C   0  0  1  0  0  0  0  0  0  0  0  0
    9.2381   16.0421   22.3646 O   0  0  0  0  0  0  0  0  0  0  0  0
   10.0674   15.2991   23.2047 C   0  0  0  0  0  0  0  0  0  0  0  0
    8.0987   13.0447   24.2352 C   0  0  0  0  0  0  0  0  0  0  0  0
    8.0507   11.6017   24.6796 C   0  0  0  0  0  0  0  0  0  0  0  0
    8.8116   11.5138   25.9940 C   0  0  0  0  0  0  0  0  0  0  0  0
    9.0408   12.8502   26.5811 N   0  0  0  0  0  0  0  0  0  0  0  0
   10.4963   13.6749   26.7396 S   0  0  0  0  0  0  0  0  0  0  0  0
   10.4604   14.2028   28.0767 O   0  0  0  0  0  0  0  0  0  0  0  0
   10.6860   14.5766   25.6358 O   0  0  0  0  0  0  0  0  0  0  0  0
   11.7828   12.5472   26.6243 N   0  0  0  0  0  0  0  0  0  0  0  0
   12.1809   12.2028   25.2496 C   0  0  0  0  0  0  0  0  0  0  0  0
   13.3054   11.1665   25.2271 C   0  0  0  0  0  0  0  0  0  0  0  0
   14.4619   11.3833   26.1647 C   0  0  0  0  0  0  0  0  0  0  0  0
   14.3320   12.7317   26.7916 C   0  0  0  0  0  0  0  0  0  0  0  0
   12.9752   12.9236   27.4688 C   0  0  0  0  0  0  0  0  0  0  0  0
    7.7946   13.7012   26.6003 C   0  0  0  0  0  0  0  0  0  0  0  0
    7.2811   13.9206   25.1682 C   0  0  0  0  0  0  0  0  0  0  0  0
  1  2  2  0
  2  3  1  0
  3  4  1  0
  4  5  1  0
  5  6  1  0
  6  7  1  0
  7  8  1  6
  8  9  1  0
  9 10  1  0
 11 10  1  6
 11 12  1  0
 12 13  1  0
  2 14  1  0
 14 15  1  0
 15 16  1  0
 16 17  1  0
 17 18  1  0
 18 19  2  0
 18 20  2  0
 18 21  1  0
 21 22  1  0
 22 23  1  0
 23 24  1  0
 24 25  1  0
 25 26  1  0
 17 27  1  0
 27 28  1  0
 13  4  1  0
 28 14  1  0
 11  7  1  0
 26 21  1  0
M  END
>  <energy_score>  (2780) 
-7.038167

>  <inchikey>  (2780) 
None

>  <smiles>  (2780) 
None

>  <ref_pdb>  (2780) 
A4706a

>  <alias>  (2780) 
None

>  <HIPPO Pose ID>  (2780) 
500424

>  <name>  (2780) 
P500424

>  <HIPPO Compound ID>  (2780) 
314718

>  <ref_mols>  (2780) 
A4706a,A0875a

>  <distance_score>  (2780) 
1.693612

>  <inspiration_score>  (2780) 
None

$$$$
P500425
     RDKit          3D

 28 29  0  0  0  0  0  0  0  0999 V2000
   11.2083   13.1787   22.3328 N   0  0  0  0  0  0  0  0  0  0  0  0
    9.7522   13.2141   22.1080 C   0  0  0  0  0  0  0  0  0  0  0  0
    8.9387   14.4559   22.4709 C   0  0  2  0  0  0  0  0  0  0  0  0
    9.8706   15.6645   22.5159 C   0  0  0  0  0  0  0  0  0  0  0  0
   10.7059   15.7269   21.3445 O   0  0  0  0  0  0  0  0  0  0  0  0
    9.9137   16.0654   20.2031 C   0  0  0  0  0  0  0  0  0  0  0  0
   10.3206   15.4138   18.9009 C   0  0  0  0  0  0  0  0  0  0  0  0
   10.7358   14.1448   19.0349 F   0  0  0  0  0  0  0  0  0  0  0  0
   11.2803   16.0941   18.2711 F   0  0  0  0  0  0  0  0  0  0  0  0
    9.2203   15.4098   18.1107 F   0  0  0  0  0  0  0  0  0  0  0  0
    8.0694   14.3108   23.6049 O   0  0  0  0  0  0  0  0  0  0  0  0
    6.9457   13.5782   23.3626 C   0  0  0  0  0  0  0  0  0  0  0  0
    6.7366   12.9944   22.3006 O   0  0  0  0  0  0  0  0  0  0  0  0
    5.9673   13.4513   24.5222 C   0  0  0  0  0  0  0  0  0  0  0  0
    6.3580   12.2905   25.4553 C   0  0  0  0  0  0  0  0  0  0  0  0
    7.2182   12.7363   26.6424 C   0  0  0  0  0  0  0  0  0  0  0  0
    7.8423   13.9983   26.2533 N   0  0  0  0  0  0  0  0  0  0  0  0
    9.3584   14.4726   26.7342 S   0  0  0  0  0  0  0  0  0  0  0  0
    9.3024   14.7531   28.1428 O   0  0  0  0  0  0  0  0  0  0  0  0
    9.8172   15.4539   25.7805 O   0  0  0  0  0  0  0  0  0  0  0  0
   10.3348   13.1154   26.5325 N   0  0  0  0  0  0  0  0  0  0  0  0
   10.1864   12.5707   25.1912 C   0  0  0  0  0  0  0  0  0  0  0  0
   11.0417   11.3611   25.0247 C   0  0  0  0  0  0  0  0  0  0  0  0
   12.5218   11.6921   25.2612 C   0  0  0  0  0  0  0  0  0  0  0  0
   12.7382   13.0927   25.7651 C   0  0  0  0  0  0  0  0  0  0  0  0
   11.7630   13.4391   26.8707 C   0  0  0  0  0  0  0  0  0  0  0  0
    6.8638   15.1081   26.2290 C   0  0  0  0  0  0  0  0  0  0  0  0
    5.7392   14.7633   25.2646 C   0  0  0  0  0  0  0  0  0  0  0  0
  1  2  1  0
  3  2  1  1
  3  4  1  0
  4  5  1  0
  5  6  1  0
  6  7  1  0
  7  8  1  0
  7  9  1  0
  7 10  1  0
  3 11  1  0
 11 12  1  0
 12 13  2  0
 12 14  1  0
 14 15  1  0
 15 16  1  0
 16 17  1  0
 17 18  1  0
 18 19  2  0
 18 20  2  0
 18 21  1  0
 21 22  1  0
 22 23  1  0
 23 24  1  0
 24 25  1  0
 25 26  1  0
 17 27  1  0
 27 28  1  0
 28 14  1  0
 26 21  1  0
M  END
>  <energy_score>  (2781) 
-34.621049

>  <inchikey>  (2781) 
None

>  <smiles>  (2781) 
None

>  <ref_pdb>  (2781) 
A4706a

>  <alias>  (2781) 
None

>  <HIPPO Pose ID>  (2781) 
500425

>  <name>  (2781) 
P500425

>  <HIPPO Compound ID>  (2781) 
314720

>  <ref_mols>  (2781) 
A0875a,A4706a

>  <distance_score>  (2781) 
1.690172

>  <inspiration_score>  (2781) 
None

$$$$
P500426
     RDKit          3D

 28 31  0  0  0  0  0  0  0  0999 V2000
   12.5343   14.4378   19.4225 N   0  0  0  0  0  0  0  0  0  0  0  0
   11.9532   15.0460   20.5994 C   0  0  0  0  0  0  0  0  0  0  0  0
   10.6380   15.6928   20.2264 C   0  0  1  0  0  0  0  0  0  0  0  0
    9.6966   14.7527   19.5803 C   0  0  0  0  0  0  0  0  0  0  0  0
    8.8088   14.2917   20.6008 O   0  0  0  0  0  0  0  0  0  0  0  0
    8.5927   15.4069   21.4605 C   0  0  2  0  0  0  0  0  0  0  0  0
    9.8915   16.1978   21.4308 C   0  0  1  0  0  0  0  0  0  0  0  0
   10.6200   15.8488   22.6150 O   0  0  0  0  0  0  0  0  0  0  0  0
    9.9171   14.7645   23.2103 C   0  0  0  0  0  0  0  0  0  0  0  0
    8.4582   14.9740   22.8966 C   0  0  2  0  0  0  0  0  0  0  0  0
    7.6390   13.8369   23.1946 O   0  0  0  0  0  0  0  0  0  0  0  0
    6.3144   14.1463   23.1965 C   0  0  0  0  0  0  0  0  0  0  0  0
    5.7870   14.9039   22.3898 O   0  0  0  0  0  0  0  0  0  0  0  0
    5.5348   13.5545   24.3694 C   0  0  0  0  0  0  0  0  0  0  0  0
    6.1774   12.3610   25.1085 C   0  0  0  0  0  0  0  0  0  0  0  0
    6.9092   12.7935   26.3798 C   0  0  0  0  0  0  0  0  0  0  0  0
    7.5546   14.0637   26.0428 N   0  0  0  0  0  0  0  0  0  0  0  0
    9.0463   14.4842   26.6395 S   0  0  0  0  0  0  0  0  0  0  0  0
    9.0626   14.2301   28.0510 O   0  0  0  0  0  0  0  0  0  0  0  0
    9.3339   15.8063   26.1497 O   0  0  0  0  0  0  0  0  0  0  0  0
   10.1689   13.4749   25.9027 N   0  0  0  0  0  0  0  0  0  0  0  0
    9.8736   12.0674   25.7023 C   0  0  0  0  0  0  0  0  0  0  0  0
   10.9758   11.3471   24.9665 C   0  0  0  0  0  0  0  0  0  0  0  0
   12.3838   11.6829   25.4451 C   0  0  0  0  0  0  0  0  0  0  0  0
   12.5689   13.1697   25.3858 C   0  0  0  0  0  0  0  0  0  0  0  0
   11.5558   13.8048   26.3240 C   0  0  0  0  0  0  0  0  0  0  0  0
    6.5508   15.1661   26.0523 C   0  0  0  0  0  0  0  0  0  0  0  0
    5.2656   14.6985   25.3591 C   0  0  0  0  0  0  0  0  0  0  0  0
  1  2  1  0
  3  2  1  1
  3  4  1  0
  4  5  1  0
  6  5  1  6
  6  7  1  0
  7  8  1  1
  8  9  1  0
  9 10  1  0
 10 11  1  6
 11 12  1  0
 12 13  2  0
 12 14  1  0
 14 15  1  0
 15 16  1  0
 16 17  1  0
 17 18  1  0
 18 19  2  0
 18 20  2  0
 18 21  1  0
 21 22  1  0
 22 23  1  0
 23 24  1  0
 24 25  1  0
 25 26  1  0
 17 27  1  0
 27 28  1  0
  7  3  1  0
 28 14  1  0
 10  6  1  0
 26 21  1  0
M  END
>  <energy_score>  (2782) 
-69.478353

>  <inchikey>  (2782) 
None

>  <smiles>  (2782) 
None

>  <ref_pdb>  (2782) 
A4706a

>  <alias>  (2782) 
None

>  <HIPPO Pose ID>  (2782) 
500426

>  <name>  (2782) 
P500426

>  <HIPPO Compound ID>  (2782) 
314721

>  <ref_mols>  (2782) 
A4706a,A0875a

>  <distance_score>  (2782) 
1.89455

>  <inspiration_score>  (2782) 
None

$$$$
P500427
     RDKit          3D

 28 31  0  0  0  0  0  0  0  0999 V2000
   12.2623   14.0396   19.8913 N   0  0  0  0  0  0  0  0  0  0  0  0
   11.5784   14.3187   21.1405 C   0  0  0  0  0  0  0  0  0  0  0  0
   10.7635   15.5466   20.8844 C   0  0  1  0  0  0  0  0  0  0  0  0
    9.8940   15.4780   19.6239 C   0  0  0  0  0  0  0  0  0  0  0  0
    8.5838   14.9918   20.0378 O   0  0  0  0  0  0  0  0  0  0  0  0
    8.6190   14.8066   21.4251 C   0  0  1  0  0  0  0  0  0  0  0  0
    9.6790   15.7903   21.8591 C   0  0  1  0  0  0  0  0  0  0  0  0
    9.8115   15.5785   23.2328 O   0  0  0  0  0  0  0  0  0  0  0  0
    8.4401   15.3172   23.6136 C   0  0  0  0  0  0  0  0  0  0  0  0
    7.5333   15.2651   22.3778 C   0  0  2  0  0  0  0  0  0  0  0  0
    6.3383   14.5074   22.6559 O   0  0  0  0  0  0  0  0  0  0  0  0
    6.4947   13.4014   23.4231 C   0  0  0  0  0  0  0  0  0  0  0  0
    7.3020   12.5281   23.1299 O   0  0  0  0  0  0  0  0  0  0  0  0
    5.5838   13.3423   24.6491 C   0  0  0  0  0  0  0  0  0  0  0  0
    6.0240   12.2064   25.6077 C   0  0  0  0  0  0  0  0  0  0  0  0
    7.1778   12.5548   26.5611 C   0  0  0  0  0  0  0  0  0  0  0  0
    7.6671   13.9074   26.2438 N   0  0  0  0  0  0  0  0  0  0  0  0
    9.1681   14.4188   26.8141 S   0  0  0  0  0  0  0  0  0  0  0  0
    9.5503   15.6068   26.0974 O   0  0  0  0  0  0  0  0  0  0  0  0
    9.1130   14.4422   28.2500 O   0  0  0  0  0  0  0  0  0  0  0  0
   10.2521   13.2222   26.3640 N   0  0  0  0  0  0  0  0  0  0  0  0
   10.1662   12.7653   24.9786 C   0  0  0  0  0  0  0  0  0  0  0  0
   10.9459   11.4915   24.8981 C   0  0  0  0  0  0  0  0  0  0  0  0
   12.4235   11.7373   25.2386 C   0  0  0  0  0  0  0  0  0  0  0  0
   12.6905   13.1187   25.7704 C   0  0  0  0  0  0  0  0  0  0  0  0
   11.6462   13.5740   26.7708 C   0  0  0  0  0  0  0  0  0  0  0  0
    6.5789   14.8918   26.4584 C   0  0  0  0  0  0  0  0  0  0  0  0
    5.4893   14.6756   25.4061 C   0  0  0  0  0  0  0  0  0  0  0  0
  1  2  1  0
  3  2  1  1
  3  4  1  0
  4  5  1  0
  6  5  1  6
  6  7  1  0
  7  8  1  1
  8  9  1  0
  9 10  1  0
 10 11  1  1
 11 12  1  0
 12 13  2  0
 12 14  1  0
 14 15  1  0
 15 16  1  0
 16 17  1  0
 17 18  1  0
 18 19  2  0
 18 20  2  0
 18 21  1  0
 21 22  1  0
 22 23  1  0
 23 24  1  0
 24 25  1  0
 25 26  1  0
 17 27  1  0
 27 28  1  0
  7  3  1  0
 28 14  1  0
 10  6  1  0
 26 21  1  0
M  END
>  <energy_score>  (2783) 
-33.370602

>  <inchikey>  (2783) 
None

>  <smiles>  (2783) 
None

>  <ref_pdb>  (2783) 
A4706a

>  <alias>  (2783) 
None

>  <HIPPO Pose ID>  (2783) 
500427

>  <name>  (2783) 
P500427

>  <HIPPO Compound ID>  (2783) 
314721

>  <ref_mols>  (2783) 
A0875a,A4706a

>  <distance_score>  (2783) 
1.805045

>  <inspiration_score>  (2783) 
None

$$$$
P500428
     RDKit          3D

 28 31  0  0  0  0  0  0  0  0999 V2000
   11.8037   13.5765   21.3570 N   0  0  0  0  0  0  0  0  0  0  0  0
   12.1552   14.6967   20.4677 C   0  0  0  0  0  0  0  0  0  0  0  0
   10.9941   15.4864   19.8735 C   0  0  1  0  0  0  0  0  0  0  0  0
    9.9774   14.5847   19.3101 C   0  0  0  0  0  0  0  0  0  0  0  0
    9.2448   14.1594   20.4933 O   0  0  0  0  0  0  0  0  0  0  0  0
    8.9183   15.3783   21.1221 C   0  0  2  0  0  0  0  0  0  0  0  0
   10.1569   16.2502   20.8768 C   0  0  1  0  0  0  0  0  0  0  0  0
   10.8874   16.3808   22.0939 O   0  0  0  0  0  0  0  0  0  0  0  0
   10.1850   15.6198   23.0646 C   0  0  0  0  0  0  0  0  0  0  0  0
    8.7454   15.5246   22.5972 C   0  0  2  0  0  0  0  0  0  0  0  0
    7.8705   14.8520   23.4996 O   0  0  0  0  0  0  0  0  0  0  0  0
    7.0954   13.7831   23.2539 C   0  0  0  0  0  0  0  0  0  0  0  0
    6.9096   13.2543   22.1660 O   0  0  0  0  0  0  0  0  0  0  0  0
    6.4585   13.2483   24.5623 C   0  0  0  0  0  0  0  0  0  0  0  0
    6.9692   11.8318   24.8950 C   0  0  0  0  0  0  0  0  0  0  0  0
    7.9273   11.6420   26.0644 C   0  0  0  0  0  0  0  0  0  0  0  0
    8.4986   12.9133   26.5227 N   0  0  0  0  0  0  0  0  0  0  0  0
    9.7234   13.5533   25.5850 S   0  0  0  0  0  0  0  0  0  0  0  0
    9.4801   13.0968   24.2416 O   0  0  0  0  0  0  0  0  0  0  0  0
    9.8469   14.9447   25.9400 O   0  0  0  0  0  0  0  0  0  0  0  0
   11.1507   12.7741   26.0676 N   0  0  0  0  0  0  0  0  0  0  0  0
   12.0743   12.6144   24.8986 C   0  0  0  0  0  0  0  0  0  0  0  0
   13.1922   11.6751   25.3146 C   0  0  0  0  0  0  0  0  0  0  0  0
   14.0325   12.3058   26.4051 C   0  0  0  0  0  0  0  0  0  0  0  0
   13.1605   12.7864   27.5515 C   0  0  0  0  0  0  0  0  0  0  0  0
   11.8662   13.5058   27.1455 C   0  0  0  0  0  0  0  0  0  0  0  0
    7.4102   13.8458   26.9118 C   0  0  0  0  0  0  0  0  0  0  0  0
    6.4868   14.2193   25.7555 C   0  0  0  0  0  0  0  0  0  0  0  0
  1  2  1  0
  3  2  1  1
  3  4  1  0
  4  5  1  0
  6  5  1  1
  6  7  1  0
  7  8  1  1
  8  9  1  0
  9 10  1  0
 10 11  1  1
 11 12  1  0
 12 13  2  0
 12 14  1  0
 14 15  1  0
 15 16  1  0
 16 17  1  0
 17 18  1  0
 18 19  2  0
 18 20  2  0
 18 21  1  0
 21 22  1  0
 22 23  1  0
 23 24  1  0
 24 25  1  0
 25 26  1  0
 17 27  1  0
 27 28  1  0
  7  3  1  0
 28 14  1  0
 10  6  1  0
 26 21  1  0
M  END
>  <energy_score>  (2784) 
-33.715807

>  <inchikey>  (2784) 
None

>  <smiles>  (2784) 
None

>  <ref_pdb>  (2784) 
A4706a

>  <alias>  (2784) 
None

>  <HIPPO Pose ID>  (2784) 
500428

>  <name>  (2784) 
P500428

>  <HIPPO Compound ID>  (2784) 
314721

>  <ref_mols>  (2784) 
A4706a,A0875a

>  <distance_score>  (2784) 
1.637594

>  <inspiration_score>  (2784) 
None

$$$$
P500429
     RDKit          3D

 28 31  0  0  0  0  0  0  0  0999 V2000
    7.7276   13.4859   22.4396 O   0  0  0  0  0  0  0  0  0  0  0  0
    7.5568   14.3470   23.3030 C   0  0  0  0  0  0  0  0  0  0  0  0
    8.2822   15.5212   23.3936 O   0  0  0  0  0  0  0  0  0  0  0  0
    8.5996   16.0750   22.0727 C   0  0  0  0  0  0  0  0  0  0  0  0
    9.8043   15.4036   21.3285 C   0  0  0  0  0  0  0  0  0  0  0  0
    9.8039   15.0680   19.9691 C   0  0  0  0  0  0  0  0  0  0  0  0
   10.9561   14.7205   19.3027 C   0  0  0  0  0  0  0  0  0  0  0  0
   12.0987   14.6892   20.0545 C   0  0  0  0  0  0  0  0  0  0  0  0
   12.1792   15.0116   21.3631 N   0  0  0  0  0  0  0  0  0  0  0  0
   11.0413   15.4012   21.9378 C   0  0  0  0  0  0  0  0  0  0  0  0
    7.2544   16.2744   21.4281 C   0  0  0  0  0  0  0  0  0  0  0  0
    7.7539   17.3712   20.6271 O   0  0  0  0  0  0  0  0  0  0  0  0
    8.6948   17.6369   21.6490 C   0  0  0  0  0  0  0  0  0  0  0  0
    6.4025   14.2055   24.3045 C   0  0  0  0  0  0  0  0  0  0  0  0
    6.4733   12.8136   24.9853 C   0  0  0  0  0  0  0  0  0  0  0  0
    7.5324   12.7827   26.0891 C   0  0  0  0  0  0  0  0  0  0  0  0
    8.2953   14.0227   25.9497 N   0  0  0  0  0  0  0  0  0  0  0  0
    9.9367   14.1141   25.9786 S   0  0  0  0  0  0  0  0  0  0  0  0
   10.3687   13.3360   27.1096 O   0  0  0  0  0  0  0  0  0  0  0  0
   10.3116   15.5025   25.8547 O   0  0  0  0  0  0  0  0  0  0  0  0
   10.4884   13.4040   24.5618 N   0  0  0  0  0  0  0  0  0  0  0  0
   11.9404   13.6211   24.3246 C   0  0  0  0  0  0  0  0  0  0  0  0
   12.7660   12.9187   25.3661 C   0  0  0  0  0  0  0  0  0  0  0  0
   12.3673   11.4725   25.5146 C   0  0  0  0  0  0  0  0  0  0  0  0
   10.9048   11.0918   25.1426 C   0  0  0  0  0  0  0  0  0  0  0  0
   10.1877   12.0232   24.1835 C   0  0  0  0  0  0  0  0  0  0  0  0
    7.5029   15.1990   26.3472 C   0  0  0  0  0  0  0  0  0  0  0  0
    6.3432   15.3105   25.3622 C   0  0  0  0  0  0  0  0  0  0  0  0
  1  2  2  0
  2  3  1  0
  3  4  1  0
  4  5  1  0
  5  6  2  0
  6  7  1  0
  7  8  2  0
  8  9  1  0
  9 10  2  0
  4 11  1  0
 11 12  1  0
 12 13  1  0
  2 14  1  0
 14 15  1  0
 15 16  1  0
 16 17  1  0
 17 18  1  0
 18 19  2  0
 18 20  2  0
 18 21  1  0
 21 22  1  0
 22 23  1  0
 23 24  1  0
 24 25  1  0
 25 26  1  0
 17 27  1  0
 27 28  1  0
 13  4  1  0
 28 14  1  0
 10  5  1  0
 26 21  1  0
M  END
>  <energy_score>  (2785) 
-48.676932

>  <inchikey>  (2785) 
None

>  <smiles>  (2785) 
None

>  <ref_pdb>  (2785) 
A4706a

>  <alias>  (2785) 
None

>  <HIPPO Pose ID>  (2785) 
500429

>  <name>  (2785) 
P500429

>  <HIPPO Compound ID>  (2785) 
314723

>  <ref_mols>  (2785) 
A4706a,A0875a

>  <distance_score>  (2785) 
1.482332

>  <inspiration_score>  (2785) 
None

$$$$
P500430
     RDKit          3D

 28 31  0  0  0  0  0  0  0  0999 V2000
   15.2507   10.3956   26.0560 O   0  0  0  0  0  0  0  0  0  0  0  0
   14.8257   11.2852   26.7789 C   0  0  0  0  0  0  0  0  0  0  0  0
   15.5213   11.8966   27.7753 O   0  0  0  0  0  0  0  0  0  0  0  0
   16.8529   11.4220   28.0199 C   0  0  1  0  0  0  0  0  0  0  0  0
   17.7898   12.5728   28.3734 C   0  0  0  0  0  0  0  0  0  0  0  0
   18.9644   11.9013   29.0869 C   0  0  0  0  0  0  0  0  0  0  0  0
   18.4903   10.4872   29.4539 C   0  0  0  0  0  0  0  0  0  0  0  0
   16.9743   10.5206   29.2599 C   0  0  1  0  0  0  0  0  0  0  0  0
   16.4222   11.1053   30.4444 O   0  0  0  0  0  0  0  0  0  0  0  0
   14.9817   11.0930   30.5978 C   0  0  0  0  0  0  0  0  0  0  0  0
   14.4484   10.9387   32.0377 C   0  0  0  0  0  0  0  0  0  0  0  0
   14.3293   12.4122   32.1328 N   0  0  0  0  0  0  0  0  0  0  0  0
   14.3127   12.4828   30.6583 C   0  0  0  0  0  0  0  0  0  0  0  0
   13.3789   11.7686   26.7290 C   0  0  0  0  0  0  0  0  0  0  0  0
   13.2880   13.2361   26.8295 C   0  0  0  0  0  0  0  0  0  0  0  0
   11.8515   13.7417   26.9081 C   0  0  0  0  0  0  0  0  0  0  0  0
   10.9806   13.1027   25.9053 N   0  0  0  0  0  0  0  0  0  0  0  0
    9.6548   14.0563   25.4275 S   0  0  0  0  0  0  0  0  0  0  0  0
    9.3676   13.8247   24.0352 O   0  0  0  0  0  0  0  0  0  0  0  0
    9.8517   15.3877   25.9420 O   0  0  0  0  0  0  0  0  0  0  0  0
    8.4592   13.3399   26.3803 N   0  0  0  0  0  0  0  0  0  0  0  0
    8.0493   11.9608   26.0510 C   0  0  0  0  0  0  0  0  0  0  0  0
    7.0827   11.9291   24.8853 C   0  0  0  0  0  0  0  0  0  0  0  0
    5.9178   12.8955   25.0555 C   0  0  0  0  0  0  0  0  0  0  0  0
    6.3659   14.2884   25.4772 C   0  0  0  0  0  0  0  0  0  0  0  0
    7.2882   14.2065   26.6830 C   0  0  0  0  0  0  0  0  0  0  0  0
   11.6813   12.4032   24.8310 C   0  0  0  0  0  0  0  0  0  0  0  0
   12.6750   11.3766   25.4175 C   0  0  0  0  0  0  0  0  0  0  0  0
  1  2  2  0
  2  3  1  0
  4  3  1  1
  4  5  1  0
  5  6  1  0
  6  7  1  0
  7  8  1  0
  8  9  1  1
  9 10  1  0
 10 11  1  0
 11 12  1  0
 12 13  1  0
  2 14  1  0
 14 15  1  0
 15 16  1  0
 16 17  1  0
 17 18  1  0
 18 19  2  0
 18 20  2  0
 18 21  1  0
 21 22  1  0
 22 23  1  0
 23 24  1  0
 24 25  1  0
 25 26  1  0
 17 27  1  0
 27 28  1  0
  8  4  1  0
 13 10  1  0
 28 14  1  0
 26 21  1  0
M  END
>  <energy_score>  (2786) 
-82.930973

>  <inchikey>  (2786) 
None

>  <smiles>  (2786) 
None

>  <ref_pdb>  (2786) 
A4706a

>  <alias>  (2786) 
None

>  <HIPPO Pose ID>  (2786) 
500430

>  <name>  (2786) 
P500430

>  <HIPPO Compound ID>  (2786) 
314725

>  <ref_mols>  (2786) 
A0875a,A4706a

>  <distance_score>  (2786) 
1.895068

>  <inspiration_score>  (2786) 
None

$$$$
P500431
     RDKit          3D

 28 31  0  0  0  0  0  0  0  0999 V2000
   15.1860   10.5318   26.3406 O   0  0  0  0  0  0  0  0  0  0  0  0
   14.9087   11.6345   26.7838 C   0  0  0  0  0  0  0  0  0  0  0  0
   15.4823   12.2431   27.8524 O   0  0  0  0  0  0  0  0  0  0  0  0
   16.3799   11.4722   28.6573 C   0  0  1  0  0  0  0  0  0  0  0  0
   17.7974   11.4316   28.1064 C   0  0  0  0  0  0  0  0  0  0  0  0
   18.6848   11.1846   29.3259 C   0  0  0  0  0  0  0  0  0  0  0  0
   17.8174   11.4662   30.5588 C   0  0  0  0  0  0  0  0  0  0  0  0
   16.5676   12.1527   30.0202 C   0  0  1  0  0  0  0  0  0  0  0  0
   16.8416   13.5461   29.8318 O   0  0  0  0  0  0  0  0  0  0  0  0
   16.1379   14.4707   30.6911 C   0  0  0  0  0  0  0  0  0  0  0  0
   16.6161   15.9419   30.6286 C   0  0  0  0  0  0  0  0  0  0  0  0
   16.3864   16.0326   32.0887 N   0  0  0  0  0  0  0  0  0  0  0  0
   16.5767   14.5657   32.1717 C   0  0  0  0  0  0  0  0  0  0  0  0
   13.8217   12.5277   26.2235 C   0  0  0  0  0  0  0  0  0  0  0  0
   12.9094   12.9806   27.3491 C   0  0  0  0  0  0  0  0  0  0  0  0
   11.6504   13.7167   26.9168 C   0  0  0  0  0  0  0  0  0  0  0  0
   10.9779   13.0933   25.7485 N   0  0  0  0  0  0  0  0  0  0  0  0
    9.6095   14.0046   25.2703 S   0  0  0  0  0  0  0  0  0  0  0  0
    9.2803   13.7203   23.8969 O   0  0  0  0  0  0  0  0  0  0  0  0
    9.8048   15.3526   25.7398 O   0  0  0  0  0  0  0  0  0  0  0  0
    8.4694   13.2651   26.2749 N   0  0  0  0  0  0  0  0  0  0  0  0
    8.0774   11.8853   25.8851 C   0  0  0  0  0  0  0  0  0  0  0  0
    6.5910   11.7734   25.5967 C   0  0  0  0  0  0  0  0  0  0  0  0
    6.0990   12.9600   24.7794 C   0  0  0  0  0  0  0  0  0  0  0  0
    6.3549   14.2846   25.4981 C   0  0  0  0  0  0  0  0  0  0  0  0
    7.3251   14.1293   26.6609 C   0  0  0  0  0  0  0  0  0  0  0  0
   11.9015   12.7847   24.6436 C   0  0  0  0  0  0  0  0  0  0  0  0
   12.9651   11.8268   25.1835 C   0  0  0  0  0  0  0  0  0  0  0  0
  1  2  2  0
  2  3  1  0
  4  3  1  6
  4  5  1  0
  5  6  1  0
  6  7  1  0
  7  8  1  0
  8  9  1  6
  9 10  1  0
 10 11  1  0
 11 12  1  0
 12 13  1  0
  2 14  1  0
 14 15  1  0
 15 16  1  0
 16 17  1  0
 17 18  1  0
 18 19  2  0
 18 20  2  0
 18 21  1  0
 21 22  1  0
 22 23  1  0
 23 24  1  0
 24 25  1  0
 25 26  1  0
 17 27  1  0
 27 28  1  0
  8  4  1  0
 13 10  1  0
 28 14  1  0
 26 21  1  0
M  END
>  <energy_score>  (2787) 
-79.992197

>  <inchikey>  (2787) 
None

>  <smiles>  (2787) 
None

>  <ref_pdb>  (2787) 
A4706a

>  <alias>  (2787) 
None

>  <HIPPO Pose ID>  (2787) 
500431

>  <name>  (2787) 
P500431

>  <HIPPO Compound ID>  (2787) 
314725

>  <ref_mols>  (2787) 
A4706a,A0875a

>  <distance_score>  (2787) 
1.995766

>  <inspiration_score>  (2787) 
None

$$$$
P500432
     RDKit          3D

 28 32  0  0  0  0  0  0  0  0999 V2000
    6.5135   12.9567   21.9888 O   0  0  0  0  0  0  0  0  0  0  0  0
    6.7993   13.7456   22.8808 C   0  0  0  0  0  0  0  0  0  0  0  0
    7.7578   14.6809   22.7570 O   0  0  0  0  0  0  0  0  0  0  0  0
    8.7326   14.5036   21.6841 C   0  0  2  0  0  0  0  0  0  0  0  0
   10.0920   14.3036   22.3844 C   0  0  2  0  0  0  0  0  0  0  0  0
   10.3065   15.7087   22.9063 C   0  0  0  0  0  0  0  0  0  0  0  0
   10.2426   16.3348   21.5352 C   0  0  2  0  0  0  0  0  0  0  0  0
    8.9646   15.8139   20.9261 C   0  0  1  0  0  0  0  0  0  0  0  0
    9.3046   15.5609   19.5559 O   0  0  0  0  0  0  0  0  0  0  0  0
   10.6426   15.3914   19.4310 C   0  0  0  0  0  0  0  0  0  0  0  0
   11.2195   15.0912   18.4081 O   0  0  0  0  0  0  0  0  0  0  0  0
   11.2762   15.5502   20.7602 C   0  0  2  0  0  0  0  0  0  0  0  0
   11.3127   14.2360   21.4827 C   0  0  0  0  0  0  0  0  0  0  0  0
    6.1421   13.6324   24.2499 C   0  0  0  0  0  0  0  0  0  0  0  0
    6.6613   12.3663   24.9734 C   0  0  0  0  0  0  0  0  0  0  0  0
    7.6887   12.6700   26.0592 C   0  0  0  0  0  0  0  0  0  0  0  0
    8.4678   13.8348   25.5988 N   0  0  0  0  0  0  0  0  0  0  0  0
   10.0524   14.0493   26.1211 S   0  0  0  0  0  0  0  0  0  0  0  0
   10.1697   13.5336   27.4544 O   0  0  0  0  0  0  0  0  0  0  0  0
   10.4120   15.4182   25.8347 O   0  0  0  0  0  0  0  0  0  0  0  0
   10.9919   13.0997   25.1375 N   0  0  0  0  0  0  0  0  0  0  0  0
   12.3232   13.5811   24.7603 C   0  0  0  0  0  0  0  0  0  0  0  0
   13.4481   12.9655   25.5706 C   0  0  0  0  0  0  0  0  0  0  0  0
   13.4983   11.4948   25.2644 C   0  0  0  0  0  0  0  0  0  0  0  0
   12.1076   10.9809   25.5244 C   0  0  0  0  0  0  0  0  0  0  0  0
   10.8518   11.6676   24.9941 C   0  0  0  0  0  0  0  0  0  0  0  0
    7.6244   15.0598   25.7604 C   0  0  0  0  0  0  0  0  0  0  0  0
    6.2471   14.8698   25.1318 C   0  0  0  0  0  0  0  0  0  0  0  0
  1  2  2  0
  2  3  1  0
  4  3  1  1
  4  5  1  0
  5  6  1  0
  7  6  1  1
  7  8  1  0
  8  9  1  6
  9 10  1  0
 10 11  2  0
 10 12  1  0
 12 13  1  1
  2 14  1  0
 14 15  1  0
 15 16  1  0
 16 17  1  0
 17 18  1  0
 18 19  2  0
 18 20  2  0
 18 21  1  0
 21 22  1  0
 22 23  1  0
 23 24  1  0
 24 25  1  0
 25 26  1  0
 17 27  1  0
 27 28  1  0
  8  4  1  0
 28 14  1  0
  5 13  1  6
 26 21  1  0
 12  7  1  0
M  END
>  <energy_score>  (2788) 
-42.357274

>  <inchikey>  (2788) 
None

>  <smiles>  (2788) 
None

>  <ref_pdb>  (2788) 
A4706a

>  <alias>  (2788) 
None

>  <HIPPO Pose ID>  (2788) 
500432

>  <name>  (2788) 
P500432

>  <HIPPO Compound ID>  (2788) 
314727

>  <ref_mols>  (2788) 
A0875a,A4706a

>  <distance_score>  (2788) 
1.428802

>  <inspiration_score>  (2788) 
None

$$$$
P500433
     RDKit          3D

 28 31  0  0  0  0  0  0  0  0999 V2000
    6.6109   13.2983   22.7409 O   0  0  0  0  0  0  0  0  0  0  0  0
    6.6065   14.3174   23.4311 C   0  0  0  0  0  0  0  0  0  0  0  0
    7.2789   15.4594   23.1373 O   0  0  0  0  0  0  0  0  0  0  0  0
    7.8529   15.6706   21.8342 C   0  0  2  0  0  0  0  0  0  0  0  0
    7.9961   14.5165   20.8820 C   0  0  0  0  0  0  0  0  0  0  0  0
    8.8637   14.9331   19.8196 O   0  0  0  0  0  0  0  0  0  0  0  0
    9.5541   16.1062   20.2213 C   0  0  0  0  0  0  0  0  0  0  0  0
    9.2408   16.2736   21.7006 C   0  0  2  0  0  0  0  0  0  0  0  0
   10.3272   15.6496   22.4210 N   0  0  0  0  0  0  0  0  0  0  0  0
   10.4928   14.3112   22.6380 C   0  0  0  0  0  0  0  0  0  0  0  0
   11.7699   14.0380   22.2523 C   0  0  0  0  0  0  0  0  0  0  0  0
   12.3463   15.2910   22.0450 C   0  0  0  0  0  0  0  0  0  0  0  0
   11.5082   16.2755   22.3392 N   0  0  0  0  0  0  0  0  0  0  0  0
    5.7435   14.4115   24.6970 C   0  0  0  0  0  0  0  0  0  0  0  0
    5.6358   13.0122   25.3238 C   0  0  0  0  0  0  0  0  0  0  0  0
    6.9808   12.5788   25.8941 C   0  0  0  0  0  0  0  0  0  0  0  0
    7.6177   13.6238   26.7415 N   0  0  0  0  0  0  0  0  0  0  0  0
    9.1400   14.2441   26.3291 S   0  0  0  0  0  0  0  0  0  0  0  0
    9.5133   15.1665   27.3707 O   0  0  0  0  0  0  0  0  0  0  0  0
    9.0720   14.6946   24.9660 O   0  0  0  0  0  0  0  0  0  0  0  0
   10.2489   12.9523   26.4076 N   0  0  0  0  0  0  0  0  0  0  0  0
    9.9789   11.8897   25.4300 C   0  0  0  0  0  0  0  0  0  0  0  0
   11.0980   10.9319   25.1597 C   0  0  0  0  0  0  0  0  0  0  0  0
   12.4944   11.5596   25.1950 C   0  0  0  0  0  0  0  0  0  0  0  0
   12.6989   12.4726   26.3725 C   0  0  0  0  0  0  0  0  0  0  0  0
   11.6266   13.5360   26.3484 C   0  0  0  0  0  0  0  0  0  0  0  0
    6.6618   14.7273   27.0622 C   0  0  0  0  0  0  0  0  0  0  0  0
    6.1829   15.4128   25.7755 C   0  0  0  0  0  0  0  0  0  0  0  0
  1  2  2  0
  2  3  1  0
  4  3  1  1
  4  5  1  0
  5  6  1  0
  6  7  1  0
  7  8  1  0
  8  9  1  1
  9 10  1  0
 10 11  2  0
 11 12  1  0
 12 13  2  0
  2 14  1  0
 14 15  1  0
 15 16  1  0
 16 17  1  0
 17 18  1  0
 18 19  2  0
 18 20  2  0
 18 21  1  0
 21 22  1  0
 22 23  1  0
 23 24  1  0
 24 25  1  0
 25 26  1  0
 17 27  1  0
 27 28  1  0
  8  4  1  0
 13  9  1  0
 28 14  1  0
 26 21  1  0
M  END
>  <energy_score>  (2789) 
-19.652334

>  <inchikey>  (2789) 
None

>  <smiles>  (2789) 
None

>  <ref_pdb>  (2789) 
A4706a

>  <alias>  (2789) 
None

>  <HIPPO Pose ID>  (2789) 
500433

>  <name>  (2789) 
P500433

>  <HIPPO Compound ID>  (2789) 
314728

>  <ref_mols>  (2789) 
A4706a,A0875a

>  <distance_score>  (2789) 
1.706028

>  <inspiration_score>  (2789) 
None

$$$$
P500434
     RDKit          3D

 28 31  0  0  0  0  0  0  0  0999 V2000
    6.1034   13.5262   21.8091 O   0  0  0  0  0  0  0  0  0  0  0  0
    6.9767   14.2626   22.2610 C   0  0  0  0  0  0  0  0  0  0  0  0
    7.4045   15.3466   21.5607 O   0  0  0  0  0  0  0  0  0  0  0  0
    8.8072   15.7363   21.4628 C   0  0  2  0  0  0  0  0  0  0  0  0
    9.0149   17.0862   20.7807 C   0  0  0  0  0  0  0  0  0  0  0  0
    9.4674   16.8798   19.4329 O   0  0  0  0  0  0  0  0  0  0  0  0
    9.6560   15.4866   19.1978 C   0  0  0  0  0  0  0  0  0  0  0  0
    9.5627   14.7875   20.5405 C   0  0  1  0  0  0  0  0  0  0  0  0
   10.8796   14.5625   21.0816 N   0  0  0  0  0  0  0  0  0  0  0  0
   11.1175   13.9286   22.2569 C   0  0  0  0  0  0  0  0  0  0  0  0
   12.1075   14.6819   22.8205 C   0  0  0  0  0  0  0  0  0  0  0  0
   12.5886   15.4887   21.7906 C   0  0  0  0  0  0  0  0  0  0  0  0
   11.8777   15.3419   20.6907 N   0  0  0  0  0  0  0  0  0  0  0  0
    7.5997   13.9730   23.6111 C   0  0  0  0  0  0  0  0  0  0  0  0
    7.5175   12.4829   23.9767 C   0  0  0  0  0  0  0  0  0  0  0  0
    8.1367   12.0971   25.3107 C   0  0  0  0  0  0  0  0  0  0  0  0
    8.3154   13.2600   26.1734 N   0  0  0  0  0  0  0  0  0  0  0  0
    9.7688   14.0918   26.2565 S   0  0  0  0  0  0  0  0  0  0  0  0
    9.6400   14.9284   27.4234 O   0  0  0  0  0  0  0  0  0  0  0  0
   10.0793   14.7035   24.9907 O   0  0  0  0  0  0  0  0  0  0  0  0
   10.9779   12.9199   26.5837 N   0  0  0  0  0  0  0  0  0  0  0  0
   11.4953   12.1215   25.4377 C   0  0  0  0  0  0  0  0  0  0  0  0
   12.9911   12.2659   25.2174 C   0  0  0  0  0  0  0  0  0  0  0  0
   13.8854   12.0912   26.4099 C   0  0  0  0  0  0  0  0  0  0  0  0
   13.2753   12.7002   27.6454 C   0  0  0  0  0  0  0  0  0  0  0  0
   12.0438   13.5660   27.4040 C   0  0  0  0  0  0  0  0  0  0  0  0
    7.1121   14.1487   26.1160 C   0  0  0  0  0  0  0  0  0  0  0  0
    6.9939   14.8168   24.7377 C   0  0  0  0  0  0  0  0  0  0  0  0
  1  2  2  0
  2  3  1  0
  4  3  1  6
  4  5  1  0
  5  6  1  0
  6  7  1  0
  7  8  1  0
  8  9  1  1
  9 10  1  0
 10 11  2  0
 11 12  1  0
 12 13  2  0
  2 14  1  0
 14 15  1  0
 15 16  1  0
 16 17  1  0
 17 18  1  0
 18 19  2  0
 18 20  2  0
 18 21  1  0
 21 22  1  0
 22 23  1  0
 23 24  1  0
 24 25  1  0
 25 26  1  0
 17 27  1  0
 27 28  1  0
  8  4  1  0
 13  9  1  0
 28 14  1  0
 26 21  1  0
M  END
>  <energy_score>  (2790) 
-32.130332

>  <inchikey>  (2790) 
None

>  <smiles>  (2790) 
None

>  <ref_pdb>  (2790) 
A4706a

>  <alias>  (2790) 
None

>  <HIPPO Pose ID>  (2790) 
500434

>  <name>  (2790) 
P500434

>  <HIPPO Compound ID>  (2790) 
314728

>  <ref_mols>  (2790) 
A4706a,A0875a

>  <distance_score>  (2790) 
1.737086

>  <inspiration_score>  (2790) 
None

$$$$
P500435
     RDKit          3D

 28 30  0  0  0  0  0  0  0  0999 V2000
   10.2220   12.9421   22.7404 C   0  0  0  0  0  0  0  0  0  0  0  0
   10.4984   14.3137   22.2309 C   0  0  0  0  0  0  0  0  0  0  0  0
   10.9170   15.2637   23.3341 C   0  0  0  0  0  0  0  0  0  0  0  0
   11.6916   14.1568   21.4549 O   0  0  0  0  0  0  0  0  0  0  0  0
   11.5999   15.0760   20.3861 C   0  0  0  0  0  0  0  0  0  0  0  0
   10.1292   15.1184   20.0460 C   0  0  2  0  0  0  0  0  0  0  0  0
    9.8030   16.3151   19.2786 N   0  0  0  0  0  0  0  0  0  0  0  0
    9.3268   17.2853   19.8910 N   0  0  0  0  0  0  0  0  0  0  0  0
    8.8613   18.1417   20.4773 N   0  0  0  0  0  0  0  0  0  0  0  0
    9.3877   14.9467   21.3794 C   0  0  1  0  0  0  0  0  0  0  0  0
    8.1796   14.1525   21.1555 O   0  0  0  0  0  0  0  0  0  0  0  0
    7.0504   14.1668   21.9158 C   0  0  0  0  0  0  0  0  0  0  0  0
    5.9457   13.9802   21.4162 O   0  0  0  0  0  0  0  0  0  0  0  0
    7.1993   14.3058   23.3980 C   0  0  0  0  0  0  0  0  0  0  0  0
    6.7986   12.9869   24.1327 C   0  0  0  0  0  0  0  0  0  0  0  0
    6.8985   13.1530   25.6560 C   0  0  0  0  0  0  0  0  0  0  0  0
    7.6863   14.3640   25.8320 N   0  0  0  0  0  0  0  0  0  0  0  0
    9.1324   14.5157   26.5860 S   0  0  0  0  0  0  0  0  0  0  0  0
    9.6775   15.8027   26.2323 O   0  0  0  0  0  0  0  0  0  0  0  0
    8.9315   14.1955   27.9696 O   0  0  0  0  0  0  0  0  0  0  0  0
   10.2437   13.4011   25.9402 N   0  0  0  0  0  0  0  0  0  0  0  0
    9.8872   11.9879   25.8666 C   0  0  0  0  0  0  0  0  0  0  0  0
   10.9677   11.1222   25.2330 C   0  0  0  0  0  0  0  0  0  0  0  0
   12.3949   11.6773   25.3041 C   0  0  0  0  0  0  0  0  0  0  0  0
   12.6056   12.5669   26.4919 C   0  0  0  0  0  0  0  0  0  0  0  0
   11.5833   13.6834   26.5564 C   0  0  0  0  0  0  0  0  0  0  0  0
    6.8805   15.5714   25.5201 C   0  0  0  0  0  0  0  0  0  0  0  0
    6.4385   15.4606   24.0485 C   0  0  0  0  0  0  0  0  0  0  0  0
  1  2  1  0
  2  3  1  0
  2  4  1  0
  4  5  1  0
  5  6  1  0
  6  7  1  1
  7  8  2  0
  8  9  2  0
  6 10  1  0
 10 11  1  6
 11 12  1  0
 12 13  2  0
 12 14  1  0
 14 15  1  0
 15 16  1  0
 16 17  1  0
 17 18  1  0
 18 19  2  0
 18 20  2  0
 18 21  1  0
 21 22  1  0
 22 23  1  0
 23 24  1  0
 24 25  1  0
 25 26  1  0
 17 27  1  0
 27 28  1  0
 10  2  1  0
 28 14  1  0
 26 21  1  0
M  CHG  2   8   1   9  -1
M  END
>  <energy_score>  (2791) 
-9.382038

>  <inchikey>  (2791) 
None

>  <smiles>  (2791) 
None

>  <ref_pdb>  (2791) 
A4706a

>  <alias>  (2791) 
None

>  <HIPPO Pose ID>  (2791) 
500435

>  <name>  (2791) 
P500435

>  <HIPPO Compound ID>  (2791) 
314730

>  <ref_mols>  (2791) 
A4706a,A0875a

>  <distance_score>  (2791) 
1.846255

>  <inspiration_score>  (2791) 
None

$$$$
P500436
     RDKit          3D

 28 30  0  0  0  0  0  0  0  0999 V2000
    9.6400   16.7843   19.4231 C   0  0  0  0  0  0  0  0  0  0  0  0
    9.1851   16.6476   20.8600 C   0  0  0  0  0  0  0  0  0  0  0  0
    8.3768   17.8831   21.1688 C   0  0  0  0  0  0  0  0  0  0  0  0
   10.4074   16.6387   21.6320 O   0  0  0  0  0  0  0  0  0  0  0  0
   10.6076   15.3213   22.1067 C   0  0  0  0  0  0  0  0  0  0  0  0
    9.7032   14.4261   21.2920 C   0  0  2  0  0  0  0  0  0  0  0  0
   10.1548   14.1777   19.9273 N   0  0  0  0  0  0  0  0  0  0  0  0
   11.3354   14.3476   19.6321 N   0  0  0  0  0  0  0  0  0  0  0  0
   12.4262   14.4592   19.3602 N   0  0  0  0  0  0  0  0  0  0  0  0
    8.4786   15.3026   21.1391 C   0  0  1  0  0  0  0  0  0  0  0  0
    7.7090   15.3244   22.3462 O   0  0  0  0  0  0  0  0  0  0  0  0
    6.9790   14.2075   22.6249 C   0  0  0  0  0  0  0  0  0  0  0  0
    6.4660   13.4367   21.8324 O   0  0  0  0  0  0  0  0  0  0  0  0
    7.0006   14.0246   24.1038 C   0  0  0  0  0  0  0  0  0  0  0  0
    6.5947   12.6703   24.6973 C   0  0  0  0  0  0  0  0  0  0  0  0
    7.2678   12.4815   26.0698 C   0  0  0  0  0  0  0  0  0  0  0  0
    7.9036   13.7501   26.4493 N   0  0  0  0  0  0  0  0  0  0  0  0
    9.5362   14.0555   26.3689 S   0  0  0  0  0  0  0  0  0  0  0  0
   10.2034   13.1845   27.2894 O   0  0  0  0  0  0  0  0  0  0  0  0
    9.7233   15.4827   26.4789 O   0  0  0  0  0  0  0  0  0  0  0  0
   10.2364   13.6114   24.8934 N   0  0  0  0  0  0  0  0  0  0  0  0
   11.6992   13.9754   24.9743 C   0  0  0  0  0  0  0  0  0  0  0  0
   12.6322   12.8047   24.7937 C   0  0  0  0  0  0  0  0  0  0  0  0
   12.1686   11.5722   25.5223 C   0  0  0  0  0  0  0  0  0  0  0  0
   10.7337   11.1926   25.1262 C   0  0  0  0  0  0  0  0  0  0  0  0
   10.0701   12.2645   24.2947 C   0  0  0  0  0  0  0  0  0  0  0  0
    6.9442   14.8888   26.4215 C   0  0  0  0  0  0  0  0  0  0  0  0
    6.5161   15.1647   24.9805 C   0  0  0  0  0  0  0  0  0  0  0  0
  1  2  1  0
  2  3  1  0
  2  4  1  0
  4  5  1  0
  5  6  1  0
  6  7  1  6
  7  8  2  0
  8  9  2  0
  6 10  1  0
 10 11  1  1
 11 12  1  0
 12 13  2  0
 12 14  1  0
 14 15  1  0
 15 16  1  0
 16 17  1  0
 17 18  1  0
 18 19  2  0
 18 20  2  0
 18 21  1  0
 21 22  1  0
 22 23  1  0
 23 24  1  0
 24 25  1  0
 25 26  1  0
 17 27  1  0
 27 28  1  0
 10  2  1  0
 28 14  1  0
 26 21  1  0
M  CHG  2   8   1   9  -1
M  END
>  <energy_score>  (2792) 
-24.559003

>  <inchikey>  (2792) 
None

>  <smiles>  (2792) 
None

>  <ref_pdb>  (2792) 
A4706a

>  <alias>  (2792) 
None

>  <HIPPO Pose ID>  (2792) 
500436

>  <name>  (2792) 
P500436

>  <HIPPO Compound ID>  (2792) 
314730

>  <ref_mols>  (2792) 
A4706a,A0875a

>  <distance_score>  (2792) 
1.732139

>  <inspiration_score>  (2792) 
None

$$$$
P500437
     RDKit          3D

 28 30  0  0  0  0  0  0  0  0999 V2000
    8.5159   18.9670   20.9030 C   0  0  0  0  0  0  0  0  0  0  0  0
    8.1402   17.6984   21.4056 O   0  0  0  0  0  0  0  0  0  0  0  0
    8.7649   16.7202   20.7216 C   0  0  0  0  0  0  0  0  0  0  0  0
    9.4805   16.9288   19.7451 O   0  0  0  0  0  0  0  0  0  0  0  0
    8.4440   15.3333   21.3066 C   0  0  2  0  0  0  0  0  0  0  0  0
    7.7539   15.3771   22.5662 O   0  0  0  0  0  0  0  0  0  0  0  0
    6.9876   14.3078   22.8826 C   0  0  0  0  0  0  0  0  0  0  0  0
    7.0150   13.2301   22.2923 O   0  0  0  0  0  0  0  0  0  0  0  0
    5.9784   14.5851   24.0119 C   0  0  0  0  0  0  0  0  0  0  0  0
    5.6831   13.2877   24.7781 C   0  0  0  0  0  0  0  0  0  0  0  0
    6.8796   12.8468   25.6138 C   0  0  0  0  0  0  0  0  0  0  0  0
    7.5402   13.9752   26.3211 N   0  0  0  0  0  0  0  0  0  0  0  0
    9.1509   14.4035   26.0470 S   0  0  0  0  0  0  0  0  0  0  0  0
    9.3446   14.7260   24.6564 O   0  0  0  0  0  0  0  0  0  0  0  0
    9.5055   15.3845   27.0422 O   0  0  0  0  0  0  0  0  0  0  0  0
   10.0354   13.0168   26.3805 N   0  0  0  0  0  0  0  0  0  0  0  0
   11.4532   13.2804   26.7323 C   0  0  0  0  0  0  0  0  0  0  0  0
   12.3147   13.4034   25.5060 C   0  0  0  0  0  0  0  0  0  0  0  0
   12.1366   12.2495   24.5643 C   0  0  0  0  0  0  0  0  0  0  0  0
   11.0768   11.2407   24.9987 C   0  0  0  0  0  0  0  0  0  0  0  0
    9.8263   11.9221   25.4243 C   0  0  0  0  0  0  0  0  0  0  0  0
    6.6412   15.1531   26.4218 C   0  0  0  0  0  0  0  0  0  0  0  0
    6.3312   15.6878   25.0217 C   0  0  0  0  0  0  0  0  0  0  0  0
    9.8108   14.7736   21.3968 C   0  0  0  0  0  0  0  0  0  0  0  0
   10.4630   14.3234   20.3473 N   0  0  0  0  0  0  0  0  0  0  0  0
   11.7731   14.5689   20.6036 C   0  0  0  0  0  0  0  0  0  0  0  0
   11.9309   15.0513   21.8820 C   0  0  0  0  0  0  0  0  0  0  0  0
   10.6770   15.1086   22.3998 N   0  0  0  0  0  0  0  0  0  0  0  0
  1  2  1  0
  2  3  1  0
  3  4  2  0
  3  5  1  0
  5  6  1  1
  6  7  1  0
  7  8  2  0
  7  9  1  0
  9 10  1  0
 10 11  1  0
 11 12  1  0
 12 13  1  0
 13 14  2  0
 13 15  2  0
 13 16  1  0
 16 17  1  0
 17 18  1  0
 18 19  1  0
 19 20  1  0
 20 21  1  0
 12 22  1  0
 22 23  1  0
  5 24  1  0
 24 25  2  0
 25 26  1  0
 26 27  2  0
 27 28  1  0
 23  9  1  0
 28 24  1  0
 21 16  1  0
M  END
>  <energy_score>  (2793) 
-32.039085

>  <inchikey>  (2793) 
None

>  <smiles>  (2793) 
None

>  <ref_pdb>  (2793) 
A4706a

>  <alias>  (2793) 
None

>  <HIPPO Pose ID>  (2793) 
500437

>  <name>  (2793) 
P500437

>  <HIPPO Compound ID>  (2793) 
314732

>  <ref_mols>  (2793) 
A0875a,A4706a

>  <distance_score>  (2793) 
1.742766

>  <inspiration_score>  (2793) 
None

$$$$
P500438
     RDKit          3D

 28 30  0  0  0  0  0  0  0  0999 V2000
    9.7771   15.3388   18.9565 C   0  0  0  0  0  0  0  0  0  0  0  0
    9.2046   15.9169   20.1285 O   0  0  0  0  0  0  0  0  0  0  0  0
    8.3568   15.1202   20.8648 C   0  0  0  0  0  0  0  0  0  0  0  0
    7.6200   14.2329   20.4630 O   0  0  0  0  0  0  0  0  0  0  0  0
    8.5315   15.4198   22.3209 C   0  0  1  0  0  0  0  0  0  0  0  0
    7.7059   14.5751   23.1289 O   0  0  0  0  0  0  0  0  0  0  0  0
    6.6175   15.1667   23.6700 C   0  0  0  0  0  0  0  0  0  0  0  0
    6.2278   16.2955   23.4034 O   0  0  0  0  0  0  0  0  0  0  0  0
    5.9295   14.3041   24.7225 C   0  0  0  0  0  0  0  0  0  0  0  0
    6.1918   12.8079   24.5863 C   0  0  0  0  0  0  0  0  0  0  0  0
    7.5697   12.3596   25.0622 C   0  0  0  0  0  0  0  0  0  0  0  0
    8.0046   13.0515   26.2985 N   0  0  0  0  0  0  0  0  0  0  0  0
    9.3805   14.0192   26.2242 S   0  0  0  0  0  0  0  0  0  0  0  0
    9.2858   14.9298   25.1152 O   0  0  0  0  0  0  0  0  0  0  0  0
    9.5668   14.5799   27.5424 O   0  0  0  0  0  0  0  0  0  0  0  0
   10.6877   13.0221   26.0042 N   0  0  0  0  0  0  0  0  0  0  0  0
   11.9558   13.7862   26.0099 C   0  0  0  0  0  0  0  0  0  0  0  0
   12.9209   13.2990   24.9380 C   0  0  0  0  0  0  0  0  0  0  0  0
   13.3063   11.8619   25.1476 C   0  0  0  0  0  0  0  0  0  0  0  0
   12.0535   11.1302   25.5138 C   0  0  0  0  0  0  0  0  0  0  0  0
   10.7247   11.8264   25.1613 C   0  0  0  0  0  0  0  0  0  0  0  0
    6.8689   13.7093   27.0074 C   0  0  0  0  0  0  0  0  0  0  0  0
    6.2458   14.7981   26.1368 C   0  0  0  0  0  0  0  0  0  0  0  0
    9.9579   15.0073   22.4609 C   0  0  0  0  0  0  0  0  0  0  0  0
   10.4202   13.8245   22.1102 N   0  0  0  0  0  0  0  0  0  0  0  0
   11.6260   14.0931   21.5503 C   0  0  0  0  0  0  0  0  0  0  0  0
   12.0275   15.3696   21.8380 C   0  0  0  0  0  0  0  0  0  0  0  0
   10.9672   15.9394   22.4762 N   0  0  0  0  0  0  0  0  0  0  0  0
  1  2  1  0
  2  3  1  0
  3  4  2  0
  3  5  1  0
  5  6  1  1
  6  7  1  0
  7  8  2  0
  7  9  1  0
  9 10  1  0
 10 11  1  0
 11 12  1  0
 12 13  1  0
 13 14  2  0
 13 15  2  0
 13 16  1  0
 16 17  1  0
 17 18  1  0
 18 19  1  0
 19 20  1  0
 20 21  1  0
 12 22  1  0
 22 23  1  0
  5 24  1  0
 24 25  2  0
 25 26  1  0
 26 27  2  0
 27 28  1  0
 23  9  1  0
 28 24  1  0
 21 16  1  0
M  END
>  <energy_score>  (2794) 
-22.756574

>  <inchikey>  (2794) 
None

>  <smiles>  (2794) 
None

>  <ref_pdb>  (2794) 
A4706a

>  <alias>  (2794) 
None

>  <HIPPO Pose ID>  (2794) 
500438

>  <name>  (2794) 
P500438

>  <HIPPO Compound ID>  (2794) 
314732

>  <ref_mols>  (2794) 
A4706a,A0875a

>  <distance_score>  (2794) 
1.818987

>  <inspiration_score>  (2794) 
None

$$$$
P500439
     RDKit          3D

 29 32  0  0  0  0  0  0  0  0999 V2000
    6.6617   13.0218   22.4990 O   0  0  0  0  0  0  0  0  0  0  0  0
    6.5489   14.1518   22.9763 C   0  0  0  0  0  0  0  0  0  0  0  0
    7.1119   15.2575   22.4176 O   0  0  0  0  0  0  0  0  0  0  0  0
    8.0553   14.9435   21.3591 C   0  0  0  0  0  0  0  0  0  0  0  0
    8.7840   16.2097   20.8395 C   0  0  2  0  0  0  0  0  0  0  0  0
    9.5505   16.0458   19.5034 C   0  0  0  0  0  0  0  0  0  0  0  0
   10.6924   15.2146   19.5359 O   0  0  0  0  0  0  0  0  0  0  0  0
   11.1221   15.0700   20.8073 C   0  0  0  0  0  0  0  0  0  0  0  0
   11.8208   13.9435   21.0468 C   0  0  0  0  0  0  0  0  0  0  0  0
   12.0127   13.5628   22.3527 C   0  0  0  0  0  0  0  0  0  0  0  0
   11.8406   14.4347   23.3907 C   0  0  0  0  0  0  0  0  0  0  0  0
   11.1654   15.5928   23.1593 C   0  0  0  0  0  0  0  0  0  0  0  0
   10.7263   15.8366   21.8857 C   0  0  0  0  0  0  0  0  0  0  0  0
    9.7166   16.7247   21.7738 O   0  0  0  0  0  0  0  0  0  0  0  0
    5.6947   14.4347   24.2219 C   0  0  0  0  0  0  0  0  0  0  0  0
    5.4913   13.1290   25.0130 C   0  0  0  0  0  0  0  0  0  0  0  0
    6.7816   12.6461   25.6720 C   0  0  0  0  0  0  0  0  0  0  0  0
    7.4996   13.7339   26.3874 N   0  0  0  0  0  0  0  0  0  0  0  0
    9.0420   14.1686   25.8405 S   0  0  0  0  0  0  0  0  0  0  0  0
    8.9505   14.3562   24.4188 O   0  0  0  0  0  0  0  0  0  0  0  0
    9.4990   15.2324   26.7023 O   0  0  0  0  0  0  0  0  0  0  0  0
   10.0389   12.8099   26.1447 N   0  0  0  0  0  0  0  0  0  0  0  0
   10.0161   11.8498   25.0195 C   0  0  0  0  0  0  0  0  0  0  0  0
   11.0314   10.7615   25.1521 C   0  0  0  0  0  0  0  0  0  0  0  0
   12.4335   11.3459   25.3619 C   0  0  0  0  0  0  0  0  0  0  0  0
   12.5390   12.3082   26.5216 C   0  0  0  0  0  0  0  0  0  0  0  0
   11.3727   13.2733   26.6488 C   0  0  0  0  0  0  0  0  0  0  0  0
    6.6324   14.9424   26.5539 C   0  0  0  0  0  0  0  0  0  0  0  0
    6.2214   15.5097   25.1853 C   0  0  0  0  0  0  0  0  0  0  0  0
  1  2  2  0
  2  3  1  0
  3  4  1  0
  5  4  1  1
  5  6  1  0
  6  7  1  0
  7  8  1  0
  8  9  2  0
  9 10  1  0
 10 11  2  0
 11 12  1  0
 12 13  2  0
 13 14  1  0
  2 15  1  0
 15 16  1  0
 16 17  1  0
 17 18  1  0
 18 19  1  0
 19 20  2  0
 19 21  2  0
 19 22  1  0
 22 23  1  0
 23 24  1  0
 24 25  1  0
 25 26  1  0
 26 27  1  0
 18 28  1  0
 28 29  1  0
 14  5  1  0
 29 15  1  0
 13  8  1  0
 27 22  1  0
M  END
>  <energy_score>  (2795) 
-44.037573

>  <inchikey>  (2795) 
None

>  <smiles>  (2795) 
None

>  <ref_pdb>  (2795) 
A4706a

>  <alias>  (2795) 
None

>  <HIPPO Pose ID>  (2795) 
500439

>  <name>  (2795) 
P500439

>  <HIPPO Compound ID>  (2795) 
314735

>  <ref_mols>  (2795) 
A4706a,A0875a

>  <distance_score>  (2795) 
1.744317

>  <inspiration_score>  (2795) 
None

$$$$
P500440
     RDKit          3D

 29 32  0  0  0  0  0  0  0  0999 V2000
    4.6638   15.0420   22.6360 O   0  0  0  0  0  0  0  0  0  0  0  0
    5.6377   14.7618   23.3216 C   0  0  0  0  0  0  0  0  0  0  0  0
    6.9336   14.9239   22.9486 O   0  0  0  0  0  0  0  0  0  0  0  0
    7.1685   15.4924   21.6451 C   0  0  0  0  0  0  0  0  0  0  0  0
    8.6452   15.3719   21.2848 C   0  0  1  0  0  0  0  0  0  0  0  0
    9.1893   15.7429   19.8850 C   0  0  0  0  0  0  0  0  0  0  0  0
   10.5670   15.4297   19.6965 O   0  0  0  0  0  0  0  0  0  0  0  0
   11.1171   15.2318   20.9209 C   0  0  0  0  0  0  0  0  0  0  0  0
   11.8648   14.1161   21.0204 C   0  0  0  0  0  0  0  0  0  0  0  0
   12.0720   13.6238   22.2873 C   0  0  0  0  0  0  0  0  0  0  0  0
   11.9302   14.4019   23.4097 C   0  0  0  0  0  0  0  0  0  0  0  0
   11.1519   15.5106   23.3300 C   0  0  0  0  0  0  0  0  0  0  0  0
   10.6376   15.7996   22.0986 C   0  0  0  0  0  0  0  0  0  0  0  0
    9.3602   16.2802   22.1298 O   0  0  0  0  0  0  0  0  0  0  0  0
    5.5551   14.1576   24.7180 C   0  0  0  0  0  0  0  0  0  0  0  0
    6.3467   12.8327   24.7715 C   0  0  0  0  0  0  0  0  0  0  0  0
    6.8284   12.4508   26.1582 C   0  0  0  0  0  0  0  0  0  0  0  0
    7.4925   13.5887   26.8119 N   0  0  0  0  0  0  0  0  0  0  0  0
    8.9523   14.2111   26.2153 S   0  0  0  0  0  0  0  0  0  0  0  0
    8.7963   14.5830   24.8361 O   0  0  0  0  0  0  0  0  0  0  0  0
    9.4046   15.1778   27.1847 O   0  0  0  0  0  0  0  0  0  0  0  0
   10.0280   12.8878   26.2705 N   0  0  0  0  0  0  0  0  0  0  0  0
   11.3882   13.3683   26.6736 C   0  0  0  0  0  0  0  0  0  0  0  0
   12.5136   12.3585   26.5035 C   0  0  0  0  0  0  0  0  0  0  0  0
   12.3390   11.4048   25.3390 C   0  0  0  0  0  0  0  0  0  0  0  0
   10.8951   10.9337   25.0974 C   0  0  0  0  0  0  0  0  0  0  0  0
    9.9810   12.1117   25.0124 C   0  0  0  0  0  0  0  0  0  0  0  0
    6.4775   14.6515   27.0621 C   0  0  0  0  0  0  0  0  0  0  0  0
    5.9653   15.2237   25.7464 C   0  0  0  0  0  0  0  0  0  0  0  0
  1  2  2  0
  2  3  1  0
  3  4  1  0
  5  4  1  6
  5  6  1  0
  6  7  1  0
  7  8  1  0
  8  9  2  0
  9 10  1  0
 10 11  2  0
 11 12  1  0
 12 13  2  0
 13 14  1  0
  2 15  1  0
 15 16  1  0
 16 17  1  0
 17 18  1  0
 18 19  1  0
 19 20  2  0
 19 21  2  0
 19 22  1  0
 22 23  1  0
 23 24  1  0
 24 25  1  0
 25 26  1  0
 26 27  1  0
 18 28  1  0
 28 29  1  0
 14  5  1  0
 29 15  1  0
 13  8  1  0
 27 22  1  0
M  END
>  <energy_score>  (2796) 
-17.109531

>  <inchikey>  (2796) 
None

>  <smiles>  (2796) 
None

>  <ref_pdb>  (2796) 
A4706a

>  <alias>  (2796) 
None

>  <HIPPO Pose ID>  (2796) 
500440

>  <name>  (2796) 
P500440

>  <HIPPO Compound ID>  (2796) 
314735

>  <ref_mols>  (2796) 
A0875a,A4706a

>  <distance_score>  (2796) 
1.883015

>  <inspiration_score>  (2796) 
None

$$$$
P500441
     RDKit          3D

 29 32  0  0  0  0  0  0  0  0999 V2000
   15.1042   10.4634   26.2494 O   0  0  0  0  0  0  0  0  0  0  0  0
   14.9778   11.6154   26.6366 C   0  0  0  0  0  0  0  0  0  0  0  0
   15.7949   12.2682   27.5073 O   0  0  0  0  0  0  0  0  0  0  0  0
   16.8514   11.4769   28.1059 C   0  0  2  0  0  0  0  0  0  0  0  0
   16.3134   10.7850   29.3667 C   0  0  0  0  0  0  0  0  0  0  0  0
   16.5058   11.6251   30.6235 C   0  0  0  0  0  0  0  0  0  0  0  0
   16.5211   13.0093   30.2870 O   0  0  0  0  0  0  0  0  0  0  0  0
   17.7310   13.3475   29.5941 C   0  0  0  0  0  0  0  0  0  0  0  0
   18.0485   12.3859   28.4313 C   0  0  1  0  0  0  0  0  0  0  0  0
   19.1444   11.5272   28.7912 O   0  0  0  0  0  0  0  0  0  0  0  0
   20.4163   12.1130   28.5142 C   0  0  0  0  0  0  0  0  0  0  0  0
   21.4672   11.1982   29.0510 C   0  0  0  0  0  0  0  0  0  0  0  0
   22.8110   11.7352   29.4712 C   0  0  0  0  0  0  0  0  0  0  0  0
   21.8436   11.2363   30.5100 C   0  0  0  0  0  0  0  0  0  0  0  0
   13.8517   12.5173   26.1905 C   0  0  0  0  0  0  0  0  0  0  0  0
   12.9889   12.9261   27.3662 C   0  0  0  0  0  0  0  0  0  0  0  0
   11.7138   13.6797   26.9870 C   0  0  0  0  0  0  0  0  0  0  0  0
   10.9960   13.0951   25.8202 N   0  0  0  0  0  0  0  0  0  0  0  0
    9.6453   14.0492   25.3721 S   0  0  0  0  0  0  0  0  0  0  0  0
    9.3111   13.7970   23.9939 O   0  0  0  0  0  0  0  0  0  0  0  0
    9.8878   15.3871   25.8496 O   0  0  0  0  0  0  0  0  0  0  0  0
    8.4773   13.3552   26.3725 N   0  0  0  0  0  0  0  0  0  0  0  0
    8.0577   11.9704   26.0653 C   0  0  0  0  0  0  0  0  0  0  0  0
    7.0562   11.9236   24.9289 C   0  0  0  0  0  0  0  0  0  0  0  0
    5.8981   12.8935   25.1215 C   0  0  0  0  0  0  0  0  0  0  0  0
    6.3609   14.2918   25.5081 C   0  0  0  0  0  0  0  0  0  0  0  0
    7.3159   14.2280   26.6893 C   0  0  0  0  0  0  0  0  0  0  0  0
   11.8808   12.7861   24.6819 C   0  0  0  0  0  0  0  0  0  0  0  0
   12.9575   11.8281   25.1755 C   0  0  0  0  0  0  0  0  0  0  0  0
  1  2  2  0
  2  3  1  0
  4  3  1  1
  4  5  1  0
  5  6  1  0
  6  7  1  0
  7  8  1  0
  8  9  1  0
  9 10  1  1
 10 11  1  0
 11 12  1  0
 12 13  1  0
 13 14  1  0
  2 15  1  0
 15 16  1  0
 16 17  1  0
 17 18  1  0
 18 19  1  0
 19 20  2  0
 19 21  2  0
 19 22  1  0
 22 23  1  0
 23 24  1  0
 24 25  1  0
 25 26  1  0
 26 27  1  0
 18 28  1  0
 28 29  1  0
  9  4  1  0
 14 12  1  0
 29 15  1  0
 27 22  1  0
M  END
>  <energy_score>  (2797) 
-93.822343

>  <inchikey>  (2797) 
None

>  <smiles>  (2797) 
None

>  <ref_pdb>  (2797) 
A4706a

>  <alias>  (2797) 
None

>  <HIPPO Pose ID>  (2797) 
500441

>  <name>  (2797) 
P500441

>  <HIPPO Compound ID>  (2797) 
314736

>  <ref_mols>  (2797) 
A4706a,A0875a

>  <distance_score>  (2797) 
1.95835

>  <inspiration_score>  (2797) 
None

$$$$
P500442
     RDKit          3D

 29 32  0  0  0  0  0  0  0  0999 V2000
    5.4951   14.4865   22.8737 O   0  0  0  0  0  0  0  0  0  0  0  0
    6.1230   13.6814   23.5462 C   0  0  0  0  0  0  0  0  0  0  0  0
    7.3731   13.2548   23.2622 O   0  0  0  0  0  0  0  0  0  0  0  0
    8.1241   13.9803   22.2755 C   0  0  2  0  0  0  0  0  0  0  0  0
    9.4911   13.3219   22.2299 C   0  0  0  0  0  0  0  0  0  0  0  0
   10.3864   14.1884   22.9206 O   0  0  0  0  0  0  0  0  0  0  0  0
    9.9729   15.5160   22.5281 C   0  0  1  0  0  0  0  0  0  0  0  0
   10.5081   15.6730   21.1321 C   0  0  0  0  0  0  0  0  0  0  0  0
   11.7666   15.1454   20.8621 C   0  0  0  0  0  0  0  0  0  0  0  0
   12.0638   14.7236   19.5905 C   0  0  0  0  0  0  0  0  0  0  0  0
   11.1481   14.8763   18.5774 C   0  0  0  0  0  0  0  0  0  0  0  0
    9.9488   15.5176   18.8302 C   0  0  0  0  0  0  0  0  0  0  0  0
    9.6741   16.0153   20.0871 C   0  0  0  0  0  0  0  0  0  0  0  0
    8.4542   15.4059   22.6857 C   0  0  0  0  0  0  0  0  0  0  0  0
    5.6154   13.0811   24.8531 C   0  0  0  0  0  0  0  0  0  0  0  0
    6.4593   11.9150   25.4218 C   0  0  0  0  0  0  0  0  0  0  0  0
    7.5164   12.3696   26.4342 C   0  0  0  0  0  0  0  0  0  0  0  0
    7.9793   13.6964   26.0282 N   0  0  0  0  0  0  0  0  0  0  0  0
    9.4634   14.2878   26.5188 S   0  0  0  0  0  0  0  0  0  0  0  0
    9.8938   15.2617   25.5481 O   0  0  0  0  0  0  0  0  0  0  0  0
    9.2984   14.6703   27.9003 O   0  0  0  0  0  0  0  0  0  0  0  0
   10.5927   13.0165   26.5363 N   0  0  0  0  0  0  0  0  0  0  0  0
   11.8484   13.5499   27.1721 C   0  0  0  0  0  0  0  0  0  0  0  0
   13.0439   12.6219   27.0018 C   0  0  0  0  0  0  0  0  0  0  0  0
   13.3044   12.2586   25.5505 C   0  0  0  0  0  0  0  0  0  0  0  0
   12.1834   12.7813   24.6622 C   0  0  0  0  0  0  0  0  0  0  0  0
   10.8414   12.3576   25.2356 C   0  0  0  0  0  0  0  0  0  0  0  0
    6.9085   14.7343   26.2424 C   0  0  0  0  0  0  0  0  0  0  0  0
    5.5283   14.2008   25.8800 C   0  0  0  0  0  0  0  0  0  0  0  0
  1  2  2  0
  2  3  1  0
  4  3  1  1
  4  5  1  0
  5  6  1  0
  6  7  1  0
  7  8  1  6
  8  9  2  0
  9 10  1  0
 10 11  2  0
 11 12  1  0
 12 13  2  0
  7 14  1  0
  2 15  1  0
 15 16  1  0
 16 17  1  0
 17 18  1  0
 18 19  1  0
 19 20  2  0
 19 21  2  0
 19 22  1  0
 22 23  1  0
 23 24  1  0
 24 25  1  0
 25 26  1  0
 26 27  1  0
 18 28  1  0
 28 29  1  0
 14  4  1  0
 29 15  1  0
 13  8  1  0
 27 22  1  0
M  END
>  <energy_score>  (2798) 
-43.614503

>  <inchikey>  (2798) 
None

>  <smiles>  (2798) 
None

>  <ref_pdb>  (2798) 
A4706a

>  <alias>  (2798) 
None

>  <HIPPO Pose ID>  (2798) 
500442

>  <name>  (2798) 
P500442

>  <HIPPO Compound ID>  (2798) 
314737

>  <ref_mols>  (2798) 
A4706a,A0875a

>  <distance_score>  (2798) 
1.82554

>  <inspiration_score>  (2798) 
None

$$$$
P500443
     RDKit          3D

 29 32  0  0  0  0  0  0  0  0999 V2000
    6.4267   13.0448   22.1094 O   0  0  0  0  0  0  0  0  0  0  0  0
    6.5038   14.0455   22.8253 C   0  0  0  0  0  0  0  0  0  0  0  0
    7.1582   15.1685   22.4403 O   0  0  0  0  0  0  0  0  0  0  0  0
    8.0885   14.9223   21.3563 C   0  0  0  0  0  0  0  0  0  0  0  0
    8.7930   16.2117   20.8791 C   0  0  2  0  0  0  0  0  0  0  0  0
    9.5554   16.0901   19.5376 C   0  0  0  0  0  0  0  0  0  0  0  0
   10.7207   15.2917   19.5574 O   0  0  0  0  0  0  0  0  0  0  0  0
   11.1494   15.1400   20.8278 C   0  0  0  0  0  0  0  0  0  0  0  0
   11.8208   13.9966   21.0654 C   0  0  0  0  0  0  0  0  0  0  0  0
   11.9918   13.6230   22.3710 C   0  0  0  0  0  0  0  0  0  0  0  0
   11.7873   14.5322   23.3667 C   0  0  0  0  0  0  0  0  0  0  0  0
   11.1596   15.6772   23.1840 N   0  0  0  0  0  0  0  0  0  0  0  0
   10.7680   15.8895   21.9264 C   0  0  0  0  0  0  0  0  0  0  0  0
    9.7094   16.7238   21.8266 O   0  0  0  0  0  0  0  0  0  0  0  0
    5.9003   14.0407   24.2381 C   0  0  0  0  0  0  0  0  0  0  0  0
    6.3012   12.6792   24.8800 C   0  0  0  0  0  0  0  0  0  0  0  0
    6.8874   12.6677   26.2772 C   0  0  0  0  0  0  0  0  0  0  0  0
    7.5719   13.9168   26.5984 N   0  0  0  0  0  0  0  0  0  0  0  0
    9.0509   14.3213   25.8914 S   0  0  0  0  0  0  0  0  0  0  0  0
    8.8560   14.4237   24.4704 O   0  0  0  0  0  0  0  0  0  0  0  0
    9.5730   15.4116   26.6757 O   0  0  0  0  0  0  0  0  0  0  0  0
   10.0342   12.9444   26.1632 N   0  0  0  0  0  0  0  0  0  0  0  0
   11.3759   13.3661   26.6702 C   0  0  0  0  0  0  0  0  0  0  0  0
   12.5055   12.3604   26.5191 C   0  0  0  0  0  0  0  0  0  0  0  0
   12.3572   11.4124   25.3499 C   0  0  0  0  0  0  0  0  0  0  0  0
   10.9288   10.8952   25.1236 C   0  0  0  0  0  0  0  0  0  0  0  0
    9.9892   12.0445   24.9882 C   0  0  0  0  0  0  0  0  0  0  0  0
    6.5848   15.0277   26.5355 C   0  0  0  0  0  0  0  0  0  0  0  0
    6.1562   15.2943   25.0939 C   0  0  0  0  0  0  0  0  0  0  0  0
  1  2  2  0
  2  3  1  0
  3  4  1  0
  5  4  1  1
  5  6  1  0
  6  7  1  0
  7  8  1  0
  8  9  2  0
  9 10  1  0
 10 11  2  0
 11 12  1  0
 12 13  2  0
 13 14  1  0
  2 15  1  0
 15 16  1  0
 16 17  1  0
 17 18  1  0
 18 19  1  0
 19 20  2  0
 19 21  2  0
 19 22  1  0
 22 23  1  0
 23 24  1  0
 24 25  1  0
 25 26  1  0
 26 27  1  0
 18 28  1  0
 28 29  1  0
 14  5  1  0
 29 15  1  0
 13  8  1  0
 27 22  1  0
M  END
>  <energy_score>  (2799) 
-2.205248

>  <inchikey>  (2799) 
None

>  <smiles>  (2799) 
None

>  <ref_pdb>  (2799) 
A4706a

>  <alias>  (2799) 
None

>  <HIPPO Pose ID>  (2799) 
500443

>  <name>  (2799) 
P500443

>  <HIPPO Compound ID>  (2799) 
314738

>  <ref_mols>  (2799) 
A4706a,A0875a

>  <distance_score>  (2799) 
1.545905

>  <inspiration_score>  (2799) 
None

$$$$
P500444
     RDKit          3D

 29 31  0  0  0  0  0  0  0  0999 V2000
    7.8800   19.4131   19.3007 C   0  0  0  0  0  0  0  0  0  0  0  0
    8.3253   18.1125   19.6558 O   0  0  0  0  0  0  0  0  0  0  0  0
    8.3982   17.9017   20.9976 C   0  0  0  0  0  0  0  0  0  0  0  0
    8.4661   18.8305   21.7785 O   0  0  0  0  0  0  0  0  0  0  0  0
    8.3523   16.3846   21.3458 C   0  0  2  0  0  0  0  0  0  0  0  0
    7.9700   15.9505   22.6498 O   0  0  0  0  0  0  0  0  0  0  0  0
    7.0524   14.9361   22.7557 C   0  0  0  0  0  0  0  0  0  0  0  0
    6.3436   14.4675   21.8789 O   0  0  0  0  0  0  0  0  0  0  0  0
    7.1349   14.4023   24.1550 C   0  0  0  0  0  0  0  0  0  0  0  0
    6.8229   12.9318   24.3978 C   0  0  0  0  0  0  0  0  0  0  0  0
    7.1280   12.5533   25.8517 C   0  0  0  0  0  0  0  0  0  0  0  0
    7.8599   13.6191   26.5654 N   0  0  0  0  0  0  0  0  0  0  0  0
    9.5068   13.9878   26.4748 S   0  0  0  0  0  0  0  0  0  0  0  0
    9.8546   14.4234   27.8064 O   0  0  0  0  0  0  0  0  0  0  0  0
    9.7851   14.8973   25.3875 O   0  0  0  0  0  0  0  0  0  0  0  0
   10.3933   12.5720   26.2034 N   0  0  0  0  0  0  0  0  0  0  0  0
   11.8695   12.8551   26.4112 C   0  0  0  0  0  0  0  0  0  0  0  0
   12.7065   12.5957   25.1694 C   0  0  0  0  0  0  0  0  0  0  0  0
   11.9817   13.1277   23.9441 C   0  0  0  0  0  0  0  0  0  0  0  0
   10.6015   12.5234   23.7499 C   0  0  0  0  0  0  0  0  0  0  0  0
   10.1655   11.7738   24.9783 C   0  0  0  0  0  0  0  0  0  0  0  0
    6.9993   14.8441   26.6469 C   0  0  0  0  0  0  0  0  0  0  0  0
    6.5540   15.2917   25.2445 C   0  0  0  0  0  0  0  0  0  0  0  0
    9.6477   15.7414   20.9291 C   0  0  0  0  0  0  0  0  0  0  0  0
    9.8610   15.3734   19.5933 C   0  0  0  0  0  0  0  0  0  0  0  0
   11.0711   14.8663   19.1961 C   0  0  0  0  0  0  0  0  0  0  0  0
   12.0256   14.7395   20.1720 C   0  0  0  0  0  0  0  0  0  0  0  0
   11.8773   15.0723   21.4758 N   0  0  0  0  0  0  0  0  0  0  0  0
   10.6941   15.5970   21.8200 C   0  0  0  0  0  0  0  0  0  0  0  0
  1  2  1  0
  2  3  1  0
  3  4  2  0
  3  5  1  0
  5  6  1  1
  6  7  1  0
  7  8  2  0
  7  9  1  0
  9 10  1  0
 10 11  1  0
 11 12  1  0
 12 13  1  0
 13 14  2  0
 13 15  2  0
 13 16  1  0
 16 17  1  0
 17 18  1  0
 18 19  1  0
 19 20  1  0
 20 21  1  0
 12 22  1  0
 22 23  1  0
  5 24  1  0
 24 25  2  0
 25 26  1  0
 26 27  2  0
 27 28  1  0
 28 29  2  0
 23  9  1  0
 29 24  1  0
 21 16  1  0
M  END
>  <energy_score>  (2800) 
-13.646771

>  <inchikey>  (2800) 
None

>  <smiles>  (2800) 
None

>  <ref_pdb>  (2800) 
A4706a

>  <alias>  (2800) 
None

>  <HIPPO Pose ID>  (2800) 
500444

>  <name>  (2800) 
P500444

>  <HIPPO Compound ID>  (2800) 
314739

>  <ref_mols>  (2800) 
A0875a,A4706a

>  <distance_score>  (2800) 
1.62129

>  <inspiration_score>  (2800) 
None

$$$$
P500445
     RDKit          3D

 29 31  0  0  0  0  0  0  0  0999 V2000
   12.1282   14.3026   23.4793 O   0  0  0  0  0  0  0  0  0  0  0  0
   11.4293   14.4316   22.4884 C   0  0  0  0  0  0  0  0  0  0  0  0
   10.2977   13.7340   22.2427 O   0  0  0  0  0  0  0  0  0  0  0  0
    9.6863   14.2114   21.0344 C   0  0  1  0  0  0  0  0  0  0  0  0
    8.3002   14.8011   21.3753 C   0  0  2  0  0  0  0  0  0  0  0  0
    8.3784   16.1816   21.9845 C   0  0  0  0  0  0  0  0  0  0  0  0
    8.8626   17.5992   20.7556 Br  0  0  0  0  0  0  0  0  0  0  0  0
    7.7017   13.8702   22.3464 O   0  0  0  0  0  0  0  0  0  0  0  0
    6.4415   14.0680   22.8000 C   0  0  0  0  0  0  0  0  0  0  0  0
    5.5887   14.6936   22.1876 O   0  0  0  0  0  0  0  0  0  0  0  0
    6.2394   13.4976   24.2124 C   0  0  0  0  0  0  0  0  0  0  0  0
    7.1574   12.2930   24.5345 C   0  0  0  0  0  0  0  0  0  0  0  0
    7.5164   12.1189   25.9918 C   0  0  0  0  0  0  0  0  0  0  0  0
    7.9509   13.3892   26.5668 N   0  0  0  0  0  0  0  0  0  0  0  0
    9.3649   14.1559   26.0431 S   0  0  0  0  0  0  0  0  0  0  0  0
    9.2708   14.4245   24.6329 O   0  0  0  0  0  0  0  0  0  0  0  0
    9.5357   15.2647   26.9539 O   0  0  0  0  0  0  0  0  0  0  0  0
   10.6424   13.0549   26.3323 N   0  0  0  0  0  0  0  0  0  0  0  0
   10.8657   12.0114   25.3116 C   0  0  0  0  0  0  0  0  0  0  0  0
   12.2445   11.3530   25.3774 C   0  0  0  0  0  0  0  0  0  0  0  0
   13.1529   11.7140   26.5138 C   0  0  0  0  0  0  0  0  0  0  0  0
   13.2052   13.1805   26.5180 C   0  0  0  0  0  0  0  0  0  0  0  0
   11.8475   13.8248   26.7566 C   0  0  0  0  0  0  0  0  0  0  0  0
    6.7728   14.3063   26.6127 C   0  0  0  0  0  0  0  0  0  0  0  0
    6.3286   14.6788   25.2019 C   0  0  0  0  0  0  0  0  0  0  0  0
   10.7659   15.0000   20.4065 C   0  0  0  0  0  0  0  0  0  0  0  0
   10.8430   15.2911   19.0695 O   0  0  0  0  0  0  0  0  0  0  0  0
   11.7207   15.2393   21.3008 C   0  0  0  0  0  0  0  0  0  0  0  0
   12.8702   15.9331   21.1652 O   0  0  0  0  0  0  0  0  0  0  0  0
  1  2  2  0
  2  3  1  0
  4  3  1  1
  4  5  1  0
  5  6  1  1
  6  7  1  0
  5  8  1  0
  8  9  1  0
  9 10  2  0
  9 11  1  0
 11 12  1  0
 12 13  1  0
 13 14  1  0
 14 15  1  0
 15 16  2  0
 15 17  2  0
 15 18  1  0
 18 19  1  0
 19 20  1  0
 20 21  1  0
 21 22  1  0
 22 23  1  0
 14 24  1  0
 24 25  1  0
  4 26  1  0
 26 27  1  0
 26 28  2  0
 28 29  1  0
 28  2  1  0
 25 11  1  0
 23 18  1  0
M  END
>  <energy_score>  (2801) 
-62.548401

>  <inchikey>  (2801) 
None

>  <smiles>  (2801) 
None

>  <ref_pdb>  (2801) 
A4706a

>  <alias>  (2801) 
None

>  <HIPPO Pose ID>  (2801) 
500445

>  <name>  (2801) 
P500445

>  <HIPPO Compound ID>  (2801) 
314743

>  <ref_mols>  (2801) 
A4706a,A0875a

>  <distance_score>  (2801) 
1.6322

>  <inspiration_score>  (2801) 
None

$$$$
P500446
     RDKit          3D

 29 31  0  0  0  0  0  0  0  0999 V2000
    9.0255   17.9016   20.2344 N   0  0  0  0  0  0  0  0  0  0  0  0
    8.2510   17.2697   21.2860 C   0  0  0  0  0  0  0  0  0  0  0  0
    8.8035   16.0079   21.9342 C   0  0  1  0  0  0  0  0  0  0  0  0
    7.9150   15.5986   23.0428 O   0  0  0  0  0  0  0  0  0  0  0  0
    6.8743   14.7533   22.8970 C   0  0  0  0  0  0  0  0  0  0  0  0
    6.3767   14.4265   21.8255 O   0  0  0  0  0  0  0  0  0  0  0  0
    6.4176   14.1268   24.2262 C   0  0  0  0  0  0  0  0  0  0  0  0
    7.0084   12.6979   24.2794 C   0  0  0  0  0  0  0  0  0  0  0  0
    7.5921   12.1757   25.5813 C   0  0  0  0  0  0  0  0  0  0  0  0
    8.1478   13.2540   26.4000 N   0  0  0  0  0  0  0  0  0  0  0  0
    9.5635   14.0302   25.9143 S   0  0  0  0  0  0  0  0  0  0  0  0
    9.5428   14.2452   24.4960 O   0  0  0  0  0  0  0  0  0  0  0  0
    9.7086   15.1591   26.8051 O   0  0  0  0  0  0  0  0  0  0  0  0
   10.8707   12.9782   26.2390 N   0  0  0  0  0  0  0  0  0  0  0  0
   11.0388   11.8447   25.2977 C   0  0  0  0  0  0  0  0  0  0  0  0
   12.4589   11.2580   25.3898 C   0  0  0  0  0  0  0  0  0  0  0  0
   13.2714   11.6508   26.5994 C   0  0  0  0  0  0  0  0  0  0  0  0
   13.3970   13.1153   26.5787 C   0  0  0  0  0  0  0  0  0  0  0  0
   12.0931   13.8273   26.2242 C   0  0  0  0  0  0  0  0  0  0  0  0
    7.0369   14.2073   26.7163 C   0  0  0  0  0  0  0  0  0  0  0  0
    6.6375   14.9972   25.4736 C   0  0  0  0  0  0  0  0  0  0  0  0
    9.1764   14.8278   21.0206 C   0  0  2  0  0  0  0  0  0  0  0  0
    9.8607   13.8940   21.8817 O   0  0  0  0  0  0  0  0  0  0  0  0
   11.1990   14.0429   21.6977 C   0  0  0  0  0  0  0  0  0  0  0  0
   12.0556   13.6692   22.4776 O   0  0  0  0  0  0  0  0  0  0  0  0
   11.3852   14.6511   20.3638 C   0  0  0  0  0  0  0  0  0  0  0  0
   12.5075   14.6437   19.6005 O   0  0  0  0  0  0  0  0  0  0  0  0
   10.1926   15.0635   19.9705 C   0  0  0  0  0  0  0  0  0  0  0  0
    9.8718   15.5080   18.7174 O   0  0  0  0  0  0  0  0  0  0  0  0
  1  2  1  0
  3  2  1  6
  3  4  1  0
  4  5  1  0
  5  6  2  0
  5  7  1  0
  7  8  1  0
  8  9  1  0
  9 10  1  0
 10 11  1  0
 11 12  2  0
 11 13  2  0
 11 14  1  0
 14 15  1  0
 15 16  1  0
 16 17  1  0
 17 18  1  0
 18 19  1  0
 10 20  1  0
 20 21  1  0
  3 22  1  0
 22 23  1  1
 23 24  1  0
 24 25  2  0
 24 26  1  0
 26 27  1  0
 26 28  2  0
 28 29  1  0
 21  7  1  0
 28 22  1  0
 19 14  1  0
M  END
>  <energy_score>  (2802) 
-67.579356

>  <inchikey>  (2802) 
None

>  <smiles>  (2802) 
None

>  <ref_pdb>  (2802) 
A4706a

>  <alias>  (2802) 
None

>  <HIPPO Pose ID>  (2802) 
500446

>  <name>  (2802) 
P500446

>  <HIPPO Compound ID>  (2802) 
314744

>  <ref_mols>  (2802) 
A0875a,A4706a

>  <distance_score>  (2802) 
1.608021

>  <inspiration_score>  (2802) 
None

$$$$
P500447
     RDKit          3D

 29 31  0  0  0  0  0  0  0  0999 V2000
    8.2665   18.5775   19.7313 N   0  0  0  0  0  0  0  0  0  0  0  0
    8.6528   17.9176   20.9759 C   0  0  0  0  0  0  0  0  0  0  0  0
    8.8457   16.3856   20.9877 C   0  0  2  0  0  0  0  0  0  0  0  0
    8.4268   15.8712   22.2681 O   0  0  0  0  0  0  0  0  0  0  0  0
    7.5776   14.8053   22.3288 C   0  0  0  0  0  0  0  0  0  0  0  0
    7.1019   14.1760   21.3971 O   0  0  0  0  0  0  0  0  0  0  0  0
    7.3967   14.4531   23.7731 C   0  0  0  0  0  0  0  0  0  0  0  0
    6.9953   13.0091   24.0814 C   0  0  0  0  0  0  0  0  0  0  0  0
    6.8969   12.7834   25.5957 C   0  0  0  0  0  0  0  0  0  0  0  0
    7.4162   13.9529   26.3197 N   0  0  0  0  0  0  0  0  0  0  0  0
    9.0351   14.3822   26.5361 S   0  0  0  0  0  0  0  0  0  0  0  0
    9.2143   15.6929   25.9617 O   0  0  0  0  0  0  0  0  0  0  0  0
    9.3293   14.1966   27.9330 O   0  0  0  0  0  0  0  0  0  0  0  0
   10.0848   13.3715   25.6794 N   0  0  0  0  0  0  0  0  0  0  0  0
   11.4944   13.7712   26.0703 C   0  0  0  0  0  0  0  0  0  0  0  0
   12.5513   13.0445   25.2597 C   0  0  0  0  0  0  0  0  0  0  0  0
   12.3984   11.5763   25.5134 C   0  0  0  0  0  0  0  0  0  0  0  0
   10.9923   11.1578   25.0964 C   0  0  0  0  0  0  0  0  0  0  0  0
    9.8775   11.9330   25.7516 C   0  0  0  0  0  0  0  0  0  0  0  0
    6.5229   15.1215   26.0586 C   0  0  0  0  0  0  0  0  0  0  0  0
    6.4973   15.4164   24.5511 C   0  0  0  0  0  0  0  0  0  0  0  0
   10.2980   16.1006   20.6408 C   0  0  1  0  0  0  0  0  0  0  0  0
   11.1114   16.4762   21.7364 O   0  0  0  0  0  0  0  0  0  0  0  0
   11.2231   15.3621   22.4943 C   0  0  0  0  0  0  0  0  0  0  0  0
   11.4034   15.3236   23.6898 O   0  0  0  0  0  0  0  0  0  0  0  0
   11.0898   14.2082   21.6070 C   0  0  0  0  0  0  0  0  0  0  0  0
   11.4441   12.9542   21.9624 O   0  0  0  0  0  0  0  0  0  0  0  0
   10.6348   14.6987   20.4627 C   0  0  0  0  0  0  0  0  0  0  0  0
   10.5285   14.1363   19.2366 O   0  0  0  0  0  0  0  0  0  0  0  0
  1  2  1  0
  3  2  1  1
  3  4  1  0
  4  5  1  0
  5  6  2  0
  5  7  1  0
  7  8  1  0
  8  9  1  0
  9 10  1  0
 10 11  1  0
 11 12  2  0
 11 13  2  0
 11 14  1  0
 14 15  1  0
 15 16  1  0
 16 17  1  0
 17 18  1  0
 18 19  1  0
 10 20  1  0
 20 21  1  0
  3 22  1  0
 22 23  1  1
 23 24  1  0
 24 25  2  0
 24 26  1  0
 26 27  1  0
 26 28  2  0
 28 29  1  0
 21  7  1  0
 28 22  1  0
 19 14  1  0
M  END
>  <energy_score>  (2803) 
-36.975743

>  <inchikey>  (2803) 
None

>  <smiles>  (2803) 
None

>  <ref_pdb>  (2803) 
A4706a

>  <alias>  (2803) 
None

>  <HIPPO Pose ID>  (2803) 
500447

>  <name>  (2803) 
P500447

>  <HIPPO Compound ID>  (2803) 
314744

>  <ref_mols>  (2803) 
A4706a,A0875a

>  <distance_score>  (2803) 
1.857611

>  <inspiration_score>  (2803) 
None

$$$$
P500448
     RDKit          3D

 29 31  0  0  0  0  0  0  0  0999 V2000
    4.5461   14.2771   21.3390 C   0  0  0  0  0  0  0  0  0  0  0  0
    5.9740   14.2023   21.3978 O   0  0  0  0  0  0  0  0  0  0  0  0
    6.5886   15.2435   22.0435 C   0  0  0  0  0  0  0  0  0  0  0  0
    6.0005   16.2654   22.3679 O   0  0  0  0  0  0  0  0  0  0  0  0
    8.0299   14.9247   22.3921 C   0  0  1  0  0  0  0  0  0  0  0  0
    8.0919   13.4797   22.4464 O   0  0  0  0  0  0  0  0  0  0  0  0
    7.8091   12.6794   23.4710 C   0  0  0  0  0  0  0  0  0  0  0  0
    8.4290   11.6134   23.5292 O   0  0  0  0  0  0  0  0  0  0  0  0
    6.6883   12.9829   24.4792 C   0  0  0  0  0  0  0  0  0  0  0  0
    6.7536   11.8439   25.5060 C   0  0  0  0  0  0  0  0  0  0  0  0
    8.0577   11.9345   26.3014 C   0  0  0  0  0  0  0  0  0  0  0  0
    8.4027   13.3346   26.6989 N   0  0  0  0  0  0  0  0  0  0  0  0
    9.7481   14.0738   25.9975 S   0  0  0  0  0  0  0  0  0  0  0  0
    9.5384   14.0562   24.5892 O   0  0  0  0  0  0  0  0  0  0  0  0
    9.9614   15.3562   26.6145 O   0  0  0  0  0  0  0  0  0  0  0  0
   11.0549   13.0273   26.3046 N   0  0  0  0  0  0  0  0  0  0  0  0
   11.7663   12.6733   25.0298 C   0  0  0  0  0  0  0  0  0  0  0  0
   12.9128   11.7216   25.3135 C   0  0  0  0  0  0  0  0  0  0  0  0
   13.9141   12.2993   26.2794 C   0  0  0  0  0  0  0  0  0  0  0  0
   13.2253   12.7716   27.5411 C   0  0  0  0  0  0  0  0  0  0  0  0
   11.9712   13.6133   27.3106 C   0  0  0  0  0  0  0  0  0  0  0  0
    7.1974   14.2009   26.7014 C   0  0  0  0  0  0  0  0  0  0  0  0
    6.5961   14.2899   25.2919 C   0  0  0  0  0  0  0  0  0  0  0  0
    9.2535   15.2769   21.5615 C   0  0  0  0  0  0  0  0  0  0  0  0
    9.3070   15.0757   20.1916 C   0  0  0  0  0  0  0  0  0  0  0  0
   10.5134   14.9558   19.5029 C   0  0  0  0  0  0  0  0  0  0  0  0
   11.7015   15.0206   20.2092 C   0  0  0  0  0  0  0  0  0  0  0  0
   11.6932   15.3494   21.5573 C   0  0  0  0  0  0  0  0  0  0  0  0
   10.4795   15.5049   22.2144 C   0  0  0  0  0  0  0  0  0  0  0  0
  1  2  1  0
  2  3  1  0
  3  4  2  0
  3  5  1  0
  5  6  1  6
  6  7  1  0
  7  8  2  0
  7  9  1  0
  9 10  1  0
 10 11  1  0
 11 12  1  0
 12 13  1  0
 13 14  2  0
 13 15  2  0
 13 16  1  0
 16 17  1  0
 17 18  1  0
 18 19  1  0
 19 20  1  0
 20 21  1  0
 12 22  1  0
 22 23  1  0
  5 24  1  0
 24 25  2  0
 25 26  1  0
 26 27  2  0
 27 28  1  0
 28 29  2  0
 23  9  1  0
 29 24  1  0
 21 16  1  0
M  END
>  <energy_score>  (2804) 
-8.909501

>  <inchikey>  (2804) 
None

>  <smiles>  (2804) 
None

>  <ref_pdb>  (2804) 
A4706a

>  <alias>  (2804) 
None

>  <HIPPO Pose ID>  (2804) 
500448

>  <name>  (2804) 
P500448

>  <HIPPO Compound ID>  (2804) 
314745

>  <ref_mols>  (2804) 
A4706a,A0875a

>  <distance_score>  (2804) 
1.699176

>  <inspiration_score>  (2804) 
None

$$$$
P500449
     RDKit          3D

 29 32  0  0  0  0  0  0  0  0999 V2000
   14.3616   13.2606   27.3204 O   0  0  0  0  0  0  0  0  0  0  0  0
   14.3320   12.2609   26.6209 C   0  0  0  0  0  0  0  0  0  0  0  0
   15.0374   11.1363   26.9131 O   0  0  0  0  0  0  0  0  0  0  0  0
   15.8517   11.1223   28.1341 C   0  0  1  0  0  0  0  0  0  0  0  0
   17.1262   11.9591   28.0153 C   0  0  0  0  0  0  0  0  0  0  0  0
   17.8434   12.0790   29.3532 C   0  0  0  0  0  0  0  0  0  0  0  0
   16.9826   12.7129   30.4415 C   0  0  0  0  0  0  0  0  0  0  0  0
   15.4822   12.6510   30.1633 C   0  0  0  0  0  0  0  0  0  0  0  0
   15.0455   11.3706   29.4426 C   0  0  2  0  0  0  0  0  0  0  0  0
   15.2731   10.2353   30.2981 O   0  0  0  0  0  0  0  0  0  0  0  0
   14.3827   10.0560   31.4288 C   0  0  0  0  0  0  0  0  0  0  0  0
   14.9152   10.5026   32.8137 C   0  0  0  0  0  0  0  0  0  0  0  0
   14.3052    9.2927   33.4013 N   0  0  0  0  0  0  0  0  0  0  0  0
   14.3781    8.6466   32.0715 C   0  0  0  0  0  0  0  0  0  0  0  0
   13.4426   12.0768   25.3625 C   0  0  0  0  0  0  0  0  0  0  0  0
   12.9110   13.3923   24.8309 C   0  0  0  0  0  0  0  0  0  0  0  0
   11.8211   13.9755   25.7182 C   0  0  0  0  0  0  0  0  0  0  0  0
   10.6318   13.1067   25.7441 N   0  0  0  0  0  0  0  0  0  0  0  0
    9.2401   13.9565   25.3269 S   0  0  0  0  0  0  0  0  0  0  0  0
    9.1606   13.9449   23.8876 O   0  0  0  0  0  0  0  0  0  0  0  0
    9.2893   15.1893   26.0768 O   0  0  0  0  0  0  0  0  0  0  0  0
    8.0674   12.9594   26.0221 N   0  0  0  0  0  0  0  0  0  0  0  0
    7.2702   12.1277   25.0976 C   0  0  0  0  0  0  0  0  0  0  0  0
    6.2344   12.9982   24.3981 C   0  0  0  0  0  0  0  0  0  0  0  0
    5.3483   13.7268   25.3930 C   0  0  0  0  0  0  0  0  0  0  0  0
    6.1728   14.5105   26.4020 C   0  0  0  0  0  0  0  0  0  0  0  0
    7.2110   13.6084   27.0555 C   0  0  0  0  0  0  0  0  0  0  0  0
   10.8498   11.7857   25.1443 C   0  0  0  0  0  0  0  0  0  0  0  0
   12.2092   11.2664   25.6582 C   0  0  0  0  0  0  0  0  0  0  0  0
  1  2  2  0
  2  3  1  0
  4  3  1  6
  4  5  1  0
  5  6  1  0
  6  7  1  0
  7  8  1  0
  8  9  1  0
  9 10  1  1
 10 11  1  0
 11 12  1  0
 12 13  1  0
 13 14  1  0
  2 15  1  0
 15 16  1  0
 16 17  1  0
 17 18  1  0
 18 19  1  0
 19 20  2  0
 19 21  2  0
 19 22  1  0
 22 23  1  0
 23 24  1  0
 24 25  1  0
 25 26  1  0
 26 27  1  0
 18 28  1  0
 28 29  1  0
  9  4  1  0
 14 11  1  0
 29 15  1  0
 27 22  1  0
M  END
>  <energy_score>  (2805) 
-66.960792

>  <inchikey>  (2805) 
None

>  <smiles>  (2805) 
None

>  <ref_pdb>  (2805) 
A4706a

>  <alias>  (2805) 
None

>  <HIPPO Pose ID>  (2805) 
500449

>  <name>  (2805) 
P500449

>  <HIPPO Compound ID>  (2805) 
314746

>  <ref_mols>  (2805) 
A4706a,A0875a

>  <distance_score>  (2805) 
1.986394

>  <inspiration_score>  (2805) 
None

$$$$
P500450
     RDKit          3D

 29 31  0  0  0  0  0  0  0  0999 V2000
   13.3602   14.1694   31.2615 C   0  0  0  0  0  0  0  0  0  0  0  0
   14.7456   13.6550   30.9259 C   0  0  0  0  0  0  0  0  0  0  0  0
   14.9082   13.4670   29.5088 O   0  0  0  0  0  0  0  0  0  0  0  0
   14.4491   12.2766   29.0305 C   0  0  0  0  0  0  0  0  0  0  0  0
   13.7409   11.4987   29.6538 O   0  0  0  0  0  0  0  0  0  0  0  0
   14.9339   12.0454   27.5992 C   0  0  2  0  0  0  0  0  0  0  0  0
   13.9124   11.2231   26.9638 O   0  0  0  0  0  0  0  0  0  0  0  0
   13.6783   11.4957   25.6591 C   0  0  0  0  0  0  0  0  0  0  0  0
   14.5652   11.5421   24.8181 O   0  0  0  0  0  0  0  0  0  0  0  0
   12.2312   11.8496   25.3441 C   0  0  0  0  0  0  0  0  0  0  0  0
   11.7833   12.9787   26.2715 C   0  0  0  0  0  0  0  0  0  0  0  0
   10.2899   13.1674   26.1560 C   0  0  0  0  0  0  0  0  0  0  0  0
    9.9738   12.9431   24.7307 N   0  0  0  0  0  0  0  0  0  0  0  0
    8.8990   14.0290   24.1081 S   0  0  0  0  0  0  0  0  0  0  0  0
    7.5731   13.5113   24.3107 O   0  0  0  0  0  0  0  0  0  0  0  0
    9.2851   15.2956   24.6773 O   0  0  0  0  0  0  0  0  0  0  0  0
    9.2004   14.0140   22.4654 N   0  0  0  0  0  0  0  0  0  0  0  0
   10.5367   13.7054   21.9217 C   0  0  0  0  0  0  0  0  0  0  0  0
   11.5505   14.7754   22.1995 C   0  0  0  0  0  0  0  0  0  0  0  0
   10.9152   16.1278   22.0242 C   0  0  0  0  0  0  0  0  0  0  0  0
    9.6582   16.1035   21.1573 C   0  0  0  0  0  0  0  0  0  0  0  0
    8.5876   15.1624   21.7255 C   0  0  0  0  0  0  0  0  0  0  0  0
    9.9005   11.5143   24.3690 C   0  0  0  0  0  0  0  0  0  0  0  0
   11.0724   10.8235   25.0974 C   0  0  0  0  0  0  0  0  0  0  0  0
   16.3642   11.4724   27.5731 C   0  0  1  0  0  0  0  0  0  0  0  0
   17.4424   12.4810   27.9682 C   0  0  0  0  0  0  0  0  0  0  0  0
   18.5979   11.6008   28.3690 C   0  0  0  0  0  0  0  0  0  0  0  0
   17.9756   10.5422   29.0948 O   0  0  0  0  0  0  0  0  0  0  0  0
   16.6912   10.2982   28.4983 C   0  0  0  0  0  0  0  0  0  0  0  0
  1  2  1  0
  2  3  1  0
  3  4  1  0
  4  5  2  0
  4  6  1  0
  6  7  1  1
  7  8  1  0
  8  9  2  0
  8 10  1  0
 10 11  1  0
 11 12  1  0
 12 13  1  0
 13 14  1  0
 14 15  2  0
 14 16  2  0
 14 17  1  0
 17 18  1  0
 18 19  1  0
 19 20  1  0
 20 21  1  0
 21 22  1  0
 13 23  1  0
 23 24  1  0
  6 25  1  0
 25 26  1  1
 26 27  1  0
 27 28  1  0
 28 29  1  0
 24 10  1  0
 29 25  1  0
 22 17  1  0
M  END
>  <energy_score>  (2806) 
-33.121283

>  <inchikey>  (2806) 
None

>  <smiles>  (2806) 
None

>  <ref_pdb>  (2806) 
A4706a

>  <alias>  (2806) 
None

>  <HIPPO Pose ID>  (2806) 
500450

>  <name>  (2806) 
P500450

>  <HIPPO Compound ID>  (2806) 
314750

>  <ref_mols>  (2806) 
A0875a,A4706a

>  <distance_score>  (2806) 
1.658965

>  <inspiration_score>  (2806) 
None

$$$$
P500451
     RDKit          3D

 29 31  0  0  0  0  0  0  0  0999 V2000
    8.2080   18.6973   20.2940 C   0  0  0  0  0  0  0  0  0  0  0  0
    8.6637   17.3909   20.6207 O   0  0  0  0  0  0  0  0  0  0  0  0
    7.9433   16.6044   21.4701 C   0  0  0  0  0  0  0  0  0  0  0  0
    7.0668   16.9167   22.2630 O   0  0  0  0  0  0  0  0  0  0  0  0
    8.3148   15.1514   21.2676 C   0  0  2  0  0  0  0  0  0  0  0  0
    8.1444   14.5136   22.5314 O   0  0  0  0  0  0  0  0  0  0  0  0
    6.9978   13.8428   22.8236 C   0  0  0  0  0  0  0  0  0  0  0  0
    6.1780   13.4157   22.0330 O   0  0  0  0  0  0  0  0  0  0  0  0
    7.0084   13.6505   24.3112 C   0  0  0  0  0  0  0  0  0  0  0  0
    6.5378   12.3775   24.9823 C   0  0  0  0  0  0  0  0  0  0  0  0
    7.1819   12.2945   26.3840 C   0  0  0  0  0  0  0  0  0  0  0  0
    7.8288   13.5749   26.7754 N   0  0  0  0  0  0  0  0  0  0  0  0
    9.4487   14.0180   26.5225 S   0  0  0  0  0  0  0  0  0  0  0  0
    9.8831   14.5685   27.7827 O   0  0  0  0  0  0  0  0  0  0  0  0
    9.5773   14.8384   25.3380 O   0  0  0  0  0  0  0  0  0  0  0  0
   10.3585   12.6042   26.2768 N   0  0  0  0  0  0  0  0  0  0  0  0
   10.1152   11.8006   25.0634 C   0  0  0  0  0  0  0  0  0  0  0  0
   10.6425   12.4938   23.8372 C   0  0  0  0  0  0  0  0  0  0  0  0
   12.0467   13.0088   24.0420 C   0  0  0  0  0  0  0  0  0  0  0  0
   12.6868   12.4388   25.2870 C   0  0  0  0  0  0  0  0  0  0  0  0
   11.8332   12.8714   26.4682 C   0  0  0  0  0  0  0  0  0  0  0  0
    6.8742   14.7087   26.5953 C   0  0  0  0  0  0  0  0  0  0  0  0
    6.5729   14.8842   25.1017 C   0  0  0  0  0  0  0  0  0  0  0  0
    9.7275   15.0258   20.8301 C   0  0  0  0  0  0  0  0  0  0  0  0
   10.0685   14.9731   19.4936 C   0  0  0  0  0  0  0  0  0  0  0  0
   11.3072   14.7808   19.0621 N   0  0  0  0  0  0  0  0  0  0  0  0
   12.2195   14.7664   20.0325 C   0  0  0  0  0  0  0  0  0  0  0  0
   12.0375   14.9597   21.3501 N   0  0  0  0  0  0  0  0  0  0  0  0
   10.7725   15.1229   21.7144 C   0  0  0  0  0  0  0  0  0  0  0  0
  1  2  1  0
  2  3  1  0
  3  4  2  0
  3  5  1  0
  5  6  1  1
  6  7  1  0
  7  8  2  0
  7  9  1  0
  9 10  1  0
 10 11  1  0
 11 12  1  0
 12 13  1  0
 13 14  2  0
 13 15  2  0
 13 16  1  0
 16 17  1  0
 17 18  1  0
 18 19  1  0
 19 20  1  0
 20 21  1  0
 12 22  1  0
 22 23  1  0
  5 24  1  0
 24 25  2  0
 25 26  1  0
 26 27  2  0
 27 28  1  0
 28 29  2  0
 23  9  1  0
 29 24  1  0
 21 16  1  0
M  END
>  <energy_score>  (2807) 
-9.893802

>  <inchikey>  (2807) 
None

>  <smiles>  (2807) 
None

>  <ref_pdb>  (2807) 
A4706a

>  <alias>  (2807) 
None

>  <HIPPO Pose ID>  (2807) 
500451

>  <name>  (2807) 
P500451

>  <HIPPO Compound ID>  (2807) 
314757

>  <ref_mols>  (2807) 
A4706a,A0875a

>  <distance_score>  (2807) 
1.676859

>  <inspiration_score>  (2807) 
None

$$$$
P500452
     RDKit          3D

 29 31  0  0  0  0  0  0  0  0999 V2000
    8.2752   18.6693   20.1865 C   0  0  0  0  0  0  0  0  0  0  0  0
    8.8031   17.3757   20.4622 O   0  0  0  0  0  0  0  0  0  0  0  0
    8.1118   16.6553   21.3900 C   0  0  0  0  0  0  0  0  0  0  0  0
    7.1976   17.0526   22.1014 O   0  0  0  0  0  0  0  0  0  0  0  0
    8.5224   15.2039   21.4373 C   0  0  2  0  0  0  0  0  0  0  0  0
    7.9883   14.8411   22.7418 O   0  0  0  0  0  0  0  0  0  0  0  0
    6.8014   14.1891   22.7741 C   0  0  0  0  0  0  0  0  0  0  0  0
    6.3444   13.5545   21.8270 O   0  0  0  0  0  0  0  0  0  0  0  0
    6.0584   14.2785   24.1223 C   0  0  0  0  0  0  0  0  0  0  0  0
    5.7975   12.8829   24.7170 C   0  0  0  0  0  0  0  0  0  0  0  0
    6.8760   12.2685   25.6114 C   0  0  0  0  0  0  0  0  0  0  0  0
    7.8302   13.2956   26.0588 N   0  0  0  0  0  0  0  0  0  0  0  0
    9.1924   13.4775   25.0801 S   0  0  0  0  0  0  0  0  0  0  0  0
    9.6567   14.8311   25.2507 O   0  0  0  0  0  0  0  0  0  0  0  0
    8.9348   12.8532   23.8102 O   0  0  0  0  0  0  0  0  0  0  0  0
   10.2602   12.4844   25.8820 N   0  0  0  0  0  0  0  0  0  0  0  0
   11.1088   11.6303   25.0219 C   0  0  0  0  0  0  0  0  0  0  0  0
   12.5809   11.6919   25.4299 C   0  0  0  0  0  0  0  0  0  0  0  0
   12.9950   13.1333   25.4475 C   0  0  0  0  0  0  0  0  0  0  0  0
   12.1697   13.8985   26.4814 C   0  0  0  0  0  0  0  0  0  0  0  0
   10.9552   13.1748   26.9496 C   0  0  0  0  0  0  0  0  0  0  0  0
    7.1382   14.5530   26.4243 C   0  0  0  0  0  0  0  0  0  0  0  0
    6.5930   15.2511   25.1803 C   0  0  0  0  0  0  0  0  0  0  0  0
   10.0013   15.1189   21.4362 C   0  0  0  0  0  0  0  0  0  0  0  0
   10.8976   15.4036   22.4426 C   0  0  0  0  0  0  0  0  0  0  0  0
   12.1481   15.2936   21.8597 C   0  0  0  0  0  0  0  0  0  0  0  0
   12.0812   14.9416   20.5829 N   0  0  0  0  0  0  0  0  0  0  0  0
   10.7721   14.9519   20.3081 N   0  0  0  0  0  0  0  0  0  0  0  0
   10.4161   14.9692   18.9112 C   0  0  0  0  0  0  0  0  0  0  0  0
  1  2  1  0
  2  3  1  0
  3  4  2  0
  3  5  1  0
  5  6  1  1
  6  7  1  0
  7  8  2  0
  7  9  1  0
  9 10  1  0
 10 11  1  0
 11 12  1  0
 12 13  1  0
 13 14  2  0
 13 15  2  0
 13 16  1  0
 16 17  1  0
 17 18  1  0
 18 19  1  0
 19 20  1  0
 20 21  1  0
 12 22  1  0
 22 23  1  0
  5 24  1  0
 24 25  2  0
 25 26  1  0
 26 27  2  0
 27 28  1  0
 28 29  1  0
 23  9  1  0
 28 24  1  0
 21 16  1  0
M  END
>  <energy_score>  (2808) 
-28.648717

>  <inchikey>  (2808) 
None

>  <smiles>  (2808) 
None

>  <ref_pdb>  (2808) 
A4706a

>  <alias>  (2808) 
None

>  <HIPPO Pose ID>  (2808) 
500452

>  <name>  (2808) 
P500452

>  <HIPPO Compound ID>  (2808) 
314759

>  <ref_mols>  (2808) 
A4706a,A0875a

>  <distance_score>  (2808) 
1.714716

>  <inspiration_score>  (2808) 
None

$$$$
P500453
     RDKit          3D

 29 31  0  0  0  0  0  0  0  0999 V2000
    7.9210   19.3429   19.3541 C   0  0  0  0  0  0  0  0  0  0  0  0
    8.3936   18.0565   19.7452 O   0  0  0  0  0  0  0  0  0  0  0  0
    8.3996   17.8627   21.0955 C   0  0  0  0  0  0  0  0  0  0  0  0
    8.4080   18.8190   21.8463 O   0  0  0  0  0  0  0  0  0  0  0  0
    8.3129   16.3517   21.4825 C   0  0  2  0  0  0  0  0  0  0  0  0
    7.7364   15.9792   22.7584 O   0  0  0  0  0  0  0  0  0  0  0  0
    6.8558   14.9369   22.7589 C   0  0  0  0  0  0  0  0  0  0  0  0
    6.6166   14.2126   21.7931 O   0  0  0  0  0  0  0  0  0  0  0  0
    6.0834   14.7629   24.0799 C   0  0  0  0  0  0  0  0  0  0  0  0
    5.8782   13.2679   24.4187 C   0  0  0  0  0  0  0  0  0  0  0  0
    7.0882   12.5572   25.0366 C   0  0  0  0  0  0  0  0  0  0  0  0
    7.9939   13.5298   25.6846 N   0  0  0  0  0  0  0  0  0  0  0  0
    9.3565   13.9886   24.7826 S   0  0  0  0  0  0  0  0  0  0  0  0
    9.1355   13.6320   23.4101 O   0  0  0  0  0  0  0  0  0  0  0  0
    9.7940   15.2800   25.2472 O   0  0  0  0  0  0  0  0  0  0  0  0
   10.4671   12.9006   25.3953 N   0  0  0  0  0  0  0  0  0  0  0  0
   10.7322   13.1370   26.8176 C   0  0  0  0  0  0  0  0  0  0  0  0
   12.1724   13.4621   27.0990 C   0  0  0  0  0  0  0  0  0  0  0  0
   13.1645   12.4650   26.5206 C   0  0  0  0  0  0  0  0  0  0  0  0
   12.6448   11.8328   25.2461 C   0  0  0  0  0  0  0  0  0  0  0  0
   11.6654   12.7667   24.5415 C   0  0  0  0  0  0  0  0  0  0  0  0
    7.2575   14.6233   26.3475 C   0  0  0  0  0  0  0  0  0  0  0  0
    6.5919   15.5222   25.3123 C   0  0  0  0  0  0  0  0  0  0  0  0
    9.6349   15.6979   21.1092 C   0  0  0  0  0  0  0  0  0  0  0  0
    9.8098   15.3065   19.7730 C   0  0  0  0  0  0  0  0  0  0  0  0
   11.0254   14.8486   19.3344 C   0  0  0  0  0  0  0  0  0  0  0  0
   12.0413   14.7955   20.2556 C   0  0  0  0  0  0  0  0  0  0  0  0
   11.8211   15.2021   21.5635 C   0  0  0  0  0  0  0  0  0  0  0  0
   10.6417   15.6561   22.0135 N   0  0  0  0  0  0  0  0  0  0  0  0
  1  2  1  0
  2  3  1  0
  3  4  2  0
  3  5  1  0
  5  6  1  1
  6  7  1  0
  7  8  2  0
  7  9  1  0
  9 10  1  0
 10 11  1  0
 11 12  1  0
 12 13  1  0
 13 14  2  0
 13 15  2  0
 13 16  1  0
 16 17  1  0
 17 18  1  0
 18 19  1  0
 19 20  1  0
 20 21  1  0
 12 22  1  0
 22 23  1  0
  5 24  1  0
 24 25  2  0
 25 26  1  0
 26 27  2  0
 27 28  1  0
 28 29  2  0
 23  9  1  0
 29 24  1  0
 21 16  1  0
M  END
>  <energy_score>  (2809) 
-24.886062

>  <inchikey>  (2809) 
None

>  <smiles>  (2809) 
None

>  <ref_pdb>  (2809) 
A4706a

>  <alias>  (2809) 
None

>  <HIPPO Pose ID>  (2809) 
500453

>  <name>  (2809) 
P500453

>  <HIPPO Compound ID>  (2809) 
314762

>  <ref_mols>  (2809) 
A4706a,A0875a

>  <distance_score>  (2809) 
1.818932

>  <inspiration_score>  (2809) 
None

$$$$
P500454
     RDKit          3D

 29 32  0  0  0  0  0  0  0  0999 V2000
    4.9812   15.3518   23.1575 O   0  0  0  0  0  0  0  0  0  0  0  0
    5.8821   15.0785   23.9404 C   0  0  0  0  0  0  0  0  0  0  0  0
    7.2069   15.2557   23.6944 O   0  0  0  0  0  0  0  0  0  0  0  0
    7.5513   15.5954   22.3504 C   0  0  2  0  0  0  0  0  0  0  0  0
    7.1925   14.4937   21.3709 C   0  0  0  0  0  0  0  0  0  0  0  0
    8.0724   14.6263   20.2282 O   0  0  0  0  0  0  0  0  0  0  0  0
    9.2318   15.1039   20.7583 C   0  0  0  0  0  0  0  0  0  0  0  0
   10.4933   15.0016   20.2032 C   0  0  0  0  0  0  0  0  0  0  0  0
   10.8087   14.6565   18.5743 Cl  0  0  0  0  0  0  0  0  0  0  0  0
   11.5653   15.0262   21.0603 C   0  0  0  0  0  0  0  0  0  0  0  0
   11.2956   15.1682   22.4053 C   0  0  0  0  0  0  0  0  0  0  0  0
   12.2704   14.1656   23.6116 Br  0  0  0  0  0  0  0  0  0  0  0  0
   10.0836   15.6081   22.8842 C   0  0  0  0  0  0  0  0  0  0  0  0
    9.0147   15.5224   22.0537 C   0  0  0  0  0  0  0  0  0  0  0  0
    5.6376   14.3873   25.2819 C   0  0  0  0  0  0  0  0  0  0  0  0
    5.7869   12.8591   25.0878 C   0  0  0  0  0  0  0  0  0  0  0  0
    6.7283   12.1041   26.0239 C   0  0  0  0  0  0  0  0  0  0  0  0
    7.7971   12.9855   26.5145 N   0  0  0  0  0  0  0  0  0  0  0  0
    9.0150   13.3857   25.4230 S   0  0  0  0  0  0  0  0  0  0  0  0
    8.5604   12.9784   24.1156 O   0  0  0  0  0  0  0  0  0  0  0  0
    9.4461   14.7259   25.7315 O   0  0  0  0  0  0  0  0  0  0  0  0
   10.2383   12.3057   25.8986 N   0  0  0  0  0  0  0  0  0  0  0  0
   10.4257   11.2295   24.8997 C   0  0  0  0  0  0  0  0  0  0  0  0
   11.5723   10.3145   25.2479 C   0  0  0  0  0  0  0  0  0  0  0  0
   12.8623   11.1302   25.4438 C   0  0  0  0  0  0  0  0  0  0  0  0
   12.7262   12.1817   26.5298 C   0  0  0  0  0  0  0  0  0  0  0  0
   11.4177   12.9685   26.5227 C   0  0  0  0  0  0  0  0  0  0  0  0
    7.2195   14.0963   27.2987 C   0  0  0  0  0  0  0  0  0  0  0  0
    6.4376   15.0494   26.4115 C   0  0  0  0  0  0  0  0  0  0  0  0
  1  2  2  0
  2  3  1  0
  4  3  1  1
  4  5  1  0
  5  6  1  0
  6  7  1  0
  7  8  2  0
  8  9  1  0
  8 10  1  0
 10 11  2  0
 11 12  1  0
 11 13  1  0
 13 14  2  0
  2 15  1  0
 15 16  1  0
 16 17  1  0
 17 18  1  0
 18 19  1  0
 19 20  2  0
 19 21  2  0
 19 22  1  0
 22 23  1  0
 23 24  1  0
 24 25  1  0
 25 26  1  0
 26 27  1  0
 18 28  1  0
 28 29  1  0
 14  4  1  0
 29 15  1  0
 14  7  1  0
 27 22  1  0
M  END
>  <energy_score>  (2810) 
-10.662101

>  <inchikey>  (2810) 
None

>  <smiles>  (2810) 
None

>  <ref_pdb>  (2810) 
A4706a

>  <alias>  (2810) 
None

>  <HIPPO Pose ID>  (2810) 
500454

>  <name>  (2810) 
P500454

>  <HIPPO Compound ID>  (2810) 
314763

>  <ref_mols>  (2810) 
A4706a,A0875a

>  <distance_score>  (2810) 
1.816647

>  <inspiration_score>  (2810) 
None

$$$$
P500455
     RDKit          3D

 29 31  0  0  0  0  0  0  0  0999 V2000
   11.2910   13.6378   22.1025 C   0  0  0  0  0  0  0  0  0  0  0  0
   10.6121   14.9573   21.8297 C   0  0  0  0  0  0  0  0  0  0  0  0
   11.4877   16.1016   22.2266 C   0  0  0  0  0  0  0  0  0  0  0  0
   10.3764   15.0759   20.4232 O   0  0  0  0  0  0  0  0  0  0  0  0
    8.9887   15.4227   20.3845 C   0  0  0  0  0  0  0  0  0  0  0  0
    8.4185   14.6520   21.5496 C   0  0  2  0  0  0  0  0  0  0  0  0
    6.9105   14.6765   21.8709 C   0  0  1  0  0  0  0  0  0  0  0  0
    6.5907   13.4051   22.5761 O   0  0  0  0  0  0  0  0  0  0  0  0
    6.3284   13.1012   23.8472 C   0  0  0  0  0  0  0  0  0  0  0  0
    6.3477   11.8917   24.1154 O   0  0  0  0  0  0  0  0  0  0  0  0
    5.9634   14.0574   24.9655 C   0  0  0  0  0  0  0  0  0  0  0  0
    5.8893   13.1769   26.2384 C   0  0  0  0  0  0  0  0  0  0  0  0
    7.2853   12.6739   26.6683 C   0  0  0  0  0  0  0  0  0  0  0  0
    8.3437   13.7472   26.6003 N   0  0  0  0  0  0  0  0  0  0  0  0
    9.5012   13.6117   25.3500 S   0  0  0  0  0  0  0  0  0  0  0  0
   10.2594   14.8375   25.2619 O   0  0  0  0  0  0  0  0  0  0  0  0
    8.8511   13.0079   24.2228 O   0  0  0  0  0  0  0  0  0  0  0  0
   10.5450   12.4190   25.9551 N   0  0  0  0  0  0  0  0  0  0  0  0
   11.8095   12.9278   26.5311 C   0  0  0  0  0  0  0  0  0  0  0  0
   12.9872   12.6328   25.6377 C   0  0  0  0  0  0  0  0  0  0  0  0
   13.1482   11.1379   25.4268 C   0  0  0  0  0  0  0  0  0  0  0  0
   11.8075   10.3696   25.2906 C   0  0  0  0  0  0  0  0  0  0  0  0
   10.6311   11.2744   25.0007 C   0  0  0  0  0  0  0  0  0  0  0  0
    7.6920   15.0830   26.5760 C   0  0  0  0  0  0  0  0  0  0  0  0
    6.8900   15.2335   25.2883 C   0  0  0  0  0  0  0  0  0  0  0  0
    5.9170   15.7538   22.3245 C   0  0  0  0  0  0  0  0  0  0  0  0
    6.3866   16.6816   23.0211 O   0  0  0  0  0  0  0  0  0  0  0  0
    4.7056   15.5310   22.0079 O   0  0  0  0  0  0  0  0  0  0  0  0
    9.3698   15.0160   22.5470 O   0  0  0  0  0  0  0  0  0  0  0  0
  1  2  1  0
  2  3  1  0
  2  4  1  0
  4  5  1  0
  6  5  1  6
  6  7  1  0
  7  8  1  1
  8  9  1  0
  9 10  2  0
  9 11  1  0
 11 12  1  0
 12 13  1  0
 13 14  1  0
 14 15  1  0
 15 16  2  0
 15 17  2  0
 15 18  1  0
 18 19  1  0
 19 20  1  0
 20 21  1  0
 21 22  1  0
 22 23  1  0
 14 24  1  0
 24 25  1  0
  7 26  1  0
 26 27  2  0
 26 28  1  0
  6 29  1  0
 29  2  1  0
 25 11  1  0
 23 18  1  0
M  CHG  1  28  -1
M  END
>  <energy_score>  (2811) 
-9.785895

>  <inchikey>  (2811) 
None

>  <smiles>  (2811) 
None

>  <ref_pdb>  (2811) 
A4706a

>  <alias>  (2811) 
None

>  <HIPPO Pose ID>  (2811) 
500455

>  <name>  (2811) 
P500455

>  <HIPPO Compound ID>  (2811) 
314766

>  <ref_mols>  (2811) 
A4706a,A0875a

>  <distance_score>  (2811) 
1.625692

>  <inspiration_score>  (2811) 
None

$$$$
P500456
     RDKit          3D

 29 31  0  0  0  0  0  0  0  0999 V2000
    9.5230   13.2617   22.2527 C   0  0  0  0  0  0  0  0  0  0  0  0
   10.4761   14.2396   21.6476 C   0  0  0  0  0  0  0  0  0  0  0  0
   11.8949   13.8858   21.9118 C   0  0  0  0  0  0  0  0  0  0  0  0
   10.2349   14.3153   20.2466 O   0  0  0  0  0  0  0  0  0  0  0  0
   10.3693   15.6962   19.9627 C   0  0  0  0  0  0  0  0  0  0  0  0
    9.9056   16.3635   21.2562 C   0  0  1  0  0  0  0  0  0  0  0  0
    8.3816   16.4967   21.2873 C   0  0  1  0  0  0  0  0  0  0  0  0
    7.7336   16.2422   22.5911 O   0  0  0  0  0  0  0  0  0  0  0  0
    6.9183   15.1619   22.7169 C   0  0  0  0  0  0  0  0  0  0  0  0
    6.5646   14.4257   21.7919 O   0  0  0  0  0  0  0  0  0  0  0  0
    6.3838   14.8610   24.1378 C   0  0  0  0  0  0  0  0  0  0  0  0
    6.3437   13.3362   24.4420 C   0  0  0  0  0  0  0  0  0  0  0  0
    7.5609   12.7373   25.1649 C   0  0  0  0  0  0  0  0  0  0  0  0
    8.1334   13.6093   26.2100 N   0  0  0  0  0  0  0  0  0  0  0  0
    9.7325   14.1720   26.1383 S   0  0  0  0  0  0  0  0  0  0  0  0
    9.9185   14.8839   27.3825 O   0  0  0  0  0  0  0  0  0  0  0  0
    9.9789   14.8412   24.8961 O   0  0  0  0  0  0  0  0  0  0  0  0
   10.8020   12.8634   26.2241 N   0  0  0  0  0  0  0  0  0  0  0  0
   12.1762   13.3014   26.6870 C   0  0  0  0  0  0  0  0  0  0  0  0
   13.2998   13.0331   25.6660 C   0  0  0  0  0  0  0  0  0  0  0  0
   13.4123   11.5895   25.2436 C   0  0  0  0  0  0  0  0  0  0  0  0
   12.0558   10.9772   25.3886 C   0  0  0  0  0  0  0  0  0  0  0  0
   10.8675   11.8896   25.1165 C   0  0  0  0  0  0  0  0  0  0  0  0
    7.1797   14.7208   26.5512 C   0  0  0  0  0  0  0  0  0  0  0  0
    6.9565   15.6181   25.3315 C   0  0  0  0  0  0  0  0  0  0  0  0
    8.4316   17.9705   20.7520 C   0  0  0  0  0  0  0  0  0  0  0  0
    8.4284   18.9178   21.5705 O   0  0  0  0  0  0  0  0  0  0  0  0
    8.5627   18.0807   19.4911 O   0  0  0  0  0  0  0  0  0  0  0  0
   10.3251   15.4851   22.2793 O   0  0  0  0  0  0  0  0  0  0  0  0
  1  2  1  0
  2  3  1  0
  2  4  1  0
  4  5  1  0
  6  5  1  6
  6  7  1  0
  7  8  1  1
  8  9  1  0
  9 10  2  0
  9 11  1  0
 11 12  1  0
 12 13  1  0
 13 14  1  0
 14 15  1  0
 15 16  2  0
 15 17  2  0
 15 18  1  0
 18 19  1  0
 19 20  1  0
 20 21  1  0
 21 22  1  0
 22 23  1  0
 14 24  1  0
 24 25  1  0
  7 26  1  0
 26 27  2  0
 26 28  1  0
  6 29  1  0
 29  2  1  0
 25 11  1  0
 23 18  1  0
M  CHG  1  28  -1
M  END
>  <energy_score>  (2812) 
-20.374959

>  <inchikey>  (2812) 
None

>  <smiles>  (2812) 
None

>  <ref_pdb>  (2812) 
A4706a

>  <alias>  (2812) 
None

>  <HIPPO Pose ID>  (2812) 
500456

>  <name>  (2812) 
P500456

>  <HIPPO Compound ID>  (2812) 
314766

>  <ref_mols>  (2812) 
A0875a,A4706a

>  <distance_score>  (2812) 
1.601677

>  <inspiration_score>  (2812) 
None

$$$$
P500457
     RDKit          3D

 29 33  0  0  0  0  0  0  0  0999 V2000
   10.9101   14.9668   19.3381 N   0  0  0  0  0  0  0  0  0  0  0  0
   10.2123   15.2650   20.5558 C   0  0  2  0  0  0  0  0  0  0  0  0
    8.8088   14.6667   20.6656 C   0  0  0  0  0  0  0  0  0  0  0  0
    8.7171   15.7795   21.7580 C   0  0  2  0  0  0  0  0  0  0  0  0
    7.3290   16.1677   22.2081 C   0  0  0  0  0  0  0  0  0  0  0  0
    6.9689   15.6668   23.5087 O   0  0  0  0  0  0  0  0  0  0  0  0
    6.2664   14.5054   23.5324 C   0  0  0  0  0  0  0  0  0  0  0  0
    6.1057   13.7576   22.5723 O   0  0  0  0  0  0  0  0  0  0  0  0
    5.6017   14.2999   24.8976 C   0  0  0  0  0  0  0  0  0  0  0  0
    5.5090   12.8101   25.2679 C   0  0  0  0  0  0  0  0  0  0  0  0
    6.3482   12.4296   26.4819 C   0  0  0  0  0  0  0  0  0  0  0  0
    7.6767   13.0659   26.3781 N   0  0  0  0  0  0  0  0  0  0  0  0
    8.6543   12.4180   25.1699 S   0  0  0  0  0  0  0  0  0  0  0  0
    8.2227   11.0623   24.9337 O   0  0  0  0  0  0  0  0  0  0  0  0
    8.7542   13.3490   24.0823 O   0  0  0  0  0  0  0  0  0  0  0  0
   10.1624   12.3052   25.9234 N   0  0  0  0  0  0  0  0  0  0  0  0
   11.0343   11.4121   25.1407 C   0  0  0  0  0  0  0  0  0  0  0  0
   12.5354   11.5696   25.3381 C   0  0  0  0  0  0  0  0  0  0  0  0
   12.9356   12.3392   26.5586 C   0  0  0  0  0  0  0  0  0  0  0  0
   12.1880   13.6404   26.5144 C   0  0  0  0  0  0  0  0  0  0  0  0
   10.6956   13.5821   26.3891 C   0  0  0  0  0  0  0  0  0  0  0  0
    7.5990   14.5511   26.4635 C   0  0  0  0  0  0  0  0  0  0  0  0
    6.2332   15.0921   26.0471 C   0  0  0  0  0  0  0  0  0  0  0  0
    9.5109   16.6363   20.6637 C   0  0  0  0  0  0  0  0  0  0  0  0
    9.6635   15.4711   22.8291 O   0  0  0  0  0  0  0  0  0  0  0  0
   10.7341   15.0096   21.9484 C   0  0  2  0  0  0  0  0  0  0  0  0
   12.1032   15.5066   22.2696 C   0  0  0  0  0  0  0  0  0  0  0  0
   12.3223   14.2898   23.0757 O   0  0  0  0  0  0  0  0  0  0  0  0
   11.3435   13.6500   22.1865 C   0  0  0  0  0  0  0  0  0  0  0  0
  2  1  1  6
  2  3  1  0
  3  4  1  0
  4  5  1  1
  5  6  1  0
  6  7  1  0
  7  8  2  0
  7  9  1  0
  9 10  1  0
 10 11  1  0
 11 12  1  0
 12 13  1  0
 13 14  2  0
 13 15  2  0
 13 16  1  0
 16 17  1  0
 17 18  1  0
 18 19  1  0
 19 20  1  0
 20 21  1  0
 12 22  1  0
 22 23  1  0
  4 24  1  0
  4 25  1  0
 25 26  1  0
 26 27  1  1
 27 28  1  0
 28 29  1  0
 24  2  1  0
 29 26  1  0
 26  2  1  0
 23  9  1  0
 21 16  1  0
M  END
>  <energy_score>  (2813) 
-57.700456

>  <inchikey>  (2813) 
None

>  <smiles>  (2813) 
None

>  <ref_pdb>  (2813) 
A4706a

>  <alias>  (2813) 
None

>  <HIPPO Pose ID>  (2813) 
500457

>  <name>  (2813) 
P500457

>  <HIPPO Compound ID>  (2813) 
314768

>  <ref_mols>  (2813) 
A4706a,A0875a

>  <distance_score>  (2813) 
1.920584

>  <inspiration_score>  (2813) 
None

$$$$
P500458
     RDKit          3D

 29 31  0  0  0  0  0  0  0  0999 V2000
    9.2879   15.4249   18.3198 C   0  0  0  0  0  0  0  0  0  0  0  0
    9.8109   16.5219   19.0357 O   0  0  0  0  0  0  0  0  0  0  0  0
    9.3340   16.7149   20.2901 C   0  0  0  0  0  0  0  0  0  0  0  0
    9.0008   17.8432   20.6353 O   0  0  0  0  0  0  0  0  0  0  0  0
    9.3089   15.4876   21.2487 C   0  0  1  0  0  0  0  0  0  0  0  0
    7.8170   15.1968   21.5410 C   0  0  0  0  0  0  0  0  0  0  0  0
    7.5409   14.3707   22.6840 O   0  0  0  0  0  0  0  0  0  0  0  0
    6.2100   14.2977   22.9847 C   0  0  0  0  0  0  0  0  0  0  0  0
    5.3079   14.6105   22.2162 O   0  0  0  0  0  0  0  0  0  0  0  0
    5.9568   13.7937   24.3992 C   0  0  0  0  0  0  0  0  0  0  0  0
    6.7667   12.5186   24.6687 C   0  0  0  0  0  0  0  0  0  0  0  0
    7.2366   12.3712   26.0910 C   0  0  0  0  0  0  0  0  0  0  0  0
    7.8412   13.6198   26.5656 N   0  0  0  0  0  0  0  0  0  0  0  0
    9.2922   14.2072   25.9061 S   0  0  0  0  0  0  0  0  0  0  0  0
    8.9666   15.1714   24.8965 O   0  0  0  0  0  0  0  0  0  0  0  0
   10.1438   14.5526   27.0167 O   0  0  0  0  0  0  0  0  0  0  0  0
    9.9085   12.8434   25.1710 N   0  0  0  0  0  0  0  0  0  0  0  0
   10.5783   11.8862   25.9942 C   0  0  0  0  0  0  0  0  0  0  0  0
   12.1029   11.8601   25.8704 C   0  0  0  0  0  0  0  0  0  0  0  0
   12.6292   13.0865   25.2135 C   0  0  0  0  0  0  0  0  0  0  0  0
   11.9272   13.3503   23.9053 C   0  0  0  0  0  0  0  0  0  0  0  0
   10.4754   12.9410   23.8535 C   0  0  0  0  0  0  0  0  0  0  0  0
    6.7905   14.6520   26.7224 C   0  0  0  0  0  0  0  0  0  0  0  0
    6.1209   14.9680   25.3853 C   0  0  0  0  0  0  0  0  0  0  0  0
   10.0925   14.2440   20.8094 C   0  0  0  0  0  0  0  0  0  0  0  0
   11.5628   14.4806   20.7039 C   0  0  0  0  0  0  0  0  0  0  0  0
   12.0930   15.4922   21.3870 C   0  0  0  0  0  0  0  0  0  0  0  0
   11.2500   16.3572   22.2473 C   0  0  0  0  0  0  0  0  0  0  0  0
    9.9435   15.8601   22.4641 O   0  0  0  0  0  0  0  0  0  0  0  0
  1  2  1  0
  2  3  1  0
  3  4  2  0
  3  5  1  0
  5  6  1  1
  6  7  1  0
  7  8  1  0
  8  9  2  0
  8 10  1  0
 10 11  1  0
 11 12  1  0
 12 13  1  0
 13 14  1  0
 14 15  2  0
 14 16  2  0
 14 17  1  0
 17 18  1  0
 18 19  1  0
 19 20  1  0
 20 21  1  0
 21 22  1  0
 13 23  1  0
 23 24  1  0
  5 25  1  0
 25 26  1  0
 26 27  2  0
 27 28  1  0
 28 29  1  0
 29  5  1  0
 24 10  1  0
 22 17  1  0
M  END
>  <energy_score>  (2814) 
-22.954723

>  <inchikey>  (2814) 
None

>  <smiles>  (2814) 
None

>  <ref_pdb>  (2814) 
A4706a

>  <alias>  (2814) 
None

>  <HIPPO Pose ID>  (2814) 
500458

>  <name>  (2814) 
P500458

>  <HIPPO Compound ID>  (2814) 
314769

>  <ref_mols>  (2814) 
A0875a,A4706a

>  <distance_score>  (2814) 
1.942021

>  <inspiration_score>  (2814) 
None

$$$$
P500459
     RDKit          3D

 29 31  0  0  0  0  0  0  0  0999 V2000
    4.2904   15.0620   22.1991 C   0  0  0  0  0  0  0  0  0  0  0  0
    5.4514   15.6877   22.7381 O   0  0  0  0  0  0  0  0  0  0  0  0
    6.5813   15.5921   21.8454 C   0  0  0  0  0  0  0  0  0  0  0  0
    7.9210   15.3463   22.5480 C   0  0  1  0  0  0  0  0  0  0  0  0
    7.6335   14.6478   23.7615 O   0  0  0  0  0  0  0  0  0  0  0  0
    6.8301   13.5615   23.6663 C   0  0  0  0  0  0  0  0  0  0  0  0
    6.6861   12.8906   22.6477 O   0  0  0  0  0  0  0  0  0  0  0  0
    6.0480   13.3021   24.9513 C   0  0  0  0  0  0  0  0  0  0  0  0
    6.2007   11.8436   25.3747 C   0  0  0  0  0  0  0  0  0  0  0  0
    7.5121   11.4573   26.0226 C   0  0  0  0  0  0  0  0  0  0  0  0
    8.1590   12.6347   26.5858 N   0  0  0  0  0  0  0  0  0  0  0  0
    9.4206   13.2889   25.7033 S   0  0  0  0  0  0  0  0  0  0  0  0
    9.6125   14.6155   26.2345 O   0  0  0  0  0  0  0  0  0  0  0  0
    9.2378   12.9643   24.3148 O   0  0  0  0  0  0  0  0  0  0  0  0
   10.6805   12.3199   26.1940 N   0  0  0  0  0  0  0  0  0  0  0  0
   11.4081   11.5757   25.1449 C   0  0  0  0  0  0  0  0  0  0  0  0
   12.9231   11.6196   25.3671 C   0  0  0  0  0  0  0  0  0  0  0  0
   13.3309   13.0557   25.4996 C   0  0  0  0  0  0  0  0  0  0  0  0
   12.5721   13.7218   26.6373 C   0  0  0  0  0  0  0  0  0  0  0  0
   11.5126   12.9008   27.2161 C   0  0  0  0  0  0  0  0  0  0  0  0
    7.2018   13.5983   27.1860 C   0  0  0  0  0  0  0  0  0  0  0  0
    6.3336   14.2496   26.1212 C   0  0  0  0  0  0  0  0  0  0  0  0
    9.2005   15.0625   21.7292 C   0  0  0  0  0  0  0  0  0  0  0  0
    9.1549   14.9084   20.3462 C   0  0  0  0  0  0  0  0  0  0  0  0
   10.2912   14.8258   19.5225 C   0  0  0  0  0  0  0  0  0  0  0  0
   11.5449   14.8431   20.0873 C   0  0  0  0  0  0  0  0  0  0  0  0
   11.6471   15.0243   21.4521 C   0  0  0  0  0  0  0  0  0  0  0  0
   10.4976   15.1486   22.2403 C   0  0  0  0  0  0  0  0  0  0  0  0
   10.8095   15.5130   23.8563 Cl  0  0  0  0  0  0  0  0  0  0  0  0
  1  2  1  0
  2  3  1  0
  4  3  1  6
  4  5  1  0
  5  6  1  0
  6  7  2  0
  6  8  1  0
  8  9  1  0
  9 10  1  0
 10 11  1  0
 11 12  1  0
 12 13  2  0
 12 14  2  0
 12 15  1  0
 15 16  1  0
 16 17  1  0
 17 18  1  0
 18 19  1  0
 19 20  1  0
 11 21  1  0
 21 22  1  0
  4 23  1  0
 23 24  2  0
 24 25  1  0
 25 26  2  0
 26 27  1  0
 27 28  2  0
 28 29  1  0
 22  8  1  0
 28 23  1  0
 20 15  1  0
M  END
>  <energy_score>  (2815) 
-14.349149

>  <inchikey>  (2815) 
None

>  <smiles>  (2815) 
None

>  <ref_pdb>  (2815) 
A4706a

>  <alias>  (2815) 
None

>  <HIPPO Pose ID>  (2815) 
500459

>  <name>  (2815) 
P500459

>  <HIPPO Compound ID>  (2815) 
314771

>  <ref_mols>  (2815) 
A4706a,A0875a

>  <distance_score>  (2815) 
1.698803

>  <inspiration_score>  (2815) 
None

$$$$
P500460
     RDKit          3D

 29 32  0  0  0  0  0  0  0  0999 V2000
   11.4463   14.5851   18.4680 N   0  0  0  0  0  0  0  0  0  0  0  0
   10.5921   14.3777   19.1912 N   0  0  0  0  0  0  0  0  0  0  0  0
    9.6816   14.1089   20.0116 N   0  0  0  0  0  0  0  0  0  0  0  0
    8.8439   15.1858   20.5666 C   0  0  2  0  0  0  0  0  0  0  0  0
    9.5442   16.5044   20.3393 C   0  0  0  0  0  0  0  0  0  0  0  0
   10.7179   16.2650   21.1399 O   0  0  0  0  0  0  0  0  0  0  0  0
   10.3852   15.3013   22.2090 C   0  0  0  0  0  0  0  0  0  0  0  0
   11.0951   15.6940   23.4802 C   0  0  0  0  0  0  0  0  0  0  0  0
   12.2172   14.7499   23.1000 C   0  0  0  0  0  0  0  0  0  0  0  0
   11.2463   13.9935   22.2325 C   0  0  0  0  0  0  0  0  0  0  0  0
    8.8765   15.1563   22.0860 C   0  0  2  0  0  0  0  0  0  0  0  0
    8.2166   14.0372   22.7124 O   0  0  0  0  0  0  0  0  0  0  0  0
    6.8673   14.2569   22.8617 C   0  0  0  0  0  0  0  0  0  0  0  0
    6.1945   14.8967   22.0585 O   0  0  0  0  0  0  0  0  0  0  0  0
    6.2408   13.7253   24.1629 C   0  0  0  0  0  0  0  0  0  0  0  0
    6.8403   12.3990   24.6353 C   0  0  0  0  0  0  0  0  0  0  0  0
    6.9467   12.2222   26.1355 C   0  0  0  0  0  0  0  0  0  0  0  0
    7.4823   13.4228   26.7764 N   0  0  0  0  0  0  0  0  0  0  0  0
    9.0128   14.0410   26.4314 S   0  0  0  0  0  0  0  0  0  0  0  0
    8.9741   14.5293   25.0816 O   0  0  0  0  0  0  0  0  0  0  0  0
    9.3408   14.9431   27.5051 O   0  0  0  0  0  0  0  0  0  0  0  0
   10.1586   12.7660   26.4695 N   0  0  0  0  0  0  0  0  0  0  0  0
   11.5294   13.3785   26.5901 C   0  0  0  0  0  0  0  0  0  0  0  0
   12.6650   12.3788   26.4747 C   0  0  0  0  0  0  0  0  0  0  0  0
   12.5018   11.4826   25.2690 C   0  0  0  0  0  0  0  0  0  0  0  0
   11.1141   10.8479   25.1757 C   0  0  0  0  0  0  0  0  0  0  0  0
   10.0291   11.8650   25.3115 C   0  0  0  0  0  0  0  0  0  0  0  0
    6.4313   14.4843   26.6692 C   0  0  0  0  0  0  0  0  0  0  0  0
    6.1721   14.8674   25.2059 C   0  0  0  0  0  0  0  0  0  0  0  0
  1  2  2  0
  2  3  2  0
  4  3  1  6
  4  5  1  0
  5  6  1  0
  6  7  1  0
  7  8  1  0
  8  9  1  0
  9 10  1  0
  7 11  1  0
 11 12  1  6
 12 13  1  0
 13 14  2  0
 13 15  1  0
 15 16  1  0
 16 17  1  0
 17 18  1  0
 18 19  1  0
 19 20  2  0
 19 21  2  0
 19 22  1  0
 22 23  1  0
 23 24  1  0
 24 25  1  0
 25 26  1  0
 26 27  1  0
 18 28  1  0
 28 29  1  0
 11  4  1  0
 29 15  1  0
 10  7  1  0
 27 22  1  0
M  CHG  2   1  -1   2   1
M  END
>  <energy_score>  (2816) 
-47.616746

>  <inchikey>  (2816) 
None

>  <smiles>  (2816) 
None

>  <ref_pdb>  (2816) 
A4706a

>  <alias>  (2816) 
None

>  <HIPPO Pose ID>  (2816) 
500460

>  <name>  (2816) 
P500460

>  <HIPPO Compound ID>  (2816) 
314776

>  <ref_mols>  (2816) 
A0875a,A4706a

>  <distance_score>  (2816) 
1.593895

>  <inspiration_score>  (2816) 
None

$$$$
P500461
     RDKit          3D

 29 32  0  0  0  0  0  0  0  0999 V2000
    9.6472   11.2479   22.9681 N   0  0  0  0  0  0  0  0  0  0  0  0
   10.0945   12.1531   22.4346 N   0  0  0  0  0  0  0  0  0  0  0  0
   10.5934   13.1277   21.8546 N   0  0  0  0  0  0  0  0  0  0  0  0
    9.8016   13.7464   20.7651 C   0  0  2  0  0  0  0  0  0  0  0  0
   10.6681   14.2404   19.5255 C   0  0  0  0  0  0  0  0  0  0  0  0
   10.5451   15.6529   19.6052 O   0  0  0  0  0  0  0  0  0  0  0  0
   10.3101   15.8125   21.0000 C   0  0  0  0  0  0  0  0  0  0  0  0
   10.1116   17.0979   21.6535 C   0  0  0  0  0  0  0  0  0  0  0  0
   10.9666   16.4254   22.8215 C   0  0  0  0  0  0  0  0  0  0  0  0
   11.6877   15.6753   21.7703 C   0  0  0  0  0  0  0  0  0  0  0  0
    9.0978   14.9455   21.2817 C   0  0  2  0  0  0  0  0  0  0  0  0
    8.5766   14.8697   22.6450 O   0  0  0  0  0  0  0  0  0  0  0  0
    7.5953   13.9697   22.9123 C   0  0  0  0  0  0  0  0  0  0  0  0
    7.1363   13.1962   22.0716 O   0  0  0  0  0  0  0  0  0  0  0  0
    7.0481   13.9462   24.3505 C   0  0  0  0  0  0  0  0  0  0  0  0
    7.0854   12.5290   24.9701 C   0  0  0  0  0  0  0  0  0  0  0  0
    8.3028   12.1682   25.8310 C   0  0  0  0  0  0  0  0  0  0  0  0
    8.9205   13.3272   26.5193 N   0  0  0  0  0  0  0  0  0  0  0  0
   10.4150   13.8835   25.9406 S   0  0  0  0  0  0  0  0  0  0  0  0
   10.2883   13.9018   24.5122 O   0  0  0  0  0  0  0  0  0  0  0  0
   10.7170   15.0847   26.6733 O   0  0  0  0  0  0  0  0  0  0  0  0
   11.5685   12.6821   26.3470 N   0  0  0  0  0  0  0  0  0  0  0  0
   11.9542   11.8026   25.2299 C   0  0  0  0  0  0  0  0  0  0  0  0
   13.2916   11.0447   25.3252 C   0  0  0  0  0  0  0  0  0  0  0  0
   14.3072   11.4603   26.3528 C   0  0  0  0  0  0  0  0  0  0  0  0
   14.0552   12.9015   26.6264 C   0  0  0  0  0  0  0  0  0  0  0  0
   12.6755   13.0867   27.2416 C   0  0  0  0  0  0  0  0  0  0  0  0
    7.9188   14.4257   26.6971 C   0  0  0  0  0  0  0  0  0  0  0  0
    7.5189   15.0129   25.3410 C   0  0  0  0  0  0  0  0  0  0  0  0
  1  2  2  0
  2  3  2  0
  4  3  1  1
  4  5  1  0
  5  6  1  0
  6  7  1  0
  7  8  1  0
  8  9  1  0
  9 10  1  0
  7 11  1  0
 11 12  1  1
 12 13  1  0
 13 14  2  0
 13 15  1  0
 15 16  1  0
 16 17  1  0
 17 18  1  0
 18 19  1  0
 19 20  2  0
 19 21  2  0
 19 22  1  0
 22 23  1  0
 23 24  1  0
 24 25  1  0
 25 26  1  0
 26 27  1  0
 18 28  1  0
 28 29  1  0
 11  4  1  0
 29 15  1  0
 10  7  1  0
 27 22  1  0
M  CHG  2   1  -1   2   1
M  END
>  <energy_score>  (2817) 
-18.209816

>  <inchikey>  (2817) 
None

>  <smiles>  (2817) 
None

>  <ref_pdb>  (2817) 
A4706a

>  <alias>  (2817) 
None

>  <HIPPO Pose ID>  (2817) 
500461

>  <name>  (2817) 
P500461

>  <HIPPO Compound ID>  (2817) 
314776

>  <ref_mols>  (2817) 
A4706a,A0875a

>  <distance_score>  (2817) 
1.438731

>  <inspiration_score>  (2817) 
None

$$$$
P500462
     RDKit          3D

 29 32  0  0  0  0  0  0  0  0999 V2000
    5.0128   14.6770   21.7615 N   0  0  0  0  0  0  0  0  0  0  0  0
    6.0911   14.5367   21.4215 N   0  0  0  0  0  0  0  0  0  0  0  0
    7.2669   14.3218   21.0538 N   0  0  0  0  0  0  0  0  0  0  0  0
    8.2416   15.4239   21.2715 C   0  0  2  0  0  0  0  0  0  0  0  0
    9.2281   15.5272   20.0952 C   0  0  0  0  0  0  0  0  0  0  0  0
   10.2390   14.5893   20.3973 O   0  0  0  0  0  0  0  0  0  0  0  0
   10.4532   14.6385   21.8087 C   0  0  0  0  0  0  0  0  0  0  0  0
   11.6802   15.5304   22.1664 C   0  0  0  0  0  0  0  0  0  0  0  0
   11.8994   14.5627   23.3233 C   0  0  0  0  0  0  0  0  0  0  0  0
   11.2411   13.4880   22.4354 C   0  0  0  0  0  0  0  0  0  0  0  0
    9.1357   15.0824   22.4673 C   0  0  2  0  0  0  0  0  0  0  0  0
    8.5352   14.0481   23.2821 O   0  0  0  0  0  0  0  0  0  0  0  0
    7.4506   14.4695   23.9959 C   0  0  0  0  0  0  0  0  0  0  0  0
    7.1118   15.6404   24.1140 O   0  0  0  0  0  0  0  0  0  0  0  0
    6.6283   13.3131   24.5489 C   0  0  0  0  0  0  0  0  0  0  0  0
    7.4594   12.0839   24.9254 C   0  0  0  0  0  0  0  0  0  0  0  0
    7.7943   12.0688   26.3999 C   0  0  0  0  0  0  0  0  0  0  0  0
    7.9671   13.4206   26.9104 N   0  0  0  0  0  0  0  0  0  0  0  0
    9.3883   14.2832   27.0230 S   0  0  0  0  0  0  0  0  0  0  0  0
    9.5482   15.0930   25.8402 O   0  0  0  0  0  0  0  0  0  0  0  0
    9.3493   14.9154   28.3206 O   0  0  0  0  0  0  0  0  0  0  0  0
   10.6922   13.1430   27.0345 N   0  0  0  0  0  0  0  0  0  0  0  0
   11.8951   13.8456   27.5831 C   0  0  0  0  0  0  0  0  0  0  0  0
   13.1316   12.9566   27.6076 C   0  0  0  0  0  0  0  0  0  0  0  0
   13.5098   12.4877   26.2284 C   0  0  0  0  0  0  0  0  0  0  0  0
   12.3306   11.9231   25.4793 C   0  0  0  0  0  0  0  0  0  0  0  0
   10.9402   12.4949   25.7248 C   0  0  0  0  0  0  0  0  0  0  0  0
    6.7207   14.2318   26.9043 C   0  0  0  0  0  0  0  0  0  0  0  0
    5.8078   13.7997   25.7529 C   0  0  0  0  0  0  0  0  0  0  0  0
  1  2  2  0
  2  3  2  0
  4  3  1  6
  4  5  1  0
  5  6  1  0
  6  7  1  0
  7  8  1  0
  8  9  1  0
  9 10  1  0
  7 11  1  0
 11 12  1  6
 12 13  1  0
 13 14  2  0
 13 15  1  0
 15 16  1  0
 16 17  1  0
 17 18  1  0
 18 19  1  0
 19 20  2  0
 19 21  2  0
 19 22  1  0
 22 23  1  0
 23 24  1  0
 24 25  1  0
 25 26  1  0
 26 27  1  0
 18 28  1  0
 28 29  1  0
 11  4  1  0
 29 15  1  0
 10  7  1  0
 27 22  1  0
M  CHG  2   1  -1   2   1
M  END
>  <energy_score>  (2818) 
-63.407708

>  <inchikey>  (2818) 
None

>  <smiles>  (2818) 
None

>  <ref_pdb>  (2818) 
A4706a

>  <alias>  (2818) 
None

>  <HIPPO Pose ID>  (2818) 
500462

>  <name>  (2818) 
P500462

>  <HIPPO Compound ID>  (2818) 
314776

>  <ref_mols>  (2818) 
A4706a,A0875a

>  <distance_score>  (2818) 
1.982279

>  <inspiration_score>  (2818) 
None

$$$$
P500463
     RDKit          3D

 29 31  0  0  0  0  0  0  0  0999 V2000
   11.7885   14.3234   20.4692 C   0  0  0  0  0  0  0  0  0  0  0  0
   10.4461   14.9025   20.3962 N   0  0  0  0  0  0  0  0  0  0  0  0
   10.1450   15.2742   19.0163 C   0  0  0  0  0  0  0  0  0  0  0  0
   10.1834   16.1104   21.5428 S   0  0  0  0  0  0  0  0  0  0  0  0
    9.3934   17.1486   20.9332 O   0  0  0  0  0  0  0  0  0  0  0  0
   11.4643   16.3804   22.1673 O   0  0  0  0  0  0  0  0  0  0  0  0
    9.2578   15.2580   22.7658 C   0  0  0  0  0  0  0  0  0  0  0  0
    7.7353   15.1743   22.6968 C   0  0  0  0  0  0  0  0  0  0  0  0
    7.1772   14.8145   24.0073 O   0  0  0  0  0  0  0  0  0  0  0  0
    6.2881   13.7898   24.1384 C   0  0  0  0  0  0  0  0  0  0  0  0
    6.0388   12.9298   23.3035 O   0  0  0  0  0  0  0  0  0  0  0  0
    5.6740   13.7417   25.5320 C   0  0  0  0  0  0  0  0  0  0  0  0
    5.7439   12.2957   26.0389 C   0  0  0  0  0  0  0  0  0  0  0  0
    7.1718   11.7969   26.2456 C   0  0  0  0  0  0  0  0  0  0  0  0
    8.0721   12.9110   26.6314 N   0  0  0  0  0  0  0  0  0  0  0  0
    9.1754   13.4489   25.4980 S   0  0  0  0  0  0  0  0  0  0  0  0
    8.8530   12.8149   24.2439 O   0  0  0  0  0  0  0  0  0  0  0  0
    9.2950   14.8781   25.6551 O   0  0  0  0  0  0  0  0  0  0  0  0
   10.6255   12.7811   25.9729 N   0  0  0  0  0  0  0  0  0  0  0  0
   10.9035   11.4844   25.3055 C   0  0  0  0  0  0  0  0  0  0  0  0
   12.3362   11.1030   25.6478 C   0  0  0  0  0  0  0  0  0  0  0  0
   13.3789   12.0268   25.1114 C   0  0  0  0  0  0  0  0  0  0  0  0
   12.7079   13.3365   24.7620 C   0  0  0  0  0  0  0  0  0  0  0  0
   11.7762   13.7253   25.9002 C   0  0  0  0  0  0  0  0  0  0  0  0
    7.3749   13.9675   27.4135 C   0  0  0  0  0  0  0  0  0  0  0  0
    6.3097   14.6718   26.5733 C   0  0  0  0  0  0  0  0  0  0  0  0
    6.8067   16.2738   22.1354 C   0  0  0  0  0  0  0  0  0  0  0  0
    6.0111   15.1946   21.5120 O   0  0  0  0  0  0  0  0  0  0  0  0
    7.2577   14.4336   21.4485 C   0  0  0  0  0  0  0  0  0  0  0  0
  1  2  1  0
  2  3  1  0
  2  4  1  0
  4  5  2  0
  4  6  2  0
  4  7  1  0
  7  8  1  0
  8  9  1  0
  9 10  1  0
 10 11  2  0
 10 12  1  0
 12 13  1  0
 13 14  1  0
 14 15  1  0
 15 16  1  0
 16 17  2  0
 16 18  2  0
 16 19  1  0
 19 20  1  0
 20 21  1  0
 21 22  1  0
 22 23  1  0
 23 24  1  0
 15 25  1  0
 25 26  1  0
  8 27  1  0
 27 28  1  0
 28 29  1  0
 29  8  1  0
 26 12  1  0
 24 19  1  0
M  END
>  <energy_score>  (2819) 
-33.807339

>  <inchikey>  (2819) 
None

>  <smiles>  (2819) 
None

>  <ref_pdb>  (2819) 
A4706a

>  <alias>  (2819) 
None

>  <HIPPO Pose ID>  (2819) 
500463

>  <name>  (2819) 
P500463

>  <HIPPO Compound ID>  (2819) 
314777

>  <ref_mols>  (2819) 
A0875a,A4706a

>  <distance_score>  (2819) 
1.724259

>  <inspiration_score>  (2819) 
None

$$$$
P500464
     RDKit          3D

 29 31  0  0  0  0  0  0  0  0999 V2000
    9.8002   13.0445   22.2680 C   0  0  0  0  0  0  0  0  0  0  0  0
    9.4678   14.1630   23.2121 C   0  0  1  0  0  0  0  0  0  0  0  0
   10.6017   15.1956   23.3501 C   0  0  0  0  0  0  0  0  0  0  0  0
   11.6249   15.1968   22.3620 O   0  0  0  0  0  0  0  0  0  0  0  0
   11.1048   15.5245   21.1573 C   0  0  0  0  0  0  0  0  0  0  0  0
   11.5465   14.7856   20.0774 C   0  0  0  0  0  0  0  0  0  0  0  0
   10.8343   14.8554   18.9074 C   0  0  0  0  0  0  0  0  0  0  0  0
    9.7603   15.7271   18.8089 C   0  0  0  0  0  0  0  0  0  0  0  0
    8.8313   15.5215   17.7991 N   0  0  0  0  0  0  0  0  0  0  0  0
    9.4830   16.6230   19.8250 C   0  0  0  0  0  0  0  0  0  0  0  0
   10.1081   16.4731   21.0232 C   0  0  0  0  0  0  0  0  0  0  0  0
    8.1225   14.6995   23.1283 O   0  0  0  0  0  0  0  0  0  0  0  0
    7.1384   13.7710   22.9933 C   0  0  0  0  0  0  0  0  0  0  0  0
    6.9525   13.1383   21.9570 O   0  0  0  0  0  0  0  0  0  0  0  0
    6.3014   13.4299   24.2214 C   0  0  0  0  0  0  0  0  0  0  0  0
    6.8355   12.1671   24.9441 C   0  0  0  0  0  0  0  0  0  0  0  0
    7.6053   12.4688   26.2302 C   0  0  0  0  0  0  0  0  0  0  0  0
    8.2541   13.7515   26.0072 N   0  0  0  0  0  0  0  0  0  0  0  0
    9.6465   14.1937   26.7805 S   0  0  0  0  0  0  0  0  0  0  0  0
   10.1536   15.3443   26.0750 O   0  0  0  0  0  0  0  0  0  0  0  0
    9.2816   14.3262   28.1635 O   0  0  0  0  0  0  0  0  0  0  0  0
   10.8084   12.9528   26.6859 N   0  0  0  0  0  0  0  0  0  0  0  0
   11.1063   12.2263   25.4293 C   0  0  0  0  0  0  0  0  0  0  0  0
   12.4367   12.6592   24.8453 C   0  0  0  0  0  0  0  0  0  0  0  0
   13.5685   12.1841   25.7363 C   0  0  0  0  0  0  0  0  0  0  0  0
   13.2714   12.5579   27.1831 C   0  0  0  0  0  0  0  0  0  0  0  0
   12.0614   13.4773   27.3437 C   0  0  0  0  0  0  0  0  0  0  0  0
    7.2639   14.8808   26.0407 C   0  0  0  0  0  0  0  0  0  0  0  0
    6.0602   14.5845   25.1712 C   0  0  0  0  0  0  0  0  0  0  0  0
  2  1  1  6
  2  3  1  0
  3  4  1  0
  4  5  1  0
  5  6  2  0
  6  7  1  0
  7  8  2  0
  8  9  1  0
  8 10  1  0
 10 11  2  0
  2 12  1  0
 12 13  1  0
 13 14  2  0
 13 15  1  0
 15 16  1  0
 16 17  1  0
 17 18  1  0
 18 19  1  0
 19 20  2  0
 19 21  2  0
 19 22  1  0
 22 23  1  0
 23 24  1  0
 24 25  1  0
 25 26  1  0
 26 27  1  0
 18 28  1  0
 28 29  1  0
 11  5  1  0
 29 15  1  0
 27 22  1  0
M  END
>  <energy_score>  (2820) 
-28.993615

>  <inchikey>  (2820) 
None

>  <smiles>  (2820) 
None

>  <ref_pdb>  (2820) 
A4706a

>  <alias>  (2820) 
None

>  <HIPPO Pose ID>  (2820) 
500464

>  <name>  (2820) 
P500464

>  <HIPPO Compound ID>  (2820) 
314779

>  <ref_mols>  (2820) 
A4706a,A0875a

>  <distance_score>  (2820) 
1.875955

>  <inspiration_score>  (2820) 
None

$$$$
P500465
     RDKit          3D

 29 31  0  0  0  0  0  0  0  0999 V2000
    9.2256   15.2608   19.5152 C   0  0  0  0  0  0  0  0  0  0  0  0
    8.1799   14.5006   20.2067 O   0  0  0  0  0  0  0  0  0  0  0  0
    7.3282   14.8160   21.2004 C   0  0  0  0  0  0  0  0  0  0  0  0
    6.1689   14.3814   21.1745 O   0  0  0  0  0  0  0  0  0  0  0  0
    7.8220   15.6350   22.3624 C   0  0  1  0  0  0  0  0  0  0  0  0
    7.1122   15.1731   23.5589 O   0  0  0  0  0  0  0  0  0  0  0  0
    6.8865   13.8301   23.7174 C   0  0  0  0  0  0  0  0  0  0  0  0
    7.3937   12.9229   23.0604 O   0  0  0  0  0  0  0  0  0  0  0  0
    5.8123   13.5275   24.7660 C   0  0  0  0  0  0  0  0  0  0  0  0
    6.2287   12.2827   25.5884 C   0  0  0  0  0  0  0  0  0  0  0  0
    7.2462   12.6319   26.6840 C   0  0  0  0  0  0  0  0  0  0  0  0
    7.8047   13.9382   26.3361 N   0  0  0  0  0  0  0  0  0  0  0  0
    9.3609   14.4072   26.6375 S   0  0  0  0  0  0  0  0  0  0  0  0
    9.7157   15.3997   25.6541 O   0  0  0  0  0  0  0  0  0  0  0  0
    9.4387   14.7097   28.0434 O   0  0  0  0  0  0  0  0  0  0  0  0
   10.3473   13.0640   26.3905 N   0  0  0  0  0  0  0  0  0  0  0  0
   11.7719   13.5016   26.5459 C   0  0  0  0  0  0  0  0  0  0  0  0
   12.7271   12.3266   26.4872 C   0  0  0  0  0  0  0  0  0  0  0  0
   12.4194   11.4215   25.3090 C   0  0  0  0  0  0  0  0  0  0  0  0
   10.9155   11.1358   25.0760 C   0  0  0  0  0  0  0  0  0  0  0  0
   10.1608   12.4303   25.0820 C   0  0  0  0  0  0  0  0  0  0  0  0
    6.8119   15.0278   26.5202 C   0  0  0  0  0  0  0  0  0  0  0  0
    5.5573   14.6919   25.7213 C   0  0  0  0  0  0  0  0  0  0  0  0
    9.3043   15.5761   22.4106 C   0  0  0  0  0  0  0  0  0  0  0  0
   10.2752   16.4480   21.8496 C   0  0  0  0  0  0  0  0  0  0  0  0
   11.4372   15.7206   21.7774 C   0  0  0  0  0  0  0  0  0  0  0  0
   11.0857   14.5146   22.2628 N   0  0  0  0  0  0  0  0  0  0  0  0
   11.7102   13.2672   22.0076 C   0  0  0  0  0  0  0  0  0  0  0  0
    9.8783   14.4481   22.7853 N   0  0  0  0  0  0  0  0  0  0  0  0
  1  2  1  0
  2  3  1  0
  3  4  2  0
  3  5  1  0
  5  6  1  1
  6  7  1  0
  7  8  2  0
  7  9  1  0
  9 10  1  0
 10 11  1  0
 11 12  1  0
 12 13  1  0
 13 14  2  0
 13 15  2  0
 13 16  1  0
 16 17  1  0
 17 18  1  0
 18 19  1  0
 19 20  1  0
 20 21  1  0
 12 22  1  0
 22 23  1  0
  5 24  1  0
 24 25  1  0
 25 26  2  0
 26 27  1  0
 27 28  1  0
 27 29  1  0
 23  9  1  0
 29 24  2  0
 21 16  1  0
M  END
>  <energy_score>  (2821) 
-28.592497

>  <inchikey>  (2821) 
None

>  <smiles>  (2821) 
None

>  <ref_pdb>  (2821) 
A4706a

>  <alias>  (2821) 
None

>  <HIPPO Pose ID>  (2821) 
500465

>  <name>  (2821) 
P500465

>  <HIPPO Compound ID>  (2821) 
314781

>  <ref_mols>  (2821) 
A0875a,A4706a

>  <distance_score>  (2821) 
1.961057

>  <inspiration_score>  (2821) 
None

$$$$
P500466
     RDKit          3D

 29 31  0  0  0  0  0  0  0  0999 V2000
    8.5519   18.4659   20.9675 C   0  0  0  0  0  0  0  0  0  0  0  0
    8.6103   17.0589   20.8435 O   0  0  0  0  0  0  0  0  0  0  0  0
    7.8642   16.3105   21.6938 C   0  0  0  0  0  0  0  0  0  0  0  0
    6.9194   16.6823   22.3828 O   0  0  0  0  0  0  0  0  0  0  0  0
    8.3643   14.8876   21.7132 C   0  0  2  0  0  0  0  0  0  0  0  0
    7.9615   14.4612   23.0336 O   0  0  0  0  0  0  0  0  0  0  0  0
    6.8826   13.6661   23.1399 C   0  0  0  0  0  0  0  0  0  0  0  0
    6.3362   13.1190   22.1875 O   0  0  0  0  0  0  0  0  0  0  0  0
    6.4472   13.4124   24.5902 C   0  0  0  0  0  0  0  0  0  0  0  0
    6.8893   11.9993   25.0268 C   0  0  0  0  0  0  0  0  0  0  0  0
    7.9025   11.8572   26.1571 C   0  0  0  0  0  0  0  0  0  0  0  0
    8.5911   13.1252   26.4662 N   0  0  0  0  0  0  0  0  0  0  0  0
    9.8025   13.5778   25.3891 S   0  0  0  0  0  0  0  0  0  0  0  0
   10.0395   14.9910   25.5526 O   0  0  0  0  0  0  0  0  0  0  0  0
    9.5020   12.9359   24.1364 O   0  0  0  0  0  0  0  0  0  0  0  0
   11.1901   12.7758   25.9659 N   0  0  0  0  0  0  0  0  0  0  0  0
   12.1662   12.6132   24.8555 C   0  0  0  0  0  0  0  0  0  0  0  0
   13.2166   11.6165   25.2976 C   0  0  0  0  0  0  0  0  0  0  0  0
   14.0300   12.2227   26.4170 C   0  0  0  0  0  0  0  0  0  0  0  0
   13.1348   12.7482   27.5297 C   0  0  0  0  0  0  0  0  0  0  0  0
   11.8506   13.4764   27.0917 C   0  0  0  0  0  0  0  0  0  0  0  0
    7.5827   14.1669   26.7820 C   0  0  0  0  0  0  0  0  0  0  0  0
    6.7712   14.5622   25.5580 C   0  0  0  0  0  0  0  0  0  0  0  0
    9.8508   14.8955   21.6061 C   0  0  0  0  0  0  0  0  0  0  0  0
   10.5690   14.9960   22.7649 O   0  0  0  0  0  0  0  0  0  0  0  0
   11.8663   15.0613   22.4219 C   0  0  0  0  0  0  0  0  0  0  0  0
   12.0175   15.0791   21.0709 C   0  0  0  0  0  0  0  0  0  0  0  0
   10.7320   14.9681   20.5533 C   0  0  0  0  0  0  0  0  0  0  0  0
   10.4690   15.0490   18.7329 Br  0  0  0  0  0  0  0  0  0  0  0  0
  1  2  1  0
  2  3  1  0
  3  4  2  0
  3  5  1  0
  5  6  1  1
  6  7  1  0
  7  8  2  0
  7  9  1  0
  9 10  1  0
 10 11  1  0
 11 12  1  0
 12 13  1  0
 13 14  2  0
 13 15  2  0
 13 16  1  0
 16 17  1  0
 17 18  1  0
 18 19  1  0
 19 20  1  0
 20 21  1  0
 12 22  1  0
 22 23  1  0
  5 24  1  0
 24 25  1  0
 25 26  1  0
 26 27  2  0
 27 28  1  0
 28 29  1  0
 23  9  1  0
 28 24  2  0
 21 16  1  0
M  END
>  <energy_score>  (2822) 
-41.979298

>  <inchikey>  (2822) 
None

>  <smiles>  (2822) 
None

>  <ref_pdb>  (2822) 
A4706a

>  <alias>  (2822) 
None

>  <HIPPO Pose ID>  (2822) 
500466

>  <name>  (2822) 
P500466

>  <HIPPO Compound ID>  (2822) 
314783

>  <ref_mols>  (2822) 
A4706a,A0875a

>  <distance_score>  (2822) 
1.49569

>  <inspiration_score>  (2822) 
None

$$$$
P500467
     RDKit          3D

 29 31  0  0  0  0  0  0  0  0999 V2000
   14.3932   10.9923   30.6860 C   0  0  0  0  0  0  0  0  0  0  0  0
   14.6540   10.9816   29.2871 O   0  0  0  0  0  0  0  0  0  0  0  0
   16.0099   11.3305   28.9094 C   0  0  1  0  0  0  0  0  0  0  0  0
   17.1182   10.2507   29.0782 C   0  0  1  0  0  0  0  0  0  0  0  0
   16.7041    9.0189   29.7129 O   0  0  0  0  0  0  0  0  0  0  0  0
   17.6733    8.1207   30.2679 C   0  0  0  0  0  0  0  0  0  0  0  0
   16.9073    6.8256   30.5650 C   0  0  0  0  0  0  0  0  0  0  0  0
   18.8051    7.8167   29.2844 C   0  0  0  0  0  0  0  0  0  0  0  0
   18.2180    8.6966   31.5776 C   0  0  0  0  0  0  0  0  0  0  0  0
   17.2717   10.1930   27.5488 C   0  0  0  0  0  0  0  0  0  0  0  0
   16.3173   11.3857   27.3913 C   0  0  1  0  0  0  0  0  0  0  0  0
   15.2289   11.2007   26.4420 O   0  0  0  0  0  0  0  0  0  0  0  0
   14.3537   12.2447   26.4043 C   0  0  0  0  0  0  0  0  0  0  0  0
   14.3871   13.1829   27.1875 O   0  0  0  0  0  0  0  0  0  0  0  0
   13.3445   12.0789   25.2520 C   0  0  0  0  0  0  0  0  0  0  0  0
   12.8235   13.4123   24.7530 C   0  0  0  0  0  0  0  0  0  0  0  0
   11.7720   13.9938   25.6817 C   0  0  0  0  0  0  0  0  0  0  0  0
   10.5784   13.1366   25.7315 N   0  0  0  0  0  0  0  0  0  0  0  0
    9.1772   13.9857   25.3848 S   0  0  0  0  0  0  0  0  0  0  0  0
    8.9881   13.9440   23.9561 O   0  0  0  0  0  0  0  0  0  0  0  0
    9.2801   15.2351   26.1014 O   0  0  0  0  0  0  0  0  0  0  0  0
    8.0407   13.0267   26.1827 N   0  0  0  0  0  0  0  0  0  0  0  0
    7.3120   12.0370   25.3673 C   0  0  0  0  0  0  0  0  0  0  0  0
    5.9560   12.5784   24.9289 C   0  0  0  0  0  0  0  0  0  0  0  0
    5.8301   14.0928   24.9648 C   0  0  0  0  0  0  0  0  0  0  0  0
    6.1839   14.6584   26.3344 C   0  0  0  0  0  0  0  0  0  0  0  0
    7.1373   13.7566   27.1098 C   0  0  0  0  0  0  0  0  0  0  0  0
   10.7719   11.8004   25.1638 C   0  0  0  0  0  0  0  0  0  0  0  0
   12.1361   11.2904   25.6600 C   0  0  0  0  0  0  0  0  0  0  0  0
  1  2  1  0
  3  2  1  6
  3  4  1  0
  4  5  1  6
  5  6  1  0
  6  7  1  0
  6  8  1  0
  6  9  1  0
  4 10  1  0
 10 11  1  0
 11 12  1  6
 12 13  1  0
 13 14  2  0
 13 15  1  0
 15 16  1  0
 16 17  1  0
 17 18  1  0
 18 19  1  0
 19 20  2  0
 19 21  2  0
 19 22  1  0
 22 23  1  0
 23 24  1  0
 24 25  1  0
 25 26  1  0
 26 27  1  0
 18 28  1  0
 28 29  1  0
 11  3  1  0
 29 15  1  0
 27 22  1  0
M  END
>  <energy_score>  (2823) 
-84.495102

>  <inchikey>  (2823) 
None

>  <smiles>  (2823) 
None

>  <ref_pdb>  (2823) 
A4706a

>  <alias>  (2823) 
None

>  <HIPPO Pose ID>  (2823) 
500467

>  <name>  (2823) 
P500467

>  <HIPPO Compound ID>  (2823) 
314785

>  <ref_mols>  (2823) 
A4706a,A0875a

>  <distance_score>  (2823) 
1.938585

>  <inspiration_score>  (2823) 
None

$$$$
P500468
     RDKit          3D

 29 31  0  0  0  0  0  0  0  0999 V2000
   14.5707   10.4134   30.9480 C   0  0  0  0  0  0  0  0  0  0  0  0
   14.9386   10.9217   29.6696 O   0  0  0  0  0  0  0  0  0  0  0  0
   16.3675   10.9383   29.4088 C   0  0  1  0  0  0  0  0  0  0  0  0
   16.7970   11.4674   28.0118 C   0  0  1  0  0  0  0  0  0  0  0  0
   15.8231   12.2992   27.3365 O   0  0  0  0  0  0  0  0  0  0  0  0
   14.9355   11.6167   26.5640 C   0  0  0  0  0  0  0  0  0  0  0  0
   15.0238   10.4462   26.2229 O   0  0  0  0  0  0  0  0  0  0  0  0
   13.8090   12.5243   26.1408 C   0  0  0  0  0  0  0  0  0  0  0  0
   12.9622   12.9292   27.3265 C   0  0  0  0  0  0  0  0  0  0  0  0
   11.6900   13.6912   26.9564 C   0  0  0  0  0  0  0  0  0  0  0  0
   10.9654   13.1190   25.7881 N   0  0  0  0  0  0  0  0  0  0  0  0
    9.6041   14.0632   25.3632 S   0  0  0  0  0  0  0  0  0  0  0  0
    9.2738   13.8567   23.9755 O   0  0  0  0  0  0  0  0  0  0  0  0
    9.8043   15.3837   25.9042 O   0  0  0  0  0  0  0  0  0  0  0  0
    8.4538   13.2806   26.3207 N   0  0  0  0  0  0  0  0  0  0  0  0
    7.2895   14.1200   26.7019 C   0  0  0  0  0  0  0  0  0  0  0  0
    6.3387   14.2867   25.5242 C   0  0  0  0  0  0  0  0  0  0  0  0
    6.1104   12.9740   24.7750 C   0  0  0  0  0  0  0  0  0  0  0  0
    6.6088   11.7782   25.5745 C   0  0  0  0  0  0  0  0  0  0  0  0
    8.0892   11.9071   25.8843 C   0  0  0  0  0  0  0  0  0  0  0  0
   11.8333   12.7977   24.6441 C   0  0  0  0  0  0  0  0  0  0  0  0
   12.9071   11.8379   25.1366 C   0  0  0  0  0  0  0  0  0  0  0  0
   17.9397   12.2284   28.7102 C   0  0  0  0  0  0  0  0  0  0  0  0
   17.1573   12.1290   30.0337 C   0  0  2  0  0  0  0  0  0  0  0  0
   17.9264   11.7938   31.2103 O   0  0  0  0  0  0  0  0  0  0  0  0
   18.4102   12.8365   32.0700 C   0  0  0  0  0  0  0  0  0  0  0  0
   17.2492   13.4154   32.8841 C   0  0  0  0  0  0  0  0  0  0  0  0
   19.4018   12.1570   33.0224 C   0  0  0  0  0  0  0  0  0  0  0  0
   19.1385   13.9341   31.2888 C   0  0  0  0  0  0  0  0  0  0  0  0
  1  2  1  0
  3  2  1  6
  3  4  1  0
  4  5  1  1
  5  6  1  0
  6  7  2  0
  6  8  1  0
  8  9  1  0
  9 10  1  0
 10 11  1  0
 11 12  1  0
 12 13  2  0
 12 14  2  0
 12 15  1  0
 15 16  1  0
 16 17  1  0
 17 18  1  0
 18 19  1  0
 19 20  1  0
 11 21  1  0
 21 22  1  0
  4 23  1  0
 23 24  1  0
 24 25  1  1
 25 26  1  0
 26 27  1  0
 26 28  1  0
 26 29  1  0
 24  3  1  0
 22  8  1  0
 20 15  1  0
M  END
>  <energy_score>  (2824) 
-103.456295

>  <inchikey>  (2824) 
None

>  <smiles>  (2824) 
None

>  <ref_pdb>  (2824) 
A4706a

>  <alias>  (2824) 
None

>  <HIPPO Pose ID>  (2824) 
500468

>  <name>  (2824) 
P500468

>  <HIPPO Compound ID>  (2824) 
314785

>  <ref_mols>  (2824) 
A4706a,A0875a

>  <distance_score>  (2824) 
1.867433

>  <inspiration_score>  (2824) 
None

$$$$
P500469
     RDKit          3D

 29 31  0  0  0  0  0  0  0  0999 V2000
   17.0848   14.2644   31.1544 C   0  0  0  0  0  0  0  0  0  0  0  0
   16.6155   13.6087   29.9852 O   0  0  0  0  0  0  0  0  0  0  0  0
   16.8896   12.1824   29.9000 C   0  0  1  0  0  0  0  0  0  0  0  0
   16.5052   11.5266   28.5351 C   0  0  1  0  0  0  0  0  0  0  0  0
   15.5265   12.2742   27.7851 O   0  0  0  0  0  0  0  0  0  0  0  0
   14.9290   11.6448   26.7420 C   0  0  0  0  0  0  0  0  0  0  0  0
   15.2103   10.5452   26.2941 O   0  0  0  0  0  0  0  0  0  0  0  0
   13.8163   12.5227   26.2108 C   0  0  0  0  0  0  0  0  0  0  0  0
   12.9177   12.9619   27.3519 C   0  0  0  0  0  0  0  0  0  0  0  0
   11.6544   13.7003   26.9346 C   0  0  0  0  0  0  0  0  0  0  0  0
   10.9634   13.0760   25.7753 N   0  0  0  0  0  0  0  0  0  0  0  0
    9.6094   14.0088   25.2957 S   0  0  0  0  0  0  0  0  0  0  0  0
    9.2611   13.6928   23.9347 O   0  0  0  0  0  0  0  0  0  0  0  0
    9.8577   15.3658   25.7111 O   0  0  0  0  0  0  0  0  0  0  0  0
    8.4548   13.3589   26.3419 N   0  0  0  0  0  0  0  0  0  0  0  0
    8.0130   11.9718   26.0825 C   0  0  0  0  0  0  0  0  0  0  0  0
    6.9835   11.9069   24.9724 C   0  0  0  0  0  0  0  0  0  0  0  0
    5.8433   12.8980   25.1647 C   0  0  0  0  0  0  0  0  0  0  0  0
    6.3337   14.3000   25.4996 C   0  0  0  0  0  0  0  0  0  0  0  0
    7.3127   14.2550   26.6613 C   0  0  0  0  0  0  0  0  0  0  0  0
   11.8780   12.7683   24.6585 C   0  0  0  0  0  0  0  0  0  0  0  0
   12.9528   11.8168   25.1829 C   0  0  0  0  0  0  0  0  0  0  0  0
   17.9771   11.7014   28.1201 C   0  0  0  0  0  0  0  0  0  0  0  0
   18.3553   11.7371   29.6156 C   0  0  2  0  0  0  0  0  0  0  0  0
   18.7321   10.4490   30.1607 O   0  0  0  0  0  0  0  0  0  0  0  0
   19.6196   10.3704   31.2848 C   0  0  0  0  0  0  0  0  0  0  0  0
   19.1296   11.2314   32.4519 C   0  0  0  0  0  0  0  0  0  0  0  0
   19.6101    8.8971   31.7115 C   0  0  0  0  0  0  0  0  0  0  0  0
   21.0388   10.7600   30.8615 C   0  0  0  0  0  0  0  0  0  0  0  0
  1  2  1  0
  3  2  1  6
  3  4  1  0
  4  5  1  6
  5  6  1  0
  6  7  2  0
  6  8  1  0
  8  9  1  0
  9 10  1  0
 10 11  1  0
 11 12  1  0
 12 13  2  0
 12 14  2  0
 12 15  1  0
 15 16  1  0
 16 17  1  0
 17 18  1  0
 18 19  1  0
 19 20  1  0
 11 21  1  0
 21 22  1  0
  4 23  1  0
 23 24  1  0
 24 25  1  1
 25 26  1  0
 26 27  1  0
 26 28  1  0
 26 29  1  0
 24  3  1  0
 22  8  1  0
 20 15  1  0
M  END
>  <energy_score>  (2825) 
-89.433894

>  <inchikey>  (2825) 
None

>  <smiles>  (2825) 
None

>  <ref_pdb>  (2825) 
A4706a

>  <alias>  (2825) 
None

>  <HIPPO Pose ID>  (2825) 
500469

>  <name>  (2825) 
P500469

>  <HIPPO Compound ID>  (2825) 
314785

>  <ref_mols>  (2825) 
A4706a,A0875a

>  <distance_score>  (2825) 
1.985331

>  <inspiration_score>  (2825) 
None

$$$$
P500470
     RDKit          3D

 29 31  0  0  0  0  0  0  0  0999 V2000
    6.2892   13.1265   22.0763 O   0  0  0  0  0  0  0  0  0  0  0  0
    6.7162   13.4707   23.1715 C   0  0  0  0  0  0  0  0  0  0  0  0
    7.9343   14.0311   23.3308 O   0  0  0  0  0  0  0  0  0  0  0  0
    8.4496   15.0251   22.3539 C   0  0  2  0  0  0  0  0  0  0  0  0
    7.4081   16.1404   22.2662 C   0  0  0  0  0  0  0  0  0  0  0  0
    7.8700   17.2086   21.6017 F   0  0  0  0  0  0  0  0  0  0  0  0
    6.2882   15.6979   21.6472 F   0  0  0  0  0  0  0  0  0  0  0  0
    6.9836   16.5109   23.4979 F   0  0  0  0  0  0  0  0  0  0  0  0
    8.7069   14.5527   20.9304 C   0  0  0  0  0  0  0  0  0  0  0  0
    9.9939   13.8909   20.7643 N   0  0  0  0  0  0  0  0  0  0  0  0
   11.0515   14.7819   20.2769 C   0  0  0  0  0  0  0  0  0  0  0  0
   11.6592   15.4787   21.4723 C   0  0  0  0  0  0  0  0  0  0  0  0
   10.6686   16.2524   22.1342 O   0  0  0  0  0  0  0  0  0  0  0  0
    9.7971   15.4669   22.9370 C   0  0  0  0  0  0  0  0  0  0  0  0
    5.9255   13.1950   24.4539 C   0  0  0  0  0  0  0  0  0  0  0  0
    6.4866   12.0221   25.2774 C   0  0  0  0  0  0  0  0  0  0  0  0
    7.3786   12.4759   26.4314 C   0  0  0  0  0  0  0  0  0  0  0  0
    7.9106   13.7832   26.0530 N   0  0  0  0  0  0  0  0  0  0  0  0
    9.4399   14.2534   26.4450 S   0  0  0  0  0  0  0  0  0  0  0  0
    9.6141   14.1440   27.8670 O   0  0  0  0  0  0  0  0  0  0  0  0
    9.6959   15.5198   25.8173 O   0  0  0  0  0  0  0  0  0  0  0  0
   10.4609   13.1651   25.7410 N   0  0  0  0  0  0  0  0  0  0  0  0
   10.1283   12.2586   24.6452 C   0  0  0  0  0  0  0  0  0  0  0  0
   10.8135   10.9593   25.0384 C   0  0  0  0  0  0  0  0  0  0  0  0
   12.2959   11.2341   25.4506 C   0  0  0  0  0  0  0  0  0  0  0  0
   12.7528   12.6152   25.0364 C   0  0  0  0  0  0  0  0  0  0  0  0
   11.8610   13.6285   25.7253 C   0  0  0  0  0  0  0  0  0  0  0  0
    6.8821   14.8404   26.1523 C   0  0  0  0  0  0  0  0  0  0  0  0
    5.6784   14.4363   25.3116 C   0  0  0  0  0  0  0  0  0  0  0  0
  1  2  2  0
  2  3  1  0
  4  3  1  1
  4  5  1  0
  5  6  1  0
  5  7  1  0
  5  8  1  0
  4  9  1  0
  9 10  1  0
 10 11  1  0
 11 12  1  0
 12 13  1  0
 13 14  1  0
  2 15  1  0
 15 16  1  0
 16 17  1  0
 17 18  1  0
 18 19  1  0
 19 20  2  0
 19 21  2  0
 19 22  1  0
 22 23  1  0
 23 24  1  0
 24 25  1  0
 25 26  1  0
 26 27  1  0
 18 28  1  0
 28 29  1  0
 14  4  1  0
 29 15  1  0
 27 22  1  0
M  END
>  <energy_score>  (2826) 
-66.469547

>  <inchikey>  (2826) 
None

>  <smiles>  (2826) 
None

>  <ref_pdb>  (2826) 
A4706a

>  <alias>  (2826) 
None

>  <HIPPO Pose ID>  (2826) 
500470

>  <name>  (2826) 
P500470

>  <HIPPO Compound ID>  (2826) 
314786

>  <ref_mols>  (2826) 
A0875a,A4706a

>  <distance_score>  (2826) 
1.741409

>  <inspiration_score>  (2826) 
None

$$$$
P500471
     RDKit          3D

 29 32  0  0  0  0  0  0  0  0999 V2000
   11.3147   14.9632   18.3889 C   0  0  0  0  0  0  0  0  0  0  0  0
   10.7158   14.9721   19.7412 C   0  0  0  0  0  0  0  0  0  0  0  0
   11.5359   14.9205   20.8510 C   0  0  0  0  0  0  0  0  0  0  0  0
   10.9659   14.9668   22.1020 C   0  0  0  0  0  0  0  0  0  0  0  0
   12.0205   14.5094   23.5343 Br  0  0  0  0  0  0  0  0  0  0  0  0
    9.6115   15.1276   22.2191 C   0  0  0  0  0  0  0  0  0  0  0  0
    8.7706   14.8886   21.1643 C   0  0  0  0  0  0  0  0  0  0  0  0
    9.3299   14.9875   19.9084 C   0  0  0  0  0  0  0  0  0  0  0  0
    7.3722   14.8248   21.7173 C   0  0  1  0  0  0  0  0  0  0  0  0
    7.0894   13.6304   22.5173 O   0  0  0  0  0  0  0  0  0  0  0  0
    5.9592   13.7520   23.2786 C   0  0  0  0  0  0  0  0  0  0  0  0
    4.9810   14.3983   22.9141 O   0  0  0  0  0  0  0  0  0  0  0  0
    6.0347   13.1163   24.6789 C   0  0  0  0  0  0  0  0  0  0  0  0
    6.8734   11.8314   24.7961 C   0  0  0  0  0  0  0  0  0  0  0  0
    7.6727   11.5987   26.0671 C   0  0  0  0  0  0  0  0  0  0  0  0
    8.2127   12.8567   26.5833 N   0  0  0  0  0  0  0  0  0  0  0  0
    9.4656   13.5453   25.6871 S   0  0  0  0  0  0  0  0  0  0  0  0
    9.5780   14.9091   26.1337 O   0  0  0  0  0  0  0  0  0  0  0  0
    9.2352   13.1912   24.3146 O   0  0  0  0  0  0  0  0  0  0  0  0
   10.8250   12.6684   26.2514 N   0  0  0  0  0  0  0  0  0  0  0  0
   11.7593   13.5098   27.0237 C   0  0  0  0  0  0  0  0  0  0  0  0
   13.0431   12.7925   27.4048 C   0  0  0  0  0  0  0  0  0  0  0  0
   13.7853   12.3049   26.1983 C   0  0  0  0  0  0  0  0  0  0  0  0
   12.9002   11.4877   25.3016 C   0  0  0  0  0  0  0  0  0  0  0  0
   11.3863   11.7169   25.2694 C   0  0  0  0  0  0  0  0  0  0  0  0
    7.0930   13.7680   26.9285 C   0  0  0  0  0  0  0  0  0  0  0  0
    6.3939   14.2389   25.6692 C   0  0  0  0  0  0  0  0  0  0  0  0
    7.6327   15.9639   22.6724 C   0  0  0  0  0  0  0  0  0  0  0  0
    8.9072   15.5973   23.3027 O   0  0  0  0  0  0  0  0  0  0  0  0
  1  2  1  0
  2  3  2  0
  3  4  1  0
  4  5  1  0
  4  6  2  0
  6  7  1  0
  7  8  2  0
  7  9  1  0
  9 10  1  1
 10 11  1  0
 11 12  2  0
 11 13  1  0
 13 14  1  0
 14 15  1  0
 15 16  1  0
 16 17  1  0
 17 18  2  0
 17 19  2  0
 17 20  1  0
 20 21  1  0
 21 22  1  0
 22 23  1  0
 23 24  1  0
 24 25  1  0
 16 26  1  0
 26 27  1  0
  9 28  1  0
 28 29  1  0
  8  2  1  0
 27 13  1  0
 29  6  1  0
 25 20  1  0
M  END
>  <energy_score>  (2827) 
-17.309551

>  <inchikey>  (2827) 
None

>  <smiles>  (2827) 
None

>  <ref_pdb>  (2827) 
A4706a

>  <alias>  (2827) 
None

>  <HIPPO Pose ID>  (2827) 
500471

>  <name>  (2827) 
P500471

>  <HIPPO Compound ID>  (2827) 
314790

>  <ref_mols>  (2827) 
A4706a,A0875a

>  <distance_score>  (2827) 
1.761853

>  <inspiration_score>  (2827) 
None

$$$$
P500472
     RDKit          3D

 29 31  0  0  0  0  0  0  0  0999 V2000
   19.8160   11.1310   27.8484 C   0  0  0  0  0  0  0  0  0  0  0  0
   18.4926   11.1862   28.0073 C   0  0  0  0  0  0  0  0  0  0  0  0
   17.5150   12.3230   28.2553 C   0  0  0  0  0  0  0  0  0  0  0  0
   16.6421   11.1957   28.8733 C   0  0  0  0  0  0  0  0  0  0  0  0
   15.1122   11.1802   28.8419 C   0  0  1  0  0  0  0  0  0  0  0  0
   14.4856   12.2429   29.7748 C   0  0  0  0  0  0  0  0  0  0  0  0
   13.5929   11.6095   30.7227 O   0  0  0  0  0  0  0  0  0  0  0  0
   14.1838   11.0587   31.8196 C   0  0  0  0  0  0  0  0  0  0  0  0
   13.1536   10.4382   32.7115 C   0  0  0  0  0  0  0  0  0  0  0  0
   15.3865   11.0512   32.0341 O   0  0  0  0  0  0  0  0  0  0  0  0
   14.5446   11.1052   27.4856 O   0  0  0  0  0  0  0  0  0  0  0  0
   14.3450   12.2389   26.7798 C   0  0  0  0  0  0  0  0  0  0  0  0
   14.7497   13.3209   27.1727 O   0  0  0  0  0  0  0  0  0  0  0  0
   13.5287   12.0192   25.4725 C   0  0  0  0  0  0  0  0  0  0  0  0
   13.0389   13.3470   24.9499 C   0  0  0  0  0  0  0  0  0  0  0  0
   11.9137   13.9033   25.8303 C   0  0  0  0  0  0  0  0  0  0  0  0
   10.6984   13.1611   25.5286 N   0  0  0  0  0  0  0  0  0  0  0  0
    9.3844   13.9984   24.9098 S   0  0  0  0  0  0  0  0  0  0  0  0
    9.3453   15.3079   25.5075 O   0  0  0  0  0  0  0  0  0  0  0  0
    8.2618   13.1010   25.0115 O   0  0  0  0  0  0  0  0  0  0  0  0
    9.7918   14.2013   23.2721 N   0  0  0  0  0  0  0  0  0  0  0  0
    8.6064   14.5844   22.4438 C   0  0  0  0  0  0  0  0  0  0  0  0
    8.9993   14.5913   20.9763 C   0  0  0  0  0  0  0  0  0  0  0  0
   10.1632   15.5143   20.6681 C   0  0  0  0  0  0  0  0  0  0  0  0
   11.3279   15.1404   21.5597 C   0  0  0  0  0  0  0  0  0  0  0  0
   10.8823   15.1856   23.0039 C   0  0  0  0  0  0  0  0  0  0  0  0
   10.9105   11.7861   25.0627 C   0  0  0  0  0  0  0  0  0  0  0  0
   12.2399   11.2480   25.6549 C   0  0  0  0  0  0  0  0  0  0  0  0
   17.3925   10.1434   28.0060 C   0  0  0  0  0  0  0  0  0  0  0  0
  1  2  2  0
  2  3  1  0
  3  4  1  0
  4  5  1  0
  5  6  1  6
  6  7  1  0
  7  8  1  0
  8  9  1  0
  8 10  2  0
  5 11  1  0
 11 12  1  0
 12 13  2  0
 12 14  1  0
 14 15  1  0
 15 16  1  0
 16 17  1  0
 17 18  1  0
 18 19  2  0
 18 20  2  0
 18 21  1  0
 21 22  1  0
 22 23  1  0
 23 24  1  0
 24 25  1  0
 25 26  1  0
 17 27  1  0
 27 28  1  0
  4 29  1  0
 29  2  1  0
 28 14  1  0
 26 21  1  0
M  END
>  <energy_score>  (2828) 
-64.202285

>  <inchikey>  (2828) 
None

>  <smiles>  (2828) 
None

>  <ref_pdb>  (2828) 
A4706a

>  <alias>  (2828) 
None

>  <HIPPO Pose ID>  (2828) 
500472

>  <name>  (2828) 
P500472

>  <HIPPO Compound ID>  (2828) 
314793

>  <ref_mols>  (2828) 
A4706a,A0875a

>  <distance_score>  (2828) 
1.820446

>  <inspiration_score>  (2828) 
None

$$$$
P500473
     RDKit          3D

 29 31  0  0  0  0  0  0  0  0999 V2000
   14.6100   14.8641   29.8233 C   0  0  0  0  0  0  0  0  0  0  0  0
   14.3982   13.4519   30.3650 C   0  0  0  0  0  0  0  0  0  0  0  0
   12.9068   13.4126   30.7731 C   0  0  0  0  0  0  0  0  0  0  0  0
   15.1975   13.3580   31.7201 C   0  0  0  0  0  0  0  0  0  0  0  0
   16.6461   13.3312   31.6024 N   0  0  0  0  0  0  0  0  0  0  0  0
   14.7388   12.3048   29.2579 C   0  0  1  0  0  0  0  0  0  0  0  0
   13.7158   12.4451   28.0940 O   0  0  0  0  0  0  0  0  0  0  0  0
   13.8184   11.6567   26.9805 C   0  0  0  0  0  0  0  0  0  0  0  0
   14.6693   10.7813   26.8613 O   0  0  0  0  0  0  0  0  0  0  0  0
   12.8899   11.8830   25.7547 C   0  0  0  0  0  0  0  0  0  0  0  0
   12.9069   13.3057   25.2805 C   0  0  0  0  0  0  0  0  0  0  0  0
   11.7128   14.0980   25.8162 C   0  0  0  0  0  0  0  0  0  0  0  0
   10.5595   13.4218   25.2329 N   0  0  0  0  0  0  0  0  0  0  0  0
    9.2689   14.2487   24.6163 S   0  0  0  0  0  0  0  0  0  0  0  0
    8.3768   13.2726   24.0387 O   0  0  0  0  0  0  0  0  0  0  0  0
    8.8329   15.1535   25.6508 O   0  0  0  0  0  0  0  0  0  0  0  0
    9.9132   15.1270   23.3270 N   0  0  0  0  0  0  0  0  0  0  0  0
   11.1382   14.6127   22.6553 C   0  0  0  0  0  0  0  0  0  0  0  0
   11.4162   15.3482   21.3613 C   0  0  0  0  0  0  0  0  0  0  0  0
   10.3105   15.1142   20.3479 C   0  0  0  0  0  0  0  0  0  0  0  0
    9.0072   14.7566   21.0478 C   0  0  0  0  0  0  0  0  0  0  0  0
    8.8709   15.5615   22.3275 C   0  0  0  0  0  0  0  0  0  0  0  0
   10.3139   12.1612   25.9218 C   0  0  0  0  0  0  0  0  0  0  0  0
   11.4868   11.2929   25.4953 C   0  0  0  0  0  0  0  0  0  0  0  0
   16.1676   12.4897   28.6435 C   0  0  0  0  0  0  0  0  0  0  0  0
   17.1108   11.2855   28.6439 C   0  0  0  0  0  0  0  0  0  0  0  0
   16.8065   10.2982   29.7412 C   0  0  0  0  0  0  0  0  0  0  0  0
   15.4505    9.9084   29.6127 O   0  0  0  0  0  0  0  0  0  0  0  0
   14.5538   10.9391   29.9814 C   0  0  0  0  0  0  0  0  0  0  0  0
  1  2  1  0
  2  3  1  0
  2  4  1  0
  4  5  1  0
  2  6  1  0
  6  7  1  6
  7  8  1  0
  8  9  2  0
  8 10  1  0
 10 11  1  0
 11 12  1  0
 12 13  1  0
 13 14  1  0
 14 15  2  0
 14 16  2  0
 14 17  1  0
 17 18  1  0
 18 19  1  0
 19 20  1  0
 20 21  1  0
 21 22  1  0
 13 23  1  0
 23 24  1  0
  6 25  1  0
 25 26  1  0
 26 27  1  0
 27 28  1  0
 28 29  1  0
 29  6  1  0
 24 10  1  0
 22 17  1  0
M  END
>  <energy_score>  (2829) 
-58.279124

>  <inchikey>  (2829) 
None

>  <smiles>  (2829) 
None

>  <ref_pdb>  (2829) 
A4706a

>  <alias>  (2829) 
None

>  <HIPPO Pose ID>  (2829) 
500473

>  <name>  (2829) 
P500473

>  <HIPPO Compound ID>  (2829) 
314794

>  <ref_mols>  (2829) 
A0875a,A4706a

>  <distance_score>  (2829) 
1.974072

>  <inspiration_score>  (2829) 
None

$$$$
P500474
     RDKit          3D

 29 32  0  0  0  0  0  0  0  0999 V2000
   11.6062   12.8941   22.7167 N   0  0  0  0  0  0  0  0  0  0  0  0
   11.8311   13.2250   21.6632 N   0  0  0  0  0  0  0  0  0  0  0  0
   12.0808   13.6210   20.5319 N   0  0  0  0  0  0  0  0  0  0  0  0
   11.8616   15.0162   20.3719 C   0  0  0  0  0  0  0  0  0  0  0  0
   10.4306   15.3800   20.6756 C   0  0  2  0  0  0  0  0  0  0  0  0
    9.8740   16.0395   19.4277 C   0  0  0  0  0  0  0  0  0  0  0  0
    9.0357   17.0577   19.9681 O   0  0  0  0  0  0  0  0  0  0  0  0
    8.8626   16.7277   21.3663 C   0  0  2  0  0  0  0  0  0  0  0  0
   10.3005   16.4446   21.7375 C   0  0  0  0  0  0  0  0  0  0  0  0
    8.1669   15.3588   21.5204 C   0  0  2  0  0  0  0  0  0  0  0  0
    7.6372   15.1087   22.8308 O   0  0  0  0  0  0  0  0  0  0  0  0
    6.9043   13.9693   22.9412 C   0  0  0  0  0  0  0  0  0  0  0  0
    6.5749   13.2502   21.9992 O   0  0  0  0  0  0  0  0  0  0  0  0
    6.5885   13.5494   24.3675 C   0  0  0  0  0  0  0  0  0  0  0  0
    7.4884   12.3175   24.6326 C   0  0  0  0  0  0  0  0  0  0  0  0
    7.9771   12.1220   26.0483 C   0  0  0  0  0  0  0  0  0  0  0  0
    8.3058   13.4075   26.6726 N   0  0  0  0  0  0  0  0  0  0  0  0
    9.6790   14.2438   26.1573 S   0  0  0  0  0  0  0  0  0  0  0  0
    9.6252   14.4067   24.7252 O   0  0  0  0  0  0  0  0  0  0  0  0
    9.7982   15.3966   27.0129 O   0  0  0  0  0  0  0  0  0  0  0  0
   10.9521   13.1276   26.5507 N   0  0  0  0  0  0  0  0  0  0  0  0
   11.9419   13.7499   27.4707 C   0  0  0  0  0  0  0  0  0  0  0  0
   13.2048   12.8962   27.6619 C   0  0  0  0  0  0  0  0  0  0  0  0
   13.8284   12.3533   26.3928 C   0  0  0  0  0  0  0  0  0  0  0  0
   12.7810   11.7626   25.4897 C   0  0  0  0  0  0  0  0  0  0  0  0
   11.5969   12.6789   25.3050 C   0  0  0  0  0  0  0  0  0  0  0  0
    7.0806   14.2425   26.7740 C   0  0  0  0  0  0  0  0  0  0  0  0
    6.6417   14.6934   25.3912 C   0  0  0  0  0  0  0  0  0  0  0  0
    9.3400   14.4220   21.2046 C   0  0  0  0  0  0  0  0  0  0  0  0
  1  2  2  0
  2  3  2  0
  3  4  1  0
  5  4  1  6
  5  6  1  0
  6  7  1  0
  8  7  1  6
  8  9  1  0
  8 10  1  0
 10 11  1  1
 11 12  1  0
 12 13  2  0
 12 14  1  0
 14 15  1  0
 15 16  1  0
 16 17  1  0
 17 18  1  0
 18 19  2  0
 18 20  2  0
 18 21  1  0
 21 22  1  0
 22 23  1  0
 23 24  1  0
 24 25  1  0
 25 26  1  0
 17 27  1  0
 27 28  1  0
 10 29  1  0
  9  5  1  0
 28 14  1  0
 29  5  1  0
 26 21  1  0
M  CHG  2   1  -1   2   1
M  END
>  <energy_score>  (2830) 
-50.493064

>  <inchikey>  (2830) 
None

>  <smiles>  (2830) 
None

>  <ref_pdb>  (2830) 
A4706a

>  <alias>  (2830) 
None

>  <HIPPO Pose ID>  (2830) 
500474

>  <name>  (2830) 
P500474

>  <HIPPO Compound ID>  (2830) 
314795

>  <ref_mols>  (2830) 
A4706a,A0875a

>  <distance_score>  (2830) 
1.89288

>  <inspiration_score>  (2830) 
None

$$$$
P500475
     RDKit          3D

 29 32  0  0  0  0  0  0  0  0999 V2000
   11.8928   14.2882   18.6521 N   0  0  0  0  0  0  0  0  0  0  0  0
   11.0487   15.0321   18.7917 N   0  0  0  0  0  0  0  0  0  0  0  0
   10.1204   15.8122   19.0270 N   0  0  0  0  0  0  0  0  0  0  0  0
   10.0205   16.2822   20.4118 C   0  0  0  0  0  0  0  0  0  0  0  0
    9.2571   15.3286   21.2727 C   0  0  1  0  0  0  0  0  0  0  0  0
    7.9648   14.8224   20.7054 C   0  0  0  0  0  0  0  0  0  0  0  0
    7.7412   13.5675   21.3159 O   0  0  0  0  0  0  0  0  0  0  0  0
    8.7409   13.5237   22.3315 C   0  0  1  0  0  0  0  0  0  0  0  0
    9.9815   14.0816   21.6810 C   0  0  0  0  0  0  0  0  0  0  0  0
    8.3346   14.6041   23.3179 C   0  0  2  0  0  0  0  0  0  0  0  0
    6.9602   14.7192   23.6804 O   0  0  0  0  0  0  0  0  0  0  0  0
    6.3987   13.5613   24.0994 C   0  0  0  0  0  0  0  0  0  0  0  0
    6.5917   12.4639   23.5913 O   0  0  0  0  0  0  0  0  0  0  0  0
    5.5710   13.7237   25.3536 C   0  0  0  0  0  0  0  0  0  0  0  0
    5.9462   12.5581   26.2806 C   0  0  0  0  0  0  0  0  0  0  0  0
    7.3141   12.7486   26.9501 C   0  0  0  0  0  0  0  0  0  0  0  0
    8.0365   13.9102   26.3742 N   0  0  0  0  0  0  0  0  0  0  0  0
    9.7053   14.1000   26.6177 S   0  0  0  0  0  0  0  0  0  0  0  0
    9.9335   14.2368   28.0301 O   0  0  0  0  0  0  0  0  0  0  0  0
   10.2067   15.1156   25.7154 O   0  0  0  0  0  0  0  0  0  0  0  0
   10.3865   12.6270   26.1313 N   0  0  0  0  0  0  0  0  0  0  0  0
    9.9800   12.1252   24.8141 C   0  0  0  0  0  0  0  0  0  0  0  0
   10.2218   10.6394   24.7124 C   0  0  0  0  0  0  0  0  0  0  0  0
   11.5895   10.2677   25.2473 C   0  0  0  0  0  0  0  0  0  0  0  0
   12.5189   11.4742   25.5119 C   0  0  0  0  0  0  0  0  0  0  0  0
   11.8700   12.6346   26.2668 C   0  0  0  0  0  0  0  0  0  0  0  0
    7.2662   15.1671   26.6145 C   0  0  0  0  0  0  0  0  0  0  0  0
    5.8319   15.0386   26.0891 C   0  0  0  0  0  0  0  0  0  0  0  0
    8.8358   15.8559   22.6156 C   0  0  0  0  0  0  0  0  0  0  0  0
  1  2  2  0
  2  3  2  0
  3  4  1  0
  5  4  1  6
  5  6  1  0
  6  7  1  0
  8  7  1  6
  8  9  1  0
  8 10  1  0
 10 11  1  6
 11 12  1  0
 12 13  2  0
 12 14  1  0
 14 15  1  0
 15 16  1  0
 16 17  1  0
 17 18  1  0
 18 19  2  0
 18 20  2  0
 18 21  1  0
 21 22  1  0
 22 23  1  0
 23 24  1  0
 24 25  1  0
 25 26  1  0
 17 27  1  0
 27 28  1  0
 10 29  1  0
  9  5  1  0
 28 14  1  0
 29  5  1  0
 26 21  1  0
M  CHG  2   1  -1   2   1
M  END
>  <energy_score>  (2831) 
-33.195979

>  <inchikey>  (2831) 
None

>  <smiles>  (2831) 
None

>  <ref_pdb>  (2831) 
A4706a

>  <alias>  (2831) 
None

>  <HIPPO Pose ID>  (2831) 
500475

>  <name>  (2831) 
P500475

>  <HIPPO Compound ID>  (2831) 
314795

>  <ref_mols>  (2831) 
A0875a,A4706a

>  <distance_score>  (2831) 
1.917532

>  <inspiration_score>  (2831) 
None

$$$$
P500476
     RDKit          3D

 29 32  0  0  0  0  0  0  0  0999 V2000
   10.0387   11.6448   22.5789 N   0  0  0  0  0  0  0  0  0  0  0  0
   10.8056   12.4910   22.5916 N   0  0  0  0  0  0  0  0  0  0  0  0
   11.6251   13.4238   22.6480 N   0  0  0  0  0  0  0  0  0  0  0  0
   11.6992   14.2214   21.4236 C   0  0  0  0  0  0  0  0  0  0  0  0
   10.4236   14.9708   21.1619 C   0  0  2  0  0  0  0  0  0  0  0  0
   10.3398   15.4812   19.7275 C   0  0  0  0  0  0  0  0  0  0  0  0
    9.4331   16.5931   19.8435 O   0  0  0  0  0  0  0  0  0  0  0  0
    9.0378   16.6559   21.2505 C   0  0  2  0  0  0  0  0  0  0  0  0
   10.3266   16.2533   21.9386 C   0  0  0  0  0  0  0  0  0  0  0  0
    8.0841   15.4846   21.5622 C   0  0  2  0  0  0  0  0  0  0  0  0
    7.3970   15.5466   22.8306 O   0  0  0  0  0  0  0  0  0  0  0  0
    6.6412   14.4467   23.1301 C   0  0  0  0  0  0  0  0  0  0  0  0
    6.5553   13.4458   22.4147 O   0  0  0  0  0  0  0  0  0  0  0  0
    5.8633   14.5517   24.4472 C   0  0  0  0  0  0  0  0  0  0  0  0
    5.7400   13.1477   25.0723 C   0  0  0  0  0  0  0  0  0  0  0  0
    7.0726   12.6676   25.6424 C   0  0  0  0  0  0  0  0  0  0  0  0
    7.7512   13.6984   26.4838 N   0  0  0  0  0  0  0  0  0  0  0  0
    9.3025   14.2288   26.0508 S   0  0  0  0  0  0  0  0  0  0  0  0
    9.3395   14.4481   24.6296 O   0  0  0  0  0  0  0  0  0  0  0  0
    9.6679   15.2976   26.9474 O   0  0  0  0  0  0  0  0  0  0  0  0
   10.3602   12.9311   26.4051 N   0  0  0  0  0  0  0  0  0  0  0  0
   11.7555   13.4513   26.3519 C   0  0  0  0  0  0  0  0  0  0  0  0
   12.8041   12.3707   26.4547 C   0  0  0  0  0  0  0  0  0  0  0  0
   12.6103   11.4134   25.3100 C   0  0  0  0  0  0  0  0  0  0  0  0
   11.2121   10.7860   25.2966 C   0  0  0  0  0  0  0  0  0  0  0  0
   10.0633   11.7091   25.6421 C   0  0  0  0  0  0  0  0  0  0  0  0
    6.8374   14.8371   26.7931 C   0  0  0  0  0  0  0  0  0  0  0  0
    6.4020   15.5323   25.4995 C   0  0  0  0  0  0  0  0  0  0  0  0
    9.0670   14.3293   21.4881 C   0  0  0  0  0  0  0  0  0  0  0  0
  1  2  2  0
  2  3  2  0
  3  4  1  0
  5  4  1  6
  5  6  1  0
  6  7  1  0
  8  7  1  6
  8  9  1  0
  8 10  1  0
 10 11  1  1
 11 12  1  0
 12 13  2  0
 12 14  1  0
 14 15  1  0
 15 16  1  0
 16 17  1  0
 17 18  1  0
 18 19  2  0
 18 20  2  0
 18 21  1  0
 21 22  1  0
 22 23  1  0
 23 24  1  0
 24 25  1  0
 25 26  1  0
 17 27  1  0
 27 28  1  0
 10 29  1  0
  9  5  1  0
 28 14  1  0
 29  5  1  0
 26 21  1  0
M  CHG  2   1  -1   2   1
M  END
>  <energy_score>  (2832) 
-45.298338

>  <inchikey>  (2832) 
None

>  <smiles>  (2832) 
None

>  <ref_pdb>  (2832) 
A4706a

>  <alias>  (2832) 
None

>  <HIPPO Pose ID>  (2832) 
500476

>  <name>  (2832) 
P500476

>  <HIPPO Compound ID>  (2832) 
314795

>  <ref_mols>  (2832) 
A4706a,A0875a

>  <distance_score>  (2832) 
1.83273

>  <inspiration_score>  (2832) 
None

$$$$
P500477
     RDKit          3D

 29 32  0  0  0  0  0  0  0  0999 V2000
   11.6310   14.2271   17.8648 N   0  0  0  0  0  0  0  0  0  0  0  0
   11.4371   14.9071   18.7369 N   0  0  0  0  0  0  0  0  0  0  0  0
   11.2024   15.6201   19.6981 N   0  0  0  0  0  0  0  0  0  0  0  0
    9.8323   16.0743   19.8142 C   0  0  0  0  0  0  0  0  0  0  0  0
    9.3195   15.5262   21.1084 C   0  0  2  0  0  0  0  0  0  0  0  0
    8.2087   16.3116   21.7722 C   0  0  0  0  0  0  0  0  0  0  0  0
    8.1889   15.7542   23.1022 O   0  0  0  0  0  0  0  0  0  0  0  0
    9.2660   14.8018   23.1314 C   0  0  2  0  0  0  0  0  0  0  0  0
   10.3255   15.3812   22.2430 C   0  0  0  0  0  0  0  0  0  0  0  0
    8.7901   13.5717   22.3767 C   0  0  1  0  0  0  0  0  0  0  0  0
    7.4576   13.2304   22.7520 O   0  0  0  0  0  0  0  0  0  0  0  0
    7.4157   12.4557   23.8578 C   0  0  0  0  0  0  0  0  0  0  0  0
    8.2273   11.5679   24.0922 O   0  0  0  0  0  0  0  0  0  0  0  0
    6.1883   12.7654   24.6936 C   0  0  0  0  0  0  0  0  0  0  0  0
    6.3413   12.0183   26.0063 C   0  0  0  0  0  0  0  0  0  0  0  0
    7.5746   12.5210   26.7611 C   0  0  0  0  0  0  0  0  0  0  0  0
    8.1380   13.7550   26.1376 N   0  0  0  0  0  0  0  0  0  0  0  0
    9.5283   14.4101   26.8172 S   0  0  0  0  0  0  0  0  0  0  0  0
    9.9564   15.5410   26.0275 O   0  0  0  0  0  0  0  0  0  0  0  0
    9.2548   14.5700   28.2211 O   0  0  0  0  0  0  0  0  0  0  0  0
   10.7685   13.2244   26.6563 N   0  0  0  0  0  0  0  0  0  0  0  0
   11.1707   12.9893   25.2500 C   0  0  0  0  0  0  0  0  0  0  0  0
   12.3343   12.0283   25.1511 C   0  0  0  0  0  0  0  0  0  0  0  0
   13.5448   12.4032   25.9681 C   0  0  0  0  0  0  0  0  0  0  0  0
   13.1463   12.7793   27.3743 C   0  0  0  0  0  0  0  0  0  0  0  0
   11.9479   13.7232   27.4393 C   0  0  0  0  0  0  0  0  0  0  0  0
    7.0533   14.7715   25.9884 C   0  0  0  0  0  0  0  0  0  0  0  0
    6.0242   14.2593   24.9857 C   0  0  0  0  0  0  0  0  0  0  0  0
    8.7953   14.1085   20.9645 C   0  0  0  0  0  0  0  0  0  0  0  0
  1  2  2  0
  2  3  2  0
  3  4  1  0
  5  4  1  6
  5  6  1  0
  6  7  1  0
  8  7  1  6
  8  9  1  0
  8 10  1  0
 10 11  1  1
 11 12  1  0
 12 13  2  0
 12 14  1  0
 14 15  1  0
 15 16  1  0
 16 17  1  0
 17 18  1  0
 18 19  2  0
 18 20  2  0
 18 21  1  0
 21 22  1  0
 22 23  1  0
 23 24  1  0
 24 25  1  0
 25 26  1  0
 17 27  1  0
 27 28  1  0
 10 29  1  0
  9  5  1  0
 28 14  1  0
 29  5  1  0
 26 21  1  0
M  CHG  2   1  -1   2   1
M  END
>  <energy_score>  (2833) 
-75.647129

>  <inchikey>  (2833) 
None

>  <smiles>  (2833) 
None

>  <ref_pdb>  (2833) 
A4706a

>  <alias>  (2833) 
None

>  <HIPPO Pose ID>  (2833) 
500477

>  <name>  (2833) 
P500477

>  <HIPPO Compound ID>  (2833) 
314795

>  <ref_mols>  (2833) 
A0875a,A4706a

>  <distance_score>  (2833) 
1.808081

>  <inspiration_score>  (2833) 
None

$$$$
P500478
     RDKit          3D

 29 32  0  0  0  0  0  0  0  0999 V2000
   20.0246   11.4891   30.1505 C   0  0  0  0  0  0  0  0  0  0  0  0
   19.0226   10.6850   29.3314 C   0  0  0  0  0  0  0  0  0  0  0  0
   19.7215    9.6738   28.4300 C   0  0  0  0  0  0  0  0  0  0  0  0
   18.2348   11.5876   28.4905 O   0  0  0  0  0  0  0  0  0  0  0  0
   17.0179   11.6344   29.2017 C   0  0  2  0  0  0  0  0  0  0  0  0
   16.8710   10.2111   29.6260 C   0  0  2  0  0  0  0  0  0  0  0  0
   15.5460   10.3006   30.3267 C   0  0  0  0  0  0  0  0  0  0  0  0
   14.7408   11.1035   29.4035 O   0  0  0  0  0  0  0  0  0  0  0  0
   15.6638   11.9122   28.5979 C   0  0  2  0  0  0  0  0  0  0  0  0
   15.5357   11.5847   27.1100 C   0  0  0  0  0  0  0  0  0  0  0  0
   14.2975   12.1506   26.6312 O   0  0  0  0  0  0  0  0  0  0  0  0
   13.4514   11.3758   25.9034 C   0  0  0  0  0  0  0  0  0  0  0  0
   13.6423   10.2222   25.5532 O   0  0  0  0  0  0  0  0  0  0  0  0
   12.1757   12.1296   25.6714 C   0  0  0  0  0  0  0  0  0  0  0  0
   12.4695   13.2551   24.6942 C   0  0  0  0  0  0  0  0  0  0  0  0
   11.3230   14.2337   24.7321 C   0  0  0  0  0  0  0  0  0  0  0  0
   10.0854   13.4715   24.9672 N   0  0  0  0  0  0  0  0  0  0  0  0
    8.7443   14.3918   25.1797 S   0  0  0  0  0  0  0  0  0  0  0  0
    8.0563   14.4310   23.9177 O   0  0  0  0  0  0  0  0  0  0  0  0
    9.1949   15.5965   25.8349 O   0  0  0  0  0  0  0  0  0  0  0  0
    7.8432   13.6060   26.3640 N   0  0  0  0  0  0  0  0  0  0  0  0
    7.3774   12.2283   26.2104 C   0  0  0  0  0  0  0  0  0  0  0  0
    6.3093   12.1392   25.1481 C   0  0  0  0  0  0  0  0  0  0  0  0
    5.3663   13.3376   25.1536 C   0  0  0  0  0  0  0  0  0  0  0  0
    5.3691   14.0370   26.5043 C   0  0  0  0  0  0  0  0  0  0  0  0
    6.7653   14.4769   26.9400 C   0  0  0  0  0  0  0  0  0  0  0  0
   10.0704   12.1875   24.2597 C   0  0  0  0  0  0  0  0  0  0  0  0
   10.9307   11.3287   25.1857 C   0  0  0  0  0  0  0  0  0  0  0  0
   18.1178    9.9891   30.2461 O   0  0  0  0  0  0  0  0  0  0  0  0
  1  2  1  0
  2  3  1  0
  2  4  1  0
  5  4  1  6
  5  6  1  0
  6  7  1  1
  7  8  1  0
  8  9  1  0
  9 10  1  6
 10 11  1  0
 11 12  1  0
 12 13  2  0
 12 14  1  0
 14 15  1  0
 15 16  1  0
 16 17  1  0
 17 18  1  0
 18 19  2  0
 18 20  2  0
 18 21  1  0
 21 22  1  0
 22 23  1  0
 23 24  1  0
 24 25  1  0
 25 26  1  0
 17 27  1  0
 27 28  1  0
  6 29  1  0
 29  2  1  0
  9  5  1  0
 28 14  1  0
 26 21  1  0
M  END
>  <energy_score>  (2834) 
-55.271986

>  <inchikey>  (2834) 
None

>  <smiles>  (2834) 
None

>  <ref_pdb>  (2834) 
A4706a

>  <alias>  (2834) 
None

>  <HIPPO Pose ID>  (2834) 
500478

>  <name>  (2834) 
P500478

>  <HIPPO Compound ID>  (2834) 
314796

>  <ref_mols>  (2834) 
A4706a,A0875a

>  <distance_score>  (2834) 
1.813966

>  <inspiration_score>  (2834) 
None

$$$$
P500479
     RDKit          3D

 29 32  0  0  0  0  0  0  0  0999 V2000
   18.3485    7.6224   31.6076 C   0  0  0  0  0  0  0  0  0  0  0  0
   17.3618    8.7603   31.8548 C   0  0  0  0  0  0  0  0  0  0  0  0
   16.4101    8.4173   32.9922 C   0  0  0  0  0  0  0  0  0  0  0  0
   16.5988    8.9978   30.6637 O   0  0  0  0  0  0  0  0  0  0  0  0
   17.2700   10.0803   30.0078 C   0  0  1  0  0  0  0  0  0  0  0  0
   16.2797   11.0164   29.3351 C   0  0  2  0  0  0  0  0  0  0  0  0
   16.8255   11.6097   28.0355 C   0  0  0  0  0  0  0  0  0  0  0  0
   15.7851   12.3724   27.3914 O   0  0  0  0  0  0  0  0  0  0  0  0
   14.9461   11.6659   26.5910 C   0  0  0  0  0  0  0  0  0  0  0  0
   15.0680   10.4929   26.2733 O   0  0  0  0  0  0  0  0  0  0  0  0
   13.8022   12.5400   26.1478 C   0  0  0  0  0  0  0  0  0  0  0  0
   12.9521   12.9427   27.3332 C   0  0  0  0  0  0  0  0  0  0  0  0
   11.6775   13.6948   26.9595 C   0  0  0  0  0  0  0  0  0  0  0  0
   10.9489   13.0977   25.8053 N   0  0  0  0  0  0  0  0  0  0  0  0
    9.5975   14.0513   25.3614 S   0  0  0  0  0  0  0  0  0  0  0  0
    9.2533   13.7900   23.9874 O   0  0  0  0  0  0  0  0  0  0  0  0
    9.8459   15.3912   25.8294 O   0  0  0  0  0  0  0  0  0  0  0  0
    8.4372   13.3653   26.3758 N   0  0  0  0  0  0  0  0  0  0  0  0
    8.0143   11.9791   26.0825 C   0  0  0  0  0  0  0  0  0  0  0  0
    7.0068   11.9250   24.9520 C   0  0  0  0  0  0  0  0  0  0  0  0
    5.8515   12.8985   25.1437 C   0  0  0  0  0  0  0  0  0  0  0  0
    6.3176   14.2988   25.5187 C   0  0  0  0  0  0  0  0  0  0  0  0
    7.2793   14.2417   26.6947 C   0  0  0  0  0  0  0  0  0  0  0  0
   11.8198   12.7741   24.6596 C   0  0  0  0  0  0  0  0  0  0  0  0
   12.9089   11.8304   25.1528 C   0  0  0  0  0  0  0  0  0  0  0  0
   16.0156   12.1111   30.2508 O   0  0  0  0  0  0  0  0  0  0  0  0
   16.6961   11.8289   31.4825 C   0  0  0  0  0  0  0  0  0  0  0  0
   17.8301   10.8762   31.1473 C   0  0  1  0  0  0  0  0  0  0  0  0
   18.1019    9.9456   32.1870 O   0  0  0  0  0  0  0  0  0  0  0  0
  1  2  1  0
  2  3  1  0
  2  4  1  0
  5  4  1  1
  5  6  1  0
  6  7  1  6
  7  8  1  0
  8  9  1  0
  9 10  2  0
  9 11  1  0
 11 12  1  0
 12 13  1  0
 13 14  1  0
 14 15  1  0
 15 16  2  0
 15 17  2  0
 15 18  1  0
 18 19  1  0
 19 20  1  0
 20 21  1  0
 21 22  1  0
 22 23  1  0
 14 24  1  0
 24 25  1  0
  6 26  1  0
 26 27  1  0
 28 27  1  1
 28 29  1  0
 29  2  1  0
 28  5  1  0
 25 11  1  0
 23 18  1  0
M  END
>  <energy_score>  (2835) 
-72.902007

>  <inchikey>  (2835) 
None

>  <smiles>  (2835) 
None

>  <ref_pdb>  (2835) 
A4706a

>  <alias>  (2835) 
None

>  <HIPPO Pose ID>  (2835) 
500479

>  <name>  (2835) 
P500479

>  <HIPPO Compound ID>  (2835) 
314796

>  <ref_mols>  (2835) 
A4706a,A0875a

>  <distance_score>  (2835) 
1.965624

>  <inspiration_score>  (2835) 
None

$$$$
P500480
     RDKit          3D

 29 32  0  0  0  0  0  0  0  0999 V2000
   17.1268    9.2397   31.6364 C   0  0  0  0  0  0  0  0  0  0  0  0
   15.9592   10.2167   31.5740 C   0  0  0  0  0  0  0  0  0  0  0  0
   14.8157    9.7787   32.4817 C   0  0  0  0  0  0  0  0  0  0  0  0
   15.4560   10.2951   30.2032 O   0  0  0  0  0  0  0  0  0  0  0  0
   16.0026   11.5233   29.7753 C   0  0  2  0  0  0  0  0  0  0  0  0
   15.8327   12.3624   30.9988 C   0  0  2  0  0  0  0  0  0  0  0  0
   16.3886   13.6586   30.4832 C   0  0  0  0  0  0  0  0  0  0  0  0
   15.8063   13.7648   29.1418 O   0  0  0  0  0  0  0  0  0  0  0  0
   15.4030   12.4165   28.7167 C   0  0  2  0  0  0  0  0  0  0  0  0
   13.8779   12.3749   28.6420 C   0  0  0  0  0  0  0  0  0  0  0  0
   13.3570   12.7706   27.3514 O   0  0  0  0  0  0  0  0  0  0  0  0
   13.4974   11.8443   26.3816 C   0  0  0  0  0  0  0  0  0  0  0  0
   14.1540   10.8149   26.4882 O   0  0  0  0  0  0  0  0  0  0  0  0
   12.6897   12.0841   25.1407 C   0  0  0  0  0  0  0  0  0  0  0  0
   12.6044   13.5172   24.6855 C   0  0  0  0  0  0  0  0  0  0  0  0
   11.4547   14.2642   25.3209 C   0  0  0  0  0  0  0  0  0  0  0  0
   10.2069   13.4862   25.2393 N   0  0  0  0  0  0  0  0  0  0  0  0
    8.8334   14.3917   25.3165 S   0  0  0  0  0  0  0  0  0  0  0  0
    8.2473   14.3873   24.0024 O   0  0  0  0  0  0  0  0  0  0  0  0
    9.1923   15.6192   25.9856 O   0  0  0  0  0  0  0  0  0  0  0  0
    7.8646   13.5892   26.4330 N   0  0  0  0  0  0  0  0  0  0  0  0
    7.4963   12.1832   26.2709 C   0  0  0  0  0  0  0  0  0  0  0  0
    6.5339   12.0139   25.1183 C   0  0  0  0  0  0  0  0  0  0  0  0
    5.5274   13.1591   25.0222 C   0  0  0  0  0  0  0  0  0  0  0  0
    5.3745   13.8838   26.3513 C   0  0  0  0  0  0  0  0  0  0  0  0
    6.7007   14.4142   26.8889 C   0  0  0  0  0  0  0  0  0  0  0  0
   10.2822   12.2683   24.4262 C   0  0  0  0  0  0  0  0  0  0  0  0
   11.2960   11.4659   25.2209 C   0  0  0  0  0  0  0  0  0  0  0  0
   16.4318   11.5419   31.9765 O   0  0  0  0  0  0  0  0  0  0  0  0
  1  2  1  0
  2  3  1  0
  2  4  1  0
  5  4  1  1
  5  6  1  0
  6  7  1  6
  7  8  1  0
  8  9  1  0
  9 10  1  1
 10 11  1  0
 11 12  1  0
 12 13  2  0
 12 14  1  0
 14 15  1  0
 15 16  1  0
 16 17  1  0
 17 18  1  0
 18 19  2  0
 18 20  2  0
 18 21  1  0
 21 22  1  0
 22 23  1  0
 23 24  1  0
 24 25  1  0
 25 26  1  0
 17 27  1  0
 27 28  1  0
  6 29  1  0
 29  2  1  0
  9  5  1  0
 28 14  1  0
 26 21  1  0
M  END
>  <energy_score>  (2836) 
-50.375201

>  <inchikey>  (2836) 
None

>  <smiles>  (2836) 
None

>  <ref_pdb>  (2836) 
A4706a

>  <alias>  (2836) 
None

>  <HIPPO Pose ID>  (2836) 
500480

>  <name>  (2836) 
P500480

>  <HIPPO Compound ID>  (2836) 
314796

>  <ref_mols>  (2836) 
A4706a,A0875a

>  <distance_score>  (2836) 
1.99208

>  <inspiration_score>  (2836) 
None

$$$$
P500481
     RDKit          3D

 29 31  0  0  0  0  0  0  0  0999 V2000
   14.7423   13.4403   31.4011 C   0  0  0  0  0  0  0  0  0  0  0  0
   15.1224   12.3913   30.5099 O   0  0  0  0  0  0  0  0  0  0  0  0
   15.1391   12.7517   29.1992 C   0  0  0  0  0  0  0  0  0  0  0  0
   14.9094   13.8769   28.7657 O   0  0  0  0  0  0  0  0  0  0  0  0
   15.5128   11.5567   28.3077 C   0  0  1  0  0  0  0  0  0  0  0  0
   15.0585   11.7088   26.9280 O   0  0  0  0  0  0  0  0  0  0  0  0
   13.7000   11.8158   26.8451 C   0  0  0  0  0  0  0  0  0  0  0  0
   12.9918   11.8534   27.8393 O   0  0  0  0  0  0  0  0  0  0  0  0
   13.1079   11.8393   25.4331 C   0  0  0  0  0  0  0  0  0  0  0  0
   12.9462   13.2835   25.0355 C   0  0  0  0  0  0  0  0  0  0  0  0
   11.7138   13.9058   25.7063 C   0  0  0  0  0  0  0  0  0  0  0  0
   10.5074   13.2886   25.1194 N   0  0  0  0  0  0  0  0  0  0  0  0
    9.2483   14.2430   24.6265 S   0  0  0  0  0  0  0  0  0  0  0  0
    8.0861   13.3993   24.5122 O   0  0  0  0  0  0  0  0  0  0  0  0
    9.2500   15.4119   25.4654 O   0  0  0  0  0  0  0  0  0  0  0  0
    9.7334   14.6065   23.0724 N   0  0  0  0  0  0  0  0  0  0  0  0
   10.9691   15.3665   22.8277 C   0  0  0  0  0  0  0  0  0  0  0  0
   11.4994   15.0636   21.4414 C   0  0  0  0  0  0  0  0  0  0  0  0
   10.4465   15.3936   20.4005 C   0  0  0  0  0  0  0  0  0  0  0  0
    9.1481   14.6931   20.7486 C   0  0  0  0  0  0  0  0  0  0  0  0
    8.6667   15.0366   22.1438 C   0  0  0  0  0  0  0  0  0  0  0  0
   10.6805   11.9875   24.4651 C   0  0  0  0  0  0  0  0  0  0  0  0
   11.6890   11.2469   25.3446 C   0  0  0  0  0  0  0  0  0  0  0  0
   17.0351   11.2943   28.4309 C   0  0  2  0  0  0  0  0  0  0  0  0
   17.8958   12.5335   28.1485 C   0  0  0  0  0  0  0  0  0  0  0  0
   19.3953   12.2226   28.1167 C   0  0  0  0  0  0  0  0  0  0  0  0
   19.7057   10.7464   28.3399 C   0  0  0  0  0  0  0  0  0  0  0  0
   18.9229    9.9047   27.4405 N   0  0  0  0  0  0  0  0  0  0  0  0
   17.4779   10.0927   27.5812 C   0  0  0  0  0  0  0  0  0  0  0  0
  1  2  1  0
  2  3  1  0
  3  4  2  0
  3  5  1  0
  5  6  1  6
  6  7  1  0
  7  8  2  0
  7  9  1  0
  9 10  1  0
 10 11  1  0
 11 12  1  0
 12 13  1  0
 13 14  2  0
 13 15  2  0
 13 16  1  0
 16 17  1  0
 17 18  1  0
 18 19  1  0
 19 20  1  0
 20 21  1  0
 12 22  1  0
 22 23  1  0
  5 24  1  0
 24 25  1  6
 25 26  1  0
 26 27  1  0
 27 28  1  0
 28 29  1  0
 23  9  1  0
 29 24  1  0
 21 16  1  0
M  END
>  <energy_score>  (2837) 
-59.314295

>  <inchikey>  (2837) 
None

>  <smiles>  (2837) 
None

>  <ref_pdb>  (2837) 
A4706a

>  <alias>  (2837) 
None

>  <HIPPO Pose ID>  (2837) 
500481

>  <name>  (2837) 
P500481

>  <HIPPO Compound ID>  (2837) 
314797

>  <ref_mols>  (2837) 
A4706a,A0875a

>  <distance_score>  (2837) 
1.86972

>  <inspiration_score>  (2837) 
None

$$$$
P500482
     RDKit          3D

 29 32  0  0  0  0  0  0  0  0999 V2000
    5.8391   13.6059   22.3059 O   0  0  0  0  0  0  0  0  0  0  0  0
    6.8845   13.8081   22.9069 C   0  0  0  0  0  0  0  0  0  0  0  0
    8.0363   14.1501   22.2509 O   0  0  0  0  0  0  0  0  0  0  0  0
    9.3448   14.1555   22.8760 C   0  0  1  0  0  0  0  0  0  0  0  0
   10.3026   13.2480   22.1696 C   0  0  0  0  0  0  0  0  0  0  0  0
   11.5856   13.8697   22.3044 O   0  0  0  0  0  0  0  0  0  0  0  0
   11.3194   15.2648   22.0525 C   0  0  1  0  0  0  0  0  0  0  0  0
   11.1201   15.3752   20.5985 C   0  0  0  0  0  0  0  0  0  0  0  0
   11.7388   14.6768   19.5826 C   0  0  0  0  0  0  0  0  0  0  0  0
   11.0276   14.6071   18.4232 N   0  0  0  0  0  0  0  0  0  0  0  0
    9.9662   15.3457   18.5983 C   0  0  0  0  0  0  0  0  0  0  0  0
    8.6057   15.3752   17.6124 Cl  0  0  0  0  0  0  0  0  0  0  0  0
    9.8204   16.2693   19.9765 S   0  0  0  0  0  0  0  0  0  0  0  0
   10.0462   15.4956   22.8520 C   0  0  0  0  0  0  0  0  0  0  0  0
    7.0342   13.5982   24.3826 C   0  0  0  0  0  0  0  0  0  0  0  0
    7.4757   12.1524   24.6409 C   0  0  0  0  0  0  0  0  0  0  0  0
    7.8680   11.9268   26.0852 C   0  0  0  0  0  0  0  0  0  0  0  0
    8.0247   13.2051   26.7654 N   0  0  0  0  0  0  0  0  0  0  0  0
    9.4505   14.0976   26.8167 S   0  0  0  0  0  0  0  0  0  0  0  0
    9.4850   14.6497   28.1470 O   0  0  0  0  0  0  0  0  0  0  0  0
    9.5140   15.0013   25.6997 O   0  0  0  0  0  0  0  0  0  0  0  0
   10.7940   13.0375   26.6839 N   0  0  0  0  0  0  0  0  0  0  0  0
   11.1184   12.4901   25.3512 C   0  0  0  0  0  0  0  0  0  0  0  0
   12.2778   11.4884   25.4367 C   0  0  0  0  0  0  0  0  0  0  0  0
   13.2604   11.7169   26.5627 C   0  0  0  0  0  0  0  0  0  0  0  0
   13.3439   13.1768   26.7372 C   0  0  0  0  0  0  0  0  0  0  0  0
   12.0086   13.7700   27.2159 C   0  0  0  0  0  0  0  0  0  0  0  0
    6.7363   14.0078   26.7938 C   0  0  0  0  0  0  0  0  0  0  0  0
    5.9997   13.9663   25.4236 C   0  0  0  0  0  0  0  0  0  0  0  0
  1  2  2  0
  2  3  1  0
  4  3  1  6
  4  5  1  0
  5  6  1  0
  6  7  1  0
  7  8  1  6
  8  9  2  0
  9 10  1  0
 10 11  2  0
 11 12  1  0
 11 13  1  0
  7 14  1  0
  2 15  1  0
 15 16  1  0
 16 17  1  0
 17 18  1  0
 18 19  1  0
 19 20  2  0
 19 21  2  0
 19 22  1  0
 22 23  1  0
 23 24  1  0
 24 25  1  0
 25 26  1  0
 26 27  1  0
 18 28  1  0
 28 29  1  0
 14  4  1  0
 29 15  1  0
 13  8  1  0
 27 22  1  0
M  END
>  <energy_score>  (2838) 
-58.341892

>  <inchikey>  (2838) 
None

>  <smiles>  (2838) 
None

>  <ref_pdb>  (2838) 
A4706a

>  <alias>  (2838) 
None

>  <HIPPO Pose ID>  (2838) 
500482

>  <name>  (2838) 
P500482

>  <HIPPO Compound ID>  (2838) 
314799

>  <ref_mols>  (2838) 
A4706a,A0875a

>  <distance_score>  (2838) 
1.718254

>  <inspiration_score>  (2838) 
None

$$$$
P500483
     RDKit          3D

 29 31  0  0  0  0  0  0  0  0999 V2000
   11.1541   12.6711   22.3769 N   0  0  0  0  0  0  0  0  0  0  0  0
    9.7723   13.1180   22.3020 C   0  0  0  0  0  0  0  0  0  0  0  0
    9.4764   14.1953   23.3129 C   0  0  1  0  0  0  0  0  0  0  0  0
   10.4675   15.3535   23.3098 C   0  0  0  0  0  0  0  0  0  0  0  0
   10.2957   16.2872   22.2725 O   0  0  0  0  0  0  0  0  0  0  0  0
   10.5928   15.8114   21.0607 C   0  0  0  0  0  0  0  0  0  0  0  0
   11.8322   15.3133   20.7462 C   0  0  0  0  0  0  0  0  0  0  0  0
   12.0101   14.7262   19.5172 C   0  0  0  0  0  0  0  0  0  0  0  0
   11.0066   14.7597   18.5782 C   0  0  0  0  0  0  0  0  0  0  0  0
    9.7933   15.3560   18.8789 C   0  0  0  0  0  0  0  0  0  0  0  0
    9.5784   15.8741   20.1392 C   0  0  0  0  0  0  0  0  0  0  0  0
    8.1055   14.6446   23.3443 O   0  0  0  0  0  0  0  0  0  0  0  0
    7.1763   13.6644   23.2934 C   0  0  0  0  0  0  0  0  0  0  0  0
    6.8220   13.1350   22.2424 O   0  0  0  0  0  0  0  0  0  0  0  0
    6.6527   13.1746   24.6321 C   0  0  0  0  0  0  0  0  0  0  0  0
    7.4252   11.9290   25.1027 C   0  0  0  0  0  0  0  0  0  0  0  0
    8.3017   12.1923   26.3280 C   0  0  0  0  0  0  0  0  0  0  0  0
    8.9130   13.5143   26.1858 N   0  0  0  0  0  0  0  0  0  0  0  0
   10.3926   13.9694   26.8411 S   0  0  0  0  0  0  0  0  0  0  0  0
   10.8841   15.0789   26.0633 O   0  0  0  0  0  0  0  0  0  0  0  0
   10.1605   14.1404   28.2507 O   0  0  0  0  0  0  0  0  0  0  0  0
   11.5530   12.7233   26.6637 N   0  0  0  0  0  0  0  0  0  0  0  0
   12.8148   13.0502   27.4408 C   0  0  0  0  0  0  0  0  0  0  0  0
   14.1256   12.8372   26.6852 C   0  0  0  0  0  0  0  0  0  0  0  0
   14.2052   11.4580   26.1415 C   0  0  0  0  0  0  0  0  0  0  0  0
   13.0037   11.2668   25.2536 C   0  0  0  0  0  0  0  0  0  0  0  0
   11.8625   12.3016   25.2922 C   0  0  0  0  0  0  0  0  0  0  0  0
    7.8973   14.6137   26.3342 C   0  0  0  0  0  0  0  0  0  0  0  0
    6.5586   14.2543   25.7013 C   0  0  0  0  0  0  0  0  0  0  0  0
  1  2  1  0
  3  2  1  6
  3  4  1  0
  4  5  1  0
  5  6  1  0
  6  7  2  0
  7  8  1  0
  8  9  2  0
  9 10  1  0
 10 11  2  0
  3 12  1  0
 12 13  1  0
 13 14  2  0
 13 15  1  0
 15 16  1  0
 16 17  1  0
 17 18  1  0
 18 19  1  0
 19 20  2  0
 19 21  2  0
 19 22  1  0
 22 23  1  0
 23 24  1  0
 24 25  1  0
 25 26  1  0
 26 27  1  0
 18 28  1  0
 28 29  1  0
 11  6  1  0
 29 15  1  0
 27 22  1  0
M  END
>  <energy_score>  (2839) 
-20.20121

>  <inchikey>  (2839) 
None

>  <smiles>  (2839) 
None

>  <ref_pdb>  (2839) 
A4706a

>  <alias>  (2839) 
None

>  <HIPPO Pose ID>  (2839) 
500483

>  <name>  (2839) 
P500483

>  <HIPPO Compound ID>  (2839) 
314801

>  <ref_mols>  (2839) 
A4706a,A0875a

>  <distance_score>  (2839) 
1.819281

>  <inspiration_score>  (2839) 
None

$$$$
P500484
     RDKit          3D

 29 32  0  0  0  0  0  0  0  0999 V2000
   12.0934   14.4534   20.0129 C   0  0  0  0  0  0  0  0  0  0  0  0
   11.3760   15.1670   19.0308 O   0  0  0  0  0  0  0  0  0  0  0  0
   10.1339   15.6249   19.3310 C   0  0  0  0  0  0  0  0  0  0  0  0
    9.4943   16.2136   18.4632 O   0  0  0  0  0  0  0  0  0  0  0  0
    9.5575   15.3713   20.7248 C   0  0  2  0  0  0  0  0  0  0  0  0
    8.6642   16.4967   21.3754 C   0  0  0  0  0  0  0  0  0  0  0  0
    8.8807   15.5507   22.5818 C   0  0  2  0  0  0  0  0  0  0  0  0
   10.3571   15.5550   22.0813 C   0  0  0  0  0  0  0  0  0  0  0  0
    8.3379   14.1796   22.1707 C   0  0  1  0  0  0  0  0  0  0  0  0
    6.8149   14.1282   22.2567 C   0  0  0  0  0  0  0  0  0  0  0  0
    6.5102   13.2741   23.3711 O   0  0  0  0  0  0  0  0  0  0  0  0
    5.4613   13.6665   24.1299 C   0  0  0  0  0  0  0  0  0  0  0  0
    4.5644   14.4148   23.7697 O   0  0  0  0  0  0  0  0  0  0  0  0
    5.5927   13.1404   25.5425 C   0  0  0  0  0  0  0  0  0  0  0  0
    6.3540   11.8110   25.6854 C   0  0  0  0  0  0  0  0  0  0  0  0
    7.8699   11.9319   25.7212 C   0  0  0  0  0  0  0  0  0  0  0  0
    8.3204   13.0061   26.6170 N   0  0  0  0  0  0  0  0  0  0  0  0
    9.6238   13.9439   26.1446 S   0  0  0  0  0  0  0  0  0  0  0  0
    9.5349   14.2230   24.7432 O   0  0  0  0  0  0  0  0  0  0  0  0
    9.7428   15.0193   27.0972 O   0  0  0  0  0  0  0  0  0  0  0  0
   10.9681   12.9099   26.3463 N   0  0  0  0  0  0  0  0  0  0  0  0
   12.0972   13.6643   26.9549 C   0  0  0  0  0  0  0  0  0  0  0  0
   13.4794   13.1090   26.6099 C   0  0  0  0  0  0  0  0  0  0  0  0
   13.4537   11.6367   26.5686 C   0  0  0  0  0  0  0  0  0  0  0  0
   12.5794   11.2620   25.3975 C   0  0  0  0  0  0  0  0  0  0  0  0
   11.3636   12.1641   25.1285 C   0  0  0  0  0  0  0  0  0  0  0  0
    7.2339   13.7179   27.3468 C   0  0  0  0  0  0  0  0  0  0  0  0
    6.2191   14.2656   26.3701 C   0  0  0  0  0  0  0  0  0  0  0  0
    8.8091   14.1313   20.8377 O   0  0  0  0  0  0  0  0  0  0  0  0
  1  2  1  0
  2  3  1  0
  3  4  2  0
  5  3  1  6
  5  6  1  0
  7  6  1  6
  7  8  1  0
  7  9  1  0
  9 10  1  6
 10 11  1  0
 11 12  1  0
 12 13  2  0
 12 14  1  0
 14 15  1  0
 15 16  1  0
 16 17  1  0
 17 18  1  0
 18 19  2  0
 18 20  2  0
 18 21  1  0
 21 22  1  0
 22 23  1  0
 23 24  1  0
 24 25  1  0
 25 26  1  0
 17 27  1  0
 27 28  1  0
  9 29  1  0
  8  5  1  0
 28 14  1  0
 29  5  1  0
 26 21  1  0
M  END
>  <energy_score>  (2840) 
-49.752155

>  <inchikey>  (2840) 
None

>  <smiles>  (2840) 
None

>  <ref_pdb>  (2840) 
A4706a

>  <alias>  (2840) 
None

>  <HIPPO Pose ID>  (2840) 
500484

>  <name>  (2840) 
P500484

>  <HIPPO Compound ID>  (2840) 
314802

>  <ref_mols>  (2840) 
A4706a,A0875a

>  <distance_score>  (2840) 
1.94057

>  <inspiration_score>  (2840) 
None

$$$$
P500485
     RDKit          3D

 29 32  0  0  0  0  0  0  0  0999 V2000
   15.1603   13.0745   26.1236 O   0  0  0  0  0  0  0  0  0  0  0  0
   14.2079   12.3390   26.3238 C   0  0  0  0  0  0  0  0  0  0  0  0
   14.0602   11.6225   27.4672 O   0  0  0  0  0  0  0  0  0  0  0  0
   15.0270   11.9436   28.5168 C   0  0  1  0  0  0  0  0  0  0  0  0
   14.5360   11.4190   29.8689 C   0  0  0  0  0  0  0  0  0  0  0  0
   14.9190   10.0614   30.0750 O   0  0  0  0  0  0  0  0  0  0  0  0
   16.1068    9.9187   30.8707 C   0  0  1  0  0  0  0  0  0  0  0  0
   16.2037    8.4285   31.2797 C   0  0  0  0  0  0  0  0  0  0  0  0
   17.5607    7.9881   31.6062 N   0  0  0  0  0  0  0  0  0  0  0  0
   18.4666    8.1028   30.4593 C   0  0  0  0  0  0  0  0  0  0  0  0
   18.0760    9.1782   29.4401 C   0  0  0  0  0  0  0  0  0  0  0  0
   17.4051   10.3589   30.1460 C   0  0  1  0  0  0  0  0  0  0  0  0
   17.2946   11.5217   29.3195 O   0  0  0  0  0  0  0  0  0  0  0  0
   16.4292   11.4137   28.1948 C   0  0  0  0  0  0  0  0  0  0  0  0
   13.1311   12.1296   25.2634 C   0  0  0  0  0  0  0  0  0  0  0  0
   12.7034   13.4442   24.6364 C   0  0  0  0  0  0  0  0  0  0  0  0
   11.5436   14.1093   25.3538 C   0  0  0  0  0  0  0  0  0  0  0  0
   10.3640   13.2715   25.2096 N   0  0  0  0  0  0  0  0  0  0  0  0
    8.9645   13.9632   24.6476 S   0  0  0  0  0  0  0  0  0  0  0  0
    8.7565   15.1764   25.3970 O   0  0  0  0  0  0  0  0  0  0  0  0
    7.9673   12.9276   24.5983 O   0  0  0  0  0  0  0  0  0  0  0  0
    9.3609   14.4318   23.1095 N   0  0  0  0  0  0  0  0  0  0  0  0
    8.3538   15.2254   22.3724 C   0  0  0  0  0  0  0  0  0  0  0  0
    8.9684   15.7839   21.0856 C   0  0  0  0  0  0  0  0  0  0  0  0
   10.4909   15.8192   21.0526 C   0  0  0  0  0  0  0  0  0  0  0  0
   11.1414   14.5340   21.5414 C   0  0  0  0  0  0  0  0  0  0  0  0
   10.1122   13.6105   22.1769 C   0  0  0  0  0  0  0  0  0  0  0  0
   10.5497   11.8315   25.0989 C   0  0  0  0  0  0  0  0  0  0  0  0
   11.8795   11.4595   25.7369 C   0  0  0  0  0  0  0  0  0  0  0  0
  1  2  2  0
  2  3  1  0
  4  3  1  6
  4  5  1  0
  5  6  1  0
  6  7  1  0
  7  8  1  6
  8  9  1  0
  9 10  1  0
 10 11  1  0
 12 11  1  6
 12 13  1  0
 13 14  1  0
  2 15  1  0
 15 16  1  0
 16 17  1  0
 17 18  1  0
 18 19  1  0
 19 20  2  0
 19 21  2  0
 19 22  1  0
 22 23  1  0
 23 24  1  0
 24 25  1  0
 25 26  1  0
 26 27  1  0
 18 28  1  0
 28 29  1  0
 14  4  1  0
 29 15  1  0
 12  7  1  0
 27 22  1  0
M  END
>  <energy_score>  (2841) 
-91.295943

>  <inchikey>  (2841) 
None

>  <smiles>  (2841) 
None

>  <ref_pdb>  (2841) 
A4706a

>  <alias>  (2841) 
None

>  <HIPPO Pose ID>  (2841) 
500485

>  <name>  (2841) 
P500485

>  <HIPPO Compound ID>  (2841) 
314804

>  <ref_mols>  (2841) 
A4706a,A0875a

>  <distance_score>  (2841) 
1.955342

>  <inspiration_score>  (2841) 
None

$$$$
P500486
     RDKit          3D

 29 31  0  0  0  0  0  0  0  0999 V2000
    7.9678   19.4499   19.6586 C   0  0  0  0  0  0  0  0  0  0  0  0
    8.4242   18.1285   19.8023 O   0  0  0  0  0  0  0  0  0  0  0  0
    8.5777   17.7549   21.1695 C   0  0  0  0  0  0  0  0  0  0  0  0
    8.2982   16.2640   21.3716 C   0  0  2  0  0  0  0  0  0  0  0  0
    7.9477   15.8925   22.7209 O   0  0  0  0  0  0  0  0  0  0  0  0
    7.2751   14.7082   22.8560 C   0  0  0  0  0  0  0  0  0  0  0  0
    6.4756   14.2084   22.0792 O   0  0  0  0  0  0  0  0  0  0  0  0
    7.7685   14.0414   24.1081 C   0  0  0  0  0  0  0  0  0  0  0  0
    7.6108   12.5325   24.1663 C   0  0  0  0  0  0  0  0  0  0  0  0
    8.5825   11.9402   25.1879 C   0  0  0  0  0  0  0  0  0  0  0  0
    8.9409   12.9071   26.2535 N   0  0  0  0  0  0  0  0  0  0  0  0
   10.4253   13.7352   26.2417 S   0  0  0  0  0  0  0  0  0  0  0  0
   10.3927   14.5807   27.4081 O   0  0  0  0  0  0  0  0  0  0  0  0
   10.6955   14.3090   24.9484 O   0  0  0  0  0  0  0  0  0  0  0  0
   11.6170   12.5471   26.4925 N   0  0  0  0  0  0  0  0  0  0  0  0
   11.8756   11.6059   25.3942 C   0  0  0  0  0  0  0  0  0  0  0  0
   13.2844   11.0093   25.2756 C   0  0  0  0  0  0  0  0  0  0  0  0
   14.3605   11.4108   26.2341 C   0  0  0  0  0  0  0  0  0  0  0  0
   14.1147   12.8454   26.5422 C   0  0  0  0  0  0  0  0  0  0  0  0
   12.7960   12.9914   27.2757 C   0  0  0  0  0  0  0  0  0  0  0  0
    7.7515   13.7706   26.5996 C   0  0  0  0  0  0  0  0  0  0  0  0
    7.3697   14.6809   25.4271 C   0  0  0  0  0  0  0  0  0  0  0  0
    9.5563   15.5734   20.9189 C   0  0  0  0  0  0  0  0  0  0  0  0
    9.8801   15.4236   19.5657 C   0  0  0  0  0  0  0  0  0  0  0  0
   11.0625   14.8275   19.1931 C   0  0  0  0  0  0  0  0  0  0  0  0
   11.8686   14.3032   20.1884 C   0  0  0  0  0  0  0  0  0  0  0  0
   11.5563   14.4404   21.5393 C   0  0  0  0  0  0  0  0  0  0  0  0
   12.0860   13.5897   22.5286 N   0  0  0  0  0  0  0  0  0  0  0  0
   10.4568   15.1750   21.8857 C   0  0  0  0  0  0  0  0  0  0  0  0
  1  2  1  0
  2  3  1  0
  4  3  1  1
  4  5  1  0
  5  6  1  0
  6  7  2  0
  6  8  1  0
  8  9  1  0
  9 10  1  0
 10 11  1  0
 11 12  1  0
 12 13  2  0
 12 14  2  0
 12 15  1  0
 15 16  1  0
 16 17  1  0
 17 18  1  0
 18 19  1  0
 19 20  1  0
 11 21  1  0
 21 22  1  0
  4 23  1  0
 23 24  2  0
 24 25  1  0
 25 26  2  0
 26 27  1  0
 27 28  1  0
 27 29  2  0
 22  8  1  0
 29 23  1  0
 20 15  1  0
M  END
>  <energy_score>  (2842) 
-17.557391

>  <inchikey>  (2842) 
None

>  <smiles>  (2842) 
None

>  <ref_pdb>  (2842) 
A4706a

>  <alias>  (2842) 
None

>  <HIPPO Pose ID>  (2842) 
500486

>  <name>  (2842) 
P500486

>  <HIPPO Compound ID>  (2842) 
314806

>  <ref_mols>  (2842) 
A4706a,A0875a

>  <distance_score>  (2842) 
1.569769

>  <inspiration_score>  (2842) 
None

$$$$
P500487
     RDKit          3D

 29 31  0  0  0  0  0  0  0  0999 V2000
    8.0568   19.2243   19.6939 C   0  0  0  0  0  0  0  0  0  0  0  0
    8.8173   18.1377   20.1935 O   0  0  0  0  0  0  0  0  0  0  0  0
    8.1073   17.5135   21.2453 C   0  0  0  0  0  0  0  0  0  0  0  0
    8.6529   16.2283   21.8167 C   0  0  1  0  0  0  0  0  0  0  0  0
    7.6827   15.7198   22.8061 O   0  0  0  0  0  0  0  0  0  0  0  0
    7.1006   14.5098   22.8603 C   0  0  0  0  0  0  0  0  0  0  0  0
    7.1812   13.6232   22.0171 O   0  0  0  0  0  0  0  0  0  0  0  0
    6.2484   14.3405   24.1393 C   0  0  0  0  0  0  0  0  0  0  0  0
    6.2622   12.8725   24.5908 C   0  0  0  0  0  0  0  0  0  0  0  0
    7.6260   12.4642   25.1424 C   0  0  0  0  0  0  0  0  0  0  0  0
    8.1177   13.4141   26.1708 N   0  0  0  0  0  0  0  0  0  0  0  0
    9.6323   14.1335   25.9724 S   0  0  0  0  0  0  0  0  0  0  0  0
    9.7267   14.6817   24.6491 O   0  0  0  0  0  0  0  0  0  0  0  0
    9.8142   14.9935   27.1165 O   0  0  0  0  0  0  0  0  0  0  0  0
   10.7669   12.9074   26.1139 N   0  0  0  0  0  0  0  0  0  0  0  0
   12.1173   13.3933   26.5407 C   0  0  0  0  0  0  0  0  0  0  0  0
   13.2207   13.0929   25.5171 C   0  0  0  0  0  0  0  0  0  0  0  0
   13.3709   11.6298   25.1999 C   0  0  0  0  0  0  0  0  0  0  0  0
   12.0520   10.9715   25.4291 C   0  0  0  0  0  0  0  0  0  0  0  0
   10.7848   11.7754   25.1732 C   0  0  0  0  0  0  0  0  0  0  0  0
    7.0694   14.4071   26.5669 C   0  0  0  0  0  0  0  0  0  0  0  0
    6.6138   15.2213   25.3495 C   0  0  0  0  0  0  0  0  0  0  0  0
    9.4532   15.3120   20.9421 C   0  0  0  0  0  0  0  0  0  0  0  0
    9.8595   15.5719   19.6338 C   0  0  0  0  0  0  0  0  0  0  0  0
   11.0347   15.0381   19.1380 C   0  0  0  0  0  0  0  0  0  0  0  0
   11.8407   14.3207   20.0001 C   0  0  0  0  0  0  0  0  0  0  0  0
   11.4157   14.0266   21.2873 C   0  0  0  0  0  0  0  0  0  0  0  0
   12.0519   13.1085   22.1221 N   0  0  0  0  0  0  0  0  0  0  0  0
   10.1588   14.3891   21.6681 C   0  0  0  0  0  0  0  0  0  0  0  0
  1  2  1  0
  2  3  1  0
  4  3  1  6
  4  5  1  0
  5  6  1  0
  6  7  2  0
  6  8  1  0
  8  9  1  0
  9 10  1  0
 10 11  1  0
 11 12  1  0
 12 13  2  0
 12 14  2  0
 12 15  1  0
 15 16  1  0
 16 17  1  0
 17 18  1  0
 18 19  1  0
 19 20  1  0
 11 21  1  0
 21 22  1  0
  4 23  1  0
 23 24  2  0
 24 25  1  0
 25 26  2  0
 26 27  1  0
 27 28  1  0
 27 29  2  0
 22  8  1  0
 29 23  1  0
 20 15  1  0
M  END
>  <energy_score>  (2843) 
-3.843583

>  <inchikey>  (2843) 
None

>  <smiles>  (2843) 
None

>  <ref_pdb>  (2843) 
A4706a

>  <alias>  (2843) 
None

>  <HIPPO Pose ID>  (2843) 
500487

>  <name>  (2843) 
P500487

>  <HIPPO Compound ID>  (2843) 
314806

>  <ref_mols>  (2843) 
A4706a,A0875a

>  <distance_score>  (2843) 
1.382398

>  <inspiration_score>  (2843) 
None

$$$$
P500488
     RDKit          3D

 29 30  0  0  0  0  0  0  0  0999 V2000
   20.2061   15.0787   27.0671 C   0  0  0  0  0  0  0  0  0  0  0  0
   19.9543   13.6464   27.4956 C   0  0  0  0  0  0  0  0  0  0  0  0
   18.5881   13.5413   27.9228 O   0  0  0  0  0  0  0  0  0  0  0  0
   18.1172   12.2717   28.0754 C   0  0  0  0  0  0  0  0  0  0  0  0
   18.7482   11.2615   27.8065 O   0  0  0  0  0  0  0  0  0  0  0  0
   16.7183   12.3174   28.7102 C   0  0  1  0  0  0  0  0  0  0  0  0
   15.6110   12.6829   27.8329 O   0  0  0  0  0  0  0  0  0  0  0  0
   15.0593   11.8798   26.8821 C   0  0  0  0  0  0  0  0  0  0  0  0
   15.4633   10.7756   26.5671 O   0  0  0  0  0  0  0  0  0  0  0  0
   13.8380   12.5725   26.2534 C   0  0  0  0  0  0  0  0  0  0  0  0
   12.9099   13.0556   27.3529 C   0  0  0  0  0  0  0  0  0  0  0  0
   11.4759   13.3813   26.9521 C   0  0  0  0  0  0  0  0  0  0  0  0
   11.2689   13.5135   25.5183 N   0  0  0  0  0  0  0  0  0  0  0  0
    9.8514   14.2925   25.0574 S   0  0  0  0  0  0  0  0  0  0  0  0
    9.7325   14.2875   23.6228 O   0  0  0  0  0  0  0  0  0  0  0  0
    9.8564   15.5178   25.8187 O   0  0  0  0  0  0  0  0  0  0  0  0
    8.5954   13.3528   25.7135 N   0  0  0  0  0  0  0  0  0  0  0  0
    8.2469   12.0928   25.0099 C   0  0  0  0  0  0  0  0  0  0  0  0
    7.3012   11.2802   25.8939 C   0  0  0  0  0  0  0  0  0  0  0  0
    6.0439   12.0581   26.2672 C   0  0  0  0  0  0  0  0  0  0  0  0
    6.4004   13.4164   26.8532 C   0  0  0  0  0  0  0  0  0  0  0  0
    7.3519   14.1728   25.9347 C   0  0  0  0  0  0  0  0  0  0  0  0
   11.8734   12.5384   24.6246 C   0  0  0  0  0  0  0  0  0  0  0  0
   13.0045   11.7333   25.2955 C   0  0  0  0  0  0  0  0  0  0  0  0
   16.4692   11.1824   29.7584 C   0  0  0  0  0  0  0  0  0  0  0  0
   17.2655   11.4957   31.0505 C   0  0  0  0  0  0  0  0  0  0  0  0
   16.8909    9.7737   29.3134 C   0  0  0  0  0  0  0  0  0  0  0  0
   15.0347   11.1858   30.1119 C   0  0  0  0  0  0  0  0  0  0  0  0
   13.9038   11.2437   30.3633 N   0  0  0  0  0  0  0  0  0  0  0  0
  1  2  1  0
  2  3  1  0
  3  4  1  0
  4  5  2  0
  4  6  1  0
  6  7  1  6
  7  8  1  0
  8  9  2  0
  8 10  1  0
 10 11  1  0
 11 12  1  0
 12 13  1  0
 13 14  1  0
 14 15  2  0
 14 16  2  0
 14 17  1  0
 17 18  1  0
 18 19  1  0
 19 20  1  0
 20 21  1  0
 21 22  1  0
 13 23  1  0
 23 24  1  0
  6 25  1  0
 25 26  1  0
 25 27  1  0
 25 28  1  0
 28 29  3  0
 24 10  1  0
 22 17  1  0
M  END
>  <energy_score>  (2844) 
-72.699922

>  <inchikey>  (2844) 
None

>  <smiles>  (2844) 
None

>  <ref_pdb>  (2844) 
A4706a

>  <alias>  (2844) 
None

>  <HIPPO Pose ID>  (2844) 
500488

>  <name>  (2844) 
P500488

>  <HIPPO Compound ID>  (2844) 
314812

>  <ref_mols>  (2844) 
A4706a,A0875a

>  <distance_score>  (2844) 
1.777214

>  <inspiration_score>  (2844) 
None

$$$$
P500489
     RDKit          3D

 29 31  0  0  0  0  0  0  0  0999 V2000
   10.5078   14.9055   19.0400 C   0  0  0  0  0  0  0  0  0  0  0  0
    9.3512   14.9988   19.8781 O   0  0  0  0  0  0  0  0  0  0  0  0
    9.6844   14.8257   21.2509 C   0  0  0  0  0  0  0  0  0  0  0  0
   10.7480   15.7130   21.5836 O   0  0  0  0  0  0  0  0  0  0  0  0
   11.6920   15.1402   22.4577 C   0  0  0  0  0  0  0  0  0  0  0  0
    8.4639   15.0189   22.2203 C   0  0  2  0  0  0  0  0  0  0  0  0
    7.6324   13.8368   22.3383 O   0  0  0  0  0  0  0  0  0  0  0  0
    8.0661   12.9362   23.2414 C   0  0  0  0  0  0  0  0  0  0  0  0
    9.1647   12.4058   23.1788 O   0  0  0  0  0  0  0  0  0  0  0  0
    6.9806   12.5974   24.2637 C   0  0  0  0  0  0  0  0  0  0  0  0
    7.3744   11.2975   24.9546 C   0  0  0  0  0  0  0  0  0  0  0  0
    8.5585   11.4808   25.8786 C   0  0  0  0  0  0  0  0  0  0  0  0
    8.5543   12.7825   26.5466 N   0  0  0  0  0  0  0  0  0  0  0  0
    9.7761   13.9031   26.2968 S   0  0  0  0  0  0  0  0  0  0  0  0
    9.6954   14.8025   27.4195 O   0  0  0  0  0  0  0  0  0  0  0  0
    9.6989   14.4250   24.9625 O   0  0  0  0  0  0  0  0  0  0  0  0
   11.1874   12.9591   26.4281 N   0  0  0  0  0  0  0  0  0  0  0  0
   12.1336   13.5742   27.3872 C   0  0  0  0  0  0  0  0  0  0  0  0
   13.3941   12.7317   27.5646 C   0  0  0  0  0  0  0  0  0  0  0  0
   14.0312   12.2556   26.2745 C   0  0  0  0  0  0  0  0  0  0  0  0
   12.9905   11.7157   25.3238 C   0  0  0  0  0  0  0  0  0  0  0  0
   11.8525   12.6974   25.1178 C   0  0  0  0  0  0  0  0  0  0  0  0
    7.2016   13.3592   26.6805 C   0  0  0  0  0  0  0  0  0  0  0  0
    6.7065   13.7023   25.2884 C   0  0  0  0  0  0  0  0  0  0  0  0
    7.5121   16.1965   22.0121 C   0  0  0  0  0  0  0  0  0  0  0  0
    8.0892   17.2881   21.2434 C   0  0  0  0  0  0  0  0  0  0  0  0
    8.5580   18.1280   20.5911 N   0  0  0  0  0  0  0  0  0  0  0  0
    6.6374   16.6318   23.2144 C   0  0  0  0  0  0  0  0  0  0  0  0
    5.9847   15.9252   22.1053 C   0  0  0  0  0  0  0  0  0  0  0  0
  1  2  1  0
  2  3  1  0
  3  4  1  0
  4  5  1  0
  3  6  1  0
  6  7  1  6
  7  8  1  0
  8  9  2  0
  8 10  1  0
 10 11  1  0
 11 12  1  0
 12 13  1  0
 13 14  1  0
 14 15  2  0
 14 16  2  0
 14 17  1  0
 17 18  1  0
 18 19  1  0
 19 20  1  0
 20 21  1  0
 21 22  1  0
 13 23  1  0
 23 24  1  0
  6 25  1  0
 25 26  1  0
 26 27  3  0
 25 28  1  0
 28 29  1  0
 24 10  1  0
 29 25  1  0
 22 17  1  0
M  END
>  <energy_score>  (2845) 
-51.644295

>  <inchikey>  (2845) 
None

>  <smiles>  (2845) 
None

>  <ref_pdb>  (2845) 
A4706a

>  <alias>  (2845) 
None

>  <HIPPO Pose ID>  (2845) 
500489

>  <name>  (2845) 
P500489

>  <HIPPO Compound ID>  (2845) 
314813

>  <ref_mols>  (2845) 
A0875a,A4706a

>  <distance_score>  (2845) 
1.639829

>  <inspiration_score>  (2845) 
None

$$$$
P500490
     RDKit          3D

 29 31  0  0  0  0  0  0  0  0999 V2000
   11.1579   14.7418   19.0066 C   0  0  0  0  0  0  0  0  0  0  0  0
   10.5693   15.7873   19.7479 O   0  0  0  0  0  0  0  0  0  0  0  0
   10.2574   15.5045   21.1133 C   0  0  0  0  0  0  0  0  0  0  0  0
   10.8825   14.3391   21.6282 O   0  0  0  0  0  0  0  0  0  0  0  0
   11.8932   14.7021   22.5444 C   0  0  0  0  0  0  0  0  0  0  0  0
    8.7357   15.4647   21.3196 C   0  0  1  0  0  0  0  0  0  0  0  0
    8.4075   14.8523   22.6170 O   0  0  0  0  0  0  0  0  0  0  0  0
    7.3907   13.9574   22.6877 C   0  0  0  0  0  0  0  0  0  0  0  0
    6.9203   13.3668   21.7209 O   0  0  0  0  0  0  0  0  0  0  0  0
    6.8584   13.6645   24.0949 C   0  0  0  0  0  0  0  0  0  0  0  0
    7.4352   12.3021   24.5170 C   0  0  0  0  0  0  0  0  0  0  0  0
    7.7476   12.1386   25.9834 C   0  0  0  0  0  0  0  0  0  0  0  0
    8.3433   13.3601   26.5223 N   0  0  0  0  0  0  0  0  0  0  0  0
    9.8522   13.9140   26.0181 S   0  0  0  0  0  0  0  0  0  0  0  0
   10.2262   14.9250   26.9757 O   0  0  0  0  0  0  0  0  0  0  0  0
    9.8244   14.2396   24.6217 O   0  0  0  0  0  0  0  0  0  0  0  0
   10.8815   12.5863   26.1850 N   0  0  0  0  0  0  0  0  0  0  0  0
   12.2207   12.9172   26.7561 C   0  0  0  0  0  0  0  0  0  0  0  0
   13.3430   12.6352   25.7888 C   0  0  0  0  0  0  0  0  0  0  0  0
   13.3682   11.1654   25.4126 C   0  0  0  0  0  0  0  0  0  0  0  0
   11.9574   10.5672   25.2828 C   0  0  0  0  0  0  0  0  0  0  0  0
   10.9165   11.6456   25.0198 C   0  0  0  0  0  0  0  0  0  0  0  0
    7.3010   14.4214   26.5277 C   0  0  0  0  0  0  0  0  0  0  0  0
    6.9680   14.8289   25.0998 C   0  0  0  0  0  0  0  0  0  0  0  0
    8.0968   16.8715   21.3237 C   0  0  0  0  0  0  0  0  0  0  0  0
    6.8383   16.7820   22.0509 C   0  0  0  0  0  0  0  0  0  0  0  0
    5.8748   16.5232   22.6537 N   0  0  0  0  0  0  0  0  0  0  0  0
    8.2715   17.8411   20.1077 C   0  0  0  0  0  0  0  0  0  0  0  0
    8.8800   18.1898   21.3653 C   0  0  0  0  0  0  0  0  0  0  0  0
  1  2  1  0
  2  3  1  0
  3  4  1  0
  4  5  1  0
  3  6  1  0
  6  7  1  1
  7  8  1  0
  8  9  2  0
  8 10  1  0
 10 11  1  0
 11 12  1  0
 12 13  1  0
 13 14  1  0
 14 15  2  0
 14 16  2  0
 14 17  1  0
 17 18  1  0
 18 19  1  0
 19 20  1  0
 20 21  1  0
 21 22  1  0
 13 23  1  0
 23 24  1  0
  6 25  1  0
 25 26  1  0
 26 27  3  0
 25 28  1  0
 28 29  1  0
 24 10  1  0
 29 25  1  0
 22 17  1  0
M  END
>  <energy_score>  (2846) 
-33.33597

>  <inchikey>  (2846) 
None

>  <smiles>  (2846) 
None

>  <ref_pdb>  (2846) 
A4706a

>  <alias>  (2846) 
None

>  <HIPPO Pose ID>  (2846) 
500490

>  <name>  (2846) 
P500490

>  <HIPPO Compound ID>  (2846) 
314813

>  <ref_mols>  (2846) 
A4706a,A0875a

>  <distance_score>  (2846) 
1.313262

>  <inspiration_score>  (2846) 
None

$$$$
P500491
     RDKit          3D

 29 32  0  0  0  0  0  0  0  0999 V2000
   12.4282   14.6147   19.9326 N   0  0  0  0  0  0  0  0  0  0  0  0
   11.2533   14.9367   20.5896 C   0  0  0  0  0  0  0  0  0  0  0  0
   10.0785   14.8475   19.8814 C   0  0  0  0  0  0  0  0  0  0  0  0
    8.8602   14.8606   20.5566 C   0  0  0  0  0  0  0  0  0  0  0  0
    8.7091   15.0213   21.9313 C   0  0  0  0  0  0  0  0  0  0  0  0
    7.2134   15.0790   22.6369 C   0  0  0  0  0  0  0  0  0  0  0  0
    7.1762   14.5607   23.9848 O   0  0  0  0  0  0  0  0  0  0  0  0
    6.7620   13.2793   24.0270 C   0  0  0  0  0  0  0  0  0  0  0  0
    7.1328   12.4437   23.2127 O   0  0  0  0  0  0  0  0  0  0  0  0
    5.7219   12.9996   25.0964 C   0  0  0  0  0  0  0  0  0  0  0  0
    6.2420   11.8508   25.9585 C   0  0  0  0  0  0  0  0  0  0  0  0
    7.3275   12.3352   26.9162 C   0  0  0  0  0  0  0  0  0  0  0  0
    7.6938   13.7090   26.5569 N   0  0  0  0  0  0  0  0  0  0  0  0
    9.2027   14.3662   26.7431 S   0  0  0  0  0  0  0  0  0  0  0  0
    9.3466   15.4378   25.7904 O   0  0  0  0  0  0  0  0  0  0  0  0
    9.3920   14.6125   28.1477 O   0  0  0  0  0  0  0  0  0  0  0  0
   10.2856   13.1705   26.3087 N   0  0  0  0  0  0  0  0  0  0  0  0
   10.0899   12.5797   24.9787 C   0  0  0  0  0  0  0  0  0  0  0  0
   10.8664   11.2948   24.9791 C   0  0  0  0  0  0  0  0  0  0  0  0
   12.3629   11.6024   25.2042 C   0  0  0  0  0  0  0  0  0  0  0  0
   12.6551   12.4950   26.3933 C   0  0  0  0  0  0  0  0  0  0  0  0
   11.6856   13.6589   26.4514 C   0  0  0  0  0  0  0  0  0  0  0  0
    6.5807   14.6551   26.8081 C   0  0  0  0  0  0  0  0  0  0  0  0
    5.3895   14.2197   25.9610 C   0  0  0  0  0  0  0  0  0  0  0  0
    6.5562   16.4682   22.5448 C   0  0  0  0  0  0  0  0  0  0  0  0
    5.3191   15.9425   22.0105 O   0  0  0  0  0  0  0  0  0  0  0  0
    5.9240   14.6528   21.8341 C   0  0  0  0  0  0  0  0  0  0  0  0
    9.9303   15.1985   22.5992 C   0  0  0  0  0  0  0  0  0  0  0  0
   11.1805   15.0977   21.9651 C   0  0  0  0  0  0  0  0  0  0  0  0
  1  2  1  0
  2  3  2  0
  3  4  1  0
  4  5  2  0
  5  6  1  0
  6  7  1  0
  7  8  1  0
  8  9  2  0
  8 10  1  0
 10 11  1  0
 11 12  1  0
 12 13  1  0
 13 14  1  0
 14 15  2  0
 14 16  2  0
 14 17  1  0
 17 18  1  0
 18 19  1  0
 19 20  1  0
 20 21  1  0
 21 22  1  0
 13 23  1  0
 23 24  1  0
  6 25  1  0
 25 26  1  0
 26 27  1  0
  5 28  1  0
 28 29  2  0
 29  2  1  0
 27  6  1  0
 24 10  1  0
 22 17  1  0
M  END
>  <energy_score>  (2847) 
-86.579219

>  <inchikey>  (2847) 
None

>  <smiles>  (2847) 
None

>  <ref_pdb>  (2847) 
A4706a

>  <alias>  (2847) 
None

>  <HIPPO Pose ID>  (2847) 
500491

>  <name>  (2847) 
P500491

>  <HIPPO Compound ID>  (2847) 
314815

>  <ref_mols>  (2847) 
A0875a,A4706a

>  <distance_score>  (2847) 
1.835893

>  <inspiration_score>  (2847) 
None

$$$$
P500492
     RDKit          3D

 30 32  0  0  0  0  0  0  0  0999 V2000
    8.0512   19.0388   19.8841 C   0  0  0  0  0  0  0  0  0  0  0  0
    8.6201   18.2878   21.0570 C   0  0  0  0  0  0  0  0  0  0  0  0
    8.7273   16.8928   20.8085 O   0  0  0  0  0  0  0  0  0  0  0  0
    8.0537   16.0581   21.6568 C   0  0  0  0  0  0  0  0  0  0  0  0
    7.1228   16.3706   22.3923 O   0  0  0  0  0  0  0  0  0  0  0  0
    8.5669   14.6262   21.5182 C   0  0  2  0  0  0  0  0  0  0  0  0
    8.2690   13.8879   22.7314 O   0  0  0  0  0  0  0  0  0  0  0  0
    6.9838   13.5205   22.8928 C   0  0  0  0  0  0  0  0  0  0  0  0
    6.2108   13.3659   21.9536 O   0  0  0  0  0  0  0  0  0  0  0  0
    6.5825   13.1997   24.3299 C   0  0  0  0  0  0  0  0  0  0  0  0
    7.2996   11.9683   24.8889 C   0  0  0  0  0  0  0  0  0  0  0  0
    8.7030   12.2844   25.3663 C   0  0  0  0  0  0  0  0  0  0  0  0
    8.7739   13.4709   26.2434 N   0  0  0  0  0  0  0  0  0  0  0  0
    9.9286   14.6611   25.8699 S   0  0  0  0  0  0  0  0  0  0  0  0
    9.9039   15.5792   26.9847 O   0  0  0  0  0  0  0  0  0  0  0  0
    9.6653   15.1563   24.5548 O   0  0  0  0  0  0  0  0  0  0  0  0
   11.4055   13.8618   25.9411 N   0  0  0  0  0  0  0  0  0  0  0  0
   11.7410   13.3496   27.2577 C   0  0  0  0  0  0  0  0  0  0  0  0
   13.1783   12.8801   27.4441 C   0  0  0  0  0  0  0  0  0  0  0  0
   13.8100   12.2539   26.2273 C   0  0  0  0  0  0  0  0  0  0  0  0
   12.7671   11.9360   25.1885 C   0  0  0  0  0  0  0  0  0  0  0  0
   11.9544   13.1619   24.7753 C   0  0  0  0  0  0  0  0  0  0  0  0
    7.4336   14.0600   26.5547 C   0  0  0  0  0  0  0  0  0  0  0  0
    6.6773   14.4006   25.2743 C   0  0  0  0  0  0  0  0  0  0  0  0
   10.0569   14.6776   21.3510 C   0  0  0  0  0  0  0  0  0  0  0  0
   10.9154   14.7961   22.3481 N   0  0  0  0  0  0  0  0  0  0  0  0
   12.1175   15.0419   21.7966 C   0  0  0  0  0  0  0  0  0  0  0  0
   12.0597   14.8448   20.4509 C   0  0  0  0  0  0  0  0  0  0  0  0
   10.7343   14.7804   20.1567 N   0  0  0  0  0  0  0  0  0  0  0  0
   10.2780   14.9601   18.8075 C   0  0  0  0  0  0  0  0  0  0  0  0
  1  2  1  0
  2  3  1  0
  3  4  1  0
  4  5  2  0
  4  6  1  0
  6  7  1  1
  7  8  1  0
  8  9  2  0
  8 10  1  0
 10 11  1  0
 11 12  1  0
 12 13  1  0
 13 14  1  0
 14 15  2  0
 14 16  2  0
 14 17  1  0
 17 18  1  0
 18 19  1  0
 19 20  1  0
 20 21  1  0
 21 22  1  0
 13 23  1  0
 23 24  1  0
  6 25  1  0
 25 26  2  0
 26 27  1  0
 27 28  2  0
 28 29  1  0
 29 30  1  0
 24 10  1  0
 29 25  1  0
 22 17  1  0
M  END
>  <energy_score>  (2848) 
-37.14897

>  <inchikey>  (2848) 
None

>  <smiles>  (2848) 
None

>  <ref_pdb>  (2848) 
A4706a

>  <alias>  (2848) 
None

>  <HIPPO Pose ID>  (2848) 
500492

>  <name>  (2848) 
P500492

>  <HIPPO Compound ID>  (2848) 
314819

>  <ref_mols>  (2848) 
A4706a,A0875a

>  <distance_score>  (2848) 
1.4716

>  <inspiration_score>  (2848) 
None

$$$$
P500493
     RDKit          3D

 30 32  0  0  0  0  0  0  0  0999 V2000
    3.4899   14.2957   22.1322 C   0  0  0  0  0  0  0  0  0  0  0  0
    4.7236   14.1949   21.2560 C   0  0  0  0  0  0  0  0  0  0  0  0
    5.7043   15.1309   21.7410 O   0  0  0  0  0  0  0  0  0  0  0  0
    7.0229   14.8584   21.4304 C   0  0  0  0  0  0  0  0  0  0  0  0
    7.3818   14.0505   20.5951 O   0  0  0  0  0  0  0  0  0  0  0  0
    7.9568   15.6160   22.3206 C   0  0  1  0  0  0  0  0  0  0  0  0
    7.5387   15.2879   23.7000 O   0  0  0  0  0  0  0  0  0  0  0  0
    6.9650   14.0690   23.9567 C   0  0  0  0  0  0  0  0  0  0  0  0
    6.9091   13.1118   23.1844 O   0  0  0  0  0  0  0  0  0  0  0  0
    6.2603   13.9960   25.3010 C   0  0  0  0  0  0  0  0  0  0  0  0
    6.2473   12.5259   25.7689 C   0  0  0  0  0  0  0  0  0  0  0  0
    7.6499   11.9993   26.0933 C   0  0  0  0  0  0  0  0  0  0  0  0
    8.5161   13.0882   26.6271 N   0  0  0  0  0  0  0  0  0  0  0  0
    9.7411   13.6742   25.6125 S   0  0  0  0  0  0  0  0  0  0  0  0
    9.9482   15.0519   25.9841 O   0  0  0  0  0  0  0  0  0  0  0  0
    9.4268   13.2192   24.2863 O   0  0  0  0  0  0  0  0  0  0  0  0
   11.0871   12.7538   26.1403 N   0  0  0  0  0  0  0  0  0  0  0  0
   12.0868   13.5456   26.8843 C   0  0  0  0  0  0  0  0  0  0  0  0
   13.5276   13.0912   26.6407 C   0  0  0  0  0  0  0  0  0  0  0  0
   13.6452   11.6189   26.6055 C   0  0  0  0  0  0  0  0  0  0  0  0
   12.8946   11.1595   25.3833 C   0  0  0  0  0  0  0  0  0  0  0  0
   11.6273   11.9453   25.0340 C   0  0  0  0  0  0  0  0  0  0  0  0
    7.7402   14.1320   27.3479 C   0  0  0  0  0  0  0  0  0  0  0  0
    6.8376   14.8991   26.3907 C   0  0  0  0  0  0  0  0  0  0  0  0
    9.4580   15.3716   22.0995 C   0  0  0  0  0  0  0  0  0  0  0  0
   10.3492   15.3436   23.0872 N   0  0  0  0  0  0  0  0  0  0  0  0
   11.5489   15.0045   22.5462 C   0  0  0  0  0  0  0  0  0  0  0  0
   11.4612   14.9502   21.1895 C   0  0  0  0  0  0  0  0  0  0  0  0
   10.1662   15.2963   20.8998 N   0  0  0  0  0  0  0  0  0  0  0  0
    9.8049   15.6910   19.5654 C   0  0  0  0  0  0  0  0  0  0  0  0
  1  2  1  0
  2  3  1  0
  3  4  1  0
  4  5  2  0
  4  6  1  0
  6  7  1  1
  7  8  1  0
  8  9  2  0
  8 10  1  0
 10 11  1  0
 11 12  1  0
 12 13  1  0
 13 14  1  0
 14 15  2  0
 14 16  2  0
 14 17  1  0
 17 18  1  0
 18 19  1  0
 19 20  1  0
 20 21  1  0
 21 22  1  0
 13 23  1  0
 23 24  1  0
  6 25  1  0
 25 26  2  0
 26 27  1  0
 27 28  2  0
 28 29  1  0
 29 30  1  0
 24 10  1  0
 29 25  1  0
 22 17  1  0
M  END
>  <energy_score>  (2849) 
-16.845197

>  <inchikey>  (2849) 
None

>  <smiles>  (2849) 
None

>  <ref_pdb>  (2849) 
A4706a

>  <alias>  (2849) 
None

>  <HIPPO Pose ID>  (2849) 
500493

>  <name>  (2849) 
P500493

>  <HIPPO Compound ID>  (2849) 
314819

>  <ref_mols>  (2849) 
A4706a,A0875a

>  <distance_score>  (2849) 
1.700615

>  <inspiration_score>  (2849) 
None

$$$$
P500494
     RDKit          3D

 30 32  0  0  0  0  0  0  0  0999 V2000
    8.0017   19.1303   19.8926 C   0  0  0  0  0  0  0  0  0  0  0  0
    8.5589   18.4269   21.1026 C   0  0  0  0  0  0  0  0  0  0  0  0
    8.5416   17.0243   20.9177 O   0  0  0  0  0  0  0  0  0  0  0  0
    7.8515   16.2141   21.7672 C   0  0  0  0  0  0  0  0  0  0  0  0
    7.0850   16.5489   22.6609 O   0  0  0  0  0  0  0  0  0  0  0  0
    8.1514   14.7521   21.4093 C   0  0  2  0  0  0  0  0  0  0  0  0
    7.9775   13.8815   22.5431 O   0  0  0  0  0  0  0  0  0  0  0  0
    6.7141   13.7108   22.9929 C   0  0  0  0  0  0  0  0  0  0  0  0
    5.7121   14.0776   22.3949 O   0  0  0  0  0  0  0  0  0  0  0  0
    6.6563   12.9060   24.2880 C   0  0  0  0  0  0  0  0  0  0  0  0
    7.8796   12.0163   24.5400 C   0  0  0  0  0  0  0  0  0  0  0  0
    8.5328   12.2710   25.8766 C   0  0  0  0  0  0  0  0  0  0  0  0
    8.6833   13.6944   26.1780 N   0  0  0  0  0  0  0  0  0  0  0  0
    9.9754   14.6370   25.6567 S   0  0  0  0  0  0  0  0  0  0  0  0
   10.0547   15.7081   26.6210 O   0  0  0  0  0  0  0  0  0  0  0  0
    9.7671   14.9401   24.2703 O   0  0  0  0  0  0  0  0  0  0  0  0
   11.3607   13.7184   25.8296 N   0  0  0  0  0  0  0  0  0  0  0  0
   11.8334   12.8657   24.7362 C   0  0  0  0  0  0  0  0  0  0  0  0
   12.8222   11.8066   25.2189 C   0  0  0  0  0  0  0  0  0  0  0  0
   13.8387   12.3391   26.1870 C   0  0  0  0  0  0  0  0  0  0  0  0
   13.1514   12.8956   27.4065 C   0  0  0  0  0  0  0  0  0  0  0  0
   11.7212   13.3808   27.1938 C   0  0  0  0  0  0  0  0  0  0  0  0
    7.4009   14.4716   26.1682 C   0  0  0  0  0  0  0  0  0  0  0  0
    6.2514   13.7330   25.5049 C   0  0  0  0  0  0  0  0  0  0  0  0
    9.5491   14.6225   20.8348 C   0  0  0  0  0  0  0  0  0  0  0  0
    9.8574   15.0422   19.5308 C   0  0  0  0  0  0  0  0  0  0  0  0
   11.1488   15.0015   19.0666 C   0  0  0  0  0  0  0  0  0  0  0  0
   12.1066   14.5980   19.9608 C   0  0  0  0  0  0  0  0  0  0  0  0
   11.8816   14.1956   21.2279 N   0  0  0  0  0  0  0  0  0  0  0  0
   10.6031   14.1910   21.6100 C   0  0  0  0  0  0  0  0  0  0  0  0
  1  2  1  0
  2  3  1  0
  3  4  1  0
  4  5  2  0
  4  6  1  0
  6  7  1  1
  7  8  1  0
  8  9  2  0
  8 10  1  0
 10 11  1  0
 11 12  1  0
 12 13  1  0
 13 14  1  0
 14 15  2  0
 14 16  2  0
 14 17  1  0
 17 18  1  0
 18 19  1  0
 19 20  1  0
 20 21  1  0
 21 22  1  0
 13 23  1  0
 23 24  1  0
  6 25  1  0
 25 26  2  0
 26 27  1  0
 27 28  2  0
 28 29  1  0
 29 30  2  0
 24 10  1  0
 30 25  1  0
 22 17  1  0
M  END
>  <energy_score>  (2850) 
-53.19027

>  <inchikey>  (2850) 
None

>  <smiles>  (2850) 
None

>  <ref_pdb>  (2850) 
A4706a

>  <alias>  (2850) 
None

>  <HIPPO Pose ID>  (2850) 
500494

>  <name>  (2850) 
P500494

>  <HIPPO Compound ID>  (2850) 
314820

>  <ref_mols>  (2850) 
A4706a,A0875a

>  <distance_score>  (2850) 
1.592124

>  <inspiration_score>  (2850) 
None

$$$$
P500495
     RDKit          3D

 30 32  0  0  0  0  0  0  0  0999 V2000
   10.6904   12.6436   22.3628 N   0  0  0  0  0  0  0  0  0  0  0  0
    9.3399   13.1790   22.2826 C   0  0  0  0  0  0  0  0  0  0  0  0
    9.0313   14.2939   23.2479 C   0  0  1  0  0  0  0  0  0  0  0  0
   10.1850   15.2883   23.3605 C   0  0  0  0  0  0  0  0  0  0  0  0
   10.2178   16.2784   22.3597 O   0  0  0  0  0  0  0  0  0  0  0  0
   10.5730   15.8097   21.1599 C   0  0  0  0  0  0  0  0  0  0  0  0
   11.8297   15.3067   20.9254 C   0  0  0  0  0  0  0  0  0  0  0  0
   12.0737   14.7365   19.7025 C   0  0  0  0  0  0  0  0  0  0  0  0
   11.1212   14.7807   18.7173 C   0  0  0  0  0  0  0  0  0  0  0  0
   11.4407   14.2432   17.5480 F   0  0  0  0  0  0  0  0  0  0  0  0
    9.8884   15.3622   18.9312 C   0  0  0  0  0  0  0  0  0  0  0  0
    9.6111   15.8853   20.1777 C   0  0  0  0  0  0  0  0  0  0  0  0
    7.7214   14.8959   23.1141 O   0  0  0  0  0  0  0  0  0  0  0  0
    6.7021   13.9974   23.0733 C   0  0  0  0  0  0  0  0  0  0  0  0
    6.5566   13.1885   22.1575 O   0  0  0  0  0  0  0  0  0  0  0  0
    5.7900   13.9597   24.2922 C   0  0  0  0  0  0  0  0  0  0  0  0
    6.1594   12.7511   25.1865 C   0  0  0  0  0  0  0  0  0  0  0  0
    6.9279   13.1521   26.4485 C   0  0  0  0  0  0  0  0  0  0  0  0
    7.7589   14.3094   26.0942 N   0  0  0  0  0  0  0  0  0  0  0  0
    9.2683   14.5577   26.7639 S   0  0  0  0  0  0  0  0  0  0  0  0
    9.2391   14.1834   28.1460 O   0  0  0  0  0  0  0  0  0  0  0  0
    9.7046   15.8811   26.4045 O   0  0  0  0  0  0  0  0  0  0  0  0
   10.2986   13.5013   25.9280 N   0  0  0  0  0  0  0  0  0  0  0  0
    9.9419   12.0801   25.8750 C   0  0  0  0  0  0  0  0  0  0  0  0
   10.9982   11.1990   25.2350 C   0  0  0  0  0  0  0  0  0  0  0  0
   12.4417   11.5792   25.5547 C   0  0  0  0  0  0  0  0  0  0  0  0
   12.6544   13.0439   25.3211 C   0  0  0  0  0  0  0  0  0  0  0  0
   11.7109   13.7977   26.2381 C   0  0  0  0  0  0  0  0  0  0  0  0
    6.9368   15.5345   25.9477 C   0  0  0  0  0  0  0  0  0  0  0  0
    5.7092   15.2581   25.0864 C   0  0  0  0  0  0  0  0  0  0  0  0
  1  2  1  0
  3  2  1  6
  3  4  1  0
  4  5  1  0
  5  6  1  0
  6  7  2  0
  7  8  1  0
  8  9  2  0
  9 10  1  0
  9 11  1  0
 11 12  2  0
  3 13  1  0
 13 14  1  0
 14 15  2  0
 14 16  1  0
 16 17  1  0
 17 18  1  0
 18 19  1  0
 19 20  1  0
 20 21  2  0
 20 22  2  0
 20 23  1  0
 23 24  1  0
 24 25  1  0
 25 26  1  0
 26 27  1  0
 27 28  1  0
 19 29  1  0
 29 30  1  0
 12  6  1  0
 30 16  1  0
 28 23  1  0
M  END
>  <energy_score>  (2851) 
-32.210445

>  <inchikey>  (2851) 
None

>  <smiles>  (2851) 
None

>  <ref_pdb>  (2851) 
A4706a

>  <alias>  (2851) 
None

>  <HIPPO Pose ID>  (2851) 
500495

>  <name>  (2851) 
P500495

>  <HIPPO Compound ID>  (2851) 
314825

>  <ref_mols>  (2851) 
A4706a,A0875a

>  <distance_score>  (2851) 
1.921322

>  <inspiration_score>  (2851) 
None

$$$$
P500496
     RDKit          3D

 30 32  0  0  0  0  0  0  0  0999 V2000
    9.3449   10.2302   23.4491 C   0  0  0  0  0  0  0  0  0  0  0  0
    8.8002   11.5234   23.1466 O   0  0  0  0  0  0  0  0  0  0  0  0
    9.6722   12.4989   22.7881 C   0  0  0  0  0  0  0  0  0  0  0  0
   10.8861   12.4007   22.8855 O   0  0  0  0  0  0  0  0  0  0  0  0
    8.9623   13.7200   22.2016 C   0  0  2  0  0  0  0  0  0  0  0  0
    9.7207   15.0229   22.5733 C   0  0  0  0  0  0  0  0  0  0  0  0
   10.4424   15.4248   21.3198 C   0  0  0  0  0  0  0  0  0  0  0  0
    9.6600   15.8400   20.2579 C   0  0  0  0  0  0  0  0  0  0  0  0
   10.0741   15.4930   18.9928 C   0  0  0  0  0  0  0  0  0  0  0  0
   11.2587   14.9292   18.7213 N   0  0  0  0  0  0  0  0  0  0  0  0
   12.0600   14.7147   19.7747 C   0  0  0  0  0  0  0  0  0  0  0  0
   11.7171   14.9486   21.0854 C   0  0  0  0  0  0  0  0  0  0  0  0
    7.5209   13.8581   22.1301 O   0  0  0  0  0  0  0  0  0  0  0  0
    6.6110   13.8780   23.1275 C   0  0  0  0  0  0  0  0  0  0  0  0
    5.4150   13.9646   22.8853 O   0  0  0  0  0  0  0  0  0  0  0  0
    7.1281   13.7263   24.5133 C   0  0  0  0  0  0  0  0  0  0  0  0
    6.8333   12.3817   25.1568 C   0  0  0  0  0  0  0  0  0  0  0  0
    7.8544   12.1881   26.2778 C   0  0  0  0  0  0  0  0  0  0  0  0
    8.2293   13.4816   26.9025 N   0  0  0  0  0  0  0  0  0  0  0  0
    9.7071   14.2792   26.7193 S   0  0  0  0  0  0  0  0  0  0  0  0
    9.7981   15.1098   27.8919 O   0  0  0  0  0  0  0  0  0  0  0  0
    9.7633   14.8979   25.4187 O   0  0  0  0  0  0  0  0  0  0  0  0
   10.9885   13.1363   26.8048 N   0  0  0  0  0  0  0  0  0  0  0  0
   11.3597   12.5711   25.4975 C   0  0  0  0  0  0  0  0  0  0  0  0
   12.4634   11.5175   25.5774 C   0  0  0  0  0  0  0  0  0  0  0  0
   13.4094   11.6953   26.7471 C   0  0  0  0  0  0  0  0  0  0  0  0
   13.5381   13.1466   26.9856 C   0  0  0  0  0  0  0  0  0  0  0  0
   12.2002   13.7766   27.4301 C   0  0  0  0  0  0  0  0  0  0  0  0
    7.0640   14.4354   26.9165 C   0  0  0  0  0  0  0  0  0  0  0  0
    6.7031   14.8343   25.4770 C   0  0  0  0  0  0  0  0  0  0  0  0
  1  2  1  0
  2  3  1  0
  3  4  2  0
  3  5  1  0
  5  6  1  1
  6  7  1  0
  7  8  2  0
  8  9  1  0
  9 10  2  0
 10 11  1  0
 11 12  2  0
  5 13  1  0
 13 14  1  0
 14 15  2  0
 14 16  1  0
 16 17  1  0
 17 18  1  0
 18 19  1  0
 19 20  1  0
 20 21  2  0
 20 22  2  0
 20 23  1  0
 23 24  1  0
 24 25  1  0
 25 26  1  0
 26 27  1  0
 27 28  1  0
 19 29  1  0
 29 30  1  0
 12  7  1  0
 30 16  1  0
 28 23  1  0
M  END
>  <energy_score>  (2852) 
-1.462808

>  <inchikey>  (2852) 
None

>  <smiles>  (2852) 
None

>  <ref_pdb>  (2852) 
A4706a

>  <alias>  (2852) 
None

>  <HIPPO Pose ID>  (2852) 
500496

>  <name>  (2852) 
P500496

>  <HIPPO Compound ID>  (2852) 
314826

>  <ref_mols>  (2852) 
A0875a,A4706a

>  <distance_score>  (2852) 
1.765476

>  <inspiration_score>  (2852) 
None

$$$$
P500497
     RDKit          3D

 30 32  0  0  0  0  0  0  0  0999 V2000
    8.1236   18.9052   19.9800 C   0  0  0  0  0  0  0  0  0  0  0  0
    7.7871   17.7616   20.7561 O   0  0  0  0  0  0  0  0  0  0  0  0
    8.8146   17.1302   21.3241 C   0  0  0  0  0  0  0  0  0  0  0  0
    9.9697   17.5150   21.2188 O   0  0  0  0  0  0  0  0  0  0  0  0
    8.3334   15.8234   22.0142 C   0  0  1  0  0  0  0  0  0  0  0  0
    9.6300   15.0134   22.2565 C   0  0  0  0  0  0  0  0  0  0  0  0
   10.4273   14.8415   21.0125 C   0  0  0  0  0  0  0  0  0  0  0  0
    9.7797   14.7947   19.7928 C   0  0  0  0  0  0  0  0  0  0  0  0
   10.4762   14.6049   18.6359 C   0  0  0  0  0  0  0  0  0  0  0  0
   11.7835   14.4980   18.5882 N   0  0  0  0  0  0  0  0  0  0  0  0
   12.3815   14.6382   19.7766 C   0  0  0  0  0  0  0  0  0  0  0  0
   11.7917   14.7896   21.0113 C   0  0  0  0  0  0  0  0  0  0  0  0
    7.4758   15.8305   23.1642 O   0  0  0  0  0  0  0  0  0  0  0  0
    6.6554   14.7451   23.3021 C   0  0  0  0  0  0  0  0  0  0  0  0
    6.5407   13.8523   22.4659 O   0  0  0  0  0  0  0  0  0  0  0  0
    5.8509   14.7620   24.6135 C   0  0  0  0  0  0  0  0  0  0  0  0
    5.3355   13.3523   24.9844 C   0  0  0  0  0  0  0  0  0  0  0  0
    6.2937   12.4345   25.7542 C   0  0  0  0  0  0  0  0  0  0  0  0
    7.5188   13.1487   26.1743 N   0  0  0  0  0  0  0  0  0  0  0  0
    8.7809   13.1375   25.0675 S   0  0  0  0  0  0  0  0  0  0  0  0
    8.4150   12.2542   23.9915 O   0  0  0  0  0  0  0  0  0  0  0  0
    9.2020   14.5013   24.8691 O   0  0  0  0  0  0  0  0  0  0  0  0
   10.0131   12.3944   25.9133 N   0  0  0  0  0  0  0  0  0  0  0  0
   10.7054   13.3063   26.8169 C   0  0  0  0  0  0  0  0  0  0  0  0
   11.8570   14.0266   26.1783 C   0  0  0  0  0  0  0  0  0  0  0  0
   12.7347   13.1511   25.2868 C   0  0  0  0  0  0  0  0  0  0  0  0
   12.3726   11.7036   25.4754 C   0  0  0  0  0  0  0  0  0  0  0  0
   10.9025   11.5391   25.0814 C   0  0  0  0  0  0  0  0  0  0  0  0
    7.1782   14.4394   26.8099 C   0  0  0  0  0  0  0  0  0  0  0  0
    6.5455   15.4165   25.8166 C   0  0  0  0  0  0  0  0  0  0  0  0
  1  2  1  0
  2  3  1  0
  3  4  2  0
  3  5  1  0
  5  6  1  1
  6  7  1  0
  7  8  2  0
  8  9  1  0
  9 10  2  0
 10 11  1  0
 11 12  2  0
  5 13  1  0
 13 14  1  0
 14 15  2  0
 14 16  1  0
 16 17  1  0
 17 18  1  0
 18 19  1  0
 19 20  1  0
 20 21  2  0
 20 22  2  0
 20 23  1  0
 23 24  1  0
 24 25  1  0
 25 26  1  0
 26 27  1  0
 27 28  1  0
 19 29  1  0
 29 30  1  0
 12  7  1  0
 30 16  1  0
 28 23  1  0
M  END
>  <energy_score>  (2853) 
-16.828801

>  <inchikey>  (2853) 
None

>  <smiles>  (2853) 
None

>  <ref_pdb>  (2853) 
A4706a

>  <alias>  (2853) 
None

>  <HIPPO Pose ID>  (2853) 
500497

>  <name>  (2853) 
P500497

>  <HIPPO Compound ID>  (2853) 
314826

>  <ref_mols>  (2853) 
A4706a,A0875a

>  <distance_score>  (2853) 
1.836412

>  <inspiration_score>  (2853) 
None

$$$$
P500498
     RDKit          3D

 30 32  0  0  0  0  0  0  0  0999 V2000
    8.1676   18.8889   20.3031 C   0  0  0  0  0  0  0  0  0  0  0  0
    8.1205   17.8420   21.2869 O   0  0  0  0  0  0  0  0  0  0  0  0
    8.7520   16.7302   20.9034 C   0  0  0  0  0  0  0  0  0  0  0  0
    9.4239   16.6858   19.8685 O   0  0  0  0  0  0  0  0  0  0  0  0
    8.4867   15.4509   21.7994 C   0  0  2  0  0  0  0  0  0  0  0  0
    7.5521   14.5746   20.9705 C   0  0  0  0  0  0  0  0  0  0  0  0
    7.8214   15.5941   23.0797 O   0  0  0  0  0  0  0  0  0  0  0  0
    7.3011   14.4663   23.6459 C   0  0  0  0  0  0  0  0  0  0  0  0
    7.5296   13.3166   23.2658 O   0  0  0  0  0  0  0  0  0  0  0  0
    6.2867   14.7124   24.7592 C   0  0  0  0  0  0  0  0  0  0  0  0
    5.8723   13.3416   25.3404 C   0  0  0  0  0  0  0  0  0  0  0  0
    7.0604   12.6557   26.0287 C   0  0  0  0  0  0  0  0  0  0  0  0
    7.8948   13.5977   26.8099 N   0  0  0  0  0  0  0  0  0  0  0  0
    9.4953   13.9750   26.4126 S   0  0  0  0  0  0  0  0  0  0  0  0
    9.5215   14.6322   25.1365 O   0  0  0  0  0  0  0  0  0  0  0  0
    9.9991   14.6905   27.5624 O   0  0  0  0  0  0  0  0  0  0  0  0
   10.4034   12.5407   26.3414 N   0  0  0  0  0  0  0  0  0  0  0  0
   10.1595   11.5811   25.2363 C   0  0  0  0  0  0  0  0  0  0  0  0
   10.5471   12.2011   23.9233 C   0  0  0  0  0  0  0  0  0  0  0  0
   11.9116   12.8803   24.0426 C   0  0  0  0  0  0  0  0  0  0  0  0
   12.6954   12.4475   25.2657 C   0  0  0  0  0  0  0  0  0  0  0  0
   11.8851   12.8322   26.4959 C   0  0  0  0  0  0  0  0  0  0  0  0
    7.1214   14.8265   27.1653 C   0  0  0  0  0  0  0  0  0  0  0  0
    6.7598   15.6145   25.8993 C   0  0  0  0  0  0  0  0  0  0  0  0
    9.9147   14.9010   21.7965 C   0  0  0  0  0  0  0  0  0  0  0  0
   10.3594   14.2959   20.6099 C   0  0  0  0  0  0  0  0  0  0  0  0
   11.5880   14.3910   20.0941 N   0  0  0  0  0  0  0  0  0  0  0  0
   12.3853   15.1072   20.8626 C   0  0  0  0  0  0  0  0  0  0  0  0
   12.0376   15.5603   22.1060 C   0  0  0  0  0  0  0  0  0  0  0  0
   10.8036   15.4920   22.6137 N   0  0  0  0  0  0  0  0  0  0  0  0
  1  2  1  0
  2  3  1  0
  3  4  2  0
  3  5  1  0
  5  6  1  6
  5  7  1  0
  7  8  1  0
  8  9  2  0
  8 10  1  0
 10 11  1  0
 11 12  1  0
 12 13  1  0
 13 14  1  0
 14 15  2  0
 14 16  2  0
 14 17  1  0
 17 18  1  0
 18 19  1  0
 19 20  1  0
 20 21  1  0
 21 22  1  0
 13 23  1  0
 23 24  1  0
  5 25  1  0
 25 26  2  0
 26 27  1  0
 27 28  2  0
 28 29  1  0
 29 30  2  0
 24 10  1  0
 30 25  1  0
 22 17  1  0
M  END
>  <energy_score>  (2854) 
-9.055809

>  <inchikey>  (2854) 
None

>  <smiles>  (2854) 
None

>  <ref_pdb>  (2854) 
A4706a

>  <alias>  (2854) 
None

>  <HIPPO Pose ID>  (2854) 
500498

>  <name>  (2854) 
P500498

>  <HIPPO Compound ID>  (2854) 
314829

>  <ref_mols>  (2854) 
A4706a,A0875a

>  <distance_score>  (2854) 
1.957189

>  <inspiration_score>  (2854) 
None

$$$$
P500499
     RDKit          3D

 30 32  0  0  0  0  0  0  0  0999 V2000
    3.2140   14.3196   21.8602 C   0  0  0  0  0  0  0  0  0  0  0  0
    4.3371   14.9459   22.4862 O   0  0  0  0  0  0  0  0  0  0  0  0
    5.5479   14.6674   21.8885 C   0  0  0  0  0  0  0  0  0  0  0  0
    5.6165   13.9883   20.8780 O   0  0  0  0  0  0  0  0  0  0  0  0
    6.7298   15.2293   22.7251 C   0  0  1  0  0  0  0  0  0  0  0  0
    6.4482   16.7107   22.9371 C   0  0  0  0  0  0  0  0  0  0  0  0
    6.5550   14.7180   24.0740 O   0  0  0  0  0  0  0  0  0  0  0  0
    6.1867   13.4312   24.2201 C   0  0  0  0  0  0  0  0  0  0  0  0
    6.2579   12.5934   23.3346 O   0  0  0  0  0  0  0  0  0  0  0  0
    5.6051   13.1631   25.5960 C   0  0  0  0  0  0  0  0  0  0  0  0
    6.0346   11.7711   26.0594 C   0  0  0  0  0  0  0  0  0  0  0  0
    7.5437   11.6480   26.1277 C   0  0  0  0  0  0  0  0  0  0  0  0
    8.1419   12.9108   26.5924 N   0  0  0  0  0  0  0  0  0  0  0  0
    9.2020   13.7138   25.5679 S   0  0  0  0  0  0  0  0  0  0  0  0
    9.2819   15.0772   26.0308 O   0  0  0  0  0  0  0  0  0  0  0  0
    8.9297   13.3225   24.2137 O   0  0  0  0  0  0  0  0  0  0  0  0
   10.6459   12.9534   25.9539 N   0  0  0  0  0  0  0  0  0  0  0  0
   10.8523   11.6439   25.2902 C   0  0  0  0  0  0  0  0  0  0  0  0
   12.2617   11.1835   25.6494 C   0  0  0  0  0  0  0  0  0  0  0  0
   13.3589   12.0555   25.1343 C   0  0  0  0  0  0  0  0  0  0  0  0
   12.7467   13.3768   24.7287 C   0  0  0  0  0  0  0  0  0  0  0  0
   11.8047   13.8580   25.8180 C   0  0  0  0  0  0  0  0  0  0  0  0
    7.2489   13.7526   27.4265 C   0  0  0  0  0  0  0  0  0  0  0  0
    6.0198   14.1988   26.6506 C   0  0  0  0  0  0  0  0  0  0  0  0
    8.1865   15.1241   22.1691 C   0  0  0  0  0  0  0  0  0  0  0  0
    8.4942   14.7120   20.8852 C   0  0  0  0  0  0  0  0  0  0  0  0
    9.7340   14.7195   20.3166 N   0  0  0  0  0  0  0  0  0  0  0  0
   10.7250   15.1417   21.1107 C   0  0  0  0  0  0  0  0  0  0  0  0
   10.4713   15.5656   22.3926 C   0  0  0  0  0  0  0  0  0  0  0  0
    9.2234   15.5838   22.9299 N   0  0  0  0  0  0  0  0  0  0  0  0
  1  2  1  0
  2  3  1  0
  3  4  2  0
  3  5  1  0
  5  6  1  1
  5  7  1  0
  7  8  1  0
  8  9  2  0
  8 10  1  0
 10 11  1  0
 11 12  1  0
 12 13  1  0
 13 14  1  0
 14 15  2  0
 14 16  2  0
 14 17  1  0
 17 18  1  0
 18 19  1  0
 19 20  1  0
 20 21  1  0
 21 22  1  0
 13 23  1  0
 23 24  1  0
  5 25  1  0
 25 26  2  0
 26 27  1  0
 27 28  2  0
 28 29  1  0
 29 30  2  0
 24 10  1  0
 30 25  1  0
 22 17  1  0
M  END
>  <energy_score>  (2855) 
-48.323893

>  <inchikey>  (2855) 
None

>  <smiles>  (2855) 
None

>  <ref_pdb>  (2855) 
A4706a

>  <alias>  (2855) 
None

>  <HIPPO Pose ID>  (2855) 
500499

>  <name>  (2855) 
P500499

>  <HIPPO Compound ID>  (2855) 
314829

>  <ref_mols>  (2855) 
A4706a,A0875a

>  <distance_score>  (2855) 
1.828086

>  <inspiration_score>  (2855) 
None

$$$$
P500500
     RDKit          3D

 30 32  0  0  0  0  0  0  0  0999 V2000
    8.3545   18.3696   20.6101 C   0  0  0  0  0  0  0  0  0  0  0  0
    8.5457   17.2064   21.4062 O   0  0  0  0  0  0  0  0  0  0  0  0
    7.5127   16.4105   21.7744 C   0  0  0  0  0  0  0  0  0  0  0  0
    6.4902   16.7240   22.3742 O   0  0  0  0  0  0  0  0  0  0  0  0
    7.8044   14.9593   21.4427 C   0  0  2  0  0  0  0  0  0  0  0  0
    7.6277   14.3330   22.7460 O   0  0  0  0  0  0  0  0  0  0  0  0
    6.3819   13.8496   22.9412 C   0  0  0  0  0  0  0  0  0  0  0  0
    5.8078   13.1943   22.0760 O   0  0  0  0  0  0  0  0  0  0  0  0
    5.7792   14.0679   24.3308 C   0  0  0  0  0  0  0  0  0  0  0  0
    5.7752   12.7357   25.0753 C   0  0  0  0  0  0  0  0  0  0  0  0
    7.1684   12.3946   25.5498 C   0  0  0  0  0  0  0  0  0  0  0  0
    7.7436   13.4404   26.4054 N   0  0  0  0  0  0  0  0  0  0  0  0
    9.3360   13.9234   26.1902 S   0  0  0  0  0  0  0  0  0  0  0  0
    9.6675   14.6637   27.3790 O   0  0  0  0  0  0  0  0  0  0  0  0
    9.4566   14.5773   24.9143 O   0  0  0  0  0  0  0  0  0  0  0  0
   10.3088   12.5294   26.2359 N   0  0  0  0  0  0  0  0  0  0  0  0
   11.7662   12.8949   26.4094 C   0  0  0  0  0  0  0  0  0  0  0  0
   12.5994   12.5250   25.1897 C   0  0  0  0  0  0  0  0  0  0  0  0
   11.7859   12.8342   23.9435 C   0  0  0  0  0  0  0  0  0  0  0  0
   10.4589   12.0672   23.8535 C   0  0  0  0  0  0  0  0  0  0  0  0
   10.1371   11.4840   25.2002 C   0  0  0  0  0  0  0  0  0  0  0  0
    6.8356   14.6208   26.5784 C   0  0  0  0  0  0  0  0  0  0  0  0
    6.3888   15.1605   25.2161 C   0  0  0  0  0  0  0  0  0  0  0  0
    9.1679   14.7959   20.8148 C   0  0  0  0  0  0  0  0  0  0  0  0
    9.4723   14.9927   19.4498 C   0  0  0  0  0  0  0  0  0  0  0  0
   10.7477   14.8272   18.9242 C   0  0  0  0  0  0  0  0  0  0  0  0
   11.7820   14.6709   19.7877 C   0  0  0  0  0  0  0  0  0  0  0  0
   11.4827   14.7825   21.1228 C   0  0  0  0  0  0  0  0  0  0  0  0
   12.6872   15.6091   22.1860 Br  0  0  0  0  0  0  0  0  0  0  0  0
   10.2277   14.7347   21.6608 C   0  0  0  0  0  0  0  0  0  0  0  0
  1  2  1  0
  2  3  1  0
  3  4  2  0
  3  5  1  0
  5  6  1  1
  6  7  1  0
  7  8  2  0
  7  9  1  0
  9 10  1  0
 10 11  1  0
 11 12  1  0
 12 13  1  0
 13 14  2  0
 13 15  2  0
 13 16  1  0
 16 17  1  0
 17 18  1  0
 18 19  1  0
 19 20  1  0
 20 21  1  0
 12 22  1  0
 22 23  1  0
  5 24  1  0
 24 25  2  0
 25 26  1  0
 26 27  2  0
 27 28  1  0
 28 29  1  0
 28 30  2  0
 23  9  1  0
 30 24  1  0
 21 16  1  0
M  END
>  <energy_score>  (2856) 
-3.285753

>  <inchikey>  (2856) 
None

>  <smiles>  (2856) 
None

>  <ref_pdb>  (2856) 
A4706a

>  <alias>  (2856) 
None

>  <HIPPO Pose ID>  (2856) 
500500

>  <name>  (2856) 
P500500

>  <HIPPO Compound ID>  (2856) 
314832

>  <ref_mols>  (2856) 
A4706a,A0875a

>  <distance_score>  (2856) 
1.96539

>  <inspiration_score>  (2856) 
None

$$$$
P500501
     RDKit          3D

 30 32  0  0  0  0  0  0  0  0999 V2000
    8.1804   18.7370   20.2527 C   0  0  0  0  0  0  0  0  0  0  0  0
    8.5616   17.4185   20.6245 O   0  0  0  0  0  0  0  0  0  0  0  0
    7.8888   16.7519   21.6012 C   0  0  0  0  0  0  0  0  0  0  0  0
    7.0472   17.1698   22.3796 O   0  0  0  0  0  0  0  0  0  0  0  0
    8.3079   15.3056   21.6732 C   0  0  2  0  0  0  0  0  0  0  0  0
    7.3394   14.3435   21.0393 C   0  0  0  0  0  0  0  0  0  0  0  0
    8.2680   14.9448   23.0602 O   0  0  0  0  0  0  0  0  0  0  0  0
    7.1010   14.6747   23.7355 C   0  0  0  0  0  0  0  0  0  0  0  0
    5.9467   14.8019   23.3811 O   0  0  0  0  0  0  0  0  0  0  0  0
    7.5784   14.0852   24.9901 C   0  0  0  0  0  0  0  0  0  0  0  0
    8.0063   12.6333   24.7400 C   0  0  0  0  0  0  0  0  0  0  0  0
    8.6447   12.0628   25.9894 C   0  0  0  0  0  0  0  0  0  0  0  0
    9.1670   13.1678   26.8250 N   0  0  0  0  0  0  0  0  0  0  0  0
   10.5989   13.9539   26.3380 S   0  0  0  0  0  0  0  0  0  0  0  0
   10.8599   14.9508   27.3399 O   0  0  0  0  0  0  0  0  0  0  0  0
   10.5050   14.3340   24.9513 O   0  0  0  0  0  0  0  0  0  0  0  0
   11.7951   12.7341   26.4325 N   0  0  0  0  0  0  0  0  0  0  0  0
   12.9145   12.9553   27.3949 C   0  0  0  0  0  0  0  0  0  0  0  0
   14.3059   12.7524   26.8001 C   0  0  0  0  0  0  0  0  0  0  0  0
   14.4420   11.3998   26.1824 C   0  0  0  0  0  0  0  0  0  0  0  0
   13.3120   11.1828   25.2091 C   0  0  0  0  0  0  0  0  0  0  0  0
   12.2410   12.2702   25.1068 C   0  0  0  0  0  0  0  0  0  0  0  0
    8.0210   14.0883   27.3275 C   0  0  0  0  0  0  0  0  0  0  0  0
    6.8797   14.2177   26.3025 C   0  0  0  0  0  0  0  0  0  0  0  0
    9.7257   15.1306   21.1457 C   0  0  0  0  0  0  0  0  0  0  0  0
    9.9995   15.0257   19.7715 C   0  0  0  0  0  0  0  0  0  0  0  0
   11.2914   14.8622   19.3412 C   0  0  0  0  0  0  0  0  0  0  0  0
   12.3226   14.8752   20.1903 N   0  0  0  0  0  0  0  0  0  0  0  0
   12.0671   15.1436   21.4862 C   0  0  0  0  0  0  0  0  0  0  0  0
   10.8073   15.2684   22.0035 C   0  0  0  0  0  0  0  0  0  0  0  0
  1  2  1  0
  2  3  1  0
  3  4  2  0
  3  5  1  0
  5  6  1  6
  5  7  1  0
  7  8  1  0
  8  9  2  0
  8 10  1  0
 10 11  1  0
 11 12  1  0
 12 13  1  0
 13 14  1  0
 14 15  2  0
 14 16  2  0
 14 17  1  0
 17 18  1  0
 18 19  1  0
 19 20  1  0
 20 21  1  0
 21 22  1  0
 13 23  1  0
 23 24  1  0
  5 25  1  0
 25 26  2  0
 26 27  1  0
 27 28  2  0
 28 29  1  0
 29 30  2  0
 24 10  1  0
 30 25  1  0
 22 17  1  0
M  END
>  <energy_score>  (2857) 
-20.538724

>  <inchikey>  (2857) 
None

>  <smiles>  (2857) 
None

>  <ref_pdb>  (2857) 
A4706a

>  <alias>  (2857) 
None

>  <HIPPO Pose ID>  (2857) 
500501

>  <name>  (2857) 
P500501

>  <HIPPO Compound ID>  (2857) 
314834

>  <ref_mols>  (2857) 
A0875a,A4706a

>  <distance_score>  (2857) 
1.584331

>  <inspiration_score>  (2857) 
None

$$$$
P500502
     RDKit          3D

 30 32  0  0  0  0  0  0  0  0999 V2000
    5.8056   17.0972   24.5242 C   0  0  0  0  0  0  0  0  0  0  0  0
    6.6763   16.0300   24.1633 O   0  0  0  0  0  0  0  0  0  0  0  0
    7.1006   15.9889   22.8749 C   0  0  0  0  0  0  0  0  0  0  0  0
    7.1319   16.9237   22.0971 O   0  0  0  0  0  0  0  0  0  0  0  0
    7.5375   14.5944   22.4388 C   0  0  2  0  0  0  0  0  0  0  0  0
    6.5840   14.1857   21.3187 C   0  0  0  0  0  0  0  0  0  0  0  0
    7.2857   13.6180   23.5164 O   0  0  0  0  0  0  0  0  0  0  0  0
    5.9691   13.5407   23.9412 C   0  0  0  0  0  0  0  0  0  0  0  0
    5.0244   14.1219   23.4076 O   0  0  0  0  0  0  0  0  0  0  0  0
    5.6924   12.7245   25.1771 C   0  0  0  0  0  0  0  0  0  0  0  0
    6.7173   11.6429   25.5061 C   0  0  0  0  0  0  0  0  0  0  0  0
    7.6242   12.1090   26.6286 C   0  0  0  0  0  0  0  0  0  0  0  0
    7.8486   13.5396   26.4141 N   0  0  0  0  0  0  0  0  0  0  0  0
    9.3075   14.2800   26.6790 S   0  0  0  0  0  0  0  0  0  0  0  0
    9.4745   14.4272   28.1003 O   0  0  0  0  0  0  0  0  0  0  0  0
    9.3720   15.4383   25.8288 O   0  0  0  0  0  0  0  0  0  0  0  0
   10.4360   13.1706   26.1750 N   0  0  0  0  0  0  0  0  0  0  0  0
   11.8269   13.6277   26.3755 C   0  0  0  0  0  0  0  0  0  0  0  0
   12.7561   12.4232   26.4086 C   0  0  0  0  0  0  0  0  0  0  0  0
   12.4628   11.4659   25.2621 C   0  0  0  0  0  0  0  0  0  0  0  0
   10.9518   11.2057   25.0131 C   0  0  0  0  0  0  0  0  0  0  0  0
   10.2961   12.5461   24.8589 C   0  0  0  0  0  0  0  0  0  0  0  0
    6.6862   14.3324   26.8725 C   0  0  0  0  0  0  0  0  0  0  0  0
    5.4147   13.6802   26.3453 C   0  0  0  0  0  0  0  0  0  0  0  0
    9.0147   14.7247   21.9312 C   0  0  0  0  0  0  0  0  0  0  0  0
    9.4322   14.8763   20.5990 C   0  0  0  0  0  0  0  0  0  0  0  0
   10.7724   15.0487   20.2410 C   0  0  0  0  0  0  0  0  0  0  0  0
   11.6977   15.1458   21.2556 C   0  0  0  0  0  0  0  0  0  0  0  0
   11.3655   15.0986   22.5565 N   0  0  0  0  0  0  0  0  0  0  0  0
   10.0424   14.9515   22.8238 C   0  0  0  0  0  0  0  0  0  0  0  0
  1  2  1  0
  2  3  1  0
  3  4  2  0
  3  5  1  0
  5  6  1  6
  5  7  1  0
  7  8  1  0
  8  9  2  0
  8 10  1  0
 10 11  1  0
 11 12  1  0
 12 13  1  0
 13 14  1  0
 14 15  2  0
 14 16  2  0
 14 17  1  0
 17 18  1  0
 18 19  1  0
 19 20  1  0
 20 21  1  0
 21 22  1  0
 13 23  1  0
 23 24  1  0
  5 25  1  0
 25 26  2  0
 26 27  1  0
 27 28  2  0
 28 29  1  0
 29 30  2  0
 24 10  1  0
 30 25  1  0
 22 17  1  0
M  END
>  <energy_score>  (2858) 
-48.383768

>  <inchikey>  (2858) 
None

>  <smiles>  (2858) 
None

>  <ref_pdb>  (2858) 
A4706a

>  <alias>  (2858) 
None

>  <HIPPO Pose ID>  (2858) 
500502

>  <name>  (2858) 
P500502

>  <HIPPO Compound ID>  (2858) 
314837

>  <ref_mols>  (2858) 
A4706a,A0875a

>  <distance_score>  (2858) 
1.780883

>  <inspiration_score>  (2858) 
None

$$$$
P500503
     RDKit          3D

 30 32  0  0  0  0  0  0  0  0999 V2000
    4.2631   13.6100   20.8542 C   0  0  0  0  0  0  0  0  0  0  0  0
    5.2937   14.5514   21.1827 O   0  0  0  0  0  0  0  0  0  0  0  0
    6.4061   14.0963   21.8126 C   0  0  0  0  0  0  0  0  0  0  0  0
    6.6569   12.9038   21.9488 O   0  0  0  0  0  0  0  0  0  0  0  0
    7.2818   15.1949   22.4474 C   0  0  1  0  0  0  0  0  0  0  0  0
    6.7545   16.5983   22.2866 C   0  0  0  0  0  0  0  0  0  0  0  0
    7.1518   14.8507   23.8717 O   0  0  0  0  0  0  0  0  0  0  0  0
    5.8878   14.7223   24.3835 C   0  0  0  0  0  0  0  0  0  0  0  0
    4.8581   15.1386   23.8703 O   0  0  0  0  0  0  0  0  0  0  0  0
    5.8786   13.9321   25.6693 C   0  0  0  0  0  0  0  0  0  0  0  0
    6.3205   12.4777   25.3876 C   0  0  0  0  0  0  0  0  0  0  0  0
    7.4672   11.9176   26.2127 C   0  0  0  0  0  0  0  0  0  0  0  0
    8.3358   12.9935   26.7061 N   0  0  0  0  0  0  0  0  0  0  0  0
    9.4728   13.6276   25.6490 S   0  0  0  0  0  0  0  0  0  0  0  0
    9.6379   15.0166   26.0061 O   0  0  0  0  0  0  0  0  0  0  0  0
    9.1144   13.1928   24.3246 O   0  0  0  0  0  0  0  0  0  0  0  0
   10.8910   12.7922   26.0930 N   0  0  0  0  0  0  0  0  0  0  0  0
   11.8749   13.6443   26.8089 C   0  0  0  0  0  0  0  0  0  0  0  0
   13.3173   13.1537   26.6505 C   0  0  0  0  0  0  0  0  0  0  0  0
   13.4176   11.6827   26.6182 C   0  0  0  0  0  0  0  0  0  0  0  0
   12.6914   11.2231   25.3787 C   0  0  0  0  0  0  0  0  0  0  0  0
   11.4832   12.0691   24.9518 C   0  0  0  0  0  0  0  0  0  0  0  0
    7.5788   13.9465   27.5483 C   0  0  0  0  0  0  0  0  0  0  0  0
    6.6185   14.7559   26.7184 C   0  0  0  0  0  0  0  0  0  0  0  0
    8.7571   15.1438   21.9545 C   0  0  0  0  0  0  0  0  0  0  0  0
    9.1056   14.9371   20.6201 C   0  0  0  0  0  0  0  0  0  0  0  0
   10.4351   14.9212   20.1874 C   0  0  0  0  0  0  0  0  0  0  0  0
   11.4214   15.1157   21.1327 C   0  0  0  0  0  0  0  0  0  0  0  0
   11.1606   15.3579   22.4304 N   0  0  0  0  0  0  0  0  0  0  0  0
    9.8464   15.4082   22.7720 C   0  0  0  0  0  0  0  0  0  0  0  0
  1  2  1  0
  2  3  1  0
  3  4  2  0
  3  5  1  0
  5  6  1  1
  5  7  1  0
  7  8  1  0
  8  9  2  0
  8 10  1  0
 10 11  1  0
 11 12  1  0
 12 13  1  0
 13 14  1  0
 14 15  2  0
 14 16  2  0
 14 17  1  0
 17 18  1  0
 18 19  1  0
 19 20  1  0
 20 21  1  0
 21 22  1  0
 13 23  1  0
 23 24  1  0
  5 25  1  0
 25 26  2  0
 26 27  1  0
 27 28  2  0
 28 29  1  0
 29 30  2  0
 24 10  1  0
 30 25  1  0
 22 17  1  0
M  END
>  <energy_score>  (2859) 
-46.970921

>  <inchikey>  (2859) 
None

>  <smiles>  (2859) 
None

>  <ref_pdb>  (2859) 
A4706a

>  <alias>  (2859) 
None

>  <HIPPO Pose ID>  (2859) 
500503

>  <name>  (2859) 
P500503

>  <HIPPO Compound ID>  (2859) 
314837

>  <ref_mols>  (2859) 
A0875a,A4706a

>  <distance_score>  (2859) 
1.947329

>  <inspiration_score>  (2859) 
None

$$$$
P500504
     RDKit          3D

 30 32  0  0  0  0  0  0  0  0999 V2000
    8.2272   18.6369   20.3760 C   0  0  0  0  0  0  0  0  0  0  0  0
    8.6386   17.3271   20.7348 O   0  0  0  0  0  0  0  0  0  0  0  0
    7.8840   16.5333   21.5503 C   0  0  0  0  0  0  0  0  0  0  0  0
    7.0005   16.8518   22.3315 O   0  0  0  0  0  0  0  0  0  0  0  0
    8.2312   15.0697   21.2799 C   0  0  2  0  0  0  0  0  0  0  0  0
    8.0301   14.2113   22.3946 O   0  0  0  0  0  0  0  0  0  0  0  0
    6.7367   14.0205   22.7949 C   0  0  0  0  0  0  0  0  0  0  0  0
    5.7706   13.9350   22.0595 O   0  0  0  0  0  0  0  0  0  0  0  0
    6.7613   13.8878   24.2924 C   0  0  0  0  0  0  0  0  0  0  0  0
    6.2869   12.6211   24.9709 C   0  0  0  0  0  0  0  0  0  0  0  0
    6.8300   12.5812   26.4138 C   0  0  0  0  0  0  0  0  0  0  0  0
    7.5011   13.8474   26.8219 N   0  0  0  0  0  0  0  0  0  0  0  0
    9.1354   14.2723   26.5936 S   0  0  0  0  0  0  0  0  0  0  0  0
    9.3271   14.9316   25.3250 O   0  0  0  0  0  0  0  0  0  0  0  0
    9.5224   14.9799   27.7885 O   0  0  0  0  0  0  0  0  0  0  0  0
   10.0462   12.8536   26.5580 N   0  0  0  0  0  0  0  0  0  0  0  0
   11.5143   13.1392   26.6432 C   0  0  0  0  0  0  0  0  0  0  0  0
   12.1129   13.4884   25.2941 C   0  0  0  0  0  0  0  0  0  0  0  0
   11.5044   12.6928   24.1639 C   0  0  0  0  0  0  0  0  0  0  0  0
   10.8282   11.4377   24.6785 C   0  0  0  0  0  0  0  0  0  0  0  0
    9.6865   11.8379   25.5518 C   0  0  0  0  0  0  0  0  0  0  0  0
    6.5747   14.9941   26.5638 C   0  0  0  0  0  0  0  0  0  0  0  0
    6.3174   15.1329   25.0560 C   0  0  0  0  0  0  0  0  0  0  0  0
    9.6533   14.9811   20.8197 C   0  0  0  0  0  0  0  0  0  0  0  0
    9.9470   14.9796   19.4482 C   0  0  0  0  0  0  0  0  0  0  0  0
   11.2353   14.8203   19.0129 C   0  0  0  0  0  0  0  0  0  0  0  0
   12.2318   14.7787   19.9640 C   0  0  0  0  0  0  0  0  0  0  0  0
   11.9848   15.0138   21.3130 C   0  0  0  0  0  0  0  0  0  0  0  0
   10.6888   15.1166   21.7291 C   0  0  0  0  0  0  0  0  0  0  0  0
   10.4444   15.4101   23.0087 F   0  0  0  0  0  0  0  0  0  0  0  0
  1  2  1  0
  2  3  1  0
  3  4  2  0
  3  5  1  0
  5  6  1  1
  6  7  1  0
  7  8  2  0
  7  9  1  0
  9 10  1  0
 10 11  1  0
 11 12  1  0
 12 13  1  0
 13 14  2  0
 13 15  2  0
 13 16  1  0
 16 17  1  0
 17 18  1  0
 18 19  1  0
 19 20  1  0
 20 21  1  0
 12 22  1  0
 22 23  1  0
  5 24  1  0
 24 25  2  0
 25 26  1  0
 26 27  2  0
 27 28  1  0
 28 29  2  0
 29 30  1  0
 23  9  1  0
 29 24  1  0
 21 16  1  0
M  END
>  <energy_score>  (2860) 
-4.286493

>  <inchikey>  (2860) 
None

>  <smiles>  (2860) 
None

>  <ref_pdb>  (2860) 
A4706a

>  <alias>  (2860) 
None

>  <HIPPO Pose ID>  (2860) 
500504

>  <name>  (2860) 
P500504

>  <HIPPO Compound ID>  (2860) 
314842

>  <ref_mols>  (2860) 
A4706a,A0875a

>  <distance_score>  (2860) 
1.853449

>  <inspiration_score>  (2860) 
None

$$$$
P500505
     RDKit          3D

 30 32  0  0  0  0  0  0  0  0999 V2000
    6.0223   17.0194   23.8579 C   0  0  0  0  0  0  0  0  0  0  0  0
    6.3769   15.9092   23.0443 O   0  0  0  0  0  0  0  0  0  0  0  0
    7.3281   16.0413   22.0811 C   0  0  0  0  0  0  0  0  0  0  0  0
    7.8604   17.0889   21.7466 O   0  0  0  0  0  0  0  0  0  0  0  0
    7.6556   14.6791   21.4302 C   0  0  2  0  0  0  0  0  0  0  0  0
    7.4424   13.4532   22.1502 O   0  0  0  0  0  0  0  0  0  0  0  0
    6.3722   13.4505   22.9955 C   0  0  0  0  0  0  0  0  0  0  0  0
    5.2141   13.5170   22.6349 O   0  0  0  0  0  0  0  0  0  0  0  0
    6.9089   13.3338   24.3850 C   0  0  0  0  0  0  0  0  0  0  0  0
    7.5323   11.9684   24.6425 C   0  0  0  0  0  0  0  0  0  0  0  0
    8.0093   11.8542   26.0734 C   0  0  0  0  0  0  0  0  0  0  0  0
    8.3554   13.1762   26.6054 N   0  0  0  0  0  0  0  0  0  0  0  0
    9.7691   14.0008   26.1582 S   0  0  0  0  0  0  0  0  0  0  0  0
    9.6580   14.5221   24.8255 O   0  0  0  0  0  0  0  0  0  0  0  0
   10.0086   14.9152   27.2484 O   0  0  0  0  0  0  0  0  0  0  0  0
   10.9923   12.8461   26.1565 N   0  0  0  0  0  0  0  0  0  0  0  0
   11.1478   11.9530   24.9839 C   0  0  0  0  0  0  0  0  0  0  0  0
   12.2562   10.9776   25.3600 C   0  0  0  0  0  0  0  0  0  0  0  0
   13.6438   11.5335   25.4161 C   0  0  0  0  0  0  0  0  0  0  0  0
   13.5242   12.9698   25.8702 C   0  0  0  0  0  0  0  0  0  0  0  0
   12.2959   13.2642   26.7627 C   0  0  0  0  0  0  0  0  0  0  0  0
    7.1215   14.0476   26.7356 C   0  0  0  0  0  0  0  0  0  0  0  0
    6.1115   13.7788   25.5935 C   0  0  0  0  0  0  0  0  0  0  0  0
    9.1104   14.7423   20.9906 C   0  0  0  0  0  0  0  0  0  0  0  0
    9.5308   15.0590   19.6940 C   0  0  0  0  0  0  0  0  0  0  0  0
   10.8746   15.0728   19.3707 C   0  0  0  0  0  0  0  0  0  0  0  0
   11.7735   14.9152   20.3949 C   0  0  0  0  0  0  0  0  0  0  0  0
   11.2875   14.7512   21.6775 C   0  0  0  0  0  0  0  0  0  0  0  0
   12.1842   14.8027   22.8359 C   0  0  0  0  0  0  0  0  0  0  0  0
    9.9977   14.5756   21.9764 N   0  0  0  0  0  0  0  0  0  0  0  0
  1  2  1  0
  2  3  1  0
  3  4  2  0
  3  5  1  0
  5  6  1  1
  6  7  1  0
  7  8  2  0
  7  9  1  0
  9 10  1  0
 10 11  1  0
 11 12  1  0
 12 13  1  0
 13 14  2  0
 13 15  2  0
 13 16  1  0
 16 17  1  0
 17 18  1  0
 18 19  1  0
 19 20  1  0
 20 21  1  0
 12 22  1  0
 22 23  1  0
  5 24  1  0
 24 25  2  0
 25 26  1  0
 26 27  2  0
 27 28  1  0
 28 29  1  0
 28 30  2  0
 23  9  1  0
 30 24  1  0
 21 16  1  0
M  END
>  <energy_score>  (2861) 
-11.660651

>  <inchikey>  (2861) 
None

>  <smiles>  (2861) 
None

>  <ref_pdb>  (2861) 
A4706a

>  <alias>  (2861) 
None

>  <HIPPO Pose ID>  (2861) 
500505

>  <name>  (2861) 
P500505

>  <HIPPO Compound ID>  (2861) 
314846

>  <ref_mols>  (2861) 
A4706a,A0875a

>  <distance_score>  (2861) 
1.331558

>  <inspiration_score>  (2861) 
None

$$$$
P500506
     RDKit          3D

 30 31  0  0  0  0  0  0  0  0999 V2000
   14.7539   10.0505   31.5393 C   0  0  0  0  0  0  0  0  0  0  0  0
   14.6046   11.5573   31.6481 C   0  0  0  0  0  0  0  0  0  0  0  0
   14.8134   12.2025   30.3932 O   0  0  0  0  0  0  0  0  0  0  0  0
   16.1912   12.2527   29.9898 C   0  0  0  0  0  0  0  0  0  0  0  0
   16.5781   13.6191   29.7908 O   0  0  0  0  0  0  0  0  0  0  0  0
   16.7415   14.3253   31.0157 C   0  0  0  0  0  0  0  0  0  0  0  0
   17.1899   15.7375   30.6949 C   0  0  0  0  0  0  0  0  0  0  0  0
   16.3094   11.5104   28.6370 C   0  0  2  0  0  0  0  0  0  0  0  0
   17.7555   11.3493   28.1757 C   0  0  0  0  0  0  0  0  0  0  0  0
   18.4993   10.5074   29.1236 N   0  0  0  0  0  0  0  0  0  0  0  0
   19.5993   10.0932   28.7112 N   0  0  0  0  0  0  0  0  0  0  0  0
   20.6030    9.7132   28.3297 N   0  0  0  0  0  0  0  0  0  0  0  0
   15.5718   12.2963   27.6662 O   0  0  0  0  0  0  0  0  0  0  0  0
   14.8896   11.6376   26.7036 C   0  0  0  0  0  0  0  0  0  0  0  0
   15.0839   10.4910   26.3349 O   0  0  0  0  0  0  0  0  0  0  0  0
   13.7971   12.5338   26.1719 C   0  0  0  0  0  0  0  0  0  0  0  0
   12.9094   12.9746   27.3203 C   0  0  0  0  0  0  0  0  0  0  0  0
   11.6474   13.7185   26.9103 C   0  0  0  0  0  0  0  0  0  0  0  0
   10.9531   13.1061   25.7472 N   0  0  0  0  0  0  0  0  0  0  0  0
    9.5853   14.0256   25.2911 S   0  0  0  0  0  0  0  0  0  0  0  0
    9.2487   13.7642   23.9148 O   0  0  0  0  0  0  0  0  0  0  0  0
    9.7799   15.3658   25.7829 O   0  0  0  0  0  0  0  0  0  0  0  0
    8.4479   13.2710   26.2873 N   0  0  0  0  0  0  0  0  0  0  0  0
    7.2971   14.1249   26.6755 C   0  0  0  0  0  0  0  0  0  0  0  0
    6.3276   14.2786   25.5120 C   0  0  0  0  0  0  0  0  0  0  0  0
    6.0801   12.9550   24.7887 C   0  0  0  0  0  0  0  0  0  0  0  0
    6.5819   11.7687   25.6006 C   0  0  0  0  0  0  0  0  0  0  0  0
    8.0676   11.8913   25.8871 C   0  0  0  0  0  0  0  0  0  0  0  0
   11.8544   12.7877   24.6269 C   0  0  0  0  0  0  0  0  0  0  0  0
   12.9240   11.8321   25.1522 C   0  0  0  0  0  0  0  0  0  0  0  0
  1  2  1  0
  2  3  1  0
  3  4  1  0
  4  5  1  0
  5  6  1  0
  6  7  1  0
  4  8  1  0
  8  9  1  6
  9 10  1  0
 10 11  2  0
 11 12  2  0
  8 13  1  0
 13 14  1  0
 14 15  2  0
 14 16  1  0
 16 17  1  0
 17 18  1  0
 18 19  1  0
 19 20  1  0
 20 21  2  0
 20 22  2  0
 20 23  1  0
 23 24  1  0
 24 25  1  0
 25 26  1  0
 26 27  1  0
 27 28  1  0
 19 29  1  0
 29 30  1  0
 30 16  1  0
 28 23  1  0
M  CHG  2  11   1  12  -1
M  END
>  <energy_score>  (2862) 
-73.703773

>  <inchikey>  (2862) 
None

>  <smiles>  (2862) 
None

>  <ref_pdb>  (2862) 
A4706a

>  <alias>  (2862) 
None

>  <HIPPO Pose ID>  (2862) 
500506

>  <name>  (2862) 
P500506

>  <HIPPO Compound ID>  (2862) 
314850

>  <ref_mols>  (2862) 
A4706a,A0875a

>  <distance_score>  (2862) 
1.981127

>  <inspiration_score>  (2862) 
None

$$$$
P500507
     RDKit          3D

 30 32  0  0  0  0  0  0  0  0999 V2000
    4.4594   13.2634   21.0191 C   0  0  0  0  0  0  0  0  0  0  0  0
    5.7081   13.6928   21.5875 O   0  0  0  0  0  0  0  0  0  0  0  0
    5.7182   15.0410   21.8288 C   0  0  0  0  0  0  0  0  0  0  0  0
    4.7611   15.7571   21.5416 O   0  0  0  0  0  0  0  0  0  0  0  0
    6.9750   15.5223   22.5781 C   0  0  1  0  0  0  0  0  0  0  0  0
    6.8618   14.8788   23.8689 O   0  0  0  0  0  0  0  0  0  0  0  0
    5.7375   15.1150   24.5858 C   0  0  0  0  0  0  0  0  0  0  0  0
    4.9546   16.0340   24.3967 O   0  0  0  0  0  0  0  0  0  0  0  0
    5.5508   14.0893   25.6903 C   0  0  0  0  0  0  0  0  0  0  0  0
    5.8563   12.6499   25.2212 C   0  0  0  0  0  0  0  0  0  0  0  0
    6.9902   11.8973   25.9034 C   0  0  0  0  0  0  0  0  0  0  0  0
    7.9512   12.8241   26.5057 N   0  0  0  0  0  0  0  0  0  0  0  0
    9.0245   13.6017   25.4720 S   0  0  0  0  0  0  0  0  0  0  0  0
    9.0684   14.9846   25.8841 O   0  0  0  0  0  0  0  0  0  0  0  0
    8.7747   13.1689   24.1218 O   0  0  0  0  0  0  0  0  0  0  0  0
   10.5009   12.9276   25.8907 N   0  0  0  0  0  0  0  0  0  0  0  0
   10.7590   11.6026   25.2839 C   0  0  0  0  0  0  0  0  0  0  0  0
   12.1906   11.2084   25.6492 C   0  0  0  0  0  0  0  0  0  0  0  0
   13.2560   12.1078   25.1088 C   0  0  0  0  0  0  0  0  0  0  0  0
   12.6025   13.3889   24.6474 C   0  0  0  0  0  0  0  0  0  0  0  0
   11.6321   13.8765   25.7102 C   0  0  0  0  0  0  0  0  0  0  0  0
    7.2889   13.6680   27.5295 C   0  0  0  0  0  0  0  0  0  0  0  0
    6.2691   14.6103   26.9294 C   0  0  0  0  0  0  0  0  0  0  0  0
    8.3812   15.2621   21.9782 C   0  0  0  0  0  0  0  0  0  0  0  0
    8.6162   14.8599   20.6761 C   0  0  0  0  0  0  0  0  0  0  0  0
    9.9018   14.8083   20.1101 C   0  0  0  0  0  0  0  0  0  0  0  0
   11.0259   15.0286   20.8807 C   0  0  0  0  0  0  0  0  0  0  0  0
   12.2684   15.0506   20.2869 N   0  0  0  0  0  0  0  0  0  0  0  0
   10.8384   15.4331   22.1844 C   0  0  0  0  0  0  0  0  0  0  0  0
    9.5451   15.5391   22.7075 C   0  0  0  0  0  0  0  0  0  0  0  0
  1  2  1  0
  2  3  1  0
  3  4  2  0
  3  5  1  0
  5  6  1  1
  6  7  1  0
  7  8  2  0
  7  9  1  0
  9 10  1  0
 10 11  1  0
 11 12  1  0
 12 13  1  0
 13 14  2  0
 13 15  2  0
 13 16  1  0
 16 17  1  0
 17 18  1  0
 18 19  1  0
 19 20  1  0
 20 21  1  0
 12 22  1  0
 22 23  1  0
  5 24  1  0
 24 25  2  0
 25 26  1  0
 26 27  2  0
 27 28  1  0
 27 29  1  0
 29 30  2  0
 23  9  1  0
 30 24  1  0
 21 16  1  0
M  END
>  <energy_score>  (2863) 
-57.828159

>  <inchikey>  (2863) 
None

>  <smiles>  (2863) 
None

>  <ref_pdb>  (2863) 
A4706a

>  <alias>  (2863) 
None

>  <HIPPO Pose ID>  (2863) 
500507

>  <name>  (2863) 
P500507

>  <HIPPO Compound ID>  (2863) 
314855

>  <ref_mols>  (2863) 
A4706a,A0875a

>  <distance_score>  (2863) 
1.986125

>  <inspiration_score>  (2863) 
None

$$$$
P500508
     RDKit          3D

 30 32  0  0  0  0  0  0  0  0999 V2000
    7.7964   19.4987   19.2109 C   0  0  0  0  0  0  0  0  0  0  0  0
    8.1810   18.1942   19.5860 O   0  0  0  0  0  0  0  0  0  0  0  0
    8.3489   18.0395   20.9267 C   0  0  0  0  0  0  0  0  0  0  0  0
    8.5396   18.9841   21.6695 O   0  0  0  0  0  0  0  0  0  0  0  0
    8.2822   16.5426   21.3088 C   0  0  2  0  0  0  0  0  0  0  0  0
    7.8988   16.0982   22.5906 O   0  0  0  0  0  0  0  0  0  0  0  0
    6.5835   15.7698   22.8376 C   0  0  0  0  0  0  0  0  0  0  0  0
    5.5958   15.9766   22.1576 O   0  0  0  0  0  0  0  0  0  0  0  0
    6.6104   14.9858   24.1108 C   0  0  0  0  0  0  0  0  0  0  0  0
    6.7805   13.4911   23.8284 C   0  0  0  0  0  0  0  0  0  0  0  0
    7.0408   12.7347   25.1189 C   0  0  0  0  0  0  0  0  0  0  0  0
    7.6571   13.6450   26.1050 N   0  0  0  0  0  0  0  0  0  0  0  0
    9.2838   14.1448   25.8942 S   0  0  0  0  0  0  0  0  0  0  0  0
    9.4476   15.2343   24.9716 O   0  0  0  0  0  0  0  0  0  0  0  0
    9.8119   14.2591   27.2313 O   0  0  0  0  0  0  0  0  0  0  0  0
    9.9119   12.8027   25.1294 N   0  0  0  0  0  0  0  0  0  0  0  0
   10.4871   12.8891   23.7926 C   0  0  0  0  0  0  0  0  0  0  0  0
   11.9342   13.3376   23.8992 C   0  0  0  0  0  0  0  0  0  0  0  0
   12.7908   12.6598   24.9666 C   0  0  0  0  0  0  0  0  0  0  0  0
   12.0505   12.4991   26.2625 C   0  0  0  0  0  0  0  0  0  0  0  0
   10.6626   11.9336   25.9793 C   0  0  0  0  0  0  0  0  0  0  0  0
    6.6809   14.7137   26.5504 C   0  0  0  0  0  0  0  0  0  0  0  0
    5.7992   15.2116   25.3628 C   0  0  0  0  0  0  0  0  0  0  0  0
    9.5737   15.8710   20.8774 C   0  0  0  0  0  0  0  0  0  0  0  0
    9.7016   15.4067   19.5550 C   0  0  0  0  0  0  0  0  0  0  0  0
   10.8489   14.8103   19.1103 C   0  0  0  0  0  0  0  0  0  0  0  0
   11.8816   14.6988   19.9956 C   0  0  0  0  0  0  0  0  0  0  0  0
   12.9423   14.0432   19.5653 F   0  0  0  0  0  0  0  0  0  0  0  0
   11.8430   15.2350   21.2755 C   0  0  0  0  0  0  0  0  0  0  0  0
   10.6726   15.8081   21.7294 C   0  0  0  0  0  0  0  0  0  0  0  0
  1  2  1  0
  2  3  1  0
  3  4  2  0
  3  5  1  0
  5  6  1  1
  6  7  1  0
  7  8  2  0
  7  9  1  0
  9 10  1  0
 10 11  1  0
 11 12  1  0
 12 13  1  0
 13 14  2  0
 13 15  2  0
 13 16  1  0
 16 17  1  0
 17 18  1  0
 18 19  1  0
 19 20  1  0
 20 21  1  0
 12 22  1  0
 22 23  1  0
  5 24  1  0
 24 25  2  0
 25 26  1  0
 26 27  2  0
 27 28  1  0
 27 29  1  0
 29 30  2  0
 23  9  1  0
 30 24  1  0
 21 16  1  0
M  END
>  <energy_score>  (2864) 
-27.255658

>  <inchikey>  (2864) 
None

>  <smiles>  (2864) 
None

>  <ref_pdb>  (2864) 
A4706a

>  <alias>  (2864) 
None

>  <HIPPO Pose ID>  (2864) 
500508

>  <name>  (2864) 
P500508

>  <HIPPO Compound ID>  (2864) 
314857

>  <ref_mols>  (2864) 
A0875a,A4706a

>  <distance_score>  (2864) 
1.964237

>  <inspiration_score>  (2864) 
None

$$$$
P500509
     RDKit          3D

 30 32  0  0  0  0  0  0  0  0999 V2000
    4.5836   13.8927   20.9225 C   0  0  0  0  0  0  0  0  0  0  0  0
    5.9395   14.3482   21.0732 O   0  0  0  0  0  0  0  0  0  0  0  0
    6.0467   15.4568   21.8487 C   0  0  0  0  0  0  0  0  0  0  0  0
    5.0574   16.1174   22.1786 O   0  0  0  0  0  0  0  0  0  0  0  0
    7.4487   15.7782   22.3848 C   0  0  1  0  0  0  0  0  0  0  0  0
    7.3672   15.3113   23.7646 O   0  0  0  0  0  0  0  0  0  0  0  0
    6.7646   14.0983   23.9606 C   0  0  0  0  0  0  0  0  0  0  0  0
    6.6388   13.2120   23.1230 O   0  0  0  0  0  0  0  0  0  0  0  0
    6.1470   13.9884   25.3356 C   0  0  0  0  0  0  0  0  0  0  0  0
    6.1795   12.5198   25.7770 C   0  0  0  0  0  0  0  0  0  0  0  0
    7.2846   12.2493   26.7739 C   0  0  0  0  0  0  0  0  0  0  0  0
    8.5091   13.0586   26.5114 N   0  0  0  0  0  0  0  0  0  0  0  0
    9.5550   12.4029   25.3844 S   0  0  0  0  0  0  0  0  0  0  0  0
    9.0739   12.7311   24.0756 O   0  0  0  0  0  0  0  0  0  0  0  0
    9.7453   11.0215   25.7247 O   0  0  0  0  0  0  0  0  0  0  0  0
   11.0178   13.1840   25.5812 N   0  0  0  0  0  0  0  0  0  0  0  0
   11.5627   13.6060   26.8745 C   0  0  0  0  0  0  0  0  0  0  0  0
   12.8538   12.8989   27.3205 C   0  0  0  0  0  0  0  0  0  0  0  0
   13.7942   12.3964   26.2498 C   0  0  0  0  0  0  0  0  0  0  0  0
   12.9821   11.7781   25.1510 C   0  0  0  0  0  0  0  0  0  0  0  0
   12.0325   12.8220   24.5812 C   0  0  0  0  0  0  0  0  0  0  0  0
    8.2917   14.5178   26.5373 C   0  0  0  0  0  0  0  0  0  0  0  0
    6.8237   14.8867   26.3648 C   0  0  0  0  0  0  0  0  0  0  0  0
    8.7905   15.4888   21.6860 C   0  0  0  0  0  0  0  0  0  0  0  0
    9.1559   16.0787   20.4740 C   0  0  0  0  0  0  0  0  0  0  0  0
   10.2604   15.6561   19.7227 C   0  0  0  0  0  0  0  0  0  0  0  0
   11.1700   14.8086   20.3026 C   0  0  0  0  0  0  0  0  0  0  0  0
   12.2464   14.4089   19.6179 F   0  0  0  0  0  0  0  0  0  0  0  0
   11.0112   14.4569   21.6247 C   0  0  0  0  0  0  0  0  0  0  0  0
    9.8434   14.8189   22.3054 C   0  0  0  0  0  0  0  0  0  0  0  0
  1  2  1  0
  2  3  1  0
  3  4  2  0
  3  5  1  0
  5  6  1  1
  6  7  1  0
  7  8  2  0
  7  9  1  0
  9 10  1  0
 10 11  1  0
 11 12  1  0
 12 13  1  0
 13 14  2  0
 13 15  2  0
 13 16  1  0
 16 17  1  0
 17 18  1  0
 18 19  1  0
 19 20  1  0
 20 21  1  0
 12 22  1  0
 22 23  1  0
  5 24  1  0
 24 25  2  0
 25 26  1  0
 26 27  2  0
 27 28  1  0
 27 29  1  0
 29 30  2  0
 23  9  1  0
 30 24  1  0
 21 16  1  0
M  END
>  <energy_score>  (2865) 
-14.877533

>  <inchikey>  (2865) 
None

>  <smiles>  (2865) 
None

>  <ref_pdb>  (2865) 
A4706a

>  <alias>  (2865) 
None

>  <HIPPO Pose ID>  (2865) 
500509

>  <name>  (2865) 
P500509

>  <HIPPO Compound ID>  (2865) 
314857

>  <ref_mols>  (2865) 
A4706a,A0875a

>  <distance_score>  (2865) 
1.914939

>  <inspiration_score>  (2865) 
None

$$$$
P500510
     RDKit          3D

 30 33  0  0  0  0  0  0  0  0999 V2000
    6.9147   14.2091   21.5305 O   0  0  0  0  0  0  0  0  0  0  0  0
    7.3354   14.8389   22.4898 C   0  0  0  0  0  0  0  0  0  0  0  0
    7.7397   16.1344   22.4768 O   0  0  0  0  0  0  0  0  0  0  0  0
    8.9589   16.5751   21.7809 C   0  0  0  0  0  0  0  0  0  0  0  0
   10.2610   16.1186   22.4700 C   0  0  0  0  0  0  0  0  0  0  0  0
   10.6968   14.6880   22.3736 C   0  0  1  0  0  0  0  0  0  0  0  0
   10.1627   13.8419   21.2845 C   0  0  0  0  0  0  0  0  0  0  0  0
   11.0620   14.3419   20.2223 C   0  0  0  0  0  0  0  0  0  0  0  0
   10.6536   14.3884   18.7892 C   0  0  0  0  0  0  0  0  0  0  0  0
   11.7948   15.3215   17.9268 Cl  0  0  0  0  0  0  0  0  0  0  0  0
   12.1758   14.8051   20.6874 N   0  0  0  0  0  0  0  0  0  0  0  0
   12.0962   14.6948   22.0902 O   0  0  0  0  0  0  0  0  0  0  0  0
    9.1218   16.4807   20.2905 C   0  0  0  0  0  0  0  0  0  0  0  0
    8.5144   17.7536   20.0291 O   0  0  0  0  0  0  0  0  0  0  0  0
    8.8713   18.1114   21.3675 C   0  0  0  0  0  0  0  0  0  0  0  0
    7.5778   14.2267   23.8542 C   0  0  0  0  0  0  0  0  0  0  0  0
    7.4723   12.7093   23.9518 C   0  0  0  0  0  0  0  0  0  0  0  0
    8.0814   12.1562   25.2441 C   0  0  0  0  0  0  0  0  0  0  0  0
    8.3064   13.2107   26.2388 N   0  0  0  0  0  0  0  0  0  0  0  0
    9.7479   14.0408   26.4649 S   0  0  0  0  0  0  0  0  0  0  0  0
    9.9875   14.9766   25.3973 O   0  0  0  0  0  0  0  0  0  0  0  0
    9.6520   14.5581   27.8085 O   0  0  0  0  0  0  0  0  0  0  0  0
   11.0603   12.9558   26.4536 N   0  0  0  0  0  0  0  0  0  0  0  0
   11.5616   12.4669   25.1486 C   0  0  0  0  0  0  0  0  0  0  0  0
   12.6257   11.3829   25.4024 C   0  0  0  0  0  0  0  0  0  0  0  0
   13.5255   11.6303   26.5990 C   0  0  0  0  0  0  0  0  0  0  0  0
   13.5940   13.0903   26.7970 C   0  0  0  0  0  0  0  0  0  0  0  0
   12.2064   13.6294   27.1839 C   0  0  0  0  0  0  0  0  0  0  0  0
    7.0886   14.0891   26.3392 C   0  0  0  0  0  0  0  0  0  0  0  0
    6.8803   14.8870   25.0401 C   0  0  0  0  0  0  0  0  0  0  0  0
  1  2  2  0
  2  3  1  0
  3  4  1  0
  4  5  1  0
  6  5  1  6
  6  7  1  0
  7  8  1  0
  8  9  1  0
  9 10  1  0
  8 11  2  0
 11 12  1  0
  4 13  1  0
 13 14  1  0
 14 15  1  0
  2 16  1  0
 16 17  1  0
 17 18  1  0
 18 19  1  0
 19 20  1  0
 20 21  2  0
 20 22  2  0
 20 23  1  0
 23 24  1  0
 24 25  1  0
 25 26  1  0
 26 27  1  0
 27 28  1  0
 19 29  1  0
 29 30  1  0
 15  4  1  0
 30 16  1  0
 12  6  1  0
 28 23  1  0
M  END
>  <energy_score>  (2866) 
-6.105974

>  <inchikey>  (2866) 
None

>  <smiles>  (2866) 
None

>  <ref_pdb>  (2866) 
A4706a

>  <alias>  (2866) 
None

>  <HIPPO Pose ID>  (2866) 
500510

>  <name>  (2866) 
P500510

>  <HIPPO Compound ID>  (2866) 
314859

>  <ref_mols>  (2866) 
A0875a,A4706a

>  <distance_score>  (2866) 
1.811774

>  <inspiration_score>  (2866) 
None

$$$$
P500511
     RDKit          3D

 30 32  0  0  0  0  0  0  0  0999 V2000
    8.5131   18.3806   21.0770 C   0  0  0  0  0  0  0  0  0  0  0  0
    8.3946   16.9789   20.9141 O   0  0  0  0  0  0  0  0  0  0  0  0
    7.6816   16.1727   21.7495 C   0  0  0  0  0  0  0  0  0  0  0  0
    6.9875   16.4927   22.7017 O   0  0  0  0  0  0  0  0  0  0  0  0
    7.9313   14.7057   21.2847 C   0  0  2  0  0  0  0  0  0  0  0  0
    7.5631   13.5979   22.0952 O   0  0  0  0  0  0  0  0  0  0  0  0
    6.4564   13.7825   22.8699 C   0  0  0  0  0  0  0  0  0  0  0  0
    5.3455   14.0342   22.4495 O   0  0  0  0  0  0  0  0  0  0  0  0
    6.9162   13.6103   24.2863 C   0  0  0  0  0  0  0  0  0  0  0  0
    7.5693   12.2408   24.5046 C   0  0  0  0  0  0  0  0  0  0  0  0
    7.9835   12.0146   25.9408 C   0  0  0  0  0  0  0  0  0  0  0  0
    8.1276   13.2894   26.6373 N   0  0  0  0  0  0  0  0  0  0  0  0
    9.5068   14.2429   26.4661 S   0  0  0  0  0  0  0  0  0  0  0  0
    9.5387   15.0569   27.6548 O   0  0  0  0  0  0  0  0  0  0  0  0
    9.5464   14.8760   25.1728 O   0  0  0  0  0  0  0  0  0  0  0  0
   10.8233   13.1222   26.5393 N   0  0  0  0  0  0  0  0  0  0  0  0
   11.9139   13.7255   27.3683 C   0  0  0  0  0  0  0  0  0  0  0  0
   13.1581   12.8418   27.4443 C   0  0  0  0  0  0  0  0  0  0  0  0
   13.6780   12.4012   26.0988 C   0  0  0  0  0  0  0  0  0  0  0  0
   12.5520   11.8896   25.2407 C   0  0  0  0  0  0  0  0  0  0  0  0
   11.3453   12.8032   25.1784 C   0  0  0  0  0  0  0  0  0  0  0  0
    6.8290   14.0558   26.7209 C   0  0  0  0  0  0  0  0  0  0  0  0
    5.9866   13.9222   25.4364 C   0  0  0  0  0  0  0  0  0  0  0  0
    9.4219   14.5977   20.9957 C   0  0  0  0  0  0  0  0  0  0  0  0
    9.9346   14.9103   19.7213 C   0  0  0  0  0  0  0  0  0  0  0  0
   11.2897   15.0445   19.5226 C   0  0  0  0  0  0  0  0  0  0  0  0
   12.1162   15.0001   20.6345 C   0  0  0  0  0  0  0  0  0  0  0  0
   11.6280   14.7047   21.8925 C   0  0  0  0  0  0  0  0  0  0  0  0
   12.4468   14.6982   22.9469 F   0  0  0  0  0  0  0  0  0  0  0  0
   10.2939   14.4580   22.0705 C   0  0  0  0  0  0  0  0  0  0  0  0
  1  2  1  0
  2  3  1  0
  3  4  2  0
  3  5  1  0
  5  6  1  1
  6  7  1  0
  7  8  2  0
  7  9  1  0
  9 10  1  0
 10 11  1  0
 11 12  1  0
 12 13  1  0
 13 14  2  0
 13 15  2  0
 13 16  1  0
 16 17  1  0
 17 18  1  0
 18 19  1  0
 19 20  1  0
 20 21  1  0
 12 22  1  0
 22 23  1  0
  5 24  1  0
 24 25  2  0
 25 26  1  0
 26 27  2  0
 27 28  1  0
 28 29  1  0
 28 30  2  0
 23  9  1  0
 30 24  1  0
 21 16  1  0
M  END
>  <energy_score>  (2867) 
-39.293825

>  <inchikey>  (2867) 
None

>  <smiles>  (2867) 
None

>  <ref_pdb>  (2867) 
A4706a

>  <alias>  (2867) 
None

>  <HIPPO Pose ID>  (2867) 
500511

>  <name>  (2867) 
P500511

>  <HIPPO Compound ID>  (2867) 
314860

>  <ref_mols>  (2867) 
A4706a,A0875a

>  <distance_score>  (2867) 
1.555088

>  <inspiration_score>  (2867) 
None

$$$$
P500512
     RDKit          3D

 30 32  0  0  0  0  0  0  0  0999 V2000
    3.8521   14.7681   21.9271 C   0  0  0  0  0  0  0  0  0  0  0  0
    5.0361   15.4937   22.2725 O   0  0  0  0  0  0  0  0  0  0  0  0
    6.1757   14.9410   21.7345 C   0  0  0  0  0  0  0  0  0  0  0  0
    6.1339   14.0640   20.8893 O   0  0  0  0  0  0  0  0  0  0  0  0
    7.4287   15.4959   22.4124 C   0  0  1  0  0  0  0  0  0  0  0  0
    7.2613   15.0660   23.7955 O   0  0  0  0  0  0  0  0  0  0  0  0
    6.8199   13.7852   23.9858 C   0  0  0  0  0  0  0  0  0  0  0  0
    6.8741   12.8821   23.1570 O   0  0  0  0  0  0  0  0  0  0  0  0
    6.1320   13.5916   25.3229 C   0  0  0  0  0  0  0  0  0  0  0  0
    6.3371   12.1376   25.7752 C   0  0  0  0  0  0  0  0  0  0  0  0
    7.8052   11.8232   26.0538 C   0  0  0  0  0  0  0  0  0  0  0  0
    8.4969   13.0092   26.6179 N   0  0  0  0  0  0  0  0  0  0  0  0
    9.7045   13.7241   25.6946 S   0  0  0  0  0  0  0  0  0  0  0  0
    9.4339   13.4232   24.3174 O   0  0  0  0  0  0  0  0  0  0  0  0
    9.8551   15.0788   26.1648 O   0  0  0  0  0  0  0  0  0  0  0  0
   11.0708   12.8133   26.1379 N   0  0  0  0  0  0  0  0  0  0  0  0
   11.6212   12.0638   24.9931 C   0  0  0  0  0  0  0  0  0  0  0  0
   12.8264   11.1977   25.3752 C   0  0  0  0  0  0  0  0  0  0  0  0
   13.5897   11.6333   26.6003 C   0  0  0  0  0  0  0  0  0  0  0  0
   13.5121   13.1064   26.6535 C   0  0  0  0  0  0  0  0  0  0  0  0
   12.0776   13.5902   26.8908 C   0  0  0  0  0  0  0  0  0  0  0  0
    7.5928   13.9320   27.3512 C   0  0  0  0  0  0  0  0  0  0  0  0
    6.5810   14.5667   26.4136 C   0  0  0  0  0  0  0  0  0  0  0  0
    8.8338   15.2680   21.8184 C   0  0  0  0  0  0  0  0  0  0  0  0
    9.0681   14.9964   20.4703 C   0  0  0  0  0  0  0  0  0  0  0  0
   10.3482   14.8725   19.9066 C   0  0  0  0  0  0  0  0  0  0  0  0
   11.4558   14.9566   20.7264 C   0  0  0  0  0  0  0  0  0  0  0  0
   11.2626   15.2232   22.0670 C   0  0  0  0  0  0  0  0  0  0  0  0
   12.3164   15.2466   22.8865 F   0  0  0  0  0  0  0  0  0  0  0  0
    9.9889   15.4496   22.5846 C   0  0  0  0  0  0  0  0  0  0  0  0
  1  2  1  0
  2  3  1  0
  3  4  2  0
  3  5  1  0
  5  6  1  1
  6  7  1  0
  7  8  2  0
  7  9  1  0
  9 10  1  0
 10 11  1  0
 11 12  1  0
 12 13  1  0
 13 14  2  0
 13 15  2  0
 13 16  1  0
 16 17  1  0
 17 18  1  0
 18 19  1  0
 19 20  1  0
 20 21  1  0
 12 22  1  0
 22 23  1  0
  5 24  1  0
 24 25  2  0
 25 26  1  0
 26 27  2  0
 27 28  1  0
 28 29  1  0
 28 30  2  0
 23  9  1  0
 30 24  1  0
 21 16  1  0
M  END
>  <energy_score>  (2868) 
-46.171273

>  <inchikey>  (2868) 
None

>  <smiles>  (2868) 
None

>  <ref_pdb>  (2868) 
A4706a

>  <alias>  (2868) 
None

>  <HIPPO Pose ID>  (2868) 
500512

>  <name>  (2868) 
P500512

>  <HIPPO Compound ID>  (2868) 
314860

>  <ref_mols>  (2868) 
A4706a,A0875a

>  <distance_score>  (2868) 
1.675781

>  <inspiration_score>  (2868) 
None

$$$$
P500513
     RDKit          3D

 30 32  0  0  0  0  0  0  0  0999 V2000
    6.0475   17.1334   23.6558 C   0  0  0  0  0  0  0  0  0  0  0  0
    6.4898   16.0492   22.8536 O   0  0  0  0  0  0  0  0  0  0  0  0
    7.5435   16.2253   21.9955 C   0  0  0  0  0  0  0  0  0  0  0  0
    8.0238   17.2864   21.6328 O   0  0  0  0  0  0  0  0  0  0  0  0
    8.0715   14.8639   21.5602 C   0  0  2  0  0  0  0  0  0  0  0  0
    7.9146   13.9413   22.6720 O   0  0  0  0  0  0  0  0  0  0  0  0
    6.6571   13.4859   22.9168 C   0  0  0  0  0  0  0  0  0  0  0  0
    5.8408   13.3041   22.0189 O   0  0  0  0  0  0  0  0  0  0  0  0
    6.3466   13.1009   24.3780 C   0  0  0  0  0  0  0  0  0  0  0  0
    7.0937   11.8147   24.7506 C   0  0  0  0  0  0  0  0  0  0  0  0
    7.4878   11.6496   26.1994 C   0  0  0  0  0  0  0  0  0  0  0  0
    8.0119   12.8977   26.7466 N   0  0  0  0  0  0  0  0  0  0  0  0
    9.4195   13.5626   26.1083 S   0  0  0  0  0  0  0  0  0  0  0  0
    9.7636   14.6841   26.9460 O   0  0  0  0  0  0  0  0  0  0  0  0
    9.1716   13.7273   24.7115 O   0  0  0  0  0  0  0  0  0  0  0  0
   10.6577   12.4070   26.1951 N   0  0  0  0  0  0  0  0  0  0  0  0
   11.9891   13.0991   26.2611 C   0  0  0  0  0  0  0  0  0  0  0  0
   13.1239   12.1087   26.4571 C   0  0  0  0  0  0  0  0  0  0  0  0
   13.0899   11.0187   25.3986 C   0  0  0  0  0  0  0  0  0  0  0  0
   11.6924   10.3694   25.2625 C   0  0  0  0  0  0  0  0  0  0  0  0
   10.6420   11.4424   25.0427 C   0  0  0  0  0  0  0  0  0  0  0  0
    6.8880   13.8825   26.7859 C   0  0  0  0  0  0  0  0  0  0  0  0
    6.4760   14.2711   25.3684 C   0  0  0  0  0  0  0  0  0  0  0  0
    9.4966   14.9460   21.0013 C   0  0  0  0  0  0  0  0  0  0  0  0
    9.6782   15.0162   19.6102 C   0  0  0  0  0  0  0  0  0  0  0  0
   10.9143   14.8539   19.0021 C   0  0  0  0  0  0  0  0  0  0  0  0
   12.0268   14.7386   19.7899 C   0  0  0  0  0  0  0  0  0  0  0  0
   11.9143   14.9386   21.1472 C   0  0  0  0  0  0  0  0  0  0  0  0
   10.6669   15.0496   21.7375 C   0  0  0  0  0  0  0  0  0  0  0  0
   10.7714   15.5336   23.5155 Br  0  0  0  0  0  0  0  0  0  0  0  0
  1  2  1  0
  2  3  1  0
  3  4  2  0
  3  5  1  0
  5  6  1  1
  6  7  1  0
  7  8  2  0
  7  9  1  0
  9 10  1  0
 10 11  1  0
 11 12  1  0
 12 13  1  0
 13 14  2  0
 13 15  2  0
 13 16  1  0
 16 17  1  0
 17 18  1  0
 18 19  1  0
 19 20  1  0
 20 21  1  0
 12 22  1  0
 22 23  1  0
  5 24  1  0
 24 25  2  0
 25 26  1  0
 26 27  2  0
 27 28  1  0
 28 29  2  0
 29 30  1  0
 23  9  1  0
 29 24  1  0
 21 16  1  0
M  END
>  <energy_score>  (2869) 
-9.430214

>  <inchikey>  (2869) 
None

>  <smiles>  (2869) 
None

>  <ref_pdb>  (2869) 
A4706a

>  <alias>  (2869) 
None

>  <HIPPO Pose ID>  (2869) 
500513

>  <name>  (2869) 
P500513

>  <HIPPO Compound ID>  (2869) 
314865

>  <ref_mols>  (2869) 
A4706a,A0875a

>  <distance_score>  (2869) 
1.263052

>  <inspiration_score>  (2869) 
None

$$$$
P500514
     RDKit          3D

 30 33  0  0  0  0  0  0  0  0999 V2000
    7.1891   16.3332   21.8345 C   0  0  0  0  0  0  0  0  0  0  0  0
    8.5264   16.6637   21.2199 C   0  0  0  0  0  0  0  0  0  0  0  0
    8.5662   18.0807   20.6575 C   0  0  0  0  0  0  0  0  0  0  0  0
    9.5273   16.5197   22.2182 O   0  0  0  0  0  0  0  0  0  0  0  0
   10.6151   15.8934   21.5965 C   0  0  2  0  0  0  0  0  0  0  0  0
   10.2519   15.7262   20.1557 C   0  0  2  0  0  0  0  0  0  0  0  0
    8.8546   15.6823   20.2240 O   0  0  0  0  0  0  0  0  0  0  0  0
   11.0846   14.5405   19.8122 C   0  0  0  0  0  0  0  0  0  0  0  0
   11.4036   14.2247   18.6811 O   0  0  0  0  0  0  0  0  0  0  0  0
   11.4846   13.9068   20.9623 O   0  0  0  0  0  0  0  0  0  0  0  0
   10.7367   14.4638   22.0487 C   0  0  2  0  0  0  0  0  0  0  0  0
    9.3914   13.7133   22.2361 C   0  0  0  0  0  0  0  0  0  0  0  0
    8.5256   14.2743   23.2589 O   0  0  0  0  0  0  0  0  0  0  0  0
    7.2028   13.8671   23.2239 C   0  0  0  0  0  0  0  0  0  0  0  0
    6.7222   13.1498   22.3462 O   0  0  0  0  0  0  0  0  0  0  0  0
    6.3584   14.3843   24.4119 C   0  0  0  0  0  0  0  0  0  0  0  0
    5.6906   13.2284   25.1903 C   0  0  0  0  0  0  0  0  0  0  0  0
    6.3037   13.0261   26.5843 C   0  0  0  0  0  0  0  0  0  0  0  0
    7.7933   13.1716   26.5193 N   0  0  0  0  0  0  0  0  0  0  0  0
    8.4611   11.8928   25.6962 S   0  0  0  0  0  0  0  0  0  0  0  0
    7.9211   10.7025   26.2964 O   0  0  0  0  0  0  0  0  0  0  0  0
    8.2584   12.0590   24.2906 O   0  0  0  0  0  0  0  0  0  0  0  0
   10.1014   11.8082   25.8651 N   0  0  0  0  0  0  0  0  0  0  0  0
   10.9999   12.9665   25.9011 C   0  0  0  0  0  0  0  0  0  0  0  0
   12.4117   12.4983   26.2771 C   0  0  0  0  0  0  0  0  0  0  0  0
   12.8996   11.2995   25.4772 C   0  0  0  0  0  0  0  0  0  0  0  0
   11.8197   10.2258   25.2683 C   0  0  0  0  0  0  0  0  0  0  0  0
   10.5345   10.8387   24.8159 C   0  0  0  0  0  0  0  0  0  0  0  0
    8.1694   14.5548   26.1806 C   0  0  0  0  0  0  0  0  0  0  0  0
    7.0872   15.2892   25.4041 C   0  0  0  0  0  0  0  0  0  0  0  0
  1  2  1  0
  2  3  1  0
  2  4  1  0
  5  4  1  1
  5  6  1  0
  6  7  1  1
  6  8  1  0
  8  9  2  0
  8 10  1  0
 10 11  1  0
 11 12  1  6
 12 13  1  0
 13 14  1  0
 14 15  2  0
 14 16  1  0
 16 17  1  0
 17 18  1  0
 18 19  1  0
 19 20  1  0
 20 21  2  0
 20 22  2  0
 20 23  1  0
 23 24  1  0
 24 25  1  0
 25 26  1  0
 26 27  1  0
 27 28  1  0
 19 29  1  0
 29 30  1  0
  7  2  1  0
 30 16  1  0
 11  5  1  0
 28 23  1  0
M  END
>  <energy_score>  (2870) 
-51.080246

>  <inchikey>  (2870) 
None

>  <smiles>  (2870) 
None

>  <ref_pdb>  (2870) 
A4706a

>  <alias>  (2870) 
None

>  <HIPPO Pose ID>  (2870) 
500514

>  <name>  (2870) 
P500514

>  <HIPPO Compound ID>  (2870) 
314866

>  <ref_mols>  (2870) 
A4706a,A0875a

>  <distance_score>  (2870) 
1.882893

>  <inspiration_score>  (2870) 
None

$$$$
P500515
     RDKit          3D

 30 33  0  0  0  0  0  0  0  0999 V2000
   12.2036   14.3842   22.9538 C   0  0  0  0  0  0  0  0  0  0  0  0
   11.5260   14.8598   21.7244 C   0  0  0  0  0  0  0  0  0  0  0  0
   12.4044   15.1218   20.5524 C   0  0  0  0  0  0  0  0  0  0  0  0
   10.8574   16.0645   22.0818 O   0  0  0  0  0  0  0  0  0  0  0  0
    9.5116   15.6263   22.1004 C   0  0  1  0  0  0  0  0  0  0  0  0
    8.5343   16.6301   21.6554 C   0  0  2  0  0  0  0  0  0  0  0  0
    7.1246   16.1988   22.1600 C   0  0  0  0  0  0  0  0  0  0  0  0
    6.7245   14.8564   21.8188 O   0  0  0  0  0  0  0  0  0  0  0  0
    6.3762   13.8772   22.6791 C   0  0  0  0  0  0  0  0  0  0  0  0
    5.6392   12.9843   22.2817 O   0  0  0  0  0  0  0  0  0  0  0  0
    6.9803   13.8345   24.0633 C   0  0  0  0  0  0  0  0  0  0  0  0
    7.4688   12.4002   24.3703 C   0  0  0  0  0  0  0  0  0  0  0  0
    7.7095   12.1432   25.8440 C   0  0  0  0  0  0  0  0  0  0  0  0
    8.1444   13.3661   26.4986 N   0  0  0  0  0  0  0  0  0  0  0  0
    9.6737   14.0371   26.3131 S   0  0  0  0  0  0  0  0  0  0  0  0
    9.7174   14.7559   25.0707 O   0  0  0  0  0  0  0  0  0  0  0  0
    9.8878   14.7687   27.5367 O   0  0  0  0  0  0  0  0  0  0  0  0
   10.8406   12.8264   26.2388 N   0  0  0  0  0  0  0  0  0  0  0  0
   12.1913   13.2630   26.7574 C   0  0  0  0  0  0  0  0  0  0  0  0
   13.3910   12.9592   25.8358 C   0  0  0  0  0  0  0  0  0  0  0  0
   13.4787   11.5436   25.3241 C   0  0  0  0  0  0  0  0  0  0  0  0
   12.1001   10.9696   25.3596 C   0  0  0  0  0  0  0  0  0  0  0  0
   10.9312   11.9050   25.0824 C   0  0  0  0  0  0  0  0  0  0  0  0
    7.0226   14.3811   26.5244 C   0  0  0  0  0  0  0  0  0  0  0  0
    6.1579   14.3403   25.2378 C   0  0  0  0  0  0  0  0  0  0  0  0
    8.8111   16.6947   20.2616 O   0  0  0  0  0  0  0  0  0  0  0  0
    9.3998   15.5414   19.8426 C   0  0  0  0  0  0  0  0  0  0  0  0
    9.7832   15.3691   18.7042 O   0  0  0  0  0  0  0  0  0  0  0  0
    9.4708   14.5980   21.0221 C   0  0  1  0  0  0  0  0  0  0  0  0
   10.5921   13.8622   21.3515 O   0  0  0  0  0  0  0  0  0  0  0  0
  1  2  1  0
  2  3  1  0
  2  4  1  0
  5  4  1  6
  5  6  1  0
  6  7  1  6
  7  8  1  0
  8  9  1  0
  9 10  2  0
  9 11  1  0
 11 12  1  0
 12 13  1  0
 13 14  1  0
 14 15  1  0
 15 16  2  0
 15 17  2  0
 15 18  1  0
 18 19  1  0
 19 20  1  0
 20 21  1  0
 21 22  1  0
 22 23  1  0
 14 24  1  0
 24 25  1  0
  6 26  1  0
 26 27  1  0
 27 28  2  0
 27 29  1  0
 29 30  1  6
 30  2  1  0
 29  5  1  0
 25 11  1  0
 23 18  1  0
M  END
>  <energy_score>  (2871) 
-20.041828

>  <inchikey>  (2871) 
None

>  <smiles>  (2871) 
None

>  <ref_pdb>  (2871) 
A4706a

>  <alias>  (2871) 
None

>  <HIPPO Pose ID>  (2871) 
500515

>  <name>  (2871) 
P500515

>  <HIPPO Compound ID>  (2871) 
314866

>  <ref_mols>  (2871) 
A4706a,A0875a

>  <distance_score>  (2871) 
1.675366

>  <inspiration_score>  (2871) 
None

$$$$
P500516
     RDKit          3D

 30 32  0  0  0  0  0  0  0  0999 V2000
    8.3134   18.5745   20.3031 C   0  0  0  0  0  0  0  0  0  0  0  0
    7.8543   17.4894   21.1114 O   0  0  0  0  0  0  0  0  0  0  0  0
    8.8400   16.7702   21.6652 C   0  0  0  0  0  0  0  0  0  0  0  0
   10.0231   17.0794   21.5994 O   0  0  0  0  0  0  0  0  0  0  0  0
    8.2849   15.4621   22.2902 C   0  0  1  0  0  0  0  0  0  0  0  0
    9.5113   14.5006   22.3265 C   0  0  0  0  0  0  0  0  0  0  0  0
   10.2585   14.5165   21.0407 C   0  0  0  0  0  0  0  0  0  0  0  0
    9.5359   14.7680   19.8888 C   0  0  0  0  0  0  0  0  0  0  0  0
   10.1259   15.0427   18.6928 C   0  0  0  0  0  0  0  0  0  0  0  0
   11.4773   14.9506   18.5968 C   0  0  0  0  0  0  0  0  0  0  0  0
   12.2101   14.6363   19.7278 C   0  0  0  0  0  0  0  0  0  0  0  0
   11.6257   14.4512   20.9675 C   0  0  0  0  0  0  0  0  0  0  0  0
    7.5538   15.4760   23.5226 O   0  0  0  0  0  0  0  0  0  0  0  0
    6.5425   14.5565   23.6171 C   0  0  0  0  0  0  0  0  0  0  0  0
    6.1747   13.8351   22.6916 O   0  0  0  0  0  0  0  0  0  0  0  0
    5.9032   14.4699   25.0205 C   0  0  0  0  0  0  0  0  0  0  0  0
    5.7079   12.9942   25.4645 C   0  0  0  0  0  0  0  0  0  0  0  0
    6.7699   12.3779   26.3917 C   0  0  0  0  0  0  0  0  0  0  0  0
    7.9056   13.3039   26.6213 N   0  0  0  0  0  0  0  0  0  0  0  0
    9.0177   13.3855   25.3719 S   0  0  0  0  0  0  0  0  0  0  0  0
    9.5140   14.7383   25.2999 O   0  0  0  0  0  0  0  0  0  0  0  0
    8.3717   12.7171   24.2708 O   0  0  0  0  0  0  0  0  0  0  0  0
   10.2714   12.3754   25.8584 N   0  0  0  0  0  0  0  0  0  0  0  0
   11.5470   13.0682   26.1811 C   0  0  0  0  0  0  0  0  0  0  0  0
   12.6410   12.6611   25.2145 C   0  0  0  0  0  0  0  0  0  0  0  0
   12.8998   11.1807   25.4161 C   0  0  0  0  0  0  0  0  0  0  0  0
   11.6056   10.3356   25.2650 C   0  0  0  0  0  0  0  0  0  0  0  0
   10.3754   11.1710   24.9702 C   0  0  0  0  0  0  0  0  0  0  0  0
    7.4026   14.5937   27.1371 C   0  0  0  0  0  0  0  0  0  0  0  0
    6.5423   15.3361   26.1152 C   0  0  0  0  0  0  0  0  0  0  0  0
  1  2  1  0
  2  3  1  0
  3  4  2  0
  3  5  1  0
  5  6  1  1
  6  7  1  0
  7  8  2  0
  8  9  1  0
  9 10  2  0
 10 11  1  0
 11 12  2  0
  5 13  1  0
 13 14  1  0
 14 15  2  0
 14 16  1  0
 16 17  1  0
 17 18  1  0
 18 19  1  0
 19 20  1  0
 20 21  2  0
 20 22  2  0
 20 23  1  0
 23 24  1  0
 24 25  1  0
 25 26  1  0
 26 27  1  0
 27 28  1  0
 19 29  1  0
 29 30  1  0
 12  7  1  0
 30 16  1  0
 28 23  1  0
M  END
>  <energy_score>  (2872) 
-23.650937

>  <inchikey>  (2872) 
None

>  <smiles>  (2872) 
None

>  <ref_pdb>  (2872) 
A4706a

>  <alias>  (2872) 
None

>  <HIPPO Pose ID>  (2872) 
500516

>  <name>  (2872) 
P500516

>  <HIPPO Compound ID>  (2872) 
314874

>  <ref_mols>  (2872) 
A4706a,A0875a

>  <distance_score>  (2872) 
1.553041

>  <inspiration_score>  (2872) 
None

$$$$
P500517
     RDKit          3D

 30 32  0  0  0  0  0  0  0  0999 V2000
    8.5253   18.6127   21.0559 C   0  0  0  0  0  0  0  0  0  0  0  0
    8.5244   17.2219   20.8137 O   0  0  0  0  0  0  0  0  0  0  0  0
    7.8251   16.3849   21.6279 C   0  0  0  0  0  0  0  0  0  0  0  0
    7.0247   16.6746   22.5047 O   0  0  0  0  0  0  0  0  0  0  0  0
    8.1965   14.9419   21.2765 C   0  0  2  0  0  0  0  0  0  0  0  0
    8.0080   14.0265   22.3607 O   0  0  0  0  0  0  0  0  0  0  0  0
    6.7204   13.9148   22.8151 C   0  0  0  0  0  0  0  0  0  0  0  0
    5.7355   13.8540   22.1019 O   0  0  0  0  0  0  0  0  0  0  0  0
    6.7653   13.8185   24.3180 C   0  0  0  0  0  0  0  0  0  0  0  0
    6.4077   12.4814   24.9514 C   0  0  0  0  0  0  0  0  0  0  0  0
    6.8975   12.4339   26.4120 C   0  0  0  0  0  0  0  0  0  0  0  0
    7.3695   13.7592   26.8613 N   0  0  0  0  0  0  0  0  0  0  0  0
    8.9618   14.3238   26.8079 S   0  0  0  0  0  0  0  0  0  0  0  0
    9.0969   15.2894   25.7464 O   0  0  0  0  0  0  0  0  0  0  0  0
    9.2779   14.7208   28.1566 O   0  0  0  0  0  0  0  0  0  0  0  0
    9.9742   13.0224   26.4350 N   0  0  0  0  0  0  0  0  0  0  0  0
   11.4020   13.2986   26.8033 C   0  0  0  0  0  0  0  0  0  0  0  0
   12.3579   13.3326   25.6446 C   0  0  0  0  0  0  0  0  0  0  0  0
   12.2125   12.1676   24.7170 C   0  0  0  0  0  0  0  0  0  0  0  0
   10.8697   11.4604   24.7958 C   0  0  0  0  0  0  0  0  0  0  0  0
    9.7996   12.4447   25.0991 C   0  0  0  0  0  0  0  0  0  0  0  0
    6.3384   14.8066   26.6013 C   0  0  0  0  0  0  0  0  0  0  0  0
    6.1112   14.9619   25.0886 C   0  0  0  0  0  0  0  0  0  0  0  0
    9.6318   14.9007   20.7933 C   0  0  0  0  0  0  0  0  0  0  0  0
    9.8916   14.9632   19.4130 C   0  0  0  0  0  0  0  0  0  0  0  0
   11.1642   14.8090   18.9168 C   0  0  0  0  0  0  0  0  0  0  0  0
   12.1997   14.7235   19.8136 C   0  0  0  0  0  0  0  0  0  0  0  0
   11.9963   14.9265   21.1671 C   0  0  0  0  0  0  0  0  0  0  0  0
   10.7172   15.0115   21.6509 C   0  0  0  0  0  0  0  0  0  0  0  0
   10.5803   15.4166   23.2889 Cl  0  0  0  0  0  0  0  0  0  0  0  0
  1  2  1  0
  2  3  1  0
  3  4  2  0
  3  5  1  0
  5  6  1  1
  6  7  1  0
  7  8  2  0
  7  9  1  0
  9 10  1  0
 10 11  1  0
 11 12  1  0
 12 13  1  0
 13 14  2  0
 13 15  2  0
 13 16  1  0
 16 17  1  0
 17 18  1  0
 18 19  1  0
 19 20  1  0
 20 21  1  0
 12 22  1  0
 22 23  1  0
  5 24  1  0
 24 25  2  0
 25 26  1  0
 26 27  2  0
 27 28  1  0
 28 29  2  0
 29 30  1  0
 23  9  1  0
 29 24  1  0
 21 16  1  0
M  END
>  <energy_score>  (2873) 
-34.987916

>  <inchikey>  (2873) 
None

>  <smiles>  (2873) 
None

>  <ref_pdb>  (2873) 
A4706a

>  <alias>  (2873) 
None

>  <HIPPO Pose ID>  (2873) 
500517

>  <name>  (2873) 
P500517

>  <HIPPO Compound ID>  (2873) 
314877

>  <ref_mols>  (2873) 
A4706a,A0875a

>  <distance_score>  (2873) 
1.640707

>  <inspiration_score>  (2873) 
None

$$$$
P500518
     RDKit          3D

 30 32  0  0  0  0  0  0  0  0999 V2000
    4.4353   14.0724   21.2727 C   0  0  0  0  0  0  0  0  0  0  0  0
    5.5283   14.9661   21.4978 O   0  0  0  0  0  0  0  0  0  0  0  0
    6.7232   14.3839   21.8060 C   0  0  0  0  0  0  0  0  0  0  0  0
    6.8910   13.1698   21.7738 O   0  0  0  0  0  0  0  0  0  0  0  0
    7.7618   15.4222   22.2914 C   0  0  1  0  0  0  0  0  0  0  0  0
    7.5951   15.2551   23.7390 O   0  0  0  0  0  0  0  0  0  0  0  0
    6.3592   15.5527   24.2389 C   0  0  0  0  0  0  0  0  0  0  0  0
    5.6321   16.4275   23.7807 O   0  0  0  0  0  0  0  0  0  0  0  0
    5.8717   14.6342   25.3773 C   0  0  0  0  0  0  0  0  0  0  0  0
    5.7873   13.1320   25.0100 C   0  0  0  0  0  0  0  0  0  0  0  0
    6.6176   12.1361   25.8215 C   0  0  0  0  0  0  0  0  0  0  0  0
    7.7294   12.8069   26.5113 N   0  0  0  0  0  0  0  0  0  0  0  0
    8.9871   13.3413   25.5235 S   0  0  0  0  0  0  0  0  0  0  0  0
    9.3000   14.6666   25.9934 O   0  0  0  0  0  0  0  0  0  0  0  0
    8.6347   13.0205   24.1648 O   0  0  0  0  0  0  0  0  0  0  0  0
   10.2672   12.3176   25.9239 N   0  0  0  0  0  0  0  0  0  0  0  0
   11.5566   13.0351   26.1419 C   0  0  0  0  0  0  0  0  0  0  0  0
   12.6183   12.5938   25.1584 C   0  0  0  0  0  0  0  0  0  0  0  0
   12.8644   11.1223   25.4107 C   0  0  0  0  0  0  0  0  0  0  0  0
   11.5625   10.2828   25.2639 C   0  0  0  0  0  0  0  0  0  0  0  0
   10.3246   11.1269   25.0175 C   0  0  0  0  0  0  0  0  0  0  0  0
    7.1841   13.8313   27.4437 C   0  0  0  0  0  0  0  0  0  0  0  0
    6.5277   14.9909   26.7066 C   0  0  0  0  0  0  0  0  0  0  0  0
    9.1650   15.1927   21.6394 C   0  0  0  0  0  0  0  0  0  0  0  0
    9.2136   15.0175   20.2483 C   0  0  0  0  0  0  0  0  0  0  0  0
   10.3831   14.8721   19.4871 C   0  0  0  0  0  0  0  0  0  0  0  0
   11.5970   14.8626   20.1244 C   0  0  0  0  0  0  0  0  0  0  0  0
   11.6183   15.0688   21.4895 C   0  0  0  0  0  0  0  0  0  0  0  0
   10.4289   15.2425   22.2191 C   0  0  0  0  0  0  0  0  0  0  0  0
   10.7157   15.5344   23.8471 Cl  0  0  0  0  0  0  0  0  0  0  0  0
  1  2  1  0
  2  3  1  0
  3  4  2  0
  3  5  1  0
  5  6  1  1
  6  7  1  0
  7  8  2  0
  7  9  1  0
  9 10  1  0
 10 11  1  0
 11 12  1  0
 12 13  1  0
 13 14  2  0
 13 15  2  0
 13 16  1  0
 16 17  1  0
 17 18  1  0
 18 19  1  0
 19 20  1  0
 20 21  1  0
 12 22  1  0
 22 23  1  0
  5 24  1  0
 24 25  2  0
 25 26  1  0
 26 27  2  0
 27 28  1  0
 28 29  2  0
 29 30  1  0
 23  9  1  0
 29 24  1  0
 21 16  1  0
M  END
>  <energy_score>  (2874) 
-10.007941

>  <inchikey>  (2874) 
None

>  <smiles>  (2874) 
None

>  <ref_pdb>  (2874) 
A4706a

>  <alias>  (2874) 
None

>  <HIPPO Pose ID>  (2874) 
500518

>  <name>  (2874) 
P500518

>  <HIPPO Compound ID>  (2874) 
314877

>  <ref_mols>  (2874) 
A4706a,A0875a

>  <distance_score>  (2874) 
1.735866

>  <inspiration_score>  (2874) 
None

$$$$
P500519
     RDKit          3D

 30 32  0  0  0  0  0  0  0  0999 V2000
    7.8145   19.4794   19.2607 C   0  0  0  0  0  0  0  0  0  0  0  0
    8.1722   18.1771   19.6750 O   0  0  0  0  0  0  0  0  0  0  0  0
    8.2994   18.0414   21.0251 C   0  0  0  0  0  0  0  0  0  0  0  0
    8.5052   19.0009   21.7417 O   0  0  0  0  0  0  0  0  0  0  0  0
    8.1339   16.5461   21.4430 C   0  0  2  0  0  0  0  0  0  0  0  0
    7.5743   16.1326   22.7168 O   0  0  0  0  0  0  0  0  0  0  0  0
    6.8810   14.9579   22.7296 C   0  0  0  0  0  0  0  0  0  0  0  0
    6.7567   14.2069   21.7598 O   0  0  0  0  0  0  0  0  0  0  0  0
    6.2296   14.5730   24.0726 C   0  0  0  0  0  0  0  0  0  0  0  0
    6.6431   13.1006   24.3599 C   0  0  0  0  0  0  0  0  0  0  0  0
    6.8777   12.7227   25.8101 C   0  0  0  0  0  0  0  0  0  0  0  0
    7.5705   13.8007   26.5276 N   0  0  0  0  0  0  0  0  0  0  0  0
    9.1273   14.2998   26.0943 S   0  0  0  0  0  0  0  0  0  0  0  0
    9.1289   14.7017   24.7133 O   0  0  0  0  0  0  0  0  0  0  0  0
    9.5439   15.2360   27.1098 O   0  0  0  0  0  0  0  0  0  0  0  0
   10.1389   12.9357   26.2071 N   0  0  0  0  0  0  0  0  0  0  0  0
   11.5361   13.4193   26.4916 C   0  0  0  0  0  0  0  0  0  0  0  0
   12.5999   12.3403   26.4526 C   0  0  0  0  0  0  0  0  0  0  0  0
   12.4111   11.3766   25.3047 C   0  0  0  0  0  0  0  0  0  0  0  0
   10.9566   10.9148   25.0948 C   0  0  0  0  0  0  0  0  0  0  0  0
   10.0571   12.1029   24.9800 C   0  0  0  0  0  0  0  0  0  0  0  0
    6.6216   14.9515   26.6119 C   0  0  0  0  0  0  0  0  0  0  0  0
    6.4082   15.5727   25.2313 C   0  0  0  0  0  0  0  0  0  0  0  0
    9.4117   15.8351   21.0645 C   0  0  0  0  0  0  0  0  0  0  0  0
    9.7631   15.5229   19.7387 C   0  0  0  0  0  0  0  0  0  0  0  0
   10.9494   14.8847   19.4439 C   0  0  0  0  0  0  0  0  0  0  0  0
   11.7612   14.5080   20.4956 C   0  0  0  0  0  0  0  0  0  0  0  0
   11.4170   14.8197   21.8038 C   0  0  0  0  0  0  0  0  0  0  0  0
   12.2396   14.2736   23.1707 Cl  0  0  0  0  0  0  0  0  0  0  0  0
   10.2976   15.5519   22.0736 C   0  0  0  0  0  0  0  0  0  0  0  0
  1  2  1  0
  2  3  1  0
  3  4  2  0
  3  5  1  0
  5  6  1  1
  6  7  1  0
  7  8  2  0
  7  9  1  0
  9 10  1  0
 10 11  1  0
 11 12  1  0
 12 13  1  0
 13 14  2  0
 13 15  2  0
 13 16  1  0
 16 17  1  0
 17 18  1  0
 18 19  1  0
 19 20  1  0
 20 21  1  0
 12 22  1  0
 22 23  1  0
  5 24  1  0
 24 25  2  0
 25 26  1  0
 26 27  2  0
 27 28  1  0
 28 29  1  0
 28 30  2  0
 23  9  1  0
 30 24  1  0
 21 16  1  0
M  END
>  <energy_score>  (2875) 
-20.562751

>  <inchikey>  (2875) 
None

>  <smiles>  (2875) 
None

>  <ref_pdb>  (2875) 
A4706a

>  <alias>  (2875) 
None

>  <HIPPO Pose ID>  (2875) 
500519

>  <name>  (2875) 
P500519

>  <HIPPO Compound ID>  (2875) 
314878

>  <ref_mols>  (2875) 
A4706a,A0875a

>  <distance_score>  (2875) 
1.609148

>  <inspiration_score>  (2875) 
None

$$$$
P500520
     RDKit          3D

 30 32  0  0  0  0  0  0  0  0999 V2000
    5.1193   17.4297   25.8251 C   0  0  0  0  0  0  0  0  0  0  0  0
    5.4008   17.0482   24.3816 C   0  0  0  0  0  0  0  0  0  0  0  0
    6.6723   16.3925   24.2826 O   0  0  0  0  0  0  0  0  0  0  0  0
    6.9569   15.9778   23.0173 C   0  0  0  0  0  0  0  0  0  0  0  0
    6.2603   16.1815   22.0387 O   0  0  0  0  0  0  0  0  0  0  0  0
    8.1827   15.1269   22.9232 C   0  0  2  0  0  0  0  0  0  0  0  0
    7.9341   13.7943   23.4748 O   0  0  0  0  0  0  0  0  0  0  0  0
    6.6808   13.2858   23.3634 C   0  0  0  0  0  0  0  0  0  0  0  0
    6.1328   13.1728   22.2718 O   0  0  0  0  0  0  0  0  0  0  0  0
    6.0252   12.7545   24.6491 C   0  0  0  0  0  0  0  0  0  0  0  0
    6.7727   11.5837   25.3075 C   0  0  0  0  0  0  0  0  0  0  0  0
    7.6261   12.0458   26.4842 C   0  0  0  0  0  0  0  0  0  0  0  0
    7.9278   13.4495   26.2375 N   0  0  0  0  0  0  0  0  0  0  0  0
    9.4005   14.1506   26.4436 S   0  0  0  0  0  0  0  0  0  0  0  0
    9.4146   15.3934   25.7198 O   0  0  0  0  0  0  0  0  0  0  0  0
    9.7070   14.1652   27.8488 O   0  0  0  0  0  0  0  0  0  0  0  0
   10.4895   13.1398   25.7319 N   0  0  0  0  0  0  0  0  0  0  0  0
   11.8675   13.6508   25.7666 C   0  0  0  0  0  0  0  0  0  0  0  0
   12.8046   12.6733   25.0819 C   0  0  0  0  0  0  0  0  0  0  0  0
   12.3853   11.2654   25.4576 C   0  0  0  0  0  0  0  0  0  0  0  0
   10.9118   10.9567   25.0394 C   0  0  0  0  0  0  0  0  0  0  0  0
   10.2255   12.2411   24.6122 C   0  0  0  0  0  0  0  0  0  0  0  0
    6.7673   14.2930   26.5471 C   0  0  0  0  0  0  0  0  0  0  0  0
    5.6136   13.8013   25.6843 C   0  0  0  0  0  0  0  0  0  0  0  0
    9.6669   15.4377   23.1246 C   0  0  0  0  0  0  0  0  0  0  0  0
    9.1357   15.5255   21.7681 C   0  0  1  0  0  0  0  0  0  0  0  0
    9.6562   14.6137   20.7716 C   0  0  0  0  0  0  0  0  0  0  0  0
    9.7858   15.1938   19.5643 F   0  0  0  0  0  0  0  0  0  0  0  0
    8.7719   13.6199   20.7057 F   0  0  0  0  0  0  0  0  0  0  0  0
   10.8577   14.1176   21.1388 F   0  0  0  0  0  0  0  0  0  0  0  0
  1  2  1  0
  2  3  1  0
  3  4  1  0
  4  5  2  0
  4  6  1  0
  6  7  1  6
  7  8  1  0
  8  9  2  0
  8 10  1  0
 10 11  1  0
 11 12  1  0
 12 13  1  0
 13 14  1  0
 14 15  2  0
 14 16  2  0
 14 17  1  0
 17 18  1  0
 18 19  1  0
 19 20  1  0
 20 21  1  0
 21 22  1  0
 13 23  1  0
 23 24  1  0
  6 25  1  0
 25 26  1  0
 26 27  1  6
 27 28  1  0
 27 29  1  0
 27 30  1  0
 26  6  1  0
 24 10  1  0
 22 17  1  0
M  END
>  <energy_score>  (2876) 
-27.856529

>  <inchikey>  (2876) 
None

>  <smiles>  (2876) 
None

>  <ref_pdb>  (2876) 
A4706a

>  <alias>  (2876) 
None

>  <HIPPO Pose ID>  (2876) 
500520

>  <name>  (2876) 
P500520

>  <HIPPO Compound ID>  (2876) 
314880

>  <ref_mols>  (2876) 
A0875a,A4706a

>  <distance_score>  (2876) 
1.467494

>  <inspiration_score>  (2876) 
None

$$$$
P500521
     RDKit          3D

 30 32  0  0  0  0  0  0  0  0999 V2000
    9.6783   10.4489   24.5585 C   0  0  0  0  0  0  0  0  0  0  0  0
    9.1745   11.0599   23.2608 C   0  0  0  0  0  0  0  0  0  0  0  0
    9.6602   12.3744   22.9071 O   0  0  0  0  0  0  0  0  0  0  0  0
    8.6745   13.2954   22.5721 C   0  0  0  0  0  0  0  0  0  0  0  0
    7.5448   12.9753   22.2162 O   0  0  0  0  0  0  0  0  0  0  0  0
    9.0398   14.7601   22.7796 C   0  0  1  0  0  0  0  0  0  0  0  0
    8.2407   15.4078   23.8357 O   0  0  0  0  0  0  0  0  0  0  0  0
    6.9028   15.1553   23.9219 C   0  0  0  0  0  0  0  0  0  0  0  0
    6.1392   15.1725   22.9670 O   0  0  0  0  0  0  0  0  0  0  0  0
    6.4530   14.8040   25.3556 C   0  0  0  0  0  0  0  0  0  0  0  0
    6.5802   13.2864   25.6277 C   0  0  0  0  0  0  0  0  0  0  0  0
    7.4755   12.8356   26.7917 C   0  0  0  0  0  0  0  0  0  0  0  0
    8.4883   13.8648   27.2283 N   0  0  0  0  0  0  0  0  0  0  0  0
    9.7790   14.1161   26.1884 S   0  0  0  0  0  0  0  0  0  0  0  0
   10.2117   15.4854   26.2728 O   0  0  0  0  0  0  0  0  0  0  0  0
    9.2870   13.5578   24.9743 O   0  0  0  0  0  0  0  0  0  0  0  0
   11.1191   13.1294   26.5422 N   0  0  0  0  0  0  0  0  0  0  0  0
   12.0159   13.7184   27.5721 C   0  0  0  0  0  0  0  0  0  0  0  0
   13.2845   12.8640   27.7779 C   0  0  0  0  0  0  0  0  0  0  0  0
   13.9840   12.3582   26.5202 C   0  0  0  0  0  0  0  0  0  0  0  0
   12.9872   11.8711   25.5022 C   0  0  0  0  0  0  0  0  0  0  0  0
   11.9273   12.9226   25.2739 C   0  0  0  0  0  0  0  0  0  0  0  0
    7.7270   15.0807   27.6098 C   0  0  0  0  0  0  0  0  0  0  0  0
    7.0503   15.7414   26.4124 C   0  0  0  0  0  0  0  0  0  0  0  0
   10.5321   15.1243   22.8550 C   0  0  0  0  0  0  0  0  0  0  0  0
    9.6742   15.6771   21.7657 C   0  0  1  0  0  0  0  0  0  0  0  0
    9.7349   15.1931   20.3913 C   0  0  0  0  0  0  0  0  0  0  0  0
    9.9595   16.1821   19.5082 F   0  0  0  0  0  0  0  0  0  0  0  0
    8.5369   14.6528   20.1333 F   0  0  0  0  0  0  0  0  0  0  0  0
   10.6928   14.2660   20.2280 F   0  0  0  0  0  0  0  0  0  0  0  0
  1  2  1  0
  2  3  1  0
  3  4  1  0
  4  5  2  0
  4  6  1  0
  6  7  1  1
  7  8  1  0
  8  9  2  0
  8 10  1  0
 10 11  1  0
 11 12  1  0
 12 13  1  0
 13 14  1  0
 14 15  2  0
 14 16  2  0
 14 17  1  0
 17 18  1  0
 18 19  1  0
 19 20  1  0
 20 21  1  0
 21 22  1  0
 13 23  1  0
 23 24  1  0
  6 25  1  0
 25 26  1  0
 26 27  1  6
 27 28  1  0
 27 29  1  0
 27 30  1  0
 26  6  1  0
 24 10  1  0
 22 17  1  0
M  END
>  <energy_score>  (2877) 
-21.523512

>  <inchikey>  (2877) 
None

>  <smiles>  (2877) 
None

>  <ref_pdb>  (2877) 
A4706a

>  <alias>  (2877) 
None

>  <HIPPO Pose ID>  (2877) 
500521

>  <name>  (2877) 
P500521

>  <HIPPO Compound ID>  (2877) 
314880

>  <ref_mols>  (2877) 
A4706a,A0875a

>  <distance_score>  (2877) 
1.943639

>  <inspiration_score>  (2877) 
None

$$$$
P500522
     RDKit          3D

 30 32  0  0  0  0  0  0  0  0999 V2000
    9.3147   16.8473   27.6312 C   0  0  0  0  0  0  0  0  0  0  0  0
   10.2176   16.1558   26.6184 C   0  0  0  0  0  0  0  0  0  0  0  0
    9.3769   15.6430   25.5403 O   0  0  0  0  0  0  0  0  0  0  0  0
    9.7987   15.5969   24.2102 C   0  0  0  0  0  0  0  0  0  0  0  0
   10.9336   15.8913   23.8684 O   0  0  0  0  0  0  0  0  0  0  0  0
    8.7221   15.1903   23.2042 C   0  0  2  0  0  0  0  0  0  0  0  0
    7.3468   15.2903   23.7540 O   0  0  0  0  0  0  0  0  0  0  0  0
    6.5509   14.1805   23.8703 C   0  0  0  0  0  0  0  0  0  0  0  0
    6.4126   13.3197   23.0051 O   0  0  0  0  0  0  0  0  0  0  0  0
    5.7793   14.1466   25.1979 C   0  0  0  0  0  0  0  0  0  0  0  0
    5.2078   12.7606   25.5014 C   0  0  0  0  0  0  0  0  0  0  0  0
    6.1236   11.7207   26.1590 C   0  0  0  0  0  0  0  0  0  0  0  0
    7.4495   12.2533   26.5382 N   0  0  0  0  0  0  0  0  0  0  0  0
    8.6312   12.1058   25.3577 S   0  0  0  0  0  0  0  0  0  0  0  0
    8.8131   13.4232   24.8745 O   0  0  0  0  0  0  0  0  0  0  0  0
    8.3002   11.0517   24.4449 O   0  0  0  0  0  0  0  0  0  0  0  0
   10.1059   11.7554   26.0710 N   0  0  0  0  0  0  0  0  0  0  0  0
   10.8650   12.9386   26.5467 C   0  0  0  0  0  0  0  0  0  0  0  0
   11.7286   13.5039   25.4303 C   0  0  0  0  0  0  0  0  0  0  0  0
   12.8003   12.5536   24.9743 C   0  0  0  0  0  0  0  0  0  0  0  0
   12.4617   11.1767   25.4625 C   0  0  0  0  0  0  0  0  0  0  0  0
   10.9620   10.9015   25.1942 C   0  0  0  0  0  0  0  0  0  0  0  0
    7.2887   13.5669   27.2249 C   0  0  0  0  0  0  0  0  0  0  0  0
    6.5197   14.6328   26.4336 C   0  0  0  0  0  0  0  0  0  0  0  0
    9.0933   14.0232   22.2868 C   0  0  0  0  0  0  0  0  0  0  0  0
    8.8152   15.3598   21.6948 C   0  0  2  0  0  0  0  0  0  0  0  0
    9.8956   15.9763   20.9190 C   0  0  0  0  0  0  0  0  0  0  0  0
    9.8134   15.5934   19.6226 F   0  0  0  0  0  0  0  0  0  0  0  0
   11.1018   15.5992   21.3655 F   0  0  0  0  0  0  0  0  0  0  0  0
    9.8048   17.3188   20.9559 F   0  0  0  0  0  0  0  0  0  0  0  0
  1  2  1  0
  2  3  1  0
  3  4  1  0
  4  5  2  0
  4  6  1  0
  6  7  1  1
  7  8  1  0
  8  9  2  0
  8 10  1  0
 10 11  1  0
 11 12  1  0
 12 13  1  0
 13 14  1  0
 14 15  2  0
 14 16  2  0
 14 17  1  0
 17 18  1  0
 18 19  1  0
 19 20  1  0
 20 21  1  0
 21 22  1  0
 13 23  1  0
 23 24  1  0
  6 25  1  0
 25 26  1  0
 26 27  1  1
 27 28  1  0
 27 29  1  0
 27 30  1  0
 26  6  1  0
 24 10  1  0
 22 17  1  0
M  END
>  <energy_score>  (2878) 
-9.412814

>  <inchikey>  (2878) 
None

>  <smiles>  (2878) 
None

>  <ref_pdb>  (2878) 
A4706a

>  <alias>  (2878) 
None

>  <HIPPO Pose ID>  (2878) 
500522

>  <name>  (2878) 
P500522

>  <HIPPO Compound ID>  (2878) 
314880

>  <ref_mols>  (2878) 
A0875a,A4706a

>  <distance_score>  (2878) 
1.942534

>  <inspiration_score>  (2878) 
None

$$$$
P500523
     RDKit          3D

 30 32  0  0  0  0  0  0  0  0999 V2000
    9.7036    9.5259   22.8823 C   0  0  0  0  0  0  0  0  0  0  0  0
    9.5102   10.7280   23.7560 C   0  0  0  0  0  0  0  0  0  0  0  0
    9.9127   11.9773   23.1493 O   0  0  0  0  0  0  0  0  0  0  0  0
    8.9092   12.8123   22.7681 C   0  0  0  0  0  0  0  0  0  0  0  0
    7.7378   12.4765   22.6663 O   0  0  0  0  0  0  0  0  0  0  0  0
    9.2641   14.2436   22.5576 C   0  0  1  0  0  0  0  0  0  0  0  0
    8.0750   15.1283   22.6323 O   0  0  0  0  0  0  0  0  0  0  0  0
    7.1426   15.0355   23.6519 C   0  0  0  0  0  0  0  0  0  0  0  0
    5.9813   15.4022   23.5234 O   0  0  0  0  0  0  0  0  0  0  0  0
    7.6768   14.5136   24.9609 C   0  0  0  0  0  0  0  0  0  0  0  0
    7.2599   13.1274   25.4389 C   0  0  0  0  0  0  0  0  0  0  0  0
    8.4727   12.5929   26.2103 C   0  0  0  0  0  0  0  0  0  0  0  0
    9.1093   13.6438   27.0383 N   0  0  0  0  0  0  0  0  0  0  0  0
   10.6740   14.2308   26.7624 S   0  0  0  0  0  0  0  0  0  0  0  0
   10.9797   14.9068   27.9894 O   0  0  0  0  0  0  0  0  0  0  0  0
   10.6918   14.9606   25.5202 O   0  0  0  0  0  0  0  0  0  0  0  0
   11.7765   12.9070   26.6235 N   0  0  0  0  0  0  0  0  0  0  0  0
   12.9462   12.9264   27.5938 C   0  0  0  0  0  0  0  0  0  0  0  0
   14.3305   12.6688   26.9944 C   0  0  0  0  0  0  0  0  0  0  0  0
   14.3849   11.4840   26.0818 C   0  0  0  0  0  0  0  0  0  0  0  0
   13.1549   11.4392   25.2165 C   0  0  0  0  0  0  0  0  0  0  0  0
   12.2677   12.6744   25.2536 C   0  0  0  0  0  0  0  0  0  0  0  0
    8.1143   14.7263   27.4158 C   0  0  0  0  0  0  0  0  0  0  0  0
    7.5617   15.4389   26.1650 C   0  0  0  0  0  0  0  0  0  0  0  0
   10.5896   14.9284   22.8232 C   0  0  0  0  0  0  0  0  0  0  0  0
   10.2613   14.5204   21.4392 C   0  0  2  0  0  0  0  0  0  0  0  0
    9.8233   15.4093   20.3715 C   0  0  0  0  0  0  0  0  0  0  0  0
   10.6116   15.2918   19.2864 F   0  0  0  0  0  0  0  0  0  0  0  0
    8.5795   15.0330   20.0386 F   0  0  0  0  0  0  0  0  0  0  0  0
    9.8029   16.7014   20.7483 F   0  0  0  0  0  0  0  0  0  0  0  0
  1  2  1  0
  2  3  1  0
  3  4  1  0
  4  5  2  0
  4  6  1  0
  6  7  1  6
  7  8  1  0
  8  9  2  0
  8 10  1  0
 10 11  1  0
 11 12  1  0
 12 13  1  0
 13 14  1  0
 14 15  2  0
 14 16  2  0
 14 17  1  0
 17 18  1  0
 18 19  1  0
 19 20  1  0
 20 21  1  0
 21 22  1  0
 13 23  1  0
 23 24  1  0
  6 25  1  0
 25 26  1  0
 26 27  1  6
 27 28  1  0
 27 29  1  0
 27 30  1  0
 26  6  1  0
 24 10  1  0
 22 17  1  0
M  END
>  <energy_score>  (2879) 
-22.016468

>  <inchikey>  (2879) 
None

>  <smiles>  (2879) 
None

>  <ref_pdb>  (2879) 
A4706a

>  <alias>  (2879) 
None

>  <HIPPO Pose ID>  (2879) 
500523

>  <name>  (2879) 
P500523

>  <HIPPO Compound ID>  (2879) 
314880

>  <ref_mols>  (2879) 
A4706a,A0875a

>  <distance_score>  (2879) 
1.850803

>  <inspiration_score>  (2879) 
None

$$$$
P500524
     RDKit          3D

 30 32  0  0  0  0  0  0  0  0999 V2000
    5.2023   17.1536   24.4258 C   0  0  0  0  0  0  0  0  0  0  0  0
    6.3446   16.6259   23.7706 O   0  0  0  0  0  0  0  0  0  0  0  0
    6.0581   15.9012   22.6517 C   0  0  0  0  0  0  0  0  0  0  0  0
    5.0454   16.0274   21.9730 O   0  0  0  0  0  0  0  0  0  0  0  0
    7.1188   14.8421   22.4267 C   0  0  2  0  0  0  0  0  0  0  0  0
    7.3015   14.3451   23.7642 O   0  0  0  0  0  0  0  0  0  0  0  0
    6.4045   13.3955   24.0941 C   0  0  0  0  0  0  0  0  0  0  0  0
    5.9220   12.6297   23.2761 O   0  0  0  0  0  0  0  0  0  0  0  0
    6.0199   13.3868   25.5554 C   0  0  0  0  0  0  0  0  0  0  0  0
    6.3279   12.0099   26.1390 C   0  0  0  0  0  0  0  0  0  0  0  0
    7.8228   11.7250   26.1392 C   0  0  0  0  0  0  0  0  0  0  0  0
    8.6088   12.9548   26.4277 N   0  0  0  0  0  0  0  0  0  0  0  0
    9.7081   13.4478   25.2573 S   0  0  0  0  0  0  0  0  0  0  0  0
    9.3689   12.7622   24.0360 O   0  0  0  0  0  0  0  0  0  0  0  0
    9.8770   14.8785   25.3327 O   0  0  0  0  0  0  0  0  0  0  0  0
   11.1499   12.7587   25.8222 N   0  0  0  0  0  0  0  0  0  0  0  0
   12.1399   12.6362   24.7282 C   0  0  0  0  0  0  0  0  0  0  0  0
   13.1918   11.6488   25.2079 C   0  0  0  0  0  0  0  0  0  0  0  0
   13.9897   12.2838   26.3211 C   0  0  0  0  0  0  0  0  0  0  0  0
   13.0672   12.7919   27.4193 C   0  0  0  0  0  0  0  0  0  0  0  0
   11.7714   13.4847   26.9566 C   0  0  0  0  0  0  0  0  0  0  0  0
    7.8729   14.0065   27.1663 C   0  0  0  0  0  0  0  0  0  0  0  0
    6.6693   14.4971   26.3879 C   0  0  0  0  0  0  0  0  0  0  0  0
    8.4150   15.1477   21.7346 C   0  0  0  0  0  0  0  0  0  0  0  0
    8.4916   14.8740   20.3914 C   0  0  0  0  0  0  0  0  0  0  0  0
    9.5388   14.9957   19.5459 N   0  0  0  0  0  0  0  0  0  0  0  0
   10.6922   15.2408   20.1297 C   0  0  0  0  0  0  0  0  0  0  0  0
   10.7553   15.4507   21.4858 C   0  0  0  0  0  0  0  0  0  0  0  0
   12.4071   15.4521   22.2526 Br  0  0  0  0  0  0  0  0  0  0  0  0
    9.6170   15.5043   22.2809 C   0  0  0  0  0  0  0  0  0  0  0  0
  1  2  1  0
  2  3  1  0
  3  4  2  0
  3  5  1  0
  5  6  1  1
  6  7  1  0
  7  8  2  0
  7  9  1  0
  9 10  1  0
 10 11  1  0
 11 12  1  0
 12 13  1  0
 13 14  2  0
 13 15  2  0
 13 16  1  0
 16 17  1  0
 17 18  1  0
 18 19  1  0
 19 20  1  0
 20 21  1  0
 12 22  1  0
 22 23  1  0
  5 24  1  0
 24 25  2  0
 25 26  1  0
 26 27  2  0
 27 28  1  0
 28 29  1  0
 28 30  2  0
 23  9  1  0
 30 24  1  0
 21 16  1  0
M  END
>  <energy_score>  (2880) 
-27.923699

>  <inchikey>  (2880) 
None

>  <smiles>  (2880) 
None

>  <ref_pdb>  (2880) 
A4706a

>  <alias>  (2880) 
None

>  <HIPPO Pose ID>  (2880) 
500524

>  <name>  (2880) 
P500524

>  <HIPPO Compound ID>  (2880) 
314882

>  <ref_mols>  (2880) 
A4706a,A0875a

>  <distance_score>  (2880) 
1.847765

>  <inspiration_score>  (2880) 
None

$$$$
P500525
     RDKit          3D

 30 32  0  0  0  0  0  0  0  0999 V2000
    8.3983   18.2145   20.9803 C   0  0  0  0  0  0  0  0  0  0  0  0
    8.3590   16.7956   21.0816 O   0  0  0  0  0  0  0  0  0  0  0  0
    7.7516   16.1562   22.1033 C   0  0  0  0  0  0  0  0  0  0  0  0
    6.7979   16.5393   22.7655 O   0  0  0  0  0  0  0  0  0  0  0  0
    8.4680   14.8242   22.3231 C   0  0  1  0  0  0  0  0  0  0  0  0
   10.0064   14.9615   22.4059 C   0  0  0  0  0  0  0  0  0  0  0  0
   10.6081   15.4334   21.1023 C   0  0  0  0  0  0  0  0  0  0  0  0
   11.9407   14.8707   20.6141 C   0  0  0  0  0  0  0  0  0  0  0  0
   11.3393   14.8808   19.1935 C   0  0  0  0  0  0  0  0  0  0  0  0
   11.4314   15.9972   18.4566 F   0  0  0  0  0  0  0  0  0  0  0  0
   11.7144   13.8616   18.4117 F   0  0  0  0  0  0  0  0  0  0  0  0
    9.9961   14.7581   19.8732 C   0  0  0  0  0  0  0  0  0  0  0  0
    8.0241   14.2680   23.5642 O   0  0  0  0  0  0  0  0  0  0  0  0
    6.9235   13.4884   23.5122 C   0  0  0  0  0  0  0  0  0  0  0  0
    6.4142   13.0638   22.4827 O   0  0  0  0  0  0  0  0  0  0  0  0
    6.4485   13.1061   24.8985 C   0  0  0  0  0  0  0  0  0  0  0  0
    7.1012   11.7792   25.2928 C   0  0  0  0  0  0  0  0  0  0  0  0
    8.5969   11.9500   25.5182 C   0  0  0  0  0  0  0  0  0  0  0  0
    8.8852   13.0169   26.4802 N   0  0  0  0  0  0  0  0  0  0  0  0
   10.3034   13.9110   26.3841 S   0  0  0  0  0  0  0  0  0  0  0  0
   10.3718   14.6410   27.6243 O   0  0  0  0  0  0  0  0  0  0  0  0
   10.3465   14.6147   25.1332 O   0  0  0  0  0  0  0  0  0  0  0  0
   11.5777   12.7568   26.3959 N   0  0  0  0  0  0  0  0  0  0  0  0
   12.0172   12.2875   25.0733 C   0  0  0  0  0  0  0  0  0  0  0  0
   13.1267   11.2243   25.2065 C   0  0  0  0  0  0  0  0  0  0  0  0
   14.2488   11.4728   26.1791 C   0  0  0  0  0  0  0  0  0  0  0  0
   14.1154   12.8687   26.6697 C   0  0  0  0  0  0  0  0  0  0  0  0
   12.7353   13.1131   27.2823 C   0  0  0  0  0  0  0  0  0  0  0  0
    7.6899   13.7500   27.0130 C   0  0  0  0  0  0  0  0  0  0  0  0
    6.7222   14.2017   25.9330 C   0  0  0  0  0  0  0  0  0  0  0  0
  1  2  1  0
  2  3  1  0
  3  4  2  0
  3  5  1  0
  5  6  1  1
  6  7  1  0
  7  8  1  0
  8  9  1  0
  9 10  1  0
  9 11  1  0
  9 12  1  0
  5 13  1  0
 13 14  1  0
 14 15  2  0
 14 16  1  0
 16 17  1  0
 17 18  1  0
 18 19  1  0
 19 20  1  0
 20 21  2  0
 20 22  2  0
 20 23  1  0
 23 24  1  0
 24 25  1  0
 25 26  1  0
 26 27  1  0
 27 28  1  0
 19 29  1  0
 29 30  1  0
 12  7  1  0
 30 16  1  0
 28 23  1  0
M  END
>  <energy_score>  (2881) 
-42.642059

>  <inchikey>  (2881) 
None

>  <smiles>  (2881) 
None

>  <ref_pdb>  (2881) 
A4706a

>  <alias>  (2881) 
None

>  <HIPPO Pose ID>  (2881) 
500525

>  <name>  (2881) 
P500525

>  <HIPPO Compound ID>  (2881) 
314883

>  <ref_mols>  (2881) 
A4706a,A0875a

>  <distance_score>  (2881) 
1.715467

>  <inspiration_score>  (2881) 
None

$$$$
P500526
     RDKit          3D

 30 33  0  0  0  0  0  0  0  0999 V2000
    6.3026   12.8715   22.6188 O   0  0  0  0  0  0  0  0  0  0  0  0
    6.3551   13.7915   23.4262 C   0  0  0  0  0  0  0  0  0  0  0  0
    6.7917   15.0274   23.1156 O   0  0  0  0  0  0  0  0  0  0  0  0
    7.3046   15.2337   21.7592 C   0  0  0  0  0  0  0  0  0  0  0  0
    8.2368   16.4438   21.8364 C   0  0  2  0  0  0  0  0  0  0  0  0
    8.5241   17.4893   20.7617 C   0  0  0  0  0  0  0  0  0  0  0  0
    9.2237   16.9990   19.6407 O   0  0  0  0  0  0  0  0  0  0  0  0
   10.0660   16.0087   19.9931 C   0  0  0  0  0  0  0  0  0  0  0  0
   10.7564   15.4996   18.9198 C   0  0  0  0  0  0  0  0  0  0  0  0
   11.6721   14.5304   19.1228 C   0  0  0  0  0  0  0  0  0  0  0  0
   11.8910   14.1062   20.4095 C   0  0  0  0  0  0  0  0  0  0  0  0
   11.2901   14.6799   21.5114 C   0  0  0  0  0  0  0  0  0  0  0  0
   11.8587   14.2534   23.0538 Cl  0  0  0  0  0  0  0  0  0  0  0  0
   10.2864   15.5828   21.3030 C   0  0  0  0  0  0  0  0  0  0  0  0
    9.5110   16.0053   22.3460 O   0  0  0  0  0  0  0  0  0  0  0  0
    5.8617   13.6752   24.8723 C   0  0  0  0  0  0  0  0  0  0  0  0
    6.1532   12.2784   25.4428 C   0  0  0  0  0  0  0  0  0  0  0  0
    7.6095   12.0278   25.8155 C   0  0  0  0  0  0  0  0  0  0  0  0
    8.2666   13.2487   26.3433 N   0  0  0  0  0  0  0  0  0  0  0  0
    9.4098   13.9793   25.3197 S   0  0  0  0  0  0  0  0  0  0  0  0
    9.5771   15.3318   25.7849 O   0  0  0  0  0  0  0  0  0  0  0  0
    9.0391   13.6509   23.9695 O   0  0  0  0  0  0  0  0  0  0  0  0
   10.7993   13.1421   25.6991 N   0  0  0  0  0  0  0  0  0  0  0  0
   11.6110   13.6489   26.7978 C   0  0  0  0  0  0  0  0  0  0  0  0
   13.0568   13.2168   26.6336 C   0  0  0  0  0  0  0  0  0  0  0  0
   13.2101   11.7491   26.5553 C   0  0  0  0  0  0  0  0  0  0  0  0
   12.4068   11.2874   25.3665 C   0  0  0  0  0  0  0  0  0  0  0  0
   10.9522   11.7627   25.2631 C   0  0  0  0  0  0  0  0  0  0  0  0
    7.2850   14.1998   26.9302 C   0  0  0  0  0  0  0  0  0  0  0  0
    6.3572   14.7560   25.8506 C   0  0  0  0  0  0  0  0  0  0  0  0
  1  2  2  0
  2  3  1  0
  3  4  1  0
  5  4  1  6
  5  6  1  0
  6  7  1  0
  7  8  1  0
  8  9  2  0
  9 10  1  0
 10 11  2  0
 11 12  1  0
 12 13  1  0
 12 14  2  0
 14 15  1  0
  2 16  1  0
 16 17  1  0
 17 18  1  0
 18 19  1  0
 19 20  1  0
 20 21  2  0
 20 22  2  0
 20 23  1  0
 23 24  1  0
 24 25  1  0
 25 26  1  0
 26 27  1  0
 27 28  1  0
 19 29  1  0
 29 30  1  0
 15  5  1  0
 30 16  1  0
 14  8  1  0
 28 23  1  0
M  END
>  <energy_score>  (2882) 
-44.417972

>  <inchikey>  (2882) 
None

>  <smiles>  (2882) 
None

>  <ref_pdb>  (2882) 
A4706a

>  <alias>  (2882) 
None

>  <HIPPO Pose ID>  (2882) 
500526

>  <name>  (2882) 
P500526

>  <HIPPO Compound ID>  (2882) 
314886

>  <ref_mols>  (2882) 
A4706a,A0875a

>  <distance_score>  (2882) 
1.985894

>  <inspiration_score>  (2882) 
None

$$$$
P500527
     RDKit          3D

 30 33  0  0  0  0  0  0  0  0999 V2000
   12.3693   14.2995   19.7324 C   0  0  0  0  0  0  0  0  0  0  0  0
   11.3284   14.2840   18.7966 O   0  0  0  0  0  0  0  0  0  0  0  0
   10.5084   15.3089   19.0240 C   0  0  0  0  0  0  0  0  0  0  0  0
   10.4306   16.2542   18.2655 O   0  0  0  0  0  0  0  0  0  0  0  0
    9.6625   15.2119   20.2288 C   0  0  1  0  0  0  0  0  0  0  0  0
    9.7013   14.0084   21.0896 C   0  0  0  0  0  0  0  0  0  0  0  0
    8.9875   14.3388   22.2624 O   0  0  0  0  0  0  0  0  0  0  0  0
    9.0716   15.7592   22.3782 C   0  0  1  0  0  0  0  0  0  0  0  0
    9.9362   16.2594   21.2490 C   0  0  2  0  0  0  0  0  0  0  0  0
    9.4625   17.5027   20.8141 O   0  0  0  0  0  0  0  0  0  0  0  0
    8.1201   17.6422   21.2675 C   0  0  0  0  0  0  0  0  0  0  0  0
    7.7163   16.4393   22.1542 C   0  0  1  0  0  0  0  0  0  0  0  0
    6.7237   15.5168   21.6527 O   0  0  0  0  0  0  0  0  0  0  0  0
    5.9345   14.8284   22.5372 C   0  0  0  0  0  0  0  0  0  0  0  0
    4.8129   14.4521   22.2113 O   0  0  0  0  0  0  0  0  0  0  0  0
    6.5373   14.4672   23.8886 C   0  0  0  0  0  0  0  0  0  0  0  0
    6.6315   12.9439   24.1079 C   0  0  0  0  0  0  0  0  0  0  0  0
    7.1027   12.5960   25.5221 C   0  0  0  0  0  0  0  0  0  0  0  0
    7.8086   13.7665   26.0168 N   0  0  0  0  0  0  0  0  0  0  0  0
    9.4462   14.0164   25.9441 S   0  0  0  0  0  0  0  0  0  0  0  0
    9.6540   15.4405   25.8038 O   0  0  0  0  0  0  0  0  0  0  0  0
   10.0299   13.3318   27.0681 O   0  0  0  0  0  0  0  0  0  0  0  0
   10.1140   13.3598   24.5444 N   0  0  0  0  0  0  0  0  0  0  0  0
   10.0715   11.9350   24.1889 C   0  0  0  0  0  0  0  0  0  0  0  0
   10.8983   11.1509   25.1784 C   0  0  0  0  0  0  0  0  0  0  0  0
   12.3065   11.7166   25.4727 C   0  0  0  0  0  0  0  0  0  0  0  0
   12.4578   13.2187   25.3166 C   0  0  0  0  0  0  0  0  0  0  0  0
   11.5103   13.8263   24.3009 C   0  0  0  0  0  0  0  0  0  0  0  0
    6.8828   14.8982   26.3149 C   0  0  0  0  0  0  0  0  0  0  0  0
    5.9275   15.1188   25.1220 C   0  0  0  0  0  0  0  0  0  0  0  0
  1  2  1  0
  2  3  1  0
  3  4  2  0
  5  3  1  6
  5  6  1  0
  6  7  1  0
  8  7  1  6
  8  9  1  0
  9 10  1  6
 10 11  1  0
 11 12  1  0
 12 13  1  6
 13 14  1  0
 14 15  2  0
 14 16  1  0
 16 17  1  0
 17 18  1  0
 18 19  1  0
 19 20  1  0
 20 21  2  0
 20 22  2  0
 20 23  1  0
 23 24  1  0
 24 25  1  0
 25 26  1  0
 26 27  1  0
 27 28  1  0
 19 29  1  0
 29 30  1  0
  9  5  1  0
 30 16  1  0
 12  8  1  0
 28 23  1  0
M  END
>  <energy_score>  (2883) 
-10.974544

>  <inchikey>  (2883) 
None

>  <smiles>  (2883) 
None

>  <ref_pdb>  (2883) 
A4706a

>  <alias>  (2883) 
None

>  <HIPPO Pose ID>  (2883) 
500527

>  <name>  (2883) 
P500527

>  <HIPPO Compound ID>  (2883) 
314893

>  <ref_mols>  (2883) 
A4706a,A0875a

>  <distance_score>  (2883) 
1.828793

>  <inspiration_score>  (2883) 
None

$$$$
P500528
     RDKit          3D

 30 33  0  0  0  0  0  0  0  0999 V2000
   11.5629   14.7646   18.4513 C   0  0  0  0  0  0  0  0  0  0  0  0
   11.3217   15.5027   19.6214 O   0  0  0  0  0  0  0  0  0  0  0  0
   10.0867   16.0238   19.6612 C   0  0  0  0  0  0  0  0  0  0  0  0
    9.3887   16.1644   18.6709 O   0  0  0  0  0  0  0  0  0  0  0  0
    9.7120   16.4422   21.0483 C   0  0  1  0  0  0  0  0  0  0  0  0
    8.2567   16.1092   21.2847 C   0  0  0  0  0  0  0  0  0  0  0  0
    8.0632   15.7089   22.6236 O   0  0  0  0  0  0  0  0  0  0  0  0
    9.3206   15.3111   23.1099 C   0  0  2  0  0  0  0  0  0  0  0  0
   10.4409   15.7313   22.1719 C   0  0  1  0  0  0  0  0  0  0  0  0
   11.1238   14.5135   21.8087 O   0  0  0  0  0  0  0  0  0  0  0  0
   10.1641   13.4676   21.9097 C   0  0  0  0  0  0  0  0  0  0  0  0
    9.4777   13.8246   23.1712 C   0  0  2  0  0  0  0  0  0  0  0  0
    8.4602   12.9608   23.6285 O   0  0  0  0  0  0  0  0  0  0  0  0
    7.1788   13.1443   23.2778 C   0  0  0  0  0  0  0  0  0  0  0  0
    6.8003   13.3173   22.1286 O   0  0  0  0  0  0  0  0  0  0  0  0
    6.2503   13.0013   24.4745 C   0  0  0  0  0  0  0  0  0  0  0  0
    6.7106   11.8821   25.4229 C   0  0  0  0  0  0  0  0  0  0  0  0
    7.6911   12.3536   26.5011 C   0  0  0  0  0  0  0  0  0  0  0  0
    8.3053   13.6206   26.0837 N   0  0  0  0  0  0  0  0  0  0  0  0
    9.7489   14.1480   26.7240 S   0  0  0  0  0  0  0  0  0  0  0  0
    9.4889   14.4713   28.1030 O   0  0  0  0  0  0  0  0  0  0  0  0
   10.2972   15.1545   25.8479 O   0  0  0  0  0  0  0  0  0  0  0  0
   10.8727   12.8664   26.7243 N   0  0  0  0  0  0  0  0  0  0  0  0
   12.1372   13.4136   27.3513 C   0  0  0  0  0  0  0  0  0  0  0  0
   13.3569   12.5437   27.0901 C   0  0  0  0  0  0  0  0  0  0  0  0
   13.6129   12.3364   25.6045 C   0  0  0  0  0  0  0  0  0  0  0  0
   12.3840   12.7233   24.7876 C   0  0  0  0  0  0  0  0  0  0  0  0
   11.1522   12.1430   25.4573 C   0  0  0  0  0  0  0  0  0  0  0  0
    7.2821   14.7137   26.0562 C   0  0  0  0  0  0  0  0  0  0  0  0
    6.0821   14.3278   25.2006 C   0  0  0  0  0  0  0  0  0  0  0  0
  1  2  1  0
  2  3  1  0
  3  4  2  0
  5  3  1  6
  5  6  1  0
  6  7  1  0
  8  7  1  6
  8  9  1  0
  9 10  1  6
 10 11  1  0
 11 12  1  0
 12 13  1  6
 13 14  1  0
 14 15  2  0
 14 16  1  0
 16 17  1  0
 17 18  1  0
 18 19  1  0
 19 20  1  0
 20 21  2  0
 20 22  2  0
 20 23  1  0
 23 24  1  0
 24 25  1  0
 25 26  1  0
 26 27  1  0
 27 28  1  0
 19 29  1  0
 29 30  1  0
  9  5  1  0
 30 16  1  0
 12  8  1  0
 28 23  1  0
M  END
>  <energy_score>  (2884) 
-25.16215

>  <inchikey>  (2884) 
None

>  <smiles>  (2884) 
None

>  <ref_pdb>  (2884) 
A4706a

>  <alias>  (2884) 
None

>  <HIPPO Pose ID>  (2884) 
500528

>  <name>  (2884) 
P500528

>  <HIPPO Compound ID>  (2884) 
314893

>  <ref_mols>  (2884) 
A4706a,A0875a

>  <distance_score>  (2884) 
1.597848

>  <inspiration_score>  (2884) 
None

$$$$
P500529
     RDKit          3D

 30 33  0  0  0  0  0  0  0  0999 V2000
   11.7860   14.6929   18.2007 C   0  0  0  0  0  0  0  0  0  0  0  0
   10.4442   14.3416   18.3678 O   0  0  0  0  0  0  0  0  0  0  0  0
    9.7600   15.4469   18.7146 C   0  0  0  0  0  0  0  0  0  0  0  0
    8.9490   15.9638   17.9753 O   0  0  0  0  0  0  0  0  0  0  0  0
   10.1413   15.9088   20.0687 C   0  0  1  0  0  0  0  0  0  0  0  0
    9.2785   16.9968   20.6533 C   0  0  0  0  0  0  0  0  0  0  0  0
    8.3027   16.3759   21.4946 O   0  0  0  0  0  0  0  0  0  0  0  0
    8.5496   14.9736   21.4722 C   0  0  1  0  0  0  0  0  0  0  0  0
    9.9483   14.7609   20.9685 C   0  0  2  0  0  0  0  0  0  0  0  0
   10.8915   14.8778   22.0335 O   0  0  0  0  0  0  0  0  0  0  0  0
   10.0942   14.9345   23.2028 C   0  0  0  0  0  0  0  0  0  0  0  0
    8.7096   14.3963   22.8239 C   0  0  1  0  0  0  0  0  0  0  0  0
    7.6497   14.7177   23.7215 O   0  0  0  0  0  0  0  0  0  0  0  0
    6.6320   13.8171   23.7163 C   0  0  0  0  0  0  0  0  0  0  0  0
    6.3768   13.0807   22.7656 O   0  0  0  0  0  0  0  0  0  0  0  0
    5.8981   13.7339   25.0656 C   0  0  0  0  0  0  0  0  0  0  0  0
    5.9495   12.2850   25.5979 C   0  0  0  0  0  0  0  0  0  0  0  0
    7.0022   11.9262   26.6519 C   0  0  0  0  0  0  0  0  0  0  0  0
    7.9424   13.0384   26.9226 N   0  0  0  0  0  0  0  0  0  0  0  0
    9.1559   13.2506   25.8014 S   0  0  0  0  0  0  0  0  0  0  0  0
    9.3668   14.6760   25.7046 O   0  0  0  0  0  0  0  0  0  0  0  0
    8.7612   12.4189   24.6896 O   0  0  0  0  0  0  0  0  0  0  0  0
   10.6289   12.5752   26.3192 N   0  0  0  0  0  0  0  0  0  0  0  0
   11.5533   13.5706   26.9270 C   0  0  0  0  0  0  0  0  0  0  0  0
   13.0206   13.2335   26.7324 C   0  0  0  0  0  0  0  0  0  0  0  0
   13.3529   11.7937   26.6715 C   0  0  0  0  0  0  0  0  0  0  0  0
   12.6656   11.2648   25.4461 C   0  0  0  0  0  0  0  0  0  0  0  0
   11.2382   11.7589   25.2116 C   0  0  0  0  0  0  0  0  0  0  0  0
    7.1625   14.2537   27.2806 C   0  0  0  0  0  0  0  0  0  0  0  0
    6.3002   14.7720   26.1251 C   0  0  0  0  0  0  0  0  0  0  0  0
  1  2  1  0
  2  3  1  0
  3  4  2  0
  5  3  1  6
  5  6  1  0
  6  7  1  0
  8  7  1  1
  8  9  1  0
  9 10  1  1
 10 11  1  0
 11 12  1  0
 12 13  1  1
 13 14  1  0
 14 15  2  0
 14 16  1  0
 16 17  1  0
 17 18  1  0
 18 19  1  0
 19 20  1  0
 20 21  2  0
 20 22  2  0
 20 23  1  0
 23 24  1  0
 24 25  1  0
 25 26  1  0
 26 27  1  0
 27 28  1  0
 19 29  1  0
 29 30  1  0
  9  5  1  0
 30 16  1  0
 12  8  1  0
 28 23  1  0
M  END
>  <energy_score>  (2885) 
-53.485446

>  <inchikey>  (2885) 
None

>  <smiles>  (2885) 
None

>  <ref_pdb>  (2885) 
A4706a

>  <alias>  (2885) 
None

>  <HIPPO Pose ID>  (2885) 
500529

>  <name>  (2885) 
P500529

>  <HIPPO Compound ID>  (2885) 
314893

>  <ref_mols>  (2885) 
A4706a,A0875a

>  <distance_score>  (2885) 
1.855795

>  <inspiration_score>  (2885) 
None

$$$$
P500530
     RDKit          3D

 30 33  0  0  0  0  0  0  0  0999 V2000
   12.2745   14.2370   19.5641 C   0  0  0  0  0  0  0  0  0  0  0  0
   11.6997   14.9369   20.6340 O   0  0  0  0  0  0  0  0  0  0  0  0
   10.6937   15.6788   20.1625 C   0  0  0  0  0  0  0  0  0  0  0  0
   10.5976   16.1065   19.0146 O   0  0  0  0  0  0  0  0  0  0  0  0
    9.6149   15.8649   21.1343 C   0  0  1  0  0  0  0  0  0  0  0  0
    8.5736   15.0362   20.4749 C   0  0  0  0  0  0  0  0  0  0  0  0
    7.4517   15.2842   21.3057 O   0  0  0  0  0  0  0  0  0  0  0  0
    7.9803   14.9950   22.6202 C   0  0  2  0  0  0  0  0  0  0  0  0
    9.5145   15.1936   22.4778 C   0  0  1  0  0  0  0  0  0  0  0  0
   10.0768   13.8717   22.4850 O   0  0  0  0  0  0  0  0  0  0  0  0
    9.0845   12.9873   22.9698 C   0  0  0  0  0  0  0  0  0  0  0  0
    7.7102   13.5087   22.7059 C   0  0  1  0  0  0  0  0  0  0  0  0
    6.8902   12.9759   23.7297 O   0  0  0  0  0  0  0  0  0  0  0  0
    5.7368   13.5784   24.0677 C   0  0  0  0  0  0  0  0  0  0  0  0
    5.1237   14.3837   23.3897 O   0  0  0  0  0  0  0  0  0  0  0  0
    5.3723   13.1735   25.4836 C   0  0  0  0  0  0  0  0  0  0  0  0
    6.1555   11.9446   25.9998 C   0  0  0  0  0  0  0  0  0  0  0  0
    7.4384   12.3243   26.7527 C   0  0  0  0  0  0  0  0  0  0  0  0
    8.0426   13.5269   26.1590 N   0  0  0  0  0  0  0  0  0  0  0  0
    9.6535   13.9549   26.4294 S   0  0  0  0  0  0  0  0  0  0  0  0
    9.7238   14.3959   27.8009 O   0  0  0  0  0  0  0  0  0  0  0  0
   10.0298   14.8702   25.3782 O   0  0  0  0  0  0  0  0  0  0  0  0
   10.6771   12.6048   26.3365 N   0  0  0  0  0  0  0  0  0  0  0  0
   12.0795   13.0078   26.7191 C   0  0  0  0  0  0  0  0  0  0  0  0
   13.0928   12.6880   25.6411 C   0  0  0  0  0  0  0  0  0  0  0  0
   13.1162   11.1907   25.3788 C   0  0  0  0  0  0  0  0  0  0  0  0
   11.6892   10.5850   25.3018 C   0  0  0  0  0  0  0  0  0  0  0  0
   10.6497   11.6850   25.1765 C   0  0  0  0  0  0  0  0  0  0  0  0
    7.1505   14.7308   26.3866 C   0  0  0  0  0  0  0  0  0  0  0  0
    5.6633   14.3747   26.3736 C   0  0  0  0  0  0  0  0  0  0  0  0
  1  2  1  0
  2  3  1  0
  3  4  2  0
  5  3  1  6
  5  6  1  0
  6  7  1  0
  8  7  1  6
  8  9  1  0
  9 10  1  6
 10 11  1  0
 11 12  1  0
 12 13  1  1
 13 14  1  0
 14 15  2  0
 14 16  1  0
 16 17  1  0
 17 18  1  0
 18 19  1  0
 19 20  1  0
 20 21  2  0
 20 22  2  0
 20 23  1  0
 23 24  1  0
 24 25  1  0
 25 26  1  0
 26 27  1  0
 27 28  1  0
 19 29  1  0
 29 30  1  0
  9  5  1  0
 30 16  1  0
 12  8  1  0
 28 23  1  0
M  END
>  <energy_score>  (2886) 
-25.473329

>  <inchikey>  (2886) 
None

>  <smiles>  (2886) 
None

>  <ref_pdb>  (2886) 
A4706a

>  <alias>  (2886) 
None

>  <HIPPO Pose ID>  (2886) 
500530

>  <name>  (2886) 
P500530

>  <HIPPO Compound ID>  (2886) 
314893

>  <ref_mols>  (2886) 
A4706a,A0875a

>  <distance_score>  (2886) 
1.733145

>  <inspiration_score>  (2886) 
None

$$$$
P500531
     RDKit          3D

 30 33  0  0  0  0  0  0  0  0999 V2000
   11.0892   15.0698   18.7285 C   0  0  0  0  0  0  0  0  0  0  0  0
   10.2942   16.2585   18.6495 O   0  0  0  0  0  0  0  0  0  0  0  0
    9.5728   16.7724   19.6699 C   0  0  0  0  0  0  0  0  0  0  0  0
    9.1889   17.9355   19.6460 O   0  0  0  0  0  0  0  0  0  0  0  0
    9.1830   15.8413   20.7498 C   0  0  2  0  0  0  0  0  0  0  0  0
    8.0420   16.3947   21.5880 C   0  0  0  0  0  0  0  0  0  0  0  0
    8.2181   15.9308   22.9190 O   0  0  0  0  0  0  0  0  0  0  0  0
    9.4783   15.3117   22.9778 C   0  0  2  0  0  0  0  0  0  0  0  0
   10.2810   15.6545   21.7617 C   0  0  1  0  0  0  0  0  0  0  0  0
   11.0880   14.4978   21.5644 O   0  0  0  0  0  0  0  0  0  0  0  0
   10.2183   13.3968   21.8265 C   0  0  0  0  0  0  0  0  0  0  0  0
    9.2749   13.8254   22.9018 C   0  0  2  0  0  0  0  0  0  0  0  0
    7.9082   13.4449   22.7258 O   0  0  0  0  0  0  0  0  0  0  0  0
    7.5820   12.5328   23.6685 C   0  0  0  0  0  0  0  0  0  0  0  0
    8.2013   11.4798   23.7925 O   0  0  0  0  0  0  0  0  0  0  0  0
    6.3770   12.9100   24.5144 C   0  0  0  0  0  0  0  0  0  0  0  0
    6.4773   12.0859   25.7969 C   0  0  0  0  0  0  0  0  0  0  0  0
    7.7150   12.4940   26.6098 C   0  0  0  0  0  0  0  0  0  0  0  0
    8.4123   13.6520   25.9815 N   0  0  0  0  0  0  0  0  0  0  0  0
   10.0081   14.0370   26.3818 S   0  0  0  0  0  0  0  0  0  0  0  0
   10.2283   15.4138   26.0108 O   0  0  0  0  0  0  0  0  0  0  0  0
   10.2781   13.6031   27.7190 O   0  0  0  0  0  0  0  0  0  0  0  0
   10.9767   13.1255   25.3635 N   0  0  0  0  0  0  0  0  0  0  0  0
   12.2313   13.6904   24.8551 C   0  0  0  0  0  0  0  0  0  0  0  0
   13.4412   13.0604   25.5365 C   0  0  0  0  0  0  0  0  0  0  0  0
   13.5131   11.5906   25.2403 C   0  0  0  0  0  0  0  0  0  0  0  0
   12.1763   11.0329   25.6140 C   0  0  0  0  0  0  0  0  0  0  0  0
   10.8849   11.6923   25.1653 C   0  0  0  0  0  0  0  0  0  0  0  0
    7.4587   14.7918   25.8631 C   0  0  0  0  0  0  0  0  0  0  0  0
    6.3200   14.3872   24.9180 C   0  0  0  0  0  0  0  0  0  0  0  0
  1  2  1  0
  2  3  1  0
  3  4  2  0
  5  3  1  6
  5  6  1  0
  6  7  1  0
  8  7  1  6
  8  9  1  0
  9 10  1  6
 10 11  1  0
 11 12  1  0
 12 13  1  6
 13 14  1  0
 14 15  2  0
 14 16  1  0
 16 17  1  0
 17 18  1  0
 18 19  1  0
 19 20  1  0
 20 21  2  0
 20 22  2  0
 20 23  1  0
 23 24  1  0
 24 25  1  0
 25 26  1  0
 26 27  1  0
 27 28  1  0
 19 29  1  0
 29 30  1  0
  9  5  1  0
 30 16  1  0
 12  8  1  0
 28 23  1  0
M  END
>  <energy_score>  (2887) 
-35.044328

>  <inchikey>  (2887) 
None

>  <smiles>  (2887) 
None

>  <ref_pdb>  (2887) 
A4706a

>  <alias>  (2887) 
None

>  <HIPPO Pose ID>  (2887) 
500531

>  <name>  (2887) 
P500531

>  <HIPPO Compound ID>  (2887) 
314893

>  <ref_mols>  (2887) 
A4706a,A0875a

>  <distance_score>  (2887) 
1.615882

>  <inspiration_score>  (2887) 
None

$$$$
P500532
     RDKit          3D

 30 33  0  0  0  0  0  0  0  0999 V2000
   11.5590   14.9960   18.2582 C   0  0  0  0  0  0  0  0  0  0  0  0
   10.3412   14.6941   18.8939 O   0  0  0  0  0  0  0  0  0  0  0  0
    9.7435   15.7510   19.4838 C   0  0  0  0  0  0  0  0  0  0  0  0
    9.7371   16.9041   19.1022 O   0  0  0  0  0  0  0  0  0  0  0  0
    9.1672   15.2942   20.7553 C   0  0  2  0  0  0  0  0  0  0  0  0
    8.3227   16.2757   21.5151 C   0  0  0  0  0  0  0  0  0  0  0  0
    8.4840   15.9192   22.8926 O   0  0  0  0  0  0  0  0  0  0  0  0
    9.6574   15.1405   23.0008 C   0  0  2  0  0  0  0  0  0  0  0  0
   10.3464   15.1448   21.6782 C   0  0  1  0  0  0  0  0  0  0  0  0
   10.9826   13.8917   21.5184 O   0  0  0  0  0  0  0  0  0  0  0  0
   10.3977   12.9923   22.4533 C   0  0  0  0  0  0  0  0  0  0  0  0
    9.2821   13.6988   23.1730 C   0  0  2  0  0  0  0  0  0  0  0  0
    7.9281   13.4160   22.7778 O   0  0  0  0  0  0  0  0  0  0  0  0
    7.3388   12.6340   23.7152 C   0  0  0  0  0  0  0  0  0  0  0  0
    7.7917   11.5269   23.9933 O   0  0  0  0  0  0  0  0  0  0  0  0
    6.0549   13.1747   24.3297 C   0  0  0  0  0  0  0  0  0  0  0  0
    5.9001   12.5384   25.7240 C   0  0  0  0  0  0  0  0  0  0  0  0
    7.0030   13.0022   26.6919 C   0  0  0  0  0  0  0  0  0  0  0  0
    7.7864   14.0910   26.0510 N   0  0  0  0  0  0  0  0  0  0  0  0
    9.2727   14.5481   26.6660 S   0  0  0  0  0  0  0  0  0  0  0  0
    9.2838   14.3217   28.0830 O   0  0  0  0  0  0  0  0  0  0  0  0
    9.6269   15.8267   26.1164 O   0  0  0  0  0  0  0  0  0  0  0  0
   10.3934   13.4949   25.9565 N   0  0  0  0  0  0  0  0  0  0  0  0
   10.1088   12.0740   26.0515 C   0  0  0  0  0  0  0  0  0  0  0  0
   11.1211   11.2218   25.3117 C   0  0  0  0  0  0  0  0  0  0  0  0
   12.5676   11.6307   25.5725 C   0  0  0  0  0  0  0  0  0  0  0  0
   12.7612   13.1153   25.4340 C   0  0  0  0  0  0  0  0  0  0  0  0
   11.7745   13.8381   26.3387 C   0  0  0  0  0  0  0  0  0  0  0  0
    6.8821   15.1928   25.6416 C   0  0  0  0  0  0  0  0  0  0  0  0
    6.0047   14.6938   24.4941 C   0  0  0  0  0  0  0  0  0  0  0  0
  1  2  1  0
  2  3  1  0
  3  4  2  0
  5  3  1  6
  5  6  1  0
  6  7  1  0
  8  7  1  6
  8  9  1  0
  9 10  1  6
 10 11  1  0
 11 12  1  0
 12 13  1  6
 13 14  1  0
 14 15  2  0
 14 16  1  0
 16 17  1  0
 17 18  1  0
 18 19  1  0
 19 20  1  0
 20 21  2  0
 20 22  2  0
 20 23  1  0
 23 24  1  0
 24 25  1  0
 25 26  1  0
 26 27  1  0
 27 28  1  0
 19 29  1  0
 29 30  1  0
  9  5  1  0
 30 16  1  0
 12  8  1  0
 28 23  1  0
M  END
>  <energy_score>  (2888) 
-24.501229

>  <inchikey>  (2888) 
None

>  <smiles>  (2888) 
None

>  <ref_pdb>  (2888) 
A4706a

>  <alias>  (2888) 
None

>  <HIPPO Pose ID>  (2888) 
500532

>  <name>  (2888) 
P500532

>  <HIPPO Compound ID>  (2888) 
314893

>  <ref_mols>  (2888) 
A4706a,A0875a

>  <distance_score>  (2888) 
1.677311

>  <inspiration_score>  (2888) 
None

$$$$
P500533
     RDKit          3D

 30 33  0  0  0  0  0  0  0  0999 V2000
   11.5062   14.7940   18.5037 C   0  0  0  0  0  0  0  0  0  0  0  0
   11.2590   15.3110   19.7905 O   0  0  0  0  0  0  0  0  0  0  0  0
   10.1105   15.9966   19.8636 C   0  0  0  0  0  0  0  0  0  0  0  0
    9.4644   16.3250   18.8798 O   0  0  0  0  0  0  0  0  0  0  0  0
    9.7256   16.3449   21.2688 C   0  0  1  0  0  0  0  0  0  0  0  0
    8.2751   15.9572   21.4718 C   0  0  0  0  0  0  0  0  0  0  0  0
    8.0985   15.5111   22.8066 O   0  0  0  0  0  0  0  0  0  0  0  0
    9.3548   15.1233   23.3141 C   0  0  2  0  0  0  0  0  0  0  0  0
   10.4635   15.6932   22.4337 C   0  0  1  0  0  0  0  0  0  0  0  0
   11.3167   14.5858   22.1301 O   0  0  0  0  0  0  0  0  0  0  0  0
   10.4604   13.4565   22.0699 C   0  0  0  0  0  0  0  0  0  0  0  0
    9.5855   13.6269   23.2720 C   0  0  2  0  0  0  0  0  0  0  0  0
    8.5477   12.6504   23.2729 O   0  0  0  0  0  0  0  0  0  0  0  0
    7.2788   12.9737   23.5735 C   0  0  0  0  0  0  0  0  0  0  0  0
    6.4621   13.1674   22.6796 O   0  0  0  0  0  0  0  0  0  0  0  0
    6.9134   12.9696   25.0445 C   0  0  0  0  0  0  0  0  0  0  0  0
    7.5957   11.8442   25.8196 C   0  0  0  0  0  0  0  0  0  0  0  0
    9.0768   12.0997   26.0869 C   0  0  0  0  0  0  0  0  0  0  0  0
    9.4014   13.5303   26.2188 N   0  0  0  0  0  0  0  0  0  0  0  0
   10.8636   14.0450   26.9018 S   0  0  0  0  0  0  0  0  0  0  0  0
   11.2796   15.1895   26.1256 O   0  0  0  0  0  0  0  0  0  0  0  0
   10.6133   14.1609   28.3170 O   0  0  0  0  0  0  0  0  0  0  0  0
   12.0257   12.7969   26.6918 N   0  0  0  0  0  0  0  0  0  0  0  0
   13.1650   12.8866   27.6906 C   0  0  0  0  0  0  0  0  0  0  0  0
   14.5551   12.6461   27.1116 C   0  0  0  0  0  0  0  0  0  0  0  0
   14.6338   11.4265   26.2434 C   0  0  0  0  0  0  0  0  0  0  0  0
   13.4624   11.3708   25.2921 C   0  0  0  0  0  0  0  0  0  0  0  0
   12.5176   12.5704   25.3208 C   0  0  0  0  0  0  0  0  0  0  0  0
    8.2539   14.3689   26.6911 C   0  0  0  0  0  0  0  0  0  0  0  0
    7.0807   14.3198   25.7230 C   0  0  0  0  0  0  0  0  0  0  0  0
  1  2  1  0
  2  3  1  0
  3  4  2  0
  5  3  1  6
  5  6  1  0
  6  7  1  0
  8  7  1  6
  8  9  1  0
  9 10  1  6
 10 11  1  0
 11 12  1  0
 12 13  1  6
 13 14  1  0
 14 15  2  0
 14 16  1  0
 16 17  1  0
 17 18  1  0
 18 19  1  0
 19 20  1  0
 20 21  2  0
 20 22  2  0
 20 23  1  0
 23 24  1  0
 24 25  1  0
 25 26  1  0
 26 27  1  0
 27 28  1  0
 19 29  1  0
 29 30  1  0
  9  5  1  0
 30 16  1  0
 12  8  1  0
 28 23  1  0
M  END
>  <energy_score>  (2889) 
-6.936226

>  <inchikey>  (2889) 
None

>  <smiles>  (2889) 
None

>  <ref_pdb>  (2889) 
A4706a

>  <alias>  (2889) 
None

>  <HIPPO Pose ID>  (2889) 
500533

>  <name>  (2889) 
P500533

>  <HIPPO Compound ID>  (2889) 
314893

>  <ref_mols>  (2889) 
A4706a,A0875a

>  <distance_score>  (2889) 
1.899319

>  <inspiration_score>  (2889) 
None

$$$$
P500534
     RDKit          3D

 30 32  0  0  0  0  0  0  0  0999 V2000
    8.4767   18.5236   20.9994 C   0  0  0  0  0  0  0  0  0  0  0  0
    8.1297   17.1511   20.9657 O   0  0  0  0  0  0  0  0  0  0  0  0
    7.4635   16.5306   21.9715 C   0  0  0  0  0  0  0  0  0  0  0  0
    6.7412   17.0084   22.8359 O   0  0  0  0  0  0  0  0  0  0  0  0
    7.8443   15.0565   21.9435 C   0  0  2  0  0  0  0  0  0  0  0  0
    6.9737   14.2091   21.0768 C   0  0  0  0  0  0  0  0  0  0  0  0
    7.6098   14.5112   23.2457 O   0  0  0  0  0  0  0  0  0  0  0  0
    6.3255   14.3631   23.7347 C   0  0  0  0  0  0  0  0  0  0  0  0
    5.2567   14.4937   23.1692 O   0  0  0  0  0  0  0  0  0  0  0  0
    6.4979   13.9442   25.1382 C   0  0  0  0  0  0  0  0  0  0  0  0
    6.2828   12.5244   25.5846 C   0  0  0  0  0  0  0  0  0  0  0  0
    7.2286   12.3108   26.7803 C   0  0  0  0  0  0  0  0  0  0  0  0
    7.8363   13.5960   27.2742 N   0  0  0  0  0  0  0  0  0  0  0  0
    9.3108   14.2934   26.7735 S   0  0  0  0  0  0  0  0  0  0  0  0
    9.1208   15.2307   25.6906 O   0  0  0  0  0  0  0  0  0  0  0  0
    9.9284   14.7737   27.9839 O   0  0  0  0  0  0  0  0  0  0  0  0
   10.3256   13.1016   26.1815 N   0  0  0  0  0  0  0  0  0  0  0  0
    9.9675   12.3605   24.9649 C   0  0  0  0  0  0  0  0  0  0  0  0
   10.7701   11.0716   25.0326 C   0  0  0  0  0  0  0  0  0  0  0  0
   12.2513   11.3630   25.4214 C   0  0  0  0  0  0  0  0  0  0  0  0
   12.6120   12.8033   25.1599 C   0  0  0  0  0  0  0  0  0  0  0  0
   11.7183   13.6661   26.0474 C   0  0  0  0  0  0  0  0  0  0  0  0
    6.7640   14.6144   27.5127 C   0  0  0  0  0  0  0  0  0  0  0  0
    6.1117   14.9796   26.1769 C   0  0  0  0  0  0  0  0  0  0  0  0
    9.3393   14.9299   21.5569 C   0  0  0  0  0  0  0  0  0  0  0  0
    9.7546   14.9703   20.2045 C   0  0  0  0  0  0  0  0  0  0  0  0
   11.0848   14.9947   19.8343 C   0  0  0  0  0  0  0  0  0  0  0  0
   12.0302   15.0559   20.8358 C   0  0  0  0  0  0  0  0  0  0  0  0
   11.6696   15.0642   22.1755 C   0  0  0  0  0  0  0  0  0  0  0  0
   10.3328   15.0207   22.5305 C   0  0  0  0  0  0  0  0  0  0  0  0
  1  2  1  0
  2  3  1  0
  3  4  2  0
  3  5  1  0
  5  6  1  6
  5  7  1  0
  7  8  1  0
  8  9  2  0
  8 10  1  0
 10 11  1  0
 11 12  1  0
 12 13  1  0
 13 14  1  0
 14 15  2  0
 14 16  2  0
 14 17  1  0
 17 18  1  0
 18 19  1  0
 19 20  1  0
 20 21  1  0
 21 22  1  0
 13 23  1  0
 23 24  1  0
  5 25  1  0
 25 26  2  0
 26 27  1  0
 27 28  2  0
 28 29  1  0
 29 30  2  0
 24 10  1  0
 30 25  1  0
 22 17  1  0
M  END
>  <energy_score>  (2890) 
-1.239608

>  <inchikey>  (2890) 
None

>  <smiles>  (2890) 
None

>  <ref_pdb>  (2890) 
A4706a

>  <alias>  (2890) 
None

>  <HIPPO Pose ID>  (2890) 
500534

>  <name>  (2890) 
P500534

>  <HIPPO Compound ID>  (2890) 
314894

>  <ref_mols>  (2890) 
A0875a,A4706a

>  <distance_score>  (2890) 
1.606533

>  <inspiration_score>  (2890) 
None

$$$$
P500535
     RDKit          3D

 30 32  0  0  0  0  0  0  0  0999 V2000
    3.4465   14.2266   21.9777 C   0  0  0  0  0  0  0  0  0  0  0  0
    4.6251   14.8017   22.5498 O   0  0  0  0  0  0  0  0  0  0  0  0
    5.7835   14.5654   21.8330 C   0  0  0  0  0  0  0  0  0  0  0  0
    5.7707   13.9168   20.8054 O   0  0  0  0  0  0  0  0  0  0  0  0
    7.0195   15.1759   22.5575 C   0  0  1  0  0  0  0  0  0  0  0  0
    6.6618   16.6540   22.6755 C   0  0  0  0  0  0  0  0  0  0  0  0
    6.9749   14.7179   23.9321 O   0  0  0  0  0  0  0  0  0  0  0  0
    6.5391   13.4572   24.1464 C   0  0  0  0  0  0  0  0  0  0  0  0
    6.5245   12.5718   23.3047 O   0  0  0  0  0  0  0  0  0  0  0  0
    5.9605   13.2823   25.5319 C   0  0  0  0  0  0  0  0  0  0  0  0
    6.2934   11.8768   26.0356 C   0  0  0  0  0  0  0  0  0  0  0  0
    7.7958   11.6551   26.1383 C   0  0  0  0  0  0  0  0  0  0  0  0
    8.4889   12.8944   26.5678 N   0  0  0  0  0  0  0  0  0  0  0  0
    9.6025   13.5523   25.4993 S   0  0  0  0  0  0  0  0  0  0  0  0
    9.2896   13.0670   24.1842 O   0  0  0  0  0  0  0  0  0  0  0  0
    9.7071   14.9557   25.8002 O   0  0  0  0  0  0  0  0  0  0  0  0
   11.0622   12.8189   25.9666 N   0  0  0  0  0  0  0  0  0  0  0  0
   11.9730   12.6385   24.8047 C   0  0  0  0  0  0  0  0  0  0  0  0
   13.0878   11.7016   25.2507 C   0  0  0  0  0  0  0  0  0  0  0  0
   13.9353   12.3519   26.3226 C   0  0  0  0  0  0  0  0  0  0  0  0
   13.0646   12.8429   27.4623 C   0  0  0  0  0  0  0  0  0  0  0  0
   11.7667   13.5525   27.0481 C   0  0  0  0  0  0  0  0  0  0  0  0
    7.6347   13.8461   27.3329 C   0  0  0  0  0  0  0  0  0  0  0  0
    6.4464   14.3367   26.5288 C   0  0  0  0  0  0  0  0  0  0  0  0
    8.4592   15.0855   21.9562 C   0  0  0  0  0  0  0  0  0  0  0  0
    8.7422   14.8056   20.6281 C   0  0  0  0  0  0  0  0  0  0  0  0
   10.0410   14.8369   20.0774 C   0  0  0  0  0  0  0  0  0  0  0  0
   11.1291   15.1124   20.8837 C   0  0  0  0  0  0  0  0  0  0  0  0
   10.9013   15.4218   22.2091 C   0  0  0  0  0  0  0  0  0  0  0  0
    9.5900   15.4427   22.7034 C   0  0  0  0  0  0  0  0  0  0  0  0
  1  2  1  0
  2  3  1  0
  3  4  2  0
  3  5  1  0
  5  6  1  1
  5  7  1  0
  7  8  1  0
  8  9  2  0
  8 10  1  0
 10 11  1  0
 11 12  1  0
 12 13  1  0
 13 14  1  0
 14 15  2  0
 14 16  2  0
 14 17  1  0
 17 18  1  0
 18 19  1  0
 19 20  1  0
 20 21  1  0
 21 22  1  0
 13 23  1  0
 23 24  1  0
  5 25  1  0
 25 26  2  0
 26 27  1  0
 27 28  2  0
 28 29  1  0
 29 30  2  0
 24 10  1  0
 30 25  1  0
 22 17  1  0
M  END
>  <energy_score>  (2891) 
-46.69762

>  <inchikey>  (2891) 
None

>  <smiles>  (2891) 
None

>  <ref_pdb>  (2891) 
A4706a

>  <alias>  (2891) 
None

>  <HIPPO Pose ID>  (2891) 
500535

>  <name>  (2891) 
P500535

>  <HIPPO Compound ID>  (2891) 
314894

>  <ref_mols>  (2891) 
A4706a,A0875a

>  <distance_score>  (2891) 
1.912298

>  <inspiration_score>  (2891) 
None

$$$$
P500536
     RDKit          3D

 30 32  0  0  0  0  0  0  0  0999 V2000
    3.2072   14.7811   22.2758 C   0  0  0  0  0  0  0  0  0  0  0  0
    4.4161   15.4546   22.6428 O   0  0  0  0  0  0  0  0  0  0  0  0
    5.5108   15.0327   21.9189 C   0  0  0  0  0  0  0  0  0  0  0  0
    5.3879   14.3575   20.9093 O   0  0  0  0  0  0  0  0  0  0  0  0
    6.8104   15.4580   22.6487 C   0  0  1  0  0  0  0  0  0  0  0  0
    6.6579   14.8421   23.9573 O   0  0  0  0  0  0  0  0  0  0  0  0
    6.4027   13.5079   23.8823 C   0  0  0  0  0  0  0  0  0  0  0  0
    6.5488   12.8318   22.8687 O   0  0  0  0  0  0  0  0  0  0  0  0
    5.8353   12.9102   25.1420 C   0  0  0  0  0  0  0  0  0  0  0  0
    6.6674   11.6775   25.4839 C   0  0  0  0  0  0  0  0  0  0  0  0
    7.6034   11.9088   26.6390 C   0  0  0  0  0  0  0  0  0  0  0  0
    8.0756   13.2973   26.7624 N   0  0  0  0  0  0  0  0  0  0  0  0
    9.3438   13.8078   25.7933 S   0  0  0  0  0  0  0  0  0  0  0  0
    9.6489   15.1616   26.1848 O   0  0  0  0  0  0  0  0  0  0  0  0
    8.9776   13.4646   24.4497 O   0  0  0  0  0  0  0  0  0  0  0  0
   10.6150   12.7946   26.2611 N   0  0  0  0  0  0  0  0  0  0  0  0
   11.6686   13.5255   27.0436 C   0  0  0  0  0  0  0  0  0  0  0  0
   12.9928   12.7574   27.0562 C   0  0  0  0  0  0  0  0  0  0  0  0
   13.5154   12.5092   25.6446 C   0  0  0  0  0  0  0  0  0  0  0  0
   12.4026   12.7236   24.6241 C   0  0  0  0  0  0  0  0  0  0  0  0
   11.1640   12.0158   25.1172 C   0  0  0  0  0  0  0  0  0  0  0  0
    6.9917   14.2921   26.9506 C   0  0  0  0  0  0  0  0  0  0  0  0
    5.6767   13.8539   26.3263 C   0  0  0  0  0  0  0  0  0  0  0  0
    8.2011   15.2465   22.0405 C   0  0  0  0  0  0  0  0  0  0  0  0
    8.4501   14.8394   20.7487 C   0  0  0  0  0  0  0  0  0  0  0  0
    9.7298   14.8391   20.2092 C   0  0  0  0  0  0  0  0  0  0  0  0
   10.7863   15.1083   21.0441 C   0  0  0  0  0  0  0  0  0  0  0  0
   12.1498   14.8862   20.5206 C   0  0  0  0  0  0  0  0  0  0  0  0
   10.6373   15.4215   22.3388 N   0  0  0  0  0  0  0  0  0  0  0  0
    9.3572   15.5231   22.7616 C   0  0  0  0  0  0  0  0  0  0  0  0
  1  2  1  0
  2  3  1  0
  3  4  2  0
  3  5  1  0
  5  6  1  1
  6  7  1  0
  7  8  2  0
  7  9  1  0
  9 10  1  0
 10 11  1  0
 11 12  1  0
 12 13  1  0
 13 14  2  0
 13 15  2  0
 13 16  1  0
 16 17  1  0
 17 18  1  0
 18 19  1  0
 19 20  1  0
 20 21  1  0
 12 22  1  0
 22 23  1  0
  5 24  1  0
 24 25  2  0
 25 26  1  0
 26 27  2  0
 27 28  1  0
 27 29  1  0
 29 30  2  0
 23  9  1  0
 30 24  1  0
 21 16  1  0
M  END
>  <energy_score>  (2892) 
-40.312822

>  <inchikey>  (2892) 
None

>  <smiles>  (2892) 
None

>  <ref_pdb>  (2892) 
A4706a

>  <alias>  (2892) 
None

>  <HIPPO Pose ID>  (2892) 
500536

>  <name>  (2892) 
P500536

>  <HIPPO Compound ID>  (2892) 
314897

>  <ref_mols>  (2892) 
A0875a,A4706a

>  <distance_score>  (2892) 
1.97479

>  <inspiration_score>  (2892) 
None

$$$$
P500537
     RDKit          3D

 30 32  0  0  0  0  0  0  0  0999 V2000
    8.7730   17.9270   20.8817 C   0  0  0  0  0  0  0  0  0  0  0  0
    7.8043   17.4174   21.8117 O   0  0  0  0  0  0  0  0  0  0  0  0
    7.2081   16.2380   21.9972 C   0  0  0  0  0  0  0  0  0  0  0  0
    6.1483   16.1850   22.6353 O   0  0  0  0  0  0  0  0  0  0  0  0
    7.8578   14.9511   21.5428 C   0  0  2  0  0  0  0  0  0  0  0  0
    7.8583   14.1702   22.7906 O   0  0  0  0  0  0  0  0  0  0  0  0
    6.7509   13.4757   23.0970 C   0  0  0  0  0  0  0  0  0  0  0  0
    5.9689   13.0610   22.2540 O   0  0  0  0  0  0  0  0  0  0  0  0
    6.6370   13.1712   24.5835 C   0  0  0  0  0  0  0  0  0  0  0  0
    7.3816   11.8777   24.9362 C   0  0  0  0  0  0  0  0  0  0  0  0
    8.8610   12.1288   25.1677 C   0  0  0  0  0  0  0  0  0  0  0  0
    9.0858   13.0764   26.2684 N   0  0  0  0  0  0  0  0  0  0  0  0
   10.5239   13.9494   26.3122 S   0  0  0  0  0  0  0  0  0  0  0  0
   10.5166   14.6254   27.5825 O   0  0  0  0  0  0  0  0  0  0  0  0
   10.6750   14.6982   25.0879 O   0  0  0  0  0  0  0  0  0  0  0  0
   11.7552   12.7598   26.3557 N   0  0  0  0  0  0  0  0  0  0  0  0
   12.8584   13.0031   27.3441 C   0  0  0  0  0  0  0  0  0  0  0  0
   14.2716   12.7685   26.8094 C   0  0  0  0  0  0  0  0  0  0  0  0
   14.4149   11.4289   26.1664 C   0  0  0  0  0  0  0  0  0  0  0  0
   13.2906   11.2243   25.1840 C   0  0  0  0  0  0  0  0  0  0  0  0
   12.2722   12.3581   25.0427 C   0  0  0  0  0  0  0  0  0  0  0  0
    7.8674   13.8549   26.6805 C   0  0  0  0  0  0  0  0  0  0  0  0
    7.0815   14.3408   25.4731 C   0  0  0  0  0  0  0  0  0  0  0  0
    9.2875   15.0155   21.1003 C   0  0  0  0  0  0  0  0  0  0  0  0
    9.7156   15.0733   19.7706 C   0  0  0  0  0  0  0  0  0  0  0  0
   11.0638   15.0157   19.4609 C   0  0  0  0  0  0  0  0  0  0  0  0
   11.9844   14.9480   20.4979 C   0  0  0  0  0  0  0  0  0  0  0  0
   11.5720   14.9717   21.8135 C   0  0  0  0  0  0  0  0  0  0  0  0
   12.4416   14.9128   22.8454 O   0  0  0  0  0  0  0  0  0  0  0  0
   10.2409   15.0474   22.1025 C   0  0  0  0  0  0  0  0  0  0  0  0
  1  2  1  0
  2  3  1  0
  3  4  2  0
  3  5  1  0
  5  6  1  1
  6  7  1  0
  7  8  2  0
  7  9  1  0
  9 10  1  0
 10 11  1  0
 11 12  1  0
 12 13  1  0
 13 14  2  0
 13 15  2  0
 13 16  1  0
 16 17  1  0
 17 18  1  0
 18 19  1  0
 19 20  1  0
 20 21  1  0
 12 22  1  0
 22 23  1  0
  5 24  1  0
 24 25  2  0
 25 26  1  0
 26 27  2  0
 27 28  1  0
 28 29  1  0
 28 30  2  0
 23  9  1  0
 30 24  1  0
 21 16  1  0
M  END
>  <energy_score>  (2893) 
-61.731746

>  <inchikey>  (2893) 
None

>  <smiles>  (2893) 
None

>  <ref_pdb>  (2893) 
A4706a

>  <alias>  (2893) 
None

>  <HIPPO Pose ID>  (2893) 
500537

>  <name>  (2893) 
P500537

>  <HIPPO Compound ID>  (2893) 
314902

>  <ref_mols>  (2893) 
A4706a,A0875a

>  <distance_score>  (2893) 
1.672323

>  <inspiration_score>  (2893) 
None

$$$$
P500538
     RDKit          3D

 30 33  0  0  0  0  0  0  0  0999 V2000
    6.6760   12.9464   22.3391 O   0  0  0  0  0  0  0  0  0  0  0  0
    6.7021   13.9826   23.0026 C   0  0  0  0  0  0  0  0  0  0  0  0
    7.2835   15.1291   22.5541 O   0  0  0  0  0  0  0  0  0  0  0  0
    8.0936   14.9154   21.3629 C   0  0  0  0  0  0  0  0  0  0  0  0
    8.7714   16.2134   20.8542 C   0  0  2  0  0  0  0  0  0  0  0  0
    9.5051   16.1115   19.4895 C   0  0  0  0  0  0  0  0  0  0  0  0
   10.7178   15.3899   19.4552 O   0  0  0  0  0  0  0  0  0  0  0  0
   11.1579   15.1765   20.7106 C   0  0  0  0  0  0  0  0  0  0  0  0
   11.8679   14.0507   20.9057 C   0  0  0  0  0  0  0  0  0  0  0  0
   12.3342   13.3699   19.8506 F   0  0  0  0  0  0  0  0  0  0  0  0
   12.0262   13.5963   22.1961 C   0  0  0  0  0  0  0  0  0  0  0  0
   11.8669   14.4318   23.2712 C   0  0  0  0  0  0  0  0  0  0  0  0
   11.2106   15.6091   23.0819 C   0  0  0  0  0  0  0  0  0  0  0  0
   10.7556   15.8873   21.8239 C   0  0  0  0  0  0  0  0  0  0  0  0
    9.7151   16.7443   21.7659 O   0  0  0  0  0  0  0  0  0  0  0  0
    6.0206   14.0595   24.3757 C   0  0  0  0  0  0  0  0  0  0  0  0
    6.0553   12.6759   25.0700 C   0  0  0  0  0  0  0  0  0  0  0  0
    7.3852   12.2927   25.7276 C   0  0  0  0  0  0  0  0  0  0  0  0
    8.0661   13.4650   26.3404 N   0  0  0  0  0  0  0  0  0  0  0  0
    9.4086   14.0518   25.4943 S   0  0  0  0  0  0  0  0  0  0  0  0
    9.6588   15.3782   25.9981 O   0  0  0  0  0  0  0  0  0  0  0  0
    9.1650   13.7890   24.1030 O   0  0  0  0  0  0  0  0  0  0  0  0
   10.6883   13.0995   25.9764 N   0  0  0  0  0  0  0  0  0  0  0  0
   11.6362   13.6821   26.9337 C   0  0  0  0  0  0  0  0  0  0  0  0
   13.0630   13.2036   26.7389 C   0  0  0  0  0  0  0  0  0  0  0  0
   13.1695   11.7371   26.6522 C   0  0  0  0  0  0  0  0  0  0  0  0
   12.3526   11.3104   25.4495 C   0  0  0  0  0  0  0  0  0  0  0  0
   10.8998   11.7927   25.3638 C   0  0  0  0  0  0  0  0  0  0  0  0
    7.0817   14.5514   26.6486 C   0  0  0  0  0  0  0  0  0  0  0  0
    6.5019   15.1394   25.3530 C   0  0  0  0  0  0  0  0  0  0  0  0
  1  2  2  0
  2  3  1  0
  3  4  1  0
  5  4  1  1
  5  6  1  0
  6  7  1  0
  7  8  1  0
  8  9  2  0
  9 10  1  0
  9 11  1  0
 11 12  2  0
 12 13  1  0
 13 14  2  0
 14 15  1  0
  2 16  1  0
 16 17  1  0
 17 18  1  0
 18 19  1  0
 19 20  1  0
 20 21  2  0
 20 22  2  0
 20 23  1  0
 23 24  1  0
 24 25  1  0
 25 26  1  0
 26 27  1  0
 27 28  1  0
 19 29  1  0
 29 30  1  0
 15  5  1  0
 30 16  1  0
 14  8  1  0
 28 23  1  0
M  END
>  <energy_score>  (2894) 
-22.386822

>  <inchikey>  (2894) 
None

>  <smiles>  (2894) 
None

>  <ref_pdb>  (2894) 
A4706a

>  <alias>  (2894) 
None

>  <HIPPO Pose ID>  (2894) 
500538

>  <name>  (2894) 
P500538

>  <HIPPO Compound ID>  (2894) 
314903

>  <ref_mols>  (2894) 
A4706a,A0875a

>  <distance_score>  (2894) 
1.600239

>  <inspiration_score>  (2894) 
None

$$$$
P500539
     RDKit          3D

 31 33  0  0  0  0  0  0  0  0999 V2000
    4.2265   13.6880   21.1028 C   0  0  0  0  0  0  0  0  0  0  0  0
    5.2373   14.6963   21.2119 O   0  0  0  0  0  0  0  0  0  0  0  0
    6.4661   14.3118   21.6558 C   0  0  0  0  0  0  0  0  0  0  0  0
    6.7903   13.1395   21.8307 O   0  0  0  0  0  0  0  0  0  0  0  0
    7.3487   15.5218   22.0117 C   0  0  1  0  0  0  0  0  0  0  0  0
    7.2144   15.5090   23.4709 O   0  0  0  0  0  0  0  0  0  0  0  0
    5.9592   15.5678   23.9983 C   0  0  0  0  0  0  0  0  0  0  0  0
    5.0207   16.1799   23.5085 O   0  0  0  0  0  0  0  0  0  0  0  0
    5.8239   14.6794   25.2338 C   0  0  0  0  0  0  0  0  0  0  0  0
    6.3177   13.2458   24.9161 C   0  0  0  0  0  0  0  0  0  0  0  0
    6.8469   12.4598   26.0975 C   0  0  0  0  0  0  0  0  0  0  0  0
    7.7360   13.2967   26.9139 N   0  0  0  0  0  0  0  0  0  0  0  0
    9.2461   13.8085   26.3505 S   0  0  0  0  0  0  0  0  0  0  0  0
    9.0544   14.6005   25.1752 O   0  0  0  0  0  0  0  0  0  0  0  0
    9.9280   14.3670   27.4917 O   0  0  0  0  0  0  0  0  0  0  0  0
   10.0721   12.4248   25.8948 N   0  0  0  0  0  0  0  0  0  0  0  0
   11.5321   12.5465   26.1647 C   0  0  0  0  0  0  0  0  0  0  0  0
   12.3218   11.4418   25.4808 C   0  0  0  0  0  0  0  0  0  0  0  0
   11.4794   10.1727   25.1974 C   0  0  0  0  0  0  0  0  0  0  0  0
   10.1286   10.4313   24.5369 C   0  0  0  0  0  0  0  0  0  0  0  0
    9.8019   11.9077   24.5287 C   0  0  0  0  0  0  0  0  0  0  0  0
    6.9406   14.4053   27.5145 C   0  0  0  0  0  0  0  0  0  0  0  0
    6.4680   15.3713   26.4366 C   0  0  0  0  0  0  0  0  0  0  0  0
    8.8264   15.3434   21.5849 C   0  0  0  0  0  0  0  0  0  0  0  0
    9.2740   15.1501   20.2732 C   0  0  0  0  0  0  0  0  0  0  0  0
   10.6254   14.9515   19.9656 C   0  0  0  0  0  0  0  0  0  0  0  0
   11.1739   14.7232   18.3804 Cl  0  0  0  0  0  0  0  0  0  0  0  0
   11.5632   14.8530   20.9562 C   0  0  0  0  0  0  0  0  0  0  0  0
   11.1370   14.9838   22.2460 C   0  0  0  0  0  0  0  0  0  0  0  0
   12.1496   14.4781   23.4967 Cl  0  0  0  0  0  0  0  0  0  0  0  0
    9.8363   15.3572   22.5349 C   0  0  0  0  0  0  0  0  0  0  0  0
  1  2  1  0
  2  3  1  0
  3  4  2  0
  3  5  1  0
  5  6  1  1
  6  7  1  0
  7  8  2  0
  7  9  1  0
  9 10  1  0
 10 11  1  0
 11 12  1  0
 12 13  1  0
 13 14  2  0
 13 15  2  0
 13 16  1  0
 16 17  1  0
 17 18  1  0
 18 19  1  0
 19 20  1  0
 20 21  1  0
 12 22  1  0
 22 23  1  0
  5 24  1  0
 24 25  2  0
 25 26  1  0
 26 27  1  0
 26 28  2  0
 28 29  1  0
 29 30  1  0
 29 31  2  0
 23  9  1  0
 31 24  1  0
 21 16  1  0
M  END
>  <energy_score>  (2895) 
-21.783988

>  <inchikey>  (2895) 
None

>  <smiles>  (2895) 
None

>  <ref_pdb>  (2895) 
A4706a

>  <alias>  (2895) 
None

>  <HIPPO Pose ID>  (2895) 
500539

>  <name>  (2895) 
P500539

>  <HIPPO Compound ID>  (2895) 
314909

>  <ref_mols>  (2895) 
A4706a,A0875a

>  <distance_score>  (2895) 
1.979356

>  <inspiration_score>  (2895) 
None

$$$$
P500540
     RDKit          3D

 31 33  0  0  0  0  0  0  0  0999 V2000
    5.6429   15.6278   22.3572 O   0  0  0  0  0  0  0  0  0  0  0  0
    6.6440   15.3669   22.9954 C   0  0  0  0  0  0  0  0  0  0  0  0
    7.9553   15.6177   22.6732 O   0  0  0  0  0  0  0  0  0  0  0  0
    8.3092   15.9639   21.3410 C   0  0  1  0  0  0  0  0  0  0  0  0
    8.5489   17.4627   21.2076 C   0  0  0  0  0  0  0  0  0  0  0  0
    8.7016   17.9017   19.8758 O   0  0  0  0  0  0  0  0  0  0  0  0
    8.0775   19.1376   19.6795 C   0  0  0  0  0  0  0  0  0  0  0  0
    8.1297   19.9120   20.7635 F   0  0  0  0  0  0  0  0  0  0  0  0
    8.6871   19.7430   18.6588 F   0  0  0  0  0  0  0  0  0  0  0  0
    6.8362   18.9033   19.2881 F   0  0  0  0  0  0  0  0  0  0  0  0
    9.6206   15.3379   20.9341 C   0  0  0  0  0  0  0  0  0  0  0  0
    9.8675   15.1314   19.5668 C   0  0  0  0  0  0  0  0  0  0  0  0
   11.1159   14.7816   19.1183 C   0  0  0  0  0  0  0  0  0  0  0  0
   12.1269   14.6787   20.0492 C   0  0  0  0  0  0  0  0  0  0  0  0
   11.9198   14.9240   21.4071 C   0  0  0  0  0  0  0  0  0  0  0  0
   10.6624   15.2414   21.8524 C   0  0  0  0  0  0  0  0  0  0  0  0
    6.7281   14.5970   24.2822 C   0  0  0  0  0  0  0  0  0  0  0  0
    6.9177   13.1119   23.9327 C   0  0  0  0  0  0  0  0  0  0  0  0
    7.2855   12.2616   25.1416 C   0  0  0  0  0  0  0  0  0  0  0  0
    7.8184   13.1338   26.2043 N   0  0  0  0  0  0  0  0  0  0  0  0
    9.3272   13.8963   25.9059 S   0  0  0  0  0  0  0  0  0  0  0  0
    9.5501   14.1219   24.5019 O   0  0  0  0  0  0  0  0  0  0  0  0
    9.4171   14.9836   26.8420 O   0  0  0  0  0  0  0  0  0  0  0  0
   10.4675   12.7543   26.3339 N   0  0  0  0  0  0  0  0  0  0  0  0
   11.7849   13.3692   26.6964 C   0  0  0  0  0  0  0  0  0  0  0  0
   12.8166   13.3178   25.5778 C   0  0  0  0  0  0  0  0  0  0  0  0
   12.8494   12.0530   24.7823 C   0  0  0  0  0  0  0  0  0  0  0  0
   11.9608   11.0544   25.4395 C   0  0  0  0  0  0  0  0  0  0  0  0
   10.5483   11.5876   25.4167 C   0  0  0  0  0  0  0  0  0  0  0  0
    6.6916   14.0636   26.6860 C   0  0  0  0  0  0  0  0  0  0  0  0
    5.8716   14.6911   25.5148 C   0  0  0  0  0  0  0  0  0  0  0  0
  1  2  2  0
  2  3  1  0
  3  4  1  0
  4  5  1  1
  5  6  1  0
  6  7  1  0
  7  8  1  0
  7  9  1  0
  7 10  1  0
  4 11  1  0
 11 12  2  0
 12 13  1  0
 13 14  2  0
 14 15  1  0
 15 16  2  0
  2 17  1  0
 17 18  1  0
 18 19  1  0
 19 20  1  0
 20 21  1  0
 21 22  2  0
 21 23  2  0
 21 24  1  0
 24 25  1  0
 25 26  1  0
 26 27  1  0
 27 28  1  0
 28 29  1  0
 20 30  1  0
 30 31  1  0
 16 11  1  0
 31 17  1  0
 29 24  1  0
M  END
>  <energy_score>  (2896) 
-4.248288

>  <inchikey>  (2896) 
None

>  <smiles>  (2896) 
None

>  <ref_pdb>  (2896) 
A4706a

>  <alias>  (2896) 
None

>  <HIPPO Pose ID>  (2896) 
500540

>  <name>  (2896) 
P500540

>  <HIPPO Compound ID>  (2896) 
314911

>  <ref_mols>  (2896) 
A4706a,A0875a

>  <distance_score>  (2896) 
1.590939

>  <inspiration_score>  (2896) 
None

$$$$
P500541
     RDKit          3D

 31 34  0  0  0  0  0  0  0  0999 V2000
   14.9218   10.3970   26.2944 O   0  0  0  0  0  0  0  0  0  0  0  0
   14.9314   11.5951   26.5333 C   0  0  0  0  0  0  0  0  0  0  0  0
   15.8744   12.2623   27.2395 O   0  0  0  0  0  0  0  0  0  0  0  0
   16.6920   11.4589   28.1020 C   0  0  1  0  0  0  0  0  0  0  0  0
   18.0622   12.0937   28.3306 C   0  0  0  0  0  0  0  0  0  0  0  0
   18.4760   11.6585   29.7389 C   0  0  0  0  0  0  0  0  0  0  0  0
   17.2551   10.9675   30.3560 C   0  0  0  0  0  0  0  0  0  0  0  0
   16.0788   11.4422   29.5129 C   0  0  1  0  0  0  0  0  0  0  0  0
   15.7475   12.7989   29.8397 O   0  0  0  0  0  0  0  0  0  0  0  0
   14.8394   13.0689   30.8145 C   0  0  0  0  0  0  0  0  0  0  0  0
   14.1411   12.1430   31.5875 C   0  0  0  0  0  0  0  0  0  0  0  0
   13.2224   12.5868   32.5472 C   0  0  0  0  0  0  0  0  0  0  0  0
   13.0071   13.9524   32.7370 C   0  0  0  0  0  0  0  0  0  0  0  0
   13.7167   14.8647   31.9683 C   0  0  0  0  0  0  0  0  0  0  0  0
   13.5336   16.1811   32.1447 F   0  0  0  0  0  0  0  0  0  0  0  0
   14.6256   14.4338   31.0129 C   0  0  0  0  0  0  0  0  0  0  0  0
   13.8233   12.5273   26.1156 C   0  0  0  0  0  0  0  0  0  0  0  0
   12.9871   12.9332   27.3119 C   0  0  0  0  0  0  0  0  0  0  0  0
   11.7063   13.6911   26.9601 C   0  0  0  0  0  0  0  0  0  0  0  0
   10.9644   13.1105   25.8054 N   0  0  0  0  0  0  0  0  0  0  0  0
    9.6089   14.0688   25.3838 S   0  0  0  0  0  0  0  0  0  0  0  0
    9.2631   13.8342   24.0054 O   0  0  0  0  0  0  0  0  0  0  0  0
    9.8516   15.3997   25.8798 O   0  0  0  0  0  0  0  0  0  0  0  0
    8.4510   13.3580   26.3850 N   0  0  0  0  0  0  0  0  0  0  0  0
    8.0377   11.9742   26.0671 C   0  0  0  0  0  0  0  0  0  0  0  0
    7.0342   11.9312   24.9326 C   0  0  0  0  0  0  0  0  0  0  0  0
    5.8716   12.8935   25.1353 C   0  0  0  0  0  0  0  0  0  0  0  0
    6.3272   14.2909   25.5329 C   0  0  0  0  0  0  0  0  0  0  0  0
    7.2855   14.2225   26.7112 C   0  0  0  0  0  0  0  0  0  0  0  0
   11.8255   12.8038   24.6482 C   0  0  0  0  0  0  0  0  0  0  0  0
   12.9061   11.8456   25.1233 C   0  0  0  0  0  0  0  0  0  0  0  0
  1  2  2  0
  2  3  1  0
  4  3  1  6
  4  5  1  0
  5  6  1  0
  6  7  1  0
  7  8  1  0
  8  9  1  1
  9 10  1  0
 10 11  2  0
 11 12  1  0
 12 13  2  0
 13 14  1  0
 14 15  1  0
 14 16  2  0
  2 17  1  0
 17 18  1  0
 18 19  1  0
 19 20  1  0
 20 21  1  0
 21 22  2  0
 21 23  2  0
 21 24  1  0
 24 25  1  0
 25 26  1  0
 26 27  1  0
 27 28  1  0
 28 29  1  0
 20 30  1  0
 30 31  1  0
  8  4  1  0
 16 10  1  0
 31 17  1  0
 29 24  1  0
M  END
>  <energy_score>  (2897) 
-65.792382

>  <inchikey>  (2897) 
None

>  <smiles>  (2897) 
None

>  <ref_pdb>  (2897) 
A4706a

>  <alias>  (2897) 
None

>  <HIPPO Pose ID>  (2897) 
500541

>  <name>  (2897) 
P500541

>  <HIPPO Compound ID>  (2897) 
314922

>  <ref_mols>  (2897) 
A0875a,A4706a

>  <distance_score>  (2897) 
1.938677

>  <inspiration_score>  (2897) 
None

$$$$
P500542
     RDKit          3D

 31 33  0  0  0  0  0  0  0  0999 V2000
    4.1865   13.4868   20.7347 C   0  0  0  0  0  0  0  0  0  0  0  0
    5.4853   13.8558   21.2184 O   0  0  0  0  0  0  0  0  0  0  0  0
    5.5382   15.0762   21.8148 C   0  0  0  0  0  0  0  0  0  0  0  0
    4.5675   15.8290   21.8524 O   0  0  0  0  0  0  0  0  0  0  0  0
    6.8684   15.3743   22.5232 C   0  0  1  0  0  0  0  0  0  0  0  0
    6.6739   14.8436   23.8481 O   0  0  0  0  0  0  0  0  0  0  0  0
    6.4850   13.5059   23.9386 C   0  0  0  0  0  0  0  0  0  0  0  0
    6.9433   12.6873   23.1511 O   0  0  0  0  0  0  0  0  0  0  0  0
    5.5491   13.1281   25.0824 C   0  0  0  0  0  0  0  0  0  0  0  0
    6.1507   11.9445   25.8575 C   0  0  0  0  0  0  0  0  0  0  0  0
    7.1900   12.4113   26.8773 C   0  0  0  0  0  0  0  0  0  0  0  0
    7.6192   13.7574   26.4821 N   0  0  0  0  0  0  0  0  0  0  0  0
    9.1438   14.3491   26.7604 S   0  0  0  0  0  0  0  0  0  0  0  0
    9.3851   15.3958   25.8012 O   0  0  0  0  0  0  0  0  0  0  0  0
    9.2584   14.6077   28.1707 O   0  0  0  0  0  0  0  0  0  0  0  0
   10.1938   13.0868   26.4026 N   0  0  0  0  0  0  0  0  0  0  0  0
   11.5974   13.5658   26.5942 C   0  0  0  0  0  0  0  0  0  0  0  0
   12.6109   12.4559   26.4234 C   0  0  0  0  0  0  0  0  0  0  0  0
   12.3259   11.6010   25.2094 C   0  0  0  0  0  0  0  0  0  0  0  0
   10.8405   11.2557   24.9910 C   0  0  0  0  0  0  0  0  0  0  0  0
    9.9855   12.4848   25.0782 C   0  0  0  0  0  0  0  0  0  0  0  0
    6.5488   14.7585   26.7327 C   0  0  0  0  0  0  0  0  0  0  0  0
    5.2710   14.2872   26.0443 C   0  0  0  0  0  0  0  0  0  0  0  0
    8.2290   15.0934   21.8908 C   0  0  0  0  0  0  0  0  0  0  0  0
    8.4086   14.8549   20.5471 C   0  0  0  0  0  0  0  0  0  0  0  0
    9.6291   14.9291   19.8758 C   0  0  0  0  0  0  0  0  0  0  0  0
   10.7783   14.9328   20.6102 C   0  0  0  0  0  0  0  0  0  0  0  0
   12.0599   14.7107   19.8944 C   0  0  0  0  0  0  0  0  0  0  0  0
   10.6404   14.9988   21.9855 C   0  0  0  0  0  0  0  0  0  0  0  0
   12.0886   14.6793   23.0812 Br  0  0  0  0  0  0  0  0  0  0  0  0
    9.4050   15.1887   22.6027 C   0  0  0  0  0  0  0  0  0  0  0  0
  1  2  1  0
  2  3  1  0
  3  4  2  0
  3  5  1  0
  5  6  1  1
  6  7  1  0
  7  8  2  0
  7  9  1  0
  9 10  1  0
 10 11  1  0
 11 12  1  0
 12 13  1  0
 13 14  2  0
 13 15  2  0
 13 16  1  0
 16 17  1  0
 17 18  1  0
 18 19  1  0
 19 20  1  0
 20 21  1  0
 12 22  1  0
 22 23  1  0
  5 24  1  0
 24 25  2  0
 25 26  1  0
 26 27  2  0
 27 28  1  0
 27 29  1  0
 29 30  1  0
 29 31  2  0
 23  9  1  0
 31 24  1  0
 21 16  1  0
M  END
>  <energy_score>  (2898) 
-30.75667

>  <inchikey>  (2898) 
None

>  <smiles>  (2898) 
None

>  <ref_pdb>  (2898) 
A4706a

>  <alias>  (2898) 
None

>  <HIPPO Pose ID>  (2898) 
500542

>  <name>  (2898) 
P500542

>  <HIPPO Compound ID>  (2898) 
314930

>  <ref_mols>  (2898) 
A4706a,A0875a

>  <distance_score>  (2898) 
1.87942

>  <inspiration_score>  (2898) 
None

$$$$
P500543
     RDKit          3D

 31 34  0  0  0  0  0  0  0  0999 V2000
   14.0713    9.3725   32.0338 C   0  0  0  0  0  0  0  0  0  0  0  0
   14.4127   10.7316   31.7845 O   0  0  0  0  0  0  0  0  0  0  0  0
   15.5841   10.8318   30.9744 C   0  0  1  0  0  0  0  0  0  0  0  0
   15.2067   10.6253   29.5992 O   0  0  0  0  0  0  0  0  0  0  0  0
   15.3276   11.8759   28.9064 C   0  0  1  0  0  0  0  0  0  0  0  0
   14.1311   12.1238   27.9914 C   0  0  0  0  0  0  0  0  0  0  0  0
   14.1533   11.1983   26.8871 O   0  0  0  0  0  0  0  0  0  0  0  0
   13.6789   11.5861   25.6878 C   0  0  0  0  0  0  0  0  0  0  0  0
   14.2998   11.3433   24.6628 O   0  0  0  0  0  0  0  0  0  0  0  0
   12.3480   12.2912   25.6629 C   0  0  0  0  0  0  0  0  0  0  0  0
   12.4973   13.4321   24.6648 C   0  0  0  0  0  0  0  0  0  0  0  0
   11.3070   14.3462   24.7695 C   0  0  0  0  0  0  0  0  0  0  0  0
   10.1180   13.5158   25.0152 N   0  0  0  0  0  0  0  0  0  0  0  0
    8.7282   14.3724   25.1871 S   0  0  0  0  0  0  0  0  0  0  0  0
    8.0596   14.3495   23.9147 O   0  0  0  0  0  0  0  0  0  0  0  0
    9.1104   15.6103   25.8233 O   0  0  0  0  0  0  0  0  0  0  0  0
    7.8574   13.5636   26.3794 N   0  0  0  0  0  0  0  0  0  0  0  0
    7.4420   12.1695   26.2295 C   0  0  0  0  0  0  0  0  0  0  0  0
    6.3910   12.0388   25.1548 C   0  0  0  0  0  0  0  0  0  0  0  0
    5.4113   13.2090   25.1406 C   0  0  0  0  0  0  0  0  0  0  0  0
    5.3701   13.9151   26.4872 C   0  0  0  0  0  0  0  0  0  0  0  0
    6.7446   14.3971   26.9451 C   0  0  0  0  0  0  0  0  0  0  0  0
   10.1807   12.2244   24.3182 C   0  0  0  0  0  0  0  0  0  0  0  0
   11.1088   11.4489   25.2556 C   0  0  0  0  0  0  0  0  0  0  0  0
   15.4194   12.9552   29.9775 C   0  0  2  0  0  0  0  0  0  0  0  0
   16.2692   14.0208   29.5719 O   0  0  0  0  0  0  0  0  0  0  0  0
   17.5698   13.6919   30.1061 C   0  0  0  0  0  0  0  0  0  0  0  0
   17.9554   14.7553   31.1313 C   0  0  0  0  0  0  0  0  0  0  0  0
   18.5942   13.6290   28.9811 C   0  0  0  0  0  0  0  0  0  0  0  0
   17.4992   12.4058   30.7442 O   0  0  0  0  0  0  0  0  0  0  0  0
   16.1201   12.2536   31.0957 C   0  0  2  0  0  0  0  0  0  0  0  0
  1  2  1  0
  3  2  1  1
  3  4  1  0
  4  5  1  0
  5  6  1  6
  6  7  1  0
  7  8  1  0
  8  9  2  0
  8 10  1  0
 10 11  1  0
 11 12  1  0
 12 13  1  0
 13 14  1  0
 14 15  2  0
 14 16  2  0
 14 17  1  0
 17 18  1  0
 18 19  1  0
 19 20  1  0
 20 21  1  0
 21 22  1  0
 13 23  1  0
 23 24  1  0
  5 25  1  0
 25 26  1  6
 26 27  1  0
 27 28  1  0
 27 29  1  0
 27 30  1  0
 31 30  1  6
 31  3  1  0
 24 10  1  0
 31 25  1  0
 22 17  1  0
M  END
>  <energy_score>  (2899) 
-51.923666

>  <inchikey>  (2899) 
None

>  <smiles>  (2899) 
None

>  <ref_pdb>  (2899) 
A4706a

>  <alias>  (2899) 
None

>  <HIPPO Pose ID>  (2899) 
500543

>  <name>  (2899) 
P500543

>  <HIPPO Compound ID>  (2899) 
314938

>  <ref_mols>  (2899) 
A4706a,A0875a

>  <distance_score>  (2899) 
1.807841

>  <inspiration_score>  (2899) 
None

$$$$
P500544
     RDKit          3D

 31 34  0  0  0  0  0  0  0  0999 V2000
   19.2731   13.4921   28.0409 C   0  0  0  0  0  0  0  0  0  0  0  0
   18.9075   12.1797   28.4447 O   0  0  0  0  0  0  0  0  0  0  0  0
   17.7794   12.1794   29.3093 C   0  0  1  0  0  0  0  0  0  0  0  0
   16.5681   12.6199   28.6118 O   0  0  0  0  0  0  0  0  0  0  0  0
   15.5954   11.5302   28.6815 C   0  0  2  0  0  0  0  0  0  0  0  0
   14.1694   12.0829   28.7188 C   0  0  0  0  0  0  0  0  0  0  0  0
   13.4018   11.7890   27.5203 O   0  0  0  0  0  0  0  0  0  0  0  0
   13.8270   12.3683   26.3768 C   0  0  0  0  0  0  0  0  0  0  0  0
   14.8813   12.9754   26.2760 O   0  0  0  0  0  0  0  0  0  0  0  0
   12.9069   12.1565   25.1835 C   0  0  0  0  0  0  0  0  0  0  0  0
   12.6218   13.4915   24.5092 C   0  0  0  0  0  0  0  0  0  0  0  0
   11.4716   14.2471   25.1372 C   0  0  0  0  0  0  0  0  0  0  0  0
   10.2824   13.3914   25.2923 N   0  0  0  0  0  0  0  0  0  0  0  0
    8.8674   14.2415   25.2716 S   0  0  0  0  0  0  0  0  0  0  0  0
    8.3055   14.0992   23.9542 O   0  0  0  0  0  0  0  0  0  0  0  0
    9.1789   15.5391   25.8220 O   0  0  0  0  0  0  0  0  0  0  0  0
    7.9131   13.5132   26.4554 N   0  0  0  0  0  0  0  0  0  0  0  0
    6.7498   14.3648   26.8548 C   0  0  0  0  0  0  0  0  0  0  0  0
    5.6907   14.3325   25.7611 C   0  0  0  0  0  0  0  0  0  0  0  0
    5.2977   12.8996   25.4122 C   0  0  0  0  0  0  0  0  0  0  0  0
    6.4792   11.9493   25.2337 C   0  0  0  0  0  0  0  0  0  0  0  0
    7.4801   12.1152   26.3491 C   0  0  0  0  0  0  0  0  0  0  0  0
   10.4124   12.0862   24.6431 C   0  0  0  0  0  0  0  0  0  0  0  0
   11.5699   11.4829   25.4340 C   0  0  0  0  0  0  0  0  0  0  0  0
   16.0074   10.8632   29.9638 C   0  0  1  0  0  0  0  0  0  0  0  0
   15.6714    9.5377   30.3085 O   0  0  0  0  0  0  0  0  0  0  0  0
   16.8205    9.1536   31.1277 C   0  0  0  0  0  0  0  0  0  0  0  0
   16.4232    9.1644   32.5986 C   0  0  0  0  0  0  0  0  0  0  0  0
   17.2897    7.7717   30.6869 C   0  0  0  0  0  0  0  0  0  0  0  0
   17.8863   10.1310   30.9241 O   0  0  0  0  0  0  0  0  0  0  0  0
   17.4733   10.7499   29.7174 C   0  0  2  0  0  0  0  0  0  0  0  0
  1  2  1  0
  3  2  1  6
  3  4  1  0
  4  5  1  0
  5  6  1  1
  6  7  1  0
  7  8  1  0
  8  9  2  0
  8 10  1  0
 10 11  1  0
 11 12  1  0
 12 13  1  0
 13 14  1  0
 14 15  2  0
 14 16  2  0
 14 17  1  0
 17 18  1  0
 18 19  1  0
 19 20  1  0
 20 21  1  0
 21 22  1  0
 13 23  1  0
 23 24  1  0
  5 25  1  0
 25 26  1  6
 26 27  1  0
 27 28  1  0
 27 29  1  0
 27 30  1  0
 31 30  1  1
 31  3  1  0
 24 10  1  0
 31 25  1  0
 22 17  1  0
M  END
>  <energy_score>  (2900) 
-77.360323

>  <inchikey>  (2900) 
None

>  <smiles>  (2900) 
None

>  <ref_pdb>  (2900) 
A4706a

>  <alias>  (2900) 
None

>  <HIPPO Pose ID>  (2900) 
500544

>  <name>  (2900) 
P500544

>  <HIPPO Compound ID>  (2900) 
314938

>  <ref_mols>  (2900) 
A4706a,A0875a

>  <distance_score>  (2900) 
1.894307

>  <inspiration_score>  (2900) 
None

$$$$
P500545
     RDKit          3D

 31 34  0  0  0  0  0  0  0  0999 V2000
   18.0158    7.8282   31.1044 C   0  0  0  0  0  0  0  0  0  0  0  0
   17.6051    9.1157   30.6583 O   0  0  0  0  0  0  0  0  0  0  0  0
   18.6754    9.8379   30.0449 C   0  0  2  0  0  0  0  0  0  0  0  0
   18.3389   11.2360   30.0893 O   0  0  0  0  0  0  0  0  0  0  0  0
   17.7602   11.5891   28.8165 C   0  0  2  0  0  0  0  0  0  0  0  0
   16.2519   11.3417   28.8635 C   0  0  0  0  0  0  0  0  0  0  0  0
   15.5377   12.1883   27.9407 O   0  0  0  0  0  0  0  0  0  0  0  0
   14.9760   11.6053   26.8477 C   0  0  0  0  0  0  0  0  0  0  0  0
   15.2676   10.5115   26.3917 O   0  0  0  0  0  0  0  0  0  0  0  0
   13.8922   12.5036   26.2795 C   0  0  0  0  0  0  0  0  0  0  0  0
   12.9634   12.9469   27.3983 C   0  0  0  0  0  0  0  0  0  0  0  0
   11.6965   13.6754   26.9657 C   0  0  0  0  0  0  0  0  0  0  0  0
   11.0335   13.0601   25.7851 N   0  0  0  0  0  0  0  0  0  0  0  0
    9.6915   14.0027   25.2780 S   0  0  0  0  0  0  0  0  0  0  0  0
    9.3590   13.6760   23.9156 O   0  0  0  0  0  0  0  0  0  0  0  0
    9.9575   15.3607   25.6799 O   0  0  0  0  0  0  0  0  0  0  0  0
    8.5059   13.3832   26.3086 N   0  0  0  0  0  0  0  0  0  0  0  0
    8.0853   11.9860   26.0827 C   0  0  0  0  0  0  0  0  0  0  0  0
    7.1527   11.8630   24.8925 C   0  0  0  0  0  0  0  0  0  0  0  0
    6.2600   13.0848   24.6952 C   0  0  0  0  0  0  0  0  0  0  0  0
    6.0481   13.8170   26.0089 C   0  0  0  0  0  0  0  0  0  0  0  0
    7.3675   14.3083   26.5919 C   0  0  0  0  0  0  0  0  0  0  0  0
   11.9809   12.7765   24.6886 C   0  0  0  0  0  0  0  0  0  0  0  0
   13.0422   11.8119   25.2225 C   0  0  0  0  0  0  0  0  0  0  0  0
   18.4880   10.7076   27.8200 C   0  0  1  0  0  0  0  0  0  0  0  0
   19.7572   11.2905   27.5068 O   0  0  0  0  0  0  0  0  0  0  0  0
   20.7147   10.2382   27.5826 C   0  0  0  0  0  0  0  0  0  0  0  0
   21.1608    9.8867   26.1682 C   0  0  0  0  0  0  0  0  0  0  0  0
   21.8921   10.7046   28.4278 C   0  0  0  0  0  0  0  0  0  0  0  0
   20.1313    9.0823   28.1886 O   0  0  0  0  0  0  0  0  0  0  0  0
   18.8027    9.4439   28.5663 C   0  0  1  0  0  0  0  0  0  0  0  0
  1  2  1  0
  3  2  1  6
  3  4  1  0
  4  5  1  0
  5  6  1  1
  6  7  1  0
  7  8  1  0
  8  9  2  0
  8 10  1  0
 10 11  1  0
 11 12  1  0
 12 13  1  0
 13 14  1  0
 14 15  2  0
 14 16  2  0
 14 17  1  0
 17 18  1  0
 18 19  1  0
 19 20  1  0
 20 21  1  0
 21 22  1  0
 13 23  1  0
 23 24  1  0
  5 25  1  0
 25 26  1  1
 26 27  1  0
 27 28  1  0
 27 29  1  0
 27 30  1  0
 31 30  1  1
 31  3  1  0
 24 10  1  0
 31 25  1  0
 22 17  1  0
M  END
>  <energy_score>  (2901) 
-78.671756

>  <inchikey>  (2901) 
None

>  <smiles>  (2901) 
None

>  <ref_pdb>  (2901) 
A4706a

>  <alias>  (2901) 
None

>  <HIPPO Pose ID>  (2901) 
500545

>  <name>  (2901) 
P500545

>  <HIPPO Compound ID>  (2901) 
314938

>  <ref_mols>  (2901) 
A4706a,A0875a

>  <distance_score>  (2901) 
1.941443

>  <inspiration_score>  (2901) 
None

$$$$
P500546
     RDKit          3D

 31 33  0  0  0  0  0  0  0  0999 V2000
   10.2744   12.7294   22.5665 N   0  0  0  0  0  0  0  0  0  0  0  0
    9.1919   13.0705   22.5177 N   0  0  0  0  0  0  0  0  0  0  0  0
    7.9820   13.3498   22.4512 N   0  0  0  0  0  0  0  0  0  0  0  0
    7.5885   14.2761   21.3793 C   0  0  0  0  0  0  0  0  0  0  0  0
    7.8478   15.7433   21.7023 C   0  0  1  0  0  0  0  0  0  0  0  0
    7.3644   16.0526   23.0254 O   0  0  0  0  0  0  0  0  0  0  0  0
    6.1314   15.5541   23.3867 C   0  0  0  0  0  0  0  0  0  0  0  0
    5.1031   15.6216   22.7349 O   0  0  0  0  0  0  0  0  0  0  0  0
    6.3267   14.8227   24.6888 C   0  0  0  0  0  0  0  0  0  0  0  0
    5.8284   13.4039   24.9027 C   0  0  0  0  0  0  0  0  0  0  0  0
    6.8885   12.6752   25.7682 C   0  0  0  0  0  0  0  0  0  0  0  0
    7.6412   13.6125   26.6873 N   0  0  0  0  0  0  0  0  0  0  0  0
    9.2076   14.2260   26.3185 S   0  0  0  0  0  0  0  0  0  0  0  0
    9.5354   15.1595   27.3682 O   0  0  0  0  0  0  0  0  0  0  0  0
    9.3278   14.6366   24.9427 O   0  0  0  0  0  0  0  0  0  0  0  0
   10.2962   12.9445   26.4887 N   0  0  0  0  0  0  0  0  0  0  0  0
   11.6890   13.4959   26.3977 C   0  0  0  0  0  0  0  0  0  0  0  0
   12.5052   12.9191   25.2641 C   0  0  0  0  0  0  0  0  0  0  0  0
   12.5114   11.4354   25.4525 C   0  0  0  0  0  0  0  0  0  0  0  0
   11.1043   10.8678   25.2534 C   0  0  0  0  0  0  0  0  0  0  0  0
    9.9698   11.7672   25.6799 C   0  0  0  0  0  0  0  0  0  0  0  0
    6.7071   14.7038   27.1525 C   0  0  0  0  0  0  0  0  0  0  0  0
    6.3126   15.6173   25.9794 C   0  0  0  0  0  0  0  0  0  0  0  0
    9.3172   16.1906   21.3988 C   0  0  1  0  0  0  0  0  0  0  0  0
   10.2026   15.8503   22.4837 O   0  0  0  0  0  0  0  0  0  0  0  0
   11.3786   15.3757   22.0039 C   0  0  0  0  0  0  0  0  0  0  0  0
   12.3565   15.0878   22.6654 O   0  0  0  0  0  0  0  0  0  0  0  0
   11.2520   15.1866   20.5562 C   0  0  0  0  0  0  0  0  0  0  0  0
   12.1989   14.6677   19.7230 O   0  0  0  0  0  0  0  0  0  0  0  0
   10.0521   15.6289   20.2139 C   0  0  0  0  0  0  0  0  0  0  0  0
    9.5776   15.6270   18.9298 O   0  0  0  0  0  0  0  0  0  0  0  0
  1  2  2  0
  2  3  2  0
  3  4  1  0
  5  4  1  1
  5  6  1  0
  6  7  1  0
  7  8  2  0
  7  9  1  0
  9 10  1  0
 10 11  1  0
 11 12  1  0
 12 13  1  0
 13 14  2  0
 13 15  2  0
 13 16  1  0
 16 17  1  0
 17 18  1  0
 18 19  1  0
 19 20  1  0
 20 21  1  0
 12 22  1  0
 22 23  1  0
  5 24  1  0
 24 25  1  1
 25 26  1  0
 26 27  2  0
 26 28  1  0
 28 29  1  0
 28 30  2  0
 30 31  1  0
 23  9  1  0
 30 24  1  0
 21 16  1  0
M  CHG  2   1  -1   2   1
M  END
>  <energy_score>  (2902) 
-38.858788

>  <inchikey>  (2902) 
None

>  <smiles>  (2902) 
None

>  <ref_pdb>  (2902) 
A4706a

>  <alias>  (2902) 
None

>  <HIPPO Pose ID>  (2902) 
500546

>  <name>  (2902) 
P500546

>  <HIPPO Compound ID>  (2902) 
314939

>  <ref_mols>  (2902) 
A0875a,A4706a

>  <distance_score>  (2902) 
1.888005

>  <inspiration_score>  (2902) 
None

$$$$
P500547
     RDKit          3D

 31 33  0  0  0  0  0  0  0  0999 V2000
    8.2462   18.5342   20.4982 C   0  0  0  0  0  0  0  0  0  0  0  0
    8.5234   17.2255   20.9757 O   0  0  0  0  0  0  0  0  0  0  0  0
    7.7080   16.4828   21.7692 C   0  0  0  0  0  0  0  0  0  0  0  0
    6.7941   16.8326   22.5033 O   0  0  0  0  0  0  0  0  0  0  0  0
    8.0842   15.0166   21.6188 C   0  0  2  0  0  0  0  0  0  0  0  0
    7.9079   14.3958   22.9040 O   0  0  0  0  0  0  0  0  0  0  0  0
    6.8506   13.5761   23.0374 C   0  0  0  0  0  0  0  0  0  0  0  0
    6.2022   13.1200   22.1047 O   0  0  0  0  0  0  0  0  0  0  0  0
    6.5929   13.1710   24.4722 C   0  0  0  0  0  0  0  0  0  0  0  0
    7.6458   12.1672   24.9550 C   0  0  0  0  0  0  0  0  0  0  0  0
    8.3374   12.6325   26.2314 C   0  0  0  0  0  0  0  0  0  0  0  0
    8.8586   13.9895   26.0040 N   0  0  0  0  0  0  0  0  0  0  0  0
   10.0609   14.5754   27.0353 S   0  0  0  0  0  0  0  0  0  0  0  0
   10.6003   15.7728   26.4276 O   0  0  0  0  0  0  0  0  0  0  0  0
    9.5046   14.6020   28.3654 O   0  0  0  0  0  0  0  0  0  0  0  0
   11.2981   13.3843   27.0061 N   0  0  0  0  0  0  0  0  0  0  0  0
   12.3766   13.7710   27.9831 C   0  0  0  0  0  0  0  0  0  0  0  0
   13.5268   12.7591   28.0065 C   0  0  0  0  0  0  0  0  0  0  0  0
   14.0372   12.3420   26.6354 C   0  0  0  0  0  0  0  0  0  0  0  0
   12.8985   12.0214   25.6887 C   0  0  0  0  0  0  0  0  0  0  0  0
   11.8480   13.1128   25.6580 C   0  0  0  0  0  0  0  0  0  0  0  0
    7.7587   14.9989   25.8232 C   0  0  0  0  0  0  0  0  0  0  0  0
    6.4348   14.3793   25.3898 C   0  0  0  0  0  0  0  0  0  0  0  0
    9.4903   14.8843   21.0753 C   0  0  0  0  0  0  0  0  0  0  0  0
    9.6624   14.9791   19.6816 C   0  0  0  0  0  0  0  0  0  0  0  0
   10.8883   14.8582   19.0881 C   0  0  0  0  0  0  0  0  0  0  0  0
   11.9625   14.7418   19.9150 C   0  0  0  0  0  0  0  0  0  0  0  0
   13.1374   14.5618   19.3473 F   0  0  0  0  0  0  0  0  0  0  0  0
   11.8660   14.8460   21.2880 C   0  0  0  0  0  0  0  0  0  0  0  0
   10.6223   14.9013   21.8839 C   0  0  0  0  0  0  0  0  0  0  0  0
   10.5411   15.0069   23.3556 C   0  0  0  0  0  0  0  0  0  0  0  0
  1  2  1  0
  2  3  1  0
  3  4  2  0
  3  5  1  0
  5  6  1  1
  6  7  1  0
  7  8  2  0
  7  9  1  0
  9 10  1  0
 10 11  1  0
 11 12  1  0
 12 13  1  0
 13 14  2  0
 13 15  2  0
 13 16  1  0
 16 17  1  0
 17 18  1  0
 18 19  1  0
 19 20  1  0
 20 21  1  0
 12 22  1  0
 22 23  1  0
  5 24  1  0
 24 25  2  0
 25 26  1  0
 26 27  2  0
 27 28  1  0
 27 29  1  0
 29 30  2  0
 30 31  1  0
 23  9  1  0
 30 24  1  0
 21 16  1  0
M  END
>  <energy_score>  (2903) 
-65.751751

>  <inchikey>  (2903) 
None

>  <smiles>  (2903) 
None

>  <ref_pdb>  (2903) 
A4706a

>  <alias>  (2903) 
None

>  <HIPPO Pose ID>  (2903) 
500547

>  <name>  (2903) 
P500547

>  <HIPPO Compound ID>  (2903) 
314941

>  <ref_mols>  (2903) 
A4706a,A0875a

>  <distance_score>  (2903) 
1.908777

>  <inspiration_score>  (2903) 
None

$$$$
P500548
     RDKit          3D

 31 33  0  0  0  0  0  0  0  0999 V2000
    8.4259   19.3165   20.9238 C   0  0  0  0  0  0  0  0  0  0  0  0
    8.0906   18.1114   21.5712 O   0  0  0  0  0  0  0  0  0  0  0  0
    8.6086   17.1198   20.8632 C   0  0  0  0  0  0  0  0  0  0  0  0
    9.2970   17.3184   19.8597 O   0  0  0  0  0  0  0  0  0  0  0  0
    8.2475   15.7135   21.4095 C   0  0  2  0  0  0  0  0  0  0  0  0
    7.8156   15.5800   22.7558 O   0  0  0  0  0  0  0  0  0  0  0  0
    6.9668   14.5437   23.0165 C   0  0  0  0  0  0  0  0  0  0  0  0
    6.5172   13.7719   22.1720 O   0  0  0  0  0  0  0  0  0  0  0  0
    6.5977   14.4407   24.5127 C   0  0  0  0  0  0  0  0  0  0  0  0
    6.4548   12.9374   24.8934 C   0  0  0  0  0  0  0  0  0  0  0  0
    7.1529   12.4793   26.1674 C   0  0  0  0  0  0  0  0  0  0  0  0
    8.4431   13.1993   26.3467 N   0  0  0  0  0  0  0  0  0  0  0  0
    9.6112   12.7697   25.2145 S   0  0  0  0  0  0  0  0  0  0  0  0
    9.2361   13.3193   23.9389 O   0  0  0  0  0  0  0  0  0  0  0  0
    9.8096   11.3504   25.3582 O   0  0  0  0  0  0  0  0  0  0  0  0
   11.0399   13.5244   25.6417 N   0  0  0  0  0  0  0  0  0  0  0  0
   11.4648   13.6386   27.0438 C   0  0  0  0  0  0  0  0  0  0  0  0
   12.7824   12.9433   27.3856 C   0  0  0  0  0  0  0  0  0  0  0  0
   13.1259   11.8688   26.4050 C   0  0  0  0  0  0  0  0  0  0  0  0
   13.2878   12.5095   25.0838 C   0  0  0  0  0  0  0  0  0  0  0  0
   12.1052   13.3471   24.6273 C   0  0  0  0  0  0  0  0  0  0  0  0
    8.1414   14.6095   26.6119 C   0  0  0  0  0  0  0  0  0  0  0  0
    7.5332   15.2842   25.4056 C   0  0  0  0  0  0  0  0  0  0  0  0
    9.5269   14.9876   21.0848 C   0  0  0  0  0  0  0  0  0  0  0  0
    9.7564   14.7857   19.7055 C   0  0  0  0  0  0  0  0  0  0  0  0
   10.9990   14.5971   19.1886 C   0  0  0  0  0  0  0  0  0  0  0  0
   12.0277   14.6703   20.0776 C   0  0  0  0  0  0  0  0  0  0  0  0
   13.2194   14.5772   19.5268 F   0  0  0  0  0  0  0  0  0  0  0  0
   11.8493   14.9334   21.4367 C   0  0  0  0  0  0  0  0  0  0  0  0
   12.8737   15.2192   22.2404 F   0  0  0  0  0  0  0  0  0  0  0  0
   10.5923   15.0539   21.9633 C   0  0  0  0  0  0  0  0  0  0  0  0
  1  2  1  0
  2  3  1  0
  3  4  2  0
  3  5  1  0
  5  6  1  1
  6  7  1  0
  7  8  2  0
  7  9  1  0
  9 10  1  0
 10 11  1  0
 11 12  1  0
 12 13  1  0
 13 14  2  0
 13 15  2  0
 13 16  1  0
 16 17  1  0
 17 18  1  0
 18 19  1  0
 19 20  1  0
 20 21  1  0
 12 22  1  0
 22 23  1  0
  5 24  1  0
 24 25  2  0
 25 26  1  0
 26 27  2  0
 27 28  1  0
 27 29  1  0
 29 30  1  0
 29 31  2  0
 23  9  1  0
 31 24  1  0
 21 16  1  0
M  END
>  <energy_score>  (2904) 
-7.138016

>  <inchikey>  (2904) 
None

>  <smiles>  (2904) 
None

>  <ref_pdb>  (2904) 
A4706a

>  <alias>  (2904) 
None

>  <HIPPO Pose ID>  (2904) 
500548

>  <name>  (2904) 
P500548

>  <HIPPO Compound ID>  (2904) 
314953

>  <ref_mols>  (2904) 
A0875a,A4706a

>  <distance_score>  (2904) 
1.68137

>  <inspiration_score>  (2904) 
None

$$$$
P500549
     RDKit          3D

 31 33  0  0  0  0  0  0  0  0999 V2000
    5.3132   17.4444   25.8451 C   0  0  0  0  0  0  0  0  0  0  0  0
    5.3128   17.0512   24.3773 C   0  0  0  0  0  0  0  0  0  0  0  0
    6.4850   16.3013   24.0248 O   0  0  0  0  0  0  0  0  0  0  0  0
    6.4249   15.8126   22.7453 C   0  0  0  0  0  0  0  0  0  0  0  0
    5.5569   16.1356   21.9436 O   0  0  0  0  0  0  0  0  0  0  0  0
    7.4788   14.7452   22.4557 C   0  0  2  0  0  0  0  0  0  0  0  0
    7.4299   13.8750   23.6196 O   0  0  0  0  0  0  0  0  0  0  0  0
    6.2589   13.1834   23.6507 C   0  0  0  0  0  0  0  0  0  0  0  0
    5.6371   12.9385   22.6222 O   0  0  0  0  0  0  0  0  0  0  0  0
    5.7670   12.6847   24.9950 C   0  0  0  0  0  0  0  0  0  0  0  0
    6.6461   11.5669   25.5584 C   0  0  0  0  0  0  0  0  0  0  0  0
    7.5796   12.0960   26.6337 C   0  0  0  0  0  0  0  0  0  0  0  0
    7.8523   13.4885   26.3050 N   0  0  0  0  0  0  0  0  0  0  0  0
    9.3209   14.2178   26.4477 S   0  0  0  0  0  0  0  0  0  0  0  0
    9.2861   15.4342   25.6787 O   0  0  0  0  0  0  0  0  0  0  0  0
    9.6581   14.2802   27.8450 O   0  0  0  0  0  0  0  0  0  0  0  0
   10.4076   13.2037   25.7440 N   0  0  0  0  0  0  0  0  0  0  0  0
   11.7903   13.7089   25.7701 C   0  0  0  0  0  0  0  0  0  0  0  0
   12.7236   12.7351   25.0692 C   0  0  0  0  0  0  0  0  0  0  0  0
   12.2938   11.3271   25.4309 C   0  0  0  0  0  0  0  0  0  0  0  0
   10.8173   11.0400   24.9988 C   0  0  0  0  0  0  0  0  0  0  0  0
   10.1229   12.3380   24.6064 C   0  0  0  0  0  0  0  0  0  0  0  0
    6.7168   14.3517   26.6574 C   0  0  0  0  0  0  0  0  0  0  0  0
    5.4690   13.7902   26.0005 C   0  0  0  0  0  0  0  0  0  0  0  0
    8.8734   15.0505   21.9013 C   0  0  0  0  0  0  0  0  0  0  0  0
    9.0580   14.9862   20.5112 C   0  0  0  0  0  0  0  0  0  0  0  0
   10.3046   15.0022   19.8933 C   0  0  0  0  0  0  0  0  0  0  0  0
   11.4154   15.0699   20.6965 C   0  0  0  0  0  0  0  0  0  0  0  0
   12.6178   14.9644   20.1390 F   0  0  0  0  0  0  0  0  0  0  0  0
   11.2977   15.2187   22.0673 C   0  0  0  0  0  0  0  0  0  0  0  0
   10.0287   15.2303   22.6525 C   0  0  0  0  0  0  0  0  0  0  0  0
  1  2  1  0
  2  3  1  0
  3  4  1  0
  4  5  2  0
  4  6  1  0
  6  7  1  1
  7  8  1  0
  8  9  2  0
  8 10  1  0
 10 11  1  0
 11 12  1  0
 12 13  1  0
 13 14  1  0
 14 15  2  0
 14 16  2  0
 14 17  1  0
 17 18  1  0
 18 19  1  0
 19 20  1  0
 20 21  1  0
 21 22  1  0
 13 23  1  0
 23 24  1  0
  6 25  1  0
 25 26  2  0
 26 27  1  0
 27 28  2  0
 28 29  1  0
 28 30  1  0
 30 31  2  0
 24 10  1  0
 31 25  1  0
 22 17  1  0
M  END
>  <energy_score>  (2905) 
-24.938137

>  <inchikey>  (2905) 
None

>  <smiles>  (2905) 
None

>  <ref_pdb>  (2905) 
A4706a

>  <alias>  (2905) 
None

>  <HIPPO Pose ID>  (2905) 
500549

>  <name>  (2905) 
P500549

>  <HIPPO Compound ID>  (2905) 
314956

>  <ref_mols>  (2905) 
A4706a,A0875a

>  <distance_score>  (2905) 
1.70419

>  <inspiration_score>  (2905) 
None

$$$$
P500550
     RDKit          3D

 31 33  0  0  0  0  0  0  0  0999 V2000
    8.4630   18.5477   21.0440 C   0  0  0  0  0  0  0  0  0  0  0  0
    8.0821   17.1836   21.0094 O   0  0  0  0  0  0  0  0  0  0  0  0
    7.3487   16.5350   21.9530 C   0  0  0  0  0  0  0  0  0  0  0  0
    6.6584   16.9861   22.8572 O   0  0  0  0  0  0  0  0  0  0  0  0
    7.5719   15.0414   21.7532 C   0  0  2  0  0  0  0  0  0  0  0  0
    7.2763   14.4645   23.0521 O   0  0  0  0  0  0  0  0  0  0  0  0
    6.1834   13.6858   23.1086 C   0  0  0  0  0  0  0  0  0  0  0  0
    5.7919   13.0393   22.1442 O   0  0  0  0  0  0  0  0  0  0  0  0
    5.5300   13.6071   24.4824 C   0  0  0  0  0  0  0  0  0  0  0  0
    6.1541   12.5067   25.3527 C   0  0  0  0  0  0  0  0  0  0  0  0
    6.8961   13.0515   26.5738 C   0  0  0  0  0  0  0  0  0  0  0  0
    7.6441   14.2390   26.1481 N   0  0  0  0  0  0  0  0  0  0  0  0
    9.0457   14.6451   26.9763 S   0  0  0  0  0  0  0  0  0  0  0  0
    9.6203   15.8142   26.3543 O   0  0  0  0  0  0  0  0  0  0  0  0
    8.7658   14.6334   28.3903 O   0  0  0  0  0  0  0  0  0  0  0  0
   10.0936   13.3340   26.6263 N   0  0  0  0  0  0  0  0  0  0  0  0
   11.5065   13.7305   26.9381 C   0  0  0  0  0  0  0  0  0  0  0  0
   12.5030   12.6005   26.6916 C   0  0  0  0  0  0  0  0  0  0  0  0
   12.2497   11.8005   25.4204 C   0  0  0  0  0  0  0  0  0  0  0  0
   10.7731   11.5772   25.0928 C   0  0  0  0  0  0  0  0  0  0  0  0
   10.0082   12.8631   25.2320 C   0  0  0  0  0  0  0  0  0  0  0  0
    6.7654   15.3975   25.8439 C   0  0  0  0  0  0  0  0  0  0  0  0
    5.4488   14.9511   25.2092 C   0  0  0  0  0  0  0  0  0  0  0  0
    8.9996   14.8445   21.3121 C   0  0  0  0  0  0  0  0  0  0  0  0
    9.4237   14.9366   19.9757 C   0  0  0  0  0  0  0  0  0  0  0  0
   10.7586   14.9219   19.5982 C   0  0  0  0  0  0  0  0  0  0  0  0
   11.7068   14.8436   20.5876 C   0  0  0  0  0  0  0  0  0  0  0  0
   11.3054   14.8478   21.9203 C   0  0  0  0  0  0  0  0  0  0  0  0
   12.2737   14.7330   23.0103 C   0  0  0  0  0  0  0  0  0  0  0  0
    9.9734   14.9019   22.2650 C   0  0  0  0  0  0  0  0  0  0  0  0
    9.6281   15.1339   23.5367 F   0  0  0  0  0  0  0  0  0  0  0  0
  1  2  1  0
  2  3  1  0
  3  4  2  0
  3  5  1  0
  5  6  1  1
  6  7  1  0
  7  8  2  0
  7  9  1  0
  9 10  1  0
 10 11  1  0
 11 12  1  0
 12 13  1  0
 13 14  2  0
 13 15  2  0
 13 16  1  0
 16 17  1  0
 17 18  1  0
 18 19  1  0
 19 20  1  0
 20 21  1  0
 12 22  1  0
 22 23  1  0
  5 24  1  0
 24 25  2  0
 25 26  1  0
 26 27  2  0
 27 28  1  0
 28 29  1  0
 28 30  2  0
 30 31  1  0
 23  9  1  0
 30 24  1  0
 21 16  1  0
M  END
>  <energy_score>  (2906) 
-71.169835

>  <inchikey>  (2906) 
None

>  <smiles>  (2906) 
None

>  <ref_pdb>  (2906) 
A4706a

>  <alias>  (2906) 
None

>  <HIPPO Pose ID>  (2906) 
500550

>  <name>  (2906) 
P500550

>  <HIPPO Compound ID>  (2906) 
314961

>  <ref_mols>  (2906) 
A4706a,A0875a

>  <distance_score>  (2906) 
1.96634

>  <inspiration_score>  (2906) 
None

$$$$
P500551
     RDKit          3D

 31 33  0  0  0  0  0  0  0  0999 V2000
    3.6319   14.7994   22.1650 C   0  0  0  0  0  0  0  0  0  0  0  0
    4.8701   15.4623   22.4427 O   0  0  0  0  0  0  0  0  0  0  0  0
    5.9399   14.8958   21.7880 C   0  0  0  0  0  0  0  0  0  0  0  0
    5.7923   14.0486   20.9223 O   0  0  0  0  0  0  0  0  0  0  0  0
    7.2677   15.4064   22.3834 C   0  0  1  0  0  0  0  0  0  0  0  0
    7.2034   14.9760   23.7652 O   0  0  0  0  0  0  0  0  0  0  0  0
    6.7899   13.6938   23.9684 C   0  0  0  0  0  0  0  0  0  0  0  0
    6.8303   12.7973   23.1336 O   0  0  0  0  0  0  0  0  0  0  0  0
    6.1560   13.4990   25.3312 C   0  0  0  0  0  0  0  0  0  0  0  0
    6.4374   12.0717   25.8155 C   0  0  0  0  0  0  0  0  0  0  0  0
    7.9237   11.8332   26.0607 C   0  0  0  0  0  0  0  0  0  0  0  0
    8.5830   13.0580   26.5850 N   0  0  0  0  0  0  0  0  0  0  0  0
    9.7581   13.7665   25.6132 S   0  0  0  0  0  0  0  0  0  0  0  0
    9.9549   15.1227   26.0655 O   0  0  0  0  0  0  0  0  0  0  0  0
    9.4554   13.4279   24.2507 O   0  0  0  0  0  0  0  0  0  0  0  0
   11.1395   12.8638   26.0474 N   0  0  0  0  0  0  0  0  0  0  0  0
   12.0153   12.6288   24.8730 C   0  0  0  0  0  0  0  0  0  0  0  0
   13.0987   11.6430   25.2711 C   0  0  0  0  0  0  0  0  0  0  0  0
   13.9898   12.2355   26.3353 C   0  0  0  0  0  0  0  0  0  0  0  0
   13.1703   12.7340   27.5097 C   0  0  0  0  0  0  0  0  0  0  0  0
   11.8997   13.5090   27.1453 C   0  0  0  0  0  0  0  0  0  0  0  0
    7.6641   13.9772   27.3012 C   0  0  0  0  0  0  0  0  0  0  0  0
    6.5916   14.5267   26.3796 C   0  0  0  0  0  0  0  0  0  0  0  0
    8.6071   15.1715   21.6781 C   0  0  0  0  0  0  0  0  0  0  0  0
    8.7189   14.8822   20.3308 C   0  0  0  0  0  0  0  0  0  0  0  0
    9.9119   14.8808   19.5805 C   0  0  0  0  0  0  0  0  0  0  0  0
   11.0985   15.0270   20.2269 C   0  0  0  0  0  0  0  0  0  0  0  0
   11.0440   15.3067   21.5761 C   0  0  0  0  0  0  0  0  0  0  0  0
   12.2963   15.5655   22.2875 C   0  0  0  0  0  0  0  0  0  0  0  0
    9.8258   15.4187   22.2686 C   0  0  0  0  0  0  0  0  0  0  0  0
    9.8687   15.8157   23.5428 F   0  0  0  0  0  0  0  0  0  0  0  0
  1  2  1  0
  2  3  1  0
  3  4  2  0
  3  5  1  0
  5  6  1  1
  6  7  1  0
  7  8  2  0
  7  9  1  0
  9 10  1  0
 10 11  1  0
 11 12  1  0
 12 13  1  0
 13 14  2  0
 13 15  2  0
 13 16  1  0
 16 17  1  0
 17 18  1  0
 18 19  1  0
 19 20  1  0
 20 21  1  0
 12 22  1  0
 22 23  1  0
  5 24  1  0
 24 25  2  0
 25 26  1  0
 26 27  2  0
 27 28  1  0
 28 29  1  0
 28 30  2  0
 30 31  1  0
 23  9  1  0
 30 24  1  0
 21 16  1  0
M  END
>  <energy_score>  (2907) 
-38.284688

>  <inchikey>  (2907) 
None

>  <smiles>  (2907) 
None

>  <ref_pdb>  (2907) 
A4706a

>  <alias>  (2907) 
None

>  <HIPPO Pose ID>  (2907) 
500551

>  <name>  (2907) 
P500551

>  <HIPPO Compound ID>  (2907) 
314961

>  <ref_mols>  (2907) 
A4706a,A0875a

>  <distance_score>  (2907) 
1.801301

>  <inspiration_score>  (2907) 
None

$$$$
P500552
     RDKit          3D

 32 34  0  0  0  0  0  0  0  0999 V2000
    6.1334   16.1796   25.0767 O   0  0  0  0  0  0  0  0  0  0  0  0
    6.7750   15.1536   24.8698 C   0  0  0  0  0  0  0  0  0  0  0  0
    7.9118   15.1727   24.1462 O   0  0  0  0  0  0  0  0  0  0  0  0
    7.8054   14.9357   22.7267 C   0  0  1  0  0  0  0  0  0  0  0  0
    6.5734   15.6099   22.1055 C   0  0  0  0  0  0  0  0  0  0  0  0
    5.8679   14.5838   21.3914 O   0  0  0  0  0  0  0  0  0  0  0  0
    4.4931   14.5432   21.6987 C   0  0  0  0  0  0  0  0  0  0  0  0
    4.3202   14.3737   23.0218 F   0  0  0  0  0  0  0  0  0  0  0  0
    3.8814   15.6714   21.2893 F   0  0  0  0  0  0  0  0  0  0  0  0
    3.9462   13.5024   21.0452 F   0  0  0  0  0  0  0  0  0  0  0  0
    9.1180   15.1717   21.9524 C   0  0  0  0  0  0  0  0  0  0  0  0
    9.1727   14.9466   20.5691 C   0  0  0  0  0  0  0  0  0  0  0  0
   10.3720   14.9149   19.8500 C   0  0  0  0  0  0  0  0  0  0  0  0
   11.5617   15.0526   20.5384 C   0  0  0  0  0  0  0  0  0  0  0  0
   11.5265   15.3356   21.8921 C   0  0  0  0  0  0  0  0  0  0  0  0
   12.6726   15.4669   22.5601 F   0  0  0  0  0  0  0  0  0  0  0  0
   10.3281   15.4523   22.5804 C   0  0  0  0  0  0  0  0  0  0  0  0
    6.3616   13.8401   25.5249 C   0  0  0  0  0  0  0  0  0  0  0  0
    7.0253   12.5216   25.1047 C   0  0  0  0  0  0  0  0  0  0  0  0
    8.0856   12.0334   26.0936 C   0  0  0  0  0  0  0  0  0  0  0  0
    8.8746   13.1664   26.6390 N   0  0  0  0  0  0  0  0  0  0  0  0
   10.1691   13.6864   25.6931 S   0  0  0  0  0  0  0  0  0  0  0  0
    9.8328   13.3284   24.3377 O   0  0  0  0  0  0  0  0  0  0  0  0
   10.5133   15.0281   26.0857 O   0  0  0  0  0  0  0  0  0  0  0  0
   11.4277   12.6385   26.1852 N   0  0  0  0  0  0  0  0  0  0  0  0
   11.9120   11.8254   25.0691 C   0  0  0  0  0  0  0  0  0  0  0  0
   13.2171   11.0459   25.2867 C   0  0  0  0  0  0  0  0  0  0  0  0
   14.1642   11.5217   26.3469 C   0  0  0  0  0  0  0  0  0  0  0  0
   13.8860   12.9707   26.5392 C   0  0  0  0  0  0  0  0  0  0  0  0
   12.4717   13.1948   27.0644 C   0  0  0  0  0  0  0  0  0  0  0  0
    8.0543   14.2287   27.3080 C   0  0  0  0  0  0  0  0  0  0  0  0
    6.5646   14.0551   27.0239 C   0  0  0  0  0  0  0  0  0  0  0  0
  1  2  2  0
  2  3  1  0
  3  4  1  0
  4  5  1  6
  5  6  1  0
  6  7  1  0
  7  8  1  0
  7  9  1  0
  7 10  1  0
  4 11  1  0
 11 12  2  0
 12 13  1  0
 13 14  2  0
 14 15  1  0
 15 16  1  0
 15 17  2  0
  2 18  1  0
 18 19  1  0
 19 20  1  0
 20 21  1  0
 21 22  1  0
 22 23  2  0
 22 24  2  0
 22 25  1  0
 25 26  1  0
 26 27  1  0
 27 28  1  0
 28 29  1  0
 29 30  1  0
 21 31  1  0
 31 32  1  0
 17 11  1  0
 32 18  1  0
 30 25  1  0
M  END
>  <energy_score>  (2908) 
-21.256363

>  <inchikey>  (2908) 
None

>  <smiles>  (2908) 
None

>  <ref_pdb>  (2908) 
A4706a

>  <alias>  (2908) 
None

>  <HIPPO Pose ID>  (2908) 
500552

>  <name>  (2908) 
P500552

>  <HIPPO Compound ID>  (2908) 
314962

>  <ref_mols>  (2908) 
A4706a,A0875a

>  <distance_score>  (2908) 
1.964037

>  <inspiration_score>  (2908) 
None

$$$$
P500553
     RDKit          3D

 32 34  0  0  0  0  0  0  0  0999 V2000
    9.2725   17.8575   19.9615 C   0  0  0  0  0  0  0  0  0  0  0  0
    8.0896   18.0996   20.8101 C   0  0  0  0  0  0  0  0  0  0  0  0
    8.1717   17.0891   21.7931 O   0  0  0  0  0  0  0  0  0  0  0  0
    7.3079   16.1137   22.1494 C   0  0  0  0  0  0  0  0  0  0  0  0
    6.0977   16.0732   22.0360 O   0  0  0  0  0  0  0  0  0  0  0  0
    8.2352   15.0620   22.8135 C   0  0  1  0  0  0  0  0  0  0  0  0
    7.9057   13.8178   23.3880 O   0  0  0  0  0  0  0  0  0  0  0  0
    6.6303   13.4176   23.3330 C   0  0  0  0  0  0  0  0  0  0  0  0
    6.0372   13.2393   22.2812 O   0  0  0  0  0  0  0  0  0  0  0  0
    6.0747   13.1187   24.7193 C   0  0  0  0  0  0  0  0  0  0  0  0
    6.6467   11.7963   25.2420 C   0  0  0  0  0  0  0  0  0  0  0  0
    8.1085   11.9062   25.6345 C   0  0  0  0  0  0  0  0  0  0  0  0
    8.3459   13.0362   26.5276 N   0  0  0  0  0  0  0  0  0  0  0  0
    9.7302   13.9586   26.4078 S   0  0  0  0  0  0  0  0  0  0  0  0
    9.7709   14.6416   25.1485 O   0  0  0  0  0  0  0  0  0  0  0  0
    9.7689   14.7288   27.6271 O   0  0  0  0  0  0  0  0  0  0  0  0
   11.0597   12.8912   26.4472 N   0  0  0  0  0  0  0  0  0  0  0  0
   11.4697   12.2880   25.1562 C   0  0  0  0  0  0  0  0  0  0  0  0
   12.6409   11.3114   25.3808 C   0  0  0  0  0  0  0  0  0  0  0  0
   13.5594   11.6212   26.5394 C   0  0  0  0  0  0  0  0  0  0  0  0
   13.5893   13.0897   26.6577 C   0  0  0  0  0  0  0  0  0  0  0  0
   12.2131   13.6108   27.0845 C   0  0  0  0  0  0  0  0  0  0  0  0
    7.1234   13.7888   26.9335 C   0  0  0  0  0  0  0  0  0  0  0  0
    6.3239   14.2536   25.7206 C   0  0  0  0  0  0  0  0  0  0  0  0
    9.4871   14.8739   21.9582 C   0  0  0  0  0  0  0  0  0  0  0  0
    9.3418   14.5495   20.6109 C   0  0  0  0  0  0  0  0  0  0  0  0
   10.4316   14.5315   19.7454 C   0  0  0  0  0  0  0  0  0  0  0  0
   11.6825   14.7850   20.2547 C   0  0  0  0  0  0  0  0  0  0  0  0
   12.7229   14.6593   19.4339 F   0  0  0  0  0  0  0  0  0  0  0  0
   11.8359   15.1730   21.5748 C   0  0  0  0  0  0  0  0  0  0  0  0
   13.0122   15.5891   22.0396 F   0  0  0  0  0  0  0  0  0  0  0  0
   10.7523   15.2225   22.4247 C   0  0  0  0  0  0  0  0  0  0  0  0
  1  2  1  0
  2  3  1  0
  3  4  1  0
  4  5  2  0
  4  6  1  0
  6  7  1  6
  7  8  1  0
  8  9  2  0
  8 10  1  0
 10 11  1  0
 11 12  1  0
 12 13  1  0
 13 14  1  0
 14 15  2  0
 14 16  2  0
 14 17  1  0
 17 18  1  0
 18 19  1  0
 19 20  1  0
 20 21  1  0
 21 22  1  0
 13 23  1  0
 23 24  1  0
  6 25  1  0
 25 26  2  0
 26 27  1  0
 27 28  2  0
 28 29  1  0
 28 30  1  0
 30 31  1  0
 30 32  2  0
 24 10  1  0
 32 25  1  0
 22 17  1  0
M  END
>  <energy_score>  (2909) 
-8.022702

>  <inchikey>  (2909) 
None

>  <smiles>  (2909) 
None

>  <ref_pdb>  (2909) 
A4706a

>  <alias>  (2909) 
None

>  <HIPPO Pose ID>  (2909) 
500553

>  <name>  (2909) 
P500553

>  <HIPPO Compound ID>  (2909) 
314964

>  <ref_mols>  (2909) 
A0875a,A4706a

>  <distance_score>  (2909) 
1.76931

>  <inspiration_score>  (2909) 
None

$$$$
P500554
     RDKit          3D

 32 34  0  0  0  0  0  0  0  0999 V2000
    7.7953   19.4948   19.2212 C   0  0  0  0  0  0  0  0  0  0  0  0
    8.1694   18.1930   19.6174 O   0  0  0  0  0  0  0  0  0  0  0  0
    8.3376   18.0579   20.9602 C   0  0  0  0  0  0  0  0  0  0  0  0
    8.5464   19.0137   21.6824 O   0  0  0  0  0  0  0  0  0  0  0  0
    8.2516   16.5673   21.3676 C   0  0  2  0  0  0  0  0  0  0  0  0
    7.9029   16.1347   22.6744 O   0  0  0  0  0  0  0  0  0  0  0  0
    6.6318   15.7201   22.9755 C   0  0  0  0  0  0  0  0  0  0  0  0
    5.6029   15.9198   22.3571 O   0  0  0  0  0  0  0  0  0  0  0  0
    6.7787   14.8575   24.2033 C   0  0  0  0  0  0  0  0  0  0  0  0
    6.9122   13.3948   23.7456 C   0  0  0  0  0  0  0  0  0  0  0  0
    7.1438   12.4369   24.9102 C   0  0  0  0  0  0  0  0  0  0  0  0
    7.7356   13.1622   26.0552 N   0  0  0  0  0  0  0  0  0  0  0  0
    9.3086   13.8066   25.8582 S   0  0  0  0  0  0  0  0  0  0  0  0
    9.5213   14.7464   26.9333 O   0  0  0  0  0  0  0  0  0  0  0  0
    9.5417   14.2009   24.4901 O   0  0  0  0  0  0  0  0  0  0  0  0
   10.4012   12.5454   26.1120 N   0  0  0  0  0  0  0  0  0  0  0  0
   11.7754   13.1516   26.2125 C   0  0  0  0  0  0  0  0  0  0  0  0
   12.7216   12.6148   25.1649 C   0  0  0  0  0  0  0  0  0  0  0  0
   12.8375   11.1332   25.3978 C   0  0  0  0  0  0  0  0  0  0  0  0
   11.4600   10.4328   25.2667 C   0  0  0  0  0  0  0  0  0  0  0  0
   10.2901   11.4025   25.1663 C   0  0  0  0  0  0  0  0  0  0  0  0
    6.6928   14.1603   26.5799 C   0  0  0  0  0  0  0  0  0  0  0  0
    5.9189   14.8945   25.4419 C   0  0  0  0  0  0  0  0  0  0  0  0
    9.5452   15.8758   20.9647 C   0  0  0  0  0  0  0  0  0  0  0  0
    9.7899   15.5357   19.6237 C   0  0  0  0  0  0  0  0  0  0  0  0
   10.8979   14.8039   19.2866 C   0  0  0  0  0  0  0  0  0  0  0  0
   11.0945   14.3977   18.0325 F   0  0  0  0  0  0  0  0  0  0  0  0
   11.7597   14.3936   20.2637 C   0  0  0  0  0  0  0  0  0  0  0  0
   12.6816   13.5230   19.8756 F   0  0  0  0  0  0  0  0  0  0  0  0
   11.5855   14.7844   21.5818 C   0  0  0  0  0  0  0  0  0  0  0  0
   12.4013   14.3876   22.5591 F   0  0  0  0  0  0  0  0  0  0  0  0
   10.5044   15.5625   21.9265 C   0  0  0  0  0  0  0  0  0  0  0  0
  1  2  1  0
  2  3  1  0
  3  4  2  0
  3  5  1  0
  5  6  1  1
  6  7  1  0
  7  8  2  0
  7  9  1  0
  9 10  1  0
 10 11  1  0
 11 12  1  0
 12 13  1  0
 13 14  2  0
 13 15  2  0
 13 16  1  0
 16 17  1  0
 17 18  1  0
 18 19  1  0
 19 20  1  0
 20 21  1  0
 12 22  1  0
 22 23  1  0
  5 24  1  0
 24 25  2  0
 25 26  1  0
 26 27  1  0
 26 28  2  0
 28 29  1  0
 28 30  1  0
 30 31  1  0
 30 32  2  0
 23  9  1  0
 32 24  1  0
 21 16  1  0
M  END
>  <energy_score>  (2910) 
-8.428728

>  <inchikey>  (2910) 
None

>  <smiles>  (2910) 
None

>  <ref_pdb>  (2910) 
A4706a

>  <alias>  (2910) 
None

>  <HIPPO Pose ID>  (2910) 
500554

>  <name>  (2910) 
P500554

>  <HIPPO Compound ID>  (2910) 
314972

>  <ref_mols>  (2910) 
A4706a,A0875a

>  <distance_score>  (2910) 
1.639121

>  <inspiration_score>  (2910) 
None

$$$$
P500555
     RDKit          3D

 32 34  0  0  0  0  0  0  0  0999 V2000
    8.4685   18.6119   21.0110 C   0  0  0  0  0  0  0  0  0  0  0  0
    8.1779   17.2282   20.9985 O   0  0  0  0  0  0  0  0  0  0  0  0
    7.5079   16.5992   21.9982 C   0  0  0  0  0  0  0  0  0  0  0  0
    6.7103   17.0450   22.8135 O   0  0  0  0  0  0  0  0  0  0  0  0
    7.9303   15.1556   21.9995 C   0  0  2  0  0  0  0  0  0  0  0  0
    7.6413   14.7166   23.3339 O   0  0  0  0  0  0  0  0  0  0  0  0
    6.7790   13.6883   23.4461 C   0  0  0  0  0  0  0  0  0  0  0  0
    6.4568   12.9616   22.5107 O   0  0  0  0  0  0  0  0  0  0  0  0
    6.2077   13.5033   24.8493 C   0  0  0  0  0  0  0  0  0  0  0  0
    6.4540   12.0750   25.3550 C   0  0  0  0  0  0  0  0  0  0  0  0
    7.8558   11.7978   25.8853 C   0  0  0  0  0  0  0  0  0  0  0  0
    8.4663   13.0068   26.4746 N   0  0  0  0  0  0  0  0  0  0  0  0
    9.7131   13.7229   25.5958 S   0  0  0  0  0  0  0  0  0  0  0  0
    9.8445   15.0755   26.0758 O   0  0  0  0  0  0  0  0  0  0  0  0
    9.5135   13.3763   24.2131 O   0  0  0  0  0  0  0  0  0  0  0  0
   11.0654   12.8190   26.1172 N   0  0  0  0  0  0  0  0  0  0  0  0
   12.0325   13.6139   26.9053 C   0  0  0  0  0  0  0  0  0  0  0  0
   13.4763   13.1227   26.7552 C   0  0  0  0  0  0  0  0  0  0  0  0
   13.5548   11.6487   26.7125 C   0  0  0  0  0  0  0  0  0  0  0  0
   12.8675   11.2149   25.4314 C   0  0  0  0  0  0  0  0  0  0  0  0
   11.6687   12.0654   25.0051 C   0  0  0  0  0  0  0  0  0  0  0  0
    7.4540   13.9491   27.0198 C   0  0  0  0  0  0  0  0  0  0  0  0
    6.6090   14.5471   25.9012 C   0  0  0  0  0  0  0  0  0  0  0  0
    9.3583   15.0144   21.5028 C   0  0  0  0  0  0  0  0  0  0  0  0
    9.5085   14.8710   20.1188 C   0  0  0  0  0  0  0  0  0  0  0  0
   10.7319   14.7136   19.5282 C   0  0  0  0  0  0  0  0  0  0  0  0
   10.8359   14.4538   18.2250 F   0  0  0  0  0  0  0  0  0  0  0  0
   11.8462   14.7925   20.3094 C   0  0  0  0  0  0  0  0  0  0  0  0
   13.0046   14.6063   19.6961 F   0  0  0  0  0  0  0  0  0  0  0  0
   11.7693   15.1004   21.6605 C   0  0  0  0  0  0  0  0  0  0  0  0
   10.5169   15.2349   22.2395 C   0  0  0  0  0  0  0  0  0  0  0  0
   10.4567   15.6517   23.5069 F   0  0  0  0  0  0  0  0  0  0  0  0
  1  2  1  0
  2  3  1  0
  3  4  2  0
  3  5  1  0
  5  6  1  1
  6  7  1  0
  7  8  2  0
  7  9  1  0
  9 10  1  0
 10 11  1  0
 11 12  1  0
 12 13  1  0
 13 14  2  0
 13 15  2  0
 13 16  1  0
 16 17  1  0
 17 18  1  0
 18 19  1  0
 19 20  1  0
 20 21  1  0
 12 22  1  0
 22 23  1  0
  5 24  1  0
 24 25  2  0
 25 26  1  0
 26 27  1  0
 26 28  2  0
 28 29  1  0
 28 30  1  0
 30 31  2  0
 31 32  1  0
 23  9  1  0
 31 24  1  0
 21 16  1  0
M  END
>  <energy_score>  (2911) 
-32.714103

>  <inchikey>  (2911) 
None

>  <smiles>  (2911) 
None

>  <ref_pdb>  (2911) 
A4706a

>  <alias>  (2911) 
None

>  <HIPPO Pose ID>  (2911) 
500555

>  <name>  (2911) 
P500555

>  <HIPPO Compound ID>  (2911) 
314976

>  <ref_mols>  (2911) 
A0875a,A4706a

>  <distance_score>  (2911) 
1.530591

>  <inspiration_score>  (2911) 
None

$$$$
P500556
     RDKit          3D

 32 34  0  0  0  0  0  0  0  0999 V2000
    4.4366   13.8117   20.8511 C   0  0  0  0  0  0  0  0  0  0  0  0
    5.8067   14.1507   21.1214 O   0  0  0  0  0  0  0  0  0  0  0  0
    5.9622   15.2816   21.8570 C   0  0  0  0  0  0  0  0  0  0  0  0
    5.0158   16.0285   22.1044 O   0  0  0  0  0  0  0  0  0  0  0  0
    7.3632   15.4937   22.4419 C   0  0  1  0  0  0  0  0  0  0  0  0
    7.1952   14.8826   23.7412 O   0  0  0  0  0  0  0  0  0  0  0  0
    6.8148   13.5804   23.7283 C   0  0  0  0  0  0  0  0  0  0  0  0
    7.1413   12.7776   22.8604 O   0  0  0  0  0  0  0  0  0  0  0  0
    5.8406   13.2216   24.8456 C   0  0  0  0  0  0  0  0  0  0  0  0
    6.3605   11.9597   25.5494 C   0  0  0  0  0  0  0  0  0  0  0  0
    7.4691   12.3020   26.5356 C   0  0  0  0  0  0  0  0  0  0  0  0
    7.9471   13.6530   26.2227 N   0  0  0  0  0  0  0  0  0  0  0  0
    9.5363   14.0885   26.3158 S   0  0  0  0  0  0  0  0  0  0  0  0
    9.6306   15.5250   26.2331 O   0  0  0  0  0  0  0  0  0  0  0  0
   10.1368   13.3966   27.4236 O   0  0  0  0  0  0  0  0  0  0  0  0
   10.3096   13.5137   24.9594 N   0  0  0  0  0  0  0  0  0  0  0  0
   10.0463   12.2176   24.3358 C   0  0  0  0  0  0  0  0  0  0  0  0
   10.7420   11.1140   25.1001 C   0  0  0  0  0  0  0  0  0  0  0  0
   12.1801   11.4803   25.5058 C   0  0  0  0  0  0  0  0  0  0  0  0
   12.6601   12.7126   24.7901 C   0  0  0  0  0  0  0  0  0  0  0  0
   11.7453   13.8776   25.0317 C   0  0  0  0  0  0  0  0  0  0  0  0
    6.9456   14.6827   26.5904 C   0  0  0  0  0  0  0  0  0  0  0  0
    5.6401   14.3457   25.8690 C   0  0  0  0  0  0  0  0  0  0  0  0
    8.7105   15.2183   21.7667 C   0  0  0  0  0  0  0  0  0  0  0  0
    8.8742   14.8972   20.4323 C   0  0  0  0  0  0  0  0  0  0  0  0
   10.1312   14.8068   19.8151 C   0  0  0  0  0  0  0  0  0  0  0  0
   10.2254   14.5328   18.5109 F   0  0  0  0  0  0  0  0  0  0  0  0
   11.2764   14.9888   20.5444 C   0  0  0  0  0  0  0  0  0  0  0  0
   12.4681   14.8362   19.9668 F   0  0  0  0  0  0  0  0  0  0  0  0
   11.1793   15.3373   21.8682 C   0  0  0  0  0  0  0  0  0  0  0  0
    9.9116   15.4483   22.4466 C   0  0  0  0  0  0  0  0  0  0  0  0
    9.8600   15.8115   23.7232 F   0  0  0  0  0  0  0  0  0  0  0  0
  1  2  1  0
  2  3  1  0
  3  4  2  0
  3  5  1  0
  5  6  1  1
  6  7  1  0
  7  8  2  0
  7  9  1  0
  9 10  1  0
 10 11  1  0
 11 12  1  0
 12 13  1  0
 13 14  2  0
 13 15  2  0
 13 16  1  0
 16 17  1  0
 17 18  1  0
 18 19  1  0
 19 20  1  0
 20 21  1  0
 12 22  1  0
 22 23  1  0
  5 24  1  0
 24 25  2  0
 25 26  1  0
 26 27  1  0
 26 28  2  0
 28 29  1  0
 28 30  1  0
 30 31  2  0
 31 32  1  0
 23  9  1  0
 31 24  1  0
 21 16  1  0
M  END
>  <energy_score>  (2912) 
-40.353615

>  <inchikey>  (2912) 
None

>  <smiles>  (2912) 
None

>  <ref_pdb>  (2912) 
A4706a

>  <alias>  (2912) 
None

>  <HIPPO Pose ID>  (2912) 
500556

>  <name>  (2912) 
P500556

>  <HIPPO Compound ID>  (2912) 
314976

>  <ref_mols>  (2912) 
A4706a,A0875a

>  <distance_score>  (2912) 
1.806636

>  <inspiration_score>  (2912) 
None

$$$$
P500557
     RDKit          3D

 32 34  0  0  0  0  0  0  0  0999 V2000
    7.8753   19.4040   19.3344 C   0  0  0  0  0  0  0  0  0  0  0  0
    8.2989   18.1112   19.7428 O   0  0  0  0  0  0  0  0  0  0  0  0
    8.3609   17.9445   21.0955 C   0  0  0  0  0  0  0  0  0  0  0  0
    8.4450   18.9047   21.8321 O   0  0  0  0  0  0  0  0  0  0  0  0
    8.2835   16.4238   21.4863 C   0  0  2  0  0  0  0  0  0  0  0  0
    7.8239   15.9209   22.7701 O   0  0  0  0  0  0  0  0  0  0  0  0
    7.1977   14.7037   22.7684 C   0  0  0  0  0  0  0  0  0  0  0  0
    7.0511   14.0028   21.7651 O   0  0  0  0  0  0  0  0  0  0  0  0
    6.6032   14.2426   24.1254 C   0  0  0  0  0  0  0  0  0  0  0  0
    6.9349   12.7330   24.3593 C   0  0  0  0  0  0  0  0  0  0  0  0
    7.6749   12.2953   25.6264 C   0  0  0  0  0  0  0  0  0  0  0  0
    8.3254   13.4336   26.2919 N   0  0  0  0  0  0  0  0  0  0  0  0
    9.7075   14.0509   25.5276 S   0  0  0  0  0  0  0  0  0  0  0  0
    9.9326   15.3493   26.1133 O   0  0  0  0  0  0  0  0  0  0  0  0
    9.5331   13.8545   24.1125 O   0  0  0  0  0  0  0  0  0  0  0  0
   10.9370   12.9942   26.0583 N   0  0  0  0  0  0  0  0  0  0  0  0
   11.9437   13.6776   26.9135 C   0  0  0  0  0  0  0  0  0  0  0  0
   13.3654   13.1475   26.7223 C   0  0  0  0  0  0  0  0  0  0  0  0
   13.3815   11.6760   26.6834 C   0  0  0  0  0  0  0  0  0  0  0  0
   12.6250   11.2564   25.4374 C   0  0  0  0  0  0  0  0  0  0  0  0
   11.5273   12.2128   24.9536 C   0  0  0  0  0  0  0  0  0  0  0  0
    7.2875   14.4566   26.5970 C   0  0  0  0  0  0  0  0  0  0  0  0
    6.8399   15.1681   25.3262 C   0  0  0  0  0  0  0  0  0  0  0  0
    9.5664   15.7770   21.0195 C   0  0  0  0  0  0  0  0  0  0  0  0
    9.7674   15.4715   19.6589 C   0  0  0  0  0  0  0  0  0  0  0  0
   10.8884   14.8073   19.2300 C   0  0  0  0  0  0  0  0  0  0  0  0
   11.7819   14.3924   20.1843 C   0  0  0  0  0  0  0  0  0  0  0  0
   12.7151   13.5533   19.7554 F   0  0  0  0  0  0  0  0  0  0  0  0
   11.6508   14.7495   21.5218 C   0  0  0  0  0  0  0  0  0  0  0  0
   12.4913   14.3359   22.4707 F   0  0  0  0  0  0  0  0  0  0  0  0
   10.5833   15.5103   21.9150 C   0  0  0  0  0  0  0  0  0  0  0  0
   10.5267   15.9345   23.1821 F   0  0  0  0  0  0  0  0  0  0  0  0
  1  2  1  0
  2  3  1  0
  3  4  2  0
  3  5  1  0
  5  6  1  1
  6  7  1  0
  7  8  2  0
  7  9  1  0
  9 10  1  0
 10 11  1  0
 11 12  1  0
 12 13  1  0
 13 14  2  0
 13 15  2  0
 13 16  1  0
 16 17  1  0
 17 18  1  0
 18 19  1  0
 19 20  1  0
 20 21  1  0
 12 22  1  0
 22 23  1  0
  5 24  1  0
 24 25  2  0
 25 26  1  0
 26 27  2  0
 27 28  1  0
 27 29  1  0
 29 30  1  0
 29 31  2  0
 31 32  1  0
 23  9  1  0
 31 24  1  0
 21 16  1  0
M  END
>  <energy_score>  (2913) 
-15.528239

>  <inchikey>  (2913) 
None

>  <smiles>  (2913) 
None

>  <ref_pdb>  (2913) 
A4706a

>  <alias>  (2913) 
None

>  <HIPPO Pose ID>  (2913) 
500557

>  <name>  (2913) 
P500557

>  <HIPPO Compound ID>  (2913) 
314979

>  <ref_mols>  (2913) 
A4706a,A0875a

>  <distance_score>  (2913) 
1.6626

>  <inspiration_score>  (2913) 
None

$$$$
P500558
     RDKit          3D

 32 34  0  0  0  0  0  0  0  0999 V2000
    7.8888   19.4005   19.3434 C   0  0  0  0  0  0  0  0  0  0  0  0
    8.2583   18.0828   19.7313 O   0  0  0  0  0  0  0  0  0  0  0  0
    8.2697   17.8815   21.0793 C   0  0  0  0  0  0  0  0  0  0  0  0
    8.4113   18.8202   21.8365 O   0  0  0  0  0  0  0  0  0  0  0  0
    8.0548   16.3640   21.4613 C   0  0  2  0  0  0  0  0  0  0  0  0
    7.5990   16.0322   22.7951 O   0  0  0  0  0  0  0  0  0  0  0  0
    6.9975   14.8225   22.9553 C   0  0  0  0  0  0  0  0  0  0  0  0
    7.0985   13.8838   22.1645 O   0  0  0  0  0  0  0  0  0  0  0  0
    6.0652   14.7538   24.1815 C   0  0  0  0  0  0  0  0  0  0  0  0
    5.7744   13.2870   24.5452 C   0  0  0  0  0  0  0  0  0  0  0  0
    6.9795   12.6198   25.1994 C   0  0  0  0  0  0  0  0  0  0  0  0
    7.6004   13.4437   26.2731 N   0  0  0  0  0  0  0  0  0  0  0  0
    9.2023   13.9587   26.0716 S   0  0  0  0  0  0  0  0  0  0  0  0
    9.5442   14.7251   27.2466 O   0  0  0  0  0  0  0  0  0  0  0  0
    9.2959   14.5678   24.7735 O   0  0  0  0  0  0  0  0  0  0  0  0
   10.1842   12.5758   26.1211 N   0  0  0  0  0  0  0  0  0  0  0  0
   10.0082   11.5411   25.0781 C   0  0  0  0  0  0  0  0  0  0  0  0
   10.3701   12.1064   23.7231 C   0  0  0  0  0  0  0  0  0  0  0  0
   11.6804   12.8965   23.8152 C   0  0  0  0  0  0  0  0  0  0  0  0
   12.4786   12.6044   25.0772 C   0  0  0  0  0  0  0  0  0  0  0  0
   11.6352   12.9547   26.2944 C   0  0  0  0  0  0  0  0  0  0  0  0
    6.7175   14.5922   26.6519 C   0  0  0  0  0  0  0  0  0  0  0  0
    6.4880   15.5153   25.4456 C   0  0  0  0  0  0  0  0  0  0  0  0
    9.2613   15.6211   20.9450 C   0  0  0  0  0  0  0  0  0  0  0  0
    9.4395   15.2270   19.6037 C   0  0  0  0  0  0  0  0  0  0  0  0
   10.6339   14.7477   19.1070 C   0  0  0  0  0  0  0  0  0  0  0  0
   11.6909   14.7179   19.9562 C   0  0  0  0  0  0  0  0  0  0  0  0
   12.8567   14.3111   19.4740 F   0  0  0  0  0  0  0  0  0  0  0  0
   11.5492   15.1786   21.2463 C   0  0  0  0  0  0  0  0  0  0  0  0
   12.8561   15.5525   22.1853 Cl  0  0  0  0  0  0  0  0  0  0  0  0
   10.3481   15.5713   21.7600 C   0  0  0  0  0  0  0  0  0  0  0  0
   10.2809   16.0319   23.0111 F   0  0  0  0  0  0  0  0  0  0  0  0
  1  2  1  0
  2  3  1  0
  3  4  2  0
  3  5  1  0
  5  6  1  1
  6  7  1  0
  7  8  2  0
  7  9  1  0
  9 10  1  0
 10 11  1  0
 11 12  1  0
 12 13  1  0
 13 14  2  0
 13 15  2  0
 13 16  1  0
 16 17  1  0
 17 18  1  0
 18 19  1  0
 19 20  1  0
 20 21  1  0
 12 22  1  0
 22 23  1  0
  5 24  1  0
 24 25  2  0
 25 26  1  0
 26 27  2  0
 27 28  1  0
 27 29  1  0
 29 30  1  0
 29 31  2  0
 31 32  1  0
 23  9  1  0
 31 24  1  0
 21 16  1  0
M  END
>  <energy_score>  (2914) 
-26.004975

>  <inchikey>  (2914) 
None

>  <smiles>  (2914) 
None

>  <ref_pdb>  (2914) 
A4706a

>  <alias>  (2914) 
None

>  <HIPPO Pose ID>  (2914) 
500558

>  <name>  (2914) 
P500558

>  <HIPPO Compound ID>  (2914) 
314981

>  <ref_mols>  (2914) 
A4706a,A0875a

>  <distance_score>  (2914) 
1.821068

>  <inspiration_score>  (2914) 
None

$$$$
P500559
     RDKit          3D

 32 35  0  0  0  0  0  0  0  0999 V2000
   17.5884   17.5037   33.1847 C   0  0  0  0  0  0  0  0  0  0  0  0
   17.3240   17.3437   31.6996 C   0  0  0  0  0  0  0  0  0  0  0  0
   17.0012   15.9788   31.4003 O   0  0  0  0  0  0  0  0  0  0  0  0
   15.6948   15.6180   31.5220 C   0  0  0  0  0  0  0  0  0  0  0  0
   14.7955   16.3703   31.8874 O   0  0  0  0  0  0  0  0  0  0  0  0
   15.4499   14.2433   31.1530 C   0  0  0  0  0  0  0  0  0  0  0  0
   14.3315   13.4431   31.4894 C   0  0  0  0  0  0  0  0  0  0  0  0
   14.3803   12.2229   30.9422 N   0  0  0  0  0  0  0  0  0  0  0  0
   15.5573   12.2316   30.2963 N   0  0  0  0  0  0  0  0  0  0  0  0
   16.2050   13.4363   30.3250 C   0  0  0  0  0  0  0  0  0  0  0  0
   17.2898   13.7000   29.5928 O   0  0  0  0  0  0  0  0  0  0  0  0
   17.7781   12.6615   28.7283 C   0  0  0  0  0  0  0  0  0  0  0  0
   16.6951   11.6865   28.2454 C   0  0  2  0  0  0  0  0  0  0  0  0
   15.7378   12.4144   27.4313 O   0  0  0  0  0  0  0  0  0  0  0  0
   14.9644   11.6614   26.6095 C   0  0  0  0  0  0  0  0  0  0  0  0
   15.1836   10.4947   26.3205 O   0  0  0  0  0  0  0  0  0  0  0  0
   13.7602   12.4407   26.1303 C   0  0  0  0  0  0  0  0  0  0  0  0
   12.9415   12.9629   27.2935 C   0  0  0  0  0  0  0  0  0  0  0  0
   11.6548   13.6800   26.8689 C   0  0  0  0  0  0  0  0  0  0  0  0
   11.3161   13.3749   25.4627 N   0  0  0  0  0  0  0  0  0  0  0  0
    9.9081   14.1188   24.9289 S   0  0  0  0  0  0  0  0  0  0  0  0
   10.0747   15.5202   25.1791 O   0  0  0  0  0  0  0  0  0  0  0  0
    8.7949   13.3847   25.4766 O   0  0  0  0  0  0  0  0  0  0  0  0
    9.9987   13.8800   23.2634 N   0  0  0  0  0  0  0  0  0  0  0  0
   11.3135   14.1903   22.6201 C   0  0  0  0  0  0  0  0  0  0  0  0
   11.3423   15.5686   22.0044 C   0  0  0  0  0  0  0  0  0  0  0  0
   10.2872   15.7189   20.9208 C   0  0  0  0  0  0  0  0  0  0  0  0
    9.1609   14.7111   21.0796 C   0  0  0  0  0  0  0  0  0  0  0  0
    8.8301   14.4619   22.5378 C   0  0  0  0  0  0  0  0  0  0  0  0
   11.4030   11.9610   25.1601 C   0  0  0  0  0  0  0  0  0  0  0  0
   12.8776   11.5778   25.2272 C   0  0  0  0  0  0  0  0  0  0  0  0
   15.9717   11.1193   29.4632 C   0  0  0  0  0  0  0  0  0  0  0  0
  1  2  1  0
  2  3  1  0
  3  4  1  0
  4  5  2  0
  4  6  1  0
  6  7  1  0
  7  8  2  0
  8  9  1  0
  9 10  1  0
 10 11  1  0
 11 12  1  0
 12 13  1  0
 13 14  1  6
 14 15  1  0
 15 16  2  0
 15 17  1  0
 17 18  1  0
 18 19  1  0
 19 20  1  0
 20 21  1  0
 21 22  2  0
 21 23  2  0
 21 24  1  0
 24 25  1  0
 25 26  1  0
 26 27  1  0
 27 28  1  0
 28 29  1  0
 20 30  1  0
 30 31  1  0
 13 32  1  0
 10  6  2  0
 31 17  1  0
 32  9  1  0
 29 24  1  0
M  END
>  <energy_score>  (2915) 
-86.435318

>  <inchikey>  (2915) 
None

>  <smiles>  (2915) 
None

>  <ref_pdb>  (2915) 
A4706a

>  <alias>  (2915) 
None

>  <HIPPO Pose ID>  (2915) 
500559

>  <name>  (2915) 
P500559

>  <HIPPO Compound ID>  (2915) 
314988

>  <ref_mols>  (2915) 
A4706a,A0875a

>  <distance_score>  (2915) 
1.839351

>  <inspiration_score>  (2915) 
None

$$$$
P500560
     RDKit          3D

 32 34  0  0  0  0  0  0  0  0999 V2000
    8.4816   18.2627   21.0635 C   0  0  0  0  0  0  0  0  0  0  0  0
    8.3472   16.8489   21.1154 O   0  0  0  0  0  0  0  0  0  0  0  0
    7.5689   16.1772   22.0050 C   0  0  0  0  0  0  0  0  0  0  0  0
    6.8247   16.6454   22.8536 O   0  0  0  0  0  0  0  0  0  0  0  0
    7.7703   14.6659   21.7782 C   0  0  2  0  0  0  0  0  0  0  0  0
    7.4603   13.8981   22.9560 O   0  0  0  0  0  0  0  0  0  0  0  0
    6.1390   13.8068   23.2555 C   0  0  0  0  0  0  0  0  0  0  0  0
    5.2428   14.0612   22.4636 O   0  0  0  0  0  0  0  0  0  0  0  0
    5.9045   13.3318   24.6838 C   0  0  0  0  0  0  0  0  0  0  0  0
    6.6424   12.0321   25.0272 C   0  0  0  0  0  0  0  0  0  0  0  0
    8.0711   12.2629   25.4679 C   0  0  0  0  0  0  0  0  0  0  0  0
    8.1529   13.1674   26.6136 N   0  0  0  0  0  0  0  0  0  0  0  0
    9.5005   14.1592   26.7452 S   0  0  0  0  0  0  0  0  0  0  0  0
    9.4650   14.6535   28.1002 O   0  0  0  0  0  0  0  0  0  0  0  0
    9.4832   15.1135   25.6734 O   0  0  0  0  0  0  0  0  0  0  0  0
   10.8759   13.1197   26.6332 N   0  0  0  0  0  0  0  0  0  0  0  0
   11.3793   12.8579   25.2599 C   0  0  0  0  0  0  0  0  0  0  0  0
   12.5591   11.9032   25.2770 C   0  0  0  0  0  0  0  0  0  0  0  0
   13.7113   12.3656   26.1311 C   0  0  0  0  0  0  0  0  0  0  0  0
   13.2247   12.8176   27.4865 C   0  0  0  0  0  0  0  0  0  0  0  0
   11.9860   13.7138   27.4460 C   0  0  0  0  0  0  0  0  0  0  0  0
    6.8770   13.8790   26.9407 C   0  0  0  0  0  0  0  0  0  0  0  0
    6.2310   14.4427   25.6822 C   0  0  0  0  0  0  0  0  0  0  0  0
    9.1793   14.3726   21.2993 C   0  0  0  0  0  0  0  0  0  0  0  0
    9.5809   14.7366   20.0252 C   0  0  0  0  0  0  0  0  0  0  0  0
   10.9011   14.6657   19.6849 C   0  0  0  0  0  0  0  0  0  0  0  0
   11.5129   15.2615   18.0857 Br  0  0  0  0  0  0  0  0  0  0  0  0
   11.8083   14.1812   20.5732 C   0  0  0  0  0  0  0  0  0  0  0  0
   11.5015   13.7913   21.8076 N   0  0  0  0  0  0  0  0  0  0  0  0
   10.2234   14.0466   22.1430 C   0  0  0  0  0  0  0  0  0  0  0  0
   10.1204   14.5915   23.3847 O   0  0  0  0  0  0  0  0  0  0  0  0
   10.9469   15.7536   23.3274 C   0  0  0  0  0  0  0  0  0  0  0  0
  1  2  1  0
  2  3  1  0
  3  4  2  0
  3  5  1  0
  5  6  1  1
  6  7  1  0
  7  8  2  0
  7  9  1  0
  9 10  1  0
 10 11  1  0
 11 12  1  0
 12 13  1  0
 13 14  2  0
 13 15  2  0
 13 16  1  0
 16 17  1  0
 17 18  1  0
 18 19  1  0
 19 20  1  0
 20 21  1  0
 12 22  1  0
 22 23  1  0
  5 24  1  0
 24 25  2  0
 25 26  1  0
 26 27  1  0
 26 28  2  0
 28 29  1  0
 29 30  2  0
 30 31  1  0
 31 32  1  0
 23  9  1  0
 30 24  1  0
 21 16  1  0
M  END
>  <energy_score>  (2916) 
-33.788518

>  <inchikey>  (2916) 
None

>  <smiles>  (2916) 
None

>  <ref_pdb>  (2916) 
A4706a

>  <alias>  (2916) 
None

>  <HIPPO Pose ID>  (2916) 
500560

>  <name>  (2916) 
P500560

>  <HIPPO Compound ID>  (2916) 
314996

>  <ref_mols>  (2916) 
A4706a,A0875a

>  <distance_score>  (2916) 
1.834735

>  <inspiration_score>  (2916) 
None

$$$$
P500561
     RDKit          3D

 32 34  0  0  0  0  0  0  0  0999 V2000
    4.1779   13.9718   20.9696 C   0  0  0  0  0  0  0  0  0  0  0  0
    5.2396   14.8652   21.3180 O   0  0  0  0  0  0  0  0  0  0  0  0
    6.3725   14.2725   21.7826 C   0  0  0  0  0  0  0  0  0  0  0  0
    6.5576   13.0598   21.7786 O   0  0  0  0  0  0  0  0  0  0  0  0
    7.3375   15.2740   22.4076 C   0  0  1  0  0  0  0  0  0  0  0  0
    7.1630   14.8949   23.8174 O   0  0  0  0  0  0  0  0  0  0  0  0
    5.9158   14.9427   24.3521 C   0  0  0  0  0  0  0  0  0  0  0  0
    5.0173   15.6731   23.9574 O   0  0  0  0  0  0  0  0  0  0  0  0
    5.7322   13.9313   25.4820 C   0  0  0  0  0  0  0  0  0  0  0  0
    6.1419   12.5000   25.0660 C   0  0  0  0  0  0  0  0  0  0  0  0
    7.0775   11.6850   25.9578 C   0  0  0  0  0  0  0  0  0  0  0  0
    7.9425   12.5588   26.7609 N   0  0  0  0  0  0  0  0  0  0  0  0
    9.2055   13.3294   25.9511 S   0  0  0  0  0  0  0  0  0  0  0  0
    8.9798   13.1188   24.5452 O   0  0  0  0  0  0  0  0  0  0  0  0
    9.2787   14.6209   26.5934 O   0  0  0  0  0  0  0  0  0  0  0  0
   10.6674   12.5402   26.3538 N   0  0  0  0  0  0  0  0  0  0  0  0
   11.6134   13.4007   27.1443 C   0  0  0  0  0  0  0  0  0  0  0  0
   12.9582   12.7301   27.4272 C   0  0  0  0  0  0  0  0  0  0  0  0
   13.6635   12.2402   26.1885 C   0  0  0  0  0  0  0  0  0  0  0  0
   12.7534   12.2781   24.9906 C   0  0  0  0  0  0  0  0  0  0  0  0
   11.3263   11.8038   25.2339 C   0  0  0  0  0  0  0  0  0  0  0  0
    7.0727   13.4618   27.5904 C   0  0  0  0  0  0  0  0  0  0  0  0
    6.3471   14.4939   26.7507 C   0  0  0  0  0  0  0  0  0  0  0  0
    8.7964   15.1193   21.9282 C   0  0  0  0  0  0  0  0  0  0  0  0
    9.1784   14.9841   20.5915 C   0  0  0  0  0  0  0  0  0  0  0  0
   10.5263   14.9110   20.2210 C   0  0  0  0  0  0  0  0  0  0  0  0
   11.1124   14.7733   18.4728 Br  0  0  0  0  0  0  0  0  0  0  0  0
   11.4958   14.9589   21.1819 C   0  0  0  0  0  0  0  0  0  0  0  0
   11.1944   15.0868   22.4638 N   0  0  0  0  0  0  0  0  0  0  0  0
    9.8771   15.2096   22.7870 C   0  0  0  0  0  0  0  0  0  0  0  0
    9.6172   15.5178   24.0958 O   0  0  0  0  0  0  0  0  0  0  0  0
   10.8311   15.7763   24.7516 C   0  0  0  0  0  0  0  0  0  0  0  0
  1  2  1  0
  2  3  1  0
  3  4  2  0
  3  5  1  0
  5  6  1  1
  6  7  1  0
  7  8  2  0
  7  9  1  0
  9 10  1  0
 10 11  1  0
 11 12  1  0
 12 13  1  0
 13 14  2  0
 13 15  2  0
 13 16  1  0
 16 17  1  0
 17 18  1  0
 18 19  1  0
 19 20  1  0
 20 21  1  0
 12 22  1  0
 22 23  1  0
  5 24  1  0
 24 25  2  0
 25 26  1  0
 26 27  1  0
 26 28  2  0
 28 29  1  0
 29 30  2  0
 30 31  1  0
 31 32  1  0
 23  9  1  0
 30 24  1  0
 21 16  1  0
M  END
>  <energy_score>  (2917) 
-8.722554

>  <inchikey>  (2917) 
None

>  <smiles>  (2917) 
None

>  <ref_pdb>  (2917) 
A4706a

>  <alias>  (2917) 
None

>  <HIPPO Pose ID>  (2917) 
500561

>  <name>  (2917) 
P500561

>  <HIPPO Compound ID>  (2917) 
314996

>  <ref_mols>  (2917) 
A4706a,A0875a

>  <distance_score>  (2917) 
1.90713

>  <inspiration_score>  (2917) 
None

$$$$
P500562
     RDKit          3D

 32 35  0  0  0  0  0  0  0  0999 V2000
   13.8828   14.2037   30.4214 C   0  0  0  0  0  0  0  0  0  0  0  0
   14.9773   13.1705   30.5712 C   0  0  0  0  0  0  0  0  0  0  0  0
   15.7562   13.1690   29.3754 O   0  0  0  0  0  0  0  0  0  0  0  0
   16.8581   12.2228   29.3518 C   0  0  1  0  0  0  0  0  0  0  0  0
   16.5130   10.7238   29.1860 C   0  0  0  0  0  0  0  0  0  0  0  0
   16.8728   10.8165   27.6864 C   0  0  1  0  0  0  0  0  0  0  0  0
   15.8662   10.8778   26.6296 O   0  0  0  0  0  0  0  0  0  0  0  0
   14.6015   11.2784   26.9010 C   0  0  0  0  0  0  0  0  0  0  0  0
   14.0755   11.3596   28.0005 O   0  0  0  0  0  0  0  0  0  0  0  0
   13.8696   11.7169   25.6405 C   0  0  0  0  0  0  0  0  0  0  0  0
   13.5704   13.1657   25.9001 C   0  0  0  0  0  0  0  0  0  0  0  0
   12.2018   13.4298   26.5857 C   0  0  0  0  0  0  0  0  0  0  0  0
   11.1145   13.0153   25.6876 N   0  0  0  0  0  0  0  0  0  0  0  0
    9.8424   14.0518   25.3669 S   0  0  0  0  0  0  0  0  0  0  0  0
    9.4776   13.9298   23.9778 O   0  0  0  0  0  0  0  0  0  0  0  0
   10.1522   15.3347   25.9472 O   0  0  0  0  0  0  0  0  0  0  0  0
    8.6225   13.3763   26.3268 N   0  0  0  0  0  0  0  0  0  0  0  0
    8.1379   12.0118   26.0319 C   0  0  0  0  0  0  0  0  0  0  0  0
    7.1951   11.9941   24.8465 C   0  0  0  0  0  0  0  0  0  0  0  0
    6.0568   12.9942   25.0044 C   0  0  0  0  0  0  0  0  0  0  0  0
    6.5450   14.3781   25.4172 C   0  0  0  0  0  0  0  0  0  0  0  0
    7.4812   14.2930   26.6158 C   0  0  0  0  0  0  0  0  0  0  0  0
   11.4750   11.9954   24.7101 C   0  0  0  0  0  0  0  0  0  0  0  0
   12.5309   11.0758   25.3731 C   0  0  0  0  0  0  0  0  0  0  0  0
   17.6093   12.1565   28.0004 C   0  0  2  0  0  0  0  0  0  0  0  0
   19.0575   12.2694   28.0395 O   0  0  0  0  0  0  0  0  0  0  0  0
   19.8151   11.1446   28.2078 C   0  0  0  0  0  0  0  0  0  0  0  0
   20.5224   10.6608   27.1092 C   0  0  0  0  0  0  0  0  0  0  0  0
   21.3662    9.5609   27.2587 C   0  0  0  0  0  0  0  0  0  0  0  0
   21.5029    8.9526   28.5066 C   0  0  0  0  0  0  0  0  0  0  0  0
   20.8133    9.4584   29.6093 C   0  0  0  0  0  0  0  0  0  0  0  0
   19.9796   10.5681   29.4637 C   0  0  0  0  0  0  0  0  0  0  0  0
  1  2  1  0
  2  3  1  0
  4  3  1  6
  4  5  1  0
  5  6  1  0
  6  7  1  6
  7  8  1  0
  8  9  2  0
  8 10  1  0
 10 11  1  0
 11 12  1  0
 12 13  1  0
 13 14  1  0
 14 15  2  0
 14 16  2  0
 14 17  1  0
 17 18  1  0
 18 19  1  0
 19 20  1  0
 20 21  1  0
 21 22  1  0
 13 23  1  0
 23 24  1  0
  6 25  1  0
 25 26  1  1
 26 27  1  0
 27 28  2  0
 28 29  1  0
 29 30  2  0
 30 31  1  0
 31 32  2  0
 25  4  1  0
 32 27  1  0
 24 10  1  0
 22 17  1  0
M  END
>  <energy_score>  (2918) 
-65.043572

>  <inchikey>  (2918) 
None

>  <smiles>  (2918) 
None

>  <ref_pdb>  (2918) 
A4706a

>  <alias>  (2918) 
None

>  <HIPPO Pose ID>  (2918) 
500562

>  <name>  (2918) 
P500562

>  <HIPPO Compound ID>  (2918) 
314998

>  <ref_mols>  (2918) 
A4706a,A0875a

>  <distance_score>  (2918) 
1.833265

>  <inspiration_score>  (2918) 
None

$$$$
P500563
     RDKit          3D

 25 26  0  0  0  0  0  0  0  0999 V2000
    8.3864   17.0226   20.9782 C   0  0  0  0  0  0  0  0  0  0  0  0
    8.9735   15.6289   20.9553 C   0  0  2  0  0  0  0  0  0  0  0  0
    8.8219   14.9940   22.2326 N   0  0  0  0  0  0  0  0  0  0  0  0
    7.6283   14.1941   22.8273 C   0  0  0  0  0  0  0  0  0  0  0  0
    6.6213   13.8666   22.3398 O   0  0  0  0  0  0  0  0  0  0  0  0
    8.1367   13.8287   24.2282 C   0  0  0  0  0  0  0  0  0  0  0  0
    7.2407   13.4279   25.3971 C   0  0  0  0  0  0  0  0  0  0  0  0
    7.8933   13.9905   26.5778 O   0  0  0  0  0  0  0  0  0  0  0  0
    7.2382   11.9057   25.6084 C   0  0  0  0  0  0  0  0  0  0  0  0
    6.1991   11.4389   26.6292 C   0  0  0  0  0  0  0  0  0  0  0  0
    5.6653   12.5457   27.4305 N   0  0  0  0  0  0  0  0  0  0  0  0
    4.7300   12.0400   28.4359 C   0  0  0  0  0  0  0  0  0  0  0  0
    4.9835   13.5267   26.5575 C   0  0  0  0  0  0  0  0  0  0  0  0
    5.8443   14.0314   25.3881 C   0  0  0  0  0  0  0  0  0  0  0  0
   10.4412   15.7085   20.4726 C   0  0  0  0  0  0  0  0  0  0  0  0
   10.9960   14.4021   20.0219 C   0  0  0  0  0  0  0  0  0  0  0  0
   11.1266   13.5210   21.2462 C   0  0  0  0  0  0  0  0  0  0  0  0
   11.1457   14.0781   22.5842 N   0  0  0  0  0  0  0  0  0  0  0  0
   11.5981   13.0273   23.4583 C   0  0  0  0  0  0  0  0  0  0  0  0
   11.6146   13.2591   24.9228 C   0  0  0  0  0  0  0  0  0  0  0  0
   12.5388   12.3916   25.3916 F   0  0  0  0  0  0  0  0  0  0  0  0
   11.9914   14.4834   25.3063 F   0  0  0  0  0  0  0  0  0  0  0  0
   10.4335   12.9929   25.4966 F   0  0  0  0  0  0  0  0  0  0  0  0
   11.8575   15.3085   22.6537 C   0  0  0  0  0  0  0  0  0  0  0  0
   11.5480   16.1631   21.4559 C   0  0  0  0  0  0  0  0  0  0  0  0
  2  1  1  1
  2  3  1  0
  3  4  1  0
  4  5  2  0
  4  6  1  0
  6  7  1  0
  7  8  1  0
  7  9  1  0
  9 10  1  0
 10 11  1  0
 11 12  1  0
 11 13  1  0
 13 14  1  0
  2 15  1  0
 15 16  1  0
 16 17  1  0
 17 18  1  0
 18 19  1  0
 19 20  1  0
 20 21  1  0
 20 22  1  0
 20 23  1  0
 18 24  1  0
 24 25  1  0
 14  7  1  0
 25 15  1  0
M  END
>  <energy_score>  (2919) 
-1.160418

>  <inchikey>  (2919) 
None

>  <smiles>  (2919) 
None

>  <ref_pdb>  (2919) 
A4320a

>  <alias>  (2919) 
None

>  <HIPPO Pose ID>  (2919) 
500563

>  <name>  (2919) 
P500563

>  <HIPPO Compound ID>  (2919) 
315067

>  <ref_mols>  (2919) 
A0875a,A4320a

>  <distance_score>  (2919) 
1.501425

>  <inspiration_score>  (2919) 
None

$$$$
P500564
     RDKit          3D

 25 26  0  0  0  0  0  0  0  0999 V2000
    2.8614   12.2137   28.4091 C   0  0  0  0  0  0  0  0  0  0  0  0
    4.2731   12.2584   28.5636 O   0  0  0  0  0  0  0  0  0  0  0  0
    4.8873   12.3349   27.2437 N   0  0  0  0  0  0  0  0  0  0  0  0
    6.0406   11.4341   27.3250 C   0  0  0  0  0  0  0  0  0  0  0  0
    6.9881   11.5950   26.1400 C   0  0  0  0  0  0  0  0  0  0  0  0
    7.3974   13.0616   25.9664 C   0  0  0  0  0  0  0  0  0  0  0  0
    8.4167   13.2666   24.8450 C   0  0  0  0  0  0  0  0  0  0  0  0
    7.8422   13.2863   23.4476 C   0  0  0  0  0  0  0  0  0  0  0  0
    6.8987   12.6735   23.2119 O   0  0  0  0  0  0  0  0  0  0  0  0
    8.6223   14.2515   22.5880 N   0  0  0  0  0  0  0  0  0  0  0  0
    8.3569   14.7494   21.2726 C   0  0  1  0  0  0  0  0  0  0  0  0
    7.2521   15.7590   21.5956 C   0  0  0  0  0  0  0  0  0  0  0  0
    9.5385   15.3395   20.4441 C   0  0  0  0  0  0  0  0  0  0  0  0
   10.6664   14.3995   20.0609 C   0  0  0  0  0  0  0  0  0  0  0  0
   11.2342   13.7298   21.3228 C   0  0  0  0  0  0  0  0  0  0  0  0
   11.2177   14.6696   22.4385 N   0  0  0  0  0  0  0  0  0  0  0  0
   11.9751   14.3013   23.6075 C   0  0  0  0  0  0  0  0  0  0  0  0
   11.6131   13.0752   24.4173 C   0  0  0  0  0  0  0  0  0  0  0  0
   10.9737   13.4800   25.5491 F   0  0  0  0  0  0  0  0  0  0  0  0
   10.8098   12.2114   23.7904 F   0  0  0  0  0  0  0  0  0  0  0  0
   12.7164   12.4169   24.8105 F   0  0  0  0  0  0  0  0  0  0  0  0
   11.5011   15.9813   21.9072 C   0  0  0  0  0  0  0  0  0  0  0  0
   10.1955   16.4400   21.2329 C   0  0  0  0  0  0  0  0  0  0  0  0
    6.1680   13.9621   25.8763 C   0  0  0  0  0  0  0  0  0  0  0  0
    5.2936   13.7417   27.1052 C   0  0  0  0  0  0  0  0  0  0  0  0
  1  2  1  0
  2  3  1  0
  3  4  1  0
  4  5  1  0
  5  6  1  0
  6  7  1  0
  7  8  1  0
  8  9  2  0
  8 10  1  0
 10 11  1  0
 11 12  1  1
 11 13  1  0
 13 14  1  0
 14 15  1  0
 15 16  1  0
 16 17  1  0
 17 18  1  0
 18 19  1  0
 18 20  1  0
 18 21  1  0
 16 22  1  0
 22 23  1  0
  6 24  1  0
 24 25  1  0
 25  3  1  0
 23 13  1  0
M  END
>  <energy_score>  (2920) 
-18.775324

>  <inchikey>  (2920) 
None

>  <smiles>  (2920) 
None

>  <ref_pdb>  (2920) 
A4320a

>  <alias>  (2920) 
None

>  <HIPPO Pose ID>  (2920) 
500564

>  <name>  (2920) 
P500564

>  <HIPPO Compound ID>  (2920) 
315068

>  <ref_mols>  (2920) 
A4320a,A0875a

>  <distance_score>  (2920) 
1.412846

>  <inspiration_score>  (2920) 
None

$$$$
P500565
     RDKit          3D

 25 26  0  0  0  0  0  0  0  0999 V2000
    7.1379   15.9399   21.7237 C   0  0  0  0  0  0  0  0  0  0  0  0
    7.9803   14.7371   21.3448 C   0  0  2  0  0  0  0  0  0  0  0  0
    8.0193   13.8941   22.5044 N   0  0  0  0  0  0  0  0  0  0  0  0
    7.0024   13.7297   23.6632 C   0  0  0  0  0  0  0  0  0  0  0  0
    5.9464   14.1961   23.8112 O   0  0  0  0  0  0  0  0  0  0  0  0
    7.7485   12.8589   24.6868 C   0  0  2  0  0  0  0  0  0  0  0  0
    8.4430   11.7664   24.0911 O   0  0  0  0  0  0  0  0  0  0  0  0
    7.0807   12.5362   26.0211 C   0  0  0  0  0  0  0  0  0  0  0  0
    6.7974   11.0579   26.2525 C   0  0  0  0  0  0  0  0  0  0  0  0
    5.7370   10.8193   27.3187 C   0  0  0  0  0  0  0  0  0  0  0  0
    5.7631   11.8350   28.3655 N   0  0  0  0  0  0  0  0  0  0  0  0
    4.7998   11.5026   29.4106 C   0  0  0  0  0  0  0  0  0  0  0  0
    5.4700   13.1817   27.8451 C   0  0  0  0  0  0  0  0  0  0  0  0
    5.8767   13.3943   26.3911 C   0  0  0  0  0  0  0  0  0  0  0  0
    9.3186   15.1201   20.6441 C   0  0  0  0  0  0  0  0  0  0  0  0
   10.2758   14.0016   20.4620 C   0  0  0  0  0  0  0  0  0  0  0  0
   11.1818   13.6001   21.6246 C   0  0  0  0  0  0  0  0  0  0  0  0
   11.6366   14.7028   22.4440 N   0  0  0  0  0  0  0  0  0  0  0  0
   10.9331   14.8371   23.7079 C   0  0  0  0  0  0  0  0  0  0  0  0
   11.1010   13.8418   24.8322 C   0  0  0  0  0  0  0  0  0  0  0  0
   10.6854   12.6120   24.5285 F   0  0  0  0  0  0  0  0  0  0  0  0
   10.3752   14.2672   25.9025 F   0  0  0  0  0  0  0  0  0  0  0  0
   12.3795   13.7558   25.2387 F   0  0  0  0  0  0  0  0  0  0  0  0
   11.5121   15.9104   21.6374 C   0  0  0  0  0  0  0  0  0  0  0  0
   10.0869   16.2648   21.2009 C   0  0  0  0  0  0  0  0  0  0  0  0
  2  1  1  1
  2  3  1  0
  3  4  1  0
  4  5  2  0
  4  6  1  0
  6  7  1  6
  6  8  1  0
  8  9  1  0
  9 10  1  0
 10 11  1  0
 11 12  1  0
 11 13  1  0
 13 14  1  0
  2 15  1  0
 15 16  1  0
 16 17  1  0
 17 18  1  0
 18 19  1  0
 19 20  1  0
 20 21  1  0
 20 22  1  0
 20 23  1  0
 18 24  1  0
 24 25  1  0
 14  8  1  0
 25 15  1  0
M  END
>  <energy_score>  (2921) 
-2.825273

>  <inchikey>  (2921) 
None

>  <smiles>  (2921) 
None

>  <ref_pdb>  (2921) 
A4320a

>  <alias>  (2921) 
None

>  <HIPPO Pose ID>  (2921) 
500565

>  <name>  (2921) 
P500565

>  <HIPPO Compound ID>  (2921) 
315069

>  <ref_mols>  (2921) 
A0875a,A4320a

>  <distance_score>  (2921) 
1.749269

>  <inspiration_score>  (2921) 
None

$$$$
P500566
     RDKit          3D

 25 26  0  0  0  0  0  0  0  0999 V2000
    7.2182   15.7766   21.5799 C   0  0  0  0  0  0  0  0  0  0  0  0
    8.2204   14.6656   21.1887 C   0  0  2  0  0  0  0  0  0  0  0  0
    8.2975   13.9359   22.4383 N   0  0  0  0  0  0  0  0  0  0  0  0
    7.2210   13.7041   23.5414 C   0  0  0  0  0  0  0  0  0  0  0  0
    6.0934   14.0005   23.5699 O   0  0  0  0  0  0  0  0  0  0  0  0
    7.9026   13.0627   24.7667 C   0  0  1  0  0  0  0  0  0  0  0  0
    8.8179   14.0977   25.1871 O   0  0  0  0  0  0  0  0  0  0  0  0
    7.0831   12.7464   26.0328 C   0  0  0  0  0  0  0  0  0  0  0  0
    6.8091   11.2544   26.1924 C   0  0  0  0  0  0  0  0  0  0  0  0
    5.9706   10.9482   27.4337 C   0  0  0  0  0  0  0  0  0  0  0  0
    4.7691   11.7781   27.5313 N   0  0  0  0  0  0  0  0  0  0  0  0
    4.0164   11.4534   28.7355 C   0  0  0  0  0  0  0  0  0  0  0  0
    5.1035   13.2067   27.5189 C   0  0  0  0  0  0  0  0  0  0  0  0
    5.8001   13.5619   26.2170 C   0  0  0  0  0  0  0  0  0  0  0  0
    9.4607   15.3493   20.5026 C   0  0  0  0  0  0  0  0  0  0  0  0
   10.6227   14.6319   19.8115 C   0  0  0  0  0  0  0  0  0  0  0  0
   11.7803   14.3094   20.7454 C   0  0  0  0  0  0  0  0  0  0  0  0
   11.2309   14.1535   22.0949 N   0  0  0  0  0  0  0  0  0  0  0  0
   12.1595   13.5605   23.0395 C   0  0  0  0  0  0  0  0  0  0  0  0
   11.6077   13.0438   24.3545 C   0  0  0  0  0  0  0  0  0  0  0  0
   11.2413   14.0363   25.1879 F   0  0  0  0  0  0  0  0  0  0  0  0
   12.5708   12.3431   24.9927 F   0  0  0  0  0  0  0  0  0  0  0  0
   10.5766   12.2015   24.1685 F   0  0  0  0  0  0  0  0  0  0  0  0
   10.8464   15.4674   22.5715 C   0  0  0  0  0  0  0  0  0  0  0  0
   10.0929   16.2435   21.5082 C   0  0  0  0  0  0  0  0  0  0  0  0
  2  1  1  1
  2  3  1  0
  3  4  1  0
  4  5  2  0
  4  6  1  0
  6  7  1  1
  6  8  1  0
  8  9  1  0
  9 10  1  0
 10 11  1  0
 11 12  1  0
 11 13  1  0
 13 14  1  0
  2 15  1  0
 15 16  1  0
 16 17  1  0
 17 18  1  0
 18 19  1  0
 19 20  1  0
 20 21  1  0
 20 22  1  0
 20 23  1  0
 18 24  1  0
 24 25  1  0
 14  8  1  0
 25 15  1  0
M  END
>  <energy_score>  (2922) 
-17.36171

>  <inchikey>  (2922) 
None

>  <smiles>  (2922) 
None

>  <ref_pdb>  (2922) 
A4320a

>  <alias>  (2922) 
None

>  <HIPPO Pose ID>  (2922) 
500566

>  <name>  (2922) 
P500566

>  <HIPPO Compound ID>  (2922) 
315069

>  <ref_mols>  (2922) 
A0875a,A4320a

>  <distance_score>  (2922) 
1.666056

>  <inspiration_score>  (2922) 
None

$$$$
P500567
     RDKit          3D

 25 26  0  0  0  0  0  0  0  0999 V2000
    3.8187   12.8118   29.0935 C   0  0  0  0  0  0  0  0  0  0  0  0
    4.6598   11.8175   28.3047 C   0  0  0  0  0  0  0  0  0  0  0  0
    5.6098   12.4232   27.3564 N   0  0  0  0  0  0  0  0  0  0  0  0
    6.2485   11.3589   26.5682 C   0  0  0  0  0  0  0  0  0  0  0  0
    7.2543   11.8552   25.5295 C   0  0  0  0  0  0  0  0  0  0  0  0
    7.2242   13.3675   25.3467 C   0  0  0  0  0  0  0  0  0  0  0  0
    8.0905   13.8722   24.2086 C   0  0  0  0  0  0  0  0  0  0  0  0
    7.6942   14.0767   22.7437 C   0  0  0  0  0  0  0  0  0  0  0  0
    6.7951   13.5878   22.1815 O   0  0  0  0  0  0  0  0  0  0  0  0
    8.8410   14.9957   22.2122 N   0  0  0  0  0  0  0  0  0  0  0  0
    9.0507   15.5672   20.9105 C   0  0  1  0  0  0  0  0  0  0  0  0
    8.5023   16.9838   20.8685 C   0  0  0  0  0  0  0  0  0  0  0  0
   10.5303   15.6014   20.4625 C   0  0  0  0  0  0  0  0  0  0  0  0
   11.0870   14.2711   20.0955 C   0  0  0  0  0  0  0  0  0  0  0  0
   11.2038   13.4220   21.3545 C   0  0  0  0  0  0  0  0  0  0  0  0
   11.2387   14.0660   22.6376 N   0  0  0  0  0  0  0  0  0  0  0  0
   11.5804   13.1241   23.6711 C   0  0  0  0  0  0  0  0  0  0  0  0
   11.2312   13.6040   25.0439 C   0  0  0  0  0  0  0  0  0  0  0  0
   10.4784   12.6707   25.6410 F   0  0  0  0  0  0  0  0  0  0  0  0
   12.3554   13.8099   25.7465 F   0  0  0  0  0  0  0  0  0  0  0  0
   10.5263   14.7411   25.1066 F   0  0  0  0  0  0  0  0  0  0  0  0
   11.9322   15.3022   22.6486 C   0  0  0  0  0  0  0  0  0  0  0  0
   11.6047   16.1185   21.4349 C   0  0  0  0  0  0  0  0  0  0  0  0
    5.8372   13.9722   25.3588 C   0  0  0  0  0  0  0  0  0  0  0  0
    4.9610   13.4140   26.4801 C   0  0  0  0  0  0  0  0  0  0  0  0
  1  2  1  0
  2  3  1  0
  3  4  1  0
  4  5  1  0
  5  6  1  0
  6  7  1  0
  7  8  1  0
  8  9  2  0
  8 10  1  0
 10 11  1  0
 11 12  1  1
 11 13  1  0
 13 14  1  0
 14 15  1  0
 15 16  1  0
 16 17  1  0
 17 18  1  0
 18 19  1  0
 18 20  1  0
 18 21  1  0
 16 22  1  0
 22 23  1  0
  6 24  1  0
 24 25  1  0
 25  3  1  0
 23 13  1  0
M  END
>  <energy_score>  (2923) 
-0.867145

>  <inchikey>  (2923) 
None

>  <smiles>  (2923) 
None

>  <ref_pdb>  (2923) 
A4320a

>  <alias>  (2923) 
None

>  <HIPPO Pose ID>  (2923) 
500567

>  <name>  (2923) 
P500567

>  <HIPPO Compound ID>  (2923) 
315071

>  <ref_mols>  (2923) 
A4320a,A0875a

>  <distance_score>  (2923) 
1.392191

>  <inspiration_score>  (2923) 
None

$$$$
P500568
     RDKit          3D

 26 27  0  0  0  0  0  0  0  0999 V2000
    3.1899   12.4521   28.4965 C   0  0  0  0  0  0  0  0  0  0  0  0
    4.6810   12.0847   28.4398 C   0  0  0  0  0  0  0  0  0  0  0  0
    4.8128   10.6138   28.8757 C   0  0  0  0  0  0  0  0  0  0  0  0
    5.2508   12.3523   27.0968 N   0  0  0  0  0  0  0  0  0  0  0  0
    6.6280   11.8704   26.9639 C   0  0  0  0  0  0  0  0  0  0  0  0
    7.2001   12.0784   25.5682 C   0  0  0  0  0  0  0  0  0  0  0  0
    7.0618   13.5126   25.0283 C   0  0  0  0  0  0  0  0  0  0  0  0
    7.3481   13.5077   23.5127 C   0  0  0  0  0  0  0  0  0  0  0  0
    7.4792   14.8362   22.7811 C   0  0  0  0  0  0  0  0  0  0  0  0
    6.8591   15.7845   23.0620 O   0  0  0  0  0  0  0  0  0  0  0  0
    8.5787   14.6333   21.6905 N   0  0  0  0  0  0  0  0  0  0  0  0
    9.0676   15.5413   20.6587 C   0  0  1  0  0  0  0  0  0  0  0  0
    8.5504   16.9709   20.7642 C   0  0  0  0  0  0  0  0  0  0  0  0
   10.5916   15.5809   20.3847 C   0  0  0  0  0  0  0  0  0  0  0  0
   11.3084   14.3106   20.0592 C   0  0  0  0  0  0  0  0  0  0  0  0
   11.4869   13.4644   21.3188 C   0  0  0  0  0  0  0  0  0  0  0  0
   11.8638   14.0682   22.5926 N   0  0  0  0  0  0  0  0  0  0  0  0
   11.5436   13.1364   23.6825 C   0  0  0  0  0  0  0  0  0  0  0  0
   10.8573   13.6322   24.9364 C   0  0  0  0  0  0  0  0  0  0  0  0
    9.8123   14.4440   24.7498 F   0  0  0  0  0  0  0  0  0  0  0  0
   11.7265   14.2557   25.7538 F   0  0  0  0  0  0  0  0  0  0  0  0
   10.3522   12.5673   25.5751 F   0  0  0  0  0  0  0  0  0  0  0  0
   11.2760   15.3710   22.7480 C   0  0  0  0  0  0  0  0  0  0  0  0
   11.4491   16.1585   21.4949 C   0  0  0  0  0  0  0  0  0  0  0  0
    5.6866   14.0928   25.3541 C   0  0  0  0  0  0  0  0  0  0  0  0
    5.2266   13.7947   26.7778 C   0  0  0  0  0  0  0  0  0  0  0  0
  1  2  1  0
  2  3  1  0
  2  4  1  0
  4  5  1  0
  5  6  1  0
  6  7  1  0
  7  8  1  0
  8  9  1  0
  9 10  2  0
  9 11  1  0
 11 12  1  0
 12 13  1  1
 12 14  1  0
 14 15  1  0
 15 16  1  0
 16 17  1  0
 17 18  1  0
 18 19  1  0
 19 20  1  0
 19 21  1  0
 19 22  1  0
 17 23  1  0
 23 24  1  0
  7 25  1  0
 25 26  1  0
 26  4  1  0
 24 14  1  0
M  END
>  <energy_score>  (2924) 
-31.814534

>  <inchikey>  (2924) 
None

>  <smiles>  (2924) 
None

>  <ref_pdb>  (2924) 
A4320a

>  <alias>  (2924) 
None

>  <HIPPO Pose ID>  (2924) 
500568

>  <name>  (2924) 
P500568

>  <HIPPO Compound ID>  (2924) 
315074

>  <ref_mols>  (2924) 
A0875a,A4320a

>  <distance_score>  (2924) 
1.672133

>  <inspiration_score>  (2924) 
None

$$$$
P500569
     RDKit          3D

 26 27  0  0  0  0  0  0  0  0999 V2000
    3.2842   12.1927   28.5834 C   0  0  0  0  0  0  0  0  0  0  0  0
    4.7176   11.7866   28.9483 C   0  0  0  0  0  0  0  0  0  0  0  0
    5.0661   12.3142   30.3467 C   0  0  0  0  0  0  0  0  0  0  0  0
    5.7721   12.2044   28.0036 N   0  0  0  0  0  0  0  0  0  0  0  0
    5.9150   11.2376   26.9074 C   0  0  0  0  0  0  0  0  0  0  0  0
    7.0516   11.6005   25.9617 C   0  0  0  0  0  0  0  0  0  0  0  0
    6.8972   13.0254   25.4304 C   0  0  0  0  0  0  0  0  0  0  0  0
    8.1030   13.4302   24.6031 C   0  0  0  0  0  0  0  0  0  0  0  0
    7.8078   13.8153   23.1824 C   0  0  0  0  0  0  0  0  0  0  0  0
    6.9213   13.3572   22.5711 O   0  0  0  0  0  0  0  0  0  0  0  0
    8.9409   14.7986   22.7409 N   0  0  0  0  0  0  0  0  0  0  0  0
    9.1503   15.4854   21.4871 C   0  0  2  0  0  0  0  0  0  0  0  0
    8.2884   14.7279   20.5521 C   0  0  0  0  0  0  0  0  0  0  0  0
   10.5499   15.5470   20.8058 C   0  0  0  0  0  0  0  0  0  0  0  0
   11.1108   14.2304   20.3422 C   0  0  0  0  0  0  0  0  0  0  0  0
   11.3260   13.3246   21.5571 C   0  0  0  0  0  0  0  0  0  0  0  0
   11.4663   13.9987   22.8169 N   0  0  0  0  0  0  0  0  0  0  0  0
   11.7522   13.1791   23.9665 C   0  0  0  0  0  0  0  0  0  0  0  0
   11.2318   13.8058   25.2423 C   0  0  0  0  0  0  0  0  0  0  0  0
   10.3712   12.9689   25.8284 F   0  0  0  0  0  0  0  0  0  0  0  0
   12.2091   14.1046   26.0991 F   0  0  0  0  0  0  0  0  0  0  0  0
   10.5547   14.9453   25.0685 F   0  0  0  0  0  0  0  0  0  0  0  0
   12.0728   15.2831   22.7756 C   0  0  0  0  0  0  0  0  0  0  0  0
   11.7203   16.0899   21.5767 C   0  0  0  0  0  0  0  0  0  0  0  0
    6.7288   13.9924   26.6028 C   0  0  0  0  0  0  0  0  0  0  0  0
    5.5640   13.5644   27.4790 C   0  0  0  0  0  0  0  0  0  0  0  0
  1  2  1  0
  2  3  1  0
  2  4  1  0
  4  5  1  0
  5  6  1  0
  6  7  1  0
  7  8  1  0
  8  9  1  0
  9 10  2  0
  9 11  1  0
 11 12  1  0
 12 13  1  6
 12 14  1  0
 14 15  1  0
 15 16  1  0
 16 17  1  0
 17 18  1  0
 18 19  1  0
 19 20  1  0
 19 21  1  0
 19 22  1  0
 17 23  1  0
 23 24  1  0
  7 25  1  0
 25 26  1  0
 26  4  1  0
 24 14  1  0
M  END
>  <energy_score>  (2925) 
-4.138762

>  <inchikey>  (2925) 
None

>  <smiles>  (2925) 
None

>  <ref_pdb>  (2925) 
A4320a

>  <alias>  (2925) 
None

>  <HIPPO Pose ID>  (2925) 
500569

>  <name>  (2925) 
P500569

>  <HIPPO Compound ID>  (2925) 
315074

>  <ref_mols>  (2925) 
A0875a,A4320a

>  <distance_score>  (2925) 
1.393585

>  <inspiration_score>  (2925) 
None

$$$$
P500570
     RDKit          3D

 26 27  0  0  0  0  0  0  0  0999 V2000
    2.7725   12.7629   28.3152 C   0  0  0  0  0  0  0  0  0  0  0  0
    4.1893   12.2223   28.4169 C   0  0  0  0  0  0  0  0  0  0  0  0
    4.9421   12.3492   27.1649 N   0  0  0  0  0  0  0  0  0  0  0  0
    6.1987   11.6128   27.2864 C   0  0  0  0  0  0  0  0  0  0  0  0
    6.9986   11.6482   25.9974 C   0  0  0  0  0  0  0  0  0  0  0  0
    7.2588   13.0802   25.5083 C   0  0  0  0  0  0  0  0  0  0  0  0
    8.1335   13.2024   24.2376 C   0  0  1  0  0  0  0  0  0  0  0  0
    8.8732   11.9045   23.9125 C   0  0  0  0  0  0  0  0  0  0  0  0
    7.6033   13.7843   22.9002 C   0  0  0  0  0  0  0  0  0  0  0  0
    6.6353   13.4038   22.3716 O   0  0  0  0  0  0  0  0  0  0  0  0
    8.6599   14.8294   22.4376 N   0  0  0  0  0  0  0  0  0  0  0  0
    8.7863   15.5435   21.1920 C   0  0  1  0  0  0  0  0  0  0  0  0
    8.2917   16.9671   21.2437 C   0  0  0  0  0  0  0  0  0  0  0  0
   10.2078   15.4660   20.6175 C   0  0  0  0  0  0  0  0  0  0  0  0
   10.5962   14.0351   20.4639 C   0  0  0  0  0  0  0  0  0  0  0  0
   11.3308   13.4106   21.6649 C   0  0  0  0  0  0  0  0  0  0  0  0
   11.2036   14.1770   22.8968 N   0  0  0  0  0  0  0  0  0  0  0  0
   11.8371   13.5484   24.0540 C   0  0  0  0  0  0  0  0  0  0  0  0
   11.4605   14.1778   25.3938 C   0  0  0  0  0  0  0  0  0  0  0  0
   12.4678   13.9909   26.2489 F   0  0  0  0  0  0  0  0  0  0  0  0
   11.2809   15.5040   25.4024 F   0  0  0  0  0  0  0  0  0  0  0  0
   10.3593   13.6271   25.9232 F   0  0  0  0  0  0  0  0  0  0  0  0
   11.8231   15.4496   22.6427 C   0  0  0  0  0  0  0  0  0  0  0  0
   11.3766   16.0715   21.3628 C   0  0  0  0  0  0  0  0  0  0  0  0
    5.9806   13.9084   25.4939 C   0  0  0  0  0  0  0  0  0  0  0  0
    5.1946   13.7557   26.8010 C   0  0  0  0  0  0  0  0  0  0  0  0
  1  2  1  0
  2  3  1  0
  3  4  1  0
  4  5  1  0
  5  6  1  0
  6  7  1  0
  7  8  1  6
  7  9  1  0
  9 10  2  0
  9 11  1  0
 11 12  1  0
 12 13  1  1
 12 14  1  0
 14 15  1  0
 15 16  1  0
 16 17  1  0
 17 18  1  0
 18 19  1  0
 19 20  1  0
 19 21  1  0
 19 22  1  0
 17 23  1  0
 23 24  1  0
  6 25  1  0
 25 26  1  0
 26  3  1  0
 24 14  1  0
M  END
>  <energy_score>  (2926) 
-18.044522

>  <inchikey>  (2926) 
None

>  <smiles>  (2926) 
None

>  <ref_pdb>  (2926) 
A4320a

>  <alias>  (2926) 
None

>  <HIPPO Pose ID>  (2926) 
500570

>  <name>  (2926) 
P500570

>  <HIPPO Compound ID>  (2926) 
315076

>  <ref_mols>  (2926) 
A4320a,A0875a

>  <distance_score>  (2926) 
1.392332

>  <inspiration_score>  (2926) 
None

$$$$
P500571
     RDKit          3D

 26 27  0  0  0  0  0  0  0  0999 V2000
    2.5447   13.7049   28.2181 C   0  0  0  0  0  0  0  0  0  0  0  0
    3.5896   12.8617   28.9300 C   0  0  0  0  0  0  0  0  0  0  0  0
    4.1745   11.9751   27.9812 O   0  0  0  0  0  0  0  0  0  0  0  0
    5.5739   12.3206   27.6982 N   0  0  0  0  0  0  0  0  0  0  0  0
    6.0233   11.1251   26.9642 C   0  0  0  0  0  0  0  0  0  0  0  0
    7.2500   11.3259   26.0878 C   0  0  0  0  0  0  0  0  0  0  0  0
    7.1203   12.5772   25.2435 C   0  0  0  0  0  0  0  0  0  0  0  0
    8.3101   12.7814   24.3432 C   0  0  0  0  0  0  0  0  0  0  0  0
    7.8891   13.4540   23.0590 C   0  0  0  0  0  0  0  0  0  0  0  0
    7.0418   13.0161   22.3957 O   0  0  0  0  0  0  0  0  0  0  0  0
    8.7077   14.7380   22.9037 N   0  0  0  0  0  0  0  0  0  0  0  0
    8.7249   15.7078   21.8520 C   0  0  2  0  0  0  0  0  0  0  0  0
    7.2993   15.9596   21.5369 C   0  0  0  0  0  0  0  0  0  0  0  0
    9.7003   15.4463   20.7355 C   0  0  0  0  0  0  0  0  0  0  0  0
    9.9976   14.0168   20.5325 C   0  0  0  0  0  0  0  0  0  0  0  0
   10.9968   13.4422   21.5366 C   0  0  0  0  0  0  0  0  0  0  0  0
   11.2962   14.2865   22.6929 N   0  0  0  0  0  0  0  0  0  0  0  0
   12.2560   13.6031   23.5263 C   0  0  0  0  0  0  0  0  0  0  0  0
   11.6493   12.7693   24.5886 C   0  0  0  0  0  0  0  0  0  0  0  0
   12.6547   12.1970   25.2716 F   0  0  0  0  0  0  0  0  0  0  0  0
   10.9329   13.5130   25.4559 F   0  0  0  0  0  0  0  0  0  0  0  0
   10.8807   11.7969   24.0679 F   0  0  0  0  0  0  0  0  0  0  0  0
   11.8508   15.5169   22.2109 C   0  0  0  0  0  0  0  0  0  0  0  0
   11.0504   16.0378   21.0545 C   0  0  0  0  0  0  0  0  0  0  0  0
    6.8322   13.7803   26.1232 C   0  0  0  0  0  0  0  0  0  0  0  0
    5.5143   13.5146   26.8312 C   0  0  0  0  0  0  0  0  0  0  0  0
  1  2  1  0
  2  3  1  0
  3  4  1  0
  4  5  1  0
  5  6  1  0
  6  7  1  0
  7  8  1  0
  8  9  1  0
  9 10  2  0
  9 11  1  0
 11 12  1  0
 12 13  1  6
 12 14  1  0
 14 15  1  0
 15 16  1  0
 16 17  1  0
 17 18  1  0
 18 19  1  0
 19 20  1  0
 19 21  1  0
 19 22  1  0
 17 23  1  0
 23 24  1  0
  7 25  1  0
 25 26  1  0
 26  4  1  0
 24 14  1  0
M  END
>  <energy_score>  (2927) 
-21.197511

>  <inchikey>  (2927) 
None

>  <smiles>  (2927) 
None

>  <ref_pdb>  (2927) 
A4320a

>  <alias>  (2927) 
None

>  <HIPPO Pose ID>  (2927) 
500571

>  <name>  (2927) 
P500571

>  <HIPPO Compound ID>  (2927) 
315077

>  <ref_mols>  (2927) 
A0875a,A4320a

>  <distance_score>  (2927) 
1.292786

>  <inspiration_score>  (2927) 
None

$$$$
P500572
     RDKit          3D

 27 28  0  0  0  0  0  0  0  0999 V2000
    8.6905   17.1090   20.6300 C   0  0  0  0  0  0  0  0  0  0  0  0
    9.1115   15.6540   20.8346 C   0  0  2  0  0  0  0  0  0  0  0  0
    8.7034   15.2259   22.1473 N   0  0  0  0  0  0  0  0  0  0  0  0
    7.3879   14.5309   22.6238 C   0  0  0  0  0  0  0  0  0  0  0  0
    6.4759   14.1343   22.0093 O   0  0  0  0  0  0  0  0  0  0  0  0
    7.4706   14.5569   24.1696 C   0  0  0  0  0  0  0  0  0  0  0  0
    6.4389   13.7906   25.0085 C   0  0  0  0  0  0  0  0  0  0  0  0
    6.9601   12.4473   25.5352 C   0  0  0  0  0  0  0  0  0  0  0  0
    6.0017   11.7531   26.4875 C   0  0  0  0  0  0  0  0  0  0  0  0
    5.6898   12.6521   27.6226 N   0  0  0  0  0  0  0  0  0  0  0  0
    4.7351   11.9148   28.8220 S   0  0  0  0  0  0  0  0  0  0  0  0
    5.2299   10.5774   29.0626 O   0  0  0  0  0  0  0  0  0  0  0  0
    4.5347   12.8577   29.8989 O   0  0  0  0  0  0  0  0  0  0  0  0
    3.3066   11.7408   28.1446 F   0  0  0  0  0  0  0  0  0  0  0  0
    5.1033   13.9360   27.1535 C   0  0  0  0  0  0  0  0  0  0  0  0
    6.0742   14.6497   26.2302 C   0  0  0  0  0  0  0  0  0  0  0  0
   10.6178   15.5596   20.5119 C   0  0  0  0  0  0  0  0  0  0  0  0
   11.0888   14.1804   20.2497 C   0  0  0  0  0  0  0  0  0  0  0  0
   11.0907   13.3755   21.5453 C   0  0  0  0  0  0  0  0  0  0  0  0
   11.0171   14.1117   22.7948 N   0  0  0  0  0  0  0  0  0  0  0  0
   11.1802   13.2382   23.9418 C   0  0  0  0  0  0  0  0  0  0  0  0
   10.0752   12.1867   24.0807 C   0  0  0  0  0  0  0  0  0  0  0  0
   10.5098   10.9461   23.8232 F   0  0  0  0  0  0  0  0  0  0  0  0
    8.9830   12.3893   23.3242 F   0  0  0  0  0  0  0  0  0  0  0  0
    9.6697   12.2331   25.3665 F   0  0  0  0  0  0  0  0  0  0  0  0
   11.8534   15.2612   22.7741 C   0  0  0  0  0  0  0  0  0  0  0  0
   11.6555   16.0710   21.5156 C   0  0  0  0  0  0  0  0  0  0  0  0
  2  1  1  1
  2  3  1  0
  3  4  1  0
  4  5  2  0
  4  6  1  0
  6  7  1  0
  7  8  1  0
  8  9  1  0
  9 10  1  0
 10 11  1  0
 11 12  2  0
 11 13  2  0
 11 14  1  0
 10 15  1  0
 15 16  1  0
  2 17  1  0
 17 18  1  0
 18 19  1  0
 19 20  1  0
 20 21  1  0
 21 22  1  0
 22 23  1  0
 22 24  1  0
 22 25  1  0
 20 26  1  0
 26 27  1  0
 16  7  1  0
 27 17  1  0
M  END
>  <energy_score>  (2928) 
-29.616

>  <inchikey>  (2928) 
None

>  <smiles>  (2928) 
None

>  <ref_pdb>  (2928) 
A4320a

>  <alias>  (2928) 
None

>  <HIPPO Pose ID>  (2928) 
500572

>  <name>  (2928) 
P500572

>  <HIPPO Compound ID>  (2928) 
315080

>  <ref_mols>  (2928) 
A0875a,A4320a

>  <distance_score>  (2928) 
1.791409

>  <inspiration_score>  (2928) 
None

$$$$
P500573
     RDKit          3D

 27 28  0  0  0  0  0  0  0  0999 V2000
    6.7286   14.5851   21.5820 C   0  0  0  0  0  0  0  0  0  0  0  0
    8.0025   15.3018   22.0432 C   0  0  1  0  0  0  0  0  0  0  0  0
    8.2715   14.5830   23.2494 N   0  0  0  0  0  0  0  0  0  0  0  0
    7.6591   14.7197   24.6471 C   0  0  0  0  0  0  0  0  0  0  0  0
    6.8933   15.4893   25.0625 O   0  0  0  0  0  0  0  0  0  0  0  0
    8.1568   13.5462   25.4622 C   0  0  0  0  0  0  0  0  0  0  0  0
    6.9016   12.9382   26.0768 C   0  0  0  0  0  0  0  0  0  0  0  0
    6.9276   11.4265   26.2674 C   0  0  0  0  0  0  0  0  0  0  0  0
    5.9859   10.9545   27.3808 C   0  0  0  0  0  0  0  0  0  0  0  0
    4.8359   11.8622   27.6035 N   0  0  0  0  0  0  0  0  0  0  0  0
    3.8101   11.3550   28.8548 S   0  0  0  0  0  0  0  0  0  0  0  0
    4.5012   11.5451   30.1111 O   0  0  0  0  0  0  0  0  0  0  0  0
    3.2160   10.0854   28.5026 O   0  0  0  0  0  0  0  0  0  0  0  0
    2.6250   12.4108   28.8351 F   0  0  0  0  0  0  0  0  0  0  0  0
    5.1469   13.3145   27.7277 C   0  0  0  0  0  0  0  0  0  0  0  0
    6.5842   13.6215   27.3936 C   0  0  0  0  0  0  0  0  0  0  0  0
    9.1361   15.3483   21.0015 C   0  0  0  0  0  0  0  0  0  0  0  0
    9.7458   14.0291   20.6612 C   0  0  0  0  0  0  0  0  0  0  0  0
   10.8069   13.5116   21.6083 C   0  0  0  0  0  0  0  0  0  0  0  0
   11.0797   14.4390   22.6889 N   0  0  0  0  0  0  0  0  0  0  0  0
   12.1718   13.9009   23.4938 C   0  0  0  0  0  0  0  0  0  0  0  0
   11.8571   13.7177   24.9557 C   0  0  0  0  0  0  0  0  0  0  0  0
   11.6258   14.8701   25.6174 F   0  0  0  0  0  0  0  0  0  0  0  0
   12.9247   13.1143   25.5356 F   0  0  0  0  0  0  0  0  0  0  0  0
   10.7854   12.9214   25.1379 F   0  0  0  0  0  0  0  0  0  0  0  0
   11.4631   15.6945   22.0510 C   0  0  0  0  0  0  0  0  0  0  0  0
   10.3361   16.2344   21.1692 C   0  0  0  0  0  0  0  0  0  0  0  0
  2  1  1  6
  2  3  1  0
  3  4  1  0
  4  5  2  0
  4  6  1  0
  6  7  1  0
  7  8  1  0
  8  9  1  0
  9 10  1  0
 10 11  1  0
 11 12  2  0
 11 13  2  0
 11 14  1  0
 10 15  1  0
 15 16  1  0
  2 17  1  0
 17 18  1  0
 18 19  1  0
 19 20  1  0
 20 21  1  0
 21 22  1  0
 22 23  1  0
 22 24  1  0
 22 25  1  0
 20 26  1  0
 26 27  1  0
 16  7  1  0
 27 17  1  0
M  END
>  <energy_score>  (2929) 
-14.109416

>  <inchikey>  (2929) 
None

>  <smiles>  (2929) 
None

>  <ref_pdb>  (2929) 
A4320a

>  <alias>  (2929) 
None

>  <HIPPO Pose ID>  (2929) 
500573

>  <name>  (2929) 
P500573

>  <HIPPO Compound ID>  (2929) 
315080

>  <ref_mols>  (2929) 
A4320a,A0875a

>  <distance_score>  (2929) 
1.885657

>  <inspiration_score>  (2929) 
None

$$$$
P500574
     RDKit          3D

 27 28  0  0  0  0  0  0  0  0999 V2000
    8.7250   17.5168   21.0713 C   0  0  0  0  0  0  0  0  0  0  0  0
    8.4090   16.0446   21.2173 C   0  0  2  0  0  0  0  0  0  0  0  0
    8.3104   15.4156   22.5054 N   0  0  0  0  0  0  0  0  0  0  0  0
    7.0654   14.9104   23.2899 C   0  0  0  0  0  0  0  0  0  0  0  0
    5.9292   14.9991   23.0420 O   0  0  0  0  0  0  0  0  0  0  0  0
    7.6615   14.1415   24.4673 C   0  0  0  0  0  0  0  0  0  0  0  0
    6.6469   13.4336   25.3564 C   0  0  0  0  0  0  0  0  0  0  0  0
    7.1578   12.0455   25.7786 C   0  0  0  0  0  0  0  0  0  0  0  0
    6.1970   11.3185   26.7150 C   0  0  0  0  0  0  0  0  0  0  0  0
    5.4072   12.2637   27.5291 N   0  0  0  0  0  0  0  0  0  0  0  0
    4.4996   11.5877   28.7764 S   0  0  0  0  0  0  0  0  0  0  0  0
    3.0994   12.6840   28.8008 C   0  0  0  0  0  0  0  0  0  0  0  0
    4.0215   10.2895   28.3510 O   0  0  0  0  0  0  0  0  0  0  0  0
    5.2559   11.7370   30.0012 O   0  0  0  0  0  0  0  0  0  0  0  0
    6.1125   13.5184   27.8352 C   0  0  0  0  0  0  0  0  0  0  0  0
    6.2853   14.3151   26.5558 C   0  0  0  0  0  0  0  0  0  0  0  0
    9.3082   15.1673   20.3426 C   0  0  0  0  0  0  0  0  0  0  0  0
    9.2637   13.7868   20.8908 C   0  0  0  0  0  0  0  0  0  0  0  0
   10.2665   13.4385   21.9557 C   0  0  0  0  0  0  0  0  0  0  0  0
   10.9635   14.5832   22.5267 N   0  0  0  0  0  0  0  0  0  0  0  0
   12.0148   14.0112   23.3598 C   0  0  0  0  0  0  0  0  0  0  0  0
   11.5414   13.3098   24.6100 C   0  0  0  0  0  0  0  0  0  0  0  0
   10.9661   12.1221   24.3429 F   0  0  0  0  0  0  0  0  0  0  0  0
   12.6266   13.0747   25.3774 F   0  0  0  0  0  0  0  0  0  0  0  0
   10.6663   14.0398   25.3347 F   0  0  0  0  0  0  0  0  0  0  0  0
   11.5604   15.4301   21.4721 C   0  0  0  0  0  0  0  0  0  0  0  0
   10.7873   15.3834   20.1616 C   0  0  0  0  0  0  0  0  0  0  0  0
  2  1  1  1
  2  3  1  0
  3  4  1  0
  4  5  2  0
  4  6  1  0
  6  7  1  0
  7  8  1  0
  8  9  1  0
  9 10  1  0
 10 11  1  0
 11 12  1  0
 11 13  2  0
 11 14  2  0
 10 15  1  0
 15 16  1  0
  2 17  1  0
 17 18  1  0
 18 19  1  0
 19 20  1  0
 20 21  1  0
 21 22  1  0
 22 23  1  0
 22 24  1  0
 22 25  1  0
 20 26  1  0
 26 27  1  0
 16  7  1  0
 27 17  1  0
M  END
>  <energy_score>  (2930) 
-18.840448

>  <inchikey>  (2930) 
None

>  <smiles>  (2930) 
None

>  <ref_pdb>  (2930) 
A4320a

>  <alias>  (2930) 
None

>  <HIPPO Pose ID>  (2930) 
500574

>  <name>  (2930) 
P500574

>  <HIPPO Compound ID>  (2930) 
315081

>  <ref_mols>  (2930) 
A0875a,A4320a

>  <distance_score>  (2930) 
1.68045

>  <inspiration_score>  (2930) 
None

$$$$
P500575
     RDKit          3D

 30 32  0  0  0  0  0  0  0  0999 V2000
    8.8492   17.2110   20.6726 C   0  0  0  0  0  0  0  0  0  0  0  0
    9.1780   15.7476   20.9007 C   0  0  2  0  0  0  0  0  0  0  0  0
    8.7775   15.2642   22.1898 N   0  0  0  0  0  0  0  0  0  0  0  0
    7.5885   14.3505   22.6003 C   0  0  0  0  0  0  0  0  0  0  0  0
    6.7128   13.9173   21.9622 O   0  0  0  0  0  0  0  0  0  0  0  0
    7.8571   14.0230   24.0734 C   0  0  0  0  0  0  0  0  0  0  0  0
    6.7859   13.2819   24.8150 C   0  0  0  0  0  0  0  0  0  0  0  0
    7.2640   12.4798   26.0224 C   0  0  0  0  0  0  0  0  0  0  0  0
    6.1041   11.6919   26.6250 C   0  0  0  0  0  0  0  0  0  0  0  0
    4.9122   12.5113   26.8819 N   0  0  0  0  0  0  0  0  0  0  0  0
    4.8734   13.1107   28.1480 C   0  0  0  0  0  0  0  0  0  0  0  0
    3.6372   13.5495   28.6174 C   0  0  0  0  0  0  0  0  0  0  0  0
    3.5924   14.3784   29.7172 C   0  0  0  0  0  0  0  0  0  0  0  0
    4.7905   14.6789   30.3235 C   0  0  0  0  0  0  0  0  0  0  0  0
    4.8571   15.7008   31.6979 Cl  0  0  0  0  0  0  0  0  0  0  0  0
    5.9754   14.1707   29.9354 N   0  0  0  0  0  0  0  0  0  0  0  0
    6.0103   13.3733   28.8363 N   0  0  0  0  0  0  0  0  0  0  0  0
    4.5297   13.5066   25.8522 C   0  0  0  0  0  0  0  0  0  0  0  0
    5.7053   14.2493   25.2586 C   0  0  0  0  0  0  0  0  0  0  0  0
   10.6387   15.4233   20.5705 C   0  0  0  0  0  0  0  0  0  0  0  0
   10.8593   13.9584   20.5611 C   0  0  0  0  0  0  0  0  0  0  0  0
   10.9411   13.2901   21.9349 C   0  0  0  0  0  0  0  0  0  0  0  0
   12.0125   13.8127   22.7473 N   0  0  0  0  0  0  0  0  0  0  0  0
   12.0503   13.3146   24.1301 C   0  0  0  0  0  0  0  0  0  0  0  0
   10.9853   13.8050   25.1033 C   0  0  0  0  0  0  0  0  0  0  0  0
   10.1953   14.7424   24.5655 F   0  0  0  0  0  0  0  0  0  0  0  0
   11.5119   14.3791   26.1967 F   0  0  0  0  0  0  0  0  0  0  0  0
   10.1985   12.7929   25.5053 F   0  0  0  0  0  0  0  0  0  0  0  0
   12.1145   15.2431   22.6827 C   0  0  0  0  0  0  0  0  0  0  0  0
   11.7743   15.9484   21.4093 C   0  0  0  0  0  0  0  0  0  0  0  0
  2  1  1  1
  2  3  1  0
  3  4  1  0
  4  5  2  0
  4  6  1  0
  6  7  1  0
  7  8  1  0
  8  9  1  0
  9 10  1  0
 10 11  1  0
 11 12  2  0
 12 13  1  0
 13 14  2  0
 14 15  1  0
 14 16  1  0
 16 17  2  0
 10 18  1  0
 18 19  1  0
  2 20  1  0
 20 21  1  0
 21 22  1  0
 22 23  1  0
 23 24  1  0
 24 25  1  0
 25 26  1  0
 25 27  1  0
 25 28  1  0
 23 29  1  0
 29 30  1  0
 19  7  1  0
 30 20  1  0
 17 11  1  0
M  END
>  <energy_score>  (2931) 
-13.147868

>  <inchikey>  (2931) 
None

>  <smiles>  (2931) 
None

>  <ref_pdb>  (2931) 
A4320a

>  <alias>  (2931) 
None

>  <HIPPO Pose ID>  (2931) 
500575

>  <name>  (2931) 
P500575

>  <HIPPO Compound ID>  (2931) 
315085

>  <ref_mols>  (2931) 
A0875a,A4320a

>  <distance_score>  (2931) 
1.974852

>  <inspiration_score>  (2931) 
None

$$$$
P500576
     RDKit          3D

 22 24  0  0  0  0  0  0  0  0999 V2000
    6.8464   11.4671   25.6837 C   0  0  0  0  0  0  0  0  0  0  0  0
    8.2971   11.5067   25.2950 C   0  0  2  0  0  0  0  0  0  0  0  0
    8.6896   12.9081   24.9841 C   0  0  0  0  0  0  0  0  0  0  0  0
    9.9179   12.5377   24.2789 C   0  0  0  0  0  0  0  0  0  0  0  0
   11.0072   13.5358   24.3179 C   0  0  0  0  0  0  0  0  0  0  0  0
   10.7570   14.6656   23.9390 O   0  0  0  0  0  0  0  0  0  0  0  0
   12.1745   13.0741   24.8785 N   0  0  0  0  0  0  0  0  0  0  0  0
   12.4726   13.0634   26.2863 C   0  0  0  0  0  0  0  0  0  0  0  0
   13.8487   12.4855   26.7519 C   0  0  0  0  0  0  0  0  0  0  0  0
   14.8071   11.9611   25.6771 C   0  0  0  0  0  0  0  0  0  0  0  0
   15.6062   12.9622   25.0744 O   0  0  0  0  0  0  0  0  0  0  0  0
   15.8073   10.8826   26.1301 C   0  0  0  0  0  0  0  0  0  0  0  0
   16.5628   11.2603   27.3771 C   0  0  0  0  0  0  0  0  0  0  0  0
   16.1995   10.7651   28.6346 C   0  0  0  0  0  0  0  0  0  0  0  0
   16.8961   11.1573   29.7756 C   0  0  0  0  0  0  0  0  0  0  0  0
   17.9423   12.0478   29.6306 C   0  0  0  0  0  0  0  0  0  0  0  0
   18.3217   12.5565   28.4430 N   0  0  0  0  0  0  0  0  0  0  0  0
   17.6359   12.1475   27.3516 C   0  0  0  0  0  0  0  0  0  0  0  0
   13.9509   11.4378   24.5615 C   0  0  0  0  0  0  0  0  0  0  0  0
   13.1292   12.5807   23.9705 C   0  0  0  0  0  0  0  0  0  0  0  0
    9.9477   11.3529   23.7505 N   0  0  0  0  0  0  0  0  0  0  0  0
    8.6972   10.7779   24.1330 O   0  0  0  0  0  0  0  0  0  0  0  0
  2  1  1  6
  2  3  1  0
  3  4  1  0
  4  5  1  0
  5  6  2  0
  5  7  1  0
  7  8  1  0
  8  9  1  0
  9 10  1  0
 10 11  1  0
 10 12  1  0
 12 13  1  0
 13 14  2  0
 14 15  1  0
 15 16  2  0
 16 17  1  0
 17 18  2  0
 10 19  1  0
 19 20  1  0
  4 21  2  0
 21 22  1  0
 22  2  1  0
 20  7  1  0
 18 13  1  0
M  END
>  <energy_score>  (2932) 
-0.063207

>  <inchikey>  (2932) 
None

>  <smiles>  (2932) 
None

>  <ref_pdb>  (2932) 
A0875a

>  <alias>  (2932) 
None

>  <HIPPO Pose ID>  (2932) 
500576

>  <name>  (2932) 
P500576

>  <HIPPO Compound ID>  (2932) 
315360

>  <ref_mols>  (2932) 
A2629a,A0875a

>  <distance_score>  (2932) 
1.945891

>  <inspiration_score>  (2932) 
None

$$$$
P500577
     RDKit          3D

 22 24  0  0  0  0  0  0  0  0999 V2000
   10.6117    8.7137   24.1216 C   0  0  0  0  0  0  0  0  0  0  0  0
    9.6635    9.7071   23.5477 C   0  0  1  0  0  0  0  0  0  0  0  0
    9.1606   10.7915   24.4702 C   0  0  0  0  0  0  0  0  0  0  0  0
    9.4328   11.8769   23.5340 C   0  0  0  0  0  0  0  0  0  0  0  0
    9.2006   13.3047   23.8406 C   0  0  0  0  0  0  0  0  0  0  0  0
    8.1627   13.8961   23.6608 O   0  0  0  0  0  0  0  0  0  0  0  0
   10.4101   13.7671   24.2597 N   0  0  0  0  0  0  0  0  0  0  0  0
   10.7075   13.7917   25.6443 C   0  0  0  0  0  0  0  0  0  0  0  0
   12.0534   13.1396   25.9499 C   0  0  0  0  0  0  0  0  0  0  0  0
   12.7996   12.5231   24.7703 C   0  0  0  0  0  0  0  0  0  0  0  0
   14.2833   12.0678   24.9838 C   0  0  0  0  0  0  0  0  0  0  0  0
   14.9194   11.5669   24.0546 O   0  0  0  0  0  0  0  0  0  0  0  0
   15.0333   12.1761   26.2651 C   0  0  0  0  0  0  0  0  0  0  0  0
   14.5634   11.7816   27.5004 C   0  0  0  0  0  0  0  0  0  0  0  0
   15.3457   11.8871   28.6536 C   0  0  0  0  0  0  0  0  0  0  0  0
   16.6201   12.3982   28.5306 C   0  0  0  0  0  0  0  0  0  0  0  0
   17.1255   12.7984   27.3529 N   0  0  0  0  0  0  0  0  0  0  0  0
   16.3213   12.6810   26.2630 C   0  0  0  0  0  0  0  0  0  0  0  0
   12.6441   13.3757   23.4769 C   0  0  0  0  0  0  0  0  0  0  0  0
   11.3736   14.2243   23.3042 C   0  0  0  0  0  0  0  0  0  0  0  0
   10.1906   11.6296   22.5287 N   0  0  0  0  0  0  0  0  0  0  0  0
   10.4105   10.2825   22.5039 O   0  0  0  0  0  0  0  0  0  0  0  0
  2  1  1  1
  2  3  1  0
  3  4  1  0
  4  5  1  0
  5  6  2  0
  5  7  1  0
  7  8  1  0
  8  9  1  0
  9 10  1  0
 10 11  1  0
 11 12  2  0
 11 13  1  0
 13 14  2  0
 14 15  1  0
 15 16  2  0
 16 17  1  0
 17 18  2  0
 10 19  1  0
 19 20  1  0
  4 21  2  0
 21 22  1  0
 22  2  1  0
 20  7  1  0
 18 13  1  0
M  END
>  <energy_score>  (2933) 
-5.660127

>  <inchikey>  (2933) 
None

>  <smiles>  (2933) 
None

>  <ref_pdb>  (2933) 
A0875a

>  <alias>  (2933) 
None

>  <HIPPO Pose ID>  (2933) 
500577

>  <name>  (2933) 
P500577

>  <HIPPO Compound ID>  (2933) 
315361

>  <ref_mols>  (2933) 
A2629a,A0875a

>  <distance_score>  (2933) 
1.928227

>  <inspiration_score>  (2933) 
None

$$$$
P500578
     RDKit          3D

 23 25  0  0  0  0  0  0  0  0999 V2000
    7.7306   13.6288   23.6418 C   0  0  0  0  0  0  0  0  0  0  0  0
    8.5622   12.9980   24.7531 C   0  0  2  0  0  0  0  0  0  0  0  0
    9.8611   12.6113   24.1832 C   0  0  0  0  0  0  0  0  0  0  0  0
   10.9260   13.6366   24.2795 C   0  0  0  0  0  0  0  0  0  0  0  0
   10.6729   14.7824   23.9582 O   0  0  0  0  0  0  0  0  0  0  0  0
   12.0902   13.1676   24.8277 N   0  0  0  0  0  0  0  0  0  0  0  0
   12.3571   13.0986   26.2467 C   0  0  0  0  0  0  0  0  0  0  0  0
   13.7226   12.5111   26.7121 C   0  0  0  0  0  0  0  0  0  0  0  0
   14.6927   12.0943   25.6196 C   0  0  0  0  0  0  0  0  0  0  0  0
   15.5866   10.9247   25.9869 C   0  0  0  0  0  0  0  0  0  0  0  0
   15.3713    9.8028   25.5313 O   0  0  0  0  0  0  0  0  0  0  0  0
   16.7242   11.1043   26.9092 C   0  0  0  0  0  0  0  0  0  0  0  0
   17.4683    9.9894   27.3108 C   0  0  0  0  0  0  0  0  0  0  0  0
   18.5409   10.1491   28.1853 C   0  0  0  0  0  0  0  0  0  0  0  0
   18.8392   11.4252   28.6299 C   0  0  0  0  0  0  0  0  0  0  0  0
   18.1510   12.5252   28.2554 N   0  0  0  0  0  0  0  0  0  0  0  0
   17.1169   12.3439   27.3980 C   0  0  0  0  0  0  0  0  0  0  0  0
   13.8632   11.6127   24.4683 C   0  0  0  0  0  0  0  0  0  0  0  0
   13.0528   12.7388   23.8942 C   0  0  0  0  0  0  0  0  0  0  0  0
    9.9698   11.3845   23.7675 N   0  0  0  0  0  0  0  0  0  0  0  0
    8.7215   10.7889   24.1420 O   0  0  0  0  0  0  0  0  0  0  0  0
    8.2535   11.6070   25.2169 C   0  0  2  0  0  0  0  0  0  0  0  0
    6.8359   11.4528   25.6901 C   0  0  0  0  0  0  0  0  0  0  0  0
  2  1  1  6
  2  3  1  0
  3  4  1  0
  4  5  2  0
  4  6  1  0
  6  7  1  0
  7  8  1  0
  8  9  1  0
  9 10  1  0
 10 11  2  0
 10 12  1  0
 12 13  2  0
 13 14  1  0
 14 15  2  0
 15 16  1  0
 16 17  2  0
  9 18  1  0
 18 19  1  0
  3 20  2  0
 20 21  1  0
 21 22  1  0
 22 23  1  6
 22  2  1  0
 19  6  1  0
 17 12  1  0
M  END
>  <energy_score>  (2934) 
-9.677339

>  <inchikey>  (2934) 
None

>  <smiles>  (2934) 
None

>  <ref_pdb>  (2934) 
A0875a

>  <alias>  (2934) 
None

>  <HIPPO Pose ID>  (2934) 
500578

>  <name>  (2934) 
P500578

>  <HIPPO Compound ID>  (2934) 
315365

>  <ref_mols>  (2934) 
A2629a,A0875a

>  <distance_score>  (2934) 
1.937554

>  <inspiration_score>  (2934) 
None

$$$$
P500579
     RDKit          3D

 24 27  0  0  0  0  0  0  0  0999 V2000
   10.5502   14.7849   24.5232 O   0  0  0  0  0  0  0  0  0  0  0  0
   10.8455   13.6662   24.8876 C   0  0  0  0  0  0  0  0  0  0  0  0
    9.7813   12.6339   24.8522 C   0  0  0  0  0  0  0  0  0  0  0  0
    9.0539   12.1571   25.8194 N   0  0  0  0  0  0  0  0  0  0  0  0
    8.6920   10.8317   25.3424 O   0  0  0  0  0  0  0  0  0  0  0  0
    9.7173   10.6017   24.3951 C   0  0  1  0  0  0  0  0  0  0  0  0
    9.7283    9.6120   23.2990 C   0  0  0  0  0  0  0  0  0  0  0  0
   10.3895   10.2917   22.2215 O   0  0  0  0  0  0  0  0  0  0  0  0
   10.4948   11.6973   22.5156 C   0  0  0  0  0  0  0  0  0  0  0  0
    9.5870   11.8790   23.6375 C   0  0  2  0  0  0  0  0  0  0  0  0
   12.0984   13.1613   25.2620 N   0  0  0  0  0  0  0  0  0  0  0  0
   12.5742   13.1977   26.6064 C   0  0  0  0  0  0  0  0  0  0  0  0
   13.9073   12.4644   26.9611 C   0  0  0  0  0  0  0  0  0  0  0  0
   14.5789   11.6277   25.8802 C   0  0  0  0  0  0  0  0  0  0  0  0
   13.9846   10.3374   25.7207 O   0  0  0  0  0  0  0  0  0  0  0  0
   16.1065   11.4677   26.0257 C   0  0  0  0  0  0  0  0  0  0  0  0
   16.6258   10.6259   27.1490 C   0  0  0  0  0  0  0  0  0  0  0  0
   17.2943    9.4193   26.9099 C   0  0  0  0  0  0  0  0  0  0  0  0
   17.8368    8.6967   27.9706 C   0  0  0  0  0  0  0  0  0  0  0  0
   17.6859    9.1984   29.2500 C   0  0  0  0  0  0  0  0  0  0  0  0
   17.0542   10.3578   29.5237 N   0  0  0  0  0  0  0  0  0  0  0  0
   16.5563   11.0477   28.4739 C   0  0  0  0  0  0  0  0  0  0  0  0
   14.3662   12.2968   24.5749 C   0  0  0  0  0  0  0  0  0  0  0  0
   12.9295   12.5906   24.2707 C   0  0  0  0  0  0  0  0  0  0  0  0
  1  2  2  0
  2  3  1  0
  3  4  2  0
  4  5  1  0
  5  6  1  0
  6  7  1  6
  7  8  1  0
  8  9  1  0
 10  9  1  6
  2 11  1  0
 11 12  1  0
 12 13  1  0
 13 14  1  0
 14 15  1  0
 14 16  1  0
 16 17  1  0
 17 18  2  0
 18 19  1  0
 19 20  2  0
 20 21  1  0
 21 22  2  0
 14 23  1  0
 23 24  1  0
 10  3  1  0
 24 11  1  0
 10  6  1  0
 22 17  1  0
M  END
>  <energy_score>  (2935) 
-5.150834

>  <inchikey>  (2935) 
None

>  <smiles>  (2935) 
None

>  <ref_pdb>  (2935) 
A0875a

>  <alias>  (2935) 
None

>  <HIPPO Pose ID>  (2935) 
500579

>  <name>  (2935) 
P500579

>  <HIPPO Compound ID>  (2935) 
315368

>  <ref_mols>  (2935) 
A2629a,A0875a

>  <distance_score>  (2935) 
1.798641

>  <inspiration_score>  (2935) 
None

$$$$
P500580
     RDKit          3D

 25 27  0  0  0  0  0  0  0  0999 V2000
    6.1397   12.7404   26.4159 C   0  0  0  0  0  0  0  0  0  0  0  0
    7.0410   12.3105   25.2746 C   0  0  2  0  0  0  0  0  0  0  0  0
    8.4998   12.5930   25.4823 C   0  0  0  0  0  0  0  0  0  0  0  0
    8.8705   12.8017   24.0664 C   0  0  0  0  0  0  0  0  0  0  0  0
   10.3022   12.6665   23.6138 C   0  0  0  0  0  0  0  0  0  0  0  0
   10.6634   13.0217   22.5081 O   0  0  0  0  0  0  0  0  0  0  0  0
   11.1163   12.0198   24.5236 N   0  0  0  0  0  0  0  0  0  0  0  0
   11.8979   12.7907   25.4725 C   0  0  0  0  0  0  0  0  0  0  0  0
   13.1979   12.1346   25.9476 C   0  0  0  0  0  0  0  0  0  0  0  0
   13.6494   11.0517   25.0071 C   0  0  0  0  0  0  0  0  0  0  0  0
   15.0779   10.4516   25.1811 C   0  0  0  0  0  0  0  0  0  0  0  0
   16.0430   10.8536   26.2658 C   0  0  0  0  0  0  0  0  0  0  0  0
   16.8108    9.8748   26.9061 C   0  0  0  0  0  0  0  0  0  0  0  0
   17.7418   10.2175   27.8870 C   0  0  0  0  0  0  0  0  0  0  0  0
   17.9271   11.5589   28.2033 C   0  0  0  0  0  0  0  0  0  0  0  0
   18.9442   11.9369   29.2727 C   0  0  0  0  0  0  0  0  0  0  0  0
   18.8085   13.2048   29.7536 F   0  0  0  0  0  0  0  0  0  0  0  0
   18.8702   11.1218   30.3685 F   0  0  0  0  0  0  0  0  0  0  0  0
   20.2310   11.8342   28.8319 F   0  0  0  0  0  0  0  0  0  0  0  0
   17.2563   12.5336   27.5334 N   0  0  0  0  0  0  0  0  0  0  0  0
   16.3773   12.1643   26.5726 C   0  0  0  0  0  0  0  0  0  0  0  0
   12.4886   10.0033   24.8636 C   0  0  0  0  0  0  0  0  0  0  0  0
   11.1387   10.5847   24.4721 C   0  0  0  0  0  0  0  0  0  0  0  0
    7.8848   13.0146   23.2599 N   0  0  0  0  0  0  0  0  0  0  0  0
    6.7263   13.0216   24.0747 O   0  0  0  0  0  0  0  0  0  0  0  0
  2  1  1  1
  2  3  1  0
  3  4  1  0
  4  5  1  0
  5  6  2  0
  5  7  1  0
  7  8  1  0
  8  9  1  0
  9 10  1  0
 10 11  1  0
 11 12  1  0
 12 13  2  0
 13 14  1  0
 14 15  2  0
 15 16  1  0
 16 17  1  0
 16 18  1  0
 16 19  1  0
 15 20  1  0
 20 21  2  0
 10 22  1  0
 22 23  1  0
  4 24  2  0
 24 25  1  0
 25  2  1  0
 23  7  1  0
 21 12  1  0
M  END
>  <energy_score>  (2936) 
-3.060969

>  <inchikey>  (2936) 
None

>  <smiles>  (2936) 
None

>  <ref_pdb>  (2936) 
A0875a

>  <alias>  (2936) 
None

>  <HIPPO Pose ID>  (2936) 
500580

>  <name>  (2936) 
P500580

>  <HIPPO Compound ID>  (2936) 
315370

>  <ref_mols>  (2936) 
A2629a,A0875a

>  <distance_score>  (2936) 
1.926601

>  <inspiration_score>  (2936) 
None

$$$$
P500581
     RDKit          3D

 25 27  0  0  0  0  0  0  0  0999 V2000
    9.7729    9.8341   23.6312 C   0  0  0  0  0  0  0  0  0  0  0  0
    8.9470   10.5336   24.5641 O   0  0  0  0  0  0  0  0  0  0  0  0
    9.7803   11.4810   25.1627 N   0  0  0  0  0  0  0  0  0  0  0  0
    9.6231   12.6571   24.6280 C   0  0  0  0  0  0  0  0  0  0  0  0
   10.7526   13.6625   24.7501 C   0  0  0  0  0  0  0  0  0  0  0  0
   10.5432   14.8341   24.4905 O   0  0  0  0  0  0  0  0  0  0  0  0
   12.0079   13.1544   25.0636 N   0  0  0  0  0  0  0  0  0  0  0  0
   12.4900   13.1020   26.4140 C   0  0  0  0  0  0  0  0  0  0  0  0
   13.8837   12.4657   26.7315 C   0  0  0  0  0  0  0  0  0  0  0  0
   14.7054   11.9762   25.5439 C   0  0  0  0  0  0  0  0  0  0  0  0
   15.4615   12.9738   24.8914 O   0  0  0  0  0  0  0  0  0  0  0  0
   15.6769   10.7932   25.7491 C   0  0  0  0  0  0  0  0  0  0  0  0
   16.7247   10.8234   26.8229 C   0  0  0  0  0  0  0  0  0  0  0  0
   17.4645    9.6528   27.0564 C   0  0  0  0  0  0  0  0  0  0  0  0
   18.4591    9.6226   28.0294 C   0  0  0  0  0  0  0  0  0  0  0  0
   18.6973   10.7754   28.7507 C   0  0  0  0  0  0  0  0  0  0  0  0
   18.0224   11.9257   28.5550 N   0  0  0  0  0  0  0  0  0  0  0  0
   17.0707   11.9272   27.5923 C   0  0  0  0  0  0  0  0  0  0  0  0
   13.7052   11.5392   24.5159 C   0  0  0  0  0  0  0  0  0  0  0  0
   12.8287   12.6763   24.0084 C   0  0  0  0  0  0  0  0  0  0  0  0
    8.4944   13.1226   23.8765 C   0  0  0  0  0  0  0  0  0  0  0  0
    7.1406   13.0998   24.1402 C   0  0  0  0  0  0  0  0  0  0  0  0
    6.5369   13.9495   23.1780 C   0  0  0  0  0  0  0  0  0  0  0  0
    7.5500   14.3780   22.3598 C   0  0  0  0  0  0  0  0  0  0  0  0
    8.7259   13.8247   22.7304 O   0  0  0  0  0  0  0  0  0  0  0  0
  1  2  1  0
  2  3  1  0
  3  4  2  0
  4  5  1  0
  5  6  2  0
  5  7  1  0
  7  8  1  0
  8  9  1  0
  9 10  1  0
 10 11  1  0
 10 12  1  0
 12 13  1  0
 13 14  2  0
 14 15  1  0
 15 16  2  0
 16 17  1  0
 17 18  2  0
 10 19  1  0
 19 20  1  0
  4 21  1  0
 21 22  2  0
 22 23  1  0
 23 24  2  0
 24 25  1  0
 20  7  1  0
 25 21  1  0
 18 13  1  0
M  END
>  <energy_score>  (2937) 
-49.287817

>  <inchikey>  (2937) 
None

>  <smiles>  (2937) 
None

>  <ref_pdb>  (2937) 
A0875a

>  <alias>  (2937) 
None

>  <HIPPO Pose ID>  (2937) 
500581

>  <name>  (2937) 
P500581

>  <HIPPO Compound ID>  (2937) 
315371

>  <ref_mols>  (2937) 
A2629a,A0875a

>  <distance_score>  (2937) 
1.548971

>  <inspiration_score>  (2937) 
None

$$$$
P500582
     RDKit          3D

 25 27  0  0  0  0  0  0  0  0999 V2000
    8.8444    9.6613   24.4805 C   0  0  0  0  0  0  0  0  0  0  0  0
    8.9532   10.7966   25.2911 O   0  0  0  0  0  0  0  0  0  0  0  0
    7.7529   11.4297   25.4126 N   0  0  0  0  0  0  0  0  0  0  0  0
    7.6550   12.4650   24.6329 C   0  0  0  0  0  0  0  0  0  0  0  0
    8.7060   12.9520   23.5961 C   0  0  0  0  0  0  0  0  0  0  0  0
    8.3405   13.5568   22.5952 O   0  0  0  0  0  0  0  0  0  0  0  0
   10.0651   12.7878   23.8654 N   0  0  0  0  0  0  0  0  0  0  0  0
   10.7448   13.7723   24.6440 C   0  0  0  0  0  0  0  0  0  0  0  0
   12.2258   13.4331   24.8835 C   0  0  0  0  0  0  0  0  0  0  0  0
   12.6286   12.0265   25.2276 C   0  0  0  0  0  0  0  0  0  0  0  0
   14.1095   11.6962   24.9921 C   0  0  0  0  0  0  0  0  0  0  0  0
   14.6030   11.5953   23.8770 O   0  0  0  0  0  0  0  0  0  0  0  0
   15.0057   11.4341   26.1409 C   0  0  0  0  0  0  0  0  0  0  0  0
   16.0298   10.4944   26.0126 C   0  0  0  0  0  0  0  0  0  0  0  0
   16.8709   10.2383   27.0928 C   0  0  0  0  0  0  0  0  0  0  0  0
   16.6479   10.9252   28.2738 C   0  0  0  0  0  0  0  0  0  0  0  0
   15.6664   11.8405   28.4287 N   0  0  0  0  0  0  0  0  0  0  0  0
   14.8878   12.0970   27.3534 C   0  0  0  0  0  0  0  0  0  0  0  0
   11.6353   11.0727   24.6050 C   0  0  0  0  0  0  0  0  0  0  0  0
   10.8738   11.6731   23.4114 C   0  0  0  0  0  0  0  0  0  0  0  0
    6.4458   13.2259   24.8054 C   0  0  0  0  0  0  0  0  0  0  0  0
    5.5431   13.2516   25.8615 C   0  0  0  0  0  0  0  0  0  0  0  0
    4.5646   14.2181   25.5377 C   0  0  0  0  0  0  0  0  0  0  0  0
    4.9037   14.6816   24.2919 C   0  0  0  0  0  0  0  0  0  0  0  0
    6.0448   14.1052   23.8502 O   0  0  0  0  0  0  0  0  0  0  0  0
  1  2  1  0
  2  3  1  0
  3  4  2  0
  4  5  1  0
  5  6  2  0
  5  7  1  0
  7  8  1  0
  8  9  1  0
  9 10  1  0
 10 11  1  0
 11 12  2  0
 11 13  1  0
 13 14  2  0
 14 15  1  0
 15 16  2  0
 16 17  1  0
 17 18  2  0
 10 19  1  0
 19 20  1  0
  4 21  1  0
 21 22  2  0
 22 23  1  0
 23 24  2  0
 24 25  1  0
 20  7  1  0
 25 21  1  0
 18 13  1  0
M  END
>  <energy_score>  (2938) 
-7.745622

>  <inchikey>  (2938) 
None

>  <smiles>  (2938) 
None

>  <ref_pdb>  (2938) 
A0875a

>  <alias>  (2938) 
None

>  <HIPPO Pose ID>  (2938) 
500582

>  <name>  (2938) 
P500582

>  <HIPPO Compound ID>  (2938) 
315378

>  <ref_mols>  (2938) 
A2629a,A0875a

>  <distance_score>  (2938) 
1.53174

>  <inspiration_score>  (2938) 
None

$$$$
P500583
     RDKit          3D

 25 27  0  0  0  0  0  0  0  0999 V2000
    9.7615    9.8472   23.6275 C   0  0  0  0  0  0  0  0  0  0  0  0
    8.9097   10.6143   24.4775 O   0  0  0  0  0  0  0  0  0  0  0  0
    9.7340   11.5827   25.0476 N   0  0  0  0  0  0  0  0  0  0  0  0
    9.5463   12.7544   24.5120 C   0  0  0  0  0  0  0  0  0  0  0  0
   10.6708   13.7644   24.6335 C   0  0  0  0  0  0  0  0  0  0  0  0
   10.4729   14.9392   24.3837 O   0  0  0  0  0  0  0  0  0  0  0  0
   11.9093   13.2522   24.9946 N   0  0  0  0  0  0  0  0  0  0  0  0
   12.3229   13.1820   26.3727 C   0  0  0  0  0  0  0  0  0  0  0  0
   13.7000   12.5614   26.7309 C   0  0  0  0  0  0  0  0  0  0  0  0
   14.5737   12.1488   25.5655 C   0  0  0  0  0  0  0  0  0  0  0  0
   15.4849   10.9701   25.8707 C   0  0  0  0  0  0  0  0  0  0  0  0
   15.2595    9.8596   25.3921 O   0  0  0  0  0  0  0  0  0  0  0  0
   16.6476   11.1250   26.7677 C   0  0  0  0  0  0  0  0  0  0  0  0
   17.3780    9.9946   27.1505 C   0  0  0  0  0  0  0  0  0  0  0  0
   18.4717   10.1300   28.0027 C   0  0  0  0  0  0  0  0  0  0  0  0
   18.8064   11.3989   28.4416 C   0  0  0  0  0  0  0  0  0  0  0  0
   18.1353   12.5137   28.0810 N   0  0  0  0  0  0  0  0  0  0  0  0
   17.0784   12.3557   27.2469 C   0  0  0  0  0  0  0  0  0  0  0  0
   13.6461   11.6902   24.4806 C   0  0  0  0  0  0  0  0  0  0  0  0
   12.7665   12.7945   23.9552 C   0  0  0  0  0  0  0  0  0  0  0  0
    8.4047   13.2173   23.7781 C   0  0  0  0  0  0  0  0  0  0  0  0
    8.2863   13.9934   22.6388 C   0  0  0  0  0  0  0  0  0  0  0  0
    6.9260   14.3500   22.5426 C   0  0  0  0  0  0  0  0  0  0  0  0
    6.2992   13.7835   23.6214 C   0  0  0  0  0  0  0  0  0  0  0  0
    7.1714   13.0310   24.3382 O   0  0  0  0  0  0  0  0  0  0  0  0
  1  2  1  0
  2  3  1  0
  3  4  2  0
  4  5  1  0
  5  6  2  0
  5  7  1  0
  7  8  1  0
  8  9  1  0
  9 10  1  0
 10 11  1  0
 11 12  2  0
 11 13  1  0
 13 14  2  0
 14 15  1  0
 15 16  2  0
 16 17  1  0
 17 18  2  0
 10 19  1  0
 19 20  1  0
  4 21  1  0
 21 22  2  0
 22 23  1  0
 23 24  2  0
 24 25  1  0
 20  7  1  0
 25 21  1  0
 18 13  1  0
M  END
>  <energy_score>  (2939) 
-29.782265

>  <inchikey>  (2939) 
None

>  <smiles>  (2939) 
None

>  <ref_pdb>  (2939) 
A0875a

>  <alias>  (2939) 
None

>  <HIPPO Pose ID>  (2939) 
500583

>  <name>  (2939) 
P500583

>  <HIPPO Compound ID>  (2939) 
315378

>  <ref_mols>  (2939) 
A2629a,A0875a

>  <distance_score>  (2939) 
1.79228

>  <inspiration_score>  (2939) 
None

$$$$
P500584
     RDKit          3D

 26 28  0  0  0  0  0  0  0  0999 V2000
   17.6131   13.6697   27.6651 C   0  0  0  0  0  0  0  0  0  0  0  0
   17.6546   12.1700   27.6604 C   0  0  0  0  0  0  0  0  0  0  0  0
   18.4608   11.6220   28.6068 N   0  0  0  0  0  0  0  0  0  0  0  0
   18.6385   10.2718   28.6401 C   0  0  0  0  0  0  0  0  0  0  0  0
   19.5253    9.6642   29.7197 C   0  0  0  0  0  0  0  0  0  0  0  0
   18.8418    9.4044   30.8720 F   0  0  0  0  0  0  0  0  0  0  0  0
   20.5822   10.4474   30.0762 F   0  0  0  0  0  0  0  0  0  0  0  0
   20.0696    8.4672   29.3448 F   0  0  0  0  0  0  0  0  0  0  0  0
   17.9987    9.4381   27.7308 C   0  0  0  0  0  0  0  0  0  0  0  0
   17.1648   10.0046   26.7720 C   0  0  0  0  0  0  0  0  0  0  0  0
   16.9627   11.3941   26.7246 C   0  0  0  0  0  0  0  0  0  0  0  0
   16.0357   11.9642   25.6777 C   0  0  0  0  0  0  0  0  0  0  0  0
   14.5729   11.6591   25.9723 C   0  0  0  0  0  0  0  0  0  0  0  0
   13.8859   12.6087   26.9407 C   0  0  0  0  0  0  0  0  0  0  0  0
   12.4974   13.1609   26.5166 C   0  0  0  0  0  0  0  0  0  0  0  0
   12.1674   13.1598   25.1188 N   0  0  0  0  0  0  0  0  0  0  0  0
   10.9128   13.5551   24.6792 C   0  0  0  0  0  0  0  0  0  0  0  0
   10.5210   14.6580   24.3630 O   0  0  0  0  0  0  0  0  0  0  0  0
   10.0224   12.3823   24.5139 C   0  0  0  0  0  0  0  0  0  0  0  0
    9.3646   11.7640   25.4458 N   0  0  0  0  0  0  0  0  0  0  0  0
    9.1377   10.4660   24.8790 O   0  0  0  0  0  0  0  0  0  0  0  0
   10.1776   10.3553   23.8892 C   0  0  1  0  0  0  0  0  0  0  0  0
   10.0497    9.2196   22.9410 C   0  0  0  0  0  0  0  0  0  0  0  0
   10.0651   11.6907   23.2270 C   0  0  0  0  0  0  0  0  0  0  0  0
   13.1661   12.7404   24.1922 C   0  0  0  0  0  0  0  0  0  0  0  0
   13.7948   11.4613   24.7024 C   0  0  0  0  0  0  0  0  0  0  0  0
  1  2  1  0
  2  3  2  0
  3  4  1  0
  4  5  1  0
  5  6  1  0
  5  7  1  0
  5  8  1  0
  4  9  2  0
  9 10  1  0
 10 11  2  0
 11 12  1  0
 12 13  1  0
 13 14  1  0
 14 15  1  0
 15 16  1  0
 16 17  1  0
 17 18  2  0
 17 19  1  0
 19 20  2  0
 20 21  1  0
 21 22  1  0
 22 23  1  6
 22 24  1  0
 16 25  1  0
 25 26  1  0
 11  2  1  0
 26 13  1  0
 24 19  1  0
M  END
>  <energy_score>  (2940) 
-1.042591

>  <inchikey>  (2940) 
None

>  <smiles>  (2940) 
None

>  <ref_pdb>  (2940) 
A0875a

>  <alias>  (2940) 
None

>  <HIPPO Pose ID>  (2940) 
500584

>  <name>  (2940) 
P500584

>  <HIPPO Compound ID>  (2940) 
315379

>  <ref_mols>  (2940) 
A2629a,A0875a

>  <distance_score>  (2940) 
1.900026

>  <inspiration_score>  (2940) 
None

$$$$
P500585
     RDKit          3D

 27 30  0  0  0  0  0  0  0  0999 V2000
   10.3902   14.5913   24.2953 O   0  0  0  0  0  0  0  0  0  0  0  0
   10.7727   13.4773   24.6045 C   0  0  0  0  0  0  0  0  0  0  0  0
    9.7594   12.3776   24.6666 C   0  0  0  0  0  0  0  0  0  0  0  0
    9.1384   12.0379   25.7491 N   0  0  0  0  0  0  0  0  0  0  0  0
    8.4452   10.8447   25.4491 O   0  0  0  0  0  0  0  0  0  0  0  0
    8.9960   10.3610   24.2408 C   0  0  2  0  0  0  0  0  0  0  0  0
   10.2915    9.5817   24.3720 C   0  0  0  0  0  0  0  0  0  0  0  0
   11.2432   10.2832   23.5920 O   0  0  0  0  0  0  0  0  0  0  0  0
   10.4890   11.0637   22.6709 C   0  0  0  0  0  0  0  0  0  0  0  0
    9.3820   11.5908   23.4851 C   0  0  2  0  0  0  0  0  0  0  0  0
   12.0548   13.1288   25.0058 N   0  0  0  0  0  0  0  0  0  0  0  0
   12.4405   13.1602   26.3940 C   0  0  0  0  0  0  0  0  0  0  0  0
   13.7903   12.5010   26.8059 C   0  0  0  0  0  0  0  0  0  0  0  0
   14.7437   12.1179   25.6776 C   0  0  0  0  0  0  0  0  0  0  0  0
   15.8090   11.0769   26.0339 C   0  0  0  0  0  0  0  0  0  0  0  0
   16.6907   11.5031   27.1695 C   0  0  0  0  0  0  0  0  0  0  0  0
   16.7607   10.7589   28.3484 C   0  0  0  0  0  0  0  0  0  0  0  0
   17.5784   11.1771   29.3984 C   0  0  0  0  0  0  0  0  0  0  0  0
   18.3272   12.3442   29.2574 C   0  0  0  0  0  0  0  0  0  0  0  0
   19.2132   12.8206   30.4012 C   0  0  0  0  0  0  0  0  0  0  0  0
   19.3174   11.9063   31.4146 F   0  0  0  0  0  0  0  0  0  0  0  0
   18.7500   13.9587   30.9945 F   0  0  0  0  0  0  0  0  0  0  0  0
   20.4961   13.0850   30.0231 F   0  0  0  0  0  0  0  0  0  0  0  0
   18.2679   13.0864   28.1175 N   0  0  0  0  0  0  0  0  0  0  0  0
   17.4690   12.6542   27.1152 C   0  0  0  0  0  0  0  0  0  0  0  0
   13.8937   11.5929   24.5624 C   0  0  0  0  0  0  0  0  0  0  0  0
   13.0288   12.7281   24.0441 C   0  0  0  0  0  0  0  0  0  0  0  0
  1  2  2  0
  2  3  1  0
  3  4  2  0
  4  5  1  0
  5  6  1  0
  6  7  1  1
  7  8  1  0
  8  9  1  0
 10  9  1  6
  2 11  1  0
 11 12  1  0
 12 13  1  0
 13 14  1  0
 14 15  1  0
 15 16  1  0
 16 17  2  0
 17 18  1  0
 18 19  2  0
 19 20  1  0
 20 21  1  0
 20 22  1  0
 20 23  1  0
 19 24  1  0
 24 25  2  0
 14 26  1  0
 26 27  1  0
 10  3  1  0
 27 11  1  0
 10  6  1  0
 25 16  1  0
M  END
>  <energy_score>  (2941) 
-47.158652

>  <inchikey>  (2941) 
None

>  <smiles>  (2941) 
None

>  <ref_pdb>  (2941) 
A0875a

>  <alias>  (2941) 
None

>  <HIPPO Pose ID>  (2941) 
500585

>  <name>  (2941) 
P500585

>  <HIPPO Compound ID>  (2941) 
315384

>  <ref_mols>  (2941) 
A2629a,A0875a

>  <distance_score>  (2941) 
1.715361

>  <inspiration_score>  (2941) 
None

$$$$
P500586
     RDKit          3D

 28 30  0  0  0  0  0  0  0  0999 V2000
   10.3270    9.5328   23.9847 C   0  0  0  0  0  0  0  0  0  0  0  0
   10.4716   10.7134   24.7554 O   0  0  0  0  0  0  0  0  0  0  0  0
    9.2393   11.3287   24.7791 N   0  0  0  0  0  0  0  0  0  0  0  0
    9.2975   12.6029   24.5346 C   0  0  0  0  0  0  0  0  0  0  0  0
   10.5201   13.5443   24.5056 C   0  0  0  0  0  0  0  0  0  0  0  0
   10.3564   14.7262   24.2237 O   0  0  0  0  0  0  0  0  0  0  0  0
   11.7903   13.1056   24.8954 N   0  0  0  0  0  0  0  0  0  0  0  0
   12.2185   13.1025   26.2731 C   0  0  0  0  0  0  0  0  0  0  0  0
   13.6187   12.5273   26.6560 C   0  0  0  0  0  0  0  0  0  0  0  0
   14.5438   12.1724   25.5050 C   0  0  0  0  0  0  0  0  0  0  0  0
   15.6437   11.1329   25.7954 C   0  0  0  0  0  0  0  0  0  0  0  0
   16.6276   11.4586   26.8765 C   0  0  0  0  0  0  0  0  0  0  0  0
   17.0182   12.7541   27.2110 C   0  0  0  0  0  0  0  0  0  0  0  0
   17.9641   12.9697   28.2141 C   0  0  0  0  0  0  0  0  0  0  0  0
   18.5163   11.8770   28.8795 C   0  0  0  0  0  0  0  0  0  0  0  0
   19.5593   12.1107   29.9654 C   0  0  0  0  0  0  0  0  0  0  0  0
   19.4147   13.3223   30.5841 F   0  0  0  0  0  0  0  0  0  0  0  0
   19.5236   11.1890   30.9700 F   0  0  0  0  0  0  0  0  0  0  0  0
   20.8355   12.0988   29.4857 F   0  0  0  0  0  0  0  0  0  0  0  0
   18.1704   10.6016   28.5496 N   0  0  0  0  0  0  0  0  0  0  0  0
   17.2626   10.4269   27.5634 C   0  0  0  0  0  0  0  0  0  0  0  0
   13.6520   11.6097   24.4503 C   0  0  0  0  0  0  0  0  0  0  0  0
   12.6872   12.6474   23.8888 C   0  0  0  0  0  0  0  0  0  0  0  0
    8.0228   13.1916   24.2369 C   0  0  0  0  0  0  0  0  0  0  0  0
    6.7816   13.0236   24.8245 C   0  0  0  0  0  0  0  0  0  0  0  0
    5.8828   13.8317   24.0872 C   0  0  0  0  0  0  0  0  0  0  0  0
    6.5998   14.3226   23.0244 C   0  0  0  0  0  0  0  0  0  0  0  0
    7.8979   13.9479   23.1082 O   0  0  0  0  0  0  0  0  0  0  0  0
  1  2  1  0
  2  3  1  0
  3  4  2  0
  4  5  1  0
  5  6  2  0
  5  7  1  0
  7  8  1  0
  8  9  1  0
  9 10  1  0
 10 11  1  0
 11 12  1  0
 12 13  2  0
 13 14  1  0
 14 15  2  0
 15 16  1  0
 16 17  1  0
 16 18  1  0
 16 19  1  0
 15 20  1  0
 20 21  2  0
 10 22  1  0
 22 23  1  0
  4 24  1  0
 24 25  2  0
 25 26  1  0
 26 27  2  0
 27 28  1  0
 23  7  1  0
 28 24  1  0
 21 12  1  0
M  END
>  <energy_score>  (2942) 
-14.349657

>  <inchikey>  (2942) 
None

>  <smiles>  (2942) 
None

>  <ref_pdb>  (2942) 
A0875a

>  <alias>  (2942) 
None

>  <HIPPO Pose ID>  (2942) 
500586

>  <name>  (2942) 
P500586

>  <HIPPO Compound ID>  (2942) 
315389

>  <ref_mols>  (2942) 
A2629a,A0875a

>  <distance_score>  (2942) 
1.86567

>  <inspiration_score>  (2942) 
None

$$$$
P500587
     RDKit          3D

 29 32  0  0  0  0  0  0  0  0999 V2000
   10.5522   15.0900   24.3474 O   0  0  0  0  0  0  0  0  0  0  0  0
   10.7914   13.9243   24.5997 C   0  0  0  0  0  0  0  0  0  0  0  0
    9.6583   12.9978   24.3794 C   0  0  0  0  0  0  0  0  0  0  0  0
    8.9044   13.0452   23.3289 N   0  0  0  0  0  0  0  0  0  0  0  0
    8.2097   11.8313   23.3686 O   0  0  0  0  0  0  0  0  0  0  0  0
    8.9548   10.9237   24.2007 C   0  0  1  0  0  0  0  0  0  0  0  0
   10.1815   10.3479   23.4618 C   0  0  0  0  0  0  0  0  0  0  0  0
   10.9719   11.3910   22.8782 O   0  0  0  0  0  0  0  0  0  0  0  0
   10.0847    9.0758   22.6225 C   0  0  0  0  0  0  0  0  0  0  0  0
   10.2978    8.2530   23.7956 O   0  0  0  0  0  0  0  0  0  0  0  0
   10.9430    9.3828   24.3902 C   0  0  0  0  0  0  0  0  0  0  0  0
    9.3688   11.8736   25.2840 C   0  0  0  0  0  0  0  0  0  0  0  0
   12.0047   13.4006   25.0613 N   0  0  0  0  0  0  0  0  0  0  0  0
   12.3484   13.2703   26.4685 C   0  0  0  0  0  0  0  0  0  0  0  0
   13.7461   12.6937   26.8574 C   0  0  0  0  0  0  0  0  0  0  0  0
   14.3852   11.7738   25.8412 C   0  0  0  0  0  0  0  0  0  0  0  0
   15.8735   11.9505   25.5954 C   0  0  0  0  0  0  0  0  0  0  0  0
   16.6788   11.2854   26.6796 C   0  0  0  0  0  0  0  0  0  0  0  0
   17.1196   11.9996   27.7940 C   0  0  0  0  0  0  0  0  0  0  0  0
   17.8551   11.3525   28.7856 C   0  0  0  0  0  0  0  0  0  0  0  0
   18.1460    9.9946   28.6443 C   0  0  0  0  0  0  0  0  0  0  0  0
   18.9346    9.2869   29.7400 C   0  0  0  0  0  0  0  0  0  0  0  0
   19.9119   10.0777   30.2763 F   0  0  0  0  0  0  0  0  0  0  0  0
   19.5687    8.1537   29.3258 F   0  0  0  0  0  0  0  0  0  0  0  0
   18.1480    8.9183   30.7917 F   0  0  0  0  0  0  0  0  0  0  0  0
   17.7122    9.2824   27.5655 N   0  0  0  0  0  0  0  0  0  0  0  0
   17.0065    9.9356   26.6184 C   0  0  0  0  0  0  0  0  0  0  0  0
   13.5955   11.6831   24.5786 C   0  0  0  0  0  0  0  0  0  0  0  0
   12.9732   12.9638   24.0956 C   0  0  0  0  0  0  0  0  0  0  0  0
  1  2  2  0
  2  3  1  0
  3  4  2  0
  4  5  1  0
  5  6  1  0
  6  7  1  6
  7  8  1  0
  7  9  1  0
  9 10  1  0
 10 11  1  0
  6 12  1  0
  2 13  1  0
 13 14  1  0
 14 15  1  0
 15 16  1  0
 16 17  1  0
 17 18  1  0
 18 19  2  0
 19 20  1  0
 20 21  2  0
 21 22  1  0
 22 23  1  0
 22 24  1  0
 22 25  1  0
 21 26  1  0
 26 27  2  0
 16 28  1  0
 28 29  1  0
 12  3  1  0
 29 13  1  0
 11  7  1  0
 27 18  1  0
M  END
>  <energy_score>  (2943) 
-10.108137

>  <inchikey>  (2943) 
ITLAYJIQJYKKAU-MRXNPFEDSA-N

>  <smiles>  (2943) 
O=C(C1=NO[C@@H](C2(O)COC2)C1)N1CCC(Cc2ccc(C(F)(F)F)nc2)CC1

>  <ref_pdb>  (2943) 
A0875a

>  <alias>  (2943) 
None

>  <HIPPO Pose ID>  (2943) 
500587

>  <name>  (2943) 
P500587

>  <HIPPO Compound ID>  (2943) 
315396

>  <ref_mols>  (2943) 
A2629a,A0875a

>  <distance_score>  (2943) 
1.790335

>  <inspiration_score>  (2943) 
None

$$$$
VCQJUYQDAIUTKT-UHFFFAOYSA-N-P182-P28-P182-601501
     RDKit          3D

 25 28  0  0  0  0  0  0  0  0999 V2000
    5.4774   13.5401   26.8124 C   0  0  0  0  0  0  0  0  0  0  0  0
    5.5201   12.1151   27.1858 C   0  0  0  0  0  0  0  0  0  0  0  0
    4.9051   11.6179   28.2480 N   0  0  0  0  0  0  0  0  0  0  0  0
    4.8623   10.2743   28.0605 C   0  0  0  0  0  0  0  0  0  0  0  0
    5.4727    9.9766   26.8799 C   0  0  0  0  0  0  0  0  0  0  0  0
    6.1044   11.1111   26.4405 N   0  0  0  0  0  0  0  0  0  0  0  0
    7.1378   11.1079   25.4589 C   0  0  0  0  0  0  0  0  0  0  0  0
    7.8354   12.2586   25.1702 C   0  0  0  0  0  0  0  0  0  0  0  0
    8.9143   12.1878   24.3032 C   0  0  0  0  0  0  0  0  0  0  0  0
    9.7859   13.3739   24.2440 C   0  0  0  0  0  0  0  0  0  0  0  0
   10.0429   13.8928   25.2513 O   0  0  0  0  0  0  0  0  0  0  0  0
   10.2293   13.6989   22.8241 N   0  0  0  0  0  0  0  0  0  0  0  0
   11.1538   14.6674   22.3428 C   0  0  1  0  0  0  0  0  0  0  0  0
   12.4825   14.0401   22.0689 C   0  0  0  0  0  0  0  0  0  0  0  0
   12.5788   13.9702   20.5410 C   0  0  0  0  0  0  0  0  0  0  0  0
   11.3914   14.4862   19.9909 O   0  0  0  0  0  0  0  0  0  0  0  0
   10.9375   15.3379   21.0240 C   0  0  1  0  0  0  0  0  0  0  0  0
    9.6998   15.9808   20.6637 C   0  0  0  0  0  0  0  0  0  0  0  0
    9.6040   16.8945   19.6064 C   0  0  0  0  0  0  0  0  0  0  0  0
    8.5242   17.6577   19.9226 C   0  0  0  0  0  0  0  0  0  0  0  0
    7.9695   17.0426   21.0042 N   0  0  0  0  0  0  0  0  0  0  0  0
    8.5834   15.9138   21.3758 N   0  0  0  0  0  0  0  0  0  0  0  0
    9.2592   10.9898   23.7085 C   0  0  0  0  0  0  0  0  0  0  0  0
    8.5266    9.8804   24.0663 C   0  0  0  0  0  0  0  0  0  0  0  0
    7.4895    9.9109   24.9284 N   0  0  0  0  0  0  0  0  0  0  0  0
  1  2  1  0
  2  3  2  0
  3  4  1  0
  4  5  2  0
  5  6  1  0
  6  7  1  0
  7  8  2  0
  8  9  1  0
  9 10  1  0
 10 11  2  0
 10 12  1  0
 13 12  1  6
 13 14  1  0
 14 15  1  0
 15 16  1  0
 16 17  1  0
 17 18  1  6
 18 19  1  0
 19 20  2  0
 20 21  1  0
 21 22  1  0
  9 23  2  0
 23 24  1  0
 24 25  2  0
  6  2  1  0
 25  7  1  0
 17 13  1  0
 22 18  2  0
M  END
>  <energy_score>  (2944) 
-7.800996

>  <inchikey>  (2944) 
VCQJUYQDAIUTKT-UHFFFAOYSA-N

>  <smiles>  (2944) 
Cc1nccn1-c1cc(C(=O)NC2CCOC2c2cc[nH]n2)ccn1

>  <ref_pdb>  (2944) 
A0528a

>  <alias>  (2944) 
VCQJUYQDAIUTKT-UHFFFAOYSA-N-P182-P28-P182-601501

>  <HIPPO Pose ID>  (2944) 
501303

>  <name>  (2944) 
VCQJUYQDAIUTKT-UHFFFAOYSA-N-P182-P28-P182-601501

>  <HIPPO Compound ID>  (2944) 
294498

>  <ref_mols>  (2944) 
A0556a,A3435a

>  <distance_score>  (2944) 
1.920337

>  <inspiration_score>  (2944) 
None

$$$$
YDQNVLPVFDGYNB-UHFFFAOYSA-N-P182-P28-P182-601501
     RDKit          3D

 25 28  0  0  0  0  0  0  0  0999 V2000
    7.5221   14.3790   21.4659 C   0  0  0  0  0  0  0  0  0  0  0  0
    8.6012   15.4157   21.6056 C   0  0  0  0  0  0  0  0  0  0  0  0
    9.7567   15.2717   20.7568 N   0  0  0  0  0  0  0  0  0  0  0  0
    9.7481   15.8658   19.5464 N   0  0  0  0  0  0  0  0  0  0  0  0
   10.9493   15.5701   19.0597 C   0  0  0  0  0  0  0  0  0  0  0  0
   11.7169   14.7742   19.9102 C   0  0  0  0  0  0  0  0  0  0  0  0
   10.9394   14.6371   21.0252 C   0  0  0  0  0  0  0  0  0  0  0  0
   11.3212   13.7197   22.1874 C   0  0  1  0  0  0  0  0  0  0  0  0
   12.4285   13.9339   23.1542 C   0  0  0  0  0  0  0  0  0  0  0  0
   11.0307   14.1331   23.6063 C   0  0  2  0  0  0  0  0  0  0  0  0
   10.1595   13.1997   24.1812 N   0  0  0  0  0  0  0  0  0  0  0  0
    8.7075   13.3524   24.6598 C   0  0  0  0  0  0  0  0  0  0  0  0
    8.0297   14.2961   24.7241 O   0  0  0  0  0  0  0  0  0  0  0  0
    8.1137   12.0292   24.9855 C   0  0  0  0  0  0  0  0  0  0  0  0
    8.4995   10.8774   24.3051 C   0  0  0  0  0  0  0  0  0  0  0  0
    7.8637    9.7158   24.6445 C   0  0  0  0  0  0  0  0  0  0  0  0
    6.8739    9.6484   25.5618 N   0  0  0  0  0  0  0  0  0  0  0  0
    6.5012   10.7708   26.2279 C   0  0  0  0  0  0  0  0  0  0  0  0
    5.5984   10.6070   27.3352 N   0  0  0  0  0  0  0  0  0  0  0  0
    4.7957    9.5139   27.5567 C   0  0  0  0  0  0  0  0  0  0  0  0
    4.2551    9.6133   28.8037 C   0  0  0  0  0  0  0  0  0  0  0  0
    4.6527   10.7813   29.3615 N   0  0  0  0  0  0  0  0  0  0  0  0
    5.3968   11.3948   28.4534 C   0  0  0  0  0  0  0  0  0  0  0  0
    5.9692   12.7336   28.6601 C   0  0  0  0  0  0  0  0  0  0  0  0
    7.0794   11.9882   25.9209 C   0  0  0  0  0  0  0  0  0  0  0  0
  1  2  1  0
  2  3  1  0
  3  4  1  0
  4  5  2  0
  5  6  1  0
  6  7  2  0
  8  7  1  6
  8  9  1  0
  9 10  1  0
 10 11  1  1
 11 12  1  0
 12 13  2  0
 12 14  1  0
 14 15  2  0
 15 16  1  0
 16 17  2  0
 17 18  1  0
 18 19  1  0
 19 20  1  0
 20 21  2  0
 21 22  1  0
 22 23  2  0
 23 24  1  0
 18 25  2  0
  7  3  1  0
 10  8  1  0
 25 14  1  0
 23 19  1  0
M  END
>  <energy_score>  (2945) 
-5.338074

>  <inchikey>  (2945) 
YDQNVLPVFDGYNB-UHFFFAOYSA-N

>  <smiles>  (2945) 
CCn1nccc1C1CC1NC(=O)c1ccnc(-n2ccnc2C)c1

>  <ref_pdb>  (2945) 
A0528a

>  <alias>  (2945) 
YDQNVLPVFDGYNB-UHFFFAOYSA-N-P182-P28-P182-601501

>  <HIPPO Pose ID>  (2945) 
501343

>  <name>  (2945) 
YDQNVLPVFDGYNB-UHFFFAOYSA-N-P182-P28-P182-601501

>  <HIPPO Compound ID>  (2945) 
294518

>  <ref_mols>  (2945) 
A0556a,A3435a

>  <distance_score>  (2945) 
1.873302

>  <inspiration_score>  (2945) 
None

$$$$
KBSCUOAPIOAHTE-UHFFFAOYSA-N-P182-P28-P182-601501
     RDKit          3D

 25 27  0  0  0  0  0  0  0  0999 V2000
    8.4410   18.2864   19.6641 C   0  0  0  0  0  0  0  0  0  0  0  0
    8.9827   16.9711   20.0854 C   0  0  0  0  0  0  0  0  0  0  0  0
   10.0350   16.1709   19.7022 C   0  0  0  0  0  0  0  0  0  0  0  0
   10.2491   15.3258   20.8245 C   0  0  0  0  0  0  0  0  0  0  0  0
   11.5630   14.7027   21.2300 C   0  0  0  0  0  0  0  0  0  0  0  0
   12.0485   13.8738   20.2678 F   0  0  0  0  0  0  0  0  0  0  0  0
   12.5145   15.6953   21.3023 F   0  0  0  0  0  0  0  0  0  0  0  0
   11.6117   14.0303   22.6150 C   0  0  0  0  0  0  0  0  0  0  0  0
   10.5301   13.1876   23.0926 N   0  0  0  0  0  0  0  0  0  0  0  0
    9.6256   13.3255   24.3361 C   0  0  0  0  0  0  0  0  0  0  0  0
    9.6576   14.0954   25.2134 O   0  0  0  0  0  0  0  0  0  0  0  0
    8.6059   12.2300   24.4833 C   0  0  0  0  0  0  0  0  0  0  0  0
    8.9035   10.9270   24.1008 C   0  0  0  0  0  0  0  0  0  0  0  0
    8.0958    9.9269   24.5959 C   0  0  0  0  0  0  0  0  0  0  0  0
    7.0444   10.1327   25.4289 N   0  0  0  0  0  0  0  0  0  0  0  0
    6.7001   11.4068   25.7401 C   0  0  0  0  0  0  0  0  0  0  0  0
    5.5381   11.6387   26.5716 N   0  0  0  0  0  0  0  0  0  0  0  0
    4.7197   12.7473   26.5509 C   0  0  0  0  0  0  0  0  0  0  0  0
    3.6845   12.5014   27.4230 C   0  0  0  0  0  0  0  0  0  0  0  0
    3.8406   11.3043   28.0295 N   0  0  0  0  0  0  0  0  0  0  0  0
    4.9633   10.8264   27.5380 C   0  0  0  0  0  0  0  0  0  0  0  0
    5.5394    9.5976   28.0367 C   0  0  0  0  0  0  0  0  0  0  0  0
    7.4565   12.4795   25.2675 C   0  0  0  0  0  0  0  0  0  0  0  0
    9.1281   15.2695   21.5675 N   0  0  0  0  0  0  0  0  0  0  0  0
    8.4015   16.3116   21.1244 N   0  0  0  0  0  0  0  0  0  0  0  0
  1  2  1  0
  2  3  2  0
  3  4  1  0
  4  5  1  0
  5  6  1  0
  5  7  1  0
  5  8  1  0
  8  9  1  0
  9 10  1  0
 10 11  2  0
 10 12  1  0
 12 13  2  0
 13 14  1  0
 14 15  2  0
 15 16  1  0
 16 17  1  0
 17 18  1  0
 18 19  2  0
 19 20  1  0
 20 21  2  0
 21 22  1  0
 16 23  2  0
  4 24  2  0
 24 25  1  0
 25  2  1  0
 23 12  1  0
 21 17  1  0
M  END
>  <energy_score>  (2946) 
-1.349639

>  <inchikey>  (2946) 
KBSCUOAPIOAHTE-UHFFFAOYSA-N

>  <smiles>  (2946) 
Cc1cc(C(F)(F)CNC(=O)c2ccnc(-n3ccnc3C)c2)n[nH]1

>  <ref_pdb>  (2946) 
A0528a

>  <alias>  (2946) 
KBSCUOAPIOAHTE-UHFFFAOYSA-N-P182-P28-P182-601501

>  <HIPPO Pose ID>  (2946) 
501355

>  <name>  (2946) 
KBSCUOAPIOAHTE-UHFFFAOYSA-N-P182-P28-P182-601501

>  <HIPPO Compound ID>  (2946) 
294524

>  <ref_mols>  (2946) 
A0556a,A3435a

>  <distance_score>  (2946) 
1.822557

>  <inspiration_score>  (2946) 
None

$$$$
XALUFVTYCLDUBN-UHFFFAOYSA-N-P182-P28-P182-601501
     RDKit          3D

 27 29  0  0  0  0  0  0  0  0999 V2000
   14.2726   12.5702   25.4788 C   0  0  0  0  0  0  0  0  0  0  0  0
   13.4175   12.7052   24.3309 O   0  0  0  0  0  0  0  0  0  0  0  0
   12.4014   13.6208   24.3601 C   0  0  0  0  0  0  0  0  0  0  0  0
   12.1491   14.3424   25.3178 O   0  0  0  0  0  0  0  0  0  0  0  0
   11.5583   13.5415   23.0747 C   0  0  2  0  0  0  0  0  0  0  0  0
   11.2308   14.9300   22.5162 C   0  0  0  0  0  0  0  0  0  0  0  0
   11.1030   15.0012   21.0367 C   0  0  0  0  0  0  0  0  0  0  0  0
   11.9812   14.5222   20.1005 C   0  0  0  0  0  0  0  0  0  0  0  0
   11.4776   14.9319   18.8778 C   0  0  0  0  0  0  0  0  0  0  0  0
   10.3292   15.5933   18.9819 N   0  0  0  0  0  0  0  0  0  0  0  0
   10.1444   15.6830   20.3181 N   0  0  0  0  0  0  0  0  0  0  0  0
    9.1074   16.5683   20.7846 C   0  0  0  0  0  0  0  0  0  0  0  0
   10.3938   12.7745   23.4784 N   0  0  0  0  0  0  0  0  0  0  0  0
    9.1366   13.2005   24.2610 C   0  0  0  0  0  0  0  0  0  0  0  0
    8.8017   14.2514   24.6381 O   0  0  0  0  0  0  0  0  0  0  0  0
    8.2736   12.0348   24.6727 C   0  0  0  0  0  0  0  0  0  0  0  0
    8.4784   10.7322   24.2458 C   0  0  0  0  0  0  0  0  0  0  0  0
    7.7202    9.7528   24.8424 C   0  0  0  0  0  0  0  0  0  0  0  0
    6.7765    9.9677   25.7907 N   0  0  0  0  0  0  0  0  0  0  0  0
    6.5299   11.2362   26.1766 C   0  0  0  0  0  0  0  0  0  0  0  0
    5.5411   11.4957   27.2012 N   0  0  0  0  0  0  0  0  0  0  0  0
    5.1426   12.7434   27.6532 C   0  0  0  0  0  0  0  0  0  0  0  0
    4.2132   12.5307   28.6432 C   0  0  0  0  0  0  0  0  0  0  0  0
    4.0129   11.2131   28.8461 N   0  0  0  0  0  0  0  0  0  0  0  0
    4.7761   10.6080   27.9633 C   0  0  0  0  0  0  0  0  0  0  0  0
    4.7281    9.1545   27.8316 C   0  0  0  0  0  0  0  0  0  0  0  0
    7.2650   12.2870   25.6271 C   0  0  0  0  0  0  0  0  0  0  0  0
  1  2  1  0
  2  3  1  0
  3  4  2  0
  3  5  1  0
  5  6  1  1
  6  7  1  0
  7  8  2  0
  8  9  1  0
  9 10  2  0
 10 11  1  0
 11 12  1  0
  5 13  1  0
 13 14  1  0
 14 15  2  0
 14 16  1  0
 16 17  2  0
 17 18  1  0
 18 19  2  0
 19 20  1  0
 20 21  1  0
 21 22  1  0
 22 23  2  0
 23 24  1  0
 24 25  2  0
 25 26  1  0
 20 27  2  0
 11  7  1  0
 27 16  1  0
 25 21  1  0
M  END
>  <energy_score>  (2947) 
-19.633102

>  <inchikey>  (2947) 
XALUFVTYCLDUBN-UHFFFAOYSA-N

>  <smiles>  (2947) 
COC(=O)C(Cc1ccnn1C)NC(=O)c1ccnc(-n2ccnc2C)c1

>  <ref_pdb>  (2947) 
A0528a

>  <alias>  (2947) 
XALUFVTYCLDUBN-UHFFFAOYSA-N-P182-P28-P182-601501

>  <HIPPO Pose ID>  (2947) 
501447

>  <name>  (2947) 
XALUFVTYCLDUBN-UHFFFAOYSA-N-P182-P28-P182-601501

>  <HIPPO Compound ID>  (2947) 
294570

>  <ref_mols>  (2947) 
A0556a,A3435a

>  <distance_score>  (2947) 
1.713704

>  <inspiration_score>  (2947) 
None

$$$$
JWHKZRQYKFMBCX-UHFFFAOYSA-N-P182-P28-P182-601501
     RDKit          3D

 28 31  0  0  0  0  0  0  0  0999 V2000
    7.8265   19.2213   19.0077 C   0  0  0  0  0  0  0  0  0  0  0  0
    8.3327   17.9102   19.1337 O   0  0  0  0  0  0  0  0  0  0  0  0
    8.7672   17.6661   20.3868 C   0  0  0  0  0  0  0  0  0  0  0  0
    8.7381   18.4482   21.3195 O   0  0  0  0  0  0  0  0  0  0  0  0
    9.3590   16.3804   20.4238 C   0  0  0  0  0  0  0  0  0  0  0  0
   10.3677   15.9846   19.6087 N   0  0  0  0  0  0  0  0  0  0  0  0
   11.1182   15.0279   20.1613 N   0  0  0  0  0  0  0  0  0  0  0  0
   10.4268   14.6740   21.2570 C   0  0  0  0  0  0  0  0  0  0  0  0
   11.0315   13.5825   22.1797 C   0  0  0  0  0  0  0  0  0  0  0  0
   11.3654   13.7839   23.6082 C   0  0  0  0  0  0  0  0  0  0  0  0
   10.2566   12.8930   24.1891 N   0  0  0  0  0  0  0  0  0  0  0  0
    8.9484   13.2546   24.8462 C   0  0  0  0  0  0  0  0  0  0  0  0
    8.4363   14.3032   24.9962 O   0  0  0  0  0  0  0  0  0  0  0  0
    8.1667   12.0519   25.2731 C   0  0  0  0  0  0  0  0  0  0  0  0
    8.4159   10.7942   24.7424 C   0  0  0  0  0  0  0  0  0  0  0  0
    7.5614    9.7819   25.0962 C   0  0  0  0  0  0  0  0  0  0  0  0
    6.5244    9.9198   25.9562 N   0  0  0  0  0  0  0  0  0  0  0  0
    6.2614   11.1463   26.4540 C   0  0  0  0  0  0  0  0  0  0  0  0
    5.1515   11.3302   27.3551 N   0  0  0  0  0  0  0  0  0  0  0  0
    4.5603   12.5456   27.6632 C   0  0  0  0  0  0  0  0  0  0  0  0
    3.5033   12.2733   28.4961 C   0  0  0  0  0  0  0  0  0  0  0  0
    3.4224   10.9524   28.7575 N   0  0  0  0  0  0  0  0  0  0  0  0
    4.4119   10.3991   28.0895 C   0  0  0  0  0  0  0  0  0  0  0  0
    4.6208    8.9524   28.1690 C   0  0  0  0  0  0  0  0  0  0  0  0
    7.0539   12.2386   26.1052 C   0  0  0  0  0  0  0  0  0  0  0  0
   10.0711   12.6053   22.6802 C   0  0  0  0  0  0  0  0  0  0  0  0
    9.1698   15.3157   21.2638 C   0  0  0  0  0  0  0  0  0  0  0  0
    7.3220   14.9422   22.1237 I   0  0  0  0  0  0  0  0  0  0  0  0
  1  2  1  0
  2  3  1  0
  3  4  2  0
  3  5  1  0
  5  6  1  0
  6  7  1  0
  7  8  2  0
  8  9  1  0
  9 10  1  0
 10 11  1  0
 11 12  1  0
 12 13  2  0
 12 14  1  0
 14 15  2  0
 15 16  1  0
 16 17  2  0
 17 18  1  0
 18 19  1  0
 19 20  1  0
 20 21  2  0
 21 22  1  0
 22 23  2  0
 23 24  1  0
 18 25  2  0
 11 26  1  0
  8 27  1  0
 27 28  1  0
 27  5  2  0
 26  9  1  0
 25 14  1  0
 23 19  1  0
M  END
>  <energy_score>  (2948) 
-23.827076

>  <inchikey>  (2948) 
JWHKZRQYKFMBCX-UHFFFAOYSA-N

>  <smiles>  (2948) 
COC(=O)c1[nH]nc(C2CN(C(=O)c3ccnc(-n4ccnc4C)c3)C2)c1I

>  <ref_pdb>  (2948) 
A0528a

>  <alias>  (2948) 
JWHKZRQYKFMBCX-UHFFFAOYSA-N-P182-P28-P182-601501

>  <HIPPO Pose ID>  (2948) 
501501

>  <name>  (2948) 
JWHKZRQYKFMBCX-UHFFFAOYSA-N-P182-P28-P182-601501

>  <HIPPO Compound ID>  (2948) 
294597

>  <ref_mols>  (2948) 
A0556a,A3435a

>  <distance_score>  (2948) 
1.753727

>  <inspiration_score>  (2948) 
None

$$$$
SRSUZGMFMJMMIE-UHFFFAOYSA-N-P182-P28-P182-601501
     RDKit          3D

 28 32  0  0  0  0  0  0  0  0999 V2000
    4.2531   13.4841   26.6745 C   0  0  0  0  0  0  0  0  0  0  0  0
    4.5525   12.2287   27.3911 C   0  0  0  0  0  0  0  0  0  0  0  0
    3.8250   11.7597   28.3895 N   0  0  0  0  0  0  0  0  0  0  0  0
    4.2625   10.4965   28.6273 C   0  0  0  0  0  0  0  0  0  0  0  0
    5.2796   10.1988   27.7697 C   0  0  0  0  0  0  0  0  0  0  0  0
    5.5371   11.3383   27.0338 N   0  0  0  0  0  0  0  0  0  0  0  0
    6.5778   11.4547   26.0807 C   0  0  0  0  0  0  0  0  0  0  0  0
    7.0415   12.6617   25.5956 C   0  0  0  0  0  0  0  0  0  0  0  0
    8.0468   12.6301   24.6290 C   0  0  0  0  0  0  0  0  0  0  0  0
    8.6709   13.9150   24.2430 C   0  0  0  0  0  0  0  0  0  0  0  0
    8.0170   14.8582   24.0578 O   0  0  0  0  0  0  0  0  0  0  0  0
   10.1981   13.7420   24.2239 N   0  0  0  0  0  0  0  0  0  0  0  0
   11.2060   14.6420   23.8909 C   0  0  1  0  0  0  0  0  0  0  0  0
   12.3618   14.0613   23.1552 C   0  0  0  0  0  0  0  0  0  0  0  0
   11.6044   15.2262   22.5736 C   0  0  1  0  0  0  0  0  0  0  0  0
   11.0768   15.0541   21.1365 C   0  0  0  0  0  0  0  0  0  0  0  0
   11.8869   14.4710   20.1985 C   0  0  0  0  0  0  0  0  0  0  0  0
   11.3575   14.8401   18.9755 C   0  0  0  0  0  0  0  0  0  0  0  0
   10.2339   15.5414   19.0831 N   0  0  0  0  0  0  0  0  0  0  0  0
   10.0842   15.6851   20.4254 N   0  0  0  0  0  0  0  0  0  0  0  0
    9.0716   16.6043   20.8705 C   0  0  0  0  0  0  0  0  0  0  0  0
    8.5186   11.4115   24.1097 C   0  0  0  0  0  0  0  0  0  0  0  0
    9.4308   11.2241   23.0519 C   0  0  0  0  0  0  0  0  0  0  0  0
    9.7991    9.9523   22.6464 C   0  0  0  0  0  0  0  0  0  0  0  0
    9.3220    8.8530   23.2888 C   0  0  0  0  0  0  0  0  0  0  0  0
    8.4140    9.0577   24.2981 C   0  0  0  0  0  0  0  0  0  0  0  0
    8.0050   10.2846   24.7190 C   0  0  0  0  0  0  0  0  0  0  0  0
    7.1178   10.2899   25.7017 N   0  0  0  0  0  0  0  0  0  0  0  0
  1  2  1  0
  2  3  2  0
  3  4  1  0
  4  5  2  0
  5  6  1  0
  6  7  1  0
  7  8  2  0
  8  9  1  0
  9 10  1  0
 10 11  2  0
 10 12  1  0
 13 12  1  6
 13 14  1  0
 14 15  1  0
 15 16  1  6
 16 17  2  0
 17 18  1  0
 18 19  2  0
 19 20  1  0
 20 21  1  0
  9 22  2  0
 22 23  1  0
 23 24  2  0
 24 25  1  0
 25 26  2  0
 26 27  1  0
 27 28  2  0
  6  2  1  0
 28  7  1  0
 15 13  1  0
 20 16  1  0
 27 22  1  0
M  END
>  <energy_score>  (2949) 
-6.004908

>  <inchikey>  (2949) 
SRSUZGMFMJMMIE-UHFFFAOYSA-N

>  <smiles>  (2949) 
Cc1nccn1-c1cc(C(=O)NC2CC2c2ccnn2C)c2ccccc2n1

>  <ref_pdb>  (2949) 
A0528a

>  <alias>  (2949) 
SRSUZGMFMJMMIE-UHFFFAOYSA-N-P182-P28-P182-601501

>  <HIPPO Pose ID>  (2949) 
501509

>  <name>  (2949) 
SRSUZGMFMJMMIE-UHFFFAOYSA-N-P182-P28-P182-601501

>  <HIPPO Compound ID>  (2949) 
294601

>  <ref_mols>  (2949) 
A0556a,A3435a

>  <distance_score>  (2949) 
1.980613

>  <inspiration_score>  (2949) 
None

$$$$
AUVHKVNKJKAPGI-UHFFFAOYSA-N-P308-P15-P308-601501
     RDKit          3D

 17 18  0  0  0  0  0  0  0  0999 V2000
    7.9588   14.1413   22.4259 C   0  0  0  0  0  0  0  0  0  0  0  0
    9.2679   14.0152   23.1924 C   0  0  0  0  0  0  0  0  0  0  0  0
    9.3322   12.8215   24.0707 N   0  0  0  0  0  0  0  0  0  0  0  0
   10.5797   12.5421   24.6805 N   0  0  0  0  0  0  0  0  0  0  0  0
    8.2262   12.5437   24.8838 C   0  0  0  0  0  0  0  0  0  0  0  0
    7.5849   13.5687   25.5682 C   0  0  0  0  0  0  0  0  0  0  0  0
    6.4525   13.4438   26.2766 N   0  0  0  0  0  0  0  0  0  0  0  0
    5.8730   12.2309   26.3428 C   0  0  0  0  0  0  0  0  0  0  0  0
    4.5461   12.1844   27.0225 C   0  0  0  0  0  0  0  0  0  0  0  0
    4.2948   11.3855   28.2676 C   0  0  0  0  0  0  0  0  0  0  0  0
    4.4285   12.8760   28.3637 C   0  0  0  0  0  0  0  0  0  0  0  0
    6.4732   11.1209   25.7772 C   0  0  0  0  0  0  0  0  0  0  0  0
    7.6661   11.2689   25.0516 C   0  0  0  0  0  0  0  0  0  0  0  0
    8.1876    9.9996   24.4937 C   0  0  0  0  0  0  0  0  0  0  0  0
    7.7724    8.9214   24.9010 O   0  0  0  0  0  0  0  0  0  0  0  0
    9.0577   10.1658   23.4803 O   0  0  0  0  0  0  0  0  0  0  0  0
    9.5722    8.9434   22.9605 C   0  0  0  0  0  0  0  0  0  0  0  0
  1  2  1  0
  2  3  1  0
  3  4  1  0
  3  5  1  0
  5  6  2  0
  6  7  1  0
  7  8  2  0
  8  9  1  0
  9 10  1  0
 10 11  1  0
  8 12  1  0
 12 13  2  0
 13 14  1  0
 14 15  2  0
 14 16  1  0
 16 17  1  0
 13  5  1  0
 11  9  1  0
M  END
>  <energy_score>  (2950) 
-27.418614

>  <inchikey>  (2950) 
AUVHKVNKJKAPGI-UHFFFAOYSA-N

>  <smiles>  (2950) 
CCN(N)c1cnc(C2CC2)cc1C(=O)OC

>  <ref_pdb>  (2950) 
A0528a

>  <alias>  (2950) 
AUVHKVNKJKAPGI-UHFFFAOYSA-N-P308-P15-P308-601501

>  <HIPPO Pose ID>  (2950) 
501625

>  <name>  (2950) 
AUVHKVNKJKAPGI-UHFFFAOYSA-N-P308-P15-P308-601501

>  <HIPPO Compound ID>  (2950) 
292526

>  <ref_mols>  (2950) 
A4331a,A0514a

>  <distance_score>  (2950) 
1.808149

>  <inspiration_score>  (2950) 
None

$$$$
DVXCEQZJZBEIOB-UHFFFAOYSA-N-P15-P15-P308-601501
     RDKit          3D

 18 19  0  0  0  0  0  0  0  0999 V2000
    9.4241    8.4322   23.1844 C   0  0  0  0  0  0  0  0  0  0  0  0
    8.6585    9.2272   24.0915 O   0  0  0  0  0  0  0  0  0  0  0  0
    8.7475   10.5536   23.8594 C   0  0  0  0  0  0  0  0  0  0  0  0
    9.3866   11.0738   22.9613 O   0  0  0  0  0  0  0  0  0  0  0  0
    7.9198   11.3181   24.8200 C   0  0  0  0  0  0  0  0  0  0  0  0
    6.8863   10.6975   25.5306 C   0  0  0  0  0  0  0  0  0  0  0  0
    6.1337   11.4567   26.4179 C   0  0  0  0  0  0  0  0  0  0  0  0
    5.1271   10.8549   27.3560 C   0  0  0  0  0  0  0  0  0  0  0  0
    3.9360   11.6737   27.8093 C   0  0  0  0  0  0  0  0  0  0  0  0
    5.0607   11.4194   28.7628 C   0  0  0  0  0  0  0  0  0  0  0  0
    6.3365   12.7879   26.5475 N   0  0  0  0  0  0  0  0  0  0  0  0
    7.3241   13.3625   25.8522 C   0  0  0  0  0  0  0  0  0  0  0  0
    8.1865   12.6795   25.0142 C   0  0  0  0  0  0  0  0  0  0  0  0
    9.3072   13.3200   24.4541 N   0  0  0  0  0  0  0  0  0  0  0  0
   10.1412   14.0113   25.3761 N   0  0  0  0  0  0  0  0  0  0  0  0
    8.9749   13.9847   23.1697 C   0  0  0  0  0  0  0  0  0  0  0  0
   10.2440   14.2268   22.3606 C   0  0  0  0  0  0  0  0  0  0  0  0
   11.1275   14.9525   23.1108 F   0  0  0  0  0  0  0  0  0  0  0  0
  1  2  1  0
  2  3  1  0
  3  4  2  0
  3  5  1  0
  5  6  2  0
  6  7  1  0
  7  8  1  0
  8  9  1  0
  9 10  1  0
  7 11  2  0
 11 12  1  0
 12 13  2  0
 13 14  1  0
 14 15  1  0
 14 16  1  0
 16 17  1  0
 17 18  1  0
 13  5  1  0
 10  8  1  0
M  END
>  <energy_score>  (2951) 
-27.948667

>  <inchikey>  (2951) 
DVXCEQZJZBEIOB-UHFFFAOYSA-N

>  <smiles>  (2951) 
COC(=O)c1cc(C2CC2)ncc1N(N)CCF

>  <ref_pdb>  (2951) 
A0528a

>  <alias>  (2951) 
DVXCEQZJZBEIOB-UHFFFAOYSA-N-P15-P15-P308-601501

>  <HIPPO Pose ID>  (2951) 
501628

>  <name>  (2951) 
DVXCEQZJZBEIOB-UHFFFAOYSA-N-P15-P15-P308-601501

>  <HIPPO Compound ID>  (2951) 
292528

>  <ref_mols>  (2951) 
A4331a,A0514a

>  <distance_score>  (2951) 
1.469598

>  <inspiration_score>  (2951) 
None

$$$$
DVXCEQZJZBEIOB-UHFFFAOYSA-N-P308-P15-P308-601501
     RDKit          3D

 18 19  0  0  0  0  0  0  0  0999 V2000
    9.4652    8.6003   23.1066 C   0  0  0  0  0  0  0  0  0  0  0  0
    8.5737    9.4713   23.7923 O   0  0  0  0  0  0  0  0  0  0  0  0
    9.1911   10.4631   24.4719 C   0  0  0  0  0  0  0  0  0  0  0  0
   10.3919   10.6211   24.6293 O   0  0  0  0  0  0  0  0  0  0  0  0
    8.1311   11.3605   24.9772 C   0  0  0  0  0  0  0  0  0  0  0  0
    7.0342   10.7975   25.6442 C   0  0  0  0  0  0  0  0  0  0  0  0
    6.0898   11.6394   26.2135 C   0  0  0  0  0  0  0  0  0  0  0  0
    5.0180   11.1516   27.1498 C   0  0  0  0  0  0  0  0  0  0  0  0
    3.8109   12.0157   27.4520 C   0  0  0  0  0  0  0  0  0  0  0  0
    4.8873   11.8777   28.4792 C   0  0  0  0  0  0  0  0  0  0  0  0
    6.1759   12.9770   26.0551 N   0  0  0  0  0  0  0  0  0  0  0  0
    7.2100   13.4873   25.3688 C   0  0  0  0  0  0  0  0  0  0  0  0
    8.2376   12.7444   24.8090 C   0  0  0  0  0  0  0  0  0  0  0  0
    9.3242   13.3509   24.1492 N   0  0  0  0  0  0  0  0  0  0  0  0
   10.4898   13.4108   24.9757 N   0  0  0  0  0  0  0  0  0  0  0  0
    8.9770   14.5627   23.3661 C   0  0  0  0  0  0  0  0  0  0  0  0
   10.1169   14.9649   22.4432 C   0  0  0  0  0  0  0  0  0  0  0  0
   11.1573   15.4144   23.2086 F   0  0  0  0  0  0  0  0  0  0  0  0
  1  2  1  0
  2  3  1  0
  3  4  2  0
  3  5  1  0
  5  6  2  0
  6  7  1  0
  7  8  1  0
  8  9  1  0
  9 10  1  0
  7 11  2  0
 11 12  1  0
 12 13  2  0
 13 14  1  0
 14 15  1  0
 14 16  1  0
 16 17  1  0
 17 18  1  0
 13  5  1  0
 10  8  1  0
M  END
>  <energy_score>  (2952) 
-32.093459

>  <inchikey>  (2952) 
DVXCEQZJZBEIOB-UHFFFAOYSA-N

>  <smiles>  (2952) 
COC(=O)c1cc(C2CC2)ncc1N(N)CCF

>  <ref_pdb>  (2952) 
A0528a

>  <alias>  (2952) 
DVXCEQZJZBEIOB-UHFFFAOYSA-N-P308-P15-P308-601501

>  <HIPPO Pose ID>  (2952) 
501629

>  <name>  (2952) 
DVXCEQZJZBEIOB-UHFFFAOYSA-N-P308-P15-P308-601501

>  <HIPPO Compound ID>  (2952) 
292528

>  <ref_mols>  (2952) 
A4331a,A0514a

>  <distance_score>  (2952) 
1.333948

>  <inspiration_score>  (2952) 
None

$$$$
WSWLXYHAJMPWAD-UHFFFAOYSA-N-P15-P15-P308-601501
     RDKit          3D

 18 20  0  0  0  0  0  0  0  0999 V2000
    9.3442    8.4814   22.9279 C   0  0  0  0  0  0  0  0  0  0  0  0
    8.4595    9.2787   23.7100 O   0  0  0  0  0  0  0  0  0  0  0  0
    8.9450   10.5169   23.9426 C   0  0  0  0  0  0  0  0  0  0  0  0
   10.0384   10.9268   23.5905 O   0  0  0  0  0  0  0  0  0  0  0  0
    7.9700   11.3087   24.7267 C   0  0  0  0  0  0  0  0  0  0  0  0
    7.0468   10.6531   25.5539 C   0  0  0  0  0  0  0  0  0  0  0  0
    6.2018   11.4056   26.3577 C   0  0  0  0  0  0  0  0  0  0  0  0
    5.2375   10.7888   27.3280 C   0  0  0  0  0  0  0  0  0  0  0  0
    5.2885   11.2222   28.7751 C   0  0  0  0  0  0  0  0  0  0  0  0
    4.1388   11.6540   27.9203 C   0  0  0  0  0  0  0  0  0  0  0  0
    6.2572   12.7529   26.3488 N   0  0  0  0  0  0  0  0  0  0  0  0
    7.0939   13.3601   25.4942 C   0  0  0  0  0  0  0  0  0  0  0  0
    7.9812   12.7059   24.6549 C   0  0  0  0  0  0  0  0  0  0  0  0
    8.7732   13.4318   23.7366 N   0  0  0  0  0  0  0  0  0  0  0  0
   10.1465   13.5401   24.0679 N   0  0  0  0  0  0  0  0  0  0  0  0
    8.1829   14.6316   23.1276 C   0  0  0  0  0  0  0  0  0  0  0  0
    7.1345   14.5895   22.0617 C   0  0  0  0  0  0  0  0  0  0  0  0
    8.5372   14.9823   21.7072 C   0  0  0  0  0  0  0  0  0  0  0  0
  1  2  1  0
  2  3  1  0
  3  4  2  0
  3  5  1  0
  5  6  2  0
  6  7  1  0
  7  8  1  0
  8  9  1  0
  9 10  1  0
  7 11  2  0
 11 12  1  0
 12 13  2  0
 13 14  1  0
 14 15  1  0
 14 16  1  0
 16 17  1  0
 17 18  1  0
 13  5  1  0
 18 16  1  0
 10  8  1  0
M  END
>  <energy_score>  (2953) 
-24.529725

>  <inchikey>  (2953) 
WSWLXYHAJMPWAD-UHFFFAOYSA-N

>  <smiles>  (2953) 
COC(=O)c1cc(C2CC2)ncc1N(N)C1CC1

>  <ref_pdb>  (2953) 
A0528a

>  <alias>  (2953) 
WSWLXYHAJMPWAD-UHFFFAOYSA-N-P15-P15-P308-601501

>  <HIPPO Pose ID>  (2953) 
501632

>  <name>  (2953) 
WSWLXYHAJMPWAD-UHFFFAOYSA-N-P15-P15-P308-601501

>  <HIPPO Compound ID>  (2953) 
292530

>  <ref_mols>  (2953) 
A4331a,A0514a

>  <distance_score>  (2953) 
1.693383

>  <inspiration_score>  (2953) 
None

$$$$
WSWLXYHAJMPWAD-UHFFFAOYSA-N-P308-P15-P308-601501
     RDKit          3D

 18 20  0  0  0  0  0  0  0  0999 V2000
    9.6286    8.4848   23.4868 C   0  0  0  0  0  0  0  0  0  0  0  0
    8.8795    9.3485   24.3354 O   0  0  0  0  0  0  0  0  0  0  0  0
    8.8532   10.6204   23.8775 C   0  0  0  0  0  0  0  0  0  0  0  0
    9.3472   11.0111   22.8333 O   0  0  0  0  0  0  0  0  0  0  0  0
    8.1156   11.4890   24.8132 C   0  0  0  0  0  0  0  0  0  0  0  0
    7.0173   10.9407   25.4989 C   0  0  0  0  0  0  0  0  0  0  0  0
    6.2182   11.7688   26.2737 C   0  0  0  0  0  0  0  0  0  0  0  0
    5.0385   11.2677   27.0591 C   0  0  0  0  0  0  0  0  0  0  0  0
    4.8098   11.7890   28.4618 C   0  0  0  0  0  0  0  0  0  0  0  0
    3.9047   12.2330   27.3573 C   0  0  0  0  0  0  0  0  0  0  0  0
    6.4851   13.0888   26.3719 N   0  0  0  0  0  0  0  0  0  0  0  0
    7.5285   13.5908   25.6913 C   0  0  0  0  0  0  0  0  0  0  0  0
    8.4024   12.8555   24.9045 C   0  0  0  0  0  0  0  0  0  0  0  0
    9.4539   13.5575   24.2720 N   0  0  0  0  0  0  0  0  0  0  0  0
   10.6948   12.9399   24.0746 N   0  0  0  0  0  0  0  0  0  0  0  0
    9.0872   14.6825   23.3867 C   0  0  0  0  0  0  0  0  0  0  0  0
    8.0176   14.5401   22.3321 C   0  0  0  0  0  0  0  0  0  0  0  0
    9.4500   14.7098   21.9269 C   0  0  0  0  0  0  0  0  0  0  0  0
  1  2  1  0
  2  3  1  0
  3  4  2  0
  3  5  1  0
  5  6  2  0
  6  7  1  0
  7  8  1  0
  8  9  1  0
  9 10  1  0
  7 11  2  0
 11 12  1  0
 12 13  2  0
 13 14  1  0
 14 15  1  0
 14 16  1  0
 16 17  1  0
 17 18  1  0
 13  5  1  0
 18 16  1  0
 10  8  1  0
M  END
>  <energy_score>  (2954) 
-24.212054

>  <inchikey>  (2954) 
WSWLXYHAJMPWAD-UHFFFAOYSA-N

>  <smiles>  (2954) 
COC(=O)c1cc(C2CC2)ncc1N(N)C1CC1

>  <ref_pdb>  (2954) 
A0528a

>  <alias>  (2954) 
WSWLXYHAJMPWAD-UHFFFAOYSA-N-P308-P15-P308-601501

>  <HIPPO Pose ID>  (2954) 
501633

>  <name>  (2954) 
WSWLXYHAJMPWAD-UHFFFAOYSA-N-P308-P15-P308-601501

>  <HIPPO Compound ID>  (2954) 
292530

>  <ref_mols>  (2954) 
A4331a,A0514a

>  <distance_score>  (2954) 
1.543426

>  <inspiration_score>  (2954) 
None

$$$$
NEDFGYNJSPLQQP-UHFFFAOYSA-N-P15-P15-P308-601501
     RDKit          3D

 18 19  0  0  0  0  0  0  0  0999 V2000
   10.0687   15.0444   21.2910 C   0  0  0  0  0  0  0  0  0  0  0  0
    9.8207   14.3677   22.2517 C   0  0  0  0  0  0  0  0  0  0  0  0
    9.4765   13.5663   23.4311 C   0  0  0  0  0  0  0  0  0  0  0  0
    8.1395   12.9335   23.3232 N   0  0  0  0  0  0  0  0  0  0  0  0
    7.1398   13.5308   22.4627 N   0  0  0  0  0  0  0  0  0  0  0  0
    7.6288   12.5436   24.5790 C   0  0  0  0  0  0  0  0  0  0  0  0
    7.0675   13.4978   25.4199 C   0  0  0  0  0  0  0  0  0  0  0  0
    6.3251   13.2222   26.5028 N   0  0  0  0  0  0  0  0  0  0  0  0
    6.0137   11.9347   26.7564 C   0  0  0  0  0  0  0  0  0  0  0  0
    5.0224   11.6513   27.8424 C   0  0  0  0  0  0  0  0  0  0  0  0
    5.1008   12.4159   29.1381 C   0  0  0  0  0  0  0  0  0  0  0  0
    3.9912   12.7088   28.1739 C   0  0  0  0  0  0  0  0  0  0  0  0
    6.5929   10.9160   26.0293 C   0  0  0  0  0  0  0  0  0  0  0  0
    7.4552   11.2166   24.9687 C   0  0  0  0  0  0  0  0  0  0  0  0
    8.0646   10.0313   24.3463 C   0  0  0  0  0  0  0  0  0  0  0  0
    7.6651    8.9184   24.6527 O   0  0  0  0  0  0  0  0  0  0  0  0
    9.1050   10.2987   23.5363 O   0  0  0  0  0  0  0  0  0  0  0  0
    9.6853    9.1207   22.9719 C   0  0  0  0  0  0  0  0  0  0  0  0
  1  2  3  0
  2  3  1  0
  3  4  1  0
  4  5  1  0
  4  6  1  0
  6  7  2  0
  7  8  1  0
  8  9  2  0
  9 10  1  0
 10 11  1  0
 11 12  1  0
  9 13  1  0
 13 14  2  0
 14 15  1  0
 15 16  2  0
 15 17  1  0
 17 18  1  0
 14  6  1  0
 12 10  1  0
M  END
>  <energy_score>  (2955) 
-21.610818

>  <inchikey>  (2955) 
NEDFGYNJSPLQQP-UHFFFAOYSA-N

>  <smiles>  (2955) 
C#CCN(N)c1cnc(C2CC2)cc1C(=O)OC

>  <ref_pdb>  (2955) 
A0528a

>  <alias>  (2955) 
NEDFGYNJSPLQQP-UHFFFAOYSA-N-P15-P15-P308-601501

>  <HIPPO Pose ID>  (2955) 
501634

>  <name>  (2955) 
NEDFGYNJSPLQQP-UHFFFAOYSA-N-P15-P15-P308-601501

>  <HIPPO Compound ID>  (2955) 
292531

>  <ref_mols>  (2955) 
A4331a,A0514a

>  <distance_score>  (2955) 
1.758877

>  <inspiration_score>  (2955) 
None

$$$$
NEDFGYNJSPLQQP-UHFFFAOYSA-N-P308-P15-P308-601501
     RDKit          3D

 18 19  0  0  0  0  0  0  0  0999 V2000
    8.9389   15.5151   21.9377 C   0  0  0  0  0  0  0  0  0  0  0  0
    9.4176   14.5420   22.4538 C   0  0  0  0  0  0  0  0  0  0  0  0
   10.0475   13.3454   23.0367 C   0  0  0  0  0  0  0  0  0  0  0  0
    9.9782   13.3314   24.5171 N   0  0  0  0  0  0  0  0  0  0  0  0
   10.6969   14.3368   25.2204 N   0  0  0  0  0  0  0  0  0  0  0  0
    8.7419   12.8931   25.0321 C   0  0  0  0  0  0  0  0  0  0  0  0
    7.8497   13.7941   25.5859 C   0  0  0  0  0  0  0  0  0  0  0  0
    6.6472   13.4753   26.0862 N   0  0  0  0  0  0  0  0  0  0  0  0
    6.2352   12.1911   26.0420 C   0  0  0  0  0  0  0  0  0  0  0  0
    4.8550   11.9798   26.5745 C   0  0  0  0  0  0  0  0  0  0  0  0
    4.5110   11.1009   27.7417 C   0  0  0  0  0  0  0  0  0  0  0  0
    4.5657   12.5830   27.9391 C   0  0  0  0  0  0  0  0  0  0  0  0
    7.0474   11.1976   25.5137 C   0  0  0  0  0  0  0  0  0  0  0  0
    8.3132   11.5552   25.0141 C   0  0  0  0  0  0  0  0  0  0  0  0
    9.2195   10.4976   24.5058 C   0  0  0  0  0  0  0  0  0  0  0  0
   10.4352   10.5134   24.5837 O   0  0  0  0  0  0  0  0  0  0  0  0
    8.4758    9.5617   23.8667 O   0  0  0  0  0  0  0  0  0  0  0  0
    9.2712    8.5977   23.1808 C   0  0  0  0  0  0  0  0  0  0  0  0
  1  2  3  0
  2  3  1  0
  3  4  1  0
  4  5  1  0
  4  6  1  0
  6  7  2  0
  7  8  1  0
  8  9  2  0
  9 10  1  0
 10 11  1  0
 11 12  1  0
  9 13  1  0
 13 14  2  0
 14 15  1  0
 15 16  2  0
 15 17  1  0
 17 18  1  0
 14  6  1  0
 12 10  1  0
M  END
>  <energy_score>  (2956) 
-31.131242

>  <inchikey>  (2956) 
NEDFGYNJSPLQQP-UHFFFAOYSA-N

>  <smiles>  (2956) 
C#CCN(N)c1cnc(C2CC2)cc1C(=O)OC

>  <ref_pdb>  (2956) 
A0528a

>  <alias>  (2956) 
NEDFGYNJSPLQQP-UHFFFAOYSA-N-P308-P15-P308-601501

>  <HIPPO Pose ID>  (2956) 
501635

>  <name>  (2956) 
NEDFGYNJSPLQQP-UHFFFAOYSA-N-P308-P15-P308-601501

>  <HIPPO Compound ID>  (2956) 
292531

>  <ref_mols>  (2956) 
A4331a,A0514a

>  <distance_score>  (2956) 
1.63617

>  <inspiration_score>  (2956) 
None

$$$$
HLXQGMWZSXOTMQ-UHFFFAOYSA-N-P15-P15-P308-601501
     RDKit          3D

 18 19  0  0  0  0  0  0  0  0999 V2000
   10.6829   14.0477   21.4267 C   0  0  0  0  0  0  0  0  0  0  0  0
    9.7547   14.7622   22.3450 C   0  0  0  0  0  0  0  0  0  0  0  0
    8.6930   13.9226   23.0422 C   0  0  0  0  0  0  0  0  0  0  0  0
    9.2392   12.9959   24.0841 N   0  0  0  0  0  0  0  0  0  0  0  0
   10.3552   13.4810   24.8428 N   0  0  0  0  0  0  0  0  0  0  0  0
    8.1645   12.5586   24.9082 C   0  0  0  0  0  0  0  0  0  0  0  0
    7.5269   13.4715   25.7476 C   0  0  0  0  0  0  0  0  0  0  0  0
    6.5074   13.1906   26.5763 N   0  0  0  0  0  0  0  0  0  0  0  0
    6.0148   11.9373   26.5894 C   0  0  0  0  0  0  0  0  0  0  0  0
    4.8404   11.6560   27.4772 C   0  0  0  0  0  0  0  0  0  0  0  0
    4.6733   12.4204   28.7670 C   0  0  0  0  0  0  0  0  0  0  0  0
    3.7721   12.7200   27.6075 C   0  0  0  0  0  0  0  0  0  0  0  0
    6.5923   10.9508   25.8158 C   0  0  0  0  0  0  0  0  0  0  0  0
    7.6882   11.2476   24.9858 C   0  0  0  0  0  0  0  0  0  0  0  0
    8.2520   10.0521   24.3337 C   0  0  0  0  0  0  0  0  0  0  0  0
    7.8519    8.9438   24.6639 O   0  0  0  0  0  0  0  0  0  0  0  0
    9.1980   10.2954   23.4110 O   0  0  0  0  0  0  0  0  0  0  0  0
    9.7210    9.0904   22.8491 C   0  0  0  0  0  0  0  0  0  0  0  0
  1  2  1  0
  2  3  1  0
  3  4  1  0
  4  5  1  0
  4  6  1  0
  6  7  2  0
  7  8  1  0
  8  9  2  0
  9 10  1  0
 10 11  1  0
 11 12  1  0
  9 13  1  0
 13 14  2  0
 14 15  1  0
 15 16  2  0
 15 17  1  0
 17 18  1  0
 14  6  1  0
 12 10  1  0
M  END
>  <energy_score>  (2957) 
-24.484635

>  <inchikey>  (2957) 
HLXQGMWZSXOTMQ-UHFFFAOYSA-N

>  <smiles>  (2957) 
CCCN(N)c1cnc(C2CC2)cc1C(=O)OC

>  <ref_pdb>  (2957) 
A0528a

>  <alias>  (2957) 
HLXQGMWZSXOTMQ-UHFFFAOYSA-N-P15-P15-P308-601501

>  <HIPPO Pose ID>  (2957) 
501636

>  <name>  (2957) 
HLXQGMWZSXOTMQ-UHFFFAOYSA-N-P15-P15-P308-601501

>  <HIPPO Compound ID>  (2957) 
292532

>  <ref_mols>  (2957) 
A4331a,A0514a

>  <distance_score>  (2957) 
1.61255

>  <inspiration_score>  (2957) 
None

$$$$
HLXQGMWZSXOTMQ-UHFFFAOYSA-N-P308-P15-P308-601501
     RDKit          3D

 18 19  0  0  0  0  0  0  0  0999 V2000
    9.7277   15.5746   21.4667 C   0  0  0  0  0  0  0  0  0  0  0  0
   10.0371   14.3473   22.3060 C   0  0  0  0  0  0  0  0  0  0  0  0
    9.0505   14.1941   23.4558 C   0  0  0  0  0  0  0  0  0  0  0  0
    9.1584   12.8587   24.0855 N   0  0  0  0  0  0  0  0  0  0  0  0
   10.4227   12.4718   24.5992 N   0  0  0  0  0  0  0  0  0  0  0  0
    8.0463   12.4397   24.8436 C   0  0  0  0  0  0  0  0  0  0  0  0
    7.2783   13.3770   25.5307 C   0  0  0  0  0  0  0  0  0  0  0  0
    6.2365   13.1016   26.3310 N   0  0  0  0  0  0  0  0  0  0  0  0
    5.8436   11.8230   26.4653 C   0  0  0  0  0  0  0  0  0  0  0  0
    4.6976   11.5445   27.3898 C   0  0  0  0  0  0  0  0  0  0  0  0
    4.6426   12.2521   28.7227 C   0  0  0  0  0  0  0  0  0  0  0  0
    3.6782   12.6341   27.6411 C   0  0  0  0  0  0  0  0  0  0  0  0
    6.5182   10.8128   25.8102 C   0  0  0  0  0  0  0  0  0  0  0  0
    7.6401   11.1063   25.0170 C   0  0  0  0  0  0  0  0  0  0  0  0
    8.2578    9.8932   24.4305 C   0  0  0  0  0  0  0  0  0  0  0  0
    7.9072    8.7766   24.7875 O   0  0  0  0  0  0  0  0  0  0  0  0
    9.1713   10.1477   23.4774 O   0  0  0  0  0  0  0  0  0  0  0  0
    9.6795    8.9687   22.8569 C   0  0  0  0  0  0  0  0  0  0  0  0
  1  2  1  0
  2  3  1  0
  3  4  1  0
  4  5  1  0
  4  6  1  0
  6  7  2  0
  7  8  1  0
  8  9  2  0
  9 10  1  0
 10 11  1  0
 11 12  1  0
  9 13  1  0
 13 14  2  0
 14 15  1  0
 15 16  2  0
 15 17  1  0
 17 18  1  0
 14  6  1  0
 12 10  1  0
M  END
>  <energy_score>  (2958) 
-29.610736

>  <inchikey>  (2958) 
HLXQGMWZSXOTMQ-UHFFFAOYSA-N

>  <smiles>  (2958) 
CCCN(N)c1cnc(C2CC2)cc1C(=O)OC

>  <ref_pdb>  (2958) 
A0528a

>  <alias>  (2958) 
HLXQGMWZSXOTMQ-UHFFFAOYSA-N-P308-P15-P308-601501

>  <HIPPO Pose ID>  (2958) 
501637

>  <name>  (2958) 
HLXQGMWZSXOTMQ-UHFFFAOYSA-N-P308-P15-P308-601501

>  <HIPPO Compound ID>  (2958) 
292532

>  <ref_mols>  (2958) 
A4331a,A0514a

>  <distance_score>  (2958) 
1.806435

>  <inspiration_score>  (2958) 
None

$$$$
SBZPRWJMGAJEGS-UHFFFAOYSA-N-P15-P15-P308-601501
     RDKit          3D

 18 19  0  0  0  0  0  0  0  0999 V2000
    9.1806    8.3299   22.8393 C   0  0  0  0  0  0  0  0  0  0  0  0
    8.3335    9.1495   23.6357 O   0  0  0  0  0  0  0  0  0  0  0  0
    8.9446   10.3086   23.9550 C   0  0  0  0  0  0  0  0  0  0  0  0
   10.1008   10.5826   23.6789 O   0  0  0  0  0  0  0  0  0  0  0  0
    8.0297   11.1864   24.7158 C   0  0  0  0  0  0  0  0  0  0  0  0
    7.0473   10.6254   25.5423 C   0  0  0  0  0  0  0  0  0  0  0  0
    6.2962   11.4613   26.3569 C   0  0  0  0  0  0  0  0  0  0  0  0
    5.3006   10.9467   27.3592 C   0  0  0  0  0  0  0  0  0  0  0  0
    4.0938   11.7877   27.7194 C   0  0  0  0  0  0  0  0  0  0  0  0
    5.2184   11.6562   28.6980 C   0  0  0  0  0  0  0  0  0  0  0  0
    6.5007   12.7960   26.3516 N   0  0  0  0  0  0  0  0  0  0  0  0
    7.4056   13.3157   25.5076 C   0  0  0  0  0  0  0  0  0  0  0  0
    8.1951   12.5747   24.6431 C   0  0  0  0  0  0  0  0  0  0  0  0
    9.0909   13.1776   23.7383 N   0  0  0  0  0  0  0  0  0  0  0  0
   10.4436   13.1747   24.2314 N   0  0  0  0  0  0  0  0  0  0  0  0
    8.6128   14.4064   23.0578 C   0  0  0  0  0  0  0  0  0  0  0  0
    7.2424   14.2514   22.4055 C   0  0  0  0  0  0  0  0  0  0  0  0
    9.5922   14.8064   21.9460 C   0  0  0  0  0  0  0  0  0  0  0  0
  1  2  1  0
  2  3  1  0
  3  4  2  0
  3  5  1  0
  5  6  2  0
  6  7  1  0
  7  8  1  0
  8  9  1  0
  9 10  1  0
  7 11  2  0
 11 12  1  0
 12 13  2  0
 13 14  1  0
 14 15  1  0
 14 16  1  0
 16 17  1  0
 16 18  1  0
 13  5  1  0
 10  8  1  0
M  END
>  <energy_score>  (2959) 
-39.717224

>  <inchikey>  (2959) 
SBZPRWJMGAJEGS-UHFFFAOYSA-N

>  <smiles>  (2959) 
COC(=O)c1cc(C2CC2)ncc1N(N)C(C)C

>  <ref_pdb>  (2959) 
A0528a

>  <alias>  (2959) 
SBZPRWJMGAJEGS-UHFFFAOYSA-N-P15-P15-P308-601501

>  <HIPPO Pose ID>  (2959) 
501638

>  <name>  (2959) 
SBZPRWJMGAJEGS-UHFFFAOYSA-N-P15-P15-P308-601501

>  <HIPPO Compound ID>  (2959) 
292533

>  <ref_mols>  (2959) 
A4331a,A0514a

>  <distance_score>  (2959) 
1.750851

>  <inspiration_score>  (2959) 
None

$$$$
SBZPRWJMGAJEGS-UHFFFAOYSA-N-P308-P15-P308-601501
     RDKit          3D

 18 19  0  0  0  0  0  0  0  0999 V2000
    9.3617    8.5523   23.0464 C   0  0  0  0  0  0  0  0  0  0  0  0
    8.4956    9.4406   23.7389 O   0  0  0  0  0  0  0  0  0  0  0  0
    9.1526   10.3840   24.4487 C   0  0  0  0  0  0  0  0  0  0  0  0
   10.3582   10.4597   24.6351 O   0  0  0  0  0  0  0  0  0  0  0  0
    8.1516   11.3229   24.9868 C   0  0  0  0  0  0  0  0  0  0  0  0
    7.0469   10.7989   25.6721 C   0  0  0  0  0  0  0  0  0  0  0  0
    6.1779   11.6720   26.3085 C   0  0  0  0  0  0  0  0  0  0  0  0
    5.0450   11.2120   27.1849 C   0  0  0  0  0  0  0  0  0  0  0  0
    3.8417   12.1061   27.3985 C   0  0  0  0  0  0  0  0  0  0  0  0
    4.8400   11.9446   28.4998 C   0  0  0  0  0  0  0  0  0  0  0  0
    6.3879   13.0040   26.2581 N   0  0  0  0  0  0  0  0  0  0  0  0
    7.4217   13.4815   25.5475 C   0  0  0  0  0  0  0  0  0  0  0  0
    8.3290   12.7033   24.8475 C   0  0  0  0  0  0  0  0  0  0  0  0
    9.3218   13.2648   24.0153 N   0  0  0  0  0  0  0  0  0  0  0  0
   10.6218   13.2440   24.6150 N   0  0  0  0  0  0  0  0  0  0  0  0
    8.9181   14.5016   23.2716 C   0  0  0  0  0  0  0  0  0  0  0  0
    7.6450   14.2679   22.4448 C   0  0  0  0  0  0  0  0  0  0  0  0
   10.0231   14.9393   22.3069 C   0  0  0  0  0  0  0  0  0  0  0  0
  1  2  1  0
  2  3  1  0
  3  4  2  0
  3  5  1  0
  5  6  2  0
  6  7  1  0
  7  8  1  0
  8  9  1  0
  9 10  1  0
  7 11  2  0
 11 12  1  0
 12 13  2  0
 13 14  1  0
 14 15  1  0
 14 16  1  0
 16 17  1  0
 16 18  1  0
 13  5  1  0
 10  8  1  0
M  END
>  <energy_score>  (2960) 
-43.026097

>  <inchikey>  (2960) 
SBZPRWJMGAJEGS-UHFFFAOYSA-N

>  <smiles>  (2960) 
COC(=O)c1cc(C2CC2)ncc1N(N)C(C)C

>  <ref_pdb>  (2960) 
A0528a

>  <alias>  (2960) 
SBZPRWJMGAJEGS-UHFFFAOYSA-N-P308-P15-P308-601501

>  <HIPPO Pose ID>  (2960) 
501639

>  <name>  (2960) 
SBZPRWJMGAJEGS-UHFFFAOYSA-N-P308-P15-P308-601501

>  <HIPPO Compound ID>  (2960) 
292533

>  <ref_mols>  (2960) 
A4331a,A0514a

>  <distance_score>  (2960) 
1.697531

>  <inspiration_score>  (2960) 
None

$$$$
BQQHOOFVKCPCOJ-UHFFFAOYSA-N-P15-P15-P308-601501
     RDKit          3D

 19 20  0  0  0  0  0  0  0  0999 V2000
    9.4036    8.7559   22.9801 C   0  0  0  0  0  0  0  0  0  0  0  0
    8.4256    9.5745   23.6238 O   0  0  0  0  0  0  0  0  0  0  0  0
    8.8994   10.7802   24.0115 C   0  0  0  0  0  0  0  0  0  0  0  0
   10.0456   11.1692   23.8812 O   0  0  0  0  0  0  0  0  0  0  0  0
    7.8395   11.5480   24.6982 C   0  0  0  0  0  0  0  0  0  0  0  0
    7.0418   10.7785   25.5770 C   0  0  0  0  0  0  0  0  0  0  0  0
    6.1696   11.4019   26.4506 C   0  0  0  0  0  0  0  0  0  0  0  0
    5.2961   10.6618   27.4166 C   0  0  0  0  0  0  0  0  0  0  0  0
    5.3455   11.0408   28.8782 C   0  0  0  0  0  0  0  0  0  0  0  0
    4.1413   11.4027   28.0668 C   0  0  0  0  0  0  0  0  0  0  0  0
    6.1276   12.7384   26.5148 N   0  0  0  0  0  0  0  0  0  0  0  0
    6.8357   13.4442   25.6179 C   0  0  0  0  0  0  0  0  0  0  0  0
    7.6707   12.9390   24.6136 C   0  0  0  0  0  0  0  0  0  0  0  0
    8.1559   13.8723   23.6819 N   0  0  0  0  0  0  0  0  0  0  0  0
    7.2963   15.0106   23.4854 N   0  0  0  0  0  0  0  0  0  0  0  0
    9.0437   13.5770   22.5534 C   0  0  0  0  0  0  0  0  0  0  0  0
   10.2763   14.4635   22.5789 C   0  0  0  0  0  0  0  0  0  0  0  0
   11.1303   14.3941   21.3316 C   0  0  0  0  0  0  0  0  0  0  0  0
   11.1296   14.2210   23.8148 C   0  0  0  0  0  0  0  0  0  0  0  0
  1  2  1  0
  2  3  1  0
  3  4  2  0
  3  5  1  0
  5  6  2  0
  6  7  1  0
  7  8  1  0
  8  9  1  0
  9 10  1  0
  7 11  2  0
 11 12  1  0
 12 13  2  0
 13 14  1  0
 14 15  1  0
 14 16  1  0
 16 17  1  0
 17 18  1  0
 17 19  1  0
 13  5  1  0
 10  8  1  0
M  END
>  <energy_score>  (2961) 
-25.106629

>  <inchikey>  (2961) 
BQQHOOFVKCPCOJ-UHFFFAOYSA-N

>  <smiles>  (2961) 
COC(=O)c1cc(C2CC2)ncc1N(N)CC(C)C

>  <ref_pdb>  (2961) 
A0528a

>  <alias>  (2961) 
BQQHOOFVKCPCOJ-UHFFFAOYSA-N-P15-P15-P308-601501

>  <HIPPO Pose ID>  (2961) 
501644

>  <name>  (2961) 
BQQHOOFVKCPCOJ-UHFFFAOYSA-N-P15-P15-P308-601501

>  <HIPPO Compound ID>  (2961) 
292536

>  <ref_mols>  (2961) 
A4331a,A0514a

>  <distance_score>  (2961) 
1.718938

>  <inspiration_score>  (2961) 
None

$$$$
BQQHOOFVKCPCOJ-UHFFFAOYSA-N-P308-P15-P308-601501
     RDKit          3D

 19 20  0  0  0  0  0  0  0  0999 V2000
    9.1967    8.4093   23.7863 C   0  0  0  0  0  0  0  0  0  0  0  0
    8.4319    9.3552   24.5233 O   0  0  0  0  0  0  0  0  0  0  0  0
    8.5727   10.5941   24.0112 C   0  0  0  0  0  0  0  0  0  0  0  0
    9.1851   10.8763   22.9966 O   0  0  0  0  0  0  0  0  0  0  0  0
    7.9066   11.5749   24.8820 C   0  0  0  0  0  0  0  0  0  0  0  0
    6.7047   11.2257   25.5115 C   0  0  0  0  0  0  0  0  0  0  0  0
    6.0201   12.2022   26.2188 C   0  0  0  0  0  0  0  0  0  0  0  0
    4.6736   12.0019   26.8308 C   0  0  0  0  0  0  0  0  0  0  0  0
    4.3940   11.0299   27.9387 C   0  0  0  0  0  0  0  0  0  0  0  0
    4.4942   12.4911   28.2543 C   0  0  0  0  0  0  0  0  0  0  0  0
    6.5136   13.4523   26.3477 N   0  0  0  0  0  0  0  0  0  0  0  0
    7.6691   13.7584   25.7402 C   0  0  0  0  0  0  0  0  0  0  0  0
    8.4223   12.8704   24.9940 C   0  0  0  0  0  0  0  0  0  0  0  0
    9.6052   13.3668   24.4072 N   0  0  0  0  0  0  0  0  0  0  0  0
   10.7914   12.6140   24.6093 N   0  0  0  0  0  0  0  0  0  0  0  0
    9.3551   13.8017   23.0080 C   0  0  0  0  0  0  0  0  0  0  0  0
    9.6127   15.3009   22.8586 C   0  0  0  0  0  0  0  0  0  0  0  0
    9.3525   15.7118   21.4100 C   0  0  0  0  0  0  0  0  0  0  0  0
   11.0378   15.6732   23.2597 C   0  0  0  0  0  0  0  0  0  0  0  0
  1  2  1  0
  2  3  1  0
  3  4  2  0
  3  5  1  0
  5  6  2  0
  6  7  1  0
  7  8  1  0
  8  9  1  0
  9 10  1  0
  7 11  2  0
 11 12  1  0
 12 13  2  0
 13 14  1  0
 14 15  1  0
 14 16  1  0
 16 17  1  0
 17 18  1  0
 17 19  1  0
 13  5  1  0
 10  8  1  0
M  END
>  <energy_score>  (2962) 
-37.199836

>  <inchikey>  (2962) 
BQQHOOFVKCPCOJ-UHFFFAOYSA-N

>  <smiles>  (2962) 
COC(=O)c1cc(C2CC2)ncc1N(N)CC(C)C

>  <ref_pdb>  (2962) 
A0528a

>  <alias>  (2962) 
BQQHOOFVKCPCOJ-UHFFFAOYSA-N-P308-P15-P308-601501

>  <HIPPO Pose ID>  (2962) 
501645

>  <name>  (2962) 
BQQHOOFVKCPCOJ-UHFFFAOYSA-N-P308-P15-P308-601501

>  <HIPPO Compound ID>  (2962) 
292536

>  <ref_mols>  (2962) 
A4331a,A0514a

>  <distance_score>  (2962) 
1.503905

>  <inspiration_score>  (2962) 
None

$$$$
AKWFWTDGBMKEHT-UHFFFAOYSA-N-P15-P15-P308-601501
     RDKit          3D

 19 20  0  0  0  0  0  0  0  0999 V2000
    9.3992    8.5148   22.9235 C   0  0  0  0  0  0  0  0  0  0  0  0
    8.5276    9.3397   23.6889 O   0  0  0  0  0  0  0  0  0  0  0  0
    9.0426   10.5617   23.9278 C   0  0  0  0  0  0  0  0  0  0  0  0
   10.1614   10.9490   23.6357 O   0  0  0  0  0  0  0  0  0  0  0  0
    8.0487   11.3956   24.6337 C   0  0  0  0  0  0  0  0  0  0  0  0
    7.0910   10.7959   25.4600 C   0  0  0  0  0  0  0  0  0  0  0  0
    6.2463   11.6066   26.2034 C   0  0  0  0  0  0  0  0  0  0  0  0
    5.2702   11.0493   27.1994 C   0  0  0  0  0  0  0  0  0  0  0  0
    5.3391   11.5289   28.6311 C   0  0  0  0  0  0  0  0  0  0  0  0
    4.1945   11.9566   27.7672 C   0  0  0  0  0  0  0  0  0  0  0  0
    6.3214   12.9547   26.1120 N   0  0  0  0  0  0  0  0  0  0  0  0
    7.1975   13.5069   25.2590 C   0  0  0  0  0  0  0  0  0  0  0  0
    8.1110   12.7889   24.5063 C   0  0  0  0  0  0  0  0  0  0  0  0
    9.0780   13.4367   23.7113 N   0  0  0  0  0  0  0  0  0  0  0  0
   10.2839   13.7507   24.4006 N   0  0  0  0  0  0  0  0  0  0  0  0
    8.5074   14.3546   22.6792 C   0  0  0  0  0  0  0  0  0  0  0  0
    9.5266   14.7608   21.6153 C   0  0  0  0  0  0  0  0  0  0  0  0
    9.2271   15.3625   20.5947 O   0  0  0  0  0  0  0  0  0  0  0  0
   10.7983   14.4067   21.8949 O   0  0  0  0  0  0  0  0  0  0  0  0
  1  2  1  0
  2  3  1  0
  3  4  2  0
  3  5  1  0
  5  6  2  0
  6  7  1  0
  7  8  1  0
  8  9  1  0
  9 10  1  0
  7 11  2  0
 11 12  1  0
 12 13  2  0
 13 14  1  0
 14 15  1  0
 14 16  1  0
 16 17  1  0
 17 18  2  0
 17 19  1  0
 13  5  1  0
 10  8  1  0
M  END
>  <energy_score>  (2963) 
-49.625419

>  <inchikey>  (2963) 
AKWFWTDGBMKEHT-UHFFFAOYSA-N

>  <smiles>  (2963) 
COC(=O)c1cc(C2CC2)ncc1N(N)CC(=O)O

>  <ref_pdb>  (2963) 
A0528a

>  <alias>  (2963) 
AKWFWTDGBMKEHT-UHFFFAOYSA-N-P15-P15-P308-601501

>  <HIPPO Pose ID>  (2963) 
501652

>  <name>  (2963) 
AKWFWTDGBMKEHT-UHFFFAOYSA-N-P15-P15-P308-601501

>  <HIPPO Compound ID>  (2963) 
292540

>  <ref_mols>  (2963) 
A4331a,A0514a

>  <distance_score>  (2963) 
1.72932

>  <inspiration_score>  (2963) 
None

$$$$
AKWFWTDGBMKEHT-UHFFFAOYSA-N-P308-P15-P308-601501
     RDKit          3D

 19 20  0  0  0  0  0  0  0  0999 V2000
    9.6100    8.6715   23.1426 C   0  0  0  0  0  0  0  0  0  0  0  0
    8.7670    9.6061   23.8072 O   0  0  0  0  0  0  0  0  0  0  0  0
    9.4240   10.5706   24.4891 C   0  0  0  0  0  0  0  0  0  0  0  0
   10.6278   10.6995   24.6306 O   0  0  0  0  0  0  0  0  0  0  0  0
    8.4059   11.5129   24.9967 C   0  0  0  0  0  0  0  0  0  0  0  0
    7.2082   10.9914   25.5137 C   0  0  0  0  0  0  0  0  0  0  0  0
    6.2899   11.8573   26.0868 C   0  0  0  0  0  0  0  0  0  0  0  0
    5.0872   11.3792   26.8501 C   0  0  0  0  0  0  0  0  0  0  0  0
    4.8784   11.8833   28.2632 C   0  0  0  0  0  0  0  0  0  0  0  0
    3.9754   12.3615   27.1719 C   0  0  0  0  0  0  0  0  0  0  0  0
    6.4999   13.1915   26.0638 N   0  0  0  0  0  0  0  0  0  0  0  0
    7.6407   13.6688   25.5445 C   0  0  0  0  0  0  0  0  0  0  0  0
    8.6693   12.8875   25.0439 C   0  0  0  0  0  0  0  0  0  0  0  0
    9.9161   13.4561   24.6963 N   0  0  0  0  0  0  0  0  0  0  0  0
   10.4221   14.4548   25.5798 N   0  0  0  0  0  0  0  0  0  0  0  0
   10.0540   13.6973   23.2182 C   0  0  0  0  0  0  0  0  0  0  0  0
   11.5111   13.9752   22.8549 C   0  0  0  0  0  0  0  0  0  0  0  0
   11.8788   14.4075   21.7746 O   0  0  0  0  0  0  0  0  0  0  0  0
   12.3754   13.7075   23.8757 O   0  0  0  0  0  0  0  0  0  0  0  0
  1  2  1  0
  2  3  1  0
  3  4  2  0
  3  5  1  0
  5  6  2  0
  6  7  1  0
  7  8  1  0
  8  9  1  0
  9 10  1  0
  7 11  2  0
 11 12  1  0
 12 13  2  0
 13 14  1  0
 14 15  1  0
 14 16  1  0
 16 17  1  0
 17 18  2  0
 17 19  1  0
 13  5  1  0
 10  8  1  0
M  END
>  <energy_score>  (2964) 
-47.993429

>  <inchikey>  (2964) 
AKWFWTDGBMKEHT-UHFFFAOYSA-N

>  <smiles>  (2964) 
COC(=O)c1cc(C2CC2)ncc1N(N)CC(=O)O

>  <ref_pdb>  (2964) 
A0528a

>  <alias>  (2964) 
AKWFWTDGBMKEHT-UHFFFAOYSA-N-P308-P15-P308-601501

>  <HIPPO Pose ID>  (2964) 
501653

>  <name>  (2964) 
AKWFWTDGBMKEHT-UHFFFAOYSA-N-P308-P15-P308-601501

>  <HIPPO Compound ID>  (2964) 
292540

>  <ref_mols>  (2964) 
A4331a,A0514a

>  <distance_score>  (2964) 
1.925806

>  <inspiration_score>  (2964) 
None

$$$$
ZOVOQBKIJAECHS-UHFFFAOYSA-N-P15-P15-P308-601501
     RDKit          3D

 19 20  0  0  0  0  0  0  0  0999 V2000
    9.3249    8.5099   23.3494 C   0  0  0  0  0  0  0  0  0  0  0  0
    8.5638    9.3332   24.2410 O   0  0  0  0  0  0  0  0  0  0  0  0
    8.6362   10.6415   23.9102 C   0  0  0  0  0  0  0  0  0  0  0  0
    9.2421   11.0850   22.9518 O   0  0  0  0  0  0  0  0  0  0  0  0
    7.8982   11.4976   24.8627 C   0  0  0  0  0  0  0  0  0  0  0  0
    6.8278   11.0052   25.6174 C   0  0  0  0  0  0  0  0  0  0  0  0
    6.1573   11.8859   26.4623 C   0  0  0  0  0  0  0  0  0  0  0  0
    4.9498   11.5402   27.2644 C   0  0  0  0  0  0  0  0  0  0  0  0
    4.9592   10.5296   28.3681 C   0  0  0  0  0  0  0  0  0  0  0  0
    4.9329   11.9877   28.7127 C   0  0  0  0  0  0  0  0  0  0  0  0
    6.5429   13.1723   26.6022 N   0  0  0  0  0  0  0  0  0  0  0  0
    7.5588   13.6228   25.8638 C   0  0  0  0  0  0  0  0  0  0  0  0
    8.2699   12.8448   24.9676 C   0  0  0  0  0  0  0  0  0  0  0  0
    9.3013   13.4192   24.1887 N   0  0  0  0  0  0  0  0  0  0  0  0
   10.3697   13.9754   24.9560 N   0  0  0  0  0  0  0  0  0  0  0  0
    8.6783   14.2701   23.1231 C   0  0  0  0  0  0  0  0  0  0  0  0
    9.6751   14.8092   22.0979 C   0  0  0  0  0  0  0  0  0  0  0  0
    9.8726   13.9121   21.1167 F   0  0  0  0  0  0  0  0  0  0  0  0
   10.8835   15.0487   22.6749 F   0  0  0  0  0  0  0  0  0  0  0  0
  1  2  1  0
  2  3  1  0
  3  4  2  0
  3  5  1  0
  5  6  2  0
  6  7  1  0
  7  8  1  0
  8  9  1  0
  9 10  1  0
  7 11  2  0
 11 12  1  0
 12 13  2  0
 13 14  1  0
 14 15  1  0
 14 16  1  0
 16 17  1  0
 17 18  1  0
 17 19  1  0
 13  5  1  0
 10  8  1  0
M  END
>  <energy_score>  (2965) 
-33.525458

>  <inchikey>  (2965) 
ZOVOQBKIJAECHS-UHFFFAOYSA-N

>  <smiles>  (2965) 
COC(=O)c1cc(C2CC2)ncc1N(N)CC(F)F

>  <ref_pdb>  (2965) 
A0528a

>  <alias>  (2965) 
ZOVOQBKIJAECHS-UHFFFAOYSA-N-P15-P15-P308-601501

>  <HIPPO Pose ID>  (2965) 
501656

>  <name>  (2965) 
ZOVOQBKIJAECHS-UHFFFAOYSA-N-P15-P15-P308-601501

>  <HIPPO Compound ID>  (2965) 
292542

>  <ref_mols>  (2965) 
A4331a,A0514a

>  <distance_score>  (2965) 
1.525915

>  <inspiration_score>  (2965) 
None

$$$$
ZOVOQBKIJAECHS-UHFFFAOYSA-N-P308-P15-P308-601501
     RDKit          3D

 19 20  0  0  0  0  0  0  0  0999 V2000
    9.2062    8.5173   23.0849 C   0  0  0  0  0  0  0  0  0  0  0  0
    8.4263    9.4660   23.8056 O   0  0  0  0  0  0  0  0  0  0  0  0
    9.1840   10.3280   24.5241 C   0  0  0  0  0  0  0  0  0  0  0  0
   10.3927   10.2626   24.6748 O   0  0  0  0  0  0  0  0  0  0  0  0
    8.3005   11.3942   25.0503 C   0  0  0  0  0  0  0  0  0  0  0  0
    7.0237   11.0790   25.5419 C   0  0  0  0  0  0  0  0  0  0  0  0
    6.2524   12.0992   26.0855 C   0  0  0  0  0  0  0  0  0  0  0  0
    4.8567   11.9389   26.5942 C   0  0  0  0  0  0  0  0  0  0  0  0
    4.4771   11.1022   27.7819 C   0  0  0  0  0  0  0  0  0  0  0  0
    4.5452   12.5894   27.9318 C   0  0  0  0  0  0  0  0  0  0  0  0
    6.7229   13.3620   26.1688 N   0  0  0  0  0  0  0  0  0  0  0  0
    7.9403   13.6403   25.6869 C   0  0  0  0  0  0  0  0  0  0  0  0
    8.7706   12.7122   25.0850 C   0  0  0  0  0  0  0  0  0  0  0  0
    9.9901   13.1065   24.5001 N   0  0  0  0  0  0  0  0  0  0  0  0
   10.8382   13.8735   25.3377 N   0  0  0  0  0  0  0  0  0  0  0  0
    9.8074   13.5460   23.0853 C   0  0  0  0  0  0  0  0  0  0  0  0
    9.5314   15.0330   22.8973 C   0  0  0  0  0  0  0  0  0  0  0  0
    9.3049   15.2783   21.5797 F   0  0  0  0  0  0  0  0  0  0  0  0
   10.6316   15.7541   23.2433 F   0  0  0  0  0  0  0  0  0  0  0  0
  1  2  1  0
  2  3  1  0
  3  4  2  0
  3  5  1  0
  5  6  2  0
  6  7  1  0
  7  8  1  0
  8  9  1  0
  9 10  1  0
  7 11  2  0
 11 12  1  0
 12 13  2  0
 13 14  1  0
 14 15  1  0
 14 16  1  0
 16 17  1  0
 17 18  1  0
 17 19  1  0
 13  5  1  0
 10  8  1  0
M  END
>  <energy_score>  (2966) 
-38.131475

>  <inchikey>  (2966) 
ZOVOQBKIJAECHS-UHFFFAOYSA-N

>  <smiles>  (2966) 
COC(=O)c1cc(C2CC2)ncc1N(N)CC(F)F

>  <ref_pdb>  (2966) 
A0528a

>  <alias>  (2966) 
ZOVOQBKIJAECHS-UHFFFAOYSA-N-P308-P15-P308-601501

>  <HIPPO Pose ID>  (2966) 
501657

>  <name>  (2966) 
ZOVOQBKIJAECHS-UHFFFAOYSA-N-P308-P15-P308-601501

>  <HIPPO Compound ID>  (2966) 
292542

>  <ref_mols>  (2966) 
A4331a,A0514a

>  <distance_score>  (2966) 
1.495773

>  <inspiration_score>  (2966) 
None

$$$$
QWFWDMZQJXLTDJ-UHFFFAOYSA-N-P15-P15-P308-601501
     RDKit          3D

 19 21  0  0  0  0  0  0  0  0999 V2000
    9.3016    8.4958   22.9488 C   0  0  0  0  0  0  0  0  0  0  0  0
    8.3769    9.2710   23.7092 O   0  0  0  0  0  0  0  0  0  0  0  0
    8.8160   10.5254   23.9366 C   0  0  0  0  0  0  0  0  0  0  0  0
    9.9155   10.9627   23.6444 O   0  0  0  0  0  0  0  0  0  0  0  0
    7.7926   11.3085   24.6553 C   0  0  0  0  0  0  0  0  0  0  0  0
    6.9936   10.6763   25.6113 C   0  0  0  0  0  0  0  0  0  0  0  0
    6.1528   11.4467   26.4016 C   0  0  0  0  0  0  0  0  0  0  0  0
    5.2810   10.8522   27.4680 C   0  0  0  0  0  0  0  0  0  0  0  0
    5.3865   11.3870   28.8768 C   0  0  0  0  0  0  0  0  0  0  0  0
    4.1701   11.6983   28.0622 C   0  0  0  0  0  0  0  0  0  0  0  0
    6.1215   12.7916   26.2791 N   0  0  0  0  0  0  0  0  0  0  0  0
    6.8132   13.3640   25.2824 C   0  0  0  0  0  0  0  0  0  0  0  0
    7.6492   12.6792   24.4139 C   0  0  0  0  0  0  0  0  0  0  0  0
    8.2227   13.3265   23.2913 N   0  0  0  0  0  0  0  0  0  0  0  0
    7.3621   14.2900   22.6766 N   0  0  0  0  0  0  0  0  0  0  0  0
    9.5712   13.8224   23.6226 C   0  0  0  0  0  0  0  0  0  0  0  0
   10.4214   13.8230   22.3942 C   0  0  0  0  0  0  0  0  0  0  0  0
   11.6163   14.7267   22.2889 C   0  0  0  0  0  0  0  0  0  0  0  0
   10.4291   14.9503   21.3918 C   0  0  0  0  0  0  0  0  0  0  0  0
  1  2  1  0
  2  3  1  0
  3  4  2  0
  3  5  1  0
  5  6  2  0
  6  7  1  0
  7  8  1  0
  8  9  1  0
  9 10  1  0
  7 11  2  0
 11 12  1  0
 12 13  2  0
 13 14  1  0
 14 15  1  0
 14 16  1  0
 16 17  1  0
 17 18  1  0
 18 19  1  0
 13  5  1  0
 19 17  1  0
 10  8  1  0
M  END
>  <energy_score>  (2967) 
-33.287477

>  <inchikey>  (2967) 
QWFWDMZQJXLTDJ-UHFFFAOYSA-N

>  <smiles>  (2967) 
COC(=O)c1cc(C2CC2)ncc1N(N)CC1CC1

>  <ref_pdb>  (2967) 
A0528a

>  <alias>  (2967) 
QWFWDMZQJXLTDJ-UHFFFAOYSA-N-P15-P15-P308-601501

>  <HIPPO Pose ID>  (2967) 
501658

>  <name>  (2967) 
QWFWDMZQJXLTDJ-UHFFFAOYSA-N-P15-P15-P308-601501

>  <HIPPO Compound ID>  (2967) 
292543

>  <ref_mols>  (2967) 
A4331a,A0514a

>  <distance_score>  (2967) 
1.780957

>  <inspiration_score>  (2967) 
None

$$$$
QWFWDMZQJXLTDJ-UHFFFAOYSA-N-P308-P15-P308-601501
     RDKit          3D

 19 21  0  0  0  0  0  0  0  0999 V2000
    9.3605    8.5749   23.7375 C   0  0  0  0  0  0  0  0  0  0  0  0
    8.5841    9.4749   24.5232 O   0  0  0  0  0  0  0  0  0  0  0  0
    8.6241   10.7320   24.0288 C   0  0  0  0  0  0  0  0  0  0  0  0
    9.1513   11.0779   22.9876 O   0  0  0  0  0  0  0  0  0  0  0  0
    7.9009   11.6418   24.9333 C   0  0  0  0  0  0  0  0  0  0  0  0
    6.7151   11.2179   25.5461 C   0  0  0  0  0  0  0  0  0  0  0  0
    5.9976   12.1380   26.2968 C   0  0  0  0  0  0  0  0  0  0  0  0
    4.6579   11.8762   26.8975 C   0  0  0  0  0  0  0  0  0  0  0  0
    4.3970   10.8506   27.9594 C   0  0  0  0  0  0  0  0  0  0  0  0
    4.4691   12.2973   28.3416 C   0  0  0  0  0  0  0  0  0  0  0  0
    6.4456   13.3985   26.4850 N   0  0  0  0  0  0  0  0  0  0  0  0
    7.5845   13.7753   25.8916 C   0  0  0  0  0  0  0  0  0  0  0  0
    8.3659   12.9499   25.1037 C   0  0  0  0  0  0  0  0  0  0  0  0
    9.5290   13.4426   24.4668 N   0  0  0  0  0  0  0  0  0  0  0  0
   10.5087   14.0275   25.3188 N   0  0  0  0  0  0  0  0  0  0  0  0
    9.1201   14.2028   23.2573 C   0  0  0  0  0  0  0  0  0  0  0  0
   10.2915   14.4371   22.3619 C   0  0  0  0  0  0  0  0  0  0  0  0
   11.1394   15.6748   22.4924 C   0  0  0  0  0  0  0  0  0  0  0  0
   10.2241   15.5119   21.3078 C   0  0  0  0  0  0  0  0  0  0  0  0
  1  2  1  0
  2  3  1  0
  3  4  2  0
  3  5  1  0
  5  6  2  0
  6  7  1  0
  7  8  1  0
  8  9  1  0
  9 10  1  0
  7 11  2  0
 11 12  1  0
 12 13  2  0
 13 14  1  0
 14 15  1  0
 14 16  1  0
 16 17  1  0
 17 18  1  0
 18 19  1  0
 13  5  1  0
 19 17  1  0
 10  8  1  0
M  END
>  <energy_score>  (2968) 
-31.428975

>  <inchikey>  (2968) 
QWFWDMZQJXLTDJ-UHFFFAOYSA-N

>  <smiles>  (2968) 
COC(=O)c1cc(C2CC2)ncc1N(N)CC1CC1

>  <ref_pdb>  (2968) 
A0528a

>  <alias>  (2968) 
QWFWDMZQJXLTDJ-UHFFFAOYSA-N-P308-P15-P308-601501

>  <HIPPO Pose ID>  (2968) 
501659

>  <name>  (2968) 
QWFWDMZQJXLTDJ-UHFFFAOYSA-N-P308-P15-P308-601501

>  <HIPPO Compound ID>  (2968) 
292543

>  <ref_mols>  (2968) 
A4331a,A0514a

>  <distance_score>  (2968) 
1.542615

>  <inspiration_score>  (2968) 
None

$$$$
HWFVHGCHNGOMPJ-UHFFFAOYSA-N-P15-P15-P308-601501
     RDKit          3D

 19 20  0  0  0  0  0  0  0  0999 V2000
    9.6641    8.5612   23.4184 C   0  0  0  0  0  0  0  0  0  0  0  0
    8.6970    9.2501   24.2121 O   0  0  0  0  0  0  0  0  0  0  0  0
    8.6868   10.5726   23.9321 C   0  0  0  0  0  0  0  0  0  0  0  0
    9.3033   11.1001   23.0235 O   0  0  0  0  0  0  0  0  0  0  0  0
    7.8404   11.3159   24.8911 C   0  0  0  0  0  0  0  0  0  0  0  0
    6.8178   10.6662   25.5873 C   0  0  0  0  0  0  0  0  0  0  0  0
    6.0601   11.3961   26.4936 C   0  0  0  0  0  0  0  0  0  0  0  0
    5.0202   10.7712   27.3749 C   0  0  0  0  0  0  0  0  0  0  0  0
    4.9845   11.1544   28.8369 C   0  0  0  0  0  0  0  0  0  0  0  0
    3.9092   11.6503   27.9210 C   0  0  0  0  0  0  0  0  0  0  0  0
    6.2641   12.7212   26.6743 N   0  0  0  0  0  0  0  0  0  0  0  0
    7.2399   13.3278   25.9912 C   0  0  0  0  0  0  0  0  0  0  0  0
    8.0912   12.6768   25.1181 C   0  0  0  0  0  0  0  0  0  0  0  0
    9.1851   13.3580   24.5482 N   0  0  0  0  0  0  0  0  0  0  0  0
    9.9429   14.1614   25.4599 N   0  0  0  0  0  0  0  0  0  0  0  0
    8.7842   14.0126   23.2806 C   0  0  0  0  0  0  0  0  0  0  0  0
    9.9504   14.1185   22.2929 C   0  0  0  0  0  0  0  0  0  0  0  0
   11.5772   14.5753   22.9914 S   0  0  0  0  0  0  0  0  0  0  0  0
   12.3690   15.0310   21.4565 C   0  0  0  0  0  0  0  0  0  0  0  0
  1  2  1  0
  2  3  1  0
  3  4  2  0
  3  5  1  0
  5  6  2  0
  6  7  1  0
  7  8  1  0
  8  9  1  0
  9 10  1  0
  7 11  2  0
 11 12  1  0
 12 13  2  0
 13 14  1  0
 14 15  1  0
 14 16  1  0
 16 17  1  0
 17 18  1  0
 18 19  1  0
 13  5  1  0
 10  8  1  0
M  END
>  <energy_score>  (2969) 
-34.453407

>  <inchikey>  (2969) 
HWFVHGCHNGOMPJ-UHFFFAOYSA-N

>  <smiles>  (2969) 
COC(=O)c1cc(C2CC2)ncc1N(N)CCSC

>  <ref_pdb>  (2969) 
A0528a

>  <alias>  (2969) 
HWFVHGCHNGOMPJ-UHFFFAOYSA-N-P15-P15-P308-601501

>  <HIPPO Pose ID>  (2969) 
501662

>  <name>  (2969) 
HWFVHGCHNGOMPJ-UHFFFAOYSA-N-P15-P15-P308-601501

>  <HIPPO Compound ID>  (2969) 
292545

>  <ref_mols>  (2969) 
A4331a,A0514a

>  <distance_score>  (2969) 
1.724678

>  <inspiration_score>  (2969) 
None

$$$$
HWFVHGCHNGOMPJ-UHFFFAOYSA-N-P308-P15-P308-601501
     RDKit          3D

 19 20  0  0  0  0  0  0  0  0999 V2000
    9.2509    8.5948   23.7838 C   0  0  0  0  0  0  0  0  0  0  0  0
    8.4206    9.4431   24.5721 O   0  0  0  0  0  0  0  0  0  0  0  0
    8.4280   10.7147   24.1147 C   0  0  0  0  0  0  0  0  0  0  0  0
    8.9541   11.1066   23.0869 O   0  0  0  0  0  0  0  0  0  0  0  0
    7.6813   11.5790   25.0441 C   0  0  0  0  0  0  0  0  0  0  0  0
    6.5121   11.1272   25.6619 C   0  0  0  0  0  0  0  0  0  0  0  0
    5.7956   12.0247   26.4447 C   0  0  0  0  0  0  0  0  0  0  0  0
    4.4949   11.7248   27.1049 C   0  0  0  0  0  0  0  0  0  0  0  0
    4.3080   10.6420   28.1233 C   0  0  0  0  0  0  0  0  0  0  0  0
    4.3913   12.0676   28.5775 C   0  0  0  0  0  0  0  0  0  0  0  0
    6.2163   13.2911   26.6469 N   0  0  0  0  0  0  0  0  0  0  0  0
    7.3504   13.6886   26.0641 C   0  0  0  0  0  0  0  0  0  0  0  0
    8.1295   12.8834   25.2520 C   0  0  0  0  0  0  0  0  0  0  0  0
    9.3021   13.3981   24.6523 N   0  0  0  0  0  0  0  0  0  0  0  0
   10.1742   14.0099   25.6059 N   0  0  0  0  0  0  0  0  0  0  0  0
    8.8712   14.2239   23.4843 C   0  0  0  0  0  0  0  0  0  0  0  0
   10.0006   14.4401   22.4879 C   0  0  0  0  0  0  0  0  0  0  0  0
   11.2785   15.5507   23.1624 S   0  0  0  0  0  0  0  0  0  0  0  0
   12.1799   15.8259   21.6344 C   0  0  0  0  0  0  0  0  0  0  0  0
  1  2  1  0
  2  3  1  0
  3  4  2  0
  3  5  1  0
  5  6  2  0
  6  7  1  0
  7  8  1  0
  8  9  1  0
  9 10  1  0
  7 11  2  0
 11 12  1  0
 12 13  2  0
 13 14  1  0
 14 15  1  0
 14 16  1  0
 16 17  1  0
 17 18  1  0
 18 19  1  0
 13  5  1  0
 10  8  1  0
M  END
>  <energy_score>  (2970) 
-39.744031

>  <inchikey>  (2970) 
HWFVHGCHNGOMPJ-UHFFFAOYSA-N

>  <smiles>  (2970) 
COC(=O)c1cc(C2CC2)ncc1N(N)CCSC

>  <ref_pdb>  (2970) 
A0528a

>  <alias>  (2970) 
HWFVHGCHNGOMPJ-UHFFFAOYSA-N-P308-P15-P308-601501

>  <HIPPO Pose ID>  (2970) 
501663

>  <name>  (2970) 
HWFVHGCHNGOMPJ-UHFFFAOYSA-N-P308-P15-P308-601501

>  <HIPPO Compound ID>  (2970) 
292545

>  <ref_mols>  (2970) 
A4331a,A0514a

>  <distance_score>  (2970) 
1.656219

>  <inspiration_score>  (2970) 
None

$$$$
DEBBIWPXFPEOGW-UHFFFAOYSA-N-P15-P15-P308-601501
     RDKit          3D

 19 20  0  0  0  0  0  0  0  0999 V2000
   11.1037   14.1499   22.2808 C   0  0  0  0  0  0  0  0  0  0  0  0
    9.7843   14.4045   22.2517 C   0  0  0  0  0  0  0  0  0  0  0  0
    9.2318   15.2758   21.1534 C   0  0  0  0  0  0  0  0  0  0  0  0
    8.7191   13.8757   23.1889 C   0  0  0  0  0  0  0  0  0  0  0  0
    9.2523   13.0660   24.3298 N   0  0  0  0  0  0  0  0  0  0  0  0
   10.2061   13.7236   25.1974 N   0  0  0  0  0  0  0  0  0  0  0  0
    8.1249   12.5907   25.0649 C   0  0  0  0  0  0  0  0  0  0  0  0
    7.4251   13.4823   25.8786 C   0  0  0  0  0  0  0  0  0  0  0  0
    6.3757   13.1714   26.6541 N   0  0  0  0  0  0  0  0  0  0  0  0
    5.9158   11.9068   26.6381 C   0  0  0  0  0  0  0  0  0  0  0  0
    4.7361   11.5874   27.5043 C   0  0  0  0  0  0  0  0  0  0  0  0
    4.5370   12.3323   28.8014 C   0  0  0  0  0  0  0  0  0  0  0  0
    3.6438   12.6268   27.6346 C   0  0  0  0  0  0  0  0  0  0  0  0
    6.5307   10.9468   25.8593 C   0  0  0  0  0  0  0  0  0  0  0  0
    7.6510   11.2763   25.0746 C   0  0  0  0  0  0  0  0  0  0  0  0
    8.2355   10.1044   24.3983 C   0  0  0  0  0  0  0  0  0  0  0  0
    7.8471    8.9821   24.6955 O   0  0  0  0  0  0  0  0  0  0  0  0
    9.1728   10.3795   23.4738 O   0  0  0  0  0  0  0  0  0  0  0  0
    9.7160    9.1879   22.9012 C   0  0  0  0  0  0  0  0  0  0  0  0
  1  2  2  0
  2  3  1  0
  2  4  1  0
  4  5  1  0
  5  6  1  0
  5  7  1  0
  7  8  2  0
  8  9  1  0
  9 10  2  0
 10 11  1  0
 11 12  1  0
 12 13  1  0
 10 14  1  0
 14 15  2  0
 15 16  1  0
 16 17  2  0
 16 18  1  0
 18 19  1  0
 15  7  1  0
 13 11  1  0
M  END
>  <energy_score>  (2971) 
-34.292742

>  <inchikey>  (2971) 
DEBBIWPXFPEOGW-UHFFFAOYSA-N

>  <smiles>  (2971) 
C=C(C)CN(N)c1cnc(C2CC2)cc1C(=O)OC

>  <ref_pdb>  (2971) 
A0528a

>  <alias>  (2971) 
DEBBIWPXFPEOGW-UHFFFAOYSA-N-P15-P15-P308-601501

>  <HIPPO Pose ID>  (2971) 
501664

>  <name>  (2971) 
DEBBIWPXFPEOGW-UHFFFAOYSA-N-P15-P15-P308-601501

>  <HIPPO Compound ID>  (2971) 
292546

>  <ref_mols>  (2971) 
A4331a,A0514a

>  <distance_score>  (2971) 
1.814009

>  <inspiration_score>  (2971) 
None

$$$$
DEBBIWPXFPEOGW-UHFFFAOYSA-N-P308-P15-P308-601501
     RDKit          3D

 19 20  0  0  0  0  0  0  0  0999 V2000
   11.2360   14.3518   22.6282 C   0  0  0  0  0  0  0  0  0  0  0  0
    9.9157   14.5870   22.5603 C   0  0  0  0  0  0  0  0  0  0  0  0
    9.3976   15.6316   21.6050 C   0  0  0  0  0  0  0  0  0  0  0  0
    8.8218   13.8805   23.3351 C   0  0  0  0  0  0  0  0  0  0  0  0
    9.2879   13.0137   24.4717 N   0  0  0  0  0  0  0  0  0  0  0  0
   10.1266   13.6410   25.4716 N   0  0  0  0  0  0  0  0  0  0  0  0
    8.1049   12.5030   25.0970 C   0  0  0  0  0  0  0  0  0  0  0  0
    7.3148   13.3847   25.8397 C   0  0  0  0  0  0  0  0  0  0  0  0
    6.2111   13.0579   26.5241 N   0  0  0  0  0  0  0  0  0  0  0  0
    5.8084   11.7751   26.5127 C   0  0  0  0  0  0  0  0  0  0  0  0
    4.6287   11.4249   27.3671 C   0  0  0  0  0  0  0  0  0  0  0  0
    4.4660   12.1009   28.7085 C   0  0  0  0  0  0  0  0  0  0  0  0
    3.5523   12.4676   27.5789 C   0  0  0  0  0  0  0  0  0  0  0  0
    6.5049   10.8237   25.7899 C   0  0  0  0  0  0  0  0  0  0  0  0
    7.6702   11.1755   25.0853 C   0  0  0  0  0  0  0  0  0  0  0  0
    8.3287   10.0170   24.4522 C   0  0  0  0  0  0  0  0  0  0  0  0
    8.0370    8.8758   24.7896 O   0  0  0  0  0  0  0  0  0  0  0  0
    9.1664   10.3376   23.4478 O   0  0  0  0  0  0  0  0  0  0  0  0
    9.7101    9.1727   22.8266 C   0  0  0  0  0  0  0  0  0  0  0  0
  1  2  2  0
  2  3  1  0
  2  4  1  0
  4  5  1  0
  5  6  1  0
  5  7  1  0
  7  8  2  0
  8  9  1  0
  9 10  2  0
 10 11  1  0
 11 12  1  0
 12 13  1  0
 10 14  1  0
 14 15  2  0
 15 16  1  0
 16 17  2  0
 16 18  1  0
 18 19  1  0
 15  7  1  0
 13 11  1  0
M  END
>  <energy_score>  (2972) 
-34.262702

>  <inchikey>  (2972) 
DEBBIWPXFPEOGW-UHFFFAOYSA-N

>  <smiles>  (2972) 
C=C(C)CN(N)c1cnc(C2CC2)cc1C(=O)OC

>  <ref_pdb>  (2972) 
A0528a

>  <alias>  (2972) 
DEBBIWPXFPEOGW-UHFFFAOYSA-N-P308-P15-P308-601501

>  <HIPPO Pose ID>  (2972) 
501665

>  <name>  (2972) 
DEBBIWPXFPEOGW-UHFFFAOYSA-N-P308-P15-P308-601501

>  <HIPPO Compound ID>  (2972) 
292546

>  <ref_mols>  (2972) 
A4331a,A0514a

>  <distance_score>  (2972) 
1.783495

>  <inspiration_score>  (2972) 
None

$$$$
UMWMDYAGLKQPEN-UHFFFAOYSA-N-P15-P15-P308-601501
     RDKit          3D

 19 20  0  0  0  0  0  0  0  0999 V2000
    9.2724    8.5082   22.9131 C   0  0  0  0  0  0  0  0  0  0  0  0
    8.3571    9.3610   23.5972 O   0  0  0  0  0  0  0  0  0  0  0  0
    8.9218   10.5326   23.9552 C   0  0  0  0  0  0  0  0  0  0  0  0
   10.1007   10.8165   23.8431 O   0  0  0  0  0  0  0  0  0  0  0  0
    7.9354   11.4131   24.5960 C   0  0  0  0  0  0  0  0  0  0  0  0
    7.1137   10.8011   25.5599 C   0  0  0  0  0  0  0  0  0  0  0  0
    6.2791   11.5775   26.3463 C   0  0  0  0  0  0  0  0  0  0  0  0
    5.3657   10.9927   27.3837 C   0  0  0  0  0  0  0  0  0  0  0  0
    5.4161   11.5343   28.7927 C   0  0  0  0  0  0  0  0  0  0  0  0
    4.2362   11.8481   27.9269 C   0  0  0  0  0  0  0  0  0  0  0  0
    6.2965   12.9174   26.2351 N   0  0  0  0  0  0  0  0  0  0  0  0
    7.0146   13.4690   25.2428 C   0  0  0  0  0  0  0  0  0  0  0  0
    7.8284   12.7840   24.3407 C   0  0  0  0  0  0  0  0  0  0  0  0
    8.2782   13.5333   23.2429 N   0  0  0  0  0  0  0  0  0  0  0  0
    7.2059   13.8730   22.3324 N   0  0  0  0  0  0  0  0  0  0  0  0
    9.5610   13.2974   22.5601 C   0  0  0  0  0  0  0  0  0  0  0  0
   10.8035   13.9181   23.1651 C   0  0  2  0  0  0  0  0  0  0  0  0
   10.8127   14.0515   24.6728 C   0  0  0  0  0  0  0  0  0  0  0  0
   11.0190   15.1881   22.5750 O   0  0  0  0  0  0  0  0  0  0  0  0
  1  2  1  0
  2  3  1  0
  3  4  2  0
  3  5  1  0
  5  6  2  0
  6  7  1  0
  7  8  1  0
  8  9  1  0
  9 10  1  0
  7 11  2  0
 11 12  1  0
 12 13  2  0
 13 14  1  0
 14 15  1  0
 14 16  1  0
 16 17  1  0
 17 18  1  1
 17 19  1  0
 13  5  1  0
 10  8  1  0
M  END
>  <energy_score>  (2973) 
-26.939673

>  <inchikey>  (2973) 
UMWMDYAGLKQPEN-UHFFFAOYSA-N

>  <smiles>  (2973) 
COC(=O)c1cc(C2CC2)ncc1N(N)CC(C)O

>  <ref_pdb>  (2973) 
A0528a

>  <alias>  (2973) 
UMWMDYAGLKQPEN-UHFFFAOYSA-N-P15-P15-P308-601501

>  <HIPPO Pose ID>  (2973) 
501666

>  <name>  (2973) 
UMWMDYAGLKQPEN-UHFFFAOYSA-N-P15-P15-P308-601501

>  <HIPPO Compound ID>  (2973) 
292547

>  <ref_mols>  (2973) 
A4331a,A0514a

>  <distance_score>  (2973) 
1.904103

>  <inspiration_score>  (2973) 
None

$$$$
UMWMDYAGLKQPEN-UHFFFAOYSA-N-P308-P15-P308-601501
     RDKit          3D

 19 20  0  0  0  0  0  0  0  0999 V2000
    9.2106    8.5640   23.1514 C   0  0  0  0  0  0  0  0  0  0  0  0
    8.3529    9.4408   23.8771 O   0  0  0  0  0  0  0  0  0  0  0  0
    9.0286   10.3608   24.6009 C   0  0  0  0  0  0  0  0  0  0  0  0
   10.2357   10.3904   24.7935 O   0  0  0  0  0  0  0  0  0  0  0  0
    8.0644   11.3628   25.1071 C   0  0  0  0  0  0  0  0  0  0  0  0
    6.8639   10.9543   25.7075 C   0  0  0  0  0  0  0  0  0  0  0  0
    6.0294   11.9288   26.2436 C   0  0  0  0  0  0  0  0  0  0  0  0
    4.7124   11.6962   26.9011 C   0  0  0  0  0  0  0  0  0  0  0  0
    4.4472   10.7212   28.0053 C   0  0  0  0  0  0  0  0  0  0  0  0
    4.5934   12.1748   28.3366 C   0  0  0  0  0  0  0  0  0  0  0  0
    6.3596   13.2344   26.2025 N   0  0  0  0  0  0  0  0  0  0  0  0
    7.4727   13.6020   25.5665 C   0  0  0  0  0  0  0  0  0  0  0  0
    8.3645   12.7232   24.9755 C   0  0  0  0  0  0  0  0  0  0  0  0
    9.4794   13.1960   24.2581 N   0  0  0  0  0  0  0  0  0  0  0  0
   10.6985   13.1861   24.9805 N   0  0  0  0  0  0  0  0  0  0  0  0
    9.1690   14.3602   23.3964 C   0  0  0  0  0  0  0  0  0  0  0  0
   10.2340   14.5692   22.3207 C   0  0  2  0  0  0  0  0  0  0  0  0
   11.3149   15.5348   22.7842 C   0  0  0  0  0  0  0  0  0  0  0  0
    9.6095   15.1190   21.1554 O   0  0  0  0  0  0  0  0  0  0  0  0
  1  2  1  0
  2  3  1  0
  3  4  2  0
  3  5  1  0
  5  6  2  0
  6  7  1  0
  7  8  1  0
  8  9  1  0
  9 10  1  0
  7 11  2  0
 11 12  1  0
 12 13  2  0
 13 14  1  0
 14 15  1  0
 14 16  1  0
 16 17  1  0
 17 18  1  1
 17 19  1  0
 13  5  1  0
 10  8  1  0
M  END
>  <energy_score>  (2974) 
-41.418664

>  <inchikey>  (2974) 
UMWMDYAGLKQPEN-UHFFFAOYSA-N

>  <smiles>  (2974) 
COC(=O)c1cc(C2CC2)ncc1N(N)CC(C)O

>  <ref_pdb>  (2974) 
A0528a

>  <alias>  (2974) 
UMWMDYAGLKQPEN-UHFFFAOYSA-N-P308-P15-P308-601501

>  <HIPPO Pose ID>  (2974) 
501667

>  <name>  (2974) 
UMWMDYAGLKQPEN-UHFFFAOYSA-N-P308-P15-P308-601501

>  <HIPPO Compound ID>  (2974) 
292547

>  <ref_mols>  (2974) 
A4331a,A0514a

>  <distance_score>  (2974) 
1.704158

>  <inspiration_score>  (2974) 
None

$$$$
GMDZUUKOTDMXCW-UHFFFAOYSA-N-P15-P15-P308-601501
     RDKit          3D

 19 20  0  0  0  0  0  0  0  0999 V2000
   12.3009   15.0864   21.7738 C   0  0  0  0  0  0  0  0  0  0  0  0
   10.9378   14.7468   22.1445 C   0  0  0  0  0  0  0  0  0  0  0  0
    9.8453   14.3996   22.4925 C   0  0  0  0  0  0  0  0  0  0  0  0
    8.6288   13.9027   23.1294 C   0  0  0  0  0  0  0  0  0  0  0  0
    9.0111   12.9022   24.1596 N   0  0  0  0  0  0  0  0  0  0  0  0
   10.2357   13.0581   24.8864 N   0  0  0  0  0  0  0  0  0  0  0  0
    7.9376   12.4920   24.9599 C   0  0  0  0  0  0  0  0  0  0  0  0
    7.2604   13.4179   25.7426 C   0  0  0  0  0  0  0  0  0  0  0  0
    6.2667   13.1286   26.5932 N   0  0  0  0  0  0  0  0  0  0  0  0
    5.8586   11.8487   26.6990 C   0  0  0  0  0  0  0  0  0  0  0  0
    4.7682   11.5537   27.6832 C   0  0  0  0  0  0  0  0  0  0  0  0
    3.5010   12.3728   27.6415 C   0  0  0  0  0  0  0  0  0  0  0  0
    4.4699   12.5679   28.7680 C   0  0  0  0  0  0  0  0  0  0  0  0
    6.4574   10.8533   25.9518 C   0  0  0  0  0  0  0  0  0  0  0  0
    7.5199   11.1670   25.0907 C   0  0  0  0  0  0  0  0  0  0  0  0
    8.1262    9.9935   24.4326 C   0  0  0  0  0  0  0  0  0  0  0  0
    7.7654    8.8732   24.7625 O   0  0  0  0  0  0  0  0  0  0  0  0
    9.0507   10.2673   23.4937 O   0  0  0  0  0  0  0  0  0  0  0  0
    9.6374    9.0900   22.9350 C   0  0  0  0  0  0  0  0  0  0  0  0
  1  2  1  0
  2  3  3  0
  3  4  1  0
  4  5  1  0
  5  6  1  0
  5  7  1  0
  7  8  2  0
  8  9  1  0
  9 10  2  0
 10 11  1  0
 11 12  1  0
 12 13  1  0
 10 14  1  0
 14 15  2  0
 15 16  1  0
 16 17  2  0
 16 18  1  0
 18 19  1  0
 15  7  1  0
 13 11  1  0
M  END
>  <energy_score>  (2975) 
-19.45434

>  <inchikey>  (2975) 
GMDZUUKOTDMXCW-UHFFFAOYSA-N

>  <smiles>  (2975) 
CC#CCN(N)c1cnc(C2CC2)cc1C(=O)OC

>  <ref_pdb>  (2975) 
A0528a

>  <alias>  (2975) 
GMDZUUKOTDMXCW-UHFFFAOYSA-N-P15-P15-P308-601501

>  <HIPPO Pose ID>  (2975) 
501668

>  <name>  (2975) 
GMDZUUKOTDMXCW-UHFFFAOYSA-N-P15-P15-P308-601501

>  <HIPPO Compound ID>  (2975) 
292548

>  <ref_mols>  (2975) 
A4331a,A0514a

>  <distance_score>  (2975) 
1.454635

>  <inspiration_score>  (2975) 
None

$$$$
GMDZUUKOTDMXCW-UHFFFAOYSA-N-P308-P15-P308-601501
     RDKit          3D

 19 20  0  0  0  0  0  0  0  0999 V2000
   12.1313   15.8475   22.0614 C   0  0  0  0  0  0  0  0  0  0  0  0
   10.9259   15.1704   22.5132 C   0  0  0  0  0  0  0  0  0  0  0  0
    9.9490   14.5606   22.8421 C   0  0  0  0  0  0  0  0  0  0  0  0
    8.7949   13.7906   23.2939 C   0  0  0  0  0  0  0  0  0  0  0  0
    9.1737   12.7876   24.3321 N   0  0  0  0  0  0  0  0  0  0  0  0
   10.3131   13.0213   25.1732 N   0  0  0  0  0  0  0  0  0  0  0  0
    8.0371   12.3689   25.0524 C   0  0  0  0  0  0  0  0  0  0  0  0
    7.3171   13.2980   25.7964 C   0  0  0  0  0  0  0  0  0  0  0  0
    6.2294   13.0262   26.5261 N   0  0  0  0  0  0  0  0  0  0  0  0
    5.7843   11.7554   26.5699 C   0  0  0  0  0  0  0  0  0  0  0  0
    4.6242   11.4736   27.4767 C   0  0  0  0  0  0  0  0  0  0  0  0
    3.4307   12.3977   27.4611 C   0  0  0  0  0  0  0  0  0  0  0  0
    4.3654   12.4201   28.6319 C   0  0  0  0  0  0  0  0  0  0  0  0
    6.4251   10.7563   25.8589 C   0  0  0  0  0  0  0  0  0  0  0  0
    7.5727   11.0534   25.1092 C   0  0  0  0  0  0  0  0  0  0  0  0
    8.2006    9.8765   24.4732 C   0  0  0  0  0  0  0  0  0  0  0  0
    7.8687    8.7445   24.7986 O   0  0  0  0  0  0  0  0  0  0  0  0
    9.0676   10.1815   23.4889 O   0  0  0  0  0  0  0  0  0  0  0  0
    9.6457    9.0260   22.8855 C   0  0  0  0  0  0  0  0  0  0  0  0
  1  2  1  0
  2  3  3  0
  3  4  1  0
  4  5  1  0
  5  6  1  0
  5  7  1  0
  7  8  2  0
  8  9  1  0
  9 10  2  0
 10 11  1  0
 11 12  1  0
 12 13  1  0
 10 14  1  0
 14 15  2  0
 15 16  1  0
 16 17  2  0
 16 18  1  0
 18 19  1  0
 15  7  1  0
 13 11  1  0
M  END
>  <energy_score>  (2976) 
-20.695111

>  <inchikey>  (2976) 
GMDZUUKOTDMXCW-UHFFFAOYSA-N

>  <smiles>  (2976) 
CC#CCN(N)c1cnc(C2CC2)cc1C(=O)OC

>  <ref_pdb>  (2976) 
A0528a

>  <alias>  (2976) 
GMDZUUKOTDMXCW-UHFFFAOYSA-N-P308-P15-P308-601501

>  <HIPPO Pose ID>  (2976) 
501669

>  <name>  (2976) 
GMDZUUKOTDMXCW-UHFFFAOYSA-N-P308-P15-P308-601501

>  <HIPPO Compound ID>  (2976) 
292548

>  <ref_mols>  (2976) 
A4331a,A0514a

>  <distance_score>  (2976) 
1.428275

>  <inspiration_score>  (2976) 
None

$$$$
ABEXHQKTXABXEF-UHFFFAOYSA-N-P15-P15-P308-601501
     RDKit          3D

 19 20  0  0  0  0  0  0  0  0999 V2000
   10.8206   15.3488   20.2261 C   0  0  0  0  0  0  0  0  0  0  0  0
    9.6209   15.1129   21.1160 C   0  0  0  0  0  0  0  0  0  0  0  0
   10.0272   14.2222   22.2756 C   0  0  0  0  0  0  0  0  0  0  0  0
    8.8375   13.8851   23.1536 C   0  0  0  0  0  0  0  0  0  0  0  0
    9.2381   12.9470   24.2304 N   0  0  0  0  0  0  0  0  0  0  0  0
   10.3913   13.2702   24.9998 N   0  0  0  0  0  0  0  0  0  0  0  0
    8.1102   12.6068   25.0077 C   0  0  0  0  0  0  0  0  0  0  0  0
    7.4567   13.5904   25.7445 C   0  0  0  0  0  0  0  0  0  0  0  0
    6.3703   13.3968   26.5030 N   0  0  0  0  0  0  0  0  0  0  0  0
    5.8518   12.1580   26.5645 C   0  0  0  0  0  0  0  0  0  0  0  0
    4.6430   12.0007   27.4215 C   0  0  0  0  0  0  0  0  0  0  0  0
    4.6946   11.1984   28.6897 C   0  0  0  0  0  0  0  0  0  0  0  0
    4.6386   12.6953   28.7658 C   0  0  0  0  0  0  0  0  0  0  0  0
    6.4336   11.1009   25.8879 C   0  0  0  0  0  0  0  0  0  0  0  0
    7.5760   11.3197   25.1024 C   0  0  0  0  0  0  0  0  0  0  0  0
    8.1179   10.0982   24.4731 C   0  0  0  0  0  0  0  0  0  0  0  0
    7.6807    9.0042   24.8035 O   0  0  0  0  0  0  0  0  0  0  0  0
    9.0698   10.3117   23.5452 O   0  0  0  0  0  0  0  0  0  0  0  0
    9.6084    9.1066   22.9974 C   0  0  0  0  0  0  0  0  0  0  0  0
  1  2  1  0
  2  3  1  0
  3  4  1  0
  4  5  1  0
  5  6  1  0
  5  7  1  0
  7  8  2  0
  8  9  1  0
  9 10  2  0
 10 11  1  0
 11 12  1  0
 12 13  1  0
 10 14  1  0
 14 15  2  0
 15 16  1  0
 16 17  2  0
 16 18  1  0
 18 19  1  0
 15  7  1  0
 13 11  1  0
M  END
>  <energy_score>  (2977) 
-34.7238

>  <inchikey>  (2977) 
ABEXHQKTXABXEF-UHFFFAOYSA-N

>  <smiles>  (2977) 
CCCCN(N)c1cnc(C2CC2)cc1C(=O)OC

>  <ref_pdb>  (2977) 
A0528a

>  <alias>  (2977) 
ABEXHQKTXABXEF-UHFFFAOYSA-N-P15-P15-P308-601501

>  <HIPPO Pose ID>  (2977) 
501672

>  <name>  (2977) 
ABEXHQKTXABXEF-UHFFFAOYSA-N-P15-P15-P308-601501

>  <HIPPO Compound ID>  (2977) 
292550

>  <ref_mols>  (2977) 
A4331a,A0514a

>  <distance_score>  (2977) 
1.782796

>  <inspiration_score>  (2977) 
None

$$$$
ABEXHQKTXABXEF-UHFFFAOYSA-N-P308-P15-P308-601501
     RDKit          3D

 19 20  0  0  0  0  0  0  0  0999 V2000
   10.2307   15.3548   20.8003 C   0  0  0  0  0  0  0  0  0  0  0  0
   10.6147   15.5646   22.2529 C   0  0  0  0  0  0  0  0  0  0  0  0
    9.6135   14.9927   23.2585 C   0  0  0  0  0  0  0  0  0  0  0  0
    9.6013   13.4594   23.2848 C   0  0  0  0  0  0  0  0  0  0  0  0
    8.2494   12.8812   23.2399 N   0  0  0  0  0  0  0  0  0  0  0  0
    7.3162   13.3570   22.2643 N   0  0  0  0  0  0  0  0  0  0  0  0
    7.6784   12.5273   24.4699 C   0  0  0  0  0  0  0  0  0  0  0  0
    7.0984   13.5079   25.2650 C   0  0  0  0  0  0  0  0  0  0  0  0
    6.2844   13.2738   26.3075 N   0  0  0  0  0  0  0  0  0  0  0  0
    5.9367   11.9989   26.5708 C   0  0  0  0  0  0  0  0  0  0  0  0
    4.8863   11.7565   27.6130 C   0  0  0  0  0  0  0  0  0  0  0  0
    4.9721   12.4792   28.9334 C   0  0  0  0  0  0  0  0  0  0  0  0
    3.9152   12.8686   27.9451 C   0  0  0  0  0  0  0  0  0  0  0  0
    6.5465   10.9533   25.9066 C   0  0  0  0  0  0  0  0  0  0  0  0
    7.4727   11.2104   24.8902 C   0  0  0  0  0  0  0  0  0  0  0  0
    8.1073    9.9907   24.3460 C   0  0  0  0  0  0  0  0  0  0  0  0
    7.7324    8.8800   24.7033 O   0  0  0  0  0  0  0  0  0  0  0  0
    9.1292   10.2359   23.5045 O   0  0  0  0  0  0  0  0  0  0  0  0
    9.6823    9.0500   22.9355 C   0  0  0  0  0  0  0  0  0  0  0  0
  1  2  1  0
  2  3  1  0
  3  4  1  0
  4  5  1  0
  5  6  1  0
  5  7  1  0
  7  8  2  0
  8  9  1  0
  9 10  2  0
 10 11  1  0
 11 12  1  0
 12 13  1  0
 10 14  1  0
 14 15  2  0
 15 16  1  0
 16 17  2  0
 16 18  1  0
 18 19  1  0
 15  7  1  0
 13 11  1  0
M  END
>  <energy_score>  (2978) 
-25.081844

>  <inchikey>  (2978) 
ABEXHQKTXABXEF-UHFFFAOYSA-N

>  <smiles>  (2978) 
CCCCN(N)c1cnc(C2CC2)cc1C(=O)OC

>  <ref_pdb>  (2978) 
A0528a

>  <alias>  (2978) 
ABEXHQKTXABXEF-UHFFFAOYSA-N-P308-P15-P308-601501

>  <HIPPO Pose ID>  (2978) 
501673

>  <name>  (2978) 
ABEXHQKTXABXEF-UHFFFAOYSA-N-P308-P15-P308-601501

>  <HIPPO Compound ID>  (2978) 
292550

>  <ref_mols>  (2978) 
A4331a,A0514a

>  <distance_score>  (2978) 
1.934769

>  <inspiration_score>  (2978) 
None

$$$$
BHDGUBOWDZYRMJ-UHFFFAOYSA-N-P308-P15-P308-601501
     RDKit          3D

 19 20  0  0  0  0  0  0  0  0999 V2000
    9.4735    8.6880   23.1200 C   0  0  0  0  0  0  0  0  0  0  0  0
    8.5918    9.5850   23.7887 O   0  0  0  0  0  0  0  0  0  0  0  0
    9.2147   10.5588   24.4892 C   0  0  0  0  0  0  0  0  0  0  0  0
   10.4167   10.7037   24.6522 O   0  0  0  0  0  0  0  0  0  0  0  0
    8.1683   11.4411   25.0502 C   0  0  0  0  0  0  0  0  0  0  0  0
    7.0548   10.8513   25.6680 C   0  0  0  0  0  0  0  0  0  0  0  0
    6.1239   11.6669   26.2950 C   0  0  0  0  0  0  0  0  0  0  0  0
    5.0133   11.1356   27.1589 C   0  0  0  0  0  0  0  0  0  0  0  0
    3.8017   11.9958   27.4572 C   0  0  0  0  0  0  0  0  0  0  0  0
    4.8302   11.7859   28.5205 C   0  0  0  0  0  0  0  0  0  0  0  0
    6.2553   13.0097   26.2632 N   0  0  0  0  0  0  0  0  0  0  0  0
    7.2998   13.5498   25.6197 C   0  0  0  0  0  0  0  0  0  0  0  0
    8.3020   12.8323   24.9922 C   0  0  0  0  0  0  0  0  0  0  0  0
    9.3463   13.4894   24.3449 N   0  0  0  0  0  0  0  0  0  0  0  0
   10.6085   13.4664   24.9864 N   0  0  0  0  0  0  0  0  0  0  0  0
    9.0902   14.4425   23.2253 C   0  0  0  0  0  0  0  0  0  0  0  0
    7.7729   14.1360   22.4880 C   0  0  0  0  0  0  0  0  0  0  0  0
    9.0827   15.8931   23.7210 C   0  0  0  0  0  0  0  0  0  0  0  0
   10.2308   14.2959   22.2060 C   0  0  0  0  0  0  0  0  0  0  0  0
  1  2  1  0
  2  3  1  0
  3  4  2  0
  3  5  1  0
  5  6  2  0
  6  7  1  0
  7  8  1  0
  8  9  1  0
  9 10  1  0
  7 11  2  0
 11 12  1  0
 12 13  2  0
 13 14  1  0
 14 15  1  0
 14 16  1  0
 16 17  1  0
 16 18  1  0
 16 19  1  0
 13  5  1  0
 10  8  1  0
M  END
>  <energy_score>  (2979) 
-57.29057

>  <inchikey>  (2979) 
BHDGUBOWDZYRMJ-UHFFFAOYSA-N

>  <smiles>  (2979) 
COC(=O)c1cc(C2CC2)ncc1N(N)C(C)(C)C

>  <ref_pdb>  (2979) 
A0528a

>  <alias>  (2979) 
BHDGUBOWDZYRMJ-UHFFFAOYSA-N-P308-P15-P308-601501

>  <HIPPO Pose ID>  (2979) 
501675

>  <name>  (2979) 
BHDGUBOWDZYRMJ-UHFFFAOYSA-N-P308-P15-P308-601501

>  <HIPPO Compound ID>  (2979) 
292551

>  <ref_mols>  (2979) 
A4331a,A0514a

>  <distance_score>  (2979) 
1.809016

>  <inspiration_score>  (2979) 
None

$$$$
MFBBMKUQWCDISB-UHFFFAOYSA-N-P15-P15-P308-601501
     RDKit          3D

 19 21  0  0  0  0  0  0  0  0999 V2000
    9.1662    8.2876   22.8198 C   0  0  0  0  0  0  0  0  0  0  0  0
    8.3396    9.0925   23.6506 O   0  0  0  0  0  0  0  0  0  0  0  0
    8.9633   10.2434   23.9736 C   0  0  0  0  0  0  0  0  0  0  0  0
   10.1083   10.5188   23.6583 O   0  0  0  0  0  0  0  0  0  0  0  0
    8.0630   11.1152   24.7591 C   0  0  0  0  0  0  0  0  0  0  0  0
    7.0330   10.5624   25.5309 C   0  0  0  0  0  0  0  0  0  0  0  0
    6.2442   11.4027   26.3064 C   0  0  0  0  0  0  0  0  0  0  0  0
    5.1977   10.8924   27.2550 C   0  0  0  0  0  0  0  0  0  0  0  0
    5.2150   11.3832   28.6852 C   0  0  0  0  0  0  0  0  0  0  0  0
    4.1349   11.8522   27.7616 C   0  0  0  0  0  0  0  0  0  0  0  0
    6.4347   12.7387   26.2923 N   0  0  0  0  0  0  0  0  0  0  0  0
    7.3888   13.2524   25.5032 C   0  0  0  0  0  0  0  0  0  0  0  0
    8.2569   12.4983   24.7315 C   0  0  0  0  0  0  0  0  0  0  0  0
    9.2420   13.1235   23.9313 N   0  0  0  0  0  0  0  0  0  0  0  0
   10.5696   12.9856   24.4560 N   0  0  0  0  0  0  0  0  0  0  0  0
    8.9772   14.3742   23.2847 C   0  0  0  0  0  0  0  0  0  0  0  0
    7.8061   14.3754   22.2872 C   0  0  0  0  0  0  0  0  0  0  0  0
    8.6998   15.2078   21.3482 C   0  0  0  0  0  0  0  0  0  0  0  0
    9.9107   14.6126   22.0708 C   0  0  0  0  0  0  0  0  0  0  0  0
  1  2  1  0
  2  3  1  0
  3  4  2  0
  3  5  1  0
  5  6  2  0
  6  7  1  0
  7  8  1  0
  8  9  1  0
  9 10  1  0
  7 11  2  0
 11 12  1  0
 12 13  2  0
 13 14  1  0
 14 15  1  0
 14 16  1  0
 16 17  1  0
 17 18  1  0
 18 19  1  0
 13  5  1  0
 19 16  1  0
 10  8  1  0
M  END
>  <energy_score>  (2980) 
-39.945967

>  <inchikey>  (2980) 
MFBBMKUQWCDISB-UHFFFAOYSA-N

>  <smiles>  (2980) 
COC(=O)c1cc(C2CC2)ncc1N(N)C1CCC1

>  <ref_pdb>  (2980) 
A0528a

>  <alias>  (2980) 
MFBBMKUQWCDISB-UHFFFAOYSA-N-P15-P15-P308-601501

>  <HIPPO Pose ID>  (2980) 
501676

>  <name>  (2980) 
MFBBMKUQWCDISB-UHFFFAOYSA-N-P15-P15-P308-601501

>  <HIPPO Compound ID>  (2980) 
292552

>  <ref_mols>  (2980) 
A4331a,A0514a

>  <distance_score>  (2980) 
1.647384

>  <inspiration_score>  (2980) 
None

$$$$
MFBBMKUQWCDISB-UHFFFAOYSA-N-P308-P15-P308-601501
     RDKit          3D

 19 21  0  0  0  0  0  0  0  0999 V2000
    9.3378    8.4711   23.6668 C   0  0  0  0  0  0  0  0  0  0  0  0
    8.6276    9.4102   24.4639 O   0  0  0  0  0  0  0  0  0  0  0  0
    8.6894   10.6553   23.9379 C   0  0  0  0  0  0  0  0  0  0  0  0
    9.2494   10.9454   22.8947 O   0  0  0  0  0  0  0  0  0  0  0  0
    7.9864   11.6041   24.8237 C   0  0  0  0  0  0  0  0  0  0  0  0
    6.8280   11.1772   25.4985 C   0  0  0  0  0  0  0  0  0  0  0  0
    6.0922   12.1103   26.2141 C   0  0  0  0  0  0  0  0  0  0  0  0
    4.7567   11.8576   26.8305 C   0  0  0  0  0  0  0  0  0  0  0  0
    4.4779   10.8509   27.9041 C   0  0  0  0  0  0  0  0  0  0  0  0
    4.5862   12.2992   28.2713 C   0  0  0  0  0  0  0  0  0  0  0  0
    6.5113   13.3855   26.3300 N   0  0  0  0  0  0  0  0  0  0  0  0
    7.6075   13.7707   25.6622 C   0  0  0  0  0  0  0  0  0  0  0  0
    8.3909   12.9436   24.8742 C   0  0  0  0  0  0  0  0  0  0  0  0
    9.4713   13.4985   24.1422 N   0  0  0  0  0  0  0  0  0  0  0  0
   10.7168   12.8356   24.2859 N   0  0  0  0  0  0  0  0  0  0  0  0
    9.4384   14.8611   23.6283 C   0  0  0  0  0  0  0  0  0  0  0  0
    8.2535   15.0937   22.6489 C   0  0  0  0  0  0  0  0  0  0  0  0
    9.2278   14.9010   21.4788 C   0  0  0  0  0  0  0  0  0  0  0  0
   10.3856   15.1645   22.4454 C   0  0  0  0  0  0  0  0  0  0  0  0
  1  2  1  0
  2  3  1  0
  3  4  2  0
  3  5  1  0
  5  6  2  0
  6  7  1  0
  7  8  1  0
  8  9  1  0
  9 10  1  0
  7 11  2  0
 11 12  1  0
 12 13  2  0
 13 14  1  0
 14 15  1  0
 14 16  1  0
 16 17  1  0
 17 18  1  0
 18 19  1  0
 13  5  1  0
 19 16  1  0
 10  8  1  0
M  END
>  <energy_score>  (2981) 
-39.231264

>  <inchikey>  (2981) 
MFBBMKUQWCDISB-UHFFFAOYSA-N

>  <smiles>  (2981) 
COC(=O)c1cc(C2CC2)ncc1N(N)C1CCC1

>  <ref_pdb>  (2981) 
A0528a

>  <alias>  (2981) 
MFBBMKUQWCDISB-UHFFFAOYSA-N-P308-P15-P308-601501

>  <HIPPO Pose ID>  (2981) 
501677

>  <name>  (2981) 
MFBBMKUQWCDISB-UHFFFAOYSA-N-P308-P15-P308-601501

>  <HIPPO Compound ID>  (2981) 
292552

>  <ref_mols>  (2981) 
A4331a,A0514a

>  <distance_score>  (2981) 
1.560838

>  <inspiration_score>  (2981) 
None

$$$$
LHIIDAUGVAOKMD-UHFFFAOYSA-N-P15-P15-P308-601501
     RDKit          3D

 19 20  0  0  0  0  0  0  0  0999 V2000
    9.3808    8.4951   23.0474 C   0  0  0  0  0  0  0  0  0  0  0  0
    8.6305    9.3218   23.9400 O   0  0  0  0  0  0  0  0  0  0  0  0
    8.9223   10.6386   23.8470 C   0  0  0  0  0  0  0  0  0  0  0  0
    9.7603   11.1190   23.1052 O   0  0  0  0  0  0  0  0  0  0  0  0
    8.0713   11.4383   24.7654 C   0  0  0  0  0  0  0  0  0  0  0  0
    7.0081   10.8381   25.4554 C   0  0  0  0  0  0  0  0  0  0  0  0
    6.2533   11.6069   26.3322 C   0  0  0  0  0  0  0  0  0  0  0  0
    5.2134   11.0192   27.2450 C   0  0  0  0  0  0  0  0  0  0  0  0
    4.0231   11.8551   27.6672 C   0  0  0  0  0  0  0  0  0  0  0  0
    5.1181   11.5840   28.6500 C   0  0  0  0  0  0  0  0  0  0  0  0
    6.4873   12.9306   26.4737 N   0  0  0  0  0  0  0  0  0  0  0  0
    7.4937   13.4950   25.7934 C   0  0  0  0  0  0  0  0  0  0  0  0
    8.3607   12.7980   24.9698 C   0  0  0  0  0  0  0  0  0  0  0  0
    9.5091   13.4297   24.4324 N   0  0  0  0  0  0  0  0  0  0  0  0
   10.2453   14.2540   25.3353 N   0  0  0  0  0  0  0  0  0  0  0  0
    9.1852   14.0195   23.1047 C   0  0  0  0  0  0  0  0  0  0  0  0
   10.4724   14.2728   22.3333 C   0  0  0  0  0  0  0  0  0  0  0  0
   10.2281   15.0398   21.1236 C   0  0  0  0  0  0  0  0  0  0  0  0
   10.0850   15.6543   20.1544 N   0  0  0  0  0  0  0  0  0  0  0  0
  1  2  1  0
  2  3  1  0
  3  4  2  0
  3  5  1  0
  5  6  2  0
  6  7  1  0
  7  8  1  0
  8  9  1  0
  9 10  1  0
  7 11  2  0
 11 12  1  0
 12 13  2  0
 13 14  1  0
 14 15  1  0
 14 16  1  0
 16 17  1  0
 17 18  1  0
 18 19  3  0
 13  5  1  0
 10  8  1  0
M  END
>  <energy_score>  (2982) 
-28.539375

>  <inchikey>  (2982) 
LHIIDAUGVAOKMD-UHFFFAOYSA-N

>  <smiles>  (2982) 
COC(=O)c1cc(C2CC2)ncc1N(N)CCC#N

>  <ref_pdb>  (2982) 
A0528a

>  <alias>  (2982) 
LHIIDAUGVAOKMD-UHFFFAOYSA-N-P15-P15-P308-601501

>  <HIPPO Pose ID>  (2982) 
501678

>  <name>  (2982) 
LHIIDAUGVAOKMD-UHFFFAOYSA-N-P15-P15-P308-601501

>  <HIPPO Compound ID>  (2982) 
292553

>  <ref_mols>  (2982) 
A4331a,A0514a

>  <distance_score>  (2982) 
1.473554

>  <inspiration_score>  (2982) 
None

$$$$
LHIIDAUGVAOKMD-UHFFFAOYSA-N-P308-P15-P308-601501
     RDKit          3D

 19 20  0  0  0  0  0  0  0  0999 V2000
    9.4657    8.6273   23.0703 C   0  0  0  0  0  0  0  0  0  0  0  0
    8.6430    9.5688   23.7493 O   0  0  0  0  0  0  0  0  0  0  0  0
    9.3311   10.4809   24.4758 C   0  0  0  0  0  0  0  0  0  0  0  0
   10.5377   10.5191   24.6462 O   0  0  0  0  0  0  0  0  0  0  0  0
    8.3443   11.4511   24.9977 C   0  0  0  0  0  0  0  0  0  0  0  0
    7.1482   10.9557   25.5434 C   0  0  0  0  0  0  0  0  0  0  0  0
    6.2702   11.8401   26.1519 C   0  0  0  0  0  0  0  0  0  0  0  0
    5.0847   11.3863   26.9601 C   0  0  0  0  0  0  0  0  0  0  0  0
    3.9100   12.3161   27.1781 C   0  0  0  0  0  0  0  0  0  0  0  0
    4.8624   12.0621   28.3024 C   0  0  0  0  0  0  0  0  0  0  0  0
    6.5239   13.1669   26.1505 N   0  0  0  0  0  0  0  0  0  0  0  0
    7.6724   13.6166   25.6196 C   0  0  0  0  0  0  0  0  0  0  0  0
    8.6435   12.8170   25.0423 C   0  0  0  0  0  0  0  0  0  0  0  0
    9.8468   13.3674   24.5837 N   0  0  0  0  0  0  0  0  0  0  0  0
   10.5174   14.2571   25.4527 N   0  0  0  0  0  0  0  0  0  0  0  0
    9.9688   13.5420   23.1220 C   0  0  0  0  0  0  0  0  0  0  0  0
    9.2556   14.7894   22.6067 C   0  0  0  0  0  0  0  0  0  0  0  0
    9.8177   15.1698   21.3099 C   0  0  0  0  0  0  0  0  0  0  0  0
   10.3148   15.4545   20.3024 N   0  0  0  0  0  0  0  0  0  0  0  0
  1  2  1  0
  2  3  1  0
  3  4  2  0
  3  5  1  0
  5  6  2  0
  6  7  1  0
  7  8  1  0
  8  9  1  0
  9 10  1  0
  7 11  2  0
 11 12  1  0
 12 13  2  0
 13 14  1  0
 14 15  1  0
 14 16  1  0
 16 17  1  0
 17 18  1  0
 18 19  3  0
 13  5  1  0
 10  8  1  0
M  END
>  <energy_score>  (2983) 
-23.373714

>  <inchikey>  (2983) 
LHIIDAUGVAOKMD-UHFFFAOYSA-N

>  <smiles>  (2983) 
COC(=O)c1cc(C2CC2)ncc1N(N)CCC#N

>  <ref_pdb>  (2983) 
A0528a

>  <alias>  (2983) 
LHIIDAUGVAOKMD-UHFFFAOYSA-N-P308-P15-P308-601501

>  <HIPPO Pose ID>  (2983) 
501679

>  <name>  (2983) 
LHIIDAUGVAOKMD-UHFFFAOYSA-N-P308-P15-P308-601501

>  <HIPPO Compound ID>  (2983) 
292553

>  <ref_mols>  (2983) 
A4331a,A0514a

>  <distance_score>  (2983) 
1.520063

>  <inspiration_score>  (2983) 
None

$$$$
PLQZYICTDPHYEP-UHFFFAOYSA-N-P15-P15-P308-601501
     RDKit          3D

 19 21  0  0  0  0  0  0  0  0999 V2000
    9.2737    8.4910   22.9659 C   0  0  0  0  0  0  0  0  0  0  0  0
    8.3869    9.2297   23.8075 O   0  0  0  0  0  0  0  0  0  0  0  0
    8.8601   10.4587   24.1080 C   0  0  0  0  0  0  0  0  0  0  0  0
    9.9442   10.8913   23.7558 O   0  0  0  0  0  0  0  0  0  0  0  0
    7.8698   11.2194   24.9173 C   0  0  0  0  0  0  0  0  0  0  0  0
    6.8592   10.5435   25.6131 C   0  0  0  0  0  0  0  0  0  0  0  0
    6.0265   11.2614   26.4642 C   0  0  0  0  0  0  0  0  0  0  0  0
    5.0812   10.6079   27.4288 C   0  0  0  0  0  0  0  0  0  0  0  0
    3.8941   11.3787   27.9695 C   0  0  0  0  0  0  0  0  0  0  0  0
    5.0792   11.1378   28.8509 C   0  0  0  0  0  0  0  0  0  0  0  0
    6.1159   12.6040   26.5607 N   0  0  0  0  0  0  0  0  0  0  0  0
    7.0738   13.2363   25.8792 C   0  0  0  0  0  0  0  0  0  0  0  0
    8.0093   12.6052   25.0765 C   0  0  0  0  0  0  0  0  0  0  0  0
    9.0394   13.3665   24.4746 N   0  0  0  0  0  0  0  0  0  0  0  0
    9.6136   14.3366   25.3176 N   0  0  0  0  0  0  0  0  0  0  0  0
    9.0057   13.5499   23.0322 C   0  0  0  0  0  0  0  0  0  0  0  0
   10.2404   14.2082   22.3848 C   0  0  0  0  0  0  0  0  0  0  0  0
    9.1594   15.0747   21.2120 S   0  0  0  0  0  0  0  0  0  0  0  0
    8.0022   14.6087   22.5342 C   0  0  0  0  0  0  0  0  0  0  0  0
  1  2  1  0
  2  3  1  0
  3  4  2  0
  3  5  1  0
  5  6  2  0
  6  7  1  0
  7  8  1  0
  8  9  1  0
  9 10  1  0
  7 11  2  0
 11 12  1  0
 12 13  2  0
 13 14  1  0
 14 15  1  0
 14 16  1  0
 16 17  1  0
 17 18  1  0
 18 19  1  0
 13  5  1  0
 19 16  1  0
 10  8  1  0
M  END
>  <energy_score>  (2984) 
-27.39519

>  <inchikey>  (2984) 
PLQZYICTDPHYEP-UHFFFAOYSA-N

>  <smiles>  (2984) 
COC(=O)c1cc(C2CC2)ncc1N(N)C1CSC1

>  <ref_pdb>  (2984) 
A0528a

>  <alias>  (2984) 
PLQZYICTDPHYEP-UHFFFAOYSA-N-P15-P15-P308-601501

>  <HIPPO Pose ID>  (2984) 
501684

>  <name>  (2984) 
PLQZYICTDPHYEP-UHFFFAOYSA-N-P15-P15-P308-601501

>  <HIPPO Compound ID>  (2984) 
292556

>  <ref_mols>  (2984) 
A4331a,A0514a

>  <distance_score>  (2984) 
1.575181

>  <inspiration_score>  (2984) 
None

$$$$
PLQZYICTDPHYEP-UHFFFAOYSA-N-P308-P15-P308-601501
     RDKit          3D

 19 21  0  0  0  0  0  0  0  0999 V2000
    9.6853    9.0227   22.8093 C   0  0  0  0  0  0  0  0  0  0  0  0
    9.2192   10.2086   23.4542 O   0  0  0  0  0  0  0  0  0  0  0  0
    8.3343    9.9553   24.4347 C   0  0  0  0  0  0  0  0  0  0  0  0
    7.9906    8.8422   24.8049 O   0  0  0  0  0  0  0  0  0  0  0  0
    7.7478   11.1767   25.0250 C   0  0  0  0  0  0  0  0  0  0  0  0
    6.5781   10.9161   25.7584 C   0  0  0  0  0  0  0  0  0  0  0  0
    5.9338   11.9390   26.4279 C   0  0  0  0  0  0  0  0  0  0  0  0
    4.7561   11.6850   27.3215 C   0  0  0  0  0  0  0  0  0  0  0  0
    3.5620   12.6042   27.2566 C   0  0  0  0  0  0  0  0  0  0  0  0
    4.4749   12.6634   28.4437 C   0  0  0  0  0  0  0  0  0  0  0  0
    6.3946   13.2024   26.3468 N   0  0  0  0  0  0  0  0  0  0  0  0
    7.4954   13.4465   25.6213 C   0  0  0  0  0  0  0  0  0  0  0  0
    8.2396   12.4861   24.9467 C   0  0  0  0  0  0  0  0  0  0  0  0
    9.4309   12.9501   24.3359 N   0  0  0  0  0  0  0  0  0  0  0  0
   10.6251   12.3289   24.7715 N   0  0  0  0  0  0  0  0  0  0  0  0
    9.4542   13.4422   22.9616 C   0  0  0  0  0  0  0  0  0  0  0  0
   10.3578   14.7007   22.8012 C   0  0  0  0  0  0  0  0  0  0  0  0
    9.2712   15.2773   21.4527 S   0  0  0  0  0  0  0  0  0  0  0  0
    8.1941   14.2389   22.5003 C   0  0  0  0  0  0  0  0  0  0  0  0
  1  2  1  0
  2  3  1  0
  3  4  2  0
  3  5  1  0
  5  6  2  0
  6  7  1  0
  7  8  1  0
  8  9  1  0
  9 10  1  0
  7 11  2  0
 11 12  1  0
 12 13  2  0
 13 14  1  0
 14 15  1  0
 14 16  1  0
 16 17  1  0
 17 18  1  0
 18 19  1  0
 13  5  1  0
 19 16  1  0
 10  8  1  0
M  END
>  <energy_score>  (2985) 
-32.22719

>  <inchikey>  (2985) 
PLQZYICTDPHYEP-UHFFFAOYSA-N

>  <smiles>  (2985) 
COC(=O)c1cc(C2CC2)ncc1N(N)C1CSC1

>  <ref_pdb>  (2985) 
A0528a

>  <alias>  (2985) 
PLQZYICTDPHYEP-UHFFFAOYSA-N-P308-P15-P308-601501

>  <HIPPO Pose ID>  (2985) 
501685

>  <name>  (2985) 
PLQZYICTDPHYEP-UHFFFAOYSA-N-P308-P15-P308-601501

>  <HIPPO Compound ID>  (2985) 
292556

>  <ref_mols>  (2985) 
A4331a,A0514a

>  <distance_score>  (2985) 
1.332852

>  <inspiration_score>  (2985) 
None

$$$$
GXLJADKCGCGIBN-UHFFFAOYSA-N-P15-P15-P308-601501
     RDKit          3D

 19 21  0  0  0  0  0  0  0  0999 V2000
    9.7262    8.4274   23.4006 C   0  0  0  0  0  0  0  0  0  0  0  0
    8.8086    9.1975   24.1702 O   0  0  0  0  0  0  0  0  0  0  0  0
    8.8470   10.4956   23.7894 C   0  0  0  0  0  0  0  0  0  0  0  0
    9.4679   10.9100   22.8276 O   0  0  0  0  0  0  0  0  0  0  0  0
    8.0564   11.3357   24.7198 C   0  0  0  0  0  0  0  0  0  0  0  0
    7.0724   10.7601   25.5342 C   0  0  0  0  0  0  0  0  0  0  0  0
    6.3540   11.5748   26.3983 C   0  0  0  0  0  0  0  0  0  0  0  0
    5.3244   11.0386   27.3541 C   0  0  0  0  0  0  0  0  0  0  0  0
    4.0998   11.8688   27.6762 C   0  0  0  0  0  0  0  0  0  0  0  0
    5.1812   11.7227   28.7003 C   0  0  0  0  0  0  0  0  0  0  0  0
    6.5976   12.9042   26.4628 N   0  0  0  0  0  0  0  0  0  0  0  0
    7.5069   13.4396   25.6335 C   0  0  0  0  0  0  0  0  0  0  0  0
    8.2724   12.7189   24.7373 C   0  0  0  0  0  0  0  0  0  0  0  0
    9.1160   13.3463   23.8378 N   0  0  0  0  0  0  0  0  0  0  0  0
   10.4528   13.5056   24.1245 N   0  0  0  0  0  0  0  0  0  0  0  0
   10.9125   14.2070   23.1338 C   0  0  0  0  0  0  0  0  0  0  0  0
    9.8870   14.6474   22.1358 C   0  0  0  0  0  0  0  0  0  0  0  0
    8.6522   14.4455   23.0064 C   0  0  1  0  0  0  0  0  0  0  0  0
    7.4024   14.1891   22.2124 C   0  0  0  0  0  0  0  0  0  0  0  0
  1  2  1  0
  2  3  1  0
  3  4  2  0
  3  5  1  0
  5  6  2  0
  6  7  1  0
  7  8  1  0
  8  9  1  0
  9 10  1  0
  7 11  2  0
 11 12  1  0
 12 13  2  0
 13 14  1  0
 14 15  1  0
 15 16  2  0
 16 17  1  0
 17 18  1  0
 18 19  1  6
 13  5  1  0
 18 14  1  0
 10  8  1  0
M  END
>  <energy_score>  (2986) 
-34.780809

>  <inchikey>  (2986) 
GXLJADKCGCGIBN-UHFFFAOYSA-N

>  <smiles>  (2986) 
COC(=O)c1cc(C2CC2)ncc1N1N=CCC1C

>  <ref_pdb>  (2986) 
A0528a

>  <alias>  (2986) 
GXLJADKCGCGIBN-UHFFFAOYSA-N-P15-P15-P308-601501

>  <HIPPO Pose ID>  (2986) 
501686

>  <name>  (2986) 
GXLJADKCGCGIBN-UHFFFAOYSA-N-P15-P15-P308-601501

>  <HIPPO Compound ID>  (2986) 
292557

>  <ref_mols>  (2986) 
A4331a,A0514a

>  <distance_score>  (2986) 
1.433694

>  <inspiration_score>  (2986) 
None

$$$$
GXLJADKCGCGIBN-UHFFFAOYSA-N-P308-P15-P308-601501
     RDKit          3D

 19 21  0  0  0  0  0  0  0  0999 V2000
    9.6901    8.5772   23.5601 C   0  0  0  0  0  0  0  0  0  0  0  0
    8.9430    9.4934   24.3546 O   0  0  0  0  0  0  0  0  0  0  0  0
    8.9024   10.7453   23.8409 C   0  0  0  0  0  0  0  0  0  0  0  0
    9.4138   11.0996   22.7959 O   0  0  0  0  0  0  0  0  0  0  0  0
    8.1180   11.6169   24.7389 C   0  0  0  0  0  0  0  0  0  0  0  0
    7.0677   11.0549   25.4850 C   0  0  0  0  0  0  0  0  0  0  0  0
    6.2976   11.8784   26.2908 C   0  0  0  0  0  0  0  0  0  0  0  0
    5.1562   11.3690   27.1291 C   0  0  0  0  0  0  0  0  0  0  0  0
    3.9273   12.2324   27.3194 C   0  0  0  0  0  0  0  0  0  0  0  0
    4.8845   12.0558   28.4550 C   0  0  0  0  0  0  0  0  0  0  0  0
    6.5791   13.1975   26.3909 N   0  0  0  0  0  0  0  0  0  0  0  0
    7.5795   13.7123   25.6545 C   0  0  0  0  0  0  0  0  0  0  0  0
    8.3726   12.9928   24.7796 C   0  0  0  0  0  0  0  0  0  0  0  0
    9.2897   13.6260   23.9356 N   0  0  0  0  0  0  0  0  0  0  0  0
   10.5491   13.8905   24.4276 N   0  0  0  0  0  0  0  0  0  0  0  0
   11.0351   14.8144   23.6608 C   0  0  0  0  0  0  0  0  0  0  0  0
   10.1216   15.3294   22.5999 C   0  0  0  0  0  0  0  0  0  0  0  0
    8.8164   14.7755   23.1480 C   0  0  1  0  0  0  0  0  0  0  0  0
    7.8403   14.3721   22.0616 C   0  0  0  0  0  0  0  0  0  0  0  0
  1  2  1  0
  2  3  1  0
  3  4  2  0
  3  5  1  0
  5  6  2  0
  6  7  1  0
  7  8  1  0
  8  9  1  0
  9 10  1  0
  7 11  2  0
 11 12  1  0
 12 13  2  0
 13 14  1  0
 14 15  1  0
 15 16  2  0
 16 17  1  0
 17 18  1  0
 18 19  1  6
 13  5  1  0
 18 14  1  0
 10  8  1  0
M  END
>  <energy_score>  (2987) 
-40.020321

>  <inchikey>  (2987) 
GXLJADKCGCGIBN-UHFFFAOYSA-N

>  <smiles>  (2987) 
COC(=O)c1cc(C2CC2)ncc1N1N=CCC1C

>  <ref_pdb>  (2987) 
A0528a

>  <alias>  (2987) 
GXLJADKCGCGIBN-UHFFFAOYSA-N-P308-P15-P308-601501

>  <HIPPO Pose ID>  (2987) 
501687

>  <name>  (2987) 
GXLJADKCGCGIBN-UHFFFAOYSA-N-P308-P15-P308-601501

>  <HIPPO Compound ID>  (2987) 
292557

>  <ref_mols>  (2987) 
A4331a,A0514a

>  <distance_score>  (2987) 
1.404037

>  <inspiration_score>  (2987) 
None

$$$$
LAJJOOWLOCFVGW-UHFFFAOYSA-N-P308-P15-P308-601501
     RDKit          3D

 19 20  0  0  0  0  0  0  0  0999 V2000
   10.2545   15.4722   20.4887 C   0  0  0  0  0  0  0  0  0  0  0  0
    9.9035   15.1780   21.5983 C   0  0  0  0  0  0  0  0  0  0  0  0
    9.5474   14.7725   22.9664 C   0  0  0  0  0  0  0  0  0  0  0  0
    9.6179   13.2462   23.0936 C   0  0  0  0  0  0  0  0  0  0  0  0
    9.7226   12.7294   24.4864 N   0  0  0  0  0  0  0  0  0  0  0  0
   10.6973   13.3289   25.3286 N   0  0  0  0  0  0  0  0  0  0  0  0
    8.4497   12.5349   25.0616 C   0  0  0  0  0  0  0  0  0  0  0  0
    7.7963   13.5964   25.6738 C   0  0  0  0  0  0  0  0  0  0  0  0
    6.5788   13.5313   26.2369 N   0  0  0  0  0  0  0  0  0  0  0  0
    5.9228   12.3551   26.2192 C   0  0  0  0  0  0  0  0  0  0  0  0
    4.5549   12.3509   26.8157 C   0  0  0  0  0  0  0  0  0  0  0  0
    4.2501   11.6113   28.0887 C   0  0  0  0  0  0  0  0  0  0  0  0
    4.3457   13.1072   28.1100 C   0  0  0  0  0  0  0  0  0  0  0  0
    6.4952   11.2264   25.6631 C   0  0  0  0  0  0  0  0  0  0  0  0
    7.7622   11.3129   25.0705 C   0  0  0  0  0  0  0  0  0  0  0  0
    8.2584   10.0278   24.5345 C   0  0  0  0  0  0  0  0  0  0  0  0
    7.7762    8.9633   24.8982 O   0  0  0  0  0  0  0  0  0  0  0  0
    9.1898   10.1813   23.5740 O   0  0  0  0  0  0  0  0  0  0  0  0
    9.6427    8.9498   23.0169 C   0  0  0  0  0  0  0  0  0  0  0  0
  1  2  3  0
  2  3  1  0
  3  4  1  0
  4  5  1  0
  5  6  1  0
  5  7  1  0
  7  8  2  0
  8  9  1  0
  9 10  2  0
 10 11  1  0
 11 12  1  0
 12 13  1  0
 10 14  1  0
 14 15  2  0
 15 16  1  0
 16 17  2  0
 16 18  1  0
 18 19  1  0
 15  7  1  0
 13 11  1  0
M  END
>  <energy_score>  (2988) 
-27.078296

>  <inchikey>  (2988) 
LAJJOOWLOCFVGW-UHFFFAOYSA-N

>  <smiles>  (2988) 
C#CCCN(N)c1cnc(C2CC2)cc1C(=O)OC

>  <ref_pdb>  (2988) 
A0528a

>  <alias>  (2988) 
LAJJOOWLOCFVGW-UHFFFAOYSA-N-P308-P15-P308-601501

>  <HIPPO Pose ID>  (2988) 
501689

>  <name>  (2988) 
LAJJOOWLOCFVGW-UHFFFAOYSA-N-P308-P15-P308-601501

>  <HIPPO Compound ID>  (2988) 
292558

>  <ref_mols>  (2988) 
A4331a,A0514a

>  <distance_score>  (2988) 
1.408605

>  <inspiration_score>  (2988) 
None

$$$$
ALSRXESHQAVPAZ-UHFFFAOYSA-N-P15-P15-P308-601501
     RDKit          3D

 19 20  0  0  0  0  0  0  0  0999 V2000
   10.6233   15.3274   20.0946 C   0  0  0  0  0  0  0  0  0  0  0  0
    9.8254   15.2330   21.1634 C   0  0  0  0  0  0  0  0  0  0  0  0
   10.1286   14.2886   22.2806 C   0  0  0  0  0  0  0  0  0  0  0  0
    8.8930   13.8848   23.0848 C   0  0  0  0  0  0  0  0  0  0  0  0
    9.2490   12.9045   24.1449 N   0  0  0  0  0  0  0  0  0  0  0  0
   10.4066   13.1640   24.9331 N   0  0  0  0  0  0  0  0  0  0  0  0
    8.1265   12.5295   24.9108 C   0  0  0  0  0  0  0  0  0  0  0  0
    7.4522   13.4773   25.6731 C   0  0  0  0  0  0  0  0  0  0  0  0
    6.4257   13.2228   26.5010 N   0  0  0  0  0  0  0  0  0  0  0  0
    5.9741   11.9574   26.5999 C   0  0  0  0  0  0  0  0  0  0  0  0
    4.8547   11.6917   27.5616 C   0  0  0  0  0  0  0  0  0  0  0  0
    3.5977   12.5222   27.4752 C   0  0  0  0  0  0  0  0  0  0  0  0
    4.5396   12.7258   28.6226 C   0  0  0  0  0  0  0  0  0  0  0  0
    6.5572   10.9445   25.8647 C   0  0  0  0  0  0  0  0  0  0  0  0
    7.6508   11.2212   25.0268 C   0  0  0  0  0  0  0  0  0  0  0  0
    8.2170   10.0202   24.3847 C   0  0  0  0  0  0  0  0  0  0  0  0
    7.8219    8.9139   24.7266 O   0  0  0  0  0  0  0  0  0  0  0  0
    9.1381   10.2585   23.4343 O   0  0  0  0  0  0  0  0  0  0  0  0
    9.6819    9.0576   22.8868 C   0  0  0  0  0  0  0  0  0  0  0  0
  1  2  2  0
  2  3  1  0
  3  4  1  0
  4  5  1  0
  5  6  1  0
  5  7  1  0
  7  8  2  0
  8  9  1  0
  9 10  2  0
 10 11  1  0
 11 12  1  0
 12 13  1  0
 10 14  1  0
 14 15  2  0
 15 16  1  0
 16 17  2  0
 16 18  1  0
 18 19  1  0
 15  7  1  0
 13 11  1  0
M  END
>  <energy_score>  (2989) 
-30.012668

>  <inchikey>  (2989) 
ALSRXESHQAVPAZ-UHFFFAOYSA-N

>  <smiles>  (2989) 
C=CCCN(N)c1cnc(C2CC2)cc1C(=O)OC

>  <ref_pdb>  (2989) 
A0528a

>  <alias>  (2989) 
ALSRXESHQAVPAZ-UHFFFAOYSA-N-P15-P15-P308-601501

>  <HIPPO Pose ID>  (2989) 
501690

>  <name>  (2989) 
ALSRXESHQAVPAZ-UHFFFAOYSA-N-P15-P15-P308-601501

>  <HIPPO Compound ID>  (2989) 
292559

>  <ref_mols>  (2989) 
A4331a,A0514a

>  <distance_score>  (2989) 
1.505503

>  <inspiration_score>  (2989) 
None

$$$$
ALSRXESHQAVPAZ-UHFFFAOYSA-N-P308-P15-P308-601501
     RDKit          3D

 19 20  0  0  0  0  0  0  0  0999 V2000
   10.8127   15.4053   20.3770 C   0  0  0  0  0  0  0  0  0  0  0  0
    9.7861   15.4047   21.2358 C   0  0  0  0  0  0  0  0  0  0  0  0
    9.9380   15.1052   22.6962 C   0  0  0  0  0  0  0  0  0  0  0  0
    9.3872   13.7232   23.0435 C   0  0  0  0  0  0  0  0  0  0  0  0
    9.5264   13.4943   24.4945 N   0  0  0  0  0  0  0  0  0  0  0  0
   10.8139   13.1962   24.9938 N   0  0  0  0  0  0  0  0  0  0  0  0
    8.4343   12.7895   25.0275 C   0  0  0  0  0  0  0  0  0  0  0  0
    7.4108   13.5544   25.5646 C   0  0  0  0  0  0  0  0  0  0  0  0
    6.3190   13.0578   26.1622 N   0  0  0  0  0  0  0  0  0  0  0  0
    6.1609   11.7189   26.2311 C   0  0  0  0  0  0  0  0  0  0  0  0
    5.0296   11.2285   27.0929 C   0  0  0  0  0  0  0  0  0  0  0  0
    3.8318   12.1162   27.3609 C   0  0  0  0  0  0  0  0  0  0  0  0
    4.8469   11.9113   28.4385 C   0  0  0  0  0  0  0  0  0  0  0  0
    7.0830   10.8658   25.6394 C   0  0  0  0  0  0  0  0  0  0  0  0
    8.2379   11.4063   25.0512 C   0  0  0  0  0  0  0  0  0  0  0  0
    9.2372   10.4720   24.4920 C   0  0  0  0  0  0  0  0  0  0  0  0
   10.4461   10.5684   24.6279 O   0  0  0  0  0  0  0  0  0  0  0  0
    8.5705    9.5267   23.7914 O   0  0  0  0  0  0  0  0  0  0  0  0
    9.4219    8.6201   23.0982 C   0  0  0  0  0  0  0  0  0  0  0  0
  1  2  2  0
  2  3  1  0
  3  4  1  0
  4  5  1  0
  5  6  1  0
  5  7  1  0
  7  8  2  0
  8  9  1  0
  9 10  2  0
 10 11  1  0
 11 12  1  0
 12 13  1  0
 10 14  1  0
 14 15  2  0
 15 16  1  0
 16 17  2  0
 16 18  1  0
 18 19  1  0
 15  7  1  0
 13 11  1  0
M  END
>  <energy_score>  (2990) 
-37.716446

>  <inchikey>  (2990) 
ALSRXESHQAVPAZ-UHFFFAOYSA-N

>  <smiles>  (2990) 
C=CCCN(N)c1cnc(C2CC2)cc1C(=O)OC

>  <ref_pdb>  (2990) 
A0528a

>  <alias>  (2990) 
ALSRXESHQAVPAZ-UHFFFAOYSA-N-P308-P15-P308-601501

>  <HIPPO Pose ID>  (2990) 
501691

>  <name>  (2990) 
ALSRXESHQAVPAZ-UHFFFAOYSA-N-P308-P15-P308-601501

>  <HIPPO Compound ID>  (2990) 
292559

>  <ref_mols>  (2990) 
A4331a,A0514a

>  <distance_score>  (2990) 
1.392172

>  <inspiration_score>  (2990) 
None

$$$$
IYGLMVUODGJOLB-UHFFFAOYSA-N-P15-P15-P308-601501
     RDKit          3D

 19 20  0  0  0  0  0  0  0  0999 V2000
    9.7392   15.2899   21.3064 C   0  0  0  0  0  0  0  0  0  0  0  0
    9.7494   14.1682   22.0401 C   0  0  0  0  0  0  0  0  0  0  0  0
    8.6459   13.5903   22.8991 C   0  0  2  0  0  0  0  0  0  0  0  0
    7.3535   14.4054   22.8422 C   0  0  0  0  0  0  0  0  0  0  0  0
    9.1396   13.3407   24.2874 N   0  0  0  0  0  0  0  0  0  0  0  0
   10.4413   12.8024   24.4799 N   0  0  0  0  0  0  0  0  0  0  0  0
    8.1419   12.7401   25.0919 C   0  0  0  0  0  0  0  0  0  0  0  0
    7.4821   13.6187   25.9489 C   0  0  0  0  0  0  0  0  0  0  0  0
    6.4721   13.2993   26.7717 N   0  0  0  0  0  0  0  0  0  0  0  0
    6.0107   12.0365   26.7617 C   0  0  0  0  0  0  0  0  0  0  0  0
    4.8627   11.7060   27.6657 C   0  0  0  0  0  0  0  0  0  0  0  0
    3.5651   12.4595   27.5020 C   0  0  0  0  0  0  0  0  0  0  0  0
    4.4256   12.7222   28.6997 C   0  0  0  0  0  0  0  0  0  0  0  0
    6.5982   11.0833   25.9540 C   0  0  0  0  0  0  0  0  0  0  0  0
    7.6919   11.4121   25.1272 C   0  0  0  0  0  0  0  0  0  0  0  0
    8.2214   10.2184   24.4256 C   0  0  0  0  0  0  0  0  0  0  0  0
    7.7677    9.1119   24.6932 O   0  0  0  0  0  0  0  0  0  0  0  0
    9.1962   10.4447   23.5230 O   0  0  0  0  0  0  0  0  0  0  0  0
    9.6863    9.2288   22.9421 C   0  0  0  0  0  0  0  0  0  0  0  0
  1  2  2  0
  2  3  1  0
  3  4  1  1
  3  5  1  0
  5  6  1  0
  5  7  1  0
  7  8  2  0
  8  9  1  0
  9 10  2  0
 10 11  1  0
 11 12  1  0
 12 13  1  0
 10 14  1  0
 14 15  2  0
 15 16  1  0
 16 17  2  0
 16 18  1  0
 18 19  1  0
 15  7  1  0
 13 11  1  0
M  END
>  <energy_score>  (2991) 
-18.486912

>  <inchikey>  (2991) 
IYGLMVUODGJOLB-UHFFFAOYSA-N

>  <smiles>  (2991) 
C=CC(C)N(N)c1cnc(C2CC2)cc1C(=O)OC

>  <ref_pdb>  (2991) 
A0528a

>  <alias>  (2991) 
IYGLMVUODGJOLB-UHFFFAOYSA-N-P15-P15-P308-601501

>  <HIPPO Pose ID>  (2991) 
501692

>  <name>  (2991) 
IYGLMVUODGJOLB-UHFFFAOYSA-N-P15-P15-P308-601501

>  <HIPPO Compound ID>  (2991) 
292560

>  <ref_mols>  (2991) 
A4331a,A0514a

>  <distance_score>  (2991) 
1.503814

>  <inspiration_score>  (2991) 
None

$$$$
IYGLMVUODGJOLB-UHFFFAOYSA-N-P308-P15-P308-601501
     RDKit          3D

 19 20  0  0  0  0  0  0  0  0999 V2000
    9.9107   15.8521   21.7624 C   0  0  0  0  0  0  0  0  0  0  0  0
   10.1792   14.6562   22.3058 C   0  0  0  0  0  0  0  0  0  0  0  0
    9.2146   13.6672   22.9222 C   0  0  2  0  0  0  0  0  0  0  0  0
    7.7675   13.9528   22.4847 C   0  0  0  0  0  0  0  0  0  0  0  0
    9.3641   13.7087   24.4097 N   0  0  0  0  0  0  0  0  0  0  0  0
   10.6650   13.6268   24.9870 N   0  0  0  0  0  0  0  0  0  0  0  0
    8.3914   12.9316   25.0726 C   0  0  0  0  0  0  0  0  0  0  0  0
    7.3869   13.6395   25.7162 C   0  0  0  0  0  0  0  0  0  0  0  0
    6.3311   13.0883   26.3285 N   0  0  0  0  0  0  0  0  0  0  0  0
    6.1958   11.7450   26.3167 C   0  0  0  0  0  0  0  0  0  0  0  0
    5.0621   11.1907   27.1361 C   0  0  0  0  0  0  0  0  0  0  0  0
    3.8389   12.0407   27.4156 C   0  0  0  0  0  0  0  0  0  0  0  0
    4.8358   11.8111   28.5047 C   0  0  0  0  0  0  0  0  0  0  0  0
    7.1344   10.9439   25.6778 C   0  0  0  0  0  0  0  0  0  0  0  0
    8.2565   11.5402   25.0744 C   0  0  0  0  0  0  0  0  0  0  0  0
    9.2763   10.6419   24.4871 C   0  0  0  0  0  0  0  0  0  0  0  0
   10.4807   10.7120   24.6508 O   0  0  0  0  0  0  0  0  0  0  0  0
    8.6134    9.7169   23.7501 O   0  0  0  0  0  0  0  0  0  0  0  0
    9.4581    8.7555   23.1209 C   0  0  0  0  0  0  0  0  0  0  0  0
  1  2  2  0
  2  3  1  0
  3  4  1  1
  3  5  1  0
  5  6  1  0
  5  7  1  0
  7  8  2  0
  8  9  1  0
  9 10  2  0
 10 11  1  0
 11 12  1  0
 12 13  1  0
 10 14  1  0
 14 15  2  0
 15 16  1  0
 16 17  2  0
 16 18  1  0
 18 19  1  0
 15  7  1  0
 13 11  1  0
M  END
>  <energy_score>  (2992) 
-19.810042

>  <inchikey>  (2992) 
IYGLMVUODGJOLB-UHFFFAOYSA-N

>  <smiles>  (2992) 
C=CC(C)N(N)c1cnc(C2CC2)cc1C(=O)OC

>  <ref_pdb>  (2992) 
A0528a

>  <alias>  (2992) 
IYGLMVUODGJOLB-UHFFFAOYSA-N-P308-P15-P308-601501

>  <HIPPO Pose ID>  (2992) 
501693

>  <name>  (2992) 
IYGLMVUODGJOLB-UHFFFAOYSA-N-P308-P15-P308-601501

>  <HIPPO Compound ID>  (2992) 
292560

>  <ref_mols>  (2992) 
A4331a,A0514a

>  <distance_score>  (2992) 
1.479785

>  <inspiration_score>  (2992) 
None

$$$$
NODPLBCUWSNHPI-UHFFFAOYSA-N-P15-P15-P308-601501
     RDKit          3D

 19 20  0  0  0  0  0  0  0  0999 V2000
    9.1134    8.5387   23.0468 C   0  0  0  0  0  0  0  0  0  0  0  0
    8.3073    9.3897   23.8728 O   0  0  0  0  0  0  0  0  0  0  0  0
    8.8802   10.6005   24.0616 C   0  0  0  0  0  0  0  0  0  0  0  0
    9.9685   10.9189   23.6132 O   0  0  0  0  0  0  0  0  0  0  0  0
    8.0231   11.4996   24.8858 C   0  0  0  0  0  0  0  0  0  0  0  0
    6.8966   11.0296   25.5722 C   0  0  0  0  0  0  0  0  0  0  0  0
    6.1725   11.9287   26.3543 C   0  0  0  0  0  0  0  0  0  0  0  0
    4.9481   11.5911   27.1340 C   0  0  0  0  0  0  0  0  0  0  0  0
    4.9139   10.5498   28.2089 C   0  0  0  0  0  0  0  0  0  0  0  0
    4.9359   11.9971   28.5951 C   0  0  0  0  0  0  0  0  0  0  0  0
    6.5288   13.2255   26.4705 N   0  0  0  0  0  0  0  0  0  0  0  0
    7.5946   13.6600   25.7961 C   0  0  0  0  0  0  0  0  0  0  0  0
    8.3861   12.8522   25.0003 C   0  0  0  0  0  0  0  0  0  0  0  0
    9.4754   13.4072   24.3031 N   0  0  0  0  0  0  0  0  0  0  0  0
   10.4144   14.1249   25.0843 N   0  0  0  0  0  0  0  0  0  0  0  0
    9.0099   14.0042   23.0401 C   0  0  0  0  0  0  0  0  0  0  0  0
   10.0659   13.8905   21.9572 C   0  0  0  0  0  0  0  0  0  0  0  0
   11.1716   14.9187   21.9145 C   0  0  0  0  0  0  0  0  0  0  0  0
   12.0741   14.8121   23.0044 O   0  0  0  0  0  0  0  0  0  0  0  0
  1  2  1  0
  2  3  1  0
  3  4  2  0
  3  5  1  0
  5  6  2  0
  6  7  1  0
  7  8  1  0
  8  9  1  0
  9 10  1  0
  7 11  2  0
 11 12  1  0
 12 13  2  0
 13 14  1  0
 14 15  1  0
 14 16  1  0
 16 17  1  0
 17 18  1  0
 18 19  1  0
 13  5  1  0
 10  8  1  0
M  END
>  <energy_score>  (2993) 
-44.338933

>  <inchikey>  (2993) 
NODPLBCUWSNHPI-UHFFFAOYSA-N

>  <smiles>  (2993) 
COC(=O)c1cc(C2CC2)ncc1N(N)CCCO

>  <ref_pdb>  (2993) 
A0528a

>  <alias>  (2993) 
NODPLBCUWSNHPI-UHFFFAOYSA-N-P15-P15-P308-601501

>  <HIPPO Pose ID>  (2993) 
501694

>  <name>  (2993) 
NODPLBCUWSNHPI-UHFFFAOYSA-N-P15-P15-P308-601501

>  <HIPPO Compound ID>  (2993) 
292561

>  <ref_mols>  (2993) 
A4331a,A0514a

>  <distance_score>  (2993) 
1.811943

>  <inspiration_score>  (2993) 
None

$$$$
NODPLBCUWSNHPI-UHFFFAOYSA-N-P308-P15-P308-601501
     RDKit          3D

 19 20  0  0  0  0  0  0  0  0999 V2000
    9.5734    8.8649   23.3409 C   0  0  0  0  0  0  0  0  0  0  0  0
    8.5999    9.6939   23.9749 O   0  0  0  0  0  0  0  0  0  0  0  0
    9.0939   10.8504   24.4868 C   0  0  0  0  0  0  0  0  0  0  0  0
   10.2530   11.2205   24.4412 O   0  0  0  0  0  0  0  0  0  0  0  0
    7.9599   11.6087   25.0760 C   0  0  0  0  0  0  0  0  0  0  0  0
    6.9202   10.8805   25.6843 C   0  0  0  0  0  0  0  0  0  0  0  0
    5.9056   11.5608   26.3427 C   0  0  0  0  0  0  0  0  0  0  0  0
    4.8829   10.8858   27.2112 C   0  0  0  0  0  0  0  0  0  0  0  0
    4.7749   11.3233   28.6590 C   0  0  0  0  0  0  0  0  0  0  0  0
    3.6890   11.6890   27.7035 C   0  0  0  0  0  0  0  0  0  0  0  0
    5.8536   12.9047   26.3203 N   0  0  0  0  0  0  0  0  0  0  0  0
    6.8356   13.5800   25.7139 C   0  0  0  0  0  0  0  0  0  0  0  0
    7.9506   13.0102   25.1157 C   0  0  0  0  0  0  0  0  0  0  0  0
    8.9831   13.8424   24.6263 N   0  0  0  0  0  0  0  0  0  0  0  0
    9.2257   15.0471   25.3504 N   0  0  0  0  0  0  0  0  0  0  0  0
    8.9617   13.9308   23.1484 C   0  0  0  0  0  0  0  0  0  0  0  0
   10.0089   14.9009   22.6160 C   0  0  0  0  0  0  0  0  0  0  0  0
   11.4062   14.5556   23.0977 C   0  0  0  0  0  0  0  0  0  0  0  0
   12.3226   15.5380   22.6411 O   0  0  0  0  0  0  0  0  0  0  0  0
  1  2  1  0
  2  3  1  0
  3  4  2  0
  3  5  1  0
  5  6  2  0
  6  7  1  0
  7  8  1  0
  8  9  1  0
  9 10  1  0
  7 11  2  0
 11 12  1  0
 12 13  2  0
 13 14  1  0
 14 15  1  0
 14 16  1  0
 16 17  1  0
 17 18  1  0
 18 19  1  0
 13  5  1  0
 10  8  1  0
M  END
>  <energy_score>  (2994) 
-44.636251

>  <inchikey>  (2994) 
NODPLBCUWSNHPI-UHFFFAOYSA-N

>  <smiles>  (2994) 
COC(=O)c1cc(C2CC2)ncc1N(N)CCCO

>  <ref_pdb>  (2994) 
A0528a

>  <alias>  (2994) 
NODPLBCUWSNHPI-UHFFFAOYSA-N-P308-P15-P308-601501

>  <HIPPO Pose ID>  (2994) 
501695

>  <name>  (2994) 
NODPLBCUWSNHPI-UHFFFAOYSA-N-P308-P15-P308-601501

>  <HIPPO Compound ID>  (2994) 
292561

>  <ref_mols>  (2994) 
A4331a,A0514a

>  <distance_score>  (2994) 
1.852901

>  <inspiration_score>  (2994) 
None

$$$$
MQBRRQAUSXUPRV-UHFFFAOYSA-N-P15-P15-P308-601501
     RDKit          3D

 19 20  0  0  0  0  0  0  0  0999 V2000
   12.0678   14.9397   21.9462 C   0  0  0  0  0  0  0  0  0  0  0  0
   11.0111   14.7625   22.8796 O   0  0  0  0  0  0  0  0  0  0  0  0
    9.7798   14.4803   22.1831 C   0  0  0  0  0  0  0  0  0  0  0  0
    8.6843   14.1575   23.2010 C   0  0  0  0  0  0  0  0  0  0  0  0
    8.9342   12.8677   23.8865 N   0  0  0  0  0  0  0  0  0  0  0  0
   10.2435   12.6068   24.3727 N   0  0  0  0  0  0  0  0  0  0  0  0
    7.9230   12.4435   24.7665 C   0  0  0  0  0  0  0  0  0  0  0  0
    7.2100   13.3587   25.5360 C   0  0  0  0  0  0  0  0  0  0  0  0
    6.2533   13.0578   26.4296 N   0  0  0  0  0  0  0  0  0  0  0  0
    5.9004   11.7705   26.5880 C   0  0  0  0  0  0  0  0  0  0  0  0
    4.8179   11.4652   27.5774 C   0  0  0  0  0  0  0  0  0  0  0  0
    4.8051   12.1885   28.9016 C   0  0  0  0  0  0  0  0  0  0  0  0
    3.7764   12.5259   27.8654 C   0  0  0  0  0  0  0  0  0  0  0  0
    6.5447   10.7788   25.8784 C   0  0  0  0  0  0  0  0  0  0  0  0
    7.5788   11.1053   24.9829 C   0  0  0  0  0  0  0  0  0  0  0  0
    8.1987    9.9229   24.3529 C   0  0  0  0  0  0  0  0  0  0  0  0
    7.8636    8.8064   24.7203 O   0  0  0  0  0  0  0  0  0  0  0  0
    9.1109   10.1719   23.3939 O   0  0  0  0  0  0  0  0  0  0  0  0
    9.6809    8.9773   22.8617 C   0  0  0  0  0  0  0  0  0  0  0  0
  1  2  1  0
  2  3  1  0
  3  4  1  0
  4  5  1  0
  5  6  1  0
  5  7  1  0
  7  8  2  0
  8  9  1  0
  9 10  2  0
 10 11  1  0
 11 12  1  0
 12 13  1  0
 10 14  1  0
 14 15  2  0
 15 16  1  0
 16 17  2  0
 16 18  1  0
 18 19  1  0
 15  7  1  0
 13 11  1  0
M  END
>  <energy_score>  (2995) 
-26.444497

>  <inchikey>  (2995) 
MQBRRQAUSXUPRV-UHFFFAOYSA-N

>  <smiles>  (2995) 
COCCN(N)c1cnc(C2CC2)cc1C(=O)OC

>  <ref_pdb>  (2995) 
A0528a

>  <alias>  (2995) 
MQBRRQAUSXUPRV-UHFFFAOYSA-N-P15-P15-P308-601501

>  <HIPPO Pose ID>  (2995) 
501696

>  <name>  (2995) 
MQBRRQAUSXUPRV-UHFFFAOYSA-N-P15-P15-P308-601501

>  <HIPPO Compound ID>  (2995) 
292562

>  <ref_mols>  (2995) 
A4331a,A0514a

>  <distance_score>  (2995) 
1.584789

>  <inspiration_score>  (2995) 
None

$$$$
MQBRRQAUSXUPRV-UHFFFAOYSA-N-P308-P15-P308-601501
     RDKit          3D

 19 20  0  0  0  0  0  0  0  0999 V2000
   12.0089   15.5095   22.2312 C   0  0  0  0  0  0  0  0  0  0  0  0
   11.0292   14.9924   23.1211 O   0  0  0  0  0  0  0  0  0  0  0  0
   10.0108   14.3006   22.3836 C   0  0  0  0  0  0  0  0  0  0  0  0
    8.8628   13.9368   23.3160 C   0  0  0  0  0  0  0  0  0  0  0  0
    9.2476   12.8742   24.3050 N   0  0  0  0  0  0  0  0  0  0  0  0
   10.3477   13.1837   25.1663 N   0  0  0  0  0  0  0  0  0  0  0  0
    8.0957   12.5190   25.0523 C   0  0  0  0  0  0  0  0  0  0  0  0
    7.4329   13.5000   25.7875 C   0  0  0  0  0  0  0  0  0  0  0  0
    6.2871   13.3248   26.4563 N   0  0  0  0  0  0  0  0  0  0  0  0
    5.7293   12.1028   26.4473 C   0  0  0  0  0  0  0  0  0  0  0  0
    4.4225   12.0008   27.1555 C   0  0  0  0  0  0  0  0  0  0  0  0
    4.2128   11.1098   28.3439 C   0  0  0  0  0  0  0  0  0  0  0  0
    4.3489   12.5891   28.5487 C   0  0  0  0  0  0  0  0  0  0  0  0
    6.3463   11.0347   25.8173 C   0  0  0  0  0  0  0  0  0  0  0  0
    7.5480   11.2356   25.1190 C   0  0  0  0  0  0  0  0  0  0  0  0
    8.1246   10.0059   24.5343 C   0  0  0  0  0  0  0  0  0  0  0  0
    7.7089    8.9038   24.8697 O   0  0  0  0  0  0  0  0  0  0  0  0
    9.0613   10.2301   23.5912 O   0  0  0  0  0  0  0  0  0  0  0  0
    9.6055    9.0331   23.0364 C   0  0  0  0  0  0  0  0  0  0  0  0
  1  2  1  0
  2  3  1  0
  3  4  1  0
  4  5  1  0
  5  6  1  0
  5  7  1  0
  7  8  2  0
  8  9  1  0
  9 10  2  0
 10 11  1  0
 11 12  1  0
 12 13  1  0
 10 14  1  0
 14 15  2  0
 15 16  1  0
 16 17  2  0
 16 18  1  0
 18 19  1  0
 15  7  1  0
 13 11  1  0
M  END
>  <energy_score>  (2996) 
-27.950132

>  <inchikey>  (2996) 
MQBRRQAUSXUPRV-UHFFFAOYSA-N

>  <smiles>  (2996) 
COCCN(N)c1cnc(C2CC2)cc1C(=O)OC

>  <ref_pdb>  (2996) 
A0528a

>  <alias>  (2996) 
MQBRRQAUSXUPRV-UHFFFAOYSA-N-P308-P15-P308-601501

>  <HIPPO Pose ID>  (2996) 
501697

>  <name>  (2996) 
MQBRRQAUSXUPRV-UHFFFAOYSA-N-P308-P15-P308-601501

>  <HIPPO Compound ID>  (2996) 
292562

>  <ref_mols>  (2996) 
A4331a,A0514a

>  <distance_score>  (2996) 
1.515414

>  <inspiration_score>  (2996) 
None

$$$$
JXDHHEBCSCVVIV-UHFFFAOYSA-N-P15-P15-P308-601501
     RDKit          3D

 19 20  0  0  0  0  0  0  0  0999 V2000
    9.3300    8.5344   22.9776 C   0  0  0  0  0  0  0  0  0  0  0  0
    8.4630    9.3121   23.8018 O   0  0  0  0  0  0  0  0  0  0  0  0
    8.9331   10.5583   24.0377 C   0  0  0  0  0  0  0  0  0  0  0  0
   10.0009   10.9849   23.6293 O   0  0  0  0  0  0  0  0  0  0  0  0
    7.9662   11.3334   24.8647 C   0  0  0  0  0  0  0  0  0  0  0  0
    6.9411   10.6710   25.5548 C   0  0  0  0  0  0  0  0  0  0  0  0
    6.1338   11.3938   26.4246 C   0  0  0  0  0  0  0  0  0  0  0  0
    5.1049   10.7524   27.3079 C   0  0  0  0  0  0  0  0  0  0  0  0
    5.0950   11.1054   28.7781 C   0  0  0  0  0  0  0  0  0  0  0  0
    4.0038   11.6199   27.8924 C   0  0  0  0  0  0  0  0  0  0  0  0
    6.2949   12.7242   26.5814 N   0  0  0  0  0  0  0  0  0  0  0  0
    7.2521   13.3494   25.8891 C   0  0  0  0  0  0  0  0  0  0  0  0
    8.1416   12.7150   25.0380 C   0  0  0  0  0  0  0  0  0  0  0  0
    9.1643   13.4576   24.4300 N   0  0  0  0  0  0  0  0  0  0  0  0
    9.8331   14.4099   25.2289 N   0  0  0  0  0  0  0  0  0  0  0  0
    8.9642   13.7144   22.9772 C   0  0  1  0  0  0  0  0  0  0  0  0
    7.6741   14.4575   22.6540 C   0  0  0  0  0  0  0  0  0  0  0  0
   10.1898   14.3671   22.3028 C   0  0  0  0  0  0  0  0  0  0  0  0
   11.4029   14.1283   23.0268 O   0  0  0  0  0  0  0  0  0  0  0  0
  1  2  1  0
  2  3  1  0
  3  4  2  0
  3  5  1  0
  5  6  2  0
  6  7  1  0
  7  8  1  0
  8  9  1  0
  9 10  1  0
  7 11  2  0
 11 12  1  0
 12 13  2  0
 13 14  1  0
 14 15  1  0
 14 16  1  0
 16 17  1  1
 16 18  1  0
 18 19  1  0
 13  5  1  0
 10  8  1  0
M  END
>  <energy_score>  (2997) 
-35.14723

>  <inchikey>  (2997) 
JXDHHEBCSCVVIV-UHFFFAOYSA-N

>  <smiles>  (2997) 
COC(=O)c1cc(C2CC2)ncc1N(N)C(C)CO

>  <ref_pdb>  (2997) 
A0528a

>  <alias>  (2997) 
JXDHHEBCSCVVIV-UHFFFAOYSA-N-P15-P15-P308-601501

>  <HIPPO Pose ID>  (2997) 
501698

>  <name>  (2997) 
JXDHHEBCSCVVIV-UHFFFAOYSA-N-P15-P15-P308-601501

>  <HIPPO Compound ID>  (2997) 
292563

>  <ref_mols>  (2997) 
A4331a,A0514a

>  <distance_score>  (2997) 
1.688048

>  <inspiration_score>  (2997) 
None

$$$$
JXDHHEBCSCVVIV-UHFFFAOYSA-N-P308-P15-P308-601501
     RDKit          3D

 19 20  0  0  0  0  0  0  0  0999 V2000
    9.3793    8.6122   23.0609 C   0  0  0  0  0  0  0  0  0  0  0  0
    8.5432    9.5312   23.7548 O   0  0  0  0  0  0  0  0  0  0  0  0
    9.2236   10.4413   24.4877 C   0  0  0  0  0  0  0  0  0  0  0  0
   10.4325   10.4853   24.6553 O   0  0  0  0  0  0  0  0  0  0  0  0
    8.2437   11.3887   25.0591 C   0  0  0  0  0  0  0  0  0  0  0  0
    7.0834   10.8597   25.6461 C   0  0  0  0  0  0  0  0  0  0  0  0
    6.1848   11.7192   26.2624 C   0  0  0  0  0  0  0  0  0  0  0  0
    4.9980   11.2368   27.0470 C   0  0  0  0  0  0  0  0  0  0  0  0
    4.7929   11.7665   28.4509 C   0  0  0  0  0  0  0  0  0  0  0  0
    3.8763   12.2124   27.3570 C   0  0  0  0  0  0  0  0  0  0  0  0
    6.3948   13.0520   26.2567 N   0  0  0  0  0  0  0  0  0  0  0  0
    7.4844   13.5402   25.6503 C   0  0  0  0  0  0  0  0  0  0  0  0
    8.4629   12.7695   25.0426 C   0  0  0  0  0  0  0  0  0  0  0  0
    9.5399   13.4454   24.4668 N   0  0  0  0  0  0  0  0  0  0  0  0
   10.8376   13.1259   24.9381 N   0  0  0  0  0  0  0  0  0  0  0  0
    9.3971   13.9643   23.0656 C   0  0  1  0  0  0  0  0  0  0  0  0
    7.9820   13.9180   22.4930 C   0  0  0  0  0  0  0  0  0  0  0  0
    9.8886   15.4260   23.0405 C   0  0  0  0  0  0  0  0  0  0  0  0
   11.1846   15.5400   23.6285 O   0  0  0  0  0  0  0  0  0  0  0  0
  1  2  1  0
  2  3  1  0
  3  4  2  0
  3  5  1  0
  5  6  2  0
  6  7  1  0
  7  8  1  0
  8  9  1  0
  9 10  1  0
  7 11  2  0
 11 12  1  0
 12 13  2  0
 13 14  1  0
 14 15  1  0
 14 16  1  0
 16 17  1  1
 16 18  1  0
 18 19  1  0
 13  5  1  0
 10  8  1  0
M  END
>  <energy_score>  (2998) 
-41.493275

>  <inchikey>  (2998) 
JXDHHEBCSCVVIV-UHFFFAOYSA-N

>  <smiles>  (2998) 
COC(=O)c1cc(C2CC2)ncc1N(N)C(C)CO

>  <ref_pdb>  (2998) 
A0528a

>  <alias>  (2998) 
JXDHHEBCSCVVIV-UHFFFAOYSA-N-P308-P15-P308-601501

>  <HIPPO Pose ID>  (2998) 
501699

>  <name>  (2998) 
JXDHHEBCSCVVIV-UHFFFAOYSA-N-P308-P15-P308-601501

>  <HIPPO Compound ID>  (2998) 
292563

>  <ref_mols>  (2998) 
A4331a,A0514a

>  <distance_score>  (2998) 
1.479189

>  <inspiration_score>  (2998) 
None

$$$$
HFXAEOUZALBIQK-UHFFFAOYSA-N-P15-P15-P308-601501
     RDKit          3D

 19 20  0  0  0  0  0  0  0  0999 V2000
   11.3544   14.6609   22.6129 C   0  0  0  0  0  0  0  0  0  0  0  0
    9.9296   14.5107   22.0892 C   0  0  0  0  0  0  0  0  0  0  0  0
    8.8436   14.1968   23.1442 C   0  0  1  0  0  0  0  0  0  0  0  0
    7.4839   14.3418   22.4502 C   0  0  0  0  0  0  0  0  0  0  0  0
    8.9854   12.8463   23.7527 N   0  0  0  0  0  0  0  0  0  0  0  0
   10.2966   12.4260   24.0323 N   0  0  0  0  0  0  0  0  0  0  0  0
    8.0319   12.4508   24.7153 C   0  0  0  0  0  0  0  0  0  0  0  0
    7.4200   13.3882   25.5459 C   0  0  0  0  0  0  0  0  0  0  0  0
    6.5029   13.1272   26.4936 N   0  0  0  0  0  0  0  0  0  0  0  0
    6.0648   11.8662   26.6395 C   0  0  0  0  0  0  0  0  0  0  0  0
    5.0021   11.6107   27.6649 C   0  0  0  0  0  0  0  0  0  0  0  0
    3.7084   12.3845   27.5841 C   0  0  0  0  0  0  0  0  0  0  0  0
    4.6834   12.6885   28.6806 C   0  0  0  0  0  0  0  0  0  0  0  0
    6.6120   10.8521   25.8830 C   0  0  0  0  0  0  0  0  0  0  0  0
    7.6292   11.1278   24.9484 C   0  0  0  0  0  0  0  0  0  0  0  0
    8.1719    9.9033   24.3233 C   0  0  0  0  0  0  0  0  0  0  0  0
    7.7910    8.8108   24.7147 O   0  0  0  0  0  0  0  0  0  0  0  0
    9.1064   10.0993   23.3797 O   0  0  0  0  0  0  0  0  0  0  0  0
    9.6337    8.8884   22.8407 C   0  0  0  0  0  0  0  0  0  0  0  0
  1  2  1  0
  2  3  1  0
  3  4  1  6
  3  5  1  0
  5  6  1  0
  5  7  1  0
  7  8  2  0
  8  9  1  0
  9 10  2  0
 10 11  1  0
 11 12  1  0
 12 13  1  0
 10 14  1  0
 14 15  2  0
 15 16  1  0
 16 17  2  0
 16 18  1  0
 18 19  1  0
 15  7  1  0
 13 11  1  0
M  END
>  <energy_score>  (2999) 
-29.795352

>  <inchikey>  (2999) 
HFXAEOUZALBIQK-UHFFFAOYSA-N

>  <smiles>  (2999) 
CCC(C)N(N)c1cnc(C2CC2)cc1C(=O)OC

>  <ref_pdb>  (2999) 
A0528a

>  <alias>  (2999) 
HFXAEOUZALBIQK-UHFFFAOYSA-N-P15-P15-P308-601501

>  <HIPPO Pose ID>  (2999) 
501700

>  <name>  (2999) 
HFXAEOUZALBIQK-UHFFFAOYSA-N-P15-P15-P308-601501

>  <HIPPO Compound ID>  (2999) 
292564

>  <ref_mols>  (2999) 
A4331a,A0514a

>  <distance_score>  (2999) 
1.696463

>  <inspiration_score>  (2999) 
None

$$$$
HFXAEOUZALBIQK-UHFFFAOYSA-N-P308-P15-P308-601501
     RDKit          3D

 19 20  0  0  0  0  0  0  0  0999 V2000
   11.1750   15.3174   23.3703 C   0  0  0  0  0  0  0  0  0  0  0  0
   10.1065   14.5982   22.5544 C   0  0  0  0  0  0  0  0  0  0  0  0
    8.8802   14.2117   23.4021 C   0  0  1  0  0  0  0  0  0  0  0  0
    7.6448   14.2041   22.4884 C   0  0  0  0  0  0  0  0  0  0  0  0
    9.0321   12.8746   24.0598 N   0  0  0  0  0  0  0  0  0  0  0  0
   10.3182   12.4533   24.4790 N   0  0  0  0  0  0  0  0  0  0  0  0
    7.9745   12.4274   24.8781 C   0  0  0  0  0  0  0  0  0  0  0  0
    7.2473   13.3413   25.6370 C   0  0  0  0  0  0  0  0  0  0  0  0
    6.2275   13.0467   26.4558 N   0  0  0  0  0  0  0  0  0  0  0  0
    5.8251   11.7690   26.5559 C   0  0  0  0  0  0  0  0  0  0  0  0
    4.7066   11.4740   27.5089 C   0  0  0  0  0  0  0  0  0  0  0  0
    3.4923   12.3703   27.5251 C   0  0  0  0  0  0  0  0  0  0  0  0
    4.4692   12.4304   28.6602 C   0  0  0  0  0  0  0  0  0  0  0  0
    6.4748   10.7771   25.8494 C   0  0  0  0  0  0  0  0  0  0  0  0
    7.5778   11.0889   25.0349 C   0  0  0  0  0  0  0  0  0  0  0  0
    8.1954    9.8855   24.4265 C   0  0  0  0  0  0  0  0  0  0  0  0
    7.8555    8.7638   24.7779 O   0  0  0  0  0  0  0  0  0  0  0  0
    9.1078   10.1452   23.4719 O   0  0  0  0  0  0  0  0  0  0  0  0
    9.6523    8.9665   22.8816 C   0  0  0  0  0  0  0  0  0  0  0  0
  1  2  1  0
  2  3  1  0
  3  4  1  6
  3  5  1  0
  5  6  1  0
  5  7  1  0
  7  8  2  0
  8  9  1  0
  9 10  2  0
 10 11  1  0
 11 12  1  0
 12 13  1  0
 10 14  1  0
 14 15  2  0
 15 16  1  0
 16 17  2  0
 16 18  1  0
 18 19  1  0
 15  7  1  0
 13 11  1  0
M  END
>  <energy_score>  (3000) 
-33.166223

>  <inchikey>  (3000) 
HFXAEOUZALBIQK-UHFFFAOYSA-N

>  <smiles>  (3000) 
CCC(C)N(N)c1cnc(C2CC2)cc1C(=O)OC

>  <ref_pdb>  (3000) 
A0528a

>  <alias>  (3000) 
HFXAEOUZALBIQK-UHFFFAOYSA-N-P308-P15-P308-601501

>  <HIPPO Pose ID>  (3000) 
501701

>  <name>  (3000) 
HFXAEOUZALBIQK-UHFFFAOYSA-N-P308-P15-P308-601501

>  <HIPPO Compound ID>  (3000) 
292564

>  <ref_mols>  (3000) 
A4331a,A0514a

>  <distance_score>  (3000) 
1.736575

>  <inspiration_score>  (3000) 
None

$$$$
BTMDBVFYNMZVAP-UHFFFAOYSA-N-P308-P15-P308-601501
     RDKit          3D

 20 21  0  0  0  0  0  0  0  0999 V2000
   10.1808   15.9216   21.7541 C   0  0  0  0  0  0  0  0  0  0  0  0
   10.1471   14.5347   22.3760 C   0  0  0  0  0  0  0  0  0  0  0  0
    9.1052   14.3392   23.5051 C   0  0  0  0  0  0  0  0  0  0  0  0
    7.7099   14.8464   23.0588 C   0  0  0  0  0  0  0  0  0  0  0  0
    7.1776   14.2523   21.7802 C   0  0  0  0  0  0  0  0  0  0  0  0
    9.1230   12.8927   23.9724 N   0  0  0  0  0  0  0  0  0  0  0  0
   10.4208   12.3405   24.2704 N   0  0  0  0  0  0  0  0  0  0  0  0
    8.1290   12.4634   24.8802 C   0  0  0  0  0  0  0  0  0  0  0  0
    7.5398   13.3610   25.7648 C   0  0  0  0  0  0  0  0  0  0  0  0
    6.4940   13.1090   26.5725 N   0  0  0  0  0  0  0  0  0  0  0  0
    5.9490   11.8806   26.5558 C   0  0  0  0  0  0  0  0  0  0  0  0
    4.7381   11.6412   27.4047 C   0  0  0  0  0  0  0  0  0  0  0  0
    4.5711   12.3930   28.7024 C   0  0  0  0  0  0  0  0  0  0  0  0
    3.7169   12.7514   27.5239 C   0  0  0  0  0  0  0  0  0  0  0  0
    6.5243   10.8780   25.8051 C   0  0  0  0  0  0  0  0  0  0  0  0
    7.6421   11.1471   24.9954 C   0  0  0  0  0  0  0  0  0  0  0  0
    8.1830    9.9126   24.3755 C   0  0  0  0  0  0  0  0  0  0  0  0
    7.7992    8.8083   24.7382 O   0  0  0  0  0  0  0  0  0  0  0  0
    9.1045   10.1282   23.4201 O   0  0  0  0  0  0  0  0  0  0  0  0
    9.6223    8.9264   22.8540 C   0  0  0  0  0  0  0  0  0  0  0  0
  1  2  1  0
  2  3  1  0
  3  4  1  0
  4  5  1  0
  3  6  1  0
  6  7  1  0
  6  8  1  0
  8  9  2  0
  9 10  1  0
 10 11  2  0
 11 12  1  0
 12 13  1  0
 13 14  1  0
 11 15  1  0
 15 16  2  0
 16 17  1  0
 17 18  2  0
 17 19  1  0
 19 20  1  0
 16  8  1  0
 14 12  1  0
M  END
>  <energy_score>  (3001) 
-36.062036

>  <inchikey>  (3001) 
BTMDBVFYNMZVAP-UHFFFAOYSA-N

>  <smiles>  (3001) 
CCC(CC)N(N)c1cnc(C2CC2)cc1C(=O)OC

>  <ref_pdb>  (3001) 
A0528a

>  <alias>  (3001) 
BTMDBVFYNMZVAP-UHFFFAOYSA-N-P308-P15-P308-601501

>  <HIPPO Pose ID>  (3001) 
501705

>  <name>  (3001) 
BTMDBVFYNMZVAP-UHFFFAOYSA-N-P308-P15-P308-601501

>  <HIPPO Compound ID>  (3001) 
292566

>  <ref_mols>  (3001) 
A4331a,A0514a

>  <distance_score>  (3001) 
1.722407

>  <inspiration_score>  (3001) 
None

$$$$
CIKFTNODNRYKNX-UHFFFAOYSA-N-P308-P15-P308-601501
     RDKit          3D

 20 23  0  0  0  0  0  0  0  0999 V2000
    9.6071    8.7615   23.1210 C   0  0  0  0  0  0  0  0  0  0  0  0
    8.8136    9.8060   23.6738 O   0  0  0  0  0  0  0  0  0  0  0  0
    9.4972   10.7282   24.3886 C   0  0  0  0  0  0  0  0  0  0  0  0
   10.6980   10.7762   24.5943 O   0  0  0  0  0  0  0  0  0  0  0  0
    8.5135   11.7015   24.8973 C   0  0  0  0  0  0  0  0  0  0  0  0
    7.3547   11.1760   25.4975 C   0  0  0  0  0  0  0  0  0  0  0  0
    6.4847   12.0359   26.1410 C   0  0  0  0  0  0  0  0  0  0  0  0
    5.2291   11.5601   26.8166 C   0  0  0  0  0  0  0  0  0  0  0  0
    4.9154   12.0281   28.2199 C   0  0  0  0  0  0  0  0  0  0  0  0
    4.1152   12.5576   27.0715 C   0  0  0  0  0  0  0  0  0  0  0  0
    6.7818   13.3504   26.2364 N   0  0  0  0  0  0  0  0  0  0  0  0
    7.8892   13.8294   25.6269 C   0  0  0  0  0  0  0  0  0  0  0  0
    8.7770   13.0800   24.8740 C   0  0  0  0  0  0  0  0  0  0  0  0
    9.8317   13.6719   24.1410 N   0  0  0  0  0  0  0  0  0  0  0  0
    9.8274   13.4276   22.6979 C   0  0  0  0  0  0  0  0  0  0  0  0
    8.7856   14.4384   22.2167 C   0  0  0  0  0  0  0  0  0  0  0  0
    9.0476   15.6154   23.1661 C   0  0  0  0  0  0  0  0  0  0  0  0
   10.0794   15.1087   24.1380 N   0  0  0  0  0  0  0  0  0  0  0  0
   11.3618   15.1310   23.3551 C   0  0  0  0  0  0  0  0  0  0  0  0
   11.2017   13.9848   22.3473 C   0  0  0  0  0  0  0  0  0  0  0  0
  1  2  1  0
  2  3  1  0
  3  4  2  0
  3  5  1  0
  5  6  2  0
  6  7  1  0
  7  8  1  0
  8  9  1  0
  9 10  1  0
  7 11  2  0
 11 12  1  0
 12 13  2  0
 13 14  1  0
 14 15  1  0
 15 16  1  0
 16 17  1  0
 17 18  1  0
 18 19  1  0
 19 20  1  0
 13  5  1  0
 18 14  1  0
 10  8  1  0
 20 15  1  0
M  END
>  <energy_score>  (3002) 
-42.431469

>  <inchikey>  (3002) 
CIKFTNODNRYKNX-UHFFFAOYSA-N

>  <smiles>  (3002) 
COC(=O)c1cc(C2CC2)ncc1N1C2CCN1CC2

>  <ref_pdb>  (3002) 
A0528a

>  <alias>  (3002) 
CIKFTNODNRYKNX-UHFFFAOYSA-N-P308-P15-P308-601501

>  <HIPPO Pose ID>  (3002) 
501709

>  <name>  (3002) 
CIKFTNODNRYKNX-UHFFFAOYSA-N-P308-P15-P308-601501

>  <HIPPO Compound ID>  (3002) 
292568

>  <ref_mols>  (3002) 
A4331a,A0514a

>  <distance_score>  (3002) 
1.914754

>  <inspiration_score>  (3002) 
None

$$$$
QQRIFGCKTMEUBY-UHFFFAOYSA-N-P15-P15-P308-601501
     RDKit          3D

 20 21  0  0  0  0  0  0  0  0999 V2000
    9.2300    8.3707   22.8861 C   0  0  0  0  0  0  0  0  0  0  0  0
    8.3880    9.1609   23.7208 O   0  0  0  0  0  0  0  0  0  0  0  0
    8.9323   10.3692   23.9781 C   0  0  0  0  0  0  0  0  0  0  0  0
   10.0272   10.7376   23.5866 O   0  0  0  0  0  0  0  0  0  0  0  0
    8.0007   11.1823   24.8014 C   0  0  0  0  0  0  0  0  0  0  0  0
    6.9720   10.5914   25.5438 C   0  0  0  0  0  0  0  0  0  0  0  0
    6.1986   11.3917   26.3790 C   0  0  0  0  0  0  0  0  0  0  0  0
    5.1946   10.8297   27.3463 C   0  0  0  0  0  0  0  0  0  0  0  0
    4.0102   11.6694   27.7796 C   0  0  0  0  0  0  0  0  0  0  0  0
    5.1423   11.4468   28.7321 C   0  0  0  0  0  0  0  0  0  0  0  0
    6.3912   12.7290   26.4445 N   0  0  0  0  0  0  0  0  0  0  0  0
    7.3635   13.2767   25.7067 C   0  0  0  0  0  0  0  0  0  0  0  0
    8.2071   12.5621   24.8733 C   0  0  0  0  0  0  0  0  0  0  0  0
    9.2544   13.1893   24.1959 N   0  0  0  0  0  0  0  0  0  0  0  0
   10.3886   13.3411   25.0487 N   0  0  0  0  0  0  0  0  0  0  0  0
    8.9260   14.2744   23.2410 C   0  0  2  0  0  0  0  0  0  0  0  0
    7.5355   14.1578   22.5982 C   0  0  0  0  0  0  0  0  0  0  0  0
   10.0100   14.3457   22.1131 C   0  0  0  0  0  0  0  0  0  0  0  0
    9.6777   15.3478   21.0021 C   0  0  0  0  0  0  0  0  0  0  0  0
   11.4612   14.5675   22.5490 C   0  0  0  0  0  0  0  0  0  0  0  0
  1  2  1  0
  2  3  1  0
  3  4  2  0
  3  5  1  0
  5  6  2  0
  6  7  1  0
  7  8  1  0
  8  9  1  0
  9 10  1  0
  7 11  2  0
 11 12  1  0
 12 13  2  0
 13 14  1  0
 14 15  1  0
 14 16  1  0
 16 17  1  6
 16 18  1  0
 18 19  1  0
 18 20  1  0
 13  5  1  0
 10  8  1  0
M  END
>  <energy_score>  (3003) 
-36.042677

>  <inchikey>  (3003) 
QQRIFGCKTMEUBY-UHFFFAOYSA-N

>  <smiles>  (3003) 
COC(=O)c1cc(C2CC2)ncc1N(N)C(C)C(C)C

>  <ref_pdb>  (3003) 
A0528a

>  <alias>  (3003) 
QQRIFGCKTMEUBY-UHFFFAOYSA-N-P15-P15-P308-601501

>  <HIPPO Pose ID>  (3003) 
501710

>  <name>  (3003) 
QQRIFGCKTMEUBY-UHFFFAOYSA-N-P15-P15-P308-601501

>  <HIPPO Compound ID>  (3003) 
292569

>  <ref_mols>  (3003) 
A4331a,A0514a

>  <distance_score>  (3003) 
1.366478

>  <inspiration_score>  (3003) 
None

$$$$
QQRIFGCKTMEUBY-UHFFFAOYSA-N-P308-P15-P308-601501
     RDKit          3D

 20 21  0  0  0  0  0  0  0  0999 V2000
    9.2711    8.4105   23.0722 C   0  0  0  0  0  0  0  0  0  0  0  0
    8.4036    9.2161   23.8574 O   0  0  0  0  0  0  0  0  0  0  0  0
    9.0642   10.1816   24.5331 C   0  0  0  0  0  0  0  0  0  0  0  0
   10.2717   10.2768   24.7068 O   0  0  0  0  0  0  0  0  0  0  0  0
    8.0775   11.1915   24.9567 C   0  0  0  0  0  0  0  0  0  0  0  0
    6.9904   10.7218   25.7087 C   0  0  0  0  0  0  0  0  0  0  0  0
    6.1496   11.6326   26.3201 C   0  0  0  0  0  0  0  0  0  0  0  0
    5.0336   11.2305   27.2439 C   0  0  0  0  0  0  0  0  0  0  0  0
    3.8328   12.1349   27.4190 C   0  0  0  0  0  0  0  0  0  0  0  0
    4.8476   12.0421   28.5141 C   0  0  0  0  0  0  0  0  0  0  0  0
    6.3807   12.9523   26.1958 N   0  0  0  0  0  0  0  0  0  0  0  0
    7.3796   13.3720   25.3971 C   0  0  0  0  0  0  0  0  0  0  0  0
    8.2472   12.5590   24.6760 C   0  0  0  0  0  0  0  0  0  0  0  0
    9.1693   13.1009   23.7327 N   0  0  0  0  0  0  0  0  0  0  0  0
    9.7624   12.1595   22.8555 N   0  0  0  0  0  0  0  0  0  0  0  0
    8.7936   14.4184   23.1223 C   0  0  2  0  0  0  0  0  0  0  0  0
    7.6085   14.2464   22.1668 C   0  0  0  0  0  0  0  0  0  0  0  0
   10.0250   15.0807   22.4474 C   0  0  0  0  0  0  0  0  0  0  0  0
    9.6445   16.2921   21.6010 C   0  0  0  0  0  0  0  0  0  0  0  0
   11.0579   15.4751   23.5058 C   0  0  0  0  0  0  0  0  0  0  0  0
  1  2  1  0
  2  3  1  0
  3  4  2  0
  3  5  1  0
  5  6  2  0
  6  7  1  0
  7  8  1  0
  8  9  1  0
  9 10  1  0
  7 11  2  0
 11 12  1  0
 12 13  2  0
 13 14  1  0
 14 15  1  0
 14 16  1  0
 16 17  1  6
 16 18  1  0
 18 19  1  0
 18 20  1  0
 13  5  1  0
 10  8  1  0
M  END
>  <energy_score>  (3004) 
-46.036911

>  <inchikey>  (3004) 
QQRIFGCKTMEUBY-UHFFFAOYSA-N

>  <smiles>  (3004) 
COC(=O)c1cc(C2CC2)ncc1N(N)C(C)C(C)C

>  <ref_pdb>  (3004) 
A0528a

>  <alias>  (3004) 
QQRIFGCKTMEUBY-UHFFFAOYSA-N-P308-P15-P308-601501

>  <HIPPO Pose ID>  (3004) 
501711

>  <name>  (3004) 
QQRIFGCKTMEUBY-UHFFFAOYSA-N-P308-P15-P308-601501

>  <HIPPO Compound ID>  (3004) 
292569

>  <ref_mols>  (3004) 
A4331a,A0514a

>  <distance_score>  (3004) 
1.342723

>  <inspiration_score>  (3004) 
None

$$$$
QRNHIPRWTQBRQB-UHFFFAOYSA-N-P15-P15-P308-601501
     RDKit          3D

 20 21  0  0  0  0  0  0  0  0999 V2000
    9.7617    8.6162   23.3731 C   0  0  0  0  0  0  0  0  0  0  0  0
    8.7650    9.3100   24.1232 O   0  0  0  0  0  0  0  0  0  0  0  0
    8.8378   10.6495   23.9431 C   0  0  0  0  0  0  0  0  0  0  0  0
    9.5807   11.2053   23.1527 O   0  0  0  0  0  0  0  0  0  0  0  0
    7.8756   11.3563   24.8286 C   0  0  0  0  0  0  0  0  0  0  0  0
    6.8871   10.6317   25.5110 C   0  0  0  0  0  0  0  0  0  0  0  0
    6.0234   11.3025   26.3679 C   0  0  0  0  0  0  0  0  0  0  0  0
    5.0825   10.5968   27.2975 C   0  0  0  0  0  0  0  0  0  0  0  0
    5.1810   10.9018   28.7756 C   0  0  0  0  0  0  0  0  0  0  0  0
    4.0014   11.3989   28.0012 C   0  0  0  0  0  0  0  0  0  0  0  0
    6.0527   12.6456   26.4768 N   0  0  0  0  0  0  0  0  0  0  0  0
    7.0030   13.3209   25.8244 C   0  0  0  0  0  0  0  0  0  0  0  0
    7.9835   12.7405   25.0335 C   0  0  0  0  0  0  0  0  0  0  0  0
    9.0736   13.5210   24.5914 N   0  0  0  0  0  0  0  0  0  0  0  0
    9.5693   14.4223   25.5644 N   0  0  0  0  0  0  0  0  0  0  0  0
    8.9095   13.9777   23.1901 C   0  0  0  0  0  0  0  0  0  0  0  0
   10.2106   14.4846   22.5723 C   0  0  2  0  0  0  0  0  0  0  0  0
   10.1428   14.6347   21.0797 C   0  0  0  0  0  0  0  0  0  0  0  0
   11.4293   13.8586   23.0707 C   0  0  0  0  0  0  0  0  0  0  0  0
   12.4161   13.5585   23.6026 N   0  0  0  0  0  0  0  0  0  0  0  0
  1  2  1  0
  2  3  1  0
  3  4  2  0
  3  5  1  0
  5  6  2  0
  6  7  1  0
  7  8  1  0
  8  9  1  0
  9 10  1  0
  7 11  2  0
 11 12  1  0
 12 13  2  0
 13 14  1  0
 14 15  1  0
 14 16  1  0
 16 17  1  0
 17 18  1  6
 17 19  1  0
 19 20  3  0
 13  5  1  0
 10  8  1  0
M  END
>  <energy_score>  (3005) 
-29.865844

>  <inchikey>  (3005) 
QRNHIPRWTQBRQB-UHFFFAOYSA-N

>  <smiles>  (3005) 
COC(=O)c1cc(C2CC2)ncc1N(N)CC(C)C#N

>  <ref_pdb>  (3005) 
A0528a

>  <alias>  (3005) 
QRNHIPRWTQBRQB-UHFFFAOYSA-N-P15-P15-P308-601501

>  <HIPPO Pose ID>  (3005) 
501712

>  <name>  (3005) 
QRNHIPRWTQBRQB-UHFFFAOYSA-N-P15-P15-P308-601501

>  <HIPPO Compound ID>  (3005) 
292570

>  <ref_mols>  (3005) 
A4331a,A0514a

>  <distance_score>  (3005) 
1.923312

>  <inspiration_score>  (3005) 
None

$$$$
QRNHIPRWTQBRQB-UHFFFAOYSA-N-P308-P15-P308-601501
     RDKit          3D

 20 21  0  0  0  0  0  0  0  0999 V2000
    9.1780    8.4350   23.8386 C   0  0  0  0  0  0  0  0  0  0  0  0
    8.3820    9.3554   24.5744 O   0  0  0  0  0  0  0  0  0  0  0  0
    8.4806   10.5979   24.0604 C   0  0  0  0  0  0  0  0  0  0  0  0
    9.0564   10.8938   23.0263 O   0  0  0  0  0  0  0  0  0  0  0  0
    7.7923   11.5623   24.9336 C   0  0  0  0  0  0  0  0  0  0  0  0
    6.6100   11.1870   25.5816 C   0  0  0  0  0  0  0  0  0  0  0  0
    5.9126   12.1530   26.2921 C   0  0  0  0  0  0  0  0  0  0  0  0
    4.5932   11.9235   26.9482 C   0  0  0  0  0  0  0  0  0  0  0  0
    4.3604   10.9083   28.0266 C   0  0  0  0  0  0  0  0  0  0  0  0
    4.4740   12.3564   28.3954 C   0  0  0  0  0  0  0  0  0  0  0  0
    6.3699   13.4188   26.4006 N   0  0  0  0  0  0  0  0  0  0  0  0
    7.5128   13.7459   25.7849 C   0  0  0  0  0  0  0  0  0  0  0  0
    8.2730   12.8718   25.0312 C   0  0  0  0  0  0  0  0  0  0  0  0
    9.4370   13.3855   24.4311 N   0  0  0  0  0  0  0  0  0  0  0  0
   10.6171   12.6316   24.6784 N   0  0  0  0  0  0  0  0  0  0  0  0
    9.1763   13.8126   23.0279 C   0  0  0  0  0  0  0  0  0  0  0  0
    9.6312   15.2565   22.8210 C   0  0  2  0  0  0  0  0  0  0  0  0
    9.3512   15.6967   21.3897 C   0  0  0  0  0  0  0  0  0  0  0  0
   11.0660   15.3381   23.1088 C   0  0  0  0  0  0  0  0  0  0  0  0
   12.1945   15.2940   23.3726 N   0  0  0  0  0  0  0  0  0  0  0  0
  1  2  1  0
  2  3  1  0
  3  4  2  0
  3  5  1  0
  5  6  2  0
  6  7  1  0
  7  8  1  0
  8  9  1  0
  9 10  1  0
  7 11  2  0
 11 12  1  0
 12 13  2  0
 13 14  1  0
 14 15  1  0
 14 16  1  0
 16 17  1  0
 17 18  1  6
 17 19  1  0
 19 20  3  0
 13  5  1  0
 10  8  1  0
M  END
>  <energy_score>  (3006) 
-42.750401

>  <inchikey>  (3006) 
QRNHIPRWTQBRQB-UHFFFAOYSA-N

>  <smiles>  (3006) 
COC(=O)c1cc(C2CC2)ncc1N(N)CC(C)C#N

>  <ref_pdb>  (3006) 
A0528a

>  <alias>  (3006) 
QRNHIPRWTQBRQB-UHFFFAOYSA-N-P308-P15-P308-601501

>  <HIPPO Pose ID>  (3006) 
501713

>  <name>  (3006) 
QRNHIPRWTQBRQB-UHFFFAOYSA-N-P308-P15-P308-601501

>  <HIPPO Compound ID>  (3006) 
292570

>  <ref_mols>  (3006) 
A4331a,A0514a

>  <distance_score>  (3006) 
1.605271

>  <inspiration_score>  (3006) 
None

$$$$
KNQZZWYJTIWVCH-UHFFFAOYSA-N-P15-P15-P308-601501
     RDKit          3D

 20 21  0  0  0  0  0  0  0  0999 V2000
    9.3464    8.3984   22.9245 C   0  0  0  0  0  0  0  0  0  0  0  0
    8.4909    9.1718   23.7566 O   0  0  0  0  0  0  0  0  0  0  0  0
    8.9813   10.4042   23.9849 C   0  0  0  0  0  0  0  0  0  0  0  0
   10.0724   10.8252   23.6346 O   0  0  0  0  0  0  0  0  0  0  0  0
    7.9763   11.2149   24.6974 C   0  0  0  0  0  0  0  0  0  0  0  0
    7.0415   10.6367   25.5560 C   0  0  0  0  0  0  0  0  0  0  0  0
    6.1631   11.4667   26.2435 C   0  0  0  0  0  0  0  0  0  0  0  0
    5.2927   10.9595   27.3593 C   0  0  0  0  0  0  0  0  0  0  0  0
    4.0937   11.7588   27.8209 C   0  0  0  0  0  0  0  0  0  0  0  0
    5.3294   11.7312   28.6657 C   0  0  0  0  0  0  0  0  0  0  0  0
    6.1241   12.7998   26.0057 N   0  0  0  0  0  0  0  0  0  0  0  0
    6.9715   13.3278   25.1065 C   0  0  0  0  0  0  0  0  0  0  0  0
    7.9841   12.5985   24.5028 C   0  0  0  0  0  0  0  0  0  0  0  0
    8.8661   13.1853   23.5240 N   0  0  0  0  0  0  0  0  0  0  0  0
    9.6742   13.5026   24.8425 N   0  0  0  0  0  0  0  0  0  0  0  0
    8.7028   14.4280   22.6634 C   0  0  0  0  0  0  0  0  0  0  0  0
    7.8540   15.2401   22.6552 O   0  0  0  0  0  0  0  0  0  0  0  0
    9.9919   14.4384   21.8492 C   0  0  0  0  0  0  0  0  0  0  0  0
   10.0032   15.7031   20.5878 S   0  0  0  0  0  0  0  0  0  0  0  0
   11.4064   15.0943   19.6446 C   0  0  0  0  0  0  0  0  0  0  0  0
  1  2  1  0
  2  3  1  0
  3  4  2  0
  3  5  1  0
  5  6  2  0
  6  7  1  0
  7  8  1  0
  8  9  1  0
  9 10  1  0
  7 11  2  0
 11 12  1  0
 12 13  2  0
 13 14  1  0
 14 15  1  0
 14 16  1  0
 16 17  2  0
 16 18  1  0
 18 19  1  0
 19 20  1  0
 13  5  1  0
 10  8  1  0
M  END
>  <energy_score>  (3007) 
-4.604222

>  <inchikey>  (3007) 
KNQZZWYJTIWVCH-UHFFFAOYSA-N

>  <smiles>  (3007) 
COC(=O)c1cc(C2CC2)ncc1N(N)C(=O)CSC

>  <ref_pdb>  (3007) 
A0528a

>  <alias>  (3007) 
KNQZZWYJTIWVCH-UHFFFAOYSA-N-P15-P15-P308-601501

>  <HIPPO Pose ID>  (3007) 
501714

>  <name>  (3007) 
KNQZZWYJTIWVCH-UHFFFAOYSA-N-P15-P15-P308-601501

>  <HIPPO Compound ID>  (3007) 
292571

>  <ref_mols>  (3007) 
A4331a,A0514a

>  <distance_score>  (3007) 
1.794576

>  <inspiration_score>  (3007) 
None

$$$$
KNQZZWYJTIWVCH-UHFFFAOYSA-N-P308-P15-P308-601501
     RDKit          3D

 20 21  0  0  0  0  0  0  0  0999 V2000
    9.5017    8.7653   23.1057 C   0  0  0  0  0  0  0  0  0  0  0  0
    8.6647    9.7184   23.7563 O   0  0  0  0  0  0  0  0  0  0  0  0
    9.3298   10.7120   24.3890 C   0  0  0  0  0  0  0  0  0  0  0  0
   10.5409   10.8523   24.4718 O   0  0  0  0  0  0  0  0  0  0  0  0
    8.3308   11.6137   25.0071 C   0  0  0  0  0  0  0  0  0  0  0  0
    7.2048   11.0292   25.6146 C   0  0  0  0  0  0  0  0  0  0  0  0
    6.2773   11.8436   26.2484 C   0  0  0  0  0  0  0  0  0  0  0  0
    5.1317   11.3044   27.0624 C   0  0  0  0  0  0  0  0  0  0  0  0
    3.9094   12.1627   27.3170 C   0  0  0  0  0  0  0  0  0  0  0  0
    4.8920   11.9404   28.4210 C   0  0  0  0  0  0  0  0  0  0  0  0
    6.4245   13.1864   26.2418 N   0  0  0  0  0  0  0  0  0  0  0  0
    7.4890   13.7351   25.6287 C   0  0  0  0  0  0  0  0  0  0  0  0
    8.5170   13.0118   25.0440 C   0  0  0  0  0  0  0  0  0  0  0  0
    9.4857   13.7408   24.2286 N   0  0  0  0  0  0  0  0  0  0  0  0
   10.4025   13.3319   25.4331 N   0  0  0  0  0  0  0  0  0  0  0  0
    9.6055   15.2448   23.9208 C   0  0  0  0  0  0  0  0  0  0  0  0
    8.9878   16.1621   24.3387 O   0  0  0  0  0  0  0  0  0  0  0  0
   10.6578   15.3697   22.8332 C   0  0  0  0  0  0  0  0  0  0  0  0
    9.8107   15.1571   21.2391 S   0  0  0  0  0  0  0  0  0  0  0  0
   11.2654   15.1912   20.1784 C   0  0  0  0  0  0  0  0  0  0  0  0
  1  2  1  0
  2  3  1  0
  3  4  2  0
  3  5  1  0
  5  6  2  0
  6  7  1  0
  7  8  1  0
  8  9  1  0
  9 10  1  0
  7 11  2  0
 11 12  1  0
 12 13  2  0
 13 14  1  0
 14 15  1  0
 14 16  1  0
 16 17  2  0
 16 18  1  0
 18 19  1  0
 19 20  1  0
 13  5  1  0
 10  8  1  0
M  END
>  <energy_score>  (3008) 
-8.16254

>  <inchikey>  (3008) 
KNQZZWYJTIWVCH-UHFFFAOYSA-N

>  <smiles>  (3008) 
COC(=O)c1cc(C2CC2)ncc1N(N)C(=O)CSC

>  <ref_pdb>  (3008) 
A0528a

>  <alias>  (3008) 
KNQZZWYJTIWVCH-UHFFFAOYSA-N-P308-P15-P308-601501

>  <HIPPO Pose ID>  (3008) 
501715

>  <name>  (3008) 
KNQZZWYJTIWVCH-UHFFFAOYSA-N-P308-P15-P308-601501

>  <HIPPO Compound ID>  (3008) 
292571

>  <ref_mols>  (3008) 
A4331a,A0514a

>  <distance_score>  (3008) 
1.80717

>  <inspiration_score>  (3008) 
None

$$$$
JJRZARWUSRCCJQ-UHFFFAOYSA-N-P15-P15-P308-601501
     RDKit          3D

 20 22  0  0  0  0  0  0  0  0999 V2000
    9.1458    8.5285   23.0289 C   0  0  0  0  0  0  0  0  0  0  0  0
    8.3149    9.3465   23.8597 O   0  0  0  0  0  0  0  0  0  0  0  0
    8.8780   10.5467   24.1017 C   0  0  0  0  0  0  0  0  0  0  0  0
    9.9894   10.8926   23.7295 O   0  0  0  0  0  0  0  0  0  0  0  0
    8.0178   11.4461   24.9051 C   0  0  0  0  0  0  0  0  0  0  0  0
    6.8735   10.9968   25.5708 C   0  0  0  0  0  0  0  0  0  0  0  0
    6.1510   11.9165   26.3283 C   0  0  0  0  0  0  0  0  0  0  0  0
    4.9272   11.6045   27.1189 C   0  0  0  0  0  0  0  0  0  0  0  0
    4.8862   10.5704   28.2011 C   0  0  0  0  0  0  0  0  0  0  0  0
    4.9351   12.0197   28.5775 C   0  0  0  0  0  0  0  0  0  0  0  0
    6.5182   13.2127   26.4162 N   0  0  0  0  0  0  0  0  0  0  0  0
    7.5987   13.6263   25.7567 C   0  0  0  0  0  0  0  0  0  0  0  0
    8.4094   12.7892   25.0182 C   0  0  0  0  0  0  0  0  0  0  0  0
    9.5139   13.3420   24.3541 N   0  0  0  0  0  0  0  0  0  0  0  0
    9.3361   13.9771   23.1551 C   0  0  0  0  0  0  0  0  0  0  0  0
   10.2849   14.0083   22.2766 N   0  0  0  0  0  0  0  0  0  0  0  0
    9.7779   14.5919   21.1781 N   0  0  0  0  0  0  0  0  0  0  0  0
   10.6657   15.3703   20.3265 C   0  0  0  0  0  0  0  0  0  0  0  0
    8.4965   15.2320   21.4137 C   0  0  0  0  0  0  0  0  0  0  0  0
    8.0553   14.6152   22.7186 C   0  0  0  0  0  0  0  0  0  0  0  0
  1  2  1  0
  2  3  1  0
  3  4  2  0
  3  5  1  0
  5  6  2  0
  6  7  1  0
  7  8  1  0
  8  9  1  0
  9 10  1  0
  7 11  2  0
 11 12  1  0
 12 13  2  0
 13 14  1  0
 14 15  1  0
 15 16  2  0
 16 17  1  0
 17 18  1  0
 17 19  1  0
 19 20  1  0
 13  5  1  0
 20 15  1  0
 10  8  1  0
M  END
>  <energy_score>  (3009) 
-37.951071

>  <inchikey>  (3009) 
JJRZARWUSRCCJQ-UHFFFAOYSA-N

>  <smiles>  (3009) 
COC(=O)c1cc(C2CC2)ncc1NC1=NN(C)CC1

>  <ref_pdb>  (3009) 
A0528a

>  <alias>  (3009) 
JJRZARWUSRCCJQ-UHFFFAOYSA-N-P15-P15-P308-601501

>  <HIPPO Pose ID>  (3009) 
501716

>  <name>  (3009) 
JJRZARWUSRCCJQ-UHFFFAOYSA-N-P15-P15-P308-601501

>  <HIPPO Compound ID>  (3009) 
292572

>  <ref_mols>  (3009) 
A4331a,A0514a

>  <distance_score>  (3009) 
1.795217

>  <inspiration_score>  (3009) 
None

$$$$
JJRZARWUSRCCJQ-UHFFFAOYSA-N-P308-P15-P308-601501
     RDKit          3D

 20 22  0  0  0  0  0  0  0  0999 V2000
    9.4492    8.4354   23.1001 C   0  0  0  0  0  0  0  0  0  0  0  0
    8.6092    9.2164   23.9332 O   0  0  0  0  0  0  0  0  0  0  0  0
    9.2667   10.2302   24.5312 C   0  0  0  0  0  0  0  0  0  0  0  0
   10.4741   10.3782   24.6587 O   0  0  0  0  0  0  0  0  0  0  0  0
    8.2706   11.2295   24.9388 C   0  0  0  0  0  0  0  0  0  0  0  0
    7.1014   10.8336   25.5858 C   0  0  0  0  0  0  0  0  0  0  0  0
    6.2147   11.8156   25.9897 C   0  0  0  0  0  0  0  0  0  0  0  0
    5.0560   11.5139   26.8980 C   0  0  0  0  0  0  0  0  0  0  0  0
    4.9890   12.2092   28.2406 C   0  0  0  0  0  0  0  0  0  0  0  0
    4.0148   12.5809   27.1679 C   0  0  0  0  0  0  0  0  0  0  0  0
    6.4177   13.1074   25.6434 N   0  0  0  0  0  0  0  0  0  0  0  0
    7.5147   13.4507   24.9410 C   0  0  0  0  0  0  0  0  0  0  0  0
    8.5291   12.5685   24.6413 C   0  0  0  0  0  0  0  0  0  0  0  0
    9.7319   12.9641   24.0647 N   0  0  0  0  0  0  0  0  0  0  0  0
    9.9479   13.9873   23.1910 C   0  0  0  0  0  0  0  0  0  0  0  0
    9.2198   14.3553   22.1846 N   0  0  0  0  0  0  0  0  0  0  0  0
    9.9111   15.3732   21.5802 N   0  0  0  0  0  0  0  0  0  0  0  0
    9.8563   15.5092   20.1297 C   0  0  0  0  0  0  0  0  0  0  0  0
   11.2931   15.4648   22.0262 C   0  0  0  0  0  0  0  0  0  0  0  0
   11.2071   14.7895   23.3666 C   0  0  0  0  0  0  0  0  0  0  0  0
  1  2  1  0
  2  3  1  0
  3  4  2  0
  3  5  1  0
  5  6  2  0
  6  7  1  0
  7  8  1  0
  8  9  1  0
  9 10  1  0
  7 11  2  0
 11 12  1  0
 12 13  2  0
 13 14  1  0
 14 15  1  0
 15 16  2  0
 16 17  1  0
 17 18  1  0
 17 19  1  0
 19 20  1  0
 13  5  1  0
 20 15  1  0
 10  8  1  0
M  END
>  <energy_score>  (3010) 
-37.808395

>  <inchikey>  (3010) 
JJRZARWUSRCCJQ-UHFFFAOYSA-N

>  <smiles>  (3010) 
COC(=O)c1cc(C2CC2)ncc1NC1=NN(C)CC1

>  <ref_pdb>  (3010) 
A0528a

>  <alias>  (3010) 
JJRZARWUSRCCJQ-UHFFFAOYSA-N-P308-P15-P308-601501

>  <HIPPO Pose ID>  (3010) 
501717

>  <name>  (3010) 
JJRZARWUSRCCJQ-UHFFFAOYSA-N-P308-P15-P308-601501

>  <HIPPO Compound ID>  (3010) 
292572

>  <ref_mols>  (3010) 
A4331a,A0514a

>  <distance_score>  (3010) 
1.634567

>  <inspiration_score>  (3010) 
None

$$$$
FNPBCGZTXGNWIN-UHFFFAOYSA-N-P15-P15-P308-601501
     RDKit          3D

 20 21  0  0  0  0  0  0  0  0999 V2000
    9.4141    8.6915   23.0693 C   0  0  0  0  0  0  0  0  0  0  0  0
    8.4841    9.4263   23.8672 O   0  0  0  0  0  0  0  0  0  0  0  0
    8.8574   10.7097   24.0928 C   0  0  0  0  0  0  0  0  0  0  0  0
    9.8938   11.2064   23.6939 O   0  0  0  0  0  0  0  0  0  0  0  0
    7.8144   11.4184   24.8840 C   0  0  0  0  0  0  0  0  0  0  0  0
    6.8580   10.6636   25.5803 C   0  0  0  0  0  0  0  0  0  0  0  0
    5.9383   11.3134   26.3918 C   0  0  0  0  0  0  0  0  0  0  0  0
    5.1002   10.5928   27.4047 C   0  0  0  0  0  0  0  0  0  0  0  0
    3.9218   11.2844   28.0572 C   0  0  0  0  0  0  0  0  0  0  0  0
    5.1878   11.0964   28.8333 C   0  0  0  0  0  0  0  0  0  0  0  0
    5.8537   12.6574   26.4104 N   0  0  0  0  0  0  0  0  0  0  0  0
    6.7580   13.3627   25.7248 C   0  0  0  0  0  0  0  0  0  0  0  0
    7.8227   12.8161   25.0226 C   0  0  0  0  0  0  0  0  0  0  0  0
    8.8734   13.6511   24.5853 N   0  0  0  0  0  0  0  0  0  0  0  0
    9.2312   14.7209   25.4571 N   0  0  0  0  0  0  0  0  0  0  0  0
    8.7745   13.9927   23.1480 C   0  0  0  0  0  0  0  0  0  0  0  0
   10.1608   13.9112   22.5148 C   0  0  0  0  0  0  0  0  0  0  0  0
   10.5866   15.0501   21.5892 C   0  0  0  0  0  0  0  0  0  0  0  0
    9.4835   15.6915   20.7732 C   0  0  0  0  0  0  0  0  0  0  0  0
   11.7312   14.6089   20.6863 C   0  0  0  0  0  0  0  0  0  0  0  0
  1  2  1  0
  2  3  1  0
  3  4  2  0
  3  5  1  0
  5  6  2  0
  6  7  1  0
  7  8  1  0
  8  9  1  0
  9 10  1  0
  7 11  2  0
 11 12  1  0
 12 13  2  0
 13 14  1  0
 14 15  1  0
 14 16  1  0
 16 17  1  0
 17 18  1  0
 18 19  1  0
 18 20  1  0
 13  5  1  0
 10  8  1  0
M  END
>  <energy_score>  (3011) 
-26.281633

>  <inchikey>  (3011) 
FNPBCGZTXGNWIN-UHFFFAOYSA-N

>  <smiles>  (3011) 
COC(=O)c1cc(C2CC2)ncc1N(N)CCC(C)C

>  <ref_pdb>  (3011) 
A0528a

>  <alias>  (3011) 
FNPBCGZTXGNWIN-UHFFFAOYSA-N-P15-P15-P308-601501

>  <HIPPO Pose ID>  (3011) 
501718

>  <name>  (3011) 
FNPBCGZTXGNWIN-UHFFFAOYSA-N-P15-P15-P308-601501

>  <HIPPO Compound ID>  (3011) 
292573

>  <ref_mols>  (3011) 
A4331a,A0514a

>  <distance_score>  (3011) 
1.582166

>  <inspiration_score>  (3011) 
None

$$$$
FNPBCGZTXGNWIN-UHFFFAOYSA-N-P308-P15-P308-601501
     RDKit          3D

 20 21  0  0  0  0  0  0  0  0999 V2000
    9.6163    8.5772   23.5552 C   0  0  0  0  0  0  0  0  0  0  0  0
    8.7846    9.3775   24.3905 O   0  0  0  0  0  0  0  0  0  0  0  0
    8.7550   10.6752   24.0069 C   0  0  0  0  0  0  0  0  0  0  0  0
    9.2972   11.1401   23.0191 O   0  0  0  0  0  0  0  0  0  0  0  0
    7.9404   11.4627   24.9505 C   0  0  0  0  0  0  0  0  0  0  0  0
    6.8136   10.8918   25.5531 C   0  0  0  0  0  0  0  0  0  0  0  0
    6.0263   11.6854   26.3767 C   0  0  0  0  0  0  0  0  0  0  0  0
    4.8931   11.1426   27.2010 C   0  0  0  0  0  0  0  0  0  0  0  0
    3.6924   12.0184   27.4934 C   0  0  0  0  0  0  0  0  0  0  0  0
    4.6804   11.7409   28.5807 C   0  0  0  0  0  0  0  0  0  0  0  0
    6.2967   13.0004   26.5459 N   0  0  0  0  0  0  0  0  0  0  0  0
    7.3885   13.5185   25.9713 C   0  0  0  0  0  0  0  0  0  0  0  0
    8.2824   12.7938   25.2050 C   0  0  0  0  0  0  0  0  0  0  0  0
    9.4800   13.3804   24.7388 N   0  0  0  0  0  0  0  0  0  0  0  0
   10.3350   13.8607   25.7755 N   0  0  0  0  0  0  0  0  0  0  0  0
    9.1732   14.2986   23.6177 C   0  0  0  0  0  0  0  0  0  0  0  0
   10.4182   14.4815   22.7601 C   0  0  0  0  0  0  0  0  0  0  0  0
   10.2369   15.4974   21.6317 C   0  0  0  0  0  0  0  0  0  0  0  0
    8.9803   15.2309   20.8271 C   0  0  0  0  0  0  0  0  0  0  0  0
   11.4620   15.4650   20.7208 C   0  0  0  0  0  0  0  0  0  0  0  0
  1  2  1  0
  2  3  1  0
  3  4  2  0
  3  5  1  0
  5  6  2  0
  6  7  1  0
  7  8  1  0
  8  9  1  0
  9 10  1  0
  7 11  2  0
 11 12  1  0
 12 13  2  0
 13 14  1  0
 14 15  1  0
 14 16  1  0
 16 17  1  0
 17 18  1  0
 18 19  1  0
 18 20  1  0
 13  5  1  0
 10  8  1  0
M  END
>  <energy_score>  (3012) 
-37.604676

>  <inchikey>  (3012) 
FNPBCGZTXGNWIN-UHFFFAOYSA-N

>  <smiles>  (3012) 
COC(=O)c1cc(C2CC2)ncc1N(N)CCC(C)C

>  <ref_pdb>  (3012) 
A0528a

>  <alias>  (3012) 
FNPBCGZTXGNWIN-UHFFFAOYSA-N-P308-P15-P308-601501

>  <HIPPO Pose ID>  (3012) 
501719

>  <name>  (3012) 
FNPBCGZTXGNWIN-UHFFFAOYSA-N-P308-P15-P308-601501

>  <HIPPO Compound ID>  (3012) 
292573

>  <ref_mols>  (3012) 
A4331a,A0514a

>  <distance_score>  (3012) 
1.398726

>  <inspiration_score>  (3012) 
None

$$$$
QUTRBPKYACKZSE-UHFFFAOYSA-N-P15-P15-P308-601501
     RDKit          3D

 20 21  0  0  0  0  0  0  0  0999 V2000
   12.1430   14.9373   21.9931 C   0  0  0  0  0  0  0  0  0  0  0  0
   11.0971   14.7373   22.9349 O   0  0  0  0  0  0  0  0  0  0  0  0
    9.8543   14.5146   22.2385 C   0  0  0  0  0  0  0  0  0  0  0  0
    8.7356   14.2036   23.2541 C   0  0  1  0  0  0  0  0  0  0  0  0
    7.4034   14.2812   22.5118 C   0  0  0  0  0  0  0  0  0  0  0  0
    8.9438   12.8628   23.8828 N   0  0  0  0  0  0  0  0  0  0  0  0
   10.2653   12.5303   24.3001 N   0  0  0  0  0  0  0  0  0  0  0  0
    7.9769   12.4368   24.8120 C   0  0  0  0  0  0  0  0  0  0  0  0
    7.3380   13.3430   25.6542 C   0  0  0  0  0  0  0  0  0  0  0  0
    6.3830   13.0458   26.5508 N   0  0  0  0  0  0  0  0  0  0  0  0
    5.9563   11.7739   26.6383 C   0  0  0  0  0  0  0  0  0  0  0  0
    4.8342   11.4820   27.5869 C   0  0  0  0  0  0  0  0  0  0  0  0
    4.7421   12.2391   28.8886 C   0  0  0  0  0  0  0  0  0  0  0  0
    3.7713   12.5420   27.7879 C   0  0  0  0  0  0  0  0  0  0  0  0
    6.5540   10.7852   25.8850 C   0  0  0  0  0  0  0  0  0  0  0  0
    7.5934   11.1039   24.9928 C   0  0  0  0  0  0  0  0  0  0  0  0
    8.1836    9.9180   24.3411 C   0  0  0  0  0  0  0  0  0  0  0  0
    7.8376    8.8043   24.7071 O   0  0  0  0  0  0  0  0  0  0  0  0
    9.0942   10.1586   23.3787 O   0  0  0  0  0  0  0  0  0  0  0  0
    9.6635    8.9610   22.8530 C   0  0  0  0  0  0  0  0  0  0  0  0
  1  2  1  0
  2  3  1  0
  3  4  1  0
  4  5  1  6
  4  6  1  0
  6  7  1  0
  6  8  1  0
  8  9  2  0
  9 10  1  0
 10 11  2  0
 11 12  1  0
 12 13  1  0
 13 14  1  0
 11 15  1  0
 15 16  2  0
 16 17  1  0
 17 18  2  0
 17 19  1  0
 19 20  1  0
 16  8  1  0
 14 12  1  0
M  END
>  <energy_score>  (3013) 
-42.451092

>  <inchikey>  (3013) 
QUTRBPKYACKZSE-UHFFFAOYSA-N

>  <smiles>  (3013) 
COCC(C)N(N)c1cnc(C2CC2)cc1C(=O)OC

>  <ref_pdb>  (3013) 
A0528a

>  <alias>  (3013) 
QUTRBPKYACKZSE-UHFFFAOYSA-N-P15-P15-P308-601501

>  <HIPPO Pose ID>  (3013) 
501720

>  <name>  (3013) 
QUTRBPKYACKZSE-UHFFFAOYSA-N-P15-P15-P308-601501

>  <HIPPO Compound ID>  (3013) 
292574

>  <ref_mols>  (3013) 
A4331a,A0514a

>  <distance_score>  (3013) 
1.544692

>  <inspiration_score>  (3013) 
None

$$$$
QUTRBPKYACKZSE-UHFFFAOYSA-N-P308-P15-P308-601501
     RDKit          3D

 20 21  0  0  0  0  0  0  0  0999 V2000
   12.0457   15.4499   22.4269 C   0  0  0  0  0  0  0  0  0  0  0  0
   11.0042   14.9813   23.2721 O   0  0  0  0  0  0  0  0  0  0  0  0
    9.8573   14.6223   22.4884 C   0  0  0  0  0  0  0  0  0  0  0  0
    8.7064   14.2115   23.4222 C   0  0  1  0  0  0  0  0  0  0  0  0
    7.4298   14.1392   22.5773 C   0  0  0  0  0  0  0  0  0  0  0  0
    8.9791   12.8868   24.0919 N   0  0  0  0  0  0  0  0  0  0  0  0
   10.2537   12.7065   24.7109 N   0  0  0  0  0  0  0  0  0  0  0  0
    7.9490   12.4213   24.9358 C   0  0  0  0  0  0  0  0  0  0  0  0
    7.2524   13.3092   25.7514 C   0  0  0  0  0  0  0  0  0  0  0  0
    6.2180   12.9960   26.5458 N   0  0  0  0  0  0  0  0  0  0  0  0
    5.7980   11.7196   26.5769 C   0  0  0  0  0  0  0  0  0  0  0  0
    4.6376   11.4044   27.4705 C   0  0  0  0  0  0  0  0  0  0  0  0
    4.5184   12.1083   28.8012 C   0  0  0  0  0  0  0  0  0  0  0  0
    3.5837   12.4696   27.6869 C   0  0  0  0  0  0  0  0  0  0  0  0
    6.4544   10.7455   25.8497 C   0  0  0  0  0  0  0  0  0  0  0  0
    7.5613   11.0812   25.0533 C   0  0  0  0  0  0  0  0  0  0  0  0
    8.2071    9.9065   24.4254 C   0  0  0  0  0  0  0  0  0  0  0  0
    7.8881    8.7717   24.7601 O   0  0  0  0  0  0  0  0  0  0  0  0
    9.0976   10.1979   23.4570 O   0  0  0  0  0  0  0  0  0  0  0  0
    9.6739    9.0321   22.8736 C   0  0  0  0  0  0  0  0  0  0  0  0
  1  2  1  0
  2  3  1  0
  3  4  1  0
  4  5  1  6
  4  6  1  0
  6  7  1  0
  6  8  1  0
  8  9  2  0
  9 10  1  0
 10 11  2  0
 11 12  1  0
 12 13  1  0
 13 14  1  0
 11 15  1  0
 15 16  2  0
 16 17  1  0
 17 18  2  0
 17 19  1  0
 19 20  1  0
 16  8  1  0
 14 12  1  0
M  END
>  <energy_score>  (3014) 
-43.495378

>  <inchikey>  (3014) 
QUTRBPKYACKZSE-UHFFFAOYSA-N

>  <smiles>  (3014) 
COCC(C)N(N)c1cnc(C2CC2)cc1C(=O)OC

>  <ref_pdb>  (3014) 
A0528a

>  <alias>  (3014) 
QUTRBPKYACKZSE-UHFFFAOYSA-N-P308-P15-P308-601501

>  <HIPPO Pose ID>  (3014) 
501721

>  <name>  (3014) 
QUTRBPKYACKZSE-UHFFFAOYSA-N-P308-P15-P308-601501

>  <HIPPO Compound ID>  (3014) 
292574

>  <ref_mols>  (3014) 
A4331a,A0514a

>  <distance_score>  (3014) 
1.581453

>  <inspiration_score>  (3014) 
None

$$$$
GAYRVLXTARAIBY-UHFFFAOYSA-N-P15-P15-P308-601501
     RDKit          3D

 20 21  0  0  0  0  0  0  0  0999 V2000
    9.4533    8.3748   23.4366 C   0  0  0  0  0  0  0  0  0  0  0  0
    8.6641    9.2474   24.2491 O   0  0  0  0  0  0  0  0  0  0  0  0
    8.8606   10.5337   23.8911 C   0  0  0  0  0  0  0  0  0  0  0  0
    9.5711   10.8650   22.9585 O   0  0  0  0  0  0  0  0  0  0  0  0
    8.1310   11.4953   24.7510 C   0  0  0  0  0  0  0  0  0  0  0  0
    7.0106   11.0710   25.4819 C   0  0  0  0  0  0  0  0  0  0  0  0
    6.3131   12.0067   26.2398 C   0  0  0  0  0  0  0  0  0  0  0  0
    5.0688   11.7169   27.0091 C   0  0  0  0  0  0  0  0  0  0  0  0
    5.0100   10.7456   28.1480 C   0  0  0  0  0  0  0  0  0  0  0  0
    5.0071   12.2156   28.4393 C   0  0  0  0  0  0  0  0  0  0  0  0
    6.7039   13.2954   26.3031 N   0  0  0  0  0  0  0  0  0  0  0  0
    7.7603   13.6864   25.5830 C   0  0  0  0  0  0  0  0  0  0  0  0
    8.5256   12.8456   24.7929 C   0  0  0  0  0  0  0  0  0  0  0  0
    9.6034   13.4493   24.1109 N   0  0  0  0  0  0  0  0  0  0  0  0
   10.8983   13.0583   24.5619 N   0  0  0  0  0  0  0  0  0  0  0  0
    9.3893   13.4632   22.6320 C   0  0  0  0  0  0  0  0  0  0  0  0
    9.5291   14.8156   22.0034 C   0  0  0  0  0  0  0  0  0  0  0  0
    9.6427   14.7359   20.6671 F   0  0  0  0  0  0  0  0  0  0  0  0
   10.6465   15.3981   22.4771 F   0  0  0  0  0  0  0  0  0  0  0  0
    8.4288   15.5473   22.2572 F   0  0  0  0  0  0  0  0  0  0  0  0
  1  2  1  0
  2  3  1  0
  3  4  2  0
  3  5  1  0
  5  6  2  0
  6  7  1  0
  7  8  1  0
  8  9  1  0
  9 10  1  0
  7 11  2  0
 11 12  1  0
 12 13  2  0
 13 14  1  0
 14 15  1  0
 14 16  1  0
 16 17  1  0
 17 18  1  0
 17 19  1  0
 17 20  1  0
 13  5  1  0
 10  8  1  0
M  END
>  <energy_score>  (3015) 
-33.723517

>  <inchikey>  (3015) 
GAYRVLXTARAIBY-UHFFFAOYSA-N

>  <smiles>  (3015) 
COC(=O)c1cc(C2CC2)ncc1N(N)CC(F)(F)F

>  <ref_pdb>  (3015) 
A0528a

>  <alias>  (3015) 
GAYRVLXTARAIBY-UHFFFAOYSA-N-P15-P15-P308-601501

>  <HIPPO Pose ID>  (3015) 
501724

>  <name>  (3015) 
GAYRVLXTARAIBY-UHFFFAOYSA-N-P15-P15-P308-601501

>  <HIPPO Compound ID>  (3015) 
292576

>  <ref_mols>  (3015) 
A4331a,A0514a

>  <distance_score>  (3015) 
1.443982

>  <inspiration_score>  (3015) 
None

$$$$
GAYRVLXTARAIBY-UHFFFAOYSA-N-P308-P15-P308-601501
     RDKit          3D

 20 21  0  0  0  0  0  0  0  0999 V2000
    9.2642    8.4113   23.6968 C   0  0  0  0  0  0  0  0  0  0  0  0
    8.5634    9.3657   24.4816 O   0  0  0  0  0  0  0  0  0  0  0  0
    8.6763   10.6026   23.9549 C   0  0  0  0  0  0  0  0  0  0  0  0
    9.2388   10.8802   22.9103 O   0  0  0  0  0  0  0  0  0  0  0  0
    8.0107   11.5798   24.8294 C   0  0  0  0  0  0  0  0  0  0  0  0
    6.7850   11.2556   25.4222 C   0  0  0  0  0  0  0  0  0  0  0  0
    6.1339   12.2322   26.1579 C   0  0  0  0  0  0  0  0  0  0  0  0
    4.7520   12.0767   26.7047 C   0  0  0  0  0  0  0  0  0  0  0  0
    4.4138   11.1838   27.8634 C   0  0  0  0  0  0  0  0  0  0  0  0
    4.4805   12.6649   28.0758 C   0  0  0  0  0  0  0  0  0  0  0  0
    6.6976   13.4431   26.3612 N   0  0  0  0  0  0  0  0  0  0  0  0
    7.8871   13.7180   25.8025 C   0  0  0  0  0  0  0  0  0  0  0  0
    8.5970   12.8378   25.0101 C   0  0  0  0  0  0  0  0  0  0  0  0
    9.8224   13.1935   24.4226 N   0  0  0  0  0  0  0  0  0  0  0  0
   10.8263   13.7028   25.2808 N   0  0  0  0  0  0  0  0  0  0  0  0
    9.6738   13.7213   23.0278 C   0  0  0  0  0  0  0  0  0  0  0  0
    9.5418   15.2315   22.9085 C   0  0  0  0  0  0  0  0  0  0  0  0
    9.5052   15.6071   21.6119 F   0  0  0  0  0  0  0  0  0  0  0  0
   10.5917   15.8574   23.4961 F   0  0  0  0  0  0  0  0  0  0  0  0
    8.4174   15.6863   23.5028 F   0  0  0  0  0  0  0  0  0  0  0  0
  1  2  1  0
  2  3  1  0
  3  4  2  0
  3  5  1  0
  5  6  2  0
  6  7  1  0
  7  8  1  0
  8  9  1  0
  9 10  1  0
  7 11  2  0
 11 12  1  0
 12 13  2  0
 13 14  1  0
 14 15  1  0
 14 16  1  0
 16 17  1  0
 17 18  1  0
 17 19  1  0
 17 20  1  0
 13  5  1  0
 10  8  1  0
M  END
>  <energy_score>  (3016) 
-37.930027

>  <inchikey>  (3016) 
GAYRVLXTARAIBY-UHFFFAOYSA-N

>  <smiles>  (3016) 
COC(=O)c1cc(C2CC2)ncc1N(N)CC(F)(F)F

>  <ref_pdb>  (3016) 
A0528a

>  <alias>  (3016) 
GAYRVLXTARAIBY-UHFFFAOYSA-N-P308-P15-P308-601501

>  <HIPPO Pose ID>  (3016) 
501725

>  <name>  (3016) 
GAYRVLXTARAIBY-UHFFFAOYSA-N-P308-P15-P308-601501

>  <HIPPO Compound ID>  (3016) 
292576

>  <ref_mols>  (3016) 
A4331a,A0514a

>  <distance_score>  (3016) 
1.404771

>  <inspiration_score>  (3016) 
None

$$$$
PNMQNNHGJQVTLV-UHFFFAOYSA-N-P15-P15-P308-601501
     RDKit          3D

 20 21  0  0  0  0  0  0  0  0999 V2000
    9.3879    8.4346   23.2065 C   0  0  0  0  0  0  0  0  0  0  0  0
    8.6246    9.2020   24.1410 O   0  0  0  0  0  0  0  0  0  0  0  0
    8.6935   10.5323   23.9248 C   0  0  0  0  0  0  0  0  0  0  0  0
    9.3045   11.0696   23.0183 O   0  0  0  0  0  0  0  0  0  0  0  0
    7.8966   11.2789   24.9232 C   0  0  0  0  0  0  0  0  0  0  0  0
    6.8308   10.6665   25.5898 C   0  0  0  0  0  0  0  0  0  0  0  0
    6.0949   11.4143   26.5008 C   0  0  0  0  0  0  0  0  0  0  0  0
    5.0485   10.8156   27.3954 C   0  0  0  0  0  0  0  0  0  0  0  0
    3.8602   11.6525   27.8239 C   0  0  0  0  0  0  0  0  0  0  0  0
    4.9458   11.3560   28.8095 C   0  0  0  0  0  0  0  0  0  0  0  0
    6.3446   12.7299   26.6946 N   0  0  0  0  0  0  0  0  0  0  0  0
    7.3653   13.2965   26.0439 C   0  0  0  0  0  0  0  0  0  0  0  0
    8.2160   12.6173   25.1908 C   0  0  0  0  0  0  0  0  0  0  0  0
    9.3575   13.2508   24.6483 N   0  0  0  0  0  0  0  0  0  0  0  0
   10.1563   13.9964   25.5673 N   0  0  0  0  0  0  0  0  0  0  0  0
    8.9642   13.9432   23.4037 C   0  0  0  0  0  0  0  0  0  0  0  0
   10.1635   14.0364   22.4544 C   0  0  0  0  0  0  0  0  0  0  0  0
   10.1952   15.2334   21.6284 N   0  0  0  0  0  0  0  0  0  0  0  0
    8.9271   15.6326   21.0571 C   0  0  0  0  0  0  0  0  0  0  0  0
   11.2038   15.1017   20.5827 C   0  0  0  0  0  0  0  0  0  0  0  0
  1  2  1  0
  2  3  1  0
  3  4  2  0
  3  5  1  0
  5  6  2  0
  6  7  1  0
  7  8  1  0
  8  9  1  0
  9 10  1  0
  7 11  2  0
 11 12  1  0
 12 13  2  0
 13 14  1  0
 14 15  1  0
 14 16  1  0
 16 17  1  0
 17 18  1  0
 18 19  1  0
 18 20  1  0
 13  5  1  0
 10  8  1  0
M  END
>  <energy_score>  (3017) 
-39.766873

>  <inchikey>  (3017) 
PNMQNNHGJQVTLV-UHFFFAOYSA-N

>  <smiles>  (3017) 
COC(=O)c1cc(C2CC2)ncc1N(N)CCN(C)C

>  <ref_pdb>  (3017) 
A0528a

>  <alias>  (3017) 
PNMQNNHGJQVTLV-UHFFFAOYSA-N-P15-P15-P308-601501

>  <HIPPO Pose ID>  (3017) 
501726

>  <name>  (3017) 
PNMQNNHGJQVTLV-UHFFFAOYSA-N-P15-P15-P308-601501

>  <HIPPO Compound ID>  (3017) 
292577

>  <ref_mols>  (3017) 
A4331a,A0514a

>  <distance_score>  (3017) 
1.820502

>  <inspiration_score>  (3017) 
None

$$$$
PNMQNNHGJQVTLV-UHFFFAOYSA-N-P308-P15-P308-601501
     RDKit          3D

 20 21  0  0  0  0  0  0  0  0999 V2000
    9.4359    8.6481   23.0802 C   0  0  0  0  0  0  0  0  0  0  0  0
    8.6188    9.5777   23.7846 O   0  0  0  0  0  0  0  0  0  0  0  0
    9.3148   10.4903   24.5063 C   0  0  0  0  0  0  0  0  0  0  0  0
   10.5259   10.5446   24.6226 O   0  0  0  0  0  0  0  0  0  0  0  0
    8.3168   11.4172   25.0952 C   0  0  0  0  0  0  0  0  0  0  0  0
    7.1298   10.8755   25.6209 C   0  0  0  0  0  0  0  0  0  0  0  0
    6.2002   11.7195   26.2173 C   0  0  0  0  0  0  0  0  0  0  0  0
    5.0404   11.2166   27.0334 C   0  0  0  0  0  0  0  0  0  0  0  0
    3.8550   12.1188   27.3145 C   0  0  0  0  0  0  0  0  0  0  0  0
    4.8418   11.8475   28.4026 C   0  0  0  0  0  0  0  0  0  0  0  0
    6.3758   13.0581   26.2042 N   0  0  0  0  0  0  0  0  0  0  0  0
    7.4990   13.5553   25.6723 C   0  0  0  0  0  0  0  0  0  0  0  0
    8.5353   12.7944   25.1533 C   0  0  0  0  0  0  0  0  0  0  0  0
    9.6696   13.4957   24.7343 N   0  0  0  0  0  0  0  0  0  0  0  0
   10.8523   13.3047   25.4816 N   0  0  0  0  0  0  0  0  0  0  0  0
    9.7420   13.6988   23.2773 C   0  0  0  0  0  0  0  0  0  0  0  0
    9.9616   15.2055   23.0284 C   0  0  0  0  0  0  0  0  0  0  0  0
   10.1736   15.6499   21.6540 N   0  0  0  0  0  0  0  0  0  0  0  0
    9.0417   15.3564   20.7974 C   0  0  0  0  0  0  0  0  0  0  0  0
   11.4143   15.1557   21.0699 C   0  0  0  0  0  0  0  0  0  0  0  0
  1  2  1  0
  2  3  1  0
  3  4  2  0
  3  5  1  0
  5  6  2  0
  6  7  1  0
  7  8  1  0
  8  9  1  0
  9 10  1  0
  7 11  2  0
 11 12  1  0
 12 13  2  0
 13 14  1  0
 14 15  1  0
 14 16  1  0
 16 17  1  0
 17 18  1  0
 18 19  1  0
 18 20  1  0
 13  5  1  0
 10  8  1  0
M  END
>  <energy_score>  (3018) 
-39.830251

>  <inchikey>  (3018) 
PNMQNNHGJQVTLV-UHFFFAOYSA-N

>  <smiles>  (3018) 
COC(=O)c1cc(C2CC2)ncc1N(N)CCN(C)C

>  <ref_pdb>  (3018) 
A0528a

>  <alias>  (3018) 
PNMQNNHGJQVTLV-UHFFFAOYSA-N-P308-P15-P308-601501

>  <HIPPO Pose ID>  (3018) 
501727

>  <name>  (3018) 
PNMQNNHGJQVTLV-UHFFFAOYSA-N-P308-P15-P308-601501

>  <HIPPO Compound ID>  (3018) 
292577

>  <ref_mols>  (3018) 
A4331a,A0514a

>  <distance_score>  (3018) 
1.745142

>  <inspiration_score>  (3018) 
None

$$$$
CIEDROUCRORRHZ-UHFFFAOYSA-N-P15-P15-P308-601501
     RDKit          3D

 20 22  0  0  0  0  0  0  0  0999 V2000
    9.1204    8.2711   22.8000 C   0  0  0  0  0  0  0  0  0  0  0  0
    8.2983    9.1003   23.6145 O   0  0  0  0  0  0  0  0  0  0  0  0
    8.9650   10.2173   23.9653 C   0  0  0  0  0  0  0  0  0  0  0  0
   10.1375   10.4309   23.7066 O   0  0  0  0  0  0  0  0  0  0  0  0
    8.0821   11.1407   24.7120 C   0  0  0  0  0  0  0  0  0  0  0  0
    7.0544   10.6382   25.5184 C   0  0  0  0  0  0  0  0  0  0  0  0
    6.3273   11.5221   26.3043 C   0  0  0  0  0  0  0  0  0  0  0  0
    5.2919   11.0672   27.2965 C   0  0  0  0  0  0  0  0  0  0  0  0
    4.1043   11.9545   27.6048 C   0  0  0  0  0  0  0  0  0  0  0  0
    5.2002   11.8144   28.6143 C   0  0  0  0  0  0  0  0  0  0  0  0
    6.5900   12.8481   26.2787 N   0  0  0  0  0  0  0  0  0  0  0  0
    7.5471   13.3113   25.4594 C   0  0  0  0  0  0  0  0  0  0  0  0
    8.3270   12.5174   24.6379 C   0  0  0  0  0  0  0  0  0  0  0  0
    9.3061   13.0487   23.7922 N   0  0  0  0  0  0  0  0  0  0  0  0
   10.6307   12.9571   24.3526 N   0  0  0  0  0  0  0  0  0  0  0  0
    8.9978   14.2512   22.9897 C   0  0  2  0  0  0  0  0  0  0  0  0
    7.5882   14.2835   22.4010 C   0  0  0  0  0  0  0  0  0  0  0  0
    9.9848   14.3006   21.8412 C   0  0  0  0  0  0  0  0  0  0  0  0
   10.1989   15.5396   21.0137 C   0  0  0  0  0  0  0  0  0  0  0  0
   11.3075   15.0180   21.8907 C   0  0  0  0  0  0  0  0  0  0  0  0
  1  2  1  0
  2  3  1  0
  3  4  2  0
  3  5  1  0
  5  6  2  0
  6  7  1  0
  7  8  1  0
  8  9  1  0
  9 10  1  0
  7 11  2  0
 11 12  1  0
 12 13  2  0
 13 14  1  0
 14 15  1  0
 14 16  1  0
 16 17  1  6
 16 18  1  0
 18 19  1  0
 19 20  1  0
 13  5  1  0
 20 18  1  0
 10  8  1  0
M  END
>  <energy_score>  (3019) 
-36.18073

>  <inchikey>  (3019) 
CIEDROUCRORRHZ-UHFFFAOYSA-N

>  <smiles>  (3019) 
COC(=O)c1cc(C2CC2)ncc1N(N)C(C)C1CC1

>  <ref_pdb>  (3019) 
A0528a

>  <alias>  (3019) 
CIEDROUCRORRHZ-UHFFFAOYSA-N-P15-P15-P308-601501

>  <HIPPO Pose ID>  (3019) 
501730

>  <name>  (3019) 
CIEDROUCRORRHZ-UHFFFAOYSA-N-P15-P15-P308-601501

>  <HIPPO Compound ID>  (3019) 
292579

>  <ref_mols>  (3019) 
A4331a,A0514a

>  <distance_score>  (3019) 
1.329573

>  <inspiration_score>  (3019) 
None

$$$$
CIEDROUCRORRHZ-UHFFFAOYSA-N-P308-P15-P308-601501
     RDKit          3D

 20 22  0  0  0  0  0  0  0  0999 V2000
    9.3516    8.5461   23.0491 C   0  0  0  0  0  0  0  0  0  0  0  0
    8.4819    9.4141   23.7654 O   0  0  0  0  0  0  0  0  0  0  0  0
    9.1357   10.3601   24.4745 C   0  0  0  0  0  0  0  0  0  0  0  0
   10.3417   10.4441   24.6552 O   0  0  0  0  0  0  0  0  0  0  0  0
    8.1296   11.2948   25.0145 C   0  0  0  0  0  0  0  0  0  0  0  0
    7.0165   10.7761   25.6868 C   0  0  0  0  0  0  0  0  0  0  0  0
    6.1507   11.6541   26.3226 C   0  0  0  0  0  0  0  0  0  0  0  0
    5.0157   11.1975   27.1979 C   0  0  0  0  0  0  0  0  0  0  0  0
    3.8169   12.0972   27.4140 C   0  0  0  0  0  0  0  0  0  0  0  0
    4.8149   11.9281   28.5146 C   0  0  0  0  0  0  0  0  0  0  0  0
    6.3660   12.9863   26.2771 N   0  0  0  0  0  0  0  0  0  0  0  0
    7.4076   13.4596   25.5770 C   0  0  0  0  0  0  0  0  0  0  0  0
    8.3140   12.6743   24.8862 C   0  0  0  0  0  0  0  0  0  0  0  0
    9.3207   13.2286   24.0753 N   0  0  0  0  0  0  0  0  0  0  0  0
   10.5981   13.2463   24.7281 N   0  0  0  0  0  0  0  0  0  0  0  0
    8.9282   14.4244   23.2644 C   0  0  2  0  0  0  0  0  0  0  0  0
    7.6300   14.1850   22.4782 C   0  0  0  0  0  0  0  0  0  0  0  0
   10.0298   14.7169   22.2690 C   0  0  0  0  0  0  0  0  0  0  0  0
   10.0753   16.0384   21.5442 C   0  0  0  0  0  0  0  0  0  0  0  0
   11.1068   15.7237   22.5918 C   0  0  0  0  0  0  0  0  0  0  0  0
  1  2  1  0
  2  3  1  0
  3  4  2  0
  3  5  1  0
  5  6  2  0
  6  7  1  0
  7  8  1  0
  8  9  1  0
  9 10  1  0
  7 11  2  0
 11 12  1  0
 12 13  2  0
 13 14  1  0
 14 15  1  0
 14 16  1  0
 16 17  1  6
 16 18  1  0
 18 19  1  0
 19 20  1  0
 13  5  1  0
 20 18  1  0
 10  8  1  0
M  END
>  <energy_score>  (3020) 
-41.755023

>  <inchikey>  (3020) 
CIEDROUCRORRHZ-UHFFFAOYSA-N

>  <smiles>  (3020) 
COC(=O)c1cc(C2CC2)ncc1N(N)C(C)C1CC1

>  <ref_pdb>  (3020) 
A0528a

>  <alias>  (3020) 
CIEDROUCRORRHZ-UHFFFAOYSA-N-P308-P15-P308-601501

>  <HIPPO Pose ID>  (3020) 
501731

>  <name>  (3020) 
CIEDROUCRORRHZ-UHFFFAOYSA-N-P308-P15-P308-601501

>  <HIPPO Compound ID>  (3020) 
292579

>  <ref_mols>  (3020) 
A4331a,A0514a

>  <distance_score>  (3020) 
1.298418

>  <inspiration_score>  (3020) 
None

$$$$
DVTDEJLJACCKQK-UHFFFAOYSA-N-P15-P15-P308-601501
     RDKit          3D

 20 21  0  0  0  0  0  0  0  0999 V2000
   12.2695   15.2172   21.1720 C   0  0  0  0  0  0  0  0  0  0  0  0
   10.9827   15.1336   20.3599 C   0  0  0  0  0  0  0  0  0  0  0  0
    9.7113   15.0558   21.2034 C   0  0  0  0  0  0  0  0  0  0  0  0
    9.9291   14.1569   22.4009 C   0  0  0  0  0  0  0  0  0  0  0  0
    8.6914   13.8740   23.2232 C   0  0  0  0  0  0  0  0  0  0  0  0
    9.0691   12.9134   24.2881 N   0  0  0  0  0  0  0  0  0  0  0  0
   10.2093   13.2119   25.0865 N   0  0  0  0  0  0  0  0  0  0  0  0
    7.9570   12.4979   25.0365 C   0  0  0  0  0  0  0  0  0  0  0  0
    7.2538   13.4153   25.8066 C   0  0  0  0  0  0  0  0  0  0  0  0
    6.2278   13.1157   26.6147 N   0  0  0  0  0  0  0  0  0  0  0  0
    5.8075   11.8363   26.6766 C   0  0  0  0  0  0  0  0  0  0  0  0
    4.6625   11.5322   27.5929 C   0  0  0  0  0  0  0  0  0  0  0  0
    4.5377   12.2800   28.8975 C   0  0  0  0  0  0  0  0  0  0  0  0
    3.5901   12.5841   27.7768 C   0  0  0  0  0  0  0  0  0  0  0  0
    6.4301   10.8507   25.9361 C   0  0  0  0  0  0  0  0  0  0  0  0
    7.5216   11.1749   25.1175 C   0  0  0  0  0  0  0  0  0  0  0  0
    8.1345   10.0119   24.4489 C   0  0  0  0  0  0  0  0  0  0  0  0
    7.7757    8.8857   24.7620 O   0  0  0  0  0  0  0  0  0  0  0  0
    9.0555   10.2973   23.5091 O   0  0  0  0  0  0  0  0  0  0  0  0
    9.6520    9.1246   22.9534 C   0  0  0  0  0  0  0  0  0  0  0  0
  1  2  1  0
  2  3  1  0
  3  4  1  0
  4  5  1  0
  5  6  1  0
  6  7  1  0
  6  8  1  0
  8  9  2  0
  9 10  1  0
 10 11  2  0
 11 12  1  0
 12 13  1  0
 13 14  1  0
 11 15  1  0
 15 16  2  0
 16 17  1  0
 17 18  2  0
 17 19  1  0
 19 20  1  0
 16  8  1  0
 14 12  1  0
M  END
>  <energy_score>  (3021) 
-32.28613

>  <inchikey>  (3021) 
DVTDEJLJACCKQK-UHFFFAOYSA-N

>  <smiles>  (3021) 
CCCCCN(N)c1cnc(C2CC2)cc1C(=O)OC

>  <ref_pdb>  (3021) 
A0528a

>  <alias>  (3021) 
DVTDEJLJACCKQK-UHFFFAOYSA-N-P15-P15-P308-601501

>  <HIPPO Pose ID>  (3021) 
501732

>  <name>  (3021) 
DVTDEJLJACCKQK-UHFFFAOYSA-N-P15-P15-P308-601501

>  <HIPPO Compound ID>  (3021) 
292580

>  <ref_mols>  (3021) 
A4331a,A0514a

>  <distance_score>  (3021) 
1.619777

>  <inspiration_score>  (3021) 
None

$$$$
DVTDEJLJACCKQK-UHFFFAOYSA-N-P308-P15-P308-601501
     RDKit          3D

 20 21  0  0  0  0  0  0  0  0999 V2000
   12.1140   16.1060   21.4164 C   0  0  0  0  0  0  0  0  0  0  0  0
   10.9850   15.5297   20.5744 C   0  0  0  0  0  0  0  0  0  0  0  0
    9.7453   15.1953   21.4030 C   0  0  0  0  0  0  0  0  0  0  0  0
   10.0769   14.2041   22.5102 C   0  0  0  0  0  0  0  0  0  0  0  0
    8.8599   13.8183   23.3298 C   0  0  0  0  0  0  0  0  0  0  0  0
    9.2307   12.7985   24.3550 N   0  0  0  0  0  0  0  0  0  0  0  0
   10.2811   13.1609   25.2583 N   0  0  0  0  0  0  0  0  0  0  0  0
    8.0615   12.3882   25.0417 C   0  0  0  0  0  0  0  0  0  0  0  0
    7.3361   13.3165   25.7825 C   0  0  0  0  0  0  0  0  0  0  0  0
    6.2461   13.0382   26.5106 N   0  0  0  0  0  0  0  0  0  0  0  0
    5.7913   11.7708   26.5325 C   0  0  0  0  0  0  0  0  0  0  0  0
    4.6055   11.4877   27.4036 C   0  0  0  0  0  0  0  0  0  0  0  0
    4.4689   12.2120   28.7220 C   0  0  0  0  0  0  0  0  0  0  0  0
    3.5643   12.5712   27.5823 C   0  0  0  0  0  0  0  0  0  0  0  0
    6.4369   10.7744   25.8232 C   0  0  0  0  0  0  0  0  0  0  0  0
    7.5919   11.0731   25.0868 C   0  0  0  0  0  0  0  0  0  0  0  0
    8.2254    9.8936   24.4631 C   0  0  0  0  0  0  0  0  0  0  0  0
    7.8980    8.7618   24.7955 O   0  0  0  0  0  0  0  0  0  0  0  0
    9.1048   10.1925   23.4883 O   0  0  0  0  0  0  0  0  0  0  0  0
    9.6725    9.0326   22.8858 C   0  0  0  0  0  0  0  0  0  0  0  0
  1  2  1  0
  2  3  1  0
  3  4  1  0
  4  5  1  0
  5  6  1  0
  6  7  1  0
  6  8  1  0
  8  9  2  0
  9 10  1  0
 10 11  2  0
 11 12  1  0
 12 13  1  0
 13 14  1  0
 11 15  1  0
 15 16  2  0
 16 17  1  0
 17 18  2  0
 17 19  1  0
 19 20  1  0
 16  8  1  0
 14 12  1  0
M  END
>  <energy_score>  (3022) 
-38.665133

>  <inchikey>  (3022) 
DVTDEJLJACCKQK-UHFFFAOYSA-N

>  <smiles>  (3022) 
CCCCCN(N)c1cnc(C2CC2)cc1C(=O)OC

>  <ref_pdb>  (3022) 
A0528a

>  <alias>  (3022) 
DVTDEJLJACCKQK-UHFFFAOYSA-N-P308-P15-P308-601501

>  <HIPPO Pose ID>  (3022) 
501733

>  <name>  (3022) 
DVTDEJLJACCKQK-UHFFFAOYSA-N-P308-P15-P308-601501

>  <HIPPO Compound ID>  (3022) 
292580

>  <ref_mols>  (3022) 
A4331a,A0514a

>  <distance_score>  (3022) 
1.562054

>  <inspiration_score>  (3022) 
None

$$$$
GESMEQKVEPIWDQ-UHFFFAOYSA-N-P15-P15-P308-601501
     RDKit          3D

 20 22  0  0  0  0  0  0  0  0999 V2000
    9.2733    8.5098   22.9252 C   0  0  0  0  0  0  0  0  0  0  0  0
    8.3375    9.3306   23.6227 O   0  0  0  0  0  0  0  0  0  0  0  0
    8.8427   10.5446   23.9219 C   0  0  0  0  0  0  0  0  0  0  0  0
    9.9906   10.9048   23.7407 O   0  0  0  0  0  0  0  0  0  0  0  0
    7.8300   11.3756   24.5905 C   0  0  0  0  0  0  0  0  0  0  0  0
    7.0777   10.7456   25.5955 C   0  0  0  0  0  0  0  0  0  0  0  0
    6.2053   11.4914   26.3702 C   0  0  0  0  0  0  0  0  0  0  0  0
    5.3752   10.8913   27.4663 C   0  0  0  0  0  0  0  0  0  0  0  0
    5.4856   11.4632   28.8602 C   0  0  0  0  0  0  0  0  0  0  0  0
    4.2445   11.7101   28.0617 C   0  0  0  0  0  0  0  0  0  0  0  0
    6.1030   12.8195   26.1923 N   0  0  0  0  0  0  0  0  0  0  0  0
    6.7422   13.3753   25.1477 C   0  0  0  0  0  0  0  0  0  0  0  0
    7.6114   12.7222   24.2761 C   0  0  0  0  0  0  0  0  0  0  0  0
    8.0437   13.4020   23.1281 N   0  0  0  0  0  0  0  0  0  0  0  0
    7.0657   14.2266   22.5052 N   0  0  0  0  0  0  0  0  0  0  0  0
    9.4659   13.5013   22.7501 C   0  0  1  0  0  0  0  0  0  0  0  0
    9.7071   14.5618   21.6760 C   0  0  0  0  0  0  0  0  0  0  0  0
   11.2014   14.7326   21.5081 C   0  0  0  0  0  0  0  0  0  0  0  0
   11.8985   14.3838   23.1398 S   0  0  0  0  0  0  0  0  0  0  0  0
   10.3535   13.8796   23.9145 C   0  0  0  0  0  0  0  0  0  0  0  0
  1  2  1  0
  2  3  1  0
  3  4  2  0
  3  5  1  0
  5  6  2  0
  6  7  1  0
  7  8  1  0
  8  9  1  0
  9 10  1  0
  7 11  2  0
 11 12  1  0
 12 13  2  0
 13 14  1  0
 14 15  1  0
 16 14  1  1
 16 17  1  0
 17 18  1  0
 18 19  1  0
 19 20  1  0
 13  5  1  0
 20 16  1  0
 10  8  1  0
M  END
>  <energy_score>  (3023) 
-26.068166

>  <inchikey>  (3023) 
GESMEQKVEPIWDQ-UHFFFAOYSA-N

>  <smiles>  (3023) 
COC(=O)c1cc(C2CC2)ncc1N(N)C1CCSC1

>  <ref_pdb>  (3023) 
A0528a

>  <alias>  (3023) 
GESMEQKVEPIWDQ-UHFFFAOYSA-N-P15-P15-P308-601501

>  <HIPPO Pose ID>  (3023) 
501734

>  <name>  (3023) 
GESMEQKVEPIWDQ-UHFFFAOYSA-N-P15-P15-P308-601501

>  <HIPPO Compound ID>  (3023) 
292581

>  <ref_mols>  (3023) 
A4331a,A0514a

>  <distance_score>  (3023) 
1.919769

>  <inspiration_score>  (3023) 
None

$$$$
GESMEQKVEPIWDQ-UHFFFAOYSA-N-P308-P15-P308-601501
     RDKit          3D

 20 22  0  0  0  0  0  0  0  0999 V2000
    9.3964    8.7465   23.2311 C   0  0  0  0  0  0  0  0  0  0  0  0
    8.3964    9.5541   23.8503 O   0  0  0  0  0  0  0  0  0  0  0  0
    8.8509   10.7699   24.2312 C   0  0  0  0  0  0  0  0  0  0  0  0
    9.9988   11.1761   24.1725 O   0  0  0  0  0  0  0  0  0  0  0  0
    7.7343   11.5456   24.7966 C   0  0  0  0  0  0  0  0  0  0  0  0
    6.9226   10.9299   25.7536 C   0  0  0  0  0  0  0  0  0  0  0  0
    5.9586   11.6834   26.4071 C   0  0  0  0  0  0  0  0  0  0  0  0
    5.0165   11.1060   27.4247 C   0  0  0  0  0  0  0  0  0  0  0  0
    4.9219   11.7605   28.7859 C   0  0  0  0  0  0  0  0  0  0  0  0
    3.7892   11.9054   27.8221 C   0  0  0  0  0  0  0  0  0  0  0  0
    5.8470   13.0069   26.1766 N   0  0  0  0  0  0  0  0  0  0  0  0
    6.5642   13.5502   25.1827 C   0  0  0  0  0  0  0  0  0  0  0  0
    7.4861   12.8636   24.4090 C   0  0  0  0  0  0  0  0  0  0  0  0
    7.9501   13.4186   23.2004 N   0  0  0  0  0  0  0  0  0  0  0  0
    6.9583   14.1422   22.4676 N   0  0  0  0  0  0  0  0  0  0  0  0
    9.3058   14.0114   23.2813 C   0  0  1  0  0  0  0  0  0  0  0  0
   10.0366   13.6746   21.9935 C   0  0  0  0  0  0  0  0  0  0  0  0
   11.3347   14.4452   21.9686 C   0  0  0  0  0  0  0  0  0  0  0  0
   10.9462   16.0273   22.7375 S   0  0  0  0  0  0  0  0  0  0  0  0
    9.3229   15.5342   23.3791 C   0  0  0  0  0  0  0  0  0  0  0  0
  1  2  1  0
  2  3  1  0
  3  4  2  0
  3  5  1  0
  5  6  2  0
  6  7  1  0
  7  8  1  0
  8  9  1  0
  9 10  1  0
  7 11  2  0
 11 12  1  0
 12 13  2  0
 13 14  1  0
 14 15  1  0
 16 14  1  6
 16 17  1  0
 17 18  1  0
 18 19  1  0
 19 20  1  0
 13  5  1  0
 20 16  1  0
 10  8  1  0
M  END
>  <energy_score>  (3024) 
-33.745034

>  <inchikey>  (3024) 
GESMEQKVEPIWDQ-UHFFFAOYSA-N

>  <smiles>  (3024) 
COC(=O)c1cc(C2CC2)ncc1N(N)C1CCSC1

>  <ref_pdb>  (3024) 
A0528a

>  <alias>  (3024) 
GESMEQKVEPIWDQ-UHFFFAOYSA-N-P308-P15-P308-601501

>  <HIPPO Pose ID>  (3024) 
501735

>  <name>  (3024) 
GESMEQKVEPIWDQ-UHFFFAOYSA-N-P308-P15-P308-601501

>  <HIPPO Compound ID>  (3024) 
292581

>  <ref_mols>  (3024) 
A4331a,A0514a

>  <distance_score>  (3024) 
1.847264

>  <inspiration_score>  (3024) 
None

$$$$
WEFYFGPLRBXMOK-UHFFFAOYSA-N-P15-P15-P308-601501
     RDKit          3D

 20 22  0  0  0  0  0  0  0  0999 V2000
    9.3717    8.5706   22.9338 C   0  0  0  0  0  0  0  0  0  0  0  0
    8.5415    9.4192   23.7225 O   0  0  0  0  0  0  0  0  0  0  0  0
    9.0741   10.6450   23.9243 C   0  0  0  0  0  0  0  0  0  0  0  0
   10.1769   11.0026   23.5469 O   0  0  0  0  0  0  0  0  0  0  0  0
    8.1654   11.4842   24.7405 C   0  0  0  0  0  0  0  0  0  0  0  0
    7.1271   10.8723   25.4649 C   0  0  0  0  0  0  0  0  0  0  0  0
    6.3188   11.6478   26.2854 C   0  0  0  0  0  0  0  0  0  0  0  0
    5.3067   11.0544   27.2257 C   0  0  0  0  0  0  0  0  0  0  0  0
    4.1032   11.8675   27.6540 C   0  0  0  0  0  0  0  0  0  0  0  0
    5.2234   11.6448   28.6207 C   0  0  0  0  0  0  0  0  0  0  0  0
    6.4821   12.9867   26.3453 N   0  0  0  0  0  0  0  0  0  0  0  0
    7.4414   13.5621   25.6051 C   0  0  0  0  0  0  0  0  0  0  0  0
    8.3607   12.8688   24.8340 C   0  0  0  0  0  0  0  0  0  0  0  0
    9.3699   13.6366   24.2107 N   0  0  0  0  0  0  0  0  0  0  0  0
   10.7283   13.3879   24.5223 N   0  0  0  0  0  0  0  0  0  0  0  0
    9.1869   14.0192   22.9173 C   0  0  0  0  0  0  0  0  0  0  0  0
    8.1161   13.9243   22.1565 N   0  0  0  0  0  0  0  0  0  0  0  0
    8.3845   14.5897   20.9850 N   0  0  0  0  0  0  0  0  0  0  0  0
    9.6063   15.0607   21.0481 C   0  0  0  0  0  0  0  0  0  0  0  0
   10.1697   14.6628   22.2117 N   0  0  0  0  0  0  0  0  0  0  0  0
  1  2  1  0
  2  3  1  0
  3  4  2  0
  3  5  1  0
  5  6  2  0
  6  7  1  0
  7  8  1  0
  8  9  1  0
  9 10  1  0
  7 11  2  0
 11 12  1  0
 12 13  2  0
 13 14  1  0
 14 15  1  0
 14 16  1  0
 16 17  2  0
 17 18  1  0
 18 19  2  0
 19 20  1  0
 13  5  1  0
 20 16  1  0
 10  8  1  0
M  END
>  <energy_score>  (3025) 
-39.969493

>  <inchikey>  (3025) 
WEFYFGPLRBXMOK-UHFFFAOYSA-N

>  <smiles>  (3025) 
COC(=O)c1cc(C2CC2)ncc1N(N)c1nnc[nH]1

>  <ref_pdb>  (3025) 
A0528a

>  <alias>  (3025) 
WEFYFGPLRBXMOK-UHFFFAOYSA-N-P15-P15-P308-601501

>  <HIPPO Pose ID>  (3025) 
501736

>  <name>  (3025) 
WEFYFGPLRBXMOK-UHFFFAOYSA-N-P15-P15-P308-601501

>  <HIPPO Compound ID>  (3025) 
292582

>  <ref_mols>  (3025) 
A4331a,A0514a

>  <distance_score>  (3025) 
1.420258

>  <inspiration_score>  (3025) 
None

$$$$
WEFYFGPLRBXMOK-UHFFFAOYSA-N-P308-P15-P308-601501
     RDKit          3D

 20 22  0  0  0  0  0  0  0  0999 V2000
    9.4600    8.5297   23.0799 C   0  0  0  0  0  0  0  0  0  0  0  0
    8.6038    9.3785   23.8286 O   0  0  0  0  0  0  0  0  0  0  0  0
    9.2582   10.3384   24.5146 C   0  0  0  0  0  0  0  0  0  0  0  0
   10.4617   10.4452   24.6966 O   0  0  0  0  0  0  0  0  0  0  0  0
    8.2488   11.3021   24.9774 C   0  0  0  0  0  0  0  0  0  0  0  0
    7.1182   10.8352   25.6555 C   0  0  0  0  0  0  0  0  0  0  0  0
    6.2088   11.7577   26.1494 C   0  0  0  0  0  0  0  0  0  0  0  0
    5.0938   11.3722   27.0829 C   0  0  0  0  0  0  0  0  0  0  0  0
    3.9028   12.2844   27.2750 C   0  0  0  0  0  0  0  0  0  0  0  0
    4.9389   12.1945   28.3505 C   0  0  0  0  0  0  0  0  0  0  0  0
    6.3641   13.0761   25.8952 N   0  0  0  0  0  0  0  0  0  0  0  0
    7.4098   13.4896   25.1589 C   0  0  0  0  0  0  0  0  0  0  0  0
    8.4212   12.6592   24.7114 C   0  0  0  0  0  0  0  0  0  0  0  0
    9.5141   13.1748   23.9947 N   0  0  0  0  0  0  0  0  0  0  0  0
   10.7725   13.2599   24.6269 N   0  0  0  0  0  0  0  0  0  0  0  0
    9.3591   13.9302   22.8781 C   0  0  0  0  0  0  0  0  0  0  0  0
    8.2928   14.1057   22.1230 N   0  0  0  0  0  0  0  0  0  0  0  0
    8.6510   14.9154   21.0664 N   0  0  0  0  0  0  0  0  0  0  0  0
    9.9190   15.2163   21.2022 C   0  0  0  0  0  0  0  0  0  0  0  0
   10.4025   14.6135   22.3157 N   0  0  0  0  0  0  0  0  0  0  0  0
  1  2  1  0
  2  3  1  0
  3  4  2  0
  3  5  1  0
  5  6  2  0
  6  7  1  0
  7  8  1  0
  8  9  1  0
  9 10  1  0
  7 11  2  0
 11 12  1  0
 12 13  2  0
 13 14  1  0
 14 15  1  0
 14 16  1  0
 16 17  2  0
 17 18  1  0
 18 19  2  0
 19 20  1  0
 13  5  1  0
 20 16  1  0
 10  8  1  0
M  END
>  <energy_score>  (3026) 
-41.528273

>  <inchikey>  (3026) 
WEFYFGPLRBXMOK-UHFFFAOYSA-N

>  <smiles>  (3026) 
COC(=O)c1cc(C2CC2)ncc1N(N)c1nnc[nH]1

>  <ref_pdb>  (3026) 
A0528a

>  <alias>  (3026) 
WEFYFGPLRBXMOK-UHFFFAOYSA-N-P308-P15-P308-601501

>  <HIPPO Pose ID>  (3026) 
501737

>  <name>  (3026) 
WEFYFGPLRBXMOK-UHFFFAOYSA-N-P308-P15-P308-601501

>  <HIPPO Compound ID>  (3026) 
292582

>  <ref_mols>  (3026) 
A4331a,A0514a

>  <distance_score>  (3026) 
1.341445

>  <inspiration_score>  (3026) 
None

$$$$
AWNWICCAHWESBQ-UHFFFAOYSA-N-P15-P15-P308-601501
     RDKit          3D

 20 21  0  0  0  0  0  0  0  0999 V2000
    9.2683    8.4819   22.9078 C   0  0  0  0  0  0  0  0  0  0  0  0
    8.3439    9.2976   23.6231 O   0  0  0  0  0  0  0  0  0  0  0  0
    8.8685   10.4941   23.9520 C   0  0  0  0  0  0  0  0  0  0  0  0
   10.0255   10.8396   23.7912 O   0  0  0  0  0  0  0  0  0  0  0  0
    7.8702   11.3290   24.6291 C   0  0  0  0  0  0  0  0  0  0  0  0
    7.0892   10.7158   25.6189 C   0  0  0  0  0  0  0  0  0  0  0  0
    6.2611   11.4927   26.4130 C   0  0  0  0  0  0  0  0  0  0  0  0
    5.3703   10.9115   27.4712 C   0  0  0  0  0  0  0  0  0  0  0  0
    5.4222   11.4837   28.8679 C   0  0  0  0  0  0  0  0  0  0  0  0
    4.2287   11.7558   28.0068 C   0  0  0  0  0  0  0  0  0  0  0  0
    6.2572   12.8332   26.2867 N   0  0  0  0  0  0  0  0  0  0  0  0
    6.9218   13.3792   25.2577 C   0  0  0  0  0  0  0  0  0  0  0  0
    7.7034   12.6835   24.3413 C   0  0  0  0  0  0  0  0  0  0  0  0
    8.0134   13.3340   23.1532 N   0  0  0  0  0  0  0  0  0  0  0  0
    6.8955   13.7602   22.3689 N   0  0  0  0  0  0  0  0  0  0  0  0
    9.3124   13.3622   22.4830 C   0  0  0  0  0  0  0  0  0  0  0  0
   10.2186   14.4256   23.0346 C   0  0  2  0  0  0  0  0  0  0  0  0
   10.9064   15.1193   21.8525 C   0  0  0  0  0  0  0  0  0  0  0  0
   11.2101   13.9139   24.0656 C   0  0  0  0  0  0  0  0  0  0  0  0
   12.3797   13.3878   23.4675 O   0  0  0  0  0  0  0  0  0  0  0  0
  1  2  1  0
  2  3  1  0
  3  4  2  0
  3  5  1  0
  5  6  2  0
  6  7  1  0
  7  8  1  0
  8  9  1  0
  9 10  1  0
  7 11  2  0
 11 12  1  0
 12 13  2  0
 13 14  1  0
 14 15  1  0
 14 16  1  0
 16 17  1  0
 17 18  1  6
 17 19  1  0
 19 20  1  0
 13  5  1  0
 10  8  1  0
M  END
>  <energy_score>  (3027) 
-13.768225

>  <inchikey>  (3027) 
AWNWICCAHWESBQ-UHFFFAOYSA-N

>  <smiles>  (3027) 
COC(=O)c1cc(C2CC2)ncc1N(N)CC(C)CO

>  <ref_pdb>  (3027) 
A0528a

>  <alias>  (3027) 
AWNWICCAHWESBQ-UHFFFAOYSA-N-P15-P15-P308-601501

>  <HIPPO Pose ID>  (3027) 
501738

>  <name>  (3027) 
AWNWICCAHWESBQ-UHFFFAOYSA-N-P15-P15-P308-601501

>  <HIPPO Compound ID>  (3027) 
292583

>  <ref_mols>  (3027) 
A4331a,A0514a

>  <distance_score>  (3027) 
1.923625

>  <inspiration_score>  (3027) 
None

$$$$
AWNWICCAHWESBQ-UHFFFAOYSA-N-P308-P15-P308-601501
     RDKit          3D

 20 21  0  0  0  0  0  0  0  0999 V2000
    9.1209    8.6410   23.2834 C   0  0  0  0  0  0  0  0  0  0  0  0
    8.1684    9.4385   23.9876 O   0  0  0  0  0  0  0  0  0  0  0  0
    8.7173   10.5627   24.4966 C   0  0  0  0  0  0  0  0  0  0  0  0
    9.9093   10.8109   24.5868 O   0  0  0  0  0  0  0  0  0  0  0  0
    7.6603   11.4801   24.9511 C   0  0  0  0  0  0  0  0  0  0  0  0
    6.6889   11.0495   25.8583 C   0  0  0  0  0  0  0  0  0  0  0  0
    5.8188   11.9963   26.3852 C   0  0  0  0  0  0  0  0  0  0  0  0
    4.6257   11.7215   27.2380 C   0  0  0  0  0  0  0  0  0  0  0  0
    4.5072   10.7190   28.3370 C   0  0  0  0  0  0  0  0  0  0  0  0
    4.7267   12.1632   28.6819 C   0  0  0  0  0  0  0  0  0  0  0  0
    5.9664   13.3101   26.1128 N   0  0  0  0  0  0  0  0  0  0  0  0
    6.8216   13.6722   25.1517 C   0  0  0  0  0  0  0  0  0  0  0  0
    7.6354   12.7897   24.4695 C   0  0  0  0  0  0  0  0  0  0  0  0
    8.1661   13.1491   23.2258 N   0  0  0  0  0  0  0  0  0  0  0  0
    7.2263   13.6078   22.2539 N   0  0  0  0  0  0  0  0  0  0  0  0
    9.5817   13.5508   23.1881 C   0  0  0  0  0  0  0  0  0  0  0  0
    9.7658   15.0534   22.9152 C   0  0  2  0  0  0  0  0  0  0  0  0
    9.8985   15.3375   21.4138 C   0  0  0  0  0  0  0  0  0  0  0  0
   10.9948   15.5755   23.6601 C   0  0  0  0  0  0  0  0  0  0  0  0
   12.1687   14.8474   23.3364 O   0  0  0  0  0  0  0  0  0  0  0  0
  1  2  1  0
  2  3  1  0
  3  4  2  0
  3  5  1  0
  5  6  2  0
  6  7  1  0
  7  8  1  0
  8  9  1  0
  9 10  1  0
  7 11  2  0
 11 12  1  0
 12 13  2  0
 13 14  1  0
 14 15  1  0
 14 16  1  0
 16 17  1  0
 17 18  1  6
 17 19  1  0
 19 20  1  0
 13  5  1  0
 10  8  1  0
M  END
>  <energy_score>  (3028) 
-16.771187

>  <inchikey>  (3028) 
AWNWICCAHWESBQ-UHFFFAOYSA-N

>  <smiles>  (3028) 
COC(=O)c1cc(C2CC2)ncc1N(N)CC(C)CO

>  <ref_pdb>  (3028) 
A0528a

>  <alias>  (3028) 
AWNWICCAHWESBQ-UHFFFAOYSA-N-P308-P15-P308-601501

>  <HIPPO Pose ID>  (3028) 
501739

>  <name>  (3028) 
AWNWICCAHWESBQ-UHFFFAOYSA-N-P308-P15-P308-601501

>  <HIPPO Compound ID>  (3028) 
292583

>  <ref_mols>  (3028) 
A4331a,A0514a

>  <distance_score>  (3028) 
1.692317

>  <inspiration_score>  (3028) 
None

$$$$
AIZOPMSHDDVJDT-UHFFFAOYSA-N-P15-P15-P308-601501
     RDKit          3D

 20 21  0  0  0  0  0  0  0  0999 V2000
   11.8660   15.2739   21.4560 C   0  0  0  0  0  0  0  0  0  0  0  0
   11.2819   14.5052   22.6115 C   0  0  0  0  0  0  0  0  0  0  0  0
    9.7560   14.3108   22.5815 C   0  0  1  0  0  0  0  0  0  0  0  0
    9.1893   14.5586   21.2996 O   0  0  0  0  0  0  0  0  0  0  0  0
    9.3822   12.9081   23.0500 C   0  0  0  0  0  0  0  0  0  0  0  0
    9.4752   12.7223   24.5067 N   0  0  0  0  0  0  0  0  0  0  0  0
   10.4617   13.3596   25.2802 N   0  0  0  0  0  0  0  0  0  0  0  0
    8.2440   12.4407   25.1152 C   0  0  0  0  0  0  0  0  0  0  0  0
    7.5806   13.4347   25.8200 C   0  0  0  0  0  0  0  0  0  0  0  0
    6.4711   13.2538   26.5521 N   0  0  0  0  0  0  0  0  0  0  0  0
    5.9170   12.0255   26.5959 C   0  0  0  0  0  0  0  0  0  0  0  0
    4.7255   11.8321   27.4848 C   0  0  0  0  0  0  0  0  0  0  0  0
    3.5113   12.7050   27.2881 C   0  0  0  0  0  0  0  0  0  0  0  0
    4.3777   12.9076   28.4933 C   0  0  0  0  0  0  0  0  0  0  0  0
    6.4599   10.9825   25.8718 C   0  0  0  0  0  0  0  0  0  0  0  0
    7.6297   11.1833   25.1234 C   0  0  0  0  0  0  0  0  0  0  0  0
    8.1463    9.9511   24.4938 C   0  0  0  0  0  0  0  0  0  0  0  0
    7.6685    8.8708   24.8022 O   0  0  0  0  0  0  0  0  0  0  0  0
    9.1184   10.1447   23.5877 O   0  0  0  0  0  0  0  0  0  0  0  0
    9.6107    8.9434   22.9918 C   0  0  0  0  0  0  0  0  0  0  0  0
  1  2  1  0
  2  3  1  0
  3  4  1  6
  3  5  1  0
  5  6  1  0
  6  7  1  0
  6  8  1  0
  8  9  2  0
  9 10  1  0
 10 11  2  0
 11 12  1  0
 12 13  1  0
 13 14  1  0
 11 15  1  0
 15 16  2  0
 16 17  1  0
 17 18  2  0
 17 19  1  0
 19 20  1  0
 16  8  1  0
 14 12  1  0
M  END
>  <energy_score>  (3029) 
-35.385499

>  <inchikey>  (3029) 
AIZOPMSHDDVJDT-UHFFFAOYSA-N

>  <smiles>  (3029) 
CCC(O)CN(N)c1cnc(C2CC2)cc1C(=O)OC

>  <ref_pdb>  (3029) 
A0528a

>  <alias>  (3029) 
AIZOPMSHDDVJDT-UHFFFAOYSA-N-P15-P15-P308-601501

>  <HIPPO Pose ID>  (3029) 
501742

>  <name>  (3029) 
AIZOPMSHDDVJDT-UHFFFAOYSA-N-P15-P15-P308-601501

>  <HIPPO Compound ID>  (3029) 
292585

>  <ref_mols>  (3029) 
A4331a,A0514a

>  <distance_score>  (3029) 
1.537903

>  <inspiration_score>  (3029) 
None

$$$$
AIZOPMSHDDVJDT-UHFFFAOYSA-N-P308-P15-P308-601501
     RDKit          3D

 20 21  0  0  0  0  0  0  0  0999 V2000
   11.8395   15.0606   22.6092 C   0  0  0  0  0  0  0  0  0  0  0  0
   10.6542   15.4836   23.4617 C   0  0  0  0  0  0  0  0  0  0  0  0
    9.3073   14.9471   22.9654 C   0  0  1  0  0  0  0  0  0  0  0  0
    9.0842   15.3800   21.6198 O   0  0  0  0  0  0  0  0  0  0  0  0
    9.1845   13.4152   23.0100 C   0  0  0  0  0  0  0  0  0  0  0  0
    9.4220   12.8697   24.3693 N   0  0  0  0  0  0  0  0  0  0  0  0
   10.5799   12.0922   24.5918 N   0  0  0  0  0  0  0  0  0  0  0  0
    8.2343   12.4256   24.9823 C   0  0  0  0  0  0  0  0  0  0  0  0
    7.4780   13.3988   25.6261 C   0  0  0  0  0  0  0  0  0  0  0  0
    6.3621   13.1749   26.3366 N   0  0  0  0  0  0  0  0  0  0  0  0
    5.9056   11.9120   26.4399 C   0  0  0  0  0  0  0  0  0  0  0  0
    4.7250   11.6735   27.3342 C   0  0  0  0  0  0  0  0  0  0  0  0
    3.5368   12.5999   27.2614 C   0  0  0  0  0  0  0  0  0  0  0  0
    4.4502   12.6637   28.4479 C   0  0  0  0  0  0  0  0  0  0  0  0
    6.5512   10.8767   25.7908 C   0  0  0  0  0  0  0  0  0  0  0  0
    7.7273   11.1216   25.0631 C   0  0  0  0  0  0  0  0  0  0  0  0
    8.2871    9.8958   24.4524 C   0  0  0  0  0  0  0  0  0  0  0  0
    7.9408    8.7852   24.8299 O   0  0  0  0  0  0  0  0  0  0  0  0
    9.1106   10.1379   23.4120 O   0  0  0  0  0  0  0  0  0  0  0  0
    9.6134    8.9416   22.8187 C   0  0  0  0  0  0  0  0  0  0  0  0
  1  2  1  0
  2  3  1  0
  3  4  1  6
  3  5  1  0
  5  6  1  0
  6  7  1  0
  6  8  1  0
  8  9  2  0
  9 10  1  0
 10 11  2  0
 11 12  1  0
 12 13  1  0
 13 14  1  0
 11 15  1  0
 15 16  2  0
 16 17  1  0
 17 18  2  0
 17 19  1  0
 19 20  1  0
 16  8  1  0
 14 12  1  0
M  END
>  <energy_score>  (3030) 
-46.793747

>  <inchikey>  (3030) 
AIZOPMSHDDVJDT-UHFFFAOYSA-N

>  <smiles>  (3030) 
CCC(O)CN(N)c1cnc(C2CC2)cc1C(=O)OC

>  <ref_pdb>  (3030) 
A0528a

>  <alias>  (3030) 
AIZOPMSHDDVJDT-UHFFFAOYSA-N-P308-P15-P308-601501

>  <HIPPO Pose ID>  (3030) 
501743

>  <name>  (3030) 
AIZOPMSHDDVJDT-UHFFFAOYSA-N-P308-P15-P308-601501

>  <HIPPO Compound ID>  (3030) 
292585

>  <ref_mols>  (3030) 
A4331a,A0514a

>  <distance_score>  (3030) 
1.386078

>  <inspiration_score>  (3030) 
None

$$$$
JLQMZGFYWQHARH-UHFFFAOYSA-N-P308-P15-P308-601501
     RDKit          3D

 20 22  0  0  0  0  0  0  0  0999 V2000
    9.3087    8.5807   23.7580 C   0  0  0  0  0  0  0  0  0  0  0  0
    8.5163    9.4709   24.5380 O   0  0  0  0  0  0  0  0  0  0  0  0
    8.5589   10.7331   24.0569 C   0  0  0  0  0  0  0  0  0  0  0  0
    9.1018   11.0931   23.0267 O   0  0  0  0  0  0  0  0  0  0  0  0
    7.8217   11.6300   24.9627 C   0  0  0  0  0  0  0  0  0  0  0  0
    6.6285   11.2075   25.5583 C   0  0  0  0  0  0  0  0  0  0  0  0
    5.9168   12.1218   26.3235 C   0  0  0  0  0  0  0  0  0  0  0  0
    4.5871   11.8518   26.9407 C   0  0  0  0  0  0  0  0  0  0  0  0
    4.3529   10.8098   27.9931 C   0  0  0  0  0  0  0  0  0  0  0  0
    4.4202   12.2516   28.3937 C   0  0  0  0  0  0  0  0  0  0  0  0
    6.3679   13.3777   26.5325 N   0  0  0  0  0  0  0  0  0  0  0  0
    7.5232   13.7460   25.9673 C   0  0  0  0  0  0  0  0  0  0  0  0
    8.3002   12.9253   25.1704 C   0  0  0  0  0  0  0  0  0  0  0  0
    9.5006   13.4013   24.6008 N   0  0  0  0  0  0  0  0  0  0  0  0
   10.4080   13.9411   25.5543 N   0  0  0  0  0  0  0  0  0  0  0  0
    9.1777   14.1965   23.3870 C   0  0  0  0  0  0  0  0  0  0  0  0
   10.4115   14.4378   22.5370 C   0  0  0  0  0  0  0  0  0  0  0  0
   10.2153   15.4011   21.3371 C   0  0  0  0  0  0  0  0  0  0  0  0
   11.6486   15.9034   21.6114 C   0  0  0  0  0  0  0  0  0  0  0  0
   11.4506   15.4599   23.0672 C   0  0  0  0  0  0  0  0  0  0  0  0
  1  2  1  0
  2  3  1  0
  3  4  2  0
  3  5  1  0
  5  6  2  0
  6  7  1  0
  7  8  1  0
  8  9  1  0
  9 10  1  0
  7 11  2  0
 11 12  1  0
 12 13  2  0
 13 14  1  0
 14 15  1  0
 14 16  1  0
 16 17  1  0
 17 18  1  0
 18 19  1  0
 19 20  1  0
 13  5  1  0
 20 17  1  0
 10  8  1  0
M  END
>  <energy_score>  (3031) 
-29.688059

>  <inchikey>  (3031) 
JLQMZGFYWQHARH-UHFFFAOYSA-N

>  <smiles>  (3031) 
COC(=O)c1cc(C2CC2)ncc1N(N)CC1CCC1

>  <ref_pdb>  (3031) 
A0528a

>  <alias>  (3031) 
JLQMZGFYWQHARH-UHFFFAOYSA-N-P308-P15-P308-601501

>  <HIPPO Pose ID>  (3031) 
501747

>  <name>  (3031) 
JLQMZGFYWQHARH-UHFFFAOYSA-N-P308-P15-P308-601501

>  <HIPPO Compound ID>  (3031) 
292587

>  <ref_mols>  (3031) 
A4331a,A0514a

>  <distance_score>  (3031) 
1.510698

>  <inspiration_score>  (3031) 
None

$$$$
UBFYULYRQUHUBZ-UHFFFAOYSA-N-P15-P15-P308-601501
     RDKit          3D

 20 22  0  0  0  0  0  0  0  0999 V2000
    9.1747    8.3220   22.8354 C   0  0  0  0  0  0  0  0  0  0  0  0
    8.3796    9.1484   23.6792 O   0  0  0  0  0  0  0  0  0  0  0  0
    9.0240   10.2971   23.9767 C   0  0  0  0  0  0  0  0  0  0  0  0
   10.1601   10.5608   23.6219 O   0  0  0  0  0  0  0  0  0  0  0  0
    8.1492   11.1833   24.7845 C   0  0  0  0  0  0  0  0  0  0  0  0
    7.0613   10.6649   25.4993 C   0  0  0  0  0  0  0  0  0  0  0  0
    6.2998   11.5242   26.2819 C   0  0  0  0  0  0  0  0  0  0  0  0
    5.2397   11.0370   27.2317 C   0  0  0  0  0  0  0  0  0  0  0  0
    4.0739   11.9346   27.5918 C   0  0  0  0  0  0  0  0  0  0  0  0
    5.1619   11.7052   28.5926 C   0  0  0  0  0  0  0  0  0  0  0  0
    6.5523   12.8523   26.3025 N   0  0  0  0  0  0  0  0  0  0  0  0
    7.5818   13.3307   25.5885 C   0  0  0  0  0  0  0  0  0  0  0  0
    8.4449   12.5502   24.8398 C   0  0  0  0  0  0  0  0  0  0  0  0
    9.5519   13.0985   24.1901 N   0  0  0  0  0  0  0  0  0  0  0  0
   10.7816   12.9886   24.8941 N   0  0  0  0  0  0  0  0  0  0  0  0
    9.3580   14.2682   23.3492 C   0  0  0  0  0  0  0  0  0  0  0  0
    8.1627   14.2030   22.4270 C   0  0  0  0  0  0  0  0  0  0  0  0
    8.5311   15.1267   21.2825 C   0  0  0  0  0  0  0  0  0  0  0  0
   10.0388   15.2126   21.2062 C   0  0  0  0  0  0  0  0  0  0  0  0
   10.5447   14.4230   22.3910 C   0  0  0  0  0  0  0  0  0  0  0  0
  1  2  1  0
  2  3  1  0
  3  4  2  0
  3  5  1  0
  5  6  2  0
  6  7  1  0
  7  8  1  0
  8  9  1  0
  9 10  1  0
  7 11  2  0
 11 12  1  0
 12 13  2  0
 13 14  1  0
 14 15  1  0
 14 16  1  0
 16 17  1  0
 17 18  1  0
 18 19  1  0
 19 20  1  0
 13  5  1  0
 20 16  1  0
 10  8  1  0
M  END
>  <energy_score>  (3032) 
-26.834408

>  <inchikey>  (3032) 
UBFYULYRQUHUBZ-UHFFFAOYSA-N

>  <smiles>  (3032) 
COC(=O)c1cc(C2CC2)ncc1N(N)C1CCCC1

>  <ref_pdb>  (3032) 
A0528a

>  <alias>  (3032) 
UBFYULYRQUHUBZ-UHFFFAOYSA-N-P15-P15-P308-601501

>  <HIPPO Pose ID>  (3032) 
501748

>  <name>  (3032) 
UBFYULYRQUHUBZ-UHFFFAOYSA-N-P15-P15-P308-601501

>  <HIPPO Compound ID>  (3032) 
292588

>  <ref_mols>  (3032) 
A4331a,A0514a

>  <distance_score>  (3032) 
1.767248

>  <inspiration_score>  (3032) 
None

$$$$
UBFYULYRQUHUBZ-UHFFFAOYSA-N-P308-P15-P308-601501
     RDKit          3D

 20 22  0  0  0  0  0  0  0  0999 V2000
    9.2592    8.6074   23.1337 C   0  0  0  0  0  0  0  0  0  0  0  0
    8.4743    9.5745   23.8261 O   0  0  0  0  0  0  0  0  0  0  0  0
    9.2154   10.4578   24.5334 C   0  0  0  0  0  0  0  0  0  0  0  0
   10.4227   10.4159   24.7220 O   0  0  0  0  0  0  0  0  0  0  0  0
    8.3054   11.5067   25.0417 C   0  0  0  0  0  0  0  0  0  0  0  0
    7.1884   11.1135   25.7933 C   0  0  0  0  0  0  0  0  0  0  0  0
    6.4103   12.0980   26.3887 C   0  0  0  0  0  0  0  0  0  0  0  0
    5.4347   11.8703   27.4974 C   0  0  0  0  0  0  0  0  0  0  0  0
    4.4666   10.7397   27.5490 C   0  0  0  0  0  0  0  0  0  0  0  0
    3.9839   12.1287   27.2120 C   0  0  0  0  0  0  0  0  0  0  0  0
    6.6217   13.3997   26.1300 N   0  0  0  0  0  0  0  0  0  0  0  0
    7.6727   13.7471   25.3717 C   0  0  0  0  0  0  0  0  0  0  0  0
    8.5937   12.8621   24.8286 C   0  0  0  0  0  0  0  0  0  0  0  0
    9.7577   13.3026   24.1563 N   0  0  0  0  0  0  0  0  0  0  0  0
   10.9391   13.1134   24.9554 N   0  0  0  0  0  0  0  0  0  0  0  0
    9.6399   14.5968   23.4340 C   0  0  0  0  0  0  0  0  0  0  0  0
    8.5809   14.5439   22.3154 C   0  0  0  0  0  0  0  0  0  0  0  0
    9.3060   14.9754   21.0445 C   0  0  0  0  0  0  0  0  0  0  0  0
   10.4788   15.7931   21.5246 C   0  0  0  0  0  0  0  0  0  0  0  0
   10.9414   14.9749   22.7111 C   0  0  0  0  0  0  0  0  0  0  0  0
  1  2  1  0
  2  3  1  0
  3  4  2  0
  3  5  1  0
  5  6  2  0
  6  7  1  0
  7  8  1  0
  8  9  1  0
  9 10  1  0
  7 11  2  0
 11 12  1  0
 12 13  2  0
 13 14  1  0
 14 15  1  0
 14 16  1  0
 16 17  1  0
 17 18  1  0
 18 19  1  0
 19 20  1  0
 13  5  1  0
 20 16  1  0
 10  8  1  0
M  END
>  <energy_score>  (3033) 
-33.177472

>  <inchikey>  (3033) 
UBFYULYRQUHUBZ-UHFFFAOYSA-N

>  <smiles>  (3033) 
COC(=O)c1cc(C2CC2)ncc1N(N)C1CCCC1

>  <ref_pdb>  (3033) 
A0528a

>  <alias>  (3033) 
UBFYULYRQUHUBZ-UHFFFAOYSA-N-P308-P15-P308-601501

>  <HIPPO Pose ID>  (3033) 
501749

>  <name>  (3033) 
UBFYULYRQUHUBZ-UHFFFAOYSA-N-P308-P15-P308-601501

>  <HIPPO Compound ID>  (3033) 
292588

>  <ref_mols>  (3033) 
A4331a,A0514a

>  <distance_score>  (3033) 
1.813782

>  <inspiration_score>  (3033) 
None

$$$$
NTQDXWFMSJCNQL-UHFFFAOYSA-N-P15-P15-P308-601501
     RDKit          3D

 20 22  0  0  0  0  0  0  0  0999 V2000
    9.5172    8.5062   23.0228 C   0  0  0  0  0  0  0  0  0  0  0  0
    8.8300    9.4303   23.8595 O   0  0  0  0  0  0  0  0  0  0  0  0
    9.1969   10.7166   23.6793 C   0  0  0  0  0  0  0  0  0  0  0  0
   10.0465   11.1138   22.9056 O   0  0  0  0  0  0  0  0  0  0  0  0
    8.3879   11.6138   24.5264 C   0  0  0  0  0  0  0  0  0  0  0  0
    7.4079   11.0748   25.3798 C   0  0  0  0  0  0  0  0  0  0  0  0
    6.5889   11.9265   26.1070 C   0  0  0  0  0  0  0  0  0  0  0  0
    5.5841   11.4161   27.1070 C   0  0  0  0  0  0  0  0  0  0  0  0
    4.3344   12.2145   27.4045 C   0  0  0  0  0  0  0  0  0  0  0  0
    5.4407   12.1737   28.4126 C   0  0  0  0  0  0  0  0  0  0  0  0
    6.7092   13.2670   25.9739 N   0  0  0  0  0  0  0  0  0  0  0  0
    7.6069   13.7649   25.0987 C   0  0  0  0  0  0  0  0  0  0  0  0
    8.5121   12.9982   24.3906 C   0  0  0  0  0  0  0  0  0  0  0  0
    9.3713   13.6311   23.4781 N   0  0  0  0  0  0  0  0  0  0  0  0
    8.7850   14.4013   22.5115 N   0  0  0  0  0  0  0  0  0  0  0  0
    9.7688   14.9307   21.8482 C   0  0  0  0  0  0  0  0  0  0  0  0
    9.5946   15.9168   20.7651 C   0  0  0  0  0  0  0  0  0  0  0  0
   11.1244   14.5023   22.2861 C   0  0  0  0  0  0  0  0  0  0  0  0
   10.7725   13.7552   23.5231 C   0  0  0  0  0  0  0  0  0  0  0  0
   11.5789   13.4407   24.3797 O   0  0  0  0  0  0  0  0  0  0  0  0
  1  2  1  0
  2  3  1  0
  3  4  2  0
  3  5  1  0
  5  6  2  0
  6  7  1  0
  7  8  1  0
  8  9  1  0
  9 10  1  0
  7 11  2  0
 11 12  1  0
 12 13  2  0
 13 14  1  0
 14 15  1  0
 15 16  2  0
 16 17  1  0
 16 18  1  0
 18 19  1  0
 19 20  2  0
 13  5  1  0
 19 14  1  0
 10  8  1  0
M  END
>  <energy_score>  (3034) 
-31.178193

>  <inchikey>  (3034) 
NTQDXWFMSJCNQL-UHFFFAOYSA-N

>  <smiles>  (3034) 
COC(=O)c1cc(C2CC2)ncc1N1N=C(C)CC1=O

>  <ref_pdb>  (3034) 
A0528a

>  <alias>  (3034) 
NTQDXWFMSJCNQL-UHFFFAOYSA-N-P15-P15-P308-601501

>  <HIPPO Pose ID>  (3034) 
501750

>  <name>  (3034) 
NTQDXWFMSJCNQL-UHFFFAOYSA-N-P15-P15-P308-601501

>  <HIPPO Compound ID>  (3034) 
292589

>  <ref_mols>  (3034) 
A4331a,A0514a

>  <distance_score>  (3034) 
1.810613

>  <inspiration_score>  (3034) 
None

$$$$
NTQDXWFMSJCNQL-UHFFFAOYSA-N-P308-P15-P308-601501
     RDKit          3D

 20 22  0  0  0  0  0  0  0  0999 V2000
    9.8723    8.6474   23.5988 C   0  0  0  0  0  0  0  0  0  0  0  0
    9.2699    9.6550   24.4056 O   0  0  0  0  0  0  0  0  0  0  0  0
    9.1686   10.8671   23.8208 C   0  0  0  0  0  0  0  0  0  0  0  0
    9.6007   11.1839   22.7296 O   0  0  0  0  0  0  0  0  0  0  0  0
    8.3588   11.7617   24.6617 C   0  0  0  0  0  0  0  0  0  0  0  0
    7.3493   11.1796   25.4612 C   0  0  0  0  0  0  0  0  0  0  0  0
    6.4234   11.9903   26.1019 C   0  0  0  0  0  0  0  0  0  0  0  0
    5.3515   11.4567   27.0163 C   0  0  0  0  0  0  0  0  0  0  0  0
    4.0781   12.2449   27.2380 C   0  0  0  0  0  0  0  0  0  0  0  0
    5.1108   12.2010   28.3183 C   0  0  0  0  0  0  0  0  0  0  0  0
    6.4827   13.3288   25.9518 N   0  0  0  0  0  0  0  0  0  0  0  0
    7.4197   13.8606   25.1436 C   0  0  0  0  0  0  0  0  0  0  0  0
    8.4104   13.1446   24.4914 C   0  0  0  0  0  0  0  0  0  0  0  0
    9.2879   13.8649   23.6554 N   0  0  0  0  0  0  0  0  0  0  0  0
    8.7072   14.8445   22.8854 N   0  0  0  0  0  0  0  0  0  0  0  0
    9.6601   15.3487   22.1680 C   0  0  0  0  0  0  0  0  0  0  0  0
    9.4565   16.4010   21.1503 C   0  0  0  0  0  0  0  0  0  0  0  0
   11.0028   14.7648   22.4197 C   0  0  0  0  0  0  0  0  0  0  0  0
   10.6812   13.7795   23.4920 C   0  0  0  0  0  0  0  0  0  0  0  0
   11.5274   13.1487   24.1003 O   0  0  0  0  0  0  0  0  0  0  0  0
  1  2  1  0
  2  3  1  0
  3  4  2  0
  3  5  1  0
  5  6  2  0
  6  7  1  0
  7  8  1  0
  8  9  1  0
  9 10  1  0
  7 11  2  0
 11 12  1  0
 12 13  2  0
 13 14  1  0
 14 15  1  0
 15 16  2  0
 16 17  1  0
 16 18  1  0
 18 19  1  0
 19 20  2  0
 13  5  1  0
 19 14  1  0
 10  8  1  0
M  END
>  <energy_score>  (3035) 
-37.153058

>  <inchikey>  (3035) 
NTQDXWFMSJCNQL-UHFFFAOYSA-N

>  <smiles>  (3035) 
COC(=O)c1cc(C2CC2)ncc1N1N=C(C)CC1=O

>  <ref_pdb>  (3035) 
A0528a

>  <alias>  (3035) 
NTQDXWFMSJCNQL-UHFFFAOYSA-N-P308-P15-P308-601501

>  <HIPPO Pose ID>  (3035) 
501751

>  <name>  (3035) 
NTQDXWFMSJCNQL-UHFFFAOYSA-N-P308-P15-P308-601501

>  <HIPPO Compound ID>  (3035) 
292589

>  <ref_mols>  (3035) 
A4331a,A0514a

>  <distance_score>  (3035) 
1.867714

>  <inspiration_score>  (3035) 
None

$$$$
YGUUVNNFLLYSMD-UHFFFAOYSA-N-P15-P15-P308-601501
     RDKit          3D

 20 22  0  0  0  0  0  0  0  0999 V2000
   10.3374   15.4091   20.7326 C   0  0  0  0  0  0  0  0  0  0  0  0
    9.4361   14.6437   21.6917 C   0  0  0  0  0  0  0  0  0  0  0  0
   10.0681   14.2099   23.0045 C   0  0  2  0  0  0  0  0  0  0  0  0
   11.5681   14.0209   22.8903 C   0  0  0  0  0  0  0  0  0  0  0  0
   11.7216   13.0081   23.9418 C   0  0  0  0  0  0  0  0  0  0  0  0
   10.6430   12.4080   24.3071 N   0  0  0  0  0  0  0  0  0  0  0  0
    9.5939   12.9182   23.5802 N   0  0  0  0  0  0  0  0  0  0  0  0
    8.3929   12.7129   24.2775 C   0  0  0  0  0  0  0  0  0  0  0  0
    7.6483   13.7574   24.8069 C   0  0  0  0  0  0  0  0  0  0  0  0
    6.6422   13.6356   25.7096 N   0  0  0  0  0  0  0  0  0  0  0  0
    6.2542   12.4059   26.1044 C   0  0  0  0  0  0  0  0  0  0  0  0
    5.2074   12.2690   27.1744 C   0  0  0  0  0  0  0  0  0  0  0  0
    3.9019   13.0081   27.0451 C   0  0  0  0  0  0  0  0  0  0  0  0
    4.9050   13.4506   28.0691 C   0  0  0  0  0  0  0  0  0  0  0  0
    6.8486   11.2941   25.5581 C   0  0  0  0  0  0  0  0  0  0  0  0
    7.9150   11.4374   24.6535 C   0  0  0  0  0  0  0  0  0  0  0  0
    8.4244   10.1243   24.2035 C   0  0  0  0  0  0  0  0  0  0  0  0
    8.0365    9.0887   24.7306 O   0  0  0  0  0  0  0  0  0  0  0  0
    9.2520   10.1981   23.1514 O   0  0  0  0  0  0  0  0  0  0  0  0
    9.7219    8.9224   22.7426 C   0  0  0  0  0  0  0  0  0  0  0  0
  1  2  1  0
  3  2  1  6
  3  4  1  0
  4  5  1  0
  5  6  2  0
  6  7  1  0
  7  8  1  0
  8  9  2  0
  9 10  1  0
 10 11  2  0
 11 12  1  0
 12 13  1  0
 13 14  1  0
 11 15  1  0
 15 16  2  0
 16 17  1  0
 17 18  2  0
 17 19  1  0
 19 20  1  0
  7  3  1  0
 16  8  1  0
 14 12  1  0
M  END
>  <energy_score>  (3036) 
-36.902864

>  <inchikey>  (3036) 
YGUUVNNFLLYSMD-UHFFFAOYSA-N

>  <smiles>  (3036) 
CCC1CC=NN1c1cnc(C2CC2)cc1C(=O)OC

>  <ref_pdb>  (3036) 
A0528a

>  <alias>  (3036) 
YGUUVNNFLLYSMD-UHFFFAOYSA-N-P15-P15-P308-601501

>  <HIPPO Pose ID>  (3036) 
501752

>  <name>  (3036) 
YGUUVNNFLLYSMD-UHFFFAOYSA-N-P15-P15-P308-601501

>  <HIPPO Compound ID>  (3036) 
292590

>  <ref_mols>  (3036) 
A4331a,A0514a

>  <distance_score>  (3036) 
1.994882

>  <inspiration_score>  (3036) 
None

$$$$
YGUUVNNFLLYSMD-UHFFFAOYSA-N-P308-P15-P308-601501
     RDKit          3D

 20 22  0  0  0  0  0  0  0  0999 V2000
   11.3339   14.9708   20.8754 C   0  0  0  0  0  0  0  0  0  0  0  0
   11.4516   14.7657   22.3841 C   0  0  0  0  0  0  0  0  0  0  0  0
   10.1575   14.9461   23.2250 C   0  0  1  0  0  0  0  0  0  0  0  0
    9.3262   16.1085   22.7289 C   0  0  0  0  0  0  0  0  0  0  0  0
    8.3978   15.3470   21.8550 C   0  0  0  0  0  0  0  0  0  0  0  0
    8.3389   14.0725   22.0679 N   0  0  0  0  0  0  0  0  0  0  0  0
    9.2499   13.7631   23.0720 N   0  0  0  0  0  0  0  0  0  0  0  0
    8.5352   13.3172   24.2081 C   0  0  0  0  0  0  0  0  0  0  0  0
    7.5459   14.0847   24.8098 C   0  0  0  0  0  0  0  0  0  0  0  0
    6.7178   13.6724   25.7871 N   0  0  0  0  0  0  0  0  0  0  0  0
    6.7431   12.3785   26.1528 C   0  0  0  0  0  0  0  0  0  0  0  0
    5.7792   12.0295   27.2417 C   0  0  0  0  0  0  0  0  0  0  0  0
    4.8723   10.8437   27.1757 C   0  0  0  0  0  0  0  0  0  0  0  0
    4.3131   12.2220   26.9537 C   0  0  0  0  0  0  0  0  0  0  0  0
    7.6826   11.5111   25.6126 C   0  0  0  0  0  0  0  0  0  0  0  0
    8.6211   12.0161   24.6961 C   0  0  0  0  0  0  0  0  0  0  0  0
    9.6963   11.1078   24.2892 C   0  0  0  0  0  0  0  0  0  0  0  0
    9.4201   10.0542   23.7326 O   0  0  0  0  0  0  0  0  0  0  0  0
   10.9708   11.4350   24.6410 O   0  0  0  0  0  0  0  0  0  0  0  0
   11.3609   12.5658   25.4392 C   0  0  0  0  0  0  0  0  0  0  0  0
  1  2  1  0
  3  2  1  6
  3  4  1  0
  4  5  1  0
  5  6  2  0
  6  7  1  0
  7  8  1  0
  8  9  2  0
  9 10  1  0
 10 11  2  0
 11 12  1  0
 12 13  1  0
 13 14  1  0
 11 15  1  0
 15 16  2  0
 16 17  1  0
 17 18  2  0
 17 19  1  0
 19 20  1  0
  7  3  1  0
 16  8  1  0
 14 12  1  0
M  END
>  <energy_score>  (3037) 
-21.046227

>  <inchikey>  (3037) 
YGUUVNNFLLYSMD-UHFFFAOYSA-N

>  <smiles>  (3037) 
CCC1CC=NN1c1cnc(C2CC2)cc1C(=O)OC

>  <ref_pdb>  (3037) 
A0528a

>  <alias>  (3037) 
YGUUVNNFLLYSMD-UHFFFAOYSA-N-P308-P15-P308-601501

>  <HIPPO Pose ID>  (3037) 
501753

>  <name>  (3037) 
YGUUVNNFLLYSMD-UHFFFAOYSA-N-P308-P15-P308-601501

>  <HIPPO Compound ID>  (3037) 
292590

>  <ref_mols>  (3037) 
A4331a,A0514a

>  <distance_score>  (3037) 
1.72362

>  <inspiration_score>  (3037) 
None

$$$$
ADMRHHZQCUPDIX-UHFFFAOYSA-N-P308-P15-P308-601501
     RDKit          3D

 20 22  0  0  0  0  0  0  0  0999 V2000
    9.3600    8.7455   23.2576 C   0  0  0  0  0  0  0  0  0  0  0  0
    8.5144    9.6866   23.9177 O   0  0  0  0  0  0  0  0  0  0  0  0
    9.1890   10.7170   24.4840 C   0  0  0  0  0  0  0  0  0  0  0  0
   10.4001   10.8579   24.5031 O   0  0  0  0  0  0  0  0  0  0  0  0
    8.2090   11.6944   25.0181 C   0  0  0  0  0  0  0  0  0  0  0  0
    6.9970   11.2232   25.5630 C   0  0  0  0  0  0  0  0  0  0  0  0
    6.1329   12.1324   26.1581 C   0  0  0  0  0  0  0  0  0  0  0  0
    4.7903   11.8178   26.7267 C   0  0  0  0  0  0  0  0  0  0  0  0
    4.5120   10.8181   27.8077 C   0  0  0  0  0  0  0  0  0  0  0  0
    4.5558   12.2723   28.1576 C   0  0  0  0  0  0  0  0  0  0  0  0
    6.4497   13.4379   26.2473 N   0  0  0  0  0  0  0  0  0  0  0  0
    7.5945   13.8652   25.6976 C   0  0  0  0  0  0  0  0  0  0  0  0
    8.5174   13.0641   25.0401 C   0  0  0  0  0  0  0  0  0  0  0  0
    9.6499   13.6599   24.4363 N   0  0  0  0  0  0  0  0  0  0  0  0
   10.1081   14.8767   25.0410 N   0  0  0  0  0  0  0  0  0  0  0  0
    9.6598   13.5641   22.9407 C   0  0  1  0  0  0  0  0  0  0  0  0
    8.6278   14.4815   22.2884 C   0  0  0  0  0  0  0  0  0  0  0  0
    9.4482   15.5632   21.5970 C   0  0  0  0  0  0  0  0  0  0  0  0
   10.7679   15.4763   22.1371 O   0  0  0  0  0  0  0  0  0  0  0  0
   10.9820   14.0776   22.3777 C   0  0  0  0  0  0  0  0  0  0  0  0
  1  2  1  0
  2  3  1  0
  3  4  2  0
  3  5  1  0
  5  6  2  0
  6  7  1  0
  7  8  1  0
  8  9  1  0
  9 10  1  0
  7 11  2  0
 11 12  1  0
 12 13  2  0
 13 14  1  0
 14 15  1  0
 16 14  1  1
 16 17  1  0
 17 18  1  0
 18 19  1  0
 19 20  1  0
 13  5  1  0
 20 16  1  0
 10  8  1  0
M  END
>  <energy_score>  (3038) 
-44.937523

>  <inchikey>  (3038) 
ADMRHHZQCUPDIX-UHFFFAOYSA-N

>  <smiles>  (3038) 
COC(=O)c1cc(C2CC2)ncc1N(N)C1CCOC1

>  <ref_pdb>  (3038) 
A0528a

>  <alias>  (3038) 
ADMRHHZQCUPDIX-UHFFFAOYSA-N-P308-P15-P308-601501

>  <HIPPO Pose ID>  (3038) 
501759

>  <name>  (3038) 
ADMRHHZQCUPDIX-UHFFFAOYSA-N-P308-P15-P308-601501

>  <HIPPO Compound ID>  (3038) 
292593

>  <ref_mols>  (3038) 
A4331a,A0514a

>  <distance_score>  (3038) 
1.934945

>  <inspiration_score>  (3038) 
None

$$$$
GDQFIFMSWDFHTC-UHFFFAOYSA-N-P15-P15-P308-601501
     RDKit          3D

 20 21  0  0  0  0  0  0  0  0999 V2000
   10.4772   15.8792   19.3447 C   0  0  0  0  0  0  0  0  0  0  0  0
   10.9351   14.9379   20.4400 C   0  0  0  0  0  0  0  0  0  0  0  0
    9.8218   14.2452   21.0153 O   0  0  0  0  0  0  0  0  0  0  0  0
    9.2301   14.9680   22.0747 C   0  0  0  0  0  0  0  0  0  0  0  0
    8.0305   14.2284   22.6560 C   0  0  0  0  0  0  0  0  0  0  0  0
    7.9072   14.4568   24.1195 N   0  0  0  0  0  0  0  0  0  0  0  0
    7.5546   15.7599   24.5257 N   0  0  0  0  0  0  0  0  0  0  0  0
    7.3025   13.3841   24.8048 C   0  0  0  0  0  0  0  0  0  0  0  0
    6.1167   13.5572   25.4960 C   0  0  0  0  0  0  0  0  0  0  0  0
    5.5118   12.6178   26.2320 N   0  0  0  0  0  0  0  0  0  0  0  0
    6.0470   11.3827   26.2800 C   0  0  0  0  0  0  0  0  0  0  0  0
    5.3876   10.4466   27.2425 C   0  0  0  0  0  0  0  0  0  0  0  0
    5.5657   10.7005   28.7235 C   0  0  0  0  0  0  0  0  0  0  0  0
    4.2354   10.9515   28.0957 C   0  0  0  0  0  0  0  0  0  0  0  0
    7.1931   11.0672   25.5606 C   0  0  0  0  0  0  0  0  0  0  0  0
    7.8469   12.0968   24.8732 C   0  0  0  0  0  0  0  0  0  0  0  0
    9.1546   11.8045   24.2603 C   0  0  0  0  0  0  0  0  0  0  0  0
    9.3577   10.8376   23.5500 O   0  0  0  0  0  0  0  0  0  0  0  0
   10.0446   12.7558   24.6404 O   0  0  0  0  0  0  0  0  0  0  0  0
   11.2661   12.8047   23.9006 C   0  0  0  0  0  0  0  0  0  0  0  0
  1  2  1  0
  2  3  1  0
  3  4  1  0
  4  5  1  0
  5  6  1  0
  6  7  1  0
  6  8  1  0
  8  9  2  0
  9 10  1  0
 10 11  2  0
 11 12  1  0
 12 13  1  0
 13 14  1  0
 11 15  1  0
 15 16  2  0
 16 17  1  0
 17 18  2  0
 17 19  1  0
 19 20  1  0
 16  8  1  0
 14 12  1  0
M  END
>  <energy_score>  (3039) 
-43.769033

>  <inchikey>  (3039) 
GDQFIFMSWDFHTC-UHFFFAOYSA-N

>  <smiles>  (3039) 
CCOCCN(N)c1cnc(C2CC2)cc1C(=O)OC

>  <ref_pdb>  (3039) 
A0528a

>  <alias>  (3039) 
GDQFIFMSWDFHTC-UHFFFAOYSA-N-P15-P15-P308-601501

>  <HIPPO Pose ID>  (3039) 
501760

>  <name>  (3039) 
GDQFIFMSWDFHTC-UHFFFAOYSA-N-P15-P15-P308-601501

>  <HIPPO Compound ID>  (3039) 
292594

>  <ref_mols>  (3039) 
A4331a,A0514a

>  <distance_score>  (3039) 
1.837731

>  <inspiration_score>  (3039) 
None

$$$$
GDQFIFMSWDFHTC-UHFFFAOYSA-N-P308-P15-P308-601501
     RDKit          3D

 20 21  0  0  0  0  0  0  0  0999 V2000
   10.8849   15.6226   19.4040 C   0  0  0  0  0  0  0  0  0  0  0  0
   11.2595   15.0715   20.7661 C   0  0  0  0  0  0  0  0  0  0  0  0
   10.1211   14.5884   21.4740 O   0  0  0  0  0  0  0  0  0  0  0  0
    9.3909   15.6204   22.1291 C   0  0  0  0  0  0  0  0  0  0  0  0
    8.2664   14.9922   22.9496 C   0  0  0  0  0  0  0  0  0  0  0  0
    8.7831   14.4240   24.2200 N   0  0  0  0  0  0  0  0  0  0  0  0
    9.2784   15.3743   25.1715 N   0  0  0  0  0  0  0  0  0  0  0  0
    7.8876   13.4847   24.7771 C   0  0  0  0  0  0  0  0  0  0  0  0
    6.5748   13.8106   25.0592 C   0  0  0  0  0  0  0  0  0  0  0  0
    5.7208   13.0067   25.7039 N   0  0  0  0  0  0  0  0  0  0  0  0
    6.1163   11.7663   26.0592 C   0  0  0  0  0  0  0  0  0  0  0  0
    5.1768   11.0397   26.9865 C   0  0  0  0  0  0  0  0  0  0  0  0
    5.0619   11.5448   28.4160 C   0  0  0  0  0  0  0  0  0  0  0  0
    3.9252   11.7574   27.4831 C   0  0  0  0  0  0  0  0  0  0  0  0
    7.3779   11.2946   25.7073 C   0  0  0  0  0  0  0  0  0  0  0  0
    8.2835   12.1949   25.1307 C   0  0  0  0  0  0  0  0  0  0  0  0
    9.6972   11.8102   24.9712 C   0  0  0  0  0  0  0  0  0  0  0  0
   10.0923   10.8070   24.4077 O   0  0  0  0  0  0  0  0  0  0  0  0
   10.4618   12.7167   25.6412 O   0  0  0  0  0  0  0  0  0  0  0  0
   11.8408   12.7194   25.2834 C   0  0  0  0  0  0  0  0  0  0  0  0
  1  2  1  0
  2  3  1  0
  3  4  1  0
  4  5  1  0
  5  6  1  0
  6  7  1  0
  6  8  1  0
  8  9  2  0
  9 10  1  0
 10 11  2  0
 11 12  1  0
 12 13  1  0
 13 14  1  0
 11 15  1  0
 15 16  2  0
 16 17  1  0
 17 18  2  0
 17 19  1  0
 19 20  1  0
 16  8  1  0
 14 12  1  0
M  END
>  <energy_score>  (3040) 
-45.426615

>  <inchikey>  (3040) 
GDQFIFMSWDFHTC-UHFFFAOYSA-N

>  <smiles>  (3040) 
CCOCCN(N)c1cnc(C2CC2)cc1C(=O)OC

>  <ref_pdb>  (3040) 
A0528a

>  <alias>  (3040) 
GDQFIFMSWDFHTC-UHFFFAOYSA-N-P308-P15-P308-601501

>  <HIPPO Pose ID>  (3040) 
501761

>  <name>  (3040) 
GDQFIFMSWDFHTC-UHFFFAOYSA-N-P308-P15-P308-601501

>  <HIPPO Compound ID>  (3040) 
292594

>  <ref_mols>  (3040) 
A4331a,A0514a

>  <distance_score>  (3040) 
1.750041

>  <inspiration_score>  (3040) 
None

$$$$
CYEULEJAIOSQEO-UHFFFAOYSA-N-P15-P15-P308-601501
     RDKit          3D

 20 21  0  0  0  0  0  0  0  0999 V2000
    9.4330    8.4218   23.2040 C   0  0  0  0  0  0  0  0  0  0  0  0
    8.7250    9.2634   24.1125 O   0  0  0  0  0  0  0  0  0  0  0  0
    8.8393   10.5763   23.8185 C   0  0  0  0  0  0  0  0  0  0  0  0
    9.4448   11.0376   22.8676 O   0  0  0  0  0  0  0  0  0  0  0  0
    8.0866   11.4072   24.7778 C   0  0  0  0  0  0  0  0  0  0  0  0
    6.9955   10.8740   25.4742 C   0  0  0  0  0  0  0  0  0  0  0  0
    6.2942   11.6979   26.3429 C   0  0  0  0  0  0  0  0  0  0  0  0
    5.1967   11.1908   27.2368 C   0  0  0  0  0  0  0  0  0  0  0  0
    4.0069   12.0770   27.5389 C   0  0  0  0  0  0  0  0  0  0  0  0
    5.0365   11.8402   28.5985 C   0  0  0  0  0  0  0  0  0  0  0  0
    6.6208   13.0051   26.4759 N   0  0  0  0  0  0  0  0  0  0  0  0
    7.6682   13.4936   25.7946 C   0  0  0  0  0  0  0  0  0  0  0  0
    8.4732   12.7415   24.9616 C   0  0  0  0  0  0  0  0  0  0  0  0
    9.6399   13.2744   24.4185 N   0  0  0  0  0  0  0  0  0  0  0  0
   10.6974   13.5288   25.3294 N   0  0  0  0  0  0  0  0  0  0  0  0
    9.5970   14.0559   23.1527 C   0  0  2  0  0  0  0  0  0  0  0  0
    8.2381   14.1065   22.4661 C   0  0  0  0  0  0  0  0  0  0  0  0
   10.7839   13.6843   22.2647 C   0  0  0  0  0  0  0  0  0  0  0  0
   11.8707   13.2820   22.6660 O   0  0  0  0  0  0  0  0  0  0  0  0
   10.5673   13.9331   20.9617 O   0  0  0  0  0  0  0  0  0  0  0  0
  1  2  1  0
  2  3  1  0
  3  4  2  0
  3  5  1  0
  5  6  2  0
  6  7  1  0
  7  8  1  0
  8  9  1  0
  9 10  1  0
  7 11  2  0
 11 12  1  0
 12 13  2  0
 13 14  1  0
 14 15  1  0
 14 16  1  0
 16 17  1  6
 16 18  1  0
 18 19  2  0
 18 20  1  0
 13  5  1  0
 10  8  1  0
M  END
>  <energy_score>  (3041) 
-50.57336

>  <inchikey>  (3041) 
CYEULEJAIOSQEO-UHFFFAOYSA-N

>  <smiles>  (3041) 
COC(=O)c1cc(C2CC2)ncc1N(N)C(C)C(=O)O

>  <ref_pdb>  (3041) 
A0528a

>  <alias>  (3041) 
CYEULEJAIOSQEO-UHFFFAOYSA-N-P15-P15-P308-601501

>  <HIPPO Pose ID>  (3041) 
501764

>  <name>  (3041) 
CYEULEJAIOSQEO-UHFFFAOYSA-N-P15-P15-P308-601501

>  <HIPPO Compound ID>  (3041) 
292596

>  <ref_mols>  (3041) 
A4331a,A0514a

>  <distance_score>  (3041) 
1.539876

>  <inspiration_score>  (3041) 
None

$$$$
CYEULEJAIOSQEO-UHFFFAOYSA-N-P308-P15-P308-601501
     RDKit          3D

 20 21  0  0  0  0  0  0  0  0999 V2000
    9.3801    8.6156   23.0593 C   0  0  0  0  0  0  0  0  0  0  0  0
    8.5604    9.5570   23.7419 O   0  0  0  0  0  0  0  0  0  0  0  0
    9.2612   10.4428   24.4912 C   0  0  0  0  0  0  0  0  0  0  0  0
   10.4670   10.4430   24.6704 O   0  0  0  0  0  0  0  0  0  0  0  0
    8.2838   11.4006   25.0536 C   0  0  0  0  0  0  0  0  0  0  0  0
    7.1180   10.8985   25.6494 C   0  0  0  0  0  0  0  0  0  0  0  0
    6.2424   11.7838   26.2623 C   0  0  0  0  0  0  0  0  0  0  0  0
    5.0627   11.3291   27.0779 C   0  0  0  0  0  0  0  0  0  0  0  0
    3.8750   12.2472   27.2738 C   0  0  0  0  0  0  0  0  0  0  0  0
    4.8266   12.0266   28.4061 C   0  0  0  0  0  0  0  0  0  0  0  0
    6.4854   13.1143   26.2496 N   0  0  0  0  0  0  0  0  0  0  0  0
    7.5928   13.5718   25.6465 C   0  0  0  0  0  0  0  0  0  0  0  0
    8.5312   12.7754   25.0151 C   0  0  0  0  0  0  0  0  0  0  0  0
    9.6366   13.3281   24.3675 N   0  0  0  0  0  0  0  0  0  0  0  0
   10.7321   13.5769   25.2503 N   0  0  0  0  0  0  0  0  0  0  0  0
    9.4130   14.2980   23.2341 C   0  0  2  0  0  0  0  0  0  0  0  0
    8.0386   14.1381   22.5622 C   0  0  0  0  0  0  0  0  0  0  0  0
   10.5612   14.0996   22.2228 C   0  0  0  0  0  0  0  0  0  0  0  0
   11.7392   13.9316   22.5155 O   0  0  0  0  0  0  0  0  0  0  0  0
   10.1577   14.1074   20.9382 O   0  0  0  0  0  0  0  0  0  0  0  0
  1  2  1  0
  2  3  1  0
  3  4  2  0
  3  5  1  0
  5  6  2  0
  6  7  1  0
  7  8  1  0
  8  9  1  0
  9 10  1  0
  7 11  2  0
 11 12  1  0
 12 13  2  0
 13 14  1  0
 14 15  1  0
 14 16  1  0
 16 17  1  6
 16 18  1  0
 18 19  2  0
 18 20  1  0
 13  5  1  0
 10  8  1  0
M  END
>  <energy_score>  (3042) 
-49.135674

>  <inchikey>  (3042) 
CYEULEJAIOSQEO-UHFFFAOYSA-N

>  <smiles>  (3042) 
COC(=O)c1cc(C2CC2)ncc1N(N)C(C)C(=O)O

>  <ref_pdb>  (3042) 
A0528a

>  <alias>  (3042) 
CYEULEJAIOSQEO-UHFFFAOYSA-N-P308-P15-P308-601501

>  <HIPPO Pose ID>  (3042) 
501765

>  <name>  (3042) 
CYEULEJAIOSQEO-UHFFFAOYSA-N-P308-P15-P308-601501

>  <HIPPO Compound ID>  (3042) 
292596

>  <ref_mols>  (3042) 
A4331a,A0514a

>  <distance_score>  (3042) 
1.427565

>  <inspiration_score>  (3042) 
None

$$$$
NHCZSEMATSSPGL-UHFFFAOYSA-N-P15-P15-P308-601501
     RDKit          3D

 20 22  0  0  0  0  0  0  0  0999 V2000
    9.3564    8.5172   22.9467 C   0  0  0  0  0  0  0  0  0  0  0  0
    8.5532    9.3669   23.7635 O   0  0  0  0  0  0  0  0  0  0  0  0
    9.0574   10.6139   23.8892 C   0  0  0  0  0  0  0  0  0  0  0  0
   10.1043   11.0018   23.3994 O   0  0  0  0  0  0  0  0  0  0  0  0
    8.1712   11.4584   24.7280 C   0  0  0  0  0  0  0  0  0  0  0  0
    7.1133   10.8696   25.4406 C   0  0  0  0  0  0  0  0  0  0  0  0
    6.3139   11.6644   26.2521 C   0  0  0  0  0  0  0  0  0  0  0  0
    5.2904   11.0909   27.1934 C   0  0  0  0  0  0  0  0  0  0  0  0
    4.0974   11.9221   27.6160 C   0  0  0  0  0  0  0  0  0  0  0  0
    5.2136   11.6906   28.5852 C   0  0  0  0  0  0  0  0  0  0  0  0
    6.4949   13.0027   26.3038 N   0  0  0  0  0  0  0  0  0  0  0  0
    7.4913   13.5534   25.5932 C   0  0  0  0  0  0  0  0  0  0  0  0
    8.4046   12.8369   24.8383 C   0  0  0  0  0  0  0  0  0  0  0  0
    9.4914   13.5539   24.2900 N   0  0  0  0  0  0  0  0  0  0  0  0
   10.7950   13.1834   24.7428 N   0  0  0  0  0  0  0  0  0  0  0  0
    9.4324   13.9831   22.9802 C   0  0  0  0  0  0  0  0  0  0  0  0
    8.3296   14.0498   22.2548 N   0  0  0  0  0  0  0  0  0  0  0  0
    8.5223   14.7086   21.0606 N   0  0  0  0  0  0  0  0  0  0  0  0
    9.7680   15.0885   20.8925 C   0  0  0  0  0  0  0  0  0  0  0  0
   10.8277   14.5686   22.1156 S   0  0  0  0  0  0  0  0  0  0  0  0
  1  2  1  0
  2  3  1  0
  3  4  2  0
  3  5  1  0
  5  6  2  0
  6  7  1  0
  7  8  1  0
  8  9  1  0
  9 10  1  0
  7 11  2  0
 11 12  1  0
 12 13  2  0
 13 14  1  0
 14 15  1  0
 14 16  1  0
 16 17  2  0
 17 18  1  0
 18 19  2  0
 19 20  1  0
 13  5  1  0
 20 16  1  0
 10  8  1  0
M  END
>  <energy_score>  (3043) 
-102.307744

>  <inchikey>  (3043) 
NHCZSEMATSSPGL-UHFFFAOYSA-N

>  <smiles>  (3043) 
COC(=O)c1cc(C2CC2)ncc1N(N)c1nncs1

>  <ref_pdb>  (3043) 
A0528a

>  <alias>  (3043) 
NHCZSEMATSSPGL-UHFFFAOYSA-N-P15-P15-P308-601501

>  <HIPPO Pose ID>  (3043) 
501766

>  <name>  (3043) 
NHCZSEMATSSPGL-UHFFFAOYSA-N-P15-P15-P308-601501

>  <HIPPO Compound ID>  (3043) 
292597

>  <ref_mols>  (3043) 
A4331a,A0514a

>  <distance_score>  (3043) 
1.869131

>  <inspiration_score>  (3043) 
None

$$$$
NHCZSEMATSSPGL-UHFFFAOYSA-N-P308-P15-P308-601501
     RDKit          3D

 20 22  0  0  0  0  0  0  0  0999 V2000
    9.3032    8.4652   23.0198 C   0  0  0  0  0  0  0  0  0  0  0  0
    8.4774    9.3433   23.7735 O   0  0  0  0  0  0  0  0  0  0  0  0
    9.1776   10.2498   24.4870 C   0  0  0  0  0  0  0  0  0  0  0  0
   10.3871   10.2867   24.6522 O   0  0  0  0  0  0  0  0  0  0  0  0
    8.2133   11.2462   24.9936 C   0  0  0  0  0  0  0  0  0  0  0  0
    7.0550   10.7994   25.6386 C   0  0  0  0  0  0  0  0  0  0  0  0
    6.1965   11.7370   26.1922 C   0  0  0  0  0  0  0  0  0  0  0  0
    5.0465   11.3543   27.0835 C   0  0  0  0  0  0  0  0  0  0  0  0
    3.8719   12.2911   27.2599 C   0  0  0  0  0  0  0  0  0  0  0  0
    4.8683   12.1475   28.3664 C   0  0  0  0  0  0  0  0  0  0  0  0
    6.4359   13.0604   26.0472 N   0  0  0  0  0  0  0  0  0  0  0  0
    7.5292   13.4650   25.3800 C   0  0  0  0  0  0  0  0  0  0  0  0
    8.4681   12.6116   24.8323 C   0  0  0  0  0  0  0  0  0  0  0  0
    9.6071   13.1001   24.1755 N   0  0  0  0  0  0  0  0  0  0  0  0
   10.8383   12.9727   24.8877 N   0  0  0  0  0  0  0  0  0  0  0  0
    9.6577   14.0446   23.1789 C   0  0  0  0  0  0  0  0  0  0  0  0
   10.7920   14.5553   22.7340 N   0  0  0  0  0  0  0  0  0  0  0  0
   10.6407   15.4637   21.7150 N   0  0  0  0  0  0  0  0  0  0  0  0
    9.3771   15.6273   21.4093 C   0  0  0  0  0  0  0  0  0  0  0  0
    8.2956   14.6510   22.3012 S   0  0  0  0  0  0  0  0  0  0  0  0
  1  2  1  0
  2  3  1  0
  3  4  2  0
  3  5  1  0
  5  6  2  0
  6  7  1  0
  7  8  1  0
  8  9  1  0
  9 10  1  0
  7 11  2  0
 11 12  1  0
 12 13  2  0
 13 14  1  0
 14 15  1  0
 14 16  1  0
 16 17  2  0
 17 18  1  0
 18 19  2  0
 19 20  1  0
 13  5  1  0
 20 16  1  0
 10  8  1  0
M  END
>  <energy_score>  (3044) 
-105.80872

>  <inchikey>  (3044) 
NHCZSEMATSSPGL-UHFFFAOYSA-N

>  <smiles>  (3044) 
COC(=O)c1cc(C2CC2)ncc1N(N)c1nncs1

>  <ref_pdb>  (3044) 
A0528a

>  <alias>  (3044) 
NHCZSEMATSSPGL-UHFFFAOYSA-N-P308-P15-P308-601501

>  <HIPPO Pose ID>  (3044) 
501767

>  <name>  (3044) 
NHCZSEMATSSPGL-UHFFFAOYSA-N-P308-P15-P308-601501

>  <HIPPO Compound ID>  (3044) 
292597

>  <ref_mols>  (3044) 
A4331a,A0514a

>  <distance_score>  (3044) 
1.896146

>  <inspiration_score>  (3044) 
None

$$$$
UFZUHUDDNVHTHH-UHFFFAOYSA-N-P15-P15-P308-601501
     RDKit          3D

 20 22  0  0  0  0  0  0  0  0999 V2000
    9.2693    8.5216   23.1911 C   0  0  0  0  0  0  0  0  0  0  0  0
    8.5748    9.4044   24.0819 O   0  0  0  0  0  0  0  0  0  0  0  0
    8.8544   10.7094   23.8790 C   0  0  0  0  0  0  0  0  0  0  0  0
    9.6241   11.1401   23.0377 O   0  0  0  0  0  0  0  0  0  0  0  0
    8.1082   11.5946   24.8027 C   0  0  0  0  0  0  0  0  0  0  0  0
    6.9598   11.1375   25.4659 C   0  0  0  0  0  0  0  0  0  0  0  0
    6.2417   12.0355   26.2501 C   0  0  0  0  0  0  0  0  0  0  0  0
    4.9924   11.7096   26.9936 C   0  0  0  0  0  0  0  0  0  0  0  0
    4.9265   10.6760   28.0765 C   0  0  0  0  0  0  0  0  0  0  0  0
    4.9302   12.1269   28.4499 C   0  0  0  0  0  0  0  0  0  0  0  0
    6.6234   13.3222   26.3797 N   0  0  0  0  0  0  0  0  0  0  0  0
    7.7138   13.7404   25.7351 C   0  0  0  0  0  0  0  0  0  0  0  0
    8.5177   12.9283   24.9547 C   0  0  0  0  0  0  0  0  0  0  0  0
    9.6857   13.5175   24.4375 N   0  0  0  0  0  0  0  0  0  0  0  0
   10.9389   12.9160   24.7658 N   0  0  0  0  0  0  0  0  0  0  0  0
    9.7510   14.0807   23.1904 C   0  0  0  0  0  0  0  0  0  0  0  0
   10.8988   14.3897   22.6186 N   0  0  0  0  0  0  0  0  0  0  0  0
   10.6509   14.9958   21.4120 C   0  0  0  0  0  0  0  0  0  0  0  0
    9.3956   15.1947   21.0243 N   0  0  0  0  0  0  0  0  0  0  0  0
    8.4178   14.5363   22.1980 S   0  0  0  0  0  0  0  0  0  0  0  0
  1  2  1  0
  2  3  1  0
  3  4  2  0
  3  5  1  0
  5  6  2  0
  6  7  1  0
  7  8  1  0
  8  9  1  0
  9 10  1  0
  7 11  2  0
 11 12  1  0
 12 13  2  0
 13 14  1  0
 14 15  1  0
 14 16  1  0
 16 17  2  0
 17 18  1  0
 18 19  2  0
 19 20  1  0
 13  5  1  0
 20 16  1  0
 10  8  1  0
M  END
>  <energy_score>  (3045) 
-102.421929

>  <inchikey>  (3045) 
UFZUHUDDNVHTHH-UHFFFAOYSA-N

>  <smiles>  (3045) 
COC(=O)c1cc(C2CC2)ncc1N(N)c1ncns1

>  <ref_pdb>  (3045) 
A0528a

>  <alias>  (3045) 
UFZUHUDDNVHTHH-UHFFFAOYSA-N-P15-P15-P308-601501

>  <HIPPO Pose ID>  (3045) 
501768

>  <name>  (3045) 
UFZUHUDDNVHTHH-UHFFFAOYSA-N-P15-P15-P308-601501

>  <HIPPO Compound ID>  (3045) 
292598

>  <ref_mols>  (3045) 
A4331a,A0514a

>  <distance_score>  (3045) 
1.795537

>  <inspiration_score>  (3045) 
None

$$$$
UFZUHUDDNVHTHH-UHFFFAOYSA-N-P308-P15-P308-601501
     RDKit          3D

 20 22  0  0  0  0  0  0  0  0999 V2000
    9.1588    8.4449   23.0726 C   0  0  0  0  0  0  0  0  0  0  0  0
    8.3654    9.3501   23.8354 O   0  0  0  0  0  0  0  0  0  0  0  0
    9.1125   10.2097   24.5612 C   0  0  0  0  0  0  0  0  0  0  0  0
   10.3222   10.1554   24.7259 O   0  0  0  0  0  0  0  0  0  0  0  0
    8.2299   11.2907   25.0595 C   0  0  0  0  0  0  0  0  0  0  0  0
    6.9683   10.9887   25.5926 C   0  0  0  0  0  0  0  0  0  0  0  0
    6.1902   12.0324   26.0788 C   0  0  0  0  0  0  0  0  0  0  0  0
    4.8211   11.8922   26.6578 C   0  0  0  0  0  0  0  0  0  0  0  0
    4.4712   11.0278   27.8331 C   0  0  0  0  0  0  0  0  0  0  0  0
    4.6107   12.5051   28.0317 C   0  0  0  0  0  0  0  0  0  0  0  0
    6.6331   13.3077   26.0492 N   0  0  0  0  0  0  0  0  0  0  0  0
    7.8268   13.5750   25.5090 C   0  0  0  0  0  0  0  0  0  0  0  0
    8.6670   12.6191   24.9711 C   0  0  0  0  0  0  0  0  0  0  0  0
    9.8858   12.9832   24.3757 N   0  0  0  0  0  0  0  0  0  0  0  0
   11.0472   12.7298   25.1709 N   0  0  0  0  0  0  0  0  0  0  0  0
   10.0814   14.0210   23.4999 C   0  0  0  0  0  0  0  0  0  0  0  0
   11.2707   14.5336   23.2400 N   0  0  0  0  0  0  0  0  0  0  0  0
   11.1388   15.5583   22.3262 C   0  0  0  0  0  0  0  0  0  0  0  0
    9.9349   15.8799   21.8667 N   0  0  0  0  0  0  0  0  0  0  0  0
    8.8695   14.7898   22.5312 S   0  0  0  0  0  0  0  0  0  0  0  0
  1  2  1  0
  2  3  1  0
  3  4  2  0
  3  5  1  0
  5  6  2  0
  6  7  1  0
  7  8  1  0
  8  9  1  0
  9 10  1  0
  7 11  2  0
 11 12  1  0
 12 13  2  0
 13 14  1  0
 14 15  1  0
 14 16  1  0
 16 17  2  0
 17 18  1  0
 18 19  2  0
 19 20  1  0
 13  5  1  0
 20 16  1  0
 10  8  1  0
M  END
>  <energy_score>  (3046) 
-104.530556

>  <inchikey>  (3046) 
UFZUHUDDNVHTHH-UHFFFAOYSA-N

>  <smiles>  (3046) 
COC(=O)c1cc(C2CC2)ncc1N(N)c1ncns1

>  <ref_pdb>  (3046) 
A0528a

>  <alias>  (3046) 
UFZUHUDDNVHTHH-UHFFFAOYSA-N-P308-P15-P308-601501

>  <HIPPO Pose ID>  (3046) 
501769

>  <name>  (3046) 
UFZUHUDDNVHTHH-UHFFFAOYSA-N-P308-P15-P308-601501

>  <HIPPO Compound ID>  (3046) 
292598

>  <ref_mols>  (3046) 
A4331a,A0514a

>  <distance_score>  (3046) 
1.700995

>  <inspiration_score>  (3046) 
None

$$$$
RHLQHEYSSLRSNB-UHFFFAOYSA-N-P15-P15-P308-601501
     RDKit          3D

 20 21  0  0  0  0  0  0  0  0999 V2000
    9.0665    8.2843   22.8283 C   0  0  0  0  0  0  0  0  0  0  0  0
    8.2407    9.0758   23.6821 O   0  0  0  0  0  0  0  0  0  0  0  0
    8.9139   10.1666   24.0985 C   0  0  0  0  0  0  0  0  0  0  0  0
   10.0802   10.3826   23.8189 O   0  0  0  0  0  0  0  0  0  0  0  0
    8.0492   11.0751   24.8984 C   0  0  0  0  0  0  0  0  0  0  0  0
    6.9148   10.5812   25.5540 C   0  0  0  0  0  0  0  0  0  0  0  0
    6.2069   11.4271   26.4001 C   0  0  0  0  0  0  0  0  0  0  0  0
    5.0967   10.9557   27.2973 C   0  0  0  0  0  0  0  0  0  0  0  0
    3.9500   11.8908   27.6254 C   0  0  0  0  0  0  0  0  0  0  0  0
    4.9801   11.5966   28.6689 C   0  0  0  0  0  0  0  0  0  0  0  0
    6.5589   12.7232   26.5412 N   0  0  0  0  0  0  0  0  0  0  0  0
    7.6289   13.1862   25.8855 C   0  0  0  0  0  0  0  0  0  0  0  0
    8.4458   12.4122   25.0819 C   0  0  0  0  0  0  0  0  0  0  0  0
    9.6174   12.9466   24.5140 N   0  0  0  0  0  0  0  0  0  0  0  0
   10.4054   13.8617   25.2395 N   0  0  0  0  0  0  0  0  0  0  0  0
    9.5590   13.0139   23.0348 C   0  0  0  0  0  0  0  0  0  0  0  0
    9.4584   14.4379   22.4946 C   0  0  0  0  0  0  0  0  0  0  0  0
    9.1801   14.4943   21.0107 C   0  0  0  0  0  0  0  0  0  0  0  0
   10.8860   15.0258   22.5323 C   0  0  0  0  0  0  0  0  0  0  0  0
    8.1815   15.0640   23.1017 C   0  0  0  0  0  0  0  0  0  0  0  0
  1  2  1  0
  2  3  1  0
  3  4  2  0
  3  5  1  0
  5  6  2  0
  6  7  1  0
  7  8  1  0
  8  9  1  0
  9 10  1  0
  7 11  2  0
 11 12  1  0
 12 13  2  0
 13 14  1  0
 14 15  1  0
 14 16  1  0
 16 17  1  0
 17 18  1  0
 17 19  1  0
 17 20  1  0
 13  5  1  0
 10  8  1  0
M  END
>  <energy_score>  (3047) 
-24.276793

>  <inchikey>  (3047) 
RHLQHEYSSLRSNB-UHFFFAOYSA-N

>  <smiles>  (3047) 
COC(=O)c1cc(C2CC2)ncc1N(N)CC(C)(C)C

>  <ref_pdb>  (3047) 
A0528a

>  <alias>  (3047) 
RHLQHEYSSLRSNB-UHFFFAOYSA-N-P15-P15-P308-601501

>  <HIPPO Pose ID>  (3047) 
501770

>  <name>  (3047) 
RHLQHEYSSLRSNB-UHFFFAOYSA-N-P15-P15-P308-601501

>  <HIPPO Compound ID>  (3047) 
292599

>  <ref_mols>  (3047) 
A4331a,A0514a

>  <distance_score>  (3047) 
1.482882

>  <inspiration_score>  (3047) 
None

$$$$
RHLQHEYSSLRSNB-UHFFFAOYSA-N-P308-P15-P308-601501
     RDKit          3D

 20 21  0  0  0  0  0  0  0  0999 V2000
    9.3727    9.6237   24.3806 C   0  0  0  0  0  0  0  0  0  0  0  0
    8.8734   10.4353   23.3178 O   0  0  0  0  0  0  0  0  0  0  0  0
    8.1868   11.5698   23.5524 C   0  0  0  0  0  0  0  0  0  0  0  0
    7.7409   12.3004   22.6708 O   0  0  0  0  0  0  0  0  0  0  0  0
    7.8938   12.0151   24.8867 C   0  0  0  0  0  0  0  0  0  0  0  0
    6.7573   11.4392   25.4672 C   0  0  0  0  0  0  0  0  0  0  0  0
    6.1376   12.1244   26.4864 C   0  0  0  0  0  0  0  0  0  0  0  0
    4.9145   11.6090   27.1834 C   0  0  0  0  0  0  0  0  0  0  0  0
    3.6825   12.4826   27.2324 C   0  0  0  0  0  0  0  0  0  0  0  0
    4.4838   12.2670   28.4781 C   0  0  0  0  0  0  0  0  0  0  0  0
    6.6122   13.3275   26.8755 N   0  0  0  0  0  0  0  0  0  0  0  0
    7.7296   13.8263   26.3021 C   0  0  0  0  0  0  0  0  0  0  0  0
    8.4865   13.1948   25.3335 C   0  0  0  0  0  0  0  0  0  0  0  0
    9.7356   13.6892   24.9378 N   0  0  0  0  0  0  0  0  0  0  0  0
   10.5136   14.4060   25.8848 N   0  0  0  0  0  0  0  0  0  0  0  0
   10.1557   13.7885   23.5193 C   0  0  0  0  0  0  0  0  0  0  0  0
    9.7622   15.1039   22.8061 C   0  0  0  0  0  0  0  0  0  0  0  0
    9.6938   14.8552   21.2888 C   0  0  0  0  0  0  0  0  0  0  0  0
   10.8729   16.1320   23.0444 C   0  0  0  0  0  0  0  0  0  0  0  0
    8.4131   15.6966   23.2401 C   0  0  0  0  0  0  0  0  0  0  0  0
  1  2  1  0
  2  3  1  0
  3  4  2  0
  3  5  1  0
  5  6  2  0
  6  7  1  0
  7  8  1  0
  8  9  1  0
  9 10  1  0
  7 11  2  0
 11 12  1  0
 12 13  2  0
 13 14  1  0
 14 15  1  0
 14 16  1  0
 16 17  1  0
 17 18  1  0
 17 19  1  0
 17 20  1  0
 13  5  1  0
 10  8  1  0
M  END
>  <energy_score>  (3048) 
-22.685104

>  <inchikey>  (3048) 
RHLQHEYSSLRSNB-UHFFFAOYSA-N

>  <smiles>  (3048) 
COC(=O)c1cc(C2CC2)ncc1N(N)CC(C)(C)C

>  <ref_pdb>  (3048) 
A0528a

>  <alias>  (3048) 
RHLQHEYSSLRSNB-UHFFFAOYSA-N-P308-P15-P308-601501

>  <HIPPO Pose ID>  (3048) 
501771

>  <name>  (3048) 
RHLQHEYSSLRSNB-UHFFFAOYSA-N-P308-P15-P308-601501

>  <HIPPO Compound ID>  (3048) 
292599

>  <ref_mols>  (3048) 
A4331a,A0514a

>  <distance_score>  (3048) 
1.66072

>  <inspiration_score>  (3048) 
None

$$$$
DJESJVRIEJCZAC-UHFFFAOYSA-N-P15-P15-P308-601501
     RDKit          3D

 20 22  0  0  0  0  0  0  0  0999 V2000
    9.4308    8.5221   23.4545 C   0  0  0  0  0  0  0  0  0  0  0  0
    8.7305    9.3918   24.3498 O   0  0  0  0  0  0  0  0  0  0  0  0
    8.7580   10.6702   23.9164 C   0  0  0  0  0  0  0  0  0  0  0  0
    9.2605   11.0260   22.8746 O   0  0  0  0  0  0  0  0  0  0  0  0
    8.0868   11.6033   24.8258 C   0  0  0  0  0  0  0  0  0  0  0  0
    6.9814   11.0980   25.5261 C   0  0  0  0  0  0  0  0  0  0  0  0
    6.3008   11.9260   26.3988 C   0  0  0  0  0  0  0  0  0  0  0  0
    5.1285   11.4467   27.2039 C   0  0  0  0  0  0  0  0  0  0  0  0
    4.9153   11.9765   28.6022 C   0  0  0  0  0  0  0  0  0  0  0  0
    4.0103   12.4266   27.4966 C   0  0  0  0  0  0  0  0  0  0  0  0
    6.6867   13.2102   26.5696 N   0  0  0  0  0  0  0  0  0  0  0  0
    7.7189   13.6896   25.8497 C   0  0  0  0  0  0  0  0  0  0  0  0
    8.4999   12.9417   24.9805 C   0  0  0  0  0  0  0  0  0  0  0  0
    9.6500   13.5572   24.3880 N   0  0  0  0  0  0  0  0  0  0  0  0
   10.5124   14.2442   25.2934 N   0  0  0  0  0  0  0  0  0  0  0  0
    9.7753   13.8426   22.9372 C   0  0  0  0  0  0  0  0  0  0  0  0
    8.4184   14.0121   22.2654 C   0  0  0  0  0  0  0  0  0  0  0  0
   10.6919   15.0009   22.4391 C   0  0  0  0  0  0  0  0  0  0  0  0
   11.3846   14.1181   21.5349 O   0  0  0  0  0  0  0  0  0  0  0  0
   10.9635   13.0241   22.3683 C   0  0  0  0  0  0  0  0  0  0  0  0
  1  2  1  0
  2  3  1  0
  3  4  2  0
  3  5  1  0
  5  6  2  0
  6  7  1  0
  7  8  1  0
  8  9  1  0
  9 10  1  0
  7 11  2  0
 11 12  1  0
 12 13  2  0
 13 14  1  0
 14 15  1  0
 14 16  1  0
 16 17  1  0
 16 18  1  0
 18 19  1  0
 19 20  1  0
 13  5  1  0
 20 16  1  0
 10  8  1  0
M  END
>  <energy_score>  (3049) 
-32.602961

>  <inchikey>  (3049) 
DJESJVRIEJCZAC-UHFFFAOYSA-N

>  <smiles>  (3049) 
COC(=O)c1cc(C2CC2)ncc1N(N)C1(C)COC1

>  <ref_pdb>  (3049) 
A0528a

>  <alias>  (3049) 
DJESJVRIEJCZAC-UHFFFAOYSA-N-P15-P15-P308-601501

>  <HIPPO Pose ID>  (3049) 
501774

>  <name>  (3049) 
DJESJVRIEJCZAC-UHFFFAOYSA-N-P15-P15-P308-601501

>  <HIPPO Compound ID>  (3049) 
292601

>  <ref_mols>  (3049) 
A4331a,A0514a

>  <distance_score>  (3049) 
1.781499

>  <inspiration_score>  (3049) 
None

$$$$
DJESJVRIEJCZAC-UHFFFAOYSA-N-P308-P15-P308-601501
     RDKit          3D

 20 22  0  0  0  0  0  0  0  0999 V2000
    9.6228    8.4717   23.4786 C   0  0  0  0  0  0  0  0  0  0  0  0
    8.8357    9.3423   24.2825 O   0  0  0  0  0  0  0  0  0  0  0  0
    8.8699   10.6188   23.8373 C   0  0  0  0  0  0  0  0  0  0  0  0
    9.4427   11.0028   22.8313 O   0  0  0  0  0  0  0  0  0  0  0  0
    8.1065   11.4970   24.7456 C   0  0  0  0  0  0  0  0  0  0  0  0
    7.0299   10.9662   25.4717 C   0  0  0  0  0  0  0  0  0  0  0  0
    6.2584   11.8151   26.2532 C   0  0  0  0  0  0  0  0  0  0  0  0
    5.0766   11.3358   27.0501 C   0  0  0  0  0  0  0  0  0  0  0  0
    4.8452   11.8861   28.4405 C   0  0  0  0  0  0  0  0  0  0  0  0
    3.9463   12.3115   27.3231 C   0  0  0  0  0  0  0  0  0  0  0  0
    6.5511   13.1333   26.3411 N   0  0  0  0  0  0  0  0  0  0  0  0
    7.5758   13.6218   25.6238 C   0  0  0  0  0  0  0  0  0  0  0  0
    8.3904   12.8664   24.8001 C   0  0  0  0  0  0  0  0  0  0  0  0
    9.3955   13.5305   24.0563 N   0  0  0  0  0  0  0  0  0  0  0  0
   10.7133   13.0550   24.2784 N   0  0  0  0  0  0  0  0  0  0  0  0
    9.0908   14.3613   22.8699 C   0  0  0  0  0  0  0  0  0  0  0  0
    7.6702   14.2060   22.3513 C   0  0  0  0  0  0  0  0  0  0  0  0
    9.5332   15.8189   23.0828 C   0  0  0  0  0  0  0  0  0  0  0  0
   10.7074   15.6315   22.2551 O   0  0  0  0  0  0  0  0  0  0  0  0
   10.1686   14.3822   21.7524 C   0  0  0  0  0  0  0  0  0  0  0  0
  1  2  1  0
  2  3  1  0
  3  4  2  0
  3  5  1  0
  5  6  2  0
  6  7  1  0
  7  8  1  0
  8  9  1  0
  9 10  1  0
  7 11  2  0
 11 12  1  0
 12 13  2  0
 13 14  1  0
 14 15  1  0
 14 16  1  0
 16 17  1  0
 16 18  1  0
 18 19  1  0
 19 20  1  0
 13  5  1  0
 20 16  1  0
 10  8  1  0
M  END
>  <energy_score>  (3050) 
-43.064804

>  <inchikey>  (3050) 
DJESJVRIEJCZAC-UHFFFAOYSA-N

>  <smiles>  (3050) 
COC(=O)c1cc(C2CC2)ncc1N(N)C1(C)COC1

>  <ref_pdb>  (3050) 
A0528a

>  <alias>  (3050) 
DJESJVRIEJCZAC-UHFFFAOYSA-N-P308-P15-P308-601501

>  <HIPPO Pose ID>  (3050) 
501775

>  <name>  (3050) 
DJESJVRIEJCZAC-UHFFFAOYSA-N-P308-P15-P308-601501

>  <HIPPO Compound ID>  (3050) 
292601

>  <ref_mols>  (3050) 
A4331a,A0514a

>  <distance_score>  (3050) 
1.563726

>  <inspiration_score>  (3050) 
None

$$$$
DJJKZOIYRAIUHG-UHFFFAOYSA-N-P15-P15-P308-601501
     RDKit          3D

 20 21  0  0  0  0  0  0  0  0999 V2000
   12.0507   15.5122   21.6501 C   0  0  0  0  0  0  0  0  0  0  0  0
   11.8733   14.9652   22.9563 O   0  0  0  0  0  0  0  0  0  0  0  0
   11.5947   13.5833   22.8707 C   0  0  0  0  0  0  0  0  0  0  0  0
   10.1920   13.2843   22.3906 C   0  0  0  0  0  0  0  0  0  0  0  0
    9.0402   13.7284   23.2653 C   0  0  0  0  0  0  0  0  0  0  0  0
    9.1996   13.1733   24.6255 N   0  0  0  0  0  0  0  0  0  0  0  0
    9.9618   13.9940   25.5332 N   0  0  0  0  0  0  0  0  0  0  0  0
    7.9370   12.7817   25.1383 C   0  0  0  0  0  0  0  0  0  0  0  0
    7.0937   13.7493   25.6793 C   0  0  0  0  0  0  0  0  0  0  0  0
    5.9661   13.5042   26.3566 N   0  0  0  0  0  0  0  0  0  0  0  0
    5.5939   12.2253   26.5220 C   0  0  0  0  0  0  0  0  0  0  0  0
    4.4390   12.0045   27.4363 C   0  0  0  0  0  0  0  0  0  0  0  0
    4.5847   11.1763   28.6816 C   0  0  0  0  0  0  0  0  0  0  0  0
    4.5057   12.6691   28.7955 C   0  0  0  0  0  0  0  0  0  0  0  0
    6.2923   11.1914   25.9270 C   0  0  0  0  0  0  0  0  0  0  0  0
    7.4660   11.4644   25.2066 C   0  0  0  0  0  0  0  0  0  0  0  0
    8.0832   10.2534   24.6238 C   0  0  0  0  0  0  0  0  0  0  0  0
    7.6787    9.1437   24.9442 O   0  0  0  0  0  0  0  0  0  0  0  0
    9.0331   10.4950   23.7012 O   0  0  0  0  0  0  0  0  0  0  0  0
    9.5854    9.3008   23.1337 C   0  0  0  0  0  0  0  0  0  0  0  0
  1  2  1  0
  2  3  1  0
  3  4  1  0
  4  5  1  0
  5  6  1  0
  6  7  1  0
  6  8  1  0
  8  9  2  0
  9 10  1  0
 10 11  2  0
 11 12  1  0
 12 13  1  0
 13 14  1  0
 11 15  1  0
 15 16  2  0
 16 17  1  0
 17 18  2  0
 17 19  1  0
 19 20  1  0
 16  8  1  0
 14 12  1  0
M  END
>  <energy_score>  (3051) 
-21.256298

>  <inchikey>  (3051) 
DJJKZOIYRAIUHG-UHFFFAOYSA-N

>  <smiles>  (3051) 
COCCCN(N)c1cnc(C2CC2)cc1C(=O)OC

>  <ref_pdb>  (3051) 
A0528a

>  <alias>  (3051) 
DJJKZOIYRAIUHG-UHFFFAOYSA-N-P15-P15-P308-601501

>  <HIPPO Pose ID>  (3051) 
501778

>  <name>  (3051) 
DJJKZOIYRAIUHG-UHFFFAOYSA-N-P15-P15-P308-601501

>  <HIPPO Compound ID>  (3051) 
292603

>  <ref_mols>  (3051) 
A4331a,A0514a

>  <distance_score>  (3051) 
1.87004

>  <inspiration_score>  (3051) 
None

$$$$
DJJKZOIYRAIUHG-UHFFFAOYSA-N-P308-P15-P308-601501
     RDKit          3D

 20 21  0  0  0  0  0  0  0  0999 V2000
   12.2608   16.0084   21.4795 C   0  0  0  0  0  0  0  0  0  0  0  0
   12.0830   15.6264   22.8387 O   0  0  0  0  0  0  0  0  0  0  0  0
   10.7146   15.4630   23.1821 C   0  0  0  0  0  0  0  0  0  0  0  0
   10.1292   14.2299   22.5062 C   0  0  0  0  0  0  0  0  0  0  0  0
    8.9013   13.7387   23.2429 C   0  0  0  0  0  0  0  0  0  0  0  0
    9.2213   12.7707   24.3229 N   0  0  0  0  0  0  0  0  0  0  0  0
   10.3632   12.9182   25.1418 N   0  0  0  0  0  0  0  0  0  0  0  0
    8.0590   12.4522   25.0527 C   0  0  0  0  0  0  0  0  0  0  0  0
    7.3895   13.4587   25.7413 C   0  0  0  0  0  0  0  0  0  0  0  0
    6.2476   13.3031   26.4175 N   0  0  0  0  0  0  0  0  0  0  0  0
    5.6956   12.0772   26.4529 C   0  0  0  0  0  0  0  0  0  0  0  0
    4.3997   11.9937   27.1833 C   0  0  0  0  0  0  0  0  0  0  0  0
    4.2065   11.1268   28.3921 C   0  0  0  0  0  0  0  0  0  0  0  0
    4.3514   12.6092   28.5661 C   0  0  0  0  0  0  0  0  0  0  0  0
    6.3076   10.9909   25.8481 C   0  0  0  0  0  0  0  0  0  0  0  0
    7.5069   11.1732   25.1443 C   0  0  0  0  0  0  0  0  0  0  0  0
    8.0793    9.9406   24.5601 C   0  0  0  0  0  0  0  0  0  0  0  0
    7.6676    8.8413   24.9071 O   0  0  0  0  0  0  0  0  0  0  0  0
    8.9892   10.1664   23.5923 O   0  0  0  0  0  0  0  0  0  0  0  0
    9.5521    8.9764   23.0428 C   0  0  0  0  0  0  0  0  0  0  0  0
  1  2  1  0
  2  3  1  0
  3  4  1  0
  4  5  1  0
  5  6  1  0
  6  7  1  0
  6  8  1  0
  8  9  2  0
  9 10  1  0
 10 11  2  0
 11 12  1  0
 12 13  1  0
 13 14  1  0
 11 15  1  0
 15 16  2  0
 16 17  1  0
 17 18  2  0
 17 19  1  0
 19 20  1  0
 16  8  1  0
 14 12  1  0
M  END
>  <energy_score>  (3052) 
-22.327805

>  <inchikey>  (3052) 
DJJKZOIYRAIUHG-UHFFFAOYSA-N

>  <smiles>  (3052) 
COCCCN(N)c1cnc(C2CC2)cc1C(=O)OC

>  <ref_pdb>  (3052) 
A0528a

>  <alias>  (3052) 
DJJKZOIYRAIUHG-UHFFFAOYSA-N-P308-P15-P308-601501

>  <HIPPO Pose ID>  (3052) 
501779

>  <name>  (3052) 
DJJKZOIYRAIUHG-UHFFFAOYSA-N-P308-P15-P308-601501

>  <HIPPO Compound ID>  (3052) 
292603

>  <ref_mols>  (3052) 
A4331a,A0514a

>  <distance_score>  (3052) 
1.739897

>  <inspiration_score>  (3052) 
None

$$$$
ZRILEGQRLALMHU-UHFFFAOYSA-N-P15-P15-P308-601501
     RDKit          3D

 20 22  0  0  0  0  0  0  0  0999 V2000
    9.2073    8.6152   23.0490 C   0  0  0  0  0  0  0  0  0  0  0  0
    8.4416    9.5248   23.8467 O   0  0  0  0  0  0  0  0  0  0  0  0
    9.0266   10.7392   23.9702 C   0  0  0  0  0  0  0  0  0  0  0  0
   10.1148   11.0241   23.5004 O   0  0  0  0  0  0  0  0  0  0  0  0
    8.1941   11.6787   24.7712 C   0  0  0  0  0  0  0  0  0  0  0  0
    7.0538   11.2034   25.4457 C   0  0  0  0  0  0  0  0  0  0  0  0
    6.2893   12.0936   26.1941 C   0  0  0  0  0  0  0  0  0  0  0  0
    5.0509   11.7375   26.9429 C   0  0  0  0  0  0  0  0  0  0  0  0
    5.0080   10.7197   28.0413 C   0  0  0  0  0  0  0  0  0  0  0  0
    4.9753   12.1755   28.3928 C   0  0  0  0  0  0  0  0  0  0  0  0
    6.6148   13.3965   26.2821 N   0  0  0  0  0  0  0  0  0  0  0  0
    7.6847   13.8389   25.6171 C   0  0  0  0  0  0  0  0  0  0  0  0
    8.5357   13.0401   24.8677 C   0  0  0  0  0  0  0  0  0  0  0  0
    9.6368   13.7107   24.2917 N   0  0  0  0  0  0  0  0  0  0  0  0
   10.9317   13.2616   24.6221 N   0  0  0  0  0  0  0  0  0  0  0  0
    9.3769   14.0512   22.8761 C   0  0  0  0  0  0  0  0  0  0  0  0
   10.5168   14.8498   22.2856 C   0  0  0  0  0  0  0  0  0  0  0  0
   11.6734   14.1769   21.5893 C   0  0  0  0  0  0  0  0  0  0  0  0
   11.2758   14.7128   20.3081 O   0  0  0  0  0  0  0  0  0  0  0  0
   10.2129   15.4691   20.9256 C   0  0  0  0  0  0  0  0  0  0  0  0
  1  2  1  0
  2  3  1  0
  3  4  2  0
  3  5  1  0
  5  6  2  0
  6  7  1  0
  7  8  1  0
  8  9  1  0
  9 10  1  0
  7 11  2  0
 11 12  1  0
 12 13  2  0
 13 14  1  0
 14 15  1  0
 14 16  1  0
 16 17  1  0
 17 18  1  0
 18 19  1  0
 19 20  1  0
 13  5  1  0
 20 17  1  0
 10  8  1  0
M  END
>  <energy_score>  (3053) 
-39.373248

>  <inchikey>  (3053) 
ZRILEGQRLALMHU-UHFFFAOYSA-N

>  <smiles>  (3053) 
COC(=O)c1cc(C2CC2)ncc1N(N)CC1COC1

>  <ref_pdb>  (3053) 
A0528a

>  <alias>  (3053) 
ZRILEGQRLALMHU-UHFFFAOYSA-N-P15-P15-P308-601501

>  <HIPPO Pose ID>  (3053) 
501780

>  <name>  (3053) 
ZRILEGQRLALMHU-UHFFFAOYSA-N-P15-P15-P308-601501

>  <HIPPO Compound ID>  (3053) 
292604

>  <ref_mols>  (3053) 
A4331a,A0514a

>  <distance_score>  (3053) 
1.63721

>  <inspiration_score>  (3053) 
None

$$$$
ZRILEGQRLALMHU-UHFFFAOYSA-N-P308-P15-P308-601501
     RDKit          3D

 20 22  0  0  0  0  0  0  0  0999 V2000
    9.1904    8.5660   23.1336 C   0  0  0  0  0  0  0  0  0  0  0  0
    8.4089    9.5169   23.8530 O   0  0  0  0  0  0  0  0  0  0  0  0
    9.1599   10.4089   24.5418 C   0  0  0  0  0  0  0  0  0  0  0  0
   10.3769   10.3789   24.6472 O   0  0  0  0  0  0  0  0  0  0  0  0
    8.2643   11.4541   25.0963 C   0  0  0  0  0  0  0  0  0  0  0  0
    7.0159   11.0778   25.6259 C   0  0  0  0  0  0  0  0  0  0  0  0
    6.1833   12.0627   26.1458 C   0  0  0  0  0  0  0  0  0  0  0  0
    4.8179   11.8384   26.7048 C   0  0  0  0  0  0  0  0  0  0  0  0
    4.4867   10.9149   27.8387 C   0  0  0  0  0  0  0  0  0  0  0  0
    4.5746   12.3860   28.1008 C   0  0  0  0  0  0  0  0  0  0  0  0
    6.5560   13.3580   26.1576 N   0  0  0  0  0  0  0  0  0  0  0  0
    7.7333   13.6984   25.6253 C   0  0  0  0  0  0  0  0  0  0  0  0
    8.6342   12.8055   25.0693 C   0  0  0  0  0  0  0  0  0  0  0  0
    9.7608   13.3672   24.4465 N   0  0  0  0  0  0  0  0  0  0  0  0
   11.0261   12.9529   24.8952 N   0  0  0  0  0  0  0  0  0  0  0  0
    9.5269   13.6623   23.0171 C   0  0  0  0  0  0  0  0  0  0  0  0
    9.6684   15.1543   22.7692 C   0  0  0  0  0  0  0  0  0  0  0  0
   11.0997   15.6421   22.5215 C   0  0  0  0  0  0  0  0  0  0  0  0
   10.8857   15.5891   21.0843 O   0  0  0  0  0  0  0  0  0  0  0  0
    9.4536   15.5645   21.3088 C   0  0  0  0  0  0  0  0  0  0  0  0
  1  2  1  0
  2  3  1  0
  3  4  2  0
  3  5  1  0
  5  6  2  0
  6  7  1  0
  7  8  1  0
  8  9  1  0
  9 10  1  0
  7 11  2  0
 11 12  1  0
 12 13  2  0
 13 14  1  0
 14 15  1  0
 14 16  1  0
 16 17  1  0
 17 18  1  0
 18 19  1  0
 19 20  1  0
 13  5  1  0
 20 17  1  0
 10  8  1  0
M  END
>  <energy_score>  (3054) 
-39.499496

>  <inchikey>  (3054) 
ZRILEGQRLALMHU-UHFFFAOYSA-N

>  <smiles>  (3054) 
COC(=O)c1cc(C2CC2)ncc1N(N)CC1COC1

>  <ref_pdb>  (3054) 
A0528a

>  <alias>  (3054) 
ZRILEGQRLALMHU-UHFFFAOYSA-N-P308-P15-P308-601501

>  <HIPPO Pose ID>  (3054) 
501781

>  <name>  (3054) 
ZRILEGQRLALMHU-UHFFFAOYSA-N-P308-P15-P308-601501

>  <HIPPO Compound ID>  (3054) 
292604

>  <ref_mols>  (3054) 
A4331a,A0514a

>  <distance_score>  (3054) 
1.437426

>  <inspiration_score>  (3054) 
None

$$$$
XCYAVCYOOLTXHF-UHFFFAOYSA-N-P15-P15-P308-601501
     RDKit          3D

 20 22  0  0  0  0  0  0  0  0999 V2000
    9.2613    8.4725   22.9670 C   0  0  0  0  0  0  0  0  0  0  0  0
    8.3770    9.2753   23.7522 O   0  0  0  0  0  0  0  0  0  0  0  0
    8.7617   10.5681   23.8200 C   0  0  0  0  0  0  0  0  0  0  0  0
    9.7644   11.0288   23.3109 O   0  0  0  0  0  0  0  0  0  0  0  0
    7.8329   11.3582   24.6522 C   0  0  0  0  0  0  0  0  0  0  0  0
    7.0702   10.7197   25.6348 C   0  0  0  0  0  0  0  0  0  0  0  0
    6.3155   11.4876   26.5102 C   0  0  0  0  0  0  0  0  0  0  0  0
    5.3858   10.8837   27.5221 C   0  0  0  0  0  0  0  0  0  0  0  0
    5.3512   11.4458   28.9232 C   0  0  0  0  0  0  0  0  0  0  0  0
    4.2059   11.7123   27.9967 C   0  0  0  0  0  0  0  0  0  0  0  0
    6.4005   12.8355   26.4980 N   0  0  0  0  0  0  0  0  0  0  0  0
    7.0470   13.4270   25.4828 C   0  0  0  0  0  0  0  0  0  0  0  0
    7.7109   12.7413   24.4769 C   0  0  0  0  0  0  0  0  0  0  0  0
    7.8949   13.3752   23.2178 N   0  0  0  0  0  0  0  0  0  0  0  0
    6.7450   14.1140   22.7924 N   0  0  0  0  0  0  0  0  0  0  0  0
    9.0661   13.9459   22.7737 C   0  0  0  0  0  0  0  0  0  0  0  0
    9.2569   14.6098   21.5682 C   0  0  0  0  0  0  0  0  0  0  0  0
   10.6055   14.9721   21.3042 C   0  0  0  0  0  0  0  0  0  0  0  0
   11.4260   14.6210   22.3420 C   0  0  0  0  0  0  0  0  0  0  0  0
   10.5706   13.8917   23.6237 S   0  0  0  0  0  0  0  0  0  0  0  0
  1  2  1  0
  2  3  1  0
  3  4  2  0
  3  5  1  0
  5  6  2  0
  6  7  1  0
  7  8  1  0
  8  9  1  0
  9 10  1  0
  7 11  2  0
 11 12  1  0
 12 13  2  0
 13 14  1  0
 14 15  1  0
 14 16  1  0
 16 17  2  0
 17 18  1  0
 18 19  2  0
 19 20  1  0
 13  5  1  0
 20 16  1  0
 10  8  1  0
M  END
>  <energy_score>  (3055) 
-16.270927

>  <inchikey>  (3055) 
XCYAVCYOOLTXHF-UHFFFAOYSA-N

>  <smiles>  (3055) 
COC(=O)c1cc(C2CC2)ncc1N(N)c1cccs1

>  <ref_pdb>  (3055) 
A0528a

>  <alias>  (3055) 
XCYAVCYOOLTXHF-UHFFFAOYSA-N-P15-P15-P308-601501

>  <HIPPO Pose ID>  (3055) 
501782

>  <name>  (3055) 
XCYAVCYOOLTXHF-UHFFFAOYSA-N-P15-P15-P308-601501

>  <HIPPO Compound ID>  (3055) 
292605

>  <ref_mols>  (3055) 
A4331a,A0514a

>  <distance_score>  (3055) 
1.78186

>  <inspiration_score>  (3055) 
None

$$$$
XCYAVCYOOLTXHF-UHFFFAOYSA-N-P308-P15-P308-601501
     RDKit          3D

 20 22  0  0  0  0  0  0  0  0999 V2000
    9.2486    8.6579   23.1974 C   0  0  0  0  0  0  0  0  0  0  0  0
    8.4198    9.5722   23.9151 O   0  0  0  0  0  0  0  0  0  0  0  0
    9.1202   10.5917   24.4701 C   0  0  0  0  0  0  0  0  0  0  0  0
   10.3335   10.7117   24.4561 O   0  0  0  0  0  0  0  0  0  0  0  0
    8.1742   11.5675   25.0655 C   0  0  0  0  0  0  0  0  0  0  0  0
    6.9375   11.1451   25.5816 C   0  0  0  0  0  0  0  0  0  0  0  0
    6.1164   12.0857   26.1938 C   0  0  0  0  0  0  0  0  0  0  0  0
    4.7585   11.8165   26.7492 C   0  0  0  0  0  0  0  0  0  0  0  0
    4.4588   10.8390   27.8464 C   0  0  0  0  0  0  0  0  0  0  0  0
    4.5105   12.2997   28.1680 C   0  0  0  0  0  0  0  0  0  0  0  0
    6.4942   13.3743   26.3208 N   0  0  0  0  0  0  0  0  0  0  0  0
    7.6684   13.7562   25.8060 C   0  0  0  0  0  0  0  0  0  0  0  0
    8.5470   12.9149   25.1467 C   0  0  0  0  0  0  0  0  0  0  0  0
    9.7405   13.4142   24.5746 N   0  0  0  0  0  0  0  0  0  0  0  0
   10.5768   14.1006   25.5053 N   0  0  0  0  0  0  0  0  0  0  0  0
    9.6584   14.1322   23.4031 C   0  0  0  0  0  0  0  0  0  0  0  0
   10.1819   13.7291   22.1944 C   0  0  0  0  0  0  0  0  0  0  0  0
   10.0814   14.7164   21.1707 C   0  0  0  0  0  0  0  0  0  0  0  0
    9.4071   15.8297   21.6060 C   0  0  0  0  0  0  0  0  0  0  0  0
    8.9354   15.6854   23.2375 S   0  0  0  0  0  0  0  0  0  0  0  0
  1  2  1  0
  2  3  1  0
  3  4  2  0
  3  5  1  0
  5  6  2  0
  6  7  1  0
  7  8  1  0
  8  9  1  0
  9 10  1  0
  7 11  2  0
 11 12  1  0
 12 13  2  0
 13 14  1  0
 14 15  1  0
 14 16  1  0
 16 17  2  0
 17 18  1  0
 18 19  2  0
 19 20  1  0
 13  5  1  0
 20 16  1  0
 10  8  1  0
M  END
>  <energy_score>  (3056) 
-24.3571

>  <inchikey>  (3056) 
XCYAVCYOOLTXHF-UHFFFAOYSA-N

>  <smiles>  (3056) 
COC(=O)c1cc(C2CC2)ncc1N(N)c1cccs1

>  <ref_pdb>  (3056) 
A0528a

>  <alias>  (3056) 
XCYAVCYOOLTXHF-UHFFFAOYSA-N-P308-P15-P308-601501

>  <HIPPO Pose ID>  (3056) 
501783

>  <name>  (3056) 
XCYAVCYOOLTXHF-UHFFFAOYSA-N-P308-P15-P308-601501

>  <HIPPO Compound ID>  (3056) 
292605

>  <ref_mols>  (3056) 
A4331a,A0514a

>  <distance_score>  (3056) 
1.550893

>  <inspiration_score>  (3056) 
None

$$$$
GJLMXBJRXGJLFX-UHFFFAOYSA-N-P15-P15-P308-601501
     RDKit          3D

 20 21  0  0  0  0  0  0  0  0999 V2000
    9.2499   15.4970   21.1823 C   0  0  0  0  0  0  0  0  0  0  0  0
    9.5573   14.6295   22.3920 C   0  0  0  0  0  0  0  0  0  0  0  0
    8.3638   14.2706   23.3450 C   0  0  0  0  0  0  0  0  0  0  0  0
    7.2346   13.8090   22.4492 C   0  0  0  0  0  0  0  0  0  0  0  0
    7.7077   15.4269   24.1254 C   0  0  0  0  0  0  0  0  0  0  0  0
    8.8786   13.1528   24.2608 N   0  0  0  0  0  0  0  0  0  0  0  0
   10.1285   13.4316   24.9208 N   0  0  0  0  0  0  0  0  0  0  0  0
    7.9331   12.5751   25.1343 C   0  0  0  0  0  0  0  0  0  0  0  0
    7.4108   13.3140   26.1902 C   0  0  0  0  0  0  0  0  0  0  0  0
    6.4422   12.9205   27.0309 N   0  0  0  0  0  0  0  0  0  0  0  0
    5.8919   11.7106   26.8460 C   0  0  0  0  0  0  0  0  0  0  0  0
    4.6945   11.3645   27.6723 C   0  0  0  0  0  0  0  0  0  0  0  0
    4.4108   12.1116   28.9523 C   0  0  0  0  0  0  0  0  0  0  0  0
    3.5815   12.3915   27.7368 C   0  0  0  0  0  0  0  0  0  0  0  0
    6.4272   10.8411   25.9212 C   0  0  0  0  0  0  0  0  0  0  0  0
    7.4909   11.2511   25.0949 C   0  0  0  0  0  0  0  0  0  0  0  0
    8.0987   10.1276   24.3583 C   0  0  0  0  0  0  0  0  0  0  0  0
    7.7265    8.9874   24.6046 O   0  0  0  0  0  0  0  0  0  0  0  0
    9.0878   10.4483   23.5057 O   0  0  0  0  0  0  0  0  0  0  0  0
    9.6878    9.2875   22.9225 C   0  0  0  0  0  0  0  0  0  0  0  0
  1  2  1  0
  2  3  1  0
  3  4  1  0
  3  5  1  0
  3  6  1  0
  6  7  1  0
  6  8  1  0
  8  9  2  0
  9 10  1  0
 10 11  2  0
 11 12  1  0
 12 13  1  0
 13 14  1  0
 11 15  1  0
 15 16  2  0
 16 17  1  0
 17 18  2  0
 17 19  1  0
 19 20  1  0
 16  8  1  0
 14 12  1  0
M  END
>  <energy_score>  (3057) 
-35.087242

>  <inchikey>  (3057) 
GJLMXBJRXGJLFX-UHFFFAOYSA-N

>  <smiles>  (3057) 
CCC(C)(C)N(N)c1cnc(C2CC2)cc1C(=O)OC

>  <ref_pdb>  (3057) 
A0528a

>  <alias>  (3057) 
GJLMXBJRXGJLFX-UHFFFAOYSA-N-P15-P15-P308-601501

>  <HIPPO Pose ID>  (3057) 
501784

>  <name>  (3057) 
GJLMXBJRXGJLFX-UHFFFAOYSA-N-P15-P15-P308-601501

>  <HIPPO Compound ID>  (3057) 
292606

>  <ref_mols>  (3057) 
A4331a,A0514a

>  <distance_score>  (3057) 
1.985541

>  <inspiration_score>  (3057) 
None

$$$$
GJLMXBJRXGJLFX-UHFFFAOYSA-N-P308-P15-P308-601501
     RDKit          3D

 20 21  0  0  0  0  0  0  0  0999 V2000
   10.0209   15.1226   21.1141 C   0  0  0  0  0  0  0  0  0  0  0  0
   10.1678   14.1670   22.2945 C   0  0  0  0  0  0  0  0  0  0  0  0
    9.0491   14.2116   23.3750 C   0  0  0  0  0  0  0  0  0  0  0  0
    7.6717   14.1560   22.6757 C   0  0  0  0  0  0  0  0  0  0  0  0
    9.1921   15.5428   24.1429 C   0  0  0  0  0  0  0  0  0  0  0  0
    9.2329   12.9870   24.2714 N   0  0  0  0  0  0  0  0  0  0  0  0
   10.4923   12.7971   24.9192 N   0  0  0  0  0  0  0  0  0  0  0  0
    8.1423   12.5892   25.0658 C   0  0  0  0  0  0  0  0  0  0  0  0
    7.5241   13.5026   25.9085 C   0  0  0  0  0  0  0  0  0  0  0  0
    6.3832   13.3031   26.5836 N   0  0  0  0  0  0  0  0  0  0  0  0
    5.7855   12.1076   26.4799 C   0  0  0  0  0  0  0  0  0  0  0  0
    4.4573   11.9958   27.1440 C   0  0  0  0  0  0  0  0  0  0  0  0
    4.2134   11.0880   28.3130 C   0  0  0  0  0  0  0  0  0  0  0  0
    4.3296   12.5658   28.5403 C   0  0  0  0  0  0  0  0  0  0  0  0
    6.3894   11.0723   25.7932 C   0  0  0  0  0  0  0  0  0  0  0  0
    7.5909   11.3002   25.0977 C   0  0  0  0  0  0  0  0  0  0  0  0
    8.1557   10.0738   24.4891 C   0  0  0  0  0  0  0  0  0  0  0  0
    7.7367    8.9707   24.8203 O   0  0  0  0  0  0  0  0  0  0  0  0
    9.1039   10.2980   23.5595 O   0  0  0  0  0  0  0  0  0  0  0  0
    9.6184    9.0993   22.9754 C   0  0  0  0  0  0  0  0  0  0  0  0
  1  2  1  0
  2  3  1  0
  3  4  1  0
  3  5  1  0
  3  6  1  0
  6  7  1  0
  6  8  1  0
  8  9  2  0
  9 10  1  0
 10 11  2  0
 11 12  1  0
 12 13  1  0
 13 14  1  0
 11 15  1  0
 15 16  2  0
 16 17  1  0
 17 18  2  0
 17 19  1  0
 19 20  1  0
 16  8  1  0
 14 12  1  0
M  END
>  <energy_score>  (3058) 
-44.144939

>  <inchikey>  (3058) 
GJLMXBJRXGJLFX-UHFFFAOYSA-N

>  <smiles>  (3058) 
CCC(C)(C)N(N)c1cnc(C2CC2)cc1C(=O)OC

>  <ref_pdb>  (3058) 
A0528a

>  <alias>  (3058) 
GJLMXBJRXGJLFX-UHFFFAOYSA-N-P308-P15-P308-601501

>  <HIPPO Pose ID>  (3058) 
501785

>  <name>  (3058) 
GJLMXBJRXGJLFX-UHFFFAOYSA-N-P308-P15-P308-601501

>  <HIPPO Compound ID>  (3058) 
292606

>  <ref_mols>  (3058) 
A4331a,A0514a

>  <distance_score>  (3058) 
1.879283

>  <inspiration_score>  (3058) 
None

$$$$
XIGRWKFJKHDLCG-UHFFFAOYSA-N-P15-P15-P308-601501
     RDKit          3D

 20 22  0  0  0  0  0  0  0  0999 V2000
    9.0680    8.4498   22.9496 C   0  0  0  0  0  0  0  0  0  0  0  0
    8.3046    9.3591   23.7495 O   0  0  0  0  0  0  0  0  0  0  0  0
    9.0425   10.4449   24.0726 C   0  0  0  0  0  0  0  0  0  0  0  0
   10.2178   10.5687   23.7741 O   0  0  0  0  0  0  0  0  0  0  0  0
    8.2448   11.4843   24.7872 C   0  0  0  0  0  0  0  0  0  0  0  0
    7.0169   11.1355   25.3707 C   0  0  0  0  0  0  0  0  0  0  0  0
    6.3088   12.1030   26.0759 C   0  0  0  0  0  0  0  0  0  0  0  0
    5.0260   11.8565   26.7958 C   0  0  0  0  0  0  0  0  0  0  0  0
    4.9053   10.8750   27.9254 C   0  0  0  0  0  0  0  0  0  0  0  0
    4.9328   12.3414   28.2302 C   0  0  0  0  0  0  0  0  0  0  0  0
    6.7507   13.3717   26.1695 N   0  0  0  0  0  0  0  0  0  0  0  0
    7.9207   13.6902   25.6037 C   0  0  0  0  0  0  0  0  0  0  0  0
    8.7517   12.7935   24.9507 C   0  0  0  0  0  0  0  0  0  0  0  0
   10.0543   13.1935   24.5833 N   0  0  0  0  0  0  0  0  0  0  0  0
   10.7281   14.1712   25.3728 N   0  0  0  0  0  0  0  0  0  0  0  0
   10.2901   13.2001   23.1318 C   0  0  0  0  0  0  0  0  0  0  0  0
   10.0273   14.5346   22.5434 C   0  0  2  0  0  0  0  0  0  0  0  0
    8.6851   14.8658   21.9336 C   0  0  0  0  0  0  0  0  0  0  0  0
    9.8791   14.6069   21.0654 C   0  0  1  0  0  0  0  0  0  0  0  0
   10.5592   15.6808   20.3150 C   0  0  0  0  0  0  0  0  0  0  0  0
  1  2  1  0
  2  3  1  0
  3  4  2  0
  3  5  1  0
  5  6  2  0
  6  7  1  0
  7  8  1  0
  8  9  1  0
  9 10  1  0
  7 11  2  0
 11 12  1  0
 12 13  2  0
 13 14  1  0
 14 15  1  0
 14 16  1  0
 17 16  1  6
 17 18  1  0
 18 19  1  0
 19 20  1  1
 13  5  1  0
 19 17  1  0
 10  8  1  0
M  END
>  <energy_score>  (3059) 
-36.766389

>  <inchikey>  (3059) 
XIGRWKFJKHDLCG-UHFFFAOYSA-N

>  <smiles>  (3059) 
COC(=O)c1cc(C2CC2)ncc1N(N)CC1CC1C

>  <ref_pdb>  (3059) 
A0528a

>  <alias>  (3059) 
XIGRWKFJKHDLCG-UHFFFAOYSA-N-P15-P15-P308-601501

>  <HIPPO Pose ID>  (3059) 
501788

>  <name>  (3059) 
XIGRWKFJKHDLCG-UHFFFAOYSA-N-P15-P15-P308-601501

>  <HIPPO Compound ID>  (3059) 
292608

>  <ref_mols>  (3059) 
A4331a,A0514a

>  <distance_score>  (3059) 
1.842124

>  <inspiration_score>  (3059) 
None

$$$$
XIGRWKFJKHDLCG-UHFFFAOYSA-N-P308-P15-P308-601501
     RDKit          3D

 20 22  0  0  0  0  0  0  0  0999 V2000
    9.2070    8.5636   23.1522 C   0  0  0  0  0  0  0  0  0  0  0  0
    8.3714    9.4520   23.8915 O   0  0  0  0  0  0  0  0  0  0  0  0
    9.0784   10.4182   24.5252 C   0  0  0  0  0  0  0  0  0  0  0  0
   10.2940   10.4889   24.5969 O   0  0  0  0  0  0  0  0  0  0  0  0
    8.1325   11.4136   25.0795 C   0  0  0  0  0  0  0  0  0  0  0  0
    6.9087   11.0197   25.6400 C   0  0  0  0  0  0  0  0  0  0  0  0
    6.0977   11.9964   26.2105 C   0  0  0  0  0  0  0  0  0  0  0  0
    4.7506   11.7659   26.8080 C   0  0  0  0  0  0  0  0  0  0  0  0
    4.4505   10.8015   27.9151 C   0  0  0  0  0  0  0  0  0  0  0  0
    4.5596   12.2610   28.2308 C   0  0  0  0  0  0  0  0  0  0  0  0
    6.4752   13.2914   26.2567 N   0  0  0  0  0  0  0  0  0  0  0  0
    7.6313   13.6452   25.6891 C   0  0  0  0  0  0  0  0  0  0  0  0
    8.4884   12.7641   25.0532 C   0  0  0  0  0  0  0  0  0  0  0  0
    9.6316   13.2389   24.3764 N   0  0  0  0  0  0  0  0  0  0  0  0
   10.6498   13.6974   25.2690 N   0  0  0  0  0  0  0  0  0  0  0  0
    9.2234   14.1283   23.2623 C   0  0  0  0  0  0  0  0  0  0  0  0
   10.4043   14.4273   22.3999 C   0  0  2  0  0  0  0  0  0  0  0  0
   11.2262   15.6715   22.6351 C   0  0  0  0  0  0  0  0  0  0  0  0
   10.3472   15.5642   21.4155 C   0  0  1  0  0  0  0  0  0  0  0  0
   10.9700   15.3993   20.0745 C   0  0  0  0  0  0  0  0  0  0  0  0
  1  2  1  0
  2  3  1  0
  3  4  2  0
  3  5  1  0
  5  6  2  0
  6  7  1  0
  7  8  1  0
  8  9  1  0
  9 10  1  0
  7 11  2  0
 11 12  1  0
 12 13  2  0
 13 14  1  0
 14 15  1  0
 14 16  1  0
 17 16  1  1
 17 18  1  0
 18 19  1  0
 19 20  1  6
 13  5  1  0
 19 17  1  0
 10  8  1  0
M  END
>  <energy_score>  (3060) 
-42.376685

>  <inchikey>  (3060) 
XIGRWKFJKHDLCG-UHFFFAOYSA-N

>  <smiles>  (3060) 
COC(=O)c1cc(C2CC2)ncc1N(N)CC1CC1C

>  <ref_pdb>  (3060) 
A0528a

>  <alias>  (3060) 
XIGRWKFJKHDLCG-UHFFFAOYSA-N-P308-P15-P308-601501

>  <HIPPO Pose ID>  (3060) 
501789

>  <name>  (3060) 
XIGRWKFJKHDLCG-UHFFFAOYSA-N-P308-P15-P308-601501

>  <HIPPO Compound ID>  (3060) 
292608

>  <ref_mols>  (3060) 
A4331a,A0514a

>  <distance_score>  (3060) 
1.789135

>  <inspiration_score>  (3060) 
None

$$$$
ZQSUTBCBICYJQO-UHFFFAOYSA-N-P15-P15-P308-601501
     RDKit          3D

 20 21  0  0  0  0  0  0  0  0999 V2000
   12.7259   15.2639   21.6810 C   0  0  0  0  0  0  0  0  0  0  0  0
   11.9297   14.5259   22.1838 C   0  0  0  0  0  0  0  0  0  0  0  0
   10.9456   13.5865   22.7065 C   0  0  0  0  0  0  0  0  0  0  0  0
    9.5526   14.1312   22.4565 C   0  0  0  0  0  0  0  0  0  0  0  0
    8.4544   13.4539   23.2496 C   0  0  0  0  0  0  0  0  0  0  0  0
    8.8140   13.2161   24.6670 N   0  0  0  0  0  0  0  0  0  0  0  0
    9.3418   14.3307   25.3994 N   0  0  0  0  0  0  0  0  0  0  0  0
    7.7013   12.6044   25.3091 C   0  0  0  0  0  0  0  0  0  0  0  0
    6.8450   13.4055   26.0635 C   0  0  0  0  0  0  0  0  0  0  0  0
    5.8293   12.9700   26.8152 N   0  0  0  0  0  0  0  0  0  0  0  0
    5.5788   11.6525   26.8507 C   0  0  0  0  0  0  0  0  0  0  0  0
    4.5288   11.1908   27.8104 C   0  0  0  0  0  0  0  0  0  0  0  0
    3.2575   11.9924   27.9570 C   0  0  0  0  0  0  0  0  0  0  0  0
    4.2833   12.0276   29.0491 C   0  0  0  0  0  0  0  0  0  0  0  0
    6.3051   10.7770   26.0698 C   0  0  0  0  0  0  0  0  0  0  0  0
    7.3813   11.2409   25.2906 C   0  0  0  0  0  0  0  0  0  0  0  0
    8.0811   10.1429   24.5879 C   0  0  0  0  0  0  0  0  0  0  0  0
    7.7230    8.9875   24.7713 O   0  0  0  0  0  0  0  0  0  0  0  0
    9.0777   10.5124   23.7631 O   0  0  0  0  0  0  0  0  0  0  0  0
    9.6772    9.3977   23.0930 C   0  0  0  0  0  0  0  0  0  0  0  0
  1  2  3  0
  2  3  1  0
  3  4  1  0
  4  5  1  0
  5  6  1  0
  6  7  1  0
  6  8  1  0
  8  9  2  0
  9 10  1  0
 10 11  2  0
 11 12  1  0
 12 13  1  0
 13 14  1  0
 11 15  1  0
 15 16  2  0
 16 17  1  0
 17 18  2  0
 17 19  1  0
 19 20  1  0
 16  8  1  0
 14 12  1  0
M  END
>  <energy_score>  (3061) 
-25.672705

>  <inchikey>  (3061) 
ZQSUTBCBICYJQO-UHFFFAOYSA-N

>  <smiles>  (3061) 
C#CCCCN(N)c1cnc(C2CC2)cc1C(=O)OC

>  <ref_pdb>  (3061) 
A0528a

>  <alias>  (3061) 
ZQSUTBCBICYJQO-UHFFFAOYSA-N-P15-P15-P308-601501

>  <HIPPO Pose ID>  (3061) 
501790

>  <name>  (3061) 
ZQSUTBCBICYJQO-UHFFFAOYSA-N-P15-P15-P308-601501

>  <HIPPO Compound ID>  (3061) 
292609

>  <ref_mols>  (3061) 
A4331a,A0514a

>  <distance_score>  (3061) 
1.692765

>  <inspiration_score>  (3061) 
None

$$$$
ZQSUTBCBICYJQO-UHFFFAOYSA-N-P308-P15-P308-601501
     RDKit          3D

 20 21  0  0  0  0  0  0  0  0999 V2000
   12.5901   16.1338   21.6151 C   0  0  0  0  0  0  0  0  0  0  0  0
   11.6697   15.8335   22.3181 C   0  0  0  0  0  0  0  0  0  0  0  0
   10.5013   15.4609   23.0991 C   0  0  0  0  0  0  0  0  0  0  0  0
    9.8522   14.2417   22.4546 C   0  0  0  0  0  0  0  0  0  0  0  0
    8.6959   13.7348   23.2875 C   0  0  0  0  0  0  0  0  0  0  0  0
    9.1135   12.7394   24.3077 N   0  0  0  0  0  0  0  0  0  0  0  0
   10.2596   12.9497   25.1151 N   0  0  0  0  0  0  0  0  0  0  0  0
    7.9902   12.3185   25.0499 C   0  0  0  0  0  0  0  0  0  0  0  0
    7.2663   13.2485   25.7884 C   0  0  0  0  0  0  0  0  0  0  0  0
    6.1935   12.9717   26.5364 N   0  0  0  0  0  0  0  0  0  0  0  0
    5.7578   11.6980   26.5886 C   0  0  0  0  0  0  0  0  0  0  0  0
    4.6079   11.4150   27.5077 C   0  0  0  0  0  0  0  0  0  0  0  0
    3.4173   12.3435   27.5110 C   0  0  0  0  0  0  0  0  0  0  0  0
    4.3664   12.3574   28.6703 C   0  0  0  0  0  0  0  0  0  0  0  0
    6.3986   10.6994   25.8757 C   0  0  0  0  0  0  0  0  0  0  0  0
    7.5394   11.0000   25.1181 C   0  0  0  0  0  0  0  0  0  0  0  0
    8.1770    9.8299   24.4796 C   0  0  0  0  0  0  0  0  0  0  0  0
    7.8528    8.6955   24.8028 O   0  0  0  0  0  0  0  0  0  0  0  0
    9.0497   10.1414   23.5024 O   0  0  0  0  0  0  0  0  0  0  0  0
    9.6343    8.9934   22.8924 C   0  0  0  0  0  0  0  0  0  0  0  0
  1  2  3  0
  2  3  1  0
  3  4  1  0
  4  5  1  0
  5  6  1  0
  6  7  1  0
  6  8  1  0
  8  9  2  0
  9 10  1  0
 10 11  2  0
 11 12  1  0
 12 13  1  0
 13 14  1  0
 11 15  1  0
 15 16  2  0
 16 17  1  0
 17 18  2  0
 17 19  1  0
 19 20  1  0
 16  8  1  0
 14 12  1  0
M  END
>  <energy_score>  (3062) 
-28.282833

>  <inchikey>  (3062) 
ZQSUTBCBICYJQO-UHFFFAOYSA-N

>  <smiles>  (3062) 
C#CCCCN(N)c1cnc(C2CC2)cc1C(=O)OC

>  <ref_pdb>  (3062) 
A0528a

>  <alias>  (3062) 
ZQSUTBCBICYJQO-UHFFFAOYSA-N-P308-P15-P308-601501

>  <HIPPO Pose ID>  (3062) 
501791

>  <name>  (3062) 
ZQSUTBCBICYJQO-UHFFFAOYSA-N-P308-P15-P308-601501

>  <HIPPO Compound ID>  (3062) 
292609

>  <ref_mols>  (3062) 
A4331a,A0514a

>  <distance_score>  (3062) 
1.534131

>  <inspiration_score>  (3062) 
None

$$$$
UDGIAJVHXUBMAZ-UHFFFAOYSA-N-P15-P15-P308-601501
     RDKit          3D

 20 21  0  0  0  0  0  0  0  0999 V2000
    9.4003    8.6413   23.0100 C   0  0  0  0  0  0  0  0  0  0  0  0
    8.4903    9.3975   23.8084 O   0  0  0  0  0  0  0  0  0  0  0  0
    8.9336   10.6485   24.0777 C   0  0  0  0  0  0  0  0  0  0  0  0
   10.0020   11.1030   23.7127 O   0  0  0  0  0  0  0  0  0  0  0  0
    7.9315   11.3856   24.8907 C   0  0  0  0  0  0  0  0  0  0  0  0
    6.9124   10.6833   25.5506 C   0  0  0  0  0  0  0  0  0  0  0  0
    6.0373   11.3761   26.3785 C   0  0  0  0  0  0  0  0  0  0  0  0
    5.1133   10.6869   27.3394 C   0  0  0  0  0  0  0  0  0  0  0  0
    3.9359   11.4305   27.9356 C   0  0  0  0  0  0  0  0  0  0  0  0
    5.1451   11.1702   28.7775 C   0  0  0  0  0  0  0  0  0  0  0  0
    6.0731   12.7225   26.4634 N   0  0  0  0  0  0  0  0  0  0  0  0
    7.0477   13.3765   25.8246 C   0  0  0  0  0  0  0  0  0  0  0  0
    8.0502   12.7693   25.0820 C   0  0  0  0  0  0  0  0  0  0  0  0
    9.1493   13.5352   24.6235 N   0  0  0  0  0  0  0  0  0  0  0  0
    9.7070   14.3749   25.6284 N   0  0  0  0  0  0  0  0  0  0  0  0
    8.8463   14.1297   23.2970 C   0  0  0  0  0  0  0  0  0  0  0  0
   10.0592   14.1779   22.3529 C   0  0  0  0  0  0  0  0  0  0  0  0
    9.7813   15.1018   21.1711 C   0  0  0  0  0  0  0  0  0  0  0  0
   11.4350   14.4284   22.9444 C   0  0  0  0  0  0  0  0  0  0  0  0
   10.1575   12.9247   21.8270 F   0  0  0  0  0  0  0  0  0  0  0  0
  1  2  1  0
  2  3  1  0
  3  4  2  0
  3  5  1  0
  5  6  2  0
  6  7  1  0
  7  8  1  0
  8  9  1  0
  9 10  1  0
  7 11  2  0
 11 12  1  0
 12 13  2  0
 13 14  1  0
 14 15  1  0
 14 16  1  0
 16 17  1  0
 17 18  1  0
 17 19  1  0
 17 20  1  0
 13  5  1  0
 10  8  1  0
M  END
>  <energy_score>  (3063) 
-28.202571

>  <inchikey>  (3063) 
UDGIAJVHXUBMAZ-UHFFFAOYSA-N

>  <smiles>  (3063) 
COC(=O)c1cc(C2CC2)ncc1N(N)CC(C)(C)F

>  <ref_pdb>  (3063) 
A0528a

>  <alias>  (3063) 
UDGIAJVHXUBMAZ-UHFFFAOYSA-N-P15-P15-P308-601501

>  <HIPPO Pose ID>  (3063) 
501792

>  <name>  (3063) 
UDGIAJVHXUBMAZ-UHFFFAOYSA-N-P15-P15-P308-601501

>  <HIPPO Compound ID>  (3063) 
292610

>  <ref_mols>  (3063) 
A4331a,A0514a

>  <distance_score>  (3063) 
1.462367

>  <inspiration_score>  (3063) 
None

$$$$
UDGIAJVHXUBMAZ-UHFFFAOYSA-N-P308-P15-P308-601501
     RDKit          3D

 20 21  0  0  0  0  0  0  0  0999 V2000
    9.4785    8.6523   23.1076 C   0  0  0  0  0  0  0  0  0  0  0  0
    8.6185    9.5714   23.7724 O   0  0  0  0  0  0  0  0  0  0  0  0
    9.2631   10.5270   24.4755 C   0  0  0  0  0  0  0  0  0  0  0  0
   10.4672   10.6449   24.6399 O   0  0  0  0  0  0  0  0  0  0  0  0
    8.2420   11.4566   25.0001 C   0  0  0  0  0  0  0  0  0  0  0  0
    7.0950   10.9116   25.5976 C   0  0  0  0  0  0  0  0  0  0  0  0
    6.1748   11.7644   26.1915 C   0  0  0  0  0  0  0  0  0  0  0  0
    5.0488   11.2707   27.0585 C   0  0  0  0  0  0  0  0  0  0  0  0
    3.8510   12.1555   27.3341 C   0  0  0  0  0  0  0  0  0  0  0  0
    4.8706   11.9481   28.4071 C   0  0  0  0  0  0  0  0  0  0  0  0
    6.3324   13.1051   26.1221 N   0  0  0  0  0  0  0  0  0  0  0  0
    7.4154   13.6055   25.5109 C   0  0  0  0  0  0  0  0  0  0  0  0
    8.4313   12.8421   24.9620 C   0  0  0  0  0  0  0  0  0  0  0  0
    9.5391   13.5396   24.4427 N   0  0  0  0  0  0  0  0  0  0  0  0
   10.7673   13.3195   25.1277 N   0  0  0  0  0  0  0  0  0  0  0  0
    9.5915   13.5089   22.9606 C   0  0  0  0  0  0  0  0  0  0  0  0
    9.8854   14.8874   22.3445 C   0  0  0  0  0  0  0  0  0  0  0  0
    8.6461   15.7651   22.3008 C   0  0  0  0  0  0  0  0  0  0  0  0
   11.0460   15.6218   23.0049 C   0  0  0  0  0  0  0  0  0  0  0  0
   10.2412   14.6799   21.0349 F   0  0  0  0  0  0  0  0  0  0  0  0
  1  2  1  0
  2  3  1  0
  3  4  2  0
  3  5  1  0
  5  6  2  0
  6  7  1  0
  7  8  1  0
  8  9  1  0
  9 10  1  0
  7 11  2  0
 11 12  1  0
 12 13  2  0
 13 14  1  0
 14 15  1  0
 14 16  1  0
 16 17  1  0
 17 18  1  0
 17 19  1  0
 17 20  1  0
 13  5  1  0
 10  8  1  0
M  END
>  <energy_score>  (3064) 
-43.265696

>  <inchikey>  (3064) 
UDGIAJVHXUBMAZ-UHFFFAOYSA-N

>  <smiles>  (3064) 
COC(=O)c1cc(C2CC2)ncc1N(N)CC(C)(C)F

>  <ref_pdb>  (3064) 
A0528a

>  <alias>  (3064) 
UDGIAJVHXUBMAZ-UHFFFAOYSA-N-P308-P15-P308-601501

>  <HIPPO Pose ID>  (3064) 
501793

>  <name>  (3064) 
UDGIAJVHXUBMAZ-UHFFFAOYSA-N-P308-P15-P308-601501

>  <HIPPO Compound ID>  (3064) 
292610

>  <ref_mols>  (3064) 
A4331a,A0514a

>  <distance_score>  (3064) 
1.429581

>  <inspiration_score>  (3064) 
None

$$$$
PTWWFOCTYPQEMY-UHFFFAOYSA-N-P15-P15-P308-601501
     RDKit          3D

 20 21  0  0  0  0  0  0  0  0999 V2000
    9.6864    8.3416   23.3827 C   0  0  0  0  0  0  0  0  0  0  0  0
    8.7307    9.0510   24.1647 O   0  0  0  0  0  0  0  0  0  0  0  0
    8.7439   10.3576   23.8138 C   0  0  0  0  0  0  0  0  0  0  0  0
    9.4128   10.8001   22.8951 O   0  0  0  0  0  0  0  0  0  0  0  0
    7.9021   11.1763   24.7201 C   0  0  0  0  0  0  0  0  0  0  0  0
    6.9506   10.5776   25.5537 C   0  0  0  0  0  0  0  0  0  0  0  0
    6.2096   11.3789   26.4132 C   0  0  0  0  0  0  0  0  0  0  0  0
    5.2468   10.8228   27.4238 C   0  0  0  0  0  0  0  0  0  0  0  0
    4.0337   11.6334   27.8301 C   0  0  0  0  0  0  0  0  0  0  0  0
    5.1827   11.5007   28.7799 C   0  0  0  0  0  0  0  0  0  0  0  0
    6.3818   12.7185   26.4372 N   0  0  0  0  0  0  0  0  0  0  0  0
    7.2678   13.2753   25.6015 C   0  0  0  0  0  0  0  0  0  0  0  0
    8.0632   12.5694   24.7160 C   0  0  0  0  0  0  0  0  0  0  0  0
    8.9798   13.2192   23.8843 N   0  0  0  0  0  0  0  0  0  0  0  0
   10.3459   13.0285   24.2695 N   0  0  0  0  0  0  0  0  0  0  0  0
    8.5559   14.4578   23.1769 C   0  0  2  0  0  0  0  0  0  0  0  0
    7.2217   14.3010   22.4556 C   0  0  0  0  0  0  0  0  0  0  0  0
    9.5902   14.9090   22.1241 C   0  0  0  0  0  0  0  0  0  0  0  0
   10.8135   15.0357   22.7144 F   0  0  0  0  0  0  0  0  0  0  0  0
    9.7165   13.9903   21.1472 F   0  0  0  0  0  0  0  0  0  0  0  0
  1  2  1  0
  2  3  1  0
  3  4  2  0
  3  5  1  0
  5  6  2  0
  6  7  1  0
  7  8  1  0
  8  9  1  0
  9 10  1  0
  7 11  2  0
 11 12  1  0
 12 13  2  0
 13 14  1  0
 14 15  1  0
 14 16  1  0
 16 17  1  6
 16 18  1  0
 18 19  1  0
 18 20  1  0
 13  5  1  0
 10  8  1  0
M  END
>  <energy_score>  (3065) 
-49.023368

>  <inchikey>  (3065) 
PTWWFOCTYPQEMY-UHFFFAOYSA-N

>  <smiles>  (3065) 
COC(=O)c1cc(C2CC2)ncc1N(N)C(C)C(F)F

>  <ref_pdb>  (3065) 
A0528a

>  <alias>  (3065) 
PTWWFOCTYPQEMY-UHFFFAOYSA-N-P15-P15-P308-601501

>  <HIPPO Pose ID>  (3065) 
501794

>  <name>  (3065) 
PTWWFOCTYPQEMY-UHFFFAOYSA-N-P15-P15-P308-601501

>  <HIPPO Compound ID>  (3065) 
292611

>  <ref_mols>  (3065) 
A4331a,A0514a

>  <distance_score>  (3065) 
1.793483

>  <inspiration_score>  (3065) 
None

$$$$
PTWWFOCTYPQEMY-UHFFFAOYSA-N-P308-P15-P308-601501
     RDKit          3D

 20 21  0  0  0  0  0  0  0  0999 V2000
    9.4080    8.6214   23.0722 C   0  0  0  0  0  0  0  0  0  0  0  0
    8.5067    9.4870   23.7514 O   0  0  0  0  0  0  0  0  0  0  0  0
    9.1202   10.4731   24.4443 C   0  0  0  0  0  0  0  0  0  0  0  0
   10.3221   10.6131   24.6131 O   0  0  0  0  0  0  0  0  0  0  0  0
    8.0705   11.3516   24.9981 C   0  0  0  0  0  0  0  0  0  0  0  0
    6.9957   10.7584   25.6783 C   0  0  0  0  0  0  0  0  0  0  0  0
    6.0851   11.5709   26.3384 C   0  0  0  0  0  0  0  0  0  0  0  0
    4.9974   11.0433   27.2332 C   0  0  0  0  0  0  0  0  0  0  0  0
    3.7781   11.8940   27.5287 C   0  0  0  0  0  0  0  0  0  0  0  0
    4.8232   11.7221   28.5824 C   0  0  0  0  0  0  0  0  0  0  0  0
    6.2174   12.9113   26.3071 N   0  0  0  0  0  0  0  0  0  0  0  0
    7.2251   13.4544   25.6107 C   0  0  0  0  0  0  0  0  0  0  0  0
    8.1749   12.7420   24.8937 C   0  0  0  0  0  0  0  0  0  0  0  0
    9.1564   13.3859   24.1037 N   0  0  0  0  0  0  0  0  0  0  0  0
   10.4159   13.4319   24.7788 N   0  0  0  0  0  0  0  0  0  0  0  0
    8.6789   14.6412   23.4108 C   0  0  2  0  0  0  0  0  0  0  0  0
    7.5047   14.3174   22.4749 C   0  0  0  0  0  0  0  0  0  0  0  0
    9.7558   15.3496   22.5741 C   0  0  0  0  0  0  0  0  0  0  0  0
   10.8728   15.5793   23.3154 F   0  0  0  0  0  0  0  0  0  0  0  0
   10.1244   14.5949   21.5155 F   0  0  0  0  0  0  0  0  0  0  0  0
  1  2  1  0
  2  3  1  0
  3  4  2  0
  3  5  1  0
  5  6  2  0
  6  7  1  0
  7  8  1  0
  8  9  1  0
  9 10  1  0
  7 11  2  0
 11 12  1  0
 12 13  2  0
 13 14  1  0
 14 15  1  0
 14 16  1  0
 16 17  1  6
 16 18  1  0
 18 19  1  0
 18 20  1  0
 13  5  1  0
 10  8  1  0
M  END
>  <energy_score>  (3066) 
-54.353407

>  <inchikey>  (3066) 
PTWWFOCTYPQEMY-UHFFFAOYSA-N

>  <smiles>  (3066) 
COC(=O)c1cc(C2CC2)ncc1N(N)C(C)C(F)F

>  <ref_pdb>  (3066) 
A0528a

>  <alias>  (3066) 
PTWWFOCTYPQEMY-UHFFFAOYSA-N-P308-P15-P308-601501

>  <HIPPO Pose ID>  (3066) 
501795

>  <name>  (3066) 
PTWWFOCTYPQEMY-UHFFFAOYSA-N-P308-P15-P308-601501

>  <HIPPO Compound ID>  (3066) 
292611

>  <ref_mols>  (3066) 
A4331a,A0514a

>  <distance_score>  (3066) 
1.740008

>  <inspiration_score>  (3066) 
None

$$$$
LPTHWXRNIFTFCB-UHFFFAOYSA-N-P15-P15-P308-601501
     RDKit          3D

 20 21  0  0  0  0  0  0  0  0999 V2000
    9.3300    8.6953   23.0527 C   0  0  0  0  0  0  0  0  0  0  0  0
    8.4124    9.4643   23.8373 O   0  0  0  0  0  0  0  0  0  0  0  0
    8.8236   10.7339   24.0687 C   0  0  0  0  0  0  0  0  0  0  0  0
    9.8786   11.2006   23.6816 O   0  0  0  0  0  0  0  0  0  0  0  0
    7.8109   11.4805   24.8644 C   0  0  0  0  0  0  0  0  0  0  0  0
    6.8643   10.7468   25.5953 C   0  0  0  0  0  0  0  0  0  0  0  0
    5.9893   11.4158   26.4388 C   0  0  0  0  0  0  0  0  0  0  0  0
    5.1222   10.7030   27.4335 C   0  0  0  0  0  0  0  0  0  0  0  0
    3.9104   11.3938   28.0209 C   0  0  0  0  0  0  0  0  0  0  0  0
    5.1422   11.2289   28.8558 C   0  0  0  0  0  0  0  0  0  0  0  0
    5.9673   12.7634   26.4932 N   0  0  0  0  0  0  0  0  0  0  0  0
    6.8637   13.4506   25.7805 C   0  0  0  0  0  0  0  0  0  0  0  0
    7.8548   12.8793   24.9980 C   0  0  0  0  0  0  0  0  0  0  0  0
    8.8045   13.7361   24.4425 N   0  0  0  0  0  0  0  0  0  0  0  0
    8.7648   13.9215   22.9939 C   0  0  0  0  0  0  0  0  0  0  0  0
   10.1636   13.8905   22.3542 C   0  0  0  0  0  0  0  0  0  0  0  0
   11.2657   14.4945   23.1437 N   0  0  0  0  0  0  0  0  0  0  0  0
   11.7705   13.5336   24.1361 C   0  0  0  0  0  0  0  0  0  0  0  0
   12.2726   14.9027   22.3983 N   0  0  0  0  0  0  0  0  0  0  0  0
   11.9193   15.7099   21.5365 O   0  0  0  0  0  0  0  0  0  0  0  0
  1  2  1  0
  2  3  1  0
  3  4  2  0
  3  5  1  0
  5  6  2  0
  6  7  1  0
  7  8  1  0
  8  9  1  0
  9 10  1  0
  7 11  2  0
 11 12  1  0
 12 13  2  0
 13 14  1  0
 14 15  1  0
 15 16  1  0
 16 17  1  0
 17 18  1  0
 17 19  1  0
 19 20  2  0
 13  5  1  0
 10  8  1  0
M  END
>  <energy_score>  (3067) 
-30.7221

>  <inchikey>  (3067) 
LPTHWXRNIFTFCB-UHFFFAOYSA-N

>  <smiles>  (3067) 
COC(=O)c1cc(C2CC2)ncc1NCCN(C)N=O

>  <ref_pdb>  (3067) 
A0528a

>  <alias>  (3067) 
LPTHWXRNIFTFCB-UHFFFAOYSA-N-P15-P15-P308-601501

>  <HIPPO Pose ID>  (3067) 
501796

>  <name>  (3067) 
LPTHWXRNIFTFCB-UHFFFAOYSA-N-P15-P15-P308-601501

>  <HIPPO Compound ID>  (3067) 
292612

>  <ref_mols>  (3067) 
A4331a,A0514a

>  <distance_score>  (3067) 
1.53757

>  <inspiration_score>  (3067) 
None

$$$$
LPTHWXRNIFTFCB-UHFFFAOYSA-N-P308-P15-P308-601501
     RDKit          3D

 20 21  0  0  0  0  0  0  0  0999 V2000
    9.6436    8.6119   23.3739 C   0  0  0  0  0  0  0  0  0  0  0  0
    8.6132    9.3725   23.9940 O   0  0  0  0  0  0  0  0  0  0  0  0
    9.0343   10.5779   24.4334 C   0  0  0  0  0  0  0  0  0  0  0  0
   10.1751   11.0141   24.4584 O   0  0  0  0  0  0  0  0  0  0  0  0
    7.8581   11.3566   24.8510 C   0  0  0  0  0  0  0  0  0  0  0  0
    6.9234   10.7639   25.7026 C   0  0  0  0  0  0  0  0  0  0  0  0
    5.9040   11.5431   26.2231 C   0  0  0  0  0  0  0  0  0  0  0  0
    5.0067   11.0784   27.3352 C   0  0  0  0  0  0  0  0  0  0  0  0
    3.7593   11.8555   27.6968 C   0  0  0  0  0  0  0  0  0  0  0  0
    4.9607   11.9467   28.5824 C   0  0  0  0  0  0  0  0  0  0  0  0
    5.7459   12.8178   25.8204 N   0  0  0  0  0  0  0  0  0  0  0  0
    6.6018   13.3278   24.9208 C   0  0  0  0  0  0  0  0  0  0  0  0
    7.7312   12.6846   24.4423 C   0  0  0  0  0  0  0  0  0  0  0  0
    8.5871   13.2540   23.5063 N   0  0  0  0  0  0  0  0  0  0  0  0
    8.5030   14.6859   23.2387 C   0  0  0  0  0  0  0  0  0  0  0  0
    9.7970   15.2150   22.6200 C   0  0  0  0  0  0  0  0  0  0  0  0
   11.0180   14.9038   23.3958 N   0  0  0  0  0  0  0  0  0  0  0  0
   10.9261   15.2508   24.8129 C   0  0  0  0  0  0  0  0  0  0  0  0
   12.1495   15.3270   22.8757 N   0  0  0  0  0  0  0  0  0  0  0  0
   12.1366   15.3779   21.6422 O   0  0  0  0  0  0  0  0  0  0  0  0
  1  2  1  0
  2  3  1  0
  3  4  2  0
  3  5  1  0
  5  6  2  0
  6  7  1  0
  7  8  1  0
  8  9  1  0
  9 10  1  0
  7 11  2  0
 11 12  1  0
 12 13  2  0
 13 14  1  0
 14 15  1  0
 15 16  1  0
 16 17  1  0
 17 18  1  0
 17 19  1  0
 19 20  2  0
 13  5  1  0
 10  8  1  0
M  END
>  <energy_score>  (3068) 
-41.696649

>  <inchikey>  (3068) 
LPTHWXRNIFTFCB-UHFFFAOYSA-N

>  <smiles>  (3068) 
COC(=O)c1cc(C2CC2)ncc1NCCN(C)N=O

>  <ref_pdb>  (3068) 
A0528a

>  <alias>  (3068) 
LPTHWXRNIFTFCB-UHFFFAOYSA-N-P308-P15-P308-601501

>  <HIPPO Pose ID>  (3068) 
501797

>  <name>  (3068) 
LPTHWXRNIFTFCB-UHFFFAOYSA-N-P308-P15-P308-601501

>  <HIPPO Compound ID>  (3068) 
292612

>  <ref_mols>  (3068) 
A4331a,A0514a

>  <distance_score>  (3068) 
1.419725

>  <inspiration_score>  (3068) 
None

$$$$
LLAUMRWDRXHAFK-UHFFFAOYSA-N-P15-P15-P308-601501
     RDKit          3D

 20 22  0  0  0  0  0  0  0  0999 V2000
    9.2822    8.5528   23.2136 C   0  0  0  0  0  0  0  0  0  0  0  0
    8.5816    9.4493   24.0853 O   0  0  0  0  0  0  0  0  0  0  0  0
    8.8590   10.7524   23.8681 C   0  0  0  0  0  0  0  0  0  0  0  0
    9.6230   11.1789   23.0199 O   0  0  0  0  0  0  0  0  0  0  0  0
    8.1103   11.6426   24.7842 C   0  0  0  0  0  0  0  0  0  0  0  0
    6.9698   11.1811   25.4578 C   0  0  0  0  0  0  0  0  0  0  0  0
    6.2485   12.0788   26.2385 C   0  0  0  0  0  0  0  0  0  0  0  0
    5.0035   11.7436   26.9857 C   0  0  0  0  0  0  0  0  0  0  0  0
    4.9526   10.7181   28.0772 C   0  0  0  0  0  0  0  0  0  0  0  0
    4.9338   12.1721   28.4381 C   0  0  0  0  0  0  0  0  0  0  0  0
    6.6204   13.3702   26.3578 N   0  0  0  0  0  0  0  0  0  0  0  0
    7.7033   13.7919   25.6989 C   0  0  0  0  0  0  0  0  0  0  0  0
    8.5072   12.9815   24.9183 C   0  0  0  0  0  0  0  0  0  0  0  0
    9.6621   13.5738   24.3782 N   0  0  0  0  0  0  0  0  0  0  0  0
   10.9240   12.9990   24.7276 N   0  0  0  0  0  0  0  0  0  0  0  0
    9.6841   14.1530   23.1158 C   0  0  0  0  0  0  0  0  0  0  0  0
   10.8107   14.4460   22.5328 N   0  0  0  0  0  0  0  0  0  0  0  0
   10.4972   15.0072   21.2164 C   0  0  0  0  0  0  0  0  0  0  0  0
    9.0113   15.2817   21.2090 C   0  0  0  0  0  0  0  0  0  0  0  0
    8.4433   14.4854   22.3536 C   0  0  0  0  0  0  0  0  0  0  0  0
  1  2  1  0
  2  3  1  0
  3  4  2  0
  3  5  1  0
  5  6  2  0
  6  7  1  0
  7  8  1  0
  8  9  1  0
  9 10  1  0
  7 11  2  0
 11 12  1  0
 12 13  2  0
 13 14  1  0
 14 15  1  0
 14 16  1  0
 16 17  2  0
 17 18  1  0
 18 19  1  0
 19 20  1  0
 13  5  1  0
 20 16  1  0
 10  8  1  0
M  END
>  <energy_score>  (3069) 
-41.834888

>  <inchikey>  (3069) 
LLAUMRWDRXHAFK-UHFFFAOYSA-N

>  <smiles>  (3069) 
COC(=O)c1cc(C2CC2)ncc1N(N)C1=NCCC1

>  <ref_pdb>  (3069) 
A0528a

>  <alias>  (3069) 
LLAUMRWDRXHAFK-UHFFFAOYSA-N-P15-P15-P308-601501

>  <HIPPO Pose ID>  (3069) 
501798

>  <name>  (3069) 
LLAUMRWDRXHAFK-UHFFFAOYSA-N-P15-P15-P308-601501

>  <HIPPO Compound ID>  (3069) 
292613

>  <ref_mols>  (3069) 
A4331a,A0514a

>  <distance_score>  (3069) 
1.717881

>  <inspiration_score>  (3069) 
None

$$$$
LLAUMRWDRXHAFK-UHFFFAOYSA-N-P308-P15-P308-601501
     RDKit          3D

 20 22  0  0  0  0  0  0  0  0999 V2000
    9.1912    8.4470   23.0888 C   0  0  0  0  0  0  0  0  0  0  0  0
    8.3904    9.3216   23.8766 O   0  0  0  0  0  0  0  0  0  0  0  0
    9.1259   10.2560   24.5151 C   0  0  0  0  0  0  0  0  0  0  0  0
   10.3426   10.2883   24.6161 O   0  0  0  0  0  0  0  0  0  0  0  0
    8.2252   11.3170   25.0052 C   0  0  0  0  0  0  0  0  0  0  0  0
    6.9920   10.9991   25.5935 C   0  0  0  0  0  0  0  0  0  0  0  0
    6.1937   12.0386   26.0566 C   0  0  0  0  0  0  0  0  0  0  0  0
    4.8420   11.8846   26.6735 C   0  0  0  0  0  0  0  0  0  0  0  0
    4.5095   11.0008   27.8375 C   0  0  0  0  0  0  0  0  0  0  0  0
    4.6751   12.4716   28.0642 C   0  0  0  0  0  0  0  0  0  0  0  0
    6.5876   13.3263   25.9514 N   0  0  0  0  0  0  0  0  0  0  0  0
    7.7351   13.6044   25.3168 C   0  0  0  0  0  0  0  0  0  0  0  0
    8.6065   12.6494   24.8272 C   0  0  0  0  0  0  0  0  0  0  0  0
    9.7676   13.0469   24.1329 N   0  0  0  0  0  0  0  0  0  0  0  0
   10.9976   12.9363   24.8368 N   0  0  0  0  0  0  0  0  0  0  0  0
    9.6756   13.9451   23.0741 C   0  0  0  0  0  0  0  0  0  0  0  0
    8.6250   14.0732   22.3056 N   0  0  0  0  0  0  0  0  0  0  0  0
    9.0012   15.0881   21.2974 C   0  0  0  0  0  0  0  0  0  0  0  0
   10.1177   15.8887   21.9123 C   0  0  0  0  0  0  0  0  0  0  0  0
   10.8395   14.8348   22.7040 C   0  0  0  0  0  0  0  0  0  0  0  0
  1  2  1  0
  2  3  1  0
  3  4  2  0
  3  5  1  0
  5  6  2  0
  6  7  1  0
  7  8  1  0
  8  9  1  0
  9 10  1  0
  7 11  2  0
 11 12  1  0
 12 13  2  0
 13 14  1  0
 14 15  1  0
 14 16  1  0
 16 17  2  0
 17 18  1  0
 18 19  1  0
 19 20  1  0
 13  5  1  0
 20 16  1  0
 10  8  1  0
M  END
>  <energy_score>  (3070) 
-40.413281

>  <inchikey>  (3070) 
LLAUMRWDRXHAFK-UHFFFAOYSA-N

>  <smiles>  (3070) 
COC(=O)c1cc(C2CC2)ncc1N(N)C1=NCCC1

>  <ref_pdb>  (3070) 
A0528a

>  <alias>  (3070) 
LLAUMRWDRXHAFK-UHFFFAOYSA-N-P308-P15-P308-601501

>  <HIPPO Pose ID>  (3070) 
501799

>  <name>  (3070) 
LLAUMRWDRXHAFK-UHFFFAOYSA-N-P308-P15-P308-601501

>  <HIPPO Compound ID>  (3070) 
292613

>  <ref_mols>  (3070) 
A4331a,A0514a

>  <distance_score>  (3070) 
1.500648

>  <inspiration_score>  (3070) 
None

$$$$
FTGMJRPKVSGOCM-UHFFFAOYSA-N-P15-P15-P308-601501
     RDKit          3D

 20 21  0  0  0  0  0  0  0  0999 V2000
    9.2321    8.4524   22.9282 C   0  0  0  0  0  0  0  0  0  0  0  0
    8.4240    9.2960   23.7469 O   0  0  0  0  0  0  0  0  0  0  0  0
    9.0409   10.4626   24.0365 C   0  0  0  0  0  0  0  0  0  0  0  0
   10.1710   10.7505   23.6799 O   0  0  0  0  0  0  0  0  0  0  0  0
    8.1637   11.3565   24.8348 C   0  0  0  0  0  0  0  0  0  0  0  0
    7.0829   10.8043   25.5371 C   0  0  0  0  0  0  0  0  0  0  0  0
    6.3057   11.6275   26.3410 C   0  0  0  0  0  0  0  0  0  0  0  0
    5.1942   11.1000   27.2026 C   0  0  0  0  0  0  0  0  0  0  0  0
    5.1060   11.5580   28.6405 C   0  0  0  0  0  0  0  0  0  0  0  0
    4.1010   12.0539   27.6480 C   0  0  0  0  0  0  0  0  0  0  0  0
    6.5609   12.9514   26.4313 N   0  0  0  0  0  0  0  0  0  0  0  0
    7.5688   13.4753   25.7184 C   0  0  0  0  0  0  0  0  0  0  0  0
    8.4281   12.7372   24.9230 C   0  0  0  0  0  0  0  0  0  0  0  0
    9.4452   13.4607   24.2451 N   0  0  0  0  0  0  0  0  0  0  0  0
   10.7574   13.2314   24.7566 N   0  0  0  0  0  0  0  0  0  0  0  0
    9.2618   13.3091   22.7796 C   0  0  0  0  0  0  0  0  0  0  0  0
    9.2419   14.6062   22.0113 C   0  0  0  0  0  0  0  0  0  0  0  0
   10.6214   15.1922   21.8376 C   0  0  0  0  0  0  0  0  0  0  0  0
    8.7423   14.3621   20.7743 F   0  0  0  0  0  0  0  0  0  0  0  0
    8.3373   15.4283   22.5763 F   0  0  0  0  0  0  0  0  0  0  0  0
  1  2  1  0
  2  3  1  0
  3  4  2  0
  3  5  1  0
  5  6  2  0
  6  7  1  0
  7  8  1  0
  8  9  1  0
  9 10  1  0
  7 11  2  0
 11 12  1  0
 12 13  2  0
 13 14  1  0
 14 15  1  0
 14 16  1  0
 16 17  1  0
 17 18  1  0
 17 19  1  0
 17 20  1  0
 13  5  1  0
 10  8  1  0
M  END
>  <energy_score>  (3071) 
-34.659351

>  <inchikey>  (3071) 
FTGMJRPKVSGOCM-UHFFFAOYSA-N

>  <smiles>  (3071) 
COC(=O)c1cc(C2CC2)ncc1N(N)CC(C)(F)F

>  <ref_pdb>  (3071) 
A0528a

>  <alias>  (3071) 
FTGMJRPKVSGOCM-UHFFFAOYSA-N-P15-P15-P308-601501

>  <HIPPO Pose ID>  (3071) 
501800

>  <name>  (3071) 
FTGMJRPKVSGOCM-UHFFFAOYSA-N-P15-P15-P308-601501

>  <HIPPO Compound ID>  (3071) 
292614

>  <ref_mols>  (3071) 
A4331a,A0514a

>  <distance_score>  (3071) 
1.753321

>  <inspiration_score>  (3071) 
None

$$$$
FTGMJRPKVSGOCM-UHFFFAOYSA-N-P308-P15-P308-601501
     RDKit          3D

 20 21  0  0  0  0  0  0  0  0999 V2000
    9.6198    9.0585   22.8577 C   0  0  0  0  0  0  0  0  0  0  0  0
    9.1133   10.2731   23.4059 O   0  0  0  0  0  0  0  0  0  0  0  0
    8.3390   10.0697   24.4900 C   0  0  0  0  0  0  0  0  0  0  0  0
    8.0205    8.9748   24.9340 O   0  0  0  0  0  0  0  0  0  0  0  0
    7.7957   11.3170   25.0640 C   0  0  0  0  0  0  0  0  0  0  0  0
    6.5544   11.1423   25.6998 C   0  0  0  0  0  0  0  0  0  0  0  0
    5.9053   12.2337   26.2486 C   0  0  0  0  0  0  0  0  0  0  0  0
    4.5625   12.1589   26.8926 C   0  0  0  0  0  0  0  0  0  0  0  0
    4.2877   11.3290   28.1131 C   0  0  0  0  0  0  0  0  0  0  0  0
    4.4111   12.8167   28.2485 C   0  0  0  0  0  0  0  0  0  0  0  0
    6.4568   13.4592   26.2066 N   0  0  0  0  0  0  0  0  0  0  0  0
    7.6352   13.6130   25.5884 C   0  0  0  0  0  0  0  0  0  0  0  0
    8.3722   12.5922   24.9991 C   0  0  0  0  0  0  0  0  0  0  0  0
    9.5872   12.9724   24.4003 N   0  0  0  0  0  0  0  0  0  0  0  0
   10.7591   12.2965   24.8064 N   0  0  0  0  0  0  0  0  0  0  0  0
    9.4105   13.3776   22.9792 C   0  0  0  0  0  0  0  0  0  0  0  0
    9.5569   14.8876   22.7669 C   0  0  0  0  0  0  0  0  0  0  0  0
   10.8759   15.4536   23.2487 C   0  0  0  0  0  0  0  0  0  0  0  0
    9.4175   15.1571   21.4412 F   0  0  0  0  0  0  0  0  0  0  0  0
    8.5456   15.5446   23.3934 F   0  0  0  0  0  0  0  0  0  0  0  0
  1  2  1  0
  2  3  1  0
  3  4  2  0
  3  5  1  0
  5  6  2  0
  6  7  1  0
  7  8  1  0
  8  9  1  0
  9 10  1  0
  7 11  2  0
 11 12  1  0
 12 13  2  0
 13 14  1  0
 14 15  1  0
 14 16  1  0
 16 17  1  0
 17 18  1  0
 17 19  1  0
 17 20  1  0
 13  5  1  0
 10  8  1  0
M  END
>  <energy_score>  (3072) 
-38.430597

>  <inchikey>  (3072) 
FTGMJRPKVSGOCM-UHFFFAOYSA-N

>  <smiles>  (3072) 
COC(=O)c1cc(C2CC2)ncc1N(N)CC(C)(F)F

>  <ref_pdb>  (3072) 
A0528a

>  <alias>  (3072) 
FTGMJRPKVSGOCM-UHFFFAOYSA-N-P308-P15-P308-601501

>  <HIPPO Pose ID>  (3072) 
501801

>  <name>  (3072) 
FTGMJRPKVSGOCM-UHFFFAOYSA-N-P308-P15-P308-601501

>  <HIPPO Compound ID>  (3072) 
292614

>  <ref_mols>  (3072) 
A4331a,A0514a

>  <distance_score>  (3072) 
1.544986

>  <inspiration_score>  (3072) 
None

$$$$
LWFFVESRMYVRKP-UHFFFAOYSA-N-P15-P15-P308-601501
     RDKit          3D

 20 22  0  0  0  0  0  0  0  0999 V2000
    9.6693    8.6999   23.3562 C   0  0  0  0  0  0  0  0  0  0  0  0
    8.6353    9.4257   24.0247 O   0  0  0  0  0  0  0  0  0  0  0  0
    8.7123   10.7600   23.7730 C   0  0  0  0  0  0  0  0  0  0  0  0
    9.5273   11.2501   23.0180 O   0  0  0  0  0  0  0  0  0  0  0  0
    7.7442   11.5330   24.5991 C   0  0  0  0  0  0  0  0  0  0  0  0
    7.0362   10.8326   25.5946 C   0  0  0  0  0  0  0  0  0  0  0  0
    6.2392   11.5217   26.4939 C   0  0  0  0  0  0  0  0  0  0  0  0
    5.4487   10.8459   27.5756 C   0  0  0  0  0  0  0  0  0  0  0  0
    4.1478   11.4634   28.0410 C   0  0  0  0  0  0  0  0  0  0  0  0
    5.3578   11.5347   28.9219 C   0  0  0  0  0  0  0  0  0  0  0  0
    6.1936   12.8639   26.4713 N   0  0  0  0  0  0  0  0  0  0  0  0
    6.7931   13.5100   25.4625 C   0  0  0  0  0  0  0  0  0  0  0  0
    7.5246   12.9158   24.4374 C   0  0  0  0  0  0  0  0  0  0  0  0
    7.8563   13.6797   23.2926 N   0  0  0  0  0  0  0  0  0  0  0  0
    6.9308   14.7984   22.9863 C   0  0  0  0  0  0  0  0  0  0  0  0
    9.1595   13.9847   22.8995 N   0  0  0  0  0  0  0  0  0  0  0  0
   10.2904   13.9463   23.6721 C   0  0  0  0  0  0  0  0  0  0  0  0
   11.3659   14.3085   22.8841 C   0  0  0  0  0  0  0  0  0  0  0  0
   10.8662   14.6512   21.6142 C   0  0  0  0  0  0  0  0  0  0  0  0
    9.5108   14.4429   21.6561 C   0  0  0  0  0  0  0  0  0  0  0  0
  1  2  1  0
  2  3  1  0
  3  4  2  0
  3  5  1  0
  5  6  2  0
  6  7  1  0
  7  8  1  0
  8  9  1  0
  9 10  1  0
  7 11  2  0
 11 12  1  0
 12 13  2  0
 13 14  1  0
 14 15  1  0
 14 16  1  0
 16 17  1  0
 17 18  2  0
 18 19  1  0
 19 20  2  0
 13  5  1  0
 20 16  1  0
 10  8  1  0
M  END
>  <energy_score>  (3073) 
-16.030051

>  <inchikey>  (3073) 
LWFFVESRMYVRKP-UHFFFAOYSA-N

>  <smiles>  (3073) 
COC(=O)c1cc(C2CC2)ncc1N(C)n1cccc1

>  <ref_pdb>  (3073) 
A0528a

>  <alias>  (3073) 
LWFFVESRMYVRKP-UHFFFAOYSA-N-P15-P15-P308-601501

>  <HIPPO Pose ID>  (3073) 
501802

>  <name>  (3073) 
LWFFVESRMYVRKP-UHFFFAOYSA-N-P15-P15-P308-601501

>  <HIPPO Compound ID>  (3073) 
292615

>  <ref_mols>  (3073) 
A4331a,A0514a

>  <distance_score>  (3073) 
1.951738

>  <inspiration_score>  (3073) 
None

$$$$
LWFFVESRMYVRKP-UHFFFAOYSA-N-P308-P15-P308-601501
     RDKit          3D

 20 22  0  0  0  0  0  0  0  0999 V2000
    9.3317    8.6608   23.1403 C   0  0  0  0  0  0  0  0  0  0  0  0
    8.5087    9.6004   23.8272 O   0  0  0  0  0  0  0  0  0  0  0  0
    9.2098   10.5181   24.5336 C   0  0  0  0  0  0  0  0  0  0  0  0
   10.4175   10.5285   24.7149 O   0  0  0  0  0  0  0  0  0  0  0  0
    8.2598   11.5235   25.0639 C   0  0  0  0  0  0  0  0  0  0  0  0
    7.0171   11.1141   25.5778 C   0  0  0  0  0  0  0  0  0  0  0  0
    6.1860   12.0715   26.1468 C   0  0  0  0  0  0  0  0  0  0  0  0
    4.8197   11.8226   26.6923 C   0  0  0  0  0  0  0  0  0  0  0  0
    4.4933   10.8833   27.8149 C   0  0  0  0  0  0  0  0  0  0  0  0
    4.5553   12.3525   28.0918 C   0  0  0  0  0  0  0  0  0  0  0  0
    6.5607   13.3649   26.2254 N   0  0  0  0  0  0  0  0  0  0  0  0
    7.7283   13.7372   25.6956 C   0  0  0  0  0  0  0  0  0  0  0  0
    8.6297   12.8730   25.0938 C   0  0  0  0  0  0  0  0  0  0  0  0
    9.8035   13.3631   24.4849 N   0  0  0  0  0  0  0  0  0  0  0  0
   10.5873   14.2371   25.3723 C   0  0  0  0  0  0  0  0  0  0  0  0
    9.7174   13.9289   23.1975 N   0  0  0  0  0  0  0  0  0  0  0  0
    8.6098   14.4495   22.5722 C   0  0  0  0  0  0  0  0  0  0  0  0
    9.0182   15.0369   21.3927 C   0  0  0  0  0  0  0  0  0  0  0  0
   10.3992   14.8147   21.2612 C   0  0  0  0  0  0  0  0  0  0  0  0
   10.7934   14.0999   22.3679 C   0  0  0  0  0  0  0  0  0  0  0  0
  1  2  1  0
  2  3  1  0
  3  4  2  0
  3  5  1  0
  5  6  2  0
  6  7  1  0
  7  8  1  0
  8  9  1  0
  9 10  1  0
  7 11  2  0
 11 12  1  0
 12 13  2  0
 13 14  1  0
 14 15  1  0
 14 16  1  0
 16 17  1  0
 17 18  2  0
 18 19  1  0
 19 20  2  0
 13  5  1  0
 20 16  1  0
 10  8  1  0
M  END
>  <energy_score>  (3074) 
-25.279461

>  <inchikey>  (3074) 
LWFFVESRMYVRKP-UHFFFAOYSA-N

>  <smiles>  (3074) 
COC(=O)c1cc(C2CC2)ncc1N(C)n1cccc1

>  <ref_pdb>  (3074) 
A0528a

>  <alias>  (3074) 
LWFFVESRMYVRKP-UHFFFAOYSA-N-P308-P15-P308-601501

>  <HIPPO Pose ID>  (3074) 
501803

>  <name>  (3074) 
LWFFVESRMYVRKP-UHFFFAOYSA-N-P308-P15-P308-601501

>  <HIPPO Compound ID>  (3074) 
292615

>  <ref_mols>  (3074) 
A4331a,A0514a

>  <distance_score>  (3074) 
1.736227

>  <inspiration_score>  (3074) 
None

$$$$
URTOKROWCGLLAM-UHFFFAOYSA-N-P308-P15-P308-601501
     RDKit          3D

 20 22  0  0  0  0  0  0  0  0999 V2000
    9.4192    8.7991   23.1720 C   0  0  0  0  0  0  0  0  0  0  0  0
    8.6395    9.8376   23.7585 O   0  0  0  0  0  0  0  0  0  0  0  0
    9.3698   10.8126   24.3420 C   0  0  0  0  0  0  0  0  0  0  0  0
   10.5819   10.8558   24.4817 O   0  0  0  0  0  0  0  0  0  0  0  0
    8.4613   11.8307   24.8789 C   0  0  0  0  0  0  0  0  0  0  0  0
    7.4124   11.4215   25.7121 C   0  0  0  0  0  0  0  0  0  0  0  0
    6.6809   12.3942   26.3819 C   0  0  0  0  0  0  0  0  0  0  0  0
    5.6174   12.1141   27.3946 C   0  0  0  0  0  0  0  0  0  0  0  0
    4.6736   10.9601   27.3153 C   0  0  0  0  0  0  0  0  0  0  0  0
    4.1914   12.3448   26.9745 C   0  0  0  0  0  0  0  0  0  0  0  0
    6.9836   13.7045   26.2502 N   0  0  0  0  0  0  0  0  0  0  0  0
    7.9627   14.0720   25.4037 C   0  0  0  0  0  0  0  0  0  0  0  0
    8.7302   13.1833   24.6756 C   0  0  0  0  0  0  0  0  0  0  0  0
    9.4602   13.6503   23.5423 N   0  0  0  0  0  0  0  0  0  0  0  0
    8.6078   13.9020   22.4372 C   0  0  0  0  0  0  0  0  0  0  0  0
    7.5978   13.2786   22.1313 O   0  0  0  0  0  0  0  0  0  0  0  0
    9.1192   15.1098   21.7237 C   0  0  0  0  0  0  0  0  0  0  0  0
    9.8382   15.8271   22.8465 C   0  0  0  0  0  0  0  0  0  0  0  0
   10.3814   14.7575   23.7020 N   0  0  0  0  0  0  0  0  0  0  0  0
   11.7052   14.3802   23.1719 C   0  0  0  0  0  0  0  0  0  0  0  0
  1  2  1  0
  2  3  1  0
  3  4  2  0
  3  5  1  0
  5  6  2  0
  6  7  1  0
  7  8  1  0
  8  9  1  0
  9 10  1  0
  7 11  2  0
 11 12  1  0
 12 13  2  0
 13 14  1  0
 14 15  1  0
 15 16  2  0
 15 17  1  0
 17 18  1  0
 18 19  1  0
 19 20  1  0
 13  5  1  0
 19 14  1  0
 10  8  1  0
M  END
>  <energy_score>  (3075) 
-29.257128

>  <inchikey>  (3075) 
URTOKROWCGLLAM-UHFFFAOYSA-N

>  <smiles>  (3075) 
COC(=O)c1cc(C2CC2)ncc1N1C(=O)CCN1C

>  <ref_pdb>  (3075) 
A0528a

>  <alias>  (3075) 
URTOKROWCGLLAM-UHFFFAOYSA-N-P308-P15-P308-601501

>  <HIPPO Pose ID>  (3075) 
501809

>  <name>  (3075) 
URTOKROWCGLLAM-UHFFFAOYSA-N-P308-P15-P308-601501

>  <HIPPO Compound ID>  (3075) 
292618

>  <ref_mols>  (3075) 
A4331a,A0514a

>  <distance_score>  (3075) 
1.869556

>  <inspiration_score>  (3075) 
None

$$$$
HMPPRESURCLCGG-UHFFFAOYSA-N-P15-P15-P308-601501
     RDKit          3D

 20 22  0  0  0  0  0  0  0  0999 V2000
    9.3351    8.4665   22.9486 C   0  0  0  0  0  0  0  0  0  0  0  0
    8.5552    9.3093   23.7928 O   0  0  0  0  0  0  0  0  0  0  0  0
    9.0438   10.5661   23.8787 C   0  0  0  0  0  0  0  0  0  0  0  0
   10.0657   10.9556   23.3405 O   0  0  0  0  0  0  0  0  0  0  0  0
    8.1765   11.4173   24.7267 C   0  0  0  0  0  0  0  0  0  0  0  0
    7.0981   10.8567   25.4287 C   0  0  0  0  0  0  0  0  0  0  0  0
    6.3125   11.6764   26.2285 C   0  0  0  0  0  0  0  0  0  0  0  0
    5.2723   11.1353   27.1708 C   0  0  0  0  0  0  0  0  0  0  0  0
    4.0893   11.9922   27.5690 C   0  0  0  0  0  0  0  0  0  0  0  0
    5.1931   11.7591   28.5519 C   0  0  0  0  0  0  0  0  0  0  0  0
    6.5221   13.0112   26.2657 N   0  0  0  0  0  0  0  0  0  0  0  0
    7.5405   13.5343   25.5654 C   0  0  0  0  0  0  0  0  0  0  0  0
    8.4488   12.7862   24.8391 C   0  0  0  0  0  0  0  0  0  0  0  0
    9.5867   13.4454   24.3328 N   0  0  0  0  0  0  0  0  0  0  0  0
   10.8551   13.0371   24.8524 N   0  0  0  0  0  0  0  0  0  0  0  0
    9.5655   14.0233   23.0679 C   0  0  0  0  0  0  0  0  0  0  0  0
    8.5158   14.2198   22.3420 N   0  0  0  0  0  0  0  0  0  0  0  0
    8.8485   15.1003   21.2067 C   0  0  0  0  0  0  0  0  0  0  0  0
   10.3310   15.2009   20.9359 C   0  0  0  0  0  0  0  0  0  0  0  0
   11.1076   14.5617   22.4062 S   0  0  0  0  0  0  0  0  0  0  0  0
  1  2  1  0
  2  3  1  0
  3  4  2  0
  3  5  1  0
  5  6  2  0
  6  7  1  0
  7  8  1  0
  8  9  1  0
  9 10  1  0
  7 11  2  0
 11 12  1  0
 12 13  2  0
 13 14  1  0
 14 15  1  0
 14 16  1  0
 16 17  2  0
 17 18  1  0
 18 19  1  0
 19 20  1  0
 13  5  1  0
 20 16  1  0
 10  8  1  0
M  END
>  <energy_score>  (3076) 
-41.832537

>  <inchikey>  (3076) 
HMPPRESURCLCGG-UHFFFAOYSA-N

>  <smiles>  (3076) 
COC(=O)c1cc(C2CC2)ncc1N(N)C1=NCCS1

>  <ref_pdb>  (3076) 
A0528a

>  <alias>  (3076) 
HMPPRESURCLCGG-UHFFFAOYSA-N-P15-P15-P308-601501

>  <HIPPO Pose ID>  (3076) 
501810

>  <name>  (3076) 
HMPPRESURCLCGG-UHFFFAOYSA-N-P15-P15-P308-601501

>  <HIPPO Compound ID>  (3076) 
292619

>  <ref_mols>  (3076) 
A4331a,A0514a

>  <distance_score>  (3076) 
1.771157

>  <inspiration_score>  (3076) 
None

$$$$
HMPPRESURCLCGG-UHFFFAOYSA-N-P308-P15-P308-601501
     RDKit          3D

 20 22  0  0  0  0  0  0  0  0999 V2000
    9.4156    8.5343   23.0626 C   0  0  0  0  0  0  0  0  0  0  0  0
    8.5793    9.3975   23.8185 O   0  0  0  0  0  0  0  0  0  0  0  0
    9.2630   10.3383   24.5105 C   0  0  0  0  0  0  0  0  0  0  0  0
   10.4725   10.4110   24.6475 O   0  0  0  0  0  0  0  0  0  0  0  0
    8.2672   11.2963   25.0269 C   0  0  0  0  0  0  0  0  0  0  0  0
    7.0903   10.8184   25.6181 C   0  0  0  0  0  0  0  0  0  0  0  0
    6.1952   11.7302   26.1608 C   0  0  0  0  0  0  0  0  0  0  0  0
    5.0480   11.3156   27.0419 C   0  0  0  0  0  0  0  0  0  0  0  0
    3.8734   12.2451   27.2597 C   0  0  0  0  0  0  0  0  0  0  0  0
    4.8795   12.0677   28.3516 C   0  0  0  0  0  0  0  0  0  0  0  0
    6.3972   13.0597   26.0220 N   0  0  0  0  0  0  0  0  0  0  0  0
    7.5071   13.4938   25.4064 C   0  0  0  0  0  0  0  0  0  0  0  0
    8.5089   12.6643   24.9361 C   0  0  0  0  0  0  0  0  0  0  0  0
    9.7003   13.2093   24.4221 N   0  0  0  0  0  0  0  0  0  0  0  0
   10.6488   13.5755   25.4364 N   0  0  0  0  0  0  0  0  0  0  0  0
    9.6476   13.9749   23.2535 C   0  0  0  0  0  0  0  0  0  0  0  0
    8.7445   13.8896   22.3241 N   0  0  0  0  0  0  0  0  0  0  0  0
    9.1169   14.7939   21.2100 C   0  0  0  0  0  0  0  0  0  0  0  0
    9.8852   15.9818   21.7338 C   0  0  0  0  0  0  0  0  0  0  0  0
   10.8961   15.2028   22.9963 S   0  0  0  0  0  0  0  0  0  0  0  0
  1  2  1  0
  2  3  1  0
  3  4  2  0
  3  5  1  0
  5  6  2  0
  6  7  1  0
  7  8  1  0
  8  9  1  0
  9 10  1  0
  7 11  2  0
 11 12  1  0
 12 13  2  0
 13 14  1  0
 14 15  1  0
 14 16  1  0
 16 17  2  0
 17 18  1  0
 18 19  1  0
 19 20  1  0
 13  5  1  0
 20 16  1  0
 10  8  1  0
M  END
>  <energy_score>  (3077) 
-41.177662

>  <inchikey>  (3077) 
HMPPRESURCLCGG-UHFFFAOYSA-N

>  <smiles>  (3077) 
COC(=O)c1cc(C2CC2)ncc1N(N)C1=NCCS1

>  <ref_pdb>  (3077) 
A0528a

>  <alias>  (3077) 
HMPPRESURCLCGG-UHFFFAOYSA-N-P308-P15-P308-601501

>  <HIPPO Pose ID>  (3077) 
501811

>  <name>  (3077) 
HMPPRESURCLCGG-UHFFFAOYSA-N-P308-P15-P308-601501

>  <HIPPO Compound ID>  (3077) 
292619

>  <ref_mols>  (3077) 
A4331a,A0514a

>  <distance_score>  (3077) 
1.684873

>  <inspiration_score>  (3077) 
None

$$$$
AAQNWBDHRGPHDR-UHFFFAOYSA-N-P15-P15-P308-601501
     RDKit          3D

 20 21  0  0  0  0  0  0  0  0999 V2000
    8.6164    8.9917   23.5147 C   0  0  0  0  0  0  0  0  0  0  0  0
    9.5129   10.0829   23.6688 O   0  0  0  0  0  0  0  0  0  0  0  0
    9.2872   11.2793   24.2407 C   0  0  0  0  0  0  0  0  0  0  0  0
   10.2449   12.0478   24.3025 O   0  0  0  0  0  0  0  0  0  0  0  0
    7.9851   11.6986   24.8254 C   0  0  0  0  0  0  0  0  0  0  0  0
    7.1665   10.8076   25.5302 C   0  0  0  0  0  0  0  0  0  0  0  0
    6.0483   11.2908   26.2102 C   0  0  0  0  0  0  0  0  0  0  0  0
    5.3408   10.5037   27.2728 C   0  0  0  0  0  0  0  0  0  0  0  0
    4.1636   11.0944   28.0235 C   0  0  0  0  0  0  0  0  0  0  0  0
    5.4968   11.0133   28.6948 C   0  0  0  0  0  0  0  0  0  0  0  0
    5.6501   12.5677   26.0811 N   0  0  0  0  0  0  0  0  0  0  0  0
    6.4403   13.4098   25.4130 C   0  0  0  0  0  0  0  0  0  0  0  0
    7.6706   13.0687   24.8680 C   0  0  0  0  0  0  0  0  0  0  0  0
    8.5864   14.0937   24.5223 N   0  0  0  0  0  0  0  0  0  0  0  0
    8.6172   15.2049   25.4226 N   0  0  0  0  0  0  0  0  0  0  0  0
    8.5707   14.3998   23.0716 C   0  0  0  0  0  0  0  0  0  0  0  0
    9.9681   14.3409   22.3931 C   0  0  0  0  0  0  0  0  0  0  0  0
    9.9282   15.1817   21.1143 C   0  0  0  0  0  0  0  0  0  0  0  0
   11.2422   14.6351   23.1935 C   0  0  0  0  0  0  0  0  0  0  0  0
   10.1283   12.9983   21.9484 O   0  0  0  0  0  0  0  0  0  0  0  0
  1  2  1  0
  2  3  1  0
  3  4  2  0
  3  5  1  0
  5  6  2  0
  6  7  1  0
  7  8  1  0
  8  9  1  0
  9 10  1  0
  7 11  2  0
 11 12  1  0
 12 13  2  0
 13 14  1  0
 14 15  1  0
 14 16  1  0
 16 17  1  0
 17 18  1  0
 17 19  1  0
 17 20  1  0
 13  5  1  0
 10  8  1  0
M  END
>  <energy_score>  (3078) 
-6.798589

>  <inchikey>  (3078) 
AAQNWBDHRGPHDR-UHFFFAOYSA-N

>  <smiles>  (3078) 
COC(=O)c1cc(C2CC2)ncc1N(N)CC(C)(C)O

>  <ref_pdb>  (3078) 
A0528a

>  <alias>  (3078) 
AAQNWBDHRGPHDR-UHFFFAOYSA-N-P15-P15-P308-601501

>  <HIPPO Pose ID>  (3078) 
501812

>  <name>  (3078) 
AAQNWBDHRGPHDR-UHFFFAOYSA-N-P15-P15-P308-601501

>  <HIPPO Compound ID>  (3078) 
292620

>  <ref_mols>  (3078) 
A4331a,A0514a

>  <distance_score>  (3078) 
1.868167

>  <inspiration_score>  (3078) 
None

$$$$
AAQNWBDHRGPHDR-UHFFFAOYSA-N-P308-P15-P308-601501
     RDKit          3D

 20 21  0  0  0  0  0  0  0  0999 V2000
    9.3164    8.5128   23.0456 C   0  0  0  0  0  0  0  0  0  0  0  0
    8.4830    9.4022   23.7788 O   0  0  0  0  0  0  0  0  0  0  0  0
    9.1790   10.3029   24.5055 C   0  0  0  0  0  0  0  0  0  0  0  0
   10.3899   10.3423   24.6523 O   0  0  0  0  0  0  0  0  0  0  0  0
    8.2243   11.2814   25.0641 C   0  0  0  0  0  0  0  0  0  0  0  0
    7.0408   10.7978   25.6418 C   0  0  0  0  0  0  0  0  0  0  0  0
    6.1628   11.6942   26.2364 C   0  0  0  0  0  0  0  0  0  0  0  0
    5.0014   11.2573   27.0864 C   0  0  0  0  0  0  0  0  0  0  0  0
    3.8292   12.1886   27.3135 C   0  0  0  0  0  0  0  0  0  0  0  0
    4.8136   11.9671   28.4168 C   0  0  0  0  0  0  0  0  0  0  0  0
    6.3928   13.0238   26.1798 N   0  0  0  0  0  0  0  0  0  0  0  0
    7.5077   13.4680   25.5864 C   0  0  0  0  0  0  0  0  0  0  0  0
    8.4901   12.6538   25.0443 C   0  0  0  0  0  0  0  0  0  0  0  0
    9.6139   13.3027   24.4996 N   0  0  0  0  0  0  0  0  0  0  0  0
   10.8996   12.9016   24.9389 N   0  0  0  0  0  0  0  0  0  0  0  0
    9.4087   13.6192   23.0643 C   0  0  0  0  0  0  0  0  0  0  0  0
   10.3113   14.7942   22.6361 C   0  0  0  0  0  0  0  0  0  0  0  0
    9.9783   15.2240   21.2101 C   0  0  0  0  0  0  0  0  0  0  0  0
   10.1944   15.9847   23.5776 C   0  0  0  0  0  0  0  0  0  0  0  0
   11.6839   14.3730   22.6705 O   0  0  0  0  0  0  0  0  0  0  0  0
  1  2  1  0
  2  3  1  0
  3  4  2  0
  3  5  1  0
  5  6  2  0
  6  7  1  0
  7  8  1  0
  8  9  1  0
  9 10  1  0
  7 11  2  0
 11 12  1  0
 12 13  2  0
 13 14  1  0
 14 15  1  0
 14 16  1  0
 16 17  1  0
 17 18  1  0
 17 19  1  0
 17 20  1  0
 13  5  1  0
 10  8  1  0
M  END
>  <energy_score>  (3079) 
-48.385416

>  <inchikey>  (3079) 
AAQNWBDHRGPHDR-UHFFFAOYSA-N

>  <smiles>  (3079) 
COC(=O)c1cc(C2CC2)ncc1N(N)CC(C)(C)O

>  <ref_pdb>  (3079) 
A0528a

>  <alias>  (3079) 
AAQNWBDHRGPHDR-UHFFFAOYSA-N-P308-P15-P308-601501

>  <HIPPO Pose ID>  (3079) 
501813

>  <name>  (3079) 
AAQNWBDHRGPHDR-UHFFFAOYSA-N-P308-P15-P308-601501

>  <HIPPO Compound ID>  (3079) 
292620

>  <ref_mols>  (3079) 
A4331a,A0514a

>  <distance_score>  (3079) 
1.641168

>  <inspiration_score>  (3079) 
None

$$$$
IZDVFGAUWMTFPI-UHFFFAOYSA-N-P15-P15-P308-601501
     RDKit          3D

 20 22  0  0  0  0  0  0  0  0999 V2000
    9.4774    8.9437   23.1368 C   0  0  0  0  0  0  0  0  0  0  0  0
    8.6136    9.7434   23.9512 O   0  0  0  0  0  0  0  0  0  0  0  0
    9.0778   10.9933   24.1954 C   0  0  0  0  0  0  0  0  0  0  0  0
   10.1383   11.4417   23.7915 O   0  0  0  0  0  0  0  0  0  0  0  0
    8.1078   11.7547   25.0403 C   0  0  0  0  0  0  0  0  0  0  0  0
    7.1102   11.0358   25.7161 C   0  0  0  0  0  0  0  0  0  0  0  0
    6.2116   11.7147   26.5250 C   0  0  0  0  0  0  0  0  0  0  0  0
    5.1707   11.0033   27.3370 C   0  0  0  0  0  0  0  0  0  0  0  0
    5.0682   11.3146   28.8112 C   0  0  0  0  0  0  0  0  0  0  0  0
    3.9997   11.7991   27.8807 C   0  0  0  0  0  0  0  0  0  0  0  0
    6.2753   13.0578   26.6636 N   0  0  0  0  0  0  0  0  0  0  0  0
    7.1880   13.7458   25.9632 C   0  0  0  0  0  0  0  0  0  0  0  0
    8.1412   13.1652   25.1461 C   0  0  0  0  0  0  0  0  0  0  0  0
    8.9542   14.0702   24.3884 N   0  0  0  0  0  0  0  0  0  0  0  0
   10.3438   13.9523   24.6775 N   0  0  0  0  0  0  0  0  0  0  0  0
    8.5925   14.3336   22.9809 C   0  0  0  0  0  0  0  0  0  0  0  0
    7.6870   13.2926   22.4452 C   0  0  0  0  0  0  0  0  0  0  0  0
    9.7444   14.7823   22.0457 C   0  0  0  0  0  0  0  0  0  0  0  0
    8.7673   15.7797   21.4173 C   0  0  0  0  0  0  0  0  0  0  0  0
    7.7773   15.5797   22.6112 C   0  0  0  0  0  0  0  0  0  0  0  0
  1  2  1  0
  2  3  1  0
  3  4  2  0
  3  5  1  0
  5  6  2  0
  6  7  1  0
  7  8  1  0
  8  9  1  0
  9 10  1  0
  7 11  2  0
 11 12  1  0
 12 13  2  0
 13 14  1  0
 14 15  1  0
 14 16  1  0
 16 17  1  0
 16 18  1  0
 18 19  1  0
 19 20  1  0
 13  5  1  0
 20 16  1  0
 10  8  1  0
M  END
>  <energy_score>  (3080) 
-35.837104

>  <inchikey>  (3080) 
IZDVFGAUWMTFPI-UHFFFAOYSA-N

>  <smiles>  (3080) 
COC(=O)c1cc(C2CC2)ncc1N(N)C1(C)CCC1

>  <ref_pdb>  (3080) 
A0528a

>  <alias>  (3080) 
IZDVFGAUWMTFPI-UHFFFAOYSA-N-P15-P15-P308-601501

>  <HIPPO Pose ID>  (3080) 
501818

>  <name>  (3080) 
IZDVFGAUWMTFPI-UHFFFAOYSA-N-P15-P15-P308-601501

>  <HIPPO Compound ID>  (3080) 
292623

>  <ref_mols>  (3080) 
A4331a,A0514a

>  <distance_score>  (3080) 
1.951035

>  <inspiration_score>  (3080) 
None

$$$$
IZDVFGAUWMTFPI-UHFFFAOYSA-N-P308-P15-P308-601501
     RDKit          3D

 20 22  0  0  0  0  0  0  0  0999 V2000
    9.5565    8.4031   23.4429 C   0  0  0  0  0  0  0  0  0  0  0  0
    8.7863    9.2643   24.2732 O   0  0  0  0  0  0  0  0  0  0  0  0
    8.8323   10.5410   23.8299 C   0  0  0  0  0  0  0  0  0  0  0  0
    9.4098   10.9139   22.8243 O   0  0  0  0  0  0  0  0  0  0  0  0
    8.1033   11.4365   24.7492 C   0  0  0  0  0  0  0  0  0  0  0  0
    7.0199   10.9258   25.4798 C   0  0  0  0  0  0  0  0  0  0  0  0
    6.2662   11.7885   26.2628 C   0  0  0  0  0  0  0  0  0  0  0  0
    5.0759   11.3330   27.0611 C   0  0  0  0  0  0  0  0  0  0  0  0
    4.8416   11.9085   28.4407 C   0  0  0  0  0  0  0  0  0  0  0  0
    3.9536   12.3239   27.3108 C   0  0  0  0  0  0  0  0  0  0  0  0
    6.5841   13.0998   26.3486 N   0  0  0  0  0  0  0  0  0  0  0  0
    7.6137   13.5719   25.6264 C   0  0  0  0  0  0  0  0  0  0  0  0
    8.4177   12.8007   24.8054 C   0  0  0  0  0  0  0  0  0  0  0  0
    9.4368   13.4513   24.0619 N   0  0  0  0  0  0  0  0  0  0  0  0
   10.7371   12.8970   24.1355 N   0  0  0  0  0  0  0  0  0  0  0  0
    9.1261   14.3920   22.9708 C   0  0  0  0  0  0  0  0  0  0  0  0
    7.7254   14.1971   22.3877 C   0  0  0  0  0  0  0  0  0  0  0  0
   10.2277   14.5543   21.8662 C   0  0  0  0  0  0  0  0  0  0  0  0
   10.0134   16.0754   21.9656 C   0  0  0  0  0  0  0  0  0  0  0  0
    9.4663   15.8448   23.3883 C   0  0  0  0  0  0  0  0  0  0  0  0
  1  2  1  0
  2  3  1  0
  3  4  2  0
  3  5  1  0
  5  6  2  0
  6  7  1  0
  7  8  1  0
  8  9  1  0
  9 10  1  0
  7 11  2  0
 11 12  1  0
 12 13  2  0
 13 14  1  0
 14 15  1  0
 14 16  1  0
 16 17  1  0
 16 18  1  0
 18 19  1  0
 19 20  1  0
 13  5  1  0
 20 16  1  0
 10  8  1  0
M  END
>  <energy_score>  (3081) 
-55.311388

>  <inchikey>  (3081) 
IZDVFGAUWMTFPI-UHFFFAOYSA-N

>  <smiles>  (3081) 
COC(=O)c1cc(C2CC2)ncc1N(N)C1(C)CCC1

>  <ref_pdb>  (3081) 
A0528a

>  <alias>  (3081) 
IZDVFGAUWMTFPI-UHFFFAOYSA-N-P308-P15-P308-601501

>  <HIPPO Pose ID>  (3081) 
501819

>  <name>  (3081) 
IZDVFGAUWMTFPI-UHFFFAOYSA-N-P308-P15-P308-601501

>  <HIPPO Compound ID>  (3081) 
292623

>  <ref_mols>  (3081) 
A4331a,A0514a

>  <distance_score>  (3081) 
1.736625

>  <inspiration_score>  (3081) 
None

$$$$
BEYDBMVTFDNDNE-UHFFFAOYSA-N-P15-P15-P308-601501
     RDKit          3D

 20 23  0  0  0  0  0  0  0  0999 V2000
    9.2638    8.9199   23.1691 C   0  0  0  0  0  0  0  0  0  0  0  0
    8.4774    9.8274   23.9511 O   0  0  0  0  0  0  0  0  0  0  0  0
    9.0874   11.0208   24.1684 C   0  0  0  0  0  0  0  0  0  0  0  0
   10.2099   11.2911   23.7751 O   0  0  0  0  0  0  0  0  0  0  0  0
    8.2243   11.9399   24.9713 C   0  0  0  0  0  0  0  0  0  0  0  0
    7.0854   11.4038   25.6010 C   0  0  0  0  0  0  0  0  0  0  0  0
    6.2666   12.2397   26.3488 C   0  0  0  0  0  0  0  0  0  0  0  0
    5.0148   11.8005   27.0259 C   0  0  0  0  0  0  0  0  0  0  0  0
    4.9856   10.7561   28.1006 C   0  0  0  0  0  0  0  0  0  0  0  0
    4.8385   12.1991   28.4764 C   0  0  0  0  0  0  0  0  0  0  0  0
    6.5447   13.5483   26.4965 N   0  0  0  0  0  0  0  0  0  0  0  0
    7.6102   14.0563   25.8655 C   0  0  0  0  0  0  0  0  0  0  0  0
    8.4995   13.3210   25.0975 C   0  0  0  0  0  0  0  0  0  0  0  0
    9.5086   14.0851   24.4360 N   0  0  0  0  0  0  0  0  0  0  0  0
   10.8419   13.6932   24.7274 N   0  0  0  0  0  0  0  0  0  0  0  0
    9.2393   14.5119   23.1175 C   0  0  0  0  0  0  0  0  0  0  0  0
    8.9975   13.3757   22.1456 C   0  0  0  0  0  0  0  0  0  0  0  0
    8.7725   14.6206   21.2659 C   0  0  0  0  0  0  0  0  0  0  0  0
   10.0891   15.0985   21.9527 C   0  0  0  0  0  0  0  0  0  0  0  0
    7.9622   15.1233   22.5071 C   0  0  0  0  0  0  0  0  0  0  0  0
  1  2  1  0
  2  3  1  0
  3  4  2  0
  3  5  1  0
  5  6  2  0
  6  7  1  0
  7  8  1  0
  8  9  1  0
  9 10  1  0
  7 11  2  0
 11 12  1  0
 12 13  2  0
 13 14  1  0
 14 15  1  0
 14 16  1  0
 16 17  1  0
 17 18  1  0
 18 19  1  0
 18 20  1  0
 13  5  1  0
 19 16  1  0
 10  8  1  0
 20 16  1  0
M  END
>  <energy_score>  (3082) 
-24.937504

>  <inchikey>  (3082) 
BEYDBMVTFDNDNE-UHFFFAOYSA-N

>  <smiles>  (3082) 
COC(=O)c1cc(C2CC2)ncc1N(N)C12CC(C1)C2

>  <ref_pdb>  (3082) 
A0528a

>  <alias>  (3082) 
BEYDBMVTFDNDNE-UHFFFAOYSA-N-P15-P15-P308-601501

>  <HIPPO Pose ID>  (3082) 
501820

>  <name>  (3082) 
BEYDBMVTFDNDNE-UHFFFAOYSA-N-P15-P15-P308-601501

>  <HIPPO Compound ID>  (3082) 
292624

>  <ref_mols>  (3082) 
A4331a,A0514a

>  <distance_score>  (3082) 
1.796037

>  <inspiration_score>  (3082) 
None

$$$$
BEYDBMVTFDNDNE-UHFFFAOYSA-N-P308-P15-P308-601501
     RDKit          3D

 20 23  0  0  0  0  0  0  0  0999 V2000
    9.4000    8.6798   23.1458 C   0  0  0  0  0  0  0  0  0  0  0  0
    8.4349    9.5049   23.7911 O   0  0  0  0  0  0  0  0  0  0  0  0
    8.9495   10.6637   24.2565 C   0  0  0  0  0  0  0  0  0  0  0  0
   10.1253   10.9874   24.3068 O   0  0  0  0  0  0  0  0  0  0  0  0
    7.8645   11.4824   24.8057 C   0  0  0  0  0  0  0  0  0  0  0  0
    6.9945   10.9275   25.7418 C   0  0  0  0  0  0  0  0  0  0  0  0
    6.1138   11.7674   26.4065 C   0  0  0  0  0  0  0  0  0  0  0  0
    5.0729   11.2604   27.3645 C   0  0  0  0  0  0  0  0  0  0  0  0
    4.9255   11.9261   28.7139 C   0  0  0  0  0  0  0  0  0  0  0  0
    3.8760   12.1408   27.6702 C   0  0  0  0  0  0  0  0  0  0  0  0
    6.1759   13.1076   26.2340 N   0  0  0  0  0  0  0  0  0  0  0  0
    6.9472   13.6018   25.2550 C   0  0  0  0  0  0  0  0  0  0  0  0
    7.7452   12.8193   24.4410 C   0  0  0  0  0  0  0  0  0  0  0  0
    8.0642   13.2623   23.1314 N   0  0  0  0  0  0  0  0  0  0  0  0
    6.8697   13.4195   22.3208 N   0  0  0  0  0  0  0  0  0  0  0  0
    9.0830   14.1804   22.8621 C   0  0  0  0  0  0  0  0  0  0  0  0
    9.2508   14.9118   21.5083 C   0  0  0  0  0  0  0  0  0  0  0  0
   10.4289   15.4612   22.3849 C   0  0  0  0  0  0  0  0  0  0  0  0
   10.6022   13.9555   22.8266 C   0  0  0  0  0  0  0  0  0  0  0  0
    9.3505   15.5310   23.5369 C   0  0  0  0  0  0  0  0  0  0  0  0
  1  2  1  0
  2  3  1  0
  3  4  2  0
  3  5  1  0
  5  6  2  0
  6  7  1  0
  7  8  1  0
  8  9  1  0
  9 10  1  0
  7 11  2  0
 11 12  1  0
 12 13  2  0
 13 14  1  0
 14 15  1  0
 14 16  1  0
 16 17  1  0
 17 18  1  0
 18 19  1  0
 18 20  1  0
 13  5  1  0
 19 16  1  0
 10  8  1  0
 20 16  1  0
M  END
>  <energy_score>  (3083) 
-23.624356

>  <inchikey>  (3083) 
BEYDBMVTFDNDNE-UHFFFAOYSA-N

>  <smiles>  (3083) 
COC(=O)c1cc(C2CC2)ncc1N(N)C12CC(C1)C2

>  <ref_pdb>  (3083) 
A0528a

>  <alias>  (3083) 
BEYDBMVTFDNDNE-UHFFFAOYSA-N-P308-P15-P308-601501

>  <HIPPO Pose ID>  (3083) 
501821

>  <name>  (3083) 
BEYDBMVTFDNDNE-UHFFFAOYSA-N-P308-P15-P308-601501

>  <HIPPO Compound ID>  (3083) 
292624

>  <ref_mols>  (3083) 
A4331a,A0514a

>  <distance_score>  (3083) 
1.831397

>  <inspiration_score>  (3083) 
None

$$$$
CGERCOVXFNUMDN-UHFFFAOYSA-N-P308-P15-P308-601501
     RDKit          3D

 20 22  0  0  0  0  0  0  0  0999 V2000
    9.1535    8.4336   23.8058 C   0  0  0  0  0  0  0  0  0  0  0  0
    8.4307    9.3746   24.5899 O   0  0  0  0  0  0  0  0  0  0  0  0
    8.4920   10.6106   24.0563 C   0  0  0  0  0  0  0  0  0  0  0  0
    9.0088   10.8917   22.9871 O   0  0  0  0  0  0  0  0  0  0  0  0
    7.8898   11.5915   24.9769 C   0  0  0  0  0  0  0  0  0  0  0  0
    6.8320   11.2045   25.8129 C   0  0  0  0  0  0  0  0  0  0  0  0
    6.2458   12.1595   26.6363 C   0  0  0  0  0  0  0  0  0  0  0  0
    5.2551   11.8849   27.7193 C   0  0  0  0  0  0  0  0  0  0  0  0
    4.2875   10.7516   27.7337 C   0  0  0  0  0  0  0  0  0  0  0  0
    3.8088   12.1427   27.4042 C   0  0  0  0  0  0  0  0  0  0  0  0
    6.6280   13.4513   26.5911 N   0  0  0  0  0  0  0  0  0  0  0  0
    7.6446   13.7909   25.7873 C   0  0  0  0  0  0  0  0  0  0  0  0
    8.3463   12.9113   24.9815 C   0  0  0  0  0  0  0  0  0  0  0  0
    9.4351   13.4426   24.2534 N   0  0  0  0  0  0  0  0  0  0  0  0
   10.6133   12.6583   24.1910 N   0  0  0  0  0  0  0  0  0  0  0  0
    9.0386   14.0726   22.9721 C   0  0  1  0  0  0  0  0  0  0  0  0
    8.3404   15.4003   22.9111 C   0  0  0  0  0  0  0  0  0  0  0  0
    9.7684   15.2779   22.4340 C   0  0  0  0  0  0  0  0  0  0  0  0
   10.8654   15.8765   23.2674 C   0  0  0  0  0  0  0  0  0  0  0  0
   10.0097   15.3455   20.9561 C   0  0  0  0  0  0  0  0  0  0  0  0
  1  2  1  0
  2  3  1  0
  3  4  2  0
  3  5  1  0
  5  6  2  0
  6  7  1  0
  7  8  1  0
  8  9  1  0
  9 10  1  0
  7 11  2  0
 11 12  1  0
 12 13  2  0
 13 14  1  0
 14 15  1  0
 16 14  1  1
 16 17  1  0
 17 18  1  0
 18 19  1  0
 18 20  1  0
 13  5  1  0
 18 16  1  0
 10  8  1  0
M  END
>  <energy_score>  (3084) 
-30.332814

>  <inchikey>  (3084) 
CGERCOVXFNUMDN-UHFFFAOYSA-N

>  <smiles>  (3084) 
COC(=O)c1cc(C2CC2)ncc1N(N)C1CC1(C)C

>  <ref_pdb>  (3084) 
A0528a

>  <alias>  (3084) 
CGERCOVXFNUMDN-UHFFFAOYSA-N-P308-P15-P308-601501

>  <HIPPO Pose ID>  (3084) 
501823

>  <name>  (3084) 
CGERCOVXFNUMDN-UHFFFAOYSA-N-P308-P15-P308-601501

>  <HIPPO Compound ID>  (3084) 
292625

>  <ref_mols>  (3084) 
A4331a,A0514a

>  <distance_score>  (3084) 
1.933071

>  <inspiration_score>  (3084) 
None

$$$$
AABHLPBRJPCXFX-UHFFFAOYSA-N-P15-P15-P308-601501
     RDKit          3D

 20 22  0  0  0  0  0  0  0  0999 V2000
    9.4079    8.6818   23.1054 C   0  0  0  0  0  0  0  0  0  0  0  0
    8.5965    9.4423   24.0071 O   0  0  0  0  0  0  0  0  0  0  0  0
    8.8647   10.7705   24.0248 C   0  0  0  0  0  0  0  0  0  0  0  0
    9.7309   11.3028   23.3526 O   0  0  0  0  0  0  0  0  0  0  0  0
    7.9491   11.4928   24.9577 C   0  0  0  0  0  0  0  0  0  0  0  0
    6.9572   10.7624   25.6350 C   0  0  0  0  0  0  0  0  0  0  0  0
    6.0798   11.4218   26.4865 C   0  0  0  0  0  0  0  0  0  0  0  0
    5.1417   10.6999   27.4075 C   0  0  0  0  0  0  0  0  0  0  0  0
    3.9235   11.4092   27.9607 C   0  0  0  0  0  0  0  0  0  0  0  0
    5.1046   11.1711   28.8485 C   0  0  0  0  0  0  0  0  0  0  0  0
    6.1077   12.7637   26.6089 N   0  0  0  0  0  0  0  0  0  0  0  0
    7.0423   13.4515   25.9477 C   0  0  0  0  0  0  0  0  0  0  0  0
    8.0228   12.8845   25.1477 C   0  0  0  0  0  0  0  0  0  0  0  0
    8.9661   13.7932   24.6150 N   0  0  0  0  0  0  0  0  0  0  0  0
   10.3292   13.4567   24.6993 N   0  0  0  0  0  0  0  0  0  0  0  0
    8.4746   14.5991   23.4604 C   0  0  2  0  0  0  0  0  0  0  0  0
    8.0419   13.8927   22.2137 C   0  0  0  0  0  0  0  0  0  0  0  0
    9.2396   14.7472   22.1793 C   0  0  0  0  0  0  0  0  0  0  0  0
   10.5377   14.2984   22.1786 F   0  0  0  0  0  0  0  0  0  0  0  0
    9.2025   15.8773   21.4063 F   0  0  0  0  0  0  0  0  0  0  0  0
  1  2  1  0
  2  3  1  0
  3  4  2  0
  3  5  1  0
  5  6  2  0
  6  7  1  0
  7  8  1  0
  8  9  1  0
  9 10  1  0
  7 11  2  0
 11 12  1  0
 12 13  2  0
 13 14  1  0
 14 15  1  0
 16 14  1  1
 16 17  1  0
 17 18  1  0
 18 19  1  0
 18 20  1  0
 13  5  1  0
 18 16  1  0
 10  8  1  0
M  END
>  <energy_score>  (3085) 
-29.252701

>  <inchikey>  (3085) 
AABHLPBRJPCXFX-UHFFFAOYSA-N

>  <smiles>  (3085) 
COC(=O)c1cc(C2CC2)ncc1N(N)C1CC1(F)F

>  <ref_pdb>  (3085) 
A0528a

>  <alias>  (3085) 
AABHLPBRJPCXFX-UHFFFAOYSA-N-P15-P15-P308-601501

>  <HIPPO Pose ID>  (3085) 
501824

>  <name>  (3085) 
AABHLPBRJPCXFX-UHFFFAOYSA-N-P15-P15-P308-601501

>  <HIPPO Compound ID>  (3085) 
292626

>  <ref_mols>  (3085) 
A4331a,A0514a

>  <distance_score>  (3085) 
1.529807

>  <inspiration_score>  (3085) 
None

$$$$
AABHLPBRJPCXFX-UHFFFAOYSA-N-P308-P15-P308-601501
     RDKit          3D

 20 22  0  0  0  0  0  0  0  0999 V2000
    9.5779    8.5014   23.5158 C   0  0  0  0  0  0  0  0  0  0  0  0
    8.7592    9.3051   24.3607 O   0  0  0  0  0  0  0  0  0  0  0  0
    8.7351   10.5972   23.9569 C   0  0  0  0  0  0  0  0  0  0  0  0
    9.2995   11.0351   22.9703 O   0  0  0  0  0  0  0  0  0  0  0  0
    7.9138   11.4132   24.8713 C   0  0  0  0  0  0  0  0  0  0  0  0
    6.8316   10.8430   25.5528 C   0  0  0  0  0  0  0  0  0  0  0  0
    6.0506   11.6557   26.3649 C   0  0  0  0  0  0  0  0  0  0  0  0
    4.9417   11.1292   27.2330 C   0  0  0  0  0  0  0  0  0  0  0  0
    3.7304   11.9955   27.5087 C   0  0  0  0  0  0  0  0  0  0  0  0
    4.7413   11.7824   28.5895 C   0  0  0  0  0  0  0  0  0  0  0  0
    6.3024   12.9806   26.4715 N   0  0  0  0  0  0  0  0  0  0  0  0
    7.3474   13.5019   25.8184 C   0  0  0  0  0  0  0  0  0  0  0  0
    8.2102   12.7699   25.0261 C   0  0  0  0  0  0  0  0  0  0  0  0
    9.3244   13.3921   24.4245 N   0  0  0  0  0  0  0  0  0  0  0  0
   10.2442   13.9579   25.3391 N   0  0  0  0  0  0  0  0  0  0  0  0
    9.0130   14.1704   23.1901 C   0  0  2  0  0  0  0  0  0  0  0  0
    9.8586   13.9258   21.9612 C   0  0  0  0  0  0  0  0  0  0  0  0
    9.8853   15.2360   22.6230 C   0  0  0  0  0  0  0  0  0  0  0  0
   10.9819   15.6740   23.3307 F   0  0  0  0  0  0  0  0  0  0  0  0
    9.3325   16.3184   21.9877 F   0  0  0  0  0  0  0  0  0  0  0  0
  1  2  1  0
  2  3  1  0
  3  4  2  0
  3  5  1  0
  5  6  2  0
  6  7  1  0
  7  8  1  0
  8  9  1  0
  9 10  1  0
  7 11  2  0
 11 12  1  0
 12 13  2  0
 13 14  1  0
 14 15  1  0
 16 14  1  1
 16 17  1  0
 17 18  1  0
 18 19  1  0
 18 20  1  0
 13  5  1  0
 18 16  1  0
 10  8  1  0
M  END
>  <energy_score>  (3086) 
-31.933189

>  <inchikey>  (3086) 
AABHLPBRJPCXFX-UHFFFAOYSA-N

>  <smiles>  (3086) 
COC(=O)c1cc(C2CC2)ncc1N(N)C1CC1(F)F

>  <ref_pdb>  (3086) 
A0528a

>  <alias>  (3086) 
AABHLPBRJPCXFX-UHFFFAOYSA-N-P308-P15-P308-601501

>  <HIPPO Pose ID>  (3086) 
501825

>  <name>  (3086) 
AABHLPBRJPCXFX-UHFFFAOYSA-N-P308-P15-P308-601501

>  <HIPPO Compound ID>  (3086) 
292626

>  <ref_mols>  (3086) 
A4331a,A0514a

>  <distance_score>  (3086) 
1.42767

>  <inspiration_score>  (3086) 
None

$$$$
LVPHNQDJRRDHAZ-UHFFFAOYSA-N-P15-P15-P308-601501
     RDKit          3D

 20 21  0  0  0  0  0  0  0  0999 V2000
   10.8793   15.3736   20.1753 C   0  0  0  0  0  0  0  0  0  0  0  0
    9.6407   15.3105   21.0442 C   0  0  0  0  0  0  0  0  0  0  0  0
    9.9122   14.3798   22.2122 C   0  0  0  0  0  0  0  0  0  0  0  0
    8.7747   14.1653   23.2269 C   0  0  1  0  0  0  0  0  0  0  0  0
    7.4038   14.2326   22.5507 C   0  0  0  0  0  0  0  0  0  0  0  0
    8.9856   12.8586   23.9162 N   0  0  0  0  0  0  0  0  0  0  0  0
   10.3063   12.4951   24.3099 N   0  0  0  0  0  0  0  0  0  0  0  0
    8.0169   12.4562   24.8510 C   0  0  0  0  0  0  0  0  0  0  0  0
    7.4060   13.3828   25.6906 C   0  0  0  0  0  0  0  0  0  0  0  0
    6.4527   13.1110   26.5973 N   0  0  0  0  0  0  0  0  0  0  0  0
    6.0044   11.8479   26.7027 C   0  0  0  0  0  0  0  0  0  0  0  0
    4.9149   11.5802   27.6961 C   0  0  0  0  0  0  0  0  0  0  0  0
    3.6303   12.3678   27.6003 C   0  0  0  0  0  0  0  0  0  0  0  0
    4.5813   12.6404   28.7255 C   0  0  0  0  0  0  0  0  0  0  0  0
    6.5603   10.8434   25.9372 C   0  0  0  0  0  0  0  0  0  0  0  0
    7.5980   11.1337   25.0335 C   0  0  0  0  0  0  0  0  0  0  0  0
    8.1508    9.9327   24.3737 C   0  0  0  0  0  0  0  0  0  0  0  0
    7.7589    8.8287   24.7222 O   0  0  0  0  0  0  0  0  0  0  0  0
    9.0896   10.1539   23.4349 O   0  0  0  0  0  0  0  0  0  0  0  0
    9.6294    8.9524   22.8843 C   0  0  0  0  0  0  0  0  0  0  0  0
  1  2  1  0
  2  3  1  0
  3  4  1  0
  4  5  1  6
  4  6  1  0
  6  7  1  0
  6  8  1  0
  8  9  2  0
  9 10  1  0
 10 11  2  0
 11 12  1  0
 12 13  1  0
 13 14  1  0
 11 15  1  0
 15 16  2  0
 16 17  1  0
 17 18  2  0
 17 19  1  0
 19 20  1  0
 16  8  1  0
 14 12  1  0
M  END
>  <energy_score>  (3087) 
-34.432412

>  <inchikey>  (3087) 
LVPHNQDJRRDHAZ-UHFFFAOYSA-N

>  <smiles>  (3087) 
CCCC(C)N(N)c1cnc(C2CC2)cc1C(=O)OC

>  <ref_pdb>  (3087) 
A0528a

>  <alias>  (3087) 
LVPHNQDJRRDHAZ-UHFFFAOYSA-N-P15-P15-P308-601501

>  <HIPPO Pose ID>  (3087) 
501826

>  <name>  (3087) 
LVPHNQDJRRDHAZ-UHFFFAOYSA-N-P15-P15-P308-601501

>  <HIPPO Compound ID>  (3087) 
292627

>  <ref_mols>  (3087) 
A4331a,A0514a

>  <distance_score>  (3087) 
1.538204

>  <inspiration_score>  (3087) 
None

$$$$
LVPHNQDJRRDHAZ-UHFFFAOYSA-N-P308-P15-P308-601501
     RDKit          3D

 20 21  0  0  0  0  0  0  0  0999 V2000
   11.1844   15.4940   20.2927 C   0  0  0  0  0  0  0  0  0  0  0  0
    9.8617   15.4878   21.0378 C   0  0  0  0  0  0  0  0  0  0  0  0
    9.9703   14.6742   22.3207 C   0  0  0  0  0  0  0  0  0  0  0  0
    8.6831   14.7119   23.1577 C   0  0  1  0  0  0  0  0  0  0  0  0
    7.5655   13.9096   22.4921 C   0  0  0  0  0  0  0  0  0  0  0  0
    9.0709   14.2738   24.5416 N   0  0  0  0  0  0  0  0  0  0  0  0
    9.4810   15.3648   25.3898 N   0  0  0  0  0  0  0  0  0  0  0  0
    8.1597   13.3952   25.1558 C   0  0  0  0  0  0  0  0  0  0  0  0
    7.0801   13.9006   25.8621 C   0  0  0  0  0  0  0  0  0  0  0  0
    6.1386   13.1537   26.4500 N   0  0  0  0  0  0  0  0  0  0  0  0
    6.1919   11.8097   26.3376 C   0  0  0  0  0  0  0  0  0  0  0  0
    5.1423   11.0601   27.1145 C   0  0  0  0  0  0  0  0  0  0  0  0
    3.8544   11.7565   27.5199 C   0  0  0  0  0  0  0  0  0  0  0  0
    4.9065   11.5132   28.5478 C   0  0  0  0  0  0  0  0  0  0  0  0
    7.2259   11.2010   25.6337 C   0  0  0  0  0  0  0  0  0  0  0  0
    8.2388   12.0017   25.0686 C   0  0  0  0  0  0  0  0  0  0  0  0
    9.2804   11.2932   24.2920 C   0  0  0  0  0  0  0  0  0  0  0  0
    8.9035   10.4160   23.5190 O   0  0  0  0  0  0  0  0  0  0  0  0
   10.6018   11.5438   24.4452 O   0  0  0  0  0  0  0  0  0  0  0  0
   11.2132   12.4995   25.3212 C   0  0  0  0  0  0  0  0  0  0  0  0
  1  2  1  0
  2  3  1  0
  3  4  1  0
  4  5  1  6
  4  6  1  0
  6  7  1  0
  6  8  1  0
  8  9  2  0
  9 10  1  0
 10 11  2  0
 11 12  1  0
 12 13  1  0
 13 14  1  0
 11 15  1  0
 15 16  2  0
 16 17  1  0
 17 18  2  0
 17 19  1  0
 19 20  1  0
 16  8  1  0
 14 12  1  0
M  END
>  <energy_score>  (3088) 
-25.420037

>  <inchikey>  (3088) 
LVPHNQDJRRDHAZ-UHFFFAOYSA-N

>  <smiles>  (3088) 
CCCC(C)N(N)c1cnc(C2CC2)cc1C(=O)OC

>  <ref_pdb>  (3088) 
A0528a

>  <alias>  (3088) 
LVPHNQDJRRDHAZ-UHFFFAOYSA-N-P308-P15-P308-601501

>  <HIPPO Pose ID>  (3088) 
501827

>  <name>  (3088) 
LVPHNQDJRRDHAZ-UHFFFAOYSA-N-P308-P15-P308-601501

>  <HIPPO Compound ID>  (3088) 
292627

>  <ref_mols>  (3088) 
A4331a,A0514a

>  <distance_score>  (3088) 
1.609877

>  <inspiration_score>  (3088) 
None

$$$$
UAKJHRDQYXLPCW-UHFFFAOYSA-N-P15-P15-P308-601501
     RDKit          3D

 20 21  0  0  0  0  0  0  0  0999 V2000
    9.3973    8.6489   23.0401 C   0  0  0  0  0  0  0  0  0  0  0  0
    8.5849    9.4254   23.9259 O   0  0  0  0  0  0  0  0  0  0  0  0
    8.9230   10.7345   23.9954 C   0  0  0  0  0  0  0  0  0  0  0  0
    9.8439   11.2461   23.3799 O   0  0  0  0  0  0  0  0  0  0  0  0
    8.0289   11.4595   24.9509 C   0  0  0  0  0  0  0  0  0  0  0  0
    7.0115   10.7474   25.6105 C   0  0  0  0  0  0  0  0  0  0  0  0
    6.1971   11.4009   26.5276 C   0  0  0  0  0  0  0  0  0  0  0  0
    5.1328   10.7040   27.3211 C   0  0  0  0  0  0  0  0  0  0  0  0
    5.0502   10.9626   28.8080 C   0  0  0  0  0  0  0  0  0  0  0  0
    4.0039   11.5369   27.9049 C   0  0  0  0  0  0  0  0  0  0  0  0
    6.3689   12.7098   26.8035 N   0  0  0  0  0  0  0  0  0  0  0  0
    7.3026   13.3883   26.1323 C   0  0  0  0  0  0  0  0  0  0  0  0
    8.1623   12.8419   25.1906 C   0  0  0  0  0  0  0  0  0  0  0  0
    9.0280   13.7486   24.5420 N   0  0  0  0  0  0  0  0  0  0  0  0
   10.4093   13.4500   24.6595 N   0  0  0  0  0  0  0  0  0  0  0  0
    8.4338   14.4265   23.3207 C   0  0  0  0  0  0  0  0  0  0  0  0
    7.5085   15.5807   23.7821 C   0  0  0  0  0  0  0  0  0  0  0  0
    7.4778   13.5372   22.5679 C   0  0  0  0  0  0  0  0  0  0  0  0
    9.5431   14.7462   22.2622 C   0  0  0  0  0  0  0  0  0  0  0  0
    9.0648   15.4312   21.1106 O   0  0  0  0  0  0  0  0  0  0  0  0
  1  2  1  0
  2  3  1  0
  3  4  2  0
  3  5  1  0
  5  6  2  0
  6  7  1  0
  7  8  1  0
  8  9  1  0
  9 10  1  0
  7 11  2  0
 11 12  1  0
 12 13  2  0
 13 14  1  0
 14 15  1  0
 14 16  1  0
 16 17  1  0
 16 18  1  0
 16 19  1  0
 19 20  1  0
 13  5  1  0
 10  8  1  0
M  END
>  <energy_score>  (3089) 
-23.410173

>  <inchikey>  (3089) 
UAKJHRDQYXLPCW-UHFFFAOYSA-N

>  <smiles>  (3089) 
COC(=O)c1cc(C2CC2)ncc1N(N)C(C)(C)CO

>  <ref_pdb>  (3089) 
A0528a

>  <alias>  (3089) 
UAKJHRDQYXLPCW-UHFFFAOYSA-N-P15-P15-P308-601501

>  <HIPPO Pose ID>  (3089) 
501828

>  <name>  (3089) 
UAKJHRDQYXLPCW-UHFFFAOYSA-N-P15-P15-P308-601501

>  <HIPPO Compound ID>  (3089) 
292628

>  <ref_mols>  (3089) 
A4331a,A0514a

>  <distance_score>  (3089) 
1.999589

>  <inspiration_score>  (3089) 
None

$$$$
UAKJHRDQYXLPCW-UHFFFAOYSA-N-P308-P15-P308-601501
     RDKit          3D

 20 21  0  0  0  0  0  0  0  0999 V2000
    9.2628    8.7223   23.2379 C   0  0  0  0  0  0  0  0  0  0  0  0
    8.4203    9.6310   23.9482 O   0  0  0  0  0  0  0  0  0  0  0  0
    9.1000   10.6539   24.5195 C   0  0  0  0  0  0  0  0  0  0  0  0
   10.3121   10.7991   24.5211 O   0  0  0  0  0  0  0  0  0  0  0  0
    8.1353   11.5985   25.1358 C   0  0  0  0  0  0  0  0  0  0  0  0
    6.9221   11.1431   25.6721 C   0  0  0  0  0  0  0  0  0  0  0  0
    6.0954   12.0624   26.3083 C   0  0  0  0  0  0  0  0  0  0  0  0
    4.7358   11.7696   26.8444 C   0  0  0  0  0  0  0  0  0  0  0  0
    4.4348   10.7731   27.9228 C   0  0  0  0  0  0  0  0  0  0  0  0
    4.4597   12.2305   28.2642 C   0  0  0  0  0  0  0  0  0  0  0  0
    6.4620   13.3521   26.4690 N   0  0  0  0  0  0  0  0  0  0  0  0
    7.6057   13.7698   25.9182 C   0  0  0  0  0  0  0  0  0  0  0  0
    8.4596   12.9603   25.1935 C   0  0  0  0  0  0  0  0  0  0  0  0
    9.5314   13.5213   24.4852 N   0  0  0  0  0  0  0  0  0  0  0  0
   10.6178   13.9240   25.3166 N   0  0  0  0  0  0  0  0  0  0  0  0
    9.1748   14.3364   23.2631 C   0  0  0  0  0  0  0  0  0  0  0  0
    9.1620   15.8447   23.5579 C   0  0  0  0  0  0  0  0  0  0  0  0
    7.8056   13.9447   22.6578 C   0  0  0  0  0  0  0  0  0  0  0  0
   10.2651   14.0342   22.2095 C   0  0  0  0  0  0  0  0  0  0  0  0
    9.9631   14.5798   20.9293 O   0  0  0  0  0  0  0  0  0  0  0  0
  1  2  1  0
  2  3  1  0
  3  4  2  0
  3  5  1  0
  5  6  2  0
  6  7  1  0
  7  8  1  0
  8  9  1  0
  9 10  1  0
  7 11  2  0
 11 12  1  0
 12 13  2  0
 13 14  1  0
 14 15  1  0
 14 16  1  0
 16 17  1  0
 16 18  1  0
 16 19  1  0
 19 20  1  0
 13  5  1  0
 10  8  1  0
M  END
>  <energy_score>  (3090) 
-36.448243

>  <inchikey>  (3090) 
UAKJHRDQYXLPCW-UHFFFAOYSA-N

>  <smiles>  (3090) 
COC(=O)c1cc(C2CC2)ncc1N(N)C(C)(C)CO

>  <ref_pdb>  (3090) 
A0528a

>  <alias>  (3090) 
UAKJHRDQYXLPCW-UHFFFAOYSA-N-P308-P15-P308-601501

>  <HIPPO Pose ID>  (3090) 
501829

>  <name>  (3090) 
UAKJHRDQYXLPCW-UHFFFAOYSA-N-P308-P15-P308-601501

>  <HIPPO Compound ID>  (3090) 
292628

>  <ref_mols>  (3090) 
A4331a,A0514a

>  <distance_score>  (3090) 
1.889017

>  <inspiration_score>  (3090) 
None

$$$$
ZZTIGHJYNOWYFS-UHFFFAOYSA-N-P15-P15-P308-601501
     RDKit          3D

 20 22  0  0  0  0  0  0  0  0999 V2000
    9.3933    8.4809   23.1216 C   0  0  0  0  0  0  0  0  0  0  0  0
    8.6631    9.3257   24.0121 O   0  0  0  0  0  0  0  0  0  0  0  0
    8.8805   10.6484   23.8334 C   0  0  0  0  0  0  0  0  0  0  0  0
    9.6283   11.1217   22.9945 O   0  0  0  0  0  0  0  0  0  0  0  0
    8.0749   11.4558   24.7865 C   0  0  0  0  0  0  0  0  0  0  0  0
    7.0244   10.8460   25.4894 C   0  0  0  0  0  0  0  0  0  0  0  0
    6.2537   11.6079   26.3580 C   0  0  0  0  0  0  0  0  0  0  0  0
    5.1754   11.0139   27.2175 C   0  0  0  0  0  0  0  0  0  0  0  0
    5.1085   11.4044   28.6764 C   0  0  0  0  0  0  0  0  0  0  0  0
    4.0705   11.9204   27.7292 C   0  0  0  0  0  0  0  0  0  0  0  0
    6.4766   12.9318   26.5083 N   0  0  0  0  0  0  0  0  0  0  0  0
    7.4619   13.5072   25.8061 C   0  0  0  0  0  0  0  0  0  0  0  0
    8.3240   12.8281   24.9609 C   0  0  0  0  0  0  0  0  0  0  0  0
    9.3715   13.5875   24.3840 N   0  0  0  0  0  0  0  0  0  0  0  0
   10.6757   13.0474   24.5679 N   0  0  0  0  0  0  0  0  0  0  0  0
    8.9454   14.0702   23.0405 C   0  0  0  0  0  0  0  0  0  0  0  0
   10.1299   14.4196   22.1441 C   0  0  0  0  0  0  0  0  0  0  0  0
    9.7211   15.0751   20.8628 C   0  0  0  0  0  0  0  0  0  0  0  0
   10.7828   15.2506   19.7958 C   0  0  0  0  0  0  0  0  0  0  0  0
   10.2296   16.4361   20.5067 C   0  0  0  0  0  0  0  0  0  0  0  0
  1  2  1  0
  2  3  1  0
  3  4  2  0
  3  5  1  0
  5  6  2  0
  6  7  1  0
  7  8  1  0
  8  9  1  0
  9 10  1  0
  7 11  2  0
 11 12  1  0
 12 13  2  0
 13 14  1  0
 14 15  1  0
 14 16  1  0
 16 17  1  0
 17 18  1  0
 18 19  1  0
 19 20  1  0
 13  5  1  0
 20 18  1  0
 10  8  1  0
M  END
>  <energy_score>  (3091) 
-32.566899

>  <inchikey>  (3091) 
ZZTIGHJYNOWYFS-UHFFFAOYSA-N

>  <smiles>  (3091) 
COC(=O)c1cc(C2CC2)ncc1N(N)CCC1CC1

>  <ref_pdb>  (3091) 
A0528a

>  <alias>  (3091) 
ZZTIGHJYNOWYFS-UHFFFAOYSA-N-P15-P15-P308-601501

>  <HIPPO Pose ID>  (3091) 
501830

>  <name>  (3091) 
ZZTIGHJYNOWYFS-UHFFFAOYSA-N-P15-P15-P308-601501

>  <HIPPO Compound ID>  (3091) 
292629

>  <ref_mols>  (3091) 
A4331a,A0514a

>  <distance_score>  (3091) 
1.731077

>  <inspiration_score>  (3091) 
None

$$$$
ZZTIGHJYNOWYFS-UHFFFAOYSA-N-P308-P15-P308-601501
     RDKit          3D

 20 22  0  0  0  0  0  0  0  0999 V2000
    9.6502    8.5949   23.5779 C   0  0  0  0  0  0  0  0  0  0  0  0
    8.8516    9.4435   24.3990 O   0  0  0  0  0  0  0  0  0  0  0  0
    8.8046   10.7200   23.9504 C   0  0  0  0  0  0  0  0  0  0  0  0
    9.3325   11.1379   22.9367 O   0  0  0  0  0  0  0  0  0  0  0  0
    7.9924   11.5435   24.8665 C   0  0  0  0  0  0  0  0  0  0  0  0
    6.8886   10.9686   25.5097 C   0  0  0  0  0  0  0  0  0  0  0  0
    6.1058   11.7642   26.3332 C   0  0  0  0  0  0  0  0  0  0  0  0
    4.9413   11.2305   27.1167 C   0  0  0  0  0  0  0  0  0  0  0  0
    4.7191   11.7174   28.5324 C   0  0  0  0  0  0  0  0  0  0  0  0
    3.7996   12.1752   27.4449 C   0  0  0  0  0  0  0  0  0  0  0  0
    6.3836   13.0779   26.4989 N   0  0  0  0  0  0  0  0  0  0  0  0
    7.4347   13.6096   25.8606 C   0  0  0  0  0  0  0  0  0  0  0  0
    8.3071   12.8944   25.0607 C   0  0  0  0  0  0  0  0  0  0  0  0
    9.4490   13.5111   24.4972 N   0  0  0  0  0  0  0  0  0  0  0  0
   10.2768   14.2404   25.4008 N   0  0  0  0  0  0  0  0  0  0  0  0
    9.0683   14.2130   23.2410 C   0  0  0  0  0  0  0  0  0  0  0  0
   10.2914   14.4076   22.3511 C   0  0  0  0  0  0  0  0  0  0  0  0
    9.9452   15.0811   21.0550 C   0  0  0  0  0  0  0  0  0  0  0  0
   11.0366   15.2687   20.0308 C   0  0  0  0  0  0  0  0  0  0  0  0
   10.4582   16.4589   20.7330 C   0  0  0  0  0  0  0  0  0  0  0  0
  1  2  1  0
  2  3  1  0
  3  4  2  0
  3  5  1  0
  5  6  2  0
  6  7  1  0
  7  8  1  0
  8  9  1  0
  9 10  1  0
  7 11  2  0
 11 12  1  0
 12 13  2  0
 13 14  1  0
 14 15  1  0
 14 16  1  0
 16 17  1  0
 17 18  1  0
 18 19  1  0
 19 20  1  0
 13  5  1  0
 20 18  1  0
 10  8  1  0
M  END
>  <energy_score>  (3092) 
-35.666054

>  <inchikey>  (3092) 
ZZTIGHJYNOWYFS-UHFFFAOYSA-N

>  <smiles>  (3092) 
COC(=O)c1cc(C2CC2)ncc1N(N)CCC1CC1

>  <ref_pdb>  (3092) 
A0528a

>  <alias>  (3092) 
ZZTIGHJYNOWYFS-UHFFFAOYSA-N-P308-P15-P308-601501

>  <HIPPO Pose ID>  (3092) 
501831

>  <name>  (3092) 
ZZTIGHJYNOWYFS-UHFFFAOYSA-N-P308-P15-P308-601501

>  <HIPPO Compound ID>  (3092) 
292629

>  <ref_mols>  (3092) 
A4331a,A0514a

>  <distance_score>  (3092) 
1.759868

>  <inspiration_score>  (3092) 
None

$$$$
LKKIVODBMFQDDD-UHFFFAOYSA-N-P15-P15-P308-601501
     RDKit          3D

 20 21  0  0  0  0  0  0  0  0999 V2000
   11.2968   14.6451   22.4691 C   0  0  0  0  0  0  0  0  0  0  0  0
    9.8334   14.4548   22.0943 C   0  0  0  0  0  0  0  0  0  0  0  0
    8.8343   14.1854   23.2413 C   0  0  1  0  0  0  0  0  0  0  0  0
    7.4142   14.2959   22.6414 C   0  0  0  0  0  0  0  0  0  0  0  0
    7.1960   13.2738   21.7751 F   0  0  0  0  0  0  0  0  0  0  0  0
    9.0567   12.8750   23.9252 N   0  0  0  0  0  0  0  0  0  0  0  0
   10.3545   12.5190   24.3431 N   0  0  0  0  0  0  0  0  0  0  0  0
    8.0753   12.4653   24.8463 C   0  0  0  0  0  0  0  0  0  0  0  0
    7.4854   13.3818   25.7125 C   0  0  0  0  0  0  0  0  0  0  0  0
    6.5223   13.1117   26.6075 N   0  0  0  0  0  0  0  0  0  0  0  0
    6.0436   11.8565   26.6777 C   0  0  0  0  0  0  0  0  0  0  0  0
    4.9393   11.5897   27.6553 C   0  0  0  0  0  0  0  0  0  0  0  0
    3.6626   12.3891   27.5501 C   0  0  0  0  0  0  0  0  0  0  0  0
    4.6005   12.6432   28.6902 C   0  0  0  0  0  0  0  0  0  0  0  0
    6.5855   10.8580   25.8939 C   0  0  0  0  0  0  0  0  0  0  0  0
    7.6337   11.1471   25.0007 C   0  0  0  0  0  0  0  0  0  0  0  0
    8.1831    9.9469   24.3382 C   0  0  0  0  0  0  0  0  0  0  0  0
    7.8136    8.8423   24.7122 O   0  0  0  0  0  0  0  0  0  0  0  0
    9.0866   10.1701   23.3682 O   0  0  0  0  0  0  0  0  0  0  0  0
    9.6406    8.9672   22.8397 C   0  0  0  0  0  0  0  0  0  0  0  0
  1  2  1  0
  3  2  1  6
  3  4  1  0
  4  5  1  0
  3  6  1  0
  6  7  1  0
  6  8  1  0
  8  9  2  0
  9 10  1  0
 10 11  2  0
 11 12  1  0
 12 13  1  0
 13 14  1  0
 11 15  1  0
 15 16  2  0
 16 17  1  0
 17 18  2  0
 17 19  1  0
 19 20  1  0
 16  8  1  0
 14 12  1  0
M  END
>  <energy_score>  (3093) 
-23.875842

>  <inchikey>  (3093) 
LKKIVODBMFQDDD-UHFFFAOYSA-N

>  <smiles>  (3093) 
CCC(CF)N(N)c1cnc(C2CC2)cc1C(=O)OC

>  <ref_pdb>  (3093) 
A0528a

>  <alias>  (3093) 
LKKIVODBMFQDDD-UHFFFAOYSA-N-P15-P15-P308-601501

>  <HIPPO Pose ID>  (3093) 
501832

>  <name>  (3093) 
LKKIVODBMFQDDD-UHFFFAOYSA-N-P15-P15-P308-601501

>  <HIPPO Compound ID>  (3093) 
292630

>  <ref_mols>  (3093) 
A4331a,A0514a

>  <distance_score>  (3093) 
1.429366

>  <inspiration_score>  (3093) 
None

$$$$
LKKIVODBMFQDDD-UHFFFAOYSA-N-P308-P15-P308-601501
     RDKit          3D

 20 21  0  0  0  0  0  0  0  0999 V2000
   11.0451   15.3211   22.9562 C   0  0  0  0  0  0  0  0  0  0  0  0
    9.9111   14.4774   22.3783 C   0  0  0  0  0  0  0  0  0  0  0  0
    8.8042   14.1877   23.4099 C   0  0  1  0  0  0  0  0  0  0  0  0
    7.4316   14.1809   22.6929 C   0  0  0  0  0  0  0  0  0  0  0  0
    7.2943   13.0978   21.8908 F   0  0  0  0  0  0  0  0  0  0  0  0
    9.0701   12.9011   24.1493 N   0  0  0  0  0  0  0  0  0  0  0  0
   10.3541   12.6603   24.7088 N   0  0  0  0  0  0  0  0  0  0  0  0
    8.0314   12.4469   24.9807 C   0  0  0  0  0  0  0  0  0  0  0  0
    7.3481   13.3476   25.7916 C   0  0  0  0  0  0  0  0  0  0  0  0
    6.2985   13.0578   26.5711 N   0  0  0  0  0  0  0  0  0  0  0  0
    5.8494   11.7889   26.5965 C   0  0  0  0  0  0  0  0  0  0  0  0
    4.6918   11.4919   27.5015 C   0  0  0  0  0  0  0  0  0  0  0  0
    3.4792   12.3904   27.4660 C   0  0  0  0  0  0  0  0  0  0  0  0
    4.4026   12.4434   28.6449 C   0  0  0  0  0  0  0  0  0  0  0  0
    6.4823   10.8041   25.8616 C   0  0  0  0  0  0  0  0  0  0  0  0
    7.6030   11.1170   25.0743 C   0  0  0  0  0  0  0  0  0  0  0  0
    8.2168    9.9323   24.4315 C   0  0  0  0  0  0  0  0  0  0  0  0
    7.8883    8.8043   24.7804 O   0  0  0  0  0  0  0  0  0  0  0  0
    9.0867   10.2112   23.4434 O   0  0  0  0  0  0  0  0  0  0  0  0
    9.6423    9.0403   22.8495 C   0  0  0  0  0  0  0  0  0  0  0  0
  1  2  1  0
  3  2  1  6
  3  4  1  0
  4  5  1  0
  3  6  1  0
  6  7  1  0
  6  8  1  0
  8  9  2  0
  9 10  1  0
 10 11  2  0
 11 12  1  0
 12 13  1  0
 13 14  1  0
 11 15  1  0
 15 16  2  0
 16 17  1  0
 17 18  2  0
 17 19  1  0
 19 20  1  0
 16  8  1  0
 14 12  1  0
M  END
>  <energy_score>  (3094) 
-26.016518

>  <inchikey>  (3094) 
LKKIVODBMFQDDD-UHFFFAOYSA-N

>  <smiles>  (3094) 
CCC(CF)N(N)c1cnc(C2CC2)cc1C(=O)OC

>  <ref_pdb>  (3094) 
A0528a

>  <alias>  (3094) 
LKKIVODBMFQDDD-UHFFFAOYSA-N-P308-P15-P308-601501

>  <HIPPO Pose ID>  (3094) 
501833

>  <name>  (3094) 
LKKIVODBMFQDDD-UHFFFAOYSA-N-P308-P15-P308-601501

>  <HIPPO Compound ID>  (3094) 
292630

>  <ref_mols>  (3094) 
A4331a,A0514a

>  <distance_score>  (3094) 
1.443041

>  <inspiration_score>  (3094) 
None

$$$$
GIUBGVXWNQJBDM-UHFFFAOYSA-N-P15-P15-P308-601501
     RDKit          3D

 20 21  0  0  0  0  0  0  0  0999 V2000
    9.3739    8.4916   23.3365 C   0  0  0  0  0  0  0  0  0  0  0  0
    8.6102    9.2713   24.2609 O   0  0  0  0  0  0  0  0  0  0  0  0
    8.6238   10.5874   23.9511 C   0  0  0  0  0  0  0  0  0  0  0  0
    9.1630   11.0621   22.9668 O   0  0  0  0  0  0  0  0  0  0  0  0
    7.8903   11.3979   24.9480 C   0  0  0  0  0  0  0  0  0  0  0  0
    6.9251   10.8344   25.7886 C   0  0  0  0  0  0  0  0  0  0  0  0
    6.3116   11.6561   26.7305 C   0  0  0  0  0  0  0  0  0  0  0  0
    5.5144   11.1697   27.8956 C   0  0  0  0  0  0  0  0  0  0  0  0
    4.4534   10.1267   27.8426 C   0  0  0  0  0  0  0  0  0  0  0  0
    4.0629   11.5784   27.9271 C   0  0  0  0  0  0  0  0  0  0  0  0
    6.5245   12.9891   26.7572 N   0  0  0  0  0  0  0  0  0  0  0  0
    7.4366   13.5083   25.9292 C   0  0  0  0  0  0  0  0  0  0  0  0
    8.2065   12.7581   25.0585 C   0  0  0  0  0  0  0  0  0  0  0  0
    9.3031   13.3351   24.3851 N   0  0  0  0  0  0  0  0  0  0  0  0
   10.3123   13.8555   25.2294 N   0  0  0  0  0  0  0  0  0  0  0  0
    8.8411   14.1134   23.2197 C   0  0  0  0  0  0  0  0  0  0  0  0
   10.0031   14.4095   22.2912 C   0  0  0  0  0  0  0  0  0  0  0  0
    9.5354   15.2350   21.1242 C   0  0  0  0  0  0  0  0  0  0  0  0
   10.5172   15.2607   20.1950 F   0  0  0  0  0  0  0  0  0  0  0  0
    8.4565   14.6232   20.5763 F   0  0  0  0  0  0  0  0  0  0  0  0
  1  2  1  0
  2  3  1  0
  3  4  2  0
  3  5  1  0
  5  6  2  0
  6  7  1  0
  7  8  1  0
  8  9  1  0
  9 10  1  0
  7 11  2  0
 11 12  1  0
 12 13  2  0
 13 14  1  0
 14 15  1  0
 14 16  1  0
 16 17  1  0
 17 18  1  0
 18 19  1  0
 18 20  1  0
 13  5  1  0
 10  8  1  0
M  END
>  <energy_score>  (3095) 
-17.135097

>  <inchikey>  (3095) 
GIUBGVXWNQJBDM-UHFFFAOYSA-N

>  <smiles>  (3095) 
COC(=O)c1cc(C2CC2)ncc1N(N)CCC(F)F

>  <ref_pdb>  (3095) 
A0528a

>  <alias>  (3095) 
GIUBGVXWNQJBDM-UHFFFAOYSA-N-P15-P15-P308-601501

>  <HIPPO Pose ID>  (3095) 
501834

>  <name>  (3095) 
GIUBGVXWNQJBDM-UHFFFAOYSA-N-P15-P15-P308-601501

>  <HIPPO Compound ID>  (3095) 
292631

>  <ref_mols>  (3095) 
A4331a,A0514a

>  <distance_score>  (3095) 
1.956946

>  <inspiration_score>  (3095) 
None

$$$$
GIUBGVXWNQJBDM-UHFFFAOYSA-N-P308-P15-P308-601501
     RDKit          3D

 20 21  0  0  0  0  0  0  0  0999 V2000
    9.4436    8.6123   23.0541 C   0  0  0  0  0  0  0  0  0  0  0  0
    8.6315    9.5536   23.7429 O   0  0  0  0  0  0  0  0  0  0  0  0
    9.3310   10.4425   24.4860 C   0  0  0  0  0  0  0  0  0  0  0  0
   10.5366   10.4534   24.6721 O   0  0  0  0  0  0  0  0  0  0  0  0
    8.3601   11.4171   25.0251 C   0  0  0  0  0  0  0  0  0  0  0  0
    7.1579   10.9402   25.5699 C   0  0  0  0  0  0  0  0  0  0  0  0
    6.2982   11.8386   26.1846 C   0  0  0  0  0  0  0  0  0  0  0  0
    5.0921   11.4037   26.9726 C   0  0  0  0  0  0  0  0  0  0  0  0
    3.9228   12.3475   27.1546 C   0  0  0  0  0  0  0  0  0  0  0  0
    4.8453   12.0925   28.3036 C   0  0  0  0  0  0  0  0  0  0  0  0
    6.5839   13.1601   26.2023 N   0  0  0  0  0  0  0  0  0  0  0  0
    7.7316   13.5959   25.6575 C   0  0  0  0  0  0  0  0  0  0  0  0
    8.6788   12.7782   25.0671 C   0  0  0  0  0  0  0  0  0  0  0  0
    9.8788   13.3029   24.5420 N   0  0  0  0  0  0  0  0  0  0  0  0
   10.5719   14.2236   25.3725 N   0  0  0  0  0  0  0  0  0  0  0  0
    9.7454   13.6477   23.1023 C   0  0  0  0  0  0  0  0  0  0  0  0
    9.2940   15.0876   22.8769 C   0  0  0  0  0  0  0  0  0  0  0  0
    9.1602   15.3525   21.3995 C   0  0  0  0  0  0  0  0  0  0  0  0
   10.3430   15.1221   20.7801 F   0  0  0  0  0  0  0  0  0  0  0  0
    8.2571   14.4839   20.8761 F   0  0  0  0  0  0  0  0  0  0  0  0
  1  2  1  0
  2  3  1  0
  3  4  2  0
  3  5  1  0
  5  6  2  0
  6  7  1  0
  7  8  1  0
  8  9  1  0
  9 10  1  0
  7 11  2  0
 11 12  1  0
 12 13  2  0
 13 14  1  0
 14 15  1  0
 14 16  1  0
 16 17  1  0
 17 18  1  0
 18 19  1  0
 18 20  1  0
 13  5  1  0
 10  8  1  0
M  END
>  <energy_score>  (3096) 
-25.817402

>  <inchikey>  (3096) 
GIUBGVXWNQJBDM-UHFFFAOYSA-N

>  <smiles>  (3096) 
COC(=O)c1cc(C2CC2)ncc1N(N)CCC(F)F

>  <ref_pdb>  (3096) 
A0528a

>  <alias>  (3096) 
GIUBGVXWNQJBDM-UHFFFAOYSA-N-P308-P15-P308-601501

>  <HIPPO Pose ID>  (3096) 
501835

>  <name>  (3096) 
GIUBGVXWNQJBDM-UHFFFAOYSA-N-P308-P15-P308-601501

>  <HIPPO Compound ID>  (3096) 
292631

>  <ref_mols>  (3096) 
A4331a,A0514a

>  <distance_score>  (3096) 
1.597944

>  <inspiration_score>  (3096) 
None

$$$$
SNDMSMHKIFTQKU-UHFFFAOYSA-N-P15-P15-P308-601501
     RDKit          3D

 20 21  0  0  0  0  0  0  0  0999 V2000
    9.3851    8.4835   23.4033 C   0  0  0  0  0  0  0  0  0  0  0  0
    8.5677    9.2680   24.2768 O   0  0  0  0  0  0  0  0  0  0  0  0
    8.5773   10.5702   23.9180 C   0  0  0  0  0  0  0  0  0  0  0  0
    9.1459   11.0154   22.9356 O   0  0  0  0  0  0  0  0  0  0  0  0
    7.8368   11.4144   24.8773 C   0  0  0  0  0  0  0  0  0  0  0  0
    6.7740   10.9223   25.6418 C   0  0  0  0  0  0  0  0  0  0  0  0
    6.1113   11.8057   26.4922 C   0  0  0  0  0  0  0  0  0  0  0  0
    4.9225   11.4631   27.3234 C   0  0  0  0  0  0  0  0  0  0  0  0
    4.9574   10.4627   28.4353 C   0  0  0  0  0  0  0  0  0  0  0  0
    4.9403   11.9232   28.7686 C   0  0  0  0  0  0  0  0  0  0  0  0
    6.4932   13.0940   26.6214 N   0  0  0  0  0  0  0  0  0  0  0  0
    7.5024   13.5426   25.8756 C   0  0  0  0  0  0  0  0  0  0  0  0
    8.2074   12.7600   24.9765 C   0  0  0  0  0  0  0  0  0  0  0  0
    9.2705   13.3113   24.2259 N   0  0  0  0  0  0  0  0  0  0  0  0
   10.3395   13.7208   25.1120 N   0  0  0  0  0  0  0  0  0  0  0  0
    8.7916   14.3519   23.2492 C   0  0  2  0  0  0  0  0  0  0  0  0
    7.4263   14.1088   22.6015 C   0  0  0  0  0  0  0  0  0  0  0  0
    9.7737   14.5564   22.0749 C   0  0  0  0  0  0  0  0  0  0  0  0
   11.1569   14.7246   22.4904 C   0  0  0  0  0  0  0  0  0  0  0  0
   12.2234   14.7673   22.9442 N   0  0  0  0  0  0  0  0  0  0  0  0
  1  2  1  0
  2  3  1  0
  3  4  2  0
  3  5  1  0
  5  6  2  0
  6  7  1  0
  7  8  1  0
  8  9  1  0
  9 10  1  0
  7 11  2  0
 11 12  1  0
 12 13  2  0
 13 14  1  0
 14 15  1  0
 14 16  1  0
 16 17  1  6
 16 18  1  0
 18 19  1  0
 19 20  3  0
 13  5  1  0
 10  8  1  0
M  END
>  <energy_score>  (3097) 
-17.677149

>  <inchikey>  (3097) 
SNDMSMHKIFTQKU-UHFFFAOYSA-N

>  <smiles>  (3097) 
COC(=O)c1cc(C2CC2)ncc1N(N)C(C)CC#N

>  <ref_pdb>  (3097) 
A0528a

>  <alias>  (3097) 
SNDMSMHKIFTQKU-UHFFFAOYSA-N-P15-P15-P308-601501

>  <HIPPO Pose ID>  (3097) 
501838

>  <name>  (3097) 
SNDMSMHKIFTQKU-UHFFFAOYSA-N-P15-P15-P308-601501

>  <HIPPO Compound ID>  (3097) 
292633

>  <ref_mols>  (3097) 
A4331a,A0514a

>  <distance_score>  (3097) 
1.683447

>  <inspiration_score>  (3097) 
None

$$$$
SNDMSMHKIFTQKU-UHFFFAOYSA-N-P308-P15-P308-601501
     RDKit          3D

 20 21  0  0  0  0  0  0  0  0999 V2000
    9.0879    8.4923   23.1460 C   0  0  0  0  0  0  0  0  0  0  0  0
    8.2058    9.3548   23.8610 O   0  0  0  0  0  0  0  0  0  0  0  0
    8.8678   10.2656   24.6035 C   0  0  0  0  0  0  0  0  0  0  0  0
   10.0708   10.2788   24.8231 O   0  0  0  0  0  0  0  0  0  0  0  0
    7.9197   11.2857   25.0996 C   0  0  0  0  0  0  0  0  0  0  0  0
    6.7520   10.8938   25.7651 C   0  0  0  0  0  0  0  0  0  0  0  0
    5.9621   11.8819   26.3410 C   0  0  0  0  0  0  0  0  0  0  0  0
    4.6594   11.6681   27.0321 C   0  0  0  0  0  0  0  0  0  0  0  0
    4.4144   10.6898   28.1372 C   0  0  0  0  0  0  0  0  0  0  0  0
    4.5793   12.1420   28.4703 C   0  0  0  0  0  0  0  0  0  0  0  0
    6.3273   13.1789   26.3099 N   0  0  0  0  0  0  0  0  0  0  0  0
    7.4058   13.5305   25.6076 C   0  0  0  0  0  0  0  0  0  0  0  0
    8.2148   12.6442   24.9197 C   0  0  0  0  0  0  0  0  0  0  0  0
    9.2246   13.0950   24.0520 N   0  0  0  0  0  0  0  0  0  0  0  0
   10.5297   12.9261   24.5691 N   0  0  0  0  0  0  0  0  0  0  0  0
    8.9348   14.3441   23.2660 C   0  0  2  0  0  0  0  0  0  0  0  0
    7.6205   14.2052   22.4807 C   0  0  0  0  0  0  0  0  0  0  0  0
   10.0487   14.6392   22.2507 C   0  0  0  0  0  0  0  0  0  0  0  0
   11.2503   15.1014   22.9416 C   0  0  0  0  0  0  0  0  0  0  0  0
   12.1893   15.4125   23.5451 N   0  0  0  0  0  0  0  0  0  0  0  0
  1  2  1  0
  2  3  1  0
  3  4  2  0
  3  5  1  0
  5  6  2  0
  6  7  1  0
  7  8  1  0
  8  9  1  0
  9 10  1  0
  7 11  2  0
 11 12  1  0
 12 13  2  0
 13 14  1  0
 14 15  1  0
 14 16  1  0
 16 17  1  6
 16 18  1  0
 18 19  1  0
 19 20  3  0
 13  5  1  0
 10  8  1  0
M  END
>  <energy_score>  (3098) 
-23.08808

>  <inchikey>  (3098) 
SNDMSMHKIFTQKU-UHFFFAOYSA-N

>  <smiles>  (3098) 
COC(=O)c1cc(C2CC2)ncc1N(N)C(C)CC#N

>  <ref_pdb>  (3098) 
A0528a

>  <alias>  (3098) 
SNDMSMHKIFTQKU-UHFFFAOYSA-N-P308-P15-P308-601501

>  <HIPPO Pose ID>  (3098) 
501839

>  <name>  (3098) 
SNDMSMHKIFTQKU-UHFFFAOYSA-N-P308-P15-P308-601501

>  <HIPPO Compound ID>  (3098) 
292633

>  <ref_mols>  (3098) 
A4331a,A0514a

>  <distance_score>  (3098) 
1.608079

>  <inspiration_score>  (3098) 
None

$$$$
WPHOIXWCRTWZDS-UHFFFAOYSA-N-P15-P15-P308-601501
     RDKit          3D

 20 21  0  0  0  0  0  0  0  0999 V2000
    9.2869    8.5558   23.3857 C   0  0  0  0  0  0  0  0  0  0  0  0
    8.5284    9.3673   24.2923 O   0  0  0  0  0  0  0  0  0  0  0  0
    8.6016   10.6816   23.9872 C   0  0  0  0  0  0  0  0  0  0  0  0
    9.1965   11.1450   23.0300 O   0  0  0  0  0  0  0  0  0  0  0  0
    7.8710   11.5168   24.9675 C   0  0  0  0  0  0  0  0  0  0  0  0
    6.7485   11.0290   25.6420 C   0  0  0  0  0  0  0  0  0  0  0  0
    6.0689   11.8922   26.4977 C   0  0  0  0  0  0  0  0  0  0  0  0
    4.8363   11.5403   27.2553 C   0  0  0  0  0  0  0  0  0  0  0  0
    4.7927   10.4479   28.2780 C   0  0  0  0  0  0  0  0  0  0  0  0
    4.8214   11.8755   28.7330 C   0  0  0  0  0  0  0  0  0  0  0  0
    6.4722   13.1645   26.7038 N   0  0  0  0  0  0  0  0  0  0  0  0
    7.5397   13.6123   26.0418 C   0  0  0  0  0  0  0  0  0  0  0  0
    8.2948   12.8383   25.1787 C   0  0  0  0  0  0  0  0  0  0  0  0
    9.4241   13.3950   24.5287 N   0  0  0  0  0  0  0  0  0  0  0  0
   10.3075   14.1522   25.3591 N   0  0  0  0  0  0  0  0  0  0  0  0
    8.9211   14.0628   23.3053 C   0  0  0  0  0  0  0  0  0  0  0  0
   10.0826   14.3087   22.3686 C   0  0  0  0  0  0  0  0  0  0  0  0
    9.6422   15.0840   21.1505 C   0  0  0  0  0  0  0  0  0  0  0  0
   10.8398   15.2721   20.2480 C   0  0  0  0  0  0  0  0  0  0  0  0
   10.4594   16.0341   19.1251 O   0  0  0  0  0  0  0  0  0  0  0  0
  1  2  1  0
  2  3  1  0
  3  4  2  0
  3  5  1  0
  5  6  2  0
  6  7  1  0
  7  8  1  0
  8  9  1  0
  9 10  1  0
  7 11  2  0
 11 12  1  0
 12 13  2  0
 13 14  1  0
 14 15  1  0
 14 16  1  0
 16 17  1  0
 17 18  1  0
 18 19  1  0
 19 20  1  0
 13  5  1  0
 10  8  1  0
M  END
>  <energy_score>  (3099) 
-38.67804

>  <inchikey>  (3099) 
WPHOIXWCRTWZDS-UHFFFAOYSA-N

>  <smiles>  (3099) 
COC(=O)c1cc(C2CC2)ncc1N(N)CCCCO

>  <ref_pdb>  (3099) 
A0528a

>  <alias>  (3099) 
WPHOIXWCRTWZDS-UHFFFAOYSA-N-P15-P15-P308-601501

>  <HIPPO Pose ID>  (3099) 
501840

>  <name>  (3099) 
WPHOIXWCRTWZDS-UHFFFAOYSA-N-P15-P15-P308-601501

>  <HIPPO Compound ID>  (3099) 
292634

>  <ref_mols>  (3099) 
A4331a,A0514a

>  <distance_score>  (3099) 
1.567889

>  <inspiration_score>  (3099) 
None

$$$$
WPHOIXWCRTWZDS-UHFFFAOYSA-N-P308-P15-P308-601501
     RDKit          3D

 20 21  0  0  0  0  0  0  0  0999 V2000
    9.2602    8.6076   23.1757 C   0  0  0  0  0  0  0  0  0  0  0  0
    8.4126    9.5012   23.8951 O   0  0  0  0  0  0  0  0  0  0  0  0
    9.0942   10.4380   24.5913 C   0  0  0  0  0  0  0  0  0  0  0  0
   10.3049   10.4979   24.7495 O   0  0  0  0  0  0  0  0  0  0  0  0
    8.1251   11.4281   25.1164 C   0  0  0  0  0  0  0  0  0  0  0  0
    6.9120   11.0105   25.6845 C   0  0  0  0  0  0  0  0  0  0  0  0
    6.0685   11.9760   26.2238 C   0  0  0  0  0  0  0  0  0  0  0  0
    4.7369   11.7279   26.8458 C   0  0  0  0  0  0  0  0  0  0  0  0
    4.4571   10.7535   27.9478 C   0  0  0  0  0  0  0  0  0  0  0  0
    4.5720   12.2100   28.2762 C   0  0  0  0  0  0  0  0  0  0  0  0
    6.3990   13.2840   26.2167 N   0  0  0  0  0  0  0  0  0  0  0  0
    7.5277   13.6607   25.6136 C   0  0  0  0  0  0  0  0  0  0  0  0
    8.4309   12.7907   25.0281 C   0  0  0  0  0  0  0  0  0  0  0  0
    9.5558   13.2802   24.3463 N   0  0  0  0  0  0  0  0  0  0  0  0
   10.7668   13.2847   25.0822 N   0  0  0  0  0  0  0  0  0  0  0  0
    9.2680   14.4109   23.4493 C   0  0  0  0  0  0  0  0  0  0  0  0
   10.3282   14.4800   22.3672 C   0  0  0  0  0  0  0  0  0  0  0  0
    9.8952   15.3928   21.2345 C   0  0  0  0  0  0  0  0  0  0  0  0
   10.9923   15.4896   20.1897 C   0  0  0  0  0  0  0  0  0  0  0  0
   10.5169   16.2312   19.0794 O   0  0  0  0  0  0  0  0  0  0  0  0
  1  2  1  0
  2  3  1  0
  3  4  2  0
  3  5  1  0
  5  6  2  0
  6  7  1  0
  7  8  1  0
  8  9  1  0
  9 10  1  0
  7 11  2  0
 11 12  1  0
 12 13  2  0
 13 14  1  0
 14 15  1  0
 14 16  1  0
 16 17  1  0
 17 18  1  0
 18 19  1  0
 19 20  1  0
 13  5  1  0
 10  8  1  0
M  END
>  <energy_score>  (3100) 
-40.098688

>  <inchikey>  (3100) 
WPHOIXWCRTWZDS-UHFFFAOYSA-N

>  <smiles>  (3100) 
COC(=O)c1cc(C2CC2)ncc1N(N)CCCCO

>  <ref_pdb>  (3100) 
A0528a

>  <alias>  (3100) 
WPHOIXWCRTWZDS-UHFFFAOYSA-N-P308-P15-P308-601501

>  <HIPPO Pose ID>  (3100) 
501841

>  <name>  (3100) 
WPHOIXWCRTWZDS-UHFFFAOYSA-N-P308-P15-P308-601501

>  <HIPPO Compound ID>  (3100) 
292634

>  <ref_mols>  (3100) 
A4331a,A0514a

>  <distance_score>  (3100) 
1.554651

>  <inspiration_score>  (3100) 
None

$$$$
SOVKJKVVSRIWIJ-UHFFFAOYSA-N-P15-P15-P308-601501
     RDKit          3D

 21 23  0  0  0  0  0  0  0  0999 V2000
    9.4053    8.3965   23.2209 C   0  0  0  0  0  0  0  0  0  0  0  0
    8.6606    9.1956   24.1422 O   0  0  0  0  0  0  0  0  0  0  0  0
    8.7647   10.5172   23.8914 C   0  0  0  0  0  0  0  0  0  0  0  0
    9.3907   11.0110   22.9725 O   0  0  0  0  0  0  0  0  0  0  0  0
    7.9893   11.3157   24.8611 C   0  0  0  0  0  0  0  0  0  0  0  0
    6.9081   10.7487   25.5442 C   0  0  0  0  0  0  0  0  0  0  0  0
    6.1830   11.5428   26.4227 C   0  0  0  0  0  0  0  0  0  0  0  0
    5.1134   10.9944   27.3240 C   0  0  0  0  0  0  0  0  0  0  0  0
    3.9276   11.8608   27.6947 C   0  0  0  0  0  0  0  0  0  0  0  0
    4.9901   11.5923   28.7131 C   0  0  0  0  0  0  0  0  0  0  0  0
    6.4639   12.8586   26.5717 N   0  0  0  0  0  0  0  0  0  0  0  0
    7.4931   13.3829   25.8953 C   0  0  0  0  0  0  0  0  0  0  0  0
    8.3319   12.6592   25.0653 C   0  0  0  0  0  0  0  0  0  0  0  0
    9.5009   13.2381   24.5243 N   0  0  0  0  0  0  0  0  0  0  0  0
   10.4692   13.5936   25.5114 N   0  0  0  0  0  0  0  0  0  0  0  0
    9.2214   14.2872   23.5285 C   0  0  2  0  0  0  0  0  0  0  0  0
    8.1165   14.0560   22.5361 C   0  0  0  0  0  0  0  0  0  0  0  0
    8.4968   15.0079   21.4253 C   0  0  0  0  0  0  0  0  0  0  0  0
    9.9146   15.0865   21.3830 O   0  0  0  0  0  0  0  0  0  0  0  0
   10.4270   14.6027   22.6267 C   0  0  2  0  0  0  0  0  0  0  0  0
   11.3892   13.4847   22.3421 C   0  0  0  0  0  0  0  0  0  0  0  0
  1  2  1  0
  2  3  1  0
  3  4  2  0
  3  5  1  0
  5  6  2  0
  6  7  1  0
  7  8  1  0
  8  9  1  0
  9 10  1  0
  7 11  2  0
 11 12  1  0
 12 13  2  0
 13 14  1  0
 14 15  1  0
 16 14  1  6
 16 17  1  0
 17 18  1  0
 18 19  1  0
 19 20  1  0
 20 21  1  6
 13  5  1  0
 20 16  1  0
 10  8  1  0
M  END
>  <energy_score>  (3101) 
-25.7915

>  <inchikey>  (3101) 
SOVKJKVVSRIWIJ-UHFFFAOYSA-N

>  <smiles>  (3101) 
COC(=O)c1cc(C2CC2)ncc1N(N)C1CCOC1C

>  <ref_pdb>  (3101) 
A0528a

>  <alias>  (3101) 
SOVKJKVVSRIWIJ-UHFFFAOYSA-N-P15-P15-P308-601501

>  <HIPPO Pose ID>  (3101) 
501844

>  <name>  (3101) 
SOVKJKVVSRIWIJ-UHFFFAOYSA-N-P15-P15-P308-601501

>  <HIPPO Compound ID>  (3101) 
292636

>  <ref_mols>  (3101) 
A4331a,A0514a

>  <distance_score>  (3101) 
1.627395

>  <inspiration_score>  (3101) 
None

$$$$
SOVKJKVVSRIWIJ-UHFFFAOYSA-N-P308-P15-P308-601501
     RDKit          3D

 21 23  0  0  0  0  0  0  0  0999 V2000
    9.6201    8.8263   23.2291 C   0  0  0  0  0  0  0  0  0  0  0  0
    8.7232    9.7585   23.8287 O   0  0  0  0  0  0  0  0  0  0  0  0
    9.3075   10.7734   24.5096 C   0  0  0  0  0  0  0  0  0  0  0  0
   10.5020   10.9724   24.6538 O   0  0  0  0  0  0  0  0  0  0  0  0
    8.2148   11.6071   25.0617 C   0  0  0  0  0  0  0  0  0  0  0  0
    7.0831   10.9639   25.5961 C   0  0  0  0  0  0  0  0  0  0  0  0
    6.1010   11.7244   26.2184 C   0  0  0  0  0  0  0  0  0  0  0  0
    5.0120   11.1265   27.0670 C   0  0  0  0  0  0  0  0  0  0  0  0
    3.7953   11.9500   27.4441 C   0  0  0  0  0  0  0  0  0  0  0  0
    4.8523   11.6975   28.4678 C   0  0  0  0  0  0  0  0  0  0  0  0
    6.1712   13.0716   26.2208 N   0  0  0  0  0  0  0  0  0  0  0  0
    7.2505   13.6662   25.6977 C   0  0  0  0  0  0  0  0  0  0  0  0
    8.3307   12.9974   25.1352 C   0  0  0  0  0  0  0  0  0  0  0  0
    9.4980   13.7217   24.7610 N   0  0  0  0  0  0  0  0  0  0  0  0
   10.0616   14.3775   25.9150 N   0  0  0  0  0  0  0  0  0  0  0  0
    9.1943   14.6166   23.6043 C   0  0  2  0  0  0  0  0  0  0  0  0
    8.9046   13.8531   22.3301 C   0  0  0  0  0  0  0  0  0  0  0  0
    9.2598   14.8431   21.2309 C   0  0  0  0  0  0  0  0  0  0  0  0
    9.9975   15.9127   21.8247 O   0  0  0  0  0  0  0  0  0  0  0  0
   10.3535   15.5061   23.1545 C   0  0  2  0  0  0  0  0  0  0  0  0
   11.7218   14.8463   23.0735 C   0  0  0  0  0  0  0  0  0  0  0  0
  1  2  1  0
  2  3  1  0
  3  4  2  0
  3  5  1  0
  5  6  2  0
  6  7  1  0
  7  8  1  0
  8  9  1  0
  9 10  1  0
  7 11  2  0
 11 12  1  0
 12 13  2  0
 13 14  1  0
 14 15  1  0
 16 14  1  1
 16 17  1  0
 17 18  1  0
 18 19  1  0
 19 20  1  0
 20 21  1  6
 13  5  1  0
 20 16  1  0
 10  8  1  0
M  END
>  <energy_score>  (3102) 
-32.09618

>  <inchikey>  (3102) 
SOVKJKVVSRIWIJ-UHFFFAOYSA-N

>  <smiles>  (3102) 
COC(=O)c1cc(C2CC2)ncc1N(N)C1CCOC1C

>  <ref_pdb>  (3102) 
A0528a

>  <alias>  (3102) 
SOVKJKVVSRIWIJ-UHFFFAOYSA-N-P308-P15-P308-601501

>  <HIPPO Pose ID>  (3102) 
501845

>  <name>  (3102) 
SOVKJKVVSRIWIJ-UHFFFAOYSA-N-P308-P15-P308-601501

>  <HIPPO Compound ID>  (3102) 
292636

>  <ref_mols>  (3102) 
A4331a,A0514a

>  <distance_score>  (3102) 
1.493256

>  <inspiration_score>  (3102) 
None

$$$$
OMUFBPMYWYJCPQ-UHFFFAOYSA-N-P308-P15-P308-601501
     RDKit          3D

 21 23  0  0  0  0  0  0  0  0999 V2000
    9.4502    8.5893   23.0613 C   0  0  0  0  0  0  0  0  0  0  0  0
    8.6163    9.5219   23.7375 O   0  0  0  0  0  0  0  0  0  0  0  0
    9.2983   10.4490   24.4466 C   0  0  0  0  0  0  0  0  0  0  0  0
   10.5039   10.5072   24.6250 O   0  0  0  0  0  0  0  0  0  0  0  0
    8.3085   11.4198   24.9501 C   0  0  0  0  0  0  0  0  0  0  0  0
    7.1642   10.9087   25.5847 C   0  0  0  0  0  0  0  0  0  0  0  0
    6.2345   11.7895   26.1163 C   0  0  0  0  0  0  0  0  0  0  0  0
    5.1132   11.3428   27.0156 C   0  0  0  0  0  0  0  0  0  0  0  0
    3.9168   12.2388   27.2550 C   0  0  0  0  0  0  0  0  0  0  0  0
    4.9469   12.0903   28.3283 C   0  0  0  0  0  0  0  0  0  0  0  0
    6.3765   13.1202   25.9422 N   0  0  0  0  0  0  0  0  0  0  0  0
    7.4602   13.5846   25.2978 C   0  0  0  0  0  0  0  0  0  0  0  0
    8.4937   12.7973   24.8130 C   0  0  0  0  0  0  0  0  0  0  0  0
    9.6002   13.4591   24.2657 N   0  0  0  0  0  0  0  0  0  0  0  0
   10.8896   13.1464   24.7557 N   0  0  0  0  0  0  0  0  0  0  0  0
    9.4574   13.8548   22.8450 C   0  0  0  0  0  0  0  0  0  0  0  0
   10.0662   15.2145   22.6574 C   0  0  2  0  0  0  0  0  0  0  0  0
    9.4967   16.2342   21.7116 C   0  0  0  0  0  0  0  0  0  0  0  0
   10.8412   15.6173   21.3982 C   0  0  0  0  0  0  0  0  0  0  0  0
   12.1265   16.3276   21.6891 C   0  0  0  0  0  0  0  0  0  0  0  0
   10.8741   14.8515   20.1161 C   0  0  0  0  0  0  0  0  0  0  0  0
  1  2  1  0
  2  3  1  0
  3  4  2  0
  3  5  1  0
  5  6  2  0
  6  7  1  0
  7  8  1  0
  8  9  1  0
  9 10  1  0
  7 11  2  0
 11 12  1  0
 12 13  2  0
 13 14  1  0
 14 15  1  0
 14 16  1  0
 17 16  1  6
 17 18  1  0
 18 19  1  0
 19 20  1  0
 19 21  1  0
 13  5  1  0
 19 17  1  0
 10  8  1  0
M  END
>  <energy_score>  (3103) 
-25.304451

>  <inchikey>  (3103) 
OMUFBPMYWYJCPQ-UHFFFAOYSA-N

>  <smiles>  (3103) 
COC(=O)c1cc(C2CC2)ncc1N(N)CC1CC1(C)C

>  <ref_pdb>  (3103) 
A0528a

>  <alias>  (3103) 
OMUFBPMYWYJCPQ-UHFFFAOYSA-N-P308-P15-P308-601501

>  <HIPPO Pose ID>  (3103) 
501847

>  <name>  (3103) 
OMUFBPMYWYJCPQ-UHFFFAOYSA-N-P308-P15-P308-601501

>  <HIPPO Compound ID>  (3103) 
292637

>  <ref_mols>  (3103) 
A4331a,A0514a

>  <distance_score>  (3103) 
1.299467

>  <inspiration_score>  (3103) 
None

$$$$
FUSKJAVSOWUFSQ-UHFFFAOYSA-N-P15-P15-P308-601501
     RDKit          3D

 21 23  0  0  0  0  0  0  0  0999 V2000
    9.3767    8.5166   22.9619 C   0  0  0  0  0  0  0  0  0  0  0  0
    8.5069    9.2835   23.7927 O   0  0  0  0  0  0  0  0  0  0  0  0
    8.9308   10.5527   23.9760 C   0  0  0  0  0  0  0  0  0  0  0  0
    9.9599   11.0248   23.5241 O   0  0  0  0  0  0  0  0  0  0  0  0
    7.9679   11.2969   24.8296 C   0  0  0  0  0  0  0  0  0  0  0  0
    6.9420   10.6305   25.5134 C   0  0  0  0  0  0  0  0  0  0  0  0
    6.1251   11.3510   26.3776 C   0  0  0  0  0  0  0  0  0  0  0  0
    5.1115   10.7040   27.2744 C   0  0  0  0  0  0  0  0  0  0  0  0
    5.1380   11.0371   28.7493 C   0  0  0  0  0  0  0  0  0  0  0  0
    4.0279   11.5674   27.8977 C   0  0  0  0  0  0  0  0  0  0  0  0
    6.2643   12.6867   26.5209 N   0  0  0  0  0  0  0  0  0  0  0  0
    7.2273   13.3113   25.8381 C   0  0  0  0  0  0  0  0  0  0  0  0
    8.1402   12.6737   25.0140 C   0  0  0  0  0  0  0  0  0  0  0  0
    9.2130   13.3923   24.4351 N   0  0  0  0  0  0  0  0  0  0  0  0
    9.8773   14.2491   25.3386 N   0  0  0  0  0  0  0  0  0  0  0  0
    9.0201   13.9833   23.2178 C   0  0  0  0  0  0  0  0  0  0  0  0
    7.8899   14.2730   22.4777 C   0  0  0  0  0  0  0  0  0  0  0  0
    8.2473   14.8316   21.2867 N   0  0  0  0  0  0  0  0  0  0  0  0
    9.5639   14.9006   21.2422 N   0  0  0  0  0  0  0  0  0  0  0  0
   10.0370   14.3430   22.3655 N   0  0  0  0  0  0  0  0  0  0  0  0
   11.4549   14.2105   22.5286 C   0  0  0  0  0  0  0  0  0  0  0  0
  1  2  1  0
  2  3  1  0
  3  4  2  0
  3  5  1  0
  5  6  2  0
  6  7  1  0
  7  8  1  0
  8  9  1  0
  9 10  1  0
  7 11  2  0
 11 12  1  0
 12 13  2  0
 13 14  1  0
 14 15  1  0
 14 16  1  0
 16 17  2  0
 17 18  1  0
 18 19  2  0
 19 20  1  0
 20 21  1  0
 13  5  1  0
 20 16  1  0
 10  8  1  0
M  END
>  <energy_score>  (3104) 
-30.801878

>  <inchikey>  (3104) 
FUSKJAVSOWUFSQ-UHFFFAOYSA-N

>  <smiles>  (3104) 
COC(=O)c1cc(C2CC2)ncc1N(N)c1cnnn1C

>  <ref_pdb>  (3104) 
A0528a

>  <alias>  (3104) 
FUSKJAVSOWUFSQ-UHFFFAOYSA-N-P15-P15-P308-601501

>  <HIPPO Pose ID>  (3104) 
501848

>  <name>  (3104) 
FUSKJAVSOWUFSQ-UHFFFAOYSA-N-P15-P15-P308-601501

>  <HIPPO Compound ID>  (3104) 
292638

>  <ref_mols>  (3104) 
A4331a,A0514a

>  <distance_score>  (3104) 
1.65346

>  <inspiration_score>  (3104) 
None

$$$$
FUSKJAVSOWUFSQ-UHFFFAOYSA-N-P308-P15-P308-601501
     RDKit          3D

 21 23  0  0  0  0  0  0  0  0999 V2000
    9.3442    8.5903   23.0707 C   0  0  0  0  0  0  0  0  0  0  0  0
    8.5088    9.4864   23.7984 O   0  0  0  0  0  0  0  0  0  0  0  0
    9.1929   10.4681   24.4263 C   0  0  0  0  0  0  0  0  0  0  0  0
   10.4045   10.5915   24.4785 O   0  0  0  0  0  0  0  0  0  0  0  0
    8.2213   11.4063   25.0267 C   0  0  0  0  0  0  0  0  0  0  0  0
    7.0788   10.8652   25.6404 C   0  0  0  0  0  0  0  0  0  0  0  0
    6.1689   11.7131   26.2576 C   0  0  0  0  0  0  0  0  0  0  0  0
    4.9996   11.2146   27.0586 C   0  0  0  0  0  0  0  0  0  0  0  0
    4.8082   11.7380   28.4669 C   0  0  0  0  0  0  0  0  0  0  0  0
    3.8707   12.1759   27.3882 C   0  0  0  0  0  0  0  0  0  0  0  0
    6.3471   13.0504   26.2309 N   0  0  0  0  0  0  0  0  0  0  0  0
    7.4153   13.5501   25.5959 C   0  0  0  0  0  0  0  0  0  0  0  0
    8.4086   12.7919   24.9916 C   0  0  0  0  0  0  0  0  0  0  0  0
    9.4578   13.5119   24.3799 N   0  0  0  0  0  0  0  0  0  0  0  0
   10.7844   13.1413   24.6196 N   0  0  0  0  0  0  0  0  0  0  0  0
    9.2690   14.1150   23.1687 C   0  0  0  0  0  0  0  0  0  0  0  0
    8.1894   14.1458   22.3049 C   0  0  0  0  0  0  0  0  0  0  0  0
    8.4897   14.8802   21.1956 N   0  0  0  0  0  0  0  0  0  0  0  0
    9.6975   15.3872   21.3587 N   0  0  0  0  0  0  0  0  0  0  0  0
   10.1596   14.9606   22.5486 N   0  0  0  0  0  0  0  0  0  0  0  0
   11.3801   15.5203   23.0570 C   0  0  0  0  0  0  0  0  0  0  0  0
  1  2  1  0
  2  3  1  0
  3  4  2  0
  3  5  1  0
  5  6  2  0
  6  7  1  0
  7  8  1  0
  8  9  1  0
  9 10  1  0
  7 11  2  0
 11 12  1  0
 12 13  2  0
 13 14  1  0
 14 15  1  0
 14 16  1  0
 16 17  2  0
 17 18  1  0
 18 19  2  0
 19 20  1  0
 20 21  1  0
 13  5  1  0
 20 16  1  0
 10  8  1  0
M  END
>  <energy_score>  (3105) 
-38.406126

>  <inchikey>  (3105) 
FUSKJAVSOWUFSQ-UHFFFAOYSA-N

>  <smiles>  (3105) 
COC(=O)c1cc(C2CC2)ncc1N(N)c1cnnn1C

>  <ref_pdb>  (3105) 
A0528a

>  <alias>  (3105) 
FUSKJAVSOWUFSQ-UHFFFAOYSA-N-P308-P15-P308-601501

>  <HIPPO Pose ID>  (3105) 
501849

>  <name>  (3105) 
FUSKJAVSOWUFSQ-UHFFFAOYSA-N-P308-P15-P308-601501

>  <HIPPO Compound ID>  (3105) 
292638

>  <ref_mols>  (3105) 
A4331a,A0514a

>  <distance_score>  (3105) 
1.548877

>  <inspiration_score>  (3105) 
None

$$$$
NQPJKKWAVJLCEM-UHFFFAOYSA-N-P15-P15-P308-601501
     RDKit          3D

 21 23  0  0  0  0  0  0  0  0999 V2000
    9.5537    8.6910   22.9766 C   0  0  0  0  0  0  0  0  0  0  0  0
    8.8141    9.6165   23.7673 O   0  0  0  0  0  0  0  0  0  0  0  0
    9.1937   10.9080   23.6272 C   0  0  0  0  0  0  0  0  0  0  0  0
   10.0893   11.3119   22.9122 O   0  0  0  0  0  0  0  0  0  0  0  0
    8.4096   11.7732   24.5295 C   0  0  0  0  0  0  0  0  0  0  0  0
    7.4458   11.1972   25.3807 C   0  0  0  0  0  0  0  0  0  0  0  0
    6.7432   12.0018   26.2647 C   0  0  0  0  0  0  0  0  0  0  0  0
    5.6735   11.4577   27.1766 C   0  0  0  0  0  0  0  0  0  0  0  0
    4.3925   12.2402   27.3666 C   0  0  0  0  0  0  0  0  0  0  0  0
    5.3940   12.1835   28.4776 C   0  0  0  0  0  0  0  0  0  0  0  0
    7.0277   13.3213   26.3576 N   0  0  0  0  0  0  0  0  0  0  0  0
    7.8919   13.8676   25.4775 C   0  0  0  0  0  0  0  0  0  0  0  0
    8.6227   13.1582   24.5394 C   0  0  0  0  0  0  0  0  0  0  0  0
    9.0570   13.9160   23.4162 N   0  0  0  0  0  0  0  0  0  0  0  0
   10.4059   14.1790   23.2523 N   0  0  0  0  0  0  0  0  0  0  0  0
   10.7778   14.7394   22.1303 C   0  0  0  0  0  0  0  0  0  0  0  0
   12.2298   14.8748   21.7904 C   0  0  0  0  0  0  0  0  0  0  0  0
    9.8618   15.3245   21.1052 C   0  0  0  0  0  0  0  0  0  0  0  0
    8.4226   15.0867   21.3960 C   0  0  0  0  0  0  0  0  0  0  0  0
    8.1587   14.0035   22.3691 C   0  0  0  0  0  0  0  0  0  0  0  0
    7.1495   13.3072   22.2582 O   0  0  0  0  0  0  0  0  0  0  0  0
  1  2  1  0
  2  3  1  0
  3  4  2  0
  3  5  1  0
  5  6  2  0
  6  7  1  0
  7  8  1  0
  8  9  1  0
  9 10  1  0
  7 11  2  0
 11 12  1  0
 12 13  2  0
 13 14  1  0
 14 15  1  0
 15 16  2  0
 16 17  1  0
 16 18  1  0
 18 19  1  0
 19 20  1  0
 20 21  2  0
 13  5  1  0
 20 14  1  0
 10  8  1  0
M  END
>  <energy_score>  (3106) 
-22.126354

>  <inchikey>  (3106) 
NQPJKKWAVJLCEM-UHFFFAOYSA-N

>  <smiles>  (3106) 
COC(=O)c1cc(C2CC2)ncc1N1N=C(C)CCC1=O

>  <ref_pdb>  (3106) 
A0528a

>  <alias>  (3106) 
NQPJKKWAVJLCEM-UHFFFAOYSA-N-P15-P15-P308-601501

>  <HIPPO Pose ID>  (3106) 
501850

>  <name>  (3106) 
NQPJKKWAVJLCEM-UHFFFAOYSA-N-P15-P15-P308-601501

>  <HIPPO Compound ID>  (3106) 
292639

>  <ref_mols>  (3106) 
A4331a,A0514a

>  <distance_score>  (3106) 
1.937078

>  <inspiration_score>  (3106) 
None

$$$$
XOJNCIHWOGBMKH-UHFFFAOYSA-N-P15-P15-P308-601501
     RDKit          3D

 21 23  0  0  0  0  0  0  0  0999 V2000
    9.3111    8.5651   23.0403 C   0  0  0  0  0  0  0  0  0  0  0  0
    8.4080    9.2826   23.8857 O   0  0  0  0  0  0  0  0  0  0  0  0
    8.7870   10.5608   24.1131 C   0  0  0  0  0  0  0  0  0  0  0  0
    9.8117   11.0619   23.6875 O   0  0  0  0  0  0  0  0  0  0  0  0
    7.7696   11.2838   24.9207 C   0  0  0  0  0  0  0  0  0  0  0  0
    6.7830   10.5607   25.6034 C   0  0  0  0  0  0  0  0  0  0  0  0
    5.8930   11.2392   26.4263 C   0  0  0  0  0  0  0  0  0  0  0  0
    5.0269   10.5431   27.4331 C   0  0  0  0  0  0  0  0  0  0  0  0
    3.8590   11.2670   28.0700 C   0  0  0  0  0  0  0  0  0  0  0  0
    5.1111   11.0504   28.8609 C   0  0  0  0  0  0  0  0  0  0  0  0
    5.8651   12.5859   26.4680 N   0  0  0  0  0  0  0  0  0  0  0  0
    6.8137   13.2605   25.8135 C   0  0  0  0  0  0  0  0  0  0  0  0
    7.8420   12.6754   25.0888 C   0  0  0  0  0  0  0  0  0  0  0  0
    8.9349   13.4649   24.6758 N   0  0  0  0  0  0  0  0  0  0  0  0
    9.3284   14.4552   25.6206 N   0  0  0  0  0  0  0  0  0  0  0  0
    8.8532   13.8434   23.2473 C   0  0  0  0  0  0  0  0  0  0  0  0
   10.2030   14.3463   22.7927 C   0  0  2  0  0  0  0  0  0  0  0  0
   10.2950   14.8652   21.3844 C   0  0  0  0  0  0  0  0  0  0  0  0
   11.8009   14.9403   21.1979 C   0  0  0  0  0  0  0  0  0  0  0  0
   12.4002   14.1079   22.2127 O   0  0  0  0  0  0  0  0  0  0  0  0
   11.3427   13.3743   22.8368 C   0  0  0  0  0  0  0  0  0  0  0  0
  1  2  1  0
  2  3  1  0
  3  4  2  0
  3  5  1  0
  5  6  2  0
  6  7  1  0
  7  8  1  0
  8  9  1  0
  9 10  1  0
  7 11  2  0
 11 12  1  0
 12 13  2  0
 13 14  1  0
 14 15  1  0
 14 16  1  0
 17 16  1  6
 17 18  1  0
 18 19  1  0
 19 20  1  0
 20 21  1  0
 13  5  1  0
 21 17  1  0
 10  8  1  0
M  END
>  <energy_score>  (3107) 
-39.916913

>  <inchikey>  (3107) 
XOJNCIHWOGBMKH-UHFFFAOYSA-N

>  <smiles>  (3107) 
COC(=O)c1cc(C2CC2)ncc1N(N)CC1CCOC1

>  <ref_pdb>  (3107) 
A0528a

>  <alias>  (3107) 
XOJNCIHWOGBMKH-UHFFFAOYSA-N-P15-P15-P308-601501

>  <HIPPO Pose ID>  (3107) 
501858

>  <name>  (3107) 
XOJNCIHWOGBMKH-UHFFFAOYSA-N-P15-P15-P308-601501

>  <HIPPO Compound ID>  (3107) 
292643

>  <ref_mols>  (3107) 
A4331a,A0514a

>  <distance_score>  (3107) 
1.510305

>  <inspiration_score>  (3107) 
None

$$$$
XOJNCIHWOGBMKH-UHFFFAOYSA-N-P308-P15-P308-601501
     RDKit          3D

 21 23  0  0  0  0  0  0  0  0999 V2000
    9.5085    8.3685   23.4690 C   0  0  0  0  0  0  0  0  0  0  0  0
    8.7274    9.2017   24.3167 O   0  0  0  0  0  0  0  0  0  0  0  0
    8.7415   10.4796   23.8794 C   0  0  0  0  0  0  0  0  0  0  0  0
    9.2944   10.8679   22.8626 O   0  0  0  0  0  0  0  0  0  0  0  0
    8.0114   11.3683   24.8005 C   0  0  0  0  0  0  0  0  0  0  0  0
    6.9068   10.8666   25.5028 C   0  0  0  0  0  0  0  0  0  0  0  0
    6.1560   11.7347   26.2836 C   0  0  0  0  0  0  0  0  0  0  0  0
    5.0167   11.2750   27.1516 C   0  0  0  0  0  0  0  0  0  0  0  0
    3.8216   12.1798   27.3623 C   0  0  0  0  0  0  0  0  0  0  0  0
    4.8027   11.9886   28.4749 C   0  0  0  0  0  0  0  0  0  0  0  0
    6.4589   13.0520   26.3443 N   0  0  0  0  0  0  0  0  0  0  0  0
    7.5235   13.5067   25.6672 C   0  0  0  0  0  0  0  0  0  0  0  0
    8.3646   12.7199   24.8994 C   0  0  0  0  0  0  0  0  0  0  0  0
    9.4780   13.3579   24.3113 N   0  0  0  0  0  0  0  0  0  0  0  0
   10.7207   12.6421   24.3732 N   0  0  0  0  0  0  0  0  0  0  0  0
    9.1306   13.9284   22.9853 C   0  0  0  0  0  0  0  0  0  0  0  0
    9.5787   15.3917   22.8551 C   0  0  2  0  0  0  0  0  0  0  0  0
    9.9761   15.6839   21.4157 C   0  0  0  0  0  0  0  0  0  0  0  0
   11.4267   15.2123   21.3576 C   0  0  0  0  0  0  0  0  0  0  0  0
   11.9029   15.1340   22.7206 O   0  0  0  0  0  0  0  0  0  0  0  0
   10.8883   15.7190   23.5427 C   0  0  0  0  0  0  0  0  0  0  0  0
  1  2  1  0
  2  3  1  0
  3  4  2  0
  3  5  1  0
  5  6  2  0
  6  7  1  0
  7  8  1  0
  8  9  1  0
  9 10  1  0
  7 11  2  0
 11 12  1  0
 12 13  2  0
 13 14  1  0
 14 15  1  0
 14 16  1  0
 17 16  1  6
 17 18  1  0
 18 19  1  0
 19 20  1  0
 20 21  1  0
 13  5  1  0
 21 17  1  0
 10  8  1  0
M  END
>  <energy_score>  (3108) 
-44.342568

>  <inchikey>  (3108) 
XOJNCIHWOGBMKH-UHFFFAOYSA-N

>  <smiles>  (3108) 
COC(=O)c1cc(C2CC2)ncc1N(N)CC1CCOC1

>  <ref_pdb>  (3108) 
A0528a

>  <alias>  (3108) 
XOJNCIHWOGBMKH-UHFFFAOYSA-N-P308-P15-P308-601501

>  <HIPPO Pose ID>  (3108) 
501859

>  <name>  (3108) 
XOJNCIHWOGBMKH-UHFFFAOYSA-N-P308-P15-P308-601501

>  <HIPPO Compound ID>  (3108) 
292643

>  <ref_mols>  (3108) 
A4331a,A0514a

>  <distance_score>  (3108) 
1.254181

>  <inspiration_score>  (3108) 
None

$$$$
TVWYFCKSLCGQKH-UHFFFAOYSA-N-P15-P15-P308-601501
     RDKit          3D

 21 23  0  0  0  0  0  0  0  0999 V2000
    9.3611    8.5826   23.0114 C   0  0  0  0  0  0  0  0  0  0  0  0
    8.4976    9.3513   23.8514 O   0  0  0  0  0  0  0  0  0  0  0  0
    8.9181   10.6253   24.0302 C   0  0  0  0  0  0  0  0  0  0  0  0
    9.9345   11.0970   23.5533 O   0  0  0  0  0  0  0  0  0  0  0  0
    7.9576   11.3717   24.8887 C   0  0  0  0  0  0  0  0  0  0  0  0
    6.9337   10.6964   25.5662 C   0  0  0  0  0  0  0  0  0  0  0  0
    6.0898   11.4149   26.4052 C   0  0  0  0  0  0  0  0  0  0  0  0
    5.1361   10.7536   27.3575 C   0  0  0  0  0  0  0  0  0  0  0  0
    3.9416   11.5167   27.8914 C   0  0  0  0  0  0  0  0  0  0  0  0
    5.1195   11.2756   28.7822 C   0  0  0  0  0  0  0  0  0  0  0  0
    6.1708   12.7608   26.4944 N   0  0  0  0  0  0  0  0  0  0  0  0
    7.1395   13.3939   25.8272 C   0  0  0  0  0  0  0  0  0  0  0  0
    8.1098   12.7539   25.0735 C   0  0  0  0  0  0  0  0  0  0  0  0
    9.1974   13.4878   24.5472 N   0  0  0  0  0  0  0  0  0  0  0  0
    9.8787   14.3473   25.4589 N   0  0  0  0  0  0  0  0  0  0  0  0
    8.7984   14.0939   23.2643 C   0  0  0  0  0  0  0  0  0  0  0  0
    9.9380   14.1150   22.2576 C   0  0  0  0  0  0  0  0  0  0  0  0
   11.3603   14.4621   22.6935 C   0  0  0  0  0  0  0  0  0  0  0  0
   12.0012   15.1447   21.4885 C   0  0  0  0  0  0  0  0  0  0  0  0
   10.9524   15.1433   20.3846 C   0  0  0  0  0  0  0  0  0  0  0  0
    9.6355   15.0770   21.1202 C   0  0  0  0  0  0  0  0  0  0  0  0
  1  2  1  0
  2  3  1  0
  3  4  2  0
  3  5  1  0
  5  6  2  0
  6  7  1  0
  7  8  1  0
  8  9  1  0
  9 10  1  0
  7 11  2  0
 11 12  1  0
 12 13  2  0
 13 14  1  0
 14 15  1  0
 14 16  1  0
 16 17  1  0
 17 18  1  0
 18 19  1  0
 19 20  1  0
 20 21  1  0
 13  5  1  0
 21 17  1  0
 10  8  1  0
M  END
>  <energy_score>  (3109) 
-22.384969

>  <inchikey>  (3109) 
TVWYFCKSLCGQKH-UHFFFAOYSA-N

>  <smiles>  (3109) 
COC(=O)c1cc(C2CC2)ncc1N(N)CC1CCCC1

>  <ref_pdb>  (3109) 
A0528a

>  <alias>  (3109) 
TVWYFCKSLCGQKH-UHFFFAOYSA-N-P15-P15-P308-601501

>  <HIPPO Pose ID>  (3109) 
501860

>  <name>  (3109) 
TVWYFCKSLCGQKH-UHFFFAOYSA-N-P15-P15-P308-601501

>  <HIPPO Compound ID>  (3109) 
292644

>  <ref_mols>  (3109) 
A4331a,A0514a

>  <distance_score>  (3109) 
1.820069

>  <inspiration_score>  (3109) 
None

$$$$
TVWYFCKSLCGQKH-UHFFFAOYSA-N-P308-P15-P308-601501
     RDKit          3D

 21 23  0  0  0  0  0  0  0  0999 V2000
    9.5971    8.5858   23.5119 C   0  0  0  0  0  0  0  0  0  0  0  0
    8.7929    9.3949   24.3685 O   0  0  0  0  0  0  0  0  0  0  0  0
    8.7749   10.6960   23.9919 C   0  0  0  0  0  0  0  0  0  0  0  0
    9.3551   11.1632   23.0288 O   0  0  0  0  0  0  0  0  0  0  0  0
    7.9316   11.4822   24.9138 C   0  0  0  0  0  0  0  0  0  0  0  0
    6.8333   10.8832   25.5455 C   0  0  0  0  0  0  0  0  0  0  0  0
    6.0269   11.6609   26.3669 C   0  0  0  0  0  0  0  0  0  0  0  0
    4.9212   11.0939   27.2130 C   0  0  0  0  0  0  0  0  0  0  0  0
    3.7074   11.9438   27.5292 C   0  0  0  0  0  0  0  0  0  0  0  0
    4.7235   11.6910   28.5959 C   0  0  0  0  0  0  0  0  0  0  0  0
    6.2554   12.9849   26.5151 N   0  0  0  0  0  0  0  0  0  0  0  0
    7.3146   13.5359   25.9108 C   0  0  0  0  0  0  0  0  0  0  0  0
    8.2203   12.8329   25.1342 C   0  0  0  0  0  0  0  0  0  0  0  0
    9.3898   13.4732   24.6405 N   0  0  0  0  0  0  0  0  0  0  0  0
   10.1147   14.1547   25.6717 N   0  0  0  0  0  0  0  0  0  0  0  0
    8.9872   14.3032   23.4686 C   0  0  0  0  0  0  0  0  0  0  0  0
   10.1445   14.4898   22.4952 C   0  0  0  0  0  0  0  0  0  0  0  0
   11.2827   15.3903   22.9796 C   0  0  0  0  0  0  0  0  0  0  0  0
   11.8560   16.0453   21.7251 C   0  0  0  0  0  0  0  0  0  0  0  0
   10.9959   15.5679   20.5617 C   0  0  0  0  0  0  0  0  0  0  0  0
    9.6842   15.1843   21.2176 C   0  0  0  0  0  0  0  0  0  0  0  0
  1  2  1  0
  2  3  1  0
  3  4  2  0
  3  5  1  0
  5  6  2  0
  6  7  1  0
  7  8  1  0
  8  9  1  0
  9 10  1  0
  7 11  2  0
 11 12  1  0
 12 13  2  0
 13 14  1  0
 14 15  1  0
 14 16  1  0
 16 17  1  0
 17 18  1  0
 18 19  1  0
 19 20  1  0
 20 21  1  0
 13  5  1  0
 21 17  1  0
 10  8  1  0
M  END
>  <energy_score>  (3110) 
-30.709613

>  <inchikey>  (3110) 
TVWYFCKSLCGQKH-UHFFFAOYSA-N

>  <smiles>  (3110) 
COC(=O)c1cc(C2CC2)ncc1N(N)CC1CCCC1

>  <ref_pdb>  (3110) 
A0528a

>  <alias>  (3110) 
TVWYFCKSLCGQKH-UHFFFAOYSA-N-P308-P15-P308-601501

>  <HIPPO Pose ID>  (3110) 
501861

>  <name>  (3110) 
TVWYFCKSLCGQKH-UHFFFAOYSA-N-P308-P15-P308-601501

>  <HIPPO Compound ID>  (3110) 
292644

>  <ref_mols>  (3110) 
A4331a,A0514a

>  <distance_score>  (3110) 
1.761265

>  <inspiration_score>  (3110) 
None

$$$$
MBGHLLKVLHPVKS-UHFFFAOYSA-N-P15-P15-P308-601501
     RDKit          3D

 21 23  0  0  0  0  0  0  0  0999 V2000
    9.2699    8.4830   23.0034 C   0  0  0  0  0  0  0  0  0  0  0  0
    8.3974    9.2064   23.8750 O   0  0  0  0  0  0  0  0  0  0  0  0
    8.8179   10.4736   24.0978 C   0  0  0  0  0  0  0  0  0  0  0  0
    9.8430   10.9430   23.6394 O   0  0  0  0  0  0  0  0  0  0  0  0
    7.8493   11.2131   24.9546 C   0  0  0  0  0  0  0  0  0  0  0  0
    6.8209   10.5340   25.6194 C   0  0  0  0  0  0  0  0  0  0  0  0
    5.9832   11.2422   26.4745 C   0  0  0  0  0  0  0  0  0  0  0  0
    5.0343   10.5780   27.4281 C   0  0  0  0  0  0  0  0  0  0  0  0
    3.8556   11.3483   27.9876 C   0  0  0  0  0  0  0  0  0  0  0  0
    5.0422   11.0820   28.8595 C   0  0  0  0  0  0  0  0  0  0  0  0
    6.0699   12.5827   26.5887 N   0  0  0  0  0  0  0  0  0  0  0  0
    7.0547   13.2169   25.9505 C   0  0  0  0  0  0  0  0  0  0  0  0
    8.0102   12.5901   25.1671 C   0  0  0  0  0  0  0  0  0  0  0  0
    9.0971   13.3325   24.6582 N   0  0  0  0  0  0  0  0  0  0  0  0
    9.6633   14.2676   25.5626 N   0  0  0  0  0  0  0  0  0  0  0  0
    8.7949   13.7512   23.2716 C   0  0  0  0  0  0  0  0  0  0  0  0
    9.9751   14.4414   22.6202 C   0  0  2  0  0  0  0  0  0  0  0  0
    9.6194   15.0190   21.2778 C   0  0  0  0  0  0  0  0  0  0  0  0
   10.9796   15.3255   20.7238 C   0  0  0  0  0  0  0  0  0  0  0  0
   11.9222   14.3836   21.4516 C   0  0  0  0  0  0  0  0  0  0  0  0
   11.1400   13.6539   22.4107 O   0  0  0  0  0  0  0  0  0  0  0  0
  1  2  1  0
  2  3  1  0
  3  4  2  0
  3  5  1  0
  5  6  2  0
  6  7  1  0
  7  8  1  0
  8  9  1  0
  9 10  1  0
  7 11  2  0
 11 12  1  0
 12 13  2  0
 13 14  1  0
 14 15  1  0
 14 16  1  0
 17 16  1  6
 17 18  1  0
 18 19  1  0
 19 20  1  0
 20 21  1  0
 13  5  1  0
 21 17  1  0
 10  8  1  0
M  END
>  <energy_score>  (3111) 
-34.745435

>  <inchikey>  (3111) 
MBGHLLKVLHPVKS-UHFFFAOYSA-N

>  <smiles>  (3111) 
COC(=O)c1cc(C2CC2)ncc1N(N)CC1CCCO1

>  <ref_pdb>  (3111) 
A0528a

>  <alias>  (3111) 
MBGHLLKVLHPVKS-UHFFFAOYSA-N-P15-P15-P308-601501

>  <HIPPO Pose ID>  (3111) 
501862

>  <name>  (3111) 
MBGHLLKVLHPVKS-UHFFFAOYSA-N-P15-P15-P308-601501

>  <HIPPO Compound ID>  (3111) 
292645

>  <ref_mols>  (3111) 
A4331a,A0514a

>  <distance_score>  (3111) 
1.511001

>  <inspiration_score>  (3111) 
None

$$$$
MBGHLLKVLHPVKS-UHFFFAOYSA-N-P308-P15-P308-601501
     RDKit          3D

 21 23  0  0  0  0  0  0  0  0999 V2000
    9.3441    8.5036   23.0224 C   0  0  0  0  0  0  0  0  0  0  0  0
    8.5356    9.4095   23.7603 O   0  0  0  0  0  0  0  0  0  0  0  0
    9.2563   10.2792   24.5074 C   0  0  0  0  0  0  0  0  0  0  0  0
   10.4633   10.2610   24.6817 O   0  0  0  0  0  0  0  0  0  0  0  0
    8.3037   11.2767   25.0382 C   0  0  0  0  0  0  0  0  0  0  0  0
    7.1000   10.8425   25.6067 C   0  0  0  0  0  0  0  0  0  0  0  0
    6.2629   11.7811   26.1934 C   0  0  0  0  0  0  0  0  0  0  0  0
    5.0588   11.3959   27.0100 C   0  0  0  0  0  0  0  0  0  0  0  0
    3.9017   12.3595   27.1601 C   0  0  0  0  0  0  0  0  0  0  0  0
    4.8316   12.1445   28.3119 C   0  0  0  0  0  0  0  0  0  0  0  0
    6.5674   13.0986   26.1551 N   0  0  0  0  0  0  0  0  0  0  0  0
    7.7182   13.4918   25.5838 C   0  0  0  0  0  0  0  0  0  0  0  0
    8.6383   12.6313   25.0172 C   0  0  0  0  0  0  0  0  0  0  0  0
    9.8186   13.1008   24.4377 N   0  0  0  0  0  0  0  0  0  0  0  0
   10.7287   13.7419   25.3115 N   0  0  0  0  0  0  0  0  0  0  0  0
    9.6753   13.5526   23.0320 C   0  0  0  0  0  0  0  0  0  0  0  0
    9.6284   15.0857   22.8752 C   0  0  2  0  0  0  0  0  0  0  0  0
    9.4516   15.5057   21.4253 C   0  0  0  0  0  0  0  0  0  0  0  0
   10.8677   15.4994   20.9074 C   0  0  0  0  0  0  0  0  0  0  0  0
   11.6520   15.9815   22.1090 C   0  0  0  0  0  0  0  0  0  0  0  0
   10.8967   15.6500   23.2877 O   0  0  0  0  0  0  0  0  0  0  0  0
  1  2  1  0
  2  3  1  0
  3  4  2  0
  3  5  1  0
  5  6  2  0
  6  7  1  0
  7  8  1  0
  8  9  1  0
  9 10  1  0
  7 11  2  0
 11 12  1  0
 12 13  2  0
 13 14  1  0
 14 15  1  0
 14 16  1  0
 17 16  1  6
 17 18  1  0
 18 19  1  0
 19 20  1  0
 20 21  1  0
 13  5  1  0
 21 17  1  0
 10  8  1  0
M  END
>  <energy_score>  (3112) 
-44.652784

>  <inchikey>  (3112) 
MBGHLLKVLHPVKS-UHFFFAOYSA-N

>  <smiles>  (3112) 
COC(=O)c1cc(C2CC2)ncc1N(N)CC1CCCO1

>  <ref_pdb>  (3112) 
A0528a

>  <alias>  (3112) 
MBGHLLKVLHPVKS-UHFFFAOYSA-N-P308-P15-P308-601501

>  <HIPPO Pose ID>  (3112) 
501863

>  <name>  (3112) 
MBGHLLKVLHPVKS-UHFFFAOYSA-N-P308-P15-P308-601501

>  <HIPPO Compound ID>  (3112) 
292645

>  <ref_mols>  (3112) 
A4331a,A0514a

>  <distance_score>  (3112) 
1.329849

>  <inspiration_score>  (3112) 
None

$$$$
DYFVMUMPTGMQNZ-UHFFFAOYSA-N-P15-P15-P308-601501
     RDKit          3D

 21 22  0  0  0  0  0  0  0  0999 V2000
    9.1439    8.3532   22.8675 C   0  0  0  0  0  0  0  0  0  0  0  0
    8.3676    9.2092   23.7036 O   0  0  0  0  0  0  0  0  0  0  0  0
    9.0483   10.3354   24.0050 C   0  0  0  0  0  0  0  0  0  0  0  0
   10.1936   10.5530   23.6519 O   0  0  0  0  0  0  0  0  0  0  0  0
    8.2201   11.2838   24.7941 C   0  0  0  0  0  0  0  0  0  0  0  0
    7.0516   10.8324   25.4245 C   0  0  0  0  0  0  0  0  0  0  0  0
    6.3372   11.7113   26.2279 C   0  0  0  0  0  0  0  0  0  0  0  0
    5.2003   11.2691   27.1090 C   0  0  0  0  0  0  0  0  0  0  0  0
    4.0502   12.2138   27.3871 C   0  0  0  0  0  0  0  0  0  0  0  0
    5.0540   11.9416   28.4622 C   0  0  0  0  0  0  0  0  0  0  0  0
    6.7041   13.0084   26.3308 N   0  0  0  0  0  0  0  0  0  0  0  0
    7.8166   13.4290   25.7103 C   0  0  0  0  0  0  0  0  0  0  0  0
    8.6651   12.6070   24.9892 C   0  0  0  0  0  0  0  0  0  0  0  0
    9.9354   13.0659   24.5604 N   0  0  0  0  0  0  0  0  0  0  0  0
   10.6270   14.0235   25.3573 N   0  0  0  0  0  0  0  0  0  0  0  0
    9.9842   13.2562   23.0875 C   0  0  0  0  0  0  0  0  0  0  0  0
    9.9074   14.7154   22.7824 C   0  0  0  0  0  0  0  0  0  0  0  0
    9.6252   15.0944   21.1149 S   0  0  0  0  0  0  0  0  0  0  0  0
   11.0094   14.4812   20.4315 N   0  0  0  0  0  0  0  0  0  0  0  0
    8.4737   14.3054   20.7559 O   0  0  0  0  0  0  0  0  0  0  0  0
    9.6852   16.5119   20.8793 O   0  0  0  0  0  0  0  0  0  0  0  0
  1  2  1  0
  2  3  1  0
  3  4  2  0
  3  5  1  0
  5  6  2  0
  6  7  1  0
  7  8  1  0
  8  9  1  0
  9 10  1  0
  7 11  2  0
 11 12  1  0
 12 13  2  0
 13 14  1  0
 14 15  1  0
 14 16  1  0
 16 17  1  0
 17 18  1  0
 18 19  1  0
 18 20  2  0
 18 21  2  0
 13  5  1  0
 10  8  1  0
M  END
>  <energy_score>  (3113) 
-51.634709

>  <inchikey>  (3113) 
DYFVMUMPTGMQNZ-UHFFFAOYSA-N

>  <smiles>  (3113) 
COC(=O)c1cc(C2CC2)ncc1N(N)CCS(N)(=O)=O

>  <ref_pdb>  (3113) 
A0528a

>  <alias>  (3113) 
DYFVMUMPTGMQNZ-UHFFFAOYSA-N-P15-P15-P308-601501

>  <HIPPO Pose ID>  (3113) 
501868

>  <name>  (3113) 
DYFVMUMPTGMQNZ-UHFFFAOYSA-N-P15-P15-P308-601501

>  <HIPPO Compound ID>  (3113) 
292648

>  <ref_mols>  (3113) 
A4331a,A0514a

>  <distance_score>  (3113) 
1.659665

>  <inspiration_score>  (3113) 
None

$$$$
DYFVMUMPTGMQNZ-UHFFFAOYSA-N-P308-P15-P308-601501
     RDKit          3D

 21 22  0  0  0  0  0  0  0  0999 V2000
    9.2447    8.6311   23.1367 C   0  0  0  0  0  0  0  0  0  0  0  0
    8.4559    9.5729   23.8622 O   0  0  0  0  0  0  0  0  0  0  0  0
    9.1896   10.4521   24.5824 C   0  0  0  0  0  0  0  0  0  0  0  0
   10.4029   10.4265   24.7270 O   0  0  0  0  0  0  0  0  0  0  0  0
    8.2837   11.4822   25.1468 C   0  0  0  0  0  0  0  0  0  0  0  0
    7.0196   11.0958   25.6291 C   0  0  0  0  0  0  0  0  0  0  0  0
    6.1810   12.0668   26.1654 C   0  0  0  0  0  0  0  0  0  0  0  0
    4.8073   11.8291   26.6956 C   0  0  0  0  0  0  0  0  0  0  0  0
    4.4704   10.9064   27.8296 C   0  0  0  0  0  0  0  0  0  0  0  0
    4.5248   12.3801   28.0833 C   0  0  0  0  0  0  0  0  0  0  0  0
    6.5576   13.3593   26.2266 N   0  0  0  0  0  0  0  0  0  0  0  0
    7.7462   13.7124   25.7333 C   0  0  0  0  0  0  0  0  0  0  0  0
    8.6652   12.8302   25.1885 C   0  0  0  0  0  0  0  0  0  0  0  0
    9.8225   13.4141   24.6445 N   0  0  0  0  0  0  0  0  0  0  0  0
   11.0812   12.9981   25.1120 N   0  0  0  0  0  0  0  0  0  0  0  0
    9.6699   13.6849   23.2038 C   0  0  0  0  0  0  0  0  0  0  0  0
    9.9572   15.1478   22.9375 C   0  0  0  0  0  0  0  0  0  0  0  0
    9.8091   15.4516   21.1998 S   0  0  0  0  0  0  0  0  0  0  0  0
   11.1163   14.6091   20.6054 N   0  0  0  0  0  0  0  0  0  0  0  0
    8.6177   14.7829   20.7335 O   0  0  0  0  0  0  0  0  0  0  0  0
   10.0826   16.8383   20.9133 O   0  0  0  0  0  0  0  0  0  0  0  0
  1  2  1  0
  2  3  1  0
  3  4  2  0
  3  5  1  0
  5  6  2  0
  6  7  1  0
  7  8  1  0
  8  9  1  0
  9 10  1  0
  7 11  2  0
 11 12  1  0
 12 13  2  0
 13 14  1  0
 14 15  1  0
 14 16  1  0
 16 17  1  0
 17 18  1  0
 18 19  1  0
 18 20  2  0
 18 21  2  0
 13  5  1  0
 10  8  1  0
M  END
>  <energy_score>  (3114) 
-61.802301

>  <inchikey>  (3114) 
DYFVMUMPTGMQNZ-UHFFFAOYSA-N

>  <smiles>  (3114) 
COC(=O)c1cc(C2CC2)ncc1N(N)CCS(N)(=O)=O

>  <ref_pdb>  (3114) 
A0528a

>  <alias>  (3114) 
DYFVMUMPTGMQNZ-UHFFFAOYSA-N-P308-P15-P308-601501

>  <HIPPO Pose ID>  (3114) 
501869

>  <name>  (3114) 
DYFVMUMPTGMQNZ-UHFFFAOYSA-N-P308-P15-P308-601501

>  <HIPPO Compound ID>  (3114) 
292648

>  <ref_mols>  (3114) 
A4331a,A0514a

>  <distance_score>  (3114) 
1.62877

>  <inspiration_score>  (3114) 
None

$$$$
GNBFRSDSSGPXFU-UHFFFAOYSA-N-P308-P15-P308-601501
     RDKit          3D

 21 23  0  0  0  0  0  0  0  0999 V2000
    9.5912    8.5488   23.1313 C   0  0  0  0  0  0  0  0  0  0  0  0
    8.7073    9.4026   23.8402 O   0  0  0  0  0  0  0  0  0  0  0  0
    9.3250   10.4147   24.4822 C   0  0  0  0  0  0  0  0  0  0  0  0
   10.5188   10.5881   24.6682 O   0  0  0  0  0  0  0  0  0  0  0  0
    8.2692   11.3481   24.9000 C   0  0  0  0  0  0  0  0  0  0  0  0
    7.1457   10.8583   25.5748 C   0  0  0  0  0  0  0  0  0  0  0  0
    6.2188   11.7636   26.0673 C   0  0  0  0  0  0  0  0  0  0  0  0
    5.1199   11.3597   27.0133 C   0  0  0  0  0  0  0  0  0  0  0  0
    3.9315   12.2674   27.2452 C   0  0  0  0  0  0  0  0  0  0  0  0
    4.9869   12.1589   28.2989 C   0  0  0  0  0  0  0  0  0  0  0  0
    6.3501   13.0863   25.8161 N   0  0  0  0  0  0  0  0  0  0  0  0
    7.3929   13.5190   25.0885 C   0  0  0  0  0  0  0  0  0  0  0  0
    8.4104   12.7049   24.6255 C   0  0  0  0  0  0  0  0  0  0  0  0
    9.5942   13.2510   24.0904 N   0  0  0  0  0  0  0  0  0  0  0  0
    9.5155   14.1683   23.0706 C   0  0  0  0  0  0  0  0  0  0  0  0
    9.1569   13.9403   21.8444 N   0  0  0  0  0  0  0  0  0  0  0  0
    9.2445   15.1359   21.1708 N   0  0  0  0  0  0  0  0  0  0  0  0
   10.3616   15.2822   20.2181 C   0  0  0  0  0  0  0  0  0  0  0  0
    9.2426   16.2466   22.1324 C   0  0  1  0  0  0  0  0  0  0  0  0
    7.7919   16.6223   22.4555 C   0  0  0  0  0  0  0  0  0  0  0  0
    9.9235   15.5922   23.3216 C   0  0  0  0  0  0  0  0  0  0  0  0
  1  2  1  0
  2  3  1  0
  3  4  2  0
  3  5  1  0
  5  6  2  0
  6  7  1  0
  7  8  1  0
  8  9  1  0
  9 10  1  0
  7 11  2  0
 11 12  1  0
 12 13  2  0
 13 14  1  0
 14 15  1  0
 15 16  2  0
 16 17  1  0
 17 18  1  0
 17 19  1  0
 19 20  1  1
 19 21  1  0
 13  5  1  0
 21 15  1  0
 10  8  1  0
M  END
>  <energy_score>  (3115) 
-26.028961

>  <inchikey>  (3115) 
GNBFRSDSSGPXFU-UHFFFAOYSA-N

>  <smiles>  (3115) 
COC(=O)c1cc(C2CC2)ncc1NC1=NN(C)C(C)C1

>  <ref_pdb>  (3115) 
A0528a

>  <alias>  (3115) 
GNBFRSDSSGPXFU-UHFFFAOYSA-N-P308-P15-P308-601501

>  <HIPPO Pose ID>  (3115) 
501877

>  <name>  (3115) 
GNBFRSDSSGPXFU-UHFFFAOYSA-N-P308-P15-P308-601501

>  <HIPPO Compound ID>  (3115) 
292652

>  <ref_mols>  (3115) 
A4331a,A0514a

>  <distance_score>  (3115) 
1.652962

>  <inspiration_score>  (3115) 
None

$$$$
DPYYHQKIKOWDIW-UHFFFAOYSA-N-P15-P15-P308-601501
     RDKit          3D

 21 22  0  0  0  0  0  0  0  0999 V2000
    9.3793    8.7235   23.3187 C   0  0  0  0  0  0  0  0  0  0  0  0
    8.5938    9.4302   24.2877 O   0  0  0  0  0  0  0  0  0  0  0  0
    8.4652   10.7541   24.0449 C   0  0  0  0  0  0  0  0  0  0  0  0
    8.9130   11.3466   23.0782 O   0  0  0  0  0  0  0  0  0  0  0  0
    7.6168   11.4157   25.0608 C   0  0  0  0  0  0  0  0  0  0  0  0
    6.7378   10.6635   25.8508 C   0  0  0  0  0  0  0  0  0  0  0  0
    5.9859   11.3219   26.8156 C   0  0  0  0  0  0  0  0  0  0  0  0
    5.3454   10.6548   27.9858 C   0  0  0  0  0  0  0  0  0  0  0  0
    4.2505    9.6477   27.9293 C   0  0  0  0  0  0  0  0  0  0  0  0
    3.9201   11.0700   28.2800 C   0  0  0  0  0  0  0  0  0  0  0  0
    5.9324   12.6655   26.8727 N   0  0  0  0  0  0  0  0  0  0  0  0
    6.7734   13.3643   26.1069 C   0  0  0  0  0  0  0  0  0  0  0  0
    7.7107   12.8016   25.2540 C   0  0  0  0  0  0  0  0  0  0  0  0
    8.7779   13.5930   24.7689 N   0  0  0  0  0  0  0  0  0  0  0  0
    9.2694   14.5072   25.7481 N   0  0  0  0  0  0  0  0  0  0  0  0
    8.5129   14.1237   23.4239 C   0  0  0  0  0  0  0  0  0  0  0  0
    9.7277   14.2456   22.5268 C   0  0  0  0  0  0  0  0  0  0  0  0
   11.3494   14.0385   23.2280 S   0  0  0  0  0  0  0  0  0  0  0  0
   12.3287   14.7894   21.9617 C   0  0  0  0  0  0  0  0  0  0  0  0
   11.5431   14.8490   24.4166 O   0  0  0  0  0  0  0  0  0  0  0  0
   11.6968   12.6390   23.3101 O   0  0  0  0  0  0  0  0  0  0  0  0
  1  2  1  0
  2  3  1  0
  3  4  2  0
  3  5  1  0
  5  6  2  0
  6  7  1  0
  7  8  1  0
  8  9  1  0
  9 10  1  0
  7 11  2  0
 11 12  1  0
 12 13  2  0
 13 14  1  0
 14 15  1  0
 14 16  1  0
 16 17  1  0
 17 18  1  0
 18 19  1  0
 18 20  2  0
 18 21  2  0
 13  5  1  0
 10  8  1  0
M  END
>  <energy_score>  (3116) 
-32.391442

>  <inchikey>  (3116) 
DPYYHQKIKOWDIW-UHFFFAOYSA-N

>  <smiles>  (3116) 
COC(=O)c1cc(C2CC2)ncc1N(N)CCS(C)(=O)=O

>  <ref_pdb>  (3116) 
A0528a

>  <alias>  (3116) 
DPYYHQKIKOWDIW-UHFFFAOYSA-N-P15-P15-P308-601501

>  <HIPPO Pose ID>  (3116) 
501878

>  <name>  (3116) 
DPYYHQKIKOWDIW-UHFFFAOYSA-N-P15-P15-P308-601501

>  <HIPPO Compound ID>  (3116) 
292653

>  <ref_mols>  (3116) 
A4331a,A0514a

>  <distance_score>  (3116) 
1.826404

>  <inspiration_score>  (3116) 
None

$$$$
DPYYHQKIKOWDIW-UHFFFAOYSA-N-P308-P15-P308-601501
     RDKit          3D

 21 22  0  0  0  0  0  0  0  0999 V2000
    9.5804    8.5052   23.5098 C   0  0  0  0  0  0  0  0  0  0  0  0
    8.7287    9.2546   24.3722 O   0  0  0  0  0  0  0  0  0  0  0  0
    8.6204   10.5453   23.9798 C   0  0  0  0  0  0  0  0  0  0  0  0
    9.1174   11.0288   22.9751 O   0  0  0  0  0  0  0  0  0  0  0  0
    7.7931   11.3106   24.9305 C   0  0  0  0  0  0  0  0  0  0  0  0
    6.7117   10.7234   25.5904 C   0  0  0  0  0  0  0  0  0  0  0  0
    5.9292   11.5217   26.4173 C   0  0  0  0  0  0  0  0  0  0  0  0
    4.8407   10.9767   27.2986 C   0  0  0  0  0  0  0  0  0  0  0  0
    3.6389   11.8394   27.6263 C   0  0  0  0  0  0  0  0  0  0  0  0
    4.6770   11.5993   28.6748 C   0  0  0  0  0  0  0  0  0  0  0  0
    6.1654   12.8488   26.5420 N   0  0  0  0  0  0  0  0  0  0  0  0
    7.2174   13.3826   25.9157 C   0  0  0  0  0  0  0  0  0  0  0  0
    8.0900   12.6602   25.1254 C   0  0  0  0  0  0  0  0  0  0  0  0
    9.2495   13.2547   24.5955 N   0  0  0  0  0  0  0  0  0  0  0  0
   10.2005   13.5768   25.6060 N   0  0  0  0  0  0  0  0  0  0  0  0
    8.8946   14.2708   23.5810 C   0  0  0  0  0  0  0  0  0  0  0  0
    9.9727   14.4186   22.5361 C   0  0  0  0  0  0  0  0  0  0  0  0
   11.4335   15.1598   23.2135 S   0  0  0  0  0  0  0  0  0  0  0  0
   12.1946   15.8487   21.7776 C   0  0  0  0  0  0  0  0  0  0  0  0
   11.0334   16.2475   24.0887 O   0  0  0  0  0  0  0  0  0  0  0  0
   12.2991   14.1133   23.7361 O   0  0  0  0  0  0  0  0  0  0  0  0
  1  2  1  0
  2  3  1  0
  3  4  2  0
  3  5  1  0
  5  6  2  0
  6  7  1  0
  7  8  1  0
  8  9  1  0
  9 10  1  0
  7 11  2  0
 11 12  1  0
 12 13  2  0
 13 14  1  0
 14 15  1  0
 14 16  1  0
 16 17  1  0
 17 18  1  0
 18 19  1  0
 18 20  2  0
 18 21  2  0
 13  5  1  0
 10  8  1  0
M  END
>  <energy_score>  (3117) 
-49.802738

>  <inchikey>  (3117) 
DPYYHQKIKOWDIW-UHFFFAOYSA-N

>  <smiles>  (3117) 
COC(=O)c1cc(C2CC2)ncc1N(N)CCS(C)(=O)=O

>  <ref_pdb>  (3117) 
A0528a

>  <alias>  (3117) 
DPYYHQKIKOWDIW-UHFFFAOYSA-N-P308-P15-P308-601501

>  <HIPPO Pose ID>  (3117) 
501879

>  <name>  (3117) 
DPYYHQKIKOWDIW-UHFFFAOYSA-N-P308-P15-P308-601501

>  <HIPPO Compound ID>  (3117) 
292653

>  <ref_mols>  (3117) 
A4331a,A0514a

>  <distance_score>  (3117) 
1.594614

>  <inspiration_score>  (3117) 
None

$$$$
BITIFNIBDBDQTC-UHFFFAOYSA-N-P308-P15-P308-601501
     RDKit          3D

 21 23  0  0  0  0  0  0  0  0999 V2000
    9.1702    8.6235   23.2526 C   0  0  0  0  0  0  0  0  0  0  0  0
    8.3471    9.6229   23.8522 O   0  0  0  0  0  0  0  0  0  0  0  0
    9.0542   10.5740   24.5028 C   0  0  0  0  0  0  0  0  0  0  0  0
   10.2458   10.5368   24.7647 O   0  0  0  0  0  0  0  0  0  0  0  0
    8.1443   11.7015   24.8057 C   0  0  0  0  0  0  0  0  0  0  0  0
    6.9089   11.4488   25.4054 C   0  0  0  0  0  0  0  0  0  0  0  0
    6.0761   12.5198   25.7090 C   0  0  0  0  0  0  0  0  0  0  0  0
    4.7630   12.3806   26.4141 C   0  0  0  0  0  0  0  0  0  0  0  0
    4.5470   11.5819   27.6672 C   0  0  0  0  0  0  0  0  0  0  0  0
    4.6506   13.0725   27.7601 C   0  0  0  0  0  0  0  0  0  0  0  0
    6.4084   13.7817   25.3747 N   0  0  0  0  0  0  0  0  0  0  0  0
    7.5764   13.9894   24.7503 C   0  0  0  0  0  0  0  0  0  0  0  0
    8.5206   13.0115   24.4993 C   0  0  0  0  0  0  0  0  0  0  0  0
    9.8317   13.3815   24.1416 N   0  0  0  0  0  0  0  0  0  0  0  0
   10.7684   13.1719   25.1852 N   0  0  0  0  0  0  0  0  0  0  0  0
   10.1940   14.2948   23.1061 C   0  0  0  0  0  0  0  0  0  0  0  0
   11.4641   14.8921   23.1138 C   0  0  0  0  0  0  0  0  0  0  0  0
   11.9449   15.6893   22.1358 N   0  0  0  0  0  0  0  0  0  0  0  0
   11.1073   15.8621   21.0988 C   0  0  0  0  0  0  0  0  0  0  0  0
    9.8392   15.3084   21.0739 C   0  0  0  0  0  0  0  0  0  0  0  0
    9.3452   14.5373   22.0767 N   0  0  0  0  0  0  0  0  0  0  0  0
  1  2  1  0
  2  3  1  0
  3  4  2  0
  3  5  1  0
  5  6  2  0
  6  7  1  0
  7  8  1  0
  8  9  1  0
  9 10  1  0
  7 11  2  0
 11 12  1  0
 12 13  2  0
 13 14  1  0
 14 15  1  0
 14 16  1  0
 16 17  2  0
 17 18  1  0
 18 19  2  0
 19 20  1  0
 20 21  2  0
 13  5  1  0
 21 16  1  0
 10  8  1  0
M  END
>  <energy_score>  (3118) 
-30.597749

>  <inchikey>  (3118) 
BITIFNIBDBDQTC-UHFFFAOYSA-N

>  <smiles>  (3118) 
COC(=O)c1cc(C2CC2)ncc1N(N)c1cnccn1

>  <ref_pdb>  (3118) 
A0528a

>  <alias>  (3118) 
BITIFNIBDBDQTC-UHFFFAOYSA-N-P308-P15-P308-601501

>  <HIPPO Pose ID>  (3118) 
501881

>  <name>  (3118) 
BITIFNIBDBDQTC-UHFFFAOYSA-N-P308-P15-P308-601501

>  <HIPPO Compound ID>  (3118) 
292654

>  <ref_mols>  (3118) 
A4331a,A0514a

>  <distance_score>  (3118) 
1.939395

>  <inspiration_score>  (3118) 
None

$$$$
QMAPQXROPSIKOO-UHFFFAOYSA-N-P15-P15-P308-601501
     RDKit          3D

 21 23  0  0  0  0  0  0  0  0999 V2000
    9.2295    8.8140   23.1261 C   0  0  0  0  0  0  0  0  0  0  0  0
    8.4427    9.7498   23.8722 O   0  0  0  0  0  0  0  0  0  0  0  0
    8.9751   10.9958   23.8949 C   0  0  0  0  0  0  0  0  0  0  0  0
   10.0500   11.3120   23.4190 O   0  0  0  0  0  0  0  0  0  0  0  0
    8.1210   11.9279   24.6568 C   0  0  0  0  0  0  0  0  0  0  0  0
    7.3978   11.4674   25.7548 C   0  0  0  0  0  0  0  0  0  0  0  0
    6.7073   12.3733   26.5583 C   0  0  0  0  0  0  0  0  0  0  0  0
    5.9122   11.9554   27.7550 C   0  0  0  0  0  0  0  0  0  0  0  0
    4.4134   12.1580   27.7039 C   0  0  0  0  0  0  0  0  0  0  0  0
    4.9899   10.7767   27.7251 C   0  0  0  0  0  0  0  0  0  0  0  0
    6.7424   13.6934   26.3170 N   0  0  0  0  0  0  0  0  0  0  0  0
    7.3568   14.0952   25.1947 C   0  0  0  0  0  0  0  0  0  0  0  0
    8.0535   13.2748   24.3182 C   0  0  0  0  0  0  0  0  0  0  0  0
    8.4153   13.7806   23.0645 N   0  0  0  0  0  0  0  0  0  0  0  0
    7.3275   13.9246   22.1760 N   0  0  0  0  0  0  0  0  0  0  0  0
    9.6879   14.2238   22.6207 C   0  0  0  0  0  0  0  0  0  0  0  0
    9.7286   14.7141   21.3582 N   0  0  0  0  0  0  0  0  0  0  0  0
   10.9275   15.0530   20.8596 C   0  0  0  0  0  0  0  0  0  0  0  0
   12.0875   14.9297   21.5716 C   0  0  0  0  0  0  0  0  0  0  0  0
   11.9402   14.4469   22.8482 C   0  0  0  0  0  0  0  0  0  0  0  0
   10.7617   14.1502   23.4260 N   0  0  0  0  0  0  0  0  0  0  0  0
  1  2  1  0
  2  3  1  0
  3  4  2  0
  3  5  1  0
  5  6  2  0
  6  7  1  0
  7  8  1  0
  8  9  1  0
  9 10  1  0
  7 11  2  0
 11 12  1  0
 12 13  2  0
 13 14  1  0
 14 15  1  0
 14 16  1  0
 16 17  2  0
 17 18  1  0
 18 19  2  0
 19 20  1  0
 20 21  2  0
 13  5  1  0
 21 16  1  0
 10  8  1  0
M  END
>  <energy_score>  (3119) 
-44.194481

>  <inchikey>  (3119) 
QMAPQXROPSIKOO-UHFFFAOYSA-N

>  <smiles>  (3119) 
COC(=O)c1cc(C2CC2)ncc1N(N)c1ncccn1

>  <ref_pdb>  (3119) 
A0528a

>  <alias>  (3119) 
QMAPQXROPSIKOO-UHFFFAOYSA-N-P15-P15-P308-601501

>  <HIPPO Pose ID>  (3119) 
501882

>  <name>  (3119) 
QMAPQXROPSIKOO-UHFFFAOYSA-N-P15-P15-P308-601501

>  <HIPPO Compound ID>  (3119) 
292655

>  <ref_mols>  (3119) 
A4331a,A0514a

>  <distance_score>  (3119) 
1.942323

>  <inspiration_score>  (3119) 
None

$$$$
QMAPQXROPSIKOO-UHFFFAOYSA-N-P308-P15-P308-601501
     RDKit          3D

 21 23  0  0  0  0  0  0  0  0999 V2000
    9.2152    8.6531   23.2663 C   0  0  0  0  0  0  0  0  0  0  0  0
    8.4177    9.6677   23.8719 O   0  0  0  0  0  0  0  0  0  0  0  0
    9.1523   10.6169   24.5062 C   0  0  0  0  0  0  0  0  0  0  0  0
   10.3525   10.5635   24.7132 O   0  0  0  0  0  0  0  0  0  0  0  0
    8.2330   11.7361   24.8283 C   0  0  0  0  0  0  0  0  0  0  0  0
    6.9943   11.4708   25.4211 C   0  0  0  0  0  0  0  0  0  0  0  0
    6.1398   12.5303   25.7083 C   0  0  0  0  0  0  0  0  0  0  0  0
    4.8122   12.3748   26.3835 C   0  0  0  0  0  0  0  0  0  0  0  0
    4.5773   11.5964   27.6455 C   0  0  0  0  0  0  0  0  0  0  0  0
    4.6514   13.0898   27.7127 C   0  0  0  0  0  0  0  0  0  0  0  0
    6.4578   13.7957   25.3737 N   0  0  0  0  0  0  0  0  0  0  0  0
    7.6342   14.0160   24.7709 C   0  0  0  0  0  0  0  0  0  0  0  0
    8.5877   13.0482   24.5152 C   0  0  0  0  0  0  0  0  0  0  0  0
    9.8863   13.4152   24.1320 N   0  0  0  0  0  0  0  0  0  0  0  0
   10.7566   13.4684   25.2735 N   0  0  0  0  0  0  0  0  0  0  0  0
   10.2367   14.2875   23.0561 C   0  0  0  0  0  0  0  0  0  0  0  0
    9.3819   14.4872   22.0382 N   0  0  0  0  0  0  0  0  0  0  0  0
    9.8413   15.2242   21.0065 C   0  0  0  0  0  0  0  0  0  0  0  0
   11.0957   15.7765   20.9550 C   0  0  0  0  0  0  0  0  0  0  0  0
   11.8787   15.5613   22.0547 C   0  0  0  0  0  0  0  0  0  0  0  0
   11.4762   14.8382   23.1132 N   0  0  0  0  0  0  0  0  0  0  0  0
  1  2  1  0
  2  3  1  0
  3  4  2  0
  3  5  1  0
  5  6  2  0
  6  7  1  0
  7  8  1  0
  8  9  1  0
  9 10  1  0
  7 11  2  0
 11 12  1  0
 12 13  2  0
 13 14  1  0
 14 15  1  0
 14 16  1  0
 16 17  2  0
 17 18  1  0
 18 19  2  0
 19 20  1  0
 20 21  2  0
 13  5  1  0
 21 16  1  0
 10  8  1  0
M  END
>  <energy_score>  (3120) 
-48.859254

>  <inchikey>  (3120) 
QMAPQXROPSIKOO-UHFFFAOYSA-N

>  <smiles>  (3120) 
COC(=O)c1cc(C2CC2)ncc1N(N)c1ncccn1

>  <ref_pdb>  (3120) 
A0528a

>  <alias>  (3120) 
QMAPQXROPSIKOO-UHFFFAOYSA-N-P308-P15-P308-601501

>  <HIPPO Pose ID>  (3120) 
501883

>  <name>  (3120) 
QMAPQXROPSIKOO-UHFFFAOYSA-N-P308-P15-P308-601501

>  <HIPPO Compound ID>  (3120) 
292655

>  <ref_mols>  (3120) 
A4331a,A0514a

>  <distance_score>  (3120) 
1.608049

>  <inspiration_score>  (3120) 
None

$$$$
ULYRXWBJWDLZON-UHFFFAOYSA-N-P15-P15-P308-601501
     RDKit          3D

 21 23  0  0  0  0  0  0  0  0999 V2000
    9.6695    8.5857   23.4391 C   0  0  0  0  0  0  0  0  0  0  0  0
    8.7791    9.4501   24.1459 O   0  0  0  0  0  0  0  0  0  0  0  0
    9.0007   10.7440   23.8160 C   0  0  0  0  0  0  0  0  0  0  0  0
    9.8054   11.1137   22.9793 O   0  0  0  0  0  0  0  0  0  0  0  0
    8.1670   11.6689   24.6184 C   0  0  0  0  0  0  0  0  0  0  0  0
    7.1814   11.1866   25.4897 C   0  0  0  0  0  0  0  0  0  0  0  0
    6.5134   12.0973   26.3011 C   0  0  0  0  0  0  0  0  0  0  0  0
    5.7489   11.7221   27.5318 C   0  0  0  0  0  0  0  0  0  0  0  0
    4.7772   10.5942   27.6157 C   0  0  0  0  0  0  0  0  0  0  0  0
    4.2723   12.0115   27.5411 C   0  0  0  0  0  0  0  0  0  0  0  0
    6.6595   13.4300   26.1347 N   0  0  0  0  0  0  0  0  0  0  0  0
    7.5959   13.8722   25.2788 C   0  0  0  0  0  0  0  0  0  0  0  0
    8.4505   13.0438   24.5739 C   0  0  0  0  0  0  0  0  0  0  0  0
    9.7096   13.5683   24.1907 N   0  0  0  0  0  0  0  0  0  0  0  0
   10.7369   13.2295   25.1137 N   0  0  0  0  0  0  0  0  0  0  0  0
   10.1140   14.0968   23.0015 C   0  0  0  0  0  0  0  0  0  0  0  0
   11.4640   14.3313   22.6503 C   0  0  0  0  0  0  0  0  0  0  0  0
   11.6047   14.9734   21.5046 N   0  0  0  0  0  0  0  0  0  0  0  0
   10.3533   15.0811   21.0583 N   0  0  0  0  0  0  0  0  0  0  0  0
   10.1808   15.7665   19.8064 C   0  0  0  0  0  0  0  0  0  0  0  0
    9.4047   14.5599   21.9157 C   0  0  0  0  0  0  0  0  0  0  0  0
  1  2  1  0
  2  3  1  0
  3  4  2  0
  3  5  1  0
  5  6  2  0
  6  7  1  0
  7  8  1  0
  8  9  1  0
  9 10  1  0
  7 11  2  0
 11 12  1  0
 12 13  2  0
 13 14  1  0
 14 15  1  0
 14 16  1  0
 16 17  1  0
 17 18  2  0
 18 19  1  0
 19 20  1  0
 19 21  1  0
 13  5  1  0
 21 16  2  0
 10  8  1  0
M  END
>  <energy_score>  (3121) 
-46.942657

>  <inchikey>  (3121) 
ULYRXWBJWDLZON-UHFFFAOYSA-N

>  <smiles>  (3121) 
COC(=O)c1cc(C2CC2)ncc1N(N)c1cnn(C)c1

>  <ref_pdb>  (3121) 
A0528a

>  <alias>  (3121) 
ULYRXWBJWDLZON-UHFFFAOYSA-N-P15-P15-P308-601501

>  <HIPPO Pose ID>  (3121) 
501886

>  <name>  (3121) 
ULYRXWBJWDLZON-UHFFFAOYSA-N-P15-P15-P308-601501

>  <HIPPO Compound ID>  (3121) 
292657

>  <ref_mols>  (3121) 
A4331a,A0514a

>  <distance_score>  (3121) 
1.861069

>  <inspiration_score>  (3121) 
None

$$$$
ULYRXWBJWDLZON-UHFFFAOYSA-N-P308-P15-P308-601501
     RDKit          3D

 21 23  0  0  0  0  0  0  0  0999 V2000
    9.3836    8.4829   23.0319 C   0  0  0  0  0  0  0  0  0  0  0  0
    8.5626    9.3944   23.7468 O   0  0  0  0  0  0  0  0  0  0  0  0
    9.2632   10.3058   24.4528 C   0  0  0  0  0  0  0  0  0  0  0  0
   10.4684   10.3390   24.6443 O   0  0  0  0  0  0  0  0  0  0  0  0
    8.3009   11.3235   24.9109 C   0  0  0  0  0  0  0  0  0  0  0  0
    7.1294   10.8916   25.5437 C   0  0  0  0  0  0  0  0  0  0  0  0
    6.2416   11.8413   26.0218 C   0  0  0  0  0  0  0  0  0  0  0  0
    5.1043   11.4804   26.9392 C   0  0  0  0  0  0  0  0  0  0  0  0
    3.9401   12.4251   27.1335 C   0  0  0  0  0  0  0  0  0  0  0  0
    4.9631   12.2894   28.2167 C   0  0  0  0  0  0  0  0  0  0  0  0
    6.4435   13.1570   25.7772 N   0  0  0  0  0  0  0  0  0  0  0  0
    7.5570   13.5437   25.1244 C   0  0  0  0  0  0  0  0  0  0  0  0
    8.5596   12.6839   24.7131 C   0  0  0  0  0  0  0  0  0  0  0  0
    9.7806   13.1911   24.2093 N   0  0  0  0  0  0  0  0  0  0  0  0
   10.9035   12.9469   25.0683 N   0  0  0  0  0  0  0  0  0  0  0  0
    9.9212   14.2193   23.3242 C   0  0  0  0  0  0  0  0  0  0  0  0
   10.8062   15.3101   23.4234 C   0  0  0  0  0  0  0  0  0  0  0  0
   10.8786   16.0171   22.2999 N   0  0  0  0  0  0  0  0  0  0  0  0
   10.0710   15.3522   21.4586 N   0  0  0  0  0  0  0  0  0  0  0  0
   10.1170   15.6775   20.0506 C   0  0  0  0  0  0  0  0  0  0  0  0
    9.3453   14.3621   22.0820 C   0  0  0  0  0  0  0  0  0  0  0  0
  1  2  1  0
  2  3  1  0
  3  4  2  0
  3  5  1  0
  5  6  2  0
  6  7  1  0
  7  8  1  0
  8  9  1  0
  9 10  1  0
  7 11  2  0
 11 12  1  0
 12 13  2  0
 13 14  1  0
 14 15  1  0
 14 16  1  0
 16 17  1  0
 17 18  2  0
 18 19  1  0
 19 20  1  0
 19 21  1  0
 13  5  1  0
 21 16  2  0
 10  8  1  0
M  END
>  <energy_score>  (3122) 
-58.074538

>  <inchikey>  (3122) 
ULYRXWBJWDLZON-UHFFFAOYSA-N

>  <smiles>  (3122) 
COC(=O)c1cc(C2CC2)ncc1N(N)c1cnn(C)c1

>  <ref_pdb>  (3122) 
A0528a

>  <alias>  (3122) 
ULYRXWBJWDLZON-UHFFFAOYSA-N-P308-P15-P308-601501

>  <HIPPO Pose ID>  (3122) 
501887

>  <name>  (3122) 
ULYRXWBJWDLZON-UHFFFAOYSA-N-P308-P15-P308-601501

>  <HIPPO Compound ID>  (3122) 
292657

>  <ref_mols>  (3122) 
A4331a,A0514a

>  <distance_score>  (3122) 
1.61909

>  <inspiration_score>  (3122) 
None

$$$$
YERJECICWXAGMM-UHFFFAOYSA-N-P15-P15-P308-601501
     RDKit          3D

 21 23  0  0  0  0  0  0  0  0999 V2000
    9.3599    8.6433   23.0565 C   0  0  0  0  0  0  0  0  0  0  0  0
    8.4569    9.3435   23.9184 O   0  0  0  0  0  0  0  0  0  0  0  0
    8.7914   10.6392   24.1207 C   0  0  0  0  0  0  0  0  0  0  0  0
    9.7686   11.1888   23.6443 O   0  0  0  0  0  0  0  0  0  0  0  0
    7.7876   11.3095   24.9972 C   0  0  0  0  0  0  0  0  0  0  0  0
    6.8013   10.5548   25.6452 C   0  0  0  0  0  0  0  0  0  0  0  0
    5.9248   11.1898   26.5167 C   0  0  0  0  0  0  0  0  0  0  0  0
    4.9752   10.4494   27.4068 C   0  0  0  0  0  0  0  0  0  0  0  0
    5.0517   10.7063   28.8946 C   0  0  0  0  0  0  0  0  0  0  0  0
    3.8810   11.2249   28.1197 C   0  0  0  0  0  0  0  0  0  0  0  0
    5.9474   12.5269   26.6845 N   0  0  0  0  0  0  0  0  0  0  0  0
    6.8882   13.2346   26.0599 C   0  0  0  0  0  0  0  0  0  0  0  0
    7.8645   12.6908   25.2413 C   0  0  0  0  0  0  0  0  0  0  0  0
    8.8846   13.5215   24.7340 N   0  0  0  0  0  0  0  0  0  0  0  0
    9.3478   14.5273   25.6351 N   0  0  0  0  0  0  0  0  0  0  0  0
    8.5696   13.9166   23.3373 C   0  0  0  0  0  0  0  0  0  0  0  0
    9.7260   14.3503   22.5018 C   0  0  0  0  0  0  0  0  0  0  0  0
   11.1128   14.1606   22.8177 C   0  0  0  0  0  0  0  0  0  0  0  0
   11.9407   14.7063   21.8682 C   0  0  0  0  0  0  0  0  0  0  0  0
   11.0630   15.2747   20.5240 S   0  0  0  0  0  0  0  0  0  0  0  0
    9.5777   14.9951   21.2918 C   0  0  0  0  0  0  0  0  0  0  0  0
  1  2  1  0
  2  3  1  0
  3  4  2  0
  3  5  1  0
  5  6  2  0
  6  7  1  0
  7  8  1  0
  8  9  1  0
  9 10  1  0
  7 11  2  0
 11 12  1  0
 12 13  2  0
 13 14  1  0
 14 15  1  0
 14 16  1  0
 16 17  1  0
 17 18  1  0
 18 19  2  0
 19 20  1  0
 20 21  1  0
 13  5  1  0
 21 17  2  0
 10  8  1  0
M  END
>  <energy_score>  (3123) 
-44.655211

>  <inchikey>  (3123) 
YERJECICWXAGMM-UHFFFAOYSA-N

>  <smiles>  (3123) 
COC(=O)c1cc(C2CC2)ncc1N(N)Cc1ccsc1

>  <ref_pdb>  (3123) 
A0528a

>  <alias>  (3123) 
YERJECICWXAGMM-UHFFFAOYSA-N-P15-P15-P308-601501

>  <HIPPO Pose ID>  (3123) 
501888

>  <name>  (3123) 
YERJECICWXAGMM-UHFFFAOYSA-N-P15-P15-P308-601501

>  <HIPPO Compound ID>  (3123) 
292658

>  <ref_mols>  (3123) 
A4331a,A0514a

>  <distance_score>  (3123) 
1.725864

>  <inspiration_score>  (3123) 
None

$$$$
YERJECICWXAGMM-UHFFFAOYSA-N-P308-P15-P308-601501
     RDKit          3D

 21 23  0  0  0  0  0  0  0  0999 V2000
    9.0952    8.7029   23.3561 C   0  0  0  0  0  0  0  0  0  0  0  0
    8.1350    9.5429   24.0017 O   0  0  0  0  0  0  0  0  0  0  0  0
    8.6929   10.6360   24.5636 C   0  0  0  0  0  0  0  0  0  0  0  0
    9.8858   10.8598   24.6861 O   0  0  0  0  0  0  0  0  0  0  0  0
    7.6472   11.5602   25.0327 C   0  0  0  0  0  0  0  0  0  0  0  0
    6.6427   11.0566   25.8741 C   0  0  0  0  0  0  0  0  0  0  0  0
    5.7585   11.9501   26.4672 C   0  0  0  0  0  0  0  0  0  0  0  0
    4.5658   11.6031   27.2915 C   0  0  0  0  0  0  0  0  0  0  0  0
    4.4790   10.5674   28.3620 C   0  0  0  0  0  0  0  0  0  0  0  0
    4.6333   12.0083   28.7494 C   0  0  0  0  0  0  0  0  0  0  0  0
    5.8997   13.2798   26.3105 N   0  0  0  0  0  0  0  0  0  0  0  0
    6.7966   13.7217   25.4262 C   0  0  0  0  0  0  0  0  0  0  0  0
    7.6579   12.9168   24.6964 C   0  0  0  0  0  0  0  0  0  0  0  0
    8.2549   13.5372   23.5922 N   0  0  0  0  0  0  0  0  0  0  0  0
    7.3508   13.6550   22.4682 N   0  0  0  0  0  0  0  0  0  0  0  0
    9.6775   13.2895   23.3187 C   0  0  0  0  0  0  0  0  0  0  0  0
   10.3955   14.3515   22.5341 C   0  0  0  0  0  0  0  0  0  0  0  0
   11.5226   15.0977   23.0046 C   0  0  0  0  0  0  0  0  0  0  0  0
   12.0763   15.8714   22.0107 C   0  0  0  0  0  0  0  0  0  0  0  0
   11.1983   15.7889   20.5512 S   0  0  0  0  0  0  0  0  0  0  0  0
   10.1064   14.6819   21.2251 C   0  0  0  0  0  0  0  0  0  0  0  0
  1  2  1  0
  2  3  1  0
  3  4  2  0
  3  5  1  0
  5  6  2  0
  6  7  1  0
  7  8  1  0
  8  9  1  0
  9 10  1  0
  7 11  2  0
 11 12  1  0
 12 13  2  0
 13 14  1  0
 14 15  1  0
 14 16  1  0
 16 17  1  0
 17 18  1  0
 18 19  2  0
 19 20  1  0
 20 21  1  0
 13  5  1  0
 21 17  2  0
 10  8  1  0
M  END
>  <energy_score>  (3124) 
-40.420492

>  <inchikey>  (3124) 
YERJECICWXAGMM-UHFFFAOYSA-N

>  <smiles>  (3124) 
COC(=O)c1cc(C2CC2)ncc1N(N)Cc1ccsc1

>  <ref_pdb>  (3124) 
A0528a

>  <alias>  (3124) 
YERJECICWXAGMM-UHFFFAOYSA-N-P308-P15-P308-601501

>  <HIPPO Pose ID>  (3124) 
501889

>  <name>  (3124) 
YERJECICWXAGMM-UHFFFAOYSA-N-P308-P15-P308-601501

>  <HIPPO Compound ID>  (3124) 
292658

>  <ref_mols>  (3124) 
A4331a,A0514a

>  <distance_score>  (3124) 
1.668737

>  <inspiration_score>  (3124) 
None

$$$$
QHERRQLKYCHILU-UHFFFAOYSA-N-P15-P15-P308-601501
     RDKit          3D

 21 23  0  0  0  0  0  0  0  0999 V2000
    9.7179    8.5463   23.3943 C   0  0  0  0  0  0  0  0  0  0  0  0
    8.7621    9.2867   24.1520 O   0  0  0  0  0  0  0  0  0  0  0  0
    8.8639   10.6128   23.8940 C   0  0  0  0  0  0  0  0  0  0  0  0
    9.6060   11.0928   23.0559 O   0  0  0  0  0  0  0  0  0  0  0  0
    7.9801   11.4084   24.7769 C   0  0  0  0  0  0  0  0  0  0  0  0
    6.9440   10.7872   25.4850 C   0  0  0  0  0  0  0  0  0  0  0  0
    6.1422   11.5595   26.3157 C   0  0  0  0  0  0  0  0  0  0  0  0
    5.1652   10.9583   27.2861 C   0  0  0  0  0  0  0  0  0  0  0  0
    3.9754   11.7637   27.7633 C   0  0  0  0  0  0  0  0  0  0  0  0
    5.1334   11.5440   28.6855 C   0  0  0  0  0  0  0  0  0  0  0  0
    6.2828   12.9033   26.3684 N   0  0  0  0  0  0  0  0  0  0  0  0
    7.2753   13.4825   25.6800 C   0  0  0  0  0  0  0  0  0  0  0  0
    8.1949   12.7866   24.9195 C   0  0  0  0  0  0  0  0  0  0  0  0
    9.3328   13.4896   24.4787 N   0  0  0  0  0  0  0  0  0  0  0  0
   10.5717   13.0523   25.0593 N   0  0  0  0  0  0  0  0  0  0  0  0
    9.5010   14.0349   23.2388 C   0  0  0  0  0  0  0  0  0  0  0  0
    8.5032   14.4545   22.3399 C   0  0  0  0  0  0  0  0  0  0  0  0
    9.2006   14.9416   21.2585 C   0  0  0  0  0  0  0  0  0  0  0  0
   10.5182   14.7591   21.5369 N   0  0  0  0  0  0  0  0  0  0  0  0
   11.6604   15.0719   20.7238 C   0  0  0  0  0  0  0  0  0  0  0  0
   10.7262   14.2666   22.7564 N   0  0  0  0  0  0  0  0  0  0  0  0
  1  2  1  0
  2  3  1  0
  3  4  2  0
  3  5  1  0
  5  6  2  0
  6  7  1  0
  7  8  1  0
  8  9  1  0
  9 10  1  0
  7 11  2  0
 11 12  1  0
 12 13  2  0
 13 14  1  0
 14 15  1  0
 14 16  1  0
 16 17  1  0
 17 18  2  0
 18 19  1  0
 19 20  1  0
 19 21  1  0
 13  5  1  0
 21 16  2  0
 10  8  1  0
M  END
>  <energy_score>  (3125) 
-21.380749

>  <inchikey>  (3125) 
QHERRQLKYCHILU-UHFFFAOYSA-N

>  <smiles>  (3125) 
COC(=O)c1cc(C2CC2)ncc1N(N)c1ccn(C)n1

>  <ref_pdb>  (3125) 
A0528a

>  <alias>  (3125) 
QHERRQLKYCHILU-UHFFFAOYSA-N-P15-P15-P308-601501

>  <HIPPO Pose ID>  (3125) 
501890

>  <name>  (3125) 
QHERRQLKYCHILU-UHFFFAOYSA-N-P15-P15-P308-601501

>  <HIPPO Compound ID>  (3125) 
292659

>  <ref_mols>  (3125) 
A4331a,A0514a

>  <distance_score>  (3125) 
1.963213

>  <inspiration_score>  (3125) 
None

$$$$
QHERRQLKYCHILU-UHFFFAOYSA-N-P308-P15-P308-601501
     RDKit          3D

 21 23  0  0  0  0  0  0  0  0999 V2000
    9.3850    8.4693   23.0231 C   0  0  0  0  0  0  0  0  0  0  0  0
    8.5558    9.3440   23.7709 O   0  0  0  0  0  0  0  0  0  0  0  0
    9.2482   10.2347   24.5129 C   0  0  0  0  0  0  0  0  0  0  0  0
   10.4463   10.2356   24.7468 O   0  0  0  0  0  0  0  0  0  0  0  0
    8.2793   11.2498   24.9615 C   0  0  0  0  0  0  0  0  0  0  0  0
    7.0920   10.8226   25.5668 C   0  0  0  0  0  0  0  0  0  0  0  0
    6.2014   11.7773   26.0306 C   0  0  0  0  0  0  0  0  0  0  0  0
    5.0677   11.4328   26.9582 C   0  0  0  0  0  0  0  0  0  0  0  0
    3.9114   12.3876   27.1519 C   0  0  0  0  0  0  0  0  0  0  0  0
    4.9426   12.2575   28.2280 C   0  0  0  0  0  0  0  0  0  0  0  0
    6.4032   13.0878   25.7680 N   0  0  0  0  0  0  0  0  0  0  0  0
    7.5230   13.4702   25.1275 C   0  0  0  0  0  0  0  0  0  0  0  0
    8.5459   12.6072   24.7771 C   0  0  0  0  0  0  0  0  0  0  0  0
    9.8001   13.1199   24.3790 N   0  0  0  0  0  0  0  0  0  0  0  0
   10.8659   12.8789   25.3010 N   0  0  0  0  0  0  0  0  0  0  0  0
    9.9829   14.1349   23.4805 C   0  0  0  0  0  0  0  0  0  0  0  0
   10.8144   15.2517   23.7567 C   0  0  0  0  0  0  0  0  0  0  0  0
   10.8885   15.9584   22.5891 C   0  0  0  0  0  0  0  0  0  0  0  0
   10.1869   15.2272   21.6883 N   0  0  0  0  0  0  0  0  0  0  0  0
   10.2388   15.4313   20.2698 C   0  0  0  0  0  0  0  0  0  0  0  0
    9.4809   14.2092   22.2387 N   0  0  0  0  0  0  0  0  0  0  0  0
  1  2  1  0
  2  3  1  0
  3  4  2  0
  3  5  1  0
  5  6  2  0
  6  7  1  0
  7  8  1  0
  8  9  1  0
  9 10  1  0
  7 11  2  0
 11 12  1  0
 12 13  2  0
 13 14  1  0
 14 15  1  0
 14 16  1  0
 16 17  1  0
 17 18  2  0
 18 19  1  0
 19 20  1  0
 19 21  1  0
 13  5  1  0
 21 16  2  0
 10  8  1  0
M  END
>  <energy_score>  (3126) 
-16.929515

>  <inchikey>  (3126) 
QHERRQLKYCHILU-UHFFFAOYSA-N

>  <smiles>  (3126) 
COC(=O)c1cc(C2CC2)ncc1N(N)c1ccn(C)n1

>  <ref_pdb>  (3126) 
A0528a

>  <alias>  (3126) 
QHERRQLKYCHILU-UHFFFAOYSA-N-P308-P15-P308-601501

>  <HIPPO Pose ID>  (3126) 
501891

>  <name>  (3126) 
QHERRQLKYCHILU-UHFFFAOYSA-N-P308-P15-P308-601501

>  <HIPPO Compound ID>  (3126) 
292659

>  <ref_mols>  (3126) 
A4331a,A0514a

>  <distance_score>  (3126) 
1.828545

>  <inspiration_score>  (3126) 
None

$$$$
WPQRLASIRMEZFL-UHFFFAOYSA-N-P15-P15-P308-601501
     RDKit          3D

 21 22  0  0  0  0  0  0  0  0999 V2000
    9.7478    8.5782   23.3560 C   0  0  0  0  0  0  0  0  0  0  0  0
    8.8154    9.3466   24.1129 O   0  0  0  0  0  0  0  0  0  0  0  0
    8.9393   10.6706   23.8451 C   0  0  0  0  0  0  0  0  0  0  0  0
    9.6752   11.1369   22.9952 O   0  0  0  0  0  0  0  0  0  0  0  0
    8.0976   11.4697   24.7664 C   0  0  0  0  0  0  0  0  0  0  0  0
    7.0271   10.8684   25.4420 C   0  0  0  0  0  0  0  0  0  0  0  0
    6.2857   11.6273   26.3378 C   0  0  0  0  0  0  0  0  0  0  0  0
    5.1846   11.0473   27.1783 C   0  0  0  0  0  0  0  0  0  0  0  0
    5.0919   11.4408   28.6354 C   0  0  0  0  0  0  0  0  0  0  0  0
    4.0824   11.9708   27.6654 C   0  0  0  0  0  0  0  0  0  0  0  0
    6.5621   12.9357   26.5375 N   0  0  0  0  0  0  0  0  0  0  0  0
    7.5687   13.5036   25.8582 C   0  0  0  0  0  0  0  0  0  0  0  0
    8.4047   12.8201   24.9924 C   0  0  0  0  0  0  0  0  0  0  0  0
    9.5245   13.4651   24.4095 N   0  0  0  0  0  0  0  0  0  0  0  0
   10.3619   14.1857   25.3098 N   0  0  0  0  0  0  0  0  0  0  0  0
    9.0772   14.1748   23.1777 C   0  0  0  0  0  0  0  0  0  0  0  0
   10.2899   14.5921   22.3361 C   0  0  0  0  0  0  0  0  0  0  0  0
    9.9480   15.2477   20.9948 C   0  0  0  0  0  0  0  0  0  0  0  0
   11.1173   15.0110   20.0372 C   0  0  0  0  0  0  0  0  0  0  0  0
    9.6750   16.7440   20.9041 C   0  0  0  0  0  0  0  0  0  0  0  0
    8.7498   14.6232   20.5685 O   0  0  0  0  0  0  0  0  0  0  0  0
  1  2  1  0
  2  3  1  0
  3  4  2  0
  3  5  1  0
  5  6  2  0
  6  7  1  0
  7  8  1  0
  8  9  1  0
  9 10  1  0
  7 11  2  0
 11 12  1  0
 12 13  2  0
 13 14  1  0
 14 15  1  0
 14 16  1  0
 16 17  1  0
 17 18  1  0
 18 19  1  0
 18 20  1  0
 18 21  1  0
 13  5  1  0
 10  8  1  0
M  END
>  <energy_score>  (3127) 
-36.457652

>  <inchikey>  (3127) 
WPQRLASIRMEZFL-UHFFFAOYSA-N

>  <smiles>  (3127) 
COC(=O)c1cc(C2CC2)ncc1N(N)CCC(C)(C)O

>  <ref_pdb>  (3127) 
A0528a

>  <alias>  (3127) 
WPQRLASIRMEZFL-UHFFFAOYSA-N-P15-P15-P308-601501

>  <HIPPO Pose ID>  (3127) 
501892

>  <name>  (3127) 
WPQRLASIRMEZFL-UHFFFAOYSA-N-P15-P15-P308-601501

>  <HIPPO Compound ID>  (3127) 
292660

>  <ref_mols>  (3127) 
A4331a,A0514a

>  <distance_score>  (3127) 
1.501573

>  <inspiration_score>  (3127) 
None

$$$$
WPQRLASIRMEZFL-UHFFFAOYSA-N-P308-P15-P308-601501
     RDKit          3D

 21 22  0  0  0  0  0  0  0  0999 V2000
    9.3972    8.6048   23.0606 C   0  0  0  0  0  0  0  0  0  0  0  0
    8.5848    9.5182   23.7891 O   0  0  0  0  0  0  0  0  0  0  0  0
    9.2905   10.4321   24.4981 C   0  0  0  0  0  0  0  0  0  0  0  0
   10.5050   10.4686   24.6181 O   0  0  0  0  0  0  0  0  0  0  0  0
    8.3211   11.3882   25.0805 C   0  0  0  0  0  0  0  0  0  0  0  0
    7.1360   10.8757   25.6343 C   0  0  0  0  0  0  0  0  0  0  0  0
    6.2290   11.7461   26.2244 C   0  0  0  0  0  0  0  0  0  0  0  0
    5.0248   11.2748   26.9901 C   0  0  0  0  0  0  0  0  0  0  0  0
    4.8099   11.7990   28.3947 C   0  0  0  0  0  0  0  0  0  0  0  0
    3.9114   12.2620   27.2931 C   0  0  0  0  0  0  0  0  0  0  0  0
    6.4432   13.0776   26.2094 N   0  0  0  0  0  0  0  0  0  0  0  0
    7.5629   13.5503   25.6435 C   0  0  0  0  0  0  0  0  0  0  0  0
    8.5620   12.7645   25.0915 C   0  0  0  0  0  0  0  0  0  0  0  0
    9.6717   13.4395   24.5617 N   0  0  0  0  0  0  0  0  0  0  0  0
   10.9393   13.0954   25.0797 N   0  0  0  0  0  0  0  0  0  0  0  0
    9.5312   13.7077   23.1152 C   0  0  0  0  0  0  0  0  0  0  0  0
    9.7759   15.1978   22.8667 C   0  0  0  0  0  0  0  0  0  0  0  0
    9.8567   15.5465   21.3768 C   0  0  0  0  0  0  0  0  0  0  0  0
   11.1706   15.0710   20.7530 C   0  0  0  0  0  0  0  0  0  0  0  0
    9.7387   17.0537   21.1596 C   0  0  0  0  0  0  0  0  0  0  0  0
    8.7620   14.9164   20.7176 O   0  0  0  0  0  0  0  0  0  0  0  0
  1  2  1  0
  2  3  1  0
  3  4  2  0
  3  5  1  0
  5  6  2  0
  6  7  1  0
  7  8  1  0
  8  9  1  0
  9 10  1  0
  7 11  2  0
 11 12  1  0
 12 13  2  0
 13 14  1  0
 14 15  1  0
 14 16  1  0
 16 17  1  0
 17 18  1  0
 18 19  1  0
 18 20  1  0
 18 21  1  0
 13  5  1  0
 10  8  1  0
M  END
>  <energy_score>  (3128) 
-44.207061

>  <inchikey>  (3128) 
WPQRLASIRMEZFL-UHFFFAOYSA-N

>  <smiles>  (3128) 
COC(=O)c1cc(C2CC2)ncc1N(N)CCC(C)(C)O

>  <ref_pdb>  (3128) 
A0528a

>  <alias>  (3128) 
WPQRLASIRMEZFL-UHFFFAOYSA-N-P308-P15-P308-601501

>  <HIPPO Pose ID>  (3128) 
501893

>  <name>  (3128) 
WPQRLASIRMEZFL-UHFFFAOYSA-N-P308-P15-P308-601501

>  <HIPPO Compound ID>  (3128) 
292660

>  <ref_mols>  (3128) 
A4331a,A0514a

>  <distance_score>  (3128) 
1.447414

>  <inspiration_score>  (3128) 
None

$$$$
HGLSBOSZPNYHKF-UHFFFAOYSA-N-P15-P15-P308-601501
     RDKit          3D

 21 22  0  0  0  0  0  0  0  0999 V2000
    9.1253    8.2872   22.8276 C   0  0  0  0  0  0  0  0  0  0  0  0
    8.3143    9.0894   23.6828 O   0  0  0  0  0  0  0  0  0  0  0  0
    8.9673   10.2109   24.0421 C   0  0  0  0  0  0  0  0  0  0  0  0
   10.1114   10.4736   23.7116 O   0  0  0  0  0  0  0  0  0  0  0  0
    8.1009   11.1008   24.8540 C   0  0  0  0  0  0  0  0  0  0  0  0
    6.9987   10.5790   25.5453 C   0  0  0  0  0  0  0  0  0  0  0  0
    6.2538   11.4180   26.3683 C   0  0  0  0  0  0  0  0  0  0  0  0
    5.1734   10.9176   27.2867 C   0  0  0  0  0  0  0  0  0  0  0  0
    4.0189   11.8266   27.6585 C   0  0  0  0  0  0  0  0  0  0  0  0
    5.0850   11.5417   28.6680 C   0  0  0  0  0  0  0  0  0  0  0  0
    6.5410   12.7347   26.4648 N   0  0  0  0  0  0  0  0  0  0  0  0
    7.5774   13.2209   25.7726 C   0  0  0  0  0  0  0  0  0  0  0  0
    8.4155   12.4612   24.9740 C   0  0  0  0  0  0  0  0  0  0  0  0
    9.4694   13.1450   24.3334 N   0  0  0  0  0  0  0  0  0  0  0  0
   10.7764   12.8349   24.8097 N   0  0  0  0  0  0  0  0  0  0  0  0
    9.3101   13.1071   22.8615 C   0  0  0  0  0  0  0  0  0  0  0  0
    9.4295   14.5222   22.3302 C   0  0  0  0  0  0  0  0  0  0  0  0
    8.1192   15.2195   22.7984 C   0  0  0  0  0  0  0  0  0  0  0  0
    9.3571   14.6645   20.8334 C   0  0  0  0  0  0  0  0  0  0  0  0
   10.8654   15.0119   22.6424 C   0  0  0  0  0  0  0  0  0  0  0  0
   11.9058   14.0556   22.4037 O   0  0  0  0  0  0  0  0  0  0  0  0
  1  2  1  0
  2  3  1  0
  3  4  2  0
  3  5  1  0
  5  6  2  0
  6  7  1  0
  7  8  1  0
  8  9  1  0
  9 10  1  0
  7 11  2  0
 11 12  1  0
 12 13  2  0
 13 14  1  0
 14 15  1  0
 14 16  1  0
 16 17  1  0
 17 18  1  0
 17 19  1  0
 17 20  1  0
 20 21  1  0
 13  5  1  0
 10  8  1  0
M  END
>  <energy_score>  (3129) 
-16.806019

>  <inchikey>  (3129) 
HGLSBOSZPNYHKF-UHFFFAOYSA-N

>  <smiles>  (3129) 
COC(=O)c1cc(C2CC2)ncc1N(N)CC(C)(C)CO

>  <ref_pdb>  (3129) 
A0528a

>  <alias>  (3129) 
HGLSBOSZPNYHKF-UHFFFAOYSA-N-P15-P15-P308-601501

>  <HIPPO Pose ID>  (3129) 
501894

>  <name>  (3129) 
HGLSBOSZPNYHKF-UHFFFAOYSA-N-P15-P15-P308-601501

>  <HIPPO Compound ID>  (3129) 
292661

>  <ref_mols>  (3129) 
A4331a,A0514a

>  <distance_score>  (3129) 
1.709324

>  <inspiration_score>  (3129) 
None

$$$$
HGLSBOSZPNYHKF-UHFFFAOYSA-N-P308-P15-P308-601501
     RDKit          3D

 21 22  0  0  0  0  0  0  0  0999 V2000
    9.3822    8.6038   23.0865 C   0  0  0  0  0  0  0  0  0  0  0  0
    8.5373    9.4975   23.8050 O   0  0  0  0  0  0  0  0  0  0  0  0
    9.2088   10.4615   24.4758 C   0  0  0  0  0  0  0  0  0  0  0  0
   10.4213   10.5809   24.5538 O   0  0  0  0  0  0  0  0  0  0  0  0
    8.2084   11.3823   25.0649 C   0  0  0  0  0  0  0  0  0  0  0  0
    7.0492   10.8342   25.6386 C   0  0  0  0  0  0  0  0  0  0  0  0
    6.1380   11.6761   26.2645 C   0  0  0  0  0  0  0  0  0  0  0  0
    4.9991   11.1709   27.1077 C   0  0  0  0  0  0  0  0  0  0  0  0
    3.8075   12.0626   27.3938 C   0  0  0  0  0  0  0  0  0  0  0  0
    4.8140   11.8179   28.4707 C   0  0  0  0  0  0  0  0  0  0  0  0
    6.3141   13.0142   26.2537 N   0  0  0  0  0  0  0  0  0  0  0  0
    7.4148   13.5179   25.6802 C   0  0  0  0  0  0  0  0  0  0  0  0
    8.4164   12.7650   25.0907 C   0  0  0  0  0  0  0  0  0  0  0  0
    9.5080   13.4739   24.5632 N   0  0  0  0  0  0  0  0  0  0  0  0
   10.7697   13.1801   25.1514 N   0  0  0  0  0  0  0  0  0  0  0  0
    9.4453   13.6078   23.0919 C   0  0  0  0  0  0  0  0  0  0  0  0
    9.5968   15.0844   22.6540 C   0  0  0  0  0  0  0  0  0  0  0  0
    8.3489   15.8986   23.0442 C   0  0  0  0  0  0  0  0  0  0  0  0
    9.7027   15.1137   21.1206 C   0  0  0  0  0  0  0  0  0  0  0  0
   10.8435   15.7546   23.2614 C   0  0  0  0  0  0  0  0  0  0  0  0
   12.0230   14.9680   23.0950 O   0  0  0  0  0  0  0  0  0  0  0  0
  1  2  1  0
  2  3  1  0
  3  4  2  0
  3  5  1  0
  5  6  2  0
  6  7  1  0
  7  8  1  0
  8  9  1  0
  9 10  1  0
  7 11  2  0
 11 12  1  0
 12 13  2  0
 13 14  1  0
 14 15  1  0
 14 16  1  0
 16 17  1  0
 17 18  1  0
 17 19  1  0
 17 20  1  0
 20 21  1  0
 13  5  1  0
 10  8  1  0
M  END
>  <energy_score>  (3130) 
-38.792198

>  <inchikey>  (3130) 
HGLSBOSZPNYHKF-UHFFFAOYSA-N

>  <smiles>  (3130) 
COC(=O)c1cc(C2CC2)ncc1N(N)CC(C)(C)CO

>  <ref_pdb>  (3130) 
A0528a

>  <alias>  (3130) 
HGLSBOSZPNYHKF-UHFFFAOYSA-N-P308-P15-P308-601501

>  <HIPPO Pose ID>  (3130) 
501895

>  <name>  (3130) 
HGLSBOSZPNYHKF-UHFFFAOYSA-N-P308-P15-P308-601501

>  <HIPPO Compound ID>  (3130) 
292661

>  <ref_mols>  (3130) 
A4331a,A0514a

>  <distance_score>  (3130) 
1.603987

>  <inspiration_score>  (3130) 
None

$$$$
VVAWZXJBJGSAKM-UHFFFAOYSA-N-P15-P15-P308-601501
     RDKit          3D

 21 22  0  0  0  0  0  0  0  0999 V2000
    9.3484    8.6817   23.0690 C   0  0  0  0  0  0  0  0  0  0  0  0
    8.4397    9.4057   23.9030 O   0  0  0  0  0  0  0  0  0  0  0  0
    8.8087   10.6930   24.1157 C   0  0  0  0  0  0  0  0  0  0  0  0
    9.8320   11.1954   23.6879 O   0  0  0  0  0  0  0  0  0  0  0  0
    7.7918   11.3974   24.9463 C   0  0  0  0  0  0  0  0  0  0  0  0
    6.8187   10.6646   25.6355 C   0  0  0  0  0  0  0  0  0  0  0  0
    5.9361   11.3368   26.4714 C   0  0  0  0  0  0  0  0  0  0  0  0
    5.0552   10.6270   27.4556 C   0  0  0  0  0  0  0  0  0  0  0  0
    3.8548   11.3317   28.0506 C   0  0  0  0  0  0  0  0  0  0  0  0
    5.0838   11.1384   28.8834 C   0  0  0  0  0  0  0  0  0  0  0  0
    5.9192   12.6853   26.5361 N   0  0  0  0  0  0  0  0  0  0  0  0
    6.8399   13.3745   25.8585 C   0  0  0  0  0  0  0  0  0  0  0  0
    7.8485   12.7903   25.1129 C   0  0  0  0  0  0  0  0  0  0  0  0
    8.8930   13.5851   24.6057 N   0  0  0  0  0  0  0  0  0  0  0  0
    9.4762   14.5234   25.5074 N   0  0  0  0  0  0  0  0  0  0  0  0
    8.5444   14.1080   23.2685 C   0  0  0  0  0  0  0  0  0  0  0  0
    9.8294   14.2523   22.4827 C   0  0  0  0  0  0  0  0  0  0  0  0
    9.6432   15.0762   21.2195 C   0  0  0  0  0  0  0  0  0  0  0  0
   10.7948   14.9292   20.3352 N   0  0  0  0  0  0  0  0  0  0  0  0
   10.6419   15.7699   19.1482 C   0  0  0  0  0  0  0  0  0  0  0  0
   12.0820   15.1224   20.9916 C   0  0  0  0  0  0  0  0  0  0  0  0
  1  2  1  0
  2  3  1  0
  3  4  2  0
  3  5  1  0
  5  6  2  0
  6  7  1  0
  7  8  1  0
  8  9  1  0
  9 10  1  0
  7 11  2  0
 11 12  1  0
 12 13  2  0
 13 14  1  0
 14 15  1  0
 14 16  1  0
 16 17  1  0
 17 18  1  0
 18 19  1  0
 19 20  1  0
 19 21  1  0
 13  5  1  0
 10  8  1  0
M  END
>  <energy_score>  (3131) 
-43.619761

>  <inchikey>  (3131) 
VVAWZXJBJGSAKM-UHFFFAOYSA-N

>  <smiles>  (3131) 
COC(=O)c1cc(C2CC2)ncc1N(N)CCCN(C)C

>  <ref_pdb>  (3131) 
A0528a

>  <alias>  (3131) 
VVAWZXJBJGSAKM-UHFFFAOYSA-N-P15-P15-P308-601501

>  <HIPPO Pose ID>  (3131) 
501898

>  <name>  (3131) 
VVAWZXJBJGSAKM-UHFFFAOYSA-N-P15-P15-P308-601501

>  <HIPPO Compound ID>  (3131) 
292663

>  <ref_mols>  (3131) 
A4331a,A0514a

>  <distance_score>  (3131) 
1.535487

>  <inspiration_score>  (3131) 
None

$$$$
VVAWZXJBJGSAKM-UHFFFAOYSA-N-P308-P15-P308-601501
     RDKit          3D

 21 22  0  0  0  0  0  0  0  0999 V2000
    9.3989    8.5812   23.0538 C   0  0  0  0  0  0  0  0  0  0  0  0
    8.5690    9.4979   23.7549 O   0  0  0  0  0  0  0  0  0  0  0  0
    9.2549   10.3900   24.5056 C   0  0  0  0  0  0  0  0  0  0  0  0
   10.4604   10.4097   24.6978 O   0  0  0  0  0  0  0  0  0  0  0  0
    8.2756   11.3563   25.0421 C   0  0  0  0  0  0  0  0  0  0  0  0
    7.1044   10.8513   25.6288 C   0  0  0  0  0  0  0  0  0  0  0  0
    6.1967   11.7357   26.1942 C   0  0  0  0  0  0  0  0  0  0  0  0
    5.0484   11.2870   27.0565 C   0  0  0  0  0  0  0  0  0  0  0  0
    3.8643   12.2011   27.2909 C   0  0  0  0  0  0  0  0  0  0  0  0
    4.8651   12.0040   28.3838 C   0  0  0  0  0  0  0  0  0  0  0  0
    6.3864   13.0681   26.0953 N   0  0  0  0  0  0  0  0  0  0  0  0
    7.4943   13.5299   25.4973 C   0  0  0  0  0  0  0  0  0  0  0  0
    8.5051   12.7326   24.9865 C   0  0  0  0  0  0  0  0  0  0  0  0
    9.6263   13.3802   24.4557 N   0  0  0  0  0  0  0  0  0  0  0  0
   10.8970   13.0818   24.9822 N   0  0  0  0  0  0  0  0  0  0  0  0
    9.5186   13.7080   23.0221 C   0  0  0  0  0  0  0  0  0  0  0  0
    9.4204   15.2215   22.8671 C   0  0  0  0  0  0  0  0  0  0  0  0
    9.5501   15.6688   21.4099 C   0  0  0  0  0  0  0  0  0  0  0  0
   10.8243   15.2912   20.7790 N   0  0  0  0  0  0  0  0  0  0  0  0
   10.8206   15.6884   19.3674 C   0  0  0  0  0  0  0  0  0  0  0  0
   11.9706   15.9110   21.4508 C   0  0  0  0  0  0  0  0  0  0  0  0
  1  2  1  0
  2  3  1  0
  3  4  2  0
  3  5  1  0
  5  6  2  0
  6  7  1  0
  7  8  1  0
  8  9  1  0
  9 10  1  0
  7 11  2  0
 11 12  1  0
 12 13  2  0
 13 14  1  0
 14 15  1  0
 14 16  1  0
 16 17  1  0
 17 18  1  0
 18 19  1  0
 19 20  1  0
 19 21  1  0
 13  5  1  0
 10  8  1  0
M  END
>  <energy_score>  (3132) 
-50.401874

>  <inchikey>  (3132) 
VVAWZXJBJGSAKM-UHFFFAOYSA-N

>  <smiles>  (3132) 
COC(=O)c1cc(C2CC2)ncc1N(N)CCCN(C)C

>  <ref_pdb>  (3132) 
A0528a

>  <alias>  (3132) 
VVAWZXJBJGSAKM-UHFFFAOYSA-N-P308-P15-P308-601501

>  <HIPPO Pose ID>  (3132) 
501899

>  <name>  (3132) 
VVAWZXJBJGSAKM-UHFFFAOYSA-N-P308-P15-P308-601501

>  <HIPPO Compound ID>  (3132) 
292663

>  <ref_mols>  (3132) 
A4331a,A0514a

>  <distance_score>  (3132) 
1.252116

>  <inspiration_score>  (3132) 
None

$$$$
ZZXTUOWPBSTRMM-UHFFFAOYSA-N-P15-P15-P308-601501
     RDKit          3D

 21 23  0  0  0  0  0  0  0  0999 V2000
    9.3114    8.5515   23.3891 C   0  0  0  0  0  0  0  0  0  0  0  0
    8.5553    9.3623   24.2978 O   0  0  0  0  0  0  0  0  0  0  0  0
    8.6231   10.6748   23.9889 C   0  0  0  0  0  0  0  0  0  0  0  0
    9.1925   11.1385   23.0173 O   0  0  0  0  0  0  0  0  0  0  0  0
    7.9069   11.5145   24.9711 C   0  0  0  0  0  0  0  0  0  0  0  0
    6.7790   11.0330   25.6427 C   0  0  0  0  0  0  0  0  0  0  0  0
    6.0921   11.9044   26.4832 C   0  0  0  0  0  0  0  0  0  0  0  0
    4.8557   11.5586   27.2373 C   0  0  0  0  0  0  0  0  0  0  0  0
    4.8056   10.4712   28.2651 C   0  0  0  0  0  0  0  0  0  0  0  0
    4.8359   11.9011   28.7131 C   0  0  0  0  0  0  0  0  0  0  0  0
    6.4915   13.1801   26.6723 N   0  0  0  0  0  0  0  0  0  0  0  0
    7.5674   13.6199   26.0190 C   0  0  0  0  0  0  0  0  0  0  0  0
    8.3356   12.8359   25.1745 C   0  0  0  0  0  0  0  0  0  0  0  0
    9.4808   13.3888   24.5309 N   0  0  0  0  0  0  0  0  0  0  0  0
   10.3212   14.1776   25.3855 N   0  0  0  0  0  0  0  0  0  0  0  0
    8.9650   14.0694   23.3171 C   0  0  0  0  0  0  0  0  0  0  0  0
    9.9830   14.1386   22.1896 C   0  0  2  0  0  0  0  0  0  0  0  0
   11.4184   14.5319   22.5069 C   0  0  0  0  0  0  0  0  0  0  0  0
   12.1182   14.7442   21.1835 C   0  0  0  0  0  0  0  0  0  0  0  0
   10.8682   15.3999   20.0619 S   0  0  0  0  0  0  0  0  0  0  0  0
    9.4667   15.1000   21.1316 C   0  0  0  0  0  0  0  0  0  0  0  0
  1  2  1  0
  2  3  1  0
  3  4  2  0
  3  5  1  0
  5  6  2  0
  6  7  1  0
  7  8  1  0
  8  9  1  0
  9 10  1  0
  7 11  2  0
 11 12  1  0
 12 13  2  0
 13 14  1  0
 14 15  1  0
 14 16  1  0
 17 16  1  1
 17 18  1  0
 18 19  1  0
 19 20  1  0
 20 21  1  0
 13  5  1  0
 21 17  1  0
 10  8  1  0
M  END
>  <energy_score>  (3133) 
-51.962178

>  <inchikey>  (3133) 
ZZXTUOWPBSTRMM-UHFFFAOYSA-N

>  <smiles>  (3133) 
COC(=O)c1cc(C2CC2)ncc1N(N)CC1CCSC1

>  <ref_pdb>  (3133) 
A0528a

>  <alias>  (3133) 
ZZXTUOWPBSTRMM-UHFFFAOYSA-N-P15-P15-P308-601501

>  <HIPPO Pose ID>  (3133) 
501900

>  <name>  (3133) 
ZZXTUOWPBSTRMM-UHFFFAOYSA-N-P15-P15-P308-601501

>  <HIPPO Compound ID>  (3133) 
292664

>  <ref_mols>  (3133) 
A4331a,A0514a

>  <distance_score>  (3133) 
1.545254

>  <inspiration_score>  (3133) 
None

$$$$
ZZXTUOWPBSTRMM-UHFFFAOYSA-N-P308-P15-P308-601501
     RDKit          3D

 21 23  0  0  0  0  0  0  0  0999 V2000
    9.2147    8.5962   23.1550 C   0  0  0  0  0  0  0  0  0  0  0  0
    8.3615    9.4840   23.8758 O   0  0  0  0  0  0  0  0  0  0  0  0
    9.0386   10.4052   24.5963 C   0  0  0  0  0  0  0  0  0  0  0  0
   10.2466   10.4416   24.7821 O   0  0  0  0  0  0  0  0  0  0  0  0
    8.0719   11.3937   25.1269 C   0  0  0  0  0  0  0  0  0  0  0  0
    6.8727   10.9655   25.7179 C   0  0  0  0  0  0  0  0  0  0  0  0
    6.0343   11.9218   26.2809 C   0  0  0  0  0  0  0  0  0  0  0  0
    4.7115   11.6687   26.9178 C   0  0  0  0  0  0  0  0  0  0  0  0
    4.4428   10.6797   28.0085 C   0  0  0  0  0  0  0  0  0  0  0  0
    4.5668   12.1314   28.3563 C   0  0  0  0  0  0  0  0  0  0  0  0
    6.3630   13.2283   26.2855 N   0  0  0  0  0  0  0  0  0  0  0  0
    7.4761   13.6160   25.6629 C   0  0  0  0  0  0  0  0  0  0  0  0
    8.3644   12.7592   25.0336 C   0  0  0  0  0  0  0  0  0  0  0  0
    9.4553   13.2667   24.3024 N   0  0  0  0  0  0  0  0  0  0  0  0
   10.7002   13.2180   24.9729 N   0  0  0  0  0  0  0  0  0  0  0  0
    9.1222   14.4763   23.5204 C   0  0  0  0  0  0  0  0  0  0  0  0
   10.0409   14.6242   22.3192 C   0  0  2  0  0  0  0  0  0  0  0  0
   11.3289   15.3785   22.6447 C   0  0  0  0  0  0  0  0  0  0  0  0
   12.0188   15.6024   21.3138 C   0  0  0  0  0  0  0  0  0  0  0  0
   10.6894   15.9458   20.1293 S   0  0  0  0  0  0  0  0  0  0  0  0
    9.3555   15.4507   21.2367 C   0  0  0  0  0  0  0  0  0  0  0  0
  1  2  1  0
  2  3  1  0
  3  4  2  0
  3  5  1  0
  5  6  2  0
  6  7  1  0
  7  8  1  0
  8  9  1  0
  9 10  1  0
  7 11  2  0
 11 12  1  0
 12 13  2  0
 13 14  1  0
 14 15  1  0
 14 16  1  0
 17 16  1  1
 17 18  1  0
 18 19  1  0
 19 20  1  0
 20 21  1  0
 13  5  1  0
 21 17  1  0
 10  8  1  0
M  END
>  <energy_score>  (3134) 
-56.181301

>  <inchikey>  (3134) 
ZZXTUOWPBSTRMM-UHFFFAOYSA-N

>  <smiles>  (3134) 
COC(=O)c1cc(C2CC2)ncc1N(N)CC1CCSC1

>  <ref_pdb>  (3134) 
A0528a

>  <alias>  (3134) 
ZZXTUOWPBSTRMM-UHFFFAOYSA-N-P308-P15-P308-601501

>  <HIPPO Pose ID>  (3134) 
501901

>  <name>  (3134) 
ZZXTUOWPBSTRMM-UHFFFAOYSA-N-P308-P15-P308-601501

>  <HIPPO Compound ID>  (3134) 
292664

>  <ref_mols>  (3134) 
A4331a,A0514a

>  <distance_score>  (3134) 
1.473453

>  <inspiration_score>  (3134) 
None

$$$$
QQUGCNHVWRKUFQ-UHFFFAOYSA-N-P308-P15-P308-601501
     RDKit          3D

 21 23  0  0  0  0  0  0  0  0999 V2000
    9.5433    8.6762   23.1859 C   0  0  0  0  0  0  0  0  0  0  0  0
    8.7193    9.6742   23.7751 O   0  0  0  0  0  0  0  0  0  0  0  0
    9.3994   10.6489   24.4282 C   0  0  0  0  0  0  0  0  0  0  0  0
   10.5971   10.6776   24.6566 O   0  0  0  0  0  0  0  0  0  0  0  0
    8.3957   11.6755   24.7788 C   0  0  0  0  0  0  0  0  0  0  0  0
    7.2418   11.2729   25.4484 C   0  0  0  0  0  0  0  0  0  0  0  0
    6.3050   12.2260   25.8205 C   0  0  0  0  0  0  0  0  0  0  0  0
    5.1499   11.8567   26.7093 C   0  0  0  0  0  0  0  0  0  0  0  0
    5.1028   12.4127   28.1142 C   0  0  0  0  0  0  0  0  0  0  0  0
    4.1240   12.9002   27.0921 C   0  0  0  0  0  0  0  0  0  0  0  0
    6.4424   13.5149   25.4467 N   0  0  0  0  0  0  0  0  0  0  0  0
    7.5478   13.8696   24.7654 C   0  0  0  0  0  0  0  0  0  0  0  0
    8.5986   13.0198   24.4706 C   0  0  0  0  0  0  0  0  0  0  0  0
    9.8694   13.5303   24.1456 N   0  0  0  0  0  0  0  0  0  0  0  0
   10.6908   13.5280   25.3009 N   0  0  0  0  0  0  0  0  0  0  0  0
   10.2090   14.3874   23.0466 C   0  0  0  0  0  0  0  0  0  0  0  0
   11.4885   14.9391   22.9864 C   0  0  0  0  0  0  0  0  0  0  0  0
   11.8114   15.6928   21.8861 C   0  0  0  0  0  0  0  0  0  0  0  0
   10.9515   15.9220   20.8939 N   0  0  0  0  0  0  0  0  0  0  0  0
    9.7467   15.3531   21.0254 C   0  0  0  0  0  0  0  0  0  0  0  0
    9.3207   14.6022   22.0586 N   0  0  0  0  0  0  0  0  0  0  0  0
  1  2  1  0
  2  3  1  0
  3  4  2  0
  3  5  1  0
  5  6  2  0
  6  7  1  0
  7  8  1  0
  8  9  1  0
  9 10  1  0
  7 11  2  0
 11 12  1  0
 12 13  2  0
 13 14  1  0
 14 15  1  0
 14 16  1  0
 16 17  2  0
 17 18  1  0
 18 19  2  0
 19 20  1  0
 20 21  2  0
 13  5  1  0
 21 16  1  0
 10  8  1  0
M  END
>  <energy_score>  (3135) 
-37.45713

>  <inchikey>  (3135) 
QQUGCNHVWRKUFQ-UHFFFAOYSA-N

>  <smiles>  (3135) 
COC(=O)c1cc(C2CC2)ncc1N(N)c1ccncn1

>  <ref_pdb>  (3135) 
A0528a

>  <alias>  (3135) 
QQUGCNHVWRKUFQ-UHFFFAOYSA-N-P308-P15-P308-601501

>  <HIPPO Pose ID>  (3135) 
501903

>  <name>  (3135) 
QQUGCNHVWRKUFQ-UHFFFAOYSA-N-P308-P15-P308-601501

>  <HIPPO Compound ID>  (3135) 
292665

>  <ref_mols>  (3135) 
A4331a,A0514a

>  <distance_score>  (3135) 
1.992987

>  <inspiration_score>  (3135) 
None

$$$$
GUWJEUWNTPLYKC-UHFFFAOYSA-N-P15-P15-P308-601501
     RDKit          3D

 21 22  0  0  0  0  0  0  0  0999 V2000
   10.3890   15.4700   20.1187 C   0  0  0  0  0  0  0  0  0  0  0  0
    9.3171   15.1111   21.1283 C   0  0  0  0  0  0  0  0  0  0  0  0
    9.8273   14.1910   22.2485 C   0  0  0  0  0  0  0  0  0  0  0  0
   11.1561   14.6685   22.8550 C   0  0  0  0  0  0  0  0  0  0  0  0
   12.1583   13.5512   22.9494 C   0  0  0  0  0  0  0  0  0  0  0  0
    8.6752   13.9809   23.2487 C   0  0  0  0  0  0  0  0  0  0  0  0
    9.0347   13.0566   24.3543 N   0  0  0  0  0  0  0  0  0  0  0  0
    9.9729   13.5955   25.2774 N   0  0  0  0  0  0  0  0  0  0  0  0
    7.8650   12.5736   24.9928 C   0  0  0  0  0  0  0  0  0  0  0  0
    7.0436   13.4661   25.6789 C   0  0  0  0  0  0  0  0  0  0  0  0
    6.0337   13.1201   26.4867 N   0  0  0  0  0  0  0  0  0  0  0  0
    5.7308   11.8151   26.6168 C   0  0  0  0  0  0  0  0  0  0  0  0
    4.6518   11.4538   27.5900 C   0  0  0  0  0  0  0  0  0  0  0  0
    4.6277   12.1336   28.9374 C   0  0  0  0  0  0  0  0  0  0  0  0
    3.5886   12.4804   27.9145 C   0  0  0  0  0  0  0  0  0  0  0  0
    6.4273   10.8561   25.9090 C   0  0  0  0  0  0  0  0  0  0  0  0
    7.5077   11.2273   25.0917 C   0  0  0  0  0  0  0  0  0  0  0  0
    8.1738   10.0785   24.4503 C   0  0  0  0  0  0  0  0  0  0  0  0
    7.8508    8.9428   24.7706 O   0  0  0  0  0  0  0  0  0  0  0  0
    9.0915   10.3901   23.5182 O   0  0  0  0  0  0  0  0  0  0  0  0
    9.6836    9.2248   22.9382 C   0  0  0  0  0  0  0  0  0  0  0  0
  1  2  1  0
  2  3  1  0
  3  4  1  0
  4  5  1  0
  3  6  1  0
  6  7  1  0
  7  8  1  0
  7  9  1  0
  9 10  2  0
 10 11  1  0
 11 12  2  0
 12 13  1  0
 13 14  1  0
 14 15  1  0
 12 16  1  0
 16 17  2  0
 17 18  1  0
 18 19  2  0
 18 20  1  0
 20 21  1  0
 17  9  1  0
 15 13  1  0
M  END
>  <energy_score>  (3136) 
-28.931685

>  <inchikey>  (3136) 
GUWJEUWNTPLYKC-UHFFFAOYSA-N

>  <smiles>  (3136) 
CCC(CC)CN(N)c1cnc(C2CC2)cc1C(=O)OC

>  <ref_pdb>  (3136) 
A0528a

>  <alias>  (3136) 
GUWJEUWNTPLYKC-UHFFFAOYSA-N-P15-P15-P308-601501

>  <HIPPO Pose ID>  (3136) 
501904

>  <name>  (3136) 
GUWJEUWNTPLYKC-UHFFFAOYSA-N-P15-P15-P308-601501

>  <HIPPO Compound ID>  (3136) 
292666

>  <ref_mols>  (3136) 
A4331a,A0514a

>  <distance_score>  (3136) 
1.723114

>  <inspiration_score>  (3136) 
None

$$$$
GUWJEUWNTPLYKC-UHFFFAOYSA-N-P308-P15-P308-601501
     RDKit          3D

 21 22  0  0  0  0  0  0  0  0999 V2000
   10.7418   15.9142   20.1460 C   0  0  0  0  0  0  0  0  0  0  0  0
    9.5847   15.7266   21.1166 C   0  0  0  0  0  0  0  0  0  0  0  0
   10.0155   14.8622   22.3074 C   0  0  0  0  0  0  0  0  0  0  0  0
   10.7246   15.7046   23.3815 C   0  0  0  0  0  0  0  0  0  0  0  0
   11.7026   14.8921   24.2080 C   0  0  0  0  0  0  0  0  0  0  0  0
    8.7870   14.1356   22.8806 C   0  0  0  0  0  0  0  0  0  0  0  0
    9.2088   12.9557   23.6831 N   0  0  0  0  0  0  0  0  0  0  0  0
    9.7956   11.9260   22.9063 N   0  0  0  0  0  0  0  0  0  0  0  0
    8.2609   12.5405   24.6577 C   0  0  0  0  0  0  0  0  0  0  0  0
    7.5329   13.4773   25.3753 C   0  0  0  0  0  0  0  0  0  0  0  0
    6.4713   13.2083   26.1494 N   0  0  0  0  0  0  0  0  0  0  0  0
    6.0472   11.9348   26.2498 C   0  0  0  0  0  0  0  0  0  0  0  0
    4.7349   11.7971   26.9454 C   0  0  0  0  0  0  0  0  0  0  0  0
    4.4493   10.8744   28.0889 C   0  0  0  0  0  0  0  0  0  0  0  0
    4.6630   12.3333   28.3612 C   0  0  0  0  0  0  0  0  0  0  0  0
    6.7965   10.8947   25.7256 C   0  0  0  0  0  0  0  0  0  0  0  0
    7.9491   11.2110   24.9931 C   0  0  0  0  0  0  0  0  0  0  0  0
    8.8672   10.1184   24.6280 C   0  0  0  0  0  0  0  0  0  0  0  0
   10.0692   10.1383   24.8585 O   0  0  0  0  0  0  0  0  0  0  0  0
    8.1927    9.1756   23.9373 O   0  0  0  0  0  0  0  0  0  0  0  0
    9.0679    8.3667   23.1570 C   0  0  0  0  0  0  0  0  0  0  0  0
  1  2  1  0
  2  3  1  0
  3  4  1  0
  4  5  1  0
  3  6  1  0
  6  7  1  0
  7  8  1  0
  7  9  1  0
  9 10  2  0
 10 11  1  0
 11 12  2  0
 12 13  1  0
 13 14  1  0
 14 15  1  0
 12 16  1  0
 16 17  2  0
 17 18  1  0
 18 19  2  0
 18 20  1  0
 20 21  1  0
 17  9  1  0
 15 13  1  0
M  END
>  <energy_score>  (3137) 
-34.610281

>  <inchikey>  (3137) 
GUWJEUWNTPLYKC-UHFFFAOYSA-N

>  <smiles>  (3137) 
CCC(CC)CN(N)c1cnc(C2CC2)cc1C(=O)OC

>  <ref_pdb>  (3137) 
A0528a

>  <alias>  (3137) 
GUWJEUWNTPLYKC-UHFFFAOYSA-N-P308-P15-P308-601501

>  <HIPPO Pose ID>  (3137) 
501905

>  <name>  (3137) 
GUWJEUWNTPLYKC-UHFFFAOYSA-N-P308-P15-P308-601501

>  <HIPPO Compound ID>  (3137) 
292666

>  <ref_mols>  (3137) 
A4331a,A0514a

>  <distance_score>  (3137) 
1.573119

>  <inspiration_score>  (3137) 
None

$$$$
MJUXATAEFLRMTG-UHFFFAOYSA-N-P15-P15-P308-601501
     RDKit          3D

 21 22  0  0  0  0  0  0  0  0999 V2000
    9.4145    8.5855   23.0935 C   0  0  0  0  0  0  0  0  0  0  0  0
    8.6991    9.4181   24.0102 O   0  0  0  0  0  0  0  0  0  0  0  0
    8.9310   10.7444   23.8652 C   0  0  0  0  0  0  0  0  0  0  0  0
    9.6827   11.2395   23.0466 O   0  0  0  0  0  0  0  0  0  0  0  0
    8.1290   11.5236   24.8419 C   0  0  0  0  0  0  0  0  0  0  0  0
    7.0345   10.9263   25.4858 C   0  0  0  0  0  0  0  0  0  0  0  0
    6.2958   11.6731   26.3941 C   0  0  0  0  0  0  0  0  0  0  0  0
    5.2006   11.0840   27.2384 C   0  0  0  0  0  0  0  0  0  0  0  0
    4.0055   11.9356   27.6146 C   0  0  0  0  0  0  0  0  0  0  0  0
    5.0379   11.6172   28.6492 C   0  0  0  0  0  0  0  0  0  0  0  0
    6.5853   12.9739   26.6213 N   0  0  0  0  0  0  0  0  0  0  0  0
    7.6223   13.5367   25.9859 C   0  0  0  0  0  0  0  0  0  0  0  0
    8.4693   12.8575   25.1257 C   0  0  0  0  0  0  0  0  0  0  0  0
    9.6106   13.5072   24.5734 N   0  0  0  0  0  0  0  0  0  0  0  0
   10.4213   14.2424   25.4854 N   0  0  0  0  0  0  0  0  0  0  0  0
    9.1483   14.2464   23.3739 C   0  0  0  0  0  0  0  0  0  0  0  0
   10.3377   14.6704   22.4836 C   0  0  0  0  0  0  0  0  0  0  0  0
    9.9877   15.3330   21.1219 C   0  0  0  0  0  0  0  0  0  0  0  0
   11.1291   14.9724   20.1616 C   0  0  0  0  0  0  0  0  0  0  0  0
    8.6389   14.8104   20.7222 C   0  0  0  0  0  0  0  0  0  0  0  0
    9.8459   16.8485   20.9190 C   0  0  0  0  0  0  0  0  0  0  0  0
  1  2  1  0
  2  3  1  0
  3  4  2  0
  3  5  1  0
  5  6  2  0
  6  7  1  0
  7  8  1  0
  8  9  1  0
  9 10  1  0
  7 11  2  0
 11 12  1  0
 12 13  2  0
 13 14  1  0
 14 15  1  0
 14 16  1  0
 16 17  1  0
 17 18  1  0
 18 19  1  0
 18 20  1  0
 18 21  1  0
 13  5  1  0
 10  8  1  0
M  END
>  <energy_score>  (3138) 
-34.145659

>  <inchikey>  (3138) 
MJUXATAEFLRMTG-UHFFFAOYSA-N

>  <smiles>  (3138) 
COC(=O)c1cc(C2CC2)ncc1N(N)CCC(C)(C)C

>  <ref_pdb>  (3138) 
A0528a

>  <alias>  (3138) 
MJUXATAEFLRMTG-UHFFFAOYSA-N-P15-P15-P308-601501

>  <HIPPO Pose ID>  (3138) 
501910

>  <name>  (3138) 
MJUXATAEFLRMTG-UHFFFAOYSA-N-P15-P15-P308-601501

>  <HIPPO Compound ID>  (3138) 
292669

>  <ref_mols>  (3138) 
A4331a,A0514a

>  <distance_score>  (3138) 
1.408255

>  <inspiration_score>  (3138) 
None

$$$$
MJUXATAEFLRMTG-UHFFFAOYSA-N-P308-P15-P308-601501
     RDKit          3D

 21 22  0  0  0  0  0  0  0  0999 V2000
    9.4493    8.6269   23.0655 C   0  0  0  0  0  0  0  0  0  0  0  0
    8.6442    9.5617   23.7741 O   0  0  0  0  0  0  0  0  0  0  0  0
    9.3521   10.4471   24.5179 C   0  0  0  0  0  0  0  0  0  0  0  0
   10.5608   10.4525   24.6788 O   0  0  0  0  0  0  0  0  0  0  0  0
    8.3816   11.4206   25.0711 C   0  0  0  0  0  0  0  0  0  0  0  0
    7.1537   10.9441   25.5590 C   0  0  0  0  0  0  0  0  0  0  0  0
    6.2784   11.8357   26.1620 C   0  0  0  0  0  0  0  0  0  0  0  0
    5.0665   11.3916   26.9354 C   0  0  0  0  0  0  0  0  0  0  0  0
    3.9043   12.3400   27.1409 C   0  0  0  0  0  0  0  0  0  0  0  0
    4.8258   12.0519   28.2825 C   0  0  0  0  0  0  0  0  0  0  0  0
    6.5553   13.1574   26.1916 N   0  0  0  0  0  0  0  0  0  0  0  0
    7.7336   13.5910   25.7156 C   0  0  0  0  0  0  0  0  0  0  0  0
    8.7149   12.7749   25.1814 C   0  0  0  0  0  0  0  0  0  0  0  0
    9.9624   13.2944   24.8070 N   0  0  0  0  0  0  0  0  0  0  0  0
   10.6501   14.0656   25.7738 N   0  0  0  0  0  0  0  0  0  0  0  0
   10.0697   13.6366   23.3757 C   0  0  0  0  0  0  0  0  0  0  0  0
    9.8562   15.1359   23.1056 C   0  0  0  0  0  0  0  0  0  0  0  0
    9.7452   15.4944   21.6078 C   0  0  0  0  0  0  0  0  0  0  0  0
   10.9595   14.9897   20.8160 C   0  0  0  0  0  0  0  0  0  0  0  0
    8.4386   14.9306   21.0640 C   0  0  0  0  0  0  0  0  0  0  0  0
    9.6974   17.0129   21.4115 C   0  0  0  0  0  0  0  0  0  0  0  0
  1  2  1  0
  2  3  1  0
  3  4  2  0
  3  5  1  0
  5  6  2  0
  6  7  1  0
  7  8  1  0
  8  9  1  0
  9 10  1  0
  7 11  2  0
 11 12  1  0
 12 13  2  0
 13 14  1  0
 14 15  1  0
 14 16  1  0
 16 17  1  0
 17 18  1  0
 18 19  1  0
 18 20  1  0
 18 21  1  0
 13  5  1  0
 10  8  1  0
M  END
>  <energy_score>  (3139) 
-45.325783

>  <inchikey>  (3139) 
MJUXATAEFLRMTG-UHFFFAOYSA-N

>  <smiles>  (3139) 
COC(=O)c1cc(C2CC2)ncc1N(N)CCC(C)(C)C

>  <ref_pdb>  (3139) 
A0528a

>  <alias>  (3139) 
MJUXATAEFLRMTG-UHFFFAOYSA-N-P308-P15-P308-601501

>  <HIPPO Pose ID>  (3139) 
501911

>  <name>  (3139) 
MJUXATAEFLRMTG-UHFFFAOYSA-N-P308-P15-P308-601501

>  <HIPPO Compound ID>  (3139) 
292669

>  <ref_mols>  (3139) 
A4331a,A0514a

>  <distance_score>  (3139) 
1.302806

>  <inspiration_score>  (3139) 
None

$$$$
GQIWALZAWDAJRY-UHFFFAOYSA-N-P15-P15-P308-601501
     RDKit          3D

 21 23  0  0  0  0  0  0  0  0999 V2000
    9.2676    8.7694   23.0884 C   0  0  0  0  0  0  0  0  0  0  0  0
    8.4713    9.7284   23.7911 O   0  0  0  0  0  0  0  0  0  0  0  0
    9.1057   10.9108   23.9750 C   0  0  0  0  0  0  0  0  0  0  0  0
   10.2616   11.1366   23.6581 O   0  0  0  0  0  0  0  0  0  0  0  0
    8.2084   11.8977   24.6289 C   0  0  0  0  0  0  0  0  0  0  0  0
    7.2435   11.4311   25.5278 C   0  0  0  0  0  0  0  0  0  0  0  0
    6.5253   12.3418   26.2981 C   0  0  0  0  0  0  0  0  0  0  0  0
    5.7592   11.9533   27.5237 C   0  0  0  0  0  0  0  0  0  0  0  0
    4.8360   10.7812   27.5980 C   0  0  0  0  0  0  0  0  0  0  0  0
    4.2704   12.1728   27.5064 C   0  0  0  0  0  0  0  0  0  0  0  0
    6.6009   13.6639   26.0760 N   0  0  0  0  0  0  0  0  0  0  0  0
    7.5158   14.0893   25.1958 C   0  0  0  0  0  0  0  0  0  0  0  0
    8.4225   13.2793   24.5215 C   0  0  0  0  0  0  0  0  0  0  0  0
    9.6157   13.9070   24.1078 N   0  0  0  0  0  0  0  0  0  0  0  0
   10.6656   13.5356   25.0061 N   0  0  0  0  0  0  0  0  0  0  0  0
    9.9406   13.9190   22.6524 C   0  0  2  0  0  0  0  0  0  0  0  0
   11.3466   14.5223   22.4607 C   0  0  0  0  0  0  0  0  0  0  0  0
   11.6349   14.9865   21.0553 C   0  0  0  0  0  0  0  0  0  0  0  0
   10.4612   15.7495   20.4785 C   0  0  0  0  0  0  0  0  0  0  0  0
    9.2876   14.9530   20.5314 O   0  0  0  0  0  0  0  0  0  0  0  0
    8.8609   14.6460   21.8427 C   0  0  0  0  0  0  0  0  0  0  0  0
  1  2  1  0
  2  3  1  0
  3  4  2  0
  3  5  1  0
  5  6  2  0
  6  7  1  0
  7  8  1  0
  8  9  1  0
  9 10  1  0
  7 11  2  0
 11 12  1  0
 12 13  2  0
 13 14  1  0
 14 15  1  0
 16 14  1  1
 16 17  1  0
 17 18  1  0
 18 19  1  0
 19 20  1  0
 20 21  1  0
 13  5  1  0
 21 16  1  0
 10  8  1  0
M  END
>  <energy_score>  (3140) 
-46.134003

>  <inchikey>  (3140) 
GQIWALZAWDAJRY-UHFFFAOYSA-N

>  <smiles>  (3140) 
COC(=O)c1cc(C2CC2)ncc1N(N)C1CCCOC1

>  <ref_pdb>  (3140) 
A0528a

>  <alias>  (3140) 
GQIWALZAWDAJRY-UHFFFAOYSA-N-P15-P15-P308-601501

>  <HIPPO Pose ID>  (3140) 
501912

>  <name>  (3140) 
GQIWALZAWDAJRY-UHFFFAOYSA-N-P15-P15-P308-601501

>  <HIPPO Compound ID>  (3140) 
292670

>  <ref_mols>  (3140) 
A4331a,A0514a

>  <distance_score>  (3140) 
1.916283

>  <inspiration_score>  (3140) 
None

$$$$
GQFPIWGIFDREIJ-UHFFFAOYSA-N-P15-P15-P308-601501
     RDKit          3D

 21 22  0  0  0  0  0  0  0  0999 V2000
    9.2191    8.3788   22.8806 C   0  0  0  0  0  0  0  0  0  0  0  0
    8.3539    9.1767   23.6827 O   0  0  0  0  0  0  0  0  0  0  0  0
    8.9127   10.3691   23.9771 C   0  0  0  0  0  0  0  0  0  0  0  0
   10.0462   10.7009   23.6727 O   0  0  0  0  0  0  0  0  0  0  0  0
    7.9661   11.2111   24.7456 C   0  0  0  0  0  0  0  0  0  0  0  0
    6.9979   10.6147   25.5624 C   0  0  0  0  0  0  0  0  0  0  0  0
    6.2146   11.4224   26.3758 C   0  0  0  0  0  0  0  0  0  0  0  0
    5.2536   10.8703   27.3905 C   0  0  0  0  0  0  0  0  0  0  0  0
    4.0454   11.6832   27.8057 C   0  0  0  0  0  0  0  0  0  0  0  0
    5.2022   11.5500   28.7461 C   0  0  0  0  0  0  0  0  0  0  0  0
    6.3591   12.7653   26.3645 N   0  0  0  0  0  0  0  0  0  0  0  0
    7.2574   13.3186   25.5385 C   0  0  0  0  0  0  0  0  0  0  0  0
    8.0885   12.6059   24.6905 C   0  0  0  0  0  0  0  0  0  0  0  0
    9.0076   13.2434   23.8418 N   0  0  0  0  0  0  0  0  0  0  0  0
   10.3277   13.2764   24.4199 N   0  0  0  0  0  0  0  0  0  0  0  0
    8.5385   14.4644   23.1113 C   0  0  2  0  0  0  0  0  0  0  0  0
    7.1999   14.2703   22.4079 C   0  0  0  0  0  0  0  0  0  0  0  0
    9.5572   14.8995   22.0343 C   0  0  0  0  0  0  0  0  0  0  0  0
    9.1831   16.0302   21.4030 F   0  0  0  0  0  0  0  0  0  0  0  0
    9.6914   13.9621   21.0827 F   0  0  0  0  0  0  0  0  0  0  0  0
   10.7798   15.0998   22.5888 F   0  0  0  0  0  0  0  0  0  0  0  0
  1  2  1  0
  2  3  1  0
  3  4  2  0
  3  5  1  0
  5  6  2  0
  6  7  1  0
  7  8  1  0
  8  9  1  0
  9 10  1  0
  7 11  2  0
 11 12  1  0
 12 13  2  0
 13 14  1  0
 14 15  1  0
 14 16  1  0
 16 17  1  6
 16 18  1  0
 18 19  1  0
 18 20  1  0
 18 21  1  0
 13  5  1  0
 10  8  1  0
M  END
>  <energy_score>  (3141) 
-31.858912

>  <inchikey>  (3141) 
GQFPIWGIFDREIJ-UHFFFAOYSA-N

>  <smiles>  (3141) 
COC(=O)c1cc(C2CC2)ncc1N(N)C(C)C(F)(F)F

>  <ref_pdb>  (3141) 
A0528a

>  <alias>  (3141) 
GQFPIWGIFDREIJ-UHFFFAOYSA-N-P15-P15-P308-601501

>  <HIPPO Pose ID>  (3141) 
501914

>  <name>  (3141) 
GQFPIWGIFDREIJ-UHFFFAOYSA-N-P15-P15-P308-601501

>  <HIPPO Compound ID>  (3141) 
292671

>  <ref_mols>  (3141) 
A4331a,A0514a

>  <distance_score>  (3141) 
1.704376

>  <inspiration_score>  (3141) 
None

$$$$
GQFPIWGIFDREIJ-UHFFFAOYSA-N-P308-P15-P308-601501
     RDKit          3D

 21 22  0  0  0  0  0  0  0  0999 V2000
    9.4496    8.6753   23.1158 C   0  0  0  0  0  0  0  0  0  0  0  0
    8.5396    9.5379   23.7897 O   0  0  0  0  0  0  0  0  0  0  0  0
    9.1361   10.5071   24.5207 C   0  0  0  0  0  0  0  0  0  0  0  0
   10.3320   10.6462   24.7236 O   0  0  0  0  0  0  0  0  0  0  0  0
    8.0678   11.3757   25.0587 C   0  0  0  0  0  0  0  0  0  0  0  0
    6.9713   10.7720   25.6898 C   0  0  0  0  0  0  0  0  0  0  0  0
    6.0262   11.5780   26.3072 C   0  0  0  0  0  0  0  0  0  0  0  0
    4.9566   11.0436   27.2185 C   0  0  0  0  0  0  0  0  0  0  0  0
    3.7411   11.8867   27.5471 C   0  0  0  0  0  0  0  0  0  0  0  0
    4.8132   11.7178   28.5737 C   0  0  0  0  0  0  0  0  0  0  0  0
    6.1136   12.9211   26.2287 N   0  0  0  0  0  0  0  0  0  0  0  0
    7.1410   13.4764   25.5747 C   0  0  0  0  0  0  0  0  0  0  0  0
    8.1697   12.7685   24.9747 C   0  0  0  0  0  0  0  0  0  0  0  0
    9.2421   13.4239   24.3456 N   0  0  0  0  0  0  0  0  0  0  0  0
   10.4189   13.4859   25.1309 N   0  0  0  0  0  0  0  0  0  0  0  0
    8.8910   14.6021   23.4807 C   0  0  2  0  0  0  0  0  0  0  0  0
    8.1048   14.1083   22.2641 C   0  0  0  0  0  0  0  0  0  0  0  0
   10.1067   15.4032   22.9856 C   0  0  0  0  0  0  0  0  0  0  0  0
   10.5626   16.2418   23.9515 F   0  0  0  0  0  0  0  0  0  0  0  0
    9.7670   16.1705   21.9212 F   0  0  0  0  0  0  0  0  0  0  0  0
   11.1397   14.6297   22.6051 F   0  0  0  0  0  0  0  0  0  0  0  0
  1  2  1  0
  2  3  1  0
  3  4  2  0
  3  5  1  0
  5  6  2  0
  6  7  1  0
  7  8  1  0
  8  9  1  0
  9 10  1  0
  7 11  2  0
 11 12  1  0
 12 13  2  0
 13 14  1  0
 14 15  1  0
 14 16  1  0
 16 17  1  6
 16 18  1  0
 18 19  1  0
 18 20  1  0
 18 21  1  0
 13  5  1  0
 10  8  1  0
M  END
>  <energy_score>  (3142) 
-32.023843

>  <inchikey>  (3142) 
GQFPIWGIFDREIJ-UHFFFAOYSA-N

>  <smiles>  (3142) 
COC(=O)c1cc(C2CC2)ncc1N(N)C(C)C(F)(F)F

>  <ref_pdb>  (3142) 
A0528a

>  <alias>  (3142) 
GQFPIWGIFDREIJ-UHFFFAOYSA-N-P308-P15-P308-601501

>  <HIPPO Pose ID>  (3142) 
501915

>  <name>  (3142) 
GQFPIWGIFDREIJ-UHFFFAOYSA-N-P308-P15-P308-601501

>  <HIPPO Compound ID>  (3142) 
292671

>  <ref_mols>  (3142) 
A4331a,A0514a

>  <distance_score>  (3142) 
1.55266

>  <inspiration_score>  (3142) 
None

$$$$
AETFGALWHHEGJO-UHFFFAOYSA-N-P15-P15-P308-601501
     RDKit          3D

 21 23  0  0  0  0  0  0  0  0999 V2000
    9.0707    8.6343   23.1247 C   0  0  0  0  0  0  0  0  0  0  0  0
    8.2595    9.4820   23.9497 O   0  0  0  0  0  0  0  0  0  0  0  0
    8.8337   10.6921   24.1608 C   0  0  0  0  0  0  0  0  0  0  0  0
    9.9330   10.9949   23.7367 O   0  0  0  0  0  0  0  0  0  0  0  0
    7.9678   11.5933   24.9675 C   0  0  0  0  0  0  0  0  0  0  0  0
    6.8278   11.0961   25.6179 C   0  0  0  0  0  0  0  0  0  0  0  0
    6.0607   11.9685   26.3858 C   0  0  0  0  0  0  0  0  0  0  0  0
    4.8609   11.5862   27.1812 C   0  0  0  0  0  0  0  0  0  0  0  0
    4.8697   10.5121   28.2243 C   0  0  0  0  0  0  0  0  0  0  0  0
    4.8868   11.9470   28.6541 C   0  0  0  0  0  0  0  0  0  0  0  0
    6.3640   13.2759   26.4915 N   0  0  0  0  0  0  0  0  0  0  0  0
    7.4458   13.7336   25.8616 C   0  0  0  0  0  0  0  0  0  0  0  0
    8.3119   12.9496   25.1146 C   0  0  0  0  0  0  0  0  0  0  0  0
    9.4630   13.5456   24.5341 N   0  0  0  0  0  0  0  0  0  0  0  0
   10.3043   14.2127   25.4599 N   0  0  0  0  0  0  0  0  0  0  0  0
    9.0646   14.2378   23.2786 C   0  0  0  0  0  0  0  0  0  0  0  0
   10.1861   14.4782   22.2348 C   0  0  0  0  0  0  0  0  0  0  0  0
   11.2640   13.4085   22.3515 C   0  0  0  0  0  0  0  0  0  0  0  0
    9.3037   14.6524   20.9592 C   0  0  0  0  0  0  0  0  0  0  0  0
   10.5430   15.1447   20.1995 C   0  0  0  0  0  0  0  0  0  0  0  0
   10.9162   15.7279   21.5612 C   0  0  0  0  0  0  0  0  0  0  0  0
  1  2  1  0
  2  3  1  0
  3  4  2  0
  3  5  1  0
  5  6  2  0
  6  7  1  0
  7  8  1  0
  8  9  1  0
  9 10  1  0
  7 11  2  0
 11 12  1  0
 12 13  2  0
 13 14  1  0
 14 15  1  0
 14 16  1  0
 16 17  1  0
 17 18  1  0
 17 19  1  0
 19 20  1  0
 20 21  1  0
 13  5  1  0
 21 17  1  0
 10  8  1  0
M  END
>  <energy_score>  (3143) 
-3.173011

>  <inchikey>  (3143) 
AETFGALWHHEGJO-UHFFFAOYSA-N

>  <smiles>  (3143) 
COC(=O)c1cc(C2CC2)ncc1N(N)CC1(C)CCC1

>  <ref_pdb>  (3143) 
A0528a

>  <alias>  (3143) 
AETFGALWHHEGJO-UHFFFAOYSA-N-P15-P15-P308-601501

>  <HIPPO Pose ID>  (3143) 
501916

>  <name>  (3143) 
AETFGALWHHEGJO-UHFFFAOYSA-N-P15-P15-P308-601501

>  <HIPPO Compound ID>  (3143) 
292672

>  <ref_mols>  (3143) 
A4331a,A0514a

>  <distance_score>  (3143) 
1.527764

>  <inspiration_score>  (3143) 
None

$$$$
AETFGALWHHEGJO-UHFFFAOYSA-N-P308-P15-P308-601501
     RDKit          3D

 21 23  0  0  0  0  0  0  0  0999 V2000
    9.4184    8.5409   23.0013 C   0  0  0  0  0  0  0  0  0  0  0  0
    8.6360    9.4894   23.7101 O   0  0  0  0  0  0  0  0  0  0  0  0
    9.3674   10.3323   24.4745 C   0  0  0  0  0  0  0  0  0  0  0  0
   10.5698   10.2878   24.6758 O   0  0  0  0  0  0  0  0  0  0  0  0
    8.4340   11.3371   25.0174 C   0  0  0  0  0  0  0  0  0  0  0  0
    7.2091   10.9062   25.5471 C   0  0  0  0  0  0  0  0  0  0  0  0
    6.3828   11.8340   26.1621 C   0  0  0  0  0  0  0  0  0  0  0  0
    5.1097   11.4479   26.8609 C   0  0  0  0  0  0  0  0  0  0  0  0
    4.8297   12.0039   28.2405 C   0  0  0  0  0  0  0  0  0  0  0  0
    4.0397   12.5022   27.0712 C   0  0  0  0  0  0  0  0  0  0  0  0
    6.7400   13.1356   26.2261 N   0  0  0  0  0  0  0  0  0  0  0  0
    7.9072   13.5286   25.6847 C   0  0  0  0  0  0  0  0  0  0  0  0
    8.8091   12.6814   25.0666 C   0  0  0  0  0  0  0  0  0  0  0  0
   10.0067   13.1621   24.5002 N   0  0  0  0  0  0  0  0  0  0  0  0
   10.7961   13.9947   25.3246 N   0  0  0  0  0  0  0  0  0  0  0  0
    9.8530   13.4700   23.0502 C   0  0  0  0  0  0  0  0  0  0  0  0
   10.0277   14.9401   22.6262 C   0  0  0  0  0  0  0  0  0  0  0  0
    9.1248   15.8909   23.3885 C   0  0  0  0  0  0  0  0  0  0  0  0
    9.8388   15.1159   21.0884 C   0  0  0  0  0  0  0  0  0  0  0  0
   11.3653   15.0839   20.9271 C   0  0  0  0  0  0  0  0  0  0  0  0
   11.4816   15.4753   22.4064 C   0  0  0  0  0  0  0  0  0  0  0  0
  1  2  1  0
  2  3  1  0
  3  4  2  0
  3  5  1  0
  5  6  2  0
  6  7  1  0
  7  8  1  0
  8  9  1  0
  9 10  1  0
  7 11  2  0
 11 12  1  0
 12 13  2  0
 13 14  1  0
 14 15  1  0
 14 16  1  0
 16 17  1  0
 17 18  1  0
 17 19  1  0
 19 20  1  0
 20 21  1  0
 13  5  1  0
 21 17  1  0
 10  8  1  0
M  END
>  <energy_score>  (3144) 
-32.890302

>  <inchikey>  (3144) 
AETFGALWHHEGJO-UHFFFAOYSA-N

>  <smiles>  (3144) 
COC(=O)c1cc(C2CC2)ncc1N(N)CC1(C)CCC1

>  <ref_pdb>  (3144) 
A0528a

>  <alias>  (3144) 
AETFGALWHHEGJO-UHFFFAOYSA-N-P308-P15-P308-601501

>  <HIPPO Pose ID>  (3144) 
501917

>  <name>  (3144) 
AETFGALWHHEGJO-UHFFFAOYSA-N-P308-P15-P308-601501

>  <HIPPO Compound ID>  (3144) 
292672

>  <ref_mols>  (3144) 
A4331a,A0514a

>  <distance_score>  (3144) 
1.495936

>  <inspiration_score>  (3144) 
None

$$$$
KQERYPVOULVVEB-UHFFFAOYSA-N-P15-P15-P308-601501
     RDKit          3D

 21 23  0  0  0  0  0  0  0  0999 V2000
    9.3618    8.6711   23.0683 C   0  0  0  0  0  0  0  0  0  0  0  0
    8.4727    9.3944   23.9235 O   0  0  0  0  0  0  0  0  0  0  0  0
    8.8336   10.6869   24.1129 C   0  0  0  0  0  0  0  0  0  0  0  0
    9.8343   11.1993   23.6444 O   0  0  0  0  0  0  0  0  0  0  0  0
    7.8390   11.3922   24.9712 C   0  0  0  0  0  0  0  0  0  0  0  0
    6.8393   10.6662   25.6306 C   0  0  0  0  0  0  0  0  0  0  0  0
    5.9708   11.3358   26.4835 C   0  0  0  0  0  0  0  0  0  0  0  0
    5.0544   10.6237   27.4330 C   0  0  0  0  0  0  0  0  0  0  0  0
    3.8551   11.3417   28.0154 C   0  0  0  0  0  0  0  0  0  0  0  0
    5.0594   11.1042   28.8718 C   0  0  0  0  0  0  0  0  0  0  0  0
    5.9977   12.6803   26.5965 N   0  0  0  0  0  0  0  0  0  0  0  0
    6.9430   13.3649   25.9496 C   0  0  0  0  0  0  0  0  0  0  0  0
    7.9380   12.7782   25.1863 C   0  0  0  0  0  0  0  0  0  0  0  0
    9.0075   13.5671   24.7003 N   0  0  0  0  0  0  0  0  0  0  0  0
    9.4895   14.5872   25.5835 N   0  0  0  0  0  0  0  0  0  0  0  0
    8.6776   14.0061   23.3168 C   0  0  0  0  0  0  0  0  0  0  0  0
    9.8536   14.3997   22.4892 C   0  0  0  0  0  0  0  0  0  0  0  0
   11.2057   14.2501   22.7247 C   0  0  0  0  0  0  0  0  0  0  0  0
   11.9873   14.7572   21.6539 C   0  0  0  0  0  0  0  0  0  0  0  0
   11.2028   15.1556   20.5966 C   0  0  0  0  0  0  0  0  0  0  0  0
    9.5541   15.1770   21.0021 S   0  0  0  0  0  0  0  0  0  0  0  0
  1  2  1  0
  2  3  1  0
  3  4  2  0
  3  5  1  0
  5  6  2  0
  6  7  1  0
  7  8  1  0
  8  9  1  0
  9 10  1  0
  7 11  2  0
 11 12  1  0
 12 13  2  0
 13 14  1  0
 14 15  1  0
 14 16  1  0
 16 17  1  0
 17 18  2  0
 18 19  1  0
 19 20  2  0
 20 21  1  0
 13  5  1  0
 21 17  1  0
 10  8  1  0
M  END
>  <energy_score>  (3145) 
-41.61375

>  <inchikey>  (3145) 
KQERYPVOULVVEB-UHFFFAOYSA-N

>  <smiles>  (3145) 
COC(=O)c1cc(C2CC2)ncc1N(N)Cc1cccs1

>  <ref_pdb>  (3145) 
A0528a

>  <alias>  (3145) 
KQERYPVOULVVEB-UHFFFAOYSA-N-P15-P15-P308-601501

>  <HIPPO Pose ID>  (3145) 
501918

>  <name>  (3145) 
KQERYPVOULVVEB-UHFFFAOYSA-N-P15-P15-P308-601501

>  <HIPPO Compound ID>  (3145) 
292673

>  <ref_mols>  (3145) 
A4331a,A0514a

>  <distance_score>  (3145) 
1.495337

>  <inspiration_score>  (3145) 
None

$$$$
KQERYPVOULVVEB-UHFFFAOYSA-N-P308-P15-P308-601501
     RDKit          3D

 21 23  0  0  0  0  0  0  0  0999 V2000
    9.4729    8.7428   23.1548 C   0  0  0  0  0  0  0  0  0  0  0  0
    8.5767    9.6084   23.8455 O   0  0  0  0  0  0  0  0  0  0  0  0
    9.1836   10.5959   24.5479 C   0  0  0  0  0  0  0  0  0  0  0  0
   10.3850   10.7649   24.6709 O   0  0  0  0  0  0  0  0  0  0  0  0
    8.1198   11.4381   25.1415 C   0  0  0  0  0  0  0  0  0  0  0  0
    6.9843   10.8177   25.6875 C   0  0  0  0  0  0  0  0  0  0  0  0
    6.0372   11.5961   26.3430 C   0  0  0  0  0  0  0  0  0  0  0  0
    4.9354   11.0185   27.1877 C   0  0  0  0  0  0  0  0  0  0  0  0
    3.7238   11.8594   27.5402 C   0  0  0  0  0  0  0  0  0  0  0  0
    4.7655   11.6060   28.5799 C   0  0  0  0  0  0  0  0  0  0  0  0
    6.1489   12.9398   26.3737 N   0  0  0  0  0  0  0  0  0  0  0  0
    7.2264   13.5154   25.8316 C   0  0  0  0  0  0  0  0  0  0  0  0
    8.2690   12.8240   25.2293 C   0  0  0  0  0  0  0  0  0  0  0  0
    9.3785   13.5414   24.6976 N   0  0  0  0  0  0  0  0  0  0  0  0
    9.8451   14.5632   25.6023 N   0  0  0  0  0  0  0  0  0  0  0  0
    8.9595   13.9989   23.3359 C   0  0  0  0  0  0  0  0  0  0  0  0
   10.0085   14.6702   22.5086 C   0  0  0  0  0  0  0  0  0  0  0  0
   11.3652   14.8143   22.7173 C   0  0  0  0  0  0  0  0  0  0  0  0
   11.9936   15.5258   21.6600 C   0  0  0  0  0  0  0  0  0  0  0  0
   11.1143   15.8221   20.6444 C   0  0  0  0  0  0  0  0  0  0  0  0
    9.5189   15.3838   21.0330 S   0  0  0  0  0  0  0  0  0  0  0  0
  1  2  1  0
  2  3  1  0
  3  4  2  0
  3  5  1  0
  5  6  2  0
  6  7  1  0
  7  8  1  0
  8  9  1  0
  9 10  1  0
  7 11  2  0
 11 12  1  0
 12 13  2  0
 13 14  1  0
 14 15  1  0
 14 16  1  0
 16 17  1  0
 17 18  2  0
 18 19  1  0
 19 20  2  0
 20 21  1  0
 13  5  1  0
 21 17  1  0
 10  8  1  0
M  END
>  <energy_score>  (3146) 
-43.487728

>  <inchikey>  (3146) 
KQERYPVOULVVEB-UHFFFAOYSA-N

>  <smiles>  (3146) 
COC(=O)c1cc(C2CC2)ncc1N(N)Cc1cccs1

>  <ref_pdb>  (3146) 
A0528a

>  <alias>  (3146) 
KQERYPVOULVVEB-UHFFFAOYSA-N-P308-P15-P308-601501

>  <HIPPO Pose ID>  (3146) 
501919

>  <name>  (3146) 
KQERYPVOULVVEB-UHFFFAOYSA-N-P308-P15-P308-601501

>  <HIPPO Compound ID>  (3146) 
292673

>  <ref_mols>  (3146) 
A4331a,A0514a

>  <distance_score>  (3146) 
1.382719

>  <inspiration_score>  (3146) 
None

$$$$
JGFMSMJCEPVRBE-UHFFFAOYSA-N-P15-P15-P308-601501
     RDKit          3D

 21 23  0  0  0  0  0  0  0  0999 V2000
    9.1772    8.5336   23.0481 C   0  0  0  0  0  0  0  0  0  0  0  0
    8.4403    9.4315   23.8872 O   0  0  0  0  0  0  0  0  0  0  0  0
    8.9554   10.6824   23.9027 C   0  0  0  0  0  0  0  0  0  0  0  0
    9.9592   11.0155   23.2936 O   0  0  0  0  0  0  0  0  0  0  0  0
    8.1721   11.5950   24.7858 C   0  0  0  0  0  0  0  0  0  0  0  0
    7.0383   11.1287   25.4728 C   0  0  0  0  0  0  0  0  0  0  0  0
    6.3134   12.0188   26.2633 C   0  0  0  0  0  0  0  0  0  0  0  0
    5.0578   11.6802   26.9918 C   0  0  0  0  0  0  0  0  0  0  0  0
    4.9858   10.6633   28.0888 C   0  0  0  0  0  0  0  0  0  0  0  0
    4.9571   12.1195   28.4394 C   0  0  0  0  0  0  0  0  0  0  0  0
    6.6807   13.3087   26.4001 N   0  0  0  0  0  0  0  0  0  0  0  0
    7.7355   13.7467   25.7078 C   0  0  0  0  0  0  0  0  0  0  0  0
    8.5424   12.9467   24.9146 C   0  0  0  0  0  0  0  0  0  0  0  0
    9.6199   13.6034   24.2642 N   0  0  0  0  0  0  0  0  0  0  0  0
   10.8944   13.0548   24.5312 N   0  0  0  0  0  0  0  0  0  0  0  0
    9.3680   13.9861   22.9642 C   0  0  0  0  0  0  0  0  0  0  0  0
    8.1968   13.9176   22.3470 N   0  0  0  0  0  0  0  0  0  0  0  0
    8.2947   14.5634   21.1467 N   0  0  0  0  0  0  0  0  0  0  0  0
    9.5177   15.0103   21.0342 C   0  0  0  0  0  0  0  0  0  0  0  0
   10.2452   14.6133   22.1119 N   0  0  0  0  0  0  0  0  0  0  0  0
   11.6409   14.8917   22.2557 C   0  0  0  0  0  0  0  0  0  0  0  0
  1  2  1  0
  2  3  1  0
  3  4  2  0
  3  5  1  0
  5  6  2  0
  6  7  1  0
  7  8  1  0
  8  9  1  0
  9 10  1  0
  7 11  2  0
 11 12  1  0
 12 13  2  0
 13 14  1  0
 14 15  1  0
 14 16  1  0
 16 17  2  0
 17 18  1  0
 18 19  2  0
 19 20  1  0
 20 21  1  0
 13  5  1  0
 20 16  1  0
 10  8  1  0
M  END
>  <energy_score>  (3147) 
-43.637788

>  <inchikey>  (3147) 
JGFMSMJCEPVRBE-UHFFFAOYSA-N

>  <smiles>  (3147) 
COC(=O)c1cc(C2CC2)ncc1N(N)c1nncn1C

>  <ref_pdb>  (3147) 
A0528a

>  <alias>  (3147) 
JGFMSMJCEPVRBE-UHFFFAOYSA-N-P15-P15-P308-601501

>  <HIPPO Pose ID>  (3147) 
501920

>  <name>  (3147) 
JGFMSMJCEPVRBE-UHFFFAOYSA-N-P15-P15-P308-601501

>  <HIPPO Compound ID>  (3147) 
292674

>  <ref_mols>  (3147) 
A4331a,A0514a

>  <distance_score>  (3147) 
1.569529

>  <inspiration_score>  (3147) 
None

$$$$
JGFMSMJCEPVRBE-UHFFFAOYSA-N-P308-P15-P308-601501
     RDKit          3D

 21 23  0  0  0  0  0  0  0  0999 V2000
    9.5366    8.7756   23.1955 C   0  0  0  0  0  0  0  0  0  0  0  0
    8.6248    9.6221   23.8901 O   0  0  0  0  0  0  0  0  0  0  0  0
    9.1919   10.7329   24.4194 C   0  0  0  0  0  0  0  0  0  0  0  0
   10.3752   11.0284   24.4044 O   0  0  0  0  0  0  0  0  0  0  0  0
    8.1225   11.5515   25.0326 C   0  0  0  0  0  0  0  0  0  0  0  0
    7.0208   10.9153   25.6287 C   0  0  0  0  0  0  0  0  0  0  0  0
    6.0817   11.6828   26.3060 C   0  0  0  0  0  0  0  0  0  0  0  0
    4.9601   11.0903   27.1120 C   0  0  0  0  0  0  0  0  0  0  0  0
    4.7802   11.5478   28.5454 C   0  0  0  0  0  0  0  0  0  0  0  0
    3.7945   11.9811   27.5102 C   0  0  0  0  0  0  0  0  0  0  0  0
    6.1882   13.0271   26.3497 N   0  0  0  0  0  0  0  0  0  0  0  0
    7.2234   13.6162   25.7351 C   0  0  0  0  0  0  0  0  0  0  0  0
    8.2483   12.9420   25.0902 C   0  0  0  0  0  0  0  0  0  0  0  0
    9.3305   13.6607   24.5196 N   0  0  0  0  0  0  0  0  0  0  0  0
    9.8019   14.7236   25.3513 N   0  0  0  0  0  0  0  0  0  0  0  0
    9.1872   14.0359   23.2019 C   0  0  0  0  0  0  0  0  0  0  0  0
    8.1557   13.8360   22.3973 N   0  0  0  0  0  0  0  0  0  0  0  0
    8.4241   14.4309   21.1869 N   0  0  0  0  0  0  0  0  0  0  0  0
    9.6315   14.9301   21.2483 C   0  0  0  0  0  0  0  0  0  0  0  0
   10.1566   14.6898   22.4785 N   0  0  0  0  0  0  0  0  0  0  0  0
   11.4919   15.0316   22.8735 C   0  0  0  0  0  0  0  0  0  0  0  0
  1  2  1  0
  2  3  1  0
  3  4  2  0
  3  5  1  0
  5  6  2  0
  6  7  1  0
  7  8  1  0
  8  9  1  0
  9 10  1  0
  7 11  2  0
 11 12  1  0
 12 13  2  0
 13 14  1  0
 14 15  1  0
 14 16  1  0
 16 17  2  0
 17 18  1  0
 18 19  2  0
 19 20  1  0
 20 21  1  0
 13  5  1  0
 20 16  1  0
 10  8  1  0
M  END
>  <energy_score>  (3148) 
-47.289028

>  <inchikey>  (3148) 
JGFMSMJCEPVRBE-UHFFFAOYSA-N

>  <smiles>  (3148) 
COC(=O)c1cc(C2CC2)ncc1N(N)c1nncn1C

>  <ref_pdb>  (3148) 
A0528a

>  <alias>  (3148) 
JGFMSMJCEPVRBE-UHFFFAOYSA-N-P308-P15-P308-601501

>  <HIPPO Pose ID>  (3148) 
501921

>  <name>  (3148) 
JGFMSMJCEPVRBE-UHFFFAOYSA-N-P308-P15-P308-601501

>  <HIPPO Compound ID>  (3148) 
292674

>  <ref_mols>  (3148) 
A4331a,A0514a

>  <distance_score>  (3148) 
1.609196

>  <inspiration_score>  (3148) 
None

$$$$
NLVABMVXVRKYKK-UHFFFAOYSA-N-P308-P15-P308-601501
     RDKit          3D

 21 23  0  0  0  0  0  0  0  0999 V2000
    9.1715    8.7424   23.2927 C   0  0  0  0  0  0  0  0  0  0  0  0
    8.3420    9.7869   23.8020 O   0  0  0  0  0  0  0  0  0  0  0  0
    9.0253   10.7439   24.4713 C   0  0  0  0  0  0  0  0  0  0  0  0
   10.2156   10.7139   24.7451 O   0  0  0  0  0  0  0  0  0  0  0  0
    8.0846   11.8307   24.8422 C   0  0  0  0  0  0  0  0  0  0  0  0
    6.8980   11.4633   25.4901 C   0  0  0  0  0  0  0  0  0  0  0  0
    6.0293   12.4531   25.9250 C   0  0  0  0  0  0  0  0  0  0  0  0
    4.7356   12.1981   26.6294 C   0  0  0  0  0  0  0  0  0  0  0  0
    4.5323   11.2241   27.7511 C   0  0  0  0  0  0  0  0  0  0  0  0
    4.6634   12.6825   28.0650 C   0  0  0  0  0  0  0  0  0  0  0  0
    6.3099   13.7519   25.7346 N   0  0  0  0  0  0  0  0  0  0  0  0
    7.4302   14.0742   25.0749 C   0  0  0  0  0  0  0  0  0  0  0  0
    8.3765   13.1834   24.5941 C   0  0  0  0  0  0  0  0  0  0  0  0
    9.5747   13.6271   24.0166 N   0  0  0  0  0  0  0  0  0  0  0  0
   10.7094   13.3279   24.8035 N   0  0  0  0  0  0  0  0  0  0  0  0
    9.6020   14.8748   23.1736 C   0  0  1  0  0  0  0  0  0  0  0  0
   10.8837   15.7006   23.4072 C   0  0  0  0  0  0  0  0  0  0  0  0
   12.0300   15.2059   22.5332 C   0  0  0  0  0  0  0  0  0  0  0  0
   11.8676   15.6033   21.0710 C   0  0  0  0  0  0  0  0  0  0  0  0
   10.1434   15.6243   20.4937 S   0  0  0  0  0  0  0  0  0  0  0  0
    9.4335   14.4605   21.6979 C   0  0  0  0  0  0  0  0  0  0  0  0
  1  2  1  0
  2  3  1  0
  3  4  2  0
  3  5  1  0
  5  6  2  0
  6  7  1  0
  7  8  1  0
  8  9  1  0
  9 10  1  0
  7 11  2  0
 11 12  1  0
 12 13  2  0
 13 14  1  0
 14 15  1  0
 16 14  1  1
 16 17  1  0
 17 18  1  0
 18 19  1  0
 19 20  1  0
 20 21  1  0
 13  5  1  0
 21 16  1  0
 10  8  1  0
M  END
>  <energy_score>  (3149) 
-40.181651

>  <inchikey>  (3149) 
NLVABMVXVRKYKK-UHFFFAOYSA-N

>  <smiles>  (3149) 
COC(=O)c1cc(C2CC2)ncc1N(N)C1CCCSC1

>  <ref_pdb>  (3149) 
A0528a

>  <alias>  (3149) 
NLVABMVXVRKYKK-UHFFFAOYSA-N-P308-P15-P308-601501

>  <HIPPO Pose ID>  (3149) 
501925

>  <name>  (3149) 
NLVABMVXVRKYKK-UHFFFAOYSA-N-P308-P15-P308-601501

>  <HIPPO Compound ID>  (3149) 
292676

>  <ref_mols>  (3149) 
A4331a,A0514a

>  <distance_score>  (3149) 
1.950695

>  <inspiration_score>  (3149) 
None

$$$$
HEHLXZLMNHXABI-UHFFFAOYSA-N-P308-P15-P308-601501
     RDKit          3D

 21 23  0  0  0  0  0  0  0  0999 V2000
    9.5232    8.6949   23.1806 C   0  0  0  0  0  0  0  0  0  0  0  0
    8.6726    9.6717   23.7707 O   0  0  0  0  0  0  0  0  0  0  0  0
    9.3266   10.6636   24.4236 C   0  0  0  0  0  0  0  0  0  0  0  0
   10.5251   10.7309   24.6369 O   0  0  0  0  0  0  0  0  0  0  0  0
    8.2946   11.6553   24.7979 C   0  0  0  0  0  0  0  0  0  0  0  0
    7.1601   11.2070   25.4715 C   0  0  0  0  0  0  0  0  0  0  0  0
    6.2183   12.1299   25.9036 C   0  0  0  0  0  0  0  0  0  0  0  0
    5.1284   11.7278   26.8612 C   0  0  0  0  0  0  0  0  0  0  0  0
    3.9375   12.6227   27.1038 C   0  0  0  0  0  0  0  0  0  0  0  0
    5.0095   12.5263   28.1452 C   0  0  0  0  0  0  0  0  0  0  0  0
    6.3211   13.4335   25.5694 N   0  0  0  0  0  0  0  0  0  0  0  0
    7.4100   13.8372   24.8951 C   0  0  0  0  0  0  0  0  0  0  0  0
    8.4668   13.0160   24.5424 C   0  0  0  0  0  0  0  0  0  0  0  0
    9.7247   13.5684   24.2387 N   0  0  0  0  0  0  0  0  0  0  0  0
   10.5360   13.5556   25.3912 N   0  0  0  0  0  0  0  0  0  0  0  0
   10.1148   14.3816   23.1530 C   0  0  0  0  0  0  0  0  0  0  0  0
    9.3545   14.5967   22.0184 C   0  0  0  0  0  0  0  0  0  0  0  0
    9.7657   15.2987   20.9386 N   0  0  0  0  0  0  0  0  0  0  0  0
   10.9971   15.8254   21.0143 C   0  0  0  0  0  0  0  0  0  0  0  0
   11.8273   15.7183   22.0551 N   0  0  0  0  0  0  0  0  0  0  0  0
   11.3599   14.9955   23.0872 C   0  0  0  0  0  0  0  0  0  0  0  0
  1  2  1  0
  2  3  1  0
  3  4  2  0
  3  5  1  0
  5  6  2  0
  6  7  1  0
  7  8  1  0
  8  9  1  0
  9 10  1  0
  7 11  2  0
 11 12  1  0
 12 13  2  0
 13 14  1  0
 14 15  1  0
 14 16  1  0
 16 17  2  0
 17 18  1  0
 18 19  2  0
 19 20  1  0
 20 21  2  0
 13  5  1  0
 21 16  1  0
 10  8  1  0
M  END
>  <energy_score>  (3150) 
-52.545364

>  <inchikey>  (3150) 
HEHLXZLMNHXABI-UHFFFAOYSA-N

>  <smiles>  (3150) 
COC(=O)c1cc(C2CC2)ncc1N(N)c1cncnc1

>  <ref_pdb>  (3150) 
A0528a

>  <alias>  (3150) 
HEHLXZLMNHXABI-UHFFFAOYSA-N-P308-P15-P308-601501

>  <HIPPO Pose ID>  (3150) 
501927

>  <name>  (3150) 
HEHLXZLMNHXABI-UHFFFAOYSA-N-P308-P15-P308-601501

>  <HIPPO Compound ID>  (3150) 
292677

>  <ref_mols>  (3150) 
A4331a,A0514a

>  <distance_score>  (3150) 
1.864421

>  <inspiration_score>  (3150) 
None

$$$$
DIMDHGOVDAGTJB-UHFFFAOYSA-N-P15-P15-P308-601501
     RDKit          3D

 21 23  0  0  0  0  0  0  0  0999 V2000
    9.6581    8.9050   22.9579 C   0  0  0  0  0  0  0  0  0  0  0  0
    9.1591   10.0888   23.5848 O   0  0  0  0  0  0  0  0  0  0  0  0
    8.1590    9.8557   24.4566 C   0  0  0  0  0  0  0  0  0  0  0  0
    7.7081    8.7709   24.7717 O   0  0  0  0  0  0  0  0  0  0  0  0
    7.6086   11.0833   25.0520 C   0  0  0  0  0  0  0  0  0  0  0  0
    6.4787   10.8936   25.8527 C   0  0  0  0  0  0  0  0  0  0  0  0
    5.9034   11.9807   26.4769 C   0  0  0  0  0  0  0  0  0  0  0  0
    4.7448   11.8252   27.4153 C   0  0  0  0  0  0  0  0  0  0  0  0
    4.7233   12.6193   28.6982 C   0  0  0  0  0  0  0  0  0  0  0  0
    3.7816   12.9780   27.5884 C   0  0  0  0  0  0  0  0  0  0  0  0
    6.3984   13.2231   26.2858 N   0  0  0  0  0  0  0  0  0  0  0  0
    7.4688   13.3894   25.4933 C   0  0  0  0  0  0  0  0  0  0  0  0
    8.1556   12.3555   24.8855 C   0  0  0  0  0  0  0  0  0  0  0  0
    9.3510   12.5872   24.2174 N   0  0  0  0  0  0  0  0  0  0  0  0
    9.6151   13.5186   23.2672 C   0  0  0  0  0  0  0  0  0  0  0  0
   10.8276   13.6876   22.8385 N   0  0  0  0  0  0  0  0  0  0  0  0
   10.7602   14.5962   21.8243 N   0  0  0  0  0  0  0  0  0  0  0  0
   11.9333   14.9689   21.0831 C   0  0  0  0  0  0  0  0  0  0  0  0
    9.4809   15.0357   21.5398 C   0  0  0  0  0  0  0  0  0  0  0  0
    9.1152   15.8012   20.6736 O   0  0  0  0  0  0  0  0  0  0  0  0
    8.6040   14.3561   22.5440 C   0  0  0  0  0  0  0  0  0  0  0  0
  1  2  1  0
  2  3  1  0
  3  4  2  0
  3  5  1  0
  5  6  2  0
  6  7  1  0
  7  8  1  0
  8  9  1  0
  9 10  1  0
  7 11  2  0
 11 12  1  0
 12 13  2  0
 13 14  1  0
 14 15  1  0
 15 16  2  0
 16 17  1  0
 17 18  1  0
 17 19  1  0
 19 20  2  0
 19 21  1  0
 13  5  1  0
 21 15  1  0
 10  8  1  0
M  END
>  <energy_score>  (3151) 
-25.22992

>  <inchikey>  (3151) 
DIMDHGOVDAGTJB-UHFFFAOYSA-N

>  <smiles>  (3151) 
COC(=O)c1cc(C2CC2)ncc1NC1=NN(C)C(=O)C1

>  <ref_pdb>  (3151) 
A0528a

>  <alias>  (3151) 
DIMDHGOVDAGTJB-UHFFFAOYSA-N-P15-P15-P308-601501

>  <HIPPO Pose ID>  (3151) 
501928

>  <name>  (3151) 
DIMDHGOVDAGTJB-UHFFFAOYSA-N-P15-P15-P308-601501

>  <HIPPO Compound ID>  (3151) 
292678

>  <ref_mols>  (3151) 
A4331a,A0514a

>  <distance_score>  (3151) 
1.668669

>  <inspiration_score>  (3151) 
None

$$$$
DIMDHGOVDAGTJB-UHFFFAOYSA-N-P308-P15-P308-601501
     RDKit          3D

 21 23  0  0  0  0  0  0  0  0999 V2000
    9.3567    8.4757   23.0864 C   0  0  0  0  0  0  0  0  0  0  0  0
    8.5182    9.2690   23.9181 O   0  0  0  0  0  0  0  0  0  0  0  0
    9.1805   10.2997   24.4822 C   0  0  0  0  0  0  0  0  0  0  0  0
   10.3836   10.5064   24.4810 O   0  0  0  0  0  0  0  0  0  0  0  0
    8.2083   11.2520   25.0454 C   0  0  0  0  0  0  0  0  0  0  0  0
    7.0163   10.8012   25.6150 C   0  0  0  0  0  0  0  0  0  0  0  0
    6.1620   11.7350   26.1810 C   0  0  0  0  0  0  0  0  0  0  0  0
    4.9678   11.3407   27.0027 C   0  0  0  0  0  0  0  0  0  0  0  0
    4.8039   11.9487   28.3797 C   0  0  0  0  0  0  0  0  0  0  0  0
    3.8843   12.3661   27.2762 C   0  0  0  0  0  0  0  0  0  0  0  0
    6.4266   13.0598   26.0952 N   0  0  0  0  0  0  0  0  0  0  0  0
    7.5598   13.4699   25.5073 C   0  0  0  0  0  0  0  0  0  0  0  0
    8.5201   12.6143   25.0116 C   0  0  0  0  0  0  0  0  0  0  0  0
    9.7152   13.1014   24.4850 N   0  0  0  0  0  0  0  0  0  0  0  0
    9.8486   13.9326   23.4128 C   0  0  0  0  0  0  0  0  0  0  0  0
   11.0167   14.2128   22.9175 N   0  0  0  0  0  0  0  0  0  0  0  0
   10.8054   15.0178   21.8319 N   0  0  0  0  0  0  0  0  0  0  0  0
   11.9016   15.4725   21.0208 C   0  0  0  0  0  0  0  0  0  0  0  0
    9.4697   15.2000   21.5204 C   0  0  0  0  0  0  0  0  0  0  0  0
    8.9795   15.7354   20.5458 O   0  0  0  0  0  0  0  0  0  0  0  0
    8.7223   14.5695   22.6512 C   0  0  0  0  0  0  0  0  0  0  0  0
  1  2  1  0
  2  3  1  0
  3  4  2  0
  3  5  1  0
  5  6  2  0
  6  7  1  0
  7  8  1  0
  8  9  1  0
  9 10  1  0
  7 11  2  0
 11 12  1  0
 12 13  2  0
 13 14  1  0
 14 15  1  0
 15 16  2  0
 16 17  1  0
 17 18  1  0
 17 19  1  0
 19 20  2  0
 19 21  1  0
 13  5  1  0
 21 15  1  0
 10  8  1  0
M  END
>  <energy_score>  (3152) 
-28.41783

>  <inchikey>  (3152) 
DIMDHGOVDAGTJB-UHFFFAOYSA-N

>  <smiles>  (3152) 
COC(=O)c1cc(C2CC2)ncc1NC1=NN(C)C(=O)C1

>  <ref_pdb>  (3152) 
A0528a

>  <alias>  (3152) 
DIMDHGOVDAGTJB-UHFFFAOYSA-N-P308-P15-P308-601501

>  <HIPPO Pose ID>  (3152) 
501929

>  <name>  (3152) 
DIMDHGOVDAGTJB-UHFFFAOYSA-N-P308-P15-P308-601501

>  <HIPPO Compound ID>  (3152) 
292678

>  <ref_mols>  (3152) 
A4331a,A0514a

>  <distance_score>  (3152) 
1.737076

>  <inspiration_score>  (3152) 
None

$$$$
HTYNCQAFAJRATF-UHFFFAOYSA-N-P15-P15-P308-601501
     RDKit          3D

 21 23  0  0  0  0  0  0  0  0999 V2000
    9.3828    8.4296   23.3025 C   0  0  0  0  0  0  0  0  0  0  0  0
    8.6463    9.2856   24.1803 O   0  0  0  0  0  0  0  0  0  0  0  0
    8.7865   10.5867   23.8520 C   0  0  0  0  0  0  0  0  0  0  0  0
    9.4024   11.0061   22.8881 O   0  0  0  0  0  0  0  0  0  0  0  0
    8.0907   11.4690   24.8126 C   0  0  0  0  0  0  0  0  0  0  0  0
    6.9501   11.0426   25.5009 C   0  0  0  0  0  0  0  0  0  0  0  0
    6.2912   11.9601   26.3133 C   0  0  0  0  0  0  0  0  0  0  0  0
    5.0160   11.6852   27.0341 C   0  0  0  0  0  0  0  0  0  0  0  0
    4.9040   10.6747   28.1348 C   0  0  0  0  0  0  0  0  0  0  0  0
    4.9212   12.1333   28.4787 C   0  0  0  0  0  0  0  0  0  0  0  0
    6.7490   13.2197   26.4803 N   0  0  0  0  0  0  0  0  0  0  0  0
    7.8401   13.6034   25.8112 C   0  0  0  0  0  0  0  0  0  0  0  0
    8.5574   12.7829   24.9594 C   0  0  0  0  0  0  0  0  0  0  0  0
    9.6829   13.2613   24.2601 N   0  0  0  0  0  0  0  0  0  0  0  0
   10.8321   13.5363   25.0748 N   0  0  0  0  0  0  0  0  0  0  0  0
    9.3416   14.3372   23.2999 C   0  0  2  0  0  0  0  0  0  0  0  0
    8.2147   14.0732   22.3210 C   0  0  0  0  0  0  0  0  0  0  0  0
    8.6854   14.3514   21.0010 O   0  0  0  0  0  0  0  0  0  0  0  0
    9.8759   15.1376   21.1036 C   0  0  0  0  0  0  0  0  0  0  0  0
   10.5244   14.7034   22.3960 C   0  0  2  0  0  0  0  0  0  0  0  0
   11.4388   13.6226   22.2290 O   0  0  0  0  0  0  0  0  0  0  0  0
  1  2  1  0
  2  3  1  0
  3  4  2  0
  3  5  1  0
  5  6  2  0
  6  7  1  0
  7  8  1  0
  8  9  1  0
  9 10  1  0
  7 11  2  0
 11 12  1  0
 12 13  2  0
 13 14  1  0
 14 15  1  0
 16 14  1  6
 16 17  1  0
 17 18  1  0
 18 19  1  0
 19 20  1  0
 20 21  1  6
 13  5  1  0
 20 16  1  0
 10  8  1  0
M  END
>  <energy_score>  (3153) 
-25.961538

>  <inchikey>  (3153) 
HTYNCQAFAJRATF-UHFFFAOYSA-N

>  <smiles>  (3153) 
COC(=O)c1cc(C2CC2)ncc1N(N)C1COCC1O

>  <ref_pdb>  (3153) 
A0528a

>  <alias>  (3153) 
HTYNCQAFAJRATF-UHFFFAOYSA-N-P15-P15-P308-601501

>  <HIPPO Pose ID>  (3153) 
501930

>  <name>  (3153) 
HTYNCQAFAJRATF-UHFFFAOYSA-N-P15-P15-P308-601501

>  <HIPPO Compound ID>  (3153) 
292679

>  <ref_mols>  (3153) 
A4331a,A0514a

>  <distance_score>  (3153) 
1.658218

>  <inspiration_score>  (3153) 
None

$$$$
HTYNCQAFAJRATF-UHFFFAOYSA-N-P308-P15-P308-601501
     RDKit          3D

 21 23  0  0  0  0  0  0  0  0999 V2000
    9.5091    8.7322   23.3605 C   0  0  0  0  0  0  0  0  0  0  0  0
    8.5313    9.5370   24.0196 O   0  0  0  0  0  0  0  0  0  0  0  0
    8.7719   10.8649   23.8963 C   0  0  0  0  0  0  0  0  0  0  0  0
    9.7034   11.3713   23.2908 O   0  0  0  0  0  0  0  0  0  0  0  0
    7.7751   11.6526   24.6553 C   0  0  0  0  0  0  0  0  0  0  0  0
    6.9967   11.0634   25.6520 C   0  0  0  0  0  0  0  0  0  0  0  0
    6.1578   11.8742   26.4016 C   0  0  0  0  0  0  0  0  0  0  0  0
    5.1499   11.3199   27.3705 C   0  0  0  0  0  0  0  0  0  0  0  0
    4.9723   11.9799   28.7189 C   0  0  0  0  0  0  0  0  0  0  0  0
    3.9137   12.1443   27.6753 C   0  0  0  0  0  0  0  0  0  0  0  0
    6.2038   13.2227   26.2810 N   0  0  0  0  0  0  0  0  0  0  0  0
    6.9022   13.7607   25.2698 C   0  0  0  0  0  0  0  0  0  0  0  0
    7.6253   13.0148   24.3599 C   0  0  0  0  0  0  0  0  0  0  0  0
    7.8496   13.4918   23.0584 N   0  0  0  0  0  0  0  0  0  0  0  0
    6.6321   13.4048   22.2552 N   0  0  0  0  0  0  0  0  0  0  0  0
    8.6441   14.7179   22.8234 C   0  0  2  0  0  0  0  0  0  0  0  0
    9.2250   14.6679   21.4131 C   0  0  0  0  0  0  0  0  0  0  0  0
   10.3161   15.5864   21.3557 O   0  0  0  0  0  0  0  0  0  0  0  0
   10.7477   15.8142   22.7002 C   0  0  0  0  0  0  0  0  0  0  0  0
    9.9030   14.9565   23.6421 C   0  0  2  0  0  0  0  0  0  0  0  0
   10.6476   13.8009   24.0031 O   0  0  0  0  0  0  0  0  0  0  0  0
  1  2  1  0
  2  3  1  0
  3  4  2  0
  3  5  1  0
  5  6  2  0
  6  7  1  0
  7  8  1  0
  8  9  1  0
  9 10  1  0
  7 11  2  0
 11 12  1  0
 12 13  2  0
 13 14  1  0
 14 15  1  0
 16 14  1  1
 16 17  1  0
 17 18  1  0
 18 19  1  0
 19 20  1  0
 20 21  1  6
 13  5  1  0
 20 16  1  0
 10  8  1  0
M  END
>  <energy_score>  (3154) 
-20.803901

>  <inchikey>  (3154) 
HTYNCQAFAJRATF-UHFFFAOYSA-N

>  <smiles>  (3154) 
COC(=O)c1cc(C2CC2)ncc1N(N)C1COCC1O

>  <ref_pdb>  (3154) 
A0528a

>  <alias>  (3154) 
HTYNCQAFAJRATF-UHFFFAOYSA-N-P308-P15-P308-601501

>  <HIPPO Pose ID>  (3154) 
501931

>  <name>  (3154) 
HTYNCQAFAJRATF-UHFFFAOYSA-N-P308-P15-P308-601501

>  <HIPPO Compound ID>  (3154) 
292679

>  <ref_mols>  (3154) 
A4331a,A0514a

>  <distance_score>  (3154) 
1.814109

>  <inspiration_score>  (3154) 
None

$$$$
ZOOXSAIAWYMXES-UHFFFAOYSA-N-P15-P15-P308-601501
     RDKit          3D

 21 23  0  0  0  0  0  0  0  0999 V2000
    9.3363    8.6780   23.5874 C   0  0  0  0  0  0  0  0  0  0  0  0
    8.4715    9.4307   24.4477 O   0  0  0  0  0  0  0  0  0  0  0  0
    8.4765   10.7415   24.1116 C   0  0  0  0  0  0  0  0  0  0  0  0
    9.0655   11.1958   23.1466 O   0  0  0  0  0  0  0  0  0  0  0  0
    7.6809   11.5712   25.0451 C   0  0  0  0  0  0  0  0  0  0  0  0
    6.5999   11.0244   25.7442 C   0  0  0  0  0  0  0  0  0  0  0  0
    5.8531   11.8657   26.5641 C   0  0  0  0  0  0  0  0  0  0  0  0
    4.7379   11.4272   27.4490 C   0  0  0  0  0  0  0  0  0  0  0  0
    4.9038   10.3914   28.5165 C   0  0  0  0  0  0  0  0  0  0  0  0
    4.8388   11.8360   28.9068 C   0  0  0  0  0  0  0  0  0  0  0  0
    6.1070   13.1878   26.6537 N   0  0  0  0  0  0  0  0  0  0  0  0
    7.1376   13.6890   25.9743 C   0  0  0  0  0  0  0  0  0  0  0  0
    8.0038   12.9292   25.2090 C   0  0  0  0  0  0  0  0  0  0  0  0
    9.1833   13.5164   24.6929 N   0  0  0  0  0  0  0  0  0  0  0  0
    9.8975   14.3895   25.5816 N   0  0  0  0  0  0  0  0  0  0  0  0
    8.8860   14.0945   23.3581 C   0  0  0  0  0  0  0  0  0  0  0  0
   10.1872   14.5169   22.7236 C   0  0  1  0  0  0  0  0  0  0  0  0
   11.1760   13.4573   22.2475 C   0  0  0  0  0  0  0  0  0  0  0  0
   11.5802   14.4769   21.1449 C   0  0  2  0  0  0  0  0  0  0  0  0
   12.7025   15.3917   21.5755 C   0  0  0  0  0  0  0  0  0  0  0  0
   10.1454   15.0513   21.2837 C   0  0  0  0  0  0  0  0  0  0  0  0
  1  2  1  0
  2  3  1  0
  3  4  2  0
  3  5  1  0
  5  6  2  0
  6  7  1  0
  7  8  1  0
  8  9  1  0
  9 10  1  0
  7 11  2  0
 11 12  1  0
 12 13  2  0
 13 14  1  0
 14 15  1  0
 14 16  1  0
 17 16  1  6
 17 18  1  0
 18 19  1  0
 19 20  1  1
 19 21  1  0
 13  5  1  0
 21 17  1  0
 10  8  1  0
M  END
>  <energy_score>  (3155) 
-28.345729

>  <inchikey>  (3155) 
ZOOXSAIAWYMXES-UHFFFAOYSA-N

>  <smiles>  (3155) 
COC(=O)c1cc(C2CC2)ncc1N(N)CC1CC(C)C1

>  <ref_pdb>  (3155) 
A0528a

>  <alias>  (3155) 
ZOOXSAIAWYMXES-UHFFFAOYSA-N-P15-P15-P308-601501

>  <HIPPO Pose ID>  (3155) 
501932

>  <name>  (3155) 
ZOOXSAIAWYMXES-UHFFFAOYSA-N-P15-P15-P308-601501

>  <HIPPO Compound ID>  (3155) 
292680

>  <ref_mols>  (3155) 
A4331a,A0514a

>  <distance_score>  (3155) 
1.797767

>  <inspiration_score>  (3155) 
None

$$$$
ZOOXSAIAWYMXES-UHFFFAOYSA-N-P308-P15-P308-601501
     RDKit          3D

 21 23  0  0  0  0  0  0  0  0999 V2000
    9.2682    8.5041   23.0587 C   0  0  0  0  0  0  0  0  0  0  0  0
    8.4510    9.3651   23.8446 O   0  0  0  0  0  0  0  0  0  0  0  0
    9.1585   10.3359   24.4691 C   0  0  0  0  0  0  0  0  0  0  0  0
   10.3732   10.4490   24.4614 O   0  0  0  0  0  0  0  0  0  0  0  0
    8.2023   11.2819   25.0940 C   0  0  0  0  0  0  0  0  0  0  0  0
    7.0136   10.7856   25.6476 C   0  0  0  0  0  0  0  0  0  0  0  0
    6.1376   11.6654   26.2725 C   0  0  0  0  0  0  0  0  0  0  0  0
    4.9425   11.2035   27.0571 C   0  0  0  0  0  0  0  0  0  0  0  0
    4.7472   11.7388   28.4607 C   0  0  0  0  0  0  0  0  0  0  0  0
    3.8361   12.1964   27.3670 C   0  0  0  0  0  0  0  0  0  0  0  0
    6.3762   12.9950   26.2838 N   0  0  0  0  0  0  0  0  0  0  0  0
    7.5027   13.4525   25.7234 C   0  0  0  0  0  0  0  0  0  0  0  0
    8.4738   12.6532   25.1446 C   0  0  0  0  0  0  0  0  0  0  0  0
    9.6083   13.3052   24.6407 N   0  0  0  0  0  0  0  0  0  0  0  0
   10.8382   12.9538   25.2375 N   0  0  0  0  0  0  0  0  0  0  0  0
    9.5277   13.5379   23.1895 C   0  0  0  0  0  0  0  0  0  0  0  0
    9.5043   15.0398   22.9460 C   0  0  1  0  0  0  0  0  0  0  0  0
   10.8320   15.7695   23.2211 C   0  0  0  0  0  0  0  0  0  0  0  0
   10.9155   16.1709   21.7441 C   0  0  1  0  0  0  0  0  0  0  0  0
   12.0931   15.5929   20.9947 C   0  0  0  0  0  0  0  0  0  0  0  0
    9.5755   15.4671   21.4727 C   0  0  0  0  0  0  0  0  0  0  0  0
  1  2  1  0
  2  3  1  0
  3  4  2  0
  3  5  1  0
  5  6  2  0
  6  7  1  0
  7  8  1  0
  8  9  1  0
  9 10  1  0
  7 11  2  0
 11 12  1  0
 12 13  2  0
 13 14  1  0
 14 15  1  0
 14 16  1  0
 17 16  1  6
 17 18  1  0
 18 19  1  0
 19 20  1  6
 19 21  1  0
 13  5  1  0
 21 17  1  0
 10  8  1  0
M  END
>  <energy_score>  (3156) 
-35.577605

>  <inchikey>  (3156) 
ZOOXSAIAWYMXES-UHFFFAOYSA-N

>  <smiles>  (3156) 
COC(=O)c1cc(C2CC2)ncc1N(N)CC1CC(C)C1

>  <ref_pdb>  (3156) 
A0528a

>  <alias>  (3156) 
ZOOXSAIAWYMXES-UHFFFAOYSA-N-P308-P15-P308-601501

>  <HIPPO Pose ID>  (3156) 
501933

>  <name>  (3156) 
ZOOXSAIAWYMXES-UHFFFAOYSA-N-P308-P15-P308-601501

>  <HIPPO Compound ID>  (3156) 
292680

>  <ref_mols>  (3156) 
A4331a,A0514a

>  <distance_score>  (3156) 
1.459059

>  <inspiration_score>  (3156) 
None

$$$$
YAZRHMQCCRPOBD-UHFFFAOYSA-N-P15-P15-P308-601501
     RDKit          3D

 21 23  0  0  0  0  0  0  0  0999 V2000
    9.1358    8.5400   23.0195 C   0  0  0  0  0  0  0  0  0  0  0  0
    8.3622    9.5247   23.7107 O   0  0  0  0  0  0  0  0  0  0  0  0
    9.0624   10.6677   23.8880 C   0  0  0  0  0  0  0  0  0  0  0  0
   10.2450   10.7952   23.6220 O   0  0  0  0  0  0  0  0  0  0  0  0
    8.2038   11.7566   24.4254 C   0  0  0  0  0  0  0  0  0  0  0  0
    7.0630   11.4673   25.1743 C   0  0  0  0  0  0  0  0  0  0  0  0
    6.3321   12.5149   25.7266 C   0  0  0  0  0  0  0  0  0  0  0  0
    5.1174   12.3016   26.5760 C   0  0  0  0  0  0  0  0  0  0  0  0
    5.1099   11.4221   27.7948 C   0  0  0  0  0  0  0  0  0  0  0  0
    5.1223   12.9114   27.9627 C   0  0  0  0  0  0  0  0  0  0  0  0
    6.6785   13.8010   25.5187 N   0  0  0  0  0  0  0  0  0  0  0  0
    7.7674   14.0526   24.7754 C   0  0  0  0  0  0  0  0  0  0  0  0
    8.6042   13.0900   24.2409 C   0  0  0  0  0  0  0  0  0  0  0  0
    9.9030   13.3870   23.8430 N   0  0  0  0  0  0  0  0  0  0  0  0
   10.7796   13.4233   24.9787 N   0  0  0  0  0  0  0  0  0  0  0  0
   10.2885   14.3429   22.7956 C   0  0  0  0  0  0  0  0  0  0  0  0
    9.2830   14.6740   21.7138 C   0  0  0  0  0  0  0  0  0  0  0  0
    9.8720   15.7245   20.7721 C   0  0  0  0  0  0  0  0  0  0  0  0
   11.2473   15.9651   21.0417 O   0  0  0  0  0  0  0  0  0  0  0  0
   12.0178   14.7786   21.0246 C   0  0  0  0  0  0  0  0  0  0  0  0
   11.6390   13.9272   22.2136 C   0  0  0  0  0  0  0  0  0  0  0  0
  1  2  1  0
  2  3  1  0
  3  4  2  0
  3  5  1  0
  5  6  2  0
  6  7  1  0
  7  8  1  0
  8  9  1  0
  9 10  1  0
  7 11  2  0
 11 12  1  0
 12 13  2  0
 13 14  1  0
 14 15  1  0
 14 16  1  0
 16 17  1  0
 17 18  1  0
 18 19  1  0
 19 20  1  0
 20 21  1  0
 13  5  1  0
 21 16  1  0
 10  8  1  0
M  END
>  <energy_score>  (3157) 
-24.865334

>  <inchikey>  (3157) 
YAZRHMQCCRPOBD-UHFFFAOYSA-N

>  <smiles>  (3157) 
COC(=O)c1cc(C2CC2)ncc1N(N)C1CCOCC1

>  <ref_pdb>  (3157) 
A0528a

>  <alias>  (3157) 
YAZRHMQCCRPOBD-UHFFFAOYSA-N-P15-P15-P308-601501

>  <HIPPO Pose ID>  (3157) 
501934

>  <name>  (3157) 
YAZRHMQCCRPOBD-UHFFFAOYSA-N-P15-P15-P308-601501

>  <HIPPO Compound ID>  (3157) 
292681

>  <ref_mols>  (3157) 
A4331a,A0514a

>  <distance_score>  (3157) 
1.714861

>  <inspiration_score>  (3157) 
None

$$$$
YAZRHMQCCRPOBD-UHFFFAOYSA-N-P308-P15-P308-601501
     RDKit          3D

 21 23  0  0  0  0  0  0  0  0999 V2000
    9.2352    8.7995   23.2947 C   0  0  0  0  0  0  0  0  0  0  0  0
    8.4026    9.8507   23.7877 O   0  0  0  0  0  0  0  0  0  0  0  0
    9.0903   10.8578   24.3777 C   0  0  0  0  0  0  0  0  0  0  0  0
   10.2929   10.8765   24.5790 O   0  0  0  0  0  0  0  0  0  0  0  0
    8.1291   11.9296   24.7533 C   0  0  0  0  0  0  0  0  0  0  0  0
    6.9539   11.5186   25.4047 C   0  0  0  0  0  0  0  0  0  0  0  0
    6.0294   12.4675   25.8114 C   0  0  0  0  0  0  0  0  0  0  0  0
    4.7712   12.1748   26.5651 C   0  0  0  0  0  0  0  0  0  0  0  0
    4.6162   11.1601   27.6568 C   0  0  0  0  0  0  0  0  0  0  0  0
    4.7710   12.6046   28.0204 C   0  0  0  0  0  0  0  0  0  0  0  0
    6.2181   13.7677   25.5459 N   0  0  0  0  0  0  0  0  0  0  0  0
    7.3291   14.1302   24.8871 C   0  0  0  0  0  0  0  0  0  0  0  0
    8.3715   13.2963   24.5031 C   0  0  0  0  0  0  0  0  0  0  0  0
    9.5965   13.8101   24.0153 N   0  0  0  0  0  0  0  0  0  0  0  0
   10.6903   13.4280   24.8390 N   0  0  0  0  0  0  0  0  0  0  0  0
    9.6616   15.2220   23.4902 C   0  0  0  0  0  0  0  0  0  0  0  0
    9.0807   15.3186   22.0744 C   0  0  0  0  0  0  0  0  0  0  0  0
   10.0760   14.8351   21.0309 C   0  0  0  0  0  0  0  0  0  0  0  0
   11.3207   15.5126   21.1473 O   0  0  0  0  0  0  0  0  0  0  0  0
   11.9417   15.2344   22.3936 C   0  0  0  0  0  0  0  0  0  0  0  0
   11.0861   15.7984   23.5045 C   0  0  0  0  0  0  0  0  0  0  0  0
  1  2  1  0
  2  3  1  0
  3  4  2  0
  3  5  1  0
  5  6  2  0
  6  7  1  0
  7  8  1  0
  8  9  1  0
  9 10  1  0
  7 11  2  0
 11 12  1  0
 12 13  2  0
 13 14  1  0
 14 15  1  0
 14 16  1  0
 16 17  1  0
 17 18  1  0
 18 19  1  0
 19 20  1  0
 20 21  1  0
 13  5  1  0
 21 16  1  0
 10  8  1  0
M  END
>  <energy_score>  (3158) 
-42.411235

>  <inchikey>  (3158) 
YAZRHMQCCRPOBD-UHFFFAOYSA-N

>  <smiles>  (3158) 
COC(=O)c1cc(C2CC2)ncc1N(N)C1CCOCC1

>  <ref_pdb>  (3158) 
A0528a

>  <alias>  (3158) 
YAZRHMQCCRPOBD-UHFFFAOYSA-N-P308-P15-P308-601501

>  <HIPPO Pose ID>  (3158) 
501935

>  <name>  (3158) 
YAZRHMQCCRPOBD-UHFFFAOYSA-N-P308-P15-P308-601501

>  <HIPPO Compound ID>  (3158) 
292681

>  <ref_mols>  (3158) 
A4331a,A0514a

>  <distance_score>  (3158) 
1.58727

>  <inspiration_score>  (3158) 
None

$$$$
NOTWZSGTSAWGLN-UHFFFAOYSA-N-P15-P15-P308-601501
     RDKit          3D

 21 23  0  0  0  0  0  0  0  0999 V2000
    9.2379    8.8419   23.1468 C   0  0  0  0  0  0  0  0  0  0  0  0
    8.4340    9.7890   23.8619 O   0  0  0  0  0  0  0  0  0  0  0  0
    9.0083   11.0125   23.9595 C   0  0  0  0  0  0  0  0  0  0  0  0
   10.1364   11.2788   23.5831 O   0  0  0  0  0  0  0  0  0  0  0  0
    8.0771   11.9984   24.5721 C   0  0  0  0  0  0  0  0  0  0  0  0
    6.9554   11.5663   25.2845 C   0  0  0  0  0  0  0  0  0  0  0  0
    6.1290   12.5062   25.8957 C   0  0  0  0  0  0  0  0  0  0  0  0
    4.9698   12.1437   26.7675 C   0  0  0  0  0  0  0  0  0  0  0  0
    5.0557   11.1474   27.8879 C   0  0  0  0  0  0  0  0  0  0  0  0
    5.0327   12.6111   28.2077 C   0  0  0  0  0  0  0  0  0  0  0  0
    6.3381   13.8276   25.7559 N   0  0  0  0  0  0  0  0  0  0  0  0
    7.4191   14.2212   25.0745 C   0  0  0  0  0  0  0  0  0  0  0  0
    8.3570   13.3707   24.5125 C   0  0  0  0  0  0  0  0  0  0  0  0
    9.6285   13.9101   24.2467 N   0  0  0  0  0  0  0  0  0  0  0  0
   10.5785   13.5225   25.2388 N   0  0  0  0  0  0  0  0  0  0  0  0
   10.2226   14.2949   23.0212 C   0  0  0  0  0  0  0  0  0  0  0  0
    9.5024   14.6366   21.8933 C   0  0  0  0  0  0  0  0  0  0  0  0
   10.2134   15.0546   20.7779 C   0  0  0  0  0  0  0  0  0  0  0  0
   11.5914   15.0446   20.8289 C   0  0  0  0  0  0  0  0  0  0  0  0
   12.2757   14.7694   21.9485 N   0  0  0  0  0  0  0  0  0  0  0  0
   11.5828   14.4174   23.0449 N   0  0  0  0  0  0  0  0  0  0  0  0
  1  2  1  0
  2  3  1  0
  3  4  2  0
  3  5  1  0
  5  6  2  0
  6  7  1  0
  7  8  1  0
  8  9  1  0
  9 10  1  0
  7 11  2  0
 11 12  1  0
 12 13  2  0
 13 14  1  0
 14 15  1  0
 14 16  1  0
 16 17  2  0
 17 18  1  0
 18 19  2  0
 19 20  1  0
 20 21  2  0
 13  5  1  0
 21 16  1  0
 10  8  1  0
M  END
>  <energy_score>  (3159) 
-49.17876

>  <inchikey>  (3159) 
NOTWZSGTSAWGLN-UHFFFAOYSA-N

>  <smiles>  (3159) 
COC(=O)c1cc(C2CC2)ncc1N(N)c1cccnn1

>  <ref_pdb>  (3159) 
A0528a

>  <alias>  (3159) 
NOTWZSGTSAWGLN-UHFFFAOYSA-N-P15-P15-P308-601501

>  <HIPPO Pose ID>  (3159) 
501936

>  <name>  (3159) 
NOTWZSGTSAWGLN-UHFFFAOYSA-N-P15-P15-P308-601501

>  <HIPPO Compound ID>  (3159) 
292682

>  <ref_mols>  (3159) 
A4331a,A0514a

>  <distance_score>  (3159) 
1.632912

>  <inspiration_score>  (3159) 
None

$$$$
HAJQORSFGXGTLO-UHFFFAOYSA-N-P15-P15-P308-601501
     RDKit          3D

 21 22  0  0  0  0  0  0  0  0999 V2000
   12.6564   15.5090   21.5289 C   0  0  0  0  0  0  0  0  0  0  0  0
   11.8089   14.6222   20.6516 C   0  0  0  0  0  0  0  0  0  0  0  0
   10.5573   14.3482   21.2933 O   0  0  0  0  0  0  0  0  0  0  0  0
   10.6529   13.5613   22.3995 C   0  0  0  0  0  0  0  0  0  0  0  0
   11.6847   13.0462   22.8217 O   0  0  0  0  0  0  0  0  0  0  0  0
    9.3021   13.5033   23.0985 C   0  0  0  0  0  0  0  0  0  0  0  0
    9.4559   12.8887   24.4414 N   0  0  0  0  0  0  0  0  0  0  0  0
   10.4086   13.4981   25.3163 N   0  0  0  0  0  0  0  0  0  0  0  0
    8.2174   12.5716   25.0299 C   0  0  0  0  0  0  0  0  0  0  0  0
    7.5042   13.5426   25.7200 C   0  0  0  0  0  0  0  0  0  0  0  0
    6.4064   13.3156   26.4588 N   0  0  0  0  0  0  0  0  0  0  0  0
    5.9239   12.0590   26.5369 C   0  0  0  0  0  0  0  0  0  0  0  0
    4.7650   11.8123   27.4560 C   0  0  0  0  0  0  0  0  0  0  0  0
    3.5334   12.6752   27.3414 C   0  0  0  0  0  0  0  0  0  0  0  0
    4.4438   12.8412   28.5199 C   0  0  0  0  0  0  0  0  0  0  0  0
    6.5146   11.0351   25.8245 C   0  0  0  0  0  0  0  0  0  0  0  0
    7.6660   11.2857   25.0620 C   0  0  0  0  0  0  0  0  0  0  0  0
    8.2217   10.0746   24.4292 C   0  0  0  0  0  0  0  0  0  0  0  0
    7.8109    8.9721   24.7628 O   0  0  0  0  0  0  0  0  0  0  0  0
    9.1336   10.3137   23.4681 O   0  0  0  0  0  0  0  0  0  0  0  0
    9.6730    9.1089   22.9202 C   0  0  0  0  0  0  0  0  0  0  0  0
  1  2  1  0
  2  3  1  0
  3  4  1  0
  4  5  2  0
  4  6  1  0
  6  7  1  0
  7  8  1  0
  7  9  1  0
  9 10  2  0
 10 11  1  0
 11 12  2  0
 12 13  1  0
 13 14  1  0
 14 15  1  0
 12 16  1  0
 16 17  2  0
 17 18  1  0
 18 19  2  0
 18 20  1  0
 20 21  1  0
 17  9  1  0
 15 13  1  0
M  END
>  <energy_score>  (3160) 
-25.987622

>  <inchikey>  (3160) 
HAJQORSFGXGTLO-UHFFFAOYSA-N

>  <smiles>  (3160) 
CCOC(=O)CN(N)c1cnc(C2CC2)cc1C(=O)OC

>  <ref_pdb>  (3160) 
A0528a

>  <alias>  (3160) 
HAJQORSFGXGTLO-UHFFFAOYSA-N-P15-P15-P308-601501

>  <HIPPO Pose ID>  (3160) 
501938

>  <name>  (3160) 
HAJQORSFGXGTLO-UHFFFAOYSA-N-P15-P15-P308-601501

>  <HIPPO Compound ID>  (3160) 
292683

>  <ref_mols>  (3160) 
A4331a,A0514a

>  <distance_score>  (3160) 
1.515166

>  <inspiration_score>  (3160) 
None

$$$$
HAJQORSFGXGTLO-UHFFFAOYSA-N-P308-P15-P308-601501
     RDKit          3D

 21 22  0  0  0  0  0  0  0  0999 V2000
   12.1733   16.2360   21.4813 C   0  0  0  0  0  0  0  0  0  0  0  0
   11.5390   15.0968   20.7101 C   0  0  0  0  0  0  0  0  0  0  0  0
   10.4032   14.6017   21.4298 O   0  0  0  0  0  0  0  0  0  0  0  0
   10.6922   13.8761   22.5500 C   0  0  0  0  0  0  0  0  0  0  0  0
   11.8173   13.5980   22.9541 O   0  0  0  0  0  0  0  0  0  0  0  0
    9.3885   13.5646   23.2651 C   0  0  0  0  0  0  0  0  0  0  0  0
    9.5652   12.6708   24.4480 N   0  0  0  0  0  0  0  0  0  0  0  0
   10.5716   13.0096   25.4086 N   0  0  0  0  0  0  0  0  0  0  0  0
    8.3143   12.3670   25.0321 C   0  0  0  0  0  0  0  0  0  0  0  0
    7.5812   13.3610   25.6692 C   0  0  0  0  0  0  0  0  0  0  0  0
    6.4329   13.1676   26.3353 N   0  0  0  0  0  0  0  0  0  0  0  0
    5.9311   11.9173   26.4129 C   0  0  0  0  0  0  0  0  0  0  0  0
    4.7255   11.7089   27.2817 C   0  0  0  0  0  0  0  0  0  0  0  0
    3.5549   12.6536   27.1714 C   0  0  0  0  0  0  0  0  0  0  0  0
    4.4401   12.7145   28.3790 C   0  0  0  0  0  0  0  0  0  0  0  0
    6.5540   10.8671   25.7645 C   0  0  0  0  0  0  0  0  0  0  0  0
    7.7523   11.0872   25.0707 C   0  0  0  0  0  0  0  0  0  0  0  0
    8.3203    9.8735   24.4553 C   0  0  0  0  0  0  0  0  0  0  0  0
    7.9540    8.7593   24.8014 O   0  0  0  0  0  0  0  0  0  0  0  0
    9.1737   10.1460   23.4503 O   0  0  0  0  0  0  0  0  0  0  0  0
    9.6917    8.9696   22.8384 C   0  0  0  0  0  0  0  0  0  0  0  0
  1  2  1  0
  2  3  1  0
  3  4  1  0
  4  5  2  0
  4  6  1  0
  6  7  1  0
  7  8  1  0
  7  9  1  0
  9 10  2  0
 10 11  1  0
 11 12  2  0
 12 13  1  0
 13 14  1  0
 14 15  1  0
 12 16  1  0
 16 17  2  0
 17 18  1  0
 18 19  2  0
 18 20  1  0
 20 21  1  0
 17  9  1  0
 15 13  1  0
M  END
>  <energy_score>  (3161) 
-28.523667

>  <inchikey>  (3161) 
HAJQORSFGXGTLO-UHFFFAOYSA-N

>  <smiles>  (3161) 
CCOC(=O)CN(N)c1cnc(C2CC2)cc1C(=O)OC

>  <ref_pdb>  (3161) 
A0528a

>  <alias>  (3161) 
HAJQORSFGXGTLO-UHFFFAOYSA-N-P308-P15-P308-601501

>  <HIPPO Pose ID>  (3161) 
501939

>  <name>  (3161) 
HAJQORSFGXGTLO-UHFFFAOYSA-N-P308-P15-P308-601501

>  <HIPPO Compound ID>  (3161) 
292683

>  <ref_mols>  (3161) 
A4331a,A0514a

>  <distance_score>  (3161) 
1.418024

>  <inspiration_score>  (3161) 
None

$$$$
GDCOTBQWPQJSED-UHFFFAOYSA-N-P15-P15-P308-601501
     RDKit          3D

 21 23  0  0  0  0  0  0  0  0999 V2000
    9.7552    8.4367   23.3340 C   0  0  0  0  0  0  0  0  0  0  0  0
    8.7844    9.1474   24.0956 O   0  0  0  0  0  0  0  0  0  0  0  0
    8.8859   10.4762   23.8612 C   0  0  0  0  0  0  0  0  0  0  0  0
    9.6403   10.9798   23.0463 O   0  0  0  0  0  0  0  0  0  0  0  0
    8.0108   11.2433   24.7753 C   0  0  0  0  0  0  0  0  0  0  0  0
    6.9676   10.6282   25.4792 C   0  0  0  0  0  0  0  0  0  0  0  0
    6.2067   11.3932   26.3570 C   0  0  0  0  0  0  0  0  0  0  0  0
    5.1972   10.8023   27.3004 C   0  0  0  0  0  0  0  0  0  0  0  0
    4.0227   11.6378   27.7690 C   0  0  0  0  0  0  0  0  0  0  0  0
    5.1523   11.3633   28.7103 C   0  0  0  0  0  0  0  0  0  0  0  0
    6.4094   12.7234   26.4773 N   0  0  0  0  0  0  0  0  0  0  0  0
    7.3898   13.2977   25.7703 C   0  0  0  0  0  0  0  0  0  0  0  0
    8.2734   12.6041   24.9609 C   0  0  0  0  0  0  0  0  0  0  0  0
    9.3927   13.2485   24.3689 N   0  0  0  0  0  0  0  0  0  0  0  0
   10.1470   14.0384   25.2879 N   0  0  0  0  0  0  0  0  0  0  0  0
    9.1233   13.9266   23.2067 C   0  0  0  0  0  0  0  0  0  0  0  0
    7.9418   14.2525   22.7258 N   0  0  0  0  0  0  0  0  0  0  0  0
    8.2494   15.0255   21.6502 C   0  0  0  0  0  0  0  0  0  0  0  0
    9.5368   15.0847   21.3352 N   0  0  0  0  0  0  0  0  0  0  0  0
   10.0815   14.3558   22.3208 N   0  0  0  0  0  0  0  0  0  0  0  0
   11.5045   14.2005   22.3737 C   0  0  0  0  0  0  0  0  0  0  0  0
  1  2  1  0
  2  3  1  0
  3  4  2  0
  3  5  1  0
  5  6  2  0
  6  7  1  0
  7  8  1  0
  8  9  1  0
  9 10  1  0
  7 11  2  0
 11 12  1  0
 12 13  2  0
 13 14  1  0
 14 15  1  0
 14 16  1  0
 16 17  2  0
 17 18  1  0
 18 19  2  0
 19 20  1  0
 20 21  1  0
 13  5  1  0
 20 16  1  0
 10  8  1  0
M  END
>  <energy_score>  (3162) 
-26.580731

>  <inchikey>  (3162) 
GDCOTBQWPQJSED-UHFFFAOYSA-N

>  <smiles>  (3162) 
COC(=O)c1cc(C2CC2)ncc1N(N)c1ncnn1C

>  <ref_pdb>  (3162) 
A0528a

>  <alias>  (3162) 
GDCOTBQWPQJSED-UHFFFAOYSA-N-P15-P15-P308-601501

>  <HIPPO Pose ID>  (3162) 
501942

>  <name>  (3162) 
GDCOTBQWPQJSED-UHFFFAOYSA-N-P15-P15-P308-601501

>  <HIPPO Compound ID>  (3162) 
292685

>  <ref_mols>  (3162) 
A4331a,A0514a

>  <distance_score>  (3162) 
1.881148

>  <inspiration_score>  (3162) 
None

$$$$
GDCOTBQWPQJSED-UHFFFAOYSA-N-P308-P15-P308-601501
     RDKit          3D

 21 23  0  0  0  0  0  0  0  0999 V2000
    9.4911    8.6224   23.1075 C   0  0  0  0  0  0  0  0  0  0  0  0
    8.6122    9.4736   23.8321 O   0  0  0  0  0  0  0  0  0  0  0  0
    9.2375   10.4711   24.4987 C   0  0  0  0  0  0  0  0  0  0  0  0
   10.4405   10.6252   24.6344 O   0  0  0  0  0  0  0  0  0  0  0  0
    8.1906   11.3643   25.0299 C   0  0  0  0  0  0  0  0  0  0  0  0
    7.0477   10.8134   25.6282 C   0  0  0  0  0  0  0  0  0  0  0  0
    6.1235   11.6636   26.2237 C   0  0  0  0  0  0  0  0  0  0  0  0
    5.0125   11.1726   27.1119 C   0  0  0  0  0  0  0  0  0  0  0  0
    3.8156   12.0559   27.3988 C   0  0  0  0  0  0  0  0  0  0  0  0
    4.8535   11.8642   28.4565 C   0  0  0  0  0  0  0  0  0  0  0  0
    6.2639   13.0037   26.1401 N   0  0  0  0  0  0  0  0  0  0  0  0
    7.3396   13.5068   25.5187 C   0  0  0  0  0  0  0  0  0  0  0  0
    8.3681   12.7442   24.9871 C   0  0  0  0  0  0  0  0  0  0  0  0
    9.5179   13.3690   24.4426 N   0  0  0  0  0  0  0  0  0  0  0  0
   10.2060   14.1385   25.4209 N   0  0  0  0  0  0  0  0  0  0  0  0
    9.3481   14.0025   23.2281 C   0  0  0  0  0  0  0  0  0  0  0  0
    8.2955   13.9224   22.4301 N   0  0  0  0  0  0  0  0  0  0  0  0
    8.5895   14.7906   21.4208 C   0  0  0  0  0  0  0  0  0  0  0  0
    9.7721   15.3840   21.5014 N   0  0  0  0  0  0  0  0  0  0  0  0
   10.2720   14.8193   22.6120 N   0  0  0  0  0  0  0  0  0  0  0  0
   11.6160   15.1416   22.9946 C   0  0  0  0  0  0  0  0  0  0  0  0
  1  2  1  0
  2  3  1  0
  3  4  2  0
  3  5  1  0
  5  6  2  0
  6  7  1  0
  7  8  1  0
  8  9  1  0
  9 10  1  0
  7 11  2  0
 11 12  1  0
 12 13  2  0
 13 14  1  0
 14 15  1  0
 14 16  1  0
 16 17  2  0
 17 18  1  0
 18 19  2  0
 19 20  1  0
 20 21  1  0
 13  5  1  0
 20 16  1  0
 10  8  1  0
M  END
>  <energy_score>  (3163) 
-25.618146

>  <inchikey>  (3163) 
GDCOTBQWPQJSED-UHFFFAOYSA-N

>  <smiles>  (3163) 
COC(=O)c1cc(C2CC2)ncc1N(N)c1ncnn1C

>  <ref_pdb>  (3163) 
A0528a

>  <alias>  (3163) 
GDCOTBQWPQJSED-UHFFFAOYSA-N-P308-P15-P308-601501

>  <HIPPO Pose ID>  (3163) 
501943

>  <name>  (3163) 
GDCOTBQWPQJSED-UHFFFAOYSA-N-P308-P15-P308-601501

>  <HIPPO Compound ID>  (3163) 
292685

>  <ref_mols>  (3163) 
A4331a,A0514a

>  <distance_score>  (3163) 
1.6889

>  <inspiration_score>  (3163) 
None

$$$$
YNZIKHTYFZQIOA-UHFFFAOYSA-N-P308-P15-P308-601501
     RDKit          3D

 21 23  0  0  0  0  0  0  0  0999 V2000
    9.6815    8.7934   23.2038 C   0  0  0  0  0  0  0  0  0  0  0  0
    8.8093    9.8137   23.6765 O   0  0  0  0  0  0  0  0  0  0  0  0
    9.3989   10.8207   24.3642 C   0  0  0  0  0  0  0  0  0  0  0  0
   10.5700   10.9202   24.6880 O   0  0  0  0  0  0  0  0  0  0  0  0
    8.3082   11.7452   24.7213 C   0  0  0  0  0  0  0  0  0  0  0  0
    7.2191   11.2152   25.4207 C   0  0  0  0  0  0  0  0  0  0  0  0
    6.2337   12.0659   25.9016 C   0  0  0  0  0  0  0  0  0  0  0  0
    5.1923   11.5880   26.8792 C   0  0  0  0  0  0  0  0  0  0  0  0
    3.9718   12.4259   27.1832 C   0  0  0  0  0  0  0  0  0  0  0  0
    5.0781   12.3490   28.1878 C   0  0  0  0  0  0  0  0  0  0  0  0
    6.2497   13.3776   25.5994 N   0  0  0  0  0  0  0  0  0  0  0  0
    7.2868   13.8522   24.8928 C   0  0  0  0  0  0  0  0  0  0  0  0
    8.3939   13.1142   24.4930 C   0  0  0  0  0  0  0  0  0  0  0  0
    9.6164   13.7540   24.1952 N   0  0  0  0  0  0  0  0  0  0  0  0
   10.0829   14.4819   25.3829 C   0  0  0  0  0  0  0  0  0  0  0  0
    9.8852   14.2154   22.8703 N   0  0  0  0  0  0  0  0  0  0  0  0
    9.1491   15.4472   22.5061 C   0  0  0  0  0  0  0  0  0  0  0  0
    9.6129   16.0141   21.1547 C   0  0  0  0  0  0  0  0  0  0  0  0
   11.0149   16.2846   21.1700 O   0  0  0  0  0  0  0  0  0  0  0  0
   11.7273   15.0682   21.3823 C   0  0  0  0  0  0  0  0  0  0  0  0
   11.3436   14.4650   22.7316 C   0  0  0  0  0  0  0  0  0  0  0  0
  1  2  1  0
  2  3  1  0
  3  4  2  0
  3  5  1  0
  5  6  2  0
  6  7  1  0
  7  8  1  0
  8  9  1  0
  9 10  1  0
  7 11  2  0
 11 12  1  0
 12 13  2  0
 13 14  1  0
 14 15  1  0
 14 16  1  0
 16 17  1  0
 17 18  1  0
 18 19  1  0
 19 20  1  0
 20 21  1  0
 13  5  1  0
 21 16  1  0
 10  8  1  0
M  END
>  <energy_score>  (3164) 
-36.20467

>  <inchikey>  (3164) 
YNZIKHTYFZQIOA-UHFFFAOYSA-N

>  <smiles>  (3164) 
COC(=O)c1cc(C2CC2)ncc1N(C)N1CCOCC1

>  <ref_pdb>  (3164) 
A0528a

>  <alias>  (3164) 
YNZIKHTYFZQIOA-UHFFFAOYSA-N-P308-P15-P308-601501

>  <HIPPO Pose ID>  (3164) 
501947

>  <name>  (3164) 
YNZIKHTYFZQIOA-UHFFFAOYSA-N-P308-P15-P308-601501

>  <HIPPO Compound ID>  (3164) 
292687

>  <ref_mols>  (3164) 
A4331a,A0514a

>  <distance_score>  (3164) 
1.971111

>  <inspiration_score>  (3164) 
None

$$$$
KQAFYFLLOUMQMZ-UHFFFAOYSA-N-P15-P15-P308-601501
     RDKit          3D

 21 23  0  0  0  0  0  0  0  0999 V2000
    9.3443    8.7884   22.9547 C   0  0  0  0  0  0  0  0  0  0  0  0
    8.4754    9.7406   23.5742 O   0  0  0  0  0  0  0  0  0  0  0  0
    9.0646   10.9418   23.7974 C   0  0  0  0  0  0  0  0  0  0  0  0
   10.2103   11.2147   23.4993 O   0  0  0  0  0  0  0  0  0  0  0  0
    8.1412   11.8283   24.5484 C   0  0  0  0  0  0  0  0  0  0  0  0
    7.3298   11.1876   25.5046 C   0  0  0  0  0  0  0  0  0  0  0  0
    6.5715   11.9210   26.4101 C   0  0  0  0  0  0  0  0  0  0  0  0
    5.6376   11.2662   27.3924 C   0  0  0  0  0  0  0  0  0  0  0  0
    4.2989   11.9088   27.6819 C   0  0  0  0  0  0  0  0  0  0  0  0
    5.3818   11.9580   28.7153 C   0  0  0  0  0  0  0  0  0  0  0  0
    6.6825   13.2560   26.4668 N   0  0  0  0  0  0  0  0  0  0  0  0
    7.3923   13.8482   25.5018 C   0  0  0  0  0  0  0  0  0  0  0  0
    8.0849   13.2193   24.4584 C   0  0  0  0  0  0  0  0  0  0  0  0
    8.4697   14.0916   23.3956 N   0  0  0  0  0  0  0  0  0  0  0  0
    7.2202   14.5257   22.7350 C   0  0  0  0  0  0  0  0  0  0  0  0
    9.6241   13.8539   22.5788 N   0  0  0  0  0  0  0  0  0  0  0  0
    9.6643   14.8229   21.4457 C   0  0  0  0  0  0  0  0  0  0  0  0
   10.9702   14.9399   20.6705 C   0  0  0  0  0  0  0  0  0  0  0  0
   12.1734   15.0513   21.5787 C   0  0  0  0  0  0  0  0  0  0  0  0
   12.1194   13.9621   22.6310 C   0  0  0  0  0  0  0  0  0  0  0  0
   10.8250   14.0052   23.4173 C   0  0  0  0  0  0  0  0  0  0  0  0
  1  2  1  0
  2  3  1  0
  3  4  2  0
  3  5  1  0
  5  6  2  0
  6  7  1  0
  7  8  1  0
  8  9  1  0
  9 10  1  0
  7 11  2  0
 11 12  1  0
 12 13  2  0
 13 14  1  0
 14 15  1  0
 14 16  1  0
 16 17  1  0
 17 18  1  0
 18 19  1  0
 19 20  1  0
 20 21  1  0
 13  5  1  0
 21 16  1  0
 10  8  1  0
M  END
>  <energy_score>  (3165) 
-43.189611

>  <inchikey>  (3165) 
KQAFYFLLOUMQMZ-UHFFFAOYSA-N

>  <smiles>  (3165) 
COC(=O)c1cc(C2CC2)ncc1N(C)N1CCCCC1

>  <ref_pdb>  (3165) 
A0528a

>  <alias>  (3165) 
KQAFYFLLOUMQMZ-UHFFFAOYSA-N-P15-P15-P308-601501

>  <HIPPO Pose ID>  (3165) 
501948

>  <name>  (3165) 
KQAFYFLLOUMQMZ-UHFFFAOYSA-N-P15-P15-P308-601501

>  <HIPPO Compound ID>  (3165) 
292688

>  <ref_mols>  (3165) 
A4331a,A0514a

>  <distance_score>  (3165) 
1.60292

>  <inspiration_score>  (3165) 
None

$$$$
INCJOAKAPGBJCZ-UHFFFAOYSA-N-P308-P15-P308-601501
     RDKit          3D

 21 23  0  0  0  0  0  0  0  0999 V2000
    9.1122    8.6391   24.0364 C   0  0  0  0  0  0  0  0  0  0  0  0
    8.3798    9.7276   24.5957 O   0  0  0  0  0  0  0  0  0  0  0  0
    8.6345   10.8920   23.9563 C   0  0  0  0  0  0  0  0  0  0  0  0
    9.3769   11.0241   22.9996 O   0  0  0  0  0  0  0  0  0  0  0  0
    7.9091   12.0071   24.5990 C   0  0  0  0  0  0  0  0  0  0  0  0
    6.7051   11.7567   25.2563 C   0  0  0  0  0  0  0  0  0  0  0  0
    5.9919   12.8175   25.7940 C   0  0  0  0  0  0  0  0  0  0  0  0
    4.6750   12.6262   26.4787 C   0  0  0  0  0  0  0  0  0  0  0  0
    4.5169   11.7960   27.7223 C   0  0  0  0  0  0  0  0  0  0  0  0
    4.4889   13.2898   27.8271 C   0  0  0  0  0  0  0  0  0  0  0  0
    6.4400   14.0846   25.6935 N   0  0  0  0  0  0  0  0  0  0  0  0
    7.5994   14.2987   25.0506 C   0  0  0  0  0  0  0  0  0  0  0  0
    8.4010   13.3136   24.5040 C   0  0  0  0  0  0  0  0  0  0  0  0
    9.7082   13.6448   24.0886 N   0  0  0  0  0  0  0  0  0  0  0  0
   10.7327   12.9397   24.7473 N   0  0  0  0  0  0  0  0  0  0  0  0
   10.1187   14.5158   23.0433 C   0  0  0  0  0  0  0  0  0  0  0  0
   11.4381   14.9745   22.9707 C   0  0  0  0  0  0  0  0  0  0  0  0
   11.8357   15.7368   21.8927 C   0  0  0  0  0  0  0  0  0  0  0  0
   10.9927   16.0813   20.9064 N   0  0  0  0  0  0  0  0  0  0  0  0
    9.7007   15.6698   20.9641 N   0  0  0  0  0  0  0  0  0  0  0  0
    9.2854   14.9161   22.0085 C   0  0  0  0  0  0  0  0  0  0  0  0
  1  2  1  0
  2  3  1  0
  3  4  2  0
  3  5  1  0
  5  6  2  0
  6  7  1  0
  7  8  1  0
  8  9  1  0
  9 10  1  0
  7 11  2  0
 11 12  1  0
 12 13  2  0
 13 14  1  0
 14 15  1  0
 14 16  1  0
 16 17  2  0
 17 18  1  0
 18 19  2  0
 19 20  1  0
 20 21  2  0
 13  5  1  0
 21 16  1  0
 10  8  1  0
M  END
>  <energy_score>  (3166) 
-51.111967

>  <inchikey>  (3166) 
INCJOAKAPGBJCZ-UHFFFAOYSA-N

>  <smiles>  (3166) 
COC(=O)c1cc(C2CC2)ncc1N(N)c1ccnnc1

>  <ref_pdb>  (3166) 
A0528a

>  <alias>  (3166) 
INCJOAKAPGBJCZ-UHFFFAOYSA-N-P308-P15-P308-601501

>  <HIPPO Pose ID>  (3166) 
501953

>  <name>  (3166) 
INCJOAKAPGBJCZ-UHFFFAOYSA-N-P308-P15-P308-601501

>  <HIPPO Compound ID>  (3166) 
292690

>  <ref_mols>  (3166) 
A4331a,A0514a

>  <distance_score>  (3166) 
1.986713

>  <inspiration_score>  (3166) 
None

$$$$
BNBDXEBAHCKXCT-UHFFFAOYSA-N-P15-P15-P308-601501
     RDKit          3D

 21 22  0  0  0  0  0  0  0  0999 V2000
    9.3137    8.5266   23.3261 C   0  0  0  0  0  0  0  0  0  0  0  0
    8.5920    9.3765   24.2239 O   0  0  0  0  0  0  0  0  0  0  0  0
    8.7174   10.6868   23.9148 C   0  0  0  0  0  0  0  0  0  0  0  0
    9.3433   11.1213   22.9642 O   0  0  0  0  0  0  0  0  0  0  0  0
    7.9948   11.5494   24.8757 C   0  0  0  0  0  0  0  0  0  0  0  0
    6.8679   11.0824   25.5609 C   0  0  0  0  0  0  0  0  0  0  0  0
    6.1917   11.9659   26.3967 C   0  0  0  0  0  0  0  0  0  0  0  0
    4.9395   11.6403   27.1352 C   0  0  0  0  0  0  0  0  0  0  0  0
    4.8695   10.5866   28.1973 C   0  0  0  0  0  0  0  0  0  0  0  0
    4.8784   12.0307   28.5979 C   0  0  0  0  0  0  0  0  0  0  0  0
    6.6122   13.2351   26.5814 N   0  0  0  0  0  0  0  0  0  0  0  0
    7.6827   13.6651   25.9097 C   0  0  0  0  0  0  0  0  0  0  0  0
    8.4284   12.8726   25.0543 C   0  0  0  0  0  0  0  0  0  0  0  0
    9.5545   13.4103   24.3765 N   0  0  0  0  0  0  0  0  0  0  0  0
   10.4736   14.1287   25.1937 N   0  0  0  0  0  0  0  0  0  0  0  0
    9.0352   14.1125   23.1723 C   0  0  0  0  0  0  0  0  0  0  0  0
   10.1644   14.4317   22.2176 C   0  0  0  0  0  0  0  0  0  0  0  0
    9.6131   15.1644   21.0323 C   0  0  0  0  0  0  0  0  0  0  0  0
   10.5409   15.2320   20.0610 F   0  0  0  0  0  0  0  0  0  0  0  0
    8.5238   14.5170   20.5641 F   0  0  0  0  0  0  0  0  0  0  0  0
    9.2270   16.4146   21.3225 F   0  0  0  0  0  0  0  0  0  0  0  0
  1  2  1  0
  2  3  1  0
  3  4  2  0
  3  5  1  0
  5  6  2  0
  6  7  1  0
  7  8  1  0
  8  9  1  0
  9 10  1  0
  7 11  2  0
 11 12  1  0
 12 13  2  0
 13 14  1  0
 14 15  1  0
 14 16  1  0
 16 17  1  0
 17 18  1  0
 18 19  1  0
 18 20  1  0
 18 21  1  0
 13  5  1  0
 10  8  1  0
M  END
>  <energy_score>  (3167) 
-32.145185

>  <inchikey>  (3167) 
BNBDXEBAHCKXCT-UHFFFAOYSA-N

>  <smiles>  (3167) 
COC(=O)c1cc(C2CC2)ncc1N(N)CCC(F)(F)F

>  <ref_pdb>  (3167) 
A0528a

>  <alias>  (3167) 
BNBDXEBAHCKXCT-UHFFFAOYSA-N-P15-P15-P308-601501

>  <HIPPO Pose ID>  (3167) 
501960

>  <name>  (3167) 
BNBDXEBAHCKXCT-UHFFFAOYSA-N-P15-P15-P308-601501

>  <HIPPO Compound ID>  (3167) 
292694

>  <ref_mols>  (3167) 
A4331a,A0514a

>  <distance_score>  (3167) 
1.553245

>  <inspiration_score>  (3167) 
None

$$$$
BNBDXEBAHCKXCT-UHFFFAOYSA-N-P308-P15-P308-601501
     RDKit          3D

 21 22  0  0  0  0  0  0  0  0999 V2000
    9.2844    8.6013   23.1160 C   0  0  0  0  0  0  0  0  0  0  0  0
    8.5018    9.5730   23.8033 O   0  0  0  0  0  0  0  0  0  0  0  0
    9.2425   10.4362   24.5375 C   0  0  0  0  0  0  0  0  0  0  0  0
   10.4480   10.3798   24.7187 O   0  0  0  0  0  0  0  0  0  0  0  0
    8.3401   11.4899   25.0582 C   0  0  0  0  0  0  0  0  0  0  0  0
    7.0658   11.1439   25.5397 C   0  0  0  0  0  0  0  0  0  0  0  0
    6.2671   12.1438   26.0786 C   0  0  0  0  0  0  0  0  0  0  0  0
    4.8716   11.9518   26.5766 C   0  0  0  0  0  0  0  0  0  0  0  0
    4.4969   11.1097   27.7619 C   0  0  0  0  0  0  0  0  0  0  0  0
    4.5358   12.5979   27.9107 C   0  0  0  0  0  0  0  0  0  0  0  0
    6.7072   13.4177   26.1591 N   0  0  0  0  0  0  0  0  0  0  0  0
    7.9151   13.7274   25.6731 C   0  0  0  0  0  0  0  0  0  0  0  0
    8.7845   12.8189   25.0987 C   0  0  0  0  0  0  0  0  0  0  0  0
   10.0045   13.2388   24.5373 N   0  0  0  0  0  0  0  0  0  0  0  0
   10.8833   13.9995   25.3404 N   0  0  0  0  0  0  0  0  0  0  0  0
    9.8969   13.5819   23.0984 C   0  0  0  0  0  0  0  0  0  0  0  0
    9.5572   15.0459   22.8664 C   0  0  0  0  0  0  0  0  0  0  0  0
    9.4203   15.2953   21.3909 C   0  0  0  0  0  0  0  0  0  0  0  0
   10.5598   15.0114   20.7315 F   0  0  0  0  0  0  0  0  0  0  0  0
    8.4296   14.5312   20.8778 F   0  0  0  0  0  0  0  0  0  0  0  0
    9.1151   16.5857   21.1511 F   0  0  0  0  0  0  0  0  0  0  0  0
  1  2  1  0
  2  3  1  0
  3  4  2  0
  3  5  1  0
  5  6  2  0
  6  7  1  0
  7  8  1  0
  8  9  1  0
  9 10  1  0
  7 11  2  0
 11 12  1  0
 12 13  2  0
 13 14  1  0
 14 15  1  0
 14 16  1  0
 16 17  1  0
 17 18  1  0
 18 19  1  0
 18 20  1  0
 18 21  1  0
 13  5  1  0
 10  8  1  0
M  END
>  <energy_score>  (3168) 
-29.111889

>  <inchikey>  (3168) 
BNBDXEBAHCKXCT-UHFFFAOYSA-N

>  <smiles>  (3168) 
COC(=O)c1cc(C2CC2)ncc1N(N)CCC(F)(F)F

>  <ref_pdb>  (3168) 
A0528a

>  <alias>  (3168) 
BNBDXEBAHCKXCT-UHFFFAOYSA-N-P308-P15-P308-601501

>  <HIPPO Pose ID>  (3168) 
501961

>  <name>  (3168) 
BNBDXEBAHCKXCT-UHFFFAOYSA-N-P308-P15-P308-601501

>  <HIPPO Compound ID>  (3168) 
292694

>  <ref_mols>  (3168) 
A4331a,A0514a

>  <distance_score>  (3168) 
1.489547

>  <inspiration_score>  (3168) 
None

$$$$
KQEFTEXTEAQHDR-UHFFFAOYSA-N-P308-P15-P308-601501
     RDKit          3D

 21 23  0  0  0  0  0  0  0  0999 V2000
    9.5380    8.6598   23.2426 C   0  0  0  0  0  0  0  0  0  0  0  0
    8.6745    9.6284   23.8265 O   0  0  0  0  0  0  0  0  0  0  0  0
    9.3234   10.6445   24.4403 C   0  0  0  0  0  0  0  0  0  0  0  0
   10.5260   10.7513   24.6216 O   0  0  0  0  0  0  0  0  0  0  0  0
    8.3039   11.6523   24.8000 C   0  0  0  0  0  0  0  0  0  0  0  0
    7.1573   11.2350   25.4693 C   0  0  0  0  0  0  0  0  0  0  0  0
    6.2276   12.1825   25.8724 C   0  0  0  0  0  0  0  0  0  0  0  0
    5.0895   11.8013   26.7772 C   0  0  0  0  0  0  0  0  0  0  0  0
    5.0530   12.3696   28.1777 C   0  0  0  0  0  0  0  0  0  0  0  0
    4.0520   12.8313   27.1651 C   0  0  0  0  0  0  0  0  0  0  0  0
    6.3630   13.4804   25.5261 N   0  0  0  0  0  0  0  0  0  0  0  0
    7.4615   13.8508   24.8471 C   0  0  0  0  0  0  0  0  0  0  0  0
    8.5043   13.0049   24.5186 C   0  0  0  0  0  0  0  0  0  0  0  0
    9.7615   13.5220   24.1720 N   0  0  0  0  0  0  0  0  0  0  0  0
   10.6854   13.4230   25.2632 N   0  0  0  0  0  0  0  0  0  0  0  0
   10.1068   14.4053   23.1138 C   0  0  0  0  0  0  0  0  0  0  0  0
   11.3288   14.9991   23.1944 N   0  0  0  0  0  0  0  0  0  0  0  0
   11.7966   15.7303   22.1656 N   0  0  0  0  0  0  0  0  0  0  0  0
   11.0123   15.8443   21.0873 C   0  0  0  0  0  0  0  0  0  0  0  0
    9.7860   15.3045   20.9882 N   0  0  0  0  0  0  0  0  0  0  0  0
    9.3170   14.5737   22.0343 N   0  0  0  0  0  0  0  0  0  0  0  0
  1  2  1  0
  2  3  1  0
  3  4  2  0
  3  5  1  0
  5  6  2  0
  6  7  1  0
  7  8  1  0
  8  9  1  0
  9 10  1  0
  7 11  2  0
 11 12  1  0
 12 13  2  0
 13 14  1  0
 14 15  1  0
 14 16  1  0
 16 17  2  0
 17 18  1  0
 18 19  2  0
 19 20  1  0
 20 21  2  0
 13  5  1  0
 21 16  1  0
 10  8  1  0
M  END
>  <energy_score>  (3169) 
-51.343942

>  <inchikey>  (3169) 
KQEFTEXTEAQHDR-UHFFFAOYSA-N

>  <smiles>  (3169) 
COC(=O)c1cc(C2CC2)ncc1N(N)c1nncnn1

>  <ref_pdb>  (3169) 
A0528a

>  <alias>  (3169) 
KQEFTEXTEAQHDR-UHFFFAOYSA-N-P308-P15-P308-601501

>  <HIPPO Pose ID>  (3169) 
501963

>  <name>  (3169) 
KQEFTEXTEAQHDR-UHFFFAOYSA-N-P308-P15-P308-601501

>  <HIPPO Compound ID>  (3169) 
292695

>  <ref_mols>  (3169) 
A4331a,A0514a

>  <distance_score>  (3169) 
1.984575

>  <inspiration_score>  (3169) 
None

$$$$
ZPMRHELNXDJOJC-UHFFFAOYSA-N-P15-P15-P308-601501
     RDKit          3D

 21 23  0  0  0  0  0  0  0  0999 V2000
    9.2903    8.5478   22.9205 C   0  0  0  0  0  0  0  0  0  0  0  0
    8.3530    9.3933   23.5845 O   0  0  0  0  0  0  0  0  0  0  0  0
    8.8889   10.5791   23.9421 C   0  0  0  0  0  0  0  0  0  0  0  0
   10.0571   10.8978   23.8238 O   0  0  0  0  0  0  0  0  0  0  0  0
    7.8764   11.4207   24.5962 C   0  0  0  0  0  0  0  0  0  0  0  0
    7.1099   10.7663   25.5812 C   0  0  0  0  0  0  0  0  0  0  0  0
    6.2333   11.4896   26.3699 C   0  0  0  0  0  0  0  0  0  0  0  0
    5.3848   10.8636   27.4367 C   0  0  0  0  0  0  0  0  0  0  0  0
    5.4669   11.4050   28.8447 C   0  0  0  0  0  0  0  0  0  0  0  0
    4.2414   11.6682   28.0277 C   0  0  0  0  0  0  0  0  0  0  0  0
    6.1481   12.8206   26.2334 N   0  0  0  0  0  0  0  0  0  0  0  0
    6.8057   13.4013   25.2121 C   0  0  0  0  0  0  0  0  0  0  0  0
    7.6711   12.7758   24.3108 C   0  0  0  0  0  0  0  0  0  0  0  0
    8.0885   13.5041   23.1964 N   0  0  0  0  0  0  0  0  0  0  0  0
    7.1978   14.5276   22.7405 N   0  0  0  0  0  0  0  0  0  0  0  0
    9.3708   13.4026   22.4920 C   0  0  0  0  0  0  0  0  0  0  0  0
   10.3930   14.3736   23.0319 C   0  0  1  0  0  0  0  0  0  0  0  0
   11.3977   13.7074   23.9575 C   0  0  0  0  0  0  0  0  0  0  0  0
   11.1042   15.2073   21.9893 C   0  0  0  0  0  0  0  0  0  0  0  0
   11.3160   14.8543   20.5471 C   0  0  0  0  0  0  0  0  0  0  0  0
   10.3247   15.9189   20.8975 C   0  0  0  0  0  0  0  0  0  0  0  0
  1  2  1  0
  2  3  1  0
  3  4  2  0
  3  5  1  0
  5  6  2  0
  6  7  1  0
  7  8  1  0
  8  9  1  0
  9 10  1  0
  7 11  2  0
 11 12  1  0
 12 13  2  0
 13 14  1  0
 14 15  1  0
 14 16  1  0
 16 17  1  0
 17 18  1  6
 17 19  1  0
 19 20  1  0
 20 21  1  0
 13  5  1  0
 21 19  1  0
 10  8  1  0
M  END
>  <energy_score>  (3170) 
-44.631851

>  <inchikey>  (3170) 
ZPMRHELNXDJOJC-UHFFFAOYSA-N

>  <smiles>  (3170) 
COC(=O)c1cc(C2CC2)ncc1N(N)CC(C)C1CC1

>  <ref_pdb>  (3170) 
A0528a

>  <alias>  (3170) 
ZPMRHELNXDJOJC-UHFFFAOYSA-N-P15-P15-P308-601501

>  <HIPPO Pose ID>  (3170) 
501964

>  <name>  (3170) 
ZPMRHELNXDJOJC-UHFFFAOYSA-N-P15-P15-P308-601501

>  <HIPPO Compound ID>  (3170) 
292696

>  <ref_mols>  (3170) 
A4331a,A0514a

>  <distance_score>  (3170) 
1.854393

>  <inspiration_score>  (3170) 
None

$$$$
ZPMRHELNXDJOJC-UHFFFAOYSA-N-P308-P15-P308-601501
     RDKit          3D

 21 23  0  0  0  0  0  0  0  0999 V2000
    9.2910    8.7751   23.3037 C   0  0  0  0  0  0  0  0  0  0  0  0
    8.4217    9.6635   24.0079 O   0  0  0  0  0  0  0  0  0  0  0  0
    9.0681   10.7283   24.5477 C   0  0  0  0  0  0  0  0  0  0  0  0
   10.2713   10.9210   24.5133 O   0  0  0  0  0  0  0  0  0  0  0  0
    8.0653   11.6468   25.1466 C   0  0  0  0  0  0  0  0  0  0  0  0
    6.8577   11.1436   25.6664 C   0  0  0  0  0  0  0  0  0  0  0  0
    5.9692   12.0269   26.2734 C   0  0  0  0  0  0  0  0  0  0  0  0
    4.6597   11.6777   26.8908 C   0  0  0  0  0  0  0  0  0  0  0  0
    4.4398   10.6254   27.9326 C   0  0  0  0  0  0  0  0  0  0  0  0
    4.5002   12.0607   28.3523 C   0  0  0  0  0  0  0  0  0  0  0  0
    6.2290   13.3446   26.3563 N   0  0  0  0  0  0  0  0  0  0  0  0
    7.3678   13.8056   25.8399 C   0  0  0  0  0  0  0  0  0  0  0  0
    8.3376   13.0173   25.2342 C   0  0  0  0  0  0  0  0  0  0  0  0
    9.5039   13.6475   24.7153 N   0  0  0  0  0  0  0  0  0  0  0  0
   10.0176   14.6553   25.6051 N   0  0  0  0  0  0  0  0  0  0  0  0
    9.1966   14.0356   23.3026 C   0  0  0  0  0  0  0  0  0  0  0  0
   10.1989   15.0327   22.6987 C   0  0  1  0  0  0  0  0  0  0  0  0
   11.6205   14.4821   22.7370 C   0  0  0  0  0  0  0  0  0  0  0  0
    9.7674   15.4480   21.2994 C   0  0  0  0  0  0  0  0  0  0  0  0
   10.4227   16.6762   20.7276 C   0  0  0  0  0  0  0  0  0  0  0  0
   10.6346   15.3584   20.0548 C   0  0  0  0  0  0  0  0  0  0  0  0
  1  2  1  0
  2  3  1  0
  3  4  2  0
  3  5  1  0
  5  6  2  0
  6  7  1  0
  7  8  1  0
  8  9  1  0
  9 10  1  0
  7 11  2  0
 11 12  1  0
 12 13  2  0
 13 14  1  0
 14 15  1  0
 14 16  1  0
 16 17  1  0
 17 18  1  6
 17 19  1  0
 19 20  1  0
 20 21  1  0
 13  5  1  0
 21 19  1  0
 10  8  1  0
M  END
>  <energy_score>  (3171) 
-54.858725

>  <inchikey>  (3171) 
ZPMRHELNXDJOJC-UHFFFAOYSA-N

>  <smiles>  (3171) 
COC(=O)c1cc(C2CC2)ncc1N(N)CC(C)C1CC1

>  <ref_pdb>  (3171) 
A0528a

>  <alias>  (3171) 
ZPMRHELNXDJOJC-UHFFFAOYSA-N-P308-P15-P308-601501

>  <HIPPO Pose ID>  (3171) 
501965

>  <name>  (3171) 
ZPMRHELNXDJOJC-UHFFFAOYSA-N-P308-P15-P308-601501

>  <HIPPO Compound ID>  (3171) 
292696

>  <ref_mols>  (3171) 
A4331a,A0514a

>  <distance_score>  (3171) 
1.662182

>  <inspiration_score>  (3171) 
None

$$$$
LXUMTLYATGDROJ-UHFFFAOYSA-N-P15-P15-P308-601501
     RDKit          3D

 21 23  0  0  0  0  0  0  0  0999 V2000
    9.1895    8.2815   22.8283 C   0  0  0  0  0  0  0  0  0  0  0  0
    8.3686    9.1014   23.6493 O   0  0  0  0  0  0  0  0  0  0  0  0
    8.9879   10.2641   23.9324 C   0  0  0  0  0  0  0  0  0  0  0  0
   10.1294   10.5399   23.6053 O   0  0  0  0  0  0  0  0  0  0  0  0
    8.0843   11.1640   24.6805 C   0  0  0  0  0  0  0  0  0  0  0  0
    7.0557   10.6324   25.4686 C   0  0  0  0  0  0  0  0  0  0  0  0
    6.2628   11.4946   26.2133 C   0  0  0  0  0  0  0  0  0  0  0  0
    5.2281   11.0060   27.1869 C   0  0  0  0  0  0  0  0  0  0  0  0
    5.2717   11.5161   28.6098 C   0  0  0  0  0  0  0  0  0  0  0  0
    4.1787   11.9773   27.6976 C   0  0  0  0  0  0  0  0  0  0  0  0
    6.4411   12.8315   26.1448 N   0  0  0  0  0  0  0  0  0  0  0  0
    7.3958   13.3230   25.3389 C   0  0  0  0  0  0  0  0  0  0  0  0
    8.2805   12.5480   24.6076 C   0  0  0  0  0  0  0  0  0  0  0  0
    9.3296   13.1407   23.8572 N   0  0  0  0  0  0  0  0  0  0  0  0
   10.6099   12.9463   24.4889 N   0  0  0  0  0  0  0  0  0  0  0  0
    9.1761   14.4123   23.2109 C   0  0  0  0  0  0  0  0  0  0  0  0
    8.2243   14.4800   22.0072 C   0  0  0  0  0  0  0  0  0  0  0  0
    9.3040   15.3431   21.2870 C   0  0  0  0  0  0  0  0  0  0  0  0
    9.1105   16.6711   21.3670 F   0  0  0  0  0  0  0  0  0  0  0  0
    9.5655   15.1047   19.9972 F   0  0  0  0  0  0  0  0  0  0  0  0
   10.3296   14.7021   22.2239 C   0  0  0  0  0  0  0  0  0  0  0  0
  1  2  1  0
  2  3  1  0
  3  4  2  0
  3  5  1  0
  5  6  2  0
  6  7  1  0
  7  8  1  0
  8  9  1  0
  9 10  1  0
  7 11  2  0
 11 12  1  0
 12 13  2  0
 13 14  1  0
 14 15  1  0
 14 16  1  0
 16 17  1  0
 17 18  1  0
 18 19  1  0
 18 20  1  0
 18 21  1  0
 13  5  1  0
 21 16  1  0
 10  8  1  0
M  END
>  <energy_score>  (3172) 
-29.955903

>  <inchikey>  (3172) 
LXUMTLYATGDROJ-UHFFFAOYSA-N

>  <smiles>  (3172) 
COC(=O)c1cc(C2CC2)ncc1N(N)C1CC(F)(F)C1

>  <ref_pdb>  (3172) 
A0528a

>  <alias>  (3172) 
LXUMTLYATGDROJ-UHFFFAOYSA-N-P15-P15-P308-601501

>  <HIPPO Pose ID>  (3172) 
501966

>  <name>  (3172) 
LXUMTLYATGDROJ-UHFFFAOYSA-N-P15-P15-P308-601501

>  <HIPPO Compound ID>  (3172) 
292697

>  <ref_mols>  (3172) 
A4331a,A0514a

>  <distance_score>  (3172) 
1.549997

>  <inspiration_score>  (3172) 
None

$$$$
LXUMTLYATGDROJ-UHFFFAOYSA-N-P308-P15-P308-601501
     RDKit          3D

 21 23  0  0  0  0  0  0  0  0999 V2000
    9.6125    8.4596   23.4871 C   0  0  0  0  0  0  0  0  0  0  0  0
    8.8335    9.3076   24.3227 O   0  0  0  0  0  0  0  0  0  0  0  0
    8.8345   10.5868   23.8827 C   0  0  0  0  0  0  0  0  0  0  0  0
    9.3847   10.9844   22.8685 O   0  0  0  0  0  0  0  0  0  0  0  0
    8.0746   11.4523   24.8056 C   0  0  0  0  0  0  0  0  0  0  0  0
    6.9692   10.9209   25.4850 C   0  0  0  0  0  0  0  0  0  0  0  0
    6.1806   11.7689   26.2481 C   0  0  0  0  0  0  0  0  0  0  0  0
    5.0100   11.2870   27.0576 C   0  0  0  0  0  0  0  0  0  0  0  0
    4.8065   11.8308   28.4555 C   0  0  0  0  0  0  0  0  0  0  0  0
    3.8853   12.2609   27.3585 C   0  0  0  0  0  0  0  0  0  0  0  0
    6.4556   13.0906   26.3185 N   0  0  0  0  0  0  0  0  0  0  0  0
    7.5091   13.5790   25.6459 C   0  0  0  0  0  0  0  0  0  0  0  0
    8.3872   12.8151   24.8990 C   0  0  0  0  0  0  0  0  0  0  0  0
    9.5134   13.4350   24.3087 N   0  0  0  0  0  0  0  0  0  0  0  0
   10.7526   12.7736   24.4764 N   0  0  0  0  0  0  0  0  0  0  0  0
    9.4384   14.6885   23.5901 C   0  0  0  0  0  0  0  0  0  0  0  0
    8.5316   14.6160   22.3392 C   0  0  0  0  0  0  0  0  0  0  0  0
    9.5832   15.4947   21.6208 C   0  0  0  0  0  0  0  0  0  0  0  0
    9.3562   16.8251   21.6761 F   0  0  0  0  0  0  0  0  0  0  0  0
    9.8563   15.1943   20.3348 F   0  0  0  0  0  0  0  0  0  0  0  0
   10.6136   14.9656   22.6306 C   0  0  0  0  0  0  0  0  0  0  0  0
  1  2  1  0
  2  3  1  0
  3  4  2  0
  3  5  1  0
  5  6  2  0
  6  7  1  0
  7  8  1  0
  8  9  1  0
  9 10  1  0
  7 11  2  0
 11 12  1  0
 12 13  2  0
 13 14  1  0
 14 15  1  0
 14 16  1  0
 16 17  1  0
 17 18  1  0
 18 19  1  0
 18 20  1  0
 18 21  1  0
 13  5  1  0
 21 16  1  0
 10  8  1  0
M  END
>  <energy_score>  (3173) 
-33.186146

>  <inchikey>  (3173) 
LXUMTLYATGDROJ-UHFFFAOYSA-N

>  <smiles>  (3173) 
COC(=O)c1cc(C2CC2)ncc1N(N)C1CC(F)(F)C1

>  <ref_pdb>  (3173) 
A0528a

>  <alias>  (3173) 
LXUMTLYATGDROJ-UHFFFAOYSA-N-P308-P15-P308-601501

>  <HIPPO Pose ID>  (3173) 
501967

>  <name>  (3173) 
LXUMTLYATGDROJ-UHFFFAOYSA-N-P308-P15-P308-601501

>  <HIPPO Compound ID>  (3173) 
292697

>  <ref_mols>  (3173) 
A4331a,A0514a

>  <distance_score>  (3173) 
1.52777

>  <inspiration_score>  (3173) 
None

$$$$
KICBXSGAWVNGKE-UHFFFAOYSA-N-P15-P15-P308-601501
     RDKit          3D

 21 22  0  0  0  0  0  0  0  0999 V2000
    9.4346    8.4063   23.1975 C   0  0  0  0  0  0  0  0  0  0  0  0
    8.6745    9.1924   24.1167 O   0  0  0  0  0  0  0  0  0  0  0  0
    8.7407   10.5156   23.8669 C   0  0  0  0  0  0  0  0  0  0  0  0
    9.3666   11.0357   22.9606 O   0  0  0  0  0  0  0  0  0  0  0  0
    7.9101   11.2914   24.8164 C   0  0  0  0  0  0  0  0  0  0  0  0
    6.9055   10.6670   25.5613 C   0  0  0  0  0  0  0  0  0  0  0  0
    6.1190   11.4441   26.3979 C   0  0  0  0  0  0  0  0  0  0  0  0
    5.1523   10.8589   27.3861 C   0  0  0  0  0  0  0  0  0  0  0  0
    3.9521   11.6633   27.8383 C   0  0  0  0  0  0  0  0  0  0  0  0
    5.1117   11.4849   28.7677 C   0  0  0  0  0  0  0  0  0  0  0  0
    6.2519   12.7886   26.4231 N   0  0  0  0  0  0  0  0  0  0  0  0
    7.2060   13.3746   25.6919 C   0  0  0  0  0  0  0  0  0  0  0  0
    8.1229   12.6770   24.9245 C   0  0  0  0  0  0  0  0  0  0  0  0
    9.2201   13.2930   24.2906 N   0  0  0  0  0  0  0  0  0  0  0  0
    8.8245   14.1425   23.1707 C   0  0  0  0  0  0  0  0  0  0  0  0
   10.0438   14.3961   22.2944 C   0  0  0  0  0  0  0  0  0  0  0  0
    9.7236   15.2210   21.0689 C   0  0  0  0  0  0  0  0  0  0  0  0
   10.8775   15.2536   20.2478 O   0  0  0  0  0  0  0  0  0  0  0  0
   10.0839   13.8766   25.1811 N   0  0  0  0  0  0  0  0  0  0  0  0
   11.2095   13.3771   25.2206 O   0  0  0  0  0  0  0  0  0  0  0  0
    9.6787   14.8245   25.8617 O   0  0  0  0  0  0  0  0  0  0  0  0
  1  2  1  0
  2  3  1  0
  3  4  2  0
  3  5  1  0
  5  6  2  0
  6  7  1  0
  7  8  1  0
  8  9  1  0
  9 10  1  0
  7 11  2  0
 11 12  1  0
 12 13  2  0
 13 14  1  0
 14 15  1  0
 15 16  1  0
 16 17  1  0
 17 18  1  0
 14 19  1  0
 19 20  2  0
 19 21  1  0
 13  5  1  0
 10  8  1  0
M  CHG  2  19   1  21  -1
M  END
>  <energy_score>  (3174) 
-30.472603

>  <inchikey>  (3174) 
KICBXSGAWVNGKE-UHFFFAOYSA-N

>  <smiles>  (3174) 
COC(=O)c1cc(C2CC2)ncc1N(CCCO)[N+](=O)[O-]

>  <ref_pdb>  (3174) 
A0528a

>  <alias>  (3174) 
KICBXSGAWVNGKE-UHFFFAOYSA-N-P15-P15-P308-601501

>  <HIPPO Pose ID>  (3174) 
501968

>  <name>  (3174) 
KICBXSGAWVNGKE-UHFFFAOYSA-N-P15-P15-P308-601501

>  <HIPPO Compound ID>  (3174) 
292698

>  <ref_mols>  (3174) 
A4331a,A0514a

>  <distance_score>  (3174) 
1.841822

>  <inspiration_score>  (3174) 
None

$$$$
KICBXSGAWVNGKE-UHFFFAOYSA-N-P308-P15-P308-601501
     RDKit          3D

 21 22  0  0  0  0  0  0  0  0999 V2000
    9.4525    8.8713   23.1869 C   0  0  0  0  0  0  0  0  0  0  0  0
    8.4879    9.7645   23.7432 O   0  0  0  0  0  0  0  0  0  0  0  0
    9.0055   10.8438   24.3695 C   0  0  0  0  0  0  0  0  0  0  0  0
   10.1853   11.1034   24.5320 O   0  0  0  0  0  0  0  0  0  0  0  0
    7.8922   11.6460   24.9122 C   0  0  0  0  0  0  0  0  0  0  0  0
    6.9781   10.9366   25.7169 C   0  0  0  0  0  0  0  0  0  0  0  0
    5.9807   11.6202   26.3955 C   0  0  0  0  0  0  0  0  0  0  0  0
    5.0292   10.9712   27.3600 C   0  0  0  0  0  0  0  0  0  0  0  0
    3.7370   11.6669   27.7365 C   0  0  0  0  0  0  0  0  0  0  0  0
    4.8646   11.6365   28.7164 C   0  0  0  0  0  0  0  0  0  0  0  0
    5.8912   12.9558   26.2950 N   0  0  0  0  0  0  0  0  0  0  0  0
    6.7196   13.6039   25.4710 C   0  0  0  0  0  0  0  0  0  0  0  0
    7.7350   13.0213   24.7097 C   0  0  0  0  0  0  0  0  0  0  0  0
    8.3682   13.8819   23.8098 N   0  0  0  0  0  0  0  0  0  0  0  0
    9.7246   13.7002   23.3201 C   0  0  0  0  0  0  0  0  0  0  0  0
   10.2968   15.0366   22.8197 C   0  0  0  0  0  0  0  0  0  0  0  0
   10.1440   15.2539   21.3185 C   0  0  0  0  0  0  0  0  0  0  0  0
   11.1698   14.5472   20.6414 O   0  0  0  0  0  0  0  0  0  0  0  0
    7.4655   14.2181   22.8153 N   0  0  0  0  0  0  0  0  0  0  0  0
    7.1366   15.4023   22.7749 O   0  0  0  0  0  0  0  0  0  0  0  0
    7.1176   13.3089   22.0549 O   0  0  0  0  0  0  0  0  0  0  0  0
  1  2  1  0
  2  3  1  0
  3  4  2  0
  3  5  1  0
  5  6  2  0
  6  7  1  0
  7  8  1  0
  8  9  1  0
  9 10  1  0
  7 11  2  0
 11 12  1  0
 12 13  2  0
 13 14  1  0
 14 15  1  0
 15 16  1  0
 16 17  1  0
 17 18  1  0
 14 19  1  0
 19 20  2  0
 19 21  1  0
 13  5  1  0
 10  8  1  0
M  CHG  2  19   1  21  -1
M  END
>  <energy_score>  (3175) 
-25.877141

>  <inchikey>  (3175) 
KICBXSGAWVNGKE-UHFFFAOYSA-N

>  <smiles>  (3175) 
COC(=O)c1cc(C2CC2)ncc1N(CCCO)[N+](=O)[O-]

>  <ref_pdb>  (3175) 
A0528a

>  <alias>  (3175) 
KICBXSGAWVNGKE-UHFFFAOYSA-N-P308-P15-P308-601501

>  <HIPPO Pose ID>  (3175) 
501969

>  <name>  (3175) 
KICBXSGAWVNGKE-UHFFFAOYSA-N-P308-P15-P308-601501

>  <HIPPO Compound ID>  (3175) 
292698

>  <ref_mols>  (3175) 
A4331a,A0514a

>  <distance_score>  (3175) 
1.861778

>  <inspiration_score>  (3175) 
None

$$$$
QIQZGZNOCGQESG-UHFFFAOYSA-N-P15-P15-P308-601501
     RDKit          3D

 21 22  0  0  0  0  0  0  0  0999 V2000
    9.2977    8.4557   22.9402 C   0  0  0  0  0  0  0  0  0  0  0  0
    8.4736    9.2512   23.7891 O   0  0  0  0  0  0  0  0  0  0  0  0
    8.9491   10.5065   23.9501 C   0  0  0  0  0  0  0  0  0  0  0  0
    9.9784   10.9254   23.4505 O   0  0  0  0  0  0  0  0  0  0  0  0
    8.0605   11.2975   24.8409 C   0  0  0  0  0  0  0  0  0  0  0  0
    6.9866   10.6883   25.5074 C   0  0  0  0  0  0  0  0  0  0  0  0
    6.2442   11.4308   26.4182 C   0  0  0  0  0  0  0  0  0  0  0  0
    5.1380   10.8466   27.2477 C   0  0  0  0  0  0  0  0  0  0  0  0
    5.0500   11.2161   28.7116 C   0  0  0  0  0  0  0  0  0  0  0  0
    4.0464   11.7755   27.7526 C   0  0  0  0  0  0  0  0  0  0  0  0
    6.5320   12.7279   26.6562 N   0  0  0  0  0  0  0  0  0  0  0  0
    7.5354   13.3041   25.9864 C   0  0  0  0  0  0  0  0  0  0  0  0
    8.3553   12.6470   25.0813 C   0  0  0  0  0  0  0  0  0  0  0  0
    9.4183   13.3381   24.4530 N   0  0  0  0  0  0  0  0  0  0  0  0
   10.1918   14.2008   25.2823 N   0  0  0  0  0  0  0  0  0  0  0  0
    9.0197   13.8218   23.0863 C   0  0  1  0  0  0  0  0  0  0  0  0
    7.8031   14.7574   23.1747 C   0  0  0  0  0  0  0  0  0  0  0  0
   10.2701   14.3354   22.3469 C   0  0  0  0  0  0  0  0  0  0  0  0
    9.9553   14.8326   20.9813 C   0  0  0  0  0  0  0  0  0  0  0  0
    8.8421   14.8680   20.4897 O   0  0  0  0  0  0  0  0  0  0  0  0
   11.0434   15.2281   20.3019 O   0  0  0  0  0  0  0  0  0  0  0  0
  1  2  1  0
  2  3  1  0
  3  4  2  0
  3  5  1  0
  5  6  2  0
  6  7  1  0
  7  8  1  0
  8  9  1  0
  9 10  1  0
  7 11  2  0
 11 12  1  0
 12 13  2  0
 13 14  1  0
 14 15  1  0
 14 16  1  0
 16 17  1  1
 16 18  1  0
 18 19  1  0
 19 20  2  0
 19 21  1  0
 13  5  1  0
 10  8  1  0
M  END
>  <energy_score>  (3176) 
-45.992379

>  <inchikey>  (3176) 
QIQZGZNOCGQESG-UHFFFAOYSA-N

>  <smiles>  (3176) 
COC(=O)c1cc(C2CC2)ncc1N(N)C(C)CC(=O)O

>  <ref_pdb>  (3176) 
A0528a

>  <alias>  (3176) 
QIQZGZNOCGQESG-UHFFFAOYSA-N-P15-P15-P308-601501

>  <HIPPO Pose ID>  (3176) 
501970

>  <name>  (3176) 
QIQZGZNOCGQESG-UHFFFAOYSA-N-P15-P15-P308-601501

>  <HIPPO Compound ID>  (3176) 
292699

>  <ref_mols>  (3176) 
A4331a,A0514a

>  <distance_score>  (3176) 
1.610956

>  <inspiration_score>  (3176) 
None

$$$$
QIQZGZNOCGQESG-UHFFFAOYSA-N-P308-P15-P308-601501
     RDKit          3D

 21 22  0  0  0  0  0  0  0  0999 V2000
    9.3253    8.5271   23.7987 C   0  0  0  0  0  0  0  0  0  0  0  0
    8.6588    9.4942   24.5999 O   0  0  0  0  0  0  0  0  0  0  0  0
    8.6752   10.7180   24.0248 C   0  0  0  0  0  0  0  0  0  0  0  0
    9.1522   10.9784   22.9355 O   0  0  0  0  0  0  0  0  0  0  0  0
    7.9694   11.6744   24.8927 C   0  0  0  0  0  0  0  0  0  0  0  0
    6.7768   11.2697   25.5120 C   0  0  0  0  0  0  0  0  0  0  0  0
    6.0469   12.2107   26.2224 C   0  0  0  0  0  0  0  0  0  0  0  0
    4.7025   11.9593   26.8199 C   0  0  0  0  0  0  0  0  0  0  0  0
    4.4307   10.9576   27.9023 C   0  0  0  0  0  0  0  0  0  0  0  0
    4.5062   12.4117   28.2537 C   0  0  0  0  0  0  0  0  0  0  0  0
    6.4897   13.4776   26.3667 N   0  0  0  0  0  0  0  0  0  0  0  0
    7.6318   13.8366   25.7638 C   0  0  0  0  0  0  0  0  0  0  0  0
    8.4196   12.9931   25.0015 C   0  0  0  0  0  0  0  0  0  0  0  0
    9.5728   13.5373   24.4241 N   0  0  0  0  0  0  0  0  0  0  0  0
   10.7785   12.9279   24.8892 N   0  0  0  0  0  0  0  0  0  0  0  0
    9.4905   13.9513   22.9750 C   0  0  1  0  0  0  0  0  0  0  0  0
    8.0518   14.1346   22.4617 C   0  0  0  0  0  0  0  0  0  0  0  0
   10.2443   15.2819   22.7758 C   0  0  0  0  0  0  0  0  0  0  0  0
   11.7162   15.0598   22.5591 C   0  0  0  0  0  0  0  0  0  0  0  0
   12.4206   14.2672   23.1695 O   0  0  0  0  0  0  0  0  0  0  0  0
   12.2253   15.8841   21.6260 O   0  0  0  0  0  0  0  0  0  0  0  0
  1  2  1  0
  2  3  1  0
  3  4  2  0
  3  5  1  0
  5  6  2  0
  6  7  1  0
  7  8  1  0
  8  9  1  0
  9 10  1  0
  7 11  2  0
 11 12  1  0
 12 13  2  0
 13 14  1  0
 14 15  1  0
 14 16  1  0
 16 17  1  1
 16 18  1  0
 18 19  1  0
 19 20  2  0
 19 21  1  0
 13  5  1  0
 10  8  1  0
M  END
>  <energy_score>  (3177) 
-47.650784

>  <inchikey>  (3177) 
QIQZGZNOCGQESG-UHFFFAOYSA-N

>  <smiles>  (3177) 
COC(=O)c1cc(C2CC2)ncc1N(N)C(C)CC(=O)O

>  <ref_pdb>  (3177) 
A0528a

>  <alias>  (3177) 
QIQZGZNOCGQESG-UHFFFAOYSA-N-P308-P15-P308-601501

>  <HIPPO Pose ID>  (3177) 
501971

>  <name>  (3177) 
QIQZGZNOCGQESG-UHFFFAOYSA-N-P308-P15-P308-601501

>  <HIPPO Compound ID>  (3177) 
292699

>  <ref_mols>  (3177) 
A4331a,A0514a

>  <distance_score>  (3177) 
1.879566

>  <inspiration_score>  (3177) 
None

$$$$
HZRFJHDUCCNJLK-UHFFFAOYSA-N-P15-P15-P308-601501
     RDKit          3D

 21 23  0  0  0  0  0  0  0  0999 V2000
    9.6572    8.6327   23.4053 C   0  0  0  0  0  0  0  0  0  0  0  0
    8.6050    9.2995   24.1062 O   0  0  0  0  0  0  0  0  0  0  0  0
    8.6178   10.6337   23.8645 C   0  0  0  0  0  0  0  0  0  0  0  0
    9.3620   11.1735   23.0683 O   0  0  0  0  0  0  0  0  0  0  0  0
    7.6930   11.3662   24.7611 C   0  0  0  0  0  0  0  0  0  0  0  0
    6.9454   10.6637   25.7112 C   0  0  0  0  0  0  0  0  0  0  0  0
    6.2087   11.3692   26.6518 C   0  0  0  0  0  0  0  0  0  0  0  0
    5.2847   10.7056   27.6276 C   0  0  0  0  0  0  0  0  0  0  0  0
    5.2282   11.2051   29.0511 C   0  0  0  0  0  0  0  0  0  0  0  0
    4.0895   11.4988   28.1243 C   0  0  0  0  0  0  0  0  0  0  0  0
    6.3024   12.7118   26.7393 N   0  0  0  0  0  0  0  0  0  0  0  0
    6.9034   13.3708   25.7433 C   0  0  0  0  0  0  0  0  0  0  0  0
    7.5442   12.7577   24.6777 C   0  0  0  0  0  0  0  0  0  0  0  0
    7.6872   13.4901   23.4765 N   0  0  0  0  0  0  0  0  0  0  0  0
    6.5533   14.2902   23.1450 N   0  0  0  0  0  0  0  0  0  0  0  0
    8.8474   13.9785   22.9524 C   0  0  0  0  0  0  0  0  0  0  0  0
   10.1457   13.9246   23.4272 C   0  0  0  0  0  0  0  0  0  0  0  0
   11.1353   14.3961   22.5866 N   0  0  0  0  0  0  0  0  0  0  0  0
   10.5976   14.7426   21.4377 C   0  0  0  0  0  0  0  0  0  0  0  0
   11.3433   15.1170   20.2109 C   0  0  0  0  0  0  0  0  0  0  0  0
    8.8931   14.7435   21.4092 S   0  0  0  0  0  0  0  0  0  0  0  0
  1  2  1  0
  2  3  1  0
  3  4  2  0
  3  5  1  0
  5  6  2  0
  6  7  1  0
  7  8  1  0
  8  9  1  0
  9 10  1  0
  7 11  2  0
 11 12  1  0
 12 13  2  0
 13 14  1  0
 14 15  1  0
 14 16  1  0
 16 17  2  0
 17 18  1  0
 18 19  2  0
 19 20  1  0
 19 21  1  0
 13  5  1  0
 21 16  1  0
 10  8  1  0
M  END
>  <energy_score>  (3178) 
-100.864643

>  <inchikey>  (3178) 
HZRFJHDUCCNJLK-UHFFFAOYSA-N

>  <smiles>  (3178) 
COC(=O)c1cc(C2CC2)ncc1N(N)c1cnc(C)s1

>  <ref_pdb>  (3178) 
A0528a

>  <alias>  (3178) 
HZRFJHDUCCNJLK-UHFFFAOYSA-N-P15-P15-P308-601501

>  <HIPPO Pose ID>  (3178) 
501972

>  <name>  (3178) 
HZRFJHDUCCNJLK-UHFFFAOYSA-N-P15-P15-P308-601501

>  <HIPPO Compound ID>  (3178) 
292700

>  <ref_mols>  (3178) 
A4331a,A0514a

>  <distance_score>  (3178) 
1.916847

>  <inspiration_score>  (3178) 
None

$$$$
HZRFJHDUCCNJLK-UHFFFAOYSA-N-P308-P15-P308-601501
     RDKit          3D

 21 23  0  0  0  0  0  0  0  0999 V2000
    9.1909    8.4323   23.8503 C   0  0  0  0  0  0  0  0  0  0  0  0
    8.4398    9.4273   24.5331 O   0  0  0  0  0  0  0  0  0  0  0  0
    8.5816   10.6360   23.9542 C   0  0  0  0  0  0  0  0  0  0  0  0
    9.2310   10.8734   22.9512 O   0  0  0  0  0  0  0  0  0  0  0  0
    7.9023   11.6554   24.7665 C   0  0  0  0  0  0  0  0  0  0  0  0
    6.6864   11.3325   25.3842 C   0  0  0  0  0  0  0  0  0  0  0  0
    5.9944   12.3327   26.0467 C   0  0  0  0  0  0  0  0  0  0  0  0
    4.6647   12.1405   26.6982 C   0  0  0  0  0  0  0  0  0  0  0  0
    4.4212   11.1899   27.8342 C   0  0  0  0  0  0  0  0  0  0  0  0
    4.5247   12.6570   28.1172 C   0  0  0  0  0  0  0  0  0  0  0  0
    6.4787   13.5914   26.1082 N   0  0  0  0  0  0  0  0  0  0  0  0
    7.6469   13.8721   25.5098 C   0  0  0  0  0  0  0  0  0  0  0  0
    8.4338   12.9464   24.8469 C   0  0  0  0  0  0  0  0  0  0  0  0
    9.7224   13.3613   24.4447 N   0  0  0  0  0  0  0  0  0  0  0  0
   10.8035   12.4485   24.5476 N   0  0  0  0  0  0  0  0  0  0  0  0
    9.9616   14.2218   23.4026 C   0  0  0  0  0  0  0  0  0  0  0  0
   11.0977   14.9984   23.2471 C   0  0  0  0  0  0  0  0  0  0  0  0
   11.2420   15.6702   22.0630 N   0  0  0  0  0  0  0  0  0  0  0  0
   10.2347   15.3822   21.2737 C   0  0  0  0  0  0  0  0  0  0  0  0
   10.1917   15.8109   19.8485 C   0  0  0  0  0  0  0  0  0  0  0  0
    8.9621   14.4784   22.0175 S   0  0  0  0  0  0  0  0  0  0  0  0
  1  2  1  0
  2  3  1  0
  3  4  2  0
  3  5  1  0
  5  6  2  0
  6  7  1  0
  7  8  1  0
  8  9  1  0
  9 10  1  0
  7 11  2  0
 11 12  1  0
 12 13  2  0
 13 14  1  0
 14 15  1  0
 14 16  1  0
 16 17  2  0
 17 18  1  0
 18 19  2  0
 19 20  1  0
 19 21  1  0
 13  5  1  0
 21 16  1  0
 10  8  1  0
M  END
>  <energy_score>  (3179) 
-111.930991

>  <inchikey>  (3179) 
HZRFJHDUCCNJLK-UHFFFAOYSA-N

>  <smiles>  (3179) 
COC(=O)c1cc(C2CC2)ncc1N(N)c1cnc(C)s1

>  <ref_pdb>  (3179) 
A0528a

>  <alias>  (3179) 
HZRFJHDUCCNJLK-UHFFFAOYSA-N-P308-P15-P308-601501

>  <HIPPO Pose ID>  (3179) 
501973

>  <name>  (3179) 
HZRFJHDUCCNJLK-UHFFFAOYSA-N-P308-P15-P308-601501

>  <HIPPO Compound ID>  (3179) 
292700

>  <ref_mols>  (3179) 
A4331a,A0514a

>  <distance_score>  (3179) 
1.641319

>  <inspiration_score>  (3179) 
None

$$$$
AFDNICJRWUXWLI-UHFFFAOYSA-N-P15-P15-P308-601501
     RDKit          3D

 21 23  0  0  0  0  0  0  0  0999 V2000
    9.1634    8.4377   22.9238 C   0  0  0  0  0  0  0  0  0  0  0  0
    8.4197    9.3780   23.6981 O   0  0  0  0  0  0  0  0  0  0  0  0
    9.1347   10.5081   23.9089 C   0  0  0  0  0  0  0  0  0  0  0  0
   10.2955   10.6515   23.5712 O   0  0  0  0  0  0  0  0  0  0  0  0
    8.3108   11.5491   24.5704 C   0  0  0  0  0  0  0  0  0  0  0  0
    7.1269   11.2057   25.2413 C   0  0  0  0  0  0  0  0  0  0  0  0
    6.3981   12.2116   25.8637 C   0  0  0  0  0  0  0  0  0  0  0  0
    5.1478   11.9839   26.6501 C   0  0  0  0  0  0  0  0  0  0  0  0
    5.0723   11.0613   27.8320 C   0  0  0  0  0  0  0  0  0  0  0  0
    5.1077   12.5417   28.0599 C   0  0  0  0  0  0  0  0  0  0  0  0
    6.7845   13.5029   25.7934 N   0  0  0  0  0  0  0  0  0  0  0  0
    7.9173   13.8081   25.1396 C   0  0  0  0  0  0  0  0  0  0  0  0
    8.7535   12.8820   24.5401 C   0  0  0  0  0  0  0  0  0  0  0  0
   10.0463   13.2354   24.1305 N   0  0  0  0  0  0  0  0  0  0  0  0
   10.9642   13.2195   25.2138 N   0  0  0  0  0  0  0  0  0  0  0  0
   10.2322   14.2461   23.0651 C   0  0  1  0  0  0  0  0  0  0  0  0
   11.6524   14.7988   23.0843 C   0  0  0  0  0  0  0  0  0  0  0  0
   11.8282   15.4511   21.7441 C   0  0  0  0  0  0  0  0  0  0  0  0
   11.3514   14.3583   20.8445 C   0  0  2  0  0  0  0  0  0  0  0  0
   11.1097   14.9049   19.4483 C   0  0  0  0  0  0  0  0  0  0  0  0
   10.1672   13.7208   21.6386 C   0  0  0  0  0  0  0  0  0  0  0  0
  1  2  1  0
  2  3  1  0
  3  4  2  0
  3  5  1  0
  5  6  2  0
  6  7  1  0
  7  8  1  0
  8  9  1  0
  9 10  1  0
  7 11  2  0
 11 12  1  0
 12 13  2  0
 13 14  1  0
 14 15  1  0
 16 14  1  1
 16 17  1  0
 17 18  1  0
 18 19  1  0
 19 20  1  6
 19 21  1  0
 13  5  1  0
 21 16  1  0
 10  8  1  0
M  END
>  <energy_score>  (3180) 
-17.994362

>  <inchikey>  (3180) 
AFDNICJRWUXWLI-UHFFFAOYSA-N

>  <smiles>  (3180) 
COC(=O)c1cc(C2CC2)ncc1N(N)C1CCC(C)C1

>  <ref_pdb>  (3180) 
A0528a

>  <alias>  (3180) 
AFDNICJRWUXWLI-UHFFFAOYSA-N-P15-P15-P308-601501

>  <HIPPO Pose ID>  (3180) 
501974

>  <name>  (3180) 
AFDNICJRWUXWLI-UHFFFAOYSA-N-P15-P15-P308-601501

>  <HIPPO Compound ID>  (3180) 
292701

>  <ref_mols>  (3180) 
A4331a,A0514a

>  <distance_score>  (3180) 
1.793611

>  <inspiration_score>  (3180) 
None

$$$$
AFDNICJRWUXWLI-UHFFFAOYSA-N-P308-P15-P308-601501
     RDKit          3D

 21 23  0  0  0  0  0  0  0  0999 V2000
    9.3180    8.5688   23.7529 C   0  0  0  0  0  0  0  0  0  0  0  0
    8.5933    9.5181   24.5271 O   0  0  0  0  0  0  0  0  0  0  0  0
    8.6992   10.7689   24.0176 C   0  0  0  0  0  0  0  0  0  0  0  0
    9.2937   11.0623   22.9967 O   0  0  0  0  0  0  0  0  0  0  0  0
    7.9617   11.7155   24.8765 C   0  0  0  0  0  0  0  0  0  0  0  0
    6.7621   11.3021   25.4753 C   0  0  0  0  0  0  0  0  0  0  0  0
    6.0480   12.2189   26.2313 C   0  0  0  0  0  0  0  0  0  0  0  0
    4.6948   11.9623   26.8065 C   0  0  0  0  0  0  0  0  0  0  0  0
    4.4173   10.9599   27.8876 C   0  0  0  0  0  0  0  0  0  0  0  0
    4.4678   12.4155   28.2359 C   0  0  0  0  0  0  0  0  0  0  0  0
    6.5185   13.4643   26.4479 N   0  0  0  0  0  0  0  0  0  0  0  0
    7.6741   13.8309   25.8738 C   0  0  0  0  0  0  0  0  0  0  0  0
    8.4413   13.0187   25.0578 C   0  0  0  0  0  0  0  0  0  0  0  0
    9.6150   13.5135   24.4507 N   0  0  0  0  0  0  0  0  0  0  0  0
   10.5105   14.1971   25.3173 N   0  0  0  0  0  0  0  0  0  0  0  0
    9.3372   14.0472   23.0902 C   0  0  1  0  0  0  0  0  0  0  0  0
    8.7599   15.4606   23.0518 C   0  0  0  0  0  0  0  0  0  0  0  0
    9.1077   15.9229   21.6440 C   0  0  0  0  0  0  0  0  0  0  0  0
   10.5515   15.4609   21.4825 C   0  0  2  0  0  0  0  0  0  0  0  0
   10.9977   15.3913   20.0296 C   0  0  0  0  0  0  0  0  0  0  0  0
   10.6005   14.1188   22.2288 C   0  0  0  0  0  0  0  0  0  0  0  0
  1  2  1  0
  2  3  1  0
  3  4  2  0
  3  5  1  0
  5  6  2  0
  6  7  1  0
  7  8  1  0
  8  9  1  0
  9 10  1  0
  7 11  2  0
 11 12  1  0
 12 13  2  0
 13 14  1  0
 14 15  1  0
 16 14  1  1
 16 17  1  0
 17 18  1  0
 18 19  1  0
 19 20  1  6
 19 21  1  0
 13  5  1  0
 21 16  1  0
 10  8  1  0
M  END
>  <energy_score>  (3181) 
-33.672557

>  <inchikey>  (3181) 
AFDNICJRWUXWLI-UHFFFAOYSA-N

>  <smiles>  (3181) 
COC(=O)c1cc(C2CC2)ncc1N(N)C1CCC(C)C1

>  <ref_pdb>  (3181) 
A0528a

>  <alias>  (3181) 
AFDNICJRWUXWLI-UHFFFAOYSA-N-P308-P15-P308-601501

>  <HIPPO Pose ID>  (3181) 
501975

>  <name>  (3181) 
AFDNICJRWUXWLI-UHFFFAOYSA-N-P308-P15-P308-601501

>  <HIPPO Compound ID>  (3181) 
292701

>  <ref_mols>  (3181) 
A4331a,A0514a

>  <distance_score>  (3181) 
1.834147

>  <inspiration_score>  (3181) 
None

$$$$
OGTYORLFLSQHDR-UHFFFAOYSA-N-P15-P15-P308-601501
     RDKit          3D

 21 22  0  0  0  0  0  0  0  0999 V2000
    9.3625    8.6062   23.0179 C   0  0  0  0  0  0  0  0  0  0  0  0
    8.5117    9.3889   23.8605 O   0  0  0  0  0  0  0  0  0  0  0  0
    8.9089   10.6747   23.9974 C   0  0  0  0  0  0  0  0  0  0  0  0
    9.9003   11.1554   23.4762 O   0  0  0  0  0  0  0  0  0  0  0  0
    7.9717   11.4254   24.8808 C   0  0  0  0  0  0  0  0  0  0  0  0
    6.9685   10.7312   25.5754 C   0  0  0  0  0  0  0  0  0  0  0  0
    6.1100   11.4307   26.4153 C   0  0  0  0  0  0  0  0  0  0  0  0
    5.1675   10.7494   27.3644 C   0  0  0  0  0  0  0  0  0  0  0  0
    3.9625   11.4911   27.9043 C   0  0  0  0  0  0  0  0  0  0  0  0
    5.1454   11.2627   28.7918 C   0  0  0  0  0  0  0  0  0  0  0  0
    6.1648   12.7761   26.5042 N   0  0  0  0  0  0  0  0  0  0  0  0
    7.1131   13.4285   25.8254 C   0  0  0  0  0  0  0  0  0  0  0  0
    8.0824   12.8155   25.0476 C   0  0  0  0  0  0  0  0  0  0  0  0
    9.0722   13.6688   24.5236 N   0  0  0  0  0  0  0  0  0  0  0  0
   10.4195   13.3846   24.8343 N   0  0  0  0  0  0  0  0  0  0  0  0
    8.7160   14.1109   23.1613 C   0  0  0  0  0  0  0  0  0  0  0  0
    9.9586   14.3607   22.3320 C   0  0  0  0  0  0  0  0  0  0  0  0
    9.6661   15.1547   21.0846 C   0  0  0  0  0  0  0  0  0  0  0  0
   10.9301   15.2177   20.2652 C   0  0  0  0  0  0  0  0  0  0  0  0
   10.7301   16.0704   19.2384 F   0  0  0  0  0  0  0  0  0  0  0  0
   11.9306   15.7144   21.0393 F   0  0  0  0  0  0  0  0  0  0  0  0
  1  2  1  0
  2  3  1  0
  3  4  2  0
  3  5  1  0
  5  6  2  0
  6  7  1  0
  7  8  1  0
  8  9  1  0
  9 10  1  0
  7 11  2  0
 11 12  1  0
 12 13  2  0
 13 14  1  0
 14 15  1  0
 14 16  1  0
 16 17  1  0
 17 18  1  0
 18 19  1  0
 19 20  1  0
 19 21  1  0
 13  5  1  0
 10  8  1  0
M  END
>  <energy_score>  (3182) 
-32.721952

>  <inchikey>  (3182) 
OGTYORLFLSQHDR-UHFFFAOYSA-N

>  <smiles>  (3182) 
COC(=O)c1cc(C2CC2)ncc1N(N)CCCC(F)F

>  <ref_pdb>  (3182) 
A0528a

>  <alias>  (3182) 
OGTYORLFLSQHDR-UHFFFAOYSA-N-P15-P15-P308-601501

>  <HIPPO Pose ID>  (3182) 
501976

>  <name>  (3182) 
OGTYORLFLSQHDR-UHFFFAOYSA-N-P15-P15-P308-601501

>  <HIPPO Compound ID>  (3182) 
292702

>  <ref_mols>  (3182) 
A4331a,A0514a

>  <distance_score>  (3182) 
1.455632

>  <inspiration_score>  (3182) 
None

$$$$
OGTYORLFLSQHDR-UHFFFAOYSA-N-P308-P15-P308-601501
     RDKit          3D

 21 22  0  0  0  0  0  0  0  0999 V2000
    9.4743    8.6288   23.0923 C   0  0  0  0  0  0  0  0  0  0  0  0
    8.6451    9.5545   23.7854 O   0  0  0  0  0  0  0  0  0  0  0  0
    9.3296   10.4892   24.4852 C   0  0  0  0  0  0  0  0  0  0  0  0
   10.5392   10.5690   24.6194 O   0  0  0  0  0  0  0  0  0  0  0  0
    8.3356   11.4422   25.0257 C   0  0  0  0  0  0  0  0  0  0  0  0
    7.1412   10.9415   25.5663 C   0  0  0  0  0  0  0  0  0  0  0  0
    6.2604   11.8227   26.1766 C   0  0  0  0  0  0  0  0  0  0  0  0
    5.0757   11.3627   26.9826 C   0  0  0  0  0  0  0  0  0  0  0  0
    3.8978   12.2886   27.2020 C   0  0  0  0  0  0  0  0  0  0  0  0
    4.8500   12.0348   28.3264 C   0  0  0  0  0  0  0  0  0  0  0  0
    6.5068   13.1518   26.1794 N   0  0  0  0  0  0  0  0  0  0  0  0
    7.6492   13.6101   25.6407 C   0  0  0  0  0  0  0  0  0  0  0  0
    8.6268   12.8097   25.0758 C   0  0  0  0  0  0  0  0  0  0  0  0
    9.8381   13.3576   24.6138 N   0  0  0  0  0  0  0  0  0  0  0  0
   10.4459   14.3322   25.4491 N   0  0  0  0  0  0  0  0  0  0  0  0
    9.8468   13.5929   23.1531 C   0  0  0  0  0  0  0  0  0  0  0  0
    9.3329   14.9826   22.7758 C   0  0  0  0  0  0  0  0  0  0  0  0
    9.5040   15.3112   21.2945 C   0  0  0  0  0  0  0  0  0  0  0  0
   10.9406   15.2336   20.8066 C   0  0  0  0  0  0  0  0  0  0  0  0
   11.0240   15.7761   19.5711 F   0  0  0  0  0  0  0  0  0  0  0  0
   11.7383   15.9659   21.6254 F   0  0  0  0  0  0  0  0  0  0  0  0
  1  2  1  0
  2  3  1  0
  3  4  2  0
  3  5  1  0
  5  6  2  0
  6  7  1  0
  7  8  1  0
  8  9  1  0
  9 10  1  0
  7 11  2  0
 11 12  1  0
 12 13  2  0
 13 14  1  0
 14 15  1  0
 14 16  1  0
 16 17  1  0
 17 18  1  0
 18 19  1  0
 19 20  1  0
 19 21  1  0
 13  5  1  0
 10  8  1  0
M  END
>  <energy_score>  (3183) 
-38.355832

>  <inchikey>  (3183) 
OGTYORLFLSQHDR-UHFFFAOYSA-N

>  <smiles>  (3183) 
COC(=O)c1cc(C2CC2)ncc1N(N)CCCC(F)F

>  <ref_pdb>  (3183) 
A0528a

>  <alias>  (3183) 
OGTYORLFLSQHDR-UHFFFAOYSA-N-P308-P15-P308-601501

>  <HIPPO Pose ID>  (3183) 
501977

>  <name>  (3183) 
OGTYORLFLSQHDR-UHFFFAOYSA-N-P308-P15-P308-601501

>  <HIPPO Compound ID>  (3183) 
292702

>  <ref_mols>  (3183) 
A4331a,A0514a

>  <distance_score>  (3183) 
1.36327

>  <inspiration_score>  (3183) 
None

$$$$
RATLKYKTFXNPCC-UHFFFAOYSA-N-P15-P15-P308-601501
     RDKit          3D

 21 22  0  0  0  0  0  0  0  0999 V2000
    9.2328    8.8182   23.1370 C   0  0  0  0  0  0  0  0  0  0  0  0
    8.4055    9.6562   23.9573 O   0  0  0  0  0  0  0  0  0  0  0  0
    8.8492   10.9294   24.0745 C   0  0  0  0  0  0  0  0  0  0  0  0
    9.8592   11.3654   23.5474 O   0  0  0  0  0  0  0  0  0  0  0  0
    7.9815   11.7332   24.9864 C   0  0  0  0  0  0  0  0  0  0  0  0
    7.0812   11.0544   25.8262 C   0  0  0  0  0  0  0  0  0  0  0  0
    6.3737   11.7718   26.7845 C   0  0  0  0  0  0  0  0  0  0  0  0
    5.5913   11.1579   27.8972 C   0  0  0  0  0  0  0  0  0  0  0  0
    4.5917   10.0676   27.7270 C   0  0  0  0  0  0  0  0  0  0  0  0
    4.1185   11.4820   27.9293 C   0  0  0  0  0  0  0  0  0  0  0  0
    6.4667   13.1106   26.8692 N   0  0  0  0  0  0  0  0  0  0  0  0
    7.2764   13.7525   26.0212 C   0  0  0  0  0  0  0  0  0  0  0  0
    8.0862   13.1401   25.0744 C   0  0  0  0  0  0  0  0  0  0  0  0
    8.9182   13.9943   24.3091 N   0  0  0  0  0  0  0  0  0  0  0  0
   10.3125   13.7466   24.4075 N   0  0  0  0  0  0  0  0  0  0  0  0
    8.2449   14.6493   23.0885 C   0  0  0  0  0  0  0  0  0  0  0  0
    7.2850   15.7731   23.5255 C   0  0  0  0  0  0  0  0  0  0  0  0
    7.3621   13.6516   22.3945 C   0  0  0  0  0  0  0  0  0  0  0  0
    9.2252   15.0634   21.9398 C   0  0  0  0  0  0  0  0  0  0  0  0
    8.8634   15.4508   20.8379 O   0  0  0  0  0  0  0  0  0  0  0  0
   10.5376   14.9168   22.2103 O   0  0  0  0  0  0  0  0  0  0  0  0
  1  2  1  0
  2  3  1  0
  3  4  2  0
  3  5  1  0
  5  6  2  0
  6  7  1  0
  7  8  1  0
  8  9  1  0
  9 10  1  0
  7 11  2  0
 11 12  1  0
 12 13  2  0
 13 14  1  0
 14 15  1  0
 14 16  1  0
 16 17  1  0
 16 18  1  0
 16 19  1  0
 19 20  2  0
 19 21  1  0
 13  5  1  0
 10  8  1  0
M  END
>  <energy_score>  (3184) 
-43.103847

>  <inchikey>  (3184) 
RATLKYKTFXNPCC-UHFFFAOYSA-N

>  <smiles>  (3184) 
COC(=O)c1cc(C2CC2)ncc1N(N)C(C)(C)C(=O)O

>  <ref_pdb>  (3184) 
A0528a

>  <alias>  (3184) 
RATLKYKTFXNPCC-UHFFFAOYSA-N-P15-P15-P308-601501

>  <HIPPO Pose ID>  (3184) 
501978

>  <name>  (3184) 
RATLKYKTFXNPCC-UHFFFAOYSA-N-P15-P15-P308-601501

>  <HIPPO Compound ID>  (3184) 
292703

>  <ref_mols>  (3184) 
A4331a,A0514a

>  <distance_score>  (3184) 
1.662001

>  <inspiration_score>  (3184) 
None

$$$$
RATLKYKTFXNPCC-UHFFFAOYSA-N-P308-P15-P308-601501
     RDKit          3D

 21 22  0  0  0  0  0  0  0  0999 V2000
    9.4031    8.8799   23.3581 C   0  0  0  0  0  0  0  0  0  0  0  0
    8.5682    9.8124   24.0484 O   0  0  0  0  0  0  0  0  0  0  0  0
    9.2243   10.9090   24.4985 C   0  0  0  0  0  0  0  0  0  0  0  0
   10.4187   11.1389   24.3919 O   0  0  0  0  0  0  0  0  0  0  0  0
    8.2424   11.8350   25.1102 C   0  0  0  0  0  0  0  0  0  0  0  0
    7.1618   11.3192   25.8404 C   0  0  0  0  0  0  0  0  0  0  0  0
    6.3365   12.2080   26.5209 C   0  0  0  0  0  0  0  0  0  0  0  0
    5.3699   11.8296   27.5936 C   0  0  0  0  0  0  0  0  0  0  0  0
    4.4702   10.6450   27.5330 C   0  0  0  0  0  0  0  0  0  0  0  0
    3.9100   12.0280   27.3083 C   0  0  0  0  0  0  0  0  0  0  0  0
    6.4793   13.5402   26.3866 N   0  0  0  0  0  0  0  0  0  0  0  0
    7.5022   14.0085   25.6624 C   0  0  0  0  0  0  0  0  0  0  0  0
    8.4452   13.2192   25.0266 C   0  0  0  0  0  0  0  0  0  0  0  0
    9.5499   13.7974   24.3806 N   0  0  0  0  0  0  0  0  0  0  0  0
   10.5325   14.2960   25.2970 N   0  0  0  0  0  0  0  0  0  0  0  0
    9.3015   14.5406   23.0759 C   0  0  0  0  0  0  0  0  0  0  0  0
    9.1435   16.0460   23.3053 C   0  0  0  0  0  0  0  0  0  0  0  0
    8.0777   13.9988   22.3266 C   0  0  0  0  0  0  0  0  0  0  0  0
   10.5518   14.3508   22.1797 C   0  0  0  0  0  0  0  0  0  0  0  0
   10.7720   14.9816   21.1554 O   0  0  0  0  0  0  0  0  0  0  0  0
   11.4330   13.4507   22.6905 O   0  0  0  0  0  0  0  0  0  0  0  0
  1  2  1  0
  2  3  1  0
  3  4  2  0
  3  5  1  0
  5  6  2  0
  6  7  1  0
  7  8  1  0
  8  9  1  0
  9 10  1  0
  7 11  2  0
 11 12  1  0
 12 13  2  0
 13 14  1  0
 14 15  1  0
 14 16  1  0
 16 17  1  0
 16 18  1  0
 16 19  1  0
 19 20  2  0
 19 21  1  0
 13  5  1  0
 10  8  1  0
M  END
>  <energy_score>  (3185) 
-50.030576

>  <inchikey>  (3185) 
RATLKYKTFXNPCC-UHFFFAOYSA-N

>  <smiles>  (3185) 
COC(=O)c1cc(C2CC2)ncc1N(N)C(C)(C)C(=O)O

>  <ref_pdb>  (3185) 
A0528a

>  <alias>  (3185) 
RATLKYKTFXNPCC-UHFFFAOYSA-N-P308-P15-P308-601501

>  <HIPPO Pose ID>  (3185) 
501979

>  <name>  (3185) 
RATLKYKTFXNPCC-UHFFFAOYSA-N-P308-P15-P308-601501

>  <HIPPO Compound ID>  (3185) 
292703

>  <ref_mols>  (3185) 
A4331a,A0514a

>  <distance_score>  (3185) 
1.720243

>  <inspiration_score>  (3185) 
None

$$$$
RPYJVMKPRRIJEF-UHFFFAOYSA-N-P15-P15-P308-601501
     RDKit          3D

 21 22  0  0  0  0  0  0  0  0999 V2000
    9.6326    8.3627   23.3825 C   0  0  0  0  0  0  0  0  0  0  0  0
    8.7296    9.1005   24.2011 O   0  0  0  0  0  0  0  0  0  0  0  0
    8.7311   10.3986   23.8279 C   0  0  0  0  0  0  0  0  0  0  0  0
    9.3204   10.8375   22.8565 O   0  0  0  0  0  0  0  0  0  0  0  0
    7.9465   11.2274   24.7635 C   0  0  0  0  0  0  0  0  0  0  0  0
    6.9157   10.6749   25.5283 C   0  0  0  0  0  0  0  0  0  0  0  0
    6.2127   11.5025   26.3943 C   0  0  0  0  0  0  0  0  0  0  0  0
    5.1754   10.9845   27.3508 C   0  0  0  0  0  0  0  0  0  0  0  0
    3.9841   11.8498   27.7053 C   0  0  0  0  0  0  0  0  0  0  0  0
    5.0738   11.6492   28.7111 C   0  0  0  0  0  0  0  0  0  0  0  0
    6.4854   12.8268   26.4753 N   0  0  0  0  0  0  0  0  0  0  0  0
    7.4635   13.3353   25.7129 C   0  0  0  0  0  0  0  0  0  0  0  0
    8.2503   12.5907   24.8532 C   0  0  0  0  0  0  0  0  0  0  0  0
    9.3446   13.1542   24.1812 N   0  0  0  0  0  0  0  0  0  0  0  0
   10.5321   13.0341   24.9363 N   0  0  0  0  0  0  0  0  0  0  0  0
    9.1025   14.3632   23.3400 C   0  0  2  0  0  0  0  0  0  0  0  0
    7.7822   14.2479   22.5480 C   0  0  0  0  0  0  0  0  0  0  0  0
   10.3215   14.7185   22.3813 C   0  0  0  0  0  0  0  0  0  0  0  0
    9.9930   15.7966   21.3118 C   0  0  0  0  0  0  0  0  0  0  0  0
   11.7002   14.9718   23.0382 C   0  0  0  0  0  0  0  0  0  0  0  0
   10.6437   13.5555   21.5057 C   0  0  0  0  0  0  0  0  0  0  0  0
  1  2  1  0
  2  3  1  0
  3  4  2  0
  3  5  1  0
  5  6  2  0
  6  7  1  0
  7  8  1  0
  8  9  1  0
  9 10  1  0
  7 11  2  0
 11 12  1  0
 12 13  2  0
 13 14  1  0
 14 15  1  0
 14 16  1  0
 16 17  1  6
 16 18  1  0
 18 19  1  0
 18 20  1  0
 18 21  1  0
 13  5  1  0
 10  8  1  0
M  END
>  <energy_score>  (3186) 
-29.546439

>  <inchikey>  (3186) 
RPYJVMKPRRIJEF-UHFFFAOYSA-N

>  <smiles>  (3186) 
COC(=O)c1cc(C2CC2)ncc1N(N)C(C)C(C)(C)C

>  <ref_pdb>  (3186) 
A0528a

>  <alias>  (3186) 
RPYJVMKPRRIJEF-UHFFFAOYSA-N-P15-P15-P308-601501

>  <HIPPO Pose ID>  (3186) 
501984

>  <name>  (3186) 
RPYJVMKPRRIJEF-UHFFFAOYSA-N-P15-P15-P308-601501

>  <HIPPO Compound ID>  (3186) 
292706

>  <ref_mols>  (3186) 
A4331a,A0514a

>  <distance_score>  (3186) 
1.630131

>  <inspiration_score>  (3186) 
None

$$$$
RPYJVMKPRRIJEF-UHFFFAOYSA-N-P308-P15-P308-601501
     RDKit          3D

 21 22  0  0  0  0  0  0  0  0999 V2000
    9.1836    8.6874   23.2727 C   0  0  0  0  0  0  0  0  0  0  0  0
    8.3028    9.5640   23.9777 O   0  0  0  0  0  0  0  0  0  0  0  0
    8.9513   10.5530   24.6312 C   0  0  0  0  0  0  0  0  0  0  0  0
   10.1610   10.6790   24.7550 O   0  0  0  0  0  0  0  0  0  0  0  0
    7.9507   11.4923   25.1880 C   0  0  0  0  0  0  0  0  0  0  0  0
    6.8838   11.0073   25.9507 C   0  0  0  0  0  0  0  0  0  0  0  0
    6.0993   11.9228   26.6497 C   0  0  0  0  0  0  0  0  0  0  0  0
    5.1817   11.5866   27.7800 C   0  0  0  0  0  0  0  0  0  0  0  0
    4.2231   10.4486   27.7867 C   0  0  0  0  0  0  0  0  0  0  0  0
    3.7177   11.8562   27.5835 C   0  0  0  0  0  0  0  0  0  0  0  0
    6.2561   13.2509   26.4940 N   0  0  0  0  0  0  0  0  0  0  0  0
    7.2363   13.6880   25.7004 C   0  0  0  0  0  0  0  0  0  0  0  0
    8.1389   12.8688   25.0389 C   0  0  0  0  0  0  0  0  0  0  0  0
    9.2054   13.4140   24.3037 N   0  0  0  0  0  0  0  0  0  0  0  0
   10.4026   13.4689   25.0723 N   0  0  0  0  0  0  0  0  0  0  0  0
    8.8617   14.5590   23.4018 C   0  0  2  0  0  0  0  0  0  0  0  0
    7.6589   14.1743   22.5066 C   0  0  0  0  0  0  0  0  0  0  0  0
   10.0943   15.0422   22.5506 C   0  0  0  0  0  0  0  0  0  0  0  0
   11.0364   15.9075   23.4048 C   0  0  0  0  0  0  0  0  0  0  0  0
   10.9124   13.8778   21.9817 C   0  0  0  0  0  0  0  0  0  0  0  0
    9.6345   15.9174   21.3636 C   0  0  0  0  0  0  0  0  0  0  0  0
  1  2  1  0
  2  3  1  0
  3  4  2  0
  3  5  1  0
  5  6  2  0
  6  7  1  0
  7  8  1  0
  8  9  1  0
  9 10  1  0
  7 11  2  0
 11 12  1  0
 12 13  2  0
 13 14  1  0
 14 15  1  0
 14 16  1  0
 16 17  1  6
 16 18  1  0
 18 19  1  0
 18 20  1  0
 18 21  1  0
 13  5  1  0
 10  8  1  0
M  END
>  <energy_score>  (3187) 
-45.219512

>  <inchikey>  (3187) 
RPYJVMKPRRIJEF-UHFFFAOYSA-N

>  <smiles>  (3187) 
COC(=O)c1cc(C2CC2)ncc1N(N)C(C)C(C)(C)C

>  <ref_pdb>  (3187) 
A0528a

>  <alias>  (3187) 
RPYJVMKPRRIJEF-UHFFFAOYSA-N-P308-P15-P308-601501

>  <HIPPO Pose ID>  (3187) 
501985

>  <name>  (3187) 
RPYJVMKPRRIJEF-UHFFFAOYSA-N-P308-P15-P308-601501

>  <HIPPO Compound ID>  (3187) 
292706

>  <ref_mols>  (3187) 
A4331a,A0514a

>  <distance_score>  (3187) 
1.583796

>  <inspiration_score>  (3187) 
None

$$$$
WGPHOPSQLYWLFN-UHFFFAOYSA-N-P15-P15-P308-601501
     RDKit          3D

 21 22  0  0  0  0  0  0  0  0999 V2000
    9.6597    8.9953   22.9436 C   0  0  0  0  0  0  0  0  0  0  0  0
    9.1791   10.2069   23.5241 O   0  0  0  0  0  0  0  0  0  0  0  0
    8.2243   10.0166   24.4517 C   0  0  0  0  0  0  0  0  0  0  0  0
    7.7688    8.9300   24.7785 O   0  0  0  0  0  0  0  0  0  0  0  0
    7.7115   11.2536   25.0790 C   0  0  0  0  0  0  0  0  0  0  0  0
    6.5453   11.0470   25.8322 C   0  0  0  0  0  0  0  0  0  0  0  0
    6.0067   12.0845   26.5660 C   0  0  0  0  0  0  0  0  0  0  0  0
    4.8124   11.8858   27.4508 C   0  0  0  0  0  0  0  0  0  0  0  0
    3.5872   12.7385   27.2351 C   0  0  0  0  0  0  0  0  0  0  0  0
    4.4425   12.9684   28.4434 C   0  0  0  0  0  0  0  0  0  0  0  0
    6.5681   13.3098   26.5328 N   0  0  0  0  0  0  0  0  0  0  0  0
    7.6693   13.5011   25.7877 C   0  0  0  0  0  0  0  0  0  0  0  0
    8.3237   12.5160   25.0636 C   0  0  0  0  0  0  0  0  0  0  0  0
    9.5325   12.8076   24.4142 N   0  0  0  0  0  0  0  0  0  0  0  0
   10.5583   13.4555   25.1333 N   0  0  0  0  0  0  0  0  0  0  0  0
    9.3897   13.0185   22.9678 C   0  0  0  0  0  0  0  0  0  0  0  0
    9.3757   14.4706   22.5282 C   0  0  0  0  0  0  0  0  0  0  0  0
    9.6338   14.5360   21.1327 O   0  0  0  0  0  0  0  0  0  0  0  0
   10.7284   15.3838   20.7448 C   0  0  0  0  0  0  0  0  0  0  0  0
   12.0470   14.9697   21.3991 C   0  0  0  0  0  0  0  0  0  0  0  0
   10.8551   15.2950   19.2275 C   0  0  0  0  0  0  0  0  0  0  0  0
  1  2  1  0
  2  3  1  0
  3  4  2  0
  3  5  1  0
  5  6  2  0
  6  7  1  0
  7  8  1  0
  8  9  1  0
  9 10  1  0
  7 11  2  0
 11 12  1  0
 12 13  2  0
 13 14  1  0
 14 15  1  0
 14 16  1  0
 16 17  1  0
 17 18  1  0
 18 19  1  0
 19 20  1  0
 19 21  1  0
 13  5  1  0
 10  8  1  0
M  END
>  <energy_score>  (3188) 
-26.624771

>  <inchikey>  (3188) 
WGPHOPSQLYWLFN-UHFFFAOYSA-N

>  <smiles>  (3188) 
COC(=O)c1cc(C2CC2)ncc1N(N)CCOC(C)C

>  <ref_pdb>  (3188) 
A0528a

>  <alias>  (3188) 
WGPHOPSQLYWLFN-UHFFFAOYSA-N-P15-P15-P308-601501

>  <HIPPO Pose ID>  (3188) 
501986

>  <name>  (3188) 
WGPHOPSQLYWLFN-UHFFFAOYSA-N-P15-P15-P308-601501

>  <HIPPO Compound ID>  (3188) 
292707

>  <ref_mols>  (3188) 
A4331a,A0514a

>  <distance_score>  (3188) 
1.44908

>  <inspiration_score>  (3188) 
None

$$$$
WGPHOPSQLYWLFN-UHFFFAOYSA-N-P308-P15-P308-601501
     RDKit          3D

 21 22  0  0  0  0  0  0  0  0999 V2000
    9.4505    8.6368   23.0955 C   0  0  0  0  0  0  0  0  0  0  0  0
    8.6199    9.5587   23.7909 O   0  0  0  0  0  0  0  0  0  0  0  0
    9.3008   10.4789   24.5145 C   0  0  0  0  0  0  0  0  0  0  0  0
   10.5086   10.5286   24.6778 O   0  0  0  0  0  0  0  0  0  0  0  0
    8.3085   11.4417   25.0436 C   0  0  0  0  0  0  0  0  0  0  0  0
    7.1150   10.9393   25.5855 C   0  0  0  0  0  0  0  0  0  0  0  0
    6.2322   11.8190   26.1941 C   0  0  0  0  0  0  0  0  0  0  0  0
    5.0527   11.3574   27.0058 C   0  0  0  0  0  0  0  0  0  0  0  0
    3.8728   12.2797   27.2274 C   0  0  0  0  0  0  0  0  0  0  0  0
    4.8306   12.0320   28.3487 C   0  0  0  0  0  0  0  0  0  0  0  0
    6.4744   13.1482   26.1905 N   0  0  0  0  0  0  0  0  0  0  0  0
    7.6116   13.6096   25.6458 C   0  0  0  0  0  0  0  0  0  0  0  0
    8.5953   12.8123   25.0861 C   0  0  0  0  0  0  0  0  0  0  0  0
    9.8039   13.3695   24.6219 N   0  0  0  0  0  0  0  0  0  0  0  0
   10.3373   14.4572   25.3640 N   0  0  0  0  0  0  0  0  0  0  0  0
    9.8550   13.4611   23.1462 C   0  0  0  0  0  0  0  0  0  0  0  0
    9.2152   14.7277   22.5721 C   0  0  0  0  0  0  0  0  0  0  0  0
    9.4846   14.7790   21.1716 O   0  0  0  0  0  0  0  0  0  0  0  0
   10.4665   15.7425   20.7687 C   0  0  0  0  0  0  0  0  0  0  0  0
   11.8236   15.5559   21.4420 C   0  0  0  0  0  0  0  0  0  0  0  0
   10.6261   15.6077   19.2580 C   0  0  0  0  0  0  0  0  0  0  0  0
  1  2  1  0
  2  3  1  0
  3  4  2  0
  3  5  1  0
  5  6  2  0
  6  7  1  0
  7  8  1  0
  8  9  1  0
  9 10  1  0
  7 11  2  0
 11 12  1  0
 12 13  2  0
 13 14  1  0
 14 15  1  0
 14 16  1  0
 16 17  1  0
 17 18  1  0
 18 19  1  0
 19 20  1  0
 19 21  1  0
 13  5  1  0
 10  8  1  0
M  END
>  <energy_score>  (3189) 
-35.194503

>  <inchikey>  (3189) 
WGPHOPSQLYWLFN-UHFFFAOYSA-N

>  <smiles>  (3189) 
COC(=O)c1cc(C2CC2)ncc1N(N)CCOC(C)C

>  <ref_pdb>  (3189) 
A0528a

>  <alias>  (3189) 
WGPHOPSQLYWLFN-UHFFFAOYSA-N-P308-P15-P308-601501

>  <HIPPO Pose ID>  (3189) 
501987

>  <name>  (3189) 
WGPHOPSQLYWLFN-UHFFFAOYSA-N-P308-P15-P308-601501

>  <HIPPO Compound ID>  (3189) 
292707

>  <ref_mols>  (3189) 
A4331a,A0514a

>  <distance_score>  (3189) 
1.424108

>  <inspiration_score>  (3189) 
None

$$$$
STBYMXFWAWFVKV-UHFFFAOYSA-N-P15-P15-P308-601501
     RDKit          3D

 21 23  0  0  0  0  0  0  0  0999 V2000
    9.4422    8.6189   22.9151 C   0  0  0  0  0  0  0  0  0  0  0  0
    8.6018    9.5404   23.6030 O   0  0  0  0  0  0  0  0  0  0  0  0
    9.2111   10.7154   23.8714 C   0  0  0  0  0  0  0  0  0  0  0  0
   10.3759   10.9844   23.6452 O   0  0  0  0  0  0  0  0  0  0  0  0
    8.2715   11.6389   24.5345 C   0  0  0  0  0  0  0  0  0  0  0  0
    7.2184   11.0807   25.2842 C   0  0  0  0  0  0  0  0  0  0  0  0
    6.4059   11.9095   26.0416 C   0  0  0  0  0  0  0  0  0  0  0  0
    5.3938   11.3718   27.0178 C   0  0  0  0  0  0  0  0  0  0  0  0
    4.2003   12.2106   27.4187 C   0  0  0  0  0  0  0  0  0  0  0  0
    5.3279   12.0246   28.3855 C   0  0  0  0  0  0  0  0  0  0  0  0
    6.5776   13.2484   26.0053 N   0  0  0  0  0  0  0  0  0  0  0  0
    7.5691   13.7693   25.2589 C   0  0  0  0  0  0  0  0  0  0  0  0
    8.4897   13.0239   24.5373 C   0  0  0  0  0  0  0  0  0  0  0  0
    9.6225   13.7218   24.0227 N   0  0  0  0  0  0  0  0  0  0  0  0
   10.7743   13.5824   24.8557 N   0  0  0  0  0  0  0  0  0  0  0  0
    9.9570   13.7805   22.5961 C   0  0  0  0  0  0  0  0  0  0  0  0
   11.1199   14.7640   22.3075 C   0  0  0  0  0  0  0  0  0  0  0  0
   10.2883   15.3942   20.9042 S   0  0  0  0  0  0  0  0  0  0  0  0
   10.0353   16.8115   20.8752 O   0  0  0  0  0  0  0  0  0  0  0  0
   10.8104   14.7096   19.7495 O   0  0  0  0  0  0  0  0  0  0  0  0
    8.9588   14.5730   21.7425 C   0  0  0  0  0  0  0  0  0  0  0  0
  1  2  1  0
  2  3  1  0
  3  4  2  0
  3  5  1  0
  5  6  2  0
  6  7  1  0
  7  8  1  0
  8  9  1  0
  9 10  1  0
  7 11  2  0
 11 12  1  0
 12 13  2  0
 13 14  1  0
 14 15  1  0
 14 16  1  0
 16 17  1  0
 17 18  1  0
 18 19  2  0
 18 20  2  0
 18 21  1  0
 13  5  1  0
 21 16  1  0
 10  8  1  0
M  END
>  <energy_score>  (3190) 
-31.593362

>  <inchikey>  (3190) 
STBYMXFWAWFVKV-UHFFFAOYSA-N

>  <smiles>  (3190) 
COC(=O)c1cc(C2CC2)ncc1N(N)C1CS(=O)(=O)C1

>  <ref_pdb>  (3190) 
A0528a

>  <alias>  (3190) 
STBYMXFWAWFVKV-UHFFFAOYSA-N-P15-P15-P308-601501

>  <HIPPO Pose ID>  (3190) 
501988

>  <name>  (3190) 
STBYMXFWAWFVKV-UHFFFAOYSA-N-P15-P15-P308-601501

>  <HIPPO Compound ID>  (3190) 
292708

>  <ref_mols>  (3190) 
A4331a,A0514a

>  <distance_score>  (3190) 
1.679697

>  <inspiration_score>  (3190) 
None

$$$$
STBYMXFWAWFVKV-UHFFFAOYSA-N-P308-P15-P308-601501
     RDKit          3D

 21 23  0  0  0  0  0  0  0  0999 V2000
    9.3982    8.5743   23.0789 C   0  0  0  0  0  0  0  0  0  0  0  0
    8.5560    9.4793   23.7829 O   0  0  0  0  0  0  0  0  0  0  0  0
    9.2327   10.4081   24.4963 C   0  0  0  0  0  0  0  0  0  0  0  0
   10.4400   10.4779   24.6489 O   0  0  0  0  0  0  0  0  0  0  0  0
    8.2403   11.3704   25.0157 C   0  0  0  0  0  0  0  0  0  0  0  0
    7.0716   10.8734   25.6102 C   0  0  0  0  0  0  0  0  0  0  0  0
    6.2002   11.7635   26.2205 C   0  0  0  0  0  0  0  0  0  0  0  0
    5.0397   11.3185   27.0677 C   0  0  0  0  0  0  0  0  0  0  0  0
    3.8568   12.2381   27.2824 C   0  0  0  0  0  0  0  0  0  0  0  0
    4.8364   12.0315   28.3934 C   0  0  0  0  0  0  0  0  0  0  0  0
    6.4359   13.0935   26.1771 N   0  0  0  0  0  0  0  0  0  0  0  0
    7.5452   13.5499   25.5785 C   0  0  0  0  0  0  0  0  0  0  0  0
    8.5074   12.7425   24.9985 C   0  0  0  0  0  0  0  0  0  0  0  0
    9.6614   13.3112   24.4073 N   0  0  0  0  0  0  0  0  0  0  0  0
   10.3402   14.2971   25.1596 N   0  0  0  0  0  0  0  0  0  0  0  0
    9.8207   13.2968   22.9534 C   0  0  0  0  0  0  0  0  0  0  0  0
   11.0970   13.9781   22.4245 C   0  0  0  0  0  0  0  0  0  0  0  0
   10.1985   15.4424   22.0669 S   0  0  0  0  0  0  0  0  0  0  0  0
   10.2114   16.3561   23.1916 O   0  0  0  0  0  0  0  0  0  0  0  0
   10.3833   15.8477   20.6920 O   0  0  0  0  0  0  0  0  0  0  0  0
    8.8781   14.2841   22.2264 C   0  0  0  0  0  0  0  0  0  0  0  0
  1  2  1  0
  2  3  1  0
  3  4  2  0
  3  5  1  0
  5  6  2  0
  6  7  1  0
  7  8  1  0
  8  9  1  0
  9 10  1  0
  7 11  2  0
 11 12  1  0
 12 13  2  0
 13 14  1  0
 14 15  1  0
 14 16  1  0
 16 17  1  0
 17 18  1  0
 18 19  2  0
 18 20  2  0
 18 21  1  0
 13  5  1  0
 21 16  1  0
 10  8  1  0
M  END
>  <energy_score>  (3191) 
-31.95882

>  <inchikey>  (3191) 
STBYMXFWAWFVKV-UHFFFAOYSA-N

>  <smiles>  (3191) 
COC(=O)c1cc(C2CC2)ncc1N(N)C1CS(=O)(=O)C1

>  <ref_pdb>  (3191) 
A0528a

>  <alias>  (3191) 
STBYMXFWAWFVKV-UHFFFAOYSA-N-P308-P15-P308-601501

>  <HIPPO Pose ID>  (3191) 
501989

>  <name>  (3191) 
STBYMXFWAWFVKV-UHFFFAOYSA-N-P308-P15-P308-601501

>  <HIPPO Compound ID>  (3191) 
292708

>  <ref_mols>  (3191) 
A4331a,A0514a

>  <distance_score>  (3191) 
1.689654

>  <inspiration_score>  (3191) 
None

$$$$
ZLZFDSUGPROCDK-UHFFFAOYSA-N-P15-P15-P308-601501
     RDKit          3D

 21 23  0  0  0  0  0  0  0  0999 V2000
    9.3844    8.4516   23.3976 C   0  0  0  0  0  0  0  0  0  0  0  0
    8.5772    9.2164   24.2981 O   0  0  0  0  0  0  0  0  0  0  0  0
    8.5727   10.5208   23.9472 C   0  0  0  0  0  0  0  0  0  0  0  0
    9.1021   10.9674   22.9448 O   0  0  0  0  0  0  0  0  0  0  0  0
    7.8680   11.3613   24.9337 C   0  0  0  0  0  0  0  0  0  0  0  0
    6.7704   10.8907   25.6599 C   0  0  0  0  0  0  0  0  0  0  0  0
    6.1159   11.7814   26.5077 C   0  0  0  0  0  0  0  0  0  0  0  0
    4.8914   11.4672   27.2960 C   0  0  0  0  0  0  0  0  0  0  0  0
    4.8526   10.4238   28.3676 C   0  0  0  0  0  0  0  0  0  0  0  0
    4.8944   11.8702   28.7574 C   0  0  0  0  0  0  0  0  0  0  0  0
    6.5371   13.0532   26.6723 N   0  0  0  0  0  0  0  0  0  0  0  0
    7.5827   13.4776   25.9623 C   0  0  0  0  0  0  0  0  0  0  0  0
    8.2869   12.6894   25.0692 C   0  0  0  0  0  0  0  0  0  0  0  0
    9.3628   13.2164   24.3320 N   0  0  0  0  0  0  0  0  0  0  0  0
   10.5614   13.2720   25.0871 N   0  0  0  0  0  0  0  0  0  0  0  0
    8.9900   14.3820   23.4972 C   0  0  2  0  0  0  0  0  0  0  0  0
    7.6868   14.1753   22.7006 C   0  0  0  0  0  0  0  0  0  0  0  0
   10.0790   14.7970   22.4913 C   0  0  0  0  0  0  0  0  0  0  0  0
   11.6457   14.8916   22.6673 C   0  0  0  0  0  0  0  0  0  0  0  0
   11.7082   14.5372   21.1712 C   0  0  0  0  0  0  0  0  0  0  0  0
   10.4166   13.7612   21.4464 C   0  0  0  0  0  0  0  0  0  0  0  0
  1  2  1  0
  2  3  1  0
  3  4  2  0
  3  5  1  0
  5  6  2  0
  6  7  1  0
  7  8  1  0
  8  9  1  0
  9 10  1  0
  7 11  2  0
 11 12  1  0
 12 13  2  0
 13 14  1  0
 14 15  1  0
 14 16  1  0
 16 17  1  6
 16 18  1  0
 18 19  1  0
 19 20  1  0
 20 21  1  0
 13  5  1  0
 21 18  1  0
 10  8  1  0
M  END
>  <energy_score>  (3192) 
-55.379644

>  <inchikey>  (3192) 
ZLZFDSUGPROCDK-UHFFFAOYSA-N

>  <smiles>  (3192) 
COC(=O)c1cc(C2CC2)ncc1N(N)C(C)C1CCC1

>  <ref_pdb>  (3192) 
A0528a

>  <alias>  (3192) 
ZLZFDSUGPROCDK-UHFFFAOYSA-N-P15-P15-P308-601501

>  <HIPPO Pose ID>  (3192) 
501990

>  <name>  (3192) 
ZLZFDSUGPROCDK-UHFFFAOYSA-N-P15-P15-P308-601501

>  <HIPPO Compound ID>  (3192) 
292709

>  <ref_mols>  (3192) 
A4331a,A0514a

>  <distance_score>  (3192) 
1.535998

>  <inspiration_score>  (3192) 
None

$$$$
ZLZFDSUGPROCDK-UHFFFAOYSA-N-P308-P15-P308-601501
     RDKit          3D

 21 23  0  0  0  0  0  0  0  0999 V2000
    9.2586    8.6804   23.1709 C   0  0  0  0  0  0  0  0  0  0  0  0
    8.4078    9.5930   23.8632 O   0  0  0  0  0  0  0  0  0  0  0  0
    9.0855   10.5559   24.5319 C   0  0  0  0  0  0  0  0  0  0  0  0
   10.2982   10.6235   24.6646 O   0  0  0  0  0  0  0  0  0  0  0  0
    8.1119   11.5167   25.1002 C   0  0  0  0  0  0  0  0  0  0  0  0
    6.9149   11.0556   25.6732 C   0  0  0  0  0  0  0  0  0  0  0  0
    6.0800   11.9780   26.2940 C   0  0  0  0  0  0  0  0  0  0  0  0
    4.7377   11.6921   26.8740 C   0  0  0  0  0  0  0  0  0  0  0  0
    4.4503   10.6879   27.9471 C   0  0  0  0  0  0  0  0  0  0  0  0
    4.5215   12.1390   28.3089 C   0  0  0  0  0  0  0  0  0  0  0  0
    6.4276   13.2746   26.4066 N   0  0  0  0  0  0  0  0  0  0  0  0
    7.5506   13.6943   25.8189 C   0  0  0  0  0  0  0  0  0  0  0  0
    8.4063   12.8847   25.0909 C   0  0  0  0  0  0  0  0  0  0  0  0
    9.4755   13.4413   24.3499 N   0  0  0  0  0  0  0  0  0  0  0  0
   10.6539   13.5631   25.1500 N   0  0  0  0  0  0  0  0  0  0  0  0
    9.0471   14.6169   23.5064 C   0  0  2  0  0  0  0  0  0  0  0  0
    8.0464   14.1512   22.4424 C   0  0  0  0  0  0  0  0  0  0  0  0
   10.2513   15.3501   22.8806 C   0  0  0  0  0  0  0  0  0  0  0  0
   11.2626   14.5566   22.0258 C   0  0  0  0  0  0  0  0  0  0  0  0
   10.6847   15.2189   20.7664 C   0  0  0  0  0  0  0  0  0  0  0  0
   10.0712   16.2997   21.6652 C   0  0  0  0  0  0  0  0  0  0  0  0
  1  2  1  0
  2  3  1  0
  3  4  2  0
  3  5  1  0
  5  6  2  0
  6  7  1  0
  7  8  1  0
  8  9  1  0
  9 10  1  0
  7 11  2  0
 11 12  1  0
 12 13  2  0
 13 14  1  0
 14 15  1  0
 14 16  1  0
 16 17  1  6
 16 18  1  0
 18 19  1  0
 19 20  1  0
 20 21  1  0
 13  5  1  0
 21 18  1  0
 10  8  1  0
M  END
>  <energy_score>  (3193) 
-64.968571

>  <inchikey>  (3193) 
ZLZFDSUGPROCDK-UHFFFAOYSA-N

>  <smiles>  (3193) 
COC(=O)c1cc(C2CC2)ncc1N(N)C(C)C1CCC1

>  <ref_pdb>  (3193) 
A0528a

>  <alias>  (3193) 
ZLZFDSUGPROCDK-UHFFFAOYSA-N-P308-P15-P308-601501

>  <HIPPO Pose ID>  (3193) 
501991

>  <name>  (3193) 
ZLZFDSUGPROCDK-UHFFFAOYSA-N-P308-P15-P308-601501

>  <HIPPO Compound ID>  (3193) 
292709

>  <ref_mols>  (3193) 
A4331a,A0514a

>  <distance_score>  (3193) 
1.55536

>  <inspiration_score>  (3193) 
None

$$$$
QPPYNFSHWBHVED-UHFFFAOYSA-N-P15-P15-P308-601501
     RDKit          3D

 21 23  0  0  0  0  0  0  0  0999 V2000
    9.1211    8.7572   23.0977 C   0  0  0  0  0  0  0  0  0  0  0  0
    8.3410    9.7272   23.8055 O   0  0  0  0  0  0  0  0  0  0  0  0
    9.0468   10.8462   24.1008 C   0  0  0  0  0  0  0  0  0  0  0  0
   10.2245   10.9852   23.8359 O   0  0  0  0  0  0  0  0  0  0  0  0
    8.2379   11.8560   24.8253 C   0  0  0  0  0  0  0  0  0  0  0  0
    7.0762   11.4017   25.4787 C   0  0  0  0  0  0  0  0  0  0  0  0
    6.3259   12.2947   26.2275 C   0  0  0  0  0  0  0  0  0  0  0  0
    5.0511   11.9367   26.9129 C   0  0  0  0  0  0  0  0  0  0  0  0
    4.9824   10.9344   28.0274 C   0  0  0  0  0  0  0  0  0  0  0  0
    4.8743   12.3952   28.3450 C   0  0  0  0  0  0  0  0  0  0  0  0
    6.7067   13.5772   26.3657 N   0  0  0  0  0  0  0  0  0  0  0  0
    7.8028   14.0007   25.7158 C   0  0  0  0  0  0  0  0  0  0  0  0
    8.6235   13.2119   24.9190 C   0  0  0  0  0  0  0  0  0  0  0  0
    9.6980   13.8858   24.2966 N   0  0  0  0  0  0  0  0  0  0  0  0
   10.8608   13.9878   25.1169 N   0  0  0  0  0  0  0  0  0  0  0  0
    9.8128   13.9037   22.7935 C   0  0  0  0  0  0  0  0  0  0  0  0
    8.4167   13.7146   22.1894 C   0  0  0  0  0  0  0  0  0  0  0  0
   11.0095   13.0415   22.3384 C   0  0  0  0  0  0  0  0  0  0  0  0
   11.9405   13.8967   21.4803 C   0  0  0  0  0  0  0  0  0  0  0  0
   11.0345   14.9364   20.9265 C   0  0  0  0  0  0  0  0  0  0  0  0
   10.2529   15.2266   22.1727 C   0  0  0  0  0  0  0  0  0  0  0  0
  1  2  1  0
  2  3  1  0
  3  4  2  0
  3  5  1  0
  5  6  2  0
  6  7  1  0
  7  8  1  0
  8  9  1  0
  9 10  1  0
  7 11  2  0
 11 12  1  0
 12 13  2  0
 13 14  1  0
 14 15  1  0
 14 16  1  0
 16 17  1  0
 16 18  1  0
 18 19  1  0
 19 20  1  0
 20 21  1  0
 13  5  1  0
 21 16  1  0
 10  8  1  0
M  END
>  <energy_score>  (3194) 
-15.195702

>  <inchikey>  (3194) 
QPPYNFSHWBHVED-UHFFFAOYSA-N

>  <smiles>  (3194) 
COC(=O)c1cc(C2CC2)ncc1N(N)C1(C)CCCC1

>  <ref_pdb>  (3194) 
A0528a

>  <alias>  (3194) 
QPPYNFSHWBHVED-UHFFFAOYSA-N-P15-P15-P308-601501

>  <HIPPO Pose ID>  (3194) 
501992

>  <name>  (3194) 
QPPYNFSHWBHVED-UHFFFAOYSA-N-P15-P15-P308-601501

>  <HIPPO Compound ID>  (3194) 
292710

>  <ref_mols>  (3194) 
A4331a,A0514a

>  <distance_score>  (3194) 
1.898227

>  <inspiration_score>  (3194) 
None

$$$$
QPPYNFSHWBHVED-UHFFFAOYSA-N-P308-P15-P308-601501
     RDKit          3D

 21 23  0  0  0  0  0  0  0  0999 V2000
    9.5025    8.7086   23.0964 C   0  0  0  0  0  0  0  0  0  0  0  0
    8.6797    9.6567   23.7660 O   0  0  0  0  0  0  0  0  0  0  0  0
    9.3575   10.5583   24.5147 C   0  0  0  0  0  0  0  0  0  0  0  0
   10.5617   10.5925   24.7154 O   0  0  0  0  0  0  0  0  0  0  0  0
    8.3648   11.4987   25.0748 C   0  0  0  0  0  0  0  0  0  0  0  0
    7.1954   10.9726   25.6429 C   0  0  0  0  0  0  0  0  0  0  0  0
    6.2833   11.8400   26.2249 C   0  0  0  0  0  0  0  0  0  0  0  0
    5.0698   11.3616   26.9706 C   0  0  0  0  0  0  0  0  0  0  0  0
    4.8291   11.8749   28.3740 C   0  0  0  0  0  0  0  0  0  0  0  0
    3.9488   12.3431   27.2591 C   0  0  0  0  0  0  0  0  0  0  0  0
    6.4988   13.1737   26.2121 N   0  0  0  0  0  0  0  0  0  0  0  0
    7.5999   13.6581   25.6161 C   0  0  0  0  0  0  0  0  0  0  0  0
    8.5849   12.8792   25.0364 C   0  0  0  0  0  0  0  0  0  0  0  0
    9.6749   13.4873   24.4190 N   0  0  0  0  0  0  0  0  0  0  0  0
   10.9157   13.4174   25.0825 N   0  0  0  0  0  0  0  0  0  0  0  0
    9.5098   14.2337   23.1391 C   0  0  0  0  0  0  0  0  0  0  0  0
    8.1801   13.8748   22.4334 C   0  0  0  0  0  0  0  0  0  0  0  0
   10.7188   13.9924   22.2119 C   0  0  0  0  0  0  0  0  0  0  0  0
   10.6975   15.1335   21.2054 C   0  0  0  0  0  0  0  0  0  0  0  0
    9.9619   16.2674   21.9149 C   0  0  0  0  0  0  0  0  0  0  0  0
    9.6130   15.7490   23.3152 C   0  0  0  0  0  0  0  0  0  0  0  0
  1  2  1  0
  2  3  1  0
  3  4  2  0
  3  5  1  0
  5  6  2  0
  6  7  1  0
  7  8  1  0
  8  9  1  0
  9 10  1  0
  7 11  2  0
 11 12  1  0
 12 13  2  0
 13 14  1  0
 14 15  1  0
 14 16  1  0
 16 17  1  0
 16 18  1  0
 18 19  1  0
 19 20  1  0
 20 21  1  0
 13  5  1  0
 21 16  1  0
 10  8  1  0
M  END
>  <energy_score>  (3195) 
-34.430078

>  <inchikey>  (3195) 
QPPYNFSHWBHVED-UHFFFAOYSA-N

>  <smiles>  (3195) 
COC(=O)c1cc(C2CC2)ncc1N(N)C1(C)CCCC1

>  <ref_pdb>  (3195) 
A0528a

>  <alias>  (3195) 
QPPYNFSHWBHVED-UHFFFAOYSA-N-P308-P15-P308-601501

>  <HIPPO Pose ID>  (3195) 
501993

>  <name>  (3195) 
QPPYNFSHWBHVED-UHFFFAOYSA-N-P308-P15-P308-601501

>  <HIPPO Compound ID>  (3195) 
292710

>  <ref_mols>  (3195) 
A4331a,A0514a

>  <distance_score>  (3195) 
1.60139

>  <inspiration_score>  (3195) 
None

$$$$
SJZQCLSPUKRPEA-UHFFFAOYSA-N-P15-P15-P308-601501
     RDKit          3D

 21 23  0  0  0  0  0  0  0  0999 V2000
    9.0558    8.4592   22.9763 C   0  0  0  0  0  0  0  0  0  0  0  0
    8.2340    9.2939   23.8010 O   0  0  0  0  0  0  0  0  0  0  0  0
    8.8816   10.4334   24.1279 C   0  0  0  0  0  0  0  0  0  0  0  0
   10.0380   10.6647   23.8127 O   0  0  0  0  0  0  0  0  0  0  0  0
    8.0244   11.3633   24.9167 C   0  0  0  0  0  0  0  0  0  0  0  0
    6.8854   10.9189   25.6004 C   0  0  0  0  0  0  0  0  0  0  0  0
    6.1666   11.8395   26.3632 C   0  0  0  0  0  0  0  0  0  0  0  0
    4.9410   11.5334   27.1537 C   0  0  0  0  0  0  0  0  0  0  0  0
    4.8923   10.5061   28.2409 C   0  0  0  0  0  0  0  0  0  0  0  0
    4.9455   11.9569   28.6105 C   0  0  0  0  0  0  0  0  0  0  0  0
    6.5376   13.1333   26.4604 N   0  0  0  0  0  0  0  0  0  0  0  0
    7.6053   13.5411   25.7763 C   0  0  0  0  0  0  0  0  0  0  0  0
    8.3892   12.7171   24.9883 C   0  0  0  0  0  0  0  0  0  0  0  0
    9.4753   13.2484   24.2956 N   0  0  0  0  0  0  0  0  0  0  0  0
   10.7208   13.1861   24.9883 N   0  0  0  0  0  0  0  0  0  0  0  0
    9.2311   14.3664   23.3606 C   0  0  2  0  0  0  0  0  0  0  0  0
    7.9211   14.2386   22.5704 C   0  0  0  0  0  0  0  0  0  0  0  0
   10.4170   14.4354   22.3929 C   0  0  0  0  0  0  0  0  0  0  0  0
   10.6557   13.1799   21.7188 C   0  0  0  0  0  0  0  0  0  0  0  0
   11.6799   15.2481   22.5297 C   0  0  0  0  0  0  0  0  0  0  0  0
   10.6532   15.6233   21.4931 C   0  0  0  0  0  0  0  0  0  0  0  0
  1  2  1  0
  2  3  1  0
  3  4  2  0
  3  5  1  0
  5  6  2  0
  6  7  1  0
  7  8  1  0
  8  9  1  0
  9 10  1  0
  7 11  2  0
 11 12  1  0
 12 13  2  0
 13 14  1  0
 14 15  1  0
 14 16  1  0
 16 17  1  6
 16 18  1  0
 18 19  1  0
 18 20  1  0
 20 21  1  0
 13  5  1  0
 21 18  1  0
 10  8  1  0
M  END
>  <energy_score>  (3196) 
-34.259739

>  <inchikey>  (3196) 
SJZQCLSPUKRPEA-UHFFFAOYSA-N

>  <smiles>  (3196) 
COC(=O)c1cc(C2CC2)ncc1N(N)C(C)C1(C)CC1

>  <ref_pdb>  (3196) 
A0528a

>  <alias>  (3196) 
SJZQCLSPUKRPEA-UHFFFAOYSA-N-P15-P15-P308-601501

>  <HIPPO Pose ID>  (3196) 
501994

>  <name>  (3196) 
SJZQCLSPUKRPEA-UHFFFAOYSA-N-P15-P15-P308-601501

>  <HIPPO Compound ID>  (3196) 
292711

>  <ref_mols>  (3196) 
A4331a,A0514a

>  <distance_score>  (3196) 
1.947491

>  <inspiration_score>  (3196) 
None

$$$$
SJZQCLSPUKRPEA-UHFFFAOYSA-N-P308-P15-P308-601501
     RDKit          3D

 21 23  0  0  0  0  0  0  0  0999 V2000
    9.5453    8.8581   23.2352 C   0  0  0  0  0  0  0  0  0  0  0  0
    8.6374    9.7320   23.9042 O   0  0  0  0  0  0  0  0  0  0  0  0
    9.2255   10.7982   24.5055 C   0  0  0  0  0  0  0  0  0  0  0  0
   10.4156   11.0569   24.5184 O   0  0  0  0  0  0  0  0  0  0  0  0
    8.1566   11.6038   25.1431 C   0  0  0  0  0  0  0  0  0  0  0  0
    7.0419   10.9465   25.6918 C   0  0  0  0  0  0  0  0  0  0  0  0
    6.0775   11.6882   26.3631 C   0  0  0  0  0  0  0  0  0  0  0  0
    4.9422   11.0652   27.1247 C   0  0  0  0  0  0  0  0  0  0  0  0
    4.7381   11.4709   28.5704 C   0  0  0  0  0  0  0  0  0  0  0  0
    3.7685   11.9399   27.5354 C   0  0  0  0  0  0  0  0  0  0  0  0
    6.1718   13.0309   26.4508 N   0  0  0  0  0  0  0  0  0  0  0  0
    7.2293   13.6419   25.9038 C   0  0  0  0  0  0  0  0  0  0  0  0
    8.2650   12.9943   25.2425 C   0  0  0  0  0  0  0  0  0  0  0  0
    9.3273   13.7565   24.6924 N   0  0  0  0  0  0  0  0  0  0  0  0
    9.9567   14.5253   25.7452 N   0  0  0  0  0  0  0  0  0  0  0  0
    8.8817   14.5491   23.4838 C   0  0  2  0  0  0  0  0  0  0  0  0
    7.8828   13.7699   22.6091 C   0  0  0  0  0  0  0  0  0  0  0  0
   10.0676   15.0243   22.6078 C   0  0  0  0  0  0  0  0  0  0  0  0
    9.6768   16.0756   21.5901 C   0  0  0  0  0  0  0  0  0  0  0  0
   11.0717   13.9995   22.1261 C   0  0  0  0  0  0  0  0  0  0  0  0
   11.5205   15.0501   23.0844 C   0  0  0  0  0  0  0  0  0  0  0  0
  1  2  1  0
  2  3  1  0
  3  4  2  0
  3  5  1  0
  5  6  2  0
  6  7  1  0
  7  8  1  0
  8  9  1  0
  9 10  1  0
  7 11  2  0
 11 12  1  0
 12 13  2  0
 13 14  1  0
 14 15  1  0
 14 16  1  0
 16 17  1  6
 16 18  1  0
 18 19  1  0
 18 20  1  0
 20 21  1  0
 13  5  1  0
 21 18  1  0
 10  8  1  0
M  END
>  <energy_score>  (3197) 
-45.636127

>  <inchikey>  (3197) 
SJZQCLSPUKRPEA-UHFFFAOYSA-N

>  <smiles>  (3197) 
COC(=O)c1cc(C2CC2)ncc1N(N)C(C)C1(C)CC1

>  <ref_pdb>  (3197) 
A0528a

>  <alias>  (3197) 
SJZQCLSPUKRPEA-UHFFFAOYSA-N-P308-P15-P308-601501

>  <HIPPO Pose ID>  (3197) 
501995

>  <name>  (3197) 
SJZQCLSPUKRPEA-UHFFFAOYSA-N-P308-P15-P308-601501

>  <HIPPO Compound ID>  (3197) 
292711

>  <ref_mols>  (3197) 
A4331a,A0514a

>  <distance_score>  (3197) 
1.795522

>  <inspiration_score>  (3197) 
None

$$$$
MRLCEMFEWNZJJS-UHFFFAOYSA-N-P15-P15-P308-601501
     RDKit          3D

 21 23  0  0  0  0  0  0  0  0999 V2000
    9.1841    8.5400   23.0287 C   0  0  0  0  0  0  0  0  0  0  0  0
    8.4039    9.4325   23.8303 O   0  0  0  0  0  0  0  0  0  0  0  0
    8.9914   10.6410   23.9708 C   0  0  0  0  0  0  0  0  0  0  0  0
   10.0926   10.9298   23.5341 O   0  0  0  0  0  0  0  0  0  0  0  0
    8.1305   11.5950   24.7188 C   0  0  0  0  0  0  0  0  0  0  0  0
    6.9458   11.1791   25.3422 C   0  0  0  0  0  0  0  0  0  0  0  0
    6.2054   12.1160   26.0589 C   0  0  0  0  0  0  0  0  0  0  0  0
    4.9790   11.8107   26.8505 C   0  0  0  0  0  0  0  0  0  0  0  0
    4.9413   10.7856   27.9446 C   0  0  0  0  0  0  0  0  0  0  0  0
    4.9810   12.2385   28.3063 C   0  0  0  0  0  0  0  0  0  0  0  0
    6.5654   13.4156   26.1106 N   0  0  0  0  0  0  0  0  0  0  0  0
    7.6958   13.7921   25.5067 C   0  0  0  0  0  0  0  0  0  0  0  0
    8.5574   12.9265   24.8587 C   0  0  0  0  0  0  0  0  0  0  0  0
    9.8703   13.3346   24.5492 N   0  0  0  0  0  0  0  0  0  0  0  0
   10.5979   13.9474   25.6220 N   0  0  0  0  0  0  0  0  0  0  0  0
   10.2336   13.8259   23.3221 C   0  0  0  0  0  0  0  0  0  0  0  0
    9.4783   14.3348   22.3688 N   0  0  0  0  0  0  0  0  0  0  0  0
   10.3382   14.8955   21.4057 C   0  0  0  0  0  0  0  0  0  0  0  0
    9.8153   15.6543   20.2652 C   0  0  0  0  0  0  0  0  0  0  0  0
   11.6530   14.8046   21.5443 N   0  0  0  0  0  0  0  0  0  0  0  0
   11.9068   13.8904   22.8798 S   0  0  0  0  0  0  0  0  0  0  0  0
  1  2  1  0
  2  3  1  0
  3  4  2  0
  3  5  1  0
  5  6  2  0
  6  7  1  0
  7  8  1  0
  8  9  1  0
  9 10  1  0
  7 11  2  0
 11 12  1  0
 12 13  2  0
 13 14  1  0
 14 15  1  0
 14 16  1  0
 16 17  2  0
 17 18  1  0
 18 19  1  0
 18 20  2  0
 20 21  1  0
 13  5  1  0
 21 16  1  0
 10  8  1  0
M  END
>  <energy_score>  (3198) 
-58.07239

>  <inchikey>  (3198) 
MRLCEMFEWNZJJS-UHFFFAOYSA-N

>  <smiles>  (3198) 
COC(=O)c1cc(C2CC2)ncc1N(N)c1nc(C)ns1

>  <ref_pdb>  (3198) 
A0528a

>  <alias>  (3198) 
MRLCEMFEWNZJJS-UHFFFAOYSA-N-P15-P15-P308-601501

>  <HIPPO Pose ID>  (3198) 
501996

>  <name>  (3198) 
MRLCEMFEWNZJJS-UHFFFAOYSA-N-P15-P15-P308-601501

>  <HIPPO Compound ID>  (3198) 
292712

>  <ref_mols>  (3198) 
A4331a,A0514a

>  <distance_score>  (3198) 
1.677072

>  <inspiration_score>  (3198) 
None

$$$$
MRLCEMFEWNZJJS-UHFFFAOYSA-N-P308-P15-P308-601501
     RDKit          3D

 21 23  0  0  0  0  0  0  0  0999 V2000
    9.3619    8.6006   23.0695 C   0  0  0  0  0  0  0  0  0  0  0  0
    8.5382    9.5085   23.7938 O   0  0  0  0  0  0  0  0  0  0  0  0
    9.2362   10.4894   24.4088 C   0  0  0  0  0  0  0  0  0  0  0  0
   10.4489   10.6101   24.4393 O   0  0  0  0  0  0  0  0  0  0  0  0
    8.2793   11.4355   25.0197 C   0  0  0  0  0  0  0  0  0  0  0  0
    7.1210   10.9190   25.6211 C   0  0  0  0  0  0  0  0  0  0  0  0
    6.2416   11.7865   26.2533 C   0  0  0  0  0  0  0  0  0  0  0  0
    5.0358   11.3110   27.0131 C   0  0  0  0  0  0  0  0  0  0  0  0
    4.8039   11.8316   28.4155 C   0  0  0  0  0  0  0  0  0  0  0  0
    3.9170   12.2948   27.3039 C   0  0  0  0  0  0  0  0  0  0  0  0
    6.4810   13.1166   26.2751 N   0  0  0  0  0  0  0  0  0  0  0  0
    7.5749   13.5930   25.6625 C   0  0  0  0  0  0  0  0  0  0  0  0
    8.5176   12.8143   25.0121 C   0  0  0  0  0  0  0  0  0  0  0  0
    9.5771   13.4681   24.3596 N   0  0  0  0  0  0  0  0  0  0  0  0
   10.9063   13.2162   24.7768 N   0  0  0  0  0  0  0  0  0  0  0  0
    9.4757   14.0520   23.1198 C   0  0  0  0  0  0  0  0  0  0  0  0
   10.4948   14.3446   22.3316 N   0  0  0  0  0  0  0  0  0  0  0  0
   10.0293   14.9308   21.1565 C   0  0  0  0  0  0  0  0  0  0  0  0
   10.9607   15.3442   20.0760 C   0  0  0  0  0  0  0  0  0  0  0  0
    8.7183   15.1200   21.0130 N   0  0  0  0  0  0  0  0  0  0  0  0
    7.9915   14.5522   22.3854 S   0  0  0  0  0  0  0  0  0  0  0  0
  1  2  1  0
  2  3  1  0
  3  4  2  0
  3  5  1  0
  5  6  2  0
  6  7  1  0
  7  8  1  0
  8  9  1  0
  9 10  1  0
  7 11  2  0
 11 12  1  0
 12 13  2  0
 13 14  1  0
 14 15  1  0
 14 16  1  0
 16 17  2  0
 17 18  1  0
 18 19  1  0
 18 20  2  0
 20 21  1  0
 13  5  1  0
 21 16  1  0
 10  8  1  0
M  END
>  <energy_score>  (3199) 
-72.087408

>  <inchikey>  (3199) 
MRLCEMFEWNZJJS-UHFFFAOYSA-N

>  <smiles>  (3199) 
COC(=O)c1cc(C2CC2)ncc1N(N)c1nc(C)ns1

>  <ref_pdb>  (3199) 
A0528a

>  <alias>  (3199) 
MRLCEMFEWNZJJS-UHFFFAOYSA-N-P308-P15-P308-601501

>  <HIPPO Pose ID>  (3199) 
501997

>  <name>  (3199) 
MRLCEMFEWNZJJS-UHFFFAOYSA-N-P308-P15-P308-601501

>  <HIPPO Compound ID>  (3199) 
292712

>  <ref_mols>  (3199) 
A4331a,A0514a

>  <distance_score>  (3199) 
1.664565

>  <inspiration_score>  (3199) 
None

$$$$
BIKMZRNWTHFERG-UHFFFAOYSA-N-P15-P15-P308-601501
     RDKit          3D

 21 22  0  0  0  0  0  0  0  0999 V2000
    6.8680   14.1452   22.1795 C   0  0  0  0  0  0  0  0  0  0  0  0
    7.9401   14.9540   22.8357 C   0  0  0  0  0  0  0  0  0  0  0  0
    9.2454   14.2522   23.2668 C   0  0  2  0  0  0  0  0  0  0  0  0
   10.3453   14.3792   22.1966 C   0  0  0  0  0  0  0  0  0  0  0  0
   11.5473   14.3383   22.4398 O   0  0  0  0  0  0  0  0  0  0  0  0
    9.9062   14.4422   20.9330 O   0  0  0  0  0  0  0  0  0  0  0  0
    9.1552   12.8302   23.7480 N   0  0  0  0  0  0  0  0  0  0  0  0
   10.4219   12.2091   24.0283 N   0  0  0  0  0  0  0  0  0  0  0  0
    8.1822   12.4824   24.7089 C   0  0  0  0  0  0  0  0  0  0  0  0
    7.6473   13.4301   25.5768 C   0  0  0  0  0  0  0  0  0  0  0  0
    6.6928   13.2170   26.5030 N   0  0  0  0  0  0  0  0  0  0  0  0
    6.1568   11.9899   26.6078 C   0  0  0  0  0  0  0  0  0  0  0  0
    5.0566   11.7839   27.6048 C   0  0  0  0  0  0  0  0  0  0  0  0
    3.7548   12.5241   27.4185 C   0  0  0  0  0  0  0  0  0  0  0  0
    4.6746   12.9180   28.5335 C   0  0  0  0  0  0  0  0  0  0  0  0
    6.6425   10.9569   25.8367 C   0  0  0  0  0  0  0  0  0  0  0  0
    7.6841   11.1835   24.9151 C   0  0  0  0  0  0  0  0  0  0  0  0
    8.1613    9.9264   24.2971 C   0  0  0  0  0  0  0  0  0  0  0  0
    7.7644    8.8533   24.7266 O   0  0  0  0  0  0  0  0  0  0  0  0
    9.0492   10.0743   23.2998 O   0  0  0  0  0  0  0  0  0  0  0  0
    9.5681    8.8377   22.8141 C   0  0  0  0  0  0  0  0  0  0  0  0
  1  2  1  0
  3  2  1  6
  3  4  1  0
  4  5  2  0
  4  6  1  0
  3  7  1  0
  7  8  1  0
  7  9  1  0
  9 10  2  0
 10 11  1  0
 11 12  2  0
 12 13  1  0
 13 14  1  0
 14 15  1  0
 12 16  1  0
 16 17  2  0
 17 18  1  0
 18 19  2  0
 18 20  1  0
 20 21  1  0
 17  9  1  0
 15 13  1  0
M  END
>  <energy_score>  (3200) 
-36.850501

>  <inchikey>  (3200) 
BIKMZRNWTHFERG-UHFFFAOYSA-N

>  <smiles>  (3200) 
CCC(C(=O)O)N(N)c1cnc(C2CC2)cc1C(=O)OC

>  <ref_pdb>  (3200) 
A0528a

>  <alias>  (3200) 
BIKMZRNWTHFERG-UHFFFAOYSA-N-P15-P15-P308-601501

>  <HIPPO Pose ID>  (3200) 
502002

>  <name>  (3200) 
BIKMZRNWTHFERG-UHFFFAOYSA-N-P15-P15-P308-601501

>  <HIPPO Compound ID>  (3200) 
292715

>  <ref_mols>  (3200) 
A4331a,A0514a

>  <distance_score>  (3200) 
1.98654

>  <inspiration_score>  (3200) 
None

$$$$
BIKMZRNWTHFERG-UHFFFAOYSA-N-P308-P15-P308-601501
     RDKit          3D

 21 22  0  0  0  0  0  0  0  0999 V2000
   10.3638   14.4788   21.4669 C   0  0  0  0  0  0  0  0  0  0  0  0
    8.9947   14.5034   22.1265 C   0  0  0  0  0  0  0  0  0  0  0  0
    8.9750   14.4161   23.6533 C   0  0  2  0  0  0  0  0  0  0  0  0
    9.9223   15.3656   24.3859 C   0  0  0  0  0  0  0  0  0  0  0  0
    9.5810   16.2980   25.1007 O   0  0  0  0  0  0  0  0  0  0  0  0
   11.2395   15.0974   24.2399 O   0  0  0  0  0  0  0  0  0  0  0  0
    9.0959   12.9988   24.1365 N   0  0  0  0  0  0  0  0  0  0  0  0
   10.3567   12.3654   24.2386 N   0  0  0  0  0  0  0  0  0  0  0  0
    8.0579   12.4793   24.9324 C   0  0  0  0  0  0  0  0  0  0  0  0
    7.3242   13.3433   25.7476 C   0  0  0  0  0  0  0  0  0  0  0  0
    6.2793   13.0161   26.5223 N   0  0  0  0  0  0  0  0  0  0  0  0
    5.8712   11.7392   26.5482 C   0  0  0  0  0  0  0  0  0  0  0  0
    4.7326   11.4037   27.4636 C   0  0  0  0  0  0  0  0  0  0  0  0
    3.5252   12.3099   27.5066 C   0  0  0  0  0  0  0  0  0  0  0  0
    4.4826   12.3019   28.6588 C   0  0  0  0  0  0  0  0  0  0  0  0
    6.5395   10.7847   25.8093 C   0  0  0  0  0  0  0  0  0  0  0  0
    7.6577   11.1341   25.0234 C   0  0  0  0  0  0  0  0  0  0  0  0
    8.2718    9.9428   24.3864 C   0  0  0  0  0  0  0  0  0  0  0  0
    8.0025    8.8168   24.7867 O   0  0  0  0  0  0  0  0  0  0  0  0
    9.0621   10.2050   23.3264 O   0  0  0  0  0  0  0  0  0  0  0  0
    9.6247    9.0170   22.7680 C   0  0  0  0  0  0  0  0  0  0  0  0
  1  2  1  0
  3  2  1  6
  3  4  1  0
  4  5  2  0
  4  6  1  0
  3  7  1  0
  7  8  1  0
  7  9  1  0
  9 10  2  0
 10 11  1  0
 11 12  2  0
 12 13  1  0
 13 14  1  0
 14 15  1  0
 12 16  1  0
 16 17  2  0
 17 18  1  0
 18 19  2  0
 18 20  1  0
 20 21  1  0
 17  9  1  0
 15 13  1  0
M  END
>  <energy_score>  (3201) 
-40.672286

>  <inchikey>  (3201) 
BIKMZRNWTHFERG-UHFFFAOYSA-N

>  <smiles>  (3201) 
CCC(C(=O)O)N(N)c1cnc(C2CC2)cc1C(=O)OC

>  <ref_pdb>  (3201) 
A0528a

>  <alias>  (3201) 
BIKMZRNWTHFERG-UHFFFAOYSA-N-P308-P15-P308-601501

>  <HIPPO Pose ID>  (3201) 
502003

>  <name>  (3201) 
BIKMZRNWTHFERG-UHFFFAOYSA-N-P308-P15-P308-601501

>  <HIPPO Compound ID>  (3201) 
292715

>  <ref_mols>  (3201) 
A4331a,A0514a

>  <distance_score>  (3201) 
1.996832

>  <inspiration_score>  (3201) 
None

$$$$
CPLNXSMPWOHQST-UHFFFAOYSA-N-P15-P15-P308-601501
     RDKit          3D

 21 23  0  0  0  0  0  0  0  0999 V2000
    9.0947    8.2389   22.7326 C   0  0  0  0  0  0  0  0  0  0  0  0
    8.3116    9.1339   23.5074 O   0  0  0  0  0  0  0  0  0  0  0  0
    9.0967   10.1029   24.0168 C   0  0  0  0  0  0  0  0  0  0  0  0
   10.3066   10.1363   23.9030 O   0  0  0  0  0  0  0  0  0  0  0  0
    8.2729   11.1267   24.6883 C   0  0  0  0  0  0  0  0  0  0  0  0
    7.1619   10.6664   25.4104 C   0  0  0  0  0  0  0  0  0  0  0  0
    6.4591   11.5630   26.1973 C   0  0  0  0  0  0  0  0  0  0  0  0
    5.3838   11.0773   27.1335 C   0  0  0  0  0  0  0  0  0  0  0  0
    4.3234   11.9229   27.2361 F   0  0  0  0  0  0  0  0  0  0  0  0
    4.8677    9.8697   26.7702 F   0  0  0  0  0  0  0  0  0  0  0  0
    5.8485   10.8961   28.4050 F   0  0  0  0  0  0  0  0  0  0  0  0
    6.8029   12.8689   26.2614 N   0  0  0  0  0  0  0  0  0  0  0  0
    7.8536   13.2879   25.5221 C   0  0  0  0  0  0  0  0  0  0  0  0
    8.6564   12.4801   24.7168 C   0  0  0  0  0  0  0  0  0  0  0  0
    9.7942   13.0063   24.0753 N   0  0  0  0  0  0  0  0  0  0  0  0
   10.0692   12.6900   22.6829 C   0  0  0  0  0  0  0  0  0  0  0  0
    9.0841   13.6207   21.9931 C   0  0  0  0  0  0  0  0  0  0  0  0
    9.1917   14.8295   22.8466 C   0  0  0  0  0  0  0  0  0  0  0  0
   10.0286   14.4177   24.0280 N   0  0  0  0  0  0  0  0  0  0  0  0
   11.4350   14.4314   23.5195 C   0  0  0  0  0  0  0  0  0  0  0  0
   11.4701   13.2705   22.5486 C   0  0  0  0  0  0  0  0  0  0  0  0
  1  2  1  0
  2  3  1  0
  3  4  2  0
  3  5  1  0
  5  6  2  0
  6  7  1  0
  7  8  1  0
  8  9  1  0
  8 10  1  0
  8 11  1  0
  7 12  2  0
 12 13  1  0
 13 14  2  0
 14 15  1  0
 15 16  1  0
 16 17  1  0
 17 18  1  0
 18 19  1  0
 19 20  1  0
 20 21  1  0
 14  5  1  0
 19 15  1  0
 21 16  1  0
M  END
>  <energy_score>  (3202) 
-41.108292

>  <inchikey>  (3202) 
CPLNXSMPWOHQST-UHFFFAOYSA-N

>  <smiles>  (3202) 
COC(=O)c1cc(C(F)(F)F)ncc1N1C2CCN1CC2

>  <ref_pdb>  (3202) 
A0528a

>  <alias>  (3202) 
CPLNXSMPWOHQST-UHFFFAOYSA-N-P15-P15-P308-601501

>  <HIPPO Pose ID>  (3202) 
502004

>  <name>  (3202) 
CPLNXSMPWOHQST-UHFFFAOYSA-N-P15-P15-P308-601501

>  <HIPPO Compound ID>  (3202) 
292716

>  <ref_mols>  (3202) 
A4331a,A0514a

>  <distance_score>  (3202) 
1.746328

>  <inspiration_score>  (3202) 
None

$$$$
CPLNXSMPWOHQST-UHFFFAOYSA-N-P308-P15-P308-601501
     RDKit          3D

 21 23  0  0  0  0  0  0  0  0999 V2000
    9.4891    8.8044   23.1522 C   0  0  0  0  0  0  0  0  0  0  0  0
    8.7046    9.8595   23.7034 O   0  0  0  0  0  0  0  0  0  0  0  0
    9.4080   10.7785   24.4069 C   0  0  0  0  0  0  0  0  0  0  0  0
   10.6088   10.7802   24.6174 O   0  0  0  0  0  0  0  0  0  0  0  0
    8.4508   11.7901   24.9040 C   0  0  0  0  0  0  0  0  0  0  0  0
    7.2803   11.3117   25.5223 C   0  0  0  0  0  0  0  0  0  0  0  0
    6.4463   12.2213   26.1554 C   0  0  0  0  0  0  0  0  0  0  0  0
    5.2021   11.7896   26.8876 C   0  0  0  0  0  0  0  0  0  0  0  0
    5.0006   10.4481   26.8343 F   0  0  0  0  0  0  0  0  0  0  0  0
    5.2432   12.0815   28.2202 F   0  0  0  0  0  0  0  0  0  0  0  0
    4.0536   12.3465   26.4135 F   0  0  0  0  0  0  0  0  0  0  0  0
    6.7674   13.5334   26.2237 N   0  0  0  0  0  0  0  0  0  0  0  0
    7.8903   13.9589   25.6026 C   0  0  0  0  0  0  0  0  0  0  0  0
    8.7537   13.1624   24.8612 C   0  0  0  0  0  0  0  0  0  0  0  0
    9.8271   13.7110   24.1228 N   0  0  0  0  0  0  0  0  0  0  0  0
    9.8280   13.4547   22.6824 C   0  0  0  0  0  0  0  0  0  0  0  0
    8.8143   14.4846   22.1835 C   0  0  0  0  0  0  0  0  0  0  0  0
    9.1010   15.6662   23.1200 C   0  0  0  0  0  0  0  0  0  0  0  0
   10.1107   15.1415   24.1066 N   0  0  0  0  0  0  0  0  0  0  0  0
   11.3995   15.1273   23.3349 C   0  0  0  0  0  0  0  0  0  0  0  0
   11.2183   13.9752   22.3377 C   0  0  0  0  0  0  0  0  0  0  0  0
  1  2  1  0
  2  3  1  0
  3  4  2  0
  3  5  1  0
  5  6  2  0
  6  7  1  0
  7  8  1  0
  8  9  1  0
  8 10  1  0
  8 11  1  0
  7 12  2  0
 12 13  1  0
 13 14  2  0
 14 15  1  0
 15 16  1  0
 16 17  1  0
 17 18  1  0
 18 19  1  0
 19 20  1  0
 20 21  1  0
 14  5  1  0
 19 15  1  0
 21 16  1  0
M  END
>  <energy_score>  (3203) 
-45.500098

>  <inchikey>  (3203) 
CPLNXSMPWOHQST-UHFFFAOYSA-N

>  <smiles>  (3203) 
COC(=O)c1cc(C(F)(F)F)ncc1N1C2CCN1CC2

>  <ref_pdb>  (3203) 
A0528a

>  <alias>  (3203) 
CPLNXSMPWOHQST-UHFFFAOYSA-N-P308-P15-P308-601501

>  <HIPPO Pose ID>  (3203) 
502005

>  <name>  (3203) 
CPLNXSMPWOHQST-UHFFFAOYSA-N-P308-P15-P308-601501

>  <HIPPO Compound ID>  (3203) 
292716

>  <ref_mols>  (3203) 
A4331a,A0514a

>  <distance_score>  (3203) 
1.759012

>  <inspiration_score>  (3203) 
None

$$$$
FOIFAPNFGAGEIO-UHFFFAOYSA-N-P15-P15-P308-601501
     RDKit          3D

 22 23  0  0  0  0  0  0  0  0999 V2000
    9.3743    8.6798   23.0643 C   0  0  0  0  0  0  0  0  0  0  0  0
    8.5652    9.4719   23.9407 O   0  0  0  0  0  0  0  0  0  0  0  0
    8.9381   10.7717   24.0139 C   0  0  0  0  0  0  0  0  0  0  0  0
    9.8662   11.2670   23.4008 O   0  0  0  0  0  0  0  0  0  0  0  0
    8.0642   11.5186   24.9637 C   0  0  0  0  0  0  0  0  0  0  0  0
    6.9769   10.8771   25.5745 C   0  0  0  0  0  0  0  0  0  0  0  0
    6.1951   11.5854   26.4786 C   0  0  0  0  0  0  0  0  0  0  0  0
    5.1279   10.9391   27.3147 C   0  0  0  0  0  0  0  0  0  0  0  0
    3.9219   11.7465   27.7495 C   0  0  0  0  0  0  0  0  0  0  0  0
    4.9849   11.4141   28.7482 C   0  0  0  0  0  0  0  0  0  0  0  0
    6.4238   12.8956   26.7255 N   0  0  0  0  0  0  0  0  0  0  0  0
    7.4571   13.5005   26.1297 C   0  0  0  0  0  0  0  0  0  0  0  0
    8.3480   12.8613   25.2843 C   0  0  0  0  0  0  0  0  0  0  0  0
    9.4650   13.5694   24.7596 N   0  0  0  0  0  0  0  0  0  0  0  0
   10.2227   14.3798   25.6559 N   0  0  0  0  0  0  0  0  0  0  0  0
    8.9965   14.2373   23.5301 C   0  0  0  0  0  0  0  0  0  0  0  0
   10.1883   14.5430   22.6238 C   0  0  0  0  0  0  0  0  0  0  0  0
    9.8653   15.1403   21.2448 C   0  0  0  0  0  0  0  0  0  0  0  0
    8.4498   14.7529   20.8944 C   0  0  0  0  0  0  0  0  0  0  0  0
    9.9170   16.6337   20.9251 C   0  0  0  0  0  0  0  0  0  0  0  0
   10.7761   14.5682   20.3009 O   0  0  0  0  0  0  0  0  0  0  0  0
   12.1568   14.6553   20.6295 C   0  0  0  0  0  0  0  0  0  0  0  0
  1  2  1  0
  2  3  1  0
  3  4  2  0
  3  5  1  0
  5  6  2  0
  6  7  1  0
  7  8  1  0
  8  9  1  0
  9 10  1  0
  7 11  2  0
 11 12  1  0
 12 13  2  0
 13 14  1  0
 14 15  1  0
 14 16  1  0
 16 17  1  0
 17 18  1  0
 18 19  1  0
 18 20  1  0
 18 21  1  0
 21 22  1  0
 13  5  1  0
 10  8  1  0
M  END
>  <energy_score>  (3204) 
-25.857028

>  <inchikey>  (3204) 
FOIFAPNFGAGEIO-UHFFFAOYSA-N

>  <smiles>  (3204) 
COC(=O)c1cc(C2CC2)ncc1N(N)CCC(C)(C)OC

>  <ref_pdb>  (3204) 
A0528a

>  <alias>  (3204) 
FOIFAPNFGAGEIO-UHFFFAOYSA-N-P15-P15-P308-601501

>  <HIPPO Pose ID>  (3204) 
502006

>  <name>  (3204) 
FOIFAPNFGAGEIO-UHFFFAOYSA-N-P15-P15-P308-601501

>  <HIPPO Compound ID>  (3204) 
292717

>  <ref_mols>  (3204) 
A4331a,A0514a

>  <distance_score>  (3204) 
1.560273

>  <inspiration_score>  (3204) 
None

$$$$
FOIFAPNFGAGEIO-UHFFFAOYSA-N-P308-P15-P308-601501
     RDKit          3D

 22 23  0  0  0  0  0  0  0  0999 V2000
    9.4968    8.6683   23.0830 C   0  0  0  0  0  0  0  0  0  0  0  0
    8.6897    9.6080   23.7844 O   0  0  0  0  0  0  0  0  0  0  0  0
    9.3914   10.5059   24.5165 C   0  0  0  0  0  0  0  0  0  0  0  0
   10.6009   10.5483   24.6625 O   0  0  0  0  0  0  0  0  0  0  0  0
    8.4126   11.4598   25.0899 C   0  0  0  0  0  0  0  0  0  0  0  0
    7.1849   10.9653   25.5589 C   0  0  0  0  0  0  0  0  0  0  0  0
    6.2992   11.8372   26.1744 C   0  0  0  0  0  0  0  0  0  0  0  0
    5.0553   11.3721   26.8759 C   0  0  0  0  0  0  0  0  0  0  0  0
    4.7917   11.8563   28.2866 C   0  0  0  0  0  0  0  0  0  0  0  0
    3.9523   12.3749   27.1625 C   0  0  0  0  0  0  0  0  0  0  0  0
    6.5733   13.1580   26.2520 N   0  0  0  0  0  0  0  0  0  0  0  0
    7.7450   13.6112   25.7818 C   0  0  0  0  0  0  0  0  0  0  0  0
    8.7353   12.8150   25.2334 C   0  0  0  0  0  0  0  0  0  0  0  0
    9.9802   13.3550   24.8648 N   0  0  0  0  0  0  0  0  0  0  0  0
   10.6545   14.1913   25.7882 N   0  0  0  0  0  0  0  0  0  0  0  0
   10.0667   13.6872   23.4283 C   0  0  0  0  0  0  0  0  0  0  0  0
    9.7348   15.1642   23.1686 C   0  0  0  0  0  0  0  0  0  0  0  0
    9.4658   15.4493   21.6871 C   0  0  0  0  0  0  0  0  0  0  0  0
    8.0828   14.8867   21.3412 C   0  0  0  0  0  0  0  0  0  0  0  0
    9.4574   16.9496   21.3858 C   0  0  0  0  0  0  0  0  0  0  0  0
   10.4157   14.7664   20.8675 O   0  0  0  0  0  0  0  0  0  0  0  0
   11.7402   15.2865   20.8581 C   0  0  0  0  0  0  0  0  0  0  0  0
  1  2  1  0
  2  3  1  0
  3  4  2  0
  3  5  1  0
  5  6  2  0
  6  7  1  0
  7  8  1  0
  8  9  1  0
  9 10  1  0
  7 11  2  0
 11 12  1  0
 12 13  2  0
 13 14  1  0
 14 15  1  0
 14 16  1  0
 16 17  1  0
 17 18  1  0
 18 19  1  0
 18 20  1  0
 18 21  1  0
 21 22  1  0
 13  5  1  0
 10  8  1  0
M  END
>  <energy_score>  (3205) 
-39.347427

>  <inchikey>  (3205) 
FOIFAPNFGAGEIO-UHFFFAOYSA-N

>  <smiles>  (3205) 
COC(=O)c1cc(C2CC2)ncc1N(N)CCC(C)(C)OC

>  <ref_pdb>  (3205) 
A0528a

>  <alias>  (3205) 
FOIFAPNFGAGEIO-UHFFFAOYSA-N-P308-P15-P308-601501

>  <HIPPO Pose ID>  (3205) 
502007

>  <name>  (3205) 
FOIFAPNFGAGEIO-UHFFFAOYSA-N-P308-P15-P308-601501

>  <HIPPO Compound ID>  (3205) 
292717

>  <ref_mols>  (3205) 
A4331a,A0514a

>  <distance_score>  (3205) 
1.453707

>  <inspiration_score>  (3205) 
None

$$$$
NISWKXNPNPVKQM-UHFFFAOYSA-N-P15-P15-P308-601501
     RDKit          3D

 22 24  0  0  0  0  0  0  0  0999 V2000
    9.3622    8.4871   22.9843 C   0  0  0  0  0  0  0  0  0  0  0  0
    8.6379    9.3860   23.8209 O   0  0  0  0  0  0  0  0  0  0  0  0
    9.0698   10.6652   23.7521 C   0  0  0  0  0  0  0  0  0  0  0  0
   10.0050   11.0459   23.0685 O   0  0  0  0  0  0  0  0  0  0  0  0
    8.2742   11.5437   24.6482 C   0  0  0  0  0  0  0  0  0  0  0  0
    7.1890   11.0033   25.3621 C   0  0  0  0  0  0  0  0  0  0  0  0
    6.4478   11.8216   26.2045 C   0  0  0  0  0  0  0  0  0  0  0  0
    5.3623   11.2894   27.1016 C   0  0  0  0  0  0  0  0  0  0  0  0
    4.1709   12.1600   27.4401 C   0  0  0  0  0  0  0  0  0  0  0  0
    5.2177   11.9080   28.4791 C   0  0  0  0  0  0  0  0  0  0  0  0
    6.7281   13.1407   26.3060 N   0  0  0  0  0  0  0  0  0  0  0  0
    7.7373   13.6516   25.5800 C   0  0  0  0  0  0  0  0  0  0  0  0
    8.5933   12.9063   24.7846 C   0  0  0  0  0  0  0  0  0  0  0  0
    9.7071   13.5865   24.2062 N   0  0  0  0  0  0  0  0  0  0  0  0
   10.9589   12.9983   24.4962 N   0  0  0  0  0  0  0  0  0  0  0  0
    9.5325   14.0579   22.9178 C   0  0  0  0  0  0  0  0  0  0  0  0
    8.3673   14.1494   22.3047 N   0  0  0  0  0  0  0  0  0  0  0  0
    8.5411   14.7395   21.0924 N   0  0  0  0  0  0  0  0  0  0  0  0
    9.8161   15.0138   20.9442 C   0  0  0  0  0  0  0  0  0  0  0  0
   10.4178   15.6911   19.7712 C   0  0  0  0  0  0  0  0  0  0  0  0
   10.4898   14.5967   22.0668 N   0  0  0  0  0  0  0  0  0  0  0  0
   11.8961   14.7782   22.2866 C   0  0  0  0  0  0  0  0  0  0  0  0
  1  2  1  0
  2  3  1  0
  3  4  2  0
  3  5  1  0
  5  6  2  0
  6  7  1  0
  7  8  1  0
  8  9  1  0
  9 10  1  0
  7 11  2  0
 11 12  1  0
 12 13  2  0
 13 14  1  0
 14 15  1  0
 14 16  1  0
 16 17  2  0
 17 18  1  0
 18 19  2  0
 19 20  1  0
 19 21  1  0
 21 22  1  0
 13  5  1  0
 21 16  1  0
 10  8  1  0
M  END
>  <energy_score>  (3206) 
-54.37223

>  <inchikey>  (3206) 
NISWKXNPNPVKQM-UHFFFAOYSA-N

>  <smiles>  (3206) 
COC(=O)c1cc(C2CC2)ncc1N(N)c1nnc(C)n1C

>  <ref_pdb>  (3206) 
A0528a

>  <alias>  (3206) 
NISWKXNPNPVKQM-UHFFFAOYSA-N-P15-P15-P308-601501

>  <HIPPO Pose ID>  (3206) 
502008

>  <name>  (3206) 
NISWKXNPNPVKQM-UHFFFAOYSA-N-P15-P15-P308-601501

>  <HIPPO Compound ID>  (3206) 
292718

>  <ref_mols>  (3206) 
A4331a,A0514a

>  <distance_score>  (3206) 
1.618772

>  <inspiration_score>  (3206) 
None

$$$$
NISWKXNPNPVKQM-UHFFFAOYSA-N-P308-P15-P308-601501
     RDKit          3D

 22 24  0  0  0  0  0  0  0  0999 V2000
    9.3071    8.6075   23.1214 C   0  0  0  0  0  0  0  0  0  0  0  0
    8.5265    9.6123   23.7617 O   0  0  0  0  0  0  0  0  0  0  0  0
    9.2534   10.4906   24.4830 C   0  0  0  0  0  0  0  0  0  0  0  0
   10.4544   10.4478   24.7030 O   0  0  0  0  0  0  0  0  0  0  0  0
    8.3608   11.5649   24.9574 C   0  0  0  0  0  0  0  0  0  0  0  0
    7.1320   11.1806   25.5374 C   0  0  0  0  0  0  0  0  0  0  0  0
    6.2801   12.1617   26.0251 C   0  0  0  0  0  0  0  0  0  0  0  0
    4.9170   11.9291   26.5921 C   0  0  0  0  0  0  0  0  0  0  0  0
    4.5787   11.0181   27.7332 C   0  0  0  0  0  0  0  0  0  0  0  0
    4.6765   12.4903   27.9835 C   0  0  0  0  0  0  0  0  0  0  0  0
    6.6295   13.4625   25.9774 N   0  0  0  0  0  0  0  0  0  0  0  0
    7.7689   13.8065   25.3581 C   0  0  0  0  0  0  0  0  0  0  0  0
    8.6940   12.9199   24.8193 C   0  0  0  0  0  0  0  0  0  0  0  0
    9.8077   13.5061   24.1526 N   0  0  0  0  0  0  0  0  0  0  0  0
   11.0640   12.8667   24.1626 N   0  0  0  0  0  0  0  0  0  0  0  0
    9.5695   14.1358   22.9487 C   0  0  0  0  0  0  0  0  0  0  0  0
    8.4416   14.1584   22.2657 N   0  0  0  0  0  0  0  0  0  0  0  0
    8.6695   14.7665   21.0619 N   0  0  0  0  0  0  0  0  0  0  0  0
    9.9309   15.1378   21.0194 C   0  0  0  0  0  0  0  0  0  0  0  0
   10.6214   15.7586   19.8655 C   0  0  0  0  0  0  0  0  0  0  0  0
   10.5025   14.8686   22.2373 N   0  0  0  0  0  0  0  0  0  0  0  0
   11.7896   15.3185   22.6916 C   0  0  0  0  0  0  0  0  0  0  0  0
  1  2  1  0
  2  3  1  0
  3  4  2  0
  3  5  1  0
  5  6  2  0
  6  7  1  0
  7  8  1  0
  8  9  1  0
  9 10  1  0
  7 11  2  0
 11 12  1  0
 12 13  2  0
 13 14  1  0
 14 15  1  0
 14 16  1  0
 16 17  2  0
 17 18  1  0
 18 19  2  0
 19 20  1  0
 19 21  1  0
 21 22  1  0
 13  5  1  0
 21 16  1  0
 10  8  1  0
M  END
>  <energy_score>  (3207) 
-61.985917

>  <inchikey>  (3207) 
NISWKXNPNPVKQM-UHFFFAOYSA-N

>  <smiles>  (3207) 
COC(=O)c1cc(C2CC2)ncc1N(N)c1nnc(C)n1C

>  <ref_pdb>  (3207) 
A0528a

>  <alias>  (3207) 
NISWKXNPNPVKQM-UHFFFAOYSA-N-P308-P15-P308-601501

>  <HIPPO Pose ID>  (3207) 
502009

>  <name>  (3207) 
NISWKXNPNPVKQM-UHFFFAOYSA-N-P308-P15-P308-601501

>  <HIPPO Compound ID>  (3207) 
292718

>  <ref_mols>  (3207) 
A4331a,A0514a

>  <distance_score>  (3207) 
1.466317

>  <inspiration_score>  (3207) 
None

$$$$
PVTZJXFKQLKOBW-UHFFFAOYSA-N-P15-P15-P308-601501
     RDKit          3D

 22 24  0  0  0  0  0  0  0  0999 V2000
    9.4073    8.6010   22.9948 C   0  0  0  0  0  0  0  0  0  0  0  0
    8.5223    9.3701   23.8097 O   0  0  0  0  0  0  0  0  0  0  0  0
    8.9301   10.6470   23.9905 C   0  0  0  0  0  0  0  0  0  0  0  0
    9.9644   11.1257   23.5604 O   0  0  0  0  0  0  0  0  0  0  0  0
    7.9200   11.3888   24.7901 C   0  0  0  0  0  0  0  0  0  0  0  0
    6.9533   10.6999   25.5333 C   0  0  0  0  0  0  0  0  0  0  0  0
    6.0761   11.4222   26.3336 C   0  0  0  0  0  0  0  0  0  0  0  0
    5.1910   10.7684   27.3552 C   0  0  0  0  0  0  0  0  0  0  0  0
    3.9955   11.5080   27.9174 C   0  0  0  0  0  0  0  0  0  0  0  0
    5.2240   11.3478   28.7573 C   0  0  0  0  0  0  0  0  0  0  0  0
    6.0676   12.7738   26.3205 N   0  0  0  0  0  0  0  0  0  0  0  0
    6.9787   13.4170   25.5826 C   0  0  0  0  0  0  0  0  0  0  0  0
    7.9752   12.7858   24.8566 C   0  0  0  0  0  0  0  0  0  0  0  0
    9.0194   13.5370   24.2903 N   0  0  0  0  0  0  0  0  0  0  0  0
    9.8020   14.2806   25.2172 N   0  0  0  0  0  0  0  0  0  0  0  0
    8.6192   14.2138   23.0410 C   0  0  0  0  0  0  0  0  0  0  0  0
    9.7608   14.2345   22.0368 C   0  0  0  0  0  0  0  0  0  0  0  0
   11.2384   14.3275   22.4408 C   0  0  0  0  0  0  0  0  0  0  0  0
   11.4843   15.1765   21.1859 C   0  0  0  0  0  0  0  0  0  0  0  0
   11.9673   14.5691   20.0841 F   0  0  0  0  0  0  0  0  0  0  0  0
   12.3082   16.2033   21.4606 F   0  0  0  0  0  0  0  0  0  0  0  0
    9.9698   15.4549   21.1160 C   0  0  0  0  0  0  0  0  0  0  0  0
  1  2  1  0
  2  3  1  0
  3  4  2  0
  3  5  1  0
  5  6  2  0
  6  7  1  0
  7  8  1  0
  8  9  1  0
  9 10  1  0
  7 11  2  0
 11 12  1  0
 12 13  2  0
 13 14  1  0
 14 15  1  0
 14 16  1  0
 16 17  1  0
 17 18  1  0
 18 19  1  0
 19 20  1  0
 19 21  1  0
 19 22  1  0
 13  5  1  0
 22 17  1  0
 10  8  1  0
M  END
>  <energy_score>  (3208) 
-33.411135

>  <inchikey>  (3208) 
PVTZJXFKQLKOBW-UHFFFAOYSA-N

>  <smiles>  (3208) 
COC(=O)c1cc(C2CC2)ncc1N(N)CC1CC(F)(F)C1

>  <ref_pdb>  (3208) 
A0528a

>  <alias>  (3208) 
PVTZJXFKQLKOBW-UHFFFAOYSA-N-P15-P15-P308-601501

>  <HIPPO Pose ID>  (3208) 
502010

>  <name>  (3208) 
PVTZJXFKQLKOBW-UHFFFAOYSA-N-P15-P15-P308-601501

>  <HIPPO Compound ID>  (3208) 
292719

>  <ref_mols>  (3208) 
A4331a,A0514a

>  <distance_score>  (3208) 
1.756428

>  <inspiration_score>  (3208) 
None

$$$$
PVTZJXFKQLKOBW-UHFFFAOYSA-N-P308-P15-P308-601501
     RDKit          3D

 22 24  0  0  0  0  0  0  0  0999 V2000
    9.4568    8.6988   23.1531 C   0  0  0  0  0  0  0  0  0  0  0  0
    8.5614    9.5624   23.8488 O   0  0  0  0  0  0  0  0  0  0  0  0
    9.1766   10.5496   24.5423 C   0  0  0  0  0  0  0  0  0  0  0  0
   10.3773   10.7215   24.6659 O   0  0  0  0  0  0  0  0  0  0  0  0
    8.1175   11.4074   25.1209 C   0  0  0  0  0  0  0  0  0  0  0  0
    6.9878   10.8104   25.6965 C   0  0  0  0  0  0  0  0  0  0  0  0
    6.0511   11.6174   26.3303 C   0  0  0  0  0  0  0  0  0  0  0  0
    4.9497   11.0706   27.1959 C   0  0  0  0  0  0  0  0  0  0  0  0
    3.7379   11.9216   27.5187 C   0  0  0  0  0  0  0  0  0  0  0  0
    4.7799   11.7046   28.5672 C   0  0  0  0  0  0  0  0  0  0  0  0
    6.1677   12.9633   26.3108 N   0  0  0  0  0  0  0  0  0  0  0  0
    7.2329   13.5146   25.7194 C   0  0  0  0  0  0  0  0  0  0  0  0
    8.2679   12.7960   25.1445 C   0  0  0  0  0  0  0  0  0  0  0  0
    9.3670   13.4593   24.5555 N   0  0  0  0  0  0  0  0  0  0  0  0
   10.0765   14.3544   25.3995 N   0  0  0  0  0  0  0  0  0  0  0  0
    8.9591   13.9665   23.2301 C   0  0  0  0  0  0  0  0  0  0  0  0
   10.1671   14.3870   22.4264 C   0  0  0  0  0  0  0  0  0  0  0  0
   10.7035   15.8299   22.6210 C   0  0  0  0  0  0  0  0  0  0  0  0
   10.9871   15.8163   21.0995 C   0  0  0  0  0  0  0  0  0  0  0  0
   10.7833   16.9465   20.4059 F   0  0  0  0  0  0  0  0  0  0  0  0
   12.2151   15.3625   20.7795 F   0  0  0  0  0  0  0  0  0  0  0  0
    9.8334   14.8145   20.9884 C   0  0  0  0  0  0  0  0  0  0  0  0
  1  2  1  0
  2  3  1  0
  3  4  2  0
  3  5  1  0
  5  6  2  0
  6  7  1  0
  7  8  1  0
  8  9  1  0
  9 10  1  0
  7 11  2  0
 11 12  1  0
 12 13  2  0
 13 14  1  0
 14 15  1  0
 14 16  1  0
 16 17  1  0
 17 18  1  0
 18 19  1  0
 19 20  1  0
 19 21  1  0
 19 22  1  0
 13  5  1  0
 22 17  1  0
 10  8  1  0
M  END
>  <energy_score>  (3209) 
-39.587386

>  <inchikey>  (3209) 
PVTZJXFKQLKOBW-UHFFFAOYSA-N

>  <smiles>  (3209) 
COC(=O)c1cc(C2CC2)ncc1N(N)CC1CC(F)(F)C1

>  <ref_pdb>  (3209) 
A0528a

>  <alias>  (3209) 
PVTZJXFKQLKOBW-UHFFFAOYSA-N-P308-P15-P308-601501

>  <HIPPO Pose ID>  (3209) 
502011

>  <name>  (3209) 
PVTZJXFKQLKOBW-UHFFFAOYSA-N-P308-P15-P308-601501

>  <HIPPO Compound ID>  (3209) 
292719

>  <ref_mols>  (3209) 
A4331a,A0514a

>  <distance_score>  (3209) 
1.670945

>  <inspiration_score>  (3209) 
None

$$$$
HLKMPUMJLBZSBM-UHFFFAOYSA-N-P308-P15-P308-601501
     RDKit          3D

 22 23  0  0  0  0  0  0  0  0999 V2000
   11.6903   15.7178   21.2924 C   0  0  0  0  0  0  0  0  0  0  0  0
   11.9905   15.1071   22.6447 C   0  0  0  0  0  0  0  0  0  0  0  0
   11.1184   15.6497   23.6470 O   0  0  0  0  0  0  0  0  0  0  0  0
    9.8152   15.3037   23.7743 C   0  0  0  0  0  0  0  0  0  0  0  0
    9.0679   16.0494   24.4084 O   0  0  0  0  0  0  0  0  0  0  0  0
    9.3385   13.9699   23.1783 C   0  0  2  0  0  0  0  0  0  0  0  0
    7.9755   14.1513   22.5011 C   0  0  0  0  0  0  0  0  0  0  0  0
    9.3481   12.8616   24.1879 N   0  0  0  0  0  0  0  0  0  0  0  0
   10.5880   12.3325   24.6065 N   0  0  0  0  0  0  0  0  0  0  0  0
    8.2140   12.5354   24.9362 C   0  0  0  0  0  0  0  0  0  0  0  0
    7.5358   13.5333   25.6262 C   0  0  0  0  0  0  0  0  0  0  0  0
    6.3962   13.3755   26.3170 N   0  0  0  0  0  0  0  0  0  0  0  0
    5.8313   12.1605   26.3587 C   0  0  0  0  0  0  0  0  0  0  0  0
    4.5112   12.0909   27.0465 C   0  0  0  0  0  0  0  0  0  0  0  0
    4.2667   11.2461   28.2620 C   0  0  0  0  0  0  0  0  0  0  0  0
    4.4134   12.7304   28.4155 C   0  0  0  0  0  0  0  0  0  0  0  0
    6.4524   11.0742   25.7757 C   0  0  0  0  0  0  0  0  0  0  0  0
    7.6581   11.2503   25.0716 C   0  0  0  0  0  0  0  0  0  0  0  0
    8.1849    9.9839   24.5069 C   0  0  0  0  0  0  0  0  0  0  0  0
    7.7503    8.9011   24.8758 O   0  0  0  0  0  0  0  0  0  0  0  0
    9.1156   10.1609   23.5505 O   0  0  0  0  0  0  0  0  0  0  0  0
    9.5893    8.9442   22.9729 C   0  0  0  0  0  0  0  0  0  0  0  0
  1  2  1  0
  2  3  1  0
  3  4  1  0
  4  5  2  0
  4  6  1  0
  6  7  1  1
  6  8  1  0
  8  9  1  0
  8 10  1  0
 10 11  2  0
 11 12  1  0
 12 13  2  0
 13 14  1  0
 14 15  1  0
 15 16  1  0
 13 17  1  0
 17 18  2  0
 18 19  1  0
 19 20  2  0
 19 21  1  0
 21 22  1  0
 18 10  1  0
 16 14  1  0
M  END
>  <energy_score>  (3210) 
-30.247063

>  <inchikey>  (3210) 
HLKMPUMJLBZSBM-UHFFFAOYSA-N

>  <smiles>  (3210) 
CCOC(=O)C(C)N(N)c1cnc(C2CC2)cc1C(=O)OC

>  <ref_pdb>  (3210) 
A0528a

>  <alias>  (3210) 
HLKMPUMJLBZSBM-UHFFFAOYSA-N-P308-P15-P308-601501

>  <HIPPO Pose ID>  (3210) 
502013

>  <name>  (3210) 
HLKMPUMJLBZSBM-UHFFFAOYSA-N-P308-P15-P308-601501

>  <HIPPO Compound ID>  (3210) 
292720

>  <ref_mols>  (3210) 
A4331a,A0514a

>  <distance_score>  (3210) 
1.742309

>  <inspiration_score>  (3210) 
None

$$$$
NVTRPHWMPKQRPE-UHFFFAOYSA-N-P15-P15-P308-601501
     RDKit          3D

 22 25  0  0  0  0  0  0  0  0999 V2000
    9.1201    8.3014   22.7693 C   0  0  0  0  0  0  0  0  0  0  0  0
    8.3473    9.2170   23.5367 O   0  0  0  0  0  0  0  0  0  0  0  0
    9.1053   10.2598   23.9233 C   0  0  0  0  0  0  0  0  0  0  0  0
   10.2982   10.3647   23.7185 O   0  0  0  0  0  0  0  0  0  0  0  0
    8.3227   11.2490   24.6800 C   0  0  0  0  0  0  0  0  0  0  0  0
    7.2385   10.7688   25.4443 C   0  0  0  0  0  0  0  0  0  0  0  0
    6.5254   11.6391   26.2551 C   0  0  0  0  0  0  0  0  0  0  0  0
    5.4094   11.1911   27.1604 C   0  0  0  0  0  0  0  0  0  0  0  0
    4.2377   12.1156   27.4194 C   0  0  0  0  0  0  0  0  0  0  0  0
    5.2518   11.8935   28.4964 C   0  0  0  0  0  0  0  0  0  0  0  0
    6.8712   12.9401   26.3197 N   0  0  0  0  0  0  0  0  0  0  0  0
    7.8685   13.3855   25.5392 C   0  0  0  0  0  0  0  0  0  0  0  0
    8.6549   12.6090   24.6872 C   0  0  0  0  0  0  0  0  0  0  0  0
    9.5425   13.3077   23.8626 N   0  0  0  0  0  0  0  0  0  0  0  0
   10.9290   12.9077   23.5841 C   0  0  0  0  0  0  0  0  0  0  0  0
   11.7655   14.1363   23.2398 C   0  0  0  0  0  0  0  0  0  0  0  0
   11.2764   14.7152   21.9229 C   0  0  0  0  0  0  0  0  0  0  0  0
    9.7953   14.7847   21.9126 C   0  0  0  0  0  0  0  0  0  0  0  0
    9.0457   15.5642   21.1727 N   0  0  0  0  0  0  0  0  0  0  0  0
    7.7827   15.3502   21.6285 C   0  0  0  0  0  0  0  0  0  0  0  0
    7.7278   14.3271   22.5336 C   0  0  0  0  0  0  0  0  0  0  0  0
    9.0342   14.0550   22.8000 N   0  0  0  0  0  0  0  0  0  0  0  0
  1  2  1  0
  2  3  1  0
  3  4  2  0
  3  5  1  0
  5  6  2  0
  6  7  1  0
  7  8  1  0
  8  9  1  0
  9 10  1  0
  7 11  2  0
 11 12  1  0
 12 13  2  0
 13 14  1  0
 14 15  1  0
 15 16  1  0
 16 17  1  0
 17 18  1  0
 18 19  2  0
 19 20  1  0
 20 21  2  0
 21 22  1  0
 13  5  1  0
 22 14  1  0
 10  8  1  0
 22 18  1  0
M  END
>  <energy_score>  (3211) 
-21.212969

>  <inchikey>  (3211) 
NVTRPHWMPKQRPE-UHFFFAOYSA-N

>  <smiles>  (3211) 
COC(=O)c1cc(C2CC2)ncc1N1CCCc2nccn21

>  <ref_pdb>  (3211) 
A0528a

>  <alias>  (3211) 
NVTRPHWMPKQRPE-UHFFFAOYSA-N-P15-P15-P308-601501

>  <HIPPO Pose ID>  (3211) 
502014

>  <name>  (3211) 
NVTRPHWMPKQRPE-UHFFFAOYSA-N-P15-P15-P308-601501

>  <HIPPO Compound ID>  (3211) 
292721

>  <ref_mols>  (3211) 
A4331a,A0514a

>  <distance_score>  (3211) 
1.869443

>  <inspiration_score>  (3211) 
None

$$$$
NVTRPHWMPKQRPE-UHFFFAOYSA-N-P308-P15-P308-601501
     RDKit          3D

 22 25  0  0  0  0  0  0  0  0999 V2000
    9.6753    8.6176   23.4826 C   0  0  0  0  0  0  0  0  0  0  0  0
    8.9350    9.5025   24.3209 O   0  0  0  0  0  0  0  0  0  0  0  0
    8.9681   10.7906   23.9108 C   0  0  0  0  0  0  0  0  0  0  0  0
    9.5449   11.2160   22.9284 O   0  0  0  0  0  0  0  0  0  0  0  0
    8.1916   11.6379   24.8359 C   0  0  0  0  0  0  0  0  0  0  0  0
    7.0852   11.0612   25.4895 C   0  0  0  0  0  0  0  0  0  0  0  0
    6.2724   11.8556   26.2842 C   0  0  0  0  0  0  0  0  0  0  0  0
    5.1125   11.3167   27.0767 C   0  0  0  0  0  0  0  0  0  0  0  0
    3.8975   12.1905   27.3125 C   0  0  0  0  0  0  0  0  0  0  0  0
    4.8443   11.9302   28.4396 C   0  0  0  0  0  0  0  0  0  0  0  0
    6.5294   13.1737   26.4234 N   0  0  0  0  0  0  0  0  0  0  0  0
    7.5779   13.7060   25.7779 C   0  0  0  0  0  0  0  0  0  0  0  0
    8.4717   13.0024   24.9836 C   0  0  0  0  0  0  0  0  0  0  0  0
    9.4740   13.7631   24.3701 N   0  0  0  0  0  0  0  0  0  0  0  0
   10.8808   13.4325   24.6185 C   0  0  0  0  0  0  0  0  0  0  0  0
   11.7560   14.6497   24.3058 C   0  0  0  0  0  0  0  0  0  0  0  0
   11.6456   15.0175   22.8347 C   0  0  0  0  0  0  0  0  0  0  0  0
   10.2492   14.9333   22.3581 C   0  0  0  0  0  0  0  0  0  0  0  0
    9.7845   15.3798   21.2159 N   0  0  0  0  0  0  0  0  0  0  0  0
    8.4963   14.9528   21.1970 C   0  0  0  0  0  0  0  0  0  0  0  0
    8.1421   14.2946   22.3472 C   0  0  0  0  0  0  0  0  0  0  0  0
    9.2875   14.2682   23.0840 N   0  0  0  0  0  0  0  0  0  0  0  0
  1  2  1  0
  2  3  1  0
  3  4  2  0
  3  5  1  0
  5  6  2  0
  6  7  1  0
  7  8  1  0
  8  9  1  0
  9 10  1  0
  7 11  2  0
 11 12  1  0
 12 13  2  0
 13 14  1  0
 14 15  1  0
 15 16  1  0
 16 17  1  0
 17 18  1  0
 18 19  2  0
 19 20  1  0
 20 21  2  0
 21 22  1  0
 13  5  1  0
 22 14  1  0
 10  8  1  0
 22 18  1  0
M  END
>  <energy_score>  (3212) 
-28.020262

>  <inchikey>  (3212) 
NVTRPHWMPKQRPE-UHFFFAOYSA-N

>  <smiles>  (3212) 
COC(=O)c1cc(C2CC2)ncc1N1CCCc2nccn21

>  <ref_pdb>  (3212) 
A0528a

>  <alias>  (3212) 
NVTRPHWMPKQRPE-UHFFFAOYSA-N-P308-P15-P308-601501

>  <HIPPO Pose ID>  (3212) 
502015

>  <name>  (3212) 
NVTRPHWMPKQRPE-UHFFFAOYSA-N-P308-P15-P308-601501

>  <HIPPO Compound ID>  (3212) 
292721

>  <ref_mols>  (3212) 
A4331a,A0514a

>  <distance_score>  (3212) 
1.887731

>  <inspiration_score>  (3212) 
None

$$$$
JXCUJLBEVMXACZ-UHFFFAOYSA-N-P15-P15-P308-601501
     RDKit          3D

 22 23  0  0  0  0  0  0  0  0999 V2000
    9.4488    8.8315   22.9643 C   0  0  0  0  0  0  0  0  0  0  0  0
    8.4873    9.6775   23.5986 O   0  0  0  0  0  0  0  0  0  0  0  0
    8.9690   10.8928   23.9492 C   0  0  0  0  0  0  0  0  0  0  0  0
   10.0976   11.2892   23.7346 O   0  0  0  0  0  0  0  0  0  0  0  0
    7.9567   11.6432   24.7306 C   0  0  0  0  0  0  0  0  0  0  0  0
    7.1237   10.8310   25.5354 C   0  0  0  0  0  0  0  0  0  0  0  0
    6.3013   11.4151   26.4829 C   0  0  0  0  0  0  0  0  0  0  0  0
    5.3342   10.6126   27.2980 C   0  0  0  0  0  0  0  0  0  0  0  0
    4.2324   11.3350   27.6528 F   0  0  0  0  0  0  0  0  0  0  0  0
    4.8591    9.5240   26.6370 F   0  0  0  0  0  0  0  0  0  0  0  0
    5.8707   10.1493   28.4622 F   0  0  0  0  0  0  0  0  0  0  0  0
    6.3722   12.7270   26.7546 N   0  0  0  0  0  0  0  0  0  0  0  0
    7.1017   13.4817   25.9160 C   0  0  0  0  0  0  0  0  0  0  0  0
    7.8533   13.0433   24.8086 C   0  0  0  0  0  0  0  0  0  0  0  0
    8.2742   14.0661   23.9245 N   0  0  0  0  0  0  0  0  0  0  0  0
    7.2797   15.1036   23.8365 N   0  0  0  0  0  0  0  0  0  0  0  0
    9.1613   13.8430   22.7560 C   0  0  2  0  0  0  0  0  0  0  0  0
   10.6249   14.1273   23.0882 C   0  0  0  0  0  0  0  0  0  0  0  0
   11.2522   14.6615   21.8116 C   0  0  0  0  0  0  0  0  0  0  0  0
   10.1495   15.4282   21.1111 C   0  0  1  0  0  0  0  0  0  0  0  0
   10.3982   15.6365   19.6241 C   0  0  0  0  0  0  0  0  0  0  0  0
    8.8585   14.7010   21.5041 C   0  0  0  0  0  0  0  0  0  0  0  0
  1  2  1  0
  2  3  1  0
  3  4  2  0
  3  5  1  0
  5  6  2  0
  6  7  1  0
  7  8  1  0
  8  9  1  0
  8 10  1  0
  8 11  1  0
  7 12  2  0
 12 13  1  0
 13 14  2  0
 14 15  1  0
 15 16  1  0
 17 15  1  1
 17 18  1  0
 18 19  1  0
 19 20  1  0
 20 21  1  6
 20 22  1  0
 14  5  1  0
 22 17  1  0
M  END
>  <energy_score>  (3213) 
-35.365274

>  <inchikey>  (3213) 
JXCUJLBEVMXACZ-UHFFFAOYSA-N

>  <smiles>  (3213) 
COC(=O)c1cc(C(F)(F)F)ncc1N(N)C1CCC(C)C1

>  <ref_pdb>  (3213) 
A0528a

>  <alias>  (3213) 
JXCUJLBEVMXACZ-UHFFFAOYSA-N-P15-P15-P308-601501

>  <HIPPO Pose ID>  (3213) 
502016

>  <name>  (3213) 
JXCUJLBEVMXACZ-UHFFFAOYSA-N-P15-P15-P308-601501

>  <HIPPO Compound ID>  (3213) 
292722

>  <ref_mols>  (3213) 
A4331a,A0514a

>  <distance_score>  (3213) 
1.218152

>  <inspiration_score>  (3213) 
None

$$$$
JXCUJLBEVMXACZ-UHFFFAOYSA-N-P308-P15-P308-601501
     RDKit          3D

 22 23  0  0  0  0  0  0  0  0999 V2000
    9.6983    8.9248   23.3793 C   0  0  0  0  0  0  0  0  0  0  0  0
    8.7799    9.9231   23.8252 O   0  0  0  0  0  0  0  0  0  0  0  0
    9.3174   10.9809   24.4813 C   0  0  0  0  0  0  0  0  0  0  0  0
   10.4962   11.1923   24.7028 O   0  0  0  0  0  0  0  0  0  0  0  0
    8.1815   11.8380   24.8989 C   0  0  0  0  0  0  0  0  0  0  0  0
    7.1085   11.1643   25.5198 C   0  0  0  0  0  0  0  0  0  0  0  0
    6.0704   11.9079   26.0597 C   0  0  0  0  0  0  0  0  0  0  0  0
    5.0199   11.2938   26.9358 C   0  0  0  0  0  0  0  0  0  0  0  0
    5.2759   11.5128   28.2548 F   0  0  0  0  0  0  0  0  0  0  0  0
    4.9138    9.9430   26.7964 F   0  0  0  0  0  0  0  0  0  0  0  0
    3.7678   11.7958   26.7393 F   0  0  0  0  0  0  0  0  0  0  0  0
    6.0325   13.2495   25.9518 N   0  0  0  0  0  0  0  0  0  0  0  0
    7.0566   13.8582   25.3324 C   0  0  0  0  0  0  0  0  0  0  0  0
    8.1968   13.2405   24.8163 C   0  0  0  0  0  0  0  0  0  0  0  0
    9.2563   14.0408   24.3601 N   0  0  0  0  0  0  0  0  0  0  0  0
    9.3814   15.3637   24.8799 N   0  0  0  0  0  0  0  0  0  0  0  0
    9.8678   13.7770   23.0402 C   0  0  2  0  0  0  0  0  0  0  0  0
   11.3539   14.1499   23.0937 C   0  0  0  0  0  0  0  0  0  0  0  0
   11.6713   14.6826   21.7186 C   0  0  0  0  0  0  0  0  0  0  0  0
   10.4268   15.4477   21.3200 C   0  0  1  0  0  0  0  0  0  0  0  0
   10.4063   15.6462   19.8135 C   0  0  0  0  0  0  0  0  0  0  0  0
    9.2622   14.6240   21.8996 C   0  0  0  0  0  0  0  0  0  0  0  0
  1  2  1  0
  2  3  1  0
  3  4  2  0
  3  5  1  0
  5  6  2  0
  6  7  1  0
  7  8  1  0
  8  9  1  0
  8 10  1  0
  8 11  1  0
  7 12  2  0
 12 13  1  0
 13 14  2  0
 14 15  1  0
 15 16  1  0
 17 15  1  1
 17 18  1  0
 18 19  1  0
 19 20  1  0
 20 21  1  6
 20 22  1  0
 14  5  1  0
 22 17  1  0
M  END
>  <energy_score>  (3214) 
-51.98649

>  <inchikey>  (3214) 
JXCUJLBEVMXACZ-UHFFFAOYSA-N

>  <smiles>  (3214) 
COC(=O)c1cc(C(F)(F)F)ncc1N(N)C1CCC(C)C1

>  <ref_pdb>  (3214) 
A0528a

>  <alias>  (3214) 
JXCUJLBEVMXACZ-UHFFFAOYSA-N-P308-P15-P308-601501

>  <HIPPO Pose ID>  (3214) 
502017

>  <name>  (3214) 
JXCUJLBEVMXACZ-UHFFFAOYSA-N-P308-P15-P308-601501

>  <HIPPO Compound ID>  (3214) 
292722

>  <ref_mols>  (3214) 
A4331a,A0514a

>  <distance_score>  (3214) 
1.421945

>  <inspiration_score>  (3214) 
None

$$$$
UGEUOGXDGJMDRJ-UHFFFAOYSA-N-P15-P15-P308-601501
     RDKit          3D

 22 23  0  0  0  0  0  0  0  0999 V2000
    9.2604    8.4487   22.9337 C   0  0  0  0  0  0  0  0  0  0  0  0
    8.3265    9.2318   23.6746 O   0  0  0  0  0  0  0  0  0  0  0  0
    8.8034   10.4604   23.9437 C   0  0  0  0  0  0  0  0  0  0  0  0
    9.9261   10.8654   23.7092 O   0  0  0  0  0  0  0  0  0  0  0  0
    7.8162   11.2775   24.6538 C   0  0  0  0  0  0  0  0  0  0  0  0
    7.0132   10.6824   25.6234 C   0  0  0  0  0  0  0  0  0  0  0  0
    6.2476   11.5089   26.4307 C   0  0  0  0  0  0  0  0  0  0  0  0
    5.3373   10.9254   27.4774 C   0  0  0  0  0  0  0  0  0  0  0  0
    4.3154   11.7599   27.8141 F   0  0  0  0  0  0  0  0  0  0  0  0
    4.7483    9.7603   27.0915 F   0  0  0  0  0  0  0  0  0  0  0  0
    5.9894   10.6367   28.6410 F   0  0  0  0  0  0  0  0  0  0  0  0
    6.3234   12.8636   26.3558 N   0  0  0  0  0  0  0  0  0  0  0  0
    7.0234   13.3987   25.3406 C   0  0  0  0  0  0  0  0  0  0  0  0
    7.7474   12.6548   24.4190 C   0  0  0  0  0  0  0  0  0  0  0  0
    8.1392   13.2332   23.1758 N   0  0  0  0  0  0  0  0  0  0  0  0
    7.0045   13.7141   22.4253 N   0  0  0  0  0  0  0  0  0  0  0  0
    9.3582   14.0275   23.0622 C   0  0  0  0  0  0  0  0  0  0  0  0
    9.4664   14.8497   21.7481 C   0  0  0  0  0  0  0  0  0  0  0  0
   11.2206   14.6597   21.8222 S   0  0  0  0  0  0  0  0  0  0  0  0
   11.9174   15.3994   22.8506 O   0  0  0  0  0  0  0  0  0  0  0  0
   11.7716   14.4564   20.5064 O   0  0  0  0  0  0  0  0  0  0  0  0
   10.6097   13.2142   22.6270 C   0  0  0  0  0  0  0  0  0  0  0  0
  1  2  1  0
  2  3  1  0
  3  4  2  0
  3  5  1  0
  5  6  2  0
  6  7  1  0
  7  8  1  0
  8  9  1  0
  8 10  1  0
  8 11  1  0
  7 12  2  0
 12 13  1  0
 13 14  2  0
 14 15  1  0
 15 16  1  0
 15 17  1  0
 17 18  1  0
 18 19  1  0
 19 20  2  0
 19 21  2  0
 19 22  1  0
 14  5  1  0
 22 17  1  0
M  END
>  <energy_score>  (3215) 
-32.116608

>  <inchikey>  (3215) 
UGEUOGXDGJMDRJ-UHFFFAOYSA-N

>  <smiles>  (3215) 
COC(=O)c1cc(C(F)(F)F)ncc1N(N)C1CS(=O)(=O)C1

>  <ref_pdb>  (3215) 
A0528a

>  <alias>  (3215) 
UGEUOGXDGJMDRJ-UHFFFAOYSA-N-P15-P15-P308-601501

>  <HIPPO Pose ID>  (3215) 
502020

>  <name>  (3215) 
UGEUOGXDGJMDRJ-UHFFFAOYSA-N-P15-P15-P308-601501

>  <HIPPO Compound ID>  (3215) 
292724

>  <ref_mols>  (3215) 
A4331a,A0514a

>  <distance_score>  (3215) 
1.580065

>  <inspiration_score>  (3215) 
None

$$$$
UGEUOGXDGJMDRJ-UHFFFAOYSA-N-P308-P15-P308-601501
     RDKit          3D

 22 23  0  0  0  0  0  0  0  0999 V2000
    9.5051    8.5738   23.6588 C   0  0  0  0  0  0  0  0  0  0  0  0
    8.7620    9.4828   24.4663 O   0  0  0  0  0  0  0  0  0  0  0  0
    8.7501   10.7355   23.9624 C   0  0  0  0  0  0  0  0  0  0  0  0
    9.2506   11.0881   22.9077 O   0  0  0  0  0  0  0  0  0  0  0  0
    8.0398   11.6449   24.8811 C   0  0  0  0  0  0  0  0  0  0  0  0
    6.9028   11.1633   25.5465 C   0  0  0  0  0  0  0  0  0  0  0  0
    6.1594   12.0501   26.3171 C   0  0  0  0  0  0  0  0  0  0  0  0
    4.9679   11.6041   27.1176 C   0  0  0  0  0  0  0  0  0  0  0  0
    4.7705   10.2652   27.0615 F   0  0  0  0  0  0  0  0  0  0  0  0
    5.0901   11.8832   28.4486 F   0  0  0  0  0  0  0  0  0  0  0  0
    3.7920   12.1666   26.7229 F   0  0  0  0  0  0  0  0  0  0  0  0
    6.4940   13.3567   26.4278 N   0  0  0  0  0  0  0  0  0  0  0  0
    7.5860   13.7866   25.7770 C   0  0  0  0  0  0  0  0  0  0  0  0
    8.4190   12.9900   24.9988 C   0  0  0  0  0  0  0  0  0  0  0  0
    9.5560   13.6102   24.4094 N   0  0  0  0  0  0  0  0  0  0  0  0
   10.7325   12.8292   24.3572 N   0  0  0  0  0  0  0  0  0  0  0  0
    9.3378   14.6856   23.4453 C   0  0  0  0  0  0  0  0  0  0  0  0
    9.0895   14.1832   22.0083 C   0  0  0  0  0  0  0  0  0  0  0  0
    9.8252   15.6787   21.4149 S   0  0  0  0  0  0  0  0  0  0  0  0
    8.8740   16.7652   21.4237 O   0  0  0  0  0  0  0  0  0  0  0  0
   10.7561   15.4352   20.3377 O   0  0  0  0  0  0  0  0  0  0  0  0
   10.5902   15.4733   23.0000 C   0  0  0  0  0  0  0  0  0  0  0  0
  1  2  1  0
  2  3  1  0
  3  4  2  0
  3  5  1  0
  5  6  2  0
  6  7  1  0
  7  8  1  0
  8  9  1  0
  8 10  1  0
  8 11  1  0
  7 12  2  0
 12 13  1  0
 13 14  2  0
 14 15  1  0
 15 16  1  0
 15 17  1  0
 17 18  1  0
 18 19  1  0
 19 20  2  0
 19 21  2  0
 19 22  1  0
 14  5  1  0
 22 17  1  0
M  END
>  <energy_score>  (3216) 
-46.127669

>  <inchikey>  (3216) 
UGEUOGXDGJMDRJ-UHFFFAOYSA-N

>  <smiles>  (3216) 
COC(=O)c1cc(C(F)(F)F)ncc1N(N)C1CS(=O)(=O)C1

>  <ref_pdb>  (3216) 
A0528a

>  <alias>  (3216) 
UGEUOGXDGJMDRJ-UHFFFAOYSA-N-P308-P15-P308-601501

>  <HIPPO Pose ID>  (3216) 
502021

>  <name>  (3216) 
UGEUOGXDGJMDRJ-UHFFFAOYSA-N-P308-P15-P308-601501

>  <HIPPO Compound ID>  (3216) 
292724

>  <ref_mols>  (3216) 
A4331a,A0514a

>  <distance_score>  (3216) 
1.23876

>  <inspiration_score>  (3216) 
None

$$$$
KLGXAOIKPXCJEB-UHFFFAOYSA-N-P15-P15-P308-601501
     RDKit          3D

 22 23  0  0  0  0  0  0  0  0999 V2000
    9.7392    8.3981   23.3839 C   0  0  0  0  0  0  0  0  0  0  0  0
    8.7590    9.0883   24.1515 O   0  0  0  0  0  0  0  0  0  0  0  0
    8.7590   10.4014   23.8291 C   0  0  0  0  0  0  0  0  0  0  0  0
    9.3981   10.8885   22.9128 O   0  0  0  0  0  0  0  0  0  0  0  0
    7.9147   11.1715   24.7689 C   0  0  0  0  0  0  0  0  0  0  0  0
    6.9046   10.5578   25.5054 C   0  0  0  0  0  0  0  0  0  0  0  0
    6.1858   11.3398   26.4007 C   0  0  0  0  0  0  0  0  0  0  0  0
    5.2017   10.7182   27.3487 C   0  0  0  0  0  0  0  0  0  0  0  0
    4.1547   11.5414   27.6368 F   0  0  0  0  0  0  0  0  0  0  0  0
    5.7697   10.3998   28.5504 F   0  0  0  0  0  0  0  0  0  0  0  0
    4.6506    9.5606   26.8937 F   0  0  0  0  0  0  0  0  0  0  0  0
    6.4059   12.6722   26.5549 N   0  0  0  0  0  0  0  0  0  0  0  0
    7.3616   13.2383   25.8043 C   0  0  0  0  0  0  0  0  0  0  0  0
    8.1721   12.5386   24.9255 C   0  0  0  0  0  0  0  0  0  0  0  0
    9.2637   13.1427   24.3127 N   0  0  0  0  0  0  0  0  0  0  0  0
   10.4090   13.2161   25.1423 N   0  0  0  0  0  0  0  0  0  0  0  0
    9.0447   14.1926   23.2992 C   0  0  2  0  0  0  0  0  0  0  0  0
    7.7171   14.1333   22.5539 C   0  0  0  0  0  0  0  0  0  0  0  0
   10.1827   14.1370   22.2723 C   0  0  0  0  0  0  0  0  0  0  0  0
   10.3473   15.2536   21.2079 C   0  0  0  0  0  0  0  0  0  0  0  0
   11.8722   15.0901   21.3643 C   0  0  0  0  0  0  0  0  0  0  0  0
   11.6234   14.4686   22.7333 C   0  0  0  0  0  0  0  0  0  0  0  0
  1  2  1  0
  2  3  1  0
  3  4  2  0
  3  5  1  0
  5  6  2  0
  6  7  1  0
  7  8  1  0
  8  9  1  0
  8 10  1  0
  8 11  1  0
  7 12  2  0
 12 13  1  0
 13 14  2  0
 14 15  1  0
 15 16  1  0
 15 17  1  0
 17 18  1  6
 17 19  1  0
 19 20  1  0
 20 21  1  0
 21 22  1  0
 14  5  1  0
 22 19  1  0
M  END
>  <energy_score>  (3217) 
-25.526796

>  <inchikey>  (3217) 
KLGXAOIKPXCJEB-UHFFFAOYSA-N

>  <smiles>  (3217) 
COC(=O)c1cc(C(F)(F)F)ncc1N(N)C(C)C1CCC1

>  <ref_pdb>  (3217) 
A0528a

>  <alias>  (3217) 
KLGXAOIKPXCJEB-UHFFFAOYSA-N-P15-P15-P308-601501

>  <HIPPO Pose ID>  (3217) 
502022

>  <name>  (3217) 
KLGXAOIKPXCJEB-UHFFFAOYSA-N-P15-P15-P308-601501

>  <HIPPO Compound ID>  (3217) 
292725

>  <ref_mols>  (3217) 
A4331a,A0514a

>  <distance_score>  (3217) 
1.033108

>  <inspiration_score>  (3217) 
None

$$$$
KLGXAOIKPXCJEB-UHFFFAOYSA-N-P308-P15-P308-601501
     RDKit          3D

 22 23  0  0  0  0  0  0  0  0999 V2000
    9.6320    8.5674   23.5357 C   0  0  0  0  0  0  0  0  0  0  0  0
    8.7817    9.3678   24.3532 O   0  0  0  0  0  0  0  0  0  0  0  0
    8.7803   10.6718   23.9874 C   0  0  0  0  0  0  0  0  0  0  0  0
    9.3857   11.1388   23.0398 O   0  0  0  0  0  0  0  0  0  0  0  0
    7.9263   11.4504   24.9132 C   0  0  0  0  0  0  0  0  0  0  0  0
    6.8521   10.8328   25.5605 C   0  0  0  0  0  0  0  0  0  0  0  0
    6.0599   11.6022   26.4049 C   0  0  0  0  0  0  0  0  0  0  0  0
    4.9322   10.9984   27.1924 C   0  0  0  0  0  0  0  0  0  0  0  0
    3.7815   11.7158   27.0843 F   0  0  0  0  0  0  0  0  0  0  0  0
    5.1788   10.9258   28.5330 F   0  0  0  0  0  0  0  0  0  0  0  0
    4.6303    9.7233   26.8211 F   0  0  0  0  0  0  0  0  0  0  0  0
    6.2818   12.9252   26.6065 N   0  0  0  0  0  0  0  0  0  0  0  0
    7.3125   13.4934   25.9638 C   0  0  0  0  0  0  0  0  0  0  0  0
    8.1842   12.8116   25.1238 C   0  0  0  0  0  0  0  0  0  0  0  0
    9.3026   13.4683   24.5707 N   0  0  0  0  0  0  0  0  0  0  0  0
   10.1864   13.9455   25.5968 N   0  0  0  0  0  0  0  0  0  0  0  0
    8.9486   14.4622   23.4948 C   0  0  2  0  0  0  0  0  0  0  0  0
    7.7193   14.0670   22.6599 C   0  0  0  0  0  0  0  0  0  0  0  0
   10.1401   14.6052   22.5380 C   0  0  0  0  0  0  0  0  0  0  0  0
   10.0561   15.7082   21.4431 C   0  0  0  0  0  0  0  0  0  0  0  0
   11.5748   15.9013   21.6298 C   0  0  0  0  0  0  0  0  0  0  0  0
   11.3913   15.3707   23.0569 C   0  0  0  0  0  0  0  0  0  0  0  0
  1  2  1  0
  2  3  1  0
  3  4  2  0
  3  5  1  0
  5  6  2  0
  6  7  1  0
  7  8  1  0
  8  9  1  0
  8 10  1  0
  8 11  1  0
  7 12  2  0
 12 13  1  0
 13 14  2  0
 14 15  1  0
 15 16  1  0
 15 17  1  0
 17 18  1  6
 17 19  1  0
 19 20  1  0
 20 21  1  0
 21 22  1  0
 14  5  1  0
 22 19  1  0
M  END
>  <energy_score>  (3218) 
-32.662661

>  <inchikey>  (3218) 
KLGXAOIKPXCJEB-UHFFFAOYSA-N

>  <smiles>  (3218) 
COC(=O)c1cc(C(F)(F)F)ncc1N(N)C(C)C1CCC1

>  <ref_pdb>  (3218) 
A0528a

>  <alias>  (3218) 
KLGXAOIKPXCJEB-UHFFFAOYSA-N-P308-P15-P308-601501

>  <HIPPO Pose ID>  (3218) 
502023

>  <name>  (3218) 
KLGXAOIKPXCJEB-UHFFFAOYSA-N-P308-P15-P308-601501

>  <HIPPO Compound ID>  (3218) 
292725

>  <ref_mols>  (3218) 
A4331a,A0514a

>  <distance_score>  (3218) 
1.073486

>  <inspiration_score>  (3218) 
None

$$$$
VPZGVJLEEAOKKI-UHFFFAOYSA-N-P15-P15-P308-601501
     RDKit          3D

 22 23  0  0  0  0  0  0  0  0999 V2000
    9.2584    8.6192   22.9717 C   0  0  0  0  0  0  0  0  0  0  0  0
    8.4908    9.5939   23.6817 O   0  0  0  0  0  0  0  0  0  0  0  0
    9.2036   10.7070   23.9660 C   0  0  0  0  0  0  0  0  0  0  0  0
   10.3832   10.8598   23.7102 O   0  0  0  0  0  0  0  0  0  0  0  0
    8.3775   11.7136   24.6734 C   0  0  0  0  0  0  0  0  0  0  0  0
    7.2104   11.2790   25.3321 C   0  0  0  0  0  0  0  0  0  0  0  0
    6.4722   12.1952   26.0742 C   0  0  0  0  0  0  0  0  0  0  0  0
    5.2984   11.7769   26.9196 C   0  0  0  0  0  0  0  0  0  0  0  0
    5.0418   10.4463   26.8648 F   0  0  0  0  0  0  0  0  0  0  0  0
    5.4964   12.0312   28.2490 F   0  0  0  0  0  0  0  0  0  0  0  0
    4.1235   12.3875   26.5966 F   0  0  0  0  0  0  0  0  0  0  0  0
    6.8263   13.4991   26.1479 N   0  0  0  0  0  0  0  0  0  0  0  0
    7.9355   13.8900   25.4922 C   0  0  0  0  0  0  0  0  0  0  0  0
    8.7837   13.0581   24.7654 C   0  0  0  0  0  0  0  0  0  0  0  0
    9.9701   13.6411   24.2791 N   0  0  0  0  0  0  0  0  0  0  0  0
   11.1294   13.2869   25.0245 N   0  0  0  0  0  0  0  0  0  0  0  0
   10.1168   13.9530   22.8129 C   0  0  0  0  0  0  0  0  0  0  0  0
    8.7333   14.1232   22.1468 C   0  0  0  0  0  0  0  0  0  0  0  0
   10.9345   15.2301   22.6205 C   0  0  0  0  0  0  0  0  0  0  0  0
   12.1354   15.0594   21.7429 C   0  0  0  0  0  0  0  0  0  0  0  0
   11.6944   13.8983   20.9585 C   0  0  0  0  0  0  0  0  0  0  0  0
   11.0757   13.0420   22.0754 C   0  0  0  0  0  0  0  0  0  0  0  0
  1  2  1  0
  2  3  1  0
  3  4  2  0
  3  5  1  0
  5  6  2  0
  6  7  1  0
  7  8  1  0
  8  9  1  0
  8 10  1  0
  8 11  1  0
  7 12  2  0
 12 13  1  0
 13 14  2  0
 14 15  1  0
 15 16  1  0
 15 17  1  0
 17 18  1  0
 17 19  1  0
 19 20  1  0
 20 21  1  0
 21 22  1  0
 14  5  1  0
 22 17  1  0
M  END
>  <energy_score>  (3219) 
-20.756447

>  <inchikey>  (3219) 
VPZGVJLEEAOKKI-UHFFFAOYSA-N

>  <smiles>  (3219) 
COC(=O)c1cc(C(F)(F)F)ncc1N(N)C1(C)CCCC1

>  <ref_pdb>  (3219) 
A0528a

>  <alias>  (3219) 
VPZGVJLEEAOKKI-UHFFFAOYSA-N-P15-P15-P308-601501

>  <HIPPO Pose ID>  (3219) 
502024

>  <name>  (3219) 
VPZGVJLEEAOKKI-UHFFFAOYSA-N-P15-P15-P308-601501

>  <HIPPO Compound ID>  (3219) 
292726

>  <ref_mols>  (3219) 
A4331a,A0514a

>  <distance_score>  (3219) 
1.84091

>  <inspiration_score>  (3219) 
None

$$$$
VPZGVJLEEAOKKI-UHFFFAOYSA-N-P308-P15-P308-601501
     RDKit          3D

 22 23  0  0  0  0  0  0  0  0999 V2000
    9.5985    8.7817   23.1520 C   0  0  0  0  0  0  0  0  0  0  0  0
    8.7778    9.7696   23.7685 O   0  0  0  0  0  0  0  0  0  0  0  0
    9.4422   10.7052   24.4855 C   0  0  0  0  0  0  0  0  0  0  0  0
   10.6458   10.7915   24.6662 O   0  0  0  0  0  0  0  0  0  0  0  0
    8.4254   11.6240   25.0430 C   0  0  0  0  0  0  0  0  0  0  0  0
    7.2413   11.0882   25.5634 C   0  0  0  0  0  0  0  0  0  0  0  0
    6.3291   11.9569   26.1469 C   0  0  0  0  0  0  0  0  0  0  0  0
    5.0894   11.4505   26.8260 C   0  0  0  0  0  0  0  0  0  0  0  0
    5.1078   11.7012   28.1658 F   0  0  0  0  0  0  0  0  0  0  0  0
    4.9173   10.1032   26.7152 F   0  0  0  0  0  0  0  0  0  0  0  0
    3.9395   12.0226   26.3737 F   0  0  0  0  0  0  0  0  0  0  0  0
    6.5534   13.2937   26.2278 N   0  0  0  0  0  0  0  0  0  0  0  0
    7.6858   13.7796   25.6904 C   0  0  0  0  0  0  0  0  0  0  0  0
    8.6572   13.0051   25.0720 C   0  0  0  0  0  0  0  0  0  0  0  0
    9.7680   13.6017   24.4518 N   0  0  0  0  0  0  0  0  0  0  0  0
   10.6824   14.1813   25.3794 N   0  0  0  0  0  0  0  0  0  0  0  0
    9.5061   14.2907   23.1383 C   0  0  0  0  0  0  0  0  0  0  0  0
    8.2207   13.7771   22.4459 C   0  0  0  0  0  0  0  0  0  0  0  0
    9.4590   15.8204   23.2179 C   0  0  0  0  0  0  0  0  0  0  0  0
    9.7576   16.2774   21.7873 C   0  0  0  0  0  0  0  0  0  0  0  0
   10.6633   15.2081   21.1820 C   0  0  0  0  0  0  0  0  0  0  0  0
   10.7389   14.1008   22.2266 C   0  0  0  0  0  0  0  0  0  0  0  0
  1  2  1  0
  2  3  1  0
  3  4  2  0
  3  5  1  0
  5  6  2  0
  6  7  1  0
  7  8  1  0
  8  9  1  0
  8 10  1  0
  8 11  1  0
  7 12  2  0
 12 13  1  0
 13 14  2  0
 14 15  1  0
 15 16  1  0
 15 17  1  0
 17 18  1  0
 17 19  1  0
 19 20  1  0
 20 21  1  0
 21 22  1  0
 14  5  1  0
 22 17  1  0
M  END
>  <energy_score>  (3220) 
-35.726182

>  <inchikey>  (3220) 
VPZGVJLEEAOKKI-UHFFFAOYSA-N

>  <smiles>  (3220) 
COC(=O)c1cc(C(F)(F)F)ncc1N(N)C1(C)CCCC1

>  <ref_pdb>  (3220) 
A0528a

>  <alias>  (3220) 
VPZGVJLEEAOKKI-UHFFFAOYSA-N-P308-P15-P308-601501

>  <HIPPO Pose ID>  (3220) 
502025

>  <name>  (3220) 
VPZGVJLEEAOKKI-UHFFFAOYSA-N-P308-P15-P308-601501

>  <HIPPO Compound ID>  (3220) 
292726

>  <ref_mols>  (3220) 
A4331a,A0514a

>  <distance_score>  (3220) 
1.389355

>  <inspiration_score>  (3220) 
None

$$$$
STGBUQJKXFHGLE-UHFFFAOYSA-N-P308-P15-P308-601501
     RDKit          3D

 22 23  0  0  0  0  0  0  0  0999 V2000
    9.3548    8.5786   23.1011 C   0  0  0  0  0  0  0  0  0  0  0  0
    8.5533    9.5780   23.7223 O   0  0  0  0  0  0  0  0  0  0  0  0
    9.2686   10.5062   24.3914 C   0  0  0  0  0  0  0  0  0  0  0  0
   10.4723   10.5122   24.5934 O   0  0  0  0  0  0  0  0  0  0  0  0
    8.3305   11.5691   24.8145 C   0  0  0  0  0  0  0  0  0  0  0  0
    7.1620   11.1817   25.4663 C   0  0  0  0  0  0  0  0  0  0  0  0
    6.2886   12.1626   25.9136 C   0  0  0  0  0  0  0  0  0  0  0  0
    5.0875   11.7766   26.7421 C   0  0  0  0  0  0  0  0  0  0  0  0
    5.1942   12.2147   28.0285 F   0  0  0  0  0  0  0  0  0  0  0  0
    4.9130   10.4257   26.8462 F   0  0  0  0  0  0  0  0  0  0  0  0
    3.9040   12.2691   26.2837 F   0  0  0  0  0  0  0  0  0  0  0  0
    6.5239   13.4800   25.7068 N   0  0  0  0  0  0  0  0  0  0  0  0
    7.6438   13.8154   25.0368 C   0  0  0  0  0  0  0  0  0  0  0  0
    8.6073   12.9244   24.5852 C   0  0  0  0  0  0  0  0  0  0  0  0
    9.8222   13.3541   24.0116 N   0  0  0  0  0  0  0  0  0  0  0  0
   10.9373   13.1014   24.8798 N   0  0  0  0  0  0  0  0  0  0  0  0
   10.0269   14.4277   23.0959 C   0  0  0  0  0  0  0  0  0  0  0  0
   11.2881   14.6284   22.6375 N   0  0  0  0  0  0  0  0  0  0  0  0
   11.5665   15.6593   21.8074 N   0  0  0  0  0  0  0  0  0  0  0  0
   10.5637   16.4775   21.4962 C   0  0  0  0  0  0  0  0  0  0  0  0
    9.3082   16.3019   21.9259 N   0  0  0  0  0  0  0  0  0  0  0  0
    9.0308   15.2434   22.7258 N   0  0  0  0  0  0  0  0  0  0  0  0
  1  2  1  0
  2  3  1  0
  3  4  2  0
  3  5  1  0
  5  6  2  0
  6  7  1  0
  7  8  1  0
  8  9  1  0
  8 10  1  0
  8 11  1  0
  7 12  2  0
 12 13  1  0
 13 14  2  0
 14 15  1  0
 15 16  1  0
 15 17  1  0
 17 18  2  0
 18 19  1  0
 19 20  2  0
 20 21  1  0
 21 22  2  0
 14  5  1  0
 22 17  1  0
M  END
>  <energy_score>  (3221) 
-47.103667

>  <inchikey>  (3221) 
STGBUQJKXFHGLE-UHFFFAOYSA-N

>  <smiles>  (3221) 
COC(=O)c1cc(C(F)(F)F)ncc1N(N)c1nncnn1

>  <ref_pdb>  (3221) 
A0528a

>  <alias>  (3221) 
STGBUQJKXFHGLE-UHFFFAOYSA-N-P308-P15-P308-601501

>  <HIPPO Pose ID>  (3221) 
502029

>  <name>  (3221) 
STGBUQJKXFHGLE-UHFFFAOYSA-N-P308-P15-P308-601501

>  <HIPPO Compound ID>  (3221) 
292728

>  <ref_mols>  (3221) 
A4331a,A0514a

>  <distance_score>  (3221) 
1.754636

>  <inspiration_score>  (3221) 
None

$$$$
QQSRYFCOLIMNJN-UHFFFAOYSA-N-P15-P15-P308-601501
     RDKit          3D

 22 23  0  0  0  0  0  0  0  0999 V2000
    9.2828    8.5937   22.9706 C   0  0  0  0  0  0  0  0  0  0  0  0
    8.4861    9.5280   23.7021 O   0  0  0  0  0  0  0  0  0  0  0  0
    9.1338   10.6926   23.9350 C   0  0  0  0  0  0  0  0  0  0  0  0
   10.2919   10.9165   23.6317 O   0  0  0  0  0  0  0  0  0  0  0  0
    8.2544   11.6589   24.6395 C   0  0  0  0  0  0  0  0  0  0  0  0
    7.1581   11.1725   25.3720 C   0  0  0  0  0  0  0  0  0  0  0  0
    6.3985   12.0675   26.1223 C   0  0  0  0  0  0  0  0  0  0  0  0
    5.3169   11.5931   27.0561 C   0  0  0  0  0  0  0  0  0  0  0  0
    4.9847   10.2936   26.8596 F   0  0  0  0  0  0  0  0  0  0  0  0
    5.6945   11.6625   28.3668 F   0  0  0  0  0  0  0  0  0  0  0  0
    4.1442   12.2799   26.9603 F   0  0  0  0  0  0  0  0  0  0  0  0
    6.6657   13.3937   26.1389 N   0  0  0  0  0  0  0  0  0  0  0  0
    7.7059   13.8383   25.4118 C   0  0  0  0  0  0  0  0  0  0  0  0
    8.5602   13.0304   24.6701 C   0  0  0  0  0  0  0  0  0  0  0  0
    9.7024   13.6622   24.1011 N   0  0  0  0  0  0  0  0  0  0  0  0
   10.8908   13.3386   24.8350 N   0  0  0  0  0  0  0  0  0  0  0  0
    9.8871   13.7159   22.6545 C   0  0  0  0  0  0  0  0  0  0  0  0
   10.9780   14.7075   22.2243 C   0  0  0  0  0  0  0  0  0  0  0  0
   10.0118   15.2886   21.1864 C   0  0  0  0  0  0  0  0  0  0  0  0
   10.3090   14.8895   19.9403 F   0  0  0  0  0  0  0  0  0  0  0  0
    9.8871   16.6246   21.1132 F   0  0  0  0  0  0  0  0  0  0  0  0
    8.8494   14.5631   21.9103 C   0  0  0  0  0  0  0  0  0  0  0  0
  1  2  1  0
  2  3  1  0
  3  4  2  0
  3  5  1  0
  5  6  2  0
  6  7  1  0
  7  8  1  0
  8  9  1  0
  8 10  1  0
  8 11  1  0
  7 12  2  0
 12 13  1  0
 13 14  2  0
 14 15  1  0
 15 16  1  0
 15 17  1  0
 17 18  1  0
 18 19  1  0
 19 20  1  0
 19 21  1  0
 19 22  1  0
 14  5  1  0
 22 17  1  0
M  END
>  <energy_score>  (3222) 
-36.669345

>  <inchikey>  (3222) 
QQSRYFCOLIMNJN-UHFFFAOYSA-N

>  <smiles>  (3222) 
COC(=O)c1cc(C(F)(F)F)ncc1N(N)C1CC(F)(F)C1

>  <ref_pdb>  (3222) 
A0528a

>  <alias>  (3222) 
QQSRYFCOLIMNJN-UHFFFAOYSA-N-P15-P15-P308-601501

>  <HIPPO Pose ID>  (3222) 
502030

>  <name>  (3222) 
QQSRYFCOLIMNJN-UHFFFAOYSA-N-P15-P15-P308-601501

>  <HIPPO Compound ID>  (3222) 
292729

>  <ref_mols>  (3222) 
A4331a,A0514a

>  <distance_score>  (3222) 
1.43461

>  <inspiration_score>  (3222) 
None

$$$$
QQSRYFCOLIMNJN-UHFFFAOYSA-N-P308-P15-P308-601501
     RDKit          3D

 22 23  0  0  0  0  0  0  0  0999 V2000
    9.3818    8.4868   23.6513 C   0  0  0  0  0  0  0  0  0  0  0  0
    8.6486    9.4308   24.4239 O   0  0  0  0  0  0  0  0  0  0  0  0
    8.7775   10.6856   23.9371 C   0  0  0  0  0  0  0  0  0  0  0  0
    9.4221   10.9897   22.9499 O   0  0  0  0  0  0  0  0  0  0  0  0
    8.0302   11.6385   24.7802 C   0  0  0  0  0  0  0  0  0  0  0  0
    6.8893   11.2026   25.4674 C   0  0  0  0  0  0  0  0  0  0  0  0
    6.1777   12.1253   26.2275 C   0  0  0  0  0  0  0  0  0  0  0  0
    4.9890   11.7182   27.0546 C   0  0  0  0  0  0  0  0  0  0  0  0
    4.8003   10.3741   27.0669 F   0  0  0  0  0  0  0  0  0  0  0  0
    5.1098   12.0631   28.3693 F   0  0  0  0  0  0  0  0  0  0  0  0
    3.8082   12.2465   26.6301 F   0  0  0  0  0  0  0  0  0  0  0  0
    6.5448   13.4262   26.3038 N   0  0  0  0  0  0  0  0  0  0  0  0
    7.6426   13.8136   25.6339 C   0  0  0  0  0  0  0  0  0  0  0  0
    8.4397   12.9734   24.8693 C   0  0  0  0  0  0  0  0  0  0  0  0
    9.6177   13.5282   24.3143 N   0  0  0  0  0  0  0  0  0  0  0  0
   10.8102   12.8993   24.7874 N   0  0  0  0  0  0  0  0  0  0  0  0
    9.6818   13.9578   22.9272 C   0  0  0  0  0  0  0  0  0  0  0  0
   10.3635   15.3386   22.8094 C   0  0  0  0  0  0  0  0  0  0  0  0
    9.4195   15.5866   21.6160 C   0  0  0  0  0  0  0  0  0  0  0  0
    9.9111   15.1703   20.4272 F   0  0  0  0  0  0  0  0  0  0  0  0
    8.9927   16.8536   21.4503 F   0  0  0  0  0  0  0  0  0  0  0  0
    8.4287   14.6183   22.3228 C   0  0  0  0  0  0  0  0  0  0  0  0
  1  2  1  0
  2  3  1  0
  3  4  2  0
  3  5  1  0
  5  6  2  0
  6  7  1  0
  7  8  1  0
  8  9  1  0
  8 10  1  0
  8 11  1  0
  7 12  2  0
 12 13  1  0
 13 14  2  0
 14 15  1  0
 15 16  1  0
 15 17  1  0
 17 18  1  0
 18 19  1  0
 19 20  1  0
 19 21  1  0
 19 22  1  0
 14  5  1  0
 22 17  1  0
M  END
>  <energy_score>  (3223) 
-38.863985

>  <inchikey>  (3223) 
QQSRYFCOLIMNJN-UHFFFAOYSA-N

>  <smiles>  (3223) 
COC(=O)c1cc(C(F)(F)F)ncc1N(N)C1CC(F)(F)C1

>  <ref_pdb>  (3223) 
A0528a

>  <alias>  (3223) 
QQSRYFCOLIMNJN-UHFFFAOYSA-N-P308-P15-P308-601501

>  <HIPPO Pose ID>  (3223) 
502031

>  <name>  (3223) 
QQSRYFCOLIMNJN-UHFFFAOYSA-N-P308-P15-P308-601501

>  <HIPPO Compound ID>  (3223) 
292729

>  <ref_mols>  (3223) 
A4331a,A0514a

>  <distance_score>  (3223) 
1.267735

>  <inspiration_score>  (3223) 
None

$$$$
CCVFHZKGZMHVLS-UHFFFAOYSA-N-P15-P15-P308-601501
     RDKit          3D

 22 22  0  0  0  0  0  0  0  0999 V2000
    9.4107    8.4390   23.2645 C   0  0  0  0  0  0  0  0  0  0  0  0
    8.6344    9.2391   24.1607 O   0  0  0  0  0  0  0  0  0  0  0  0
    8.7099   10.5562   23.8889 C   0  0  0  0  0  0  0  0  0  0  0  0
    9.3308   11.0603   22.9698 O   0  0  0  0  0  0  0  0  0  0  0  0
    7.9034   11.3591   24.8389 C   0  0  0  0  0  0  0  0  0  0  0  0
    6.8506   10.7806   25.5514 C   0  0  0  0  0  0  0  0  0  0  0  0
    6.0814   11.6084   26.3598 C   0  0  0  0  0  0  0  0  0  0  0  0
    5.0262   11.0741   27.2833 C   0  0  0  0  0  0  0  0  0  0  0  0
    5.3709   11.2664   28.5849 F   0  0  0  0  0  0  0  0  0  0  0  0
    4.7973    9.7397   27.1526 F   0  0  0  0  0  0  0  0  0  0  0  0
    3.8099   11.6764   27.1454 F   0  0  0  0  0  0  0  0  0  0  0  0
    6.2930   12.9453   26.4406 N   0  0  0  0  0  0  0  0  0  0  0  0
    7.2965   13.4774   25.7355 C   0  0  0  0  0  0  0  0  0  0  0  0
    8.1822   12.7344   24.9665 C   0  0  0  0  0  0  0  0  0  0  0  0
    9.3018   13.3036   24.3227 N   0  0  0  0  0  0  0  0  0  0  0  0
    8.9085   14.1363   23.1885 C   0  0  0  0  0  0  0  0  0  0  0  0
   10.1199   14.3876   22.3040 C   0  0  0  0  0  0  0  0  0  0  0  0
    9.7812   15.1965   21.0723 C   0  0  0  0  0  0  0  0  0  0  0  0
   10.9188   15.2080   20.2281 O   0  0  0  0  0  0  0  0  0  0  0  0
   10.1927   13.8812   25.1901 N   0  0  0  0  0  0  0  0  0  0  0  0
   11.3269   13.4003   25.1734 O   0  0  0  0  0  0  0  0  0  0  0  0
    9.8050   14.8100   25.9069 O   0  0  0  0  0  0  0  0  0  0  0  0
  1  2  1  0
  2  3  1  0
  3  4  2  0
  3  5  1  0
  5  6  2  0
  6  7  1  0
  7  8  1  0
  8  9  1  0
  8 10  1  0
  8 11  1  0
  7 12  2  0
 12 13  1  0
 13 14  2  0
 14 15  1  0
 15 16  1  0
 16 17  1  0
 17 18  1  0
 18 19  1  0
 15 20  1  0
 20 21  2  0
 20 22  1  0
 14  5  1  0
M  CHG  2  20   1  22  -1
M  END
>  <energy_score>  (3224) 
-46.814996

>  <inchikey>  (3224) 
CCVFHZKGZMHVLS-UHFFFAOYSA-N

>  <smiles>  (3224) 
COC(=O)c1cc(C(F)(F)F)ncc1N(CCCO)[N+](=O)[O-]

>  <ref_pdb>  (3224) 
A0528a

>  <alias>  (3224) 
CCVFHZKGZMHVLS-UHFFFAOYSA-N-P15-P15-P308-601501

>  <HIPPO Pose ID>  (3224) 
502032

>  <name>  (3224) 
CCVFHZKGZMHVLS-UHFFFAOYSA-N-P15-P15-P308-601501

>  <HIPPO Compound ID>  (3224) 
292730

>  <ref_mols>  (3224) 
A4331a,A0514a

>  <distance_score>  (3224) 
1.144352

>  <inspiration_score>  (3224) 
None

$$$$
CCVFHZKGZMHVLS-UHFFFAOYSA-N-P308-P15-P308-601501
     RDKit          3D

 22 22  0  0  0  0  0  0  0  0999 V2000
    9.6061    8.5041   23.5322 C   0  0  0  0  0  0  0  0  0  0  0  0
    8.8172    9.3878   24.3251 O   0  0  0  0  0  0  0  0  0  0  0  0
    8.9142   10.6666   23.9098 C   0  0  0  0  0  0  0  0  0  0  0  0
    9.5613   11.0633   22.9592 O   0  0  0  0  0  0  0  0  0  0  0  0
    8.1180   11.5686   24.7626 C   0  0  0  0  0  0  0  0  0  0  0  0
    6.9948   11.0499   25.4202 C   0  0  0  0  0  0  0  0  0  0  0  0
    6.2107   11.9141   26.1699 C   0  0  0  0  0  0  0  0  0  0  0  0
    5.0229   11.4280   26.9512 C   0  0  0  0  0  0  0  0  0  0  0  0
    5.1258   11.7294   28.2750 F   0  0  0  0  0  0  0  0  0  0  0  0
    4.8490   10.0772   26.8997 F   0  0  0  0  0  0  0  0  0  0  0  0
    3.8432   11.9783   26.5502 F   0  0  0  0  0  0  0  0  0  0  0  0
    6.4982   13.2349   26.2782 N   0  0  0  0  0  0  0  0  0  0  0  0
    7.5790   13.7049   25.6379 C   0  0  0  0  0  0  0  0  0  0  0  0
    8.4447   12.9333   24.8733 C   0  0  0  0  0  0  0  0  0  0  0  0
    9.5328   13.6046   24.2884 N   0  0  0  0  0  0  0  0  0  0  0  0
    9.4357   13.8398   22.8510 C   0  0  0  0  0  0  0  0  0  0  0  0
    9.6097   15.3240   22.5559 C   0  0  0  0  0  0  0  0  0  0  0  0
    9.7235   15.5591   21.0591 C   0  0  0  0  0  0  0  0  0  0  0  0
   10.9284   14.9902   20.5725 O   0  0  0  0  0  0  0  0  0  0  0  0
   10.7778   13.2696   24.7944 N   0  0  0  0  0  0  0  0  0  0  0  0
   11.7702   13.5422   24.1148 O   0  0  0  0  0  0  0  0  0  0  0  0
   10.8138   12.7802   25.9274 O   0  0  0  0  0  0  0  0  0  0  0  0
  1  2  1  0
  2  3  1  0
  3  4  2  0
  3  5  1  0
  5  6  2  0
  6  7  1  0
  7  8  1  0
  8  9  1  0
  8 10  1  0
  8 11  1  0
  7 12  2  0
 12 13  1  0
 13 14  2  0
 14 15  1  0
 15 16  1  0
 16 17  1  0
 17 18  1  0
 18 19  1  0
 15 20  1  0
 20 21  2  0
 20 22  1  0
 14  5  1  0
M  CHG  2  20   1  22  -1
M  END
>  <energy_score>  (3225) 
-52.605412

>  <inchikey>  (3225) 
CCVFHZKGZMHVLS-UHFFFAOYSA-N

>  <smiles>  (3225) 
COC(=O)c1cc(C(F)(F)F)ncc1N(CCCO)[N+](=O)[O-]

>  <ref_pdb>  (3225) 
A0528a

>  <alias>  (3225) 
CCVFHZKGZMHVLS-UHFFFAOYSA-N-P308-P15-P308-601501

>  <HIPPO Pose ID>  (3225) 
502033

>  <name>  (3225) 
CCVFHZKGZMHVLS-UHFFFAOYSA-N-P308-P15-P308-601501

>  <HIPPO Compound ID>  (3225) 
292730

>  <ref_mols>  (3225) 
A4331a,A0514a

>  <distance_score>  (3225) 
1.268056

>  <inspiration_score>  (3225) 
None

$$$$
VFNVGNLRFWXGTO-UHFFFAOYSA-N-P15-P15-P308-601501
     RDKit          3D

 22 22  0  0  0  0  0  0  0  0999 V2000
    9.6208    8.3799   23.4011 C   0  0  0  0  0  0  0  0  0  0  0  0
    8.6260    9.0604   24.1671 O   0  0  0  0  0  0  0  0  0  0  0  0
    8.5556   10.3541   23.7796 C   0  0  0  0  0  0  0  0  0  0  0  0
    9.2095   10.8152   22.8627 O   0  0  0  0  0  0  0  0  0  0  0  0
    7.6785   11.1587   24.6613 C   0  0  0  0  0  0  0  0  0  0  0  0
    6.9232   10.5412   25.6562 C   0  0  0  0  0  0  0  0  0  0  0  0
    6.2237   11.3421   26.5492 C   0  0  0  0  0  0  0  0  0  0  0  0
    5.3105   10.7388   27.5793 C   0  0  0  0  0  0  0  0  0  0  0  0
    4.3385   11.6010   27.9871 F   0  0  0  0  0  0  0  0  0  0  0  0
    4.6513    9.6350   27.1289 F   0  0  0  0  0  0  0  0  0  0  0  0
    5.9697   10.3430   28.7056 F   0  0  0  0  0  0  0  0  0  0  0  0
    6.3410   12.6911   26.5570 N   0  0  0  0  0  0  0  0  0  0  0  0
    6.9730   13.2630   25.5222 C   0  0  0  0  0  0  0  0  0  0  0  0
    7.6015   12.5524   24.5037 C   0  0  0  0  0  0  0  0  0  0  0  0
    7.8962   13.1919   23.2678 N   0  0  0  0  0  0  0  0  0  0  0  0
    6.7406   13.9243   22.8077 N   0  0  0  0  0  0  0  0  0  0  0  0
    9.1547   13.9976   23.3048 C   0  0  2  0  0  0  0  0  0  0  0  0
    9.3280   14.6730   21.9380 C   0  0  0  0  0  0  0  0  0  0  0  0
   10.4005   13.1531   23.5800 C   0  0  0  0  0  0  0  0  0  0  0  0
   11.5345   13.9993   24.0463 C   0  0  0  0  0  0  0  0  0  0  0  0
   11.6180   14.4345   25.1885 O   0  0  0  0  0  0  0  0  0  0  0  0
   12.4634   14.2464   23.1076 O   0  0  0  0  0  0  0  0  0  0  0  0
  1  2  1  0
  2  3  1  0
  3  4  2  0
  3  5  1  0
  5  6  2  0
  6  7  1  0
  7  8  1  0
  8  9  1  0
  8 10  1  0
  8 11  1  0
  7 12  2  0
 12 13  1  0
 13 14  2  0
 14 15  1  0
 15 16  1  0
 15 17  1  0
 17 18  1  6
 17 19  1  0
 19 20  1  0
 20 21  2  0
 20 22  1  0
 14  5  1  0
M  END
>  <energy_score>  (3226) 
-30.589455

>  <inchikey>  (3226) 
VFNVGNLRFWXGTO-UHFFFAOYSA-N

>  <smiles>  (3226) 
COC(=O)c1cc(C(F)(F)F)ncc1N(N)C(C)CC(=O)O

>  <ref_pdb>  (3226) 
A0528a

>  <alias>  (3226) 
VFNVGNLRFWXGTO-UHFFFAOYSA-N-P15-P15-P308-601501

>  <HIPPO Pose ID>  (3226) 
502034

>  <name>  (3226) 
VFNVGNLRFWXGTO-UHFFFAOYSA-N-P15-P15-P308-601501

>  <HIPPO Compound ID>  (3226) 
292731

>  <ref_mols>  (3226) 
A4331a,A0514a

>  <distance_score>  (3226) 
1.735813

>  <inspiration_score>  (3226) 
None

$$$$
VFNVGNLRFWXGTO-UHFFFAOYSA-N-P308-P15-P308-601501
     RDKit          3D

 22 22  0  0  0  0  0  0  0  0999 V2000
    9.2916    8.5714   23.1060 C   0  0  0  0  0  0  0  0  0  0  0  0
    8.4433    9.5203   23.7466 O   0  0  0  0  0  0  0  0  0  0  0  0
    9.1159   10.4368   24.4754 C   0  0  0  0  0  0  0  0  0  0  0  0
   10.3141   10.4532   24.7114 O   0  0  0  0  0  0  0  0  0  0  0  0
    8.1554   11.4586   24.9317 C   0  0  0  0  0  0  0  0  0  0  0  0
    7.0566   10.9846   25.6717 C   0  0  0  0  0  0  0  0  0  0  0  0
    6.2004   11.9032   26.2639 C   0  0  0  0  0  0  0  0  0  0  0  0
    5.0428   11.4920   27.1284 C   0  0  0  0  0  0  0  0  0  0  0  0
    4.8015   10.1597   27.0735 F   0  0  0  0  0  0  0  0  0  0  0  0
    5.2443   11.7611   28.4506 F   0  0  0  0  0  0  0  0  0  0  0  0
    3.8613   12.0860   26.8005 F   0  0  0  0  0  0  0  0  0  0  0  0
    6.4271   13.2257   26.1752 N   0  0  0  0  0  0  0  0  0  0  0  0
    7.4551   13.6410   25.4139 C   0  0  0  0  0  0  0  0  0  0  0  0
    8.3371   12.8305   24.6937 C   0  0  0  0  0  0  0  0  0  0  0  0
    9.2740   13.4247   23.8201 N   0  0  0  0  0  0  0  0  0  0  0  0
   10.3205   12.6992   23.2474 N   0  0  0  0  0  0  0  0  0  0  0  0
    8.8960   14.7084   23.1510 C   0  0  2  0  0  0  0  0  0  0  0  0
    7.8203   14.4456   22.0951 C   0  0  0  0  0  0  0  0  0  0  0  0
   10.1049   15.4048   22.5099 C   0  0  0  0  0  0  0  0  0  0  0  0
   11.1578   15.6368   23.5587 C   0  0  0  0  0  0  0  0  0  0  0  0
   10.9374   16.0869   24.6757 O   0  0  0  0  0  0  0  0  0  0  0  0
   12.4062   15.3195   23.1521 O   0  0  0  0  0  0  0  0  0  0  0  0
  1  2  1  0
  2  3  1  0
  3  4  2  0
  3  5  1  0
  5  6  2  0
  6  7  1  0
  7  8  1  0
  8  9  1  0
  8 10  1  0
  8 11  1  0
  7 12  2  0
 12 13  1  0
 13 14  2  0
 14 15  1  0
 15 16  1  0
 15 17  1  0
 17 18  1  6
 17 19  1  0
 19 20  1  0
 20 21  2  0
 20 22  1  0
 14  5  1  0
M  END
>  <energy_score>  (3227) 
-40.594157

>  <inchikey>  (3227) 
VFNVGNLRFWXGTO-UHFFFAOYSA-N

>  <smiles>  (3227) 
COC(=O)c1cc(C(F)(F)F)ncc1N(N)C(C)CC(=O)O

>  <ref_pdb>  (3227) 
A0528a

>  <alias>  (3227) 
VFNVGNLRFWXGTO-UHFFFAOYSA-N-P308-P15-P308-601501

>  <HIPPO Pose ID>  (3227) 
502035

>  <name>  (3227) 
VFNVGNLRFWXGTO-UHFFFAOYSA-N-P308-P15-P308-601501

>  <HIPPO Compound ID>  (3227) 
292731

>  <ref_mols>  (3227) 
A4331a,A0514a

>  <distance_score>  (3227) 
1.16391

>  <inspiration_score>  (3227) 
None

$$$$
BFEMOOVWVGLQPJ-UHFFFAOYSA-N-P15-P15-P308-601501
     RDKit          3D

 22 22  0  0  0  0  0  0  0  0999 V2000
   12.6303   15.5039   21.5298 C   0  0  0  0  0  0  0  0  0  0  0  0
   11.7972   14.6147   20.6404 C   0  0  0  0  0  0  0  0  0  0  0  0
   10.5386   14.3289   21.2638 O   0  0  0  0  0  0  0  0  0  0  0  0
   10.6252   13.5446   22.3716 C   0  0  0  0  0  0  0  0  0  0  0  0
   11.6535   13.0287   22.8033 O   0  0  0  0  0  0  0  0  0  0  0  0
    9.2741   13.4828   23.0694 C   0  0  0  0  0  0  0  0  0  0  0  0
    9.4786   13.0368   24.4757 N   0  0  0  0  0  0  0  0  0  0  0  0
   10.2971   13.9394   25.2516 N   0  0  0  0  0  0  0  0  0  0  0  0
    8.2537   12.6377   25.0625 C   0  0  0  0  0  0  0  0  0  0  0  0
    7.5133   13.5536   25.8098 C   0  0  0  0  0  0  0  0  0  0  0  0
    6.4479   13.2501   26.5756 N   0  0  0  0  0  0  0  0  0  0  0  0
    6.0210   11.9670   26.5843 C   0  0  0  0  0  0  0  0  0  0  0  0
    4.9318   11.5894   27.5486 C   0  0  0  0  0  0  0  0  0  0  0  0
    3.8309   12.3762   27.4303 F   0  0  0  0  0  0  0  0  0  0  0  0
    5.3291   11.6805   28.8512 F   0  0  0  0  0  0  0  0  0  0  0  0
    4.4806   10.3100   27.4043 F   0  0  0  0  0  0  0  0  0  0  0  0
    6.6171   11.0002   25.8044 C   0  0  0  0  0  0  0  0  0  0  0  0
    7.7478   11.3258   25.0405 C   0  0  0  0  0  0  0  0  0  0  0  0
    8.3250   10.1345   24.3836 C   0  0  0  0  0  0  0  0  0  0  0  0
    7.9345    9.0205   24.7080 O   0  0  0  0  0  0  0  0  0  0  0  0
    9.2307   10.3905   23.4248 O   0  0  0  0  0  0  0  0  0  0  0  0
    9.7421    9.1814   22.8560 C   0  0  0  0  0  0  0  0  0  0  0  0
  1  2  1  0
  2  3  1  0
  3  4  1  0
  4  5  2  0
  4  6  1  0
  6  7  1  0
  7  8  1  0
  7  9  1  0
  9 10  2  0
 10 11  1  0
 11 12  2  0
 12 13  1  0
 13 14  1  0
 13 15  1  0
 13 16  1  0
 12 17  1  0
 17 18  2  0
 18 19  1  0
 19 20  2  0
 19 21  1  0
 21 22  1  0
 18  9  1  0
M  END
>  <energy_score>  (3228) 
-45.308765

>  <inchikey>  (3228) 
BFEMOOVWVGLQPJ-UHFFFAOYSA-N

>  <smiles>  (3228) 
CCOC(=O)CN(N)c1cnc(C(F)(F)F)cc1C(=O)OC

>  <ref_pdb>  (3228) 
A0528a

>  <alias>  (3228) 
BFEMOOVWVGLQPJ-UHFFFAOYSA-N-P15-P15-P308-601501

>  <HIPPO Pose ID>  (3228) 
502036

>  <name>  (3228) 
BFEMOOVWVGLQPJ-UHFFFAOYSA-N-P15-P15-P308-601501

>  <HIPPO Compound ID>  (3228) 
292732

>  <ref_mols>  (3228) 
A4331a,A0514a

>  <distance_score>  (3228) 
1.369983

>  <inspiration_score>  (3228) 
None

$$$$
BFEMOOVWVGLQPJ-UHFFFAOYSA-N-P308-P15-P308-601501
     RDKit          3D

 22 22  0  0  0  0  0  0  0  0999 V2000
   12.0652   16.1319   21.4209 C   0  0  0  0  0  0  0  0  0  0  0  0
   11.4563   14.8809   22.0037 C   0  0  0  0  0  0  0  0  0  0  0  0
   11.2951   15.0660   23.4218 O   0  0  0  0  0  0  0  0  0  0  0  0
   10.7712   14.1073   24.2242 C   0  0  0  0  0  0  0  0  0  0  0  0
   10.7677   14.2582   25.4466 O   0  0  0  0  0  0  0  0  0  0  0  0
   10.1928   12.8575   23.5847 C   0  0  0  0  0  0  0  0  0  0  0  0
    8.7302   12.9126   23.3784 N   0  0  0  0  0  0  0  0  0  0  0  0
    8.1682   13.8360   22.4565 N   0  0  0  0  0  0  0  0  0  0  0  0
    7.9346   12.6114   24.4967 C   0  0  0  0  0  0  0  0  0  0  0  0
    7.3308   13.6531   25.2040 C   0  0  0  0  0  0  0  0  0  0  0  0
    6.4335   13.5141   26.1956 N   0  0  0  0  0  0  0  0  0  0  0  0
    6.0328   12.2633   26.4971 C   0  0  0  0  0  0  0  0  0  0  0  0
    4.9740   12.1041   27.5530 C   0  0  0  0  0  0  0  0  0  0  0  0
    4.2583   10.9592   27.4039 F   0  0  0  0  0  0  0  0  0  0  0  0
    4.0465   13.1026   27.5738 F   0  0  0  0  0  0  0  0  0  0  0  0
    5.4896   12.0475   28.8151 F   0  0  0  0  0  0  0  0  0  0  0  0
    6.6083   11.1514   25.9035 C   0  0  0  0  0  0  0  0  0  0  0  0
    7.5951   11.3161   24.9196 C   0  0  0  0  0  0  0  0  0  0  0  0
    8.1208   10.0280   24.4015 C   0  0  0  0  0  0  0  0  0  0  0  0
    7.6799    8.9609   24.8077 O   0  0  0  0  0  0  0  0  0  0  0  0
    9.1069   10.1657   23.4963 O   0  0  0  0  0  0  0  0  0  0  0  0
    9.5943    8.9258   22.9847 C   0  0  0  0  0  0  0  0  0  0  0  0
  1  2  1  0
  2  3  1  0
  3  4  1  0
  4  5  2  0
  4  6  1  0
  6  7  1  0
  7  8  1  0
  7  9  1  0
  9 10  2  0
 10 11  1  0
 11 12  2  0
 12 13  1  0
 13 14  1  0
 13 15  1  0
 13 16  1  0
 12 17  1  0
 17 18  2  0
 18 19  1  0
 19 20  2  0
 19 21  1  0
 21 22  1  0
 18  9  1  0
M  END
>  <energy_score>  (3229) 
-32.667138

>  <inchikey>  (3229) 
BFEMOOVWVGLQPJ-UHFFFAOYSA-N

>  <smiles>  (3229) 
CCOC(=O)CN(N)c1cnc(C(F)(F)F)cc1C(=O)OC

>  <ref_pdb>  (3229) 
A0528a

>  <alias>  (3229) 
BFEMOOVWVGLQPJ-UHFFFAOYSA-N-P308-P15-P308-601501

>  <HIPPO Pose ID>  (3229) 
502037

>  <name>  (3229) 
BFEMOOVWVGLQPJ-UHFFFAOYSA-N-P308-P15-P308-601501

>  <HIPPO Compound ID>  (3229) 
292732

>  <ref_mols>  (3229) 
A4331a,A0514a

>  <distance_score>  (3229) 
1.763935

>  <inspiration_score>  (3229) 
None

$$$$
YYLGWKMDWWKURO-UHFFFAOYSA-N-P15-P15-P308-601501
     RDKit          3D

 22 23  0  0  0  0  0  0  0  0999 V2000
    9.1356    8.4897   22.9224 C   0  0  0  0  0  0  0  0  0  0  0  0
    8.2741    9.4029   23.6093 O   0  0  0  0  0  0  0  0  0  0  0  0
    8.8828   10.5864   23.8369 C   0  0  0  0  0  0  0  0  0  0  0  0
   10.0440   10.8312   23.5768 O   0  0  0  0  0  0  0  0  0  0  0  0
    7.9904   11.5260   24.5435 C   0  0  0  0  0  0  0  0  0  0  0  0
    7.1829   11.0016   25.5504 C   0  0  0  0  0  0  0  0  0  0  0  0
    6.4806   11.8690   26.3761 C   0  0  0  0  0  0  0  0  0  0  0  0
    5.4980   11.3138   27.3782 C   0  0  0  0  0  0  0  0  0  0  0  0
    4.4014   12.1021   27.5479 F   0  0  0  0  0  0  0  0  0  0  0  0
    6.0409   11.1460   28.6185 F   0  0  0  0  0  0  0  0  0  0  0  0
    5.0110   10.0886   27.0274 F   0  0  0  0  0  0  0  0  0  0  0  0
    6.6626   13.2076   26.3304 N   0  0  0  0  0  0  0  0  0  0  0  0
    7.3881   13.6833   25.3032 C   0  0  0  0  0  0  0  0  0  0  0  0
    8.0082   12.9095   24.3207 C   0  0  0  0  0  0  0  0  0  0  0  0
    8.4273   13.4882   23.0732 N   0  0  0  0  0  0  0  0  0  0  0  0
    7.2819   14.2944   22.5811 C   0  0  0  0  0  0  0  0  0  0  0  0
    9.6562   14.2454   23.0903 N   0  0  0  0  0  0  0  0  0  0  0  0
    9.9699   14.7312   21.7029 C   0  0  0  0  0  0  0  0  0  0  0  0
   11.4718   14.8879   21.4061 C   0  0  0  0  0  0  0  0  0  0  0  0
   12.1942   15.2567   22.5827 O   0  0  0  0  0  0  0  0  0  0  0  0
   12.0304   14.2883   23.6181 C   0  0  0  0  0  0  0  0  0  0  0  0
   10.7945   13.4213   23.4954 C   0  0  0  0  0  0  0  0  0  0  0  0
  1  2  1  0
  2  3  1  0
  3  4  2  0
  3  5  1  0
  5  6  2  0
  6  7  1  0
  7  8  1  0
  8  9  1  0
  8 10  1  0
  8 11  1  0
  7 12  2  0
 12 13  1  0
 13 14  2  0
 14 15  1  0
 15 16  1  0
 15 17  1  0
 17 18  1  0
 18 19  1  0
 19 20  1  0
 20 21  1  0
 21 22  1  0
 14  5  1  0
 22 17  1  0
M  END
>  <energy_score>  (3230) 
-33.50365

>  <inchikey>  (3230) 
YYLGWKMDWWKURO-UHFFFAOYSA-N

>  <smiles>  (3230) 
COC(=O)c1cc(C(F)(F)F)ncc1N(C)N1CCOCC1

>  <ref_pdb>  (3230) 
A0528a

>  <alias>  (3230) 
YYLGWKMDWWKURO-UHFFFAOYSA-N-P15-P15-P308-601501

>  <HIPPO Pose ID>  (3230) 
502038

>  <name>  (3230) 
YYLGWKMDWWKURO-UHFFFAOYSA-N-P15-P15-P308-601501

>  <HIPPO Compound ID>  (3230) 
292733

>  <ref_mols>  (3230) 
A4331a,A0514a

>  <distance_score>  (3230) 
1.836928

>  <inspiration_score>  (3230) 
None

$$$$
NZYOSJNHDBFNNH-UHFFFAOYSA-N-P15-P15-P308-601501
     RDKit          3D

 22 23  0  0  0  0  0  0  0  0999 V2000
    9.6811    9.2003   22.9380 C   0  0  0  0  0  0  0  0  0  0  0  0
    9.1861   10.4520   23.4245 O   0  0  0  0  0  0  0  0  0  0  0  0
    8.1384   10.3087   24.2564 C   0  0  0  0  0  0  0  0  0  0  0  0
    7.6208    9.2494   24.5857 O   0  0  0  0  0  0  0  0  0  0  0  0
    7.6909   11.5764   24.8641 C   0  0  0  0  0  0  0  0  0  0  0  0
    6.8688   11.3865   25.9764 C   0  0  0  0  0  0  0  0  0  0  0  0
    6.4547   12.4665   26.7367 C   0  0  0  0  0  0  0  0  0  0  0  0
    5.4869   12.2042   27.8641 C   0  0  0  0  0  0  0  0  0  0  0  0
    4.2168   12.0062   27.4199 F   0  0  0  0  0  0  0  0  0  0  0  0
    5.4173   13.2034   28.7874 F   0  0  0  0  0  0  0  0  0  0  0  0
    5.8095   11.0817   28.5763 F   0  0  0  0  0  0  0  0  0  0  0  0
    6.8597   13.7233   26.4674 N   0  0  0  0  0  0  0  0  0  0  0  0
    7.5662   13.8902   25.3334 C   0  0  0  0  0  0  0  0  0  0  0  0
    7.9943   12.8781   24.4681 C   0  0  0  0  0  0  0  0  0  0  0  0
    8.4928   13.2425   23.1872 N   0  0  0  0  0  0  0  0  0  0  0  0
    7.4347   13.7157   22.3934 N   0  0  0  0  0  0  0  0  0  0  0  0
    9.7799   13.8213   22.9569 C   0  0  0  0  0  0  0  0  0  0  0  0
   10.1296   14.4713   21.7683 C   0  0  0  0  0  0  0  0  0  0  0  0
   11.4225   14.9240   21.6007 C   0  0  0  0  0  0  0  0  0  0  0  0
   12.3533   14.8115   22.5629 N   0  0  0  0  0  0  0  0  0  0  0  0
   12.0404   14.1968   23.7281 N   0  0  0  0  0  0  0  0  0  0  0  0
   10.7970   13.7055   23.8954 C   0  0  0  0  0  0  0  0  0  0  0  0
  1  2  1  0
  2  3  1  0
  3  4  2  0
  3  5  1  0
  5  6  2  0
  6  7  1  0
  7  8  1  0
  8  9  1  0
  8 10  1  0
  8 11  1  0
  7 12  2  0
 12 13  1  0
 13 14  2  0
 14 15  1  0
 15 16  1  0
 15 17  1  0
 17 18  2  0
 18 19  1  0
 19 20  2  0
 20 21  1  0
 21 22  2  0
 14  5  1  0
 22 17  1  0
M  END
>  <energy_score>  (3231) 
-20.673782

>  <inchikey>  (3231) 
NZYOSJNHDBFNNH-UHFFFAOYSA-N

>  <smiles>  (3231) 
COC(=O)c1cc(C(F)(F)F)ncc1N(N)c1ccnnc1

>  <ref_pdb>  (3231) 
A0528a

>  <alias>  (3231) 
NZYOSJNHDBFNNH-UHFFFAOYSA-N-P15-P15-P308-601501

>  <HIPPO Pose ID>  (3231) 
502044

>  <name>  (3231) 
NZYOSJNHDBFNNH-UHFFFAOYSA-N-P15-P15-P308-601501

>  <HIPPO Compound ID>  (3231) 
292736

>  <ref_mols>  (3231) 
A4331a,A0514a

>  <distance_score>  (3231) 
1.97045

>  <inspiration_score>  (3231) 
None

$$$$
NZYOSJNHDBFNNH-UHFFFAOYSA-N-P308-P15-P308-601501
     RDKit          3D

 22 23  0  0  0  0  0  0  0  0999 V2000
    9.5895    8.7025   23.2235 C   0  0  0  0  0  0  0  0  0  0  0  0
    8.7175    9.7254   23.6924 O   0  0  0  0  0  0  0  0  0  0  0  0
    9.3338   10.7214   24.3650 C   0  0  0  0  0  0  0  0  0  0  0  0
   10.5109   10.8008   24.6735 O   0  0  0  0  0  0  0  0  0  0  0  0
    8.3012   11.7271   24.6847 C   0  0  0  0  0  0  0  0  0  0  0  0
    7.1470   11.2893   25.3273 C   0  0  0  0  0  0  0  0  0  0  0  0
    6.2114   12.2318   25.7314 C   0  0  0  0  0  0  0  0  0  0  0  0
    5.0755   11.8085   26.6333 C   0  0  0  0  0  0  0  0  0  0  0  0
    5.2714   12.2218   27.9182 F   0  0  0  0  0  0  0  0  0  0  0  0
    4.9379   10.4516   26.7225 F   0  0  0  0  0  0  0  0  0  0  0  0
    3.8532   12.2858   26.2747 F   0  0  0  0  0  0  0  0  0  0  0  0
    6.3505   13.5498   25.4463 N   0  0  0  0  0  0  0  0  0  0  0  0
    7.4591   13.9331   24.7862 C   0  0  0  0  0  0  0  0  0  0  0  0
    8.5037   13.0892   24.4384 C   0  0  0  0  0  0  0  0  0  0  0  0
    9.7735   13.6238   24.1376 N   0  0  0  0  0  0  0  0  0  0  0  0
   10.6805   13.4815   25.2125 N   0  0  0  0  0  0  0  0  0  0  0  0
   10.1746   14.5027   23.0988 C   0  0  0  0  0  0  0  0  0  0  0  0
    9.4400   14.7056   21.9383 C   0  0  0  0  0  0  0  0  0  0  0  0
    9.9940   15.4924   20.9395 C   0  0  0  0  0  0  0  0  0  0  0  0
   11.1924   16.1021   21.0504 N   0  0  0  0  0  0  0  0  0  0  0  0
   11.9038   15.9452   22.1772 N   0  0  0  0  0  0  0  0  0  0  0  0
   11.4032   15.1629   23.1533 C   0  0  0  0  0  0  0  0  0  0  0  0
  1  2  1  0
  2  3  1  0
  3  4  2  0
  3  5  1  0
  5  6  2  0
  6  7  1  0
  7  8  1  0
  8  9  1  0
  8 10  1  0
  8 11  1  0
  7 12  2  0
 12 13  1  0
 13 14  2  0
 14 15  1  0
 15 16  1  0
 15 17  1  0
 17 18  2  0
 18 19  1  0
 19 20  2  0
 20 21  1  0
 21 22  2  0
 14  5  1  0
 22 17  1  0
M  END
>  <energy_score>  (3232) 
-26.912971

>  <inchikey>  (3232) 
NZYOSJNHDBFNNH-UHFFFAOYSA-N

>  <smiles>  (3232) 
COC(=O)c1cc(C(F)(F)F)ncc1N(N)c1ccnnc1

>  <ref_pdb>  (3232) 
A0528a

>  <alias>  (3232) 
NZYOSJNHDBFNNH-UHFFFAOYSA-N-P308-P15-P308-601501

>  <HIPPO Pose ID>  (3232) 
502045

>  <name>  (3232) 
NZYOSJNHDBFNNH-UHFFFAOYSA-N-P308-P15-P308-601501

>  <HIPPO Compound ID>  (3232) 
292736

>  <ref_mols>  (3232) 
A4331a,A0514a

>  <distance_score>  (3232) 
1.835313

>  <inspiration_score>  (3232) 
None

$$$$
VCORTOUNYMDHPG-UHFFFAOYSA-N-P15-P15-P308-601501
     RDKit          3D

 22 23  0  0  0  0  0  0  0  0999 V2000
    9.3455    8.6697   22.9892 C   0  0  0  0  0  0  0  0  0  0  0  0
    8.3878    9.4942   23.6574 O   0  0  0  0  0  0  0  0  0  0  0  0
    8.8759   10.7145   23.9867 C   0  0  0  0  0  0  0  0  0  0  0  0
   10.0170   11.0780   23.7972 O   0  0  0  0  0  0  0  0  0  0  0  0
    7.8191   11.5064   24.6583 C   0  0  0  0  0  0  0  0  0  0  0  0
    7.0632   10.7708   25.5946 C   0  0  0  0  0  0  0  0  0  0  0  0
    6.0645   11.3854   26.3352 C   0  0  0  0  0  0  0  0  0  0  0  0
    5.2954   10.6551   27.3981 C   0  0  0  0  0  0  0  0  0  0  0  0
    4.2902   11.4074   27.9293 F   0  0  0  0  0  0  0  0  0  0  0  0
    4.7031    9.5200   26.9407 F   0  0  0  0  0  0  0  0  0  0  0  0
    6.0671   10.2769   28.4564 F   0  0  0  0  0  0  0  0  0  0  0  0
    5.7186   12.6557   26.1200 N   0  0  0  0  0  0  0  0  0  0  0  0
    6.4025   13.3000   25.1709 C   0  0  0  0  0  0  0  0  0  0  0  0
    7.5538   12.8682   24.4754 C   0  0  0  0  0  0  0  0  0  0  0  0
    8.2345   13.8574   23.7512 N   0  0  0  0  0  0  0  0  0  0  0  0
    8.0899   15.1571   24.2961 N   0  0  0  0  0  0  0  0  0  0  0  0
    9.4718   13.6933   22.9353 C   0  0  1  0  0  0  0  0  0  0  0  0
    9.4284   14.6546   21.7209 C   0  0  0  0  0  0  0  0  0  0  0  0
   10.7253   14.8502   20.9423 C   0  0  0  0  0  0  0  0  0  0  0  0
   12.0005   15.0343   21.7385 C   0  0  0  0  0  0  0  0  0  0  0  0
   12.2572   13.7768   23.0122 S   0  0  0  0  0  0  0  0  0  0  0  0
   10.6853   13.8593   23.8505 C   0  0  0  0  0  0  0  0  0  0  0  0
  1  2  1  0
  2  3  1  0
  3  4  2  0
  3  5  1  0
  5  6  2  0
  6  7  1  0
  7  8  1  0
  8  9  1  0
  8 10  1  0
  8 11  1  0
  7 12  2  0
 12 13  1  0
 13 14  2  0
 14 15  1  0
 15 16  1  0
 17 15  1  1
 17 18  1  0
 18 19  1  0
 19 20  1  0
 20 21  1  0
 21 22  1  0
 14  5  1  0
 22 17  1  0
M  END
>  <energy_score>  (3233) 
-29.028664

>  <inchikey>  (3233) 
VCORTOUNYMDHPG-UHFFFAOYSA-N

>  <smiles>  (3233) 
COC(=O)c1cc(C(F)(F)F)ncc1N(N)C1CCCSC1

>  <ref_pdb>  (3233) 
A0528a

>  <alias>  (3233) 
VCORTOUNYMDHPG-UHFFFAOYSA-N-P15-P15-P308-601501

>  <HIPPO Pose ID>  (3233) 
502046

>  <name>  (3233) 
VCORTOUNYMDHPG-UHFFFAOYSA-N-P15-P15-P308-601501

>  <HIPPO Compound ID>  (3233) 
292737

>  <ref_mols>  (3233) 
A4331a,A0514a

>  <distance_score>  (3233) 
1.732906

>  <inspiration_score>  (3233) 
None

$$$$
VCORTOUNYMDHPG-UHFFFAOYSA-N-P308-P15-P308-601501
     RDKit          3D

 22 23  0  0  0  0  0  0  0  0999 V2000
    9.5543   10.6678   24.4114 C   0  0  0  0  0  0  0  0  0  0  0  0
    8.8423   11.1764   23.2775 O   0  0  0  0  0  0  0  0  0  0  0  0
    7.9901   12.2249   23.3648 C   0  0  0  0  0  0  0  0  0  0  0  0
    7.4783   12.7649   22.3921 O   0  0  0  0  0  0  0  0  0  0  0  0
    7.5761   12.6691   24.6782 C   0  0  0  0  0  0  0  0  0  0  0  0
    6.7259   11.7847   25.3447 C   0  0  0  0  0  0  0  0  0  0  0  0
    6.0739   12.2296   26.4726 C   0  0  0  0  0  0  0  0  0  0  0  0
    5.0121   11.3941   27.1260 C   0  0  0  0  0  0  0  0  0  0  0  0
    5.1005   11.4142   28.4810 F   0  0  0  0  0  0  0  0  0  0  0  0
    3.7473   11.8080   26.8396 F   0  0  0  0  0  0  0  0  0  0  0  0
    5.0693   10.0771   26.7731 F   0  0  0  0  0  0  0  0  0  0  0  0
    6.3124   13.4477   26.9903 N   0  0  0  0  0  0  0  0  0  0  0  0
    7.1222   14.2643   26.2927 C   0  0  0  0  0  0  0  0  0  0  0  0
    7.7778   13.9804   25.0949 C   0  0  0  0  0  0  0  0  0  0  0  0
    8.4778   14.9707   24.4094 N   0  0  0  0  0  0  0  0  0  0  0  0
    8.1443   16.2975   24.6566 N   0  0  0  0  0  0  0  0  0  0  0  0
    9.5806   14.7553   23.4482 C   0  0  1  0  0  0  0  0  0  0  0  0
    9.2958   15.4443   22.0968 C   0  0  0  0  0  0  0  0  0  0  0  0
   10.4047   15.2105   21.0716 C   0  0  0  0  0  0  0  0  0  0  0  0
   11.7778   15.6690   21.5436 C   0  0  0  0  0  0  0  0  0  0  0  0
   12.2651   14.8255   23.0853 S   0  0  0  0  0  0  0  0  0  0  0  0
   10.8598   15.2900   24.0914 C   0  0  0  0  0  0  0  0  0  0  0  0
  1  2  1  0
  2  3  1  0
  3  4  2  0
  3  5  1  0
  5  6  2  0
  6  7  1  0
  7  8  1  0
  8  9  1  0
  8 10  1  0
  8 11  1  0
  7 12  2  0
 12 13  1  0
 13 14  2  0
 14 15  1  0
 15 16  1  0
 17 15  1  1
 17 18  1  0
 18 19  1  0
 19 20  1  0
 20 21  1  0
 21 22  1  0
 14  5  1  0
 22 17  1  0
M  END
>  <energy_score>  (3234) 
-29.76867

>  <inchikey>  (3234) 
VCORTOUNYMDHPG-UHFFFAOYSA-N

>  <smiles>  (3234) 
COC(=O)c1cc(C(F)(F)F)ncc1N(N)C1CCCSC1

>  <ref_pdb>  (3234) 
A0528a

>  <alias>  (3234) 
VCORTOUNYMDHPG-UHFFFAOYSA-N-P308-P15-P308-601501

>  <HIPPO Pose ID>  (3234) 
502047

>  <name>  (3234) 
VCORTOUNYMDHPG-UHFFFAOYSA-N-P308-P15-P308-601501

>  <HIPPO Compound ID>  (3234) 
292737

>  <ref_mols>  (3234) 
A4331a,A0514a

>  <distance_score>  (3234) 
1.932697

>  <inspiration_score>  (3234) 
None

$$$$
QVRATGSJSOYNAE-UHFFFAOYSA-N-P308-P15-P308-601501
     RDKit          3D

 22 23  0  0  0  0  0  0  0  0999 V2000
    9.7441    8.8261   23.2953 C   0  0  0  0  0  0  0  0  0  0  0  0
    8.8722    9.8687   23.7248 O   0  0  0  0  0  0  0  0  0  0  0  0
    9.4585   10.9041   24.3717 C   0  0  0  0  0  0  0  0  0  0  0  0
   10.6417   11.0593   24.6135 O   0  0  0  0  0  0  0  0  0  0  0  0
    8.3571   11.8058   24.7689 C   0  0  0  0  0  0  0  0  0  0  0  0
    7.2537   11.2252   25.4059 C   0  0  0  0  0  0  0  0  0  0  0  0
    6.2570   12.0442   25.9225 C   0  0  0  0  0  0  0  0  0  0  0  0
    5.1914   11.4706   26.8211 C   0  0  0  0  0  0  0  0  0  0  0  0
    3.9732   12.0552   26.6768 F   0  0  0  0  0  0  0  0  0  0  0  0
    4.9960   10.1324   26.6467 F   0  0  0  0  0  0  0  0  0  0  0  0
    5.4925   11.6169   28.1456 F   0  0  0  0  0  0  0  0  0  0  0  0
    6.2703   13.3819   25.7481 N   0  0  0  0  0  0  0  0  0  0  0  0
    7.3272   13.8987   25.1042 C   0  0  0  0  0  0  0  0  0  0  0  0
    8.4445   13.1914   24.6592 C   0  0  0  0  0  0  0  0  0  0  0  0
    9.6339   13.8695   24.3860 N   0  0  0  0  0  0  0  0  0  0  0  0
   10.0392   14.7495   25.4129 N   0  0  0  0  0  0  0  0  0  0  0  0
   10.0375   14.1742   22.9879 C   0  0  0  0  0  0  0  0  0  0  0  0
    9.1575   15.2593   22.3600 C   0  0  0  0  0  0  0  0  0  0  0  0
    9.7528   15.7493   21.0492 C   0  0  0  0  0  0  0  0  0  0  0  0
   11.0822   16.2054   21.2506 O   0  0  0  0  0  0  0  0  0  0  0  0
   11.9434   15.1480   21.6398 C   0  0  0  0  0  0  0  0  0  0  0  0
   11.5174   14.6029   22.9849 C   0  0  0  0  0  0  0  0  0  0  0  0
  1  2  1  0
  2  3  1  0
  3  4  2  0
  3  5  1  0
  5  6  2  0
  6  7  1  0
  7  8  1  0
  8  9  1  0
  8 10  1  0
  8 11  1  0
  7 12  2  0
 12 13  1  0
 13 14  2  0
 14 15  1  0
 15 16  1  0
 15 17  1  0
 17 18  1  0
 18 19  1  0
 19 20  1  0
 20 21  1  0
 21 22  1  0
 14  5  1  0
 22 17  1  0
M  END
>  <energy_score>  (3235) 
-35.175148

>  <inchikey>  (3235) 
QVRATGSJSOYNAE-UHFFFAOYSA-N

>  <smiles>  (3235) 
COC(=O)c1cc(C(F)(F)F)ncc1N(N)C1CCOCC1

>  <ref_pdb>  (3235) 
A0528a

>  <alias>  (3235) 
QVRATGSJSOYNAE-UHFFFAOYSA-N-P308-P15-P308-601501

>  <HIPPO Pose ID>  (3235) 
502051

>  <name>  (3235) 
QVRATGSJSOYNAE-UHFFFAOYSA-N-P308-P15-P308-601501

>  <HIPPO Compound ID>  (3235) 
292739

>  <ref_mols>  (3235) 
A4331a,A0514a

>  <distance_score>  (3235) 
1.922167

>  <inspiration_score>  (3235) 
None

$$$$
IBFUNPKXJSDRRE-UHFFFAOYSA-N-P15-P15-P308-601501
     RDKit          3D

 22 23  0  0  0  0  0  0  0  0999 V2000
    9.4779    8.8511   23.0642 C   0  0  0  0  0  0  0  0  0  0  0  0
    8.6099    9.7687   23.7352 O   0  0  0  0  0  0  0  0  0  0  0  0
    9.1281   11.0113   23.8729 C   0  0  0  0  0  0  0  0  0  0  0  0
   10.2491   11.3509   23.5422 O   0  0  0  0  0  0  0  0  0  0  0  0
    8.1326   11.9169   24.5034 C   0  0  0  0  0  0  0  0  0  0  0  0
    7.0715   11.3674   25.2255 C   0  0  0  0  0  0  0  0  0  0  0  0
    6.2030   12.2129   25.9104 C   0  0  0  0  0  0  0  0  0  0  0  0
    5.1857   11.6415   26.8641 C   0  0  0  0  0  0  0  0  0  0  0  0
    5.4978   11.9167   28.1620 F   0  0  0  0  0  0  0  0  0  0  0  0
    5.0835   10.2817   26.8064 F   0  0  0  0  0  0  0  0  0  0  0  0
    3.9206   12.1185   26.6900 F   0  0  0  0  0  0  0  0  0  0  0  0
    6.3003   13.5598   25.8444 N   0  0  0  0  0  0  0  0  0  0  0  0
    7.3259   14.0613   25.1409 C   0  0  0  0  0  0  0  0  0  0  0  0
    8.3085   13.3086   24.5050 C   0  0  0  0  0  0  0  0  0  0  0  0
    9.5423   13.9515   24.2679 N   0  0  0  0  0  0  0  0  0  0  0  0
   10.4792   13.6329   25.3035 N   0  0  0  0  0  0  0  0  0  0  0  0
   10.1749   14.2916   23.0449 C   0  0  0  0  0  0  0  0  0  0  0  0
    9.4836   14.6160   21.8943 C   0  0  0  0  0  0  0  0  0  0  0  0
   10.2228   15.0307   20.7951 C   0  0  0  0  0  0  0  0  0  0  0  0
   11.5995   15.0323   20.8826 C   0  0  0  0  0  0  0  0  0  0  0  0
   12.2556   14.7684   22.0215 N   0  0  0  0  0  0  0  0  0  0  0  0
   11.5345   14.4230   23.1027 N   0  0  0  0  0  0  0  0  0  0  0  0
  1  2  1  0
  2  3  1  0
  3  4  2  0
  3  5  1  0
  5  6  2  0
  6  7  1  0
  7  8  1  0
  8  9  1  0
  8 10  1  0
  8 11  1  0
  7 12  2  0
 12 13  1  0
 13 14  2  0
 14 15  1  0
 15 16  1  0
 15 17  1  0
 17 18  2  0
 18 19  1  0
 19 20  2  0
 20 21  1  0
 21 22  2  0
 14  5  1  0
 22 17  1  0
M  END
>  <energy_score>  (3236) 
-38.681456

>  <inchikey>  (3236) 
IBFUNPKXJSDRRE-UHFFFAOYSA-N

>  <smiles>  (3236) 
COC(=O)c1cc(C(F)(F)F)ncc1N(N)c1cccnn1

>  <ref_pdb>  (3236) 
A0528a

>  <alias>  (3236) 
IBFUNPKXJSDRRE-UHFFFAOYSA-N-P15-P15-P308-601501

>  <HIPPO Pose ID>  (3236) 
502052

>  <name>  (3236) 
IBFUNPKXJSDRRE-UHFFFAOYSA-N-P15-P15-P308-601501

>  <HIPPO Compound ID>  (3236) 
292740

>  <ref_mols>  (3236) 
A4331a,A0514a

>  <distance_score>  (3236) 
1.814736

>  <inspiration_score>  (3236) 
None

$$$$
IBFUNPKXJSDRRE-UHFFFAOYSA-N-P308-P15-P308-601501
     RDKit          3D

 22 23  0  0  0  0  0  0  0  0999 V2000
    9.5786    8.7170   23.2106 C   0  0  0  0  0  0  0  0  0  0  0  0
    8.7162    9.7146   23.7498 O   0  0  0  0  0  0  0  0  0  0  0  0
    9.3495   10.7241   24.3891 C   0  0  0  0  0  0  0  0  0  0  0  0
   10.5454   10.8390   24.5988 O   0  0  0  0  0  0  0  0  0  0  0  0
    8.2997   11.6918   24.7795 C   0  0  0  0  0  0  0  0  0  0  0  0
    7.1774   11.2069   25.4442 C   0  0  0  0  0  0  0  0  0  0  0  0
    6.2378   12.1141   25.9157 C   0  0  0  0  0  0  0  0  0  0  0  0
    5.1702   11.6367   26.8709 C   0  0  0  0  0  0  0  0  0  0  0  0
    3.9662   12.2442   26.7117 F   0  0  0  0  0  0  0  0  0  0  0  0
    4.9276   10.2958   26.7846 F   0  0  0  0  0  0  0  0  0  0  0  0
    5.5103   11.8489   28.1772 F   0  0  0  0  0  0  0  0  0  0  0  0
    6.3239   13.4427   25.6601 N   0  0  0  0  0  0  0  0  0  0  0  0
    7.4090   13.8731   24.9904 C   0  0  0  0  0  0  0  0  0  0  0  0
    8.4594   13.0659   24.5784 C   0  0  0  0  0  0  0  0  0  0  0  0
    9.7057   13.6381   24.2876 N   0  0  0  0  0  0  0  0  0  0  0  0
   10.6000   13.5095   25.3888 N   0  0  0  0  0  0  0  0  0  0  0  0
   10.1595   14.4434   23.2169 C   0  0  0  0  0  0  0  0  0  0  0  0
    9.4447   14.6290   22.0454 C   0  0  0  0  0  0  0  0  0  0  0  0
   10.0500   15.3180   20.9979 C   0  0  0  0  0  0  0  0  0  0  0  0
   11.3300   15.8010   21.1778 C   0  0  0  0  0  0  0  0  0  0  0  0
   11.9970   15.6570   22.3334 N   0  0  0  0  0  0  0  0  0  0  0  0
   11.4035   14.9834   23.3497 N   0  0  0  0  0  0  0  0  0  0  0  0
  1  2  1  0
  2  3  1  0
  3  4  2  0
  3  5  1  0
  5  6  2  0
  6  7  1  0
  7  8  1  0
  8  9  1  0
  8 10  1  0
  8 11  1  0
  7 12  2  0
 12 13  1  0
 13 14  2  0
 14 15  1  0
 15 16  1  0
 15 17  1  0
 17 18  2  0
 18 19  1  0
 19 20  2  0
 20 21  1  0
 21 22  2  0
 14  5  1  0
 22 17  1  0
M  END
>  <energy_score>  (3237) 
-43.508243

>  <inchikey>  (3237) 
IBFUNPKXJSDRRE-UHFFFAOYSA-N

>  <smiles>  (3237) 
COC(=O)c1cc(C(F)(F)F)ncc1N(N)c1cccnn1

>  <ref_pdb>  (3237) 
A0528a

>  <alias>  (3237) 
IBFUNPKXJSDRRE-UHFFFAOYSA-N-P308-P15-P308-601501

>  <HIPPO Pose ID>  (3237) 
502053

>  <name>  (3237) 
IBFUNPKXJSDRRE-UHFFFAOYSA-N-P308-P15-P308-601501

>  <HIPPO Compound ID>  (3237) 
292740

>  <ref_mols>  (3237) 
A4331a,A0514a

>  <distance_score>  (3237) 
1.811203

>  <inspiration_score>  (3237) 
None

$$$$
RARCCGOPDBSZJJ-UHFFFAOYSA-N-P15-P15-P308-601501
     RDKit          3D

 22 23  0  0  0  0  0  0  0  0999 V2000
    9.4220    8.8345   23.3682 C   0  0  0  0  0  0  0  0  0  0  0  0
    8.7955    9.5823   24.4196 O   0  0  0  0  0  0  0  0  0  0  0  0
    8.4514   10.8378   24.0633 C   0  0  0  0  0  0  0  0  0  0  0  0
    8.6442   11.3472   22.9813 O   0  0  0  0  0  0  0  0  0  0  0  0
    7.6981   11.5332   25.1067 C   0  0  0  0  0  0  0  0  0  0  0  0
    6.7397   10.7567   25.7653 C   0  0  0  0  0  0  0  0  0  0  0  0
    5.9421   11.3722   26.7065 C   0  0  0  0  0  0  0  0  0  0  0  0
    5.0005   10.5796   27.5597 C   0  0  0  0  0  0  0  0  0  0  0  0
    3.9032   11.3055   27.9097 F   0  0  0  0  0  0  0  0  0  0  0  0
    5.5765   10.1659   28.7243 F   0  0  0  0  0  0  0  0  0  0  0  0
    4.5256    9.4587   26.9565 F   0  0  0  0  0  0  0  0  0  0  0  0
    6.0188   12.6985   26.9600 N   0  0  0  0  0  0  0  0  0  0  0  0
    6.9224   13.4224   26.2830 C   0  0  0  0  0  0  0  0  0  0  0  0
    7.8483   12.9098   25.3816 C   0  0  0  0  0  0  0  0  0  0  0  0
    8.9149   13.7306   24.9138 N   0  0  0  0  0  0  0  0  0  0  0  0
    9.3287   14.7922   25.7909 N   0  0  0  0  0  0  0  0  0  0  0  0
    8.7371   14.1560   23.4998 C   0  0  0  0  0  0  0  0  0  0  0  0
   10.0547   14.2053   22.6964 C   0  0  0  0  0  0  0  0  0  0  0  0
    9.7417   14.7373   21.2917 C   0  0  0  0  0  0  0  0  0  0  0  0
   10.8361   12.8660   22.8099 C   0  0  0  0  0  0  0  0  0  0  0  0
   12.1368   13.6258   22.6806 C   0  0  0  0  0  0  0  0  0  0  0  0
   11.4022   14.8396   23.1952 C   0  0  0  0  0  0  0  0  0  0  0  0
  1  2  1  0
  2  3  1  0
  3  4  2  0
  3  5  1  0
  5  6  2  0
  6  7  1  0
  7  8  1  0
  8  9  1  0
  8 10  1  0
  8 11  1  0
  7 12  2  0
 12 13  1  0
 13 14  2  0
 14 15  1  0
 15 16  1  0
 15 17  1  0
 17 18  1  0
 18 19  1  0
 18 20  1  0
 20 21  1  0
 21 22  1  0
 14  5  1  0
 22 18  1  0
M  END
>  <energy_score>  (3238) 
-24.108418

>  <inchikey>  (3238) 
RARCCGOPDBSZJJ-UHFFFAOYSA-N

>  <smiles>  (3238) 
COC(=O)c1cc(C(F)(F)F)ncc1N(N)CC1(C)CCC1

>  <ref_pdb>  (3238) 
A0528a

>  <alias>  (3238) 
RARCCGOPDBSZJJ-UHFFFAOYSA-N-P15-P15-P308-601501

>  <HIPPO Pose ID>  (3238) 
502058

>  <name>  (3238) 
RARCCGOPDBSZJJ-UHFFFAOYSA-N-P15-P15-P308-601501

>  <HIPPO Compound ID>  (3238) 
292743

>  <ref_mols>  (3238) 
A4331a,A0514a

>  <distance_score>  (3238) 
1.434906

>  <inspiration_score>  (3238) 
None

$$$$
RARCCGOPDBSZJJ-UHFFFAOYSA-N-P308-P15-P308-601501
     RDKit          3D

 22 23  0  0  0  0  0  0  0  0999 V2000
    9.5160    8.6353   23.6232 C   0  0  0  0  0  0  0  0  0  0  0  0
    8.7453    9.5054   24.4501 O   0  0  0  0  0  0  0  0  0  0  0  0
    8.7385   10.7828   24.0006 C   0  0  0  0  0  0  0  0  0  0  0  0
    9.2827   11.1839   22.9885 O   0  0  0  0  0  0  0  0  0  0  0  0
    7.9487   11.6293   24.9175 C   0  0  0  0  0  0  0  0  0  0  0  0
    6.8318   11.1013   25.5747 C   0  0  0  0  0  0  0  0  0  0  0  0
    6.0827   11.9470   26.3905 C   0  0  0  0  0  0  0  0  0  0  0  0
    4.9122   11.4504   27.1879 C   0  0  0  0  0  0  0  0  0  0  0  0
    4.7006   10.1230   27.0281 F   0  0  0  0  0  0  0  0  0  0  0  0
    3.7303   12.0497   26.8698 F   0  0  0  0  0  0  0  0  0  0  0  0
    5.0696   11.6234   28.5327 F   0  0  0  0  0  0  0  0  0  0  0  0
    6.3927   13.2534   26.5603 N   0  0  0  0  0  0  0  0  0  0  0  0
    7.4727   13.7253   25.9238 C   0  0  0  0  0  0  0  0  0  0  0  0
    8.3012   12.9699   25.1007 C   0  0  0  0  0  0  0  0  0  0  0  0
    9.4354   13.5638   24.4844 N   0  0  0  0  0  0  0  0  0  0  0  0
   10.3264   14.1408   25.4269 N   0  0  0  0  0  0  0  0  0  0  0  0
    8.9436   14.3730   23.3307 C   0  0  0  0  0  0  0  0  0  0  0  0
    9.9906   14.9978   22.3977 C   0  0  0  0  0  0  0  0  0  0  0  0
    9.2920   15.5092   21.1315 C   0  0  0  0  0  0  0  0  0  0  0  0
   10.8799   16.1149   22.9855 C   0  0  0  0  0  0  0  0  0  0  0  0
   12.1284   15.2814   22.7143 C   0  0  0  0  0  0  0  0  0  0  0  0
   11.2720   14.1984   22.0608 C   0  0  0  0  0  0  0  0  0  0  0  0
  1  2  1  0
  2  3  1  0
  3  4  2  0
  3  5  1  0
  5  6  2  0
  6  7  1  0
  7  8  1  0
  8  9  1  0
  8 10  1  0
  8 11  1  0
  7 12  2  0
 12 13  1  0
 13 14  2  0
 14 15  1  0
 15 16  1  0
 15 17  1  0
 17 18  1  0
 18 19  1  0
 18 20  1  0
 20 21  1  0
 21 22  1  0
 14  5  1  0
 22 18  1  0
M  END
>  <energy_score>  (3239) 
-31.649652

>  <inchikey>  (3239) 
RARCCGOPDBSZJJ-UHFFFAOYSA-N

>  <smiles>  (3239) 
COC(=O)c1cc(C(F)(F)F)ncc1N(N)CC1(C)CCC1

>  <ref_pdb>  (3239) 
A0528a

>  <alias>  (3239) 
RARCCGOPDBSZJJ-UHFFFAOYSA-N-P308-P15-P308-601501

>  <HIPPO Pose ID>  (3239) 
502059

>  <name>  (3239) 
RARCCGOPDBSZJJ-UHFFFAOYSA-N-P308-P15-P308-601501

>  <HIPPO Compound ID>  (3239) 
292743

>  <ref_mols>  (3239) 
A4331a,A0514a

>  <distance_score>  (3239) 
1.367115

>  <inspiration_score>  (3239) 
None

$$$$
CTQILUJMNJWBMM-UHFFFAOYSA-N-P15-P15-P308-601501
     RDKit          3D

 22 23  0  0  0  0  0  0  0  0999 V2000
    9.3782    8.6826   22.9323 C   0  0  0  0  0  0  0  0  0  0  0  0
    8.4924    9.5896   23.5885 O   0  0  0  0  0  0  0  0  0  0  0  0
    9.0400   10.8020   23.8291 C   0  0  0  0  0  0  0  0  0  0  0  0
   10.1802   11.1263   23.5579 O   0  0  0  0  0  0  0  0  0  0  0  0
    8.0867   11.6564   24.5693 C   0  0  0  0  0  0  0  0  0  0  0  0
    7.2863   10.9876   25.5124 C   0  0  0  0  0  0  0  0  0  0  0  0
    6.4380   11.7027   26.3477 C   0  0  0  0  0  0  0  0  0  0  0  0
    5.4839   10.9873   27.2672 C   0  0  0  0  0  0  0  0  0  0  0  0
    4.3664   11.7134   27.5525 F   0  0  0  0  0  0  0  0  0  0  0  0
    5.0361    9.8066   26.7591 F   0  0  0  0  0  0  0  0  0  0  0  0
    6.0420   10.6757   28.4739 F   0  0  0  0  0  0  0  0  0  0  0  0
    6.4420   13.0428   26.3739 N   0  0  0  0  0  0  0  0  0  0  0  0
    7.1293   13.6418   25.3890 C   0  0  0  0  0  0  0  0  0  0  0  0
    7.9442   13.0373   24.4107 C   0  0  0  0  0  0  0  0  0  0  0  0
    8.3714   13.8625   23.3647 N   0  0  0  0  0  0  0  0  0  0  0  0
    7.3505   14.7171   22.9227 N   0  0  0  0  0  0  0  0  0  0  0  0
    9.6654   13.7958   22.6416 C   0  0  0  0  0  0  0  0  0  0  0  0
    9.7066   14.8043   21.4650 C   0  0  0  0  0  0  0  0  0  0  0  0
   11.0227   14.9416   20.7277 C   0  0  0  0  0  0  0  0  0  0  0  0
   12.3878   15.2588   21.8540 S   0  0  0  0  0  0  0  0  0  0  0  0
   12.1526   13.8667   22.9619 C   0  0  0  0  0  0  0  0  0  0  0  0
   10.8110   13.9449   23.6390 C   0  0  0  0  0  0  0  0  0  0  0  0
  1  2  1  0
  2  3  1  0
  3  4  2  0
  3  5  1  0
  5  6  2  0
  6  7  1  0
  7  8  1  0
  8  9  1  0
  8 10  1  0
  8 11  1  0
  7 12  2  0
 12 13  1  0
 13 14  2  0
 14 15  1  0
 15 16  1  0
 15 17  1  0
 17 18  1  0
 18 19  1  0
 19 20  1  0
 20 21  1  0
 21 22  1  0
 14  5  1  0
 22 17  1  0
M  END
>  <energy_score>  (3240) 
-32.135151

>  <inchikey>  (3240) 
CTQILUJMNJWBMM-UHFFFAOYSA-N

>  <smiles>  (3240) 
COC(=O)c1cc(C(F)(F)F)ncc1N(N)C1CCSCC1

>  <ref_pdb>  (3240) 
A0528a

>  <alias>  (3240) 
CTQILUJMNJWBMM-UHFFFAOYSA-N-P15-P15-P308-601501

>  <HIPPO Pose ID>  (3240) 
502060

>  <name>  (3240) 
CTQILUJMNJWBMM-UHFFFAOYSA-N-P15-P15-P308-601501

>  <HIPPO Compound ID>  (3240) 
292744

>  <ref_mols>  (3240) 
A4331a,A0514a

>  <distance_score>  (3240) 
1.766915

>  <inspiration_score>  (3240) 
None

$$$$
PMHRNAFZWJLPCK-UHFFFAOYSA-N-P15-P15-P308-601501
     RDKit          3D

 22 23  0  0  0  0  0  0  0  0999 V2000
    9.4178    8.7311   22.9838 C   0  0  0  0  0  0  0  0  0  0  0  0
    8.5480    9.6151   23.6938 O   0  0  0  0  0  0  0  0  0  0  0  0
    9.0470   10.8644   23.8252 C   0  0  0  0  0  0  0  0  0  0  0  0
   10.1387   11.2473   23.4535 O   0  0  0  0  0  0  0  0  0  0  0  0
    8.1218   11.7163   24.5919 C   0  0  0  0  0  0  0  0  0  0  0  0
    7.3105   11.1248   25.5593 C   0  0  0  0  0  0  0  0  0  0  0  0
    6.4964   11.9279   26.3486 C   0  0  0  0  0  0  0  0  0  0  0  0
    5.5196   11.2870   27.3065 C   0  0  0  0  0  0  0  0  0  0  0  0
    4.3810   12.0098   27.4820 F   0  0  0  0  0  0  0  0  0  0  0  0
    5.1091   10.0534   26.8921 F   0  0  0  0  0  0  0  0  0  0  0  0
    6.0458   11.0942   28.5495 F   0  0  0  0  0  0  0  0  0  0  0  0
    6.5463   13.2766   26.2879 N   0  0  0  0  0  0  0  0  0  0  0  0
    7.2717   13.8112   25.2922 C   0  0  0  0  0  0  0  0  0  0  0  0
    8.0466   13.0947   24.3812 C   0  0  0  0  0  0  0  0  0  0  0  0
    8.4292   13.7267   23.1736 N   0  0  0  0  0  0  0  0  0  0  0  0
    7.3356   14.0508   22.3533 N   0  0  0  0  0  0  0  0  0  0  0  0
    9.7130   14.1439   22.7498 C   0  0  0  0  0  0  0  0  0  0  0  0
    9.9638   14.7216   21.5096 C   0  0  0  0  0  0  0  0  0  0  0  0
   11.1700   15.1368   21.0667 N   0  0  0  0  0  0  0  0  0  0  0  0
   12.1836   14.9716   21.9204 C   0  0  0  0  0  0  0  0  0  0  0  0
   12.0869   14.4679   23.1652 N   0  0  0  0  0  0  0  0  0  0  0  0
   10.8529   14.0502   23.5293 C   0  0  0  0  0  0  0  0  0  0  0  0
  1  2  1  0
  2  3  1  0
  3  4  2  0
  3  5  1  0
  5  6  2  0
  6  7  1  0
  7  8  1  0
  8  9  1  0
  8 10  1  0
  8 11  1  0
  7 12  2  0
 12 13  1  0
 13 14  2  0
 14 15  1  0
 15 16  1  0
 15 17  1  0
 17 18  2  0
 18 19  1  0
 19 20  2  0
 20 21  1  0
 21 22  2  0
 14  5  1  0
 22 17  1  0
M  END
>  <energy_score>  (3241) 
-44.857948

>  <inchikey>  (3241) 
PMHRNAFZWJLPCK-UHFFFAOYSA-N

>  <smiles>  (3241) 
COC(=O)c1cc(C(F)(F)F)ncc1N(N)c1cncnc1

>  <ref_pdb>  (3241) 
A0528a

>  <alias>  (3241) 
PMHRNAFZWJLPCK-UHFFFAOYSA-N-P15-P15-P308-601501

>  <HIPPO Pose ID>  (3241) 
502062

>  <name>  (3241) 
PMHRNAFZWJLPCK-UHFFFAOYSA-N-P15-P15-P308-601501

>  <HIPPO Compound ID>  (3241) 
292745

>  <ref_mols>  (3241) 
A4331a,A0514a

>  <distance_score>  (3241) 
1.827013

>  <inspiration_score>  (3241) 
None

$$$$
PMHRNAFZWJLPCK-UHFFFAOYSA-N-P308-P15-P308-601501
     RDKit          3D

 22 23  0  0  0  0  0  0  0  0999 V2000
    9.5934    8.7022   23.7000 C   0  0  0  0  0  0  0  0  0  0  0  0
    8.8251    9.6799   24.4009 O   0  0  0  0  0  0  0  0  0  0  0  0
    8.9008   10.9118   23.8465 C   0  0  0  0  0  0  0  0  0  0  0  0
    9.5752   11.2242   22.8856 O   0  0  0  0  0  0  0  0  0  0  0  0
    8.0036   11.8472   24.5490 C   0  0  0  0  0  0  0  0  0  0  0  0
    6.8948   11.3646   25.2362 C   0  0  0  0  0  0  0  0  0  0  0  0
    6.0727   12.2666   25.8996 C   0  0  0  0  0  0  0  0  0  0  0  0
    4.9774   11.7559   26.8026 C   0  0  0  0  0  0  0  0  0  0  0  0
    5.1838   12.1114   28.1007 F   0  0  0  0  0  0  0  0  0  0  0  0
    3.7330   12.2050   26.4854 F   0  0  0  0  0  0  0  0  0  0  0  0
    4.8885   10.3919   26.8212 F   0  0  0  0  0  0  0  0  0  0  0  0
    6.2719   13.6050   25.8404 N   0  0  0  0  0  0  0  0  0  0  0  0
    7.3409   14.0403   25.1561 C   0  0  0  0  0  0  0  0  0  0  0  0
    8.2802   13.2171   24.5499 C   0  0  0  0  0  0  0  0  0  0  0  0
    9.5892   13.7051   24.3290 N   0  0  0  0  0  0  0  0  0  0  0  0
   10.3299   13.8089   25.5349 N   0  0  0  0  0  0  0  0  0  0  0  0
   10.0893   14.4215   23.2196 C   0  0  0  0  0  0  0  0  0  0  0  0
    9.4092   14.6331   22.0348 C   0  0  0  0  0  0  0  0  0  0  0  0
    9.9168   15.2821   20.9612 N   0  0  0  0  0  0  0  0  0  0  0  0
   11.1743   15.7336   21.0911 C   0  0  0  0  0  0  0  0  0  0  0  0
   11.9396   15.6135   22.1803 N   0  0  0  0  0  0  0  0  0  0  0  0
   11.3734   14.9520   23.2053 C   0  0  0  0  0  0  0  0  0  0  0  0
  1  2  1  0
  2  3  1  0
  3  4  2  0
  3  5  1  0
  5  6  2  0
  6  7  1  0
  7  8  1  0
  8  9  1  0
  8 10  1  0
  8 11  1  0
  7 12  2  0
 12 13  1  0
 13 14  2  0
 14 15  1  0
 15 16  1  0
 15 17  1  0
 17 18  2  0
 18 19  1  0
 19 20  2  0
 20 21  1  0
 21 22  2  0
 14  5  1  0
 22 17  1  0
M  END
>  <energy_score>  (3242) 
-45.909567

>  <inchikey>  (3242) 
PMHRNAFZWJLPCK-UHFFFAOYSA-N

>  <smiles>  (3242) 
COC(=O)c1cc(C(F)(F)F)ncc1N(N)c1cncnc1

>  <ref_pdb>  (3242) 
A0528a

>  <alias>  (3242) 
PMHRNAFZWJLPCK-UHFFFAOYSA-N-P308-P15-P308-601501

>  <HIPPO Pose ID>  (3242) 
502063

>  <name>  (3242) 
PMHRNAFZWJLPCK-UHFFFAOYSA-N-P308-P15-P308-601501

>  <HIPPO Compound ID>  (3242) 
292745

>  <ref_mols>  (3242) 
A4331a,A0514a

>  <distance_score>  (3242) 
1.878879

>  <inspiration_score>  (3242) 
None

$$$$
GQPLEPVZMOTLLH-UHFFFAOYSA-N-P15-P15-P308-601501
     RDKit          3D

 22 22  0  0  0  0  0  0  0  0999 V2000
    9.3032    8.8574   23.1589 C   0  0  0  0  0  0  0  0  0  0  0  0
    8.3670    9.5739   23.9761 O   0  0  0  0  0  0  0  0  0  0  0  0
    8.7286   10.8570   24.2227 C   0  0  0  0  0  0  0  0  0  0  0  0
    9.7535   11.3795   23.8272 O   0  0  0  0  0  0  0  0  0  0  0  0
    7.6973   11.5375   25.0582 C   0  0  0  0  0  0  0  0  0  0  0  0
    6.7838   10.7666   25.7888 C   0  0  0  0  0  0  0  0  0  0  0  0
    5.9140   11.4135   26.6642 C   0  0  0  0  0  0  0  0  0  0  0  0
    5.1176   10.6414   27.6748 C   0  0  0  0  0  0  0  0  0  0  0  0
    4.3885    9.6631   27.1036 F   0  0  0  0  0  0  0  0  0  0  0  0
    4.2183   11.3924   28.3751 F   0  0  0  0  0  0  0  0  0  0  0  0
    5.9020   10.0440   28.6167 F   0  0  0  0  0  0  0  0  0  0  0  0
    5.8192   12.7570   26.7350 N   0  0  0  0  0  0  0  0  0  0  0  0
    6.6721   13.4716   25.9974 C   0  0  0  0  0  0  0  0  0  0  0  0
    7.6900   12.9357   25.2142 C   0  0  0  0  0  0  0  0  0  0  0  0
    8.6890   13.7904   24.6989 N   0  0  0  0  0  0  0  0  0  0  0  0
    9.0907   14.8638   25.5511 N   0  0  0  0  0  0  0  0  0  0  0  0
    8.4295   14.1378   23.2837 C   0  0  0  0  0  0  0  0  0  0  0  0
    9.7527   14.2581   22.5507 C   0  0  0  0  0  0  0  0  0  0  0  0
    9.6086   15.0617   21.2638 C   0  0  0  0  0  0  0  0  0  0  0  0
   10.7774   14.9214   20.4022 N   0  0  0  0  0  0  0  0  0  0  0  0
   12.0514   15.1323   21.0770 C   0  0  0  0  0  0  0  0  0  0  0  0
   10.6396   15.7509   19.2056 C   0  0  0  0  0  0  0  0  0  0  0  0
  1  2  1  0
  2  3  1  0
  3  4  2  0
  3  5  1  0
  5  6  2  0
  6  7  1  0
  7  8  1  0
  8  9  1  0
  8 10  1  0
  8 11  1  0
  7 12  2  0
 12 13  1  0
 13 14  2  0
 14 15  1  0
 15 16  1  0
 15 17  1  0
 17 18  1  0
 18 19  1  0
 19 20  1  0
 20 21  1  0
 20 22  1  0
 14  5  1  0
M  END
>  <energy_score>  (3243) 
-26.276889

>  <inchikey>  (3243) 
GQPLEPVZMOTLLH-UHFFFAOYSA-N

>  <smiles>  (3243) 
COC(=O)c1cc(C(F)(F)F)ncc1N(N)CCCN(C)C

>  <ref_pdb>  (3243) 
A0528a

>  <alias>  (3243) 
GQPLEPVZMOTLLH-UHFFFAOYSA-N-P15-P15-P308-601501

>  <HIPPO Pose ID>  (3243) 
502064

>  <name>  (3243) 
GQPLEPVZMOTLLH-UHFFFAOYSA-N-P15-P15-P308-601501

>  <HIPPO Compound ID>  (3243) 
292746

>  <ref_mols>  (3243) 
A4331a,A0514a

>  <distance_score>  (3243) 
1.275028

>  <inspiration_score>  (3243) 
None

$$$$
GQPLEPVZMOTLLH-UHFFFAOYSA-N-P308-P15-P308-601501
     RDKit          3D

 22 22  0  0  0  0  0  0  0  0999 V2000
    9.3174    8.7668   23.2633 C   0  0  0  0  0  0  0  0  0  0  0  0
    8.4294    9.6368   23.9678 O   0  0  0  0  0  0  0  0  0  0  0  0
    9.0591   10.6588   24.5989 C   0  0  0  0  0  0  0  0  0  0  0  0
   10.2641   10.8412   24.6479 O   0  0  0  0  0  0  0  0  0  0  0  0
    8.0203   11.5340   25.2052 C   0  0  0  0  0  0  0  0  0  0  0  0
    6.8714   10.9749   25.7721 C   0  0  0  0  0  0  0  0  0  0  0  0
    5.9741   11.8217   26.4260 C   0  0  0  0  0  0  0  0  0  0  0  0
    4.8393   11.2856   27.2466 C   0  0  0  0  0  0  0  0  0  0  0  0
    4.6200    9.9694   27.0279 F   0  0  0  0  0  0  0  0  0  0  0  0
    3.6432   11.8990   27.0172 F   0  0  0  0  0  0  0  0  0  0  0  0
    5.0579   11.3920   28.5898 F   0  0  0  0  0  0  0  0  0  0  0  0
    6.1389   13.1632   26.4775 N   0  0  0  0  0  0  0  0  0  0  0  0
    7.2341   13.6714   25.9054 C   0  0  0  0  0  0  0  0  0  0  0  0
    8.2175   12.9160   25.2771 C   0  0  0  0  0  0  0  0  0  0  0  0
    9.3407   13.5509   24.7179 N   0  0  0  0  0  0  0  0  0  0  0  0
   10.0568   14.3638   25.6458 N   0  0  0  0  0  0  0  0  0  0  0  0
    8.9652   14.1394   23.4137 C   0  0  0  0  0  0  0  0  0  0  0  0
   10.2323   14.4521   22.6556 C   0  0  0  0  0  0  0  0  0  0  0  0
    9.9434   15.1426   21.3334 C   0  0  0  0  0  0  0  0  0  0  0  0
   11.1794   15.2413   20.5573 N   0  0  0  0  0  0  0  0  0  0  0  0
   12.1984   16.0471   21.2249 C   0  0  0  0  0  0  0  0  0  0  0  0
   10.9047   15.7551   19.2180 C   0  0  0  0  0  0  0  0  0  0  0  0
  1  2  1  0
  2  3  1  0
  3  4  2  0
  3  5  1  0
  5  6  2  0
  6  7  1  0
  7  8  1  0
  8  9  1  0
  8 10  1  0
  8 11  1  0
  7 12  2  0
 12 13  1  0
 13 14  2  0
 14 15  1  0
 15 16  1  0
 15 17  1  0
 17 18  1  0
 18 19  1  0
 19 20  1  0
 20 21  1  0
 20 22  1  0
 14  5  1  0
M  END
>  <energy_score>  (3244) 
-30.720346

>  <inchikey>  (3244) 
GQPLEPVZMOTLLH-UHFFFAOYSA-N

>  <smiles>  (3244) 
COC(=O)c1cc(C(F)(F)F)ncc1N(N)CCCN(C)C

>  <ref_pdb>  (3244) 
A0528a

>  <alias>  (3244) 
GQPLEPVZMOTLLH-UHFFFAOYSA-N-P308-P15-P308-601501

>  <HIPPO Pose ID>  (3244) 
502065

>  <name>  (3244) 
GQPLEPVZMOTLLH-UHFFFAOYSA-N-P308-P15-P308-601501

>  <HIPPO Compound ID>  (3244) 
292746

>  <ref_mols>  (3244) 
A4331a,A0514a

>  <distance_score>  (3244) 
1.209479

>  <inspiration_score>  (3244) 
None

$$$$
QLQOPOQQZXJZSM-UHFFFAOYSA-N-P15-P15-P308-601501
     RDKit          3D

 22 23  0  0  0  0  0  0  0  0999 V2000
    9.4556    8.7705   23.0097 C   0  0  0  0  0  0  0  0  0  0  0  0
    8.6250    9.7142   23.6884 O   0  0  0  0  0  0  0  0  0  0  0  0
    9.2024   10.9275   23.8492 C   0  0  0  0  0  0  0  0  0  0  0  0
   10.3485   11.2138   23.5495 O   0  0  0  0  0  0  0  0  0  0  0  0
    8.2412   11.8672   24.4814 C   0  0  0  0  0  0  0  0  0  0  0  0
    7.1483   11.3679   25.1908 C   0  0  0  0  0  0  0  0  0  0  0  0
    6.3107   12.2551   25.8615 C   0  0  0  0  0  0  0  0  0  0  0  0
    5.2343   11.7295   26.7771 C   0  0  0  0  0  0  0  0  0  0  0  0
    5.4862   12.0201   28.0845 F   0  0  0  0  0  0  0  0  0  0  0  0
    5.1058   10.3700   26.7378 F   0  0  0  0  0  0  0  0  0  0  0  0
    3.9901   12.2257   26.5283 F   0  0  0  0  0  0  0  0  0  0  0  0
    6.4768   13.5960   25.7976 N   0  0  0  0  0  0  0  0  0  0  0  0
    7.5259   14.0481   25.0904 C   0  0  0  0  0  0  0  0  0  0  0  0
    8.4792   13.2470   24.4747 C   0  0  0  0  0  0  0  0  0  0  0  0
    9.7386   13.8152   24.1860 N   0  0  0  0  0  0  0  0  0  0  0  0
   10.6847   13.4923   25.1851 N   0  0  0  0  0  0  0  0  0  0  0  0
   10.2020   14.2433   22.9017 C   0  0  0  0  0  0  0  0  0  0  0  0
   11.5736   14.3696   22.6789 C   0  0  0  0  0  0  0  0  0  0  0  0
   11.9816   14.9534   21.5110 C   0  0  0  0  0  0  0  0  0  0  0  0
   11.1205   15.4012   20.6029 N   0  0  0  0  0  0  0  0  0  0  0  0
    9.8282   15.2049   20.8800 C   0  0  0  0  0  0  0  0  0  0  0  0
    9.3107   14.6269   21.9765 N   0  0  0  0  0  0  0  0  0  0  0  0
  1  2  1  0
  2  3  1  0
  3  4  2  0
  3  5  1  0
  5  6  2  0
  6  7  1  0
  7  8  1  0
  8  9  1  0
  8 10  1  0
  8 11  1  0
  7 12  2  0
 12 13  1  0
 13 14  2  0
 14 15  1  0
 15 16  1  0
 15 17  1  0
 17 18  2  0
 18 19  1  0
 19 20  2  0
 20 21  1  0
 21 22  2  0
 14  5  1  0
 22 17  1  0
M  END
>  <energy_score>  (3245) 
-23.305939

>  <inchikey>  (3245) 
QLQOPOQQZXJZSM-UHFFFAOYSA-N

>  <smiles>  (3245) 
COC(=O)c1cc(C(F)(F)F)ncc1N(N)c1ccncn1

>  <ref_pdb>  (3245) 
A0528a

>  <alias>  (3245) 
QLQOPOQQZXJZSM-UHFFFAOYSA-N-P15-P15-P308-601501

>  <HIPPO Pose ID>  (3245) 
502066

>  <name>  (3245) 
QLQOPOQQZXJZSM-UHFFFAOYSA-N-P15-P15-P308-601501

>  <HIPPO Compound ID>  (3245) 
292747

>  <ref_mols>  (3245) 
A4331a,A0514a

>  <distance_score>  (3245) 
1.929509

>  <inspiration_score>  (3245) 
None

$$$$
QLQOPOQQZXJZSM-UHFFFAOYSA-N-P308-P15-P308-601501
     RDKit          3D

 22 23  0  0  0  0  0  0  0  0999 V2000
    9.7048    8.7318   23.3004 C   0  0  0  0  0  0  0  0  0  0  0  0
    8.8367    9.7441   23.7996 O   0  0  0  0  0  0  0  0  0  0  0  0
    9.4581   10.7879   24.3987 C   0  0  0  0  0  0  0  0  0  0  0  0
   10.6519   10.9219   24.6092 O   0  0  0  0  0  0  0  0  0  0  0  0
    8.3897   11.7468   24.7558 C   0  0  0  0  0  0  0  0  0  0  0  0
    7.2685   11.2590   25.4221 C   0  0  0  0  0  0  0  0  0  0  0  0
    6.3000   12.1576   25.8493 C   0  0  0  0  0  0  0  0  0  0  0  0
    5.2271   11.6777   26.7977 C   0  0  0  0  0  0  0  0  0  0  0  0
    4.0231   12.2860   26.6444 F   0  0  0  0  0  0  0  0  0  0  0  0
    5.5663   11.8743   28.1064 F   0  0  0  0  0  0  0  0  0  0  0  0
    4.9829   10.3370   26.6950 F   0  0  0  0  0  0  0  0  0  0  0  0
    6.3584   13.4772   25.5478 N   0  0  0  0  0  0  0  0  0  0  0  0
    7.4388   13.9073   24.8652 C   0  0  0  0  0  0  0  0  0  0  0  0
    8.5221   13.1153   24.5124 C   0  0  0  0  0  0  0  0  0  0  0  0
    9.7678   13.7070   24.2346 N   0  0  0  0  0  0  0  0  0  0  0  0
   10.5979   13.6611   25.3768 N   0  0  0  0  0  0  0  0  0  0  0  0
   10.1524   14.4672   23.0856 C   0  0  0  0  0  0  0  0  0  0  0  0
   11.4504   14.9716   23.0090 C   0  0  0  0  0  0  0  0  0  0  0  0
   11.8064   15.6613   21.8774 C   0  0  0  0  0  0  0  0  0  0  0  0
   10.9627   15.8694   20.8670 N   0  0  0  0  0  0  0  0  0  0  0  0
    9.7415   15.3393   21.0122 C   0  0  0  0  0  0  0  0  0  0  0  0
    9.2812   14.6556   22.0774 N   0  0  0  0  0  0  0  0  0  0  0  0
  1  2  1  0
  2  3  1  0
  3  4  2  0
  3  5  1  0
  5  6  2  0
  6  7  1  0
  7  8  1  0
  8  9  1  0
  8 10  1  0
  8 11  1  0
  7 12  2  0
 12 13  1  0
 13 14  2  0
 14 15  1  0
 15 16  1  0
 15 17  1  0
 17 18  2  0
 18 19  1  0
 19 20  2  0
 20 21  1  0
 21 22  2  0
 14  5  1  0
 22 17  1  0
M  END
>  <energy_score>  (3246) 
-24.391867

>  <inchikey>  (3246) 
QLQOPOQQZXJZSM-UHFFFAOYSA-N

>  <smiles>  (3246) 
COC(=O)c1cc(C(F)(F)F)ncc1N(N)c1ccncn1

>  <ref_pdb>  (3246) 
A0528a

>  <alias>  (3246) 
QLQOPOQQZXJZSM-UHFFFAOYSA-N-P308-P15-P308-601501

>  <HIPPO Pose ID>  (3246) 
502067

>  <name>  (3246) 
QLQOPOQQZXJZSM-UHFFFAOYSA-N-P308-P15-P308-601501

>  <HIPPO Compound ID>  (3246) 
292747

>  <ref_mols>  (3246) 
A4331a,A0514a

>  <distance_score>  (3246) 
1.88038

>  <inspiration_score>  (3246) 
None

$$$$
SEAGHYODDGETLF-UHFFFAOYSA-N-P308-P15-P308-601501
     RDKit          3D

 22 23  0  0  0  0  0  0  0  0999 V2000
    9.6169    8.8463   23.2159 C   0  0  0  0  0  0  0  0  0  0  0  0
    8.7815    9.9065   23.6770 O   0  0  0  0  0  0  0  0  0  0  0  0
    9.4166   10.8989   24.3509 C   0  0  0  0  0  0  0  0  0  0  0  0
   10.6050   10.9679   24.6081 O   0  0  0  0  0  0  0  0  0  0  0  0
    8.3489   11.8505   24.7468 C   0  0  0  0  0  0  0  0  0  0  0  0
    7.2467   11.3163   25.4178 C   0  0  0  0  0  0  0  0  0  0  0  0
    6.2399   12.1692   25.8463 C   0  0  0  0  0  0  0  0  0  0  0  0
    5.1277   11.6452   26.7166 C   0  0  0  0  0  0  0  0  0  0  0  0
    5.3123   11.9638   28.0285 F   0  0  0  0  0  0  0  0  0  0  0  0
    3.8917   12.1222   26.3989 F   0  0  0  0  0  0  0  0  0  0  0  0
    5.0169   10.2837   26.6906 F   0  0  0  0  0  0  0  0  0  0  0  0
    6.2693   13.4957   25.5945 N   0  0  0  0  0  0  0  0  0  0  0  0
    7.3356   13.9722   24.9279 C   0  0  0  0  0  0  0  0  0  0  0  0
    8.4322   13.2276   24.5022 C   0  0  0  0  0  0  0  0  0  0  0  0
    9.6222   13.8348   24.0737 N   0  0  0  0  0  0  0  0  0  0  0  0
   10.5290   13.8544   25.1592 N   0  0  0  0  0  0  0  0  0  0  0  0
    9.5594   14.9993   23.1315 C   0  0  1  0  0  0  0  0  0  0  0  0
   10.8271   15.8762   23.1730 C   0  0  0  0  0  0  0  0  0  0  0  0
   11.9152   15.2966   22.2851 C   0  0  0  0  0  0  0  0  0  0  0  0
   11.4412   15.2388   20.8362 C   0  0  0  0  0  0  0  0  0  0  0  0
   10.0150   15.3027   20.7264 O   0  0  0  0  0  0  0  0  0  0  0  0
    9.3673   14.4734   21.6923 C   0  0  0  0  0  0  0  0  0  0  0  0
  1  2  1  0
  2  3  1  0
  3  4  2  0
  3  5  1  0
  5  6  2  0
  6  7  1  0
  7  8  1  0
  8  9  1  0
  8 10  1  0
  8 11  1  0
  7 12  2  0
 12 13  1  0
 13 14  2  0
 14 15  1  0
 15 16  1  0
 17 15  1  1
 17 18  1  0
 18 19  1  0
 19 20  1  0
 20 21  1  0
 21 22  1  0
 14  5  1  0
 22 17  1  0
M  END
>  <energy_score>  (3247) 
-28.332917

>  <inchikey>  (3247) 
SEAGHYODDGETLF-UHFFFAOYSA-N

>  <smiles>  (3247) 
COC(=O)c1cc(C(F)(F)F)ncc1N(N)C1CCCOC1

>  <ref_pdb>  (3247) 
A0528a

>  <alias>  (3247) 
SEAGHYODDGETLF-UHFFFAOYSA-N-P308-P15-P308-601501

>  <HIPPO Pose ID>  (3247) 
502069

>  <name>  (3247) 
SEAGHYODDGETLF-UHFFFAOYSA-N-P308-P15-P308-601501

>  <HIPPO Compound ID>  (3247) 
292748

>  <ref_mols>  (3247) 
A4331a,A0514a

>  <distance_score>  (3247) 
1.834157

>  <inspiration_score>  (3247) 
None

$$$$
GPJYJMLMDRPIFK-UHFFFAOYSA-N-P15-P15-P308-601501
     RDKit          3D

 22 23  0  0  0  0  0  0  0  0999 V2000
    9.4296    8.7237   22.9818 C   0  0  0  0  0  0  0  0  0  0  0  0
    8.5594    9.5991   23.6990 O   0  0  0  0  0  0  0  0  0  0  0  0
    9.0494   10.8483   23.8426 C   0  0  0  0  0  0  0  0  0  0  0  0
   10.1438   11.2473   23.4899 O   0  0  0  0  0  0  0  0  0  0  0  0
    8.1090   11.6901   24.6006 C   0  0  0  0  0  0  0  0  0  0  0  0
    7.2884   11.0965   25.5585 C   0  0  0  0  0  0  0  0  0  0  0  0
    6.4707   11.9007   26.3433 C   0  0  0  0  0  0  0  0  0  0  0  0
    5.5029   11.2649   27.3116 C   0  0  0  0  0  0  0  0  0  0  0  0
    4.3665   11.9911   27.4973 F   0  0  0  0  0  0  0  0  0  0  0  0
    6.0426   11.0917   28.5544 F   0  0  0  0  0  0  0  0  0  0  0  0
    5.0885   10.0260   26.9242 F   0  0  0  0  0  0  0  0  0  0  0  0
    6.5167   13.2504   26.2812 N   0  0  0  0  0  0  0  0  0  0  0  0
    7.2330   13.7794   25.2758 C   0  0  0  0  0  0  0  0  0  0  0  0
    8.0345   13.0667   24.3873 C   0  0  0  0  0  0  0  0  0  0  0  0
    8.4629   13.7045   23.2095 N   0  0  0  0  0  0  0  0  0  0  0  0
    7.4173   13.9061   22.2876 N   0  0  0  0  0  0  0  0  0  0  0  0
    9.7460   14.1084   22.7690 C   0  0  0  0  0  0  0  0  0  0  0  0
   10.8815   14.0461   23.5724 C   0  0  0  0  0  0  0  0  0  0  0  0
   12.1067   14.4808   23.1832 N   0  0  0  0  0  0  0  0  0  0  0  0
   12.1674   14.9397   21.9088 C   0  0  0  0  0  0  0  0  0  0  0  0
   11.0578   15.0015   21.0891 C   0  0  0  0  0  0  0  0  0  0  0  0
    9.8313   14.6268   21.5112 N   0  0  0  0  0  0  0  0  0  0  0  0
  1  2  1  0
  2  3  1  0
  3  4  2  0
  3  5  1  0
  5  6  2  0
  6  7  1  0
  7  8  1  0
  8  9  1  0
  8 10  1  0
  8 11  1  0
  7 12  2  0
 12 13  1  0
 13 14  2  0
 14 15  1  0
 15 16  1  0
 15 17  1  0
 17 18  2  0
 18 19  1  0
 19 20  2  0
 20 21  1  0
 21 22  2  0
 14  5  1  0
 22 17  1  0
M  END
>  <energy_score>  (3248) 
-23.881142

>  <inchikey>  (3248) 
GPJYJMLMDRPIFK-UHFFFAOYSA-N

>  <smiles>  (3248) 
COC(=O)c1cc(C(F)(F)F)ncc1N(N)c1cnccn1

>  <ref_pdb>  (3248) 
A0528a

>  <alias>  (3248) 
GPJYJMLMDRPIFK-UHFFFAOYSA-N-P15-P15-P308-601501

>  <HIPPO Pose ID>  (3248) 
502076

>  <name>  (3248) 
GPJYJMLMDRPIFK-UHFFFAOYSA-N-P15-P15-P308-601501

>  <HIPPO Compound ID>  (3248) 
292752

>  <ref_mols>  (3248) 
A4331a,A0514a

>  <distance_score>  (3248) 
1.77755

>  <inspiration_score>  (3248) 
None

$$$$
GPJYJMLMDRPIFK-UHFFFAOYSA-N-P308-P15-P308-601501
     RDKit          3D

 22 23  0  0  0  0  0  0  0  0999 V2000
    9.5891    8.7014   23.1992 C   0  0  0  0  0  0  0  0  0  0  0  0
    8.7223    9.6967   23.7326 O   0  0  0  0  0  0  0  0  0  0  0  0
    9.3450   10.6942   24.3948 C   0  0  0  0  0  0  0  0  0  0  0  0
   10.5315   10.7994   24.6606 O   0  0  0  0  0  0  0  0  0  0  0  0
    8.3027   11.6699   24.7700 C   0  0  0  0  0  0  0  0  0  0  0  0
    7.1762   11.1974   25.4360 C   0  0  0  0  0  0  0  0  0  0  0  0
    6.2436   12.1155   25.8988 C   0  0  0  0  0  0  0  0  0  0  0  0
    5.1764   11.6561   26.8640 C   0  0  0  0  0  0  0  0  0  0  0  0
    3.9760   12.2700   26.7093 F   0  0  0  0  0  0  0  0  0  0  0  0
    5.5326   11.8835   28.1644 F   0  0  0  0  0  0  0  0  0  0  0  0
    4.9270   10.3162   26.7985 F   0  0  0  0  0  0  0  0  0  0  0  0
    6.3399   13.4403   25.6268 N   0  0  0  0  0  0  0  0  0  0  0  0
    7.4124   13.8537   24.9257 C   0  0  0  0  0  0  0  0  0  0  0  0
    8.4717   13.0396   24.5539 C   0  0  0  0  0  0  0  0  0  0  0  0
    9.7228   13.6172   24.2655 N   0  0  0  0  0  0  0  0  0  0  0  0
   10.6659   13.4639   25.3118 N   0  0  0  0  0  0  0  0  0  0  0  0
   10.0792   14.4276   23.1504 C   0  0  0  0  0  0  0  0  0  0  0  0
   11.3453   15.0383   23.1197 C   0  0  0  0  0  0  0  0  0  0  0  0
   11.8396   15.7419   22.0785 N   0  0  0  0  0  0  0  0  0  0  0  0
   11.0124   15.8199   21.0228 C   0  0  0  0  0  0  0  0  0  0  0  0
    9.7468   15.2573   21.0362 C   0  0  0  0  0  0  0  0  0  0  0  0
    9.2440   14.5654   22.0936 N   0  0  0  0  0  0  0  0  0  0  0  0
  1  2  1  0
  2  3  1  0
  3  4  2  0
  3  5  1  0
  5  6  2  0
  6  7  1  0
  7  8  1  0
  8  9  1  0
  8 10  1  0
  8 11  1  0
  7 12  2  0
 12 13  1  0
 13 14  2  0
 14 15  1  0
 15 16  1  0
 15 17  1  0
 17 18  2  0
 18 19  1  0
 19 20  2  0
 20 21  1  0
 21 22  2  0
 14  5  1  0
 22 17  1  0
M  END
>  <energy_score>  (3249) 
-24.276482

>  <inchikey>  (3249) 
GPJYJMLMDRPIFK-UHFFFAOYSA-N

>  <smiles>  (3249) 
COC(=O)c1cc(C(F)(F)F)ncc1N(N)c1cnccn1

>  <ref_pdb>  (3249) 
A0528a

>  <alias>  (3249) 
GPJYJMLMDRPIFK-UHFFFAOYSA-N-P308-P15-P308-601501

>  <HIPPO Pose ID>  (3249) 
502077

>  <name>  (3249) 
GPJYJMLMDRPIFK-UHFFFAOYSA-N-P308-P15-P308-601501

>  <HIPPO Compound ID>  (3249) 
292752

>  <ref_mols>  (3249) 
A4331a,A0514a

>  <distance_score>  (3249) 
1.852317

>  <inspiration_score>  (3249) 
None

$$$$
DXROHNYTDSKGLD-UHFFFAOYSA-N-P15-P15-P308-601501
     RDKit          3D

 22 23  0  0  0  0  0  0  0  0999 V2000
    9.6249    8.7092   22.9403 C   0  0  0  0  0  0  0  0  0  0  0  0
    8.8902    9.6198   23.7494 O   0  0  0  0  0  0  0  0  0  0  0  0
    9.2432   10.9201   23.6174 C   0  0  0  0  0  0  0  0  0  0  0  0
   10.1263   11.3482   22.9042 O   0  0  0  0  0  0  0  0  0  0  0  0
    8.4283   11.7488   24.5288 C   0  0  0  0  0  0  0  0  0  0  0  0
    7.4675   11.1173   25.3418 C   0  0  0  0  0  0  0  0  0  0  0  0
    6.6947   11.8817   26.2025 C   0  0  0  0  0  0  0  0  0  0  0  0
    5.6069   11.2298   27.0243 C   0  0  0  0  0  0  0  0  0  0  0  0
    4.4870   11.9915   27.1572 F   0  0  0  0  0  0  0  0  0  0  0  0
    5.1894   10.0412   26.5016 F   0  0  0  0  0  0  0  0  0  0  0  0
    6.0138   10.9382   28.2944 F   0  0  0  0  0  0  0  0  0  0  0  0
    6.9114   13.2115   26.3490 N   0  0  0  0  0  0  0  0  0  0  0  0
    7.7851   13.8058   25.5024 C   0  0  0  0  0  0  0  0  0  0  0  0
    8.5759   13.1432   24.5682 C   0  0  0  0  0  0  0  0  0  0  0  0
    9.0098   13.9401   23.4682 N   0  0  0  0  0  0  0  0  0  0  0  0
   10.3659   14.1613   23.2839 N   0  0  0  0  0  0  0  0  0  0  0  0
   10.7411   14.7180   22.1598 C   0  0  0  0  0  0  0  0  0  0  0  0
   12.1936   14.8278   21.8090 C   0  0  0  0  0  0  0  0  0  0  0  0
    9.8276   15.3213   21.1409 C   0  0  0  0  0  0  0  0  0  0  0  0
    8.3865   15.0946   21.4339 C   0  0  0  0  0  0  0  0  0  0  0  0
    8.1241   14.0098   22.4059 C   0  0  0  0  0  0  0  0  0  0  0  0
    7.1326   13.2902   22.2805 O   0  0  0  0  0  0  0  0  0  0  0  0
  1  2  1  0
  2  3  1  0
  3  4  2  0
  3  5  1  0
  5  6  2  0
  6  7  1  0
  7  8  1  0
  8  9  1  0
  8 10  1  0
  8 11  1  0
  7 12  2  0
 12 13  1  0
 13 14  2  0
 14 15  1  0
 15 16  1  0
 16 17  2  0
 17 18  1  0
 17 19  1  0
 19 20  1  0
 20 21  1  0
 21 22  2  0
 14  5  1  0
 21 15  1  0
M  END
>  <energy_score>  (3250) 
-11.809037

>  <inchikey>  (3250) 
DXROHNYTDSKGLD-UHFFFAOYSA-N

>  <smiles>  (3250) 
COC(=O)c1cc(C(F)(F)F)ncc1N1N=C(C)CCC1=O

>  <ref_pdb>  (3250) 
A0528a

>  <alias>  (3250) 
DXROHNYTDSKGLD-UHFFFAOYSA-N-P15-P15-P308-601501

>  <HIPPO Pose ID>  (3250) 
502082

>  <name>  (3250) 
DXROHNYTDSKGLD-UHFFFAOYSA-N-P15-P15-P308-601501

>  <HIPPO Compound ID>  (3250) 
292755

>  <ref_mols>  (3250) 
A4331a,A0514a

>  <distance_score>  (3250) 
1.996724

>  <inspiration_score>  (3250) 
None

$$$$
HMEBKGKZFNMKAV-UHFFFAOYSA-N-P308-P15-P308-601501
     RDKit          3D

 22 24  0  0  0  0  0  0  0  0999 V2000
    5.0325   15.0402   23.5258 C   0  0  0  0  0  0  0  0  0  0  0  0
    6.4554   15.1529   23.5449 O   0  0  0  0  0  0  0  0  0  0  0  0
    7.0739   14.2239   22.7842 C   0  0  0  0  0  0  0  0  0  0  0  0
    6.5654   13.3274   22.1273 O   0  0  0  0  0  0  0  0  0  0  0  0
    8.5142   14.4770   22.7412 C   0  0  0  0  0  0  0  0  0  0  0  0
    8.9878   14.7471   21.4685 C   0  0  0  0  0  0  0  0  0  0  0  0
   10.3445   14.8668   21.2673 C   0  0  0  0  0  0  0  0  0  0  0  0
   10.8334   14.9300   19.8667 C   0  0  0  0  0  0  0  0  0  0  0  0
   12.1428   15.5556   19.5903 C   0  0  0  0  0  0  0  0  0  0  0  0
   10.8764   16.2161   19.1194 C   0  0  0  0  0  0  0  0  0  0  0  0
   11.2157   14.8573   22.3066 N   0  0  0  0  0  0  0  0  0  0  0  0
   10.7233   14.6247   23.5441 C   0  0  0  0  0  0  0  0  0  0  0  0
    9.3829   14.3713   23.8319 C   0  0  0  0  0  0  0  0  0  0  0  0
    8.9287   13.9700   25.1211 N   0  0  0  0  0  0  0  0  0  0  0  0
    9.7870   14.2686   26.2128 N   0  0  0  0  0  0  0  0  0  0  0  0
    8.1593   12.7675   25.2901 C   0  0  0  0  0  0  0  0  0  0  0  0
    8.5877   11.5520   24.7213 C   0  0  0  0  0  0  0  0  0  0  0  0
    7.8388   10.3843   24.8758 C   0  0  0  0  0  0  0  0  0  0  0  0
    6.6437   10.4184   25.5864 C   0  0  0  0  0  0  0  0  0  0  0  0
    6.1977   11.6139   26.1458 C   0  0  0  0  0  0  0  0  0  0  0  0
    6.9423   12.7957   26.0029 C   0  0  0  0  0  0  0  0  0  0  0  0
    6.4283   14.0497   26.6502 C   0  0  0  0  0  0  0  0  0  0  0  0
  1  2  1  0
  2  3  1  0
  3  4  2  0
  3  5  1  0
  5  6  2  0
  6  7  1  0
  7  8  1  0
  8  9  1  0
  9 10  1  0
  7 11  2  0
 11 12  1  0
 12 13  2  0
 13 14  1  0
 14 15  1  0
 14 16  1  0
 16 17  2  0
 17 18  1  0
 18 19  2  0
 19 20  1  0
 20 21  2  0
 21 22  1  0
 13  5  1  0
 21 16  1  0
 10  8  1  0
M  END
>  <energy_score>  (3251) 
-35.385711

>  <inchikey>  (3251) 
HMEBKGKZFNMKAV-UHFFFAOYSA-N

>  <smiles>  (3251) 
COC(=O)c1cc(C2CC2)ncc1N(N)c1ccccc1C

>  <ref_pdb>  (3251) 
A0528a

>  <alias>  (3251) 
HMEBKGKZFNMKAV-UHFFFAOYSA-N-P308-P15-P308-601501

>  <HIPPO Pose ID>  (3251) 
502087

>  <name>  (3251) 
HMEBKGKZFNMKAV-UHFFFAOYSA-N-P308-P15-P308-601501

>  <HIPPO Compound ID>  (3251) 
292757

>  <ref_mols>  (3251) 
A4331a,A0514a

>  <distance_score>  (3251) 
1.263328

>  <inspiration_score>  (3251) 
None

$$$$
BAFZDZBLPXXVDD-UHFFFAOYSA-N-P308-P15-P308-601501
     RDKit          3D

 22 24  0  0  0  0  0  0  0  0999 V2000
    8.7990    8.9948   23.7631 C   0  0  0  0  0  0  0  0  0  0  0  0
    9.6898    9.5893   24.7051 O   0  0  0  0  0  0  0  0  0  0  0  0
    9.7384   10.9321   24.8282 C   0  0  0  0  0  0  0  0  0  0  0  0
   10.8054   11.5108   25.0321 O   0  0  0  0  0  0  0  0  0  0  0  0
    8.4538   11.6822   24.8208 C   0  0  0  0  0  0  0  0  0  0  0  0
    7.4736   11.3029   25.7317 C   0  0  0  0  0  0  0  0  0  0  0  0
    6.4073   12.1516   25.9969 C   0  0  0  0  0  0  0  0  0  0  0  0
    5.3876   11.8084   27.0501 C   0  0  0  0  0  0  0  0  0  0  0  0
    4.1313   12.6288   27.2161 C   0  0  0  0  0  0  0  0  0  0  0  0
    5.2391   12.7642   28.2157 C   0  0  0  0  0  0  0  0  0  0  0  0
    6.3038   13.3386   25.3708 N   0  0  0  0  0  0  0  0  0  0  0  0
    7.2081   13.6360   24.4187 C   0  0  0  0  0  0  0  0  0  0  0  0
    8.3018   12.8548   24.0758 C   0  0  0  0  0  0  0  0  0  0  0  0
    9.0882   13.1938   22.9535 N   0  0  0  0  0  0  0  0  0  0  0  0
   10.0154   12.2160   22.5714 N   0  0  0  0  0  0  0  0  0  0  0  0
    9.5642   14.5009   22.6441 C   0  0  0  0  0  0  0  0  0  0  0  0
    9.6719   14.7938   21.2953 C   0  0  0  0  0  0  0  0  0  0  0  0
   10.5784   15.7452   20.9209 C   0  0  0  0  0  0  0  0  0  0  0  0
   10.8554   15.9753   19.4700 C   0  0  0  0  0  0  0  0  0  0  0  0
   11.2707   16.4382   21.8362 N   0  0  0  0  0  0  0  0  0  0  0  0
   10.9874   16.1662   23.1205 C   0  0  0  0  0  0  0  0  0  0  0  0
   10.1666   15.2258   23.5903 N   0  0  0  0  0  0  0  0  0  0  0  0
  1  2  1  0
  2  3  1  0
  3  4  2  0
  3  5  1  0
  5  6  2  0
  6  7  1  0
  7  8  1  0
  8  9  1  0
  9 10  1  0
  7 11  2  0
 11 12  1  0
 12 13  2  0
 13 14  1  0
 14 15  1  0
 14 16  1  0
 16 17  2  0
 17 18  1  0
 18 19  1  0
 18 20  2  0
 20 21  1  0
 21 22  2  0
 13  5  1  0
 22 16  1  0
 10  8  1  0
M  END
>  <energy_score>  (3252) 
-27.405472

>  <inchikey>  (3252) 
BAFZDZBLPXXVDD-UHFFFAOYSA-N

>  <smiles>  (3252) 
COC(=O)c1cc(C2CC2)ncc1N(N)c1cc(C)ncn1

>  <ref_pdb>  (3252) 
A0528a

>  <alias>  (3252) 
BAFZDZBLPXXVDD-UHFFFAOYSA-N-P308-P15-P308-601501

>  <HIPPO Pose ID>  (3252) 
502093

>  <name>  (3252) 
BAFZDZBLPXXVDD-UHFFFAOYSA-N-P308-P15-P308-601501

>  <HIPPO Compound ID>  (3252) 
292760

>  <ref_mols>  (3252) 
A4331a,A0514a

>  <distance_score>  (3252) 
1.82568

>  <inspiration_score>  (3252) 
None

$$$$
BKRUOSVOHBPNSR-UHFFFAOYSA-N-P15-P15-P308-601501
     RDKit          3D

 22 24  0  0  0  0  0  0  0  0999 V2000
    9.1584    8.4383   22.9425 C   0  0  0  0  0  0  0  0  0  0  0  0
    8.2549    9.2033   23.7452 O   0  0  0  0  0  0  0  0  0  0  0  0
    8.8144   10.3601   24.1650 C   0  0  0  0  0  0  0  0  0  0  0  0
    9.9623   10.6756   23.9219 O   0  0  0  0  0  0  0  0  0  0  0  0
    7.8308   11.1955   24.9088 C   0  0  0  0  0  0  0  0  0  0  0  0
    6.8172   10.5116   25.6022 C   0  0  0  0  0  0  0  0  0  0  0  0
    5.9342   11.2193   26.4024 C   0  0  0  0  0  0  0  0  0  0  0  0
    5.0024   10.5623   27.3741 C   0  0  0  0  0  0  0  0  0  0  0  0
    5.1346   10.9231   28.8369 C   0  0  0  0  0  0  0  0  0  0  0  0
    3.9448   11.4036   28.0673 C   0  0  0  0  0  0  0  0  0  0  0  0
    5.9474   12.5617   26.4200 N   0  0  0  0  0  0  0  0  0  0  0  0
    6.9024   13.2006   25.7384 C   0  0  0  0  0  0  0  0  0  0  0  0
    7.9404   12.5963   25.0360 C   0  0  0  0  0  0  0  0  0  0  0  0
    9.0259   13.3970   24.6243 N   0  0  0  0  0  0  0  0  0  0  0  0
    9.2891   14.5943   25.3439 N   0  0  0  0  0  0  0  0  0  0  0  0
    9.4459   13.3143   23.2094 C   0  0  0  0  0  0  0  0  0  0  0  0
   10.9699   13.1956   23.1302 C   0  0  0  0  0  0  0  0  0  0  0  0
   11.7967   14.4553   23.0501 C   0  0  0  0  0  0  0  0  0  0  0  0
   11.9196   15.0456   21.6604 C   0  0  0  0  0  0  0  0  0  0  0  0
   10.6461   15.5672   21.0176 C   0  0  0  0  0  0  0  0  0  0  0  0
    9.4702   14.6214   21.0398 C   0  0  0  0  0  0  0  0  0  0  0  0
    8.7494   14.3552   22.3444 C   0  0  0  0  0  0  0  0  0  0  0  0
  1  2  1  0
  2  3  1  0
  3  4  2  0
  3  5  1  0
  5  6  2  0
  6  7  1  0
  7  8  1  0
  8  9  1  0
  9 10  1  0
  7 11  2  0
 11 12  1  0
 12 13  2  0
 13 14  1  0
 14 15  1  0
 14 16  1  0
 16 17  1  0
 17 18  1  0
 18 19  1  0
 19 20  1  0
 20 21  1  0
 21 22  1  0
 13  5  1  0
 22 16  1  0
 10  8  1  0
M  END
>  <energy_score>  (3253) 
-32.867641

>  <inchikey>  (3253) 
BKRUOSVOHBPNSR-UHFFFAOYSA-N

>  <smiles>  (3253) 
COC(=O)c1cc(C2CC2)ncc1N(N)C1CCCCCC1

>  <ref_pdb>  (3253) 
A0528a

>  <alias>  (3253) 
BKRUOSVOHBPNSR-UHFFFAOYSA-N-P15-P15-P308-601501

>  <HIPPO Pose ID>  (3253) 
502096

>  <name>  (3253) 
BKRUOSVOHBPNSR-UHFFFAOYSA-N-P15-P15-P308-601501

>  <HIPPO Compound ID>  (3253) 
292762

>  <ref_mols>  (3253) 
A4331a,A0514a

>  <distance_score>  (3253) 
1.952735

>  <inspiration_score>  (3253) 
None

$$$$
BKRUOSVOHBPNSR-UHFFFAOYSA-N-P308-P15-P308-601501
     RDKit          3D

 22 24  0  0  0  0  0  0  0  0999 V2000
    9.4853    8.7127   23.1955 C   0  0  0  0  0  0  0  0  0  0  0  0
    8.5777    9.5787   23.8722 O   0  0  0  0  0  0  0  0  0  0  0  0
    9.1794   10.6250   24.4929 C   0  0  0  0  0  0  0  0  0  0  0  0
   10.3766   10.8365   24.5475 O   0  0  0  0  0  0  0  0  0  0  0  0
    8.1115   11.4969   25.0397 C   0  0  0  0  0  0  0  0  0  0  0  0
    6.9876   10.8753   25.6141 C   0  0  0  0  0  0  0  0  0  0  0  0
    6.0295   11.6547   26.2455 C   0  0  0  0  0  0  0  0  0  0  0  0
    4.9281   11.0812   27.0912 C   0  0  0  0  0  0  0  0  0  0  0  0
    4.7941   11.5681   28.5205 C   0  0  0  0  0  0  0  0  0  0  0  0
    3.7752   11.9790   27.5091 C   0  0  0  0  0  0  0  0  0  0  0  0
    6.1111   12.9982   26.2185 N   0  0  0  0  0  0  0  0  0  0  0  0
    7.1781   13.5702   25.6460 C   0  0  0  0  0  0  0  0  0  0  0  0
    8.2510   12.8901   25.0889 C   0  0  0  0  0  0  0  0  0  0  0  0
    9.3950   13.6028   24.7036 N   0  0  0  0  0  0  0  0  0  0  0  0
    9.8032   14.6845   25.5263 N   0  0  0  0  0  0  0  0  0  0  0  0
    9.7334   13.6253   23.2557 C   0  0  0  0  0  0  0  0  0  0  0  0
   11.2480   13.7937   23.1040 C   0  0  0  0  0  0  0  0  0  0  0  0
   11.7758   15.2229   23.1328 C   0  0  0  0  0  0  0  0  0  0  0  0
   11.8156   15.8467   21.7484 C   0  0  0  0  0  0  0  0  0  0  0  0
   10.4467   16.2055   21.1943 C   0  0  0  0  0  0  0  0  0  0  0  0
    9.4436   15.0553   21.1361 C   0  0  0  0  0  0  0  0  0  0  0  0
    8.8763   14.6488   22.4991 C   0  0  0  0  0  0  0  0  0  0  0  0
  1  2  1  0
  2  3  1  0
  3  4  2  0
  3  5  1  0
  5  6  2  0
  6  7  1  0
  7  8  1  0
  8  9  1  0
  9 10  1  0
  7 11  2  0
 11 12  1  0
 12 13  2  0
 13 14  1  0
 14 15  1  0
 14 16  1  0
 16 17  1  0
 17 18  1  0
 18 19  1  0
 19 20  1  0
 20 21  1  0
 21 22  1  0
 13  5  1  0
 22 16  1  0
 10  8  1  0
M  END
>  <energy_score>  (3254) 
-42.659198

>  <inchikey>  (3254) 
BKRUOSVOHBPNSR-UHFFFAOYSA-N

>  <smiles>  (3254) 
COC(=O)c1cc(C2CC2)ncc1N(N)C1CCCCCC1

>  <ref_pdb>  (3254) 
A0528a

>  <alias>  (3254) 
BKRUOSVOHBPNSR-UHFFFAOYSA-N-P308-P15-P308-601501

>  <HIPPO Pose ID>  (3254) 
502097

>  <name>  (3254) 
BKRUOSVOHBPNSR-UHFFFAOYSA-N-P308-P15-P308-601501

>  <HIPPO Compound ID>  (3254) 
292762

>  <ref_mols>  (3254) 
A4331a,A0514a

>  <distance_score>  (3254) 
1.799222

>  <inspiration_score>  (3254) 
None

$$$$
OWKJNROIWZMVPI-UHFFFAOYSA-N-P15-P15-P308-601501
     RDKit          3D

 22 23  0  0  0  0  0  0  0  0999 V2000
   12.1612   15.1898   21.2324 C   0  0  0  0  0  0  0  0  0  0  0  0
   10.9856   15.0420   20.2924 C   0  0  0  0  0  0  0  0  0  0  0  0
    9.4100   15.3680   21.0482 S   0  0  0  0  0  0  0  0  0  0  0  0
    8.3569   14.6020   20.4248 O   0  0  0  0  0  0  0  0  0  0  0  0
    9.2791   16.7977   21.1789 O   0  0  0  0  0  0  0  0  0  0  0  0
    9.4861   14.5848   22.6090 C   0  0  0  0  0  0  0  0  0  0  0  0
    8.1121   14.6311   23.2458 C   0  0  0  0  0  0  0  0  0  0  0  0
    8.2415   14.4845   24.7133 N   0  0  0  0  0  0  0  0  0  0  0  0
    8.1538   15.6629   25.4914 N   0  0  0  0  0  0  0  0  0  0  0  0
    7.5018   13.3791   25.1713 C   0  0  0  0  0  0  0  0  0  0  0  0
    6.2861   13.5517   25.8009 C   0  0  0  0  0  0  0  0  0  0  0  0
    5.5902   12.5648   26.3610 N   0  0  0  0  0  0  0  0  0  0  0  0
    6.0584   11.3027   26.2734 C   0  0  0  0  0  0  0  0  0  0  0  0
    5.3229   10.3167   27.1234 C   0  0  0  0  0  0  0  0  0  0  0  0
    5.4815   10.4111   28.6258 C   0  0  0  0  0  0  0  0  0  0  0  0
    4.1833   10.8051   28.0072 C   0  0  0  0  0  0  0  0  0  0  0  0
    7.2060   10.9994   25.5433 C   0  0  0  0  0  0  0  0  0  0  0  0
    7.9499   12.0640   25.0267 C   0  0  0  0  0  0  0  0  0  0  0  0
    9.2429   11.8127   24.3579 C   0  0  0  0  0  0  0  0  0  0  0  0
    9.3963   10.9892   23.4762 O   0  0  0  0  0  0  0  0  0  0  0  0
   10.1896   12.6392   24.8843 O   0  0  0  0  0  0  0  0  0  0  0  0
   11.4695   12.7083   24.2427 C   0  0  0  0  0  0  0  0  0  0  0  0
  1  2  1  0
  2  3  1  0
  3  4  2  0
  3  5  2  0
  3  6  1  0
  6  7  1  0
  7  8  1  0
  8  9  1  0
  8 10  1  0
 10 11  2  0
 11 12  1  0
 12 13  2  0
 13 14  1  0
 14 15  1  0
 15 16  1  0
 13 17  1  0
 17 18  2  0
 18 19  1  0
 19 20  2  0
 19 21  1  0
 21 22  1  0
 18 10  1  0
 16 14  1  0
M  END
>  <energy_score>  (3255) 
-34.101677

>  <inchikey>  (3255) 
OWKJNROIWZMVPI-UHFFFAOYSA-N

>  <smiles>  (3255) 
CCS(=O)(=O)CCN(N)c1cnc(C2CC2)cc1C(=O)OC

>  <ref_pdb>  (3255) 
A0528a

>  <alias>  (3255) 
OWKJNROIWZMVPI-UHFFFAOYSA-N-P15-P15-P308-601501

>  <HIPPO Pose ID>  (3255) 
502100

>  <name>  (3255) 
OWKJNROIWZMVPI-UHFFFAOYSA-N-P15-P15-P308-601501

>  <HIPPO Compound ID>  (3255) 
292764

>  <ref_mols>  (3255) 
A4331a,A0514a

>  <distance_score>  (3255) 
1.959054

>  <inspiration_score>  (3255) 
None

$$$$
OWKJNROIWZMVPI-UHFFFAOYSA-N-P308-P15-P308-601501
     RDKit          3D

 22 23  0  0  0  0  0  0  0  0999 V2000
   12.0305   16.0831   21.4975 C   0  0  0  0  0  0  0  0  0  0  0  0
   10.5733   16.2491   21.1203 C   0  0  0  0  0  0  0  0  0  0  0  0
    9.4868   15.3977   22.2527 S   0  0  0  0  0  0  0  0  0  0  0  0
    8.2018   15.2117   21.6053 O   0  0  0  0  0  0  0  0  0  0  0  0
    9.5820   16.0145   23.5657 O   0  0  0  0  0  0  0  0  0  0  0  0
   10.2323   13.8103   22.3648 C   0  0  0  0  0  0  0  0  0  0  0  0
    9.3430   12.8287   23.0811 C   0  0  0  0  0  0  0  0  0  0  0  0
    9.5378   12.7613   24.5481 N   0  0  0  0  0  0  0  0  0  0  0  0
   10.4239   13.6776   25.1711 N   0  0  0  0  0  0  0  0  0  0  0  0
    8.2914   12.5215   25.1763 C   0  0  0  0  0  0  0  0  0  0  0  0
    7.5788   13.5924   25.7070 C   0  0  0  0  0  0  0  0  0  0  0  0
    6.3774   13.5028   26.2945 N   0  0  0  0  0  0  0  0  0  0  0  0
    5.7752   12.3027   26.3472 C   0  0  0  0  0  0  0  0  0  0  0  0
    4.4271   12.2765   26.9822 C   0  0  0  0  0  0  0  0  0  0  0  0
    4.1712   11.5310   28.2619 C   0  0  0  0  0  0  0  0  0  0  0  0
    4.2535   13.0278   28.2848 C   0  0  0  0  0  0  0  0  0  0  0  0
    6.3867   11.1724   25.8389 C   0  0  0  0  0  0  0  0  0  0  0  0
    7.6568   11.2696   25.2515 C   0  0  0  0  0  0  0  0  0  0  0  0
    8.1850    9.9683   24.7730 C   0  0  0  0  0  0  0  0  0  0  0  0
    7.5050    8.9532   24.8478 O   0  0  0  0  0  0  0  0  0  0  0  0
    9.4263   10.0418   24.2649 O   0  0  0  0  0  0  0  0  0  0  0  0
    9.9680    8.8221   23.7601 C   0  0  0  0  0  0  0  0  0  0  0  0
  1  2  1  0
  2  3  1  0
  3  4  2  0
  3  5  2  0
  3  6  1  0
  6  7  1  0
  7  8  1  0
  8  9  1  0
  8 10  1  0
 10 11  2  0
 11 12  1  0
 12 13  2  0
 13 14  1  0
 14 15  1  0
 15 16  1  0
 13 17  1  0
 17 18  2  0
 18 19  1  0
 19 20  2  0
 19 21  1  0
 21 22  1  0
 18 10  1  0
 16 14  1  0
M  END
>  <energy_score>  (3256) 
-43.369912

>  <inchikey>  (3256) 
OWKJNROIWZMVPI-UHFFFAOYSA-N

>  <smiles>  (3256) 
CCS(=O)(=O)CCN(N)c1cnc(C2CC2)cc1C(=O)OC

>  <ref_pdb>  (3256) 
A0528a

>  <alias>  (3256) 
OWKJNROIWZMVPI-UHFFFAOYSA-N-P308-P15-P308-601501

>  <HIPPO Pose ID>  (3256) 
502101

>  <name>  (3256) 
OWKJNROIWZMVPI-UHFFFAOYSA-N-P308-P15-P308-601501

>  <HIPPO Compound ID>  (3256) 
292764

>  <ref_mols>  (3256) 
A4331a,A0514a

>  <distance_score>  (3256) 
1.691397

>  <inspiration_score>  (3256) 
None

$$$$
KDQCDMXSYGMHDL-UHFFFAOYSA-N-P15-P15-P308-601501
     RDKit          3D

 22 23  0  0  0  0  0  0  0  0999 V2000
    9.2266    8.3539   22.8514 C   0  0  0  0  0  0  0  0  0  0  0  0
    8.4042    9.1835   23.6645 O   0  0  0  0  0  0  0  0  0  0  0  0
    9.0283   10.3324   23.9834 C   0  0  0  0  0  0  0  0  0  0  0  0
   10.1742   10.6201   23.6837 O   0  0  0  0  0  0  0  0  0  0  0  0
    8.1312   11.2244   24.7469 C   0  0  0  0  0  0  0  0  0  0  0  0
    7.0528   10.6887   25.4664 C   0  0  0  0  0  0  0  0  0  0  0  0
    6.2873   11.5299   26.2649 C   0  0  0  0  0  0  0  0  0  0  0  0
    5.2443   11.0196   27.2206 C   0  0  0  0  0  0  0  0  0  0  0  0
    4.0793   11.9042   27.6141 C   0  0  0  0  0  0  0  0  0  0  0  0
    5.1824   11.6613   28.5949 C   0  0  0  0  0  0  0  0  0  0  0  0
    6.5266   12.8600   26.2984 N   0  0  0  0  0  0  0  0  0  0  0  0
    7.5353   13.3574   25.5720 C   0  0  0  0  0  0  0  0  0  0  0  0
    8.4092   12.5933   24.8163 C   0  0  0  0  0  0  0  0  0  0  0  0
    9.4864   13.2678   24.2259 N   0  0  0  0  0  0  0  0  0  0  0  0
   10.7655   13.0997   24.8036 N   0  0  0  0  0  0  0  0  0  0  0  0
    9.4526   13.3238   22.7411 C   0  0  0  0  0  0  0  0  0  0  0  0
    9.8571   14.7366   22.4062 C   0  0  1  0  0  0  0  0  0  0  0  0
   11.1497   15.0037   22.9880 O   0  0  0  0  0  0  0  0  0  0  0  0
    9.7690   15.1101   20.9555 C   0  0  0  0  0  0  0  0  0  0  0  0
    8.5660   14.6990   20.4868 F   0  0  0  0  0  0  0  0  0  0  0  0
   10.7429   14.5350   20.2338 F   0  0  0  0  0  0  0  0  0  0  0  0
    9.8431   16.4413   20.7618 F   0  0  0  0  0  0  0  0  0  0  0  0
  1  2  1  0
  2  3  1  0
  3  4  2  0
  3  5  1  0
  5  6  2  0
  6  7  1  0
  7  8  1  0
  8  9  1  0
  9 10  1  0
  7 11  2  0
 11 12  1  0
 12 13  2  0
 13 14  1  0
 14 15  1  0
 14 16  1  0
 16 17  1  0
 17 18  1  6
 17 19  1  0
 19 20  1  0
 19 21  1  0
 19 22  1  0
 13  5  1  0
 10  8  1  0
M  END
>  <energy_score>  (3257) 
-39.209473

>  <inchikey>  (3257) 
KDQCDMXSYGMHDL-UHFFFAOYSA-N

>  <smiles>  (3257) 
COC(=O)c1cc(C2CC2)ncc1N(N)CC(O)C(F)(F)F

>  <ref_pdb>  (3257) 
A0528a

>  <alias>  (3257) 
KDQCDMXSYGMHDL-UHFFFAOYSA-N-P15-P15-P308-601501

>  <HIPPO Pose ID>  (3257) 
502114

>  <name>  (3257) 
KDQCDMXSYGMHDL-UHFFFAOYSA-N-P15-P15-P308-601501

>  <HIPPO Compound ID>  (3257) 
292771

>  <ref_mols>  (3257) 
A4331a,A0514a

>  <distance_score>  (3257) 
1.270579

>  <inspiration_score>  (3257) 
None

$$$$
KDQCDMXSYGMHDL-UHFFFAOYSA-N-P308-P15-P308-601501
     RDKit          3D

 22 23  0  0  0  0  0  0  0  0999 V2000
    9.4405    8.6098   23.0863 C   0  0  0  0  0  0  0  0  0  0  0  0
    8.5895    9.5078   23.7910 O   0  0  0  0  0  0  0  0  0  0  0  0
    9.2520   10.4585   24.4860 C   0  0  0  0  0  0  0  0  0  0  0  0
   10.4601   10.5728   24.6177 O   0  0  0  0  0  0  0  0  0  0  0  0
    8.2443   11.3909   25.0324 C   0  0  0  0  0  0  0  0  0  0  0  0
    7.0917   10.8531   25.6266 C   0  0  0  0  0  0  0  0  0  0  0  0
    6.1649   11.7111   26.2030 C   0  0  0  0  0  0  0  0  0  0  0  0
    5.0395   11.2312   27.0785 C   0  0  0  0  0  0  0  0  0  0  0  0
    3.8442   12.1219   27.3473 C   0  0  0  0  0  0  0  0  0  0  0  0
    4.8688   11.9291   28.4181 C   0  0  0  0  0  0  0  0  0  0  0  0
    6.3158   13.0493   26.1068 N   0  0  0  0  0  0  0  0  0  0  0  0
    7.4066   13.5429   25.5072 C   0  0  0  0  0  0  0  0  0  0  0  0
    8.4349   12.7742   24.9862 C   0  0  0  0  0  0  0  0  0  0  0  0
    9.5371   13.4642   24.4637 N   0  0  0  0  0  0  0  0  0  0  0  0
   10.8125   13.2029   25.0106 N   0  0  0  0  0  0  0  0  0  0  0  0
    9.4377   13.7400   23.0110 C   0  0  0  0  0  0  0  0  0  0  0  0
    9.6627   15.2421   22.8028 C   0  0  1  0  0  0  0  0  0  0  0  0
   10.8625   15.6541   23.4983 O   0  0  0  0  0  0  0  0  0  0  0  0
    9.6940   15.5231   21.3062 C   0  0  0  0  0  0  0  0  0  0  0  0
    8.5633   15.0465   20.7258 F   0  0  0  0  0  0  0  0  0  0  0  0
   10.7391   14.9247   20.6990 F   0  0  0  0  0  0  0  0  0  0  0  0
    9.7571   16.8435   21.0354 F   0  0  0  0  0  0  0  0  0  0  0  0
  1  2  1  0
  2  3  1  0
  3  4  2  0
  3  5  1  0
  5  6  2  0
  6  7  1  0
  7  8  1  0
  8  9  1  0
  9 10  1  0
  7 11  2  0
 11 12  1  0
 12 13  2  0
 13 14  1  0
 14 15  1  0
 14 16  1  0
 16 17  1  0
 17 18  1  6
 17 19  1  0
 19 20  1  0
 19 21  1  0
 19 22  1  0
 13  5  1  0
 10  8  1  0
M  END
>  <energy_score>  (3258) 
-47.11646

>  <inchikey>  (3258) 
KDQCDMXSYGMHDL-UHFFFAOYSA-N

>  <smiles>  (3258) 
COC(=O)c1cc(C2CC2)ncc1N(N)CC(O)C(F)(F)F

>  <ref_pdb>  (3258) 
A0528a

>  <alias>  (3258) 
KDQCDMXSYGMHDL-UHFFFAOYSA-N-P308-P15-P308-601501

>  <HIPPO Pose ID>  (3258) 
502115

>  <name>  (3258) 
KDQCDMXSYGMHDL-UHFFFAOYSA-N-P308-P15-P308-601501

>  <HIPPO Compound ID>  (3258) 
292771

>  <ref_mols>  (3258) 
A4331a,A0514a

>  <distance_score>  (3258) 
1.218709

>  <inspiration_score>  (3258) 
None

$$$$
WQLCXXNMJYBBNC-UHFFFAOYSA-N-P15-P15-P308-601501
     RDKit          3D

 22 23  0  0  0  0  0  0  0  0999 V2000
    9.4472    8.7274   23.0025 C   0  0  0  0  0  0  0  0  0  0  0  0
    8.5113    9.4937   23.7626 O   0  0  0  0  0  0  0  0  0  0  0  0
    8.8832   10.7779   23.9654 C   0  0  0  0  0  0  0  0  0  0  0  0
    9.9326   11.2813   23.6014 O   0  0  0  0  0  0  0  0  0  0  0  0
    7.8478   11.4818   24.7683 C   0  0  0  0  0  0  0  0  0  0  0  0
    6.9553   10.7341   25.5520 C   0  0  0  0  0  0  0  0  0  0  0  0
    6.1130   11.3953   26.4340 C   0  0  0  0  0  0  0  0  0  0  0  0
    5.2346   10.6796   27.4173 C   0  0  0  0  0  0  0  0  0  0  0  0
    4.0114   11.3720   27.9811 C   0  0  0  0  0  0  0  0  0  0  0  0
    5.2239   11.1993   28.8419 C   0  0  0  0  0  0  0  0  0  0  0  0
    6.1338   12.7398   26.5357 N   0  0  0  0  0  0  0  0  0  0  0  0
    6.9605   13.4370   25.7467 C   0  0  0  0  0  0  0  0  0  0  0  0
    7.8299   12.8840   24.8238 C   0  0  0  0  0  0  0  0  0  0  0  0
    8.6854   13.6954   24.0687 N   0  0  0  0  0  0  0  0  0  0  0  0
    9.8911   14.0452   24.7715 N   0  0  0  0  0  0  0  0  0  0  0  0
    8.0979   14.6551   23.0423 C   0  0  0  0  0  0  0  0  0  0  0  0
    7.3051   15.7971   23.6897 C   0  0  0  0  0  0  0  0  0  0  0  0
    7.0935   13.9611   22.1507 C   0  0  0  0  0  0  0  0  0  0  0  0
    9.1816   15.0885   21.9850 C   0  0  0  0  0  0  0  0  0  0  0  0
    8.9769   15.8570   21.0532 O   0  0  0  0  0  0  0  0  0  0  0  0
   10.3913   14.4852   22.1893 O   0  0  0  0  0  0  0  0  0  0  0  0
   11.3919   14.7557   21.2056 C   0  0  0  0  0  0  0  0  0  0  0  0
  1  2  1  0
  2  3  1  0
  3  4  2  0
  3  5  1  0
  5  6  2  0
  6  7  1  0
  7  8  1  0
  8  9  1  0
  9 10  1  0
  7 11  2  0
 11 12  1  0
 12 13  2  0
 13 14  1  0
 14 15  1  0
 14 16  1  0
 16 17  1  0
 16 18  1  0
 16 19  1  0
 19 20  2  0
 19 21  1  0
 21 22  1  0
 13  5  1  0
 10  8  1  0
M  END
>  <energy_score>  (3259) 
-39.588401

>  <inchikey>  (3259) 
WQLCXXNMJYBBNC-UHFFFAOYSA-N

>  <smiles>  (3259) 
COC(=O)c1cc(C2CC2)ncc1N(N)C(C)(C)C(=O)OC

>  <ref_pdb>  (3259) 
A0528a

>  <alias>  (3259) 
WQLCXXNMJYBBNC-UHFFFAOYSA-N-P15-P15-P308-601501

>  <HIPPO Pose ID>  (3259) 
502116

>  <name>  (3259) 
WQLCXXNMJYBBNC-UHFFFAOYSA-N-P15-P15-P308-601501

>  <HIPPO Compound ID>  (3259) 
292772

>  <ref_mols>  (3259) 
A4331a,A0514a

>  <distance_score>  (3259) 
1.501374

>  <inspiration_score>  (3259) 
None

$$$$
WQLCXXNMJYBBNC-UHFFFAOYSA-N-P308-P15-P308-601501
     RDKit          3D

 22 23  0  0  0  0  0  0  0  0999 V2000
    9.5376    8.7288   23.1087 C   0  0  0  0  0  0  0  0  0  0  0  0
    8.6504    9.6609   23.7183 O   0  0  0  0  0  0  0  0  0  0  0  0
    9.2610   10.6692   24.3777 C   0  0  0  0  0  0  0  0  0  0  0  0
   10.4593   10.8443   24.5379 O   0  0  0  0  0  0  0  0  0  0  0  0
    8.2071   11.5402   24.9312 C   0  0  0  0  0  0  0  0  0  0  0  0
    7.1308   10.9371   25.6043 C   0  0  0  0  0  0  0  0  0  0  0  0
    6.2265   11.7421   26.2792 C   0  0  0  0  0  0  0  0  0  0  0  0
    5.1040   11.2018   27.1233 C   0  0  0  0  0  0  0  0  0  0  0  0
    3.8813   12.0564   27.3924 C   0  0  0  0  0  0  0  0  0  0  0  0
    4.8822   11.8464   28.4815 C   0  0  0  0  0  0  0  0  0  0  0  0
    6.3938   13.0810   26.3044 N   0  0  0  0  0  0  0  0  0  0  0  0
    7.4112   13.6295   25.6200 C   0  0  0  0  0  0  0  0  0  0  0  0
    8.3270   12.9315   24.8547 C   0  0  0  0  0  0  0  0  0  0  0  0
    9.2847   13.5814   24.0547 N   0  0  0  0  0  0  0  0  0  0  0  0
   10.5345   13.7516   24.7262 N   0  0  0  0  0  0  0  0  0  0  0  0
    8.8072   14.6435   23.0706 C   0  0  0  0  0  0  0  0  0  0  0  0
    8.6509   16.0329   23.6988 C   0  0  0  0  0  0  0  0  0  0  0  0
    7.4666   14.2228   22.4297 C   0  0  0  0  0  0  0  0  0  0  0  0
    9.8143   14.8176   21.8988 C   0  0  0  0  0  0  0  0  0  0  0  0
    9.5142   14.7468   20.7113 O   0  0  0  0  0  0  0  0  0  0  0  0
   11.0628   15.1580   22.3469 O   0  0  0  0  0  0  0  0  0  0  0  0
   11.9681   15.5072   21.2968 C   0  0  0  0  0  0  0  0  0  0  0  0
  1  2  1  0
  2  3  1  0
  3  4  2  0
  3  5  1  0
  5  6  2  0
  6  7  1  0
  7  8  1  0
  8  9  1  0
  9 10  1  0
  7 11  2  0
 11 12  1  0
 12 13  2  0
 13 14  1  0
 14 15  1  0
 14 16  1  0
 16 17  1  0
 16 18  1  0
 16 19  1  0
 19 20  2  0
 19 21  1  0
 21 22  1  0
 13  5  1  0
 10  8  1  0
M  END
>  <energy_score>  (3260) 
-47.270992

>  <inchikey>  (3260) 
WQLCXXNMJYBBNC-UHFFFAOYSA-N

>  <smiles>  (3260) 
COC(=O)c1cc(C2CC2)ncc1N(N)C(C)(C)C(=O)OC

>  <ref_pdb>  (3260) 
A0528a

>  <alias>  (3260) 
WQLCXXNMJYBBNC-UHFFFAOYSA-N-P308-P15-P308-601501

>  <HIPPO Pose ID>  (3260) 
502117

>  <name>  (3260) 
WQLCXXNMJYBBNC-UHFFFAOYSA-N-P308-P15-P308-601501

>  <HIPPO Compound ID>  (3260) 
292772

>  <ref_mols>  (3260) 
A4331a,A0514a

>  <distance_score>  (3260) 
1.40013

>  <inspiration_score>  (3260) 
None

$$$$
IFCRWVCVFAVYCY-UHFFFAOYSA-N-P15-P15-P308-601501
     RDKit          3D

 22 24  0  0  0  0  0  0  0  0999 V2000
    9.5316    8.7199   23.0160 C   0  0  0  0  0  0  0  0  0  0  0  0
    8.6295    9.5744   23.7139 O   0  0  0  0  0  0  0  0  0  0  0  0
    9.1067   10.8301   23.8885 C   0  0  0  0  0  0  0  0  0  0  0  0
   10.2282   11.2076   23.6114 O   0  0  0  0  0  0  0  0  0  0  0  0
    8.0389   11.6752   24.4613 C   0  0  0  0  0  0  0  0  0  0  0  0
    7.0843   11.0892   25.2972 C   0  0  0  0  0  0  0  0  0  0  0  0
    6.1456   11.8898   25.9349 C   0  0  0  0  0  0  0  0  0  0  0  0
    5.2707   11.3473   27.0298 C   0  0  0  0  0  0  0  0  0  0  0  0
    5.4941   11.8407   28.4410 C   0  0  0  0  0  0  0  0  0  0  0  0
    4.2611   12.2556   27.7020 C   0  0  0  0  0  0  0  0  0  0  0  0
    6.0356   13.1974   25.6362 N   0  0  0  0  0  0  0  0  0  0  0  0
    6.9250   13.7299   24.7870 C   0  0  0  0  0  0  0  0  0  0  0  0
    8.0478   13.0634   24.3102 C   0  0  0  0  0  0  0  0  0  0  0  0
    9.2735   13.7797   24.2730 N   0  0  0  0  0  0  0  0  0  0  0  0
    9.5314   14.5035   25.4861 N   0  0  0  0  0  0  0  0  0  0  0  0
   10.1235   14.1073   23.1690 C   0  0  0  0  0  0  0  0  0  0  0  0
   11.4850   14.1337   23.4452 C   0  0  0  0  0  0  0  0  0  0  0  0
   12.3093   14.6483   22.4876 C   0  0  0  0  0  0  0  0  0  0  0  0
   11.8727   15.1311   21.3361 N   0  0  0  0  0  0  0  0  0  0  0  0
   10.5552   15.0459   21.1254 C   0  0  0  0  0  0  0  0  0  0  0  0
   10.0926   15.7058   19.8784 C   0  0  0  0  0  0  0  0  0  0  0  0
    9.6380   14.5295   21.9881 N   0  0  0  0  0  0  0  0  0  0  0  0
  1  2  1  0
  2  3  1  0
  3  4  2  0
  3  5  1  0
  5  6  2  0
  6  7  1  0
  7  8  1  0
  8  9  1  0
  9 10  1  0
  7 11  2  0
 11 12  1  0
 12 13  2  0
 13 14  1  0
 14 15  1  0
 14 16  1  0
 16 17  2  0
 17 18  1  0
 18 19  2  0
 19 20  1  0
 20 21  1  0
 20 22  2  0
 13  5  1  0
 22 16  1  0
 10  8  1  0
M  END
>  <energy_score>  (3261) 
-9.337431

>  <inchikey>  (3261) 
IFCRWVCVFAVYCY-UHFFFAOYSA-N

>  <smiles>  (3261) 
COC(=O)c1cc(C2CC2)ncc1N(N)c1ccnc(C)n1

>  <ref_pdb>  (3261) 
A0528a

>  <alias>  (3261) 
IFCRWVCVFAVYCY-UHFFFAOYSA-N-P15-P15-P308-601501

>  <HIPPO Pose ID>  (3261) 
502118

>  <name>  (3261) 
IFCRWVCVFAVYCY-UHFFFAOYSA-N-P15-P15-P308-601501

>  <HIPPO Compound ID>  (3261) 
292773

>  <ref_mols>  (3261) 
A4331a,A0514a

>  <distance_score>  (3261) 
1.523071

>  <inspiration_score>  (3261) 
None

$$$$
HDCFJJBRPNIHQW-UHFFFAOYSA-N-P15-P15-P308-601501
     RDKit          3D

 22 24  0  0  0  0  0  0  0  0999 V2000
    9.3957    8.7018   23.0546 C   0  0  0  0  0  0  0  0  0  0  0  0
    8.5265    9.4464   23.9134 O   0  0  0  0  0  0  0  0  0  0  0  0
    8.8602   10.7523   24.0444 C   0  0  0  0  0  0  0  0  0  0  0  0
    9.8205   11.2838   23.5149 O   0  0  0  0  0  0  0  0  0  0  0  0
    7.8959   11.4528   24.9427 C   0  0  0  0  0  0  0  0  0  0  0  0
    6.9175   10.7194   25.6270 C   0  0  0  0  0  0  0  0  0  0  0  0
    6.0795   11.3757   26.5192 C   0  0  0  0  0  0  0  0  0  0  0  0
    5.0834   10.6589   27.3793 C   0  0  0  0  0  0  0  0  0  0  0  0
    5.0707   10.9518   28.8618 C   0  0  0  0  0  0  0  0  0  0  0  0
    3.9530   11.4572   28.0039 C   0  0  0  0  0  0  0  0  0  0  0  0
    6.1687   12.7096   26.7117 N   0  0  0  0  0  0  0  0  0  0  0  0
    7.0758   13.4049   26.0266 C   0  0  0  0  0  0  0  0  0  0  0  0
    7.9922   12.8400   25.1566 C   0  0  0  0  0  0  0  0  0  0  0  0
    8.8783   13.7021   24.4827 N   0  0  0  0  0  0  0  0  0  0  0  0
    8.3832   13.9512   23.1259 C   0  0  0  0  0  0  0  0  0  0  0  0
    9.4789   14.4171   22.2396 C   0  0  0  0  0  0  0  0  0  0  0  0
    9.2393   14.9236   21.0717 N   0  0  0  0  0  0  0  0  0  0  0  0
   10.4686   15.2436   20.5546 N   0  0  0  0  0  0  0  0  0  0  0  0
   10.5715   15.8511   19.2495 C   0  0  0  0  0  0  0  0  0  0  0  0
   11.5259   15.0449   21.4413 C   0  0  0  0  0  0  0  0  0  0  0  0
   12.6902   15.3850   21.3636 O   0  0  0  0  0  0  0  0  0  0  0  0
   10.9258   14.3087   22.5885 C   0  0  0  0  0  0  0  0  0  0  0  0
  1  2  1  0
  2  3  1  0
  3  4  2  0
  3  5  1  0
  5  6  2  0
  6  7  1  0
  7  8  1  0
  8  9  1  0
  9 10  1  0
  7 11  2  0
 11 12  1  0
 12 13  2  0
 13 14  1  0
 14 15  1  0
 15 16  1  0
 16 17  2  0
 17 18  1  0
 18 19  1  0
 18 20  1  0
 20 21  2  0
 20 22  1  0
 13  5  1  0
 22 16  1  0
 10  8  1  0
M  END
>  <energy_score>  (3262) 
-26.447253

>  <inchikey>  (3262) 
HDCFJJBRPNIHQW-UHFFFAOYSA-N

>  <smiles>  (3262) 
COC(=O)c1cc(C2CC2)ncc1NCC1=NN(C)C(=O)C1

>  <ref_pdb>  (3262) 
A0528a

>  <alias>  (3262) 
HDCFJJBRPNIHQW-UHFFFAOYSA-N-P15-P15-P308-601501

>  <HIPPO Pose ID>  (3262) 
502122

>  <name>  (3262) 
HDCFJJBRPNIHQW-UHFFFAOYSA-N-P15-P15-P308-601501

>  <HIPPO Compound ID>  (3262) 
292775

>  <ref_mols>  (3262) 
A4331a,A0514a

>  <distance_score>  (3262) 
1.559596

>  <inspiration_score>  (3262) 
None

$$$$
HDCFJJBRPNIHQW-UHFFFAOYSA-N-P308-P15-P308-601501
     RDKit          3D

 22 24  0  0  0  0  0  0  0  0999 V2000
    9.3133    8.5429   23.1305 C   0  0  0  0  0  0  0  0  0  0  0  0
    8.4305    9.3006   23.9540 O   0  0  0  0  0  0  0  0  0  0  0  0
    8.9931   10.4389   24.4168 C   0  0  0  0  0  0  0  0  0  0  0  0
   10.1619   10.7720   24.2959 O   0  0  0  0  0  0  0  0  0  0  0  0
    7.9618   11.2957   25.0366 C   0  0  0  0  0  0  0  0  0  0  0  0
    6.8793   10.7164   25.7071 C   0  0  0  0  0  0  0  0  0  0  0  0
    5.9910   11.5415   26.3840 C   0  0  0  0  0  0  0  0  0  0  0  0
    4.9135   11.0190   27.2930 C   0  0  0  0  0  0  0  0  0  0  0  0
    3.6993   11.8720   27.5980 C   0  0  0  0  0  0  0  0  0  0  0  0
    4.7560   11.7019   28.6414 C   0  0  0  0  0  0  0  0  0  0  0  0
    6.1332   12.8833   26.3562 N   0  0  0  0  0  0  0  0  0  0  0  0
    7.1452   13.4188   25.6663 C   0  0  0  0  0  0  0  0  0  0  0  0
    8.0938   12.6872   24.9730 C   0  0  0  0  0  0  0  0  0  0  0  0
    9.1031   13.3473   24.2509 N   0  0  0  0  0  0  0  0  0  0  0  0
    8.5459   14.2996   23.2834 C   0  0  0  0  0  0  0  0  0  0  0  0
    9.6340   14.8066   22.4098 C   0  0  0  0  0  0  0  0  0  0  0  0
    9.5843   14.7639   21.1157 N   0  0  0  0  0  0  0  0  0  0  0  0
   10.7734   15.2973   20.6899 N   0  0  0  0  0  0  0  0  0  0  0  0
   11.0540   15.4543   19.2866 C   0  0  0  0  0  0  0  0  0  0  0  0
   11.5978   15.7520   21.7145 C   0  0  0  0  0  0  0  0  0  0  0  0
   12.6775   16.3040   21.6442 O   0  0  0  0  0  0  0  0  0  0  0  0
   10.8695   15.4265   22.9737 C   0  0  0  0  0  0  0  0  0  0  0  0
  1  2  1  0
  2  3  1  0
  3  4  2  0
  3  5  1  0
  5  6  2  0
  6  7  1  0
  7  8  1  0
  8  9  1  0
  9 10  1  0
  7 11  2  0
 11 12  1  0
 12 13  2  0
 13 14  1  0
 14 15  1  0
 15 16  1  0
 16 17  2  0
 17 18  1  0
 18 19  1  0
 18 20  1  0
 20 21  2  0
 20 22  1  0
 13  5  1  0
 22 16  1  0
 10  8  1  0
M  END
>  <energy_score>  (3263) 
-34.038438

>  <inchikey>  (3263) 
HDCFJJBRPNIHQW-UHFFFAOYSA-N

>  <smiles>  (3263) 
COC(=O)c1cc(C2CC2)ncc1NCC1=NN(C)C(=O)C1

>  <ref_pdb>  (3263) 
A0528a

>  <alias>  (3263) 
HDCFJJBRPNIHQW-UHFFFAOYSA-N-P308-P15-P308-601501

>  <HIPPO Pose ID>  (3263) 
502123

>  <name>  (3263) 
HDCFJJBRPNIHQW-UHFFFAOYSA-N-P308-P15-P308-601501

>  <HIPPO Compound ID>  (3263) 
292775

>  <ref_mols>  (3263) 
A4331a,A0514a

>  <distance_score>  (3263) 
1.222416

>  <inspiration_score>  (3263) 
None

$$$$
WHVSEZBPIZYFOR-UHFFFAOYSA-N-P15-P15-P308-601501
     RDKit          3D

 22 23  0  0  0  0  0  0  0  0999 V2000
    9.1887    8.3346   22.8831 C   0  0  0  0  0  0  0  0  0  0  0  0
    8.3611    9.1132   23.7427 O   0  0  0  0  0  0  0  0  0  0  0  0
    8.9263   10.3049   24.0275 C   0  0  0  0  0  0  0  0  0  0  0  0
   10.0261   10.6506   23.6281 O   0  0  0  0  0  0  0  0  0  0  0  0
    8.0199   11.1354   24.8608 C   0  0  0  0  0  0  0  0  0  0  0  0
    6.9592   10.5525   25.5671 C   0  0  0  0  0  0  0  0  0  0  0  0
    6.1682   11.3521   26.3870 C   0  0  0  0  0  0  0  0  0  0  0  0
    5.1540   10.7934   27.3445 C   0  0  0  0  0  0  0  0  0  0  0  0
    3.9820   11.6449   27.7891 C   0  0  0  0  0  0  0  0  0  0  0  0
    5.1124   11.3968   28.7370 C   0  0  0  0  0  0  0  0  0  0  0  0
    6.3540   12.6879   26.4459 N   0  0  0  0  0  0  0  0  0  0  0  0
    7.3540   13.2317   25.7472 C   0  0  0  0  0  0  0  0  0  0  0  0
    8.2493   12.5095   24.9770 C   0  0  0  0  0  0  0  0  0  0  0  0
    9.2778   13.2390   24.3727 N   0  0  0  0  0  0  0  0  0  0  0  0
   10.5998   12.9810   24.8212 N   0  0  0  0  0  0  0  0  0  0  0  0
    9.0786   13.3889   22.9185 C   0  0  0  0  0  0  0  0  0  0  0  0
    9.2948   14.8496   22.6579 C   0  0  0  0  0  0  0  0  0  0  0  0
    9.5055   15.3693   21.3728 O   0  0  0  0  0  0  0  0  0  0  0  0
   10.8280   15.3684   20.8207 C   0  0  0  0  0  0  0  0  0  0  0  0
   12.0096   15.9371   21.5974 C   0  0  0  0  0  0  0  0  0  0  0  0
   11.2689   13.9698   20.7029 C   0  0  0  0  0  0  0  0  0  0  0  0
   10.6280   15.9488   19.4185 C   0  0  0  0  0  0  0  0  0  0  0  0
  1  2  1  0
  2  3  1  0
  3  4  2  0
  3  5  1  0
  5  6  2  0
  6  7  1  0
  7  8  1  0
  8  9  1  0
  9 10  1  0
  7 11  2  0
 11 12  1  0
 12 13  2  0
 13 14  1  0
 14 15  1  0
 14 16  1  0
 16 17  1  0
 17 18  1  0
 18 19  1  0
 19 20  1  0
 19 21  1  0
 19 22  1  0
 13  5  1  0
 10  8  1  0
M  END
>  <energy_score>  (3264) 
-32.590163

>  <inchikey>  (3264) 
WHVSEZBPIZYFOR-UHFFFAOYSA-N

>  <smiles>  (3264) 
COC(=O)c1cc(C2CC2)ncc1N(N)CCOC(C)(C)C

>  <ref_pdb>  (3264) 
A0528a

>  <alias>  (3264) 
WHVSEZBPIZYFOR-UHFFFAOYSA-N-P15-P15-P308-601501

>  <HIPPO Pose ID>  (3264) 
502130

>  <name>  (3264) 
WHVSEZBPIZYFOR-UHFFFAOYSA-N-P15-P15-P308-601501

>  <HIPPO Compound ID>  (3264) 
292779

>  <ref_mols>  (3264) 
A4331a,A0514a

>  <distance_score>  (3264) 
1.192596

>  <inspiration_score>  (3264) 
None

$$$$
WHVSEZBPIZYFOR-UHFFFAOYSA-N-P308-P15-P308-601501
     RDKit          3D

 22 23  0  0  0  0  0  0  0  0999 V2000
    9.6170    8.6153   23.5305 C   0  0  0  0  0  0  0  0  0  0  0  0
    8.7821    9.4273   24.3523 O   0  0  0  0  0  0  0  0  0  0  0  0
    8.7532   10.7266   23.9615 C   0  0  0  0  0  0  0  0  0  0  0  0
    9.3483   11.1787   23.0010 O   0  0  0  0  0  0  0  0  0  0  0  0
    7.8832   11.5072   24.8683 C   0  0  0  0  0  0  0  0  0  0  0  0
    6.8452   10.8640   25.5643 C   0  0  0  0  0  0  0  0  0  0  0  0
    6.0303   11.6083   26.4091 C   0  0  0  0  0  0  0  0  0  0  0  0
    4.9533   11.0062   27.2685 C   0  0  0  0  0  0  0  0  0  0  0  0
    3.7190   11.8211   27.6005 C   0  0  0  0  0  0  0  0  0  0  0  0
    4.7532   11.5947   28.6548 C   0  0  0  0  0  0  0  0  0  0  0  0
    6.2194   12.9355   26.5599 N   0  0  0  0  0  0  0  0  0  0  0  0
    7.2101   13.5299   25.8877 C   0  0  0  0  0  0  0  0  0  0  0  0
    8.0845   12.8816   25.0271 C   0  0  0  0  0  0  0  0  0  0  0  0
    9.0889   13.6309   24.3549 N   0  0  0  0  0  0  0  0  0  0  0  0
    9.9404   14.3400   25.2524 N   0  0  0  0  0  0  0  0  0  0  0  0
    8.4285   14.3463   23.2082 C   0  0  0  0  0  0  0  0  0  0  0  0
    9.1405   15.6064   22.7063 C   0  0  0  0  0  0  0  0  0  0  0  0
    9.5666   15.4812   21.3549 O   0  0  0  0  0  0  0  0  0  0  0  0
   10.9600   15.2463   21.1235 C   0  0  0  0  0  0  0  0  0  0  0  0
   11.8322   16.3783   21.6659 C   0  0  0  0  0  0  0  0  0  0  0  0
   11.3840   13.9261   21.7543 C   0  0  0  0  0  0  0  0  0  0  0  0
   11.1266   15.2216   19.5988 C   0  0  0  0  0  0  0  0  0  0  0  0
  1  2  1  0
  2  3  1  0
  3  4  2  0
  3  5  1  0
  5  6  2  0
  6  7  1  0
  7  8  1  0
  8  9  1  0
  9 10  1  0
  7 11  2  0
 11 12  1  0
 12 13  2  0
 13 14  1  0
 14 15  1  0
 14 16  1  0
 16 17  1  0
 17 18  1  0
 18 19  1  0
 19 20  1  0
 19 21  1  0
 19 22  1  0
 13  5  1  0
 10  8  1  0
M  END
>  <energy_score>  (3265) 
-47.030039

>  <inchikey>  (3265) 
WHVSEZBPIZYFOR-UHFFFAOYSA-N

>  <smiles>  (3265) 
COC(=O)c1cc(C2CC2)ncc1N(N)CCOC(C)(C)C

>  <ref_pdb>  (3265) 
A0528a

>  <alias>  (3265) 
WHVSEZBPIZYFOR-UHFFFAOYSA-N-P308-P15-P308-601501

>  <HIPPO Pose ID>  (3265) 
502131

>  <name>  (3265) 
WHVSEZBPIZYFOR-UHFFFAOYSA-N-P308-P15-P308-601501

>  <HIPPO Compound ID>  (3265) 
292779

>  <ref_mols>  (3265) 
A4331a,A0514a

>  <distance_score>  (3265) 
1.330899

>  <inspiration_score>  (3265) 
None

$$$$
ACASJBSZDLRZBG-UHFFFAOYSA-N-P308-P15-P308-601501
     RDKit          3D

 22 24  0  0  0  0  0  0  0  0999 V2000
    9.2650    8.7590   23.3284 C   0  0  0  0  0  0  0  0  0  0  0  0
    8.4401    9.8073   23.8321 O   0  0  0  0  0  0  0  0  0  0  0  0
    9.1250   10.7845   24.4680 C   0  0  0  0  0  0  0  0  0  0  0  0
   10.3164   10.7944   24.7401 O   0  0  0  0  0  0  0  0  0  0  0  0
    8.1832   11.8735   24.7774 C   0  0  0  0  0  0  0  0  0  0  0  0
    7.2738   11.5618   25.7928 C   0  0  0  0  0  0  0  0  0  0  0  0
    6.4023   12.5318   26.2487 C   0  0  0  0  0  0  0  0  0  0  0  0
    5.5497   12.3543   27.4641 C   0  0  0  0  0  0  0  0  0  0  0  0
    4.6247   11.1873   27.6418 C   0  0  0  0  0  0  0  0  0  0  0  0
    4.0625   12.5392   27.3077 C   0  0  0  0  0  0  0  0  0  0  0  0
    6.3336   13.7196   25.6395 N   0  0  0  0  0  0  0  0  0  0  0  0
    7.1706   13.9587   24.6093 C   0  0  0  0  0  0  0  0  0  0  0  0
    8.2106   13.1429   24.1721 C   0  0  0  0  0  0  0  0  0  0  0  0
    9.1372   13.5836   23.2040 N   0  0  0  0  0  0  0  0  0  0  0  0
   10.2036   12.7661   22.8982 N   0  0  0  0  0  0  0  0  0  0  0  0
    9.4039   15.0551   23.0124 C   0  0  1  0  0  0  0  0  0  0  0  0
   10.7278   15.4694   23.6753 C   0  0  0  0  0  0  0  0  0  0  0  0
   11.9289   15.2241   22.7788 C   0  0  0  0  0  0  0  0  0  0  0  0
   11.7399   15.8485   21.5191 O   0  0  0  0  0  0  0  0  0  0  0  0
   10.6752   15.2300   20.7948 C   0  0  2  0  0  0  0  0  0  0  0  0
   10.6496   15.8394   19.4017 C   0  0  0  0  0  0  0  0  0  0  0  0
    9.3485   15.4394   21.5248 C   0  0  0  0  0  0  0  0  0  0  0  0
  1  2  1  0
  2  3  1  0
  3  4  2  0
  3  5  1  0
  5  6  2  0
  6  7  1  0
  7  8  1  0
  8  9  1  0
  9 10  1  0
  7 11  2  0
 11 12  1  0
 12 13  2  0
 13 14  1  0
 14 15  1  0
 16 14  1  6
 16 17  1  0
 17 18  1  0
 18 19  1  0
 19 20  1  0
 20 21  1  6
 20 22  1  0
 13  5  1  0
 22 16  1  0
 10  8  1  0
M  END
>  <energy_score>  (3266) 
-30.68902

>  <inchikey>  (3266) 
ACASJBSZDLRZBG-UHFFFAOYSA-N

>  <smiles>  (3266) 
COC(=O)c1cc(C2CC2)ncc1N(N)C1CCOC(C)C1

>  <ref_pdb>  (3266) 
A0528a

>  <alias>  (3266) 
ACASJBSZDLRZBG-UHFFFAOYSA-N-P308-P15-P308-601501

>  <HIPPO Pose ID>  (3266) 
502135

>  <name>  (3266) 
ACASJBSZDLRZBG-UHFFFAOYSA-N-P308-P15-P308-601501

>  <HIPPO Compound ID>  (3266) 
292781

>  <ref_mols>  (3266) 
A4331a,A0514a

>  <distance_score>  (3266) 
1.863811

>  <inspiration_score>  (3266) 
None

$$$$
KNGOCTPWLLXMJW-UHFFFAOYSA-N-P15-P15-P308-601501
     RDKit          3D

 22 24  0  0  0  0  0  0  0  0999 V2000
    9.3167    8.8720   23.1300 C   0  0  0  0  0  0  0  0  0  0  0  0
    8.4938    9.8265   23.8104 O   0  0  0  0  0  0  0  0  0  0  0  0
    9.0700   11.0465   23.9264 C   0  0  0  0  0  0  0  0  0  0  0  0
   10.2183   11.3102   23.6113 O   0  0  0  0  0  0  0  0  0  0  0  0
    8.1146   12.0343   24.4931 C   0  0  0  0  0  0  0  0  0  0  0  0
    6.9885   11.6060   25.2012 C   0  0  0  0  0  0  0  0  0  0  0  0
    6.1530   12.5500   25.7937 C   0  0  0  0  0  0  0  0  0  0  0  0
    4.9986   12.1929   26.6757 C   0  0  0  0  0  0  0  0  0  0  0  0
    5.0888   11.2045   27.8031 C   0  0  0  0  0  0  0  0  0  0  0  0
    5.0695   12.6702   28.1127 C   0  0  0  0  0  0  0  0  0  0  0  0
    6.3486   13.8709   25.6255 N   0  0  0  0  0  0  0  0  0  0  0  0
    7.4289   14.2586   24.9358 C   0  0  0  0  0  0  0  0  0  0  0  0
    8.3903   13.4057   24.4183 C   0  0  0  0  0  0  0  0  0  0  0  0
    9.6841   13.9341   24.2638 N   0  0  0  0  0  0  0  0  0  0  0  0
   10.5385   13.5647   25.3590 N   0  0  0  0  0  0  0  0  0  0  0  0
   10.3981   14.2962   23.0907 C   0  0  0  0  0  0  0  0  0  0  0  0
   11.7349   14.4374   23.3119 N   0  0  0  0  0  0  0  0  0  0  0  0
   12.4936   14.7860   22.2761 C   0  0  0  0  0  0  0  0  0  0  0  0
   12.0014   15.0426   21.0461 C   0  0  0  0  0  0  0  0  0  0  0  0
   10.6371   15.0312   20.9495 C   0  0  0  0  0  0  0  0  0  0  0  0
   10.0499   15.6571   19.7360 C   0  0  0  0  0  0  0  0  0  0  0  0
    9.8038   14.6214   21.9406 N   0  0  0  0  0  0  0  0  0  0  0  0
  1  2  1  0
  2  3  1  0
  3  4  2  0
  3  5  1  0
  5  6  2  0
  6  7  1  0
  7  8  1  0
  8  9  1  0
  9 10  1  0
  7 11  2  0
 11 12  1  0
 12 13  2  0
 13 14  1  0
 14 15  1  0
 14 16  1  0
 16 17  2  0
 17 18  1  0
 18 19  2  0
 19 20  1  0
 20 21  1  0
 20 22  2  0
 13  5  1  0
 22 16  1  0
 10  8  1  0
M  END
>  <energy_score>  (3267) 
-27.705608

>  <inchikey>  (3267) 
KNGOCTPWLLXMJW-UHFFFAOYSA-N

>  <smiles>  (3267) 
COC(=O)c1cc(C2CC2)ncc1N(N)c1nccc(C)n1

>  <ref_pdb>  (3267) 
A0528a

>  <alias>  (3267) 
KNGOCTPWLLXMJW-UHFFFAOYSA-N-P15-P15-P308-601501

>  <HIPPO Pose ID>  (3267) 
502142

>  <name>  (3267) 
KNGOCTPWLLXMJW-UHFFFAOYSA-N-P15-P15-P308-601501

>  <HIPPO Compound ID>  (3267) 
292785

>  <ref_mols>  (3267) 
A4331a,A0514a

>  <distance_score>  (3267) 
1.953483

>  <inspiration_score>  (3267) 
None

$$$$
KNGOCTPWLLXMJW-UHFFFAOYSA-N-P308-P15-P308-601501
     RDKit          3D

 22 24  0  0  0  0  0  0  0  0999 V2000
    9.0845    8.5864   24.0674 C   0  0  0  0  0  0  0  0  0  0  0  0
    8.3225    9.6678   24.5983 O   0  0  0  0  0  0  0  0  0  0  0  0
    8.6224   10.8332   23.9793 C   0  0  0  0  0  0  0  0  0  0  0  0
    9.4178   10.9576   23.0633 O   0  0  0  0  0  0  0  0  0  0  0  0
    7.8412   11.9503   24.5506 C   0  0  0  0  0  0  0  0  0  0  0  0
    6.6425   11.7231   25.2179 C   0  0  0  0  0  0  0  0  0  0  0  0
    5.9137   12.8103   25.6801 C   0  0  0  0  0  0  0  0  0  0  0  0
    4.6317   12.6466   26.4362 C   0  0  0  0  0  0  0  0  0  0  0  0
    4.5204   11.8141   27.6839 C   0  0  0  0  0  0  0  0  0  0  0  0
    4.5469   13.3072   27.7971 C   0  0  0  0  0  0  0  0  0  0  0  0
    6.3182   14.0791   25.4588 N   0  0  0  0  0  0  0  0  0  0  0  0
    7.4852   14.2660   24.8173 C   0  0  0  0  0  0  0  0  0  0  0  0
    8.3195   13.2530   24.3926 C   0  0  0  0  0  0  0  0  0  0  0  0
    9.6718   13.5140   24.1355 N   0  0  0  0  0  0  0  0  0  0  0  0
   10.5186   13.0057   25.1802 N   0  0  0  0  0  0  0  0  0  0  0  0
   10.2807   14.4015   23.2083 C   0  0  0  0  0  0  0  0  0  0  0  0
   11.5460   14.7663   23.5352 N   0  0  0  0  0  0  0  0  0  0  0  0
   12.2457   15.4340   22.6147 C   0  0  0  0  0  0  0  0  0  0  0  0
   11.7682   15.7655   21.3876 C   0  0  0  0  0  0  0  0  0  0  0  0
   10.4709   15.3935   21.1440 C   0  0  0  0  0  0  0  0  0  0  0  0
    9.9208   15.6761   19.7859 C   0  0  0  0  0  0  0  0  0  0  0  0
    9.6920   14.7459   22.0502 N   0  0  0  0  0  0  0  0  0  0  0  0
  1  2  1  0
  2  3  1  0
  3  4  2  0
  3  5  1  0
  5  6  2  0
  6  7  1  0
  7  8  1  0
  8  9  1  0
  9 10  1  0
  7 11  2  0
 11 12  1  0
 12 13  2  0
 13 14  1  0
 14 15  1  0
 14 16  1  0
 16 17  2  0
 17 18  1  0
 18 19  2  0
 19 20  1  0
 20 21  1  0
 20 22  2  0
 13  5  1  0
 22 16  1  0
 10  8  1  0
M  END
>  <energy_score>  (3268) 
-36.58199

>  <inchikey>  (3268) 
KNGOCTPWLLXMJW-UHFFFAOYSA-N

>  <smiles>  (3268) 
COC(=O)c1cc(C2CC2)ncc1N(N)c1nccc(C)n1

>  <ref_pdb>  (3268) 
A0528a

>  <alias>  (3268) 
KNGOCTPWLLXMJW-UHFFFAOYSA-N-P308-P15-P308-601501

>  <HIPPO Pose ID>  (3268) 
502143

>  <name>  (3268) 
KNGOCTPWLLXMJW-UHFFFAOYSA-N-P308-P15-P308-601501

>  <HIPPO Compound ID>  (3268) 
292785

>  <ref_mols>  (3268) 
A4331a,A0514a

>  <distance_score>  (3268) 
1.930946

>  <inspiration_score>  (3268) 
None

$$$$
FNZHFMOSIPUYOQ-UHFFFAOYSA-N-P15-P15-P308-601501
     RDKit          3D

 22 24  0  0  0  0  0  0  0  0999 V2000
   10.7502   15.4684   19.0670 C   0  0  0  0  0  0  0  0  0  0  0  0
   10.2747   16.1336   20.3396 C   0  0  0  0  0  0  0  0  0  0  0  0
    9.1416   15.3828   21.0142 C   0  0  0  0  0  0  0  0  0  0  0  0
    9.5626   14.3883   22.0329 C   0  0  0  0  0  0  0  0  0  0  0  0
    8.7104   13.6006   22.6170 N   0  0  0  0  0  0  0  0  0  0  0  0
    9.3998   12.9438   23.6277 N   0  0  0  0  0  0  0  0  0  0  0  0
    8.5318   12.6107   24.6918 C   0  0  0  0  0  0  0  0  0  0  0  0
    8.0395   13.6328   25.4868 C   0  0  0  0  0  0  0  0  0  0  0  0
    7.0792   13.4839   26.4236 N   0  0  0  0  0  0  0  0  0  0  0  0
    6.4734   12.2847   26.5516 C   0  0  0  0  0  0  0  0  0  0  0  0
    5.3594   12.1472   27.5463 C   0  0  0  0  0  0  0  0  0  0  0  0
    3.9881   12.6624   27.1895 C   0  0  0  0  0  0  0  0  0  0  0  0
    4.8030   13.3838   28.2189 C   0  0  0  0  0  0  0  0  0  0  0  0
    6.8914   11.2088   25.7954 C   0  0  0  0  0  0  0  0  0  0  0  0
    7.9440   11.3586   24.8766 C   0  0  0  0  0  0  0  0  0  0  0  0
    8.3349   10.0929   24.2379 C   0  0  0  0  0  0  0  0  0  0  0  0
    7.7675    9.0526   24.5397 O   0  0  0  0  0  0  0  0  0  0  0  0
    9.3688   10.2159   23.3906 O   0  0  0  0  0  0  0  0  0  0  0  0
    9.7665    8.9680   22.8262 C   0  0  0  0  0  0  0  0  0  0  0  0
   10.6828   13.5229   23.7995 C   0  0  0  0  0  0  0  0  0  0  0  0
   11.4533   13.5220   24.7428 O   0  0  0  0  0  0  0  0  0  0  0  0
   10.9476   14.2745   22.5508 C   0  0  0  0  0  0  0  0  0  0  0  0
  1  2  1  0
  2  3  1  0
  3  4  1  0
  4  5  2  0
  5  6  1  0
  6  7  1  0
  7  8  2  0
  8  9  1  0
  9 10  2  0
 10 11  1  0
 11 12  1  0
 12 13  1  0
 10 14  1  0
 14 15  2  0
 15 16  1  0
 16 17  2  0
 16 18  1  0
 18 19  1  0
  6 20  1  0
 20 21  2  0
 20 22  1  0
 22  4  1  0
 15  7  1  0
 13 11  1  0
M  END
>  <energy_score>  (3269) 
-22.873011

>  <inchikey>  (3269) 
FNZHFMOSIPUYOQ-UHFFFAOYSA-N

>  <smiles>  (3269) 
CCCC1=NN(c2cnc(C3CC3)cc2C(=O)OC)C(=O)C1

>  <ref_pdb>  (3269) 
A0528a

>  <alias>  (3269) 
FNZHFMOSIPUYOQ-UHFFFAOYSA-N-P15-P15-P308-601501

>  <HIPPO Pose ID>  (3269) 
502146

>  <name>  (3269) 
FNZHFMOSIPUYOQ-UHFFFAOYSA-N-P15-P15-P308-601501

>  <HIPPO Compound ID>  (3269) 
292787

>  <ref_mols>  (3269) 
A4331a,A0514a

>  <distance_score>  (3269) 
1.72885

>  <inspiration_score>  (3269) 
None

$$$$
FNZHFMOSIPUYOQ-UHFFFAOYSA-N-P308-P15-P308-601501
     RDKit          3D

 22 24  0  0  0  0  0  0  0  0999 V2000
   10.4948   16.0840   18.8257 C   0  0  0  0  0  0  0  0  0  0  0  0
   10.7299   15.4181   20.1576 C   0  0  0  0  0  0  0  0  0  0  0  0
    9.4598   15.3720   21.0005 C   0  0  0  0  0  0  0  0  0  0  0  0
    9.6942   14.5029   22.1842 C   0  0  0  0  0  0  0  0  0  0  0  0
    8.8560   13.6198   22.6376 N   0  0  0  0  0  0  0  0  0  0  0  0
    9.4626   13.0174   23.7415 N   0  0  0  0  0  0  0  0  0  0  0  0
    8.5107   12.6124   24.7119 C   0  0  0  0  0  0  0  0  0  0  0  0
    7.8791   13.6049   25.4468 C   0  0  0  0  0  0  0  0  0  0  0  0
    6.8140   13.4100   26.2528 N   0  0  0  0  0  0  0  0  0  0  0  0
    6.2720   12.1761   26.3337 C   0  0  0  0  0  0  0  0  0  0  0  0
    5.0416   11.9816   27.1720 C   0  0  0  0  0  0  0  0  0  0  0  0
    4.9374   12.6555   28.5169 C   0  0  0  0  0  0  0  0  0  0  0  0
    4.0992   13.1464   27.3748 C   0  0  0  0  0  0  0  0  0  0  0  0
    6.8576   11.1183   25.6687 C   0  0  0  0  0  0  0  0  0  0  0  0
    7.9893   11.3237   24.8608 C   0  0  0  0  0  0  0  0  0  0  0  0
    8.4904   10.0701   24.2726 C   0  0  0  0  0  0  0  0  0  0  0  0
    8.0502    8.9841   24.6283 O   0  0  0  0  0  0  0  0  0  0  0  0
    9.4193   10.2665   23.3250 O   0  0  0  0  0  0  0  0  0  0  0  0
    9.8111    9.0447   22.7082 C   0  0  0  0  0  0  0  0  0  0  0  0
   10.6667   13.6828   24.0758 C   0  0  0  0  0  0  0  0  0  0  0  0
   11.4100   13.5621   25.0322 O   0  0  0  0  0  0  0  0  0  0  0  0
   10.9296   14.6508   22.9902 C   0  0  0  0  0  0  0  0  0  0  0  0
  1  2  1  0
  2  3  1  0
  3  4  1  0
  4  5  2  0
  5  6  1  0
  6  7  1  0
  7  8  2  0
  8  9  1  0
  9 10  2  0
 10 11  1  0
 11 12  1  0
 12 13  1  0
 10 14  1  0
 14 15  2  0
 15 16  1  0
 16 17  2  0
 16 18  1  0
 18 19  1  0
  6 20  1  0
 20 21  2  0
 20 22  1  0
 22  4  1  0
 15  7  1  0
 13 11  1  0
M  END
>  <energy_score>  (3270) 
-25.878309

>  <inchikey>  (3270) 
FNZHFMOSIPUYOQ-UHFFFAOYSA-N

>  <smiles>  (3270) 
CCCC1=NN(c2cnc(C3CC3)cc2C(=O)OC)C(=O)C1

>  <ref_pdb>  (3270) 
A0528a

>  <alias>  (3270) 
FNZHFMOSIPUYOQ-UHFFFAOYSA-N-P308-P15-P308-601501

>  <HIPPO Pose ID>  (3270) 
502147

>  <name>  (3270) 
FNZHFMOSIPUYOQ-UHFFFAOYSA-N-P308-P15-P308-601501

>  <HIPPO Compound ID>  (3270) 
292787

>  <ref_mols>  (3270) 
A4331a,A0514a

>  <distance_score>  (3270) 
1.784979

>  <inspiration_score>  (3270) 
None

$$$$
CCKVZNYLTFSUAA-UHFFFAOYSA-N-P15-P15-P308-601501
     RDKit          3D

 22 23  0  0  0  0  0  0  0  0999 V2000
    9.1845    8.3003   22.8421 C   0  0  0  0  0  0  0  0  0  0  0  0
    8.3858    9.1015   23.7058 O   0  0  0  0  0  0  0  0  0  0  0  0
    9.0064   10.2588   24.0035 C   0  0  0  0  0  0  0  0  0  0  0  0
   10.1209   10.5691   23.6167 O   0  0  0  0  0  0  0  0  0  0  0  0
    8.1350   11.1294   24.8260 C   0  0  0  0  0  0  0  0  0  0  0  0
    7.0341   10.6067   25.5178 C   0  0  0  0  0  0  0  0  0  0  0  0
    6.2795   11.4512   26.3264 C   0  0  0  0  0  0  0  0  0  0  0  0
    5.2062   10.9518   27.2540 C   0  0  0  0  0  0  0  0  0  0  0  0
    4.0512   11.8574   27.6318 C   0  0  0  0  0  0  0  0  0  0  0  0
    5.1273   11.5817   28.6333 C   0  0  0  0  0  0  0  0  0  0  0  0
    6.5496   12.7741   26.3956 N   0  0  0  0  0  0  0  0  0  0  0  0
    7.5859   13.2586   25.7009 C   0  0  0  0  0  0  0  0  0  0  0  0
    8.4461   12.4871   24.9386 C   0  0  0  0  0  0  0  0  0  0  0  0
    9.5096   13.1462   24.3157 N   0  0  0  0  0  0  0  0  0  0  0  0
   10.8111   12.9691   24.8367 N   0  0  0  0  0  0  0  0  0  0  0  0
    9.3691   13.2509   22.8440 C   0  0  0  0  0  0  0  0  0  0  0  0
    9.4367   14.7083   22.5449 C   0  0  0  0  0  0  0  0  0  0  0  0
    8.3735   15.2517   23.2166 F   0  0  0  0  0  0  0  0  0  0  0  0
   10.6010   15.1610   23.0964 F   0  0  0  0  0  0  0  0  0  0  0  0
    9.3745   15.1179   21.1113 C   0  0  0  0  0  0  0  0  0  0  0  0
    8.2832   14.5319   20.5565 F   0  0  0  0  0  0  0  0  0  0  0  0
   10.4649   14.6635   20.4510 F   0  0  0  0  0  0  0  0  0  0  0  0
  1  2  1  0
  2  3  1  0
  3  4  2  0
  3  5  1  0
  5  6  2  0
  6  7  1  0
  7  8  1  0
  8  9  1  0
  9 10  1  0
  7 11  2  0
 11 12  1  0
 12 13  2  0
 13 14  1  0
 14 15  1  0
 14 16  1  0
 16 17  1  0
 17 18  1  0
 17 19  1  0
 17 20  1  0
 20 21  1  0
 20 22  1  0
 13  5  1  0
 10  8  1  0
M  END
>  <energy_score>  (3271) 
-43.967352

>  <inchikey>  (3271) 
CCKVZNYLTFSUAA-UHFFFAOYSA-N

>  <smiles>  (3271) 
COC(=O)c1cc(C2CC2)ncc1N(N)CC(F)(F)C(F)F

>  <ref_pdb>  (3271) 
A0528a

>  <alias>  (3271) 
CCKVZNYLTFSUAA-UHFFFAOYSA-N-P15-P15-P308-601501

>  <HIPPO Pose ID>  (3271) 
502150

>  <name>  (3271) 
CCKVZNYLTFSUAA-UHFFFAOYSA-N-P15-P15-P308-601501

>  <HIPPO Compound ID>  (3271) 
292789

>  <ref_mols>  (3271) 
A4331a,A0514a

>  <distance_score>  (3271) 
1.366486

>  <inspiration_score>  (3271) 
None

$$$$
CCKVZNYLTFSUAA-UHFFFAOYSA-N-P308-P15-P308-601501
     RDKit          3D

 22 23  0  0  0  0  0  0  0  0999 V2000
    9.4347    8.5678   23.0563 C   0  0  0  0  0  0  0  0  0  0  0  0
    8.6113    9.4757   23.7770 O   0  0  0  0  0  0  0  0  0  0  0  0
    9.3083   10.3947   24.4830 C   0  0  0  0  0  0  0  0  0  0  0  0
   10.5187   10.4632   24.6172 O   0  0  0  0  0  0  0  0  0  0  0  0
    8.3286   11.3574   25.0267 C   0  0  0  0  0  0  0  0  0  0  0  0
    7.1320   10.8821   25.5816 C   0  0  0  0  0  0  0  0  0  0  0  0
    6.2722   11.7856   26.1896 C   0  0  0  0  0  0  0  0  0  0  0  0
    5.0763   11.3567   26.9966 C   0  0  0  0  0  0  0  0  0  0  0  0
    3.9083   12.3012   27.1863 C   0  0  0  0  0  0  0  0  0  0  0  0
    4.8469   12.0583   28.3246 C   0  0  0  0  0  0  0  0  0  0  0  0
    6.5479   13.1097   26.1858 N   0  0  0  0  0  0  0  0  0  0  0  0
    7.6917   13.5437   25.6311 C   0  0  0  0  0  0  0  0  0  0  0  0
    8.6385   12.7197   25.0496 C   0  0  0  0  0  0  0  0  0  0  0  0
    9.8354   13.2355   24.5181 N   0  0  0  0  0  0  0  0  0  0  0  0
   10.5941   14.0325   25.4086 N   0  0  0  0  0  0  0  0  0  0  0  0
    9.6891   13.6623   23.0939 C   0  0  0  0  0  0  0  0  0  0  0  0
    9.5050   15.1653   22.8865 C   0  0  0  0  0  0  0  0  0  0  0  0
    8.4064   15.6154   23.5518 F   0  0  0  0  0  0  0  0  0  0  0  0
   10.5702   15.8465   23.4018 F   0  0  0  0  0  0  0  0  0  0  0  0
    9.3636   15.4872   21.4119 C   0  0  0  0  0  0  0  0  0  0  0  0
    8.3299   14.7792   20.8771 F   0  0  0  0  0  0  0  0  0  0  0  0
   10.4763   15.1097   20.7304 F   0  0  0  0  0  0  0  0  0  0  0  0
  1  2  1  0
  2  3  1  0
  3  4  2  0
  3  5  1  0
  5  6  2  0
  6  7  1  0
  7  8  1  0
  8  9  1  0
  9 10  1  0
  7 11  2  0
 11 12  1  0
 12 13  2  0
 13 14  1  0
 14 15  1  0
 14 16  1  0
 16 17  1  0
 17 18  1  0
 17 19  1  0
 17 20  1  0
 20 21  1  0
 20 22  1  0
 13  5  1  0
 10  8  1  0
M  END
>  <energy_score>  (3272) 
-51.223166

>  <inchikey>  (3272) 
CCKVZNYLTFSUAA-UHFFFAOYSA-N

>  <smiles>  (3272) 
COC(=O)c1cc(C2CC2)ncc1N(N)CC(F)(F)C(F)F

>  <ref_pdb>  (3272) 
A0528a

>  <alias>  (3272) 
CCKVZNYLTFSUAA-UHFFFAOYSA-N-P308-P15-P308-601501

>  <HIPPO Pose ID>  (3272) 
502151

>  <name>  (3272) 
CCKVZNYLTFSUAA-UHFFFAOYSA-N-P308-P15-P308-601501

>  <HIPPO Compound ID>  (3272) 
292789

>  <ref_mols>  (3272) 
A4331a,A0514a

>  <distance_score>  (3272) 
1.360416

>  <inspiration_score>  (3272) 
None

$$$$
XDPSNTIFNUGJGQ-UHFFFAOYSA-N-P15-P15-P308-601501
     RDKit          3D

 22 24  0  0  0  0  0  0  0  0999 V2000
    9.5807    8.0314   23.3591 C   0  0  0  0  0  0  0  0  0  0  0  0
    8.6723    8.7477   24.1865 O   0  0  0  0  0  0  0  0  0  0  0  0
    8.5915    9.9796   23.6669 C   0  0  0  0  0  0  0  0  0  0  0  0
    9.0616   10.2777   22.5834 O   0  0  0  0  0  0  0  0  0  0  0  0
    7.9820   10.9609   24.5627 C   0  0  0  0  0  0  0  0  0  0  0  0
    6.9490   10.5890   25.4270 C   0  0  0  0  0  0  0  0  0  0  0  0
    6.4497   11.5415   26.2980 C   0  0  0  0  0  0  0  0  0  0  0  0
    5.3286   11.2600   27.2616 C   0  0  0  0  0  0  0  0  0  0  0  0
    4.1743   12.2353   27.3528 C   0  0  0  0  0  0  0  0  0  0  0  0
    5.1613   12.1577   28.4743 C   0  0  0  0  0  0  0  0  0  0  0  0
    7.0010   12.7758   26.3512 N   0  0  0  0  0  0  0  0  0  0  0  0
    7.9839   13.0998   25.4869 C   0  0  0  0  0  0  0  0  0  0  0  0
    8.5116   12.2644   24.5246 C   0  0  0  0  0  0  0  0  0  0  0  0
    9.5168   12.6459   23.6232 N   0  0  0  0  0  0  0  0  0  0  0  0
   10.7241   11.8679   23.6664 N   0  0  0  0  0  0  0  0  0  0  0  0
    9.6448   13.9910   22.9671 C   0  0  0  0  0  0  0  0  0  0  0  0
    8.3087   14.7569   23.0575 C   0  0  0  0  0  0  0  0  0  0  0  0
    9.9013   13.9339   21.4473 C   0  0  0  0  0  0  0  0  0  0  0  0
   10.8625   14.9953   20.8972 C   0  0  0  0  0  0  0  0  0  0  0  0
   12.1540   14.9594   21.5071 O   0  0  0  0  0  0  0  0  0  0  0  0
   12.1784   14.2047   22.7132 C   0  0  0  0  0  0  0  0  0  0  0  0
   10.9494   14.5596   23.5319 C   0  0  0  0  0  0  0  0  0  0  0  0
  1  2  1  0
  2  3  1  0
  3  4  2  0
  3  5  1  0
  5  6  2  0
  6  7  1  0
  7  8  1  0
  8  9  1  0
  9 10  1  0
  7 11  2  0
 11 12  1  0
 12 13  2  0
 13 14  1  0
 14 15  1  0
 14 16  1  0
 16 17  1  0
 16 18  1  0
 18 19  1  0
 19 20  1  0
 20 21  1  0
 21 22  1  0
 13  5  1  0
 22 16  1  0
 10  8  1  0
M  END
>  <energy_score>  (3273) 
-5.345422

>  <inchikey>  (3273) 
XDPSNTIFNUGJGQ-UHFFFAOYSA-N

>  <smiles>  (3273) 
COC(=O)c1cc(C2CC2)ncc1N(N)C1(C)CCOCC1

>  <ref_pdb>  (3273) 
A0528a

>  <alias>  (3273) 
XDPSNTIFNUGJGQ-UHFFFAOYSA-N-P15-P15-P308-601501

>  <HIPPO Pose ID>  (3273) 
502152

>  <name>  (3273) 
XDPSNTIFNUGJGQ-UHFFFAOYSA-N-P15-P15-P308-601501

>  <HIPPO Compound ID>  (3273) 
292790

>  <ref_mols>  (3273) 
A4331a,A0514a

>  <distance_score>  (3273) 
1.450673

>  <inspiration_score>  (3273) 
None

$$$$
XDPSNTIFNUGJGQ-UHFFFAOYSA-N-P308-P15-P308-601501
     RDKit          3D

 22 24  0  0  0  0  0  0  0  0999 V2000
    9.2200    8.5802   23.1189 C   0  0  0  0  0  0  0  0  0  0  0  0
    8.4007    9.5799   23.7182 O   0  0  0  0  0  0  0  0  0  0  0  0
    9.0878   10.4102   24.5278 C   0  0  0  0  0  0  0  0  0  0  0  0
   10.2552   10.3166   24.8751 O   0  0  0  0  0  0  0  0  0  0  0  0
    8.1757   11.4751   24.9817 C   0  0  0  0  0  0  0  0  0  0  0  0
    7.1224   11.0743   25.8205 C   0  0  0  0  0  0  0  0  0  0  0  0
    6.3492   12.0483   26.4339 C   0  0  0  0  0  0  0  0  0  0  0  0
    5.4061   11.8184   27.5695 C   0  0  0  0  0  0  0  0  0  0  0  0
    4.4296   10.6946   27.6353 C   0  0  0  0  0  0  0  0  0  0  0  0
    3.9485   12.0895   27.3255 C   0  0  0  0  0  0  0  0  0  0  0  0
    6.5300   13.3465   26.1499 N   0  0  0  0  0  0  0  0  0  0  0  0
    7.5016   13.6876   25.2883 C   0  0  0  0  0  0  0  0  0  0  0  0
    8.3916   12.8252   24.6641 C   0  0  0  0  0  0  0  0  0  0  0  0
    9.4087   13.3205   23.8382 N   0  0  0  0  0  0  0  0  0  0  0  0
   10.6751   12.7163   23.9076 N   0  0  0  0  0  0  0  0  0  0  0  0
    9.2036   14.4434   22.8418 C   0  0  0  0  0  0  0  0  0  0  0  0
    7.7840   14.3865   22.2419 C   0  0  0  0  0  0  0  0  0  0  0  0
   10.2115   14.3374   21.6505 C   0  0  0  0  0  0  0  0  0  0  0  0
   11.4908   15.1542   21.8481 C   0  0  0  0  0  0  0  0  0  0  0  0
   11.8638   15.1680   23.2244 O   0  0  0  0  0  0  0  0  0  0  0  0
   10.9105   15.8674   24.0240 C   0  0  0  0  0  0  0  0  0  0  0  0
    9.4796   15.7964   23.5008 C   0  0  0  0  0  0  0  0  0  0  0  0
  1  2  1  0
  2  3  1  0
  3  4  2  0
  3  5  1  0
  5  6  2  0
  6  7  1  0
  7  8  1  0
  8  9  1  0
  9 10  1  0
  7 11  2  0
 11 12  1  0
 12 13  2  0
 13 14  1  0
 14 15  1  0
 14 16  1  0
 16 17  1  0
 16 18  1  0
 18 19  1  0
 19 20  1  0
 20 21  1  0
 21 22  1  0
 13  5  1  0
 22 16  1  0
 10  8  1  0
M  END
>  <energy_score>  (3274) 
-36.859634

>  <inchikey>  (3274) 
XDPSNTIFNUGJGQ-UHFFFAOYSA-N

>  <smiles>  (3274) 
COC(=O)c1cc(C2CC2)ncc1N(N)C1(C)CCOCC1

>  <ref_pdb>  (3274) 
A0528a

>  <alias>  (3274) 
XDPSNTIFNUGJGQ-UHFFFAOYSA-N-P308-P15-P308-601501

>  <HIPPO Pose ID>  (3274) 
502153

>  <name>  (3274) 
XDPSNTIFNUGJGQ-UHFFFAOYSA-N-P308-P15-P308-601501

>  <HIPPO Compound ID>  (3274) 
292790

>  <ref_mols>  (3274) 
A4331a,A0514a

>  <distance_score>  (3274) 
1.47642

>  <inspiration_score>  (3274) 
None

$$$$
IGZPKQIJDKGQGN-UHFFFAOYSA-N-P15-P15-P308-601501
     RDKit          3D

 22 23  0  0  0  0  0  0  0  0999 V2000
    5.4712   14.3379   21.7885 C   0  0  0  0  0  0  0  0  0  0  0  0
    6.6714   13.5994   22.0332 O   0  0  0  0  0  0  0  0  0  0  0  0
    7.7103   14.4755   22.4709 C   0  0  0  0  0  0  0  0  0  0  0  0
    8.9122   13.6801   23.0230 C   0  0  0  0  0  0  0  0  0  0  0  0
   10.2109   14.3608   22.4923 C   0  0  0  0  0  0  0  0  0  0  0  0
   11.2603   14.6004   23.4284 O   0  0  0  0  0  0  0  0  0  0  0  0
   12.0313   13.4400   23.6321 C   0  0  0  0  0  0  0  0  0  0  0  0
    8.8626   13.4426   24.5136 N   0  0  0  0  0  0  0  0  0  0  0  0
    9.2793   14.5314   25.3557 N   0  0  0  0  0  0  0  0  0  0  0  0
    7.6932   12.7758   24.9769 C   0  0  0  0  0  0  0  0  0  0  0  0
    6.6994   13.5501   25.5862 C   0  0  0  0  0  0  0  0  0  0  0  0
    5.7175   13.1046   26.3817 N   0  0  0  0  0  0  0  0  0  0  0  0
    5.6121   11.7824   26.5704 C   0  0  0  0  0  0  0  0  0  0  0  0
    4.6706   11.3079   27.6331 C   0  0  0  0  0  0  0  0  0  0  0  0
    3.4322   12.1065   27.9576 C   0  0  0  0  0  0  0  0  0  0  0  0
    4.5919   12.1232   28.9077 C   0  0  0  0  0  0  0  0  0  0  0  0
    6.4189   10.9136   25.8681 C   0  0  0  0  0  0  0  0  0  0  0  0
    7.4735   11.3936   25.0599 C   0  0  0  0  0  0  0  0  0  0  0  0
    8.2392   10.2701   24.4786 C   0  0  0  0  0  0  0  0  0  0  0  0
    7.9866    9.1218   24.8252 O   0  0  0  0  0  0  0  0  0  0  0  0
    9.1551   10.5938   23.5499 O   0  0  0  0  0  0  0  0  0  0  0  0
    9.7210    9.4192   22.9578 C   0  0  0  0  0  0  0  0  0  0  0  0
  1  2  1  0
  2  3  1  0
  3  4  1  0
  4  5  1  0
  5  6  1  0
  6  7  1  0
  4  8  1  0
  8  9  1  0
  8 10  1  0
 10 11  2  0
 11 12  1  0
 12 13  2  0
 13 14  1  0
 14 15  1  0
 15 16  1  0
 13 17  1  0
 17 18  2  0
 18 19  1  0
 19 20  2  0
 19 21  1  0
 21 22  1  0
 18 10  1  0
 16 14  1  0
M  END
>  <energy_score>  (3275) 
-16.742986

>  <inchikey>  (3275) 
IGZPKQIJDKGQGN-UHFFFAOYSA-N

>  <smiles>  (3275) 
COCC(COC)N(N)c1cnc(C2CC2)cc1C(=O)OC

>  <ref_pdb>  (3275) 
A0528a

>  <alias>  (3275) 
IGZPKQIJDKGQGN-UHFFFAOYSA-N-P15-P15-P308-601501

>  <HIPPO Pose ID>  (3275) 
502156

>  <name>  (3275) 
IGZPKQIJDKGQGN-UHFFFAOYSA-N-P15-P15-P308-601501

>  <HIPPO Compound ID>  (3275) 
292792

>  <ref_mols>  (3275) 
A4331a,A0514a

>  <distance_score>  (3275) 
1.820722

>  <inspiration_score>  (3275) 
None

$$$$
IGZPKQIJDKGQGN-UHFFFAOYSA-N-P308-P15-P308-601501
     RDKit          3D

 22 23  0  0  0  0  0  0  0  0999 V2000
    5.5756   15.2907   22.7578 C   0  0  0  0  0  0  0  0  0  0  0  0
    6.9217   15.1586   23.1993 O   0  0  0  0  0  0  0  0  0  0  0  0
    7.6419   14.1780   22.4503 C   0  0  0  0  0  0  0  0  0  0  0  0
    9.0600   13.9620   23.0127 C   0  0  0  0  0  0  0  0  0  0  0  0
    9.6699   15.2836   23.5140 C   0  0  0  0  0  0  0  0  0  0  0  0
   11.0866   15.1843   23.7361 O   0  0  0  0  0  0  0  0  0  0  0  0
   11.8305   15.4156   22.5471 C   0  0  0  0  0  0  0  0  0  0  0  0
    9.1684   12.8731   24.0378 N   0  0  0  0  0  0  0  0  0  0  0  0
   10.4460   12.3683   24.3722 N   0  0  0  0  0  0  0  0  0  0  0  0
    8.1042   12.4534   24.8260 C   0  0  0  0  0  0  0  0  0  0  0  0
    7.3724   13.3854   25.5496 C   0  0  0  0  0  0  0  0  0  0  0  0
    6.3259   13.1158   26.3500 N   0  0  0  0  0  0  0  0  0  0  0  0
    5.9177   11.8393   26.4712 C   0  0  0  0  0  0  0  0  0  0  0  0
    4.7828   11.5629   27.4124 C   0  0  0  0  0  0  0  0  0  0  0  0
    3.5789   12.4731   27.4132 C   0  0  0  0  0  0  0  0  0  0  0  0
    4.5447   12.5257   28.5580 C   0  0  0  0  0  0  0  0  0  0  0  0
    6.5722   10.8292   25.7955 C   0  0  0  0  0  0  0  0  0  0  0  0
    7.6874   11.1243   24.9942 C   0  0  0  0  0  0  0  0  0  0  0  0
    8.2989    9.9181   24.3914 C   0  0  0  0  0  0  0  0  0  0  0  0
    8.0438    8.8014   24.8232 O   0  0  0  0  0  0  0  0  0  0  0  0
    9.0619   10.1672   23.3082 O   0  0  0  0  0  0  0  0  0  0  0  0
    9.6313    8.9793   22.7678 C   0  0  0  0  0  0  0  0  0  0  0  0
  1  2  1  0
  2  3  1  0
  3  4  1  0
  4  5  1  0
  5  6  1  0
  6  7  1  0
  4  8  1  0
  8  9  1  0
  8 10  1  0
 10 11  2  0
 11 12  1  0
 12 13  2  0
 13 14  1  0
 14 15  1  0
 15 16  1  0
 13 17  1  0
 17 18  2  0
 18 19  1  0
 19 20  2  0
 19 21  1  0
 21 22  1  0
 18 10  1  0
 16 14  1  0
M  END
>  <energy_score>  (3276) 
-39.628448

>  <inchikey>  (3276) 
IGZPKQIJDKGQGN-UHFFFAOYSA-N

>  <smiles>  (3276) 
COCC(COC)N(N)c1cnc(C2CC2)cc1C(=O)OC

>  <ref_pdb>  (3276) 
A0528a

>  <alias>  (3276) 
IGZPKQIJDKGQGN-UHFFFAOYSA-N-P308-P15-P308-601501

>  <HIPPO Pose ID>  (3276) 
502157

>  <name>  (3276) 
IGZPKQIJDKGQGN-UHFFFAOYSA-N-P308-P15-P308-601501

>  <HIPPO Compound ID>  (3276) 
292792

>  <ref_mols>  (3276) 
A4331a,A0514a

>  <distance_score>  (3276) 
1.693252

>  <inspiration_score>  (3276) 
None

$$$$
JUJSAQDHTSVQJF-UHFFFAOYSA-N-P15-P15-P308-601501
     RDKit          3D

 22 24  0  0  0  0  0  0  0  0999 V2000
    5.4154   15.2473   23.5415 C   0  0  0  0  0  0  0  0  0  0  0  0
    6.8343   15.2445   23.3996 O   0  0  0  0  0  0  0  0  0  0  0  0
    7.3033   14.2749   22.5871 C   0  0  0  0  0  0  0  0  0  0  0  0
    6.6967   13.3948   22.0037 O   0  0  0  0  0  0  0  0  0  0  0  0
    8.7324   14.4705   22.3859 C   0  0  0  0  0  0  0  0  0  0  0  0
    8.9876   15.4266   21.4138 C   0  0  0  0  0  0  0  0  0  0  0  0
   10.2122   15.4106   20.7942 C   0  0  0  0  0  0  0  0  0  0  0  0
   10.1899   15.6203   19.3058 C   0  0  0  0  0  0  0  0  0  0  0  0
   11.4901   15.4635   18.6046 C   0  0  0  0  0  0  0  0  0  0  0  0
   10.6533   16.7311   18.4613 C   0  0  0  0  0  0  0  0  0  0  0  0
   11.2611   14.7906   21.3912 N   0  0  0  0  0  0  0  0  0  0  0  0
   10.9990   13.8958   22.3724 C   0  0  0  0  0  0  0  0  0  0  0  0
    9.7244   13.5902   22.8359 C   0  0  0  0  0  0  0  0  0  0  0  0
    9.4358   12.3967   23.5739 N   0  0  0  0  0  0  0  0  0  0  0  0
   10.2788   11.2950   23.3801 N   0  0  0  0  0  0  0  0  0  0  0  0
    8.4739   12.2994   24.6192 C   0  0  0  0  0  0  0  0  0  0  0  0
    8.2654   13.4323   25.4095 C   0  0  0  0  0  0  0  0  0  0  0  0
    7.2394   13.4917   26.3303 C   0  0  0  0  0  0  0  0  0  0  0  0
    6.4194   12.3898   26.5220 C   0  0  0  0  0  0  0  0  0  0  0  0
    5.2531   12.5380   27.4321 C   0  0  0  0  0  0  0  0  0  0  0  0
    6.6554   11.2143   25.8055 C   0  0  0  0  0  0  0  0  0  0  0  0
    7.6862   11.1644   24.8634 C   0  0  0  0  0  0  0  0  0  0  0  0
  1  2  1  0
  2  3  1  0
  3  4  2  0
  3  5  1  0
  5  6  2  0
  6  7  1  0
  7  8  1  0
  8  9  1  0
  9 10  1  0
  7 11  2  0
 11 12  1  0
 12 13  2  0
 13 14  1  0
 14 15  1  0
 14 16  1  0
 16 17  2  0
 17 18  1  0
 18 19  2  0
 19 20  1  0
 19 21  1  0
 21 22  2  0
 13  5  1  0
 22 16  1  0
 10  8  1  0
M  END
>  <energy_score>  (3277) 
-20.614882

>  <inchikey>  (3277) 
JUJSAQDHTSVQJF-UHFFFAOYSA-N

>  <smiles>  (3277) 
COC(=O)c1cc(C2CC2)ncc1N(N)c1ccc(C)cc1

>  <ref_pdb>  (3277) 
A0528a

>  <alias>  (3277) 
JUJSAQDHTSVQJF-UHFFFAOYSA-N-P15-P15-P308-601501

>  <HIPPO Pose ID>  (3277) 
502160

>  <name>  (3277) 
JUJSAQDHTSVQJF-UHFFFAOYSA-N-P15-P15-P308-601501

>  <HIPPO Compound ID>  (3277) 
292794

>  <ref_mols>  (3277) 
A4331a,A0514a

>  <distance_score>  (3277) 
1.960304

>  <inspiration_score>  (3277) 
None

$$$$
JUJSAQDHTSVQJF-UHFFFAOYSA-N-P308-P15-P308-601501
     RDKit          3D

 22 24  0  0  0  0  0  0  0  0999 V2000
    5.4238   15.0326   23.5280 C   0  0  0  0  0  0  0  0  0  0  0  0
    6.8489   14.9887   23.4618 O   0  0  0  0  0  0  0  0  0  0  0  0
    7.3176   13.9601   22.7185 C   0  0  0  0  0  0  0  0  0  0  0  0
    6.6764   13.1135   22.1233 O   0  0  0  0  0  0  0  0  0  0  0  0
    8.7714   14.0568   22.6326 C   0  0  0  0  0  0  0  0  0  0  0  0
    9.1817   14.8308   21.5632 C   0  0  0  0  0  0  0  0  0  0  0  0
   10.5075   14.7643   21.2052 C   0  0  0  0  0  0  0  0  0  0  0  0
   10.8374   14.9458   19.7758 C   0  0  0  0  0  0  0  0  0  0  0  0
   12.0977   15.6121   19.4193 C   0  0  0  0  0  0  0  0  0  0  0  0
   10.7795   16.2664   19.1079 C   0  0  0  0  0  0  0  0  0  0  0  0
   11.4565   14.2937   22.0469 N   0  0  0  0  0  0  0  0  0  0  0  0
   11.0295   13.5520   23.0803 C   0  0  0  0  0  0  0  0  0  0  0  0
    9.6944   13.2627   23.3264 C   0  0  0  0  0  0  0  0  0  0  0  0
    9.3616   12.1316   24.1402 N   0  0  0  0  0  0  0  0  0  0  0  0
    9.5970   10.8786   23.5195 N   0  0  0  0  0  0  0  0  0  0  0  0
    8.2659   12.1726   25.0452 C   0  0  0  0  0  0  0  0  0  0  0  0
    8.0812   13.3695   25.7426 C   0  0  0  0  0  0  0  0  0  0  0  0
    6.9378   13.5962   26.4769 C   0  0  0  0  0  0  0  0  0  0  0  0
    5.9890   12.5911   26.6005 C   0  0  0  0  0  0  0  0  0  0  0  0
    4.7316   12.9099   27.3240 C   0  0  0  0  0  0  0  0  0  0  0  0
    6.2020   11.3482   26.0000 C   0  0  0  0  0  0  0  0  0  0  0  0
    7.3428   11.1352   25.2289 C   0  0  0  0  0  0  0  0  0  0  0  0
  1  2  1  0
  2  3  1  0
  3  4  2  0
  3  5  1  0
  5  6  2  0
  6  7  1  0
  7  8  1  0
  8  9  1  0
  9 10  1  0
  7 11  2  0
 11 12  1  0
 12 13  2  0
 13 14  1  0
 14 15  1  0
 14 16  1  0
 16 17  2  0
 17 18  1  0
 18 19  2  0
 19 20  1  0
 19 21  1  0
 21 22  2  0
 13  5  1  0
 22 16  1  0
 10  8  1  0
M  END
>  <energy_score>  (3278) 
-31.845056

>  <inchikey>  (3278) 
JUJSAQDHTSVQJF-UHFFFAOYSA-N

>  <smiles>  (3278) 
COC(=O)c1cc(C2CC2)ncc1N(N)c1ccc(C)cc1

>  <ref_pdb>  (3278) 
A0528a

>  <alias>  (3278) 
JUJSAQDHTSVQJF-UHFFFAOYSA-N-P308-P15-P308-601501

>  <HIPPO Pose ID>  (3278) 
502161

>  <name>  (3278) 
JUJSAQDHTSVQJF-UHFFFAOYSA-N-P308-P15-P308-601501

>  <HIPPO Compound ID>  (3278) 
292794

>  <ref_mols>  (3278) 
A4331a,A0514a

>  <distance_score>  (3278) 
1.964752

>  <inspiration_score>  (3278) 
None

$$$$
WAGHIZCSAWOZCF-UHFFFAOYSA-N-P15-P15-P308-601501
     RDKit          3D

 22 24  0  0  0  0  0  0  0  0999 V2000
   10.8348   15.4484   18.8704 C   0  0  0  0  0  0  0  0  0  0  0  0
   10.7957   15.6792   20.2693 O   0  0  0  0  0  0  0  0  0  0  0  0
    9.5362   15.4052   20.8571 C   0  0  0  0  0  0  0  0  0  0  0  0
    9.7615   14.4415   21.9684 C   0  0  0  0  0  0  0  0  0  0  0  0
    8.8359   13.7162   22.5298 N   0  0  0  0  0  0  0  0  0  0  0  0
    9.4496   13.0466   23.5892 N   0  0  0  0  0  0  0  0  0  0  0  0
    8.5357   12.7118   24.6168 C   0  0  0  0  0  0  0  0  0  0  0  0
    8.0283   13.7314   25.4056 C   0  0  0  0  0  0  0  0  0  0  0  0
    7.0742   13.5760   26.3491 N   0  0  0  0  0  0  0  0  0  0  0  0
    6.4950   12.3672   26.4994 C   0  0  0  0  0  0  0  0  0  0  0  0
    5.3998   12.2130   27.5125 C   0  0  0  0  0  0  0  0  0  0  0  0
    4.0095   12.6854   27.1716 C   0  0  0  0  0  0  0  0  0  0  0  0
    4.8207   13.4420   28.1788 C   0  0  0  0  0  0  0  0  0  0  0  0
    6.9268   11.2932   25.7498 C   0  0  0  0  0  0  0  0  0  0  0  0
    7.9710   11.4495   24.8203 C   0  0  0  0  0  0  0  0  0  0  0  0
    8.3666   10.1727   24.2027 C   0  0  0  0  0  0  0  0  0  0  0  0
    7.8036    9.1338   24.5216 O   0  0  0  0  0  0  0  0  0  0  0  0
    9.3938   10.2819   23.3455 O   0  0  0  0  0  0  0  0  0  0  0  0
    9.7836    9.0184   22.8080 C   0  0  0  0  0  0  0  0  0  0  0  0
   10.7341   13.5999   23.8305 C   0  0  0  0  0  0  0  0  0  0  0  0
   11.4381   13.5987   24.8240 O   0  0  0  0  0  0  0  0  0  0  0  0
   11.1041   14.3057   22.5850 C   0  0  0  0  0  0  0  0  0  0  0  0
  1  2  1  0
  2  3  1  0
  3  4  1  0
  4  5  2  0
  5  6  1  0
  6  7  1  0
  7  8  2  0
  8  9  1  0
  9 10  2  0
 10 11  1  0
 11 12  1  0
 12 13  1  0
 10 14  1  0
 14 15  2  0
 15 16  1  0
 16 17  2  0
 16 18  1  0
 18 19  1  0
  6 20  1  0
 20 21  2  0
 20 22  1  0
 22  4  1  0
 15  7  1  0
 13 11  1  0
M  END
>  <energy_score>  (3279) 
-21.871291

>  <inchikey>  (3279) 
WAGHIZCSAWOZCF-UHFFFAOYSA-N

>  <smiles>  (3279) 
COCC1=NN(c2cnc(C3CC3)cc2C(=O)OC)C(=O)C1

>  <ref_pdb>  (3279) 
A0528a

>  <alias>  (3279) 
WAGHIZCSAWOZCF-UHFFFAOYSA-N-P15-P15-P308-601501

>  <HIPPO Pose ID>  (3279) 
502168

>  <name>  (3279) 
WAGHIZCSAWOZCF-UHFFFAOYSA-N-P15-P15-P308-601501

>  <HIPPO Compound ID>  (3279) 
292798

>  <ref_mols>  (3279) 
A4331a,A0514a

>  <distance_score>  (3279) 
1.576446

>  <inspiration_score>  (3279) 
None

$$$$
WAGHIZCSAWOZCF-UHFFFAOYSA-N-P308-P15-P308-601501
     RDKit          3D

 22 24  0  0  0  0  0  0  0  0999 V2000
   10.7705   15.6988   18.7977 C   0  0  0  0  0  0  0  0  0  0  0  0
   10.7165   15.1078   20.0789 O   0  0  0  0  0  0  0  0  0  0  0  0
    9.5790   15.5410   20.8139 C   0  0  0  0  0  0  0  0  0  0  0  0
    9.7729   14.8284   22.0939 C   0  0  0  0  0  0  0  0  0  0  0  0
    8.9213   14.0053   22.6254 N   0  0  0  0  0  0  0  0  0  0  0  0
    9.5404   13.4991   23.7505 N   0  0  0  0  0  0  0  0  0  0  0  0
    8.6479   12.9632   24.6947 C   0  0  0  0  0  0  0  0  0  0  0  0
    7.6799   13.7762   25.2489 C   0  0  0  0  0  0  0  0  0  0  0  0
    6.6376   13.3263   25.9767 N   0  0  0  0  0  0  0  0  0  0  0  0
    6.4606   11.9929   26.1337 C   0  0  0  0  0  0  0  0  0  0  0  0
    5.3025   11.5484   26.9884 C   0  0  0  0  0  0  0  0  0  0  0  0
    4.0768   12.4233   27.1285 C   0  0  0  0  0  0  0  0  0  0  0  0
    5.0413   12.3215   28.2678 C   0  0  0  0  0  0  0  0  0  0  0  0
    7.3704   11.0990   25.5903 C   0  0  0  0  0  0  0  0  0  0  0  0
    8.4797   11.5975   24.8898 C   0  0  0  0  0  0  0  0  0  0  0  0
    9.4679   10.6472   24.3776 C   0  0  0  0  0  0  0  0  0  0  0  0
   10.6705   10.7687   24.5280 O   0  0  0  0  0  0  0  0  0  0  0  0
    8.7929    9.6595   23.7503 O   0  0  0  0  0  0  0  0  0  0  0  0
    9.6248    8.6818   23.1402 C   0  0  0  0  0  0  0  0  0  0  0  0
   10.7564   14.1494   24.0374 C   0  0  0  0  0  0  0  0  0  0  0  0
   11.4936   14.0969   25.0033 O   0  0  0  0  0  0  0  0  0  0  0  0
   11.0202   15.0300   22.8758 C   0  0  0  0  0  0  0  0  0  0  0  0
  1  2  1  0
  2  3  1  0
  3  4  1  0
  4  5  2  0
  5  6  1  0
  6  7  1  0
  7  8  2  0
  8  9  1  0
  9 10  2  0
 10 11  1  0
 11 12  1  0
 12 13  1  0
 10 14  1  0
 14 15  2  0
 15 16  1  0
 16 17  2  0
 16 18  1  0
 18 19  1  0
  6 20  1  0
 20 21  2  0
 20 22  1  0
 22  4  1  0
 15  7  1  0
 13 11  1  0
M  END
>  <energy_score>  (3280) 
-25.244482

>  <inchikey>  (3280) 
WAGHIZCSAWOZCF-UHFFFAOYSA-N

>  <smiles>  (3280) 
COCC1=NN(c2cnc(C3CC3)cc2C(=O)OC)C(=O)C1

>  <ref_pdb>  (3280) 
A0528a

>  <alias>  (3280) 
WAGHIZCSAWOZCF-UHFFFAOYSA-N-P308-P15-P308-601501

>  <HIPPO Pose ID>  (3280) 
502169

>  <name>  (3280) 
WAGHIZCSAWOZCF-UHFFFAOYSA-N-P308-P15-P308-601501

>  <HIPPO Compound ID>  (3280) 
292798

>  <ref_mols>  (3280) 
A4331a,A0514a

>  <distance_score>  (3280) 
1.515468

>  <inspiration_score>  (3280) 
None

$$$$
JVSQHIUCYAGWES-UHFFFAOYSA-N-P15-P15-P308-601501
     RDKit          3D

 22 24  0  0  0  0  0  0  0  0999 V2000
    9.3806    8.4632   22.9765 C   0  0  0  0  0  0  0  0  0  0  0  0
    8.4877    9.2081   23.7995 O   0  0  0  0  0  0  0  0  0  0  0  0
    8.9175   10.4659   24.0233 C   0  0  0  0  0  0  0  0  0  0  0  0
    9.9855   10.9363   23.6673 O   0  0  0  0  0  0  0  0  0  0  0  0
    7.8768   11.2302   24.7408 C   0  0  0  0  0  0  0  0  0  0  0  0
    6.9654   10.6058   25.5910 C   0  0  0  0  0  0  0  0  0  0  0  0
    6.0459   11.3907   26.2781 C   0  0  0  0  0  0  0  0  0  0  0  0
    5.1668   10.8315   27.3579 C   0  0  0  0  0  0  0  0  0  0  0  0
    5.3605   11.3353   28.7700 C   0  0  0  0  0  0  0  0  0  0  0  0
    4.1320   11.7287   28.0126 C   0  0  0  0  0  0  0  0  0  0  0  0
    5.9490   12.7219   26.0552 N   0  0  0  0  0  0  0  0  0  0  0  0
    6.7734   13.2950   25.1663 C   0  0  0  0  0  0  0  0  0  0  0  0
    7.8181   12.6150   24.5602 C   0  0  0  0  0  0  0  0  0  0  0  0
    8.6905   13.2554   23.6135 N   0  0  0  0  0  0  0  0  0  0  0  0
    9.4485   13.6182   24.9778 N   0  0  0  0  0  0  0  0  0  0  0  0
    8.4825   14.4841   22.7556 C   0  0  0  0  0  0  0  0  0  0  0  0
    7.5863   15.2471   22.7229 O   0  0  0  0  0  0  0  0  0  0  0  0
    9.6716   14.6606   21.9082 C   0  0  0  0  0  0  0  0  0  0  0  0
    9.6011   15.1732   20.7021 N   0  0  0  0  0  0  0  0  0  0  0  0
   10.8695   15.2670   20.1708 C   0  0  0  0  0  0  0  0  0  0  0  0
   11.9009   14.8979   21.0078 C   0  0  0  0  0  0  0  0  0  0  0  0
   11.2675   14.3260   22.4789 S   0  0  0  0  0  0  0  0  0  0  0  0
  1  2  1  0
  2  3  1  0
  3  4  2  0
  3  5  1  0
  5  6  2  0
  6  7  1  0
  7  8  1  0
  8  9  1  0
  9 10  1  0
  7 11  2  0
 11 12  1  0
 12 13  2  0
 13 14  1  0
 14 15  1  0
 14 16  1  0
 16 17  2  0
 16 18  1  0
 18 19  2  0
 19 20  1  0
 20 21  2  0
 21 22  1  0
 13  5  1  0
 22 18  1  0
 10  8  1  0
M  END
>  <energy_score>  (3281) 
-13.791432

>  <inchikey>  (3281) 
JVSQHIUCYAGWES-UHFFFAOYSA-N

>  <smiles>  (3281) 
COC(=O)c1cc(C2CC2)ncc1N(N)C(=O)c1nccs1

>  <ref_pdb>  (3281) 
A0528a

>  <alias>  (3281) 
JVSQHIUCYAGWES-UHFFFAOYSA-N-P15-P15-P308-601501

>  <HIPPO Pose ID>  (3281) 
502184

>  <name>  (3281) 
JVSQHIUCYAGWES-UHFFFAOYSA-N-P15-P15-P308-601501

>  <HIPPO Compound ID>  (3281) 
292806

>  <ref_mols>  (3281) 
A4331a,A0514a

>  <distance_score>  (3281) 
1.651755

>  <inspiration_score>  (3281) 
None

$$$$
SILBMQKQOWCQBD-UHFFFAOYSA-N-P15-P15-P308-601501
     RDKit          3D

 22 24  0  0  0  0  0  0  0  0999 V2000
    9.6074    8.8958   23.1067 C   0  0  0  0  0  0  0  0  0  0  0  0
    8.6977    9.7974   23.7370 O   0  0  0  0  0  0  0  0  0  0  0  0
    9.1583   11.0672   23.8295 C   0  0  0  0  0  0  0  0  0  0  0  0
   10.2541   11.4530   23.4699 O   0  0  0  0  0  0  0  0  0  0  0  0
    8.1317   11.9444   24.4353 C   0  0  0  0  0  0  0  0  0  0  0  0
    7.1221   11.3603   25.2087 C   0  0  0  0  0  0  0  0  0  0  0  0
    6.2285   12.1636   25.9050 C   0  0  0  0  0  0  0  0  0  0  0  0
    5.3108   11.5807   26.9471 C   0  0  0  0  0  0  0  0  0  0  0  0
    4.1185   12.3592   27.4513 C   0  0  0  0  0  0  0  0  0  0  0  0
    5.3307   12.2220   28.3205 C   0  0  0  0  0  0  0  0  0  0  0  0
    6.2358   13.5013   25.7491 N   0  0  0  0  0  0  0  0  0  0  0  0
    7.2096   14.0449   25.0030 C   0  0  0  0  0  0  0  0  0  0  0  0
    8.2404   13.3407   24.3899 C   0  0  0  0  0  0  0  0  0  0  0  0
    9.4618   14.0424   24.2435 N   0  0  0  0  0  0  0  0  0  0  0  0
   10.2911   13.8154   25.4035 N   0  0  0  0  0  0  0  0  0  0  0  0
   10.2366   14.2842   23.1055 C   0  0  0  0  0  0  0  0  0  0  0  0
   11.5326   14.4072   23.2984 N   0  0  0  0  0  0  0  0  0  0  0  0
   12.4115   14.6395   22.2585 N   0  0  0  0  0  0  0  0  0  0  0  0
   11.9088   14.9000   21.1001 C   0  0  0  0  0  0  0  0  0  0  0  0
   10.4408   15.0097   20.8865 C   0  0  0  0  0  0  0  0  0  0  0  0
   10.0225   15.5868   19.8981 O   0  0  0  0  0  0  0  0  0  0  0  0
    9.6683   14.4906   21.8840 N   0  0  0  0  0  0  0  0  0  0  0  0
  1  2  1  0
  2  3  1  0
  3  4  2  0
  3  5  1  0
  5  6  2  0
  6  7  1  0
  7  8  1  0
  8  9  1  0
  9 10  1  0
  7 11  2  0
 11 12  1  0
 12 13  2  0
 13 14  1  0
 14 15  1  0
 14 16  1  0
 16 17  2  0
 17 18  1  0
 18 19  2  0
 19 20  1  0
 20 21  2  0
 20 22  1  0
 13  5  1  0
 22 16  1  0
 10  8  1  0
M  END
>  <energy_score>  (3282) 
-17.246285

>  <inchikey>  (3282) 
SILBMQKQOWCQBD-UHFFFAOYSA-N

>  <smiles>  (3282) 
COC(=O)c1cc(C2CC2)ncc1N(N)c1nncc(=O)[nH]1

>  <ref_pdb>  (3282) 
A0528a

>  <alias>  (3282) 
SILBMQKQOWCQBD-UHFFFAOYSA-N-P15-P15-P308-601501

>  <HIPPO Pose ID>  (3282) 
502202

>  <name>  (3282) 
SILBMQKQOWCQBD-UHFFFAOYSA-N-P15-P15-P308-601501

>  <HIPPO Compound ID>  (3282) 
292815

>  <ref_mols>  (3282) 
A4331a,A0514a

>  <distance_score>  (3282) 
1.956679

>  <inspiration_score>  (3282) 
None

$$$$
SILBMQKQOWCQBD-UHFFFAOYSA-N-P308-P15-P308-601501
     RDKit          3D

 22 24  0  0  0  0  0  0  0  0999 V2000
    9.4840    8.6241   23.1887 C   0  0  0  0  0  0  0  0  0  0  0  0
    8.6285    9.6158   23.7440 O   0  0  0  0  0  0  0  0  0  0  0  0
    9.2900   10.6127   24.3754 C   0  0  0  0  0  0  0  0  0  0  0  0
   10.4882   10.6782   24.5925 O   0  0  0  0  0  0  0  0  0  0  0  0
    8.2872   11.6505   24.6971 C   0  0  0  0  0  0  0  0  0  0  0  0
    7.1338   11.2652   25.3725 C   0  0  0  0  0  0  0  0  0  0  0  0
    6.2360   12.2394   25.7793 C   0  0  0  0  0  0  0  0  0  0  0  0
    5.1300   11.8974   26.7425 C   0  0  0  0  0  0  0  0  0  0  0  0
    3.9705   12.8353   26.9644 C   0  0  0  0  0  0  0  0  0  0  0  0
    5.0352   12.7201   28.0123 C   0  0  0  0  0  0  0  0  0  0  0  0
    6.4014   13.5312   25.4148 N   0  0  0  0  0  0  0  0  0  0  0  0
    7.5164   13.8753   24.7436 C   0  0  0  0  0  0  0  0  0  0  0  0
    8.5326   12.9990   24.4160 C   0  0  0  0  0  0  0  0  0  0  0  0
    9.8309   13.4591   24.1531 N   0  0  0  0  0  0  0  0  0  0  0  0
   10.6466   13.3282   25.3282 N   0  0  0  0  0  0  0  0  0  0  0  0
   10.3160   14.3858   23.2326 C   0  0  0  0  0  0  0  0  0  0  0  0
   11.4723   14.9466   23.4982 N   0  0  0  0  0  0  0  0  0  0  0  0
   12.1017   15.7919   22.6004 N   0  0  0  0  0  0  0  0  0  0  0  0
   11.5738   15.9466   21.4341 C   0  0  0  0  0  0  0  0  0  0  0  0
   10.2945   15.2900   21.0508 C   0  0  0  0  0  0  0  0  0  0  0  0
    9.9161   15.3329   19.8936 O   0  0  0  0  0  0  0  0  0  0  0  0
    9.6553   14.6385   22.0651 N   0  0  0  0  0  0  0  0  0  0  0  0
  1  2  1  0
  2  3  1  0
  3  4  2  0
  3  5  1  0
  5  6  2  0
  6  7  1  0
  7  8  1  0
  8  9  1  0
  9 10  1  0
  7 11  2  0
 11 12  1  0
 12 13  2  0
 13 14  1  0
 14 15  1  0
 14 16  1  0
 16 17  2  0
 17 18  1  0
 18 19  2  0
 19 20  1  0
 20 21  2  0
 20 22  1  0
 13  5  1  0
 22 16  1  0
 10  8  1  0
M  END
>  <energy_score>  (3283) 
-25.304241

>  <inchikey>  (3283) 
SILBMQKQOWCQBD-UHFFFAOYSA-N

>  <smiles>  (3283) 
COC(=O)c1cc(C2CC2)ncc1N(N)c1nncc(=O)[nH]1

>  <ref_pdb>  (3283) 
A0528a

>  <alias>  (3283) 
SILBMQKQOWCQBD-UHFFFAOYSA-N-P308-P15-P308-601501

>  <HIPPO Pose ID>  (3283) 
502203

>  <name>  (3283) 
SILBMQKQOWCQBD-UHFFFAOYSA-N-P308-P15-P308-601501

>  <HIPPO Compound ID>  (3283) 
292815

>  <ref_mols>  (3283) 
A4331a,A0514a

>  <distance_score>  (3283) 
1.903122

>  <inspiration_score>  (3283) 
None

$$$$
XVEKHGYVPCSHKN-UHFFFAOYSA-N-P15-P15-P308-601501
     RDKit          3D

 22 24  0  0  0  0  0  0  0  0999 V2000
    9.4160    8.5929   23.0407 C   0  0  0  0  0  0  0  0  0  0  0  0
    8.5111    9.3092   23.8797 O   0  0  0  0  0  0  0  0  0  0  0  0
    8.8826   10.5912   24.0927 C   0  0  0  0  0  0  0  0  0  0  0  0
    9.9247   11.1026   23.7182 O   0  0  0  0  0  0  0  0  0  0  0  0
    7.8104   11.3099   24.8180 C   0  0  0  0  0  0  0  0  0  0  0  0
    6.9311   10.6323   25.6607 C   0  0  0  0  0  0  0  0  0  0  0  0
    5.9576   11.3595   26.3334 C   0  0  0  0  0  0  0  0  0  0  0  0
    5.1908   10.7851   27.4879 C   0  0  0  0  0  0  0  0  0  0  0  0
    4.0000   11.5191   28.0635 C   0  0  0  0  0  0  0  0  0  0  0  0
    5.3008   11.5300   28.8056 C   0  0  0  0  0  0  0  0  0  0  0  0
    5.7353   12.6627   26.0516 N   0  0  0  0  0  0  0  0  0  0  0  0
    6.5345   13.2821   25.1704 C   0  0  0  0  0  0  0  0  0  0  0  0
    7.6701   12.6892   24.6367 C   0  0  0  0  0  0  0  0  0  0  0  0
    8.5482   13.3610   23.7161 N   0  0  0  0  0  0  0  0  0  0  0  0
    9.0383   14.0157   25.0931 N   0  0  0  0  0  0  0  0  0  0  0  0
    8.2626   14.4156   22.6790 C   0  0  0  0  0  0  0  0  0  0  0  0
    7.2683   14.9921   22.4349 O   0  0  0  0  0  0  0  0  0  0  0  0
    9.5079   14.6441   21.9229 C   0  0  0  0  0  0  0  0  0  0  0  0
   10.7802   14.2426   22.3053 C   0  0  0  0  0  0  0  0  0  0  0  0
   11.9509   14.8282   21.2129 S   0  0  0  0  0  0  0  0  0  0  0  0
   10.6866   15.4287   20.2273 C   0  0  0  0  0  0  0  0  0  0  0  0
    9.4741   15.3200   20.7186 N   0  0  0  0  0  0  0  0  0  0  0  0
  1  2  1  0
  2  3  1  0
  3  4  2  0
  3  5  1  0
  5  6  2  0
  6  7  1  0
  7  8  1  0
  8  9  1  0
  9 10  1  0
  7 11  2  0
 11 12  1  0
 12 13  2  0
 13 14  1  0
 14 15  1  0
 14 16  1  0
 16 17  2  0
 16 18  1  0
 18 19  2  0
 19 20  1  0
 20 21  1  0
 21 22  2  0
 13  5  1  0
 22 18  1  0
 10  8  1  0
M  END
>  <energy_score>  (3284) 
-4.388859

>  <inchikey>  (3284) 
XVEKHGYVPCSHKN-UHFFFAOYSA-N

>  <smiles>  (3284) 
COC(=O)c1cc(C2CC2)ncc1N(N)C(=O)c1cscn1

>  <ref_pdb>  (3284) 
A0528a

>  <alias>  (3284) 
XVEKHGYVPCSHKN-UHFFFAOYSA-N-P15-P15-P308-601501

>  <HIPPO Pose ID>  (3284) 
502204

>  <name>  (3284) 
XVEKHGYVPCSHKN-UHFFFAOYSA-N-P15-P15-P308-601501

>  <HIPPO Compound ID>  (3284) 
292816

>  <ref_mols>  (3284) 
A4331a,A0514a

>  <distance_score>  (3284) 
1.487949

>  <inspiration_score>  (3284) 
None

$$$$
XVEKHGYVPCSHKN-UHFFFAOYSA-N-P308-P15-P308-601501
     RDKit          3D

 22 24  0  0  0  0  0  0  0  0999 V2000
    9.3710    8.6656   23.1195 C   0  0  0  0  0  0  0  0  0  0  0  0
    8.4608    9.5244   23.8000 O   0  0  0  0  0  0  0  0  0  0  0  0
    9.0527   10.5903   24.3866 C   0  0  0  0  0  0  0  0  0  0  0  0
   10.2536   10.8088   24.4434 O   0  0  0  0  0  0  0  0  0  0  0  0
    7.9981   11.4430   24.9829 C   0  0  0  0  0  0  0  0  0  0  0  0
    6.9576   10.8194   25.6861 C   0  0  0  0  0  0  0  0  0  0  0  0
    6.0154   11.6052   26.3377 C   0  0  0  0  0  0  0  0  0  0  0  0
    4.9811   11.0435   27.2735 C   0  0  0  0  0  0  0  0  0  0  0  0
    3.7406   11.8459   27.6086 C   0  0  0  0  0  0  0  0  0  0  0  0
    4.8325   11.7277   28.6222 C   0  0  0  0  0  0  0  0  0  0  0  0
    6.0539   12.9507   26.2441 N   0  0  0  0  0  0  0  0  0  0  0  0
    7.0222   13.5352   25.5256 C   0  0  0  0  0  0  0  0  0  0  0  0
    8.0593   12.8479   24.9166 C   0  0  0  0  0  0  0  0  0  0  0  0
    8.9246   13.5879   24.0174 N   0  0  0  0  0  0  0  0  0  0  0  0
    9.9293   13.3467   25.2267 N   0  0  0  0  0  0  0  0  0  0  0  0
    8.9018   15.0522   23.6011 C   0  0  0  0  0  0  0  0  0  0  0  0
    8.2232   15.9414   23.9752 O   0  0  0  0  0  0  0  0  0  0  0  0
    9.9258   15.2403   22.5931 C   0  0  0  0  0  0  0  0  0  0  0  0
   11.0374   16.0229   22.8062 C   0  0  0  0  0  0  0  0  0  0  0  0
   12.0709   15.9370   21.4563 S   0  0  0  0  0  0  0  0  0  0  0  0
   10.9279   14.9415   20.6579 C   0  0  0  0  0  0  0  0  0  0  0  0
    9.8721   14.5998   21.3656 N   0  0  0  0  0  0  0  0  0  0  0  0
  1  2  1  0
  2  3  1  0
  3  4  2  0
  3  5  1  0
  5  6  2  0
  6  7  1  0
  7  8  1  0
  8  9  1  0
  9 10  1  0
  7 11  2  0
 11 12  1  0
 12 13  2  0
 13 14  1  0
 14 15  1  0
 14 16  1  0
 16 17  2  0
 16 18  1  0
 18 19  2  0
 19 20  1  0
 20 21  1  0
 21 22  2  0
 13  5  1  0
 22 18  1  0
 10  8  1  0
M  END
>  <energy_score>  (3285) 
-8.712718

>  <inchikey>  (3285) 
XVEKHGYVPCSHKN-UHFFFAOYSA-N

>  <smiles>  (3285) 
COC(=O)c1cc(C2CC2)ncc1N(N)C(=O)c1cscn1

>  <ref_pdb>  (3285) 
A0528a

>  <alias>  (3285) 
XVEKHGYVPCSHKN-UHFFFAOYSA-N-P308-P15-P308-601501

>  <HIPPO Pose ID>  (3285) 
502205

>  <name>  (3285) 
XVEKHGYVPCSHKN-UHFFFAOYSA-N-P308-P15-P308-601501

>  <HIPPO Compound ID>  (3285) 
292816

>  <ref_mols>  (3285) 
A4331a,A0514a

>  <distance_score>  (3285) 
1.511764

>  <inspiration_score>  (3285) 
None

$$$$
NFDPXUDZPSORLF-UHFFFAOYSA-N-P15-P15-P308-601501
     RDKit          3D

 22 23  0  0  0  0  0  0  0  0999 V2000
   10.4776   16.0093   18.9780 C   0  0  0  0  0  0  0  0  0  0  0  0
   10.8094   15.2163   20.2229 C   0  0  0  0  0  0  0  0  0  0  0  0
    9.6156   15.0403   21.1411 C   0  0  0  0  0  0  0  0  0  0  0  0
    9.1157   16.2422   21.4795 F   0  0  0  0  0  0  0  0  0  0  0  0
    8.5909   14.3863   20.5506 F   0  0  0  0  0  0  0  0  0  0  0  0
   10.0263   14.2507   22.3564 C   0  0  0  0  0  0  0  0  0  0  0  0
    8.8157   13.9102   23.2038 C   0  0  0  0  0  0  0  0  0  0  0  0
    9.2455   13.0492   24.3356 N   0  0  0  0  0  0  0  0  0  0  0  0
   10.3095   13.5982   25.1095 N   0  0  0  0  0  0  0  0  0  0  0  0
    8.1078   12.6206   25.0619 C   0  0  0  0  0  0  0  0  0  0  0  0
    7.3903   13.5424   25.8190 C   0  0  0  0  0  0  0  0  0  0  0  0
    6.3572   13.2473   26.6210 N   0  0  0  0  0  0  0  0  0  0  0  0
    5.9162   11.9759   26.6693 C   0  0  0  0  0  0  0  0  0  0  0  0
    4.7799   11.6709   27.5973 C   0  0  0  0  0  0  0  0  0  0  0  0
    3.5169   12.4918   27.5053 C   0  0  0  0  0  0  0  0  0  0  0  0
    4.4308   12.6717   28.6790 C   0  0  0  0  0  0  0  0  0  0  0  0
    6.5208   10.9946   25.9098 C   0  0  0  0  0  0  0  0  0  0  0  0
    7.6329   11.3053   25.1079 C   0  0  0  0  0  0  0  0  0  0  0  0
    8.2060   10.1210   24.4376 C   0  0  0  0  0  0  0  0  0  0  0  0
    7.8038    9.0052   24.7403 O   0  0  0  0  0  0  0  0  0  0  0  0
    9.1512   10.3822   23.5168 O   0  0  0  0  0  0  0  0  0  0  0  0
    9.6826    9.1892   22.9337 C   0  0  0  0  0  0  0  0  0  0  0  0
  1  2  1  0
  2  3  1  0
  3  4  1  0
  3  5  1  0
  3  6  1  0
  6  7  1  0
  7  8  1  0
  8  9  1  0
  8 10  1  0
 10 11  2  0
 11 12  1  0
 12 13  2  0
 13 14  1  0
 14 15  1  0
 15 16  1  0
 13 17  1  0
 17 18  2  0
 18 19  1  0
 19 20  2  0
 19 21  1  0
 21 22  1  0
 18 10  1  0
 16 14  1  0
M  END
>  <energy_score>  (3286) 
-41.087949

>  <inchikey>  (3286) 
NFDPXUDZPSORLF-UHFFFAOYSA-N

>  <smiles>  (3286) 
CCC(F)(F)CCN(N)c1cnc(C2CC2)cc1C(=O)OC

>  <ref_pdb>  (3286) 
A0528a

>  <alias>  (3286) 
NFDPXUDZPSORLF-UHFFFAOYSA-N-P15-P15-P308-601501

>  <HIPPO Pose ID>  (3286) 
502208

>  <name>  (3286) 
NFDPXUDZPSORLF-UHFFFAOYSA-N-P15-P15-P308-601501

>  <HIPPO Compound ID>  (3286) 
292818

>  <ref_mols>  (3286) 
A4331a,A0514a

>  <distance_score>  (3286) 
1.655374

>  <inspiration_score>  (3286) 
None

$$$$
NFDPXUDZPSORLF-UHFFFAOYSA-N-P308-P15-P308-601501
     RDKit          3D

 22 23  0  0  0  0  0  0  0  0999 V2000
   10.7157   15.8009   19.4598 C   0  0  0  0  0  0  0  0  0  0  0  0
   10.7636   15.2607   20.8804 C   0  0  0  0  0  0  0  0  0  0  0  0
    9.4079   15.3401   21.5742 C   0  0  0  0  0  0  0  0  0  0  0  0
    9.0064   16.6371   21.6089 F   0  0  0  0  0  0  0  0  0  0  0  0
    8.4670   14.6575   20.8733 F   0  0  0  0  0  0  0  0  0  0  0  0
    9.4090   14.8235   23.0066 C   0  0  0  0  0  0  0  0  0  0  0  0
    9.4777   13.3018   23.0504 C   0  0  0  0  0  0  0  0  0  0  0  0
    9.6274   12.7411   24.4149 N   0  0  0  0  0  0  0  0  0  0  0  0
   10.6635   13.2088   25.2584 N   0  0  0  0  0  0  0  0  0  0  0  0
    8.4030   12.4339   25.0346 C   0  0  0  0  0  0  0  0  0  0  0  0
    7.6935   13.4203   25.7057 C   0  0  0  0  0  0  0  0  0  0  0  0
    6.5416   13.2303   26.3726 N   0  0  0  0  0  0  0  0  0  0  0  0
    6.0003   11.9950   26.3960 C   0  0  0  0  0  0  0  0  0  0  0  0
    4.7542   11.7930   27.2052 C   0  0  0  0  0  0  0  0  0  0  0  0
    4.5801   12.5465   28.5019 C   0  0  0  0  0  0  0  0  0  0  0  0
    3.7584   12.9258   27.3068 C   0  0  0  0  0  0  0  0  0  0  0  0
    6.6099   10.9491   25.7319 C   0  0  0  0  0  0  0  0  0  0  0  0
    7.8166   11.1613   25.0501 C   0  0  0  0  0  0  0  0  0  0  0  0
    8.3665    9.9329   24.4433 C   0  0  0  0  0  0  0  0  0  0  0  0
    7.9721    8.8272   24.7896 O   0  0  0  0  0  0  0  0  0  0  0  0
    9.2364   10.1774   23.4459 O   0  0  0  0  0  0  0  0  0  0  0  0
    9.7074    8.9845   22.8271 C   0  0  0  0  0  0  0  0  0  0  0  0
  1  2  1  0
  2  3  1  0
  3  4  1  0
  3  5  1  0
  3  6  1  0
  6  7  1  0
  7  8  1  0
  8  9  1  0
  8 10  1  0
 10 11  2  0
 11 12  1  0
 12 13  2  0
 13 14  1  0
 14 15  1  0
 15 16  1  0
 13 17  1  0
 17 18  2  0
 18 19  1  0
 19 20  2  0
 19 21  1  0
 21 22  1  0
 18 10  1  0
 16 14  1  0
M  END
>  <energy_score>  (3287) 
-39.019664

>  <inchikey>  (3287) 
NFDPXUDZPSORLF-UHFFFAOYSA-N

>  <smiles>  (3287) 
CCC(F)(F)CCN(N)c1cnc(C2CC2)cc1C(=O)OC

>  <ref_pdb>  (3287) 
A0528a

>  <alias>  (3287) 
NFDPXUDZPSORLF-UHFFFAOYSA-N-P308-P15-P308-601501

>  <HIPPO Pose ID>  (3287) 
502209

>  <name>  (3287) 
NFDPXUDZPSORLF-UHFFFAOYSA-N-P308-P15-P308-601501

>  <HIPPO Compound ID>  (3287) 
292818

>  <ref_mols>  (3287) 
A4331a,A0514a

>  <distance_score>  (3287) 
1.596816

>  <inspiration_score>  (3287) 
None

$$$$
BEQNWKOKFDIKMV-UHFFFAOYSA-N-P15-P15-P308-601501
     RDKit          3D

 22 24  0  0  0  0  0  0  0  0999 V2000
    9.2681    8.5766   23.0668 C   0  0  0  0  0  0  0  0  0  0  0  0
    8.5736    9.4977   23.9118 O   0  0  0  0  0  0  0  0  0  0  0  0
    9.0525   10.7622   23.8498 C   0  0  0  0  0  0  0  0  0  0  0  0
   10.0004   11.1074   23.1643 O   0  0  0  0  0  0  0  0  0  0  0  0
    8.3069   11.6748   24.7579 C   0  0  0  0  0  0  0  0  0  0  0  0
    7.2912   11.1722   25.5903 C   0  0  0  0  0  0  0  0  0  0  0  0
    6.6537   12.0354   26.4783 C   0  0  0  0  0  0  0  0  0  0  0  0
    5.7752   11.6041   27.6088 C   0  0  0  0  0  0  0  0  0  0  0  0
    4.7767   10.5016   27.5332 C   0  0  0  0  0  0  0  0  0  0  0  0
    4.3112   11.9343   27.4928 C   0  0  0  0  0  0  0  0  0  0  0  0
    6.9025   13.3592   26.4690 N   0  0  0  0  0  0  0  0  0  0  0  0
    7.8397   13.8285   25.6323 C   0  0  0  0  0  0  0  0  0  0  0  0
    8.6404   13.0373   24.8223 C   0  0  0  0  0  0  0  0  0  0  0  0
    9.7209   13.6860   24.1723 N   0  0  0  0  0  0  0  0  0  0  0  0
   11.0252   13.1839   24.4535 N   0  0  0  0  0  0  0  0  0  0  0  0
    9.5289   14.0980   22.8753 C   0  0  0  0  0  0  0  0  0  0  0  0
    8.3856   14.1107   22.2185 N   0  0  0  0  0  0  0  0  0  0  0  0
    8.5870   14.6947   21.0036 N   0  0  0  0  0  0  0  0  0  0  0  0
    9.8553   15.0304   20.9051 C   0  0  0  0  0  0  0  0  0  0  0  0
   10.4786   15.7171   19.7569 C   0  0  0  0  0  0  0  0  0  0  0  0
   10.5006   14.6741   22.0606 N   0  0  0  0  0  0  0  0  0  0  0  0
   11.8815   14.9895   22.4059 N   0  0  0  0  0  0  0  0  0  0  0  0
  1  2  1  0
  2  3  1  0
  3  4  2  0
  3  5  1  0
  5  6  2  0
  6  7  1  0
  7  8  1  0
  8  9  1  0
  9 10  1  0
  7 11  2  0
 11 12  1  0
 12 13  2  0
 13 14  1  0
 14 15  1  0
 14 16  1  0
 16 17  2  0
 17 18  1  0
 18 19  2  0
 19 20  1  0
 19 21  1  0
 21 22  1  0
 13  5  1  0
 21 16  1  0
 10  8  1  0
M  END
>  <energy_score>  (3288) 
-51.996723

>  <inchikey>  (3288) 
BEQNWKOKFDIKMV-UHFFFAOYSA-N

>  <smiles>  (3288) 
COC(=O)c1cc(C2CC2)ncc1N(N)c1nnc(C)n1N

>  <ref_pdb>  (3288) 
A0528a

>  <alias>  (3288) 
BEQNWKOKFDIKMV-UHFFFAOYSA-N-P15-P15-P308-601501

>  <HIPPO Pose ID>  (3288) 
502212

>  <name>  (3288) 
BEQNWKOKFDIKMV-UHFFFAOYSA-N-P15-P15-P308-601501

>  <HIPPO Compound ID>  (3288) 
292820

>  <ref_mols>  (3288) 
A4331a,A0514a

>  <distance_score>  (3288) 
1.513311

>  <inspiration_score>  (3288) 
None

$$$$
BEQNWKOKFDIKMV-UHFFFAOYSA-N-P308-P15-P308-601501
     RDKit          3D

 22 24  0  0  0  0  0  0  0  0999 V2000
    9.3466    8.4833   23.1786 C   0  0  0  0  0  0  0  0  0  0  0  0
    8.6912    9.3953   24.0576 O   0  0  0  0  0  0  0  0  0  0  0  0
    8.9396   10.6977   23.7868 C   0  0  0  0  0  0  0  0  0  0  0  0
    9.6764   11.0987   22.9026 O   0  0  0  0  0  0  0  0  0  0  0  0
    8.1942   11.5846   24.7068 C   0  0  0  0  0  0  0  0  0  0  0  0
    7.0776   11.0733   25.3925 C   0  0  0  0  0  0  0  0  0  0  0  0
    6.3172   11.9218   26.1845 C   0  0  0  0  0  0  0  0  0  0  0  0
    5.1538   11.4418   27.0108 C   0  0  0  0  0  0  0  0  0  0  0  0
    3.9510   12.3403   27.2017 C   0  0  0  0  0  0  0  0  0  0  0  0
    4.8960   12.1258   28.3411 C   0  0  0  0  0  0  0  0  0  0  0  0
    6.6295   13.2335   26.2834 N   0  0  0  0  0  0  0  0  0  0  0  0
    7.6914   13.7067   25.6077 C   0  0  0  0  0  0  0  0  0  0  0  0
    8.5428   12.9384   24.8311 C   0  0  0  0  0  0  0  0  0  0  0  0
    9.6642   13.5949   24.2554 N   0  0  0  0  0  0  0  0  0  0  0  0
   10.9222   12.9409   24.4303 N   0  0  0  0  0  0  0  0  0  0  0  0
    9.5055   14.1625   23.0035 C   0  0  0  0  0  0  0  0  0  0  0  0
    8.3862   14.2938   22.3144 N   0  0  0  0  0  0  0  0  0  0  0  0
    8.6788   14.8405   21.0911 N   0  0  0  0  0  0  0  0  0  0  0  0
    9.9744   15.0657   21.0375 C   0  0  0  0  0  0  0  0  0  0  0  0
   10.7305   15.5832   19.8757 C   0  0  0  0  0  0  0  0  0  0  0  0
   10.5283   14.7370   22.2498 N   0  0  0  0  0  0  0  0  0  0  0  0
   11.8955   15.0025   22.6657 N   0  0  0  0  0  0  0  0  0  0  0  0
  1  2  1  0
  2  3  1  0
  3  4  2  0
  3  5  1  0
  5  6  2  0
  6  7  1  0
  7  8  1  0
  8  9  1  0
  9 10  1  0
  7 11  2  0
 11 12  1  0
 12 13  2  0
 13 14  1  0
 14 15  1  0
 14 16  1  0
 16 17  2  0
 17 18  1  0
 18 19  2  0
 19 20  1  0
 19 21  1  0
 21 22  1  0
 13  5  1  0
 21 16  1  0
 10  8  1  0
M  END
>  <energy_score>  (3289) 
-54.311894

>  <inchikey>  (3289) 
BEQNWKOKFDIKMV-UHFFFAOYSA-N

>  <smiles>  (3289) 
COC(=O)c1cc(C2CC2)ncc1N(N)c1nnc(C)n1N

>  <ref_pdb>  (3289) 
A0528a

>  <alias>  (3289) 
BEQNWKOKFDIKMV-UHFFFAOYSA-N-P308-P15-P308-601501

>  <HIPPO Pose ID>  (3289) 
502213

>  <name>  (3289) 
BEQNWKOKFDIKMV-UHFFFAOYSA-N-P308-P15-P308-601501

>  <HIPPO Compound ID>  (3289) 
292820

>  <ref_mols>  (3289) 
A4331a,A0514a

>  <distance_score>  (3289) 
1.453342

>  <inspiration_score>  (3289) 
None

$$$$
ZXVRDBJCOJSLQR-UHFFFAOYSA-N-P15-P15-P308-601501
     RDKit          3D

 22 25  0  0  0  0  0  0  0  0999 V2000
    9.1367    8.3469   22.7937 C   0  0  0  0  0  0  0  0  0  0  0  0
    8.3552    9.2817   23.5305 O   0  0  0  0  0  0  0  0  0  0  0  0
    9.1218   10.3072   23.9602 C   0  0  0  0  0  0  0  0  0  0  0  0
   10.3248   10.3621   23.8172 O   0  0  0  0  0  0  0  0  0  0  0  0
    8.2859   11.3067   24.6558 C   0  0  0  0  0  0  0  0  0  0  0  0
    7.2483   10.7891   25.4595 C   0  0  0  0  0  0  0  0  0  0  0  0
    6.4262   11.6483   26.1713 C   0  0  0  0  0  0  0  0  0  0  0  0
    5.4130   11.1633   27.1722 C   0  0  0  0  0  0  0  0  0  0  0  0
    4.2185   12.0238   27.5253 C   0  0  0  0  0  0  0  0  0  0  0  0
    5.3432   11.8893   28.5031 C   0  0  0  0  0  0  0  0  0  0  0  0
    6.5786   12.9809   26.0540 N   0  0  0  0  0  0  0  0  0  0  0  0
    7.5226   13.4603   25.2220 C   0  0  0  0  0  0  0  0  0  0  0  0
    8.4513   12.6917   24.5284 C   0  0  0  0  0  0  0  0  0  0  0  0
    9.4380   13.3941   23.7793 N   0  0  0  0  0  0  0  0  0  0  0  0
    9.1168   14.5134   22.9954 C   0  0  0  0  0  0  0  0  0  0  0  0
    7.9769   14.9190   22.8062 O   0  0  0  0  0  0  0  0  0  0  0  0
   10.3554   15.0163   22.2172 C   0  0  0  0  0  0  0  0  0  0  0  0
   11.6904   15.0461   22.9914 C   0  0  0  0  0  0  0  0  0  0  0  0
   11.6986   13.9669   24.0584 C   0  0  0  0  0  0  0  0  0  0  0  0
   10.7621   12.9308   23.6316 N   0  0  0  0  0  0  0  0  0  0  0  0
   11.0089   12.6957   22.1842 C   0  0  0  0  0  0  0  0  0  0  0  0
   10.5525   13.8680   21.2896 C   0  0  0  0  0  0  0  0  0  0  0  0
  1  2  1  0
  2  3  1  0
  3  4  2  0
  3  5  1  0
  5  6  2  0
  6  7  1  0
  7  8  1  0
  8  9  1  0
  9 10  1  0
  7 11  2  0
 11 12  1  0
 12 13  2  0
 13 14  1  0
 14 15  1  0
 15 16  2  0
 15 17  1  0
 17 18  1  0
 18 19  1  0
 19 20  1  0
 20 21  1  0
 21 22  1  0
 13  5  1  0
 20 14  1  0
 10  8  1  0
 22 17  1  0
M  END
>  <energy_score>  (3290) 
-18.833894

>  <inchikey>  (3290) 
ZXVRDBJCOJSLQR-UHFFFAOYSA-N

>  <smiles>  (3290) 
COC(=O)c1cc(C2CC2)ncc1N1C(=O)C2CCN1CC2

>  <ref_pdb>  (3290) 
A0528a

>  <alias>  (3290) 
ZXVRDBJCOJSLQR-UHFFFAOYSA-N-P15-P15-P308-601501

>  <HIPPO Pose ID>  (3290) 
502214

>  <name>  (3290) 
ZXVRDBJCOJSLQR-UHFFFAOYSA-N-P15-P15-P308-601501

>  <HIPPO Compound ID>  (3290) 
292821

>  <ref_mols>  (3290) 
A4331a,A0514a

>  <distance_score>  (3290) 
1.820291

>  <inspiration_score>  (3290) 
None

$$$$
ZXVRDBJCOJSLQR-UHFFFAOYSA-N-P308-P15-P308-601501
     RDKit          3D

 22 25  0  0  0  0  0  0  0  0999 V2000
    9.7424    9.2720   24.3453 C   0  0  0  0  0  0  0  0  0  0  0  0
    9.2535   10.1024   23.2969 O   0  0  0  0  0  0  0  0  0  0  0  0
    8.6075   11.2533   23.5320 C   0  0  0  0  0  0  0  0  0  0  0  0
    8.1528   11.9621   22.6422 O   0  0  0  0  0  0  0  0  0  0  0  0
    8.2978   11.7710   24.8423 C   0  0  0  0  0  0  0  0  0  0  0  0
    7.2523   11.1252   25.5238 C   0  0  0  0  0  0  0  0  0  0  0  0
    6.4663   11.8774   26.3849 C   0  0  0  0  0  0  0  0  0  0  0  0
    5.2538   11.3312   27.0936 C   0  0  0  0  0  0  0  0  0  0  0  0
    4.0320   12.2157   27.2493 C   0  0  0  0  0  0  0  0  0  0  0  0
    4.8867   11.9277   28.4406 C   0  0  0  0  0  0  0  0  0  0  0  0
    6.7483   13.1835   26.6104 N   0  0  0  0  0  0  0  0  0  0  0  0
    7.7264   13.7827   25.9059 C   0  0  0  0  0  0  0  0  0  0  0  0
    8.5536   13.1351   25.0119 C   0  0  0  0  0  0  0  0  0  0  0  0
    9.3100   13.9315   24.1074 N   0  0  0  0  0  0  0  0  0  0  0  0
    8.6348   14.8758   23.3032 C   0  0  0  0  0  0  0  0  0  0  0  0
    7.4237   15.0348   23.2417 O   0  0  0  0  0  0  0  0  0  0  0  0
    9.6344   15.6404   22.4643 C   0  0  0  0  0  0  0  0  0  0  0  0
   10.7439   16.1085   23.4175 C   0  0  0  0  0  0  0  0  0  0  0  0
   11.4473   14.9174   24.0788 C   0  0  0  0  0  0  0  0  0  0  0  0
   10.7045   13.6757   23.7741 N   0  0  0  0  0  0  0  0  0  0  0  0
   10.8378   13.4899   22.2899 C   0  0  0  0  0  0  0  0  0  0  0  0
   10.2047   14.6317   21.4853 C   0  0  0  0  0  0  0  0  0  0  0  0
  1  2  1  0
  2  3  1  0
  3  4  2  0
  3  5  1  0
  5  6  2  0
  6  7  1  0
  7  8  1  0
  8  9  1  0
  9 10  1  0
  7 11  2  0
 11 12  1  0
 12 13  2  0
 13 14  1  0
 14 15  1  0
 15 16  2  0
 15 17  1  0
 17 18  1  0
 18 19  1  0
 19 20  1  0
 20 21  1  0
 21 22  1  0
 13  5  1  0
 20 14  1  0
 10  8  1  0
 22 17  1  0
M  END
>  <energy_score>  (3291) 
-5.966174

>  <inchikey>  (3291) 
ZXVRDBJCOJSLQR-UHFFFAOYSA-N

>  <smiles>  (3291) 
COC(=O)c1cc(C2CC2)ncc1N1C(=O)C2CCN1CC2

>  <ref_pdb>  (3291) 
A0528a

>  <alias>  (3291) 
ZXVRDBJCOJSLQR-UHFFFAOYSA-N-P308-P15-P308-601501

>  <HIPPO Pose ID>  (3291) 
502215

>  <name>  (3291) 
ZXVRDBJCOJSLQR-UHFFFAOYSA-N-P308-P15-P308-601501

>  <HIPPO Compound ID>  (3291) 
292821

>  <ref_mols>  (3291) 
A4331a,A0514a

>  <distance_score>  (3291) 
1.725261

>  <inspiration_score>  (3291) 
None

$$$$
HPHAZDHAPVIKGR-UHFFFAOYSA-N-P308-P15-P308-601501
     RDKit          3D

 22 25  0  0  0  0  0  0  0  0999 V2000
    9.6099    8.5121   23.4770 C   0  0  0  0  0  0  0  0  0  0  0  0
    8.8948    9.4253   24.3040 O   0  0  0  0  0  0  0  0  0  0  0  0
    8.9451   10.6919   23.8281 C   0  0  0  0  0  0  0  0  0  0  0  0
    9.5306   11.0448   22.8229 O   0  0  0  0  0  0  0  0  0  0  0  0
    8.1919   11.6028   24.7129 C   0  0  0  0  0  0  0  0  0  0  0  0
    7.0997   11.0972   25.4335 C   0  0  0  0  0  0  0  0  0  0  0  0
    6.3675   11.9595   26.2313 C   0  0  0  0  0  0  0  0  0  0  0  0
    5.1949   11.5047   27.0578 C   0  0  0  0  0  0  0  0  0  0  0  0
    3.9810   12.3984   27.1822 C   0  0  0  0  0  0  0  0  0  0  0  0
    4.9013   12.2403   28.3516 C   0  0  0  0  0  0  0  0  0  0  0  0
    6.7140   13.2649   26.3257 N   0  0  0  0  0  0  0  0  0  0  0  0
    7.7521   13.7352   25.6135 C   0  0  0  0  0  0  0  0  0  0  0  0
    8.5448   12.9615   24.7860 C   0  0  0  0  0  0  0  0  0  0  0  0
    9.5633   13.5277   23.9996 N   0  0  0  0  0  0  0  0  0  0  0  0
   10.6221   14.2744   24.7019 C   0  0  0  0  0  0  0  0  0  0  0  0
   11.8000   14.5095   23.7533 C   0  0  0  0  0  0  0  0  0  0  0  0
   11.3777   15.4119   22.6017 C   0  0  0  0  0  0  0  0  0  0  0  0
   10.0438   15.0283   22.0963 C   0  0  0  0  0  0  0  0  0  0  0  0
    9.4332   15.4517   21.0156 N   0  0  0  0  0  0  0  0  0  0  0  0
    8.1794   14.9004   21.0137 N   0  0  0  0  0  0  0  0  0  0  0  0
    8.0450   14.1847   22.1059 C   0  0  0  0  0  0  0  0  0  0  0  0
    9.2167   14.1905   22.8023 N   0  0  0  0  0  0  0  0  0  0  0  0
  1  2  1  0
  2  3  1  0
  3  4  2  0
  3  5  1  0
  5  6  2  0
  6  7  1  0
  7  8  1  0
  8  9  1  0
  9 10  1  0
  7 11  2  0
 11 12  1  0
 12 13  2  0
 13 14  1  0
 14 15  1  0
 15 16  1  0
 16 17  1  0
 17 18  1  0
 18 19  2  0
 19 20  1  0
 20 21  2  0
 21 22  1  0
 13  5  1  0
 22 14  1  0
 10  8  1  0
 22 18  1  0
M  END
>  <energy_score>  (3292) 
-28.223251

>  <inchikey>  (3292) 
HPHAZDHAPVIKGR-UHFFFAOYSA-N

>  <smiles>  (3292) 
COC(=O)c1cc(C2CC2)ncc1N1CCCc2nncn21

>  <ref_pdb>  (3292) 
A0528a

>  <alias>  (3292) 
HPHAZDHAPVIKGR-UHFFFAOYSA-N-P308-P15-P308-601501

>  <HIPPO Pose ID>  (3292) 
502219

>  <name>  (3292) 
HPHAZDHAPVIKGR-UHFFFAOYSA-N-P308-P15-P308-601501

>  <HIPPO Compound ID>  (3292) 
292823

>  <ref_mols>  (3292) 
A4331a,A0514a

>  <distance_score>  (3292) 
1.809002

>  <inspiration_score>  (3292) 
None

$$$$
BBXMKBQRKZHMKJ-UHFFFAOYSA-N-P15-P15-P308-601501
     RDKit          3D

 22 24  0  0  0  0  0  0  0  0999 V2000
    9.3555    8.7322   23.0289 C   0  0  0  0  0  0  0  0  0  0  0  0
    8.4912    9.6097   23.7528 O   0  0  0  0  0  0  0  0  0  0  0  0
    8.9968   10.8559   23.8907 C   0  0  0  0  0  0  0  0  0  0  0  0
   10.1042   11.2250   23.5443 O   0  0  0  0  0  0  0  0  0  0  0  0
    8.0638   11.7292   24.6195 C   0  0  0  0  0  0  0  0  0  0  0  0
    7.2783   11.1892   25.6374 C   0  0  0  0  0  0  0  0  0  0  0  0
    6.4888   12.0266   26.4155 C   0  0  0  0  0  0  0  0  0  0  0  0
    5.6085   11.4885   27.5109 C   0  0  0  0  0  0  0  0  0  0  0  0
    4.2318   12.0773   27.7135 C   0  0  0  0  0  0  0  0  0  0  0  0
    5.3173   12.3722   28.7048 C   0  0  0  0  0  0  0  0  0  0  0  0
    6.4998   13.3598   26.2260 N   0  0  0  0  0  0  0  0  0  0  0  0
    7.1770   13.8382   25.1731 C   0  0  0  0  0  0  0  0  0  0  0  0
    7.9767   13.0874   24.3250 C   0  0  0  0  0  0  0  0  0  0  0  0
    8.4308   13.6622   23.1287 N   0  0  0  0  0  0  0  0  0  0  0  0
    7.3980   13.9286   22.2099 N   0  0  0  0  0  0  0  0  0  0  0  0
    9.7231   14.0679   22.7211 C   0  0  0  0  0  0  0  0  0  0  0  0
   10.8232   14.0762   23.5721 C   0  0  0  0  0  0  0  0  0  0  0  0
   12.0533   14.5062   23.2045 N   0  0  0  0  0  0  0  0  0  0  0  0
   12.1581   14.8758   21.9016 C   0  0  0  0  0  0  0  0  0  0  0  0
   11.0894   14.8429   21.0167 C   0  0  0  0  0  0  0  0  0  0  0  0
   11.2726   15.1212   19.5605 C   0  0  0  0  0  0  0  0  0  0  0  0
    9.8514   14.4891   21.4332 N   0  0  0  0  0  0  0  0  0  0  0  0
  1  2  1  0
  2  3  1  0
  3  4  2  0
  3  5  1  0
  5  6  2  0
  6  7  1  0
  7  8  1  0
  8  9  1  0
  9 10  1  0
  7 11  2  0
 11 12  1  0
 12 13  2  0
 13 14  1  0
 14 15  1  0
 14 16  1  0
 16 17  2  0
 17 18  1  0
 18 19  2  0
 19 20  1  0
 20 21  1  0
 20 22  2  0
 13  5  1  0
 22 16  1  0
 10  8  1  0
M  END
>  <energy_score>  (3293) 
-30.98176

>  <inchikey>  (3293) 
BBXMKBQRKZHMKJ-UHFFFAOYSA-N

>  <smiles>  (3293) 
COC(=O)c1cc(C2CC2)ncc1N(N)c1cncc(C)n1

>  <ref_pdb>  (3293) 
A0528a

>  <alias>  (3293) 
BBXMKBQRKZHMKJ-UHFFFAOYSA-N-P15-P15-P308-601501

>  <HIPPO Pose ID>  (3293) 
502220

>  <name>  (3293) 
BBXMKBQRKZHMKJ-UHFFFAOYSA-N-P15-P15-P308-601501

>  <HIPPO Compound ID>  (3293) 
292824

>  <ref_mols>  (3293) 
A4331a,A0514a

>  <distance_score>  (3293) 
1.820342

>  <inspiration_score>  (3293) 
None

$$$$
UEGXHUSOYPPUHT-UHFFFAOYSA-N-P15-P15-P308-601501
     RDKit          3D

 23 25  0  0  0  0  0  0  0  0999 V2000
    9.3709    8.4781   22.9728 C   0  0  0  0  0  0  0  0  0  0  0  0
    8.4691    9.2013   23.8074 O   0  0  0  0  0  0  0  0  0  0  0  0
    8.8728   10.4645   24.0412 C   0  0  0  0  0  0  0  0  0  0  0  0
    9.9260   10.9681   23.6845 O   0  0  0  0  0  0  0  0  0  0  0  0
    7.8218   11.1967   24.7784 C   0  0  0  0  0  0  0  0  0  0  0  0
    6.9350   10.5459   25.6335 C   0  0  0  0  0  0  0  0  0  0  0  0
    6.0204   11.3070   26.3536 C   0  0  0  0  0  0  0  0  0  0  0  0
    5.2185   10.7373   27.4876 C   0  0  0  0  0  0  0  0  0  0  0  0
    4.0171   11.4821   28.0278 C   0  0  0  0  0  0  0  0  0  0  0  0
    5.2930   11.4756   28.8115 C   0  0  0  0  0  0  0  0  0  0  0  0
    5.8861   12.6366   26.1403 N   0  0  0  0  0  0  0  0  0  0  0  0
    6.6928   13.2379   25.2556 C   0  0  0  0  0  0  0  0  0  0  0  0
    7.7382   12.5833   24.6240 C   0  0  0  0  0  0  0  0  0  0  0  0
    8.5620   13.2560   23.6595 N   0  0  0  0  0  0  0  0  0  0  0  0
    9.3958   13.5534   24.9900 N   0  0  0  0  0  0  0  0  0  0  0  0
    8.3203   14.5175   22.8698 C   0  0  0  0  0  0  0  0  0  0  0  0
    7.4323   15.2877   22.9192 O   0  0  0  0  0  0  0  0  0  0  0  0
    9.4360   14.7027   21.9538 C   0  0  0  0  0  0  0  0  0  0  0  0
    9.3159   15.2736   20.7825 N   0  0  0  0  0  0  0  0  0  0  0  0
   10.5804   15.3808   20.2297 C   0  0  0  0  0  0  0  0  0  0  0  0
   10.6825   15.8782   18.8436 C   0  0  0  0  0  0  0  0  0  0  0  0
   11.6521   15.0109   20.9400 N   0  0  0  0  0  0  0  0  0  0  0  0
   11.0668   14.3360   22.3378 S   0  0  0  0  0  0  0  0  0  0  0  0
  1  2  1  0
  2  3  1  0
  3  4  2  0
  3  5  1  0
  5  6  2  0
  6  7  1  0
  7  8  1  0
  8  9  1  0
  9 10  1  0
  7 11  2  0
 11 12  1  0
 12 13  2  0
 13 14  1  0
 14 15  1  0
 14 16  1  0
 16 17  2  0
 16 18  1  0
 18 19  2  0
 19 20  1  0
 20 21  1  0
 20 22  2  0
 22 23  1  0
 13  5  1  0
 23 18  1  0
 10  8  1  0
M  END
>  <energy_score>  (3294) 
-5.938816

>  <inchikey>  (3294) 
UEGXHUSOYPPUHT-UHFFFAOYSA-N

>  <smiles>  (3294) 
COC(=O)c1cc(C2CC2)ncc1N(N)C(=O)c1nc(C)ns1

>  <ref_pdb>  (3294) 
A0528a

>  <alias>  (3294) 
UEGXHUSOYPPUHT-UHFFFAOYSA-N-P15-P15-P308-601501

>  <HIPPO Pose ID>  (3294) 
502226

>  <name>  (3294) 
UEGXHUSOYPPUHT-UHFFFAOYSA-N-P15-P15-P308-601501

>  <HIPPO Compound ID>  (3294) 
292827

>  <ref_mols>  (3294) 
A4331a,A0514a

>  <distance_score>  (3294) 
1.783868

>  <inspiration_score>  (3294) 
None

$$$$
UEGXHUSOYPPUHT-UHFFFAOYSA-N-P308-P15-P308-601501
     RDKit          3D

 23 25  0  0  0  0  0  0  0  0999 V2000
    9.5177    8.7561   23.2089 C   0  0  0  0  0  0  0  0  0  0  0  0
    8.5754    9.6120   23.8512 O   0  0  0  0  0  0  0  0  0  0  0  0
    9.1156   10.7188   24.4086 C   0  0  0  0  0  0  0  0  0  0  0  0
   10.2981   11.0203   24.4648 O   0  0  0  0  0  0  0  0  0  0  0  0
    8.0127   11.5311   24.9658 C   0  0  0  0  0  0  0  0  0  0  0  0
    6.9923   10.8861   25.6765 C   0  0  0  0  0  0  0  0  0  0  0  0
    6.0039   11.6529   26.2799 C   0  0  0  0  0  0  0  0  0  0  0  0
    5.0043   11.0821   27.2474 C   0  0  0  0  0  0  0  0  0  0  0  0
    3.7534   11.8575   27.6055 C   0  0  0  0  0  0  0  0  0  0  0  0
    4.8763   11.7854   28.5890 C   0  0  0  0  0  0  0  0  0  0  0  0
    5.9663   12.9927   26.1121 N   0  0  0  0  0  0  0  0  0  0  0  0
    6.9211   13.5931   25.3862 C   0  0  0  0  0  0  0  0  0  0  0  0
    8.0112   12.9311   24.8461 C   0  0  0  0  0  0  0  0  0  0  0  0
    8.9153   13.6626   23.9811 N   0  0  0  0  0  0  0  0  0  0  0  0
    9.7984   13.5957   25.3071 N   0  0  0  0  0  0  0  0  0  0  0  0
    8.8363   15.0900   23.4374 C   0  0  0  0  0  0  0  0  0  0  0  0
    8.0594   15.9509   23.6622 O   0  0  0  0  0  0  0  0  0  0  0  0
    9.8737   15.2368   22.4487 C   0  0  0  0  0  0  0  0  0  0  0  0
    9.6884   15.2871   21.1492 N   0  0  0  0  0  0  0  0  0  0  0  0
   10.9455   15.4047   20.5610 C   0  0  0  0  0  0  0  0  0  0  0  0
   11.0593   15.5042   19.0878 C   0  0  0  0  0  0  0  0  0  0  0  0
   12.0340   15.4382   21.3414 N   0  0  0  0  0  0  0  0  0  0  0  0
   11.5058   15.3289   22.9080 S   0  0  0  0  0  0  0  0  0  0  0  0
  1  2  1  0
  2  3  1  0
  3  4  2  0
  3  5  1  0
  5  6  2  0
  6  7  1  0
  7  8  1  0
  8  9  1  0
  9 10  1  0
  7 11  2  0
 11 12  1  0
 12 13  2  0
 13 14  1  0
 14 15  1  0
 14 16  1  0
 16 17  2  0
 16 18  1  0
 18 19  2  0
 19 20  1  0
 20 21  1  0
 20 22  2  0
 22 23  1  0
 13  5  1  0
 23 18  1  0
 10  8  1  0
M  END
>  <energy_score>  (3295) 
-6.917325

>  <inchikey>  (3295) 
UEGXHUSOYPPUHT-UHFFFAOYSA-N

>  <smiles>  (3295) 
COC(=O)c1cc(C2CC2)ncc1N(N)C(=O)c1nc(C)ns1

>  <ref_pdb>  (3295) 
A0528a

>  <alias>  (3295) 
UEGXHUSOYPPUHT-UHFFFAOYSA-N-P308-P15-P308-601501

>  <HIPPO Pose ID>  (3295) 
502227

>  <name>  (3295) 
UEGXHUSOYPPUHT-UHFFFAOYSA-N-P308-P15-P308-601501

>  <HIPPO Compound ID>  (3295) 
292827

>  <ref_mols>  (3295) 
A4331a,A0514a

>  <distance_score>  (3295) 
1.787166

>  <inspiration_score>  (3295) 
None

$$$$
ADHYBGUOMJVEIS-UHFFFAOYSA-N-P15-P15-P308-601501
     RDKit          3D

 23 24  0  0  0  0  0  0  0  0999 V2000
    9.2624    8.5488   22.9667 C   0  0  0  0  0  0  0  0  0  0  0  0
    8.4744    9.4467   23.7481 O   0  0  0  0  0  0  0  0  0  0  0  0
    9.0856   10.6364   23.9410 C   0  0  0  0  0  0  0  0  0  0  0  0
   10.2146   10.9130   23.5731 O   0  0  0  0  0  0  0  0  0  0  0  0
    8.2272   11.5589   24.7237 C   0  0  0  0  0  0  0  0  0  0  0  0
    7.1196   11.0842   25.4378 C   0  0  0  0  0  0  0  0  0  0  0  0
    6.4070   11.9829   26.2301 C   0  0  0  0  0  0  0  0  0  0  0  0
    5.2957   11.5259   27.1373 C   0  0  0  0  0  0  0  0  0  0  0  0
    4.9145   10.2490   26.9003 F   0  0  0  0  0  0  0  0  0  0  0  0
    5.6674   11.5444   28.4518 F   0  0  0  0  0  0  0  0  0  0  0  0
    4.1553   12.2651   27.0534 F   0  0  0  0  0  0  0  0  0  0  0  0
    6.7392   13.2955   26.3084 N   0  0  0  0  0  0  0  0  0  0  0  0
    7.7678   13.7347   25.5656 C   0  0  0  0  0  0  0  0  0  0  0  0
    8.5884   12.9126   24.8066 C   0  0  0  0  0  0  0  0  0  0  0  0
    9.7232   13.4397   24.1407 N   0  0  0  0  0  0  0  0  0  0  0  0
   10.7340   14.0355   24.9370 N   0  0  0  0  0  0  0  0  0  0  0  0
    9.5271   14.0149   22.9121 C   0  0  0  0  0  0  0  0  0  0  0  0
    8.3685   14.1028   22.2886 N   0  0  0  0  0  0  0  0  0  0  0  0
    8.5533   14.7487   21.1070 N   0  0  0  0  0  0  0  0  0  0  0  0
    9.8341   15.0150   20.9749 C   0  0  0  0  0  0  0  0  0  0  0  0
   10.4393   15.7255   19.8261 C   0  0  0  0  0  0  0  0  0  0  0  0
   10.5003   14.5358   22.0772 N   0  0  0  0  0  0  0  0  0  0  0  0
   11.9233   14.5366   22.2677 C   0  0  0  0  0  0  0  0  0  0  0  0
  1  2  1  0
  2  3  1  0
  3  4  2  0
  3  5  1  0
  5  6  2  0
  6  7  1  0
  7  8  1  0
  8  9  1  0
  8 10  1  0
  8 11  1  0
  7 12  2  0
 12 13  1  0
 13 14  2  0
 14 15  1  0
 15 16  1  0
 15 17  1  0
 17 18  2  0
 18 19  1  0
 19 20  2  0
 20 21  1  0
 20 22  1  0
 22 23  1  0
 14  5  1  0
 22 17  1  0
M  END
>  <energy_score>  (3296) 
-52.460091

>  <inchikey>  (3296) 
ADHYBGUOMJVEIS-UHFFFAOYSA-N

>  <smiles>  (3296) 
COC(=O)c1cc(C(F)(F)F)ncc1N(N)c1nnc(C)n1C

>  <ref_pdb>  (3296) 
A0528a

>  <alias>  (3296) 
ADHYBGUOMJVEIS-UHFFFAOYSA-N-P15-P15-P308-601501

>  <HIPPO Pose ID>  (3296) 
502228

>  <name>  (3296) 
ADHYBGUOMJVEIS-UHFFFAOYSA-N-P15-P15-P308-601501

>  <HIPPO Compound ID>  (3296) 
292828

>  <ref_mols>  (3296) 
A4331a,A0514a

>  <distance_score>  (3296) 
1.281661

>  <inspiration_score>  (3296) 
None

$$$$
ADHYBGUOMJVEIS-UHFFFAOYSA-N-P308-P15-P308-601501
     RDKit          3D

 23 24  0  0  0  0  0  0  0  0999 V2000
    9.6227    8.7547   23.0983 C   0  0  0  0  0  0  0  0  0  0  0  0
    8.7901    9.7297   23.7125 O   0  0  0  0  0  0  0  0  0  0  0  0
    9.4405   10.6766   24.4255 C   0  0  0  0  0  0  0  0  0  0  0  0
   10.6382   10.7613   24.6385 O   0  0  0  0  0  0  0  0  0  0  0  0
    8.4157   11.5839   24.9718 C   0  0  0  0  0  0  0  0  0  0  0  0
    7.2711   11.0136   25.5486 C   0  0  0  0  0  0  0  0  0  0  0  0
    6.3491   11.8511   26.1603 C   0  0  0  0  0  0  0  0  0  0  0  0
    5.1624   11.2915   26.8990 C   0  0  0  0  0  0  0  0  0  0  0  0
    4.0135   11.9825   26.6829 F   0  0  0  0  0  0  0  0  0  0  0  0
    4.9007    9.9925   26.5766 F   0  0  0  0  0  0  0  0  0  0  0  0
    5.3275   11.2951   28.2535 F   0  0  0  0  0  0  0  0  0  0  0  0
    6.5199   13.1954   26.1913 N   0  0  0  0  0  0  0  0  0  0  0  0
    7.5992   13.7143   25.5732 C   0  0  0  0  0  0  0  0  0  0  0  0
    8.6102   12.9683   24.9774 C   0  0  0  0  0  0  0  0  0  0  0  0
    9.7376   13.5936   24.3736 N   0  0  0  0  0  0  0  0  0  0  0  0
   10.4250   14.5360   25.1924 N   0  0  0  0  0  0  0  0  0  0  0  0
    9.5626   14.0725   23.0904 C   0  0  0  0  0  0  0  0  0  0  0  0
    8.4680   13.9915   22.3581 N   0  0  0  0  0  0  0  0  0  0  0  0
    8.7044   14.5699   21.1422 N   0  0  0  0  0  0  0  0  0  0  0  0
    9.9608   14.9586   21.1056 C   0  0  0  0  0  0  0  0  0  0  0  0
   10.6527   15.5738   19.9460 C   0  0  0  0  0  0  0  0  0  0  0  0
   10.5373   14.6903   22.3241 N   0  0  0  0  0  0  0  0  0  0  0  0
   11.8932   14.9814   22.7016 C   0  0  0  0  0  0  0  0  0  0  0  0
  1  2  1  0
  2  3  1  0
  3  4  2  0
  3  5  1  0
  5  6  2  0
  6  7  1  0
  7  8  1  0
  8  9  1  0
  8 10  1  0
  8 11  1  0
  7 12  2  0
 12 13  1  0
 13 14  2  0
 14 15  1  0
 15 16  1  0
 15 17  1  0
 17 18  2  0
 18 19  1  0
 19 20  2  0
 20 21  1  0
 20 22  1  0
 22 23  1  0
 14  5  1  0
 22 17  1  0
M  END
>  <energy_score>  (3297) 
-56.52143

>  <inchikey>  (3297) 
ADHYBGUOMJVEIS-UHFFFAOYSA-N

>  <smiles>  (3297) 
COC(=O)c1cc(C(F)(F)F)ncc1N(N)c1nnc(C)n1C

>  <ref_pdb>  (3297) 
A0528a

>  <alias>  (3297) 
ADHYBGUOMJVEIS-UHFFFAOYSA-N-P308-P15-P308-601501

>  <HIPPO Pose ID>  (3297) 
502229

>  <name>  (3297) 
ADHYBGUOMJVEIS-UHFFFAOYSA-N-P308-P15-P308-601501

>  <HIPPO Compound ID>  (3297) 
292828

>  <ref_mols>  (3297) 
A4331a,A0514a

>  <distance_score>  (3297) 
1.138558

>  <inspiration_score>  (3297) 
None

$$$$
IJXGAGAXHTTYGC-UHFFFAOYSA-N-P15-P15-P308-601501
     RDKit          3D

 23 23  0  0  0  0  0  0  0  0999 V2000
   12.1754   14.8257   20.5441 C   0  0  0  0  0  0  0  0  0  0  0  0
   10.7859   15.4231   20.4097 C   0  0  0  0  0  0  0  0  0  0  0  0
    9.7879   14.6567   21.0898 O   0  0  0  0  0  0  0  0  0  0  0  0
   10.0021   14.4836   22.4187 C   0  0  0  0  0  0  0  0  0  0  0  0
   11.0165   14.8213   23.0253 O   0  0  0  0  0  0  0  0  0  0  0  0
    8.8209   13.7474   23.0493 C   0  0  2  0  0  0  0  0  0  0  0  0
    7.5042   14.4516   22.7304 C   0  0  0  0  0  0  0  0  0  0  0  0
    8.9996   13.5868   24.5360 N   0  0  0  0  0  0  0  0  0  0  0  0
   10.3199   13.3192   25.0352 N   0  0  0  0  0  0  0  0  0  0  0  0
    8.0315   12.7266   25.1034 C   0  0  0  0  0  0  0  0  0  0  0  0
    7.1187   13.3240   25.9672 C   0  0  0  0  0  0  0  0  0  0  0  0
    6.1846   12.6631   26.6634 N   0  0  0  0  0  0  0  0  0  0  0  0
    6.0964   11.3240   26.4846 C   0  0  0  0  0  0  0  0  0  0  0  0
    5.1302   10.5986   27.3790 C   0  0  0  0  0  0  0  0  0  0  0  0
    4.0584   11.3679   27.7178 F   0  0  0  0  0  0  0  0  0  0  0  0
    4.6182    9.4712   26.8194 F   0  0  0  0  0  0  0  0  0  0  0  0
    5.7039   10.2060   28.5530 F   0  0  0  0  0  0  0  0  0  0  0  0
    6.9281   10.6300   25.6123 C   0  0  0  0  0  0  0  0  0  0  0  0
    7.9242   11.3341   24.9215 C   0  0  0  0  0  0  0  0  0  0  0  0
    8.8902   10.5804   24.0674 C   0  0  0  0  0  0  0  0  0  0  0  0
    9.9379   11.0310   23.6343 O   0  0  0  0  0  0  0  0  0  0  0  0
    8.4448    9.3244   23.8377 O   0  0  0  0  0  0  0  0  0  0  0  0
    9.3140    8.5570   23.0025 C   0  0  0  0  0  0  0  0  0  0  0  0
  1  2  1  0
  2  3  1  0
  3  4  1  0
  4  5  2  0
  4  6  1  0
  6  7  1  1
  6  8  1  0
  8  9  1  0
  8 10  1  0
 10 11  2  0
 11 12  1  0
 12 13  2  0
 13 14  1  0
 14 15  1  0
 14 16  1  0
 14 17  1  0
 13 18  1  0
 18 19  2  0
 19 20  1  0
 20 21  2  0
 20 22  1  0
 22 23  1  0
 19 10  1  0
M  END
>  <energy_score>  (3298) 
-34.501883

>  <inchikey>  (3298) 
IJXGAGAXHTTYGC-UHFFFAOYSA-N

>  <smiles>  (3298) 
CCOC(=O)C(C)N(N)c1cnc(C(F)(F)F)cc1C(=O)OC

>  <ref_pdb>  (3298) 
A0528a

>  <alias>  (3298) 
IJXGAGAXHTTYGC-UHFFFAOYSA-N-P15-P15-P308-601501

>  <HIPPO Pose ID>  (3298) 
502230

>  <name>  (3298) 
IJXGAGAXHTTYGC-UHFFFAOYSA-N-P15-P15-P308-601501

>  <HIPPO Compound ID>  (3298) 
292829

>  <ref_mols>  (3298) 
A4331a,A0514a

>  <distance_score>  (3298) 
1.364083

>  <inspiration_score>  (3298) 
None

$$$$
IJXGAGAXHTTYGC-UHFFFAOYSA-N-P308-P15-P308-601501
     RDKit          3D

 23 23  0  0  0  0  0  0  0  0999 V2000
   11.6901   15.9636   21.4880 C   0  0  0  0  0  0  0  0  0  0  0  0
   10.3209   15.8634   20.8391 C   0  0  0  0  0  0  0  0  0  0  0  0
    9.3450   16.6064   21.6025 O   0  0  0  0  0  0  0  0  0  0  0  0
    8.6171   16.1306   22.6380 C   0  0  0  0  0  0  0  0  0  0  0  0
    7.7758   16.8466   23.1883 O   0  0  0  0  0  0  0  0  0  0  0  0
    8.8556   14.6920   23.1055 C   0  0  2  0  0  0  0  0  0  0  0  0
    7.7869   13.8445   22.4179 C   0  0  0  0  0  0  0  0  0  0  0  0
    8.8555   14.5820   24.6146 N   0  0  0  0  0  0  0  0  0  0  0  0
    9.1252   15.7178   25.4235 N   0  0  0  0  0  0  0  0  0  0  0  0
    8.0372   13.6110   25.2091 C   0  0  0  0  0  0  0  0  0  0  0  0
    6.8074   13.9405   25.7515 C   0  0  0  0  0  0  0  0  0  0  0  0
    5.9464   13.0487   26.2668 N   0  0  0  0  0  0  0  0  0  0  0  0
    6.2613   11.7294   26.2072 C   0  0  0  0  0  0  0  0  0  0  0  0
    5.2166   10.7948   26.7534 C   0  0  0  0  0  0  0  0  0  0  0  0
    4.0058   11.4050   26.8780 F   0  0  0  0  0  0  0  0  0  0  0  0
    5.0473    9.6923   25.9741 F   0  0  0  0  0  0  0  0  0  0  0  0
    5.4645   10.3120   27.9991 F   0  0  0  0  0  0  0  0  0  0  0  0
    7.4789   11.2853   25.6991 C   0  0  0  0  0  0  0  0  0  0  0  0
    8.3922   12.2574   25.2697 C   0  0  0  0  0  0  0  0  0  0  0  0
    9.7830   11.8718   24.9544 C   0  0  0  0  0  0  0  0  0  0  0  0
   10.1117   10.9115   24.2842 O   0  0  0  0  0  0  0  0  0  0  0  0
   10.6125   12.7228   25.6103 O   0  0  0  0  0  0  0  0  0  0  0  0
   11.9841   12.7075   25.2336 C   0  0  0  0  0  0  0  0  0  0  0  0
  1  2  1  0
  2  3  1  0
  3  4  1  0
  4  5  2  0
  4  6  1  0
  6  7  1  6
  6  8  1  0
  8  9  1  0
  8 10  1  0
 10 11  2  0
 11 12  1  0
 12 13  2  0
 13 14  1  0
 14 15  1  0
 14 16  1  0
 14 17  1  0
 13 18  1  0
 18 19  2  0
 19 20  1  0
 20 21  2  0
 20 22  1  0
 22 23  1  0
 19 10  1  0
M  END
>  <energy_score>  (3299) 
-20.949137

>  <inchikey>  (3299) 
IJXGAGAXHTTYGC-UHFFFAOYSA-N

>  <smiles>  (3299) 
CCOC(=O)C(C)N(N)c1cnc(C(F)(F)F)cc1C(=O)OC

>  <ref_pdb>  (3299) 
A0528a

>  <alias>  (3299) 
IJXGAGAXHTTYGC-UHFFFAOYSA-N-P308-P15-P308-601501

>  <HIPPO Pose ID>  (3299) 
502231

>  <name>  (3299) 
IJXGAGAXHTTYGC-UHFFFAOYSA-N-P308-P15-P308-601501

>  <HIPPO Compound ID>  (3299) 
292829

>  <ref_mols>  (3299) 
A4331a,A0514a

>  <distance_score>  (3299) 
1.519934

>  <inspiration_score>  (3299) 
None

$$$$
RNMSNPBHOCLOAE-UHFFFAOYSA-N-P15-P15-P308-601501
     RDKit          3D

 23 25  0  0  0  0  0  0  0  0999 V2000
    9.8304    8.0500   23.3540 C   0  0  0  0  0  0  0  0  0  0  0  0
    8.8516    8.6892   24.1490 O   0  0  0  0  0  0  0  0  0  0  0  0
    8.7326    9.9511   23.7125 C   0  0  0  0  0  0  0  0  0  0  0  0
    9.3431   10.4064   22.7619 O   0  0  0  0  0  0  0  0  0  0  0  0
    7.8315   10.7258   24.5805 C   0  0  0  0  0  0  0  0  0  0  0  0
    6.9713   10.0978   25.5029 C   0  0  0  0  0  0  0  0  0  0  0  0
    6.1129   10.8616   26.2849 C   0  0  0  0  0  0  0  0  0  0  0  0
    5.2245   10.3187   27.3693 C   0  0  0  0  0  0  0  0  0  0  0  0
    4.3488   11.2598   27.8373 F   0  0  0  0  0  0  0  0  0  0  0  0
    4.4507    9.2763   26.9718 F   0  0  0  0  0  0  0  0  0  0  0  0
    5.9149    9.8996   28.4673 F   0  0  0  0  0  0  0  0  0  0  0  0
    6.0317   12.1836   26.1147 N   0  0  0  0  0  0  0  0  0  0  0  0
    6.7692   12.7330   25.1464 C   0  0  0  0  0  0  0  0  0  0  0  0
    7.7795   12.0997   24.3986 C   0  0  0  0  0  0  0  0  0  0  0  0
    8.5870   12.8211   23.4699 N   0  0  0  0  0  0  0  0  0  0  0  0
   10.0708   12.8464   23.6907 C   0  0  0  0  0  0  0  0  0  0  0  0
   10.5219   13.9443   24.6823 C   0  0  0  0  0  0  0  0  0  0  0  0
    9.3302   14.6723   25.3257 C   0  0  0  0  0  0  0  0  0  0  0  0
    8.3679   15.0150   24.2418 C   0  0  0  0  0  0  0  0  0  0  0  0
    7.5141   15.9916   24.0930 N   0  0  0  0  0  0  0  0  0  0  0  0
    6.9625   15.7873   22.8431 C   0  0  0  0  0  0  0  0  0  0  0  0
    7.3852   14.6012   22.2971 C   0  0  0  0  0  0  0  0  0  0  0  0
    8.2050   14.1044   23.2438 N   0  0  0  0  0  0  0  0  0  0  0  0
  1  2  1  0
  2  3  1  0
  3  4  2  0
  3  5  1  0
  5  6  2  0
  6  7  1  0
  7  8  1  0
  8  9  1  0
  8 10  1  0
  8 11  1  0
  7 12  2  0
 12 13  1  0
 13 14  2  0
 14 15  1  0
 15 16  1  0
 16 17  1  0
 17 18  1  0
 18 19  1  0
 19 20  2  0
 20 21  1  0
 21 22  2  0
 22 23  1  0
 14  5  1  0
 23 15  1  0
 23 19  1  0
M  END
>  <energy_score>  (3300) 
-3.755225

>  <inchikey>  (3300) 
RNMSNPBHOCLOAE-UHFFFAOYSA-N

>  <smiles>  (3300) 
COC(=O)c1cc(C(F)(F)F)ncc1N1CCCc2nccn21

>  <ref_pdb>  (3300) 
A0528a

>  <alias>  (3300) 
RNMSNPBHOCLOAE-UHFFFAOYSA-N-P15-P15-P308-601501

>  <HIPPO Pose ID>  (3300) 
502232

>  <name>  (3300) 
RNMSNPBHOCLOAE-UHFFFAOYSA-N-P15-P15-P308-601501

>  <HIPPO Compound ID>  (3300) 
292830

>  <ref_mols>  (3300) 
A4331a,A0514a

>  <distance_score>  (3300) 
1.931041

>  <inspiration_score>  (3300) 
None

$$$$
RNMSNPBHOCLOAE-UHFFFAOYSA-N-P308-P15-P308-601501
     RDKit          3D

 23 25  0  0  0  0  0  0  0  0999 V2000
    9.4468    8.5173   23.6176 C   0  0  0  0  0  0  0  0  0  0  0  0
    8.7588    9.4661   24.4276 O   0  0  0  0  0  0  0  0  0  0  0  0
    8.8631   10.7203   23.9322 C   0  0  0  0  0  0  0  0  0  0  0  0
    9.4602   11.0313   22.9202 O   0  0  0  0  0  0  0  0  0  0  0  0
    8.1498   11.6661   24.8169 C   0  0  0  0  0  0  0  0  0  0  0  0
    6.9998   11.2366   25.4913 C   0  0  0  0  0  0  0  0  0  0  0  0
    6.3073   12.1588   26.2653 C   0  0  0  0  0  0  0  0  0  0  0  0
    5.0658   11.7762   27.0276 C   0  0  0  0  0  0  0  0  0  0  0  0
    4.8536   10.4366   27.0433 F   0  0  0  0  0  0  0  0  0  0  0  0
    5.1184   12.1361   28.3431 F   0  0  0  0  0  0  0  0  0  0  0  0
    3.9213   12.3208   26.5310 F   0  0  0  0  0  0  0  0  0  0  0  0
    6.7244   13.4441   26.3905 N   0  0  0  0  0  0  0  0  0  0  0  0
    7.8232   13.8306   25.7190 C   0  0  0  0  0  0  0  0  0  0  0  0
    8.5943   12.9946   24.9245 C   0  0  0  0  0  0  0  0  0  0  0  0
    9.6808   13.4853   24.1781 N   0  0  0  0  0  0  0  0  0  0  0  0
   10.7582   14.1348   24.9412 C   0  0  0  0  0  0  0  0  0  0  0  0
   11.9552   14.3993   24.0304 C   0  0  0  0  0  0  0  0  0  0  0  0
   11.5671   15.4289   22.9844 C   0  0  0  0  0  0  0  0  0  0  0  0
   10.2687   15.0768   22.3771 C   0  0  0  0  0  0  0  0  0  0  0  0
    9.7671   15.5622   21.2682 N   0  0  0  0  0  0  0  0  0  0  0  0
    8.5595   14.9537   21.1586 C   0  0  0  0  0  0  0  0  0  0  0  0
    8.2835   14.1414   22.2286 C   0  0  0  0  0  0  0  0  0  0  0  0
    9.4099   14.1941   22.9934 N   0  0  0  0  0  0  0  0  0  0  0  0
  1  2  1  0
  2  3  1  0
  3  4  2  0
  3  5  1  0
  5  6  2  0
  6  7  1  0
  7  8  1  0
  8  9  1  0
  8 10  1  0
  8 11  1  0
  7 12  2  0
 12 13  1  0
 13 14  2  0
 14 15  1  0
 15 16  1  0
 16 17  1  0
 17 18  1  0
 18 19  1  0
 19 20  2  0
 20 21  1  0
 21 22  2  0
 22 23  1  0
 14  5  1  0
 23 15  1  0
 23 19  1  0
M  END
>  <energy_score>  (3301) 
-30.714049

>  <inchikey>  (3301) 
RNMSNPBHOCLOAE-UHFFFAOYSA-N

>  <smiles>  (3301) 
COC(=O)c1cc(C(F)(F)F)ncc1N1CCCc2nccn21

>  <ref_pdb>  (3301) 
A0528a

>  <alias>  (3301) 
RNMSNPBHOCLOAE-UHFFFAOYSA-N-P308-P15-P308-601501

>  <HIPPO Pose ID>  (3301) 
502233

>  <name>  (3301) 
RNMSNPBHOCLOAE-UHFFFAOYSA-N-P308-P15-P308-601501

>  <HIPPO Compound ID>  (3301) 
292830

>  <ref_mols>  (3301) 
A4331a,A0514a

>  <distance_score>  (3301) 
1.537521

>  <inspiration_score>  (3301) 
None

$$$$
GZEHJLQSXXPLPZ-UHFFFAOYSA-N-P15-P15-P308-601501
     RDKit          3D

 23 24  0  0  0  0  0  0  0  0999 V2000
    9.5317    9.0848   23.0578 C   0  0  0  0  0  0  0  0  0  0  0  0
    8.5607    9.8884   23.7309 O   0  0  0  0  0  0  0  0  0  0  0  0
    8.9617   11.1484   24.0259 C   0  0  0  0  0  0  0  0  0  0  0  0
   10.0306   11.6470   23.7176 O   0  0  0  0  0  0  0  0  0  0  0  0
    7.9403   11.8095   24.8807 C   0  0  0  0  0  0  0  0  0  0  0  0
    7.0578   10.9810   25.6076 C   0  0  0  0  0  0  0  0  0  0  0  0
    6.2847   11.5274   26.6291 C   0  0  0  0  0  0  0  0  0  0  0  0
    5.3166   10.6992   27.4185 C   0  0  0  0  0  0  0  0  0  0  0  0
    4.8019    9.6975   26.6751 F   0  0  0  0  0  0  0  0  0  0  0  0
    5.8901   10.1101   28.5058 F   0  0  0  0  0  0  0  0  0  0  0  0
    4.2367   11.3856   27.8880 F   0  0  0  0  0  0  0  0  0  0  0  0
    6.4403   12.7999   27.0249 N   0  0  0  0  0  0  0  0  0  0  0  0
    7.2199   13.5812   26.2665 C   0  0  0  0  0  0  0  0  0  0  0  0
    7.9299   13.1878   25.1196 C   0  0  0  0  0  0  0  0  0  0  0  0
    8.4803   14.2464   24.3298 N   0  0  0  0  0  0  0  0  0  0  0  0
    7.5117   15.3759   24.3397 N   0  0  0  0  0  0  0  0  0  0  0  0
    8.8474   14.1082   23.0181 C   0  0  0  0  0  0  0  0  0  0  0  0
    8.0328   14.0648   21.9854 N   0  0  0  0  0  0  0  0  0  0  0  0
    8.7217   14.5070   20.8966 N   0  0  0  0  0  0  0  0  0  0  0  0
    9.9833   14.6926   21.2282 C   0  0  0  0  0  0  0  0  0  0  0  0
   11.0462   15.1761   20.3233 C   0  0  0  0  0  0  0  0  0  0  0  0
   10.1364   14.3730   22.5547 N   0  0  0  0  0  0  0  0  0  0  0  0
   11.3757   14.3055   23.3087 N   0  0  0  0  0  0  0  0  0  0  0  0
  1  2  1  0
  2  3  1  0
  3  4  2  0
  3  5  1  0
  5  6  2  0
  6  7  1  0
  7  8  1  0
  8  9  1  0
  8 10  1  0
  8 11  1  0
  7 12  2  0
 12 13  1  0
 13 14  2  0
 14 15  1  0
 15 16  1  0
 15 17  1  0
 17 18  2  0
 18 19  1  0
 19 20  2  0
 20 21  1  0
 20 22  1  0
 22 23  1  0
 14  5  1  0
 22 17  1  0
M  END
>  <energy_score>  (3302) 
-44.975098

>  <inchikey>  (3302) 
GZEHJLQSXXPLPZ-UHFFFAOYSA-N

>  <smiles>  (3302) 
COC(=O)c1cc(C(F)(F)F)ncc1N(N)c1nnc(C)n1N

>  <ref_pdb>  (3302) 
A0528a

>  <alias>  (3302) 
GZEHJLQSXXPLPZ-UHFFFAOYSA-N-P15-P15-P308-601501

>  <HIPPO Pose ID>  (3302) 
502242

>  <name>  (3302) 
GZEHJLQSXXPLPZ-UHFFFAOYSA-N-P15-P15-P308-601501

>  <HIPPO Compound ID>  (3302) 
292835

>  <ref_mols>  (3302) 
A4331a,A0514a

>  <distance_score>  (3302) 
1.41141

>  <inspiration_score>  (3302) 
None

$$$$
GZEHJLQSXXPLPZ-UHFFFAOYSA-N-P308-P15-P308-601501
     RDKit          3D

 23 24  0  0  0  0  0  0  0  0999 V2000
    9.5610    8.8507   23.2027 C   0  0  0  0  0  0  0  0  0  0  0  0
    8.7215    9.8284   23.8131 O   0  0  0  0  0  0  0  0  0  0  0  0
    9.3731   10.8293   24.4512 C   0  0  0  0  0  0  0  0  0  0  0  0
   10.5777   10.9421   24.6090 O   0  0  0  0  0  0  0  0  0  0  0  0
    8.3555   11.7647   24.9771 C   0  0  0  0  0  0  0  0  0  0  0  0
    7.1898   11.2350   25.5578 C   0  0  0  0  0  0  0  0  0  0  0  0
    6.2851   12.1082   26.1546 C   0  0  0  0  0  0  0  0  0  0  0  0
    5.1001   11.6147   26.9376 C   0  0  0  0  0  0  0  0  0  0  0  0
    4.9234   10.2740   26.8332 F   0  0  0  0  0  0  0  0  0  0  0  0
    5.2278   11.8423   28.2787 F   0  0  0  0  0  0  0  0  0  0  0  0
    3.9106   12.1706   26.5774 F   0  0  0  0  0  0  0  0  0  0  0  0
    6.4846   13.4453   26.1611 N   0  0  0  0  0  0  0  0  0  0  0  0
    7.5899   13.9228   25.5613 C   0  0  0  0  0  0  0  0  0  0  0  0
    8.5851   13.1452   24.9760 C   0  0  0  0  0  0  0  0  0  0  0  0
    9.7381   13.7470   24.3912 N   0  0  0  0  0  0  0  0  0  0  0  0
   10.3052   14.7856   25.2098 N   0  0  0  0  0  0  0  0  0  0  0  0
    9.6004   14.1741   23.0824 C   0  0  0  0  0  0  0  0  0  0  0  0
    8.5015   14.2334   22.3556 N   0  0  0  0  0  0  0  0  0  0  0  0
    8.8192   14.7449   21.1230 N   0  0  0  0  0  0  0  0  0  0  0  0
   10.1217   14.9419   21.0769 C   0  0  0  0  0  0  0  0  0  0  0  0
   10.9036   15.4324   19.9194 C   0  0  0  0  0  0  0  0  0  0  0  0
   10.6612   14.6034   22.2914 N   0  0  0  0  0  0  0  0  0  0  0  0
   12.0398   14.6656   22.6509 N   0  0  0  0  0  0  0  0  0  0  0  0
  1  2  1  0
  2  3  1  0
  3  4  2  0
  3  5  1  0
  5  6  2  0
  6  7  1  0
  7  8  1  0
  8  9  1  0
  8 10  1  0
  8 11  1  0
  7 12  2  0
 12 13  1  0
 13 14  2  0
 14 15  1  0
 15 16  1  0
 15 17  1  0
 17 18  2  0
 18 19  1  0
 19 20  2  0
 20 21  1  0
 20 22  1  0
 22 23  1  0
 14  5  1  0
 22 17  1  0
M  END
>  <energy_score>  (3303) 
-54.666975

>  <inchikey>  (3303) 
GZEHJLQSXXPLPZ-UHFFFAOYSA-N

>  <smiles>  (3303) 
COC(=O)c1cc(C(F)(F)F)ncc1N(N)c1nnc(C)n1N

>  <ref_pdb>  (3303) 
A0528a

>  <alias>  (3303) 
GZEHJLQSXXPLPZ-UHFFFAOYSA-N-P308-P15-P308-601501

>  <HIPPO Pose ID>  (3303) 
502243

>  <name>  (3303) 
GZEHJLQSXXPLPZ-UHFFFAOYSA-N-P308-P15-P308-601501

>  <HIPPO Compound ID>  (3303) 
292835

>  <ref_mols>  (3303) 
A4331a,A0514a

>  <distance_score>  (3303) 
1.44053

>  <inspiration_score>  (3303) 
None

$$$$
ZXBMJECTTZLGQO-UHFFFAOYSA-N-P308-P15-P308-601501
     RDKit          3D

 23 25  0  0  0  0  0  0  0  0999 V2000
    9.6007    8.6871   23.0347 C   0  0  0  0  0  0  0  0  0  0  0  0
    8.7864    9.6916   23.6193 O   0  0  0  0  0  0  0  0  0  0  0  0
    9.4608   10.6182   24.3321 C   0  0  0  0  0  0  0  0  0  0  0  0
   10.6514   10.6646   24.5853 O   0  0  0  0  0  0  0  0  0  0  0  0
    8.4594   11.5528   24.8440 C   0  0  0  0  0  0  0  0  0  0  0  0
    7.4007   11.0251   25.6017 C   0  0  0  0  0  0  0  0  0  0  0  0
    6.4569   11.8953   26.1317 C   0  0  0  0  0  0  0  0  0  0  0  0
    5.2814   11.3935   26.9328 C   0  0  0  0  0  0  0  0  0  0  0  0
    4.1172   12.0383   26.6577 F   0  0  0  0  0  0  0  0  0  0  0  0
    5.4515   11.5323   28.2791 F   0  0  0  0  0  0  0  0  0  0  0  0
    5.0314   10.0666   26.7344 F   0  0  0  0  0  0  0  0  0  0  0  0
    6.5744   13.2349   25.9774 N   0  0  0  0  0  0  0  0  0  0  0  0
    7.5460   13.6966   25.1635 C   0  0  0  0  0  0  0  0  0  0  0  0
    8.5181   12.9097   24.5555 C   0  0  0  0  0  0  0  0  0  0  0  0
    9.2421   13.4320   23.4468 N   0  0  0  0  0  0  0  0  0  0  0  0
    8.4659   14.0394   22.4335 C   0  0  0  0  0  0  0  0  0  0  0  0
    7.3635   13.6358   22.0761 O   0  0  0  0  0  0  0  0  0  0  0  0
    9.1760   15.2484   21.8566 C   0  0  0  0  0  0  0  0  0  0  0  0
   10.4837   14.7829   21.2424 C   0  0  0  0  0  0  0  0  0  0  0  0
   11.2473   13.9654   22.2941 C   0  0  0  0  0  0  0  0  0  0  0  0
   10.5679   13.9956   23.6296 N   0  0  0  0  0  0  0  0  0  0  0  0
   10.4550   15.4172   24.0165 C   0  0  0  0  0  0  0  0  0  0  0  0
    9.5404   16.1570   23.0328 C   0  0  0  0  0  0  0  0  0  0  0  0
  1  2  1  0
  2  3  1  0
  3  4  2  0
  3  5  1  0
  5  6  2  0
  6  7  1  0
  7  8  1  0
  8  9  1  0
  8 10  1  0
  8 11  1  0
  7 12  2  0
 12 13  1  0
 13 14  2  0
 14 15  1  0
 15 16  1  0
 16 17  2  0
 16 18  1  0
 18 19  1  0
 19 20  1  0
 20 21  1  0
 21 22  1  0
 22 23  1  0
 14  5  1  0
 21 15  1  0
 23 18  1  0
M  END
>  <energy_score>  (3304) 
-8.426393

>  <inchikey>  (3304) 
ZXBMJECTTZLGQO-UHFFFAOYSA-N

>  <smiles>  (3304) 
COC(=O)c1cc(C(F)(F)F)ncc1N1C(=O)C2CCN1CC2

>  <ref_pdb>  (3304) 
A0528a

>  <alias>  (3304) 
ZXBMJECTTZLGQO-UHFFFAOYSA-N-P308-P15-P308-601501

>  <HIPPO Pose ID>  (3304) 
502245

>  <name>  (3304) 
ZXBMJECTTZLGQO-UHFFFAOYSA-N-P308-P15-P308-601501

>  <HIPPO Compound ID>  (3304) 
292836

>  <ref_mols>  (3304) 
A4331a,A0514a

>  <distance_score>  (3304) 
1.555454

>  <inspiration_score>  (3304) 
None

$$$$
GVZWXALMESLJSY-UHFFFAOYSA-N-P15-P15-P308-601501
     RDKit          3D

 23 24  0  0  0  0  0  0  0  0999 V2000
    9.6296    9.2110   22.9923 C   0  0  0  0  0  0  0  0  0  0  0  0
    9.1706   10.4675   23.5073 O   0  0  0  0  0  0  0  0  0  0  0  0
    8.0748   10.3655   24.2789 C   0  0  0  0  0  0  0  0  0  0  0  0
    7.4373    9.3506   24.5227 O   0  0  0  0  0  0  0  0  0  0  0  0
    7.7229   11.6322   24.9451 C   0  0  0  0  0  0  0  0  0  0  0  0
    6.9030   11.4630   26.0584 C   0  0  0  0  0  0  0  0  0  0  0  0
    6.5300   12.5562   26.8192 C   0  0  0  0  0  0  0  0  0  0  0  0
    5.5309   12.3240   27.9269 C   0  0  0  0  0  0  0  0  0  0  0  0
    4.2912   12.0403   27.4390 F   0  0  0  0  0  0  0  0  0  0  0  0
    5.3729   13.3746   28.7773 F   0  0  0  0  0  0  0  0  0  0  0  0
    5.8683   11.2614   28.7173 F   0  0  0  0  0  0  0  0  0  0  0  0
    6.9950   13.7962   26.5598 N   0  0  0  0  0  0  0  0  0  0  0  0
    7.7314   13.9440   25.4407 C   0  0  0  0  0  0  0  0  0  0  0  0
    8.0779   12.9235   24.5566 C   0  0  0  0  0  0  0  0  0  0  0  0
    8.4376   13.2585   23.2284 N   0  0  0  0  0  0  0  0  0  0  0  0
    7.3102   13.7237   22.4745 N   0  0  0  0  0  0  0  0  0  0  0  0
    9.6541   13.8878   22.9098 C   0  0  0  0  0  0  0  0  0  0  0  0
   10.6695   13.9659   23.7254 N   0  0  0  0  0  0  0  0  0  0  0  0
   11.8860   14.5426   23.3037 N   0  0  0  0  0  0  0  0  0  0  0  0
   11.9861   14.9840   22.0870 C   0  0  0  0  0  0  0  0  0  0  0  0
   10.8470   14.9598   21.1290 C   0  0  0  0  0  0  0  0  0  0  0  0
   10.9622   15.3935   19.9974 O   0  0  0  0  0  0  0  0  0  0  0  0
    9.7158   14.4312   21.6517 N   0  0  0  0  0  0  0  0  0  0  0  0
  1  2  1  0
  2  3  1  0
  3  4  2  0
  3  5  1  0
  5  6  2  0
  6  7  1  0
  7  8  1  0
  8  9  1  0
  8 10  1  0
  8 11  1  0
  7 12  2  0
 12 13  1  0
 13 14  2  0
 14 15  1  0
 15 16  1  0
 15 17  1  0
 17 18  2  0
 18 19  1  0
 19 20  2  0
 20 21  1  0
 21 22  2  0
 21 23  1  0
 14  5  1  0
 23 17  1  0
M  END
>  <energy_score>  (3305) 
-45.410118

>  <inchikey>  (3305) 
GVZWXALMESLJSY-UHFFFAOYSA-N

>  <smiles>  (3305) 
COC(=O)c1cc(C(F)(F)F)ncc1N(N)c1nncc(=O)[nH]1

>  <ref_pdb>  (3305) 
A0528a

>  <alias>  (3305) 
GVZWXALMESLJSY-UHFFFAOYSA-N-P15-P15-P308-601501

>  <HIPPO Pose ID>  (3305) 
502256

>  <name>  (3305) 
GVZWXALMESLJSY-UHFFFAOYSA-N-P15-P15-P308-601501

>  <HIPPO Compound ID>  (3305) 
292842

>  <ref_mols>  (3305) 
A4331a,A0514a

>  <distance_score>  (3305) 
1.799261

>  <inspiration_score>  (3305) 
None

$$$$
GVZWXALMESLJSY-UHFFFAOYSA-N-P308-P15-P308-601501
     RDKit          3D

 23 24  0  0  0  0  0  0  0  0999 V2000
    9.5040    8.8387   23.1721 C   0  0  0  0  0  0  0  0  0  0  0  0
    8.6496    9.8446   23.7147 O   0  0  0  0  0  0  0  0  0  0  0  0
    9.3033   10.8935   24.2591 C   0  0  0  0  0  0  0  0  0  0  0  0
   10.5032   11.0593   24.3815 O   0  0  0  0  0  0  0  0  0  0  0  0
    8.3040   11.8250   24.7895 C   0  0  0  0  0  0  0  0  0  0  0  0
    7.3371   11.3326   25.6600 C   0  0  0  0  0  0  0  0  0  0  0  0
    6.4216   12.2198   26.2086 C   0  0  0  0  0  0  0  0  0  0  0  0
    5.2513   11.7031   27.0103 C   0  0  0  0  0  0  0  0  0  0  0  0
    5.2675   12.1375   28.2977 F   0  0  0  0  0  0  0  0  0  0  0  0
    5.2061   10.3401   27.0857 F   0  0  0  0  0  0  0  0  0  0  0  0
    4.0402   12.0759   26.5087 F   0  0  0  0  0  0  0  0  0  0  0  0
    6.5325   13.5591   26.0357 N   0  0  0  0  0  0  0  0  0  0  0  0
    7.4464   13.9899   25.1484 C   0  0  0  0  0  0  0  0  0  0  0  0
    8.2920   13.1656   24.4160 C   0  0  0  0  0  0  0  0  0  0  0  0
    8.7157   13.5639   23.1234 N   0  0  0  0  0  0  0  0  0  0  0  0
    7.6229   13.8409   22.2409 N   0  0  0  0  0  0  0  0  0  0  0  0
    9.8872   14.2770   22.8529 C   0  0  0  0  0  0  0  0  0  0  0  0
   10.7763   14.6038   23.7458 N   0  0  0  0  0  0  0  0  0  0  0  0
   11.9257   15.3319   23.3754 N   0  0  0  0  0  0  0  0  0  0  0  0
   12.1004   15.6453   22.1287 C   0  0  0  0  0  0  0  0  0  0  0  0
   11.1447   15.2474   21.0589 C   0  0  0  0  0  0  0  0  0  0  0  0
   11.3828   15.4641   19.8841 O   0  0  0  0  0  0  0  0  0  0  0  0
   10.0402   14.6292   21.5344 N   0  0  0  0  0  0  0  0  0  0  0  0
  1  2  1  0
  2  3  1  0
  3  4  2  0
  3  5  1  0
  5  6  2  0
  6  7  1  0
  7  8  1  0
  8  9  1  0
  8 10  1  0
  8 11  1  0
  7 12  2  0
 12 13  1  0
 13 14  2  0
 14 15  1  0
 15 16  1  0
 15 17  1  0
 17 18  2  0
 18 19  1  0
 19 20  2  0
 20 21  1  0
 21 22  2  0
 21 23  1  0
 14  5  1  0
 23 17  1  0
M  END
>  <energy_score>  (3306) 
-38.676543

>  <inchikey>  (3306) 
GVZWXALMESLJSY-UHFFFAOYSA-N

>  <smiles>  (3306) 
COC(=O)c1cc(C(F)(F)F)ncc1N(N)c1nncc(=O)[nH]1

>  <ref_pdb>  (3306) 
A0528a

>  <alias>  (3306) 
GVZWXALMESLJSY-UHFFFAOYSA-N-P308-P15-P308-601501

>  <HIPPO Pose ID>  (3306) 
502257

>  <name>  (3306) 
GVZWXALMESLJSY-UHFFFAOYSA-N-P308-P15-P308-601501

>  <HIPPO Compound ID>  (3306) 
292842

>  <ref_mols>  (3306) 
A4331a,A0514a

>  <distance_score>  (3306) 
1.671347

>  <inspiration_score>  (3306) 
None

$$$$
NWMUHBYBZXURSQ-UHFFFAOYSA-N-P15-P15-P308-601501
     RDKit          3D

 23 24  0  0  0  0  0  0  0  0999 V2000
    9.5831    8.7456   22.9759 C   0  0  0  0  0  0  0  0  0  0  0  0
    8.7529    9.5889   23.7722 O   0  0  0  0  0  0  0  0  0  0  0  0
    9.0488   10.9080   23.7115 C   0  0  0  0  0  0  0  0  0  0  0  0
    9.9616   11.4038   23.0821 O   0  0  0  0  0  0  0  0  0  0  0  0
    8.1316   11.6667   24.5915 C   0  0  0  0  0  0  0  0  0  0  0  0
    7.2671   10.9610   25.4449 C   0  0  0  0  0  0  0  0  0  0  0  0
    6.4366   11.6673   26.3050 C   0  0  0  0  0  0  0  0  0  0  0  0
    5.4583   10.9401   27.1901 C   0  0  0  0  0  0  0  0  0  0  0  0
    4.3423   11.6675   27.4684 F   0  0  0  0  0  0  0  0  0  0  0  0
    5.0178    9.7732   26.6429 F   0  0  0  0  0  0  0  0  0  0  0  0
    5.9958   10.5962   28.3960 F   0  0  0  0  0  0  0  0  0  0  0  0
    6.4922   13.0167   26.4032 N   0  0  0  0  0  0  0  0  0  0  0  0
    7.2602   13.6758   25.5172 C   0  0  0  0  0  0  0  0  0  0  0  0
    8.0953   13.0664   24.5903 C   0  0  0  0  0  0  0  0  0  0  0  0
    8.5528   13.9071   23.5493 N   0  0  0  0  0  0  0  0  0  0  0  0
    9.8858   14.1310   23.4709 N   0  0  0  0  0  0  0  0  0  0  0  0
   10.4539   14.5948   22.3982 C   0  0  0  0  0  0  0  0  0  0  0  0
   12.1815   14.7111   22.3967 S   0  0  0  0  0  0  0  0  0  0  0  0
   12.4514   13.7458   23.8953 C   0  0  0  0  0  0  0  0  0  0  0  0
    9.6811   15.1934   20.9854 S   0  0  0  0  0  0  0  0  0  0  0  0
    8.0332   15.2654   21.6419 C   0  0  0  0  0  0  0  0  0  0  0  0
    7.7406   14.0589   22.4485 C   0  0  0  0  0  0  0  0  0  0  0  0
    6.8262   13.2948   22.1629 O   0  0  0  0  0  0  0  0  0  0  0  0
  1  2  1  0
  2  3  1  0
  3  4  2  0
  3  5  1  0
  5  6  2  0
  6  7  1  0
  7  8  1  0
  8  9  1  0
  8 10  1  0
  8 11  1  0
  7 12  2  0
 12 13  1  0
 13 14  2  0
 14 15  1  0
 15 16  1  0
 16 17  2  0
 17 18  1  0
 18 19  1  0
 17 20  1  0
 20 21  1  0
 21 22  1  0
 22 23  2  0
 14  5  1  0
 22 15  1  0
M  END
>  <energy_score>  (3307) 
-27.317956

>  <inchikey>  (3307) 
NWMUHBYBZXURSQ-UHFFFAOYSA-N

>  <smiles>  (3307) 
COC(=O)c1cc(C(F)(F)F)ncc1N1N=C(SC)SCC1=O

>  <ref_pdb>  (3307) 
A0528a

>  <alias>  (3307) 
NWMUHBYBZXURSQ-UHFFFAOYSA-N-P15-P15-P308-601501

>  <HIPPO Pose ID>  (3307) 
502258

>  <name>  (3307) 
NWMUHBYBZXURSQ-UHFFFAOYSA-N-P15-P15-P308-601501

>  <HIPPO Compound ID>  (3307) 
292843

>  <ref_mols>  (3307) 
A4331a,A0514a

>  <distance_score>  (3307) 
1.674104

>  <inspiration_score>  (3307) 
None

$$$$
NWMUHBYBZXURSQ-UHFFFAOYSA-N-P308-P15-P308-601501
     RDKit          3D

 23 24  0  0  0  0  0  0  0  0999 V2000
    9.7118    9.1765   22.7605 C   0  0  0  0  0  0  0  0  0  0  0  0
    9.2384   10.4247   23.2700 O   0  0  0  0  0  0  0  0  0  0  0  0
    8.2888   10.2615   24.2067 C   0  0  0  0  0  0  0  0  0  0  0  0
    7.8869    9.1850   24.6330 O   0  0  0  0  0  0  0  0  0  0  0  0
    7.7912   11.5304   24.7734 C   0  0  0  0  0  0  0  0  0  0  0  0
    6.7871   11.3436   25.7379 C   0  0  0  0  0  0  0  0  0  0  0  0
    6.3055   12.4317   26.4440 C   0  0  0  0  0  0  0  0  0  0  0  0
    5.1725   12.2694   27.4261 C   0  0  0  0  0  0  0  0  0  0  0  0
    4.4472   11.1390   27.2163 F   0  0  0  0  0  0  0  0  0  0  0  0
    5.6061   12.1845   28.7172 F   0  0  0  0  0  0  0  0  0  0  0  0
    4.2679   13.2873   27.4023 F   0  0  0  0  0  0  0  0  0  0  0  0
    6.8690   13.6560   26.3171 N   0  0  0  0  0  0  0  0  0  0  0  0
    7.7921   13.8271   25.3509 C   0  0  0  0  0  0  0  0  0  0  0  0
    8.2525   12.8243   24.5007 C   0  0  0  0  0  0  0  0  0  0  0  0
    8.7677   13.2721   23.2412 N   0  0  0  0  0  0  0  0  0  0  0  0
    9.9810   13.9120   23.3203 N   0  0  0  0  0  0  0  0  0  0  0  0
   10.4372   14.6463   22.3498 C   0  0  0  0  0  0  0  0  0  0  0  0
   12.0137   15.3423   22.4860 S   0  0  0  0  0  0  0  0  0  0  0  0
   12.4609   14.6185   24.0666 C   0  0  0  0  0  0  0  0  0  0  0  0
    9.5711   15.1071   20.9399 S   0  0  0  0  0  0  0  0  0  0  0  0
    7.9940   15.0920   21.7592 C   0  0  0  0  0  0  0  0  0  0  0  0
    7.7692   13.7465   22.3826 C   0  0  0  0  0  0  0  0  0  0  0  0
    6.7183   13.1323   22.2062 O   0  0  0  0  0  0  0  0  0  0  0  0
  1  2  1  0
  2  3  1  0
  3  4  2  0
  3  5  1  0
  5  6  2  0
  6  7  1  0
  7  8  1  0
  8  9  1  0
  8 10  1  0
  8 11  1  0
  7 12  2  0
 12 13  1  0
 13 14  2  0
 14 15  1  0
 15 16  1  0
 16 17  2  0
 17 18  1  0
 18 19  1  0
 17 20  1  0
 20 21  1  0
 21 22  1  0
 22 23  2  0
 14  5  1  0
 22 15  1  0
M  END
>  <energy_score>  (3308) 
-23.109394

>  <inchikey>  (3308) 
NWMUHBYBZXURSQ-UHFFFAOYSA-N

>  <smiles>  (3308) 
COC(=O)c1cc(C(F)(F)F)ncc1N1N=C(SC)SCC1=O

>  <ref_pdb>  (3308) 
A0528a

>  <alias>  (3308) 
NWMUHBYBZXURSQ-UHFFFAOYSA-N-P308-P15-P308-601501

>  <HIPPO Pose ID>  (3308) 
502259

>  <name>  (3308) 
NWMUHBYBZXURSQ-UHFFFAOYSA-N-P308-P15-P308-601501

>  <HIPPO Compound ID>  (3308) 
292843

>  <ref_mols>  (3308) 
A4331a,A0514a

>  <distance_score>  (3308) 
1.719593

>  <inspiration_score>  (3308) 
None

$$$$
PZUUGVCTAZHBDR-UHFFFAOYSA-N-P15-P15-P308-601501
     RDKit          3D

 23 24  0  0  0  0  0  0  0  0999 V2000
    9.3545    8.5026   22.9995 C   0  0  0  0  0  0  0  0  0  0  0  0
    8.4594    9.2293   23.8415 O   0  0  0  0  0  0  0  0  0  0  0  0
    8.8674   10.4958   24.0678 C   0  0  0  0  0  0  0  0  0  0  0  0
    9.9153   10.9869   23.6874 O   0  0  0  0  0  0  0  0  0  0  0  0
    7.8170   11.2307   24.8127 C   0  0  0  0  0  0  0  0  0  0  0  0
    6.9162   10.5629   25.6417 C   0  0  0  0  0  0  0  0  0  0  0  0
    5.9751   11.3174   26.3334 C   0  0  0  0  0  0  0  0  0  0  0  0
    5.1524   10.6948   27.4308 C   0  0  0  0  0  0  0  0  0  0  0  0
    4.1745   11.5238   27.8917 F   0  0  0  0  0  0  0  0  0  0  0  0
    4.5232    9.5495   27.0564 F   0  0  0  0  0  0  0  0  0  0  0  0
    5.9045   10.3658   28.5221 F   0  0  0  0  0  0  0  0  0  0  0  0
    5.8095   12.6498   26.1241 N   0  0  0  0  0  0  0  0  0  0  0  0
    6.6359   13.2593   25.2561 C   0  0  0  0  0  0  0  0  0  0  0  0
    7.7281   12.6228   24.6723 C   0  0  0  0  0  0  0  0  0  0  0  0
    8.6531   13.2945   23.7940 N   0  0  0  0  0  0  0  0  0  0  0  0
    9.2318   13.7520   25.2033 N   0  0  0  0  0  0  0  0  0  0  0  0
    8.4555   14.4738   22.8728 C   0  0  0  0  0  0  0  0  0  0  0  0
    7.5189   15.1694   22.7166 O   0  0  0  0  0  0  0  0  0  0  0  0
    9.7531   14.6806   22.2299 C   0  0  0  0  0  0  0  0  0  0  0  0
   10.8943   14.4526   22.8687 N   0  0  0  0  0  0  0  0  0  0  0  0
   11.9312   14.6623   21.9888 C   0  0  0  0  0  0  0  0  0  0  0  0
   11.5618   15.0362   20.7172 C   0  0  0  0  0  0  0  0  0  0  0  0
    9.8879   15.3705   20.6867 S   0  0  0  0  0  0  0  0  0  0  0  0
  1  2  1  0
  2  3  1  0
  3  4  2  0
  3  5  1  0
  5  6  2  0
  6  7  1  0
  7  8  1  0
  8  9  1  0
  8 10  1  0
  8 11  1  0
  7 12  2  0
 12 13  1  0
 13 14  2  0
 14 15  1  0
 15 16  1  0
 15 17  1  0
 17 18  2  0
 17 19  1  0
 19 20  2  0
 20 21  1  0
 21 22  2  0
 22 23  1  0
 14  5  1  0
 23 19  1  0
M  END
>  <energy_score>  (3309) 
-21.822754

>  <inchikey>  (3309) 
PZUUGVCTAZHBDR-UHFFFAOYSA-N

>  <smiles>  (3309) 
COC(=O)c1cc(C(F)(F)F)ncc1N(N)C(=O)c1nccs1

>  <ref_pdb>  (3309) 
A0528a

>  <alias>  (3309) 
PZUUGVCTAZHBDR-UHFFFAOYSA-N-P15-P15-P308-601501

>  <HIPPO Pose ID>  (3309) 
502266

>  <name>  (3309) 
PZUUGVCTAZHBDR-UHFFFAOYSA-N-P15-P15-P308-601501

>  <HIPPO Compound ID>  (3309) 
292847

>  <ref_mols>  (3309) 
A4331a,A0514a

>  <distance_score>  (3309) 
1.210661

>  <inspiration_score>  (3309) 
None

$$$$
PZUUGVCTAZHBDR-UHFFFAOYSA-N-P308-P15-P308-601501
     RDKit          3D

 23 24  0  0  0  0  0  0  0  0999 V2000
    9.5075    8.8284   23.1920 C   0  0  0  0  0  0  0  0  0  0  0  0
    8.5961    9.7080   23.8499 O   0  0  0  0  0  0  0  0  0  0  0  0
    9.1739   10.7761   24.4457 C   0  0  0  0  0  0  0  0  0  0  0  0
   10.3636   11.0458   24.4863 O   0  0  0  0  0  0  0  0  0  0  0  0
    8.1059   11.5796   25.0851 C   0  0  0  0  0  0  0  0  0  0  0  0
    7.0482   10.9111   25.7190 C   0  0  0  0  0  0  0  0  0  0  0  0
    6.0823   11.6631   26.3787 C   0  0  0  0  0  0  0  0  0  0  0  0
    4.9674   11.0087   27.1512 C   0  0  0  0  0  0  0  0  0  0  0  0
    3.7967   11.6959   27.0638 F   0  0  0  0  0  0  0  0  0  0  0  0
    4.7028    9.7401   26.7312 F   0  0  0  0  0  0  0  0  0  0  0  0
    5.2138   10.9008   28.4876 F   0  0  0  0  0  0  0  0  0  0  0  0
    6.1196   13.0176   26.4054 N   0  0  0  0  0  0  0  0  0  0  0  0
    7.1131   13.6405   25.7445 C   0  0  0  0  0  0  0  0  0  0  0  0
    8.1627   12.9862   25.1053 C   0  0  0  0  0  0  0  0  0  0  0  0
    9.0525   13.7523   24.2480 N   0  0  0  0  0  0  0  0  0  0  0  0
    9.9770   13.5928   25.5274 N   0  0  0  0  0  0  0  0  0  0  0  0
    8.9834   15.2090   23.7909 C   0  0  0  0  0  0  0  0  0  0  0  0
    8.2331   16.0701   24.0938 O   0  0  0  0  0  0  0  0  0  0  0  0
   10.0341   15.4014   22.8135 C   0  0  0  0  0  0  0  0  0  0  0  0
   11.3101   15.4741   23.1358 N   0  0  0  0  0  0  0  0  0  0  0  0
   12.0308   15.6224   21.9657 C   0  0  0  0  0  0  0  0  0  0  0  0
   11.3043   15.5828   20.7925 C   0  0  0  0  0  0  0  0  0  0  0  0
    9.6383   15.4540   21.1551 S   0  0  0  0  0  0  0  0  0  0  0  0
  1  2  1  0
  2  3  1  0
  3  4  2  0
  3  5  1  0
  5  6  2  0
  6  7  1  0
  7  8  1  0
  8  9  1  0
  8 10  1  0
  8 11  1  0
  7 12  2  0
 12 13  1  0
 13 14  2  0
 14 15  1  0
 15 16  1  0
 15 17  1  0
 17 18  2  0
 17 19  1  0
 19 20  2  0
 20 21  1  0
 21 22  2  0
 22 23  1  0
 14  5  1  0
 23 19  1  0
M  END
>  <energy_score>  (3310) 
-26.125239

>  <inchikey>  (3310) 
PZUUGVCTAZHBDR-UHFFFAOYSA-N

>  <smiles>  (3310) 
COC(=O)c1cc(C(F)(F)F)ncc1N(N)C(=O)c1nccs1

>  <ref_pdb>  (3310) 
A0528a

>  <alias>  (3310) 
PZUUGVCTAZHBDR-UHFFFAOYSA-N-P308-P15-P308-601501

>  <HIPPO Pose ID>  (3310) 
502267

>  <name>  (3310) 
PZUUGVCTAZHBDR-UHFFFAOYSA-N-P308-P15-P308-601501

>  <HIPPO Compound ID>  (3310) 
292847

>  <ref_mols>  (3310) 
A4331a,A0514a

>  <distance_score>  (3310) 
1.304671

>  <inspiration_score>  (3310) 
None

$$$$
VFEKSYUDHLUFCA-UHFFFAOYSA-N-P15-P15-P308-601501
     RDKit          3D

 23 24  0  0  0  0  0  0  0  0999 V2000
   10.9569   15.4410   18.7821 C   0  0  0  0  0  0  0  0  0  0  0  0
   10.9884   15.5058   20.1978 O   0  0  0  0  0  0  0  0  0  0  0  0
    9.7005   15.4453   20.7874 C   0  0  0  0  0  0  0  0  0  0  0  0
    9.8310   14.4944   21.9211 C   0  0  0  0  0  0  0  0  0  0  0  0
    8.8518   13.8152   22.4467 N   0  0  0  0  0  0  0  0  0  0  0  0
    9.3954   13.1078   23.5132 N   0  0  0  0  0  0  0  0  0  0  0  0
    8.4421   12.7906   24.5053 C   0  0  0  0  0  0  0  0  0  0  0  0
    7.8414   13.8374   25.1989 C   0  0  0  0  0  0  0  0  0  0  0  0
    6.8844   13.6938   26.1376 N   0  0  0  0  0  0  0  0  0  0  0  0
    6.4218   12.4473   26.3672 C   0  0  0  0  0  0  0  0  0  0  0  0
    5.4435   12.2125   27.4824 C   0  0  0  0  0  0  0  0  0  0  0  0
    4.2275   11.7873   27.0592 F   0  0  0  0  0  0  0  0  0  0  0  0
    5.2143   13.2873   28.2846 F   0  0  0  0  0  0  0  0  0  0  0  0
    5.9253   11.2394   28.3037 F   0  0  0  0  0  0  0  0  0  0  0  0
    6.9143   11.3463   25.6910 C   0  0  0  0  0  0  0  0  0  0  0  0
    7.9552   11.5068   24.7675 C   0  0  0  0  0  0  0  0  0  0  0  0
    8.4130   10.2201   24.2122 C   0  0  0  0  0  0  0  0  0  0  0  0
    7.9237    9.1700   24.6082 O   0  0  0  0  0  0  0  0  0  0  0  0
    9.3909   10.3320   23.2999 O   0  0  0  0  0  0  0  0  0  0  0  0
    9.7868    9.0576   22.7925 C   0  0  0  0  0  0  0  0  0  0  0  0
   10.6954   13.5884   23.8087 C   0  0  0  0  0  0  0  0  0  0  0  0
   11.3624   13.5209   24.8247 O   0  0  0  0  0  0  0  0  0  0  0  0
   11.1401   14.3075   22.5968 C   0  0  0  0  0  0  0  0  0  0  0  0
  1  2  1  0
  2  3  1  0
  3  4  1  0
  4  5  2  0
  5  6  1  0
  6  7  1  0
  7  8  2  0
  8  9  1  0
  9 10  2  0
 10 11  1  0
 11 12  1  0
 11 13  1  0
 11 14  1  0
 10 15  1  0
 15 16  2  0
 16 17  1  0
 17 18  2  0
 17 19  1  0
 19 20  1  0
  6 21  1  0
 21 22  2  0
 21 23  1  0
 23  4  1  0
 16  7  1  0
M  END
>  <energy_score>  (3311) 
-29.263769

>  <inchikey>  (3311) 
VFEKSYUDHLUFCA-UHFFFAOYSA-N

>  <smiles>  (3311) 
COCC1=NN(c2cnc(C(F)(F)F)cc2C(=O)OC)C(=O)C1

>  <ref_pdb>  (3311) 
A0528a

>  <alias>  (3311) 
VFEKSYUDHLUFCA-UHFFFAOYSA-N-P15-P15-P308-601501

>  <HIPPO Pose ID>  (3311) 
502280

>  <name>  (3311) 
VFEKSYUDHLUFCA-UHFFFAOYSA-N-P15-P15-P308-601501

>  <HIPPO Compound ID>  (3311) 
292854

>  <ref_mols>  (3311) 
A4331a,A0514a

>  <distance_score>  (3311) 
1.70564

>  <inspiration_score>  (3311) 
None

$$$$
VFEKSYUDHLUFCA-UHFFFAOYSA-N-P308-P15-P308-601501
     RDKit          3D

 23 24  0  0  0  0  0  0  0  0999 V2000
   10.8711   15.4433   18.8978 C   0  0  0  0  0  0  0  0  0  0  0  0
   10.8436   16.0560   20.1752 O   0  0  0  0  0  0  0  0  0  0  0  0
    9.5976   15.8984   20.8322 C   0  0  0  0  0  0  0  0  0  0  0  0
    9.7997   14.9688   21.9702 C   0  0  0  0  0  0  0  0  0  0  0  0
    8.8536   14.2609   22.5054 N   0  0  0  0  0  0  0  0  0  0  0  0
    9.4450   13.5415   23.5182 N   0  0  0  0  0  0  0  0  0  0  0  0
    8.5471   12.9793   24.4443 C   0  0  0  0  0  0  0  0  0  0  0  0
    7.4737   13.7505   24.8758 C   0  0  0  0  0  0  0  0  0  0  0  0
    6.4559   13.3012   25.6347 N   0  0  0  0  0  0  0  0  0  0  0  0
    6.4236   11.9829   25.9345 C   0  0  0  0  0  0  0  0  0  0  0  0
    5.3519   11.5297   26.8826 C   0  0  0  0  0  0  0  0  0  0  0  0
    4.1369   12.1025   26.6915 F   0  0  0  0  0  0  0  0  0  0  0  0
    5.1456   10.1835   26.8769 F   0  0  0  0  0  0  0  0  0  0  0  0
    5.7076   11.8451   28.1567 F   0  0  0  0  0  0  0  0  0  0  0  0
    7.4299   11.1191   25.5301 C   0  0  0  0  0  0  0  0  0  0  0  0
    8.5109   11.6354   24.7979 C   0  0  0  0  0  0  0  0  0  0  0  0
    9.5051   10.6694   24.3270 C   0  0  0  0  0  0  0  0  0  0  0  0
   10.6959   10.7002   24.5644 O   0  0  0  0  0  0  0  0  0  0  0  0
    8.8172    9.7393   23.6280 O   0  0  0  0  0  0  0  0  0  0  0  0
    9.6123    8.6984   23.0796 C   0  0  0  0  0  0  0  0  0  0  0  0
   10.7921   13.8955   23.7285 C   0  0  0  0  0  0  0  0  0  0  0  0
   11.5839   13.6084   24.6045 O   0  0  0  0  0  0  0  0  0  0  0  0
   11.1231   14.8379   22.6303 C   0  0  0  0  0  0  0  0  0  0  0  0
  1  2  1  0
  2  3  1  0
  3  4  1  0
  4  5  2  0
  5  6  1  0
  6  7  1  0
  7  8  2  0
  8  9  1  0
  9 10  2  0
 10 11  1  0
 11 12  1  0
 11 13  1  0
 11 14  1  0
 10 15  1  0
 15 16  2  0
 16 17  1  0
 17 18  2  0
 17 19  1  0
 19 20  1  0
  6 21  1  0
 21 22  2  0
 21 23  1  0
 23  4  1  0
 16  7  1  0
M  END
>  <energy_score>  (3312) 
-32.887486

>  <inchikey>  (3312) 
VFEKSYUDHLUFCA-UHFFFAOYSA-N

>  <smiles>  (3312) 
COCC1=NN(c2cnc(C(F)(F)F)cc2C(=O)OC)C(=O)C1

>  <ref_pdb>  (3312) 
A0528a

>  <alias>  (3312) 
VFEKSYUDHLUFCA-UHFFFAOYSA-N-P308-P15-P308-601501

>  <HIPPO Pose ID>  (3312) 
502281

>  <name>  (3312) 
VFEKSYUDHLUFCA-UHFFFAOYSA-N-P308-P15-P308-601501

>  <HIPPO Compound ID>  (3312) 
292854

>  <ref_mols>  (3312) 
A4331a,A0514a

>  <distance_score>  (3312) 
1.621451

>  <inspiration_score>  (3312) 
None

$$$$
MVOJWUQGMMNTDR-UHFFFAOYSA-N-P15-P15-P308-601501
     RDKit          3D

 23 25  0  0  0  0  0  0  0  0999 V2000
    9.4551    8.5017   23.4899 C   0  0  0  0  0  0  0  0  0  0  0  0
    8.6914    9.4622   24.2245 O   0  0  0  0  0  0  0  0  0  0  0  0
    8.9226   10.7093   23.7571 C   0  0  0  0  0  0  0  0  0  0  0  0
    9.6367   10.9576   22.8011 O   0  0  0  0  0  0  0  0  0  0  0  0
    8.2057   11.7488   24.5358 C   0  0  0  0  0  0  0  0  0  0  0  0
    7.0994   11.4085   25.3186 C   0  0  0  0  0  0  0  0  0  0  0  0
    6.4045   12.4173   25.9825 C   0  0  0  0  0  0  0  0  0  0  0  0
    5.2513   12.0915   26.9003 C   0  0  0  0  0  0  0  0  0  0  0  0
    5.0693   10.7566   27.0822 F   0  0  0  0  0  0  0  0  0  0  0  0
    5.4197   12.5911   28.1605 F   0  0  0  0  0  0  0  0  0  0  0  0
    4.0457   12.5600   26.4693 F   0  0  0  0  0  0  0  0  0  0  0  0
    6.7409   13.7208   25.8589 N   0  0  0  0  0  0  0  0  0  0  0  0
    7.8035   14.0105   25.0885 C   0  0  0  0  0  0  0  0  0  0  0  0
    8.6154   13.0877   24.4406 C   0  0  0  0  0  0  0  0  0  0  0  0
    9.8467   13.5008   23.9216 N   0  0  0  0  0  0  0  0  0  0  0  0
   10.9467   12.7842   24.3760 N   0  0  0  0  0  0  0  0  0  0  0  0
    9.9057   14.4177   22.7844 C   0  0  2  0  0  0  0  0  0  0  0  0
    9.8189   13.8868   21.3749 C   0  0  0  0  0  0  0  0  0  0  0  0
   10.7308   14.8103   20.5114 C   0  0  2  0  0  0  0  0  0  0  0  0
   12.1904   14.4076   20.5928 C   0  0  0  0  0  0  0  0  0  0  0  0
   12.4215   14.4113   22.0867 C   0  0  0  0  0  0  0  0  0  0  0  0
   11.2143   15.1741   22.6327 C   0  0  1  0  0  0  0  0  0  0  0  0
   10.8004   16.0024   21.4039 C   0  0  0  0  0  0  0  0  0  0  0  0
  1  2  1  0
  2  3  1  0
  3  4  2  0
  3  5  1  0
  5  6  2  0
  6  7  1  0
  7  8  1  0
  8  9  1  0
  8 10  1  0
  8 11  1  0
  7 12  2  0
 12 13  1  0
 13 14  2  0
 14 15  1  0
 15 16  1  0
 17 15  1  1
 17 18  1  0
 19 18  1  1
 19 20  1  0
 20 21  1  0
 22 21  1  6
 22 23  1  0
 14  5  1  0
 22 17  1  0
 23 19  1  0
M  END
>  <energy_score>  (3313) 
-23.572052

>  <inchikey>  (3313) 
MVOJWUQGMMNTDR-UHFFFAOYSA-N

>  <smiles>  (3313) 
COC(=O)c1cc(C(F)(F)F)ncc1N(N)C1CC2CCC1C2

>  <ref_pdb>  (3313) 
A0528a

>  <alias>  (3313) 
MVOJWUQGMMNTDR-UHFFFAOYSA-N-P15-P15-P308-601501

>  <HIPPO Pose ID>  (3313) 
502284

>  <name>  (3313) 
MVOJWUQGMMNTDR-UHFFFAOYSA-N-P15-P15-P308-601501

>  <HIPPO Compound ID>  (3313) 
292856

>  <ref_mols>  (3313) 
A4331a,A0514a

>  <distance_score>  (3313) 
1.99385

>  <inspiration_score>  (3313) 
None

$$$$
NSFJIFBLQCRDOY-UHFFFAOYSA-N-P15-P15-P308-601501
     RDKit          3D

 23 24  0  0  0  0  0  0  0  0999 V2000
    9.1994    8.6786   23.0310 C   0  0  0  0  0  0  0  0  0  0  0  0
    8.3785    9.6245   23.7237 O   0  0  0  0  0  0  0  0  0  0  0  0
    9.0593   10.7392   24.0798 C   0  0  0  0  0  0  0  0  0  0  0  0
   10.2522   10.9001   23.9019 O   0  0  0  0  0  0  0  0  0  0  0  0
    8.1809   11.7240   24.7507 C   0  0  0  0  0  0  0  0  0  0  0  0
    7.0865   11.2222   25.4758 C   0  0  0  0  0  0  0  0  0  0  0  0
    6.3151   12.1024   26.2270 C   0  0  0  0  0  0  0  0  0  0  0  0
    5.2305   11.6079   27.1444 C   0  0  0  0  0  0  0  0  0  0  0  0
    4.9328   10.3001   26.9441 F   0  0  0  0  0  0  0  0  0  0  0  0
    4.0434   12.2657   27.0246 F   0  0  0  0  0  0  0  0  0  0  0  0
    5.5821   11.6879   28.4612 F   0  0  0  0  0  0  0  0  0  0  0  0
    6.5722   13.4281   26.2567 N   0  0  0  0  0  0  0  0  0  0  0  0
    7.6103   13.8861   25.5333 C   0  0  0  0  0  0  0  0  0  0  0  0
    8.4758   13.1004   24.7754 C   0  0  0  0  0  0  0  0  0  0  0  0
    9.5682   13.7649   24.1894 N   0  0  0  0  0  0  0  0  0  0  0  0
   10.7537   13.6745   24.9717 N   0  0  0  0  0  0  0  0  0  0  0  0
    9.6289   13.9823   22.6902 C   0  0  0  0  0  0  0  0  0  0  0  0
    8.1963   14.0889   22.1357 C   0  0  0  0  0  0  0  0  0  0  0  0
   10.4954   12.9842   22.0073 C   0  0  0  0  0  0  0  0  0  0  0  0
   11.9888   13.1059   22.2897 C   0  0  0  0  0  0  0  0  0  0  0  0
   12.4749   14.4230   22.4309 O   0  0  0  0  0  0  0  0  0  0  0  0
   11.6992   15.2512   21.5871 C   0  0  0  0  0  0  0  0  0  0  0  0
   10.3402   15.2674   22.2521 C   0  0  0  0  0  0  0  0  0  0  0  0
  1  2  1  0
  2  3  1  0
  3  4  2  0
  3  5  1  0
  5  6  2  0
  6  7  1  0
  7  8  1  0
  8  9  1  0
  8 10  1  0
  8 11  1  0
  7 12  2  0
 12 13  1  0
 13 14  2  0
 14 15  1  0
 15 16  1  0
 15 17  1  0
 17 18  1  0
 17 19  1  0
 19 20  1  0
 20 21  1  0
 21 22  1  0
 22 23  1  0
 14  5  1  0
 23 17  1  0
M  END
>  <energy_score>  (3314) 
-20.004213

>  <inchikey>  (3314) 
NSFJIFBLQCRDOY-UHFFFAOYSA-N

>  <smiles>  (3314) 
COC(=O)c1cc(C(F)(F)F)ncc1N(N)C1(C)CCOCC1

>  <ref_pdb>  (3314) 
A0528a

>  <alias>  (3314) 
NSFJIFBLQCRDOY-UHFFFAOYSA-N-P15-P15-P308-601501

>  <HIPPO Pose ID>  (3314) 
502286

>  <name>  (3314) 
NSFJIFBLQCRDOY-UHFFFAOYSA-N-P15-P15-P308-601501

>  <HIPPO Compound ID>  (3314) 
292857

>  <ref_mols>  (3314) 
A4331a,A0514a

>  <distance_score>  (3314) 
1.583811

>  <inspiration_score>  (3314) 
None

$$$$
NSFJIFBLQCRDOY-UHFFFAOYSA-N-P308-P15-P308-601501
     RDKit          3D

 23 24  0  0  0  0  0  0  0  0999 V2000
    9.3132    8.4006   23.5989 C   0  0  0  0  0  0  0  0  0  0  0  0
    8.5782    9.3114   24.4089 O   0  0  0  0  0  0  0  0  0  0  0  0
    8.6197   10.5593   23.8921 C   0  0  0  0  0  0  0  0  0  0  0  0
    9.1871   10.8676   22.8595 O   0  0  0  0  0  0  0  0  0  0  0  0
    7.9199   11.5051   24.7849 C   0  0  0  0  0  0  0  0  0  0  0  0
    6.8144   11.0677   25.5240 C   0  0  0  0  0  0  0  0  0  0  0  0
    6.1362   11.9944   26.3074 C   0  0  0  0  0  0  0  0  0  0  0  0
    4.9575   11.6066   27.1557 C   0  0  0  0  0  0  0  0  0  0  0  0
    4.7264   10.2704   27.1415 F   0  0  0  0  0  0  0  0  0  0  0  0
    3.7843   12.1813   26.7721 F   0  0  0  0  0  0  0  0  0  0  0  0
    5.1220   11.9189   28.4735 F   0  0  0  0  0  0  0  0  0  0  0  0
    6.5229   13.2881   26.3823 N   0  0  0  0  0  0  0  0  0  0  0  0
    7.5853   13.6739   25.6576 C   0  0  0  0  0  0  0  0  0  0  0  0
    8.3319   12.8442   24.8333 C   0  0  0  0  0  0  0  0  0  0  0  0
    9.4409   13.3594   24.1570 N   0  0  0  0  0  0  0  0  0  0  0  0
   10.6778   12.7044   24.3515 N   0  0  0  0  0  0  0  0  0  0  0  0
    9.2690   14.3632   23.0377 C   0  0  0  0  0  0  0  0  0  0  0  0
    7.8379   14.3113   22.4557 C   0  0  0  0  0  0  0  0  0  0  0  0
   10.2591   14.1334   21.8551 C   0  0  0  0  0  0  0  0  0  0  0  0
   11.4706   15.0646   21.8765 C   0  0  0  0  0  0  0  0  0  0  0  0
   11.9531   15.2319   23.2003 O   0  0  0  0  0  0  0  0  0  0  0  0
   11.0033   15.8518   24.0617 C   0  0  0  0  0  0  0  0  0  0  0  0
    9.5529   15.7540   23.6024 C   0  0  0  0  0  0  0  0  0  0  0  0
  1  2  1  0
  2  3  1  0
  3  4  2  0
  3  5  1  0
  5  6  2  0
  6  7  1  0
  7  8  1  0
  8  9  1  0
  8 10  1  0
  8 11  1  0
  7 12  2  0
 12 13  1  0
 13 14  2  0
 14 15  1  0
 15 16  1  0
 15 17  1  0
 17 18  1  0
 17 19  1  0
 19 20  1  0
 20 21  1  0
 21 22  1  0
 22 23  1  0
 14  5  1  0
 23 17  1  0
M  END
>  <energy_score>  (3315) 
-41.968508

>  <inchikey>  (3315) 
NSFJIFBLQCRDOY-UHFFFAOYSA-N

>  <smiles>  (3315) 
COC(=O)c1cc(C(F)(F)F)ncc1N(N)C1(C)CCOCC1

>  <ref_pdb>  (3315) 
A0528a

>  <alias>  (3315) 
NSFJIFBLQCRDOY-UHFFFAOYSA-N-P308-P15-P308-601501

>  <HIPPO Pose ID>  (3315) 
502287

>  <name>  (3315) 
NSFJIFBLQCRDOY-UHFFFAOYSA-N-P308-P15-P308-601501

>  <HIPPO Compound ID>  (3315) 
292857

>  <ref_mols>  (3315) 
A4331a,A0514a

>  <distance_score>  (3315) 
1.176191

>  <inspiration_score>  (3315) 
None

$$$$
DBJKBWJDHLTAOV-UHFFFAOYSA-N-P15-P15-P308-601501
     RDKit          3D

 23 23  0  0  0  0  0  0  0  0999 V2000
    6.0578   15.7121   23.5524 C   0  0  0  0  0  0  0  0  0  0  0  0
    6.4004   14.3632   23.2513 O   0  0  0  0  0  0  0  0  0  0  0  0
    7.5679   14.2619   22.4402 C   0  0  0  0  0  0  0  0  0  0  0  0
    8.8850   14.1761   23.2395 C   0  0  0  0  0  0  0  0  0  0  0  0
   10.0644   14.3330   22.2567 C   0  0  0  0  0  0  0  0  0  0  0  0
    9.7831   15.2653   21.2273 O   0  0  0  0  0  0  0  0  0  0  0  0
   10.8774   15.3628   20.3296 C   0  0  0  0  0  0  0  0  0  0  0  0
    9.0828   12.8938   23.9939 N   0  0  0  0  0  0  0  0  0  0  0  0
   10.3813   12.6350   24.5179 N   0  0  0  0  0  0  0  0  0  0  0  0
    8.0693   12.4611   24.8589 C   0  0  0  0  0  0  0  0  0  0  0  0
    7.4425   13.3474   25.7342 C   0  0  0  0  0  0  0  0  0  0  0  0
    6.4983   13.0274   26.6409 N   0  0  0  0  0  0  0  0  0  0  0  0
    6.0709   11.7463   26.6655 C   0  0  0  0  0  0  0  0  0  0  0  0
    5.0333   11.3721   27.6830 C   0  0  0  0  0  0  0  0  0  0  0  0
    4.0272   12.2838   27.7662 F   0  0  0  0  0  0  0  0  0  0  0  0
    5.5513   11.2606   28.9416 F   0  0  0  0  0  0  0  0  0  0  0  0
    4.4192   10.1783   27.4413 F   0  0  0  0  0  0  0  0  0  0  0  0
    6.6273   10.7791   25.8563 C   0  0  0  0  0  0  0  0  0  0  0  0
    7.6631   11.1259   24.9763 C   0  0  0  0  0  0  0  0  0  0  0  0
    8.2528    9.9547   24.2988 C   0  0  0  0  0  0  0  0  0  0  0  0
    7.9123    8.8341   24.6536 O   0  0  0  0  0  0  0  0  0  0  0  0
    9.1507   10.2148   23.3318 O   0  0  0  0  0  0  0  0  0  0  0  0
    9.7066    9.0184   22.7896 C   0  0  0  0  0  0  0  0  0  0  0  0
  1  2  1  0
  2  3  1  0
  3  4  1  0
  4  5  1  0
  5  6  1  0
  6  7  1  0
  4  8  1  0
  8  9  1  0
  8 10  1  0
 10 11  2  0
 11 12  1  0
 12 13  2  0
 13 14  1  0
 14 15  1  0
 14 16  1  0
 14 17  1  0
 13 18  1  0
 18 19  2  0
 19 20  1  0
 20 21  2  0
 20 22  1  0
 22 23  1  0
 19 10  1  0
M  END
>  <energy_score>  (3316) 
-44.019219

>  <inchikey>  (3316) 
DBJKBWJDHLTAOV-UHFFFAOYSA-N

>  <smiles>  (3316) 
COCC(COC)N(N)c1cnc(C(F)(F)F)cc1C(=O)OC

>  <ref_pdb>  (3316) 
A0528a

>  <alias>  (3316) 
DBJKBWJDHLTAOV-UHFFFAOYSA-N-P15-P15-P308-601501

>  <HIPPO Pose ID>  (3316) 
502288

>  <name>  (3316) 
DBJKBWJDHLTAOV-UHFFFAOYSA-N-P15-P15-P308-601501

>  <HIPPO Compound ID>  (3316) 
292858

>  <ref_mols>  (3316) 
A4331a,A0514a

>  <distance_score>  (3316) 
1.320091

>  <inspiration_score>  (3316) 
None

$$$$
DBJKBWJDHLTAOV-UHFFFAOYSA-N-P308-P15-P308-601501
     RDKit          3D

 23 23  0  0  0  0  0  0  0  0999 V2000
    5.4180   14.7683   22.4699 C   0  0  0  0  0  0  0  0  0  0  0  0
    6.5590   14.4949   23.2723 O   0  0  0  0  0  0  0  0  0  0  0  0
    7.7137   14.1878   22.4864 C   0  0  0  0  0  0  0  0  0  0  0  0
    9.0051   14.1516   23.3507 C   0  0  0  0  0  0  0  0  0  0  0  0
   10.2097   14.3182   22.4046 C   0  0  0  0  0  0  0  0  0  0  0  0
   10.0347   15.4663   21.5765 O   0  0  0  0  0  0  0  0  0  0  0  0
   11.0377   15.5455   20.5714 C   0  0  0  0  0  0  0  0  0  0  0  0
    9.1535   12.8579   24.1206 N   0  0  0  0  0  0  0  0  0  0  0  0
   10.4215   12.5963   24.7244 N   0  0  0  0  0  0  0  0  0  0  0  0
    8.0641   12.4531   24.9144 C   0  0  0  0  0  0  0  0  0  0  0  0
    7.3723   13.3821   25.6918 C   0  0  0  0  0  0  0  0  0  0  0  0
    6.3154   13.1117   26.4768 N   0  0  0  0  0  0  0  0  0  0  0  0
    5.8500   11.8458   26.4859 C   0  0  0  0  0  0  0  0  0  0  0  0
    4.6503   11.5666   27.3409 C   0  0  0  0  0  0  0  0  0  0  0  0
    4.7756   12.0999   28.5851 F   0  0  0  0  0  0  0  0  0  0  0  0
    4.4175   10.2360   27.5407 F   0  0  0  0  0  0  0  0  0  0  0  0
    3.4853   12.0662   26.8389 F   0  0  0  0  0  0  0  0  0  0  0  0
    6.4779   10.8334   25.7872 C   0  0  0  0  0  0  0  0  0  0  0  0
    7.6166   11.1258   25.0239 C   0  0  0  0  0  0  0  0  0  0  0  0
    8.2289    9.9213   24.4163 C   0  0  0  0  0  0  0  0  0  0  0  0
    7.8741    8.8033   24.7657 O   0  0  0  0  0  0  0  0  0  0  0  0
    9.1466   10.1823   23.4695 O   0  0  0  0  0  0  0  0  0  0  0  0
    9.6736    9.0043   22.8620 C   0  0  0  0  0  0  0  0  0  0  0  0
  1  2  1  0
  2  3  1  0
  3  4  1  0
  4  5  1  0
  5  6  1  0
  6  7  1  0
  4  8  1  0
  8  9  1  0
  8 10  1  0
 10 11  2  0
 11 12  1  0
 12 13  2  0
 13 14  1  0
 14 15  1  0
 14 16  1  0
 14 17  1  0
 13 18  1  0
 18 19  2  0
 19 20  1  0
 20 21  2  0
 20 22  1  0
 22 23  1  0
 19 10  1  0
M  END
>  <energy_score>  (3317) 
-52.038348

>  <inchikey>  (3317) 
DBJKBWJDHLTAOV-UHFFFAOYSA-N

>  <smiles>  (3317) 
COCC(COC)N(N)c1cnc(C(F)(F)F)cc1C(=O)OC

>  <ref_pdb>  (3317) 
A0528a

>  <alias>  (3317) 
DBJKBWJDHLTAOV-UHFFFAOYSA-N-P308-P15-P308-601501

>  <HIPPO Pose ID>  (3317) 
502289

>  <name>  (3317) 
DBJKBWJDHLTAOV-UHFFFAOYSA-N-P308-P15-P308-601501

>  <HIPPO Compound ID>  (3317) 
292858

>  <ref_mols>  (3317) 
A4331a,A0514a

>  <distance_score>  (3317) 
1.348507

>  <inspiration_score>  (3317) 
None

$$$$
KZKQFHALAJCFRD-UHFFFAOYSA-N-P308-P15-P308-601501
     RDKit          3D

 23 24  0  0  0  0  0  0  0  0999 V2000
   10.5042   16.0822   18.8247 C   0  0  0  0  0  0  0  0  0  0  0  0
   10.7307   15.4252   20.1626 C   0  0  0  0  0  0  0  0  0  0  0  0
    9.4578   15.3978   21.0018 C   0  0  0  0  0  0  0  0  0  0  0  0
    9.6744   14.5236   22.1850 C   0  0  0  0  0  0  0  0  0  0  0  0
    8.8177   13.6556   22.6345 N   0  0  0  0  0  0  0  0  0  0  0  0
    9.4162   13.0322   23.7281 N   0  0  0  0  0  0  0  0  0  0  0  0
    8.4681   12.6071   24.6921 C   0  0  0  0  0  0  0  0  0  0  0  0
    7.8049   13.5850   25.4262 C   0  0  0  0  0  0  0  0  0  0  0  0
    6.7616   13.3583   26.2567 N   0  0  0  0  0  0  0  0  0  0  0  0
    6.2887   12.0922   26.3546 C   0  0  0  0  0  0  0  0  0  0  0  0
    5.1232   11.8194   27.2734 C   0  0  0  0  0  0  0  0  0  0  0  0
    4.0381   12.5908   27.0087 F   0  0  0  0  0  0  0  0  0  0  0  0
    5.4250   12.0326   28.5872 F   0  0  0  0  0  0  0  0  0  0  0  0
    4.6747   10.5302   27.2169 F   0  0  0  0  0  0  0  0  0  0  0  0
    6.8890   11.0504   25.6766 C   0  0  0  0  0  0  0  0  0  0  0  0
    7.9959   11.2987   24.8484 C   0  0  0  0  0  0  0  0  0  0  0  0
    8.5252   10.0620   24.2495 C   0  0  0  0  0  0  0  0  0  0  0  0
    8.1246    8.9643   24.6154 O   0  0  0  0  0  0  0  0  0  0  0  0
    9.4200   10.2820   23.2757 O   0  0  0  0  0  0  0  0  0  0  0  0
    9.8324    9.0622   22.6709 C   0  0  0  0  0  0  0  0  0  0  0  0
   10.6324   13.6704   24.0694 C   0  0  0  0  0  0  0  0  0  0  0  0
   11.3714   13.5226   25.0250 O   0  0  0  0  0  0  0  0  0  0  0  0
   10.9121   14.6453   22.9935 C   0  0  0  0  0  0  0  0  0  0  0  0
  1  2  1  0
  2  3  1  0
  3  4  1  0
  4  5  2  0
  5  6  1  0
  6  7  1  0
  7  8  2  0
  8  9  1  0
  9 10  2  0
 10 11  1  0
 11 12  1  0
 11 13  1  0
 11 14  1  0
 10 15  1  0
 15 16  2  0
 16 17  1  0
 17 18  2  0
 17 19  1  0
 19 20  1  0
  6 21  1  0
 21 22  2  0
 21 23  1  0
 23  4  1  0
 16  7  1  0
M  END
>  <energy_score>  (3318) 
-23.872679

>  <inchikey>  (3318) 
KZKQFHALAJCFRD-UHFFFAOYSA-N

>  <smiles>  (3318) 
CCCC1=NN(c2cnc(C(F)(F)F)cc2C(=O)OC)C(=O)C1

>  <ref_pdb>  (3318) 
A0528a

>  <alias>  (3318) 
KZKQFHALAJCFRD-UHFFFAOYSA-N-P308-P15-P308-601501

>  <HIPPO Pose ID>  (3318) 
502295

>  <name>  (3318) 
KZKQFHALAJCFRD-UHFFFAOYSA-N-P308-P15-P308-601501

>  <HIPPO Compound ID>  (3318) 
292861

>  <ref_mols>  (3318) 
A4331a,A0514a

>  <distance_score>  (3318) 
1.569646

>  <inspiration_score>  (3318) 
None

$$$$
BRLVIBKSNUBABO-UHFFFAOYSA-N-P15-P15-P308-601501
     RDKit          3D

 23 24  0  0  0  0  0  0  0  0999 V2000
    9.8172    8.5628   23.4130 C   0  0  0  0  0  0  0  0  0  0  0  0
    8.9413    9.4642   24.0816 O   0  0  0  0  0  0  0  0  0  0  0  0
    9.1193   10.7340   23.6459 C   0  0  0  0  0  0  0  0  0  0  0  0
    9.8977   11.0661   22.7719 O   0  0  0  0  0  0  0  0  0  0  0  0
    8.2092   11.6715   24.3327 C   0  0  0  0  0  0  0  0  0  0  0  0
    7.1868   11.1914   25.1466 C   0  0  0  0  0  0  0  0  0  0  0  0
    6.3874   12.1005   25.8268 C   0  0  0  0  0  0  0  0  0  0  0  0
    5.4598   11.5853   26.9030 C   0  0  0  0  0  0  0  0  0  0  0  0
    4.3022   12.2849   27.0336 F   0  0  0  0  0  0  0  0  0  0  0  0
    5.0870   10.2859   26.7075 F   0  0  0  0  0  0  0  0  0  0  0  0
    6.0463   11.5978   28.1376 F   0  0  0  0  0  0  0  0  0  0  0  0
    6.4920   13.4366   25.6335 N   0  0  0  0  0  0  0  0  0  0  0  0
    7.4770   13.8651   24.8170 C   0  0  0  0  0  0  0  0  0  0  0  0
    8.4404   13.0499   24.2269 C   0  0  0  0  0  0  0  0  0  0  0  0
    9.7472   13.5126   24.0776 N   0  0  0  0  0  0  0  0  0  0  0  0
   10.3459   13.7036   25.3583 N   0  0  0  0  0  0  0  0  0  0  0  0
   10.3529   14.2591   22.9576 C   0  0  1  0  0  0  0  0  0  0  0  0
   11.7318   13.6845   22.6347 C   0  0  0  0  0  0  0  0  0  0  0  0
   12.5233   14.6926   21.8160 C   0  0  0  0  0  0  0  0  0  0  0  0
   11.6775   15.6899   21.2862 O   0  0  0  0  0  0  0  0  0  0  0  0
   10.5939   15.0513   20.6158 C   0  0  2  0  0  0  0  0  0  0  0  0
   10.1381   15.9951   19.5419 C   0  0  0  0  0  0  0  0  0  0  0  0
    9.5702   14.6065   21.6875 C   0  0  0  0  0  0  0  0  0  0  0  0
  1  2  1  0
  2  3  1  0
  3  4  2  0
  3  5  1  0
  5  6  2  0
  6  7  1  0
  7  8  1  0
  8  9  1  0
  8 10  1  0
  8 11  1  0
  7 12  2  0
 12 13  1  0
 13 14  2  0
 14 15  1  0
 15 16  1  0
 17 15  1  6
 17 18  1  0
 18 19  1  0
 19 20  1  0
 20 21  1  0
 21 22  1  6
 21 23  1  0
 14  5  1  0
 23 17  1  0
M  END
>  <energy_score>  (3319) 
-7.120788

>  <inchikey>  (3319) 
BRLVIBKSNUBABO-UHFFFAOYSA-N

>  <smiles>  (3319) 
COC(=O)c1cc(C(F)(F)F)ncc1N(N)C1CCOC(C)C1

>  <ref_pdb>  (3319) 
A0528a

>  <alias>  (3319) 
BRLVIBKSNUBABO-UHFFFAOYSA-N-P15-P15-P308-601501

>  <HIPPO Pose ID>  (3319) 
502300

>  <name>  (3319) 
BRLVIBKSNUBABO-UHFFFAOYSA-N-P15-P15-P308-601501

>  <HIPPO Compound ID>  (3319) 
292864

>  <ref_mols>  (3319) 
A4331a,A0514a

>  <distance_score>  (3319) 
1.563697

>  <inspiration_score>  (3319) 
None

$$$$
BRLVIBKSNUBABO-UHFFFAOYSA-N-P308-P15-P308-601501
     RDKit          3D

 23 24  0  0  0  0  0  0  0  0999 V2000
    9.2641    8.4483   23.8523 C   0  0  0  0  0  0  0  0  0  0  0  0
    8.5927    9.5083   24.5207 O   0  0  0  0  0  0  0  0  0  0  0  0
    8.6215   10.6594   23.8097 C   0  0  0  0  0  0  0  0  0  0  0  0
    9.1912   10.7843   22.7423 O   0  0  0  0  0  0  0  0  0  0  0  0
    7.9117   11.7271   24.5644 C   0  0  0  0  0  0  0  0  0  0  0  0
    6.8980   11.3073   25.4320 C   0  0  0  0  0  0  0  0  0  0  0  0
    6.2108   12.2419   26.1829 C   0  0  0  0  0  0  0  0  0  0  0  0
    5.1589   11.7856   27.1644 C   0  0  0  0  0  0  0  0  0  0  0  0
    3.9531   12.3807   26.9835 F   0  0  0  0  0  0  0  0  0  0  0  0
    4.9136   10.4413   27.1041 F   0  0  0  0  0  0  0  0  0  0  0  0
    5.5056   12.0230   28.4624 F   0  0  0  0  0  0  0  0  0  0  0  0
    6.4865   13.5572   26.0918 N   0  0  0  0  0  0  0  0  0  0  0  0
    7.4467   13.9349   25.2187 C   0  0  0  0  0  0  0  0  0  0  0  0
    8.2276   13.0961   24.4263 C   0  0  0  0  0  0  0  0  0  0  0  0
    9.2979   13.5720   23.6503 N   0  0  0  0  0  0  0  0  0  0  0  0
   10.4743   12.8084   23.7296 N   0  0  0  0  0  0  0  0  0  0  0  0
    9.4647   15.0072   23.2479 C   0  0  1  0  0  0  0  0  0  0  0  0
   10.7627   15.5808   23.8341 C   0  0  0  0  0  0  0  0  0  0  0  0
   11.9576   15.2509   22.9587 C   0  0  0  0  0  0  0  0  0  0  0  0
   11.7447   15.8045   21.6749 O   0  0  0  0  0  0  0  0  0  0  0  0
   10.7209   15.0891   20.9828 C   0  0  2  0  0  0  0  0  0  0  0  0
   10.6603   15.6820   19.5812 C   0  0  0  0  0  0  0  0  0  0  0  0
    9.3804   15.2019   21.7194 C   0  0  0  0  0  0  0  0  0  0  0  0
  1  2  1  0
  2  3  1  0
  3  4  2  0
  3  5  1  0
  5  6  2  0
  6  7  1  0
  7  8  1  0
  8  9  1  0
  8 10  1  0
  8 11  1  0
  7 12  2  0
 12 13  1  0
 13 14  2  0
 14 15  1  0
 15 16  1  0
 17 15  1  6
 17 18  1  0
 18 19  1  0
 19 20  1  0
 20 21  1  0
 21 22  1  6
 21 23  1  0
 14  5  1  0
 23 17  1  0
M  END
>  <energy_score>  (3320) 
-35.320907

>  <inchikey>  (3320) 
BRLVIBKSNUBABO-UHFFFAOYSA-N

>  <smiles>  (3320) 
COC(=O)c1cc(C(F)(F)F)ncc1N(N)C1CCOC(C)C1

>  <ref_pdb>  (3320) 
A0528a

>  <alias>  (3320) 
BRLVIBKSNUBABO-UHFFFAOYSA-N-P308-P15-P308-601501

>  <HIPPO Pose ID>  (3320) 
502301

>  <name>  (3320) 
BRLVIBKSNUBABO-UHFFFAOYSA-N-P308-P15-P308-601501

>  <HIPPO Compound ID>  (3320) 
292864

>  <ref_mols>  (3320) 
A4331a,A0514a

>  <distance_score>  (3320) 
1.316906

>  <inspiration_score>  (3320) 
None

$$$$
CGTZQPIZBFFXAY-UHFFFAOYSA-N-P308-P15-P308-601501
     RDKit          3D

 23 24  0  0  0  0  0  0  0  0999 V2000
    9.5875    8.8487   23.5723 C   0  0  0  0  0  0  0  0  0  0  0  0
    8.5753    9.6957   24.1178 O   0  0  0  0  0  0  0  0  0  0  0  0
    9.0362   10.8676   24.6105 C   0  0  0  0  0  0  0  0  0  0  0  0
   10.1968   11.2381   24.6865 O   0  0  0  0  0  0  0  0  0  0  0  0
    7.8711   11.6790   25.0230 C   0  0  0  0  0  0  0  0  0  0  0  0
    6.8526   11.0978   25.7767 C   0  0  0  0  0  0  0  0  0  0  0  0
    5.8226   11.9182   26.2301 C   0  0  0  0  0  0  0  0  0  0  0  0
    4.8626   11.4460   27.2854 C   0  0  0  0  0  0  0  0  0  0  0  0
    4.7759   10.0979   27.3427 F   0  0  0  0  0  0  0  0  0  0  0  0
    5.2393   11.8330   28.5399 F   0  0  0  0  0  0  0  0  0  0  0  0
    3.5833   11.8897   27.1286 F   0  0  0  0  0  0  0  0  0  0  0  0
    5.7143   13.2185   25.8676 N   0  0  0  0  0  0  0  0  0  0  0  0
    6.6710   13.7339   25.0835 C   0  0  0  0  0  0  0  0  0  0  0  0
    7.8218   13.0450   24.6986 C   0  0  0  0  0  0  0  0  0  0  0  0
    8.8608   13.6258   23.8794 N   0  0  0  0  0  0  0  0  0  0  0  0
    9.1862   14.3075   25.2562 N   0  0  0  0  0  0  0  0  0  0  0  0
    8.7862   14.6569   22.7508 C   0  0  0  0  0  0  0  0  0  0  0  0
    7.8339   15.3014   22.3241 N   0  0  0  0  0  0  0  0  0  0  0  0
   10.0636   14.9244   22.2243 N   0  0  0  0  0  0  0  0  0  0  0  0
   10.4097   15.8198   21.2439 C   0  0  0  0  0  0  0  0  0  0  0  0
   11.7827   15.8352   21.2395 C   0  0  0  0  0  0  0  0  0  0  0  0
   12.2909   14.9964   22.1926 N   0  0  0  0  0  0  0  0  0  0  0  0
   11.2440   14.3956   22.6920 C   0  0  0  0  0  0  0  0  0  0  0  0
  1  2  1  0
  2  3  1  0
  3  4  2  0
  3  5  1  0
  5  6  2  0
  6  7  1  0
  7  8  1  0
  8  9  1  0
  8 10  1  0
  8 11  1  0
  7 12  2  0
 12 13  1  0
 13 14  2  0
 14 15  1  0
 15 16  1  0
 15 17  1  0
 17 18  2  3
 17 19  1  0
 19 20  1  0
 20 21  2  0
 21 22  1  0
 22 23  2  0
 14  5  1  0
 23 19  1  0
M  END
>  <energy_score>  (3321) 
-0.720446

>  <inchikey>  (3321) 
CGTZQPIZBFFXAY-UHFFFAOYSA-N

>  <smiles>  (3321) 
COC(=O)c1cc(C(F)(F)F)ncc1N(N)C(=N)n1ccnc1

>  <ref_pdb>  (3321) 
A0528a

>  <alias>  (3321) 
CGTZQPIZBFFXAY-UHFFFAOYSA-N-P308-P15-P308-601501

>  <HIPPO Pose ID>  (3321) 
502303

>  <name>  (3321) 
CGTZQPIZBFFXAY-UHFFFAOYSA-N-P308-P15-P308-601501

>  <HIPPO Compound ID>  (3321) 
292865

>  <ref_mols>  (3321) 
A4331a,A0514a

>  <distance_score>  (3321) 
1.461669

>  <inspiration_score>  (3321) 
None

$$$$
PAUPWNFEJXNPLY-UHFFFAOYSA-N-P15-P15-P308-601501
     RDKit          3D

 23 24  0  0  0  0  0  0  0  0999 V2000
    9.3773    8.8814   23.1259 C   0  0  0  0  0  0  0  0  0  0  0  0
    8.5316    9.8286   23.7857 O   0  0  0  0  0  0  0  0  0  0  0  0
    9.0874   11.0576   23.9049 C   0  0  0  0  0  0  0  0  0  0  0  0
   10.2296   11.3446   23.5916 O   0  0  0  0  0  0  0  0  0  0  0  0
    8.1085   12.0186   24.4780 C   0  0  0  0  0  0  0  0  0  0  0  0
    7.0324   11.5509   25.2369 C   0  0  0  0  0  0  0  0  0  0  0  0
    6.1903   12.4718   25.8604 C   0  0  0  0  0  0  0  0  0  0  0  0
    5.1701   12.0196   26.8753 C   0  0  0  0  0  0  0  0  0  0  0  0
    5.0863   10.6680   26.9910 F   0  0  0  0  0  0  0  0  0  0  0  0
    3.8973   12.4409   26.6291 F   0  0  0  0  0  0  0  0  0  0  0  0
    5.4674   12.4497   28.1392 F   0  0  0  0  0  0  0  0  0  0  0  0
    6.3135   13.8046   25.6724 N   0  0  0  0  0  0  0  0  0  0  0  0
    7.3506   14.2245   24.9314 C   0  0  0  0  0  0  0  0  0  0  0  0
    8.3311   13.4005   24.3912 C   0  0  0  0  0  0  0  0  0  0  0  0
    9.6153   13.9647   24.2495 N   0  0  0  0  0  0  0  0  0  0  0  0
   10.4509   13.6325   25.3763 N   0  0  0  0  0  0  0  0  0  0  0  0
   10.3568   14.2947   23.0821 C   0  0  0  0  0  0  0  0  0  0  0  0
   11.6912   14.4226   23.3252 N   0  0  0  0  0  0  0  0  0  0  0  0
   12.4715   14.7644   22.3033 C   0  0  0  0  0  0  0  0  0  0  0  0
   12.0033   15.0325   21.0660 C   0  0  0  0  0  0  0  0  0  0  0  0
   10.6407   15.0250   20.9429 C   0  0  0  0  0  0  0  0  0  0  0  0
   10.0793   15.6525   19.7170 C   0  0  0  0  0  0  0  0  0  0  0  0
    9.7869   14.6167   21.9181 N   0  0  0  0  0  0  0  0  0  0  0  0
  1  2  1  0
  2  3  1  0
  3  4  2  0
  3  5  1  0
  5  6  2  0
  6  7  1  0
  7  8  1  0
  8  9  1  0
  8 10  1  0
  8 11  1  0
  7 12  2  0
 12 13  1  0
 13 14  2  0
 14 15  1  0
 15 16  1  0
 15 17  1  0
 17 18  2  0
 18 19  1  0
 19 20  2  0
 20 21  1  0
 21 22  1  0
 21 23  2  0
 14  5  1  0
 23 17  1  0
M  END
>  <energy_score>  (3322) 
-33.833109

>  <inchikey>  (3322) 
PAUPWNFEJXNPLY-UHFFFAOYSA-N

>  <smiles>  (3322) 
COC(=O)c1cc(C(F)(F)F)ncc1N(N)c1nccc(C)n1

>  <ref_pdb>  (3322) 
A0528a

>  <alias>  (3322) 
PAUPWNFEJXNPLY-UHFFFAOYSA-N-P15-P15-P308-601501

>  <HIPPO Pose ID>  (3322) 
502308

>  <name>  (3322) 
PAUPWNFEJXNPLY-UHFFFAOYSA-N-P15-P15-P308-601501

>  <HIPPO Compound ID>  (3322) 
292868

>  <ref_mols>  (3322) 
A4331a,A0514a

>  <distance_score>  (3322) 
1.886019

>  <inspiration_score>  (3322) 
None

$$$$
DYORTXNFXMTIQF-UHFFFAOYSA-N-P15-P15-P308-601501
     RDKit          3D

 23 24  0  0  0  0  0  0  0  0999 V2000
    9.2417    8.7078   22.9625 C   0  0  0  0  0  0  0  0  0  0  0  0
    8.8554   10.0488   23.2692 O   0  0  0  0  0  0  0  0  0  0  0  0
    8.0876   10.1906   24.3624 C   0  0  0  0  0  0  0  0  0  0  0  0
    7.6546    9.2738   25.0440 O   0  0  0  0  0  0  0  0  0  0  0  0
    7.7738   11.6179   24.6655 C   0  0  0  0  0  0  0  0  0  0  0  0
    6.6998   11.7143   25.5585 C   0  0  0  0  0  0  0  0  0  0  0  0
    6.2162   12.9483   25.9437 C   0  0  0  0  0  0  0  0  0  0  0  0
    5.0440   12.9864   26.8968 C   0  0  0  0  0  0  0  0  0  0  0  0
    5.0939   11.9733   27.8127 F   0  0  0  0  0  0  0  0  0  0  0  0
    3.8320   12.8519   26.2871 F   0  0  0  0  0  0  0  0  0  0  0  0
    4.9686   14.1272   27.6400 F   0  0  0  0  0  0  0  0  0  0  0  0
    6.7455   14.0896   25.4599 N   0  0  0  0  0  0  0  0  0  0  0  0
    7.7627   13.9746   24.5721 C   0  0  0  0  0  0  0  0  0  0  0  0
    8.3851   12.7947   24.1698 C   0  0  0  0  0  0  0  0  0  0  0  0
    9.5853   12.8589   23.4086 N   0  0  0  0  0  0  0  0  0  0  0  0
   10.5505   11.8745   23.7255 N   0  0  0  0  0  0  0  0  0  0  0  0
   10.2145   14.0192   22.8039 C   0  0  0  0  0  0  0  0  0  0  0  0
   11.5134   14.3079   23.2338 C   0  0  0  0  0  0  0  0  0  0  0  0
   12.3206   14.9846   22.3690 C   0  0  0  0  0  0  0  0  0  0  0  0
   11.8875   15.4730   21.2234 N   0  0  0  0  0  0  0  0  0  0  0  0
   10.5998   15.2680   20.9264 C   0  0  0  0  0  0  0  0  0  0  0  0
   10.1882   15.8610   19.6276 C   0  0  0  0  0  0  0  0  0  0  0  0
    9.7156   14.5646   21.6806 N   0  0  0  0  0  0  0  0  0  0  0  0
  1  2  1  0
  2  3  1  0
  3  4  2  0
  3  5  1  0
  5  6  2  0
  6  7  1  0
  7  8  1  0
  8  9  1  0
  8 10  1  0
  8 11  1  0
  7 12  2  0
 12 13  1  0
 13 14  2  0
 14 15  1  0
 15 16  1  0
 15 17  1  0
 17 18  2  0
 18 19  1  0
 19 20  2  0
 20 21  1  0
 21 22  1  0
 21 23  2  0
 14  5  1  0
 23 17  1  0
M  END
>  <energy_score>  (3323) 
-31.184782

>  <inchikey>  (3323) 
DYORTXNFXMTIQF-UHFFFAOYSA-N

>  <smiles>  (3323) 
COC(=O)c1cc(C(F)(F)F)ncc1N(N)c1ccnc(C)n1

>  <ref_pdb>  (3323) 
A0528a

>  <alias>  (3323) 
DYORTXNFXMTIQF-UHFFFAOYSA-N-P15-P15-P308-601501

>  <HIPPO Pose ID>  (3323) 
502310

>  <name>  (3323) 
DYORTXNFXMTIQF-UHFFFAOYSA-N-P15-P15-P308-601501

>  <HIPPO Compound ID>  (3323) 
292869

>  <ref_mols>  (3323) 
A4331a,A0514a

>  <distance_score>  (3323) 
1.972071

>  <inspiration_score>  (3323) 
None

$$$$
DYORTXNFXMTIQF-UHFFFAOYSA-N-P308-P15-P308-601501
     RDKit          3D

 23 24  0  0  0  0  0  0  0  0999 V2000
    9.6862    9.1805   22.8575 C   0  0  0  0  0  0  0  0  0  0  0  0
    9.2308   10.4141   23.4215 O   0  0  0  0  0  0  0  0  0  0  0  0
    8.2280   10.2366   24.3004 C   0  0  0  0  0  0  0  0  0  0  0  0
    7.7926    9.1547   24.6752 O   0  0  0  0  0  0  0  0  0  0  0  0
    7.7193   11.4932   24.8930 C   0  0  0  0  0  0  0  0  0  0  0  0
    6.7912   11.2831   25.9118 C   0  0  0  0  0  0  0  0  0  0  0  0
    6.2669   12.3538   26.6123 C   0  0  0  0  0  0  0  0  0  0  0  0
    5.1944   12.0937   27.6418 C   0  0  0  0  0  0  0  0  0  0  0  0
    4.0260   12.7225   27.3552 F   0  0  0  0  0  0  0  0  0  0  0  0
    4.8699   10.7738   27.7811 F   0  0  0  0  0  0  0  0  0  0  0  0
    5.5535   12.5027   28.8934 F   0  0  0  0  0  0  0  0  0  0  0  0
    6.6950   13.6195   26.4053 N   0  0  0  0  0  0  0  0  0  0  0  0
    7.5322   13.8058   25.3684 C   0  0  0  0  0  0  0  0  0  0  0  0
    8.0384   12.8056   24.5369 C   0  0  0  0  0  0  0  0  0  0  0  0
    8.5339   13.1751   23.2649 N   0  0  0  0  0  0  0  0  0  0  0  0
    7.4482   13.3833   22.3623 N   0  0  0  0  0  0  0  0  0  0  0  0
    9.6597   14.0041   22.9613 C   0  0  0  0  0  0  0  0  0  0  0  0
   10.6896   14.1839   23.8574 C   0  0  0  0  0  0  0  0  0  0  0  0
   11.7562   14.9220   23.4062 C   0  0  0  0  0  0  0  0  0  0  0  0
   11.8416   15.4455   22.1736 N   0  0  0  0  0  0  0  0  0  0  0  0
   10.8053   15.2136   21.3532 C   0  0  0  0  0  0  0  0  0  0  0  0
   10.8783   15.7226   19.9470 C   0  0  0  0  0  0  0  0  0  0  0  0
    9.6947   14.5557   21.7211 N   0  0  0  0  0  0  0  0  0  0  0  0
  1  2  1  0
  2  3  1  0
  3  4  2  0
  3  5  1  0
  5  6  2  0
  6  7  1  0
  7  8  1  0
  8  9  1  0
  8 10  1  0
  8 11  1  0
  7 12  2  0
 12 13  1  0
 13 14  2  0
 14 15  1  0
 15 16  1  0
 15 17  1  0
 17 18  2  0
 18 19  1  0
 19 20  2  0
 20 21  1  0
 21 22  1  0
 21 23  2  0
 14  5  1  0
 23 17  1  0
M  END
>  <energy_score>  (3324) 
-43.898856

>  <inchikey>  (3324) 
DYORTXNFXMTIQF-UHFFFAOYSA-N

>  <smiles>  (3324) 
COC(=O)c1cc(C(F)(F)F)ncc1N(N)c1ccnc(C)n1

>  <ref_pdb>  (3324) 
A0528a

>  <alias>  (3324) 
DYORTXNFXMTIQF-UHFFFAOYSA-N-P308-P15-P308-601501

>  <HIPPO Pose ID>  (3324) 
502311

>  <name>  (3324) 
DYORTXNFXMTIQF-UHFFFAOYSA-N-P308-P15-P308-601501

>  <HIPPO Compound ID>  (3324) 
292869

>  <ref_mols>  (3324) 
A4331a,A0514a

>  <distance_score>  (3324) 
1.776074

>  <inspiration_score>  (3324) 
None

$$$$
LFYPXLLWYBJTFK-UHFFFAOYSA-N-P15-P15-P308-601501
     RDKit          3D

 23 24  0  0  0  0  0  0  0  0999 V2000
    9.4194    8.5751   23.0513 C   0  0  0  0  0  0  0  0  0  0  0  0
    8.5563    9.2793   23.9474 O   0  0  0  0  0  0  0  0  0  0  0  0
    8.7622   10.6108   23.9864 C   0  0  0  0  0  0  0  0  0  0  0  0
    9.5872   11.2341   23.3381 O   0  0  0  0  0  0  0  0  0  0  0  0
    7.8505   11.2686   24.9550 C   0  0  0  0  0  0  0  0  0  0  0  0
    6.8690   10.5450   25.6306 C   0  0  0  0  0  0  0  0  0  0  0  0
    6.0739   11.2195   26.5492 C   0  0  0  0  0  0  0  0  0  0  0  0
    5.0982   10.4900   27.4231 C   0  0  0  0  0  0  0  0  0  0  0  0
    4.0430   11.2762   27.7809 F   0  0  0  0  0  0  0  0  0  0  0  0
    4.5566    9.3859   26.8459 F   0  0  0  0  0  0  0  0  0  0  0  0
    5.6622   10.0626   28.5903 F   0  0  0  0  0  0  0  0  0  0  0  0
    6.1918   12.5502   26.7883 N   0  0  0  0  0  0  0  0  0  0  0  0
    7.1094   13.2293   26.0981 C   0  0  0  0  0  0  0  0  0  0  0  0
    7.9915   12.6429   25.2053 C   0  0  0  0  0  0  0  0  0  0  0  0
    8.9223   13.4716   24.5626 N   0  0  0  0  0  0  0  0  0  0  0  0
    8.2750   14.1888   23.4579 C   0  0  0  0  0  0  0  0  0  0  0  0
    9.3340   14.6182   22.5044 C   0  0  0  0  0  0  0  0  0  0  0  0
   10.6078   14.5239   22.7441 N   0  0  0  0  0  0  0  0  0  0  0  0
   11.2071   15.0146   21.6221 N   0  0  0  0  0  0  0  0  0  0  0  0
   12.6209   15.0853   21.4983 C   0  0  0  0  0  0  0  0  0  0  0  0
   10.3384   15.4283   20.6191 C   0  0  0  0  0  0  0  0  0  0  0  0
   10.5900   15.8538   19.5094 O   0  0  0  0  0  0  0  0  0  0  0  0
    8.9822   15.2389   21.1999 C   0  0  0  0  0  0  0  0  0  0  0  0
  1  2  1  0
  2  3  1  0
  3  4  2  0
  3  5  1  0
  5  6  2  0
  6  7  1  0
  7  8  1  0
  8  9  1  0
  8 10  1  0
  8 11  1  0
  7 12  2  0
 12 13  1  0
 13 14  2  0
 14 15  1  0
 15 16  1  0
 16 17  1  0
 17 18  2  0
 18 19  1  0
 19 20  1  0
 19 21  1  0
 21 22  2  0
 21 23  1  0
 14  5  1  0
 23 17  1  0
M  END
>  <energy_score>  (3325) 
-22.282139

>  <inchikey>  (3325) 
LFYPXLLWYBJTFK-UHFFFAOYSA-N

>  <smiles>  (3325) 
COC(=O)c1cc(C(F)(F)F)ncc1NCC1=NN(C)C(=O)C1

>  <ref_pdb>  (3325) 
A0528a

>  <alias>  (3325) 
LFYPXLLWYBJTFK-UHFFFAOYSA-N-P15-P15-P308-601501

>  <HIPPO Pose ID>  (3325) 
502314

>  <name>  (3325) 
LFYPXLLWYBJTFK-UHFFFAOYSA-N-P15-P15-P308-601501

>  <HIPPO Compound ID>  (3325) 
292871

>  <ref_mols>  (3325) 
A4331a,A0514a

>  <distance_score>  (3325) 
1.108353

>  <inspiration_score>  (3325) 
None

$$$$
LFYPXLLWYBJTFK-UHFFFAOYSA-N-P308-P15-P308-601501
     RDKit          3D

 23 24  0  0  0  0  0  0  0  0999 V2000
    9.4352    8.7462   23.7423 C   0  0  0  0  0  0  0  0  0  0  0  0
    8.6359    9.6026   24.5596 O   0  0  0  0  0  0  0  0  0  0  0  0
    8.5492   10.8692   24.0916 C   0  0  0  0  0  0  0  0  0  0  0  0
    9.0268   11.2903   23.0538 O   0  0  0  0  0  0  0  0  0  0  0  0
    7.7697   11.6845   25.0504 C   0  0  0  0  0  0  0  0  0  0  0  0
    6.6779   11.1187   25.7089 C   0  0  0  0  0  0  0  0  0  0  0  0
    5.9431   11.9268   26.5709 C   0  0  0  0  0  0  0  0  0  0  0  0
    4.7892   11.3843   27.3605 C   0  0  0  0  0  0  0  0  0  0  0  0
    4.5942   10.0615   27.1558 F   0  0  0  0  0  0  0  0  0  0  0  0
    4.9595   11.5121   28.7092 F   0  0  0  0  0  0  0  0  0  0  0  0
    3.5954   11.9784   27.0772 F   0  0  0  0  0  0  0  0  0  0  0  0
    6.2478   13.2301   26.7907 N   0  0  0  0  0  0  0  0  0  0  0  0
    7.2973   13.7445   26.1413 C   0  0  0  0  0  0  0  0  0  0  0  0
    8.1113   13.0239   25.2803 C   0  0  0  0  0  0  0  0  0  0  0  0
    9.1184   13.6870   24.5668 N   0  0  0  0  0  0  0  0  0  0  0  0
    8.5065   14.3710   23.4190 C   0  0  0  0  0  0  0  0  0  0  0  0
    9.5752   14.8519   22.5084 C   0  0  0  0  0  0  0  0  0  0  0  0
   10.7208   15.3354   22.8857 N   0  0  0  0  0  0  0  0  0  0  0  0
   11.3835   15.5798   21.7084 N   0  0  0  0  0  0  0  0  0  0  0  0
   12.6604   16.1944   21.6730 C   0  0  0  0  0  0  0  0  0  0  0  0
   10.6571   15.3373   20.5466 C   0  0  0  0  0  0  0  0  0  0  0  0
   10.9826   15.5022   19.3870 O   0  0  0  0  0  0  0  0  0  0  0  0
    9.3486   14.8507   21.0389 C   0  0  0  0  0  0  0  0  0  0  0  0
  1  2  1  0
  2  3  1  0
  3  4  2  0
  3  5  1  0
  5  6  2  0
  6  7  1  0
  7  8  1  0
  8  9  1  0
  8 10  1  0
  8 11  1  0
  7 12  2  0
 12 13  1  0
 13 14  2  0
 14 15  1  0
 15 16  1  0
 16 17  1  0
 17 18  2  0
 18 19  1  0
 19 20  1  0
 19 21  1  0
 21 22  2  0
 21 23  1  0
 14  5  1  0
 23 17  1  0
M  END
>  <energy_score>  (3326) 
-19.622747

>  <inchikey>  (3326) 
LFYPXLLWYBJTFK-UHFFFAOYSA-N

>  <smiles>  (3326) 
COC(=O)c1cc(C(F)(F)F)ncc1NCC1=NN(C)C(=O)C1

>  <ref_pdb>  (3326) 
A0528a

>  <alias>  (3326) 
LFYPXLLWYBJTFK-UHFFFAOYSA-N-P308-P15-P308-601501

>  <HIPPO Pose ID>  (3326) 
502315

>  <name>  (3326) 
LFYPXLLWYBJTFK-UHFFFAOYSA-N-P308-P15-P308-601501

>  <HIPPO Compound ID>  (3326) 
292871

>  <ref_mols>  (3326) 
A4331a,A0514a

>  <distance_score>  (3326) 
1.290239

>  <inspiration_score>  (3326) 
None

$$$$
SPLJKNQQVHVWHZ-UHFFFAOYSA-N-P15-P15-P308-601501
     RDKit          3D

 23 24  0  0  0  0  0  0  0  0999 V2000
    9.2999    8.6368   23.0590 C   0  0  0  0  0  0  0  0  0  0  0  0
    8.4937    9.4786   23.8888 O   0  0  0  0  0  0  0  0  0  0  0  0
    9.0139   10.7164   24.0613 C   0  0  0  0  0  0  0  0  0  0  0  0
   10.0788   11.0871   23.6024 O   0  0  0  0  0  0  0  0  0  0  0  0
    8.0974   11.5757   24.8617 C   0  0  0  0  0  0  0  0  0  0  0  0
    6.9687   11.0123   25.4758 C   0  0  0  0  0  0  0  0  0  0  0  0
    6.1465   11.8317   26.2469 C   0  0  0  0  0  0  0  0  0  0  0  0
    5.1329   11.2603   27.1951 C   0  0  0  0  0  0  0  0  0  0  0  0
    4.8134    9.9775   26.9201 F   0  0  0  0  0  0  0  0  0  0  0  0
    3.9461   11.9322   27.2279 F   0  0  0  0  0  0  0  0  0  0  0  0
    5.5870   11.2438   28.4849 F   0  0  0  0  0  0  0  0  0  0  0  0
    6.3185   13.1695   26.3144 N   0  0  0  0  0  0  0  0  0  0  0  0
    7.4036   13.6804   25.7206 C   0  0  0  0  0  0  0  0  0  0  0  0
    8.3912   12.9352   25.0798 C   0  0  0  0  0  0  0  0  0  0  0  0
    9.6702   13.4955   24.8961 N   0  0  0  0  0  0  0  0  0  0  0  0
   10.1273   14.2768   26.0219 N   0  0  0  0  0  0  0  0  0  0  0  0
   10.0382   14.0611   23.5794 C   0  0  0  0  0  0  0  0  0  0  0  0
   11.5379   13.8376   23.3596 C   0  0  0  0  0  0  0  0  0  0  0  0
   12.1713   14.8698   22.4559 C   0  0  0  0  0  0  0  0  0  0  0  0
   11.6862   14.8429   21.0302 C   0  0  0  0  0  0  0  0  0  0  0  0
   10.3495   15.5190   20.7891 C   0  0  0  0  0  0  0  0  0  0  0  0
    9.0918   14.8691   21.3711 C   0  0  0  0  0  0  0  0  0  0  0  0
    9.2423   13.7037   22.3523 C   0  0  0  0  0  0  0  0  0  0  0  0
  1  2  1  0
  2  3  1  0
  3  4  2  0
  3  5  1  0
  5  6  2  0
  6  7  1  0
  7  8  1  0
  8  9  1  0
  8 10  1  0
  8 11  1  0
  7 12  2  0
 12 13  1  0
 13 14  2  0
 14 15  1  0
 15 16  1  0
 15 17  1  0
 17 18  1  0
 18 19  1  0
 19 20  1  0
 20 21  1  0
 21 22  1  0
 22 23  1  0
 14  5  1  0
 23 17  1  0
M  END
>  <energy_score>  (3327) 
-23.762723

>  <inchikey>  (3327) 
SPLJKNQQVHVWHZ-UHFFFAOYSA-N

>  <smiles>  (3327) 
COC(=O)c1cc(C(F)(F)F)ncc1N(N)C1CCCCCC1

>  <ref_pdb>  (3327) 
A0528a

>  <alias>  (3327) 
SPLJKNQQVHVWHZ-UHFFFAOYSA-N-P15-P15-P308-601501

>  <HIPPO Pose ID>  (3327) 
502334

>  <name>  (3327) 
SPLJKNQQVHVWHZ-UHFFFAOYSA-N-P15-P15-P308-601501

>  <HIPPO Compound ID>  (3327) 
292881

>  <ref_mols>  (3327) 
A4331a,A0514a

>  <distance_score>  (3327) 
1.836509

>  <inspiration_score>  (3327) 
None

$$$$
SPLJKNQQVHVWHZ-UHFFFAOYSA-N-P308-P15-P308-601501
     RDKit          3D

 23 24  0  0  0  0  0  0  0  0999 V2000
    9.2782    8.4863   23.0280 C   0  0  0  0  0  0  0  0  0  0  0  0
    8.4151    9.3583   23.7473 O   0  0  0  0  0  0  0  0  0  0  0  0
    9.0811   10.2805   24.4721 C   0  0  0  0  0  0  0  0  0  0  0  0
   10.2878   10.3479   24.6474 O   0  0  0  0  0  0  0  0  0  0  0  0
    8.0881   11.2279   25.0224 C   0  0  0  0  0  0  0  0  0  0  0  0
    6.9792   10.6978   25.6907 C   0  0  0  0  0  0  0  0  0  0  0  0
    6.0993   11.5743   26.3095 C   0  0  0  0  0  0  0  0  0  0  0  0
    4.9652   11.0825   27.1656 C   0  0  0  0  0  0  0  0  0  0  0  0
    3.8304   11.8175   27.0114 F   0  0  0  0  0  0  0  0  0  0  0  0
    4.6208    9.7883   26.9236 F   0  0  0  0  0  0  0  0  0  0  0  0
    5.2371   11.1357   28.5025 F   0  0  0  0  0  0  0  0  0  0  0  0
    6.2676   12.9163   26.2525 N   0  0  0  0  0  0  0  0  0  0  0  0
    7.2962   13.3923   25.5324 C   0  0  0  0  0  0  0  0  0  0  0  0
    8.2524   12.6145   24.8893 C   0  0  0  0  0  0  0  0  0  0  0  0
    9.2946   13.2067   24.1684 N   0  0  0  0  0  0  0  0  0  0  0  0
   10.6048   12.9625   24.6261 N   0  0  0  0  0  0  0  0  0  0  0  0
    9.0059   14.4056   23.3394 C   0  0  0  0  0  0  0  0  0  0  0  0
    9.6125   15.6725   23.9315 C   0  0  0  0  0  0  0  0  0  0  0  0
   11.1286   15.8137   23.8989 C   0  0  0  0  0  0  0  0  0  0  0  0
   11.8720   15.2809   22.6826 C   0  0  0  0  0  0  0  0  0  0  0  0
   11.3120   15.7267   21.3435 C   0  0  0  0  0  0  0  0  0  0  0  0
    9.8655   15.3247   21.0628 C   0  0  0  0  0  0  0  0  0  0  0  0
    9.3467   14.1302   21.8673 C   0  0  0  0  0  0  0  0  0  0  0  0
  1  2  1  0
  2  3  1  0
  3  4  2  0
  3  5  1  0
  5  6  2  0
  6  7  1  0
  7  8  1  0
  8  9  1  0
  8 10  1  0
  8 11  1  0
  7 12  2  0
 12 13  1  0
 13 14  2  0
 14 15  1  0
 15 16  1  0
 15 17  1  0
 17 18  1  0
 18 19  1  0
 19 20  1  0
 20 21  1  0
 21 22  1  0
 22 23  1  0
 14  5  1  0
 23 17  1  0
M  END
>  <energy_score>  (3328) 
-41.022442

>  <inchikey>  (3328) 
SPLJKNQQVHVWHZ-UHFFFAOYSA-N

>  <smiles>  (3328) 
COC(=O)c1cc(C(F)(F)F)ncc1N(N)C1CCCCCC1

>  <ref_pdb>  (3328) 
A0528a

>  <alias>  (3328) 
SPLJKNQQVHVWHZ-UHFFFAOYSA-N-P308-P15-P308-601501

>  <HIPPO Pose ID>  (3328) 
502335

>  <name>  (3328) 
SPLJKNQQVHVWHZ-UHFFFAOYSA-N-P308-P15-P308-601501

>  <HIPPO Compound ID>  (3328) 
292881

>  <ref_mols>  (3328) 
A4331a,A0514a

>  <distance_score>  (3328) 
1.236276

>  <inspiration_score>  (3328) 
None

$$$$
SGJAREFSGHUZBL-UHFFFAOYSA-N-P15-P15-P308-601501
     RDKit          3D

 23 24  0  0  0  0  0  0  0  0999 V2000
    9.5238    8.8367   23.0323 C   0  0  0  0  0  0  0  0  0  0  0  0
    8.6559    9.7886   23.6503 O   0  0  0  0  0  0  0  0  0  0  0  0
    9.2083   11.0155   23.7955 C   0  0  0  0  0  0  0  0  0  0  0  0
   10.3552   11.3183   23.5264 O   0  0  0  0  0  0  0  0  0  0  0  0
    8.2030   11.9550   24.3486 C   0  0  0  0  0  0  0  0  0  0  0  0
    7.1544   11.4403   25.1153 C   0  0  0  0  0  0  0  0  0  0  0  0
    6.2745   12.3161   25.7419 C   0  0  0  0  0  0  0  0  0  0  0  0
    5.2547   11.7832   26.7185 C   0  0  0  0  0  0  0  0  0  0  0  0
    5.5633   12.0944   28.0084 F   0  0  0  0  0  0  0  0  0  0  0  0
    5.1490   10.4210   26.6996 F   0  0  0  0  0  0  0  0  0  0  0  0
    3.9896   12.2516   26.5233 F   0  0  0  0  0  0  0  0  0  0  0  0
    6.3522   13.6556   25.5741 N   0  0  0  0  0  0  0  0  0  0  0  0
    7.3723   14.1231   24.8310 C   0  0  0  0  0  0  0  0  0  0  0  0
    8.3703   13.3451   24.2490 C   0  0  0  0  0  0  0  0  0  0  0  0
    9.6314   13.9583   24.0691 N   0  0  0  0  0  0  0  0  0  0  0  0
   10.4881   13.6447   25.1873 N   0  0  0  0  0  0  0  0  0  0  0  0
   10.3720   14.3425   22.9158 C   0  0  0  0  0  0  0  0  0  0  0  0
    9.8105   14.7141   21.7095 C   0  0  0  0  0  0  0  0  0  0  0  0
   10.6942   15.2104   20.7585 C   0  0  0  0  0  0  0  0  0  0  0  0
   10.2711   15.8418   19.4776 C   0  0  0  0  0  0  0  0  0  0  0  0
   12.0150   15.2881   20.9621 N   0  0  0  0  0  0  0  0  0  0  0  0
   12.4571   14.9215   22.1452 C   0  0  0  0  0  0  0  0  0  0  0  0
   11.7081   14.4810   23.1505 N   0  0  0  0  0  0  0  0  0  0  0  0
  1  2  1  0
  2  3  1  0
  3  4  2  0
  3  5  1  0
  5  6  2  0
  6  7  1  0
  7  8  1  0
  8  9  1  0
  8 10  1  0
  8 11  1  0
  7 12  2  0
 12 13  1  0
 13 14  2  0
 14 15  1  0
 15 16  1  0
 15 17  1  0
 17 18  2  0
 18 19  1  0
 19 20  1  0
 19 21  2  0
 21 22  1  0
 22 23  2  0
 14  5  1  0
 23 17  1  0
M  END
>  <energy_score>  (3329) 
-37.744746

>  <inchikey>  (3329) 
SGJAREFSGHUZBL-UHFFFAOYSA-N

>  <smiles>  (3329) 
COC(=O)c1cc(C(F)(F)F)ncc1N(N)c1cc(C)ncn1

>  <ref_pdb>  (3329) 
A0528a

>  <alias>  (3329) 
SGJAREFSGHUZBL-UHFFFAOYSA-N-P15-P15-P308-601501

>  <HIPPO Pose ID>  (3329) 
502340

>  <name>  (3329) 
SGJAREFSGHUZBL-UHFFFAOYSA-N-P15-P15-P308-601501

>  <HIPPO Compound ID>  (3329) 
292884

>  <ref_mols>  (3329) 
A4331a,A0514a

>  <distance_score>  (3329) 
1.777809

>  <inspiration_score>  (3329) 
None

$$$$
SGJAREFSGHUZBL-UHFFFAOYSA-N-P308-P15-P308-601501
     RDKit          3D

 23 24  0  0  0  0  0  0  0  0999 V2000
    9.6072    8.6299   23.6289 C   0  0  0  0  0  0  0  0  0  0  0  0
    8.8802    9.6285   24.3406 O   0  0  0  0  0  0  0  0  0  0  0  0
    8.9659   10.8513   23.7689 C   0  0  0  0  0  0  0  0  0  0  0  0
    9.6202   11.1374   22.7846 O   0  0  0  0  0  0  0  0  0  0  0  0
    8.0912   11.8122   24.4629 C   0  0  0  0  0  0  0  0  0  0  0  0
    7.0188   11.3576   25.2236 C   0  0  0  0  0  0  0  0  0  0  0  0
    6.2248   12.2864   25.8808 C   0  0  0  0  0  0  0  0  0  0  0  0
    5.2023   11.7995   26.8818 C   0  0  0  0  0  0  0  0  0  0  0  0
    3.9860   12.3903   26.7639 F   0  0  0  0  0  0  0  0  0  0  0  0
    5.5914   12.0120   28.1731 F   0  0  0  0  0  0  0  0  0  0  0  0
    4.9661   10.4551   26.8015 F   0  0  0  0  0  0  0  0  0  0  0  0
    6.4036   13.6227   25.7302 N   0  0  0  0  0  0  0  0  0  0  0  0
    7.4507   14.0271   24.9825 C   0  0  0  0  0  0  0  0  0  0  0  0
    8.3703   13.1808   24.3788 C   0  0  0  0  0  0  0  0  0  0  0  0
    9.6889   13.6292   24.1546 N   0  0  0  0  0  0  0  0  0  0  0  0
   10.4825   13.4625   25.3410 N   0  0  0  0  0  0  0  0  0  0  0  0
   10.2932   14.4288   23.1475 C   0  0  0  0  0  0  0  0  0  0  0  0
    9.7367   14.6529   21.9027 C   0  0  0  0  0  0  0  0  0  0  0  0
   10.5267   15.3345   20.9837 C   0  0  0  0  0  0  0  0  0  0  0  0
   10.1195   15.5634   19.5693 C   0  0  0  0  0  0  0  0  0  0  0  0
   11.7571   15.7790   21.2687 N   0  0  0  0  0  0  0  0  0  0  0  0
   12.2020   15.5202   22.4861 C   0  0  0  0  0  0  0  0  0  0  0  0
   11.5367   14.8864   23.4532 N   0  0  0  0  0  0  0  0  0  0  0  0
  1  2  1  0
  2  3  1  0
  3  4  2  0
  3  5  1  0
  5  6  2  0
  6  7  1  0
  7  8  1  0
  8  9  1  0
  8 10  1  0
  8 11  1  0
  7 12  2  0
 12 13  1  0
 13 14  2  0
 14 15  1  0
 15 16  1  0
 15 17  1  0
 17 18  2  0
 18 19  1  0
 19 20  1  0
 19 21  2  0
 21 22  1  0
 22 23  2  0
 14  5  1  0
 23 17  1  0
M  END
>  <energy_score>  (3330) 
-42.66693

>  <inchikey>  (3330) 
SGJAREFSGHUZBL-UHFFFAOYSA-N

>  <smiles>  (3330) 
COC(=O)c1cc(C(F)(F)F)ncc1N(N)c1cc(C)ncn1

>  <ref_pdb>  (3330) 
A0528a

>  <alias>  (3330) 
SGJAREFSGHUZBL-UHFFFAOYSA-N-P308-P15-P308-601501

>  <HIPPO Pose ID>  (3330) 
502341

>  <name>  (3330) 
SGJAREFSGHUZBL-UHFFFAOYSA-N-P308-P15-P308-601501

>  <HIPPO Compound ID>  (3330) 
292884

>  <ref_mols>  (3330) 
A4331a,A0514a

>  <distance_score>  (3330) 
1.722846

>  <inspiration_score>  (3330) 
None

$$$$
MXHNAVURYFITJW-UHFFFAOYSA-N-P308-P15-P308-601501
     RDKit          3D

 23 25  0  0  0  0  0  0  0  0999 V2000
    9.4122    8.8817   23.2071 C   0  0  0  0  0  0  0  0  0  0  0  0
    8.4833    9.8320   23.7237 O   0  0  0  0  0  0  0  0  0  0  0  0
    9.0566   10.9142   24.2992 C   0  0  0  0  0  0  0  0  0  0  0  0
   10.2462   11.1109   24.4766 O   0  0  0  0  0  0  0  0  0  0  0  0
    7.9749   11.7866   24.7766 C   0  0  0  0  0  0  0  0  0  0  0  0
    7.1817   11.2936   25.8108 C   0  0  0  0  0  0  0  0  0  0  0  0
    6.1892   12.0932   26.3630 C   0  0  0  0  0  0  0  0  0  0  0  0
    5.2701   11.5938   27.4424 C   0  0  0  0  0  0  0  0  0  0  0  0
    3.9515   12.2834   27.7025 C   0  0  0  0  0  0  0  0  0  0  0  0
    5.0848   12.4646   28.6666 C   0  0  0  0  0  0  0  0  0  0  0  0
    6.0275   13.3641   25.9601 N   0  0  0  0  0  0  0  0  0  0  0  0
    6.7335   13.7729   24.8981 C   0  0  0  0  0  0  0  0  0  0  0  0
    7.6940   13.0287   24.2277 C   0  0  0  0  0  0  0  0  0  0  0  0
    8.1743   13.4697   22.9853 N   0  0  0  0  0  0  0  0  0  0  0  0
    7.1630   13.7681   22.0413 N   0  0  0  0  0  0  0  0  0  0  0  0
    9.4194   14.1044   22.7578 C   0  0  0  0  0  0  0  0  0  0  0  0
   10.3265   14.1333   23.7296 N   0  0  0  0  0  0  0  0  0  0  0  0
   11.5231   14.6516   23.4270 C   0  0  0  0  0  0  0  0  0  0  0  0
   12.5136   14.5063   24.5231 C   0  0  0  0  0  0  0  0  0  0  0  0
   11.8161   15.2135   22.1984 C   0  0  0  0  0  0  0  0  0  0  0  0
   10.8180   15.1553   21.2503 C   0  0  0  0  0  0  0  0  0  0  0  0
   11.0147   15.6761   19.8605 C   0  0  0  0  0  0  0  0  0  0  0  0
    9.6132   14.6308   21.5287 N   0  0  0  0  0  0  0  0  0  0  0  0
  1  2  1  0
  2  3  1  0
  3  4  2  0
  3  5  1  0
  5  6  2  0
  6  7  1  0
  7  8  1  0
  8  9  1  0
  9 10  1  0
  7 11  2  0
 11 12  1  0
 12 13  2  0
 13 14  1  0
 14 15  1  0
 14 16  1  0
 16 17  2  0
 17 18  1  0
 18 19  1  0
 18 20  2  0
 20 21  1  0
 21 22  1  0
 21 23  2  0
 13  5  1  0
 23 16  1  0
 10  8  1  0
M  END
>  <energy_score>  (3331) 
-35.048914

>  <inchikey>  (3331) 
MXHNAVURYFITJW-UHFFFAOYSA-N

>  <smiles>  (3331) 
COC(=O)c1cc(C2CC2)ncc1N(N)c1nc(C)cc(C)n1

>  <ref_pdb>  (3331) 
A0528a

>  <alias>  (3331) 
MXHNAVURYFITJW-UHFFFAOYSA-N-P308-P15-P308-601501

>  <HIPPO Pose ID>  (3331) 
502345

>  <name>  (3331) 
MXHNAVURYFITJW-UHFFFAOYSA-N-P308-P15-P308-601501

>  <HIPPO Compound ID>  (3331) 
292886

>  <ref_mols>  (3331) 
A4331a,A0514a

>  <distance_score>  (3331) 
1.840344

>  <inspiration_score>  (3331) 
None

$$$$
AFZMSBRWZJWOQW-UHFFFAOYSA-N-P15-P15-P308-601501
     RDKit          3D

 23 24  0  0  0  0  0  0  0  0999 V2000
    9.1716    8.3228   22.8269 C   0  0  0  0  0  0  0  0  0  0  0  0
    8.3267    9.1662   23.5995 O   0  0  0  0  0  0  0  0  0  0  0  0
    8.9573   10.3148   23.9166 C   0  0  0  0  0  0  0  0  0  0  0  0
   10.1273   10.5570   23.6728 O   0  0  0  0  0  0  0  0  0  0  0  0
    8.0471   11.2232   24.6437 C   0  0  0  0  0  0  0  0  0  0  0  0
    7.0784   10.6889   25.5014 C   0  0  0  0  0  0  0  0  0  0  0  0
    6.3474   11.5518   26.3033 C   0  0  0  0  0  0  0  0  0  0  0  0
    5.2922   11.0715   27.2590 C   0  0  0  0  0  0  0  0  0  0  0  0
    5.2664   11.6212   28.6662 C   0  0  0  0  0  0  0  0  0  0  0  0
    4.2095   12.0428   27.6933 C   0  0  0  0  0  0  0  0  0  0  0  0
    6.6011   12.8792   26.2950 N   0  0  0  0  0  0  0  0  0  0  0  0
    7.4817   13.3725   25.4085 C   0  0  0  0  0  0  0  0  0  0  0  0
    8.2083   12.6084   24.5142 C   0  0  0  0  0  0  0  0  0  0  0  0
    9.0552   13.1764   23.5575 N   0  0  0  0  0  0  0  0  0  0  0  0
   10.4337   13.1629   23.9296 N   0  0  0  0  0  0  0  0  0  0  0  0
    8.6348   14.3728   22.7632 C   0  0  2  0  0  0  0  0  0  0  0  0
    7.1260   14.4765   22.5147 C   0  0  0  0  0  0  0  0  0  0  0  0
    9.3242   14.3713   21.3728 C   0  0  0  0  0  0  0  0  0  0  0  0
   10.2828   15.4896   20.9057 C   0  0  0  0  0  0  0  0  0  0  0  0
    9.6101   16.8618   20.7696 C   0  0  0  0  0  0  0  0  0  0  0  0
   10.8507   15.1680   19.5014 C   0  0  0  0  0  0  0  0  0  0  0  0
   11.3146   15.6036   21.8749 O   0  0  0  0  0  0  0  0  0  0  0  0
   12.4102   14.7318   21.7561 C   0  0  0  0  0  0  0  0  0  0  0  0
  1  2  1  0
  2  3  1  0
  3  4  2  0
  3  5  1  0
  5  6  2  0
  6  7  1  0
  7  8  1  0
  8  9  1  0
  9 10  1  0
  7 11  2  0
 11 12  1  0
 12 13  2  0
 13 14  1  0
 14 15  1  0
 14 16  1  0
 16 17  1  6
 16 18  1  0
 18 19  1  0
 19 20  1  0
 19 21  1  0
 19 22  1  0
 22 23  1  0
 13  5  1  0
 10  8  1  0
M  END
>  <energy_score>  (3332) 
-29.938577

>  <inchikey>  (3332) 
AFZMSBRWZJWOQW-UHFFFAOYSA-N

>  <smiles>  (3332) 
COC(=O)c1cc(C2CC2)ncc1N(N)C(C)CC(C)(C)OC

>  <ref_pdb>  (3332) 
A0528a

>  <alias>  (3332) 
AFZMSBRWZJWOQW-UHFFFAOYSA-N-P15-P15-P308-601501

>  <HIPPO Pose ID>  (3332) 
502354

>  <name>  (3332) 
AFZMSBRWZJWOQW-UHFFFAOYSA-N-P15-P15-P308-601501

>  <HIPPO Compound ID>  (3332) 
292891

>  <ref_mols>  (3332) 
A4331a,A0514a

>  <distance_score>  (3332) 
1.73693

>  <inspiration_score>  (3332) 
None

$$$$
AFZMSBRWZJWOQW-UHFFFAOYSA-N-P308-P15-P308-601501
     RDKit          3D

 23 24  0  0  0  0  0  0  0  0999 V2000
    9.1795    8.5675   23.1553 C   0  0  0  0  0  0  0  0  0  0  0  0
    8.3256    9.4312   23.9012 O   0  0  0  0  0  0  0  0  0  0  0  0
    9.0101   10.3533   24.6140 C   0  0  0  0  0  0  0  0  0  0  0  0
   10.2227   10.3967   24.7693 O   0  0  0  0  0  0  0  0  0  0  0  0
    8.0574   11.3315   25.1823 C   0  0  0  0  0  0  0  0  0  0  0  0
    6.8554   10.9267   25.7721 C   0  0  0  0  0  0  0  0  0  0  0  0
    6.0665   11.8965   26.3838 C   0  0  0  0  0  0  0  0  0  0  0  0
    4.7155   11.6702   26.9693 C   0  0  0  0  0  0  0  0  0  0  0  0
    4.4056   10.6949   28.0624 C   0  0  0  0  0  0  0  0  0  0  0  0
    4.5075   12.1528   28.3922 C   0  0  0  0  0  0  0  0  0  0  0  0
    6.4691   13.1821   26.4750 N   0  0  0  0  0  0  0  0  0  0  0  0
    7.5835   13.5536   25.8455 C   0  0  0  0  0  0  0  0  0  0  0  0
    8.3831   12.6882   25.1220 C   0  0  0  0  0  0  0  0  0  0  0  0
    9.3713   13.1753   24.2513 N   0  0  0  0  0  0  0  0  0  0  0  0
   10.6472   13.3398   24.8564 N   0  0  0  0  0  0  0  0  0  0  0  0
    8.9051   14.2505   23.3197 C   0  0  2  0  0  0  0  0  0  0  0  0
    7.4952   13.9813   22.7628 C   0  0  0  0  0  0  0  0  0  0  0  0
    9.8512   14.3108   22.1170 C   0  0  0  0  0  0  0  0  0  0  0  0
   10.2930   15.7254   21.7295 C   0  0  0  0  0  0  0  0  0  0  0  0
   11.2975   16.2679   22.7452 C   0  0  0  0  0  0  0  0  0  0  0  0
    9.1187   16.6962   21.6001 C   0  0  0  0  0  0  0  0  0  0  0  0
   10.8472   15.6779   20.4113 O   0  0  0  0  0  0  0  0  0  0  0  0
   12.1365   15.1188   20.2892 C   0  0  0  0  0  0  0  0  0  0  0  0
  1  2  1  0
  2  3  1  0
  3  4  2  0
  3  5  1  0
  5  6  2  0
  6  7  1  0
  7  8  1  0
  8  9  1  0
  9 10  1  0
  7 11  2  0
 11 12  1  0
 12 13  2  0
 13 14  1  0
 14 15  1  0
 14 16  1  0
 16 17  1  6
 16 18  1  0
 18 19  1  0
 19 20  1  0
 19 21  1  0
 19 22  1  0
 22 23  1  0
 13  5  1  0
 10  8  1  0
M  END
>  <energy_score>  (3333) 
-40.872451

>  <inchikey>  (3333) 
AFZMSBRWZJWOQW-UHFFFAOYSA-N

>  <smiles>  (3333) 
COC(=O)c1cc(C2CC2)ncc1N(N)C(C)CC(C)(C)OC

>  <ref_pdb>  (3333) 
A0528a

>  <alias>  (3333) 
AFZMSBRWZJWOQW-UHFFFAOYSA-N-P308-P15-P308-601501

>  <HIPPO Pose ID>  (3333) 
502355

>  <name>  (3333) 
AFZMSBRWZJWOQW-UHFFFAOYSA-N-P308-P15-P308-601501

>  <HIPPO Compound ID>  (3333) 
292891

>  <ref_mols>  (3333) 
A4331a,A0514a

>  <distance_score>  (3333) 
1.642243

>  <inspiration_score>  (3333) 
None

$$$$
WYHDJIJGDAJULK-UHFFFAOYSA-N-P15-P15-P308-601501
     RDKit          3D

 23 25  0  0  0  0  0  0  0  0999 V2000
    5.9974   15.2826   24.0591 C   0  0  0  0  0  0  0  0  0  0  0  0
    7.4007   15.0651   23.9081 O   0  0  0  0  0  0  0  0  0  0  0  0
    7.7012   14.2398   22.8838 C   0  0  0  0  0  0  0  0  0  0  0  0
    6.9795   13.4517   22.2943 O   0  0  0  0  0  0  0  0  0  0  0  0
    9.0730   14.4864   22.4603 C   0  0  0  0  0  0  0  0  0  0  0  0
    9.0706   15.2921   21.3273 C   0  0  0  0  0  0  0  0  0  0  0  0
   10.2493   15.5392   20.6714 C   0  0  0  0  0  0  0  0  0  0  0  0
   10.1877   15.6946   19.1843 C   0  0  0  0  0  0  0  0  0  0  0  0
   11.4846   15.4819   18.4793 C   0  0  0  0  0  0  0  0  0  0  0  0
   10.6753   16.7620   18.2967 C   0  0  0  0  0  0  0  0  0  0  0  0
   11.4191   15.3071   21.2999 N   0  0  0  0  0  0  0  0  0  0  0  0
   11.4003   14.5441   22.4119 C   0  0  0  0  0  0  0  0  0  0  0  0
   10.2597   13.9441   22.9600 C   0  0  0  0  0  0  0  0  0  0  0  0
   10.3627   12.7836   23.8308 N   0  0  0  0  0  0  0  0  0  0  0  0
   11.7409   12.5294   24.1820 N   0  0  0  0  0  0  0  0  0  0  0  0
    9.6357   11.6215   23.1739 C   0  0  0  0  0  0  0  0  0  0  0  0
    8.8730   10.6138   24.0135 C   0  0  0  0  0  0  0  0  0  0  0  0
    7.5856   11.1608   24.6701 C   0  0  0  0  0  0  0  0  0  0  0  0
    6.8079   10.0094   25.3106 C   0  0  0  0  0  0  0  0  0  0  0  0
    5.8592   10.3948   26.4412 C   0  0  0  0  0  0  0  0  0  0  0  0
    5.4743   11.8589   26.4340 C   0  0  0  0  0  0  0  0  0  0  0  0
    6.7047   12.7386   26.5179 C   0  0  0  0  0  0  0  0  0  0  0  0
    7.8734   12.2401   25.6804 C   0  0  0  0  0  0  0  0  0  0  0  0
  1  2  1  0
  2  3  1  0
  3  4  2  0
  3  5  1  0
  5  6  2  0
  6  7  1  0
  7  8  1  0
  8  9  1  0
  9 10  1  0
  7 11  2  0
 11 12  1  0
 12 13  2  0
 13 14  1  0
 14 15  1  0
 14 16  1  0
 16 17  1  0
 17 18  1  0
 18 19  1  0
 19 20  1  0
 20 21  1  0
 21 22  1  0
 22 23  1  0
 13  5  1  0
 23 18  1  0
 10  8  1  0
M  END
>  <energy_score>  (3334) 
-11.21269

>  <inchikey>  (3334) 
WYHDJIJGDAJULK-UHFFFAOYSA-N

>  <smiles>  (3334) 
COC(=O)c1cc(C2CC2)ncc1N(N)CCC1CCCCC1

>  <ref_pdb>  (3334) 
A0528a

>  <alias>  (3334) 
WYHDJIJGDAJULK-UHFFFAOYSA-N-P15-P15-P308-601501

>  <HIPPO Pose ID>  (3334) 
502360

>  <name>  (3334) 
WYHDJIJGDAJULK-UHFFFAOYSA-N-P15-P15-P308-601501

>  <HIPPO Compound ID>  (3334) 
292894

>  <ref_mols>  (3334) 
A4331a,A0514a

>  <distance_score>  (3334) 
1.169902

>  <inspiration_score>  (3334) 
None

$$$$
WYHDJIJGDAJULK-UHFFFAOYSA-N-P308-P15-P308-601501
     RDKit          3D

 23 25  0  0  0  0  0  0  0  0999 V2000
   10.3311   16.0522   26.2024 C   0  0  0  0  0  0  0  0  0  0  0  0
    9.0065   15.7942   25.7131 O   0  0  0  0  0  0  0  0  0  0  0  0
    8.7278   15.6513   24.3919 C   0  0  0  0  0  0  0  0  0  0  0  0
    7.6069   15.8744   23.9482 O   0  0  0  0  0  0  0  0  0  0  0  0
    9.8118   15.2292   23.4847 C   0  0  0  0  0  0  0  0  0  0  0  0
    9.8544   15.8153   22.2219 C   0  0  0  0  0  0  0  0  0  0  0  0
   10.8493   15.3969   21.3525 C   0  0  0  0  0  0  0  0  0  0  0  0
   10.5108   15.1523   19.9279 C   0  0  0  0  0  0  0  0  0  0  0  0
   11.5187   15.2919   18.8323 C   0  0  0  0  0  0  0  0  0  0  0  0
   10.3479   16.2263   18.9253 C   0  0  0  0  0  0  0  0  0  0  0  0
   11.9501   14.7784   21.8074 N   0  0  0  0  0  0  0  0  0  0  0  0
   11.8278   14.1432   22.9733 C   0  0  0  0  0  0  0  0  0  0  0  0
   10.6912   14.1828   23.7608 C   0  0  0  0  0  0  0  0  0  0  0  0
   10.3466   13.0220   24.5422 N   0  0  0  0  0  0  0  0  0  0  0  0
   11.4757   12.5006   25.2507 N   0  0  0  0  0  0  0  0  0  0  0  0
    9.6851   12.0423   23.5654 C   0  0  0  0  0  0  0  0  0  0  0  0
    8.9275   10.9293   24.2713 C   0  0  0  0  0  0  0  0  0  0  0  0
    7.5181   11.3515   24.7237 C   0  0  0  0  0  0  0  0  0  0  0  0
    6.9616   10.3136   25.6792 C   0  0  0  0  0  0  0  0  0  0  0  0
    5.6340   10.6962   26.3018 C   0  0  0  0  0  0  0  0  0  0  0  0
    5.5946   12.0994   26.8791 C   0  0  0  0  0  0  0  0  0  0  0  0
    6.0841   13.1194   25.8728 C   0  0  0  0  0  0  0  0  0  0  0  0
    7.4488   12.7515   25.3203 C   0  0  0  0  0  0  0  0  0  0  0  0
  1  2  1  0
  2  3  1  0
  3  4  2  0
  3  5  1  0
  5  6  2  0
  6  7  1  0
  7  8  1  0
  8  9  1  0
  9 10  1  0
  7 11  2  0
 11 12  1  0
 12 13  2  0
 13 14  1  0
 14 15  1  0
 14 16  1  0
 16 17  1  0
 17 18  1  0
 18 19  1  0
 19 20  1  0
 20 21  1  0
 21 22  1  0
 22 23  1  0
 13  5  1  0
 23 18  1  0
 10  8  1  0
M  END
>  <energy_score>  (3335) 
-19.265328

>  <inchikey>  (3335) 
WYHDJIJGDAJULK-UHFFFAOYSA-N

>  <smiles>  (3335) 
COC(=O)c1cc(C2CC2)ncc1N(N)CCC1CCCCC1

>  <ref_pdb>  (3335) 
A0528a

>  <alias>  (3335) 
WYHDJIJGDAJULK-UHFFFAOYSA-N-P308-P15-P308-601501

>  <HIPPO Pose ID>  (3335) 
502361

>  <name>  (3335) 
WYHDJIJGDAJULK-UHFFFAOYSA-N-P308-P15-P308-601501

>  <HIPPO Compound ID>  (3335) 
292894

>  <ref_mols>  (3335) 
A4331a,A0514a

>  <distance_score>  (3335) 
1.434296

>  <inspiration_score>  (3335) 
None

$$$$
CZDRYVCSMPWHTA-UHFFFAOYSA-N-P308-P15-P308-601501
     RDKit          3D

 23 25  0  0  0  0  0  0  0  0999 V2000
    9.5032    8.5972   23.0407 C   0  0  0  0  0  0  0  0  0  0  0  0
    8.7015    9.5647   23.7003 O   0  0  0  0  0  0  0  0  0  0  0  0
    9.4119   10.4602   24.4201 C   0  0  0  0  0  0  0  0  0  0  0  0
   10.6169   10.4746   24.6206 O   0  0  0  0  0  0  0  0  0  0  0  0
    8.4621   11.4498   24.9523 C   0  0  0  0  0  0  0  0  0  0  0  0
    7.2846   10.9908   25.5588 C   0  0  0  0  0  0  0  0  0  0  0  0
    6.4466   11.9100   26.1679 C   0  0  0  0  0  0  0  0  0  0  0  0
    5.1806   11.5052   26.8703 C   0  0  0  0  0  0  0  0  0  0  0  0
    4.8918   12.0495   28.2515 C   0  0  0  0  0  0  0  0  0  0  0  0
    4.0973   12.5450   27.0840 C   0  0  0  0  0  0  0  0  0  0  0  0
    6.7818   13.2205   26.2071 N   0  0  0  0  0  0  0  0  0  0  0  0
    7.9004   13.6353   25.5807 C   0  0  0  0  0  0  0  0  0  0  0  0
    8.7626   12.8130   24.8787 C   0  0  0  0  0  0  0  0  0  0  0  0
    9.8351   13.3083   24.1151 N   0  0  0  0  0  0  0  0  0  0  0  0
   11.0687   13.3091   24.8354 N   0  0  0  0  0  0  0  0  0  0  0  0
    9.5850   14.4558   23.1687 C   0  0  2  0  0  0  0  0  0  0  0  0
    8.1699   14.4330   22.5989 C   0  0  0  0  0  0  0  0  0  0  0  0
    8.0058   15.4475   21.5007 C   0  0  0  0  0  0  0  0  0  0  0  0
    8.9270   15.2086   20.4518 O   0  0  0  0  0  0  0  0  0  0  0  0
   10.2985   15.3402   20.8128 C   0  0  0  0  0  0  0  0  0  0  0  0
   11.1248   15.0255   19.5497 C   0  0  0  0  0  0  0  0  0  0  0  0
   10.6081   16.7926   21.1671 C   0  0  0  0  0  0  0  0  0  0  0  0
   10.5883   14.3697   21.9855 C   0  0  0  0  0  0  0  0  0  0  0  0
  1  2  1  0
  2  3  1  0
  3  4  2  0
  3  5  1  0
  5  6  2  0
  6  7  1  0
  7  8  1  0
  8  9  1  0
  9 10  1  0
  7 11  2  0
 11 12  1  0
 12 13  2  0
 13 14  1  0
 14 15  1  0
 16 14  1  1
 16 17  1  0
 17 18  1  0
 18 19  1  0
 19 20  1  0
 20 21  1  0
 20 22  1  0
 20 23  1  0
 13  5  1  0
 23 16  1  0
 10  8  1  0
M  END
>  <energy_score>  (3336) 
-80.408426

>  <inchikey>  (3336) 
CZDRYVCSMPWHTA-UHFFFAOYSA-N

>  <smiles>  (3336) 
COC(=O)c1cc(C2CC2)ncc1N(N)C1CCOC(C)(C)C1

>  <ref_pdb>  (3336) 
A0528a

>  <alias>  (3336) 
CZDRYVCSMPWHTA-UHFFFAOYSA-N-P308-P15-P308-601501

>  <HIPPO Pose ID>  (3336) 
502371

>  <name>  (3336) 
CZDRYVCSMPWHTA-UHFFFAOYSA-N-P308-P15-P308-601501

>  <HIPPO Compound ID>  (3336) 
292899

>  <ref_mols>  (3336) 
A4331a,A0514a

>  <distance_score>  (3336) 
1.987602

>  <inspiration_score>  (3336) 
None

$$$$
JRYMXXADRQEZMB-UHFFFAOYSA-N-P15-P15-P308-601501
     RDKit          3D

 23 25  0  0  0  0  0  0  0  0999 V2000
    9.4033    8.6235   23.1108 C   0  0  0  0  0  0  0  0  0  0  0  0
    8.5902    9.3624   24.0280 O   0  0  0  0  0  0  0  0  0  0  0  0
    8.7563   10.7042   23.9762 C   0  0  0  0  0  0  0  0  0  0  0  0
    9.5267   11.2865   23.2344 O   0  0  0  0  0  0  0  0  0  0  0  0
    7.8485   11.3845   24.9391 C   0  0  0  0  0  0  0  0  0  0  0  0
    6.8475   10.6663   25.6059 C   0  0  0  0  0  0  0  0  0  0  0  0
    6.0305   11.3298   26.5140 C   0  0  0  0  0  0  0  0  0  0  0  0
    5.0735   10.6179   27.4231 C   0  0  0  0  0  0  0  0  0  0  0  0
    3.8724   11.3528   27.9824 C   0  0  0  0  0  0  0  0  0  0  0  0
    5.0406   11.0646   28.8721 C   0  0  0  0  0  0  0  0  0  0  0  0
    6.1312   12.6633   26.7071 N   0  0  0  0  0  0  0  0  0  0  0  0
    7.0848   13.3337   26.0584 C   0  0  0  0  0  0  0  0  0  0  0  0
    8.0035   12.7545   25.1983 C   0  0  0  0  0  0  0  0  0  0  0  0
    9.0422   13.5317   24.6659 N   0  0  0  0  0  0  0  0  0  0  0  0
    9.8346   14.1980   25.6697 N   0  0  0  0  0  0  0  0  0  0  0  0
    8.6796   14.3482   23.4587 C   0  0  2  0  0  0  0  0  0  0  0  0
    7.4548   13.9037   22.6737 C   0  0  0  0  0  0  0  0  0  0  0  0
    9.8313   14.5291   22.5114 C   0  0  0  0  0  0  0  0  0  0  0  0
   11.1669   14.0992   22.6777 C   0  0  0  0  0  0  0  0  0  0  0  0
   11.9552   14.4565   21.6673 N   0  0  0  0  0  0  0  0  0  0  0  0
   11.0793   14.9095   20.7487 N   0  0  0  0  0  0  0  0  0  0  0  0
   11.4645   15.0505   19.3688 C   0  0  0  0  0  0  0  0  0  0  0  0
    9.8330   15.1141   21.2602 C   0  0  0  0  0  0  0  0  0  0  0  0
  1  2  1  0
  2  3  1  0
  3  4  2  0
  3  5  1  0
  5  6  2  0
  6  7  1  0
  7  8  1  0
  8  9  1  0
  9 10  1  0
  7 11  2  0
 11 12  1  0
 12 13  2  0
 13 14  1  0
 14 15  1  0
 14 16  1  0
 16 17  1  6
 16 18  1  0
 18 19  1  0
 19 20  2  0
 20 21  1  0
 21 22  1  0
 21 23  1  0
 13  5  1  0
 23 18  2  0
 10  8  1  0
M  END
>  <energy_score>  (3337) 
-35.033552

>  <inchikey>  (3337) 
JRYMXXADRQEZMB-UHFFFAOYSA-N

>  <smiles>  (3337) 
COC(=O)c1cc(C2CC2)ncc1N(N)C(C)c1cnn(C)c1

>  <ref_pdb>  (3337) 
A0528a

>  <alias>  (3337) 
JRYMXXADRQEZMB-UHFFFAOYSA-N-P15-P15-P308-601501

>  <HIPPO Pose ID>  (3337) 
502376

>  <name>  (3337) 
JRYMXXADRQEZMB-UHFFFAOYSA-N-P15-P15-P308-601501

>  <HIPPO Compound ID>  (3337) 
292902

>  <ref_mols>  (3337) 
A4331a,A0514a

>  <distance_score>  (3337) 
1.628613

>  <inspiration_score>  (3337) 
None

$$$$
JRYMXXADRQEZMB-UHFFFAOYSA-N-P308-P15-P308-601501
     RDKit          3D

 23 25  0  0  0  0  0  0  0  0999 V2000
    9.5218    8.4721   23.5363 C   0  0  0  0  0  0  0  0  0  0  0  0
    8.7140    9.2576   24.4079 O   0  0  0  0  0  0  0  0  0  0  0  0
    8.6067   10.5351   23.9799 C   0  0  0  0  0  0  0  0  0  0  0  0
    9.0554   10.9698   22.9309 O   0  0  0  0  0  0  0  0  0  0  0  0
    7.8778   11.3549   24.9681 C   0  0  0  0  0  0  0  0  0  0  0  0
    6.7883   10.7820   25.6392 C   0  0  0  0  0  0  0  0  0  0  0  0
    6.0173   11.5800   26.4732 C   0  0  0  0  0  0  0  0  0  0  0  0
    4.8847   11.0500   27.3060 C   0  0  0  0  0  0  0  0  0  0  0  0
    3.6792   11.9285   27.5717 C   0  0  0  0  0  0  0  0  0  0  0  0
    4.6610   11.6769   28.6709 C   0  0  0  0  0  0  0  0  0  0  0  0
    6.2963   12.8928   26.6324 N   0  0  0  0  0  0  0  0  0  0  0  0
    7.3425   13.4159   25.9850 C   0  0  0  0  0  0  0  0  0  0  0  0
    8.1846   12.7125   25.1383 C   0  0  0  0  0  0  0  0  0  0  0  0
    9.2175   13.4291   24.5086 N   0  0  0  0  0  0  0  0  0  0  0  0
   10.4522   12.7483   24.2853 N   0  0  0  0  0  0  0  0  0  0  0  0
    8.7359   14.5037   23.5629 C   0  0  2  0  0  0  0  0  0  0  0  0
    7.4777   14.0849   22.7691 C   0  0  0  0  0  0  0  0  0  0  0  0
    9.7897   15.0109   22.6312 C   0  0  0  0  0  0  0  0  0  0  0  0
   10.9408   15.7593   22.9505 C   0  0  0  0  0  0  0  0  0  0  0  0
   11.7459   15.9342   21.9009 N   0  0  0  0  0  0  0  0  0  0  0  0
   11.0635   15.3711   20.8825 N   0  0  0  0  0  0  0  0  0  0  0  0
   11.5588   15.3942   19.5306 C   0  0  0  0  0  0  0  0  0  0  0  0
    9.8998   14.7983   21.2781 C   0  0  0  0  0  0  0  0  0  0  0  0
  1  2  1  0
  2  3  1  0
  3  4  2  0
  3  5  1  0
  5  6  2  0
  6  7  1  0
  7  8  1  0
  8  9  1  0
  9 10  1  0
  7 11  2  0
 11 12  1  0
 12 13  2  0
 13 14  1  0
 14 15  1  0
 14 16  1  0
 16 17  1  6
 16 18  1  0
 18 19  1  0
 19 20  2  0
 20 21  1  0
 21 22  1  0
 21 23  1  0
 13  5  1  0
 23 18  2  0
 10  8  1  0
M  END
>  <energy_score>  (3338) 
-45.710779

>  <inchikey>  (3338) 
JRYMXXADRQEZMB-UHFFFAOYSA-N

>  <smiles>  (3338) 
COC(=O)c1cc(C2CC2)ncc1N(N)C(C)c1cnn(C)c1

>  <ref_pdb>  (3338) 
A0528a

>  <alias>  (3338) 
JRYMXXADRQEZMB-UHFFFAOYSA-N-P308-P15-P308-601501

>  <HIPPO Pose ID>  (3338) 
502377

>  <name>  (3338) 
JRYMXXADRQEZMB-UHFFFAOYSA-N-P308-P15-P308-601501

>  <HIPPO Compound ID>  (3338) 
292902

>  <ref_mols>  (3338) 
A4331a,A0514a

>  <distance_score>  (3338) 
1.596893

>  <inspiration_score>  (3338) 
None

$$$$
CEUMUKSZGJCHPI-UHFFFAOYSA-N-P15-P15-P308-601501
     RDKit          3D

 23 25  0  0  0  0  0  0  0  0999 V2000
    9.3385    8.9507   23.1855 C   0  0  0  0  0  0  0  0  0  0  0  0
    8.4582    9.8516   23.8674 O   0  0  0  0  0  0  0  0  0  0  0  0
    8.9624   11.1052   23.9854 C   0  0  0  0  0  0  0  0  0  0  0  0
   10.0898   11.4305   23.6665 O   0  0  0  0  0  0  0  0  0  0  0  0
    7.9376   12.0309   24.5283 C   0  0  0  0  0  0  0  0  0  0  0  0
    6.8922   11.5271   25.3123 C   0  0  0  0  0  0  0  0  0  0  0  0
    5.9865   12.4090   25.8983 C   0  0  0  0  0  0  0  0  0  0  0  0
    4.9338   12.0089   26.8814 C   0  0  0  0  0  0  0  0  0  0  0  0
    5.1290   11.0026   27.9749 C   0  0  0  0  0  0  0  0  0  0  0  0
    5.1536   12.4626   28.3115 C   0  0  0  0  0  0  0  0  0  0  0  0
    6.0218   13.7265   25.6382 N   0  0  0  0  0  0  0  0  0  0  0  0
    7.0134   14.1889   24.8727 C   0  0  0  0  0  0  0  0  0  0  0  0
    8.0601   13.4182   24.3812 C   0  0  0  0  0  0  0  0  0  0  0  0
    9.2979   14.0854   24.2551 N   0  0  0  0  0  0  0  0  0  0  0  0
    9.8873   14.3722   25.5233 N   0  0  0  0  0  0  0  0  0  0  0  0
   10.1885   14.2467   23.1648 C   0  0  0  0  0  0  0  0  0  0  0  0
    9.7427   14.6029   21.9098 C   0  0  0  0  0  0  0  0  0  0  0  0
   10.7227   15.0343   21.0427 C   0  0  0  0  0  0  0  0  0  0  0  0
   10.3458   15.7575   19.4850 S   0  0  0  0  0  0  0  0  0  0  0  0
   11.6421   14.9689   18.4977 C   0  0  0  0  0  0  0  0  0  0  0  0
   12.0228   15.0586   21.3450 N   0  0  0  0  0  0  0  0  0  0  0  0
   12.3479   14.6405   22.5460 C   0  0  0  0  0  0  0  0  0  0  0  0
   11.5057   14.2555   23.4938 N   0  0  0  0  0  0  0  0  0  0  0  0
  1  2  1  0
  2  3  1  0
  3  4  2  0
  3  5  1  0
  5  6  2  0
  6  7  1  0
  7  8  1  0
  8  9  1  0
  9 10  1  0
  7 11  2  0
 11 12  1  0
 12 13  2  0
 13 14  1  0
 14 15  1  0
 14 16  1  0
 16 17  2  0
 17 18  1  0
 18 19  1  0
 19 20  1  0
 18 21  2  0
 21 22  1  0
 22 23  2  0
 13  5  1  0
 23 16  1  0
 10  8  1  0
M  END
>  <energy_score>  (3339) 
-32.950973

>  <inchikey>  (3339) 
CEUMUKSZGJCHPI-UHFFFAOYSA-N

>  <smiles>  (3339) 
COC(=O)c1cc(C2CC2)ncc1N(N)c1cc(SC)ncn1

>  <ref_pdb>  (3339) 
A0528a

>  <alias>  (3339) 
CEUMUKSZGJCHPI-UHFFFAOYSA-N-P15-P15-P308-601501

>  <HIPPO Pose ID>  (3339) 
502388

>  <name>  (3339) 
CEUMUKSZGJCHPI-UHFFFAOYSA-N-P15-P15-P308-601501

>  <HIPPO Compound ID>  (3339) 
292908

>  <ref_mols>  (3339) 
A4331a,A0514a

>  <distance_score>  (3339) 
1.926306

>  <inspiration_score>  (3339) 
None

$$$$
CEUMUKSZGJCHPI-UHFFFAOYSA-N-P308-P15-P308-601501
     RDKit          3D

 23 25  0  0  0  0  0  0  0  0999 V2000
    9.4318    8.6371   23.1585 C   0  0  0  0  0  0  0  0  0  0  0  0
    8.6029    9.6386   23.7371 O   0  0  0  0  0  0  0  0  0  0  0  0
    9.2864   10.6016   24.4009 C   0  0  0  0  0  0  0  0  0  0  0  0
   10.4827   10.6126   24.6399 O   0  0  0  0  0  0  0  0  0  0  0  0
    8.3017   11.6542   24.7374 C   0  0  0  0  0  0  0  0  0  0  0  0
    7.1390   11.2788   25.4037 C   0  0  0  0  0  0  0  0  0  0  0  0
    6.2403   12.2588   25.7969 C   0  0  0  0  0  0  0  0  0  0  0  0
    5.0942   11.9179   26.7078 C   0  0  0  0  0  0  0  0  0  0  0  0
    5.0904   12.4776   28.1120 C   0  0  0  0  0  0  0  0  0  0  0  0
    4.0993   12.9826   27.1100 C   0  0  0  0  0  0  0  0  0  0  0  0
    6.4178   13.5483   25.4387 N   0  0  0  0  0  0  0  0  0  0  0  0
    7.5427   13.8836   24.7811 C   0  0  0  0  0  0  0  0  0  0  0  0
    8.5567   13.0008   24.4612 C   0  0  0  0  0  0  0  0  0  0  0  0
    9.8554   13.4644   24.2067 N   0  0  0  0  0  0  0  0  0  0  0  0
   10.6728   13.2860   25.3694 N   0  0  0  0  0  0  0  0  0  0  0  0
   10.4046   14.3481   23.2443 C   0  0  0  0  0  0  0  0  0  0  0  0
    9.7950   14.6556   22.0500 C   0  0  0  0  0  0  0  0  0  0  0  0
   10.5642   15.3770   21.1567 C   0  0  0  0  0  0  0  0  0  0  0  0
    9.9937   15.7786   19.5495 S   0  0  0  0  0  0  0  0  0  0  0  0
   11.3334   15.0908   18.5612 C   0  0  0  0  0  0  0  0  0  0  0  0
   11.7961   15.8183   21.4157 N   0  0  0  0  0  0  0  0  0  0  0  0
   12.2854   15.4890   22.5904 C   0  0  0  0  0  0  0  0  0  0  0  0
   11.6576   14.7883   23.5301 N   0  0  0  0  0  0  0  0  0  0  0  0
  1  2  1  0
  2  3  1  0
  3  4  2  0
  3  5  1  0
  5  6  2  0
  6  7  1  0
  7  8  1  0
  8  9  1  0
  9 10  1  0
  7 11  2  0
 11 12  1  0
 12 13  2  0
 13 14  1  0
 14 15  1  0
 14 16  1  0
 16 17  2  0
 17 18  1  0
 18 19  1  0
 19 20  1  0
 18 21  2  0
 21 22  1  0
 22 23  2  0
 13  5  1  0
 23 16  1  0
 10  8  1  0
M  END
>  <energy_score>  (3340) 
-49.592644

>  <inchikey>  (3340) 
CEUMUKSZGJCHPI-UHFFFAOYSA-N

>  <smiles>  (3340) 
COC(=O)c1cc(C2CC2)ncc1N(N)c1cc(SC)ncn1

>  <ref_pdb>  (3340) 
A0528a

>  <alias>  (3340) 
CEUMUKSZGJCHPI-UHFFFAOYSA-N-P308-P15-P308-601501

>  <HIPPO Pose ID>  (3340) 
502389

>  <name>  (3340) 
CEUMUKSZGJCHPI-UHFFFAOYSA-N-P308-P15-P308-601501

>  <HIPPO Compound ID>  (3340) 
292908

>  <ref_mols>  (3340) 
A4331a,A0514a

>  <distance_score>  (3340) 
1.881319

>  <inspiration_score>  (3340) 
None

$$$$
SOGFKNFNSYEOSF-UHFFFAOYSA-N-P308-P15-P308-601501
     RDKit          3D

 23 25  0  0  0  0  0  0  0  0999 V2000
    5.6059   15.0532   23.5678 C   0  0  0  0  0  0  0  0  0  0  0  0
    7.0326   15.0015   23.5622 O   0  0  0  0  0  0  0  0  0  0  0  0
    7.5318   14.0463   22.7400 C   0  0  0  0  0  0  0  0  0  0  0  0
    6.9048   13.2561   22.0540 O   0  0  0  0  0  0  0  0  0  0  0  0
    8.9918   14.1648   22.7099 C   0  0  0  0  0  0  0  0  0  0  0  0
    9.5251   14.6781   21.5247 C   0  0  0  0  0  0  0  0  0  0  0  0
   10.8880   14.9328   21.4257 C   0  0  0  0  0  0  0  0  0  0  0  0
   11.5271   15.5112   20.1911 C   0  0  0  0  0  0  0  0  0  0  0  0
   11.3411   14.8862   18.8335 C   0  0  0  0  0  0  0  0  0  0  0  0
   10.7241   16.2072   19.1254 C   0  0  0  0  0  0  0  0  0  0  0  0
   11.6983   14.6997   22.4878 N   0  0  0  0  0  0  0  0  0  0  0  0
   11.1549   14.1752   23.6117 C   0  0  0  0  0  0  0  0  0  0  0  0
    9.8065   13.8765   23.8005 C   0  0  0  0  0  0  0  0  0  0  0  0
    9.3538   13.3632   25.0503 N   0  0  0  0  0  0  0  0  0  0  0  0
    9.5005   14.2951   26.1249 N   0  0  0  0  0  0  0  0  0  0  0  0
    8.2864   12.4072   25.2134 C   0  0  0  0  0  0  0  0  0  0  0  0
    7.1334   12.7635   25.9510 C   0  0  0  0  0  0  0  0  0  0  0  0
    6.1244   11.8460   26.2382 C   0  0  0  0  0  0  0  0  0  0  0  0
    6.2604   10.5337   25.8212 C   0  0  0  0  0  0  0  0  0  0  0  0
    7.3772   10.1552   25.0765 C   0  0  0  0  0  0  0  0  0  0  0  0
    8.3753   11.0800   24.7254 C   0  0  0  0  0  0  0  0  0  0  0  0
    9.4611   10.7415   23.9525 O   0  0  0  0  0  0  0  0  0  0  0  0
    9.5071    9.4006   23.4569 C   0  0  0  0  0  0  0  0  0  0  0  0
  1  2  1  0
  2  3  1  0
  3  4  2  0
  3  5  1  0
  5  6  2  0
  6  7  1  0
  7  8  1  0
  8  9  1  0
  9 10  1  0
  7 11  2  0
 11 12  1  0
 12 13  2  0
 13 14  1  0
 14 15  1  0
 14 16  1  0
 16 17  2  0
 17 18  1  0
 18 19  2  0
 19 20  1  0
 20 21  2  0
 21 22  1  0
 22 23  1  0
 13  5  1  0
 21 16  1  0
 10  8  1  0
M  END
>  <energy_score>  (3341) 
-34.134064

>  <inchikey>  (3341) 
SOGFKNFNSYEOSF-UHFFFAOYSA-N

>  <smiles>  (3341) 
COC(=O)c1cc(C2CC2)ncc1N(N)c1ccccc1OC

>  <ref_pdb>  (3341) 
A0528a

>  <alias>  (3341) 
SOGFKNFNSYEOSF-UHFFFAOYSA-N-P308-P15-P308-601501

>  <HIPPO Pose ID>  (3341) 
502391

>  <name>  (3341) 
SOGFKNFNSYEOSF-UHFFFAOYSA-N-P308-P15-P308-601501

>  <HIPPO Compound ID>  (3341) 
292909

>  <ref_mols>  (3341) 
A4331a,A0514a

>  <distance_score>  (3341) 
1.179812

>  <inspiration_score>  (3341) 
None

$$$$
OYDZGZFMVCUGKJ-UHFFFAOYSA-N-P15-P15-P308-601501
     RDKit          3D

 23 25  0  0  0  0  0  0  0  0999 V2000
    9.3095    8.4720   22.9989 C   0  0  0  0  0  0  0  0  0  0  0  0
    8.4358    9.2000   23.8632 O   0  0  0  0  0  0  0  0  0  0  0  0
    8.8769   10.4498   24.1139 C   0  0  0  0  0  0  0  0  0  0  0  0
    9.9424   10.9114   23.7420 O   0  0  0  0  0  0  0  0  0  0  0  0
    7.8519   11.2182   24.8648 C   0  0  0  0  0  0  0  0  0  0  0  0
    6.9001   10.5667   25.6524 C   0  0  0  0  0  0  0  0  0  0  0  0
    5.9449   11.3121   26.3361 C   0  0  0  0  0  0  0  0  0  0  0  0
    5.0695   10.6574   27.3806 C   0  0  0  0  0  0  0  0  0  0  0  0
    4.0156   11.4447   28.1263 C   0  0  0  0  0  0  0  0  0  0  0  0
    5.2756   11.0402   28.8300 C   0  0  0  0  0  0  0  0  0  0  0  0
    5.8212   12.6417   26.1145 N   0  0  0  0  0  0  0  0  0  0  0  0
    6.7017   13.2452   25.2787 C   0  0  0  0  0  0  0  0  0  0  0  0
    7.8301   12.6131   24.7557 C   0  0  0  0  0  0  0  0  0  0  0  0
    8.8804   13.2296   23.9534 N   0  0  0  0  0  0  0  0  0  0  0  0
    9.1585   13.9758   25.3340 N   0  0  0  0  0  0  0  0  0  0  0  0
    8.8084   14.1661   22.8867 C   0  0  0  0  0  0  0  0  0  0  0  0
    7.8664   14.7564   22.4303 O   0  0  0  0  0  0  0  0  0  0  0  0
   10.1694   14.4383   22.3772 C   0  0  0  0  0  0  0  0  0  0  0  0
   11.6196   13.8883   23.1412 S   0  0  0  0  0  0  0  0  0  0  0  0
   12.5340   14.8379   22.0666 C   0  0  0  0  0  0  0  0  0  0  0  0
   11.8731   15.4513   21.1295 N   0  0  0  0  0  0  0  0  0  0  0  0
   10.5314   15.2259   21.2955 C   0  0  0  0  0  0  0  0  0  0  0  0
    9.6381   15.9065   20.3570 C   0  0  0  0  0  0  0  0  0  0  0  0
  1  2  1  0
  2  3  1  0
  3  4  2  0
  3  5  1  0
  5  6  2  0
  6  7  1  0
  7  8  1  0
  8  9  1  0
  9 10  1  0
  7 11  2  0
 11 12  1  0
 12 13  2  0
 13 14  1  0
 14 15  1  0
 14 16  1  0
 16 17  2  0
 16 18  1  0
 18 19  1  0
 19 20  1  0
 20 21  2  0
 21 22  1  0
 22 23  1  0
 13  5  1  0
 22 18  2  0
 10  8  1  0
M  END
>  <energy_score>  (3342) 
-37.436623

>  <inchikey>  (3342) 
OYDZGZFMVCUGKJ-UHFFFAOYSA-N

>  <smiles>  (3342) 
COC(=O)c1cc(C2CC2)ncc1N(N)C(=O)c1scnc1C

>  <ref_pdb>  (3342) 
A0528a

>  <alias>  (3342) 
OYDZGZFMVCUGKJ-UHFFFAOYSA-N-P15-P15-P308-601501

>  <HIPPO Pose ID>  (3342) 
502392

>  <name>  (3342) 
OYDZGZFMVCUGKJ-UHFFFAOYSA-N-P15-P15-P308-601501

>  <HIPPO Compound ID>  (3342) 
292910

>  <ref_mols>  (3342) 
A4331a,A0514a

>  <distance_score>  (3342) 
1.595821

>  <inspiration_score>  (3342) 
None

$$$$
OYDZGZFMVCUGKJ-UHFFFAOYSA-N-P308-P15-P308-601501
     RDKit          3D

 23 25  0  0  0  0  0  0  0  0999 V2000
    9.5201    8.6800   23.1671 C   0  0  0  0  0  0  0  0  0  0  0  0
    8.6009    9.5279   23.8489 O   0  0  0  0  0  0  0  0  0  0  0  0
    9.1704   10.5892   24.4602 C   0  0  0  0  0  0  0  0  0  0  0  0
   10.3609   10.8505   24.5428 O   0  0  0  0  0  0  0  0  0  0  0  0
    8.0818   11.4222   25.0123 C   0  0  0  0  0  0  0  0  0  0  0  0
    7.0024   10.8067   25.6596 C   0  0  0  0  0  0  0  0  0  0  0  0
    6.0293   11.6034   26.2518 C   0  0  0  0  0  0  0  0  0  0  0  0
    4.9877   11.0604   27.1919 C   0  0  0  0  0  0  0  0  0  0  0  0
    3.7645   11.8842   27.5414 C   0  0  0  0  0  0  0  0  0  0  0  0
    4.8647   11.7486   28.5426 C   0  0  0  0  0  0  0  0  0  0  0  0
    6.0511   12.9469   26.1119 N   0  0  0  0  0  0  0  0  0  0  0  0
    7.0629   13.5190   25.4448 C   0  0  0  0  0  0  0  0  0  0  0  0
    8.1495   12.8204   24.9423 C   0  0  0  0  0  0  0  0  0  0  0  0
    9.1491   13.5393   24.1820 N   0  0  0  0  0  0  0  0  0  0  0  0
    9.9046   13.4128   25.5773 N   0  0  0  0  0  0  0  0  0  0  0  0
    9.1648   14.9723   23.6726 C   0  0  0  0  0  0  0  0  0  0  0  0
    8.3999   15.8526   23.8480 O   0  0  0  0  0  0  0  0  0  0  0  0
   10.3323   15.1680   22.8555 C   0  0  0  0  0  0  0  0  0  0  0  0
   11.8947   15.1089   23.5204 S   0  0  0  0  0  0  0  0  0  0  0  0
   12.4992   15.7418   22.0515 C   0  0  0  0  0  0  0  0  0  0  0  0
   11.6475   15.8373   21.0661 N   0  0  0  0  0  0  0  0  0  0  0  0
   10.3963   15.5105   21.5240 C   0  0  0  0  0  0  0  0  0  0  0  0
    9.2742   15.6291   20.5933 C   0  0  0  0  0  0  0  0  0  0  0  0
  1  2  1  0
  2  3  1  0
  3  4  2  0
  3  5  1  0
  5  6  2  0
  6  7  1  0
  7  8  1  0
  8  9  1  0
  9 10  1  0
  7 11  2  0
 11 12  1  0
 12 13  2  0
 13 14  1  0
 14 15  1  0
 14 16  1  0
 16 17  2  0
 16 18  1  0
 18 19  1  0
 19 20  1  0
 20 21  2  0
 21 22  1  0
 22 23  1  0
 13  5  1  0
 22 18  2  0
 10  8  1  0
M  END
>  <energy_score>  (3343) 
-13.619343

>  <inchikey>  (3343) 
OYDZGZFMVCUGKJ-UHFFFAOYSA-N

>  <smiles>  (3343) 
COC(=O)c1cc(C2CC2)ncc1N(N)C(=O)c1scnc1C

>  <ref_pdb>  (3343) 
A0528a

>  <alias>  (3343) 
OYDZGZFMVCUGKJ-UHFFFAOYSA-N-P308-P15-P308-601501

>  <HIPPO Pose ID>  (3343) 
502393

>  <name>  (3343) 
OYDZGZFMVCUGKJ-UHFFFAOYSA-N-P308-P15-P308-601501

>  <HIPPO Compound ID>  (3343) 
292910

>  <ref_mols>  (3343) 
A4331a,A0514a

>  <distance_score>  (3343) 
1.677567

>  <inspiration_score>  (3343) 
None

$$$$
JRROHJSGJWHPQK-UHFFFAOYSA-N-P15-P15-P308-601501
     RDKit          3D

 23 24  0  0  0  0  0  0  0  0999 V2000
   10.2609   15.9648   19.8968 C   0  0  0  0  0  0  0  0  0  0  0  0
   11.4774   15.0704   20.0323 C   0  0  0  0  0  0  0  0  0  0  0  0
   12.3234   15.2886   21.2818 C   0  0  0  0  0  0  0  0  0  0  0  0
   12.1534   14.2439   22.3760 C   0  0  0  0  0  0  0  0  0  0  0  0
   10.8373   14.3510   23.1054 C   0  0  0  0  0  0  0  0  0  0  0  0
    9.7330   13.5610   22.4577 C   0  0  0  0  0  0  0  0  0  0  0  0
    8.3611   13.6192   23.1228 C   0  0  2  0  0  0  0  0  0  0  0  0
    7.4305   14.6945   22.5578 C   0  0  0  0  0  0  0  0  0  0  0  0
    8.4487   13.6345   24.6035 N   0  0  0  0  0  0  0  0  0  0  0  0
    8.6475   14.8882   25.2584 N   0  0  0  0  0  0  0  0  0  0  0  0
    7.5198   12.7410   25.1917 C   0  0  0  0  0  0  0  0  0  0  0  0
    6.4788   13.2489   25.9534 C   0  0  0  0  0  0  0  0  0  0  0  0
    5.6286   12.5138   26.6720 N   0  0  0  0  0  0  0  0  0  0  0  0
    5.7393   11.1731   26.6310 C   0  0  0  0  0  0  0  0  0  0  0  0
    4.9272   10.4276   27.6426 C   0  0  0  0  0  0  0  0  0  0  0  0
    3.7167   11.0786   28.2750 C   0  0  0  0  0  0  0  0  0  0  0  0
    4.9822   10.9471   29.0660 C   0  0  0  0  0  0  0  0  0  0  0  0
    6.6518   10.5515   25.7948 C   0  0  0  0  0  0  0  0  0  0  0  0
    7.5656   11.3365   25.0839 C   0  0  0  0  0  0  0  0  0  0  0  0
    8.6338   10.6414   24.3238 C   0  0  0  0  0  0  0  0  0  0  0  0
    9.7196   11.1289   24.0765 O   0  0  0  0  0  0  0  0  0  0  0  0
    8.2473    9.4009   23.9411 O   0  0  0  0  0  0  0  0  0  0  0  0
    9.2264    8.7306   23.1385 C   0  0  0  0  0  0  0  0  0  0  0  0
  1  2  1  0
  2  3  1  0
  3  4  1  0
  4  5  1  0
  5  6  1  0
  6  7  1  0
  7  8  1  6
  7  9  1  0
  9 10  1  0
  9 11  1  0
 11 12  2  0
 12 13  1  0
 13 14  2  0
 14 15  1  0
 15 16  1  0
 16 17  1  0
 14 18  1  0
 18 19  2  0
 19 20  1  0
 20 21  2  0
 20 22  1  0
 22 23  1  0
 19 11  1  0
 17 15  1  0
M  END
>  <energy_score>  (3344) 
-41.921069

>  <inchikey>  (3344) 
JRROHJSGJWHPQK-UHFFFAOYSA-N

>  <smiles>  (3344) 
CCCCCCC(C)N(N)c1cnc(C2CC2)cc1C(=O)OC

>  <ref_pdb>  (3344) 
A0528a

>  <alias>  (3344) 
JRROHJSGJWHPQK-UHFFFAOYSA-N-P15-P15-P308-601501

>  <HIPPO Pose ID>  (3344) 
502402

>  <name>  (3344) 
JRROHJSGJWHPQK-UHFFFAOYSA-N-P15-P15-P308-601501

>  <HIPPO Compound ID>  (3344) 
292915

>  <ref_mols>  (3344) 
A4331a,A0514a

>  <distance_score>  (3344) 
1.732959

>  <inspiration_score>  (3344) 
None

$$$$
JRROHJSGJWHPQK-UHFFFAOYSA-N-P308-P15-P308-601501
     RDKit          3D

 23 24  0  0  0  0  0  0  0  0999 V2000
   11.3086   15.6592   18.7863 C   0  0  0  0  0  0  0  0  0  0  0  0
   10.9518   15.3179   20.2059 C   0  0  0  0  0  0  0  0  0  0  0  0
   11.8682   15.8975   21.2839 C   0  0  0  0  0  0  0  0  0  0  0  0
   11.9905   14.9757   22.5045 C   0  0  0  0  0  0  0  0  0  0  0  0
   10.7828   14.8573   23.4273 C   0  0  0  0  0  0  0  0  0  0  0  0
    9.4558   14.6853   22.6956 C   0  0  0  0  0  0  0  0  0  0  0  0
    8.3288   13.9347   23.3943 C   0  0  2  0  0  0  0  0  0  0  0  0
    6.9737   14.4956   22.9311 C   0  0  0  0  0  0  0  0  0  0  0  0
    8.4891   13.9310   24.8658 N   0  0  0  0  0  0  0  0  0  0  0  0
    8.5336   15.1918   25.5446 N   0  0  0  0  0  0  0  0  0  0  0  0
    7.6023   12.9836   25.4393 C   0  0  0  0  0  0  0  0  0  0  0  0
    6.4975   13.4439   26.1438 C   0  0  0  0  0  0  0  0  0  0  0  0
    5.5721   12.6671   26.7120 N   0  0  0  0  0  0  0  0  0  0  0  0
    5.6830   11.3325   26.5910 C   0  0  0  0  0  0  0  0  0  0  0  0
    4.7496   10.5328   27.4505 C   0  0  0  0  0  0  0  0  0  0  0  0
    3.4866   11.1654   27.9999 C   0  0  0  0  0  0  0  0  0  0  0  0
    4.6531   10.9518   28.9076 C   0  0  0  0  0  0  0  0  0  0  0  0
    6.7077   10.7629   25.8483 C   0  0  0  0  0  0  0  0  0  0  0  0
    7.6980   11.5909   25.2973 C   0  0  0  0  0  0  0  0  0  0  0  0
    8.8809   10.9408   24.6711 C   0  0  0  0  0  0  0  0  0  0  0  0
   10.0224   11.3688   24.6896 O   0  0  0  0  0  0  0  0  0  0  0  0
    8.4727    9.7884   24.0800 O   0  0  0  0  0  0  0  0  0  0  0  0
    9.5101    9.0348   23.4519 C   0  0  0  0  0  0  0  0  0  0  0  0
  1  2  1  0
  2  3  1  0
  3  4  1  0
  4  5  1  0
  5  6  1  0
  6  7  1  0
  7  8  1  1
  7  9  1  0
  9 10  1  0
  9 11  1  0
 11 12  2  0
 12 13  1  0
 13 14  2  0
 14 15  1  0
 15 16  1  0
 16 17  1  0
 14 18  1  0
 18 19  2  0
 19 20  1  0
 20 21  2  0
 20 22  1  0
 22 23  1  0
 19 11  1  0
 17 15  1  0
M  END
>  <energy_score>  (3345) 
-45.906949

>  <inchikey>  (3345) 
JRROHJSGJWHPQK-UHFFFAOYSA-N

>  <smiles>  (3345) 
CCCCCCC(C)N(N)c1cnc(C2CC2)cc1C(=O)OC

>  <ref_pdb>  (3345) 
A0528a

>  <alias>  (3345) 
JRROHJSGJWHPQK-UHFFFAOYSA-N-P308-P15-P308-601501

>  <HIPPO Pose ID>  (3345) 
502403

>  <name>  (3345) 
JRROHJSGJWHPQK-UHFFFAOYSA-N-P308-P15-P308-601501

>  <HIPPO Compound ID>  (3345) 
292915

>  <ref_mols>  (3345) 
A4331a,A0514a

>  <distance_score>  (3345) 
1.597718

>  <inspiration_score>  (3345) 
None

$$$$
NQULXENZPKIEOO-UHFFFAOYSA-N-P15-P15-P308-601501
     RDKit          3D

 23 25  0  0  0  0  0  0  0  0999 V2000
    9.2339    8.4725   22.9262 C   0  0  0  0  0  0  0  0  0  0  0  0
    8.3370    9.3105   23.6534 O   0  0  0  0  0  0  0  0  0  0  0  0
    8.8509   10.5378   23.8648 C   0  0  0  0  0  0  0  0  0  0  0  0
    9.9839   10.8959   23.5974 O   0  0  0  0  0  0  0  0  0  0  0  0
    7.8998   11.4040   24.5728 C   0  0  0  0  0  0  0  0  0  0  0  0
    7.1186   10.8558   25.5898 C   0  0  0  0  0  0  0  0  0  0  0  0
    6.3934   11.7111   26.4015 C   0  0  0  0  0  0  0  0  0  0  0  0
    5.4377   11.2022   27.4429 C   0  0  0  0  0  0  0  0  0  0  0  0
    5.4172   11.8378   28.8115 C   0  0  0  0  0  0  0  0  0  0  0  0
    4.2869   12.0960   27.8638 C   0  0  0  0  0  0  0  0  0  0  0  0
    6.5354   13.0544   26.2934 N   0  0  0  0  0  0  0  0  0  0  0  0
    7.2037   13.5522   25.2378 C   0  0  0  0  0  0  0  0  0  0  0  0
    7.8435   12.7743   24.2864 C   0  0  0  0  0  0  0  0  0  0  0  0
    8.0329   13.2590   22.9676 N   0  0  0  0  0  0  0  0  0  0  0  0
    6.7642   13.6453   22.3671 N   0  0  0  0  0  0  0  0  0  0  0  0
    9.1647   14.2271   22.7086 C   0  0  1  0  0  0  0  0  0  0  0  0
   10.5130   13.5701   22.9399 C   0  0  0  0  0  0  0  0  0  0  0  0
   11.6818   14.5051   22.7339 C   0  0  0  0  0  0  0  0  0  0  0  0
   11.8786   14.9200   21.3052 C   0  0  0  0  0  0  0  0  0  0  0  0
   10.4381   15.5627   20.5107 S   0  0  0  0  0  0  0  0  0  0  0  0
   10.3121   16.9780   20.7652 O   0  0  0  0  0  0  0  0  0  0  0  0
   10.5671   15.1455   19.1321 O   0  0  0  0  0  0  0  0  0  0  0  0
    9.0355   14.7826   21.2864 C   0  0  0  0  0  0  0  0  0  0  0  0
  1  2  1  0
  2  3  1  0
  3  4  2  0
  3  5  1  0
  5  6  2  0
  6  7  1  0
  7  8  1  0
  8  9  1  0
  9 10  1  0
  7 11  2  0
 11 12  1  0
 12 13  2  0
 13 14  1  0
 14 15  1  0
 16 14  1  6
 16 17  1  0
 17 18  1  0
 18 19  1  0
 19 20  1  0
 20 21  2  0
 20 22  2  0
 20 23  1  0
 13  5  1  0
 23 16  1  0
 10  8  1  0
M  END
>  <energy_score>  (3346) 
-27.205345

>  <inchikey>  (3346) 
NQULXENZPKIEOO-UHFFFAOYSA-N

>  <smiles>  (3346) 
COC(=O)c1cc(C2CC2)ncc1N(N)C1CCCS(=O)(=O)C1

>  <ref_pdb>  (3346) 
A0528a

>  <alias>  (3346) 
NQULXENZPKIEOO-UHFFFAOYSA-N-P15-P15-P308-601501

>  <HIPPO Pose ID>  (3346) 
502406

>  <name>  (3346) 
NQULXENZPKIEOO-UHFFFAOYSA-N-P15-P15-P308-601501

>  <HIPPO Compound ID>  (3346) 
292917

>  <ref_mols>  (3346) 
A4331a,A0514a

>  <distance_score>  (3346) 
1.759871

>  <inspiration_score>  (3346) 
None

$$$$
NQULXENZPKIEOO-UHFFFAOYSA-N-P308-P15-P308-601501
     RDKit          3D

 23 25  0  0  0  0  0  0  0  0999 V2000
    9.3061    8.4672   23.8338 C   0  0  0  0  0  0  0  0  0  0  0  0
    8.6041    9.5186   24.4865 O   0  0  0  0  0  0  0  0  0  0  0  0
    8.7269   10.6962   23.8383 C   0  0  0  0  0  0  0  0  0  0  0  0
    9.3612   10.8695   22.8139 O   0  0  0  0  0  0  0  0  0  0  0  0
    7.9978   11.7476   24.5791 C   0  0  0  0  0  0  0  0  0  0  0  0
    6.8726   11.3567   25.3372 C   0  0  0  0  0  0  0  0  0  0  0  0
    6.1212   12.3250   25.9793 C   0  0  0  0  0  0  0  0  0  0  0  0
    4.8243   12.0800   26.6811 C   0  0  0  0  0  0  0  0  0  0  0  0
    4.5892   11.0545   27.7471 C   0  0  0  0  0  0  0  0  0  0  0  0
    4.7694   12.4894   28.1395 C   0  0  0  0  0  0  0  0  0  0  0  0
    6.5008   13.6156   25.9466 N   0  0  0  0  0  0  0  0  0  0  0  0
    7.5579   13.9677   25.1941 C   0  0  0  0  0  0  0  0  0  0  0  0
    8.3475   13.1017   24.4486 C   0  0  0  0  0  0  0  0  0  0  0  0
    9.4034   13.6339   23.6884 N   0  0  0  0  0  0  0  0  0  0  0  0
   10.6591   13.0035   23.6666 N   0  0  0  0  0  0  0  0  0  0  0  0
    9.1218   14.7653   22.7426 C   0  0  1  0  0  0  0  0  0  0  0  0
    9.9371   15.9783   23.1562 C   0  0  0  0  0  0  0  0  0  0  0  0
   11.4113   15.9727   22.7611 C   0  0  0  0  0  0  0  0  0  0  0  0
   11.7828   15.3444   21.4351 C   0  0  0  0  0  0  0  0  0  0  0  0
   10.4322   15.3582   20.3175 S   0  0  0  0  0  0  0  0  0  0  0  0
    9.9433   16.7163   20.2090 O   0  0  0  0  0  0  0  0  0  0  0  0
   10.8534   14.6563   19.1216 O   0  0  0  0  0  0  0  0  0  0  0  0
    9.2732   14.3725   21.2702 C   0  0  0  0  0  0  0  0  0  0  0  0
  1  2  1  0
  2  3  1  0
  3  4  2  0
  3  5  1  0
  5  6  2  0
  6  7  1  0
  7  8  1  0
  8  9  1  0
  9 10  1  0
  7 11  2  0
 11 12  1  0
 12 13  2  0
 13 14  1  0
 14 15  1  0
 16 14  1  1
 16 17  1  0
 17 18  1  0
 18 19  1  0
 19 20  1  0
 20 21  2  0
 20 22  2  0
 20 23  1  0
 13  5  1  0
 23 16  1  0
 10  8  1  0
M  END
>  <energy_score>  (3347) 
-44.971638

>  <inchikey>  (3347) 
NQULXENZPKIEOO-UHFFFAOYSA-N

>  <smiles>  (3347) 
COC(=O)c1cc(C2CC2)ncc1N(N)C1CCCS(=O)(=O)C1

>  <ref_pdb>  (3347) 
A0528a

>  <alias>  (3347) 
NQULXENZPKIEOO-UHFFFAOYSA-N-P308-P15-P308-601501

>  <HIPPO Pose ID>  (3347) 
502407

>  <name>  (3347) 
NQULXENZPKIEOO-UHFFFAOYSA-N-P308-P15-P308-601501

>  <HIPPO Compound ID>  (3347) 
292917

>  <ref_mols>  (3347) 
A4331a,A0514a

>  <distance_score>  (3347) 
1.556341

>  <inspiration_score>  (3347) 
None

$$$$
JWIJSCUOPBFSSC-UHFFFAOYSA-N-P15-P15-P308-601501
     RDKit          3D

 23 25  0  0  0  0  0  0  0  0999 V2000
    5.9394   15.5058   23.1792 C   0  0  0  0  0  0  0  0  0  0  0  0
    7.3432   15.2476   23.1376 O   0  0  0  0  0  0  0  0  0  0  0  0
    7.6698   14.1316   22.4510 C   0  0  0  0  0  0  0  0  0  0  0  0
    6.9221   13.3264   21.9307 O   0  0  0  0  0  0  0  0  0  0  0  0
    9.1262   14.0389   22.3672 C   0  0  0  0  0  0  0  0  0  0  0  0
    9.7037   14.8790   21.4330 C   0  0  0  0  0  0  0  0  0  0  0  0
   11.0489   14.7314   21.1780 C   0  0  0  0  0  0  0  0  0  0  0  0
   11.6912   15.2938   19.9696 C   0  0  0  0  0  0  0  0  0  0  0  0
   11.6965   14.6392   18.6264 C   0  0  0  0  0  0  0  0  0  0  0  0
   10.8726   15.8641   18.8148 C   0  0  0  0  0  0  0  0  0  0  0  0
   11.8467   14.0357   22.0214 N   0  0  0  0  0  0  0  0  0  0  0  0
   11.2563   13.1976   22.8827 C   0  0  0  0  0  0  0  0  0  0  0  0
    9.8878   13.0549   23.0108 C   0  0  0  0  0  0  0  0  0  0  0  0
    9.3244   11.9438   23.7015 N   0  0  0  0  0  0  0  0  0  0  0  0
    9.8239   10.6621   23.4129 N   0  0  0  0  0  0  0  0  0  0  0  0
    8.3604   12.0759   24.7293 C   0  0  0  0  0  0  0  0  0  0  0  0
    7.4346   11.0867   25.0852 C   0  0  0  0  0  0  0  0  0  0  0  0
    6.4018   11.3962   25.9702 C   0  0  0  0  0  0  0  0  0  0  0  0
    6.3165   12.6865   26.4961 C   0  0  0  0  0  0  0  0  0  0  0  0
    5.2318   13.1082   27.2997 C   0  0  0  0  0  0  0  0  0  0  0  0
    4.3741   13.5075   27.9664 N   0  0  0  0  0  0  0  0  0  0  0  0
    7.2875   13.6346   26.2368 C   0  0  0  0  0  0  0  0  0  0  0  0
    8.3110   13.3142   25.3829 C   0  0  0  0  0  0  0  0  0  0  0  0
  1  2  1  0
  2  3  1  0
  3  4  2  0
  3  5  1  0
  5  6  2  0
  6  7  1  0
  7  8  1  0
  8  9  1  0
  9 10  1  0
  7 11  2  0
 11 12  1  0
 12 13  2  0
 13 14  1  0
 14 15  1  0
 14 16  1  0
 16 17  2  0
 17 18  1  0
 18 19  2  0
 19 20  1  0
 20 21  3  0
 19 22  1  0
 22 23  2  0
 13  5  1  0
 23 16  1  0
 10  8  1  0
M  END
>  <energy_score>  (3348) 
-29.545972

>  <inchikey>  (3348) 
JWIJSCUOPBFSSC-UHFFFAOYSA-N

>  <smiles>  (3348) 
COC(=O)c1cc(C2CC2)ncc1N(N)c1ccc(C#N)cc1

>  <ref_pdb>  (3348) 
A0528a

>  <alias>  (3348) 
JWIJSCUOPBFSSC-UHFFFAOYSA-N-P15-P15-P308-601501

>  <HIPPO Pose ID>  (3348) 
502412

>  <name>  (3348) 
JWIJSCUOPBFSSC-UHFFFAOYSA-N-P15-P15-P308-601501

>  <HIPPO Compound ID>  (3348) 
292920

>  <ref_mols>  (3348) 
A4331a,A0514a

>  <distance_score>  (3348) 
1.896591

>  <inspiration_score>  (3348) 
None

$$$$
JWIJSCUOPBFSSC-UHFFFAOYSA-N-P308-P15-P308-601501
     RDKit          3D

 23 25  0  0  0  0  0  0  0  0999 V2000
    7.4931   16.3199   23.5036 C   0  0  0  0  0  0  0  0  0  0  0  0
    6.8823   15.1248   22.9886 O   0  0  0  0  0  0  0  0  0  0  0  0
    7.5728   14.0419   22.5526 C   0  0  0  0  0  0  0  0  0  0  0  0
    6.9983   13.0423   22.1431 O   0  0  0  0  0  0  0  0  0  0  0  0
    9.0437   14.1131   22.5053 C   0  0  0  0  0  0  0  0  0  0  0  0
    9.5564   15.0267   21.5950 C   0  0  0  0  0  0  0  0  0  0  0  0
   10.9242   15.0983   21.4166 C   0  0  0  0  0  0  0  0  0  0  0  0
   11.5172   15.8231   20.2638 C   0  0  0  0  0  0  0  0  0  0  0  0
   11.6521   15.0785   18.9557 C   0  0  0  0  0  0  0  0  0  0  0  0
   10.7193   16.2281   19.0566 C   0  0  0  0  0  0  0  0  0  0  0  0
   11.7692   14.4494   22.2436 N   0  0  0  0  0  0  0  0  0  0  0  0
   11.2475   13.5317   23.0815 C   0  0  0  0  0  0  0  0  0  0  0  0
    9.8976   13.2302   23.1907 C   0  0  0  0  0  0  0  0  0  0  0  0
    9.4268   12.1029   23.9407 N   0  0  0  0  0  0  0  0  0  0  0  0
   10.3118   11.0372   24.1653 N   0  0  0  0  0  0  0  0  0  0  0  0
    8.4091   12.2447   24.9120 C   0  0  0  0  0  0  0  0  0  0  0  0
    7.4052   11.2863   25.0950 C   0  0  0  0  0  0  0  0  0  0  0  0
    6.2952   11.6109   25.8656 C   0  0  0  0  0  0  0  0  0  0  0  0
    6.2156   12.8830   26.4366 C   0  0  0  0  0  0  0  0  0  0  0  0
    5.0764   13.3086   27.1567 C   0  0  0  0  0  0  0  0  0  0  0  0
    4.1818   13.6989   27.7786 N   0  0  0  0  0  0  0  0  0  0  0  0
    7.2550   13.7945   26.3353 C   0  0  0  0  0  0  0  0  0  0  0  0
    8.3659   13.4530   25.6107 C   0  0  0  0  0  0  0  0  0  0  0  0
  1  2  1  0
  2  3  1  0
  3  4  2  0
  3  5  1  0
  5  6  2  0
  6  7  1  0
  7  8  1  0
  8  9  1  0
  9 10  1  0
  7 11  2  0
 11 12  1  0
 12 13  2  0
 13 14  1  0
 14 15  1  0
 14 16  1  0
 16 17  2  0
 17 18  1  0
 18 19  2  0
 19 20  1  0
 20 21  3  0
 19 22  1  0
 22 23  2  0
 13  5  1  0
 23 16  1  0
 10  8  1  0
M  END
>  <energy_score>  (3349) 
-24.391241

>  <inchikey>  (3349) 
JWIJSCUOPBFSSC-UHFFFAOYSA-N

>  <smiles>  (3349) 
COC(=O)c1cc(C2CC2)ncc1N(N)c1ccc(C#N)cc1

>  <ref_pdb>  (3349) 
A0528a

>  <alias>  (3349) 
JWIJSCUOPBFSSC-UHFFFAOYSA-N-P308-P15-P308-601501

>  <HIPPO Pose ID>  (3349) 
502413

>  <name>  (3349) 
JWIJSCUOPBFSSC-UHFFFAOYSA-N-P308-P15-P308-601501

>  <HIPPO Compound ID>  (3349) 
292920

>  <ref_mols>  (3349) 
A4331a,A0514a

>  <distance_score>  (3349) 
1.922274

>  <inspiration_score>  (3349) 
None

$$$$
WFGQJQXFCUYFSQ-UHFFFAOYSA-N-P15-P15-P308-601501
     RDKit          3D

 23 25  0  0  0  0  0  0  0  0999 V2000
    9.3860    8.3957   23.1627 C   0  0  0  0  0  0  0  0  0  0  0  0
    8.5968    9.1536   24.0809 O   0  0  0  0  0  0  0  0  0  0  0  0
    8.6745   10.4858   23.8842 C   0  0  0  0  0  0  0  0  0  0  0  0
    9.3279   11.0316   23.0124 O   0  0  0  0  0  0  0  0  0  0  0  0
    7.8534   11.2153   24.8764 C   0  0  0  0  0  0  0  0  0  0  0  0
    6.8226   10.5856   25.5788 C   0  0  0  0  0  0  0  0  0  0  0  0
    6.0955   11.3235   26.5068 C   0  0  0  0  0  0  0  0  0  0  0  0
    5.0266   10.7238   27.3713 C   0  0  0  0  0  0  0  0  0  0  0  0
    4.9716   11.1054   28.8332 C   0  0  0  0  0  0  0  0  0  0  0  0
    3.9292   11.6332   27.8977 C   0  0  0  0  0  0  0  0  0  0  0  0
    6.3520   12.6348   26.7231 N   0  0  0  0  0  0  0  0  0  0  0  0
    7.3273   13.2214   26.0260 C   0  0  0  0  0  0  0  0  0  0  0  0
    8.1276   12.5660   25.1062 C   0  0  0  0  0  0  0  0  0  0  0  0
    9.1931   13.2349   24.4942 N   0  0  0  0  0  0  0  0  0  0  0  0
   10.1864   13.6295   25.4402 N   0  0  0  0  0  0  0  0  0  0  0  0
    8.8255   14.2085   23.4279 C   0  0  2  0  0  0  0  0  0  0  0  0
    7.4384   14.0517   22.7990 C   0  0  0  0  0  0  0  0  0  0  0  0
    9.9110   14.1949   22.3113 C   0  0  0  0  0  0  0  0  0  0  0  0
    9.5649   15.1659   21.1656 C   0  0  0  0  0  0  0  0  0  0  0  0
   10.7294   15.4264   20.2396 C   0  0  0  0  0  0  0  0  0  0  0  0
   11.8537   15.7858   21.0286 O   0  0  0  0  0  0  0  0  0  0  0  0
   12.3349   14.6775   21.7450 C   0  0  0  0  0  0  0  0  0  0  0  0
   11.3505   14.3422   22.8296 C   0  0  0  0  0  0  0  0  0  0  0  0
  1  2  1  0
  2  3  1  0
  3  4  2  0
  3  5  1  0
  5  6  2  0
  6  7  1  0
  7  8  1  0
  8  9  1  0
  9 10  1  0
  7 11  2  0
 11 12  1  0
 12 13  2  0
 13 14  1  0
 14 15  1  0
 14 16  1  0
 16 17  1  6
 16 18  1  0
 18 19  1  0
 19 20  1  0
 20 21  1  0
 21 22  1  0
 22 23  1  0
 13  5  1  0
 23 18  1  0
 10  8  1  0
M  END
>  <energy_score>  (3350) 
-49.658058

>  <inchikey>  (3350) 
WFGQJQXFCUYFSQ-UHFFFAOYSA-N

>  <smiles>  (3350) 
COC(=O)c1cc(C2CC2)ncc1N(N)C(C)C1CCOCC1

>  <ref_pdb>  (3350) 
A0528a

>  <alias>  (3350) 
WFGQJQXFCUYFSQ-UHFFFAOYSA-N-P15-P15-P308-601501

>  <HIPPO Pose ID>  (3350) 
502418

>  <name>  (3350) 
WFGQJQXFCUYFSQ-UHFFFAOYSA-N-P15-P15-P308-601501

>  <HIPPO Compound ID>  (3350) 
292923

>  <ref_mols>  (3350) 
A4331a,A0514a

>  <distance_score>  (3350) 
1.705298

>  <inspiration_score>  (3350) 
None

$$$$
WFGQJQXFCUYFSQ-UHFFFAOYSA-N-P308-P15-P308-601501
     RDKit          3D

 23 25  0  0  0  0  0  0  0  0999 V2000
    9.4691    8.7379   23.1646 C   0  0  0  0  0  0  0  0  0  0  0  0
    8.5544    9.5987   23.8376 O   0  0  0  0  0  0  0  0  0  0  0  0
    9.1397   10.6247   24.4999 C   0  0  0  0  0  0  0  0  0  0  0  0
   10.3366   10.8455   24.5950 O   0  0  0  0  0  0  0  0  0  0  0  0
    8.0609   11.4390   25.1048 C   0  0  0  0  0  0  0  0  0  0  0  0
    6.9575   10.8037   25.6936 C   0  0  0  0  0  0  0  0  0  0  0  0
    6.0279   11.5710   26.3888 C   0  0  0  0  0  0  0  0  0  0  0  0
    4.9325   10.9765   27.2306 C   0  0  0  0  0  0  0  0  0  0  0  0
    3.7136   11.8056   27.5871 C   0  0  0  0  0  0  0  0  0  0  0  0
    4.7535   11.5485   28.6277 C   0  0  0  0  0  0  0  0  0  0  0  0
    6.1470   12.9149   26.4596 N   0  0  0  0  0  0  0  0  0  0  0  0
    7.1897   13.5016   25.8641 C   0  0  0  0  0  0  0  0  0  0  0  0
    8.1765   12.8273   25.1583 C   0  0  0  0  0  0  0  0  0  0  0  0
    9.2190   13.5475   24.5412 N   0  0  0  0  0  0  0  0  0  0  0  0
   10.0485   14.1147   25.5689 N   0  0  0  0  0  0  0  0  0  0  0  0
    8.7535   14.4729   23.4350 C   0  0  2  0  0  0  0  0  0  0  0  0
    7.4762   13.9657   22.7309 C   0  0  0  0  0  0  0  0  0  0  0  0
    9.8860   14.6297   22.3714 C   0  0  0  0  0  0  0  0  0  0  0  0
    9.4365   15.5034   21.1776 C   0  0  0  0  0  0  0  0  0  0  0  0
   10.5715   15.8156   20.2156 C   0  0  0  0  0  0  0  0  0  0  0  0
   11.6496   16.4056   20.9284 O   0  0  0  0  0  0  0  0  0  0  0  0
   12.1926   15.4949   21.8628 C   0  0  0  0  0  0  0  0  0  0  0  0
   11.1857   15.2078   22.9555 C   0  0  0  0  0  0  0  0  0  0  0  0
  1  2  1  0
  2  3  1  0
  3  4  2  0
  3  5  1  0
  5  6  2  0
  6  7  1  0
  7  8  1  0
  8  9  1  0
  9 10  1  0
  7 11  2  0
 11 12  1  0
 12 13  2  0
 13 14  1  0
 14 15  1  0
 14 16  1  0
 16 17  1  6
 16 18  1  0
 18 19  1  0
 19 20  1  0
 20 21  1  0
 21 22  1  0
 22 23  1  0
 13  5  1  0
 23 18  1  0
 10  8  1  0
M  END
>  <energy_score>  (3351) 
-55.346714

>  <inchikey>  (3351) 
WFGQJQXFCUYFSQ-UHFFFAOYSA-N

>  <smiles>  (3351) 
COC(=O)c1cc(C2CC2)ncc1N(N)C(C)C1CCOCC1

>  <ref_pdb>  (3351) 
A0528a

>  <alias>  (3351) 
WFGQJQXFCUYFSQ-UHFFFAOYSA-N-P308-P15-P308-601501

>  <HIPPO Pose ID>  (3351) 
502419

>  <name>  (3351) 
WFGQJQXFCUYFSQ-UHFFFAOYSA-N-P308-P15-P308-601501

>  <HIPPO Compound ID>  (3351) 
292923

>  <ref_mols>  (3351) 
A4331a,A0514a

>  <distance_score>  (3351) 
1.711104

>  <inspiration_score>  (3351) 
None

$$$$
OUFJYHSBIUOAGY-UHFFFAOYSA-N-P15-P15-P308-601501
     RDKit          3D

 23 24  0  0  0  0  0  0  0  0999 V2000
    9.2986    8.5967   23.4146 C   0  0  0  0  0  0  0  0  0  0  0  0
    8.5570    9.4053   24.3358 O   0  0  0  0  0  0  0  0  0  0  0  0
    8.5804   10.7127   23.9955 C   0  0  0  0  0  0  0  0  0  0  0  0
    9.1091   11.1680   22.9973 O   0  0  0  0  0  0  0  0  0  0  0  0
    7.8710   11.5609   24.9715 C   0  0  0  0  0  0  0  0  0  0  0  0
    6.7483   11.0803   25.6497 C   0  0  0  0  0  0  0  0  0  0  0  0
    6.0676   11.9551   26.4890 C   0  0  0  0  0  0  0  0  0  0  0  0
    4.8366   11.6071   27.2508 C   0  0  0  0  0  0  0  0  0  0  0  0
    4.8046   10.5278   28.2887 C   0  0  0  0  0  0  0  0  0  0  0  0
    4.8180   11.9623   28.7232 C   0  0  0  0  0  0  0  0  0  0  0  0
    6.4727   13.2301   26.6708 N   0  0  0  0  0  0  0  0  0  0  0  0
    7.5487   13.6679   26.0137 C   0  0  0  0  0  0  0  0  0  0  0  0
    8.3051   12.8829   25.1628 C   0  0  0  0  0  0  0  0  0  0  0  0
    9.4556   13.4145   24.5294 N   0  0  0  0  0  0  0  0  0  0  0  0
   10.3333   14.1597   25.3736 N   0  0  0  0  0  0  0  0  0  0  0  0
    9.0172   14.0988   23.2728 C   0  0  0  0  0  0  0  0  0  0  0  0
   10.2063   14.3720   22.3601 C   0  0  0  0  0  0  0  0  0  0  0  0
   10.7930   13.1872   22.0450 F   0  0  0  0  0  0  0  0  0  0  0  0
   11.1698   15.0702   23.0270 F   0  0  0  0  0  0  0  0  0  0  0  0
    9.7217   15.0950   21.1201 C   0  0  0  0  0  0  0  0  0  0  0  0
    8.6583   14.4342   20.5965 F   0  0  0  0  0  0  0  0  0  0  0  0
    9.2762   16.3411   21.3670 F   0  0  0  0  0  0  0  0  0  0  0  0
   10.6825   15.1887   20.1805 F   0  0  0  0  0  0  0  0  0  0  0  0
  1  2  1  0
  2  3  1  0
  3  4  2  0
  3  5  1  0
  5  6  2  0
  6  7  1  0
  7  8  1  0
  8  9  1  0
  9 10  1  0
  7 11  2  0
 11 12  1  0
 12 13  2  0
 13 14  1  0
 14 15  1  0
 14 16  1  0
 16 17  1  0
 17 18  1  0
 17 19  1  0
 17 20  1  0
 20 21  1  0
 20 22  1  0
 20 23  1  0
 13  5  1  0
 10  8  1  0
M  END
>  <energy_score>  (3352) 
-29.238129

>  <inchikey>  (3352) 
OUFJYHSBIUOAGY-UHFFFAOYSA-N

>  <smiles>  (3352) 
COC(=O)c1cc(C2CC2)ncc1N(N)CC(F)(F)C(F)(F)F

>  <ref_pdb>  (3352) 
A0528a

>  <alias>  (3352) 
OUFJYHSBIUOAGY-UHFFFAOYSA-N-P15-P15-P308-601501

>  <HIPPO Pose ID>  (3352) 
502434

>  <name>  (3352) 
OUFJYHSBIUOAGY-UHFFFAOYSA-N-P15-P15-P308-601501

>  <HIPPO Compound ID>  (3352) 
292931

>  <ref_mols>  (3352) 
A4331a,A0514a

>  <distance_score>  (3352) 
1.574737

>  <inspiration_score>  (3352) 
None

$$$$
OUFJYHSBIUOAGY-UHFFFAOYSA-N-P308-P15-P308-601501
     RDKit          3D

 23 24  0  0  0  0  0  0  0  0999 V2000
    9.3358    8.6570   23.7613 C   0  0  0  0  0  0  0  0  0  0  0  0
    8.5761    9.5461   24.5757 O   0  0  0  0  0  0  0  0  0  0  0  0
    8.5933   10.8151   24.1087 C   0  0  0  0  0  0  0  0  0  0  0  0
    9.1350   11.1957   23.0860 O   0  0  0  0  0  0  0  0  0  0  0  0
    7.8439   11.6912   25.0252 C   0  0  0  0  0  0  0  0  0  0  0  0
    6.6477   11.2378   25.5942 C   0  0  0  0  0  0  0  0  0  0  0  0
    5.9116   12.1230   26.3690 C   0  0  0  0  0  0  0  0  0  0  0  0
    4.5792   11.8231   26.9636 C   0  0  0  0  0  0  0  0  0  0  0  0
    4.3469   10.7626   27.9979 C   0  0  0  0  0  0  0  0  0  0  0  0
    4.3882   12.1992   28.4198 C   0  0  0  0  0  0  0  0  0  0  0  0
    6.3428   13.3786   26.6084 N   0  0  0  0  0  0  0  0  0  0  0  0
    7.4947   13.7847   26.0673 C   0  0  0  0  0  0  0  0  0  0  0  0
    8.3006   12.9919   25.2677 C   0  0  0  0  0  0  0  0  0  0  0  0
    9.4982   13.5199   24.7112 N   0  0  0  0  0  0  0  0  0  0  0  0
   10.2762   14.2747   25.6457 N   0  0  0  0  0  0  0  0  0  0  0  0
    9.0971   14.2572   23.4632 C   0  0  0  0  0  0  0  0  0  0  0  0
   10.3018   14.6500   22.6225 C   0  0  0  0  0  0  0  0  0  0  0  0
   11.0782   13.5628   22.3716 F   0  0  0  0  0  0  0  0  0  0  0  0
   11.0920   15.5104   23.3341 F   0  0  0  0  0  0  0  0  0  0  0  0
    9.8084   15.2933   21.3423 C   0  0  0  0  0  0  0  0  0  0  0  0
    8.9313   14.4905   20.6943 F   0  0  0  0  0  0  0  0  0  0  0  0
    9.1474   16.4482   21.5998 F   0  0  0  0  0  0  0  0  0  0  0  0
   10.8133   15.5823   20.4894 F   0  0  0  0  0  0  0  0  0  0  0  0
  1  2  1  0
  2  3  1  0
  3  4  2  0
  3  5  1  0
  5  6  2  0
  6  7  1  0
  7  8  1  0
  8  9  1  0
  9 10  1  0
  7 11  2  0
 11 12  1  0
 12 13  2  0
 13 14  1  0
 14 15  1  0
 14 16  1  0
 16 17  1  0
 17 18  1  0
 17 19  1  0
 17 20  1  0
 20 21  1  0
 20 22  1  0
 20 23  1  0
 13  5  1  0
 10  8  1  0
M  END
>  <energy_score>  (3353) 
-32.331648

>  <inchikey>  (3353) 
OUFJYHSBIUOAGY-UHFFFAOYSA-N

>  <smiles>  (3353) 
COC(=O)c1cc(C2CC2)ncc1N(N)CC(F)(F)C(F)(F)F

>  <ref_pdb>  (3353) 
A0528a

>  <alias>  (3353) 
OUFJYHSBIUOAGY-UHFFFAOYSA-N-P308-P15-P308-601501

>  <HIPPO Pose ID>  (3353) 
502435

>  <name>  (3353) 
OUFJYHSBIUOAGY-UHFFFAOYSA-N-P308-P15-P308-601501

>  <HIPPO Compound ID>  (3353) 
292931

>  <ref_mols>  (3353) 
A4331a,A0514a

>  <distance_score>  (3353) 
1.58879

>  <inspiration_score>  (3353) 
None

$$$$
PMHSCHJYJJJUBU-UHFFFAOYSA-N-P308-P15-P308-601501
     RDKit          3D

 23 25  0  0  0  0  0  0  0  0999 V2000
    9.2213    8.9383   23.3532 C   0  0  0  0  0  0  0  0  0  0  0  0
    8.3816    9.9378   23.9357 O   0  0  0  0  0  0  0  0  0  0  0  0
    9.0642   11.0042   24.4112 C   0  0  0  0  0  0  0  0  0  0  0  0
   10.2752   11.1382   24.4762 O   0  0  0  0  0  0  0  0  0  0  0  0
    8.1086   11.9820   24.9480 C   0  0  0  0  0  0  0  0  0  0  0  0
    7.2506   11.5993   25.9700 C   0  0  0  0  0  0  0  0  0  0  0  0
    6.4645   12.5648   26.5939 C   0  0  0  0  0  0  0  0  0  0  0  0
    5.5148   12.2518   27.7057 C   0  0  0  0  0  0  0  0  0  0  0  0
    4.5802   11.0798   27.6722 C   0  0  0  0  0  0  0  0  0  0  0  0
    4.0472   12.4616   27.4261 C   0  0  0  0  0  0  0  0  0  0  0  0
    6.5537   13.8661   26.2636 N   0  0  0  0  0  0  0  0  0  0  0  0
    7.3195   14.1867   25.2133 C   0  0  0  0  0  0  0  0  0  0  0  0
    8.0718   13.2862   24.4773 C   0  0  0  0  0  0  0  0  0  0  0  0
    8.4401   13.6080   23.1560 N   0  0  0  0  0  0  0  0  0  0  0  0
    7.3131   13.7426   22.3023 N   0  0  0  0  0  0  0  0  0  0  0  0
    9.6448   14.2827   22.7866 C   0  0  0  0  0  0  0  0  0  0  0  0
    9.8689   14.5502   21.4490 C   0  0  0  0  0  0  0  0  0  0  0  0
   11.0877   15.0718   21.1035 C   0  0  0  0  0  0  0  0  0  0  0  0
   11.4264   15.1685   19.7134 C   0  0  0  0  0  0  0  0  0  0  0  0
   11.6411   15.1284   18.5740 N   0  0  0  0  0  0  0  0  0  0  0  0
   12.0286   15.3888   22.0085 N   0  0  0  0  0  0  0  0  0  0  0  0
   11.7076   15.1271   23.2774 C   0  0  0  0  0  0  0  0  0  0  0  0
   10.5608   14.5949   23.7216 N   0  0  0  0  0  0  0  0  0  0  0  0
  1  2  1  0
  2  3  1  0
  3  4  2  0
  3  5  1  0
  5  6  2  0
  6  7  1  0
  7  8  1  0
  8  9  1  0
  9 10  1  0
  7 11  2  0
 11 12  1  0
 12 13  2  0
 13 14  1  0
 14 15  1  0
 14 16  1  0
 16 17  2  0
 17 18  1  0
 18 19  1  0
 19 20  3  0
 18 21  2  0
 21 22  1  0
 22 23  2  0
 13  5  1  0
 23 16  1  0
 10  8  1  0
M  END
>  <energy_score>  (3354) 
-43.813269

>  <inchikey>  (3354) 
PMHSCHJYJJJUBU-UHFFFAOYSA-N

>  <smiles>  (3354) 
COC(=O)c1cc(C2CC2)ncc1N(N)c1cc(C#N)ncn1

>  <ref_pdb>  (3354) 
A0528a

>  <alias>  (3354) 
PMHSCHJYJJJUBU-UHFFFAOYSA-N-P308-P15-P308-601501

>  <HIPPO Pose ID>  (3354) 
502441

>  <name>  (3354) 
PMHSCHJYJJJUBU-UHFFFAOYSA-N-P308-P15-P308-601501

>  <HIPPO Compound ID>  (3354) 
292934

>  <ref_mols>  (3354) 
A4331a,A0514a

>  <distance_score>  (3354) 
1.977568

>  <inspiration_score>  (3354) 
None

$$$$
MFJDRURSCRBEER-UHFFFAOYSA-N-P15-P15-P308-601501
     RDKit          3D

 23 25  0  0  0  0  0  0  0  0999 V2000
    9.1214    8.7056   23.2187 C   0  0  0  0  0  0  0  0  0  0  0  0
    8.1437    9.3116   24.0802 O   0  0  0  0  0  0  0  0  0  0  0  0
    8.4512   10.5819   24.4258 C   0  0  0  0  0  0  0  0  0  0  0  0
    9.4902   11.1480   24.1347 O   0  0  0  0  0  0  0  0  0  0  0  0
    7.3223   11.2343   25.1532 C   0  0  0  0  0  0  0  0  0  0  0  0
    6.4791   10.4617   25.9330 C   0  0  0  0  0  0  0  0  0  0  0  0
    5.4617   11.1033   26.6106 C   0  0  0  0  0  0  0  0  0  0  0  0
    4.8285   10.5033   27.8235 C   0  0  0  0  0  0  0  0  0  0  0  0
    3.7209   11.2275   28.5527 C   0  0  0  0  0  0  0  0  0  0  0  0
    5.1043   11.2294   29.1281 C   0  0  0  0  0  0  0  0  0  0  0  0
    5.0884   12.3616   26.2937 N   0  0  0  0  0  0  0  0  0  0  0  0
    5.8739   13.0759   25.4766 C   0  0  0  0  0  0  0  0  0  0  0  0
    7.1177   12.6291   25.0552 C   0  0  0  0  0  0  0  0  0  0  0  0
    8.1726   13.2890   24.3140 N   0  0  0  0  0  0  0  0  0  0  0  0
    7.8717   14.3995   25.4051 N   0  0  0  0  0  0  0  0  0  0  0  0
    8.1797   13.8716   22.9315 C   0  0  0  0  0  0  0  0  0  0  0  0
    7.3068   13.9996   22.1557 O   0  0  0  0  0  0  0  0  0  0  0  0
    9.5762   14.1689   22.7107 C   0  0  0  0  0  0  0  0  0  0  0  0
   10.6393   13.8994   23.5631 C   0  0  0  0  0  0  0  0  0  0  0  0
   11.8551   14.3527   23.1782 N   0  0  0  0  0  0  0  0  0  0  0  0
   11.7141   14.8531   21.9755 C   0  0  0  0  0  0  0  0  0  0  0  0
   12.8290   15.4603   21.2754 C   0  0  0  0  0  0  0  0  0  0  0  0
   10.1446   14.9119   21.3020 S   0  0  0  0  0  0  0  0  0  0  0  0
  1  2  1  0
  2  3  1  0
  3  4  2  0
  3  5  1  0
  5  6  2  0
  6  7  1  0
  7  8  1  0
  8  9  1  0
  9 10  1  0
  7 11  2  0
 11 12  1  0
 12 13  2  0
 13 14  1  0
 14 15  1  0
 14 16  1  0
 16 17  2  0
 16 18  1  0
 18 19  2  0
 19 20  1  0
 20 21  2  0
 21 22  1  0
 21 23  1  0
 13  5  1  0
 23 18  1  0
 10  8  1  0
M  END
>  <energy_score>  (3355) 
-0.070052

>  <inchikey>  (3355) 
MFJDRURSCRBEER-UHFFFAOYSA-N

>  <smiles>  (3355) 
COC(=O)c1cc(C2CC2)ncc1N(N)C(=O)c1cnc(C)s1

>  <ref_pdb>  (3355) 
A0528a

>  <alias>  (3355) 
MFJDRURSCRBEER-UHFFFAOYSA-N-P15-P15-P308-601501

>  <HIPPO Pose ID>  (3355) 
502442

>  <name>  (3355) 
MFJDRURSCRBEER-UHFFFAOYSA-N-P15-P15-P308-601501

>  <HIPPO Compound ID>  (3355) 
292935

>  <ref_mols>  (3355) 
A4331a,A0514a

>  <distance_score>  (3355) 
1.649834

>  <inspiration_score>  (3355) 
None

$$$$
MFJDRURSCRBEER-UHFFFAOYSA-N-P308-P15-P308-601501
     RDKit          3D

 23 25  0  0  0  0  0  0  0  0999 V2000
    9.4615    8.8416   23.2436 C   0  0  0  0  0  0  0  0  0  0  0  0
    8.4830    9.6748   23.8667 O   0  0  0  0  0  0  0  0  0  0  0  0
    8.9861   10.7498   24.5106 C   0  0  0  0  0  0  0  0  0  0  0  0
   10.1599   11.0560   24.6450 O   0  0  0  0  0  0  0  0  0  0  0  0
    7.8642   11.5166   25.0950 C   0  0  0  0  0  0  0  0  0  0  0  0
    6.8392   10.8104   25.7351 C   0  0  0  0  0  0  0  0  0  0  0  0
    5.8395   11.5223   26.3832 C   0  0  0  0  0  0  0  0  0  0  0  0
    4.8702   10.8865   27.3381 C   0  0  0  0  0  0  0  0  0  0  0  0
    3.6223   11.6282   27.7711 C   0  0  0  0  0  0  0  0  0  0  0  0
    4.7713   11.5139   28.7192 C   0  0  0  0  0  0  0  0  0  0  0  0
    5.7740   12.8678   26.2905 N   0  0  0  0  0  0  0  0  0  0  0  0
    6.7269   13.5301   25.6271 C   0  0  0  0  0  0  0  0  0  0  0  0
    7.8589   12.9247   25.1064 C   0  0  0  0  0  0  0  0  0  0  0  0
    8.7940   13.7543   24.3605 N   0  0  0  0  0  0  0  0  0  0  0  0
    9.6134   13.5757   25.7204 N   0  0  0  0  0  0  0  0  0  0  0  0
    8.7131   15.2173   23.9544 C   0  0  0  0  0  0  0  0  0  0  0  0
    7.9104   16.0387   24.2186 O   0  0  0  0  0  0  0  0  0  0  0  0
    9.8604   15.4526   23.1417 C   0  0  0  0  0  0  0  0  0  0  0  0
   11.1742   15.4908   23.5355 C   0  0  0  0  0  0  0  0  0  0  0  0
   12.0806   15.4731   22.5103 N   0  0  0  0  0  0  0  0  0  0  0  0
   11.4302   15.4249   21.3650 C   0  0  0  0  0  0  0  0  0  0  0  0
   12.0816   15.2973   20.0547 C   0  0  0  0  0  0  0  0  0  0  0  0
    9.7205   15.4849   21.4523 S   0  0  0  0  0  0  0  0  0  0  0  0
  1  2  1  0
  2  3  1  0
  3  4  2  0
  3  5  1  0
  5  6  2  0
  6  7  1  0
  7  8  1  0
  8  9  1  0
  9 10  1  0
  7 11  2  0
 11 12  1  0
 12 13  2  0
 13 14  1  0
 14 15  1  0
 14 16  1  0
 16 17  2  0
 16 18  1  0
 18 19  2  0
 19 20  1  0
 20 21  2  0
 21 22  1  0
 21 23  1  0
 13  5  1  0
 23 18  1  0
 10  8  1  0
M  END
>  <energy_score>  (3356) 
-12.010414

>  <inchikey>  (3356) 
MFJDRURSCRBEER-UHFFFAOYSA-N

>  <smiles>  (3356) 
COC(=O)c1cc(C2CC2)ncc1N(N)C(=O)c1cnc(C)s1

>  <ref_pdb>  (3356) 
A0528a

>  <alias>  (3356) 
MFJDRURSCRBEER-UHFFFAOYSA-N-P308-P15-P308-601501

>  <HIPPO Pose ID>  (3356) 
502443

>  <name>  (3356) 
MFJDRURSCRBEER-UHFFFAOYSA-N-P308-P15-P308-601501

>  <HIPPO Compound ID>  (3356) 
292935

>  <ref_mols>  (3356) 
A4331a,A0514a

>  <distance_score>  (3356) 
1.589308

>  <inspiration_score>  (3356) 
None

$$$$
JAMGFPNTIFHLSG-UHFFFAOYSA-N-P15-P15-P308-601501
     RDKit          3D

 23 24  0  0  0  0  0  0  0  0999 V2000
    9.6265    8.9108   23.4476 C   0  0  0  0  0  0  0  0  0  0  0  0
    8.6053    9.5257   24.2375 O   0  0  0  0  0  0  0  0  0  0  0  0
    8.5750   10.8788   24.1240 C   0  0  0  0  0  0  0  0  0  0  0  0
    9.3025   11.5173   23.3845 O   0  0  0  0  0  0  0  0  0  0  0  0
    7.5033   11.4619   24.9801 C   0  0  0  0  0  0  0  0  0  0  0  0
    6.6476   10.6028   25.6825 C   0  0  0  0  0  0  0  0  0  0  0  0
    5.6765   11.1449   26.5119 C   0  0  0  0  0  0  0  0  0  0  0  0
    4.9749   10.3484   27.5658 C   0  0  0  0  0  0  0  0  0  0  0  0
    3.8248   10.9490   28.3443 C   0  0  0  0  0  0  0  0  0  0  0  0
    5.1695   10.8249   28.9926 C   0  0  0  0  0  0  0  0  0  0  0  0
    5.4178   12.4640   26.5177 N   0  0  0  0  0  0  0  0  0  0  0  0
    6.2566   13.2722   25.8690 C   0  0  0  0  0  0  0  0  0  0  0  0
    7.3692   12.8490   25.1583 C   0  0  0  0  0  0  0  0  0  0  0  0
    8.3425   13.7955   24.8271 N   0  0  0  0  0  0  0  0  0  0  0  0
    8.5941   14.7862   25.8273 N   0  0  0  0  0  0  0  0  0  0  0  0
    8.4192   14.1980   23.4053 C   0  0  0  0  0  0  0  0  0  0  0  0
    9.8853   14.4144   23.0921 C   0  0  0  0  0  0  0  0  0  0  0  0
   10.7803   14.3442   23.9363 O   0  0  0  0  0  0  0  0  0  0  0  0
   10.0578   14.7286   21.7783 O   0  0  0  0  0  0  0  0  0  0  0  0
   11.4115   14.6683   21.2915 C   0  0  0  0  0  0  0  0  0  0  0  0
   12.3140   15.7441   21.8387 C   0  0  0  0  0  0  0  0  0  0  0  0
   12.0061   13.3430   21.7160 C   0  0  0  0  0  0  0  0  0  0  0  0
   11.3826   14.8858   19.7743 C   0  0  0  0  0  0  0  0  0  0  0  0
  1  2  1  0
  2  3  1  0
  3  4  2  0
  3  5  1  0
  5  6  2  0
  6  7  1  0
  7  8  1  0
  8  9  1  0
  9 10  1  0
  7 11  2  0
 11 12  1  0
 12 13  2  0
 13 14  1  0
 14 15  1  0
 14 16  1  0
 16 17  1  0
 17 18  2  0
 17 19  1  0
 19 20  1  0
 20 21  1  0
 20 22  1  0
 20 23  1  0
 13  5  1  0
 10  8  1  0
M  END
>  <energy_score>  (3357) 
-42.218809

>  <inchikey>  (3357) 
JAMGFPNTIFHLSG-UHFFFAOYSA-N

>  <smiles>  (3357) 
COC(=O)c1cc(C2CC2)ncc1N(N)CC(=O)OC(C)(C)C

>  <ref_pdb>  (3357) 
A0528a

>  <alias>  (3357) 
JAMGFPNTIFHLSG-UHFFFAOYSA-N-P15-P15-P308-601501

>  <HIPPO Pose ID>  (3357) 
502446

>  <name>  (3357) 
JAMGFPNTIFHLSG-UHFFFAOYSA-N-P15-P15-P308-601501

>  <HIPPO Compound ID>  (3357) 
292937

>  <ref_mols>  (3357) 
A4331a,A0514a

>  <distance_score>  (3357) 
1.612873

>  <inspiration_score>  (3357) 
None

$$$$
JAMGFPNTIFHLSG-UHFFFAOYSA-N-P308-P15-P308-601501
     RDKit          3D

 23 24  0  0  0  0  0  0  0  0999 V2000
    9.3371    8.4984   23.0599 C   0  0  0  0  0  0  0  0  0  0  0  0
    8.5109    9.3640   23.8271 O   0  0  0  0  0  0  0  0  0  0  0  0
    9.2120   10.2482   24.5742 C   0  0  0  0  0  0  0  0  0  0  0  0
   10.4223   10.2808   24.7165 O   0  0  0  0  0  0  0  0  0  0  0  0
    8.2451   11.2325   25.1049 C   0  0  0  0  0  0  0  0  0  0  0  0
    7.0396   10.7748   25.6537 C   0  0  0  0  0  0  0  0  0  0  0  0
    6.1799   11.6924   26.2412 C   0  0  0  0  0  0  0  0  0  0  0  0
    4.9955   11.2839   27.0734 C   0  0  0  0  0  0  0  0  0  0  0  0
    3.8341   12.2358   27.2656 C   0  0  0  0  0  0  0  0  0  0  0  0
    4.7923   12.0123   28.3915 C   0  0  0  0  0  0  0  0  0  0  0  0
    6.4490   13.0153   26.1967 N   0  0  0  0  0  0  0  0  0  0  0  0
    7.5924   13.4355   25.6362 C   0  0  0  0  0  0  0  0  0  0  0  0
    8.5583   12.5964   25.1038 C   0  0  0  0  0  0  0  0  0  0  0  0
    9.7636   13.1188   24.5651 N   0  0  0  0  0  0  0  0  0  0  0  0
   10.2435   14.3124   25.1931 N   0  0  0  0  0  0  0  0  0  0  0  0
    9.6326   13.1333   23.0785 C   0  0  0  0  0  0  0  0  0  0  0  0
   10.8051   13.8009   22.4017 C   0  0  0  0  0  0  0  0  0  0  0  0
   11.9720   13.6885   22.7581 O   0  0  0  0  0  0  0  0  0  0  0  0
   10.3259   14.5678   21.3864 O   0  0  0  0  0  0  0  0  0  0  0  0
   11.2085   15.4365   20.6470 C   0  0  0  0  0  0  0  0  0  0  0  0
   12.0469   16.2964   21.5908 C   0  0  0  0  0  0  0  0  0  0  0  0
   12.0460   14.6322   19.6689 C   0  0  0  0  0  0  0  0  0  0  0  0
   10.2728   16.3160   19.8253 C   0  0  0  0  0  0  0  0  0  0  0  0
  1  2  1  0
  2  3  1  0
  3  4  2  0
  3  5  1  0
  5  6  2  0
  6  7  1  0
  7  8  1  0
  8  9  1  0
  9 10  1  0
  7 11  2  0
 11 12  1  0
 12 13  2  0
 13 14  1  0
 14 15  1  0
 14 16  1  0
 16 17  1  0
 17 18  2  0
 17 19  1  0
 19 20  1  0
 20 21  1  0
 20 22  1  0
 20 23  1  0
 13  5  1  0
 10  8  1  0
M  END
>  <energy_score>  (3358) 
-56.660944

>  <inchikey>  (3358) 
JAMGFPNTIFHLSG-UHFFFAOYSA-N

>  <smiles>  (3358) 
COC(=O)c1cc(C2CC2)ncc1N(N)CC(=O)OC(C)(C)C

>  <ref_pdb>  (3358) 
A0528a

>  <alias>  (3358) 
JAMGFPNTIFHLSG-UHFFFAOYSA-N-P308-P15-P308-601501

>  <HIPPO Pose ID>  (3358) 
502447

>  <name>  (3358) 
JAMGFPNTIFHLSG-UHFFFAOYSA-N-P308-P15-P308-601501

>  <HIPPO Compound ID>  (3358) 
292937

>  <ref_mols>  (3358) 
A4331a,A0514a

>  <distance_score>  (3358) 
1.405928

>  <inspiration_score>  (3358) 
None

$$$$
KKECZVJYRYIBLG-UHFFFAOYSA-N-P15-P15-P308-601501
     RDKit          3D

 23 25  0  0  0  0  0  0  0  0999 V2000
    9.4822    8.7179   23.0008 C   0  0  0  0  0  0  0  0  0  0  0  0
    8.5760    9.5463   23.7266 O   0  0  0  0  0  0  0  0  0  0  0  0
    8.9401   10.8468   23.7704 C   0  0  0  0  0  0  0  0  0  0  0  0
    9.9536   11.3318   23.3022 O   0  0  0  0  0  0  0  0  0  0  0  0
    7.9639   11.6298   24.5443 C   0  0  0  0  0  0  0  0  0  0  0  0
    7.2306   10.9974   25.5581 C   0  0  0  0  0  0  0  0  0  0  0  0
    6.4131   11.7584   26.3796 C   0  0  0  0  0  0  0  0  0  0  0  0
    5.5793   11.1550   27.4749 C   0  0  0  0  0  0  0  0  0  0  0  0
    4.2557   11.7885   27.8417 C   0  0  0  0  0  0  0  0  0  0  0  0
    5.4269   11.9336   28.7652 C   0  0  0  0  0  0  0  0  0  0  0  0
    6.3753   13.1025   26.2526 N   0  0  0  0  0  0  0  0  0  0  0  0
    7.0158   13.6772   25.2216 C   0  0  0  0  0  0  0  0  0  0  0  0
    7.7866   12.9935   24.2933 C   0  0  0  0  0  0  0  0  0  0  0  0
    7.9956   13.6133   23.0441 N   0  0  0  0  0  0  0  0  0  0  0  0
    6.8636   13.6477   22.1827 N   0  0  0  0  0  0  0  0  0  0  0  0
    9.1247   14.0938   22.4584 C   0  0  0  0  0  0  0  0  0  0  0  0
    8.9948   14.6204   21.1836 O   0  0  0  0  0  0  0  0  0  0  0  0
   10.2410   15.0882   20.8556 C   0  0  0  0  0  0  0  0  0  0  0  0
   10.4145   15.7577   19.5505 C   0  0  0  0  0  0  0  0  0  0  0  0
   11.1408   14.9124   21.7918 N   0  0  0  0  0  0  0  0  0  0  0  0
   10.4450   14.2882   22.7927 C   0  0  0  0  0  0  0  0  0  0  0  0
   11.0908   14.0733   24.0291 C   0  0  0  0  0  0  0  0  0  0  0  0
   11.6402   13.9966   25.0488 N   0  0  0  0  0  0  0  0  0  0  0  0
  1  2  1  0
  2  3  1  0
  3  4  2  0
  3  5  1  0
  5  6  2  0
  6  7  1  0
  7  8  1  0
  8  9  1  0
  9 10  1  0
  7 11  2  0
 11 12  1  0
 12 13  2  0
 13 14  1  0
 14 15  1  0
 14 16  1  0
 16 17  1  0
 17 18  1  0
 18 19  1  0
 18 20  2  0
 20 21  1  0
 21 22  1  0
 22 23  3  0
 13  5  1  0
 21 16  2  0
 10  8  1  0
M  END
>  <energy_score>  (3359) 
-40.291245

>  <inchikey>  (3359) 
KKECZVJYRYIBLG-UHFFFAOYSA-N

>  <smiles>  (3359) 
COC(=O)c1cc(C2CC2)ncc1N(N)c1oc(C)nc1C#N

>  <ref_pdb>  (3359) 
A0528a

>  <alias>  (3359) 
KKECZVJYRYIBLG-UHFFFAOYSA-N-P15-P15-P308-601501

>  <HIPPO Pose ID>  (3359) 
502452

>  <name>  (3359) 
KKECZVJYRYIBLG-UHFFFAOYSA-N-P15-P15-P308-601501

>  <HIPPO Compound ID>  (3359) 
292940

>  <ref_mols>  (3359) 
A4331a,A0514a

>  <distance_score>  (3359) 
1.735645

>  <inspiration_score>  (3359) 
None

$$$$
KKECZVJYRYIBLG-UHFFFAOYSA-N-P308-P15-P308-601501
     RDKit          3D

 23 25  0  0  0  0  0  0  0  0999 V2000
    9.2808    8.3619   22.9869 C   0  0  0  0  0  0  0  0  0  0  0  0
    8.4450    9.2594   23.6955 O   0  0  0  0  0  0  0  0  0  0  0  0
    9.1425   10.1496   24.4262 C   0  0  0  0  0  0  0  0  0  0  0  0
   10.3313   10.1282   24.7013 O   0  0  0  0  0  0  0  0  0  0  0  0
    8.2085   11.2240   24.7845 C   0  0  0  0  0  0  0  0  0  0  0  0
    7.0945   10.8737   25.5500 C   0  0  0  0  0  0  0  0  0  0  0  0
    6.2365   11.8746   25.9628 C   0  0  0  0  0  0  0  0  0  0  0  0
    5.1485   11.6179   26.9699 C   0  0  0  0  0  0  0  0  0  0  0  0
    3.9816   12.5663   27.1049 C   0  0  0  0  0  0  0  0  0  0  0  0
    5.0528   12.5646   28.1517 C   0  0  0  0  0  0  0  0  0  0  0  0
    6.4235   13.1475   25.5431 N   0  0  0  0  0  0  0  0  0  0  0  0
    7.4694   13.4479   24.7439 C   0  0  0  0  0  0  0  0  0  0  0  0
    8.4427   12.5423   24.3647 C   0  0  0  0  0  0  0  0  0  0  0  0
    9.6129   12.9158   23.6549 N   0  0  0  0  0  0  0  0  0  0  0  0
   10.8137   12.7380   24.4139 N   0  0  0  0  0  0  0  0  0  0  0  0
    9.7379   14.0579   22.9103 C   0  0  0  0  0  0  0  0  0  0  0  0
    9.4682   14.0189   21.5562 O   0  0  0  0  0  0  0  0  0  0  0  0
   10.0370   15.1869   21.0723 C   0  0  0  0  0  0  0  0  0  0  0  0
   10.2485   15.3575   19.6186 C   0  0  0  0  0  0  0  0  0  0  0  0
   10.4449   16.0164   22.0035 N   0  0  0  0  0  0  0  0  0  0  0  0
   10.3262   15.2811   23.1367 C   0  0  0  0  0  0  0  0  0  0  0  0
   10.9308   15.6885   24.3428 C   0  0  0  0  0  0  0  0  0  0  0  0
   11.4489   15.9062   25.3562 N   0  0  0  0  0  0  0  0  0  0  0  0
  1  2  1  0
  2  3  1  0
  3  4  2  0
  3  5  1  0
  5  6  2  0
  6  7  1  0
  7  8  1  0
  8  9  1  0
  9 10  1  0
  7 11  2  0
 11 12  1  0
 12 13  2  0
 13 14  1  0
 14 15  1  0
 14 16  1  0
 16 17  1  0
 17 18  1  0
 18 19  1  0
 18 20  2  0
 20 21  1  0
 21 22  1  0
 22 23  3  0
 13  5  1  0
 21 16  2  0
 10  8  1  0
M  END
>  <energy_score>  (3360) 
-41.050049

>  <inchikey>  (3360) 
KKECZVJYRYIBLG-UHFFFAOYSA-N

>  <smiles>  (3360) 
COC(=O)c1cc(C2CC2)ncc1N(N)c1oc(C)nc1C#N

>  <ref_pdb>  (3360) 
A0528a

>  <alias>  (3360) 
KKECZVJYRYIBLG-UHFFFAOYSA-N-P308-P15-P308-601501

>  <HIPPO Pose ID>  (3360) 
502453

>  <name>  (3360) 
KKECZVJYRYIBLG-UHFFFAOYSA-N-P308-P15-P308-601501

>  <HIPPO Compound ID>  (3360) 
292940

>  <ref_mols>  (3360) 
A4331a,A0514a

>  <distance_score>  (3360) 
1.519723

>  <inspiration_score>  (3360) 
None

$$$$
UCXATBVHTGAXGF-UHFFFAOYSA-N-P15-P15-P308-601501
     RDKit          3D

 23 25  0  0  0  0  0  0  0  0999 V2000
    9.3558    8.6091   23.0347 C   0  0  0  0  0  0  0  0  0  0  0  0
    8.5162    9.3859   23.8931 O   0  0  0  0  0  0  0  0  0  0  0  0
    8.8363   10.7003   23.9347 C   0  0  0  0  0  0  0  0  0  0  0  0
    9.7680   11.2113   23.3390 O   0  0  0  0  0  0  0  0  0  0  0  0
    7.9260   11.4370   24.8502 C   0  0  0  0  0  0  0  0  0  0  0  0
    6.9634   10.7574   25.6065 C   0  0  0  0  0  0  0  0  0  0  0  0
    6.2011   11.4691   26.5276 C   0  0  0  0  0  0  0  0  0  0  0  0
    5.2126   10.8129   27.4478 C   0  0  0  0  0  0  0  0  0  0  0  0
    3.9731   11.5716   27.8739 C   0  0  0  0  0  0  0  0  0  0  0  0
    5.0866   11.3680   28.8531 C   0  0  0  0  0  0  0  0  0  0  0  0
    6.3714   12.8013   26.6993 N   0  0  0  0  0  0  0  0  0  0  0  0
    7.2555   13.4502   25.9355 C   0  0  0  0  0  0  0  0  0  0  0  0
    8.0611   12.8185   25.0177 C   0  0  0  0  0  0  0  0  0  0  0  0
    8.8343   13.6481   24.2153 N   0  0  0  0  0  0  0  0  0  0  0  0
   10.1651   13.8756   24.5666 N   0  0  0  0  0  0  0  0  0  0  0  0
   10.7229   14.2959   23.4673 C   0  0  0  0  0  0  0  0  0  0  0  0
    9.7833   14.3867   22.3546 C   0  0  0  0  0  0  0  0  0  0  0  0
    9.9163   14.8401   21.1131 C   0  0  0  0  0  0  0  0  0  0  0  0
   11.0331   15.2396   20.3977 N   0  0  0  0  0  0  0  0  0  0  0  0
   10.9346   15.3565   18.9294 C   0  0  0  0  0  0  0  0  0  0  0  0
   12.3784   14.9127   20.8568 C   0  0  0  0  0  0  0  0  0  0  0  0
    8.5374   13.8154   22.8613 C   0  0  0  0  0  0  0  0  0  0  0  0
    7.5465   13.4810   22.2358 O   0  0  0  0  0  0  0  0  0  0  0  0
  1  2  1  0
  2  3  1  0
  3  4  2  0
  3  5  1  0
  5  6  2  0
  6  7  1  0
  7  8  1  0
  8  9  1  0
  9 10  1  0
  7 11  2  0
 11 12  1  0
 12 13  2  0
 13 14  1  0
 14 15  1  0
 15 16  2  0
 16 17  1  0
 17 18  2  3
 18 19  1  0
 19 20  1  0
 19 21  1  0
 17 22  1  0
 22 23  2  0
 13  5  1  0
 22 14  1  0
 10  8  1  0
M  END
>  <energy_score>  (3361) 
-36.876186

>  <inchikey>  (3361) 
UCXATBVHTGAXGF-UHFFFAOYSA-N

>  <smiles>  (3361) 
COC(=O)c1cc(C2CC2)ncc1N1N=CC(=CN(C)C)C1=O

>  <ref_pdb>  (3361) 
A0528a

>  <alias>  (3361) 
UCXATBVHTGAXGF-UHFFFAOYSA-N-P15-P15-P308-601501

>  <HIPPO Pose ID>  (3361) 
502466

>  <name>  (3361) 
UCXATBVHTGAXGF-UHFFFAOYSA-N-P15-P15-P308-601501

>  <HIPPO Compound ID>  (3361) 
292947

>  <ref_mols>  (3361) 
A4331a,A0514a

>  <distance_score>  (3361) 
1.729254

>  <inspiration_score>  (3361) 
None

$$$$
UCXATBVHTGAXGF-UHFFFAOYSA-N-P308-P15-P308-601501
     RDKit          3D

 23 25  0  0  0  0  0  0  0  0999 V2000
    9.3178    8.6630   23.1544 C   0  0  0  0  0  0  0  0  0  0  0  0
    8.4393    9.5049   23.8979 O   0  0  0  0  0  0  0  0  0  0  0  0
    9.0680   10.5452   24.4896 C   0  0  0  0  0  0  0  0  0  0  0  0
   10.2732   10.7387   24.5307 O   0  0  0  0  0  0  0  0  0  0  0  0
    8.0683   11.4336   25.1179 C   0  0  0  0  0  0  0  0  0  0  0  0
    6.9360   10.9001   25.7351 C   0  0  0  0  0  0  0  0  0  0  0  0
    6.1123   11.7550   26.4573 C   0  0  0  0  0  0  0  0  0  0  0  0
    4.9370   11.2651   27.2561 C   0  0  0  0  0  0  0  0  0  0  0  0
    3.7306   12.1602   27.4387 C   0  0  0  0  0  0  0  0  0  0  0  0
    4.6631   11.9387   28.5877 C   0  0  0  0  0  0  0  0  0  0  0  0
    6.3925   13.0794   26.5599 N   0  0  0  0  0  0  0  0  0  0  0  0
    7.4563   13.5827   25.9196 C   0  0  0  0  0  0  0  0  0  0  0  0
    8.3210   12.8043   25.1887 C   0  0  0  0  0  0  0  0  0  0  0  0
    9.2169   13.4297   24.3241 N   0  0  0  0  0  0  0  0  0  0  0  0
   10.0841   14.4191   24.7938 N   0  0  0  0  0  0  0  0  0  0  0  0
   10.4479   15.0809   23.7336 C   0  0  0  0  0  0  0  0  0  0  0  0
    9.7667   14.6171   22.5328 C   0  0  0  0  0  0  0  0  0  0  0  0
    9.9372   14.8841   21.2446 C   0  0  0  0  0  0  0  0  0  0  0  0
   10.9038   15.6021   20.5717 N   0  0  0  0  0  0  0  0  0  0  0  0
   10.8878   15.6183   19.1034 C   0  0  0  0  0  0  0  0  0  0  0  0
   12.1830   15.9601   21.1765 C   0  0  0  0  0  0  0  0  0  0  0  0
    8.8100   13.6152   22.9953 C   0  0  0  0  0  0  0  0  0  0  0  0
    7.8790   13.1120   22.3921 O   0  0  0  0  0  0  0  0  0  0  0  0
  1  2  1  0
  2  3  1  0
  3  4  2  0
  3  5  1  0
  5  6  2  0
  6  7  1  0
  7  8  1  0
  8  9  1  0
  9 10  1  0
  7 11  2  0
 11 12  1  0
 12 13  2  0
 13 14  1  0
 14 15  1  0
 15 16  2  0
 16 17  1  0
 17 18  2  3
 18 19  1  0
 19 20  1  0
 19 21  1  0
 17 22  1  0
 22 23  2  0
 13  5  1  0
 22 14  1  0
 10  8  1  0
M  END
>  <energy_score>  (3362) 
-38.935307

>  <inchikey>  (3362) 
UCXATBVHTGAXGF-UHFFFAOYSA-N

>  <smiles>  (3362) 
COC(=O)c1cc(C2CC2)ncc1N1N=CC(=CN(C)C)C1=O

>  <ref_pdb>  (3362) 
A0528a

>  <alias>  (3362) 
UCXATBVHTGAXGF-UHFFFAOYSA-N-P308-P15-P308-601501

>  <HIPPO Pose ID>  (3362) 
502467

>  <name>  (3362) 
UCXATBVHTGAXGF-UHFFFAOYSA-N-P308-P15-P308-601501

>  <HIPPO Compound ID>  (3362) 
292947

>  <ref_mols>  (3362) 
A4331a,A0514a

>  <distance_score>  (3362) 
1.611112

>  <inspiration_score>  (3362) 
None

$$$$
QXYPJOKIIJBRDV-UHFFFAOYSA-N-P15-P15-P308-601501
     RDKit          3D

 23 25  0  0  0  0  0  0  0  0999 V2000
    9.1736    8.6354   23.0947 C   0  0  0  0  0  0  0  0  0  0  0  0
    8.3602    9.4965   23.9034 O   0  0  0  0  0  0  0  0  0  0  0  0
    8.9041   10.7237   24.0718 C   0  0  0  0  0  0  0  0  0  0  0  0
    9.9922   11.0631   23.6375 O   0  0  0  0  0  0  0  0  0  0  0  0
    8.0048   11.6250   24.8458 C   0  0  0  0  0  0  0  0  0  0  0  0
    6.8475   11.1396   25.4729 C   0  0  0  0  0  0  0  0  0  0  0  0
    6.0617   12.0287   26.2039 C   0  0  0  0  0  0  0  0  0  0  0  0
    4.8803   11.6594   27.0338 C   0  0  0  0  0  0  0  0  0  0  0  0
    4.8989   10.5813   28.0732 C   0  0  0  0  0  0  0  0  0  0  0  0
    4.9612   12.0131   28.5075 C   0  0  0  0  0  0  0  0  0  0  0  0
    6.3386   13.3467   26.2526 N   0  0  0  0  0  0  0  0  0  0  0  0
    7.4454   13.7887   25.6544 C   0  0  0  0  0  0  0  0  0  0  0  0
    8.3586   12.9752   25.0094 C   0  0  0  0  0  0  0  0  0  0  0  0
    9.6358   13.4823   24.6810 N   0  0  0  0  0  0  0  0  0  0  0  0
   10.3008   14.1761   25.7455 N   0  0  0  0  0  0  0  0  0  0  0  0
    9.9674   13.9047   23.3597 C   0  0  0  0  0  0  0  0  0  0  0  0
   11.3116   13.8564   22.9883 C   0  0  0  0  0  0  0  0  0  0  0  0
   11.8083   14.3317   21.8333 N   0  0  0  0  0  0  0  0  0  0  0  0
   10.8732   14.7707   20.9658 C   0  0  0  0  0  0  0  0  0  0  0  0
   11.3274   14.9597   19.6293 C   0  0  0  0  0  0  0  0  0  0  0  0
   11.7257   14.9920   18.5424 N   0  0  0  0  0  0  0  0  0  0  0  0
    9.5283   14.8273   21.3051 C   0  0  0  0  0  0  0  0  0  0  0  0
    9.0432   14.3961   22.5056 N   0  0  0  0  0  0  0  0  0  0  0  0
  1  2  1  0
  2  3  1  0
  3  4  2  0
  3  5  1  0
  5  6  2  0
  6  7  1  0
  7  8  1  0
  8  9  1  0
  9 10  1  0
  7 11  2  0
 11 12  1  0
 12 13  2  0
 13 14  1  0
 14 15  1  0
 14 16  1  0
 16 17  2  0
 17 18  1  0
 18 19  2  0
 19 20  1  0
 20 21  3  0
 19 22  1  0
 22 23  2  0
 13  5  1  0
 23 16  1  0
 10  8  1  0
M  END
>  <energy_score>  (3363) 
-47.679527

>  <inchikey>  (3363) 
QXYPJOKIIJBRDV-UHFFFAOYSA-N

>  <smiles>  (3363) 
COC(=O)c1cc(C2CC2)ncc1N(N)c1cnc(C#N)cn1

>  <ref_pdb>  (3363) 
A0528a

>  <alias>  (3363) 
QXYPJOKIIJBRDV-UHFFFAOYSA-N-P15-P15-P308-601501

>  <HIPPO Pose ID>  (3363) 
502474

>  <name>  (3363) 
QXYPJOKIIJBRDV-UHFFFAOYSA-N-P15-P15-P308-601501

>  <HIPPO Compound ID>  (3363) 
292951

>  <ref_mols>  (3363) 
A4331a,A0514a

>  <distance_score>  (3363) 
1.736113

>  <inspiration_score>  (3363) 
None

$$$$
QXYPJOKIIJBRDV-UHFFFAOYSA-N-P308-P15-P308-601501
     RDKit          3D

 23 25  0  0  0  0  0  0  0  0999 V2000
    9.2812    8.6751   23.2008 C   0  0  0  0  0  0  0  0  0  0  0  0
    8.4607    9.6030   23.9120 O   0  0  0  0  0  0  0  0  0  0  0  0
    9.1710   10.5762   24.5293 C   0  0  0  0  0  0  0  0  0  0  0  0
   10.3861   10.6541   24.5913 O   0  0  0  0  0  0  0  0  0  0  0  0
    8.2287   11.5835   25.0757 C   0  0  0  0  0  0  0  0  0  0  0  0
    6.9774   11.1783   25.5713 C   0  0  0  0  0  0  0  0  0  0  0  0
    6.1199   12.1436   26.0866 C   0  0  0  0  0  0  0  0  0  0  0  0
    4.7724   11.8839   26.6726 C   0  0  0  0  0  0  0  0  0  0  0  0
    4.4872   10.9283   27.7928 C   0  0  0  0  0  0  0  0  0  0  0  0
    4.5623   12.3931   28.0890 C   0  0  0  0  0  0  0  0  0  0  0  0
    6.4572   13.4508   26.0934 N   0  0  0  0  0  0  0  0  0  0  0  0
    7.6416   13.8194   25.5989 C   0  0  0  0  0  0  0  0  0  0  0  0
    8.5792   12.9397   25.0903 C   0  0  0  0  0  0  0  0  0  0  0  0
    9.7977   13.4869   24.6526 N   0  0  0  0  0  0  0  0  0  0  0  0
   10.9411   13.1938   25.4366 N   0  0  0  0  0  0  0  0  0  0  0  0
   10.0281   14.1132   23.3942 C   0  0  0  0  0  0  0  0  0  0  0  0
    9.0400   14.1832   22.4074 C   0  0  0  0  0  0  0  0  0  0  0  0
    9.2642   14.6288   21.1424 N   0  0  0  0  0  0  0  0  0  0  0  0
   10.5339   15.0175   20.8771 C   0  0  0  0  0  0  0  0  0  0  0  0
   10.9203   15.2158   19.5173 C   0  0  0  0  0  0  0  0  0  0  0  0
   11.3525   15.2777   18.4434 N   0  0  0  0  0  0  0  0  0  0  0  0
   11.4926   15.0518   21.8628 C   0  0  0  0  0  0  0  0  0  0  0  0
   11.2598   14.6155   23.1241 N   0  0  0  0  0  0  0  0  0  0  0  0
  1  2  1  0
  2  3  1  0
  3  4  2  0
  3  5  1  0
  5  6  2  0
  6  7  1  0
  7  8  1  0
  8  9  1  0
  9 10  1  0
  7 11  2  0
 11 12  1  0
 12 13  2  0
 13 14  1  0
 14 15  1  0
 14 16  1  0
 16 17  2  0
 17 18  1  0
 18 19  2  0
 19 20  1  0
 20 21  3  0
 19 22  1  0
 22 23  2  0
 13  5  1  0
 23 16  1  0
 10  8  1  0
M  END
>  <energy_score>  (3364) 
-54.920074

>  <inchikey>  (3364) 
QXYPJOKIIJBRDV-UHFFFAOYSA-N

>  <smiles>  (3364) 
COC(=O)c1cc(C2CC2)ncc1N(N)c1cnc(C#N)cn1

>  <ref_pdb>  (3364) 
A0528a

>  <alias>  (3364) 
QXYPJOKIIJBRDV-UHFFFAOYSA-N-P308-P15-P308-601501

>  <HIPPO Pose ID>  (3364) 
502475

>  <name>  (3364) 
QXYPJOKIIJBRDV-UHFFFAOYSA-N-P308-P15-P308-601501

>  <HIPPO Compound ID>  (3364) 
292951

>  <ref_mols>  (3364) 
A4331a,A0514a

>  <distance_score>  (3364) 
1.706662

>  <inspiration_score>  (3364) 
None

$$$$
MCCGZSSUZKIXRN-UHFFFAOYSA-N-P15-P15-P308-601501
     RDKit          3D

 23 25  0  0  0  0  0  0  0  0999 V2000
    9.3565    8.6992   23.0076 C   0  0  0  0  0  0  0  0  0  0  0  0
    8.5026    9.5443   23.7826 O   0  0  0  0  0  0  0  0  0  0  0  0
    8.9736   10.8035   23.9319 C   0  0  0  0  0  0  0  0  0  0  0  0
   10.0417   11.2092   23.5078 O   0  0  0  0  0  0  0  0  0  0  0  0
    8.0492   11.6267   24.7513 C   0  0  0  0  0  0  0  0  0  0  0  0
    7.0608   10.9961   25.5193 C   0  0  0  0  0  0  0  0  0  0  0  0
    6.3159   11.7541   26.4128 C   0  0  0  0  0  0  0  0  0  0  0  0
    5.2954   11.1435   27.3324 C   0  0  0  0  0  0  0  0  0  0  0  0
    4.0480   11.9242   27.6854 C   0  0  0  0  0  0  0  0  0  0  0  0
    5.1269   11.7547   28.7092 C   0  0  0  0  0  0  0  0  0  0  0  0
    6.5372   13.0842   26.5512 N   0  0  0  0  0  0  0  0  0  0  0  0
    7.4533   13.6859   25.7764 C   0  0  0  0  0  0  0  0  0  0  0  0
    8.2368   13.0124   24.8690 C   0  0  0  0  0  0  0  0  0  0  0  0
    9.0941   13.7823   24.0700 N   0  0  0  0  0  0  0  0  0  0  0  0
   10.3547   14.0594   24.5604 N   0  0  0  0  0  0  0  0  0  0  0  0
   11.1046   14.2085   23.5143 C   0  0  0  0  0  0  0  0  0  0  0  0
   10.4231   13.9459   22.2056 C   0  0  2  0  0  0  0  0  0  0  0  0
   10.6090   15.0182   21.1633 C   0  0  0  0  0  0  0  0  0  0  0  0
   11.9646   14.8616   20.5329 C   0  0  0  0  0  0  0  0  0  0  0  0
   12.2247   14.4547   19.4172 O   0  0  0  0  0  0  0  0  0  0  0  0
   12.9496   15.2275   21.3833 O   0  0  0  0  0  0  0  0  0  0  0  0
    9.0118   13.7331   22.6746 C   0  0  0  0  0  0  0  0  0  0  0  0
    8.0109   13.4872   22.0193 O   0  0  0  0  0  0  0  0  0  0  0  0
  1  2  1  0
  2  3  1  0
  3  4  2  0
  3  5  1  0
  5  6  2  0
  6  7  1  0
  7  8  1  0
  8  9  1  0
  9 10  1  0
  7 11  2  0
 11 12  1  0
 12 13  2  0
 13 14  1  0
 14 15  1  0
 15 16  2  0
 16 17  1  0
 17 18  1  6
 18 19  1  0
 19 20  2  0
 19 21  1  0
 17 22  1  0
 22 23  2  0
 13  5  1  0
 22 14  1  0
 10  8  1  0
M  END
>  <energy_score>  (3365) 
-34.376734

>  <inchikey>  (3365) 
MCCGZSSUZKIXRN-UHFFFAOYSA-N

>  <smiles>  (3365) 
COC(=O)c1cc(C2CC2)ncc1N1N=CC(CC(=O)O)C1=O

>  <ref_pdb>  (3365) 
A0528a

>  <alias>  (3365) 
MCCGZSSUZKIXRN-UHFFFAOYSA-N-P15-P15-P308-601501

>  <HIPPO Pose ID>  (3365) 
502478

>  <name>  (3365) 
MCCGZSSUZKIXRN-UHFFFAOYSA-N-P15-P15-P308-601501

>  <HIPPO Compound ID>  (3365) 
292953

>  <ref_mols>  (3365) 
A4331a,A0514a

>  <distance_score>  (3365) 
1.772774

>  <inspiration_score>  (3365) 
None

$$$$
MCCGZSSUZKIXRN-UHFFFAOYSA-N-P308-P15-P308-601501
     RDKit          3D

 23 25  0  0  0  0  0  0  0  0999 V2000
    9.3990    8.7109   23.1212 C   0  0  0  0  0  0  0  0  0  0  0  0
    8.5470    9.6383   23.7885 O   0  0  0  0  0  0  0  0  0  0  0  0
    9.2038   10.6610   24.3780 C   0  0  0  0  0  0  0  0  0  0  0  0
   10.4131   10.8077   24.4624 O   0  0  0  0  0  0  0  0  0  0  0  0
    8.2191   11.5958   24.9558 C   0  0  0  0  0  0  0  0  0  0  0  0
    7.0889   11.0847   25.6009 C   0  0  0  0  0  0  0  0  0  0  0  0
    6.2771   11.9612   26.3054 C   0  0  0  0  0  0  0  0  0  0  0  0
    5.0929   11.4924   27.1062 C   0  0  0  0  0  0  0  0  0  0  0  0
    3.8822   12.3868   27.2485 C   0  0  0  0  0  0  0  0  0  0  0  0
    4.7996   12.1981   28.4160 C   0  0  0  0  0  0  0  0  0  0  0  0
    6.5788   13.2840   26.3759 N   0  0  0  0  0  0  0  0  0  0  0  0
    7.6511   13.7620   25.7190 C   0  0  0  0  0  0  0  0  0  0  0  0
    8.4964   12.9651   24.9868 C   0  0  0  0  0  0  0  0  0  0  0  0
    9.4758   13.5387   24.1706 N   0  0  0  0  0  0  0  0  0  0  0  0
   10.3533   14.4845   24.6631 N   0  0  0  0  0  0  0  0  0  0  0  0
   10.9405   14.9797   23.6191 C   0  0  0  0  0  0  0  0  0  0  0  0
   10.4942   14.3704   22.3201 C   0  0  2  0  0  0  0  0  0  0  0  0
   10.3439   15.3634   21.1914 C   0  0  0  0  0  0  0  0  0  0  0  0
   11.6462   15.3713   20.4350 C   0  0  0  0  0  0  0  0  0  0  0  0
   11.8637   14.9179   19.3278 O   0  0  0  0  0  0  0  0  0  0  0  0
   12.6446   15.8815   21.1896 O   0  0  0  0  0  0  0  0  0  0  0  0
    9.2465   13.6842   22.7925 C   0  0  0  0  0  0  0  0  0  0  0  0
    8.2555   13.3475   22.1693 O   0  0  0  0  0  0  0  0  0  0  0  0
  1  2  1  0
  2  3  1  0
  3  4  2  0
  3  5  1  0
  5  6  2  0
  6  7  1  0
  7  8  1  0
  8  9  1  0
  9 10  1  0
  7 11  2  0
 11 12  1  0
 12 13  2  0
 13 14  1  0
 14 15  1  0
 15 16  2  0
 16 17  1  0
 17 18  1  6
 18 19  1  0
 19 20  2  0
 19 21  1  0
 17 22  1  0
 22 23  2  0
 13  5  1  0
 22 14  1  0
 10  8  1  0
M  END
>  <energy_score>  (3366) 
-33.91666

>  <inchikey>  (3366) 
MCCGZSSUZKIXRN-UHFFFAOYSA-N

>  <smiles>  (3366) 
COC(=O)c1cc(C2CC2)ncc1N1N=CC(CC(=O)O)C1=O

>  <ref_pdb>  (3366) 
A0528a

>  <alias>  (3366) 
MCCGZSSUZKIXRN-UHFFFAOYSA-N-P308-P15-P308-601501

>  <HIPPO Pose ID>  (3366) 
502479

>  <name>  (3366) 
MCCGZSSUZKIXRN-UHFFFAOYSA-N-P308-P15-P308-601501

>  <HIPPO Compound ID>  (3366) 
292953

>  <ref_mols>  (3366) 
A4331a,A0514a

>  <distance_score>  (3366) 
1.63378

>  <inspiration_score>  (3366) 
None

$$$$
WASZWPLFYDCHJJ-UHFFFAOYSA-N-P308-P15-P308-601501
     RDKit          3D

 23 24  0  0  0  0  0  0  0  0999 V2000
    9.5575    8.7913   23.2336 C   0  0  0  0  0  0  0  0  0  0  0  0
    8.6016    9.6334   23.8739 O   0  0  0  0  0  0  0  0  0  0  0  0
    9.1267   10.7132   24.5019 C   0  0  0  0  0  0  0  0  0  0  0  0
   10.3074   11.0115   24.5829 O   0  0  0  0  0  0  0  0  0  0  0  0
    7.9950   11.4786   25.0759 C   0  0  0  0  0  0  0  0  0  0  0  0
    6.9321   10.7824   25.6752 C   0  0  0  0  0  0  0  0  0  0  0  0
    5.9378   11.4974   26.3334 C   0  0  0  0  0  0  0  0  0  0  0  0
    4.8852   10.8571   27.1941 C   0  0  0  0  0  0  0  0  0  0  0  0
    4.7697   11.3090   28.6373 C   0  0  0  0  0  0  0  0  0  0  0  0
    3.7073   11.6977   27.6648 C   0  0  0  0  0  0  0  0  0  0  0  0
    5.9394   12.8443   26.3325 N   0  0  0  0  0  0  0  0  0  0  0  0
    6.9456   13.4889   25.7361 C   0  0  0  0  0  0  0  0  0  0  0  0
    8.0129   12.8738   25.0927 C   0  0  0  0  0  0  0  0  0  0  0  0
    9.0897   13.6546   24.5977 N   0  0  0  0  0  0  0  0  0  0  0  0
    9.9114   14.0245   25.7158 N   0  0  0  0  0  0  0  0  0  0  0  0
    8.5742   14.7821   23.7611 C   0  0  0  0  0  0  0  0  0  0  0  0
    9.4709   15.1528   22.5746 C   0  0  0  0  0  0  0  0  0  0  0  0
    8.7694   16.2694   21.7861 C   0  0  0  0  0  0  0  0  0  0  0  0
    9.6221   13.9965   21.6049 C   0  0  0  0  0  0  0  0  0  0  0  0
   11.0744   15.7514   23.1260 S   0  0  0  0  0  0  0  0  0  0  0  0
   12.1048   14.3261   23.2310 C   0  0  0  0  0  0  0  0  0  0  0  0
   11.6495   16.5769   22.0828 O   0  0  0  0  0  0  0  0  0  0  0  0
   10.9575   16.2713   24.4802 O   0  0  0  0  0  0  0  0  0  0  0  0
  1  2  1  0
  2  3  1  0
  3  4  2  0
  3  5  1  0
  5  6  2  0
  6  7  1  0
  7  8  1  0
  8  9  1  0
  9 10  1  0
  7 11  2  0
 11 12  1  0
 12 13  2  0
 13 14  1  0
 14 15  1  0
 14 16  1  0
 16 17  1  0
 17 18  1  0
 17 19  1  0
 17 20  1  0
 20 21  1  0
 20 22  2  0
 20 23  2  0
 13  5  1  0
 10  8  1  0
M  END
>  <energy_score>  (3367) 
-55.01103

>  <inchikey>  (3367) 
WASZWPLFYDCHJJ-UHFFFAOYSA-N

>  <smiles>  (3367) 
COC(=O)c1cc(C2CC2)ncc1N(N)CC(C)(C)S(C)(=O)=O

>  <ref_pdb>  (3367) 
A0528a

>  <alias>  (3367) 
WASZWPLFYDCHJJ-UHFFFAOYSA-N-P308-P15-P308-601501

>  <HIPPO Pose ID>  (3367) 
502483

>  <name>  (3367) 
WASZWPLFYDCHJJ-UHFFFAOYSA-N-P308-P15-P308-601501

>  <HIPPO Compound ID>  (3367) 
292955

>  <ref_mols>  (3367) 
A4331a,A0514a

>  <distance_score>  (3367) 
1.864638

>  <inspiration_score>  (3367) 
None

$$$$
ONLJMQBTQYWJAY-UHFFFAOYSA-N-P15-P15-P308-601501
     RDKit          3D

 23 25  0  0  0  0  0  0  0  0999 V2000
    9.2692    8.7266   23.0927 C   0  0  0  0  0  0  0  0  0  0  0  0
    8.4749    9.6197   23.8830 O   0  0  0  0  0  0  0  0  0  0  0  0
    9.0143   10.8550   24.0047 C   0  0  0  0  0  0  0  0  0  0  0  0
   10.0915   11.1946   23.5436 O   0  0  0  0  0  0  0  0  0  0  0  0
    8.1283   11.7593   24.7873 C   0  0  0  0  0  0  0  0  0  0  0  0
    6.9753   11.2671   25.4209 C   0  0  0  0  0  0  0  0  0  0  0  0
    6.1795   12.1503   26.1456 C   0  0  0  0  0  0  0  0  0  0  0  0
    4.9710   11.7685   26.9302 C   0  0  0  0  0  0  0  0  0  0  0  0
    4.9716   10.7111   27.9921 C   0  0  0  0  0  0  0  0  0  0  0  0
    4.9673   12.1528   28.3977 C   0  0  0  0  0  0  0  0  0  0  0  0
    6.4596   13.4676   26.2075 N   0  0  0  0  0  0  0  0  0  0  0  0
    7.5572   13.9190   25.5943 C   0  0  0  0  0  0  0  0  0  0  0  0
    8.4588   13.1171   24.9192 C   0  0  0  0  0  0  0  0  0  0  0  0
    9.6716   13.7212   24.5445 N   0  0  0  0  0  0  0  0  0  0  0  0
   10.8290   13.2939   25.2794 N   0  0  0  0  0  0  0  0  0  0  0  0
    9.9745   14.1690   23.2337 C   0  0  0  0  0  0  0  0  0  0  0  0
    9.0224   14.4183   22.3294 N   0  0  0  0  0  0  0  0  0  0  0  0
    9.4636   14.8250   21.1172 C   0  0  0  0  0  0  0  0  0  0  0  0
   10.7905   14.9305   20.7715 C   0  0  0  0  0  0  0  0  0  0  0  0
   11.2697   15.0288   19.4459 C   0  0  0  0  0  0  0  0  0  0  0  0
   11.7901   14.9474   18.4170 N   0  0  0  0  0  0  0  0  0  0  0  0
   11.6822   14.7344   21.7822 C   0  0  0  0  0  0  0  0  0  0  0  0
   11.2952   14.3807   23.0139 N   0  0  0  0  0  0  0  0  0  0  0  0
  1  2  1  0
  2  3  1  0
  3  4  2  0
  3  5  1  0
  5  6  2  0
  6  7  1  0
  7  8  1  0
  8  9  1  0
  9 10  1  0
  7 11  2  0
 11 12  1  0
 12 13  2  0
 13 14  1  0
 14 15  1  0
 14 16  1  0
 16 17  2  0
 17 18  1  0
 18 19  2  0
 19 20  1  0
 20 21  3  0
 19 22  1  0
 22 23  2  0
 13  5  1  0
 23 16  1  0
 10  8  1  0
M  END
>  <energy_score>  (3368) 
-49.577423

>  <inchikey>  (3368) 
ONLJMQBTQYWJAY-UHFFFAOYSA-N

>  <smiles>  (3368) 
COC(=O)c1cc(C2CC2)ncc1N(N)c1ncc(C#N)cn1

>  <ref_pdb>  (3368) 
A0528a

>  <alias>  (3368) 
ONLJMQBTQYWJAY-UHFFFAOYSA-N-P15-P15-P308-601501

>  <HIPPO Pose ID>  (3368) 
502488

>  <name>  (3368) 
ONLJMQBTQYWJAY-UHFFFAOYSA-N-P15-P15-P308-601501

>  <HIPPO Compound ID>  (3368) 
292958

>  <ref_mols>  (3368) 
A4331a,A0514a

>  <distance_score>  (3368) 
1.699082

>  <inspiration_score>  (3368) 
None

$$$$
ONLJMQBTQYWJAY-UHFFFAOYSA-N-P308-P15-P308-601501
     RDKit          3D

 23 25  0  0  0  0  0  0  0  0999 V2000
    9.4343    8.6426   23.1376 C   0  0  0  0  0  0  0  0  0  0  0  0
    8.5850    9.5238   23.8660 O   0  0  0  0  0  0  0  0  0  0  0  0
    9.2480   10.5447   24.4616 C   0  0  0  0  0  0  0  0  0  0  0  0
   10.4560   10.7088   24.4832 O   0  0  0  0  0  0  0  0  0  0  0  0
    8.2428   11.4695   25.0342 C   0  0  0  0  0  0  0  0  0  0  0  0
    7.0722   10.9383   25.5934 C   0  0  0  0  0  0  0  0  0  0  0  0
    6.1489   11.8012   26.1666 C   0  0  0  0  0  0  0  0  0  0  0  0
    4.9872   11.3123   26.9846 C   0  0  0  0  0  0  0  0  0  0  0  0
    4.8242   11.8450   28.3931 C   0  0  0  0  0  0  0  0  0  0  0  0
    3.8655   12.2745   27.3291 C   0  0  0  0  0  0  0  0  0  0  0  0
    6.3154   13.1406   26.0970 N   0  0  0  0  0  0  0  0  0  0  0  0
    7.4311   13.6297   25.5331 C   0  0  0  0  0  0  0  0  0  0  0  0
    8.4596   12.8505   25.0385 C   0  0  0  0  0  0  0  0  0  0  0  0
    9.6509   13.4884   24.6638 N   0  0  0  0  0  0  0  0  0  0  0  0
   10.7862   13.2238   25.4987 N   0  0  0  0  0  0  0  0  0  0  0  0
    9.8901   14.0946   23.3999 C   0  0  0  0  0  0  0  0  0  0  0  0
    8.8962   14.2730   22.5127 N   0  0  0  0  0  0  0  0  0  0  0  0
    9.2473   14.7530   21.2934 C   0  0  0  0  0  0  0  0  0  0  0  0
   10.5385   15.0327   20.9181 C   0  0  0  0  0  0  0  0  0  0  0  0
   10.9336   15.2843   19.5796 C   0  0  0  0  0  0  0  0  0  0  0  0
   11.3331   15.3674   18.4967 N   0  0  0  0  0  0  0  0  0  0  0  0
   11.4684   14.9087   21.9110 C   0  0  0  0  0  0  0  0  0  0  0  0
   11.1680   14.4527   23.1442 N   0  0  0  0  0  0  0  0  0  0  0  0
  1  2  1  0
  2  3  1  0
  3  4  2  0
  3  5  1  0
  5  6  2  0
  6  7  1  0
  7  8  1  0
  8  9  1  0
  9 10  1  0
  7 11  2  0
 11 12  1  0
 12 13  2  0
 13 14  1  0
 14 15  1  0
 14 16  1  0
 16 17  2  0
 17 18  1  0
 18 19  2  0
 19 20  1  0
 20 21  3  0
 19 22  1  0
 22 23  2  0
 13  5  1  0
 23 16  1  0
 10  8  1  0
M  END
>  <energy_score>  (3369) 
-54.68697

>  <inchikey>  (3369) 
ONLJMQBTQYWJAY-UHFFFAOYSA-N

>  <smiles>  (3369) 
COC(=O)c1cc(C2CC2)ncc1N(N)c1ncc(C#N)cn1

>  <ref_pdb>  (3369) 
A0528a

>  <alias>  (3369) 
ONLJMQBTQYWJAY-UHFFFAOYSA-N-P308-P15-P308-601501

>  <HIPPO Pose ID>  (3369) 
502489

>  <name>  (3369) 
ONLJMQBTQYWJAY-UHFFFAOYSA-N-P308-P15-P308-601501

>  <HIPPO Compound ID>  (3369) 
292958

>  <ref_mols>  (3369) 
A4331a,A0514a

>  <distance_score>  (3369) 
1.675499

>  <inspiration_score>  (3369) 
None

$$$$
KWUCCYPVBDRNDG-UHFFFAOYSA-N-P15-P15-P308-601501
     RDKit          3D

 23 25  0  0  0  0  0  0  0  0999 V2000
    9.7519    8.5098   23.3615 C   0  0  0  0  0  0  0  0  0  0  0  0
    8.7837    9.2527   24.0970 O   0  0  0  0  0  0  0  0  0  0  0  0
    8.9186   10.5799   23.8655 C   0  0  0  0  0  0  0  0  0  0  0  0
    9.6857   11.0640   23.0489 O   0  0  0  0  0  0  0  0  0  0  0  0
    8.0797   11.3708   24.7948 C   0  0  0  0  0  0  0  0  0  0  0  0
    7.0051   10.7746   25.4664 C   0  0  0  0  0  0  0  0  0  0  0  0
    6.2456   11.5459   26.3384 C   0  0  0  0  0  0  0  0  0  0  0  0
    5.1585   10.9686   27.1983 C   0  0  0  0  0  0  0  0  0  0  0  0
    5.0995   11.3596   28.6580 C   0  0  0  0  0  0  0  0  0  0  0  0
    4.0690   11.8929   27.7126 C   0  0  0  0  0  0  0  0  0  0  0  0
    6.4936   12.8657   26.5021 N   0  0  0  0  0  0  0  0  0  0  0  0
    7.4974   13.4272   25.8164 C   0  0  0  0  0  0  0  0  0  0  0  0
    8.3677   12.7257   25.0035 C   0  0  0  0  0  0  0  0  0  0  0  0
    9.4785   13.4268   24.4783 N   0  0  0  0  0  0  0  0  0  0  0  0
   10.7493   12.9084   24.8560 N   0  0  0  0  0  0  0  0  0  0  0  0
    9.3664   14.0427   23.1947 C   0  0  0  0  0  0  0  0  0  0  0  0
    8.1351   14.1845   22.6518 N   0  0  0  0  0  0  0  0  0  0  0  0
    8.0816   14.8634   21.4881 C   0  0  0  0  0  0  0  0  0  0  0  0
    9.1981   15.3129   20.8224 C   0  0  0  0  0  0  0  0  0  0  0  0
   10.4098   15.1682   21.3211 N   0  0  0  0  0  0  0  0  0  0  0  0
   10.4816   14.5570   22.5120 C   0  0  0  0  0  0  0  0  0  0  0  0
   11.7154   14.6045   23.1240 O   0  0  0  0  0  0  0  0  0  0  0  0
   12.6855   15.0051   22.1600 C   0  0  0  0  0  0  0  0  0  0  0  0
  1  2  1  0
  2  3  1  0
  3  4  2  0
  3  5  1  0
  5  6  2  0
  6  7  1  0
  7  8  1  0
  8  9  1  0
  9 10  1  0
  7 11  2  0
 11 12  1  0
 12 13  2  0
 13 14  1  0
 14 15  1  0
 14 16  1  0
 16 17  2  0
 17 18  1  0
 18 19  2  0
 19 20  1  0
 20 21  2  0
 21 22  1  0
 22 23  1  0
 13  5  1  0
 21 16  1  0
 10  8  1  0
M  END
>  <energy_score>  (3370) 
-54.117048

>  <inchikey>  (3370) 
KWUCCYPVBDRNDG-UHFFFAOYSA-N

>  <smiles>  (3370) 
COC(=O)c1cc(C2CC2)ncc1N(N)c1nccnc1OC

>  <ref_pdb>  (3370) 
A0528a

>  <alias>  (3370) 
KWUCCYPVBDRNDG-UHFFFAOYSA-N-P15-P15-P308-601501

>  <HIPPO Pose ID>  (3370) 
502494

>  <name>  (3370) 
KWUCCYPVBDRNDG-UHFFFAOYSA-N-P15-P15-P308-601501

>  <HIPPO Compound ID>  (3370) 
292961

>  <ref_mols>  (3370) 
A4331a,A0514a

>  <distance_score>  (3370) 
1.845897

>  <inspiration_score>  (3370) 
None

$$$$
KWUCCYPVBDRNDG-UHFFFAOYSA-N-P308-P15-P308-601501
     RDKit          3D

 23 25  0  0  0  0  0  0  0  0999 V2000
    9.4341    8.6131   23.1718 C   0  0  0  0  0  0  0  0  0  0  0  0
    8.5232    9.4178   23.9116 O   0  0  0  0  0  0  0  0  0  0  0  0
    9.1104   10.4767   24.5196 C   0  0  0  0  0  0  0  0  0  0  0  0
   10.3094   10.7038   24.5715 O   0  0  0  0  0  0  0  0  0  0  0  0
    8.0325   11.3342   25.0677 C   0  0  0  0  0  0  0  0  0  0  0  0
    6.9154   10.7479   25.6726 C   0  0  0  0  0  0  0  0  0  0  0  0
    5.9566   11.5709   26.2523 C   0  0  0  0  0  0  0  0  0  0  0  0
    4.8732   11.0482   27.1525 C   0  0  0  0  0  0  0  0  0  0  0  0
    4.7883   11.5963   28.5630 C   0  0  0  0  0  0  0  0  0  0  0  0
    3.7422   11.9744   27.5662 C   0  0  0  0  0  0  0  0  0  0  0  0
    6.0219   12.9136   26.1262 N   0  0  0  0  0  0  0  0  0  0  0  0
    7.0678   13.4525   25.4888 C   0  0  0  0  0  0  0  0  0  0  0  0
    8.1336   12.7225   24.9968 C   0  0  0  0  0  0  0  0  0  0  0  0
    9.2599   13.4185   24.5378 N   0  0  0  0  0  0  0  0  0  0  0  0
   10.3742   13.3281   25.4085 N   0  0  0  0  0  0  0  0  0  0  0  0
    9.2564   14.2062   23.3475 C   0  0  0  0  0  0  0  0  0  0  0  0
    8.2611   14.0324   22.4425 N   0  0  0  0  0  0  0  0  0  0  0  0
    8.3701   14.7609   21.2997 C   0  0  0  0  0  0  0  0  0  0  0  0
    9.4112   15.6164   21.0114 C   0  0  0  0  0  0  0  0  0  0  0  0
   10.3768   15.8369   21.9000 N   0  0  0  0  0  0  0  0  0  0  0  0
   10.2741   15.1265   23.0476 C   0  0  0  0  0  0  0  0  0  0  0  0
   11.2842   15.3431   23.9505 O   0  0  0  0  0  0  0  0  0  0  0  0
   12.4828   14.9778   23.2864 C   0  0  0  0  0  0  0  0  0  0  0  0
  1  2  1  0
  2  3  1  0
  3  4  2  0
  3  5  1  0
  5  6  2  0
  6  7  1  0
  7  8  1  0
  8  9  1  0
  9 10  1  0
  7 11  2  0
 11 12  1  0
 12 13  2  0
 13 14  1  0
 14 15  1  0
 14 16  1  0
 16 17  2  0
 17 18  1  0
 18 19  2  0
 19 20  1  0
 20 21  2  0
 21 22  1  0
 22 23  1  0
 13  5  1  0
 21 16  1  0
 10  8  1  0
M  END
>  <energy_score>  (3371) 
-53.612511

>  <inchikey>  (3371) 
KWUCCYPVBDRNDG-UHFFFAOYSA-N

>  <smiles>  (3371) 
COC(=O)c1cc(C2CC2)ncc1N(N)c1nccnc1OC

>  <ref_pdb>  (3371) 
A0528a

>  <alias>  (3371) 
KWUCCYPVBDRNDG-UHFFFAOYSA-N-P308-P15-P308-601501

>  <HIPPO Pose ID>  (3371) 
502495

>  <name>  (3371) 
KWUCCYPVBDRNDG-UHFFFAOYSA-N-P308-P15-P308-601501

>  <HIPPO Compound ID>  (3371) 
292961

>  <ref_mols>  (3371) 
A4331a,A0514a

>  <distance_score>  (3371) 
1.831868

>  <inspiration_score>  (3371) 
None

$$$$
NRJQQNQGFKPIEQ-UHFFFAOYSA-N-P15-P15-P308-601501
     RDKit          3D

 23 25  0  0  0  0  0  0  0  0999 V2000
    9.4743    8.4582   23.0766 C   0  0  0  0  0  0  0  0  0  0  0  0
    8.8099    9.3294   23.9899 O   0  0  0  0  0  0  0  0  0  0  0  0
    8.9401   10.6399   23.7081 C   0  0  0  0  0  0  0  0  0  0  0  0
    9.5756   11.1170   22.7901 O   0  0  0  0  0  0  0  0  0  0  0  0
    8.2107   11.4651   24.6903 C   0  0  0  0  0  0  0  0  0  0  0  0
    7.1736   10.8549   25.4129 C   0  0  0  0  0  0  0  0  0  0  0  0
    6.4463   11.6140   26.3154 C   0  0  0  0  0  0  0  0  0  0  0  0
    5.3911   10.9764   27.1800 C   0  0  0  0  0  0  0  0  0  0  0  0
    4.2985   11.7680   27.3613 F   0  0  0  0  0  0  0  0  0  0  0  0
    5.8575   10.6885   28.4315 F   0  0  0  0  0  0  0  0  0  0  0  0
    4.9273    9.7971   26.6880 F   0  0  0  0  0  0  0  0  0  0  0  0
    6.7086   12.9286   26.5156 N   0  0  0  0  0  0  0  0  0  0  0  0
    7.6718   13.5011   25.7722 C   0  0  0  0  0  0  0  0  0  0  0  0
    8.4928   12.8324   24.8656 C   0  0  0  0  0  0  0  0  0  0  0  0
    9.4517   13.6208   24.1934 N   0  0  0  0  0  0  0  0  0  0  0  0
   10.8650   13.2142   24.3242 C   0  0  0  0  0  0  0  0  0  0  0  0
   11.8234   14.1824   23.6523 C   0  0  0  0  0  0  0  0  0  0  0  0
   11.5174   14.3571   22.1791 C   0  0  0  0  0  0  0  0  0  0  0  0
   10.0678   14.4855   21.9617 C   0  0  0  0  0  0  0  0  0  0  0  0
    9.4458   14.9816   20.9213 N   0  0  0  0  0  0  0  0  0  0  0  0
    8.1044   14.8553   21.1481 N   0  0  0  0  0  0  0  0  0  0  0  0
    7.9356   14.3375   22.3406 C   0  0  0  0  0  0  0  0  0  0  0  0
    9.1536   14.0646   22.8918 N   0  0  0  0  0  0  0  0  0  0  0  0
  1  2  1  0
  2  3  1  0
  3  4  2  0
  3  5  1  0
  5  6  2  0
  6  7  1  0
  7  8  1  0
  8  9  1  0
  8 10  1  0
  8 11  1  0
  7 12  2  0
 12 13  1  0
 13 14  2  0
 14 15  1  0
 15 16  1  0
 16 17  1  0
 17 18  1  0
 18 19  1  0
 19 20  2  0
 20 21  1  0
 21 22  2  0
 22 23  1  0
 14  5  1  0
 23 15  1  0
 23 19  1  0
M  END
>  <energy_score>  (3372) 
-29.449307

>  <inchikey>  (3372) 
NRJQQNQGFKPIEQ-UHFFFAOYSA-N

>  <smiles>  (3372) 
COC(=O)c1cc(C(F)(F)F)ncc1N1CCCc2nncn21

>  <ref_pdb>  (3372) 
A0528a

>  <alias>  (3372) 
NRJQQNQGFKPIEQ-UHFFFAOYSA-N-P15-P15-P308-601501

>  <HIPPO Pose ID>  (3372) 
502498

>  <name>  (3372) 
NRJQQNQGFKPIEQ-UHFFFAOYSA-N-P15-P15-P308-601501

>  <HIPPO Compound ID>  (3372) 
292963

>  <ref_mols>  (3372) 
A4331a,A0514a

>  <distance_score>  (3372) 
1.456565

>  <inspiration_score>  (3372) 
None

$$$$
NRJQQNQGFKPIEQ-UHFFFAOYSA-N-P308-P15-P308-601501
     RDKit          3D

 23 25  0  0  0  0  0  0  0  0999 V2000
    9.4992    8.5832   23.6295 C   0  0  0  0  0  0  0  0  0  0  0  0
    8.7605    9.5406   24.3855 O   0  0  0  0  0  0  0  0  0  0  0  0
    8.8858   10.7941   23.8960 C   0  0  0  0  0  0  0  0  0  0  0  0
    9.5199   11.1130   22.9094 O   0  0  0  0  0  0  0  0  0  0  0  0
    8.1446   11.7448   24.7546 C   0  0  0  0  0  0  0  0  0  0  0  0
    7.0276   11.2909   25.4695 C   0  0  0  0  0  0  0  0  0  0  0  0
    6.3239   12.2029   26.2437 C   0  0  0  0  0  0  0  0  0  0  0  0
    5.1074   11.7943   27.0339 C   0  0  0  0  0  0  0  0  0  0  0  0
    4.9034   10.4533   27.0315 F   0  0  0  0  0  0  0  0  0  0  0  0
    3.9451   12.3378   26.5774 F   0  0  0  0  0  0  0  0  0  0  0  0
    5.1928   12.1336   28.3530 F   0  0  0  0  0  0  0  0  0  0  0  0
    6.7082   13.5010   26.3421 N   0  0  0  0  0  0  0  0  0  0  0  0
    7.7743   13.9123   25.6324 C   0  0  0  0  0  0  0  0  0  0  0  0
    8.5399   13.0940   24.8146 C   0  0  0  0  0  0  0  0  0  0  0  0
    9.5698   13.6151   24.0127 N   0  0  0  0  0  0  0  0  0  0  0  0
   10.6510   14.3523   24.6882 C   0  0  0  0  0  0  0  0  0  0  0  0
   11.8242   14.5410   23.7244 C   0  0  0  0  0  0  0  0  0  0  0  0
   11.4093   15.4321   22.5614 C   0  0  0  0  0  0  0  0  0  0  0  0
   10.0670   15.0604   22.0706 C   0  0  0  0  0  0  0  0  0  0  0  0
    9.4530   15.4795   20.9899 N   0  0  0  0  0  0  0  0  0  0  0  0
    8.1989   14.9292   20.9944 N   0  0  0  0  0  0  0  0  0  0  0  0
    8.0679   14.2180   22.0898 C   0  0  0  0  0  0  0  0  0  0  0  0
    9.2359   14.2407   22.7923 N   0  0  0  0  0  0  0  0  0  0  0  0
  1  2  1  0
  2  3  1  0
  3  4  2  0
  3  5  1  0
  5  6  2  0
  6  7  1  0
  7  8  1  0
  8  9  1  0
  8 10  1  0
  8 11  1  0
  7 12  2  0
 12 13  1  0
 13 14  2  0
 14 15  1  0
 15 16  1  0
 16 17  1  0
 17 18  1  0
 18 19  1  0
 19 20  2  0
 20 21  1  0
 21 22  2  0
 22 23  1  0
 14  5  1  0
 23 15  1  0
 23 19  1  0
M  END
>  <energy_score>  (3373) 
-31.218622

>  <inchikey>  (3373) 
NRJQQNQGFKPIEQ-UHFFFAOYSA-N

>  <smiles>  (3373) 
COC(=O)c1cc(C(F)(F)F)ncc1N1CCCc2nncn21

>  <ref_pdb>  (3373) 
A0528a

>  <alias>  (3373) 
NRJQQNQGFKPIEQ-UHFFFAOYSA-N-P308-P15-P308-601501

>  <HIPPO Pose ID>  (3373) 
502499

>  <name>  (3373) 
NRJQQNQGFKPIEQ-UHFFFAOYSA-N-P308-P15-P308-601501

>  <HIPPO Compound ID>  (3373) 
292963

>  <ref_mols>  (3373) 
A4331a,A0514a

>  <distance_score>  (3373) 
1.550032

>  <inspiration_score>  (3373) 
None

$$$$
QJUUZYSNRQFNGJ-UHFFFAOYSA-N-P15-P15-P308-601501
     RDKit          3D

 23 24  0  0  0  0  0  0  0  0999 V2000
    9.4060    8.6934   22.9803 C   0  0  0  0  0  0  0  0  0  0  0  0
    8.5361    9.5496   23.7212 O   0  0  0  0  0  0  0  0  0  0  0  0
    9.0199   10.8022   23.8695 C   0  0  0  0  0  0  0  0  0  0  0  0
   10.1055   11.2080   23.4985 O   0  0  0  0  0  0  0  0  0  0  0  0
    8.0926   11.6332   24.6539 C   0  0  0  0  0  0  0  0  0  0  0  0
    7.2657   11.0362   25.6006 C   0  0  0  0  0  0  0  0  0  0  0  0
    6.4714   11.8425   26.4077 C   0  0  0  0  0  0  0  0  0  0  0  0
    5.4830   11.2055   27.3536 C   0  0  0  0  0  0  0  0  0  0  0  0
    4.3673   11.9562   27.5571 F   0  0  0  0  0  0  0  0  0  0  0  0
    6.0134   10.9669   28.5878 F   0  0  0  0  0  0  0  0  0  0  0  0
    5.0348    9.9942   26.9142 F   0  0  0  0  0  0  0  0  0  0  0  0
    6.5550   13.1912   26.3835 N   0  0  0  0  0  0  0  0  0  0  0  0
    7.2780   13.7293   25.3891 C   0  0  0  0  0  0  0  0  0  0  0  0
    8.0407   13.0141   24.4703 C   0  0  0  0  0  0  0  0  0  0  0  0
    8.3935   13.6430   23.2651 N   0  0  0  0  0  0  0  0  0  0  0  0
    7.2987   13.7663   22.3797 N   0  0  0  0  0  0  0  0  0  0  0  0
    9.6279   14.0995   22.7569 C   0  0  0  0  0  0  0  0  0  0  0  0
   10.8270   14.0553   23.4571 C   0  0  0  0  0  0  0  0  0  0  0  0
   11.9967   14.5407   22.9724 N   0  0  0  0  0  0  0  0  0  0  0  0
   11.9266   15.0444   21.7100 C   0  0  0  0  0  0  0  0  0  0  0  0
   10.7429   15.0986   20.9841 C   0  0  0  0  0  0  0  0  0  0  0  0
   10.6501   15.7201   19.6301 C   0  0  0  0  0  0  0  0  0  0  0  0
    9.5846   14.6503   21.5146 N   0  0  0  0  0  0  0  0  0  0  0  0
  1  2  1  0
  2  3  1  0
  3  4  2  0
  3  5  1  0
  5  6  2  0
  6  7  1  0
  7  8  1  0
  8  9  1  0
  8 10  1  0
  8 11  1  0
  7 12  2  0
 12 13  1  0
 13 14  2  0
 14 15  1  0
 15 16  1  0
 15 17  1  0
 17 18  2  0
 18 19  1  0
 19 20  2  0
 20 21  1  0
 21 22  1  0
 21 23  2  0
 14  5  1  0
 23 17  1  0
M  END
>  <energy_score>  (3374) 
-42.958966

>  <inchikey>  (3374) 
QJUUZYSNRQFNGJ-UHFFFAOYSA-N

>  <smiles>  (3374) 
COC(=O)c1cc(C(F)(F)F)ncc1N(N)c1cncc(C)n1

>  <ref_pdb>  (3374) 
A0528a

>  <alias>  (3374) 
QJUUZYSNRQFNGJ-UHFFFAOYSA-N-P15-P15-P308-601501

>  <HIPPO Pose ID>  (3374) 
502500

>  <name>  (3374) 
QJUUZYSNRQFNGJ-UHFFFAOYSA-N-P15-P15-P308-601501

>  <HIPPO Compound ID>  (3374) 
292964

>  <ref_mols>  (3374) 
A4331a,A0514a

>  <distance_score>  (3374) 
1.539881

>  <inspiration_score>  (3374) 
None

$$$$
QJUUZYSNRQFNGJ-UHFFFAOYSA-N-P308-P15-P308-601501
     RDKit          3D

 23 24  0  0  0  0  0  0  0  0999 V2000
    9.5189    8.6614   23.1575 C   0  0  0  0  0  0  0  0  0  0  0  0
    8.6492    9.6714   23.6556 O   0  0  0  0  0  0  0  0  0  0  0  0
    9.2692   10.6497   24.3505 C   0  0  0  0  0  0  0  0  0  0  0  0
   10.4360   10.6884   24.7038 O   0  0  0  0  0  0  0  0  0  0  0  0
    8.2478   11.6781   24.6345 C   0  0  0  0  0  0  0  0  0  0  0  0
    7.0803   11.2726   25.2699 C   0  0  0  0  0  0  0  0  0  0  0  0
    6.1661   12.2421   25.6585 C   0  0  0  0  0  0  0  0  0  0  0  0
    5.0409   11.8578   26.5907 C   0  0  0  0  0  0  0  0  0  0  0  0
    5.2649   12.2932   27.8632 F   0  0  0  0  0  0  0  0  0  0  0  0
    4.8917   10.5027   26.7114 F   0  0  0  0  0  0  0  0  0  0  0  0
    3.8164   12.3352   26.2421 F   0  0  0  0  0  0  0  0  0  0  0  0
    6.3227   13.5490   25.3351 N   0  0  0  0  0  0  0  0  0  0  0  0
    7.4450   13.9024   24.6787 C   0  0  0  0  0  0  0  0  0  0  0  0
    8.4889   13.0353   24.3964 C   0  0  0  0  0  0  0  0  0  0  0  0
    9.7984   13.5420   24.2873 N   0  0  0  0  0  0  0  0  0  0  0  0
   10.5417   13.3497   25.4872 N   0  0  0  0  0  0  0  0  0  0  0  0
   10.3687   14.4035   23.2990 C   0  0  0  0  0  0  0  0  0  0  0  0
   11.6340   14.9520   23.5638 C   0  0  0  0  0  0  0  0  0  0  0  0
   12.3729   15.6589   22.6920 N   0  0  0  0  0  0  0  0  0  0  0  0
   11.8033   15.8373   21.4954 C   0  0  0  0  0  0  0  0  0  0  0  0
   10.5390   15.3471   21.1979 C   0  0  0  0  0  0  0  0  0  0  0  0
   10.0063   15.5904   19.8248 C   0  0  0  0  0  0  0  0  0  0  0  0
    9.7892   14.6266   22.0953 N   0  0  0  0  0  0  0  0  0  0  0  0
  1  2  1  0
  2  3  1  0
  3  4  2  0
  3  5  1  0
  5  6  2  0
  6  7  1  0
  7  8  1  0
  8  9  1  0
  8 10  1  0
  8 11  1  0
  7 12  2  0
 12 13  1  0
 13 14  2  0
 14 15  1  0
 15 16  1  0
 15 17  1  0
 17 18  2  0
 18 19  1  0
 19 20  2  0
 20 21  1  0
 21 22  1  0
 21 23  2  0
 14  5  1  0
 23 17  1  0
M  END
>  <energy_score>  (3375) 
-39.773455

>  <inchikey>  (3375) 
QJUUZYSNRQFNGJ-UHFFFAOYSA-N

>  <smiles>  (3375) 
COC(=O)c1cc(C(F)(F)F)ncc1N(N)c1cncc(C)n1

>  <ref_pdb>  (3375) 
A0528a

>  <alias>  (3375) 
QJUUZYSNRQFNGJ-UHFFFAOYSA-N-P308-P15-P308-601501

>  <HIPPO Pose ID>  (3375) 
502501

>  <name>  (3375) 
QJUUZYSNRQFNGJ-UHFFFAOYSA-N-P308-P15-P308-601501

>  <HIPPO Compound ID>  (3375) 
292964

>  <ref_mols>  (3375) 
A4331a,A0514a

>  <distance_score>  (3375) 
1.626396

>  <inspiration_score>  (3375) 
None

$$$$
ZXNKWTGKHHGTIZ-UHFFFAOYSA-N-P15-P15-P308-601501
     RDKit          3D

 23 24  0  0  0  0  0  0  0  0999 V2000
    9.2003    8.6179   23.1274 C   0  0  0  0  0  0  0  0  0  0  0  0
    8.2376    9.2802   23.9580 O   0  0  0  0  0  0  0  0  0  0  0  0
    8.5763   10.5580   24.2337 C   0  0  0  0  0  0  0  0  0  0  0  0
    9.6305   11.0894   23.9231 O   0  0  0  0  0  0  0  0  0  0  0  0
    7.4938   11.2546   24.9790 C   0  0  0  0  0  0  0  0  0  0  0  0
    6.6456   10.5665   25.8467 C   0  0  0  0  0  0  0  0  0  0  0  0
    5.7179   11.2897   26.5993 C   0  0  0  0  0  0  0  0  0  0  0  0
    4.9114   10.5840   27.6744 C   0  0  0  0  0  0  0  0  0  0  0  0
    5.6644   10.3346   28.7843 F   0  0  0  0  0  0  0  0  0  0  0  0
    3.8211   11.2789   28.1082 F   0  0  0  0  0  0  0  0  0  0  0  0
    4.4256    9.3767   27.2747 F   0  0  0  0  0  0  0  0  0  0  0  0
    5.5636   12.6337   26.4615 N   0  0  0  0  0  0  0  0  0  0  0  0
    6.3352   13.2699   25.5503 C   0  0  0  0  0  0  0  0  0  0  0  0
    7.3546   12.6464   24.8364 C   0  0  0  0  0  0  0  0  0  0  0  0
    8.1030   13.3234   23.8049 N   0  0  0  0  0  0  0  0  0  0  0  0
    9.0986   13.5750   25.0391 N   0  0  0  0  0  0  0  0  0  0  0  0
    7.8459   14.5406   23.1136 C   0  0  0  0  0  0  0  0  0  0  0  0
    6.9829   15.3621   23.2724 O   0  0  0  0  0  0  0  0  0  0  0  0
    8.9382   14.7364   22.1437 C   0  0  0  0  0  0  0  0  0  0  0  0
    8.9725   15.7529   21.2151 C   0  0  0  0  0  0  0  0  0  0  0  0
   10.4236   15.6984   20.3237 S   0  0  0  0  0  0  0  0  0  0  0  0
   10.9665   14.4094   21.2982 C   0  0  0  0  0  0  0  0  0  0  0  0
   10.1210   13.9886   22.2119 N   0  0  0  0  0  0  0  0  0  0  0  0
  1  2  1  0
  2  3  1  0
  3  4  2  0
  3  5  1  0
  5  6  2  0
  6  7  1  0
  7  8  1  0
  8  9  1  0
  8 10  1  0
  8 11  1  0
  7 12  2  0
 12 13  1  0
 13 14  2  0
 14 15  1  0
 15 16  1  0
 15 17  1  0
 17 18  2  0
 17 19  1  0
 19 20  2  0
 20 21  1  0
 21 22  1  0
 22 23  2  0
 14  5  1  0
 23 19  1  0
M  END
>  <energy_score>  (3376) 
-14.724396

>  <inchikey>  (3376) 
ZXNKWTGKHHGTIZ-UHFFFAOYSA-N

>  <smiles>  (3376) 
COC(=O)c1cc(C(F)(F)F)ncc1N(N)C(=O)c1cscn1

>  <ref_pdb>  (3376) 
A0528a

>  <alias>  (3376) 
ZXNKWTGKHHGTIZ-UHFFFAOYSA-N-P15-P15-P308-601501

>  <HIPPO Pose ID>  (3376) 
502502

>  <name>  (3376) 
ZXNKWTGKHHGTIZ-UHFFFAOYSA-N-P15-P15-P308-601501

>  <HIPPO Compound ID>  (3376) 
292965

>  <ref_mols>  (3376) 
A4331a,A0514a

>  <distance_score>  (3376) 
1.50867

>  <inspiration_score>  (3376) 
None

$$$$
ZXNKWTGKHHGTIZ-UHFFFAOYSA-N-P308-P15-P308-601501
     RDKit          3D

 23 24  0  0  0  0  0  0  0  0999 V2000
    9.5882    8.8313   23.2020 C   0  0  0  0  0  0  0  0  0  0  0  0
    8.6782    9.7352   23.8239 O   0  0  0  0  0  0  0  0  0  0  0  0
    9.2570   10.7980   24.4286 C   0  0  0  0  0  0  0  0  0  0  0  0
   10.4481   11.0565   24.4894 O   0  0  0  0  0  0  0  0  0  0  0  0
    8.1890   11.6041   25.0584 C   0  0  0  0  0  0  0  0  0  0  0  0
    7.1249   10.9398   25.6834 C   0  0  0  0  0  0  0  0  0  0  0  0
    6.1613   11.6970   26.3396 C   0  0  0  0  0  0  0  0  0  0  0  0
    5.0302   11.0514   27.0909 C   0  0  0  0  0  0  0  0  0  0  0  0
    3.8605   11.7352   26.9718 F   0  0  0  0  0  0  0  0  0  0  0  0
    4.7782    9.7753   26.6869 F   0  0  0  0  0  0  0  0  0  0  0  0
    5.2456   10.9625   28.4351 F   0  0  0  0  0  0  0  0  0  0  0  0
    6.2151   13.0501   26.3833 N   0  0  0  0  0  0  0  0  0  0  0  0
    7.2101   13.6684   25.7243 C   0  0  0  0  0  0  0  0  0  0  0  0
    8.2499   13.0085   25.0772 C   0  0  0  0  0  0  0  0  0  0  0  0
    9.1099   13.7699   24.1926 N   0  0  0  0  0  0  0  0  0  0  0  0
   10.0506   13.6653   25.4637 N   0  0  0  0  0  0  0  0  0  0  0  0
    9.0027   15.2062   23.7005 C   0  0  0  0  0  0  0  0  0  0  0  0
    8.2378   16.0561   23.9884 O   0  0  0  0  0  0  0  0  0  0  0  0
   10.0122   15.4007   22.6753 C   0  0  0  0  0  0  0  0  0  0  0  0
    9.7021   15.6041   21.3446 C   0  0  0  0  0  0  0  0  0  0  0  0
   11.1380   15.6981   20.4275 S   0  0  0  0  0  0  0  0  0  0  0  0
   12.0458   15.5917   21.8787 C   0  0  0  0  0  0  0  0  0  0  0  0
   11.3686   15.3728   22.9845 N   0  0  0  0  0  0  0  0  0  0  0  0
  1  2  1  0
  2  3  1  0
  3  4  2  0
  3  5  1  0
  5  6  2  0
  6  7  1  0
  7  8  1  0
  8  9  1  0
  8 10  1  0
  8 11  1  0
  7 12  2  0
 12 13  1  0
 13 14  2  0
 14 15  1  0
 15 16  1  0
 15 17  1  0
 17 18  2  0
 17 19  1  0
 19 20  2  0
 20 21  1  0
 21 22  1  0
 22 23  2  0
 14  5  1  0
 23 19  1  0
M  END
>  <energy_score>  (3377) 
-30.252283

>  <inchikey>  (3377) 
ZXNKWTGKHHGTIZ-UHFFFAOYSA-N

>  <smiles>  (3377) 
COC(=O)c1cc(C(F)(F)F)ncc1N(N)C(=O)c1cscn1

>  <ref_pdb>  (3377) 
A0528a

>  <alias>  (3377) 
ZXNKWTGKHHGTIZ-UHFFFAOYSA-N-P308-P15-P308-601501

>  <HIPPO Pose ID>  (3377) 
502503

>  <name>  (3377) 
ZXNKWTGKHHGTIZ-UHFFFAOYSA-N-P308-P15-P308-601501

>  <HIPPO Compound ID>  (3377) 
292965

>  <ref_mols>  (3377) 
A4331a,A0514a

>  <distance_score>  (3377) 
1.29647

>  <inspiration_score>  (3377) 
None

$$$$
WHEGVQZYHFMMKY-UHFFFAOYSA-N-P15-P15-P308-601501
     RDKit          3D

 23 24  0  0  0  0  0  0  0  0999 V2000
   12.5136   15.5203   21.5582 C   0  0  0  0  0  0  0  0  0  0  0  0
   11.7922   14.4795   20.7451 C   0  0  0  0  0  0  0  0  0  0  0  0
   10.5219   14.1764   21.3354 O   0  0  0  0  0  0  0  0  0  0  0  0
   10.5764   13.5005   22.5058 C   0  0  0  0  0  0  0  0  0  0  0  0
   11.6230   13.1211   23.0363 O   0  0  0  0  0  0  0  0  0  0  0  0
    9.1811   13.2687   23.1304 C   0  0  2  0  0  0  0  0  0  0  0  0
    8.0781   14.3354   22.9624 C   0  0  0  0  0  0  0  0  0  0  0  0
    7.9329   15.0351   21.6326 C   0  0  0  0  0  0  0  0  0  0  0  0
    9.3931   12.9833   24.6019 N   0  0  0  0  0  0  0  0  0  0  0  0
   10.1902   13.9789   25.2952 N   0  0  0  0  0  0  0  0  0  0  0  0
    8.2027   12.5607   25.2431 C   0  0  0  0  0  0  0  0  0  0  0  0
    7.5034   13.4711   26.0342 C   0  0  0  0  0  0  0  0  0  0  0  0
    6.4102   13.1980   26.7603 N   0  0  0  0  0  0  0  0  0  0  0  0
    5.8937   11.9583   26.7099 C   0  0  0  0  0  0  0  0  0  0  0  0
    4.6955   11.6761   27.5636 C   0  0  0  0  0  0  0  0  0  0  0  0
    3.4676   12.5407   27.4103 C   0  0  0  0  0  0  0  0  0  0  0  0
    4.3126   12.6714   28.6398 C   0  0  0  0  0  0  0  0  0  0  0  0
    6.4788   10.9889   25.9207 C   0  0  0  0  0  0  0  0  0  0  0  0
    7.6467   11.2741   25.1872 C   0  0  0  0  0  0  0  0  0  0  0  0
    8.1914   10.0750   24.5110 C   0  0  0  0  0  0  0  0  0  0  0  0
    7.7006    8.9790   24.7424 O   0  0  0  0  0  0  0  0  0  0  0  0
    9.2097   10.3036   23.6649 O   0  0  0  0  0  0  0  0  0  0  0  0
    9.6991    9.1177   23.0293 C   0  0  0  0  0  0  0  0  0  0  0  0
  1  2  1  0
  2  3  1  0
  3  4  1  0
  4  5  2  0
  4  6  1  0
  6  7  1  1
  7  8  1  0
  6  9  1  0
  9 10  1  0
  9 11  1  0
 11 12  2  0
 12 13  1  0
 13 14  2  0
 14 15  1  0
 15 16  1  0
 16 17  1  0
 14 18  1  0
 18 19  2  0
 19 20  1  0
 20 21  2  0
 20 22  1  0
 22 23  1  0
 19 11  1  0
 17 15  1  0
M  END
>  <energy_score>  (3378) 
-35.468647

>  <inchikey>  (3378) 
WHEGVQZYHFMMKY-UHFFFAOYSA-N

>  <smiles>  (3378) 
CCOC(=O)C(CC)N(N)c1cnc(C2CC2)cc1C(=O)OC

>  <ref_pdb>  (3378) 
A0528a

>  <alias>  (3378) 
WHEGVQZYHFMMKY-UHFFFAOYSA-N-P15-P15-P308-601501

>  <HIPPO Pose ID>  (3378) 
502504

>  <name>  (3378) 
WHEGVQZYHFMMKY-UHFFFAOYSA-N-P15-P15-P308-601501

>  <HIPPO Compound ID>  (3378) 
292966

>  <ref_mols>  (3378) 
A4331a,A0514a

>  <distance_score>  (3378) 
1.799319

>  <inspiration_score>  (3378) 
None

$$$$
WHEGVQZYHFMMKY-UHFFFAOYSA-N-P308-P15-P308-601501
     RDKit          3D

 23 24  0  0  0  0  0  0  0  0999 V2000
   12.1130   16.2192   21.4856 C   0  0  0  0  0  0  0  0  0  0  0  0
   11.6355   15.0180   20.6957 C   0  0  0  0  0  0  0  0  0  0  0  0
   10.4903   14.4323   21.3247 O   0  0  0  0  0  0  0  0  0  0  0  0
   10.6966   13.7986   22.5093 C   0  0  0  0  0  0  0  0  0  0  0  0
   11.8032   13.6235   23.0177 O   0  0  0  0  0  0  0  0  0  0  0  0
    9.3525   13.3412   23.1253 C   0  0  2  0  0  0  0  0  0  0  0  0
    8.2305   14.4126   23.0595 C   0  0  0  0  0  0  0  0  0  0  0  0
    7.8507   14.9802   21.7012 C   0  0  0  0  0  0  0  0  0  0  0  0
    9.5670   12.8146   24.5509 N   0  0  0  0  0  0  0  0  0  0  0  0
   10.4717   13.5499   25.3954 N   0  0  0  0  0  0  0  0  0  0  0  0
    8.3493   12.4811   25.1906 C   0  0  0  0  0  0  0  0  0  0  0  0
    7.6898   13.4691   25.9245 C   0  0  0  0  0  0  0  0  0  0  0  0
    6.4851   13.3437   26.4968 N   0  0  0  0  0  0  0  0  0  0  0  0
    5.8498   12.1661   26.3845 C   0  0  0  0  0  0  0  0  0  0  0  0
    4.4862   12.1118   26.9836 C   0  0  0  0  0  0  0  0  0  0  0  0
    4.1833   11.2783   28.1956 C   0  0  0  0  0  0  0  0  0  0  0  0
    4.2873   12.7675   28.3339 C   0  0  0  0  0  0  0  0  0  0  0  0
    6.4412   11.0927   25.7413 C   0  0  0  0  0  0  0  0  0  0  0  0
    7.7008   11.2432   25.1359 C   0  0  0  0  0  0  0  0  0  0  0  0
    8.2268    9.9960   24.5422 C   0  0  0  0  0  0  0  0  0  0  0  0
    7.7545    8.9104   24.8540 O   0  0  0  0  0  0  0  0  0  0  0  0
    9.1718   10.2039   23.6072 O   0  0  0  0  0  0  0  0  0  0  0  0
    9.6506    9.0019   23.0030 C   0  0  0  0  0  0  0  0  0  0  0  0
  1  2  1  0
  2  3  1  0
  3  4  1  0
  4  5  2  0
  4  6  1  0
  6  7  1  1
  7  8  1  0
  6  9  1  0
  9 10  1  0
  9 11  1  0
 11 12  2  0
 12 13  1  0
 13 14  2  0
 14 15  1  0
 15 16  1  0
 16 17  1  0
 14 18  1  0
 18 19  2  0
 19 20  1  0
 20 21  2  0
 20 22  1  0
 22 23  1  0
 19 11  1  0
 17 15  1  0
M  END
>  <energy_score>  (3379) 
-38.694032

>  <inchikey>  (3379) 
WHEGVQZYHFMMKY-UHFFFAOYSA-N

>  <smiles>  (3379) 
CCOC(=O)C(CC)N(N)c1cnc(C2CC2)cc1C(=O)OC

>  <ref_pdb>  (3379) 
A0528a

>  <alias>  (3379) 
WHEGVQZYHFMMKY-UHFFFAOYSA-N-P308-P15-P308-601501

>  <HIPPO Pose ID>  (3379) 
502505

>  <name>  (3379) 
WHEGVQZYHFMMKY-UHFFFAOYSA-N-P308-P15-P308-601501

>  <HIPPO Compound ID>  (3379) 
292966

>  <ref_mols>  (3379) 
A4331a,A0514a

>  <distance_score>  (3379) 
1.781879

>  <inspiration_score>  (3379) 
None

$$$$
IKBZWALMYGCHNC-UHFFFAOYSA-N-P15-P15-P308-601501
     RDKit          3D

 24 24  0  0  0  0  0  0  0  0999 V2000
   12.4218   15.5111   21.5750 C   0  0  0  0  0  0  0  0  0  0  0  0
   11.7574   14.4180   20.7831 C   0  0  0  0  0  0  0  0  0  0  0  0
   10.4678   14.1249   21.3367 O   0  0  0  0  0  0  0  0  0  0  0  0
   10.4945   13.4572   22.5205 C   0  0  0  0  0  0  0  0  0  0  0  0
   11.5209   13.0651   23.0754 O   0  0  0  0  0  0  0  0  0  0  0  0
    9.0739   13.3188   23.1199 C   0  0  2  0  0  0  0  0  0  0  0  0
    8.2116   14.5807   22.9250 C   0  0  0  0  0  0  0  0  0  0  0  0
    6.7565   14.3411   22.5700 C   0  0  0  0  0  0  0  0  0  0  0  0
    9.2192   12.9632   24.5673 N   0  0  0  0  0  0  0  0  0  0  0  0
   10.0942   13.7462   25.3799 N   0  0  0  0  0  0  0  0  0  0  0  0
    8.0581   12.4845   25.1906 C   0  0  0  0  0  0  0  0  0  0  0  0
    7.3343   13.3383   26.0254 C   0  0  0  0  0  0  0  0  0  0  0  0
    6.2925   12.9838   26.7936 N   0  0  0  0  0  0  0  0  0  0  0  0
    5.8870   11.6976   26.7366 C   0  0  0  0  0  0  0  0  0  0  0  0
    4.8129   11.2723   27.6926 C   0  0  0  0  0  0  0  0  0  0  0  0
    3.7376   12.1043   27.6553 F   0  0  0  0  0  0  0  0  0  0  0  0
    4.3145   10.0251   27.4585 F   0  0  0  0  0  0  0  0  0  0  0  0
    5.2359   11.2527   28.9895 F   0  0  0  0  0  0  0  0  0  0  0  0
    6.4859   10.7800   25.8994 C   0  0  0  0  0  0  0  0  0  0  0  0
    7.5927   11.1644   25.1266 C   0  0  0  0  0  0  0  0  0  0  0  0
    8.2163   10.0195   24.4313 C   0  0  0  0  0  0  0  0  0  0  0  0
    7.8441    8.8869   24.7036 O   0  0  0  0  0  0  0  0  0  0  0  0
    9.1521   10.3256   23.5173 O   0  0  0  0  0  0  0  0  0  0  0  0
    9.7162    9.1568   22.9150 C   0  0  0  0  0  0  0  0  0  0  0  0
  1  2  1  0
  2  3  1  0
  3  4  1  0
  4  5  2  0
  4  6  1  0
  6  7  1  1
  7  8  1  0
  6  9  1  0
  9 10  1  0
  9 11  1  0
 11 12  2  0
 12 13  1  0
 13 14  2  0
 14 15  1  0
 15 16  1  0
 15 17  1  0
 15 18  1  0
 14 19  1  0
 19 20  2  0
 20 21  1  0
 21 22  2  0
 21 23  1  0
 23 24  1  0
 20 11  1  0
M  END
>  <energy_score>  (3380) 
-44.775666

>  <inchikey>  (3380) 
IKBZWALMYGCHNC-UHFFFAOYSA-N

>  <smiles>  (3380) 
CCOC(=O)C(CC)N(N)c1cnc(C(F)(F)F)cc1C(=O)OC

>  <ref_pdb>  (3380) 
A0528a

>  <alias>  (3380) 
IKBZWALMYGCHNC-UHFFFAOYSA-N-P15-P15-P308-601501

>  <HIPPO Pose ID>  (3380) 
502506

>  <name>  (3380) 
IKBZWALMYGCHNC-UHFFFAOYSA-N-P15-P15-P308-601501

>  <HIPPO Compound ID>  (3380) 
292967

>  <ref_mols>  (3380) 
A4331a,A0514a

>  <distance_score>  (3380) 
1.332927

>  <inspiration_score>  (3380) 
None

$$$$
IKBZWALMYGCHNC-UHFFFAOYSA-N-P308-P15-P308-601501
     RDKit          3D

 24 24  0  0  0  0  0  0  0  0999 V2000
   11.9407   15.4338   20.5485 C   0  0  0  0  0  0  0  0  0  0  0  0
   11.8324   16.0589   21.9194 C   0  0  0  0  0  0  0  0  0  0  0  0
   10.7036   15.4848   22.5838 O   0  0  0  0  0  0  0  0  0  0  0  0
   10.9226   14.2347   23.0594 C   0  0  0  0  0  0  0  0  0  0  0  0
   12.0393   13.7911   23.3378 O   0  0  0  0  0  0  0  0  0  0  0  0
    9.6304   13.4016   23.2003 C   0  0  2  0  0  0  0  0  0  0  0  0
    8.3272   14.1242   22.7813 C   0  0  0  0  0  0  0  0  0  0  0  0
    8.3199   14.6823   21.3681 C   0  0  0  0  0  0  0  0  0  0  0  0
    9.5727   12.8942   24.6170 N   0  0  0  0  0  0  0  0  0  0  0  0
   10.6987   12.2133   25.1527 N   0  0  0  0  0  0  0  0  0  0  0  0
    8.3357   12.4591   25.1045 C   0  0  0  0  0  0  0  0  0  0  0  0
    7.5640   13.4219   25.7569 C   0  0  0  0  0  0  0  0  0  0  0  0
    6.3904   13.2017   26.3679 N   0  0  0  0  0  0  0  0  0  0  0  0
    5.9128   11.9373   26.3605 C   0  0  0  0  0  0  0  0  0  0  0  0
    4.6705   11.6731   27.1603 C   0  0  0  0  0  0  0  0  0  0  0  0
    4.7454   12.2072   28.4092 F   0  0  0  0  0  0  0  0  0  0  0  0
    3.5383   12.1905   26.6055 F   0  0  0  0  0  0  0  0  0  0  0  0
    4.4133   10.3467   27.3536 F   0  0  0  0  0  0  0  0  0  0  0  0
    6.5735   10.9094   25.7129 C   0  0  0  0  0  0  0  0  0  0  0  0
    7.7979   11.1668   25.0780 C   0  0  0  0  0  0  0  0  0  0  0  0
    8.3800    9.9639   24.4526 C   0  0  0  0  0  0  0  0  0  0  0  0
    8.0622    8.8469   24.8380 O   0  0  0  0  0  0  0  0  0  0  0  0
    9.1781   10.2347   23.4041 O   0  0  0  0  0  0  0  0  0  0  0  0
    9.6922    9.0473   22.8048 C   0  0  0  0  0  0  0  0  0  0  0  0
  1  2  1  0
  2  3  1  0
  3  4  1  0
  4  5  2  0
  4  6  1  0
  6  7  1  1
  7  8  1  0
  6  9  1  0
  9 10  1  0
  9 11  1  0
 11 12  2  0
 12 13  1  0
 13 14  2  0
 14 15  1  0
 15 16  1  0
 15 17  1  0
 15 18  1  0
 14 19  1  0
 19 20  2  0
 20 21  1  0
 21 22  2  0
 21 23  1  0
 23 24  1  0
 20 11  1  0
M  END
>  <energy_score>  (3381) 
-41.309114

>  <inchikey>  (3381) 
IKBZWALMYGCHNC-UHFFFAOYSA-N

>  <smiles>  (3381) 
CCOC(=O)C(CC)N(N)c1cnc(C(F)(F)F)cc1C(=O)OC

>  <ref_pdb>  (3381) 
A0528a

>  <alias>  (3381) 
IKBZWALMYGCHNC-UHFFFAOYSA-N-P308-P15-P308-601501

>  <HIPPO Pose ID>  (3381) 
502507

>  <name>  (3381) 
IKBZWALMYGCHNC-UHFFFAOYSA-N-P308-P15-P308-601501

>  <HIPPO Compound ID>  (3381) 
292967

>  <ref_mols>  (3381) 
A4331a,A0514a

>  <distance_score>  (3381) 
1.69383

>  <inspiration_score>  (3381) 
None

$$$$
IKHYGPOTUVCTLW-UHFFFAOYSA-N-P15-P15-P308-601501
     RDKit          3D

 24 25  0  0  0  0  0  0  0  0999 V2000
    9.2190    8.6547   23.0240 C   0  0  0  0  0  0  0  0  0  0  0  0
    8.2397    9.4158   23.7361 O   0  0  0  0  0  0  0  0  0  0  0  0
    8.7159   10.6058   24.1693 C   0  0  0  0  0  0  0  0  0  0  0  0
    9.8691   10.9718   24.0523 O   0  0  0  0  0  0  0  0  0  0  0  0
    7.6590   11.3695   24.8748 C   0  0  0  0  0  0  0  0  0  0  0  0
    6.7642   10.6283   25.6540 C   0  0  0  0  0  0  0  0  0  0  0  0
    5.8862   11.3101   26.4830 C   0  0  0  0  0  0  0  0  0  0  0  0
    5.0714   10.5775   27.5089 C   0  0  0  0  0  0  0  0  0  0  0  0
    4.0600   11.3411   28.0065 F   0  0  0  0  0  0  0  0  0  0  0  0
    5.8160   10.1875   28.5836 F   0  0  0  0  0  0  0  0  0  0  0  0
    4.4835    9.4495   27.0305 F   0  0  0  0  0  0  0  0  0  0  0  0
    5.8052   12.6607   26.5052 N   0  0  0  0  0  0  0  0  0  0  0  0
    6.6404   13.3507   25.7196 C   0  0  0  0  0  0  0  0  0  0  0  0
    7.6177   12.7756   24.9190 C   0  0  0  0  0  0  0  0  0  0  0  0
    8.5323   13.6924   24.3561 N   0  0  0  0  0  0  0  0  0  0  0  0
    9.7922   13.6494   25.1118 N   0  0  0  0  0  0  0  0  0  0  0  0
    8.7632   13.7404   22.9460 C   0  0  0  0  0  0  0  0  0  0  0  0
    9.7625   12.9595   22.5512 N   0  0  0  0  0  0  0  0  0  0  0  0
   10.7294   13.5188   21.8299 C   0  0  0  0  0  0  0  0  0  0  0  0
   10.6434   14.7807   21.3449 C   0  0  0  0  0  0  0  0  0  0  0  0
   11.8814   15.4325   21.2692 C   0  0  0  0  0  0  0  0  0  0  0  0
   12.9504   15.7517   21.5678 N   0  0  0  0  0  0  0  0  0  0  0  0
    9.4202   15.3754   21.4667 C   0  0  0  0  0  0  0  0  0  0  0  0
    8.4589   14.8607   22.2795 N   0  0  0  0  0  0  0  0  0  0  0  0
  1  2  1  0
  2  3  1  0
  3  4  2  0
  3  5  1  0
  5  6  2  0
  6  7  1  0
  7  8  1  0
  8  9  1  0
  8 10  1  0
  8 11  1  0
  7 12  2  0
 12 13  1  0
 13 14  2  0
 14 15  1  0
 15 16  1  0
 15 17  1  0
 17 18  2  0
 18 19  1  0
 19 20  2  0
 20 21  1  0
 21 22  3  0
 20 23  1  0
 23 24  2  0
 14  5  1  0
 24 17  1  0
M  END
>  <energy_score>  (3382) 
-1.482005

>  <inchikey>  (3382) 
IKHYGPOTUVCTLW-UHFFFAOYSA-N

>  <smiles>  (3382) 
COC(=O)c1cc(C(F)(F)F)ncc1N(N)c1ncc(C#N)cn1

>  <ref_pdb>  (3382) 
A0528a

>  <alias>  (3382) 
IKHYGPOTUVCTLW-UHFFFAOYSA-N-P15-P15-P308-601501

>  <HIPPO Pose ID>  (3382) 
502514

>  <name>  (3382) 
IKHYGPOTUVCTLW-UHFFFAOYSA-N-P15-P15-P308-601501

>  <HIPPO Compound ID>  (3382) 
292971

>  <ref_mols>  (3382) 
A4331a,A0514a

>  <distance_score>  (3382) 
1.323126

>  <inspiration_score>  (3382) 
None

$$$$
IKHYGPOTUVCTLW-UHFFFAOYSA-N-P308-P15-P308-601501
     RDKit          3D

 24 25  0  0  0  0  0  0  0  0999 V2000
    9.3419    8.6821   23.2012 C   0  0  0  0  0  0  0  0  0  0  0  0
    8.4093    9.5031   23.9004 O   0  0  0  0  0  0  0  0  0  0  0  0
    8.9918   10.5003   24.6077 C   0  0  0  0  0  0  0  0  0  0  0  0
   10.1867   10.6613   24.7820 O   0  0  0  0  0  0  0  0  0  0  0  0
    7.9108   11.3732   25.1262 C   0  0  0  0  0  0  0  0  0  0  0  0
    6.7698   10.7997   25.6907 C   0  0  0  0  0  0  0  0  0  0  0  0
    5.8293   11.6482   26.2685 C   0  0  0  0  0  0  0  0  0  0  0  0
    4.7714   11.1332   27.2008 C   0  0  0  0  0  0  0  0  0  0  0  0
    5.0920   11.4035   28.4953 F   0  0  0  0  0  0  0  0  0  0  0  0
    3.5402   11.6881   27.0183 F   0  0  0  0  0  0  0  0  0  0  0  0
    4.5932    9.7851   27.1352 F   0  0  0  0  0  0  0  0  0  0  0  0
    5.9216   12.9974   26.1940 N   0  0  0  0  0  0  0  0  0  0  0  0
    7.0028   13.5185   25.6101 C   0  0  0  0  0  0  0  0  0  0  0  0
    8.0621   12.7622   25.1322 C   0  0  0  0  0  0  0  0  0  0  0  0
    9.2477   13.3930   24.7184 N   0  0  0  0  0  0  0  0  0  0  0  0
    9.8143   14.3047   25.6960 N   0  0  0  0  0  0  0  0  0  0  0  0
    9.2760   13.9215   23.3952 C   0  0  0  0  0  0  0  0  0  0  0  0
   10.0141   13.2363   22.5195 N   0  0  0  0  0  0  0  0  0  0  0  0
   10.7756   13.9848   21.7013 C   0  0  0  0  0  0  0  0  0  0  0  0
   10.6783   15.3430   21.6328 C   0  0  0  0  0  0  0  0  0  0  0  0
   11.8312   16.0927   21.3414 C   0  0  0  0  0  0  0  0  0  0  0  0
   12.8459   16.6394   21.3928 N   0  0  0  0  0  0  0  0  0  0  0  0
    9.6350   15.9062   22.3126 C   0  0  0  0  0  0  0  0  0  0  0  0
    8.9319   15.2184   23.2297 N   0  0  0  0  0  0  0  0  0  0  0  0
  1  2  1  0
  2  3  1  0
  3  4  2  0
  3  5  1  0
  5  6  2  0
  6  7  1  0
  7  8  1  0
  8  9  1  0
  8 10  1  0
  8 11  1  0
  7 12  2  0
 12 13  1  0
 13 14  2  0
 14 15  1  0
 15 16  1  0
 15 17  1  0
 17 18  2  0
 18 19  1  0
 19 20  2  0
 20 21  1  0
 21 22  3  0
 20 23  1  0
 23 24  2  0
 14  5  1  0
 24 17  1  0
M  END
>  <energy_score>  (3383) 
-12.792878

>  <inchikey>  (3383) 
IKHYGPOTUVCTLW-UHFFFAOYSA-N

>  <smiles>  (3383) 
COC(=O)c1cc(C(F)(F)F)ncc1N(N)c1ncc(C#N)cn1

>  <ref_pdb>  (3383) 
A0528a

>  <alias>  (3383) 
IKHYGPOTUVCTLW-UHFFFAOYSA-N-P308-P15-P308-601501

>  <HIPPO Pose ID>  (3383) 
502515

>  <name>  (3383) 
IKHYGPOTUVCTLW-UHFFFAOYSA-N-P308-P15-P308-601501

>  <HIPPO Compound ID>  (3383) 
292971

>  <ref_mols>  (3383) 
A4331a,A0514a

>  <distance_score>  (3383) 
1.354795

>  <inspiration_score>  (3383) 
None

$$$$
QLTXICQLVBKJCW-UHFFFAOYSA-N-P15-P15-P308-601501
     RDKit          3D

 24 25  0  0  0  0  0  0  0  0999 V2000
    9.5127    8.7667   23.0204 C   0  0  0  0  0  0  0  0  0  0  0  0
    8.6073    9.5798   23.7697 O   0  0  0  0  0  0  0  0  0  0  0  0
    8.8811   10.9054   23.7402 C   0  0  0  0  0  0  0  0  0  0  0  0
    9.8000   11.4221   23.1375 O   0  0  0  0  0  0  0  0  0  0  0  0
    7.9422   11.6458   24.6129 C   0  0  0  0  0  0  0  0  0  0  0  0
    7.1985   10.9142   25.5542 C   0  0  0  0  0  0  0  0  0  0  0  0
    6.3772   11.5910   26.4437 C   0  0  0  0  0  0  0  0  0  0  0  0
    5.4396   10.8452   27.3526 C   0  0  0  0  0  0  0  0  0  0  0  0
    4.3412   11.5745   27.6942 F   0  0  0  0  0  0  0  0  0  0  0  0
    4.9575    9.7038   26.7864 F   0  0  0  0  0  0  0  0  0  0  0  0
    6.0199   10.4598   28.5244 F   0  0  0  0  0  0  0  0  0  0  0  0
    6.3822   12.9374   26.5288 N   0  0  0  0  0  0  0  0  0  0  0  0
    7.0146   13.6124   25.5526 C   0  0  0  0  0  0  0  0  0  0  0  0
    7.7466   13.0321   24.5147 C   0  0  0  0  0  0  0  0  0  0  0  0
    7.9128   13.8012   23.3342 N   0  0  0  0  0  0  0  0  0  0  0  0
    6.7007   14.4681   22.9205 N   0  0  0  0  0  0  0  0  0  0  0  0
    9.0487   14.1832   22.5740 C   0  0  0  0  0  0  0  0  0  0  0  0
    8.7986   14.6558   21.3140 N   0  0  0  0  0  0  0  0  0  0  0  0
    9.8643   15.1152   20.6010 C   0  0  0  0  0  0  0  0  0  0  0  0
   11.1504   15.0557   21.0697 C   0  0  0  0  0  0  0  0  0  0  0  0
   11.4164   14.6465   22.3161 N   0  0  0  0  0  0  0  0  0  0  0  0
   10.3600   14.2176   23.0540 C   0  0  0  0  0  0  0  0  0  0  0  0
   10.6046   14.0395   24.3970 O   0  0  0  0  0  0  0  0  0  0  0  0
   11.9251   13.5551   24.5888 C   0  0  0  0  0  0  0  0  0  0  0  0
  1  2  1  0
  2  3  1  0
  3  4  2  0
  3  5  1  0
  5  6  2  0
  6  7  1  0
  7  8  1  0
  8  9  1  0
  8 10  1  0
  8 11  1  0
  7 12  2  0
 12 13  1  0
 13 14  2  0
 14 15  1  0
 15 16  1  0
 15 17  1  0
 17 18  2  0
 18 19  1  0
 19 20  2  0
 20 21  1  0
 21 22  2  0
 22 23  1  0
 23 24  1  0
 14  5  1  0
 22 17  1  0
M  END
>  <energy_score>  (3384) 
-39.228849

>  <inchikey>  (3384) 
QLTXICQLVBKJCW-UHFFFAOYSA-N

>  <smiles>  (3384) 
COC(=O)c1cc(C(F)(F)F)ncc1N(N)c1nccnc1OC

>  <ref_pdb>  (3384) 
A0528a

>  <alias>  (3384) 
QLTXICQLVBKJCW-UHFFFAOYSA-N-P15-P15-P308-601501

>  <HIPPO Pose ID>  (3384) 
502518

>  <name>  (3384) 
QLTXICQLVBKJCW-UHFFFAOYSA-N-P15-P15-P308-601501

>  <HIPPO Compound ID>  (3384) 
292973

>  <ref_mols>  (3384) 
A4331a,A0514a

>  <distance_score>  (3384) 
1.349789

>  <inspiration_score>  (3384) 
None

$$$$
QLTXICQLVBKJCW-UHFFFAOYSA-N-P308-P15-P308-601501
     RDKit          3D

 24 25  0  0  0  0  0  0  0  0999 V2000
    9.3340    8.7956   23.2343 C   0  0  0  0  0  0  0  0  0  0  0  0
    8.4057    9.6934   23.8417 O   0  0  0  0  0  0  0  0  0  0  0  0
    8.9681   10.8564   24.2390 C   0  0  0  0  0  0  0  0  0  0  0  0
   10.1555   11.1359   24.2517 O   0  0  0  0  0  0  0  0  0  0  0  0
    7.9287   11.7457   24.7732 C   0  0  0  0  0  0  0  0  0  0  0  0
    7.0520   11.2671   25.7448 C   0  0  0  0  0  0  0  0  0  0  0  0
    6.2087   12.1819   26.3653 C   0  0  0  0  0  0  0  0  0  0  0  0
    5.1486   11.7379   27.3368 C   0  0  0  0  0  0  0  0  0  0  0  0
    4.9810   10.3911   27.3441 F   0  0  0  0  0  0  0  0  0  0  0  0
    5.4332   12.0713   28.6280 F   0  0  0  0  0  0  0  0  0  0  0  0
    3.9101   12.2453   27.0772 F   0  0  0  0  0  0  0  0  0  0  0  0
    6.3160   13.5177   26.1505 N   0  0  0  0  0  0  0  0  0  0  0  0
    7.1125   13.9304   25.1487 C   0  0  0  0  0  0  0  0  0  0  0  0
    7.8662   13.0767   24.3576 C   0  0  0  0  0  0  0  0  0  0  0  0
    8.1106   13.4346   23.0102 N   0  0  0  0  0  0  0  0  0  0  0  0
    6.9025   13.3449   22.2036 N   0  0  0  0  0  0  0  0  0  0  0  0
    9.0897   14.2889   22.4353 C   0  0  0  0  0  0  0  0  0  0  0  0
    8.8662   14.6481   21.1307 N   0  0  0  0  0  0  0  0  0  0  0  0
    9.8320   15.3726   20.5047 C   0  0  0  0  0  0  0  0  0  0  0  0
   10.9722   15.7784   21.1521 C   0  0  0  0  0  0  0  0  0  0  0  0
   11.1850   15.4933   22.4506 N   0  0  0  0  0  0  0  0  0  0  0  0
   10.2466   14.7329   23.0719 C   0  0  0  0  0  0  0  0  0  0  0  0
   10.4567   14.4225   24.3945 O   0  0  0  0  0  0  0  0  0  0  0  0
   11.7782   14.7437   24.8016 C   0  0  0  0  0  0  0  0  0  0  0  0
  1  2  1  0
  2  3  1  0
  3  4  2  0
  3  5  1  0
  5  6  2  0
  6  7  1  0
  7  8  1  0
  8  9  1  0
  8 10  1  0
  8 11  1  0
  7 12  2  0
 12 13  1  0
 13 14  2  0
 14 15  1  0
 15 16  1  0
 15 17  1  0
 17 18  2  0
 18 19  1  0
 19 20  2  0
 20 21  1  0
 21 22  2  0
 22 23  1  0
 23 24  1  0
 14  5  1  0
 22 17  1  0
M  END
>  <energy_score>  (3385) 
-39.539131

>  <inchikey>  (3385) 
QLTXICQLVBKJCW-UHFFFAOYSA-N

>  <smiles>  (3385) 
COC(=O)c1cc(C(F)(F)F)ncc1N(N)c1nccnc1OC

>  <ref_pdb>  (3385) 
A0528a

>  <alias>  (3385) 
QLTXICQLVBKJCW-UHFFFAOYSA-N-P308-P15-P308-601501

>  <HIPPO Pose ID>  (3385) 
502519

>  <name>  (3385) 
QLTXICQLVBKJCW-UHFFFAOYSA-N-P308-P15-P308-601501

>  <HIPPO Compound ID>  (3385) 
292973

>  <ref_mols>  (3385) 
A4331a,A0514a

>  <distance_score>  (3385) 
1.472865

>  <inspiration_score>  (3385) 
None

$$$$
SLMIPLGVUUWGKY-UHFFFAOYSA-N-P15-P15-P308-601501
     RDKit          3D

 24 25  0  0  0  0  0  0  0  0999 V2000
    9.3155    8.5225   23.0267 C   0  0  0  0  0  0  0  0  0  0  0  0
    8.6211    9.4855   23.8204 O   0  0  0  0  0  0  0  0  0  0  0  0
    9.0678   10.7492   23.6501 C   0  0  0  0  0  0  0  0  0  0  0  0
    9.9914   11.0805   22.9325 O   0  0  0  0  0  0  0  0  0  0  0  0
    8.3039   11.7080   24.4749 C   0  0  0  0  0  0  0  0  0  0  0  0
    7.3008   11.2663   25.3534 C   0  0  0  0  0  0  0  0  0  0  0  0
    6.6699   12.2026   26.1690 C   0  0  0  0  0  0  0  0  0  0  0  0
    5.5984   11.7950   27.1528 C   0  0  0  0  0  0  0  0  0  0  0  0
    4.9345   10.6743   26.7797 F   0  0  0  0  0  0  0  0  0  0  0  0
    4.6320   12.7337   27.3540 F   0  0  0  0  0  0  0  0  0  0  0  0
    6.1094   11.5146   28.3877 F   0  0  0  0  0  0  0  0  0  0  0  0
    7.0415   13.5090   26.1708 N   0  0  0  0  0  0  0  0  0  0  0  0
    7.9720   13.9140   25.2822 C   0  0  0  0  0  0  0  0  0  0  0  0
    8.6324   13.0670   24.4128 C   0  0  0  0  0  0  0  0  0  0  0  0
    9.4700   13.6189   23.4271 N   0  0  0  0  0  0  0  0  0  0  0  0
   10.6833   14.1712   23.7756 N   0  0  0  0  0  0  0  0  0  0  0  0
   11.0676   14.8476   22.7333 C   0  0  0  0  0  0  0  0  0  0  0  0
   10.0016   15.0272   21.6842 C   0  0  1  0  0  0  0  0  0  0  0  0
   10.3783   15.3106   20.2442 C   0  0  0  0  0  0  0  0  0  0  0  0
   11.6270   14.6420   19.7561 C   0  0  0  0  0  0  0  0  0  0  0  0
   12.5067   14.2657   20.5151 O   0  0  0  0  0  0  0  0  0  0  0  0
   11.7580   14.5549   18.4195 O   0  0  0  0  0  0  0  0  0  0  0  0
    8.9793   14.0291   22.1720 C   0  0  0  0  0  0  0  0  0  0  0  0
    7.8959   13.7428   21.6881 O   0  0  0  0  0  0  0  0  0  0  0  0
  1  2  1  0
  2  3  1  0
  3  4  2  0
  3  5  1  0
  5  6  2  0
  6  7  1  0
  7  8  1  0
  8  9  1  0
  8 10  1  0
  8 11  1  0
  7 12  2  0
 12 13  1  0
 13 14  2  0
 14 15  1  0
 15 16  1  0
 16 17  2  0
 17 18  1  0
 18 19  1  6
 19 20  1  0
 20 21  2  0
 20 22  1  0
 18 23  1  0
 23 24  2  0
 14  5  1  0
 23 15  1  0
M  END
>  <energy_score>  (3386) 
-13.087018

>  <inchikey>  (3386) 
SLMIPLGVUUWGKY-UHFFFAOYSA-N

>  <smiles>  (3386) 
COC(=O)c1cc(C(F)(F)F)ncc1N1N=CC(CC(=O)O)C1=O

>  <ref_pdb>  (3386) 
A0528a

>  <alias>  (3386) 
SLMIPLGVUUWGKY-UHFFFAOYSA-N-P15-P15-P308-601501

>  <HIPPO Pose ID>  (3386) 
502520

>  <name>  (3386) 
SLMIPLGVUUWGKY-UHFFFAOYSA-N-P15-P15-P308-601501

>  <HIPPO Compound ID>  (3386) 
292974

>  <ref_mols>  (3386) 
A4331a,A0514a

>  <distance_score>  (3386) 
1.424182

>  <inspiration_score>  (3386) 
None

$$$$
SLMIPLGVUUWGKY-UHFFFAOYSA-N-P308-P15-P308-601501
     RDKit          3D

 24 25  0  0  0  0  0  0  0  0999 V2000
    9.5508    8.7546   23.0642 C   0  0  0  0  0  0  0  0  0  0  0  0
    8.7140    9.7492   23.6421 O   0  0  0  0  0  0  0  0  0  0  0  0
    9.3729   10.7083   24.3277 C   0  0  0  0  0  0  0  0  0  0  0  0
   10.5701   10.7874   24.5416 O   0  0  0  0  0  0  0  0  0  0  0  0
    8.3731   11.6344   24.8759 C   0  0  0  0  0  0  0  0  0  0  0  0
    7.2433   11.0996   25.5064 C   0  0  0  0  0  0  0  0  0  0  0  0
    6.3745   11.9722   26.1470 C   0  0  0  0  0  0  0  0  0  0  0  0
    5.1388   11.4747   26.8452 C   0  0  0  0  0  0  0  0  0  0  0  0
    5.1592   11.7438   28.1790 F   0  0  0  0  0  0  0  0  0  0  0  0
    4.9733   10.1237   26.7490 F   0  0  0  0  0  0  0  0  0  0  0  0
    3.9856   12.0288   26.3813 F   0  0  0  0  0  0  0  0  0  0  0  0
    6.6265   13.3050   26.2269 N   0  0  0  0  0  0  0  0  0  0  0  0
    7.7012   13.7916   25.5790 C   0  0  0  0  0  0  0  0  0  0  0  0
    8.5936   13.0094   24.8661 C   0  0  0  0  0  0  0  0  0  0  0  0
    9.4628   13.6401   23.9486 N   0  0  0  0  0  0  0  0  0  0  0  0
   10.3196   14.6130   24.4541 N   0  0  0  0  0  0  0  0  0  0  0  0
   10.4612   15.5062   23.5273 C   0  0  0  0  0  0  0  0  0  0  0  0
    9.5259   15.3439   22.3700 C   0  0  1  0  0  0  0  0  0  0  0  0
   10.0965   15.4422   20.9686 C   0  0  0  0  0  0  0  0  0  0  0  0
   11.4011   14.7193   20.7866 C   0  0  0  0  0  0  0  0  0  0  0  0
   11.9869   14.1382   21.6870 O   0  0  0  0  0  0  0  0  0  0  0  0
   11.8796   14.8059   19.5263 O   0  0  0  0  0  0  0  0  0  0  0  0
    8.8838   14.0287   22.7148 C   0  0  0  0  0  0  0  0  0  0  0  0
    7.9538   13.4954   22.1258 O   0  0  0  0  0  0  0  0  0  0  0  0
  1  2  1  0
  2  3  1  0
  3  4  2  0
  3  5  1  0
  5  6  2  0
  6  7  1  0
  7  8  1  0
  8  9  1  0
  8 10  1  0
  8 11  1  0
  7 12  2  0
 12 13  1  0
 13 14  2  0
 14 15  1  0
 15 16  1  0
 16 17  2  0
 17 18  1  0
 18 19  1  6
 19 20  1  0
 20 21  2  0
 20 22  1  0
 18 23  1  0
 23 24  2  0
 14  5  1  0
 23 15  1  0
M  END
>  <energy_score>  (3387) 
-20.149962

>  <inchikey>  (3387) 
SLMIPLGVUUWGKY-UHFFFAOYSA-N

>  <smiles>  (3387) 
COC(=O)c1cc(C(F)(F)F)ncc1N1N=CC(CC(=O)O)C1=O

>  <ref_pdb>  (3387) 
A0528a

>  <alias>  (3387) 
SLMIPLGVUUWGKY-UHFFFAOYSA-N-P308-P15-P308-601501

>  <HIPPO Pose ID>  (3387) 
502521

>  <name>  (3387) 
SLMIPLGVUUWGKY-UHFFFAOYSA-N-P308-P15-P308-601501

>  <HIPPO Compound ID>  (3387) 
292974

>  <ref_mols>  (3387) 
A4331a,A0514a

>  <distance_score>  (3387) 
1.14517

>  <inspiration_score>  (3387) 
None

$$$$
JRIZDLJUJOYONK-UHFFFAOYSA-N-P15-P15-P308-601501
     RDKit          3D

 24 25  0  0  0  0  0  0  0  0999 V2000
    9.2923    8.6676   23.0564 C   0  0  0  0  0  0  0  0  0  0  0  0
    8.4565    9.5047   23.8622 O   0  0  0  0  0  0  0  0  0  0  0  0
    8.9523   10.7543   24.0315 C   0  0  0  0  0  0  0  0  0  0  0  0
   10.0255   11.1338   23.5989 O   0  0  0  0  0  0  0  0  0  0  0  0
    8.0177   11.5948   24.8331 C   0  0  0  0  0  0  0  0  0  0  0  0
    6.9327   11.0027   25.4929 C   0  0  0  0  0  0  0  0  0  0  0  0
    6.1318   11.7980   26.3120 C   0  0  0  0  0  0  0  0  0  0  0  0
    5.1440   11.1876   27.2638 C   0  0  0  0  0  0  0  0  0  0  0  0
    4.7920    9.9318   26.9074 F   0  0  0  0  0  0  0  0  0  0  0  0
    3.9707   11.8705   27.3809 F   0  0  0  0  0  0  0  0  0  0  0  0
    5.6463   11.0716   28.5282 F   0  0  0  0  0  0  0  0  0  0  0  0
    6.2983   13.1346   26.4115 N   0  0  0  0  0  0  0  0  0  0  0  0
    7.3370   13.6796   25.7646 C   0  0  0  0  0  0  0  0  0  0  0  0
    8.2812   12.9601   25.0417 C   0  0  0  0  0  0  0  0  0  0  0  0
    9.5244   13.5575   24.7265 N   0  0  0  0  0  0  0  0  0  0  0  0
   10.1211   14.3053   25.7944 N   0  0  0  0  0  0  0  0  0  0  0  0
    9.8838   13.9523   23.4045 C   0  0  0  0  0  0  0  0  0  0  0  0
   11.2415   13.9519   23.0745 C   0  0  0  0  0  0  0  0  0  0  0  0
   11.7535   14.3886   21.9092 N   0  0  0  0  0  0  0  0  0  0  0  0
   10.8296   14.7802   21.0083 C   0  0  0  0  0  0  0  0  0  0  0  0
   11.3076   14.9527   19.6766 C   0  0  0  0  0  0  0  0  0  0  0  0
   11.7111   14.9576   18.5907 N   0  0  0  0  0  0  0  0  0  0  0  0
    9.4741   14.7952   21.3109 C   0  0  0  0  0  0  0  0  0  0  0  0
    8.9664   14.3647   22.5030 N   0  0  0  0  0  0  0  0  0  0  0  0
  1  2  1  0
  2  3  1  0
  3  4  2  0
  3  5  1  0
  5  6  2  0
  6  7  1  0
  7  8  1  0
  8  9  1  0
  8 10  1  0
  8 11  1  0
  7 12  2  0
 12 13  1  0
 13 14  2  0
 14 15  1  0
 15 16  1  0
 15 17  1  0
 17 18  2  0
 18 19  1  0
 19 20  2  0
 20 21  1  0
 21 22  3  0
 20 23  1  0
 23 24  2  0
 14  5  1  0
 24 17  1  0
M  END
>  <energy_score>  (3388) 
-38.443816

>  <inchikey>  (3388) 
JRIZDLJUJOYONK-UHFFFAOYSA-N

>  <smiles>  (3388) 
COC(=O)c1cc(C(F)(F)F)ncc1N(N)c1cnc(C#N)cn1

>  <ref_pdb>  (3388) 
A0528a

>  <alias>  (3388) 
JRIZDLJUJOYONK-UHFFFAOYSA-N-P15-P15-P308-601501

>  <HIPPO Pose ID>  (3388) 
502532

>  <name>  (3388) 
JRIZDLJUJOYONK-UHFFFAOYSA-N-P15-P15-P308-601501

>  <HIPPO Compound ID>  (3388) 
292980

>  <ref_mols>  (3388) 
A4331a,A0514a

>  <distance_score>  (3388) 
1.357732

>  <inspiration_score>  (3388) 
None

$$$$
JRIZDLJUJOYONK-UHFFFAOYSA-N-P308-P15-P308-601501
     RDKit          3D

 24 25  0  0  0  0  0  0  0  0999 V2000
    9.3847    8.7241   23.2158 C   0  0  0  0  0  0  0  0  0  0  0  0
    8.5455    9.6417   23.9148 O   0  0  0  0  0  0  0  0  0  0  0  0
    9.2180   10.6389   24.5405 C   0  0  0  0  0  0  0  0  0  0  0  0
   10.4317   10.7405   24.6322 O   0  0  0  0  0  0  0  0  0  0  0  0
    8.2128   11.6009   25.0649 C   0  0  0  0  0  0  0  0  0  0  0  0
    7.0213   11.1205   25.6207 C   0  0  0  0  0  0  0  0  0  0  0  0
    6.1220   12.0415   26.1557 C   0  0  0  0  0  0  0  0  0  0  0  0
    4.9647   11.6046   27.0096 C   0  0  0  0  0  0  0  0  0  0  0  0
    4.7758   10.2620   26.9835 F   0  0  0  0  0  0  0  0  0  0  0  0
    3.7664   12.1515   26.6660 F   0  0  0  0  0  0  0  0  0  0  0  0
    5.1492   11.9013   28.3300 F   0  0  0  0  0  0  0  0  0  0  0  0
    6.3154   13.3784   26.0635 N   0  0  0  0  0  0  0  0  0  0  0  0
    7.4515   13.8112   25.4977 C   0  0  0  0  0  0  0  0  0  0  0  0
    8.4612   12.9779   25.0426 C   0  0  0  0  0  0  0  0  0  0  0  0
    9.6899   13.5586   24.6893 N   0  0  0  0  0  0  0  0  0  0  0  0
   10.7268   13.3145   25.6220 N   0  0  0  0  0  0  0  0  0  0  0  0
    9.9582   14.0963   23.3963 C   0  0  0  0  0  0  0  0  0  0  0  0
   11.2693   14.3757   23.0110 C   0  0  0  0  0  0  0  0  0  0  0  0
   11.6512   14.8268   21.7964 N   0  0  0  0  0  0  0  0  0  0  0  0
   10.6463   15.0024   20.9153 C   0  0  0  0  0  0  0  0  0  0  0  0
   11.0345   15.2151   19.5583 C   0  0  0  0  0  0  0  0  0  0  0  0
   11.3753   15.2591   18.4516 N   0  0  0  0  0  0  0  0  0  0  0  0
    9.3267   14.7993   21.2838 C   0  0  0  0  0  0  0  0  0  0  0  0
    8.9567   14.3311   22.5146 N   0  0  0  0  0  0  0  0  0  0  0  0
  1  2  1  0
  2  3  1  0
  3  4  2  0
  3  5  1  0
  5  6  2  0
  6  7  1  0
  7  8  1  0
  8  9  1  0
  8 10  1  0
  8 11  1  0
  7 12  2  0
 12 13  1  0
 13 14  2  0
 14 15  1  0
 15 16  1  0
 15 17  1  0
 17 18  2  0
 18 19  1  0
 19 20  2  0
 20 21  1  0
 21 22  3  0
 20 23  1  0
 23 24  2  0
 14  5  1  0
 24 17  1  0
M  END
>  <energy_score>  (3389) 
-45.684102

>  <inchikey>  (3389) 
JRIZDLJUJOYONK-UHFFFAOYSA-N

>  <smiles>  (3389) 
COC(=O)c1cc(C(F)(F)F)ncc1N(N)c1cnc(C#N)cn1

>  <ref_pdb>  (3389) 
A0528a

>  <alias>  (3389) 
JRIZDLJUJOYONK-UHFFFAOYSA-N-P308-P15-P308-601501

>  <HIPPO Pose ID>  (3389) 
502533

>  <name>  (3389) 
JRIZDLJUJOYONK-UHFFFAOYSA-N-P308-P15-P308-601501

>  <HIPPO Compound ID>  (3389) 
292980

>  <ref_mols>  (3389) 
A4331a,A0514a

>  <distance_score>  (3389) 
1.382311

>  <inspiration_score>  (3389) 
None

$$$$
BTNUBHUZSPVQRN-UHFFFAOYSA-N-P15-P15-P308-601501
     RDKit          3D

 24 25  0  0  0  0  0  0  0  0999 V2000
    9.3784    8.6483   23.0165 C   0  0  0  0  0  0  0  0  0  0  0  0
    8.5169    9.4033   23.8721 O   0  0  0  0  0  0  0  0  0  0  0  0
    8.8364   10.7155   23.9581 C   0  0  0  0  0  0  0  0  0  0  0  0
    9.7861   11.2428   23.4078 O   0  0  0  0  0  0  0  0  0  0  0  0
    7.8981   11.4209   24.8734 C   0  0  0  0  0  0  0  0  0  0  0  0
    6.9519   10.7011   25.6109 C   0  0  0  0  0  0  0  0  0  0  0  0
    6.1686   11.3838   26.5362 C   0  0  0  0  0  0  0  0  0  0  0  0
    5.1822   10.6531   27.4052 C   0  0  0  0  0  0  0  0  0  0  0  0
    4.1042   11.4208   27.7250 F   0  0  0  0  0  0  0  0  0  0  0  0
    4.6817    9.5299   26.8263 F   0  0  0  0  0  0  0  0  0  0  0  0
    5.7310   10.2507   28.5874 F   0  0  0  0  0  0  0  0  0  0  0  0
    6.3028   12.7160   26.7649 N   0  0  0  0  0  0  0  0  0  0  0  0
    7.1714   13.3993   26.0060 C   0  0  0  0  0  0  0  0  0  0  0  0
    7.9902   12.8060   25.0650 C   0  0  0  0  0  0  0  0  0  0  0  0
    8.7518   13.6659   24.2749 N   0  0  0  0  0  0  0  0  0  0  0  0
   10.0845   13.8871   24.6343 N   0  0  0  0  0  0  0  0  0  0  0  0
   10.6608   14.2837   23.5351 C   0  0  0  0  0  0  0  0  0  0  0  0
    9.7384   14.3666   22.4080 C   0  0  0  0  0  0  0  0  0  0  0  0
    9.8888   14.8125   21.1645 C   0  0  0  0  0  0  0  0  0  0  0  0
   11.0096   15.2269   20.4608 N   0  0  0  0  0  0  0  0  0  0  0  0
   12.3542   14.9454   20.9489 C   0  0  0  0  0  0  0  0  0  0  0  0
   10.9333   15.3281   18.9893 C   0  0  0  0  0  0  0  0  0  0  0  0
    8.4838   13.8038   22.9080 C   0  0  0  0  0  0  0  0  0  0  0  0
    7.5068   13.4518   22.2700 O   0  0  0  0  0  0  0  0  0  0  0  0
  1  2  1  0
  2  3  1  0
  3  4  2  0
  3  5  1  0
  5  6  2  0
  6  7  1  0
  7  8  1  0
  8  9  1  0
  8 10  1  0
  8 11  1  0
  7 12  2  0
 12 13  1  0
 13 14  2  0
 14 15  1  0
 15 16  1  0
 16 17  2  0
 17 18  1  0
 18 19  2  3
 19 20  1  0
 20 21  1  0
 20 22  1  0
 18 23  1  0
 23 24  2  0
 14  5  1  0
 23 15  1  0
M  END
>  <energy_score>  (3390) 
-34.974461

>  <inchikey>  (3390) 
BTNUBHUZSPVQRN-UHFFFAOYSA-N

>  <smiles>  (3390) 
COC(=O)c1cc(C(F)(F)F)ncc1N1N=CC(=CN(C)C)C1=O

>  <ref_pdb>  (3390) 
A0528a

>  <alias>  (3390) 
BTNUBHUZSPVQRN-UHFFFAOYSA-N-P15-P15-P308-601501

>  <HIPPO Pose ID>  (3390) 
502540

>  <name>  (3390) 
BTNUBHUZSPVQRN-UHFFFAOYSA-N-P15-P15-P308-601501

>  <HIPPO Compound ID>  (3390) 
292984

>  <ref_mols>  (3390) 
A4331a,A0514a

>  <distance_score>  (3390) 
1.144112

>  <inspiration_score>  (3390) 
None

$$$$
BTNUBHUZSPVQRN-UHFFFAOYSA-N-P308-P15-P308-601501
     RDKit          3D

 24 25  0  0  0  0  0  0  0  0999 V2000
    9.3004    8.7529   23.1921 C   0  0  0  0  0  0  0  0  0  0  0  0
    8.3969    9.5585   23.9491 O   0  0  0  0  0  0  0  0  0  0  0  0
    8.9645   10.6849   24.4409 C   0  0  0  0  0  0  0  0  0  0  0  0
   10.1454   10.9830   24.3719 O   0  0  0  0  0  0  0  0  0  0  0  0
    7.9402   11.5063   25.1309 C   0  0  0  0  0  0  0  0  0  0  0  0
    6.8611   10.8902   25.7640 C   0  0  0  0  0  0  0  0  0  0  0  0
    6.0280   11.6783   26.5498 C   0  0  0  0  0  0  0  0  0  0  0  0
    4.8799   11.0697   27.3101 C   0  0  0  0  0  0  0  0  0  0  0  0
    3.7287   11.7778   27.1725 F   0  0  0  0  0  0  0  0  0  0  0  0
    4.5938    9.7940   26.9241 F   0  0  0  0  0  0  0  0  0  0  0  0
    5.1046   10.9909   28.6537 F   0  0  0  0  0  0  0  0  0  0  0  0
    6.2441   13.0095   26.7367 N   0  0  0  0  0  0  0  0  0  0  0  0
    7.2632   13.5888   26.0755 C   0  0  0  0  0  0  0  0  0  0  0  0
    8.1246   12.8889   25.2566 C   0  0  0  0  0  0  0  0  0  0  0  0
    8.9834   13.5908   24.4117 N   0  0  0  0  0  0  0  0  0  0  0  0
    9.8089   14.6084   24.8803 N   0  0  0  0  0  0  0  0  0  0  0  0
   10.2586   15.1960   23.8077 C   0  0  0  0  0  0  0  0  0  0  0  0
    9.6816   14.6414   22.5881 C   0  0  0  0  0  0  0  0  0  0  0  0
    9.9324   14.8462   21.3006 C   0  0  0  0  0  0  0  0  0  0  0  0
   10.9027   15.5774   20.6456 N   0  0  0  0  0  0  0  0  0  0  0  0
   12.1339   16.0161   21.2954 C   0  0  0  0  0  0  0  0  0  0  0  0
   10.9409   15.5698   19.1785 C   0  0  0  0  0  0  0  0  0  0  0  0
    8.7063   13.6507   23.0435 C   0  0  0  0  0  0  0  0  0  0  0  0
    7.8444   13.0728   22.4052 O   0  0  0  0  0  0  0  0  0  0  0  0
  1  2  1  0
  2  3  1  0
  3  4  2  0
  3  5  1  0
  5  6  2  0
  6  7  1  0
  7  8  1  0
  8  9  1  0
  8 10  1  0
  8 11  1  0
  7 12  2  0
 12 13  1  0
 13 14  2  0
 14 15  1  0
 15 16  1  0
 16 17  2  0
 17 18  1  0
 18 19  2  3
 19 20  1  0
 20 21  1  0
 20 22  1  0
 18 23  1  0
 23 24  2  0
 14  5  1  0
 23 15  1  0
M  END
>  <energy_score>  (3391) 
-40.278433

>  <inchikey>  (3391) 
BTNUBHUZSPVQRN-UHFFFAOYSA-N

>  <smiles>  (3391) 
COC(=O)c1cc(C(F)(F)F)ncc1N1N=CC(=CN(C)C)C1=O

>  <ref_pdb>  (3391) 
A0528a

>  <alias>  (3391) 
BTNUBHUZSPVQRN-UHFFFAOYSA-N-P308-P15-P308-601501

>  <HIPPO Pose ID>  (3391) 
502541

>  <name>  (3391) 
BTNUBHUZSPVQRN-UHFFFAOYSA-N-P308-P15-P308-601501

>  <HIPPO Compound ID>  (3391) 
292984

>  <ref_mols>  (3391) 
A4331a,A0514a

>  <distance_score>  (3391) 
1.100293

>  <inspiration_score>  (3391) 
None

$$$$
NNOXFKZKIQZZAO-UHFFFAOYSA-N-P15-P15-P308-601501
     RDKit          3D

 24 25  0  0  0  0  0  0  0  0999 V2000
    9.5213    8.8547   23.0501 C   0  0  0  0  0  0  0  0  0  0  0  0
    8.6379    9.7827   23.6801 O   0  0  0  0  0  0  0  0  0  0  0  0
    9.1713   11.0160   23.8522 C   0  0  0  0  0  0  0  0  0  0  0  0
   10.3191   11.3311   23.5964 O   0  0  0  0  0  0  0  0  0  0  0  0
    8.1463   11.9275   24.4195 C   0  0  0  0  0  0  0  0  0  0  0  0
    7.1021   11.3866   25.1727 C   0  0  0  0  0  0  0  0  0  0  0  0
    6.2140   12.2420   25.8189 C   0  0  0  0  0  0  0  0  0  0  0  0
    5.2158   11.6869   26.8041 C   0  0  0  0  0  0  0  0  0  0  0  0
    5.5567   11.9733   28.0909 F   0  0  0  0  0  0  0  0  0  0  0  0
    3.9467   12.1558   26.6474 F   0  0  0  0  0  0  0  0  0  0  0  0
    5.1170   10.3252   26.7580 F   0  0  0  0  0  0  0  0  0  0  0  0
    6.2749   13.5844   25.6783 N   0  0  0  0  0  0  0  0  0  0  0  0
    7.2854   14.0792   24.9458 C   0  0  0  0  0  0  0  0  0  0  0  0
    8.2935   13.3208   24.3545 C   0  0  0  0  0  0  0  0  0  0  0  0
    9.5504   13.9516   24.1877 N   0  0  0  0  0  0  0  0  0  0  0  0
   10.3315   13.7489   25.3526 N   0  0  0  0  0  0  0  0  0  0  0  0
   10.2060   14.2562   22.9863 C   0  0  0  0  0  0  0  0  0  0  0  0
   11.5515   14.2971   22.9454 C   0  0  0  0  0  0  0  0  0  0  0  0
   12.2244   14.8776   21.7926 C   0  0  0  0  0  0  0  0  0  0  0  0
   13.3158   15.4003   21.9312 O   0  0  0  0  0  0  0  0  0  0  0  0
   11.5330   14.8477   20.6470 N   0  0  0  0  0  0  0  0  0  0  0  0
   10.2110   15.0871   20.7177 C   0  0  0  0  0  0  0  0  0  0  0  0
    9.6499   15.6761   19.8090 O   0  0  0  0  0  0  0  0  0  0  0  0
    9.5565   14.6829   21.8524 N   0  0  0  0  0  0  0  0  0  0  0  0
  1  2  1  0
  2  3  1  0
  3  4  2  0
  3  5  1  0
  5  6  2  0
  6  7  1  0
  7  8  1  0
  8  9  1  0
  8 10  1  0
  8 11  1  0
  7 12  2  0
 12 13  1  0
 13 14  2  0
 14 15  1  0
 15 16  1  0
 15 17  1  0
 17 18  2  0
 18 19  1  0
 19 20  2  0
 19 21  1  0
 21 22  1  0
 22 23  2  0
 22 24  1  0
 14  5  1  0
 24 17  1  0
M  END
>  <energy_score>  (3392) 
-35.722824

>  <inchikey>  (3392) 
NNOXFKZKIQZZAO-UHFFFAOYSA-N

>  <smiles>  (3392) 
COC(=O)c1cc(C(F)(F)F)ncc1N(N)c1cc(=O)[nH]c(=O)[nH]1

>  <ref_pdb>  (3392) 
A0528a

>  <alias>  (3392) 
NNOXFKZKIQZZAO-UHFFFAOYSA-N-P15-P15-P308-601501

>  <HIPPO Pose ID>  (3392) 
502546

>  <name>  (3392) 
NNOXFKZKIQZZAO-UHFFFAOYSA-N-P15-P15-P308-601501

>  <HIPPO Compound ID>  (3392) 
292987

>  <ref_mols>  (3392) 
A4331a,A0514a

>  <distance_score>  (3392) 
1.878656

>  <inspiration_score>  (3392) 
None

$$$$
NNOXFKZKIQZZAO-UHFFFAOYSA-N-P308-P15-P308-601501
     RDKit          3D

 24 25  0  0  0  0  0  0  0  0999 V2000
    9.6698    9.0287   22.8236 C   0  0  0  0  0  0  0  0  0  0  0  0
    9.1819   10.2867   23.2836 O   0  0  0  0  0  0  0  0  0  0  0  0
    8.3446   10.1729   24.3280 C   0  0  0  0  0  0  0  0  0  0  0  0
    8.0426    9.1294   24.8877 O   0  0  0  0  0  0  0  0  0  0  0  0
    7.7560   11.4718   24.7249 C   0  0  0  0  0  0  0  0  0  0  0  0
    6.6575   11.3347   25.5682 C   0  0  0  0  0  0  0  0  0  0  0  0
    6.0458   12.4597   26.0823 C   0  0  0  0  0  0  0  0  0  0  0  0
    5.0279   12.2659   27.1830 C   0  0  0  0  0  0  0  0  0  0  0  0
    4.0069   13.1541   27.1577 F   0  0  0  0  0  0  0  0  0  0  0  0
    5.5913   12.3673   28.4229 F   0  0  0  0  0  0  0  0  0  0  0  0
    4.4403   11.0320   27.1647 F   0  0  0  0  0  0  0  0  0  0  0  0
    6.4270   13.7054   25.7171 N   0  0  0  0  0  0  0  0  0  0  0  0
    7.4746   13.8170   24.8711 C   0  0  0  0  0  0  0  0  0  0  0  0
    8.2404   12.7537   24.4034 C   0  0  0  0  0  0  0  0  0  0  0  0
    9.5666   12.9869   23.9415 N   0  0  0  0  0  0  0  0  0  0  0  0
   10.5249   12.4711   24.8545 N   0  0  0  0  0  0  0  0  0  0  0  0
   10.0013   14.0585   23.1333 C   0  0  0  0  0  0  0  0  0  0  0  0
   11.1872   14.6612   23.3449 C   0  0  0  0  0  0  0  0  0  0  0  0
   11.7306   15.6080   22.3708 C   0  0  0  0  0  0  0  0  0  0  0  0
   12.9028   15.9385   22.4267 O   0  0  0  0  0  0  0  0  0  0  0  0
   10.8936   16.0318   21.4080 N   0  0  0  0  0  0  0  0  0  0  0  0
    9.8049   15.3142   21.0667 C   0  0  0  0  0  0  0  0  0  0  0  0
    9.3050   15.4100   19.9563 O   0  0  0  0  0  0  0  0  0  0  0  0
    9.3169   14.4462   22.0060 N   0  0  0  0  0  0  0  0  0  0  0  0
  1  2  1  0
  2  3  1  0
  3  4  2  0
  3  5  1  0
  5  6  2  0
  6  7  1  0
  7  8  1  0
  8  9  1  0
  8 10  1  0
  8 11  1  0
  7 12  2  0
 12 13  1  0
 13 14  2  0
 14 15  1  0
 15 16  1  0
 15 17  1  0
 17 18  2  0
 18 19  1  0
 19 20  2  0
 19 21  1  0
 21 22  1  0
 22 23  2  0
 22 24  1  0
 14  5  1  0
 24 17  1  0
M  END
>  <energy_score>  (3393) 
-42.950916

>  <inchikey>  (3393) 
NNOXFKZKIQZZAO-UHFFFAOYSA-N

>  <smiles>  (3393) 
COC(=O)c1cc(C(F)(F)F)ncc1N(N)c1cc(=O)[nH]c(=O)[nH]1

>  <ref_pdb>  (3393) 
A0528a

>  <alias>  (3393) 
NNOXFKZKIQZZAO-UHFFFAOYSA-N-P308-P15-P308-601501

>  <HIPPO Pose ID>  (3393) 
502547

>  <name>  (3393) 
NNOXFKZKIQZZAO-UHFFFAOYSA-N-P308-P15-P308-601501

>  <HIPPO Compound ID>  (3393) 
292987

>  <ref_mols>  (3393) 
A4331a,A0514a

>  <distance_score>  (3393) 
1.869308

>  <inspiration_score>  (3393) 
None

$$$$
GUTSXJHYNPFLPH-UHFFFAOYSA-N-P15-P15-P308-601501
     RDKit          3D

 24 25  0  0  0  0  0  0  0  0999 V2000
    9.5315    8.7941   23.0096 C   0  0  0  0  0  0  0  0  0  0  0  0
    8.6070    9.6130   23.7266 O   0  0  0  0  0  0  0  0  0  0  0  0
    8.9417   10.9207   23.7788 C   0  0  0  0  0  0  0  0  0  0  0  0
    9.9465   11.4314   23.3217 O   0  0  0  0  0  0  0  0  0  0  0  0
    7.9365   11.6736   24.5541 C   0  0  0  0  0  0  0  0  0  0  0  0
    7.2009   10.9770   25.5314 C   0  0  0  0  0  0  0  0  0  0  0  0
    6.3064   11.6729   26.3305 C   0  0  0  0  0  0  0  0  0  0  0  0
    5.4171   10.9523   27.3111 C   0  0  0  0  0  0  0  0  0  0  0  0
    4.3076   11.6659   27.6517 F   0  0  0  0  0  0  0  0  0  0  0  0
    4.9586    9.7607   26.8393 F   0  0  0  0  0  0  0  0  0  0  0  0
    6.0466   10.6606   28.4866 F   0  0  0  0  0  0  0  0  0  0  0  0
    6.2043   13.0186   26.2671 N   0  0  0  0  0  0  0  0  0  0  0  0
    6.8375   13.6418   25.2511 C   0  0  0  0  0  0  0  0  0  0  0  0
    7.6864   13.0353   24.3214 C   0  0  0  0  0  0  0  0  0  0  0  0
    7.9603   13.7108   23.1033 N   0  0  0  0  0  0  0  0  0  0  0  0
    6.8368   14.3539   22.4976 N   0  0  0  0  0  0  0  0  0  0  0  0
    9.1227   14.1153   22.5211 C   0  0  0  0  0  0  0  0  0  0  0  0
    9.0105   14.6134   21.2304 O   0  0  0  0  0  0  0  0  0  0  0  0
   10.2669   15.0445   20.8960 C   0  0  0  0  0  0  0  0  0  0  0  0
   10.4442   15.7224   19.5958 C   0  0  0  0  0  0  0  0  0  0  0  0
   11.1629   14.8518   21.8320 N   0  0  0  0  0  0  0  0  0  0  0  0
   10.4526   14.2563   22.8430 C   0  0  0  0  0  0  0  0  0  0  0  0
   11.0888   14.0711   24.0892 C   0  0  0  0  0  0  0  0  0  0  0  0
   11.6325   14.0372   25.1142 N   0  0  0  0  0  0  0  0  0  0  0  0
  1  2  1  0
  2  3  1  0
  3  4  2  0
  3  5  1  0
  5  6  2  0
  6  7  1  0
  7  8  1  0
  8  9  1  0
  8 10  1  0
  8 11  1  0
  7 12  2  0
 12 13  1  0
 13 14  2  0
 14 15  1  0
 15 16  1  0
 15 17  1  0
 17 18  1  0
 18 19  1  0
 19 20  1  0
 19 21  2  0
 21 22  1  0
 22 23  1  0
 23 24  3  0
 14  5  1  0
 22 17  2  0
M  END
>  <energy_score>  (3394) 
-52.092607

>  <inchikey>  (3394) 
GUTSXJHYNPFLPH-UHFFFAOYSA-N

>  <smiles>  (3394) 
COC(=O)c1cc(C(F)(F)F)ncc1N(N)c1oc(C)nc1C#N

>  <ref_pdb>  (3394) 
A0528a

>  <alias>  (3394) 
GUTSXJHYNPFLPH-UHFFFAOYSA-N-P15-P15-P308-601501

>  <HIPPO Pose ID>  (3394) 
502552

>  <name>  (3394) 
GUTSXJHYNPFLPH-UHFFFAOYSA-N-P15-P15-P308-601501

>  <HIPPO Compound ID>  (3394) 
292990

>  <ref_mols>  (3394) 
A4331a,A0514a

>  <distance_score>  (3394) 
1.354872

>  <inspiration_score>  (3394) 
None

$$$$
GUTSXJHYNPFLPH-UHFFFAOYSA-N-P308-P15-P308-601501
     RDKit          3D

 24 25  0  0  0  0  0  0  0  0999 V2000
    9.1446    8.4076   23.1878 C   0  0  0  0  0  0  0  0  0  0  0  0
    8.2992    9.2660   23.9477 O   0  0  0  0  0  0  0  0  0  0  0  0
    8.9898   10.2619   24.5417 C   0  0  0  0  0  0  0  0  0  0  0  0
   10.1926   10.3167   24.7416 O   0  0  0  0  0  0  0  0  0  0  0  0
    8.0557   11.3617   24.8342 C   0  0  0  0  0  0  0  0  0  0  0  0
    6.9681   11.0761   25.6664 C   0  0  0  0  0  0  0  0  0  0  0  0
    6.1512   12.1241   26.0603 C   0  0  0  0  0  0  0  0  0  0  0  0
    5.0277   11.9156   27.0459 C   0  0  0  0  0  0  0  0  0  0  0  0
    4.8532   10.6113   27.3840 F   0  0  0  0  0  0  0  0  0  0  0  0
    3.8096   12.3410   26.6083 F   0  0  0  0  0  0  0  0  0  0  0  0
    5.2465   12.5532   28.2338 F   0  0  0  0  0  0  0  0  0  0  0  0
    6.3801   13.3946   25.6455 N   0  0  0  0  0  0  0  0  0  0  0  0
    7.3972   13.6173   24.7820 C   0  0  0  0  0  0  0  0  0  0  0  0
    8.2829   12.6531   24.3152 C   0  0  0  0  0  0  0  0  0  0  0  0
    9.2948   12.9639   23.3678 N   0  0  0  0  0  0  0  0  0  0  0  0
    9.8506   11.9203   22.6235 N   0  0  0  0  0  0  0  0  0  0  0  0
    9.4981   14.1457   22.7264 C   0  0  0  0  0  0  0  0  0  0  0  0
    9.3406   14.2033   21.3563 O   0  0  0  0  0  0  0  0  0  0  0  0
   10.0022   15.3502   20.9838 C   0  0  0  0  0  0  0  0  0  0  0  0
   10.2870   15.5558   19.5471 C   0  0  0  0  0  0  0  0  0  0  0  0
   10.4289   16.0764   21.9920 N   0  0  0  0  0  0  0  0  0  0  0  0
   10.1753   15.2865   23.0777 C   0  0  0  0  0  0  0  0  0  0  0  0
   10.8557   15.4947   24.2975 C   0  0  0  0  0  0  0  0  0  0  0  0
   11.4757   15.5998   25.2706 N   0  0  0  0  0  0  0  0  0  0  0  0
  1  2  1  0
  2  3  1  0
  3  4  2  0
  3  5  1  0
  5  6  2  0
  6  7  1  0
  7  8  1  0
  8  9  1  0
  8 10  1  0
  8 11  1  0
  7 12  2  0
 12 13  1  0
 13 14  2  0
 14 15  1  0
 15 16  1  0
 15 17  1  0
 17 18  1  0
 18 19  1  0
 19 20  1  0
 19 21  2  0
 21 22  1  0
 22 23  1  0
 23 24  3  0
 14  5  1  0
 22 17  2  0
M  END
>  <energy_score>  (3395) 
-49.06472

>  <inchikey>  (3395) 
GUTSXJHYNPFLPH-UHFFFAOYSA-N

>  <smiles>  (3395) 
COC(=O)c1cc(C(F)(F)F)ncc1N(N)c1oc(C)nc1C#N

>  <ref_pdb>  (3395) 
A0528a

>  <alias>  (3395) 
GUTSXJHYNPFLPH-UHFFFAOYSA-N-P308-P15-P308-601501

>  <HIPPO Pose ID>  (3395) 
502553

>  <name>  (3395) 
GUTSXJHYNPFLPH-UHFFFAOYSA-N-P308-P15-P308-601501

>  <HIPPO Compound ID>  (3395) 
292990

>  <ref_mols>  (3395) 
A4331a,A0514a

>  <distance_score>  (3395) 
1.394544

>  <inspiration_score>  (3395) 
None

$$$$
KZKACYATWFFVNK-UHFFFAOYSA-N-P15-P15-P308-601501
     RDKit          3D

 24 25  0  0  0  0  0  0  0  0999 V2000
    9.6101    8.8304   23.0084 C   0  0  0  0  0  0  0  0  0  0  0  0
    8.7212    9.7573   23.6266 O   0  0  0  0  0  0  0  0  0  0  0  0
    9.2309   11.0033   23.7700 C   0  0  0  0  0  0  0  0  0  0  0  0
   10.3559   11.3519   23.4702 O   0  0  0  0  0  0  0  0  0  0  0  0
    8.2084   11.8870   24.3740 C   0  0  0  0  0  0  0  0  0  0  0  0
    7.2133   11.2973   25.1588 C   0  0  0  0  0  0  0  0  0  0  0  0
    6.3385   12.1032   25.8759 C   0  0  0  0  0  0  0  0  0  0  0  0
    5.4382   11.4628   26.9065 C   0  0  0  0  0  0  0  0  0  0  0  0
    4.2557   12.1048   27.0946 F   0  0  0  0  0  0  0  0  0  0  0  0
    5.1193   10.1714   26.5996 F   0  0  0  0  0  0  0  0  0  0  0  0
    6.0284   11.3947   28.1367 F   0  0  0  0  0  0  0  0  0  0  0  0
    6.3542   13.4494   25.7691 N   0  0  0  0  0  0  0  0  0  0  0  0
    7.3154   13.9920   24.9973 C   0  0  0  0  0  0  0  0  0  0  0  0
    8.3202   13.2844   24.3344 C   0  0  0  0  0  0  0  0  0  0  0  0
    9.5527   13.9615   24.1566 N   0  0  0  0  0  0  0  0  0  0  0  0
   10.3861   13.7208   25.3082 N   0  0  0  0  0  0  0  0  0  0  0  0
   10.3268   14.2933   23.0090 C   0  0  0  0  0  0  0  0  0  0  0  0
    9.7985   14.6225   21.7834 C   0  0  0  0  0  0  0  0  0  0  0  0
   10.7242   15.0921   20.8670 C   0  0  0  0  0  0  0  0  0  0  0  0
   10.3779   15.6235   19.5945 C   0  0  0  0  0  0  0  0  0  0  0  0
   10.1464   16.0830   18.5595 N   0  0  0  0  0  0  0  0  0  0  0  0
   12.0420   15.1866   21.0826 N   0  0  0  0  0  0  0  0  0  0  0  0
   12.4468   14.8499   22.2805 C   0  0  0  0  0  0  0  0  0  0  0  0
   11.6597   14.4363   23.2684 N   0  0  0  0  0  0  0  0  0  0  0  0
  1  2  1  0
  2  3  1  0
  3  4  2  0
  3  5  1  0
  5  6  2  0
  6  7  1  0
  7  8  1  0
  8  9  1  0
  8 10  1  0
  8 11  1  0
  7 12  2  0
 12 13  1  0
 13 14  2  0
 14 15  1  0
 15 16  1  0
 15 17  1  0
 17 18  2  0
 18 19  1  0
 19 20  1  0
 20 21  3  0
 19 22  2  0
 22 23  1  0
 23 24  2  0
 14  5  1  0
 24 17  1  0
M  END
>  <energy_score>  (3396) 
-11.579858

>  <inchikey>  (3396) 
KZKACYATWFFVNK-UHFFFAOYSA-N

>  <smiles>  (3396) 
COC(=O)c1cc(C(F)(F)F)ncc1N(N)c1cc(C#N)ncn1

>  <ref_pdb>  (3396) 
A0528a

>  <alias>  (3396) 
KZKACYATWFFVNK-UHFFFAOYSA-N-P15-P15-P308-601501

>  <HIPPO Pose ID>  (3396) 
502556

>  <name>  (3396) 
KZKACYATWFFVNK-UHFFFAOYSA-N-P15-P15-P308-601501

>  <HIPPO Compound ID>  (3396) 
292992

>  <ref_mols>  (3396) 
A4331a,A0514a

>  <distance_score>  (3396) 
1.64046

>  <inspiration_score>  (3396) 
None

$$$$
KZKACYATWFFVNK-UHFFFAOYSA-N-P308-P15-P308-601501
     RDKit          3D

 24 25  0  0  0  0  0  0  0  0999 V2000
    9.6407    8.7218   23.2145 C   0  0  0  0  0  0  0  0  0  0  0  0
    8.7714    9.7517   23.6700 O   0  0  0  0  0  0  0  0  0  0  0  0
    9.3837   10.7706   24.3178 C   0  0  0  0  0  0  0  0  0  0  0  0
   10.5653   10.8656   24.6002 O   0  0  0  0  0  0  0  0  0  0  0  0
    8.3176   11.7465   24.6244 C   0  0  0  0  0  0  0  0  0  0  0  0
    7.2123   11.2780   25.3291 C   0  0  0  0  0  0  0  0  0  0  0  0
    6.2592   12.1906   25.7566 C   0  0  0  0  0  0  0  0  0  0  0  0
    5.2267   11.7396   26.7652 C   0  0  0  0  0  0  0  0  0  0  0  0
    4.0176   12.3434   26.6492 F   0  0  0  0  0  0  0  0  0  0  0  0
    4.9795   10.3962   26.7041 F   0  0  0  0  0  0  0  0  0  0  0  0
    5.6267   11.9647   28.0510 F   0  0  0  0  0  0  0  0  0  0  0  0
    6.3124   13.4991   25.4094 N   0  0  0  0  0  0  0  0  0  0  0  0
    7.3880   13.9155   24.7094 C   0  0  0  0  0  0  0  0  0  0  0  0
    8.4604   13.1108   24.3479 C   0  0  0  0  0  0  0  0  0  0  0  0
    9.7283   13.6885   24.1690 N   0  0  0  0  0  0  0  0  0  0  0  0
   10.4679   13.6210   25.3946 N   0  0  0  0  0  0  0  0  0  0  0  0
   10.3489   14.4487   23.1477 C   0  0  0  0  0  0  0  0  0  0  0  0
    9.8890   14.5444   21.8522 C   0  0  0  0  0  0  0  0  0  0  0  0
   10.7566   15.1602   20.9626 C   0  0  0  0  0  0  0  0  0  0  0  0
   10.6158   15.1001   19.5461 C   0  0  0  0  0  0  0  0  0  0  0  0
   10.6201   14.9466   18.3994 N   0  0  0  0  0  0  0  0  0  0  0  0
   11.9308   15.7024   21.3004 N   0  0  0  0  0  0  0  0  0  0  0  0
   12.2784   15.5596   22.5571 C   0  0  0  0  0  0  0  0  0  0  0  0
   11.5463   14.9832   23.5056 N   0  0  0  0  0  0  0  0  0  0  0  0
  1  2  1  0
  2  3  1  0
  3  4  2  0
  3  5  1  0
  5  6  2  0
  6  7  1  0
  7  8  1  0
  8  9  1  0
  8 10  1  0
  8 11  1  0
  7 12  2  0
 12 13  1  0
 13 14  2  0
 14 15  1  0
 15 16  1  0
 15 17  1  0
 17 18  2  0
 18 19  1  0
 19 20  1  0
 20 21  3  0
 19 22  2  0
 22 23  1  0
 23 24  2  0
 14  5  1  0
 24 17  1  0
M  END
>  <energy_score>  (3397) 
-13.091717

>  <inchikey>  (3397) 
KZKACYATWFFVNK-UHFFFAOYSA-N

>  <smiles>  (3397) 
COC(=O)c1cc(C(F)(F)F)ncc1N(N)c1cc(C#N)ncn1

>  <ref_pdb>  (3397) 
A0528a

>  <alias>  (3397) 
KZKACYATWFFVNK-UHFFFAOYSA-N-P308-P15-P308-601501

>  <HIPPO Pose ID>  (3397) 
502557

>  <name>  (3397) 
KZKACYATWFFVNK-UHFFFAOYSA-N-P308-P15-P308-601501

>  <HIPPO Compound ID>  (3397) 
292992

>  <ref_mols>  (3397) 
A4331a,A0514a

>  <distance_score>  (3397) 
1.619681

>  <inspiration_score>  (3397) 
None

$$$$
FAMJJDKJWGXTSG-UHFFFAOYSA-N-P15-P15-P308-601501
     RDKit          3D

 24 25  0  0  0  0  0  0  0  0999 V2000
    9.3603    8.5780   23.0207 C   0  0  0  0  0  0  0  0  0  0  0  0
    8.4641    9.2763   23.8894 O   0  0  0  0  0  0  0  0  0  0  0  0
    8.8421   10.5506   24.1282 C   0  0  0  0  0  0  0  0  0  0  0  0
    9.8870   11.0652   23.7678 O   0  0  0  0  0  0  0  0  0  0  0  0
    7.7816   11.2600   24.8876 C   0  0  0  0  0  0  0  0  0  0  0  0
    6.8789   10.5645   25.6891 C   0  0  0  0  0  0  0  0  0  0  0  0
    5.9281   11.2953   26.3917 C   0  0  0  0  0  0  0  0  0  0  0  0
    5.1068   10.6421   27.4705 C   0  0  0  0  0  0  0  0  0  0  0  0
    4.1223   11.4508   27.9488 F   0  0  0  0  0  0  0  0  0  0  0  0
    4.4899    9.4987   27.0671 F   0  0  0  0  0  0  0  0  0  0  0  0
    5.8621   10.2904   28.5531 F   0  0  0  0  0  0  0  0  0  0  0  0
    5.7521   12.6297   26.2128 N   0  0  0  0  0  0  0  0  0  0  0  0
    6.5754   13.2667   25.3635 C   0  0  0  0  0  0  0  0  0  0  0  0
    7.6841   12.6559   24.7850 C   0  0  0  0  0  0  0  0  0  0  0  0
    8.5878   13.3343   23.8939 N   0  0  0  0  0  0  0  0  0  0  0  0
    9.1349   13.8587   25.2907 N   0  0  0  0  0  0  0  0  0  0  0  0
    8.3530   14.4699   22.9377 C   0  0  0  0  0  0  0  0  0  0  0  0
    7.3933   15.1211   22.7525 O   0  0  0  0  0  0  0  0  0  0  0  0
    9.5914   14.6300   22.1938 C   0  0  0  0  0  0  0  0  0  0  0  0
   10.8669   14.1547   22.4424 C   0  0  0  0  0  0  0  0  0  0  0  0
   11.8048   14.4159   21.4732 N   0  0  0  0  0  0  0  0  0  0  0  0
   11.1823   14.9355   20.4344 C   0  0  0  0  0  0  0  0  0  0  0  0
   11.6854   14.9463   19.0405 C   0  0  0  0  0  0  0  0  0  0  0  0
    9.6196   15.5395   20.7603 S   0  0  0  0  0  0  0  0  0  0  0  0
  1  2  1  0
  2  3  1  0
  3  4  2  0
  3  5  1  0
  5  6  2  0
  6  7  1  0
  7  8  1  0
  8  9  1  0
  8 10  1  0
  8 11  1  0
  7 12  2  0
 12 13  1  0
 13 14  2  0
 14 15  1  0
 15 16  1  0
 15 17  1  0
 17 18  2  0
 17 19  1  0
 19 20  2  0
 20 21  1  0
 21 22  2  0
 22 23  1  0
 22 24  1  0
 14  5  1  0
 24 19  1  0
M  END
>  <energy_score>  (3398) 
-24.08957

>  <inchikey>  (3398) 
FAMJJDKJWGXTSG-UHFFFAOYSA-N

>  <smiles>  (3398) 
COC(=O)c1cc(C(F)(F)F)ncc1N(N)C(=O)c1cnc(C)s1

>  <ref_pdb>  (3398) 
A0528a

>  <alias>  (3398) 
FAMJJDKJWGXTSG-UHFFFAOYSA-N-P15-P15-P308-601501

>  <HIPPO Pose ID>  (3398) 
502560

>  <name>  (3398) 
FAMJJDKJWGXTSG-UHFFFAOYSA-N-P15-P15-P308-601501

>  <HIPPO Compound ID>  (3398) 
292994

>  <ref_mols>  (3398) 
A4331a,A0514a

>  <distance_score>  (3398) 
1.363645

>  <inspiration_score>  (3398) 
None

$$$$
FAMJJDKJWGXTSG-UHFFFAOYSA-N-P308-P15-P308-601501
     RDKit          3D

 24 25  0  0  0  0  0  0  0  0999 V2000
    9.2884    8.8992   23.2881 C   0  0  0  0  0  0  0  0  0  0  0  0
    8.4016    9.7754   23.9889 O   0  0  0  0  0  0  0  0  0  0  0  0
    9.0059   10.8481   24.5515 C   0  0  0  0  0  0  0  0  0  0  0  0
   10.2079   11.0696   24.5705 O   0  0  0  0  0  0  0  0  0  0  0  0
    7.9679   11.7079   25.1858 C   0  0  0  0  0  0  0  0  0  0  0  0
    6.8713   11.1049   25.8162 C   0  0  0  0  0  0  0  0  0  0  0  0
    5.9475   11.9174   26.4749 C   0  0  0  0  0  0  0  0  0  0  0  0
    4.8342   11.3370   27.3029 C   0  0  0  0  0  0  0  0  0  0  0  0
    4.6707   10.0118   27.0868 F   0  0  0  0  0  0  0  0  0  0  0  0
    5.0638   11.4511   28.6440 F   0  0  0  0  0  0  0  0  0  0  0  0
    3.6133   11.9003   27.0845 F   0  0  0  0  0  0  0  0  0  0  0  0
    6.0546   13.2660   26.4957 N   0  0  0  0  0  0  0  0  0  0  0  0
    7.0800   13.8285   25.8371 C   0  0  0  0  0  0  0  0  0  0  0  0
    8.0969   13.1130   25.2125 C   0  0  0  0  0  0  0  0  0  0  0  0
    9.0115   13.8256   24.3457 N   0  0  0  0  0  0  0  0  0  0  0  0
    9.9592   13.5688   25.5897 N   0  0  0  0  0  0  0  0  0  0  0  0
    9.0394   15.2890   23.9210 C   0  0  0  0  0  0  0  0  0  0  0  0
    8.3680   16.1958   24.2643 O   0  0  0  0  0  0  0  0  0  0  0  0
   10.0230   15.3956   22.8830 C   0  0  0  0  0  0  0  0  0  0  0  0
   11.3838   15.2308   22.9291 C   0  0  0  0  0  0  0  0  0  0  0  0
   12.0067   15.2059   21.7036 N   0  0  0  0  0  0  0  0  0  0  0  0
   11.1132   15.3716   20.7458 C   0  0  0  0  0  0  0  0  0  0  0  0
   11.3947   15.3538   19.2870 C   0  0  0  0  0  0  0  0  0  0  0  0
    9.4997   15.6076   21.2764 S   0  0  0  0  0  0  0  0  0  0  0  0
  1  2  1  0
  2  3  1  0
  3  4  2  0
  3  5  1  0
  5  6  2  0
  6  7  1  0
  7  8  1  0
  8  9  1  0
  8 10  1  0
  8 11  1  0
  7 12  2  0
 12 13  1  0
 13 14  2  0
 14 15  1  0
 15 16  1  0
 15 17  1  0
 17 18  2  0
 17 19  1  0
 19 20  2  0
 20 21  1  0
 21 22  2  0
 22 23  1  0
 22 24  1  0
 14  5  1  0
 24 19  1  0
M  END
>  <energy_score>  (3399) 
-28.216839

>  <inchikey>  (3399) 
FAMJJDKJWGXTSG-UHFFFAOYSA-N

>  <smiles>  (3399) 
COC(=O)c1cc(C(F)(F)F)ncc1N(N)C(=O)c1cnc(C)s1

>  <ref_pdb>  (3399) 
A0528a

>  <alias>  (3399) 
FAMJJDKJWGXTSG-UHFFFAOYSA-N-P308-P15-P308-601501

>  <HIPPO Pose ID>  (3399) 
502561

>  <name>  (3399) 
FAMJJDKJWGXTSG-UHFFFAOYSA-N-P308-P15-P308-601501

>  <HIPPO Compound ID>  (3399) 
292994

>  <ref_mols>  (3399) 
A4331a,A0514a

>  <distance_score>  (3399) 
1.417785

>  <inspiration_score>  (3399) 
None

$$$$
AORVOOSYLMPVRI-UHFFFAOYSA-N-P308-P15-P308-601501
     RDKit          3D

 24 25  0  0  0  0  0  0  0  0999 V2000
    9.4882    8.8296   23.3063 C   0  0  0  0  0  0  0  0  0  0  0  0
    8.5196    9.6494   23.9581 O   0  0  0  0  0  0  0  0  0  0  0  0
    9.0362   10.6982   24.6359 C   0  0  0  0  0  0  0  0  0  0  0  0
   10.2116   10.9470   24.8590 O   0  0  0  0  0  0  0  0  0  0  0  0
    7.9154   11.5311   25.1131 C   0  0  0  0  0  0  0  0  0  0  0  0
    6.8822   10.8854   25.8016 C   0  0  0  0  0  0  0  0  0  0  0  0
    5.9194   11.6602   26.4373 C   0  0  0  0  0  0  0  0  0  0  0  0
    4.8552   11.0308   27.2974 C   0  0  0  0  0  0  0  0  0  0  0  0
    3.6709   11.6944   27.2327 F   0  0  0  0  0  0  0  0  0  0  0  0
    5.1790   10.9987   28.6211 F   0  0  0  0  0  0  0  0  0  0  0  0
    4.5891    9.7386   26.9592 F   0  0  0  0  0  0  0  0  0  0  0  0
    5.9304   13.0151   26.3805 N   0  0  0  0  0  0  0  0  0  0  0  0
    6.8875   13.6088   25.6479 C   0  0  0  0  0  0  0  0  0  0  0  0
    7.9330   12.9327   25.0233 C   0  0  0  0  0  0  0  0  0  0  0  0
    8.7316   13.7129   24.0941 N   0  0  0  0  0  0  0  0  0  0  0  0
    9.6129   13.8545   25.3958 N   0  0  0  0  0  0  0  0  0  0  0  0
    9.5665   13.2813   22.9086 C   0  0  0  0  0  0  0  0  0  0  0  0
    9.8256   12.2059   22.5128 O   0  0  0  0  0  0  0  0  0  0  0  0
    9.9766   14.4612   22.1814 C   0  0  0  0  0  0  0  0  0  0  0  0
    9.2435   14.9881   21.1964 N   0  0  0  0  0  0  0  0  0  0  0  0
   10.0096   16.0510   20.7216 O   0  0  0  0  0  0  0  0  0  0  0  0
   11.1646   16.2138   21.4795 N   0  0  0  0  0  0  0  0  0  0  0  0
   11.1294   15.2248   22.3698 C   0  0  0  0  0  0  0  0  0  0  0  0
   12.2001   15.0443   23.3511 C   0  0  0  0  0  0  0  0  0  0  0  0
  1  2  1  0
  2  3  1  0
  3  4  2  0
  3  5  1  0
  5  6  2  0
  6  7  1  0
  7  8  1  0
  8  9  1  0
  8 10  1  0
  8 11  1  0
  7 12  2  0
 12 13  1  0
 13 14  2  0
 14 15  1  0
 15 16  1  0
 15 17  1  0
 17 18  2  0
 17 19  1  0
 19 20  2  0
 20 21  1  0
 21 22  1  0
 22 23  2  0
 23 24  1  0
 14  5  1  0
 23 19  1  0
M  END
>  <energy_score>  (3400) 
-1.747989

>  <inchikey>  (3400) 
AORVOOSYLMPVRI-UHFFFAOYSA-N

>  <smiles>  (3400) 
COC(=O)c1cc(C(F)(F)F)ncc1N(N)C(=O)c1nonc1C

>  <ref_pdb>  (3400) 
A0528a

>  <alias>  (3400) 
AORVOOSYLMPVRI-UHFFFAOYSA-N-P308-P15-P308-601501

>  <HIPPO Pose ID>  (3400) 
502575

>  <name>  (3400) 
AORVOOSYLMPVRI-UHFFFAOYSA-N-P308-P15-P308-601501

>  <HIPPO Compound ID>  (3400) 
293001

>  <ref_mols>  (3400) 
A4331a,A0514a

>  <distance_score>  (3400) 
1.22922

>  <inspiration_score>  (3400) 
None

$$$$
MVQNGKZVYOOFJX-UHFFFAOYSA-N-P15-P15-P308-601501
     RDKit          3D

 24 25  0  0  0  0  0  0  0  0999 V2000
    9.2194    8.6820   23.1126 C   0  0  0  0  0  0  0  0  0  0  0  0
    8.3600    9.4365   23.9766 O   0  0  0  0  0  0  0  0  0  0  0  0
    8.7726   10.7131   24.1695 C   0  0  0  0  0  0  0  0  0  0  0  0
    9.7818   11.1858   23.6802 O   0  0  0  0  0  0  0  0  0  0  0  0
    7.8492   11.4437   25.0868 C   0  0  0  0  0  0  0  0  0  0  0  0
    6.8432   10.7568   25.7740 C   0  0  0  0  0  0  0  0  0  0  0  0
    6.0669   11.4568   26.6988 C   0  0  0  0  0  0  0  0  0  0  0  0
    5.1435   10.7296   27.6326 C   0  0  0  0  0  0  0  0  0  0  0  0
    4.4882    9.7270   27.0148 F   0  0  0  0  0  0  0  0  0  0  0  0
    5.8123   10.1609   28.6769 F   0  0  0  0  0  0  0  0  0  0  0  0
    4.1717   11.5069   28.1877 F   0  0  0  0  0  0  0  0  0  0  0  0
    6.1948   12.7856   26.9043 N   0  0  0  0  0  0  0  0  0  0  0  0
    7.1265   13.4303   26.2000 C   0  0  0  0  0  0  0  0  0  0  0  0
    8.0223   12.8182   25.3274 C   0  0  0  0  0  0  0  0  0  0  0  0
    9.0329   13.5880   24.7338 N   0  0  0  0  0  0  0  0  0  0  0  0
    9.8863   14.3184   25.6278 N   0  0  0  0  0  0  0  0  0  0  0  0
    8.6398   14.3255   23.5057 C   0  0  2  0  0  0  0  0  0  0  0  0
    7.2015   14.1235   23.0245 C   0  0  0  0  0  0  0  0  0  0  0  0
    9.6434   14.0573   22.3683 C   0  0  0  0  0  0  0  0  0  0  0  0
    9.4990   15.0460   21.2025 C   0  0  0  0  0  0  0  0  0  0  0  0
   10.8026   15.2203   20.4472 C   0  0  0  0  0  0  0  0  0  0  0  0
   11.7956   15.7263   21.3248 O   0  0  0  0  0  0  0  0  0  0  0  0
   12.0322   14.9553   22.4820 C   0  0  0  0  0  0  0  0  0  0  0  0
   11.1147   13.7844   22.7049 C   0  0  0  0  0  0  0  0  0  0  0  0
  1  2  1  0
  2  3  1  0
  3  4  2  0
  3  5  1  0
  5  6  2  0
  6  7  1  0
  7  8  1  0
  8  9  1  0
  8 10  1  0
  8 11  1  0
  7 12  2  0
 12 13  1  0
 13 14  2  0
 14 15  1  0
 15 16  1  0
 15 17  1  0
 17 18  1  6
 17 19  1  0
 19 20  1  0
 20 21  1  0
 21 22  1  0
 22 23  1  0
 23 24  1  0
 14  5  1  0
 24 19  1  0
M  END
>  <energy_score>  (3401) 
-35.695553

>  <inchikey>  (3401) 
MVQNGKZVYOOFJX-UHFFFAOYSA-N

>  <smiles>  (3401) 
COC(=O)c1cc(C(F)(F)F)ncc1N(N)C(C)C1CCOCC1

>  <ref_pdb>  (3401) 
A0528a

>  <alias>  (3401) 
MVQNGKZVYOOFJX-UHFFFAOYSA-N-P15-P15-P308-601501

>  <HIPPO Pose ID>  (3401) 
502578

>  <name>  (3401) 
MVQNGKZVYOOFJX-UHFFFAOYSA-N-P15-P15-P308-601501

>  <HIPPO Compound ID>  (3401) 
293003

>  <ref_mols>  (3401) 
A4331a,A0514a

>  <distance_score>  (3401) 
1.146489

>  <inspiration_score>  (3401) 
None

$$$$
MVQNGKZVYOOFJX-UHFFFAOYSA-N-P308-P15-P308-601501
     RDKit          3D

 24 25  0  0  0  0  0  0  0  0999 V2000
    9.2110    8.4675   23.0453 C   0  0  0  0  0  0  0  0  0  0  0  0
    8.3480    9.3318   23.7747 O   0  0  0  0  0  0  0  0  0  0  0  0
    9.0205   10.2465   24.5040 C   0  0  0  0  0  0  0  0  0  0  0  0
   10.2285   10.2868   24.6890 O   0  0  0  0  0  0  0  0  0  0  0  0
    8.0504   11.2146   25.0570 C   0  0  0  0  0  0  0  0  0  0  0  0
    6.9103   10.7421   25.7084 C   0  0  0  0  0  0  0  0  0  0  0  0
    6.0925   11.6675   26.3452 C   0  0  0  0  0  0  0  0  0  0  0  0
    4.8970   11.2539   27.1517 C   0  0  0  0  0  0  0  0  0  0  0  0
    5.0453   11.5628   28.4678 F   0  0  0  0  0  0  0  0  0  0  0  0
    4.6527    9.9133   27.1135 F   0  0  0  0  0  0  0  0  0  0  0  0
    3.7375   11.8579   26.7694 F   0  0  0  0  0  0  0  0  0  0  0  0
    6.3838   12.9893   26.3750 N   0  0  0  0  0  0  0  0  0  0  0  0
    7.4526   13.4152   25.6892 C   0  0  0  0  0  0  0  0  0  0  0  0
    8.2940   12.5905   24.9552 C   0  0  0  0  0  0  0  0  0  0  0  0
    9.2710   13.1092   24.0853 N   0  0  0  0  0  0  0  0  0  0  0  0
   10.5944   12.9808   24.6017 N   0  0  0  0  0  0  0  0  0  0  0  0
    8.8819   14.3569   23.3273 C   0  0  2  0  0  0  0  0  0  0  0  0
    7.5221   14.1391   22.6254 C   0  0  0  0  0  0  0  0  0  0  0  0
    9.9789   14.7026   22.2856 C   0  0  0  0  0  0  0  0  0  0  0  0
    9.4855   15.4749   21.0462 C   0  0  0  0  0  0  0  0  0  0  0  0
   10.6383   15.7559   20.0912 C   0  0  0  0  0  0  0  0  0  0  0  0
   11.6759   16.4503   20.7701 O   0  0  0  0  0  0  0  0  0  0  0  0
   12.1962   15.7160   21.8614 C   0  0  0  0  0  0  0  0  0  0  0  0
   11.1187   15.5326   22.9113 C   0  0  0  0  0  0  0  0  0  0  0  0
  1  2  1  0
  2  3  1  0
  3  4  2  0
  3  5  1  0
  5  6  2  0
  6  7  1  0
  7  8  1  0
  8  9  1  0
  8 10  1  0
  8 11  1  0
  7 12  2  0
 12 13  1  0
 13 14  2  0
 14 15  1  0
 15 16  1  0
 15 17  1  0
 17 18  1  6
 17 19  1  0
 19 20  1  0
 20 21  1  0
 21 22  1  0
 22 23  1  0
 23 24  1  0
 14  5  1  0
 24 19  1  0
M  END
>  <energy_score>  (3402) 
-51.739875

>  <inchikey>  (3402) 
MVQNGKZVYOOFJX-UHFFFAOYSA-N

>  <smiles>  (3402) 
COC(=O)c1cc(C(F)(F)F)ncc1N(N)C(C)C1CCOCC1

>  <ref_pdb>  (3402) 
A0528a

>  <alias>  (3402) 
MVQNGKZVYOOFJX-UHFFFAOYSA-N-P308-P15-P308-601501

>  <HIPPO Pose ID>  (3402) 
502579

>  <name>  (3402) 
MVQNGKZVYOOFJX-UHFFFAOYSA-N-P308-P15-P308-601501

>  <HIPPO Compound ID>  (3402) 
293003

>  <ref_mols>  (3402) 
A4331a,A0514a

>  <distance_score>  (3402) 
1.038365

>  <inspiration_score>  (3402) 
None

$$$$
FZFYMNSHKMWYQU-UHFFFAOYSA-N-P15-P15-P308-601501
     RDKit          3D

 24 25  0  0  0  0  0  0  0  0999 V2000
    9.4590    8.8491   23.0415 C   0  0  0  0  0  0  0  0  0  0  0  0
    8.5341    9.7780   23.6087 O   0  0  0  0  0  0  0  0  0  0  0  0
    9.0785   10.9903   23.8739 C   0  0  0  0  0  0  0  0  0  0  0  0
   10.2555   11.2678   23.7750 O   0  0  0  0  0  0  0  0  0  0  0  0
    8.0228   11.9110   24.3403 C   0  0  0  0  0  0  0  0  0  0  0  0
    7.0670   11.3688   25.2075 C   0  0  0  0  0  0  0  0  0  0  0  0
    6.1240   12.2032   25.7931 C   0  0  0  0  0  0  0  0  0  0  0  0
    5.2140   11.6700   26.8710 C   0  0  0  0  0  0  0  0  0  0  0  0
    5.6398   12.0240   28.1145 F   0  0  0  0  0  0  0  0  0  0  0  0
    3.9224   12.0944   26.7870 F   0  0  0  0  0  0  0  0  0  0  0  0
    5.1518   10.3052   26.8900 F   0  0  0  0  0  0  0  0  0  0  0  0
    6.0463   13.5138   25.4867 N   0  0  0  0  0  0  0  0  0  0  0  0
    6.9566   13.9998   24.6219 C   0  0  0  0  0  0  0  0  0  0  0  0
    8.0417   13.2921   24.0933 C   0  0  0  0  0  0  0  0  0  0  0  0
    9.1919   14.0475   23.8997 N   0  0  0  0  0  0  0  0  0  0  0  0
    9.9677   14.1239   25.1085 N   0  0  0  0  0  0  0  0  0  0  0  0
    9.9284   14.4077   22.6700 C   0  0  1  0  0  0  0  0  0  0  0  0
   11.1098   13.5169   22.3950 C   0  0  0  0  0  0  0  0  0  0  0  0
   12.1127   14.3190   21.5748 C   0  0  2  0  0  0  0  0  0  0  0  0
   13.0462   15.0141   22.4803 C   0  0  0  0  0  0  0  0  0  0  0  0
   11.5417   15.4342   20.9148 O   0  0  0  0  0  0  0  0  0  0  0  0
   10.3510   15.0440   20.2886 C   0  0  2  0  0  0  0  0  0  0  0  0
   10.1667   16.0139   19.1528 C   0  0  0  0  0  0  0  0  0  0  0  0
    9.2400   14.8586   21.3707 C   0  0  0  0  0  0  0  0  0  0  0  0
  1  2  1  0
  2  3  1  0
  3  4  2  0
  3  5  1  0
  5  6  2  0
  6  7  1  0
  7  8  1  0
  8  9  1  0
  8 10  1  0
  8 11  1  0
  7 12  2  0
 12 13  1  0
 13 14  2  0
 14 15  1  0
 15 16  1  0
 17 15  1  1
 17 18  1  0
 18 19  1  0
 19 20  1  1
 19 21  1  0
 21 22  1  0
 22 23  1  6
 22 24  1  0
 14  5  1  0
 24 17  1  0
M  END
>  <energy_score>  (3403) 
-4.177096

>  <inchikey>  (3403) 
FZFYMNSHKMWYQU-UHFFFAOYSA-N

>  <smiles>  (3403) 
COC(=O)c1cc(C(F)(F)F)ncc1N(N)C1CC(C)OC(C)C1

>  <ref_pdb>  (3403) 
A0528a

>  <alias>  (3403) 
FZFYMNSHKMWYQU-UHFFFAOYSA-N-P15-P15-P308-601501

>  <HIPPO Pose ID>  (3403) 
502582

>  <name>  (3403) 
FZFYMNSHKMWYQU-UHFFFAOYSA-N-P15-P15-P308-601501

>  <HIPPO Compound ID>  (3403) 
293005

>  <ref_mols>  (3403) 
A4331a,A0514a

>  <distance_score>  (3403) 
1.825421

>  <inspiration_score>  (3403) 
None

$$$$
FZFYMNSHKMWYQU-UHFFFAOYSA-N-P308-P15-P308-601501
     RDKit          3D

 24 25  0  0  0  0  0  0  0  0999 V2000
    9.2253    8.3033   24.0160 C   0  0  0  0  0  0  0  0  0  0  0  0
    8.4711    9.3309   24.6365 O   0  0  0  0  0  0  0  0  0  0  0  0
    8.4629   10.4454   23.8770 C   0  0  0  0  0  0  0  0  0  0  0  0
    9.0620   10.5350   22.8206 O   0  0  0  0  0  0  0  0  0  0  0  0
    7.6515   11.5036   24.5437 C   0  0  0  0  0  0  0  0  0  0  0  0
    6.7324   11.0949   25.5168 C   0  0  0  0  0  0  0  0  0  0  0  0
    5.9109   12.0305   26.1216 C   0  0  0  0  0  0  0  0  0  0  0  0
    4.9486   11.6144   27.2019 C   0  0  0  0  0  0  0  0  0  0  0  0
    5.2569   12.1719   28.4022 F   0  0  0  0  0  0  0  0  0  0  0  0
    3.6512   11.9474   26.9532 F   0  0  0  0  0  0  0  0  0  0  0  0
    4.9378   10.2653   27.4226 F   0  0  0  0  0  0  0  0  0  0  0  0
    5.9509   13.3289   25.7821 N   0  0  0  0  0  0  0  0  0  0  0  0
    6.8159   13.6854   24.8150 C   0  0  0  0  0  0  0  0  0  0  0  0
    7.7528   12.8614   24.1882 C   0  0  0  0  0  0  0  0  0  0  0  0
    8.7465   13.3744   23.3276 N   0  0  0  0  0  0  0  0  0  0  0  0
   10.0050   12.7595   23.4156 N   0  0  0  0  0  0  0  0  0  0  0  0
    8.7589   14.8218   22.9699 C   0  0  1  0  0  0  0  0  0  0  0  0
    9.3434   15.6404   24.1111 C   0  0  0  0  0  0  0  0  0  0  0  0
   10.8547   15.5031   24.1753 C   0  0  2  0  0  0  0  0  0  0  0  0
   11.3452   16.1933   25.4425 C   0  0  0  0  0  0  0  0  0  0  0  0
   11.4204   15.9947   22.9571 O   0  0  0  0  0  0  0  0  0  0  0  0
   11.0320   15.1780   21.8262 C   0  0  2  0  0  0  0  0  0  0  0  0
   11.6244   15.7495   20.5444 C   0  0  0  0  0  0  0  0  0  0  0  0
    9.5096   15.0972   21.6677 C   0  0  0  0  0  0  0  0  0  0  0  0
  1  2  1  0
  2  3  1  0
  3  4  2  0
  3  5  1  0
  5  6  2  0
  6  7  1  0
  7  8  1  0
  8  9  1  0
  8 10  1  0
  8 11  1  0
  7 12  2  0
 12 13  1  0
 13 14  2  0
 14 15  1  0
 15 16  1  0
 17 15  1  1
 17 18  1  0
 18 19  1  0
 19 20  1  1
 19 21  1  0
 21 22  1  0
 22 23  1  6
 22 24  1  0
 14  5  1  0
 24 17  1  0
M  END
>  <energy_score>  (3404) 
-40.309091

>  <inchikey>  (3404) 
FZFYMNSHKMWYQU-UHFFFAOYSA-N

>  <smiles>  (3404) 
COC(=O)c1cc(C(F)(F)F)ncc1N(N)C1CC(C)OC(C)C1

>  <ref_pdb>  (3404) 
A0528a

>  <alias>  (3404) 
FZFYMNSHKMWYQU-UHFFFAOYSA-N-P308-P15-P308-601501

>  <HIPPO Pose ID>  (3404) 
502583

>  <name>  (3404) 
FZFYMNSHKMWYQU-UHFFFAOYSA-N-P308-P15-P308-601501

>  <HIPPO Compound ID>  (3404) 
293005

>  <ref_mols>  (3404) 
A4331a,A0514a

>  <distance_score>  (3404) 
1.901437

>  <inspiration_score>  (3404) 
None

$$$$
FBELSRRJJBJWQR-UHFFFAOYSA-N-P15-P15-P308-601502
     RDKit          3D

 24 25  0  0  0  0  0  0  0  0999 V2000
    5.7874   15.5164   23.3302 C   0  0  0  0  0  0  0  0  0  0  0  0
    7.2077   15.4318   23.2333 O   0  0  0  0  0  0  0  0  0  0  0  0
    7.6405   14.4566   22.4085 C   0  0  0  0  0  0  0  0  0  0  0  0
    6.9777   13.6118   21.8281 O   0  0  0  0  0  0  0  0  0  0  0  0
    9.0976   14.5377   22.2539 C   0  0  0  0  0  0  0  0  0  0  0  0
    9.5741   14.8474   20.9923 C   0  0  0  0  0  0  0  0  0  0  0  0
   10.9384   14.8039   20.7667 C   0  0  0  0  0  0  0  0  0  0  0  0
   11.4506   14.9828   19.3461 C   0  0  0  0  0  0  0  0  0  0  0  0
   11.1280   14.0031   18.4685 F   0  0  0  0  0  0  0  0  0  0  0  0
   12.7979   14.9665   19.3195 F   0  0  0  0  0  0  0  0  0  0  0  0
   11.0032   16.1421   18.8003 F   0  0  0  0  0  0  0  0  0  0  0  0
   11.8249   14.5954   21.7851 N   0  0  0  0  0  0  0  0  0  0  0  0
   11.3287   14.3574   23.0136 C   0  0  0  0  0  0  0  0  0  0  0  0
    9.9743   14.2832   23.3130 C   0  0  0  0  0  0  0  0  0  0  0  0
    9.4780   13.9687   24.6015 N   0  0  0  0  0  0  0  0  0  0  0  0
   10.2853   14.3420   25.6984 N   0  0  0  0  0  0  0  0  0  0  0  0
    8.6858   12.7981   24.7969 C   0  0  0  0  0  0  0  0  0  0  0  0
    9.0250   11.6081   24.1561 C   0  0  0  0  0  0  0  0  0  0  0  0
    8.3100   10.4749   24.4469 C   0  0  0  0  0  0  0  0  0  0  0  0
    8.7605    9.1772   23.8672 C   0  0  0  0  0  0  0  0  0  0  0  0
    7.2410   10.4979   25.2702 N   0  0  0  0  0  0  0  0  0  0  0  0
    6.8685   11.6801   25.8008 C   0  0  0  0  0  0  0  0  0  0  0  0
    5.6481   11.6949   26.6337 C   0  0  0  0  0  0  0  0  0  0  0  0
    7.5699   12.8459   25.6150 C   0  0  0  0  0  0  0  0  0  0  0  0
  1  2  1  0
  2  3  1  0
  3  4  2  0
  3  5  1  0
  5  6  2  0
  6  7  1  0
  7  8  1  0
  8  9  1  0
  8 10  1  0
  8 11  1  0
  7 12  2  0
 12 13  1  0
 13 14  2  0
 14 15  1  0
 15 16  1  0
 15 17  1  0
 17 18  2  0
 18 19  1  0
 19 20  1  0
 19 21  2  0
 21 22  1  0
 22 23  1  0
 22 24  2  0
 14  5  1  0
 24 17  1  0
M  END
>  <energy_score>  (3405) 
-50.861257

>  <inchikey>  (3405) 
FBELSRRJJBJWQR-UHFFFAOYSA-N

>  <smiles>  (3405) 
COC(=O)c1cc(C(F)(F)F)ncc1N(N)c1cc(C)nc(C)c1

>  <ref_pdb>  (3405) 
A0514a

>  <alias>  (3405) 
FBELSRRJJBJWQR-UHFFFAOYSA-N-P15-P15-P308-601502

>  <HIPPO Pose ID>  (3405) 
502588

>  <name>  (3405) 
FBELSRRJJBJWQR-UHFFFAOYSA-N-P15-P15-P308-601502

>  <HIPPO Compound ID>  (3405) 
293008

>  <ref_mols>  (3405) 
A4331a,A0514a

>  <distance_score>  (3405) 
1.871665

>  <inspiration_score>  (3405) 
None

$$$$
FBELSRRJJBJWQR-UHFFFAOYSA-N-P308-P15-P308-601502
     RDKit          3D

 24 25  0  0  0  0  0  0  0  0999 V2000
    5.5311   15.2281   23.3563 C   0  0  0  0  0  0  0  0  0  0  0  0
    6.9530   15.3543   23.2986 O   0  0  0  0  0  0  0  0  0  0  0  0
    7.5454   14.3959   22.5509 C   0  0  0  0  0  0  0  0  0  0  0  0
    7.0145   13.4514   21.9865 O   0  0  0  0  0  0  0  0  0  0  0  0
    8.9775   14.6971   22.4159 C   0  0  0  0  0  0  0  0  0  0  0  0
    9.4028   15.0007   21.1252 C   0  0  0  0  0  0  0  0  0  0  0  0
   10.7531   15.1999   20.8897 C   0  0  0  0  0  0  0  0  0  0  0  0
   11.2013   15.4033   19.4473 C   0  0  0  0  0  0  0  0  0  0  0  0
   10.7188   14.4547   18.5971 F   0  0  0  0  0  0  0  0  0  0  0  0
   12.5471   15.3573   19.2841 F   0  0  0  0  0  0  0  0  0  0  0  0
   10.7726   16.5919   18.9416 F   0  0  0  0  0  0  0  0  0  0  0  0
   11.6545   15.2039   21.9135 N   0  0  0  0  0  0  0  0  0  0  0  0
   11.2013   14.9321   23.1645 C   0  0  0  0  0  0  0  0  0  0  0  0
    9.8800   14.6252   23.4878 C   0  0  0  0  0  0  0  0  0  0  0  0
    9.4684   14.2008   24.7896 N   0  0  0  0  0  0  0  0  0  0  0  0
   10.3501   14.4889   25.8643 N   0  0  0  0  0  0  0  0  0  0  0  0
    8.7732   12.9558   24.9491 C   0  0  0  0  0  0  0  0  0  0  0  0
    9.2587   11.7795   24.3759 C   0  0  0  0  0  0  0  0  0  0  0  0
    8.5338   10.6170   24.5171 C   0  0  0  0  0  0  0  0  0  0  0  0
    9.0516    9.3525   23.9097 C   0  0  0  0  0  0  0  0  0  0  0  0
    7.3638   10.5860   25.1883 N   0  0  0  0  0  0  0  0  0  0  0  0
    6.8949   11.7384   25.7083 C   0  0  0  0  0  0  0  0  0  0  0  0
    5.5714   11.6904   26.3657 C   0  0  0  0  0  0  0  0  0  0  0  0
    7.5677   12.9357   25.6320 C   0  0  0  0  0  0  0  0  0  0  0  0
  1  2  1  0
  2  3  1  0
  3  4  2  0
  3  5  1  0
  5  6  2  0
  6  7  1  0
  7  8  1  0
  8  9  1  0
  8 10  1  0
  8 11  1  0
  7 12  2  0
 12 13  1  0
 13 14  2  0
 14 15  1  0
 15 16  1  0
 15 17  1  0
 17 18  2  0
 18 19  1  0
 19 20  1  0
 19 21  2  0
 21 22  1  0
 22 23  1  0
 22 24  2  0
 14  5  1  0
 24 17  1  0
M  END
>  <energy_score>  (3406) 
-53.964397

>  <inchikey>  (3406) 
FBELSRRJJBJWQR-UHFFFAOYSA-N

>  <smiles>  (3406) 
COC(=O)c1cc(C(F)(F)F)ncc1N(N)c1cc(C)nc(C)c1

>  <ref_pdb>  (3406) 
A0514a

>  <alias>  (3406) 
FBELSRRJJBJWQR-UHFFFAOYSA-N-P308-P15-P308-601502

>  <HIPPO Pose ID>  (3406) 
502589

>  <name>  (3406) 
FBELSRRJJBJWQR-UHFFFAOYSA-N-P308-P15-P308-601502

>  <HIPPO Compound ID>  (3406) 
293008

>  <ref_mols>  (3406) 
A4331a,A0514a

>  <distance_score>  (3406) 
1.845577

>  <inspiration_score>  (3406) 
None

$$$$
LLPMKBKVJASHJQ-UHFFFAOYSA-N-P15-P15-P308-601502
     RDKit          3D

 24 25  0  0  0  0  0  0  0  0999 V2000
    9.3405    8.6220   23.0168 C   0  0  0  0  0  0  0  0  0  0  0  0
    8.5458    9.5708   23.7310 O   0  0  0  0  0  0  0  0  0  0  0  0
    9.1425   10.7807   23.8424 C   0  0  0  0  0  0  0  0  0  0  0  0
   10.2723   11.0427   23.4713 O   0  0  0  0  0  0  0  0  0  0  0  0
    8.2036   11.7635   24.4409 C   0  0  0  0  0  0  0  0  0  0  0  0
    7.1283   11.3160   25.2217 C   0  0  0  0  0  0  0  0  0  0  0  0
    6.3108   12.2665   25.8219 C   0  0  0  0  0  0  0  0  0  0  0  0
    5.2851   11.8800   26.8566 C   0  0  0  0  0  0  0  0  0  0  0  0
    5.0760   10.5407   26.9305 F   0  0  0  0  0  0  0  0  0  0  0  0
    4.0500   12.4228   26.6581 F   0  0  0  0  0  0  0  0  0  0  0  0
    5.6572   12.2416   28.1208 F   0  0  0  0  0  0  0  0  0  0  0  0
    6.4726   13.5943   25.5953 N   0  0  0  0  0  0  0  0  0  0  0  0
    7.5142   13.9943   24.8371 C   0  0  0  0  0  0  0  0  0  0  0  0
    8.4590   13.1410   24.2859 C   0  0  0  0  0  0  0  0  0  0  0  0
    9.7205   13.6203   23.9695 N   0  0  0  0  0  0  0  0  0  0  0  0
   10.5931   13.5834   25.1096 N   0  0  0  0  0  0  0  0  0  0  0  0
   10.1876   14.3733   22.7711 C   0  0  1  0  0  0  0  0  0  0  0  0
   11.5821   13.8632   22.3953 C   0  0  0  0  0  0  0  0  0  0  0  0
   12.3115   14.8947   21.5609 C   0  0  0  0  0  0  0  0  0  0  0  0
   11.7052   14.9423   20.2052 C   0  0  0  0  0  0  0  0  0  0  0  0
   10.1177   15.6576   20.2915 S   0  0  0  0  0  0  0  0  0  0  0  0
    9.6029   15.4494   18.9647 O   0  0  0  0  0  0  0  0  0  0  0  0
   10.2351   17.0154   20.7564 O   0  0  0  0  0  0  0  0  0  0  0  0
    9.2607   14.6303   21.5792 C   0  0  0  0  0  0  0  0  0  0  0  0
  1  2  1  0
  2  3  1  0
  3  4  2  0
  3  5  1  0
  5  6  2  0
  6  7  1  0
  7  8  1  0
  8  9  1  0
  8 10  1  0
  8 11  1  0
  7 12  2  0
 12 13  1  0
 13 14  2  0
 14 15  1  0
 15 16  1  0
 17 15  1  1
 17 18  1  0
 18 19  1  0
 19 20  1  0
 20 21  1  0
 21 22  2  0
 21 23  2  0
 21 24  1  0
 14  5  1  0
 24 17  1  0
M  END
>  <energy_score>  (3407) 
-21.070875

>  <inchikey>  (3407) 
LLPMKBKVJASHJQ-UHFFFAOYSA-N

>  <smiles>  (3407) 
COC(=O)c1cc(C(F)(F)F)ncc1N(N)C1CCCS(=O)(=O)C1

>  <ref_pdb>  (3407) 
A0514a

>  <alias>  (3407) 
LLPMKBKVJASHJQ-UHFFFAOYSA-N-P15-P15-P308-601502

>  <HIPPO Pose ID>  (3407) 
502590

>  <name>  (3407) 
LLPMKBKVJASHJQ-UHFFFAOYSA-N-P15-P15-P308-601502

>  <HIPPO Compound ID>  (3407) 
293009

>  <ref_mols>  (3407) 
A4331a,A0514a

>  <distance_score>  (3407) 
1.776894

>  <inspiration_score>  (3407) 
None

$$$$
LLPMKBKVJASHJQ-UHFFFAOYSA-N-P308-P15-P308-601502
     RDKit          3D

 24 25  0  0  0  0  0  0  0  0999 V2000
    9.4148    8.4697   23.7052 C   0  0  0  0  0  0  0  0  0  0  0  0
    8.7912    9.5089   24.4501 O   0  0  0  0  0  0  0  0  0  0  0  0
    8.8249   10.6943   23.8023 C   0  0  0  0  0  0  0  0  0  0  0  0
    9.3589   10.8869   22.7248 O   0  0  0  0  0  0  0  0  0  0  0  0
    8.1000   11.7168   24.5888 C   0  0  0  0  0  0  0  0  0  0  0  0
    7.0296   11.2838   25.3943 C   0  0  0  0  0  0  0  0  0  0  0  0
    6.2841   12.2283   26.0846 C   0  0  0  0  0  0  0  0  0  0  0  0
    5.1472   11.8338   26.9910 C   0  0  0  0  0  0  0  0  0  0  0  0
    4.9761   10.4892   27.0690 F   0  0  0  0  0  0  0  0  0  0  0  0
    3.9360   12.3274   26.6098 F   0  0  0  0  0  0  0  0  0  0  0  0
    5.3330   12.2372   28.2816 F   0  0  0  0  0  0  0  0  0  0  0  0
    6.5697   13.5470   26.0023 N   0  0  0  0  0  0  0  0  0  0  0  0
    7.5882   13.9312   25.2066 C   0  0  0  0  0  0  0  0  0  0  0  0
    8.4037   13.0835   24.4606 C   0  0  0  0  0  0  0  0  0  0  0  0
    9.4682   13.6292   23.7195 N   0  0  0  0  0  0  0  0  0  0  0  0
   10.6954   12.9384   23.7229 N   0  0  0  0  0  0  0  0  0  0  0  0
    9.1791   14.7439   22.7519 C   0  0  1  0  0  0  0  0  0  0  0  0
    9.9794   15.9750   23.1436 C   0  0  0  0  0  0  0  0  0  0  0  0
   11.4401   16.0186   22.7028 C   0  0  0  0  0  0  0  0  0  0  0  0
   11.7968   15.3919   21.3727 C   0  0  0  0  0  0  0  0  0  0  0  0
   10.4201   15.3503   20.2912 S   0  0  0  0  0  0  0  0  0  0  0  0
   10.8426   14.6474   19.0974 O   0  0  0  0  0  0  0  0  0  0  0  0
    9.8897   16.6915   20.1884 O   0  0  0  0  0  0  0  0  0  0  0  0
    9.3196   14.3327   21.2845 C   0  0  0  0  0  0  0  0  0  0  0  0
  1  2  1  0
  2  3  1  0
  3  4  2  0
  3  5  1  0
  5  6  2  0
  6  7  1  0
  7  8  1  0
  8  9  1  0
  8 10  1  0
  8 11  1  0
  7 12  2  0
 12 13  1  0
 13 14  2  0
 14 15  1  0
 15 16  1  0
 17 15  1  1
 17 18  1  0
 18 19  1  0
 19 20  1  0
 20 21  1  0
 21 22  2  0
 21 23  2  0
 21 24  1  0
 14  5  1  0
 24 17  1  0
M  END
>  <energy_score>  (3408) 
-37.802195

>  <inchikey>  (3408) 
LLPMKBKVJASHJQ-UHFFFAOYSA-N

>  <smiles>  (3408) 
COC(=O)c1cc(C(F)(F)F)ncc1N(N)C1CCCS(=O)(=O)C1

>  <ref_pdb>  (3408) 
A0514a

>  <alias>  (3408) 
LLPMKBKVJASHJQ-UHFFFAOYSA-N-P308-P15-P308-601502

>  <HIPPO Pose ID>  (3408) 
502591

>  <name>  (3408) 
LLPMKBKVJASHJQ-UHFFFAOYSA-N-P308-P15-P308-601502

>  <HIPPO Compound ID>  (3408) 
293009

>  <ref_mols>  (3408) 
A4331a,A0514a

>  <distance_score>  (3408) 
1.417805

>  <inspiration_score>  (3408) 
None

$$$$
GIEHGIVBBIPYJP-UHFFFAOYSA-N-P15-P15-P308-601502
     RDKit          3D

 24 24  0  0  0  0  0  0  0  0999 V2000
   11.1763   15.2970   18.6554 C   0  0  0  0  0  0  0  0  0  0  0  0
   11.0632   15.2016   20.1494 C   0  0  0  0  0  0  0  0  0  0  0  0
   12.3327   14.7651   20.8564 C   0  0  0  0  0  0  0  0  0  0  0  0
   12.1024   14.0433   22.1891 C   0  0  0  0  0  0  0  0  0  0  0  0
   11.0428   14.6807   23.0461 C   0  0  0  0  0  0  0  0  0  0  0  0
    9.6196   14.3806   22.5784 C   0  0  0  0  0  0  0  0  0  0  0  0
    8.5515   14.1835   23.6448 C   0  0  1  0  0  0  0  0  0  0  0  0
    7.2030   14.3218   22.9179 C   0  0  0  0  0  0  0  0  0  0  0  0
    8.7188   12.8430   24.2397 N   0  0  0  0  0  0  0  0  0  0  0  0
    9.9834   12.4391   24.6769 N   0  0  0  0  0  0  0  0  0  0  0  0
    7.7101   12.3437   25.0605 C   0  0  0  0  0  0  0  0  0  0  0  0
    7.0131   13.1845   25.9255 C   0  0  0  0  0  0  0  0  0  0  0  0
    6.0912   12.7887   26.8125 N   0  0  0  0  0  0  0  0  0  0  0  0
    5.7759   11.4752   26.8362 C   0  0  0  0  0  0  0  0  0  0  0  0
    4.7989   11.0260   27.8791 C   0  0  0  0  0  0  0  0  0  0  0  0
    3.8426   11.9654   28.1144 F   0  0  0  0  0  0  0  0  0  0  0  0
    4.1185    9.8897   27.5589 F   0  0  0  0  0  0  0  0  0  0  0  0
    5.3925   10.7754   29.0814 F   0  0  0  0  0  0  0  0  0  0  0  0
    6.3861   10.5566   26.0084 C   0  0  0  0  0  0  0  0  0  0  0  0
    7.3902   10.9841   25.1339 C   0  0  0  0  0  0  0  0  0  0  0  0
    8.0631    9.8822   24.4127 C   0  0  0  0  0  0  0  0  0  0  0  0
    7.8330    8.7365   24.7692 O   0  0  0  0  0  0  0  0  0  0  0  0
    8.8935   10.2132   23.4069 O   0  0  0  0  0  0  0  0  0  0  0  0
    9.5864    9.0802   22.8799 C   0  0  0  0  0  0  0  0  0  0  0  0
  1  2  1  0
  2  3  1  0
  3  4  1  0
  4  5  1  0
  5  6  1  0
  6  7  1  0
  7  8  1  6
  7  9  1  0
  9 10  1  0
  9 11  1  0
 11 12  2  0
 12 13  1  0
 13 14  2  0
 14 15  1  0
 15 16  1  0
 15 17  1  0
 15 18  1  0
 14 19  1  0
 19 20  2  0
 20 21  1  0
 21 22  2  0
 21 23  1  0
 23 24  1  0
 20 11  1  0
M  END
>  <energy_score>  (3409) 
-21.376388

>  <inchikey>  (3409) 
GIEHGIVBBIPYJP-UHFFFAOYSA-N

>  <smiles>  (3409) 
CCCCCCC(C)N(N)c1cnc(C(F)(F)F)cc1C(=O)OC

>  <ref_pdb>  (3409) 
A0514a

>  <alias>  (3409) 
GIEHGIVBBIPYJP-UHFFFAOYSA-N-P15-P15-P308-601502

>  <HIPPO Pose ID>  (3409) 
502598

>  <name>  (3409) 
GIEHGIVBBIPYJP-UHFFFAOYSA-N-P15-P15-P308-601502

>  <HIPPO Compound ID>  (3409) 
293013

>  <ref_mols>  (3409) 
A4331a,A0514a

>  <distance_score>  (3409) 
1.276542

>  <inspiration_score>  (3409) 
None

$$$$
GIEHGIVBBIPYJP-UHFFFAOYSA-N-P308-P15-P308-601502
     RDKit          3D

 24 24  0  0  0  0  0  0  0  0999 V2000
   11.2202   15.1966   19.3036 C   0  0  0  0  0  0  0  0  0  0  0  0
   10.7579   16.0351   20.4777 C   0  0  0  0  0  0  0  0  0  0  0  0
   11.8167   16.1563   21.5713 C   0  0  0  0  0  0  0  0  0  0  0  0
   11.7733   15.0433   22.6216 C   0  0  0  0  0  0  0  0  0  0  0  0
   10.9959   15.4019   23.8849 C   0  0  0  0  0  0  0  0  0  0  0  0
    9.4863   15.5354   23.7620 C   0  0  0  0  0  0  0  0  0  0  0  0
    8.6227   14.2875   23.5661 C   0  0  1  0  0  0  0  0  0  0  0  0
    8.3986   13.8808   22.1305 C   0  0  0  0  0  0  0  0  0  0  0  0
    9.0381   13.1254   24.4107 N   0  0  0  0  0  0  0  0  0  0  0  0
   10.2023   12.4115   24.1109 N   0  0  0  0  0  0  0  0  0  0  0  0
    7.9643   12.5035   25.0792 C   0  0  0  0  0  0  0  0  0  0  0  0
    7.1919   13.3526   25.8863 C   0  0  0  0  0  0  0  0  0  0  0  0
    6.1129   13.0107   26.5986 N   0  0  0  0  0  0  0  0  0  0  0  0
    5.7277   11.7237   26.5509 C   0  0  0  0  0  0  0  0  0  0  0  0
    4.5707   11.3447   27.4238 C   0  0  0  0  0  0  0  0  0  0  0  0
    4.7542   11.7622   28.7041 F   0  0  0  0  0  0  0  0  0  0  0  0
    4.3543   10.0009   27.5031 F   0  0  0  0  0  0  0  0  0  0  0  0
    3.3822   11.8838   27.0280 F   0  0  0  0  0  0  0  0  0  0  0  0
    6.4244   10.7815   25.8160 C   0  0  0  0  0  0  0  0  0  0  0  0
    7.5725   11.1552   25.0902 C   0  0  0  0  0  0  0  0  0  0  0  0
    8.2113    9.9789   24.4470 C   0  0  0  0  0  0  0  0  0  0  0  0
    7.9711    8.8502   24.8560 O   0  0  0  0  0  0  0  0  0  0  0  0
    8.9838   10.2492   23.3779 O   0  0  0  0  0  0  0  0  0  0  0  0
    9.5793    9.0700   22.8266 C   0  0  0  0  0  0  0  0  0  0  0  0
  1  2  1  0
  2  3  1  0
  3  4  1  0
  4  5  1  0
  5  6  1  0
  6  7  1  0
  7  8  1  6
  7  9  1  0
  9 10  1  0
  9 11  1  0
 11 12  2  0
 12 13  1  0
 13 14  2  0
 14 15  1  0
 15 16  1  0
 15 17  1  0
 15 18  1  0
 14 19  1  0
 19 20  2  0
 20 21  1  0
 21 22  2  0
 21 23  1  0
 23 24  1  0
 20 11  1  0
M  END
>  <energy_score>  (3410) 
-29.272601

>  <inchikey>  (3410) 
GIEHGIVBBIPYJP-UHFFFAOYSA-N

>  <smiles>  (3410) 
CCCCCCC(C)N(N)c1cnc(C(F)(F)F)cc1C(=O)OC

>  <ref_pdb>  (3410) 
A0514a

>  <alias>  (3410) 
GIEHGIVBBIPYJP-UHFFFAOYSA-N-P308-P15-P308-601502

>  <HIPPO Pose ID>  (3410) 
502599

>  <name>  (3410) 
GIEHGIVBBIPYJP-UHFFFAOYSA-N-P308-P15-P308-601502

>  <HIPPO Compound ID>  (3410) 
293013

>  <ref_mols>  (3410) 
A4331a,A0514a

>  <distance_score>  (3410) 
1.271117

>  <inspiration_score>  (3410) 
None

$$$$
JLGFKWRUEPCRKR-UHFFFAOYSA-N-P15-P15-P308-601502
     RDKit          3D

 24 25  0  0  0  0  0  0  0  0999 V2000
    5.9197   15.3734   23.6650 C   0  0  0  0  0  0  0  0  0  0  0  0
    7.3309   15.2968   23.4692 O   0  0  0  0  0  0  0  0  0  0  0  0
    7.7118   14.3359   22.6018 C   0  0  0  0  0  0  0  0  0  0  0  0
    7.0360   13.4627   22.0816 O   0  0  0  0  0  0  0  0  0  0  0  0
    9.1196   14.5360   22.2505 C   0  0  0  0  0  0  0  0  0  0  0  0
    9.2737   15.0642   20.9818 C   0  0  0  0  0  0  0  0  0  0  0  0
   10.5305   15.3115   20.4712 C   0  0  0  0  0  0  0  0  0  0  0  0
   10.6100   15.8134   19.0284 C   0  0  0  0  0  0  0  0  0  0  0  0
    9.5389   15.4282   18.2901 F   0  0  0  0  0  0  0  0  0  0  0  0
   11.7130   15.3638   18.3852 F   0  0  0  0  0  0  0  0  0  0  0  0
   10.5648   17.1680   18.9512 F   0  0  0  0  0  0  0  0  0  0  0  0
   11.6374   15.0920   21.2266 N   0  0  0  0  0  0  0  0  0  0  0  0
   11.4560   14.5780   22.4696 C   0  0  0  0  0  0  0  0  0  0  0  0
   10.2242   14.2674   23.0601 C   0  0  0  0  0  0  0  0  0  0  0  0
   10.0899   13.7577   24.3867 N   0  0  0  0  0  0  0  0  0  0  0  0
   11.2744   13.5733   25.1390 N   0  0  0  0  0  0  0  0  0  0  0  0
    9.0950   12.7758   24.6867 C   0  0  0  0  0  0  0  0  0  0  0  0
    8.0250   13.0925   25.5244 C   0  0  0  0  0  0  0  0  0  0  0  0
    7.0531   12.1439   25.8141 C   0  0  0  0  0  0  0  0  0  0  0  0
    5.8743   12.5550   26.6325 C   0  0  0  0  0  0  0  0  0  0  0  0
    7.1876   10.8547   25.2823 C   0  0  0  0  0  0  0  0  0  0  0  0
    8.2723   10.5247   24.4608 C   0  0  0  0  0  0  0  0  0  0  0  0
    8.5101    9.1543   23.9323 C   0  0  0  0  0  0  0  0  0  0  0  0
    9.1821   11.5072   24.1194 C   0  0  0  0  0  0  0  0  0  0  0  0
  1  2  1  0
  2  3  1  0
  3  4  2  0
  3  5  1  0
  5  6  2  0
  6  7  1  0
  7  8  1  0
  8  9  1  0
  8 10  1  0
  8 11  1  0
  7 12  2  0
 12 13  1  0
 13 14  2  0
 14 15  1  0
 15 16  1  0
 15 17  1  0
 17 18  2  0
 18 19  1  0
 19 20  1  0
 19 21  2  0
 21 22  1  0
 22 23  1  0
 22 24  2  0
 14  5  1  0
 24 17  1  0
M  END
>  <energy_score>  (3411) 
-37.942413

>  <inchikey>  (3411) 
JLGFKWRUEPCRKR-UHFFFAOYSA-N

>  <smiles>  (3411) 
COC(=O)c1cc(C(F)(F)F)ncc1N(N)c1cc(C)cc(C)c1

>  <ref_pdb>  (3411) 
A0514a

>  <alias>  (3411) 
JLGFKWRUEPCRKR-UHFFFAOYSA-N-P15-P15-P308-601502

>  <HIPPO Pose ID>  (3411) 
502600

>  <name>  (3411) 
JLGFKWRUEPCRKR-UHFFFAOYSA-N-P15-P15-P308-601502

>  <HIPPO Compound ID>  (3411) 
293014

>  <ref_mols>  (3411) 
A4331a,A0514a

>  <distance_score>  (3411) 
1.814155

>  <inspiration_score>  (3411) 
None

$$$$
MNLBXDNBDJIKOX-UHFFFAOYSA-N-P308-P15-P308-601502
     RDKit          3D

 24 25  0  0  0  0  0  0  0  0999 V2000
    9.3676    8.8538   23.2963 C   0  0  0  0  0  0  0  0  0  0  0  0
    8.4517    9.7430   23.9363 O   0  0  0  0  0  0  0  0  0  0  0  0
    9.0339   10.8331   24.4908 C   0  0  0  0  0  0  0  0  0  0  0  0
   10.2315   11.0660   24.5471 O   0  0  0  0  0  0  0  0  0  0  0  0
    7.9634   11.7003   25.0425 C   0  0  0  0  0  0  0  0  0  0  0  0
    6.9125   11.1151   25.7547 C   0  0  0  0  0  0  0  0  0  0  0  0
    5.9601   11.9502   26.3382 C   0  0  0  0  0  0  0  0  0  0  0  0
    4.9013   11.4129   27.2586 C   0  0  0  0  0  0  0  0  0  0  0  0
    4.7533   10.0727   27.1401 F   0  0  0  0  0  0  0  0  0  0  0  0
    5.1883   11.6268   28.5749 F   0  0  0  0  0  0  0  0  0  0  0  0
    3.6592   11.9346   27.0557 F   0  0  0  0  0  0  0  0  0  0  0  0
    5.9887   13.2951   26.1952 N   0  0  0  0  0  0  0  0  0  0  0  0
    6.9728   13.8328   25.4610 C   0  0  0  0  0  0  0  0  0  0  0  0
    8.0189   13.1009   24.9130 C   0  0  0  0  0  0  0  0  0  0  0  0
    8.9543   13.7685   24.0397 N   0  0  0  0  0  0  0  0  0  0  0  0
    9.8192   13.6926   25.3578 N   0  0  0  0  0  0  0  0  0  0  0  0
    8.9416   15.1836   23.4641 C   0  0  0  0  0  0  0  0  0  0  0  0
    8.2039   16.0828   23.6655 O   0  0  0  0  0  0  0  0  0  0  0  0
    9.9846   15.2816   22.4687 C   0  0  0  0  0  0  0  0  0  0  0  0
    9.5144   15.5827   20.8521 S   0  0  0  0  0  0  0  0  0  0  0  0
   11.1391   15.4370   20.3562 C   0  0  0  0  0  0  0  0  0  0  0  0
   12.0042   15.2170   21.3187 N   0  0  0  0  0  0  0  0  0  0  0  0
   11.3530   15.1369   22.5360 C   0  0  0  0  0  0  0  0  0  0  0  0
   12.1962   14.9159   23.7193 C   0  0  0  0  0  0  0  0  0  0  0  0
  1  2  1  0
  2  3  1  0
  3  4  2  0
  3  5  1  0
  5  6  2  0
  6  7  1  0
  7  8  1  0
  8  9  1  0
  8 10  1  0
  8 11  1  0
  7 12  2  0
 12 13  1  0
 13 14  2  0
 14 15  1  0
 15 16  1  0
 15 17  1  0
 17 18  2  0
 17 19  1  0
 19 20  1  0
 20 21  1  0
 21 22  2  0
 22 23  1  0
 23 24  1  0
 14  5  1  0
 23 19  2  0
M  END
>  <energy_score>  (3412) 
-17.935644

>  <inchikey>  (3412) 
MNLBXDNBDJIKOX-UHFFFAOYSA-N

>  <smiles>  (3412) 
COC(=O)c1cc(C(F)(F)F)ncc1N(N)C(=O)c1scnc1C

>  <ref_pdb>  (3412) 
A0514a

>  <alias>  (3412) 
MNLBXDNBDJIKOX-UHFFFAOYSA-N-P308-P15-P308-601502

>  <HIPPO Pose ID>  (3412) 
502603

>  <name>  (3412) 
MNLBXDNBDJIKOX-UHFFFAOYSA-N-P308-P15-P308-601502

>  <HIPPO Compound ID>  (3412) 
293015

>  <ref_mols>  (3412) 
A4331a,A0514a

>  <distance_score>  (3412) 
1.372565

>  <inspiration_score>  (3412) 
None

$$$$
KLIQUSMNBFNVAT-UHFFFAOYSA-N-P15-P15-P308-601502
     RDKit          3D

 24 25  0  0  0  0  0  0  0  0999 V2000
    9.5040    8.8405   23.0577 C   0  0  0  0  0  0  0  0  0  0  0  0
    8.6279    9.7610   23.7103 O   0  0  0  0  0  0  0  0  0  0  0  0
    9.1458   11.0062   23.8400 C   0  0  0  0  0  0  0  0  0  0  0  0
   10.2751   11.3341   23.5285 O   0  0  0  0  0  0  0  0  0  0  0  0
    8.1303   11.9203   24.4190 C   0  0  0  0  0  0  0  0  0  0  0  0
    7.0873   11.3829   25.1762 C   0  0  0  0  0  0  0  0  0  0  0  0
    6.2008   12.2411   25.8205 C   0  0  0  0  0  0  0  0  0  0  0  0
    5.2065   11.6905   26.8119 C   0  0  0  0  0  0  0  0  0  0  0  0
    5.5491   11.9856   28.0963 F   0  0  0  0  0  0  0  0  0  0  0  0
    3.9361   12.1569   26.6551 F   0  0  0  0  0  0  0  0  0  0  0  0
    5.1082   10.3285   26.7747 F   0  0  0  0  0  0  0  0  0  0  0  0
    6.2583   13.5826   25.6707 N   0  0  0  0  0  0  0  0  0  0  0  0
    7.2711   14.0733   24.9381 C   0  0  0  0  0  0  0  0  0  0  0  0
    8.2818   13.3134   24.3534 C   0  0  0  0  0  0  0  0  0  0  0  0
    9.5375   13.9455   24.2151 N   0  0  0  0  0  0  0  0  0  0  0  0
   10.3465   13.6712   25.3696 N   0  0  0  0  0  0  0  0  0  0  0  0
   10.3248   14.2878   23.0865 C   0  0  0  0  0  0  0  0  0  0  0  0
    9.8097   14.6455   21.8639 C   0  0  0  0  0  0  0  0  0  0  0  0
   10.7385   15.1352   20.9701 C   0  0  0  0  0  0  0  0  0  0  0  0
   10.3226   15.7801   19.3943 S   0  0  0  0  0  0  0  0  0  0  0  0
   11.6355   14.9772   18.4364 C   0  0  0  0  0  0  0  0  0  0  0  0
   12.0441   15.2409   21.2291 N   0  0  0  0  0  0  0  0  0  0  0  0
   12.4451   14.8350   22.4031 C   0  0  0  0  0  0  0  0  0  0  0  0
   11.6551   14.3943   23.3685 N   0  0  0  0  0  0  0  0  0  0  0  0
  1  2  1  0
  2  3  1  0
  3  4  2  0
  3  5  1  0
  5  6  2  0
  6  7  1  0
  7  8  1  0
  8  9  1  0
  8 10  1  0
  8 11  1  0
  7 12  2  0
 12 13  1  0
 13 14  2  0
 14 15  1  0
 15 16  1  0
 15 17  1  0
 17 18  2  0
 18 19  1  0
 19 20  1  0
 20 21  1  0
 19 22  2  0
 22 23  1  0
 23 24  2  0
 14  5  1  0
 24 17  1  0
M  END
>  <energy_score>  (3413) 
-39.766199

>  <inchikey>  (3413) 
KLIQUSMNBFNVAT-UHFFFAOYSA-N

>  <smiles>  (3413) 
COC(=O)c1cc(C(F)(F)F)ncc1N(N)c1cc(SC)ncn1

>  <ref_pdb>  (3413) 
A0514a

>  <alias>  (3413) 
KLIQUSMNBFNVAT-UHFFFAOYSA-N-P15-P15-P308-601502

>  <HIPPO Pose ID>  (3413) 
502616

>  <name>  (3413) 
KLIQUSMNBFNVAT-UHFFFAOYSA-N-P15-P15-P308-601502

>  <HIPPO Compound ID>  (3413) 
293022

>  <ref_mols>  (3413) 
A4331a,A0514a

>  <distance_score>  (3413) 
1.780954

>  <inspiration_score>  (3413) 
None

$$$$
KLIQUSMNBFNVAT-UHFFFAOYSA-N-P308-P15-P308-601502
     RDKit          3D

 24 25  0  0  0  0  0  0  0  0999 V2000
    9.5277    8.6265   23.7347 C   0  0  0  0  0  0  0  0  0  0  0  0
    8.7733    9.6278   24.4103 O   0  0  0  0  0  0  0  0  0  0  0  0
    8.8755   10.8417   23.8232 C   0  0  0  0  0  0  0  0  0  0  0  0
    9.5422   11.1056   22.8397 O   0  0  0  0  0  0  0  0  0  0  0  0
    8.0037   11.8163   24.5021 C   0  0  0  0  0  0  0  0  0  0  0  0
    6.8834   11.3888   25.2027 C   0  0  0  0  0  0  0  0  0  0  0  0
    6.0864   12.3387   25.8264 C   0  0  0  0  0  0  0  0  0  0  0  0
    4.9755   11.8835   26.7415 C   0  0  0  0  0  0  0  0  0  0  0  0
    5.1610   12.2989   28.0249 F   0  0  0  0  0  0  0  0  0  0  0  0
    3.7375   12.3208   26.3812 F   0  0  0  0  0  0  0  0  0  0  0  0
    4.8733   10.5218   26.8268 F   0  0  0  0  0  0  0  0  0  0  0  0
    6.3192   13.6698   25.7077 N   0  0  0  0  0  0  0  0  0  0  0  0
    7.4165   14.0470   25.0257 C   0  0  0  0  0  0  0  0  0  0  0  0
    8.3301   13.1740   24.4560 C   0  0  0  0  0  0  0  0  0  0  0  0
    9.6639   13.5780   24.2668 N   0  0  0  0  0  0  0  0  0  0  0  0
   10.4396   13.3422   25.4501 N   0  0  0  0  0  0  0  0  0  0  0  0
   10.2941   14.3921   23.2945 C   0  0  0  0  0  0  0  0  0  0  0  0
    9.7323   14.7055   22.0780 C   0  0  0  0  0  0  0  0  0  0  0  0
   10.5571   15.3719   21.1917 C   0  0  0  0  0  0  0  0  0  0  0  0
   10.0207   15.8135   19.5805 S   0  0  0  0  0  0  0  0  0  0  0  0
   11.3280   15.0694   18.5910 C   0  0  0  0  0  0  0  0  0  0  0  0
   11.8049   15.7535   21.4760 N   0  0  0  0  0  0  0  0  0  0  0  0
   12.2444   15.4225   22.6722 C   0  0  0  0  0  0  0  0  0  0  0  0
   11.5595   14.7714   23.6084 N   0  0  0  0  0  0  0  0  0  0  0  0
  1  2  1  0
  2  3  1  0
  3  4  2  0
  3  5  1  0
  5  6  2  0
  6  7  1  0
  7  8  1  0
  8  9  1  0
  8 10  1  0
  8 11  1  0
  7 12  2  0
 12 13  1  0
 13 14  2  0
 14 15  1  0
 15 16  1  0
 15 17  1  0
 17 18  2  0
 18 19  1  0
 19 20  1  0
 20 21  1  0
 19 22  2  0
 22 23  1  0
 23 24  2  0
 14  5  1  0
 24 17  1  0
M  END
>  <energy_score>  (3414) 
-48.213109

>  <inchikey>  (3414) 
KLIQUSMNBFNVAT-UHFFFAOYSA-N

>  <smiles>  (3414) 
COC(=O)c1cc(C(F)(F)F)ncc1N(N)c1cc(SC)ncn1

>  <ref_pdb>  (3414) 
A0514a

>  <alias>  (3414) 
KLIQUSMNBFNVAT-UHFFFAOYSA-N-P308-P15-P308-601502

>  <HIPPO Pose ID>  (3414) 
502617

>  <name>  (3414) 
KLIQUSMNBFNVAT-UHFFFAOYSA-N-P308-P15-P308-601502

>  <HIPPO Compound ID>  (3414) 
293022

>  <ref_mols>  (3414) 
A4331a,A0514a

>  <distance_score>  (3414) 
1.776171

>  <inspiration_score>  (3414) 
None

$$$$
PZGSJULHPWOIMC-UHFFFAOYSA-N-P15-P15-P308-601502
     RDKit          3D

 24 25  0  0  0  0  0  0  0  0999 V2000
    9.3188    8.5119   22.9216 C   0  0  0  0  0  0  0  0  0  0  0  0
    8.4175    9.3660   23.6199 O   0  0  0  0  0  0  0  0  0  0  0  0
    8.9424   10.5879   23.8382 C   0  0  0  0  0  0  0  0  0  0  0  0
   10.0801   10.9449   23.5952 O   0  0  0  0  0  0  0  0  0  0  0  0
    7.9803   11.4537   24.5266 C   0  0  0  0  0  0  0  0  0  0  0  0
    7.1934   10.9071   25.5397 C   0  0  0  0  0  0  0  0  0  0  0  0
    6.4382   11.7720   26.3129 C   0  0  0  0  0  0  0  0  0  0  0  0
    5.4846   11.2306   27.3480 C   0  0  0  0  0  0  0  0  0  0  0  0
    4.3947   12.0250   27.5399 F   0  0  0  0  0  0  0  0  0  0  0  0
    4.9894   10.0013   27.0341 F   0  0  0  0  0  0  0  0  0  0  0  0
    6.0623   11.0871   28.5766 F   0  0  0  0  0  0  0  0  0  0  0  0
    6.5498   13.1226   26.1929 N   0  0  0  0  0  0  0  0  0  0  0  0
    7.2377   13.6070   25.1364 C   0  0  0  0  0  0  0  0  0  0  0  0
    7.9132   12.8186   24.2128 C   0  0  0  0  0  0  0  0  0  0  0  0
    8.1230   13.2635   22.8838 N   0  0  0  0  0  0  0  0  0  0  0  0
    6.8593   13.6125   22.2457 N   0  0  0  0  0  0  0  0  0  0  0  0
    9.2353   14.2377   22.5920 C   0  0  1  0  0  0  0  0  0  0  0  0
   10.6014   13.7689   23.0381 C   0  0  0  0  0  0  0  0  0  0  0  0
   11.6841   14.7431   22.6176 C   0  0  0  0  0  0  0  0  0  0  0  0
   11.7015   15.1676   21.2755 O   0  0  0  0  0  0  0  0  0  0  0  0
   10.4814   15.4047   20.5823 C   0  0  0  0  0  0  0  0  0  0  0  0
   10.0050   16.8560   20.6177 C   0  0  0  0  0  0  0  0  0  0  0  0
   10.8762   15.1486   19.1111 C   0  0  0  0  0  0  0  0  0  0  0  0
    9.3639   14.4723   21.0805 C   0  0  0  0  0  0  0  0  0  0  0  0
  1  2  1  0
  2  3  1  0
  3  4  2  0
  3  5  1  0
  5  6  2  0
  6  7  1  0
  7  8  1  0
  8  9  1  0
  8 10  1  0
  8 11  1  0
  7 12  2  0
 12 13  1  0
 13 14  2  0
 14 15  1  0
 15 16  1  0
 17 15  1  6
 17 18  1  0
 18 19  1  0
 19 20  1  0
 20 21  1  0
 21 22  1  0
 21 23  1  0
 21 24  1  0
 14  5  1  0
 24 17  1  0
M  END
>  <energy_score>  (3415) 
-22.069918

>  <inchikey>  (3415) 
PZGSJULHPWOIMC-UHFFFAOYSA-N

>  <smiles>  (3415) 
COC(=O)c1cc(C(F)(F)F)ncc1N(N)C1CCOC(C)(C)C1

>  <ref_pdb>  (3415) 
A0514a

>  <alias>  (3415) 
PZGSJULHPWOIMC-UHFFFAOYSA-N-P15-P15-P308-601502

>  <HIPPO Pose ID>  (3415) 
502622

>  <name>  (3415) 
PZGSJULHPWOIMC-UHFFFAOYSA-N-P15-P15-P308-601502

>  <HIPPO Compound ID>  (3415) 
293025

>  <ref_mols>  (3415) 
A4331a,A0514a

>  <distance_score>  (3415) 
1.479427

>  <inspiration_score>  (3415) 
None

$$$$
PZGSJULHPWOIMC-UHFFFAOYSA-N-P308-P15-P308-601502
     RDKit          3D

 24 25  0  0  0  0  0  0  0  0999 V2000
    9.3756    8.5421   23.0670 C   0  0  0  0  0  0  0  0  0  0  0  0
    8.5815    9.5516   23.6759 O   0  0  0  0  0  0  0  0  0  0  0  0
    9.2973   10.4270   24.4133 C   0  0  0  0  0  0  0  0  0  0  0  0
   10.4816   10.3682   24.7007 O   0  0  0  0  0  0  0  0  0  0  0  0
    8.3704   11.5133   24.7967 C   0  0  0  0  0  0  0  0  0  0  0  0
    7.1707   11.1490   25.4280 C   0  0  0  0  0  0  0  0  0  0  0  0
    6.3254   12.1608   25.8539 C   0  0  0  0  0  0  0  0  0  0  0  0
    5.1434   11.8878   26.7491 C   0  0  0  0  0  0  0  0  0  0  0  0
    4.9474   10.5679   26.9967 F   0  0  0  0  0  0  0  0  0  0  0  0
    5.2946   12.4474   27.9879 F   0  0  0  0  0  0  0  0  0  0  0  0
    3.9555   12.3547   26.2744 F   0  0  0  0  0  0  0  0  0  0  0  0
    6.5994   13.4627   25.5959 N   0  0  0  0  0  0  0  0  0  0  0  0
    7.7513   13.7709   24.9613 C   0  0  0  0  0  0  0  0  0  0  0  0
    8.7154   12.8593   24.5647 C   0  0  0  0  0  0  0  0  0  0  0  0
    9.9890   13.2418   24.1560 N   0  0  0  0  0  0  0  0  0  0  0  0
   11.0125   12.9862   25.1305 N   0  0  0  0  0  0  0  0  0  0  0  0
   10.3628   14.2797   23.1608 C   0  0  2  0  0  0  0  0  0  0  0  0
    9.9576   15.6871   23.4932 C   0  0  0  0  0  0  0  0  0  0  0  0
   10.7603   16.6096   22.5932 C   0  0  0  0  0  0  0  0  0  0  0  0
   11.4777   15.9450   21.5663 O   0  0  0  0  0  0  0  0  0  0  0  0
   10.6446   15.1104   20.7578 C   0  0  0  0  0  0  0  0  0  0  0  0
    9.6184   15.9978   20.0656 C   0  0  0  0  0  0  0  0  0  0  0  0
   11.5616   14.6039   19.6428 C   0  0  0  0  0  0  0  0  0  0  0  0
   10.0047   14.0101   21.6963 C   0  0  0  0  0  0  0  0  0  0  0  0
  1  2  1  0
  2  3  1  0
  3  4  2  0
  3  5  1  0
  5  6  2  0
  6  7  1  0
  7  8  1  0
  8  9  1  0
  8 10  1  0
  8 11  1  0
  7 12  2  0
 12 13  1  0
 13 14  2  0
 14 15  1  0
 15 16  1  0
 17 15  1  1
 17 18  1  0
 18 19  1  0
 19 20  1  0
 20 21  1  0
 21 22  1  0
 21 23  1  0
 21 24  1  0
 14  5  1  0
 24 17  1  0
M  END
>  <energy_score>  (3416) 
-29.756432

>  <inchikey>  (3416) 
PZGSJULHPWOIMC-UHFFFAOYSA-N

>  <smiles>  (3416) 
COC(=O)c1cc(C(F)(F)F)ncc1N(N)C1CCOC(C)(C)C1

>  <ref_pdb>  (3416) 
A0514a

>  <alias>  (3416) 
PZGSJULHPWOIMC-UHFFFAOYSA-N-P308-P15-P308-601502

>  <HIPPO Pose ID>  (3416) 
502623

>  <name>  (3416) 
PZGSJULHPWOIMC-UHFFFAOYSA-N-P308-P15-P308-601502

>  <HIPPO Compound ID>  (3416) 
293025

>  <ref_mols>  (3416) 
A4331a,A0514a

>  <distance_score>  (3416) 
1.484595

>  <inspiration_score>  (3416) 
None

$$$$
ZDFOBXZRFNDGGX-UHFFFAOYSA-N-P15-P15-P308-601502
     RDKit          3D

 24 25  0  0  0  0  0  0  0  0999 V2000
    9.6553    8.6783   23.4293 C   0  0  0  0  0  0  0  0  0  0  0  0
    8.6570    9.3218   24.2226 O   0  0  0  0  0  0  0  0  0  0  0  0
    8.6074   10.6571   23.9879 C   0  0  0  0  0  0  0  0  0  0  0  0
    9.2434   11.2279   23.1209 O   0  0  0  0  0  0  0  0  0  0  0  0
    7.6877   11.3214   24.9481 C   0  0  0  0  0  0  0  0  0  0  0  0
    6.7544   10.5726   25.6703 C   0  0  0  0  0  0  0  0  0  0  0  0
    5.9531   11.2321   26.5937 C   0  0  0  0  0  0  0  0  0  0  0  0
    5.0256   10.4795   27.5047 C   0  0  0  0  0  0  0  0  0  0  0  0
    3.9777   11.2502   27.9099 F   0  0  0  0  0  0  0  0  0  0  0  0
    4.4736    9.3773   26.9337 F   0  0  0  0  0  0  0  0  0  0  0  0
    5.6454   10.0489   28.6402 F   0  0  0  0  0  0  0  0  0  0  0  0
    6.0179   12.5718   26.7942 N   0  0  0  0  0  0  0  0  0  0  0  0
    6.8988   13.2697   26.0694 C   0  0  0  0  0  0  0  0  0  0  0  0
    7.7766   12.7072   25.1525 C   0  0  0  0  0  0  0  0  0  0  0  0
    8.7495   13.4954   24.5317 N   0  0  0  0  0  0  0  0  0  0  0  0
    9.7197   14.0141   25.4601 N   0  0  0  0  0  0  0  0  0  0  0  0
    8.2843   14.4328   23.4515 C   0  0  2  0  0  0  0  0  0  0  0  0
    6.9855   14.0934   22.7419 C   0  0  0  0  0  0  0  0  0  0  0  0
    9.3367   14.6897   22.4203 C   0  0  0  0  0  0  0  0  0  0  0  0
    9.2657   15.5751   21.3185 C   0  0  0  0  0  0  0  0  0  0  0  0
   10.4209   15.6690   20.6684 N   0  0  0  0  0  0  0  0  0  0  0  0
   11.2403   14.9027   21.3914 N   0  0  0  0  0  0  0  0  0  0  0  0
   12.6525   14.9941   21.2008 C   0  0  0  0  0  0  0  0  0  0  0  0
   10.6191   14.1933   22.3642 C   0  0  0  0  0  0  0  0  0  0  0  0
  1  2  1  0
  2  3  1  0
  3  4  2  0
  3  5  1  0
  5  6  2  0
  6  7  1  0
  7  8  1  0
  8  9  1  0
  8 10  1  0
  8 11  1  0
  7 12  2  0
 12 13  1  0
 13 14  2  0
 14 15  1  0
 15 16  1  0
 15 17  1  0
 17 18  1  6
 17 19  1  0
 19 20  1  0
 20 21  2  0
 21 22  1  0
 22 23  1  0
 22 24  1  0
 14  5  1  0
 24 19  2  0
M  END
>  <energy_score>  (3417) 
-24.378141

>  <inchikey>  (3417) 
ZDFOBXZRFNDGGX-UHFFFAOYSA-N

>  <smiles>  (3417) 
COC(=O)c1cc(C(F)(F)F)ncc1N(N)C(C)c1cnn(C)c1

>  <ref_pdb>  (3417) 
A0514a

>  <alias>  (3417) 
ZDFOBXZRFNDGGX-UHFFFAOYSA-N-P15-P15-P308-601502

>  <HIPPO Pose ID>  (3417) 
502626

>  <name>  (3417) 
ZDFOBXZRFNDGGX-UHFFFAOYSA-N-P15-P15-P308-601502

>  <HIPPO Compound ID>  (3417) 
293027

>  <ref_mols>  (3417) 
A4331a,A0514a

>  <distance_score>  (3417) 
1.151132

>  <inspiration_score>  (3417) 
None

$$$$
ZDFOBXZRFNDGGX-UHFFFAOYSA-N-P308-P15-P308-601502
     RDKit          3D

 24 25  0  0  0  0  0  0  0  0999 V2000
    9.3157    8.7165   23.8313 C   0  0  0  0  0  0  0  0  0  0  0  0
    8.4737    9.5368   24.6404 O   0  0  0  0  0  0  0  0  0  0  0  0
    8.4861   10.8359   24.2510 C   0  0  0  0  0  0  0  0  0  0  0  0
    9.1126   11.2684   23.3017 O   0  0  0  0  0  0  0  0  0  0  0  0
    7.6185   11.6345   25.1566 C   0  0  0  0  0  0  0  0  0  0  0  0
    6.5565   11.0227   25.8292 C   0  0  0  0  0  0  0  0  0  0  0  0
    5.7528   11.8038   26.6590 C   0  0  0  0  0  0  0  0  0  0  0  0
    4.6609   11.1933   27.4908 C   0  0  0  0  0  0  0  0  0  0  0  0
    4.4725    9.8873   27.1977 F   0  0  0  0  0  0  0  0  0  0  0  0
    3.4431   11.7829   27.3310 F   0  0  0  0  0  0  0  0  0  0  0  0
    4.9285   11.2291   28.8272 F   0  0  0  0  0  0  0  0  0  0  0  0
    5.9504   13.1315   26.8246 N   0  0  0  0  0  0  0  0  0  0  0  0
    6.9577   13.6972   26.1515 C   0  0  0  0  0  0  0  0  0  0  0  0
    7.8372   13.0094   25.3210 C   0  0  0  0  0  0  0  0  0  0  0  0
    8.8836   13.6965   24.6697 N   0  0  0  0  0  0  0  0  0  0  0  0
    9.8343   14.2790   25.5800 N   0  0  0  0  0  0  0  0  0  0  0  0
    8.3624   14.6039   23.5676 C   0  0  2  0  0  0  0  0  0  0  0  0
    7.3015   13.9129   22.6898 C   0  0  0  0  0  0  0  0  0  0  0  0
    9.4062   15.1889   22.6715 C   0  0  0  0  0  0  0  0  0  0  0  0
    9.1948   16.0843   21.5977 C   0  0  0  0  0  0  0  0  0  0  0  0
   10.3166   16.3726   20.9443 N   0  0  0  0  0  0  0  0  0  0  0  0
   11.2583   15.7695   21.6782 N   0  0  0  0  0  0  0  0  0  0  0  0
   12.6344   16.0080   21.3739 C   0  0  0  0  0  0  0  0  0  0  0  0
   10.7702   14.9981   22.6800 C   0  0  0  0  0  0  0  0  0  0  0  0
  1  2  1  0
  2  3  1  0
  3  4  2  0
  3  5  1  0
  5  6  2  0
  6  7  1  0
  7  8  1  0
  8  9  1  0
  8 10  1  0
  8 11  1  0
  7 12  2  0
 12 13  1  0
 13 14  2  0
 14 15  1  0
 15 16  1  0
 15 17  1  0
 17 18  1  6
 17 19  1  0
 19 20  1  0
 20 21  2  0
 21 22  1  0
 22 23  1  0
 22 24  1  0
 14  5  1  0
 24 19  2  0
M  END
>  <energy_score>  (3418) 
-28.419866

>  <inchikey>  (3418) 
ZDFOBXZRFNDGGX-UHFFFAOYSA-N

>  <smiles>  (3418) 
COC(=O)c1cc(C(F)(F)F)ncc1N(N)C(C)c1cnn(C)c1

>  <ref_pdb>  (3418) 
A0514a

>  <alias>  (3418) 
ZDFOBXZRFNDGGX-UHFFFAOYSA-N-P308-P15-P308-601502

>  <HIPPO Pose ID>  (3418) 
502627

>  <name>  (3418) 
ZDFOBXZRFNDGGX-UHFFFAOYSA-N-P308-P15-P308-601502

>  <HIPPO Compound ID>  (3418) 
293027

>  <ref_mols>  (3418) 
A4331a,A0514a

>  <distance_score>  (3418) 
1.322396

>  <inspiration_score>  (3418) 
None

$$$$
LXOBGXXVFGVSLM-UHFFFAOYSA-N-P15-P15-P308-601502
     RDKit          3D

 24 25  0  0  0  0  0  0  0  0999 V2000
    9.2684    8.7248   23.0442 C   0  0  0  0  0  0  0  0  0  0  0  0
    8.3433    9.5574   23.7508 O   0  0  0  0  0  0  0  0  0  0  0  0
    8.7879   10.8243   23.9215 C   0  0  0  0  0  0  0  0  0  0  0  0
    9.8908   11.2290   23.6082 O   0  0  0  0  0  0  0  0  0  0  0  0
    7.7847   11.6388   24.6429 C   0  0  0  0  0  0  0  0  0  0  0  0
    7.0647   11.0163   25.6595 C   0  0  0  0  0  0  0  0  0  0  0  0
    6.1986   11.7726   26.4395 C   0  0  0  0  0  0  0  0  0  0  0  0
    5.3588   11.0966   27.4919 C   0  0  0  0  0  0  0  0  0  0  0  0
    4.2703   11.8252   27.8564 F   0  0  0  0  0  0  0  0  0  0  0  0
    6.0514   10.8452   28.6397 F   0  0  0  0  0  0  0  0  0  0  0  0
    4.8757    9.8892   27.0858 F   0  0  0  0  0  0  0  0  0  0  0  0
    6.0683   13.1078   26.2910 N   0  0  0  0  0  0  0  0  0  0  0  0
    6.6946   13.6605   25.2444 C   0  0  0  0  0  0  0  0  0  0  0  0
    7.5594   12.9952   24.3811 C   0  0  0  0  0  0  0  0  0  0  0  0
    8.0533   13.7170   23.2800 N   0  0  0  0  0  0  0  0  0  0  0  0
    7.1686   13.7986   22.2041 N   0  0  0  0  0  0  0  0  0  0  0  0
    9.3981   14.0669   23.0032 C   0  0  0  0  0  0  0  0  0  0  0  0
   10.3349   13.9167   23.9909 C   0  0  0  0  0  0  0  0  0  0  0  0
   11.6391   13.9984   23.6013 C   0  0  0  0  0  0  0  0  0  0  0  0
   12.6363   13.4095   24.5399 C   0  0  0  0  0  0  0  0  0  0  0  0
   12.0136   14.4116   22.3806 N   0  0  0  0  0  0  0  0  0  0  0  0
   11.0224   14.6528   21.4961 C   0  0  0  0  0  0  0  0  0  0  0  0
   11.3883   15.0523   20.1036 C   0  0  0  0  0  0  0  0  0  0  0  0
    9.7160   14.4965   21.7650 N   0  0  0  0  0  0  0  0  0  0  0  0
  1  2  1  0
  2  3  1  0
  3  4  2  0
  3  5  1  0
  5  6  2  0
  6  7  1  0
  7  8  1  0
  8  9  1  0
  8 10  1  0
  8 11  1  0
  7 12  2  0
 12 13  1  0
 13 14  2  0
 14 15  1  0
 15 16  1  0
 15 17  1  0
 17 18  2  0
 18 19  1  0
 19 20  1  0
 19 21  2  0
 21 22  1  0
 22 23  1  0
 22 24  2  0
 14  5  1  0
 24 17  1  0
M  END
>  <energy_score>  (3419) 
-42.381877

>  <inchikey>  (3419) 
LXOBGXXVFGVSLM-UHFFFAOYSA-N

>  <smiles>  (3419) 
COC(=O)c1cc(C(F)(F)F)ncc1N(N)c1cc(C)nc(C)n1

>  <ref_pdb>  (3419) 
A0514a

>  <alias>  (3419) 
LXOBGXXVFGVSLM-UHFFFAOYSA-N-P15-P15-P308-601502

>  <HIPPO Pose ID>  (3419) 
502630

>  <name>  (3419) 
LXOBGXXVFGVSLM-UHFFFAOYSA-N-P15-P15-P308-601502

>  <HIPPO Compound ID>  (3419) 
293029

>  <ref_mols>  (3419) 
A4331a,A0514a

>  <distance_score>  (3419) 
1.776408

>  <inspiration_score>  (3419) 
None

$$$$
LXOBGXXVFGVSLM-UHFFFAOYSA-N-P308-P15-P308-601502
     RDKit          3D

 24 25  0  0  0  0  0  0  0  0999 V2000
    9.3980    8.9095   23.2498 C   0  0  0  0  0  0  0  0  0  0  0  0
    8.4417    9.8336   23.7673 O   0  0  0  0  0  0  0  0  0  0  0  0
    8.9806   10.9404   24.3225 C   0  0  0  0  0  0  0  0  0  0  0  0
   10.1621   11.1863   24.4962 O   0  0  0  0  0  0  0  0  0  0  0  0
    7.8829   11.7958   24.7976 C   0  0  0  0  0  0  0  0  0  0  0  0
    7.0861   11.2801   25.8145 C   0  0  0  0  0  0  0  0  0  0  0  0
    6.0962   12.0825   26.3680 C   0  0  0  0  0  0  0  0  0  0  0  0
    5.1595   11.5380   27.4140 C   0  0  0  0  0  0  0  0  0  0  0  0
    3.8769   11.9554   27.2540 F   0  0  0  0  0  0  0  0  0  0  0  0
    5.1016   10.1743   27.4214 F   0  0  0  0  0  0  0  0  0  0  0  0
    5.5122   11.8957   28.6817 F   0  0  0  0  0  0  0  0  0  0  0  0
    5.9245   13.3672   25.9968 N   0  0  0  0  0  0  0  0  0  0  0  0
    6.6351   13.7916   24.9431 C   0  0  0  0  0  0  0  0  0  0  0  0
    7.6186   13.0624   24.2845 C   0  0  0  0  0  0  0  0  0  0  0  0
    8.1819   13.5718   23.1050 N   0  0  0  0  0  0  0  0  0  0  0  0
    7.2560   13.8659   22.0943 N   0  0  0  0  0  0  0  0  0  0  0  0
    9.4684   14.1337   22.9167 C   0  0  0  0  0  0  0  0  0  0  0  0
   10.3811   14.1332   23.9363 C   0  0  0  0  0  0  0  0  0  0  0  0
   11.6579   14.4989   23.6111 C   0  0  0  0  0  0  0  0  0  0  0  0
   12.7081   14.2454   24.6417 C   0  0  0  0  0  0  0  0  0  0  0  0
   12.0048   14.9390   22.3867 N   0  0  0  0  0  0  0  0  0  0  0  0
   11.0275   14.9881   21.4606 C   0  0  0  0  0  0  0  0  0  0  0  0
   11.3502   15.4646   20.0783 C   0  0  0  0  0  0  0  0  0  0  0  0
    9.7615   14.6115   21.6877 N   0  0  0  0  0  0  0  0  0  0  0  0
  1  2  1  0
  2  3  1  0
  3  4  2  0
  3  5  1  0
  5  6  2  0
  6  7  1  0
  7  8  1  0
  8  9  1  0
  8 10  1  0
  8 11  1  0
  7 12  2  0
 12 13  1  0
 13 14  2  0
 14 15  1  0
 15 16  1  0
 15 17  1  0
 17 18  2  0
 18 19  1  0
 19 20  1  0
 19 21  2  0
 21 22  1  0
 22 23  1  0
 22 24  2  0
 14  5  1  0
 24 17  1  0
M  END
>  <energy_score>  (3420) 
-47.446837

>  <inchikey>  (3420) 
LXOBGXXVFGVSLM-UHFFFAOYSA-N

>  <smiles>  (3420) 
COC(=O)c1cc(C(F)(F)F)ncc1N(N)c1cc(C)nc(C)n1

>  <ref_pdb>  (3420) 
A0514a

>  <alias>  (3420) 
LXOBGXXVFGVSLM-UHFFFAOYSA-N-P308-P15-P308-601502

>  <HIPPO Pose ID>  (3420) 
502631

>  <name>  (3420) 
LXOBGXXVFGVSLM-UHFFFAOYSA-N-P308-P15-P308-601502

>  <HIPPO Compound ID>  (3420) 
293029

>  <ref_mols>  (3420) 
A4331a,A0514a

>  <distance_score>  (3420) 
1.756676

>  <inspiration_score>  (3420) 
None

$$$$
RQAVNVCXCRHQMF-UHFFFAOYSA-N-P15-P15-P308-601502
     RDKit          3D

 24 24  0  0  0  0  0  0  0  0999 V2000
    9.3098    8.5861   23.2710 C   0  0  0  0  0  0  0  0  0  0  0  0
    8.5490    9.3365   24.2249 O   0  0  0  0  0  0  0  0  0  0  0  0
    8.5628   10.6712   24.0141 C   0  0  0  0  0  0  0  0  0  0  0  0
    9.1075   11.2327   23.0788 O   0  0  0  0  0  0  0  0  0  0  0  0
    7.8392   11.3883   25.0899 C   0  0  0  0  0  0  0  0  0  0  0  0
    6.8138   10.7542   25.7971 C   0  0  0  0  0  0  0  0  0  0  0  0
    6.1396   11.4804   26.7793 C   0  0  0  0  0  0  0  0  0  0  0  0
    5.1797   10.8080   27.7165 C   0  0  0  0  0  0  0  0  0  0  0  0
    4.4201    9.8785   27.1045 F   0  0  0  0  0  0  0  0  0  0  0  0
    4.2933   11.6543   28.3167 F   0  0  0  0  0  0  0  0  0  0  0  0
    5.8197   10.1629   28.7357 F   0  0  0  0  0  0  0  0  0  0  0  0
    6.4035   12.7825   27.0401 N   0  0  0  0  0  0  0  0  0  0  0  0
    7.3682   13.3694   26.3267 C   0  0  0  0  0  0  0  0  0  0  0  0
    8.1488   12.7276   25.3692 C   0  0  0  0  0  0  0  0  0  0  0  0
    9.1715   13.4771   24.7755 N   0  0  0  0  0  0  0  0  0  0  0  0
   10.4703   12.9241   24.8200 N   0  0  0  0  0  0  0  0  0  0  0  0
    8.7456   14.4678   23.7309 C   0  0  2  0  0  0  0  0  0  0  0  0
    7.3204   14.2298   23.2190 C   0  0  0  0  0  0  0  0  0  0  0  0
    9.8919   14.6081   22.6719 C   0  0  0  0  0  0  0  0  0  0  0  0
    9.8077   15.2788   21.2841 C   0  0  0  0  0  0  0  0  0  0  0  0
    9.8406   16.7724   20.9616 C   0  0  0  0  0  0  0  0  0  0  0  0
    8.5191   14.8457   20.6841 C   0  0  0  0  0  0  0  0  0  0  0  0
   10.8596   14.7164   20.4719 O   0  0  0  0  0  0  0  0  0  0  0  0
   12.1782   14.8195   20.9874 C   0  0  0  0  0  0  0  0  0  0  0  0
  1  2  1  0
  2  3  1  0
  3  4  2  0
  3  5  1  0
  5  6  2  0
  6  7  1  0
  7  8  1  0
  8  9  1  0
  8 10  1  0
  8 11  1  0
  7 12  2  0
 12 13  1  0
 13 14  2  0
 14 15  1  0
 15 16  1  0
 15 17  1  0
 17 18  1  6
 17 19  1  0
 19 20  1  0
 20 21  1  0
 20 22  1  0
 20 23  1  0
 23 24  1  0
 14  5  1  0
M  END
>  <energy_score>  (3421) 
-33.420748

>  <inchikey>  (3421) 
RQAVNVCXCRHQMF-UHFFFAOYSA-N

>  <smiles>  (3421) 
COC(=O)c1cc(C(F)(F)F)ncc1N(N)C(C)CC(C)(C)OC

>  <ref_pdb>  (3421) 
A0514a

>  <alias>  (3421) 
RQAVNVCXCRHQMF-UHFFFAOYSA-N-P15-P15-P308-601502

>  <HIPPO Pose ID>  (3421) 
502640

>  <name>  (3421) 
RQAVNVCXCRHQMF-UHFFFAOYSA-N-P15-P15-P308-601502

>  <HIPPO Compound ID>  (3421) 
293034

>  <ref_mols>  (3421) 
A4331a,A0514a

>  <distance_score>  (3421) 
1.185112

>  <inspiration_score>  (3421) 
None

$$$$
RQAVNVCXCRHQMF-UHFFFAOYSA-N-P308-P15-P308-601502
     RDKit          3D

 24 24  0  0  0  0  0  0  0  0999 V2000
    9.3304    8.6578   23.1748 C   0  0  0  0  0  0  0  0  0  0  0  0
    8.4668    9.5570   23.8664 O   0  0  0  0  0  0  0  0  0  0  0  0
    9.1265   10.5264   24.5389 C   0  0  0  0  0  0  0  0  0  0  0  0
   10.3358   10.6395   24.6739 O   0  0  0  0  0  0  0  0  0  0  0  0
    8.1238   11.4656   25.0910 C   0  0  0  0  0  0  0  0  0  0  0  0
    6.9735   10.9872   25.7225 C   0  0  0  0  0  0  0  0  0  0  0  0
    6.1372   11.9107   26.3490 C   0  0  0  0  0  0  0  0  0  0  0  0
    4.9498   11.4829   27.1632 C   0  0  0  0  0  0  0  0  0  0  0  0
    4.7049   10.1551   27.0816 F   0  0  0  0  0  0  0  0  0  0  0  0
    5.1104   11.7295   28.4973 F   0  0  0  0  0  0  0  0  0  0  0  0
    3.7826   12.0934   26.8117 F   0  0  0  0  0  0  0  0  0  0  0  0
    6.4018   13.2408   26.3615 N   0  0  0  0  0  0  0  0  0  0  0  0
    7.4892   13.6677   25.7062 C   0  0  0  0  0  0  0  0  0  0  0  0
    8.3677   12.8394   25.0223 C   0  0  0  0  0  0  0  0  0  0  0  0
    9.4348   13.3631   24.2777 N   0  0  0  0  0  0  0  0  0  0  0  0
   10.5517   13.6632   25.1271 N   0  0  0  0  0  0  0  0  0  0  0  0
    9.0656   14.3759   23.2303 C   0  0  2  0  0  0  0  0  0  0  0  0
    7.7075   14.0918   22.5710 C   0  0  0  0  0  0  0  0  0  0  0  0
   10.1675   14.3395   22.1504 C   0  0  0  0  0  0  0  0  0  0  0  0
   10.3274   15.5611   21.2187 C   0  0  0  0  0  0  0  0  0  0  0  0
    9.7735   16.8576   21.7879 C   0  0  0  0  0  0  0  0  0  0  0  0
    9.7029   15.3592   19.8584 C   0  0  0  0  0  0  0  0  0  0  0  0
   11.7089   15.6511   20.8481 O   0  0  0  0  0  0  0  0  0  0  0  0
   12.5661   16.2803   21.7631 C   0  0  0  0  0  0  0  0  0  0  0  0
  1  2  1  0
  2  3  1  0
  3  4  2  0
  3  5  1  0
  5  6  2  0
  6  7  1  0
  7  8  1  0
  8  9  1  0
  8 10  1  0
  8 11  1  0
  7 12  2  0
 12 13  1  0
 13 14  2  0
 14 15  1  0
 15 16  1  0
 15 17  1  0
 17 18  1  6
 17 19  1  0
 19 20  1  0
 20 21  1  0
 20 22  1  0
 20 23  1  0
 23 24  1  0
 14  5  1  0
M  END
>  <energy_score>  (3422) 
-60.937648

>  <inchikey>  (3422) 
RQAVNVCXCRHQMF-UHFFFAOYSA-N

>  <smiles>  (3422) 
COC(=O)c1cc(C(F)(F)F)ncc1N(N)C(C)CC(C)(C)OC

>  <ref_pdb>  (3422) 
A0514a

>  <alias>  (3422) 
RQAVNVCXCRHQMF-UHFFFAOYSA-N-P308-P15-P308-601502

>  <HIPPO Pose ID>  (3422) 
502641

>  <name>  (3422) 
RQAVNVCXCRHQMF-UHFFFAOYSA-N-P308-P15-P308-601502

>  <HIPPO Compound ID>  (3422) 
293034

>  <ref_mols>  (3422) 
A4331a,A0514a

>  <distance_score>  (3422) 
1.383657

>  <inspiration_score>  (3422) 
None

$$$$
UBWWLADUEWUJAW-UHFFFAOYSA-N-P308-P15-P308-601502
     RDKit          3D

 24 25  0  0  0  0  0  0  0  0999 V2000
    9.2768    8.3552   22.9975 C   0  0  0  0  0  0  0  0  0  0  0  0
    8.4577    9.1729   23.8182 O   0  0  0  0  0  0  0  0  0  0  0  0
    9.1711   10.0086   24.6068 C   0  0  0  0  0  0  0  0  0  0  0  0
   10.3700    9.9556   24.8185 O   0  0  0  0  0  0  0  0  0  0  0  0
    8.2228   11.0484   25.0705 C   0  0  0  0  0  0  0  0  0  0  0  0
    6.9427   10.6905   25.4557 C   0  0  0  0  0  0  0  0  0  0  0  0
    6.1015   11.6965   25.9153 C   0  0  0  0  0  0  0  0  0  0  0  0
    5.0359   11.3365   26.8859 C   0  0  0  0  0  0  0  0  0  0  0  0
    4.7690   10.0042   26.8884 F   0  0  0  0  0  0  0  0  0  0  0  0
    5.4682   11.6359   28.1380 F   0  0  0  0  0  0  0  0  0  0  0  0
    3.8608   11.9896   26.7346 F   0  0  0  0  0  0  0  0  0  0  0  0
    6.3846   13.0102   25.8340 N   0  0  0  0  0  0  0  0  0  0  0  0
    7.6235   13.3137   25.4670 C   0  0  0  0  0  0  0  0  0  0  0  0
    8.6106   12.3816   25.1753 C   0  0  0  0  0  0  0  0  0  0  0  0
    9.9359   12.7927   25.0197 N   0  0  0  0  0  0  0  0  0  0  0  0
   10.4145   13.8226   25.8661 N   0  0  0  0  0  0  0  0  0  0  0  0
   10.3397   12.8125   23.6085 C   0  0  0  0  0  0  0  0  0  0  0  0
    9.5676   13.7882   22.7077 C   0  0  0  0  0  0  0  0  0  0  0  0
    9.7112   15.2312   22.9723 N   0  0  0  0  0  0  0  0  0  0  0  0
   11.0974   15.6467   23.2384 C   0  0  0  0  0  0  0  0  0  0  0  0
   12.0413   15.4204   22.0720 C   0  0  0  0  0  0  0  0  0  0  0  0
   11.5495   16.1830   20.8678 C   0  0  0  0  0  0  0  0  0  0  0  0
   10.0938   15.8879   20.5530 C   0  0  0  0  0  0  0  0  0  0  0  0
    9.2034   15.9864   21.8004 C   0  0  0  0  0  0  0  0  0  0  0  0
  1  2  1  0
  2  3  1  0
  3  4  2  0
  3  5  1  0
  5  6  2  0
  6  7  1  0
  7  8  1  0
  8  9  1  0
  8 10  1  0
  8 11  1  0
  7 12  2  0
 12 13  1  0
 13 14  2  0
 14 15  1  0
 15 16  1  0
 15 17  1  0
 17 18  1  0
 18 19  1  0
 19 20  1  0
 20 21  1  0
 21 22  1  0
 22 23  1  0
 23 24  1  0
 14  5  1  0
 24 19  1  0
M  END
>  <energy_score>  (3423) 
-27.155701

>  <inchikey>  (3423) 
UBWWLADUEWUJAW-UHFFFAOYSA-N

>  <smiles>  (3423) 
COC(=O)c1cc(C(F)(F)F)ncc1N(N)CCN1CCCCC1

>  <ref_pdb>  (3423) 
A0514a

>  <alias>  (3423) 
UBWWLADUEWUJAW-UHFFFAOYSA-N-P308-P15-P308-601502

>  <HIPPO Pose ID>  (3423) 
502645

>  <name>  (3423) 
UBWWLADUEWUJAW-UHFFFAOYSA-N-P308-P15-P308-601502

>  <HIPPO Compound ID>  (3423) 
293036

>  <ref_mols>  (3423) 
A4331a,A0514a

>  <distance_score>  (3423) 
1.848539

>  <inspiration_score>  (3423) 
None

$$$$
OIJKRHOUTWPBCN-UHFFFAOYSA-N-P308-P15-P308-601502
     RDKit          3D

 24 27  0  0  0  0  0  0  0  0999 V2000
    9.5719    8.8789   23.5265 C   0  0  0  0  0  0  0  0  0  0  0  0
    8.7409    9.7902   24.2503 O   0  0  0  0  0  0  0  0  0  0  0  0
    8.7953   11.0800   23.8305 C   0  0  0  0  0  0  0  0  0  0  0  0
    9.4874   11.4854   22.9176 O   0  0  0  0  0  0  0  0  0  0  0  0
    7.8996   11.9270   24.6617 C   0  0  0  0  0  0  0  0  0  0  0  0
    7.0828   11.3073   25.6217 C   0  0  0  0  0  0  0  0  0  0  0  0
    6.2318   12.0625   26.4200 C   0  0  0  0  0  0  0  0  0  0  0  0
    5.2500   11.4336   27.3712 C   0  0  0  0  0  0  0  0  0  0  0  0
    3.9110   12.0952   27.6074 C   0  0  0  0  0  0  0  0  0  0  0  0
    4.9600   12.1496   28.6747 C   0  0  0  0  0  0  0  0  0  0  0  0
    6.2563   13.4025   26.3736 N   0  0  0  0  0  0  0  0  0  0  0  0
    6.9874   13.9699   25.4077 C   0  0  0  0  0  0  0  0  0  0  0  0
    7.7842   13.3075   24.4758 C   0  0  0  0  0  0  0  0  0  0  0  0
    8.2675   14.0314   23.3525 N   0  0  0  0  0  0  0  0  0  0  0  0
    7.3461   15.0166   22.9292 N   0  0  0  0  0  0  0  0  0  0  0  0
    9.6383   14.3559   23.1355 C   0  0  0  0  0  0  0  0  0  0  0  0
   10.5227   14.2734   24.1653 N   0  0  0  0  0  0  0  0  0  0  0  0
   11.7969   14.6026   23.9343 C   0  0  0  0  0  0  0  0  0  0  0  0
   12.3457   14.9993   22.7918 N   0  0  0  0  0  0  0  0  0  0  0  0
   11.4612   15.0621   21.7877 C   0  0  0  0  0  0  0  0  0  0  0  0
   11.9565   15.4689   20.2192 S   0  0  0  0  0  0  0  0  0  0  0  0
   10.3696   15.4526   19.6258 C   0  0  0  0  0  0  0  0  0  0  0  0
    9.4823   15.0822   20.6141 C   0  0  0  0  0  0  0  0  0  0  0  0
   10.1086   14.8097   21.8779 C   0  0  0  0  0  0  0  0  0  0  0  0
  1  2  1  0
  2  3  1  0
  3  4  2  0
  3  5  1  0
  5  6  2  0
  6  7  1  0
  7  8  1  0
  8  9  1  0
  9 10  1  0
  7 11  2  0
 11 12  1  0
 12 13  2  0
 13 14  1  0
 14 15  1  0
 14 16  1  0
 16 17  2  0
 17 18  1  0
 18 19  2  0
 19 20  1  0
 20 21  1  0
 21 22  1  0
 22 23  2  0
 23 24  1  0
 13  5  1  0
 24 16  1  0
 10  8  1  0
 24 20  2  0
M  END
>  <energy_score>  (3424) 
-63.401336

>  <inchikey>  (3424) 
OIJKRHOUTWPBCN-UHFFFAOYSA-N

>  <smiles>  (3424) 
COC(=O)c1cc(C2CC2)ncc1N(N)c1ncnc2sccc12

>  <ref_pdb>  (3424) 
A0514a

>  <alias>  (3424) 
OIJKRHOUTWPBCN-UHFFFAOYSA-N-P308-P15-P308-601502

>  <HIPPO Pose ID>  (3424) 
502651

>  <name>  (3424) 
OIJKRHOUTWPBCN-UHFFFAOYSA-N-P308-P15-P308-601502

>  <HIPPO Compound ID>  (3424) 
293039

>  <ref_mols>  (3424) 
A4331a,A0514a

>  <distance_score>  (3424) 
1.974954

>  <inspiration_score>  (3424) 
None

$$$$
UDXQFCDMJYTGNA-UHFFFAOYSA-N-P15-P15-P308-601502
     RDKit          3D

 24 27  0  0  0  0  0  0  0  0999 V2000
    5.4641   15.2524   23.5584 C   0  0  0  0  0  0  0  0  0  0  0  0
    6.8833   15.2325   23.4194 O   0  0  0  0  0  0  0  0  0  0  0  0
    7.3377   14.2487   22.6148 C   0  0  0  0  0  0  0  0  0  0  0  0
    6.7150   13.3681   22.0509 O   0  0  0  0  0  0  0  0  0  0  0  0
    8.7658   14.4260   22.3940 C   0  0  0  0  0  0  0  0  0  0  0  0
    9.0078   15.3581   21.3961 C   0  0  0  0  0  0  0  0  0  0  0  0
   10.2294   15.3452   20.7726 C   0  0  0  0  0  0  0  0  0  0  0  0
   10.2072   15.5930   19.2893 C   0  0  0  0  0  0  0  0  0  0  0  0
   11.5129   15.4670   18.5947 C   0  0  0  0  0  0  0  0  0  0  0  0
   10.6642   16.7292   18.4763 C   0  0  0  0  0  0  0  0  0  0  0  0
   11.2832   14.7230   21.3634 N   0  0  0  0  0  0  0  0  0  0  0  0
   11.0341   13.8500   22.3682 C   0  0  0  0  0  0  0  0  0  0  0  0
    9.7688   13.5709   22.8682 C   0  0  0  0  0  0  0  0  0  0  0  0
    9.5423   12.4483   23.7376 N   0  0  0  0  0  0  0  0  0  0  0  0
    9.7270   11.1886   23.1272 N   0  0  0  0  0  0  0  0  0  0  0  0
    8.5578   12.5080   24.7787 C   0  0  0  0  0  0  0  0  0  0  0  0
    8.4966   13.7174   25.4927 C   0  0  0  0  0  0  0  0  0  0  0  0
    7.4994   14.0058   26.4096 C   0  0  0  0  0  0  0  0  0  0  0  0
    6.5856   12.9969   26.6449 C   0  0  0  0  0  0  0  0  0  0  0  0
    5.4789   12.9815   27.4403 N   0  0  0  0  0  0  0  0  0  0  0  0
    4.8653   11.7919   27.4887 N   0  0  0  0  0  0  0  0  0  0  0  0
    5.5760   11.0443   26.6389 C   0  0  0  0  0  0  0  0  0  0  0  0
    6.6476   11.7453   26.0493 C   0  0  0  0  0  0  0  0  0  0  0  0
    7.6499   11.4785   25.0958 C   0  0  0  0  0  0  0  0  0  0  0  0
  1  2  1  0
  2  3  1  0
  3  4  2  0
  3  5  1  0
  5  6  2  0
  6  7  1  0
  7  8  1  0
  8  9  1  0
  9 10  1  0
  7 11  2  0
 11 12  1  0
 12 13  2  0
 13 14  1  0
 14 15  1  0
 14 16  1  0
 16 17  2  0
 17 18  1  0
 18 19  2  0
 19 20  1  0
 20 21  1  0
 21 22  2  0
 22 23  1  0
 23 24  2  0
 13  5  1  0
 24 16  1  0
 10  8  1  0
 23 19  1  0
M  END
>  <energy_score>  (3425) 
-5.722625

>  <inchikey>  (3425) 
UDXQFCDMJYTGNA-UHFFFAOYSA-N

>  <smiles>  (3425) 
COC(=O)c1cc(C2CC2)ncc1N(N)c1ccc2[nH]ncc2c1

>  <ref_pdb>  (3425) 
A0514a

>  <alias>  (3425) 
UDXQFCDMJYTGNA-UHFFFAOYSA-N-P15-P15-P308-601502

>  <HIPPO Pose ID>  (3425) 
502658

>  <name>  (3425) 
UDXQFCDMJYTGNA-UHFFFAOYSA-N-P15-P15-P308-601502

>  <HIPPO Compound ID>  (3425) 
293043

>  <ref_mols>  (3425) 
A4331a,A0514a

>  <distance_score>  (3425) 
1.993038

>  <inspiration_score>  (3425) 
None

$$$$
DTFKMXBTEVCXAO-UHFFFAOYSA-N-P15-P15-P308-601502
     RDKit          3D

 24 26  0  0  0  0  0  0  0  0999 V2000
    9.2012    8.5333   23.0775 C   0  0  0  0  0  0  0  0  0  0  0  0
    8.4272    9.3585   23.9568 O   0  0  0  0  0  0  0  0  0  0  0  0
    8.8469   10.6430   23.9901 C   0  0  0  0  0  0  0  0  0  0  0  0
    9.7984   11.0758   23.3629 O   0  0  0  0  0  0  0  0  0  0  0  0
    8.0187   11.4720   24.9094 C   0  0  0  0  0  0  0  0  0  0  0  0
    7.0338   10.9030   25.7275 C   0  0  0  0  0  0  0  0  0  0  0  0
    6.3968   11.7151   26.6645 C   0  0  0  0  0  0  0  0  0  0  0  0
    5.5874   11.2186   27.8181 C   0  0  0  0  0  0  0  0  0  0  0  0
    4.5437   10.1606   27.7462 C   0  0  0  0  0  0  0  0  0  0  0  0
    4.1312   11.6071   27.8282 C   0  0  0  0  0  0  0  0  0  0  0  0
    6.6070   13.0469   26.7072 N   0  0  0  0  0  0  0  0  0  0  0  0
    7.5170   13.5837   25.8900 C   0  0  0  0  0  0  0  0  0  0  0  0
    8.3098   12.8412   25.0316 C   0  0  0  0  0  0  0  0  0  0  0  0
    9.4016   13.4507   24.3680 N   0  0  0  0  0  0  0  0  0  0  0  0
   10.2912   14.1986   25.1872 N   0  0  0  0  0  0  0  0  0  0  0  0
    9.2309   14.0319   23.1281 C   0  0  0  0  0  0  0  0  0  0  0  0
    7.6925   14.2667   22.3943 S   0  0  0  0  0  0  0  0  0  0  0  0
    8.2522   14.9198   21.0128 N   0  0  0  0  0  0  0  0  0  0  0  0
    9.5664   15.0766   21.0799 C   0  0  0  0  0  0  0  0  0  0  0  0
   10.2932   16.0526   19.8416 S   0  0  0  0  0  0  0  0  0  0  0  0
   11.5359   15.0339   19.0753 C   0  0  0  0  0  0  0  0  0  0  0  0
   10.1752   14.5315   22.2277 C   0  0  0  0  0  0  0  0  0  0  0  0
   11.5445   14.5181   22.5522 C   0  0  0  0  0  0  0  0  0  0  0  0
   12.5632   14.4149   23.0897 N   0  0  0  0  0  0  0  0  0  0  0  0
  1  2  1  0
  2  3  1  0
  3  4  2  0
  3  5  1  0
  5  6  2  0
  6  7  1  0
  7  8  1  0
  8  9  1  0
  9 10  1  0
  7 11  2  0
 11 12  1  0
 12 13  2  0
 13 14  1  0
 14 15  1  0
 14 16  1  0
 16 17  1  0
 17 18  1  0
 18 19  2  0
 19 20  1  0
 20 21  1  0
 19 22  1  0
 22 23  1  0
 23 24  3  0
 13  5  1  0
 22 16  2  0
 10  8  1  0
M  END
>  <energy_score>  (3426) 
-66.292178

>  <inchikey>  (3426) 
DTFKMXBTEVCXAO-UHFFFAOYSA-N

>  <smiles>  (3426) 
COC(=O)c1cc(C2CC2)ncc1N(N)c1snc(SC)c1C#N

>  <ref_pdb>  (3426) 
A0514a

>  <alias>  (3426) 
DTFKMXBTEVCXAO-UHFFFAOYSA-N-P15-P15-P308-601502

>  <HIPPO Pose ID>  (3426) 
502672

>  <name>  (3426) 
DTFKMXBTEVCXAO-UHFFFAOYSA-N-P15-P15-P308-601502

>  <HIPPO Compound ID>  (3426) 
293050

>  <ref_mols>  (3426) 
A4331a,A0514a

>  <distance_score>  (3426) 
1.79209

>  <inspiration_score>  (3426) 
None

$$$$
DTFKMXBTEVCXAO-UHFFFAOYSA-N-P308-P15-P308-601502
     RDKit          3D

 24 26  0  0  0  0  0  0  0  0999 V2000
    9.0306    9.8378   24.5227 C   0  0  0  0  0  0  0  0  0  0  0  0
    8.3445   10.5585   23.4937 O   0  0  0  0  0  0  0  0  0  0  0  0
    7.7014   11.7329   23.6934 C   0  0  0  0  0  0  0  0  0  0  0  0
    7.2669   12.4467   22.7937 O   0  0  0  0  0  0  0  0  0  0  0  0
    7.4614   12.1784   25.0296 C   0  0  0  0  0  0  0  0  0  0  0  0
    6.5140   11.3945   25.7110 C   0  0  0  0  0  0  0  0  0  0  0  0
    5.9069   11.9283   26.8182 C   0  0  0  0  0  0  0  0  0  0  0  0
    4.8050   11.2359   27.5554 C   0  0  0  0  0  0  0  0  0  0  0  0
    3.4933   11.9663   27.7333 C   0  0  0  0  0  0  0  0  0  0  0  0
    4.3959   11.7699   28.9111 C   0  0  0  0  0  0  0  0  0  0  0  0
    6.2753   13.1435   27.2594 N   0  0  0  0  0  0  0  0  0  0  0  0
    7.1935   13.8563   26.5697 C   0  0  0  0  0  0  0  0  0  0  0  0
    7.8574   13.4534   25.4161 C   0  0  0  0  0  0  0  0  0  0  0  0
    8.7567   14.3666   24.7940 N   0  0  0  0  0  0  0  0  0  0  0  0
    8.3805   15.7263   25.0403 N   0  0  0  0  0  0  0  0  0  0  0  0
    9.5941   14.2955   23.6944 C   0  0  0  0  0  0  0  0  0  0  0  0
   10.0766   12.9868   22.7057 S   0  0  0  0  0  0  0  0  0  0  0  0
   10.3630   13.9130   21.3749 N   0  0  0  0  0  0  0  0  0  0  0  0
   10.7597   15.0806   21.8329 C   0  0  0  0  0  0  0  0  0  0  0  0
   11.5704   16.1722   20.7708 S   0  0  0  0  0  0  0  0  0  0  0  0
   10.8202   15.7707   19.1760 C   0  0  0  0  0  0  0  0  0  0  0  0
   10.5292   15.2268   23.2139 C   0  0  0  0  0  0  0  0  0  0  0  0
   11.1321   16.0846   24.1369 C   0  0  0  0  0  0  0  0  0  0  0  0
   11.4522   16.5714   25.1369 N   0  0  0  0  0  0  0  0  0  0  0  0
  1  2  1  0
  2  3  1  0
  3  4  2  0
  3  5  1  0
  5  6  2  0
  6  7  1  0
  7  8  1  0
  8  9  1  0
  9 10  1  0
  7 11  2  0
 11 12  1  0
 12 13  2  0
 13 14  1  0
 14 15  1  0
 14 16  1  0
 16 17  1  0
 17 18  1  0
 18 19  2  0
 19 20  1  0
 20 21  1  0
 19 22  1  0
 22 23  1  0
 23 24  3  0
 13  5  1  0
 22 16  2  0
 10  8  1  0
M  END
>  <energy_score>  (3427) 
-24.812118

>  <inchikey>  (3427) 
DTFKMXBTEVCXAO-UHFFFAOYSA-N

>  <smiles>  (3427) 
COC(=O)c1cc(C2CC2)ncc1N(N)c1snc(SC)c1C#N

>  <ref_pdb>  (3427) 
A0514a

>  <alias>  (3427) 
DTFKMXBTEVCXAO-UHFFFAOYSA-N-P308-P15-P308-601502

>  <HIPPO Pose ID>  (3427) 
502673

>  <name>  (3427) 
DTFKMXBTEVCXAO-UHFFFAOYSA-N-P308-P15-P308-601502

>  <HIPPO Compound ID>  (3427) 
293050

>  <ref_mols>  (3427) 
A4331a,A0514a

>  <distance_score>  (3427) 
1.935844

>  <inspiration_score>  (3427) 
None

$$$$
BHOBCRXHMOJKFB-UHFFFAOYSA-N-P308-P15-P308-601502
     RDKit          3D

 24 26  0  0  0  0  0  0  0  0999 V2000
    9.2252    8.4395   23.0220 C   0  0  0  0  0  0  0  0  0  0  0  0
    8.4112    9.3619   23.7324 O   0  0  0  0  0  0  0  0  0  0  0  0
    9.1302   10.2112   24.4965 C   0  0  0  0  0  0  0  0  0  0  0  0
   10.3282   10.1482   24.7305 O   0  0  0  0  0  0  0  0  0  0  0  0
    8.2215   11.2656   24.9877 C   0  0  0  0  0  0  0  0  0  0  0  0
    6.9895   10.9007   25.5651 C   0  0  0  0  0  0  0  0  0  0  0  0
    6.1976   11.8964   26.1176 C   0  0  0  0  0  0  0  0  0  0  0  0
    4.8415   11.7229   26.7133 C   0  0  0  0  0  0  0  0  0  0  0  0
    4.5003   10.8127   27.8538 C   0  0  0  0  0  0  0  0  0  0  0  0
    4.6504   12.2792   28.1146 C   0  0  0  0  0  0  0  0  0  0  0  0
    6.6187   13.1714   26.1401 N   0  0  0  0  0  0  0  0  0  0  0  0
    7.7737   13.4893   25.5455 C   0  0  0  0  0  0  0  0  0  0  0  0
    8.6130   12.6062   24.8969 C   0  0  0  0  0  0  0  0  0  0  0  0
    9.7747   13.0493   24.2611 N   0  0  0  0  0  0  0  0  0  0  0  0
   10.9993   12.8056   24.9243 N   0  0  0  0  0  0  0  0  0  0  0  0
    9.6923   13.9486   23.0680 C   0  0  2  0  0  0  0  0  0  0  0  0
   11.0123   14.0233   22.3044 C   0  0  0  0  0  0  0  0  0  0  0  0
   10.9438   15.3378   21.5364 C   0  0  0  0  0  0  0  0  0  0  0  0
   12.3018   16.0119   21.4575 C   0  0  0  0  0  0  0  0  0  0  0  0
   10.3482   15.2347   20.1376 C   0  0  0  0  0  0  0  0  0  0  0  0
   10.0796   16.1894   22.2925 O   0  0  0  0  0  0  0  0  0  0  0  0
    9.4086   15.4392   23.3294 C   0  0  0  0  0  0  0  0  0  0  0  0
   10.0141   15.9604   24.6338 C   0  0  0  0  0  0  0  0  0  0  0  0
    7.9331   15.8152   23.1450 C   0  0  0  0  0  0  0  0  0  0  0  0
  1  2  1  0
  2  3  1  0
  3  4  2  0
  3  5  1  0
  5  6  2  0
  6  7  1  0
  7  8  1  0
  8  9  1  0
  9 10  1  0
  7 11  2  0
 11 12  1  0
 12 13  2  0
 13 14  1  0
 14 15  1  0
 16 14  1  1
 16 17  1  0
 17 18  1  0
 18 19  1  0
 18 20  1  0
 18 21  1  0
 21 22  1  0
 22 23  1  0
 22 24  1  0
 13  5  1  0
 22 16  1  0
 10  8  1  0
M  END
>  <energy_score>  (3428) 
-40.307871

>  <inchikey>  (3428) 
BHOBCRXHMOJKFB-UHFFFAOYSA-N

>  <smiles>  (3428) 
COC(=O)c1cc(C2CC2)ncc1N(N)C1CC(C)(C)OC1(C)C

>  <ref_pdb>  (3428) 
A0514a

>  <alias>  (3428) 
BHOBCRXHMOJKFB-UHFFFAOYSA-N-P308-P15-P308-601502

>  <HIPPO Pose ID>  (3428) 
502683

>  <name>  (3428) 
BHOBCRXHMOJKFB-UHFFFAOYSA-N-P308-P15-P308-601502

>  <HIPPO Compound ID>  (3428) 
293055

>  <ref_mols>  (3428) 
A4331a,A0514a

>  <distance_score>  (3428) 
1.670753

>  <inspiration_score>  (3428) 
None

$$$$
SMZYYLMFETUJNV-UHFFFAOYSA-N-P15-P15-P308-601502
     RDKit          3D

 24 25  0  0  0  0  0  0  0  0999 V2000
    9.3136    8.6226   23.4182 C   0  0  0  0  0  0  0  0  0  0  0  0
    8.6058    9.4388   24.3603 O   0  0  0  0  0  0  0  0  0  0  0  0
    8.6207   10.7467   24.0233 C   0  0  0  0  0  0  0  0  0  0  0  0
    9.0992   11.1984   22.9998 O   0  0  0  0  0  0  0  0  0  0  0  0
    7.9463   11.5983   25.0250 C   0  0  0  0  0  0  0  0  0  0  0  0
    6.9418   11.0560   25.8339 C   0  0  0  0  0  0  0  0  0  0  0  0
    6.3458   11.8777   26.7821 C   0  0  0  0  0  0  0  0  0  0  0  0
    5.4950   11.3980   27.9101 C   0  0  0  0  0  0  0  0  0  0  0  0
    4.4826   10.3089   27.8243 C   0  0  0  0  0  0  0  0  0  0  0  0
    4.0311   11.7459   27.8393 C   0  0  0  0  0  0  0  0  0  0  0  0
    6.6138   13.1990   26.8411 N   0  0  0  0  0  0  0  0  0  0  0  0
    7.5673   13.7005   26.0451 C   0  0  0  0  0  0  0  0  0  0  0  0
    8.3312   12.9445   25.1742 C   0  0  0  0  0  0  0  0  0  0  0  0
    9.4808   13.4960   24.5953 N   0  0  0  0  0  0  0  0  0  0  0  0
   10.3799   14.2195   25.4525 N   0  0  0  0  0  0  0  0  0  0  0  0
    9.3974   14.0017   23.1970 C   0  0  2  0  0  0  0  0  0  0  0  0
    8.0228   14.0074   22.5493 C   0  0  0  0  0  0  0  0  0  0  0  0
   10.5983   13.4978   22.4059 C   0  0  0  0  0  0  0  0  0  0  0  0
   11.5754   12.9412   22.9026 O   0  0  0  0  0  0  0  0  0  0  0  0
   10.4837   13.8320   21.1041 O   0  0  0  0  0  0  0  0  0  0  0  0
   11.2561   14.9484   20.5979 C   0  0  0  0  0  0  0  0  0  0  0  0
   11.9194   14.5300   19.2857 C   0  0  0  0  0  0  0  0  0  0  0  0
   12.3176   15.4074   21.5987 C   0  0  0  0  0  0  0  0  0  0  0  0
   10.2009   16.0022   20.2877 C   0  0  0  0  0  0  0  0  0  0  0  0
  1  2  1  0
  2  3  1  0
  3  4  2  0
  3  5  1  0
  5  6  2  0
  6  7  1  0
  7  8  1  0
  8  9  1  0
  9 10  1  0
  7 11  2  0
 11 12  1  0
 12 13  2  0
 13 14  1  0
 14 15  1  0
 14 16  1  0
 16 17  1  6
 16 18  1  0
 18 19  2  0
 18 20  1  0
 20 21  1  0
 21 22  1  0
 21 23  1  0
 21 24  1  0
 13  5  1  0
 10  8  1  0
M  END
>  <energy_score>  (3429) 
-32.270904

>  <inchikey>  (3429) 
SMZYYLMFETUJNV-UHFFFAOYSA-N

>  <smiles>  (3429) 
COC(=O)c1cc(C2CC2)ncc1N(N)C(C)C(=O)OC(C)(C)C

>  <ref_pdb>  (3429) 
A0514a

>  <alias>  (3429) 
SMZYYLMFETUJNV-UHFFFAOYSA-N-P15-P15-P308-601502

>  <HIPPO Pose ID>  (3429) 
502694

>  <name>  (3429) 
SMZYYLMFETUJNV-UHFFFAOYSA-N-P15-P15-P308-601502

>  <HIPPO Compound ID>  (3429) 
293061

>  <ref_mols>  (3429) 
A4331a,A0514a

>  <distance_score>  (3429) 
1.716172

>  <inspiration_score>  (3429) 
None

$$$$
SMZYYLMFETUJNV-UHFFFAOYSA-N-P308-P15-P308-601502
     RDKit          3D

 24 25  0  0  0  0  0  0  0  0999 V2000
    9.2619    8.8293   23.3564 C   0  0  0  0  0  0  0  0  0  0  0  0
    8.3548    9.7145   24.0165 O   0  0  0  0  0  0  0  0  0  0  0  0
    8.9626   10.7808   24.5932 C   0  0  0  0  0  0  0  0  0  0  0  0
   10.1658   10.9878   24.6382 O   0  0  0  0  0  0  0  0  0  0  0  0
    7.9122   11.6592   25.1676 C   0  0  0  0  0  0  0  0  0  0  0  0
    6.8919   11.0825   25.9385 C   0  0  0  0  0  0  0  0  0  0  0  0
    6.0286   11.9212   26.6374 C   0  0  0  0  0  0  0  0  0  0  0  0
    5.1701   11.5097   27.7886 C   0  0  0  0  0  0  0  0  0  0  0  0
    4.2525   10.3384   27.7846 C   0  0  0  0  0  0  0  0  0  0  0  0
    3.6903   11.7337   27.6655 C   0  0  0  0  0  0  0  0  0  0  0  0
    6.0520   13.2522   26.4624 N   0  0  0  0  0  0  0  0  0  0  0  0
    7.0096   13.7766   25.6918 C   0  0  0  0  0  0  0  0  0  0  0  0
    7.9944   13.0510   25.0353 C   0  0  0  0  0  0  0  0  0  0  0  0
    9.0560   13.7033   24.3736 N   0  0  0  0  0  0  0  0  0  0  0  0
   10.2038   13.7474   25.2378 N   0  0  0  0  0  0  0  0  0  0  0  0
    8.6624   14.9455   23.6004 C   0  0  2  0  0  0  0  0  0  0  0  0
    7.7305   14.5260   22.4502 C   0  0  0  0  0  0  0  0  0  0  0  0
    9.9168   15.6791   23.1135 C   0  0  0  0  0  0  0  0  0  0  0  0
   10.8093   16.0472   23.8757 O   0  0  0  0  0  0  0  0  0  0  0  0
    9.9616   15.7796   21.7644 O   0  0  0  0  0  0  0  0  0  0  0  0
   11.2115   15.4384   21.1324 C   0  0  0  0  0  0  0  0  0  0  0  0
   11.5574   14.0026   21.5189 C   0  0  0  0  0  0  0  0  0  0  0  0
   12.3460   16.3674   21.5217 C   0  0  0  0  0  0  0  0  0  0  0  0
   10.9568   15.5457   19.6272 C   0  0  0  0  0  0  0  0  0  0  0  0
  1  2  1  0
  2  3  1  0
  3  4  2  0
  3  5  1  0
  5  6  2  0
  6  7  1  0
  7  8  1  0
  8  9  1  0
  9 10  1  0
  7 11  2  0
 11 12  1  0
 12 13  2  0
 13 14  1  0
 14 15  1  0
 14 16  1  0
 16 17  1  6
 16 18  1  0
 18 19  2  0
 18 20  1  0
 20 21  1  0
 21 22  1  0
 21 23  1  0
 21 24  1  0
 13  5  1  0
 10  8  1  0
M  END
>  <energy_score>  (3430) 
-46.866087

>  <inchikey>  (3430) 
SMZYYLMFETUJNV-UHFFFAOYSA-N

>  <smiles>  (3430) 
COC(=O)c1cc(C2CC2)ncc1N(N)C(C)C(=O)OC(C)(C)C

>  <ref_pdb>  (3430) 
A0514a

>  <alias>  (3430) 
SMZYYLMFETUJNV-UHFFFAOYSA-N-P308-P15-P308-601502

>  <HIPPO Pose ID>  (3430) 
502695

>  <name>  (3430) 
SMZYYLMFETUJNV-UHFFFAOYSA-N-P308-P15-P308-601502

>  <HIPPO Compound ID>  (3430) 
293061

>  <ref_mols>  (3430) 
A4331a,A0514a

>  <distance_score>  (3430) 
1.533257

>  <inspiration_score>  (3430) 
None

$$$$
ALFGDRDKLRFRFI-UHFFFAOYSA-N-P15-P15-P308-601502
     RDKit          3D

 24 27  0  0  0  0  0  0  0  0999 V2000
    9.4916    8.7107   23.0492 C   0  0  0  0  0  0  0  0  0  0  0  0
    8.6950    9.5138   23.9234 O   0  0  0  0  0  0  0  0  0  0  0  0
    8.8842   10.8503   23.8186 C   0  0  0  0  0  0  0  0  0  0  0  0
    9.6697   11.3857   23.0624 O   0  0  0  0  0  0  0  0  0  0  0  0
    8.0218   11.5676   24.7924 C   0  0  0  0  0  0  0  0  0  0  0  0
    7.1310   10.8273   25.5925 C   0  0  0  0  0  0  0  0  0  0  0  0
    6.3329   11.4770   26.5269 C   0  0  0  0  0  0  0  0  0  0  0  0
    5.3184   10.7649   27.3723 C   0  0  0  0  0  0  0  0  0  0  0  0
    5.2262   11.0944   28.8435 C   0  0  0  0  0  0  0  0  0  0  0  0
    4.1489   11.5660   27.9177 C   0  0  0  0  0  0  0  0  0  0  0  0
    6.4527   12.8047   26.7329 N   0  0  0  0  0  0  0  0  0  0  0  0
    7.2146   13.5124   25.8932 C   0  0  0  0  0  0  0  0  0  0  0  0
    8.0129   12.9625   24.9042 C   0  0  0  0  0  0  0  0  0  0  0  0
    8.4091   13.8738   23.9184 N   0  0  0  0  0  0  0  0  0  0  0  0
    9.6923   13.9964   23.4576 N   0  0  0  0  0  0  0  0  0  0  0  0
    9.5806   14.6219   22.3163 C   0  0  0  0  0  0  0  0  0  0  0  0
   10.6264   14.8848   21.3862 C   0  0  0  0  0  0  0  0  0  0  0  0
   11.9235   14.4497   21.3745 C   0  0  0  0  0  0  0  0  0  0  0  0
   12.4492   14.5513   20.0583 C   0  0  0  0  0  0  0  0  0  0  0  0
   11.5998   15.1448   19.1582 C   0  0  0  0  0  0  0  0  0  0  0  0
   10.2576   15.7681   19.9619 S   0  0  0  0  0  0  0  0  0  0  0  0
    8.1755   14.9806   21.9431 C   0  0  0  0  0  0  0  0  0  0  0  0
    7.4387   14.3623   23.0440 C   0  0  0  0  0  0  0  0  0  0  0  0
    6.2300   14.2596   23.0966 O   0  0  0  0  0  0  0  0  0  0  0  0
  1  2  1  0
  2  3  1  0
  3  4  2  0
  3  5  1  0
  5  6  2  0
  6  7  1  0
  7  8  1  0
  8  9  1  0
  9 10  1  0
  7 11  2  0
 11 12  1  0
 12 13  2  0
 13 14  1  0
 14 15  1  0
 15 16  2  0
 16 17  1  0
 17 18  2  0
 18 19  1  0
 19 20  2  0
 20 21  1  0
 16 22  1  0
 22 23  1  0
 23 24  2  0
 13  5  1  0
 23 14  1  0
 10  8  1  0
 21 17  1  0
M  END
>  <energy_score>  (3431) 
-29.027892

>  <inchikey>  (3431) 
ALFGDRDKLRFRFI-UHFFFAOYSA-N

>  <smiles>  (3431) 
COC(=O)c1cc(C2CC2)ncc1N1N=C(c2cccs2)CC1=O

>  <ref_pdb>  (3431) 
A0514a

>  <alias>  (3431) 
ALFGDRDKLRFRFI-UHFFFAOYSA-N-P15-P15-P308-601502

>  <HIPPO Pose ID>  (3431) 
502702

>  <name>  (3431) 
ALFGDRDKLRFRFI-UHFFFAOYSA-N-P15-P15-P308-601502

>  <HIPPO Compound ID>  (3431) 
293065

>  <ref_mols>  (3431) 
A4331a,A0514a

>  <distance_score>  (3431) 
1.941492

>  <inspiration_score>  (3431) 
None

$$$$
ALFGDRDKLRFRFI-UHFFFAOYSA-N-P308-P15-P308-601502
     RDKit          3D

 24 27  0  0  0  0  0  0  0  0999 V2000
    9.3948    8.6851   23.1362 C   0  0  0  0  0  0  0  0  0  0  0  0
    8.5320    9.5504   23.8689 O   0  0  0  0  0  0  0  0  0  0  0  0
    9.1530   10.6591   24.3268 C   0  0  0  0  0  0  0  0  0  0  0  0
   10.3362   10.9356   24.2277 O   0  0  0  0  0  0  0  0  0  0  0  0
    8.1846   11.5296   25.0096 C   0  0  0  0  0  0  0  0  0  0  0  0
    7.1090   10.9878   25.7145 C   0  0  0  0  0  0  0  0  0  0  0  0
    6.2932   11.8478   26.4347 C   0  0  0  0  0  0  0  0  0  0  0  0
    5.0696   11.3701   27.1653 C   0  0  0  0  0  0  0  0  0  0  0  0
    4.7672   11.9095   28.5444 C   0  0  0  0  0  0  0  0  0  0  0  0
    3.9327   12.3506   27.3827 C   0  0  0  0  0  0  0  0  0  0  0  0
    6.5882   13.1702   26.5355 N   0  0  0  0  0  0  0  0  0  0  0  0
    7.5839   13.6769   25.7877 C   0  0  0  0  0  0  0  0  0  0  0  0
    8.3840   12.9109   24.9661 C   0  0  0  0  0  0  0  0  0  0  0  0
    8.7718   13.5087   23.7613 N   0  0  0  0  0  0  0  0  0  0  0  0
    9.8341   14.3801   23.6424 N   0  0  0  0  0  0  0  0  0  0  0  0
    9.6280   14.9622   22.4906 C   0  0  0  0  0  0  0  0  0  0  0  0
   10.6029   15.5052   21.6026 C   0  0  0  0  0  0  0  0  0  0  0  0
   11.9295   15.1824   21.5012 C   0  0  0  0  0  0  0  0  0  0  0  0
   12.3324   15.2810   20.1388 C   0  0  0  0  0  0  0  0  0  0  0  0
   11.3860   15.8349   19.3130 C   0  0  0  0  0  0  0  0  0  0  0  0
   10.0844   16.3895   20.2268 S   0  0  0  0  0  0  0  0  0  0  0  0
    8.2382   14.7986   21.9656 C   0  0  0  0  0  0  0  0  0  0  0  0
    7.8058   13.6543   22.7667 C   0  0  0  0  0  0  0  0  0  0  0  0
    6.7998   13.0037   22.5573 O   0  0  0  0  0  0  0  0  0  0  0  0
  1  2  1  0
  2  3  1  0
  3  4  2  0
  3  5  1  0
  5  6  2  0
  6  7  1  0
  7  8  1  0
  8  9  1  0
  9 10  1  0
  7 11  2  0
 11 12  1  0
 12 13  2  0
 13 14  1  0
 14 15  1  0
 15 16  2  0
 16 17  1  0
 17 18  2  0
 18 19  1  0
 19 20  2  0
 20 21  1  0
 16 22  1  0
 22 23  1  0
 23 24  2  0
 13  5  1  0
 23 14  1  0
 10  8  1  0
 21 17  1  0
M  END
>  <energy_score>  (3432) 
-11.481276

>  <inchikey>  (3432) 
ALFGDRDKLRFRFI-UHFFFAOYSA-N

>  <smiles>  (3432) 
COC(=O)c1cc(C2CC2)ncc1N1N=C(c2cccs2)CC1=O

>  <ref_pdb>  (3432) 
A0514a

>  <alias>  (3432) 
ALFGDRDKLRFRFI-UHFFFAOYSA-N-P308-P15-P308-601502

>  <HIPPO Pose ID>  (3432) 
502703

>  <name>  (3432) 
ALFGDRDKLRFRFI-UHFFFAOYSA-N-P308-P15-P308-601502

>  <HIPPO Compound ID>  (3432) 
293065

>  <ref_mols>  (3432) 
A4331a,A0514a

>  <distance_score>  (3432) 
1.74855

>  <inspiration_score>  (3432) 
None

$$$$
CYWPXKXXUVDBMH-UHFFFAOYSA-N-P15-P15-P308-601502
     RDKit          3D

 24 26  0  0  0  0  0  0  0  0999 V2000
    9.3909    8.6090   23.0100 C   0  0  0  0  0  0  0  0  0  0  0  0
    8.5800    9.4073   23.8748 O   0  0  0  0  0  0  0  0  0  0  0  0
    8.9854   10.6927   23.9714 C   0  0  0  0  0  0  0  0  0  0  0  0
    9.9622   11.1661   23.4188 O   0  0  0  0  0  0  0  0  0  0  0  0
    8.0834   11.4716   24.8582 C   0  0  0  0  0  0  0  0  0  0  0  0
    6.9990   10.8415   25.4881 C   0  0  0  0  0  0  0  0  0  0  0  0
    6.1785   11.5846   26.3273 C   0  0  0  0  0  0  0  0  0  0  0  0
    5.1605   10.9559   27.2354 C   0  0  0  0  0  0  0  0  0  0  0  0
    3.9771   11.7639   27.7265 C   0  0  0  0  0  0  0  0  0  0  0  0
    5.1048   11.4664   28.6635 C   0  0  0  0  0  0  0  0  0  0  0  0
    6.3449   12.9196   26.4562 N   0  0  0  0  0  0  0  0  0  0  0  0
    7.3839   13.5068   25.8551 C   0  0  0  0  0  0  0  0  0  0  0  0
    8.3272   12.8319   25.1010 C   0  0  0  0  0  0  0  0  0  0  0  0
    9.4812   13.5601   24.7497 N   0  0  0  0  0  0  0  0  0  0  0  0
   10.7225   13.0827   25.2694 N   0  0  0  0  0  0  0  0  0  0  0  0
    9.6651   14.1130   23.4959 C   0  0  0  0  0  0  0  0  0  0  0  0
   10.8827   14.3256   23.0950 N   0  0  0  0  0  0  0  0  0  0  0  0
   11.1004   14.8812   21.8712 C   0  0  0  0  0  0  0  0  0  0  0  0
   12.5340   15.1842   21.6171 C   0  0  0  0  0  0  0  0  0  0  0  0
   10.1253   15.1609   20.9952 C   0  0  0  0  0  0  0  0  0  0  0  0
   10.3255   15.7918   19.6572 C   0  0  0  0  0  0  0  0  0  0  0  0
    8.7717   14.7822   21.4453 C   0  0  0  0  0  0  0  0  0  0  0  0
    7.7972   14.6607   20.7240 O   0  0  0  0  0  0  0  0  0  0  0  0
    8.6042   14.4576   22.7422 N   0  0  0  0  0  0  0  0  0  0  0  0
  1  2  1  0
  2  3  1  0
  3  4  2  0
  3  5  1  0
  5  6  2  0
  6  7  1  0
  7  8  1  0
  8  9  1  0
  9 10  1  0
  7 11  2  0
 11 12  1  0
 12 13  2  0
 13 14  1  0
 14 15  1  0
 14 16  1  0
 16 17  2  0
 17 18  1  0
 18 19  1  0
 18 20  2  0
 20 21  1  0
 20 22  1  0
 22 23  2  0
 22 24  1  0
 13  5  1  0
 24 16  1  0
 10  8  1  0
M  END
>  <energy_score>  (3433) 
-62.564176

>  <inchikey>  (3433) 
CYWPXKXXUVDBMH-UHFFFAOYSA-N

>  <smiles>  (3433) 
COC(=O)c1cc(C2CC2)ncc1N(N)c1nc(C)c(C)c(=O)[nH]1

>  <ref_pdb>  (3433) 
A0514a

>  <alias>  (3433) 
CYWPXKXXUVDBMH-UHFFFAOYSA-N-P15-P15-P308-601502

>  <HIPPO Pose ID>  (3433) 
502704

>  <name>  (3433) 
CYWPXKXXUVDBMH-UHFFFAOYSA-N-P15-P15-P308-601502

>  <HIPPO Compound ID>  (3433) 
293066

>  <ref_mols>  (3433) 
A4331a,A0514a

>  <distance_score>  (3433) 
1.899099

>  <inspiration_score>  (3433) 
None

$$$$
CYWPXKXXUVDBMH-UHFFFAOYSA-N-P308-P15-P308-601502
     RDKit          3D

 24 26  0  0  0  0  0  0  0  0999 V2000
    9.3096    8.5456   23.0639 C   0  0  0  0  0  0  0  0  0  0  0  0
    8.4825    9.4182   23.8265 O   0  0  0  0  0  0  0  0  0  0  0  0
    9.1769   10.3489   24.5204 C   0  0  0  0  0  0  0  0  0  0  0  0
   10.3915   10.4064   24.6322 O   0  0  0  0  0  0  0  0  0  0  0  0
    8.2003   11.3117   25.0856 C   0  0  0  0  0  0  0  0  0  0  0  0
    7.0152   10.8134   25.6450 C   0  0  0  0  0  0  0  0  0  0  0  0
    6.1183   11.7019   26.2217 C   0  0  0  0  0  0  0  0  0  0  0  0
    4.9745   11.2537   27.0890 C   0  0  0  0  0  0  0  0  0  0  0  0
    3.7967   12.1718   27.3376 C   0  0  0  0  0  0  0  0  0  0  0  0
    4.8046   11.9634   28.4221 C   0  0  0  0  0  0  0  0  0  0  0  0
    6.3196   13.0351   26.1414 N   0  0  0  0  0  0  0  0  0  0  0  0
    7.4412   13.4933   25.5687 C   0  0  0  0  0  0  0  0  0  0  0  0
    8.4495   12.6882   25.0714 C   0  0  0  0  0  0  0  0  0  0  0  0
    9.6419   13.2849   24.6457 N   0  0  0  0  0  0  0  0  0  0  0  0
   10.8429   12.9288   25.3232 N   0  0  0  0  0  0  0  0  0  0  0  0
    9.7814   14.1402   23.5617 C   0  0  0  0  0  0  0  0  0  0  0  0
   10.9719   14.4779   23.1600 N   0  0  0  0  0  0  0  0  0  0  0  0
   11.0853   15.2485   22.0315 C   0  0  0  0  0  0  0  0  0  0  0  0
   12.4167   15.8825   21.8341 C   0  0  0  0  0  0  0  0  0  0  0  0
   10.0891   15.3864   21.1429 C   0  0  0  0  0  0  0  0  0  0  0  0
   10.1896   16.0396   19.8069 C   0  0  0  0  0  0  0  0  0  0  0  0
    8.8196   14.7715   21.5927 C   0  0  0  0  0  0  0  0  0  0  0  0
    7.9426   14.3790   20.8376 O   0  0  0  0  0  0  0  0  0  0  0  0
    8.6820   14.6707   22.9501 N   0  0  0  0  0  0  0  0  0  0  0  0
  1  2  1  0
  2  3  1  0
  3  4  2  0
  3  5  1  0
  5  6  2  0
  6  7  1  0
  7  8  1  0
  8  9  1  0
  9 10  1  0
  7 11  2  0
 11 12  1  0
 12 13  2  0
 13 14  1  0
 14 15  1  0
 14 16  1  0
 16 17  2  0
 17 18  1  0
 18 19  1  0
 18 20  2  0
 20 21  1  0
 20 22  1  0
 22 23  2  0
 22 24  1  0
 13  5  1  0
 24 16  1  0
 10  8  1  0
M  END
>  <energy_score>  (3434) 
-40.709491

>  <inchikey>  (3434) 
CYWPXKXXUVDBMH-UHFFFAOYSA-N

>  <smiles>  (3434) 
COC(=O)c1cc(C2CC2)ncc1N(N)c1nc(C)c(C)c(=O)[nH]1

>  <ref_pdb>  (3434) 
A0514a

>  <alias>  (3434) 
CYWPXKXXUVDBMH-UHFFFAOYSA-N-P308-P15-P308-601502

>  <HIPPO Pose ID>  (3434) 
502705

>  <name>  (3434) 
CYWPXKXXUVDBMH-UHFFFAOYSA-N-P308-P15-P308-601502

>  <HIPPO Compound ID>  (3434) 
293066

>  <ref_mols>  (3434) 
A4331a,A0514a

>  <distance_score>  (3434) 
1.749988

>  <inspiration_score>  (3434) 
None

$$$$
RCZOBWLJWHCGHO-UHFFFAOYSA-N-P15-P15-P308-601502
     RDKit          3D

 24 26  0  0  0  0  0  0  0  0999 V2000
    5.8423   15.5049   23.1987 C   0  0  0  0  0  0  0  0  0  0  0  0
    7.2352   15.1954   23.1804 O   0  0  0  0  0  0  0  0  0  0  0  0
    7.5358   14.1084   22.4333 C   0  0  0  0  0  0  0  0  0  0  0  0
    6.7702   13.3748   21.8408 O   0  0  0  0  0  0  0  0  0  0  0  0
    8.9895   13.9998   22.3633 C   0  0  0  0  0  0  0  0  0  0  0  0
    9.6005   14.8945   21.4993 C   0  0  0  0  0  0  0  0  0  0  0  0
   10.9566   14.7687   21.2861 C   0  0  0  0  0  0  0  0  0  0  0  0
   11.6312   15.3346   20.0908 C   0  0  0  0  0  0  0  0  0  0  0  0
   11.6917   14.6652   18.7497 C   0  0  0  0  0  0  0  0  0  0  0  0
   10.8311   15.8682   18.9027 C   0  0  0  0  0  0  0  0  0  0  0  0
   11.7273   14.0787   22.1569 N   0  0  0  0  0  0  0  0  0  0  0  0
   11.1084   13.1757   22.9299 C   0  0  0  0  0  0  0  0  0  0  0  0
    9.7338   12.9729   22.9440 C   0  0  0  0  0  0  0  0  0  0  0  0
    9.1655   11.6924   23.2642 N   0  0  0  0  0  0  0  0  0  0  0  0
    9.9068   10.5863   22.7315 N   0  0  0  0  0  0  0  0  0  0  0  0
    9.0226   11.4962   24.6917 C   0  0  0  0  0  0  0  0  0  0  0  0
    7.7773   12.0046   25.2909 C   0  0  0  0  0  0  0  0  0  0  0  0
    7.7874   13.3549   25.6206 C   0  0  0  0  0  0  0  0  0  0  0  0
    6.7885   13.8695   26.3940 C   0  0  0  0  0  0  0  0  0  0  0  0
    5.7641   13.0389   26.8255 C   0  0  0  0  0  0  0  0  0  0  0  0
    4.5052   13.6906   27.8670 S   0  0  0  0  0  0  0  0  0  0  0  0
    4.2093   15.2653   27.0394 C   0  0  0  0  0  0  0  0  0  0  0  0
    5.7388   11.6854   26.4841 C   0  0  0  0  0  0  0  0  0  0  0  0
    6.7434   11.1602   25.6928 C   0  0  0  0  0  0  0  0  0  0  0  0
  1  2  1  0
  2  3  1  0
  3  4  2  0
  3  5  1  0
  5  6  2  0
  6  7  1  0
  7  8  1  0
  8  9  1  0
  9 10  1  0
  7 11  2  0
 11 12  1  0
 12 13  2  0
 13 14  1  0
 14 15  1  0
 14 16  1  0
 16 17  1  0
 17 18  2  0
 18 19  1  0
 19 20  2  0
 20 21  1  0
 21 22  1  0
 20 23  1  0
 23 24  2  0
 13  5  1  0
 24 17  1  0
 10  8  1  0
M  END
>  <energy_score>  (3435) 
-8.934787

>  <inchikey>  (3435) 
RCZOBWLJWHCGHO-UHFFFAOYSA-N

>  <smiles>  (3435) 
COC(=O)c1cc(C2CC2)ncc1N(N)Cc1ccc(SC)cc1

>  <ref_pdb>  (3435) 
A0514a

>  <alias>  (3435) 
RCZOBWLJWHCGHO-UHFFFAOYSA-N-P15-P15-P308-601502

>  <HIPPO Pose ID>  (3435) 
502714

>  <name>  (3435) 
RCZOBWLJWHCGHO-UHFFFAOYSA-N-P15-P15-P308-601502

>  <HIPPO Compound ID>  (3435) 
293071

>  <ref_mols>  (3435) 
A4331a,A0514a

>  <distance_score>  (3435) 
1.990837

>  <inspiration_score>  (3435) 
None

$$$$
FPVWGRAPLUZVAQ-UHFFFAOYSA-N-P15-P15-P308-601502
     RDKit          3D

 24 26  0  0  0  0  0  0  0  0999 V2000
   12.0448   15.2799   21.3601 C   0  0  0  0  0  0  0  0  0  0  0  0
   11.6121   14.1550   22.2644 C   0  0  0  0  0  0  0  0  0  0  0  0
   10.4780   14.5069   23.0684 O   0  0  0  0  0  0  0  0  0  0  0  0
    9.2599   14.3861   22.4341 C   0  0  0  0  0  0  0  0  0  0  0  0
    9.1466   14.3454   21.2117 O   0  0  0  0  0  0  0  0  0  0  0  0
    8.0669   14.1962   23.4875 C   0  0  0  0  0  0  0  0  0  0  0  0
    8.1886   12.9058   24.1867 N   0  0  0  0  0  0  0  0  0  0  0  0
    9.4838   12.6168   24.7408 N   0  0  0  0  0  0  0  0  0  0  0  0
    7.1805   12.2243   24.9079 C   0  0  0  0  0  0  0  0  0  0  0  0
    6.1217   12.8890   25.5154 C   0  0  0  0  0  0  0  0  0  0  0  0
    5.3068   12.3910   26.4518 N   0  0  0  0  0  0  0  0  0  0  0  0
    5.4554   11.1127   26.7951 C   0  0  0  0  0  0  0  0  0  0  0  0
    4.7388   10.6541   28.0205 C   0  0  0  0  0  0  0  0  0  0  0  0
    3.5616   11.4382   28.5507 C   0  0  0  0  0  0  0  0  0  0  0  0
    4.8837   11.5288   29.2522 C   0  0  0  0  0  0  0  0  0  0  0  0
    6.3002   10.3045   26.0722 C   0  0  0  0  0  0  0  0  0  0  0  0
    7.1877   10.8506   25.1355 C   0  0  0  0  0  0  0  0  0  0  0  0
    8.0385    9.8467   24.4623 C   0  0  0  0  0  0  0  0  0  0  0  0
    7.9370    8.6752   24.7865 O   0  0  0  0  0  0  0  0  0  0  0  0
    8.8783   10.2855   23.5010 O   0  0  0  0  0  0  0  0  0  0  0  0
    9.6311    9.2117   22.9267 C   0  0  0  0  0  0  0  0  0  0  0  0
    7.7203   15.3348   24.4911 C   0  0  0  0  0  0  0  0  0  0  0  0
    6.7661   15.9003   23.4220 C   0  0  0  0  0  0  0  0  0  0  0  0
    6.6854   14.4876   22.8150 C   0  0  0  0  0  0  0  0  0  0  0  0
  1  2  1  0
  2  3  1  0
  3  4  1  0
  4  5  2  0
  4  6  1  0
  6  7  1  0
  7  8  1  0
  7  9  1  0
  9 10  2  0
 10 11  1  0
 11 12  2  0
 12 13  1  0
 13 14  1  0
 14 15  1  0
 12 16  1  0
 16 17  2  0
 17 18  1  0
 18 19  2  0
 18 20  1  0
 20 21  1  0
  6 22  1  0
 22 23  1  0
 23 24  1  0
 24  6  1  0
 17  9  1  0
 15 13  1  0
M  END
>  <energy_score>  (3436) 
-17.552382

>  <inchikey>  (3436) 
FPVWGRAPLUZVAQ-UHFFFAOYSA-N

>  <smiles>  (3436) 
CCOC(=O)C1(N(N)c2cnc(C3CC3)cc2C(=O)OC)CCC1

>  <ref_pdb>  (3436) 
A0514a

>  <alias>  (3436) 
FPVWGRAPLUZVAQ-UHFFFAOYSA-N-P15-P15-P308-601502

>  <HIPPO Pose ID>  (3436) 
502716

>  <name>  (3436) 
FPVWGRAPLUZVAQ-UHFFFAOYSA-N-P15-P15-P308-601502

>  <HIPPO Compound ID>  (3436) 
293072

>  <ref_mols>  (3436) 
A4331a,A0514a

>  <distance_score>  (3436) 
1.658153

>  <inspiration_score>  (3436) 
None

$$$$
FPVWGRAPLUZVAQ-UHFFFAOYSA-N-P308-P15-P308-601502
     RDKit          3D

 24 26  0  0  0  0  0  0  0  0999 V2000
   11.9869   15.1069   20.6375 C   0  0  0  0  0  0  0  0  0  0  0  0
   11.8650   15.9890   21.8577 C   0  0  0  0  0  0  0  0  0  0  0  0
   10.7127   15.6133   22.6206 O   0  0  0  0  0  0  0  0  0  0  0  0
    9.5099   15.9707   22.0605 C   0  0  0  0  0  0  0  0  0  0  0  0
    9.4418   16.6665   21.0477 O   0  0  0  0  0  0  0  0  0  0  0  0
    8.2638   15.3501   22.8545 C   0  0  0  0  0  0  0  0  0  0  0  0
    8.5837   14.8477   24.2319 N   0  0  0  0  0  0  0  0  0  0  0  0
    9.1779   15.8070   25.1146 N   0  0  0  0  0  0  0  0  0  0  0  0
    7.7533   13.9421   24.9445 C   0  0  0  0  0  0  0  0  0  0  0  0
    6.5990   14.3668   25.5680 C   0  0  0  0  0  0  0  0  0  0  0  0
    5.8195   13.5908   26.3298 N   0  0  0  0  0  0  0  0  0  0  0  0
    6.1615   12.3000   26.5133 C   0  0  0  0  0  0  0  0  0  0  0  0
    5.3961   11.6533   27.6191 C   0  0  0  0  0  0  0  0  0  0  0  0
    4.6432   10.3779   27.4600 C   0  0  0  0  0  0  0  0  0  0  0  0
    3.8962   11.6842   27.5328 C   0  0  0  0  0  0  0  0  0  0  0  0
    7.2568   11.7363   25.8663 C   0  0  0  0  0  0  0  0  0  0  0  0
    8.0795   12.5987   25.1343 C   0  0  0  0  0  0  0  0  0  0  0  0
    9.4020   12.1451   24.7000 C   0  0  0  0  0  0  0  0  0  0  0  0
    9.6121   11.3807   23.7786 O   0  0  0  0  0  0  0  0  0  0  0  0
   10.3019   12.7526   25.5130 O   0  0  0  0  0  0  0  0  0  0  0  0
   11.6358   12.8093   25.0225 C   0  0  0  0  0  0  0  0  0  0  0  0
    6.9783   16.2395   22.8068 C   0  0  0  0  0  0  0  0  0  0  0  0
    6.1738   15.0455   22.2707 C   0  0  0  0  0  0  0  0  0  0  0  0
    7.4876   14.2978   22.0053 C   0  0  0  0  0  0  0  0  0  0  0  0
  1  2  1  0
  2  3  1  0
  3  4  1  0
  4  5  2  0
  4  6  1  0
  6  7  1  0
  7  8  1  0
  7  9  1  0
  9 10  2  0
 10 11  1  0
 11 12  2  0
 12 13  1  0
 13 14  1  0
 14 15  1  0
 12 16  1  0
 16 17  2  0
 17 18  1  0
 18 19  2  0
 18 20  1  0
 20 21  1  0
  6 22  1  0
 22 23  1  0
 23 24  1  0
 24  6  1  0
 17  9  1  0
 15 13  1  0
M  END
>  <energy_score>  (3437) 
-29.14866

>  <inchikey>  (3437) 
FPVWGRAPLUZVAQ-UHFFFAOYSA-N

>  <smiles>  (3437) 
CCOC(=O)C1(N(N)c2cnc(C3CC3)cc2C(=O)OC)CCC1

>  <ref_pdb>  (3437) 
A0514a

>  <alias>  (3437) 
FPVWGRAPLUZVAQ-UHFFFAOYSA-N-P308-P15-P308-601502

>  <HIPPO Pose ID>  (3437) 
502717

>  <name>  (3437) 
FPVWGRAPLUZVAQ-UHFFFAOYSA-N-P308-P15-P308-601502

>  <HIPPO Compound ID>  (3437) 
293072

>  <ref_mols>  (3437) 
A4331a,A0514a

>  <distance_score>  (3437) 
1.980857

>  <inspiration_score>  (3437) 
None

$$$$
LYKLFJPHGDJPAE-UHFFFAOYSA-N-P15-P15-P308-601502
     RDKit          3D

 24 26  0  0  0  0  0  0  0  0999 V2000
    9.3614    8.8622   23.0765 C   0  0  0  0  0  0  0  0  0  0  0  0
    8.4618    9.7399   23.7632 O   0  0  0  0  0  0  0  0  0  0  0  0
    8.9009   11.0210   23.8351 C   0  0  0  0  0  0  0  0  0  0  0  0
    9.9716   11.4237   23.4256 O   0  0  0  0  0  0  0  0  0  0  0  0
    7.9183   11.8510   24.5659 C   0  0  0  0  0  0  0  0  0  0  0  0
    7.2789   11.2659   25.6632 C   0  0  0  0  0  0  0  0  0  0  0  0
    6.4030   12.0092   26.4433 C   0  0  0  0  0  0  0  0  0  0  0  0
    5.6628   11.4031   27.6032 C   0  0  0  0  0  0  0  0  0  0  0  0
    4.2844   11.9106   27.9586 C   0  0  0  0  0  0  0  0  0  0  0  0
    5.4510   12.2512   28.8380 C   0  0  0  0  0  0  0  0  0  0  0  0
    6.1906   13.3109   26.1910 N   0  0  0  0  0  0  0  0  0  0  0  0
    6.7347   13.8215   25.0771 C   0  0  0  0  0  0  0  0  0  0  0  0
    7.5930   13.1595   24.2055 C   0  0  0  0  0  0  0  0  0  0  0  0
    7.9249   13.7690   22.9809 N   0  0  0  0  0  0  0  0  0  0  0  0
    6.8358   14.3190   22.2706 N   0  0  0  0  0  0  0  0  0  0  0  0
    9.1949   14.2436   22.5808 C   0  0  0  0  0  0  0  0  0  0  0  0
   10.2205   14.1433   23.4154 N   0  0  0  0  0  0  0  0  0  0  0  0
   11.4306   14.3196   22.8739 C   0  0  0  0  0  0  0  0  0  0  0  0
   12.5148   13.7809   23.7244 C   0  0  0  0  0  0  0  0  0  0  0  0
   11.6388   14.8073   21.5956 C   0  0  0  0  0  0  0  0  0  0  0  0
   10.5057   15.0541   20.8513 C   0  0  0  0  0  0  0  0  0  0  0  0
   10.5529   15.6035   19.4456 C   0  0  0  0  0  0  0  0  0  0  0  0
   11.5658   14.9965   18.6569 O   0  0  0  0  0  0  0  0  0  0  0  0
    9.2801   14.7757   21.3423 N   0  0  0  0  0  0  0  0  0  0  0  0
  1  2  1  0
  2  3  1  0
  3  4  2  0
  3  5  1  0
  5  6  2  0
  6  7  1  0
  7  8  1  0
  8  9  1  0
  9 10  1  0
  7 11  2  0
 11 12  1  0
 12 13  2  0
 13 14  1  0
 14 15  1  0
 14 16  1  0
 16 17  2  0
 17 18  1  0
 18 19  1  0
 18 20  2  0
 20 21  1  0
 21 22  1  0
 22 23  1  0
 21 24  2  0
 13  5  1  0
 24 16  1  0
 10  8  1  0
M  END
>  <energy_score>  (3438) 
-35.030669

>  <inchikey>  (3438) 
LYKLFJPHGDJPAE-UHFFFAOYSA-N

>  <smiles>  (3438) 
COC(=O)c1cc(C2CC2)ncc1N(N)c1nc(C)cc(CO)n1

>  <ref_pdb>  (3438) 
A0514a

>  <alias>  (3438) 
LYKLFJPHGDJPAE-UHFFFAOYSA-N-P15-P15-P308-601502

>  <HIPPO Pose ID>  (3438) 
502718

>  <name>  (3438) 
LYKLFJPHGDJPAE-UHFFFAOYSA-N-P15-P15-P308-601502

>  <HIPPO Compound ID>  (3438) 
293073

>  <ref_mols>  (3438) 
A4331a,A0514a

>  <distance_score>  (3438) 
1.868093

>  <inspiration_score>  (3438) 
None

$$$$
LYKLFJPHGDJPAE-UHFFFAOYSA-N-P308-P15-P308-601502
     RDKit          3D

 24 26  0  0  0  0  0  0  0  0999 V2000
    9.4407    8.9267   23.2289 C   0  0  0  0  0  0  0  0  0  0  0  0
    8.5069    9.8751   23.7451 O   0  0  0  0  0  0  0  0  0  0  0  0
    9.0719   10.9943   24.2525 C   0  0  0  0  0  0  0  0  0  0  0  0
   10.2588   11.2455   24.3675 O   0  0  0  0  0  0  0  0  0  0  0  0
    7.9907   11.8511   24.7553 C   0  0  0  0  0  0  0  0  0  0  0  0
    7.2104   11.3432   25.7927 C   0  0  0  0  0  0  0  0  0  0  0  0
    6.2285   12.1381   26.3704 C   0  0  0  0  0  0  0  0  0  0  0  0
    5.3002   11.6142   27.4306 C   0  0  0  0  0  0  0  0  0  0  0  0
    3.9713   12.2879   27.6809 C   0  0  0  0  0  0  0  0  0  0  0  0
    5.0877   12.4628   28.6656 C   0  0  0  0  0  0  0  0  0  0  0  0
    6.0813   13.4243   26.0073 N   0  0  0  0  0  0  0  0  0  0  0  0
    6.7768   13.8492   24.9445 C   0  0  0  0  0  0  0  0  0  0  0  0
    7.7076   13.1045   24.2343 C   0  0  0  0  0  0  0  0  0  0  0  0
    8.1055   13.5364   22.9598 N   0  0  0  0  0  0  0  0  0  0  0  0
    7.0336   13.7275   22.0569 N   0  0  0  0  0  0  0  0  0  0  0  0
    9.3165   14.1854   22.6205 C   0  0  0  0  0  0  0  0  0  0  0  0
   10.2848   14.2768   23.5237 N   0  0  0  0  0  0  0  0  0  0  0  0
   11.4601   14.7559   23.0973 C   0  0  0  0  0  0  0  0  0  0  0  0
   12.5225   14.6719   24.1275 C   0  0  0  0  0  0  0  0  0  0  0  0
   11.6784   15.2173   21.8098 C   0  0  0  0  0  0  0  0  0  0  0  0
   10.5999   15.1622   20.9527 C   0  0  0  0  0  0  0  0  0  0  0  0
   10.6779   15.6520   19.5260 C   0  0  0  0  0  0  0  0  0  0  0  0
   11.4237   14.7881   18.6741 O   0  0  0  0  0  0  0  0  0  0  0  0
    9.4123   14.6680   21.3594 N   0  0  0  0  0  0  0  0  0  0  0  0
  1  2  1  0
  2  3  1  0
  3  4  2  0
  3  5  1  0
  5  6  2  0
  6  7  1  0
  7  8  1  0
  8  9  1  0
  9 10  1  0
  7 11  2  0
 11 12  1  0
 12 13  2  0
 13 14  1  0
 14 15  1  0
 14 16  1  0
 16 17  2  0
 17 18  1  0
 18 19  1  0
 18 20  2  0
 20 21  1  0
 21 22  1  0
 22 23  1  0
 21 24  2  0
 13  5  1  0
 24 16  1  0
 10  8  1  0
M  END
>  <energy_score>  (3439) 
-34.441313

>  <inchikey>  (3439) 
LYKLFJPHGDJPAE-UHFFFAOYSA-N

>  <smiles>  (3439) 
COC(=O)c1cc(C2CC2)ncc1N(N)c1nc(C)cc(CO)n1

>  <ref_pdb>  (3439) 
A0514a

>  <alias>  (3439) 
LYKLFJPHGDJPAE-UHFFFAOYSA-N-P308-P15-P308-601502

>  <HIPPO Pose ID>  (3439) 
502719

>  <name>  (3439) 
LYKLFJPHGDJPAE-UHFFFAOYSA-N-P308-P15-P308-601502

>  <HIPPO Compound ID>  (3439) 
293073

>  <ref_mols>  (3439) 
A4331a,A0514a

>  <distance_score>  (3439) 
1.822155

>  <inspiration_score>  (3439) 
None

$$$$
UVMXERZVLCLQPC-UHFFFAOYSA-N-P15-P15-P308-601502
     RDKit          3D

 24 26  0  0  0  0  0  0  0  0999 V2000
    4.7849   14.9237   22.8611 C   0  0  0  0  0  0  0  0  0  0  0  0
    4.6052   14.9033   24.2780 O   0  0  0  0  0  0  0  0  0  0  0  0
    5.7444   15.1960   24.9410 C   0  0  0  0  0  0  0  0  0  0  0  0
    6.8524   15.4096   24.4730 O   0  0  0  0  0  0  0  0  0  0  0  0
    5.4574   15.3356   26.3734 C   0  0  0  0  0  0  0  0  0  0  0  0
    5.3616   16.6819   26.7724 C   0  0  0  0  0  0  0  0  0  0  0  0
    5.1132   17.0071   28.0956 C   0  0  0  0  0  0  0  0  0  0  0  0
    5.0121   18.4440   28.5429 C   0  0  0  0  0  0  0  0  0  0  0  0
    6.1322   19.4198   28.2577 C   0  0  0  0  0  0  0  0  0  0  0  0
    5.9008   18.9430   29.6596 C   0  0  0  0  0  0  0  0  0  0  0  0
    4.9399   16.0275   29.0057 N   0  0  0  0  0  0  0  0  0  0  0  0
    5.0297   14.7343   28.5865 C   0  0  0  0  0  0  0  0  0  0  0  0
    5.3066   14.2861   27.2905 C   0  0  0  0  0  0  0  0  0  0  0  0
    5.4049   12.8791   27.0375 N   0  0  0  0  0  0  0  0  0  0  0  0
    4.5577   12.0749   27.8395 N   0  0  0  0  0  0  0  0  0  0  0  0
    6.3701   12.1963   26.2319 C   0  0  0  0  0  0  0  0  0  0  0  0
    6.2710   10.8363   25.8947 C   0  0  0  0  0  0  0  0  0  0  0  0
    7.2251   10.2105   25.0735 C   0  0  0  0  0  0  0  0  0  0  0  0
    8.2876   10.9300   24.5381 C   0  0  0  0  0  0  0  0  0  0  0  0
    9.2362   10.4401   23.6880 O   0  0  0  0  0  0  0  0  0  0  0  0
    9.1771    9.0695   23.3236 C   0  0  0  0  0  0  0  0  0  0  0  0
    8.4318   12.2710   24.8928 C   0  0  0  0  0  0  0  0  0  0  0  0
    9.5180   13.1322   24.3142 C   0  0  0  0  0  0  0  0  0  0  0  0
    7.5080   12.8579   25.7694 C   0  0  0  0  0  0  0  0  0  0  0  0
  1  2  1  0
  2  3  1  0
  3  4  2  0
  3  5  1  0
  5  6  2  0
  6  7  1  0
  7  8  1  0
  8  9  1  0
  9 10  1  0
  7 11  2  0
 11 12  1  0
 12 13  2  0
 13 14  1  0
 14 15  1  0
 14 16  1  0
 16 17  2  0
 17 18  1  0
 18 19  2  0
 19 20  1  0
 20 21  1  0
 19 22  1  0
 22 23  1  0
 22 24  2  0
 13  5  1  0
 24 16  1  0
 10  8  1  0
M  END
>  <energy_score>  (3440) 
-58.930705

>  <inchikey>  (3440) 
UVMXERZVLCLQPC-UHFFFAOYSA-N

>  <smiles>  (3440) 
COC(=O)c1cc(C2CC2)ncc1N(N)c1ccc(OC)c(C)c1

>  <ref_pdb>  (3440) 
A0514a

>  <alias>  (3440) 
UVMXERZVLCLQPC-UHFFFAOYSA-N-P15-P15-P308-601502

>  <HIPPO Pose ID>  (3440) 
502720

>  <name>  (3440) 
UVMXERZVLCLQPC-UHFFFAOYSA-N-P15-P15-P308-601502

>  <HIPPO Compound ID>  (3440) 
293074

>  <ref_mols>  (3440) 
A4331a,A0514a

>  <distance_score>  (3440) 
1.25954

>  <inspiration_score>  (3440) 
None

$$$$
UVMXERZVLCLQPC-UHFFFAOYSA-N-P308-P15-P308-601502
     RDKit          3D

 24 26  0  0  0  0  0  0  0  0999 V2000
    2.3397   14.2331   23.4737 C   0  0  0  0  0  0  0  0  0  0  0  0
    3.0489   14.4216   24.7006 O   0  0  0  0  0  0  0  0  0  0  0  0
    4.2960   14.9252   24.5225 C   0  0  0  0  0  0  0  0  0  0  0  0
    4.8934   15.0947   23.4741 O   0  0  0  0  0  0  0  0  0  0  0  0
    4.8229   15.3569   25.8223 C   0  0  0  0  0  0  0  0  0  0  0  0
    5.0122   16.7385   25.9614 C   0  0  0  0  0  0  0  0  0  0  0  0
    5.5432   17.2459   27.1403 C   0  0  0  0  0  0  0  0  0  0  0  0
    5.7744   18.7305   27.2904 C   0  0  0  0  0  0  0  0  0  0  0  0
    5.6798   19.3967   28.6429 C   0  0  0  0  0  0  0  0  0  0  0  0
    4.6099   19.6364   27.6204 C   0  0  0  0  0  0  0  0  0  0  0  0
    5.8793   16.4113   28.1553 N   0  0  0  0  0  0  0  0  0  0  0  0
    5.7007   15.0755   27.9852 C   0  0  0  0  0  0  0  0  0  0  0  0
    5.1846   14.4739   26.8433 C   0  0  0  0  0  0  0  0  0  0  0  0
    5.1553   13.0538   26.7582 N   0  0  0  0  0  0  0  0  0  0  0  0
    3.8675   12.4810   26.8208 N   0  0  0  0  0  0  0  0  0  0  0  0
    6.1690   12.3027   26.0770 C   0  0  0  0  0  0  0  0  0  0  0  0
    6.1180   10.9092   25.9389 C   0  0  0  0  0  0  0  0  0  0  0  0
    7.1431   10.2028   25.2858 C   0  0  0  0  0  0  0  0  0  0  0  0
    8.2506   10.8692   24.7626 C   0  0  0  0  0  0  0  0  0  0  0  0
    9.3138   10.2756   24.1379 O   0  0  0  0  0  0  0  0  0  0  0  0
    9.1665    8.9196   23.7393 C   0  0  0  0  0  0  0  0  0  0  0  0
    8.3278   12.2588   24.8965 C   0  0  0  0  0  0  0  0  0  0  0  0
    9.4868   13.0341   24.3409 C   0  0  0  0  0  0  0  0  0  0  0  0
    7.2973   12.9512   25.5487 C   0  0  0  0  0  0  0  0  0  0  0  0
  1  2  1  0
  2  3  1  0
  3  4  2  0
  3  5  1  0
  5  6  2  0
  6  7  1  0
  7  8  1  0
  8  9  1  0
  9 10  1  0
  7 11  2  0
 11 12  1  0
 12 13  2  0
 13 14  1  0
 14 15  1  0
 14 16  1  0
 16 17  2  0
 17 18  1  0
 18 19  2  0
 19 20  1  0
 20 21  1  0
 19 22  1  0
 22 23  1  0
 22 24  2  0
 13  5  1  0
 24 16  1  0
 10  8  1  0
M  END
>  <energy_score>  (3441) 
-61.92545

>  <inchikey>  (3441) 
UVMXERZVLCLQPC-UHFFFAOYSA-N

>  <smiles>  (3441) 
COC(=O)c1cc(C2CC2)ncc1N(N)c1ccc(OC)c(C)c1

>  <ref_pdb>  (3441) 
A0514a

>  <alias>  (3441) 
UVMXERZVLCLQPC-UHFFFAOYSA-N-P308-P15-P308-601502

>  <HIPPO Pose ID>  (3441) 
502721

>  <name>  (3441) 
UVMXERZVLCLQPC-UHFFFAOYSA-N-P308-P15-P308-601502

>  <HIPPO Compound ID>  (3441) 
293074

>  <ref_mols>  (3441) 
A4331a,A0514a

>  <distance_score>  (3441) 
1.404672

>  <inspiration_score>  (3441) 
None

$$$$
CIILEMQRCUUTMF-UHFFFAOYSA-N-P15-P15-P308-601502
     RDKit          3D

 24 26  0  0  0  0  0  0  0  0999 V2000
    9.5318    8.7202   23.0391 C   0  0  0  0  0  0  0  0  0  0  0  0
    8.7236    9.5865   23.8356 O   0  0  0  0  0  0  0  0  0  0  0  0
    9.0299   10.9004   23.7291 C   0  0  0  0  0  0  0  0  0  0  0  0
    9.9259   11.3627   23.0470 O   0  0  0  0  0  0  0  0  0  0  0  0
    8.1402   11.7130   24.5940 C   0  0  0  0  0  0  0  0  0  0  0  0
    7.2086   11.0756   25.4302 C   0  0  0  0  0  0  0  0  0  0  0  0
    6.4471   11.8362   26.3074 C   0  0  0  0  0  0  0  0  0  0  0  0
    5.4659   11.2191   27.2669 C   0  0  0  0  0  0  0  0  0  0  0  0
    4.2009   11.9669   27.6274 C   0  0  0  0  0  0  0  0  0  0  0  0
    5.3071   11.8609   28.6307 C   0  0  0  0  0  0  0  0  0  0  0  0
    6.6077   13.1790   26.3762 N   0  0  0  0  0  0  0  0  0  0  0  0
    7.4539   13.7836   25.5250 C   0  0  0  0  0  0  0  0  0  0  0  0
    8.2483   13.1089   24.6238 C   0  0  0  0  0  0  0  0  0  0  0  0
    8.9740   13.8935   23.7125 N   0  0  0  0  0  0  0  0  0  0  0  0
   10.3127   14.1019   23.9480 N   0  0  0  0  0  0  0  0  0  0  0  0
   10.8304   14.3700   22.7816 C   0  0  0  0  0  0  0  0  0  0  0  0
   12.2713   14.6187   22.5559 C   0  0  0  0  0  0  0  0  0  0  0  0
    9.8655   14.3829   21.6286 C   0  0  2  0  0  0  0  0  0  0  0  0
    9.7433   15.7389   20.9562 C   0  0  0  0  0  0  0  0  0  0  0  0
   10.2924   15.9173   19.5617 C   0  0  0  0  0  0  0  0  0  0  0  0
   10.1090   16.9189   18.8871 O   0  0  0  0  0  0  0  0  0  0  0  0
   11.0968   14.9524   19.1040 O   0  0  0  0  0  0  0  0  0  0  0  0
    8.6247   13.9304   22.3573 C   0  0  0  0  0  0  0  0  0  0  0  0
    7.5560   13.5975   21.8687 O   0  0  0  0  0  0  0  0  0  0  0  0
  1  2  1  0
  2  3  1  0
  3  4  2  0
  3  5  1  0
  5  6  2  0
  6  7  1  0
  7  8  1  0
  8  9  1  0
  9 10  1  0
  7 11  2  0
 11 12  1  0
 12 13  2  0
 13 14  1  0
 14 15  1  0
 15 16  2  0
 16 17  1  0
 16 18  1  0
 18 19  1  1
 19 20  1  0
 20 21  2  0
 20 22  1  0
 18 23  1  0
 23 24  2  0
 13  5  1  0
 23 14  1  0
 10  8  1  0
M  END
>  <energy_score>  (3442) 
-44.163906

>  <inchikey>  (3442) 
CIILEMQRCUUTMF-UHFFFAOYSA-N

>  <smiles>  (3442) 
COC(=O)c1cc(C2CC2)ncc1N1N=C(C)C(CC(=O)O)C1=O

>  <ref_pdb>  (3442) 
A0514a

>  <alias>  (3442) 
CIILEMQRCUUTMF-UHFFFAOYSA-N-P15-P15-P308-601502

>  <HIPPO Pose ID>  (3442) 
502730

>  <name>  (3442) 
CIILEMQRCUUTMF-UHFFFAOYSA-N-P15-P15-P308-601502

>  <HIPPO Compound ID>  (3442) 
293079

>  <ref_mols>  (3442) 
A4331a,A0514a

>  <distance_score>  (3442) 
1.493898

>  <inspiration_score>  (3442) 
None

$$$$
CIILEMQRCUUTMF-UHFFFAOYSA-N-P308-P15-P308-601502
     RDKit          3D

 24 26  0  0  0  0  0  0  0  0999 V2000
    9.1155    8.8470   23.4246 C   0  0  0  0  0  0  0  0  0  0  0  0
    8.2186    9.7220   24.1140 O   0  0  0  0  0  0  0  0  0  0  0  0
    8.7576   10.9339   24.3829 C   0  0  0  0  0  0  0  0  0  0  0  0
    9.9103   11.2670   24.1527 O   0  0  0  0  0  0  0  0  0  0  0  0
    7.7671   11.8151   25.0478 C   0  0  0  0  0  0  0  0  0  0  0  0
    6.8138   11.2749   25.9139 C   0  0  0  0  0  0  0  0  0  0  0  0
    6.1099   12.1437   26.7462 C   0  0  0  0  0  0  0  0  0  0  0  0
    5.1955   11.7217   27.8481 C   0  0  0  0  0  0  0  0  0  0  0  0
    4.2877   10.5406   27.7920 C   0  0  0  0  0  0  0  0  0  0  0  0
    3.7239   11.9274   27.6199 C   0  0  0  0  0  0  0  0  0  0  0  0
    6.3086   13.4806   26.7134 N   0  0  0  0  0  0  0  0  0  0  0  0
    7.1950   13.9823   25.8466 C   0  0  0  0  0  0  0  0  0  0  0  0
    7.9325   13.2007   24.9911 C   0  0  0  0  0  0  0  0  0  0  0  0
    8.7700   13.8415   24.0916 N   0  0  0  0  0  0  0  0  0  0  0  0
    9.8153   14.5669   24.5625 N   0  0  0  0  0  0  0  0  0  0  0  0
   10.5393   14.8205   23.5158 C   0  0  0  0  0  0  0  0  0  0  0  0
   11.8229   15.5350   23.6135 C   0  0  0  0  0  0  0  0  0  0  0  0
   10.0162   14.2527   22.2208 C   0  0  2  0  0  0  0  0  0  0  0  0
    9.8890   15.2625   21.0949 C   0  0  0  0  0  0  0  0  0  0  0  0
   11.0454   15.1173   20.1348 C   0  0  0  0  0  0  0  0  0  0  0  0
   10.9933   14.7956   18.9633 O   0  0  0  0  0  0  0  0  0  0  0  0
   12.2262   15.3890   20.7230 O   0  0  0  0  0  0  0  0  0  0  0  0
    8.7026   13.7024   22.7132 C   0  0  0  0  0  0  0  0  0  0  0  0
    7.7723   13.2334   22.0790 O   0  0  0  0  0  0  0  0  0  0  0  0
  1  2  1  0
  2  3  1  0
  3  4  2  0
  3  5  1  0
  5  6  2  0
  6  7  1  0
  7  8  1  0
  8  9  1  0
  9 10  1  0
  7 11  2  0
 11 12  1  0
 12 13  2  0
 13 14  1  0
 14 15  1  0
 15 16  2  0
 16 17  1  0
 16 18  1  0
 18 19  1  6
 19 20  1  0
 20 21  2  0
 20 22  1  0
 18 23  1  0
 23 24  2  0
 13  5  1  0
 23 14  1  0
 10  8  1  0
M  END
>  <energy_score>  (3443) 
-48.338948

>  <inchikey>  (3443) 
CIILEMQRCUUTMF-UHFFFAOYSA-N

>  <smiles>  (3443) 
COC(=O)c1cc(C2CC2)ncc1N1N=C(C)C(CC(=O)O)C1=O

>  <ref_pdb>  (3443) 
A0514a

>  <alias>  (3443) 
CIILEMQRCUUTMF-UHFFFAOYSA-N-P308-P15-P308-601502

>  <HIPPO Pose ID>  (3443) 
502731

>  <name>  (3443) 
CIILEMQRCUUTMF-UHFFFAOYSA-N-P308-P15-P308-601502

>  <HIPPO Compound ID>  (3443) 
293079

>  <ref_mols>  (3443) 
A4331a,A0514a

>  <distance_score>  (3443) 
1.545459

>  <inspiration_score>  (3443) 
None

$$$$
XDLSJCYXVPEYKR-UHFFFAOYSA-N-P15-P15-P308-601502
     RDKit          3D

 24 26  0  0  0  0  0  0  0  0999 V2000
    9.2932    8.6535   23.0541 C   0  0  0  0  0  0  0  0  0  0  0  0
    8.3909    9.4113   23.8662 O   0  0  0  0  0  0  0  0  0  0  0  0
    8.7496   10.7058   24.0186 C   0  0  0  0  0  0  0  0  0  0  0  0
    9.7658   11.2081   23.5680 O   0  0  0  0  0  0  0  0  0  0  0  0
    7.7703   11.4405   24.8636 C   0  0  0  0  0  0  0  0  0  0  0  0
    6.8549   10.7375   25.6500 C   0  0  0  0  0  0  0  0  0  0  0  0
    6.0817   11.4388   26.5678 C   0  0  0  0  0  0  0  0  0  0  0  0
    5.0917   10.7635   27.4685 C   0  0  0  0  0  0  0  0  0  0  0  0
    5.0552   11.1439   28.9296 C   0  0  0  0  0  0  0  0  0  0  0  0
    3.9467   11.5885   28.0264 C   0  0  0  0  0  0  0  0  0  0  0  0
    6.2215   12.7774   26.7357 N   0  0  0  0  0  0  0  0  0  0  0  0
    7.0512   13.4488   25.9309 C   0  0  0  0  0  0  0  0  0  0  0  0
    7.8278   12.8364   24.9778 C   0  0  0  0  0  0  0  0  0  0  0  0
    8.5605   13.6803   24.1425 N   0  0  0  0  0  0  0  0  0  0  0  0
    9.8092   14.0086   24.5856 N   0  0  0  0  0  0  0  0  0  0  0  0
   10.5260   14.1479   23.5099 C   0  0  0  0  0  0  0  0  0  0  0  0
   11.9853   14.3227   23.5940 C   0  0  0  0  0  0  0  0  0  0  0  0
    9.7915   13.9659   22.2084 C   0  0  2  0  0  0  0  0  0  0  0  0
    9.5547   15.1117   21.2439 C   0  0  0  0  0  0  0  0  0  0  0  0
   10.7628   15.6875   20.5149 C   0  0  2  0  0  0  0  0  0  0  0  0
   10.7928   15.4008   19.0231 C   0  0  0  0  0  0  0  0  0  0  0  0
   11.9802   15.2455   21.0856 O   0  0  0  0  0  0  0  0  0  0  0  0
    8.4548   13.5676   22.7593 C   0  0  0  0  0  0  0  0  0  0  0  0
    7.4772   13.1997   22.1256 O   0  0  0  0  0  0  0  0  0  0  0  0
  1  2  1  0
  2  3  1  0
  3  4  2  0
  3  5  1  0
  5  6  2  0
  6  7  1  0
  7  8  1  0
  8  9  1  0
  9 10  1  0
  7 11  2  0
 11 12  1  0
 12 13  2  0
 13 14  1  0
 14 15  1  0
 15 16  2  0
 16 17  1  0
 16 18  1  0
 18 19  1  1
 19 20  1  0
 20 21  1  6
 20 22  1  0
 18 23  1  0
 23 24  2  0
 13  5  1  0
 23 14  1  0
 10  8  1  0
M  END
>  <energy_score>  (3444) 
-26.816743

>  <inchikey>  (3444) 
XDLSJCYXVPEYKR-UHFFFAOYSA-N

>  <smiles>  (3444) 
COC(=O)c1cc(C2CC2)ncc1N1N=C(C)C(CC(C)O)C1=O

>  <ref_pdb>  (3444) 
A0514a

>  <alias>  (3444) 
XDLSJCYXVPEYKR-UHFFFAOYSA-N-P15-P15-P308-601502

>  <HIPPO Pose ID>  (3444) 
502734

>  <name>  (3444) 
XDLSJCYXVPEYKR-UHFFFAOYSA-N-P15-P15-P308-601502

>  <HIPPO Compound ID>  (3444) 
293081

>  <ref_mols>  (3444) 
A4331a,A0514a

>  <distance_score>  (3444) 
1.687862

>  <inspiration_score>  (3444) 
None

$$$$
XDLSJCYXVPEYKR-UHFFFAOYSA-N-P308-P15-P308-601502
     RDKit          3D

 24 26  0  0  0  0  0  0  0  0999 V2000
    9.2363    8.5814   23.1569 C   0  0  0  0  0  0  0  0  0  0  0  0
    8.3294    9.3636   23.9328 O   0  0  0  0  0  0  0  0  0  0  0  0
    8.8387   10.5678   24.2765 C   0  0  0  0  0  0  0  0  0  0  0  0
    9.9767   10.9497   24.0549 O   0  0  0  0  0  0  0  0  0  0  0  0
    7.8187   11.3820   24.9795 C   0  0  0  0  0  0  0  0  0  0  0  0
    6.7690   10.7849   25.6764 C   0  0  0  0  0  0  0  0  0  0  0  0
    5.9669   11.5868   26.4824 C   0  0  0  0  0  0  0  0  0  0  0  0
    4.8380   11.0374   27.3063 C   0  0  0  0  0  0  0  0  0  0  0  0
    4.6482   11.5377   28.7216 C   0  0  0  0  0  0  0  0  0  0  0  0
    3.6875   11.9639   27.6571 C   0  0  0  0  0  0  0  0  0  0  0  0
    6.2047   12.9161   26.6216 N   0  0  0  0  0  0  0  0  0  0  0  0
    7.1853   13.4805   25.9082 C   0  0  0  0  0  0  0  0  0  0  0  0
    7.9945   12.7630   25.0635 C   0  0  0  0  0  0  0  0  0  0  0  0
    8.8766   13.4525   24.2519 N   0  0  0  0  0  0  0  0  0  0  0  0
    9.8366   14.2328   24.8032 N   0  0  0  0  0  0  0  0  0  0  0  0
   10.4899   14.7130   23.7894 C   0  0  0  0  0  0  0  0  0  0  0  0
   11.6816   15.5594   23.9797 C   0  0  0  0  0  0  0  0  0  0  0  0
    9.9560   14.3068   22.4310 C   0  0  2  0  0  0  0  0  0  0  0  0
    9.6171   15.4751   21.5161 C   0  0  0  0  0  0  0  0  0  0  0  0
   10.7871   15.9541   20.6402 C   0  0  2  0  0  0  0  0  0  0  0  0
   10.7293   15.4399   19.2118 C   0  0  0  0  0  0  0  0  0  0  0  0
   12.0352   15.5925   21.2161 O   0  0  0  0  0  0  0  0  0  0  0  0
    8.7238   13.5660   22.8754 C   0  0  0  0  0  0  0  0  0  0  0  0
    7.7815   13.1768   22.2030 O   0  0  0  0  0  0  0  0  0  0  0  0
  1  2  1  0
  2  3  1  0
  3  4  2  0
  3  5  1  0
  5  6  2  0
  6  7  1  0
  7  8  1  0
  8  9  1  0
  9 10  1  0
  7 11  2  0
 11 12  1  0
 12 13  2  0
 13 14  1  0
 14 15  1  0
 15 16  2  0
 16 17  1  0
 16 18  1  0
 18 19  1  6
 19 20  1  0
 20 21  1  6
 20 22  1  0
 18 23  1  0
 23 24  2  0
 13  5  1  0
 23 14  1  0
 10  8  1  0
M  END
>  <energy_score>  (3445) 
-36.222069

>  <inchikey>  (3445) 
XDLSJCYXVPEYKR-UHFFFAOYSA-N

>  <smiles>  (3445) 
COC(=O)c1cc(C2CC2)ncc1N1N=C(C)C(CC(C)O)C1=O

>  <ref_pdb>  (3445) 
A0514a

>  <alias>  (3445) 
XDLSJCYXVPEYKR-UHFFFAOYSA-N-P308-P15-P308-601502

>  <HIPPO Pose ID>  (3445) 
502735

>  <name>  (3445) 
XDLSJCYXVPEYKR-UHFFFAOYSA-N-P308-P15-P308-601502

>  <HIPPO Compound ID>  (3445) 
293081

>  <ref_mols>  (3445) 
A4331a,A0514a

>  <distance_score>  (3445) 
1.603674

>  <inspiration_score>  (3445) 
None

$$$$
MQDGWVGQZCICHP-UHFFFAOYSA-N-P308-P15-P308-601502
     RDKit          3D

 24 26  0  0  0  0  0  0  0  0999 V2000
    9.9389   12.1088   22.4946 C   0  0  0  0  0  0  0  0  0  0  0  0
    8.5196   12.3199   22.7173 O   0  0  0  0  0  0  0  0  0  0  0  0
    7.9971   13.5661   22.8156 C   0  0  0  0  0  0  0  0  0  0  0  0
    6.8365   13.8349   22.5613 O   0  0  0  0  0  0  0  0  0  0  0  0
    9.0145   14.5492   23.1590 C   0  0  0  0  0  0  0  0  0  0  0  0
    9.4181   15.3017   22.0469 C   0  0  0  0  0  0  0  0  0  0  0  0
   10.7236   15.7451   22.0009 C   0  0  0  0  0  0  0  0  0  0  0  0
   11.3909   16.1620   20.7204 C   0  0  0  0  0  0  0  0  0  0  0  0
   11.8540   15.0643   19.7865 C   0  0  0  0  0  0  0  0  0  0  0  0
   10.7896   16.0106   19.3429 C   0  0  0  0  0  0  0  0  0  0  0  0
   11.5063   15.6604   23.1048 N   0  0  0  0  0  0  0  0  0  0  0  0
   11.0245   15.0410   24.2127 C   0  0  0  0  0  0  0  0  0  0  0  0
    9.7901   14.3990   24.3130 C   0  0  0  0  0  0  0  0  0  0  0  0
    9.4923   13.5285   25.4310 N   0  0  0  0  0  0  0  0  0  0  0  0
    9.8332   14.1178   26.6846 N   0  0  0  0  0  0  0  0  0  0  0  0
    8.3475   12.6342   25.5499 C   0  0  0  0  0  0  0  0  0  0  0  0
    7.1266   13.1677   26.0205 C   0  0  0  0  0  0  0  0  0  0  0  0
    6.0123   12.3539   26.2745 C   0  0  0  0  0  0  0  0  0  0  0  0
    4.7457   12.9434   26.8132 C   0  0  0  0  0  0  0  0  0  0  0  0
    6.0772   10.9949   25.9815 C   0  0  0  0  0  0  0  0  0  0  0  0
    7.2439   10.4438   25.4673 C   0  0  0  0  0  0  0  0  0  0  0  0
    8.3906   11.2294   25.2684 C   0  0  0  0  0  0  0  0  0  0  0  0
    9.5627   10.6403   24.8370 O   0  0  0  0  0  0  0  0  0  0  0  0
    9.4281    9.4159   24.0927 C   0  0  0  0  0  0  0  0  0  0  0  0
  1  2  1  0
  2  3  1  0
  3  4  2  0
  3  5  1  0
  5  6  2  0
  6  7  1  0
  7  8  1  0
  8  9  1  0
  9 10  1  0
  7 11  2  0
 11 12  1  0
 12 13  2  0
 13 14  1  0
 14 15  1  0
 14 16  1  0
 16 17  2  0
 17 18  1  0
 18 19  1  0
 18 20  2  0
 20 21  1  0
 21 22  2  0
 22 23  1  0
 23 24  1  0
 13  5  1  0
 22 16  1  0
 10  8  1  0
M  END
>  <energy_score>  (3446) 
-11.19662

>  <inchikey>  (3446) 
MQDGWVGQZCICHP-UHFFFAOYSA-N

>  <smiles>  (3446) 
COC(=O)c1cc(C2CC2)ncc1N(N)c1cc(C)ccc1OC

>  <ref_pdb>  (3446) 
A0514a

>  <alias>  (3446) 
MQDGWVGQZCICHP-UHFFFAOYSA-N-P308-P15-P308-601502

>  <HIPPO Pose ID>  (3446) 
502741

>  <name>  (3446) 
MQDGWVGQZCICHP-UHFFFAOYSA-N-P308-P15-P308-601502

>  <HIPPO Compound ID>  (3446) 
293084

>  <ref_mols>  (3446) 
A4331a,A0514a

>  <distance_score>  (3446) 
1.226354

>  <inspiration_score>  (3446) 
None

$$$$
IMDCXAIDELZSFJ-UHFFFAOYSA-N-P308-P15-P308-601502
     RDKit          3D

 24 26  0  0  0  0  0  0  0  0999 V2000
    9.2068    8.4008   23.2337 C   0  0  0  0  0  0  0  0  0  0  0  0
    8.3072    9.3842   23.7306 O   0  0  0  0  0  0  0  0  0  0  0  0
    8.8846   10.2589   24.5793 C   0  0  0  0  0  0  0  0  0  0  0  0
   10.0151   10.2355   25.0260 O   0  0  0  0  0  0  0  0  0  0  0  0
    7.9048   11.3226   24.8112 C   0  0  0  0  0  0  0  0  0  0  0  0
    6.9715   11.0796   25.8096 C   0  0  0  0  0  0  0  0  0  0  0  0
    6.0791   12.0724   26.1727 C   0  0  0  0  0  0  0  0  0  0  0  0
    5.1429   11.8809   27.3321 C   0  0  0  0  0  0  0  0  0  0  0  0
    3.9274   12.7580   27.4951 C   0  0  0  0  0  0  0  0  0  0  0  0
    5.1104   12.9576   28.3954 C   0  0  0  0  0  0  0  0  0  0  0  0
    6.0611   13.2477   25.5195 N   0  0  0  0  0  0  0  0  0  0  0  0
    6.9116   13.4151   24.4902 C   0  0  0  0  0  0  0  0  0  0  0  0
    7.9122   12.5269   24.1102 C   0  0  0  0  0  0  0  0  0  0  0  0
    8.8235   12.8922   23.0835 N   0  0  0  0  0  0  0  0  0  0  0  0
    9.8553   11.9760   22.8145 N   0  0  0  0  0  0  0  0  0  0  0  0
    9.3858   14.2026   22.9626 C   0  0  0  0  0  0  0  0  0  0  0  0
    9.7614   14.8360   24.1242 C   0  0  0  0  0  0  0  0  0  0  0  0
   10.7500   15.7712   24.0230 C   0  0  0  0  0  0  0  0  0  0  0  0
   11.2769   16.2756   25.3369 C   0  0  0  0  0  0  0  0  0  0  0  0
   11.2967   16.1182   22.8370 N   0  0  0  0  0  0  0  0  0  0  0  0
   10.7945   15.5181   21.7276 C   0  0  0  0  0  0  0  0  0  0  0  0
   11.3330   15.8730   20.3527 C   0  0  0  0  0  0  0  0  0  0  0  0
   11.3369   14.7778   19.4200 O   0  0  0  0  0  0  0  0  0  0  0  0
    9.8593   14.5564   21.7538 N   0  0  0  0  0  0  0  0  0  0  0  0
  1  2  1  0
  2  3  1  0
  3  4  2  0
  3  5  1  0
  5  6  2  0
  6  7  1  0
  7  8  1  0
  8  9  1  0
  9 10  1  0
  7 11  2  0
 11 12  1  0
 12 13  2  0
 13 14  1  0
 14 15  1  0
 14 16  1  0
 16 17  2  0
 17 18  1  0
 18 19  1  0
 18 20  2  0
 20 21  1  0
 21 22  1  0
 22 23  1  0
 21 24  2  0
 13  5  1  0
 24 16  1  0
 10  8  1  0
M  END
>  <energy_score>  (3447) 
-40.392596

>  <inchikey>  (3447) 
IMDCXAIDELZSFJ-UHFFFAOYSA-N

>  <smiles>  (3447) 
COC(=O)c1cc(C2CC2)ncc1N(N)c1cc(C)nc(CO)n1

>  <ref_pdb>  (3447) 
A0514a

>  <alias>  (3447) 
IMDCXAIDELZSFJ-UHFFFAOYSA-N-P308-P15-P308-601502

>  <HIPPO Pose ID>  (3447) 
502755

>  <name>  (3447) 
IMDCXAIDELZSFJ-UHFFFAOYSA-N-P308-P15-P308-601502

>  <HIPPO Compound ID>  (3447) 
293091

>  <ref_mols>  (3447) 
A4331a,A0514a

>  <distance_score>  (3447) 
1.744395

>  <inspiration_score>  (3447) 
None

$$$$
RQTLCXFIDWKKIX-UHFFFAOYSA-N-P15-P15-P308-601502
     RDKit          3D

 24 25  0  0  0  0  0  0  0  0999 V2000
    9.3480    8.7660   23.0526 C   0  0  0  0  0  0  0  0  0  0  0  0
    8.4630    9.6018   23.8066 O   0  0  0  0  0  0  0  0  0  0  0  0
    8.8280   10.9066   23.8403 C   0  0  0  0  0  0  0  0  0  0  0  0
    9.8373   11.3645   23.3408 O   0  0  0  0  0  0  0  0  0  0  0  0
    7.8675   11.6877   24.6596 C   0  0  0  0  0  0  0  0  0  0  0  0
    7.1494   11.0303   25.6567 C   0  0  0  0  0  0  0  0  0  0  0  0
    6.3138   11.7631   26.4933 C   0  0  0  0  0  0  0  0  0  0  0  0
    5.4218   11.0494   27.4749 C   0  0  0  0  0  0  0  0  0  0  0  0
    4.3093   11.7660   27.7983 F   0  0  0  0  0  0  0  0  0  0  0  0
    4.9625    9.8531   27.0135 F   0  0  0  0  0  0  0  0  0  0  0  0
    6.0450   10.7701   28.6566 F   0  0  0  0  0  0  0  0  0  0  0  0
    6.2495   13.1117   26.4574 N   0  0  0  0  0  0  0  0  0  0  0  0
    6.8670   13.7036   25.4286 C   0  0  0  0  0  0  0  0  0  0  0  0
    7.6477   13.0553   24.4760 C   0  0  0  0  0  0  0  0  0  0  0  0
    7.9431   13.7830   23.3113 N   0  0  0  0  0  0  0  0  0  0  0  0
    6.9751   13.6433   22.3011 N   0  0  0  0  0  0  0  0  0  0  0  0
    9.2231   14.2068   22.9012 C   0  0  0  0  0  0  0  0  0  0  0  0
   10.2385   14.0803   23.7552 N   0  0  0  0  0  0  0  0  0  0  0  0
   11.4638   14.1957   23.2326 C   0  0  0  0  0  0  0  0  0  0  0  0
   12.5098   13.6062   24.1034 C   0  0  0  0  0  0  0  0  0  0  0  0
   11.7009   14.6845   21.9613 C   0  0  0  0  0  0  0  0  0  0  0  0
   10.5812   14.9698   21.2081 C   0  0  0  0  0  0  0  0  0  0  0  0
   10.6580   15.6173   19.8651 C   0  0  0  0  0  0  0  0  0  0  0  0
    9.3432   14.7219   21.6632 N   0  0  0  0  0  0  0  0  0  0  0  0
  1  2  1  0
  2  3  1  0
  3  4  2  0
  3  5  1  0
  5  6  2  0
  6  7  1  0
  7  8  1  0
  8  9  1  0
  8 10  1  0
  8 11  1  0
  7 12  2  0
 12 13  1  0
 13 14  2  0
 14 15  1  0
 15 16  1  0
 15 17  1  0
 17 18  2  0
 18 19  1  0
 19 20  1  0
 19 21  2  0
 21 22  1  0
 22 23  1  0
 22 24  2  0
 14  5  1  0
 24 17  1  0
M  END
>  <energy_score>  (3448) 
-46.498936

>  <inchikey>  (3448) 
RQTLCXFIDWKKIX-UHFFFAOYSA-N

>  <smiles>  (3448) 
COC(=O)c1cc(C(F)(F)F)ncc1N(N)c1nc(C)cc(C)n1

>  <ref_pdb>  (3448) 
A0514a

>  <alias>  (3448) 
RQTLCXFIDWKKIX-UHFFFAOYSA-N-P15-P15-P308-601502

>  <HIPPO Pose ID>  (3448) 
502758

>  <name>  (3448) 
RQTLCXFIDWKKIX-UHFFFAOYSA-N-P15-P15-P308-601502

>  <HIPPO Compound ID>  (3448) 
293093

>  <ref_mols>  (3448) 
A4331a,A0514a

>  <distance_score>  (3448) 
1.63436

>  <inspiration_score>  (3448) 
None

$$$$
RQTLCXFIDWKKIX-UHFFFAOYSA-N-P308-P15-P308-601502
     RDKit          3D

 24 25  0  0  0  0  0  0  0  0999 V2000
    9.1780   10.2119   23.5793 C   0  0  0  0  0  0  0  0  0  0  0  0
   10.0299   11.0740   24.3359 O   0  0  0  0  0  0  0  0  0  0  0  0
    9.5307   12.1100   25.0448 C   0  0  0  0  0  0  0  0  0  0  0  0
   10.2265   12.7173   25.8546 O   0  0  0  0  0  0  0  0  0  0  0  0
    8.1026   12.4663   24.9448 C   0  0  0  0  0  0  0  0  0  0  0  0
    7.3170   11.8884   25.9456 C   0  0  0  0  0  0  0  0  0  0  0  0
    6.0402   12.3709   26.2013 C   0  0  0  0  0  0  0  0  0  0  0  0
    5.2156   11.8321   27.3369 C   0  0  0  0  0  0  0  0  0  0  0  0
    5.2637   10.4783   27.4050 F   0  0  0  0  0  0  0  0  0  0  0  0
    3.8869   12.1369   27.2793 F   0  0  0  0  0  0  0  0  0  0  0  0
    5.6450   12.2722   28.5554 F   0  0  0  0  0  0  0  0  0  0  0  0
    5.5137   13.3622   25.4754 N   0  0  0  0  0  0  0  0  0  0  0  0
    6.2257   13.7684   24.4127 C   0  0  0  0  0  0  0  0  0  0  0  0
    7.5307   13.3854   24.0724 C   0  0  0  0  0  0  0  0  0  0  0  0
    8.0856   13.8868   22.8812 N   0  0  0  0  0  0  0  0  0  0  0  0
    7.1542   14.1477   21.8472 N   0  0  0  0  0  0  0  0  0  0  0  0
    9.3926   14.3501   22.6045 C   0  0  0  0  0  0  0  0  0  0  0  0
   10.3071   14.3727   23.5590 N   0  0  0  0  0  0  0  0  0  0  0  0
   11.5375   14.7773   23.2266 C   0  0  0  0  0  0  0  0  0  0  0  0
   12.5288   14.5786   24.3131 C   0  0  0  0  0  0  0  0  0  0  0  0
   11.8625   15.2410   21.9675 C   0  0  0  0  0  0  0  0  0  0  0  0
   10.8587   15.1922   21.0271 C   0  0  0  0  0  0  0  0  0  0  0  0
   11.0797   15.6068   19.6059 C   0  0  0  0  0  0  0  0  0  0  0  0
    9.6231   14.7711   21.3420 N   0  0  0  0  0  0  0  0  0  0  0  0
  1  2  1  0
  2  3  1  0
  3  4  2  0
  3  5  1  0
  5  6  2  0
  6  7  1  0
  7  8  1  0
  8  9  1  0
  8 10  1  0
  8 11  1  0
  7 12  2  0
 12 13  1  0
 13 14  2  0
 14 15  1  0
 15 16  1  0
 15 17  1  0
 17 18  2  0
 18 19  1  0
 19 20  1  0
 19 21  2  0
 21 22  1  0
 22 23  1  0
 22 24  2  0
 14  5  1  0
 24 17  1  0
M  END
>  <energy_score>  (3449) 
-41.506427

>  <inchikey>  (3449) 
RQTLCXFIDWKKIX-UHFFFAOYSA-N

>  <smiles>  (3449) 
COC(=O)c1cc(C(F)(F)F)ncc1N(N)c1nc(C)cc(C)n1

>  <ref_pdb>  (3449) 
A0514a

>  <alias>  (3449) 
RQTLCXFIDWKKIX-UHFFFAOYSA-N-P308-P15-P308-601502

>  <HIPPO Pose ID>  (3449) 
502759

>  <name>  (3449) 
RQTLCXFIDWKKIX-UHFFFAOYSA-N-P308-P15-P308-601502

>  <HIPPO Compound ID>  (3449) 
293093

>  <ref_mols>  (3449) 
A4331a,A0514a

>  <distance_score>  (3449) 
1.797314

>  <inspiration_score>  (3449) 
None

$$$$
QUWZOGLPPYKPTB-UHFFFAOYSA-N-P126-P126-P177-601502
     RDKit          3D

 21 23  0  0  0  0  0  0  0  0999 V2000
   11.7270   14.4622   18.5620 C   0  0  0  0  0  0  0  0  0  0  0  0
   10.8983   14.9926   19.6363 C   0  0  0  0  0  0  0  0  0  0  0  0
    9.8845   15.8437   19.3011 O   0  0  0  0  0  0  0  0  0  0  0  0
    9.3975   16.2404   20.5030 C   0  0  0  0  0  0  0  0  0  0  0  0
    9.9413   15.6430   21.5355 N   0  0  0  0  0  0  0  0  0  0  0  0
   10.9749   14.9234   21.0037 C   0  0  0  0  0  0  0  0  0  0  0  0
   11.9835   14.2590   21.8563 C   0  0  0  0  0  0  0  0  0  0  0  0
   11.3015   13.2318   22.5620 N   0  0  0  0  0  0  0  0  0  0  0  0
   10.6614   13.2361   23.9503 C   0  0  0  0  0  0  0  0  0  0  0  0
   10.6539   14.0569   24.7759 O   0  0  0  0  0  0  0  0  0  0  0  0
    9.9011   11.9903   24.0860 C   0  0  0  0  0  0  0  0  0  0  0  0
   10.2038   10.9263   23.3242 N   0  0  0  0  0  0  0  0  0  0  0  0
    9.3589    9.9696   23.7305 N   0  0  0  0  0  0  0  0  0  0  0  0
    9.4366    8.6821   23.0846 C   0  0  0  0  0  0  0  0  0  0  0  0
    8.4848   10.3887   24.7050 C   0  0  0  0  0  0  0  0  0  0  0  0
    7.4598    9.7418   25.4038 C   0  0  0  0  0  0  0  0  0  0  0  0
    6.7171   10.4890   26.3213 C   0  0  0  0  0  0  0  0  0  0  0  0
    6.9967   11.8332   26.5253 C   0  0  0  0  0  0  0  0  0  0  0  0
    6.2757   12.5199   27.4219 F   0  0  0  0  0  0  0  0  0  0  0  0
    8.0271   12.4752   25.8438 C   0  0  0  0  0  0  0  0  0  0  0  0
    8.7934   11.7293   24.9289 C   0  0  0  0  0  0  0  0  0  0  0  0
  1  2  1  0
  2  3  1  0
  3  4  1  0
  4  5  2  0
  5  6  1  0
  6  7  1  0
  7  8  1  0
  8  9  1  0
  9 10  2  0
  9 11  1  0
 11 12  2  0
 12 13  1  0
 13 14  1  0
 13 15  1  0
 15 16  2  0
 16 17  1  0
 17 18  2  0
 18 19  1  0
 18 20  1  0
 20 21  2  0
  6  2  2  0
 21 11  1  0
 21 15  1  0
M  END
>  <energy_score>  (3450) 
-11.772528

>  <inchikey>  (3450) 
QUWZOGLPPYKPTB-UHFFFAOYSA-N

>  <smiles>  (3450) 
Cc1ocnc1CNC(=O)c1nn(C)c2ccc(F)cc12

>  <ref_pdb>  (3450) 
A0514a

>  <alias>  (3450) 
QUWZOGLPPYKPTB-UHFFFAOYSA-N-P126-P126-P177-601502

>  <HIPPO Pose ID>  (3450) 
502760

>  <name>  (3450) 
QUWZOGLPPYKPTB-UHFFFAOYSA-N-P126-P126-P177-601502

>  <HIPPO Compound ID>  (3450) 
299198

>  <ref_mols>  (3450) 
A3403a,A2290a

>  <distance_score>  (3450) 
0.778772

>  <inspiration_score>  (3450) 
None

$$$$
QUWZOGLPPYKPTB-UHFFFAOYSA-N-P177-P126-P177-601502
     RDKit          3D

 21 23  0  0  0  0  0  0  0  0999 V2000
   11.4320   14.7974   18.4249 C   0  0  0  0  0  0  0  0  0  0  0  0
   10.6909   15.3907   19.5361 C   0  0  0  0  0  0  0  0  0  0  0  0
    9.7100   16.2949   19.2497 O   0  0  0  0  0  0  0  0  0  0  0  0
    9.2711   16.6926   20.4771 C   0  0  0  0  0  0  0  0  0  0  0  0
    9.8524   16.0931   21.4876 N   0  0  0  0  0  0  0  0  0  0  0  0
   10.7950   15.2881   20.9007 C   0  0  0  0  0  0  0  0  0  0  0  0
   11.7546   14.4976   21.6922 C   0  0  0  0  0  0  0  0  0  0  0  0
   11.0209   13.5232   22.4173 N   0  0  0  0  0  0  0  0  0  0  0  0
   10.4276   13.5705   23.8263 C   0  0  0  0  0  0  0  0  0  0  0  0
   10.5086   14.3866   24.6531 O   0  0  0  0  0  0  0  0  0  0  0  0
    9.6369   12.3450   24.0118 C   0  0  0  0  0  0  0  0  0  0  0  0
    9.8635   11.2635   23.2461 N   0  0  0  0  0  0  0  0  0  0  0  0
    9.0102   10.3381   23.6973 N   0  0  0  0  0  0  0  0  0  0  0  0
    9.0470    9.0164   23.1176 C   0  0  0  0  0  0  0  0  0  0  0  0
    8.1860   10.7980   24.6922 C   0  0  0  0  0  0  0  0  0  0  0  0
    7.1484   10.1983   25.4075 C   0  0  0  0  0  0  0  0  0  0  0  0
    6.5030   10.9590   26.3836 C   0  0  0  0  0  0  0  0  0  0  0  0
    6.8870   12.2705   26.6231 C   0  0  0  0  0  0  0  0  0  0  0  0
    6.2616   12.9677   27.5813 F   0  0  0  0  0  0  0  0  0  0  0  0
    7.9194   12.8713   25.9085 C   0  0  0  0  0  0  0  0  0  0  0  0
    8.5820   12.1135   24.9272 C   0  0  0  0  0  0  0  0  0  0  0  0
  1  2  1  0
  2  3  1  0
  3  4  1  0
  4  5  2  0
  5  6  1  0
  6  7  1  0
  7  8  1  0
  8  9  1  0
  9 10  2  0
  9 11  1  0
 11 12  2  0
 12 13  1  0
 13 14  1  0
 13 15  1  0
 15 16  2  0
 16 17  1  0
 17 18  2  0
 18 19  1  0
 18 20  1  0
 20 21  2  0
  6  2  2  0
 21 11  1  0
 21 15  1  0
M  END
>  <energy_score>  (3451) 
-12.97026

>  <inchikey>  (3451) 
QUWZOGLPPYKPTB-UHFFFAOYSA-N

>  <smiles>  (3451) 
Cc1ocnc1CNC(=O)c1nn(C)c2ccc(F)cc12

>  <ref_pdb>  (3451) 
A0514a

>  <alias>  (3451) 
QUWZOGLPPYKPTB-UHFFFAOYSA-N-P177-P126-P177-601502

>  <HIPPO Pose ID>  (3451) 
502761

>  <name>  (3451) 
QUWZOGLPPYKPTB-UHFFFAOYSA-N-P177-P126-P177-601502

>  <HIPPO Compound ID>  (3451) 
299198

>  <ref_mols>  (3451) 
A3403a,A2290a

>  <distance_score>  (3451) 
0.724782

>  <inspiration_score>  (3451) 
None

$$$$
BTHPZERUKSCASQ-UHFFFAOYSA-N-P126-P126-P177-601502
     RDKit          3D

 21 23  0  0  0  0  0  0  0  0999 V2000
   12.8001   14.8748   22.1449 C   0  0  0  0  0  0  0  0  0  0  0  0
   11.8268   14.0588   21.3458 C   0  0  1  0  0  0  0  0  0  0  0  0
   11.1427   13.1041   22.1592 N   0  0  0  0  0  0  0  0  0  0  0  0
   10.5821   13.2256   23.5823 C   0  0  0  0  0  0  0  0  0  0  0  0
   10.6546   14.0986   24.3514 O   0  0  0  0  0  0  0  0  0  0  0  0
    9.8609   11.9847   23.8732 C   0  0  0  0  0  0  0  0  0  0  0  0
   10.1578   10.8725   23.1841 N   0  0  0  0  0  0  0  0  0  0  0  0
    9.3355    9.9394   23.6736 N   0  0  0  0  0  0  0  0  0  0  0  0
    9.3848    8.6274   23.0790 C   0  0  0  0  0  0  0  0  0  0  0  0
    8.4998   10.4070   24.6592 C   0  0  0  0  0  0  0  0  0  0  0  0
    7.4953    9.7960   25.4189 C   0  0  0  0  0  0  0  0  0  0  0  0
    6.7906   10.5877   26.3288 C   0  0  0  0  0  0  0  0  0  0  0  0
    7.0873   11.9371   26.4666 C   0  0  0  0  0  0  0  0  0  0  0  0
    6.4065   12.6658   27.3618 F   0  0  0  0  0  0  0  0  0  0  0  0
    8.0897   12.5460   25.7147 C   0  0  0  0  0  0  0  0  0  0  0  0
    8.8139   11.7590   24.8004 C   0  0  0  0  0  0  0  0  0  0  0  0
   10.8204   14.9025   20.6593 C   0  0  0  0  0  0  0  0  0  0  0  0
   10.6633   15.1269   19.3150 C   0  0  0  0  0  0  0  0  0  0  0  0
    9.7334   16.1071   19.1508 O   0  0  0  0  0  0  0  0  0  0  0  0
    9.3625   16.4176   20.4194 C   0  0  0  0  0  0  0  0  0  0  0  0
    9.9328   15.6907   21.3505 N   0  0  0  0  0  0  0  0  0  0  0  0
  2  1  1  1
  2  3  1  0
  3  4  1  0
  4  5  2  0
  4  6  1  0
  6  7  2  0
  7  8  1  0
  8  9  1  0
  8 10  1  0
 10 11  2  0
 11 12  1  0
 12 13  2  0
 13 14  1  0
 13 15  1  0
 15 16  2  0
  2 17  1  0
 17 18  2  0
 18 19  1  0
 19 20  1  0
 20 21  2  0
 16  6  1  0
 21 17  1  0
 16 10  1  0
M  END
>  <energy_score>  (3452) 
-6.647353

>  <inchikey>  (3452) 
BTHPZERUKSCASQ-UHFFFAOYSA-N

>  <smiles>  (3452) 
CC(NC(=O)c1nn(C)c2ccc(F)cc12)c1cocn1

>  <ref_pdb>  (3452) 
A0514a

>  <alias>  (3452) 
BTHPZERUKSCASQ-UHFFFAOYSA-N-P126-P126-P177-601502

>  <HIPPO Pose ID>  (3452) 
502762

>  <name>  (3452) 
BTHPZERUKSCASQ-UHFFFAOYSA-N-P126-P126-P177-601502

>  <HIPPO Compound ID>  (3452) 
299199

>  <ref_mols>  (3452) 
A3403a,A2290a

>  <distance_score>  (3452) 
0.694094

>  <inspiration_score>  (3452) 
None

$$$$
BTHPZERUKSCASQ-UHFFFAOYSA-N-P177-P126-P177-601502
     RDKit          3D

 21 23  0  0  0  0  0  0  0  0999 V2000
   12.4085   15.1022   21.9295 C   0  0  0  0  0  0  0  0  0  0  0  0
   11.3408   14.3990   21.1598 C   0  0  1  0  0  0  0  0  0  0  0  0
   10.6114   13.4967   21.9920 N   0  0  0  0  0  0  0  0  0  0  0  0
   10.1407   13.6392   23.4466 C   0  0  0  0  0  0  0  0  0  0  0  0
   10.2048   14.5463   24.1770 O   0  0  0  0  0  0  0  0  0  0  0  0
    9.4913   12.3726   23.8138 C   0  0  0  0  0  0  0  0  0  0  0  0
    9.7635   11.2508   23.1252 N   0  0  0  0  0  0  0  0  0  0  0  0
    8.9808   10.3140   23.6667 N   0  0  0  0  0  0  0  0  0  0  0  0
    9.0391    8.9721   23.1385 C   0  0  0  0  0  0  0  0  0  0  0  0
    8.1736   10.7935   24.6663 C   0  0  0  0  0  0  0  0  0  0  0  0
    7.1792   10.1935   25.4403 C   0  0  0  0  0  0  0  0  0  0  0  0
    6.5398   10.9771   26.4021 C   0  0  0  0  0  0  0  0  0  0  0  0
    6.8858   12.3107   26.5682 C   0  0  0  0  0  0  0  0  0  0  0  0
    6.2671   13.0309   27.5137 F   0  0  0  0  0  0  0  0  0  0  0  0
    7.8642   12.9158   25.7839 C   0  0  0  0  0  0  0  0  0  0  0  0
    8.5182   12.1366   24.8140 C   0  0  0  0  0  0  0  0  0  0  0  0
   10.4094   15.3636   20.5529 C   0  0  0  0  0  0  0  0  0  0  0  0
   10.2721   15.6879   19.2297 C   0  0  0  0  0  0  0  0  0  0  0  0
    9.4242   16.7458   19.1513 O   0  0  0  0  0  0  0  0  0  0  0  0
    9.0742   16.9967   20.4419 C   0  0  0  0  0  0  0  0  0  0  0  0
    9.6080   16.1806   21.3156 N   0  0  0  0  0  0  0  0  0  0  0  0
  2  1  1  1
  2  3  1  0
  3  4  1  0
  4  5  2  0
  4  6  1  0
  6  7  2  0
  7  8  1  0
  8  9  1  0
  8 10  1  0
 10 11  2  0
 11 12  1  0
 12 13  2  0
 13 14  1  0
 13 15  1  0
 15 16  2  0
  2 17  1  0
 17 18  2  0
 18 19  1  0
 19 20  1  0
 20 21  2  0
 16  6  1  0
 21 17  1  0
 16 10  1  0
M  END
>  <energy_score>  (3453) 
-5.294818

>  <inchikey>  (3453) 
BTHPZERUKSCASQ-UHFFFAOYSA-N

>  <smiles>  (3453) 
CC(NC(=O)c1nn(C)c2ccc(F)cc12)c1cocn1

>  <ref_pdb>  (3453) 
A0514a

>  <alias>  (3453) 
BTHPZERUKSCASQ-UHFFFAOYSA-N-P177-P126-P177-601502

>  <HIPPO Pose ID>  (3453) 
502763

>  <name>  (3453) 
BTHPZERUKSCASQ-UHFFFAOYSA-N-P177-P126-P177-601502

>  <HIPPO Compound ID>  (3453) 
299199

>  <ref_mols>  (3453) 
A3403a,A2290a

>  <distance_score>  (3453) 
0.777406

>  <inspiration_score>  (3453) 
None

$$$$
CQYKWOZAKXFTKK-UHFFFAOYSA-N-P126-P126-P177-601502
     RDKit          3D

 21 23  0  0  0  0  0  0  0  0999 V2000
    9.4544    8.6756   23.0563 C   0  0  0  0  0  0  0  0  0  0  0  0
    9.4074    9.9898   23.6487 N   0  0  0  0  0  0  0  0  0  0  0  0
   10.2503   10.9206   23.1819 N   0  0  0  0  0  0  0  0  0  0  0  0
    9.9888   12.0156   23.9134 C   0  0  0  0  0  0  0  0  0  0  0  0
   10.7727   13.2430   23.7092 C   0  0  0  0  0  0  0  0  0  0  0  0
   10.8113   14.0841   24.5142 O   0  0  0  0  0  0  0  0  0  0  0  0
   11.3685   13.1895   22.2981 N   0  0  0  0  0  0  0  0  0  0  0  0
   12.0532   14.1859   21.5432 C   0  0  0  0  0  0  0  0  0  0  0  0
   11.0419   14.9079   20.7419 C   0  0  0  0  0  0  0  0  0  0  0  0
   10.8382   14.9174   19.3842 C   0  0  0  0  0  0  0  0  0  0  0  0
    9.8826   15.8473   19.1042 O   0  0  0  0  0  0  0  0  0  0  0  0
    9.5632   16.3763   20.3195 C   0  0  0  0  0  0  0  0  0  0  0  0
    8.5580   17.7479   20.5248 Cl  0  0  0  0  0  0  0  0  0  0  0  0
   10.1657   15.7853   21.3284 N   0  0  0  0  0  0  0  0  0  0  0  0
    8.9051   11.7944   24.8043 C   0  0  0  0  0  0  0  0  0  0  0  0
    8.1776   12.5752   25.7221 C   0  0  0  0  0  0  0  0  0  0  0  0
    7.1531   11.9689   26.4469 C   0  0  0  0  0  0  0  0  0  0  0  0
    6.4717   12.6915   27.3464 F   0  0  0  0  0  0  0  0  0  0  0  0
    6.8399   10.6260   26.2836 C   0  0  0  0  0  0  0  0  0  0  0  0
    7.5462    9.8398   25.3705 C   0  0  0  0  0  0  0  0  0  0  0  0
    8.5664   10.4523   24.6313 C   0  0  0  0  0  0  0  0  0  0  0  0
  1  2  1  0
  2  3  1  0
  3  4  2  0
  4  5  1  0
  5  6  2  0
  5  7  1  0
  7  8  1  0
  8  9  1  0
  9 10  2  0
 10 11  1  0
 11 12  1  0
 12 13  1  0
 12 14  2  0
  4 15  1  0
 15 16  2  0
 16 17  1  0
 17 18  1  0
 17 19  2  0
 19 20  1  0
 20 21  2  0
 21  2  1  0
 14  9  1  0
 21 15  1  0
M  END
>  <energy_score>  (3454) 
-7.684871

>  <inchikey>  (3454) 
CQYKWOZAKXFTKK-UHFFFAOYSA-N

>  <smiles>  (3454) 
Cn1nc(C(=O)NCc2coc(Cl)n2)c2cc(F)ccc21

>  <ref_pdb>  (3454) 
A0514a

>  <alias>  (3454) 
CQYKWOZAKXFTKK-UHFFFAOYSA-N-P126-P126-P177-601502

>  <HIPPO Pose ID>  (3454) 
502764

>  <name>  (3454) 
CQYKWOZAKXFTKK-UHFFFAOYSA-N-P126-P126-P177-601502

>  <HIPPO Compound ID>  (3454) 
299200

>  <ref_mols>  (3454) 
A3403a,A2290a

>  <distance_score>  (3454) 
0.681581

>  <inspiration_score>  (3454) 
None

$$$$
CQYKWOZAKXFTKK-UHFFFAOYSA-N-P177-P126-P177-601502
     RDKit          3D

 21 23  0  0  0  0  0  0  0  0999 V2000
    9.0643    9.0279   23.1017 C   0  0  0  0  0  0  0  0  0  0  0  0
    9.0380   10.3665   23.6433 N   0  0  0  0  0  0  0  0  0  0  0  0
    9.8795   11.2813   23.1493 N   0  0  0  0  0  0  0  0  0  0  0  0
    9.6755   12.3833   23.8916 C   0  0  0  0  0  0  0  0  0  0  0  0
   10.4791   13.5997   23.6560 C   0  0  0  0  0  0  0  0  0  0  0  0
   10.5787   14.4386   24.4591 O   0  0  0  0  0  0  0  0  0  0  0  0
   11.0829   13.4917   22.2503 N   0  0  0  0  0  0  0  0  0  0  0  0
   11.8543   14.4250   21.4997 C   0  0  0  0  0  0  0  0  0  0  0  0
   10.9407   15.2005   20.6452 C   0  0  0  0  0  0  0  0  0  0  0  0
   10.7487   15.1323   19.2869 C   0  0  0  0  0  0  0  0  0  0  0  0
    9.8292   16.0723   18.9471 O   0  0  0  0  0  0  0  0  0  0  0  0
    9.5310   16.6946   20.1268 C   0  0  0  0  0  0  0  0  0  0  0  0
    8.4981   18.0487   20.2336 Cl  0  0  0  0  0  0  0  0  0  0  0  0
   10.1447   16.1863   21.1710 N   0  0  0  0  0  0  0  0  0  0  0  0
    8.6393   12.1713   24.8380 C   0  0  0  0  0  0  0  0  0  0  0  0
    7.9991   12.9472   25.8200 C   0  0  0  0  0  0  0  0  0  0  0  0
    6.9777   12.3624   26.5657 C   0  0  0  0  0  0  0  0  0  0  0  0
    6.3749   13.0807   27.5229 F   0  0  0  0  0  0  0  0  0  0  0  0
    6.5808   11.0486   26.3574 C   0  0  0  0  0  0  0  0  0  0  0  0
    7.2045   10.2661   25.3850 C   0  0  0  0  0  0  0  0  0  0  0  0
    8.2325   10.8512   24.6408 C   0  0  0  0  0  0  0  0  0  0  0  0
  1  2  1  0
  2  3  1  0
  3  4  2  0
  4  5  1  0
  5  6  2  0
  5  7  1  0
  7  8  1  0
  8  9  1  0
  9 10  2  0
 10 11  1  0
 11 12  1  0
 12 13  1  0
 12 14  2  0
  4 15  1  0
 15 16  2  0
 16 17  1  0
 17 18  1  0
 17 19  2  0
 19 20  1  0
 20 21  2  0
 21  2  1  0
 14  9  1  0
 21 15  1  0
M  END
>  <energy_score>  (3455) 
-9.066851

>  <inchikey>  (3455) 
CQYKWOZAKXFTKK-UHFFFAOYSA-N

>  <smiles>  (3455) 
Cn1nc(C(=O)NCc2coc(Cl)n2)c2cc(F)ccc21

>  <ref_pdb>  (3455) 
A0514a

>  <alias>  (3455) 
CQYKWOZAKXFTKK-UHFFFAOYSA-N-P177-P126-P177-601502

>  <HIPPO Pose ID>  (3455) 
502765

>  <name>  (3455) 
CQYKWOZAKXFTKK-UHFFFAOYSA-N-P177-P126-P177-601502

>  <HIPPO Compound ID>  (3455) 
299200

>  <ref_mols>  (3455) 
A3403a,A2290a

>  <distance_score>  (3455) 
0.636644

>  <inspiration_score>  (3455) 
None

$$$$
ZMJFOHMIEXGORM-UHFFFAOYSA-N-P126-P126-P177-601502
     RDKit          3D

 21 23  0  0  0  0  0  0  0  0999 V2000
    8.6292   17.4348   20.6216 C   0  0  0  0  0  0  0  0  0  0  0  0
    9.5884   16.3280   20.4767 C   0  0  0  0  0  0  0  0  0  0  0  0
   10.2359   15.6946   21.4277 N   0  0  0  0  0  0  0  0  0  0  0  0
   11.1002   14.8697   20.7617 C   0  0  0  0  0  0  0  0  0  0  0  0
   12.1243   14.1066   21.5035 C   0  0  0  0  0  0  0  0  0  0  0  0
   11.4287   13.1263   22.2722 N   0  0  0  0  0  0  0  0  0  0  0  0
   10.8287   13.2063   23.6811 C   0  0  0  0  0  0  0  0  0  0  0  0
   10.8717   14.0596   24.4736 O   0  0  0  0  0  0  0  0  0  0  0  0
   10.0289   11.9902   23.8962 C   0  0  0  0  0  0  0  0  0  0  0  0
   10.2774   10.8877   23.1722 N   0  0  0  0  0  0  0  0  0  0  0  0
    9.4263    9.9686   23.6421 N   0  0  0  0  0  0  0  0  0  0  0  0
    9.4600    8.6535   23.0510 C   0  0  0  0  0  0  0  0  0  0  0  0
    8.5876   10.4450   24.6199 C   0  0  0  0  0  0  0  0  0  0  0  0
    7.5632    9.8452   25.3639 C   0  0  0  0  0  0  0  0  0  0  0  0
    6.8632   10.6437   26.2709 C   0  0  0  0  0  0  0  0  0  0  0  0
    7.1854   11.9863   26.4223 C   0  0  0  0  0  0  0  0  0  0  0  0
    6.5070   12.7208   27.3142 F   0  0  0  0  0  0  0  0  0  0  0  0
    8.2152   12.5794   25.6938 C   0  0  0  0  0  0  0  0  0  0  0  0
    8.9387   11.7858   24.7841 C   0  0  0  0  0  0  0  0  0  0  0  0
   10.8443   14.9481   19.4142 C   0  0  0  0  0  0  0  0  0  0  0  0
    9.8687   15.8827   19.2191 O   0  0  0  0  0  0  0  0  0  0  0  0
  1  2  1  0
  2  3  2  0
  3  4  1  0
  4  5  1  0
  5  6  1  0
  6  7  1  0
  7  8  2  0
  7  9  1  0
  9 10  2  0
 10 11  1  0
 11 12  1  0
 11 13  1  0
 13 14  2  0
 14 15  1  0
 15 16  2  0
 16 17  1  0
 16 18  1  0
 18 19  2  0
  4 20  2  0
 20 21  1  0
 21  2  1  0
 19  9  1  0
 19 13  1  0
M  END
>  <energy_score>  (3456) 
-10.983774

>  <inchikey>  (3456) 
ZMJFOHMIEXGORM-UHFFFAOYSA-N

>  <smiles>  (3456) 
Cc1nc(CNC(=O)c2nn(C)c3ccc(F)cc23)co1

>  <ref_pdb>  (3456) 
A0514a

>  <alias>  (3456) 
ZMJFOHMIEXGORM-UHFFFAOYSA-N-P126-P126-P177-601502

>  <HIPPO Pose ID>  (3456) 
502766

>  <name>  (3456) 
ZMJFOHMIEXGORM-UHFFFAOYSA-N-P126-P126-P177-601502

>  <HIPPO Compound ID>  (3456) 
299201

>  <ref_mols>  (3456) 
A3403a,A2290a

>  <distance_score>  (3456) 
0.790723

>  <inspiration_score>  (3456) 
None

$$$$
ZMJFOHMIEXGORM-UHFFFAOYSA-N-P177-P126-P177-601502
     RDKit          3D

 21 23  0  0  0  0  0  0  0  0999 V2000
    8.5662   17.7221   20.4925 C   0  0  0  0  0  0  0  0  0  0  0  0
    9.5756   16.6671   20.3698 C   0  0  0  0  0  0  0  0  0  0  0  0
   10.2599   16.1014   21.3345 N   0  0  0  0  0  0  0  0  0  0  0  0
   11.0241   15.1670   20.6952 C   0  0  0  0  0  0  0  0  0  0  0  0
   11.9594   14.3317   21.4619 C   0  0  0  0  0  0  0  0  0  0  0  0
   11.1985   13.4079   22.2403 N   0  0  0  0  0  0  0  0  0  0  0  0
   10.5604   13.5608   23.6286 C   0  0  0  0  0  0  0  0  0  0  0  0
   10.6173   14.4383   24.3947 O   0  0  0  0  0  0  0  0  0  0  0  0
    9.7295   12.3619   23.8746 C   0  0  0  0  0  0  0  0  0  0  0  0
    9.9072   11.2523   23.1381 N   0  0  0  0  0  0  0  0  0  0  0  0
    9.0499   10.3567   23.6344 N   0  0  0  0  0  0  0  0  0  0  0  0
    9.0552    9.0164   23.0971 C   0  0  0  0  0  0  0  0  0  0  0  0
    8.2534   10.8599   24.6296 C   0  0  0  0  0  0  0  0  0  0  0  0
    7.2146   10.2957   25.3757 C   0  0  0  0  0  0  0  0  0  0  0  0
    6.6042   11.0946   26.3430 C   0  0  0  0  0  0  0  0  0  0  0  0
    7.0240   12.4028   26.5438 C   0  0  0  0  0  0  0  0  0  0  0  0
    6.4326   13.1361   27.4967 F   0  0  0  0  0  0  0  0  0  0  0  0
    8.0562   12.9663   25.7960 C   0  0  0  0  0  0  0  0  0  0  0  0
    8.6849   12.1743   24.8193 C   0  0  0  0  0  0  0  0  0  0  0  0
   10.7563   15.1959   19.3468 C   0  0  0  0  0  0  0  0  0  0  0  0
    9.8120   16.1524   19.1272 O   0  0  0  0  0  0  0  0  0  0  0  0
  1  2  1  0
  2  3  2  0
  3  4  1  0
  4  5  1  0
  5  6  1  0
  6  7  1  0
  7  8  2  0
  7  9  1  0
  9 10  2  0
 10 11  1  0
 11 12  1  0
 11 13  1  0
 13 14  2  0
 14 15  1  0
 15 16  2  0
 16 17  1  0
 16 18  1  0
 18 19  2  0
  4 20  2  0
 20 21  1  0
 21  2  1  0
 19  9  1  0
 19 13  1  0
M  END
>  <energy_score>  (3457) 
-12.065091

>  <inchikey>  (3457) 
ZMJFOHMIEXGORM-UHFFFAOYSA-N

>  <smiles>  (3457) 
Cc1nc(CNC(=O)c2nn(C)c3ccc(F)cc23)co1

>  <ref_pdb>  (3457) 
A0514a

>  <alias>  (3457) 
ZMJFOHMIEXGORM-UHFFFAOYSA-N-P177-P126-P177-601502

>  <HIPPO Pose ID>  (3457) 
502767

>  <name>  (3457) 
ZMJFOHMIEXGORM-UHFFFAOYSA-N-P177-P126-P177-601502

>  <HIPPO Compound ID>  (3457) 
299201

>  <ref_mols>  (3457) 
A3403a,A2290a

>  <distance_score>  (3457) 
0.642001

>  <inspiration_score>  (3457) 
None

$$$$
BTOWCQUEJZDTCQ-UHFFFAOYSA-N-P126-P126-P177-601502
     RDKit          3D

 21 23  0  0  0  0  0  0  0  0999 V2000
    9.4679    8.6840   23.0528 C   0  0  0  0  0  0  0  0  0  0  0  0
    9.4010    9.9965   23.6462 N   0  0  0  0  0  0  0  0  0  0  0  0
   10.2220   10.9444   23.1738 N   0  0  0  0  0  0  0  0  0  0  0  0
    9.9513   12.0283   23.9188 C   0  0  0  0  0  0  0  0  0  0  0  0
   10.7175   13.2683   23.7296 C   0  0  0  0  0  0  0  0  0  0  0  0
   10.7435   14.0982   24.5465 O   0  0  0  0  0  0  0  0  0  0  0  0
   11.3205   13.2411   22.3215 N   0  0  0  0  0  0  0  0  0  0  0  0
   11.9981   14.2547   21.5845 C   0  0  0  0  0  0  0  0  0  0  0  0
   11.0018   14.9450   20.7366 C   0  0  0  0  0  0  0  0  0  0  0  0
   10.8362   14.8996   19.3751 C   0  0  0  0  0  0  0  0  0  0  0  0
    9.8996   15.8240   19.0296 O   0  0  0  0  0  0  0  0  0  0  0  0
    9.5545   16.4156   20.2084 C   0  0  0  0  0  0  0  0  0  0  0  0
    8.4673   17.9821   20.2940 Br  0  0  0  0  0  0  0  0  0  0  0  0
   10.1214   15.8611   21.2595 N   0  0  0  0  0  0  0  0  0  0  0  0
    8.8731   11.7865   24.8107 C   0  0  0  0  0  0  0  0  0  0  0  0
    8.1357   12.5537   25.7338 C   0  0  0  0  0  0  0  0  0  0  0  0
    7.1144   11.9333   26.4581 C   0  0  0  0  0  0  0  0  0  0  0  0
    6.1251   12.9397   27.7175 Br  0  0  0  0  0  0  0  0  0  0  0  0
    6.8240   10.5830   26.2845 C   0  0  0  0  0  0  0  0  0  0  0  0
    7.5449    9.8130   25.3679 C   0  0  0  0  0  0  0  0  0  0  0  0
    8.5544   10.4422   24.6311 C   0  0  0  0  0  0  0  0  0  0  0  0
  1  2  1  0
  2  3  1  0
  3  4  2  0
  4  5  1  0
  5  6  2  0
  5  7  1  0
  7  8  1  0
  8  9  1  0
  9 10  2  0
 10 11  1  0
 11 12  1  0
 12 13  1  0
 12 14  2  0
  4 15  1  0
 15 16  2  0
 16 17  1  0
 17 18  1  0
 17 19  2  0
 19 20  1  0
 20 21  2  0
 21  2  1  0
 14  9  1  0
 21 15  1  0
M  END
>  <energy_score>  (3458) 
-11.599427

>  <inchikey>  (3458) 
BTOWCQUEJZDTCQ-UHFFFAOYSA-N

>  <smiles>  (3458) 
Cn1nc(C(=O)NCc2coc(Br)n2)c2cc(Br)ccc21

>  <ref_pdb>  (3458) 
A0514a

>  <alias>  (3458) 
BTOWCQUEJZDTCQ-UHFFFAOYSA-N-P126-P126-P177-601502

>  <HIPPO Pose ID>  (3458) 
502770

>  <name>  (3458) 
BTOWCQUEJZDTCQ-UHFFFAOYSA-N-P126-P126-P177-601502

>  <HIPPO Compound ID>  (3458) 
299203

>  <ref_mols>  (3458) 
A3403a,A2290a

>  <distance_score>  (3458) 
0.669508

>  <inspiration_score>  (3458) 
None

$$$$
BTOWCQUEJZDTCQ-UHFFFAOYSA-N-P177-P126-P177-601502
     RDKit          3D

 21 23  0  0  0  0  0  0  0  0999 V2000
    9.0943    9.0344   23.0828 C   0  0  0  0  0  0  0  0  0  0  0  0
    9.0523   10.3718   23.6276 N   0  0  0  0  0  0  0  0  0  0  0  0
    9.8831   11.2987   23.1377 N   0  0  0  0  0  0  0  0  0  0  0  0
    9.6638   12.3964   23.8818 C   0  0  0  0  0  0  0  0  0  0  0  0
   10.4466   13.6284   23.6506 C   0  0  0  0  0  0  0  0  0  0  0  0
   10.4650   14.4977   24.4269 O   0  0  0  0  0  0  0  0  0  0  0  0
   11.1110   13.5108   22.2729 N   0  0  0  0  0  0  0  0  0  0  0  0
   11.8556   14.4639   21.5192 C   0  0  0  0  0  0  0  0  0  0  0  0
   10.9388   15.1973   20.6308 C   0  0  0  0  0  0  0  0  0  0  0  0
   10.7736   15.0823   19.2725 C   0  0  0  0  0  0  0  0  0  0  0  0
    9.8613   16.0072   18.8820 O   0  0  0  0  0  0  0  0  0  0  0  0
    9.5424   16.6758   20.0308 C   0  0  0  0  0  0  0  0  0  0  0  0
    8.4097   18.2010   20.0377 Br  0  0  0  0  0  0  0  0  0  0  0  0
   10.1313   16.2005   21.1059 N   0  0  0  0  0  0  0  0  0  0  0  0
    8.6288   12.1676   24.8266 C   0  0  0  0  0  0  0  0  0  0  0  0
    7.9773   12.9332   25.8112 C   0  0  0  0  0  0  0  0  0  0  0  0
    6.9597   12.3358   26.5592 C   0  0  0  0  0  0  0  0  0  0  0  0
    6.0914   13.3363   27.9094 Br  0  0  0  0  0  0  0  0  0  0  0  0
    6.5824   11.0143   26.3412 C   0  0  0  0  0  0  0  0  0  0  0  0
    7.2195   10.2449   25.3659 C   0  0  0  0  0  0  0  0  0  0  0  0
    8.2401   10.8441   24.6255 C   0  0  0  0  0  0  0  0  0  0  0  0
  1  2  1  0
  2  3  1  0
  3  4  2  0
  4  5  1  0
  5  6  2  0
  5  7  1  0
  7  8  1  0
  8  9  1  0
  9 10  2  0
 10 11  1  0
 11 12  1  0
 12 13  1  0
 12 14  2  0
  4 15  1  0
 15 16  2  0
 16 17  1  0
 17 18  1  0
 17 19  2  0
 19 20  1  0
 20 21  2  0
 21  2  1  0
 14  9  1  0
 21 15  1  0
M  END
>  <energy_score>  (3459) 
-13.154304

>  <inchikey>  (3459) 
BTOWCQUEJZDTCQ-UHFFFAOYSA-N

>  <smiles>  (3459) 
Cn1nc(C(=O)NCc2coc(Br)n2)c2cc(Br)ccc21

>  <ref_pdb>  (3459) 
A0514a

>  <alias>  (3459) 
BTOWCQUEJZDTCQ-UHFFFAOYSA-N-P177-P126-P177-601502

>  <HIPPO Pose ID>  (3459) 
502771

>  <name>  (3459) 
BTOWCQUEJZDTCQ-UHFFFAOYSA-N-P177-P126-P177-601502

>  <HIPPO Compound ID>  (3459) 
299203

>  <ref_mols>  (3459) 
A3403a,A2290a

>  <distance_score>  (3459) 
0.629986

>  <inspiration_score>  (3459) 
None

$$$$
AESNDXDPAJZXIV-UHFFFAOYSA-N-P126-P126-P177-601502
     RDKit          3D

 21 23  0  0  0  0  0  0  0  0999 V2000
   11.7270   14.4618   18.5616 C   0  0  0  0  0  0  0  0  0  0  0  0
   10.8997   14.9913   19.6374 C   0  0  0  0  0  0  0  0  0  0  0  0
    9.8845   15.8414   19.3040 O   0  0  0  0  0  0  0  0  0  0  0  0
    9.3987   16.2365   20.5069 C   0  0  0  0  0  0  0  0  0  0  0  0
    9.9473   15.6420   21.5384 N   0  0  0  0  0  0  0  0  0  0  0  0
   10.9789   14.9214   21.0046 C   0  0  0  0  0  0  0  0  0  0  0  0
   11.9882   14.2557   21.8551 C   0  0  0  0  0  0  0  0  0  0  0  0
   11.3074   13.2296   22.5631 N   0  0  0  0  0  0  0  0  0  0  0  0
   10.6753   13.2336   23.9553 C   0  0  0  0  0  0  0  0  0  0  0  0
   10.6750   14.0533   24.7823 O   0  0  0  0  0  0  0  0  0  0  0  0
    9.9126   11.9891   24.0920 C   0  0  0  0  0  0  0  0  0  0  0  0
   10.2171   10.9227   23.3338 N   0  0  0  0  0  0  0  0  0  0  0  0
    9.3614    9.9720   23.7337 N   0  0  0  0  0  0  0  0  0  0  0  0
    9.4303    8.6852   23.0859 C   0  0  0  0  0  0  0  0  0  0  0  0
    8.4891   10.3937   24.7077 C   0  0  0  0  0  0  0  0  0  0  0  0
    7.4585    9.7521   25.4009 C   0  0  0  0  0  0  0  0  0  0  0  0
    6.7106   10.5014   26.3134 C   0  0  0  0  0  0  0  0  0  0  0  0
    6.9910   11.8481   26.5223 C   0  0  0  0  0  0  0  0  0  0  0  0
    5.9599   12.8289   27.7678 Br  0  0  0  0  0  0  0  0  0  0  0  0
    8.0332   12.4824   25.8432 C   0  0  0  0  0  0  0  0  0  0  0  0
    8.8018   11.7318   24.9324 C   0  0  0  0  0  0  0  0  0  0  0  0
  1  2  1  0
  2  3  1  0
  3  4  1  0
  4  5  2  0
  5  6  1  0
  6  7  1  0
  7  8  1  0
  8  9  1  0
  9 10  2  0
  9 11  1  0
 11 12  2  0
 12 13  1  0
 13 14  1  0
 13 15  1  0
 15 16  2  0
 16 17  1  0
 17 18  2  0
 18 19  1  0
 18 20  1  0
 20 21  2  0
  6  2  2  0
 21 11  1  0
 21 15  1  0
M  END
>  <energy_score>  (3460) 
-29.287869

>  <inchikey>  (3460) 
AESNDXDPAJZXIV-UHFFFAOYSA-N

>  <smiles>  (3460) 
Cc1ocnc1CNC(=O)c1nn(C)c2ccc(Br)cc12

>  <ref_pdb>  (3460) 
A0514a

>  <alias>  (3460) 
AESNDXDPAJZXIV-UHFFFAOYSA-N-P126-P126-P177-601502

>  <HIPPO Pose ID>  (3460) 
502772

>  <name>  (3460) 
AESNDXDPAJZXIV-UHFFFAOYSA-N-P126-P126-P177-601502

>  <HIPPO Compound ID>  (3460) 
299204

>  <ref_mols>  (3460) 
A3403a,A2290a

>  <distance_score>  (3460) 
0.776861

>  <inspiration_score>  (3460) 
None

$$$$
AESNDXDPAJZXIV-UHFFFAOYSA-N-P177-P126-P177-601502
     RDKit          3D

 21 23  0  0  0  0  0  0  0  0999 V2000
   11.4318   14.7989   18.4262 C   0  0  0  0  0  0  0  0  0  0  0  0
   10.6932   15.3830   19.5441 C   0  0  0  0  0  0  0  0  0  0  0  0
    9.7060   16.2831   19.2659 O   0  0  0  0  0  0  0  0  0  0  0  0
    9.2704   16.6727   20.4971 C   0  0  0  0  0  0  0  0  0  0  0  0
    9.8596   16.0715   21.5022 N   0  0  0  0  0  0  0  0  0  0  0  0
   10.8053   15.2760   20.9078 C   0  0  0  0  0  0  0  0  0  0  0  0
   11.7793   14.4942   21.6913 C   0  0  0  0  0  0  0  0  0  0  0  0
   11.0677   13.5115   22.4286 N   0  0  0  0  0  0  0  0  0  0  0  0
   10.4257   13.5801   23.8163 C   0  0  0  0  0  0  0  0  0  0  0  0
   10.4409   14.4281   24.6146 O   0  0  0  0  0  0  0  0  0  0  0  0
    9.6412   12.3487   24.0020 C   0  0  0  0  0  0  0  0  0  0  0  0
    9.8699   11.2689   23.2345 N   0  0  0  0  0  0  0  0  0  0  0  0
    9.0224   10.3388   23.6876 N   0  0  0  0  0  0  0  0  0  0  0  0
    9.0642    9.0164   23.1095 C   0  0  0  0  0  0  0  0  0  0  0  0
    8.1962   10.7955   24.6817 C   0  0  0  0  0  0  0  0  0  0  0  0
    7.1624   10.1911   25.3962 C   0  0  0  0  0  0  0  0  0  0  0  0
    6.5109   10.9461   26.3735 C   0  0  0  0  0  0  0  0  0  0  0  0
    6.8853   12.2630   26.6182 C   0  0  0  0  0  0  0  0  0  0  0  0
    5.9946   13.2452   27.9669 Br  0  0  0  0  0  0  0  0  0  0  0  0
    7.9181   12.8667   25.8988 C   0  0  0  0  0  0  0  0  0  0  0  0
    8.5855   12.1118   24.9166 C   0  0  0  0  0  0  0  0  0  0  0  0
  1  2  1  0
  2  3  1  0
  3  4  1  0
  4  5  2  0
  5  6  1  0
  6  7  1  0
  7  8  1  0
  8  9  1  0
  9 10  2  0
  9 11  1  0
 11 12  2  0
 12 13  1  0
 13 14  1  0
 13 15  1  0
 15 16  2  0
 16 17  1  0
 17 18  2  0
 18 19  1  0
 18 20  1  0
 20 21  2  0
  6  2  2  0
 21 11  1  0
 21 15  1  0
M  END
>  <energy_score>  (3461) 
-30.741734

>  <inchikey>  (3461) 
AESNDXDPAJZXIV-UHFFFAOYSA-N

>  <smiles>  (3461) 
Cc1ocnc1CNC(=O)c1nn(C)c2ccc(Br)cc12

>  <ref_pdb>  (3461) 
A0514a

>  <alias>  (3461) 
AESNDXDPAJZXIV-UHFFFAOYSA-N-P177-P126-P177-601502

>  <HIPPO Pose ID>  (3461) 
502773

>  <name>  (3461) 
AESNDXDPAJZXIV-UHFFFAOYSA-N-P177-P126-P177-601502

>  <HIPPO Compound ID>  (3461) 
299204

>  <ref_mols>  (3461) 
A3403a,A2290a

>  <distance_score>  (3461) 
0.720433

>  <inspiration_score>  (3461) 
None

$$$$
GJPWCLVAEBDFNG-UHFFFAOYSA-N-P126-P126-P177-601502
     RDKit          3D

 21 23  0  0  0  0  0  0  0  0999 V2000
   12.8222   14.8774   22.1429 C   0  0  0  0  0  0  0  0  0  0  0  0
   11.8612   14.0455   21.3467 C   0  0  1  0  0  0  0  0  0  0  0  0
   11.1966   13.0821   22.1675 N   0  0  0  0  0  0  0  0  0  0  0  0
   10.5901   13.2159   23.5706 C   0  0  0  0  0  0  0  0  0  0  0  0
   10.6014   14.1112   24.3167 O   0  0  0  0  0  0  0  0  0  0  0  0
    9.8636   11.9751   23.8563 C   0  0  0  0  0  0  0  0  0  0  0  0
   10.1427   10.8647   23.1559 N   0  0  0  0  0  0  0  0  0  0  0  0
    9.3350    9.9307   23.6675 N   0  0  0  0  0  0  0  0  0  0  0  0
    9.3837    8.6145   23.0845 C   0  0  0  0  0  0  0  0  0  0  0  0
    8.5029   10.4017   24.6527 C   0  0  0  0  0  0  0  0  0  0  0  0
    7.5030    9.7939   25.4188 C   0  0  0  0  0  0  0  0  0  0  0  0
    6.7968   10.5875   26.3268 C   0  0  0  0  0  0  0  0  0  0  0  0
    7.0890   11.9417   26.4608 C   0  0  0  0  0  0  0  0  0  0  0  0
    6.1191   12.9817   27.7079 Br  0  0  0  0  0  0  0  0  0  0  0  0
    8.0950   12.5441   25.7012 C   0  0  0  0  0  0  0  0  0  0  0  0
    8.8171   11.7528   24.7870 C   0  0  0  0  0  0  0  0  0  0  0  0
   10.8416   14.8770   20.6629 C   0  0  0  0  0  0  0  0  0  0  0  0
   10.6837   15.1086   19.3197 C   0  0  0  0  0  0  0  0  0  0  0  0
    9.7433   16.0799   19.1613 O   0  0  0  0  0  0  0  0  0  0  0  0
    9.3698   16.3801   20.4316 C   0  0  0  0  0  0  0  0  0  0  0  0
    9.9433   15.6500   21.3582 N   0  0  0  0  0  0  0  0  0  0  0  0
  2  1  1  1
  2  3  1  0
  3  4  1  0
  4  5  2  0
  4  6  1  0
  6  7  2  0
  7  8  1  0
  8  9  1  0
  8 10  1  0
 10 11  2  0
 11 12  1  0
 12 13  2  0
 13 14  1  0
 13 15  1  0
 15 16  2  0
  2 17  1  0
 17 18  2  0
 18 19  1  0
 19 20  1  0
 20 21  2  0
 16  6  1  0
 21 17  1  0
 16 10  1  0
M  END
>  <energy_score>  (3462) 
-27.419484

>  <inchikey>  (3462) 
GJPWCLVAEBDFNG-UHFFFAOYSA-N

>  <smiles>  (3462) 
CC(NC(=O)c1nn(C)c2ccc(Br)cc12)c1cocn1

>  <ref_pdb>  (3462) 
A0514a

>  <alias>  (3462) 
GJPWCLVAEBDFNG-UHFFFAOYSA-N-P126-P126-P177-601502

>  <HIPPO Pose ID>  (3462) 
502774

>  <name>  (3462) 
GJPWCLVAEBDFNG-UHFFFAOYSA-N-P126-P126-P177-601502

>  <HIPPO Compound ID>  (3462) 
299205

>  <ref_mols>  (3462) 
A3403a,A2290a

>  <distance_score>  (3462) 
0.785087

>  <inspiration_score>  (3462) 
None

$$$$
GJPWCLVAEBDFNG-UHFFFAOYSA-N-P177-P126-P177-601502
     RDKit          3D

 21 23  0  0  0  0  0  0  0  0999 V2000
   12.4624   15.1425   21.9043 C   0  0  0  0  0  0  0  0  0  0  0  0
   11.4216   14.3711   21.1674 C   0  0  1  0  0  0  0  0  0  0  0  0
   10.7764   13.4402   22.0377 N   0  0  0  0  0  0  0  0  0  0  0  0
   10.1960   13.6283   23.4476 C   0  0  0  0  0  0  0  0  0  0  0  0
   10.2189   14.5533   24.1578 O   0  0  0  0  0  0  0  0  0  0  0  0
    9.5102   12.3739   23.8029 C   0  0  0  0  0  0  0  0  0  0  0  0
    9.7604   11.2498   23.1087 N   0  0  0  0  0  0  0  0  0  0  0  0
    8.9757   10.3202   23.6582 N   0  0  0  0  0  0  0  0  0  0  0  0
    9.0284    8.9746   23.1398 C   0  0  0  0  0  0  0  0  0  0  0  0
    8.1759   10.8076   24.6583 C   0  0  0  0  0  0  0  0  0  0  0  0
    7.1827   10.2149   25.4381 C   0  0  0  0  0  0  0  0  0  0  0  0
    6.5515   11.0023   26.4032 C   0  0  0  0  0  0  0  0  0  0  0  0
    6.9052   12.3375   26.5704 C   0  0  0  0  0  0  0  0  0  0  0  0
    6.0454   13.3644   27.9060 Br  0  0  0  0  0  0  0  0  0  0  0  0
    7.8876   12.9325   25.7757 C   0  0  0  0  0  0  0  0  0  0  0  0
    8.5315   12.1477   24.8019 C   0  0  0  0  0  0  0  0  0  0  0  0
   10.4405   15.2878   20.5597 C   0  0  0  0  0  0  0  0  0  0  0  0
   10.3111   15.6304   19.2390 C   0  0  0  0  0  0  0  0  0  0  0  0
    9.4483   16.6772   19.1669 O   0  0  0  0  0  0  0  0  0  0  0  0
    9.0804   16.9019   20.4579 C   0  0  0  0  0  0  0  0  0  0  0  0
    9.6108   16.0751   21.3243 N   0  0  0  0  0  0  0  0  0  0  0  0
  2  1  1  1
  2  3  1  0
  3  4  1  0
  4  5  2  0
  4  6  1  0
  6  7  2  0
  7  8  1  0
  8  9  1  0
  8 10  1  0
 10 11  2  0
 11 12  1  0
 12 13  2  0
 13 14  1  0
 13 15  1  0
 15 16  2  0
  2 17  1  0
 17 18  2  0
 18 19  1  0
 19 20  1  0
 20 21  2  0
 16  6  1  0
 21 17  1  0
 16 10  1  0
M  END
>  <energy_score>  (3463) 
-26.027242

>  <inchikey>  (3463) 
GJPWCLVAEBDFNG-UHFFFAOYSA-N

>  <smiles>  (3463) 
CC(NC(=O)c1nn(C)c2ccc(Br)cc12)c1cocn1

>  <ref_pdb>  (3463) 
A0514a

>  <alias>  (3463) 
GJPWCLVAEBDFNG-UHFFFAOYSA-N-P177-P126-P177-601502

>  <HIPPO Pose ID>  (3463) 
502775

>  <name>  (3463) 
GJPWCLVAEBDFNG-UHFFFAOYSA-N-P177-P126-P177-601502

>  <HIPPO Compound ID>  (3463) 
299205

>  <ref_mols>  (3463) 
A3403a,A2290a

>  <distance_score>  (3463) 
0.794056

>  <inspiration_score>  (3463) 
None

$$$$
IVQHQCHSIJRSAI-UHFFFAOYSA-N-P126-P126-P177-601502
     RDKit          3D

 21 23  0  0  0  0  0  0  0  0999 V2000
    9.4553    8.6756   23.0588 C   0  0  0  0  0  0  0  0  0  0  0  0
    9.4058    9.9873   23.6561 N   0  0  0  0  0  0  0  0  0  0  0  0
   10.2481   10.9210   23.1938 N   0  0  0  0  0  0  0  0  0  0  0  0
    9.9752   12.0151   23.9234 C   0  0  0  0  0  0  0  0  0  0  0  0
   10.7521   13.2453   23.7187 C   0  0  0  0  0  0  0  0  0  0  0  0
   10.8427   14.0617   24.5447 O   0  0  0  0  0  0  0  0  0  0  0  0
   11.3111   13.2081   22.2928 N   0  0  0  0  0  0  0  0  0  0  0  0
   12.0152   14.1975   21.5483 C   0  0  0  0  0  0  0  0  0  0  0  0
   11.0177   14.9250   20.7363 C   0  0  0  0  0  0  0  0  0  0  0  0
   10.8238   14.9313   19.3775 C   0  0  0  0  0  0  0  0  0  0  0  0
    9.8761   15.8663   19.0877 O   0  0  0  0  0  0  0  0  0  0  0  0
    9.5508   16.4011   20.2989 C   0  0  0  0  0  0  0  0  0  0  0  0
    8.5474   17.7760   20.4933 Cl  0  0  0  0  0  0  0  0  0  0  0  0
   10.1440   15.8111   21.3136 N   0  0  0  0  0  0  0  0  0  0  0  0
    8.8924   11.7876   24.8125 C   0  0  0  0  0  0  0  0  0  0  0  0
    8.1575   12.5662   25.7275 C   0  0  0  0  0  0  0  0  0  0  0  0
    7.1287   11.9578   26.4520 C   0  0  0  0  0  0  0  0  0  0  0  0
    6.1447   12.9798   27.7029 Br  0  0  0  0  0  0  0  0  0  0  0  0
    6.8277   10.6090   26.2850 C   0  0  0  0  0  0  0  0  0  0  0  0
    7.5441    9.8281   25.3741 C   0  0  0  0  0  0  0  0  0  0  0  0
    8.5619   10.4448   24.6379 C   0  0  0  0  0  0  0  0  0  0  0  0
  1  2  1  0
  2  3  1  0
  3  4  2  0
  4  5  1  0
  5  6  2  0
  5  7  1  0
  7  8  1  0
  8  9  1  0
  9 10  2  0
 10 11  1  0
 11 12  1  0
 12 13  1  0
 12 14  2  0
  4 15  1  0
 15 16  2  0
 16 17  1  0
 17 18  1  0
 17 19  2  0
 19 20  1  0
 20 21  2  0
 21  2  1  0
 14  9  1  0
 21 15  1  0
M  END
>  <energy_score>  (3464) 
-20.92733

>  <inchikey>  (3464) 
IVQHQCHSIJRSAI-UHFFFAOYSA-N

>  <smiles>  (3464) 
Cn1nc(C(=O)NCc2coc(Cl)n2)c2cc(Br)ccc21

>  <ref_pdb>  (3464) 
A0514a

>  <alias>  (3464) 
IVQHQCHSIJRSAI-UHFFFAOYSA-N-P126-P126-P177-601502

>  <HIPPO Pose ID>  (3464) 
502776

>  <name>  (3464) 
IVQHQCHSIJRSAI-UHFFFAOYSA-N-P126-P126-P177-601502

>  <HIPPO Compound ID>  (3464) 
299206

>  <ref_mols>  (3464) 
A3403a,A2290a

>  <distance_score>  (3464) 
0.676588

>  <inspiration_score>  (3464) 
None

$$$$
IVQHQCHSIJRSAI-UHFFFAOYSA-N-P177-P126-P177-601502
     RDKit          3D

 21 23  0  0  0  0  0  0  0  0999 V2000
    9.0751    9.0321   23.0876 C   0  0  0  0  0  0  0  0  0  0  0  0
    9.0461   10.3697   23.6308 N   0  0  0  0  0  0  0  0  0  0  0  0
    9.8848   11.2862   23.1372 N   0  0  0  0  0  0  0  0  0  0  0  0
    9.6807   12.3872   23.8810 C   0  0  0  0  0  0  0  0  0  0  0  0
   10.4778   13.6092   23.6433 C   0  0  0  0  0  0  0  0  0  0  0  0
   10.5068   14.4835   24.4139 O   0  0  0  0  0  0  0  0  0  0  0  0
   11.1344   13.4775   22.2627 N   0  0  0  0  0  0  0  0  0  0  0  0
   11.8825   14.4202   21.4988 C   0  0  0  0  0  0  0  0  0  0  0  0
   10.9537   15.1876   20.6528 C   0  0  0  0  0  0  0  0  0  0  0  0
   10.7563   15.1239   19.2948 C   0  0  0  0  0  0  0  0  0  0  0  0
    9.8328   16.0625   18.9619 O   0  0  0  0  0  0  0  0  0  0  0  0
    9.5375   16.6790   20.1453 C   0  0  0  0  0  0  0  0  0  0  0  0
    8.5072   18.0335   20.2616 Cl  0  0  0  0  0  0  0  0  0  0  0  0
   10.1544   16.1664   21.1855 N   0  0  0  0  0  0  0  0  0  0  0  0
    8.6445   12.1707   24.8279 C   0  0  0  0  0  0  0  0  0  0  0  0
    8.0023   12.9445   25.8121 C   0  0  0  0  0  0  0  0  0  0  0  0
    6.9800   12.3585   26.5631 C   0  0  0  0  0  0  0  0  0  0  0  0
    6.1248   13.3707   27.9130 Br  0  0  0  0  0  0  0  0  0  0  0  0
    6.5888   11.0404   26.3484 C   0  0  0  0  0  0  0  0  0  0  0  0
    7.2159   10.2628   25.3732 C   0  0  0  0  0  0  0  0  0  0  0  0
    8.2412   10.8507   24.6298 C   0  0  0  0  0  0  0  0  0  0  0  0
  1  2  1  0
  2  3  1  0
  3  4  2  0
  4  5  1  0
  5  6  2  0
  5  7  1  0
  7  8  1  0
  8  9  1  0
  9 10  2  0
 10 11  1  0
 11 12  1  0
 12 13  1  0
 12 14  2  0
  4 15  1  0
 15 16  2  0
 16 17  1  0
 17 18  1  0
 17 19  2  0
 19 20  1  0
 20 21  2  0
 21  2  1  0
 14  9  1  0
 21 15  1  0
M  END
>  <energy_score>  (3465) 
-22.641131

>  <inchikey>  (3465) 
IVQHQCHSIJRSAI-UHFFFAOYSA-N

>  <smiles>  (3465) 
Cn1nc(C(=O)NCc2coc(Cl)n2)c2cc(Br)ccc21

>  <ref_pdb>  (3465) 
A0514a

>  <alias>  (3465) 
IVQHQCHSIJRSAI-UHFFFAOYSA-N-P177-P126-P177-601502

>  <HIPPO Pose ID>  (3465) 
502777

>  <name>  (3465) 
IVQHQCHSIJRSAI-UHFFFAOYSA-N-P177-P126-P177-601502

>  <HIPPO Compound ID>  (3465) 
299206

>  <ref_mols>  (3465) 
A3403a,A2290a

>  <distance_score>  (3465) 
0.632934

>  <inspiration_score>  (3465) 
None

$$$$
RTGZANOIQCQNDT-UHFFFAOYSA-N-P126-P126-P177-601502
     RDKit          3D

 21 23  0  0  0  0  0  0  0  0999 V2000
    8.6281   17.4305   20.6258 C   0  0  0  0  0  0  0  0  0  0  0  0
    9.5890   16.3253   20.4784 C   0  0  0  0  0  0  0  0  0  0  0  0
   10.2390   15.6913   21.4275 N   0  0  0  0  0  0  0  0  0  0  0  0
   11.1045   14.8698   20.7592 C   0  0  0  0  0  0  0  0  0  0  0  0
   12.1295   14.1066   21.4995 C   0  0  0  0  0  0  0  0  0  0  0  0
   11.4327   13.1275   22.2691 N   0  0  0  0  0  0  0  0  0  0  0  0
   10.8435   13.2053   23.6824 C   0  0  0  0  0  0  0  0  0  0  0  0
   10.8979   14.0548   24.4781 O   0  0  0  0  0  0  0  0  0  0  0  0
   10.0367   11.9931   23.8980 C   0  0  0  0  0  0  0  0  0  0  0  0
   10.2729   10.8876   23.1719 N   0  0  0  0  0  0  0  0  0  0  0  0
    9.4198    9.9764   23.6544 N   0  0  0  0  0  0  0  0  0  0  0  0
    9.4442    8.6577   23.0738 C   0  0  0  0  0  0  0  0  0  0  0  0
    8.5864   10.4610   24.6307 C   0  0  0  0  0  0  0  0  0  0  0  0
    7.5566    9.8724   25.3744 C   0  0  0  0  0  0  0  0  0  0  0  0
    6.8583   10.6786   26.2770 C   0  0  0  0  0  0  0  0  0  0  0  0
    7.1885   12.0225   26.4291 C   0  0  0  0  0  0  0  0  0  0  0  0
    6.2290   13.0782   27.6711 Br  0  0  0  0  0  0  0  0  0  0  0  0
    8.2292   12.6014   25.6972 C   0  0  0  0  0  0  0  0  0  0  0  0
    8.9471   11.7983   24.7898 C   0  0  0  0  0  0  0  0  0  0  0  0
   10.8476   14.9506   19.4120 C   0  0  0  0  0  0  0  0  0  0  0  0
    9.8700   15.8833   19.2197 O   0  0  0  0  0  0  0  0  0  0  0  0
  1  2  1  0
  2  3  2  0
  3  4  1  0
  4  5  1  0
  5  6  1  0
  6  7  1  0
  7  8  2  0
  7  9  1  0
  9 10  2  0
 10 11  1  0
 11 12  1  0
 11 13  1  0
 13 14  2  0
 14 15  1  0
 15 16  2  0
 16 17  1  0
 16 18  1  0
 18 19  2  0
  4 20  2  0
 20 21  1  0
 21  2  1  0
 19  9  1  0
 19 13  1  0
M  END
>  <energy_score>  (3466) 
-37.129112

>  <inchikey>  (3466) 
RTGZANOIQCQNDT-UHFFFAOYSA-N

>  <smiles>  (3466) 
Cc1nc(CNC(=O)c2nn(C)c3ccc(Br)cc23)co1

>  <ref_pdb>  (3466) 
A0514a

>  <alias>  (3466) 
RTGZANOIQCQNDT-UHFFFAOYSA-N-P126-P126-P177-601502

>  <HIPPO Pose ID>  (3466) 
502778

>  <name>  (3466) 
RTGZANOIQCQNDT-UHFFFAOYSA-N-P126-P126-P177-601502

>  <HIPPO Compound ID>  (3466) 
299207

>  <ref_mols>  (3466) 
A3403a,A2290a

>  <distance_score>  (3466) 
0.78727

>  <inspiration_score>  (3466) 
None

$$$$
RTGZANOIQCQNDT-UHFFFAOYSA-N-P177-P126-P177-601502
     RDKit          3D

 21 23  0  0  0  0  0  0  0  0999 V2000
    8.5640   17.7190   20.4958 C   0  0  0  0  0  0  0  0  0  0  0  0
    9.5734   16.6641   20.3715 C   0  0  0  0  0  0  0  0  0  0  0  0
   10.2533   16.0921   21.3356 N   0  0  0  0  0  0  0  0  0  0  0  0
   11.0245   15.1657   20.6936 C   0  0  0  0  0  0  0  0  0  0  0  0
   11.9598   14.3302   21.4600 C   0  0  0  0  0  0  0  0  0  0  0  0
   11.1971   13.4061   22.2372 N   0  0  0  0  0  0  0  0  0  0  0  0
   10.5654   13.5554   23.6285 C   0  0  0  0  0  0  0  0  0  0  0  0
   10.6298   14.4287   24.3984 O   0  0  0  0  0  0  0  0  0  0  0  0
    9.7288   12.3594   23.8731 C   0  0  0  0  0  0  0  0  0  0  0  0
    9.8932   11.2491   23.1317 N   0  0  0  0  0  0  0  0  0  0  0  0
    9.0412   10.3579   23.6453 N   0  0  0  0  0  0  0  0  0  0  0  0
    9.0425    9.0137   23.1217 C   0  0  0  0  0  0  0  0  0  0  0  0
    8.2499   10.8665   24.6398 C   0  0  0  0  0  0  0  0  0  0  0  0
    7.2122   10.3090   25.3905 C   0  0  0  0  0  0  0  0  0  0  0  0
    6.6074   11.1110   26.3597 C   0  0  0  0  0  0  0  0  0  0  0  0
    7.0322   12.4212   26.5613 C   0  0  0  0  0  0  0  0  0  0  0  0
    6.2068   13.4667   27.9045 Br  0  0  0  0  0  0  0  0  0  0  0  0
    8.0671   12.9754   25.8029 C   0  0  0  0  0  0  0  0  0  0  0  0
    8.6875   12.1779   24.8239 C   0  0  0  0  0  0  0  0  0  0  0  0
   10.7622   15.2021   19.3443 C   0  0  0  0  0  0  0  0  0  0  0  0
    9.8159   16.1568   19.1269 O   0  0  0  0  0  0  0  0  0  0  0  0
  1  2  1  0
  2  3  2  0
  3  4  1  0
  4  5  1  0
  5  6  1  0
  6  7  1  0
  7  8  2  0
  7  9  1  0
  9 10  2  0
 10 11  1  0
 11 12  1  0
 11 13  1  0
 13 14  2  0
 14 15  1  0
 15 16  2  0
 16 17  1  0
 16 18  1  0
 18 19  2  0
  4 20  2  0
 20 21  1  0
 21  2  1  0
 19  9  1  0
 19 13  1  0
M  END
>  <energy_score>  (3467) 
-38.23417

>  <inchikey>  (3467) 
RTGZANOIQCQNDT-UHFFFAOYSA-N

>  <smiles>  (3467) 
Cc1nc(CNC(=O)c2nn(C)c3ccc(Br)cc23)co1

>  <ref_pdb>  (3467) 
A0514a

>  <alias>  (3467) 
RTGZANOIQCQNDT-UHFFFAOYSA-N-P177-P126-P177-601502

>  <HIPPO Pose ID>  (3467) 
502779

>  <name>  (3467) 
RTGZANOIQCQNDT-UHFFFAOYSA-N-P177-P126-P177-601502

>  <HIPPO Compound ID>  (3467) 
299207

>  <ref_mols>  (3467) 
A3403a,A2290a

>  <distance_score>  (3467) 
0.645521

>  <inspiration_score>  (3467) 
None

$$$$
WVOFLZAIPWZYLF-UHFFFAOYSA-N-P126-P126-P177-601502
     RDKit          3D

 21 23  0  0  0  0  0  0  0  0999 V2000
    9.4758    8.6897   23.0509 C   0  0  0  0  0  0  0  0  0  0  0  0
    9.3970    9.9998   23.6502 N   0  0  0  0  0  0  0  0  0  0  0  0
   10.2145   10.9555   23.1867 N   0  0  0  0  0  0  0  0  0  0  0  0
    9.9264   12.0372   23.9282 C   0  0  0  0  0  0  0  0  0  0  0  0
   10.6809   13.2831   23.7414 C   0  0  0  0  0  0  0  0  0  0  0  0
   10.7639   14.0799   24.5867 O   0  0  0  0  0  0  0  0  0  0  0  0
   11.2367   13.2870   22.3147 N   0  0  0  0  0  0  0  0  0  0  0  0
   11.9277   14.3020   21.5932 C   0  0  0  0  0  0  0  0  0  0  0  0
   10.9477   14.9882   20.7243 C   0  0  0  0  0  0  0  0  0  0  0  0
   10.8038   14.9285   19.3612 C   0  0  0  0  0  0  0  0  0  0  0  0
    9.8831   15.8588   18.9900 O   0  0  0  0  0  0  0  0  0  0  0  0
    9.5245   16.4690   20.1552 C   0  0  0  0  0  0  0  0  0  0  0  0
    8.4392   18.0418   20.1999 Br  0  0  0  0  0  0  0  0  0  0  0  0
   10.0680   15.9206   21.2220 N   0  0  0  0  0  0  0  0  0  0  0  0
    8.8521   11.7838   24.8197 C   0  0  0  0  0  0  0  0  0  0  0  0
    8.1109   12.5410   25.7460 C   0  0  0  0  0  0  0  0  0  0  0  0
    7.1026   11.9062   26.4684 C   0  0  0  0  0  0  0  0  0  0  0  0
    6.4058   12.6060   27.3739 F   0  0  0  0  0  0  0  0  0  0  0  0
    6.8204   10.5577   26.2955 C   0  0  0  0  0  0  0  0  0  0  0  0
    7.5420    9.7954   25.3739 C   0  0  0  0  0  0  0  0  0  0  0  0
    8.5451   10.4359   24.6362 C   0  0  0  0  0  0  0  0  0  0  0  0
  1  2  1  0
  2  3  1  0
  3  4  2  0
  4  5  1  0
  5  6  2  0
  5  7  1  0
  7  8  1  0
  8  9  1  0
  9 10  2  0
 10 11  1  0
 11 12  1  0
 12 13  1  0
 12 14  2  0
  4 15  1  0
 15 16  2  0
 16 17  1  0
 17 18  1  0
 17 19  2  0
 19 20  1  0
 20 21  2  0
 21  2  1  0
 14  9  1  0
 21 15  1  0
M  END
>  <energy_score>  (3468) 
-2.619898

>  <inchikey>  (3468) 
WVOFLZAIPWZYLF-UHFFFAOYSA-N

>  <smiles>  (3468) 
Cn1nc(C(=O)NCc2coc(Br)n2)c2cc(F)ccc21

>  <ref_pdb>  (3468) 
A0514a

>  <alias>  (3468) 
WVOFLZAIPWZYLF-UHFFFAOYSA-N-P126-P126-P177-601502

>  <HIPPO Pose ID>  (3468) 
502782

>  <name>  (3468) 
WVOFLZAIPWZYLF-UHFFFAOYSA-N-P126-P126-P177-601502

>  <HIPPO Compound ID>  (3468) 
299209

>  <ref_mols>  (3468) 
A3403a,A2290a

>  <distance_score>  (3468) 
0.758244

>  <inspiration_score>  (3468) 
None

$$$$
WVOFLZAIPWZYLF-UHFFFAOYSA-N-P177-P126-P177-601502
     RDKit          3D

 21 23  0  0  0  0  0  0  0  0999 V2000
    9.0931    9.0385   23.0825 C   0  0  0  0  0  0  0  0  0  0  0  0
    9.0470   10.3739   23.6310 N   0  0  0  0  0  0  0  0  0  0  0  0
    9.8756   11.3016   23.1421 N   0  0  0  0  0  0  0  0  0  0  0  0
    9.6543   12.3988   23.8860 C   0  0  0  0  0  0  0  0  0  0  0  0
   10.4397   13.6282   23.6589 C   0  0  0  0  0  0  0  0  0  0  0  0
   10.5220   14.4624   24.4686 O   0  0  0  0  0  0  0  0  0  0  0  0
   11.0556   13.5384   22.2578 N   0  0  0  0  0  0  0  0  0  0  0  0
   11.8202   14.4871   21.5198 C   0  0  0  0  0  0  0  0  0  0  0  0
   10.9165   15.2228   20.6204 C   0  0  0  0  0  0  0  0  0  0  0  0
   10.7598   15.1009   19.2619 C   0  0  0  0  0  0  0  0  0  0  0  0
    9.8510   16.0250   18.8615 O   0  0  0  0  0  0  0  0  0  0  0  0
    9.5266   16.7019   20.0041 C   0  0  0  0  0  0  0  0  0  0  0  0
    8.3912   18.2277   19.9934 Br  0  0  0  0  0  0  0  0  0  0  0  0
   10.1075   16.2309   21.0856 N   0  0  0  0  0  0  0  0  0  0  0  0
    8.6205   12.1689   24.8306 C   0  0  0  0  0  0  0  0  0  0  0  0
    7.9693   12.9333   25.8145 C   0  0  0  0  0  0  0  0  0  0  0  0
    6.9574   12.3318   26.5593 C   0  0  0  0  0  0  0  0  0  0  0  0
    6.3432   13.0377   27.5181 F   0  0  0  0  0  0  0  0  0  0  0  0
    6.5813   11.0122   26.3491 C   0  0  0  0  0  0  0  0  0  0  0  0
    7.2165   10.2411   25.3748 C   0  0  0  0  0  0  0  0  0  0  0  0
    8.2338   10.8432   24.6301 C   0  0  0  0  0  0  0  0  0  0  0  0
  1  2  1  0
  2  3  1  0
  3  4  2  0
  4  5  1  0
  5  6  2  0
  5  7  1  0
  7  8  1  0
  8  9  1  0
  9 10  2  0
 10 11  1  0
 11 12  1  0
 12 13  1  0
 12 14  2  0
  4 15  1  0
 15 16  2  0
 16 17  1  0
 17 18  1  0
 17 19  2  0
 19 20  1  0
 20 21  2  0
 21  2  1  0
 14  9  1  0
 21 15  1  0
M  END
>  <energy_score>  (3469) 
-4.229733

>  <inchikey>  (3469) 
WVOFLZAIPWZYLF-UHFFFAOYSA-N

>  <smiles>  (3469) 
Cn1nc(C(=O)NCc2coc(Br)n2)c2cc(F)ccc21

>  <ref_pdb>  (3469) 
A0514a

>  <alias>  (3469) 
WVOFLZAIPWZYLF-UHFFFAOYSA-N-P177-P126-P177-601502

>  <HIPPO Pose ID>  (3469) 
502783

>  <name>  (3469) 
WVOFLZAIPWZYLF-UHFFFAOYSA-N-P177-P126-P177-601502

>  <HIPPO Compound ID>  (3469) 
299209

>  <ref_mols>  (3469) 
A3403a,A2290a

>  <distance_score>  (3469) 
0.711239

>  <inspiration_score>  (3469) 
None

$$$$
SAQQVGQADZPGPI-UHFFFAOYSA-N-P126-P126-P177-601502
     RDKit          3D

 22 24  0  0  0  0  0  0  0  0999 V2000
   13.3813   15.1798   21.5191 C   0  0  0  0  0  0  0  0  0  0  0  0
   12.3535   14.5919   22.4216 C   0  0  0  0  0  0  0  0  0  0  0  0
   11.3015   13.9825   21.5429 C   0  0  1  0  0  0  0  0  0  0  0  0
   10.5306   13.0934   22.3190 N   0  0  0  0  0  0  0  0  0  0  0  0
    9.9470   13.2497   23.7199 C   0  0  0  0  0  0  0  0  0  0  0  0
    9.9394   14.1654   24.4363 O   0  0  0  0  0  0  0  0  0  0  0  0
    9.4076   11.9527   24.0666 C   0  0  0  0  0  0  0  0  0  0  0  0
    9.8302   10.8731   23.3891 N   0  0  0  0  0  0  0  0  0  0  0  0
    9.0815    9.8775   23.8608 N   0  0  0  0  0  0  0  0  0  0  0  0
    9.2148    8.5996   23.2112 C   0  0  0  0  0  0  0  0  0  0  0  0
    8.2147   10.2776   24.8504 C   0  0  0  0  0  0  0  0  0  0  0  0
    7.2377    9.6114   25.5848 C   0  0  0  0  0  0  0  0  0  0  0  0
    6.4863   10.3375   26.5137 C   0  0  0  0  0  0  0  0  0  0  0  0
    6.7011   11.6996   26.6911 C   0  0  0  0  0  0  0  0  0  0  0  0
    5.6632   12.6481   27.9548 Br  0  0  0  0  0  0  0  0  0  0  0  0
    7.6653   12.3750   25.9467 C   0  0  0  0  0  0  0  0  0  0  0  0
    8.4274   11.6420   25.0191 C   0  0  0  0  0  0  0  0  0  0  0  0
   10.4668   14.9347   20.7769 C   0  0  0  0  0  0  0  0  0  0  0  0
   10.4969   15.2040   19.4282 C   0  0  0  0  0  0  0  0  0  0  0  0
    9.7065   16.2859   19.1891 O   0  0  0  0  0  0  0  0  0  0  0  0
    9.2227   16.6063   20.4163 C   0  0  0  0  0  0  0  0  0  0  0  0
    9.5902   15.7928   21.3774 N   0  0  0  0  0  0  0  0  0  0  0  0
  1  2  1  0
  3  2  1  1
  3  4  1  0
  4  5  1  0
  5  6  2  0
  5  7  1  0
  7  8  2  0
  8  9  1  0
  9 10  1  0
  9 11  1  0
 11 12  2  0
 12 13  1  0
 13 14  2  0
 14 15  1  0
 14 16  1  0
 16 17  2  0
  3 18  1  0
 18 19  2  0
 19 20  1  0
 20 21  1  0
 21 22  2  0
 17  7  1  0
 22 18  1  0
 17 11  1  0
M  END
>  <energy_score>  (3470) 
-5.466794

>  <inchikey>  (3470) 
SAQQVGQADZPGPI-UHFFFAOYSA-N

>  <smiles>  (3470) 
CCC(NC(=O)c1nn(C)c2ccc(Br)cc12)c1cocn1

>  <ref_pdb>  (3470) 
A0514a

>  <alias>  (3470) 
SAQQVGQADZPGPI-UHFFFAOYSA-N-P126-P126-P177-601502

>  <HIPPO Pose ID>  (3470) 
502788

>  <name>  (3470) 
SAQQVGQADZPGPI-UHFFFAOYSA-N-P126-P126-P177-601502

>  <HIPPO Compound ID>  (3470) 
299212

>  <ref_mols>  (3470) 
A3403a,A2290a

>  <distance_score>  (3470) 
0.883052

>  <inspiration_score>  (3470) 
None

$$$$
SAQQVGQADZPGPI-UHFFFAOYSA-N-P177-P126-P177-601502
     RDKit          3D

 22 24  0  0  0  0  0  0  0  0999 V2000
   12.9525   15.2947   21.2365 C   0  0  0  0  0  0  0  0  0  0  0  0
   11.9364   14.7548   22.1699 C   0  0  0  0  0  0  0  0  0  0  0  0
   10.7574   14.3341   21.3467 C   0  0  1  0  0  0  0  0  0  0  0  0
   10.0145   13.4694   22.1664 N   0  0  0  0  0  0  0  0  0  0  0  0
    9.4897   13.6558   23.5860 C   0  0  0  0  0  0  0  0  0  0  0  0
    9.5184   14.5846   24.2853 O   0  0  0  0  0  0  0  0  0  0  0  0
    8.9948   12.3535   23.9889 C   0  0  0  0  0  0  0  0  0  0  0  0
    9.3676   11.2579   23.3010 N   0  0  0  0  0  0  0  0  0  0  0  0
    8.6944   10.2647   23.8784 N   0  0  0  0  0  0  0  0  0  0  0  0
    8.8924    8.9311   23.3709 C   0  0  0  0  0  0  0  0  0  0  0  0
    7.8662   10.6943   24.8834 C   0  0  0  0  0  0  0  0  0  0  0  0
    6.9211   10.0517   25.6695 C   0  0  0  0  0  0  0  0  0  0  0  0
    6.2573   10.7870   26.6550 C   0  0  0  0  0  0  0  0  0  0  0  0
    6.5220   12.1387   26.8303 C   0  0  0  0  0  0  0  0  0  0  0  0
    5.6175   13.0963   28.1859 Br  0  0  0  0  0  0  0  0  0  0  0  0
    7.4378   12.7981   26.0160 C   0  0  0  0  0  0  0  0  0  0  0  0
    8.1064   12.0547   25.0285 C   0  0  0  0  0  0  0  0  0  0  0  0
    9.9784   15.4383   20.7677 C   0  0  0  0  0  0  0  0  0  0  0  0
   10.0110   15.8624   19.4602 C   0  0  0  0  0  0  0  0  0  0  0  0
    9.3192   17.0263   19.3839 O   0  0  0  0  0  0  0  0  0  0  0  0
    8.8785   17.2292   20.6550 C   0  0  0  0  0  0  0  0  0  0  0  0
    9.2122   16.2918   21.5102 N   0  0  0  0  0  0  0  0  0  0  0  0
  1  2  1  0
  3  2  1  1
  3  4  1  0
  4  5  1  0
  5  6  2  0
  5  7  1  0
  7  8  2  0
  8  9  1  0
  9 10  1  0
  9 11  1  0
 11 12  2  0
 12 13  1  0
 13 14  2  0
 14 15  1  0
 14 16  1  0
 16 17  2  0
  3 18  1  0
 18 19  2  0
 19 20  1  0
 20 21  1  0
 21 22  2  0
 17  7  1  0
 22 18  1  0
 17 11  1  0
M  END
>  <energy_score>  (3471) 
-3.883914

>  <inchikey>  (3471) 
SAQQVGQADZPGPI-UHFFFAOYSA-N

>  <smiles>  (3471) 
CCC(NC(=O)c1nn(C)c2ccc(Br)cc12)c1cocn1

>  <ref_pdb>  (3471) 
A0514a

>  <alias>  (3471) 
SAQQVGQADZPGPI-UHFFFAOYSA-N-P177-P126-P177-601502

>  <HIPPO Pose ID>  (3471) 
502789

>  <name>  (3471) 
SAQQVGQADZPGPI-UHFFFAOYSA-N-P177-P126-P177-601502

>  <HIPPO Compound ID>  (3471) 
299212

>  <ref_mols>  (3471) 
A3403a,A2290a

>  <distance_score>  (3471) 
1.107937

>  <inspiration_score>  (3471) 
None

$$$$
FCFCTZBQIXCJMO-UHFFFAOYSA-N-P126-P126-P177-601502
     RDKit          3D

 22 25  0  0  0  0  0  0  0  0999 V2000
    9.3879    8.6621   23.1056 C   0  0  0  0  0  0  0  0  0  0  0  0
    9.2605    9.9570   23.7269 N   0  0  0  0  0  0  0  0  0  0  0  0
    9.9983   10.9621   23.2356 N   0  0  0  0  0  0  0  0  0  0  0  0
    9.6269   12.0287   23.9620 C   0  0  0  0  0  0  0  0  0  0  0  0
   10.1959   13.3383   23.6787 C   0  0  0  0  0  0  0  0  0  0  0  0
   10.2629   14.1796   24.4817 O   0  0  0  0  0  0  0  0  0  0  0  0
   10.5915   13.3434   22.1976 N   0  0  0  0  0  0  0  0  0  0  0  0
   11.2251   14.3266   21.4285 C   0  0  0  0  0  0  0  0  0  0  0  0
   10.2927   15.2806   20.6373 C   0  0  0  0  0  0  0  0  0  0  0  0
   10.3019   15.4733   19.2829 C   0  0  0  0  0  0  0  0  0  0  0  0
    9.5452   16.5719   19.0095 O   0  0  0  0  0  0  0  0  0  0  0  0
    9.0876   16.9535   20.2332 C   0  0  0  0  0  0  0  0  0  0  0  0
    9.4550   16.1743   21.2216 N   0  0  0  0  0  0  0  0  0  0  0  0
   12.5262   14.8883   21.9188 C   0  0  0  0  0  0  0  0  0  0  0  0
   12.5235   13.9420   20.7755 C   0  0  0  0  0  0  0  0  0  0  0  0
    8.6271   11.7097   24.9049 C   0  0  0  0  0  0  0  0  0  0  0  0
    7.8645   12.4318   25.8424 C   0  0  0  0  0  0  0  0  0  0  0  0
    6.8962   11.7506   26.5804 C   0  0  0  0  0  0  0  0  0  0  0  0
    5.8634   12.6916   27.8543 Br  0  0  0  0  0  0  0  0  0  0  0  0
    6.6814   10.3886   26.3973 C   0  0  0  0  0  0  0  0  0  0  0  0
    7.4337    9.6678   25.4652 C   0  0  0  0  0  0  0  0  0  0  0  0
    8.4011   10.3491   24.7253 C   0  0  0  0  0  0  0  0  0  0  0  0
  1  2  1  0
  2  3  1  0
  3  4  2  0
  4  5  1  0
  5  6  2  0
  5  7  1  0
  7  8  1  0
  8  9  1  0
  9 10  2  0
 10 11  1  0
 11 12  1  0
 12 13  2  0
  8 14  1  0
 14 15  1  0
  4 16  1  0
 16 17  2  0
 17 18  1  0
 18 19  1  0
 18 20  2  0
 20 21  1  0
 21 22  2  0
 22  2  1  0
 15  8  1  0
 22 16  1  0
 13  9  1  0
M  END
>  <energy_score>  (3472) 
-18.208901

>  <inchikey>  (3472) 
FCFCTZBQIXCJMO-UHFFFAOYSA-N

>  <smiles>  (3472) 
Cn1nc(C(=O)NC2(c3cocn3)CC2)c2cc(Br)ccc21

>  <ref_pdb>  (3472) 
A0514a

>  <alias>  (3472) 
FCFCTZBQIXCJMO-UHFFFAOYSA-N-P126-P126-P177-601502

>  <HIPPO Pose ID>  (3472) 
502792

>  <name>  (3472) 
FCFCTZBQIXCJMO-UHFFFAOYSA-N-P126-P126-P177-601502

>  <HIPPO Compound ID>  (3472) 
299214

>  <ref_mols>  (3472) 
A3403a,A2290a

>  <distance_score>  (3472) 
0.801461

>  <inspiration_score>  (3472) 
None

$$$$
FCFCTZBQIXCJMO-UHFFFAOYSA-N-P177-P126-P177-601502
     RDKit          3D

 22 25  0  0  0  0  0  0  0  0999 V2000
    9.0733    8.9882   23.1127 C   0  0  0  0  0  0  0  0  0  0  0  0
    8.9968   10.3291   23.6418 N   0  0  0  0  0  0  0  0  0  0  0  0
    9.7564   11.2844   23.0948 N   0  0  0  0  0  0  0  0  0  0  0  0
    9.4885   12.3905   23.8103 C   0  0  0  0  0  0  0  0  0  0  0  0
   10.1195   13.6748   23.4722 C   0  0  0  0  0  0  0  0  0  0  0  0
   10.1191   14.5777   24.2110 O   0  0  0  0  0  0  0  0  0  0  0  0
   10.6328   13.5697   22.0252 N   0  0  0  0  0  0  0  0  0  0  0  0
   11.1549   14.5525   21.1683 C   0  0  0  0  0  0  0  0  0  0  0  0
   10.1541   15.5989   20.6602 C   0  0  0  0  0  0  0  0  0  0  0  0
    9.9768   15.9328   19.3474 C   0  0  0  0  0  0  0  0  0  0  0  0
    9.2000   17.0454   19.3147 O   0  0  0  0  0  0  0  0  0  0  0  0
    8.8994   17.2685   20.6239 C   0  0  0  0  0  0  0  0  0  0  0  0
    9.4100   16.4002   21.4625 N   0  0  0  0  0  0  0  0  0  0  0  0
   12.5507   15.0100   21.4160 C   0  0  0  0  0  0  0  0  0  0  0  0
   12.2634   14.1839   20.2107 C   0  0  0  0  0  0  0  0  0  0  0  0
    8.5184   12.1316   24.8101 C   0  0  0  0  0  0  0  0  0  0  0  0
    7.8592   12.8935   25.7926 C   0  0  0  0  0  0  0  0  0  0  0  0
    6.8832   12.2736   26.5751 C   0  0  0  0  0  0  0  0  0  0  0  0
    5.9996   13.2680   27.9194 Br  0  0  0  0  0  0  0  0  0  0  0  0
    6.5521   10.9356   26.3879 C   0  0  0  0  0  0  0  0  0  0  0  0
    7.2010   10.1714   25.4158 C   0  0  0  0  0  0  0  0  0  0  0  0
    8.1864   10.7892   24.6467 C   0  0  0  0  0  0  0  0  0  0  0  0
  1  2  1  0
  2  3  1  0
  3  4  2  0
  4  5  1  0
  5  6  2  0
  5  7  1  0
  7  8  1  0
  8  9  1  0
  9 10  2  0
 10 11  1  0
 11 12  1  0
 12 13  2  0
  8 14  1  0
 14 15  1  0
  4 16  1  0
 16 17  2  0
 17 18  1  0
 18 19  1  0
 18 20  2  0
 20 21  1  0
 21 22  2  0
 22  2  1  0
 15  8  1  0
 22 16  1  0
 13  9  1  0
M  END
>  <energy_score>  (3473) 
-18.444024

>  <inchikey>  (3473) 
FCFCTZBQIXCJMO-UHFFFAOYSA-N

>  <smiles>  (3473) 
Cn1nc(C(=O)NC2(c3cocn3)CC2)c2cc(Br)ccc21

>  <ref_pdb>  (3473) 
A0514a

>  <alias>  (3473) 
FCFCTZBQIXCJMO-UHFFFAOYSA-N-P177-P126-P177-601502

>  <HIPPO Pose ID>  (3473) 
502793

>  <name>  (3473) 
FCFCTZBQIXCJMO-UHFFFAOYSA-N-P177-P126-P177-601502

>  <HIPPO Compound ID>  (3473) 
299214

>  <ref_mols>  (3473) 
A3403a,A2290a

>  <distance_score>  (3473) 
0.930237

>  <inspiration_score>  (3473) 
None

$$$$
WRSOKQNOHQYYSD-UHFFFAOYSA-N-P126-P126-P177-601502
     RDKit          3D

 22 24  0  0  0  0  0  0  0  0999 V2000
    7.4794   18.5977   19.2575 C   0  0  0  0  0  0  0  0  0  0  0  0
    8.7946   18.2450   19.8211 C   0  0  0  0  0  0  0  0  0  0  0  0
    9.2773   16.8444   19.9742 C   0  0  0  0  0  0  0  0  0  0  0  0
    9.6929   16.2424   21.0739 N   0  0  0  0  0  0  0  0  0  0  0  0
   10.5448   15.2515   20.6376 C   0  0  0  0  0  0  0  0  0  0  0  0
   11.5140   14.5742   21.5375 C   0  0  0  0  0  0  0  0  0  0  0  0
   10.8655   13.5119   22.2302 N   0  0  0  0  0  0  0  0  0  0  0  0
   10.4523   13.3878   23.6989 C   0  0  0  0  0  0  0  0  0  0  0  0
   10.5046   14.1628   24.5662 O   0  0  0  0  0  0  0  0  0  0  0  0
    9.8242   12.0788   23.9011 C   0  0  0  0  0  0  0  0  0  0  0  0
   10.1663   11.0186   23.1532 N   0  0  0  0  0  0  0  0  0  0  0  0
    9.4053   10.0178   23.6262 N   0  0  0  0  0  0  0  0  0  0  0  0
    9.5355    8.7130   23.0234 C   0  0  0  0  0  0  0  0  0  0  0  0
    8.5424   10.4069   24.6223 C   0  0  0  0  0  0  0  0  0  0  0  0
    7.5684    9.7209   25.3540 C   0  0  0  0  0  0  0  0  0  0  0  0
    6.8127   10.4408   26.2836 C   0  0  0  0  0  0  0  0  0  0  0  0
    7.0355   11.8007   26.4760 C   0  0  0  0  0  0  0  0  0  0  0  0
    6.0008   12.7392   27.7506 Br  0  0  0  0  0  0  0  0  0  0  0  0
    8.0184   12.4803   25.7537 C   0  0  0  0  0  0  0  0  0  0  0  0
    8.7866   11.7624   24.8157 C   0  0  0  0  0  0  0  0  0  0  0  0
   10.4744   15.1965   19.2689 C   0  0  0  0  0  0  0  0  0  0  0  0
    9.6639   16.2023   18.8324 O   0  0  0  0  0  0  0  0  0  0  0  0
  1  2  1  0
  2  3  1  0
  3  4  2  0
  4  5  1  0
  5  6  1  0
  6  7  1  0
  7  8  1  0
  8  9  2  0
  8 10  1  0
 10 11  2  0
 11 12  1  0
 12 13  1  0
 12 14  1  0
 14 15  2  0
 15 16  1  0
 16 17  2  0
 17 18  1  0
 17 19  1  0
 19 20  2  0
  5 21  2  0
 21 22  1  0
 22  3  1  0
 20 10  1  0
 20 14  1  0
M  END
>  <energy_score>  (3474) 
-2.994384

>  <inchikey>  (3474) 
WRSOKQNOHQYYSD-UHFFFAOYSA-N

>  <smiles>  (3474) 
CCc1nc(CNC(=O)c2nn(C)c3ccc(Br)cc23)co1

>  <ref_pdb>  (3474) 
A0514a

>  <alias>  (3474) 
WRSOKQNOHQYYSD-UHFFFAOYSA-N-P126-P126-P177-601502

>  <HIPPO Pose ID>  (3474) 
502794

>  <name>  (3474) 
WRSOKQNOHQYYSD-UHFFFAOYSA-N-P126-P126-P177-601502

>  <HIPPO Compound ID>  (3474) 
299215

>  <ref_mols>  (3474) 
A3403a,A2290a

>  <distance_score>  (3474) 
0.690672

>  <inspiration_score>  (3474) 
None

$$$$
MUZKBLSKKHCWQQ-UHFFFAOYSA-N-P126-P126-P177-601502
     RDKit          3D

 22 24  0  0  0  0  0  0  0  0999 V2000
    9.7142    8.9584   23.0933 C   0  0  0  0  0  0  0  0  0  0  0  0
    9.3582   10.1941   23.7558 N   0  0  0  0  0  0  0  0  0  0  0  0
    9.8754   11.3577   23.3049 N   0  0  0  0  0  0  0  0  0  0  0  0
    9.2761   12.2910   24.0644 C   0  0  0  0  0  0  0  0  0  0  0  0
    9.2396   13.7114   23.7284 C   0  0  0  0  0  0  0  0  0  0  0  0
    8.9222   14.5008   24.5242 O   0  0  0  0  0  0  0  0  0  0  0  0
    9.5664   13.8763   22.2396 N   0  0  0  0  0  0  0  0  0  0  0  0
    9.4872   14.9503   21.4463 N   0  0  0  0  0  0  0  0  0  0  0  0
   10.2226   15.2828   20.1464 C   0  0  0  0  0  0  0  0  0  0  0  0
   11.0722   14.7135   19.5941 O   0  0  0  0  0  0  0  0  0  0  0  0
    9.5982   16.5143   19.6834 C   0  0  0  0  0  0  0  0  0  0  0  0
    9.6924   17.1176   18.4605 C   0  0  0  0  0  0  0  0  0  0  0  0
    8.8865   18.2148   18.4639 O   0  0  0  0  0  0  0  0  0  0  0  0
    8.3619   18.2498   19.7183 C   0  0  0  0  0  0  0  0  0  0  0  0
    8.7418   17.2595   20.4943 N   0  0  0  0  0  0  0  0  0  0  0  0
    8.4250   11.7228   25.0412 C   0  0  0  0  0  0  0  0  0  0  0  0
    7.5427   12.2387   26.0127 C   0  0  0  0  0  0  0  0  0  0  0  0
    6.6880   11.3625   26.6732 C   0  0  0  0  0  0  0  0  0  0  0  0
    5.4849   12.0249   27.9711 Br  0  0  0  0  0  0  0  0  0  0  0  0
    6.6952   10.0070   26.3741 C   0  0  0  0  0  0  0  0  0  0  0  0
    7.5749    9.4898   25.4163 C   0  0  0  0  0  0  0  0  0  0  0  0
    8.4365   10.3664   24.7618 C   0  0  0  0  0  0  0  0  0  0  0  0
  1  2  1  0
  2  3  1  0
  3  4  2  0
  4  5  1  0
  5  6  2  0
  5  7  1  0
  7  8  1  0
  8  9  1  0
  9 10  2  0
  9 11  1  0
 11 12  2  0
 12 13  1  0
 13 14  1  0
 14 15  2  0
  4 16  1  0
 16 17  2  0
 17 18  1  0
 18 19  1  0
 18 20  2  0
 20 21  1  0
 21 22  2  0
 22  2  1  0
 15 11  1  0
 22 16  1  0
M  END
>  <energy_score>  (3475) 
-5.461312

>  <inchikey>  (3475) 
MUZKBLSKKHCWQQ-UHFFFAOYSA-N

>  <smiles>  (3475) 
Cn1nc(C(=O)NNC(=O)c2cocn2)c2cc(Br)ccc21

>  <ref_pdb>  (3475) 
A0514a

>  <alias>  (3475) 
MUZKBLSKKHCWQQ-UHFFFAOYSA-N-P126-P126-P177-601502

>  <HIPPO Pose ID>  (3475) 
502796

>  <name>  (3475) 
MUZKBLSKKHCWQQ-UHFFFAOYSA-N-P126-P126-P177-601502

>  <HIPPO Compound ID>  (3475) 
299216

>  <ref_mols>  (3475) 
A3403a,A2290a

>  <distance_score>  (3475) 
1.458725

>  <inspiration_score>  (3475) 
None

$$$$
DFRKLXSOLXDZQW-UHFFFAOYSA-N-P126-P126-P177-601502
     RDKit          3D

 22 24  0  0  0  0  0  0  0  0999 V2000
   11.9010   14.4941   18.3121 C   0  0  0  0  0  0  0  0  0  0  0  0
   12.2116   14.3608   19.7559 C   0  0  0  0  0  0  0  0  0  0  0  0
   11.0555   14.8066   20.5032 C   0  0  0  0  0  0  0  0  0  0  0  0
   10.0386   15.4960   19.9076 O   0  0  0  0  0  0  0  0  0  0  0  0
    9.2077   15.7438   20.9433 C   0  0  0  0  0  0  0  0  0  0  0  0
    9.5495   15.1559   22.0662 N   0  0  0  0  0  0  0  0  0  0  0  0
   10.8312   14.7541   21.8338 C   0  0  0  0  0  0  0  0  0  0  0  0
   11.7615   14.2741   22.8642 C   0  0  0  0  0  0  0  0  0  0  0  0
   11.0425   13.2391   23.4672 N   0  0  0  0  0  0  0  0  0  0  0  0
   10.2214   13.2214   24.7387 C   0  0  0  0  0  0  0  0  0  0  0  0
   10.0632   14.0410   25.5449 O   0  0  0  0  0  0  0  0  0  0  0  0
    9.5397   11.9389   24.7232 C   0  0  0  0  0  0  0  0  0  0  0  0
    9.9433   10.9692   23.8798 N   0  0  0  0  0  0  0  0  0  0  0  0
    9.0743    9.9737   24.0847 N   0  0  0  0  0  0  0  0  0  0  0  0
    9.2247    8.7851   23.2801 C   0  0  0  0  0  0  0  0  0  0  0  0
    8.1230   10.2825   25.0292 C   0  0  0  0  0  0  0  0  0  0  0  0
    7.0558    9.5783   25.5759 C   0  0  0  0  0  0  0  0  0  0  0  0
    6.2276   10.2191   26.5019 C   0  0  0  0  0  0  0  0  0  0  0  0
    6.4535   11.5418   26.8593 C   0  0  0  0  0  0  0  0  0  0  0  0
    5.2993   12.3826   28.0976 Br  0  0  0  0  0  0  0  0  0  0  0  0
    7.5281   12.2480   26.3296 C   0  0  0  0  0  0  0  0  0  0  0  0
    8.3793   11.5897   25.4237 C   0  0  0  0  0  0  0  0  0  0  0  0
  1  2  1  0
  2  3  1  0
  3  4  1  0
  4  5  1  0
  5  6  2  0
  6  7  1  0
  7  8  1  0
  8  9  1  0
  9 10  1  0
 10 11  2  0
 10 12  1  0
 12 13  2  0
 13 14  1  0
 14 15  1  0
 14 16  1  0
 16 17  2  0
 17 18  1  0
 18 19  2  0
 19 20  1  0
 19 21  1  0
 21 22  2  0
  7  3  2  0
 22 12  1  0
 22 16  1  0
M  END
>  <energy_score>  (3476) 
-27.682245

>  <inchikey>  (3476) 
DFRKLXSOLXDZQW-UHFFFAOYSA-N

>  <smiles>  (3476) 
CCc1ocnc1CNC(=O)c1nn(C)c2ccc(Br)cc12

>  <ref_pdb>  (3476) 
A0514a

>  <alias>  (3476) 
DFRKLXSOLXDZQW-UHFFFAOYSA-N-P126-P126-P177-601502

>  <HIPPO Pose ID>  (3476) 
502798

>  <name>  (3476) 
DFRKLXSOLXDZQW-UHFFFAOYSA-N-P126-P126-P177-601502

>  <HIPPO Compound ID>  (3476) 
299217

>  <ref_mols>  (3476) 
A3403a,A2290a

>  <distance_score>  (3476) 
1.315305

>  <inspiration_score>  (3476) 
None

$$$$
DFRKLXSOLXDZQW-UHFFFAOYSA-N-P177-P126-P177-601502
     RDKit          3D

 22 24  0  0  0  0  0  0  0  0999 V2000
   11.8061   14.4587   18.5588 C   0  0  0  0  0  0  0  0  0  0  0  0
   10.7588   15.5088   18.6183 C   0  0  0  0  0  0  0  0  0  0  0  0
   10.2542   15.7976   19.9473 C   0  0  0  0  0  0  0  0  0  0  0  0
    9.2320   16.6954   19.9687 O   0  0  0  0  0  0  0  0  0  0  0  0
    8.8555   16.7170   21.2649 C   0  0  0  0  0  0  0  0  0  0  0  0
    9.5361   15.9143   22.0465 N   0  0  0  0  0  0  0  0  0  0  0  0
   10.5195   15.4024   21.2331 C   0  0  0  0  0  0  0  0  0  0  0  0
   11.5920   14.5496   21.7919 C   0  0  0  0  0  0  0  0  0  0  0  0
   10.9444   13.5231   22.5205 N   0  0  0  0  0  0  0  0  0  0  0  0
   10.4471   13.4923   23.9640 C   0  0  0  0  0  0  0  0  0  0  0  0
   10.5557   14.2768   24.8171 O   0  0  0  0  0  0  0  0  0  0  0  0
    9.6579   12.2693   24.1151 C   0  0  0  0  0  0  0  0  0  0  0  0
    9.8858   11.2071   23.3251 N   0  0  0  0  0  0  0  0  0  0  0  0
    9.0150   10.2825   23.7394 N   0  0  0  0  0  0  0  0  0  0  0  0
    9.0470    8.9778   23.1230 C   0  0  0  0  0  0  0  0  0  0  0  0
    8.1771   10.7324   24.7282 C   0  0  0  0  0  0  0  0  0  0  0  0
    7.1244   10.1345   25.4169 C   0  0  0  0  0  0  0  0  0  0  0  0
    6.4625   10.8843   26.3919 C   0  0  0  0  0  0  0  0  0  0  0  0
    6.8430   12.1949   26.6581 C   0  0  0  0  0  0  0  0  0  0  0  0
    5.9343   13.1711   27.9985 Br  0  0  0  0  0  0  0  0  0  0  0  0
    7.8975   12.7929   25.9687 C   0  0  0  0  0  0  0  0  0  0  0  0
    8.5781   12.0378   24.9963 C   0  0  0  0  0  0  0  0  0  0  0  0
  1  2  1  0
  2  3  1  0
  3  4  1  0
  4  5  1  0
  5  6  2  0
  6  7  1  0
  7  8  1  0
  8  9  1  0
  9 10  1  0
 10 11  2  0
 10 12  1  0
 12 13  2  0
 13 14  1  0
 14 15  1  0
 14 16  1  0
 16 17  2  0
 17 18  1  0
 18 19  2  0
 19 20  1  0
 19 21  1  0
 21 22  2  0
  7  3  2  0
 22 12  1  0
 22 16  1  0
M  END
>  <energy_score>  (3477) 
-33.892453

>  <inchikey>  (3477) 
DFRKLXSOLXDZQW-UHFFFAOYSA-N

>  <smiles>  (3477) 
CCc1ocnc1CNC(=O)c1nn(C)c2ccc(Br)cc12

>  <ref_pdb>  (3477) 
A0514a

>  <alias>  (3477) 
DFRKLXSOLXDZQW-UHFFFAOYSA-N-P177-P126-P177-601502

>  <HIPPO Pose ID>  (3477) 
502799

>  <name>  (3477) 
DFRKLXSOLXDZQW-UHFFFAOYSA-N-P177-P126-P177-601502

>  <HIPPO Compound ID>  (3477) 
299217

>  <ref_mols>  (3477) 
A3403a,A2290a

>  <distance_score>  (3477) 
0.945814

>  <inspiration_score>  (3477) 
None

$$$$
XISCNXJCGBDJBM-UHFFFAOYSA-N-P126-P126-P177-601502
     RDKit          3D

 22 24  0  0  0  0  0  0  0  0999 V2000
   13.3666   15.1714   21.5388 C   0  0  0  0  0  0  0  0  0  0  0  0
   12.3677   14.5573   22.4598 C   0  0  0  0  0  0  0  0  0  0  0  0
   11.3204   13.9239   21.5935 C   0  0  1  0  0  0  0  0  0  0  0  0
   10.5354   13.0581   22.3833 N   0  0  0  0  0  0  0  0  0  0  0  0
    9.8798   13.2772   23.7419 C   0  0  0  0  0  0  0  0  0  0  0  0
    9.8126   14.2313   24.4016 O   0  0  0  0  0  0  0  0  0  0  0  0
    9.2849   12.0106   24.1107 C   0  0  0  0  0  0  0  0  0  0  0  0
    9.6484   10.9002   23.4481 N   0  0  0  0  0  0  0  0  0  0  0  0
    8.9260    9.9393   24.0154 N   0  0  0  0  0  0  0  0  0  0  0  0
    9.1528    8.5911   23.5762 C   0  0  0  0  0  0  0  0  0  0  0  0
    8.0632   10.3946   24.9819 C   0  0  0  0  0  0  0  0  0  0  0  0
    7.0881    9.7674   25.7584 C   0  0  0  0  0  0  0  0  0  0  0  0
    6.3765   10.5453   26.6740 C   0  0  0  0  0  0  0  0  0  0  0  0
    6.6281   11.9048   26.7920 C   0  0  0  0  0  0  0  0  0  0  0  0
    5.9334   12.6208   27.6862 F   0  0  0  0  0  0  0  0  0  0  0  0
    7.5834   12.5383   26.0059 C   0  0  0  0  0  0  0  0  0  0  0  0
    8.3068   11.7599   25.0871 C   0  0  0  0  0  0  0  0  0  0  0  0
   10.4924   14.8683   20.8054 C   0  0  0  0  0  0  0  0  0  0  0  0
   10.5390   15.1327   19.4559 C   0  0  0  0  0  0  0  0  0  0  0  0
    9.7463   16.2104   19.2029 O   0  0  0  0  0  0  0  0  0  0  0  0
    9.2522   16.5393   20.4232 C   0  0  0  0  0  0  0  0  0  0  0  0
    9.6087   15.7307   21.3925 N   0  0  0  0  0  0  0  0  0  0  0  0
  1  2  1  0
  3  2  1  1
  3  4  1  0
  4  5  1  0
  5  6  2  0
  5  7  1  0
  7  8  2  0
  8  9  1  0
  9 10  1  0
  9 11  1  0
 11 12  2  0
 12 13  1  0
 13 14  2  0
 14 15  1  0
 14 16  1  0
 16 17  2  0
  3 18  1  0
 18 19  2  0
 19 20  1  0
 20 21  1  0
 21 22  2  0
 17  7  1  0
 22 18  1  0
 17 11  1  0
M  END
>  <energy_score>  (3478) 
-11.028621

>  <inchikey>  (3478) 
XISCNXJCGBDJBM-UHFFFAOYSA-N

>  <smiles>  (3478) 
CCC(NC(=O)c1nn(C)c2ccc(F)cc12)c1cocn1

>  <ref_pdb>  (3478) 
A0514a

>  <alias>  (3478) 
XISCNXJCGBDJBM-UHFFFAOYSA-N-P126-P126-P177-601502

>  <HIPPO Pose ID>  (3478) 
502802

>  <name>  (3478) 
XISCNXJCGBDJBM-UHFFFAOYSA-N-P126-P126-P177-601502

>  <HIPPO Compound ID>  (3478) 
299219

>  <ref_mols>  (3478) 
A3403a,A2290a

>  <distance_score>  (3478) 
0.903465

>  <inspiration_score>  (3478) 
None

$$$$
XISCNXJCGBDJBM-UHFFFAOYSA-N-P177-P126-P177-601502
     RDKit          3D

 22 24  0  0  0  0  0  0  0  0999 V2000
   12.7948   15.0841   20.7178 C   0  0  0  0  0  0  0  0  0  0  0  0
   11.8855   14.9042   21.8866 C   0  0  0  0  0  0  0  0  0  0  0  0
   10.5805   14.4370   21.3055 C   0  0  1  0  0  0  0  0  0  0  0  0
    9.9585   13.5537   22.2012 N   0  0  0  0  0  0  0  0  0  0  0  0
    9.6134   13.7179   23.6758 C   0  0  0  0  0  0  0  0  0  0  0  0
    9.7163   14.6398   24.3767 O   0  0  0  0  0  0  0  0  0  0  0  0
    9.1261   12.4082   24.0870 C   0  0  0  0  0  0  0  0  0  0  0  0
    9.4829   11.3184   23.3791 N   0  0  0  0  0  0  0  0  0  0  0  0
    8.7681   10.3268   23.9069 N   0  0  0  0  0  0  0  0  0  0  0  0
    8.9027    9.0102   23.3330 C   0  0  0  0  0  0  0  0  0  0  0  0
    7.9346   10.7468   24.9127 C   0  0  0  0  0  0  0  0  0  0  0  0
    6.9584   10.0989   25.6609 C   0  0  0  0  0  0  0  0  0  0  0  0
    6.2871   10.8283   26.6443 C   0  0  0  0  0  0  0  0  0  0  0  0
    6.5738   12.1691   26.8485 C   0  0  0  0  0  0  0  0  0  0  0  0
    5.9187   12.8372   27.8068 F   0  0  0  0  0  0  0  0  0  0  0  0
    7.5215   12.8329   26.0806 C   0  0  0  0  0  0  0  0  0  0  0  0
    8.2073   12.0998   25.0997 C   0  0  0  0  0  0  0  0  0  0  0  0
    9.7608   15.5411   20.7895 C   0  0  0  0  0  0  0  0  0  0  0  0
    9.7676   15.9926   19.4902 C   0  0  0  0  0  0  0  0  0  0  0  0
    9.1547   17.1991   19.4638 O   0  0  0  0  0  0  0  0  0  0  0  0
    8.7676   17.3887   20.7538 C   0  0  0  0  0  0  0  0  0  0  0  0
    9.0591   16.4051   21.5743 N   0  0  0  0  0  0  0  0  0  0  0  0
  1  2  1  0
  3  2  1  1
  3  4  1  0
  4  5  1  0
  5  6  2  0
  5  7  1  0
  7  8  2  0
  8  9  1  0
  9 10  1  0
  9 11  1  0
 11 12  2  0
 12 13  1  0
 13 14  2  0
 14 15  1  0
 14 16  1  0
 16 17  2  0
  3 18  1  0
 18 19  2  0
 19 20  1  0
 20 21  1  0
 21 22  2  0
 17  7  1  0
 22 18  1  0
 17 11  1  0
M  END
>  <energy_score>  (3479) 
-3.842779

>  <inchikey>  (3479) 
XISCNXJCGBDJBM-UHFFFAOYSA-N

>  <smiles>  (3479) 
CCC(NC(=O)c1nn(C)c2ccc(F)cc12)c1cocn1

>  <ref_pdb>  (3479) 
A0514a

>  <alias>  (3479) 
XISCNXJCGBDJBM-UHFFFAOYSA-N-P177-P126-P177-601502

>  <HIPPO Pose ID>  (3479) 
502803

>  <name>  (3479) 
XISCNXJCGBDJBM-UHFFFAOYSA-N-P177-P126-P177-601502

>  <HIPPO Compound ID>  (3479) 
299219

>  <ref_mols>  (3479) 
A3403a,A2290a

>  <distance_score>  (3479) 
1.168999

>  <inspiration_score>  (3479) 
None

$$$$
STEKFWRYMRBVFN-UHFFFAOYSA-N-P126-P126-P177-601502
     RDKit          3D

 22 24  0  0  0  0  0  0  0  0999 V2000
    8.5795   18.7772   20.6702 C   0  0  0  0  0  0  0  0  0  0  0  0
    8.3970   17.3857   20.2214 C   0  0  0  0  0  0  0  0  0  0  0  0
    9.5334   16.4378   20.2541 C   0  0  0  0  0  0  0  0  0  0  0  0
   10.1259   15.8765   21.2870 N   0  0  0  0  0  0  0  0  0  0  0  0
   11.0216   14.9899   20.7376 C   0  0  0  0  0  0  0  0  0  0  0  0
   12.0175   14.2787   21.5682 C   0  0  0  0  0  0  0  0  0  0  0  0
   11.3359   13.2597   22.2986 N   0  0  0  0  0  0  0  0  0  0  0  0
   10.7361   13.2767   23.7088 C   0  0  0  0  0  0  0  0  0  0  0  0
   10.7676   14.0990   24.5333 O   0  0  0  0  0  0  0  0  0  0  0  0
    9.9675   12.0366   23.8964 C   0  0  0  0  0  0  0  0  0  0  0  0
   10.2411   10.9495   23.1580 N   0  0  0  0  0  0  0  0  0  0  0  0
    9.4196   10.0016   23.6291 N   0  0  0  0  0  0  0  0  0  0  0  0
    9.4906    8.6868   23.0395 C   0  0  0  0  0  0  0  0  0  0  0  0
    8.5722   10.4479   24.6139 C   0  0  0  0  0  0  0  0  0  0  0  0
    7.5672    9.8161   25.3575 C   0  0  0  0  0  0  0  0  0  0  0  0
    6.8517   10.5875   26.2760 C   0  0  0  0  0  0  0  0  0  0  0  0
    7.1422   11.9354   26.4408 C   0  0  0  0  0  0  0  0  0  0  0  0
    6.4510   12.6444   27.3436 F   0  0  0  0  0  0  0  0  0  0  0  0
    8.1534   12.5604   25.7135 C   0  0  0  0  0  0  0  0  0  0  0  0
    8.8891   11.7948   24.7893 C   0  0  0  0  0  0  0  0  0  0  0  0
   10.8516   14.9762   19.3750 C   0  0  0  0  0  0  0  0  0  0  0  0
    9.8994   15.8961   19.0558 O   0  0  0  0  0  0  0  0  0  0  0  0
  1  2  1  0
  2  3  1  0
  3  4  2  0
  4  5  1  0
  5  6  1  0
  6  7  1  0
  7  8  1  0
  8  9  2  0
  8 10  1  0
 10 11  2  0
 11 12  1  0
 12 13  1  0
 12 14  1  0
 14 15  2  0
 15 16  1  0
 16 17  2  0
 17 18  1  0
 17 19  1  0
 19 20  2  0
  5 21  2  0
 21 22  1  0
 22  3  1  0
 20 10  1  0
 20 14  1  0
M  END
>  <energy_score>  (3480) 
-30.17513

>  <inchikey>  (3480) 
STEKFWRYMRBVFN-UHFFFAOYSA-N

>  <smiles>  (3480) 
CCc1nc(CNC(=O)c2nn(C)c3ccc(F)cc23)co1

>  <ref_pdb>  (3480) 
A0514a

>  <alias>  (3480) 
STEKFWRYMRBVFN-UHFFFAOYSA-N-P126-P126-P177-601502

>  <HIPPO Pose ID>  (3480) 
502808

>  <name>  (3480) 
STEKFWRYMRBVFN-UHFFFAOYSA-N-P126-P126-P177-601502

>  <HIPPO Compound ID>  (3480) 
299222

>  <ref_mols>  (3480) 
A3403a,A2290a

>  <distance_score>  (3480) 
0.665643

>  <inspiration_score>  (3480) 
None

$$$$
STEKFWRYMRBVFN-UHFFFAOYSA-N-P177-P126-P177-601502
     RDKit          3D

 22 24  0  0  0  0  0  0  0  0999 V2000
    8.0545   18.6789   19.4678 C   0  0  0  0  0  0  0  0  0  0  0  0
    8.5189   17.8444   20.6436 C   0  0  0  0  0  0  0  0  0  0  0  0
    9.5426   16.8063   20.3991 C   0  0  0  0  0  0  0  0  0  0  0  0
   10.2574   16.2059   21.3232 N   0  0  0  0  0  0  0  0  0  0  0  0
   10.9686   15.2560   20.6492 C   0  0  0  0  0  0  0  0  0  0  0  0
   11.9191   14.3990   21.3791 C   0  0  0  0  0  0  0  0  0  0  0  0
   11.1746   13.4619   22.1634 N   0  0  0  0  0  0  0  0  0  0  0  0
   10.5354   13.6078   23.5537 C   0  0  0  0  0  0  0  0  0  0  0  0
   10.5779   14.4888   24.3170 O   0  0  0  0  0  0  0  0  0  0  0  0
    9.7253   12.3950   23.8147 C   0  0  0  0  0  0  0  0  0  0  0  0
    9.9072   11.2834   23.0825 N   0  0  0  0  0  0  0  0  0  0  0  0
    9.0764   10.3759   23.6008 N   0  0  0  0  0  0  0  0  0  0  0  0
    9.1003    9.0304   23.0767 C   0  0  0  0  0  0  0  0  0  0  0  0
    8.2792   10.8739   24.5978 C   0  0  0  0  0  0  0  0  0  0  0  0
    7.2573   10.2979   25.3589 C   0  0  0  0  0  0  0  0  0  0  0  0
    6.6439   11.0947   26.3261 C   0  0  0  0  0  0  0  0  0  0  0  0
    7.0459   12.4108   26.5134 C   0  0  0  0  0  0  0  0  0  0  0  0
    6.4514   13.1417   27.4660 F   0  0  0  0  0  0  0  0  0  0  0  0
    8.0627   12.9846   25.7520 C   0  0  0  0  0  0  0  0  0  0  0  0
    8.6931   12.1964   24.7731 C   0  0  0  0  0  0  0  0  0  0  0  0
   10.6427   15.3095   19.3145 C   0  0  0  0  0  0  0  0  0  0  0  0
    9.7102   16.2926   19.1439 O   0  0  0  0  0  0  0  0  0  0  0  0
  1  2  1  0
  2  3  1  0
  3  4  2  0
  4  5  1  0
  5  6  1  0
  6  7  1  0
  7  8  1  0
  8  9  2  0
  8 10  1  0
 10 11  2  0
 11 12  1  0
 12 13  1  0
 12 14  1  0
 14 15  2  0
 15 16  1  0
 16 17  2  0
 17 18  1  0
 17 19  1  0
 19 20  2  0
  5 21  2  0
 21 22  1  0
 22  3  1  0
 20 10  1  0
 20 14  1  0
M  END
>  <energy_score>  (3481) 
-33.654322

>  <inchikey>  (3481) 
STEKFWRYMRBVFN-UHFFFAOYSA-N

>  <smiles>  (3481) 
CCc1nc(CNC(=O)c2nn(C)c3ccc(F)cc23)co1

>  <ref_pdb>  (3481) 
A0514a

>  <alias>  (3481) 
STEKFWRYMRBVFN-UHFFFAOYSA-N-P177-P126-P177-601502

>  <HIPPO Pose ID>  (3481) 
502809

>  <name>  (3481) 
STEKFWRYMRBVFN-UHFFFAOYSA-N-P177-P126-P177-601502

>  <HIPPO Compound ID>  (3481) 
299222

>  <ref_mols>  (3481) 
A3403a,A2290a

>  <distance_score>  (3481) 
0.631569

>  <inspiration_score>  (3481) 
None

$$$$
RYTZXNLTCYXPGO-UHFFFAOYSA-N-P126-P126-P177-601502
     RDKit          3D

 22 24  0  0  0  0  0  0  0  0999 V2000
   11.6766   14.6445   18.5279 C   0  0  0  0  0  0  0  0  0  0  0  0
   10.5394   15.5943   18.7948 C   0  0  0  0  0  0  0  0  0  0  0  0
   10.0780   15.5600   20.1666 C   0  0  0  0  0  0  0  0  0  0  0  0
    8.9408   16.2709   20.3421 O   0  0  0  0  0  0  0  0  0  0  0  0
    8.4262   15.7698   21.4744 C   0  0  0  0  0  0  0  0  0  0  0  0
    9.2185   14.9396   22.1059 N   0  0  0  0  0  0  0  0  0  0  0  0
   10.3832   14.9328   21.3447 C   0  0  0  0  0  0  0  0  0  0  0  0
   11.5950   14.2141   21.8367 C   0  0  0  0  0  0  0  0  0  0  0  0
   11.0458   13.1673   22.6133 N   0  0  0  0  0  0  0  0  0  0  0  0
   10.6131   13.1392   24.0753 C   0  0  0  0  0  0  0  0  0  0  0  0
   10.7073   13.9485   24.9066 O   0  0  0  0  0  0  0  0  0  0  0  0
    9.9182   11.8725   24.2614 C   0  0  0  0  0  0  0  0  0  0  0  0
   10.2197   10.8147   23.4915 N   0  0  0  0  0  0  0  0  0  0  0  0
    9.3256    9.8834   23.8430 N   0  0  0  0  0  0  0  0  0  0  0  0
    9.3595    8.6299   23.1332 C   0  0  0  0  0  0  0  0  0  0  0  0
    8.4396   10.3095   24.8047 C   0  0  0  0  0  0  0  0  0  0  0  0
    7.3629    9.6946   25.4496 C   0  0  0  0  0  0  0  0  0  0  0  0
    6.6105   10.4535   26.3500 C   0  0  0  0  0  0  0  0  0  0  0  0
    6.9245   11.7844   26.5841 C   0  0  0  0  0  0  0  0  0  0  0  0
    6.1881   12.4854   27.4569 F   0  0  0  0  0  0  0  0  0  0  0  0
    8.0014   12.3979   25.9529 C   0  0  0  0  0  0  0  0  0  0  0  0
    8.7852   11.6321   25.0700 C   0  0  0  0  0  0  0  0  0  0  0  0
  1  2  1  0
  2  3  1  0
  3  4  1  0
  4  5  1  0
  5  6  2  0
  6  7  1  0
  7  8  1  0
  8  9  1  0
  9 10  1  0
 10 11  2  0
 10 12  1  0
 12 13  2  0
 13 14  1  0
 14 15  1  0
 14 16  1  0
 16 17  2  0
 17 18  1  0
 18 19  2  0
 19 20  1  0
 19 21  1  0
 21 22  2  0
  7  3  2  0
 22 12  1  0
 22 16  1  0
M  END
>  <energy_score>  (3482) 
-22.010938

>  <inchikey>  (3482) 
RYTZXNLTCYXPGO-UHFFFAOYSA-N

>  <smiles>  (3482) 
CCc1ocnc1CNC(=O)c1nn(C)c2ccc(F)cc12

>  <ref_pdb>  (3482) 
A0514a

>  <alias>  (3482) 
RYTZXNLTCYXPGO-UHFFFAOYSA-N-P126-P126-P177-601502

>  <HIPPO Pose ID>  (3482) 
502812

>  <name>  (3482) 
RYTZXNLTCYXPGO-UHFFFAOYSA-N-P126-P126-P177-601502

>  <HIPPO Compound ID>  (3482) 
299224

>  <ref_mols>  (3482) 
A3403a,A2290a

>  <distance_score>  (3482) 
1.156873

>  <inspiration_score>  (3482) 
None

$$$$
RYTZXNLTCYXPGO-UHFFFAOYSA-N-P177-P126-P177-601502
     RDKit          3D

 22 24  0  0  0  0  0  0  0  0999 V2000
   11.3192   14.2191   18.2512 C   0  0  0  0  0  0  0  0  0  0  0  0
   11.2776   15.5648   18.8218 C   0  0  0  0  0  0  0  0  0  0  0  0
   10.3410   15.7465   19.9090 C   0  0  0  0  0  0  0  0  0  0  0  0
    9.3189   16.6189   19.7531 O   0  0  0  0  0  0  0  0  0  0  0  0
    8.7719   16.6684   20.9979 C   0  0  0  0  0  0  0  0  0  0  0  0
    9.3328   15.8809   21.8874 N   0  0  0  0  0  0  0  0  0  0  0  0
   10.4097   15.3609   21.2197 C   0  0  0  0  0  0  0  0  0  0  0  0
   11.4924   14.6008   21.8813 C   0  0  0  0  0  0  0  0  0  0  0  0
   10.8716   13.5680   22.6135 N   0  0  0  0  0  0  0  0  0  0  0  0
   10.3240   13.5525   24.0361 C   0  0  0  0  0  0  0  0  0  0  0  0
   10.3623   14.3643   24.8685 O   0  0  0  0  0  0  0  0  0  0  0  0
    9.5917   12.2968   24.1925 C   0  0  0  0  0  0  0  0  0  0  0  0
    9.8505   11.2436   23.3983 N   0  0  0  0  0  0  0  0  0  0  0  0
    8.9851   10.3029   23.7929 N   0  0  0  0  0  0  0  0  0  0  0  0
    9.0291    9.0082   23.1554 C   0  0  0  0  0  0  0  0  0  0  0  0
    8.1355   10.7315   24.7820 C   0  0  0  0  0  0  0  0  0  0  0  0
    7.0808   10.1162   25.4522 C   0  0  0  0  0  0  0  0  0  0  0  0
    6.4036   10.8484   26.4290 C   0  0  0  0  0  0  0  0  0  0  0  0
    6.7686   12.1560   26.7092 C   0  0  0  0  0  0  0  0  0  0  0  0
    6.1093   12.8274   27.6628 F   0  0  0  0  0  0  0  0  0  0  0  0
    7.8175   12.7758   26.0402 C   0  0  0  0  0  0  0  0  0  0  0  0
    8.5164   12.0388   25.0686 C   0  0  0  0  0  0  0  0  0  0  0  0
  1  2  1  0
  2  3  1  0
  3  4  1  0
  4  5  1  0
  5  6  2  0
  6  7  1  0
  7  8  1  0
  8  9  1  0
  9 10  1  0
 10 11  2  0
 10 12  1  0
 12 13  2  0
 13 14  1  0
 14 15  1  0
 14 16  1  0
 16 17  2  0
 17 18  1  0
 18 19  2  0
 19 20  1  0
 19 21  1  0
 21 22  2  0
  7  3  2  0
 22 12  1  0
 22 16  1  0
M  END
>  <energy_score>  (3483) 
-32.342675

>  <inchikey>  (3483) 
RYTZXNLTCYXPGO-UHFFFAOYSA-N

>  <smiles>  (3483) 
CCc1ocnc1CNC(=O)c1nn(C)c2ccc(F)cc12

>  <ref_pdb>  (3483) 
A0514a

>  <alias>  (3483) 
RYTZXNLTCYXPGO-UHFFFAOYSA-N-P177-P126-P177-601502

>  <HIPPO Pose ID>  (3483) 
502813

>  <name>  (3483) 
RYTZXNLTCYXPGO-UHFFFAOYSA-N-P177-P126-P177-601502

>  <HIPPO Compound ID>  (3483) 
299224

>  <ref_mols>  (3483) 
A3403a,A2290a

>  <distance_score>  (3483) 
0.960264

>  <inspiration_score>  (3483) 
None

$$$$
YHXUPRASNYFVEE-UHFFFAOYSA-N-P126-P126-P177-601502
     RDKit          3D

 22 25  0  0  0  0  0  0  0  0999 V2000
    9.4956    8.6447   23.3999 C   0  0  0  0  0  0  0  0  0  0  0  0
    9.2136    9.9901   23.8278 N   0  0  0  0  0  0  0  0  0  0  0  0
    9.9126   10.9858   23.2704 N   0  0  0  0  0  0  0  0  0  0  0  0
    9.5426   12.0711   23.9687 C   0  0  0  0  0  0  0  0  0  0  0  0
   10.1211   13.3704   23.6689 C   0  0  0  0  0  0  0  0  0  0  0  0
   10.1672   14.2237   24.4597 O   0  0  0  0  0  0  0  0  0  0  0  0
   10.5530   13.3531   22.1998 N   0  0  0  0  0  0  0  0  0  0  0  0
   11.2044   14.3252   21.4314 C   0  0  0  0  0  0  0  0  0  0  0  0
   10.2855   15.2843   20.6317 C   0  0  0  0  0  0  0  0  0  0  0  0
   10.3053   15.4744   19.2773 C   0  0  0  0  0  0  0  0  0  0  0  0
    9.5527   16.5742   18.9971 O   0  0  0  0  0  0  0  0  0  0  0  0
    9.0892   16.9607   20.2171 C   0  0  0  0  0  0  0  0  0  0  0  0
    9.4461   16.1817   21.2097 N   0  0  0  0  0  0  0  0  0  0  0  0
   12.4984   14.8862   21.9422 C   0  0  0  0  0  0  0  0  0  0  0  0
   12.5123   13.9369   20.8014 C   0  0  0  0  0  0  0  0  0  0  0  0
    8.5452   11.7782   24.9236 C   0  0  0  0  0  0  0  0  0  0  0  0
    7.7893   12.5228   25.8469 C   0  0  0  0  0  0  0  0  0  0  0  0
    6.8351   11.8562   26.6088 C   0  0  0  0  0  0  0  0  0  0  0  0
    6.1140   12.5420   27.5057 F   0  0  0  0  0  0  0  0  0  0  0  0
    6.6177   10.4927   26.4693 C   0  0  0  0  0  0  0  0  0  0  0  0
    7.3630    9.7456   25.5543 C   0  0  0  0  0  0  0  0  0  0  0  0
    8.3278   10.4107   24.7918 C   0  0  0  0  0  0  0  0  0  0  0  0
  1  2  1  0
  2  3  1  0
  3  4  2  0
  4  5  1  0
  5  6  2  0
  5  7  1  0
  7  8  1  0
  8  9  1  0
  9 10  2  0
 10 11  1  0
 11 12  1  0
 12 13  2  0
  8 14  1  0
 14 15  1  0
  4 16  1  0
 16 17  2  0
 17 18  1  0
 18 19  1  0
 18 20  2  0
 20 21  1  0
 21 22  2  0
 22  2  1  0
 15  8  1  0
 22 16  1  0
 13  9  1  0
M  END
>  <energy_score>  (3484) 
-15.786637

>  <inchikey>  (3484) 
YHXUPRASNYFVEE-UHFFFAOYSA-N

>  <smiles>  (3484) 
Cn1nc(C(=O)NC2(c3cocn3)CC2)c2cc(F)ccc21

>  <ref_pdb>  (3484) 
A0514a

>  <alias>  (3484) 
YHXUPRASNYFVEE-UHFFFAOYSA-N-P126-P126-P177-601502

>  <HIPPO Pose ID>  (3484) 
502814

>  <name>  (3484) 
YHXUPRASNYFVEE-UHFFFAOYSA-N-P126-P126-P177-601502

>  <HIPPO Compound ID>  (3484) 
299225

>  <ref_mols>  (3484) 
A3403a,A2290a

>  <distance_score>  (3484) 
0.849235

>  <inspiration_score>  (3484) 
None

$$$$
YHXUPRASNYFVEE-UHFFFAOYSA-N-P177-P126-P177-601502
     RDKit          3D

 22 25  0  0  0  0  0  0  0  0999 V2000
    9.0836    8.9813   23.1057 C   0  0  0  0  0  0  0  0  0  0  0  0
    9.0099   10.3185   23.6450 N   0  0  0  0  0  0  0  0  0  0  0  0
    9.7715   11.2760   23.1041 N   0  0  0  0  0  0  0  0  0  0  0  0
    9.4992   12.3789   23.8214 C   0  0  0  0  0  0  0  0  0  0  0  0
   10.1041   13.6702   23.4745 C   0  0  0  0  0  0  0  0  0  0  0  0
   10.1647   14.5503   24.2381 O   0  0  0  0  0  0  0  0  0  0  0  0
   10.4908   13.6120   21.9868 N   0  0  0  0  0  0  0  0  0  0  0  0
   11.1058   14.5694   21.1667 C   0  0  0  0  0  0  0  0  0  0  0  0
   10.1564   15.6476   20.6356 C   0  0  0  0  0  0  0  0  0  0  0  0
    9.9797   15.9488   19.3165 C   0  0  0  0  0  0  0  0  0  0  0  0
    9.2033   17.0607   19.2587 O   0  0  0  0  0  0  0  0  0  0  0  0
    8.9076   17.3203   20.5621 C   0  0  0  0  0  0  0  0  0  0  0  0
    9.4236   16.4763   21.4208 N   0  0  0  0  0  0  0  0  0  0  0  0
   12.5055   14.9769   21.4752 C   0  0  0  0  0  0  0  0  0  0  0  0
   12.2383   14.1720   20.2524 C   0  0  0  0  0  0  0  0  0  0  0  0
    8.5314   12.1171   24.8215 C   0  0  0  0  0  0  0  0  0  0  0  0
    7.8689   12.8773   25.8014 C   0  0  0  0  0  0  0  0  0  0  0  0
    6.8903   12.2551   26.5713 C   0  0  0  0  0  0  0  0  0  0  0  0
    6.2614   12.9560   27.5243 F   0  0  0  0  0  0  0  0  0  0  0  0
    6.5541   10.9223   26.3824 C   0  0  0  0  0  0  0  0  0  0  0  0
    7.2045   10.1576   25.4125 C   0  0  0  0  0  0  0  0  0  0  0  0
    8.1968   10.7755   24.6506 C   0  0  0  0  0  0  0  0  0  0  0  0
  1  2  1  0
  2  3  1  0
  3  4  2  0
  4  5  1  0
  5  6  2  0
  5  7  1  0
  7  8  1  0
  8  9  1  0
  9 10  2  0
 10 11  1  0
 11 12  1  0
 12 13  2  0
  8 14  1  0
 14 15  1  0
  4 16  1  0
 16 17  2  0
 17 18  1  0
 18 19  1  0
 18 20  2  0
 20 21  1  0
 21 22  2  0
 22  2  1  0
 15  8  1  0
 22 16  1  0
 13  9  1  0
M  END
>  <energy_score>  (3485) 
-15.573385

>  <inchikey>  (3485) 
YHXUPRASNYFVEE-UHFFFAOYSA-N

>  <smiles>  (3485) 
Cn1nc(C(=O)NC2(c3cocn3)CC2)c2cc(F)ccc21

>  <ref_pdb>  (3485) 
A0514a

>  <alias>  (3485) 
YHXUPRASNYFVEE-UHFFFAOYSA-N-P177-P126-P177-601502

>  <HIPPO Pose ID>  (3485) 
502815

>  <name>  (3485) 
YHXUPRASNYFVEE-UHFFFAOYSA-N-P177-P126-P177-601502

>  <HIPPO Compound ID>  (3485) 
299225

>  <ref_mols>  (3485) 
A3403a,A2290a

>  <distance_score>  (3485) 
0.915407

>  <inspiration_score>  (3485) 
None

$$$$
PJXVBEKAFFEAQM-UHFFFAOYSA-N-P126-P126-P177-601502
     RDKit          3D

 23 25  0  0  0  0  0  0  0  0999 V2000
   10.7995   14.1577   24.5794 O   0  0  0  0  0  0  0  0  0  0  0  0
   10.7836   13.3357   23.7544 C   0  0  0  0  0  0  0  0  0  0  0  0
   11.3631   13.3403   22.3348 N   0  0  0  0  0  0  0  0  0  0  0  0
   11.9973   14.3799   21.5978 C   0  0  0  0  0  0  0  0  0  0  0  0
   10.9774   15.0143   20.7341 C   0  0  0  0  0  0  0  0  0  0  0  0
   10.8083   14.9213   19.3754 C   0  0  0  0  0  0  0  0  0  0  0  0
    9.8698   15.8330   19.0009 O   0  0  0  0  0  0  0  0  0  0  0  0
    9.5251   16.4639   20.1594 C   0  0  0  0  0  0  0  0  0  0  0  0
    8.4393   18.0372   20.1928 Br  0  0  0  0  0  0  0  0  0  0  0  0
   10.0902   15.9408   21.2273 N   0  0  0  0  0  0  0  0  0  0  0  0
   10.0594   12.0724   23.9357 C   0  0  0  0  0  0  0  0  0  0  0  0
   10.3912   11.0103   23.1912 N   0  0  0  0  0  0  0  0  0  0  0  0
    9.5727   10.0163   23.6068 N   0  0  0  0  0  0  0  0  0  0  0  0
    9.6211    8.7180   22.9240 C   0  0  0  0  0  0  0  0  0  0  0  0
    8.4073    8.1319   22.9077 F   0  0  0  0  0  0  0  0  0  0  0  0
   10.4871    7.8473   23.4904 F   0  0  0  0  0  0  0  0  0  0  0  0
   10.0209    8.8524   21.6367 F   0  0  0  0  0  0  0  0  0  0  0  0
    8.6911   10.4327   24.5860 C   0  0  0  0  0  0  0  0  0  0  0  0
    7.6714    9.7764   25.2867 C   0  0  0  0  0  0  0  0  0  0  0  0
    6.9033   10.5201   26.1874 C   0  0  0  0  0  0  0  0  0  0  0  0
    7.1485   11.8750   26.3878 C   0  0  0  0  0  0  0  0  0  0  0  0
    8.1818   12.5189   25.7006 C   0  0  0  0  0  0  0  0  0  0  0  0
    8.9702   11.7833   24.7948 C   0  0  0  0  0  0  0  0  0  0  0  0
  1  2  2  0
  2  3  1  0
  3  4  1  0
  4  5  1  0
  5  6  2  0
  6  7  1  0
  7  8  1  0
  8  9  1  0
  8 10  2  0
  2 11  1  0
 11 12  2  0
 12 13  1  0
 13 14  1  0
 14 15  1  0
 14 16  1  0
 14 17  1  0
 13 18  1  0
 18 19  2  0
 19 20  1  0
 20 21  2  0
 21 22  1  0
 22 23  2  0
 10  5  1  0
 23 11  1  0
 23 18  1  0
M  END
>  <energy_score>  (3486) 
-21.151509

>  <inchikey>  (3486) 
PJXVBEKAFFEAQM-UHFFFAOYSA-N

>  <smiles>  (3486) 
O=C(NCc1coc(Br)n1)c1nn(C(F)(F)F)c2ccccc12

>  <ref_pdb>  (3486) 
A0514a

>  <alias>  (3486) 
PJXVBEKAFFEAQM-UHFFFAOYSA-N-P126-P126-P177-601502

>  <HIPPO Pose ID>  (3486) 
502816

>  <name>  (3486) 
PJXVBEKAFFEAQM-UHFFFAOYSA-N-P126-P126-P177-601502

>  <HIPPO Compound ID>  (3486) 
299226

>  <ref_mols>  (3486) 
A3403a,A2290a

>  <distance_score>  (3486) 
0.693046

>  <inspiration_score>  (3486) 
None

$$$$
PJXVBEKAFFEAQM-UHFFFAOYSA-N-P177-P126-P177-601502
     RDKit          3D

 23 25  0  0  0  0  0  0  0  0999 V2000
   10.4691   14.5697   24.4155 O   0  0  0  0  0  0  0  0  0  0  0  0
   10.4744   13.6966   23.6431 C   0  0  0  0  0  0  0  0  0  0  0  0
   11.1420   13.5909   22.2644 N   0  0  0  0  0  0  0  0  0  0  0  0
   11.8595   14.5605   21.5063 C   0  0  0  0  0  0  0  0  0  0  0  0
   10.9209   15.2588   20.6123 C   0  0  0  0  0  0  0  0  0  0  0  0
   10.7420   15.1082   19.2595 C   0  0  0  0  0  0  0  0  0  0  0  0
    9.8219   16.0195   18.8556 O   0  0  0  0  0  0  0  0  0  0  0  0
    9.5120   16.7175   19.9899 C   0  0  0  0  0  0  0  0  0  0  0  0
    8.3772   18.2452   19.9647 Br  0  0  0  0  0  0  0  0  0  0  0  0
   10.1109   16.2687   21.0710 N   0  0  0  0  0  0  0  0  0  0  0  0
    9.7272   12.4436   23.8763 C   0  0  0  0  0  0  0  0  0  0  0  0
    9.9871   11.3597   23.1299 N   0  0  0  0  0  0  0  0  0  0  0  0
    9.1656   10.3920   23.5928 N   0  0  0  0  0  0  0  0  0  0  0  0
    9.1743    9.0482   22.9965 C   0  0  0  0  0  0  0  0  0  0  0  0
    7.9111    8.6033   22.8406 F   0  0  0  0  0  0  0  0  0  0  0  0
    9.8149    8.1457   23.7733 F   0  0  0  0  0  0  0  0  0  0  0  0
    9.7570    9.0139   21.7758 F   0  0  0  0  0  0  0  0  0  0  0  0
    8.3322   10.8495   24.5928 C   0  0  0  0  0  0  0  0  0  0  0  0
    7.3057   10.2337   25.3149 C   0  0  0  0  0  0  0  0  0  0  0  0
    6.6318   10.9923   26.2746 C   0  0  0  0  0  0  0  0  0  0  0  0
    6.9722   12.3214   26.5052 C   0  0  0  0  0  0  0  0  0  0  0  0
    7.9998   12.9292   25.7778 C   0  0  0  0  0  0  0  0  0  0  0  0
    8.6893   12.1811   24.8059 C   0  0  0  0  0  0  0  0  0  0  0  0
  1  2  2  0
  2  3  1  0
  3  4  1  0
  4  5  1  0
  5  6  2  0
  6  7  1  0
  7  8  1  0
  8  9  1  0
  8 10  2  0
  2 11  1  0
 11 12  2  0
 12 13  1  0
 13 14  1  0
 14 15  1  0
 14 16  1  0
 14 17  1  0
 13 18  1  0
 18 19  2  0
 19 20  1  0
 20 21  2  0
 21 22  1  0
 22 23  2  0
 10  5  1  0
 23 11  1  0
 23 18  1  0
M  END
>  <energy_score>  (3487) 
-23.88971

>  <inchikey>  (3487) 
PJXVBEKAFFEAQM-UHFFFAOYSA-N

>  <smiles>  (3487) 
O=C(NCc1coc(Br)n1)c1nn(C(F)(F)F)c2ccccc12

>  <ref_pdb>  (3487) 
A0514a

>  <alias>  (3487) 
PJXVBEKAFFEAQM-UHFFFAOYSA-N-P177-P126-P177-601502

>  <HIPPO Pose ID>  (3487) 
502817

>  <name>  (3487) 
PJXVBEKAFFEAQM-UHFFFAOYSA-N-P177-P126-P177-601502

>  <HIPPO Compound ID>  (3487) 
299226

>  <ref_mols>  (3487) 
A3403a,A2290a

>  <distance_score>  (3487) 
0.635151

>  <inspiration_score>  (3487) 
None

$$$$
QNKPONYLJDZPCC-UHFFFAOYSA-N-P126-P126-P177-601502
     RDKit          3D

 23 25  0  0  0  0  0  0  0  0999 V2000
    8.6361   17.4186   20.6375 C   0  0  0  0  0  0  0  0  0  0  0  0
    9.6015   16.3188   20.4746 C   0  0  0  0  0  0  0  0  0  0  0  0
   10.2614   15.6770   21.4125 N   0  0  0  0  0  0  0  0  0  0  0  0
   11.1210   14.8596   20.7270 C   0  0  0  0  0  0  0  0  0  0  0  0
   12.1382   14.0666   21.4492 C   0  0  0  0  0  0  0  0  0  0  0  0
   11.4103   13.1369   22.2518 N   0  0  0  0  0  0  0  0  0  0  0  0
   10.8836   13.2576   23.6834 C   0  0  0  0  0  0  0  0  0  0  0  0
   11.0230   14.1043   24.4706 O   0  0  0  0  0  0  0  0  0  0  0  0
   10.0058   12.1047   23.9502 C   0  0  0  0  0  0  0  0  0  0  0  0
   10.1562   10.9433   23.2872 N   0  0  0  0  0  0  0  0  0  0  0  0
    9.2633   10.1080   23.8755 N   0  0  0  0  0  0  0  0  0  0  0  0
    9.2850    8.6671   23.6267 C   0  0  0  0  0  0  0  0  0  0  0  0
    8.7234    8.0226   24.6769 F   0  0  0  0  0  0  0  0  0  0  0  0
   10.5296    8.1709   23.4322 F   0  0  0  0  0  0  0  0  0  0  0  0
    8.5492    8.2988   22.5661 F   0  0  0  0  0  0  0  0  0  0  0  0
    8.4425   10.7418   24.7885 C   0  0  0  0  0  0  0  0  0  0  0  0
    7.3656   10.2917   25.5707 C   0  0  0  0  0  0  0  0  0  0  0  0
    6.7375   11.2132   26.4099 C   0  0  0  0  0  0  0  0  0  0  0  0
    7.1707   12.5335   26.4710 C   0  0  0  0  0  0  0  0  0  0  0  0
    8.2553   12.9656   25.7004 C   0  0  0  0  0  0  0  0  0  0  0  0
    8.9066   12.0510   24.8511 C   0  0  0  0  0  0  0  0  0  0  0  0
   10.8546   14.9573   19.3833 C   0  0  0  0  0  0  0  0  0  0  0  0
    9.8747   15.8908   19.2092 O   0  0  0  0  0  0  0  0  0  0  0  0
  1  2  1  0
  2  3  2  0
  3  4  1  0
  4  5  1  0
  5  6  1  0
  6  7  1  0
  7  8  2  0
  7  9  1  0
  9 10  2  0
 10 11  1  0
 11 12  1  0
 12 13  1  0
 12 14  1  0
 12 15  1  0
 11 16  1  0
 16 17  2  0
 17 18  1  0
 18 19  2  0
 19 20  1  0
 20 21  2  0
  4 22  2  0
 22 23  1  0
 23  2  1  0
 21  9  1  0
 21 16  1  0
M  END
>  <energy_score>  (3488) 
-24.869381

>  <inchikey>  (3488) 
QNKPONYLJDZPCC-UHFFFAOYSA-N

>  <smiles>  (3488) 
Cc1nc(CNC(=O)c2nn(C(F)(F)F)c3ccccc23)co1

>  <ref_pdb>  (3488) 
A0514a

>  <alias>  (3488) 
QNKPONYLJDZPCC-UHFFFAOYSA-N-P126-P126-P177-601502

>  <HIPPO Pose ID>  (3488) 
502820

>  <name>  (3488) 
QNKPONYLJDZPCC-UHFFFAOYSA-N-P126-P126-P177-601502

>  <HIPPO Compound ID>  (3488) 
299228

>  <ref_mols>  (3488) 
A3403a,A2290a

>  <distance_score>  (3488) 
0.75017

>  <inspiration_score>  (3488) 
None

$$$$
QNKPONYLJDZPCC-UHFFFAOYSA-N-P177-P126-P177-601502
     RDKit          3D

 23 25  0  0  0  0  0  0  0  0999 V2000
    8.5641   17.7149   20.5047 C   0  0  0  0  0  0  0  0  0  0  0  0
    9.5745   16.6626   20.3667 C   0  0  0  0  0  0  0  0  0  0  0  0
   10.2610   16.0844   21.3226 N   0  0  0  0  0  0  0  0  0  0  0  0
   11.0302   15.1642   20.6682 C   0  0  0  0  0  0  0  0  0  0  0  0
   11.9695   14.3222   21.4224 C   0  0  0  0  0  0  0  0  0  0  0  0
   11.2063   13.4089   22.2131 N   0  0  0  0  0  0  0  0  0  0  0  0
   10.5752   13.5779   23.6009 C   0  0  0  0  0  0  0  0  0  0  0  0
   10.6398   14.4617   24.3582 O   0  0  0  0  0  0  0  0  0  0  0  0
    9.7360   12.3875   23.8718 C   0  0  0  0  0  0  0  0  0  0  0  0
    9.9157   11.2413   23.1897 N   0  0  0  0  0  0  0  0  0  0  0  0
    9.0875   10.3485   23.7816 N   0  0  0  0  0  0  0  0  0  0  0  0
    9.2180    8.9070   23.5399 C   0  0  0  0  0  0  0  0  0  0  0  0
    8.6798    8.2117   24.5681 F   0  0  0  0  0  0  0  0  0  0  0  0
   10.5005    8.4929   23.4242 F   0  0  0  0  0  0  0  0  0  0  0  0
    8.5624    8.4990   22.4337 F   0  0  0  0  0  0  0  0  0  0  0  0
    8.2383   10.9393   24.6947 C   0  0  0  0  0  0  0  0  0  0  0  0
    7.1708   10.4397   25.4520 C   0  0  0  0  0  0  0  0  0  0  0  0
    6.5474   11.3031   26.3532 C   0  0  0  0  0  0  0  0  0  0  0  0
    6.9717   12.6206   26.4897 C   0  0  0  0  0  0  0  0  0  0  0  0
    8.0325   13.1122   25.7224 C   0  0  0  0  0  0  0  0  0  0  0  0
    8.6744   12.2578   24.8075 C   0  0  0  0  0  0  0  0  0  0  0  0
   10.7595   15.2103   19.3211 C   0  0  0  0  0  0  0  0  0  0  0  0
    9.8101   16.1648   19.1171 O   0  0  0  0  0  0  0  0  0  0  0  0
  1  2  1  0
  2  3  2  0
  3  4  1  0
  4  5  1  0
  5  6  1  0
  6  7  1  0
  7  8  2  0
  7  9  1  0
  9 10  2  0
 10 11  1  0
 11 12  1  0
 12 13  1  0
 12 14  1  0
 12 15  1  0
 11 16  1  0
 16 17  2  0
 17 18  1  0
 18 19  2  0
 19 20  1  0
 20 21  2  0
  4 22  2  0
 22 23  1  0
 23  2  1  0
 21  9  1  0
 21 16  1  0
M  END
>  <energy_score>  (3489) 
-26.018641

>  <inchikey>  (3489) 
QNKPONYLJDZPCC-UHFFFAOYSA-N

>  <smiles>  (3489) 
Cc1nc(CNC(=O)c2nn(C(F)(F)F)c3ccccc23)co1

>  <ref_pdb>  (3489) 
A0514a

>  <alias>  (3489) 
QNKPONYLJDZPCC-UHFFFAOYSA-N-P177-P126-P177-601502

>  <HIPPO Pose ID>  (3489) 
502821

>  <name>  (3489) 
QNKPONYLJDZPCC-UHFFFAOYSA-N-P177-P126-P177-601502

>  <HIPPO Compound ID>  (3489) 
299228

>  <ref_mols>  (3489) 
A3403a,A2290a

>  <distance_score>  (3489) 
0.694287

>  <inspiration_score>  (3489) 
None

$$$$
VJPOHPWREWKKHO-UHFFFAOYSA-N-P126-P126-P177-601502
     RDKit          3D

 23 25  0  0  0  0  0  0  0  0999 V2000
   12.8325   14.9336   22.0900 C   0  0  0  0  0  0  0  0  0  0  0  0
   11.8564   14.1038   21.3129 C   0  0  1  0  0  0  0  0  0  0  0  0
   11.2079   13.1441   22.1455 N   0  0  0  0  0  0  0  0  0  0  0  0
   10.6622   13.2699   23.5758 C   0  0  0  0  0  0  0  0  0  0  0  0
   10.7226   14.1540   24.3330 O   0  0  0  0  0  0  0  0  0  0  0  0
    9.9864   12.0106   23.8816 C   0  0  0  0  0  0  0  0  0  0  0  0
   10.3544   10.9137   23.2099 N   0  0  0  0  0  0  0  0  0  0  0  0
    9.5306    9.9391   23.6418 N   0  0  0  0  0  0  0  0  0  0  0  0
    9.5505    8.6498   22.9447 C   0  0  0  0  0  0  0  0  0  0  0  0
    8.3159    8.1175   22.8903 F   0  0  0  0  0  0  0  0  0  0  0  0
    9.9873    8.7884   21.6691 F   0  0  0  0  0  0  0  0  0  0  0  0
   10.3645    7.7358   23.5174 F   0  0  0  0  0  0  0  0  0  0  0  0
    8.6536   10.3831   24.6130 C   0  0  0  0  0  0  0  0  0  0  0  0
    7.6342    9.7488   25.3324 C   0  0  0  0  0  0  0  0  0  0  0  0
    6.8712   10.5173   26.2165 C   0  0  0  0  0  0  0  0  0  0  0  0
    7.1153   11.8780   26.3768 C   0  0  0  0  0  0  0  0  0  0  0  0
    8.1390   12.5050   25.6605 C   0  0  0  0  0  0  0  0  0  0  0  0
    8.9244   11.7430   24.7750 C   0  0  0  0  0  0  0  0  0  0  0  0
   10.8226   14.9261   20.6441 C   0  0  0  0  0  0  0  0  0  0  0  0
   10.6506   15.1549   19.3026 C   0  0  0  0  0  0  0  0  0  0  0  0
    9.7109   16.1271   19.1519 O   0  0  0  0  0  0  0  0  0  0  0  0
    9.3466   16.4252   20.4256 C   0  0  0  0  0  0  0  0  0  0  0  0
    9.9274   15.6941   21.3472 N   0  0  0  0  0  0  0  0  0  0  0  0
  2  1  1  1
  2  3  1  0
  3  4  1  0
  4  5  2  0
  4  6  1  0
  6  7  2  0
  7  8  1  0
  8  9  1  0
  9 10  1  0
  9 11  1  0
  9 12  1  0
  8 13  1  0
 13 14  2  0
 14 15  1  0
 15 16  2  0
 16 17  1  0
 17 18  2  0
  2 19  1  0
 19 20  2  0
 20 21  1  0
 21 22  1  0
 22 23  2  0
 18  6  1  0
 23 19  1  0
 18 13  1  0
M  END
>  <energy_score>  (3490) 
-26.666829

>  <inchikey>  (3490) 
VJPOHPWREWKKHO-UHFFFAOYSA-N

>  <smiles>  (3490) 
CC(NC(=O)c1nn(C(F)(F)F)c2ccccc12)c1cocn1

>  <ref_pdb>  (3490) 
A0514a

>  <alias>  (3490) 
VJPOHPWREWKKHO-UHFFFAOYSA-N-P126-P126-P177-601502

>  <HIPPO Pose ID>  (3490) 
502824

>  <name>  (3490) 
VJPOHPWREWKKHO-UHFFFAOYSA-N-P126-P126-P177-601502

>  <HIPPO Compound ID>  (3490) 
299230

>  <ref_mols>  (3490) 
A3403a,A2290a

>  <distance_score>  (3490) 
0.714091

>  <inspiration_score>  (3490) 
None

$$$$
VJPOHPWREWKKHO-UHFFFAOYSA-N-P177-P126-P177-601502
     RDKit          3D

 23 25  0  0  0  0  0  0  0  0999 V2000
   12.4340   15.1389   21.8925 C   0  0  0  0  0  0  0  0  0  0  0  0
   11.3608   14.4291   21.1392 C   0  0  1  0  0  0  0  0  0  0  0  0
   10.6518   13.5274   21.9863 N   0  0  0  0  0  0  0  0  0  0  0  0
   10.1910   13.6800   23.4451 C   0  0  0  0  0  0  0  0  0  0  0  0
   10.2490   14.5961   24.1650 O   0  0  0  0  0  0  0  0  0  0  0  0
    9.5758   12.4021   23.8242 C   0  0  0  0  0  0  0  0  0  0  0  0
    9.9010   11.2933   23.1439 N   0  0  0  0  0  0  0  0  0  0  0  0
    9.1117   10.3213   23.6402 N   0  0  0  0  0  0  0  0  0  0  0  0
    9.1167    8.9846   23.0334 C   0  0  0  0  0  0  0  0  0  0  0  0
    7.8507    8.5807   22.8179 F   0  0  0  0  0  0  0  0  0  0  0  0
    9.7504    8.9487   21.8377 F   0  0  0  0  0  0  0  0  0  0  0  0
    9.6968    8.0569   23.8263 F   0  0  0  0  0  0  0  0  0  0  0  0
    8.2783   10.7860   24.6373 C   0  0  0  0  0  0  0  0  0  0  0  0
    7.2700   10.1710   25.3818 C   0  0  0  0  0  0  0  0  0  0  0  0
    6.5855   10.9404   26.3258 C   0  0  0  0  0  0  0  0  0  0  0  0
    6.8923   12.2840   26.5142 C   0  0  0  0  0  0  0  0  0  0  0  0
    7.8908   12.8974   25.7534 C   0  0  0  0  0  0  0  0  0  0  0  0
    8.5919   12.1351   24.8019 C   0  0  0  0  0  0  0  0  0  0  0  0
   10.4141   15.3835   20.5428 C   0  0  0  0  0  0  0  0  0  0  0  0
   10.2625   15.7053   19.2211 C   0  0  0  0  0  0  0  0  0  0  0  0
    9.4084   16.7582   19.1499 O   0  0  0  0  0  0  0  0  0  0  0  0
    9.0669   17.0065   20.4433 C   0  0  0  0  0  0  0  0  0  0  0  0
    9.6122   16.1931   21.3124 N   0  0  0  0  0  0  0  0  0  0  0  0
  2  1  1  1
  2  3  1  0
  3  4  1  0
  4  5  2  0
  4  6  1  0
  6  7  2  0
  7  8  1  0
  8  9  1  0
  9 10  1  0
  9 11  1  0
  9 12  1  0
  8 13  1  0
 13 14  2  0
 14 15  1  0
 15 16  2  0
 16 17  1  0
 17 18  2  0
  2 19  1  0
 19 20  2  0
 20 21  1  0
 21 22  1  0
 22 23  2  0
 18  6  1  0
 23 19  1  0
 18 13  1  0
M  END
>  <energy_score>  (3491) 
-26.50041

>  <inchikey>  (3491) 
VJPOHPWREWKKHO-UHFFFAOYSA-N

>  <smiles>  (3491) 
CC(NC(=O)c1nn(C(F)(F)F)c2ccccc12)c1cocn1

>  <ref_pdb>  (3491) 
A0514a

>  <alias>  (3491) 
VJPOHPWREWKKHO-UHFFFAOYSA-N-P177-P126-P177-601502

>  <HIPPO Pose ID>  (3491) 
502825

>  <name>  (3491) 
VJPOHPWREWKKHO-UHFFFAOYSA-N-P177-P126-P177-601502

>  <HIPPO Compound ID>  (3491) 
299230

>  <ref_mols>  (3491) 
A3403a,A2290a

>  <distance_score>  (3491) 
0.772368

>  <inspiration_score>  (3491) 
None

$$$$
YTIAAHHQIQUTJQ-UHFFFAOYSA-N-P126-P126-P177-601502
     RDKit          3D

 23 25  0  0  0  0  0  0  0  0999 V2000
   10.9084   14.1399   24.5501 O   0  0  0  0  0  0  0  0  0  0  0  0
   10.8348   13.3182   23.7278 C   0  0  0  0  0  0  0  0  0  0  0  0
   11.3818   13.2928   22.2956 N   0  0  0  0  0  0  0  0  0  0  0  0
   12.0480   14.2991   21.5422 C   0  0  0  0  0  0  0  0  0  0  0  0
   11.0191   14.9765   20.7270 C   0  0  0  0  0  0  0  0  0  0  0  0
   10.8110   14.9495   19.3705 C   0  0  0  0  0  0  0  0  0  0  0  0
    9.8527   15.8708   19.0706 O   0  0  0  0  0  0  0  0  0  0  0  0
    9.5341   16.4279   20.2735 C   0  0  0  0  0  0  0  0  0  0  0  0
    8.5305   17.8055   20.4508 Cl  0  0  0  0  0  0  0  0  0  0  0  0
   10.1343   15.8573   21.2947 N   0  0  0  0  0  0  0  0  0  0  0  0
   10.0968   12.0676   23.9324 C   0  0  0  0  0  0  0  0  0  0  0  0
   10.4341   10.9920   23.2105 N   0  0  0  0  0  0  0  0  0  0  0  0
    9.5975   10.0129   23.6172 N   0  0  0  0  0  0  0  0  0  0  0  0
    9.6471    8.7109   22.9427 C   0  0  0  0  0  0  0  0  0  0  0  0
    8.4411    8.1118   22.9645 F   0  0  0  0  0  0  0  0  0  0  0  0
   10.5336    7.8562   23.5015 F   0  0  0  0  0  0  0  0  0  0  0  0
   10.0131    8.8410   21.6468 F   0  0  0  0  0  0  0  0  0  0  0  0
    8.7118   10.4434   24.5866 C   0  0  0  0  0  0  0  0  0  0  0  0
    7.6850    9.7988   25.2888 C   0  0  0  0  0  0  0  0  0  0  0  0
    6.9196   10.5548   26.1814 C   0  0  0  0  0  0  0  0  0  0  0  0
    7.1708   11.9108   26.3686 C   0  0  0  0  0  0  0  0  0  0  0  0
    8.2096   12.5437   25.6786 C   0  0  0  0  0  0  0  0  0  0  0  0
    8.9994   11.7950   24.7854 C   0  0  0  0  0  0  0  0  0  0  0  0
  1  2  2  0
  2  3  1  0
  3  4  1  0
  4  5  1  0
  5  6  2  0
  6  7  1  0
  7  8  1  0
  8  9  1  0
  8 10  2  0
  2 11  1  0
 11 12  2  0
 12 13  1  0
 13 14  1  0
 14 15  1  0
 14 16  1  0
 14 17  1  0
 13 18  1  0
 18 19  2  0
 19 20  1  0
 20 21  2  0
 21 22  1  0
 22 23  2  0
 10  5  1  0
 23 11  1  0
 23 18  1  0
M  END
>  <energy_score>  (3492) 
-18.973889

>  <inchikey>  (3492) 
YTIAAHHQIQUTJQ-UHFFFAOYSA-N

>  <smiles>  (3492) 
O=C(NCc1coc(Cl)n1)c1nn(C(F)(F)F)c2ccccc12

>  <ref_pdb>  (3492) 
A0514a

>  <alias>  (3492) 
YTIAAHHQIQUTJQ-UHFFFAOYSA-N-P126-P126-P177-601502

>  <HIPPO Pose ID>  (3492) 
502826

>  <name>  (3492) 
YTIAAHHQIQUTJQ-UHFFFAOYSA-N-P126-P126-P177-601502

>  <HIPPO Compound ID>  (3492) 
299231

>  <ref_mols>  (3492) 
A3403a,A2290a

>  <distance_score>  (3492) 
0.640923

>  <inspiration_score>  (3492) 
None

$$$$
YTIAAHHQIQUTJQ-UHFFFAOYSA-N-P177-P126-P177-601502
     RDKit          3D

 23 25  0  0  0  0  0  0  0  0999 V2000
   10.5893   14.5178   24.4558 O   0  0  0  0  0  0  0  0  0  0  0  0
   10.5040   13.6659   23.6650 C   0  0  0  0  0  0  0  0  0  0  0  0
   11.0228   13.5911   22.2234 N   0  0  0  0  0  0  0  0  0  0  0  0
   11.8314   14.4997   21.4821 C   0  0  0  0  0  0  0  0  0  0  0  0
   10.9303   15.2666   20.6075 C   0  0  0  0  0  0  0  0  0  0  0  0
   10.7350   15.1663   19.2521 C   0  0  0  0  0  0  0  0  0  0  0  0
    9.8083   16.0927   18.8953 O   0  0  0  0  0  0  0  0  0  0  0  0
    9.5109   16.7424   20.0605 C   0  0  0  0  0  0  0  0  0  0  0  0
    8.4649   18.0911   20.1384 Cl  0  0  0  0  0  0  0  0  0  0  0  0
   10.1300   16.2608   21.1139 N   0  0  0  0  0  0  0  0  0  0  0  0
    9.7522   12.4243   23.9228 C   0  0  0  0  0  0  0  0  0  0  0  0
   10.0030   11.3306   23.1877 N   0  0  0  0  0  0  0  0  0  0  0  0
    9.1625   10.3829   23.6502 N   0  0  0  0  0  0  0  0  0  0  0  0
    9.1247    9.0481   23.0406 C   0  0  0  0  0  0  0  0  0  0  0  0
    7.8409    8.6658   22.8784 F   0  0  0  0  0  0  0  0  0  0  0  0
    9.7125    8.1061   23.8147 F   0  0  0  0  0  0  0  0  0  0  0  0
    9.7141    8.9949   21.8247 F   0  0  0  0  0  0  0  0  0  0  0  0
    8.3327   10.8573   24.6457 C   0  0  0  0  0  0  0  0  0  0  0  0
    7.2922   10.2617   25.3657 C   0  0  0  0  0  0  0  0  0  0  0  0
    6.6258   11.0369   26.3169 C   0  0  0  0  0  0  0  0  0  0  0  0
    6.9841   12.3631   26.5380 C   0  0  0  0  0  0  0  0  0  0  0  0
    8.0241   12.9509   25.8116 C   0  0  0  0  0  0  0  0  0  0  0  0
    8.7096   12.1844   24.8521 C   0  0  0  0  0  0  0  0  0  0  0  0
  1  2  2  0
  2  3  1  0
  3  4  1  0
  4  5  1  0
  5  6  2  0
  6  7  1  0
  7  8  1  0
  8  9  1  0
  8 10  2  0
  2 11  1  0
 11 12  2  0
 12 13  1  0
 13 14  1  0
 14 15  1  0
 14 16  1  0
 14 17  1  0
 13 18  1  0
 18 19  2  0
 19 20  1  0
 20 21  2  0
 21 22  1  0
 22 23  2  0
 10  5  1  0
 23 11  1  0
 23 18  1  0
M  END
>  <energy_score>  (3493) 
-21.178598

>  <inchikey>  (3493) 
YTIAAHHQIQUTJQ-UHFFFAOYSA-N

>  <smiles>  (3493) 
O=C(NCc1coc(Cl)n1)c1nn(C(F)(F)F)c2ccccc12

>  <ref_pdb>  (3493) 
A0514a

>  <alias>  (3493) 
YTIAAHHQIQUTJQ-UHFFFAOYSA-N-P177-P126-P177-601502

>  <HIPPO Pose ID>  (3493) 
502827

>  <name>  (3493) 
YTIAAHHQIQUTJQ-UHFFFAOYSA-N-P177-P126-P177-601502

>  <HIPPO Compound ID>  (3493) 
299231

>  <ref_mols>  (3493) 
A3403a,A2290a

>  <distance_score>  (3493) 
0.605102

>  <inspiration_score>  (3493) 
None

$$$$
SKQFZQIUADLNSF-UHFFFAOYSA-N-P126-P126-P177-601502
     RDKit          3D

 23 25  0  0  0  0  0  0  0  0999 V2000
    9.4806    8.6851   23.0510 C   0  0  0  0  0  0  0  0  0  0  0  0
    9.4066    9.9932   23.6549 N   0  0  0  0  0  0  0  0  0  0  0  0
   10.2375   10.9433   23.2049 N   0  0  0  0  0  0  0  0  0  0  0  0
    9.9336   12.0313   23.9298 C   0  0  0  0  0  0  0  0  0  0  0  0
   10.6863   13.2776   23.7414 C   0  0  0  0  0  0  0  0  0  0  0  0
   10.7640   14.0769   24.5847 O   0  0  0  0  0  0  0  0  0  0  0  0
   11.2464   13.2797   22.3166 N   0  0  0  0  0  0  0  0  0  0  0  0
   11.9360   14.2954   21.5943 C   0  0  0  0  0  0  0  0  0  0  0  0
   10.9544   14.9816   20.7272 C   0  0  0  0  0  0  0  0  0  0  0  0
   10.8087   14.9244   19.3642 C   0  0  0  0  0  0  0  0  0  0  0  0
    9.8861   15.8541   18.9962 O   0  0  0  0  0  0  0  0  0  0  0  0
    9.5281   16.4611   20.1634 C   0  0  0  0  0  0  0  0  0  0  0  0
    8.4431   18.0334   20.2134 Br  0  0  0  0  0  0  0  0  0  0  0  0
   10.0738   15.9110   21.2281 N   0  0  0  0  0  0  0  0  0  0  0  0
    8.8417   11.7849   24.8031 C   0  0  0  0  0  0  0  0  0  0  0  0
    8.0772   12.5551   25.7015 C   0  0  0  0  0  0  0  0  0  0  0  0
    7.0340   11.9227   26.3962 C   0  0  0  0  0  0  0  0  0  0  0  0
    6.2333   12.6996   27.3428 N   0  0  0  0  0  0  0  0  0  0  0  0
    6.7630   13.6978   27.8520 O   0  0  0  0  0  0  0  0  0  0  0  0
    5.0972   12.2842   27.6151 O   0  0  0  0  0  0  0  0  0  0  0  0
    6.7636   10.5610   26.2335 C   0  0  0  0  0  0  0  0  0  0  0  0
    7.5249    9.7958   25.3469 C   0  0  0  0  0  0  0  0  0  0  0  0
    8.5409   10.4353   24.6266 C   0  0  0  0  0  0  0  0  0  0  0  0
  1  2  1  0
  2  3  1  0
  3  4  2  0
  4  5  1  0
  5  6  2  0
  5  7  1  0
  7  8  1  0
  8  9  1  0
  9 10  2  0
 10 11  1  0
 11 12  1  0
 12 13  1  0
 12 14  2  0
  4 15  1  0
 15 16  2  0
 16 17  1  0
 17 18  1  0
 18 19  2  0
 18 20  1  0
 17 21  2  0
 21 22  1  0
 22 23  2  0
 23  2  1  0
 14  9  1  0
 23 15  1  0
M  CHG  2  18   1  20  -1
M  END
>  <energy_score>  (3494) 
-13.74084

>  <inchikey>  (3494) 
SKQFZQIUADLNSF-UHFFFAOYSA-N

>  <smiles>  (3494) 
Cn1nc(C(=O)NCc2coc(Br)n2)c2cc([N+](=O)[O-])ccc21

>  <ref_pdb>  (3494) 
A0514a

>  <alias>  (3494) 
SKQFZQIUADLNSF-UHFFFAOYSA-N-P126-P126-P177-601502

>  <HIPPO Pose ID>  (3494) 
502828

>  <name>  (3494) 
SKQFZQIUADLNSF-UHFFFAOYSA-N-P126-P126-P177-601502

>  <HIPPO Compound ID>  (3494) 
299232

>  <ref_mols>  (3494) 
A3403a,A2290a

>  <distance_score>  (3494) 
0.652746

>  <inspiration_score>  (3494) 
None

$$$$
SKQFZQIUADLNSF-UHFFFAOYSA-N-P177-P126-P177-601502
     RDKit          3D

 23 25  0  0  0  0  0  0  0  0999 V2000
    9.1022    9.0263   23.0798 C   0  0  0  0  0  0  0  0  0  0  0  0
    9.0496   10.3571   23.6388 N   0  0  0  0  0  0  0  0  0  0  0  0
    9.8788   11.2920   23.1641 N   0  0  0  0  0  0  0  0  0  0  0  0
    9.6346   12.3858   23.9049 C   0  0  0  0  0  0  0  0  0  0  0  0
   10.3889   13.6304   23.6713 C   0  0  0  0  0  0  0  0  0  0  0  0
   10.4577   14.4683   24.4778 O   0  0  0  0  0  0  0  0  0  0  0  0
   10.9355   13.5807   22.2413 N   0  0  0  0  0  0  0  0  0  0  0  0
   11.7580   14.5024   21.5317 C   0  0  0  0  0  0  0  0  0  0  0  0
   10.8922   15.2564   20.6098 C   0  0  0  0  0  0  0  0  0  0  0  0
   10.7483   15.1244   19.2512 C   0  0  0  0  0  0  0  0  0  0  0  0
    9.8466   16.0487   18.8351 O   0  0  0  0  0  0  0  0  0  0  0  0
    9.5139   16.7382   19.9684 C   0  0  0  0  0  0  0  0  0  0  0  0
    8.3694   18.2603   19.9348 Br  0  0  0  0  0  0  0  0  0  0  0  0
   10.0873   16.2769   21.0577 N   0  0  0  0  0  0  0  0  0  0  0  0
    8.5937   12.1458   24.8390 C   0  0  0  0  0  0  0  0  0  0  0  0
    7.9198   12.9087   25.8114 C   0  0  0  0  0  0  0  0  0  0  0  0
    6.8872   12.2946   26.5371 C   0  0  0  0  0  0  0  0  0  0  0  0
    6.1907   13.0562   27.5771 N   0  0  0  0  0  0  0  0  0  0  0  0
    6.7621   14.0562   28.0340 O   0  0  0  0  0  0  0  0  0  0  0  0
    5.0950   12.6274   27.9680 O   0  0  0  0  0  0  0  0  0  0  0  0
    6.5284   10.9623   26.3147 C   0  0  0  0  0  0  0  0  0  0  0  0
    7.1975   10.2051   25.3525 C   0  0  0  0  0  0  0  0  0  0  0  0
    8.2216   10.8188   24.6297 C   0  0  0  0  0  0  0  0  0  0  0  0
  1  2  1  0
  2  3  1  0
  3  4  2  0
  4  5  1  0
  5  6  2  0
  5  7  1  0
  7  8  1  0
  8  9  1  0
  9 10  2  0
 10 11  1  0
 11 12  1  0
 12 13  1  0
 12 14  2  0
  4 15  1  0
 15 16  2  0
 16 17  1  0
 17 18  1  0
 18 19  2  0
 18 20  1  0
 17 21  2  0
 21 22  1  0
 22 23  2  0
 23  2  1  0
 14  9  1  0
 23 15  1  0
M  CHG  2  18   1  20  -1
M  END
>  <energy_score>  (3495) 
-15.27438

>  <inchikey>  (3495) 
SKQFZQIUADLNSF-UHFFFAOYSA-N

>  <smiles>  (3495) 
Cn1nc(C(=O)NCc2coc(Br)n2)c2cc([N+](=O)[O-])ccc21

>  <ref_pdb>  (3495) 
A0514a

>  <alias>  (3495) 
SKQFZQIUADLNSF-UHFFFAOYSA-N-P177-P126-P177-601502

>  <HIPPO Pose ID>  (3495) 
502829

>  <name>  (3495) 
SKQFZQIUADLNSF-UHFFFAOYSA-N-P177-P126-P177-601502

>  <HIPPO Compound ID>  (3495) 
299232

>  <ref_mols>  (3495) 
A3403a,A2290a

>  <distance_score>  (3495) 
0.632512

>  <inspiration_score>  (3495) 
None

$$$$
RPYCCNFCVWTOGH-UHFFFAOYSA-N-P126-P126-P177-601502
     RDKit          3D

 23 25  0  0  0  0  0  0  0  0999 V2000
   11.7220   14.4637   18.5616 C   0  0  0  0  0  0  0  0  0  0  0  0
   10.8875   15.0025   19.6274 C   0  0  0  0  0  0  0  0  0  0  0  0
    9.8820   15.8591   19.2816 O   0  0  0  0  0  0  0  0  0  0  0  0
    9.3907   16.2667   20.4781 C   0  0  0  0  0  0  0  0  0  0  0  0
    9.9221   15.6695   21.5169 N   0  0  0  0  0  0  0  0  0  0  0  0
   10.9545   14.9408   20.9955 C   0  0  0  0  0  0  0  0  0  0  0  0
   11.9561   14.2817   21.8582 C   0  0  0  0  0  0  0  0  0  0  0  0
   11.2709   13.2511   22.5543 N   0  0  0  0  0  0  0  0  0  0  0  0
   10.6639   13.2331   23.9560 C   0  0  0  0  0  0  0  0  0  0  0  0
   10.6918   14.0328   24.8013 O   0  0  0  0  0  0  0  0  0  0  0  0
    9.9083   11.9858   24.0862 C   0  0  0  0  0  0  0  0  0  0  0  0
   10.2378   10.9186   23.3414 N   0  0  0  0  0  0  0  0  0  0  0  0
    9.3849    9.9611   23.7268 N   0  0  0  0  0  0  0  0  0  0  0  0
    9.4672    8.6778   23.0714 C   0  0  0  0  0  0  0  0  0  0  0  0
    8.4919   10.3793   24.6858 C   0  0  0  0  0  0  0  0  0  0  0  0
    7.4599    9.7240   25.3646 C   0  0  0  0  0  0  0  0  0  0  0  0
    6.6695   10.4681   26.2432 C   0  0  0  0  0  0  0  0  0  0  0  0
    6.9243   11.8289   26.4357 C   0  0  0  0  0  0  0  0  0  0  0  0
    6.0761   12.5858   27.3555 N   0  0  0  0  0  0  0  0  0  0  0  0
    4.9225   12.1710   27.5451 O   0  0  0  0  0  0  0  0  0  0  0  0
    6.5796   13.5667   27.9203 O   0  0  0  0  0  0  0  0  0  0  0  0
    7.9867   12.4772   25.7901 C   0  0  0  0  0  0  0  0  0  0  0  0
    8.7836   11.7239   24.9059 C   0  0  0  0  0  0  0  0  0  0  0  0
  1  2  1  0
  2  3  1  0
  3  4  1  0
  4  5  2  0
  5  6  1  0
  6  7  1  0
  7  8  1  0
  8  9  1  0
  9 10  2  0
  9 11  1  0
 11 12  2  0
 12 13  1  0
 13 14  1  0
 13 15  1  0
 15 16  2  0
 16 17  1  0
 17 18  2  0
 18 19  1  0
 19 20  2  0
 19 21  1  0
 18 22  1  0
 22 23  2  0
  6  2  2  0
 23 11  1  0
 23 15  1  0
M  CHG  2  19   1  21  -1
M  END
>  <energy_score>  (3496) 
-36.982588

>  <inchikey>  (3496) 
RPYCCNFCVWTOGH-UHFFFAOYSA-N

>  <smiles>  (3496) 
Cc1ocnc1CNC(=O)c1nn(C)c2ccc([N+](=O)[O-])cc12

>  <ref_pdb>  (3496) 
A0514a

>  <alias>  (3496) 
RPYCCNFCVWTOGH-UHFFFAOYSA-N-P126-P126-P177-601502

>  <HIPPO Pose ID>  (3496) 
502830

>  <name>  (3496) 
RPYCCNFCVWTOGH-UHFFFAOYSA-N-P126-P126-P177-601502

>  <HIPPO Compound ID>  (3496) 
299233

>  <ref_mols>  (3496) 
A3403a,A2290a

>  <distance_score>  (3496) 
0.761871

>  <inspiration_score>  (3496) 
None

$$$$
RPYCCNFCVWTOGH-UHFFFAOYSA-N-P177-P126-P177-601502
     RDKit          3D

 23 25  0  0  0  0  0  0  0  0999 V2000
   11.4312   14.7995   18.4258 C   0  0  0  0  0  0  0  0  0  0  0  0
   10.6888   15.3928   19.5364 C   0  0  0  0  0  0  0  0  0  0  0  0
    9.7069   16.2956   19.2491 O   0  0  0  0  0  0  0  0  0  0  0  0
    9.2671   16.6939   20.4760 C   0  0  0  0  0  0  0  0  0  0  0  0
    9.8467   16.0938   21.4873 N   0  0  0  0  0  0  0  0  0  0  0  0
   10.7929   15.2924   20.9011 C   0  0  0  0  0  0  0  0  0  0  0  0
   11.7553   14.5071   21.6937 C   0  0  0  0  0  0  0  0  0  0  0  0
   11.0251   13.5260   22.4136 N   0  0  0  0  0  0  0  0  0  0  0  0
   10.4253   13.5661   23.8198 C   0  0  0  0  0  0  0  0  0  0  0  0
   10.4969   14.3809   24.6486 O   0  0  0  0  0  0  0  0  0  0  0  0
    9.6401   12.3370   23.9996 C   0  0  0  0  0  0  0  0  0  0  0  0
    9.8847   11.2567   23.2397 N   0  0  0  0  0  0  0  0  0  0  0  0
    9.0331   10.3252   23.6772 N   0  0  0  0  0  0  0  0  0  0  0  0
    9.0823    9.0056   23.0921 C   0  0  0  0  0  0  0  0  0  0  0  0
    8.1943   10.7799   24.6631 C   0  0  0  0  0  0  0  0  0  0  0  0
    7.1567   10.1661   25.3631 C   0  0  0  0  0  0  0  0  0  0  0  0
    6.4783   10.9147   26.3252 C   0  0  0  0  0  0  0  0  0  0  0  0
    6.8403   12.2419   26.5695 C   0  0  0  0  0  0  0  0  0  0  0  0
    6.1303   12.9927   27.6078 N   0  0  0  0  0  0  0  0  0  0  0  0
    5.0232   12.5668   27.9697 O   0  0  0  0  0  0  0  0  0  0  0  0
    6.7012   13.9787   28.0943 O   0  0  0  0  0  0  0  0  0  0  0  0
    7.8894   12.8566   25.8704 C   0  0  0  0  0  0  0  0  0  0  0  0
    8.5735   12.0992   24.9009 C   0  0  0  0  0  0  0  0  0  0  0  0
  1  2  1  0
  2  3  1  0
  3  4  1  0
  4  5  2  0
  5  6  1  0
  6  7  1  0
  7  8  1  0
  8  9  1  0
  9 10  2  0
  9 11  1  0
 11 12  2  0
 12 13  1  0
 13 14  1  0
 13 15  1  0
 15 16  2  0
 16 17  1  0
 17 18  2  0
 18 19  1  0
 19 20  2  0
 19 21  1  0
 18 22  1  0
 22 23  2  0
  6  2  2  0
 23 11  1  0
 23 15  1  0
M  CHG  2  19   1  21  -1
M  END
>  <energy_score>  (3497) 
-38.796593

>  <inchikey>  (3497) 
RPYCCNFCVWTOGH-UHFFFAOYSA-N

>  <smiles>  (3497) 
Cc1ocnc1CNC(=O)c1nn(C)c2ccc([N+](=O)[O-])cc12

>  <ref_pdb>  (3497) 
A0514a

>  <alias>  (3497) 
RPYCCNFCVWTOGH-UHFFFAOYSA-N-P177-P126-P177-601502

>  <HIPPO Pose ID>  (3497) 
502831

>  <name>  (3497) 
RPYCCNFCVWTOGH-UHFFFAOYSA-N-P177-P126-P177-601502

>  <HIPPO Compound ID>  (3497) 
299233

>  <ref_mols>  (3497) 
A3403a,A2290a

>  <distance_score>  (3497) 
0.753671

>  <inspiration_score>  (3497) 
None

$$$$
IUPVVKXLQUQYNG-UHFFFAOYSA-N-P126-P126-P177-601502
     RDKit          3D

 23 25  0  0  0  0  0  0  0  0999 V2000
   12.8196   14.8805   22.1403 C   0  0  0  0  0  0  0  0  0  0  0  0
   11.8618   14.0477   21.3414 C   0  0  1  0  0  0  0  0  0  0  0  0
   11.2019   13.0784   22.1601 N   0  0  0  0  0  0  0  0  0  0  0  0
   10.5828   13.2090   23.5572 C   0  0  0  0  0  0  0  0  0  0  0  0
   10.5772   14.1063   24.3004 O   0  0  0  0  0  0  0  0  0  0  0  0
    9.8659   11.9633   23.8433 C   0  0  0  0  0  0  0  0  0  0  0  0
   10.1703   10.8488   23.1624 N   0  0  0  0  0  0  0  0  0  0  0  0
    9.3602    9.9117   23.6610 N   0  0  0  0  0  0  0  0  0  0  0  0
    9.4175    8.5983   23.0706 C   0  0  0  0  0  0  0  0  0  0  0  0
    8.5065   10.3828   24.6294 C   0  0  0  0  0  0  0  0  0  0  0  0
    7.5017    9.7658   25.3831 C   0  0  0  0  0  0  0  0  0  0  0  0
    6.7517   10.5576   26.2557 C   0  0  0  0  0  0  0  0  0  0  0  0
    7.0197   11.9249   26.3684 C   0  0  0  0  0  0  0  0  0  0  0  0
    6.2222   12.7322   27.2908 N   0  0  0  0  0  0  0  0  0  0  0  0
    6.7601   13.7357   27.7801 O   0  0  0  0  0  0  0  0  0  0  0  0
    5.0779   12.3368   27.5585 O   0  0  0  0  0  0  0  0  0  0  0  0
    8.0483   12.5379   25.6371 C   0  0  0  0  0  0  0  0  0  0  0  0
    8.8013   11.7402   24.7535 C   0  0  0  0  0  0  0  0  0  0  0  0
   10.8373   14.8764   20.6618 C   0  0  0  0  0  0  0  0  0  0  0  0
   10.6814   15.1173   19.3199 C   0  0  0  0  0  0  0  0  0  0  0  0
    9.7394   16.0878   19.1675 O   0  0  0  0  0  0  0  0  0  0  0  0
    9.3625   16.3772   20.4393 C   0  0  0  0  0  0  0  0  0  0  0  0
    9.9311   15.6367   21.3611 N   0  0  0  0  0  0  0  0  0  0  0  0
  2  1  1  1
  2  3  1  0
  3  4  1  0
  4  5  2  0
  4  6  1  0
  6  7  2  0
  7  8  1  0
  8  9  1  0
  8 10  1  0
 10 11  2  0
 11 12  1  0
 12 13  2  0
 13 14  1  0
 14 15  2  0
 14 16  1  0
 13 17  1  0
 17 18  2  0
  2 19  1  0
 19 20  2  0
 20 21  1  0
 21 22  1  0
 22 23  2  0
 18  6  1  0
 23 19  1  0
 18 10  1  0
M  CHG  2  14   1  16  -1
M  END
>  <energy_score>  (3498) 
-19.267139

>  <inchikey>  (3498) 
IUPVVKXLQUQYNG-UHFFFAOYSA-N

>  <smiles>  (3498) 
CC(NC(=O)c1nn(C)c2ccc([N+](=O)[O-])cc12)c1cocn1

>  <ref_pdb>  (3498) 
A0514a

>  <alias>  (3498) 
IUPVVKXLQUQYNG-UHFFFAOYSA-N-P126-P126-P177-601502

>  <HIPPO Pose ID>  (3498) 
502832

>  <name>  (3498) 
IUPVVKXLQUQYNG-UHFFFAOYSA-N-P126-P126-P177-601502

>  <HIPPO Compound ID>  (3498) 
299234

>  <ref_mols>  (3498) 
A3403a,A2290a

>  <distance_score>  (3498) 
0.779822

>  <inspiration_score>  (3498) 
None

$$$$
IUPVVKXLQUQYNG-UHFFFAOYSA-N-P177-P126-P177-601502
     RDKit          3D

 23 25  0  0  0  0  0  0  0  0999 V2000
   12.4605   15.1463   21.9024 C   0  0  0  0  0  0  0  0  0  0  0  0
   11.4208   14.3764   21.1628 C   0  0  1  0  0  0  0  0  0  0  0  0
   10.7771   13.4418   22.0304 N   0  0  0  0  0  0  0  0  0  0  0  0
   10.1845   13.6280   23.4346 C   0  0  0  0  0  0  0  0  0  0  0  0
   10.1938   14.5545   24.1427 O   0  0  0  0  0  0  0  0  0  0  0  0
    9.5040   12.3713   23.7888 C   0  0  0  0  0  0  0  0  0  0  0  0
    9.7713   11.2455   23.1060 N   0  0  0  0  0  0  0  0  0  0  0  0
    8.9915   10.3122   23.6494 N   0  0  0  0  0  0  0  0  0  0  0  0
    9.0596    8.9681   23.1292 C   0  0  0  0  0  0  0  0  0  0  0  0
    8.1742   10.7965   24.6378 C   0  0  0  0  0  0  0  0  0  0  0  0
    7.1820   10.1919   25.4099 C   0  0  0  0  0  0  0  0  0  0  0  0
    6.5188   10.9747   26.3556 C   0  0  0  0  0  0  0  0  0  0  0  0
    6.8498   12.3242   26.5108 C   0  0  0  0  0  0  0  0  0  0  0  0
    6.1578   13.1141   27.5322 N   0  0  0  0  0  0  0  0  0  0  0  0
    6.7196   14.1399   27.9405 O   0  0  0  0  0  0  0  0  0  0  0  0
    5.0762   12.6812   27.9563 O   0  0  0  0  0  0  0  0  0  0  0  0
    7.8443   12.9319   25.7300 C   0  0  0  0  0  0  0  0  0  0  0  0
    8.5113   12.1431   24.7744 C   0  0  0  0  0  0  0  0  0  0  0  0
   10.4370   15.2921   20.5587 C   0  0  0  0  0  0  0  0  0  0  0  0
   10.3088   15.6415   19.2397 C   0  0  0  0  0  0  0  0  0  0  0  0
    9.4448   16.6875   19.1728 O   0  0  0  0  0  0  0  0  0  0  0  0
    9.0736   16.9034   20.4643 C   0  0  0  0  0  0  0  0  0  0  0  0
    9.6012   16.0700   21.3264 N   0  0  0  0  0  0  0  0  0  0  0  0
  2  1  1  1
  2  3  1  0
  3  4  1  0
  4  5  2  0
  4  6  1  0
  6  7  2  0
  7  8  1  0
  8  9  1  0
  8 10  1  0
 10 11  2  0
 11 12  1  0
 12 13  2  0
 13 14  1  0
 14 15  2  0
 14 16  1  0
 13 17  1  0
 17 18  2  0
  2 19  1  0
 19 20  2  0
 20 21  1  0
 21 22  1  0
 22 23  2  0
 18  6  1  0
 23 19  1  0
 18 10  1  0
M  CHG  2  14   1  16  -1
M  END
>  <energy_score>  (3499) 
-18.179785

>  <inchikey>  (3499) 
IUPVVKXLQUQYNG-UHFFFAOYSA-N

>  <smiles>  (3499) 
CC(NC(=O)c1nn(C)c2ccc([N+](=O)[O-])cc12)c1cocn1

>  <ref_pdb>  (3499) 
A0514a

>  <alias>  (3499) 
IUPVVKXLQUQYNG-UHFFFAOYSA-N-P177-P126-P177-601502

>  <HIPPO Pose ID>  (3499) 
502833

>  <name>  (3499) 
IUPVVKXLQUQYNG-UHFFFAOYSA-N-P177-P126-P177-601502

>  <HIPPO Compound ID>  (3499) 
299234

>  <ref_mols>  (3499) 
A3403a,A2290a

>  <distance_score>  (3499) 
0.811358

>  <inspiration_score>  (3499) 
None

$$$$
VVFVLDHRFWNFBQ-UHFFFAOYSA-N-P126-P126-P177-601502
     RDKit          3D

 23 25  0  0  0  0  0  0  0  0999 V2000
    9.4806    8.6575   23.0608 C   0  0  0  0  0  0  0  0  0  0  0  0
    9.4172    9.9717   23.6511 N   0  0  0  0  0  0  0  0  0  0  0  0
   10.2421   10.9125   23.1764 N   0  0  0  0  0  0  0  0  0  0  0  0
    9.9649   12.0069   23.9035 C   0  0  0  0  0  0  0  0  0  0  0  0
   10.7376   13.2403   23.7031 C   0  0  0  0  0  0  0  0  0  0  0  0
   10.8075   14.0597   24.5274 O   0  0  0  0  0  0  0  0  0  0  0  0
   11.3151   13.2060   22.2855 N   0  0  0  0  0  0  0  0  0  0  0  0
   12.0172   14.2022   21.5468 C   0  0  0  0  0  0  0  0  0  0  0  0
   11.0167   14.9249   20.7342 C   0  0  0  0  0  0  0  0  0  0  0  0
   10.8292   14.9385   19.3745 C   0  0  0  0  0  0  0  0  0  0  0  0
    9.8793   15.8718   19.0867 O   0  0  0  0  0  0  0  0  0  0  0  0
    9.5482   16.3995   20.2996 C   0  0  0  0  0  0  0  0  0  0  0  0
    8.5458   17.7740   20.4980 Cl  0  0  0  0  0  0  0  0  0  0  0  0
   10.1314   15.7981   21.3137 N   0  0  0  0  0  0  0  0  0  0  0  0
    8.8721   11.7797   24.7821 C   0  0  0  0  0  0  0  0  0  0  0  0
    8.1182   12.5648   25.6767 C   0  0  0  0  0  0  0  0  0  0  0  0
    7.0713   11.9478   26.3793 C   0  0  0  0  0  0  0  0  0  0  0  0
    6.2763   12.7392   27.3185 N   0  0  0  0  0  0  0  0  0  0  0  0
    5.1334   12.3372   27.5833 O   0  0  0  0  0  0  0  0  0  0  0  0
    6.8158   13.7319   27.8265 O   0  0  0  0  0  0  0  0  0  0  0  0
    6.7879   10.5866   26.2302 C   0  0  0  0  0  0  0  0  0  0  0  0
    7.5380    9.8063   25.3478 C   0  0  0  0  0  0  0  0  0  0  0  0
    8.5566   10.4313   24.6184 C   0  0  0  0  0  0  0  0  0  0  0  0
  1  2  1  0
  2  3  1  0
  3  4  2  0
  4  5  1  0
  5  6  2  0
  5  7  1  0
  7  8  1  0
  8  9  1  0
  9 10  2  0
 10 11  1  0
 11 12  1  0
 12 13  1  0
 12 14  2  0
  4 15  1  0
 15 16  2  0
 16 17  1  0
 17 18  1  0
 18 19  2  0
 18 20  1  0
 17 21  2  0
 21 22  1  0
 22 23  2  0
 23  2  1  0
 14  9  1  0
 23 15  1  0
M  CHG  2  18   1  20  -1
M  END
>  <energy_score>  (3500) 
-17.129803

>  <inchikey>  (3500) 
VVFVLDHRFWNFBQ-UHFFFAOYSA-N

>  <smiles>  (3500) 
Cn1nc(C(=O)NCc2coc(Cl)n2)c2cc([N+](=O)[O-])ccc21

>  <ref_pdb>  (3500) 
A0514a

>  <alias>  (3500) 
VVFVLDHRFWNFBQ-UHFFFAOYSA-N-P126-P126-P177-601502

>  <HIPPO Pose ID>  (3500) 
502834

>  <name>  (3500) 
VVFVLDHRFWNFBQ-UHFFFAOYSA-N-P126-P126-P177-601502

>  <HIPPO Compound ID>  (3500) 
299235

>  <ref_mols>  (3500) 
A3403a,A2290a

>  <distance_score>  (3500) 
0.664692

>  <inspiration_score>  (3500) 
None

$$$$
VVFVLDHRFWNFBQ-UHFFFAOYSA-N-P177-P126-P177-601502
     RDKit          3D

 23 25  0  0  0  0  0  0  0  0999 V2000
    9.1012    9.0060   23.1015 C   0  0  0  0  0  0  0  0  0  0  0  0
    9.0531   10.3426   23.6448 N   0  0  0  0  0  0  0  0  0  0  0  0
    9.8752   11.2697   23.1479 N   0  0  0  0  0  0  0  0  0  0  0  0
    9.6537   12.3683   23.8900 C   0  0  0  0  0  0  0  0  0  0  0  0
   10.4252   13.6019   23.6503 C   0  0  0  0  0  0  0  0  0  0  0  0
   10.4983   14.4469   24.4487 O   0  0  0  0  0  0  0  0  0  0  0  0
   10.9737   13.5347   22.2219 N   0  0  0  0  0  0  0  0  0  0  0  0
   11.8039   14.4444   21.5045 C   0  0  0  0  0  0  0  0  0  0  0  0
   10.9255   15.2329   20.6253 C   0  0  0  0  0  0  0  0  0  0  0  0
   10.7564   15.1609   19.2645 C   0  0  0  0  0  0  0  0  0  0  0  0
    9.8380   16.0960   18.9088 O   0  0  0  0  0  0  0  0  0  0  0  0
    9.5211   16.7245   20.0805 C   0  0  0  0  0  0  0  0  0  0  0  0
    8.4774   18.0733   20.1667 Cl  0  0  0  0  0  0  0  0  0  0  0  0
   10.1172   16.2182   21.1357 N   0  0  0  0  0  0  0  0  0  0  0  0
    8.6125   12.1443   24.8289 C   0  0  0  0  0  0  0  0  0  0  0  0
    7.9489   12.9199   25.7984 C   0  0  0  0  0  0  0  0  0  0  0  0
    6.9149   12.3192   26.5328 C   0  0  0  0  0  0  0  0  0  0  0  0
    6.2275   13.0920   27.5711 N   0  0  0  0  0  0  0  0  0  0  0  0
    5.1359   12.6638   27.9747 O   0  0  0  0  0  0  0  0  0  0  0  0
    6.8024   14.0955   28.0137 O   0  0  0  0  0  0  0  0  0  0  0  0
    6.5453   10.9871   26.3221 C   0  0  0  0  0  0  0  0  0  0  0  0
    7.2042   10.2167   25.3635 C   0  0  0  0  0  0  0  0  0  0  0  0
    8.2291   10.8183   24.6318 C   0  0  0  0  0  0  0  0  0  0  0  0
  1  2  1  0
  2  3  1  0
  3  4  2  0
  4  5  1  0
  5  6  2  0
  5  7  1  0
  7  8  1  0
  8  9  1  0
  9 10  2  0
 10 11  1  0
 11 12  1  0
 12 13  1  0
 12 14  2  0
  4 15  1  0
 15 16  2  0
 16 17  1  0
 17 18  1  0
 18 19  2  0
 18 20  1  0
 17 21  2  0
 21 22  1  0
 22 23  2  0
 23  2  1  0
 14  9  1  0
 23 15  1  0
M  CHG  2  18   1  20  -1
M  END
>  <energy_score>  (3501) 
-18.537823

>  <inchikey>  (3501) 
VVFVLDHRFWNFBQ-UHFFFAOYSA-N

>  <smiles>  (3501) 
Cn1nc(C(=O)NCc2coc(Cl)n2)c2cc([N+](=O)[O-])ccc21

>  <ref_pdb>  (3501) 
A0514a

>  <alias>  (3501) 
VVFVLDHRFWNFBQ-UHFFFAOYSA-N-P177-P126-P177-601502

>  <HIPPO Pose ID>  (3501) 
502835

>  <name>  (3501) 
VVFVLDHRFWNFBQ-UHFFFAOYSA-N-P177-P126-P177-601502

>  <HIPPO Compound ID>  (3501) 
299235

>  <ref_mols>  (3501) 
A3403a,A2290a

>  <distance_score>  (3501) 
0.626059

>  <inspiration_score>  (3501) 
None

$$$$
FIIIUUWZPPLPML-UHFFFAOYSA-N-P126-P126-P177-601502
     RDKit          3D

 23 25  0  0  0  0  0  0  0  0999 V2000
    8.6243   17.4442   20.6160 C   0  0  0  0  0  0  0  0  0  0  0  0
    9.5826   16.3368   20.4715 C   0  0  0  0  0  0  0  0  0  0  0  0
   10.2234   15.6981   21.4236 N   0  0  0  0  0  0  0  0  0  0  0  0
   11.0899   14.8746   20.7590 C   0  0  0  0  0  0  0  0  0  0  0  0
   12.1044   14.1056   21.5060 C   0  0  0  0  0  0  0  0  0  0  0  0
   11.3918   13.1326   22.2682 N   0  0  0  0  0  0  0  0  0  0  0  0
   10.8273   13.2002   23.6909 C   0  0  0  0  0  0  0  0  0  0  0  0
   10.9182   14.0323   24.5012 O   0  0  0  0  0  0  0  0  0  0  0  0
   10.0234   11.9882   23.9074 C   0  0  0  0  0  0  0  0  0  0  0  0
   10.2802   10.8778   23.1969 N   0  0  0  0  0  0  0  0  0  0  0  0
    9.4192    9.9675   23.6646 N   0  0  0  0  0  0  0  0  0  0  0  0
    9.4467    8.6519   23.0764 C   0  0  0  0  0  0  0  0  0  0  0  0
    8.5695   10.4541   24.6275 C   0  0  0  0  0  0  0  0  0  0  0  0
    7.5311    9.8604   25.3560 C   0  0  0  0  0  0  0  0  0  0  0  0
    6.7995   10.6661   26.2315 C   0  0  0  0  0  0  0  0  0  0  0  0
    7.1181   12.0204   26.3740 C   0  0  0  0  0  0  0  0  0  0  0  0
    6.3501   12.8381   27.3153 N   0  0  0  0  0  0  0  0  0  0  0  0
    5.2233   12.4365   27.6418 O   0  0  0  0  0  0  0  0  0  0  0  0
    6.8988   13.8521   27.7699 O   0  0  0  0  0  0  0  0  0  0  0  0
    8.1818   12.6054   25.6676 C   0  0  0  0  0  0  0  0  0  0  0  0
    8.9203   11.7953   24.7826 C   0  0  0  0  0  0  0  0  0  0  0  0
   10.8414   14.9579   19.4106 C   0  0  0  0  0  0  0  0  0  0  0  0
    9.8689   15.8952   19.2139 O   0  0  0  0  0  0  0  0  0  0  0  0
  1  2  1  0
  2  3  2  0
  3  4  1  0
  4  5  1  0
  5  6  1  0
  6  7  1  0
  7  8  2  0
  7  9  1  0
  9 10  2  0
 10 11  1  0
 11 12  1  0
 11 13  1  0
 13 14  2  0
 14 15  1  0
 15 16  2  0
 16 17  1  0
 17 18  2  0
 17 19  1  0
 16 20  1  0
 20 21  2  0
  4 22  2  0
 22 23  1  0
 23  2  1  0
 21  9  1  0
 21 13  1  0
M  CHG  2  17   1  19  -1
M  END
>  <energy_score>  (3502) 
-34.258949

>  <inchikey>  (3502) 
FIIIUUWZPPLPML-UHFFFAOYSA-N

>  <smiles>  (3502) 
Cc1nc(CNC(=O)c2nn(C)c3ccc([N+](=O)[O-])cc23)co1

>  <ref_pdb>  (3502) 
A0514a

>  <alias>  (3502) 
FIIIUUWZPPLPML-UHFFFAOYSA-N-P126-P126-P177-601502

>  <HIPPO Pose ID>  (3502) 
502836

>  <name>  (3502) 
FIIIUUWZPPLPML-UHFFFAOYSA-N-P126-P126-P177-601502

>  <HIPPO Compound ID>  (3502) 
299236

>  <ref_mols>  (3502) 
A3403a,A2290a

>  <distance_score>  (3502) 
0.775816

>  <inspiration_score>  (3502) 
None

$$$$
FIIIUUWZPPLPML-UHFFFAOYSA-N-P177-P126-P177-601502
     RDKit          3D

 23 25  0  0  0  0  0  0  0  0999 V2000
    8.5625   17.7202   20.4938 C   0  0  0  0  0  0  0  0  0  0  0  0
    9.5705   16.6639   20.3703 C   0  0  0  0  0  0  0  0  0  0  0  0
   10.2461   16.0882   21.3353 N   0  0  0  0  0  0  0  0  0  0  0  0
   11.0232   15.1673   20.6925 C   0  0  0  0  0  0  0  0  0  0  0  0
   11.9611   14.3348   21.4588 C   0  0  0  0  0  0  0  0  0  0  0  0
   11.2002   13.4070   22.2336 N   0  0  0  0  0  0  0  0  0  0  0  0
   10.5596   13.5548   23.6204 C   0  0  0  0  0  0  0  0  0  0  0  0
   10.6133   14.4299   24.3887 O   0  0  0  0  0  0  0  0  0  0  0  0
    9.7263   12.3567   23.8631 C   0  0  0  0  0  0  0  0  0  0  0  0
    9.9017   11.2451   23.1282 N   0  0  0  0  0  0  0  0  0  0  0  0
    9.0499   10.3510   23.6338 N   0  0  0  0  0  0  0  0  0  0  0  0
    9.0605    9.0069   23.1085 C   0  0  0  0  0  0  0  0  0  0  0  0
    8.2462   10.8595   24.6198 C   0  0  0  0  0  0  0  0  0  0  0  0
    7.2043   10.2945   25.3591 C   0  0  0  0  0  0  0  0  0  0  0  0
    6.5769   11.0921   26.3165 C   0  0  0  0  0  0  0  0  0  0  0  0
    6.9930   12.4123   26.5181 C   0  0  0  0  0  0  0  0  0  0  0  0
    6.3451   13.2132   27.5615 N   0  0  0  0  0  0  0  0  0  0  0  0
    5.2657   12.8036   28.0134 O   0  0  0  0  0  0  0  0  0  0  0  0
    6.9417   14.2219   27.9634 O   0  0  0  0  0  0  0  0  0  0  0  0
    8.0415   12.9753   25.7724 C   0  0  0  0  0  0  0  0  0  0  0  0
    8.6753   12.1745   24.8038 C   0  0  0  0  0  0  0  0  0  0  0  0
   10.7636   15.2058   19.3427 C   0  0  0  0  0  0  0  0  0  0  0  0
    9.8163   16.1594   19.1253 O   0  0  0  0  0  0  0  0  0  0  0  0
  1  2  1  0
  2  3  2  0
  3  4  1  0
  4  5  1  0
  5  6  1  0
  6  7  1  0
  7  8  2  0
  7  9  1  0
  9 10  2  0
 10 11  1  0
 11 12  1  0
 11 13  1  0
 13 14  2  0
 14 15  1  0
 15 16  2  0
 16 17  1  0
 17 18  2  0
 17 19  1  0
 16 20  1  0
 20 21  2  0
  4 22  2  0
 22 23  1  0
 23  2  1  0
 21  9  1  0
 21 13  1  0
M  CHG  2  17   1  19  -1
M  END
>  <energy_score>  (3503) 
-35.8337

>  <inchikey>  (3503) 
FIIIUUWZPPLPML-UHFFFAOYSA-N

>  <smiles>  (3503) 
Cc1nc(CNC(=O)c2nn(C)c3ccc([N+](=O)[O-])cc23)co1

>  <ref_pdb>  (3503) 
A0514a

>  <alias>  (3503) 
FIIIUUWZPPLPML-UHFFFAOYSA-N-P177-P126-P177-601502

>  <HIPPO Pose ID>  (3503) 
502837

>  <name>  (3503) 
FIIIUUWZPPLPML-UHFFFAOYSA-N-P177-P126-P177-601502

>  <HIPPO Compound ID>  (3503) 
299236

>  <ref_mols>  (3503) 
A3403a,A2290a

>  <distance_score>  (3503) 
0.63373

>  <inspiration_score>  (3503) 
None

$$$$
VCBSOHZWVMIFIS-UHFFFAOYSA-N-P126-P126-P177-601502
     RDKit          3D

 23 25  0  0  0  0  0  0  0  0999 V2000
    9.4209    8.6891   23.0938 C   0  0  0  0  0  0  0  0  0  0  0  0
    9.3395    9.9772   23.7364 N   0  0  0  0  0  0  0  0  0  0  0  0
   10.1733   10.9395   23.3197 N   0  0  0  0  0  0  0  0  0  0  0  0
    9.8711   11.9998   24.0871 C   0  0  0  0  0  0  0  0  0  0  0  0
   10.6201   13.2511   23.9467 C   0  0  0  0  0  0  0  0  0  0  0  0
   10.6087   14.0736   24.7706 O   0  0  0  0  0  0  0  0  0  0  0  0
   11.2556   13.2490   22.5563 N   0  0  0  0  0  0  0  0  0  0  0  0
   11.9264   14.2795   21.8466 C   0  0  0  0  0  0  0  0  0  0  0  0
   10.9147   14.9430   20.9911 C   0  0  0  0  0  0  0  0  0  0  0  0
    9.8813   15.6586   21.5287 N   0  0  0  0  0  0  0  0  0  0  0  0
    9.3467   16.2826   20.5085 C   0  0  0  0  0  0  0  0  0  0  0  0
    9.8408   15.9125   19.3008 O   0  0  0  0  0  0  0  0  0  0  0  0
   10.8448   15.0394   19.6235 C   0  0  0  0  0  0  0  0  0  0  0  0
   11.6985   14.5332   18.5569 C   0  0  0  0  0  0  0  0  0  0  0  0
   11.1273   13.4929   17.9216 F   0  0  0  0  0  0  0  0  0  0  0  0
   12.8464   14.0229   19.0835 F   0  0  0  0  0  0  0  0  0  0  0  0
    8.7715   11.7320   24.9382 C   0  0  0  0  0  0  0  0  0  0  0  0
    8.0054   12.4753   25.8570 C   0  0  0  0  0  0  0  0  0  0  0  0
    6.9719   11.8329   26.5413 C   0  0  0  0  0  0  0  0  0  0  0  0
    5.9417   12.8045   27.7950 Br  0  0  0  0  0  0  0  0  0  0  0  0
    6.6989   10.4850   26.3309 C   0  0  0  0  0  0  0  0  0  0  0  0
    7.4465    9.7424   25.4127 C   0  0  0  0  0  0  0  0  0  0  0  0
    8.4682   10.3919   24.7143 C   0  0  0  0  0  0  0  0  0  0  0  0
  1  2  1  0
  2  3  1  0
  3  4  2  0
  4  5  1  0
  5  6  2  0
  5  7  1  0
  7  8  1  0
  8  9  1  0
  9 10  1  0
 10 11  2  0
 11 12  1  0
 12 13  1  0
 13 14  1  0
 14 15  1  0
 14 16  1  0
  4 17  1  0
 17 18  2  0
 18 19  1  0
 19 20  1  0
 19 21  2  0
 21 22  1  0
 22 23  2  0
 23  2  1  0
 13  9  2  0
 23 17  1  0
M  END
>  <energy_score>  (3504) 
-8.357078

>  <inchikey>  (3504) 
VCBSOHZWVMIFIS-UHFFFAOYSA-N

>  <smiles>  (3504) 
Cn1nc(C(=O)NCc2ncoc2C(F)F)c2cc(Br)ccc21

>  <ref_pdb>  (3504) 
A0514a

>  <alias>  (3504) 
VCBSOHZWVMIFIS-UHFFFAOYSA-N-P126-P126-P177-601502

>  <HIPPO Pose ID>  (3504) 
502840

>  <name>  (3504) 
VCBSOHZWVMIFIS-UHFFFAOYSA-N-P126-P126-P177-601502

>  <HIPPO Compound ID>  (3504) 
299238

>  <ref_mols>  (3504) 
A3403a,A2290a

>  <distance_score>  (3504) 
0.85959

>  <inspiration_score>  (3504) 
None

$$$$
VCBSOHZWVMIFIS-UHFFFAOYSA-N-P177-P126-P177-601502
     RDKit          3D

 23 25  0  0  0  0  0  0  0  0999 V2000
    9.0619    9.0208   23.1154 C   0  0  0  0  0  0  0  0  0  0  0  0
    9.0096   10.3397   23.7007 N   0  0  0  0  0  0  0  0  0  0  0  0
    9.8505   11.2787   23.2536 N   0  0  0  0  0  0  0  0  0  0  0  0
    9.6073   12.3543   24.0225 C   0  0  0  0  0  0  0  0  0  0  0  0
   10.3751   13.5948   23.8390 C   0  0  0  0  0  0  0  0  0  0  0  0
   10.3767   14.4445   24.6352 O   0  0  0  0  0  0  0  0  0  0  0  0
   11.0264   13.5292   22.4565 N   0  0  0  0  0  0  0  0  0  0  0  0
   11.7320   14.5159   21.7223 C   0  0  0  0  0  0  0  0  0  0  0  0
   10.7562   15.2956   20.9346 C   0  0  0  0  0  0  0  0  0  0  0  0
    9.7986   16.0802   21.5251 N   0  0  0  0  0  0  0  0  0  0  0  0
    9.2238   16.6978   20.5221 C   0  0  0  0  0  0  0  0  0  0  0  0
    9.6805   16.3309   19.2910 O   0  0  0  0  0  0  0  0  0  0  0  0
   10.6626   15.4213   19.5710 C   0  0  0  0  0  0  0  0  0  0  0  0
   11.4383   14.8451   18.4750 C   0  0  0  0  0  0  0  0  0  0  0  0
   10.8419   13.7261   18.0042 F   0  0  0  0  0  0  0  0  0  0  0  0
   12.6490   14.4253   18.9274 F   0  0  0  0  0  0  0  0  0  0  0  0
    8.5545   12.1052   24.9354 C   0  0  0  0  0  0  0  0  0  0  0  0
    7.8796   12.8519   25.9186 C   0  0  0  0  0  0  0  0  0  0  0  0
    6.8514   12.2374   26.6347 C   0  0  0  0  0  0  0  0  0  0  0  0
    5.9498   13.2078   27.9847 Br  0  0  0  0  0  0  0  0  0  0  0  0
    6.4892   10.9182   26.3854 C   0  0  0  0  0  0  0  0  0  0  0  0
    7.1487   10.1721   25.4064 C   0  0  0  0  0  0  0  0  0  0  0  0
    8.1782   10.7864   24.6953 C   0  0  0  0  0  0  0  0  0  0  0  0
  1  2  1  0
  2  3  1  0
  3  4  2  0
  4  5  1  0
  5  6  2  0
  5  7  1  0
  7  8  1  0
  8  9  1  0
  9 10  1  0
 10 11  2  0
 11 12  1  0
 12 13  1  0
 13 14  1  0
 14 15  1  0
 14 16  1  0
  4 17  1  0
 17 18  2  0
 18 19  1  0
 19 20  1  0
 19 21  2  0
 21 22  1  0
 22 23  2  0
 23  2  1  0
 13  9  2  0
 23 17  1  0
M  END
>  <energy_score>  (3505) 
-10.227847

>  <inchikey>  (3505) 
VCBSOHZWVMIFIS-UHFFFAOYSA-N

>  <smiles>  (3505) 
Cn1nc(C(=O)NCc2ncoc2C(F)F)c2cc(Br)ccc21

>  <ref_pdb>  (3505) 
A0514a

>  <alias>  (3505) 
VCBSOHZWVMIFIS-UHFFFAOYSA-N-P177-P126-P177-601502

>  <HIPPO Pose ID>  (3505) 
502841

>  <name>  (3505) 
VCBSOHZWVMIFIS-UHFFFAOYSA-N-P177-P126-P177-601502

>  <HIPPO Compound ID>  (3505) 
299238

>  <ref_mols>  (3505) 
A3403a,A2290a

>  <distance_score>  (3505) 
0.784289

>  <inspiration_score>  (3505) 
None

$$$$
SYQCMTRMXAKCPE-UHFFFAOYSA-N-P126-P126-P177-601502
     RDKit          3D

 23 25  0  0  0  0  0  0  0  0999 V2000
    8.1617   18.7036   19.8675 C   0  0  0  0  0  0  0  0  0  0  0  0
    8.8971   17.5839   20.3574 N   0  0  0  0  0  0  0  0  0  0  0  0
    9.5012   16.3918   19.6164 C   0  0  0  0  0  0  0  0  0  0  0  0
    9.4332   16.0887   18.5011 O   0  0  0  0  0  0  0  0  0  0  0  0
   10.1680   15.5169   20.5682 C   0  0  0  0  0  0  0  0  0  0  0  0
   11.1868   15.8412   21.4284 C   0  0  0  0  0  0  0  0  0  0  0  0
   11.3866   14.8523   22.3003 O   0  0  0  0  0  0  0  0  0  0  0  0
   10.4959   13.9500   21.8863 C   0  0  0  0  0  0  0  0  0  0  0  0
   10.2487   12.9751   22.7246 N   0  0  0  0  0  0  0  0  0  0  0  0
   10.3985   12.9090   24.2335 C   0  0  0  0  0  0  0  0  0  0  0  0
   10.8388   13.6804   24.9828 O   0  0  0  0  0  0  0  0  0  0  0  0
    9.7592   11.6648   24.5404 C   0  0  0  0  0  0  0  0  0  0  0  0
   10.0356   10.6266   23.7458 N   0  0  0  0  0  0  0  0  0  0  0  0
    9.1130    9.7225   24.0502 N   0  0  0  0  0  0  0  0  0  0  0  0
    9.1424    8.5236   23.2580 C   0  0  0  0  0  0  0  0  0  0  0  0
    8.2171   10.1669   24.9966 C   0  0  0  0  0  0  0  0  0  0  0  0
    7.0803    9.6129   25.5802 C   0  0  0  0  0  0  0  0  0  0  0  0
    6.3334   10.3891   26.4724 C   0  0  0  0  0  0  0  0  0  0  0  0
    6.7005   11.6986   26.7546 C   0  0  0  0  0  0  0  0  0  0  0  0
    5.6502   12.7270   27.9426 Br  0  0  0  0  0  0  0  0  0  0  0  0
    7.8356   12.2608   26.1776 C   0  0  0  0  0  0  0  0  0  0  0  0
    8.6147   11.4622   25.3206 C   0  0  0  0  0  0  0  0  0  0  0  0
    9.7818   14.2305   20.8293 N   0  0  0  0  0  0  0  0  0  0  0  0
  1  2  1  0
  2  3  1  0
  3  4  2  0
  3  5  1  0
  5  6  2  0
  6  7  1  0
  7  8  1  0
  8  9  1  0
  9 10  1  0
 10 11  2  0
 10 12  1  0
 12 13  2  0
 13 14  1  0
 14 15  1  0
 14 16  1  0
 16 17  2  0
 17 18  1  0
 18 19  2  0
 19 20  1  0
 19 21  1  0
 21 22  2  0
  8 23  2  0
 23  5  1  0
 22 12  1  0
 22 16  1  0
M  END
>  <energy_score>  (3506) 
-5.794926

>  <inchikey>  (3506) 
SYQCMTRMXAKCPE-UHFFFAOYSA-N

>  <smiles>  (3506) 
CNC(=O)c1coc(NC(=O)c2nn(C)c3ccc(Br)cc23)n1

>  <ref_pdb>  (3506) 
A0514a

>  <alias>  (3506) 
SYQCMTRMXAKCPE-UHFFFAOYSA-N-P126-P126-P177-601502

>  <HIPPO Pose ID>  (3506) 
502846

>  <name>  (3506) 
SYQCMTRMXAKCPE-UHFFFAOYSA-N-P126-P126-P177-601502

>  <HIPPO Compound ID>  (3506) 
299241

>  <ref_mols>  (3506) 
A3403a,A2290a

>  <distance_score>  (3506) 
1.343532

>  <inspiration_score>  (3506) 
None

$$$$
ODPRAGXNJWDPJF-UHFFFAOYSA-N-P126-P126-P177-601502
     RDKit          3D

 23 25  0  0  0  0  0  0  0  0999 V2000
   11.7210   14.4537   18.5668 C   0  0  0  0  0  0  0  0  0  0  0  0
   10.8843   15.0152   19.6190 C   0  0  0  0  0  0  0  0  0  0  0  0
    9.8726   15.8557   19.2506 O   0  0  0  0  0  0  0  0  0  0  0  0
    9.3852   16.2998   20.4355 C   0  0  0  0  0  0  0  0  0  0  0  0
    9.9251   15.7396   21.4893 N   0  0  0  0  0  0  0  0  0  0  0  0
   10.9599   15.0022   20.9882 C   0  0  0  0  0  0  0  0  0  0  0  0
   11.9779   14.3976   21.8704 C   0  0  0  0  0  0  0  0  0  0  0  0
   11.3288   13.3452   22.5661 N   0  0  0  0  0  0  0  0  0  0  0  0
   10.7494   13.2974   23.9809 C   0  0  0  0  0  0  0  0  0  0  0  0
   10.7774   14.0876   24.8356 O   0  0  0  0  0  0  0  0  0  0  0  0
   10.0285   12.0292   24.1007 C   0  0  0  0  0  0  0  0  0  0  0  0
   10.4033   10.9867   23.3461 N   0  0  0  0  0  0  0  0  0  0  0  0
    9.5469    9.9898   23.6744 N   0  0  0  0  0  0  0  0  0  0  0  0
    9.6049    8.7208   22.9351 C   0  0  0  0  0  0  0  0  0  0  0  0
    8.3855    8.1562   22.8412 F   0  0  0  0  0  0  0  0  0  0  0  0
   10.4277    7.8122   23.5049 F   0  0  0  0  0  0  0  0  0  0  0  0
   10.0628    8.9060   21.6741 F   0  0  0  0  0  0  0  0  0  0  0  0
    8.6402   10.3758   24.6446 C   0  0  0  0  0  0  0  0  0  0  0  0
    7.6038    9.7010   25.2985 C   0  0  0  0  0  0  0  0  0  0  0  0
    6.8081   10.4173   26.1981 C   0  0  0  0  0  0  0  0  0  0  0  0
    7.0386   11.7677   26.4393 C   0  0  0  0  0  0  0  0  0  0  0  0
    8.0880   12.4316   25.7996 C   0  0  0  0  0  0  0  0  0  0  0  0
    8.9082   11.7190   24.9041 C   0  0  0  0  0  0  0  0  0  0  0  0
  1  2  1  0
  2  3  1  0
  3  4  1  0
  4  5  2  0
  5  6  1  0
  6  7  1  0
  7  8  1  0
  8  9  1  0
  9 10  2  0
  9 11  1  0
 11 12  2  0
 12 13  1  0
 13 14  1  0
 14 15  1  0
 14 16  1  0
 14 17  1  0
 13 18  1  0
 18 19  2  0
 19 20  1  0
 20 21  2  0
 21 22  1  0
 22 23  2  0
  6  2  2  0
 23 11  1  0
 23 18  1  0
M  END
>  <energy_score>  (3507) 
-8.366427

>  <inchikey>  (3507) 
ODPRAGXNJWDPJF-UHFFFAOYSA-N

>  <smiles>  (3507) 
Cc1ocnc1CNC(=O)c1nn(C(F)(F)F)c2ccccc12

>  <ref_pdb>  (3507) 
A0514a

>  <alias>  (3507) 
ODPRAGXNJWDPJF-UHFFFAOYSA-N-P126-P126-P177-601502

>  <HIPPO Pose ID>  (3507) 
502850

>  <name>  (3507) 
ODPRAGXNJWDPJF-UHFFFAOYSA-N-P126-P126-P177-601502

>  <HIPPO Compound ID>  (3507) 
299243

>  <ref_mols>  (3507) 
A3403a,A2290a

>  <distance_score>  (3507) 
0.788931

>  <inspiration_score>  (3507) 
None

$$$$
ODPRAGXNJWDPJF-UHFFFAOYSA-N-P177-P126-P177-601502
     RDKit          3D

 23 25  0  0  0  0  0  0  0  0999 V2000
   11.4342   14.8005   18.4042 C   0  0  0  0  0  0  0  0  0  0  0  0
   10.6966   15.3965   19.5158 C   0  0  0  0  0  0  0  0  0  0  0  0
    9.7094   16.2946   19.2331 O   0  0  0  0  0  0  0  0  0  0  0  0
    9.2786   16.6961   20.4623 C   0  0  0  0  0  0  0  0  0  0  0  0
    9.8702   16.1031   21.4708 N   0  0  0  0  0  0  0  0  0  0  0  0
   10.8120   15.3006   20.8793 C   0  0  0  0  0  0  0  0  0  0  0  0
   11.7801   14.5138   21.6629 C   0  0  0  0  0  0  0  0  0  0  0  0
   11.0474   13.5501   22.4028 N   0  0  0  0  0  0  0  0  0  0  0  0
   10.4449   13.6225   23.8058 C   0  0  0  0  0  0  0  0  0  0  0  0
   10.5157   14.4554   24.6161 O   0  0  0  0  0  0  0  0  0  0  0  0
    9.6612   12.3961   24.0153 C   0  0  0  0  0  0  0  0  0  0  0  0
    9.9175   11.2866   23.3010 N   0  0  0  0  0  0  0  0  0  0  0  0
    9.0977   10.3437   23.8209 N   0  0  0  0  0  0  0  0  0  0  0  0
    9.2902    8.9216   23.5135 C   0  0  0  0  0  0  0  0  0  0  0  0
    8.7288    8.5605   22.3422 F   0  0  0  0  0  0  0  0  0  0  0  0
    8.7169    8.1612   24.4744 F   0  0  0  0  0  0  0  0  0  0  0  0
   10.5917    8.5535   23.4737 F   0  0  0  0  0  0  0  0  0  0  0  0
    8.2056   10.8683   24.7368 C   0  0  0  0  0  0  0  0  0  0  0  0
    7.1400   10.3089   25.4501 C   0  0  0  0  0  0  0  0  0  0  0  0
    6.4659   11.1151   26.3692 C   0  0  0  0  0  0  0  0  0  0  0  0
    6.8353   12.4411   26.5631 C   0  0  0  0  0  0  0  0  0  0  0  0
    7.8928   12.9961   25.8389 C   0  0  0  0  0  0  0  0  0  0  0  0
    8.5864   12.1955   24.9134 C   0  0  0  0  0  0  0  0  0  0  0  0
  1  2  1  0
  2  3  1  0
  3  4  1  0
  4  5  2  0
  5  6  1  0
  6  7  1  0
  7  8  1  0
  8  9  1  0
  9 10  2  0
  9 11  1  0
 11 12  2  0
 12 13  1  0
 13 14  1  0
 14 15  1  0
 14 16  1  0
 14 17  1  0
 13 18  1  0
 18 19  2  0
 19 20  1  0
 20 21  2  0
 21 22  1  0
 22 23  2  0
  6  2  2  0
 23 11  1  0
 23 18  1  0
M  END
>  <energy_score>  (3508) 
-9.605297

>  <inchikey>  (3508) 
ODPRAGXNJWDPJF-UHFFFAOYSA-N

>  <smiles>  (3508) 
Cc1ocnc1CNC(=O)c1nn(C(F)(F)F)c2ccccc12

>  <ref_pdb>  (3508) 
A0514a

>  <alias>  (3508) 
ODPRAGXNJWDPJF-UHFFFAOYSA-N-P177-P126-P177-601502

>  <HIPPO Pose ID>  (3508) 
502851

>  <name>  (3508) 
ODPRAGXNJWDPJF-UHFFFAOYSA-N-P177-P126-P177-601502

>  <HIPPO Compound ID>  (3508) 
299243

>  <ref_mols>  (3508) 
A3403a,A2290a

>  <distance_score>  (3508) 
0.758479

>  <inspiration_score>  (3508) 
None

$$$$
FJSZRKDVANFOSZ-UHFFFAOYSA-N-P177-P126-P177-601502
     RDKit          3D

 23 26  0  0  0  0  0  0  0  0999 V2000
    9.1867    9.1796   23.0875 C   0  0  0  0  0  0  0  0  0  0  0  0
    9.0095   10.4558   23.7444 N   0  0  0  0  0  0  0  0  0  0  0  0
    9.7832   11.4984   23.3923 N   0  0  0  0  0  0  0  0  0  0  0  0
    9.4244   12.4764   24.2453 C   0  0  0  0  0  0  0  0  0  0  0  0
   10.0557   13.7954   24.2309 C   0  0  0  0  0  0  0  0  0  0  0  0
   10.0781   14.4710   25.1765 O   0  0  0  0  0  0  0  0  0  0  0  0
   10.5793   14.0477   22.8249 N   0  0  0  0  0  0  0  0  0  0  0  0
   11.1538   15.2055   22.2519 C   0  0  0  0  0  0  0  0  0  0  0  0
   10.2662   15.7816   21.2272 C   0  0  0  0  0  0  0  0  0  0  0  0
    9.3400   16.7433   21.5262 N   0  0  0  0  0  0  0  0  0  0  0  0
    8.9268   17.1753   20.3637 C   0  0  0  0  0  0  0  0  0  0  0  0
    9.4261   16.4918   19.3006 O   0  0  0  0  0  0  0  0  0  0  0  0
   10.2342   15.5660   19.8763 C   0  0  0  0  0  0  0  0  0  0  0  0
   10.9995   14.4955   19.1463 C   0  0  0  0  0  0  0  0  0  0  0  0
   11.9271   14.8567   18.0623 C   0  0  0  0  0  0  0  0  0  0  0  0
   12.4531   14.3398   19.3715 C   0  0  0  0  0  0  0  0  0  0  0  0
    8.3749   12.0761   25.0970 C   0  0  0  0  0  0  0  0  0  0  0  0
    7.6170   12.6968   26.1071 C   0  0  0  0  0  0  0  0  0  0  0  0
    6.6221   11.9569   26.7405 C   0  0  0  0  0  0  0  0  0  0  0  0
    5.6030   12.7486   28.1216 Br  0  0  0  0  0  0  0  0  0  0  0  0
    6.3819   10.6362   26.3855 C   0  0  0  0  0  0  0  0  0  0  0  0
    7.1297   10.0193   25.3793 C   0  0  0  0  0  0  0  0  0  0  0  0
    8.1190   10.7597   24.7435 C   0  0  0  0  0  0  0  0  0  0  0  0
  1  2  1  0
  2  3  1  0
  3  4  2  0
  4  5  1  0
  5  6  2  0
  5  7  1  0
  7  8  1  0
  8  9  1  0
  9 10  1  0
 10 11  2  0
 11 12  1  0
 12 13  1  0
 13 14  1  0
 14 15  1  0
 15 16  1  0
  4 17  1  0
 17 18  2  0
 18 19  1  0
 19 20  1  0
 19 21  2  0
 21 22  1  0
 22 23  2  0
 23  2  1  0
 13  9  2  0
 16 14  1  0
 23 17  1  0
M  END
>  <energy_score>  (3509) 
-8.591305

>  <inchikey>  (3509) 
FJSZRKDVANFOSZ-UHFFFAOYSA-N

>  <smiles>  (3509) 
Cn1nc(C(=O)NCc2ncoc2C2CC2)c2cc(Br)ccc21

>  <ref_pdb>  (3509) 
A0514a

>  <alias>  (3509) 
FJSZRKDVANFOSZ-UHFFFAOYSA-N-P177-P126-P177-601502

>  <HIPPO Pose ID>  (3509) 
502857

>  <name>  (3509) 
FJSZRKDVANFOSZ-UHFFFAOYSA-N-P177-P126-P177-601502

>  <HIPPO Compound ID>  (3509) 
299246

>  <ref_mols>  (3509) 
A3403a,A2290a

>  <distance_score>  (3509) 
1.01683

>  <inspiration_score>  (3509) 
None

$$$$
MWOFLXQHSGYWOA-UHFFFAOYSA-N-P126-P126-P177-601502
     RDKit          3D

 23 25  0  0  0  0  0  0  0  0999 V2000
   11.8561   14.5857   18.3712 C   0  0  0  0  0  0  0  0  0  0  0  0
   10.7678   14.3555   19.2152 O   0  0  0  0  0  0  0  0  0  0  0  0
    9.6273   15.1318   18.9327 C   0  0  0  0  0  0  0  0  0  0  0  0
    9.6668   16.3184   19.6845 C   0  0  0  0  0  0  0  0  0  0  0  0
    8.9437   17.3685   19.2422 O   0  0  0  0  0  0  0  0  0  0  0  0
    8.6556   18.0034   20.3968 C   0  0  0  0  0  0  0  0  0  0  0  0
    9.2320   17.4646   21.4407 N   0  0  0  0  0  0  0  0  0  0  0  0
    9.9735   16.3875   21.0014 C   0  0  0  0  0  0  0  0  0  0  0  0
   10.9214   15.4596   21.7539 C   0  0  0  0  0  0  0  0  0  0  0  0
   10.3460   14.2437   22.2832 N   0  0  0  0  0  0  0  0  0  0  0  0
   10.2548   13.7272   23.7326 C   0  0  0  0  0  0  0  0  0  0  0  0
   10.5606   14.2360   24.7380 O   0  0  0  0  0  0  0  0  0  0  0  0
    9.6426   12.3862   23.7981 C   0  0  0  0  0  0  0  0  0  0  0  0
   10.0304   11.3639   23.0177 N   0  0  0  0  0  0  0  0  0  0  0  0
    9.4056   10.2883   23.5410 N   0  0  0  0  0  0  0  0  0  0  0  0
    9.7019    8.9722   23.0205 C   0  0  0  0  0  0  0  0  0  0  0  0
    8.5278   10.5983   24.5507 C   0  0  0  0  0  0  0  0  0  0  0  0
    7.6511    9.8191   25.3146 C   0  0  0  0  0  0  0  0  0  0  0  0
    6.8754   10.4652   26.2808 C   0  0  0  0  0  0  0  0  0  0  0  0
    6.9971   11.8370   26.4857 C   0  0  0  0  0  0  0  0  0  0  0  0
    5.9473   12.6697   27.8202 Br  0  0  0  0  0  0  0  0  0  0  0  0
    7.8899   12.6056   25.7347 C   0  0  0  0  0  0  0  0  0  0  0  0
    8.6606   11.9692   24.7418 C   0  0  0  0  0  0  0  0  0  0  0  0
  1  2  1  0
  2  3  1  0
  3  4  1  0
  4  5  1  0
  5  6  1  0
  6  7  2  0
  7  8  1  0
  8  9  1  0
  9 10  1  0
 10 11  1  0
 11 12  2  0
 11 13  1  0
 13 14  2  0
 14 15  1  0
 15 16  1  0
 15 17  1  0
 17 18  2  0
 18 19  1  0
 19 20  2  0
 20 21  1  0
 20 22  1  0
 22 23  2  0
  8  4  2  0
 23 13  1  0
 23 17  1  0
M  END
>  <energy_score>  (3510) 
-14.88096

>  <inchikey>  (3510) 
MWOFLXQHSGYWOA-UHFFFAOYSA-N

>  <smiles>  (3510) 
COCc1ocnc1CNC(=O)c1nn(C)c2ccc(Br)cc12

>  <ref_pdb>  (3510) 
A0514a

>  <alias>  (3510) 
MWOFLXQHSGYWOA-UHFFFAOYSA-N-P126-P126-P177-601502

>  <HIPPO Pose ID>  (3510) 
502858

>  <name>  (3510) 
MWOFLXQHSGYWOA-UHFFFAOYSA-N-P126-P126-P177-601502

>  <HIPPO Compound ID>  (3510) 
299247

>  <ref_mols>  (3510) 
A3403a,A2290a

>  <distance_score>  (3510) 
1.092708

>  <inspiration_score>  (3510) 
None

$$$$
MWOFLXQHSGYWOA-UHFFFAOYSA-N-P177-P126-P177-601502
     RDKit          3D

 23 25  0  0  0  0  0  0  0  0999 V2000
   12.4252   13.7944   19.6479 C   0  0  0  0  0  0  0  0  0  0  0  0
   11.2703   13.8805   18.8643 O   0  0  0  0  0  0  0  0  0  0  0  0
   10.8364   15.1951   18.6278 C   0  0  0  0  0  0  0  0  0  0  0  0
   10.2035   15.8366   19.7813 C   0  0  0  0  0  0  0  0  0  0  0  0
    9.3142   16.8120   19.4018 O   0  0  0  0  0  0  0  0  0  0  0  0
    8.7761   17.2552   20.5570 C   0  0  0  0  0  0  0  0  0  0  0  0
    9.2151   16.6382   21.6164 N   0  0  0  0  0  0  0  0  0  0  0  0
   10.2459   15.8521   21.1583 C   0  0  0  0  0  0  0  0  0  0  0  0
   11.1769   15.2935   22.1549 C   0  0  0  0  0  0  0  0  0  0  0  0
   10.6410   14.1047   22.7216 N   0  0  0  0  0  0  0  0  0  0  0  0
   10.1758   13.8062   24.1437 C   0  0  0  0  0  0  0  0  0  0  0  0
   10.2247   14.4580   25.1061 O   0  0  0  0  0  0  0  0  0  0  0  0
    9.5221   12.4922   24.1597 C   0  0  0  0  0  0  0  0  0  0  0  0
    9.8621   11.5010   23.3161 N   0  0  0  0  0  0  0  0  0  0  0  0
    9.0856   10.4675   23.6878 N   0  0  0  0  0  0  0  0  0  0  0  0
    9.2612    9.1776   23.0584 C   0  0  0  0  0  0  0  0  0  0  0  0
    8.1944   10.7879   24.6804 C   0  0  0  0  0  0  0  0  0  0  0  0
    7.2004   10.0568   25.3249 C   0  0  0  0  0  0  0  0  0  0  0  0
    6.4580   10.6906   26.3241 C   0  0  0  0  0  0  0  0  0  0  0  0
    6.7098   12.0145   26.6636 C   0  0  0  0  0  0  0  0  0  0  0  0
    5.6976   12.8275   28.0377 Br  0  0  0  0  0  0  0  0  0  0  0  0
    7.7100   12.7418   26.0216 C   0  0  0  0  0  0  0  0  0  0  0  0
    8.4637   12.1074   25.0164 C   0  0  0  0  0  0  0  0  0  0  0  0
  1  2  1  0
  2  3  1  0
  3  4  1  0
  4  5  1  0
  5  6  1  0
  6  7  2  0
  7  8  1  0
  8  9  1  0
  9 10  1  0
 10 11  1  0
 11 12  2  0
 11 13  1  0
 13 14  2  0
 14 15  1  0
 15 16  1  0
 15 17  1  0
 17 18  2  0
 18 19  1  0
 19 20  2  0
 20 21  1  0
 20 22  1  0
 22 23  2  0
  8  4  2  0
 23 13  1  0
 23 17  1  0
M  END
>  <energy_score>  (3511) 
-31.478263

>  <inchikey>  (3511) 
MWOFLXQHSGYWOA-UHFFFAOYSA-N

>  <smiles>  (3511) 
COCc1ocnc1CNC(=O)c1nn(C)c2ccc(Br)cc12

>  <ref_pdb>  (3511) 
A0514a

>  <alias>  (3511) 
MWOFLXQHSGYWOA-UHFFFAOYSA-N-P177-P126-P177-601502

>  <HIPPO Pose ID>  (3511) 
502859

>  <name>  (3511) 
MWOFLXQHSGYWOA-UHFFFAOYSA-N-P177-P126-P177-601502

>  <HIPPO Compound ID>  (3511) 
299247

>  <ref_mols>  (3511) 
A3403a,A2290a

>  <distance_score>  (3511) 
1.008465

>  <inspiration_score>  (3511) 
None

$$$$
QPOBGXFDFNURGY-UHFFFAOYSA-N-P126-P126-P177-601502
     RDKit          3D

 23 25  0  0  0  0  0  0  0  0999 V2000
    8.5359   18.0169   19.8342 C   0  0  0  0  0  0  0  0  0  0  0  0
    9.2774   16.7540   20.0764 C   0  0  0  0  0  0  0  0  0  0  0  0
    9.5532   16.1657   21.2151 N   0  0  0  0  0  0  0  0  0  0  0  0
   10.5425   15.2553   20.9220 C   0  0  0  0  0  0  0  0  0  0  0  0
   11.3878   14.7304   22.0265 C   0  0  2  0  0  0  0  0  0  0  0  0
   12.8126   14.3967   21.6936 C   0  0  0  0  0  0  0  0  0  0  0  0
   10.7789   13.6022   22.6436 N   0  0  0  0  0  0  0  0  0  0  0  0
   10.2251   13.4215   24.0536 C   0  0  0  0  0  0  0  0  0  0  0  0
   10.2433   14.1389   24.9693 O   0  0  0  0  0  0  0  0  0  0  0  0
    9.6030   12.1041   24.1298 C   0  0  0  0  0  0  0  0  0  0  0  0
    9.9945   11.1014   23.3255 N   0  0  0  0  0  0  0  0  0  0  0  0
    9.2685   10.0494   23.7372 N   0  0  0  0  0  0  0  0  0  0  0  0
    9.4734    8.7774   23.0852 C   0  0  0  0  0  0  0  0  0  0  0  0
    8.3738   10.3631   24.7330 C   0  0  0  0  0  0  0  0  0  0  0  0
    7.4208    9.6145   25.4232 C   0  0  0  0  0  0  0  0  0  0  0  0
    6.6278   10.2621   26.3752 C   0  0  0  0  0  0  0  0  0  0  0  0
    6.7941   11.6187   26.6314 C   0  0  0  0  0  0  0  0  0  0  0  0
    5.7070   12.4590   27.9299 Br  0  0  0  0  0  0  0  0  0  0  0  0
    7.7595   12.3633   25.9555 C   0  0  0  0  0  0  0  0  0  0  0  0
    8.5596   11.7144   24.9956 C   0  0  0  0  0  0  0  0  0  0  0  0
   10.6678   15.1794   19.5523 C   0  0  0  0  0  0  0  0  0  0  0  0
   11.5919   14.5110   18.6298 C   0  0  0  0  0  0  0  0  0  0  0  0
    9.8450   16.1330   19.0022 O   0  0  0  0  0  0  0  0  0  0  0  0
  1  2  1  0
  2  3  2  0
  3  4  1  0
  4  5  1  0
  5  6  1  6
  5  7  1  0
  7  8  1  0
  8  9  2  0
  8 10  1  0
 10 11  2  0
 11 12  1  0
 12 13  1  0
 12 14  1  0
 14 15  2  0
 15 16  1  0
 16 17  2  0
 17 18  1  0
 17 19  1  0
 19 20  2  0
  4 21  2  0
 21 22  1  0
 21 23  1  0
 23  2  1  0
 20 10  1  0
 20 14  1  0
M  END
>  <energy_score>  (3512) 
-8.04812

>  <inchikey>  (3512) 
QPOBGXFDFNURGY-UHFFFAOYSA-N

>  <smiles>  (3512) 
Cc1nc(C(C)NC(=O)c2nn(C)c3ccc(Br)cc23)c(C)o1

>  <ref_pdb>  (3512) 
A0514a

>  <alias>  (3512) 
QPOBGXFDFNURGY-UHFFFAOYSA-N-P126-P126-P177-601502

>  <HIPPO Pose ID>  (3512) 
502860

>  <name>  (3512) 
QPOBGXFDFNURGY-UHFFFAOYSA-N-P126-P126-P177-601502

>  <HIPPO Compound ID>  (3512) 
299248

>  <ref_mols>  (3512) 
A3403a,A2290a

>  <distance_score>  (3512) 
0.800936

>  <inspiration_score>  (3512) 
None

$$$$
QPOBGXFDFNURGY-UHFFFAOYSA-N-P177-P126-P177-601502
     RDKit          3D

 23 25  0  0  0  0  0  0  0  0999 V2000
    8.2789   18.4130   19.8478 C   0  0  0  0  0  0  0  0  0  0  0  0
    9.0750   17.1919   20.0889 C   0  0  0  0  0  0  0  0  0  0  0  0
    9.3914   16.6428   21.2329 N   0  0  0  0  0  0  0  0  0  0  0  0
   10.3179   15.6806   20.9141 C   0  0  0  0  0  0  0  0  0  0  0  0
   11.0883   15.0831   22.0164 C   0  0  2  0  0  0  0  0  0  0  0  0
   12.4593   14.6024   21.6692 C   0  0  0  0  0  0  0  0  0  0  0  0
   10.3687   14.0184   22.6188 N   0  0  0  0  0  0  0  0  0  0  0  0
    9.9409   13.8060   24.0640 C   0  0  0  0  0  0  0  0  0  0  0  0
   10.0386   14.5026   24.9899 O   0  0  0  0  0  0  0  0  0  0  0  0
    9.3347   12.4800   24.1536 C   0  0  0  0  0  0  0  0  0  0  0  0
    9.6903   11.4818   23.3236 N   0  0  0  0  0  0  0  0  0  0  0  0
    8.9559   10.4355   23.7316 N   0  0  0  0  0  0  0  0  0  0  0  0
    9.1421    9.1482   23.1004 C   0  0  0  0  0  0  0  0  0  0  0  0
    8.0826   10.7540   24.7414 C   0  0  0  0  0  0  0  0  0  0  0  0
    7.1166   10.0185   25.4172 C   0  0  0  0  0  0  0  0  0  0  0  0
    6.3845   10.6521   26.4247 C   0  0  0  0  0  0  0  0  0  0  0  0
    6.6199   11.9834   26.7438 C   0  0  0  0  0  0  0  0  0  0  0  0
    5.6243   12.7961   28.1298 Br  0  0  0  0  0  0  0  0  0  0  0  0
    7.5896   12.7199   26.0686 C   0  0  0  0  0  0  0  0  0  0  0  0
    8.3267   12.0842   25.0533 C   0  0  0  0  0  0  0  0  0  0  0  0
   10.4267   15.5890   19.5435 C   0  0  0  0  0  0  0  0  0  0  0  0
   11.2656   14.8497   18.5890 C   0  0  0  0  0  0  0  0  0  0  0  0
    9.6075   16.5461   19.0087 O   0  0  0  0  0  0  0  0  0  0  0  0
  1  2  1  0
  2  3  2  0
  3  4  1  0
  4  5  1  0
  5  6  1  6
  5  7  1  0
  7  8  1  0
  8  9  2  0
  8 10  1  0
 10 11  2  0
 11 12  1  0
 12 13  1  0
 12 14  1  0
 14 15  2  0
 15 16  1  0
 16 17  2  0
 17 18  1  0
 17 19  1  0
 19 20  2  0
  4 21  2  0
 21 22  1  0
 21 23  1  0
 23  2  1  0
 20 10  1  0
 20 14  1  0
M  END
>  <energy_score>  (3513) 
-10.047203

>  <inchikey>  (3513) 
QPOBGXFDFNURGY-UHFFFAOYSA-N

>  <smiles>  (3513) 
Cc1nc(C(C)NC(=O)c2nn(C)c3ccc(Br)cc23)c(C)o1

>  <ref_pdb>  (3513) 
A0514a

>  <alias>  (3513) 
QPOBGXFDFNURGY-UHFFFAOYSA-N-P177-P126-P177-601502

>  <HIPPO Pose ID>  (3513) 
502861

>  <name>  (3513) 
QPOBGXFDFNURGY-UHFFFAOYSA-N-P177-P126-P177-601502

>  <HIPPO Compound ID>  (3513) 
299248

>  <ref_mols>  (3513) 
A3403a,A2290a

>  <distance_score>  (3513) 
0.950172

>  <inspiration_score>  (3513) 
None

$$$$
KRPRVPKVWCIGSU-UHFFFAOYSA-N-P126-P126-P177-601502
     RDKit          3D

 23 25  0  0  0  0  0  0  0  0999 V2000
    9.4572    8.6616   23.0541 C   0  0  0  0  0  0  0  0  0  0  0  0
    9.4208    9.9767   23.6441 N   0  0  0  0  0  0  0  0  0  0  0  0
   10.2680   10.9007   23.1726 N   0  0  0  0  0  0  0  0  0  0  0  0
   10.0129   12.0001   23.8997 C   0  0  0  0  0  0  0  0  0  0  0  0
   10.8018   13.2235   23.6871 C   0  0  0  0  0  0  0  0  0  0  0  0
   10.8372   14.0740   24.4826 O   0  0  0  0  0  0  0  0  0  0  0  0
   11.4016   13.1545   22.2779 N   0  0  0  0  0  0  0  0  0  0  0  0
   12.0875   14.1440   21.5128 C   0  0  0  0  0  0  0  0  0  0  0  0
   11.0630   14.8964   20.7573 C   0  0  0  0  0  0  0  0  0  0  0  0
   10.8298   14.9663   19.4062 C   0  0  0  0  0  0  0  0  0  0  0  0
    9.8621   15.9017   19.1873 O   0  0  0  0  0  0  0  0  0  0  0  0
    9.5591   16.3739   20.4376 C   0  0  0  0  0  0  0  0  0  0  0  0
    8.5612   17.4777   20.5407 C   0  0  0  0  0  0  0  0  0  0  0  0
    8.2596   18.0298   19.3329 F   0  0  0  0  0  0  0  0  0  0  0  0
    8.9662   18.4944   21.3351 F   0  0  0  0  0  0  0  0  0  0  0  0
   10.1833   15.7246   21.4031 N   0  0  0  0  0  0  0  0  0  0  0  0
    8.9260   11.7881   24.7898 C   0  0  0  0  0  0  0  0  0  0  0  0
    8.1981   12.5782   25.7010 C   0  0  0  0  0  0  0  0  0  0  0  0
    7.1638   11.9834   26.4294 C   0  0  0  0  0  0  0  0  0  0  0  0
    6.1893   13.0225   27.6736 Br  0  0  0  0  0  0  0  0  0  0  0  0
    6.8507   10.6363   26.2711 C   0  0  0  0  0  0  0  0  0  0  0  0
    7.5596    9.8436   25.3646 C   0  0  0  0  0  0  0  0  0  0  0  0
    8.5819   10.4476   24.6235 C   0  0  0  0  0  0  0  0  0  0  0  0
  1  2  1  0
  2  3  1  0
  3  4  2  0
  4  5  1  0
  5  6  2  0
  5  7  1  0
  7  8  1  0
  8  9  1  0
  9 10  2  0
 10 11  1  0
 11 12  1  0
 12 13  1  0
 13 14  1  0
 13 15  1  0
 12 16  2  0
  4 17  1  0
 17 18  2  0
 18 19  1  0
 19 20  1  0
 19 21  2  0
 21 22  1  0
 22 23  2  0
 23  2  1  0
 16  9  1  0
 23 17  1  0
M  END
>  <energy_score>  (3514) 
-15.439203

>  <inchikey>  (3514) 
KRPRVPKVWCIGSU-UHFFFAOYSA-N

>  <smiles>  (3514) 
Cn1nc(C(=O)NCc2coc(C(F)F)n2)c2cc(Br)ccc21

>  <ref_pdb>  (3514) 
A0514a

>  <alias>  (3514) 
KRPRVPKVWCIGSU-UHFFFAOYSA-N-P126-P126-P177-601502

>  <HIPPO Pose ID>  (3514) 
502862

>  <name>  (3514) 
KRPRVPKVWCIGSU-UHFFFAOYSA-N-P126-P126-P177-601502

>  <HIPPO Compound ID>  (3514) 
299249

>  <ref_mols>  (3514) 
A3403a,A2290a

>  <distance_score>  (3514) 
0.788881

>  <inspiration_score>  (3514) 
None

$$$$
KRPRVPKVWCIGSU-UHFFFAOYSA-N-P177-P126-P177-601502
     RDKit          3D

 23 25  0  0  0  0  0  0  0  0999 V2000
    9.0568    9.0134   23.0978 C   0  0  0  0  0  0  0  0  0  0  0  0
    9.0425   10.3532   23.6357 N   0  0  0  0  0  0  0  0  0  0  0  0
    9.8897   11.2579   23.1361 N   0  0  0  0  0  0  0  0  0  0  0  0
    9.7021   12.3633   23.8774 C   0  0  0  0  0  0  0  0  0  0  0  0
   10.5195   13.5697   23.6335 C   0  0  0  0  0  0  0  0  0  0  0  0
   10.6187   14.4194   24.4256 O   0  0  0  0  0  0  0  0  0  0  0  0
   11.1277   13.4410   22.2308 N   0  0  0  0  0  0  0  0  0  0  0  0
   11.9045   14.3633   21.4689 C   0  0  0  0  0  0  0  0  0  0  0  0
   10.9793   15.1969   20.6852 C   0  0  0  0  0  0  0  0  0  0  0  0
   10.7387   15.2190   19.3328 C   0  0  0  0  0  0  0  0  0  0  0  0
    9.8062   16.1784   19.0872 O   0  0  0  0  0  0  0  0  0  0  0  0
    9.5443   16.7202   20.3212 C   0  0  0  0  0  0  0  0  0  0  0  0
    8.5287   17.8020   20.3965 C   0  0  0  0  0  0  0  0  0  0  0  0
    8.2320   18.3248   19.1717 F   0  0  0  0  0  0  0  0  0  0  0  0
    8.9293   18.8424   21.1692 F   0  0  0  0  0  0  0  0  0  0  0  0
   10.1978   16.1344   21.3045 N   0  0  0  0  0  0  0  0  0  0  0  0
    8.6649   12.1637   24.8265 C   0  0  0  0  0  0  0  0  0  0  0  0
    8.0343   12.9488   25.8090 C   0  0  0  0  0  0  0  0  0  0  0  0
    7.0049   12.3783   26.5626 C   0  0  0  0  0  0  0  0  0  0  0  0
    6.1646   13.4063   27.9099 Br  0  0  0  0  0  0  0  0  0  0  0  0
    6.5964   11.0645   26.3526 C   0  0  0  0  0  0  0  0  0  0  0  0
    7.2125   10.2754   25.3797 C   0  0  0  0  0  0  0  0  0  0  0  0
    8.2442   10.8482   24.6332 C   0  0  0  0  0  0  0  0  0  0  0  0
  1  2  1  0
  2  3  1  0
  3  4  2  0
  4  5  1  0
  5  6  2  0
  5  7  1  0
  7  8  1  0
  8  9  1  0
  9 10  2  0
 10 11  1  0
 11 12  1  0
 12 13  1  0
 13 14  1  0
 13 15  1  0
 12 16  2  0
  4 17  1  0
 17 18  2  0
 18 19  1  0
 19 20  1  0
 19 21  2  0
 21 22  1  0
 22 23  2  0
 23  2  1  0
 16  9  1  0
 23 17  1  0
M  END
>  <energy_score>  (3515) 
-16.429827

>  <inchikey>  (3515) 
KRPRVPKVWCIGSU-UHFFFAOYSA-N

>  <smiles>  (3515) 
Cn1nc(C(=O)NCc2coc(C(F)F)n2)c2cc(Br)ccc21

>  <ref_pdb>  (3515) 
A0514a

>  <alias>  (3515) 
KRPRVPKVWCIGSU-UHFFFAOYSA-N-P177-P126-P177-601502

>  <HIPPO Pose ID>  (3515) 
502863

>  <name>  (3515) 
KRPRVPKVWCIGSU-UHFFFAOYSA-N-P177-P126-P177-601502

>  <HIPPO Compound ID>  (3515) 
299249

>  <ref_mols>  (3515) 
A3403a,A2290a

>  <distance_score>  (3515) 
0.63923

>  <inspiration_score>  (3515) 
None

$$$$
IUUBQGWCAGHBSR-UHFFFAOYSA-N-P126-P126-P177-601502
     RDKit          3D

 23 25  0  0  0  0  0  0  0  0999 V2000
    8.5354   18.8153   20.6139 C   0  0  0  0  0  0  0  0  0  0  0  0
    8.3717   17.4181   20.1761 C   0  0  0  0  0  0  0  0  0  0  0  0
    9.4884   16.4606   20.3099 C   0  0  0  0  0  0  0  0  0  0  0  0
    9.9768   15.8980   21.3940 N   0  0  0  0  0  0  0  0  0  0  0  0
   10.9552   15.0536   20.9457 C   0  0  0  0  0  0  0  0  0  0  0  0
   11.9203   14.4091   21.8620 C   0  0  0  0  0  0  0  0  0  0  0  0
   11.2488   13.3537   22.5393 N   0  0  0  0  0  0  0  0  0  0  0  0
   10.6258   13.3059   23.9353 C   0  0  0  0  0  0  0  0  0  0  0  0
   10.6267   14.0964   24.7902 O   0  0  0  0  0  0  0  0  0  0  0  0
    9.8771   12.0498   24.0533 C   0  0  0  0  0  0  0  0  0  0  0  0
   10.1818   10.9956   23.2786 N   0  0  0  0  0  0  0  0  0  0  0  0
    9.3623   10.0214   23.7015 N   0  0  0  0  0  0  0  0  0  0  0  0
    9.4641    8.7265   23.0733 C   0  0  0  0  0  0  0  0  0  0  0  0
    8.4913   10.4248   24.6851 C   0  0  0  0  0  0  0  0  0  0  0  0
    7.4805    9.7607   25.3892 C   0  0  0  0  0  0  0  0  0  0  0  0
    6.7367   10.4941   26.3168 C   0  0  0  0  0  0  0  0  0  0  0  0
    7.0057   11.8390   26.5298 C   0  0  0  0  0  0  0  0  0  0  0  0
    6.2877   12.5110   27.4401 F   0  0  0  0  0  0  0  0  0  0  0  0
    8.0226   12.4970   25.8431 C   0  0  0  0  0  0  0  0  0  0  0  0
    8.7847   11.7677   24.9113 C   0  0  0  0  0  0  0  0  0  0  0  0
   10.9151   15.0363   19.5753 C   0  0  0  0  0  0  0  0  0  0  0  0
   11.7462   14.4149   18.5559 C   0  0  0  0  0  0  0  0  0  0  0  0
    9.9681   15.9218   19.1538 O   0  0  0  0  0  0  0  0  0  0  0  0
  1  2  1  0
  2  3  1  0
  3  4  2  0
  4  5  1  0
  5  6  1  0
  6  7  1  0
  7  8  1  0
  8  9  2  0
  8 10  1  0
 10 11  2  0
 11 12  1  0
 12 13  1  0
 12 14  1  0
 14 15  2  0
 15 16  1  0
 16 17  2  0
 17 18  1  0
 17 19  1  0
 19 20  2  0
  5 21  2  0
 21 22  1  0
 21 23  1  0
 23  3  1  0
 20 10  1  0
 20 14  1  0
M  END
>  <energy_score>  (3516) 
-27.36196

>  <inchikey>  (3516) 
IUUBQGWCAGHBSR-UHFFFAOYSA-N

>  <smiles>  (3516) 
CCc1nc(CNC(=O)c2nn(C)c3ccc(F)cc23)c(C)o1

>  <ref_pdb>  (3516) 
A0514a

>  <alias>  (3516) 
IUUBQGWCAGHBSR-UHFFFAOYSA-N-P126-P126-P177-601502

>  <HIPPO Pose ID>  (3516) 
502864

>  <name>  (3516) 
IUUBQGWCAGHBSR-UHFFFAOYSA-N-P126-P126-P177-601502

>  <HIPPO Compound ID>  (3516) 
299250

>  <ref_mols>  (3516) 
A3403a,A2290a

>  <distance_score>  (3516) 
0.819786

>  <inspiration_score>  (3516) 
None

$$$$
IUUBQGWCAGHBSR-UHFFFAOYSA-N-P177-P126-P177-601502
     RDKit          3D

 23 25  0  0  0  0  0  0  0  0999 V2000
    8.0573   18.5706   19.4697 C   0  0  0  0  0  0  0  0  0  0  0  0
    8.4627   17.7704   20.6908 C   0  0  0  0  0  0  0  0  0  0  0  0
    9.5137   16.7467   20.5275 C   0  0  0  0  0  0  0  0  0  0  0  0
   10.1207   16.1067   21.5031 N   0  0  0  0  0  0  0  0  0  0  0  0
   10.9626   15.2406   20.8740 C   0  0  0  0  0  0  0  0  0  0  0  0
   11.8976   14.3929   21.6308 C   0  0  0  0  0  0  0  0  0  0  0  0
   11.1422   13.4469   22.3767 N   0  0  0  0  0  0  0  0  0  0  0  0
   10.4869   13.5614   23.7573 C   0  0  0  0  0  0  0  0  0  0  0  0
   10.5236   14.4220   24.5424 O   0  0  0  0  0  0  0  0  0  0  0  0
    9.6727   12.3496   23.9621 C   0  0  0  0  0  0  0  0  0  0  0  0
    9.8779   11.2577   23.2059 N   0  0  0  0  0  0  0  0  0  0  0  0
    9.0233   10.3433   23.6740 N   0  0  0  0  0  0  0  0  0  0  0  0
    9.0498    9.0139   23.1108 C   0  0  0  0  0  0  0  0  0  0  0  0
    8.2083   10.8211   24.6678 C   0  0  0  0  0  0  0  0  0  0  0  0
    7.1695   10.2352   25.3943 C   0  0  0  0  0  0  0  0  0  0  0  0
    6.5367   11.0110   26.3664 C   0  0  0  0  0  0  0  0  0  0  0  0
    6.9346   12.3214   26.5910 C   0  0  0  0  0  0  0  0  0  0  0  0
    6.3211   13.0330   27.5464 F   0  0  0  0  0  0  0  0  0  0  0  0
    7.9681   12.9076   25.8647 C   0  0  0  0  0  0  0  0  0  0  0  0
    8.6184   12.1365   24.8856 C   0  0  0  0  0  0  0  0  0  0  0  0
   10.7954   15.3586   19.5174 C   0  0  0  0  0  0  0  0  0  0  0  0
   11.4634   14.7496   18.3735 C   0  0  0  0  0  0  0  0  0  0  0  0
    9.8445   16.3084   19.2765 O   0  0  0  0  0  0  0  0  0  0  0  0
  1  2  1  0
  2  3  1  0
  3  4  2  0
  4  5  1  0
  5  6  1  0
  6  7  1  0
  7  8  1  0
  8  9  2  0
  8 10  1  0
 10 11  2  0
 11 12  1  0
 12 13  1  0
 12 14  1  0
 14 15  2  0
 15 16  1  0
 16 17  2  0
 17 18  1  0
 17 19  1  0
 19 20  2  0
  5 21  2  0
 21 22  1  0
 21 23  1  0
 23  3  1  0
 20 10  1  0
 20 14  1  0
M  END
>  <energy_score>  (3517) 
-31.115209

>  <inchikey>  (3517) 
IUUBQGWCAGHBSR-UHFFFAOYSA-N

>  <smiles>  (3517) 
CCc1nc(CNC(=O)c2nn(C)c3ccc(F)cc23)c(C)o1

>  <ref_pdb>  (3517) 
A0514a

>  <alias>  (3517) 
IUUBQGWCAGHBSR-UHFFFAOYSA-N-P177-P126-P177-601502

>  <HIPPO Pose ID>  (3517) 
502865

>  <name>  (3517) 
IUUBQGWCAGHBSR-UHFFFAOYSA-N-P177-P126-P177-601502

>  <HIPPO Compound ID>  (3517) 
299250

>  <ref_mols>  (3517) 
A3403a,A2290a

>  <distance_score>  (3517) 
0.690227

>  <inspiration_score>  (3517) 
None

$$$$
GFBUDSZHUNTCBQ-UHFFFAOYSA-N-P126-P126-P177-601502
     RDKit          3D

 23 25  0  0  0  0  0  0  0  0999 V2000
   12.0881   15.9903   17.2572 C   0  0  0  0  0  0  0  0  0  0  0  0
   12.5136   14.9249   18.0623 O   0  0  0  0  0  0  0  0  0  0  0  0
   11.5298   14.1854   18.6965 C   0  0  0  0  0  0  0  0  0  0  0  0
   10.7830   14.9504   19.6819 C   0  0  0  0  0  0  0  0  0  0  0  0
    9.7700   15.7710   19.2755 O   0  0  0  0  0  0  0  0  0  0  0  0
    9.3603   16.3532   20.4280 C   0  0  0  0  0  0  0  0  0  0  0  0
    9.9274   15.8712   21.5038 N   0  0  0  0  0  0  0  0  0  0  0  0
   10.9116   15.0523   21.0413 C   0  0  0  0  0  0  0  0  0  0  0  0
   11.9096   14.4355   21.9384 C   0  0  0  0  0  0  0  0  0  0  0  0
   11.2425   13.3689   22.6037 N   0  0  0  0  0  0  0  0  0  0  0  0
   10.6439   13.2936   24.0076 C   0  0  0  0  0  0  0  0  0  0  0  0
   10.6647   14.0644   24.8799 O   0  0  0  0  0  0  0  0  0  0  0  0
    9.8991   12.0346   24.1042 C   0  0  0  0  0  0  0  0  0  0  0  0
   10.2226   10.9879   23.3268 N   0  0  0  0  0  0  0  0  0  0  0  0
    9.3882   10.0113   23.7147 N   0  0  0  0  0  0  0  0  0  0  0  0
    9.4938    8.7266   23.0643 C   0  0  0  0  0  0  0  0  0  0  0  0
    8.5033   10.4034   24.6913 C   0  0  0  0  0  0  0  0  0  0  0  0
    7.4859    9.7306   25.3768 C   0  0  0  0  0  0  0  0  0  0  0  0
    6.7277   10.4531   26.3013 C   0  0  0  0  0  0  0  0  0  0  0  0
    6.9865   11.7981   26.5267 C   0  0  0  0  0  0  0  0  0  0  0  0
    6.2516   12.4597   27.4308 F   0  0  0  0  0  0  0  0  0  0  0  0
    8.0104   12.4651   25.8599 C   0  0  0  0  0  0  0  0  0  0  0  0
    8.7906   11.7443   24.9366 C   0  0  0  0  0  0  0  0  0  0  0  0
  1  2  1  0
  2  3  1  0
  3  4  1  0
  4  5  1  0
  5  6  1  0
  6  7  2  0
  7  8  1  0
  8  9  1  0
  9 10  1  0
 10 11  1  0
 11 12  2  0
 11 13  1  0
 13 14  2  0
 14 15  1  0
 15 16  1  0
 15 17  1  0
 17 18  2  0
 18 19  1  0
 19 20  2  0
 20 21  1  0
 20 22  1  0
 22 23  2  0
  8  4  2  0
 23 13  1  0
 23 17  1  0
M  END
>  <energy_score>  (3518) 
-30.254172

>  <inchikey>  (3518) 
GFBUDSZHUNTCBQ-UHFFFAOYSA-N

>  <smiles>  (3518) 
COCc1ocnc1CNC(=O)c1nn(C)c2ccc(F)cc12

>  <ref_pdb>  (3518) 
A0514a

>  <alias>  (3518) 
GFBUDSZHUNTCBQ-UHFFFAOYSA-N-P126-P126-P177-601502

>  <HIPPO Pose ID>  (3518) 
502866

>  <name>  (3518) 
GFBUDSZHUNTCBQ-UHFFFAOYSA-N-P126-P126-P177-601502

>  <HIPPO Compound ID>  (3518) 
299251

>  <ref_mols>  (3518) 
A3403a,A2290a

>  <distance_score>  (3518) 
0.771533

>  <inspiration_score>  (3518) 
None

$$$$
GFBUDSZHUNTCBQ-UHFFFAOYSA-N-P177-P126-P177-601502
     RDKit          3D

 23 25  0  0  0  0  0  0  0  0999 V2000
   11.8716   14.7893   17.9171 C   0  0  0  0  0  0  0  0  0  0  0  0
   10.8516   13.9794   18.4283 O   0  0  0  0  0  0  0  0  0  0  0  0
   10.7453   14.1686   19.8036 C   0  0  0  0  0  0  0  0  0  0  0  0
   10.2597   15.4792   20.1429 C   0  0  0  0  0  0  0  0  0  0  0  0
    9.4903   16.2288   19.3228 O   0  0  0  0  0  0  0  0  0  0  0  0
    9.1268   17.2590   20.1324 C   0  0  0  0  0  0  0  0  0  0  0  0
    9.6313   17.2031   21.3397 N   0  0  0  0  0  0  0  0  0  0  0  0
   10.3683   16.0565   21.3642 C   0  0  0  0  0  0  0  0  0  0  0  0
   11.1490   15.4769   22.4800 C   0  0  0  0  0  0  0  0  0  0  0  0
   10.5079   14.3021   22.9824 N   0  0  0  0  0  0  0  0  0  0  0  0
    9.9998   13.9722   24.3794 C   0  0  0  0  0  0  0  0  0  0  0  0
    9.9479   14.6285   25.3376 O   0  0  0  0  0  0  0  0  0  0  0  0
    9.4327   12.6149   24.3487 C   0  0  0  0  0  0  0  0  0  0  0  0
    9.8342   11.6717   23.4728 N   0  0  0  0  0  0  0  0  0  0  0  0
    9.0718   10.5964   23.7700 N   0  0  0  0  0  0  0  0  0  0  0  0
    9.2861    9.3377   23.0854 C   0  0  0  0  0  0  0  0  0  0  0  0
    8.1565   10.8438   24.7630 C   0  0  0  0  0  0  0  0  0  0  0  0
    7.1705   10.0543   25.3492 C   0  0  0  0  0  0  0  0  0  0  0  0
    6.3914   10.6209   26.3598 C   0  0  0  0  0  0  0  0  0  0  0  0
    6.5971   11.9310   26.7604 C   0  0  0  0  0  0  0  0  0  0  0  0
    5.8452   12.4382   27.7463 F   0  0  0  0  0  0  0  0  0  0  0  0
    7.5824   12.7184   26.1794 C   0  0  0  0  0  0  0  0  0  0  0  0
    8.3777   12.1534   25.1671 C   0  0  0  0  0  0  0  0  0  0  0  0
  1  2  1  0
  2  3  1  0
  3  4  1  0
  4  5  1  0
  5  6  1  0
  6  7  2  0
  7  8  1  0
  8  9  1  0
  9 10  1  0
 10 11  1  0
 11 12  2  0
 11 13  1  0
 13 14  2  0
 14 15  1  0
 15 16  1  0
 15 17  1  0
 17 18  2  0
 18 19  1  0
 19 20  2  0
 20 21  1  0
 20 22  1  0
 22 23  2  0
  8  4  2  0
 23 13  1  0
 23 17  1  0
M  END
>  <energy_score>  (3519) 
-28.17212

>  <inchikey>  (3519) 
GFBUDSZHUNTCBQ-UHFFFAOYSA-N

>  <smiles>  (3519) 
COCc1ocnc1CNC(=O)c1nn(C)c2ccc(F)cc12

>  <ref_pdb>  (3519) 
A0514a

>  <alias>  (3519) 
GFBUDSZHUNTCBQ-UHFFFAOYSA-N-P177-P126-P177-601502

>  <HIPPO Pose ID>  (3519) 
502867

>  <name>  (3519) 
GFBUDSZHUNTCBQ-UHFFFAOYSA-N-P177-P126-P177-601502

>  <HIPPO Compound ID>  (3519) 
299251

>  <ref_mols>  (3519) 
A3403a,A2290a

>  <distance_score>  (3519) 
1.105917

>  <inspiration_score>  (3519) 
None

$$$$
HZIQFBNKXYYPSN-UHFFFAOYSA-N-P126-P126-P177-601502
     RDKit          3D

 23 26  0  0  0  0  0  0  0  0999 V2000
    9.4705    8.8404   23.1142 C   0  0  0  0  0  0  0  0  0  0  0  0
    9.2462   10.1030   23.7791 N   0  0  0  0  0  0  0  0  0  0  0  0
    9.9689   11.1691   23.3921 N   0  0  0  0  0  0  0  0  0  0  0  0
    9.5623   12.1534   24.2129 C   0  0  0  0  0  0  0  0  0  0  0  0
   10.1602   13.4839   24.1626 C   0  0  0  0  0  0  0  0  0  0  0  0
   10.1717   14.1819   25.0930 O   0  0  0  0  0  0  0  0  0  0  0  0
   10.6876   13.7097   22.7498 N   0  0  0  0  0  0  0  0  0  0  0  0
   11.2532   14.8629   22.1507 C   0  0  0  0  0  0  0  0  0  0  0  0
   10.3717   15.4423   21.1052 C   0  0  0  0  0  0  0  0  0  0  0  0
    9.4680   16.4392   21.3405 N   0  0  0  0  0  0  0  0  0  0  0  0
    9.1270   16.8967   20.1661 C   0  0  0  0  0  0  0  0  0  0  0  0
    9.6258   16.1796   19.1344 O   0  0  0  0  0  0  0  0  0  0  0  0
   10.3955   15.2491   19.7536 C   0  0  0  0  0  0  0  0  0  0  0  0
   11.2669   14.2555   19.0678 C   0  0  0  0  0  0  0  0  0  0  0  0
   12.2413   14.6772   18.0820 C   0  0  0  0  0  0  0  0  0  0  0  0
   12.6964   14.1279   19.4132 C   0  0  0  0  0  0  0  0  0  0  0  0
    8.5196   11.7387   25.0665 C   0  0  0  0  0  0  0  0  0  0  0  0
    7.7122   12.3631   26.0344 C   0  0  0  0  0  0  0  0  0  0  0  0
    6.7524   11.5981   26.6865 C   0  0  0  0  0  0  0  0  0  0  0  0
    5.9841   12.1678   27.6248 F   0  0  0  0  0  0  0  0  0  0  0  0
    6.5889   10.2503   26.4041 C   0  0  0  0  0  0  0  0  0  0  0  0
    7.3885    9.6239   25.4442 C   0  0  0  0  0  0  0  0  0  0  0  0
    8.3436   10.3912   24.7757 C   0  0  0  0  0  0  0  0  0  0  0  0
  1  2  1  0
  2  3  1  0
  3  4  2  0
  4  5  1  0
  5  6  2  0
  5  7  1  0
  7  8  1  0
  8  9  1  0
  9 10  1  0
 10 11  2  0
 11 12  1  0
 12 13  1  0
 13 14  1  0
 14 15  1  0
 15 16  1  0
  4 17  1  0
 17 18  2  0
 18 19  1  0
 19 20  1  0
 19 21  2  0
 21 22  1  0
 22 23  2  0
 23  2  1  0
 13  9  2  0
 16 14  1  0
 23 17  1  0
M  END
>  <energy_score>  (3520) 
-0.045572

>  <inchikey>  (3520) 
HZIQFBNKXYYPSN-UHFFFAOYSA-N

>  <smiles>  (3520) 
Cn1nc(C(=O)NCc2ncoc2C2CC2)c2cc(F)ccc21

>  <ref_pdb>  (3520) 
A0514a

>  <alias>  (3520) 
HZIQFBNKXYYPSN-UHFFFAOYSA-N-P126-P126-P177-601502

>  <HIPPO Pose ID>  (3520) 
502868

>  <name>  (3520) 
HZIQFBNKXYYPSN-UHFFFAOYSA-N-P126-P126-P177-601502

>  <HIPPO Compound ID>  (3520) 
299252

>  <ref_mols>  (3520) 
A3403a,A2290a

>  <distance_score>  (3520) 
0.914626

>  <inspiration_score>  (3520) 
None

$$$$
HZIQFBNKXYYPSN-UHFFFAOYSA-N-P177-P126-P177-601502
     RDKit          3D

 23 26  0  0  0  0  0  0  0  0999 V2000
    9.1739    9.1824   23.0961 C   0  0  0  0  0  0  0  0  0  0  0  0
    9.0001   10.4595   23.7523 N   0  0  0  0  0  0  0  0  0  0  0  0
    9.7763   11.4996   23.3980 N   0  0  0  0  0  0  0  0  0  0  0  0
    9.4219   12.4798   24.2502 C   0  0  0  0  0  0  0  0  0  0  0  0
   10.0571   13.7970   24.2337 C   0  0  0  0  0  0  0  0  0  0  0  0
   10.0828   14.4729   25.1789 O   0  0  0  0  0  0  0  0  0  0  0  0
   10.5782   14.0474   22.8266 N   0  0  0  0  0  0  0  0  0  0  0  0
   11.1539   15.2038   22.2518 C   0  0  0  0  0  0  0  0  0  0  0  0
   10.2662   15.7802   21.2274 C   0  0  0  0  0  0  0  0  0  0  0  0
    9.3398   16.7415   21.5271 N   0  0  0  0  0  0  0  0  0  0  0  0
    8.9267   17.1744   20.3648 C   0  0  0  0  0  0  0  0  0  0  0  0
    9.4261   16.4916   19.3012 O   0  0  0  0  0  0  0  0  0  0  0  0
   10.2342   15.5655   19.8764 C   0  0  0  0  0  0  0  0  0  0  0  0
   10.9996   14.4953   19.1459 C   0  0  0  0  0  0  0  0  0  0  0  0
   11.9272   14.8569   18.0620 C   0  0  0  0  0  0  0  0  0  0  0  0
   12.4532   14.3399   19.3711 C   0  0  0  0  0  0  0  0  0  0  0  0
    8.3724   12.0841   25.1037 C   0  0  0  0  0  0  0  0  0  0  0  0
    7.6188   12.7078   26.1133 C   0  0  0  0  0  0  0  0  0  0  0  0
    6.6262   11.9700   26.7445 C   0  0  0  0  0  0  0  0  0  0  0  0
    5.9115   12.5333   27.7276 F   0  0  0  0  0  0  0  0  0  0  0  0
    6.3770   10.6527   26.3966 C   0  0  0  0  0  0  0  0  0  0  0  0
    7.1190   10.0299   25.3906 C   0  0  0  0  0  0  0  0  0  0  0  0
    8.1111   10.7669   24.7522 C   0  0  0  0  0  0  0  0  0  0  0  0
  1  2  1  0
  2  3  1  0
  3  4  2  0
  4  5  1  0
  5  6  2  0
  5  7  1  0
  7  8  1  0
  8  9  1  0
  9 10  1  0
 10 11  2  0
 11 12  1  0
 12 13  1  0
 13 14  1  0
 14 15  1  0
 15 16  1  0
  4 17  1  0
 17 18  2  0
 18 19  1  0
 19 20  1  0
 19 21  2  0
 21 22  1  0
 22 23  2  0
 23  2  1  0
 13  9  2  0
 16 14  1  0
 23 17  1  0
M  END
>  <energy_score>  (3521) 
-8.8791

>  <inchikey>  (3521) 
HZIQFBNKXYYPSN-UHFFFAOYSA-N

>  <smiles>  (3521) 
Cn1nc(C(=O)NCc2ncoc2C2CC2)c2cc(F)ccc21

>  <ref_pdb>  (3521) 
A0514a

>  <alias>  (3521) 
HZIQFBNKXYYPSN-UHFFFAOYSA-N-P177-P126-P177-601502

>  <HIPPO Pose ID>  (3521) 
502869

>  <name>  (3521) 
HZIQFBNKXYYPSN-UHFFFAOYSA-N-P177-P126-P177-601502

>  <HIPPO Compound ID>  (3521) 
299252

>  <ref_mols>  (3521) 
A3403a,A2290a

>  <distance_score>  (3521) 
1.020716

>  <inspiration_score>  (3521) 
None

$$$$
IQEYXUPQQVWWDA-UHFFFAOYSA-N-P126-P126-P177-601502
     RDKit          3D

 23 25  0  0  0  0  0  0  0  0999 V2000
    9.4390    8.6697   23.0671 C   0  0  0  0  0  0  0  0  0  0  0  0
    9.4040    9.9838   23.6597 N   0  0  0  0  0  0  0  0  0  0  0  0
   10.2565   10.9047   23.1925 N   0  0  0  0  0  0  0  0  0  0  0  0
   10.0002   12.0060   23.9168 C   0  0  0  0  0  0  0  0  0  0  0  0
   10.7926   13.2250   23.7008 C   0  0  0  0  0  0  0  0  0  0  0  0
   10.8831   14.0542   24.5143 O   0  0  0  0  0  0  0  0  0  0  0  0
   11.3542   13.1648   22.2763 N   0  0  0  0  0  0  0  0  0  0  0  0
   12.0618   14.1424   21.5170 C   0  0  0  0  0  0  0  0  0  0  0  0
   11.0503   14.9037   20.7545 C   0  0  0  0  0  0  0  0  0  0  0  0
   10.8233   14.9739   19.4025 C   0  0  0  0  0  0  0  0  0  0  0  0
    9.8606   15.9136   19.1792 O   0  0  0  0  0  0  0  0  0  0  0  0
    9.5543   16.3874   20.4280 C   0  0  0  0  0  0  0  0  0  0  0  0
    8.5576   17.4917   20.5284 C   0  0  0  0  0  0  0  0  0  0  0  0
    8.2609   18.0460   19.3205 F   0  0  0  0  0  0  0  0  0  0  0  0
    8.9599   18.5058   21.3275 F   0  0  0  0  0  0  0  0  0  0  0  0
   10.1730   15.7374   21.3962 N   0  0  0  0  0  0  0  0  0  0  0  0
    8.9152   11.7965   24.8083 C   0  0  0  0  0  0  0  0  0  0  0  0
    8.1927   12.5864   25.7218 C   0  0  0  0  0  0  0  0  0  0  0  0
    7.1628   11.9907   26.4481 C   0  0  0  0  0  0  0  0  0  0  0  0
    6.4857   12.7232   27.3428 F   0  0  0  0  0  0  0  0  0  0  0  0
    6.8398   10.6494   26.2903 C   0  0  0  0  0  0  0  0  0  0  0  0
    7.5407    9.8540   25.3809 C   0  0  0  0  0  0  0  0  0  0  0  0
    8.5660   10.4560   24.6400 C   0  0  0  0  0  0  0  0  0  0  0  0
  1  2  1  0
  2  3  1  0
  3  4  2  0
  4  5  1  0
  5  6  2  0
  5  7  1  0
  7  8  1  0
  8  9  1  0
  9 10  2  0
 10 11  1  0
 11 12  1  0
 12 13  1  0
 13 14  1  0
 13 15  1  0
 12 16  2  0
  4 17  1  0
 17 18  2  0
 18 19  1  0
 19 20  1  0
 19 21  2  0
 21 22  1  0
 22 23  2  0
 23  2  1  0
 16  9  1  0
 23 17  1  0
M  END
>  <energy_score>  (3522) 
-23.815171

>  <inchikey>  (3522) 
IQEYXUPQQVWWDA-UHFFFAOYSA-N

>  <smiles>  (3522) 
Cn1nc(C(=O)NCc2coc(C(F)F)n2)c2cc(F)ccc21

>  <ref_pdb>  (3522) 
A0514a

>  <alias>  (3522) 
IQEYXUPQQVWWDA-UHFFFAOYSA-N-P126-P126-P177-601502

>  <HIPPO Pose ID>  (3522) 
502870

>  <name>  (3522) 
IQEYXUPQQVWWDA-UHFFFAOYSA-N-P126-P126-P177-601502

>  <HIPPO Compound ID>  (3522) 
299253

>  <ref_mols>  (3522) 
A3403a,A2290a

>  <distance_score>  (3522) 
0.691498

>  <inspiration_score>  (3522) 
None

$$$$
IQEYXUPQQVWWDA-UHFFFAOYSA-N-P177-P126-P177-601502
     RDKit          3D

 23 25  0  0  0  0  0  0  0  0999 V2000
    9.0503    9.0206   23.1000 C   0  0  0  0  0  0  0  0  0  0  0  0
    9.0378   10.3599   23.6387 N   0  0  0  0  0  0  0  0  0  0  0  0
    9.8872   11.2624   23.1398 N   0  0  0  0  0  0  0  0  0  0  0  0
    9.7018   12.3688   23.8799 C   0  0  0  0  0  0  0  0  0  0  0  0
   10.5210   13.5737   23.6345 C   0  0  0  0  0  0  0  0  0  0  0  0
   10.6210   14.4242   24.4255 O   0  0  0  0  0  0  0  0  0  0  0  0
   11.1282   13.4431   22.2315 N   0  0  0  0  0  0  0  0  0  0  0  0
   11.9050   14.3641   21.4681 C   0  0  0  0  0  0  0  0  0  0  0  0
   10.9794   15.1973   20.6843 C   0  0  0  0  0  0  0  0  0  0  0  0
   10.7389   15.2197   19.3319 C   0  0  0  0  0  0  0  0  0  0  0  0
    9.8061   16.1789   19.0866 O   0  0  0  0  0  0  0  0  0  0  0  0
    9.5439   16.7204   20.3207 C   0  0  0  0  0  0  0  0  0  0  0  0
    8.5285   17.8023   20.3961 C   0  0  0  0  0  0  0  0  0  0  0  0
    8.2317   18.3249   19.1713 F   0  0  0  0  0  0  0  0  0  0  0  0
    8.9294   18.8426   21.1687 F   0  0  0  0  0  0  0  0  0  0  0  0
   10.1971   16.1340   21.3039 N   0  0  0  0  0  0  0  0  0  0  0  0
    8.6642   12.1721   24.8290 C   0  0  0  0  0  0  0  0  0  0  0  0
    8.0352   12.9581   25.8101 C   0  0  0  0  0  0  0  0  0  0  0  0
    7.0075   12.3877   26.5588 C   0  0  0  0  0  0  0  0  0  0  0  0
    6.4146   13.1159   27.5145 F   0  0  0  0  0  0  0  0  0  0  0  0
    6.5938   11.0782   26.3547 C   0  0  0  0  0  0  0  0  0  0  0  0
    7.2062   10.2851   25.3837 C   0  0  0  0  0  0  0  0  0  0  0  0
    8.2401   10.8561   24.6364 C   0  0  0  0  0  0  0  0  0  0  0  0
  1  2  1  0
  2  3  1  0
  3  4  2  0
  4  5  1  0
  5  6  2  0
  5  7  1  0
  7  8  1  0
  8  9  1  0
  9 10  2  0
 10 11  1  0
 11 12  1  0
 12 13  1  0
 13 14  1  0
 13 15  1  0
 12 16  2  0
  4 17  1  0
 17 18  2  0
 18 19  1  0
 19 20  1  0
 19 21  2  0
 21 22  1  0
 22 23  2  0
 23  2  1  0
 16  9  1  0
 23 17  1  0
M  END
>  <energy_score>  (3523) 
-25.054636

>  <inchikey>  (3523) 
IQEYXUPQQVWWDA-UHFFFAOYSA-N

>  <smiles>  (3523) 
Cn1nc(C(=O)NCc2coc(C(F)F)n2)c2cc(F)ccc21

>  <ref_pdb>  (3523) 
A0514a

>  <alias>  (3523) 
IQEYXUPQQVWWDA-UHFFFAOYSA-N-P177-P126-P177-601502

>  <HIPPO Pose ID>  (3523) 
502871

>  <name>  (3523) 
IQEYXUPQQVWWDA-UHFFFAOYSA-N-P177-P126-P177-601502

>  <HIPPO Compound ID>  (3523) 
299253

>  <ref_mols>  (3523) 
A3403a,A2290a

>  <distance_score>  (3523) 
0.643055

>  <inspiration_score>  (3523) 
None

$$$$
MOQZTEPLZUVSOD-UHFFFAOYSA-N-P126-P126-P177-601502
     RDKit          3D

 23 25  0  0  0  0  0  0  0  0999 V2000
    8.5341   18.0280   19.8125 C   0  0  0  0  0  0  0  0  0  0  0  0
    9.2767   16.7666   20.0597 C   0  0  0  0  0  0  0  0  0  0  0  0
    9.5514   16.1832   21.2011 N   0  0  0  0  0  0  0  0  0  0  0  0
   10.5345   15.2646   20.9118 C   0  0  0  0  0  0  0  0  0  0  0  0
   11.3690   14.7329   22.0197 C   0  0  2  0  0  0  0  0  0  0  0  0
   12.7928   14.3798   21.6985 C   0  0  0  0  0  0  0  0  0  0  0  0
   10.7388   13.6182   22.6380 N   0  0  0  0  0  0  0  0  0  0  0  0
   10.2682   13.4161   24.0750 C   0  0  0  0  0  0  0  0  0  0  0  0
   10.3862   14.0974   25.0109 O   0  0  0  0  0  0  0  0  0  0  0  0
    9.6229   12.1105   24.1546 C   0  0  0  0  0  0  0  0  0  0  0  0
    9.9981   11.1026   23.3485 N   0  0  0  0  0  0  0  0  0  0  0  0
    9.2517   10.0629   23.7581 N   0  0  0  0  0  0  0  0  0  0  0  0
    9.4378    8.7879   23.1071 C   0  0  0  0  0  0  0  0  0  0  0  0
    8.3636   10.3893   24.7560 C   0  0  0  0  0  0  0  0  0  0  0  0
    7.3951    9.6555   25.4444 C   0  0  0  0  0  0  0  0  0  0  0  0
    6.6192   10.3175   26.3997 C   0  0  0  0  0  0  0  0  0  0  0  0
    6.8179   11.6659   26.6576 C   0  0  0  0  0  0  0  0  0  0  0  0
    6.0721   12.2694   27.5928 F   0  0  0  0  0  0  0  0  0  0  0  0
    7.7909   12.3972   25.9854 C   0  0  0  0  0  0  0  0  0  0  0  0
    8.5757   11.7375   25.0224 C   0  0  0  0  0  0  0  0  0  0  0  0
   10.6643   15.1866   19.5430 C   0  0  0  0  0  0  0  0  0  0  0  0
   11.5906   14.5132   18.6267 C   0  0  0  0  0  0  0  0  0  0  0  0
    9.8457   16.1413   18.9885 O   0  0  0  0  0  0  0  0  0  0  0  0
  1  2  1  0
  2  3  2  0
  3  4  1  0
  4  5  1  0
  5  6  1  6
  5  7  1  0
  7  8  1  0
  8  9  2  0
  8 10  1  0
 10 11  2  0
 11 12  1  0
 12 13  1  0
 12 14  1  0
 14 15  2  0
 15 16  1  0
 16 17  2  0
 17 18  1  0
 17 19  1  0
 19 20  2  0
  4 21  2  0
 21 22  1  0
 21 23  1  0
 23  2  1  0
 20 10  1  0
 20 14  1  0
M  END
>  <energy_score>  (3524) 
-14.391611

>  <inchikey>  (3524) 
MOQZTEPLZUVSOD-UHFFFAOYSA-N

>  <smiles>  (3524) 
Cc1nc(C(C)NC(=O)c2nn(C)c3ccc(F)cc23)c(C)o1

>  <ref_pdb>  (3524) 
A0514a

>  <alias>  (3524) 
MOQZTEPLZUVSOD-UHFFFAOYSA-N-P126-P126-P177-601502

>  <HIPPO Pose ID>  (3524) 
502872

>  <name>  (3524) 
MOQZTEPLZUVSOD-UHFFFAOYSA-N-P126-P126-P177-601502

>  <HIPPO Compound ID>  (3524) 
299254

>  <ref_mols>  (3524) 
A3403a,A2290a

>  <distance_score>  (3524) 
0.831291

>  <inspiration_score>  (3524) 
None

$$$$
MOQZTEPLZUVSOD-UHFFFAOYSA-N-P177-P126-P177-601502
     RDKit          3D

 23 25  0  0  0  0  0  0  0  0999 V2000
    8.2811   18.4068   19.8552 C   0  0  0  0  0  0  0  0  0  0  0  0
    9.0760   17.1850   20.0956 C   0  0  0  0  0  0  0  0  0  0  0  0
    9.3936   16.6349   21.2390 N   0  0  0  0  0  0  0  0  0  0  0  0
   10.3206   15.6740   20.9190 C   0  0  0  0  0  0  0  0  0  0  0  0
   11.0999   15.0815   22.0191 C   0  0  2  0  0  0  0  0  0  0  0  0
   12.4712   14.6118   21.6610 C   0  0  0  0  0  0  0  0  0  0  0  0
   10.3981   14.0086   22.6271 N   0  0  0  0  0  0  0  0  0  0  0  0
    9.9229   13.8232   24.0617 C   0  0  0  0  0  0  0  0  0  0  0  0
    9.9587   14.5505   24.9683 O   0  0  0  0  0  0  0  0  0  0  0  0
    9.3202   12.4941   24.1605 C   0  0  0  0  0  0  0  0  0  0  0  0
    9.6720   11.4912   23.3340 N   0  0  0  0  0  0  0  0  0  0  0  0
    8.9356   10.4470   23.7488 N   0  0  0  0  0  0  0  0  0  0  0  0
    9.1150    9.1557   23.1231 C   0  0  0  0  0  0  0  0  0  0  0  0
    8.0662   10.7712   24.7602 C   0  0  0  0  0  0  0  0  0  0  0  0
    7.0968   10.0401   25.4389 C   0  0  0  0  0  0  0  0  0  0  0  0
    6.3720   10.6798   26.4468 C   0  0  0  0  0  0  0  0  0  0  0  0
    6.6181   12.0069   26.7586 C   0  0  0  0  0  0  0  0  0  0  0  0
    5.9220   12.5868   27.7456 F   0  0  0  0  0  0  0  0  0  0  0  0
    7.5845   12.7409   26.0834 C   0  0  0  0  0  0  0  0  0  0  0  0
    8.3159   12.1023   25.0671 C   0  0  0  0  0  0  0  0  0  0  0  0
   10.4270   15.5828   19.5478 C   0  0  0  0  0  0  0  0  0  0  0  0
   11.2646   14.8456   18.5906 C   0  0  0  0  0  0  0  0  0  0  0  0
    9.6074   16.5402   19.0143 O   0  0  0  0  0  0  0  0  0  0  0  0
  1  2  1  0
  2  3  2  0
  3  4  1  0
  4  5  1  0
  5  6  1  6
  5  7  1  0
  7  8  1  0
  8  9  2  0
  8 10  1  0
 10 11  2  0
 11 12  1  0
 12 13  1  0
 12 14  1  0
 14 15  2  0
 15 16  1  0
 16 17  2  0
 17 18  1  0
 17 19  1  0
 19 20  2  0
  4 21  2  0
 21 22  1  0
 21 23  1  0
 23  2  1  0
 20 10  1  0
 20 14  1  0
M  END
>  <energy_score>  (3525) 
-16.640093

>  <inchikey>  (3525) 
MOQZTEPLZUVSOD-UHFFFAOYSA-N

>  <smiles>  (3525) 
Cc1nc(C(C)NC(=O)c2nn(C)c3ccc(F)cc23)c(C)o1

>  <ref_pdb>  (3525) 
A0514a

>  <alias>  (3525) 
MOQZTEPLZUVSOD-UHFFFAOYSA-N-P177-P126-P177-601502

>  <HIPPO Pose ID>  (3525) 
502873

>  <name>  (3525) 
MOQZTEPLZUVSOD-UHFFFAOYSA-N-P177-P126-P177-601502

>  <HIPPO Compound ID>  (3525) 
299254

>  <ref_mols>  (3525) 
A3403a,A2290a

>  <distance_score>  (3525) 
0.962888

>  <inspiration_score>  (3525) 
None

$$$$
FQFPJRJSDBLNJV-UHFFFAOYSA-N-P126-P126-P177-601502
     RDKit          3D

 23 25  0  0  0  0  0  0  0  0999 V2000
    8.3785   18.2317   19.1512 C   0  0  0  0  0  0  0  0  0  0  0  0
    8.6191   17.5456   20.4865 C   0  0  0  0  0  0  0  0  0  0  0  0
    9.5471   16.3881   20.4598 C   0  0  0  0  0  0  0  0  0  0  0  0
   10.0458   15.7437   21.4934 N   0  0  0  0  0  0  0  0  0  0  0  0
   11.0111   14.9365   20.9681 C   0  0  0  0  0  0  0  0  0  0  0  0
   12.0005   14.2490   21.8237 C   0  0  0  0  0  0  0  0  0  0  0  0
   11.3108   13.2263   22.5284 N   0  0  0  0  0  0  0  0  0  0  0  0
   10.6670   13.2354   23.9154 C   0  0  0  0  0  0  0  0  0  0  0  0
   10.6619   14.0570   24.7403 O   0  0  0  0  0  0  0  0  0  0  0  0
    9.9008   11.9929   24.0532 C   0  0  0  0  0  0  0  0  0  0  0  0
   10.2008   10.9261   23.2942 N   0  0  0  0  0  0  0  0  0  0  0  0
    9.3642    9.9687   23.7139 N   0  0  0  0  0  0  0  0  0  0  0  0
    9.4448    8.6766   23.0783 C   0  0  0  0  0  0  0  0  0  0  0  0
    8.4935   10.3903   24.6893 C   0  0  0  0  0  0  0  0  0  0  0  0
    7.4747    9.7441   25.3955 C   0  0  0  0  0  0  0  0  0  0  0  0
    6.7297   10.4925   26.3112 C   0  0  0  0  0  0  0  0  0  0  0  0
    7.0020   11.8426   26.5106 C   0  0  0  0  0  0  0  0  0  0  0  0
    5.9746   12.8213   27.7606 Br  0  0  0  0  0  0  0  0  0  0  0  0
    8.0334   12.4812   25.8192 C   0  0  0  0  0  0  0  0  0  0  0  0
    8.7980   11.7324   24.9036 C   0  0  0  0  0  0  0  0  0  0  0  0
   10.9288   14.9946   19.6014 C   0  0  0  0  0  0  0  0  0  0  0  0
   11.7392   14.4306   18.5330 C   0  0  0  0  0  0  0  0  0  0  0  0
    9.9735   15.9071   19.2579 O   0  0  0  0  0  0  0  0  0  0  0  0
  1  2  1  0
  2  3  1  0
  3  4  2  0
  4  5  1  0
  5  6  1  0
  6  7  1  0
  7  8  1  0
  8  9  2  0
  8 10  1  0
 10 11  2  0
 11 12  1  0
 12 13  1  0
 12 14  1  0
 14 15  2  0
 15 16  1  0
 16 17  2  0
 17 18  1  0
 17 19  1  0
 19 20  2  0
  5 21  2  0
 21 22  1  0
 21 23  1  0
 23  3  1  0
 20 10  1  0
 20 14  1  0
M  END
>  <energy_score>  (3526) 
-27.030821

>  <inchikey>  (3526) 
FQFPJRJSDBLNJV-UHFFFAOYSA-N

>  <smiles>  (3526) 
CCc1nc(CNC(=O)c2nn(C)c3ccc(Br)cc23)c(C)o1

>  <ref_pdb>  (3526) 
A0514a

>  <alias>  (3526) 
FQFPJRJSDBLNJV-UHFFFAOYSA-N-P126-P126-P177-601502

>  <HIPPO Pose ID>  (3526) 
502874

>  <name>  (3526) 
FQFPJRJSDBLNJV-UHFFFAOYSA-N-P126-P126-P177-601502

>  <HIPPO Compound ID>  (3526) 
299255

>  <ref_mols>  (3526) 
A3403a,A2290a

>  <distance_score>  (3526) 
0.746124

>  <inspiration_score>  (3526) 
None

$$$$
VPXNOAMLZACMCT-UHFFFAOYSA-N-P126-P126-P177-601502
     RDKit          3D

 23 25  0  0  0  0  0  0  0  0999 V2000
   12.6678   13.7601   20.0655 C   0  0  0  0  0  0  0  0  0  0  0  0
   11.5209   14.2764   19.2246 C   0  0  0  0  0  0  0  0  0  0  0  0
   12.0753   14.8233   17.9758 C   0  0  0  0  0  0  0  0  0  0  0  0
   10.6422   15.1733   19.9360 C   0  0  0  0  0  0  0  0  0  0  0  0
    9.8052   15.9645   19.2062 O   0  0  0  0  0  0  0  0  0  0  0  0
    9.2281   16.7483   20.1407 C   0  0  0  0  0  0  0  0  0  0  0  0
    9.5392   16.4198   21.3629 N   0  0  0  0  0  0  0  0  0  0  0  0
   10.5216   15.4751   21.2608 C   0  0  0  0  0  0  0  0  0  0  0  0
   11.3441   14.9871   22.3961 C   0  0  0  0  0  0  0  0  0  0  0  0
   10.7670   13.8102   22.9434 N   0  0  0  0  0  0  0  0  0  0  0  0
   10.2546   13.5191   24.3488 C   0  0  0  0  0  0  0  0  0  0  0  0
   10.2888   14.1675   25.3140 O   0  0  0  0  0  0  0  0  0  0  0  0
    9.6307   12.1966   24.3289 C   0  0  0  0  0  0  0  0  0  0  0  0
   10.0400   11.2361   23.4799 N   0  0  0  0  0  0  0  0  0  0  0  0
    9.2927   10.1663   23.8147 N   0  0  0  0  0  0  0  0  0  0  0  0
    9.5254    8.9157   23.1291 C   0  0  0  0  0  0  0  0  0  0  0  0
    8.3695   10.4336   24.7982 C   0  0  0  0  0  0  0  0  0  0  0  0
    7.3979    9.6524   25.4275 C   0  0  0  0  0  0  0  0  0  0  0  0
    6.5794   10.2598   26.3835 C   0  0  0  0  0  0  0  0  0  0  0  0
    6.7405   11.6005   26.6999 C   0  0  0  0  0  0  0  0  0  0  0  0
    5.9518   12.1517   27.6325 F   0  0  0  0  0  0  0  0  0  0  0  0
    7.7210   12.3759   26.0920 C   0  0  0  0  0  0  0  0  0  0  0  0
    8.5512   11.7706   25.1313 C   0  0  0  0  0  0  0  0  0  0  0  0
  1  2  1  0
  2  3  1  0
  2  4  1  0
  4  5  1  0
  5  6  1  0
  6  7  2  0
  7  8  1  0
  8  9  1  0
  9 10  1  0
 10 11  1  0
 11 12  2  0
 11 13  1  0
 13 14  2  0
 14 15  1  0
 15 16  1  0
 15 17  1  0
 17 18  2  0
 18 19  1  0
 19 20  2  0
 20 21  1  0
 20 22  1  0
 22 23  2  0
  8  4  2  0
 23 13  1  0
 23 17  1  0
M  END
>  <energy_score>  (3527) 
-0.82386

>  <inchikey>  (3527) 
VPXNOAMLZACMCT-UHFFFAOYSA-N

>  <smiles>  (3527) 
CC(C)c1ocnc1CNC(=O)c1nn(C)c2ccc(F)cc12

>  <ref_pdb>  (3527) 
A0514a

>  <alias>  (3527) 
VPXNOAMLZACMCT-UHFFFAOYSA-N-P126-P126-P177-601502

>  <HIPPO Pose ID>  (3527) 
502880

>  <name>  (3527) 
VPXNOAMLZACMCT-UHFFFAOYSA-N-P126-P126-P177-601502

>  <HIPPO Compound ID>  (3527) 
299258

>  <ref_mols>  (3527) 
A3403a,A2290a

>  <distance_score>  (3527) 
1.015439

>  <inspiration_score>  (3527) 
None

$$$$
NNJMNMFGNKSCDG-UHFFFAOYSA-N-P126-P126-P177-601502
     RDKit          3D

 23 25  0  0  0  0  0  0  0  0999 V2000
    9.4112    8.6993   23.1003 C   0  0  0  0  0  0  0  0  0  0  0  0
    9.3291    9.9874   23.7437 N   0  0  0  0  0  0  0  0  0  0  0  0
   10.1676   10.9477   23.3320 N   0  0  0  0  0  0  0  0  0  0  0  0
    9.8641   12.0091   24.0975 C   0  0  0  0  0  0  0  0  0  0  0  0
   10.6186   13.2561   23.9574 C   0  0  0  0  0  0  0  0  0  0  0  0
   10.6623   14.0551   24.8031 O   0  0  0  0  0  0  0  0  0  0  0  0
   11.2093   13.2708   22.5483 N   0  0  0  0  0  0  0  0  0  0  0  0
   11.8936   14.2962   21.8456 C   0  0  0  0  0  0  0  0  0  0  0  0
   10.8943   14.9617   20.9789 C   0  0  0  0  0  0  0  0  0  0  0  0
    9.8655   15.6929   21.5048 N   0  0  0  0  0  0  0  0  0  0  0  0
    9.3444   16.3152   20.4770 C   0  0  0  0  0  0  0  0  0  0  0  0
    9.8431   15.9317   19.2753 O   0  0  0  0  0  0  0  0  0  0  0  0
   10.8364   15.0508   19.6105 C   0  0  0  0  0  0  0  0  0  0  0  0
   11.6967   14.5338   18.5542 C   0  0  0  0  0  0  0  0  0  0  0  0
   11.1272   13.4913   17.9214 F   0  0  0  0  0  0  0  0  0  0  0  0
   12.8400   14.0240   19.0920 F   0  0  0  0  0  0  0  0  0  0  0  0
    8.7667   11.7426   24.9501 C   0  0  0  0  0  0  0  0  0  0  0  0
    8.0065   12.4848   25.8727 C   0  0  0  0  0  0  0  0  0  0  0  0
    6.9776   11.8408   26.5542 C   0  0  0  0  0  0  0  0  0  0  0  0
    6.2612   12.5239   27.4576 F   0  0  0  0  0  0  0  0  0  0  0  0
    6.6936   10.4988   26.3422 C   0  0  0  0  0  0  0  0  0  0  0  0
    7.4333    9.7544   25.4201 C   0  0  0  0  0  0  0  0  0  0  0  0
    8.4583   10.4028   24.7228 C   0  0  0  0  0  0  0  0  0  0  0  0
  1  2  1  0
  2  3  1  0
  3  4  2  0
  4  5  1  0
  5  6  2  0
  5  7  1  0
  7  8  1  0
  8  9  1  0
  9 10  1  0
 10 11  2  0
 11 12  1  0
 12 13  1  0
 13 14  1  0
 14 15  1  0
 14 16  1  0
  4 17  1  0
 17 18  2  0
 18 19  1  0
 19 20  1  0
 19 21  2  0
 21 22  1  0
 22 23  2  0
 23  2  1  0
 13  9  2  0
 23 17  1  0
M  END
>  <energy_score>  (3528) 
-33.447814

>  <inchikey>  (3528) 
NNJMNMFGNKSCDG-UHFFFAOYSA-N

>  <smiles>  (3528) 
Cn1nc(C(=O)NCc2ncoc2C(F)F)c2cc(F)ccc21

>  <ref_pdb>  (3528) 
A0514a

>  <alias>  (3528) 
NNJMNMFGNKSCDG-UHFFFAOYSA-N-P126-P126-P177-601502

>  <HIPPO Pose ID>  (3528) 
502884

>  <name>  (3528) 
NNJMNMFGNKSCDG-UHFFFAOYSA-N-P126-P126-P177-601502

>  <HIPPO Compound ID>  (3528) 
299260

>  <ref_mols>  (3528) 
A3403a,A2290a

>  <distance_score>  (3528) 
0.773362

>  <inspiration_score>  (3528) 
None

$$$$
NNJMNMFGNKSCDG-UHFFFAOYSA-N-P177-P126-P177-601502
     RDKit          3D

 23 25  0  0  0  0  0  0  0  0999 V2000
    9.0608    9.0237   23.1160 C   0  0  0  0  0  0  0  0  0  0  0  0
    9.0085   10.3427   23.7021 N   0  0  0  0  0  0  0  0  0  0  0  0
    9.8508   11.2807   23.2564 N   0  0  0  0  0  0  0  0  0  0  0  0
    9.6085   12.3573   24.0237 C   0  0  0  0  0  0  0  0  0  0  0  0
   10.3773   13.5968   23.8393 C   0  0  0  0  0  0  0  0  0  0  0  0
   10.3789   14.4472   24.6347 O   0  0  0  0  0  0  0  0  0  0  0  0
   11.0282   13.5303   22.4567 N   0  0  0  0  0  0  0  0  0  0  0  0
   11.7335   14.5166   21.7216 C   0  0  0  0  0  0  0  0  0  0  0  0
   10.7570   15.2958   20.9343 C   0  0  0  0  0  0  0  0  0  0  0  0
    9.7989   16.0797   21.5252 N   0  0  0  0  0  0  0  0  0  0  0  0
    9.2240   16.6976   20.5223 C   0  0  0  0  0  0  0  0  0  0  0  0
    9.6805   16.3308   19.2911 O   0  0  0  0  0  0  0  0  0  0  0  0
   10.6629   15.4215   19.5707 C   0  0  0  0  0  0  0  0  0  0  0  0
   11.4384   14.8453   18.4745 C   0  0  0  0  0  0  0  0  0  0  0  0
   10.8418   13.7263   18.0042 F   0  0  0  0  0  0  0  0  0  0  0  0
   12.6492   14.4257   18.9268 F   0  0  0  0  0  0  0  0  0  0  0  0
    8.5549   12.1102   24.9359 C   0  0  0  0  0  0  0  0  0  0  0  0
    7.8807   12.8576   25.9174 C   0  0  0  0  0  0  0  0  0  0  0  0
    6.8541   12.2427   26.6277 C   0  0  0  0  0  0  0  0  0  0  0  0
    6.2170   12.9293   27.5859 F   0  0  0  0  0  0  0  0  0  0  0  0
    6.4871   10.9273   26.3837 C   0  0  0  0  0  0  0  0  0  0  0  0
    7.1443   10.1775   25.4071 C   0  0  0  0  0  0  0  0  0  0  0  0
    8.1763   10.7907   24.6963 C   0  0  0  0  0  0  0  0  0  0  0  0
  1  2  1  0
  2  3  1  0
  3  4  2  0
  4  5  1  0
  5  6  2  0
  5  7  1  0
  7  8  1  0
  8  9  1  0
  9 10  1  0
 10 11  2  0
 11 12  1  0
 12 13  1  0
 13 14  1  0
 14 15  1  0
 14 16  1  0
  4 17  1  0
 17 18  2  0
 18 19  1  0
 19 20  1  0
 19 21  2  0
 21 22  1  0
 22 23  2  0
 23  2  1  0
 13  9  2  0
 23 17  1  0
M  END
>  <energy_score>  (3529) 
-35.578479

>  <inchikey>  (3529) 
NNJMNMFGNKSCDG-UHFFFAOYSA-N

>  <smiles>  (3529) 
Cn1nc(C(=O)NCc2ncoc2C(F)F)c2cc(F)ccc21

>  <ref_pdb>  (3529) 
A0514a

>  <alias>  (3529) 
NNJMNMFGNKSCDG-UHFFFAOYSA-N-P177-P126-P177-601502

>  <HIPPO Pose ID>  (3529) 
502885

>  <name>  (3529) 
NNJMNMFGNKSCDG-UHFFFAOYSA-N-P177-P126-P177-601502

>  <HIPPO Compound ID>  (3529) 
299260

>  <ref_mols>  (3529) 
A3403a,A2290a

>  <distance_score>  (3529) 
0.744346

>  <inspiration_score>  (3529) 
None

$$$$
AAAFLQVTAXPMKX-UHFFFAOYSA-N-P126-P126-P177-601502
     RDKit          3D

 24 26  0  0  0  0  0  0  0  0999 V2000
    8.8917   17.4345   18.0787 C   0  0  0  0  0  0  0  0  0  0  0  0
    8.7830   18.0618   19.3784 N   0  0  0  0  0  0  0  0  0  0  0  0
    7.5917   18.8561   19.5487 C   0  0  0  0  0  0  0  0  0  0  0  0
    8.9033   17.1999   20.5640 C   0  0  0  0  0  0  0  0  0  0  0  0
    9.8771   16.0827   20.5335 C   0  0  0  0  0  0  0  0  0  0  0  0
   10.5181   15.5539   21.5513 N   0  0  0  0  0  0  0  0  0  0  0  0
   11.3842   14.6694   20.9724 C   0  0  0  0  0  0  0  0  0  0  0  0
   12.2937   13.8754   21.8044 C   0  0  0  0  0  0  0  0  0  0  0  0
   11.4614   12.9913   22.5454 N   0  0  0  0  0  0  0  0  0  0  0  0
   10.8042   13.1592   23.9159 C   0  0  0  0  0  0  0  0  0  0  0  0
   10.8974   14.0164   24.6985 O   0  0  0  0  0  0  0  0  0  0  0  0
    9.9200   12.0038   24.1064 C   0  0  0  0  0  0  0  0  0  0  0  0
   10.1392   10.8787   23.4023 N   0  0  0  0  0  0  0  0  0  0  0  0
    9.2470   10.0081   23.8845 N   0  0  0  0  0  0  0  0  0  0  0  0
    9.3419    8.6347   23.4661 C   0  0  0  0  0  0  0  0  0  0  0  0
    8.3921   10.5448   24.8157 C   0  0  0  0  0  0  0  0  0  0  0  0
    7.3235   10.0037   25.5438 C   0  0  0  0  0  0  0  0  0  0  0  0
    6.6418   10.8509   26.4196 C   0  0  0  0  0  0  0  0  0  0  0  0
    7.0216   12.1799   26.5550 C   0  0  0  0  0  0  0  0  0  0  0  0
    6.3584   12.9612   27.4183 F   0  0  0  0  0  0  0  0  0  0  0  0
    8.0917   12.7136   25.8394 C   0  0  0  0  0  0  0  0  0  0  0  0
    8.7962   11.8714   24.9606 C   0  0  0  0  0  0  0  0  0  0  0  0
   11.1818   14.6452   19.6169 C   0  0  0  0  0  0  0  0  0  0  0  0
   10.1764   15.5025   19.3373 O   0  0  0  0  0  0  0  0  0  0  0  0
  1  2  1  0
  2  3  1  0
  2  4  1  0
  4  5  1  0
  5  6  2  0
  6  7  1  0
  7  8  1  0
  8  9  1  0
  9 10  1  0
 10 11  2  0
 10 12  1  0
 12 13  2  0
 13 14  1  0
 14 15  1  0
 14 16  1  0
 16 17  2  0
 17 18  1  0
 18 19  2  0
 19 20  1  0
 19 21  1  0
 21 22  2  0
  7 23  2  0
 23 24  1  0
 24  5  1  0
 22 12  1  0
 22 16  1  0
M  END
>  <energy_score>  (3530) 
-28.481988

>  <inchikey>  (3530) 
AAAFLQVTAXPMKX-UHFFFAOYSA-N

>  <smiles>  (3530) 
CN(C)Cc1nc(CNC(=O)c2nn(C)c3ccc(F)cc23)co1

>  <ref_pdb>  (3530) 
A0514a

>  <alias>  (3530) 
AAAFLQVTAXPMKX-UHFFFAOYSA-N-P126-P126-P177-601502

>  <HIPPO Pose ID>  (3530) 
502888

>  <name>  (3530) 
AAAFLQVTAXPMKX-UHFFFAOYSA-N-P126-P126-P177-601502

>  <HIPPO Compound ID>  (3530) 
299262

>  <ref_mols>  (3530) 
A3403a,A2290a

>  <distance_score>  (3530) 
0.836255

>  <inspiration_score>  (3530) 
None

$$$$
AAAFLQVTAXPMKX-UHFFFAOYSA-N-P177-P126-P177-601502
     RDKit          3D

 24 26  0  0  0  0  0  0  0  0999 V2000
    9.5620   17.3348   19.3267 C   0  0  0  0  0  0  0  0  0  0  0  0
    8.8878   18.0089   20.3995 N   0  0  0  0  0  0  0  0  0  0  0  0
    7.9815   18.9960   19.8407 C   0  0  0  0  0  0  0  0  0  0  0  0
    8.2946   17.0536   21.3449 C   0  0  0  0  0  0  0  0  0  0  0  0
    9.1701   15.8455   21.4626 C   0  0  0  0  0  0  0  0  0  0  0  0
   10.2366   15.6611   22.2080 N   0  0  0  0  0  0  0  0  0  0  0  0
   10.9932   14.7862   21.4754 C   0  0  0  0  0  0  0  0  0  0  0  0
   12.0631   14.0039   22.0912 C   0  0  0  0  0  0  0  0  0  0  0  0
   11.2612   13.1107   22.8366 N   0  0  0  0  0  0  0  0  0  0  0  0
   10.6265   13.2622   24.2138 C   0  0  0  0  0  0  0  0  0  0  0  0
   10.7206   14.1155   24.9985 O   0  0  0  0  0  0  0  0  0  0  0  0
    9.7368   12.1153   24.3534 C   0  0  0  0  0  0  0  0  0  0  0  0
    9.9046   11.0442   23.5575 N   0  0  0  0  0  0  0  0  0  0  0  0
    8.9307   10.2085   23.9086 N   0  0  0  0  0  0  0  0  0  0  0  0
    8.8814    8.9296   23.2498 C   0  0  0  0  0  0  0  0  0  0  0  0
    8.0979   10.7155   24.8724 C   0  0  0  0  0  0  0  0  0  0  0  0
    6.9724   10.2054   25.5169 C   0  0  0  0  0  0  0  0  0  0  0  0
    6.3398   11.0076   26.4684 C   0  0  0  0  0  0  0  0  0  0  0  0
    6.8104   12.2824   26.7429 C   0  0  0  0  0  0  0  0  0  0  0  0
    6.1858   13.0236   27.6675 F   0  0  0  0  0  0  0  0  0  0  0  0
    7.9314   12.7967   26.1022 C   0  0  0  0  0  0  0  0  0  0  0  0
    8.5944   11.9837   25.1683 C   0  0  0  0  0  0  0  0  0  0  0  0
   10.3620   14.4874   20.3015 C   0  0  0  0  0  0  0  0  0  0  0  0
    9.1115   15.0064   20.3718 O   0  0  0  0  0  0  0  0  0  0  0  0
  1  2  1  0
  2  3  1  0
  2  4  1  0
  4  5  1  0
  5  6  2  0
  6  7  1  0
  7  8  1  0
  8  9  1  0
  9 10  1  0
 10 11  2  0
 10 12  1  0
 12 13  2  0
 13 14  1  0
 14 15  1  0
 14 16  1  0
 16 17  2  0
 17 18  1  0
 18 19  2  0
 19 20  1  0
 19 21  1  0
 21 22  2  0
  7 23  2  0
 23 24  1  0
 24  5  1  0
 22 12  1  0
 22 16  1  0
M  END
>  <energy_score>  (3531) 
-5.163504

>  <inchikey>  (3531) 
AAAFLQVTAXPMKX-UHFFFAOYSA-N

>  <smiles>  (3531) 
CN(C)Cc1nc(CNC(=O)c2nn(C)c3ccc(F)cc23)co1

>  <ref_pdb>  (3531) 
A0514a

>  <alias>  (3531) 
AAAFLQVTAXPMKX-UHFFFAOYSA-N-P177-P126-P177-601502

>  <HIPPO Pose ID>  (3531) 
502889

>  <name>  (3531) 
AAAFLQVTAXPMKX-UHFFFAOYSA-N-P177-P126-P177-601502

>  <HIPPO Compound ID>  (3531) 
299262

>  <ref_mols>  (3531) 
A3403a,A2290a

>  <distance_score>  (3531) 
1.110427

>  <inspiration_score>  (3531) 
None

$$$$
APFFOXKHOZKVEK-UHFFFAOYSA-N-P126-P126-P177-601502
     RDKit          3D

 24 27  0  0  0  0  0  0  0  0999 V2000
   11.8121   14.3935   18.5596 C   0  0  0  0  0  0  0  0  0  0  0  0
   11.0225   14.8907   19.6696 C   0  0  0  0  0  0  0  0  0  0  0  0
    9.9680   15.6789   19.3515 O   0  0  0  0  0  0  0  0  0  0  0  0
    9.4953   16.0772   20.5594 C   0  0  0  0  0  0  0  0  0  0  0  0
    8.3654   17.1050   20.6968 C   0  0  0  0  0  0  0  0  0  0  0  0
    8.3083   18.1612   19.6028 C   0  0  0  0  0  0  0  0  0  0  0  0
    8.6321   18.5191   21.0075 C   0  0  0  0  0  0  0  0  0  0  0  0
   10.0933   15.5240   21.5878 N   0  0  0  0  0  0  0  0  0  0  0  0
   11.1257   14.8221   21.0340 C   0  0  0  0  0  0  0  0  0  0  0  0
   12.1233   14.1367   21.8758 C   0  0  0  0  0  0  0  0  0  0  0  0
   11.4014   13.1432   22.5906 N   0  0  0  0  0  0  0  0  0  0  0  0
   10.7411   13.1929   23.9691 C   0  0  0  0  0  0  0  0  0  0  0  0
   10.7451   14.0297   24.7789 O   0  0  0  0  0  0  0  0  0  0  0  0
    9.9454   11.9688   24.1099 C   0  0  0  0  0  0  0  0  0  0  0  0
   10.2296   10.8932   23.3565 N   0  0  0  0  0  0  0  0  0  0  0  0
    9.3504    9.9633   23.7514 N   0  0  0  0  0  0  0  0  0  0  0  0
    9.3972    8.6761   23.1031 C   0  0  0  0  0  0  0  0  0  0  0  0
    8.4832   10.4046   24.7215 C   0  0  0  0  0  0  0  0  0  0  0  0
    7.4375    9.7841   25.4147 C   0  0  0  0  0  0  0  0  0  0  0  0
    6.7064   10.5526   26.3238 C   0  0  0  0  0  0  0  0  0  0  0  0
    7.0165   11.8905   26.5250 C   0  0  0  0  0  0  0  0  0  0  0  0
    6.3073   12.5981   27.4150 F   0  0  0  0  0  0  0  0  0  0  0  0
    8.0668   12.5057   25.8484 C   0  0  0  0  0  0  0  0  0  0  0  0
    8.8232   11.7385   24.9432 C   0  0  0  0  0  0  0  0  0  0  0  0
  1  2  1  0
  2  3  1  0
  3  4  1  0
  4  5  1  0
  5  6  1  0
  6  7  1  0
  4  8  2  0
  8  9  1  0
  9 10  1  0
 10 11  1  0
 11 12  1  0
 12 13  2  0
 12 14  1  0
 14 15  2  0
 15 16  1  0
 16 17  1  0
 16 18  1  0
 18 19  2  0
 19 20  1  0
 20 21  2  0
 21 22  1  0
 21 23  1  0
 23 24  2  0
  9  2  2  0
 24 14  1  0
  7  5  1  0
 24 18  1  0
M  END
>  <energy_score>  (3532) 
-40.697286

>  <inchikey>  (3532) 
APFFOXKHOZKVEK-UHFFFAOYSA-N

>  <smiles>  (3532) 
Cc1oc(C2CC2)nc1CNC(=O)c1nn(C)c2ccc(F)cc12

>  <ref_pdb>  (3532) 
A0514a

>  <alias>  (3532) 
APFFOXKHOZKVEK-UHFFFAOYSA-N-P126-P126-P177-601502

>  <HIPPO Pose ID>  (3532) 
502890

>  <name>  (3532) 
APFFOXKHOZKVEK-UHFFFAOYSA-N-P126-P126-P177-601502

>  <HIPPO Compound ID>  (3532) 
299263

>  <ref_mols>  (3532) 
A3403a,A2290a

>  <distance_score>  (3532) 
0.890175

>  <inspiration_score>  (3532) 
None

$$$$
APFFOXKHOZKVEK-UHFFFAOYSA-N-P177-P126-P177-601502
     RDKit          3D

 24 27  0  0  0  0  0  0  0  0999 V2000
   11.6373   14.6437   18.3970 C   0  0  0  0  0  0  0  0  0  0  0  0
   10.9250   15.1441   19.5572 C   0  0  0  0  0  0  0  0  0  0  0  0
    9.8611   15.9337   19.2977 O   0  0  0  0  0  0  0  0  0  0  0  0
    9.4191   16.2707   20.5342 C   0  0  0  0  0  0  0  0  0  0  0  0
    8.3121   17.2818   20.7418 C   0  0  0  0  0  0  0  0  0  0  0  0
    8.2033   18.3813   19.7171 C   0  0  0  0  0  0  0  0  0  0  0  0
    8.7320   18.6628   21.0753 C   0  0  0  0  0  0  0  0  0  0  0  0
   10.0839   15.7545   21.5349 N   0  0  0  0  0  0  0  0  0  0  0  0
   11.0512   15.0194   20.9177 C   0  0  0  0  0  0  0  0  0  0  0  0
   11.9850   14.2115   21.7052 C   0  0  0  0  0  0  0  0  0  0  0  0
   11.1928   13.3113   22.4637 N   0  0  0  0  0  0  0  0  0  0  0  0
   10.5603   13.4665   23.8486 C   0  0  0  0  0  0  0  0  0  0  0  0
   10.6489   14.3283   24.6277 O   0  0  0  0  0  0  0  0  0  0  0  0
    9.7042   12.2877   24.0519 C   0  0  0  0  0  0  0  0  0  0  0  0
    9.8968   11.1880   23.3028 N   0  0  0  0  0  0  0  0  0  0  0  0
    8.9968   10.3062   23.7423 N   0  0  0  0  0  0  0  0  0  0  0  0
    8.9867    8.9856   23.1610 C   0  0  0  0  0  0  0  0  0  0  0  0
    8.1822   10.8060   24.7253 C   0  0  0  0  0  0  0  0  0  0  0  0
    7.1170   10.2506   25.4368 C   0  0  0  0  0  0  0  0  0  0  0  0
    6.4916   11.0449   26.3988 C   0  0  0  0  0  0  0  0  0  0  0  0
    6.9186   12.3458   26.6249 C   0  0  0  0  0  0  0  0  0  0  0  0
    6.3094   13.0774   27.5678 F   0  0  0  0  0  0  0  0  0  0  0  0
    7.9784   12.9025   25.9137 C   0  0  0  0  0  0  0  0  0  0  0  0
    8.6255   12.1098   24.9507 C   0  0  0  0  0  0  0  0  0  0  0  0
  1  2  1  0
  2  3  1  0
  3  4  1  0
  4  5  1  0
  5  6  1  0
  6  7  1  0
  4  8  2  0
  8  9  1  0
  9 10  1  0
 10 11  1  0
 11 12  1  0
 12 13  2  0
 12 14  1  0
 14 15  2  0
 15 16  1  0
 16 17  1  0
 16 18  1  0
 18 19  2  0
 19 20  1  0
 20 21  2  0
 21 22  1  0
 21 23  1  0
 23 24  2  0
  9  2  2  0
 24 14  1  0
  7  5  1  0
 24 18  1  0
M  END
>  <energy_score>  (3533) 
-41.539626

>  <inchikey>  (3533) 
APFFOXKHOZKVEK-UHFFFAOYSA-N

>  <smiles>  (3533) 
Cc1oc(C2CC2)nc1CNC(=O)c1nn(C)c2ccc(F)cc12

>  <ref_pdb>  (3533) 
A0514a

>  <alias>  (3533) 
APFFOXKHOZKVEK-UHFFFAOYSA-N-P177-P126-P177-601502

>  <HIPPO Pose ID>  (3533) 
502891

>  <name>  (3533) 
APFFOXKHOZKVEK-UHFFFAOYSA-N-P177-P126-P177-601502

>  <HIPPO Compound ID>  (3533) 
299263

>  <ref_mols>  (3533) 
A3403a,A2290a

>  <distance_score>  (3533) 
0.782771

>  <inspiration_score>  (3533) 
None

$$$$
JJTINVKDYHGOTL-UHFFFAOYSA-N-P177-P126-P177-601502
     RDKit          3D

 24 26  0  0  0  0  0  0  0  0999 V2000
   11.5249   14.6756   18.4457 C   0  0  0  0  0  0  0  0  0  0  0  0
   10.9808   15.2529   19.6654 C   0  0  0  0  0  0  0  0  0  0  0  0
    9.9711   16.1481   19.5289 O   0  0  0  0  0  0  0  0  0  0  0  0
    9.7266   16.5466   20.8128 C   0  0  0  0  0  0  0  0  0  0  0  0
    8.4682   17.2704   21.0837 C   0  0  0  0  0  0  0  0  0  0  0  0
    7.5159   16.1703   21.6109 C   0  0  0  0  0  0  0  0  0  0  0  0
    8.0854   18.1474   19.8861 C   0  0  0  0  0  0  0  0  0  0  0  0
   10.4932   15.9873   21.7155 N   0  0  0  0  0  0  0  0  0  0  0  0
   11.2449   15.1123   21.0038 C   0  0  0  0  0  0  0  0  0  0  0  0
   12.1029   14.1611   21.7028 C   0  0  0  0  0  0  0  0  0  0  0  0
   11.2505   13.2857   22.4303 N   0  0  0  0  0  0  0  0  0  0  0  0
   10.6070   13.4426   23.8116 C   0  0  0  0  0  0  0  0  0  0  0  0
   10.7308   14.2800   24.6125 O   0  0  0  0  0  0  0  0  0  0  0  0
    9.7181   12.2850   24.0024 C   0  0  0  0  0  0  0  0  0  0  0  0
    9.8811   11.1879   23.2433 N   0  0  0  0  0  0  0  0  0  0  0  0
    8.9917   10.3085   23.7071 N   0  0  0  0  0  0  0  0  0  0  0  0
    8.9817    8.9795   23.1457 C   0  0  0  0  0  0  0  0  0  0  0  0
    8.1893   10.8169   24.6953 C   0  0  0  0  0  0  0  0  0  0  0  0
    7.1297   10.2689   25.4215 C   0  0  0  0  0  0  0  0  0  0  0  0
    6.5207   11.0702   26.3881 C   0  0  0  0  0  0  0  0  0  0  0  0
    6.9611   12.3680   26.6075 C   0  0  0  0  0  0  0  0  0  0  0  0
    6.3691   13.1050   27.5573 F   0  0  0  0  0  0  0  0  0  0  0  0
    8.0175   12.9157   25.8838 C   0  0  0  0  0  0  0  0  0  0  0  0
    8.6450   12.1183   24.9117 C   0  0  0  0  0  0  0  0  0  0  0  0
  1  2  1  0
  2  3  1  0
  3  4  1  0
  4  5  1  0
  5  6  1  0
  5  7  1  0
  4  8  2  0
  8  9  1  0
  9 10  1  0
 10 11  1  0
 11 12  1  0
 12 13  2  0
 12 14  1  0
 14 15  2  0
 15 16  1  0
 16 17  1  0
 16 18  1  0
 18 19  2  0
 19 20  1  0
 20 21  2  0
 21 22  1  0
 21 23  1  0
 23 24  2  0
  9  2  2  0
 24 14  1  0
 24 18  1  0
M  END
>  <energy_score>  (3534) 
-7.896745

>  <inchikey>  (3534) 
JJTINVKDYHGOTL-UHFFFAOYSA-N

>  <smiles>  (3534) 
Cc1oc(C(C)C)nc1CNC(=O)c1nn(C)c2ccc(F)cc12

>  <ref_pdb>  (3534) 
A0514a

>  <alias>  (3534) 
JJTINVKDYHGOTL-UHFFFAOYSA-N-P177-P126-P177-601502

>  <HIPPO Pose ID>  (3534) 
502893

>  <name>  (3534) 
JJTINVKDYHGOTL-UHFFFAOYSA-N-P177-P126-P177-601502

>  <HIPPO Compound ID>  (3534) 
299264

>  <ref_mols>  (3534) 
A3403a,A2290a

>  <distance_score>  (3534) 
0.748215

>  <inspiration_score>  (3534) 
None

$$$$
OMKLADFEHHXZKJ-UHFFFAOYSA-N-P126-P126-P177-601502
     RDKit          3D

 24 26  0  0  0  0  0  0  0  0999 V2000
    9.4108    8.6425   23.1065 C   0  0  0  0  0  0  0  0  0  0  0  0
    9.3707    9.9068   23.7983 N   0  0  0  0  0  0  0  0  0  0  0  0
   10.2437   10.8518   23.4215 N   0  0  0  0  0  0  0  0  0  0  0  0
    9.9339   11.9133   24.1825 C   0  0  0  0  0  0  0  0  0  0  0  0
   10.5860   13.2018   23.9710 C   0  0  0  0  0  0  0  0  0  0  0  0
   10.6812   14.0065   24.8071 O   0  0  0  0  0  0  0  0  0  0  0  0
   10.9704   13.2572   22.4943 N   0  0  0  0  0  0  0  0  0  0  0  0
   11.4620   14.3317   21.7087 C   0  0  0  0  0  0  0  0  0  0  0  0
   10.2326   15.0907   21.3122 C   0  0  0  0  0  0  0  0  0  0  0  0
    9.0635   14.9459   22.0586 N   0  0  0  0  0  0  0  0  0  0  0  0
    8.2565   15.8593   21.5774 C   0  0  0  0  0  0  0  0  0  0  0  0
    8.7758   16.5796   20.5668 O   0  0  0  0  0  0  0  0  0  0  0  0
    9.8998   15.8831   20.2326 C   0  0  0  0  0  0  0  0  0  0  0  0
   10.1649   15.8648   18.7684 C   0  0  0  0  0  0  0  0  0  0  0  0
    8.8529   15.3595   18.1706 C   0  0  0  0  0  0  0  0  0  0  0  0
   11.3943   14.9778   18.4956 C   0  0  0  0  0  0  0  0  0  0  0  0
   10.1817   17.2381   18.1269 C   0  0  0  0  0  0  0  0  0  0  0  0
    8.8184   11.6578   25.0149 C   0  0  0  0  0  0  0  0  0  0  0  0
    8.0330   12.4171   25.9025 C   0  0  0  0  0  0  0  0  0  0  0  0
    6.9723   11.7920   26.5509 C   0  0  0  0  0  0  0  0  0  0  0  0
    6.2364   12.4894   27.4270 F   0  0  0  0  0  0  0  0  0  0  0  0
    6.6747   10.4552   26.3296 C   0  0  0  0  0  0  0  0  0  0  0  0
    7.4290    9.7008   25.4270 C   0  0  0  0  0  0  0  0  0  0  0  0
    8.4896   10.3280   24.7662 C   0  0  0  0  0  0  0  0  0  0  0  0
  1  2  1  0
  2  3  1  0
  3  4  2  0
  4  5  1  0
  5  6  2  0
  5  7  1  0
  7  8  1  0
  8  9  1  0
  9 10  1  0
 10 11  2  0
 11 12  1  0
 12 13  1  0
 13 14  1  0
 14 15  1  0
 14 16  1  0
 14 17  1  0
  4 18  1  0
 18 19  2  0
 19 20  1  0
 20 21  1  0
 20 22  2  0
 22 23  1  0
 23 24  2  0
 24  2  1  0
 13  9  2  0
 24 18  1  0
M  END
>  <energy_score>  (3535) 
-9.77872

>  <inchikey>  (3535) 
OMKLADFEHHXZKJ-UHFFFAOYSA-N

>  <smiles>  (3535) 
Cn1nc(C(=O)NCc2ncoc2C(C)(C)C)c2cc(F)ccc21

>  <ref_pdb>  (3535) 
A0514a

>  <alias>  (3535) 
OMKLADFEHHXZKJ-UHFFFAOYSA-N-P126-P126-P177-601502

>  <HIPPO Pose ID>  (3535) 
502894

>  <name>  (3535) 
OMKLADFEHHXZKJ-UHFFFAOYSA-N-P126-P126-P177-601502

>  <HIPPO Compound ID>  (3535) 
299265

>  <ref_mols>  (3535) 
A3403a,A2290a

>  <distance_score>  (3535) 
1.197261

>  <inspiration_score>  (3535) 
None

$$$$
OMKLADFEHHXZKJ-UHFFFAOYSA-N-P177-P126-P177-601502
     RDKit          3D

 24 26  0  0  0  0  0  0  0  0999 V2000
    9.0684    9.3083   23.2120 C   0  0  0  0  0  0  0  0  0  0  0  0
    8.8622   10.5317   23.9573 N   0  0  0  0  0  0  0  0  0  0  0  0
    9.6444   11.5988   23.7130 N   0  0  0  0  0  0  0  0  0  0  0  0
    9.2713   12.4923   24.6515 C   0  0  0  0  0  0  0  0  0  0  0  0
    9.9115   13.7901   24.7875 C   0  0  0  0  0  0  0  0  0  0  0  0
   10.0258   14.3376   25.8033 O   0  0  0  0  0  0  0  0  0  0  0  0
   10.3297   14.2058   23.3970 N   0  0  0  0  0  0  0  0  0  0  0  0
   10.8885   15.4068   22.9322 C   0  0  0  0  0  0  0  0  0  0  0  0
   10.1144   16.0630   21.8574 C   0  0  0  0  0  0  0  0  0  0  0  0
    8.8667   16.6187   21.9781 N   0  0  0  0  0  0  0  0  0  0  0  0
    8.6876   17.2457   20.8379 C   0  0  0  0  0  0  0  0  0  0  0  0
    9.5979   16.9533   19.8786 O   0  0  0  0  0  0  0  0  0  0  0  0
   10.4680   16.1473   20.5382 C   0  0  0  0  0  0  0  0  0  0  0  0
   11.2204   15.1609   19.7757 C   0  0  0  0  0  0  0  0  0  0  0  0
   11.1941   15.3693   18.2886 C   0  0  0  0  0  0  0  0  0  0  0  0
   10.3267   13.9909   20.0229 C   0  0  0  0  0  0  0  0  0  0  0  0
   12.5901   14.7942   20.2960 C   0  0  0  0  0  0  0  0  0  0  0  0
    8.1913   12.0458   25.4196 C   0  0  0  0  0  0  0  0  0  0  0  0
    7.4083   12.6029   26.4431 C   0  0  0  0  0  0  0  0  0  0  0  0
    6.4065   11.8216   26.9942 C   0  0  0  0  0  0  0  0  0  0  0  0
    5.6642   12.3097   27.9966 F   0  0  0  0  0  0  0  0  0  0  0  0
    6.1844   10.5293   26.5531 C   0  0  0  0  0  0  0  0  0  0  0  0
    6.9504    9.9838   25.5198 C   0  0  0  0  0  0  0  0  0  0  0  0
    7.9485   10.7628   24.9561 C   0  0  0  0  0  0  0  0  0  0  0  0
  1  2  1  0
  2  3  1  0
  3  4  2  0
  4  5  1  0
  5  6  2  0
  5  7  1  0
  7  8  1  0
  8  9  1  0
  9 10  1  0
 10 11  2  0
 11 12  1  0
 12 13  1  0
 13 14  1  0
 14 15  1  0
 14 16  1  0
 14 17  1  0
  4 18  1  0
 18 19  2  0
 19 20  1  0
 20 21  1  0
 20 22  2  0
 22 23  1  0
 23 24  2  0
 24  2  1  0
 13  9  2  0
 24 18  1  0
M  END
>  <energy_score>  (3536) 
-16.19797

>  <inchikey>  (3536) 
OMKLADFEHHXZKJ-UHFFFAOYSA-N

>  <smiles>  (3536) 
Cn1nc(C(=O)NCc2ncoc2C(C)(C)C)c2cc(F)ccc21

>  <ref_pdb>  (3536) 
A0514a

>  <alias>  (3536) 
OMKLADFEHHXZKJ-UHFFFAOYSA-N-P177-P126-P177-601502

>  <HIPPO Pose ID>  (3536) 
502895

>  <name>  (3536) 
OMKLADFEHHXZKJ-UHFFFAOYSA-N-P177-P126-P177-601502

>  <HIPPO Compound ID>  (3536) 
299265

>  <ref_mols>  (3536) 
A3403a,A2290a

>  <distance_score>  (3536) 
1.44075

>  <inspiration_score>  (3536) 
None

$$$$
VVLKOEJWJQOQQN-UHFFFAOYSA-N-P126-P126-P177-601502
     RDKit          3D

 24 26  0  0  0  0  0  0  0  0999 V2000
    9.4376    8.7082   23.0989 C   0  0  0  0  0  0  0  0  0  0  0  0
    9.3428    9.9976   23.7379 N   0  0  0  0  0  0  0  0  0  0  0  0
   10.1715   10.9671   23.3237 N   0  0  0  0  0  0  0  0  0  0  0  0
    9.8657   12.0208   24.0997 C   0  0  0  0  0  0  0  0  0  0  0  0
   10.6104   13.2775   23.9798 C   0  0  0  0  0  0  0  0  0  0  0  0
   10.5929   14.0828   24.8199 O   0  0  0  0  0  0  0  0  0  0  0  0
   11.2481   13.3072   22.5910 N   0  0  0  0  0  0  0  0  0  0  0  0
   11.9147   14.3565   21.9031 C   0  0  0  0  0  0  0  0  0  0  0  0
   10.9190   14.9849   21.0037 C   0  0  0  0  0  0  0  0  0  0  0  0
    9.8875   15.7331   21.4950 N   0  0  0  0  0  0  0  0  0  0  0  0
    9.3683   16.3143   20.4424 C   0  0  0  0  0  0  0  0  0  0  0  0
    9.8626   15.8732   19.2592 O   0  0  0  0  0  0  0  0  0  0  0  0
   10.8599   15.0101   19.6324 C   0  0  0  0  0  0  0  0  0  0  0  0
   11.7115   14.4159   18.6125 C   0  0  0  0  0  0  0  0  0  0  0  0
   12.7829   13.7998   19.1852 F   0  0  0  0  0  0  0  0  0  0  0  0
   11.0885   13.4604   17.9055 F   0  0  0  0  0  0  0  0  0  0  0  0
   12.2301   15.3019   17.7484 F   0  0  0  0  0  0  0  0  0  0  0  0
    8.7666   11.7435   24.9486 C   0  0  0  0  0  0  0  0  0  0  0  0
    8.0006   12.4767   25.8740 C   0  0  0  0  0  0  0  0  0  0  0  0
    6.9748   11.8241   26.5517 C   0  0  0  0  0  0  0  0  0  0  0  0
    6.2541   12.4987   27.4576 F   0  0  0  0  0  0  0  0  0  0  0  0
    6.6998   10.4814   26.3338 C   0  0  0  0  0  0  0  0  0  0  0  0
    7.4460    9.7454   25.4101 C   0  0  0  0  0  0  0  0  0  0  0  0
    8.4675   10.4031   24.7162 C   0  0  0  0  0  0  0  0  0  0  0  0
  1  2  1  0
  2  3  1  0
  3  4  2  0
  4  5  1  0
  5  6  2  0
  5  7  1  0
  7  8  1  0
  8  9  1  0
  9 10  1  0
 10 11  2  0
 11 12  1  0
 12 13  1  0
 13 14  1  0
 14 15  1  0
 14 16  1  0
 14 17  1  0
  4 18  1  0
 18 19  2  0
 19 20  1  0
 20 21  1  0
 20 22  2  0
 22 23  1  0
 23 24  2  0
 24  2  1  0
 13  9  2  0
 24 18  1  0
M  END
>  <energy_score>  (3537) 
-37.986783

>  <inchikey>  (3537) 
VVLKOEJWJQOQQN-UHFFFAOYSA-N

>  <smiles>  (3537) 
Cn1nc(C(=O)NCc2ncoc2C(F)(F)F)c2cc(F)ccc21

>  <ref_pdb>  (3537) 
A0514a

>  <alias>  (3537) 
VVLKOEJWJQOQQN-UHFFFAOYSA-N-P126-P126-P177-601502

>  <HIPPO Pose ID>  (3537) 
502896

>  <name>  (3537) 
VVLKOEJWJQOQQN-UHFFFAOYSA-N-P126-P126-P177-601502

>  <HIPPO Compound ID>  (3537) 
299266

>  <ref_mols>  (3537) 
A3403a,A2290a

>  <distance_score>  (3537) 
0.846957

>  <inspiration_score>  (3537) 
None

$$$$
VVLKOEJWJQOQQN-UHFFFAOYSA-N-P177-P126-P177-601502
     RDKit          3D

 24 26  0  0  0  0  0  0  0  0999 V2000
    9.0761    9.0467   23.1227 C   0  0  0  0  0  0  0  0  0  0  0  0
    9.0031   10.3648   23.7071 N   0  0  0  0  0  0  0  0  0  0  0  0
    9.8299   11.3187   23.2606 N   0  0  0  0  0  0  0  0  0  0  0  0
    9.5763   12.3820   24.0451 C   0  0  0  0  0  0  0  0  0  0  0  0
   10.3289   13.6340   23.8926 C   0  0  0  0  0  0  0  0  0  0  0  0
   10.3688   14.4332   24.7377 O   0  0  0  0  0  0  0  0  0  0  0  0
   10.9497   13.6359   22.4964 N   0  0  0  0  0  0  0  0  0  0  0  0
   11.6661   14.6468   21.8081 C   0  0  0  0  0  0  0  0  0  0  0  0
   10.7246   15.3669   20.9319 C   0  0  0  0  0  0  0  0  0  0  0  0
    9.7617   16.1997   21.4397 N   0  0  0  0  0  0  0  0  0  0  0  0
    9.2254   16.7565   20.3825 C   0  0  0  0  0  0  0  0  0  0  0  0
    9.7023   16.2908   19.1935 O   0  0  0  0  0  0  0  0  0  0  0  0
   10.6706   15.3949   19.5612 C   0  0  0  0  0  0  0  0  0  0  0  0
   11.4675   14.7198   18.5410 C   0  0  0  0  0  0  0  0  0  0  0  0
   12.5615   14.1309   19.0900 F   0  0  0  0  0  0  0  0  0  0  0  0
   10.7870   13.7135   17.9538 F   0  0  0  0  0  0  0  0  0  0  0  0
   11.9287   15.5421   17.5803 F   0  0  0  0  0  0  0  0  0  0  0  0
    8.5275   12.1134   24.9562 C   0  0  0  0  0  0  0  0  0  0  0  0
    7.8476   12.8438   25.9466 C   0  0  0  0  0  0  0  0  0  0  0  0
    6.8274   12.2121   26.6504 C   0  0  0  0  0  0  0  0  0  0  0  0
    6.1841   12.8819   27.6161 F   0  0  0  0  0  0  0  0  0  0  0  0
    6.4736   10.8962   26.3921 C   0  0  0  0  0  0  0  0  0  0  0  0
    7.1390   10.1629   25.4083 C   0  0  0  0  0  0  0  0  0  0  0  0
    8.1642   10.7935   24.7034 C   0  0  0  0  0  0  0  0  0  0  0  0
  1  2  1  0
  2  3  1  0
  3  4  2  0
  4  5  1  0
  5  6  2  0
  5  7  1  0
  7  8  1  0
  8  9  1  0
  9 10  1  0
 10 11  2  0
 11 12  1  0
 12 13  1  0
 13 14  1  0
 14 15  1  0
 14 16  1  0
 14 17  1  0
  4 18  1  0
 18 19  2  0
 19 20  1  0
 20 21  1  0
 20 22  2  0
 22 23  1  0
 23 24  2  0
 24  2  1  0
 13  9  2  0
 24 18  1  0
M  END
>  <energy_score>  (3538) 
-39.621395

>  <inchikey>  (3538) 
VVLKOEJWJQOQQN-UHFFFAOYSA-N

>  <smiles>  (3538) 
Cn1nc(C(=O)NCc2ncoc2C(F)(F)F)c2cc(F)ccc21

>  <ref_pdb>  (3538) 
A0514a

>  <alias>  (3538) 
VVLKOEJWJQOQQN-UHFFFAOYSA-N-P177-P126-P177-601502

>  <HIPPO Pose ID>  (3538) 
502897

>  <name>  (3538) 
VVLKOEJWJQOQQN-UHFFFAOYSA-N-P177-P126-P177-601502

>  <HIPPO Compound ID>  (3538) 
299266

>  <ref_mols>  (3538) 
A3403a,A2290a

>  <distance_score>  (3538) 
0.795929

>  <inspiration_score>  (3538) 
None

$$$$
TWQUCOYSYRVAAK-UHFFFAOYSA-N-P126-P126-P177-601502
     RDKit          3D

 24 26  0  0  0  0  0  0  0  0999 V2000
    9.5337    8.7135   23.0202 C   0  0  0  0  0  0  0  0  0  0  0  0
    9.4032   10.0269   23.6041 N   0  0  0  0  0  0  0  0  0  0  0  0
   10.1627   11.0201   23.1151 N   0  0  0  0  0  0  0  0  0  0  0  0
    9.8461   12.0862   23.8660 C   0  0  0  0  0  0  0  0  0  0  0  0
   10.5309   13.3723   23.6835 C   0  0  0  0  0  0  0  0  0  0  0  0
   10.5589   14.1556   24.5445 O   0  0  0  0  0  0  0  0  0  0  0  0
   11.0634   13.4528   22.2495 N   0  0  0  0  0  0  0  0  0  0  0  0
   11.6564   14.5391   21.5404 C   0  0  0  0  0  0  0  0  0  0  0  0
   10.6478   15.2026   20.6722 C   0  0  0  0  0  0  0  0  0  0  0  0
   10.5416   15.1549   19.3059 C   0  0  0  0  0  0  0  0  0  0  0  0
    9.6899   16.1371   18.8994 O   0  0  0  0  0  0  0  0  0  0  0  0
    9.3107   16.7770   20.0563 C   0  0  0  0  0  0  0  0  0  0  0  0
    8.5631   18.0863   19.8876 C   0  0  0  0  0  0  0  0  0  0  0  0
    8.6202   18.8480   21.0042 F   0  0  0  0  0  0  0  0  0  0  0  0
    7.2575   17.9718   19.5776 F   0  0  0  0  0  0  0  0  0  0  0  0
    9.0797   18.8190   18.8604 F   0  0  0  0  0  0  0  0  0  0  0  0
    9.7834   16.1695   21.1394 N   0  0  0  0  0  0  0  0  0  0  0  0
    8.8031   11.7863   24.7818 C   0  0  0  0  0  0  0  0  0  0  0  0
    8.0521   12.5119   25.7262 C   0  0  0  0  0  0  0  0  0  0  0  0
    7.0781   11.8393   26.4605 C   0  0  0  0  0  0  0  0  0  0  0  0
    6.3696   12.5099   27.3788 F   0  0  0  0  0  0  0  0  0  0  0  0
    6.8407   10.4830   26.2835 C   0  0  0  0  0  0  0  0  0  0  0  0
    7.5776    9.7511   25.3494 C   0  0  0  0  0  0  0  0  0  0  0  0
    8.5465   10.4294   24.6003 C   0  0  0  0  0  0  0  0  0  0  0  0
  1  2  1  0
  2  3  1  0
  3  4  2  0
  4  5  1  0
  5  6  2  0
  5  7  1  0
  7  8  1  0
  8  9  1  0
  9 10  2  0
 10 11  1  0
 11 12  1  0
 12 13  1  0
 13 14  1  0
 13 15  1  0
 13 16  1  0
 12 17  2  0
  4 18  1  0
 18 19  2  0
 19 20  1  0
 20 21  1  0
 20 22  2  0
 22 23  1  0
 23 24  2  0
 24  2  1  0
 17  9  1  0
 24 18  1  0
M  END
>  <energy_score>  (3539) 
-7.848666

>  <inchikey>  (3539) 
TWQUCOYSYRVAAK-UHFFFAOYSA-N

>  <smiles>  (3539) 
Cn1nc(C(=O)NCc2coc(C(F)(F)F)n2)c2cc(F)ccc21

>  <ref_pdb>  (3539) 
A0514a

>  <alias>  (3539) 
TWQUCOYSYRVAAK-UHFFFAOYSA-N-P126-P126-P177-601502

>  <HIPPO Pose ID>  (3539) 
502898

>  <name>  (3539) 
TWQUCOYSYRVAAK-UHFFFAOYSA-N-P126-P126-P177-601502

>  <HIPPO Compound ID>  (3539) 
299267

>  <ref_mols>  (3539) 
A3403a,A2290a

>  <distance_score>  (3539) 
0.664679

>  <inspiration_score>  (3539) 
None

$$$$
TWQUCOYSYRVAAK-UHFFFAOYSA-N-P177-P126-P177-601502
     RDKit          3D

 24 26  0  0  0  0  0  0  0  0999 V2000
    9.0527    9.0143   23.0956 C   0  0  0  0  0  0  0  0  0  0  0  0
    9.0522   10.3561   23.6282 N   0  0  0  0  0  0  0  0  0  0  0  0
    9.9099   11.2453   23.1246 N   0  0  0  0  0  0  0  0  0  0  0  0
    9.7436   12.3579   23.8594 C   0  0  0  0  0  0  0  0  0  0  0  0
   10.5950   13.5418   23.6108 C   0  0  0  0  0  0  0  0  0  0  0  0
   10.7161   14.3939   24.3976 O   0  0  0  0  0  0  0  0  0  0  0  0
   11.2088   13.3831   22.2123 N   0  0  0  0  0  0  0  0  0  0  0  0
   12.0214   14.2755   21.4482 C   0  0  0  0  0  0  0  0  0  0  0  0
   11.1249   15.1587   20.6943 C   0  0  0  0  0  0  0  0  0  0  0  0
   10.8085   15.1885   19.3575 C   0  0  0  0  0  0  0  0  0  0  0  0
    9.8530   16.1410   19.1743 O   0  0  0  0  0  0  0  0  0  0  0  0
    9.6566   16.6635   20.4311 C   0  0  0  0  0  0  0  0  0  0  0  0
    8.5165   17.5892   20.6312 C   0  0  0  0  0  0  0  0  0  0  0  0
    8.8236   18.6671   21.3888 F   0  0  0  0  0  0  0  0  0  0  0  0
    7.5440   16.8748   21.2547 F   0  0  0  0  0  0  0  0  0  0  0  0
    8.0160   18.0673   19.4600 F   0  0  0  0  0  0  0  0  0  0  0  0
   10.4210   16.1180   21.3568 N   0  0  0  0  0  0  0  0  0  0  0  0
    8.6999   12.1801   24.8067 C   0  0  0  0  0  0  0  0  0  0  0  0
    8.0795   12.9783   25.7832 C   0  0  0  0  0  0  0  0  0  0  0  0
    7.0485   12.4217   26.5381 C   0  0  0  0  0  0  0  0  0  0  0  0
    6.4649   13.1607   27.4912 F   0  0  0  0  0  0  0  0  0  0  0  0
    6.6231   11.1137   26.3459 C   0  0  0  0  0  0  0  0  0  0  0  0
    7.2253   10.3080   25.3791 C   0  0  0  0  0  0  0  0  0  0  0  0
    8.2612   10.8663   24.6241 C   0  0  0  0  0  0  0  0  0  0  0  0
  1  2  1  0
  2  3  1  0
  3  4  2  0
  4  5  1  0
  5  6  2  0
  5  7  1  0
  7  8  1  0
  8  9  1  0
  9 10  2  0
 10 11  1  0
 11 12  1  0
 12 13  1  0
 13 14  1  0
 13 15  1  0
 13 16  1  0
 12 17  2  0
  4 18  1  0
 18 19  2  0
 19 20  1  0
 20 21  1  0
 20 22  2  0
 22 23  1  0
 23 24  2  0
 24  2  1  0
 17  9  1  0
 24 18  1  0
M  END
>  <energy_score>  (3540) 
-8.443044

>  <inchikey>  (3540) 
TWQUCOYSYRVAAK-UHFFFAOYSA-N

>  <smiles>  (3540) 
Cn1nc(C(=O)NCc2coc(C(F)(F)F)n2)c2cc(F)ccc21

>  <ref_pdb>  (3540) 
A0514a

>  <alias>  (3540) 
TWQUCOYSYRVAAK-UHFFFAOYSA-N-P177-P126-P177-601502

>  <HIPPO Pose ID>  (3540) 
502899

>  <name>  (3540) 
TWQUCOYSYRVAAK-UHFFFAOYSA-N-P177-P126-P177-601502

>  <HIPPO Compound ID>  (3540) 
299267

>  <ref_mols>  (3540) 
A3403a,A2290a

>  <distance_score>  (3540) 
0.642318

>  <inspiration_score>  (3540) 
None

$$$$
ZAFDCNLACOFECS-UHFFFAOYSA-N-P126-P126-P177-601502
     RDKit          3D

 24 26  0  0  0  0  0  0  0  0999 V2000
    9.5236    8.7225   23.0308 C   0  0  0  0  0  0  0  0  0  0  0  0
    9.4022   10.0358   23.6163 N   0  0  0  0  0  0  0  0  0  0  0  0
   10.1729   11.0241   23.1328 N   0  0  0  0  0  0  0  0  0  0  0  0
    9.8537   12.0921   23.8814 C   0  0  0  0  0  0  0  0  0  0  0  0
   10.5429   13.3744   23.6963 C   0  0  0  0  0  0  0  0  0  0  0  0
   10.6493   14.1295   24.5765 O   0  0  0  0  0  0  0  0  0  0  0  0
   11.0119   13.4721   22.2415 N   0  0  0  0  0  0  0  0  0  0  0  0
   11.6239   14.5484   21.5359 C   0  0  0  0  0  0  0  0  0  0  0  0
   10.6268   15.2206   20.6637 C   0  0  0  0  0  0  0  0  0  0  0  0
   10.5254   15.1739   19.2973 C   0  0  0  0  0  0  0  0  0  0  0  0
    9.6808   16.1608   18.8882 O   0  0  0  0  0  0  0  0  0  0  0  0
    9.2989   16.8002   20.0446 C   0  0  0  0  0  0  0  0  0  0  0  0
    8.5502   18.1076   19.8757 C   0  0  0  0  0  0  0  0  0  0  0  0
    7.2466   17.9901   19.5585 F   0  0  0  0  0  0  0  0  0  0  0  0
    8.6009   18.8678   20.9934 F   0  0  0  0  0  0  0  0  0  0  0  0
    9.0718   18.8428   18.8528 F   0  0  0  0  0  0  0  0  0  0  0  0
    9.7683   16.1931   21.1287 N   0  0  0  0  0  0  0  0  0  0  0  0
    8.8089   11.7960   24.7952 C   0  0  0  0  0  0  0  0  0  0  0  0
    8.0564   12.5263   25.7359 C   0  0  0  0  0  0  0  0  0  0  0  0
    7.0698   11.8609   26.4678 C   0  0  0  0  0  0  0  0  0  0  0  0
    6.0565   12.8181   27.7460 Br  0  0  0  0  0  0  0  0  0  0  0  0
    6.8303   10.5022   26.2851 C   0  0  0  0  0  0  0  0  0  0  0  0
    7.5717    9.7684   25.3550 C   0  0  0  0  0  0  0  0  0  0  0  0
    8.5469   10.4414   24.6116 C   0  0  0  0  0  0  0  0  0  0  0  0
  1  2  1  0
  2  3  1  0
  3  4  2  0
  4  5  1  0
  5  6  2  0
  5  7  1  0
  7  8  1  0
  8  9  1  0
  9 10  2  0
 10 11  1  0
 11 12  1  0
 12 13  1  0
 13 14  1  0
 13 15  1  0
 13 16  1  0
 12 17  2  0
  4 18  1  0
 18 19  2  0
 19 20  1  0
 20 21  1  0
 20 22  2  0
 22 23  1  0
 23 24  2  0
 24  2  1  0
 17  9  1  0
 24 18  1  0
M  END
>  <energy_score>  (3541) 
-3.286362

>  <inchikey>  (3541) 
ZAFDCNLACOFECS-UHFFFAOYSA-N

>  <smiles>  (3541) 
Cn1nc(C(=O)NCc2coc(C(F)(F)F)n2)c2cc(Br)ccc21

>  <ref_pdb>  (3541) 
A0514a

>  <alias>  (3541) 
ZAFDCNLACOFECS-UHFFFAOYSA-N-P126-P126-P177-601502

>  <HIPPO Pose ID>  (3541) 
502900

>  <name>  (3541) 
ZAFDCNLACOFECS-UHFFFAOYSA-N-P126-P126-P177-601502

>  <HIPPO Compound ID>  (3541) 
299268

>  <ref_mols>  (3541) 
A3403a,A2290a

>  <distance_score>  (3541) 
0.664011

>  <inspiration_score>  (3541) 
None

$$$$
ZAFDCNLACOFECS-UHFFFAOYSA-N-P177-P126-P177-601502
     RDKit          3D

 24 26  0  0  0  0  0  0  0  0999 V2000
    9.0505    9.0197   23.0934 C   0  0  0  0  0  0  0  0  0  0  0  0
    9.0531   10.3625   23.6233 N   0  0  0  0  0  0  0  0  0  0  0  0
    9.9118   11.2517   23.1184 N   0  0  0  0  0  0  0  0  0  0  0  0
    9.7484   12.3630   23.8562 C   0  0  0  0  0  0  0  0  0  0  0  0
   10.5951   13.5518   23.6060 C   0  0  0  0  0  0  0  0  0  0  0  0
   10.6558   14.4367   24.3634 O   0  0  0  0  0  0  0  0  0  0  0  0
   11.2500   13.3735   22.2276 N   0  0  0  0  0  0  0  0  0  0  0  0
   12.0372   14.2774   21.4493 C   0  0  0  0  0  0  0  0  0  0  0  0
   11.1263   15.1503   20.7000 C   0  0  0  0  0  0  0  0  0  0  0  0
   10.8084   15.1802   19.3634 C   0  0  0  0  0  0  0  0  0  0  0  0
    9.8516   16.1314   19.1810 O   0  0  0  0  0  0  0  0  0  0  0  0
    9.6551   16.6531   20.4383 C   0  0  0  0  0  0  0  0  0  0  0  0
    8.5168   17.5817   20.6378 C   0  0  0  0  0  0  0  0  0  0  0  0
    7.5419   16.8708   21.2609 F   0  0  0  0  0  0  0  0  0  0  0  0
    8.8264   18.6602   21.3934 F   0  0  0  0  0  0  0  0  0  0  0  0
    8.0188   18.0601   19.4654 F   0  0  0  0  0  0  0  0  0  0  0  0
   10.4200   16.1069   21.3633 N   0  0  0  0  0  0  0  0  0  0  0  0
    8.7051   12.1837   24.8052 C   0  0  0  0  0  0  0  0  0  0  0  0
    8.0858   12.9813   25.7848 C   0  0  0  0  0  0  0  0  0  0  0  0
    7.0504   12.4275   26.5434 C   0  0  0  0  0  0  0  0  0  0  0  0
    6.2272   13.4731   27.8880 Br  0  0  0  0  0  0  0  0  0  0  0  0
    6.6238   11.1177   26.3417 C   0  0  0  0  0  0  0  0  0  0  0  0
    7.2268   10.3155   25.3716 C   0  0  0  0  0  0  0  0  0  0  0  0
    8.2646   10.8724   24.6202 C   0  0  0  0  0  0  0  0  0  0  0  0
  1  2  1  0
  2  3  1  0
  3  4  2  0
  4  5  1  0
  5  6  2  0
  5  7  1  0
  7  8  1  0
  8  9  1  0
  9 10  2  0
 10 11  1  0
 11 12  1  0
 12 13  1  0
 13 14  1  0
 13 15  1  0
 13 16  1  0
 12 17  2  0
  4 18  1  0
 18 19  2  0
 19 20  1  0
 20 21  1  0
 20 22  2  0
 22 23  1  0
 23 24  2  0
 24  2  1  0
 17  9  1  0
 24 18  1  0
M  END
>  <energy_score>  (3542) 
-4.32809

>  <inchikey>  (3542) 
ZAFDCNLACOFECS-UHFFFAOYSA-N

>  <smiles>  (3542) 
Cn1nc(C(=O)NCc2coc(C(F)(F)F)n2)c2cc(Br)ccc21

>  <ref_pdb>  (3542) 
A0514a

>  <alias>  (3542) 
ZAFDCNLACOFECS-UHFFFAOYSA-N-P177-P126-P177-601502

>  <HIPPO Pose ID>  (3542) 
502901

>  <name>  (3542) 
ZAFDCNLACOFECS-UHFFFAOYSA-N-P177-P126-P177-601502

>  <HIPPO Compound ID>  (3542) 
299268

>  <ref_mols>  (3542) 
A3403a,A2290a

>  <distance_score>  (3542) 
0.64368

>  <inspiration_score>  (3542) 
None

$$$$
KEFWWFCYPKJAPC-UHFFFAOYSA-N-P126-P126-P177-601502
     RDKit          3D

 24 26  0  0  0  0  0  0  0  0999 V2000
   11.8872   14.3462   18.5288 C   0  0  0  0  0  0  0  0  0  0  0  0
   11.2373   14.8460   19.7165 C   0  0  0  0  0  0  0  0  0  0  0  0
   10.1815   15.6602   19.5033 O   0  0  0  0  0  0  0  0  0  0  0  0
    9.8383   16.0362   20.7561 C   0  0  0  0  0  0  0  0  0  0  0  0
    8.5588   16.7175   20.8709 C   0  0  0  0  0  0  0  0  0  0  0  0
    8.5944   18.1440   21.2992 C   0  0  0  0  0  0  0  0  0  0  0  0
    7.6476   15.7391   21.6693 C   0  0  0  0  0  0  0  0  0  0  0  0
   10.5539   15.5131   21.7196 N   0  0  0  0  0  0  0  0  0  0  0  0
   11.4499   14.7338   21.0662 C   0  0  0  0  0  0  0  0  0  0  0  0
   12.3691   13.8844   21.8301 C   0  0  0  0  0  0  0  0  0  0  0  0
   11.5303   12.9932   22.5593 N   0  0  0  0  0  0  0  0  0  0  0  0
   10.8631   13.1504   23.9269 C   0  0  0  0  0  0  0  0  0  0  0  0
   10.9508   14.0016   24.7170 O   0  0  0  0  0  0  0  0  0  0  0  0
    9.9635   12.0027   24.0977 C   0  0  0  0  0  0  0  0  0  0  0  0
   10.1713   10.8792   23.3865 N   0  0  0  0  0  0  0  0  0  0  0  0
    9.2804   10.0119   23.8770 N   0  0  0  0  0  0  0  0  0  0  0  0
    9.3788    8.6363   23.4687 C   0  0  0  0  0  0  0  0  0  0  0  0
    8.4218   10.5544   24.8001 C   0  0  0  0  0  0  0  0  0  0  0  0
    7.3494   10.0204   25.5261 C   0  0  0  0  0  0  0  0  0  0  0  0
    6.6614   10.8733   26.3927 C   0  0  0  0  0  0  0  0  0  0  0  0
    7.0402   12.2066   26.5257 C   0  0  0  0  0  0  0  0  0  0  0  0
    6.0884   13.3265   27.7166 Br  0  0  0  0  0  0  0  0  0  0  0  0
    8.1222   12.7290   25.8123 C   0  0  0  0  0  0  0  0  0  0  0  0
    8.8299   11.8788   24.9419 C   0  0  0  0  0  0  0  0  0  0  0  0
  1  2  1  0
  2  3  1  0
  3  4  1  0
  4  5  1  0
  5  6  1  0
  5  7  1  0
  4  8  2  0
  8  9  1  0
  9 10  1  0
 10 11  1  0
 11 12  1  0
 12 13  2  0
 12 14  1  0
 14 15  2  0
 15 16  1  0
 16 17  1  0
 16 18  1  0
 18 19  2  0
 19 20  1  0
 20 21  2  0
 21 22  1  0
 21 23  1  0
 23 24  2  0
  9  2  2  0
 24 14  1  0
 24 18  1  0
M  END
>  <energy_score>  (3543) 
-3.254234

>  <inchikey>  (3543) 
KEFWWFCYPKJAPC-UHFFFAOYSA-N

>  <smiles>  (3543) 
Cc1oc(C(C)C)nc1CNC(=O)c1nn(C)c2ccc(Br)cc12

>  <ref_pdb>  (3543) 
A0514a

>  <alias>  (3543) 
KEFWWFCYPKJAPC-UHFFFAOYSA-N-P126-P126-P177-601502

>  <HIPPO Pose ID>  (3543) 
502902

>  <name>  (3543) 
KEFWWFCYPKJAPC-UHFFFAOYSA-N-P126-P126-P177-601502

>  <HIPPO Compound ID>  (3543) 
299269

>  <ref_mols>  (3543) 
A3403a,A2290a

>  <distance_score>  (3543) 
0.861743

>  <inspiration_score>  (3543) 
None

$$$$
KEFWWFCYPKJAPC-UHFFFAOYSA-N-P177-P126-P177-601502
     RDKit          3D

 24 26  0  0  0  0  0  0  0  0999 V2000
   11.5348   14.7086   18.3601 C   0  0  0  0  0  0  0  0  0  0  0  0
   10.9197   15.2234   19.5720 C   0  0  0  0  0  0  0  0  0  0  0  0
    9.8383   16.0393   19.4278 O   0  0  0  0  0  0  0  0  0  0  0  0
    9.5308   16.3451   20.7150 C   0  0  0  0  0  0  0  0  0  0  0  0
    8.3441   17.1488   20.9938 C   0  0  0  0  0  0  0  0  0  0  0  0
    8.7507   18.5931   21.0762 C   0  0  0  0  0  0  0  0  0  0  0  0
    7.5687   16.4847   22.1448 C   0  0  0  0  0  0  0  0  0  0  0  0
   10.3340   15.8533   21.6232 N   0  0  0  0  0  0  0  0  0  0  0  0
   11.1715   15.0686   20.9123 C   0  0  0  0  0  0  0  0  0  0  0  0
   12.0859   14.1775   21.6239 C   0  0  0  0  0  0  0  0  0  0  0  0
   11.2672   13.2886   22.3799 N   0  0  0  0  0  0  0  0  0  0  0  0
   10.6402   13.4498   23.7694 C   0  0  0  0  0  0  0  0  0  0  0  0
   10.7532   14.3031   24.5555 O   0  0  0  0  0  0  0  0  0  0  0  0
    9.7540   12.2898   23.9791 C   0  0  0  0  0  0  0  0  0  0  0  0
    9.9056   11.1848   23.2277 N   0  0  0  0  0  0  0  0  0  0  0  0
    9.0128   10.3162   23.7047 N   0  0  0  0  0  0  0  0  0  0  0  0
    8.9898    8.9830   23.1566 C   0  0  0  0  0  0  0  0  0  0  0  0
    8.2162   10.8360   24.6896 C   0  0  0  0  0  0  0  0  0  0  0  0
    7.1526   10.3000   25.4182 C   0  0  0  0  0  0  0  0  0  0  0  0
    6.5488   11.1107   26.3811 C   0  0  0  0  0  0  0  0  0  0  0  0
    6.9975   12.4103   26.5967 C   0  0  0  0  0  0  0  0  0  0  0  0
    6.1687   13.4696   27.9267 Br  0  0  0  0  0  0  0  0  0  0  0  0
    8.0604   12.9432   25.8632 C   0  0  0  0  0  0  0  0  0  0  0  0
    8.6822   12.1344   24.8954 C   0  0  0  0  0  0  0  0  0  0  0  0
  1  2  1  0
  2  3  1  0
  3  4  1  0
  4  5  1  0
  5  6  1  0
  5  7  1  0
  4  8  2  0
  8  9  1  0
  9 10  1  0
 10 11  1  0
 11 12  1  0
 12 13  2  0
 12 14  1  0
 14 15  2  0
 15 16  1  0
 16 17  1  0
 16 18  1  0
 18 19  2  0
 19 20  1  0
 20 21  2  0
 21 22  1  0
 21 23  1  0
 23 24  2  0
  9  2  2  0
 24 14  1  0
 24 18  1  0
M  END
>  <energy_score>  (3544) 
-8.517688

>  <inchikey>  (3544) 
KEFWWFCYPKJAPC-UHFFFAOYSA-N

>  <smiles>  (3544) 
Cc1oc(C(C)C)nc1CNC(=O)c1nn(C)c2ccc(Br)cc12

>  <ref_pdb>  (3544) 
A0514a

>  <alias>  (3544) 
KEFWWFCYPKJAPC-UHFFFAOYSA-N-P177-P126-P177-601502

>  <HIPPO Pose ID>  (3544) 
502903

>  <name>  (3544) 
KEFWWFCYPKJAPC-UHFFFAOYSA-N-P177-P126-P177-601502

>  <HIPPO Compound ID>  (3544) 
299269

>  <ref_mols>  (3544) 
A3403a,A2290a

>  <distance_score>  (3544) 
0.769137

>  <inspiration_score>  (3544) 
None

$$$$
UDERYSJPOTXBRN-UHFFFAOYSA-N-P126-P126-P177-601502
     RDKit          3D

 24 26  0  0  0  0  0  0  0  0999 V2000
    9.3910    9.1967   23.4161 C   0  0  0  0  0  0  0  0  0  0  0  0
    8.9121   10.3783   24.1023 N   0  0  0  0  0  0  0  0  0  0  0  0
    9.2722   11.5840   23.6420 N   0  0  0  0  0  0  0  0  0  0  0  0
    8.6831   12.4576   24.4811 C   0  0  0  0  0  0  0  0  0  0  0  0
    8.5600   13.8848   24.1809 C   0  0  0  0  0  0  0  0  0  0  0  0
    8.5081   14.7086   24.9995 O   0  0  0  0  0  0  0  0  0  0  0  0
    8.4208   13.9853   22.6672 N   0  0  0  0  0  0  0  0  0  0  0  0
    8.0977   15.0899   21.8443 C   0  0  0  0  0  0  0  0  0  0  0  0
    9.1955   15.4987   20.9411 C   0  0  0  0  0  0  0  0  0  0  0  0
    8.9498   16.5969   20.1380 N   0  0  0  0  0  0  0  0  0  0  0  0
    9.7767   16.4555   19.1404 C   0  0  0  0  0  0  0  0  0  0  0  0
   10.6986   15.4967   19.3511 O   0  0  0  0  0  0  0  0  0  0  0  0
   10.4483   15.0186   20.6207 C   0  0  0  0  0  0  0  0  0  0  0  0
   11.6047   14.3087   21.2551 C   0  0  0  0  0  0  0  0  0  0  0  0
   12.6131   13.8959   20.1784 C   0  0  0  0  0  0  0  0  0  0  0  0
   12.3198   15.2970   22.1680 C   0  0  0  0  0  0  0  0  0  0  0  0
   11.3071   13.1480   22.1862 C   0  0  0  0  0  0  0  0  0  0  0  0
    7.9497   11.8093   25.4826 C   0  0  0  0  0  0  0  0  0  0  0  0
    7.1084   12.2472   26.5184 C   0  0  0  0  0  0  0  0  0  0  0  0
    6.3201   11.3035   27.1642 C   0  0  0  0  0  0  0  0  0  0  0  0
    5.1530   11.8484   28.5475 Br  0  0  0  0  0  0  0  0  0  0  0  0
    6.3548    9.9679   26.7838 C   0  0  0  0  0  0  0  0  0  0  0  0
    7.2065    9.5323   25.7634 C   0  0  0  0  0  0  0  0  0  0  0  0
    8.0142   10.4672   25.1356 C   0  0  0  0  0  0  0  0  0  0  0  0
  1  2  1  0
  2  3  1  0
  3  4  2  0
  4  5  1  0
  5  6  2  0
  5  7  1  0
  7  8  1  0
  8  9  1  0
  9 10  1  0
 10 11  2  0
 11 12  1  0
 12 13  1  0
 13 14  1  0
 14 15  1  0
 14 16  1  0
 14 17  1  0
  4 18  1  0
 18 19  2  0
 19 20  1  0
 20 21  1  0
 20 22  2  0
 22 23  1  0
 23 24  2  0
 24  2  1  0
 13  9  2  0
 24 18  1  0
M  END
>  <energy_score>  (3545) 
-23.600949

>  <inchikey>  (3545) 
UDERYSJPOTXBRN-UHFFFAOYSA-N

>  <smiles>  (3545) 
Cn1nc(C(=O)NCc2ncoc2C(C)(C)C)c2cc(Br)ccc21

>  <ref_pdb>  (3545) 
A0514a

>  <alias>  (3545) 
UDERYSJPOTXBRN-UHFFFAOYSA-N-P126-P126-P177-601502

>  <HIPPO Pose ID>  (3545) 
502904

>  <name>  (3545) 
UDERYSJPOTXBRN-UHFFFAOYSA-N-P126-P126-P177-601502

>  <HIPPO Compound ID>  (3545) 
299270

>  <ref_mols>  (3545) 
A3403a,A2290a

>  <distance_score>  (3545) 
1.844593

>  <inspiration_score>  (3545) 
None

$$$$
UDERYSJPOTXBRN-UHFFFAOYSA-N-P177-P126-P177-601502
     RDKit          3D

 24 26  0  0  0  0  0  0  0  0999 V2000
    8.9947    8.9561   23.1212 C   0  0  0  0  0  0  0  0  0  0  0  0
    8.9845   10.2556   23.7466 N   0  0  0  0  0  0  0  0  0  0  0  0
    9.8923   11.1520   23.3562 N   0  0  0  0  0  0  0  0  0  0  0  0
    9.7079   12.2001   24.1746 C   0  0  0  0  0  0  0  0  0  0  0  0
   10.5973   13.3568   24.1043 C   0  0  0  0  0  0  0  0  0  0  0  0
   10.7280   14.1011   24.9897 O   0  0  0  0  0  0  0  0  0  0  0  0
   11.1631   13.3945   22.6869 N   0  0  0  0  0  0  0  0  0  0  0  0
   11.9237   14.3864   22.0273 C   0  0  0  0  0  0  0  0  0  0  0  0
   10.9732   15.4331   21.5914 C   0  0  0  0  0  0  0  0  0  0  0  0
    9.8671   15.7619   22.3561 N   0  0  0  0  0  0  0  0  0  0  0  0
    9.2436   16.6796   21.6513 C   0  0  0  0  0  0  0  0  0  0  0  0
    9.8475   16.9820   20.4886 O   0  0  0  0  0  0  0  0  0  0  0  0
   10.7407   15.9503   20.3367 C   0  0  0  0  0  0  0  0  0  0  0  0
   10.7034   15.3223   18.9961 C   0  0  0  0  0  0  0  0  0  0  0  0
    9.2905   15.5805   18.5398 C   0  0  0  0  0  0  0  0  0  0  0  0
   11.7792   15.5165   17.9939 C   0  0  0  0  0  0  0  0  0  0  0  0
   10.8266   13.8657   19.1992 C   0  0  0  0  0  0  0  0  0  0  0  0
    8.5956   12.0077   25.0225 C   0  0  0  0  0  0  0  0  0  0  0  0
    7.9338   12.7748   25.9981 C   0  0  0  0  0  0  0  0  0  0  0  0
    6.8557   12.2050   26.6739 C   0  0  0  0  0  0  0  0  0  0  0  0
    5.9716   13.1959   28.0198 Br  0  0  0  0  0  0  0  0  0  0  0  0
    6.4385   10.9086   26.3949 C   0  0  0  0  0  0  0  0  0  0  0  0
    7.0820   10.1480   25.4158 C   0  0  0  0  0  0  0  0  0  0  0  0
    8.1534   10.7200   24.7344 C   0  0  0  0  0  0  0  0  0  0  0  0
  1  2  1  0
  2  3  1  0
  3  4  2  0
  4  5  1  0
  5  6  2  0
  5  7  1  0
  7  8  1  0
  8  9  1  0
  9 10  1  0
 10 11  2  0
 11 12  1  0
 12 13  1  0
 13 14  1  0
 14 15  1  0
 14 16  1  0
 14 17  1  0
  4 18  1  0
 18 19  2  0
 19 20  1  0
 20 21  1  0
 20 22  2  0
 22 23  1  0
 23 24  2  0
 24  2  1  0
 13  9  2  0
 24 18  1  0
M  END
>  <energy_score>  (3546) 
-6.326442

>  <inchikey>  (3546) 
UDERYSJPOTXBRN-UHFFFAOYSA-N

>  <smiles>  (3546) 
Cn1nc(C(=O)NCc2ncoc2C(C)(C)C)c2cc(Br)ccc21

>  <ref_pdb>  (3546) 
A0514a

>  <alias>  (3546) 
UDERYSJPOTXBRN-UHFFFAOYSA-N-P177-P126-P177-601502

>  <HIPPO Pose ID>  (3546) 
502905

>  <name>  (3546) 
UDERYSJPOTXBRN-UHFFFAOYSA-N-P177-P126-P177-601502

>  <HIPPO Compound ID>  (3546) 
299270

>  <ref_mols>  (3546) 
A3403a,A2290a

>  <distance_score>  (3546) 
1.083692

>  <inspiration_score>  (3546) 
None

$$$$
HZGMGOIBAMJEDY-UHFFFAOYSA-N-P126-P126-P177-601502
     RDKit          3D

 24 26  0  0  0  0  0  0  0  0999 V2000
    9.4462    8.7158   23.0884 C   0  0  0  0  0  0  0  0  0  0  0  0
    9.3463   10.0018   23.7339 N   0  0  0  0  0  0  0  0  0  0  0  0
   10.1713   10.9780   23.3267 N   0  0  0  0  0  0  0  0  0  0  0  0
    9.8534   12.0273   24.1034 C   0  0  0  0  0  0  0  0  0  0  0  0
   10.5925   13.2859   23.9858 C   0  0  0  0  0  0  0  0  0  0  0  0
   10.6168   14.0717   24.8444 O   0  0  0  0  0  0  0  0  0  0  0  0
   11.1976   13.3310   22.5833 N   0  0  0  0  0  0  0  0  0  0  0  0
   11.8752   14.3768   21.9040 C   0  0  0  0  0  0  0  0  0  0  0  0
   10.8937   15.0064   20.9913 C   0  0  0  0  0  0  0  0  0  0  0  0
    9.8708   15.7773   21.4665 N   0  0  0  0  0  0  0  0  0  0  0  0
    9.3659   16.3516   20.4040 C   0  0  0  0  0  0  0  0  0  0  0  0
    9.8641   15.8922   19.2295 O   0  0  0  0  0  0  0  0  0  0  0  0
   10.8482   15.0205   19.6195 C   0  0  0  0  0  0  0  0  0  0  0  0
   11.7076   14.4150   18.6128 C   0  0  0  0  0  0  0  0  0  0  0  0
   12.7753   13.8025   19.1955 F   0  0  0  0  0  0  0  0  0  0  0  0
   11.0886   13.4595   17.9030 F   0  0  0  0  0  0  0  0  0  0  0  0
   12.2341   15.2965   17.7473 F   0  0  0  0  0  0  0  0  0  0  0  0
    8.7558   11.7402   24.9495 C   0  0  0  0  0  0  0  0  0  0  0  0
    7.9814   12.4672   25.8743 C   0  0  0  0  0  0  0  0  0  0  0  0
    6.9538   11.8079   26.5512 C   0  0  0  0  0  0  0  0  0  0  0  0
    5.9115   12.7571   27.8118 Br  0  0  0  0  0  0  0  0  0  0  0  0
    6.6958   10.4591   26.3283 C   0  0  0  0  0  0  0  0  0  0  0  0
    7.4531    9.7327   25.4051 C   0  0  0  0  0  0  0  0  0  0  0  0
    8.4681   10.3992   24.7132 C   0  0  0  0  0  0  0  0  0  0  0  0
  1  2  1  0
  2  3  1  0
  3  4  2  0
  4  5  1  0
  5  6  2  0
  5  7  1  0
  7  8  1  0
  8  9  1  0
  9 10  1  0
 10 11  2  0
 11 12  1  0
 12 13  1  0
 13 14  1  0
 14 15  1  0
 14 16  1  0
 14 17  1  0
  4 18  1  0
 18 19  2  0
 19 20  1  0
 20 21  1  0
 20 22  2  0
 22 23  1  0
 23 24  2  0
 24  2  1  0
 13  9  2  0
 24 18  1  0
M  END
>  <energy_score>  (3547) 
-32.510906

>  <inchikey>  (3547) 
HZGMGOIBAMJEDY-UHFFFAOYSA-N

>  <smiles>  (3547) 
Cn1nc(C(=O)NCc2ncoc2C(F)(F)F)c2cc(Br)ccc21

>  <ref_pdb>  (3547) 
A0514a

>  <alias>  (3547) 
HZGMGOIBAMJEDY-UHFFFAOYSA-N-P126-P126-P177-601502

>  <HIPPO Pose ID>  (3547) 
502906

>  <name>  (3547) 
HZGMGOIBAMJEDY-UHFFFAOYSA-N-P126-P126-P177-601502

>  <HIPPO Compound ID>  (3547) 
299271

>  <ref_mols>  (3547) 
A3403a,A2290a

>  <distance_score>  (3547) 
0.853941

>  <inspiration_score>  (3547) 
None

$$$$
HZGMGOIBAMJEDY-UHFFFAOYSA-N-P177-P126-P177-601502
     RDKit          3D

 24 26  0  0  0  0  0  0  0  0999 V2000
    9.0963    9.0444   23.0991 C   0  0  0  0  0  0  0  0  0  0  0  0
    9.0192   10.3597   23.6916 N   0  0  0  0  0  0  0  0  0  0  0  0
    9.8450   11.3198   23.2551 N   0  0  0  0  0  0  0  0  0  0  0  0
    9.5781   12.3816   24.0359 C   0  0  0  0  0  0  0  0  0  0  0  0
   10.3200   13.6407   23.8786 C   0  0  0  0  0  0  0  0  0  0  0  0
   10.2893   14.4765   24.6884 O   0  0  0  0  0  0  0  0  0  0  0  0
   10.9966   13.6124   22.5076 N   0  0  0  0  0  0  0  0  0  0  0  0
   11.6936   14.6258   21.8029 C   0  0  0  0  0  0  0  0  0  0  0  0
   10.7372   15.3455   20.9409 C   0  0  0  0  0  0  0  0  0  0  0  0
    9.7746   16.1702   21.4622 N   0  0  0  0  0  0  0  0  0  0  0  0
    9.2276   16.7327   20.4134 C   0  0  0  0  0  0  0  0  0  0  0  0
    9.6988   16.2806   19.2170 O   0  0  0  0  0  0  0  0  0  0  0  0
   10.6729   15.3848   19.5706 C   0  0  0  0  0  0  0  0  0  0  0  0
   11.4659   14.7228   18.5386 C   0  0  0  0  0  0  0  0  0  0  0  0
   12.5675   14.1366   19.0736 F   0  0  0  0  0  0  0  0  0  0  0  0
   10.7861   13.7208   17.9448 F   0  0  0  0  0  0  0  0  0  0  0  0
   11.9157   15.5587   17.5833 F   0  0  0  0  0  0  0  0  0  0  0  0
    8.5270   12.1043   24.9421 C   0  0  0  0  0  0  0  0  0  0  0  0
    7.8360   12.8290   25.9308 C   0  0  0  0  0  0  0  0  0  0  0  0
    6.8168   12.1898   26.6374 C   0  0  0  0  0  0  0  0  0  0  0  0
    5.8931   13.1301   27.9934 Br  0  0  0  0  0  0  0  0  0  0  0  0
    6.4802   10.8670   26.3739 C   0  0  0  0  0  0  0  0  0  0  0  0
    7.1570   10.1429   25.3902 C   0  0  0  0  0  0  0  0  0  0  0  0
    8.1764   10.7822   24.6875 C   0  0  0  0  0  0  0  0  0  0  0  0
  1  2  1  0
  2  3  1  0
  3  4  2  0
  4  5  1  0
  5  6  2  0
  5  7  1  0
  7  8  1  0
  8  9  1  0
  9 10  1  0
 10 11  2  0
 11 12  1  0
 12 13  1  0
 13 14  1  0
 14 15  1  0
 14 16  1  0
 14 17  1  0
  4 18  1  0
 18 19  2  0
 19 20  1  0
 20 21  1  0
 20 22  2  0
 22 23  1  0
 23 24  2  0
 24  2  1  0
 13  9  2  0
 24 18  1  0
M  END
>  <energy_score>  (3548) 
-34.408464

>  <inchikey>  (3548) 
HZGMGOIBAMJEDY-UHFFFAOYSA-N

>  <smiles>  (3548) 
Cn1nc(C(=O)NCc2ncoc2C(F)(F)F)c2cc(Br)ccc21

>  <ref_pdb>  (3548) 
A0514a

>  <alias>  (3548) 
HZGMGOIBAMJEDY-UHFFFAOYSA-N-P177-P126-P177-601502

>  <HIPPO Pose ID>  (3548) 
502907

>  <name>  (3548) 
HZGMGOIBAMJEDY-UHFFFAOYSA-N-P177-P126-P177-601502

>  <HIPPO Compound ID>  (3548) 
299271

>  <ref_mols>  (3548) 
A3403a,A2290a

>  <distance_score>  (3548) 
0.74686

>  <inspiration_score>  (3548) 
None

$$$$
YWVVPMBAVUTYBJ-UHFFFAOYSA-N-P126-P126-P177-601502
     RDKit          3D

 24 27  0  0  0  0  0  0  0  0999 V2000
   11.7111   14.3995   18.5921 C   0  0  0  0  0  0  0  0  0  0  0  0
   10.8239   14.9726   19.5950 C   0  0  0  0  0  0  0  0  0  0  0  0
    9.8601   15.8226   19.1526 O   0  0  0  0  0  0  0  0  0  0  0  0
    9.3841   16.4069   20.2936 C   0  0  0  0  0  0  0  0  0  0  0  0
    8.8200   17.8570   20.3004 C   0  0  0  0  0  0  0  0  0  0  0  0
    7.6265   18.5398   19.7506 C   0  0  0  0  0  0  0  0  0  0  0  0
    8.7796   18.4172   18.8646 C   0  0  0  0  0  0  0  0  0  0  0  0
    9.8162   15.8184   21.3891 N   0  0  0  0  0  0  0  0  0  0  0  0
   10.8267   14.9946   20.9638 C   0  0  0  0  0  0  0  0  0  0  0  0
   11.8058   14.4011   21.8985 C   0  0  0  0  0  0  0  0  0  0  0  0
   11.1484   13.3450   22.5802 N   0  0  0  0  0  0  0  0  0  0  0  0
   10.5695   13.2832   23.9918 C   0  0  0  0  0  0  0  0  0  0  0  0
   10.6034   14.0614   24.8566 O   0  0  0  0  0  0  0  0  0  0  0  0
    9.8446   12.0174   24.1103 C   0  0  0  0  0  0  0  0  0  0  0  0
   10.1796   10.9685   23.3405 N   0  0  0  0  0  0  0  0  0  0  0  0
    9.3531    9.9887   23.7340 N   0  0  0  0  0  0  0  0  0  0  0  0
    9.4587    8.7075   23.0784 C   0  0  0  0  0  0  0  0  0  0  0  0
    8.4691   10.3792   24.7116 C   0  0  0  0  0  0  0  0  0  0  0  0
    7.4573    9.7054   25.4002 C   0  0  0  0  0  0  0  0  0  0  0  0
    6.6924   10.4251   26.3225 C   0  0  0  0  0  0  0  0  0  0  0  0
    6.9381   11.7763   26.5454 C   0  0  0  0  0  0  0  0  0  0  0  0
    5.8825   12.7165   27.8014 Br  0  0  0  0  0  0  0  0  0  0  0  0
    7.9621   12.4436   25.8718 C   0  0  0  0  0  0  0  0  0  0  0  0
    8.7459   11.7220   24.9509 C   0  0  0  0  0  0  0  0  0  0  0  0
  1  2  1  0
  2  3  1  0
  3  4  1  0
  4  5  1  0
  5  6  1  0
  6  7  1  0
  4  8  2  0
  8  9  1  0
  9 10  1  0
 10 11  1  0
 11 12  1  0
 12 13  2  0
 12 14  1  0
 14 15  2  0
 15 16  1  0
 16 17  1  0
 16 18  1  0
 18 19  2  0
 19 20  1  0
 20 21  2  0
 21 22  1  0
 21 23  1  0
 23 24  2  0
  9  2  2  0
 24 14  1  0
  7  5  1  0
 24 18  1  0
M  END
>  <energy_score>  (3549) 
-3.4573

>  <inchikey>  (3549) 
YWVVPMBAVUTYBJ-UHFFFAOYSA-N

>  <smiles>  (3549) 
Cc1oc(C2CC2)nc1CNC(=O)c1nn(C)c2ccc(Br)cc12

>  <ref_pdb>  (3549) 
A0514a

>  <alias>  (3549) 
YWVVPMBAVUTYBJ-UHFFFAOYSA-N-P126-P126-P177-601502

>  <HIPPO Pose ID>  (3549) 
502910

>  <name>  (3549) 
YWVVPMBAVUTYBJ-UHFFFAOYSA-N-P126-P126-P177-601502

>  <HIPPO Compound ID>  (3549) 
299273

>  <ref_mols>  (3549) 
A3403a,A2290a

>  <distance_score>  (3549) 
0.728686

>  <inspiration_score>  (3549) 
None

$$$$
OELIHJBZHDXMAL-UHFFFAOYSA-N-P126-P126-P177-601502
     RDKit          3D

 24 27  0  0  0  0  0  0  0  0999 V2000
    9.3984    8.6571   23.1035 C   0  0  0  0  0  0  0  0  0  0  0  0
    9.2726    9.9502   23.7299 N   0  0  0  0  0  0  0  0  0  0  0  0
   10.0217   10.9520   23.2508 N   0  0  0  0  0  0  0  0  0  0  0  0
    9.6328   12.0241   23.9578 C   0  0  0  0  0  0  0  0  0  0  0  0
   10.1994   13.3336   23.6710 C   0  0  0  0  0  0  0  0  0  0  0  0
   10.2569   14.1775   24.4717 O   0  0  0  0  0  0  0  0  0  0  0  0
   10.6008   13.3375   22.1920 N   0  0  0  0  0  0  0  0  0  0  0  0
   11.2301   14.3234   21.4224 C   0  0  0  0  0  0  0  0  0  0  0  0
   10.2930   15.2771   20.6368 C   0  0  0  0  0  0  0  0  0  0  0  0
   10.3016   15.4787   19.2836 C   0  0  0  0  0  0  0  0  0  0  0  0
    9.5426   16.5776   19.0179 O   0  0  0  0  0  0  0  0  0  0  0  0
    9.0836   16.9492   20.2442 C   0  0  0  0  0  0  0  0  0  0  0  0
    9.4501   16.1620   21.2269 N   0  0  0  0  0  0  0  0  0  0  0  0
   12.5266   13.9431   20.7642 C   0  0  0  0  0  0  0  0  0  0  0  0
   12.5317   14.8865   21.9101 C   0  0  0  0  0  0  0  0  0  0  0  0
    8.6131   11.7116   24.8823 C   0  0  0  0  0  0  0  0  0  0  0  0
    7.8251   12.4450   25.7899 C   0  0  0  0  0  0  0  0  0  0  0  0
    6.8284   11.7604   26.4979 C   0  0  0  0  0  0  0  0  0  0  0  0
    5.9896   12.4979   27.4409 N   0  0  0  0  0  0  0  0  0  0  0  0
    6.4831   13.5005   27.9771 O   0  0  0  0  0  0  0  0  0  0  0  0
    4.8573   12.0515   27.6768 O   0  0  0  0  0  0  0  0  0  0  0  0
    6.6269   10.3880   26.3353 C   0  0  0  0  0  0  0  0  0  0  0  0
    7.4185    9.6641   25.4400 C   0  0  0  0  0  0  0  0  0  0  0  0
    8.3962   10.3473   24.7133 C   0  0  0  0  0  0  0  0  0  0  0  0
  1  2  1  0
  2  3  1  0
  3  4  2  0
  4  5  1  0
  5  6  2  0
  5  7  1  0
  7  8  1  0
  8  9  1  0
  9 10  2  0
 10 11  1  0
 11 12  1  0
 12 13  2  0
  8 14  1  0
 14 15  1  0
  4 16  1  0
 16 17  2  0
 17 18  1  0
 18 19  1  0
 19 20  2  0
 19 21  1  0
 18 22  2  0
 22 23  1  0
 23 24  2  0
 24  2  1  0
 15  8  1  0
 24 16  1  0
 13  9  1  0
M  CHG  2  19   1  21  -1
M  END
>  <energy_score>  (3550) 
-13.825308

>  <inchikey>  (3550) 
OELIHJBZHDXMAL-UHFFFAOYSA-N

>  <smiles>  (3550) 
Cn1nc(C(=O)NC2(c3cocn3)CC2)c2cc([N+](=O)[O-])ccc21

>  <ref_pdb>  (3550) 
A0514a

>  <alias>  (3550) 
OELIHJBZHDXMAL-UHFFFAOYSA-N-P126-P126-P177-601502

>  <HIPPO Pose ID>  (3550) 
502912

>  <name>  (3550) 
OELIHJBZHDXMAL-UHFFFAOYSA-N-P126-P126-P177-601502

>  <HIPPO Compound ID>  (3550) 
299274

>  <ref_mols>  (3550) 
A3403a,A2290a

>  <distance_score>  (3550) 
0.79012

>  <inspiration_score>  (3550) 
None

$$$$
OELIHJBZHDXMAL-UHFFFAOYSA-N-P177-P126-P177-601502
     RDKit          3D

 24 27  0  0  0  0  0  0  0  0999 V2000
    9.0979    8.9801   23.1024 C   0  0  0  0  0  0  0  0  0  0  0  0
    9.0089   10.3197   23.6339 N   0  0  0  0  0  0  0  0  0  0  0  0
    9.7664   11.2804   23.0960 N   0  0  0  0  0  0  0  0  0  0  0  0
    9.4777   12.3868   23.8014 C   0  0  0  0  0  0  0  0  0  0  0  0
   10.1008   13.6744   23.4639 C   0  0  0  0  0  0  0  0  0  0  0  0
   10.0823   14.5803   24.1985 O   0  0  0  0  0  0  0  0  0  0  0  0
   10.6319   13.5684   22.0237 N   0  0  0  0  0  0  0  0  0  0  0  0
   11.1536   14.5529   21.1686 C   0  0  0  0  0  0  0  0  0  0  0  0
   10.1522   15.5987   20.6608 C   0  0  0  0  0  0  0  0  0  0  0  0
    9.9774   15.9359   19.3485 C   0  0  0  0  0  0  0  0  0  0  0  0
    9.1999   17.0480   19.3172 O   0  0  0  0  0  0  0  0  0  0  0  0
    8.8964   17.2674   20.6264 C   0  0  0  0  0  0  0  0  0  0  0  0
    9.4043   16.3960   21.4635 N   0  0  0  0  0  0  0  0  0  0  0  0
   12.2626   14.1854   20.2108 C   0  0  0  0  0  0  0  0  0  0  0  0
   12.5492   15.0105   21.4169 C   0  0  0  0  0  0  0  0  0  0  0  0
    8.4939   12.1240   24.7875 C   0  0  0  0  0  0  0  0  0  0  0  0
    7.8094   12.8868   25.7530 C   0  0  0  0  0  0  0  0  0  0  0  0
    6.8188   12.2515   26.5164 C   0  0  0  0  0  0  0  0  0  0  0  0
    6.1043   13.0137   27.5423 N   0  0  0  0  0  0  0  0  0  0  0  0
    6.6580   14.0264   27.9928 O   0  0  0  0  0  0  0  0  0  0  0  0
    5.0111   12.5739   27.9286 O   0  0  0  0  0  0  0  0  0  0  0  0
    6.5105   10.9008   26.3367 C   0  0  0  0  0  0  0  0  0  0  0  0
    7.1947   10.1447   25.3843 C   0  0  0  0  0  0  0  0  0  0  0  0
    8.1810   10.7761   24.6274 C   0  0  0  0  0  0  0  0  0  0  0  0
  1  2  1  0
  2  3  1  0
  3  4  2  0
  4  5  1  0
  5  6  2  0
  5  7  1  0
  7  8  1  0
  8  9  1  0
  9 10  2  0
 10 11  1  0
 11 12  1  0
 12 13  2  0
  8 14  1  0
 14 15  1  0
  4 16  1  0
 16 17  2  0
 17 18  1  0
 18 19  1  0
 19 20  2  0
 19 21  1  0
 18 22  2  0
 22 23  1  0
 23 24  2  0
 24  2  1  0
 15  8  1  0
 24 16  1  0
 13  9  1  0
M  CHG  2  19   1  21  -1
M  END
>  <energy_score>  (3551) 
-14.444073

>  <inchikey>  (3551) 
OELIHJBZHDXMAL-UHFFFAOYSA-N

>  <smiles>  (3551) 
Cn1nc(C(=O)NC2(c3cocn3)CC2)c2cc([N+](=O)[O-])ccc21

>  <ref_pdb>  (3551) 
A0514a

>  <alias>  (3551) 
OELIHJBZHDXMAL-UHFFFAOYSA-N-P177-P126-P177-601502

>  <HIPPO Pose ID>  (3551) 
502913

>  <name>  (3551) 
OELIHJBZHDXMAL-UHFFFAOYSA-N-P177-P126-P177-601502

>  <HIPPO Compound ID>  (3551) 
299274

>  <ref_mols>  (3551) 
A3403a,A2290a

>  <distance_score>  (3551) 
0.870051

>  <inspiration_score>  (3551) 
None

$$$$
LJGAGAIBBGNHNG-UHFFFAOYSA-N-P126-P126-P177-601502
     RDKit          3D

 24 26  0  0  0  0  0  0  0  0999 V2000
    8.3414   18.2779   19.2116 C   0  0  0  0  0  0  0  0  0  0  0  0
    8.6411   17.5405   20.5072 C   0  0  0  0  0  0  0  0  0  0  0  0
    9.5922   16.4055   20.3925 C   0  0  0  0  0  0  0  0  0  0  0  0
   10.2103   15.7795   21.3709 N   0  0  0  0  0  0  0  0  0  0  0  0
   11.0647   14.9118   20.7446 C   0  0  0  0  0  0  0  0  0  0  0  0
   12.0817   14.1643   21.5133 C   0  0  0  0  0  0  0  0  0  0  0  0
   11.3965   13.1670   22.2691 N   0  0  0  0  0  0  0  0  0  0  0  0
   10.7831   13.2270   23.6725 C   0  0  0  0  0  0  0  0  0  0  0  0
   10.8042   14.0752   24.4707 O   0  0  0  0  0  0  0  0  0  0  0  0
   10.0042   11.9970   23.8801 C   0  0  0  0  0  0  0  0  0  0  0  0
   10.2830   10.8963   23.1659 N   0  0  0  0  0  0  0  0  0  0  0  0
    9.4433    9.9635   23.6283 N   0  0  0  0  0  0  0  0  0  0  0  0
    9.4966    8.6502   23.0334 C   0  0  0  0  0  0  0  0  0  0  0  0
    8.5841   10.4294   24.5944 C   0  0  0  0  0  0  0  0  0  0  0  0
    7.5628    9.8095   25.3245 C   0  0  0  0  0  0  0  0  0  0  0  0
    6.8117   10.5954   26.2008 C   0  0  0  0  0  0  0  0  0  0  0  0
    7.0964   11.9573   26.3421 C   0  0  0  0  0  0  0  0  0  0  0  0
    6.2956   12.7567   27.2695 N   0  0  0  0  0  0  0  0  0  0  0  0
    5.1523   12.3550   27.5343 O   0  0  0  0  0  0  0  0  0  0  0  0
    6.8287   13.7580   27.7676 O   0  0  0  0  0  0  0  0  0  0  0  0
    8.1475   12.5687   25.6405 C   0  0  0  0  0  0  0  0  0  0  0  0
    8.9043   11.7777   24.7533 C   0  0  0  0  0  0  0  0  0  0  0  0
   10.8272   14.9538   19.3929 C   0  0  0  0  0  0  0  0  0  0  0  0
    9.8749   15.9011   19.1563 O   0  0  0  0  0  0  0  0  0  0  0  0
  1  2  1  0
  2  3  1  0
  3  4  2  0
  4  5  1  0
  5  6  1  0
  6  7  1  0
  7  8  1  0
  8  9  2  0
  8 10  1  0
 10 11  2  0
 11 12  1  0
 12 13  1  0
 12 14  1  0
 14 15  2  0
 15 16  1  0
 16 17  2  0
 17 18  1  0
 18 19  2  0
 18 20  1  0
 17 21  1  0
 21 22  2  0
  5 23  2  0
 23 24  1  0
 24  3  1  0
 22 10  1  0
 22 14  1  0
M  CHG  2  18   1  20  -1
M  END
>  <energy_score>  (3552) 
-19.102168

>  <inchikey>  (3552) 
LJGAGAIBBGNHNG-UHFFFAOYSA-N

>  <smiles>  (3552) 
CCc1nc(CNC(=O)c2nn(C)c3ccc([N+](=O)[O-])cc23)co1

>  <ref_pdb>  (3552) 
A0514a

>  <alias>  (3552) 
LJGAGAIBBGNHNG-UHFFFAOYSA-N-P126-P126-P177-601502

>  <HIPPO Pose ID>  (3552) 
502920

>  <name>  (3552) 
LJGAGAIBBGNHNG-UHFFFAOYSA-N-P126-P126-P177-601502

>  <HIPPO Compound ID>  (3552) 
299278

>  <ref_mols>  (3552) 
A3403a,A2290a

>  <distance_score>  (3552) 
0.762076

>  <inspiration_score>  (3552) 
None

$$$$
LJGAGAIBBGNHNG-UHFFFAOYSA-N-P177-P126-P177-601502
     RDKit          3D

 24 26  0  0  0  0  0  0  0  0999 V2000
    8.7528   18.6360   21.2004 C   0  0  0  0  0  0  0  0  0  0  0  0
    8.6260   17.7785   19.9919 C   0  0  0  0  0  0  0  0  0  0  0  0
    9.5071   16.6010   20.0731 C   0  0  0  0  0  0  0  0  0  0  0  0
   10.0803   16.0718   21.1307 N   0  0  0  0  0  0  0  0  0  0  0  0
   10.9400   15.1412   20.6115 C   0  0  0  0  0  0  0  0  0  0  0  0
   11.8712   14.4059   21.4829 C   0  0  0  0  0  0  0  0  0  0  0  0
   11.1297   13.4620   22.2517 N   0  0  0  0  0  0  0  0  0  0  0  0
   10.4687   13.5976   23.6291 C   0  0  0  0  0  0  0  0  0  0  0  0
   10.4878   14.4774   24.3934 O   0  0  0  0  0  0  0  0  0  0  0  0
    9.6772   12.3737   23.8713 C   0  0  0  0  0  0  0  0  0  0  0  0
    9.8979   11.2674   23.1425 N   0  0  0  0  0  0  0  0  0  0  0  0
    9.0558   10.3510   23.6259 N   0  0  0  0  0  0  0  0  0  0  0  0
    9.0911    9.0137   23.0808 C   0  0  0  0  0  0  0  0  0  0  0  0
    8.2365   10.8351   24.6130 C   0  0  0  0  0  0  0  0  0  0  0  0
    7.2064   10.2412   25.3448 C   0  0  0  0  0  0  0  0  0  0  0  0
    6.5521   11.0172   26.3018 C   0  0  0  0  0  0  0  0  0  0  0  0
    6.9306   12.3471   26.5096 C   0  0  0  0  0  0  0  0  0  0  0  0
    6.2515   13.1269   27.5481 N   0  0  0  0  0  0  0  0  0  0  0  0
    5.1636   12.7037   27.9663 O   0  0  0  0  0  0  0  0  0  0  0  0
    6.8302   14.1341   27.9791 O   0  0  0  0  0  0  0  0  0  0  0  0
    7.9682   12.9406   25.7732 C   0  0  0  0  0  0  0  0  0  0  0  0
    8.6288   12.1598   24.8059 C   0  0  0  0  0  0  0  0  0  0  0  0
   10.7965   15.0972   19.2454 C   0  0  0  0  0  0  0  0  0  0  0  0
    9.8620   16.0189   18.8906 O   0  0  0  0  0  0  0  0  0  0  0  0
  1  2  1  0
  2  3  1  0
  3  4  2  0
  4  5  1  0
  5  6  1  0
  6  7  1  0
  7  8  1  0
  8  9  2  0
  8 10  1  0
 10 11  2  0
 11 12  1  0
 12 13  1  0
 12 14  1  0
 14 15  2  0
 15 16  1  0
 16 17  2  0
 17 18  1  0
 18 19  2  0
 18 20  1  0
 17 21  1  0
 21 22  2  0
  5 23  2  0
 23 24  1  0
 24  3  1  0
 22 10  1  0
 22 14  1  0
M  CHG  2  18   1  20  -1
M  END
>  <energy_score>  (3553) 
-20.918153

>  <inchikey>  (3553) 
LJGAGAIBBGNHNG-UHFFFAOYSA-N

>  <smiles>  (3553) 
CCc1nc(CNC(=O)c2nn(C)c3ccc([N+](=O)[O-])cc23)co1

>  <ref_pdb>  (3553) 
A0514a

>  <alias>  (3553) 
LJGAGAIBBGNHNG-UHFFFAOYSA-N-P177-P126-P177-601502

>  <HIPPO Pose ID>  (3553) 
502921

>  <name>  (3553) 
LJGAGAIBBGNHNG-UHFFFAOYSA-N-P177-P126-P177-601502

>  <HIPPO Compound ID>  (3553) 
299278

>  <ref_mols>  (3553) 
A3403a,A2290a

>  <distance_score>  (3553) 
0.62301

>  <inspiration_score>  (3553) 
None

$$$$
CDUFHPLBWSADET-UHFFFAOYSA-N-P126-P126-P177-601502
     RDKit          3D

 24 26  0  0  0  0  0  0  0  0999 V2000
   12.8652   13.3627   23.5864 C   0  0  0  0  0  0  0  0  0  0  0  0
   12.6124   14.0339   22.2196 C   0  0  0  0  0  0  0  0  0  0  0  0
   11.2051   14.6004   22.1945 C   0  0  2  0  0  0  0  0  0  0  0  0
   10.3590   13.5937   22.7208 N   0  0  0  0  0  0  0  0  0  0  0  0
    9.6121   13.5219   24.0427 C   0  0  0  0  0  0  0  0  0  0  0  0
    9.5022   14.3085   24.8901 O   0  0  0  0  0  0  0  0  0  0  0  0
    9.0862   12.1756   24.1533 C   0  0  0  0  0  0  0  0  0  0  0  0
    9.5761   11.1892   23.3798 N   0  0  0  0  0  0  0  0  0  0  0  0
    8.9779   10.0857   23.8439 N   0  0  0  0  0  0  0  0  0  0  0  0
    9.2869    8.8273   23.2072 C   0  0  0  0  0  0  0  0  0  0  0  0
    8.0778   10.3494   24.8501 C   0  0  0  0  0  0  0  0  0  0  0  0
    7.1990    9.5435   25.5655 C   0  0  0  0  0  0  0  0  0  0  0  0
    6.3659   10.1361   26.5179 C   0  0  0  0  0  0  0  0  0  0  0  0
    6.4391   11.5085   26.7550 C   0  0  0  0  0  0  0  0  0  0  0  0
    5.5644   12.1064   27.7587 N   0  0  0  0  0  0  0  0  0  0  0  0
    6.0077   13.0710   28.3978 O   0  0  0  0  0  0  0  0  0  0  0  0
    4.4497   11.5916   27.9297 O   0  0  0  0  0  0  0  0  0  0  0  0
    7.3337   12.3234   26.0579 C   0  0  0  0  0  0  0  0  0  0  0  0
    8.1386   11.7178   25.0770 C   0  0  0  0  0  0  0  0  0  0  0  0
   10.6472   15.1287   20.9408 C   0  0  0  0  0  0  0  0  0  0  0  0
   10.8946   14.8385   19.6235 C   0  0  0  0  0  0  0  0  0  0  0  0
   10.1707   15.7044   18.8625 O   0  0  0  0  0  0  0  0  0  0  0  0
    9.5292   16.4908   19.7547 C   0  0  0  0  0  0  0  0  0  0  0  0
    9.7230   16.1521   21.0024 N   0  0  0  0  0  0  0  0  0  0  0  0
  1  2  1  0
  3  2  1  6
  3  4  1  0
  4  5  1  0
  5  6  2  0
  5  7  1  0
  7  8  2  0
  8  9  1  0
  9 10  1  0
  9 11  1  0
 11 12  2  0
 12 13  1  0
 13 14  2  0
 14 15  1  0
 15 16  2  0
 15 17  1  0
 14 18  1  0
 18 19  2  0
  3 20  1  0
 20 21  2  0
 21 22  1  0
 22 23  1  0
 23 24  2  0
 19  7  1  0
 24 20  1  0
 19 11  1  0
M  CHG  2  15   1  17  -1
M  END
>  <energy_score>  (3554) 
-12.772219

>  <inchikey>  (3554) 
CDUFHPLBWSADET-UHFFFAOYSA-N

>  <smiles>  (3554) 
CCC(NC(=O)c1nn(C)c2ccc([N+](=O)[O-])cc12)c1cocn1

>  <ref_pdb>  (3554) 
A0514a

>  <alias>  (3554) 
CDUFHPLBWSADET-UHFFFAOYSA-N-P126-P126-P177-601502

>  <HIPPO Pose ID>  (3554) 
502930

>  <name>  (3554) 
CDUFHPLBWSADET-UHFFFAOYSA-N-P126-P126-P177-601502

>  <HIPPO Compound ID>  (3554) 
299283

>  <ref_mols>  (3554) 
A3403a,A2290a

>  <distance_score>  (3554) 
1.00229

>  <inspiration_score>  (3554) 
None

$$$$
ABUOWIFGWADSRZ-UHFFFAOYSA-N-P126-P126-P177-601502
     RDKit          3D

 24 26  0  0  0  0  0  0  0  0999 V2000
   11.7273   14.0310   18.3180 C   0  0  0  0  0  0  0  0  0  0  0  0
   11.3102   15.2613   18.9660 C   0  0  0  0  0  0  0  0  0  0  0  0
   10.3761   15.1989   20.0543 C   0  0  0  0  0  0  0  0  0  0  0  0
    9.2598   15.9464   19.9520 O   0  0  0  0  0  0  0  0  0  0  0  0
    8.6856   15.8041   21.1669 C   0  0  0  0  0  0  0  0  0  0  0  0
    9.3255   15.0117   21.9949 N   0  0  0  0  0  0  0  0  0  0  0  0
   10.5058   14.7589   21.3386 C   0  0  0  0  0  0  0  0  0  0  0  0
   11.6815   14.1408   22.0033 C   0  0  0  0  0  0  0  0  0  0  0  0
   11.0867   13.1139   22.7601 N   0  0  0  0  0  0  0  0  0  0  0  0
   10.5558   13.1161   24.1860 C   0  0  0  0  0  0  0  0  0  0  0  0
   10.5896   13.9432   25.0026 O   0  0  0  0  0  0  0  0  0  0  0  0
    9.8582   11.8505   24.3441 C   0  0  0  0  0  0  0  0  0  0  0  0
   10.1992   10.7980   23.5838 N   0  0  0  0  0  0  0  0  0  0  0  0
    9.2957    9.8615   23.8865 N   0  0  0  0  0  0  0  0  0  0  0  0
    9.3493    8.6257   23.1451 C   0  0  0  0  0  0  0  0  0  0  0  0
    8.3821   10.2745   24.8299 C   0  0  0  0  0  0  0  0  0  0  0  0
    7.2997    9.6423   25.4433 C   0  0  0  0  0  0  0  0  0  0  0  0
    6.4926   10.3867   26.3069 C   0  0  0  0  0  0  0  0  0  0  0  0
    6.7718   11.7347   26.5418 C   0  0  0  0  0  0  0  0  0  0  0  0
    5.8987   12.4968   27.4334 N   0  0  0  0  0  0  0  0  0  0  0  0
    4.7289   12.1049   27.5645 O   0  0  0  0  0  0  0  0  0  0  0  0
    6.3956   13.4596   28.0343 O   0  0  0  0  0  0  0  0  0  0  0  0
    7.8793   12.3636   25.9613 C   0  0  0  0  0  0  0  0  0  0  0  0
    8.7010   11.6003   25.1093 C   0  0  0  0  0  0  0  0  0  0  0  0
  1  2  1  0
  2  3  1  0
  3  4  1  0
  4  5  1  0
  5  6  2  0
  6  7  1  0
  7  8  1  0
  8  9  1  0
  9 10  1  0
 10 11  2  0
 10 12  1  0
 12 13  2  0
 13 14  1  0
 14 15  1  0
 14 16  1  0
 16 17  2  0
 17 18  1  0
 18 19  2  0
 19 20  1  0
 20 21  2  0
 20 22  1  0
 19 23  1  0
 23 24  2  0
  7  3  2  0
 24 12  1  0
 24 16  1  0
M  CHG  2  20   1  22  -1
M  END
>  <energy_score>  (3555) 
-8.523118

>  <inchikey>  (3555) 
ABUOWIFGWADSRZ-UHFFFAOYSA-N

>  <smiles>  (3555) 
CCc1ocnc1CNC(=O)c1nn(C)c2ccc([N+](=O)[O-])cc12

>  <ref_pdb>  (3555) 
A0514a

>  <alias>  (3555) 
ABUOWIFGWADSRZ-UHFFFAOYSA-N-P126-P126-P177-601502

>  <HIPPO Pose ID>  (3555) 
502932

>  <name>  (3555) 
ABUOWIFGWADSRZ-UHFFFAOYSA-N-P126-P126-P177-601502

>  <HIPPO Compound ID>  (3555) 
299284

>  <ref_mols>  (3555) 
A3403a,A2290a

>  <distance_score>  (3555) 
1.086024

>  <inspiration_score>  (3555) 
None

$$$$
ABUOWIFGWADSRZ-UHFFFAOYSA-N-P177-P126-P177-601502
     RDKit          3D

 24 26  0  0  0  0  0  0  0  0999 V2000
   11.3200   14.2185   18.2529 C   0  0  0  0  0  0  0  0  0  0  0  0
   11.2779   15.5652   18.8208 C   0  0  0  0  0  0  0  0  0  0  0  0
   10.3390   15.7499   19.9056 C   0  0  0  0  0  0  0  0  0  0  0  0
    9.3177   16.6226   19.7455 O   0  0  0  0  0  0  0  0  0  0  0  0
    8.7685   16.6759   20.9891 C   0  0  0  0  0  0  0  0  0  0  0  0
    9.3256   15.8890   21.8815 N   0  0  0  0  0  0  0  0  0  0  0  0
   10.4053   15.3694   21.2179 C   0  0  0  0  0  0  0  0  0  0  0  0
   11.4894   14.6169   21.8854 C   0  0  0  0  0  0  0  0  0  0  0  0
   10.8720   13.5778   22.6118 N   0  0  0  0  0  0  0  0  0  0  0  0
   10.3040   13.5592   24.0262 C   0  0  0  0  0  0  0  0  0  0  0  0
   10.3190   14.3738   24.8563 O   0  0  0  0  0  0  0  0  0  0  0  0
    9.5863   12.2953   24.1781 C   0  0  0  0  0  0  0  0  0  0  0  0
    9.8698   11.2443   23.3907 N   0  0  0  0  0  0  0  0  0  0  0  0
    9.0119   10.2933   23.7716 N   0  0  0  0  0  0  0  0  0  0  0  0
    9.0734    9.0017   23.1282 C   0  0  0  0  0  0  0  0  0  0  0  0
    8.1464   10.7116   24.7516 C   0  0  0  0  0  0  0  0  0  0  0  0
    7.0977   10.0753   25.4076 C   0  0  0  0  0  0  0  0  0  0  0  0
    6.3827   10.7913   26.3682 C   0  0  0  0  0  0  0  0  0  0  0  0
    6.7144   12.1174   26.6497 C   0  0  0  0  0  0  0  0  0  0  0  0
    5.9576   12.8371   27.6759 N   0  0  0  0  0  0  0  0  0  0  0  0
    6.5034   13.8104   28.2139 O   0  0  0  0  0  0  0  0  0  0  0  0
    4.8365   12.3992   27.9759 O   0  0  0  0  0  0  0  0  0  0  0  0
    7.7757   12.7576   25.9980 C   0  0  0  0  0  0  0  0  0  0  0  0
    8.5014   12.0251   25.0397 C   0  0  0  0  0  0  0  0  0  0  0  0
  1  2  1  0
  2  3  1  0
  3  4  1  0
  4  5  1  0
  5  6  2  0
  6  7  1  0
  7  8  1  0
  8  9  1  0
  9 10  1  0
 10 11  2  0
 10 12  1  0
 12 13  2  0
 13 14  1  0
 14 15  1  0
 14 16  1  0
 16 17  2  0
 17 18  1  0
 18 19  2  0
 19 20  1  0
 20 21  2  0
 20 22  1  0
 19 23  1  0
 23 24  2  0
  7  3  2  0
 24 12  1  0
 24 16  1  0
M  CHG  2  20   1  22  -1
M  END
>  <energy_score>  (3556) 
-19.476356

>  <inchikey>  (3556) 
ABUOWIFGWADSRZ-UHFFFAOYSA-N

>  <smiles>  (3556) 
CCc1ocnc1CNC(=O)c1nn(C)c2ccc([N+](=O)[O-])cc12

>  <ref_pdb>  (3556) 
A0514a

>  <alias>  (3556) 
ABUOWIFGWADSRZ-UHFFFAOYSA-N-P177-P126-P177-601502

>  <HIPPO Pose ID>  (3556) 
502933

>  <name>  (3556) 
ABUOWIFGWADSRZ-UHFFFAOYSA-N-P177-P126-P177-601502

>  <HIPPO Compound ID>  (3556) 
299284

>  <ref_mols>  (3556) 
A3403a,A2290a

>  <distance_score>  (3556) 
0.947024

>  <inspiration_score>  (3556) 
None

$$$$
HHCFVUFUMJCUKH-UHFFFAOYSA-N-P126-P126-P177-601502
     RDKit          3D

 24 26  0  0  0  0  0  0  0  0999 V2000
    4.4533   13.2043   28.5234 C   0  0  0  0  0  0  0  0  0  0  0  0
    5.2197   12.3982   27.6289 O   0  0  0  0  0  0  0  0  0  0  0  0
    6.4750   12.8651   27.4132 C   0  0  0  0  0  0  0  0  0  0  0  0
    6.9826   13.8418   27.9416 O   0  0  0  0  0  0  0  0  0  0  0  0
    7.1835   12.0109   26.4297 C   0  0  0  0  0  0  0  0  0  0  0  0
    6.8508   10.6638   26.2551 C   0  0  0  0  0  0  0  0  0  0  0  0
    7.5553    9.8628   25.3514 C   0  0  0  0  0  0  0  0  0  0  0  0
    8.5910   10.4536   24.6183 C   0  0  0  0  0  0  0  0  0  0  0  0
    8.9584   11.7871   24.7913 C   0  0  0  0  0  0  0  0  0  0  0  0
    8.2435   12.5825   25.7073 C   0  0  0  0  0  0  0  0  0  0  0  0
   10.0492   11.9867   23.9025 C   0  0  0  0  0  0  0  0  0  0  0  0
   10.8538   13.2002   23.6859 C   0  0  0  0  0  0  0  0  0  0  0  0
   10.9106   14.0495   24.4817 O   0  0  0  0  0  0  0  0  0  0  0  0
   11.4378   13.1234   22.2701 N   0  0  0  0  0  0  0  0  0  0  0  0
   12.1307   14.1030   21.4985 C   0  0  0  0  0  0  0  0  0  0  0  0
   11.1051   14.8675   20.7601 C   0  0  0  0  0  0  0  0  0  0  0  0
   10.8452   14.9460   19.4134 C   0  0  0  0  0  0  0  0  0  0  0  0
    9.8686   15.8800   19.2209 O   0  0  0  0  0  0  0  0  0  0  0  0
    9.5912   16.3249   20.4794 C   0  0  0  0  0  0  0  0  0  0  0  0
    8.6298   17.4295   20.6273 C   0  0  0  0  0  0  0  0  0  0  0  0
   10.2442   15.6939   21.4282 N   0  0  0  0  0  0  0  0  0  0  0  0
   10.2901   10.8834   23.1762 N   0  0  0  0  0  0  0  0  0  0  0  0
    9.4279    9.9720   23.6425 N   0  0  0  0  0  0  0  0  0  0  0  0
    9.4511    8.6567   23.0524 C   0  0  0  0  0  0  0  0  0  0  0  0
  1  2  1  0
  2  3  1  0
  3  4  2  0
  3  5  1  0
  5  6  2  0
  6  7  1  0
  7  8  2  0
  8  9  1  0
  9 10  2  0
  9 11  1  0
 11 12  1  0
 12 13  2  0
 12 14  1  0
 14 15  1  0
 15 16  1  0
 16 17  2  0
 17 18  1  0
 18 19  1  0
 19 20  1  0
 19 21  2  0
 11 22  2  0
 22 23  1  0
 23 24  1  0
 10  5  1  0
 21 16  1  0
 23  8  1  0
M  END
>  <energy_score>  (3557) 
-26.610559

>  <inchikey>  (3557) 
HHCFVUFUMJCUKH-UHFFFAOYSA-N

>  <smiles>  (3557) 
COC(=O)c1ccc2c(c1)c(C(=O)NCc1coc(C)n1)nn2C

>  <ref_pdb>  (3557) 
A0514a

>  <alias>  (3557) 
HHCFVUFUMJCUKH-UHFFFAOYSA-N-P126-P126-P177-601502

>  <HIPPO Pose ID>  (3557) 
502934

>  <name>  (3557) 
HHCFVUFUMJCUKH-UHFFFAOYSA-N-P126-P126-P177-601502

>  <HIPPO Compound ID>  (3557) 
299285

>  <ref_mols>  (3557) 
A3403a,A2290a

>  <distance_score>  (3557) 
0.707601

>  <inspiration_score>  (3557) 
None

$$$$
HHCFVUFUMJCUKH-UHFFFAOYSA-N-P177-P126-P177-601502
     RDKit          3D

 24 26  0  0  0  0  0  0  0  0999 V2000
    4.5592   13.6051   28.9898 C   0  0  0  0  0  0  0  0  0  0  0  0
    5.2096   12.8114   27.9968 O   0  0  0  0  0  0  0  0  0  0  0  0
    6.4398   13.2680   27.6526 C   0  0  0  0  0  0  0  0  0  0  0  0
    7.0107   14.2316   28.1386 O   0  0  0  0  0  0  0  0  0  0  0  0
    7.0314   12.4213   26.5861 C   0  0  0  0  0  0  0  0  0  0  0  0
    6.5959   11.1115   26.3580 C   0  0  0  0  0  0  0  0  0  0  0  0
    7.1982   10.3121   25.3826 C   0  0  0  0  0  0  0  0  0  0  0  0
    8.2438   10.8649   24.6404 C   0  0  0  0  0  0  0  0  0  0  0  0
    8.6949   12.1693   24.8395 C   0  0  0  0  0  0  0  0  0  0  0  0
    8.0848   12.9607   25.8299 C   0  0  0  0  0  0  0  0  0  0  0  0
    9.7348   12.3516   23.8889 C   0  0  0  0  0  0  0  0  0  0  0  0
   10.5779   13.5407   23.6441 C   0  0  0  0  0  0  0  0  0  0  0  0
   10.7117   14.3795   24.4427 O   0  0  0  0  0  0  0  0  0  0  0  0
   11.1565   13.4129   22.2288 N   0  0  0  0  0  0  0  0  0  0  0  0
   11.9406   14.3252   21.4613 C   0  0  0  0  0  0  0  0  0  0  0  0
   11.0197   15.1720   20.6905 C   0  0  0  0  0  0  0  0  0  0  0  0
   10.7537   15.2008   19.3418 C   0  0  0  0  0  0  0  0  0  0  0  0
    9.8130   16.1602   19.1203 O   0  0  0  0  0  0  0  0  0  0  0  0
    9.5771   16.6773   20.3622 C   0  0  0  0  0  0  0  0  0  0  0  0
    8.5674   17.7322   20.4833 C   0  0  0  0  0  0  0  0  0  0  0  0
   10.2606   16.1123   21.3277 N   0  0  0  0  0  0  0  0  0  0  0  0
    9.8986   11.2440   23.1456 N   0  0  0  0  0  0  0  0  0  0  0  0
    9.0350   10.3553   23.6441 N   0  0  0  0  0  0  0  0  0  0  0  0
    9.0309    9.0145   23.1090 C   0  0  0  0  0  0  0  0  0  0  0  0
  1  2  1  0
  2  3  1  0
  3  4  2  0
  3  5  1  0
  5  6  2  0
  6  7  1  0
  7  8  2  0
  8  9  1  0
  9 10  2  0
  9 11  1  0
 11 12  1  0
 12 13  2  0
 12 14  1  0
 14 15  1  0
 15 16  1  0
 16 17  2  0
 17 18  1  0
 18 19  1  0
 19 20  1  0
 19 21  2  0
 11 22  2  0
 22 23  1  0
 23 24  1  0
 10  5  1  0
 21 16  1  0
 23  8  1  0
M  END
>  <energy_score>  (3558) 
-27.54378

>  <inchikey>  (3558) 
HHCFVUFUMJCUKH-UHFFFAOYSA-N

>  <smiles>  (3558) 
COC(=O)c1ccc2c(c1)c(C(=O)NCc1coc(C)n1)nn2C

>  <ref_pdb>  (3558) 
A0514a

>  <alias>  (3558) 
HHCFVUFUMJCUKH-UHFFFAOYSA-N-P177-P126-P177-601502

>  <HIPPO Pose ID>  (3558) 
502935

>  <name>  (3558) 
HHCFVUFUMJCUKH-UHFFFAOYSA-N-P177-P126-P177-601502

>  <HIPPO Compound ID>  (3558) 
299285

>  <ref_mols>  (3558) 
A3403a,A2290a

>  <distance_score>  (3558) 
0.652984

>  <inspiration_score>  (3558) 
None

$$$$
MZYUUOQSECFMQW-UHFFFAOYSA-N-P126-P126-P177-601502
     RDKit          3D

 24 26  0  0  0  0  0  0  0  0999 V2000
    4.3480   13.0252   28.5488 C   0  0  0  0  0  0  0  0  0  0  0  0
    5.1361   12.2512   27.6446 O   0  0  0  0  0  0  0  0  0  0  0  0
    6.3866   12.7420   27.4551 C   0  0  0  0  0  0  0  0  0  0  0  0
    6.8749   13.7110   28.0145 O   0  0  0  0  0  0  0  0  0  0  0  0
    7.1169   11.9242   26.4573 C   0  0  0  0  0  0  0  0  0  0  0  0
    6.8188   10.5727   26.2604 C   0  0  0  0  0  0  0  0  0  0  0  0
    7.5445    9.8055   25.3443 C   0  0  0  0  0  0  0  0  0  0  0  0
    8.5635   10.4333   24.6198 C   0  0  0  0  0  0  0  0  0  0  0  0
    8.8929   11.7730   24.8125 C   0  0  0  0  0  0  0  0  0  0  0  0
    8.1608   12.5344   25.7438 C   0  0  0  0  0  0  0  0  0  0  0  0
    9.9726   12.0165   23.9225 C   0  0  0  0  0  0  0  0  0  0  0  0
   10.7396   13.2567   23.7329 C   0  0  0  0  0  0  0  0  0  0  0  0
   10.7743   14.0827   24.5532 O   0  0  0  0  0  0  0  0  0  0  0  0
   11.3312   13.2342   22.3198 N   0  0  0  0  0  0  0  0  0  0  0  0
   12.0058   14.2495   21.5819 C   0  0  0  0  0  0  0  0  0  0  0  0
   11.0070   14.9397   20.7371 C   0  0  0  0  0  0  0  0  0  0  0  0
   10.8392   14.8971   19.3757 C   0  0  0  0  0  0  0  0  0  0  0  0
    9.9008   15.8212   19.0340 O   0  0  0  0  0  0  0  0  0  0  0  0
    9.5572   16.4096   20.2148 C   0  0  0  0  0  0  0  0  0  0  0  0
    8.4703   17.9754   20.3060 Br  0  0  0  0  0  0  0  0  0  0  0  0
   10.1261   15.8529   21.2637 N   0  0  0  0  0  0  0  0  0  0  0  0
   10.2455   10.9326   23.1784 N   0  0  0  0  0  0  0  0  0  0  0  0
    9.4133    9.9878   23.6371 N   0  0  0  0  0  0  0  0  0  0  0  0
    9.4771    8.6771   23.0379 C   0  0  0  0  0  0  0  0  0  0  0  0
  1  2  1  0
  2  3  1  0
  3  4  2  0
  3  5  1  0
  5  6  2  0
  6  7  1  0
  7  8  2  0
  8  9  1  0
  9 10  2  0
  9 11  1  0
 11 12  1  0
 12 13  2  0
 12 14  1  0
 14 15  1  0
 15 16  1  0
 16 17  2  0
 17 18  1  0
 18 19  1  0
 19 20  1  0
 19 21  2  0
 11 22  2  0
 22 23  1  0
 23 24  1  0
 10  5  1  0
 21 16  1  0
 23  8  1  0
M  END
>  <energy_score>  (3559) 
-13.680692

>  <inchikey>  (3559) 
MZYUUOQSECFMQW-UHFFFAOYSA-N

>  <smiles>  (3559) 
COC(=O)c1ccc2c(c1)c(C(=O)NCc1coc(Br)n1)nn2C

>  <ref_pdb>  (3559) 
A0514a

>  <alias>  (3559) 
MZYUUOQSECFMQW-UHFFFAOYSA-N-P126-P126-P177-601502

>  <HIPPO Pose ID>  (3559) 
502936

>  <name>  (3559) 
MZYUUOQSECFMQW-UHFFFAOYSA-N-P126-P126-P177-601502

>  <HIPPO Compound ID>  (3559) 
299286

>  <ref_mols>  (3559) 
A3403a,A2290a

>  <distance_score>  (3559) 
0.679424

>  <inspiration_score>  (3559) 
None

$$$$
MZYUUOQSECFMQW-UHFFFAOYSA-N-P177-P126-P177-601502
     RDKit          3D

 24 26  0  0  0  0  0  0  0  0999 V2000
    4.4513   13.4301   29.0097 C   0  0  0  0  0  0  0  0  0  0  0  0
    5.1248   12.6707   28.0054 O   0  0  0  0  0  0  0  0  0  0  0  0
    6.3456   13.1627   27.6763 C   0  0  0  0  0  0  0  0  0  0  0  0
    6.8900   14.1319   28.1807 O   0  0  0  0  0  0  0  0  0  0  0  0
    6.9636   12.3478   26.6004 C   0  0  0  0  0  0  0  0  0  0  0  0
    6.5688   11.0286   26.3570 C   0  0  0  0  0  0  0  0  0  0  0  0
    7.1971   10.2593   25.3739 C   0  0  0  0  0  0  0  0  0  0  0  0
    8.2256   10.8503   24.6384 C   0  0  0  0  0  0  0  0  0  0  0  0
    8.6340   12.1653   24.8517 C   0  0  0  0  0  0  0  0  0  0  0  0
    8.0004   12.9269   25.8511 C   0  0  0  0  0  0  0  0  0  0  0  0
    9.6640   12.3911   23.9011 C   0  0  0  0  0  0  0  0  0  0  0  0
   10.4587   13.6148   23.6731 C   0  0  0  0  0  0  0  0  0  0  0  0
   10.5573   14.4443   24.4858 O   0  0  0  0  0  0  0  0  0  0  0  0
   11.0587   13.5261   22.2650 N   0  0  0  0  0  0  0  0  0  0  0  0
   11.8240   14.4713   21.5234 C   0  0  0  0  0  0  0  0  0  0  0  0
   10.9218   15.2113   20.6259 C   0  0  0  0  0  0  0  0  0  0  0  0
   10.7642   15.0929   19.2671 C   0  0  0  0  0  0  0  0  0  0  0  0
    9.8567   16.0192   18.8688 O   0  0  0  0  0  0  0  0  0  0  0  0
    9.5331   16.6931   20.0135 C   0  0  0  0  0  0  0  0  0  0  0  0
    8.3981   18.2184   20.0081 Br  0  0  0  0  0  0  0  0  0  0  0  0
   10.1160   16.2205   21.0931 N   0  0  0  0  0  0  0  0  0  0  0  0
    9.8695   11.2966   23.1479 N   0  0  0  0  0  0  0  0  0  0  0  0
    9.0337   10.3742   23.6385 N   0  0  0  0  0  0  0  0  0  0  0  0
    9.0691    9.0369   23.0937 C   0  0  0  0  0  0  0  0  0  0  0  0
  1  2  1  0
  2  3  1  0
  3  4  2  0
  3  5  1  0
  5  6  2  0
  6  7  1  0
  7  8  2  0
  8  9  1  0
  9 10  2  0
  9 11  1  0
 11 12  1  0
 12 13  2  0
 12 14  1  0
 14 15  1  0
 15 16  1  0
 16 17  2  0
 17 18  1  0
 18 19  1  0
 19 20  1  0
 19 21  2  0
 11 22  2  0
 22 23  1  0
 23 24  1  0
 10  5  1  0
 21 16  1  0
 23  8  1  0
M  END
>  <energy_score>  (3560) 
-15.318948

>  <inchikey>  (3560) 
MZYUUOQSECFMQW-UHFFFAOYSA-N

>  <smiles>  (3560) 
COC(=O)c1ccc2c(c1)c(C(=O)NCc1coc(Br)n1)nn2C

>  <ref_pdb>  (3560) 
A0514a

>  <alias>  (3560) 
MZYUUOQSECFMQW-UHFFFAOYSA-N-P177-P126-P177-601502

>  <HIPPO Pose ID>  (3560) 
502937

>  <name>  (3560) 
MZYUUOQSECFMQW-UHFFFAOYSA-N-P177-P126-P177-601502

>  <HIPPO Compound ID>  (3560) 
299286

>  <ref_mols>  (3560) 
A3403a,A2290a

>  <distance_score>  (3560) 
0.644489

>  <inspiration_score>  (3560) 
None

$$$$
LXGAXRSTEYEREJ-UHFFFAOYSA-N-P126-P126-P177-601502
     RDKit          3D

 24 26  0  0  0  0  0  0  0  0999 V2000
    4.3801   13.0815   28.5642 C   0  0  0  0  0  0  0  0  0  0  0  0
    5.1583   12.3000   27.6580 O   0  0  0  0  0  0  0  0  0  0  0  0
    6.4089   12.7847   27.4552 C   0  0  0  0  0  0  0  0  0  0  0  0
    6.9036   13.7584   28.0006 O   0  0  0  0  0  0  0  0  0  0  0  0
    7.1305   11.9547   26.4608 C   0  0  0  0  0  0  0  0  0  0  0  0
    6.8208   10.6045   26.2715 C   0  0  0  0  0  0  0  0  0  0  0  0
    7.5385    9.8260   25.3586 C   0  0  0  0  0  0  0  0  0  0  0  0
    8.5627   10.4414   24.6304 C   0  0  0  0  0  0  0  0  0  0  0  0
    8.9043   11.7794   24.8163 C   0  0  0  0  0  0  0  0  0  0  0  0
    8.1789   12.5524   25.7429 C   0  0  0  0  0  0  0  0  0  0  0  0
    9.9852   12.0085   23.9248 C   0  0  0  0  0  0  0  0  0  0  0  0
   10.7648   13.2379   23.7211 C   0  0  0  0  0  0  0  0  0  0  0  0
   10.8613   14.0512   24.5494 O   0  0  0  0  0  0  0  0  0  0  0  0
   11.3161   13.2046   22.2922 N   0  0  0  0  0  0  0  0  0  0  0  0
   12.0183   14.1952   21.5474 C   0  0  0  0  0  0  0  0  0  0  0  0
   11.0196   14.9225   20.7366 C   0  0  0  0  0  0  0  0  0  0  0  0
   10.8254   14.9300   19.3777 C   0  0  0  0  0  0  0  0  0  0  0  0
    9.8771   15.8647   19.0890 O   0  0  0  0  0  0  0  0  0  0  0  0
    9.5520   16.3984   20.3009 C   0  0  0  0  0  0  0  0  0  0  0  0
    8.5485   17.7730   20.4965 Cl  0  0  0  0  0  0  0  0  0  0  0  0
   10.1454   15.8074   21.3148 N   0  0  0  0  0  0  0  0  0  0  0  0
   10.2504   10.9173   23.1879 N   0  0  0  0  0  0  0  0  0  0  0  0
    9.4081    9.9835   23.6499 N   0  0  0  0  0  0  0  0  0  0  0  0
    9.4575    8.6717   23.0529 C   0  0  0  0  0  0  0  0  0  0  0  0
  1  2  1  0
  2  3  1  0
  3  4  2  0
  3  5  1  0
  5  6  2  0
  6  7  1  0
  7  8  2  0
  8  9  1  0
  9 10  2  0
  9 11  1  0
 11 12  1  0
 12 13  2  0
 12 14  1  0
 14 15  1  0
 15 16  1  0
 16 17  2  0
 17 18  1  0
 18 19  1  0
 19 20  1  0
 19 21  2  0
 11 22  2  0
 22 23  1  0
 23 24  1  0
 10  5  1  0
 21 16  1  0
 23  8  1  0
M  END
>  <energy_score>  (3561) 
-15.49895

>  <inchikey>  (3561) 
LXGAXRSTEYEREJ-UHFFFAOYSA-N

>  <smiles>  (3561) 
COC(=O)c1ccc2c(c1)c(C(=O)NCc1coc(Cl)n1)nn2C

>  <ref_pdb>  (3561) 
A0514a

>  <alias>  (3561) 
LXGAXRSTEYEREJ-UHFFFAOYSA-N-P126-P126-P177-601502

>  <HIPPO Pose ID>  (3561) 
502938

>  <name>  (3561) 
LXGAXRSTEYEREJ-UHFFFAOYSA-N-P126-P126-P177-601502

>  <HIPPO Compound ID>  (3561) 
299287

>  <ref_mols>  (3561) 
A3403a,A2290a

>  <distance_score>  (3561) 
0.685009

>  <inspiration_score>  (3561) 
None

$$$$
LXGAXRSTEYEREJ-UHFFFAOYSA-N-P177-P126-P177-601502
     RDKit          3D

 24 26  0  0  0  0  0  0  0  0999 V2000
    4.4697   13.4733   28.9915 C   0  0  0  0  0  0  0  0  0  0  0  0
    5.1406   12.7053   27.9920 O   0  0  0  0  0  0  0  0  0  0  0  0
    6.3633   13.1911   27.6603 C   0  0  0  0  0  0  0  0  0  0  0  0
    6.9108   14.1611   28.1596 O   0  0  0  0  0  0  0  0  0  0  0  0
    6.9781   12.3679   26.5887 C   0  0  0  0  0  0  0  0  0  0  0  0
    6.5778   11.0489   26.3527 C   0  0  0  0  0  0  0  0  0  0  0  0
    7.2023   10.2719   25.3732 C   0  0  0  0  0  0  0  0  0  0  0  0
    8.2329   10.8554   24.6344 C   0  0  0  0  0  0  0  0  0  0  0  0
    8.6474   12.1701   24.8401 C   0  0  0  0  0  0  0  0  0  0  0  0
    8.0168   12.9392   25.8359 C   0  0  0  0  0  0  0  0  0  0  0  0
    9.6797   12.3865   23.8883 C   0  0  0  0  0  0  0  0  0  0  0  0
   10.4781   13.6077   23.6486 C   0  0  0  0  0  0  0  0  0  0  0  0
   10.5079   14.4827   24.4179 O   0  0  0  0  0  0  0  0  0  0  0  0
   11.1333   13.4742   22.2676 N   0  0  0  0  0  0  0  0  0  0  0  0
   11.8808   14.4159   21.5019 C   0  0  0  0  0  0  0  0  0  0  0  0
   10.9527   15.1838   20.6553 C   0  0  0  0  0  0  0  0  0  0  0  0
   10.7569   15.1208   19.2970 C   0  0  0  0  0  0  0  0  0  0  0  0
    9.8346   16.0603   18.9631 O   0  0  0  0  0  0  0  0  0  0  0  0
    9.5383   16.6766   20.1464 C   0  0  0  0  0  0  0  0  0  0  0  0
    8.5083   18.0315   20.2622 Cl  0  0  0  0  0  0  0  0  0  0  0  0
   10.1538   16.1634   21.1870 N   0  0  0  0  0  0  0  0  0  0  0  0
    9.8754   11.2875   23.1390 N   0  0  0  0  0  0  0  0  0  0  0  0
    9.0380   10.3711   23.6364 N   0  0  0  0  0  0  0  0  0  0  0  0
    9.0665    9.0318   23.0966 C   0  0  0  0  0  0  0  0  0  0  0  0
  1  2  1  0
  2  3  1  0
  3  4  2  0
  3  5  1  0
  5  6  2  0
  6  7  1  0
  7  8  2  0
  8  9  1  0
  9 10  2  0
  9 11  1  0
 11 12  1  0
 12 13  2  0
 12 14  1  0
 14 15  1  0
 15 16  1  0
 16 17  2  0
 17 18  1  0
 18 19  1  0
 19 20  1  0
 19 21  2  0
 11 22  2  0
 22 23  1  0
 23 24  1  0
 10  5  1  0
 21 16  1  0
 23  8  1  0
M  END
>  <energy_score>  (3562) 
-17.368474

>  <inchikey>  (3562) 
LXGAXRSTEYEREJ-UHFFFAOYSA-N

>  <smiles>  (3562) 
COC(=O)c1ccc2c(c1)c(C(=O)NCc1coc(Cl)n1)nn2C

>  <ref_pdb>  (3562) 
A0514a

>  <alias>  (3562) 
LXGAXRSTEYEREJ-UHFFFAOYSA-N-P177-P126-P177-601502

>  <HIPPO Pose ID>  (3562) 
502939

>  <name>  (3562) 
LXGAXRSTEYEREJ-UHFFFAOYSA-N-P177-P126-P177-601502

>  <HIPPO Compound ID>  (3562) 
299287

>  <ref_mols>  (3562) 
A3403a,A2290a

>  <distance_score>  (3562) 
0.642875

>  <inspiration_score>  (3562) 
None

$$$$
UDYWJDAEJRIOMS-UHFFFAOYSA-N-P126-P126-P177-601502
     RDKit          3D

 24 26  0  0  0  0  0  0  0  0999 V2000
    5.3541   14.3678   28.5552 C   0  0  0  0  0  0  0  0  0  0  0  0
    6.2337   13.6398   27.6982 O   0  0  0  0  0  0  0  0  0  0  0  0
    5.8554   12.3570   27.4742 C   0  0  0  0  0  0  0  0  0  0  0  0
    4.8979   11.7955   27.9838 O   0  0  0  0  0  0  0  0  0  0  0  0
    6.7940   11.6940   26.5287 C   0  0  0  0  0  0  0  0  0  0  0  0
    6.6398   10.3247   26.2967 C   0  0  0  0  0  0  0  0  0  0  0  0
    7.4595    9.6466   25.3877 C   0  0  0  0  0  0  0  0  0  0  0  0
    8.4309   10.3748   24.7000 C   0  0  0  0  0  0  0  0  0  0  0  0
    8.6262   11.7285   24.9383 C   0  0  0  0  0  0  0  0  0  0  0  0
    7.8032   12.4048   25.8614 C   0  0  0  0  0  0  0  0  0  0  0  0
    9.6888   12.0942   24.0798 C   0  0  0  0  0  0  0  0  0  0  0  0
   10.3087   13.4128   23.9760 C   0  0  0  0  0  0  0  0  0  0  0  0
   10.3518   14.1294   24.8922 O   0  0  0  0  0  0  0  0  0  0  0  0
   10.7358   13.6319   22.5249 N   0  0  0  0  0  0  0  0  0  0  0  0
   11.3910   14.7379   21.9087 C   0  0  1  0  0  0  0  0  0  0  0  0
   12.7846   14.3603   21.4964 C   0  0  0  0  0  0  0  0  0  0  0  0
   10.5528   15.2920   20.8228 C   0  0  0  0  0  0  0  0  0  0  0  0
   10.5795   15.0895   19.4635 C   0  0  0  0  0  0  0  0  0  0  0  0
    9.7767   16.0257   18.8819 O   0  0  0  0  0  0  0  0  0  0  0  0
    9.3028   16.7493   19.9238 C   0  0  0  0  0  0  0  0  0  0  0  0
    9.6660   16.3035   21.0971 N   0  0  0  0  0  0  0  0  0  0  0  0
   10.0791   11.0742   23.2982 N   0  0  0  0  0  0  0  0  0  0  0  0
    9.3302   10.0379   23.7160 N   0  0  0  0  0  0  0  0  0  0  0  0
    9.5066    8.7586   23.0709 C   0  0  0  0  0  0  0  0  0  0  0  0
  1  2  1  0
  2  3  1  0
  3  4  2  0
  3  5  1  0
  5  6  2  0
  6  7  1  0
  7  8  2  0
  8  9  1  0
  9 10  2  0
  9 11  1  0
 11 12  1  0
 12 13  2  0
 12 14  1  0
 14 15  1  0
 15 16  1  6
 15 17  1  0
 17 18  2  0
 18 19  1  0
 19 20  1  0
 20 21  2  0
 11 22  2  0
 22 23  1  0
 23 24  1  0
 10  5  1  0
 21 17  1  0
 23  8  1  0
M  END
>  <energy_score>  (3563) 
-20.735259

>  <inchikey>  (3563) 
UDYWJDAEJRIOMS-UHFFFAOYSA-N

>  <smiles>  (3563) 
COC(=O)c1ccc2c(c1)c(C(=O)NC(C)c1cocn1)nn2C

>  <ref_pdb>  (3563) 
A0514a

>  <alias>  (3563) 
UDYWJDAEJRIOMS-UHFFFAOYSA-N-P126-P126-P177-601502

>  <HIPPO Pose ID>  (3563) 
502940

>  <name>  (3563) 
UDYWJDAEJRIOMS-UHFFFAOYSA-N-P126-P126-P177-601502

>  <HIPPO Compound ID>  (3563) 
299288

>  <ref_mols>  (3563) 
A3403a,A2290a

>  <distance_score>  (3563) 
0.768809

>  <inspiration_score>  (3563) 
None

$$$$
UDYWJDAEJRIOMS-UHFFFAOYSA-N-P177-P126-P177-601502
     RDKit          3D

 24 26  0  0  0  0  0  0  0  0999 V2000
    5.2121   14.5978   28.8444 C   0  0  0  0  0  0  0  0  0  0  0  0
    6.0445   13.9161   27.9057 O   0  0  0  0  0  0  0  0  0  0  0  0
    5.6651   12.6399   27.6525 C   0  0  0  0  0  0  0  0  0  0  0  0
    4.7383   12.0485   28.1853 O   0  0  0  0  0  0  0  0  0  0  0  0
    6.5559   12.0211   26.6342 C   0  0  0  0  0  0  0  0  0  0  0  0
    6.3746   10.6679   26.3432 C   0  0  0  0  0  0  0  0  0  0  0  0
    7.1475   10.0216   25.3746 C   0  0  0  0  0  0  0  0  0  0  0  0
    8.1103   10.7606   24.6991 C   0  0  0  0  0  0  0  0  0  0  0  0
    8.3275   12.1011   24.9821 C   0  0  0  0  0  0  0  0  0  0  0  0
    7.5481   12.7485   25.9616 C   0  0  0  0  0  0  0  0  0  0  0  0
    9.3530   12.4911   24.0935 C   0  0  0  0  0  0  0  0  0  0  0  0
    9.9503   13.8234   23.9895 C   0  0  0  0  0  0  0  0  0  0  0  0
   10.0162   14.5336   24.9084 O   0  0  0  0  0  0  0  0  0  0  0  0
   10.3995   14.0284   22.5464 N   0  0  0  0  0  0  0  0  0  0  0  0
   11.1076   15.1053   21.9416 C   0  0  1  0  0  0  0  0  0  0  0  0
   12.4694   14.6441   21.5268 C   0  0  0  0  0  0  0  0  0  0  0  0
   10.3313   15.6899   20.8413 C   0  0  0  0  0  0  0  0  0  0  0  0
   10.3413   15.4263   19.4929 C   0  0  0  0  0  0  0  0  0  0  0  0
    9.5485   16.3477   18.8881 O   0  0  0  0  0  0  0  0  0  0  0  0
    9.1046   17.1302   19.9101 C   0  0  0  0  0  0  0  0  0  0  0  0
    9.5142   16.7604   21.0918 N   0  0  0  0  0  0  0  0  0  0  0  0
    9.7338   11.4798   23.2907 N   0  0  0  0  0  0  0  0  0  0  0  0
    8.9978   10.4340   23.7048 N   0  0  0  0  0  0  0  0  0  0  0  0
    9.1856    9.1389   23.0892 C   0  0  0  0  0  0  0  0  0  0  0  0
  1  2  1  0
  2  3  1  0
  3  4  2  0
  3  5  1  0
  5  6  2  0
  6  7  1  0
  7  8  2  0
  8  9  1  0
  9 10  2  0
  9 11  1  0
 11 12  1  0
 12 13  2  0
 12 14  1  0
 14 15  1  0
 15 16  1  6
 15 17  1  0
 17 18  2  0
 18 19  1  0
 19 20  1  0
 20 21  2  0
 11 22  2  0
 22 23  1  0
 23 24  1  0
 10  5  1  0
 21 17  1  0
 23  8  1  0
M  END
>  <energy_score>  (3564) 
-22.058625

>  <inchikey>  (3564) 
UDYWJDAEJRIOMS-UHFFFAOYSA-N

>  <smiles>  (3564) 
COC(=O)c1ccc2c(c1)c(C(=O)NC(C)c1cocn1)nn2C

>  <ref_pdb>  (3564) 
A0514a

>  <alias>  (3564) 
UDYWJDAEJRIOMS-UHFFFAOYSA-N-P177-P126-P177-601502

>  <HIPPO Pose ID>  (3564) 
502941

>  <name>  (3564) 
UDYWJDAEJRIOMS-UHFFFAOYSA-N-P177-P126-P177-601502

>  <HIPPO Compound ID>  (3564) 
299288

>  <ref_mols>  (3564) 
A3403a,A2290a

>  <distance_score>  (3564) 
0.8988

>  <inspiration_score>  (3564) 
None

$$$$
RULLFZUALRVUEE-UHFFFAOYSA-N-P126-P126-P177-601502
     RDKit          3D

 24 26  0  0  0  0  0  0  0  0999 V2000
    4.1383   12.8532   28.5740 C   0  0  0  0  0  0  0  0  0  0  0  0
    4.9587   12.1090   27.6736 O   0  0  0  0  0  0  0  0  0  0  0  0
    6.2074   12.6192   27.5262 C   0  0  0  0  0  0  0  0  0  0  0  0
    6.6656   13.5862   28.1137 O   0  0  0  0  0  0  0  0  0  0  0  0
    6.9756   11.8277   26.5354 C   0  0  0  0  0  0  0  0  0  0  0  0
    6.6929   10.4801   26.2977 C   0  0  0  0  0  0  0  0  0  0  0  0
    7.4479    9.7399   25.3829 C   0  0  0  0  0  0  0  0  0  0  0  0
    8.4845   10.3858   24.7035 C   0  0  0  0  0  0  0  0  0  0  0  0
    8.8024   11.7194   24.9455 C   0  0  0  0  0  0  0  0  0  0  0  0
    8.0378   12.4577   25.8692 C   0  0  0  0  0  0  0  0  0  0  0  0
    9.9107   11.9848   24.1048 C   0  0  0  0  0  0  0  0  0  0  0  0
   10.6754   13.2278   23.9723 C   0  0  0  0  0  0  0  0  0  0  0  0
   10.7285   14.0213   24.8225 O   0  0  0  0  0  0  0  0  0  0  0  0
   11.2611   13.2465   22.5606 N   0  0  0  0  0  0  0  0  0  0  0  0
   11.9508   14.2714   21.8610 C   0  0  0  0  0  0  0  0  0  0  0  0
   10.9538   14.9365   20.9974 C   0  0  0  0  0  0  0  0  0  0  0  0
    9.9255   15.6707   21.5184 N   0  0  0  0  0  0  0  0  0  0  0  0
    9.3924   16.2660   20.4797 C   0  0  0  0  0  0  0  0  0  0  0  0
    9.8843   15.8592   19.2831 O   0  0  0  0  0  0  0  0  0  0  0  0
   10.8884   15.0008   19.6293 C   0  0  0  0  0  0  0  0  0  0  0  0
   11.7223   14.4618   18.5633 C   0  0  0  0  0  0  0  0  0  0  0  0
   10.2188   10.9227   23.3413 N   0  0  0  0  0  0  0  0  0  0  0  0
    9.3611    9.9697   23.7303 N   0  0  0  0  0  0  0  0  0  0  0  0
    9.4350    8.6856   23.0769 C   0  0  0  0  0  0  0  0  0  0  0  0
  1  2  1  0
  2  3  1  0
  3  4  2  0
  3  5  1  0
  5  6  2  0
  6  7  1  0
  7  8  2  0
  8  9  1  0
  9 10  2  0
  9 11  1  0
 11 12  1  0
 12 13  2  0
 12 14  1  0
 14 15  1  0
 15 16  1  0
 16 17  1  0
 17 18  2  0
 18 19  1  0
 19 20  1  0
 20 21  1  0
 11 22  2  0
 22 23  1  0
 23 24  1  0
 10  5  1  0
 20 16  2  0
 23  8  1  0
M  END
>  <energy_score>  (3565) 
-9.497099

>  <inchikey>  (3565) 
RULLFZUALRVUEE-UHFFFAOYSA-N

>  <smiles>  (3565) 
COC(=O)c1ccc2c(c1)c(C(=O)NCc1ncoc1C)nn2C

>  <ref_pdb>  (3565) 
A0514a

>  <alias>  (3565) 
RULLFZUALRVUEE-UHFFFAOYSA-N-P126-P126-P177-601502

>  <HIPPO Pose ID>  (3565) 
502942

>  <name>  (3565) 
RULLFZUALRVUEE-UHFFFAOYSA-N-P126-P126-P177-601502

>  <HIPPO Compound ID>  (3565) 
299289

>  <ref_mols>  (3565) 
A3403a,A2290a

>  <distance_score>  (3565) 
0.857243

>  <inspiration_score>  (3565) 
None

$$$$
RULLFZUALRVUEE-UHFFFAOYSA-N-P177-P126-P177-601502
     RDKit          3D

 24 26  0  0  0  0  0  0  0  0999 V2000
    4.2920   13.2968   28.9892 C   0  0  0  0  0  0  0  0  0  0  0  0
    4.9963   12.5552   27.9927 O   0  0  0  0  0  0  0  0  0  0  0  0
    6.2289   13.0520   27.7154 C   0  0  0  0  0  0  0  0  0  0  0  0
    6.7568   14.0077   28.2607 O   0  0  0  0  0  0  0  0  0  0  0  0
    6.8790   12.2595   26.6419 C   0  0  0  0  0  0  0  0  0  0  0  0
    6.4977   10.9430   26.3688 C   0  0  0  0  0  0  0  0  0  0  0  0
    7.1495   10.1942   25.3852 C   0  0  0  0  0  0  0  0  0  0  0  0
    8.1894   10.7981   24.6804 C   0  0  0  0  0  0  0  0  0  0  0  0
    8.5891   12.1083   24.9304 C   0  0  0  0  0  0  0  0  0  0  0  0
    7.9303   12.8530   25.9270 C   0  0  0  0  0  0  0  0  0  0  0  0
    9.6415   12.3501   24.0120 C   0  0  0  0  0  0  0  0  0  0  0  0
   10.4271   13.5809   23.8255 C   0  0  0  0  0  0  0  0  0  0  0  0
   10.4433   14.4290   24.6235 O   0  0  0  0  0  0  0  0  0  0  0  0
   11.0667   13.5123   22.4365 N   0  0  0  0  0  0  0  0  0  0  0  0
   11.7763   14.4956   21.6975 C   0  0  0  0  0  0  0  0  0  0  0  0
   10.8015   15.2745   20.9118 C   0  0  0  0  0  0  0  0  0  0  0  0
    9.8527   16.0678   21.5046 N   0  0  0  0  0  0  0  0  0  0  0  0
    9.2674   16.6713   20.4987 C   0  0  0  0  0  0  0  0  0  0  0  0
    9.7053   16.2823   19.2682 O   0  0  0  0  0  0  0  0  0  0  0  0
   10.6919   15.3819   19.5477 C   0  0  0  0  0  0  0  0  0  0  0  0
   11.4324   14.7989   18.4304 C   0  0  0  0  0  0  0  0  0  0  0  0
    9.8638   11.2746   23.2368 N   0  0  0  0  0  0  0  0  0  0  0  0
    9.0154   10.3446   23.6841 N   0  0  0  0  0  0  0  0  0  0  0  0
    9.0588    9.0248   23.0998 C   0  0  0  0  0  0  0  0  0  0  0  0
  1  2  1  0
  2  3  1  0
  3  4  2  0
  3  5  1  0
  5  6  2  0
  6  7  1  0
  7  8  2  0
  8  9  1  0
  9 10  2  0
  9 11  1  0
 11 12  1  0
 12 13  2  0
 12 14  1  0
 14 15  1  0
 15 16  1  0
 16 17  1  0
 17 18  2  0
 18 19  1  0
 19 20  1  0
 20 21  1  0
 11 22  2  0
 22 23  1  0
 23 24  1  0
 10  5  1  0
 20 16  2  0
 23  8  1  0
M  END
>  <energy_score>  (3566) 
-11.386139

>  <inchikey>  (3566) 
RULLFZUALRVUEE-UHFFFAOYSA-N

>  <smiles>  (3566) 
COC(=O)c1ccc2c(c1)c(C(=O)NCc1ncoc1C)nn2C

>  <ref_pdb>  (3566) 
A0514a

>  <alias>  (3566) 
RULLFZUALRVUEE-UHFFFAOYSA-N-P177-P126-P177-601502

>  <HIPPO Pose ID>  (3566) 
502943

>  <name>  (3566) 
RULLFZUALRVUEE-UHFFFAOYSA-N-P177-P126-P177-601502

>  <HIPPO Compound ID>  (3566) 
299289

>  <ref_mols>  (3566) 
A3403a,A2290a

>  <distance_score>  (3566) 
0.731445

>  <inspiration_score>  (3566) 
None

$$$$
JHOWVHKEJBIEBL-UHFFFAOYSA-N-P126-P126-P177-601502
     RDKit          3D

 24 27  0  0  0  0  0  0  0  0999 V2000
   10.2816   14.2393   24.3900 O   0  0  0  0  0  0  0  0  0  0  0  0
   10.2992   13.3685   23.6170 C   0  0  0  0  0  0  0  0  0  0  0  0
   10.8285   13.3261   22.1775 N   0  0  0  0  0  0  0  0  0  0  0  0
   11.3496   14.3433   21.3695 C   0  0  0  0  0  0  0  0  0  0  0  0
   10.3297   15.2646   20.6477 C   0  0  0  0  0  0  0  0  0  0  0  0
   10.2857   15.5152   19.3023 C   0  0  0  0  0  0  0  0  0  0  0  0
    9.4944   16.6038   19.1019 O   0  0  0  0  0  0  0  0  0  0  0  0
    9.0547   16.9064   20.3536 C   0  0  0  0  0  0  0  0  0  0  0  0
    9.4610   16.0822   21.2901 N   0  0  0  0  0  0  0  0  0  0  0  0
   12.5795   13.9791   20.5828 C   0  0  0  0  0  0  0  0  0  0  0  0
   12.6881   14.9094   21.7357 C   0  0  0  0  0  0  0  0  0  0  0  0
    9.7605   12.0487   23.9060 C   0  0  0  0  0  0  0  0  0  0  0  0
   10.2043   11.0012   23.2018 N   0  0  0  0  0  0  0  0  0  0  0  0
    9.4793    9.9511   23.6408 N   0  0  0  0  0  0  0  0  0  0  0  0
    9.6118    8.6675   22.9406 C   0  0  0  0  0  0  0  0  0  0  0  0
   10.0417    8.8465   21.6680 F   0  0  0  0  0  0  0  0  0  0  0  0
    8.4276    8.0340   22.8759 F   0  0  0  0  0  0  0  0  0  0  0  0
   10.4958    7.8291   23.5219 F   0  0  0  0  0  0  0  0  0  0  0  0
    8.5787   10.3152   24.6254 C   0  0  0  0  0  0  0  0  0  0  0  0
    7.6117    9.6035   25.3392 C   0  0  0  0  0  0  0  0  0  0  0  0
    6.8102   10.2966   26.2525 C   0  0  0  0  0  0  0  0  0  0  0  0
    6.9664   11.6645   26.4486 C   0  0  0  0  0  0  0  0  0  0  0  0
    7.9336   12.3736   25.7340 C   0  0  0  0  0  0  0  0  0  0  0  0
    8.7502   11.6850   24.8173 C   0  0  0  0  0  0  0  0  0  0  0  0
  1  2  2  0
  2  3  1  0
  3  4  1  0
  4  5  1  0
  5  6  2  0
  6  7  1  0
  7  8  1  0
  8  9  2  0
  4 10  1  0
 10 11  1  0
  2 12  1  0
 12 13  2  0
 13 14  1  0
 14 15  1  0
 15 16  1  0
 15 17  1  0
 15 18  1  0
 14 19  1  0
 19 20  2  0
 20 21  1  0
 21 22  2  0
 22 23  1  0
 23 24  2  0
 11  4  1  0
 24 12  1  0
  9  5  1  0
 24 19  1  0
M  END
>  <energy_score>  (3567) 
-9.624273

>  <inchikey>  (3567) 
JHOWVHKEJBIEBL-UHFFFAOYSA-N

>  <smiles>  (3567) 
O=C(NC1(c2cocn2)CC1)c1nn(C(F)(F)F)c2ccccc12

>  <ref_pdb>  (3567) 
A0514a

>  <alias>  (3567) 
JHOWVHKEJBIEBL-UHFFFAOYSA-N-P126-P126-P177-601502

>  <HIPPO Pose ID>  (3567) 
502944

>  <name>  (3567) 
JHOWVHKEJBIEBL-UHFFFAOYSA-N-P126-P126-P177-601502

>  <HIPPO Compound ID>  (3567) 
299290

>  <ref_mols>  (3567) 
A3403a,A2290a

>  <distance_score>  (3567) 
0.7484

>  <inspiration_score>  (3567) 
None

$$$$
JHOWVHKEJBIEBL-UHFFFAOYSA-N-P177-P126-P177-601502
     RDKit          3D

 24 27  0  0  0  0  0  0  0  0999 V2000
   10.2532   14.6026   24.2315 O   0  0  0  0  0  0  0  0  0  0  0  0
   10.1849   13.7141   23.4785 C   0  0  0  0  0  0  0  0  0  0  0  0
   10.6355   13.6132   22.0098 N   0  0  0  0  0  0  0  0  0  0  0  0
   11.1645   14.5858   21.1508 C   0  0  0  0  0  0  0  0  0  0  0  0
   10.1649   15.6312   20.6464 C   0  0  0  0  0  0  0  0  0  0  0  0
    9.9750   15.9547   19.3337 C   0  0  0  0  0  0  0  0  0  0  0  0
    9.1899   17.0612   19.3007 O   0  0  0  0  0  0  0  0  0  0  0  0
    8.8968   17.2896   20.6105 C   0  0  0  0  0  0  0  0  0  0  0  0
    9.4172   16.4279   21.4499 N   0  0  0  0  0  0  0  0  0  0  0  0
   12.2632   14.2003   20.1888 C   0  0  0  0  0  0  0  0  0  0  0  0
   12.5657   15.0286   21.3893 C   0  0  0  0  0  0  0  0  0  0  0  0
    9.5752   12.4263   23.8290 C   0  0  0  0  0  0  0  0  0  0  0  0
    9.8774   11.3290   23.1187 N   0  0  0  0  0  0  0  0  0  0  0  0
    9.1165   10.3460   23.6399 N   0  0  0  0  0  0  0  0  0  0  0  0
    9.1150    9.0083   23.0389 C   0  0  0  0  0  0  0  0  0  0  0  0
    9.7371    8.9573   21.8379 F   0  0  0  0  0  0  0  0  0  0  0  0
    7.8413    8.6119   22.8386 F   0  0  0  0  0  0  0  0  0  0  0  0
    9.6904    8.0754   23.8309 F   0  0  0  0  0  0  0  0  0  0  0  0
    8.2847   10.8023   24.6423 C   0  0  0  0  0  0  0  0  0  0  0  0
    7.2830   10.1798   25.3907 C   0  0  0  0  0  0  0  0  0  0  0  0
    6.6029   10.9425   26.3434 C   0  0  0  0  0  0  0  0  0  0  0  0
    6.9105   12.2850   26.5386 C   0  0  0  0  0  0  0  0  0  0  0  0
    7.9046   12.9038   25.7763 C   0  0  0  0  0  0  0  0  0  0  0  0
    8.5980   12.1495   24.8129 C   0  0  0  0  0  0  0  0  0  0  0  0
  1  2  2  0
  2  3  1  0
  3  4  1  0
  4  5  1  0
  5  6  2  0
  6  7  1  0
  7  8  1  0
  8  9  2  0
  4 10  1  0
 10 11  1  0
  2 12  1  0
 12 13  2  0
 13 14  1  0
 14 15  1  0
 15 16  1  0
 15 17  1  0
 15 18  1  0
 14 19  1  0
 19 20  2  0
 20 21  1  0
 21 22  2  0
 22 23  1  0
 23 24  2  0
 11  4  1  0
 24 12  1  0
  9  5  1  0
 24 19  1  0
M  END
>  <energy_score>  (3568) 
-11.738876

>  <inchikey>  (3568) 
JHOWVHKEJBIEBL-UHFFFAOYSA-N

>  <smiles>  (3568) 
O=C(NC1(c2cocn2)CC1)c1nn(C(F)(F)F)c2ccccc12

>  <ref_pdb>  (3568) 
A0514a

>  <alias>  (3568) 
JHOWVHKEJBIEBL-UHFFFAOYSA-N-P177-P126-P177-601502

>  <HIPPO Pose ID>  (3568) 
502945

>  <name>  (3568) 
JHOWVHKEJBIEBL-UHFFFAOYSA-N-P177-P126-P177-601502

>  <HIPPO Compound ID>  (3568) 
299290

>  <ref_mols>  (3568) 
A3403a,A2290a

>  <distance_score>  (3568) 
0.851965

>  <inspiration_score>  (3568) 
None

$$$$
DTGZBQUHJBLZGL-UHFFFAOYSA-N-P126-P126-P177-601502
     RDKit          3D

 24 26  0  0  0  0  0  0  0  0999 V2000
   12.1653   14.7561   17.9680 C   0  0  0  0  0  0  0  0  0  0  0  0
   11.4129   14.1732   19.0687 C   0  0  0  0  0  0  0  0  0  0  0  0
   10.5933   15.0936   19.8038 C   0  0  0  0  0  0  0  0  0  0  0  0
    9.7300   15.9105   19.1468 O   0  0  0  0  0  0  0  0  0  0  0  0
    9.2664   16.7134   20.1341 C   0  0  0  0  0  0  0  0  0  0  0  0
    9.6997   16.3954   21.3252 N   0  0  0  0  0  0  0  0  0  0  0  0
   10.6192   15.4106   21.1281 C   0  0  0  0  0  0  0  0  0  0  0  0
   11.5641   14.9004   22.1492 C   0  0  0  0  0  0  0  0  0  0  0  0
   11.0083   13.7296   22.7373 N   0  0  0  0  0  0  0  0  0  0  0  0
   10.5114   13.4723   24.1588 C   0  0  0  0  0  0  0  0  0  0  0  0
   10.5447   14.1500   25.1046 O   0  0  0  0  0  0  0  0  0  0  0  0
    9.8788   12.1516   24.1798 C   0  0  0  0  0  0  0  0  0  0  0  0
   10.2994   11.1713   23.3650 N   0  0  0  0  0  0  0  0  0  0  0  0
    9.5168   10.1018   23.6838 N   0  0  0  0  0  0  0  0  0  0  0  0
    9.6661    8.8311   22.9553 C   0  0  0  0  0  0  0  0  0  0  0  0
    8.4990    8.1545   22.9006 F   0  0  0  0  0  0  0  0  0  0  0  0
   10.0744    9.0318   21.6806 F   0  0  0  0  0  0  0  0  0  0  0  0
   10.5850    8.0118   23.5148 F   0  0  0  0  0  0  0  0  0  0  0  0
    8.5914   10.4039   24.6672 C   0  0  0  0  0  0  0  0  0  0  0  0
    7.5988    9.6513   25.3023 C   0  0  0  0  0  0  0  0  0  0  0  0
    6.7692   10.2892   26.2302 C   0  0  0  0  0  0  0  0  0  0  0  0
    6.9289   11.6386   26.5238 C   0  0  0  0  0  0  0  0  0  0  0  0
    7.9378   12.3793   25.9062 C   0  0  0  0  0  0  0  0  0  0  0  0
    8.7846   11.7463   24.9758 C   0  0  0  0  0  0  0  0  0  0  0  0
  1  2  1  0
  2  3  1  0
  3  4  1  0
  4  5  1  0
  5  6  2  0
  6  7  1  0
  7  8  1  0
  8  9  1  0
  9 10  1  0
 10 11  2  0
 10 12  1  0
 12 13  2  0
 13 14  1  0
 14 15  1  0
 15 16  1  0
 15 17  1  0
 15 18  1  0
 14 19  1  0
 19 20  2  0
 20 21  1  0
 21 22  2  0
 22 23  1  0
 23 24  2  0
  7  3  2  0
 24 12  1  0
 24 19  1  0
M  END
>  <energy_score>  (3569) 
-13.147733

>  <inchikey>  (3569) 
DTGZBQUHJBLZGL-UHFFFAOYSA-N

>  <smiles>  (3569) 
CCc1ocnc1CNC(=O)c1nn(C(F)(F)F)c2ccccc12

>  <ref_pdb>  (3569) 
A0514a

>  <alias>  (3569) 
DTGZBQUHJBLZGL-UHFFFAOYSA-N-P126-P126-P177-601502

>  <HIPPO Pose ID>  (3569) 
502946

>  <name>  (3569) 
DTGZBQUHJBLZGL-UHFFFAOYSA-N-P126-P126-P177-601502

>  <HIPPO Compound ID>  (3569) 
299291

>  <ref_mols>  (3569) 
A3403a,A2290a

>  <distance_score>  (3569) 
0.84266

>  <inspiration_score>  (3569) 
None

$$$$
DTGZBQUHJBLZGL-UHFFFAOYSA-N-P177-P126-P177-601502
     RDKit          3D

 24 26  0  0  0  0  0  0  0  0999 V2000
   11.9453   14.9281   18.0307 C   0  0  0  0  0  0  0  0  0  0  0  0
   10.6246   14.6863   18.6415 C   0  0  0  0  0  0  0  0  0  0  0  0
   10.3407   15.4832   19.8108 C   0  0  0  0  0  0  0  0  0  0  0  0
    9.4105   16.4657   19.6875 O   0  0  0  0  0  0  0  0  0  0  0  0
    9.2043   16.8511   20.9699 C   0  0  0  0  0  0  0  0  0  0  0  0
    9.9293   16.2021   21.8514 N   0  0  0  0  0  0  0  0  0  0  0  0
   10.7448   15.4007   21.1112 C   0  0  0  0  0  0  0  0  0  0  0  0
   11.7836   14.5431   21.7095 C   0  0  0  0  0  0  0  0  0  0  0  0
   11.1136   13.5421   22.4587 N   0  0  0  0  0  0  0  0  0  0  0  0
   10.5169   13.5860   23.8690 C   0  0  0  0  0  0  0  0  0  0  0  0
   10.5453   14.4259   24.6757 O   0  0  0  0  0  0  0  0  0  0  0  0
    9.7481   12.3471   24.0490 C   0  0  0  0  0  0  0  0  0  0  0  0
   10.0055   11.2825   23.2750 N   0  0  0  0  0  0  0  0  0  0  0  0
    9.1438   10.3265   23.6809 N   0  0  0  0  0  0  0  0  0  0  0  0
    9.1330    9.0090   23.0323 C   0  0  0  0  0  0  0  0  0  0  0  0
    7.8639    8.6097   22.8192 F   0  0  0  0  0  0  0  0  0  0  0  0
    9.7515    9.0040   21.8279 F   0  0  0  0  0  0  0  0  0  0  0  0
    9.7219    8.0535   23.7878 F   0  0  0  0  0  0  0  0  0  0  0  0
    8.2936   10.7772   24.6703 C   0  0  0  0  0  0  0  0  0  0  0  0
    7.2349   10.1720   25.3497 C   0  0  0  0  0  0  0  0  0  0  0  0
    6.5491   10.9236   26.3069 C   0  0  0  0  0  0  0  0  0  0  0  0
    6.9051   12.2411   26.5736 C   0  0  0  0  0  0  0  0  0  0  0  0
    7.9663   12.8400   25.8910 C   0  0  0  0  0  0  0  0  0  0  0  0
    8.6721   12.0932   24.9303 C   0  0  0  0  0  0  0  0  0  0  0  0
  1  2  1  0
  2  3  1  0
  3  4  1  0
  4  5  1  0
  5  6  2  0
  6  7  1  0
  7  8  1  0
  8  9  1  0
  9 10  1  0
 10 11  2  0
 10 12  1  0
 12 13  2  0
 13 14  1  0
 14 15  1  0
 15 16  1  0
 15 17  1  0
 15 18  1  0
 14 19  1  0
 19 20  2  0
 20 21  1  0
 21 22  2  0
 22 23  1  0
 23 24  2  0
  7  3  2  0
 24 12  1  0
 24 19  1  0
M  END
>  <energy_score>  (3570) 
-21.924742

>  <inchikey>  (3570) 
DTGZBQUHJBLZGL-UHFFFAOYSA-N

>  <smiles>  (3570) 
CCc1ocnc1CNC(=O)c1nn(C(F)(F)F)c2ccccc12

>  <ref_pdb>  (3570) 
A0514a

>  <alias>  (3570) 
DTGZBQUHJBLZGL-UHFFFAOYSA-N-P177-P126-P177-601502

>  <HIPPO Pose ID>  (3570) 
502947

>  <name>  (3570) 
DTGZBQUHJBLZGL-UHFFFAOYSA-N-P177-P126-P177-601502

>  <HIPPO Compound ID>  (3570) 
299291

>  <ref_mols>  (3570) 
A3403a,A2290a

>  <distance_score>  (3570) 
0.806347

>  <inspiration_score>  (3570) 
None

$$$$
QNGRDHZNYWMEHV-UHFFFAOYSA-N-P126-P126-P177-601502
     RDKit          3D

 24 26  0  0  0  0  0  0  0  0999 V2000
    8.6181   14.4436   20.0489 O   0  0  0  0  0  0  0  0  0  0  0  0
    9.3228   15.1156   20.6701 C   0  0  0  0  0  0  0  0  0  0  0  0
   10.1120   14.8137   21.9286 N   0  0  0  0  0  0  0  0  0  0  0  0
   10.1319   13.7268   22.6960 N   0  0  0  0  0  0  0  0  0  0  0  0
    9.9206   13.5696   24.2018 C   0  0  0  0  0  0  0  0  0  0  0  0
    9.7716   14.3723   25.0316 O   0  0  0  0  0  0  0  0  0  0  0  0
    9.8270   12.1366   24.4570 C   0  0  0  0  0  0  0  0  0  0  0  0
   10.3491   11.2072   23.6389 N   0  0  0  0  0  0  0  0  0  0  0  0
    9.5961   10.0850   23.8762 N   0  0  0  0  0  0  0  0  0  0  0  0
    9.7708    8.8739   23.0516 C   0  0  0  0  0  0  0  0  0  0  0  0
   10.7742    8.0820   23.4944 F   0  0  0  0  0  0  0  0  0  0  0  0
    8.6439    8.1284   23.0210 F   0  0  0  0  0  0  0  0  0  0  0  0
   10.0738    9.1899   21.7718 F   0  0  0  0  0  0  0  0  0  0  0  0
    8.6210   10.3040   24.8353 C   0  0  0  0  0  0  0  0  0  0  0  0
    7.5939    9.5089   25.3473 C   0  0  0  0  0  0  0  0  0  0  0  0
    6.6851   10.0737   26.2488 C   0  0  0  0  0  0  0  0  0  0  0  0
    6.7897   11.4036   26.6288 C   0  0  0  0  0  0  0  0  0  0  0  0
    7.8197   12.1918   26.1223 C   0  0  0  0  0  0  0  0  0  0  0  0
    8.7633   11.6220   25.2407 C   0  0  0  0  0  0  0  0  0  0  0  0
    9.4031   16.5023   20.2469 C   0  0  0  0  0  0  0  0  0  0  0  0
    9.5204   16.9268   18.9410 C   0  0  0  0  0  0  0  0  0  0  0  0
    8.9013   18.1358   18.8349 O   0  0  0  0  0  0  0  0  0  0  0  0
    8.4616   18.3921   20.0973 C   0  0  0  0  0  0  0  0  0  0  0  0
    8.8108   17.4992   20.9942 N   0  0  0  0  0  0  0  0  0  0  0  0
  1  2  2  0
  2  3  1  0
  3  4  1  0
  4  5  1  0
  5  6  2  0
  5  7  1  0
  7  8  2  0
  8  9  1  0
  9 10  1  0
 10 11  1  0
 10 12  1  0
 10 13  1  0
  9 14  1  0
 14 15  2  0
 15 16  1  0
 16 17  2  0
 17 18  1  0
 18 19  2  0
  2 20  1  0
 20 21  2  0
 21 22  1  0
 22 23  1  0
 23 24  2  0
 19  7  1  0
 24 20  1  0
 19 14  1  0
M  END
>  <energy_score>  (3571) 
-21.757408

>  <inchikey>  (3571) 
QNGRDHZNYWMEHV-UHFFFAOYSA-N

>  <smiles>  (3571) 
O=C(NNC(=O)c1nn(C(F)(F)F)c2ccccc12)c1cocn1

>  <ref_pdb>  (3571) 
A0514a

>  <alias>  (3571) 
QNGRDHZNYWMEHV-UHFFFAOYSA-N-P126-P126-P177-601502

>  <HIPPO Pose ID>  (3571) 
502948

>  <name>  (3571) 
QNGRDHZNYWMEHV-UHFFFAOYSA-N-P126-P126-P177-601502

>  <HIPPO Compound ID>  (3571) 
299292

>  <ref_mols>  (3571) 
A3403a,A2290a

>  <distance_score>  (3571) 
1.43355

>  <inspiration_score>  (3571) 
None

$$$$
QNGRDHZNYWMEHV-UHFFFAOYSA-N-P177-P126-P177-601502
     RDKit          3D

 24 26  0  0  0  0  0  0  0  0999 V2000
    7.9221   14.4737   20.6608 O   0  0  0  0  0  0  0  0  0  0  0  0
    8.7396   15.1178   21.1651 C   0  0  0  0  0  0  0  0  0  0  0  0
    9.6537   14.8078   22.3203 N   0  0  0  0  0  0  0  0  0  0  0  0
    9.7031   13.7737   23.1025 N   0  0  0  0  0  0  0  0  0  0  0  0
   10.0124   13.6706   24.5794 C   0  0  0  0  0  0  0  0  0  0  0  0
   10.3522   14.4816   25.3369 O   0  0  0  0  0  0  0  0  0  0  0  0
    9.6712   12.2795   24.8232 C   0  0  0  0  0  0  0  0  0  0  0  0
    9.9472   11.3137   23.9175 N   0  0  0  0  0  0  0  0  0  0  0  0
    9.0320   10.3343   24.1696 N   0  0  0  0  0  0  0  0  0  0  0  0
    8.9303    9.1147   23.3513 C   0  0  0  0  0  0  0  0  0  0  0  0
    7.6331    8.8957   23.0585 F   0  0  0  0  0  0  0  0  0  0  0  0
    9.5772    9.1781   22.1741 F   0  0  0  0  0  0  0  0  0  0  0  0
    9.3791    8.0180   24.0017 F   0  0  0  0  0  0  0  0  0  0  0  0
    8.1295   10.7135   25.1498 C   0  0  0  0  0  0  0  0  0  0  0  0
    6.9731   10.1182   25.6473 C   0  0  0  0  0  0  0  0  0  0  0  0
    6.2288   10.8024   26.6111 C   0  0  0  0  0  0  0  0  0  0  0  0
    6.5970   12.0705   27.0343 C   0  0  0  0  0  0  0  0  0  0  0  0
    7.7432   12.6699   26.5218 C   0  0  0  0  0  0  0  0  0  0  0  0
    8.5380   11.9579   25.6037 C   0  0  0  0  0  0  0  0  0  0  0  0
    8.9874   16.4436   20.7256 C   0  0  0  0  0  0  0  0  0  0  0  0
    9.4469   16.7383   19.4811 C   0  0  0  0  0  0  0  0  0  0  0  0
    9.0339   18.0020   19.2197 O   0  0  0  0  0  0  0  0  0  0  0  0
    8.5232   18.4431   20.4002 C   0  0  0  0  0  0  0  0  0  0  0  0
    8.5454   17.5589   21.3655 N   0  0  0  0  0  0  0  0  0  0  0  0
  1  2  2  0
  2  3  1  0
  3  4  1  0
  4  5  1  0
  5  6  2  0
  5  7  1  0
  7  8  2  0
  8  9  1  0
  9 10  1  0
 10 11  1  0
 10 12  1  0
 10 13  1  0
  9 14  1  0
 14 15  2  0
 15 16  1  0
 16 17  2  0
 17 18  1  0
 18 19  2  0
  2 20  1  0
 20 21  2  0
 21 22  1  0
 22 23  1  0
 23 24  2  0
 19  7  1  0
 24 20  1  0
 19 14  1  0
M  END
>  <energy_score>  (3572) 
-15.846573

>  <inchikey>  (3572) 
QNGRDHZNYWMEHV-UHFFFAOYSA-N

>  <smiles>  (3572) 
O=C(NNC(=O)c1nn(C(F)(F)F)c2ccccc12)c1cocn1

>  <ref_pdb>  (3572) 
A0514a

>  <alias>  (3572) 
QNGRDHZNYWMEHV-UHFFFAOYSA-N-P177-P126-P177-601502

>  <HIPPO Pose ID>  (3572) 
502949

>  <name>  (3572) 
QNGRDHZNYWMEHV-UHFFFAOYSA-N-P177-P126-P177-601502

>  <HIPPO Compound ID>  (3572) 
299292

>  <ref_mols>  (3572) 
A3403a,A2290a

>  <distance_score>  (3572) 
1.671022

>  <inspiration_score>  (3572) 
None

$$$$
MVSPJDNQYVZQTM-UHFFFAOYSA-N-P126-P126-P177-601502
     RDKit          3D

 24 26  0  0  0  0  0  0  0  0999 V2000
    8.3363   18.2889   19.2034 C   0  0  0  0  0  0  0  0  0  0  0  0
    8.6337   17.5500   20.4981 C   0  0  0  0  0  0  0  0  0  0  0  0
    9.5884   16.4189   20.3823 C   0  0  0  0  0  0  0  0  0  0  0  0
   10.2291   15.8132   21.3582 N   0  0  0  0  0  0  0  0  0  0  0  0
   11.0877   14.9532   20.7285 C   0  0  0  0  0  0  0  0  0  0  0  0
   12.1390   14.2465   21.4879 C   0  0  0  0  0  0  0  0  0  0  0  0
   11.4846   13.2502   22.2675 N   0  0  0  0  0  0  0  0  0  0  0  0
   10.9107   13.3139   23.6891 C   0  0  0  0  0  0  0  0  0  0  0  0
   10.9483   14.1671   24.4816 O   0  0  0  0  0  0  0  0  0  0  0  0
   10.1501   12.0782   23.9101 C   0  0  0  0  0  0  0  0  0  0  0  0
   10.4632   10.9894   23.1987 N   0  0  0  0  0  0  0  0  0  0  0  0
    9.6184   10.0279   23.6234 N   0  0  0  0  0  0  0  0  0  0  0  0
    9.6579    8.7122   22.9770 C   0  0  0  0  0  0  0  0  0  0  0  0
    9.9503    8.8182   21.6611 F   0  0  0  0  0  0  0  0  0  0  0  0
    8.4638    8.0987   23.0836 F   0  0  0  0  0  0  0  0  0  0  0  0
   10.5917    7.8914   23.5062 F   0  0  0  0  0  0  0  0  0  0  0  0
    8.7373   10.4838   24.5858 C   0  0  0  0  0  0  0  0  0  0  0  0
    7.7012    9.8625   25.2971 C   0  0  0  0  0  0  0  0  0  0  0  0
    6.9475   10.6417   26.1794 C   0  0  0  0  0  0  0  0  0  0  0  0
    7.2195   11.9961   26.3483 C   0  0  0  0  0  0  0  0  0  0  0  0
    8.2677   12.6047   25.6499 C   0  0  0  0  0  0  0  0  0  0  0  0
    9.0464   11.8335   24.7660 C   0  0  0  0  0  0  0  0  0  0  0  0
   10.8218   14.9667   19.3818 C   0  0  0  0  0  0  0  0  0  0  0  0
    9.8522   15.8972   19.1489 O   0  0  0  0  0  0  0  0  0  0  0  0
  1  2  1  0
  2  3  1  0
  3  4  2  0
  4  5  1  0
  5  6  1  0
  6  7  1  0
  7  8  1  0
  8  9  2  0
  8 10  1  0
 10 11  2  0
 11 12  1  0
 12 13  1  0
 13 14  1  0
 13 15  1  0
 13 16  1  0
 12 17  1  0
 17 18  2  0
 18 19  1  0
 19 20  2  0
 20 21  1  0
 21 22  2  0
  5 23  2  0
 23 24  1  0
 24  3  1  0
 22 10  1  0
 22 17  1  0
M  END
>  <energy_score>  (3573) 
-25.204835

>  <inchikey>  (3573) 
MVSPJDNQYVZQTM-UHFFFAOYSA-N

>  <smiles>  (3573) 
CCc1nc(CNC(=O)c2nn(C(F)(F)F)c3ccccc23)co1

>  <ref_pdb>  (3573) 
A0514a

>  <alias>  (3573) 
MVSPJDNQYVZQTM-UHFFFAOYSA-N-P126-P126-P177-601502

>  <HIPPO Pose ID>  (3573) 
502950

>  <name>  (3573) 
MVSPJDNQYVZQTM-UHFFFAOYSA-N-P126-P126-P177-601502

>  <HIPPO Compound ID>  (3573) 
299293

>  <ref_mols>  (3573) 
A3403a,A2290a

>  <distance_score>  (3573) 
0.705475

>  <inspiration_score>  (3573) 
None

$$$$
MVSPJDNQYVZQTM-UHFFFAOYSA-N-P177-P126-P177-601502
     RDKit          3D

 24 26  0  0  0  0  0  0  0  0999 V2000
    8.0453   18.7129   19.4647 C   0  0  0  0  0  0  0  0  0  0  0  0
    8.5157   17.8677   20.6300 C   0  0  0  0  0  0  0  0  0  0  0  0
    9.5410   16.8361   20.3707 C   0  0  0  0  0  0  0  0  0  0  0  0
   10.2779   16.2477   21.2841 N   0  0  0  0  0  0  0  0  0  0  0  0
   10.9770   15.2942   20.6028 C   0  0  0  0  0  0  0  0  0  0  0  0
   11.9286   14.4350   21.3247 C   0  0  0  0  0  0  0  0  0  0  0  0
   11.1674   13.5217   22.1182 N   0  0  0  0  0  0  0  0  0  0  0  0
   10.5648   13.6812   23.5227 C   0  0  0  0  0  0  0  0  0  0  0  0
   10.6569   14.5542   24.2905 O   0  0  0  0  0  0  0  0  0  0  0  0
    9.7696   12.4685   23.8128 C   0  0  0  0  0  0  0  0  0  0  0  0
    9.9972   11.3358   23.1296 N   0  0  0  0  0  0  0  0  0  0  0  0
    9.2114   10.4027   23.7102 N   0  0  0  0  0  0  0  0  0  0  0  0
    9.4315    8.9762   23.4381 C   0  0  0  0  0  0  0  0  0  0  0  0
    9.1269    8.6350   22.1677 F   0  0  0  0  0  0  0  0  0  0  0  0
    8.6758    8.2177   24.2593 F   0  0  0  0  0  0  0  0  0  0  0  0
   10.7142    8.6036   23.6579 F   0  0  0  0  0  0  0  0  0  0  0  0
    8.3368   10.9503   24.6274 C   0  0  0  0  0  0  0  0  0  0  0  0
    7.2859   10.4061   25.3777 C   0  0  0  0  0  0  0  0  0  0  0  0
    6.6271   11.2387   26.2838 C   0  0  0  0  0  0  0  0  0  0  0  0
    7.0022   12.5697   26.4343 C   0  0  0  0  0  0  0  0  0  0  0  0
    8.0454   13.1079   25.6737 C   0  0  0  0  0  0  0  0  0  0  0  0
    8.7200   12.2869   24.7516 C   0  0  0  0  0  0  0  0  0  0  0  0
   10.6259   15.3365   19.2748 C   0  0  0  0  0  0  0  0  0  0  0  0
    9.6857   16.3138   19.1162 O   0  0  0  0  0  0  0  0  0  0  0  0
  1  2  1  0
  2  3  1  0
  3  4  2  0
  4  5  1  0
  5  6  1  0
  6  7  1  0
  7  8  1  0
  8  9  2  0
  8 10  1  0
 10 11  2  0
 11 12  1  0
 12 13  1  0
 13 14  1  0
 13 15  1  0
 13 16  1  0
 12 17  1  0
 17 18  2  0
 18 19  1  0
 19 20  2  0
 20 21  1  0
 21 22  2  0
  5 23  2  0
 23 24  1  0
 24  3  1  0
 22 10  1  0
 22 17  1  0
M  END
>  <energy_score>  (3574) 
-25.284017

>  <inchikey>  (3574) 
MVSPJDNQYVZQTM-UHFFFAOYSA-N

>  <smiles>  (3574) 
CCc1nc(CNC(=O)c2nn(C(F)(F)F)c3ccccc23)co1

>  <ref_pdb>  (3574) 
A0514a

>  <alias>  (3574) 
MVSPJDNQYVZQTM-UHFFFAOYSA-N-P177-P126-P177-601502

>  <HIPPO Pose ID>  (3574) 
502951

>  <name>  (3574) 
MVSPJDNQYVZQTM-UHFFFAOYSA-N-P177-P126-P177-601502

>  <HIPPO Compound ID>  (3574) 
299293

>  <ref_mols>  (3574) 
A3403a,A2290a

>  <distance_score>  (3574) 
0.682387

>  <inspiration_score>  (3574) 
None

$$$$
IYFPJDMNFXNJIC-UHFFFAOYSA-N-P126-P126-P177-601502
     RDKit          3D

 25 28  0  0  0  0  0  0  0  0999 V2000
    9.2218    8.7184   23.2559 C   0  0  0  0  0  0  0  0  0  0  0  0
    9.1103    9.9190   24.0474 N   0  0  0  0  0  0  0  0  0  0  0  0
   10.0049   10.8853   23.8198 N   0  0  0  0  0  0  0  0  0  0  0  0
    9.6374   11.8779   24.6498 C   0  0  0  0  0  0  0  0  0  0  0  0
   10.3466   13.1437   24.6281 C   0  0  0  0  0  0  0  0  0  0  0  0
   10.2634   13.9553   25.4542 O   0  0  0  0  0  0  0  0  0  0  0  0
   11.0758   13.1631   23.2998 N   0  0  0  0  0  0  0  0  0  0  0  0
   11.7718   14.1930   22.6594 C   0  0  0  0  0  0  0  0  0  0  0  0
   10.7241   14.8404   21.8481 C   0  0  0  0  0  0  0  0  0  0  0  0
    9.4083   14.9776   22.2386 N   0  0  0  0  0  0  0  0  0  0  0  0
    8.8783   15.7226   21.2903 C   0  0  0  0  0  0  0  0  0  0  0  0
    9.6772   15.9358   20.2289 O   0  0  0  0  0  0  0  0  0  0  0  0
   10.7962   15.2338   20.5582 C   0  0  0  0  0  0  0  0  0  0  0  0
   11.7682   14.6354   19.5779 C   0  0  0  0  0  0  0  0  0  0  0  0
   10.9266   14.2322   18.4350 C   0  0  0  0  0  0  0  0  0  0  0  0
   12.0084   15.1472   18.2098 C   0  0  0  0  0  0  0  0  0  0  0  0
    8.4623   11.5792   25.3542 C   0  0  0  0  0  0  0  0  0  0  0  0
    7.6212   12.2881   26.2321 C   0  0  0  0  0  0  0  0  0  0  0  0
    6.5054   11.6238   26.7477 C   0  0  0  0  0  0  0  0  0  0  0  0
    5.6116   12.3265   27.6674 N   0  0  0  0  0  0  0  0  0  0  0  0
    6.0886   13.2626   28.3246 O   0  0  0  0  0  0  0  0  0  0  0  0
    4.4444   11.9177   27.7616 O   0  0  0  0  0  0  0  0  0  0  0  0
    6.2414   10.2933   26.4234 C   0  0  0  0  0  0  0  0  0  0  0  0
    7.0737    9.6065   25.5358 C   0  0  0  0  0  0  0  0  0  0  0  0
    8.1667   10.2717   24.9860 C   0  0  0  0  0  0  0  0  0  0  0  0
  1  2  1  0
  2  3  1  0
  3  4  2  0
  4  5  1  0
  5  6  2  0
  5  7  1  0
  7  8  1  0
  8  9  1  0
  9 10  1  0
 10 11  2  0
 11 12  1  0
 12 13  1  0
 13 14  1  0
 14 15  1  0
 15 16  1  0
  4 17  1  0
 17 18  2  0
 18 19  1  0
 19 20  1  0
 20 21  2  0
 20 22  1  0
 19 23  2  0
 23 24  1  0
 24 25  2  0
 25  2  1  0
 13  9  2  0
 16 14  1  0
 25 17  1  0
M  CHG  2  20   1  22  -1
M  END
>  <energy_score>  (3575) 
-2.58181

>  <inchikey>  (3575) 
IYFPJDMNFXNJIC-UHFFFAOYSA-N

>  <smiles>  (3575) 
Cn1nc(C(=O)NCc2ncoc2C2CC2)c2cc([N+](=O)[O-])ccc21

>  <ref_pdb>  (3575) 
A0514a

>  <alias>  (3575) 
IYFPJDMNFXNJIC-UHFFFAOYSA-N-P126-P126-P177-601502

>  <HIPPO Pose ID>  (3575) 
502956

>  <name>  (3575) 
IYFPJDMNFXNJIC-UHFFFAOYSA-N-P126-P126-P177-601502

>  <HIPPO Compound ID>  (3575) 
299296

>  <ref_mols>  (3575) 
A3403a,A2290a

>  <distance_score>  (3575) 
1.349385

>  <inspiration_score>  (3575) 
None

$$$$
IYFPJDMNFXNJIC-UHFFFAOYSA-N-P177-P126-P177-601502
     RDKit          3D

 25 28  0  0  0  0  0  0  0  0999 V2000
    9.1913    9.1675   23.1085 C   0  0  0  0  0  0  0  0  0  0  0  0
    9.0141   10.4158   23.8175 N   0  0  0  0  0  0  0  0  0  0  0  0
    9.8203   11.4541   23.5435 N   0  0  0  0  0  0  0  0  0  0  0  0
    9.4308   12.4090   24.4089 C   0  0  0  0  0  0  0  0  0  0  0  0
   10.0617   13.7210   24.4524 C   0  0  0  0  0  0  0  0  0  0  0  0
    9.9945   14.4089   25.3850 O   0  0  0  0  0  0  0  0  0  0  0  0
   10.6646   13.9739   23.0845 N   0  0  0  0  0  0  0  0  0  0  0  0
   11.2259   15.1394   22.5341 C   0  0  0  0  0  0  0  0  0  0  0  0
   10.2817   15.7226   21.5810 C   0  0  0  0  0  0  0  0  0  0  0  0
    9.1401   16.3884   21.9303 N   0  0  0  0  0  0  0  0  0  0  0  0
    8.7851   16.9958   20.8238 C   0  0  0  0  0  0  0  0  0  0  0  0
    9.4791   16.6134   19.7235 O   0  0  0  0  0  0  0  0  0  0  0  0
   10.3838   15.7351   20.2303 C   0  0  0  0  0  0  0  0  0  0  0  0
   11.2901   14.8272   19.4434 C   0  0  0  0  0  0  0  0  0  0  0  0
   10.6062   14.4176   18.2000 C   0  0  0  0  0  0  0  0  0  0  0  0
   11.8360   15.2136   18.1244 C   0  0  0  0  0  0  0  0  0  0  0  0
    8.3307   12.0080   25.1877 C   0  0  0  0  0  0  0  0  0  0  0  0
    7.5209   12.6219   26.1619 C   0  0  0  0  0  0  0  0  0  0  0  0
    6.4922   11.8646   26.7270 C   0  0  0  0  0  0  0  0  0  0  0  0
    5.6357   12.4546   27.7562 N   0  0  0  0  0  0  0  0  0  0  0  0
    6.0879   13.4124   28.3982 O   0  0  0  0  0  0  0  0  0  0  0  0
    4.5270   11.9317   27.9485 O   0  0  0  0  0  0  0  0  0  0  0  0
    6.2867   10.5377   26.3549 C   0  0  0  0  0  0  0  0  0  0  0  0
    7.0854    9.9455   25.3760 C   0  0  0  0  0  0  0  0  0  0  0  0
    8.0914   10.7010   24.7936 C   0  0  0  0  0  0  0  0  0  0  0  0
  1  2  1  0
  2  3  1  0
  3  4  2  0
  4  5  1  0
  5  6  2  0
  5  7  1  0
  7  8  1  0
  8  9  1  0
  9 10  1  0
 10 11  2  0
 11 12  1  0
 12 13  1  0
 13 14  1  0
 14 15  1  0
 15 16  1  0
  4 17  1  0
 17 18  2  0
 18 19  1  0
 19 20  1  0
 20 21  2  0
 20 22  1  0
 19 23  2  0
 23 24  1  0
 24 25  2  0
 25  2  1  0
 13  9  2  0
 16 14  1  0
 25 17  1  0
M  CHG  2  20   1  22  -1
M  END
>  <energy_score>  (3576) 
-19.781684

>  <inchikey>  (3576) 
IYFPJDMNFXNJIC-UHFFFAOYSA-N

>  <smiles>  (3576) 
Cn1nc(C(=O)NCc2ncoc2C2CC2)c2cc([N+](=O)[O-])ccc21

>  <ref_pdb>  (3576) 
A0514a

>  <alias>  (3576) 
IYFPJDMNFXNJIC-UHFFFAOYSA-N-P177-P126-P177-601502

>  <HIPPO Pose ID>  (3576) 
502957

>  <name>  (3576) 
IYFPJDMNFXNJIC-UHFFFAOYSA-N-P177-P126-P177-601502

>  <HIPPO Compound ID>  (3576) 
299296

>  <ref_mols>  (3576) 
A3403a,A2290a

>  <distance_score>  (3576) 
1.151794

>  <inspiration_score>  (3576) 
None

$$$$
YDMWJZJSLDMQEE-UHFFFAOYSA-N-P126-P126-P177-601502
     RDKit          3D

 25 27  0  0  0  0  0  0  0  0999 V2000
   11.9518   14.1936   18.3987 C   0  0  0  0  0  0  0  0  0  0  0  0
   11.4577   15.2093   19.1783 O   0  0  0  0  0  0  0  0  0  0  0  0
   10.3734   15.8573   18.5776 C   0  0  0  0  0  0  0  0  0  0  0  0
    9.6585   16.3753   19.6887 C   0  0  0  0  0  0  0  0  0  0  0  0
    8.9628   17.5062   19.4668 O   0  0  0  0  0  0  0  0  0  0  0  0
    8.3868   17.7029   20.6661 C   0  0  0  0  0  0  0  0  0  0  0  0
    8.5456   16.7098   21.5115 N   0  0  0  0  0  0  0  0  0  0  0  0
    9.5523   15.9497   20.9817 C   0  0  0  0  0  0  0  0  0  0  0  0
   10.4877   15.0482   21.7336 C   0  0  0  0  0  0  0  0  0  0  0  0
    9.9184   13.9088   22.3632 N   0  0  0  0  0  0  0  0  0  0  0  0
    9.4354   13.7050   23.7952 C   0  0  0  0  0  0  0  0  0  0  0  0
    9.3516   14.4577   24.6773 O   0  0  0  0  0  0  0  0  0  0  0  0
    9.1374   12.2919   23.9922 C   0  0  0  0  0  0  0  0  0  0  0  0
    9.6965   11.3277   23.2401 N   0  0  0  0  0  0  0  0  0  0  0  0
    9.1757   10.1887   23.7293 N   0  0  0  0  0  0  0  0  0  0  0  0
    9.5569    8.9322   23.1235 C   0  0  0  0  0  0  0  0  0  0  0  0
    8.2658   10.4019   24.7393 C   0  0  0  0  0  0  0  0  0  0  0  0
    7.4353    9.5445   25.4582 C   0  0  0  0  0  0  0  0  0  0  0  0
    6.5690   10.0957   26.4069 C   0  0  0  0  0  0  0  0  0  0  0  0
    6.5670   11.4718   26.6380 C   0  0  0  0  0  0  0  0  0  0  0  0
    5.6563   12.0238   27.6344 N   0  0  0  0  0  0  0  0  0  0  0  0
    6.0593   12.9853   28.3033 O   0  0  0  0  0  0  0  0  0  0  0  0
    4.5534   11.4735   27.7691 O   0  0  0  0  0  0  0  0  0  0  0  0
    7.4109   12.3341   25.9349 C   0  0  0  0  0  0  0  0  0  0  0  0
    8.2517   11.7726   24.9559 C   0  0  0  0  0  0  0  0  0  0  0  0
  1  2  1  0
  2  3  1  0
  3  4  1  0
  4  5  1  0
  5  6  1  0
  6  7  2  0
  7  8  1  0
  8  9  1  0
  9 10  1  0
 10 11  1  0
 11 12  2  0
 11 13  1  0
 13 14  2  0
 14 15  1  0
 15 16  1  0
 15 17  1  0
 17 18  2  0
 18 19  1  0
 19 20  2  0
 20 21  1  0
 21 22  2  0
 21 23  1  0
 20 24  1  0
 24 25  2  0
  8  4  2  0
 25 13  1  0
 25 17  1  0
M  CHG  2  21   1  23  -1
M  END
>  <energy_score>  (3577) 
-7.037225

>  <inchikey>  (3577) 
YDMWJZJSLDMQEE-UHFFFAOYSA-N

>  <smiles>  (3577) 
COCc1ocnc1CNC(=O)c1nn(C)c2ccc([N+](=O)[O-])cc12

>  <ref_pdb>  (3577) 
A0514a

>  <alias>  (3577) 
YDMWJZJSLDMQEE-UHFFFAOYSA-N-P126-P126-P177-601502

>  <HIPPO Pose ID>  (3577) 
502958

>  <name>  (3577) 
YDMWJZJSLDMQEE-UHFFFAOYSA-N-P126-P126-P177-601502

>  <HIPPO Compound ID>  (3577) 
299297

>  <ref_mols>  (3577) 
A3403a,A2290a

>  <distance_score>  (3577) 
1.316686

>  <inspiration_score>  (3577) 
None

$$$$
YDMWJZJSLDMQEE-UHFFFAOYSA-N-P177-P126-P177-601502
     RDKit          3D

 25 27  0  0  0  0  0  0  0  0999 V2000
    8.3398   14.2526   21.1334 C   0  0  0  0  0  0  0  0  0  0  0  0
    9.5726   13.6392   20.7385 O   0  0  0  0  0  0  0  0  0  0  0  0
   10.4932   14.2644   19.8012 C   0  0  0  0  0  0  0  0  0  0  0  0
   10.3602   15.6588   20.0370 C   0  0  0  0  0  0  0  0  0  0  0  0
    9.5201   16.4056   19.2900 O   0  0  0  0  0  0  0  0  0  0  0  0
    9.2731   17.4550   20.1133 C   0  0  0  0  0  0  0  0  0  0  0  0
    9.9700   17.4424   21.2246 N   0  0  0  0  0  0  0  0  0  0  0  0
   10.6440   16.2510   21.2261 C   0  0  0  0  0  0  0  0  0  0  0  0
   11.4324   15.6213   22.3302 C   0  0  0  0  0  0  0  0  0  0  0  0
   10.8657   14.3969   22.8565 N   0  0  0  0  0  0  0  0  0  0  0  0
   10.2776   14.0840   24.2375 C   0  0  0  0  0  0  0  0  0  0  0  0
   10.2231   14.7370   25.2011 O   0  0  0  0  0  0  0  0  0  0  0  0
    9.6376   12.7376   24.2178 C   0  0  0  0  0  0  0  0  0  0  0  0
   10.0496   11.7387   23.4139 N   0  0  0  0  0  0  0  0  0  0  0  0
    9.2288   10.7035   23.6907 N   0  0  0  0  0  0  0  0  0  0  0  0
    9.4105    9.4220   23.0379 C   0  0  0  0  0  0  0  0  0  0  0  0
    8.2973   10.9925   24.6561 C   0  0  0  0  0  0  0  0  0  0  0  0
    7.2928   10.2167   25.2404 C   0  0  0  0  0  0  0  0  0  0  0  0
    6.4914   10.8133   26.2126 C   0  0  0  0  0  0  0  0  0  0  0  0
    6.6963   12.1476   26.5726 C   0  0  0  0  0  0  0  0  0  0  0  0
    5.8381   12.7425   27.5998 N   0  0  0  0  0  0  0  0  0  0  0  0
    6.2724   13.7293   28.2090 O   0  0  0  0  0  0  0  0  0  0  0  0
    4.7461   12.1968   27.8208 O   0  0  0  0  0  0  0  0  0  0  0  0
    7.7165   12.9179   25.9935 C   0  0  0  0  0  0  0  0  0  0  0  0
    8.5352   12.3153   25.0182 C   0  0  0  0  0  0  0  0  0  0  0  0
  1  2  1  0
  2  3  1  0
  3  4  1  0
  4  5  1  0
  5  6  1  0
  6  7  2  0
  7  8  1  0
  8  9  1  0
  9 10  1  0
 10 11  1  0
 11 12  2  0
 11 13  1  0
 13 14  2  0
 14 15  1  0
 15 16  1  0
 15 17  1  0
 17 18  2  0
 18 19  1  0
 19 20  2  0
 20 21  1  0
 21 22  2  0
 21 23  1  0
 20 24  1  0
 24 25  2  0
  8  4  2  0
 25 13  1  0
 25 17  1  0
M  CHG  2  21   1  23  -1
M  END
>  <energy_score>  (3578) 
-1.608189

>  <inchikey>  (3578) 
YDMWJZJSLDMQEE-UHFFFAOYSA-N

>  <smiles>  (3578) 
COCc1ocnc1CNC(=O)c1nn(C)c2ccc([N+](=O)[O-])cc12

>  <ref_pdb>  (3578) 
A0514a

>  <alias>  (3578) 
YDMWJZJSLDMQEE-UHFFFAOYSA-N-P177-P126-P177-601502

>  <HIPPO Pose ID>  (3578) 
502959

>  <name>  (3578) 
YDMWJZJSLDMQEE-UHFFFAOYSA-N-P177-P126-P177-601502

>  <HIPPO Compound ID>  (3578) 
299297

>  <ref_mols>  (3578) 
A3403a,A2290a

>  <distance_score>  (3578) 
1.07322

>  <inspiration_score>  (3578) 
None

$$$$
CQJFEQDAISWKQH-UHFFFAOYSA-N-P177-P126-P177-601502
     RDKit          3D

 25 27  0  0  0  0  0  0  0  0999 V2000
   11.8396   15.0215   18.1687 C   0  0  0  0  0  0  0  0  0  0  0  0
   10.6844   14.9583   19.0958 C   0  0  0  0  0  0  0  0  0  0  0  0
    9.3621   15.4416   18.5611 C   0  0  0  0  0  0  0  0  0  0  0  0
   10.7964   15.6600   20.3790 C   0  0  0  0  0  0  0  0  0  0  0  0
    9.9638   16.7379   20.5215 O   0  0  0  0  0  0  0  0  0  0  0  0
    9.4194   16.5232   21.7274 C   0  0  0  0  0  0  0  0  0  0  0  0
   10.0710   15.6466   22.4579 N   0  0  0  0  0  0  0  0  0  0  0  0
   11.0837   15.2005   21.6298 C   0  0  0  0  0  0  0  0  0  0  0  0
   12.0002   14.1188   22.0139 C   0  0  0  0  0  0  0  0  0  0  0  0
   11.2043   13.1863   22.7054 N   0  0  0  0  0  0  0  0  0  0  0  0
   10.6089   13.2382   24.1101 C   0  0  0  0  0  0  0  0  0  0  0  0
   10.7405   14.0250   24.9575 O   0  0  0  0  0  0  0  0  0  0  0  0
    9.6959   12.1090   24.2076 C   0  0  0  0  0  0  0  0  0  0  0  0
    9.8505   11.0584   23.3891 N   0  0  0  0  0  0  0  0  0  0  0  0
    8.9363   10.1807   23.7887 N   0  0  0  0  0  0  0  0  0  0  0  0
    8.9345    8.8840   23.1608 C   0  0  0  0  0  0  0  0  0  0  0  0
    8.1085   10.6721   24.7671 C   0  0  0  0  0  0  0  0  0  0  0  0
    7.0229   10.1267   25.4456 C   0  0  0  0  0  0  0  0  0  0  0  0
    6.3767   10.9081   26.4049 C   0  0  0  0  0  0  0  0  0  0  0  0
    6.8145   12.2075   26.6682 C   0  0  0  0  0  0  0  0  0  0  0  0
    6.1307   12.9952   27.6964 N   0  0  0  0  0  0  0  0  0  0  0  0
    6.7503   13.9413   28.2016 O   0  0  0  0  0  0  0  0  0  0  0  0
    4.9895   12.6395   28.0268 O   0  0  0  0  0  0  0  0  0  0  0  0
    7.9195   12.7525   26.0031 C   0  0  0  0  0  0  0  0  0  0  0  0
    8.5736   11.9548   25.0463 C   0  0  0  0  0  0  0  0  0  0  0  0
  1  2  1  0
  2  3  1  0
  2  4  1  0
  4  5  1  0
  5  6  1  0
  6  7  2  0
  7  8  1  0
  8  9  1  0
  9 10  1  0
 10 11  1  0
 11 12  2  0
 11 13  1  0
 13 14  2  0
 14 15  1  0
 15 16  1  0
 15 17  1  0
 17 18  2  0
 18 19  1  0
 19 20  2  0
 20 21  1  0
 21 22  2  0
 21 23  1  0
 20 24  1  0
 24 25  2  0
  8  4  2  0
 25 13  1  0
 25 17  1  0
M  CHG  2  21   1  23  -1
M  END
>  <energy_score>  (3579) 
-16.996704

>  <inchikey>  (3579) 
CQJFEQDAISWKQH-UHFFFAOYSA-N

>  <smiles>  (3579) 
CC(C)c1ocnc1CNC(=O)c1nn(C)c2ccc([N+](=O)[O-])cc12

>  <ref_pdb>  (3579) 
A0514a

>  <alias>  (3579) 
CQJFEQDAISWKQH-UHFFFAOYSA-N-P177-P126-P177-601502

>  <HIPPO Pose ID>  (3579) 
502963

>  <name>  (3579) 
CQJFEQDAISWKQH-UHFFFAOYSA-N-P177-P126-P177-601502

>  <HIPPO Compound ID>  (3579) 
299299

>  <ref_mols>  (3579) 
A3403a,A2290a

>  <distance_score>  (3579) 
1.067946

>  <inspiration_score>  (3579) 
None

$$$$
LCEZLMDANHSNLT-UHFFFAOYSA-N-P177-P126-P177-601502
     RDKit          3D

 25 27  0  0  0  0  0  0  0  0999 V2000
    8.9906   17.2367   20.4907 C   0  0  0  0  0  0  0  0  0  0  0  0
   10.0536   16.3676   19.9528 C   0  0  0  0  0  0  0  0  0  0  0  0
   10.1184   16.1717   18.6078 O   0  0  0  0  0  0  0  0  0  0  0  0
   11.1856   15.3505   18.4482 C   0  0  0  0  0  0  0  0  0  0  0  0
   11.7059   14.8793   19.5443 N   0  0  0  0  0  0  0  0  0  0  0  0
   11.0681   15.6121   20.5042 C   0  0  0  0  0  0  0  0  0  0  0  0
   11.1017   15.2542   21.8739 C   0  0  0  0  0  0  0  0  0  0  0  0
   11.4015   15.9202   22.7665 O   0  0  0  0  0  0  0  0  0  0  0  0
   10.5593   13.8522   21.8403 N   0  0  0  0  0  0  0  0  0  0  0  0
   10.2089   13.0645   22.8005 N   0  0  0  0  0  0  0  0  0  0  0  0
    9.8026   13.3733   24.2380 C   0  0  0  0  0  0  0  0  0  0  0  0
    9.7900   14.3802   24.8191 O   0  0  0  0  0  0  0  0  0  0  0  0
    9.3291   12.1014   24.7010 C   0  0  0  0  0  0  0  0  0  0  0  0
    9.6460   11.0089   23.9850 N   0  0  0  0  0  0  0  0  0  0  0  0
    8.7092   10.1298   24.3025 N   0  0  0  0  0  0  0  0  0  0  0  0
    8.7175    8.9023   23.5554 C   0  0  0  0  0  0  0  0  0  0  0  0
    7.8299   10.6034   25.2447 C   0  0  0  0  0  0  0  0  0  0  0  0
    6.6894   10.0753   25.8310 C   0  0  0  0  0  0  0  0  0  0  0  0
    5.9984   10.8386   26.7751 C   0  0  0  0  0  0  0  0  0  0  0  0
    6.4042   12.1376   27.0699 C   0  0  0  0  0  0  0  0  0  0  0  0
    5.6492   12.9221   28.0497 N   0  0  0  0  0  0  0  0  0  0  0  0
    6.2198   13.8930   28.5657 O   0  0  0  0  0  0  0  0  0  0  0  0
    4.5007   12.5455   28.3249 O   0  0  0  0  0  0  0  0  0  0  0  0
    7.5252   12.6965   26.4552 C   0  0  0  0  0  0  0  0  0  0  0  0
    8.2542   11.8899   25.5651 C   0  0  0  0  0  0  0  0  0  0  0  0
  1  2  1  0
  2  3  1  0
  3  4  1  0
  4  5  2  0
  5  6  1  0
  6  7  1  0
  7  8  2  0
  7  9  1  0
  9 10  1  0
 10 11  1  0
 11 12  2  0
 11 13  1  0
 13 14  2  0
 14 15  1  0
 15 16  1  0
 15 17  1  0
 17 18  2  0
 18 19  1  0
 19 20  2  0
 20 21  1  0
 21 22  2  0
 21 23  1  0
 20 24  1  0
 24 25  2  0
  6  2  2  0
 25 13  1  0
 25 17  1  0
M  CHG  2  21   1  23  -1
M  END
>  <energy_score>  (3580) 
-6.206317

>  <inchikey>  (3580) 
LCEZLMDANHSNLT-UHFFFAOYSA-N

>  <smiles>  (3580) 
Cc1ocnc1C(=O)NNC(=O)c1nn(C)c2ccc([N+](=O)[O-])cc12

>  <ref_pdb>  (3580) 
A0514a

>  <alias>  (3580) 
LCEZLMDANHSNLT-UHFFFAOYSA-N-P177-P126-P177-601502

>  <HIPPO Pose ID>  (3580) 
502965

>  <name>  (3580) 
LCEZLMDANHSNLT-UHFFFAOYSA-N-P177-P126-P177-601502

>  <HIPPO Compound ID>  (3580) 
299300

>  <ref_mols>  (3580) 
A3403a,A2290a

>  <distance_score>  (3580) 
1.502666

>  <inspiration_score>  (3580) 
None

$$$$
RCNUDKAHEACRCO-UHFFFAOYSA-N-P126-P126-P177-601502
     RDKit          3D

 25 27  0  0  0  0  0  0  0  0999 V2000
    9.4667    8.6977   23.0754 C   0  0  0  0  0  0  0  0  0  0  0  0
    9.3785    9.9846   23.7223 N   0  0  0  0  0  0  0  0  0  0  0  0
   10.2233   10.9479   23.3272 N   0  0  0  0  0  0  0  0  0  0  0  0
    9.8951   12.0116   24.0781 C   0  0  0  0  0  0  0  0  0  0  0  0
   10.6424   13.2654   23.9525 C   0  0  0  0  0  0  0  0  0  0  0  0
   10.6623   14.0578   24.8050 O   0  0  0  0  0  0  0  0  0  0  0  0
   11.2525   13.3007   22.5517 N   0  0  0  0  0  0  0  0  0  0  0  0
   11.9321   14.3441   21.8656 C   0  0  0  0  0  0  0  0  0  0  0  0
   10.9372   14.9860   20.9783 C   0  0  0  0  0  0  0  0  0  0  0  0
    9.9231   15.7529   21.4805 N   0  0  0  0  0  0  0  0  0  0  0  0
    9.3890   16.3235   20.4299 C   0  0  0  0  0  0  0  0  0  0  0  0
    9.8540   15.8587   19.2438 O   0  0  0  0  0  0  0  0  0  0  0  0
   10.8532   14.9958   19.6088 C   0  0  0  0  0  0  0  0  0  0  0  0
   11.6534   14.3716   18.5641 C   0  0  0  0  0  0  0  0  0  0  0  0
   12.6714   13.6449   19.1049 F   0  0  0  0  0  0  0  0  0  0  0  0
   12.2604   15.2709   17.7680 F   0  0  0  0  0  0  0  0  0  0  0  0
    8.7770   11.7426   24.9058 C   0  0  0  0  0  0  0  0  0  0  0  0
    7.9837   12.4905   25.7979 C   0  0  0  0  0  0  0  0  0  0  0  0
    6.9255   11.8388   26.4483 C   0  0  0  0  0  0  0  0  0  0  0  0
    6.0880   12.5923   27.3813 N   0  0  0  0  0  0  0  0  0  0  0  0
    6.5946   13.5809   27.9313 O   0  0  0  0  0  0  0  0  0  0  0  0
    4.9421   12.1710   27.5983 O   0  0  0  0  0  0  0  0  0  0  0  0
    6.6709   10.4793   26.2509 C   0  0  0  0  0  0  0  0  0  0  0  0
    7.4598    9.7391   25.3670 C   0  0  0  0  0  0  0  0  0  0  0  0
    8.4884   10.3979   24.6855 C   0  0  0  0  0  0  0  0  0  0  0  0
  1  2  1  0
  2  3  1  0
  3  4  2  0
  4  5  1  0
  5  6  2  0
  5  7  1  0
  7  8  1  0
  8  9  1  0
  9 10  1  0
 10 11  2  0
 11 12  1  0
 12 13  1  0
 13 14  1  0
 14 15  1  0
 14 16  1  0
  4 17  1  0
 17 18  2  0
 18 19  1  0
 19 20  1  0
 20 21  2  0
 20 22  1  0
 19 23  2  0
 23 24  1  0
 24 25  2  0
 25  2  1  0
 13  9  2  0
 25 17  1  0
M  CHG  2  20   1  22  -1
M  END
>  <energy_score>  (3581) 
-36.134042

>  <inchikey>  (3581) 
RCNUDKAHEACRCO-UHFFFAOYSA-N

>  <smiles>  (3581) 
Cn1nc(C(=O)NCc2ncoc2C(F)F)c2cc([N+](=O)[O-])ccc21

>  <ref_pdb>  (3581) 
A0514a

>  <alias>  (3581) 
RCNUDKAHEACRCO-UHFFFAOYSA-N-P126-P126-P177-601502

>  <HIPPO Pose ID>  (3581) 
502966

>  <name>  (3581) 
RCNUDKAHEACRCO-UHFFFAOYSA-N-P126-P126-P177-601502

>  <HIPPO Compound ID>  (3581) 
299301

>  <ref_mols>  (3581) 
A3403a,A2290a

>  <distance_score>  (3581) 
0.745623

>  <inspiration_score>  (3581) 
None

$$$$
RCNUDKAHEACRCO-UHFFFAOYSA-N-P177-P126-P177-601502
     RDKit          3D

 25 27  0  0  0  0  0  0  0  0999 V2000
    9.1049    9.0171   23.0841 C   0  0  0  0  0  0  0  0  0  0  0  0
    9.0435   10.3402   23.6605 N   0  0  0  0  0  0  0  0  0  0  0  0
    9.8799   11.2825   23.2122 N   0  0  0  0  0  0  0  0  0  0  0  0
    9.6310   12.3598   23.9751 C   0  0  0  0  0  0  0  0  0  0  0  0
   10.4042   13.5987   23.7980 C   0  0  0  0  0  0  0  0  0  0  0  0
   10.4508   14.4158   24.6265 O   0  0  0  0  0  0  0  0  0  0  0  0
   11.0294   13.5641   22.4015 N   0  0  0  0  0  0  0  0  0  0  0  0
   11.7603   14.5549   21.6919 C   0  0  0  0  0  0  0  0  0  0  0  0
   10.8017   15.3231   20.8769 C   0  0  0  0  0  0  0  0  0  0  0  0
    9.9011   16.1868   21.4459 N   0  0  0  0  0  0  0  0  0  0  0  0
    9.2938   16.7407   20.4261 C   0  0  0  0  0  0  0  0  0  0  0  0
    9.6723   16.2551   19.2108 O   0  0  0  0  0  0  0  0  0  0  0  0
   10.6437   15.3392   19.5138 C   0  0  0  0  0  0  0  0  0  0  0  0
   11.2967   14.6219   18.4213 C   0  0  0  0  0  0  0  0  0  0  0  0
   12.1572   13.6757   18.8863 F   0  0  0  0  0  0  0  0  0  0  0  0
   12.0424   15.4416   17.6506 F   0  0  0  0  0  0  0  0  0  0  0  0
    8.5700   12.1113   24.8818 C   0  0  0  0  0  0  0  0  0  0  0  0
    7.8830   12.8616   25.8551 C   0  0  0  0  0  0  0  0  0  0  0  0
    6.8416   12.2375   26.5580 C   0  0  0  0  0  0  0  0  0  0  0  0
    6.1284   12.9837   27.5969 N   0  0  0  0  0  0  0  0  0  0  0  0
    6.7012   13.9641   28.0931 O   0  0  0  0  0  0  0  0  0  0  0  0
    5.0158   12.5630   27.9469 O   0  0  0  0  0  0  0  0  0  0  0  0
    6.4904   10.9074   26.3157 C   0  0  0  0  0  0  0  0  0  0  0  0
    7.1732   10.1647   25.3520 C   0  0  0  0  0  0  0  0  0  0  0  0
    8.2024   10.7884   24.6472 C   0  0  0  0  0  0  0  0  0  0  0  0
  1  2  1  0
  2  3  1  0
  3  4  2  0
  4  5  1  0
  5  6  2  0
  5  7  1  0
  7  8  1  0
  8  9  1  0
  9 10  1  0
 10 11  2  0
 11 12  1  0
 12 13  1  0
 13 14  1  0
 14 15  1  0
 14 16  1  0
  4 17  1  0
 17 18  2  0
 18 19  1  0
 19 20  1  0
 20 21  2  0
 20 22  1  0
 19 23  2  0
 23 24  1  0
 24 25  2  0
 25  2  1  0
 13  9  2  0
 25 17  1  0
M  CHG  2  20   1  22  -1
M  END
>  <energy_score>  (3582) 
-38.354257

>  <inchikey>  (3582) 
RCNUDKAHEACRCO-UHFFFAOYSA-N

>  <smiles>  (3582) 
Cn1nc(C(=O)NCc2ncoc2C(F)F)c2cc([N+](=O)[O-])ccc21

>  <ref_pdb>  (3582) 
A0514a

>  <alias>  (3582) 
RCNUDKAHEACRCO-UHFFFAOYSA-N-P177-P126-P177-601502

>  <HIPPO Pose ID>  (3582) 
502967

>  <name>  (3582) 
RCNUDKAHEACRCO-UHFFFAOYSA-N-P177-P126-P177-601502

>  <HIPPO Compound ID>  (3582) 
299301

>  <ref_mols>  (3582) 
A3403a,A2290a

>  <distance_score>  (3582) 
0.692416

>  <inspiration_score>  (3582) 
None

$$$$
VUMTXOUVVNOIJP-UHFFFAOYSA-N-P126-P126-P177-601502
     RDKit          3D

 25 27  0  0  0  0  0  0  0  0999 V2000
    9.4774    8.6485   23.0454 C   0  0  0  0  0  0  0  0  0  0  0  0
    9.4287    9.9589   23.6466 N   0  0  0  0  0  0  0  0  0  0  0  0
   10.2737   10.8898   23.1893 N   0  0  0  0  0  0  0  0  0  0  0  0
    9.9919   11.9907   23.9025 C   0  0  0  0  0  0  0  0  0  0  0  0
   10.7702   13.2187   23.6906 C   0  0  0  0  0  0  0  0  0  0  0  0
   10.8346   14.0527   24.5011 O   0  0  0  0  0  0  0  0  0  0  0  0
   11.3543   13.1610   22.2754 N   0  0  0  0  0  0  0  0  0  0  0  0
   12.0575   14.1467   21.5221 C   0  0  0  0  0  0  0  0  0  0  0  0
   11.0445   14.9033   20.7569 C   0  0  0  0  0  0  0  0  0  0  0  0
   10.8235   14.9752   19.4040 C   0  0  0  0  0  0  0  0  0  0  0  0
    9.8619   15.9155   19.1780 O   0  0  0  0  0  0  0  0  0  0  0  0
    9.5505   16.3874   20.4262 C   0  0  0  0  0  0  0  0  0  0  0  0
    8.5573   17.4953   20.5233 C   0  0  0  0  0  0  0  0  0  0  0  0
    8.9607   18.5083   21.3228 F   0  0  0  0  0  0  0  0  0  0  0  0
    8.2643   18.0486   19.3141 F   0  0  0  0  0  0  0  0  0  0  0  0
   10.1604   15.7320   21.3963 N   0  0  0  0  0  0  0  0  0  0  0  0
    8.8919   11.7725   24.7744 C   0  0  0  0  0  0  0  0  0  0  0  0
    8.1352   12.5641   25.6608 C   0  0  0  0  0  0  0  0  0  0  0  0
    7.0809   11.9542   26.3591 C   0  0  0  0  0  0  0  0  0  0  0  0
    6.2798   12.7554   27.2845 N   0  0  0  0  0  0  0  0  0  0  0  0
    6.8179   13.7506   27.7897 O   0  0  0  0  0  0  0  0  0  0  0  0
    5.1305   12.3641   27.5371 O   0  0  0  0  0  0  0  0  0  0  0  0
    6.7931   10.5935   26.2152 C   0  0  0  0  0  0  0  0  0  0  0  0
    7.5444    9.8072   25.3394 C   0  0  0  0  0  0  0  0  0  0  0  0
    8.5691   10.4251   24.6122 C   0  0  0  0  0  0  0  0  0  0  0  0
  1  2  1  0
  2  3  1  0
  3  4  2  0
  4  5  1  0
  5  6  2  0
  5  7  1  0
  7  8  1  0
  8  9  1  0
  9 10  2  0
 10 11  1  0
 11 12  1  0
 12 13  1  0
 13 14  1  0
 13 15  1  0
 12 16  2  0
  4 17  1  0
 17 18  2  0
 18 19  1  0
 19 20  1  0
 20 21  2  0
 20 22  1  0
 19 23  2  0
 23 24  1  0
 24 25  2  0
 25  2  1  0
 16  9  1  0
 25 17  1  0
M  CHG  2  20   1  22  -1
M  END
>  <energy_score>  (3583) 
-14.327614

>  <inchikey>  (3583) 
VUMTXOUVVNOIJP-UHFFFAOYSA-N

>  <smiles>  (3583) 
Cn1nc(C(=O)NCc2coc(C(F)F)n2)c2cc([N+](=O)[O-])ccc21

>  <ref_pdb>  (3583) 
A0514a

>  <alias>  (3583) 
VUMTXOUVVNOIJP-UHFFFAOYSA-N-P126-P126-P177-601502

>  <HIPPO Pose ID>  (3583) 
502970

>  <name>  (3583) 
VUMTXOUVVNOIJP-UHFFFAOYSA-N-P126-P126-P177-601502

>  <HIPPO Compound ID>  (3583) 
299303

>  <ref_mols>  (3583) 
A3403a,A2290a

>  <distance_score>  (3583) 
0.629508

>  <inspiration_score>  (3583) 
None

$$$$
VUMTXOUVVNOIJP-UHFFFAOYSA-N-P177-P126-P177-601502
     RDKit          3D

 25 27  0  0  0  0  0  0  0  0999 V2000
    9.0733    9.0003   23.0777 C   0  0  0  0  0  0  0  0  0  0  0  0
    9.0761   10.3443   23.6049 N   0  0  0  0  0  0  0  0  0  0  0  0
    9.9350   11.2282   23.0981 N   0  0  0  0  0  0  0  0  0  0  0  0
    9.7804   12.3426   23.8307 C   0  0  0  0  0  0  0  0  0  0  0  0
   10.6380   13.5234   23.5786 C   0  0  0  0  0  0  0  0  0  0  0  0
   10.7023   14.4075   24.3366 O   0  0  0  0  0  0  0  0  0  0  0  0
   11.2731   13.3536   22.1888 N   0  0  0  0  0  0  0  0  0  0  0  0
   12.0404   14.2681   21.3983 C   0  0  0  0  0  0  0  0  0  0  0  0
   11.0938   15.1592   20.7168 C   0  0  0  0  0  0  0  0  0  0  0  0
   10.7178   15.2652   19.3988 C   0  0  0  0  0  0  0  0  0  0  0  0
    9.7358   16.2116   19.3160 O   0  0  0  0  0  0  0  0  0  0  0  0
    9.5867   16.6396   20.6118 C   0  0  0  0  0  0  0  0  0  0  0  0
    8.4846   17.5643   20.9440 C   0  0  0  0  0  0  0  0  0  0  0  0
    7.7796   17.0069   21.9708 F   0  0  0  0  0  0  0  0  0  0  0  0
    8.9361   18.7751   21.3604 F   0  0  0  0  0  0  0  0  0  0  0  0
   10.3943   16.0507   21.4646 N   0  0  0  0  0  0  0  0  0  0  0  0
    8.7250   12.1761   24.7707 C   0  0  0  0  0  0  0  0  0  0  0  0
    8.1002   12.9868   25.7371 C   0  0  0  0  0  0  0  0  0  0  0  0
    7.0484   12.4354   26.4870 C   0  0  0  0  0  0  0  0  0  0  0  0
    6.4095   13.2458   27.5277 N   0  0  0  0  0  0  0  0  0  0  0  0
    7.0364   14.2234   27.9588 O   0  0  0  0  0  0  0  0  0  0  0  0
    5.3041   12.8726   27.9474 O   0  0  0  0  0  0  0  0  0  0  0  0
    6.6203   11.1172   26.2944 C   0  0  0  0  0  0  0  0  0  0  0  0
    7.2375   10.3095   25.3391 C   0  0  0  0  0  0  0  0  0  0  0  0
    8.2806   10.8639   24.5924 C   0  0  0  0  0  0  0  0  0  0  0  0
  1  2  1  0
  2  3  1  0
  3  4  2  0
  4  5  1  0
  5  6  2  0
  5  7  1  0
  7  8  1  0
  8  9  1  0
  9 10  2  0
 10 11  1  0
 11 12  1  0
 12 13  1  0
 13 14  1  0
 13 15  1  0
 12 16  2  0
  4 17  1  0
 17 18  2  0
 18 19  1  0
 19 20  1  0
 20 21  2  0
 20 22  1  0
 19 23  2  0
 23 24  1  0
 24 25  2  0
 25  2  1  0
 16  9  1  0
 25 17  1  0
M  CHG  2  20   1  22  -1
M  END
>  <energy_score>  (3584) 
-12.01523

>  <inchikey>  (3584) 
VUMTXOUVVNOIJP-UHFFFAOYSA-N

>  <smiles>  (3584) 
Cn1nc(C(=O)NCc2coc(C(F)F)n2)c2cc([N+](=O)[O-])ccc21

>  <ref_pdb>  (3584) 
A0514a

>  <alias>  (3584) 
VUMTXOUVVNOIJP-UHFFFAOYSA-N-P177-P126-P177-601502

>  <HIPPO Pose ID>  (3584) 
502971

>  <name>  (3584) 
VUMTXOUVVNOIJP-UHFFFAOYSA-N-P177-P126-P177-601502

>  <HIPPO Compound ID>  (3584) 
299303

>  <ref_mols>  (3584) 
A3403a,A2290a

>  <distance_score>  (3584) 
0.620142

>  <inspiration_score>  (3584) 
None

$$$$
KQBPAGXAIPAUKC-UHFFFAOYSA-N-P126-P126-P177-601502
     RDKit          3D

 25 27  0  0  0  0  0  0  0  0999 V2000
    8.5951   17.4460   20.6321 C   0  0  0  0  0  0  0  0  0  0  0  0
    9.5023   16.2955   20.5147 C   0  0  0  0  0  0  0  0  0  0  0  0
    9.9633   15.5325   21.4831 N   0  0  0  0  0  0  0  0  0  0  0  0
   10.8938   14.7456   20.8672 C   0  0  0  0  0  0  0  0  0  0  0  0
   11.8553   13.9004   21.6027 C   0  0  1  0  0  0  0  0  0  0  0  0
   12.8122   14.7306   22.3948 C   0  0  0  0  0  0  0  0  0  0  0  0
   11.1318   12.9823   22.4045 N   0  0  0  0  0  0  0  0  0  0  0  0
   10.5120   13.1480   23.7932 C   0  0  0  0  0  0  0  0  0  0  0  0
   10.5591   14.0403   24.5400 O   0  0  0  0  0  0  0  0  0  0  0  0
    9.7779   11.9167   24.0568 C   0  0  0  0  0  0  0  0  0  0  0  0
   10.1101   10.8101   23.3750 N   0  0  0  0  0  0  0  0  0  0  0  0
    9.2488    9.8831   23.7927 N   0  0  0  0  0  0  0  0  0  0  0  0
    9.2993    8.5992   23.1409 C   0  0  0  0  0  0  0  0  0  0  0  0
    8.3772   10.3436   24.7519 C   0  0  0  0  0  0  0  0  0  0  0  0
    7.3388    9.7310   25.4583 C   0  0  0  0  0  0  0  0  0  0  0  0
    6.5761   10.5146   26.3276 C   0  0  0  0  0  0  0  0  0  0  0  0
    6.8591   11.8747   26.4803 C   0  0  0  0  0  0  0  0  0  0  0  0
    6.0456   12.6735   27.3973 N   0  0  0  0  0  0  0  0  0  0  0  0
    6.5663   13.6854   27.8887 O   0  0  0  0  0  0  0  0  0  0  0  0
    4.9054   12.2643   27.6633 O   0  0  0  0  0  0  0  0  0  0  0  0
    7.9176   12.4862   25.7945 C   0  0  0  0  0  0  0  0  0  0  0  0
    8.6863   11.6929   24.9222 C   0  0  0  0  0  0  0  0  0  0  0  0
   10.8723   14.9935   19.5234 C   0  0  0  0  0  0  0  0  0  0  0  0
   11.7203   14.5163   18.4418 C   0  0  0  0  0  0  0  0  0  0  0  0
    9.9591   15.9723   19.2712 O   0  0  0  0  0  0  0  0  0  0  0  0
  1  2  1  0
  2  3  2  0
  3  4  1  0
  4  5  1  0
  5  6  1  1
  5  7  1  0
  7  8  1  0
  8  9  2  0
  8 10  1  0
 10 11  2  0
 11 12  1  0
 12 13  1  0
 12 14  1  0
 14 15  2  0
 15 16  1  0
 16 17  2  0
 17 18  1  0
 18 19  2  0
 18 20  1  0
 17 21  1  0
 21 22  2  0
  4 23  2  0
 23 24  1  0
 23 25  1  0
 25  2  1  0
 22 10  1  0
 22 14  1  0
M  CHG  2  18   1  20  -1
M  END
>  <energy_score>  (3585) 
-22.435325

>  <inchikey>  (3585) 
KQBPAGXAIPAUKC-UHFFFAOYSA-N

>  <smiles>  (3585) 
Cc1nc(C(C)NC(=O)c2nn(C)c3ccc([N+](=O)[O-])cc23)c(C)o1

>  <ref_pdb>  (3585) 
A0514a

>  <alias>  (3585) 
KQBPAGXAIPAUKC-UHFFFAOYSA-N-P126-P126-P177-601502

>  <HIPPO Pose ID>  (3585) 
502974

>  <name>  (3585) 
KQBPAGXAIPAUKC-UHFFFAOYSA-N-P126-P126-P177-601502

>  <HIPPO Compound ID>  (3585) 
299305

>  <ref_mols>  (3585) 
A3403a,A2290a

>  <distance_score>  (3585) 
0.768506

>  <inspiration_score>  (3585) 
None

$$$$
KQBPAGXAIPAUKC-UHFFFAOYSA-N-P177-P126-P177-601502
     RDKit          3D

 25 27  0  0  0  0  0  0  0  0999 V2000
    8.5130   17.9751   20.2770 C   0  0  0  0  0  0  0  0  0  0  0  0
    9.3495   16.7707   20.2370 C   0  0  0  0  0  0  0  0  0  0  0  0
    9.7186   15.9846   21.2243 N   0  0  0  0  0  0  0  0  0  0  0  0
   10.5831   15.1059   20.6248 C   0  0  0  0  0  0  0  0  0  0  0  0
   11.4922   14.2252   21.3670 C   0  0  1  0  0  0  0  0  0  0  0  0
   12.4749   15.0431   22.1142 C   0  0  0  0  0  0  0  0  0  0  0  0
   10.7867   13.3362   22.2134 N   0  0  0  0  0  0  0  0  0  0  0  0
   10.1378   13.5675   23.5799 C   0  0  0  0  0  0  0  0  0  0  0  0
   10.1425   14.5063   24.2696 O   0  0  0  0  0  0  0  0  0  0  0  0
    9.4383   12.3237   23.9147 C   0  0  0  0  0  0  0  0  0  0  0  0
    9.7170   11.2038   23.2257 N   0  0  0  0  0  0  0  0  0  0  0  0
    8.9139   10.2734   23.7362 N   0  0  0  0  0  0  0  0  0  0  0  0
    8.9790    8.9395   23.1908 C   0  0  0  0  0  0  0  0  0  0  0  0
    8.0895   10.7553   24.7207 C   0  0  0  0  0  0  0  0  0  0  0  0
    7.0832   10.1552   25.4739 C   0  0  0  0  0  0  0  0  0  0  0  0
    6.4148   10.9324   26.4206 C   0  0  0  0  0  0  0  0  0  0  0  0
    6.7511   12.2775   26.5927 C   0  0  0  0  0  0  0  0  0  0  0  0
    6.0515   13.0626   27.6125 N   0  0  0  0  0  0  0  0  0  0  0  0
    6.6066   14.0910   28.0245 O   0  0  0  0  0  0  0  0  0  0  0  0
    4.9700   12.6255   28.0332 O   0  0  0  0  0  0  0  0  0  0  0  0
    7.7587   12.8845   25.8302 C   0  0  0  0  0  0  0  0  0  0  0  0
    8.4318   12.0974   24.8783 C   0  0  0  0  0  0  0  0  0  0  0  0
   10.6525   15.3669   19.2857 C   0  0  0  0  0  0  0  0  0  0  0  0
   11.5092   14.8419   18.2302 C   0  0  0  0  0  0  0  0  0  0  0  0
    9.8258   16.4042   19.0108 O   0  0  0  0  0  0  0  0  0  0  0  0
  1  2  1  0
  2  3  2  0
  3  4  1  0
  4  5  1  0
  5  6  1  1
  5  7  1  0
  7  8  1  0
  8  9  2  0
  8 10  1  0
 10 11  2  0
 11 12  1  0
 12 13  1  0
 12 14  1  0
 14 15  2  0
 15 16  1  0
 16 17  2  0
 17 18  1  0
 18 19  2  0
 18 20  1  0
 17 21  1  0
 21 22  2  0
  4 23  2  0
 23 24  1  0
 23 25  1  0
 25  2  1  0
 22 10  1  0
 22 14  1  0
M  CHG  2  18   1  20  -1
M  END
>  <energy_score>  (3586) 
-21.772357

>  <inchikey>  (3586) 
KQBPAGXAIPAUKC-UHFFFAOYSA-N

>  <smiles>  (3586) 
Cc1nc(C(C)NC(=O)c2nn(C)c3ccc([N+](=O)[O-])cc23)c(C)o1

>  <ref_pdb>  (3586) 
A0514a

>  <alias>  (3586) 
KQBPAGXAIPAUKC-UHFFFAOYSA-N-P177-P126-P177-601502

>  <HIPPO Pose ID>  (3586) 
502975

>  <name>  (3586) 
KQBPAGXAIPAUKC-UHFFFAOYSA-N-P177-P126-P177-601502

>  <HIPPO Compound ID>  (3586) 
299305

>  <ref_mols>  (3586) 
A3403a,A2290a

>  <distance_score>  (3586) 
0.72973

>  <inspiration_score>  (3586) 
None

$$$$
OQNNJFMRCICULI-UHFFFAOYSA-N-P126-P126-P177-601502
     RDKit          3D

 25 27  0  0  0  0  0  0  0  0999 V2000
   10.8727   14.2306   24.5043 O   0  0  0  0  0  0  0  0  0  0  0  0
   10.7333   13.4443   23.6577 C   0  0  0  0  0  0  0  0  0  0  0  0
   11.1585   13.4819   22.1887 N   0  0  0  0  0  0  0  0  0  0  0  0
   11.7571   14.5226   21.4257 C   0  0  0  0  0  0  0  0  0  0  0  0
   10.7094   15.2013   20.6201 C   0  0  0  0  0  0  0  0  0  0  0  0
   10.5449   15.1889   19.2595 C   0  0  0  0  0  0  0  0  0  0  0  0
    9.6771   16.1814   18.9146 O   0  0  0  0  0  0  0  0  0  0  0  0
    9.3291   16.7671   20.1066 C   0  0  0  0  0  0  0  0  0  0  0  0
    8.5815   18.0732   20.0199 C   0  0  0  0  0  0  0  0  0  0  0  0
    7.3157   17.9861   19.5605 F   0  0  0  0  0  0  0  0  0  0  0  0
    8.5209   18.6956   21.2227 F   0  0  0  0  0  0  0  0  0  0  0  0
    9.8572   16.1425   21.1502 N   0  0  0  0  0  0  0  0  0  0  0  0
    9.9635   12.2182   23.8858 C   0  0  0  0  0  0  0  0  0  0  0  0
   10.2193   11.1096   23.1765 N   0  0  0  0  0  0  0  0  0  0  0  0
    9.4279   10.1635   23.7371 N   0  0  0  0  0  0  0  0  0  0  0  0
    9.6339    8.7483   23.4230 C   0  0  0  0  0  0  0  0  0  0  0  0
    8.9051    7.9914   24.2692 F   0  0  0  0  0  0  0  0  0  0  0  0
    9.2623    8.4221   22.1727 F   0  0  0  0  0  0  0  0  0  0  0  0
   10.9322    8.3825   23.5506 F   0  0  0  0  0  0  0  0  0  0  0  0
    8.5549   10.6789   24.6801 C   0  0  0  0  0  0  0  0  0  0  0  0
    7.5292   10.1067   25.4510 C   0  0  0  0  0  0  0  0  0  0  0  0
    6.8251   10.9335   26.3303 C   0  0  0  0  0  0  0  0  0  0  0  0
    7.1378   12.2835   26.4462 C   0  0  0  0  0  0  0  0  0  0  0  0
    8.1717   12.8413   25.6881 C   0  0  0  0  0  0  0  0  0  0  0  0
    8.8919   12.0243   24.7952 C   0  0  0  0  0  0  0  0  0  0  0  0
  1  2  2  0
  2  3  1  0
  3  4  1  0
  4  5  1  0
  5  6  2  0
  6  7  1  0
  7  8  1  0
  8  9  1  0
  9 10  1  0
  9 11  1  0
  8 12  2  0
  2 13  1  0
 13 14  2  0
 14 15  1  0
 15 16  1  0
 16 17  1  0
 16 18  1  0
 16 19  1  0
 15 20  1  0
 20 21  2  0
 21 22  1  0
 22 23  2  0
 23 24  1  0
 24 25  2  0
 12  5  1  0
 25 13  1  0
 25 20  1  0
M  END
>  <energy_score>  (3587) 
-8.272095

>  <inchikey>  (3587) 
OQNNJFMRCICULI-UHFFFAOYSA-N

>  <smiles>  (3587) 
O=C(NCc1coc(C(F)F)n1)c1nn(C(F)(F)F)c2ccccc12

>  <ref_pdb>  (3587) 
A0514a

>  <alias>  (3587) 
OQNNJFMRCICULI-UHFFFAOYSA-N-P126-P126-P177-601502

>  <HIPPO Pose ID>  (3587) 
502976

>  <name>  (3587) 
OQNNJFMRCICULI-UHFFFAOYSA-N-P126-P126-P177-601502

>  <HIPPO Compound ID>  (3587) 
299306

>  <ref_mols>  (3587) 
A3403a,A2290a

>  <distance_score>  (3587) 
0.713841

>  <inspiration_score>  (3587) 
None

$$$$
OQNNJFMRCICULI-UHFFFAOYSA-N-P177-P126-P177-601502
     RDKit          3D

 25 27  0  0  0  0  0  0  0  0999 V2000
   10.4679   14.5792   24.3642 O   0  0  0  0  0  0  0  0  0  0  0  0
   10.4431   13.7053   23.5936 C   0  0  0  0  0  0  0  0  0  0  0  0
   11.0720   13.5905   22.1992 N   0  0  0  0  0  0  0  0  0  0  0  0
   11.7805   14.5522   21.4198 C   0  0  0  0  0  0  0  0  0  0  0  0
   10.8137   15.3248   20.6128 C   0  0  0  0  0  0  0  0  0  0  0  0
   10.5694   15.2644   19.2638 C   0  0  0  0  0  0  0  0  0  0  0  0
    9.6746   16.2381   18.9508 O   0  0  0  0  0  0  0  0  0  0  0  0
    9.4223   16.8801   20.1415 C   0  0  0  0  0  0  0  0  0  0  0  0
    8.6128   18.1352   20.0554 C   0  0  0  0  0  0  0  0  0  0  0  0
    7.3180   17.9330   19.7552 F   0  0  0  0  0  0  0  0  0  0  0  0
    8.6761   18.8822   21.1838 F   0  0  0  0  0  0  0  0  0  0  0  0
   10.0551   16.3310   21.1643 N   0  0  0  0  0  0  0  0  0  0  0  0
    9.6827   12.4656   23.8618 C   0  0  0  0  0  0  0  0  0  0  0  0
    9.9359   11.3367   23.1778 N   0  0  0  0  0  0  0  0  0  0  0  0
    9.1466   10.3939   23.7486 N   0  0  0  0  0  0  0  0  0  0  0  0
    9.3538    8.9647   23.4757 C   0  0  0  0  0  0  0  0  0  0  0  0
    8.7062    8.2152   24.3964 F   0  0  0  0  0  0  0  0  0  0  0  0
    8.8970    8.5939   22.2607 F   0  0  0  0  0  0  0  0  0  0  0  0
   10.6553    8.6009   23.5480 F   0  0  0  0  0  0  0  0  0  0  0  0
    8.2656   10.9312   24.6670 C   0  0  0  0  0  0  0  0  0  0  0  0
    7.2187   10.3753   25.4135 C   0  0  0  0  0  0  0  0  0  0  0  0
    6.5512   11.1964   26.3235 C   0  0  0  0  0  0  0  0  0  0  0  0
    6.9108   12.5305   26.4783 C   0  0  0  0  0  0  0  0  0  0  0  0
    7.9477   13.0810   25.7194 C   0  0  0  0  0  0  0  0  0  0  0  0
    8.6333   12.2689   24.7972 C   0  0  0  0  0  0  0  0  0  0  0  0
  1  2  2  0
  2  3  1  0
  3  4  1  0
  4  5  1  0
  5  6  2  0
  6  7  1  0
  7  8  1  0
  8  9  1  0
  9 10  1  0
  9 11  1  0
  8 12  2  0
  2 13  1  0
 13 14  2  0
 14 15  1  0
 15 16  1  0
 16 17  1  0
 16 18  1  0
 16 19  1  0
 15 20  1  0
 20 21  2  0
 21 22  1  0
 22 23  2  0
 23 24  1  0
 24 25  2  0
 12  5  1  0
 25 13  1  0
 25 20  1  0
M  END
>  <energy_score>  (3588) 
-11.5844

>  <inchikey>  (3588) 
OQNNJFMRCICULI-UHFFFAOYSA-N

>  <smiles>  (3588) 
O=C(NCc1coc(C(F)F)n1)c1nn(C(F)(F)F)c2ccccc12

>  <ref_pdb>  (3588) 
A0514a

>  <alias>  (3588) 
OQNNJFMRCICULI-UHFFFAOYSA-N-P177-P126-P177-601502

>  <HIPPO Pose ID>  (3588) 
502977

>  <name>  (3588) 
OQNNJFMRCICULI-UHFFFAOYSA-N-P177-P126-P177-601502

>  <HIPPO Compound ID>  (3588) 
299306

>  <ref_mols>  (3588) 
A3403a,A2290a

>  <distance_score>  (3588) 
0.699855

>  <inspiration_score>  (3588) 
None

$$$$
USRPJRJYGWEPRE-UHFFFAOYSA-N-P126-P126-P177-601502
     RDKit          3D

 25 27  0  0  0  0  0  0  0  0999 V2000
    8.3827   18.2476   19.1053 C   0  0  0  0  0  0  0  0  0  0  0  0
    8.6092   17.5715   20.4466 C   0  0  0  0  0  0  0  0  0  0  0  0
    9.5368   16.4149   20.4335 C   0  0  0  0  0  0  0  0  0  0  0  0
   10.0440   15.7961   21.4766 N   0  0  0  0  0  0  0  0  0  0  0  0
   11.0178   14.9931   20.9643 C   0  0  0  0  0  0  0  0  0  0  0  0
   12.0250   14.3558   21.8346 C   0  0  0  0  0  0  0  0  0  0  0  0
   11.3559   13.3212   22.5368 N   0  0  0  0  0  0  0  0  0  0  0  0
   10.7595   13.2998   23.9454 C   0  0  0  0  0  0  0  0  0  0  0  0
   10.7867   14.1014   24.7893 O   0  0  0  0  0  0  0  0  0  0  0  0
   10.0336   12.0365   24.0783 C   0  0  0  0  0  0  0  0  0  0  0  0
   10.4068   10.9888   23.3314 N   0  0  0  0  0  0  0  0  0  0  0  0
    9.5620    9.9917   23.6756 N   0  0  0  0  0  0  0  0  0  0  0  0
    9.6371    8.7137   22.9566 C   0  0  0  0  0  0  0  0  0  0  0  0
   10.5177    7.8457   23.5048 F   0  0  0  0  0  0  0  0  0  0  0  0
   10.0284    8.8895   21.6735 F   0  0  0  0  0  0  0  0  0  0  0  0
    8.4364    8.1037   22.9333 F   0  0  0  0  0  0  0  0  0  0  0  0
    8.6508   10.3838   24.6394 C   0  0  0  0  0  0  0  0  0  0  0  0
    7.6184    9.7109   25.3028 C   0  0  0  0  0  0  0  0  0  0  0  0
    6.8250   10.4317   26.2008 C   0  0  0  0  0  0  0  0  0  0  0  0
    7.0520   11.7850   26.4294 C   0  0  0  0  0  0  0  0  0  0  0  0
    8.0962   12.4476   25.7792 C   0  0  0  0  0  0  0  0  0  0  0  0
    8.9153   11.7307   24.8863 C   0  0  0  0  0  0  0  0  0  0  0  0
   10.9224   15.0106   19.5974 C   0  0  0  0  0  0  0  0  0  0  0  0
   11.7336   14.4286   18.5389 C   0  0  0  0  0  0  0  0  0  0  0  0
    9.9578   15.9091   19.2393 O   0  0  0  0  0  0  0  0  0  0  0  0
  1  2  1  0
  2  3  1  0
  3  4  2  0
  4  5  1  0
  5  6  1  0
  6  7  1  0
  7  8  1  0
  8  9  2  0
  8 10  1  0
 10 11  2  0
 11 12  1  0
 12 13  1  0
 13 14  1  0
 13 15  1  0
 13 16  1  0
 12 17  1  0
 17 18  2  0
 18 19  1  0
 19 20  2  0
 20 21  1  0
 21 22  2  0
  5 23  2  0
 23 24  1  0
 23 25  1  0
 25  3  1  0
 22 10  1  0
 22 17  1  0
M  END
>  <energy_score>  (3589) 
-46.431819

>  <inchikey>  (3589) 
USRPJRJYGWEPRE-UHFFFAOYSA-N

>  <smiles>  (3589) 
CCc1nc(CNC(=O)c2nn(C(F)(F)F)c3ccccc23)c(C)o1

>  <ref_pdb>  (3589) 
A0514a

>  <alias>  (3589) 
USRPJRJYGWEPRE-UHFFFAOYSA-N-P126-P126-P177-601502

>  <HIPPO Pose ID>  (3589) 
502984

>  <name>  (3589) 
USRPJRJYGWEPRE-UHFFFAOYSA-N-P126-P126-P177-601502

>  <HIPPO Compound ID>  (3589) 
299310

>  <ref_mols>  (3589) 
A3403a,A2290a

>  <distance_score>  (3589) 
0.715948

>  <inspiration_score>  (3589) 
None

$$$$
QEPHXIKPJLOVIJ-UHFFFAOYSA-N-P126-P126-P177-601502
     RDKit          3D

 25 27  0  0  0  0  0  0  0  0999 V2000
   13.2910   14.9951   21.4292 C   0  0  0  0  0  0  0  0  0  0  0  0
   12.4058   13.9345   21.9959 C   0  0  0  0  0  0  0  0  0  0  0  0
   11.0253   14.5067   22.1733 C   0  0  2  0  0  0  0  0  0  0  0  0
   10.2421   13.5236   22.8070 N   0  0  0  0  0  0  0  0  0  0  0  0
    9.6952   13.4572   24.2239 C   0  0  0  0  0  0  0  0  0  0  0  0
    9.7333   14.2372   25.0841 O   0  0  0  0  0  0  0  0  0  0  0  0
    9.1327   12.1319   24.3861 C   0  0  0  0  0  0  0  0  0  0  0  0
    9.5599   11.1125   23.6174 N   0  0  0  0  0  0  0  0  0  0  0  0
    8.8832   10.0593   24.0890 N   0  0  0  0  0  0  0  0  0  0  0  0
    9.2022    8.7523   23.5750 C   0  0  0  0  0  0  0  0  0  0  0  0
    7.9603   10.3928   25.0508 C   0  0  0  0  0  0  0  0  0  0  0  0
    6.9887    9.6623   25.7269 C   0  0  0  0  0  0  0  0  0  0  0  0
    6.1729   10.3266   26.6480 C   0  0  0  0  0  0  0  0  0  0  0  0
    6.3230   11.6921   26.8968 C   0  0  0  0  0  0  0  0  0  0  0  0
    5.3868   12.3402   27.8531 C   0  0  0  0  0  0  0  0  0  0  0  0
    4.3863   11.7963   28.2946 O   0  0  0  0  0  0  0  0  0  0  0  0
    5.8211   13.5846   28.1715 O   0  0  0  0  0  0  0  0  0  0  0  0
    4.9584   14.2942   29.0605 C   0  0  0  0  0  0  0  0  0  0  0  0
    7.3131   12.4167   26.2197 C   0  0  0  0  0  0  0  0  0  0  0  0
    8.1234   11.7498   25.2817 C   0  0  0  0  0  0  0  0  0  0  0  0
   10.3665   15.0846   20.9747 C   0  0  0  0  0  0  0  0  0  0  0  0
   10.6028   14.9092   19.6317 C   0  0  0  0  0  0  0  0  0  0  0  0
    9.9435   15.8890   18.9528 O   0  0  0  0  0  0  0  0  0  0  0  0
    9.3495   16.6222   19.9226 C   0  0  0  0  0  0  0  0  0  0  0  0
    9.4995   16.1408   21.1288 N   0  0  0  0  0  0  0  0  0  0  0  0
  1  2  1  0
  3  2  1  6
  3  4  1  0
  4  5  1  0
  5  6  2  0
  5  7  1  0
  7  8  2  0
  8  9  1  0
  9 10  1  0
  9 11  1  0
 11 12  2  0
 12 13  1  0
 13 14  2  0
 14 15  1  0
 15 16  2  0
 15 17  1  0
 17 18  1  0
 14 19  1  0
 19 20  2  0
  3 21  1  0
 21 22  2  0
 22 23  1  0
 23 24  1  0
 24 25  2  0
 20  7  1  0
 25 21  1  0
 20 11  1  0
M  END
>  <energy_score>  (3590) 
-13.776743

>  <inchikey>  (3590) 
QEPHXIKPJLOVIJ-UHFFFAOYSA-N

>  <smiles>  (3590) 
CCC(NC(=O)c1nn(C)c2ccc(C(=O)OC)cc12)c1cocn1

>  <ref_pdb>  (3590) 
A0514a

>  <alias>  (3590) 
QEPHXIKPJLOVIJ-UHFFFAOYSA-N-P126-P126-P177-601502

>  <HIPPO Pose ID>  (3590) 
502986

>  <name>  (3590) 
QEPHXIKPJLOVIJ-UHFFFAOYSA-N-P126-P126-P177-601502

>  <HIPPO Compound ID>  (3590) 
299311

>  <ref_mols>  (3590) 
A3403a,A2290a

>  <distance_score>  (3590) 
1.114562

>  <inspiration_score>  (3590) 
None

$$$$
QEPHXIKPJLOVIJ-UHFFFAOYSA-N-P177-P126-P177-601502
     RDKit          3D

 25 27  0  0  0  0  0  0  0  0999 V2000
   12.8409   15.0230   20.6599 C   0  0  0  0  0  0  0  0  0  0  0  0
   12.0772   14.3069   21.7177 C   0  0  0  0  0  0  0  0  0  0  0  0
   10.8040   15.0015   22.1387 C   0  0  2  0  0  0  0  0  0  0  0  0
   10.0595   13.9936   22.7928 N   0  0  0  0  0  0  0  0  0  0  0  0
    9.6550   13.8530   24.2480 C   0  0  0  0  0  0  0  0  0  0  0  0
    9.7978   14.5783   25.1434 O   0  0  0  0  0  0  0  0  0  0  0  0
    9.0831   12.5183   24.3688 C   0  0  0  0  0  0  0  0  0  0  0  0
    9.4530   11.5331   23.5238 N   0  0  0  0  0  0  0  0  0  0  0  0
    8.7510   10.4689   23.9333 N   0  0  0  0  0  0  0  0  0  0  0  0
    8.9490    9.1966   23.2751 C   0  0  0  0  0  0  0  0  0  0  0  0
    7.8778   10.7705   24.9479 C   0  0  0  0  0  0  0  0  0  0  0  0
    6.9192   10.0232   25.6118 C   0  0  0  0  0  0  0  0  0  0  0  0
    6.1696   10.6398   26.6181 C   0  0  0  0  0  0  0  0  0  0  0  0
    6.3625   11.9799   26.9534 C   0  0  0  0  0  0  0  0  0  0  0  0
    5.4945   12.5680   28.0078 C   0  0  0  0  0  0  0  0  0  0  0  0
    4.5440   11.9810   28.5021 O   0  0  0  0  0  0  0  0  0  0  0  0
    5.9245   13.8093   28.3409 O   0  0  0  0  0  0  0  0  0  0  0  0
    5.1229   14.4590   29.3281 C   0  0  0  0  0  0  0  0  0  0  0  0
    7.3415   12.7241   26.2841 C   0  0  0  0  0  0  0  0  0  0  0  0
    8.0965   12.1013   25.2725 C   0  0  0  0  0  0  0  0  0  0  0  0
    9.9934   15.6397   21.0712 C   0  0  0  0  0  0  0  0  0  0  0  0
    9.9713   15.4581   19.7058 C   0  0  0  0  0  0  0  0  0  0  0  0
    9.3480   16.5285   19.1481 O   0  0  0  0  0  0  0  0  0  0  0  0
    8.9120   17.2476   20.2180 C   0  0  0  0  0  0  0  0  0  0  0  0
    9.2270   16.7337   21.3767 N   0  0  0  0  0  0  0  0  0  0  0  0
  1  2  1  0
  3  2  1  6
  3  4  1  0
  4  5  1  0
  5  6  2  0
  5  7  1  0
  7  8  2  0
  8  9  1  0
  9 10  1  0
  9 11  1  0
 11 12  2  0
 12 13  1  0
 13 14  2  0
 14 15  1  0
 15 16  2  0
 15 17  1  0
 17 18  1  0
 14 19  1  0
 19 20  2  0
  3 21  1  0
 21 22  2  0
 22 23  1  0
 23 24  1  0
 24 25  2  0
 20  7  1  0
 25 21  1  0
 20 11  1  0
M  END
>  <energy_score>  (3591) 
-8.058039

>  <inchikey>  (3591) 
QEPHXIKPJLOVIJ-UHFFFAOYSA-N

>  <smiles>  (3591) 
CCC(NC(=O)c1nn(C)c2ccc(C(=O)OC)cc12)c1cocn1

>  <ref_pdb>  (3591) 
A0514a

>  <alias>  (3591) 
QEPHXIKPJLOVIJ-UHFFFAOYSA-N-P177-P126-P177-601502

>  <HIPPO Pose ID>  (3591) 
502987

>  <name>  (3591) 
QEPHXIKPJLOVIJ-UHFFFAOYSA-N-P177-P126-P177-601502

>  <HIPPO Compound ID>  (3591) 
299311

>  <ref_mols>  (3591) 
A3403a,A2290a

>  <distance_score>  (3591) 
1.201285

>  <inspiration_score>  (3591) 
None

$$$$
QLKJCYDRRORKPE-UHFFFAOYSA-N-P126-P126-P177-601502
     RDKit          3D

 25 27  0  0  0  0  0  0  0  0999 V2000
    8.5309   18.0345   19.7946 C   0  0  0  0  0  0  0  0  0  0  0  0
    9.2772   16.7769   20.0497 C   0  0  0  0  0  0  0  0  0  0  0  0
    9.5686   16.2122   21.1962 N   0  0  0  0  0  0  0  0  0  0  0  0
   10.5547   15.2965   20.9088 C   0  0  0  0  0  0  0  0  0  0  0  0
   11.4106   14.7919   22.0132 C   0  0  2  0  0  0  0  0  0  0  0  0
   12.8352   14.4573   21.6776 C   0  0  0  0  0  0  0  0  0  0  0  0
   10.8093   13.6646   22.6337 N   0  0  0  0  0  0  0  0  0  0  0  0
   10.3472   13.4532   24.0727 C   0  0  0  0  0  0  0  0  0  0  0  0
   10.4516   14.1381   25.0075 O   0  0  0  0  0  0  0  0  0  0  0  0
    9.7481   12.1283   24.1457 C   0  0  0  0  0  0  0  0  0  0  0  0
   10.1836   11.1470   23.3421 N   0  0  0  0  0  0  0  0  0  0  0  0
    9.4479   10.0648   23.6974 N   0  0  0  0  0  0  0  0  0  0  0  0
    9.6394    8.7930   22.9856 C   0  0  0  0  0  0  0  0  0  0  0  0
   10.0149    8.9867   21.7002 F   0  0  0  0  0  0  0  0  0  0  0  0
    8.5024    8.0697   22.9727 F   0  0  0  0  0  0  0  0  0  0  0  0
   10.6026    8.0220   23.5400 F   0  0  0  0  0  0  0  0  0  0  0  0
    8.5258   10.3608   24.6866 C   0  0  0  0  0  0  0  0  0  0  0  0
    7.5514    9.6024   25.3396 C   0  0  0  0  0  0  0  0  0  0  0  0
    6.7256   10.2357   26.2748 C   0  0  0  0  0  0  0  0  0  0  0  0
    6.8726   11.5881   26.5609 C   0  0  0  0  0  0  0  0  0  0  0  0
    7.8587   12.3385   25.9211 C   0  0  0  0  0  0  0  0  0  0  0  0
    8.6939   11.7102   24.9785 C   0  0  0  0  0  0  0  0  0  0  0  0
   10.6656   15.1948   19.5397 C   0  0  0  0  0  0  0  0  0  0  0  0
   11.5863   14.5132   18.6231 C   0  0  0  0  0  0  0  0  0  0  0  0
    9.8360   16.1380   18.9811 O   0  0  0  0  0  0  0  0  0  0  0  0
  1  2  1  0
  2  3  2  0
  3  4  1  0
  4  5  1  0
  5  6  1  6
  5  7  1  0
  7  8  1  0
  8  9  2  0
  8 10  1  0
 10 11  2  0
 11 12  1  0
 12 13  1  0
 13 14  1  0
 13 15  1  0
 13 16  1  0
 12 17  1  0
 17 18  2  0
 18 19  1  0
 19 20  2  0
 20 21  1  0
 21 22  2  0
  4 23  2  0
 23 24  1  0
 23 25  1  0
 25  2  1  0
 22 10  1  0
 22 17  1  0
M  END
>  <energy_score>  (3592) 
-11.967293

>  <inchikey>  (3592) 
QLKJCYDRRORKPE-UHFFFAOYSA-N

>  <smiles>  (3592) 
Cc1nc(C(C)NC(=O)c2nn(C(F)(F)F)c3ccccc23)c(C)o1

>  <ref_pdb>  (3592) 
A0514a

>  <alias>  (3592) 
QLKJCYDRRORKPE-UHFFFAOYSA-N-P126-P126-P177-601502

>  <HIPPO Pose ID>  (3592) 
502988

>  <name>  (3592) 
QLKJCYDRRORKPE-UHFFFAOYSA-N-P126-P126-P177-601502

>  <HIPPO Compound ID>  (3592) 
299312

>  <ref_mols>  (3592) 
A3403a,A2290a

>  <distance_score>  (3592) 
0.836628

>  <inspiration_score>  (3592) 
None

$$$$
QLKJCYDRRORKPE-UHFFFAOYSA-N-P177-P126-P177-601502
     RDKit          3D

 25 27  0  0  0  0  0  0  0  0999 V2000
    8.2716   18.4225   19.8380 C   0  0  0  0  0  0  0  0  0  0  0  0
    9.0703   17.2032   20.0800 C   0  0  0  0  0  0  0  0  0  0  0  0
    9.4009   16.6654   21.2252 N   0  0  0  0  0  0  0  0  0  0  0  0
   10.3282   15.7052   20.9046 C   0  0  0  0  0  0  0  0  0  0  0  0
   11.1174   15.1250   22.0019 C   0  0  2  0  0  0  0  0  0  0  0  0
   12.4873   14.6538   21.6384 C   0  0  0  0  0  0  0  0  0  0  0  0
   10.4183   14.0530   22.6133 N   0  0  0  0  0  0  0  0  0  0  0  0
   10.0128   13.8354   24.0647 C   0  0  0  0  0  0  0  0  0  0  0  0
   10.1158   14.5326   24.9896 O   0  0  0  0  0  0  0  0  0  0  0  0
    9.4311   12.4987   24.1550 C   0  0  0  0  0  0  0  0  0  0  0  0
    9.8144   11.5147   23.3233 N   0  0  0  0  0  0  0  0  0  0  0  0
    9.0779   10.4396   23.7020 N   0  0  0  0  0  0  0  0  0  0  0  0
    9.2395    9.1331   23.0438 C   0  0  0  0  0  0  0  0  0  0  0  0
    9.7620    9.2226   21.8005 F   0  0  0  0  0  0  0  0  0  0  0  0
    8.0449    8.5194   22.9179 F   0  0  0  0  0  0  0  0  0  0  0  0
   10.0333    8.2978   23.7529 F   0  0  0  0  0  0  0  0  0  0  0  0
    8.1853   10.7544   24.7099 C   0  0  0  0  0  0  0  0  0  0  0  0
    7.1989   10.0193   25.3615 C   0  0  0  0  0  0  0  0  0  0  0  0
    6.4430   10.6500   26.3544 C   0  0  0  0  0  0  0  0  0  0  0  0
    6.6670   11.9779   26.6933 C   0  0  0  0  0  0  0  0  0  0  0  0
    7.6571   12.7090   26.0406 C   0  0  0  0  0  0  0  0  0  0  0  0
    8.4188   12.0836   25.0375 C   0  0  0  0  0  0  0  0  0  0  0  0
   10.4214   15.5996   19.5340 C   0  0  0  0  0  0  0  0  0  0  0  0
   11.2552   14.8559   18.5783 C   0  0  0  0  0  0  0  0  0  0  0  0
    9.5928   16.5489   18.9997 O   0  0  0  0  0  0  0  0  0  0  0  0
  1  2  1  0
  2  3  2  0
  3  4  1  0
  4  5  1  0
  5  6  1  6
  5  7  1  0
  7  8  1  0
  8  9  2  0
  8 10  1  0
 10 11  2  0
 11 12  1  0
 12 13  1  0
 13 14  1  0
 13 15  1  0
 13 16  1  0
 12 17  1  0
 17 18  2  0
 18 19  1  0
 19 20  2  0
 20 21  1  0
 21 22  2  0
  4 23  2  0
 23 24  1  0
 23 25  1  0
 25  2  1  0
 22 10  1  0
 22 17  1  0
M  END
>  <energy_score>  (3593) 
-14.802978

>  <inchikey>  (3593) 
QLKJCYDRRORKPE-UHFFFAOYSA-N

>  <smiles>  (3593) 
Cc1nc(C(C)NC(=O)c2nn(C(F)(F)F)c3ccccc23)c(C)o1

>  <ref_pdb>  (3593) 
A0514a

>  <alias>  (3593) 
QLKJCYDRRORKPE-UHFFFAOYSA-N-P177-P126-P177-601502

>  <HIPPO Pose ID>  (3593) 
502989

>  <name>  (3593) 
QLKJCYDRRORKPE-UHFFFAOYSA-N-P177-P126-P177-601502

>  <HIPPO Compound ID>  (3593) 
299312

>  <ref_mols>  (3593) 
A3403a,A2290a

>  <distance_score>  (3593) 
0.939657

>  <inspiration_score>  (3593) 
None

$$$$
OJRQUQXFBZCTKZ-UHFFFAOYSA-N-P177-P126-P177-601502
     RDKit          3D

 25 27  0  0  0  0  0  0  0  0999 V2000
   10.3771   14.5750   24.5471 O   0  0  0  0  0  0  0  0  0  0  0  0
   10.4176   13.7073   23.7715 C   0  0  0  0  0  0  0  0  0  0  0  0
   11.1071   13.6266   22.4065 N   0  0  0  0  0  0  0  0  0  0  0  0
   11.8083   14.6164   21.6659 C   0  0  0  0  0  0  0  0  0  0  0  0
   10.8225   15.3534   20.8552 C   0  0  0  0  0  0  0  0  0  0  0  0
    9.9195   16.2147   21.4224 N   0  0  0  0  0  0  0  0  0  0  0  0
    9.2914   16.7445   20.4029 C   0  0  0  0  0  0  0  0  0  0  0  0
    9.6589   16.2435   19.1903 O   0  0  0  0  0  0  0  0  0  0  0  0
   10.6445   15.3439   19.4951 C   0  0  0  0  0  0  0  0  0  0  0  0
   11.2958   14.6189   18.4077 C   0  0  0  0  0  0  0  0  0  0  0  0
   12.1496   13.6696   18.8789 F   0  0  0  0  0  0  0  0  0  0  0  0
   12.0488   15.4327   17.6381 F   0  0  0  0  0  0  0  0  0  0  0  0
    9.6756   12.4522   23.9758 C   0  0  0  0  0  0  0  0  0  0  0  0
    9.9673   11.3591   23.2528 N   0  0  0  0  0  0  0  0  0  0  0  0
    9.1905   10.3788   23.7707 N   0  0  0  0  0  0  0  0  0  0  0  0
    9.4595    8.9702   23.4509 C   0  0  0  0  0  0  0  0  0  0  0  0
   10.7545    8.6342   23.6526 F   0  0  0  0  0  0  0  0  0  0  0  0
    8.7398    8.1581   24.2523 F   0  0  0  0  0  0  0  0  0  0  0  0
    9.1550    8.6610   22.1723 F   0  0  0  0  0  0  0  0  0  0  0  0
    8.2735   10.8650   24.6829 C   0  0  0  0  0  0  0  0  0  0  0  0
    7.2231   10.2655   25.3864 C   0  0  0  0  0  0  0  0  0  0  0  0
    6.5147   11.0421   26.3057 C   0  0  0  0  0  0  0  0  0  0  0  0
    6.8371   12.3783   26.5116 C   0  0  0  0  0  0  0  0  0  0  0  0
    7.8791   12.9741   25.7974 C   0  0  0  0  0  0  0  0  0  0  0  0
    8.6049   12.2053   24.8689 C   0  0  0  0  0  0  0  0  0  0  0  0
  1  2  2  0
  2  3  1  0
  3  4  1  0
  4  5  1  0
  5  6  1  0
  6  7  2  0
  7  8  1  0
  8  9  1  0
  9 10  1  0
 10 11  1  0
 10 12  1  0
  2 13  1  0
 13 14  2  0
 14 15  1  0
 15 16  1  0
 16 17  1  0
 16 18  1  0
 16 19  1  0
 15 20  1  0
 20 21  2  0
 21 22  1  0
 22 23  2  0
 23 24  1  0
 24 25  2  0
  9  5  2  0
 25 13  1  0
 25 20  1  0
M  END
>  <energy_score>  (3594) 
-9.776

>  <inchikey>  (3594) 
OJRQUQXFBZCTKZ-UHFFFAOYSA-N

>  <smiles>  (3594) 
O=C(NCc1ncoc1C(F)F)c1nn(C(F)(F)F)c2ccccc12

>  <ref_pdb>  (3594) 
A0514a

>  <alias>  (3594) 
OJRQUQXFBZCTKZ-UHFFFAOYSA-N-P177-P126-P177-601502

>  <HIPPO Pose ID>  (3594) 
502995

>  <name>  (3594) 
OJRQUQXFBZCTKZ-UHFFFAOYSA-N-P177-P126-P177-601502

>  <HIPPO Compound ID>  (3594) 
299315

>  <ref_mols>  (3594) 
A3403a,A2290a

>  <distance_score>  (3594) 
0.740601

>  <inspiration_score>  (3594) 
None

$$$$
BNGCHZAMUFCOTG-UHFFFAOYSA-N-P126-P126-P177-601502
     RDKit          3D

 25 27  0  0  0  0  0  0  0  0999 V2000
   11.2524   14.9143   18.8711 C   0  0  0  0  0  0  0  0  0  0  0  0
   10.2095   15.9087   19.2175 C   0  0  0  0  0  0  0  0  0  0  0  0
   10.0001   16.9366   18.3301 O   0  0  0  0  0  0  0  0  0  0  0  0
    9.0933   17.7384   18.9365 C   0  0  0  0  0  0  0  0  0  0  0  0
    8.7406   17.3546   20.1349 N   0  0  0  0  0  0  0  0  0  0  0  0
    9.3721   16.1379   20.2893 C   0  0  0  0  0  0  0  0  0  0  0  0
    8.9654   15.1848   21.3062 C   0  0  0  0  0  0  0  0  0  0  0  0
    7.7936   15.0479   21.4785 O   0  0  0  0  0  0  0  0  0  0  0  0
   10.0704   14.4972   21.8700 N   0  0  0  0  0  0  0  0  0  0  0  0
   10.1161   13.4553   22.6765 N   0  0  0  0  0  0  0  0  0  0  0  0
   10.0692   13.3709   24.0924 C   0  0  0  0  0  0  0  0  0  0  0  0
   10.0598   14.2252   24.9289 O   0  0  0  0  0  0  0  0  0  0  0  0
    9.9186   11.9621   24.4035 C   0  0  0  0  0  0  0  0  0  0  0  0
   10.4413   11.0207   23.6047 N   0  0  0  0  0  0  0  0  0  0  0  0
    9.6767    9.9159   23.8398 N   0  0  0  0  0  0  0  0  0  0  0  0
    9.8454    8.7262   22.9901 C   0  0  0  0  0  0  0  0  0  0  0  0
    8.7088    8.0046   22.9070 F   0  0  0  0  0  0  0  0  0  0  0  0
   10.8286    7.8990   23.4165 F   0  0  0  0  0  0  0  0  0  0  0  0
   10.1684    9.0790   21.7214 F   0  0  0  0  0  0  0  0  0  0  0  0
    8.6871   10.1594   24.7773 C   0  0  0  0  0  0  0  0  0  0  0  0
    7.6421    9.3840   25.2758 C   0  0  0  0  0  0  0  0  0  0  0  0
    6.7233    9.9612   26.1583 C   0  0  0  0  0  0  0  0  0  0  0  0
    6.8369   11.2920   26.5318 C   0  0  0  0  0  0  0  0  0  0  0  0
    7.8842   12.0672   26.0364 C   0  0  0  0  0  0  0  0  0  0  0  0
    8.8369   11.4794   25.1771 C   0  0  0  0  0  0  0  0  0  0  0  0
  1  2  1  0
  2  3  1  0
  3  4  1  0
  4  5  2  0
  5  6  1  0
  6  7  1  0
  7  8  2  0
  7  9  1  0
  9 10  1  0
 10 11  1  0
 11 12  2  0
 11 13  1  0
 13 14  2  0
 14 15  1  0
 15 16  1  0
 16 17  1  0
 16 18  1  0
 16 19  1  0
 15 20  1  0
 20 21  2  0
 21 22  1  0
 22 23  2  0
 23 24  1  0
 24 25  2  0
  6  2  2  0
 25 13  1  0
 25 20  1  0
M  END
>  <energy_score>  (3595) 
-19.168446

>  <inchikey>  (3595) 
BNGCHZAMUFCOTG-UHFFFAOYSA-N

>  <smiles>  (3595) 
Cc1ocnc1C(=O)NNC(=O)c1nn(C(F)(F)F)c2ccccc12

>  <ref_pdb>  (3595) 
A0514a

>  <alias>  (3595) 
BNGCHZAMUFCOTG-UHFFFAOYSA-N-P126-P126-P177-601502

>  <HIPPO Pose ID>  (3595) 
502996

>  <name>  (3595) 
BNGCHZAMUFCOTG-UHFFFAOYSA-N-P126-P126-P177-601502

>  <HIPPO Compound ID>  (3595) 
299316

>  <ref_mols>  (3595) 
A3403a,A2290a

>  <distance_score>  (3595) 
1.49535

>  <inspiration_score>  (3595) 
None

$$$$
GNJLYFVUROVGNE-UHFFFAOYSA-N-P126-P126-P177-601502
     RDKit          3D

 25 27  0  0  0  0  0  0  0  0999 V2000
    7.8850   18.9093   19.8712 C   0  0  0  0  0  0  0  0  0  0  0  0
    8.6814   17.7547   19.9556 N   0  0  0  0  0  0  0  0  0  0  0  0
    9.4033   16.9725   18.8729 C   0  0  0  0  0  0  0  0  0  0  0  0
    9.5250   17.1917   17.7434 O   0  0  0  0  0  0  0  0  0  0  0  0
   10.0393   15.8512   19.5524 C   0  0  0  0  0  0  0  0  0  0  0  0
   11.0482   15.0439   19.0899 C   0  0  0  0  0  0  0  0  0  0  0  0
   11.4208   14.2219   20.1000 O   0  0  0  0  0  0  0  0  0  0  0  0
   10.5345   14.4902   21.0855 C   0  0  0  0  0  0  0  0  0  0  0  0
   10.3459   13.5373   22.0017 N   0  0  0  0  0  0  0  0  0  0  0  0
    9.5453   13.5541   23.2974 C   0  0  0  0  0  0  0  0  0  0  0  0
    8.9797   14.4222   23.8229 O   0  0  0  0  0  0  0  0  0  0  0  0
    9.4664   12.1944   23.8280 C   0  0  0  0  0  0  0  0  0  0  0  0
   10.0978   11.1668   23.2384 N   0  0  0  0  0  0  0  0  0  0  0  0
    9.4571   10.0797   23.7101 N   0  0  0  0  0  0  0  0  0  0  0  0
    9.7146    8.8011   23.0869 C   0  0  0  0  0  0  0  0  0  0  0  0
    8.5231   10.3759   24.6772 C   0  0  0  0  0  0  0  0  0  0  0  0
    7.6172    9.5846   25.3875 C   0  0  0  0  0  0  0  0  0  0  0  0
    6.7295   10.2099   26.2679 C   0  0  0  0  0  0  0  0  0  0  0  0
    6.7575   11.5967   26.4198 C   0  0  0  0  0  0  0  0  0  0  0  0
    5.8159   12.2343   27.3357 N   0  0  0  0  0  0  0  0  0  0  0  0
    6.1943   13.2621   27.9146 O   0  0  0  0  0  0  0  0  0  0  0  0
    4.7170   11.6852   27.5033 O   0  0  0  0  0  0  0  0  0  0  0  0
    7.6573   12.3939   25.7036 C   0  0  0  0  0  0  0  0  0  0  0  0
    8.5511   11.7581   24.8181 C   0  0  0  0  0  0  0  0  0  0  0  0
    9.7691   15.5288   20.8793 N   0  0  0  0  0  0  0  0  0  0  0  0
  1  2  1  0
  2  3  1  0
  3  4  2  0
  3  5  1  0
  5  6  2  0
  6  7  1  0
  7  8  1  0
  8  9  1  0
  9 10  1  0
 10 11  2  0
 10 12  1  0
 12 13  2  0
 13 14  1  0
 14 15  1  0
 14 16  1  0
 16 17  2  0
 17 18  1  0
 18 19  2  0
 19 20  1  0
 20 21  2  0
 20 22  1  0
 19 23  1  0
 23 24  2  0
  8 25  2  0
 25  5  1  0
 24 12  1  0
 24 16  1  0
M  CHG  2  20   1  22  -1
M  END
>  <energy_score>  (3596) 
-57.520635

>  <inchikey>  (3596) 
GNJLYFVUROVGNE-UHFFFAOYSA-N

>  <smiles>  (3596) 
CNC(=O)c1coc(NC(=O)c2nn(C)c3ccc([N+](=O)[O-])cc23)n1

>  <ref_pdb>  (3596) 
A0514a

>  <alias>  (3596) 
GNJLYFVUROVGNE-UHFFFAOYSA-N-P126-P126-P177-601502

>  <HIPPO Pose ID>  (3596) 
503004

>  <name>  (3596) 
GNJLYFVUROVGNE-UHFFFAOYSA-N-P126-P126-P177-601502

>  <HIPPO Compound ID>  (3596) 
299320

>  <ref_mols>  (3596) 
A3403a,A2290a

>  <distance_score>  (3596) 
1.127477

>  <inspiration_score>  (3596) 
None

$$$$
OWIBAEFFDAMNBK-UHFFFAOYSA-N-P126-P126-P177-601502
     RDKit          3D

 25 27  0  0  0  0  0  0  0  0999 V2000
    7.9779   18.5914   19.7743 C   0  0  0  0  0  0  0  0  0  0  0  0
    8.8975   17.8028   18.9040 C   0  0  0  0  0  0  0  0  0  0  0  0
    9.5252   16.6573   19.6039 C   0  0  0  0  0  0  0  0  0  0  0  0
    9.7710   16.3535   20.8682 N   0  0  0  0  0  0  0  0  0  0  0  0
   10.6845   15.3065   20.7922 C   0  0  0  0  0  0  0  0  0  0  0  0
   11.4923   14.8055   21.9288 C   0  0  0  0  0  0  0  0  0  0  0  0
   10.8322   13.6924   22.5267 N   0  0  0  0  0  0  0  0  0  0  0  0
   10.3987   13.4538   23.9726 C   0  0  0  0  0  0  0  0  0  0  0  0
   10.4396   14.1573   24.8989 O   0  0  0  0  0  0  0  0  0  0  0  0
    9.7663   12.1353   24.0630 C   0  0  0  0  0  0  0  0  0  0  0  0
   10.1435   11.1132   23.2777 N   0  0  0  0  0  0  0  0  0  0  0  0
    9.3888   10.0813   23.6944 N   0  0  0  0  0  0  0  0  0  0  0  0
    9.5730    8.7949   23.0653 C   0  0  0  0  0  0  0  0  0  0  0  0
    8.4829   10.4223   24.6709 C   0  0  0  0  0  0  0  0  0  0  0  0
    7.5027    9.6912   25.3487 C   0  0  0  0  0  0  0  0  0  0  0  0
    6.6816   10.3659   26.2558 C   0  0  0  0  0  0  0  0  0  0  0  0
    6.8625   11.7321   26.4843 C   0  0  0  0  0  0  0  0  0  0  0  0
    5.9957   12.4143   27.4447 N   0  0  0  0  0  0  0  0  0  0  0  0
    4.8750   11.9274   27.6559 O   0  0  0  0  0  0  0  0  0  0  0  0
    6.4570   13.4086   28.0225 O   0  0  0  0  0  0  0  0  0  0  0  0
    7.8727   12.4566   25.8369 C   0  0  0  0  0  0  0  0  0  0  0  0
    8.6908   11.7756   24.9136 C   0  0  0  0  0  0  0  0  0  0  0  0
   10.8737   15.0144   19.4680 C   0  0  0  0  0  0  0  0  0  0  0  0
   11.8123   14.2437   18.6838 C   0  0  0  0  0  0  0  0  0  0  0  0
   10.0693   15.7953   18.7301 O   0  0  0  0  0  0  0  0  0  0  0  0
  1  2  1  0
  2  3  1  0
  3  4  2  0
  4  5  1  0
  5  6  1  0
  6  7  1  0
  7  8  1  0
  8  9  2  0
  8 10  1  0
 10 11  2  0
 11 12  1  0
 12 13  1  0
 12 14  1  0
 14 15  2  0
 15 16  1  0
 16 17  2  0
 17 18  1  0
 18 19  2  0
 18 20  1  0
 17 21  1  0
 21 22  2  0
  5 23  2  0
 23 24  1  0
 23 25  1  0
 25  3  1  0
 22 10  1  0
 22 14  1  0
M  CHG  2  18   1  20  -1
M  END
>  <energy_score>  (3597) 
-31.175064

>  <inchikey>  (3597) 
OWIBAEFFDAMNBK-UHFFFAOYSA-N

>  <smiles>  (3597) 
CCc1nc(CNC(=O)c2nn(C)c3ccc([N+](=O)[O-])cc23)c(C)o1

>  <ref_pdb>  (3597) 
A0514a

>  <alias>  (3597) 
OWIBAEFFDAMNBK-UHFFFAOYSA-N-P126-P126-P177-601502

>  <HIPPO Pose ID>  (3597) 
503006

>  <name>  (3597) 
OWIBAEFFDAMNBK-UHFFFAOYSA-N-P126-P126-P177-601502

>  <HIPPO Compound ID>  (3597) 
299321

>  <ref_mols>  (3597) 
A3403a,A2290a

>  <distance_score>  (3597) 
0.746249

>  <inspiration_score>  (3597) 
None

$$$$
OWIBAEFFDAMNBK-UHFFFAOYSA-N-P177-P126-P177-601502
     RDKit          3D

 25 27  0  0  0  0  0  0  0  0999 V2000
    7.2989   15.9278   21.9596 C   0  0  0  0  0  0  0  0  0  0  0  0
    8.1875   16.9806   21.2854 C   0  0  0  0  0  0  0  0  0  0  0  0
    9.4654   16.3531   20.9385 C   0  0  0  0  0  0  0  0  0  0  0  0
   10.2919   15.8165   21.7978 N   0  0  0  0  0  0  0  0  0  0  0  0
   11.1436   15.1003   21.0254 C   0  0  0  0  0  0  0  0  0  0  0  0
   12.0947   14.1923   21.6680 C   0  0  0  0  0  0  0  0  0  0  0  0
   11.3040   13.2751   22.4210 N   0  0  0  0  0  0  0  0  0  0  0  0
   10.6646   13.4150   23.8075 C   0  0  0  0  0  0  0  0  0  0  0  0
   10.7435   14.2722   24.5934 O   0  0  0  0  0  0  0  0  0  0  0  0
    9.7725   12.2578   23.9971 C   0  0  0  0  0  0  0  0  0  0  0  0
    9.9180   11.1605   23.2361 N   0  0  0  0  0  0  0  0  0  0  0  0
    9.0200   10.2929   23.7015 N   0  0  0  0  0  0  0  0  0  0  0  0
    8.9980    8.9631   23.1450 C   0  0  0  0  0  0  0  0  0  0  0  0
    8.2127   10.8136   24.6783 C   0  0  0  0  0  0  0  0  0  0  0  0
    7.1381   10.2769   25.3898 C   0  0  0  0  0  0  0  0  0  0  0  0
    6.5139   11.0851   26.3410 C   0  0  0  0  0  0  0  0  0  0  0  0
    6.9630   12.3905   26.5626 C   0  0  0  0  0  0  0  0  0  0  0  0
    6.3116   13.2059   27.5925 N   0  0  0  0  0  0  0  0  0  0  0  0
    5.2091   12.8277   28.0144 O   0  0  0  0  0  0  0  0  0  0  0  0
    6.9248   14.1983   28.0103 O   0  0  0  0  0  0  0  0  0  0  0  0
    8.0483   12.9242   25.8500 C   0  0  0  0  0  0  0  0  0  0  0  0
    8.6819   12.1094   24.8936 C   0  0  0  0  0  0  0  0  0  0  0  0
   10.8488   15.2964   19.6993 C   0  0  0  0  0  0  0  0  0  0  0  0
   11.4355   14.8153   18.4522 C   0  0  0  0  0  0  0  0  0  0  0  0
    9.7500   16.1050   19.6254 O   0  0  0  0  0  0  0  0  0  0  0  0
  1  2  1  0
  2  3  1  0
  3  4  2  0
  4  5  1  0
  5  6  1  0
  6  7  1  0
  7  8  1  0
  8  9  2  0
  8 10  1  0
 10 11  2  0
 11 12  1  0
 12 13  1  0
 12 14  1  0
 14 15  2  0
 15 16  1  0
 16 17  2  0
 17 18  1  0
 18 19  2  0
 18 20  1  0
 17 21  1  0
 21 22  2  0
  5 23  2  0
 23 24  1  0
 23 25  1  0
 25  3  1  0
 22 10  1  0
 22 14  1  0
M  CHG  2  18   1  20  -1
M  END
>  <energy_score>  (3598) 
-35.87109

>  <inchikey>  (3598) 
OWIBAEFFDAMNBK-UHFFFAOYSA-N

>  <smiles>  (3598) 
CCc1nc(CNC(=O)c2nn(C)c3ccc([N+](=O)[O-])cc23)c(C)o1

>  <ref_pdb>  (3598) 
A0514a

>  <alias>  (3598) 
OWIBAEFFDAMNBK-UHFFFAOYSA-N-P177-P126-P177-601502

>  <HIPPO Pose ID>  (3598) 
503007

>  <name>  (3598) 
OWIBAEFFDAMNBK-UHFFFAOYSA-N-P177-P126-P177-601502

>  <HIPPO Compound ID>  (3598) 
299321

>  <ref_mols>  (3598) 
A3403a,A2290a

>  <distance_score>  (3598) 
0.763703

>  <inspiration_score>  (3598) 
None

$$$$
NTBJRVIQFRMSQP-UHFFFAOYSA-N-P126-P126-P177-601502
     RDKit          3D

 25 28  0  0  0  0  0  0  0  0999 V2000
    9.3800    8.7337   23.1364 C   0  0  0  0  0  0  0  0  0  0  0  0
    9.2816    9.9964   23.8270 N   0  0  0  0  0  0  0  0  0  0  0  0
   10.1561   10.9590   23.5018 N   0  0  0  0  0  0  0  0  0  0  0  0
    9.8205   11.9945   24.2932 C   0  0  0  0  0  0  0  0  0  0  0  0
   10.6175   13.2229   24.2729 C   0  0  0  0  0  0  0  0  0  0  0  0
   10.5128   14.0532   25.0807 O   0  0  0  0  0  0  0  0  0  0  0  0
   11.4595   13.1792   23.0025 N   0  0  0  0  0  0  0  0  0  0  0  0
   12.2744   14.1703   22.4037 C   0  0  0  0  0  0  0  0  0  0  0  0
   11.5803   14.6066   21.1947 C   0  0  0  0  0  0  0  0  0  0  0  0
   11.8716   14.3682   19.8803 C   0  0  0  0  0  0  0  0  0  0  0  0
   10.9542   15.0087   19.1262 O   0  0  0  0  0  0  0  0  0  0  0  0
   10.1929   15.6900   20.0373 C   0  0  0  0  0  0  0  0  0  0  0  0
    9.3883   16.7859   19.6596 C   0  0  0  0  0  0  0  0  0  0  0  0
    9.2151   17.2422   18.3796 C   0  0  0  0  0  0  0  0  0  0  0  0
    8.2489   18.2577   18.3353 C   0  0  0  0  0  0  0  0  0  0  0  0
    7.8664   18.6836   19.5786 C   0  0  0  0  0  0  0  0  0  0  0  0
    8.5857   17.7507   20.7969 S   0  0  0  0  0  0  0  0  0  0  0  0
   10.4597   15.3803   21.2877 N   0  0  0  0  0  0  0  0  0  0  0  0
    8.6744   11.7128   25.0689 C   0  0  0  0  0  0  0  0  0  0  0  0
    7.8779   12.4305   25.9815 C   0  0  0  0  0  0  0  0  0  0  0  0
    6.8242   11.7692   26.6123 C   0  0  0  0  0  0  0  0  0  0  0  0
    5.7513   12.7026   27.8587 Br  0  0  0  0  0  0  0  0  0  0  0  0
    6.5640   10.4271   26.3568 C   0  0  0  0  0  0  0  0  0  0  0  0
    7.3404    9.7131   25.4398 C   0  0  0  0  0  0  0  0  0  0  0  0
    8.3803   10.3814   24.7901 C   0  0  0  0  0  0  0  0  0  0  0  0
  1  2  1  0
  2  3  1  0
  3  4  2  0
  4  5  1  0
  5  6  2  0
  5  7  1  0
  7  8  1  0
  8  9  1  0
  9 10  2  0
 10 11  1  0
 11 12  1  0
 12 13  1  0
 13 14  2  0
 14 15  1  0
 15 16  2  0
 16 17  1  0
 12 18  2  0
  4 19  1  0
 19 20  2  0
 20 21  1  0
 21 22  1  0
 21 23  2  0
 23 24  1  0
 24 25  2  0
 25  2  1  0
 18  9  1  0
 25 19  1  0
 17 13  1  0
M  END
>  <energy_score>  (3599) 
-10.949984

>  <inchikey>  (3599) 
NTBJRVIQFRMSQP-UHFFFAOYSA-N

>  <smiles>  (3599) 
Cn1nc(C(=O)NCc2coc(-c3cccs3)n2)c2cc(Br)ccc21

>  <ref_pdb>  (3599) 
A0514a

>  <alias>  (3599) 
NTBJRVIQFRMSQP-UHFFFAOYSA-N-P126-P126-P177-601502

>  <HIPPO Pose ID>  (3599) 
503008

>  <name>  (3599) 
NTBJRVIQFRMSQP-UHFFFAOYSA-N-P126-P126-P177-601502

>  <HIPPO Compound ID>  (3599) 
299322

>  <ref_mols>  (3599) 
A3403a,A2290a

>  <distance_score>  (3599) 
1.032059

>  <inspiration_score>  (3599) 
None

$$$$
NTBJRVIQFRMSQP-UHFFFAOYSA-N-P177-P126-P177-601502
     RDKit          3D

 25 28  0  0  0  0  0  0  0  0999 V2000
    8.9553    8.9908   23.1731 C   0  0  0  0  0  0  0  0  0  0  0  0
    8.9446   10.3141   23.7466 N   0  0  0  0  0  0  0  0  0  0  0  0
    9.8188   11.2094   23.2883 N   0  0  0  0  0  0  0  0  0  0  0  0
    9.6235   12.3061   24.0434 C   0  0  0  0  0  0  0  0  0  0  0  0
   10.4743   13.4881   23.8379 C   0  0  0  0  0  0  0  0  0  0  0  0
   10.5167   14.3821   24.5824 O   0  0  0  0  0  0  0  0  0  0  0  0
   11.1920   13.2721   22.5059 N   0  0  0  0  0  0  0  0  0  0  0  0
   12.0324   14.1347   21.7633 C   0  0  0  0  0  0  0  0  0  0  0  0
   11.2160   14.8655   20.8019 C   0  0  0  0  0  0  0  0  0  0  0  0
   11.1849   14.7655   19.4347 C   0  0  0  0  0  0  0  0  0  0  0  0
   10.2470   15.6228   18.9801 O   0  0  0  0  0  0  0  0  0  0  0  0
    9.8078   16.2605   20.1107 C   0  0  0  0  0  0  0  0  0  0  0  0
    8.9842   17.3953   20.0305 C   0  0  0  0  0  0  0  0  0  0  0  0
    8.2805   17.7884   18.9339 C   0  0  0  0  0  0  0  0  0  0  0  0
    7.7023   19.0482   19.0035 C   0  0  0  0  0  0  0  0  0  0  0  0
    8.0493   19.6021   20.1849 C   0  0  0  0  0  0  0  0  0  0  0  0
    8.8159   18.5203   21.2364 S   0  0  0  0  0  0  0  0  0  0  0  0
   10.3272   15.8031   21.2251 N   0  0  0  0  0  0  0  0  0  0  0  0
    8.5615   12.1132   24.9570 C   0  0  0  0  0  0  0  0  0  0  0  0
    7.9207   12.8972   25.9327 C   0  0  0  0  0  0  0  0  0  0  0  0
    6.8767   12.3285   26.6642 C   0  0  0  0  0  0  0  0  0  0  0  0
    6.0214   13.3489   28.0074 Br  0  0  0  0  0  0  0  0  0  0  0  0
    6.4656   11.0190   26.4368 C   0  0  0  0  0  0  0  0  0  0  0  0
    7.0892   10.2355   25.4639 C   0  0  0  0  0  0  0  0  0  0  0  0
    8.1357   10.8036   24.7383 C   0  0  0  0  0  0  0  0  0  0  0  0
  1  2  1  0
  2  3  1  0
  3  4  2  0
  4  5  1  0
  5  6  2  0
  5  7  1  0
  7  8  1  0
  8  9  1  0
  9 10  2  0
 10 11  1  0
 11 12  1  0
 12 13  1  0
 13 14  2  0
 14 15  1  0
 15 16  2  0
 16 17  1  0
 12 18  2  0
  4 19  1  0
 19 20  2  0
 20 21  1  0
 21 22  1  0
 21 23  2  0
 23 24  1  0
 24 25  2  0
 25  2  1  0
 18  9  1  0
 25 19  1  0
 17 13  1  0
M  END
>  <energy_score>  (3600) 
-8.388389

>  <inchikey>  (3600) 
NTBJRVIQFRMSQP-UHFFFAOYSA-N

>  <smiles>  (3600) 
Cn1nc(C(=O)NCc2coc(-c3cccs3)n2)c2cc(Br)ccc21

>  <ref_pdb>  (3600) 
A0514a

>  <alias>  (3600) 
NTBJRVIQFRMSQP-UHFFFAOYSA-N-P177-P126-P177-601502

>  <HIPPO Pose ID>  (3600) 
503009

>  <name>  (3600) 
NTBJRVIQFRMSQP-UHFFFAOYSA-N-P177-P126-P177-601502

>  <HIPPO Compound ID>  (3600) 
299322

>  <ref_mols>  (3600) 
A3403a,A2290a

>  <distance_score>  (3600) 
0.744899

>  <inspiration_score>  (3600) 
None

$$$$
XROBYZCVCIAKRA-UHFFFAOYSA-N-P126-P126-P177-601502
     RDKit          3D

 25 28  0  0  0  0  0  0  0  0999 V2000
    9.3668    8.7381   23.1446 C   0  0  0  0  0  0  0  0  0  0  0  0
    9.2693   10.0021   23.8332 N   0  0  0  0  0  0  0  0  0  0  0  0
   10.1450   10.9627   23.5058 N   0  0  0  0  0  0  0  0  0  0  0  0
    9.8148   11.9991   24.2982 C   0  0  0  0  0  0  0  0  0  0  0  0
   10.6162   13.2247   24.2762 C   0  0  0  0  0  0  0  0  0  0  0  0
   10.5160   14.0552   25.0844 O   0  0  0  0  0  0  0  0  0  0  0  0
   11.4557   13.1784   23.0042 N   0  0  0  0  0  0  0  0  0  0  0  0
   12.2731   14.1666   22.4042 C   0  0  0  0  0  0  0  0  0  0  0  0
   11.5799   14.6047   21.1953 C   0  0  0  0  0  0  0  0  0  0  0  0
   11.8720   14.3676   19.8808 C   0  0  0  0  0  0  0  0  0  0  0  0
   10.9551   15.0088   19.1268 O   0  0  0  0  0  0  0  0  0  0  0  0
   10.1933   15.6894   20.0379 C   0  0  0  0  0  0  0  0  0  0  0  0
    9.3887   16.7854   19.6603 C   0  0  0  0  0  0  0  0  0  0  0  0
    9.2157   17.2419   18.3802 C   0  0  0  0  0  0  0  0  0  0  0  0
    8.2495   18.2574   18.3357 C   0  0  0  0  0  0  0  0  0  0  0  0
    7.8669   18.6832   19.5791 C   0  0  0  0  0  0  0  0  0  0  0  0
    8.5858   17.7501   20.7974 S   0  0  0  0  0  0  0  0  0  0  0  0
   10.4594   15.3787   21.2883 N   0  0  0  0  0  0  0  0  0  0  0  0
    8.6704   11.7207   25.0771 C   0  0  0  0  0  0  0  0  0  0  0  0
    7.8811   12.4388   25.9939 C   0  0  0  0  0  0  0  0  0  0  0  0
    6.8329   11.7774   26.6255 C   0  0  0  0  0  0  0  0  0  0  0  0
    6.0892   12.4353   27.5252 F   0  0  0  0  0  0  0  0  0  0  0  0
    6.5612   10.4410   26.3712 C   0  0  0  0  0  0  0  0  0  0  0  0
    7.3280    9.7237   25.4496 C   0  0  0  0  0  0  0  0  0  0  0  0
    8.3700   10.3895   24.7978 C   0  0  0  0  0  0  0  0  0  0  0  0
  1  2  1  0
  2  3  1  0
  3  4  2  0
  4  5  1  0
  5  6  2  0
  5  7  1  0
  7  8  1  0
  8  9  1  0
  9 10  2  0
 10 11  1  0
 11 12  1  0
 12 13  1  0
 13 14  2  0
 14 15  1  0
 15 16  2  0
 16 17  1  0
 12 18  2  0
  4 19  1  0
 19 20  2  0
 20 21  1  0
 21 22  1  0
 21 23  2  0
 23 24  1  0
 24 25  2  0
 25  2  1  0
 18  9  1  0
 25 19  1  0
 17 13  1  0
M  END
>  <energy_score>  (3601) 
-6.651458

>  <inchikey>  (3601) 
XROBYZCVCIAKRA-UHFFFAOYSA-N

>  <smiles>  (3601) 
Cn1nc(C(=O)NCc2coc(-c3cccs3)n2)c2cc(F)ccc21

>  <ref_pdb>  (3601) 
A0514a

>  <alias>  (3601) 
XROBYZCVCIAKRA-UHFFFAOYSA-N-P126-P126-P177-601502

>  <HIPPO Pose ID>  (3601) 
503012

>  <name>  (3601) 
XROBYZCVCIAKRA-UHFFFAOYSA-N-P126-P126-P177-601502

>  <HIPPO Compound ID>  (3601) 
299324

>  <ref_mols>  (3601) 
A3403a,A2290a

>  <distance_score>  (3601) 
1.035603

>  <inspiration_score>  (3601) 
None

$$$$
XROBYZCVCIAKRA-UHFFFAOYSA-N-P177-P126-P177-601502
     RDKit          3D

 25 28  0  0  0  0  0  0  0  0999 V2000
    8.9510    8.9892   23.1860 C   0  0  0  0  0  0  0  0  0  0  0  0
    8.9415   10.3143   23.7558 N   0  0  0  0  0  0  0  0  0  0  0  0
    9.8169   11.2084   23.2955 N   0  0  0  0  0  0  0  0  0  0  0  0
    9.6212   12.3076   24.0469 C   0  0  0  0  0  0  0  0  0  0  0  0
   10.4733   13.4884   23.8396 C   0  0  0  0  0  0  0  0  0  0  0  0
   10.5181   14.3824   24.5840 O   0  0  0  0  0  0  0  0  0  0  0  0
   11.1897   13.2707   22.5072 N   0  0  0  0  0  0  0  0  0  0  0  0
   12.0314   14.1316   21.7638 C   0  0  0  0  0  0  0  0  0  0  0  0
   11.2162   14.8639   20.8026 C   0  0  0  0  0  0  0  0  0  0  0  0
   11.1857   14.7647   19.4353 C   0  0  0  0  0  0  0  0  0  0  0  0
   10.2483   15.6226   18.9807 O   0  0  0  0  0  0  0  0  0  0  0  0
    9.8088   16.2600   20.1112 C   0  0  0  0  0  0  0  0  0  0  0  0
    8.9850   17.3947   20.0309 C   0  0  0  0  0  0  0  0  0  0  0  0
    8.2814   17.7876   18.9342 C   0  0  0  0  0  0  0  0  0  0  0  0
    7.7028   19.0473   19.0036 C   0  0  0  0  0  0  0  0  0  0  0  0
    8.0496   19.6015   20.1849 C   0  0  0  0  0  0  0  0  0  0  0  0
    8.8161   18.5199   21.2366 S   0  0  0  0  0  0  0  0  0  0  0  0
   10.3279   15.8022   21.2257 N   0  0  0  0  0  0  0  0  0  0  0  0
    8.5578   12.1189   24.9594 C   0  0  0  0  0  0  0  0  0  0  0  0
    7.9161   12.9054   25.9308 C   0  0  0  0  0  0  0  0  0  0  0  0
    6.8739   12.3370   26.6578 C   0  0  0  0  0  0  0  0  0  0  0  0
    6.2686   13.0616   27.6086 F   0  0  0  0  0  0  0  0  0  0  0  0
    6.4601   11.0306   26.4396 C   0  0  0  0  0  0  0  0  0  0  0  0
    7.0826   10.2416   25.4714 C   0  0  0  0  0  0  0  0  0  0  0  0
    8.1309   10.8078   24.7447 C   0  0  0  0  0  0  0  0  0  0  0  0
  1  2  1  0
  2  3  1  0
  3  4  2  0
  4  5  1  0
  5  6  2  0
  5  7  1  0
  7  8  1  0
  8  9  1  0
  9 10  2  0
 10 11  1  0
 11 12  1  0
 12 13  1  0
 13 14  2  0
 14 15  1  0
 15 16  2  0
 16 17  1  0
 12 18  2  0
  4 19  1  0
 19 20  2  0
 20 21  1  0
 21 22  1  0
 21 23  2  0
 23 24  1  0
 24 25  2  0
 25  2  1  0
 18  9  1  0
 25 19  1  0
 17 13  1  0
M  END
>  <energy_score>  (3602) 
-4.075846

>  <inchikey>  (3602) 
XROBYZCVCIAKRA-UHFFFAOYSA-N

>  <smiles>  (3602) 
Cn1nc(C(=O)NCc2coc(-c3cccs3)n2)c2cc(F)ccc21

>  <ref_pdb>  (3602) 
A0514a

>  <alias>  (3602) 
XROBYZCVCIAKRA-UHFFFAOYSA-N-P177-P126-P177-601502

>  <HIPPO Pose ID>  (3602) 
503013

>  <name>  (3602) 
XROBYZCVCIAKRA-UHFFFAOYSA-N-P177-P126-P177-601502

>  <HIPPO Compound ID>  (3602) 
299324

>  <ref_mols>  (3602) 
A3403a,A2290a

>  <distance_score>  (3602) 
0.747993

>  <inspiration_score>  (3602) 
None

$$$$
SBGDIGLWCCNIQC-UHFFFAOYSA-N-P126-P126-P177-601502
     RDKit          3D

 25 27  0  0  0  0  0  0  0  0999 V2000
   11.7310   14.0312   18.3261 C   0  0  0  0  0  0  0  0  0  0  0  0
   11.3121   15.2563   18.9826 C   0  0  0  0  0  0  0  0  0  0  0  0
   10.3750   15.1888   20.0680 C   0  0  0  0  0  0  0  0  0  0  0  0
    9.2566   15.9334   19.9629 O   0  0  0  0  0  0  0  0  0  0  0  0
    8.6779   15.7871   21.1753 C   0  0  0  0  0  0  0  0  0  0  0  0
    9.3195   14.9992   22.0054 N   0  0  0  0  0  0  0  0  0  0  0  0
   10.5003   14.7452   21.3517 C   0  0  0  0  0  0  0  0  0  0  0  0
   11.6710   14.1233   22.0207 C   0  0  0  0  0  0  0  0  0  0  0  0
   11.0711   13.1025   22.7821 N   0  0  0  0  0  0  0  0  0  0  0  0
   10.5505   13.1103   24.2130 C   0  0  0  0  0  0  0  0  0  0  0  0
   10.5991   13.9372   25.0294 O   0  0  0  0  0  0  0  0  0  0  0  0
    9.8420   11.8490   24.3710 C   0  0  0  0  0  0  0  0  0  0  0  0
   10.1674   10.8022   23.5934 N   0  0  0  0  0  0  0  0  0  0  0  0
    9.2619    9.8684   23.9012 N   0  0  0  0  0  0  0  0  0  0  0  0
    9.3117    8.6321   23.1627 C   0  0  0  0  0  0  0  0  0  0  0  0
    8.3612   10.2770   24.8564 C   0  0  0  0  0  0  0  0  0  0  0  0
    7.2767    9.6513   25.4712 C   0  0  0  0  0  0  0  0  0  0  0  0
    6.5006   10.3865   26.3729 C   0  0  0  0  0  0  0  0  0  0  0  0
    6.7989   11.7209   26.6529 C   0  0  0  0  0  0  0  0  0  0  0  0
    6.0000   12.5125   27.6191 C   0  0  0  0  0  0  0  0  0  0  0  0
    6.4438   13.4702   28.2328 O   0  0  0  0  0  0  0  0  0  0  0  0
    4.7401   12.0167   27.7107 O   0  0  0  0  0  0  0  0  0  0  0  0
    3.8953   12.7559   28.5922 C   0  0  0  0  0  0  0  0  0  0  0  0
    7.9039   12.3362   26.0490 C   0  0  0  0  0  0  0  0  0  0  0  0
    8.6996   11.5923   25.1565 C   0  0  0  0  0  0  0  0  0  0  0  0
  1  2  1  0
  2  3  1  0
  3  4  1  0
  4  5  1  0
  5  6  2  0
  6  7  1  0
  7  8  1  0
  8  9  1  0
  9 10  1  0
 10 11  2  0
 10 12  1  0
 12 13  2  0
 13 14  1  0
 14 15  1  0
 14 16  1  0
 16 17  2  0
 17 18  1  0
 18 19  2  0
 19 20  1  0
 20 21  2  0
 20 22  1  0
 22 23  1  0
 19 24  1  0
 24 25  2  0
  7  3  2  0
 25 12  1  0
 25 16  1  0
M  END
>  <energy_score>  (3603) 
-26.07434

>  <inchikey>  (3603) 
SBGDIGLWCCNIQC-UHFFFAOYSA-N

>  <smiles>  (3603) 
CCc1ocnc1CNC(=O)c1nn(C)c2ccc(C(=O)OC)cc12

>  <ref_pdb>  (3603) 
A0514a

>  <alias>  (3603) 
SBGDIGLWCCNIQC-UHFFFAOYSA-N-P126-P126-P177-601502

>  <HIPPO Pose ID>  (3603) 
503016

>  <name>  (3603) 
SBGDIGLWCCNIQC-UHFFFAOYSA-N-P126-P126-P177-601502

>  <HIPPO Compound ID>  (3603) 
299326

>  <ref_mols>  (3603) 
A3403a,A2290a

>  <distance_score>  (3603) 
1.114566

>  <inspiration_score>  (3603) 
None

$$$$
SBGDIGLWCCNIQC-UHFFFAOYSA-N-P177-P126-P177-601502
     RDKit          3D

 25 27  0  0  0  0  0  0  0  0999 V2000
   11.3250   14.2191   18.2599 C   0  0  0  0  0  0  0  0  0  0  0  0
   11.2767   15.5645   18.8307 C   0  0  0  0  0  0  0  0  0  0  0  0
   10.3304   15.7481   19.9096 C   0  0  0  0  0  0  0  0  0  0  0  0
    9.3169   16.6293   19.7453 O   0  0  0  0  0  0  0  0  0  0  0  0
    8.7619   16.6858   20.9861 C   0  0  0  0  0  0  0  0  0  0  0  0
    9.3077   15.8939   21.8806 N   0  0  0  0  0  0  0  0  0  0  0  0
   10.3849   15.3637   21.2216 C   0  0  0  0  0  0  0  0  0  0  0  0
   11.4612   14.6072   21.8948 C   0  0  0  0  0  0  0  0  0  0  0  0
   10.8407   13.5717   22.6228 N   0  0  0  0  0  0  0  0  0  0  0  0
   10.3343   13.5365   24.0601 C   0  0  0  0  0  0  0  0  0  0  0  0
   10.4131   14.3290   24.9077 O   0  0  0  0  0  0  0  0  0  0  0  0
    9.5831   12.2915   24.2061 C   0  0  0  0  0  0  0  0  0  0  0  0
    9.8395   11.2419   23.4055 N   0  0  0  0  0  0  0  0  0  0  0  0
    8.9698   10.3040   23.7927 N   0  0  0  0  0  0  0  0  0  0  0  0
    9.0152    9.0121   23.1511 C   0  0  0  0  0  0  0  0  0  0  0  0
    8.1211   10.7294   24.7835 C   0  0  0  0  0  0  0  0  0  0  0  0
    7.0651   10.1135   25.4474 C   0  0  0  0  0  0  0  0  0  0  0  0
    6.3848   10.8362   26.4317 C   0  0  0  0  0  0  0  0  0  0  0  0
    6.7482   12.1477   26.7420 C   0  0  0  0  0  0  0  0  0  0  0  0
    6.0612   12.9159   27.8096 C   0  0  0  0  0  0  0  0  0  0  0  0
    6.5699   13.8590   28.3937 O   0  0  0  0  0  0  0  0  0  0  0  0
    4.8186   12.4154   28.0296 O   0  0  0  0  0  0  0  0  0  0  0  0
    4.0797   13.1329   29.0187 C   0  0  0  0  0  0  0  0  0  0  0  0
    7.8175   12.7566   26.0711 C   0  0  0  0  0  0  0  0  0  0  0  0
    8.5090   12.0301   25.0837 C   0  0  0  0  0  0  0  0  0  0  0  0
  1  2  1  0
  2  3  1  0
  3  4  1  0
  4  5  1  0
  5  6  2  0
  6  7  1  0
  7  8  1  0
  8  9  1  0
  9 10  1  0
 10 11  2  0
 10 12  1  0
 12 13  2  0
 13 14  1  0
 14 15  1  0
 14 16  1  0
 16 17  2  0
 17 18  1  0
 18 19  2  0
 19 20  1  0
 20 21  2  0
 20 22  1  0
 22 23  1  0
 19 24  1  0
 24 25  2  0
  7  3  2  0
 25 12  1  0
 25 16  1  0
M  END
>  <energy_score>  (3604) 
-36.256998

>  <inchikey>  (3604) 
SBGDIGLWCCNIQC-UHFFFAOYSA-N

>  <smiles>  (3604) 
CCc1ocnc1CNC(=O)c1nn(C)c2ccc(C(=O)OC)cc12

>  <ref_pdb>  (3604) 
A0514a

>  <alias>  (3604) 
SBGDIGLWCCNIQC-UHFFFAOYSA-N-P177-P126-P177-601502

>  <HIPPO Pose ID>  (3604) 
503017

>  <name>  (3604) 
SBGDIGLWCCNIQC-UHFFFAOYSA-N-P177-P126-P177-601502

>  <HIPPO Compound ID>  (3604) 
299326

>  <ref_mols>  (3604) 
A3403a,A2290a

>  <distance_score>  (3604) 
1.0037

>  <inspiration_score>  (3604) 
None

$$$$
AODLDJIKCKWMCG-UHFFFAOYSA-N-P126-P126-P177-601502
     RDKit          3D

 25 28  0  0  0  0  0  0  0  0999 V2000
    5.4372   14.5687   28.4266 C   0  0  0  0  0  0  0  0  0  0  0  0
    6.2929   13.7860   27.5936 O   0  0  0  0  0  0  0  0  0  0  0  0
    5.9010   12.4959   27.4501 C   0  0  0  0  0  0  0  0  0  0  0  0
    4.9546   11.9693   28.0146 O   0  0  0  0  0  0  0  0  0  0  0  0
    6.8103   11.7755   26.5179 C   0  0  0  0  0  0  0  0  0  0  0  0
    6.6296   10.3996   26.3503 C   0  0  0  0  0  0  0  0  0  0  0  0
    7.4194    9.6673   25.4570 C   0  0  0  0  0  0  0  0  0  0  0  0
    8.3951   10.3453   24.7260 C   0  0  0  0  0  0  0  0  0  0  0  0
    8.6080   11.7089   24.8918 C   0  0  0  0  0  0  0  0  0  0  0  0
    7.8120   12.4409   25.7949 C   0  0  0  0  0  0  0  0  0  0  0  0
    9.6276   12.0229   23.9680 C   0  0  0  0  0  0  0  0  0  0  0  0
   10.1931   13.3332   23.6811 C   0  0  0  0  0  0  0  0  0  0  0  0
   10.2554   14.1763   24.4826 O   0  0  0  0  0  0  0  0  0  0  0  0
   10.5922   13.3367   22.2010 N   0  0  0  0  0  0  0  0  0  0  0  0
   11.2244   14.3209   21.4311 C   0  0  0  0  0  0  0  0  0  0  0  0
   10.2915   15.2743   20.6396 C   0  0  0  0  0  0  0  0  0  0  0  0
   10.3035   15.4704   19.2856 C   0  0  0  0  0  0  0  0  0  0  0  0
    9.5473   16.5699   19.0139 O   0  0  0  0  0  0  0  0  0  0  0  0
    9.0875   16.9482   20.2378 C   0  0  0  0  0  0  0  0  0  0  0  0
    9.4513   16.1652   21.2246 N   0  0  0  0  0  0  0  0  0  0  0  0
   12.5241   13.9397   20.7793 C   0  0  0  0  0  0  0  0  0  0  0  0
   12.5238   14.8853   21.9232 C   0  0  0  0  0  0  0  0  0  0  0  0
   10.0192   10.9508   23.2615 N   0  0  0  0  0  0  0  0  0  0  0  0
    9.2690    9.9489   23.7411 N   0  0  0  0  0  0  0  0  0  0  0  0
    9.3908    8.6572   23.1118 C   0  0  0  0  0  0  0  0  0  0  0  0
  1  2  1  0
  2  3  1  0
  3  4  2  0
  3  5  1  0
  5  6  2  0
  6  7  1  0
  7  8  2  0
  8  9  1  0
  9 10  2  0
  9 11  1  0
 11 12  1  0
 12 13  2  0
 12 14  1  0
 14 15  1  0
 15 16  1  0
 16 17  2  0
 17 18  1  0
 18 19  1  0
 19 20  2  0
 15 21  1  0
 21 22  1  0
 11 23  2  0
 23 24  1  0
 24 25  1  0
 10  5  1  0
 22 15  1  0
 24  8  1  0
 20 16  1  0
M  END
>  <energy_score>  (3605) 
-19.462889

>  <inchikey>  (3605) 
AODLDJIKCKWMCG-UHFFFAOYSA-N

>  <smiles>  (3605) 
COC(=O)c1ccc2c(c1)c(C(=O)NC1(c3cocn3)CC1)nn2C

>  <ref_pdb>  (3605) 
A0514a

>  <alias>  (3605) 
AODLDJIKCKWMCG-UHFFFAOYSA-N-P126-P126-P177-601502

>  <HIPPO Pose ID>  (3605) 
503022

>  <name>  (3605) 
AODLDJIKCKWMCG-UHFFFAOYSA-N-P126-P126-P177-601502

>  <HIPPO Compound ID>  (3605) 
299329

>  <ref_mols>  (3605) 
A3403a,A2290a

>  <distance_score>  (3605) 
0.790797

>  <inspiration_score>  (3605) 
None

$$$$
AODLDJIKCKWMCG-UHFFFAOYSA-N-P177-P126-P177-601502
     RDKit          3D

 25 28  0  0  0  0  0  0  0  0999 V2000
    5.6475   15.1739   28.4696 C   0  0  0  0  0  0  0  0  0  0  0  0
    6.3912   14.3643   27.5584 O   0  0  0  0  0  0  0  0  0  0  0  0
    6.0182   13.0617   27.5398 C   0  0  0  0  0  0  0  0  0  0  0  0
    5.1707   12.5490   28.2547 O   0  0  0  0  0  0  0  0  0  0  0  0
    6.8010   12.3048   26.5254 C   0  0  0  0  0  0  0  0  0  0  0  0
    6.5100   10.9475   26.3542 C   0  0  0  0  0  0  0  0  0  0  0  0
    7.1897   10.1716   25.4113 C   0  0  0  0  0  0  0  0  0  0  0  0
    8.1762   10.7889   24.6455 C   0  0  0  0  0  0  0  0  0  0  0  0
    8.4907   12.1364   24.7933 C   0  0  0  0  0  0  0  0  0  0  0  0
    7.7993   12.9105   25.7460 C   0  0  0  0  0  0  0  0  0  0  0  0
    9.4787   12.3886   23.8096 C   0  0  0  0  0  0  0  0  0  0  0  0
   10.1123   13.6695   23.4706 C   0  0  0  0  0  0  0  0  0  0  0  0
   10.1738   14.5519   24.2314 O   0  0  0  0  0  0  0  0  0  0  0  0
   10.5848   13.5773   22.0092 N   0  0  0  0  0  0  0  0  0  0  0  0
   11.1330   14.5547   21.1647 C   0  0  0  0  0  0  0  0  0  0  0  0
   10.1473   15.6120   20.6532 C   0  0  0  0  0  0  0  0  0  0  0  0
    9.9728   15.9412   19.3394 C   0  0  0  0  0  0  0  0  0  0  0  0
    9.1988   17.0556   19.3021 O   0  0  0  0  0  0  0  0  0  0  0  0
    8.8984   17.2854   20.6101 C   0  0  0  0  0  0  0  0  0  0  0  0
    9.4068   16.4198   21.4527 N   0  0  0  0  0  0  0  0  0  0  0  0
   12.2512   14.1825   20.2201 C   0  0  0  0  0  0  0  0  0  0  0  0
   12.5299   14.9992   21.4331 C   0  0  0  0  0  0  0  0  0  0  0  0
    9.7662   11.2769   23.1111 N   0  0  0  0  0  0  0  0  0  0  0  0
    8.9999   10.3238   23.6529 N   0  0  0  0  0  0  0  0  0  0  0  0
    9.0770    8.9828   23.1241 C   0  0  0  0  0  0  0  0  0  0  0  0
  1  2  1  0
  2  3  1  0
  3  4  2  0
  3  5  1  0
  5  6  2  0
  6  7  1  0
  7  8  2  0
  8  9  1  0
  9 10  2  0
  9 11  1  0
 11 12  1  0
 12 13  2  0
 12 14  1  0
 14 15  1  0
 15 16  1  0
 16 17  2  0
 17 18  1  0
 18 19  1  0
 19 20  2  0
 15 21  1  0
 21 22  1  0
 11 23  2  0
 23 24  1  0
 24 25  1  0
 10  5  1  0
 22 15  1  0
 24  8  1  0
 20 16  1  0
M  END
>  <energy_score>  (3606) 
-20.189263

>  <inchikey>  (3606) 
AODLDJIKCKWMCG-UHFFFAOYSA-N

>  <smiles>  (3606) 
COC(=O)c1ccc2c(c1)c(C(=O)NC1(c3cocn3)CC1)nn2C

>  <ref_pdb>  (3606) 
A0514a

>  <alias>  (3606) 
AODLDJIKCKWMCG-UHFFFAOYSA-N-P177-P126-P177-601502

>  <HIPPO Pose ID>  (3606) 
503023

>  <name>  (3606) 
AODLDJIKCKWMCG-UHFFFAOYSA-N-P177-P126-P177-601502

>  <HIPPO Compound ID>  (3606) 
299329

>  <ref_mols>  (3606) 
A3403a,A2290a

>  <distance_score>  (3606) 
0.869125

>  <inspiration_score>  (3606) 
None

$$$$
APEOUTSHXYILCK-UHFFFAOYSA-N-P126-P126-P177-601502
     RDKit          3D

 25 27  0  0  0  0  0  0  0  0999 V2000
    8.5824   18.7733   20.6757 C   0  0  0  0  0  0  0  0  0  0  0  0
    8.3983   17.3817   20.2279 C   0  0  0  0  0  0  0  0  0  0  0  0
    9.5353   16.4343   20.2575 C   0  0  0  0  0  0  0  0  0  0  0  0
   10.1323   15.8745   21.2886 N   0  0  0  0  0  0  0  0  0  0  0  0
   11.0262   14.9877   20.7370 C   0  0  0  0  0  0  0  0  0  0  0  0
   12.0251   14.2771   21.5646 C   0  0  0  0  0  0  0  0  0  0  0  0
   11.3481   13.2568   22.2971 N   0  0  0  0  0  0  0  0  0  0  0  0
   10.7625   13.2690   23.7134 C   0  0  0  0  0  0  0  0  0  0  0  0
   10.8048   14.0874   24.5413 O   0  0  0  0  0  0  0  0  0  0  0  0
    9.9917   12.0296   23.9012 C   0  0  0  0  0  0  0  0  0  0  0  0
   10.2610   10.9437   23.1590 N   0  0  0  0  0  0  0  0  0  0  0  0
    9.4298   10.0000   23.6223 N   0  0  0  0  0  0  0  0  0  0  0  0
    9.4944    8.6859   23.0304 C   0  0  0  0  0  0  0  0  0  0  0  0
    8.5816   10.4481   24.6050 C   0  0  0  0  0  0  0  0  0  0  0  0
    7.5644    9.8214   25.3334 C   0  0  0  0  0  0  0  0  0  0  0  0
    6.8407   10.5910   26.2490 C   0  0  0  0  0  0  0  0  0  0  0  0
    7.1392   11.9433   26.4420 C   0  0  0  0  0  0  0  0  0  0  0  0
    6.4102   12.7648   27.4382 C   0  0  0  0  0  0  0  0  0  0  0  0
    6.8925   13.7463   27.9807 O   0  0  0  0  0  0  0  0  0  0  0  0
    5.1675   12.2622   27.6482 O   0  0  0  0  0  0  0  0  0  0  0  0
    4.3825   13.0356   28.5557 C   0  0  0  0  0  0  0  0  0  0  0  0
    8.1821   12.5515   25.7249 C   0  0  0  0  0  0  0  0  0  0  0  0
    8.9122   11.7881   24.7935 C   0  0  0  0  0  0  0  0  0  0  0  0
   10.8525   14.9740   19.3748 C   0  0  0  0  0  0  0  0  0  0  0  0
    9.8988   15.8933   19.0581 O   0  0  0  0  0  0  0  0  0  0  0  0
  1  2  1  0
  2  3  1  0
  3  4  2  0
  4  5  1  0
  5  6  1  0
  6  7  1  0
  7  8  1  0
  8  9  2  0
  8 10  1  0
 10 11  2  0
 11 12  1  0
 12 13  1  0
 12 14  1  0
 14 15  2  0
 15 16  1  0
 16 17  2  0
 17 18  1  0
 18 19  2  0
 18 20  1  0
 20 21  1  0
 17 22  1  0
 22 23  2  0
  5 24  2  0
 24 25  1  0
 25  3  1  0
 23 10  1  0
 23 14  1  0
M  END
>  <energy_score>  (3607) 
-15.132575

>  <inchikey>  (3607) 
APEOUTSHXYILCK-UHFFFAOYSA-N

>  <smiles>  (3607) 
CCc1nc(CNC(=O)c2nn(C)c3ccc(C(=O)OC)cc23)co1

>  <ref_pdb>  (3607) 
A0514a

>  <alias>  (3607) 
APEOUTSHXYILCK-UHFFFAOYSA-N-P126-P126-P177-601502

>  <HIPPO Pose ID>  (3607) 
503024

>  <name>  (3607) 
APEOUTSHXYILCK-UHFFFAOYSA-N-P126-P126-P177-601502

>  <HIPPO Compound ID>  (3607) 
299330

>  <ref_mols>  (3607) 
A3403a,A2290a

>  <distance_score>  (3607) 
0.671656

>  <inspiration_score>  (3607) 
None

$$$$
APEOUTSHXYILCK-UHFFFAOYSA-N-P177-P126-P177-601502
     RDKit          3D

 25 27  0  0  0  0  0  0  0  0999 V2000
    8.7686   18.6198   21.1807 C   0  0  0  0  0  0  0  0  0  0  0  0
    8.5279   17.5555   20.1714 C   0  0  0  0  0  0  0  0  0  0  0  0
    9.5589   16.5127   20.1871 C   0  0  0  0  0  0  0  0  0  0  0  0
   10.1698   15.9879   21.2217 N   0  0  0  0  0  0  0  0  0  0  0  0
   11.0384   15.0919   20.6654 C   0  0  0  0  0  0  0  0  0  0  0  0
   11.9556   14.3201   21.5139 C   0  0  0  0  0  0  0  0  0  0  0  0
   11.1886   13.4015   22.2882 N   0  0  0  0  0  0  0  0  0  0  0  0
   10.5336   13.5627   23.6658 C   0  0  0  0  0  0  0  0  0  0  0  0
   10.5788   14.4454   24.4258 O   0  0  0  0  0  0  0  0  0  0  0  0
    9.7069   12.3612   23.9076 C   0  0  0  0  0  0  0  0  0  0  0  0
    9.8848   11.2566   23.1624 N   0  0  0  0  0  0  0  0  0  0  0  0
    9.0265   10.3596   23.6533 N   0  0  0  0  0  0  0  0  0  0  0  0
    9.0338    9.0224   23.1094 C   0  0  0  0  0  0  0  0  0  0  0  0
    8.2280   10.8582   24.6491 C   0  0  0  0  0  0  0  0  0  0  0  0
    7.1855   10.2941   25.3865 C   0  0  0  0  0  0  0  0  0  0  0  0
    6.5720   11.0849   26.3621 C   0  0  0  0  0  0  0  0  0  0  0  0
    6.9927   12.3985   26.5946 C   0  0  0  0  0  0  0  0  0  0  0  0
    6.3869   13.2373   27.6596 C   0  0  0  0  0  0  0  0  0  0  0  0
    6.9413   14.2104   28.1453 O   0  0  0  0  0  0  0  0  0  0  0  0
    5.1634   12.7616   28.0033 O   0  0  0  0  0  0  0  0  0  0  0  0
    4.5015   13.5448   28.9970 C   0  0  0  0  0  0  0  0  0  0  0  0
    8.0431   12.9497   25.8433 C   0  0  0  0  0  0  0  0  0  0  0  0
    8.6650   12.1666   24.8533 C   0  0  0  0  0  0  0  0  0  0  0  0
   10.8884   15.0871   19.2987 C   0  0  0  0  0  0  0  0  0  0  0  0
    9.9243   15.9906   18.9809 O   0  0  0  0  0  0  0  0  0  0  0  0
  1  2  1  0
  2  3  1  0
  3  4  2  0
  4  5  1  0
  5  6  1  0
  6  7  1  0
  7  8  1  0
  8  9  2  0
  8 10  1  0
 10 11  2  0
 11 12  1  0
 12 13  1  0
 12 14  1  0
 14 15  2  0
 15 16  1  0
 16 17  2  0
 17 18  1  0
 18 19  2  0
 18 20  1  0
 20 21  1  0
 17 22  1  0
 22 23  2  0
  5 24  2  0
 24 25  1  0
 25  3  1  0
 23 10  1  0
 23 14  1  0
M  END
>  <energy_score>  (3608) 
-18.890603

>  <inchikey>  (3608) 
APEOUTSHXYILCK-UHFFFAOYSA-N

>  <smiles>  (3608) 
CCc1nc(CNC(=O)c2nn(C)c3ccc(C(=O)OC)cc23)co1

>  <ref_pdb>  (3608) 
A0514a

>  <alias>  (3608) 
APEOUTSHXYILCK-UHFFFAOYSA-N-P177-P126-P177-601502

>  <HIPPO Pose ID>  (3608) 
503025

>  <name>  (3608) 
APEOUTSHXYILCK-UHFFFAOYSA-N-P177-P126-P177-601502

>  <HIPPO Compound ID>  (3608) 
299330

>  <ref_mols>  (3608) 
A3403a,A2290a

>  <distance_score>  (3608) 
0.702481

>  <inspiration_score>  (3608) 
None

$$$$
GUVSWFCWPXNRTF-UHFFFAOYSA-N-P126-P126-P177-601502
     RDKit          3D

 26 29  0  0  0  0  0  0  0  0999 V2000
    9.3614    8.7046   23.1509 C   0  0  0  0  0  0  0  0  0  0  0  0
    9.2697    9.9725   23.8315 N   0  0  0  0  0  0  0  0  0  0  0  0
   10.1393   10.9287   23.4845 N   0  0  0  0  0  0  0  0  0  0  0  0
    9.8171   11.9737   24.2696 C   0  0  0  0  0  0  0  0  0  0  0  0
   10.6257   13.1931   24.2285 C   0  0  0  0  0  0  0  0  0  0  0  0
   10.5772   14.0141   25.0507 O   0  0  0  0  0  0  0  0  0  0  0  0
   11.4375   13.1306   22.9402 N   0  0  0  0  0  0  0  0  0  0  0  0
   12.2849   14.0914   22.3392 C   0  0  0  0  0  0  0  0  0  0  0  0
   11.5652   14.5902   21.1705 C   0  0  0  0  0  0  0  0  0  0  0  0
   11.8151   14.4015   19.8375 C   0  0  0  0  0  0  0  0  0  0  0  0
   10.8826   15.0820   19.1373 O   0  0  0  0  0  0  0  0  0  0  0  0
   10.1584   15.7163   20.1007 C   0  0  0  0  0  0  0  0  0  0  0  0
    9.3639   16.8246   19.6688 C   0  0  0  0  0  0  0  0  0  0  0  0
    9.1788   17.1157   18.3316 C   0  0  0  0  0  0  0  0  0  0  0  0
    8.2798   18.0847   17.9680 C   0  0  0  0  0  0  0  0  0  0  0  0
    7.6950   18.8755   18.9336 C   0  0  0  0  0  0  0  0  0  0  0  0
    8.0521   18.7423   20.2419 C   0  0  0  0  0  0  0  0  0  0  0  0
    8.8029   17.6627   20.6163 C   0  0  0  0  0  0  0  0  0  0  0  0
   10.4552   15.3695   21.3316 N   0  0  0  0  0  0  0  0  0  0  0  0
    8.6766   11.7053   25.0572 C   0  0  0  0  0  0  0  0  0  0  0  0
    7.8911   12.4360   25.9685 C   0  0  0  0  0  0  0  0  0  0  0  0
    6.8374   11.7865   26.6113 C   0  0  0  0  0  0  0  0  0  0  0  0
    5.7778   12.7361   27.8565 Br  0  0  0  0  0  0  0  0  0  0  0  0
    6.5665   10.4437   26.3686 C   0  0  0  0  0  0  0  0  0  0  0  0
    7.3320    9.7164   25.4529 C   0  0  0  0  0  0  0  0  0  0  0  0
    8.3728   10.3726   24.7924 C   0  0  0  0  0  0  0  0  0  0  0  0
  1  2  1  0
  2  3  1  0
  3  4  2  0
  4  5  1  0
  5  6  2  0
  5  7  1  0
  7  8  1  0
  8  9  1  0
  9 10  2  0
 10 11  1  0
 11 12  1  0
 12 13  1  0
 13 14  2  0
 14 15  1  0
 15 16  2  0
 16 17  1  0
 17 18  2  0
 12 19  2  0
  4 20  1  0
 20 21  2  0
 21 22  1  0
 22 23  1  0
 22 24  2  0
 24 25  1  0
 25 26  2  0
 26  2  1  0
 19  9  1  0
 26 20  1  0
 18 13  1  0
M  END
>  <energy_score>  (3609) 
-3.336928

>  <inchikey>  (3609) 
GUVSWFCWPXNRTF-UHFFFAOYSA-N

>  <smiles>  (3609) 
Cn1nc(C(=O)NCc2coc(-c3ccccc3)n2)c2cc(Br)ccc21

>  <ref_pdb>  (3609) 
A0514a

>  <alias>  (3609) 
GUVSWFCWPXNRTF-UHFFFAOYSA-N-P126-P126-P177-601502

>  <HIPPO Pose ID>  (3609) 
503032

>  <name>  (3609) 
GUVSWFCWPXNRTF-UHFFFAOYSA-N-P126-P126-P177-601502

>  <HIPPO Compound ID>  (3609) 
299334

>  <ref_mols>  (3609) 
A3403a,A2290a

>  <distance_score>  (3609) 
1.00996

>  <inspiration_score>  (3609) 
None

$$$$
ASQZHKZZURPUDW-UHFFFAOYSA-N-P126-P126-P177-601502
     RDKit          3D

 26 28  0  0  0  0  0  0  0  0999 V2000
    7.9668   19.0572   19.5310 C   0  0  0  0  0  0  0  0  0  0  0  0
    8.3036   17.6749   19.3980 N   0  0  0  0  0  0  0  0  0  0  0  0
    8.9430   17.3992   18.1307 C   0  0  0  0  0  0  0  0  0  0  0  0
    8.8728   17.1514   20.6335 C   0  0  0  0  0  0  0  0  0  0  0  0
    9.8069   15.9968   20.5856 C   0  0  0  0  0  0  0  0  0  0  0  0
   10.4477   15.4717   21.6055 N   0  0  0  0  0  0  0  0  0  0  0  0
   11.3716   14.6477   21.0267 C   0  0  0  0  0  0  0  0  0  0  0  0
   12.3083   13.8889   21.8608 C   0  0  0  0  0  0  0  0  0  0  0  0
   11.5060   12.9697   22.5877 N   0  0  0  0  0  0  0  0  0  0  0  0
   10.8101   13.1120   23.9420 C   0  0  0  0  0  0  0  0  0  0  0  0
   10.8424   13.9771   24.7207 O   0  0  0  0  0  0  0  0  0  0  0  0
    9.9643   11.9246   24.1003 C   0  0  0  0  0  0  0  0  0  0  0  0
   10.2348   10.8275   23.3739 N   0  0  0  0  0  0  0  0  0  0  0  0
    9.3321    9.9265   23.7679 N   0  0  0  0  0  0  0  0  0  0  0  0
    9.3542    8.6384   23.1221 C   0  0  0  0  0  0  0  0  0  0  0  0
    8.4617   10.4028   24.7188 C   0  0  0  0  0  0  0  0  0  0  0  0
    7.3967    9.8099   25.4059 C   0  0  0  0  0  0  0  0  0  0  0  0
    6.6462   10.6076   26.2725 C   0  0  0  0  0  0  0  0  0  0  0  0
    6.9694   11.9568   26.4450 C   0  0  0  0  0  0  0  0  0  0  0  0
    6.1690   12.7691   27.3629 N   0  0  0  0  0  0  0  0  0  0  0  0
    5.0217   12.3792   27.6275 O   0  0  0  0  0  0  0  0  0  0  0  0
    6.7064   13.7708   27.8568 O   0  0  0  0  0  0  0  0  0  0  0  0
    8.0623   12.5413   25.7869 C   0  0  0  0  0  0  0  0  0  0  0  0
    8.8221   11.7361   24.9164 C   0  0  0  0  0  0  0  0  0  0  0  0
   11.1983   14.6411   19.6676 C   0  0  0  0  0  0  0  0  0  0  0  0
   10.1746   15.4736   19.3838 O   0  0  0  0  0  0  0  0  0  0  0  0
  1  2  1  0
  2  3  1  0
  2  4  1  0
  4  5  1  0
  5  6  2  0
  6  7  1  0
  7  8  1  0
  8  9  1  0
  9 10  1  0
 10 11  2  0
 10 12  1  0
 12 13  2  0
 13 14  1  0
 14 15  1  0
 14 16  1  0
 16 17  2  0
 17 18  1  0
 18 19  2  0
 19 20  1  0
 20 21  2  0
 20 22  1  0
 19 23  1  0
 23 24  2  0
  7 25  2  0
 25 26  1  0
 26  5  1  0
 24 12  1  0
 24 16  1  0
M  CHG  2  20   1  22  -1
M  END
>  <energy_score>  (3610) 
-16.350143

>  <inchikey>  (3610) 
ASQZHKZZURPUDW-UHFFFAOYSA-N

>  <smiles>  (3610) 
CN(C)Cc1nc(CNC(=O)c2nn(C)c3ccc([N+](=O)[O-])cc23)co1

>  <ref_pdb>  (3610) 
A0514a

>  <alias>  (3610) 
ASQZHKZZURPUDW-UHFFFAOYSA-N-P126-P126-P177-601502

>  <HIPPO Pose ID>  (3610) 
503038

>  <name>  (3610) 
ASQZHKZZURPUDW-UHFFFAOYSA-N-P126-P126-P177-601502

>  <HIPPO Compound ID>  (3610) 
299337

>  <ref_mols>  (3610) 
A3403a,A2290a

>  <distance_score>  (3610) 
0.914272

>  <inspiration_score>  (3610) 
None

$$$$
HERFLEJNIDWHEU-UHFFFAOYSA-N-P126-P126-P177-601502
     RDKit          3D

 26 28  0  0  0  0  0  0  0  0999 V2000
   11.9444   14.2829   18.5801 C   0  0  0  0  0  0  0  0  0  0  0  0
   11.0536   14.6758   19.6407 C   0  0  0  0  0  0  0  0  0  0  0  0
    9.9232   15.2581   19.2036 O   0  0  0  0  0  0  0  0  0  0  0  0
    9.4555   15.8458   20.3181 C   0  0  0  0  0  0  0  0  0  0  0  0
    9.2382   17.2793   20.1006 C   0  0  0  0  0  0  0  0  0  0  0  0
    8.0838   17.8814   20.7775 C   0  0  0  0  0  0  0  0  0  0  0  0
    9.2837   17.7198   18.6390 C   0  0  0  0  0  0  0  0  0  0  0  0
    9.9149   15.3218   21.4373 N   0  0  0  0  0  0  0  0  0  0  0  0
   11.0523   14.6816   21.0095 C   0  0  0  0  0  0  0  0  0  0  0  0
   12.0414   14.1448   21.9596 C   0  0  0  0  0  0  0  0  0  0  0  0
   11.3373   13.1447   22.6764 N   0  0  0  0  0  0  0  0  0  0  0  0
   10.6926   13.1831   24.0588 C   0  0  0  0  0  0  0  0  0  0  0  0
   10.6980   14.0159   24.8715 O   0  0  0  0  0  0  0  0  0  0  0  0
    9.9154   11.9497   24.1898 C   0  0  0  0  0  0  0  0  0  0  0  0
   10.2409   10.8748   23.4524 N   0  0  0  0  0  0  0  0  0  0  0  0
    9.3429    9.9447   23.7988 N   0  0  0  0  0  0  0  0  0  0  0  0
    9.3953    8.6748   23.1169 C   0  0  0  0  0  0  0  0  0  0  0  0
    8.4471   10.3769   24.7484 C   0  0  0  0  0  0  0  0  0  0  0  0
    7.3856    9.7458   25.4044 C   0  0  0  0  0  0  0  0  0  0  0  0
    6.5977   10.5054   26.2726 C   0  0  0  0  0  0  0  0  0  0  0  0
    6.8803   11.8586   26.4753 C   0  0  0  0  0  0  0  0  0  0  0  0
    6.0400   12.6334   27.3886 N   0  0  0  0  0  0  0  0  0  0  0  0
    6.5535   13.6185   27.9387 O   0  0  0  0  0  0  0  0  0  0  0  0
    4.8845   12.2318   27.5918 O   0  0  0  0  0  0  0  0  0  0  0  0
    7.9693   12.4829   25.8501 C   0  0  0  0  0  0  0  0  0  0  0  0
    8.7675   11.7128   24.9821 C   0  0  0  0  0  0  0  0  0  0  0  0
  1  2  1  0
  2  3  1  0
  3  4  1  0
  4  5  1  0
  5  6  1  0
  5  7  1  0
  4  8  2  0
  8  9  1  0
  9 10  1  0
 10 11  1  0
 11 12  1  0
 12 13  2  0
 12 14  1  0
 14 15  2  0
 15 16  1  0
 16 17  1  0
 16 18  1  0
 18 19  2  0
 19 20  1  0
 20 21  2  0
 21 22  1  0
 22 23  2  0
 22 24  1  0
 21 25  1  0
 25 26  2  0
  9  2  2  0
 26 14  1  0
 26 18  1  0
M  CHG  2  22   1  24  -1
M  END
>  <energy_score>  (3611) 
-31.026111

>  <inchikey>  (3611) 
HERFLEJNIDWHEU-UHFFFAOYSA-N

>  <smiles>  (3611) 
Cc1oc(C(C)C)nc1CNC(=O)c1nn(C)c2ccc([N+](=O)[O-])cc12

>  <ref_pdb>  (3611) 
A0514a

>  <alias>  (3611) 
HERFLEJNIDWHEU-UHFFFAOYSA-N-P126-P126-P177-601502

>  <HIPPO Pose ID>  (3611) 
503040

>  <name>  (3611) 
HERFLEJNIDWHEU-UHFFFAOYSA-N-P126-P126-P177-601502

>  <HIPPO Compound ID>  (3611) 
299338

>  <ref_mols>  (3611) 
A3403a,A2290a

>  <distance_score>  (3611) 
0.856276

>  <inspiration_score>  (3611) 
None

$$$$
HERFLEJNIDWHEU-UHFFFAOYSA-N-P177-P126-P177-601502
     RDKit          3D

 26 28  0  0  0  0  0  0  0  0999 V2000
   11.5245   14.6795   18.4470 C   0  0  0  0  0  0  0  0  0  0  0  0
   10.9757   15.2480   19.6690 C   0  0  0  0  0  0  0  0  0  0  0  0
    9.9611   16.1378   19.5348 O   0  0  0  0  0  0  0  0  0  0  0  0
    9.7157   16.5334   20.8193 C   0  0  0  0  0  0  0  0  0  0  0  0
    8.4608   17.2625   21.0903 C   0  0  0  0  0  0  0  0  0  0  0  0
    7.5032   16.1660   21.6157 C   0  0  0  0  0  0  0  0  0  0  0  0
    8.0851   18.1457   19.8947 C   0  0  0  0  0  0  0  0  0  0  0  0
   10.4792   15.9697   21.7215 N   0  0  0  0  0  0  0  0  0  0  0  0
   11.2414   15.1066   21.0070 C   0  0  0  0  0  0  0  0  0  0  0  0
   12.1191   14.1711   21.7024 C   0  0  0  0  0  0  0  0  0  0  0  0
   11.2930   13.2780   22.4405 N   0  0  0  0  0  0  0  0  0  0  0  0
   10.6031   13.4508   23.7981 C   0  0  0  0  0  0  0  0  0  0  0  0
   10.6604   14.3223   24.5697 O   0  0  0  0  0  0  0  0  0  0  0  0
    9.7209   12.2863   23.9863 C   0  0  0  0  0  0  0  0  0  0  0  0
    9.8912   11.1898   23.2297 N   0  0  0  0  0  0  0  0  0  0  0  0
    9.0049   10.3065   23.6873 N   0  0  0  0  0  0  0  0  0  0  0  0
    9.0029    8.9787   23.1228 C   0  0  0  0  0  0  0  0  0  0  0  0
    8.1934   10.8117   24.6700 C   0  0  0  0  0  0  0  0  0  0  0  0
    7.1332   10.2541   25.3860 C   0  0  0  0  0  0  0  0  0  0  0  0
    6.4991   11.0477   26.3428 C   0  0  0  0  0  0  0  0  0  0  0  0
    6.9254   12.3603   26.5660 C   0  0  0  0  0  0  0  0  0  0  0  0
    6.2623   13.1606   27.5999 N   0  0  0  0  0  0  0  0  0  0  0  0
    6.8618   14.1581   28.0256 O   0  0  0  0  0  0  0  0  0  0  0  0
    5.1630   12.7667   28.0164 O   0  0  0  0  0  0  0  0  0  0  0  0
    7.9971   12.9160   25.8501 C   0  0  0  0  0  0  0  0  0  0  0  0
    8.6386   12.1161   24.8865 C   0  0  0  0  0  0  0  0  0  0  0  0
  1  2  1  0
  2  3  1  0
  3  4  1  0
  4  5  1  0
  5  6  1  0
  5  7  1  0
  4  8  2  0
  8  9  1  0
  9 10  1  0
 10 11  1  0
 11 12  1  0
 12 13  2  0
 12 14  1  0
 14 15  2  0
 15 16  1  0
 16 17  1  0
 16 18  1  0
 18 19  2  0
 19 20  1  0
 20 21  2  0
 21 22  1  0
 22 23  2  0
 22 24  1  0
 21 25  1  0
 25 26  2  0
  9  2  2  0
 26 14  1  0
 26 18  1  0
M  CHG  2  22   1  24  -1
M  END
>  <energy_score>  (3612) 
-51.289669

>  <inchikey>  (3612) 
HERFLEJNIDWHEU-UHFFFAOYSA-N

>  <smiles>  (3612) 
Cc1oc(C(C)C)nc1CNC(=O)c1nn(C)c2ccc([N+](=O)[O-])cc12

>  <ref_pdb>  (3612) 
A0514a

>  <alias>  (3612) 
HERFLEJNIDWHEU-UHFFFAOYSA-N-P177-P126-P177-601502

>  <HIPPO Pose ID>  (3612) 
503041

>  <name>  (3612) 
HERFLEJNIDWHEU-UHFFFAOYSA-N-P177-P126-P177-601502

>  <HIPPO Compound ID>  (3612) 
299338

>  <ref_mols>  (3612) 
A3403a,A2290a

>  <distance_score>  (3612) 
0.735363

>  <inspiration_score>  (3612) 
None

$$$$
JAVATXZJOCJFNK-UHFFFAOYSA-N-P126-P126-P177-601502
     RDKit          3D

 26 28  0  0  0  0  0  0  0  0999 V2000
    9.4002    9.2016   23.4215 C   0  0  0  0  0  0  0  0  0  0  0  0
    8.9312   10.3806   24.1200 N   0  0  0  0  0  0  0  0  0  0  0  0
    9.3156   11.5861   23.6804 N   0  0  0  0  0  0  0  0  0  0  0  0
    8.7106   12.4614   24.5040 C   0  0  0  0  0  0  0  0  0  0  0  0
    8.5677   13.8866   24.1931 C   0  0  0  0  0  0  0  0  0  0  0  0
    8.4950   14.7095   25.0110 O   0  0  0  0  0  0  0  0  0  0  0  0
    8.4412   13.9848   22.6777 N   0  0  0  0  0  0  0  0  0  0  0  0
    8.1080   15.0854   21.8507 C   0  0  0  0  0  0  0  0  0  0  0  0
    9.1985   15.4987   20.9418 C   0  0  0  0  0  0  0  0  0  0  0  0
    8.9476   16.5980   20.1420 N   0  0  0  0  0  0  0  0  0  0  0  0
    9.7728   16.4612   19.1422 C   0  0  0  0  0  0  0  0  0  0  0  0
   10.6974   15.5039   19.3475 O   0  0  0  0  0  0  0  0  0  0  0  0
   10.4509   15.0225   20.6162 C   0  0  0  0  0  0  0  0  0  0  0  0
   11.6061   14.3086   21.2468 C   0  0  0  0  0  0  0  0  0  0  0  0
   12.6118   13.8948   20.1683 C   0  0  0  0  0  0  0  0  0  0  0  0
   12.3260   15.2915   22.1616 C   0  0  0  0  0  0  0  0  0  0  0  0
   11.2986   13.1483   22.1742 C   0  0  0  0  0  0  0  0  0  0  0  0
    7.9524   11.8125   25.4891 C   0  0  0  0  0  0  0  0  0  0  0  0
    7.0844   12.2570   26.5000 C   0  0  0  0  0  0  0  0  0  0  0  0
    6.2570   11.3087   27.1000 C   0  0  0  0  0  0  0  0  0  0  0  0
    5.3099   11.7376   28.1248 N   0  0  0  0  0  0  0  0  0  0  0  0
    5.6538   12.6730   28.8606 O   0  0  0  0  0  0  0  0  0  0  0  0
    4.2367   11.1230   28.2085 O   0  0  0  0  0  0  0  0  0  0  0  0
    6.2920    9.9671   26.7220 C   0  0  0  0  0  0  0  0  0  0  0  0
    7.1844    9.5336   25.7375 C   0  0  0  0  0  0  0  0  0  0  0  0
    8.0145   10.4702   25.1382 C   0  0  0  0  0  0  0  0  0  0  0  0
  1  2  1  0
  2  3  1  0
  3  4  2  0
  4  5  1  0
  5  6  2  0
  5  7  1  0
  7  8  1  0
  8  9  1  0
  9 10  1  0
 10 11  2  0
 11 12  1  0
 12 13  1  0
 13 14  1  0
 14 15  1  0
 14 16  1  0
 14 17  1  0
  4 18  1  0
 18 19  2  0
 19 20  1  0
 20 21  1  0
 21 22  2  0
 21 23  1  0
 20 24  2  0
 24 25  1  0
 25 26  2  0
 26  2  1  0
 13  9  2  0
 26 18  1  0
M  CHG  2  21   1  23  -1
M  END
>  <energy_score>  (3613) 
-6.584825

>  <inchikey>  (3613) 
JAVATXZJOCJFNK-UHFFFAOYSA-N

>  <smiles>  (3613) 
Cn1nc(C(=O)NCc2ncoc2C(C)(C)C)c2cc([N+](=O)[O-])ccc21

>  <ref_pdb>  (3613) 
A0514a

>  <alias>  (3613) 
JAVATXZJOCJFNK-UHFFFAOYSA-N-P126-P126-P177-601502

>  <HIPPO Pose ID>  (3613) 
503042

>  <name>  (3613) 
JAVATXZJOCJFNK-UHFFFAOYSA-N-P126-P126-P177-601502

>  <HIPPO Compound ID>  (3613) 
299339

>  <ref_mols>  (3613) 
A3403a,A2290a

>  <distance_score>  (3613) 
1.822332

>  <inspiration_score>  (3613) 
None

$$$$
JAVATXZJOCJFNK-UHFFFAOYSA-N-P177-P126-P177-601502
     RDKit          3D

 26 28  0  0  0  0  0  0  0  0999 V2000
    9.1516    9.3198   23.1871 C   0  0  0  0  0  0  0  0  0  0  0  0
    8.9130   10.5335   23.9396 N   0  0  0  0  0  0  0  0  0  0  0  0
    9.6808   11.6162   23.7227 N   0  0  0  0  0  0  0  0  0  0  0  0
    9.2459   12.5078   24.6372 C   0  0  0  0  0  0  0  0  0  0  0  0
    9.8339   13.8296   24.7712 C   0  0  0  0  0  0  0  0  0  0  0  0
    9.8771   14.4088   25.7744 O   0  0  0  0  0  0  0  0  0  0  0  0
   10.3328   14.2091   23.3985 N   0  0  0  0  0  0  0  0  0  0  0  0
   10.9040   15.4033   22.9325 C   0  0  0  0  0  0  0  0  0  0  0  0
   10.1275   16.0607   21.8596 C   0  0  0  0  0  0  0  0  0  0  0  0
    8.8773   16.6118   21.9831 N   0  0  0  0  0  0  0  0  0  0  0  0
    8.6940   17.2408   20.8447 C   0  0  0  0  0  0  0  0  0  0  0  0
    9.6037   16.9533   19.8837 O   0  0  0  0  0  0  0  0  0  0  0  0
   10.4765   16.1469   20.5394 C   0  0  0  0  0  0  0  0  0  0  0  0
   11.2208   15.1582   19.7724 C   0  0  0  0  0  0  0  0  0  0  0  0
   12.5879   14.7813   20.2906 C   0  0  0  0  0  0  0  0  0  0  0  0
   10.3169   13.9950   20.0157 C   0  0  0  0  0  0  0  0  0  0  0  0
   11.1949   15.3704   18.2861 C   0  0  0  0  0  0  0  0  0  0  0  0
    8.1588   12.0338   25.3790 C   0  0  0  0  0  0  0  0  0  0  0  0
    7.3251   12.5778   26.3716 C   0  0  0  0  0  0  0  0  0  0  0  0
    6.3220   11.7610   26.8918 C   0  0  0  0  0  0  0  0  0  0  0  0
    5.4342   12.2747   27.9338 N   0  0  0  0  0  0  0  0  0  0  0  0
    5.8607   13.1937   28.6464 O   0  0  0  0  0  0  0  0  0  0  0  0
    4.3235   11.7361   28.0582 O   0  0  0  0  0  0  0  0  0  0  0  0
    6.1714   10.4459   26.4606 C   0  0  0  0  0  0  0  0  0  0  0  0
    6.9944    9.9263   25.4599 C   0  0  0  0  0  0  0  0  0  0  0  0
    7.9732   10.7410   24.9190 C   0  0  0  0  0  0  0  0  0  0  0  0
  1  2  1  0
  2  3  1  0
  3  4  2  0
  4  5  1  0
  5  6  2  0
  5  7  1  0
  7  8  1  0
  8  9  1  0
  9 10  1  0
 10 11  2  0
 11 12  1  0
 12 13  1  0
 13 14  1  0
 14 15  1  0
 14 16  1  0
 14 17  1  0
  4 18  1  0
 18 19  2  0
 19 20  1  0
 20 21  1  0
 21 22  2  0
 21 23  1  0
 20 24  2  0
 24 25  1  0
 25 26  2  0
 26  2  1  0
 13  9  2  0
 26 18  1  0
M  CHG  2  21   1  23  -1
M  END
>  <energy_score>  (3614) 
-2.323564

>  <inchikey>  (3614) 
JAVATXZJOCJFNK-UHFFFAOYSA-N

>  <smiles>  (3614) 
Cn1nc(C(=O)NCc2ncoc2C(C)(C)C)c2cc([N+](=O)[O-])ccc21

>  <ref_pdb>  (3614) 
A0514a

>  <alias>  (3614) 
JAVATXZJOCJFNK-UHFFFAOYSA-N-P177-P126-P177-601502

>  <HIPPO Pose ID>  (3614) 
503043

>  <name>  (3614) 
JAVATXZJOCJFNK-UHFFFAOYSA-N-P177-P126-P177-601502

>  <HIPPO Compound ID>  (3614) 
299339

>  <ref_mols>  (3614) 
A3403a,A2290a

>  <distance_score>  (3614) 
1.431956

>  <inspiration_score>  (3614) 
None

$$$$
QTRPXANGCJGRDD-UHFFFAOYSA-N-P126-P126-P177-601502
     RDKit          3D

 26 28  0  0  0  0  0  0  0  0999 V2000
    9.4635    8.7063   23.0799 C   0  0  0  0  0  0  0  0  0  0  0  0
    9.3655    9.9891   23.7338 N   0  0  0  0  0  0  0  0  0  0  0  0
   10.2054   10.9604   23.3469 N   0  0  0  0  0  0  0  0  0  0  0  0
    9.8654   12.0176   24.1016 C   0  0  0  0  0  0  0  0  0  0  0  0
   10.6004   13.2779   23.9830 C   0  0  0  0  0  0  0  0  0  0  0  0
   10.6190   14.0638   24.8413 O   0  0  0  0  0  0  0  0  0  0  0  0
   11.2074   13.3260   22.5818 N   0  0  0  0  0  0  0  0  0  0  0  0
   11.8808   14.3756   21.9033 C   0  0  0  0  0  0  0  0  0  0  0  0
   10.8960   15.0029   20.9930 C   0  0  0  0  0  0  0  0  0  0  0  0
    9.8699   15.7676   21.4713 N   0  0  0  0  0  0  0  0  0  0  0  0
    9.3645   16.3455   20.4107 C   0  0  0  0  0  0  0  0  0  0  0  0
    9.8627   15.8902   19.2345 O   0  0  0  0  0  0  0  0  0  0  0  0
   10.8488   15.0195   19.6213 C   0  0  0  0  0  0  0  0  0  0  0  0
   11.7076   14.4163   18.6124 C   0  0  0  0  0  0  0  0  0  0  0  0
   12.2331   15.2986   17.7476 F   0  0  0  0  0  0  0  0  0  0  0  0
   11.0888   13.4603   17.9032 F   0  0  0  0  0  0  0  0  0  0  0  0
   12.7758   13.8037   19.1947 F   0  0  0  0  0  0  0  0  0  0  0  0
    8.7492   11.7368   24.9260 C   0  0  0  0  0  0  0  0  0  0  0  0
    7.9498   12.4753   25.8202 C   0  0  0  0  0  0  0  0  0  0  0  0
    6.8947   11.8137   26.4650 C   0  0  0  0  0  0  0  0  0  0  0  0
    6.0498   12.5574   27.3990 N   0  0  0  0  0  0  0  0  0  0  0  0
    4.9050   12.1295   27.6086 O   0  0  0  0  0  0  0  0  0  0  0  0
    6.5492   13.5455   27.9565 O   0  0  0  0  0  0  0  0  0  0  0  0
    6.6496   10.4538   26.2600 C   0  0  0  0  0  0  0  0  0  0  0  0
    7.4452    9.7234   25.3740 C   0  0  0  0  0  0  0  0  0  0  0  0
    8.4709   10.3916   24.6978 C   0  0  0  0  0  0  0  0  0  0  0  0
  1  2  1  0
  2  3  1  0
  3  4  2  0
  4  5  1  0
  5  6  2  0
  5  7  1  0
  7  8  1  0
  8  9  1  0
  9 10  1  0
 10 11  2  0
 11 12  1  0
 12 13  1  0
 13 14  1  0
 14 15  1  0
 14 16  1  0
 14 17  1  0
  4 18  1  0
 18 19  2  0
 19 20  1  0
 20 21  1  0
 21 22  2  0
 21 23  1  0
 20 24  2  0
 24 25  1  0
 25 26  2  0
 26  2  1  0
 13  9  2  0
 26 18  1  0
M  CHG  2  21   1  23  -1
M  END
>  <energy_score>  (3615) 
-43.174021

>  <inchikey>  (3615) 
QTRPXANGCJGRDD-UHFFFAOYSA-N

>  <smiles>  (3615) 
Cn1nc(C(=O)NCc2ncoc2C(F)(F)F)c2cc([N+](=O)[O-])ccc21

>  <ref_pdb>  (3615) 
A0514a

>  <alias>  (3615) 
QTRPXANGCJGRDD-UHFFFAOYSA-N-P126-P126-P177-601502

>  <HIPPO Pose ID>  (3615) 
503044

>  <name>  (3615) 
QTRPXANGCJGRDD-UHFFFAOYSA-N-P126-P126-P177-601502

>  <HIPPO Compound ID>  (3615) 
299340

>  <ref_mols>  (3615) 
A3403a,A2290a

>  <distance_score>  (3615) 
0.75622

>  <inspiration_score>  (3615) 
None

$$$$
QTRPXANGCJGRDD-UHFFFAOYSA-N-P177-P126-P177-601502
     RDKit          3D

 26 28  0  0  0  0  0  0  0  0999 V2000
    9.1271    9.0383   23.0842 C   0  0  0  0  0  0  0  0  0  0  0  0
    9.0358   10.3518   23.6796 N   0  0  0  0  0  0  0  0  0  0  0  0
    9.8574   11.3189   23.2539 N   0  0  0  0  0  0  0  0  0  0  0  0
    9.5682   12.3809   24.0250 C   0  0  0  0  0  0  0  0  0  0  0  0
   10.2987   13.6463   23.8710 C   0  0  0  0  0  0  0  0  0  0  0  0
   10.2483   14.4837   24.6780 O   0  0  0  0  0  0  0  0  0  0  0  0
   10.9925   13.6224   22.5087 N   0  0  0  0  0  0  0  0  0  0  0  0
   11.6863   14.6423   21.8099 C   0  0  0  0  0  0  0  0  0  0  0  0
   10.7308   15.3539   20.9405 C   0  0  0  0  0  0  0  0  0  0  0  0
    9.7653   16.1791   21.4556 N   0  0  0  0  0  0  0  0  0  0  0  0
    9.2227   16.7387   20.4031 C   0  0  0  0  0  0  0  0  0  0  0  0
    9.6975   16.2817   19.2101 O   0  0  0  0  0  0  0  0  0  0  0  0
   10.6702   15.3867   19.5699 C   0  0  0  0  0  0  0  0  0  0  0  0
   11.4663   14.7211   18.5422 C   0  0  0  0  0  0  0  0  0  0  0  0
   11.9205   15.5555   17.5876 F   0  0  0  0  0  0  0  0  0  0  0  0
   10.7874   13.7192   17.9481 F   0  0  0  0  0  0  0  0  0  0  0  0
   12.5652   14.1351   19.0832 F   0  0  0  0  0  0  0  0  0  0  0  0
    8.5056   12.0970   24.9169 C   0  0  0  0  0  0  0  0  0  0  0  0
    7.7892   12.8212   25.8890 C   0  0  0  0  0  0  0  0  0  0  0  0
    6.7580   12.1644   26.5752 C   0  0  0  0  0  0  0  0  0  0  0  0
    6.0103   12.8828   27.6088 N   0  0  0  0  0  0  0  0  0  0  0  0
    4.8988   12.4365   27.9303 O   0  0  0  0  0  0  0  0  0  0  0  0
    6.5536   13.8677   28.1286 O   0  0  0  0  0  0  0  0  0  0  0  0
    6.4474   10.8276   26.3192 C   0  0  0  0  0  0  0  0  0  0  0  0
    7.1592   10.1131   25.3552 C   0  0  0  0  0  0  0  0  0  0  0  0
    8.1766   10.7685   24.6648 C   0  0  0  0  0  0  0  0  0  0  0  0
  1  2  1  0
  2  3  1  0
  3  4  2  0
  4  5  1  0
  5  6  2  0
  5  7  1  0
  7  8  1  0
  8  9  1  0
  9 10  1  0
 10 11  2  0
 11 12  1  0
 12 13  1  0
 13 14  1  0
 14 15  1  0
 14 16  1  0
 14 17  1  0
  4 18  1  0
 18 19  2  0
 19 20  1  0
 20 21  1  0
 21 22  2  0
 21 23  1  0
 20 24  2  0
 24 25  1  0
 25 26  2  0
 26  2  1  0
 13  9  2  0
 26 18  1  0
M  CHG  2  21   1  23  -1
M  END
>  <energy_score>  (3616) 
-45.423436

>  <inchikey>  (3616) 
QTRPXANGCJGRDD-UHFFFAOYSA-N

>  <smiles>  (3616) 
Cn1nc(C(=O)NCc2ncoc2C(F)(F)F)c2cc([N+](=O)[O-])ccc21

>  <ref_pdb>  (3616) 
A0514a

>  <alias>  (3616) 
QTRPXANGCJGRDD-UHFFFAOYSA-N-P177-P126-P177-601502

>  <HIPPO Pose ID>  (3616) 
503045

>  <name>  (3616) 
QTRPXANGCJGRDD-UHFFFAOYSA-N-P177-P126-P177-601502

>  <HIPPO Compound ID>  (3616) 
299340

>  <ref_mols>  (3616) 
A3403a,A2290a

>  <distance_score>  (3616) 
0.736618

>  <inspiration_score>  (3616) 
None

$$$$
KMTCIZWSPSUROP-UHFFFAOYSA-N-P126-P126-P177-601502
     RDKit          3D

 26 29  0  0  0  0  0  0  0  0999 V2000
   11.7132   14.3976   18.5925 C   0  0  0  0  0  0  0  0  0  0  0  0
   10.8286   14.9652   19.6004 C   0  0  0  0  0  0  0  0  0  0  0  0
    9.8582   15.8088   19.1611 O   0  0  0  0  0  0  0  0  0  0  0  0
    9.3861   16.3947   20.3028 C   0  0  0  0  0  0  0  0  0  0  0  0
    8.8246   17.8467   20.3075 C   0  0  0  0  0  0  0  0  0  0  0  0
    7.6331   18.5326   19.7567 C   0  0  0  0  0  0  0  0  0  0  0  0
    8.7851   18.4054   18.8700 C   0  0  0  0  0  0  0  0  0  0  0  0
    9.8238   15.8069   21.3974 N   0  0  0  0  0  0  0  0  0  0  0  0
   10.8382   14.9894   20.9693 C   0  0  0  0  0  0  0  0  0  0  0  0
   11.8287   14.4056   21.9000 C   0  0  0  0  0  0  0  0  0  0  0  0
   11.1913   13.3383   22.5859 N   0  0  0  0  0  0  0  0  0  0  0  0
   10.5633   13.2867   23.9771 C   0  0  0  0  0  0  0  0  0  0  0  0
   10.5319   14.0868   24.8214 O   0  0  0  0  0  0  0  0  0  0  0  0
    9.8492   12.0143   24.0960 C   0  0  0  0  0  0  0  0  0  0  0  0
   10.1972   10.9621   23.3386 N   0  0  0  0  0  0  0  0  0  0  0  0
    9.3712    9.9807   23.7270 N   0  0  0  0  0  0  0  0  0  0  0  0
    9.4810    8.7003   23.0696 C   0  0  0  0  0  0  0  0  0  0  0  0
    8.4724   10.3733   24.6915 C   0  0  0  0  0  0  0  0  0  0  0  0
    7.4555    9.6936   25.3685 C   0  0  0  0  0  0  0  0  0  0  0  0
    6.6521   10.4146   26.2547 C   0  0  0  0  0  0  0  0  0  0  0  0
    6.8810   11.7777   26.4578 C   0  0  0  0  0  0  0  0  0  0  0  0
    6.0214   12.5115   27.3846 N   0  0  0  0  0  0  0  0  0  0  0  0
    6.5176   13.4800   27.9769 O   0  0  0  0  0  0  0  0  0  0  0  0
    4.8657   12.0929   27.5499 O   0  0  0  0  0  0  0  0  0  0  0  0
    7.9285   12.4513   25.8147 C   0  0  0  0  0  0  0  0  0  0  0  0
    8.7361   11.7211   24.9207 C   0  0  0  0  0  0  0  0  0  0  0  0
  1  2  1  0
  2  3  1  0
  3  4  1  0
  4  5  1  0
  5  6  1  0
  6  7  1  0
  4  8  2  0
  8  9  1  0
  9 10  1  0
 10 11  1  0
 11 12  1  0
 12 13  2  0
 12 14  1  0
 14 15  2  0
 15 16  1  0
 16 17  1  0
 16 18  1  0
 18 19  2  0
 19 20  1  0
 20 21  2  0
 21 22  1  0
 22 23  2  0
 22 24  1  0
 21 25  1  0
 25 26  2  0
  9  2  2  0
 26 14  1  0
  7  5  1  0
 26 18  1  0
M  CHG  2  22   1  24  -1
M  END
>  <energy_score>  (3617) 
-41.278693

>  <inchikey>  (3617) 
KMTCIZWSPSUROP-UHFFFAOYSA-N

>  <smiles>  (3617) 
Cc1oc(C2CC2)nc1CNC(=O)c1nn(C)c2ccc([N+](=O)[O-])cc12

>  <ref_pdb>  (3617) 
A0514a

>  <alias>  (3617) 
KMTCIZWSPSUROP-UHFFFAOYSA-N-P126-P126-P177-601502

>  <HIPPO Pose ID>  (3617) 
503046

>  <name>  (3617) 
KMTCIZWSPSUROP-UHFFFAOYSA-N-P126-P126-P177-601502

>  <HIPPO Compound ID>  (3617) 
299341

>  <ref_mols>  (3617) 
A3403a,A2290a

>  <distance_score>  (3617) 
0.752177

>  <inspiration_score>  (3617) 
None

$$$$
KMTCIZWSPSUROP-UHFFFAOYSA-N-P177-P126-P177-601502
     RDKit          3D

 26 29  0  0  0  0  0  0  0  0999 V2000
   11.4870   14.6958   18.3696 C   0  0  0  0  0  0  0  0  0  0  0  0
   10.8056   15.3842   19.4571 C   0  0  0  0  0  0  0  0  0  0  0  0
    9.9145   16.3606   19.1316 O   0  0  0  0  0  0  0  0  0  0  0  0
    9.5634   16.8997   20.3391 C   0  0  0  0  0  0  0  0  0  0  0  0
    8.5336   18.0328   20.5368 C   0  0  0  0  0  0  0  0  0  0  0  0
    7.6133   18.2679   19.3796 C   0  0  0  0  0  0  0  0  0  0  0  0
    8.4096   19.3789   19.8540 C   0  0  0  0  0  0  0  0  0  0  0  0
   10.0977   16.2783   21.3690 N   0  0  0  0  0  0  0  0  0  0  0  0
   10.9159   15.3320   20.8217 C   0  0  0  0  0  0  0  0  0  0  0  0
   11.7792   14.4790   21.6529 C   0  0  0  0  0  0  0  0  0  0  0  0
   10.9431   13.5580   22.3393 N   0  0  0  0  0  0  0  0  0  0  0  0
   10.3781   13.5960   23.7602 C   0  0  0  0  0  0  0  0  0  0  0  0
   10.4415   14.4242   24.5765 O   0  0  0  0  0  0  0  0  0  0  0  0
    9.6170   12.3550   23.9644 C   0  0  0  0  0  0  0  0  0  0  0  0
    9.8720   11.2704   23.2144 N   0  0  0  0  0  0  0  0  0  0  0  0
    9.0380   10.3311   23.6664 N   0  0  0  0  0  0  0  0  0  0  0  0
    9.0983    9.0097   23.0868 C   0  0  0  0  0  0  0  0  0  0  0  0
    8.1988   10.7822   24.6535 C   0  0  0  0  0  0  0  0  0  0  0  0
    7.1739   10.1604   25.3657 C   0  0  0  0  0  0  0  0  0  0  0  0
    6.4914   10.9088   26.3253 C   0  0  0  0  0  0  0  0  0  0  0  0
    6.8372   12.2433   26.5552 C   0  0  0  0  0  0  0  0  0  0  0  0
    6.1197   12.9961   27.5868 N   0  0  0  0  0  0  0  0  0  0  0  0
    6.6807   13.9919   28.0640 O   0  0  0  0  0  0  0  0  0  0  0  0
    5.0154   12.5632   27.9486 O   0  0  0  0  0  0  0  0  0  0  0  0
    7.8741   12.8654   25.8449 C   0  0  0  0  0  0  0  0  0  0  0  0
    8.5622   12.1089   24.8776 C   0  0  0  0  0  0  0  0  0  0  0  0
  1  2  1  0
  2  3  1  0
  3  4  1  0
  4  5  1  0
  5  6  1  0
  6  7  1  0
  4  8  2  0
  8  9  1  0
  9 10  1  0
 10 11  1  0
 11 12  1  0
 12 13  2  0
 12 14  1  0
 14 15  2  0
 15 16  1  0
 16 17  1  0
 16 18  1  0
 18 19  2  0
 19 20  1  0
 20 21  2  0
 21 22  1  0
 22 23  2  0
 22 24  1  0
 21 25  1  0
 25 26  2  0
  9  2  2  0
 26 14  1  0
  7  5  1  0
 26 18  1  0
M  CHG  2  22   1  24  -1
M  END
>  <energy_score>  (3618) 
-49.149113

>  <inchikey>  (3618) 
KMTCIZWSPSUROP-UHFFFAOYSA-N

>  <smiles>  (3618) 
Cc1oc(C2CC2)nc1CNC(=O)c1nn(C)c2ccc([N+](=O)[O-])cc12

>  <ref_pdb>  (3618) 
A0514a

>  <alias>  (3618) 
KMTCIZWSPSUROP-UHFFFAOYSA-N-P177-P126-P177-601502

>  <HIPPO Pose ID>  (3618) 
503047

>  <name>  (3618) 
KMTCIZWSPSUROP-UHFFFAOYSA-N-P177-P126-P177-601502

>  <HIPPO Compound ID>  (3618) 
299341

>  <ref_mols>  (3618) 
A3403a,A2290a

>  <distance_score>  (3618) 
0.668604

>  <inspiration_score>  (3618) 
None

$$$$
JLXJYOOBLQSPMI-UHFFFAOYSA-N-P126-P126-P177-601502
     RDKit          3D

 26 29  0  0  0  0  0  0  0  0999 V2000
   12.7031   13.9236   22.0334 C   0  0  0  0  0  0  0  0  0  0  0  0
   11.4539   14.7007   22.3332 C   0  0  2  0  0  0  0  0  0  0  0  0
   10.6435   13.9625   23.2625 N   0  0  0  0  0  0  0  0  0  0  0  0
   10.5631   14.0369   24.8011 C   0  0  0  0  0  0  0  0  0  0  0  0
   11.1967   14.6542   25.5633 O   0  0  0  0  0  0  0  0  0  0  0  0
    9.5341   13.1067   25.2330 C   0  0  0  0  0  0  0  0  0  0  0  0
    9.6861   11.8285   24.8841 N   0  0  0  0  0  0  0  0  0  0  0  0
    8.5942   11.2333   25.3598 N   0  0  0  0  0  0  0  0  0  0  0  0
    8.2942    9.9083   24.9383 C   0  0  0  0  0  0  0  0  0  0  0  0
    8.8102    9.7416   23.5723 C   0  0  1  0  0  0  0  0  0  0  0  0
   10.2743    9.5760   23.3905 C   0  0  0  0  0  0  0  0  0  0  0  0
   10.3190    8.5752   22.4112 N   0  0  0  0  0  0  0  0  0  0  0  0
    9.1344    7.9073   22.4112 C   0  0  0  0  0  0  0  0  0  0  0  0
    8.8364    6.8693   21.8762 O   0  0  0  0  0  0  0  0  0  0  0  0
    8.2390    8.5413   23.1683 O   0  0  0  0  0  0  0  0  0  0  0  0
    7.7562   12.0318   26.0517 C   0  0  0  0  0  0  0  0  0  0  0  0
    6.5489   11.7493   26.6912 C   0  0  0  0  0  0  0  0  0  0  0  0
    5.8980   12.8264   27.2714 C   0  0  0  0  0  0  0  0  0  0  0  0
    6.4421   14.1091   27.2042 C   0  0  0  0  0  0  0  0  0  0  0  0
    7.6611   14.3635   26.5598 C   0  0  0  0  0  0  0  0  0  0  0  0
    8.3370   13.2930   25.9701 C   0  0  0  0  0  0  0  0  0  0  0  0
   10.6768   15.1017   21.1277 C   0  0  0  0  0  0  0  0  0  0  0  0
   10.8539   14.8209   19.7915 C   0  0  0  0  0  0  0  0  0  0  0  0
   10.0599   15.6621   19.0715 O   0  0  0  0  0  0  0  0  0  0  0  0
    9.4463   16.4187   20.0099 C   0  0  0  0  0  0  0  0  0  0  0  0
    9.6875   16.0472   21.2402 N   0  0  0  0  0  0  0  0  0  0  0  0
  2  1  1  6
  2  3  1  0
  3  4  1  0
  4  5  2  0
  4  6  1  0
  6  7  2  0
  7  8  1  0
  8  9  1  0
 10  9  1  1
 10 11  1  0
 11 12  1  0
 12 13  1  0
 13 14  2  0
 13 15  1  0
  8 16  1  0
 16 17  2  0
 17 18  1  0
 18 19  2  0
 19 20  1  0
 20 21  2  0
  2 22  1  0
 22 23  2  0
 23 24  1  0
 24 25  1  0
 25 26  2  0
 21  6  1  0
 26 22  1  0
 15 10  1  0
 21 16  1  0
M  END
>  <energy_score>  (3619) 
-0.607229

>  <inchikey>  (3619) 
JLXJYOOBLQSPMI-UHFFFAOYSA-N

>  <smiles>  (3619) 
CC(NC(=O)c1nn(CC2CNC(=O)O2)c2ccccc12)c1cocn1

>  <ref_pdb>  (3619) 
A0514a

>  <alias>  (3619) 
JLXJYOOBLQSPMI-UHFFFAOYSA-N-P126-P126-P177-601502

>  <HIPPO Pose ID>  (3619) 
503050

>  <name>  (3619) 
JLXJYOOBLQSPMI-UHFFFAOYSA-N-P126-P126-P177-601502

>  <HIPPO Compound ID>  (3619) 
299343

>  <ref_mols>  (3619) 
A3403a,A2290a

>  <distance_score>  (3619) 
1.862374

>  <inspiration_score>  (3619) 
None

$$$$
JLXJYOOBLQSPMI-UHFFFAOYSA-N-P177-P126-P177-601502
     RDKit          3D

 26 29  0  0  0  0  0  0  0  0999 V2000
   12.3423   14.3752   21.8723 C   0  0  0  0  0  0  0  0  0  0  0  0
   11.0201   14.9977   22.2151 C   0  0  2  0  0  0  0  0  0  0  0  0
   10.2316   14.0671   22.9597 N   0  0  0  0  0  0  0  0  0  0  0  0
    9.8538   14.0462   24.4436 C   0  0  0  0  0  0  0  0  0  0  0  0
   10.1859   14.7408   25.3172 O   0  0  0  0  0  0  0  0  0  0  0  0
    9.0113   12.8688   24.6959 C   0  0  0  0  0  0  0  0  0  0  0  0
    9.0213   11.8110   23.8648 N   0  0  0  0  0  0  0  0  0  0  0  0
    8.2005   10.9281   24.4620 N   0  0  0  0  0  0  0  0  0  0  0  0
    7.8345    9.7282   23.7720 C   0  0  0  0  0  0  0  0  0  0  0  0
    8.8370    8.6094   23.7431 C   0  0  2  0  0  0  0  0  0  0  0  0
   10.2217    9.0474   23.5200 C   0  0  0  0  0  0  0  0  0  0  0  0
   10.1073    9.3749   22.1500 N   0  0  0  0  0  0  0  0  0  0  0  0
    9.3258    8.4483   21.5671 C   0  0  0  0  0  0  0  0  0  0  0  0
    9.3262    8.1498   20.3866 O   0  0  0  0  0  0  0  0  0  0  0  0
    8.6095    7.8473   22.5367 O   0  0  0  0  0  0  0  0  0  0  0  0
    7.6019   11.3850   25.5941 C   0  0  0  0  0  0  0  0  0  0  0  0
    6.6332   10.8217   26.4289 C   0  0  0  0  0  0  0  0  0  0  0  0
    6.1903   11.5953   27.4966 C   0  0  0  0  0  0  0  0  0  0  0  0
    6.6957   12.8755   27.7101 C   0  0  0  0  0  0  0  0  0  0  0  0
    7.6597   13.4240   26.8588 C   0  0  0  0  0  0  0  0  0  0  0  0
    8.1161   12.6609   25.7753 C   0  0  0  0  0  0  0  0  0  0  0  0
   10.3055   15.5441   21.0443 C   0  0  0  0  0  0  0  0  0  0  0  0
   10.4361   15.2839   19.6988 C   0  0  0  0  0  0  0  0  0  0  0  0
    9.7026   16.2074   19.0198 O   0  0  0  0  0  0  0  0  0  0  0  0
    9.1642   16.9835   19.9995 C   0  0  0  0  0  0  0  0  0  0  0  0
    9.4474   16.5995   21.2151 N   0  0  0  0  0  0  0  0  0  0  0  0
  2  1  1  6
  2  3  1  0
  3  4  1  0
  4  5  2  0
  4  6  1  0
  6  7  2  0
  7  8  1  0
  8  9  1  0
 10  9  1  6
 10 11  1  0
 11 12  1  0
 12 13  1  0
 13 14  2  0
 13 15  1  0
  8 16  1  0
 16 17  2  0
 17 18  1  0
 18 19  2  0
 19 20  1  0
 20 21  2  0
  2 22  1  0
 22 23  2  0
 23 24  1  0
 24 25  1  0
 25 26  2  0
 21  6  1  0
 26 22  1  0
 15 10  1  0
 21 16  1  0
M  END
>  <energy_score>  (3620) 
-10.690703

>  <inchikey>  (3620) 
JLXJYOOBLQSPMI-UHFFFAOYSA-N

>  <smiles>  (3620) 
CC(NC(=O)c1nn(CC2CNC(=O)O2)c2ccccc12)c1cocn1

>  <ref_pdb>  (3620) 
A0514a

>  <alias>  (3620) 
JLXJYOOBLQSPMI-UHFFFAOYSA-N-P177-P126-P177-601502

>  <HIPPO Pose ID>  (3620) 
503051

>  <name>  (3620) 
JLXJYOOBLQSPMI-UHFFFAOYSA-N-P177-P126-P177-601502

>  <HIPPO Compound ID>  (3620) 
299343

>  <ref_mols>  (3620) 
A3403a,A2290a

>  <distance_score>  (3620) 
1.534356

>  <inspiration_score>  (3620) 
None

$$$$
ACNFQTIYCROSJT-UHFFFAOYSA-N-P126-P126-P177-601502
     RDKit          3D

 26 29  0  0  0  0  0  0  0  0999 V2000
    9.3507    8.7188   23.1434 C   0  0  0  0  0  0  0  0  0  0  0  0
    9.2633    9.9857   23.8277 N   0  0  0  0  0  0  0  0  0  0  0  0
   10.1438   10.9373   23.4923 N   0  0  0  0  0  0  0  0  0  0  0  0
    9.8229   11.9828   24.2757 C   0  0  0  0  0  0  0  0  0  0  0  0
   10.6333   13.2016   24.2331 C   0  0  0  0  0  0  0  0  0  0  0  0
   10.5462   14.0450   25.0295 O   0  0  0  0  0  0  0  0  0  0  0  0
   11.4684   13.1260   22.9593 N   0  0  0  0  0  0  0  0  0  0  0  0
   12.2961   14.0945   22.3427 C   0  0  0  0  0  0  0  0  0  0  0  0
   11.5651   14.5894   21.1789 C   0  0  0  0  0  0  0  0  0  0  0  0
   11.8094   14.3980   19.8450 C   0  0  0  0  0  0  0  0  0  0  0  0
   10.8769   15.0802   19.1472 O   0  0  0  0  0  0  0  0  0  0  0  0
   10.1569   15.7169   20.1121 C   0  0  0  0  0  0  0  0  0  0  0  0
    9.3629   16.8250   19.6775 C   0  0  0  0  0  0  0  0  0  0  0  0
    9.1809   17.1131   18.3388 C   0  0  0  0  0  0  0  0  0  0  0  0
    8.2832   18.0813   17.9698 C   0  0  0  0  0  0  0  0  0  0  0  0
    7.6961   18.8744   18.9320 C   0  0  0  0  0  0  0  0  0  0  0  0
    8.0502   18.7445   20.2414 C   0  0  0  0  0  0  0  0  0  0  0  0
    8.7998   17.6657   20.6210 C   0  0  0  0  0  0  0  0  0  0  0  0
   10.4594   15.3740   21.3430 N   0  0  0  0  0  0  0  0  0  0  0  0
    8.6813   11.7169   25.0629 C   0  0  0  0  0  0  0  0  0  0  0  0
    7.9009   12.4462   25.9783 C   0  0  0  0  0  0  0  0  0  0  0  0
    6.8499   11.7962   26.6171 C   0  0  0  0  0  0  0  0  0  0  0  0
    6.1141   12.4644   27.5158 F   0  0  0  0  0  0  0  0  0  0  0  0
    6.5662   10.4606   26.3707 C   0  0  0  0  0  0  0  0  0  0  0  0
    7.3243    9.7318   25.4510 C   0  0  0  0  0  0  0  0  0  0  0  0
    8.3701   10.3857   24.7931 C   0  0  0  0  0  0  0  0  0  0  0  0
  1  2  1  0
  2  3  1  0
  3  4  2  0
  4  5  1  0
  5  6  2  0
  5  7  1  0
  7  8  1  0
  8  9  1  0
  9 10  2  0
 10 11  1  0
 11 12  1  0
 12 13  1  0
 13 14  2  0
 14 15  1  0
 15 16  2  0
 16 17  1  0
 17 18  2  0
 12 19  2  0
  4 20  1  0
 20 21  2  0
 21 22  1  0
 22 23  1  0
 22 24  2  0
 24 25  1  0
 25 26  2  0
 26  2  1  0
 19  9  1  0
 26 20  1  0
 18 13  1  0
M  END
>  <energy_score>  (3621) 
-6.196344

>  <inchikey>  (3621) 
ACNFQTIYCROSJT-UHFFFAOYSA-N

>  <smiles>  (3621) 
Cn1nc(C(=O)NCc2coc(-c3ccccc3)n2)c2cc(F)ccc21

>  <ref_pdb>  (3621) 
A0514a

>  <alias>  (3621) 
ACNFQTIYCROSJT-UHFFFAOYSA-N-P126-P126-P177-601502

>  <HIPPO Pose ID>  (3621) 
503056

>  <name>  (3621) 
ACNFQTIYCROSJT-UHFFFAOYSA-N-P126-P126-P177-601502

>  <HIPPO Compound ID>  (3621) 
299346

>  <ref_mols>  (3621) 
A3403a,A2290a

>  <distance_score>  (3621) 
1.012008

>  <inspiration_score>  (3621) 
None

$$$$
FPYUUHWSAQVHMK-UHFFFAOYSA-N-P126-P126-P177-601502
     RDKit          3D

 26 29  0  0  0  0  0  0  0  0999 V2000
   11.7854   14.2732   18.6317 C   0  0  0  0  0  0  0  0  0  0  0  0
   10.8470   14.9671   19.4891 C   0  0  0  0  0  0  0  0  0  0  0  0
    9.9389   15.7205   18.8343 O   0  0  0  0  0  0  0  0  0  0  0  0
    9.4424   16.5349   19.7856 C   0  0  0  0  0  0  0  0  0  0  0  0
    8.9067   17.9192   19.3611 C   0  0  0  0  0  0  0  0  0  0  0  0
    7.5369   18.4753   19.3996 C   0  0  0  0  0  0  0  0  0  0  0  0
    8.4456   18.7590   20.5135 C   0  0  0  0  0  0  0  0  0  0  0  0
    9.7825   16.1827   21.0133 N   0  0  0  0  0  0  0  0  0  0  0  0
   10.7444   15.2104   20.8328 C   0  0  0  0  0  0  0  0  0  0  0  0
   11.6529   14.7523   21.9083 C   0  0  0  0  0  0  0  0  0  0  0  0
   11.0736   13.6214   22.5480 N   0  0  0  0  0  0  0  0  0  0  0  0
   10.5738   13.4377   23.9817 C   0  0  0  0  0  0  0  0  0  0  0  0
   10.6238   14.1558   24.8968 O   0  0  0  0  0  0  0  0  0  0  0  0
    9.9235   12.1288   24.0677 C   0  0  0  0  0  0  0  0  0  0  0  0
   10.3175   11.1205   23.2770 N   0  0  0  0  0  0  0  0  0  0  0  0
    9.5401   10.0685   23.6450 N   0  0  0  0  0  0  0  0  0  0  0  0
    9.6666    8.7845   22.9399 C   0  0  0  0  0  0  0  0  0  0  0  0
   10.0519    8.9573   21.6536 F   0  0  0  0  0  0  0  0  0  0  0  0
    8.4918    8.1201   22.9195 F   0  0  0  0  0  0  0  0  0  0  0  0
   10.5890    7.9638   23.4933 F   0  0  0  0  0  0  0  0  0  0  0  0
    8.6283   10.4071   24.6290 C   0  0  0  0  0  0  0  0  0  0  0  0
    7.6324    9.6826   25.2930 C   0  0  0  0  0  0  0  0  0  0  0  0
    6.8227   10.3546   26.2144 C   0  0  0  0  0  0  0  0  0  0  0  0
    7.0055   11.7086   26.4734 C   0  0  0  0  0  0  0  0  0  0  0  0
    8.0157   12.4215   25.8245 C   0  0  0  0  0  0  0  0  0  0  0  0
    8.8416   11.7561   24.8979 C   0  0  0  0  0  0  0  0  0  0  0  0
  1  2  1  0
  2  3  1  0
  3  4  1  0
  4  5  1  0
  5  6  1  0
  6  7  1  0
  4  8  2  0
  8  9  1  0
  9 10  1  0
 10 11  1  0
 11 12  1  0
 12 13  2  0
 12 14  1  0
 14 15  2  0
 15 16  1  0
 16 17  1  0
 17 18  1  0
 17 19  1  0
 17 20  1  0
 16 21  1  0
 21 22  2  0
 22 23  1  0
 23 24  2  0
 24 25  1  0
 25 26  2  0
  9  2  2  0
 26 14  1  0
  7  5  1  0
 26 21  1  0
M  END
>  <energy_score>  (3622) 
-12.804896

>  <inchikey>  (3622) 
FPYUUHWSAQVHMK-UHFFFAOYSA-N

>  <smiles>  (3622) 
Cc1oc(C2CC2)nc1CNC(=O)c1nn(C(F)(F)F)c2ccccc12

>  <ref_pdb>  (3622) 
A0514a

>  <alias>  (3622) 
FPYUUHWSAQVHMK-UHFFFAOYSA-N-P126-P126-P177-601502

>  <HIPPO Pose ID>  (3622) 
503062

>  <name>  (3622) 
FPYUUHWSAQVHMK-UHFFFAOYSA-N-P126-P126-P177-601502

>  <HIPPO Compound ID>  (3622) 
299349

>  <ref_mols>  (3622) 
A3403a,A2290a

>  <distance_score>  (3622) 
0.760846

>  <inspiration_score>  (3622) 
None

$$$$
FPYUUHWSAQVHMK-UHFFFAOYSA-N-P177-P126-P177-601502
     RDKit          3D

 26 29  0  0  0  0  0  0  0  0999 V2000
   11.7897   14.3735   18.4645 C   0  0  0  0  0  0  0  0  0  0  0  0
   11.0355   15.0939   19.4478 C   0  0  0  0  0  0  0  0  0  0  0  0
   10.1482   15.9496   18.9288 O   0  0  0  0  0  0  0  0  0  0  0  0
    9.7688   16.6621   20.0019 C   0  0  0  0  0  0  0  0  0  0  0  0
    9.0291   17.9374   19.7657 C   0  0  0  0  0  0  0  0  0  0  0  0
    7.6359   17.9413   20.1082 C   0  0  0  0  0  0  0  0  0  0  0  0
    8.5651   18.8323   20.8448 C   0  0  0  0  0  0  0  0  0  0  0  0
   10.2038   16.2316   21.1623 N   0  0  0  0  0  0  0  0  0  0  0  0
   11.0407   15.2134   20.8090 C   0  0  0  0  0  0  0  0  0  0  0  0
   11.8516   14.4975   21.7912 C   0  0  0  0  0  0  0  0  0  0  0  0
   11.0047   13.5868   22.4654 N   0  0  0  0  0  0  0  0  0  0  0  0
   10.4045   13.6413   23.8703 C   0  0  0  0  0  0  0  0  0  0  0  0
   10.4451   14.4800   24.6771 O   0  0  0  0  0  0  0  0  0  0  0  0
    9.6675   12.3858   24.0590 C   0  0  0  0  0  0  0  0  0  0  0  0
    9.9673   11.3211   23.2984 N   0  0  0  0  0  0  0  0  0  0  0  0
    9.1204   10.3472   23.6962 N   0  0  0  0  0  0  0  0  0  0  0  0
    9.1344    9.0296   23.0442 C   0  0  0  0  0  0  0  0  0  0  0  0
    9.7476    9.0423   21.8380 F   0  0  0  0  0  0  0  0  0  0  0  0
    7.8720    8.6062   22.8382 F   0  0  0  0  0  0  0  0  0  0  0  0
    9.7454    8.0876   23.7974 F   0  0  0  0  0  0  0  0  0  0  0  0
    8.2607   10.7802   24.6866 C   0  0  0  0  0  0  0  0  0  0  0  0
    7.2168   10.1522   25.3668 C   0  0  0  0  0  0  0  0  0  0  0  0
    6.5171   10.8865   26.3275 C   0  0  0  0  0  0  0  0  0  0  0  0
    6.8445   12.2107   26.5965 C   0  0  0  0  0  0  0  0  0  0  0  0
    7.8885   12.8345   25.9107 C   0  0  0  0  0  0  0  0  0  0  0  0
    8.6065   12.1050   24.9462 C   0  0  0  0  0  0  0  0  0  0  0  0
  1  2  1  0
  2  3  1  0
  3  4  1  0
  4  5  1  0
  5  6  1  0
  6  7  1  0
  4  8  2  0
  8  9  1  0
  9 10  1  0
 10 11  1  0
 11 12  1  0
 12 13  2  0
 12 14  1  0
 14 15  2  0
 15 16  1  0
 16 17  1  0
 17 18  1  0
 17 19  1  0
 17 20  1  0
 16 21  1  0
 21 22  2  0
 22 23  1  0
 23 24  2  0
 24 25  1  0
 25 26  2  0
  9  2  2  0
 26 14  1  0
  7  5  1  0
 26 21  1  0
M  END
>  <energy_score>  (3623) 
-17.244752

>  <inchikey>  (3623) 
FPYUUHWSAQVHMK-UHFFFAOYSA-N

>  <smiles>  (3623) 
Cc1oc(C2CC2)nc1CNC(=O)c1nn(C(F)(F)F)c2ccccc12

>  <ref_pdb>  (3623) 
A0514a

>  <alias>  (3623) 
FPYUUHWSAQVHMK-UHFFFAOYSA-N-P177-P126-P177-601502

>  <HIPPO Pose ID>  (3623) 
503063

>  <name>  (3623) 
FPYUUHWSAQVHMK-UHFFFAOYSA-N-P177-P126-P177-601502

>  <HIPPO Compound ID>  (3623) 
299349

>  <ref_mols>  (3623) 
A3403a,A2290a

>  <distance_score>  (3623) 
0.69781

>  <inspiration_score>  (3623) 
None

$$$$
XOCZJRGSMWMOPV-UHFFFAOYSA-N-P177-P126-P177-601502
     RDKit          3D

 26 28  0  0  0  0  0  0  0  0999 V2000
    9.6965   13.9642   20.4716 C   0  0  0  0  0  0  0  0  0  0  0  0
   10.8474   14.8054   19.9073 C   0  0  0  0  0  0  0  0  0  0  0  0
   10.7667   14.9415   18.4132 C   0  0  0  0  0  0  0  0  0  0  0  0
   12.2162   14.2699   20.2822 C   0  0  0  0  0  0  0  0  0  0  0  0
   10.4942   16.0504   20.5686 C   0  0  0  0  0  0  0  0  0  0  0  0
    9.6549   16.9021   19.9144 O   0  0  0  0  0  0  0  0  0  0  0  0
    8.7952   17.2670   20.8953 C   0  0  0  0  0  0  0  0  0  0  0  0
    9.0063   16.6651   22.0426 N   0  0  0  0  0  0  0  0  0  0  0  0
   10.2639   16.1184   21.9127 C   0  0  0  0  0  0  0  0  0  0  0  0
   11.0878   15.4865   22.9805 C   0  0  0  0  0  0  0  0  0  0  0  0
   10.5665   14.2822   23.4981 N   0  0  0  0  0  0  0  0  0  0  0  0
    9.7976   14.0101   24.7715 C   0  0  0  0  0  0  0  0  0  0  0  0
    9.5262   14.7142   25.6521 O   0  0  0  0  0  0  0  0  0  0  0  0
    9.3179   12.6274   24.6799 C   0  0  0  0  0  0  0  0  0  0  0  0
    9.8271   11.7311   23.8058 N   0  0  0  0  0  0  0  0  0  0  0  0
    9.0451   10.6219   23.9713 N   0  0  0  0  0  0  0  0  0  0  0  0
    9.2508    9.3926   23.1832 C   0  0  0  0  0  0  0  0  0  0  0  0
    9.6987    9.6465   21.9371 F   0  0  0  0  0  0  0  0  0  0  0  0
    8.0901    8.7119   23.0441 F   0  0  0  0  0  0  0  0  0  0  0  0
   10.1319    8.5509   23.7699 F   0  0  0  0  0  0  0  0  0  0  0  0
    8.0802   10.8118   24.9419 C   0  0  0  0  0  0  0  0  0  0  0  0
    7.0864    9.9882   25.4567 C   0  0  0  0  0  0  0  0  0  0  0  0
    6.2487   10.4965   26.4538 C   0  0  0  0  0  0  0  0  0  0  0  0
    6.3762   11.8000   26.9081 C   0  0  0  0  0  0  0  0  0  0  0  0
    7.3686   12.6207   26.3866 C   0  0  0  0  0  0  0  0  0  0  0  0
    8.2373   12.1066   25.4083 C   0  0  0  0  0  0  0  0  0  0  0  0
  1  2  1  0
  2  3  1  0
  2  4  1  0
  2  5  1  0
  5  6  1  0
  6  7  1  0
  7  8  2  0
  8  9  1  0
  9 10  1  0
 10 11  1  0
 11 12  1  0
 12 13  2  0
 12 14  1  0
 14 15  2  0
 15 16  1  0
 16 17  1  0
 17 18  1  0
 17 19  1  0
 17 20  1  0
 16 21  1  0
 21 22  2  0
 22 23  1  0
 23 24  2  0
 24 25  1  0
 25 26  2  0
  9  5  2  0
 26 14  1  0
 26 21  1  0
M  END
>  <energy_score>  (3624) 
-2.96454

>  <inchikey>  (3624) 
XOCZJRGSMWMOPV-UHFFFAOYSA-N

>  <smiles>  (3624) 
CC(C)(C)c1ocnc1CNC(=O)c1nn(C(F)(F)F)c2ccccc12

>  <ref_pdb>  (3624) 
A0514a

>  <alias>  (3624) 
XOCZJRGSMWMOPV-UHFFFAOYSA-N-P177-P126-P177-601502

>  <HIPPO Pose ID>  (3624) 
503071

>  <name>  (3624) 
XOCZJRGSMWMOPV-UHFFFAOYSA-N-P177-P126-P177-601502

>  <HIPPO Compound ID>  (3624) 
299353

>  <ref_mols>  (3624) 
A3403a,A2290a

>  <distance_score>  (3624) 
1.463752

>  <inspiration_score>  (3624) 
None

$$$$
JCVRTKPEZCYYOI-UHFFFAOYSA-N-P126-P126-P177-601502
     RDKit          3D

 26 28  0  0  0  0  0  0  0  0999 V2000
    8.9132   17.4397   18.1312 C   0  0  0  0  0  0  0  0  0  0  0  0
    8.2738   17.6944   19.4042 N   0  0  0  0  0  0  0  0  0  0  0  0
    7.9530   19.0779   19.5556 C   0  0  0  0  0  0  0  0  0  0  0  0
    8.8549   17.1596   20.6299 C   0  0  0  0  0  0  0  0  0  0  0  0
    9.8068   16.0236   20.5534 C   0  0  0  0  0  0  0  0  0  0  0  0
   10.5212   15.5396   21.5429 N   0  0  0  0  0  0  0  0  0  0  0  0
   11.4228   14.7185   20.9258 C   0  0  0  0  0  0  0  0  0  0  0  0
   12.4051   13.9783   21.7215 C   0  0  0  0  0  0  0  0  0  0  0  0
   11.6150   13.0859   22.4920 N   0  0  0  0  0  0  0  0  0  0  0  0
   10.9627   13.2664   23.8628 C   0  0  0  0  0  0  0  0  0  0  0  0
   11.0291   14.1475   24.6206 O   0  0  0  0  0  0  0  0  0  0  0  0
   10.0863   12.1102   24.0614 C   0  0  0  0  0  0  0  0  0  0  0  0
   10.3022   10.9981   23.3421 N   0  0  0  0  0  0  0  0  0  0  0  0
    9.4304   10.1001   23.8361 N   0  0  0  0  0  0  0  0  0  0  0  0
    9.5855    8.6854   23.5044 C   0  0  0  0  0  0  0  0  0  0  0  0
   10.8733    8.2717   23.5782 F   0  0  0  0  0  0  0  0  0  0  0  0
    9.1630    8.3785   22.2672 F   0  0  0  0  0  0  0  0  0  0  0  0
    8.8535    7.9560   24.3719 F   0  0  0  0  0  0  0  0  0  0  0  0
    8.5460   10.6514   24.7470 C   0  0  0  0  0  0  0  0  0  0  0  0
    7.4650   10.1235   25.4720 C   0  0  0  0  0  0  0  0  0  0  0  0
    6.7651   10.9794   26.3263 C   0  0  0  0  0  0  0  0  0  0  0  0
    7.1313   12.3151   26.4578 C   0  0  0  0  0  0  0  0  0  0  0  0
    8.2233   12.8271   25.7505 C   0  0  0  0  0  0  0  0  0  0  0  0
    8.9481   11.9780   24.8934 C   0  0  0  0  0  0  0  0  0  0  0  0
   11.1641   14.6703   19.5816 C   0  0  0  0  0  0  0  0  0  0  0  0
   10.1014   15.4685   19.3463 O   0  0  0  0  0  0  0  0  0  0  0  0
  1  2  1  0
  2  3  1  0
  2  4  1  0
  4  5  1  0
  5  6  2  0
  6  7  1  0
  7  8  1  0
  8  9  1  0
  9 10  1  0
 10 11  2  0
 10 12  1  0
 12 13  2  0
 13 14  1  0
 14 15  1  0
 15 16  1  0
 15 17  1  0
 15 18  1  0
 14 19  1  0
 19 20  2  0
 20 21  1  0
 21 22  2  0
 22 23  1  0
 23 24  2  0
  7 25  2  0
 25 26  1  0
 26  5  1  0
 24 12  1  0
 24 19  1  0
M  END
>  <energy_score>  (3625) 
-4.380698

>  <inchikey>  (3625) 
JCVRTKPEZCYYOI-UHFFFAOYSA-N

>  <smiles>  (3625) 
CN(C)Cc1nc(CNC(=O)c2nn(C(F)(F)F)c3ccccc23)co1

>  <ref_pdb>  (3625) 
A0514a

>  <alias>  (3625) 
JCVRTKPEZCYYOI-UHFFFAOYSA-N-P126-P126-P177-601502

>  <HIPPO Pose ID>  (3625) 
503072

>  <name>  (3625) 
JCVRTKPEZCYYOI-UHFFFAOYSA-N-P126-P126-P177-601502

>  <HIPPO Compound ID>  (3625) 
299354

>  <ref_mols>  (3625) 
A3403a,A2290a

>  <distance_score>  (3625) 
0.79052

>  <inspiration_score>  (3625) 
None

$$$$
HMTMLKUVRFCMBP-UHFFFAOYSA-N-P126-P126-P177-601502
     RDKit          3D

 26 28  0  0  0  0  0  0  0  0999 V2000
   11.9433   14.2929   18.5890 C   0  0  0  0  0  0  0  0  0  0  0  0
   11.0535   14.6977   19.6473 C   0  0  0  0  0  0  0  0  0  0  0  0
    9.8966   15.2314   19.2093 O   0  0  0  0  0  0  0  0  0  0  0  0
    9.4293   15.8433   20.3133 C   0  0  0  0  0  0  0  0  0  0  0  0
    9.2327   17.2786   20.0723 C   0  0  0  0  0  0  0  0  0  0  0  0
    8.0943   17.9185   20.7459 C   0  0  0  0  0  0  0  0  0  0  0  0
    9.2889   17.6998   18.6076 C   0  0  0  0  0  0  0  0  0  0  0  0
    9.9051   15.3448   21.4372 N   0  0  0  0  0  0  0  0  0  0  0  0
   11.0753   14.7616   21.0147 C   0  0  0  0  0  0  0  0  0  0  0  0
   12.0998   14.3118   21.9744 C   0  0  0  0  0  0  0  0  0  0  0  0
   11.4420   13.2822   22.6916 N   0  0  0  0  0  0  0  0  0  0  0  0
   10.7718   13.3000   24.0639 C   0  0  0  0  0  0  0  0  0  0  0  0
   10.7158   14.1411   24.8657 O   0  0  0  0  0  0  0  0  0  0  0  0
   10.0667   12.0266   24.1929 C   0  0  0  0  0  0  0  0  0  0  0  0
   10.4489   10.9879   23.4366 N   0  0  0  0  0  0  0  0  0  0  0  0
    9.5939    9.9933   23.7507 N   0  0  0  0  0  0  0  0  0  0  0  0
    9.6970    8.7227   23.0273 C   0  0  0  0  0  0  0  0  0  0  0  0
    8.5411    8.0381   23.0952 F   0  0  0  0  0  0  0  0  0  0  0  0
   10.6772    7.9172   23.4944 F   0  0  0  0  0  0  0  0  0  0  0  0
    9.9654    8.9170   21.7123 F   0  0  0  0  0  0  0  0  0  0  0  0
    8.6561   10.3792   24.6910 C   0  0  0  0  0  0  0  0  0  0  0  0
    7.6002    9.7077   25.3183 C   0  0  0  0  0  0  0  0  0  0  0  0
    6.7846   10.4252   26.1991 C   0  0  0  0  0  0  0  0  0  0  0  0
    7.0099   11.7757   26.4433 C   0  0  0  0  0  0  0  0  0  0  0  0
    8.0758   12.4371   25.8296 C   0  0  0  0  0  0  0  0  0  0  0  0
    8.9213   11.7211   24.9610 C   0  0  0  0  0  0  0  0  0  0  0  0
  1  2  1  0
  2  3  1  0
  3  4  1  0
  4  5  1  0
  5  6  1  0
  5  7  1  0
  4  8  2  0
  8  9  1  0
  9 10  1  0
 10 11  1  0
 11 12  1  0
 12 13  2  0
 12 14  1  0
 14 15  2  0
 15 16  1  0
 16 17  1  0
 17 18  1  0
 17 19  1  0
 17 20  1  0
 16 21  1  0
 21 22  2  0
 22 23  1  0
 23 24  2  0
 24 25  1  0
 25 26  2  0
  9  2  2  0
 26 14  1  0
 26 21  1  0
M  END
>  <energy_score>  (3626) 
-12.035969

>  <inchikey>  (3626) 
HMTMLKUVRFCMBP-UHFFFAOYSA-N

>  <smiles>  (3626) 
Cc1oc(C(C)C)nc1CNC(=O)c1nn(C(F)(F)F)c2ccccc12

>  <ref_pdb>  (3626) 
A0514a

>  <alias>  (3626) 
HMTMLKUVRFCMBP-UHFFFAOYSA-N-P126-P126-P177-601502

>  <HIPPO Pose ID>  (3626) 
503074

>  <name>  (3626) 
HMTMLKUVRFCMBP-UHFFFAOYSA-N-P126-P126-P177-601502

>  <HIPPO Compound ID>  (3626) 
299355

>  <ref_mols>  (3626) 
A3403a,A2290a

>  <distance_score>  (3626) 
0.885552

>  <inspiration_score>  (3626) 
None

$$$$
HMTMLKUVRFCMBP-UHFFFAOYSA-N-P177-P126-P177-601502
     RDKit          3D

 26 28  0  0  0  0  0  0  0  0999 V2000
   11.5184   14.6940   18.4097 C   0  0  0  0  0  0  0  0  0  0  0  0
   10.9759   15.2788   19.6260 C   0  0  0  0  0  0  0  0  0  0  0  0
    9.9537   16.1602   19.4929 O   0  0  0  0  0  0  0  0  0  0  0  0
    9.7246   16.5733   20.7758 C   0  0  0  0  0  0  0  0  0  0  0  0
    8.4667   17.2925   21.0583 C   0  0  0  0  0  0  0  0  0  0  0  0
    7.5274   16.1875   21.6003 C   0  0  0  0  0  0  0  0  0  0  0  0
    8.0686   18.1620   19.8605 C   0  0  0  0  0  0  0  0  0  0  0  0
   10.5057   16.0286   21.6741 N   0  0  0  0  0  0  0  0  0  0  0  0
   11.2604   15.1593   20.9611 C   0  0  0  0  0  0  0  0  0  0  0  0
   12.1382   14.2274   21.6566 C   0  0  0  0  0  0  0  0  0  0  0  0
   11.2944   13.3476   22.3890 N   0  0  0  0  0  0  0  0  0  0  0  0
   10.6160   13.5226   23.7514 C   0  0  0  0  0  0  0  0  0  0  0  0
   10.6988   14.3837   24.5317 O   0  0  0  0  0  0  0  0  0  0  0  0
    9.7601   12.3434   23.9570 C   0  0  0  0  0  0  0  0  0  0  0  0
    9.9712   11.2333   23.2302 N   0  0  0  0  0  0  0  0  0  0  0  0
    9.1760   10.2973   23.7827 N   0  0  0  0  0  0  0  0  0  0  0  0
    9.4048    8.8789   23.4887 C   0  0  0  0  0  0  0  0  0  0  0  0
    8.7515    8.1004   24.3761 F   0  0  0  0  0  0  0  0  0  0  0  0
   10.7082    8.5250   23.5696 F   0  0  0  0  0  0  0  0  0  0  0  0
    8.9756    8.5298   22.2543 F   0  0  0  0  0  0  0  0  0  0  0  0
    8.2807   10.8378   24.6837 C   0  0  0  0  0  0  0  0  0  0  0  0
    7.2113   10.2935   25.4027 C   0  0  0  0  0  0  0  0  0  0  0  0
    6.5393   11.1179   26.3075 C   0  0  0  0  0  0  0  0  0  0  0  0
    6.9195   12.4438   26.4870 C   0  0  0  0  0  0  0  0  0  0  0  0
    7.9865   12.9822   25.7631 C   0  0  0  0  0  0  0  0  0  0  0  0
    8.6731   12.1672   24.8458 C   0  0  0  0  0  0  0  0  0  0  0  0
  1  2  1  0
  2  3  1  0
  3  4  1  0
  4  5  1  0
  5  6  1  0
  5  7  1  0
  4  8  2  0
  8  9  1  0
  9 10  1  0
 10 11  1  0
 11 12  1  0
 12 13  2  0
 12 14  1  0
 14 15  2  0
 15 16  1  0
 16 17  1  0
 17 18  1  0
 17 19  1  0
 17 20  1  0
 16 21  1  0
 21 22  2  0
 22 23  1  0
 23 24  2  0
 24 25  1  0
 25 26  2  0
  9  2  2  0
 26 14  1  0
 26 21  1  0
M  END
>  <energy_score>  (3627) 
-32.589451

>  <inchikey>  (3627) 
HMTMLKUVRFCMBP-UHFFFAOYSA-N

>  <smiles>  (3627) 
Cc1oc(C(C)C)nc1CNC(=O)c1nn(C(F)(F)F)c2ccccc12

>  <ref_pdb>  (3627) 
A0514a

>  <alias>  (3627) 
HMTMLKUVRFCMBP-UHFFFAOYSA-N-P177-P126-P177-601502

>  <HIPPO Pose ID>  (3627) 
503075

>  <name>  (3627) 
HMTMLKUVRFCMBP-UHFFFAOYSA-N-P177-P126-P177-601502

>  <HIPPO Compound ID>  (3627) 
299355

>  <ref_mols>  (3627) 
A3403a,A2290a

>  <distance_score>  (3627) 
0.761742

>  <inspiration_score>  (3627) 
None

$$$$
HNACZIZTMHZTOB-UHFFFAOYSA-N-P126-P126-P177-601502
     RDKit          3D

 26 28  0  0  0  0  0  0  0  0999 V2000
    4.1291   12.8046   28.6112 C   0  0  0  0  0  0  0  0  0  0  0  0
    4.9495   12.0694   27.7036 O   0  0  0  0  0  0  0  0  0  0  0  0
    6.1904   12.5951   27.5429 C   0  0  0  0  0  0  0  0  0  0  0  0
    6.6398   13.5710   28.1225 O   0  0  0  0  0  0  0  0  0  0  0  0
    6.9598   11.8092   26.5483 C   0  0  0  0  0  0  0  0  0  0  0  0
    6.6857   10.4598   26.3112 C   0  0  0  0  0  0  0  0  0  0  0  0
    7.4409    9.7257   25.3918 C   0  0  0  0  0  0  0  0  0  0  0  0
    8.4679   10.3793   24.7058 C   0  0  0  0  0  0  0  0  0  0  0  0
    8.7759   11.7154   24.9448 C   0  0  0  0  0  0  0  0  0  0  0  0
    8.0130   12.4470   25.8755 C   0  0  0  0  0  0  0  0  0  0  0  0
    9.8733   11.9909   24.0924 C   0  0  0  0  0  0  0  0  0  0  0  0
   10.6199   13.2441   23.9515 C   0  0  0  0  0  0  0  0  0  0  0  0
   10.6067   14.0669   24.7750 O   0  0  0  0  0  0  0  0  0  0  0  0
   11.2555   13.2429   22.5608 N   0  0  0  0  0  0  0  0  0  0  0  0
   11.9242   14.2747   21.8507 C   0  0  0  0  0  0  0  0  0  0  0  0
   10.9123   14.9382   20.9951 C   0  0  0  0  0  0  0  0  0  0  0  0
    9.8776   15.6518   21.5330 N   0  0  0  0  0  0  0  0  0  0  0  0
    9.3448   16.2786   20.5136 C   0  0  0  0  0  0  0  0  0  0  0  0
    9.8403   15.9115   19.3057 O   0  0  0  0  0  0  0  0  0  0  0  0
   10.8439   15.0376   19.6276 C   0  0  0  0  0  0  0  0  0  0  0  0
   11.6983   14.5337   18.5602 C   0  0  0  0  0  0  0  0  0  0  0  0
   11.1284   13.4939   17.9234 F   0  0  0  0  0  0  0  0  0  0  0  0
   12.8477   14.0267   19.0859 F   0  0  0  0  0  0  0  0  0  0  0  0
   10.1753   10.9349   23.3193 N   0  0  0  0  0  0  0  0  0  0  0  0
    9.3428    9.9697   23.7285 N   0  0  0  0  0  0  0  0  0  0  0  0
    9.4295    8.6843   23.0806 C   0  0  0  0  0  0  0  0  0  0  0  0
  1  2  1  0
  2  3  1  0
  3  4  2  0
  3  5  1  0
  5  6  2  0
  6  7  1  0
  7  8  2  0
  8  9  1  0
  9 10  2  0
  9 11  1  0
 11 12  1  0
 12 13  2  0
 12 14  1  0
 14 15  1  0
 15 16  1  0
 16 17  1  0
 17 18  2  0
 18 19  1  0
 19 20  1  0
 20 21  1  0
 21 22  1  0
 21 23  1  0
 11 24  2  0
 24 25  1  0
 25 26  1  0
 10  5  1  0
 20 16  2  0
 25  8  1  0
M  END
>  <energy_score>  (3628) 
-46.071396

>  <inchikey>  (3628) 
HNACZIZTMHZTOB-UHFFFAOYSA-N

>  <smiles>  (3628) 
COC(=O)c1ccc2c(c1)c(C(=O)NCc1ncoc1C(F)F)nn2C

>  <ref_pdb>  (3628) 
A0514a

>  <alias>  (3628) 
HNACZIZTMHZTOB-UHFFFAOYSA-N-P126-P126-P177-601502

>  <HIPPO Pose ID>  (3628) 
503076

>  <name>  (3628) 
HNACZIZTMHZTOB-UHFFFAOYSA-N-P126-P126-P177-601502

>  <HIPPO Compound ID>  (3628) 
299356

>  <ref_mols>  (3628) 
A3403a,A2290a

>  <distance_score>  (3628) 
0.786341

>  <inspiration_score>  (3628) 
None

$$$$
HNACZIZTMHZTOB-UHFFFAOYSA-N-P177-P126-P177-601502
     RDKit          3D

 26 28  0  0  0  0  0  0  0  0999 V2000
    4.2234   13.2437   28.9803 C   0  0  0  0  0  0  0  0  0  0  0  0
    4.9422   12.5089   27.9890 O   0  0  0  0  0  0  0  0  0  0  0  0
    6.1729   13.0163   27.7222 C   0  0  0  0  0  0  0  0  0  0  0  0
    6.6881   13.9765   28.2717 O   0  0  0  0  0  0  0  0  0  0  0  0
    6.8376   12.2312   26.6525 C   0  0  0  0  0  0  0  0  0  0  0  0
    6.4738   10.9103   26.3783 C   0  0  0  0  0  0  0  0  0  0  0  0
    7.1375   10.1700   25.3964 C   0  0  0  0  0  0  0  0  0  0  0  0
    8.1720   10.7854   24.6945 C   0  0  0  0  0  0  0  0  0  0  0  0
    8.5548   12.0995   24.9471 C   0  0  0  0  0  0  0  0  0  0  0  0
    7.8846   12.8366   25.9416 C   0  0  0  0  0  0  0  0  0  0  0  0
    9.6057   12.3536   24.0321 C   0  0  0  0  0  0  0  0  0  0  0  0
   10.3735   13.5941   23.8478 C   0  0  0  0  0  0  0  0  0  0  0  0
   10.3758   14.4439   24.6438 O   0  0  0  0  0  0  0  0  0  0  0  0
   11.0230   13.5287   22.4642 N   0  0  0  0  0  0  0  0  0  0  0  0
   11.7274   14.5157   21.7289 C   0  0  0  0  0  0  0  0  0  0  0  0
   10.7519   15.2935   20.9386 C   0  0  0  0  0  0  0  0  0  0  0  0
    9.7921   16.0770   21.5272 N   0  0  0  0  0  0  0  0  0  0  0  0
    9.2213   16.6969   20.5233 C   0  0  0  0  0  0  0  0  0  0  0  0
    9.6805   16.3303   19.2931 O   0  0  0  0  0  0  0  0  0  0  0  0
   10.6614   15.4198   19.5747 C   0  0  0  0  0  0  0  0  0  0  0  0
   11.4390   14.8441   18.4795 C   0  0  0  0  0  0  0  0  0  0  0  0
   10.8430   13.7254   18.0074 F   0  0  0  0  0  0  0  0  0  0  0  0
   12.6490   14.4243   18.9334 F   0  0  0  0  0  0  0  0  0  0  0  0
    9.8455   11.2817   23.2570 N   0  0  0  0  0  0  0  0  0  0  0  0
    9.0058   10.3409   23.7002 N   0  0  0  0  0  0  0  0  0  0  0  0
    9.0617    9.0233   23.1112 C   0  0  0  0  0  0  0  0  0  0  0  0
  1  2  1  0
  2  3  1  0
  3  4  2  0
  3  5  1  0
  5  6  2  0
  6  7  1  0
  7  8  2  0
  8  9  1  0
  9 10  2  0
  9 11  1  0
 11 12  1  0
 12 13  2  0
 12 14  1  0
 14 15  1  0
 15 16  1  0
 16 17  1  0
 17 18  2  0
 18 19  1  0
 19 20  1  0
 20 21  1  0
 21 22  1  0
 21 23  1  0
 11 24  2  0
 24 25  1  0
 25 26  1  0
 10  5  1  0
 20 16  2  0
 25  8  1  0
M  END
>  <energy_score>  (3629) 
-47.954692

>  <inchikey>  (3629) 
HNACZIZTMHZTOB-UHFFFAOYSA-N

>  <smiles>  (3629) 
COC(=O)c1ccc2c(c1)c(C(=O)NCc1ncoc1C(F)F)nn2C

>  <ref_pdb>  (3629) 
A0514a

>  <alias>  (3629) 
HNACZIZTMHZTOB-UHFFFAOYSA-N-P177-P126-P177-601502

>  <HIPPO Pose ID>  (3629) 
503077

>  <name>  (3629) 
HNACZIZTMHZTOB-UHFFFAOYSA-N-P177-P126-P177-601502

>  <HIPPO Compound ID>  (3629) 
299356

>  <ref_mols>  (3629) 
A3403a,A2290a

>  <distance_score>  (3629) 
0.792784

>  <inspiration_score>  (3629) 
None

$$$$
JNQZTSDSUBOMBW-UHFFFAOYSA-N-P126-P126-P177-601502
     RDKit          3D

 26 28  0  0  0  0  0  0  0  0999 V2000
    8.3789   18.2304   19.1526 C   0  0  0  0  0  0  0  0  0  0  0  0
    8.6196   17.5444   20.4880 C   0  0  0  0  0  0  0  0  0  0  0  0
    9.5471   16.3864   20.4616 C   0  0  0  0  0  0  0  0  0  0  0  0
   10.0447   15.7411   21.4952 N   0  0  0  0  0  0  0  0  0  0  0  0
   11.0097   14.9333   20.9698 C   0  0  0  0  0  0  0  0  0  0  0  0
   11.9996   14.2457   21.8250 C   0  0  0  0  0  0  0  0  0  0  0  0
   11.3131   13.2217   22.5311 N   0  0  0  0  0  0  0  0  0  0  0  0
   10.6624   13.2330   23.9150 C   0  0  0  0  0  0  0  0  0  0  0  0
   10.6481   14.0583   24.7362 O   0  0  0  0  0  0  0  0  0  0  0  0
    9.9038   11.9866   24.0563 C   0  0  0  0  0  0  0  0  0  0  0  0
   10.2261   10.9124   23.3184 N   0  0  0  0  0  0  0  0  0  0  0  0
    9.3780    9.9580   23.7234 N   0  0  0  0  0  0  0  0  0  0  0  0
    9.4529    8.6703   23.0773 C   0  0  0  0  0  0  0  0  0  0  0  0
    8.4929   10.3846   24.6845 C   0  0  0  0  0  0  0  0  0  0  0  0
    7.4660    9.7417   25.3800 C   0  0  0  0  0  0  0  0  0  0  0  0
    6.6797   10.5053   26.2489 C   0  0  0  0  0  0  0  0  0  0  0  0
    6.9156   11.8724   26.4279 C   0  0  0  0  0  0  0  0  0  0  0  0
    5.9961   12.6305   27.3190 C   0  0  0  0  0  0  0  0  0  0  0  0
    4.9911   12.1484   27.8192 O   0  0  0  0  0  0  0  0  0  0  0  0
    6.4464   13.8960   27.5015 O   0  0  0  0  0  0  0  0  0  0  0  0
    5.5868   14.7158   28.2936 C   0  0  0  0  0  0  0  0  0  0  0  0
    7.9835   12.4928   25.7600 C   0  0  0  0  0  0  0  0  0  0  0  0
    8.7830   11.7311   24.8844 C   0  0  0  0  0  0  0  0  0  0  0  0
   10.9284   14.9929   19.6031 C   0  0  0  0  0  0  0  0  0  0  0  0
   11.7391   14.4296   18.5344 C   0  0  0  0  0  0  0  0  0  0  0  0
    9.9740   15.9062   19.2596 O   0  0  0  0  0  0  0  0  0  0  0  0
  1  2  1  0
  2  3  1  0
  3  4  2  0
  4  5  1  0
  5  6  1  0
  6  7  1  0
  7  8  1  0
  8  9  2  0
  8 10  1  0
 10 11  2  0
 11 12  1  0
 12 13  1  0
 12 14  1  0
 14 15  2  0
 15 16  1  0
 16 17  2  0
 17 18  1  0
 18 19  2  0
 18 20  1  0
 20 21  1  0
 17 22  1  0
 22 23  2  0
  5 24  2  0
 24 25  1  0
 24 26  1  0
 26  3  1  0
 23 10  1  0
 23 14  1  0
M  END
>  <energy_score>  (3630) 
-27.791156

>  <inchikey>  (3630) 
JNQZTSDSUBOMBW-UHFFFAOYSA-N

>  <smiles>  (3630) 
CCc1nc(CNC(=O)c2nn(C)c3ccc(C(=O)OC)cc23)c(C)o1

>  <ref_pdb>  (3630) 
A0514a

>  <alias>  (3630) 
JNQZTSDSUBOMBW-UHFFFAOYSA-N-P126-P126-P177-601502

>  <HIPPO Pose ID>  (3630) 
503078

>  <name>  (3630) 
JNQZTSDSUBOMBW-UHFFFAOYSA-N-P126-P126-P177-601502

>  <HIPPO Compound ID>  (3630) 
299357

>  <ref_mols>  (3630) 
A3403a,A2290a

>  <distance_score>  (3630) 
0.730543

>  <inspiration_score>  (3630) 
None

$$$$
CBDXMRBECUOTEW-UHFFFAOYSA-N-P126-P126-P177-601502
     RDKit          3D

 26 28  0  0  0  0  0  0  0  0999 V2000
   10.6489   14.2047   24.5888 O   0  0  0  0  0  0  0  0  0  0  0  0
   10.5871   13.4276   23.7242 C   0  0  0  0  0  0  0  0  0  0  0  0
   10.9845   13.5481   22.2497 N   0  0  0  0  0  0  0  0  0  0  0  0
   11.6246   14.6078   21.5479 C   0  0  0  0  0  0  0  0  0  0  0  0
   10.6300   15.2674   20.6628 C   0  0  0  0  0  0  0  0  0  0  0  0
   10.5199   15.1974   19.2980 C   0  0  0  0  0  0  0  0  0  0  0  0
    9.6701   16.1768   18.8794 O   0  0  0  0  0  0  0  0  0  0  0  0
    9.2908   16.8293   20.0294 C   0  0  0  0  0  0  0  0  0  0  0  0
    8.5390   18.1325   19.8525 C   0  0  0  0  0  0  0  0  0  0  0  0
    9.0641   18.8658   18.8310 F   0  0  0  0  0  0  0  0  0  0  0  0
    7.2371   18.0078   19.5318 F   0  0  0  0  0  0  0  0  0  0  0  0
    8.5815   18.8963   20.9682 F   0  0  0  0  0  0  0  0  0  0  0  0
    9.7653   16.2375   21.1185 N   0  0  0  0  0  0  0  0  0  0  0  0
    9.9650   12.1186   23.9246 C   0  0  0  0  0  0  0  0  0  0  0  0
   10.3383   11.0732   23.1776 N   0  0  0  0  0  0  0  0  0  0  0  0
    9.5657   10.0459   23.6063 N   0  0  0  0  0  0  0  0  0  0  0  0
    9.6701    8.7397   22.9457 C   0  0  0  0  0  0  0  0  0  0  0  0
   10.6086    7.9416   23.5040 F   0  0  0  0  0  0  0  0  0  0  0  0
   10.0104    8.8658   21.6429 F   0  0  0  0  0  0  0  0  0  0  0  0
    8.4958    8.0797   22.9971 F   0  0  0  0  0  0  0  0  0  0  0  0
    8.6756   10.4275   24.5933 C   0  0  0  0  0  0  0  0  0  0  0  0
    7.6796    9.7376   25.2957 C   0  0  0  0  0  0  0  0  0  0  0  0
    6.8943   10.4513   26.2062 C   0  0  0  0  0  0  0  0  0  0  0  0
    7.1001   11.8109   26.4160 C   0  0  0  0  0  0  0  0  0  0  0  0
    8.1064   12.4898   25.7240 C   0  0  0  0  0  0  0  0  0  0  0  0
    8.9089   11.7839   24.8067 C   0  0  0  0  0  0  0  0  0  0  0  0
  1  2  2  0
  2  3  1  0
  3  4  1  0
  4  5  1  0
  5  6  2  0
  6  7  1  0
  7  8  1  0
  8  9  1  0
  9 10  1  0
  9 11  1  0
  9 12  1  0
  8 13  2  0
  2 14  1  0
 14 15  2  0
 15 16  1  0
 16 17  1  0
 17 18  1  0
 17 19  1  0
 17 20  1  0
 16 21  1  0
 21 22  2  0
 22 23  1  0
 23 24  2  0
 24 25  1  0
 25 26  2  0
 13  5  1  0
 26 14  1  0
 26 21  1  0
M  END
>  <energy_score>  (3631) 
-7.693291

>  <inchikey>  (3631) 
CBDXMRBECUOTEW-UHFFFAOYSA-N

>  <smiles>  (3631) 
O=C(NCc1coc(C(F)(F)F)n1)c1nn(C(F)(F)F)c2ccccc12

>  <ref_pdb>  (3631) 
A0514a

>  <alias>  (3631) 
CBDXMRBECUOTEW-UHFFFAOYSA-N-P126-P126-P177-601502

>  <HIPPO Pose ID>  (3631) 
503080

>  <name>  (3631) 
CBDXMRBECUOTEW-UHFFFAOYSA-N-P126-P126-P177-601502

>  <HIPPO Compound ID>  (3631) 
299358

>  <ref_mols>  (3631) 
A3403a,A2290a

>  <distance_score>  (3631) 
0.702349

>  <inspiration_score>  (3631) 
None

$$$$
CBDXMRBECUOTEW-UHFFFAOYSA-N-P177-P126-P177-601502
     RDKit          3D

 26 28  0  0  0  0  0  0  0  0999 V2000
   10.6997   14.5211   24.3255 O   0  0  0  0  0  0  0  0  0  0  0  0
   10.6558   13.6225   23.5826 C   0  0  0  0  0  0  0  0  0  0  0  0
   11.3116   13.4354   22.2030 N   0  0  0  0  0  0  0  0  0  0  0  0
   12.0766   14.3428   21.4080 C   0  0  0  0  0  0  0  0  0  0  0  0
   11.1381   15.1918   20.6678 C   0  0  0  0  0  0  0  0  0  0  0  0
   10.7960   15.2052   19.3373 C   0  0  0  0  0  0  0  0  0  0  0  0
    9.8248   16.1434   19.1646 O   0  0  0  0  0  0  0  0  0  0  0  0
    9.6439   16.6723   20.4210 C   0  0  0  0  0  0  0  0  0  0  0  0
    8.5017   17.5916   20.6338 C   0  0  0  0  0  0  0  0  0  0  0  0
    7.9911   18.0724   19.4682 F   0  0  0  0  0  0  0  0  0  0  0  0
    7.5376   16.8706   21.2627 F   0  0  0  0  0  0  0  0  0  0  0  0
    8.8115   18.6678   21.3929 F   0  0  0  0  0  0  0  0  0  0  0  0
   10.4286   16.1409   21.3373 N   0  0  0  0  0  0  0  0  0  0  0  0
    9.8367   12.4187   23.8463 C   0  0  0  0  0  0  0  0  0  0  0  0
   10.0410   11.3156   23.1132 N   0  0  0  0  0  0  0  0  0  0  0  0
    9.1930   10.3872   23.5936 N   0  0  0  0  0  0  0  0  0  0  0  0
    9.1727    9.0348   23.0221 C   0  0  0  0  0  0  0  0  0  0  0  0
    9.8472    8.1424   23.7837 F   0  0  0  0  0  0  0  0  0  0  0  0
    9.6991    8.9763   21.7771 F   0  0  0  0  0  0  0  0  0  0  0  0
    7.9040    8.5901   22.9372 F   0  0  0  0  0  0  0  0  0  0  0  0
    8.3770   10.8885   24.5858 C   0  0  0  0  0  0  0  0  0  0  0  0
    7.3292   10.3188   25.3176 C   0  0  0  0  0  0  0  0  0  0  0  0
    6.6846   11.1168   26.2648 C   0  0  0  0  0  0  0  0  0  0  0  0
    7.0739   12.4367   26.4734 C   0  0  0  0  0  0  0  0  0  0  0  0
    8.1233   12.9973   25.7375 C   0  0  0  0  0  0  0  0  0  0  0  0
    8.7857   12.2111   24.7774 C   0  0  0  0  0  0  0  0  0  0  0  0
  1  2  2  0
  2  3  1  0
  3  4  1  0
  4  5  1  0
  5  6  2  0
  6  7  1  0
  7  8  1  0
  8  9  1  0
  9 10  1  0
  9 11  1  0
  9 12  1  0
  8 13  2  0
  2 14  1  0
 14 15  2  0
 15 16  1  0
 16 17  1  0
 17 18  1  0
 17 19  1  0
 17 20  1  0
 16 21  1  0
 21 22  2  0
 22 23  1  0
 23 24  2  0
 24 25  1  0
 25 26  2  0
 13  5  1  0
 26 14  1  0
 26 21  1  0
M  END
>  <energy_score>  (3632) 
-9.130032

>  <inchikey>  (3632) 
CBDXMRBECUOTEW-UHFFFAOYSA-N

>  <smiles>  (3632) 
O=C(NCc1coc(C(F)(F)F)n1)c1nn(C(F)(F)F)c2ccccc12

>  <ref_pdb>  (3632) 
A0514a

>  <alias>  (3632) 
CBDXMRBECUOTEW-UHFFFAOYSA-N-P177-P126-P177-601502

>  <HIPPO Pose ID>  (3632) 
503081

>  <name>  (3632) 
CBDXMRBECUOTEW-UHFFFAOYSA-N-P177-P126-P177-601502

>  <HIPPO Compound ID>  (3632) 
299358

>  <ref_mols>  (3632) 
A3403a,A2290a

>  <distance_score>  (3632) 
0.643339

>  <inspiration_score>  (3632) 
None

$$$$
AZACMLRHLNIMCQ-UHFFFAOYSA-N-P126-P126-P177-601502
     RDKit          3D

 26 28  0  0  0  0  0  0  0  0999 V2000
   10.7181   14.1407   24.8714 O   0  0  0  0  0  0  0  0  0  0  0  0
   10.7016   13.3648   24.0037 C   0  0  0  0  0  0  0  0  0  0  0  0
   11.2752   13.4468   22.5883 N   0  0  0  0  0  0  0  0  0  0  0  0
   11.9028   14.5222   21.9087 C   0  0  0  0  0  0  0  0  0  0  0  0
   10.8976   15.0830   20.9780 C   0  0  0  0  0  0  0  0  0  0  0  0
    9.8687   15.8594   21.4290 N   0  0  0  0  0  0  0  0  0  0  0  0
    9.3573   16.3929   20.3495 C   0  0  0  0  0  0  0  0  0  0  0  0
    9.8495   15.8898   19.1908 O   0  0  0  0  0  0  0  0  0  0  0  0
   10.8414   15.0386   19.6070 C   0  0  0  0  0  0  0  0  0  0  0  0
   11.7056   14.4110   18.6173 C   0  0  0  0  0  0  0  0  0  0  0  0
   11.0860   13.4550   17.9097 F   0  0  0  0  0  0  0  0  0  0  0  0
   12.7621   13.7964   19.2188 F   0  0  0  0  0  0  0  0  0  0  0  0
   12.2484   15.2792   17.7484 F   0  0  0  0  0  0  0  0  0  0  0  0
   10.0030   12.0849   24.1110 C   0  0  0  0  0  0  0  0  0  0  0  0
   10.3895   11.0550   23.3458 N   0  0  0  0  0  0  0  0  0  0  0  0
    9.5620   10.0383   23.6876 N   0  0  0  0  0  0  0  0  0  0  0  0
    9.6734    8.7526   22.9865 C   0  0  0  0  0  0  0  0  0  0  0  0
    9.9951    8.9241   21.6840 F   0  0  0  0  0  0  0  0  0  0  0  0
    8.5094    8.0767   23.0340 F   0  0  0  0  0  0  0  0  0  0  0  0
   10.6320    7.9533   23.5071 F   0  0  0  0  0  0  0  0  0  0  0  0
    8.6431   10.4088   24.6534 C   0  0  0  0  0  0  0  0  0  0  0  0
    7.6163    9.7172   25.3064 C   0  0  0  0  0  0  0  0  0  0  0  0
    6.8099   10.4192   26.2078 C   0  0  0  0  0  0  0  0  0  0  0  0
    7.0219   11.7714   26.4543 C   0  0  0  0  0  0  0  0  0  0  0  0
    8.0614   12.4519   25.8161 C   0  0  0  0  0  0  0  0  0  0  0  0
    8.8897   11.7547   24.9158 C   0  0  0  0  0  0  0  0  0  0  0  0
  1  2  2  0
  2  3  1  0
  3  4  1  0
  4  5  1  0
  5  6  1  0
  6  7  2  0
  7  8  1  0
  8  9  1  0
  9 10  1  0
 10 11  1  0
 10 12  1  0
 10 13  1  0
  2 14  1  0
 14 15  2  0
 15 16  1  0
 16 17  1  0
 17 18  1  0
 17 19  1  0
 17 20  1  0
 16 21  1  0
 21 22  2  0
 22 23  1  0
 23 24  2  0
 24 25  1  0
 25 26  2  0
  9  5  2  0
 26 14  1  0
 26 21  1  0
M  END
>  <energy_score>  (3633) 
-11.305515

>  <inchikey>  (3633) 
AZACMLRHLNIMCQ-UHFFFAOYSA-N

>  <smiles>  (3633) 
O=C(NCc1ncoc1C(F)(F)F)c1nn(C(F)(F)F)c2ccccc12

>  <ref_pdb>  (3633) 
A0514a

>  <alias>  (3633) 
AZACMLRHLNIMCQ-UHFFFAOYSA-N-P126-P126-P177-601502

>  <HIPPO Pose ID>  (3633) 
503082

>  <name>  (3633) 
AZACMLRHLNIMCQ-UHFFFAOYSA-N-P126-P126-P177-601502

>  <HIPPO Compound ID>  (3633) 
299359

>  <ref_mols>  (3633) 
A3403a,A2290a

>  <distance_score>  (3633) 
0.779835

>  <inspiration_score>  (3633) 
None

$$$$
AZACMLRHLNIMCQ-UHFFFAOYSA-N-P177-P126-P177-601502
     RDKit          3D

 26 28  0  0  0  0  0  0  0  0999 V2000
   10.2730   14.6170   24.6758 O   0  0  0  0  0  0  0  0  0  0  0  0
   10.3329   13.7721   23.8776 C   0  0  0  0  0  0  0  0  0  0  0  0
   11.0232   13.7437   22.5131 N   0  0  0  0  0  0  0  0  0  0  0  0
   11.7004   14.7657   21.8018 C   0  0  0  0  0  0  0  0  0  0  0  0
   10.7345   15.4270   20.9075 C   0  0  0  0  0  0  0  0  0  0  0  0
    9.7692   16.2689   21.3935 N   0  0  0  0  0  0  0  0  0  0  0  0
    9.2185   16.7816   20.3226 C   0  0  0  0  0  0  0  0  0  0  0  0
    9.6867   16.2747   19.1473 O   0  0  0  0  0  0  0  0  0  0  0  0
   10.6656   15.3998   19.5379 C   0  0  0  0  0  0  0  0  0  0  0  0
   11.4622   14.6998   18.5344 C   0  0  0  0  0  0  0  0  0  0  0  0
   10.7682   13.7115   17.9355 F   0  0  0  0  0  0  0  0  0  0  0  0
   12.5331   14.0868   19.1024 F   0  0  0  0  0  0  0  0  0  0  0  0
   11.9582   15.5122   17.5819 F   0  0  0  0  0  0  0  0  0  0  0  0
    9.6260   12.4957   24.0473 C   0  0  0  0  0  0  0  0  0  0  0  0
    9.9560   11.4253   23.3070 N   0  0  0  0  0  0  0  0  0  0  0  0
    9.1835   10.4209   23.7854 N   0  0  0  0  0  0  0  0  0  0  0  0
    9.4750    9.0268   23.4275 C   0  0  0  0  0  0  0  0  0  0  0  0
    9.2441    8.7633   22.1237 F   0  0  0  0  0  0  0  0  0  0  0  0
    8.7191    8.1833   24.1587 F   0  0  0  0  0  0  0  0  0  0  0  0
   10.7580    8.6877   23.6916 F   0  0  0  0  0  0  0  0  0  0  0  0
    8.2532   10.8669   24.7051 C   0  0  0  0  0  0  0  0  0  0  0  0
    7.2104   10.2332   25.3884 C   0  0  0  0  0  0  0  0  0  0  0  0
    6.4813   10.9746   26.3208 C   0  0  0  0  0  0  0  0  0  0  0  0
    6.7742   12.3120   26.5577 C   0  0  0  0  0  0  0  0  0  0  0  0
    7.8077   12.9430   25.8633 C   0  0  0  0  0  0  0  0  0  0  0  0
    8.5553   12.2080   24.9251 C   0  0  0  0  0  0  0  0  0  0  0  0
  1  2  2  0
  2  3  1  0
  3  4  1  0
  4  5  1  0
  5  6  1  0
  6  7  2  0
  7  8  1  0
  8  9  1  0
  9 10  1  0
 10 11  1  0
 10 12  1  0
 10 13  1  0
  2 14  1  0
 14 15  2  0
 15 16  1  0
 16 17  1  0
 17 18  1  0
 17 19  1  0
 17 20  1  0
 16 21  1  0
 21 22  2  0
 22 23  1  0
 23 24  2  0
 24 25  1  0
 25 26  2  0
  9  5  2  0
 26 14  1  0
 26 21  1  0
M  END
>  <energy_score>  (3634) 
-12.870946

>  <inchikey>  (3634) 
AZACMLRHLNIMCQ-UHFFFAOYSA-N

>  <smiles>  (3634) 
O=C(NCc1ncoc1C(F)(F)F)c1nn(C(F)(F)F)c2ccccc12

>  <ref_pdb>  (3634) 
A0514a

>  <alias>  (3634) 
AZACMLRHLNIMCQ-UHFFFAOYSA-N-P177-P126-P177-601502

>  <HIPPO Pose ID>  (3634) 
503083

>  <name>  (3634) 
AZACMLRHLNIMCQ-UHFFFAOYSA-N-P177-P126-P177-601502

>  <HIPPO Compound ID>  (3634) 
299359

>  <ref_mols>  (3634) 
A3403a,A2290a

>  <distance_score>  (3634) 
0.784127

>  <inspiration_score>  (3634) 
None

$$$$
YRPZFPSGYZSAKB-UHFFFAOYSA-N-P126-P126-P177-601502
     RDKit          3D

 26 28  0  0  0  0  0  0  0  0999 V2000
   11.8705   14.4178   18.0951 C   0  0  0  0  0  0  0  0  0  0  0  0
   12.7146   13.7840   19.0072 O   0  0  0  0  0  0  0  0  0  0  0  0
   12.6434   14.2455   20.3240 C   0  0  0  0  0  0  0  0  0  0  0  0
   11.3425   14.7411   20.7598 C   0  0  0  0  0  0  0  0  0  0  0  0
   10.4534   15.4315   19.9885 O   0  0  0  0  0  0  0  0  0  0  0  0
    9.4492   15.7121   20.8466 C   0  0  0  0  0  0  0  0  0  0  0  0
    9.5834   15.1655   22.0319 N   0  0  0  0  0  0  0  0  0  0  0  0
   10.8797   14.7391   22.0319 C   0  0  0  0  0  0  0  0  0  0  0  0
   11.6494   14.3182   23.2098 C   0  0  0  0  0  0  0  0  0  0  0  0
   10.8971   13.2861   23.7583 N   0  0  0  0  0  0  0  0  0  0  0  0
   10.0164   13.2567   24.9845 C   0  0  0  0  0  0  0  0  0  0  0  0
    9.8252   14.0647   25.7935 O   0  0  0  0  0  0  0  0  0  0  0  0
    9.3365   11.9769   24.9015 C   0  0  0  0  0  0  0  0  0  0  0  0
    9.7863   11.0379   24.0445 N   0  0  0  0  0  0  0  0  0  0  0  0
    8.9324   10.0217   24.1923 N   0  0  0  0  0  0  0  0  0  0  0  0
    9.1390    8.8593   23.3607 C   0  0  0  0  0  0  0  0  0  0  0  0
    7.9581   10.2835   25.1283 C   0  0  0  0  0  0  0  0  0  0  0  0
    6.8925    9.5472   25.6287 C   0  0  0  0  0  0  0  0  0  0  0  0
    6.0445   10.1273   26.5780 C   0  0  0  0  0  0  0  0  0  0  0  0
    6.2466   11.4335   27.0184 C   0  0  0  0  0  0  0  0  0  0  0  0
    5.3727   12.0611   28.0393 C   0  0  0  0  0  0  0  0  0  0  0  0
    5.7275   12.9834   28.7550 O   0  0  0  0  0  0  0  0  0  0  0  0
    4.1521   11.4664   28.0463 O   0  0  0  0  0  0  0  0  0  0  0  0
    3.2444   12.0347   28.9913 C   0  0  0  0  0  0  0  0  0  0  0  0
    7.3263   12.1717   26.5241 C   0  0  0  0  0  0  0  0  0  0  0  0
    8.1850   11.5763   25.5820 C   0  0  0  0  0  0  0  0  0  0  0  0
  1  2  1  0
  2  3  1  0
  3  4  1  0
  4  5  1  0
  5  6  1  0
  6  7  2  0
  7  8  1  0
  8  9  1  0
  9 10  1  0
 10 11  1  0
 11 12  2  0
 11 13  1  0
 13 14  2  0
 14 15  1  0
 15 16  1  0
 15 17  1  0
 17 18  2  0
 18 19  1  0
 19 20  2  0
 20 21  1  0
 21 22  2  0
 21 23  1  0
 23 24  1  0
 20 25  1  0
 25 26  2  0
  8  4  2  0
 26 13  1  0
 26 17  1  0
M  END
>  <energy_score>  (3635) 
-10.730777

>  <inchikey>  (3635) 
YRPZFPSGYZSAKB-UHFFFAOYSA-N

>  <smiles>  (3635) 
COCc1ocnc1CNC(=O)c1nn(C)c2ccc(C(=O)OC)cc12

>  <ref_pdb>  (3635) 
A0514a

>  <alias>  (3635) 
YRPZFPSGYZSAKB-UHFFFAOYSA-N-P126-P126-P177-601502

>  <HIPPO Pose ID>  (3635) 
503084

>  <name>  (3635) 
YRPZFPSGYZSAKB-UHFFFAOYSA-N-P126-P126-P177-601502

>  <HIPPO Compound ID>  (3635) 
299360

>  <ref_mols>  (3635) 
A3403a,A2290a

>  <distance_score>  (3635) 
1.500704

>  <inspiration_score>  (3635) 
None

$$$$
YRPZFPSGYZSAKB-UHFFFAOYSA-N-P177-P126-P177-601502
     RDKit          3D

 26 28  0  0  0  0  0  0  0  0999 V2000
   10.9846   14.3157   18.1698 C   0  0  0  0  0  0  0  0  0  0  0  0
    9.9693   15.2692   18.4137 O   0  0  0  0  0  0  0  0  0  0  0  0
   10.4761   16.2264   19.2835 C   0  0  0  0  0  0  0  0  0  0  0  0
    9.7767   16.0734   20.5219 C   0  0  0  0  0  0  0  0  0  0  0  0
    8.5826   16.6899   20.6401 O   0  0  0  0  0  0  0  0  0  0  0  0
    8.1429   16.2668   21.8426 C   0  0  0  0  0  0  0  0  0  0  0  0
    8.9660   15.4722   22.4879 N   0  0  0  0  0  0  0  0  0  0  0  0
   10.0724   15.3997   21.6652 C   0  0  0  0  0  0  0  0  0  0  0  0
   11.2932   14.6252   22.0100 C   0  0  0  0  0  0  0  0  0  0  0  0
   10.7619   13.5467   22.7385 N   0  0  0  0  0  0  0  0  0  0  0  0
   10.3781   13.4383   24.2068 C   0  0  0  0  0  0  0  0  0  0  0  0
   10.5081   14.1962   25.0786 O   0  0  0  0  0  0  0  0  0  0  0  0
    9.6762   12.1729   24.3482 C   0  0  0  0  0  0  0  0  0  0  0  0
    9.9105   11.1474   23.5134 N   0  0  0  0  0  0  0  0  0  0  0  0
    9.0037   10.2272   23.8550 N   0  0  0  0  0  0  0  0  0  0  0  0
    9.0139    8.9629   23.1603 C   0  0  0  0  0  0  0  0  0  0  0  0
    8.1432   10.6548   24.8355 C   0  0  0  0  0  0  0  0  0  0  0  0
    7.0453   10.0671   25.4521 C   0  0  0  0  0  0  0  0  0  0  0  0
    6.3542   10.7933   26.4268 C   0  0  0  0  0  0  0  0  0  0  0  0
    6.7419   12.0888   26.7686 C   0  0  0  0  0  0  0  0  0  0  0  0
    6.0370   12.8654   27.8183 C   0  0  0  0  0  0  0  0  0  0  0  0
    6.5453   13.7963   28.4219 O   0  0  0  0  0  0  0  0  0  0  0  0
    4.7791   12.3873   27.9991 O   0  0  0  0  0  0  0  0  0  0  0  0
    4.0235   13.1187   28.9655 C   0  0  0  0  0  0  0  0  0  0  0  0
    7.8529   12.6709   26.1464 C   0  0  0  0  0  0  0  0  0  0  0  0
    8.5645   11.9311   25.1827 C   0  0  0  0  0  0  0  0  0  0  0  0
  1  2  1  0
  2  3  1  0
  3  4  1  0
  4  5  1  0
  5  6  1  0
  6  7  2  0
  7  8  1  0
  8  9  1  0
  9 10  1  0
 10 11  1  0
 11 12  2  0
 11 13  1  0
 13 14  2  0
 14 15  1  0
 15 16  1  0
 15 17  1  0
 17 18  2  0
 18 19  1  0
 19 20  2  0
 20 21  1  0
 21 22  2  0
 21 23  1  0
 23 24  1  0
 20 25  1  0
 25 26  2  0
  8  4  2  0
 26 13  1  0
 26 17  1  0
M  END
>  <energy_score>  (3636) 
-20.225814

>  <inchikey>  (3636) 
YRPZFPSGYZSAKB-UHFFFAOYSA-N

>  <smiles>  (3636) 
COCc1ocnc1CNC(=O)c1nn(C)c2ccc(C(=O)OC)cc12

>  <ref_pdb>  (3636) 
A0514a

>  <alias>  (3636) 
YRPZFPSGYZSAKB-UHFFFAOYSA-N-P177-P126-P177-601502

>  <HIPPO Pose ID>  (3636) 
503085

>  <name>  (3636) 
YRPZFPSGYZSAKB-UHFFFAOYSA-N-P177-P126-P177-601502

>  <HIPPO Compound ID>  (3636) 
299360

>  <ref_mols>  (3636) 
A3403a,A2290a

>  <distance_score>  (3636) 
1.349123

>  <inspiration_score>  (3636) 
None

$$$$
WLBYMSHEQBHWOS-UHFFFAOYSA-N-P126-P126-P177-601502
     RDKit          3D

 26 28  0  0  0  0  0  0  0  0999 V2000
    4.4363   13.1293   28.5591 C   0  0  0  0  0  0  0  0  0  0  0  0
    5.2062   12.3371   27.6550 O   0  0  0  0  0  0  0  0  0  0  0  0
    6.4504   12.8259   27.4248 C   0  0  0  0  0  0  0  0  0  0  0  0
    6.9447   13.8145   27.9435 O   0  0  0  0  0  0  0  0  0  0  0  0
    7.1652   11.9813   26.4372 C   0  0  0  0  0  0  0  0  0  0  0  0
    6.8445   10.6322   26.2573 C   0  0  0  0  0  0  0  0  0  0  0  0
    7.5547    9.8416   25.3488 C   0  0  0  0  0  0  0  0  0  0  0  0
    8.5829   10.4444   24.6153 C   0  0  0  0  0  0  0  0  0  0  0  0
    8.9374   11.7804   24.7924 C   0  0  0  0  0  0  0  0  0  0  0  0
    8.2184   12.5650   25.7145 C   0  0  0  0  0  0  0  0  0  0  0  0
   10.0221   11.9943   23.8997 C   0  0  0  0  0  0  0  0  0  0  0  0
   10.8123   13.2175   23.6877 C   0  0  0  0  0  0  0  0  0  0  0  0
   10.8524   14.0654   24.4856 O   0  0  0  0  0  0  0  0  0  0  0  0
   11.4061   13.1519   22.2759 N   0  0  0  0  0  0  0  0  0  0  0  0
   12.0904   14.1425   21.5110 C   0  0  0  0  0  0  0  0  0  0  0  0
   11.0647   14.8948   20.7567 C   0  0  0  0  0  0  0  0  0  0  0  0
   10.8311   14.9655   19.4057 C   0  0  0  0  0  0  0  0  0  0  0  0
    9.8631   15.9008   19.1874 O   0  0  0  0  0  0  0  0  0  0  0  0
    9.5599   16.3719   20.4383 C   0  0  0  0  0  0  0  0  0  0  0  0
    8.5615   17.4752   20.5422 C   0  0  0  0  0  0  0  0  0  0  0  0
    8.2567   18.0241   19.3332 F   0  0  0  0  0  0  0  0  0  0  0  0
    8.9681   18.4945   21.3323 F   0  0  0  0  0  0  0  0  0  0  0  0
   10.1847   15.7221   21.4030 N   0  0  0  0  0  0  0  0  0  0  0  0
   10.2700   10.8978   23.1657 N   0  0  0  0  0  0  0  0  0  0  0  0
    9.4228    9.9736   23.6366 N   0  0  0  0  0  0  0  0  0  0  0  0
    9.4598    8.6585   23.0465 C   0  0  0  0  0  0  0  0  0  0  0  0
  1  2  1  0
  2  3  1  0
  3  4  2  0
  3  5  1  0
  5  6  2  0
  6  7  1  0
  7  8  2  0
  8  9  1  0
  9 10  2  0
  9 11  1  0
 11 12  1  0
 12 13  2  0
 12 14  1  0
 14 15  1  0
 15 16  1  0
 16 17  2  0
 17 18  1  0
 18 19  1  0
 19 20  1  0
 20 21  1  0
 20 22  1  0
 19 23  2  0
 11 24  2  0
 24 25  1  0
 25 26  1  0
 10  5  1  0
 23 16  1  0
 25  8  1  0
M  END
>  <energy_score>  (3637) 
-25.647904

>  <inchikey>  (3637) 
WLBYMSHEQBHWOS-UHFFFAOYSA-N

>  <smiles>  (3637) 
COC(=O)c1ccc2c(c1)c(C(=O)NCc1coc(C(F)F)n1)nn2C

>  <ref_pdb>  (3637) 
A0514a

>  <alias>  (3637) 
WLBYMSHEQBHWOS-UHFFFAOYSA-N-P126-P126-P177-601502

>  <HIPPO Pose ID>  (3637) 
503098

>  <name>  (3637) 
WLBYMSHEQBHWOS-UHFFFAOYSA-N-P126-P126-P177-601502

>  <HIPPO Compound ID>  (3637) 
299367

>  <ref_mols>  (3637) 
A3403a,A2290a

>  <distance_score>  (3637) 
0.69778

>  <inspiration_score>  (3637) 
None

$$$$
WLBYMSHEQBHWOS-UHFFFAOYSA-N-P177-P126-P177-601502
     RDKit          3D

 26 28  0  0  0  0  0  0  0  0999 V2000
    4.5187   13.5494   28.9866 C   0  0  0  0  0  0  0  0  0  0  0  0
    5.1807   12.7634   27.9949 O   0  0  0  0  0  0  0  0  0  0  0  0
    6.4045   13.2371   27.6506 C   0  0  0  0  0  0  0  0  0  0  0  0
    6.9611   14.2099   28.1344 O   0  0  0  0  0  0  0  0  0  0  0  0
    7.0083   12.3976   26.5851 C   0  0  0  0  0  0  0  0  0  0  0  0
    6.5883   11.0833   26.3552 C   0  0  0  0  0  0  0  0  0  0  0  0
    7.2002   10.2922   25.3789 C   0  0  0  0  0  0  0  0  0  0  0  0
    8.2389   10.8576   24.6369 C   0  0  0  0  0  0  0  0  0  0  0  0
    8.6744   12.1667   24.8377 C   0  0  0  0  0  0  0  0  0  0  0  0
    8.0560   12.9495   25.8300 C   0  0  0  0  0  0  0  0  0  0  0  0
    9.7095   12.3630   23.8850 C   0  0  0  0  0  0  0  0  0  0  0  0
   10.5333   13.5651   23.6400 C   0  0  0  0  0  0  0  0  0  0  0  0
   10.6421   14.4117   24.4338 O   0  0  0  0  0  0  0  0  0  0  0  0
   11.1306   13.4381   22.2326 N   0  0  0  0  0  0  0  0  0  0  0  0
   11.9062   14.3592   21.4680 C   0  0  0  0  0  0  0  0  0  0  0  0
   10.9804   15.1935   20.6856 C   0  0  0  0  0  0  0  0  0  0  0  0
   10.7399   15.2178   19.3332 C   0  0  0  0  0  0  0  0  0  0  0  0
    9.8075   16.1775   19.0890 O   0  0  0  0  0  0  0  0  0  0  0  0
    9.5453   16.7174   20.3239 C   0  0  0  0  0  0  0  0  0  0  0  0
    8.5296   17.7989   20.4009 C   0  0  0  0  0  0  0  0  0  0  0  0
    8.2284   18.3189   19.1760 F   0  0  0  0  0  0  0  0  0  0  0  0
    8.9324   18.8411   21.1698 F   0  0  0  0  0  0  0  0  0  0  0  0
   10.1985   16.1296   21.3063 N   0  0  0  0  0  0  0  0  0  0  0  0
    9.8853   11.2593   23.1383 N   0  0  0  0  0  0  0  0  0  0  0  0
    9.0360   10.3578   23.6401 N   0  0  0  0  0  0  0  0  0  0  0  0
    9.0466    9.0170   23.1044 C   0  0  0  0  0  0  0  0  0  0  0  0
  1  2  1  0
  2  3  1  0
  3  4  2  0
  3  5  1  0
  5  6  2  0
  6  7  1  0
  7  8  2  0
  8  9  1  0
  9 10  2  0
  9 11  1  0
 11 12  1  0
 12 13  2  0
 12 14  1  0
 14 15  1  0
 15 16  1  0
 16 17  2  0
 17 18  1  0
 18 19  1  0
 19 20  1  0
 20 21  1  0
 20 22  1  0
 19 23  2  0
 11 24  2  0
 24 25  1  0
 25 26  1  0
 10  5  1  0
 23 16  1  0
 25  8  1  0
M  END
>  <energy_score>  (3638) 
-26.696877

>  <inchikey>  (3638) 
WLBYMSHEQBHWOS-UHFFFAOYSA-N

>  <smiles>  (3638) 
COC(=O)c1ccc2c(c1)c(C(=O)NCc1coc(C(F)F)n1)nn2C

>  <ref_pdb>  (3638) 
A0514a

>  <alias>  (3638) 
WLBYMSHEQBHWOS-UHFFFAOYSA-N-P177-P126-P177-601502

>  <HIPPO Pose ID>  (3638) 
503099

>  <name>  (3638) 
WLBYMSHEQBHWOS-UHFFFAOYSA-N-P177-P126-P177-601502

>  <HIPPO Compound ID>  (3638) 
299367

>  <ref_mols>  (3638) 
A3403a,A2290a

>  <distance_score>  (3638) 
0.649101

>  <inspiration_score>  (3638) 
None

$$$$
ONJVOXGYBGABTG-UHFFFAOYSA-N-P126-P126-P177-601502
     RDKit          3D

 26 28  0  0  0  0  0  0  0  0999 V2000
    3.9153   12.2951   28.7760 C   0  0  0  0  0  0  0  0  0  0  0  0
    4.7702   11.6740   27.8158 O   0  0  0  0  0  0  0  0  0  0  0  0
    5.9814   12.2745   27.6965 C   0  0  0  0  0  0  0  0  0  0  0  0
    6.3753   13.2386   28.3324 O   0  0  0  0  0  0  0  0  0  0  0  0
    6.7930   11.5918   26.6611 C   0  0  0  0  0  0  0  0  0  0  0  0
    6.6138   10.2391   26.3663 C   0  0  0  0  0  0  0  0  0  0  0  0
    7.4121    9.6018   25.4112 C   0  0  0  0  0  0  0  0  0  0  0  0
    8.3800   10.3513   24.7436 C   0  0  0  0  0  0  0  0  0  0  0  0
    8.5844   11.6939   25.0349 C   0  0  0  0  0  0  0  0  0  0  0  0
    7.7892   12.3303   26.0073 C   0  0  0  0  0  0  0  0  0  0  0  0
    9.6286   12.0884   24.1719 C   0  0  0  0  0  0  0  0  0  0  0  0
   10.2475   13.4059   24.0883 C   0  0  0  0  0  0  0  0  0  0  0  0
   10.3688   14.0893   25.0220 O   0  0  0  0  0  0  0  0  0  0  0  0
   10.6298   13.6444   22.6306 N   0  0  0  0  0  0  0  0  0  0  0  0
   11.3244   14.7263   22.0218 C   0  0  1  0  0  0  0  0  0  0  0  0
   12.7396   14.3156   21.7255 C   0  0  0  0  0  0  0  0  0  0  0  0
   10.5205   15.2799   20.9023 C   0  0  0  0  0  0  0  0  0  0  0  0
    9.5414   16.2070   21.1821 N   0  0  0  0  0  0  0  0  0  0  0  0
    9.2762   16.7867   20.0368 C   0  0  0  0  0  0  0  0  0  0  0  0
    8.5320   18.0451   19.7801 C   0  0  0  0  0  0  0  0  0  0  0  0
    9.8534   16.1577   18.9721 O   0  0  0  0  0  0  0  0  0  0  0  0
   10.6630   15.1999   19.5354 C   0  0  0  0  0  0  0  0  0  0  0  0
   11.5921   14.5165   18.6292 C   0  0  0  0  0  0  0  0  0  0  0  0
   10.0112   11.0949   23.3517 N   0  0  0  0  0  0  0  0  0  0  0  0
    9.2780   10.0426   23.7488 N   0  0  0  0  0  0  0  0  0  0  0  0
    9.4770    8.7769   23.0827 C   0  0  0  0  0  0  0  0  0  0  0  0
  1  2  1  0
  2  3  1  0
  3  4  2  0
  3  5  1  0
  5  6  2  0
  6  7  1  0
  7  8  2  0
  8  9  1  0
  9 10  2  0
  9 11  1  0
 11 12  1  0
 12 13  2  0
 12 14  1  0
 14 15  1  0
 15 16  1  6
 15 17  1  0
 17 18  1  0
 18 19  2  0
 19 20  1  0
 19 21  1  0
 21 22  1  0
 22 23  1  0
 11 24  2  0
 24 25  1  0
 25 26  1  0
 10  5  1  0
 22 17  2  0
 25  8  1  0
M  END
>  <energy_score>  (3639) 
-15.377123

>  <inchikey>  (3639) 
ONJVOXGYBGABTG-UHFFFAOYSA-N

>  <smiles>  (3639) 
COC(=O)c1ccc2c(c1)c(C(=O)NC(C)c1nc(C)oc1C)nn2C

>  <ref_pdb>  (3639) 
A0514a

>  <alias>  (3639) 
ONJVOXGYBGABTG-UHFFFAOYSA-N-P126-P126-P177-601502

>  <HIPPO Pose ID>  (3639) 
503100

>  <name>  (3639) 
ONJVOXGYBGABTG-UHFFFAOYSA-N-P126-P126-P177-601502

>  <HIPPO Compound ID>  (3639) 
299368

>  <ref_mols>  (3639) 
A3403a,A2290a

>  <distance_score>  (3639) 
0.855284

>  <inspiration_score>  (3639) 
None

$$$$
ONJVOXGYBGABTG-UHFFFAOYSA-N-P177-P126-P177-601502
     RDKit          3D

 26 28  0  0  0  0  0  0  0  0999 V2000
    3.8198   12.5952   29.0375 C   0  0  0  0  0  0  0  0  0  0  0  0
    4.6240   11.9929   28.0228 O   0  0  0  0  0  0  0  0  0  0  0  0
    5.8046   12.6312   27.8155 C   0  0  0  0  0  0  0  0  0  0  0  0
    6.2076   13.6121   28.4189 O   0  0  0  0  0  0  0  0  0  0  0  0
    6.5663   11.9672   26.7296 C   0  0  0  0  0  0  0  0  0  0  0  0
    6.3584   10.6267   26.4038 C   0  0  0  0  0  0  0  0  0  0  0  0
    7.1081   10.0029   25.4024 C   0  0  0  0  0  0  0  0  0  0  0  0
    8.0627   10.7512   24.7259 C   0  0  0  0  0  0  0  0  0  0  0  0
    8.2889   12.0851   25.0340 C   0  0  0  0  0  0  0  0  0  0  0  0
    7.5449   12.7073   26.0542 C   0  0  0  0  0  0  0  0  0  0  0  0
    9.2930   12.4913   24.1316 C   0  0  0  0  0  0  0  0  0  0  0  0
    9.9014   13.8186   24.0423 C   0  0  0  0  0  0  0  0  0  0  0  0
    9.9623   14.5278   24.9619 O   0  0  0  0  0  0  0  0  0  0  0  0
   10.4522   13.9803   22.6313 N   0  0  0  0  0  0  0  0  0  0  0  0
   11.1110   15.0782   22.0177 C   0  0  1  0  0  0  0  0  0  0  0  0
   12.4921   14.6504   21.6445 C   0  0  0  0  0  0  0  0  0  0  0  0
   10.3135   15.6573   20.9231 C   0  0  0  0  0  0  0  0  0  0  0  0
    9.3838   16.6151   21.2463 N   0  0  0  0  0  0  0  0  0  0  0  0
    9.0719   17.1729   20.1045 C   0  0  0  0  0  0  0  0  0  0  0  0
    8.2830   18.3988   19.8656 C   0  0  0  0  0  0  0  0  0  0  0  0
    9.6029   16.5321   19.0210 O   0  0  0  0  0  0  0  0  0  0  0  0
   10.4199   15.5709   19.5510 C   0  0  0  0  0  0  0  0  0  0  0  0
   11.2591   14.8408   18.5894 C   0  0  0  0  0  0  0  0  0  0  0  0
    9.6622   11.4922   23.3076 N   0  0  0  0  0  0  0  0  0  0  0  0
    8.9430   10.4380   23.7205 N   0  0  0  0  0  0  0  0  0  0  0  0
    9.1485    9.1486   23.0983 C   0  0  0  0  0  0  0  0  0  0  0  0
  1  2  1  0
  2  3  1  0
  3  4  2  0
  3  5  1  0
  5  6  2  0
  6  7  1  0
  7  8  2  0
  8  9  1  0
  9 10  2  0
  9 11  1  0
 11 12  1  0
 12 13  2  0
 12 14  1  0
 14 15  1  0
 15 16  1  6
 15 17  1  0
 17 18  1  0
 18 19  2  0
 19 20  1  0
 19 21  1  0
 21 22  1  0
 22 23  1  0
 11 24  2  0
 24 25  1  0
 25 26  1  0
 10  5  1  0
 22 17  2  0
 25  8  1  0
M  END
>  <energy_score>  (3640) 
-17.083067

>  <inchikey>  (3640) 
ONJVOXGYBGABTG-UHFFFAOYSA-N

>  <smiles>  (3640) 
COC(=O)c1ccc2c(c1)c(C(=O)NC(C)c1nc(C)oc1C)nn2C

>  <ref_pdb>  (3640) 
A0514a

>  <alias>  (3640) 
ONJVOXGYBGABTG-UHFFFAOYSA-N-P177-P126-P177-601502

>  <HIPPO Pose ID>  (3640) 
503101

>  <name>  (3640) 
ONJVOXGYBGABTG-UHFFFAOYSA-N-P177-P126-P177-601502

>  <HIPPO Compound ID>  (3640) 
299368

>  <ref_mols>  (3640) 
A3403a,A2290a

>  <distance_score>  (3640) 
1.006044

>  <inspiration_score>  (3640) 
None

$$$$
JGAUKBWKUIVPPH-UHFFFAOYSA-N-P126-P126-P177-601502
     RDKit          3D

 26 28  0  0  0  0  0  0  0  0999 V2000
    9.5528    8.7029   23.0289 C   0  0  0  0  0  0  0  0  0  0  0  0
    9.4176   10.0097   23.6263 N   0  0  0  0  0  0  0  0  0  0  0  0
   10.1786   11.0073   23.1513 N   0  0  0  0  0  0  0  0  0  0  0  0
    9.8354   12.0720   23.8914 C   0  0  0  0  0  0  0  0  0  0  0  0
   10.4922   13.3674   23.6988 C   0  0  0  0  0  0  0  0  0  0  0  0
   10.5737   14.1323   24.5724 O   0  0  0  0  0  0  0  0  0  0  0  0
   10.8949   13.4940   22.2281 N   0  0  0  0  0  0  0  0  0  0  0  0
   11.5661   14.5453   21.5385 C   0  0  0  0  0  0  0  0  0  0  0  0
   10.6001   15.2419   20.6527 C   0  0  0  0  0  0  0  0  0  0  0  0
   10.5158   15.2035   19.2852 C   0  0  0  0  0  0  0  0  0  0  0  0
    9.6807   16.1968   18.8724 O   0  0  0  0  0  0  0  0  0  0  0  0
    9.2863   16.8292   20.0285 C   0  0  0  0  0  0  0  0  0  0  0  0
    8.5362   18.1346   19.8607 C   0  0  0  0  0  0  0  0  0  0  0  0
    7.2347   18.0106   19.5376 F   0  0  0  0  0  0  0  0  0  0  0  0
    9.0613   18.8740   18.8438 F   0  0  0  0  0  0  0  0  0  0  0  0
    8.5788   18.8901   20.9816 F   0  0  0  0  0  0  0  0  0  0  0  0
    9.7384   16.2127   21.1142 N   0  0  0  0  0  0  0  0  0  0  0  0
    8.7775   11.7676   24.7870 C   0  0  0  0  0  0  0  0  0  0  0  0
    7.9914   12.4989   25.6996 C   0  0  0  0  0  0  0  0  0  0  0  0
    6.9830   11.8174   26.3966 C   0  0  0  0  0  0  0  0  0  0  0  0
    6.1456   12.5536   27.3417 N   0  0  0  0  0  0  0  0  0  0  0  0
    5.0031   12.1208   27.5540 O   0  0  0  0  0  0  0  0  0  0  0  0
    6.6492   13.5373   27.9017 O   0  0  0  0  0  0  0  0  0  0  0  0
    6.7712   10.4463   26.2282 C   0  0  0  0  0  0  0  0  0  0  0  0
    7.5594    9.7210   25.3318 C   0  0  0  0  0  0  0  0  0  0  0  0
    8.5388   10.4078   24.6060 C   0  0  0  0  0  0  0  0  0  0  0  0
  1  2  1  0
  2  3  1  0
  3  4  2  0
  4  5  1  0
  5  6  2  0
  5  7  1  0
  7  8  1  0
  8  9  1  0
  9 10  2  0
 10 11  1  0
 11 12  1  0
 12 13  1  0
 13 14  1  0
 13 15  1  0
 13 16  1  0
 12 17  2  0
  4 18  1  0
 18 19  2  0
 19 20  1  0
 20 21  1  0
 21 22  2  0
 21 23  1  0
 20 24  2  0
 24 25  1  0
 25 26  2  0
 26  2  1  0
 17  9  1  0
 26 18  1  0
M  CHG  2  21   1  23  -1
M  END
>  <energy_score>  (3641) 
-14.852504

>  <inchikey>  (3641) 
JGAUKBWKUIVPPH-UHFFFAOYSA-N

>  <smiles>  (3641) 
Cn1nc(C(=O)NCc2coc(C(F)(F)F)n2)c2cc([N+](=O)[O-])ccc21

>  <ref_pdb>  (3641) 
A0514a

>  <alias>  (3641) 
JGAUKBWKUIVPPH-UHFFFAOYSA-N-P126-P126-P177-601502

>  <HIPPO Pose ID>  (3641) 
503104

>  <name>  (3641) 
JGAUKBWKUIVPPH-UHFFFAOYSA-N-P126-P126-P177-601502

>  <HIPPO Compound ID>  (3641) 
299370

>  <ref_mols>  (3641) 
A3403a,A2290a

>  <distance_score>  (3641) 
0.66928

>  <inspiration_score>  (3641) 
None

$$$$
JGAUKBWKUIVPPH-UHFFFAOYSA-N-P177-P126-P177-601502
     RDKit          3D

 26 28  0  0  0  0  0  0  0  0999 V2000
    9.0795    9.0101   23.0889 C   0  0  0  0  0  0  0  0  0  0  0  0
    9.0674   10.3543   23.6157 N   0  0  0  0  0  0  0  0  0  0  0  0
    9.9176   11.2484   23.1104 N   0  0  0  0  0  0  0  0  0  0  0  0
    9.7443   12.3617   23.8412 C   0  0  0  0  0  0  0  0  0  0  0  0
   10.5874   13.5530   23.5923 C   0  0  0  0  0  0  0  0  0  0  0  0
   10.6363   14.4399   24.3476 O   0  0  0  0  0  0  0  0  0  0  0  0
   11.2530   13.3760   22.2193 N   0  0  0  0  0  0  0  0  0  0  0  0
   12.0392   14.2839   21.4439 C   0  0  0  0  0  0  0  0  0  0  0  0
   11.1251   15.1541   20.6958 C   0  0  0  0  0  0  0  0  0  0  0  0
   10.8101   15.1888   19.3587 C   0  0  0  0  0  0  0  0  0  0  0  0
    9.8511   16.1382   19.1785 O   0  0  0  0  0  0  0  0  0  0  0  0
    9.6509   16.6546   20.4373 C   0  0  0  0  0  0  0  0  0  0  0  0
    8.5126   17.5829   20.6383 C   0  0  0  0  0  0  0  0  0  0  0  0
    7.5401   16.8695   21.2633 F   0  0  0  0  0  0  0  0  0  0  0  0
    8.0121   18.0609   19.4673 F   0  0  0  0  0  0  0  0  0  0  0  0
    8.8229   18.6604   21.3947 F   0  0  0  0  0  0  0  0  0  0  0  0
   10.4109   16.1022   21.3627 N   0  0  0  0  0  0  0  0  0  0  0  0
    8.6922   12.1816   24.7814 C   0  0  0  0  0  0  0  0  0  0  0  0
    8.0587   12.9838   25.7491 C   0  0  0  0  0  0  0  0  0  0  0  0
    7.0139   12.4195   26.4992 C   0  0  0  0  0  0  0  0  0  0  0  0
    6.3669   13.2216   27.5416 N   0  0  0  0  0  0  0  0  0  0  0  0
    5.2716   12.8298   27.9701 O   0  0  0  0  0  0  0  0  0  0  0  0
    6.9790   14.2123   27.9643 O   0  0  0  0  0  0  0  0  0  0  0  0
    6.6012   11.0969   26.3049 C   0  0  0  0  0  0  0  0  0  0  0  0
    7.2279   10.2977   25.3483 C   0  0  0  0  0  0  0  0  0  0  0  0
    8.2647   10.8643   24.6024 C   0  0  0  0  0  0  0  0  0  0  0  0
  1  2  1  0
  2  3  1  0
  3  4  2  0
  4  5  1  0
  5  6  2  0
  5  7  1  0
  7  8  1  0
  8  9  1  0
  9 10  2  0
 10 11  1  0
 11 12  1  0
 12 13  1  0
 13 14  1  0
 13 15  1  0
 13 16  1  0
 12 17  2  0
  4 18  1  0
 18 19  2  0
 19 20  1  0
 20 21  1  0
 21 22  2  0
 21 23  1  0
 20 24  2  0
 24 25  1  0
 25 26  2  0
 26  2  1  0
 17  9  1  0
 26 18  1  0
M  CHG  2  21   1  23  -1
M  END
>  <energy_score>  (3642) 
-16.314545

>  <inchikey>  (3642) 
JGAUKBWKUIVPPH-UHFFFAOYSA-N

>  <smiles>  (3642) 
Cn1nc(C(=O)NCc2coc(C(F)(F)F)n2)c2cc([N+](=O)[O-])ccc21

>  <ref_pdb>  (3642) 
A0514a

>  <alias>  (3642) 
JGAUKBWKUIVPPH-UHFFFAOYSA-N-P177-P126-P177-601502

>  <HIPPO Pose ID>  (3642) 
503105

>  <name>  (3642) 
JGAUKBWKUIVPPH-UHFFFAOYSA-N-P177-P126-P177-601502

>  <HIPPO Compound ID>  (3642) 
299370

>  <ref_mols>  (3642) 
A3403a,A2290a

>  <distance_score>  (3642) 
0.680012

>  <inspiration_score>  (3642) 
None

$$$$
QHUVEXDFVMNDQQ-UHFFFAOYSA-N-P126-P126-P177-601502
     RDKit          3D

 26 29  0  0  0  0  0  0  0  0999 V2000
   11.7337   14.4473   18.6744 C   0  0  0  0  0  0  0  0  0  0  0  0
   10.8897   14.9089   19.7712 C   0  0  0  0  0  0  0  0  0  0  0  0
    9.9194   15.8176   19.4597 O   0  0  0  0  0  0  0  0  0  0  0  0
    9.3683   16.1155   20.6592 C   0  0  0  0  0  0  0  0  0  0  0  0
    9.8330   15.4128   21.6657 N   0  0  0  0  0  0  0  0  0  0  0  0
   10.8736   14.6960   21.1295 C   0  0  0  0  0  0  0  0  0  0  0  0
   11.7897   13.8965   21.9852 C   0  0  0  0  0  0  0  0  0  0  0  0
   10.9933   13.1413   22.9064 N   0  0  0  0  0  0  0  0  0  0  0  0
   10.6374   13.4143   24.3731 C   0  0  0  0  0  0  0  0  0  0  0  0
   10.9963   14.2571   25.0939 O   0  0  0  0  0  0  0  0  0  0  0  0
    9.6299   12.4300   24.7877 C   0  0  0  0  0  0  0  0  0  0  0  0
    9.7344   11.1455   24.4125 N   0  0  0  0  0  0  0  0  0  0  0  0
    8.6100   10.5783   24.8716 N   0  0  0  0  0  0  0  0  0  0  0  0
    8.2674    9.2140   24.5868 C   0  0  0  0  0  0  0  0  0  0  0  0
    8.7228    8.6450   23.2870 C   0  0  2  0  0  0  0  0  0  0  0  0
    9.7757    7.5966   23.3820 C   0  0  0  0  0  0  0  0  0  0  0  0
   10.9547    8.2580   23.1054 N   0  0  0  0  0  0  0  0  0  0  0  0
   10.4844    9.0847   22.1294 C   0  0  0  0  0  0  0  0  0  0  0  0
   10.9447    9.1388   21.0198 O   0  0  0  0  0  0  0  0  0  0  0  0
    9.3002    9.6114   22.4535 O   0  0  0  0  0  0  0  0  0  0  0  0
    7.8604   11.3897   25.6685 C   0  0  0  0  0  0  0  0  0  0  0  0
    6.7003   11.1423   26.4093 C   0  0  0  0  0  0  0  0  0  0  0  0
    6.1389   12.2267   27.0732 C   0  0  0  0  0  0  0  0  0  0  0  0
    6.7152   13.4932   26.9903 C   0  0  0  0  0  0  0  0  0  0  0  0
    7.8841   13.7150   26.2529 C   0  0  0  0  0  0  0  0  0  0  0  0
    8.4768   12.6319   25.5904 C   0  0  0  0  0  0  0  0  0  0  0  0
  1  2  1  0
  2  3  1  0
  3  4  1  0
  4  5  2  0
  5  6  1  0
  6  7  1  0
  7  8  1  0
  8  9  1  0
  9 10  2  0
  9 11  1  0
 11 12  2  0
 12 13  1  0
 13 14  1  0
 15 14  1  1
 15 16  1  0
 16 17  1  0
 17 18  1  0
 18 19  2  0
 18 20  1  0
 13 21  1  0
 21 22  2  0
 22 23  1  0
 23 24  2  0
 24 25  1  0
 25 26  2  0
  6  2  2  0
 26 11  1  0
 20 15  1  0
 26 21  1  0
M  END
>  <energy_score>  (3643) 
-5.837065

>  <inchikey>  (3643) 
QHUVEXDFVMNDQQ-UHFFFAOYSA-N

>  <smiles>  (3643) 
Cc1ocnc1CNC(=O)c1nn(CC2CNC(=O)O2)c2ccccc12

>  <ref_pdb>  (3643) 
A0514a

>  <alias>  (3643) 
QHUVEXDFVMNDQQ-UHFFFAOYSA-N-P126-P126-P177-601502

>  <HIPPO Pose ID>  (3643) 
503108

>  <name>  (3643) 
QHUVEXDFVMNDQQ-UHFFFAOYSA-N-P126-P126-P177-601502

>  <HIPPO Compound ID>  (3643) 
299372

>  <ref_mols>  (3643) 
A3403a,A2290a

>  <distance_score>  (3643) 
1.41983

>  <inspiration_score>  (3643) 
None

$$$$
QHUVEXDFVMNDQQ-UHFFFAOYSA-N-P177-P126-P177-601502
     RDKit          3D

 26 29  0  0  0  0  0  0  0  0999 V2000
   11.4388   14.7211   18.4285 C   0  0  0  0  0  0  0  0  0  0  0  0
   10.6913   15.4404   19.4560 C   0  0  0  0  0  0  0  0  0  0  0  0
    9.7006   16.2892   19.0568 O   0  0  0  0  0  0  0  0  0  0  0  0
    9.2642   16.8491   20.2189 C   0  0  0  0  0  0  0  0  0  0  0  0
    9.8543   16.3983   21.2955 N   0  0  0  0  0  0  0  0  0  0  0  0
   10.7966   15.5215   20.8207 C   0  0  0  0  0  0  0  0  0  0  0  0
   11.7369   14.8394   21.7265 C   0  0  0  0  0  0  0  0  0  0  0  0
   10.9306   14.0487   22.5803 N   0  0  0  0  0  0  0  0  0  0  0  0
   10.4355   14.3107   24.0070 C   0  0  0  0  0  0  0  0  0  0  0  0
   10.6728   15.1827   24.7402 O   0  0  0  0  0  0  0  0  0  0  0  0
    9.4665   13.2584   24.2956 C   0  0  0  0  0  0  0  0  0  0  0  0
    9.4842   12.1864   23.4886 N   0  0  0  0  0  0  0  0  0  0  0  0
    8.7736   11.3027   24.1559 N   0  0  0  0  0  0  0  0  0  0  0  0
    9.3587   10.0121   24.2650 C   0  0  0  0  0  0  0  0  0  0  0  0
    8.8191    9.0856   23.3077 C   0  0  2  0  0  0  0  0  0  0  0  0
    9.4940    7.7872   23.5414 C   0  0  0  0  0  0  0  0  0  0  0  0
    8.9897    7.2098   22.3764 N   0  0  0  0  0  0  0  0  0  0  0  0
    9.1283    8.1683   21.3991 C   0  0  0  0  0  0  0  0  0  0  0  0
    9.2037    7.9667   20.1977 O   0  0  0  0  0  0  0  0  0  0  0  0
    9.2396    9.3789   22.0005 O   0  0  0  0  0  0  0  0  0  0  0  0
    7.9605   11.8257   25.1134 C   0  0  0  0  0  0  0  0  0  0  0  0
    6.9591   11.2437   25.8973 C   0  0  0  0  0  0  0  0  0  0  0  0
    6.4261   12.0378   26.9059 C   0  0  0  0  0  0  0  0  0  0  0  0
    6.8982   13.3350   27.1174 C   0  0  0  0  0  0  0  0  0  0  0  0
    7.9173   13.8873   26.3245 C   0  0  0  0  0  0  0  0  0  0  0  0
    8.4588   13.1135   25.2907 C   0  0  0  0  0  0  0  0  0  0  0  0
  1  2  1  0
  2  3  1  0
  3  4  1  0
  4  5  2  0
  5  6  1  0
  6  7  1  0
  7  8  1  0
  8  9  1  0
  9 10  2  0
  9 11  1  0
 11 12  2  0
 12 13  1  0
 13 14  1  0
 15 14  1  1
 15 16  1  0
 16 17  1  0
 17 18  1  0
 18 19  2  0
 18 20  1  0
 13 21  1  0
 21 22  2  0
 22 23  1  0
 23 24  2  0
 24 25  1  0
 25 26  2  0
  6  2  2  0
 26 11  1  0
 20 15  1  0
 26 21  1  0
M  END
>  <energy_score>  (3644) 
-19.677198

>  <inchikey>  (3644) 
QHUVEXDFVMNDQQ-UHFFFAOYSA-N

>  <smiles>  (3644) 
Cc1ocnc1CNC(=O)c1nn(CC2CNC(=O)O2)c2ccccc12

>  <ref_pdb>  (3644) 
A0514a

>  <alias>  (3644) 
QHUVEXDFVMNDQQ-UHFFFAOYSA-N-P177-P126-P177-601502

>  <HIPPO Pose ID>  (3644) 
503109

>  <name>  (3644) 
QHUVEXDFVMNDQQ-UHFFFAOYSA-N-P177-P126-P177-601502

>  <HIPPO Compound ID>  (3644) 
299372

>  <ref_mols>  (3644) 
A3403a,A2290a

>  <distance_score>  (3644) 
1.364046

>  <inspiration_score>  (3644) 
None

$$$$
YPLBILLABLQQLD-UHFFFAOYSA-N-P177-P126-P177-601502
     RDKit          3D

 26 29  0  0  0  0  0  0  0  0999 V2000
    9.2143    5.6747   22.9719 O   0  0  0  0  0  0  0  0  0  0  0  0
    9.3497    6.8864   22.9227 C   0  0  0  0  0  0  0  0  0  0  0  0
    8.8456    7.7687   22.0018 N   0  0  0  0  0  0  0  0  0  0  0  0
    9.5362    8.9958   22.1415 C   0  0  0  0  0  0  0  0  0  0  0  0
    9.7663    8.9627   23.6020 C   0  0  1  0  0  0  0  0  0  0  0  0
    8.4747    9.4522   24.2151 C   0  0  0  0  0  0  0  0  0  0  0  0
    8.5224   10.8810   24.4090 N   0  0  0  0  0  0  0  0  0  0  0  0
    9.3831   11.6388   23.7106 N   0  0  0  0  0  0  0  0  0  0  0  0
    9.3661   12.8235   24.3505 C   0  0  0  0  0  0  0  0  0  0  0  0
   10.3067   13.8957   23.9596 C   0  0  0  0  0  0  0  0  0  0  0  0
   10.5082   14.8121   24.6517 O   0  0  0  0  0  0  0  0  0  0  0  0
   10.8807   13.5454   22.5777 N   0  0  0  0  0  0  0  0  0  0  0  0
   11.7469   14.2886   21.7151 C   0  0  0  0  0  0  0  0  0  0  0  0
   10.9295   15.0766   20.7732 C   0  0  0  0  0  0  0  0  0  0  0  0
   10.8642   15.0145   19.4022 C   0  0  0  0  0  0  0  0  0  0  0  0
    9.9913   15.9657   18.9788 O   0  0  0  0  0  0  0  0  0  0  0  0
    9.5933   16.5931   20.1259 C   0  0  0  0  0  0  0  0  0  0  0  0
    8.4639   18.1172   20.1247 Br  0  0  0  0  0  0  0  0  0  0  0  0
   10.0972   16.0717   21.2221 N   0  0  0  0  0  0  0  0  0  0  0  0
    8.3769   12.8216   25.3762 C   0  0  0  0  0  0  0  0  0  0  0  0
    7.8814   13.7455   26.3068 C   0  0  0  0  0  0  0  0  0  0  0  0
    6.8525   13.3476   27.1715 C   0  0  0  0  0  0  0  0  0  0  0  0
    6.3181   12.0605   27.1225 C   0  0  0  0  0  0  0  0  0  0  0  0
    6.7960   11.1263   26.2115 C   0  0  0  0  0  0  0  0  0  0  0  0
    7.8244   11.5464   25.3632 C   0  0  0  0  0  0  0  0  0  0  0  0
   10.0052    7.5938   23.8617 O   0  0  0  0  0  0  0  0  0  0  0  0
  1  2  2  0
  2  3  1  0
  3  4  1  0
  4  5  1  0
  5  6  1  1
  6  7  1  0
  7  8  1  0
  8  9  2  0
  9 10  1  0
 10 11  2  0
 10 12  1  0
 12 13  1  0
 13 14  1  0
 14 15  2  0
 15 16  1  0
 16 17  1  0
 17 18  1  0
 17 19  2  0
  9 20  1  0
 20 21  2  0
 21 22  1  0
 22 23  2  0
 23 24  1  0
 24 25  2  0
  5 26  1  0
 26  2  1  0
 25  7  1  0
 19 14  1  0
 25 20  1  0
M  END
>  <energy_score>  (3645) 
-20.488832

>  <inchikey>  (3645) 
YPLBILLABLQQLD-UHFFFAOYSA-N

>  <smiles>  (3645) 
O=C1NCC(Cn2nc(C(=O)NCc3coc(Br)n3)c3ccccc32)O1

>  <ref_pdb>  (3645) 
A0514a

>  <alias>  (3645) 
YPLBILLABLQQLD-UHFFFAOYSA-N-P177-P126-P177-601502

>  <HIPPO Pose ID>  (3645) 
503113

>  <name>  (3645) 
YPLBILLABLQQLD-UHFFFAOYSA-N-P177-P126-P177-601502

>  <HIPPO Compound ID>  (3645) 
299374

>  <ref_mols>  (3645) 
A3403a,A2290a

>  <distance_score>  (3645) 
1.221222

>  <inspiration_score>  (3645) 
None

$$$$
SLNOZFXAWYTXRN-UHFFFAOYSA-N-P126-P126-P177-601502
     RDKit          3D

 26 28  0  0  0  0  0  0  0  0999 V2000
    3.2030   12.0418   28.9915 C   0  0  0  0  0  0  0  0  0  0  0  0
    4.1158   11.4736   28.0517 O   0  0  0  0  0  0  0  0  0  0  0  0
    5.3463   12.0468   28.0727 C   0  0  0  0  0  0  0  0  0  0  0  0
    5.7032   12.9562   28.8041 O   0  0  0  0  0  0  0  0  0  0  0  0
    6.2280   11.4154   27.0606 C   0  0  0  0  0  0  0  0  0  0  0  0
    6.0062   10.1227   26.5928 C   0  0  0  0  0  0  0  0  0  0  0  0
    6.8584    9.5415   25.6477 C   0  0  0  0  0  0  0  0  0  0  0  0
    7.9537   10.2581   25.1851 C   0  0  0  0  0  0  0  0  0  0  0  0
    8.2042   11.5336   25.6736 C   0  0  0  0  0  0  0  0  0  0  0  0
    7.3340   12.1362   26.6010 C   0  0  0  0  0  0  0  0  0  0  0  0
    9.3717   11.9262   25.0154 C   0  0  0  0  0  0  0  0  0  0  0  0
   10.0061   13.2307   25.0620 C   0  0  0  0  0  0  0  0  0  0  0  0
    9.8366   14.0363   25.8778 O   0  0  0  0  0  0  0  0  0  0  0  0
   10.8085   13.2825   23.7865 N   0  0  0  0  0  0  0  0  0  0  0  0
   11.4914   14.3375   23.1884 C   0  0  0  0  0  0  0  0  0  0  0  0
   10.5130   14.7105   22.1383 C   0  0  0  0  0  0  0  0  0  0  0  0
    9.1726   14.8510   22.3967 N   0  0  0  0  0  0  0  0  0  0  0  0
    8.7042   15.3701   21.2889 C   0  0  0  0  0  0  0  0  0  0  0  0
    9.5562   15.3476   20.2395 O   0  0  0  0  0  0  0  0  0  0  0  0
   10.6940   14.8558   20.7997 C   0  0  0  0  0  0  0  0  0  0  0  0
   11.8904   14.6708   20.0143 C   0  0  0  0  0  0  0  0  0  0  0  0
   11.6443   14.6678   18.5444 C   0  0  0  0  0  0  0  0  0  0  0  0
   12.7469   13.5606   20.4954 C   0  0  0  0  0  0  0  0  0  0  0  0
    9.8129   10.9968   24.1433 N   0  0  0  0  0  0  0  0  0  0  0  0
    8.9366    9.9956   24.2583 N   0  0  0  0  0  0  0  0  0  0  0  0
    9.1240    8.8571   23.3903 C   0  0  0  0  0  0  0  0  0  0  0  0
  1  2  1  0
  2  3  1  0
  3  4  2  0
  3  5  1  0
  5  6  2  0
  6  7  1  0
  7  8  2  0
  8  9  1  0
  9 10  2  0
  9 11  1  0
 11 12  1  0
 12 13  2  0
 12 14  1  0
 14 15  1  0
 15 16  1  0
 16 17  1  0
 17 18  2  0
 18 19  1  0
 19 20  1  0
 20 21  1  0
 21 22  1  0
 21 23  1  0
 11 24  2  0
 24 25  1  0
 25 26  1  0
 10  5  1  0
 20 16  2  0
 25  8  1  0
M  END
>  <energy_score>  (3646) 
-6.66864

>  <inchikey>  (3646) 
SLNOZFXAWYTXRN-UHFFFAOYSA-N

>  <smiles>  (3646) 
COC(=O)c1ccc2c(c1)c(C(=O)NCc1ncoc1C(C)C)nn2C

>  <ref_pdb>  (3646) 
A0514a

>  <alias>  (3646) 
SLNOZFXAWYTXRN-UHFFFAOYSA-N-P126-P126-P177-601502

>  <HIPPO Pose ID>  (3646) 
503114

>  <name>  (3646) 
SLNOZFXAWYTXRN-UHFFFAOYSA-N-P126-P126-P177-601502

>  <HIPPO Compound ID>  (3646) 
299375

>  <ref_mols>  (3646) 
A3403a,A2290a

>  <distance_score>  (3646) 
1.63561

>  <inspiration_score>  (3646) 
None

$$$$
SLNOZFXAWYTXRN-UHFFFAOYSA-N-P177-P126-P177-601502
     RDKit          3D

 26 28  0  0  0  0  0  0  0  0999 V2000
    3.8810   12.6294   28.9151 C   0  0  0  0  0  0  0  0  0  0  0  0
    4.7011   12.0406   27.9047 O   0  0  0  0  0  0  0  0  0  0  0  0
    5.8914   12.6731   27.7369 C   0  0  0  0  0  0  0  0  0  0  0  0
    6.2921   13.6327   28.3747 O   0  0  0  0  0  0  0  0  0  0  0  0
    6.6683   12.0306   26.6487 C   0  0  0  0  0  0  0  0  0  0  0  0
    6.4649   10.6945   26.2978 C   0  0  0  0  0  0  0  0  0  0  0  0
    7.2291   10.0887   25.2971 C   0  0  0  0  0  0  0  0  0  0  0  0
    8.1939   10.8578   24.6500 C   0  0  0  0  0  0  0  0  0  0  0  0
    8.4203   12.1878   24.9803 C   0  0  0  0  0  0  0  0  0  0  0  0
    7.6553   12.7868   26.0001 C   0  0  0  0  0  0  0  0  0  0  0  0
    9.4462   12.6182   24.0991 C   0  0  0  0  0  0  0  0  0  0  0  0
   10.0411   13.9690   24.0456 C   0  0  0  0  0  0  0  0  0  0  0  0
   10.0325   14.6586   24.9833 O   0  0  0  0  0  0  0  0  0  0  0  0
   10.5905   14.2135   22.6398 N   0  0  0  0  0  0  0  0  0  0  0  0
   11.1621   15.3890   22.0555 C   0  0  0  0  0  0  0  0  0  0  0  0
   10.2198   16.1148   21.1592 C   0  0  0  0  0  0  0  0  0  0  0  0
    9.2149   16.9093   21.6373 N   0  0  0  0  0  0  0  0  0  0  0  0
    8.7671   17.5514   20.5905 C   0  0  0  0  0  0  0  0  0  0  0  0
    9.2607   17.1115   19.4120 O   0  0  0  0  0  0  0  0  0  0  0  0
   10.1305   16.1395   19.7847 C   0  0  0  0  0  0  0  0  0  0  0  0
   10.5291   15.2145   18.7433 C   0  0  0  0  0  0  0  0  0  0  0  0
   10.7299   13.9123   19.3987 C   0  0  0  0  0  0  0  0  0  0  0  0
   11.7924   15.3721   17.9817 C   0  0  0  0  0  0  0  0  0  0  0  0
    9.8294   11.6246   23.2734 N   0  0  0  0  0  0  0  0  0  0  0  0
    9.0892   10.5648   23.6524 N   0  0  0  0  0  0  0  0  0  0  0  0
    9.2995    9.2737   23.0320 C   0  0  0  0  0  0  0  0  0  0  0  0
  1  2  1  0
  2  3  1  0
  3  4  2  0
  3  5  1  0
  5  6  2  0
  6  7  1  0
  7  8  2  0
  8  9  1  0
  9 10  2  0
  9 11  1  0
 11 12  1  0
 12 13  2  0
 12 14  1  0
 14 15  1  0
 15 16  1  0
 16 17  1  0
 17 18  2  0
 18 19  1  0
 19 20  1  0
 20 21  1  0
 21 22  1  0
 21 23  1  0
 11 24  2  0
 24 25  1  0
 25 26  1  0
 10  5  1  0
 20 16  2  0
 25  8  1  0
M  END
>  <energy_score>  (3647) 
-10.614201

>  <inchikey>  (3647) 
SLNOZFXAWYTXRN-UHFFFAOYSA-N

>  <smiles>  (3647) 
COC(=O)c1ccc2c(c1)c(C(=O)NCc1ncoc1C(C)C)nn2C

>  <ref_pdb>  (3647) 
A0514a

>  <alias>  (3647) 
SLNOZFXAWYTXRN-UHFFFAOYSA-N-P177-P126-P177-601502

>  <HIPPO Pose ID>  (3647) 
503115

>  <name>  (3647) 
SLNOZFXAWYTXRN-UHFFFAOYSA-N-P177-P126-P177-601502

>  <HIPPO Compound ID>  (3647) 
299375

>  <ref_mols>  (3647) 
A3403a,A2290a

>  <distance_score>  (3647) 
1.077783

>  <inspiration_score>  (3647) 
None

$$$$
JXTJLOGAGCEOCS-UHFFFAOYSA-N-P177-P126-P177-601502
     RDKit          3D

 27 30  0  0  0  0  0  0  0  0999 V2000
   12.3623   13.7985   23.1893 C   0  0  0  0  0  0  0  0  0  0  0  0
   12.0522   14.9419   22.2004 C   0  0  0  0  0  0  0  0  0  0  0  0
   10.9783   14.5264   21.2155 C   0  0  1  0  0  0  0  0  0  0  0  0
   10.1014   13.6882   21.9479 N   0  0  0  0  0  0  0  0  0  0  0  0
    9.1716   14.0054   23.1253 C   0  0  0  0  0  0  0  0  0  0  0  0
    8.9178   15.0186   23.6329 O   0  0  0  0  0  0  0  0  0  0  0  0
    8.6899   12.7364   23.6139 C   0  0  0  0  0  0  0  0  0  0  0  0
    9.2299   11.6410   23.0721 N   0  0  0  0  0  0  0  0  0  0  0  0
    9.0221   10.7039   23.9744 N   0  0  0  0  0  0  0  0  0  0  0  0
    9.8897    9.5746   23.8202 C   0  0  0  0  0  0  0  0  0  0  0  0
    9.1746    8.3221   23.7171 C   0  0  1  0  0  0  0  0  0  0  0  0
    8.5331    8.3879   22.3991 C   0  0  0  0  0  0  0  0  0  0  0  0
    8.5053    7.0517   22.0296 N   0  0  0  0  0  0  0  0  0  0  0  0
    9.2737    6.2993   22.8895 C   0  0  0  0  0  0  0  0  0  0  0  0
    9.2950    5.0886   23.0048 O   0  0  0  0  0  0  0  0  0  0  0  0
    9.9800    7.1720   23.6603 O   0  0  0  0  0  0  0  0  0  0  0  0
    8.0101   11.0265   24.8372 C   0  0  0  0  0  0  0  0  0  0  0  0
    7.1963   10.3127   25.7137 C   0  0  0  0  0  0  0  0  0  0  0  0
    6.3626   11.0274   26.5775 C   0  0  0  0  0  0  0  0  0  0  0  0
    6.3339   12.4167   26.5593 C   0  0  0  0  0  0  0  0  0  0  0  0
    7.0884   13.1267   25.6252 C   0  0  0  0  0  0  0  0  0  0  0  0
    7.8869   12.4130   24.7192 C   0  0  0  0  0  0  0  0  0  0  0  0
   10.2465   15.6062   20.5691 C   0  0  0  0  0  0  0  0  0  0  0  0
   10.1069   15.8356   19.2292 C   0  0  0  0  0  0  0  0  0  0  0  0
    9.3235   16.9331   19.0829 O   0  0  0  0  0  0  0  0  0  0  0  0
    9.0281   17.3137   20.3528 C   0  0  0  0  0  0  0  0  0  0  0  0
    9.5638   16.5580   21.2742 N   0  0  0  0  0  0  0  0  0  0  0  0
  1  2  1  0
  3  2  1  1
  3  4  1  0
  4  5  1  0
  5  6  2  0
  5  7  1  0
  7  8  2  0
  8  9  1  0
  9 10  1  0
 11 10  1  6
 11 12  1  0
 12 13  1  0
 13 14  1  0
 14 15  2  0
 14 16  1  0
  9 17  1  0
 17 18  2  0
 18 19  1  0
 19 20  2  0
 20 21  1  0
 21 22  2  0
  3 23  1  0
 23 24  2  0
 24 25  1  0
 25 26  1  0
 26 27  2  0
 22  7  1  0
 27 23  1  0
 16 11  1  0
 22 17  1  0
M  END
>  <energy_score>  (3648) 
-4.752599

>  <inchikey>  (3648) 
JXTJLOGAGCEOCS-UHFFFAOYSA-N

>  <smiles>  (3648) 
CCC(NC(=O)c1nn(CC2CNC(=O)O2)c2ccccc12)c1cocn1

>  <ref_pdb>  (3648) 
A0514a

>  <alias>  (3648) 
JXTJLOGAGCEOCS-UHFFFAOYSA-N-P177-P126-P177-601502

>  <HIPPO Pose ID>  (3648) 
503133

>  <name>  (3648) 
JXTJLOGAGCEOCS-UHFFFAOYSA-N-P177-P126-P177-601502

>  <HIPPO Compound ID>  (3648) 
299384

>  <ref_mols>  (3648) 
A3403a,A2290a

>  <distance_score>  (3648) 
1.24373

>  <inspiration_score>  (3648) 
None

$$$$
BMZYSDFDFBNUBC-UHFFFAOYSA-N-P126-P126-P177-601502
     RDKit          3D

 27 30  0  0  0  0  0  0  0  0999 V2000
    8.3859   18.2069   19.2142 C   0  0  0  0  0  0  0  0  0  0  0  0
    8.6993   17.4754   20.5126 C   0  0  0  0  0  0  0  0  0  0  0  0
    9.6632   16.3468   20.3974 C   0  0  0  0  0  0  0  0  0  0  0  0
   10.2926   15.7226   21.3719 N   0  0  0  0  0  0  0  0  0  0  0  0
   11.1369   14.8362   20.7400 C   0  0  0  0  0  0  0  0  0  0  0  0
   12.0827   13.9970   21.5230 C   0  0  0  0  0  0  0  0  0  0  0  0
   11.2648   13.2999   22.4678 N   0  0  0  0  0  0  0  0  0  0  0  0
   11.1041   13.4921   23.9732 C   0  0  0  0  0  0  0  0  0  0  0  0
   11.6665   14.1973   24.7088 O   0  0  0  0  0  0  0  0  0  0  0  0
    9.9742   12.6726   24.4253 C   0  0  0  0  0  0  0  0  0  0  0  0
    9.6664   11.4653   23.9153 N   0  0  0  0  0  0  0  0  0  0  0  0
    8.4841   11.1672   24.5102 N   0  0  0  0  0  0  0  0  0  0  0  0
    8.1535    9.7778   24.6777 C   0  0  0  0  0  0  0  0  0  0  0  0
    7.0910    9.3318   25.7147 C   0  0  1  0  0  0  0  0  0  0  0  0
    6.7207    9.9524   27.0605 C   0  0  0  0  0  0  0  0  0  0  0  0
    5.2990    9.9313   27.0762 N   0  0  0  0  0  0  0  0  0  0  0  0
    4.8691    9.0512   26.1266 C   0  0  0  0  0  0  0  0  0  0  0  0
    3.7806    8.5052   26.1147 O   0  0  0  0  0  0  0  0  0  0  0  0
    5.8371    8.8852   25.1780 O   0  0  0  0  0  0  0  0  0  0  0  0
    7.9232   12.2309   25.1514 C   0  0  0  0  0  0  0  0  0  0  0  0
    6.6542   12.4891   25.6701 C   0  0  0  0  0  0  0  0  0  0  0  0
    6.4689   13.6076   26.4701 C   0  0  0  0  0  0  0  0  0  0  0  0
    7.5174   14.4798   26.7031 C   0  0  0  0  0  0  0  0  0  0  0  0
    8.7585   14.2734   26.0984 C   0  0  0  0  0  0  0  0  0  0  0  0
    8.9581   13.1380   25.2968 C   0  0  0  0  0  0  0  0  0  0  0  0
   10.9054   14.9003   19.3881 C   0  0  0  0  0  0  0  0  0  0  0  0
    9.9527   15.8509   19.1591 O   0  0  0  0  0  0  0  0  0  0  0  0
  1  2  1  0
  2  3  1  0
  3  4  2  0
  4  5  1  0
  5  6  1  0
  6  7  1  0
  7  8  1  0
  8  9  2  0
  8 10  1  0
 10 11  2  0
 11 12  1  0
 12 13  1  0
 14 13  1  6
 14 15  1  0
 15 16  1  0
 16 17  1  0
 17 18  2  0
 17 19  1  0
 12 20  1  0
 20 21  2  0
 21 22  1  0
 22 23  2  0
 23 24  1  0
 24 25  2  0
  5 26  2  0
 26 27  1  0
 27  3  1  0
 25 10  1  0
 19 14  1  0
 25 20  1  0
M  END
>  <energy_score>  (3649) 
-14.931353

>  <inchikey>  (3649) 
BMZYSDFDFBNUBC-UHFFFAOYSA-N

>  <smiles>  (3649) 
CCc1nc(CNC(=O)c2nn(CC3CNC(=O)O3)c3ccccc23)co1

>  <ref_pdb>  (3649) 
A0514a

>  <alias>  (3649) 
BMZYSDFDFBNUBC-UHFFFAOYSA-N-P126-P126-P177-601502

>  <HIPPO Pose ID>  (3649) 
503138

>  <name>  (3649) 
BMZYSDFDFBNUBC-UHFFFAOYSA-N-P126-P126-P177-601502

>  <HIPPO Compound ID>  (3649) 
299387

>  <ref_mols>  (3649) 
A3403a,A2290a

>  <distance_score>  (3649) 
1.600495

>  <inspiration_score>  (3649) 
None

$$$$
BMZYSDFDFBNUBC-UHFFFAOYSA-N-P177-P126-P177-601502
     RDKit          3D

 27 30  0  0  0  0  0  0  0  0999 V2000
    8.7799   18.6011   21.1777 C   0  0  0  0  0  0  0  0  0  0  0  0
    8.5549   17.5150   20.1876 C   0  0  0  0  0  0  0  0  0  0  0  0
    9.5877   16.4732   20.2319 C   0  0  0  0  0  0  0  0  0  0  0  0
   10.1454   15.9242   21.2846 N   0  0  0  0  0  0  0  0  0  0  0  0
   11.0301   15.0240   20.7552 C   0  0  0  0  0  0  0  0  0  0  0  0
   11.8711   14.2040   21.6419 C   0  0  0  0  0  0  0  0  0  0  0  0
   11.0076   13.4144   22.4630 N   0  0  0  0  0  0  0  0  0  0  0  0
   10.4403   13.6850   23.8629 C   0  0  0  0  0  0  0  0  0  0  0  0
   10.6460   14.5594   24.6059 O   0  0  0  0  0  0  0  0  0  0  0  0
    9.4640   12.6162   24.1708 C   0  0  0  0  0  0  0  0  0  0  0  0
    9.4067   11.4978   23.4192 N   0  0  0  0  0  0  0  0  0  0  0  0
    8.4474   10.7621   23.9964 N   0  0  0  0  0  0  0  0  0  0  0  0
    8.1408    9.4352   23.5256 C   0  0  0  0  0  0  0  0  0  0  0  0
    9.1438    8.8616   22.5612 C   0  0  1  0  0  0  0  0  0  0  0  0
   10.4093    8.6614   23.2899 C   0  0  0  0  0  0  0  0  0  0  0  0
   10.1968    7.4329   23.8803 N   0  0  0  0  0  0  0  0  0  0  0  0
    9.4118    6.6851   23.0813 C   0  0  0  0  0  0  0  0  0  0  0  0
    9.2151    5.4881   23.2178 O   0  0  0  0  0  0  0  0  0  0  0  0
    8.7949    7.5220   22.1877 O   0  0  0  0  0  0  0  0  0  0  0  0
    7.8690   11.3379   25.0873 C   0  0  0  0  0  0  0  0  0  0  0  0
    6.8515   10.8927   25.9384 C   0  0  0  0  0  0  0  0  0  0  0  0
    6.4528   11.7571   26.9534 C   0  0  0  0  0  0  0  0  0  0  0  0
    7.0502   13.0074   27.1012 C   0  0  0  0  0  0  0  0  0  0  0  0
    8.0737   13.4290   26.2423 C   0  0  0  0  0  0  0  0  0  0  0  0
    8.4975   12.5703   25.2162 C   0  0  0  0  0  0  0  0  0  0  0  0
   10.9468   15.0482   19.3828 C   0  0  0  0  0  0  0  0  0  0  0  0
   10.0067   15.9679   19.0357 O   0  0  0  0  0  0  0  0  0  0  0  0
  1  2  1  0
  2  3  1  0
  3  4  2  0
  4  5  1  0
  5  6  1  0
  6  7  1  0
  7  8  1  0
  8  9  2  0
  8 10  1  0
 10 11  2  0
 11 12  1  0
 12 13  1  0
 14 13  1  1
 14 15  1  0
 15 16  1  0
 16 17  1  0
 17 18  2  0
 17 19  1  0
 12 20  1  0
 20 21  2  0
 21 22  1  0
 22 23  2  0
 23 24  1  0
 24 25  2  0
  5 26  2  0
 26 27  1  0
 27  3  1  0
 25 10  1  0
 19 14  1  0
 25 20  1  0
M  END
>  <energy_score>  (3650) 
-36.6792

>  <inchikey>  (3650) 
BMZYSDFDFBNUBC-UHFFFAOYSA-N

>  <smiles>  (3650) 
CCc1nc(CNC(=O)c2nn(CC3CNC(=O)O3)c3ccccc23)co1

>  <ref_pdb>  (3650) 
A0514a

>  <alias>  (3650) 
BMZYSDFDFBNUBC-UHFFFAOYSA-N-P177-P126-P177-601502

>  <HIPPO Pose ID>  (3650) 
503139

>  <name>  (3650) 
BMZYSDFDFBNUBC-UHFFFAOYSA-N-P177-P126-P177-601502

>  <HIPPO Compound ID>  (3650) 
299387

>  <ref_mols>  (3650) 
A3403a,A2290a

>  <distance_score>  (3650) 
1.05956

>  <inspiration_score>  (3650) 
None

$$$$
QFKKPCZXVOOIGL-UHFFFAOYSA-N-P126-P126-P177-601502
     RDKit          3D

 27 31  0  0  0  0  0  0  0  0999 V2000
    9.6584    8.2535   20.3232 O   0  0  0  0  0  0  0  0  0  0  0  0
    9.6735    8.4192   21.5268 C   0  0  0  0  0  0  0  0  0  0  0  0
    9.3664    7.4238   22.3833 N   0  0  0  0  0  0  0  0  0  0  0  0
   10.2862    7.6013   23.4166 C   0  0  0  0  0  0  0  0  0  0  0  0
   10.0758    9.0520   23.5839 C   0  0  2  0  0  0  0  0  0  0  0  0
    8.7004    9.1886   24.2081 C   0  0  0  0  0  0  0  0  0  0  0  0
    8.3971   10.5378   24.5291 N   0  0  0  0  0  0  0  0  0  0  0  0
    8.9747   11.4748   23.8033 N   0  0  0  0  0  0  0  0  0  0  0  0
    8.5662   12.6051   24.3722 C   0  0  0  0  0  0  0  0  0  0  0  0
    9.0848   13.8420   23.8603 C   0  0  0  0  0  0  0  0  0  0  0  0
    8.9090   14.8439   24.4273 O   0  0  0  0  0  0  0  0  0  0  0  0
    9.9215   13.5394   22.5977 N   0  0  0  0  0  0  0  0  0  0  0  0
   10.7743   14.3722   21.8417 C   0  0  0  0  0  0  0  0  0  0  0  0
   10.1148   15.3033   20.7827 C   0  0  0  0  0  0  0  0  0  0  0  0
   10.3330   15.2982   19.4297 C   0  0  0  0  0  0  0  0  0  0  0  0
    9.7095   16.3940   18.9062 O   0  0  0  0  0  0  0  0  0  0  0  0
    9.1493   16.9963   19.9867 C   0  0  0  0  0  0  0  0  0  0  0  0
    9.3237   16.3604   21.1180 N   0  0  0  0  0  0  0  0  0  0  0  0
   12.1647   13.8493   21.5248 C   0  0  0  0  0  0  0  0  0  0  0  0
   11.9862   14.9087   22.5484 C   0  0  0  0  0  0  0  0  0  0  0  0
    7.7163   12.3646   25.4718 C   0  0  0  0  0  0  0  0  0  0  0  0
    7.0344   13.1496   26.4092 C   0  0  0  0  0  0  0  0  0  0  0  0
    6.2210   12.5086   27.3468 C   0  0  0  0  0  0  0  0  0  0  0  0
    6.0796   11.1211   27.3502 C   0  0  0  0  0  0  0  0  0  0  0  0
    6.7596   10.3244   26.4313 C   0  0  0  0  0  0  0  0  0  0  0  0
    7.5861   10.9830   25.5207 C   0  0  0  0  0  0  0  0  0  0  0  0
   10.1039    9.4947   22.2254 O   0  0  0  0  0  0  0  0  0  0  0  0
  1  2  2  0
  2  3  1  0
  3  4  1  0
  4  5  1  0
  5  6  1  6
  6  7  1  0
  7  8  1  0
  8  9  2  0
  9 10  1  0
 10 11  2  0
 10 12  1  0
 12 13  1  0
 13 14  1  0
 14 15  2  0
 15 16  1  0
 16 17  1  0
 17 18  2  0
 13 19  1  0
 19 20  1  0
  9 21  1  0
 21 22  2  0
 22 23  1  0
 23 24  2  0
 24 25  1  0
 25 26  2  0
  5 27  1  0
 27  2  1  0
 26  7  1  0
 20 13  1  0
 26 21  1  0
 18 14  1  0
M  END
>  <energy_score>  (3651) 
-22.02513

>  <inchikey>  (3651) 
QFKKPCZXVOOIGL-UHFFFAOYSA-N

>  <smiles>  (3651) 
O=C1NCC(Cn2nc(C(=O)NC3(c4cocn4)CC3)c3ccccc32)O1

>  <ref_pdb>  (3651) 
A0514a

>  <alias>  (3651) 
QFKKPCZXVOOIGL-UHFFFAOYSA-N-P126-P126-P177-601502

>  <HIPPO Pose ID>  (3651) 
503142

>  <name>  (3651) 
QFKKPCZXVOOIGL-UHFFFAOYSA-N-P126-P126-P177-601502

>  <HIPPO Compound ID>  (3651) 
299389

>  <ref_mols>  (3651) 
A3403a,A2290a

>  <distance_score>  (3651) 
1.415719

>  <inspiration_score>  (3651) 
None

$$$$
QFKKPCZXVOOIGL-UHFFFAOYSA-N-P177-P126-P177-601502
     RDKit          3D

 27 31  0  0  0  0  0  0  0  0999 V2000
    9.3415    8.1747   20.3201 O   0  0  0  0  0  0  0  0  0  0  0  0
    9.3225    8.3943   21.5167 C   0  0  0  0  0  0  0  0  0  0  0  0
    9.0206    7.4572   22.4561 N   0  0  0  0  0  0  0  0  0  0  0  0
    9.7574    7.7925   23.6014 C   0  0  0  0  0  0  0  0  0  0  0  0
    9.6115    9.2632   23.5316 C   0  0  2  0  0  0  0  0  0  0  0  0
    8.2239    9.6582   23.9651 C   0  0  0  0  0  0  0  0  0  0  0  0
    8.2282   11.0614   24.2792 N   0  0  0  0  0  0  0  0  0  0  0  0
    8.9908   11.8818   23.5589 N   0  0  0  0  0  0  0  0  0  0  0  0
    9.0938   12.9854   24.3132 C   0  0  0  0  0  0  0  0  0  0  0  0
    9.9858   14.0665   23.8749 C   0  0  0  0  0  0  0  0  0  0  0  0
   10.2870   14.9473   24.5787 O   0  0  0  0  0  0  0  0  0  0  0  0
   10.3327   13.8055   22.3951 N   0  0  0  0  0  0  0  0  0  0  0  0
   11.0276   14.6011   21.4647 C   0  0  0  0  0  0  0  0  0  0  0  0
   10.1510   15.6365   20.7418 C   0  0  0  0  0  0  0  0  0  0  0  0
   10.0961   15.8489   19.3919 C   0  0  0  0  0  0  0  0  0  0  0  0
    9.3117   16.9408   19.1931 O   0  0  0  0  0  0  0  0  0  0  0  0
    8.9034   17.2898   20.4435 C   0  0  0  0  0  0  0  0  0  0  0  0
    9.3425   16.5111   21.3993 N   0  0  0  0  0  0  0  0  0  0  0  0
   12.1513   13.9848   20.6805 C   0  0  0  0  0  0  0  0  0  0  0  0
   12.4498   14.9803   21.7283 C   0  0  0  0  0  0  0  0  0  0  0  0
    8.2504   12.8864   25.4535 C   0  0  0  0  0  0  0  0  0  0  0  0
    7.8918   13.7182   26.5219 C   0  0  0  0  0  0  0  0  0  0  0  0
    6.9667   13.2449   27.4623 C   0  0  0  0  0  0  0  0  0  0  0  0
    6.4067   11.9717   27.3564 C   0  0  0  0  0  0  0  0  0  0  0  0
    6.7550   11.1249   26.3107 C   0  0  0  0  0  0  0  0  0  0  0  0
    7.6754   11.6209   25.3837 C   0  0  0  0  0  0  0  0  0  0  0  0
    9.7414    9.5212   22.1351 O   0  0  0  0  0  0  0  0  0  0  0  0
  1  2  2  0
  2  3  1  0
  3  4  1  0
  4  5  1  0
  5  6  1  6
  6  7  1  0
  7  8  1  0
  8  9  2  0
  9 10  1  0
 10 11  2  0
 10 12  1  0
 12 13  1  0
 13 14  1  0
 14 15  2  0
 15 16  1  0
 16 17  1  0
 17 18  2  0
 13 19  1  0
 19 20  1  0
  9 21  1  0
 21 22  2  0
 22 23  1  0
 23 24  2  0
 24 25  1  0
 25 26  2  0
  5 27  1  0
 27  2  1  0
 26  7  1  0
 20 13  1  0
 26 21  1  0
 18 14  1  0
M  END
>  <energy_score>  (3652) 
-34.15564

>  <inchikey>  (3652) 
QFKKPCZXVOOIGL-UHFFFAOYSA-N

>  <smiles>  (3652) 
O=C1NCC(Cn2nc(C(=O)NC3(c4cocn4)CC3)c3ccccc32)O1

>  <ref_pdb>  (3652) 
A0514a

>  <alias>  (3652) 
QFKKPCZXVOOIGL-UHFFFAOYSA-N-P177-P126-P177-601502

>  <HIPPO Pose ID>  (3652) 
503143

>  <name>  (3652) 
QFKKPCZXVOOIGL-UHFFFAOYSA-N-P177-P126-P177-601502

>  <HIPPO Compound ID>  (3652) 
299389

>  <ref_mols>  (3652) 
A3403a,A2290a

>  <distance_score>  (3652) 
1.449256

>  <inspiration_score>  (3652) 
None

$$$$
OZEIYKNJSMSKTQ-UHFFFAOYSA-N-P126-P126-P177-601502
     RDKit          3D

 27 30  0  0  0  0  0  0  0  0999 V2000
    9.4244    8.7184   23.1270 C   0  0  0  0  0  0  0  0  0  0  0  0
    9.3212    9.9878   23.8052 N   0  0  0  0  0  0  0  0  0  0  0  0
   10.1828   10.9535   23.4614 N   0  0  0  0  0  0  0  0  0  0  0  0
    9.8402   11.9994   24.2347 C   0  0  0  0  0  0  0  0  0  0  0  0
   10.6241   13.2354   24.1909 C   0  0  0  0  0  0  0  0  0  0  0  0
   10.5664   14.0424   25.0262 O   0  0  0  0  0  0  0  0  0  0  0  0
   11.4117   13.2172   22.8860 N   0  0  0  0  0  0  0  0  0  0  0  0
   12.2180   14.2146   22.2820 C   0  0  0  0  0  0  0  0  0  0  0  0
   11.4811   14.6790   21.1065 C   0  0  0  0  0  0  0  0  0  0  0  0
   11.7143   14.4402   19.7799 C   0  0  0  0  0  0  0  0  0  0  0  0
   10.7917   15.1165   19.0664 O   0  0  0  0  0  0  0  0  0  0  0  0
   10.0847   15.8161   20.0035 C   0  0  0  0  0  0  0  0  0  0  0  0
    9.2812   16.9339   19.6845 C   0  0  0  0  0  0  0  0  0  0  0  0
    8.6623   17.7874   20.5663 C   0  0  0  0  0  0  0  0  0  0  0  0
    7.9187   18.7782   19.9069 C   0  0  0  0  0  0  0  0  0  0  0  0
    7.8998   18.5555   18.5639 C   0  0  0  0  0  0  0  0  0  0  0  0
    9.0440   17.4105   18.0691 S   0  0  0  0  0  0  0  0  0  0  0  0
   10.3860   15.4886   21.2441 N   0  0  0  0  0  0  0  0  0  0  0  0
    8.6913   11.7227   25.0108 C   0  0  0  0  0  0  0  0  0  0  0  0
    7.8788   12.4556   25.8975 C   0  0  0  0  0  0  0  0  0  0  0  0
    6.8073   11.7923   26.5101 C   0  0  0  0  0  0  0  0  0  0  0  0
    5.9408   12.5274   27.4308 N   0  0  0  0  0  0  0  0  0  0  0  0
    4.7860   12.1048   27.5919 O   0  0  0  0  0  0  0  0  0  0  0  0
    6.4307   13.4995   28.0219 O   0  0  0  0  0  0  0  0  0  0  0  0
    6.5618   10.4353   26.2852 C   0  0  0  0  0  0  0  0  0  0  0  0
    7.3689    9.7121   25.4042 C   0  0  0  0  0  0  0  0  0  0  0  0
    8.4087   10.3831   24.7549 C   0  0  0  0  0  0  0  0  0  0  0  0
  1  2  1  0
  2  3  1  0
  3  4  2  0
  4  5  1  0
  5  6  2  0
  5  7  1  0
  7  8  1  0
  8  9  1  0
  9 10  2  0
 10 11  1  0
 11 12  1  0
 12 13  1  0
 13 14  2  0
 14 15  1  0
 15 16  2  0
 16 17  1  0
 12 18  2  0
  4 19  1  0
 19 20  2  0
 20 21  1  0
 21 22  1  0
 22 23  2  0
 22 24  1  0
 21 25  2  0
 25 26  1  0
 26 27  2  0
 27  2  1  0
 18  9  1  0
 27 19  1  0
 17 13  1  0
M  CHG  2  22   1  24  -1
M  END
>  <energy_score>  (3653) 
-18.78411

>  <inchikey>  (3653) 
OZEIYKNJSMSKTQ-UHFFFAOYSA-N

>  <smiles>  (3653) 
Cn1nc(C(=O)NCc2coc(-c3cccs3)n2)c2cc([N+](=O)[O-])ccc21

>  <ref_pdb>  (3653) 
A0514a

>  <alias>  (3653) 
OZEIYKNJSMSKTQ-UHFFFAOYSA-N-P126-P126-P177-601502

>  <HIPPO Pose ID>  (3653) 
503150

>  <name>  (3653) 
OZEIYKNJSMSKTQ-UHFFFAOYSA-N-P126-P126-P177-601502

>  <HIPPO Compound ID>  (3653) 
299393

>  <ref_mols>  (3653) 
A3403a,A2290a

>  <distance_score>  (3653) 
0.945437

>  <inspiration_score>  (3653) 
None

$$$$
OZEIYKNJSMSKTQ-UHFFFAOYSA-N-P177-P126-P177-601502
     RDKit          3D

 27 30  0  0  0  0  0  0  0  0999 V2000
    9.0018    8.9752   23.1683 C   0  0  0  0  0  0  0  0  0  0  0  0
    8.9885   10.3124   23.7085 N   0  0  0  0  0  0  0  0  0  0  0  0
    9.8469   11.2017   23.2160 N   0  0  0  0  0  0  0  0  0  0  0  0
    9.6506   12.3212   23.9357 C   0  0  0  0  0  0  0  0  0  0  0  0
   10.4869   13.5089   23.6793 C   0  0  0  0  0  0  0  0  0  0  0  0
   10.5107   14.4320   24.3888 O   0  0  0  0  0  0  0  0  0  0  0  0
   11.2079   13.2573   22.3539 N   0  0  0  0  0  0  0  0  0  0  0  0
   12.0310   14.1118   21.5740 C   0  0  0  0  0  0  0  0  0  0  0  0
   11.2075   14.7622   20.5576 C   0  0  0  0  0  0  0  0  0  0  0  0
   11.3088   14.7910   19.1878 C   0  0  0  0  0  0  0  0  0  0  0  0
   10.3460   15.6248   18.7155 O   0  0  0  0  0  0  0  0  0  0  0  0
    9.7468   16.0851   19.8463 C   0  0  0  0  0  0  0  0  0  0  0  0
    8.9541   17.2368   19.9428 C   0  0  0  0  0  0  0  0  0  0  0  0
    8.7070   17.8501   21.1197 C   0  0  0  0  0  0  0  0  0  0  0  0
    8.3567   19.1619   20.8460 C   0  0  0  0  0  0  0  0  0  0  0  0
    7.8421   19.3884   19.6158 C   0  0  0  0  0  0  0  0  0  0  0  0
    8.1993   18.0767   18.7180 S   0  0  0  0  0  0  0  0  0  0  0  0
   10.1519   15.5055   20.9531 N   0  0  0  0  0  0  0  0  0  0  0  0
    8.5934   12.1443   24.8637 C   0  0  0  0  0  0  0  0  0  0  0  0
    7.9483   12.9519   25.8182 C   0  0  0  0  0  0  0  0  0  0  0  0
    6.9002   12.3884   26.5619 C   0  0  0  0  0  0  0  0  0  0  0  0
    6.2336   13.1950   27.5887 N   0  0  0  0  0  0  0  0  0  0  0  0
    5.1442   12.7880   28.0187 O   0  0  0  0  0  0  0  0  0  0  0  0
    6.8227   14.2055   27.9961 O   0  0  0  0  0  0  0  0  0  0  0  0
    6.4980   11.0621   26.3727 C   0  0  0  0  0  0  0  0  0  0  0  0
    7.1354   10.2603   25.4254 C   0  0  0  0  0  0  0  0  0  0  0  0
    8.1763   10.8240   24.6863 C   0  0  0  0  0  0  0  0  0  0  0  0
  1  2  1  0
  2  3  1  0
  3  4  2  0
  4  5  1  0
  5  6  2  0
  5  7  1  0
  7  8  1  0
  8  9  1  0
  9 10  2  0
 10 11  1  0
 11 12  1  0
 12 13  1  0
 13 14  2  0
 14 15  1  0
 15 16  2  0
 16 17  1  0
 12 18  2  0
  4 19  1  0
 19 20  2  0
 20 21  1  0
 21 22  1  0
 22 23  2  0
 22 24  1  0
 21 25  2  0
 25 26  1  0
 26 27  2  0
 27  2  1  0
 18  9  1  0
 27 19  1  0
 17 13  1  0
M  CHG  2  22   1  24  -1
M  END
>  <energy_score>  (3654) 
-5.032846

>  <inchikey>  (3654) 
OZEIYKNJSMSKTQ-UHFFFAOYSA-N

>  <smiles>  (3654) 
Cn1nc(C(=O)NCc2coc(-c3cccs3)n2)c2cc([N+](=O)[O-])ccc21

>  <ref_pdb>  (3654) 
A0514a

>  <alias>  (3654) 
OZEIYKNJSMSKTQ-UHFFFAOYSA-N-P177-P126-P177-601502

>  <HIPPO Pose ID>  (3654) 
503151

>  <name>  (3654) 
OZEIYKNJSMSKTQ-UHFFFAOYSA-N-P177-P126-P177-601502

>  <HIPPO Compound ID>  (3654) 
299393

>  <ref_mols>  (3654) 
A3403a,A2290a

>  <distance_score>  (3654) 
0.790132

>  <inspiration_score>  (3654) 
None

$$$$
PLABDPUIGSWMNQ-UHFFFAOYSA-N-P126-P126-P177-601502
     RDKit          3D

 27 30  0  0  0  0  0  0  0  0999 V2000
    4.0759   12.7108   28.6116 C   0  0  0  0  0  0  0  0  0  0  0  0
    4.9089   11.9989   27.6970 O   0  0  0  0  0  0  0  0  0  0  0  0
    6.1481   12.5337   27.5578 C   0  0  0  0  0  0  0  0  0  0  0  0
    6.5873   13.5024   28.1571 O   0  0  0  0  0  0  0  0  0  0  0  0
    6.9310   11.7689   26.5579 C   0  0  0  0  0  0  0  0  0  0  0  0
    6.6780   10.4181   26.3085 C   0  0  0  0  0  0  0  0  0  0  0  0
    7.4473    9.7038   25.3851 C   0  0  0  0  0  0  0  0  0  0  0  0
    8.4665   10.3777   24.7076 C   0  0  0  0  0  0  0  0  0  0  0  0
    8.7534   11.7154   24.9596 C   0  0  0  0  0  0  0  0  0  0  0  0
    7.9769   12.4278   25.8942 C   0  0  0  0  0  0  0  0  0  0  0  0
    9.8497   12.0145   24.1143 C   0  0  0  0  0  0  0  0  0  0  0  0
   10.5740   13.2828   23.9955 C   0  0  0  0  0  0  0  0  0  0  0  0
   10.5626   14.0794   24.8440 O   0  0  0  0  0  0  0  0  0  0  0  0
   11.1834   13.3348   22.5950 N   0  0  0  0  0  0  0  0  0  0  0  0
   11.8220   14.3991   21.9052 C   0  0  0  0  0  0  0  0  0  0  0  0
   10.8349   14.9857   20.9721 C   0  0  0  0  0  0  0  0  0  0  0  0
    9.8235   15.8082   21.3978 N   0  0  0  0  0  0  0  0  0  0  0  0
    9.3870   16.3950   20.3027 C   0  0  0  0  0  0  0  0  0  0  0  0
    8.8251   17.8469   20.3067 C   0  0  0  0  0  0  0  0  0  0  0  0
    8.7852   18.4051   18.8691 C   0  0  0  0  0  0  0  0  0  0  0  0
    7.6334   18.5325   19.7560 C   0  0  0  0  0  0  0  0  0  0  0  0
    9.8612   15.8094   19.1617 O   0  0  0  0  0  0  0  0  0  0  0  0
   10.8289   14.9635   19.6030 C   0  0  0  0  0  0  0  0  0  0  0  0
   11.7148   14.3952   18.5966 C   0  0  0  0  0  0  0  0  0  0  0  0
   10.1770   10.9687   23.3366 N   0  0  0  0  0  0  0  0  0  0  0  0
    9.3500    9.9890   23.7296 N   0  0  0  0  0  0  0  0  0  0  0  0
    9.4548    8.7078   23.0746 C   0  0  0  0  0  0  0  0  0  0  0  0
  1  2  1  0
  2  3  1  0
  3  4  2  0
  3  5  1  0
  5  6  2  0
  6  7  1  0
  7  8  2  0
  8  9  1  0
  9 10  2  0
  9 11  1  0
 11 12  1  0
 12 13  2  0
 12 14  1  0
 14 15  1  0
 15 16  1  0
 16 17  1  0
 17 18  2  0
 18 19  1  0
 19 20  1  0
 20 21  1  0
 18 22  1  0
 22 23  1  0
 23 24  1  0
 11 25  2  0
 25 26  1  0
 26 27  1  0
 10  5  1  0
 23 16  2  0
 26  8  1  0
 21 19  1  0
M  END
>  <energy_score>  (3655) 
-18.660983

>  <inchikey>  (3655) 
PLABDPUIGSWMNQ-UHFFFAOYSA-N

>  <smiles>  (3655) 
COC(=O)c1ccc2c(c1)c(C(=O)NCc1nc(C3CC3)oc1C)nn2C

>  <ref_pdb>  (3655) 
A0514a

>  <alias>  (3655) 
PLABDPUIGSWMNQ-UHFFFAOYSA-N-P126-P126-P177-601502

>  <HIPPO Pose ID>  (3655) 
503156

>  <name>  (3655) 
PLABDPUIGSWMNQ-UHFFFAOYSA-N-P126-P126-P177-601502

>  <HIPPO Compound ID>  (3655) 
299396

>  <ref_mols>  (3655) 
A3403a,A2290a

>  <distance_score>  (3655) 
0.849346

>  <inspiration_score>  (3655) 
None

$$$$
PLABDPUIGSWMNQ-UHFFFAOYSA-N-P177-P126-P177-601502
     RDKit          3D

 27 30  0  0  0  0  0  0  0  0999 V2000
    4.2306   13.2748   29.0120 C   0  0  0  0  0  0  0  0  0  0  0  0
    4.9417   12.5350   28.0190 O   0  0  0  0  0  0  0  0  0  0  0  0
    6.1766   13.0298   27.7508 C   0  0  0  0  0  0  0  0  0  0  0  0
    6.7032   13.9855   28.2980 O   0  0  0  0  0  0  0  0  0  0  0  0
    6.8331   12.2384   26.6808 C   0  0  0  0  0  0  0  0  0  0  0  0
    6.4551   10.9228   26.4018 C   0  0  0  0  0  0  0  0  0  0  0  0
    7.1131   10.1776   25.4192 C   0  0  0  0  0  0  0  0  0  0  0  0
    8.1578   10.7818   24.7230 C   0  0  0  0  0  0  0  0  0  0  0  0
    8.5557   12.0898   24.9831 C   0  0  0  0  0  0  0  0  0  0  0  0
    7.8895   12.8331   25.9751 C   0  0  0  0  0  0  0  0  0  0  0  0
    9.6148   12.3324   24.0772 C   0  0  0  0  0  0  0  0  0  0  0  0
   10.4028   13.5591   23.9045 C   0  0  0  0  0  0  0  0  0  0  0  0
   10.4868   14.3709   24.7349 O   0  0  0  0  0  0  0  0  0  0  0  0
   10.9892   13.5196   22.4938 N   0  0  0  0  0  0  0  0  0  0  0  0
   11.7169   14.4960   21.7720 C   0  0  0  0  0  0  0  0  0  0  0  0
   10.7610   15.2517   20.9477 C   0  0  0  0  0  0  0  0  0  0  0  0
    9.8704   16.1491   21.4911 N   0  0  0  0  0  0  0  0  0  0  0  0
    9.3463   16.7612   20.4508 C   0  0  0  0  0  0  0  0  0  0  0  0
    8.7503   18.2118   20.5119 C   0  0  0  0  0  0  0  0  0  0  0  0
    8.5732   18.6631   19.0686 C   0  0  0  0  0  0  0  0  0  0  0  0
    7.5160   18.8747   19.9618 C   0  0  0  0  0  0  0  0  0  0  0  0
    9.7216   16.1974   19.2505 O   0  0  0  0  0  0  0  0  0  0  0  0
   10.6655   15.2845   19.5822 C   0  0  0  0  0  0  0  0  0  0  0  0
   11.4113   14.6643   18.4905 C   0  0  0  0  0  0  0  0  0  0  0  0
    9.8488   11.2612   23.2987 N   0  0  0  0  0  0  0  0  0  0  0  0
    8.9900   10.3314   23.7299 N   0  0  0  0  0  0  0  0  0  0  0  0
    9.0307    9.0172   23.1331 C   0  0  0  0  0  0  0  0  0  0  0  0
  1  2  1  0
  2  3  1  0
  3  4  2  0
  3  5  1  0
  5  6  2  0
  6  7  1  0
  7  8  2  0
  8  9  1  0
  9 10  2  0
  9 11  1  0
 11 12  1  0
 12 13  2  0
 12 14  1  0
 14 15  1  0
 15 16  1  0
 16 17  1  0
 17 18  2  0
 18 19  1  0
 19 20  1  0
 20 21  1  0
 18 22  1  0
 22 23  1  0
 23 24  1  0
 11 25  2  0
 25 26  1  0
 26 27  1  0
 10  5  1  0
 23 16  2  0
 26  8  1  0
 21 19  1  0
M  END
>  <energy_score>  (3656) 
-11.2472

>  <inchikey>  (3656) 
PLABDPUIGSWMNQ-UHFFFAOYSA-N

>  <smiles>  (3656) 
COC(=O)c1ccc2c(c1)c(C(=O)NCc1nc(C3CC3)oc1C)nn2C

>  <ref_pdb>  (3656) 
A0514a

>  <alias>  (3656) 
PLABDPUIGSWMNQ-UHFFFAOYSA-N-P177-P126-P177-601502

>  <HIPPO Pose ID>  (3656) 
503157

>  <name>  (3656) 
PLABDPUIGSWMNQ-UHFFFAOYSA-N-P177-P126-P177-601502

>  <HIPPO Compound ID>  (3656) 
299396

>  <ref_mols>  (3656) 
A3403a,A2290a

>  <distance_score>  (3656) 
0.787866

>  <inspiration_score>  (3656) 
None

$$$$
LRCYZXJXBSOVNX-UHFFFAOYSA-N-P177-P126-P177-601502
     RDKit          3D

 27 29  0  0  0  0  0  0  0  0999 V2000
    3.6341   12.2866   28.9999 C   0  0  0  0  0  0  0  0  0  0  0  0
    4.4848   11.7519   27.9852 O   0  0  0  0  0  0  0  0  0  0  0  0
    5.6679   12.4088   27.8674 C   0  0  0  0  0  0  0  0  0  0  0  0
    6.0349   13.3558   28.5434 O   0  0  0  0  0  0  0  0  0  0  0  0
    6.4813   11.8145   26.7788 C   0  0  0  0  0  0  0  0  0  0  0  0
    6.3026   10.4951   26.3681 C   0  0  0  0  0  0  0  0  0  0  0  0
    7.0951    9.9357   25.3610 C   0  0  0  0  0  0  0  0  0  0  0  0
    8.0680   10.7240   24.7664 C   0  0  0  0  0  0  0  0  0  0  0  0
    8.2814   12.0284   25.1781 C   0  0  0  0  0  0  0  0  0  0  0  0
    7.4874   12.5914   26.1956 C   0  0  0  0  0  0  0  0  0  0  0  0
    9.3511   12.4758   24.3811 C   0  0  0  0  0  0  0  0  0  0  0  0
    9.9808   13.7859   24.4818 C   0  0  0  0  0  0  0  0  0  0  0  0
   10.0313   14.3573   25.4915 O   0  0  0  0  0  0  0  0  0  0  0  0
   10.4901   14.1720   23.1050 N   0  0  0  0  0  0  0  0  0  0  0  0
   11.0815   15.3671   22.6486 C   0  0  0  0  0  0  0  0  0  0  0  0
   10.3459   15.9882   21.5376 C   0  0  0  0  0  0  0  0  0  0  0  0
    9.1525   16.6426   21.7042 N   0  0  0  0  0  0  0  0  0  0  0  0
    8.9281   17.2070   20.5446 C   0  0  0  0  0  0  0  0  0  0  0  0
    9.7803   16.8269   19.5586 O   0  0  0  0  0  0  0  0  0  0  0  0
   10.6669   16.0036   20.2016 C   0  0  0  0  0  0  0  0  0  0  0  0
   11.4835   15.0681   19.3951 C   0  0  0  0  0  0  0  0  0  0  0  0
   11.9284   15.3953   17.9951 C   0  0  0  0  0  0  0  0  0  0  0  0
   10.4168   14.1262   19.0939 C   0  0  0  0  0  0  0  0  0  0  0  0
   12.5484   14.3493   20.1601 C   0  0  0  0  0  0  0  0  0  0  0  0
    9.7455   11.5496   23.4869 N   0  0  0  0  0  0  0  0  0  0  0  0
    8.9873   10.4768   23.7770 N   0  0  0  0  0  0  0  0  0  0  0  0
    9.2150    9.2273   23.0837 C   0  0  0  0  0  0  0  0  0  0  0  0
  1  2  1  0
  2  3  1  0
  3  4  2  0
  3  5  1  0
  5  6  2  0
  6  7  1  0
  7  8  2  0
  8  9  1  0
  9 10  2  0
  9 11  1  0
 11 12  1  0
 12 13  2  0
 12 14  1  0
 14 15  1  0
 15 16  1  0
 16 17  1  0
 17 18  2  0
 18 19  1  0
 19 20  1  0
 20 21  1  0
 21 22  1  0
 21 23  1  0
 21 24  1  0
 11 25  2  0
 25 26  1  0
 26 27  1  0
 10  5  1  0
 20 16  2  0
 26  8  1  0
M  END
>  <energy_score>  (3657) 
-15.316095

>  <inchikey>  (3657) 
LRCYZXJXBSOVNX-UHFFFAOYSA-N

>  <smiles>  (3657) 
COC(=O)c1ccc2c(c1)c(C(=O)NCc1ncoc1C(C)(C)C)nn2C

>  <ref_pdb>  (3657) 
A0514a

>  <alias>  (3657) 
LRCYZXJXBSOVNX-UHFFFAOYSA-N-P177-P126-P177-601502

>  <HIPPO Pose ID>  (3657) 
503159

>  <name>  (3657) 
LRCYZXJXBSOVNX-UHFFFAOYSA-N-P177-P126-P177-601502

>  <HIPPO Compound ID>  (3657) 
299397

>  <ref_mols>  (3657) 
A3403a,A2290a

>  <distance_score>  (3657) 
1.201101

>  <inspiration_score>  (3657) 
None

$$$$
NALINAPOYHNEFV-UHFFFAOYSA-N-P177-P126-P177-601502
     RDKit          3D

 27 29  0  0  0  0  0  0  0  0999 V2000
    4.4343   13.5491   28.9943 C   0  0  0  0  0  0  0  0  0  0  0  0
    5.1058   12.7595   28.0117 O   0  0  0  0  0  0  0  0  0  0  0  0
    6.3381   13.2232   27.6847 C   0  0  0  0  0  0  0  0  0  0  0  0
    6.8938   14.1946   28.1723 O   0  0  0  0  0  0  0  0  0  0  0  0
    6.9506   12.3749   26.6306 C   0  0  0  0  0  0  0  0  0  0  0  0
    6.5103   11.0702   26.3858 C   0  0  0  0  0  0  0  0  0  0  0  0
    7.1228   10.2726   25.4151 C   0  0  0  0  0  0  0  0  0  0  0  0
    8.1858   10.8180   24.6951 C   0  0  0  0  0  0  0  0  0  0  0  0
    8.6487   12.1136   24.9204 C   0  0  0  0  0  0  0  0  0  0  0  0
    8.0269   12.9061   25.9025 C   0  0  0  0  0  0  0  0  0  0  0  0
    9.7204   12.2821   24.0086 C   0  0  0  0  0  0  0  0  0  0  0  0
   10.6121   13.4380   23.8179 C   0  0  0  0  0  0  0  0  0  0  0  0
   10.7404   14.2732   24.6202 O   0  0  0  0  0  0  0  0  0  0  0  0
   11.2505   13.2830   22.4341 N   0  0  0  0  0  0  0  0  0  0  0  0
   12.1020   14.1584   21.7055 C   0  0  0  0  0  0  0  0  0  0  0  0
   11.2436   15.1092   21.0062 C   0  0  0  0  0  0  0  0  0  0  0  0
   10.4902   15.9827   21.7179 N   0  0  0  0  0  0  0  0  0  0  0  0
    9.7256   16.5441   20.8150 C   0  0  0  0  0  0  0  0  0  0  0  0
    8.4677   17.2690   21.0853 C   0  0  0  0  0  0  0  0  0  0  0  0
    8.0862   18.1467   19.8878 C   0  0  0  0  0  0  0  0  0  0  0  0
    7.5142   16.1697   21.6119 C   0  0  0  0  0  0  0  0  0  0  0  0
    9.9710   16.1463   19.5310 O   0  0  0  0  0  0  0  0  0  0  0  0
   10.9807   15.2511   19.6677 C   0  0  0  0  0  0  0  0  0  0  0  0
   11.5258   14.6754   18.4476 C   0  0  0  0  0  0  0  0  0  0  0  0
    9.8768   11.1885   23.2428 N   0  0  0  0  0  0  0  0  0  0  0  0
    8.9884   10.3090   23.7073 N   0  0  0  0  0  0  0  0  0  0  0  0
    8.9789    8.9802   23.1458 C   0  0  0  0  0  0  0  0  0  0  0  0
  1  2  1  0
  2  3  1  0
  3  4  2  0
  3  5  1  0
  5  6  2  0
  6  7  1  0
  7  8  2  0
  8  9  1  0
  9 10  2  0
  9 11  1  0
 11 12  1  0
 12 13  2  0
 12 14  1  0
 14 15  1  0
 15 16  1  0
 16 17  1  0
 17 18  2  0
 18 19  1  0
 19 20  1  0
 19 21  1  0
 18 22  1  0
 22 23  1  0
 23 24  1  0
 11 25  2  0
 25 26  1  0
 26 27  1  0
 10  5  1  0
 23 16  2  0
 26  8  1  0
M  END
>  <energy_score>  (3658) 
-11.04038

>  <inchikey>  (3658) 
NALINAPOYHNEFV-UHFFFAOYSA-N

>  <smiles>  (3658) 
COC(=O)c1ccc2c(c1)c(C(=O)NCc1nc(C(C)C)oc1C)nn2C

>  <ref_pdb>  (3658) 
A0514a

>  <alias>  (3658) 
NALINAPOYHNEFV-UHFFFAOYSA-N-P177-P126-P177-601502

>  <HIPPO Pose ID>  (3658) 
503161

>  <name>  (3658) 
NALINAPOYHNEFV-UHFFFAOYSA-N-P177-P126-P177-601502

>  <HIPPO Compound ID>  (3658) 
299398

>  <ref_mols>  (3658) 
A3403a,A2290a

>  <distance_score>  (3658) 
0.790349

>  <inspiration_score>  (3658) 
None

$$$$
BSFIDOJZPVQUJN-UHFFFAOYSA-N-P126-P126-P177-601502
     RDKit          3D

 27 30  0  0  0  0  0  0  0  0999 V2000
   10.6614   14.0800   25.0567 O   0  0  0  0  0  0  0  0  0  0  0  0
   10.7269   13.2791   24.2154 C   0  0  0  0  0  0  0  0  0  0  0  0
   11.4907   13.2912   22.8942 N   0  0  0  0  0  0  0  0  0  0  0  0
   12.2547   14.3140   22.2819 C   0  0  0  0  0  0  0  0  0  0  0  0
   11.4955   14.7274   21.1028 C   0  0  0  0  0  0  0  0  0  0  0  0
   11.7051   14.4505   19.7796 C   0  0  0  0  0  0  0  0  0  0  0  0
   10.7729   15.1127   19.0636 O   0  0  0  0  0  0  0  0  0  0  0  0
   10.0773   15.8292   19.9958 C   0  0  0  0  0  0  0  0  0  0  0  0
    9.2727   16.9446   19.6739 C   0  0  0  0  0  0  0  0  0  0  0  0
    8.6564   17.7979   20.5579 C   0  0  0  0  0  0  0  0  0  0  0  0
    7.9092   18.7865   19.9006 C   0  0  0  0  0  0  0  0  0  0  0  0
    7.8876   18.5631   18.5578 C   0  0  0  0  0  0  0  0  0  0  0  0
    9.0324   17.4194   18.0599 S   0  0  0  0  0  0  0  0  0  0  0  0
   10.3976   15.5309   21.2380 N   0  0  0  0  0  0  0  0  0  0  0  0
    9.9765   12.0224   24.2479 C   0  0  0  0  0  0  0  0  0  0  0  0
   10.3687   11.0005   23.4696 N   0  0  0  0  0  0  0  0  0  0  0  0
    9.4987    9.9983   23.7466 N   0  0  0  0  0  0  0  0  0  0  0  0
    9.5746    8.7451   22.9809 C   0  0  0  0  0  0  0  0  0  0  0  0
    8.3647    8.1604   22.8822 F   0  0  0  0  0  0  0  0  0  0  0  0
   10.4169    7.8378   23.5240 F   0  0  0  0  0  0  0  0  0  0  0  0
   10.0247    8.9618   21.7213 F   0  0  0  0  0  0  0  0  0  0  0  0
    8.5712   10.3623   24.7061 C   0  0  0  0  0  0  0  0  0  0  0  0
    7.5279    9.6723   25.3300 C   0  0  0  0  0  0  0  0  0  0  0  0
    6.7141   10.3660   26.2310 C   0  0  0  0  0  0  0  0  0  0  0  0
    6.9325   11.7121   26.5026 C   0  0  0  0  0  0  0  0  0  0  0  0
    7.9903   12.3917   25.8960 C   0  0  0  0  0  0  0  0  0  0  0  0
    8.8287   11.6994   25.0017 C   0  0  0  0  0  0  0  0  0  0  0  0
  1  2  2  0
  2  3  1  0
  3  4  1  0
  4  5  1  0
  5  6  2  0
  6  7  1  0
  7  8  1  0
  8  9  1  0
  9 10  2  0
 10 11  1  0
 11 12  2  0
 12 13  1  0
  8 14  2  0
  2 15  1  0
 15 16  2  0
 16 17  1  0
 17 18  1  0
 18 19  1  0
 18 20  1  0
 18 21  1  0
 17 22  1  0
 22 23  2  0
 23 24  1  0
 24 25  2  0
 25 26  1  0
 26 27  2  0
 14  5  1  0
 27 15  1  0
 13  9  1  0
 27 22  1  0
M  END
>  <energy_score>  (3659) 
-12.767744

>  <inchikey>  (3659) 
BSFIDOJZPVQUJN-UHFFFAOYSA-N

>  <smiles>  (3659) 
O=C(NCc1coc(-c2cccs2)n1)c1nn(C(F)(F)F)c2ccccc12

>  <ref_pdb>  (3659) 
A0514a

>  <alias>  (3659) 
BSFIDOJZPVQUJN-UHFFFAOYSA-N-P126-P126-P177-601502

>  <HIPPO Pose ID>  (3659) 
503166

>  <name>  (3659) 
BSFIDOJZPVQUJN-UHFFFAOYSA-N-P126-P126-P177-601502

>  <HIPPO Compound ID>  (3659) 
299401

>  <ref_mols>  (3659) 
A3403a,A2290a

>  <distance_score>  (3659) 
0.967148

>  <inspiration_score>  (3659) 
None

$$$$
BSFIDOJZPVQUJN-UHFFFAOYSA-N-P177-P126-P177-601502
     RDKit          3D

 27 30  0  0  0  0  0  0  0  0999 V2000
   10.5596   14.4638   24.5657 O   0  0  0  0  0  0  0  0  0  0  0  0
   10.5496   13.5693   23.8195 C   0  0  0  0  0  0  0  0  0  0  0  0
   11.2535   13.3927   22.4705 N   0  0  0  0  0  0  0  0  0  0  0  0
   12.0343   14.3006   21.7133 C   0  0  0  0  0  0  0  0  0  0  0  0
   11.1409   15.0145   20.8082 C   0  0  0  0  0  0  0  0  0  0  0  0
   10.9812   14.8438   19.4585 C   0  0  0  0  0  0  0  0  0  0  0  0
   10.0332   15.7082   19.0485 O   0  0  0  0  0  0  0  0  0  0  0  0
    9.7029   16.4187   20.1777 C   0  0  0  0  0  0  0  0  0  0  0  0
    8.9083   17.5818   20.1054 C   0  0  0  0  0  0  0  0  0  0  0  0
    8.7266   18.6038   20.9773 C   0  0  0  0  0  0  0  0  0  0  0  0
    8.1150   19.6982   20.3283 C   0  0  0  0  0  0  0  0  0  0  0  0
    7.6213   19.4457   19.1025 C   0  0  0  0  0  0  0  0  0  0  0  0
    8.1559   17.9762   18.6851 S   0  0  0  0  0  0  0  0  0  0  0  0
   10.3169   16.0044   21.2630 N   0  0  0  0  0  0  0  0  0  0  0  0
    9.7433   12.3553   24.0280 C   0  0  0  0  0  0  0  0  0  0  0  0
    9.9974   11.2687   23.2823 N   0  0  0  0  0  0  0  0  0  0  0  0
    9.1222   10.3316   23.6945 N   0  0  0  0  0  0  0  0  0  0  0  0
    9.0996    9.0097   23.0562 C   0  0  0  0  0  0  0  0  0  0  0  0
    7.8283    8.6283   22.8309 F   0  0  0  0  0  0  0  0  0  0  0  0
    9.6665    8.0517   23.8247 F   0  0  0  0  0  0  0  0  0  0  0  0
    9.7339    8.9877   21.8593 F   0  0  0  0  0  0  0  0  0  0  0  0
    8.2790   10.8043   24.6786 C   0  0  0  0  0  0  0  0  0  0  0  0
    7.2197   10.2145   25.3713 C   0  0  0  0  0  0  0  0  0  0  0  0
    6.5445   10.9849   26.3207 C   0  0  0  0  0  0  0  0  0  0  0  0
    6.9100   12.3046   26.5649 C   0  0  0  0  0  0  0  0  0  0  0  0
    7.9703   12.8888   25.8671 C   0  0  0  0  0  0  0  0  0  0  0  0
    8.6665   12.1243   24.9141 C   0  0  0  0  0  0  0  0  0  0  0  0
  1  2  2  0
  2  3  1  0
  3  4  1  0
  4  5  1  0
  5  6  2  0
  6  7  1  0
  7  8  1  0
  8  9  1  0
  9 10  2  0
 10 11  1  0
 11 12  2  0
 12 13  1  0
  8 14  2  0
  2 15  1  0
 15 16  2  0
 16 17  1  0
 17 18  1  0
 18 19  1  0
 18 20  1  0
 18 21  1  0
 17 22  1  0
 22 23  2  0
 23 24  1  0
 24 25  2  0
 25 26  1  0
 26 27  2  0
 14  5  1  0
 27 15  1  0
 13  9  1  0
 27 22  1  0
M  END
>  <energy_score>  (3660) 
-5.780811

>  <inchikey>  (3660) 
BSFIDOJZPVQUJN-UHFFFAOYSA-N

>  <smiles>  (3660) 
O=C(NCc1coc(-c2cccs2)n1)c1nn(C(F)(F)F)c2ccccc12

>  <ref_pdb>  (3660) 
A0514a

>  <alias>  (3660) 
BSFIDOJZPVQUJN-UHFFFAOYSA-N-P177-P126-P177-601502

>  <HIPPO Pose ID>  (3660) 
503167

>  <name>  (3660) 
BSFIDOJZPVQUJN-UHFFFAOYSA-N-P177-P126-P177-601502

>  <HIPPO Compound ID>  (3660) 
299401

>  <ref_mols>  (3660) 
A3403a,A2290a

>  <distance_score>  (3660) 
0.693368

>  <inspiration_score>  (3660) 
None

$$$$
UHPIDFVZLXOWRW-UHFFFAOYSA-N-P126-P126-P177-601502
     RDKit          3D

 27 29  0  0  0  0  0  0  0  0999 V2000
    4.0983   12.6844   28.6053 C   0  0  0  0  0  0  0  0  0  0  0  0
    4.9276   11.9793   27.6814 O   0  0  0  0  0  0  0  0  0  0  0  0
    6.1663   12.5162   27.5430 C   0  0  0  0  0  0  0  0  0  0  0  0
    6.6046   13.4851   28.1418 O   0  0  0  0  0  0  0  0  0  0  0  0
    6.9485   11.7539   26.5407 C   0  0  0  0  0  0  0  0  0  0  0  0
    6.7004   10.4013   26.2951 C   0  0  0  0  0  0  0  0  0  0  0  0
    7.4689    9.6891   25.3696 C   0  0  0  0  0  0  0  0  0  0  0  0
    8.4822   10.3663   24.6867 C   0  0  0  0  0  0  0  0  0  0  0  0
    8.7660   11.7052   24.9367 C   0  0  0  0  0  0  0  0  0  0  0  0
    7.9898   12.4159   25.8729 C   0  0  0  0  0  0  0  0  0  0  0  0
    9.8628   12.0053   24.0918 C   0  0  0  0  0  0  0  0  0  0  0  0
   10.5923   13.2713   23.9770 C   0  0  0  0  0  0  0  0  0  0  0  0
   10.5559   14.0784   24.8148 O   0  0  0  0  0  0  0  0  0  0  0  0
   11.2439   13.3057   22.5943 N   0  0  0  0  0  0  0  0  0  0  0  0
   11.9041   14.3617   21.9106 C   0  0  0  0  0  0  0  0  0  0  0  0
   10.9102   14.9859   21.0061 C   0  0  0  0  0  0  0  0  0  0  0  0
    9.8777   15.7367   21.4917 N   0  0  0  0  0  0  0  0  0  0  0  0
    9.3665   16.3198   20.4365 C   0  0  0  0  0  0  0  0  0  0  0  0
    9.8634   15.8750   19.2558 O   0  0  0  0  0  0  0  0  0  0  0  0
   10.8569   15.0092   19.6344 C   0  0  0  0  0  0  0  0  0  0  0  0
   11.7114   14.4133   18.6177 C   0  0  0  0  0  0  0  0  0  0  0  0
   12.2302   15.2991   17.7525 F   0  0  0  0  0  0  0  0  0  0  0  0
   12.7822   13.7971   19.1907 F   0  0  0  0  0  0  0  0  0  0  0  0
   11.0891   13.4604   17.9069 F   0  0  0  0  0  0  0  0  0  0  0  0
   10.1847   10.9620   23.3092 N   0  0  0  0  0  0  0  0  0  0  0  0
    9.3663    9.9783   23.7086 N   0  0  0  0  0  0  0  0  0  0  0  0
    9.4763    8.6954   23.0568 C   0  0  0  0  0  0  0  0  0  0  0  0
  1  2  1  0
  2  3  1  0
  3  4  2  0
  3  5  1  0
  5  6  2  0
  6  7  1  0
  7  8  2  0
  8  9  1  0
  9 10  2  0
  9 11  1  0
 11 12  1  0
 12 13  2  0
 12 14  1  0
 14 15  1  0
 15 16  1  0
 16 17  1  0
 17 18  2  0
 18 19  1  0
 19 20  1  0
 20 21  1  0
 21 22  1  0
 21 23  1  0
 21 24  1  0
 11 25  2  0
 25 26  1  0
 26 27  1  0
 10  5  1  0
 20 16  2  0
 26  8  1  0
M  END
>  <energy_score>  (3661) 
-18.015595

>  <inchikey>  (3661) 
UHPIDFVZLXOWRW-UHFFFAOYSA-N

>  <smiles>  (3661) 
COC(=O)c1ccc2c(c1)c(C(=O)NCc1ncoc1C(F)(F)F)nn2C

>  <ref_pdb>  (3661) 
A0514a

>  <alias>  (3661) 
UHPIDFVZLXOWRW-UHFFFAOYSA-N-P126-P126-P177-601502

>  <HIPPO Pose ID>  (3661) 
503168

>  <name>  (3661) 
UHPIDFVZLXOWRW-UHFFFAOYSA-N-P126-P126-P177-601502

>  <HIPPO Compound ID>  (3661) 
299402

>  <ref_mols>  (3661) 
A3403a,A2290a

>  <distance_score>  (3661) 
0.783304

>  <inspiration_score>  (3661) 
None

$$$$
UHPIDFVZLXOWRW-UHFFFAOYSA-N-P177-P126-P177-601502
     RDKit          3D

 27 29  0  0  0  0  0  0  0  0999 V2000
    4.1153   13.0787   28.9366 C   0  0  0  0  0  0  0  0  0  0  0  0
    4.8633   12.3770   27.9426 O   0  0  0  0  0  0  0  0  0  0  0  0
    6.0901   12.9103   27.7095 C   0  0  0  0  0  0  0  0  0  0  0  0
    6.5787   13.8694   28.2841 O   0  0  0  0  0  0  0  0  0  0  0  0
    6.7863   12.1562   26.6381 C   0  0  0  0  0  0  0  0  0  0  0  0
    6.4676   10.8264   26.3540 C   0  0  0  0  0  0  0  0  0  0  0  0
    7.1601   10.1154   25.3703 C   0  0  0  0  0  0  0  0  0  0  0  0
    8.1751   10.7682   24.6753 C   0  0  0  0  0  0  0  0  0  0  0  0
    8.5155   12.0905   24.9412 C   0  0  0  0  0  0  0  0  0  0  0  0
    7.8183   12.7987   25.9388 C   0  0  0  0  0  0  0  0  0  0  0  0
    9.5652   12.3830   24.0368 C   0  0  0  0  0  0  0  0  0  0  0  0
   10.2972   13.6484   23.8831 C   0  0  0  0  0  0  0  0  0  0  0  0
   10.2533   14.4838   24.6925 O   0  0  0  0  0  0  0  0  0  0  0  0
   10.9845   13.6258   22.5170 N   0  0  0  0  0  0  0  0  0  0  0  0
   11.6784   14.6455   21.8175 C   0  0  0  0  0  0  0  0  0  0  0  0
   10.7253   15.3549   20.9436 C   0  0  0  0  0  0  0  0  0  0  0  0
    9.7587   16.1817   21.4541 N   0  0  0  0  0  0  0  0  0  0  0  0
    9.2218   16.7417   20.3989 C   0  0  0  0  0  0  0  0  0  0  0  0
    9.6989   16.2813   19.2082 O   0  0  0  0  0  0  0  0  0  0  0  0
   10.6695   15.3859   19.5726 C   0  0  0  0  0  0  0  0  0  0  0  0
   11.4676   14.7180   18.5479 C   0  0  0  0  0  0  0  0  0  0  0  0
   11.9230   15.5487   17.5907 F   0  0  0  0  0  0  0  0  0  0  0  0
   12.5652   14.1320   19.0914 F   0  0  0  0  0  0  0  0  0  0  0  0
   10.7887   13.7153   17.9543 F   0  0  0  0  0  0  0  0  0  0  0  0
    9.8403   11.3280   23.2502 N   0  0  0  0  0  0  0  0  0  0  0  0
    9.0273   10.3570   23.6818 N   0  0  0  0  0  0  0  0  0  0  0  0
    9.1227    9.0450   23.0838 C   0  0  0  0  0  0  0  0  0  0  0  0
  1  2  1  0
  2  3  1  0
  3  4  2  0
  3  5  1  0
  5  6  2  0
  6  7  1  0
  7  8  2  0
  8  9  1  0
  9 10  2  0
  9 11  1  0
 11 12  1  0
 12 13  2  0
 12 14  1  0
 14 15  1  0
 15 16  1  0
 16 17  1  0
 17 18  2  0
 18 19  1  0
 19 20  1  0
 20 21  1  0
 21 22  1  0
 21 23  1  0
 21 24  1  0
 11 25  2  0
 25 26  1  0
 26 27  1  0
 10  5  1  0
 20 16  2  0
 26  8  1  0
M  END
>  <energy_score>  (3662) 
-19.812503

>  <inchikey>  (3662) 
UHPIDFVZLXOWRW-UHFFFAOYSA-N

>  <smiles>  (3662) 
COC(=O)c1ccc2c(c1)c(C(=O)NCc1ncoc1C(F)(F)F)nn2C

>  <ref_pdb>  (3662) 
A0514a

>  <alias>  (3662) 
UHPIDFVZLXOWRW-UHFFFAOYSA-N-P177-P126-P177-601502

>  <HIPPO Pose ID>  (3662) 
503169

>  <name>  (3662) 
UHPIDFVZLXOWRW-UHFFFAOYSA-N-P177-P126-P177-601502

>  <HIPPO Compound ID>  (3662) 
299402

>  <ref_mols>  (3662) 
A3403a,A2290a

>  <distance_score>  (3662) 
0.752917

>  <inspiration_score>  (3662) 
None

$$$$
ZANWYZMDCAMQAT-UHFFFAOYSA-N-P126-P126-P177-601502
     RDKit          3D

 27 29  0  0  0  0  0  0  0  0999 V2000
    4.2576   12.7739   28.6240 C   0  0  0  0  0  0  0  0  0  0  0  0
    5.0653   12.0526   27.6939 O   0  0  0  0  0  0  0  0  0  0  0  0
    6.2974   12.5898   27.5107 C   0  0  0  0  0  0  0  0  0  0  0  0
    6.7538   13.5646   28.0864 O   0  0  0  0  0  0  0  0  0  0  0  0
    7.0509   11.8182   26.4940 C   0  0  0  0  0  0  0  0  0  0  0  0
    6.8058   10.4596   26.2775 C   0  0  0  0  0  0  0  0  0  0  0  0
    7.5552    9.7371   25.3441 C   0  0  0  0  0  0  0  0  0  0  0  0
    8.5405   10.4150   24.6197 C   0  0  0  0  0  0  0  0  0  0  0  0
    8.8108   11.7638   24.8269 C   0  0  0  0  0  0  0  0  0  0  0  0
    8.0609   12.4810   25.7792 C   0  0  0  0  0  0  0  0  0  0  0  0
    9.8526   12.0711   23.9136 C   0  0  0  0  0  0  0  0  0  0  0  0
   10.5213   13.3619   23.7214 C   0  0  0  0  0  0  0  0  0  0  0  0
   10.6329   14.1186   24.5994 O   0  0  0  0  0  0  0  0  0  0  0  0
   10.8942   13.4949   22.2424 N   0  0  0  0  0  0  0  0  0  0  0  0
   11.5654   14.5418   21.5470 C   0  0  0  0  0  0  0  0  0  0  0  0
   10.6015   15.2387   20.6586 C   0  0  0  0  0  0  0  0  0  0  0  0
   10.5160   15.1962   19.2913 C   0  0  0  0  0  0  0  0  0  0  0  0
    9.6818   16.1895   18.8755 O   0  0  0  0  0  0  0  0  0  0  0  0
    9.2890   16.8261   20.0298 C   0  0  0  0  0  0  0  0  0  0  0  0
    8.5392   18.1310   19.8590 C   0  0  0  0  0  0  0  0  0  0  0  0
    9.0643   18.8673   18.8392 F   0  0  0  0  0  0  0  0  0  0  0  0
    8.5828   18.8911   20.9768 F   0  0  0  0  0  0  0  0  0  0  0  0
    7.2372   18.0085   19.5365 F   0  0  0  0  0  0  0  0  0  0  0  0
    9.7446   16.2154   21.1168 N   0  0  0  0  0  0  0  0  0  0  0  0
   10.1717   11.0118   23.1530 N   0  0  0  0  0  0  0  0  0  0  0  0
    9.4007   10.0186   23.6243 N   0  0  0  0  0  0  0  0  0  0  0  0
    9.5231    8.7121   23.0240 C   0  0  0  0  0  0  0  0  0  0  0  0
  1  2  1  0
  2  3  1  0
  3  4  2  0
  3  5  1  0
  5  6  2  0
  6  7  1  0
  7  8  2  0
  8  9  1  0
  9 10  2  0
  9 11  1  0
 11 12  1  0
 12 13  2  0
 12 14  1  0
 14 15  1  0
 15 16  1  0
 16 17  2  0
 17 18  1  0
 18 19  1  0
 19 20  1  0
 20 21  1  0
 20 22  1  0
 20 23  1  0
 19 24  2  0
 11 25  2  0
 25 26  1  0
 26 27  1  0
 10  5  1  0
 24 16  1  0
 26  8  1  0
M  END
>  <energy_score>  (3663) 
-15.10188

>  <inchikey>  (3663) 
ZANWYZMDCAMQAT-UHFFFAOYSA-N

>  <smiles>  (3663) 
COC(=O)c1ccc2c(c1)c(C(=O)NCc1coc(C(F)(F)F)n1)nn2C

>  <ref_pdb>  (3663) 
A0514a

>  <alias>  (3663) 
ZANWYZMDCAMQAT-UHFFFAOYSA-N-P126-P126-P177-601502

>  <HIPPO Pose ID>  (3663) 
503170

>  <name>  (3663) 
ZANWYZMDCAMQAT-UHFFFAOYSA-N-P126-P126-P177-601502

>  <HIPPO Compound ID>  (3663) 
299403

>  <ref_mols>  (3663) 
A3403a,A2290a

>  <distance_score>  (3663) 
0.68942

>  <inspiration_score>  (3663) 
None

$$$$
ZANWYZMDCAMQAT-UHFFFAOYSA-N-P177-P126-P177-601502
     RDKit          3D

 27 29  0  0  0  0  0  0  0  0999 V2000
    4.5993   13.6758   28.9697 C   0  0  0  0  0  0  0  0  0  0  0  0
    5.2423   12.8695   27.9816 O   0  0  0  0  0  0  0  0  0  0  0  0
    6.4822   13.3048   27.6450 C   0  0  0  0  0  0  0  0  0  0  0  0
    7.0698   14.2554   28.1363 O   0  0  0  0  0  0  0  0  0  0  0  0
    7.0622   12.4516   26.5775 C   0  0  0  0  0  0  0  0  0  0  0  0
    6.6145   11.1450   26.3536 C   0  0  0  0  0  0  0  0  0  0  0  0
    7.2065   10.3385   25.3777 C   0  0  0  0  0  0  0  0  0  0  0  0
    8.2539   10.8825   24.6306 C   0  0  0  0  0  0  0  0  0  0  0  0
    8.7169   12.1841   24.8250 C   0  0  0  0  0  0  0  0  0  0  0  0
    8.1173   12.9815   25.8168 C   0  0  0  0  0  0  0  0  0  0  0  0
    9.7558   12.3562   23.8707 C   0  0  0  0  0  0  0  0  0  0  0  0
   10.6159   13.5339   23.6212 C   0  0  0  0  0  0  0  0  0  0  0  0
   10.7518   14.3803   24.4116 O   0  0  0  0  0  0  0  0  0  0  0  0
   11.2129   13.3794   22.2153 N   0  0  0  0  0  0  0  0  0  0  0  0
   12.0232   14.2706   21.4476 C   0  0  0  0  0  0  0  0  0  0  0  0
   11.1259   15.1546   20.6953 C   0  0  0  0  0  0  0  0  0  0  0  0
   10.8088   15.1853   19.3586 C   0  0  0  0  0  0  0  0  0  0  0  0
    9.8538   16.1384   19.1761 O   0  0  0  0  0  0  0  0  0  0  0  0
    9.6580   16.6603   20.4334 C   0  0  0  0  0  0  0  0  0  0  0  0
    8.5183   17.5869   20.6337 C   0  0  0  0  0  0  0  0  0  0  0  0
    8.0186   18.0646   19.4617 F   0  0  0  0  0  0  0  0  0  0  0  0
    8.8258   18.6655   21.3899 F   0  0  0  0  0  0  0  0  0  0  0  0
    7.5447   16.8739   21.2568 F   0  0  0  0  0  0  0  0  0  0  0  0
   10.4232   16.1145   21.3583 N   0  0  0  0  0  0  0  0  0  0  0  0
    9.9036   11.2465   23.1271 N   0  0  0  0  0  0  0  0  0  0  0  0
    9.0375   10.3651   23.6327 N   0  0  0  0  0  0  0  0  0  0  0  0
    9.0261    9.0220   23.1038 C   0  0  0  0  0  0  0  0  0  0  0  0
  1  2  1  0
  2  3  1  0
  3  4  2  0
  3  5  1  0
  5  6  2  0
  6  7  1  0
  7  8  2  0
  8  9  1  0
  9 10  2  0
  9 11  1  0
 11 12  1  0
 12 13  2  0
 12 14  1  0
 14 15  1  0
 15 16  1  0
 16 17  2  0
 17 18  1  0
 18 19  1  0
 19 20  1  0
 20 21  1  0
 20 22  1  0
 20 23  1  0
 19 24  2  0
 11 25  2  0
 25 26  1  0
 26 27  1  0
 10  5  1  0
 24 16  1  0
 26  8  1  0
M  END
>  <energy_score>  (3664) 
-16.184211

>  <inchikey>  (3664) 
ZANWYZMDCAMQAT-UHFFFAOYSA-N

>  <smiles>  (3664) 
COC(=O)c1ccc2c(c1)c(C(=O)NCc1coc(C(F)(F)F)n1)nn2C

>  <ref_pdb>  (3664) 
A0514a

>  <alias>  (3664) 
ZANWYZMDCAMQAT-UHFFFAOYSA-N-P177-P126-P177-601502

>  <HIPPO Pose ID>  (3664) 
503171

>  <name>  (3664) 
ZANWYZMDCAMQAT-UHFFFAOYSA-N-P177-P126-P177-601502

>  <HIPPO Compound ID>  (3664) 
299403

>  <ref_mols>  (3664) 
A3403a,A2290a

>  <distance_score>  (3664) 
0.657294

>  <inspiration_score>  (3664) 
None

$$$$
DCGBILXPBQQCFB-UHFFFAOYSA-N-P126-P126-P177-601502
     RDKit          3D

 27 29  0  0  0  0  0  0  0  0999 V2000
    3.9159   12.5063   28.6351 C   0  0  0  0  0  0  0  0  0  0  0  0
    4.7777   11.8440   27.7094 O   0  0  0  0  0  0  0  0  0  0  0  0
    6.0075   12.4095   27.6102 C   0  0  0  0  0  0  0  0  0  0  0  0
    6.4123   13.3719   28.2421 O   0  0  0  0  0  0  0  0  0  0  0  0
    6.8258   11.6889   26.6056 C   0  0  0  0  0  0  0  0  0  0  0  0
    6.6088   10.3397   26.3180 C   0  0  0  0  0  0  0  0  0  0  0  0
    7.4089    9.6679   25.3890 C   0  0  0  0  0  0  0  0  0  0  0  0
    8.4232   10.3798   24.7459 C   0  0  0  0  0  0  0  0  0  0  0  0
    8.6788   11.7142   25.0428 C   0  0  0  0  0  0  0  0  0  0  0  0
    7.8702   12.3858   25.9806 C   0  0  0  0  0  0  0  0  0  0  0  0
    9.8000   12.0506   24.2483 C   0  0  0  0  0  0  0  0  0  0  0  0
   10.5346   13.3194   24.2227 C   0  0  0  0  0  0  0  0  0  0  0  0
   10.4394   14.1060   25.0744 O   0  0  0  0  0  0  0  0  0  0  0  0
   11.3023   13.3750   22.9054 N   0  0  0  0  0  0  0  0  0  0  0  0
   12.0365   14.4340   22.3086 C   0  0  0  0  0  0  0  0  0  0  0  0
   11.4207   14.7254   21.0075 C   0  0  0  0  0  0  0  0  0  0  0  0
   11.8737   14.3795   19.7642 C   0  0  0  0  0  0  0  0  0  0  0  0
   11.0748   14.9545   18.8449 O   0  0  0  0  0  0  0  0  0  0  0  0
   10.1704   15.6703   19.5771 C   0  0  0  0  0  0  0  0  0  0  0  0
    9.4780   16.7435   18.8011 C   0  0  0  0  0  0  0  0  0  0  0  0
    8.4851   17.5499   19.5128 N   0  0  0  0  0  0  0  0  0  0  0  0
    8.1475   18.7426   18.8076 C   0  0  0  0  0  0  0  0  0  0  0  0
    8.6482   17.7676   20.9247 C   0  0  0  0  0  0  0  0  0  0  0  0
   10.2785   15.4771   20.8826 N   0  0  0  0  0  0  0  0  0  0  0  0
   10.1640   11.0346   23.4451 N   0  0  0  0  0  0  0  0  0  0  0  0
    9.3342   10.0337   23.7765 N   0  0  0  0  0  0  0  0  0  0  0  0
    9.4781    8.7712   23.0903 C   0  0  0  0  0  0  0  0  0  0  0  0
  1  2  1  0
  2  3  1  0
  3  4  2  0
  3  5  1  0
  5  6  2  0
  6  7  1  0
  7  8  2  0
  8  9  1  0
  9 10  2  0
  9 11  1  0
 11 12  1  0
 12 13  2  0
 12 14  1  0
 14 15  1  0
 15 16  1  0
 16 17  2  0
 17 18  1  0
 18 19  1  0
 19 20  1  0
 20 21  1  0
 21 22  1  0
 21 23  1  0
 19 24  2  0
 11 25  2  0
 25 26  1  0
 26 27  1  0
 10  5  1  0
 24 16  1  0
 26  8  1  0
M  END
>  <energy_score>  (3665) 
-20.290551

>  <inchikey>  (3665) 
DCGBILXPBQQCFB-UHFFFAOYSA-N

>  <smiles>  (3665) 
COC(=O)c1ccc2c(c1)c(C(=O)NCc1coc(CN(C)C)n1)nn2C

>  <ref_pdb>  (3665) 
A0514a

>  <alias>  (3665) 
DCGBILXPBQQCFB-UHFFFAOYSA-N-P126-P126-P177-601502

>  <HIPPO Pose ID>  (3665) 
503172

>  <name>  (3665) 
DCGBILXPBQQCFB-UHFFFAOYSA-N-P126-P126-P177-601502

>  <HIPPO Compound ID>  (3665) 
299404

>  <ref_mols>  (3665) 
A3403a,A2290a

>  <distance_score>  (3665) 
1.011904

>  <inspiration_score>  (3665) 
None

$$$$
NMEMOOQTWSBFNN-UHFFFAOYSA-N-P177-P126-P177-601502
     RDKit          3D

 28 31  0  0  0  0  0  0  0  0999 V2000
    9.9218   14.2278   26.2254 O   0  0  0  0  0  0  0  0  0  0  0  0
    9.9542   13.6164   25.2468 C   0  0  0  0  0  0  0  0  0  0  0  0
   10.3916   14.0051   23.8749 N   0  0  0  0  0  0  0  0  0  0  0  0
   10.7921   15.2267   23.3716 C   0  0  0  0  0  0  0  0  0  0  0  0
    9.5609   15.5266   22.6024 C   0  0  0  0  0  0  0  0  0  0  0  0
    8.2729   15.4892   23.1022 N   0  0  0  0  0  0  0  0  0  0  0  0
    7.5396   15.8838   22.0864 C   0  0  0  0  0  0  0  0  0  0  0  0
    8.2014   15.9468   20.9112 O   0  0  0  0  0  0  0  0  0  0  0  0
    9.4581   15.6301   21.2646 C   0  0  0  0  0  0  0  0  0  0  0  0
   10.3886   15.3417   20.2724 C   0  0  0  0  0  0  0  0  0  0  0  0
   11.3103   14.3245   20.4873 C   0  0  0  0  0  0  0  0  0  0  0  0
   12.1549   13.9576   19.4931 C   0  0  0  0  0  0  0  0  0  0  0  0
   12.0243   14.5905   18.3044 C   0  0  0  0  0  0  0  0  0  0  0  0
   11.2715   15.7181   18.1918 C   0  0  0  0  0  0  0  0  0  0  0  0
   10.3733   16.0834   19.1402 C   0  0  0  0  0  0  0  0  0  0  0  0
    9.4670   12.2768   25.0571 C   0  0  0  0  0  0  0  0  0  0  0  0
    9.8902   11.4907   24.0447 N   0  0  0  0  0  0  0  0  0  0  0  0
    9.0696   10.4114   24.1091 N   0  0  0  0  0  0  0  0  0  0  0  0
    9.3033    9.2503   23.2367 C   0  0  0  0  0  0  0  0  0  0  0  0
    8.1993    8.4873   23.1361 F   0  0  0  0  0  0  0  0  0  0  0  0
    9.6290    9.6208   21.9791 F   0  0  0  0  0  0  0  0  0  0  0  0
   10.2936    8.4505   23.6943 F   0  0  0  0  0  0  0  0  0  0  0  0
    8.0688   10.5984   25.0443 C   0  0  0  0  0  0  0  0  0  0  0  0
    6.9964    9.8334   25.4548 C   0  0  0  0  0  0  0  0  0  0  0  0
    6.1471   10.3322   26.4496 C   0  0  0  0  0  0  0  0  0  0  0  0
    6.3218   11.5928   26.9926 C   0  0  0  0  0  0  0  0  0  0  0  0
    7.4020   12.3572   26.5906 C   0  0  0  0  0  0  0  0  0  0  0  0
    8.2949   11.8203   25.6481 C   0  0  0  0  0  0  0  0  0  0  0  0
  1  2  2  0
  2  3  1  0
  3  4  1  0
  4  5  1  0
  5  6  1  0
  6  7  2  0
  7  8  1  0
  8  9  1  0
  9 10  1  0
 10 11  2  0
 11 12  1  0
 12 13  2  0
 13 14  1  0
 14 15  2  0
  2 16  1  0
 16 17  2  0
 17 18  1  0
 18 19  1  0
 19 20  1  0
 19 21  1  0
 19 22  1  0
 18 23  1  0
 23 24  2  0
 24 25  1  0
 25 26  2  0
 26 27  1  0
 27 28  2  0
  9  5  2  0
 15 10  1  0
 28 16  1  0
 28 23  1  0
M  END
>  <energy_score>  (3666) 
-4.294734

>  <inchikey>  (3666) 
NMEMOOQTWSBFNN-UHFFFAOYSA-N

>  <smiles>  (3666) 
O=C(NCc1ncoc1-c1ccccc1)c1nn(C(F)(F)F)c2ccccc12

>  <ref_pdb>  (3666) 
A0514a

>  <alias>  (3666) 
NMEMOOQTWSBFNN-UHFFFAOYSA-N-P177-P126-P177-601502

>  <HIPPO Pose ID>  (3666) 
503205

>  <name>  (3666) 
NMEMOOQTWSBFNN-UHFFFAOYSA-N-P177-P126-P177-601502

>  <HIPPO Compound ID>  (3666) 
299420

>  <ref_mols>  (3666) 
A3403a,A2290a

>  <distance_score>  (3666) 
1.937373

>  <inspiration_score>  (3666) 
None

$$$$
GCJLIHVIGLAYJM-UHFFFAOYSA-N-P126-P126-P177-601502
     RDKit          3D

 28 31  0  0  0  0  0  0  0  0999 V2000
    3.9601   12.6908   28.6234 C   0  0  0  0  0  0  0  0  0  0  0  0
    4.8029   11.9841   27.7126 O   0  0  0  0  0  0  0  0  0  0  0  0
    6.0485   12.5120   27.6042 C   0  0  0  0  0  0  0  0  0  0  0  0
    6.4836   13.4702   28.2219 O   0  0  0  0  0  0  0  0  0  0  0  0
    6.8440   11.7540   26.6089 C   0  0  0  0  0  0  0  0  0  0  0  0
    6.5859   10.4083   26.3380 C   0  0  0  0  0  0  0  0  0  0  0  0
    7.3643    9.7000   25.4175 C   0  0  0  0  0  0  0  0  0  0  0  0
    8.4003   10.3731   24.7664 C   0  0  0  0  0  0  0  0  0  0  0  0
    8.6960   11.7036   25.0467 C   0  0  0  0  0  0  0  0  0  0  0  0
    7.9086   12.4112   25.9752 C   0  0  0  0  0  0  0  0  0  0  0  0
    9.8278   11.9945   24.2506 C   0  0  0  0  0  0  0  0  0  0  0  0
   10.6147   13.2300   24.2091 C   0  0  0  0  0  0  0  0  0  0  0  0
   10.5689   14.0323   25.0499 O   0  0  0  0  0  0  0  0  0  0  0  0
   11.3949   13.2133   22.8989 N   0  0  0  0  0  0  0  0  0  0  0  0
   12.2064   14.2076   22.2966 C   0  0  0  0  0  0  0  0  0  0  0  0
   11.4772   14.6748   21.1172 C   0  0  0  0  0  0  0  0  0  0  0  0
   11.7171   14.4372   19.7915 C   0  0  0  0  0  0  0  0  0  0  0  0
   10.7982   15.1141   19.0735 O   0  0  0  0  0  0  0  0  0  0  0  0
   10.0869   15.8136   20.0076 C   0  0  0  0  0  0  0  0  0  0  0  0
    9.2835   16.9307   19.6854 C   0  0  0  0  0  0  0  0  0  0  0  0
    8.6620   17.7849   20.5649 C   0  0  0  0  0  0  0  0  0  0  0  0
    7.9195   18.7750   19.9029 C   0  0  0  0  0  0  0  0  0  0  0  0
    7.9046   18.5513   18.5600 C   0  0  0  0  0  0  0  0  0  0  0  0
    9.0493   17.4052   18.0691 S   0  0  0  0  0  0  0  0  0  0  0  0
   10.3835   15.4870   21.2494 N   0  0  0  0  0  0  0  0  0  0  0  0
   10.1560   10.9595   23.4550 N   0  0  0  0  0  0  0  0  0  0  0  0
    9.3018    9.9885   23.8034 N   0  0  0  0  0  0  0  0  0  0  0  0
    9.4094    8.7200   23.1249 C   0  0  0  0  0  0  0  0  0  0  0  0
  1  2  1  0
  2  3  1  0
  3  4  2  0
  3  5  1  0
  5  6  2  0
  6  7  1  0
  7  8  2  0
  8  9  1  0
  9 10  2  0
  9 11  1  0
 11 12  1  0
 12 13  2  0
 12 14  1  0
 14 15  1  0
 15 16  1  0
 16 17  2  0
 17 18  1  0
 18 19  1  0
 19 20  1  0
 20 21  2  0
 21 22  1  0
 22 23  2  0
 23 24  1  0
 19 25  2  0
 11 26  2  0
 26 27  1  0
 27 28  1  0
 10  5  1  0
 25 16  1  0
 27  8  1  0
 24 20  1  0
M  END
>  <energy_score>  (3667) 
-44.064582

>  <inchikey>  (3667) 
GCJLIHVIGLAYJM-UHFFFAOYSA-N

>  <smiles>  (3667) 
COC(=O)c1ccc2c(c1)c(C(=O)NCc1coc(-c3cccs3)n1)nn2C

>  <ref_pdb>  (3667) 
A0514a

>  <alias>  (3667) 
GCJLIHVIGLAYJM-UHFFFAOYSA-N-P126-P126-P177-601502

>  <HIPPO Pose ID>  (3667) 
503206

>  <name>  (3667) 
GCJLIHVIGLAYJM-UHFFFAOYSA-N-P126-P126-P177-601502

>  <HIPPO Compound ID>  (3667) 
299421

>  <ref_mols>  (3667) 
A3403a,A2290a

>  <distance_score>  (3667) 
0.970519

>  <inspiration_score>  (3667) 
None

$$$$
GCJLIHVIGLAYJM-UHFFFAOYSA-N-P177-P126-P177-601502
     RDKit          3D

 28 31  0  0  0  0  0  0  0  0999 V2000
    4.4424   13.6479   28.9786 C   0  0  0  0  0  0  0  0  0  0  0  0
    5.1083   12.8338   28.0114 O   0  0  0  0  0  0  0  0  0  0  0  0
    6.3480   13.2790   27.6869 C   0  0  0  0  0  0  0  0  0  0  0  0
    6.9209   14.2394   28.1754 O   0  0  0  0  0  0  0  0  0  0  0  0
    6.9483   12.4214   26.6344 C   0  0  0  0  0  0  0  0  0  0  0  0
    6.5187   11.1072   26.4203 C   0  0  0  0  0  0  0  0  0  0  0  0
    7.1256   10.2984   25.4553 C   0  0  0  0  0  0  0  0  0  0  0  0
    8.1725   10.8439   24.7110 C   0  0  0  0  0  0  0  0  0  0  0  0
    8.6183   12.1523   24.8994 C   0  0  0  0  0  0  0  0  0  0  0  0
    8.0030   12.9543   25.8771 C   0  0  0  0  0  0  0  0  0  0  0  0
    9.6635   12.3239   23.9572 C   0  0  0  0  0  0  0  0  0  0  0  0
   10.5134   13.5026   23.6993 C   0  0  0  0  0  0  0  0  0  0  0  0
   10.5652   14.4174   24.4181 O   0  0  0  0  0  0  0  0  0  0  0  0
   11.2080   13.2528   22.3594 N   0  0  0  0  0  0  0  0  0  0  0  0
   12.0330   14.1013   21.5748 C   0  0  0  0  0  0  0  0  0  0  0  0
   11.2110   14.7581   20.5613 C   0  0  0  0  0  0  0  0  0  0  0  0
   11.3100   14.7869   19.1912 C   0  0  0  0  0  0  0  0  0  0  0  0
   10.3479   15.6221   18.7202 O   0  0  0  0  0  0  0  0  0  0  0  0
    9.7515   16.0844   19.8517 C   0  0  0  0  0  0  0  0  0  0  0  0
    8.9568   17.2347   19.9467 C   0  0  0  0  0  0  0  0  0  0  0  0
    8.7058   17.8485   21.1225 C   0  0  0  0  0  0  0  0  0  0  0  0
    8.3568   19.1605   20.8466 C   0  0  0  0  0  0  0  0  0  0  0  0
    7.8438   19.3856   19.6154 C   0  0  0  0  0  0  0  0  0  0  0  0
    8.2032   18.0727   18.7200 S   0  0  0  0  0  0  0  0  0  0  0  0
   10.1604   15.5075   20.9588 N   0  0  0  0  0  0  0  0  0  0  0  0
    9.8334   11.2080   23.2241 N   0  0  0  0  0  0  0  0  0  0  0  0
    8.9693   10.3270   23.7238 N   0  0  0  0  0  0  0  0  0  0  0  0
    8.9685    8.9894   23.1851 C   0  0  0  0  0  0  0  0  0  0  0  0
  1  2  1  0
  2  3  1  0
  3  4  2  0
  3  5  1  0
  5  6  2  0
  6  7  1  0
  7  8  2  0
  8  9  1  0
  9 10  2  0
  9 11  1  0
 11 12  1  0
 12 13  2  0
 12 14  1  0
 14 15  1  0
 15 16  1  0
 16 17  2  0
 17 18  1  0
 18 19  1  0
 19 20  1  0
 20 21  2  0
 21 22  1  0
 22 23  2  0
 23 24  1  0
 19 25  2  0
 11 26  2  0
 26 27  1  0
 27 28  1  0
 10  5  1  0
 25 16  1  0
 27  8  1  0
 24 20  1  0
M  END
>  <energy_score>  (3668) 
-30.146825

>  <inchikey>  (3668) 
GCJLIHVIGLAYJM-UHFFFAOYSA-N

>  <smiles>  (3668) 
COC(=O)c1ccc2c(c1)c(C(=O)NCc1coc(-c3cccs3)n1)nn2C

>  <ref_pdb>  (3668) 
A0514a

>  <alias>  (3668) 
GCJLIHVIGLAYJM-UHFFFAOYSA-N-P177-P126-P177-601502

>  <HIPPO Pose ID>  (3668) 
503207

>  <name>  (3668) 
GCJLIHVIGLAYJM-UHFFFAOYSA-N-P177-P126-P177-601502

>  <HIPPO Compound ID>  (3668) 
299421

>  <ref_mols>  (3668) 
A3403a,A2290a

>  <distance_score>  (3668) 
0.789899

>  <inspiration_score>  (3668) 
None

$$$$
ZLZTVDNJKGQUFM-UHFFFAOYSA-N-P126-P126-P177-601502
     RDKit          3D

 28 31  0  0  0  0  0  0  0  0999 V2000
   10.6777   14.1130   25.0791 O   0  0  0  0  0  0  0  0  0  0  0  0
   10.7700   13.2921   24.2606 C   0  0  0  0  0  0  0  0  0  0  0  0
   11.5710   13.2743   22.9627 N   0  0  0  0  0  0  0  0  0  0  0  0
   12.3477   14.2830   22.3480 C   0  0  0  0  0  0  0  0  0  0  0  0
   11.5922   14.6709   21.1620 C   0  0  0  0  0  0  0  0  0  0  0  0
   11.8176   14.4224   19.8346 C   0  0  0  0  0  0  0  0  0  0  0  0
   10.8647   15.0683   19.1243 O   0  0  0  0  0  0  0  0  0  0  0  0
   10.1454   15.7212   20.0784 C   0  0  0  0  0  0  0  0  0  0  0  0
    9.3532   16.8290   19.6459 C   0  0  0  0  0  0  0  0  0  0  0  0
    9.1645   17.1219   18.3112 C   0  0  0  0  0  0  0  0  0  0  0  0
    8.2667   18.0941   17.9561 C   0  0  0  0  0  0  0  0  0  0  0  0
    7.6862   18.8824   18.9273 C   0  0  0  0  0  0  0  0  0  0  0  0
    8.0477   18.7466   20.2338 C   0  0  0  0  0  0  0  0  0  0  0  0
    8.7991   17.6659   20.6006 C   0  0  0  0  0  0  0  0  0  0  0  0
   10.4550   15.4077   21.3131 N   0  0  0  0  0  0  0  0  0  0  0  0
   10.0071   12.0451   24.2796 C   0  0  0  0  0  0  0  0  0  0  0  0
   10.4037   11.0286   23.4969 N   0  0  0  0  0  0  0  0  0  0  0  0
    9.5474   10.0228   23.7738 N   0  0  0  0  0  0  0  0  0  0  0  0
    9.6834    8.7587   23.0423 C   0  0  0  0  0  0  0  0  0  0  0  0
   10.6811    7.9749   23.5098 F   0  0  0  0  0  0  0  0  0  0  0  0
    8.5447    8.0449   23.0985 F   0  0  0  0  0  0  0  0  0  0  0  0
    9.9575    8.9667   21.7306 F   0  0  0  0  0  0  0  0  0  0  0  0
    8.5969   10.3834   24.7116 C   0  0  0  0  0  0  0  0  0  0  0  0
    7.5480    9.6893   25.3242 C   0  0  0  0  0  0  0  0  0  0  0  0
    6.7218   10.3807   26.2159 C   0  0  0  0  0  0  0  0  0  0  0  0
    6.9317   11.7282   26.4882 C   0  0  0  0  0  0  0  0  0  0  0  0
    7.9940   12.4115   25.8939 C   0  0  0  0  0  0  0  0  0  0  0  0
    8.8459   11.7219   25.0111 C   0  0  0  0  0  0  0  0  0  0  0  0
  1  2  2  0
  2  3  1  0
  3  4  1  0
  4  5  1  0
  5  6  2  0
  6  7  1  0
  7  8  1  0
  8  9  1  0
  9 10  2  0
 10 11  1  0
 11 12  2  0
 12 13  1  0
 13 14  2  0
  8 15  2  0
  2 16  1  0
 16 17  2  0
 17 18  1  0
 18 19  1  0
 19 20  1  0
 19 21  1  0
 19 22  1  0
 18 23  1  0
 23 24  2  0
 24 25  1  0
 25 26  2  0
 26 27  1  0
 27 28  2  0
 15  5  1  0
 28 16  1  0
 14  9  1  0
 28 23  1  0
M  END
>  <energy_score>  (3669) 
-6.279575

>  <inchikey>  (3669) 
ZLZTVDNJKGQUFM-UHFFFAOYSA-N

>  <smiles>  (3669) 
O=C(NCc1coc(-c2ccccc2)n1)c1nn(C(F)(F)F)c2ccccc12

>  <ref_pdb>  (3669) 
A0514a

>  <alias>  (3669) 
ZLZTVDNJKGQUFM-UHFFFAOYSA-N-P126-P126-P177-601502

>  <HIPPO Pose ID>  (3669) 
503210

>  <name>  (3669) 
ZLZTVDNJKGQUFM-UHFFFAOYSA-N-P126-P126-P177-601502

>  <HIPPO Compound ID>  (3669) 
299423

>  <ref_mols>  (3669) 
A3403a,A2290a

>  <distance_score>  (3669) 
1.018826

>  <inspiration_score>  (3669) 
None

$$$$
PNIBRNFYPDLXNM-UHFFFAOYSA-N-P126-P126-P177-601502
     RDKit          3D

 28 31  0  0  0  0  0  0  0  0999 V2000
    9.3696    8.7094   23.1385 C   0  0  0  0  0  0  0  0  0  0  0  0
    9.2806    9.9736   23.8278 N   0  0  0  0  0  0  0  0  0  0  0  0
   10.1628   10.9259   23.5008 N   0  0  0  0  0  0  0  0  0  0  0  0
    9.8245   11.9758   24.2698 C   0  0  0  0  0  0  0  0  0  0  0  0
   10.6269   13.1993   24.2282 C   0  0  0  0  0  0  0  0  0  0  0  0
   10.5236   14.0455   25.0194 O   0  0  0  0  0  0  0  0  0  0  0  0
   11.4735   13.1266   22.9623 N   0  0  0  0  0  0  0  0  0  0  0  0
   12.2960   14.1012   22.3479 C   0  0  0  0  0  0  0  0  0  0  0  0
   11.5643   14.5903   21.1819 C   0  0  0  0  0  0  0  0  0  0  0  0
   11.8108   14.3982   19.8486 C   0  0  0  0  0  0  0  0  0  0  0  0
   10.8782   15.0789   19.1490 O   0  0  0  0  0  0  0  0  0  0  0  0
   10.1561   15.7151   20.1127 C   0  0  0  0  0  0  0  0  0  0  0  0
    9.3630   16.8238   19.6776 C   0  0  0  0  0  0  0  0  0  0  0  0
    8.8001   17.6649   20.6210 C   0  0  0  0  0  0  0  0  0  0  0  0
    8.0507   18.7438   20.2412 C   0  0  0  0  0  0  0  0  0  0  0  0
    7.6968   18.8737   18.9318 C   0  0  0  0  0  0  0  0  0  0  0  0
    8.2840   18.0804   17.9697 C   0  0  0  0  0  0  0  0  0  0  0  0
    9.1815   17.1120   18.3389 C   0  0  0  0  0  0  0  0  0  0  0  0
   10.4554   15.3707   21.3439 N   0  0  0  0  0  0  0  0  0  0  0  0
    8.6677   11.7127   25.0371 C   0  0  0  0  0  0  0  0  0  0  0  0
    7.8599   12.4533   25.9212 C   0  0  0  0  0  0  0  0  0  0  0  0
    6.7794   11.8012   26.5306 C   0  0  0  0  0  0  0  0  0  0  0  0
    5.9238   12.5450   27.4544 N   0  0  0  0  0  0  0  0  0  0  0  0
    4.7647   12.1375   27.6224 O   0  0  0  0  0  0  0  0  0  0  0  0
    6.4270   13.5120   28.0444 O   0  0  0  0  0  0  0  0  0  0  0  0
    6.5195   10.4482   26.3027 C   0  0  0  0  0  0  0  0  0  0  0  0
    7.3217    9.7177   25.4230 C   0  0  0  0  0  0  0  0  0  0  0  0
    8.3717   10.3765   24.7779 C   0  0  0  0  0  0  0  0  0  0  0  0
  1  2  1  0
  2  3  1  0
  3  4  2  0
  4  5  1  0
  5  6  2  0
  5  7  1  0
  7  8  1  0
  8  9  1  0
  9 10  2  0
 10 11  1  0
 11 12  1  0
 12 13  1  0
 13 14  2  0
 14 15  1  0
 15 16  2  0
 16 17  1  0
 17 18  2  0
 12 19  2  0
  4 20  1  0
 20 21  2  0
 21 22  1  0
 22 23  1  0
 23 24  2  0
 23 25  1  0
 22 26  2  0
 26 27  1  0
 27 28  2  0
 28  2  1  0
 19  9  1  0
 28 20  1  0
 18 13  1  0
M  CHG  2  23   1  25  -1
M  END
>  <energy_score>  (3670) 
-15.6243

>  <inchikey>  (3670) 
PNIBRNFYPDLXNM-UHFFFAOYSA-N

>  <smiles>  (3670) 
Cn1nc(C(=O)NCc2coc(-c3ccccc3)n2)c2cc([N+](=O)[O-])ccc21

>  <ref_pdb>  (3670) 
A0514a

>  <alias>  (3670) 
PNIBRNFYPDLXNM-UHFFFAOYSA-N-P126-P126-P177-601502

>  <HIPPO Pose ID>  (3670) 
503212

>  <name>  (3670) 
PNIBRNFYPDLXNM-UHFFFAOYSA-N-P126-P126-P177-601502

>  <HIPPO Compound ID>  (3670) 
299424

>  <ref_mols>  (3670) 
A3403a,A2290a

>  <distance_score>  (3670) 
1.000526

>  <inspiration_score>  (3670) 
None

$$$$
BIJUZQUXVURVPM-UHFFFAOYSA-N-P126-P126-P177-601502
     RDKit          3D

 28 31  0  0  0  0  0  0  0  0999 V2000
   13.1187   14.9270   21.1253 C   0  0  0  0  0  0  0  0  0  0  0  0
   12.6244   14.0569   20.1144 O   0  0  0  0  0  0  0  0  0  0  0  0
   11.6376   14.5581   19.1956 C   0  0  0  0  0  0  0  0  0  0  0  0
   10.4875   15.1188   19.9213 C   0  0  0  0  0  0  0  0  0  0  0  0
    9.8832   16.2177   19.3762 O   0  0  0  0  0  0  0  0  0  0  0  0
    9.0551   16.6472   20.3591 C   0  0  0  0  0  0  0  0  0  0  0  0
    8.9636   15.8373   21.3869 N   0  0  0  0  0  0  0  0  0  0  0  0
    9.9558   14.9193   21.1763 C   0  0  0  0  0  0  0  0  0  0  0  0
   10.5186   14.0969   22.2661 C   0  0  0  0  0  0  0  0  0  0  0  0
    9.5527   13.4195   23.0351 N   0  0  0  0  0  0  0  0  0  0  0  0
    9.0042   13.7193   24.4307 C   0  0  0  0  0  0  0  0  0  0  0  0
    9.2030   14.6176   25.1432 O   0  0  0  0  0  0  0  0  0  0  0  0
    8.2068   12.5651   24.7940 C   0  0  0  0  0  0  0  0  0  0  0  0
    8.2624   11.4958   23.9907 N   0  0  0  0  0  0  0  0  0  0  0  0
    7.8472   10.5031   24.7575 N   0  0  0  0  0  0  0  0  0  0  0  0
    8.3027    9.1831   24.4424 C   0  0  0  0  0  0  0  0  0  0  0  0
    9.7475    9.1914   24.0280 C   0  0  1  0  0  0  0  0  0  0  0  0
   10.1403    7.8239   23.5908 C   0  0  0  0  0  0  0  0  0  0  0  0
    9.4671    7.8911   22.3813 N   0  0  0  0  0  0  0  0  0  0  0  0
   10.0571    9.0199   21.9240 C   0  0  0  0  0  0  0  0  0  0  0  0
   10.7334    9.0492   20.9345 O   0  0  0  0  0  0  0  0  0  0  0  0
   10.0496    9.9617   22.8843 O   0  0  0  0  0  0  0  0  0  0  0  0
    7.1980   10.9168   25.8778 C   0  0  0  0  0  0  0  0  0  0  0  0
    6.4542   10.2361   26.8366 C   0  0  0  0  0  0  0  0  0  0  0  0
    6.0035   10.9851   27.9211 C   0  0  0  0  0  0  0  0  0  0  0  0
    6.3056   12.3422   28.0442 C   0  0  0  0  0  0  0  0  0  0  0  0
    7.0528   13.0078   27.0724 C   0  0  0  0  0  0  0  0  0  0  0  0
    7.4737   12.2814   25.9556 C   0  0  0  0  0  0  0  0  0  0  0  0
  1  2  1  0
  2  3  1  0
  3  4  1  0
  4  5  1  0
  5  6  1  0
  6  7  2  0
  7  8  1  0
  8  9  1  0
  9 10  1  0
 10 11  1  0
 11 12  2  0
 11 13  1  0
 13 14  2  0
 14 15  1  0
 15 16  1  0
 17 16  1  6
 17 18  1  0
 18 19  1  0
 19 20  1  0
 20 21  2  0
 20 22  1  0
 15 23  1  0
 23 24  2  0
 24 25  1  0
 25 26  2  0
 26 27  1  0
 27 28  2  0
  8  4  2  0
 28 13  1  0
 22 17  1  0
 28 23  1  0
M  END
>  <energy_score>  (3671) 
-4.709961

>  <inchikey>  (3671) 
BIJUZQUXVURVPM-UHFFFAOYSA-N

>  <smiles>  (3671) 
COCc1ocnc1CNC(=O)c1nn(CC2CNC(=O)O2)c2ccccc12

>  <ref_pdb>  (3671) 
A0514a

>  <alias>  (3671) 
BIJUZQUXVURVPM-UHFFFAOYSA-N-P126-P126-P177-601502

>  <HIPPO Pose ID>  (3671) 
503258

>  <name>  (3671) 
BIJUZQUXVURVPM-UHFFFAOYSA-N-P126-P126-P177-601502

>  <HIPPO Compound ID>  (3671) 
299447

>  <ref_mols>  (3671) 
A3403a,A2290a

>  <distance_score>  (3671) 
1.855039

>  <inspiration_score>  (3671) 
None

$$$$
DSLALQJWRPWPMF-UHFFFAOYSA-N-P126-P126-P177-601502
     RDKit          3D

 28 31  0  0  0  0  0  0  0  0999 V2000
    8.7083    7.0781   21.8969 O   0  0  0  0  0  0  0  0  0  0  0  0
    9.1502    7.9507   22.6083 C   0  0  0  0  0  0  0  0  0  0  0  0
   10.0610    8.9021   22.2744 N   0  0  0  0  0  0  0  0  0  0  0  0
   10.5010    9.4875   23.4701 C   0  0  0  0  0  0  0  0  0  0  0  0
    9.2804    9.3533   24.3145 C   0  0  1  0  0  0  0  0  0  0  0  0
    8.1798   10.2886   24.0460 C   0  0  0  0  0  0  0  0  0  0  0  0
    8.5048   11.5945   24.4716 N   0  0  0  0  0  0  0  0  0  0  0  0
    9.4634   12.1980   23.8057 N   0  0  0  0  0  0  0  0  0  0  0  0
    9.8454   13.1865   24.6180 C   0  0  0  0  0  0  0  0  0  0  0  0
   11.0571   13.8991   24.2168 C   0  0  0  0  0  0  0  0  0  0  0  0
   11.6307   14.6347   24.9165 O   0  0  0  0  0  0  0  0  0  0  0  0
   11.2895   13.5426   22.7371 N   0  0  0  0  0  0  0  0  0  0  0  0
   12.2112   14.0826   21.7833 C   0  0  0  0  0  0  0  0  0  0  0  0
   11.3216   14.8674   20.8927 C   0  0  0  0  0  0  0  0  0  0  0  0
   11.0232   14.8083   19.5516 C   0  0  0  0  0  0  0  0  0  0  0  0
   10.0271   15.7146   19.2912 O   0  0  0  0  0  0  0  0  0  0  0  0
    9.7864   16.3004   20.5033 C   0  0  0  0  0  0  0  0  0  0  0  0
    8.7228   17.3204   20.6412 C   0  0  0  0  0  0  0  0  0  0  0  0
    7.6864   16.7176   21.2794 F   0  0  0  0  0  0  0  0  0  0  0  0
    8.2774   17.8017   19.4510 F   0  0  0  0  0  0  0  0  0  0  0  0
   10.5235   15.8106   21.4743 N   0  0  0  0  0  0  0  0  0  0  0  0
    8.9204   13.3176   25.6935 C   0  0  0  0  0  0  0  0  0  0  0  0
    8.6979   14.1947   26.7617 C   0  0  0  0  0  0  0  0  0  0  0  0
    7.6581   13.9087   27.6636 C   0  0  0  0  0  0  0  0  0  0  0  0
    6.8602   12.7711   27.5332 C   0  0  0  0  0  0  0  0  0  0  0  0
    7.0578   11.8880   26.4834 C   0  0  0  0  0  0  0  0  0  0  0  0
    8.0757   12.2147   25.5846 C   0  0  0  0  0  0  0  0  0  0  0  0
    8.7948    8.1029   23.9247 O   0  0  0  0  0  0  0  0  0  0  0  0
  1  2  2  0
  2  3  1  0
  3  4  1  0
  4  5  1  0
  5  6  1  6
  6  7  1  0
  7  8  1  0
  8  9  2  0
  9 10  1  0
 10 11  2  0
 10 12  1  0
 12 13  1  0
 13 14  1  0
 14 15  2  0
 15 16  1  0
 16 17  1  0
 17 18  1  0
 18 19  1  0
 18 20  1  0
 17 21  2  0
  9 22  1  0
 22 23  2  0
 23 24  1  0
 24 25  2  0
 25 26  1  0
 26 27  2  0
  5 28  1  0
 28  2  1  0
 27  7  1  0
 21 14  1  0
 27 22  1  0
M  END
>  <energy_score>  (3672) 
-15.884844

>  <inchikey>  (3672) 
DSLALQJWRPWPMF-UHFFFAOYSA-N

>  <smiles>  (3672) 
O=C1NCC(Cn2nc(C(=O)NCc3coc(C(F)F)n3)c3ccccc32)O1

>  <ref_pdb>  (3672) 
A0514a

>  <alias>  (3672) 
DSLALQJWRPWPMF-UHFFFAOYSA-N-P126-P126-P177-601502

>  <HIPPO Pose ID>  (3672) 
503260

>  <name>  (3672) 
DSLALQJWRPWPMF-UHFFFAOYSA-N-P126-P126-P177-601502

>  <HIPPO Compound ID>  (3672) 
299448

>  <ref_mols>  (3672) 
A3403a,A2290a

>  <distance_score>  (3672) 
1.712023

>  <inspiration_score>  (3672) 
None

$$$$
DSLALQJWRPWPMF-UHFFFAOYSA-N-P177-P126-P177-601502
     RDKit          3D

 28 31  0  0  0  0  0  0  0  0999 V2000
    8.4160    7.0317   21.6431 O   0  0  0  0  0  0  0  0  0  0  0  0
    8.7226    7.9094   22.4118 C   0  0  0  0  0  0  0  0  0  0  0  0
    9.9171    8.1828   22.9949 N   0  0  0  0  0  0  0  0  0  0  0  0
    9.8212    9.4557   23.5501 C   0  0  0  0  0  0  0  0  0  0  0  0
    8.3867    9.4675   23.9466 C   0  0  1  0  0  0  0  0  0  0  0  0
    7.7304   10.7737   23.8302 C   0  0  0  0  0  0  0  0  0  0  0  0
    8.4512   11.7328   24.5785 N   0  0  0  0  0  0  0  0  0  0  0  0
    9.5607   12.2162   24.0477 N   0  0  0  0  0  0  0  0  0  0  0  0
    9.7368   13.3684   24.7079 C   0  0  0  0  0  0  0  0  0  0  0  0
   10.7612   14.2769   24.1911 C   0  0  0  0  0  0  0  0  0  0  0  0
   11.1259   15.2151   24.7822 O   0  0  0  0  0  0  0  0  0  0  0  0
   11.1632   13.7546   22.7920 N   0  0  0  0  0  0  0  0  0  0  0  0
   12.0224   14.3268   21.7946 C   0  0  0  0  0  0  0  0  0  0  0  0
   11.1731   15.1559   20.9245 C   0  0  0  0  0  0  0  0  0  0  0  0
   10.8856   15.0893   19.5816 C   0  0  0  0  0  0  0  0  0  0  0  0
    9.9169   16.0137   19.3121 O   0  0  0  0  0  0  0  0  0  0  0  0
    9.6885   16.6134   20.5253 C   0  0  0  0  0  0  0  0  0  0  0  0
    8.5270   17.5131   20.6710 C   0  0  0  0  0  0  0  0  0  0  0  0
    7.5039   16.7476   21.1462 F   0  0  0  0  0  0  0  0  0  0  0  0
    8.1315   18.0441   19.4808 F   0  0  0  0  0  0  0  0  0  0  0  0
   10.4520   16.1615   21.4938 N   0  0  0  0  0  0  0  0  0  0  0  0
    8.8152   13.4563   25.7955 C   0  0  0  0  0  0  0  0  0  0  0  0
    8.5003   14.3698   26.8071 C   0  0  0  0  0  0  0  0  0  0  0  0
    7.4743   14.0446   27.7125 C   0  0  0  0  0  0  0  0  0  0  0  0
    6.7634   12.8459   27.6269 C   0  0  0  0  0  0  0  0  0  0  0  0
    7.0344   11.9374   26.6169 C   0  0  0  0  0  0  0  0  0  0  0  0
    8.0512   12.2955   25.7298 C   0  0  0  0  0  0  0  0  0  0  0  0
    7.7864    8.7323   22.9200 O   0  0  0  0  0  0  0  0  0  0  0  0
  1  2  2  0
  2  3  1  0
  3  4  1  0
  4  5  1  0
  5  6  1  6
  6  7  1  0
  7  8  1  0
  8  9  2  0
  9 10  1  0
 10 11  2  0
 10 12  1  0
 12 13  1  0
 13 14  1  0
 14 15  2  0
 15 16  1  0
 16 17  1  0
 17 18  1  0
 18 19  1  0
 18 20  1  0
 17 21  2  0
  9 22  1  0
 22 23  2  0
 23 24  1  0
 24 25  2  0
 25 26  1  0
 26 27  2  0
  5 28  1  0
 28  2  1  0
 27  7  1  0
 21 14  1  0
 27 22  1  0
M  END
>  <energy_score>  (3673) 
-19.404532

>  <inchikey>  (3673) 
DSLALQJWRPWPMF-UHFFFAOYSA-N

>  <smiles>  (3673) 
O=C1NCC(Cn2nc(C(=O)NCc3coc(C(F)F)n3)c3ccccc32)O1

>  <ref_pdb>  (3673) 
A0514a

>  <alias>  (3673) 
DSLALQJWRPWPMF-UHFFFAOYSA-N-P177-P126-P177-601502

>  <HIPPO Pose ID>  (3673) 
503261

>  <name>  (3673) 
DSLALQJWRPWPMF-UHFFFAOYSA-N-P177-P126-P177-601502

>  <HIPPO Compound ID>  (3673) 
299448

>  <ref_mols>  (3673) 
A3403a,A2290a

>  <distance_score>  (3673) 
1.837029

>  <inspiration_score>  (3673) 
None

$$$$
SCZSYHOBNQSALP-UHFFFAOYSA-N-P177-P126-P177-601502
     RDKit          3D

 28 31  0  0  0  0  0  0  0  0999 V2000
    8.1149   18.6815   19.7712 C   0  0  0  0  0  0  0  0  0  0  0  0
    8.7617   17.9930   20.9487 C   0  0  0  0  0  0  0  0  0  0  0  0
    9.4882   16.7274   20.7081 C   0  0  0  0  0  0  0  0  0  0  0  0
    9.9461   15.9365   21.6537 N   0  0  0  0  0  0  0  0  0  0  0  0
   10.7968   15.0841   21.0118 C   0  0  0  0  0  0  0  0  0  0  0  0
   11.6413   14.1552   21.7914 C   0  0  0  0  0  0  0  0  0  0  0  0
   10.7848   13.3991   22.6492 N   0  0  0  0  0  0  0  0  0  0  0  0
   10.3131   13.6757   24.0830 C   0  0  0  0  0  0  0  0  0  0  0  0
   10.6074   14.5255   24.8252 O   0  0  0  0  0  0  0  0  0  0  0  0
    9.3382   12.6296   24.4513 C   0  0  0  0  0  0  0  0  0  0  0  0
    9.2425   11.4948   23.7357 N   0  0  0  0  0  0  0  0  0  0  0  0
    8.3514   10.7476   24.4065 N   0  0  0  0  0  0  0  0  0  0  0  0
    7.9350    9.4684   23.9011 C   0  0  0  0  0  0  0  0  0  0  0  0
    8.9675    8.3908   23.6750 C   0  0  2  0  0  0  0  0  0  0  0  0
   10.3289    8.8461   23.4038 C   0  0  0  0  0  0  0  0  0  0  0  0
   10.1370    9.2680   22.0647 N   0  0  0  0  0  0  0  0  0  0  0  0
    9.3190    8.3806   21.4632 C   0  0  0  0  0  0  0  0  0  0  0  0
    9.2880    8.1236   20.2660 O   0  0  0  0  0  0  0  0  0  0  0  0
    8.6505    7.7223   22.4316 O   0  0  0  0  0  0  0  0  0  0  0  0
    7.7718   11.3898   25.4618 C   0  0  0  0  0  0  0  0  0  0  0  0
    6.7444   11.0105   26.3335 C   0  0  0  0  0  0  0  0  0  0  0  0
    6.3497   11.9374   27.2923 C   0  0  0  0  0  0  0  0  0  0  0  0
    6.9574   13.1878   27.3692 C   0  0  0  0  0  0  0  0  0  0  0  0
    7.9816   13.5508   26.4877 C   0  0  0  0  0  0  0  0  0  0  0  0
    8.3953   12.6315   25.5124 C   0  0  0  0  0  0  0  0  0  0  0  0
   10.7315   15.3235   19.6597 C   0  0  0  0  0  0  0  0  0  0  0  0
   11.4304   14.7707   18.5004 C   0  0  0  0  0  0  0  0  0  0  0  0
    9.8761   16.3738   19.4466 O   0  0  0  0  0  0  0  0  0  0  0  0
  1  2  1  0
  2  3  1  0
  3  4  2  0
  4  5  1  0
  5  6  1  0
  6  7  1  0
  7  8  1  0
  8  9  2  0
  8 10  1  0
 10 11  2  0
 11 12  1  0
 12 13  1  0
 14 13  1  6
 14 15  1  0
 15 16  1  0
 16 17  1  0
 17 18  2  0
 17 19  1  0
 12 20  1  0
 20 21  2  0
 21 22  1  0
 22 23  2  0
 23 24  1  0
 24 25  2  0
  5 26  2  0
 26 27  1  0
 26 28  1  0
 28  3  1  0
 25 10  1  0
 19 14  1  0
 25 20  1  0
M  END
>  <energy_score>  (3674) 
-34.687127

>  <inchikey>  (3674) 
SCZSYHOBNQSALP-UHFFFAOYSA-N

>  <smiles>  (3674) 
CCc1nc(CNC(=O)c2nn(CC3CNC(=O)O3)c3ccccc23)c(C)o1

>  <ref_pdb>  (3674) 
A0514a

>  <alias>  (3674) 
SCZSYHOBNQSALP-UHFFFAOYSA-N-P177-P126-P177-601502

>  <HIPPO Pose ID>  (3674) 
503265

>  <name>  (3674) 
SCZSYHOBNQSALP-UHFFFAOYSA-N-P177-P126-P177-601502

>  <HIPPO Compound ID>  (3674) 
299450

>  <ref_mols>  (3674) 
A3403a,A2290a

>  <distance_score>  (3674) 
1.327134

>  <inspiration_score>  (3674) 
None

$$$$
DEJYBBWTCGYWIZ-UHFFFAOYSA-N-P126-P126-P177-601502
     RDKit          3D

 28 31  0  0  0  0  0  0  0  0999 V2000
    8.5984   17.4453   20.6422 C   0  0  0  0  0  0  0  0  0  0  0  0
    9.4295   16.2354   20.6098 C   0  0  0  0  0  0  0  0  0  0  0  0
    9.7135   15.4160   21.5995 N   0  0  0  0  0  0  0  0  0  0  0  0
   10.6856   14.5997   21.0905 C   0  0  0  0  0  0  0  0  0  0  0  0
   11.5025   13.7259   21.9778 C   0  0  1  0  0  0  0  0  0  0  0  0
   12.6089   14.5239   22.6079 C   0  0  0  0  0  0  0  0  0  0  0  0
   10.6658   13.0617   22.9512 N   0  0  0  0  0  0  0  0  0  0  0  0
   10.2818   13.4712   24.3916 C   0  0  0  0  0  0  0  0  0  0  0  0
   10.6423   14.3693   25.0447 O   0  0  0  0  0  0  0  0  0  0  0  0
    9.3279   12.4821   24.8985 C   0  0  0  0  0  0  0  0  0  0  0  0
    9.5131   11.2143   24.5391 N   0  0  0  0  0  0  0  0  0  0  0  0
    8.4999   10.5335   25.0791 N   0  0  0  0  0  0  0  0  0  0  0  0
    8.2760    9.1676   24.6488 C   0  0  0  0  0  0  0  0  0  0  0  0
    8.9730    8.9978   23.3595 C   0  0  1  0  0  0  0  0  0  0  0  0
   10.4517    8.8339   23.3815 C   0  0  0  0  0  0  0  0  0  0  0  0
   10.5783    8.7906   21.9895 N   0  0  0  0  0  0  0  0  0  0  0  0
    9.4872    8.1253   21.5102 C   0  0  0  0  0  0  0  0  0  0  0  0
    9.3456    7.7853   20.3428 O   0  0  0  0  0  0  0  0  0  0  0  0
    8.5973    7.9357   22.5311 O   0  0  0  0  0  0  0  0  0  0  0  0
    7.6845   11.2927   25.8495 C   0  0  0  0  0  0  0  0  0  0  0  0
    6.5512   10.9589   26.5898 C   0  0  0  0  0  0  0  0  0  0  0  0
    5.9120   12.0055   27.2446 C   0  0  0  0  0  0  0  0  0  0  0  0
    6.3880   13.3145   27.1501 C   0  0  0  0  0  0  0  0  0  0  0  0
    7.5281   13.6271   26.4009 C   0  0  0  0  0  0  0  0  0  0  0  0
    8.1948   12.5897   25.7403 C   0  0  0  0  0  0  0  0  0  0  0  0
   10.8360   14.8809   19.7515 C   0  0  0  0  0  0  0  0  0  0  0  0
   11.7270   14.4166   18.6938 C   0  0  0  0  0  0  0  0  0  0  0  0
    9.9995   15.9054   19.4249 O   0  0  0  0  0  0  0  0  0  0  0  0
  1  2  1  0
  2  3  2  0
  3  4  1  0
  4  5  1  0
  5  6  1  1
  5  7  1  0
  7  8  1  0
  8  9  2  0
  8 10  1  0
 10 11  2  0
 11 12  1  0
 12 13  1  0
 14 13  1  1
 14 15  1  0
 15 16  1  0
 16 17  1  0
 17 18  2  0
 17 19  1  0
 12 20  1  0
 20 21  2  0
 21 22  1  0
 22 23  2  0
 23 24  1  0
 24 25  2  0
  4 26  2  0
 26 27  1  0
 26 28  1  0
 28  2  1  0
 25 10  1  0
 19 14  1  0
 25 20  1  0
M  END
>  <energy_score>  (3675) 
-20.235047

>  <inchikey>  (3675) 
DEJYBBWTCGYWIZ-UHFFFAOYSA-N

>  <smiles>  (3675) 
Cc1nc(C(C)NC(=O)c2nn(CC3CNC(=O)O3)c3ccccc23)c(C)o1

>  <ref_pdb>  (3675) 
A0514a

>  <alias>  (3675) 
DEJYBBWTCGYWIZ-UHFFFAOYSA-N-P126-P126-P177-601502

>  <HIPPO Pose ID>  (3675) 
503268

>  <name>  (3675) 
DEJYBBWTCGYWIZ-UHFFFAOYSA-N-P126-P126-P177-601502

>  <HIPPO Compound ID>  (3675) 
299452

>  <ref_mols>  (3675) 
A3403a,A2290a

>  <distance_score>  (3675) 
1.499871

>  <inspiration_score>  (3675) 
None

$$$$
DEJYBBWTCGYWIZ-UHFFFAOYSA-N-P177-P126-P177-601502
     RDKit          3D

 28 31  0  0  0  0  0  0  0  0999 V2000
    8.3668   18.2949   20.0197 C   0  0  0  0  0  0  0  0  0  0  0  0
    9.1351   17.0460   20.1806 C   0  0  0  0  0  0  0  0  0  0  0  0
    9.3039   16.2989   21.2504 N   0  0  0  0  0  0  0  0  0  0  0  0
   10.1549   15.3073   20.8301 C   0  0  0  0  0  0  0  0  0  0  0  0
   10.7709   14.3378   21.7516 C   0  0  1  0  0  0  0  0  0  0  0  0
   11.9886   14.9191   22.3896 C   0  0  0  0  0  0  0  0  0  0  0  0
    9.8225   13.8162   22.6870 N   0  0  0  0  0  0  0  0  0  0  0  0
    9.6216   14.1194   24.1796 C   0  0  0  0  0  0  0  0  0  0  0  0
   10.1460   14.8993   24.8701 O   0  0  0  0  0  0  0  0  0  0  0  0
    8.6563   13.1347   24.6923 C   0  0  0  0  0  0  0  0  0  0  0  0
    8.3113   12.0809   23.9290 N   0  0  0  0  0  0  0  0  0  0  0  0
    7.7382   11.2398   24.7946 N   0  0  0  0  0  0  0  0  0  0  0  0
    7.4221    9.8888   24.4385 C   0  0  0  0  0  0  0  0  0  0  0  0
    8.3083    9.2280   23.4551 C   0  0  1  0  0  0  0  0  0  0  0  0
    9.3889   10.0245   22.8230 C   0  0  0  0  0  0  0  0  0  0  0  0
   10.1319    8.9704   22.3062 N   0  0  0  0  0  0  0  0  0  0  0  0
   10.1861    8.1187   23.3629 C   0  0  0  0  0  0  0  0  0  0  0  0
   11.1494    7.4518   23.6290 O   0  0  0  0  0  0  0  0  0  0  0  0
    9.0692    8.2278   24.1132 O   0  0  0  0  0  0  0  0  0  0  0  0
    7.3729   11.8236   25.9622 C   0  0  0  0  0  0  0  0  0  0  0  0
    6.5681   11.3617   27.0034 C   0  0  0  0  0  0  0  0  0  0  0  0
    6.4069   12.2194   28.0822 C   0  0  0  0  0  0  0  0  0  0  0  0
    7.0400   13.4626   28.1105 C   0  0  0  0  0  0  0  0  0  0  0  0
    7.8479   13.9002   27.0537 C   0  0  0  0  0  0  0  0  0  0  0  0
    7.9967   13.0653   25.9425 C   0  0  0  0  0  0  0  0  0  0  0  0
   10.4424   15.4775   19.4977 C   0  0  0  0  0  0  0  0  0  0  0  0
   11.3428   14.8084   18.5528 C   0  0  0  0  0  0  0  0  0  0  0  0
    9.7584   16.5673   19.0628 O   0  0  0  0  0  0  0  0  0  0  0  0
  1  2  1  0
  2  3  2  0
  3  4  1  0
  4  5  1  0
  5  6  1  1
  5  7  1  0
  7  8  1  0
  8  9  2  0
  8 10  1  0
 10 11  2  0
 11 12  1  0
 12 13  1  0
 14 13  1  1
 14 15  1  0
 15 16  1  0
 16 17  1  0
 17 18  2  0
 17 19  1  0
 12 20  1  0
 20 21  2  0
 21 22  1  0
 22 23  2  0
 23 24  1  0
 24 25  2  0
  4 26  2  0
 26 27  1  0
 26 28  1  0
 28  2  1  0
 25 10  1  0
 19 14  1  0
 25 20  1  0
M  END
>  <energy_score>  (3676) 
-28.352179

>  <inchikey>  (3676) 
DEJYBBWTCGYWIZ-UHFFFAOYSA-N

>  <smiles>  (3676) 
Cc1nc(C(C)NC(=O)c2nn(CC3CNC(=O)O3)c3ccccc23)c(C)o1

>  <ref_pdb>  (3676) 
A0514a

>  <alias>  (3676) 
DEJYBBWTCGYWIZ-UHFFFAOYSA-N-P177-P126-P177-601502

>  <HIPPO Pose ID>  (3676) 
503269

>  <name>  (3676) 
DEJYBBWTCGYWIZ-UHFFFAOYSA-N-P177-P126-P177-601502

>  <HIPPO Compound ID>  (3676) 
299452

>  <ref_mols>  (3676) 
A3403a,A2290a

>  <distance_score>  (3676) 
1.922975

>  <inspiration_score>  (3676) 
None

$$$$
GTZMJGKWCXPEMU-UHFFFAOYSA-N-P126-P126-P177-601502
     RDKit          3D

 28 31  0  0  0  0  0  0  0  0999 V2000
   10.1140   16.3110   18.7296 C   0  0  0  0  0  0  0  0  0  0  0  0
   10.8505   15.1933   19.4862 C   0  0  0  0  0  0  0  0  0  0  0  0
   11.6288   14.2632   18.6153 C   0  0  0  0  0  0  0  0  0  0  0  0
    9.9847   14.6911   20.5414 C   0  0  0  0  0  0  0  0  0  0  0  0
    8.6507   14.8060   20.3441 O   0  0  0  0  0  0  0  0  0  0  0  0
    8.1119   14.7635   21.5750 C   0  0  0  0  0  0  0  0  0  0  0  0
    8.9670   14.4926   22.5166 N   0  0  0  0  0  0  0  0  0  0  0  0
   10.1978   14.4111   21.8610 C   0  0  0  0  0  0  0  0  0  0  0  0
   11.4200   14.0262   22.6348 C   0  0  0  0  0  0  0  0  0  0  0  0
   10.7514   13.1713   23.5454 N   0  0  0  0  0  0  0  0  0  0  0  0
   10.2448   13.4314   24.9615 C   0  0  0  0  0  0  0  0  0  0  0  0
   10.3606   14.3660   25.6454 O   0  0  0  0  0  0  0  0  0  0  0  0
    9.4528   12.2527   25.2864 C   0  0  0  0  0  0  0  0  0  0  0  0
    9.6824   11.1147   24.6202 N   0  0  0  0  0  0  0  0  0  0  0  0
    8.6666   10.3237   24.9479 N   0  0  0  0  0  0  0  0  0  0  0  0
    8.3480    9.2583   24.0545 C   0  0  0  0  0  0  0  0  0  0  0  0
    9.3692    8.2316   23.7040 C   0  0  2  0  0  0  0  0  0  0  0  0
   10.7221    8.7109   23.3753 C   0  0  0  0  0  0  0  0  0  0  0  0
   10.4790    9.2190   22.0885 N   0  0  0  0  0  0  0  0  0  0  0  0
    9.6317    8.3305   21.5124 C   0  0  0  0  0  0  0  0  0  0  0  0
    9.5670    8.1059   20.3152 O   0  0  0  0  0  0  0  0  0  0  0  0
    8.9850    7.6267   22.4721 O   0  0  0  0  0  0  0  0  0  0  0  0
    7.7966   10.8732   25.8453 C   0  0  0  0  0  0  0  0  0  0  0  0
    6.6195   10.3911   26.4230 C   0  0  0  0  0  0  0  0  0  0  0  0
    5.8930   11.2827   27.2090 C   0  0  0  0  0  0  0  0  0  0  0  0
    6.3167   12.5983   27.3896 C   0  0  0  0  0  0  0  0  0  0  0  0
    7.4965   13.0628   26.8047 C   0  0  0  0  0  0  0  0  0  0  0  0
    8.2572   12.1721   26.0359 C   0  0  0  0  0  0  0  0  0  0  0  0
  1  2  1  0
  2  3  1  0
  2  4  1  0
  4  5  1  0
  5  6  1  0
  6  7  2  0
  7  8  1  0
  8  9  1  0
  9 10  1  0
 10 11  1  0
 11 12  2  0
 11 13  1  0
 13 14  2  0
 14 15  1  0
 15 16  1  0
 17 16  1  6
 17 18  1  0
 18 19  1  0
 19 20  1  0
 20 21  2  0
 20 22  1  0
 15 23  1  0
 23 24  2  0
 24 25  1  0
 25 26  2  0
 26 27  1  0
 27 28  2  0
  8  4  2  0
 28 13  1  0
 22 17  1  0
 28 23  1  0
M  END
>  <energy_score>  (3677) 
-18.490653

>  <inchikey>  (3677) 
GTZMJGKWCXPEMU-UHFFFAOYSA-N

>  <smiles>  (3677) 
CC(C)c1ocnc1CNC(=O)c1nn(CC2CNC(=O)O2)c2ccccc12

>  <ref_pdb>  (3677) 
A0514a

>  <alias>  (3677) 
GTZMJGKWCXPEMU-UHFFFAOYSA-N-P126-P126-P177-601502

>  <HIPPO Pose ID>  (3677) 
503270

>  <name>  (3677) 
GTZMJGKWCXPEMU-UHFFFAOYSA-N-P126-P126-P177-601502

>  <HIPPO Compound ID>  (3677) 
299453

>  <ref_mols>  (3677) 
A3403a,A2290a

>  <distance_score>  (3677) 
1.843973

>  <inspiration_score>  (3677) 
None

$$$$
GTZMJGKWCXPEMU-UHFFFAOYSA-N-P177-P126-P177-601502
     RDKit          3D

 28 31  0  0  0  0  0  0  0  0999 V2000
   11.8575   14.9854   18.2234 C   0  0  0  0  0  0  0  0  0  0  0  0
   10.7153   14.9235   19.1674 C   0  0  0  0  0  0  0  0  0  0  0  0
    9.3997   15.4176   18.6126 C   0  0  0  0  0  0  0  0  0  0  0  0
   10.8282   15.6530   20.4386 C   0  0  0  0  0  0  0  0  0  0  0  0
   10.1200   16.8332   20.4626 O   0  0  0  0  0  0  0  0  0  0  0  0
    9.3926   16.7259   21.5837 C   0  0  0  0  0  0  0  0  0  0  0  0
    9.8158   15.7803   22.3863 N   0  0  0  0  0  0  0  0  0  0  0  0
   10.8914   15.1994   21.7267 C   0  0  0  0  0  0  0  0  0  0  0  0
   11.5687   14.0214   22.3115 C   0  0  0  0  0  0  0  0  0  0  0  0
   10.5411   13.4251   23.0829 N   0  0  0  0  0  0  0  0  0  0  0  0
   10.0486   13.7403   24.4979 C   0  0  0  0  0  0  0  0  0  0  0  0
   10.4571   14.4895   25.2906 O   0  0  0  0  0  0  0  0  0  0  0  0
    8.8226   12.9598   24.6843 C   0  0  0  0  0  0  0  0  0  0  0  0
    8.4136   12.1226   23.7080 N   0  0  0  0  0  0  0  0  0  0  0  0
    7.5053   11.3569   24.3224 N   0  0  0  0  0  0  0  0  0  0  0  0
    7.4888    9.9649   23.9700 C   0  0  0  0  0  0  0  0  0  0  0  0
    8.8404    9.4603   24.2713 C   0  0  2  0  0  0  0  0  0  0  0  0
    9.8068    9.6848   23.1649 C   0  0  0  0  0  0  0  0  0  0  0  0
   10.5382    8.4804   23.2152 N   0  0  0  0  0  0  0  0  0  0  0  0
    9.6990    7.5120   23.6386 C   0  0  0  0  0  0  0  0  0  0  0  0
    9.7008    6.3199   23.4017 O   0  0  0  0  0  0  0  0  0  0  0  0
    8.7581    8.0783   24.4231 O   0  0  0  0  0  0  0  0  0  0  0  0
    7.1496   11.7938   25.5660 C   0  0  0  0  0  0  0  0  0  0  0  0
    6.2726   11.2630   26.5143 C   0  0  0  0  0  0  0  0  0  0  0  0
    6.1660   11.9436   27.7206 C   0  0  0  0  0  0  0  0  0  0  0  0
    6.9211   13.0892   27.9638 C   0  0  0  0  0  0  0  0  0  0  0  0
    7.8360   13.5704   27.0213 C   0  0  0  0  0  0  0  0  0  0  0  0
    7.9648   12.8912   25.8049 C   0  0  0  0  0  0  0  0  0  0  0  0
  1  2  1  0
  2  3  1  0
  2  4  1  0
  4  5  1  0
  5  6  1  0
  6  7  2  0
  7  8  1  0
  8  9  1  0
  9 10  1  0
 10 11  1  0
 11 12  2  0
 11 13  1  0
 13 14  2  0
 14 15  1  0
 15 16  1  0
 17 16  1  6
 17 18  1  0
 18 19  1  0
 19 20  1  0
 20 21  2  0
 20 22  1  0
 15 23  1  0
 23 24  2  0
 24 25  1  0
 25 26  2  0
 26 27  1  0
 27 28  2  0
  8  4  2  0
 28 13  1  0
 22 17  1  0
 28 23  1  0
M  END
>  <energy_score>  (3678) 
-3.639978

>  <inchikey>  (3678) 
GTZMJGKWCXPEMU-UHFFFAOYSA-N

>  <smiles>  (3678) 
CC(C)c1ocnc1CNC(=O)c1nn(CC2CNC(=O)O2)c2ccccc12

>  <ref_pdb>  (3678) 
A0514a

>  <alias>  (3678) 
GTZMJGKWCXPEMU-UHFFFAOYSA-N-P177-P126-P177-601502

>  <HIPPO Pose ID>  (3678) 
503271

>  <name>  (3678) 
GTZMJGKWCXPEMU-UHFFFAOYSA-N-P177-P126-P177-601502

>  <HIPPO Compound ID>  (3678) 
299453

>  <ref_mols>  (3678) 
A3403a,A2290a

>  <distance_score>  (3678) 
1.858119

>  <inspiration_score>  (3678) 
None

$$$$
IYJSNFSVAPJVPC-UHFFFAOYSA-N-P126-P126-P177-601502
     RDKit          3D

 29 32  0  0  0  0  0  0  0  0999 V2000
    7.8453   19.1120   19.6365 C   0  0  0  0  0  0  0  0  0  0  0  0
    8.4803   17.8066   19.8003 C   0  0  0  0  0  0  0  0  0  0  0  0
    9.2004   17.3159   18.7242 C   0  0  0  0  0  0  0  0  0  0  0  0
    9.8962   16.1575   18.8678 C   0  0  0  0  0  0  0  0  0  0  0  0
    9.7386   15.4218   20.0210 C   0  0  0  0  0  0  0  0  0  0  0  0
   10.7252   14.4789   20.3964 C   0  0  0  0  0  0  0  0  0  0  0  0
   10.7763   13.9559   21.5916 N   0  0  0  0  0  0  0  0  0  0  0  0
   12.0996   14.0600   21.8968 C   0  0  0  0  0  0  0  0  0  0  0  0
   12.5021   13.8508   23.2827 C   0  0  0  0  0  0  0  0  0  0  0  0
   11.5549   12.9427   23.7649 N   0  0  0  0  0  0  0  0  0  0  0  0
   10.4439   13.1229   24.7808 C   0  0  0  0  0  0  0  0  0  0  0  0
   10.1732   14.0336   25.4479 O   0  0  0  0  0  0  0  0  0  0  0  0
    9.6729   11.8952   24.6866 C   0  0  0  0  0  0  0  0  0  0  0  0
   10.1146   10.9214   23.8708 N   0  0  0  0  0  0  0  0  0  0  0  0
    9.2218    9.9251   23.9994 N   0  0  0  0  0  0  0  0  0  0  0  0
    9.3624    8.7527   23.1213 C   0  0  0  0  0  0  0  0  0  0  0  0
   10.1529    7.7811   23.6313 F   0  0  0  0  0  0  0  0  0  0  0  0
    9.9126    9.0847   21.9268 F   0  0  0  0  0  0  0  0  0  0  0  0
    8.1694    8.1877   22.8758 F   0  0  0  0  0  0  0  0  0  0  0  0
    8.2458   10.2395   24.9302 C   0  0  0  0  0  0  0  0  0  0  0  0
    7.1731    9.5370   25.4686 C   0  0  0  0  0  0  0  0  0  0  0  0
    6.3208   10.1805   26.3721 C   0  0  0  0  0  0  0  0  0  0  0  0
    6.5224   11.5074   26.7275 C   0  0  0  0  0  0  0  0  0  0  0  0
    7.6058   12.2097   26.2093 C   0  0  0  0  0  0  0  0  0  0  0  0
    8.4799   11.5548   25.3241 C   0  0  0  0  0  0  0  0  0  0  0  0
   12.7914   14.4599   20.7954 C   0  0  0  0  0  0  0  0  0  0  0  0
   11.9237   14.6255   19.7750 O   0  0  0  0  0  0  0  0  0  0  0  0
    8.8799   15.8201   21.0344 C   0  0  0  0  0  0  0  0  0  0  0  0
    8.3535   17.0811   20.9691 C   0  0  0  0  0  0  0  0  0  0  0  0
  1  2  1  0
  2  3  2  0
  3  4  1  0
  4  5  2  0
  5  6  1  0
  6  7  2  0
  7  8  1  0
  8  9  1  0
  9 10  1  0
 10 11  1  0
 11 12  2  0
 11 13  1  0
 13 14  2  0
 14 15  1  0
 15 16  1  0
 16 17  1  0
 16 18  1  0
 16 19  1  0
 15 20  1  0
 20 21  2  0
 21 22  1  0
 22 23  2  0
 23 24  1  0
 24 25  2  0
  8 26  2  0
 26 27  1  0
  5 28  1  0
 28 29  2  0
 29  2  1  0
 27  6  1  0
 25 13  1  0
 25 20  1  0
M  END
>  <energy_score>  (3679) 
-0.867753

>  <inchikey>  (3679) 
IYJSNFSVAPJVPC-UHFFFAOYSA-N

>  <smiles>  (3679) 
Cc1ccc(-c2nc(CNC(=O)c3nn(C(F)(F)F)c4ccccc34)co2)cc1

>  <ref_pdb>  (3679) 
A0514a

>  <alias>  (3679) 
IYJSNFSVAPJVPC-UHFFFAOYSA-N-P126-P126-P177-601502

>  <HIPPO Pose ID>  (3679) 
503306

>  <name>  (3679) 
IYJSNFSVAPJVPC-UHFFFAOYSA-N-P126-P126-P177-601502

>  <HIPPO Compound ID>  (3679) 
299471

>  <ref_mols>  (3679) 
A3403a,A2290a

>  <distance_score>  (3679) 
1.675243

>  <inspiration_score>  (3679) 
None

$$$$
ZHTXELKXJNSPDV-UHFFFAOYSA-N-P126-P126-P177-601502
     RDKit          3D

 29 32  0  0  0  0  0  0  0  0999 V2000
    3.9367   12.7376   28.6380 C   0  0  0  0  0  0  0  0  0  0  0  0
    4.7755   12.0182   27.7342 O   0  0  0  0  0  0  0  0  0  0  0  0
    6.0255   12.5349   27.6233 C   0  0  0  0  0  0  0  0  0  0  0  0
    6.4677   13.4911   28.2399 O   0  0  0  0  0  0  0  0  0  0  0  0
    6.8160   11.7674   26.6311 C   0  0  0  0  0  0  0  0  0  0  0  0
    6.5406   10.4265   26.3549 C   0  0  0  0  0  0  0  0  0  0  0  0
    7.3141    9.7094   25.4370 C   0  0  0  0  0  0  0  0  0  0  0  0
    8.3640   10.3678   24.7940 C   0  0  0  0  0  0  0  0  0  0  0  0
    8.6760   11.6938   25.0801 C   0  0  0  0  0  0  0  0  0  0  0  0
    7.8930   12.4111   26.0046 C   0  0  0  0  0  0  0  0  0  0  0  0
    9.8161   11.9693   24.2935 C   0  0  0  0  0  0  0  0  0  0  0  0
   10.6248   13.1888   24.2505 C   0  0  0  0  0  0  0  0  0  0  0  0
   10.5872   14.0064   25.0769 O   0  0  0  0  0  0  0  0  0  0  0  0
   11.4271   13.1274   22.9554 N   0  0  0  0  0  0  0  0  0  0  0  0
   12.2758   14.0856   22.3526 C   0  0  0  0  0  0  0  0  0  0  0  0
   11.5601   14.5889   21.1833 C   0  0  0  0  0  0  0  0  0  0  0  0
   11.8105   14.3984   19.8505 C   0  0  0  0  0  0  0  0  0  0  0  0
   10.8821   15.0828   19.1485 O   0  0  0  0  0  0  0  0  0  0  0  0
   10.1585   15.7198   20.1107 C   0  0  0  0  0  0  0  0  0  0  0  0
    9.3638   16.8267   19.6750 C   0  0  0  0  0  0  0  0  0  0  0  0
    8.7998   17.6668   20.6189 C   0  0  0  0  0  0  0  0  0  0  0  0
    8.0493   18.7449   20.2395 C   0  0  0  0  0  0  0  0  0  0  0  0
    7.6951   18.8742   18.9301 C   0  0  0  0  0  0  0  0  0  0  0  0
    8.2827   18.0814   17.9677 C   0  0  0  0  0  0  0  0  0  0  0  0
    9.1815   17.1142   18.3365 C   0  0  0  0  0  0  0  0  0  0  0  0
   10.4569   15.3781   21.3425 N   0  0  0  0  0  0  0  0  0  0  0  0
   10.1434   10.9277   23.5065 N   0  0  0  0  0  0  0  0  0  0  0  0
    9.2623    9.9740   23.8311 N   0  0  0  0  0  0  0  0  0  0  0  0
    9.3532    8.7120   23.1381 C   0  0  0  0  0  0  0  0  0  0  0  0
  1  2  1  0
  2  3  1  0
  3  4  2  0
  3  5  1  0
  5  6  2  0
  6  7  1  0
  7  8  2  0
  8  9  1  0
  9 10  2  0
  9 11  1  0
 11 12  1  0
 12 13  2  0
 12 14  1  0
 14 15  1  0
 15 16  1  0
 16 17  2  0
 17 18  1  0
 18 19  1  0
 19 20  1  0
 20 21  2  0
 21 22  1  0
 22 23  2  0
 23 24  1  0
 24 25  2  0
 19 26  2  0
 11 27  2  0
 27 28  1  0
 28 29  1  0
 10  5  1  0
 26 16  1  0
 28  8  1  0
 25 20  1  0
M  END
>  <energy_score>  (3680) 
-39.719724

>  <inchikey>  (3680) 
ZHTXELKXJNSPDV-UHFFFAOYSA-N

>  <smiles>  (3680) 
COC(=O)c1ccc2c(c1)c(C(=O)NCc1coc(-c3ccccc3)n1)nn2C

>  <ref_pdb>  (3680) 
A0514a

>  <alias>  (3680) 
ZHTXELKXJNSPDV-UHFFFAOYSA-N-P126-P126-P177-601502

>  <HIPPO Pose ID>  (3680) 
503314

>  <name>  (3680) 
ZHTXELKXJNSPDV-UHFFFAOYSA-N-P126-P126-P177-601502

>  <HIPPO Compound ID>  (3680) 
299475

>  <ref_mols>  (3680) 
A3403a,A2290a

>  <distance_score>  (3680) 
1.073521

>  <inspiration_score>  (3680) 
None

$$$$
ZHTXELKXJNSPDV-UHFFFAOYSA-N-P177-P126-P177-601502
     RDKit          3D

 29 32  0  0  0  0  0  0  0  0999 V2000
    4.3047   13.5656   29.0397 C   0  0  0  0  0  0  0  0  0  0  0  0
    4.9850   12.7683   28.0689 O   0  0  0  0  0  0  0  0  0  0  0  0
    6.2228   13.2274   27.7555 C   0  0  0  0  0  0  0  0  0  0  0  0
    6.7775   14.1964   28.2484 O   0  0  0  0  0  0  0  0  0  0  0  0
    6.8434   12.3756   26.7095 C   0  0  0  0  0  0  0  0  0  0  0  0
    6.4112   11.0670   26.4722 C   0  0  0  0  0  0  0  0  0  0  0  0
    7.0289   10.2659   25.5076 C   0  0  0  0  0  0  0  0  0  0  0  0
    8.0945   10.8075   24.7907 C   0  0  0  0  0  0  0  0  0  0  0  0
    8.5474   12.1089   25.0094 C   0  0  0  0  0  0  0  0  0  0  0  0
    7.9174   12.9076   25.9801 C   0  0  0  0  0  0  0  0  0  0  0  0
    9.6140   12.2771   24.0985 C   0  0  0  0  0  0  0  0  0  0  0  0
   10.4861   13.4355   23.8616 C   0  0  0  0  0  0  0  0  0  0  0  0
   10.5994   14.3294   24.5982 O   0  0  0  0  0  0  0  0  0  0  0  0
   11.1632   13.1654   22.5208 N   0  0  0  0  0  0  0  0  0  0  0  0
   12.0425   13.9659   21.7576 C   0  0  0  0  0  0  0  0  0  0  0  0
   11.2775   14.5999   20.6898 C   0  0  0  0  0  0  0  0  0  0  0  0
   11.5060   14.7003   19.3372 C   0  0  0  0  0  0  0  0  0  0  0  0
   10.5432   15.5031   18.8092 O   0  0  0  0  0  0  0  0  0  0  0  0
    9.8120   15.8365   19.9007 C   0  0  0  0  0  0  0  0  0  0  0  0
    9.0691   17.0399   19.8568 C   0  0  0  0  0  0  0  0  0  0  0  0
    8.9749   17.7207   21.0073 C   0  0  0  0  0  0  0  0  0  0  0  0
    8.4528   18.9686   20.9472 C   0  0  0  0  0  0  0  0  0  0  0  0
    7.8452   19.5281   19.8601 C   0  0  0  0  0  0  0  0  0  0  0  0
    7.7324   18.7715   18.7683 C   0  0  0  0  0  0  0  0  0  0  0  0
    8.3989   17.5571   18.7811 C   0  0  0  0  0  0  0  0  0  0  0  0
   10.1204   15.2175   21.0093 N   0  0  0  0  0  0  0  0  0  0  0  0
    9.8041   11.1651   23.3644 N   0  0  0  0  0  0  0  0  0  0  0  0
    8.9012   10.2965   23.8076 N   0  0  0  0  0  0  0  0  0  0  0  0
    8.8914    8.9778   23.2253 C   0  0  0  0  0  0  0  0  0  0  0  0
  1  2  1  0
  2  3  1  0
  3  4  2  0
  3  5  1  0
  5  6  2  0
  6  7  1  0
  7  8  2  0
  8  9  1  0
  9 10  2  0
  9 11  1  0
 11 12  1  0
 12 13  2  0
 12 14  1  0
 14 15  1  0
 15 16  1  0
 16 17  2  0
 17 18  1  0
 18 19  1  0
 19 20  1  0
 20 21  2  0
 21 22  1  0
 22 23  2  0
 23 24  1  0
 24 25  2  0
 19 26  2  0
 11 27  2  0
 27 28  1  0
 28 29  1  0
 10  5  1  0
 26 16  1  0
 28  8  1  0
 25 20  1  0
M  END
>  <energy_score>  (3681) 
-23.203727

>  <inchikey>  (3681) 
ZHTXELKXJNSPDV-UHFFFAOYSA-N

>  <smiles>  (3681) 
COC(=O)c1ccc2c(c1)c(C(=O)NCc1coc(-c3ccccc3)n1)nn2C

>  <ref_pdb>  (3681) 
A0514a

>  <alias>  (3681) 
ZHTXELKXJNSPDV-UHFFFAOYSA-N-P177-P126-P177-601502

>  <HIPPO Pose ID>  (3681) 
503315

>  <name>  (3681) 
ZHTXELKXJNSPDV-UHFFFAOYSA-N-P177-P126-P177-601502

>  <HIPPO Compound ID>  (3681) 
299475

>  <ref_mols>  (3681) 
A3403a,A2290a

>  <distance_score>  (3681) 
0.891713

>  <inspiration_score>  (3681) 
None

$$$$
UPWJWYAILXMBQX-UHFFFAOYSA-N-P126-P126-P177-601502
     RDKit          3D

 29 32  0  0  0  0  0  0  0  0999 V2000
   12.1689   14.0748   18.8271 C   0  0  0  0  0  0  0  0  0  0  0  0
   11.3671   14.6123   19.8794 C   0  0  0  0  0  0  0  0  0  0  0  0
   10.2846   15.1996   19.3872 O   0  0  0  0  0  0  0  0  0  0  0  0
    9.8597   15.9524   20.4048 C   0  0  0  0  0  0  0  0  0  0  0  0
    9.1702   17.0864   19.9094 C   0  0  0  0  0  0  0  0  0  0  0  0
    9.1039   17.2629   18.5182 C   0  0  0  0  0  0  0  0  0  0  0  0
    8.2298   18.1635   18.0059 C   0  0  0  0  0  0  0  0  0  0  0  0
    7.5654   18.9846   18.8787 C   0  0  0  0  0  0  0  0  0  0  0  0
    7.8478   18.9919   20.2146 C   0  0  0  0  0  0  0  0  0  0  0  0
    8.5901   17.9895   20.7578 C   0  0  0  0  0  0  0  0  0  0  0  0
   10.3304   15.5999   21.5753 N   0  0  0  0  0  0  0  0  0  0  0  0
   11.3610   14.7576   21.2354 C   0  0  0  0  0  0  0  0  0  0  0  0
   12.2465   14.1784   22.2451 C   0  0  0  0  0  0  0  0  0  0  0  0
   11.4712   13.1739   22.8795 N   0  0  0  0  0  0  0  0  0  0  0  0
   10.6708   13.2107   24.1781 C   0  0  0  0  0  0  0  0  0  0  0  0
   10.5760   14.0455   24.9829 O   0  0  0  0  0  0  0  0  0  0  0  0
    9.8868   11.9747   24.2332 C   0  0  0  0  0  0  0  0  0  0  0  0
   10.2247   10.9267   23.4631 N   0  0  0  0  0  0  0  0  0  0  0  0
    9.3477    9.9699   23.7904 N   0  0  0  0  0  0  0  0  0  0  0  0
    9.4382    8.7053   23.0999 C   0  0  0  0  0  0  0  0  0  0  0  0
    8.4367   10.3698   24.7405 C   0  0  0  0  0  0  0  0  0  0  0  0
    7.3892    9.7053   25.3841 C   0  0  0  0  0  0  0  0  0  0  0  0
    6.5818   10.4332   26.2606 C   0  0  0  0  0  0  0  0  0  0  0  0
    6.8336   11.7891   26.4852 C   0  0  0  0  0  0  0  0  0  0  0  0
    5.9646   12.5299   27.3986 N   0  0  0  0  0  0  0  0  0  0  0  0
    6.4564   13.4969   27.9967 O   0  0  0  0  0  0  0  0  0  0  0  0
    4.8048   12.1162   27.5490 O   0  0  0  0  0  0  0  0  0  0  0  0
    7.9132   12.4456   25.8795 C   0  0  0  0  0  0  0  0  0  0  0  0
    8.7291   11.7067   25.0005 C   0  0  0  0  0  0  0  0  0  0  0  0
  1  2  1  0
  2  3  1  0
  3  4  1  0
  4  5  1  0
  5  6  2  0
  6  7  1  0
  7  8  2  0
  8  9  1  0
  9 10  2  0
  4 11  2  0
 11 12  1  0
 12 13  1  0
 13 14  1  0
 14 15  1  0
 15 16  2  0
 15 17  1  0
 17 18  2  0
 18 19  1  0
 19 20  1  0
 19 21  1  0
 21 22  2  0
 22 23  1  0
 23 24  2  0
 24 25  1  0
 25 26  2  0
 25 27  1  0
 24 28  1  0
 28 29  2  0
 12  2  2  0
 29 17  1  0
 10  5  1  0
 29 21  1  0
M  CHG  2  25   1  27  -1
M  END
>  <energy_score>  (3682) 
-1.261573

>  <inchikey>  (3682) 
UPWJWYAILXMBQX-UHFFFAOYSA-N

>  <smiles>  (3682) 
Cc1oc(-c2ccccc2)nc1CNC(=O)c1nn(C)c2ccc([N+](=O)[O-])cc12

>  <ref_pdb>  (3682) 
A0514a

>  <alias>  (3682) 
UPWJWYAILXMBQX-UHFFFAOYSA-N-P126-P126-P177-601502

>  <HIPPO Pose ID>  (3682) 
503320

>  <name>  (3682) 
UPWJWYAILXMBQX-UHFFFAOYSA-N-P126-P126-P177-601502

>  <HIPPO Compound ID>  (3682) 
299478

>  <ref_mols>  (3682) 
A3403a,A2290a

>  <distance_score>  (3682) 
0.905217

>  <inspiration_score>  (3682) 
None

$$$$
YCRGHCGMHAAODP-UHFFFAOYSA-N-P177-P126-P177-601502
     RDKit          3D

 29 32  0  0  0  0  0  0  0  0999 V2000
    9.1918    5.6754   22.9290 O   0  0  0  0  0  0  0  0  0  0  0  0
    9.3431    6.8871   22.9093 C   0  0  0  0  0  0  0  0  0  0  0  0
    8.8480    7.7849   21.9965 N   0  0  0  0  0  0  0  0  0  0  0  0
    9.5427    9.0087   22.1621 C   0  0  0  0  0  0  0  0  0  0  0  0
    9.7554    8.9530   23.6252 C   0  0  1  0  0  0  0  0  0  0  0  0
    8.4487    9.4101   24.2342 C   0  0  0  0  0  0  0  0  0  0  0  0
    8.4642   10.8277   24.4840 N   0  0  0  0  0  0  0  0  0  0  0  0
    9.3029   11.6296   23.8118 N   0  0  0  0  0  0  0  0  0  0  0  0
    9.2458   12.7900   24.4939 C   0  0  0  0  0  0  0  0  0  0  0  0
   10.1458   13.9001   24.1426 C   0  0  0  0  0  0  0  0  0  0  0  0
   10.3560   14.7807   24.8751 O   0  0  0  0  0  0  0  0  0  0  0  0
   10.6865   13.6278   22.7347 N   0  0  0  0  0  0  0  0  0  0  0  0
   11.5196   14.4187   21.8950 C   0  0  0  0  0  0  0  0  0  0  0  0
   10.6546   15.2445   21.0229 C   0  0  0  0  0  0  0  0  0  0  0  0
    9.6906   16.0765   21.5360 N   0  0  0  0  0  0  0  0  0  0  0  0
    9.2229   16.7162   20.4921 C   0  0  0  0  0  0  0  0  0  0  0  0
    9.7452   16.3135   19.2998 O   0  0  0  0  0  0  0  0  0  0  0  0
   10.6706   15.3674   19.6543 C   0  0  0  0  0  0  0  0  0  0  0  0
   11.4911   14.7316   18.6254 C   0  0  0  0  0  0  0  0  0  0  0  0
   11.8909   15.5689   17.6492 F   0  0  0  0  0  0  0  0  0  0  0  0
   10.8528   13.6907   18.0514 F   0  0  0  0  0  0  0  0  0  0  0  0
   12.6210   14.2099   19.1688 F   0  0  0  0  0  0  0  0  0  0  0  0
    8.2495   12.7337   25.5050 C   0  0  0  0  0  0  0  0  0  0  0  0
    7.7210   13.6206   26.4524 C   0  0  0  0  0  0  0  0  0  0  0  0
    6.6905   13.1749   27.2894 C   0  0  0  0  0  0  0  0  0  0  0  0
    6.1874   11.8779   27.1937 C   0  0  0  0  0  0  0  0  0  0  0  0
    6.6993   10.9813   26.2626 C   0  0  0  0  0  0  0  0  0  0  0  0
    7.7312   11.4468   25.4441 C   0  0  0  0  0  0  0  0  0  0  0  0
    9.9923    7.5780   23.8599 O   0  0  0  0  0  0  0  0  0  0  0  0
  1  2  2  0
  2  3  1  0
  3  4  1  0
  4  5  1  0
  5  6  1  1
  6  7  1  0
  7  8  1  0
  8  9  2  0
  9 10  1  0
 10 11  2  0
 10 12  1  0
 12 13  1  0
 13 14  1  0
 14 15  1  0
 15 16  2  0
 16 17  1  0
 17 18  1  0
 18 19  1  0
 19 20  1  0
 19 21  1  0
 19 22  1  0
  9 23  1  0
 23 24  2  0
 24 25  1  0
 25 26  2  0
 26 27  1  0
 27 28  2  0
  5 29  1  0
 29  2  1  0
 28  7  1  0
 18 14  2  0
 28 23  1  0
M  END
>  <energy_score>  (3683) 
-41.470461

>  <inchikey>  (3683) 
YCRGHCGMHAAODP-UHFFFAOYSA-N

>  <smiles>  (3683) 
O=C1NCC(Cn2nc(C(=O)NCc3ncoc3C(F)(F)F)c3ccccc32)O1

>  <ref_pdb>  (3683) 
A0514a

>  <alias>  (3683) 
YCRGHCGMHAAODP-UHFFFAOYSA-N-P177-P126-P177-601502

>  <HIPPO Pose ID>  (3683) 
503335

>  <name>  (3683) 
YCRGHCGMHAAODP-UHFFFAOYSA-N-P177-P126-P177-601502

>  <HIPPO Compound ID>  (3683) 
299485

>  <ref_mols>  (3683) 
A3403a,A2290a

>  <distance_score>  (3683) 
1.304157

>  <inspiration_score>  (3683) 
None

$$$$
YPGGOXGVGFFOQH-UHFFFAOYSA-N-P126-P126-P177-601502
     RDKit          3D

 29 32  0  0  0  0  0  0  0  0999 V2000
    8.6737   17.7288   20.9488 C   0  0  0  0  0  0  0  0  0  0  0  0
    8.4926   17.5372   19.5383 N   0  0  0  0  0  0  0  0  0  0  0  0
    8.1417   18.7401   18.8526 C   0  0  0  0  0  0  0  0  0  0  0  0
    9.4824   16.7472   18.8088 C   0  0  0  0  0  0  0  0  0  0  0  0
   10.1920   15.6565   19.5497 C   0  0  0  0  0  0  0  0  0  0  0  0
   10.3406   15.4085   20.8458 N   0  0  0  0  0  0  0  0  0  0  0  0
   11.4745   14.6247   20.8970 C   0  0  0  0  0  0  0  0  0  0  0  0
   12.1569   14.2393   22.1405 C   0  0  0  0  0  0  0  0  0  0  0  0
   11.2544   13.5238   22.9691 N   0  0  0  0  0  0  0  0  0  0  0  0
   10.9818   13.6343   24.4628 C   0  0  0  0  0  0  0  0  0  0  0  0
   11.5045   14.2761   25.2800 O   0  0  0  0  0  0  0  0  0  0  0  0
    9.8017   12.8262   24.7550 C   0  0  0  0  0  0  0  0  0  0  0  0
    9.5868   11.6180   24.2047 N   0  0  0  0  0  0  0  0  0  0  0  0
    8.3756   11.2647   24.6941 N   0  0  0  0  0  0  0  0  0  0  0  0
    8.0832    9.8600   24.7749 C   0  0  0  0  0  0  0  0  0  0  0  0
    7.0276    9.3418   25.7779 C   0  0  1  0  0  0  0  0  0  0  0  0
    6.6390    9.9073   27.1437 C   0  0  0  0  0  0  0  0  0  0  0  0
    5.2186    9.8354   27.1577 N   0  0  0  0  0  0  0  0  0  0  0  0
    4.8085    9.0053   26.1559 C   0  0  0  0  0  0  0  0  0  0  0  0
    3.7259    8.4497   26.1028 O   0  0  0  0  0  0  0  0  0  0  0  0
    5.7865    8.9033   25.2080 O   0  0  0  0  0  0  0  0  0  0  0  0
    7.7287   12.2888   25.3203 C   0  0  0  0  0  0  0  0  0  0  0  0
    6.4253   12.4698   25.7836 C   0  0  0  0  0  0  0  0  0  0  0  0
    6.1385   13.5777   26.5681 C   0  0  0  0  0  0  0  0  0  0  0  0
    7.1205   14.5136   26.8432 C   0  0  0  0  0  0  0  0  0  0  0  0
    8.4011   14.3775   26.3075 C   0  0  0  0  0  0  0  0  0  0  0  0
    8.7014   13.2518   25.5267 C   0  0  0  0  0  0  0  0  0  0  0  0
   11.8924   14.3522   19.6253 C   0  0  0  0  0  0  0  0  0  0  0  0
   11.0730   14.9720   18.7642 O   0  0  0  0  0  0  0  0  0  0  0  0
  1  2  1  0
  2  3  1  0
  2  4  1  0
  4  5  1  0
  5  6  2  0
  6  7  1  0
  7  8  1  0
  8  9  1  0
  9 10  1  0
 10 11  2  0
 10 12  1  0
 12 13  2  0
 13 14  1  0
 14 15  1  0
 16 15  1  6
 16 17  1  0
 17 18  1  0
 18 19  1  0
 19 20  2  0
 19 21  1  0
 14 22  1  0
 22 23  2  0
 23 24  1  0
 24 25  2  0
 25 26  1  0
 26 27  2  0
  7 28  2  0
 28 29  1  0
 29  5  1  0
 27 12  1  0
 21 16  1  0
 27 22  1  0
M  END
>  <energy_score>  (3684) 
-5.375987

>  <inchikey>  (3684) 
YPGGOXGVGFFOQH-UHFFFAOYSA-N

>  <smiles>  (3684) 
CN(C)Cc1nc(CNC(=O)c2nn(CC3CNC(=O)O3)c3ccccc23)co1

>  <ref_pdb>  (3684) 
A0514a

>  <alias>  (3684) 
YPGGOXGVGFFOQH-UHFFFAOYSA-N-P126-P126-P177-601502

>  <HIPPO Pose ID>  (3684) 
503344

>  <name>  (3684) 
YPGGOXGVGFFOQH-UHFFFAOYSA-N-P126-P126-P177-601502

>  <HIPPO Compound ID>  (3684) 
299490

>  <ref_mols>  (3684) 
A3403a,A2290a

>  <distance_score>  (3684) 
1.803362

>  <inspiration_score>  (3684) 
None

$$$$
XNGYCQJOJYRDSR-UHFFFAOYSA-N-P177-P126-P177-601502
     RDKit          3D

 29 32  0  0  0  0  0  0  0  0999 V2000
    9.2048    5.6496   22.9724 O   0  0  0  0  0  0  0  0  0  0  0  0
    9.3404    6.8617   22.9204 C   0  0  0  0  0  0  0  0  0  0  0  0
    8.8414    7.7472   22.0002 N   0  0  0  0  0  0  0  0  0  0  0  0
    9.5343    8.9729   22.1413 C   0  0  0  0  0  0  0  0  0  0  0  0
    9.7648    8.9380   23.6019 C   0  0  1  0  0  0  0  0  0  0  0  0
    8.4824    9.4545   24.2115 C   0  0  0  0  0  0  0  0  0  0  0  0
    8.5604   10.8849   24.3866 N   0  0  0  0  0  0  0  0  0  0  0  0
    9.4524   11.6096   23.6925 N   0  0  0  0  0  0  0  0  0  0  0  0
    9.4657   12.8006   24.3199 C   0  0  0  0  0  0  0  0  0  0  0  0
   10.4455   13.8370   23.9236 C   0  0  0  0  0  0  0  0  0  0  0  0
   10.6602   14.7635   24.5994 O   0  0  0  0  0  0  0  0  0  0  0  0
   11.0252   13.4463   22.5516 N   0  0  0  0  0  0  0  0  0  0  0  0
   11.9170   14.1563   21.6797 C   0  0  0  0  0  0  0  0  0  0  0  0
   11.1109   15.0601   20.8428 C   0  0  0  0  0  0  0  0  0  0  0  0
   10.8826   15.0869   19.4876 C   0  0  0  0  0  0  0  0  0  0  0  0
    9.9620   16.0609   19.2331 O   0  0  0  0  0  0  0  0  0  0  0  0
    9.7014   16.6065   20.4688 C   0  0  0  0  0  0  0  0  0  0  0  0
    8.5735   17.5638   20.5937 C   0  0  0  0  0  0  0  0  0  0  0  0
    8.8642   18.6497   21.3466 F   0  0  0  0  0  0  0  0  0  0  0  0
    7.5554   16.8854   21.1814 F   0  0  0  0  0  0  0  0  0  0  0  0
    8.1381   18.0290   19.3916 F   0  0  0  0  0  0  0  0  0  0  0  0
   10.3930   16.0508   21.4445 N   0  0  0  0  0  0  0  0  0  0  0  0
    8.4652   12.8373   25.3359 C   0  0  0  0  0  0  0  0  0  0  0  0
    7.9855   13.7829   26.2529 C   0  0  0  0  0  0  0  0  0  0  0  0
    6.9380   13.4209   27.1120 C   0  0  0  0  0  0  0  0  0  0  0  0
    6.3702   12.1478   27.0719 C   0  0  0  0  0  0  0  0  0  0  0  0
    6.8316   11.1920   26.1754 C   0  0  0  0  0  0  0  0  0  0  0  0
    7.8770   11.5774   25.3312 C   0  0  0  0  0  0  0  0  0  0  0  0
    9.9838    7.5670   23.8694 O   0  0  0  0  0  0  0  0  0  0  0  0
  1  2  2  0
  2  3  1  0
  3  4  1  0
  4  5  1  0
  5  6  1  1
  6  7  1  0
  7  8  1  0
  8  9  2  0
  9 10  1  0
 10 11  2  0
 10 12  1  0
 12 13  1  0
 13 14  1  0
 14 15  2  0
 15 16  1  0
 16 17  1  0
 17 18  1  0
 18 19  1  0
 18 20  1  0
 18 21  1  0
 17 22  2  0
  9 23  1  0
 23 24  2  0
 24 25  1  0
 25 26  2  0
 26 27  1  0
 27 28  2  0
  5 29  1  0
 29  2  1  0
 28  7  1  0
 22 14  1  0
 28 23  1  0
M  END
>  <energy_score>  (3685) 
-26.367148

>  <inchikey>  (3685) 
XNGYCQJOJYRDSR-UHFFFAOYSA-N

>  <smiles>  (3685) 
O=C1NCC(Cn2nc(C(=O)NCc3coc(C(F)(F)F)n3)c3ccccc32)O1

>  <ref_pdb>  (3685) 
A0514a

>  <alias>  (3685) 
XNGYCQJOJYRDSR-UHFFFAOYSA-N-P177-P126-P177-601502

>  <HIPPO Pose ID>  (3685) 
503351

>  <name>  (3685) 
XNGYCQJOJYRDSR-UHFFFAOYSA-N-P177-P126-P177-601502

>  <HIPPO Compound ID>  (3685) 
299493

>  <ref_mols>  (3685) 
A3403a,A2290a

>  <distance_score>  (3685) 
1.212304

>  <inspiration_score>  (3685) 
None

$$$$
CDPHROKGUQVNNX-UHFFFAOYSA-N-P177-P126-P177-601502
     RDKit          3D

 29 32  0  0  0  0  0  0  0  0999 V2000
   11.7032   14.5063   18.4893 C   0  0  0  0  0  0  0  0  0  0  0  0
   11.1106   15.1615   19.6327 C   0  0  0  0  0  0  0  0  0  0  0  0
   10.0762   15.9937   19.3467 O   0  0  0  0  0  0  0  0  0  0  0  0
    9.7419   16.4646   20.5670 C   0  0  0  0  0  0  0  0  0  0  0  0
    8.4614   17.1411   20.7026 C   0  0  0  0  0  0  0  0  0  0  0  0
    8.6678   18.5054   21.2725 C   0  0  0  0  0  0  0  0  0  0  0  0
    7.6106   16.1786   21.5705 C   0  0  0  0  0  0  0  0  0  0  0  0
   10.4900   16.0627   21.5591 N   0  0  0  0  0  0  0  0  0  0  0  0
   11.3041   15.1433   20.9934 C   0  0  0  0  0  0  0  0  0  0  0  0
   12.0998   14.2892   21.8861 C   0  0  0  0  0  0  0  0  0  0  0  0
   11.1706   13.7562   22.8396 N   0  0  0  0  0  0  0  0  0  0  0  0
   10.7395   14.2863   24.2268 C   0  0  0  0  0  0  0  0  0  0  0  0
   11.1299   15.1976   24.8437 O   0  0  0  0  0  0  0  0  0  0  0  0
    9.6096   13.4570   24.6519 C   0  0  0  0  0  0  0  0  0  0  0  0
    9.2570   12.4726   23.8192 N   0  0  0  0  0  0  0  0  0  0  0  0
    8.3152   11.8139   24.4751 N   0  0  0  0  0  0  0  0  0  0  0  0
    7.6884   10.7314   23.7977 C   0  0  0  0  0  0  0  0  0  0  0  0
    8.6524    9.6941   23.4354 C   0  0  0  0  0  0  0  0  0  0  0  0
    9.9646    9.6118   23.7660 C   0  0  0  0  0  0  0  0  0  0  0  0
   10.5631    8.3785   23.7496 C   0  0  0  0  0  0  0  0  0  0  0  0
    9.8834    7.3122   23.2485 C   0  0  0  0  0  0  0  0  0  0  0  0
    8.8515    7.5483   22.4168 C   0  0  0  0  0  0  0  0  0  0  0  0
    8.1647    8.6626   22.7180 C   0  0  0  0  0  0  0  0  0  0  0  0
    7.9595   12.3269   25.6686 C   0  0  0  0  0  0  0  0  0  0  0  0
    6.9997   11.9130   26.5965 C   0  0  0  0  0  0  0  0  0  0  0  0
    6.7986   12.7474   27.6848 C   0  0  0  0  0  0  0  0  0  0  0  0
    7.5353   13.9244   27.8218 C   0  0  0  0  0  0  0  0  0  0  0  0
    8.5173   14.2994   26.8885 C   0  0  0  0  0  0  0  0  0  0  0  0
    8.7431   13.4731   25.7820 C   0  0  0  0  0  0  0  0  0  0  0  0
  1  2  1  0
  2  3  1  0
  3  4  1  0
  4  5  1  0
  5  6  1  0
  5  7  1  0
  4  8  2  0
  8  9  1  0
  9 10  1  0
 10 11  1  0
 11 12  1  0
 12 13  2  0
 12 14  1  0
 14 15  2  0
 15 16  1  0
 16 17  1  0
 17 18  1  0
 18 19  2  0
 19 20  1  0
 20 21  2  0
 21 22  1  0
 22 23  2  0
 16 24  1  0
 24 25  2  0
 25 26  1  0
 26 27  2  0
 27 28  1  0
 28 29  2  0
  9  2  2  0
 29 14  1  0
 23 18  1  0
 29 24  1  0
M  END
>  <energy_score>  (3686) 
-4.149787

>  <inchikey>  (3686) 
CDPHROKGUQVNNX-UHFFFAOYSA-N

>  <smiles>  (3686) 
Cc1oc(C(C)C)nc1CNC(=O)c1nn(Cc2ccccc2)c2ccccc12

>  <ref_pdb>  (3686) 
A0514a

>  <alias>  (3686) 
CDPHROKGUQVNNX-UHFFFAOYSA-N-P177-P126-P177-601502

>  <HIPPO Pose ID>  (3686) 
503371

>  <name>  (3686) 
CDPHROKGUQVNNX-UHFFFAOYSA-N-P177-P126-P177-601502

>  <HIPPO Compound ID>  (3686) 
299503

>  <ref_mols>  (3686) 
A3403a,A2290a

>  <distance_score>  (3686) 
1.866954

>  <inspiration_score>  (3686) 
None

$$$$
LLDZPHCJSJZSFN-UHFFFAOYSA-N-P126-P126-P183-601502
     RDKit          3D

 22 24  0  0  0  0  0  0  0  0999 V2000
   12.6525   14.9803   22.0778 C   0  0  0  0  0  0  0  0  0  0  0  0
   11.9008   13.9801   21.2528 C   0  0  2  0  0  0  0  0  0  0  0  0
   11.2939   14.5465   19.9696 C   0  0  0  0  0  0  0  0  0  0  0  0
   10.2403   15.5790   20.0278 C   0  0  0  0  0  0  0  0  0  0  0  0
    9.8782   16.4280   19.0030 C   0  0  0  0  0  0  0  0  0  0  0  0
    9.0145   17.3478   19.4909 O   0  0  0  0  0  0  0  0  0  0  0  0
    8.8554   16.9691   20.7831 C   0  0  0  0  0  0  0  0  0  0  0  0
    9.5247   15.8929   21.1453 N   0  0  0  0  0  0  0  0  0  0  0  0
   11.0378   13.1216   22.0239 N   0  0  0  0  0  0  0  0  0  0  0  0
   10.4378   13.3078   23.4254 C   0  0  0  0  0  0  0  0  0  0  0  0
   10.4818   14.2182   24.1514 O   0  0  0  0  0  0  0  0  0  0  0  0
    9.6940   12.0857   23.7761 C   0  0  0  0  0  0  0  0  0  0  0  0
    9.9503   10.9286   23.1419 N   0  0  0  0  0  0  0  0  0  0  0  0
    9.1987   10.0239   23.7798 N   0  0  0  0  0  0  0  0  0  0  0  0
    9.3878    8.6339   23.4562 C   0  0  0  0  0  0  0  0  0  0  0  0
    8.3664   10.5606   24.7308 C   0  0  0  0  0  0  0  0  0  0  0  0
    7.3931    9.9975   25.5679 C   0  0  0  0  0  0  0  0  0  0  0  0
    6.7243   10.8496   26.4485 C   0  0  0  0  0  0  0  0  0  0  0  0
    7.0269   12.2047   26.4855 C   0  0  0  0  0  0  0  0  0  0  0  0
    6.3821   12.9906   27.3584 F   0  0  0  0  0  0  0  0  0  0  0  0
    7.9954   12.7631   25.6535 C   0  0  0  0  0  0  0  0  0  0  0  0
    8.6771   11.9197   24.7571 C   0  0  0  0  0  0  0  0  0  0  0  0
  2  1  1  1
  2  3  1  0
  3  4  1  0
  4  5  2  0
  5  6  1  0
  6  7  1  0
  7  8  2  0
  2  9  1  0
  9 10  1  0
 10 11  2  0
 10 12  1  0
 12 13  2  0
 13 14  1  0
 14 15  1  0
 14 16  1  0
 16 17  2  0
 17 18  1  0
 18 19  2  0
 19 20  1  0
 19 21  1  0
 21 22  2  0
  8  4  1  0
 22 12  1  0
 22 16  1  0
M  END
>  <energy_score>  (3687) 
-10.968907

>  <inchikey>  (3687) 
LLDZPHCJSJZSFN-UHFFFAOYSA-N

>  <smiles>  (3687) 
CC(Cc1cocn1)NC(=O)c1nn(C)c2ccc(F)cc12

>  <ref_pdb>  (3687) 
A0514a

>  <alias>  (3687) 
LLDZPHCJSJZSFN-UHFFFAOYSA-N-P126-P126-P183-601502

>  <HIPPO Pose ID>  (3687) 
503376

>  <name>  (3687) 
LLDZPHCJSJZSFN-UHFFFAOYSA-N-P126-P126-P183-601502

>  <HIPPO Compound ID>  (3687) 
191887

>  <ref_mols>  (3687) 
A2290a,A3436a

>  <distance_score>  (3687) 
0.717811

>  <inspiration_score>  (3687) 
None

$$$$
LLDZPHCJSJZSFN-UHFFFAOYSA-N-P183-P126-P183-601502
     RDKit          3D

 22 24  0  0  0  0  0  0  0  0999 V2000
   12.4488   14.8277   23.0281 C   0  0  0  0  0  0  0  0  0  0  0  0
   11.9351   13.8642   22.0048 C   0  0  2  0  0  0  0  0  0  0  0  0
   11.8242   14.5003   20.6401 C   0  0  0  0  0  0  0  0  0  0  0  0
   10.6361   15.3169   20.3729 C   0  0  0  0  0  0  0  0  0  0  0  0
   10.2019   15.6974   19.1334 C   0  0  0  0  0  0  0  0  0  0  0  0
    9.2428   16.6382   19.2876 O   0  0  0  0  0  0  0  0  0  0  0  0
    9.1019   16.7379   20.6364 C   0  0  0  0  0  0  0  0  0  0  0  0
    9.8929   15.9491   21.3296 N   0  0  0  0  0  0  0  0  0  0  0  0
   10.8573   13.1007   22.5237 N   0  0  0  0  0  0  0  0  0  0  0  0
    9.8842   13.4014   23.6673 C   0  0  0  0  0  0  0  0  0  0  0  0
    9.7584   14.3571   24.3201 O   0  0  0  0  0  0  0  0  0  0  0  0
    9.1275   12.1818   23.9197 C   0  0  0  0  0  0  0  0  0  0  0  0
    9.4810   11.0356   23.3112 N   0  0  0  0  0  0  0  0  0  0  0  0
    8.8136   10.0930   23.9788 N   0  0  0  0  0  0  0  0  0  0  0  0
    9.1095    8.7199   23.6569 C   0  0  0  0  0  0  0  0  0  0  0  0
    7.9251   10.5991   24.9000 C   0  0  0  0  0  0  0  0  0  0  0  0
    6.9750   10.0083   25.7398 C   0  0  0  0  0  0  0  0  0  0  0  0
    6.2296   10.8383   26.5799 C   0  0  0  0  0  0  0  0  0  0  0  0
    6.4278   12.2110   26.5716 C   0  0  0  0  0  0  0  0  0  0  0  0
    5.7140   12.9763   27.4077 F   0  0  0  0  0  0  0  0  0  0  0  0
    7.3566   12.8060   25.7254 C   0  0  0  0  0  0  0  0  0  0  0  0
    8.1046   11.9797   24.8688 C   0  0  0  0  0  0  0  0  0  0  0  0
  2  1  1  1
  2  3  1  0
  3  4  1  0
  4  5  2  0
  5  6  1  0
  6  7  1  0
  7  8  2  0
  2  9  1  0
  9 10  1  0
 10 11  2  0
 10 12  1  0
 12 13  2  0
 13 14  1  0
 14 15  1  0
 14 16  1  0
 16 17  2  0
 17 18  1  0
 18 19  2  0
 19 20  1  0
 19 21  1  0
 21 22  2  0
  8  4  1  0
 22 12  1  0
 22 16  1  0
M  END
>  <energy_score>  (3688) 
-7.378615

>  <inchikey>  (3688) 
LLDZPHCJSJZSFN-UHFFFAOYSA-N

>  <smiles>  (3688) 
CC(Cc1cocn1)NC(=O)c1nn(C)c2ccc(F)cc12

>  <ref_pdb>  (3688) 
A0514a

>  <alias>  (3688) 
LLDZPHCJSJZSFN-UHFFFAOYSA-N-P183-P126-P183-601502

>  <HIPPO Pose ID>  (3688) 
503377

>  <name>  (3688) 
LLDZPHCJSJZSFN-UHFFFAOYSA-N-P183-P126-P183-601502

>  <HIPPO Compound ID>  (3688) 
191887

>  <ref_mols>  (3688) 
A2290a,A3436a

>  <distance_score>  (3688) 
0.600622

>  <inspiration_score>  (3688) 
None

$$$$
SKWLCASPHPGKCF-UHFFFAOYSA-N-P126-P126-P183-601502
     RDKit          3D

 22 24  0  0  0  0  0  0  0  0999 V2000
   11.6855   14.5208   18.4365 C   0  0  0  0  0  0  0  0  0  0  0  0
   10.8908   14.9585   19.5744 C   0  0  0  0  0  0  0  0  0  0  0  0
    9.7819   15.7243   19.3881 O   0  0  0  0  0  0  0  0  0  0  0  0
    9.4125   16.0384   20.6588 C   0  0  0  0  0  0  0  0  0  0  0  0
   10.1429   15.4838   21.6017 N   0  0  0  0  0  0  0  0  0  0  0  0
   11.1367   14.8563   20.9136 C   0  0  0  0  0  0  0  0  0  0  0  0
   12.3623   14.2966   21.5153 C   0  0  0  0  0  0  0  0  0  0  0  0
   12.3058   14.1662   23.0095 C   0  0  0  0  0  0  0  0  0  0  0  0
   11.3563   13.2078   23.4471 N   0  0  0  0  0  0  0  0  0  0  0  0
   10.3299   13.2719   24.5719 C   0  0  0  0  0  0  0  0  0  0  0  0
   10.1426   14.0903   25.3768 O   0  0  0  0  0  0  0  0  0  0  0  0
    9.5422   12.0424   24.4892 C   0  0  0  0  0  0  0  0  0  0  0  0
    9.9164   11.0471   23.6634 N   0  0  0  0  0  0  0  0  0  0  0  0
    9.0761   10.0452   23.9496 N   0  0  0  0  0  0  0  0  0  0  0  0
    9.2500    8.8015   23.2388 C   0  0  0  0  0  0  0  0  0  0  0  0
    8.1503   10.3734   24.9116 C   0  0  0  0  0  0  0  0  0  0  0  0
    7.1308    9.6571   25.5380 C   0  0  0  0  0  0  0  0  0  0  0  0
    6.3384   10.3174   26.4800 C   0  0  0  0  0  0  0  0  0  0  0  0
    6.5624   11.6528   26.7790 C   0  0  0  0  0  0  0  0  0  0  0  0
    5.7917   12.2537   27.6954 F   0  0  0  0  0  0  0  0  0  0  0  0
    7.5878   12.3676   26.1742 C   0  0  0  0  0  0  0  0  0  0  0  0
    8.3965   11.7047   25.2349 C   0  0  0  0  0  0  0  0  0  0  0  0
  1  2  1  0
  2  3  1  0
  3  4  1  0
  4  5  2  0
  5  6  1  0
  6  7  1  0
  7  8  1  0
  8  9  1  0
  9 10  1  0
 10 11  2  0
 10 12  1  0
 12 13  2  0
 13 14  1  0
 14 15  1  0
 14 16  1  0
 16 17  2  0
 17 18  1  0
 18 19  2  0
 19 20  1  0
 19 21  1  0
 21 22  2  0
  6  2  2  0
 22 12  1  0
 22 16  1  0
M  END
>  <energy_score>  (3689) 
-21.210933

>  <inchikey>  (3689) 
SKWLCASPHPGKCF-UHFFFAOYSA-N

>  <smiles>  (3689) 
Cc1ocnc1CCNC(=O)c1nn(C)c2ccc(F)cc12

>  <ref_pdb>  (3689) 
A0514a

>  <alias>  (3689) 
SKWLCASPHPGKCF-UHFFFAOYSA-N-P126-P126-P183-601502

>  <HIPPO Pose ID>  (3689) 
503378

>  <name>  (3689) 
SKWLCASPHPGKCF-UHFFFAOYSA-N-P126-P126-P183-601502

>  <HIPPO Compound ID>  (3689) 
250891

>  <ref_mols>  (3689) 
A2290a,A3436a

>  <distance_score>  (3689) 
0.738298

>  <inspiration_score>  (3689) 
None

$$$$
SKWLCASPHPGKCF-UHFFFAOYSA-N-P183-P126-P183-601502
     RDKit          3D

 22 24  0  0  0  0  0  0  0  0999 V2000
   11.3920   14.8293   18.3288 C   0  0  0  0  0  0  0  0  0  0  0  0
   10.6544   15.3361   19.4768 C   0  0  0  0  0  0  0  0  0  0  0  0
    9.5478   16.1009   19.2720 O   0  0  0  0  0  0  0  0  0  0  0  0
    9.1794   16.4608   20.5334 C   0  0  0  0  0  0  0  0  0  0  0  0
    9.9261   15.9554   21.4878 N   0  0  0  0  0  0  0  0  0  0  0  0
   10.9121   15.2873   20.8199 C   0  0  0  0  0  0  0  0  0  0  0  0
   12.1185   14.7200   21.4623 C   0  0  0  0  0  0  0  0  0  0  0  0
   11.9948   14.5389   22.9540 C   0  0  0  0  0  0  0  0  0  0  0  0
   10.9886   13.5882   23.2850 N   0  0  0  0  0  0  0  0  0  0  0  0
    9.9442   13.5973   24.3923 C   0  0  0  0  0  0  0  0  0  0  0  0
    9.6799   14.4167   25.1726 O   0  0  0  0  0  0  0  0  0  0  0  0
    9.2347   12.3200   24.3396 C   0  0  0  0  0  0  0  0  0  0  0  0
    9.6878   11.2977   23.5903 N   0  0  0  0  0  0  0  0  0  0  0  0
    8.9547   10.2480   23.9915 N   0  0  0  0  0  0  0  0  0  0  0  0
    9.2994    8.9472   23.4645 C   0  0  0  0  0  0  0  0  0  0  0  0
    7.9917   10.5829   24.9179 C   0  0  0  0  0  0  0  0  0  0  0  0
    7.0366    9.8442   25.6210 C   0  0  0  0  0  0  0  0  0  0  0  0
    6.1834   10.5185   26.4980 C   0  0  0  0  0  0  0  0  0  0  0  0
    6.2770   11.8920   26.6542 C   0  0  0  0  0  0  0  0  0  0  0  0
    5.4530   12.5079   27.5121 F   0  0  0  0  0  0  0  0  0  0  0  0
    7.2257   12.6334   25.9634 C   0  0  0  0  0  0  0  0  0  0  0  0
    8.1018   11.9574   25.0947 C   0  0  0  0  0  0  0  0  0  0  0  0
  1  2  1  0
  2  3  1  0
  3  4  1  0
  4  5  2  0
  5  6  1  0
  6  7  1  0
  7  8  1  0
  8  9  1  0
  9 10  1  0
 10 11  2  0
 10 12  1  0
 12 13  2  0
 13 14  1  0
 14 15  1  0
 14 16  1  0
 16 17  2  0
 17 18  1  0
 18 19  2  0
 19 20  1  0
 19 21  1  0
 21 22  2  0
  6  2  2  0
 22 12  1  0
 22 16  1  0
M  END
>  <energy_score>  (3690) 
-22.255064

>  <inchikey>  (3690) 
SKWLCASPHPGKCF-UHFFFAOYSA-N

>  <smiles>  (3690) 
Cc1ocnc1CCNC(=O)c1nn(C)c2ccc(F)cc12

>  <ref_pdb>  (3690) 
A0514a

>  <alias>  (3690) 
SKWLCASPHPGKCF-UHFFFAOYSA-N-P183-P126-P183-601502

>  <HIPPO Pose ID>  (3690) 
503379

>  <name>  (3690) 
SKWLCASPHPGKCF-UHFFFAOYSA-N-P183-P126-P183-601502

>  <HIPPO Compound ID>  (3690) 
250891

>  <ref_mols>  (3690) 
A2290a,A3436a

>  <distance_score>  (3690) 
0.712371

>  <inspiration_score>  (3690) 
None

$$$$
IIHQBSBEBQSMSZ-UHFFFAOYSA-N-P126-P126-P183-601502
     RDKit          3D

 22 24  0  0  0  0  0  0  0  0999 V2000
    8.5927   17.4018   20.7008 C   0  0  0  0  0  0  0  0  0  0  0  0
    9.5635   16.3208   20.4676 C   0  0  0  0  0  0  0  0  0  0  0  0
   10.3373   15.7219   21.3450 N   0  0  0  0  0  0  0  0  0  0  0  0
   11.1630   14.9388   20.5868 C   0  0  0  0  0  0  0  0  0  0  0  0
   12.3878   14.3359   21.1521 C   0  0  0  0  0  0  0  0  0  0  0  0
   12.3328   14.1895   22.6558 C   0  0  0  0  0  0  0  0  0  0  0  0
   11.3208   13.2806   23.0847 N   0  0  0  0  0  0  0  0  0  0  0  0
   10.4662   13.2717   24.3498 C   0  0  0  0  0  0  0  0  0  0  0  0
   10.3915   14.0455   25.2159 O   0  0  0  0  0  0  0  0  0  0  0  0
    9.6707   12.0407   24.3285 C   0  0  0  0  0  0  0  0  0  0  0  0
   10.0077   11.0205   23.5171 N   0  0  0  0  0  0  0  0  0  0  0  0
    9.1711   10.0323   23.8635 N   0  0  0  0  0  0  0  0  0  0  0  0
    9.3129    8.7637   23.1918 C   0  0  0  0  0  0  0  0  0  0  0  0
    8.2671   10.3951   24.8328 C   0  0  0  0  0  0  0  0  0  0  0  0
    7.2493    9.7034   25.4934 C   0  0  0  0  0  0  0  0  0  0  0  0
    6.4814   10.3975   26.4314 C   0  0  0  0  0  0  0  0  0  0  0  0
    6.7304   11.7367   26.6950 C   0  0  0  0  0  0  0  0  0  0  0  0
    5.9850   12.3699   27.6106 F   0  0  0  0  0  0  0  0  0  0  0  0
    7.7554   12.4241   26.0556 C   0  0  0  0  0  0  0  0  0  0  0  0
    8.5401   11.7306   25.1169 C   0  0  0  0  0  0  0  0  0  0  0  0
   10.7618   14.9994   19.2786 C   0  0  0  0  0  0  0  0  0  0  0  0
    9.7280   15.8804   19.1878 O   0  0  0  0  0  0  0  0  0  0  0  0
  1  2  1  0
  2  3  2  0
  3  4  1  0
  4  5  1  0
  5  6  1  0
  6  7  1  0
  7  8  1  0
  8  9  2  0
  8 10  1  0
 10 11  2  0
 11 12  1  0
 12 13  1  0
 12 14  1  0
 14 15  2  0
 15 16  1  0
 16 17  2  0
 17 18  1  0
 17 19  1  0
 19 20  2  0
  4 21  2  0
 21 22  1  0
 22  2  1  0
 20 10  1  0
 20 14  1  0
M  END
>  <energy_score>  (3691) 
-10.521861

>  <inchikey>  (3691) 
IIHQBSBEBQSMSZ-UHFFFAOYSA-N

>  <smiles>  (3691) 
Cc1nc(CCNC(=O)c2nn(C)c3ccc(F)cc23)co1

>  <ref_pdb>  (3691) 
A0514a

>  <alias>  (3691) 
IIHQBSBEBQSMSZ-UHFFFAOYSA-N-P126-P126-P183-601502

>  <HIPPO Pose ID>  (3691) 
503380

>  <name>  (3691) 
IIHQBSBEBQSMSZ-UHFFFAOYSA-N-P126-P126-P183-601502

>  <HIPPO Compound ID>  (3691) 
289825

>  <ref_mols>  (3691) 
A2290a,A3436a

>  <distance_score>  (3691) 
0.533466

>  <inspiration_score>  (3691) 
None

$$$$
IIHQBSBEBQSMSZ-UHFFFAOYSA-N-P183-P126-P183-601502
     RDKit          3D

 22 24  0  0  0  0  0  0  0  0999 V2000
    8.4791   17.5962   20.4269 C   0  0  0  0  0  0  0  0  0  0  0  0
    9.4953   16.5657   20.2199 C   0  0  0  0  0  0  0  0  0  0  0  0
   10.2751   16.0336   21.1262 N   0  0  0  0  0  0  0  0  0  0  0  0
   11.0769   15.1863   20.4182 C   0  0  0  0  0  0  0  0  0  0  0  0
   12.2344   14.5549   21.0736 C   0  0  0  0  0  0  0  0  0  0  0  0
   12.0736   14.4583   22.5803 C   0  0  0  0  0  0  0  0  0  0  0  0
   11.0373   13.5514   22.9639 N   0  0  0  0  0  0  0  0  0  0  0  0
   10.0975   13.5706   24.1647 C   0  0  0  0  0  0  0  0  0  0  0  0
    9.9576   14.3668   25.0004 O   0  0  0  0  0  0  0  0  0  0  0  0
    9.3459   12.3122   24.1775 C   0  0  0  0  0  0  0  0  0  0  0  0
    9.7496   11.2465   23.4612 N   0  0  0  0  0  0  0  0  0  0  0  0
    9.0073   10.2333   23.9360 N   0  0  0  0  0  0  0  0  0  0  0  0
    9.3210    8.8984   23.4823 C   0  0  0  0  0  0  0  0  0  0  0  0
    8.0648   10.6313   24.8573 C   0  0  0  0  0  0  0  0  0  0  0  0
    7.1009    9.9441   25.6037 C   0  0  0  0  0  0  0  0  0  0  0  0
    6.2770   10.6780   26.4604 C   0  0  0  0  0  0  0  0  0  0  0  0
    6.4130   12.0540   26.5597 C   0  0  0  0  0  0  0  0  0  0  0  0
    5.6201   12.7273   27.4036 F   0  0  0  0  0  0  0  0  0  0  0  0
    7.3734   12.7417   25.8274 C   0  0  0  0  0  0  0  0  0  0  0  0
    8.2182   12.0092   24.9734 C   0  0  0  0  0  0  0  0  0  0  0  0
   10.6923   15.1816   19.1011 C   0  0  0  0  0  0  0  0  0  0  0  0
    9.6625   16.0630   18.9626 O   0  0  0  0  0  0  0  0  0  0  0  0
  1  2  1  0
  2  3  2  0
  3  4  1  0
  4  5  1  0
  5  6  1  0
  6  7  1  0
  7  8  1  0
  8  9  2  0
  8 10  1  0
 10 11  2  0
 11 12  1  0
 12 13  1  0
 12 14  1  0
 14 15  2  0
 15 16  1  0
 16 17  2  0
 17 18  1  0
 17 19  1  0
 19 20  2  0
  4 21  2  0
 21 22  1  0
 22  2  1  0
 20 10  1  0
 20 14  1  0
M  END
>  <energy_score>  (3692) 
-10.059549

>  <inchikey>  (3692) 
IIHQBSBEBQSMSZ-UHFFFAOYSA-N

>  <smiles>  (3692) 
Cc1nc(CCNC(=O)c2nn(C)c3ccc(F)cc23)co1

>  <ref_pdb>  (3692) 
A0514a

>  <alias>  (3692) 
IIHQBSBEBQSMSZ-UHFFFAOYSA-N-P183-P126-P183-601502

>  <HIPPO Pose ID>  (3692) 
503381

>  <name>  (3692) 
IIHQBSBEBQSMSZ-UHFFFAOYSA-N-P183-P126-P183-601502

>  <HIPPO Compound ID>  (3692) 
289825

>  <ref_mols>  (3692) 
A2290a,A3436a

>  <distance_score>  (3692) 
0.54361

>  <inspiration_score>  (3692) 
None

$$$$
PTLSPUZRFSQXHO-UHFFFAOYSA-N-P126-P126-P183-601502
     RDKit          3D

 22 24  0  0  0  0  0  0  0  0999 V2000
   11.6966   14.4550   18.6093 C   0  0  0  0  0  0  0  0  0  0  0  0
   10.8338   15.0270   19.6373 C   0  0  0  0  0  0  0  0  0  0  0  0
    9.7565   15.7665   19.2307 O   0  0  0  0  0  0  0  0  0  0  0  0
    9.2965   16.3107   20.3849 C   0  0  0  0  0  0  0  0  0  0  0  0
    9.8905   15.8724   21.4616 N   0  0  0  0  0  0  0  0  0  0  0  0
   10.9664   15.1886   20.9932 C   0  0  0  0  0  0  0  0  0  0  0  0
   12.1433   14.9923   21.8619 C   0  0  0  0  0  0  0  0  0  0  0  0
   12.4684   13.5725   22.2064 C   0  0  0  0  0  0  0  0  0  0  0  0
   11.3850   12.8506   22.7595 N   0  0  0  0  0  0  0  0  0  0  0  0
   10.5988   13.0723   24.0543 C   0  0  0  0  0  0  0  0  0  0  0  0
   10.6633   13.9299   24.8400 O   0  0  0  0  0  0  0  0  0  0  0  0
    9.7039   11.9209   24.1764 C   0  0  0  0  0  0  0  0  0  0  0  0
    9.9426   10.8460   23.4069 N   0  0  0  0  0  0  0  0  0  0  0  0
    9.0864    9.9225   23.8366 N   0  0  0  0  0  0  0  0  0  0  0  0
    9.1635    8.6271   23.2140 C   0  0  0  0  0  0  0  0  0  0  0  0
    8.2419   10.3786   24.8188 C   0  0  0  0  0  0  0  0  0  0  0  0
    7.2082    9.7765   25.5388 C   0  0  0  0  0  0  0  0  0  0  0  0
    6.5128   10.5549   26.4683 C   0  0  0  0  0  0  0  0  0  0  0  0
    6.8471   11.8908   26.6695 C   0  0  0  0  0  0  0  0  0  0  0  0
    5.8874   12.9054   27.9449 Br  0  0  0  0  0  0  0  0  0  0  0  0
    7.8911   12.4884   25.9629 C   0  0  0  0  0  0  0  0  0  0  0  0
    8.5996   11.7110   25.0292 C   0  0  0  0  0  0  0  0  0  0  0  0
  1  2  1  0
  2  3  1  0
  3  4  1  0
  4  5  2  0
  5  6  1  0
  6  7  1  0
  7  8  1  0
  8  9  1  0
  9 10  1  0
 10 11  2  0
 10 12  1  0
 12 13  2  0
 13 14  1  0
 14 15  1  0
 14 16  1  0
 16 17  2  0
 17 18  1  0
 18 19  2  0
 19 20  1  0
 19 21  1  0
 21 22  2  0
  6  2  2  0
 22 12  1  0
 22 16  1  0
M  END
>  <energy_score>  (3693) 
-15.168538

>  <inchikey>  (3693) 
PTLSPUZRFSQXHO-UHFFFAOYSA-N

>  <smiles>  (3693) 
Cc1ocnc1CCNC(=O)c1nn(C)c2ccc(Br)cc12

>  <ref_pdb>  (3693) 
A0514a

>  <alias>  (3693) 
PTLSPUZRFSQXHO-UHFFFAOYSA-N-P126-P126-P183-601502

>  <HIPPO Pose ID>  (3693) 
503382

>  <name>  (3693) 
PTLSPUZRFSQXHO-UHFFFAOYSA-N-P126-P126-P183-601502

>  <HIPPO Compound ID>  (3693) 
289826

>  <ref_mols>  (3693) 
A2290a,A3436a

>  <distance_score>  (3693) 
0.510567

>  <inspiration_score>  (3693) 
None

$$$$
PTLSPUZRFSQXHO-UHFFFAOYSA-N-P183-P126-P183-601502
     RDKit          3D

 22 24  0  0  0  0  0  0  0  0999 V2000
   11.3934   14.8254   18.3237 C   0  0  0  0  0  0  0  0  0  0  0  0
   10.6550   15.3404   19.4670 C   0  0  0  0  0  0  0  0  0  0  0  0
    9.5506   16.1069   19.2567 O   0  0  0  0  0  0  0  0  0  0  0  0
    9.1848   16.4785   20.5157 C   0  0  0  0  0  0  0  0  0  0  0  0
    9.9313   15.9791   21.4731 N   0  0  0  0  0  0  0  0  0  0  0  0
   10.9125   15.2988   20.8102 C   0  0  0  0  0  0  0  0  0  0  0  0
   12.1155   14.7281   21.4564 C   0  0  0  0  0  0  0  0  0  0  0  0
   11.9837   14.5468   22.9467 C   0  0  0  0  0  0  0  0  0  0  0  0
   10.9611   13.6107   23.2687 N   0  0  0  0  0  0  0  0  0  0  0  0
    9.9561   13.5972   24.4112 C   0  0  0  0  0  0  0  0  0  0  0  0
    9.7433   14.3861   25.2376 O   0  0  0  0  0  0  0  0  0  0  0  0
    9.2451   12.3210   24.3504 C   0  0  0  0  0  0  0  0  0  0  0  0
    9.7047   11.3023   23.5989 N   0  0  0  0  0  0  0  0  0  0  0  0
    8.9619   10.2518   23.9842 N   0  0  0  0  0  0  0  0  0  0  0  0
    9.2941    8.9554   23.4384 C   0  0  0  0  0  0  0  0  0  0  0  0
    8.0018   10.5814   24.9148 C   0  0  0  0  0  0  0  0  0  0  0  0
    7.0460    9.8398   25.6111 C   0  0  0  0  0  0  0  0  0  0  0  0
    6.1861   10.5072   26.4880 C   0  0  0  0  0  0  0  0  0  0  0  0
    6.2740   11.8831   26.6555 C   0  0  0  0  0  0  0  0  0  0  0  0
    5.0940   12.7508   27.8502 Br  0  0  0  0  0  0  0  0  0  0  0  0
    7.2311   12.6258   25.9697 C   0  0  0  0  0  0  0  0  0  0  0  0
    8.1113   11.9534   25.1008 C   0  0  0  0  0  0  0  0  0  0  0  0
  1  2  1  0
  2  3  1  0
  3  4  1  0
  4  5  2  0
  5  6  1  0
  6  7  1  0
  7  8  1  0
  8  9  1  0
  9 10  1  0
 10 11  2  0
 10 12  1  0
 12 13  2  0
 13 14  1  0
 14 15  1  0
 14 16  1  0
 16 17  2  0
 17 18  1  0
 18 19  2  0
 19 20  1  0
 19 21  1  0
 21 22  2  0
  6  2  2  0
 22 12  1  0
 22 16  1  0
M  END
>  <energy_score>  (3694) 
-18.429763

>  <inchikey>  (3694) 
PTLSPUZRFSQXHO-UHFFFAOYSA-N

>  <smiles>  (3694) 
Cc1ocnc1CCNC(=O)c1nn(C)c2ccc(Br)cc12

>  <ref_pdb>  (3694) 
A0514a

>  <alias>  (3694) 
PTLSPUZRFSQXHO-UHFFFAOYSA-N-P183-P126-P183-601502

>  <HIPPO Pose ID>  (3694) 
503383

>  <name>  (3694) 
PTLSPUZRFSQXHO-UHFFFAOYSA-N-P183-P126-P183-601502

>  <HIPPO Compound ID>  (3694) 
289826

>  <ref_mols>  (3694) 
A2290a,A3436a

>  <distance_score>  (3694) 
0.708221

>  <inspiration_score>  (3694) 
None

$$$$
GRVBCAZAUPUKFZ-UHFFFAOYSA-N-P126-P126-P183-601502
     RDKit          3D

 22 24  0  0  0  0  0  0  0  0999 V2000
    8.5921   17.3952   20.7109 C   0  0  0  0  0  0  0  0  0  0  0  0
    9.5605   16.3121   20.4776 C   0  0  0  0  0  0  0  0  0  0  0  0
   10.3313   15.7087   21.3549 N   0  0  0  0  0  0  0  0  0  0  0  0
   11.1568   14.9273   20.5950 C   0  0  0  0  0  0  0  0  0  0  0  0
   12.3866   14.3293   21.1529 C   0  0  0  0  0  0  0  0  0  0  0  0
   12.3599   14.2073   22.6592 C   0  0  0  0  0  0  0  0  0  0  0  0
   11.4154   13.2465   23.1263 N   0  0  0  0  0  0  0  0  0  0  0  0
   10.4879   13.2743   24.3403 C   0  0  0  0  0  0  0  0  0  0  0  0
   10.3958   14.0509   25.2027 O   0  0  0  0  0  0  0  0  0  0  0  0
    9.6870   12.0456   24.3062 C   0  0  0  0  0  0  0  0  0  0  0  0
   10.0354   11.0248   23.5012 N   0  0  0  0  0  0  0  0  0  0  0  0
    9.1958   10.0350   23.8371 N   0  0  0  0  0  0  0  0  0  0  0  0
    9.3413    8.7669   23.1640 C   0  0  0  0  0  0  0  0  0  0  0  0
    8.2898   10.3937   24.8062 C   0  0  0  0  0  0  0  0  0  0  0  0
    7.2801    9.6950   25.4694 C   0  0  0  0  0  0  0  0  0  0  0  0
    6.5010   10.3834   26.4034 C   0  0  0  0  0  0  0  0  0  0  0  0
    6.7310   11.7302   26.6639 C   0  0  0  0  0  0  0  0  0  0  0  0
    5.6552   12.6266   27.9344 Br  0  0  0  0  0  0  0  0  0  0  0  0
    7.7569   12.4218   26.0213 C   0  0  0  0  0  0  0  0  0  0  0  0
    8.5512   11.7313   25.0867 C   0  0  0  0  0  0  0  0  0  0  0  0
   10.7571   14.9924   19.2863 C   0  0  0  0  0  0  0  0  0  0  0  0
    9.7261   15.8764   19.1965 O   0  0  0  0  0  0  0  0  0  0  0  0
  1  2  1  0
  2  3  2  0
  3  4  1  0
  4  5  1  0
  5  6  1  0
  6  7  1  0
  7  8  1  0
  8  9  2  0
  8 10  1  0
 10 11  2  0
 11 12  1  0
 12 13  1  0
 12 14  1  0
 14 15  2  0
 15 16  1  0
 16 17  2  0
 17 18  1  0
 17 19  1  0
 19 20  2  0
  4 21  2  0
 21 22  1  0
 22  2  1  0
 20 10  1  0
 20 14  1  0
M  END
>  <energy_score>  (3695) 
-5.165477

>  <inchikey>  (3695) 
GRVBCAZAUPUKFZ-UHFFFAOYSA-N

>  <smiles>  (3695) 
Cc1nc(CCNC(=O)c2nn(C)c3ccc(Br)cc23)co1

>  <ref_pdb>  (3695) 
A0514a

>  <alias>  (3695) 
GRVBCAZAUPUKFZ-UHFFFAOYSA-N-P126-P126-P183-601502

>  <HIPPO Pose ID>  (3695) 
503384

>  <name>  (3695) 
GRVBCAZAUPUKFZ-UHFFFAOYSA-N-P126-P126-P183-601502

>  <HIPPO Compound ID>  (3695) 
289827

>  <ref_mols>  (3695) 
A2290a,A3436a

>  <distance_score>  (3695) 
0.533051

>  <inspiration_score>  (3695) 
None

$$$$
GRVBCAZAUPUKFZ-UHFFFAOYSA-N-P183-P126-P183-601502
     RDKit          3D

 22 24  0  0  0  0  0  0  0  0999 V2000
    8.4764   17.5901   20.4351 C   0  0  0  0  0  0  0  0  0  0  0  0
    9.4898   16.5567   20.2307 C   0  0  0  0  0  0  0  0  0  0  0  0
   10.2640   16.0214   21.1399 N   0  0  0  0  0  0  0  0  0  0  0  0
   11.0701   15.1776   20.4329 C   0  0  0  0  0  0  0  0  0  0  0  0
   12.2356   14.5585   21.0853 C   0  0  0  0  0  0  0  0  0  0  0  0
   12.1035   14.4981   22.5970 C   0  0  0  0  0  0  0  0  0  0  0  0
   11.1435   13.5315   23.0284 N   0  0  0  0  0  0  0  0  0  0  0  0
   10.1428   13.5726   24.1800 C   0  0  0  0  0  0  0  0  0  0  0  0
    9.9858   14.3668   25.0153 O   0  0  0  0  0  0  0  0  0  0  0  0
    9.3852   12.3164   24.1692 C   0  0  0  0  0  0  0  0  0  0  0  0
    9.8011   11.2590   23.4492 N   0  0  0  0  0  0  0  0  0  0  0  0
    9.0468   10.2399   23.8904 N   0  0  0  0  0  0  0  0  0  0  0  0
    9.3405    8.9167   23.3890 C   0  0  0  0  0  0  0  0  0  0  0  0
    8.1067   10.6232   24.8206 C   0  0  0  0  0  0  0  0  0  0  0  0
    7.1505    9.9225   25.5617 C   0  0  0  0  0  0  0  0  0  0  0  0
    6.3136   10.6406   26.4204 C   0  0  0  0  0  0  0  0  0  0  0  0
    6.4307   12.0211   26.5312 C   0  0  0  0  0  0  0  0  0  0  0  0
    5.2837   12.9569   27.7068 Br  0  0  0  0  0  0  0  0  0  0  0  0
    7.3941   12.7200   25.8058 C   0  0  0  0  0  0  0  0  0  0  0  0
    8.2505   12.0003   24.9505 C   0  0  0  0  0  0  0  0  0  0  0  0
   10.6890   15.1734   19.1145 C   0  0  0  0  0  0  0  0  0  0  0  0
    9.6614   16.0570   18.9730 O   0  0  0  0  0  0  0  0  0  0  0  0
  1  2  1  0
  2  3  2  0
  3  4  1  0
  4  5  1  0
  5  6  1  0
  6  7  1  0
  7  8  1  0
  8  9  2  0
  8 10  1  0
 10 11  2  0
 11 12  1  0
 12 13  1  0
 12 14  1  0
 14 15  2  0
 15 16  1  0
 16 17  2  0
 17 18  1  0
 17 19  1  0
 19 20  2  0
  4 21  2  0
 21 22  1  0
 22  2  1  0
 20 10  1  0
 20 14  1  0
M  END
>  <energy_score>  (3696) 
-4.497751

>  <inchikey>  (3696) 
GRVBCAZAUPUKFZ-UHFFFAOYSA-N

>  <smiles>  (3696) 
Cc1nc(CCNC(=O)c2nn(C)c3ccc(Br)cc23)co1

>  <ref_pdb>  (3696) 
A0514a

>  <alias>  (3696) 
GRVBCAZAUPUKFZ-UHFFFAOYSA-N-P183-P126-P183-601502

>  <HIPPO Pose ID>  (3696) 
503385

>  <name>  (3696) 
GRVBCAZAUPUKFZ-UHFFFAOYSA-N-P183-P126-P183-601502

>  <HIPPO Compound ID>  (3696) 
289827

>  <ref_mols>  (3696) 
A2290a,A3436a

>  <distance_score>  (3696) 
0.529748

>  <inspiration_score>  (3696) 
None

$$$$
YIQBRUGGXMDKEY-UHFFFAOYSA-N-P126-P126-P183-601502
     RDKit          3D

 22 24  0  0  0  0  0  0  0  0999 V2000
   12.6518   15.0021   22.0695 C   0  0  0  0  0  0  0  0  0  0  0  0
   11.9093   13.9986   21.2434 C   0  0  2  0  0  0  0  0  0  0  0  0
   11.2873   14.5544   19.9637 C   0  0  0  0  0  0  0  0  0  0  0  0
   10.2349   15.5876   20.0238 C   0  0  0  0  0  0  0  0  0  0  0  0
    9.8724   16.4368   18.9993 C   0  0  0  0  0  0  0  0  0  0  0  0
    9.0096   17.3572   19.4878 O   0  0  0  0  0  0  0  0  0  0  0  0
    8.8531   16.9796   20.7807 C   0  0  0  0  0  0  0  0  0  0  0  0
    9.5213   15.9027   21.1422 N   0  0  0  0  0  0  0  0  0  0  0  0
   11.0697   13.1169   22.0114 N   0  0  0  0  0  0  0  0  0  0  0  0
   10.4630   13.2847   23.4139 C   0  0  0  0  0  0  0  0  0  0  0  0
   10.4818   14.1953   24.1417 O   0  0  0  0  0  0  0  0  0  0  0  0
    9.7576   12.0360   23.7491 C   0  0  0  0  0  0  0  0  0  0  0  0
   10.0473   10.9088   23.0796 N   0  0  0  0  0  0  0  0  0  0  0  0
    9.2806    9.9680   23.6389 N   0  0  0  0  0  0  0  0  0  0  0  0
    9.3570    8.6331   23.1000 C   0  0  0  0  0  0  0  0  0  0  0  0
    8.4605   10.4457   24.6310 C   0  0  0  0  0  0  0  0  0  0  0  0
    7.4993    9.8314   25.4406 C   0  0  0  0  0  0  0  0  0  0  0  0
    6.8048   10.6301   26.3528 C   0  0  0  0  0  0  0  0  0  0  0  0
    7.0718   11.9936   26.4484 C   0  0  0  0  0  0  0  0  0  0  0  0
    6.1188   13.0379   27.7048 Br  0  0  0  0  0  0  0  0  0  0  0  0
    8.0377   12.6025   25.6428 C   0  0  0  0  0  0  0  0  0  0  0  0
    8.7452   11.8084   24.7199 C   0  0  0  0  0  0  0  0  0  0  0  0
  2  1  1  1
  2  3  1  0
  3  4  1  0
  4  5  2  0
  5  6  1  0
  6  7  1  0
  7  8  2  0
  2  9  1  0
  9 10  1  0
 10 11  2  0
 10 12  1  0
 12 13  2  0
 13 14  1  0
 14 15  1  0
 14 16  1  0
 16 17  2  0
 17 18  1  0
 18 19  2  0
 19 20  1  0
 19 21  1  0
 21 22  2  0
  8  4  1  0
 22 12  1  0
 22 16  1  0
M  END
>  <energy_score>  (3697) 
-29.856525

>  <inchikey>  (3697) 
YIQBRUGGXMDKEY-UHFFFAOYSA-N

>  <smiles>  (3697) 
CC(Cc1cocn1)NC(=O)c1nn(C)c2ccc(Br)cc12

>  <ref_pdb>  (3697) 
A0514a

>  <alias>  (3697) 
YIQBRUGGXMDKEY-UHFFFAOYSA-N-P126-P126-P183-601502

>  <HIPPO Pose ID>  (3697) 
503386

>  <name>  (3697) 
YIQBRUGGXMDKEY-UHFFFAOYSA-N-P126-P126-P183-601502

>  <HIPPO Compound ID>  (3697) 
289828

>  <ref_mols>  (3697) 
A2290a,A3436a

>  <distance_score>  (3697) 
0.712228

>  <inspiration_score>  (3697) 
None

$$$$
YIQBRUGGXMDKEY-UHFFFAOYSA-N-P183-P126-P183-601502
     RDKit          3D

 22 24  0  0  0  0  0  0  0  0999 V2000
   12.4556   14.8400   23.0075 C   0  0  0  0  0  0  0  0  0  0  0  0
   11.9274   13.8751   21.9927 C   0  0  2  0  0  0  0  0  0  0  0  0
   11.8087   14.5058   20.6272 C   0  0  0  0  0  0  0  0  0  0  0  0
   10.6241   15.3305   20.3704 C   0  0  0  0  0  0  0  0  0  0  0  0
   10.1758   15.7016   19.1334 C   0  0  0  0  0  0  0  0  0  0  0  0
    9.2287   16.6538   19.2901 O   0  0  0  0  0  0  0  0  0  0  0  0
    9.1052   16.7667   20.6393 C   0  0  0  0  0  0  0  0  0  0  0  0
    9.9004   15.9803   21.3304 N   0  0  0  0  0  0  0  0  0  0  0  0
   10.8484   13.1177   22.5205 N   0  0  0  0  0  0  0  0  0  0  0  0
    9.9350   13.3883   23.7205 C   0  0  0  0  0  0  0  0  0  0  0  0
    9.8677   14.3130   24.4255 O   0  0  0  0  0  0  0  0  0  0  0  0
    9.1524   12.1802   23.9441 C   0  0  0  0  0  0  0  0  0  0  0  0
    9.5114   11.0388   23.3315 N   0  0  0  0  0  0  0  0  0  0  0  0
    8.8253   10.0921   23.9725 N   0  0  0  0  0  0  0  0  0  0  0  0
    9.1187    8.7210   23.6383 C   0  0  0  0  0  0  0  0  0  0  0  0
    7.9350   10.5935   24.8950 C   0  0  0  0  0  0  0  0  0  0  0  0
    6.9822    9.9982   25.7265 C   0  0  0  0  0  0  0  0  0  0  0  0
    6.2295   10.8207   26.5686 C   0  0  0  0  0  0  0  0  0  0  0  0
    6.4227   12.1977   26.5726 C   0  0  0  0  0  0  0  0  0  0  0  0
    5.3969   13.2741   27.7403 Br  0  0  0  0  0  0  0  0  0  0  0  0
    7.3621   12.7952   25.7335 C   0  0  0  0  0  0  0  0  0  0  0  0
    8.1170   11.9732   24.8772 C   0  0  0  0  0  0  0  0  0  0  0  0
  2  1  1  1
  2  3  1  0
  3  4  1  0
  4  5  2  0
  5  6  1  0
  6  7  1  0
  7  8  2  0
  2  9  1  0
  9 10  1  0
 10 11  2  0
 10 12  1  0
 12 13  2  0
 13 14  1  0
 14 15  1  0
 14 16  1  0
 16 17  2  0
 17 18  1  0
 18 19  2  0
 19 20  1  0
 19 21  1  0
 21 22  2  0
  8  4  1  0
 22 12  1  0
 22 16  1  0
M  END
>  <energy_score>  (3698) 
-26.324425

>  <inchikey>  (3698) 
YIQBRUGGXMDKEY-UHFFFAOYSA-N

>  <smiles>  (3698) 
CC(Cc1cocn1)NC(=O)c1nn(C)c2ccc(Br)cc12

>  <ref_pdb>  (3698) 
A0514a

>  <alias>  (3698) 
YIQBRUGGXMDKEY-UHFFFAOYSA-N-P183-P126-P183-601502

>  <HIPPO Pose ID>  (3698) 
503387

>  <name>  (3698) 
YIQBRUGGXMDKEY-UHFFFAOYSA-N-P183-P126-P183-601502

>  <HIPPO Compound ID>  (3698) 
289828

>  <ref_mols>  (3698) 
A2290a,A3436a

>  <distance_score>  (3698) 
0.586429

>  <inspiration_score>  (3698) 
None

$$$$
YVHPJRWUHCQUON-UHFFFAOYSA-N-P126-P126-P183-601502
     RDKit          3D

 23 25  0  0  0  0  0  0  0  0999 V2000
    8.6064   17.3308   20.7294 C   0  0  0  0  0  0  0  0  0  0  0  0
    9.5699   16.2259   20.5953 C   0  0  0  0  0  0  0  0  0  0  0  0
   10.2318   15.6045   21.5511 N   0  0  0  0  0  0  0  0  0  0  0  0
   11.1569   14.8638   20.8853 C   0  0  0  0  0  0  0  0  0  0  0  0
   12.3455   14.2550   21.5139 C   0  0  0  0  0  0  0  0  0  0  0  0
   12.2556   14.1355   23.0086 C   0  0  0  0  0  0  0  0  0  0  0  0
   11.2608   13.2163   23.4340 N   0  0  0  0  0  0  0  0  0  0  0  0
   10.2519   13.3047   24.5734 C   0  0  0  0  0  0  0  0  0  0  0  0
   10.1174   14.1105   25.4016 O   0  0  0  0  0  0  0  0  0  0  0  0
    9.4433   12.0861   24.5195 C   0  0  0  0  0  0  0  0  0  0  0  0
    9.8031   11.0589   23.7254 N   0  0  0  0  0  0  0  0  0  0  0  0
    8.9696   10.0713   24.0763 N   0  0  0  0  0  0  0  0  0  0  0  0
    9.2057    8.7503   23.5507 C   0  0  0  0  0  0  0  0  0  0  0  0
    8.0340   10.4485   25.0093 C   0  0  0  0  0  0  0  0  0  0  0  0
    7.0043    9.7613   25.6519 C   0  0  0  0  0  0  0  0  0  0  0  0
    6.2216   10.4594   26.5741 C   0  0  0  0  0  0  0  0  0  0  0  0
    6.4626   11.8038   26.8374 C   0  0  0  0  0  0  0  0  0  0  0  0
    5.3758   12.7122   28.0904 Br  0  0  0  0  0  0  0  0  0  0  0  0
    7.5008   12.4856   26.2066 C   0  0  0  0  0  0  0  0  0  0  0  0
    8.2970   11.7850   25.2836 C   0  0  0  0  0  0  0  0  0  0  0  0
   10.9244   14.9610   19.5431 C   0  0  0  0  0  0  0  0  0  0  0  0
   11.7078   14.4801   18.4173 C   0  0  0  0  0  0  0  0  0  0  0  0
    9.8896   15.8194   19.3322 O   0  0  0  0  0  0  0  0  0  0  0  0
  1  2  1  0
  2  3  2  0
  3  4  1  0
  4  5  1  0
  5  6  1  0
  6  7  1  0
  7  8  1  0
  8  9  2  0
  8 10  1  0
 10 11  2  0
 11 12  1  0
 12 13  1  0
 12 14  1  0
 14 15  2  0
 15 16  1  0
 16 17  2  0
 17 18  1  0
 17 19  1  0
 19 20  2  0
  4 21  2  0
 21 22  1  0
 21 23  1  0
 23  2  1  0
 20 10  1  0
 20 14  1  0
M  END
>  <energy_score>  (3699) 
-1.797705

>  <inchikey>  (3699) 
YVHPJRWUHCQUON-UHFFFAOYSA-N

>  <smiles>  (3699) 
Cc1nc(CCNC(=O)c2nn(C)c3ccc(Br)cc23)c(C)o1

>  <ref_pdb>  (3699) 
A0514a

>  <alias>  (3699) 
YVHPJRWUHCQUON-UHFFFAOYSA-N-P126-P126-P183-601502

>  <HIPPO Pose ID>  (3699) 
503388

>  <name>  (3699) 
YVHPJRWUHCQUON-UHFFFAOYSA-N-P126-P126-P183-601502

>  <HIPPO Compound ID>  (3699) 
289829

>  <ref_mols>  (3699) 
A2290a,A3436a

>  <distance_score>  (3699) 
0.753264

>  <inspiration_score>  (3699) 
None

$$$$
YVHPJRWUHCQUON-UHFFFAOYSA-N-P183-P126-P183-601502
     RDKit          3D

 23 25  0  0  0  0  0  0  0  0999 V2000
    8.4048   17.5271   20.6636 C   0  0  0  0  0  0  0  0  0  0  0  0
    9.4443   16.5197   20.5061 C   0  0  0  0  0  0  0  0  0  0  0  0
   10.1504   15.9518   21.4545 N   0  0  0  0  0  0  0  0  0  0  0  0
   11.0571   15.2033   20.7789 C   0  0  0  0  0  0  0  0  0  0  0  0
   12.2269   14.5961   21.4341 C   0  0  0  0  0  0  0  0  0  0  0  0
   12.0873   14.4831   22.9339 C   0  0  0  0  0  0  0  0  0  0  0  0
   11.1030   13.5224   23.3024 N   0  0  0  0  0  0  0  0  0  0  0  0
   10.0173   13.5761   24.3695 C   0  0  0  0  0  0  0  0  0  0  0  0
    9.7931   14.3813   25.1774 O   0  0  0  0  0  0  0  0  0  0  0  0
    9.2781   12.3140   24.3043 C   0  0  0  0  0  0  0  0  0  0  0  0
    9.7270   11.2839   23.5626 N   0  0  0  0  0  0  0  0  0  0  0  0
    8.9810   10.2417   23.9616 N   0  0  0  0  0  0  0  0  0  0  0  0
    9.3082    8.9367   23.4324 C   0  0  0  0  0  0  0  0  0  0  0  0
    8.0230   10.5877   24.8888 C   0  0  0  0  0  0  0  0  0  0  0  0
    7.0693    9.8565   25.5999 C   0  0  0  0  0  0  0  0  0  0  0  0
    6.2153   10.5376   26.4719 C   0  0  0  0  0  0  0  0  0  0  0  0
    6.3080   11.9158   26.6203 C   0  0  0  0  0  0  0  0  0  0  0  0
    5.1362   12.8018   27.8098 Br  0  0  0  0  0  0  0  0  0  0  0  0
    7.2646   12.6475   25.9212 C   0  0  0  0  0  0  0  0  0  0  0  0
    8.1388   11.9624   25.0562 C   0  0  0  0  0  0  0  0  0  0  0  0
   10.7845   15.2674   19.4398 C   0  0  0  0  0  0  0  0  0  0  0  0
   11.4748   14.7474   18.2769 C   0  0  0  0  0  0  0  0  0  0  0  0
    9.7349   16.1058   19.2427 O   0  0  0  0  0  0  0  0  0  0  0  0
  1  2  1  0
  2  3  2  0
  3  4  1  0
  4  5  1  0
  5  6  1  0
  6  7  1  0
  7  8  1  0
  8  9  2  0
  8 10  1  0
 10 11  2  0
 11 12  1  0
 12 13  1  0
 12 14  1  0
 14 15  2  0
 15 16  1  0
 16 17  2  0
 17 18  1  0
 17 19  1  0
 19 20  2  0
  4 21  2  0
 21 22  1  0
 21 23  1  0
 23  2  1  0
 20 10  1  0
 20 14  1  0
M  END
>  <energy_score>  (3700) 
-2.570981

>  <inchikey>  (3700) 
YVHPJRWUHCQUON-UHFFFAOYSA-N

>  <smiles>  (3700) 
Cc1nc(CCNC(=O)c2nn(C)c3ccc(Br)cc23)c(C)o1

>  <ref_pdb>  (3700) 
A0514a

>  <alias>  (3700) 
YVHPJRWUHCQUON-UHFFFAOYSA-N-P183-P126-P183-601502

>  <HIPPO Pose ID>  (3700) 
503389

>  <name>  (3700) 
YVHPJRWUHCQUON-UHFFFAOYSA-N-P183-P126-P183-601502

>  <HIPPO Compound ID>  (3700) 
289829

>  <ref_mols>  (3700) 
A2290a,A3436a

>  <distance_score>  (3700) 
0.67174

>  <inspiration_score>  (3700) 
None

$$$$
MRIKHPOGYPLZKJ-UHFFFAOYSA-N-P126-P126-P183-601502
     RDKit          3D

 23 25  0  0  0  0  0  0  0  0999 V2000
    8.6051   17.3225   20.7352 C   0  0  0  0  0  0  0  0  0  0  0  0
    9.5706   16.2196   20.5968 C   0  0  0  0  0  0  0  0  0  0  0  0
   10.2419   15.6024   21.5492 N   0  0  0  0  0  0  0  0  0  0  0  0
   11.1674   14.8682   20.8777 C   0  0  0  0  0  0  0  0  0  0  0  0
   12.3705   14.2762   21.4933 C   0  0  0  0  0  0  0  0  0  0  0  0
   12.3028   14.1661   22.9890 C   0  0  0  0  0  0  0  0  0  0  0  0
   11.3508   13.2118   23.4320 N   0  0  0  0  0  0  0  0  0  0  0  0
   10.3365   13.2775   24.5680 C   0  0  0  0  0  0  0  0  0  0  0  0
   10.1633   14.0932   25.3789 O   0  0  0  0  0  0  0  0  0  0  0  0
    9.5445   12.0497   24.4918 C   0  0  0  0  0  0  0  0  0  0  0  0
    9.9135   11.0512   23.6672 N   0  0  0  0  0  0  0  0  0  0  0  0
    9.0672   10.0543   23.9550 N   0  0  0  0  0  0  0  0  0  0  0  0
    9.2355    8.8086   23.2472 C   0  0  0  0  0  0  0  0  0  0  0  0
    8.1456   10.3865   24.9193 C   0  0  0  0  0  0  0  0  0  0  0  0
    7.1203    9.6766   25.5441 C   0  0  0  0  0  0  0  0  0  0  0  0
    6.3327   10.3418   26.4868 C   0  0  0  0  0  0  0  0  0  0  0  0
    6.5678   11.6745   26.7891 C   0  0  0  0  0  0  0  0  0  0  0  0
    5.8035   12.2801   27.7080 F   0  0  0  0  0  0  0  0  0  0  0  0
    7.5978   12.3829   26.1845 C   0  0  0  0  0  0  0  0  0  0  0  0
    8.4006   11.7163   25.2427 C   0  0  0  0  0  0  0  0  0  0  0  0
   10.9245   14.9603   19.5374 C   0  0  0  0  0  0  0  0  0  0  0  0
   11.7064   14.4816   18.4101 C   0  0  0  0  0  0  0  0  0  0  0  0
    9.8844   15.8130   19.3316 O   0  0  0  0  0  0  0  0  0  0  0  0
  1  2  1  0
  2  3  2  0
  3  4  1  0
  4  5  1  0
  5  6  1  0
  6  7  1  0
  7  8  1  0
  8  9  2  0
  8 10  1  0
 10 11  2  0
 11 12  1  0
 12 13  1  0
 12 14  1  0
 14 15  2  0
 15 16  1  0
 16 17  2  0
 17 18  1  0
 17 19  1  0
 19 20  2  0
  4 21  2  0
 21 22  1  0
 21 23  1  0
 23  2  1  0
 20 10  1  0
 20 14  1  0
M  END
>  <energy_score>  (3701) 
-3.55348

>  <inchikey>  (3701) 
MRIKHPOGYPLZKJ-UHFFFAOYSA-N

>  <smiles>  (3701) 
Cc1nc(CCNC(=O)c2nn(C)c3ccc(F)cc23)c(C)o1

>  <ref_pdb>  (3701) 
A0514a

>  <alias>  (3701) 
MRIKHPOGYPLZKJ-UHFFFAOYSA-N-P126-P126-P183-601502

>  <HIPPO Pose ID>  (3701) 
503390

>  <name>  (3701) 
MRIKHPOGYPLZKJ-UHFFFAOYSA-N-P126-P126-P183-601502

>  <HIPPO Compound ID>  (3701) 
289830

>  <ref_mols>  (3701) 
A2290a,A3436a

>  <distance_score>  (3701) 
0.714784

>  <inspiration_score>  (3701) 
None

$$$$
MRIKHPOGYPLZKJ-UHFFFAOYSA-N-P183-P126-P183-601502
     RDKit          3D

 23 25  0  0  0  0  0  0  0  0999 V2000
    8.4046   17.5212   20.6715 C   0  0  0  0  0  0  0  0  0  0  0  0
    9.4422   16.5119   20.5119 C   0  0  0  0  0  0  0  0  0  0  0  0
   10.1453   15.9376   21.4589 N   0  0  0  0  0  0  0  0  0  0  0  0
   11.0553   15.1952   20.7812 C   0  0  0  0  0  0  0  0  0  0  0  0
   12.2238   14.5859   21.4364 C   0  0  0  0  0  0  0  0  0  0  0  0
   12.0841   14.4717   22.9361 C   0  0  0  0  0  0  0  0  0  0  0  0
   11.0926   13.5186   23.3074 N   0  0  0  0  0  0  0  0  0  0  0  0
   10.0135   13.5791   24.3805 C   0  0  0  0  0  0  0  0  0  0  0  0
    9.8011   14.3839   25.1918 O   0  0  0  0  0  0  0  0  0  0  0  0
    9.2596   12.3246   24.3190 C   0  0  0  0  0  0  0  0  0  0  0  0
    9.6925   11.2833   23.5814 N   0  0  0  0  0  0  0  0  0  0  0  0
    8.9416   10.2529   24.0030 N   0  0  0  0  0  0  0  0  0  0  0  0
    9.2760    8.9344   23.5168 C   0  0  0  0  0  0  0  0  0  0  0  0
    7.9848   10.6169   24.9235 C   0  0  0  0  0  0  0  0  0  0  0  0
    7.0199    9.9021   25.6399 C   0  0  0  0  0  0  0  0  0  0  0  0
    6.1810   10.6034   26.5092 C   0  0  0  0  0  0  0  0  0  0  0  0
    6.2989   11.9773   26.6460 C   0  0  0  0  0  0  0  0  0  0  0  0
    5.4914   12.6194   27.5006 F   0  0  0  0  0  0  0  0  0  0  0  0
    7.2573   12.6939   25.9413 C   0  0  0  0  0  0  0  0  0  0  0  0
    8.1182   11.9924   25.0778 C   0  0  0  0  0  0  0  0  0  0  0  0
   10.7854   15.2657   19.4420 C   0  0  0  0  0  0  0  0  0  0  0  0
   11.4779   14.7529   18.2773 C   0  0  0  0  0  0  0  0  0  0  0  0
    9.7351   16.1035   19.2471 O   0  0  0  0  0  0  0  0  0  0  0  0
  1  2  1  0
  2  3  2  0
  3  4  1  0
  4  5  1  0
  5  6  1  0
  6  7  1  0
  7  8  1  0
  8  9  2  0
  8 10  1  0
 10 11  2  0
 11 12  1  0
 12 13  1  0
 12 14  1  0
 14 15  2  0
 15 16  1  0
 16 17  2  0
 17 18  1  0
 17 19  1  0
 19 20  2  0
  4 21  2  0
 21 22  1  0
 21 23  1  0
 23  2  1  0
 20 10  1  0
 20 14  1  0
M  END
>  <energy_score>  (3702) 
-4.695939

>  <inchikey>  (3702) 
MRIKHPOGYPLZKJ-UHFFFAOYSA-N

>  <smiles>  (3702) 
Cc1nc(CCNC(=O)c2nn(C)c3ccc(F)cc23)c(C)o1

>  <ref_pdb>  (3702) 
A0514a

>  <alias>  (3702) 
MRIKHPOGYPLZKJ-UHFFFAOYSA-N-P183-P126-P183-601502

>  <HIPPO Pose ID>  (3702) 
503391

>  <name>  (3702) 
MRIKHPOGYPLZKJ-UHFFFAOYSA-N-P183-P126-P183-601502

>  <HIPPO Compound ID>  (3702) 
289830

>  <ref_mols>  (3702) 
A2290a,A3436a

>  <distance_score>  (3702) 
0.689301

>  <inspiration_score>  (3702) 
None

$$$$
QZNFHAMVIOJLEH-UHFFFAOYSA-N-P126-P126-P183-601502
     RDKit          3D

 24 26  0  0  0  0  0  0  0  0999 V2000
   11.6858   14.5192   18.4373 C   0  0  0  0  0  0  0  0  0  0  0  0
   10.8916   14.9569   19.5756 C   0  0  0  0  0  0  0  0  0  0  0  0
    9.7820   15.7220   19.3905 O   0  0  0  0  0  0  0  0  0  0  0  0
    9.4131   16.0342   20.6621 C   0  0  0  0  0  0  0  0  0  0  0  0
   10.1456   15.4805   21.6039 N   0  0  0  0  0  0  0  0  0  0  0  0
   11.1389   14.8538   20.9145 C   0  0  0  0  0  0  0  0  0  0  0  0
   12.3658   14.2941   21.5138 C   0  0  0  0  0  0  0  0  0  0  0  0
   12.3135   14.1638   23.0081 C   0  0  0  0  0  0  0  0  0  0  0  0
   11.3689   13.2020   23.4483 N   0  0  0  0  0  0  0  0  0  0  0  0
   10.3380   13.2665   24.5686 C   0  0  0  0  0  0  0  0  0  0  0  0
   10.1422   14.0887   25.3673 O   0  0  0  0  0  0  0  0  0  0  0  0
    9.5541   12.0351   24.4887 C   0  0  0  0  0  0  0  0  0  0  0  0
    9.9417   11.0321   23.6796 N   0  0  0  0  0  0  0  0  0  0  0  0
    9.0880   10.0374   23.9509 N   0  0  0  0  0  0  0  0  0  0  0  0
    9.2540    8.7962   23.2334 C   0  0  0  0  0  0  0  0  0  0  0  0
    8.1508   10.3737   24.9002 C   0  0  0  0  0  0  0  0  0  0  0  0
    7.1191    9.6614   25.5098 C   0  0  0  0  0  0  0  0  0  0  0  0
    6.2873   10.3299   26.4110 C   0  0  0  0  0  0  0  0  0  0  0  0
    6.5002   11.6797   26.6960 C   0  0  0  0  0  0  0  0  0  0  0  0
    5.6121   12.3568   27.6398 N   0  0  0  0  0  0  0  0  0  0  0  0
    6.0776   13.3106   28.2791 O   0  0  0  0  0  0  0  0  0  0  0  0
    4.4631   11.9085   27.7711 O   0  0  0  0  0  0  0  0  0  0  0  0
    7.5612   12.3879   26.1234 C   0  0  0  0  0  0  0  0  0  0  0  0
    8.3925   11.7074   25.2149 C   0  0  0  0  0  0  0  0  0  0  0  0
  1  2  1  0
  2  3  1  0
  3  4  1  0
  4  5  2  0
  5  6  1  0
  6  7  1  0
  7  8  1  0
  8  9  1  0
  9 10  1  0
 10 11  2  0
 10 12  1  0
 12 13  2  0
 13 14  1  0
 14 15  1  0
 14 16  1  0
 16 17  2  0
 17 18  1  0
 18 19  2  0
 19 20  1  0
 20 21  2  0
 20 22  1  0
 19 23  1  0
 23 24  2  0
  6  2  2  0
 24 12  1  0
 24 16  1  0
M  CHG  2  20   1  22  -1
M  END
>  <energy_score>  (3703) 
-17.033888

>  <inchikey>  (3703) 
QZNFHAMVIOJLEH-UHFFFAOYSA-N

>  <smiles>  (3703) 
Cc1ocnc1CCNC(=O)c1nn(C)c2ccc([N+](=O)[O-])cc12

>  <ref_pdb>  (3703) 
A0514a

>  <alias>  (3703) 
QZNFHAMVIOJLEH-UHFFFAOYSA-N-P126-P126-P183-601502

>  <HIPPO Pose ID>  (3703) 
503392

>  <name>  (3703) 
QZNFHAMVIOJLEH-UHFFFAOYSA-N-P126-P126-P183-601502

>  <HIPPO Compound ID>  (3703) 
289831

>  <ref_mols>  (3703) 
A2290a,A3436a

>  <distance_score>  (3703) 
0.735842

>  <inspiration_score>  (3703) 
None

$$$$
QZNFHAMVIOJLEH-UHFFFAOYSA-N-P183-P126-P183-601502
     RDKit          3D

 24 26  0  0  0  0  0  0  0  0999 V2000
   11.3876   14.8373   18.3323 C   0  0  0  0  0  0  0  0  0  0  0  0
   10.6476   15.3303   19.4850 C   0  0  0  0  0  0  0  0  0  0  0  0
    9.5384   16.0931   19.2886 O   0  0  0  0  0  0  0  0  0  0  0  0
    9.1698   16.4387   20.5543 C   0  0  0  0  0  0  0  0  0  0  0  0
    9.9167   15.9232   21.5036 N   0  0  0  0  0  0  0  0  0  0  0  0
   10.9065   15.2693   20.8273 C   0  0  0  0  0  0  0  0  0  0  0  0
   12.1208   14.7079   21.4579 C   0  0  0  0  0  0  0  0  0  0  0  0
   12.0268   14.5534   22.9540 C   0  0  0  0  0  0  0  0  0  0  0  0
   11.0667   13.5705   23.3244 N   0  0  0  0  0  0  0  0  0  0  0  0
    9.9908   13.5942   24.4007 C   0  0  0  0  0  0  0  0  0  0  0  0
    9.7573   14.3887   25.2160 O   0  0  0  0  0  0  0  0  0  0  0  0
    9.2681   12.3241   24.3294 C   0  0  0  0  0  0  0  0  0  0  0  0
    9.7286   11.2987   23.5894 N   0  0  0  0  0  0  0  0  0  0  0  0
    8.9792   10.2533   23.9734 N   0  0  0  0  0  0  0  0  0  0  0  0
    9.3060    8.9537   23.4309 C   0  0  0  0  0  0  0  0  0  0  0  0
    8.0146   10.5914   24.8977 C   0  0  0  0  0  0  0  0  0  0  0  0
    7.0580    9.8504   25.5956 C   0  0  0  0  0  0  0  0  0  0  0  0
    6.1780   10.5222   26.4478 C   0  0  0  0  0  0  0  0  0  0  0  0
    6.2578   11.9080   26.5894 C   0  0  0  0  0  0  0  0  0  0  0  0
    5.3171   12.5899   27.4782 N   0  0  0  0  0  0  0  0  0  0  0  0
    5.6748   13.6675   27.9732 O   0  0  0  0  0  0  0  0  0  0  0  0
    4.2389   12.0248   27.7172 O   0  0  0  0  0  0  0  0  0  0  0  0
    7.2330   12.6519   25.9185 C   0  0  0  0  0  0  0  0  0  0  0  0
    8.1224   11.9666   25.0689 C   0  0  0  0  0  0  0  0  0  0  0  0
  1  2  1  0
  2  3  1  0
  3  4  1  0
  4  5  2  0
  5  6  1  0
  6  7  1  0
  7  8  1  0
  8  9  1  0
  9 10  1  0
 10 11  2  0
 10 12  1  0
 12 13  2  0
 13 14  1  0
 14 15  1  0
 14 16  1  0
 16 17  2  0
 17 18  1  0
 18 19  2  0
 19 20  1  0
 20 21  2  0
 20 22  1  0
 19 23  1  0
 23 24  2  0
  6  2  2  0
 24 12  1  0
 24 16  1  0
M  CHG  2  20   1  22  -1
M  END
>  <energy_score>  (3704) 
-18.251645

>  <inchikey>  (3704) 
QZNFHAMVIOJLEH-UHFFFAOYSA-N

>  <smiles>  (3704) 
Cc1ocnc1CCNC(=O)c1nn(C)c2ccc([N+](=O)[O-])cc12

>  <ref_pdb>  (3704) 
A0514a

>  <alias>  (3704) 
QZNFHAMVIOJLEH-UHFFFAOYSA-N-P183-P126-P183-601502

>  <HIPPO Pose ID>  (3704) 
503393

>  <name>  (3704) 
QZNFHAMVIOJLEH-UHFFFAOYSA-N-P183-P126-P183-601502

>  <HIPPO Compound ID>  (3704) 
289831

>  <ref_mols>  (3704) 
A2290a,A3436a

>  <distance_score>  (3704) 
0.70458

>  <inspiration_score>  (3704) 
None

$$$$
NQAJYEHWEJRFCO-UHFFFAOYSA-N-P126-P126-P183-601502
     RDKit          3D

 24 26  0  0  0  0  0  0  0  0999 V2000
   12.7994   14.3344   21.8273 C   0  0  0  0  0  0  0  0  0  0  0  0
   11.3194   14.6078   21.7940 C   0  0  1  0  0  0  0  0  0  0  0  0
   10.8282   14.6920   20.3458 C   0  0  0  0  0  0  0  0  0  0  0  0
    9.9514   15.8486   20.0631 C   0  0  0  0  0  0  0  0  0  0  0  0
    9.8247   16.5748   18.9024 C   0  0  0  0  0  0  0  0  0  0  0  0
    9.0036   17.6287   19.1420 O   0  0  0  0  0  0  0  0  0  0  0  0
    8.6843   17.4890   20.4563 C   0  0  0  0  0  0  0  0  0  0  0  0
    9.1570   16.4031   21.0264 N   0  0  0  0  0  0  0  0  0  0  0  0
   10.6593   13.5254   22.4858 N   0  0  0  0  0  0  0  0  0  0  0  0
   10.2094   13.4043   23.9420 C   0  0  0  0  0  0  0  0  0  0  0  0
   10.2270   14.1847   24.8049 O   0  0  0  0  0  0  0  0  0  0  0  0
    9.6029   12.0831   24.1106 C   0  0  0  0  0  0  0  0  0  0  0  0
    9.9619   11.0473   23.3333 N   0  0  0  0  0  0  0  0  0  0  0  0
    9.2248   10.0228   23.7857 N   0  0  0  0  0  0  0  0  0  0  0  0
    9.3893    8.7375   23.1517 C   0  0  0  0  0  0  0  0  0  0  0  0
    8.3325   10.3823   24.7679 C   0  0  0  0  0  0  0  0  0  0  0  0
    7.3545    9.6701   25.4650 C   0  0  0  0  0  0  0  0  0  0  0  0
    6.5522   10.3618   26.3753 C   0  0  0  0  0  0  0  0  0  0  0  0
    6.7472   11.7289   26.5844 C   0  0  0  0  0  0  0  0  0  0  0  0
    5.8892   12.4308   27.5360 N   0  0  0  0  0  0  0  0  0  0  0  0
    4.7385   11.9977   27.6966 O   0  0  0  0  0  0  0  0  0  0  0  0
    6.3820   13.3889   28.1471 O   0  0  0  0  0  0  0  0  0  0  0  0
    7.7526   12.4385   25.9164 C   0  0  0  0  0  0  0  0  0  0  0  0
    8.5505   11.7381   24.9915 C   0  0  0  0  0  0  0  0  0  0  0  0
  2  1  1  6
  2  3  1  0
  3  4  1  0
  4  5  2  0
  5  6  1  0
  6  7  1  0
  7  8  2  0
  2  9  1  0
  9 10  1  0
 10 11  2  0
 10 12  1  0
 12 13  2  0
 13 14  1  0
 14 15  1  0
 14 16  1  0
 16 17  2  0
 17 18  1  0
 18 19  2  0
 19 20  1  0
 20 21  2  0
 20 22  1  0
 19 23  1  0
 23 24  2  0
  8  4  1  0
 24 12  1  0
 24 16  1  0
M  CHG  2  20   1  22  -1
M  END
>  <energy_score>  (3705) 
-19.080406

>  <inchikey>  (3705) 
NQAJYEHWEJRFCO-UHFFFAOYSA-N

>  <smiles>  (3705) 
CC(Cc1cocn1)NC(=O)c1nn(C)c2ccc([N+](=O)[O-])cc12

>  <ref_pdb>  (3705) 
A0514a

>  <alias>  (3705) 
NQAJYEHWEJRFCO-UHFFFAOYSA-N-P126-P126-P183-601502

>  <HIPPO Pose ID>  (3705) 
503394

>  <name>  (3705) 
NQAJYEHWEJRFCO-UHFFFAOYSA-N-P126-P126-P183-601502

>  <HIPPO Compound ID>  (3705) 
289832

>  <ref_mols>  (3705) 
A2290a,A3436a

>  <distance_score>  (3705) 
0.844177

>  <inspiration_score>  (3705) 
None

$$$$
NQAJYEHWEJRFCO-UHFFFAOYSA-N-P183-P126-P183-601502
     RDKit          3D

 24 26  0  0  0  0  0  0  0  0999 V2000
   12.6762   14.0481   23.5750 C   0  0  0  0  0  0  0  0  0  0  0  0
   11.5129   14.5328   22.7517 C   0  0  1  0  0  0  0  0  0  0  0  0
   11.8368   14.6108   21.2664 C   0  0  0  0  0  0  0  0  0  0  0  0
   10.7650   15.2837   20.5005 C   0  0  0  0  0  0  0  0  0  0  0  0
   10.5384   15.3036   19.1476 C   0  0  0  0  0  0  0  0  0  0  0  0
    9.5431   16.2005   18.9045 O   0  0  0  0  0  0  0  0  0  0  0  0
    9.2245   16.6897   20.1341 C   0  0  0  0  0  0  0  0  0  0  0  0
    9.8889   16.1418   21.1193 N   0  0  0  0  0  0  0  0  0  0  0  0
   10.4970   13.6086   23.1067 N   0  0  0  0  0  0  0  0  0  0  0  0
    9.5014   13.6285   24.2518 C   0  0  0  0  0  0  0  0  0  0  0  0
    9.2919   14.4408   25.0537 O   0  0  0  0  0  0  0  0  0  0  0  0
    8.8486   12.3309   24.2716 C   0  0  0  0  0  0  0  0  0  0  0  0
    9.3292   11.3032   23.5450 N   0  0  0  0  0  0  0  0  0  0  0  0
    8.7361   10.2293   24.0809 N   0  0  0  0  0  0  0  0  0  0  0  0
    9.1794    8.9254   23.6437 C   0  0  0  0  0  0  0  0  0  0  0  0
    7.7777   10.5553   25.0156 C   0  0  0  0  0  0  0  0  0  0  0  0
    6.8642    9.7998   25.7482 C   0  0  0  0  0  0  0  0  0  0  0  0
    6.0091   10.4532   26.6378 C   0  0  0  0  0  0  0  0  0  0  0  0
    6.0702   11.8392   26.7795 C   0  0  0  0  0  0  0  0  0  0  0  0
    5.1574   12.4997   27.7091 N   0  0  0  0  0  0  0  0  0  0  0  0
    4.0638   11.9535   27.9193 O   0  0  0  0  0  0  0  0  0  0  0  0
    5.5510   13.5390   28.2546 O   0  0  0  0  0  0  0  0  0  0  0  0
    6.9810   12.6054   26.0510 C   0  0  0  0  0  0  0  0  0  0  0  0
    7.8216   11.9372   25.1423 C   0  0  0  0  0  0  0  0  0  0  0  0
  2  1  1  1
  2  3  1  0
  3  4  1  0
  4  5  2  0
  5  6  1  0
  6  7  1  0
  7  8  2  0
  2  9  1  0
  9 10  1  0
 10 11  2  0
 10 12  1  0
 12 13  2  0
 13 14  1  0
 14 15  1  0
 14 16  1  0
 16 17  2  0
 17 18  1  0
 18 19  2  0
 19 20  1  0
 20 21  2  0
 20 22  1  0
 19 23  1  0
 23 24  2  0
  8  4  1  0
 24 12  1  0
 24 16  1  0
M  CHG  2  20   1  22  -1
M  END
>  <energy_score>  (3706) 
-18.536092

>  <inchikey>  (3706) 
NQAJYEHWEJRFCO-UHFFFAOYSA-N

>  <smiles>  (3706) 
CC(Cc1cocn1)NC(=O)c1nn(C)c2ccc([N+](=O)[O-])cc12

>  <ref_pdb>  (3706) 
A0514a

>  <alias>  (3706) 
NQAJYEHWEJRFCO-UHFFFAOYSA-N-P183-P126-P183-601502

>  <HIPPO Pose ID>  (3706) 
503395

>  <name>  (3706) 
NQAJYEHWEJRFCO-UHFFFAOYSA-N-P183-P126-P183-601502

>  <HIPPO Compound ID>  (3706) 
289832

>  <ref_mols>  (3706) 
A2290a,A3436a

>  <distance_score>  (3706) 
0.843225

>  <inspiration_score>  (3706) 
None

$$$$
IMTOCZSSUZGMII-UHFFFAOYSA-N-P126-P126-P183-601502
     RDKit          3D

 24 26  0  0  0  0  0  0  0  0999 V2000
    8.5934   17.3963   20.7067 C   0  0  0  0  0  0  0  0  0  0  0  0
    9.5652   16.3161   20.4736 C   0  0  0  0  0  0  0  0  0  0  0  0
   10.3430   15.7207   21.3500 N   0  0  0  0  0  0  0  0  0  0  0  0
   11.1654   14.9348   20.5912 C   0  0  0  0  0  0  0  0  0  0  0  0
   12.3928   14.3341   21.1524 C   0  0  0  0  0  0  0  0  0  0  0  0
   12.3482   14.1922   22.6570 C   0  0  0  0  0  0  0  0  0  0  0  0
   11.3627   13.2607   23.0967 N   0  0  0  0  0  0  0  0  0  0  0  0
   10.4797   13.2636   24.3428 C   0  0  0  0  0  0  0  0  0  0  0  0
   10.3554   14.0644   25.1781 O   0  0  0  0  0  0  0  0  0  0  0  0
    9.6912   12.0284   24.3232 C   0  0  0  0  0  0  0  0  0  0  0  0
   10.0473   11.0029   23.5296 N   0  0  0  0  0  0  0  0  0  0  0  0
    9.1961   10.0190   23.8535 N   0  0  0  0  0  0  0  0  0  0  0  0
    9.3316    8.7544   23.1709 C   0  0  0  0  0  0  0  0  0  0  0  0
    8.2787   10.3866   24.8101 C   0  0  0  0  0  0  0  0  0  0  0  0
    7.2505    9.6940   25.4523 C   0  0  0  0  0  0  0  0  0  0  0  0
    6.4372   10.3916   26.3481 C   0  0  0  0  0  0  0  0  0  0  0  0
    6.6674   11.7462   26.5975 C   0  0  0  0  0  0  0  0  0  0  0  0
    5.7998   12.4541   27.5380 N   0  0  0  0  0  0  0  0  0  0  0  0
    4.6519   12.0152   27.7048 O   0  0  0  0  0  0  0  0  0  0  0  0
    6.2818   13.4233   28.1412 O   0  0  0  0  0  0  0  0  0  0  0  0
    7.7278   12.4320   25.9928 C   0  0  0  0  0  0  0  0  0  0  0  0
    8.5416   11.7249   25.0874 C   0  0  0  0  0  0  0  0  0  0  0  0
   10.7601   14.9924   19.2841 C   0  0  0  0  0  0  0  0  0  0  0  0
    9.7271   15.8743   19.1939 O   0  0  0  0  0  0  0  0  0  0  0  0
  1  2  1  0
  2  3  2  0
  3  4  1  0
  4  5  1  0
  5  6  1  0
  6  7  1  0
  7  8  1  0
  8  9  2  0
  8 10  1  0
 10 11  2  0
 11 12  1  0
 12 13  1  0
 12 14  1  0
 14 15  2  0
 15 16  1  0
 16 17  2  0
 17 18  1  0
 18 19  2  0
 18 20  1  0
 17 21  1  0
 21 22  2  0
  4 23  2  0
 23 24  1  0
 24  2  1  0
 22 10  1  0
 22 14  1  0
M  CHG  2  18   1  20  -1
M  END
>  <energy_score>  (3707) 
-22.64931

>  <inchikey>  (3707) 
IMTOCZSSUZGMII-UHFFFAOYSA-N

>  <smiles>  (3707) 
Cc1nc(CCNC(=O)c2nn(C)c3ccc([N+](=O)[O-])cc23)co1

>  <ref_pdb>  (3707) 
A0514a

>  <alias>  (3707) 
IMTOCZSSUZGMII-UHFFFAOYSA-N-P126-P126-P183-601502

>  <HIPPO Pose ID>  (3707) 
503396

>  <name>  (3707) 
IMTOCZSSUZGMII-UHFFFAOYSA-N-P126-P126-P183-601502

>  <HIPPO Compound ID>  (3707) 
289833

>  <ref_mols>  (3707) 
A2290a,A3436a

>  <distance_score>  (3707) 
0.529264

>  <inspiration_score>  (3707) 
None

$$$$
IMTOCZSSUZGMII-UHFFFAOYSA-N-P183-P126-P183-601502
     RDKit          3D

 24 26  0  0  0  0  0  0  0  0999 V2000
    8.4750   17.5808   20.4477 C   0  0  0  0  0  0  0  0  0  0  0  0
    9.4873   16.5468   20.2400 C   0  0  0  0  0  0  0  0  0  0  0  0
   10.2576   16.0041   21.1482 N   0  0  0  0  0  0  0  0  0  0  0  0
   11.0705   15.1709   20.4374 C   0  0  0  0  0  0  0  0  0  0  0  0
   12.2396   14.5564   21.0875 C   0  0  0  0  0  0  0  0  0  0  0  0
   12.1156   14.5012   22.6006 C   0  0  0  0  0  0  0  0  0  0  0  0
   11.1757   13.5197   23.0454 N   0  0  0  0  0  0  0  0  0  0  0  0
   10.1463   13.5702   24.1709 C   0  0  0  0  0  0  0  0  0  0  0  0
    9.9440   14.3886   24.9719 O   0  0  0  0  0  0  0  0  0  0  0  0
    9.3950   12.3108   24.1654 C   0  0  0  0  0  0  0  0  0  0  0  0
    9.8132   11.2505   23.4526 N   0  0  0  0  0  0  0  0  0  0  0  0
    9.0536   10.2344   23.8907 N   0  0  0  0  0  0  0  0  0  0  0  0
    9.3399    8.9110   23.3858 C   0  0  0  0  0  0  0  0  0  0  0  0
    8.1104   10.6217   24.8168 C   0  0  0  0  0  0  0  0  0  0  0  0
    7.1497    9.9196   25.5516 C   0  0  0  0  0  0  0  0  0  0  0  0
    6.2890   10.6374   26.3853 C   0  0  0  0  0  0  0  0  0  0  0  0
    6.3970   12.0261   26.4773 C   0  0  0  0  0  0  0  0  0  0  0  0
    5.4752   12.7559   27.3483 N   0  0  0  0  0  0  0  0  0  0  0  0
    4.3978   12.2100   27.6320 O   0  0  0  0  0  0  0  0  0  0  0  0
    5.8492   13.8519   27.7882 O   0  0  0  0  0  0  0  0  0  0  0  0
    7.3826   12.7290   25.7738 C   0  0  0  0  0  0  0  0  0  0  0  0
    8.2518   12.0003   24.9384 C   0  0  0  0  0  0  0  0  0  0  0  0
   10.6932   15.1743   19.1177 C   0  0  0  0  0  0  0  0  0  0  0  0
    9.6641   16.0566   18.9792 O   0  0  0  0  0  0  0  0  0  0  0  0
  1  2  1  0
  2  3  2  0
  3  4  1  0
  4  5  1  0
  5  6  1  0
  6  7  1  0
  7  8  1  0
  8  9  2  0
  8 10  1  0
 10 11  2  0
 11 12  1  0
 12 13  1  0
 12 14  1  0
 14 15  2  0
 15 16  1  0
 16 17  2  0
 17 18  1  0
 18 19  2  0
 18 20  1  0
 17 21  1  0
 21 22  2  0
  4 23  2  0
 23 24  1  0
 24  2  1  0
 22 10  1  0
 22 14  1  0
M  CHG  2  18   1  20  -1
M  END
>  <energy_score>  (3708) 
-21.952455

>  <inchikey>  (3708) 
IMTOCZSSUZGMII-UHFFFAOYSA-N

>  <smiles>  (3708) 
Cc1nc(CCNC(=O)c2nn(C)c3ccc([N+](=O)[O-])cc23)co1

>  <ref_pdb>  (3708) 
A0514a

>  <alias>  (3708) 
IMTOCZSSUZGMII-UHFFFAOYSA-N-P183-P126-P183-601502

>  <HIPPO Pose ID>  (3708) 
503397

>  <name>  (3708) 
IMTOCZSSUZGMII-UHFFFAOYSA-N-P183-P126-P183-601502

>  <HIPPO Compound ID>  (3708) 
289833

>  <ref_mols>  (3708) 
A2290a,A3436a

>  <distance_score>  (3708) 
0.531525

>  <inspiration_score>  (3708) 
None

$$$$
ZKBLNKVTSMZQOH-UHFFFAOYSA-N-P126-P126-P183-601502
     RDKit          3D

 24 26  0  0  0  0  0  0  0  0999 V2000
    8.5862   17.3957   20.7074 C   0  0  0  0  0  0  0  0  0  0  0  0
    9.5561   16.3152   20.4681 C   0  0  0  0  0  0  0  0  0  0  0  0
   10.3326   15.7136   21.3414 N   0  0  0  0  0  0  0  0  0  0  0  0
   11.1624   14.9417   20.5763 C   0  0  0  0  0  0  0  0  0  0  0  0
   12.4024   14.3594   21.1283 C   0  0  0  0  0  0  0  0  0  0  0  0
   12.4015   14.3005   22.6384 C   0  0  0  0  0  0  0  0  0  0  0  0
   11.4575   13.3596   23.1413 N   0  0  0  0  0  0  0  0  0  0  0  0
   10.5622   13.4149   24.3788 C   0  0  0  0  0  0  0  0  0  0  0  0
   10.5031   14.2031   25.2333 O   0  0  0  0  0  0  0  0  0  0  0  0
    9.7134   12.2227   24.3385 C   0  0  0  0  0  0  0  0  0  0  0  0
   10.0256   11.2149   23.5059 N   0  0  0  0  0  0  0  0  0  0  0  0
    9.2368   10.1969   23.9100 N   0  0  0  0  0  0  0  0  0  0  0  0
    9.5795    8.8301   23.5170 C   0  0  0  0  0  0  0  0  0  0  0  0
    8.8987    7.9604   24.2856 F   0  0  0  0  0  0  0  0  0  0  0  0
    9.2957    8.5523   22.2320 F   0  0  0  0  0  0  0  0  0  0  0  0
   10.9031    8.5797   23.6721 F   0  0  0  0  0  0  0  0  0  0  0  0
    8.2962   10.5871   24.8472 C   0  0  0  0  0  0  0  0  0  0  0  0
    7.2699    9.9074   25.5168 C   0  0  0  0  0  0  0  0  0  0  0  0
    6.4993   10.6177   26.4411 C   0  0  0  0  0  0  0  0  0  0  0  0
    6.7492   11.9607   26.7006 C   0  0  0  0  0  0  0  0  0  0  0  0
    7.7906   12.6254   26.0513 C   0  0  0  0  0  0  0  0  0  0  0  0
    8.5733   11.9246   25.1165 C   0  0  0  0  0  0  0  0  0  0  0  0
   10.7550   15.0027   19.2705 C   0  0  0  0  0  0  0  0  0  0  0  0
    9.7200   15.8824   19.1857 O   0  0  0  0  0  0  0  0  0  0  0  0
  1  2  1  0
  2  3  2  0
  3  4  1  0
  4  5  1  0
  5  6  1  0
  6  7  1  0
  7  8  1  0
  8  9  2  0
  8 10  1  0
 10 11  2  0
 11 12  1  0
 12 13  1  0
 13 14  1  0
 13 15  1  0
 13 16  1  0
 12 17  1  0
 17 18  2  0
 18 19  1  0
 19 20  2  0
 20 21  1  0
 21 22  2  0
  4 23  2  0
 23 24  1  0
 24  2  1  0
 22 10  1  0
 22 17  1  0
M  END
>  <energy_score>  (3709) 
-9.756308

>  <inchikey>  (3709) 
ZKBLNKVTSMZQOH-UHFFFAOYSA-N

>  <smiles>  (3709) 
Cc1nc(CCNC(=O)c2nn(C(F)(F)F)c3ccccc23)co1

>  <ref_pdb>  (3709) 
A0514a

>  <alias>  (3709) 
ZKBLNKVTSMZQOH-UHFFFAOYSA-N-P126-P126-P183-601502

>  <HIPPO Pose ID>  (3709) 
503398

>  <name>  (3709) 
ZKBLNKVTSMZQOH-UHFFFAOYSA-N-P126-P126-P183-601502

>  <HIPPO Compound ID>  (3709) 
289834

>  <ref_mols>  (3709) 
A2290a,A3436a

>  <distance_score>  (3709) 
0.566347

>  <inspiration_score>  (3709) 
None

$$$$
ZKBLNKVTSMZQOH-UHFFFAOYSA-N-P183-P126-P183-601502
     RDKit          3D

 24 26  0  0  0  0  0  0  0  0999 V2000
    8.4683   17.5819   20.4411 C   0  0  0  0  0  0  0  0  0  0  0  0
    9.4835   16.5524   20.2277 C   0  0  0  0  0  0  0  0  0  0  0  0
   10.2633   16.0171   21.1315 N   0  0  0  0  0  0  0  0  0  0  0  0
   11.0813   15.1930   20.4156 C   0  0  0  0  0  0  0  0  0  0  0  0
   12.2634   14.5975   21.0601 C   0  0  0  0  0  0  0  0  0  0  0  0
   12.1529   14.5739   22.5748 C   0  0  0  0  0  0  0  0  0  0  0  0
   11.2080   13.6035   23.0279 N   0  0  0  0  0  0  0  0  0  0  0  0
   10.2275   13.6439   24.1962 C   0  0  0  0  0  0  0  0  0  0  0  0
   10.0795   14.4411   25.0294 O   0  0  0  0  0  0  0  0  0  0  0  0
    9.4525   12.4012   24.1702 C   0  0  0  0  0  0  0  0  0  0  0  0
    9.8636   11.3571   23.4323 N   0  0  0  0  0  0  0  0  0  0  0  0
    9.1204   10.3164   23.8772 N   0  0  0  0  0  0  0  0  0  0  0  0
    9.4845    8.9554   23.4677 C   0  0  0  0  0  0  0  0  0  0  0  0
    8.6888    8.0466   24.0646 F   0  0  0  0  0  0  0  0  0  0  0  0
    9.3999    8.7721   22.1345 F   0  0  0  0  0  0  0  0  0  0  0  0
   10.7621    8.6531   23.8123 F   0  0  0  0  0  0  0  0  0  0  0  0
    8.1648   10.7048   24.8018 C   0  0  0  0  0  0  0  0  0  0  0  0
    7.2018   10.0102   25.5457 C   0  0  0  0  0  0  0  0  0  0  0  0
    6.3606   10.7335   26.3963 C   0  0  0  0  0  0  0  0  0  0  0  0
    6.4755   12.1129   26.5100 C   0  0  0  0  0  0  0  0  0  0  0  0
    7.4502   12.8002   25.7866 C   0  0  0  0  0  0  0  0  0  0  0  0
    8.3110   12.0822   24.9360 C   0  0  0  0  0  0  0  0  0  0  0  0
   10.6922   15.1867   19.0997 C   0  0  0  0  0  0  0  0  0  0  0  0
    9.6543   16.0599   18.9672 O   0  0  0  0  0  0  0  0  0  0  0  0
  1  2  1  0
  2  3  2  0
  3  4  1  0
  4  5  1  0
  5  6  1  0
  6  7  1  0
  7  8  1  0
  8  9  2  0
  8 10  1  0
 10 11  2  0
 11 12  1  0
 12 13  1  0
 13 14  1  0
 13 15  1  0
 13 16  1  0
 12 17  1  0
 17 18  2  0
 18 19  1  0
 19 20  2  0
 20 21  1  0
 21 22  2  0
  4 23  2  0
 23 24  1  0
 24  2  1  0
 22 10  1  0
 22 17  1  0
M  END
>  <energy_score>  (3710) 
-10.729615

>  <inchikey>  (3710) 
ZKBLNKVTSMZQOH-UHFFFAOYSA-N

>  <smiles>  (3710) 
Cc1nc(CCNC(=O)c2nn(C(F)(F)F)c3ccccc23)co1

>  <ref_pdb>  (3710) 
A0514a

>  <alias>  (3710) 
ZKBLNKVTSMZQOH-UHFFFAOYSA-N-P183-P126-P183-601502

>  <HIPPO Pose ID>  (3710) 
503399

>  <name>  (3710) 
ZKBLNKVTSMZQOH-UHFFFAOYSA-N-P183-P126-P183-601502

>  <HIPPO Compound ID>  (3710) 
289834

>  <ref_mols>  (3710) 
A2290a,A3436a

>  <distance_score>  (3710) 
0.541232

>  <inspiration_score>  (3710) 
None

$$$$
KPMIJLFQQLWRSU-UHFFFAOYSA-N-P126-P126-P183-601502
     RDKit          3D

 24 26  0  0  0  0  0  0  0  0999 V2000
   12.9898   13.4946   23.5306 C   0  0  0  0  0  0  0  0  0  0  0  0
   11.8519   14.2082   22.8418 C   0  0  1  0  0  0  0  0  0  0  0  0
   12.0874   14.3430   21.3445 C   0  0  0  0  0  0  0  0  0  0  0  0
   10.9591   14.9985   20.6490 C   0  0  0  0  0  0  0  0  0  0  0  0
   10.6941   15.0725   19.3062 C   0  0  0  0  0  0  0  0  0  0  0  0
    9.6880   15.9723   19.1205 O   0  0  0  0  0  0  0  0  0  0  0  0
    9.3904   16.3920   20.3771 C   0  0  0  0  0  0  0  0  0  0  0  0
   10.0738   15.7963   21.3223 N   0  0  0  0  0  0  0  0  0  0  0  0
   10.7335   13.4112   23.1971 N   0  0  0  0  0  0  0  0  0  0  0  0
    9.8029   13.4911   24.3992 C   0  0  0  0  0  0  0  0  0  0  0  0
    9.7485   14.2699   25.2605 O   0  0  0  0  0  0  0  0  0  0  0  0
    8.9851   12.2884   24.3537 C   0  0  0  0  0  0  0  0  0  0  0  0
    9.3098   11.2979   23.5005 N   0  0  0  0  0  0  0  0  0  0  0  0
    8.6960   10.2150   24.0241 N   0  0  0  0  0  0  0  0  0  0  0  0
    9.2028    8.8743   23.7186 C   0  0  0  0  0  0  0  0  0  0  0  0
   10.5580    8.8436   23.7659 F   0  0  0  0  0  0  0  0  0  0  0  0
    8.8487    8.4090   22.5115 F   0  0  0  0  0  0  0  0  0  0  0  0
    8.7214    8.0052   24.6294 F   0  0  0  0  0  0  0  0  0  0  0  0
    7.7950   10.5521   25.0205 C   0  0  0  0  0  0  0  0  0  0  0  0
    6.8837    9.8100   25.7742 C   0  0  0  0  0  0  0  0  0  0  0  0
    6.1651   10.4639   26.7774 C   0  0  0  0  0  0  0  0  0  0  0  0
    6.3555   11.8172   27.0313 C   0  0  0  0  0  0  0  0  0  0  0  0
    7.2684   12.5536   26.2798 C   0  0  0  0  0  0  0  0  0  0  0  0
    7.9760   11.9101   25.2517 C   0  0  0  0  0  0  0  0  0  0  0  0
  2  1  1  1
  2  3  1  0
  3  4  1  0
  4  5  2  0
  5  6  1  0
  6  7  1  0
  7  8  2  0
  2  9  1  0
  9 10  1  0
 10 11  2  0
 10 12  1  0
 12 13  2  0
 13 14  1  0
 14 15  1  0
 15 16  1  0
 15 17  1  0
 15 18  1  0
 14 19  1  0
 19 20  2  0
 20 21  1  0
 21 22  2  0
 22 23  1  0
 23 24  2  0
  8  4  1  0
 24 12  1  0
 24 19  1  0
M  END
>  <energy_score>  (3711) 
-24.507362

>  <inchikey>  (3711) 
KPMIJLFQQLWRSU-UHFFFAOYSA-N

>  <smiles>  (3711) 
CC(Cc1cocn1)NC(=O)c1nn(C(F)(F)F)c2ccccc12

>  <ref_pdb>  (3711) 
A0514a

>  <alias>  (3711) 
KPMIJLFQQLWRSU-UHFFFAOYSA-N-P126-P126-P183-601502

>  <HIPPO Pose ID>  (3711) 
503400

>  <name>  (3711) 
KPMIJLFQQLWRSU-UHFFFAOYSA-N-P126-P126-P183-601502

>  <HIPPO Compound ID>  (3711) 
289835

>  <ref_mols>  (3711) 
A2290a,A3436a

>  <distance_score>  (3711) 
0.787852

>  <inspiration_score>  (3711) 
None

$$$$
KPMIJLFQQLWRSU-UHFFFAOYSA-N-P183-P126-P183-601502
     RDKit          3D

 24 26  0  0  0  0  0  0  0  0999 V2000
   12.6812   14.0798   23.5485 C   0  0  0  0  0  0  0  0  0  0  0  0
   11.5249   14.6000   22.7376 C   0  0  1  0  0  0  0  0  0  0  0  0
   11.8423   14.6598   21.2504 C   0  0  0  0  0  0  0  0  0  0  0  0
   10.7663   15.3234   20.4841 C   0  0  0  0  0  0  0  0  0  0  0  0
   10.5171   15.3060   19.1357 C   0  0  0  0  0  0  0  0  0  0  0  0
    9.5221   16.2005   18.8840 O   0  0  0  0  0  0  0  0  0  0  0  0
    9.2250   16.7241   20.1048 C   0  0  0  0  0  0  0  0  0  0  0  0
    9.9097   16.2079   21.0926 N   0  0  0  0  0  0  0  0  0  0  0  0
   10.4963   13.6924   23.0876 N   0  0  0  0  0  0  0  0  0  0  0  0
    9.5135   13.7118   24.2465 C   0  0  0  0  0  0  0  0  0  0  0  0
    9.3303   14.5138   25.0657 O   0  0  0  0  0  0  0  0  0  0  0  0
    8.8477   12.4243   24.2305 C   0  0  0  0  0  0  0  0  0  0  0  0
    9.3270   11.4409   23.4483 N   0  0  0  0  0  0  0  0  0  0  0  0
    8.8073   10.3157   23.9848 N   0  0  0  0  0  0  0  0  0  0  0  0
    9.3709    9.0167   23.5916 C   0  0  0  0  0  0  0  0  0  0  0  0
   10.6851    8.9459   23.9124 F   0  0  0  0  0  0  0  0  0  0  0  0
    9.2998    8.7947   22.2629 F   0  0  0  0  0  0  0  0  0  0  0  0
    8.7310    8.0117   24.2145 F   0  0  0  0  0  0  0  0  0  0  0  0
    7.8498   10.5977   24.9469 C   0  0  0  0  0  0  0  0  0  0  0  0
    6.9723    9.8094   25.6909 C   0  0  0  0  0  0  0  0  0  0  0  0
    6.1252   10.4271   26.6166 C   0  0  0  0  0  0  0  0  0  0  0  0
    6.1564   11.8011   26.8096 C   0  0  0  0  0  0  0  0  0  0  0  0
    7.0241   12.5909   26.0614 C   0  0  0  0  0  0  0  0  0  0  0  0
    7.8544   11.9774   25.1076 C   0  0  0  0  0  0  0  0  0  0  0  0
  2  1  1  1
  2  3  1  0
  3  4  1  0
  4  5  2  0
  5  6  1  0
  6  7  1  0
  7  8  2  0
  2  9  1  0
  9 10  1  0
 10 11  2  0
 10 12  1  0
 12 13  2  0
 13 14  1  0
 14 15  1  0
 15 16  1  0
 15 17  1  0
 15 18  1  0
 14 19  1  0
 19 20  2  0
 20 21  1  0
 21 22  2  0
 22 23  1  0
 23 24  2  0
  8  4  1  0
 24 12  1  0
 24 19  1  0
M  END
>  <energy_score>  (3712) 
-25.832386

>  <inchikey>  (3712) 
KPMIJLFQQLWRSU-UHFFFAOYSA-N

>  <smiles>  (3712) 
CC(Cc1cocn1)NC(=O)c1nn(C(F)(F)F)c2ccccc12

>  <ref_pdb>  (3712) 
A0514a

>  <alias>  (3712) 
KPMIJLFQQLWRSU-UHFFFAOYSA-N-P183-P126-P183-601502

>  <HIPPO Pose ID>  (3712) 
503401

>  <name>  (3712) 
KPMIJLFQQLWRSU-UHFFFAOYSA-N-P183-P126-P183-601502

>  <HIPPO Compound ID>  (3712) 
289835

>  <ref_mols>  (3712) 
A2290a,A3436a

>  <distance_score>  (3712) 
0.828739

>  <inspiration_score>  (3712) 
None

$$$$
PXZVULLCMWPKNR-UHFFFAOYSA-N-P126-P126-P183-601502
     RDKit          3D

 24 26  0  0  0  0  0  0  0  0999 V2000
    9.8305   17.0823   18.2772 C   0  0  0  0  0  0  0  0  0  0  0  0
    9.5880   16.5326   19.6070 C   0  0  0  0  0  0  0  0  0  0  0  0
    8.5855   17.1496   20.2829 O   0  0  0  0  0  0  0  0  0  0  0  0
    8.3512   16.3159   21.3155 C   0  0  0  0  0  0  0  0  0  0  0  0
    9.2015   15.3249   21.4468 N   0  0  0  0  0  0  0  0  0  0  0  0
   10.0778   15.5290   20.4115 C   0  0  0  0  0  0  0  0  0  0  0  0
   11.2722   14.6768   20.2551 C   0  0  0  0  0  0  0  0  0  0  0  0
   12.0124   14.4029   21.5633 C   0  0  0  0  0  0  0  0  0  0  0  0
   11.3704   13.3555   22.3128 N   0  0  0  0  0  0  0  0  0  0  0  0
   10.7678   13.3643   23.7271 C   0  0  0  0  0  0  0  0  0  0  0  0
   10.7629   14.1985   24.5417 O   0  0  0  0  0  0  0  0  0  0  0  0
   10.0399   12.0990   23.9174 C   0  0  0  0  0  0  0  0  0  0  0  0
   10.3830   11.0251   23.1958 N   0  0  0  0  0  0  0  0  0  0  0  0
    9.5563   10.0378   23.6070 N   0  0  0  0  0  0  0  0  0  0  0  0
    9.6326    8.7282   22.9499 C   0  0  0  0  0  0  0  0  0  0  0  0
    8.4412    8.1025   22.9783 F   0  0  0  0  0  0  0  0  0  0  0  0
    9.9992    8.8453   21.6526 F   0  0  0  0  0  0  0  0  0  0  0  0
   10.5383    7.9015   23.5199 F   0  0  0  0  0  0  0  0  0  0  0  0
    8.6717   10.4573   24.5817 C   0  0  0  0  0  0  0  0  0  0  0  0
    7.6582    9.8015   25.2921 C   0  0  0  0  0  0  0  0  0  0  0  0
    6.8916   10.5494   26.1903 C   0  0  0  0  0  0  0  0  0  0  0  0
    7.1314   11.9073   26.3779 C   0  0  0  0  0  0  0  0  0  0  0  0
    8.1578   12.5508   25.6798 C   0  0  0  0  0  0  0  0  0  0  0  0
    8.9460   11.8117   24.7767 C   0  0  0  0  0  0  0  0  0  0  0  0
  1  2  1  0
  2  3  1  0
  3  4  1  0
  4  5  2  0
  5  6  1  0
  6  7  1  0
  7  8  1  0
  8  9  1  0
  9 10  1  0
 10 11  2  0
 10 12  1  0
 12 13  2  0
 13 14  1  0
 14 15  1  0
 15 16  1  0
 15 17  1  0
 15 18  1  0
 14 19  1  0
 19 20  2  0
 20 21  1  0
 21 22  2  0
 22 23  1  0
 23 24  2  0
  6  2  2  0
 24 12  1  0
 24 19  1  0
M  END
>  <energy_score>  (3713) 
-34.078764

>  <inchikey>  (3713) 
PXZVULLCMWPKNR-UHFFFAOYSA-N

>  <smiles>  (3713) 
Cc1ocnc1CCNC(=O)c1nn(C(F)(F)F)c2ccccc12

>  <ref_pdb>  (3713) 
A0514a

>  <alias>  (3713) 
PXZVULLCMWPKNR-UHFFFAOYSA-N-P126-P126-P183-601502

>  <HIPPO Pose ID>  (3713) 
503402

>  <name>  (3713) 
PXZVULLCMWPKNR-UHFFFAOYSA-N-P126-P126-P183-601502

>  <HIPPO Compound ID>  (3713) 
289836

>  <ref_mols>  (3713) 
A2290a,A3436a

>  <distance_score>  (3713) 
0.886206

>  <inspiration_score>  (3713) 
None

$$$$
PXZVULLCMWPKNR-UHFFFAOYSA-N-P183-P126-P183-601502
     RDKit          3D

 24 26  0  0  0  0  0  0  0  0999 V2000
   11.3940   14.8199   18.3183 C   0  0  0  0  0  0  0  0  0  0  0  0
   10.6572   15.3425   19.4590 C   0  0  0  0  0  0  0  0  0  0  0  0
    9.5437   16.0953   19.2468 O   0  0  0  0  0  0  0  0  0  0  0  0
    9.1820   16.4778   20.5038 C   0  0  0  0  0  0  0  0  0  0  0  0
    9.9391   15.9965   21.4619 N   0  0  0  0  0  0  0  0  0  0  0  0
   10.9255   15.3231   20.8002 C   0  0  0  0  0  0  0  0  0  0  0  0
   12.1434   14.7816   21.4439 C   0  0  0  0  0  0  0  0  0  0  0  0
   12.0254   14.6264   22.9382 C   0  0  0  0  0  0  0  0  0  0  0  0
   11.0224   13.6774   23.2736 N   0  0  0  0  0  0  0  0  0  0  0  0
   10.0082   13.6684   24.4088 C   0  0  0  0  0  0  0  0  0  0  0  0
    9.7717   14.4711   25.2148 O   0  0  0  0  0  0  0  0  0  0  0  0
    9.2960   12.3975   24.3303 C   0  0  0  0  0  0  0  0  0  0  0  0
    9.7585   11.4071   23.5492 N   0  0  0  0  0  0  0  0  0  0  0  0
    9.0620   10.3163   23.9462 N   0  0  0  0  0  0  0  0  0  0  0  0
    9.4902    8.9918   23.4787 C   0  0  0  0  0  0  0  0  0  0  0  0
    8.7199    8.0248   24.0107 F   0  0  0  0  0  0  0  0  0  0  0  0
    9.4352    8.8781   22.1355 F   0  0  0  0  0  0  0  0  0  0  0  0
   10.7717    8.7286   23.8284 F   0  0  0  0  0  0  0  0  0  0  0  0
    8.0790   10.6313   24.8716 C   0  0  0  0  0  0  0  0  0  0  0  0
    7.1318    9.8756   25.5700 C   0  0  0  0  0  0  0  0  0  0  0  0
    6.2572   10.5285   26.4444 C   0  0  0  0  0  0  0  0  0  0  0  0
    6.3202   11.9037   26.6232 C   0  0  0  0  0  0  0  0  0  0  0  0
    7.2737   12.6551   25.9399 C   0  0  0  0  0  0  0  0  0  0  0  0
    8.1656   12.0047   25.0678 C   0  0  0  0  0  0  0  0  0  0  0  0
  1  2  1  0
  2  3  1  0
  3  4  1  0
  4  5  2  0
  5  6  1  0
  6  7  1  0
  7  8  1  0
  8  9  1  0
  9 10  1  0
 10 11  2  0
 10 12  1  0
 12 13  2  0
 13 14  1  0
 14 15  1  0
 15 16  1  0
 15 17  1  0
 15 18  1  0
 14 19  1  0
 19 20  2  0
 20 21  1  0
 21 22  2  0
 22 23  1  0
 23 24  2  0
  6  2  2  0
 24 12  1  0
 24 19  1  0
M  END
>  <energy_score>  (3714) 
-35.121754

>  <inchikey>  (3714) 
PXZVULLCMWPKNR-UHFFFAOYSA-N

>  <smiles>  (3714) 
Cc1ocnc1CCNC(=O)c1nn(C(F)(F)F)c2ccccc12

>  <ref_pdb>  (3714) 
A0514a

>  <alias>  (3714) 
PXZVULLCMWPKNR-UHFFFAOYSA-N-P183-P126-P183-601502

>  <HIPPO Pose ID>  (3714) 
503403

>  <name>  (3714) 
PXZVULLCMWPKNR-UHFFFAOYSA-N-P183-P126-P183-601502

>  <HIPPO Compound ID>  (3714) 
289836

>  <ref_mols>  (3714) 
A2290a,A3436a

>  <distance_score>  (3714) 
0.700209

>  <inspiration_score>  (3714) 
None

$$$$
FJORHRSFVACLOE-UHFFFAOYSA-N-P126-P126-P183-601502
     RDKit          3D

 25 27  0  0  0  0  0  0  0  0999 V2000
   14.4833   11.9548   24.9606 C   0  0  0  0  0  0  0  0  0  0  0  0
   13.6548   12.5030   23.9122 O   0  0  0  0  0  0  0  0  0  0  0  0
   12.7220   13.4098   24.2749 C   0  0  0  0  0  0  0  0  0  0  0  0
   12.4886   13.6793   25.4554 O   0  0  0  0  0  0  0  0  0  0  0  0
   11.8740   14.0182   23.1532 C   0  0  1  0  0  0  0  0  0  0  0  0
   12.2788   14.0699   21.6918 C   0  0  0  0  0  0  0  0  0  0  0  0
   11.2302   14.7577   20.8687 C   0  0  0  0  0  0  0  0  0  0  0  0
   11.0046   14.7754   19.5118 C   0  0  0  0  0  0  0  0  0  0  0  0
    9.9605   15.6210   19.2594 O   0  0  0  0  0  0  0  0  0  0  0  0
    9.6144   16.0906   20.4821 C   0  0  0  0  0  0  0  0  0  0  0  0
   10.3088   15.5824   21.4704 N   0  0  0  0  0  0  0  0  0  0  0  0
   10.7297   13.2149   23.4127 N   0  0  0  0  0  0  0  0  0  0  0  0
    9.5789   13.4195   24.3825 C   0  0  0  0  0  0  0  0  0  0  0  0
    9.3299   14.3149   25.0781 O   0  0  0  0  0  0  0  0  0  0  0  0
    8.8354   12.1731   24.3668 C   0  0  0  0  0  0  0  0  0  0  0  0
    9.2810   11.1364   23.6268 N   0  0  0  0  0  0  0  0  0  0  0  0
    8.6147   10.0891   24.1190 N   0  0  0  0  0  0  0  0  0  0  0  0
    9.0068    8.7719   23.6861 C   0  0  0  0  0  0  0  0  0  0  0  0
    7.6944   10.4316   25.0794 C   0  0  0  0  0  0  0  0  0  0  0  0
    6.7747    9.6949   25.8174 C   0  0  0  0  0  0  0  0  0  0  0  0
    6.0083   10.3585   26.7774 C   0  0  0  0  0  0  0  0  0  0  0  0
    6.1545   11.7253   26.9831 C   0  0  0  0  0  0  0  0  0  0  0  0
    5.1033   12.5837   28.2999 Br  0  0  0  0  0  0  0  0  0  0  0  0
    7.0601   12.4687   26.2339 C   0  0  0  0  0  0  0  0  0  0  0  0
    7.8179   11.8024   25.2565 C   0  0  0  0  0  0  0  0  0  0  0  0
  1  2  1  0
  2  3  1  0
  3  4  2  0
  3  5  1  0
  5  6  1  6
  6  7  1  0
  7  8  2  0
  8  9  1  0
  9 10  1  0
 10 11  2  0
  5 12  1  0
 12 13  1  0
 13 14  2  0
 13 15  1  0
 15 16  2  0
 16 17  1  0
 17 18  1  0
 17 19  1  0
 19 20  2  0
 20 21  1  0
 21 22  2  0
 22 23  1  0
 22 24  1  0
 24 25  2  0
 11  7  1  0
 25 15  1  0
 25 19  1  0
M  END
>  <energy_score>  (3715) 
-23.608087

>  <inchikey>  (3715) 
FJORHRSFVACLOE-UHFFFAOYSA-N

>  <smiles>  (3715) 
COC(=O)C(Cc1cocn1)NC(=O)c1nn(C)c2ccc(Br)cc12

>  <ref_pdb>  (3715) 
A0514a

>  <alias>  (3715) 
FJORHRSFVACLOE-UHFFFAOYSA-N-P126-P126-P183-601502

>  <HIPPO Pose ID>  (3715) 
503404

>  <name>  (3715) 
FJORHRSFVACLOE-UHFFFAOYSA-N-P126-P126-P183-601502

>  <HIPPO Compound ID>  (3715) 
289837

>  <ref_mols>  (3715) 
A2290a,A3436a

>  <distance_score>  (3715) 
0.961579

>  <inspiration_score>  (3715) 
None

$$$$
FJORHRSFVACLOE-UHFFFAOYSA-N-P183-P126-P183-601502
     RDKit          3D

 25 27  0  0  0  0  0  0  0  0999 V2000
   12.4758   13.3534   24.7923 C   0  0  0  0  0  0  0  0  0  0  0  0
   12.8493   13.4094   23.4266 O   0  0  0  0  0  0  0  0  0  0  0  0
   12.4345   14.4863   22.7181 C   0  0  0  0  0  0  0  0  0  0  0  0
   13.2149   15.3015   22.2506 O   0  0  0  0  0  0  0  0  0  0  0  0
   10.9729   14.5773   22.4363 C   0  0  1  0  0  0  0  0  0  0  0  0
   10.7824   14.4844   20.9465 C   0  0  0  0  0  0  0  0  0  0  0  0
   10.0460   15.6231   20.4190 C   0  0  0  0  0  0  0  0  0  0  0  0
   10.0297   16.0518   19.1297 C   0  0  0  0  0  0  0  0  0  0  0  0
    9.2399   17.1508   19.0791 O   0  0  0  0  0  0  0  0  0  0  0  0
    8.8183   17.3254   20.3572 C   0  0  0  0  0  0  0  0  0  0  0  0
    9.2156   16.3901   21.1835 N   0  0  0  0  0  0  0  0  0  0  0  0
   10.2084   13.5633   23.0733 N   0  0  0  0  0  0  0  0  0  0  0  0
    9.2895   13.6310   24.2746 C   0  0  0  0  0  0  0  0  0  0  0  0
    9.0580   14.5080   24.9961 O   0  0  0  0  0  0  0  0  0  0  0  0
    8.7781   12.2865   24.4466 C   0  0  0  0  0  0  0  0  0  0  0  0
    9.3079   11.2628   23.7474 N   0  0  0  0  0  0  0  0  0  0  0  0
    8.6630   10.1892   24.2148 N   0  0  0  0  0  0  0  0  0  0  0  0
    9.0702    8.8947   23.7208 C   0  0  0  0  0  0  0  0  0  0  0  0
    7.7015   10.5064   25.1472 C   0  0  0  0  0  0  0  0  0  0  0  0
    6.7492    9.7594   25.8317 C   0  0  0  0  0  0  0  0  0  0  0  0
    5.9142   10.4054   26.7471 C   0  0  0  0  0  0  0  0  0  0  0  0
    6.0002   11.7769   26.9406 C   0  0  0  0  0  0  0  0  0  0  0  0
    4.8467   12.6163   28.1795 Br  0  0  0  0  0  0  0  0  0  0  0  0
    6.9157   12.5383   26.2249 C   0  0  0  0  0  0  0  0  0  0  0  0
    7.7673   11.8806   25.3206 C   0  0  0  0  0  0  0  0  0  0  0  0
  1  2  1  0
  2  3  1  0
  3  4  2  0
  3  5  1  0
  5  6  1  6
  6  7  1  0
  7  8  2  0
  8  9  1  0
  9 10  1  0
 10 11  2  0
  5 12  1  0
 12 13  1  0
 13 14  2  0
 13 15  1  0
 15 16  2  0
 16 17  1  0
 17 18  1  0
 17 19  1  0
 19 20  2  0
 20 21  1  0
 21 22  2  0
 22 23  1  0
 22 24  1  0
 24 25  2  0
 11  7  1  0
 25 15  1  0
 25 19  1  0
M  END
>  <energy_score>  (3716) 
-25.060345

>  <inchikey>  (3716) 
FJORHRSFVACLOE-UHFFFAOYSA-N

>  <smiles>  (3716) 
COC(=O)C(Cc1cocn1)NC(=O)c1nn(C)c2ccc(Br)cc12

>  <ref_pdb>  (3716) 
A0514a

>  <alias>  (3716) 
FJORHRSFVACLOE-UHFFFAOYSA-N-P183-P126-P183-601502

>  <HIPPO Pose ID>  (3716) 
503405

>  <name>  (3716) 
FJORHRSFVACLOE-UHFFFAOYSA-N-P183-P126-P183-601502

>  <HIPPO Compound ID>  (3716) 
289837

>  <ref_mols>  (3716) 
A2290a,A3436a

>  <distance_score>  (3716) 
1.113422

>  <inspiration_score>  (3716) 
None

$$$$
UNSHUWGXKVKHOR-UHFFFAOYSA-N-P126-P126-P183-601502
     RDKit          3D

 25 27  0  0  0  0  0  0  0  0999 V2000
    8.6054   17.3218   20.7366 C   0  0  0  0  0  0  0  0  0  0  0  0
    9.5706   16.2186   20.5976 C   0  0  0  0  0  0  0  0  0  0  0  0
   10.2425   15.6012   21.5495 N   0  0  0  0  0  0  0  0  0  0  0  0
   11.1685   14.8683   20.8771 C   0  0  0  0  0  0  0  0  0  0  0  0
   12.3740   14.2787   21.4901 C   0  0  0  0  0  0  0  0  0  0  0  0
   12.3095   14.1653   22.9855 C   0  0  0  0  0  0  0  0  0  0  0  0
   11.3630   13.2052   23.4270 N   0  0  0  0  0  0  0  0  0  0  0  0
   10.3368   13.2701   24.5516 C   0  0  0  0  0  0  0  0  0  0  0  0
   10.1470   14.0907   25.3535 O   0  0  0  0  0  0  0  0  0  0  0  0
    9.5538   12.0375   24.4761 C   0  0  0  0  0  0  0  0  0  0  0  0
    9.9409   11.0336   23.6678 N   0  0  0  0  0  0  0  0  0  0  0  0
    9.0917   10.0362   23.9465 N   0  0  0  0  0  0  0  0  0  0  0  0
    9.2578    8.7921   23.2334 C   0  0  0  0  0  0  0  0  0  0  0  0
    8.1552   10.3743   24.8959 C   0  0  0  0  0  0  0  0  0  0  0  0
    7.1261    9.6612   25.5092 C   0  0  0  0  0  0  0  0  0  0  0  0
    6.2943   10.3303   26.4099 C   0  0  0  0  0  0  0  0  0  0  0  0
    6.5053   11.6811   26.6911 C   0  0  0  0  0  0  0  0  0  0  0  0
    5.6174   12.3594   27.6341 N   0  0  0  0  0  0  0  0  0  0  0  0
    6.0823   13.3158   28.2703 O   0  0  0  0  0  0  0  0  0  0  0  0
    4.4686   11.9114   27.7672 O   0  0  0  0  0  0  0  0  0  0  0  0
    7.5642   12.3901   26.1151 C   0  0  0  0  0  0  0  0  0  0  0  0
    8.3949   11.7092   25.2063 C   0  0  0  0  0  0  0  0  0  0  0  0
   10.9240   14.9600   19.5370 C   0  0  0  0  0  0  0  0  0  0  0  0
   11.7059   14.4819   18.4093 C   0  0  0  0  0  0  0  0  0  0  0  0
    9.8831   15.8119   19.3321 O   0  0  0  0  0  0  0  0  0  0  0  0
  1  2  1  0
  2  3  2  0
  3  4  1  0
  4  5  1  0
  5  6  1  0
  6  7  1  0
  7  8  1  0
  8  9  2  0
  8 10  1  0
 10 11  2  0
 11 12  1  0
 12 13  1  0
 12 14  1  0
 14 15  2  0
 15 16  1  0
 16 17  2  0
 17 18  1  0
 18 19  2  0
 18 20  1  0
 17 21  1  0
 21 22  2  0
  4 23  2  0
 23 24  1  0
 23 25  1  0
 25  2  1  0
 22 10  1  0
 22 14  1  0
M  CHG  2  18   1  20  -1
M  END
>  <energy_score>  (3717) 
-20.621045

>  <inchikey>  (3717) 
UNSHUWGXKVKHOR-UHFFFAOYSA-N

>  <smiles>  (3717) 
Cc1nc(CCNC(=O)c2nn(C)c3ccc([N+](=O)[O-])cc23)c(C)o1

>  <ref_pdb>  (3717) 
A0514a

>  <alias>  (3717) 
UNSHUWGXKVKHOR-UHFFFAOYSA-N-P126-P126-P183-601502

>  <HIPPO Pose ID>  (3717) 
503406

>  <name>  (3717) 
UNSHUWGXKVKHOR-UHFFFAOYSA-N-P126-P126-P183-601502

>  <HIPPO Compound ID>  (3717) 
289838

>  <ref_mols>  (3717) 
A2290a,A3436a

>  <distance_score>  (3717) 
0.706307

>  <inspiration_score>  (3717) 
None

$$$$
UNSHUWGXKVKHOR-UHFFFAOYSA-N-P183-P126-P183-601502
     RDKit          3D

 25 27  0  0  0  0  0  0  0  0999 V2000
    8.4034   17.5157   20.6807 C   0  0  0  0  0  0  0  0  0  0  0  0
    9.4394   16.5052   20.5187 C   0  0  0  0  0  0  0  0  0  0  0  0
   10.1427   15.9290   21.4645 N   0  0  0  0  0  0  0  0  0  0  0  0
   11.0557   15.1927   20.7844 C   0  0  0  0  0  0  0  0  0  0  0  0
   12.2307   14.5918   21.4353 C   0  0  0  0  0  0  0  0  0  0  0  0
   12.1031   14.4842   22.9370 C   0  0  0  0  0  0  0  0  0  0  0  0
   11.1378   13.5096   23.3222 N   0  0  0  0  0  0  0  0  0  0  0  0
   10.0241   13.5750   24.3589 C   0  0  0  0  0  0  0  0  0  0  0  0
    9.7556   14.4059   25.1258 O   0  0  0  0  0  0  0  0  0  0  0  0
    9.2891   12.3111   24.2997 C   0  0  0  0  0  0  0  0  0  0  0  0
    9.7374   11.2771   23.5650 N   0  0  0  0  0  0  0  0  0  0  0  0
    8.9846   10.2400   23.9617 N   0  0  0  0  0  0  0  0  0  0  0  0
    9.3026    8.9348   23.4285 C   0  0  0  0  0  0  0  0  0  0  0  0
    8.0248   10.5915   24.8859 C   0  0  0  0  0  0  0  0  0  0  0  0
    7.0657    9.8614   25.5925 C   0  0  0  0  0  0  0  0  0  0  0  0
    6.1914   10.5456   26.4405 C   0  0  0  0  0  0  0  0  0  0  0  0
    6.2793   11.9322   26.5696 C   0  0  0  0  0  0  0  0  0  0  0  0
    5.3442   12.6270   27.4542 N   0  0  0  0  0  0  0  0  0  0  0  0
    5.7085   13.7078   27.9378 O   0  0  0  0  0  0  0  0  0  0  0  0
    4.2646   12.0688   27.7027 O   0  0  0  0  0  0  0  0  0  0  0  0
    7.2578   12.6649   25.8903 C   0  0  0  0  0  0  0  0  0  0  0  0
    8.1415   11.9677   25.0443 C   0  0  0  0  0  0  0  0  0  0  0  0
   10.7834   15.2631   19.4455 C   0  0  0  0  0  0  0  0  0  0  0  0
   11.4758   14.7525   18.2796 C   0  0  0  0  0  0  0  0  0  0  0  0
    9.7315   16.0995   19.2529 O   0  0  0  0  0  0  0  0  0  0  0  0
  1  2  1  0
  2  3  2  0
  3  4  1  0
  4  5  1  0
  5  6  1  0
  6  7  1  0
  7  8  1  0
  8  9  2  0
  8 10  1  0
 10 11  2  0
 11 12  1  0
 12 13  1  0
 12 14  1  0
 14 15  2  0
 15 16  1  0
 16 17  2  0
 17 18  1  0
 18 19  2  0
 18 20  1  0
 17 21  1  0
 21 22  2  0
  4 23  2  0
 23 24  1  0
 23 25  1  0
 25  2  1  0
 22 10  1  0
 22 14  1  0
M  CHG  2  18   1  20  -1
M  END
>  <energy_score>  (3718) 
-21.745162

>  <inchikey>  (3718) 
UNSHUWGXKVKHOR-UHFFFAOYSA-N

>  <smiles>  (3718) 
Cc1nc(CCNC(=O)c2nn(C)c3ccc([N+](=O)[O-])cc23)c(C)o1

>  <ref_pdb>  (3718) 
A0514a

>  <alias>  (3718) 
UNSHUWGXKVKHOR-UHFFFAOYSA-N-P183-P126-P183-601502

>  <HIPPO Pose ID>  (3718) 
503407

>  <name>  (3718) 
UNSHUWGXKVKHOR-UHFFFAOYSA-N-P183-P126-P183-601502

>  <HIPPO Compound ID>  (3718) 
289838

>  <ref_mols>  (3718) 
A2290a,A3436a

>  <distance_score>  (3718) 
0.673091

>  <inspiration_score>  (3718) 
None

$$$$
DYQHBGIEJPRWRT-UHFFFAOYSA-N-P126-P126-P183-601502
     RDKit          3D

 25 27  0  0  0  0  0  0  0  0999 V2000
    3.7595   12.8217   28.7587 C   0  0  0  0  0  0  0  0  0  0  0  0
    4.5985   12.1121   27.8466 O   0  0  0  0  0  0  0  0  0  0  0  0
    5.8415   12.6441   27.7254 C   0  0  0  0  0  0  0  0  0  0  0  0
    6.2732   13.6136   28.3277 O   0  0  0  0  0  0  0  0  0  0  0  0
    6.6343   11.8766   26.7350 C   0  0  0  0  0  0  0  0  0  0  0  0
    6.3787   10.5265   26.4827 C   0  0  0  0  0  0  0  0  0  0  0  0
    7.1530    9.8074   25.5681 C   0  0  0  0  0  0  0  0  0  0  0  0
    8.1825   10.4780   24.9028 C   0  0  0  0  0  0  0  0  0  0  0  0
    8.4686   11.8154   25.1530 C   0  0  0  0  0  0  0  0  0  0  0  0
    7.6917   12.5295   26.0850 C   0  0  0  0  0  0  0  0  0  0  0  0
    9.6080   12.0962   24.3585 C   0  0  0  0  0  0  0  0  0  0  0  0
   10.4375   13.3077   24.3743 C   0  0  0  0  0  0  0  0  0  0  0  0
   10.3311   14.1126   25.2087 O   0  0  0  0  0  0  0  0  0  0  0  0
   11.3844   13.2414   23.1748 N   0  0  0  0  0  0  0  0  0  0  0  0
   12.3360   14.1900   22.6894 C   0  0  0  0  0  0  0  0  0  0  0  0
   12.3695   14.3043   21.1811 C   0  0  0  0  0  0  0  0  0  0  0  0
   11.1499   14.9118   20.6111 C   0  0  0  0  0  0  0  0  0  0  0  0
   10.7644   14.9861   19.2982 C   0  0  0  0  0  0  0  0  0  0  0  0
    9.7375   15.8746   19.2030 O   0  0  0  0  0  0  0  0  0  0  0  0
    9.5602   16.3035   20.4848 C   0  0  0  0  0  0  0  0  0  0  0  0
    8.5944   17.3900   20.7135 C   0  0  0  0  0  0  0  0  0  0  0  0
   10.3188   15.6909   21.3667 N   0  0  0  0  0  0  0  0  0  0  0  0
    9.9267   11.0558   23.5655 N   0  0  0  0  0  0  0  0  0  0  0  0
    9.1089   10.0759   23.9716 N   0  0  0  0  0  0  0  0  0  0  0  0
    9.3594    8.7384   23.4991 C   0  0  0  0  0  0  0  0  0  0  0  0
  1  2  1  0
  2  3  1  0
  3  4  2  0
  3  5  1  0
  5  6  2  0
  6  7  1  0
  7  8  2  0
  8  9  1  0
  9 10  2  0
  9 11  1  0
 11 12  1  0
 12 13  2  0
 12 14  1  0
 14 15  1  0
 15 16  1  0
 16 17  1  0
 17 18  2  0
 18 19  1  0
 19 20  1  0
 20 21  1  0
 20 22  2  0
 11 23  2  0
 23 24  1  0
 24 25  1  0
 10  5  1  0
 22 17  1  0
 24  8  1  0
M  END
>  <energy_score>  (3719) 
-38.673622

>  <inchikey>  (3719) 
DYQHBGIEJPRWRT-UHFFFAOYSA-N

>  <smiles>  (3719) 
COC(=O)c1ccc2c(c1)c(C(=O)NCCc1coc(C)n1)nn2C

>  <ref_pdb>  (3719) 
A0514a

>  <alias>  (3719) 
DYQHBGIEJPRWRT-UHFFFAOYSA-N-P126-P126-P183-601502

>  <HIPPO Pose ID>  (3719) 
503408

>  <name>  (3719) 
DYQHBGIEJPRWRT-UHFFFAOYSA-N-P126-P126-P183-601502

>  <HIPPO Compound ID>  (3719) 
289839

>  <ref_mols>  (3719) 
A2290a,A3436a

>  <distance_score>  (3719) 
0.575434

>  <inspiration_score>  (3719) 
None

$$$$
DYQHBGIEJPRWRT-UHFFFAOYSA-N-P183-P126-P183-601502
     RDKit          3D

 25 27  0  0  0  0  0  0  0  0999 V2000
    3.4178   12.8490   28.5005 C   0  0  0  0  0  0  0  0  0  0  0  0
    4.3332   12.1447   27.6606 O   0  0  0  0  0  0  0  0  0  0  0  0
    5.5016   12.8051   27.4564 C   0  0  0  0  0  0  0  0  0  0  0  0
    5.8161   13.8791   27.9423 O   0  0  0  0  0  0  0  0  0  0  0  0
    6.3782   12.0311   26.5443 C   0  0  0  0  0  0  0  0  0  0  0  0
    6.2693   10.6445   26.4259 C   0  0  0  0  0  0  0  0  0  0  0  0
    7.1180    9.9272   25.5765 C   0  0  0  0  0  0  0  0  0  0  0  0
    8.0793   10.6273   24.8413 C   0  0  0  0  0  0  0  0  0  0  0  0
    8.2264   12.0036   24.9730 C   0  0  0  0  0  0  0  0  0  0  0  0
    7.3682   12.7205   25.8304 C   0  0  0  0  0  0  0  0  0  0  0  0
    9.3629   12.3183   24.1909 C   0  0  0  0  0  0  0  0  0  0  0  0
   10.1266   13.5718   24.1995 C   0  0  0  0  0  0  0  0  0  0  0  0
    9.9739   14.3667   25.0348 O   0  0  0  0  0  0  0  0  0  0  0  0
   11.1264   13.5266   23.0462 N   0  0  0  0  0  0  0  0  0  0  0  0
   12.0904   14.4898   22.6135 C   0  0  0  0  0  0  0  0  0  0  0  0
   12.2276   14.5500   21.1017 C   0  0  0  0  0  0  0  0  0  0  0  0
   11.0670   15.1719   20.4433 C   0  0  0  0  0  0  0  0  0  0  0  0
   10.6934   15.1714   19.1225 C   0  0  0  0  0  0  0  0  0  0  0  0
    9.6675   16.0565   18.9775 O   0  0  0  0  0  0  0  0  0  0  0  0
    9.4899   16.5539   20.2353 C   0  0  0  0  0  0  0  0  0  0  0  0
    8.4774   17.5889   20.4366 C   0  0  0  0  0  0  0  0  0  0  0  0
   10.2580   16.0147   21.1474 N   0  0  0  0  0  0  0  0  0  0  0  0
    9.7743   11.2601   23.4682 N   0  0  0  0  0  0  0  0  0  0  0  0
    9.0254   10.2417   23.9186 N   0  0  0  0  0  0  0  0  0  0  0  0
    9.3321    8.9155   23.4348 C   0  0  0  0  0  0  0  0  0  0  0  0
  1  2  1  0
  2  3  1  0
  3  4  2  0
  3  5  1  0
  5  6  2  0
  6  7  1  0
  7  8  2  0
  8  9  1  0
  9 10  2  0
  9 11  1  0
 11 12  1  0
 12 13  2  0
 12 14  1  0
 14 15  1  0
 15 16  1  0
 16 17  1  0
 17 18  2  0
 18 19  1  0
 19 20  1  0
 20 21  1  0
 20 22  2  0
 11 23  2  0
 23 24  1  0
 24 25  1  0
 10  5  1  0
 22 17  1  0
 24  8  1  0
M  END
>  <energy_score>  (3720) 
-38.70724

>  <inchikey>  (3720) 
DYQHBGIEJPRWRT-UHFFFAOYSA-N

>  <smiles>  (3720) 
COC(=O)c1ccc2c(c1)c(C(=O)NCCc1coc(C)n1)nn2C

>  <ref_pdb>  (3720) 
A0514a

>  <alias>  (3720) 
DYQHBGIEJPRWRT-UHFFFAOYSA-N-P183-P126-P183-601502

>  <HIPPO Pose ID>  (3720) 
503409

>  <name>  (3720) 
DYQHBGIEJPRWRT-UHFFFAOYSA-N-P183-P126-P183-601502

>  <HIPPO Compound ID>  (3720) 
289839

>  <ref_mols>  (3720) 
A2290a,A3436a

>  <distance_score>  (3720) 
0.550729

>  <inspiration_score>  (3720) 
None

$$$$
UMGSEODYFWYKOA-UHFFFAOYSA-N-P126-P126-P183-601502
     RDKit          3D

 25 27  0  0  0  0  0  0  0  0999 V2000
    4.1470   13.4033   28.9555 C   0  0  0  0  0  0  0  0  0  0  0  0
    4.8592   12.5816   28.0296 O   0  0  0  0  0  0  0  0  0  0  0  0
    6.1293   13.0001   27.7977 C   0  0  0  0  0  0  0  0  0  0  0  0
    6.6844   13.9502   28.3254 O   0  0  0  0  0  0  0  0  0  0  0  0
    6.7823   12.1292   26.7907 C   0  0  0  0  0  0  0  0  0  0  0  0
    6.3977   10.7950   26.6172 C   0  0  0  0  0  0  0  0  0  0  0  0
    7.0503    9.9702   25.6967 C   0  0  0  0  0  0  0  0  0  0  0  0
    8.0879   10.5283   24.9440 C   0  0  0  0  0  0  0  0  0  0  0  0
    8.4942   11.8521   25.1029 C   0  0  0  0  0  0  0  0  0  0  0  0
    7.8425   12.6668   26.0454 C   0  0  0  0  0  0  0  0  0  0  0  0
    9.5904   12.0003   24.2199 C   0  0  0  0  0  0  0  0  0  0  0  0
   10.5539   13.0994   24.0912 C   0  0  0  0  0  0  0  0  0  0  0  0
   10.6481   13.9612   24.8692 O   0  0  0  0  0  0  0  0  0  0  0  0
   11.3930   12.7869   22.8484 N   0  0  0  0  0  0  0  0  0  0  0  0
   12.4557   13.5090   22.2480 C   0  0  0  0  0  0  0  0  0  0  0  0
   12.1395   14.9291   21.8879 C   0  0  0  0  0  0  0  0  0  0  0  0
   10.9632   15.1316   21.0225 C   0  0  0  0  0  0  0  0  0  0  0  0
    9.8739   15.7799   21.5095 N   0  0  0  0  0  0  0  0  0  0  0  0
    9.2852   16.2533   20.4439 C   0  0  0  0  0  0  0  0  0  0  0  0
    9.7532   15.7492   19.2746 O   0  0  0  0  0  0  0  0  0  0  0  0
   10.8351   15.0064   19.6624 C   0  0  0  0  0  0  0  0  0  0  0  0
   11.6986   14.4621   18.6200 C   0  0  0  0  0  0  0  0  0  0  0  0
    9.7550   10.9032   23.4585 N   0  0  0  0  0  0  0  0  0  0  0  0
    8.9249   10.0087   23.9886 N   0  0  0  0  0  0  0  0  0  0  0  0
    9.0790    8.6345   23.5959 C   0  0  0  0  0  0  0  0  0  0  0  0
  1  2  1  0
  2  3  1  0
  3  4  2  0
  3  5  1  0
  5  6  2  0
  6  7  1  0
  7  8  2  0
  8  9  1  0
  9 10  2  0
  9 11  1  0
 11 12  1  0
 12 13  2  0
 12 14  1  0
 14 15  1  0
 15 16  1  0
 16 17  1  0
 17 18  1  0
 18 19  2  0
 19 20  1  0
 20 21  1  0
 21 22  1  0
 11 23  2  0
 23 24  1  0
 24 25  1  0
 10  5  1  0
 21 17  2  0
 24  8  1  0
M  END
>  <energy_score>  (3721) 
-9.109688

>  <inchikey>  (3721) 
UMGSEODYFWYKOA-UHFFFAOYSA-N

>  <smiles>  (3721) 
COC(=O)c1ccc2c(c1)c(C(=O)NCCc1ncoc1C)nn2C

>  <ref_pdb>  (3721) 
A0514a

>  <alias>  (3721) 
UMGSEODYFWYKOA-UHFFFAOYSA-N-P126-P126-P183-601502

>  <HIPPO Pose ID>  (3721) 
503410

>  <name>  (3721) 
UMGSEODYFWYKOA-UHFFFAOYSA-N-P126-P126-P183-601502

>  <HIPPO Compound ID>  (3721) 
289840

>  <ref_mols>  (3721) 
A2290a,A3436a

>  <distance_score>  (3721) 
0.588827

>  <inspiration_score>  (3721) 
None

$$$$
UMGSEODYFWYKOA-UHFFFAOYSA-N-P183-P126-P183-601502
     RDKit          3D

 25 27  0  0  0  0  0  0  0  0999 V2000
    3.2717   12.5385   28.6646 C   0  0  0  0  0  0  0  0  0  0  0  0
    4.1997   11.8926   27.7918 O   0  0  0  0  0  0  0  0  0  0  0  0
    5.3450   12.5968   27.6005 C   0  0  0  0  0  0  0  0  0  0  0  0
    5.6262   13.6646   28.1189 O   0  0  0  0  0  0  0  0  0  0  0  0
    6.2404   11.8803   26.6595 C   0  0  0  0  0  0  0  0  0  0  0  0
    6.1661   10.4984   26.4826 C   0  0  0  0  0  0  0  0  0  0  0  0
    7.0361    9.8368   25.6090 C   0  0  0  0  0  0  0  0  0  0  0  0
    7.9895   10.5829   24.9136 C   0  0  0  0  0  0  0  0  0  0  0  0
    8.0969   11.9550   25.1016 C   0  0  0  0  0  0  0  0  0  0  0  0
    7.2160   12.6188   25.9785 C   0  0  0  0  0  0  0  0  0  0  0  0
    9.2324   12.3257   24.3508 C   0  0  0  0  0  0  0  0  0  0  0  0
    9.9555   13.5971   24.4188 C   0  0  0  0  0  0  0  0  0  0  0  0
    9.7252   14.3939   25.2330 O   0  0  0  0  0  0  0  0  0  0  0  0
   11.0339   13.5664   23.3428 N   0  0  0  0  0  0  0  0  0  0  0  0
   12.0003   14.5444   22.9725 C   0  0  0  0  0  0  0  0  0  0  0  0
   12.1032   14.6960   21.4755 C   0  0  0  0  0  0  0  0  0  0  0  0
   10.8965   15.2645   20.8361 C   0  0  0  0  0  0  0  0  0  0  0  0
    9.9054   15.9215   21.5074 N   0  0  0  0  0  0  0  0  0  0  0  0
    9.1669   16.4428   20.5549 C   0  0  0  0  0  0  0  0  0  0  0  0
    9.5411   16.0979   19.2908 O   0  0  0  0  0  0  0  0  0  0  0  0
   10.6461   15.3297   19.4920 C   0  0  0  0  0  0  0  0  0  0  0  0
   11.3887   14.8364   18.3407 C   0  0  0  0  0  0  0  0  0  0  0  0
    9.6889   11.3075   23.5970 N   0  0  0  0  0  0  0  0  0  0  0  0
    8.9547   10.2546   23.9870 N   0  0  0  0  0  0  0  0  0  0  0  0
    9.2981    8.9582   23.4467 C   0  0  0  0  0  0  0  0  0  0  0  0
  1  2  1  0
  2  3  1  0
  3  4  2  0
  3  5  1  0
  5  6  2  0
  6  7  1  0
  7  8  2  0
  8  9  1  0
  9 10  2  0
  9 11  1  0
 11 12  1  0
 12 13  2  0
 12 14  1  0
 14 15  1  0
 15 16  1  0
 16 17  1  0
 17 18  1  0
 18 19  2  0
 19 20  1  0
 20 21  1  0
 21 22  1  0
 11 23  2  0
 23 24  1  0
 24 25  1  0
 10  5  1  0
 21 17  2  0
 24  8  1  0
M  END
>  <energy_score>  (3722) 
-12.656064

>  <inchikey>  (3722) 
UMGSEODYFWYKOA-UHFFFAOYSA-N

>  <smiles>  (3722) 
COC(=O)c1ccc2c(c1)c(C(=O)NCCc1ncoc1C)nn2C

>  <ref_pdb>  (3722) 
A0514a

>  <alias>  (3722) 
UMGSEODYFWYKOA-UHFFFAOYSA-N-P183-P126-P183-601502

>  <HIPPO Pose ID>  (3722) 
503411

>  <name>  (3722) 
UMGSEODYFWYKOA-UHFFFAOYSA-N-P183-P126-P183-601502

>  <HIPPO Compound ID>  (3722) 
289840

>  <ref_mols>  (3722) 
A2290a,A3436a

>  <distance_score>  (3722) 
0.727362

>  <inspiration_score>  (3722) 
None

$$$$
WAXKGPOPNPBULI-UHFFFAOYSA-N-P126-P126-P183-601502
     RDKit          3D

 25 27  0  0  0  0  0  0  0  0999 V2000
    5.3249   15.0218   28.6778 C   0  0  0  0  0  0  0  0  0  0  0  0
    6.0691   14.1656   27.8111 O   0  0  0  0  0  0  0  0  0  0  0  0
    5.6245   12.8860   27.7737 C   0  0  0  0  0  0  0  0  0  0  0  0
    4.7140   12.4242   28.4446 O   0  0  0  0  0  0  0  0  0  0  0  0
    6.4207   12.0826   26.8069 C   0  0  0  0  0  0  0  0  0  0  0  0
    6.1722   10.7076   26.7308 C   0  0  0  0  0  0  0  0  0  0  0  0
    6.8654    9.8882   25.8346 C   0  0  0  0  0  0  0  0  0  0  0  0
    7.8098   10.4864   25.0016 C   0  0  0  0  0  0  0  0  0  0  0  0
    8.0626   11.8543   25.0458 C   0  0  0  0  0  0  0  0  0  0  0  0
    7.3874   12.6657   25.9750 C   0  0  0  0  0  0  0  0  0  0  0  0
    9.0789   12.0498   24.0911 C   0  0  0  0  0  0  0  0  0  0  0  0
    9.9749   13.1810   23.9285 C   0  0  0  0  0  0  0  0  0  0  0  0
    9.9435   14.1294   24.6021 O   0  0  0  0  0  0  0  0  0  0  0  0
   10.9487   12.7853   22.8156 N   0  0  0  0  0  0  0  0  0  0  0  0
   12.1326   13.4160   22.3611 C   0  0  2  0  0  0  0  0  0  0  0  0
   13.0275   13.3604   23.5897 C   0  0  0  0  0  0  0  0  0  0  0  0
   12.0133   14.8346   21.8542 C   0  0  0  0  0  0  0  0  0  0  0  0
   10.9212   15.1320   20.9063 C   0  0  0  0  0  0  0  0  0  0  0  0
   10.7956   14.9028   19.5577 C   0  0  0  0  0  0  0  0  0  0  0  0
    9.8022   15.7172   19.0887 O   0  0  0  0  0  0  0  0  0  0  0  0
    9.3855   16.3926   20.1864 C   0  0  0  0  0  0  0  0  0  0  0  0
    9.9429   16.0024   21.3000 N   0  0  0  0  0  0  0  0  0  0  0  0
    9.3490   10.9265   23.4049 N   0  0  0  0  0  0  0  0  0  0  0  0
    8.6567    9.9904   24.0425 N   0  0  0  0  0  0  0  0  0  0  0  0
    8.9444    8.6242   23.7085 C   0  0  0  0  0  0  0  0  0  0  0  0
  1  2  1  0
  2  3  1  0
  3  4  2  0
  3  5  1  0
  5  6  2  0
  6  7  1  0
  7  8  2  0
  8  9  1  0
  9 10  2  0
  9 11  1  0
 11 12  1  0
 12 13  2  0
 12 14  1  0
 14 15  1  0
 15 16  1  1
 15 17  1  0
 17 18  1  0
 18 19  2  0
 19 20  1  0
 20 21  1  0
 21 22  2  0
 11 23  2  0
 23 24  1  0
 24 25  1  0
 10  5  1  0
 22 18  1  0
 24  8  1  0
M  END
>  <energy_score>  (3723) 
-12.958549

>  <inchikey>  (3723) 
WAXKGPOPNPBULI-UHFFFAOYSA-N

>  <smiles>  (3723) 
COC(=O)c1ccc2c(c1)c(C(=O)NC(C)Cc1cocn1)nn2C

>  <ref_pdb>  (3723) 
A0514a

>  <alias>  (3723) 
WAXKGPOPNPBULI-UHFFFAOYSA-N-P126-P126-P183-601502

>  <HIPPO Pose ID>  (3723) 
503414

>  <name>  (3723) 
WAXKGPOPNPBULI-UHFFFAOYSA-N-P126-P126-P183-601502

>  <HIPPO Compound ID>  (3723) 
289842

>  <ref_mols>  (3723) 
A2290a,A3436a

>  <distance_score>  (3723) 
0.672065

>  <inspiration_score>  (3723) 
None

$$$$
WAXKGPOPNPBULI-UHFFFAOYSA-N-P183-P126-P183-601502
     RDKit          3D

 25 27  0  0  0  0  0  0  0  0999 V2000
    4.9573   15.2317   28.0906 C   0  0  0  0  0  0  0  0  0  0  0  0
    5.7959   14.3665   27.3245 O   0  0  0  0  0  0  0  0  0  0  0  0
    5.4638   13.0552   27.4024 C   0  0  0  0  0  0  0  0  0  0  0  0
    4.5798   12.5789   28.0983 O   0  0  0  0  0  0  0  0  0  0  0  0
    6.3519   12.2363   26.5345 C   0  0  0  0  0  0  0  0  0  0  0  0
    6.1893   10.8481   26.5516 C   0  0  0  0  0  0  0  0  0  0  0  0
    6.9657   10.0143   25.7403 C   0  0  0  0  0  0  0  0  0  0  0  0
    7.9210   10.6016   24.9076 C   0  0  0  0  0  0  0  0  0  0  0  0
    8.0932   11.9809   24.8672 C   0  0  0  0  0  0  0  0  0  0  0  0
    7.3182   12.8134   25.6980 C   0  0  0  0  0  0  0  0  0  0  0  0
    9.1293   12.1804   23.9310 C   0  0  0  0  0  0  0  0  0  0  0  0
    9.8820   13.4015   23.6734 C   0  0  0  0  0  0  0  0  0  0  0  0
    9.7531   14.3599   24.3218 O   0  0  0  0  0  0  0  0  0  0  0  0
   10.8567   13.0984   22.5311 N   0  0  0  0  0  0  0  0  0  0  0  0
   11.9324   13.8629   22.0090 C   0  0  2  0  0  0  0  0  0  0  0  0
   12.4472   14.8270   23.0312 C   0  0  0  0  0  0  0  0  0  0  0  0
   11.8213   14.4986   20.6438 C   0  0  0  0  0  0  0  0  0  0  0  0
   10.6347   15.3168   20.3755 C   0  0  0  0  0  0  0  0  0  0  0  0
   10.1993   15.6942   19.1353 C   0  0  0  0  0  0  0  0  0  0  0  0
    9.2421   16.6372   19.2878 O   0  0  0  0  0  0  0  0  0  0  0  0
    9.1031   16.7410   20.6365 C   0  0  0  0  0  0  0  0  0  0  0  0
    9.8952   15.9546   21.3310 N   0  0  0  0  0  0  0  0  0  0  0  0
    9.4976   11.0316   23.3370 N   0  0  0  0  0  0  0  0  0  0  0  0
    8.8130   10.0918   23.9921 N   0  0  0  0  0  0  0  0  0  0  0  0
    9.0958    8.7176   23.6639 C   0  0  0  0  0  0  0  0  0  0  0  0
  1  2  1  0
  2  3  1  0
  3  4  2  0
  3  5  1  0
  5  6  2  0
  6  7  1  0
  7  8  2  0
  8  9  1  0
  9 10  2  0
  9 11  1  0
 11 12  1  0
 12 13  2  0
 12 14  1  0
 14 15  1  0
 15 16  1  1
 15 17  1  0
 17 18  1  0
 18 19  2  0
 19 20  1  0
 20 21  1  0
 21 22  2  0
 11 23  2  0
 23 24  1  0
 24 25  1  0
 10  5  1  0
 22 18  1  0
 24  8  1  0
M  END
>  <energy_score>  (3724) 
-13.544679

>  <inchikey>  (3724) 
WAXKGPOPNPBULI-UHFFFAOYSA-N

>  <smiles>  (3724) 
COC(=O)c1ccc2c(c1)c(C(=O)NC(C)Cc1cocn1)nn2C

>  <ref_pdb>  (3724) 
A0514a

>  <alias>  (3724) 
WAXKGPOPNPBULI-UHFFFAOYSA-N-P183-P126-P183-601502

>  <HIPPO Pose ID>  (3724) 
503415

>  <name>  (3724) 
WAXKGPOPNPBULI-UHFFFAOYSA-N-P183-P126-P183-601502

>  <HIPPO Compound ID>  (3724) 
289842

>  <ref_mols>  (3724) 
A2290a,A3436a

>  <distance_score>  (3724) 
0.6101

>  <inspiration_score>  (3724) 
None

$$$$
GAZCAKNIIVMANI-UHFFFAOYSA-N-P183-P126-P183-601502
     RDKit          3D

 25 27  0  0  0  0  0  0  0  0999 V2000
    5.8024   16.5572   27.3794 C   0  0  0  0  0  0  0  0  0  0  0  0
    6.1412   15.3007   26.7925 O   0  0  0  0  0  0  0  0  0  0  0  0
    7.4571   15.1881   26.4371 C   0  0  0  0  0  0  0  0  0  0  0  0
    8.3062   16.0409   26.6840 O   0  0  0  0  0  0  0  0  0  0  0  0
    7.7604   13.9093   25.7825 C   0  0  0  0  0  0  0  0  0  0  0  0
    8.7777   13.7832   24.9126 N   0  0  0  0  0  0  0  0  0  0  0  0
    8.8285   12.4698   24.6229 N   0  0  0  0  0  0  0  0  0  0  0  0
    9.7961   11.9697   23.6809 C   0  0  0  0  0  0  0  0  0  0  0  0
   11.1568   12.6044   23.8576 C   0  0  0  0  0  0  0  0  0  0  0  0
   12.0479   12.0689   24.3735 O   0  0  0  0  0  0  0  0  0  0  0  0
   11.0887   13.9550   23.1522 N   0  0  0  0  0  0  0  0  0  0  0  0
   12.1089   14.8861   22.8487 C   0  0  0  0  0  0  0  0  0  0  0  0
   12.2333   14.9604   21.3527 C   0  0  0  0  0  0  0  0  0  0  0  0
   10.9783   15.4155   20.7094 C   0  0  0  0  0  0  0  0  0  0  0  0
    9.9630   16.0458   21.3724 N   0  0  0  0  0  0  0  0  0  0  0  0
    9.1823   16.4828   20.4126 C   0  0  0  0  0  0  0  0  0  0  0  0
    9.5342   16.0654   19.1628 O   0  0  0  0  0  0  0  0  0  0  0  0
   10.6780   15.3620   19.3796 C   0  0  0  0  0  0  0  0  0  0  0  0
   11.4154   14.8111   18.2564 C   0  0  0  0  0  0  0  0  0  0  0  0
    7.8793   11.7272   25.2612 C   0  0  0  0  0  0  0  0  0  0  0  0
    7.6142   10.3625   25.2629 C   0  0  0  0  0  0  0  0  0  0  0  0
    6.5356    9.9449   26.0377 C   0  0  0  0  0  0  0  0  0  0  0  0
    5.8098   10.8216   26.8339 C   0  0  0  0  0  0  0  0  0  0  0  0
    6.1060   12.1802   26.8348 C   0  0  0  0  0  0  0  0  0  0  0  0
    7.1459   12.6455   26.0143 C   0  0  0  0  0  0  0  0  0  0  0  0
  1  2  1  0
  2  3  1  0
  3  4  2  0
  3  5  1  0
  5  6  2  0
  6  7  1  0
  7  8  1  0
  8  9  1  0
  9 10  2  0
  9 11  1  0
 11 12  1  0
 12 13  1  0
 13 14  1  0
 14 15  1  0
 15 16  2  0
 16 17  1  0
 17 18  1  0
 18 19  1  0
  7 20  1  0
 20 21  2  0
 21 22  1  0
 22 23  2  0
 23 24  1  0
 24 25  2  0
 25  5  1  0
 18 14  2  0
 25 20  1  0
M  END
>  <energy_score>  (3725) 
-11.519728

>  <inchikey>  (3725) 
GAZCAKNIIVMANI-UHFFFAOYSA-N

>  <smiles>  (3725) 
COC(=O)c1nn(CC(=O)NCCc2ncoc2C)c2ccccc12

>  <ref_pdb>  (3725) 
A0514a

>  <alias>  (3725) 
GAZCAKNIIVMANI-UHFFFAOYSA-N-P183-P126-P183-601502

>  <HIPPO Pose ID>  (3725) 
503419

>  <name>  (3725) 
GAZCAKNIIVMANI-UHFFFAOYSA-N-P183-P126-P183-601502

>  <HIPPO Compound ID>  (3725) 
289844

>  <ref_mols>  (3725) 
A2290a,A3436a

>  <distance_score>  (3725) 
1.608322

>  <inspiration_score>  (3725) 
None

$$$$
NFKBWSGWMMTOMN-UHFFFAOYSA-N-P126-P126-P183-601502
     RDKit          3D

 25 27  0  0  0  0  0  0  0  0999 V2000
    8.6010   17.3315   20.7216 C   0  0  0  0  0  0  0  0  0  0  0  0
    9.5688   16.2316   20.5782 C   0  0  0  0  0  0  0  0  0  0  0  0
   10.2554   15.6285   21.5281 N   0  0  0  0  0  0  0  0  0  0  0  0
   11.1794   14.8979   20.8517 C   0  0  0  0  0  0  0  0  0  0  0  0
   12.4053   14.3384   21.4502 C   0  0  0  0  0  0  0  0  0  0  0  0
   12.3624   14.2563   22.9461 C   0  0  0  0  0  0  0  0  0  0  0  0
   11.4533   13.2706   23.3988 N   0  0  0  0  0  0  0  0  0  0  0  0
   10.4380   13.3059   24.5355 C   0  0  0  0  0  0  0  0  0  0  0  0
   10.2321   14.1218   25.3383 O   0  0  0  0  0  0  0  0  0  0  0  0
    9.6990   12.0494   24.4433 C   0  0  0  0  0  0  0  0  0  0  0  0
   10.1369   11.0891   23.6109 N   0  0  0  0  0  0  0  0  0  0  0  0
    9.3292   10.0312   23.8437 N   0  0  0  0  0  0  0  0  0  0  0  0
    9.5254    8.8055   23.0534 C   0  0  0  0  0  0  0  0  0  0  0  0
    8.3810    8.1102   22.9363 F   0  0  0  0  0  0  0  0  0  0  0  0
   10.4540    7.9720   23.5738 F   0  0  0  0  0  0  0  0  0  0  0  0
    9.9590    9.0874   21.8002 F   0  0  0  0  0  0  0  0  0  0  0  0
    8.3697   10.3174   24.7992 C   0  0  0  0  0  0  0  0  0  0  0  0
    7.3592    9.5631   25.3922 C   0  0  0  0  0  0  0  0  0  0  0  0
    6.5105   10.1815   26.3165 C   0  0  0  0  0  0  0  0  0  0  0  0
    6.6660   11.5219   26.6480 C   0  0  0  0  0  0  0  0  0  0  0  0
    7.6929   12.2697   26.0763 C   0  0  0  0  0  0  0  0  0  0  0  0
    8.5549   11.6515   25.1528 C   0  0  0  0  0  0  0  0  0  0  0  0
   10.9180   14.9702   19.5148 C   0  0  0  0  0  0  0  0  0  0  0  0
   11.7000   14.4852   18.3903 C   0  0  0  0  0  0  0  0  0  0  0  0
    9.8701   15.8147   19.3126 O   0  0  0  0  0  0  0  0  0  0  0  0
  1  2  1  0
  2  3  2  0
  3  4  1  0
  4  5  1  0
  5  6  1  0
  6  7  1  0
  7  8  1  0
  8  9  2  0
  8 10  1  0
 10 11  2  0
 11 12  1  0
 12 13  1  0
 13 14  1  0
 13 15  1  0
 13 16  1  0
 12 17  1  0
 17 18  2  0
 18 19  1  0
 19 20  2  0
 20 21  1  0
 21 22  2  0
  4 23  2  0
 23 24  1  0
 23 25  1  0
 25  2  1  0
 22 10  1  0
 22 17  1  0
M  END
>  <energy_score>  (3726) 
-27.295087

>  <inchikey>  (3726) 
NFKBWSGWMMTOMN-UHFFFAOYSA-N

>  <smiles>  (3726) 
Cc1nc(CCNC(=O)c2nn(C(F)(F)F)c3ccccc23)c(C)o1

>  <ref_pdb>  (3726) 
A0514a

>  <alias>  (3726) 
NFKBWSGWMMTOMN-UHFFFAOYSA-N-P126-P126-P183-601502

>  <HIPPO Pose ID>  (3726) 
503420

>  <name>  (3726) 
NFKBWSGWMMTOMN-UHFFFAOYSA-N-P126-P126-P183-601502

>  <HIPPO Compound ID>  (3726) 
289845

>  <ref_mols>  (3726) 
A2290a,A3436a

>  <distance_score>  (3726) 
0.682317

>  <inspiration_score>  (3726) 
None

$$$$
NFKBWSGWMMTOMN-UHFFFAOYSA-N-P183-P126-P183-601502
     RDKit          3D

 25 27  0  0  0  0  0  0  0  0999 V2000
    8.3970   17.5244   20.6515 C   0  0  0  0  0  0  0  0  0  0  0  0
    9.4411   16.5219   20.4949 C   0  0  0  0  0  0  0  0  0  0  0  0
   10.1575   15.9673   21.4431 N   0  0  0  0  0  0  0  0  0  0  0  0
   11.0693   15.2260   20.7672 C   0  0  0  0  0  0  0  0  0  0  0  0
   12.2544   14.6455   21.4184 C   0  0  0  0  0  0  0  0  0  0  0  0
   12.1301   14.5629   22.9215 C   0  0  0  0  0  0  0  0  0  0  0  0
   11.1627   13.5949   23.3098 N   0  0  0  0  0  0  0  0  0  0  0  0
   10.0799   13.6505   24.3805 C   0  0  0  0  0  0  0  0  0  0  0  0
    9.8466   14.4657   25.1753 O   0  0  0  0  0  0  0  0  0  0  0  0
    9.3337   12.3973   24.2955 C   0  0  0  0  0  0  0  0  0  0  0  0
    9.7812   11.3948   23.5212 N   0  0  0  0  0  0  0  0  0  0  0  0
    9.0739   10.3149   23.9306 N   0  0  0  0  0  0  0  0  0  0  0  0
    9.4891    8.9805   23.4779 C   0  0  0  0  0  0  0  0  0  0  0  0
    9.4278    8.8548   22.1358 F   0  0  0  0  0  0  0  0  0  0  0  0
    8.7110    8.0289   24.0231 F   0  0  0  0  0  0  0  0  0  0  0  0
   10.7714    8.7152   23.8234 F   0  0  0  0  0  0  0  0  0  0  0  0
    8.0955   10.6496   24.8539 C   0  0  0  0  0  0  0  0  0  0  0  0
    7.1458    9.9081   25.5652 C   0  0  0  0  0  0  0  0  0  0  0  0
    6.2788   10.5783   26.4338 C   0  0  0  0  0  0  0  0  0  0  0  0
    6.3531   11.9553   26.5954 C   0  0  0  0  0  0  0  0  0  0  0  0
    7.3112   12.6919   25.9013 C   0  0  0  0  0  0  0  0  0  0  0  0
    8.1953   12.0251   25.0333 C   0  0  0  0  0  0  0  0  0  0  0  0
   10.7848   15.2720   19.4304 C   0  0  0  0  0  0  0  0  0  0  0  0
   11.4739   14.7475   18.2691 C   0  0  0  0  0  0  0  0  0  0  0  0
    9.7260   16.0985   19.2331 O   0  0  0  0  0  0  0  0  0  0  0  0
  1  2  1  0
  2  3  2  0
  3  4  1  0
  4  5  1  0
  5  6  1  0
  6  7  1  0
  7  8  1  0
  8  9  2  0
  8 10  1  0
 10 11  2  0
 11 12  1  0
 12 13  1  0
 13 14  1  0
 13 15  1  0
 13 16  1  0
 12 17  1  0
 17 18  2  0
 18 19  1  0
 19 20  2  0
 20 21  1  0
 21 22  2  0
  4 23  2  0
 23 24  1  0
 23 25  1  0
 25  2  1  0
 22 10  1  0
 22 17  1  0
M  END
>  <energy_score>  (3727) 
-28.713104

>  <inchikey>  (3727) 
NFKBWSGWMMTOMN-UHFFFAOYSA-N

>  <smiles>  (3727) 
Cc1nc(CCNC(=O)c2nn(C(F)(F)F)c3ccccc23)c(C)o1

>  <ref_pdb>  (3727) 
A0514a

>  <alias>  (3727) 
NFKBWSGWMMTOMN-UHFFFAOYSA-N-P183-P126-P183-601502

>  <HIPPO Pose ID>  (3727) 
503421

>  <name>  (3727) 
NFKBWSGWMMTOMN-UHFFFAOYSA-N-P183-P126-P183-601502

>  <HIPPO Compound ID>  (3727) 
289845

>  <ref_mols>  (3727) 
A2290a,A3436a

>  <distance_score>  (3727) 
0.668755

>  <inspiration_score>  (3727) 
None

$$$$
JWCKBUWRPPQKGH-UHFFFAOYSA-N-P126-P126-P183-601502
     RDKit          3D

 25 27  0  0  0  0  0  0  0  0999 V2000
   14.4941   11.9544   24.9644 C   0  0  0  0  0  0  0  0  0  0  0  0
   13.6573   12.4939   23.9166 O   0  0  0  0  0  0  0  0  0  0  0  0
   12.7254   13.4017   24.2794 C   0  0  0  0  0  0  0  0  0  0  0  0
   12.4923   13.6706   25.4598 O   0  0  0  0  0  0  0  0  0  0  0  0
   11.8774   14.0125   23.1588 C   0  0  1  0  0  0  0  0  0  0  0  0
   12.2801   14.0654   21.6968 C   0  0  0  0  0  0  0  0  0  0  0  0
   11.2301   14.7521   20.8741 C   0  0  0  0  0  0  0  0  0  0  0  0
   11.0089   14.7776   19.5165 C   0  0  0  0  0  0  0  0  0  0  0  0
    9.9627   15.6210   19.2658 O   0  0  0  0  0  0  0  0  0  0  0  0
    9.6113   16.0824   20.4902 C   0  0  0  0  0  0  0  0  0  0  0  0
   10.3019   15.5670   21.4776 N   0  0  0  0  0  0  0  0  0  0  0  0
   10.7315   13.2107   23.4203 N   0  0  0  0  0  0  0  0  0  0  0  0
    9.5821   13.4178   24.3912 C   0  0  0  0  0  0  0  0  0  0  0  0
    9.3353   14.3139   25.0864 O   0  0  0  0  0  0  0  0  0  0  0  0
    8.8351   12.1729   24.3786 C   0  0  0  0  0  0  0  0  0  0  0  0
    9.2789   11.1300   23.6451 N   0  0  0  0  0  0  0  0  0  0  0  0
    8.5970   10.0905   24.1335 N   0  0  0  0  0  0  0  0  0  0  0  0
    8.9773    8.7698   23.7028 C   0  0  0  0  0  0  0  0  0  0  0  0
    7.6789   10.4398   25.0930 C   0  0  0  0  0  0  0  0  0  0  0  0
    6.7528    9.7096   25.8323 C   0  0  0  0  0  0  0  0  0  0  0  0
    5.9956   10.3823   26.7922 C   0  0  0  0  0  0  0  0  0  0  0  0
    6.1562   11.7448   26.9919 C   0  0  0  0  0  0  0  0  0  0  0  0
    5.4244   12.3569   27.9326 F   0  0  0  0  0  0  0  0  0  0  0  0
    7.0615   12.4831   26.2442 C   0  0  0  0  0  0  0  0  0  0  0  0
    7.8138   11.8109   25.2682 C   0  0  0  0  0  0  0  0  0  0  0  0
  1  2  1  0
  2  3  1  0
  3  4  2  0
  3  5  1  0
  5  6  1  6
  6  7  1  0
  7  8  2  0
  8  9  1  0
  9 10  1  0
 10 11  2  0
  5 12  1  0
 12 13  1  0
 13 14  2  0
 13 15  1  0
 15 16  2  0
 16 17  1  0
 17 18  1  0
 17 19  1  0
 19 20  2  0
 20 21  1  0
 21 22  2  0
 22 23  1  0
 22 24  1  0
 24 25  2  0
 11  7  1  0
 25 15  1  0
 25 19  1  0
M  END
>  <energy_score>  (3728) 
-23.950865

>  <inchikey>  (3728) 
JWCKBUWRPPQKGH-UHFFFAOYSA-N

>  <smiles>  (3728) 
COC(=O)C(Cc1cocn1)NC(=O)c1nn(C)c2ccc(F)cc12

>  <ref_pdb>  (3728) 
A0514a

>  <alias>  (3728) 
JWCKBUWRPPQKGH-UHFFFAOYSA-N-P126-P126-P183-601502

>  <HIPPO Pose ID>  (3728) 
503422

>  <name>  (3728) 
JWCKBUWRPPQKGH-UHFFFAOYSA-N-P126-P126-P183-601502

>  <HIPPO Compound ID>  (3728) 
289846

>  <ref_mols>  (3728) 
A2290a,A3436a

>  <distance_score>  (3728) 
0.96948

>  <inspiration_score>  (3728) 
None

$$$$
JWCKBUWRPPQKGH-UHFFFAOYSA-N-P183-P126-P183-601502
     RDKit          3D

 25 27  0  0  0  0  0  0  0  0999 V2000
   12.4979   13.2365   24.8286 C   0  0  0  0  0  0  0  0  0  0  0  0
   12.7746   13.2246   23.4449 O   0  0  0  0  0  0  0  0  0  0  0  0
   12.5403   14.4099   22.8437 C   0  0  0  0  0  0  0  0  0  0  0  0
   13.4193   15.2201   22.6107 O   0  0  0  0  0  0  0  0  0  0  0  0
   11.1616   14.6543   22.3680 C   0  0  1  0  0  0  0  0  0  0  0  0
   11.2708   14.7825   20.8783 C   0  0  0  0  0  0  0  0  0  0  0  0
   10.2199   15.6413   20.3509 C   0  0  0  0  0  0  0  0  0  0  0  0
    9.9305   15.8474   19.0406 C   0  0  0  0  0  0  0  0  0  0  0  0
    9.0875   16.9038   18.9682 O   0  0  0  0  0  0  0  0  0  0  0  0
    8.8727   17.2550   20.2635 C   0  0  0  0  0  0  0  0  0  0  0  0
    9.4926   16.4947   21.1298 N   0  0  0  0  0  0  0  0  0  0  0  0
   10.2728   13.6564   22.8493 N   0  0  0  0  0  0  0  0  0  0  0  0
    9.3207   13.6700   24.0308 C   0  0  0  0  0  0  0  0  0  0  0  0
    9.0444   14.5243   24.7649 O   0  0  0  0  0  0  0  0  0  0  0  0
    8.8199   12.3187   24.2051 C   0  0  0  0  0  0  0  0  0  0  0  0
    9.3563   11.2836   23.5327 N   0  0  0  0  0  0  0  0  0  0  0  0
    8.7576   10.2094   24.0677 N   0  0  0  0  0  0  0  0  0  0  0  0
    9.1850    8.9037   23.6211 C   0  0  0  0  0  0  0  0  0  0  0  0
    7.8107   10.5351   25.0132 C   0  0  0  0  0  0  0  0  0  0  0  0
    6.8953    9.7865   25.7510 C   0  0  0  0  0  0  0  0  0  0  0  0
    6.0613   10.4459   26.6571 C   0  0  0  0  0  0  0  0  0  0  0  0
    6.1292   11.8207   26.8025 C   0  0  0  0  0  0  0  0  0  0  0  0
    5.3286   12.4251   27.6899 F   0  0  0  0  0  0  0  0  0  0  0  0
    7.0071   12.5801   26.0440 C   0  0  0  0  0  0  0  0  0  0  0  0
    7.8442   11.9169   25.1293 C   0  0  0  0  0  0  0  0  0  0  0  0
  1  2  1  0
  2  3  1  0
  3  4  2  0
  3  5  1  0
  5  6  1  6
  6  7  1  0
  7  8  2  0
  8  9  1  0
  9 10  1  0
 10 11  2  0
  5 12  1  0
 12 13  1  0
 13 14  2  0
 13 15  1  0
 15 16  2  0
 16 17  1  0
 17 18  1  0
 17 19  1  0
 19 20  2  0
 20 21  1  0
 21 22  2  0
 22 23  1  0
 22 24  1  0
 24 25  2  0
 11  7  1  0
 25 15  1  0
 25 19  1  0
M  END
>  <energy_score>  (3729) 
-24.502232

>  <inchikey>  (3729) 
JWCKBUWRPPQKGH-UHFFFAOYSA-N

>  <smiles>  (3729) 
COC(=O)C(Cc1cocn1)NC(=O)c1nn(C)c2ccc(F)cc12

>  <ref_pdb>  (3729) 
A0514a

>  <alias>  (3729) 
JWCKBUWRPPQKGH-UHFFFAOYSA-N-P183-P126-P183-601502

>  <HIPPO Pose ID>  (3729) 
503423

>  <name>  (3729) 
JWCKBUWRPPQKGH-UHFFFAOYSA-N-P183-P126-P183-601502

>  <HIPPO Compound ID>  (3729) 
289846

>  <ref_mols>  (3729) 
A2290a,A3436a

>  <distance_score>  (3729) 
0.956078

>  <inspiration_score>  (3729) 
None

$$$$
PBMCPYDYJVOWNM-UHFFFAOYSA-N-P126-P126-P183-601502
     RDKit          3D

 26 28  0  0  0  0  0  0  0  0999 V2000
    3.5947   12.4400   28.8107 C   0  0  0  0  0  0  0  0  0  0  0  0
    4.4659   11.7905   27.8845 O   0  0  0  0  0  0  0  0  0  0  0  0
    5.7059   12.3389   27.8268 C   0  0  0  0  0  0  0  0  0  0  0  0
    6.1141   13.2714   28.4998 O   0  0  0  0  0  0  0  0  0  0  0  0
    6.5293   11.6425   26.8098 C   0  0  0  0  0  0  0  0  0  0  0  0
    6.3039   10.3069   26.4750 C   0  0  0  0  0  0  0  0  0  0  0  0
    7.1069    9.6564   25.5330 C   0  0  0  0  0  0  0  0  0  0  0  0
    8.1350   10.3720   24.9228 C   0  0  0  0  0  0  0  0  0  0  0  0
    8.3905   11.6956   25.2636 C   0  0  0  0  0  0  0  0  0  0  0  0
    7.5857   12.3463   26.2179 C   0  0  0  0  0  0  0  0  0  0  0  0
    9.5315   12.0407   24.5107 C   0  0  0  0  0  0  0  0  0  0  0  0
   10.3200   13.2718   24.5850 C   0  0  0  0  0  0  0  0  0  0  0  0
   10.1457   14.0882   25.3949 O   0  0  0  0  0  0  0  0  0  0  0  0
   11.3349   13.2064   23.4484 N   0  0  0  0  0  0  0  0  0  0  0  0
   12.2854   14.1620   23.0040 C   0  0  0  0  0  0  0  0  0  0  0  0
   12.3590   14.2688   21.5074 C   0  0  0  0  0  0  0  0  0  0  0  0
   11.1610   14.8638   20.8847 C   0  0  0  0  0  0  0  0  0  0  0  0
   10.2344   15.5988   21.5535 N   0  0  0  0  0  0  0  0  0  0  0  0
    9.5683   16.2193   20.5996 C   0  0  0  0  0  0  0  0  0  0  0  0
    8.6042   17.3236   20.7361 C   0  0  0  0  0  0  0  0  0  0  0  0
    9.8860   15.8140   19.3353 O   0  0  0  0  0  0  0  0  0  0  0  0
   10.9235   14.9588   19.5433 C   0  0  0  0  0  0  0  0  0  0  0  0
   11.7058   14.4810   18.4158 C   0  0  0  0  0  0  0  0  0  0  0  0
    9.9022   11.0491   23.6779 N   0  0  0  0  0  0  0  0  0  0  0  0
    9.0602   10.0476   23.9597 N   0  0  0  0  0  0  0  0  0  0  0  0
    9.2336    8.8062   23.2453 C   0  0  0  0  0  0  0  0  0  0  0  0
  1  2  1  0
  2  3  1  0
  3  4  2  0
  3  5  1  0
  5  6  2  0
  6  7  1  0
  7  8  2  0
  8  9  1  0
  9 10  2  0
  9 11  1  0
 11 12  1  0
 12 13  2  0
 12 14  1  0
 14 15  1  0
 15 16  1  0
 16 17  1  0
 17 18  1  0
 18 19  2  0
 19 20  1  0
 19 21  1  0
 21 22  1  0
 22 23  1  0
 11 24  2  0
 24 25  1  0
 25 26  1  0
 10  5  1  0
 22 17  2  0
 25  8  1  0
M  END
>  <energy_score>  (3730) 
-14.408142

>  <inchikey>  (3730) 
PBMCPYDYJVOWNM-UHFFFAOYSA-N

>  <smiles>  (3730) 
COC(=O)c1ccc2c(c1)c(C(=O)NCCc1nc(C)oc1C)nn2C

>  <ref_pdb>  (3730) 
A0514a

>  <alias>  (3730) 
PBMCPYDYJVOWNM-UHFFFAOYSA-N-P126-P126-P183-601502

>  <HIPPO Pose ID>  (3730) 
503424

>  <name>  (3730) 
PBMCPYDYJVOWNM-UHFFFAOYSA-N-P126-P126-P183-601502

>  <HIPPO Compound ID>  (3730) 
289847

>  <ref_mols>  (3730) 
A2290a,A3436a

>  <distance_score>  (3730) 
0.730797

>  <inspiration_score>  (3730) 
None

$$$$
PBMCPYDYJVOWNM-UHFFFAOYSA-N-P183-P126-P183-601502
     RDKit          3D

 26 28  0  0  0  0  0  0  0  0999 V2000
    3.2807   12.6624   28.6252 C   0  0  0  0  0  0  0  0  0  0  0  0
    4.2090   11.9906   27.7732 O   0  0  0  0  0  0  0  0  0  0  0  0
    5.3635   12.6775   27.5773 C   0  0  0  0  0  0  0  0  0  0  0  0
    5.6574   13.7473   28.0854 O   0  0  0  0  0  0  0  0  0  0  0  0
    6.2536   11.9391   26.6485 C   0  0  0  0  0  0  0  0  0  0  0  0
    6.1618   10.5563   26.4867 C   0  0  0  0  0  0  0  0  0  0  0  0
    7.0240    9.8738   25.6220 C   0  0  0  0  0  0  0  0  0  0  0  0
    7.9873   10.6014   24.9196 C   0  0  0  0  0  0  0  0  0  0  0  0
    8.1130   11.9744   25.0924 C   0  0  0  0  0  0  0  0  0  0  0  0
    7.2402   12.6582   25.9617 C   0  0  0  0  0  0  0  0  0  0  0  0
    9.2549   12.3219   24.3391 C   0  0  0  0  0  0  0  0  0  0  0  0
   10.0049   13.5789   24.4009 C   0  0  0  0  0  0  0  0  0  0  0  0
    9.7934   14.3837   25.2127 O   0  0  0  0  0  0  0  0  0  0  0  0
   11.0819   13.5198   23.3240 N   0  0  0  0  0  0  0  0  0  0  0  0
   12.0707   14.4747   22.9496 C   0  0  0  0  0  0  0  0  0  0  0  0
   12.2144   14.5822   21.4489 C   0  0  0  0  0  0  0  0  0  0  0  0
   11.0508   15.1947   20.7876 C   0  0  0  0  0  0  0  0  0  0  0  0
   10.1421   15.9422   21.4613 N   0  0  0  0  0  0  0  0  0  0  0  0
    9.4422   16.5158   20.5118 C   0  0  0  0  0  0  0  0  0  0  0  0
    8.4046   17.5253   20.6680 C   0  0  0  0  0  0  0  0  0  0  0  0
    9.7378   16.1057   19.2484 O   0  0  0  0  0  0  0  0  0  0  0  0
   10.7849   15.2646   19.4472 C   0  0  0  0  0  0  0  0  0  0  0  0
   11.4774   14.7481   18.2841 C   0  0  0  0  0  0  0  0  0  0  0  0
    9.6974   11.2895   23.5955 N   0  0  0  0  0  0  0  0  0  0  0  0
    8.9473   10.2521   23.9963 N   0  0  0  0  0  0  0  0  0  0  0  0
    9.2798    8.9446   23.4788 C   0  0  0  0  0  0  0  0  0  0  0  0
  1  2  1  0
  2  3  1  0
  3  4  2  0
  3  5  1  0
  5  6  2  0
  6  7  1  0
  7  8  2  0
  8  9  1  0
  9 10  2  0
  9 11  1  0
 11 12  1  0
 12 13  2  0
 12 14  1  0
 14 15  1  0
 15 16  1  0
 16 17  1  0
 17 18  1  0
 18 19  2  0
 19 20  1  0
 19 21  1  0
 21 22  1  0
 22 23  1  0
 11 24  2  0
 24 25  1  0
 25 26  1  0
 10  5  1  0
 22 17  2  0
 25  8  1  0
M  END
>  <energy_score>  (3731) 
-15.582609

>  <inchikey>  (3731) 
PBMCPYDYJVOWNM-UHFFFAOYSA-N

>  <smiles>  (3731) 
COC(=O)c1ccc2c(c1)c(C(=O)NCCc1nc(C)oc1C)nn2C

>  <ref_pdb>  (3731) 
A0514a

>  <alias>  (3731) 
PBMCPYDYJVOWNM-UHFFFAOYSA-N-P183-P126-P183-601502

>  <HIPPO Pose ID>  (3731) 
503425

>  <name>  (3731) 
PBMCPYDYJVOWNM-UHFFFAOYSA-N-P183-P126-P183-601502

>  <HIPPO Compound ID>  (3731) 
289847

>  <ref_mols>  (3731) 
A2290a,A3436a

>  <distance_score>  (3731) 
0.70025

>  <inspiration_score>  (3731) 
None

$$$$
IXNCWEVJUOJTLK-UHFFFAOYSA-N-P183-P126-P183-601502
     RDKit          3D

 26 28  0  0  0  0  0  0  0  0999 V2000
    6.0620   16.5506   27.4595 C   0  0  0  0  0  0  0  0  0  0  0  0
    6.3594   15.2661   26.9130 O   0  0  0  0  0  0  0  0  0  0  0  0
    7.6680   15.0956   26.5537 C   0  0  0  0  0  0  0  0  0  0  0  0
    8.5475   15.9251   26.7780 O   0  0  0  0  0  0  0  0  0  0  0  0
    7.9129   13.7941   25.9157 C   0  0  0  0  0  0  0  0  0  0  0  0
    9.0157   13.5586   25.1789 N   0  0  0  0  0  0  0  0  0  0  0  0
    8.8084   12.3274   24.6636 N   0  0  0  0  0  0  0  0  0  0  0  0
    9.5912   11.8512   23.5549 C   0  0  0  0  0  0  0  0  0  0  0  0
    9.9778   13.0299   22.7218 C   0  0  0  0  0  0  0  0  0  0  0  0
    9.2585   13.5093   21.9377 O   0  0  0  0  0  0  0  0  0  0  0  0
   11.3965   13.4597   23.1798 N   0  0  0  0  0  0  0  0  0  0  0  0
   12.1710   14.6082   22.8391 C   0  0  0  0  0  0  0  0  0  0  0  0
   12.3227   14.7820   21.3485 C   0  0  0  0  0  0  0  0  0  0  0  0
   11.1408   15.3639   20.7014 C   0  0  0  0  0  0  0  0  0  0  0  0
   10.3061   16.2122   21.3479 N   0  0  0  0  0  0  0  0  0  0  0  0
    9.4953   16.6387   20.4108 C   0  0  0  0  0  0  0  0  0  0  0  0
    8.4084   17.5961   20.5562 C   0  0  0  0  0  0  0  0  0  0  0  0
    9.7179   16.1155   19.1726 O   0  0  0  0  0  0  0  0  0  0  0  0
   10.7927   15.3129   19.3812 C   0  0  0  0  0  0  0  0  0  0  0  0
   11.4430   14.7096   18.2394 C   0  0  0  0  0  0  0  0  0  0  0  0
    7.8591   11.6199   25.3299 C   0  0  0  0  0  0  0  0  0  0  0  0
    7.5224   10.2747   25.3158 C   0  0  0  0  0  0  0  0  0  0  0  0
    6.4171    9.9179   26.0828 C   0  0  0  0  0  0  0  0  0  0  0  0
    5.7289   10.8349   26.8687 C   0  0  0  0  0  0  0  0  0  0  0  0
    6.0980   12.1752   26.8775 C   0  0  0  0  0  0  0  0  0  0  0  0
    7.1874   12.5759   26.0895 C   0  0  0  0  0  0  0  0  0  0  0  0
  1  2  1  0
  2  3  1  0
  3  4  2  0
  3  5  1  0
  5  6  2  0
  6  7  1  0
  7  8  1  0
  8  9  1  0
  9 10  2  0
  9 11  1  0
 11 12  1  0
 12 13  1  0
 13 14  1  0
 14 15  1  0
 15 16  2  0
 16 17  1  0
 16 18  1  0
 18 19  1  0
 19 20  1  0
  7 21  1  0
 21 22  2  0
 22 23  1  0
 23 24  2  0
 24 25  1  0
 25 26  2  0
 26  5  1  0
 19 14  2  0
 26 21  1  0
M  END
>  <energy_score>  (3732) 
-10.752128

>  <inchikey>  (3732) 
IXNCWEVJUOJTLK-UHFFFAOYSA-N

>  <smiles>  (3732) 
COC(=O)c1nn(CC(=O)NCCc2nc(C)oc2C)c2ccccc12

>  <ref_pdb>  (3732) 
A0514a

>  <alias>  (3732) 
IXNCWEVJUOJTLK-UHFFFAOYSA-N-P183-P126-P183-601502

>  <HIPPO Pose ID>  (3732) 
503427

>  <name>  (3732) 
IXNCWEVJUOJTLK-UHFFFAOYSA-N-P183-P126-P183-601502

>  <HIPPO Compound ID>  (3732) 
289848

>  <ref_mols>  (3732) 
A2290a,A3436a

>  <distance_score>  (3732) 
1.479117

>  <inspiration_score>  (3732) 
None

$$$$
YBFFWHXYRDALLY-UHFFFAOYSA-N-P126-P126-P183-601502
     RDKit          3D

 27 29  0  0  0  0  0  0  0  0999 V2000
   12.6490   12.9985   24.1183 C   0  0  0  0  0  0  0  0  0  0  0  0
   12.8240   13.0612   22.7067 O   0  0  0  0  0  0  0  0  0  0  0  0
   12.5413   14.2552   22.1237 C   0  0  0  0  0  0  0  0  0  0  0  0
   13.4166   15.0278   21.7636 O   0  0  0  0  0  0  0  0  0  0  0  0
   11.0766   14.5380   21.8927 C   0  0  1  0  0  0  0  0  0  0  0  0
   10.8031   14.6666   20.4033 C   0  0  0  0  0  0  0  0  0  0  0  0
    9.9430   15.8266   20.0694 C   0  0  0  0  0  0  0  0  0  0  0  0
    9.8562   16.5394   18.8976 C   0  0  0  0  0  0  0  0  0  0  0  0
    9.0383   17.6045   19.0985 O   0  0  0  0  0  0  0  0  0  0  0  0
    8.6846   17.4913   20.4064 C   0  0  0  0  0  0  0  0  0  0  0  0
    9.1340   16.4114   21.0054 N   0  0  0  0  0  0  0  0  0  0  0  0
   10.2615   13.5255   22.5114 N   0  0  0  0  0  0  0  0  0  0  0  0
    9.4796   13.5456   23.8189 C   0  0  0  0  0  0  0  0  0  0  0  0
    9.3002   14.4075   24.5764 O   0  0  0  0  0  0  0  0  0  0  0  0
    9.0152   12.1927   24.0842 C   0  0  0  0  0  0  0  0  0  0  0  0
    9.5187   11.1434   23.4109 N   0  0  0  0  0  0  0  0  0  0  0  0
    8.9149   10.0857   23.9683 N   0  0  0  0  0  0  0  0  0  0  0  0
    9.3091    8.7674   23.5396 C   0  0  0  0  0  0  0  0  0  0  0  0
    7.9969   10.4263   24.9333 C   0  0  0  0  0  0  0  0  0  0  0  0
    7.0997    9.6777   25.6919 C   0  0  0  0  0  0  0  0  0  0  0  0
    6.2762   10.3443   26.6006 C   0  0  0  0  0  0  0  0  0  0  0  0
    6.3658   11.7299   26.7412 C   0  0  0  0  0  0  0  0  0  0  0  0
    5.4914   12.4051   27.6960 N   0  0  0  0  0  0  0  0  0  0  0  0
    4.3825   11.8961   27.9169 O   0  0  0  0  0  0  0  0  0  0  0  0
    5.9321   13.4199   28.2530 O   0  0  0  0  0  0  0  0  0  0  0  0
    7.2660   12.4867   25.9862 C   0  0  0  0  0  0  0  0  0  0  0  0
    8.0707   11.8070   25.0541 C   0  0  0  0  0  0  0  0  0  0  0  0
  1  2  1  0
  2  3  1  0
  3  4  2  0
  3  5  1  0
  5  6  1  6
  6  7  1  0
  7  8  2  0
  8  9  1  0
  9 10  1  0
 10 11  2  0
  5 12  1  0
 12 13  1  0
 13 14  2  0
 13 15  1  0
 15 16  2  0
 16 17  1  0
 17 18  1  0
 17 19  1  0
 19 20  2  0
 20 21  1  0
 21 22  2  0
 22 23  1  0
 23 24  2  0
 23 25  1  0
 22 26  1  0
 26 27  2  0
 11  7  1  0
 27 15  1  0
 27 19  1  0
M  CHG  2  23   1  25  -1
M  END
>  <energy_score>  (3733) 
-10.074535

>  <inchikey>  (3733) 
YBFFWHXYRDALLY-UHFFFAOYSA-N

>  <smiles>  (3733) 
COC(=O)C(Cc1cocn1)NC(=O)c1nn(C)c2ccc([N+](=O)[O-])cc12

>  <ref_pdb>  (3733) 
A0514a

>  <alias>  (3733) 
YBFFWHXYRDALLY-UHFFFAOYSA-N-P126-P126-P183-601502

>  <HIPPO Pose ID>  (3733) 
503428

>  <name>  (3733) 
YBFFWHXYRDALLY-UHFFFAOYSA-N-P126-P126-P183-601502

>  <HIPPO Compound ID>  (3733) 
289849

>  <ref_mols>  (3733) 
A2290a,A3436a

>  <distance_score>  (3733) 
1.007744

>  <inspiration_score>  (3733) 
None

$$$$
YBFFWHXYRDALLY-UHFFFAOYSA-N-P183-P126-P183-601502
     RDKit          3D

 27 29  0  0  0  0  0  0  0  0999 V2000
   13.4571   12.7781   25.0644 C   0  0  0  0  0  0  0  0  0  0  0  0
   12.2667   13.2042   24.4061 O   0  0  0  0  0  0  0  0  0  0  0  0
   12.4077   14.1458   23.4310 C   0  0  0  0  0  0  0  0  0  0  0  0
   13.4556   14.7029   23.1772 O   0  0  0  0  0  0  0  0  0  0  0  0
   11.1903   14.5473   22.6664 C   0  0  1  0  0  0  0  0  0  0  0  0
   11.5437   14.6384   21.1987 C   0  0  0  0  0  0  0  0  0  0  0  0
   10.5221   15.3780   20.4478 C   0  0  0  0  0  0  0  0  0  0  0  0
   10.3406   15.4628   19.0951 C   0  0  0  0  0  0  0  0  0  0  0  0
    9.4107   16.4260   18.8657 O   0  0  0  0  0  0  0  0  0  0  0  0
    9.0846   16.8871   20.1043 C   0  0  0  0  0  0  0  0  0  0  0  0
    9.6830   16.2577   21.0822 N   0  0  0  0  0  0  0  0  0  0  0  0
   10.2342   13.5981   23.0756 N   0  0  0  0  0  0  0  0  0  0  0  0
    9.2240   13.6416   24.2002 C   0  0  0  0  0  0  0  0  0  0  0  0
    8.9522   14.4958   24.9346 O   0  0  0  0  0  0  0  0  0  0  0  0
    8.6622   12.3121   24.2986 C   0  0  0  0  0  0  0  0  0  0  0  0
    9.1922   11.2881   23.6008 N   0  0  0  0  0  0  0  0  0  0  0  0
    8.6288   10.2069   24.1482 N   0  0  0  0  0  0  0  0  0  0  0  0
    9.0867    8.9120   23.7020 C   0  0  0  0  0  0  0  0  0  0  0  0
    7.6743   10.5182   25.0912 C   0  0  0  0  0  0  0  0  0  0  0  0
    6.7656    9.7547   25.8168 C   0  0  0  0  0  0  0  0  0  0  0  0
    5.9166   10.3922   26.7238 C   0  0  0  0  0  0  0  0  0  0  0  0
    5.9705   11.7757   26.8811 C   0  0  0  0  0  0  0  0  0  0  0  0
    5.0666   12.4216   27.8293 N   0  0  0  0  0  0  0  0  0  0  0  0
    3.9817   11.8652   28.0556 O   0  0  0  0  0  0  0  0  0  0  0  0
    5.4605   13.4609   28.3753 O   0  0  0  0  0  0  0  0  0  0  0  0
    6.8598   12.5550   26.1420 C   0  0  0  0  0  0  0  0  0  0  0  0
    7.6910   11.8991   25.2166 C   0  0  0  0  0  0  0  0  0  0  0  0
  1  2  1  0
  2  3  1  0
  3  4  2  0
  3  5  1  0
  5  6  1  6
  6  7  1  0
  7  8  2  0
  8  9  1  0
  9 10  1  0
 10 11  2  0
  5 12  1  0
 12 13  1  0
 13 14  2  0
 13 15  1  0
 15 16  2  0
 16 17  1  0
 17 18  1  0
 17 19  1  0
 19 20  2  0
 20 21  1  0
 21 22  2  0
 22 23  1  0
 23 24  2  0
 23 25  1  0
 22 26  1  0
 26 27  2  0
 11  7  1  0
 27 15  1  0
 27 19  1  0
M  CHG  2  23   1  25  -1
M  END
>  <energy_score>  (3734) 
-13.371522

>  <inchikey>  (3734) 
YBFFWHXYRDALLY-UHFFFAOYSA-N

>  <smiles>  (3734) 
COC(=O)C(Cc1cocn1)NC(=O)c1nn(C)c2ccc([N+](=O)[O-])cc12

>  <ref_pdb>  (3734) 
A0514a

>  <alias>  (3734) 
YBFFWHXYRDALLY-UHFFFAOYSA-N-P183-P126-P183-601502

>  <HIPPO Pose ID>  (3734) 
503429

>  <name>  (3734) 
YBFFWHXYRDALLY-UHFFFAOYSA-N-P183-P126-P183-601502

>  <HIPPO Compound ID>  (3734) 
289849

>  <ref_mols>  (3734) 
A2290a,A3436a

>  <distance_score>  (3734) 
0.989444

>  <inspiration_score>  (3734) 
None

$$$$
LXJABMRHPGHKIS-UHFFFAOYSA-N-P126-P126-P183-601502
     RDKit          3D

 27 30  0  0  0  0  0  0  0  0999 V2000
    9.0008    8.6653   23.6680 C   0  0  0  0  0  0  0  0  0  0  0  0
    8.8292   10.0285   24.0923 N   0  0  0  0  0  0  0  0  0  0  0  0
    9.6876   10.9304   23.6275 N   0  0  0  0  0  0  0  0  0  0  0  0
    9.4839   12.0141   24.4008 C   0  0  0  0  0  0  0  0  0  0  0  0
   10.4792   13.0890   24.3643 C   0  0  0  0  0  0  0  0  0  0  0  0
   10.5342   13.9584   25.1363 O   0  0  0  0  0  0  0  0  0  0  0  0
   11.4091   12.7317   23.2062 N   0  0  0  0  0  0  0  0  0  0  0  0
   12.6418   13.2995   22.8077 C   0  0  0  0  0  0  0  0  0  0  0  0
   12.5259   14.6812   22.2401 C   0  0  0  0  0  0  0  0  0  0  0  0
   11.5883   14.7797   21.1289 C   0  0  0  0  0  0  0  0  0  0  0  0
   11.7297   14.4392   19.8106 C   0  0  0  0  0  0  0  0  0  0  0  0
   10.7213   15.0290   19.1313 O   0  0  0  0  0  0  0  0  0  0  0  0
   10.0599   15.7231   20.0949 C   0  0  0  0  0  0  0  0  0  0  0  0
    9.3005   16.8491   19.6580 C   0  0  0  0  0  0  0  0  0  0  0  0
    8.7671   17.7033   20.6076 C   0  0  0  0  0  0  0  0  0  0  0  0
    8.0275   18.7856   20.2289 C   0  0  0  0  0  0  0  0  0  0  0  0
    7.6689   18.9110   18.9205 C   0  0  0  0  0  0  0  0  0  0  0  0
    8.2441   18.1142   17.9534 C   0  0  0  0  0  0  0  0  0  0  0  0
    9.1213   17.1298   18.3181 C   0  0  0  0  0  0  0  0  0  0  0  0
   10.4276   15.4551   21.3228 N   0  0  0  0  0  0  0  0  0  0  0  0
    8.3540   11.8521   25.2288 C   0  0  0  0  0  0  0  0  0  0  0  0
    7.6719   12.6502   26.1602 C   0  0  0  0  0  0  0  0  0  0  0  0
    6.6191   12.0779   26.8665 C   0  0  0  0  0  0  0  0  0  0  0  0
    5.9633   12.8139   27.7740 F   0  0  0  0  0  0  0  0  0  0  0  0
    6.2482   10.7521   26.6805 C   0  0  0  0  0  0  0  0  0  0  0  0
    6.9193    9.9458   25.7599 C   0  0  0  0  0  0  0  0  0  0  0  0
    7.9670   10.5247   25.0377 C   0  0  0  0  0  0  0  0  0  0  0  0
  1  2  1  0
  2  3  1  0
  3  4  2  0
  4  5  1  0
  5  6  2  0
  5  7  1  0
  7  8  1  0
  8  9  1  0
  9 10  1  0
 10 11  2  0
 11 12  1  0
 12 13  1  0
 13 14  1  0
 14 15  2  0
 15 16  1  0
 16 17  2  0
 17 18  1  0
 18 19  2  0
 13 20  2  0
  4 21  1  0
 21 22  2  0
 22 23  1  0
 23 24  1  0
 23 25  2  0
 25 26  1  0
 26 27  2  0
 27  2  1  0
 20 10  1  0
 27 21  1  0
 19 14  1  0
M  END
>  <energy_score>  (3735) 
-25.070029

>  <inchikey>  (3735) 
LXJABMRHPGHKIS-UHFFFAOYSA-N

>  <smiles>  (3735) 
Cn1nc(C(=O)NCCc2coc(-c3ccccc3)n2)c2cc(F)ccc21

>  <ref_pdb>  (3735) 
A0514a

>  <alias>  (3735) 
LXJABMRHPGHKIS-UHFFFAOYSA-N-P126-P126-P183-601502

>  <HIPPO Pose ID>  (3735) 
503432

>  <name>  (3735) 
LXJABMRHPGHKIS-UHFFFAOYSA-N-P126-P126-P183-601502

>  <HIPPO Compound ID>  (3735) 
289851

>  <ref_mols>  (3735) 
A2290a,A3436a

>  <distance_score>  (3735) 
0.960645

>  <inspiration_score>  (3735) 
None

$$$$
LXJABMRHPGHKIS-UHFFFAOYSA-N-P183-P126-P183-601502
     RDKit          3D

 27 30  0  0  0  0  0  0  0  0999 V2000
    9.3144    8.9273   23.4456 C   0  0  0  0  0  0  0  0  0  0  0  0
    9.0120   10.2534   23.9352 N   0  0  0  0  0  0  0  0  0  0  0  0
    9.7675   11.2709   23.4937 N   0  0  0  0  0  0  0  0  0  0  0  0
    9.3595   12.3294   24.2170 C   0  0  0  0  0  0  0  0  0  0  0  0
   10.1206   13.5847   24.2164 C   0  0  0  0  0  0  0  0  0  0  0  0
    9.9661   14.3960   25.0348 O   0  0  0  0  0  0  0  0  0  0  0  0
   11.0903   13.5374   23.0418 N   0  0  0  0  0  0  0  0  0  0  0  0
   12.0153   14.5151   22.5602 C   0  0  0  0  0  0  0  0  0  0  0  0
   12.3829   14.2698   21.1109 C   0  0  0  0  0  0  0  0  0  0  0  0
   11.3457   14.5838   20.1384 C   0  0  0  0  0  0  0  0  0  0  0  0
   11.4470   14.7893   18.7870 C   0  0  0  0  0  0  0  0  0  0  0  0
   10.3371   15.4629   18.4073 O   0  0  0  0  0  0  0  0  0  0  0  0
    9.6466   15.5654   19.5595 C   0  0  0  0  0  0  0  0  0  0  0  0
    9.0222   16.8201   19.7552 C   0  0  0  0  0  0  0  0  0  0  0  0
    9.2599   17.3682   20.9598 C   0  0  0  0  0  0  0  0  0  0  0  0
    8.8490   18.6356   21.1596 C   0  0  0  0  0  0  0  0  0  0  0  0
    8.1018   19.3259   20.2391 C   0  0  0  0  0  0  0  0  0  0  0  0
    7.7979   18.7775   19.0445 C   0  0  0  0  0  0  0  0  0  0  0  0
    8.3265   17.5397   18.8102 C   0  0  0  0  0  0  0  0  0  0  0  0
   10.0793   14.8178   20.5437 N   0  0  0  0  0  0  0  0  0  0  0  0
    8.2221   12.0186   24.9949 C   0  0  0  0  0  0  0  0  0  0  0  0
    7.3688   12.7411   25.8487 C   0  0  0  0  0  0  0  0  0  0  0  0
    6.4054   12.0436   26.5679 C   0  0  0  0  0  0  0  0  0  0  0  0
    5.6053   12.7072   27.4130 F   0  0  0  0  0  0  0  0  0  0  0  0
    6.2749   10.6677   26.4569 C   0  0  0  0  0  0  0  0  0  0  0  0
    7.1048    9.9439   25.5975 C   0  0  0  0  0  0  0  0  0  0  0  0
    8.0691   10.6412   24.8613 C   0  0  0  0  0  0  0  0  0  0  0  0
  1  2  1  0
  2  3  1  0
  3  4  2  0
  4  5  1  0
  5  6  2  0
  5  7  1  0
  7  8  1  0
  8  9  1  0
  9 10  1  0
 10 11  2  0
 11 12  1  0
 12 13  1  0
 13 14  1  0
 14 15  2  0
 15 16  1  0
 16 17  2  0
 17 18  1  0
 18 19  2  0
 13 20  2  0
  4 21  1  0
 21 22  2  0
 22 23  1  0
 23 24  1  0
 23 25  2  0
 25 26  1  0
 26 27  2  0
 27  2  1  0
 20 10  1  0
 27 21  1  0
 19 14  1  0
M  END
>  <energy_score>  (3736) 
-5.81646

>  <inchikey>  (3736) 
LXJABMRHPGHKIS-UHFFFAOYSA-N

>  <smiles>  (3736) 
Cn1nc(C(=O)NCCc2coc(-c3ccccc3)n2)c2cc(F)ccc21

>  <ref_pdb>  (3736) 
A0514a

>  <alias>  (3736) 
LXJABMRHPGHKIS-UHFFFAOYSA-N-P183-P126-P183-601502

>  <HIPPO Pose ID>  (3736) 
503433

>  <name>  (3736) 
LXJABMRHPGHKIS-UHFFFAOYSA-N-P183-P126-P183-601502

>  <HIPPO Compound ID>  (3736) 
289851

>  <ref_mols>  (3736) 
A2290a,A3436a

>  <distance_score>  (3736) 
0.875497

>  <inspiration_score>  (3736) 
None

$$$$
RQYODYAUANDZJE-UHFFFAOYSA-N-P126-P126-P183-601502
     RDKit          3D

 27 30  0  0  0  0  0  0  0  0999 V2000
   11.6791   14.5256   18.5548 C   0  0  0  0  0  0  0  0  0  0  0  0
   10.8406   14.9404   19.6746 C   0  0  0  0  0  0  0  0  0  0  0  0
    9.8114   15.8032   19.4461 O   0  0  0  0  0  0  0  0  0  0  0  0
    9.3273   16.0442   20.6916 C   0  0  0  0  0  0  0  0  0  0  0  0
    9.8942   15.3443   21.6501 N   0  0  0  0  0  0  0  0  0  0  0  0
   10.9296   14.7145   21.0229 C   0  0  0  0  0  0  0  0  0  0  0  0
   12.0116   14.0026   21.7365 C   0  0  0  0  0  0  0  0  0  0  0  0
   12.0612   14.2908   23.2203 C   0  0  0  0  0  0  0  0  0  0  0  0
   11.0306   13.6454   23.9736 N   0  0  0  0  0  0  0  0  0  0  0  0
   10.3929   14.0218   25.3249 C   0  0  0  0  0  0  0  0  0  0  0  0
   10.6593   14.8748   26.0762 O   0  0  0  0  0  0  0  0  0  0  0  0
    9.3145   13.0610   25.5413 C   0  0  0  0  0  0  0  0  0  0  0  0
    9.5015   11.8214   25.0703 N   0  0  0  0  0  0  0  0  0  0  0  0
    8.4087   11.1664   25.4434 N   0  0  0  0  0  0  0  0  0  0  0  0
    8.2187    9.8432   24.9638 C   0  0  0  0  0  0  0  0  0  0  0  0
    8.7691    9.7649   23.5991 C   0  0  1  0  0  0  0  0  0  0  0  0
   10.2397    9.6372   23.4213 C   0  0  0  0  0  0  0  0  0  0  0  0
   10.3144    8.6642   22.4140 N   0  0  0  0  0  0  0  0  0  0  0  0
    9.1624    7.9421   22.4280 C   0  0  0  0  0  0  0  0  0  0  0  0
    8.9256    6.8591   21.9613 O   0  0  0  0  0  0  0  0  0  0  0  0
    8.2316    8.5626   23.1526 O   0  0  0  0  0  0  0  0  0  0  0  0
    7.5136   11.8855   26.1501 C   0  0  0  0  0  0  0  0  0  0  0  0
    6.2894   11.5282   26.7132 C   0  0  0  0  0  0  0  0  0  0  0  0
    5.5939   12.5419   27.3553 C   0  0  0  0  0  0  0  0  0  0  0  0
    6.1105   13.8368   27.4203 C   0  0  0  0  0  0  0  0  0  0  0  0
    7.3485   14.1668   26.8551 C   0  0  0  0  0  0  0  0  0  0  0  0
    8.0676   13.1608   26.2072 C   0  0  0  0  0  0  0  0  0  0  0  0
  1  2  1  0
  2  3  1  0
  3  4  1  0
  4  5  2  0
  5  6  1  0
  6  7  1  0
  7  8  1  0
  8  9  1  0
  9 10  1  0
 10 11  2  0
 10 12  1  0
 12 13  2  0
 13 14  1  0
 14 15  1  0
 16 15  1  1
 16 17  1  0
 17 18  1  0
 18 19  1  0
 19 20  2  0
 19 21  1  0
 14 22  1  0
 22 23  2  0
 23 24  1  0
 24 25  2  0
 25 26  1  0
 26 27  2  0
  6  2  2  0
 27 12  1  0
 21 16  1  0
 27 22  1  0
M  END
>  <energy_score>  (3737) 
-3.619421

>  <inchikey>  (3737) 
RQYODYAUANDZJE-UHFFFAOYSA-N

>  <smiles>  (3737) 
Cc1ocnc1CCNC(=O)c1nn(CC2CNC(=O)O2)c2ccccc12

>  <ref_pdb>  (3737) 
A0514a

>  <alias>  (3737) 
RQYODYAUANDZJE-UHFFFAOYSA-N-P126-P126-P183-601502

>  <HIPPO Pose ID>  (3737) 
503436

>  <name>  (3737) 
RQYODYAUANDZJE-UHFFFAOYSA-N-P126-P126-P183-601502

>  <HIPPO Compound ID>  (3737) 
289853

>  <ref_mols>  (3737) 
A2290a,A3436a

>  <distance_score>  (3737) 
1.838078

>  <inspiration_score>  (3737) 
None

$$$$
RJCGBTDHNBEIKH-UHFFFAOYSA-N-P126-P126-P183-601502
     RDKit          3D

 27 30  0  0  0  0  0  0  0  0999 V2000
    8.3124   18.6306   19.4741 C   0  0  0  0  0  0  0  0  0  0  0  0
    9.0685   17.3922   19.6896 C   0  0  0  0  0  0  0  0  0  0  0  0
    9.3570   16.8192   20.8292 N   0  0  0  0  0  0  0  0  0  0  0  0
   10.0772   15.7128   20.4809 C   0  0  0  0  0  0  0  0  0  0  0  0
   10.3732   14.7237   21.5185 C   0  0  0  0  0  0  0  0  0  0  0  0
    8.9875   14.3195   22.0118 C   0  0  0  0  0  0  0  0  0  0  0  0
    8.9657   13.4975   23.1595 N   0  0  0  0  0  0  0  0  0  0  0  0
    8.7541   13.8527   24.6346 C   0  0  0  0  0  0  0  0  0  0  0  0
    8.6402   14.8877   25.1525 O   0  0  0  0  0  0  0  0  0  0  0  0
    8.6148   12.5792   25.3062 C   0  0  0  0  0  0  0  0  0  0  0  0
    9.2499   11.4990   24.8287 N   0  0  0  0  0  0  0  0  0  0  0  0
    8.4650   10.4944   25.2177 N   0  0  0  0  0  0  0  0  0  0  0  0
    8.6193    9.2240   24.5875 C   0  0  0  0  0  0  0  0  0  0  0  0
    9.9334    9.0467   23.8766 C   0  0  2  0  0  0  0  0  0  0  0  0
    9.9969    9.8664   22.6296 C   0  0  0  0  0  0  0  0  0  0  0  0
    9.9546    8.8563   21.6607 N   0  0  0  0  0  0  0  0  0  0  0  0
    9.4308    7.7636   22.2580 C   0  0  0  0  0  0  0  0  0  0  0  0
    8.6271    6.9868   21.7989 O   0  0  0  0  0  0  0  0  0  0  0  0
    9.9438    7.6904   23.4852 O   0  0  0  0  0  0  0  0  0  0  0  0
    7.4633   10.8547   26.0648 C   0  0  0  0  0  0  0  0  0  0  0  0
    6.4339   10.1312   26.6604 C   0  0  0  0  0  0  0  0  0  0  0  0
    5.5274   10.8472   27.4381 C   0  0  0  0  0  0  0  0  0  0  0  0
    5.6274   12.2299   27.5785 C   0  0  0  0  0  0  0  0  0  0  0  0
    6.6386   12.9451   26.9398 C   0  0  0  0  0  0  0  0  0  0  0  0
    7.5810   12.2326   26.1930 C   0  0  0  0  0  0  0  0  0  0  0  0
   10.2311   15.6745   19.1255 C   0  0  0  0  0  0  0  0  0  0  0  0
    9.5745   16.7476   18.5982 O   0  0  0  0  0  0  0  0  0  0  0  0
  1  2  1  0
  2  3  2  0
  3  4  1  0
  4  5  1  0
  5  6  1  0
  6  7  1  0
  7  8  1  0
  8  9  2  0
  8 10  1  0
 10 11  2  0
 11 12  1  0
 12 13  1  0
 14 13  1  6
 14 15  1  0
 15 16  1  0
 16 17  1  0
 17 18  2  0
 17 19  1  0
 12 20  1  0
 20 21  2  0
 21 22  1  0
 22 23  2  0
 23 24  1  0
 24 25  2  0
  4 26  2  0
 26 27  1  0
 27  2  1  0
 25 10  1  0
 19 14  1  0
 25 20  1  0
M  END
>  <energy_score>  (3738) 
-8.057618

>  <inchikey>  (3738) 
RJCGBTDHNBEIKH-UHFFFAOYSA-N

>  <smiles>  (3738) 
Cc1nc(CCNC(=O)c2nn(CC3CNC(=O)O3)c3ccccc23)co1

>  <ref_pdb>  (3738) 
A0514a

>  <alias>  (3738) 
RJCGBTDHNBEIKH-UHFFFAOYSA-N-P126-P126-P183-601502

>  <HIPPO Pose ID>  (3738) 
503438

>  <name>  (3738) 
RJCGBTDHNBEIKH-UHFFFAOYSA-N-P126-P126-P183-601502

>  <HIPPO Compound ID>  (3738) 
289854

>  <ref_mols>  (3738) 
A2290a,A3436a

>  <distance_score>  (3738) 
1.810047

>  <inspiration_score>  (3738) 
None

$$$$
RJCGBTDHNBEIKH-UHFFFAOYSA-N-P183-P126-P183-601502
     RDKit          3D

 27 30  0  0  0  0  0  0  0  0999 V2000
    8.4800   17.5695   20.4107 C   0  0  0  0  0  0  0  0  0  0  0  0
    9.4796   16.5186   20.2216 C   0  0  0  0  0  0  0  0  0  0  0  0
   10.1991   15.9400   21.1486 N   0  0  0  0  0  0  0  0  0  0  0  0
   11.0615   15.1435   20.4523 C   0  0  0  0  0  0  0  0  0  0  0  0
   12.2185   14.5309   21.1351 C   0  0  0  0  0  0  0  0  0  0  0  0
   12.3035   14.8883   22.6150 C   0  0  0  0  0  0  0  0  0  0  0  0
   11.2200   14.3407   23.3661 N   0  0  0  0  0  0  0  0  0  0  0  0
   10.8538   14.4971   24.8489 C   0  0  0  0  0  0  0  0  0  0  0  0
   11.3330   15.1594   25.6804 O   0  0  0  0  0  0  0  0  0  0  0  0
    9.6795   13.6541   25.0345 C   0  0  0  0  0  0  0  0  0  0  0  0
    9.6685   12.5201   24.3239 N   0  0  0  0  0  0  0  0  0  0  0  0
    8.5441   11.9420   24.6813 N   0  0  0  0  0  0  0  0  0  0  0  0
    8.1702   10.7653   23.9872 C   0  0  0  0  0  0  0  0  0  0  0  0
    8.9208    9.5703   24.4096 C   0  0  2  0  0  0  0  0  0  0  0  0
   10.2391    9.5618   23.7355 C   0  0  0  0  0  0  0  0  0  0  0  0
    9.8994    8.9747   22.5105 N   0  0  0  0  0  0  0  0  0  0  0  0
    8.8886    8.0999   22.7513 C   0  0  0  0  0  0  0  0  0  0  0  0
    8.5424    7.1869   22.0369 O   0  0  0  0  0  0  0  0  0  0  0  0
    8.3195    8.3834   23.9595 O   0  0  0  0  0  0  0  0  0  0  0  0
    7.8131   12.5694   25.6210 C   0  0  0  0  0  0  0  0  0  0  0  0
    6.6491   12.1902   26.2967 C   0  0  0  0  0  0  0  0  0  0  0  0
    6.1419   13.1021   27.2074 C   0  0  0  0  0  0  0  0  0  0  0  0
    6.7756   14.3279   27.4104 C   0  0  0  0  0  0  0  0  0  0  0  0
    7.9521   14.6797   26.7281 C   0  0  0  0  0  0  0  0  0  0  0  0
    8.4973   13.7659   25.8203 C   0  0  0  0  0  0  0  0  0  0  0  0
   10.7349   15.1735   19.1185 C   0  0  0  0  0  0  0  0  0  0  0  0
    9.7073   16.0557   18.9591 O   0  0  0  0  0  0  0  0  0  0  0  0
  1  2  1  0
  2  3  2  0
  3  4  1  0
  4  5  1  0
  5  6  1  0
  6  7  1  0
  7  8  1  0
  8  9  2  0
  8 10  1  0
 10 11  2  0
 11 12  1  0
 12 13  1  0
 14 13  1  6
 14 15  1  0
 15 16  1  0
 16 17  1  0
 17 18  2  0
 17 19  1  0
 12 20  1  0
 20 21  2  0
 21 22  1  0
 22 23  2  0
 23 24  1  0
 24 25  2  0
  4 26  2  0
 26 27  1  0
 27  2  1  0
 25 10  1  0
 19 14  1  0
 25 20  1  0
M  END
>  <energy_score>  (3739) 
-21.556806

>  <inchikey>  (3739) 
RJCGBTDHNBEIKH-UHFFFAOYSA-N

>  <smiles>  (3739) 
Cc1nc(CCNC(=O)c2nn(CC3CNC(=O)O3)c3ccccc23)co1

>  <ref_pdb>  (3739) 
A0514a

>  <alias>  (3739) 
RJCGBTDHNBEIKH-UHFFFAOYSA-N-P183-P126-P183-601502

>  <HIPPO Pose ID>  (3739) 
503439

>  <name>  (3739) 
RJCGBTDHNBEIKH-UHFFFAOYSA-N-P183-P126-P183-601502

>  <HIPPO Compound ID>  (3739) 
289854

>  <ref_mols>  (3739) 
A2290a,A3436a

>  <distance_score>  (3739) 
1.853263

>  <inspiration_score>  (3739) 
None

$$$$
JWQLFZZVZJQGJI-UHFFFAOYSA-N-P126-P126-P183-601502
     RDKit          3D

 27 30  0  0  0  0  0  0  0  0999 V2000
    9.2111    8.8270   23.2679 C   0  0  0  0  0  0  0  0  0  0  0  0
    9.0203   10.0659   23.9835 N   0  0  0  0  0  0  0  0  0  0  0  0
    9.8466   11.0823   23.7026 N   0  0  0  0  0  0  0  0  0  0  0  0
    9.4519   12.0691   24.5305 C   0  0  0  0  0  0  0  0  0  0  0  0
   10.2169   13.3116   24.6107 C   0  0  0  0  0  0  0  0  0  0  0  0
   10.0558   14.1099   25.4402 O   0  0  0  0  0  0  0  0  0  0  0  0
   11.2007   13.2780   23.4504 N   0  0  0  0  0  0  0  0  0  0  0  0
   12.2538   14.1603   23.1110 C   0  0  0  0  0  0  0  0  0  0  0  0
   12.6443   14.0885   21.6663 C   0  0  0  0  0  0  0  0  0  0  0  0
   11.6389   14.5708   20.7318 C   0  0  0  0  0  0  0  0  0  0  0  0
   11.6654   14.4237   19.3730 C   0  0  0  0  0  0  0  0  0  0  0  0
   10.6409   15.1162   18.8710 O   0  0  0  0  0  0  0  0  0  0  0  0
   10.1037   15.7346   19.9457 C   0  0  0  0  0  0  0  0  0  0  0  0
    9.3095   16.8681   19.6118 C   0  0  0  0  0  0  0  0  0  0  0  0
    9.0644   17.1944   18.2875 C   0  0  0  0  0  0  0  0  0  0  0  0
    8.1857   18.1973   17.9963 C   0  0  0  0  0  0  0  0  0  0  0  0
    7.6581   18.9582   19.0143 C   0  0  0  0  0  0  0  0  0  0  0  0
    8.0656   18.7708   20.3033 C   0  0  0  0  0  0  0  0  0  0  0  0
    8.8152   17.6735   20.6135 C   0  0  0  0  0  0  0  0  0  0  0  0
   10.5933   15.3632   21.1072 N   0  0  0  0  0  0  0  0  0  0  0  0
    8.3207   11.7076   25.2826 C   0  0  0  0  0  0  0  0  0  0  0  0
    7.5066   12.3548   26.2291 C   0  0  0  0  0  0  0  0  0  0  0  0
    6.4836   11.6268   26.8301 C   0  0  0  0  0  0  0  0  0  0  0  0
    5.3739   12.4602   28.1141 Br  0  0  0  0  0  0  0  0  0  0  0  0
    6.2779   10.2892   26.5138 C   0  0  0  0  0  0  0  0  0  0  0  0
    7.0814    9.6473   25.5676 C   0  0  0  0  0  0  0  0  0  0  0  0
    8.0934   10.3770   24.9496 C   0  0  0  0  0  0  0  0  0  0  0  0
  1  2  1  0
  2  3  1  0
  3  4  2  0
  4  5  1  0
  5  6  2  0
  5  7  1  0
  7  8  1  0
  8  9  1  0
  9 10  1  0
 10 11  2  0
 11 12  1  0
 12 13  1  0
 13 14  1  0
 14 15  2  0
 15 16  1  0
 16 17  2  0
 17 18  1  0
 18 19  2  0
 13 20  2  0
  4 21  1  0
 21 22  2  0
 22 23  1  0
 23 24  1  0
 23 25  2  0
 25 26  1  0
 26 27  2  0
 27  2  1  0
 20 10  1  0
 27 21  1  0
 19 14  1  0
M  END
>  <energy_score>  (3740) 
-18.414278

>  <inchikey>  (3740) 
JWQLFZZVZJQGJI-UHFFFAOYSA-N

>  <smiles>  (3740) 
Cn1nc(C(=O)NCCc2coc(-c3ccccc3)n2)c2cc(Br)ccc21

>  <ref_pdb>  (3740) 
A0514a

>  <alias>  (3740) 
JWQLFZZVZJQGJI-UHFFFAOYSA-N-P126-P126-P183-601502

>  <HIPPO Pose ID>  (3740) 
503442

>  <name>  (3740) 
JWQLFZZVZJQGJI-UHFFFAOYSA-N-P126-P126-P183-601502

>  <HIPPO Compound ID>  (3740) 
289856

>  <ref_mols>  (3740) 
A2290a,A3436a

>  <distance_score>  (3740) 
0.960052

>  <inspiration_score>  (3740) 
None

$$$$
IMVBRVKIBFNTFN-UHFFFAOYSA-N-P126-P126-P183-601502
     RDKit          3D

 27 30  0  0  0  0  0  0  0  0999 V2000
   12.7999   13.3391   23.8592 C   0  0  0  0  0  0  0  0  0  0  0  0
   11.7263   14.1619   23.1615 C   0  0  1  0  0  0  0  0  0  0  0  0
   11.9377   14.1358   21.6414 C   0  0  0  0  0  0  0  0  0  0  0  0
   10.9141   14.8620   20.8520 C   0  0  0  0  0  0  0  0  0  0  0  0
   10.7654   14.9644   19.4887 C   0  0  0  0  0  0  0  0  0  0  0  0
    9.7909   15.8847   19.2343 O   0  0  0  0  0  0  0  0  0  0  0  0
    9.4015   16.2933   20.4676 C   0  0  0  0  0  0  0  0  0  0  0  0
    9.9841   15.6603   21.4560 N   0  0  0  0  0  0  0  0  0  0  0  0
   10.4971   13.5919   23.6295 N   0  0  0  0  0  0  0  0  0  0  0  0
    9.7226   13.8223   24.9395 C   0  0  0  0  0  0  0  0  0  0  0  0
    9.9199   14.5697   25.8136 O   0  0  0  0  0  0  0  0  0  0  0  0
    8.6658   12.8125   24.9779 C   0  0  0  0  0  0  0  0  0  0  0  0
    8.6746   11.8509   24.0431 N   0  0  0  0  0  0  0  0  0  0  0  0
    8.0372   10.8461   24.6380 N   0  0  0  0  0  0  0  0  0  0  0  0
    8.4164    9.4984   24.3067 C   0  0  0  0  0  0  0  0  0  0  0  0
    9.2647    9.4779   23.0614 C   0  0  2  0  0  0  0  0  0  0  0  0
    9.1459    8.1601   22.3805 C   0  0  0  0  0  0  0  0  0  0  0  0
   10.0049    7.4213   23.1810 N   0  0  0  0  0  0  0  0  0  0  0  0
   10.9891    8.2448   23.5735 C   0  0  0  0  0  0  0  0  0  0  0  0
   12.0312    7.8610   24.0282 O   0  0  0  0  0  0  0  0  0  0  0  0
   10.6276    9.5376   23.4448 O   0  0  0  0  0  0  0  0  0  0  0  0
    7.3134   11.2103   25.7282 C   0  0  0  0  0  0  0  0  0  0  0  0
    6.4402   10.4934   26.5446 C   0  0  0  0  0  0  0  0  0  0  0  0
    5.9374   11.1701   27.6516 C   0  0  0  0  0  0  0  0  0  0  0  0
    6.3221   12.4820   27.9348 C   0  0  0  0  0  0  0  0  0  0  0  0
    7.2259   13.1683   27.1191 C   0  0  0  0  0  0  0  0  0  0  0  0
    7.7111   12.5218   25.9788 C   0  0  0  0  0  0  0  0  0  0  0  0
  2  1  1  1
  2  3  1  0
  3  4  1  0
  4  5  2  0
  5  6  1  0
  6  7  1  0
  7  8  2  0
  2  9  1  0
  9 10  1  0
 10 11  2  0
 10 12  1  0
 12 13  2  0
 13 14  1  0
 14 15  1  0
 16 15  1  1
 16 17  1  0
 17 18  1  0
 18 19  1  0
 19 20  2  0
 19 21  1  0
 14 22  1  0
 22 23  2  0
 23 24  1  0
 24 25  2  0
 25 26  1  0
 26 27  2  0
  8  4  1  0
 27 12  1  0
 21 16  1  0
 27 22  1  0
M  END
>  <energy_score>  (3741) 
-24.284124

>  <inchikey>  (3741) 
IMVBRVKIBFNTFN-UHFFFAOYSA-N

>  <smiles>  (3741) 
CC(Cc1cocn1)NC(=O)c1nn(CC2CNC(=O)O2)c2ccccc12

>  <ref_pdb>  (3741) 
A0514a

>  <alias>  (3741) 
IMVBRVKIBFNTFN-UHFFFAOYSA-N-P126-P126-P183-601502

>  <HIPPO Pose ID>  (3741) 
503446

>  <name>  (3741) 
IMVBRVKIBFNTFN-UHFFFAOYSA-N-P126-P126-P183-601502

>  <HIPPO Compound ID>  (3741) 
289858

>  <ref_mols>  (3741) 
A2290a,A3436a

>  <distance_score>  (3741) 
1.449777

>  <inspiration_score>  (3741) 
None

$$$$
IMVBRVKIBFNTFN-UHFFFAOYSA-N-P183-P126-P183-601502
     RDKit          3D

 27 30  0  0  0  0  0  0  0  0999 V2000
   12.3884   13.8322   24.0869 C   0  0  0  0  0  0  0  0  0  0  0  0
   11.2475   14.4334   23.2711 C   0  0  1  0  0  0  0  0  0  0  0  0
   11.5861   14.3722   21.7700 C   0  0  0  0  0  0  0  0  0  0  0  0
   10.6615   15.1235   20.8827 C   0  0  0  0  0  0  0  0  0  0  0  0
   10.6093   15.1647   19.5076 C   0  0  0  0  0  0  0  0  0  0  0  0
    9.6874   16.1018   19.1447 O   0  0  0  0  0  0  0  0  0  0  0  0
    9.2288   16.5847   20.3311 C   0  0  0  0  0  0  0  0  0  0  0  0
    9.7420   16.0047   21.3877 N   0  0  0  0  0  0  0  0  0  0  0  0
   10.0434   13.7381   23.6642 N   0  0  0  0  0  0  0  0  0  0  0  0
    9.0840   13.9875   24.8404 C   0  0  0  0  0  0  0  0  0  0  0  0
    9.0682   14.8407   25.6355 O   0  0  0  0  0  0  0  0  0  0  0  0
    8.1364   12.8594   24.9323 C   0  0  0  0  0  0  0  0  0  0  0  0
    8.2258   11.8018   24.1155 N   0  0  0  0  0  0  0  0  0  0  0  0
    7.6125   10.8152   24.7777 N   0  0  0  0  0  0  0  0  0  0  0  0
    8.0748    9.4474   24.6520 C   0  0  0  0  0  0  0  0  0  0  0  0
    8.5939    8.9430   23.3139 C   0  0  2  0  0  0  0  0  0  0  0  0
    9.7318    8.0229   23.4915 C   0  0  0  0  0  0  0  0  0  0  0  0
   10.7706    8.9243   23.7294 N   0  0  0  0  0  0  0  0  0  0  0  0
   10.3266   10.1549   23.3257 C   0  0  0  0  0  0  0  0  0  0  0  0
   10.8282   11.2175   23.6285 O   0  0  0  0  0  0  0  0  0  0  0  0
    9.2176    9.9844   22.5997 O   0  0  0  0  0  0  0  0  0  0  0  0
    6.8693   11.2542   25.8350 C   0  0  0  0  0  0  0  0  0  0  0  0
    6.0235   10.5836   26.7182 C   0  0  0  0  0  0  0  0  0  0  0  0
    5.4893   11.3353   27.7594 C   0  0  0  0  0  0  0  0  0  0  0  0
    5.8031   12.6852   27.9112 C   0  0  0  0  0  0  0  0  0  0  0  0
    6.6585   13.3345   27.0203 C   0  0  0  0  0  0  0  0  0  0  0  0
    7.1868   12.6041   25.9504 C   0  0  0  0  0  0  0  0  0  0  0  0
  2  1  1  1
  2  3  1  0
  3  4  1  0
  4  5  2  0
  5  6  1  0
  6  7  1  0
  7  8  2  0
  2  9  1  0
  9 10  1  0
 10 11  2  0
 10 12  1  0
 12 13  2  0
 13 14  1  0
 14 15  1  0
 16 15  1  1
 16 17  1  0
 17 18  1  0
 18 19  1  0
 19 20  2  0
 19 21  1  0
 14 22  1  0
 22 23  2  0
 23 24  1  0
 24 25  2  0
 25 26  1  0
 26 27  2  0
  8  4  1  0
 27 12  1  0
 21 16  1  0
 27 22  1  0
M  END
>  <energy_score>  (3742) 
-3.020396

>  <inchikey>  (3742) 
IMVBRVKIBFNTFN-UHFFFAOYSA-N

>  <smiles>  (3742) 
CC(Cc1cocn1)NC(=O)c1nn(CC2CNC(=O)O2)c2ccccc12

>  <ref_pdb>  (3742) 
A0514a

>  <alias>  (3742) 
IMVBRVKIBFNTFN-UHFFFAOYSA-N-P183-P126-P183-601502

>  <HIPPO Pose ID>  (3742) 
503447

>  <name>  (3742) 
IMVBRVKIBFNTFN-UHFFFAOYSA-N-P183-P126-P183-601502

>  <HIPPO Compound ID>  (3742) 
289858

>  <ref_mols>  (3742) 
A2290a,A3436a

>  <distance_score>  (3742) 
1.7281

>  <inspiration_score>  (3742) 
None

$$$$
ABNAGSZVCSZFJI-UHFFFAOYSA-N-P183-P126-P183-601502
     RDKit          3D

 28 30  0  0  0  0  0  0  0  0999 V2000
    8.7866    9.0686   24.0016 C   0  0  0  0  0  0  0  0  0  0  0  0
    8.2470   10.3065   24.5162 N   0  0  0  0  0  0  0  0  0  0  0  0
    8.8418   11.4307   24.1213 N   0  0  0  0  0  0  0  0  0  0  0  0
    8.1896   12.3948   24.7977 C   0  0  0  0  0  0  0  0  0  0  0  0
    8.8058   13.6900   24.9516 C   0  0  0  0  0  0  0  0  0  0  0  0
    8.2014   14.6952   25.1741 O   0  0  0  0  0  0  0  0  0  0  0  0
   10.1990   13.4427   24.8751 N   0  0  0  0  0  0  0  0  0  0  0  0
   11.2971   14.3194   24.9455 C   0  0  1  0  0  0  0  0  0  0  0  0
   11.6899   14.8850   23.5647 C   0  0  0  0  0  0  0  0  0  0  0  0
   10.7993   14.7818   22.3740 C   0  0  0  0  0  0  0  0  0  0  0  0
   11.1638   14.7542   21.0436 C   0  0  0  0  0  0  0  0  0  0  0  0
   10.0422   14.9205   20.2900 O   0  0  0  0  0  0  0  0  0  0  0  0
    9.0515   15.0228   21.2109 C   0  0  0  0  0  0  0  0  0  0  0  0
    9.4389   14.9089   22.4588 N   0  0  0  0  0  0  0  0  0  0  0  0
   11.0748   15.2618   26.1944 C   0  0  0  0  0  0  0  0  0  0  0  0
   11.6732   16.3178   26.3436 O   0  0  0  0  0  0  0  0  0  0  0  0
   10.1870   14.7831   27.1254 O   0  0  0  0  0  0  0  0  0  0  0  0
    9.7726   15.4654   28.3647 C   0  0  0  0  0  0  0  0  0  0  0  0
    9.4402   16.9426   28.1974 C   0  0  0  0  0  0  0  0  0  0  0  0
   10.8670   15.3000   29.4195 C   0  0  0  0  0  0  0  0  0  0  0  0
    8.4421   14.8411   28.8309 C   0  0  0  0  0  0  0  0  0  0  0  0
    7.1722   11.9008   25.6220 C   0  0  0  0  0  0  0  0  0  0  0  0
    6.2916   12.4536   26.5702 C   0  0  0  0  0  0  0  0  0  0  0  0
    5.4705   11.5943   27.2851 C   0  0  0  0  0  0  0  0  0  0  0  0
    4.6377   12.0906   28.2093 F   0  0  0  0  0  0  0  0  0  0  0  0
    5.4879   10.2315   27.0490 C   0  0  0  0  0  0  0  0  0  0  0  0
    6.3376    9.6951   26.0790 C   0  0  0  0  0  0  0  0  0  0  0  0
    7.2357   10.5287   25.4254 C   0  0  0  0  0  0  0  0  0  0  0  0
  1  2  1  0
  2  3  1  0
  3  4  2  0
  4  5  1  0
  5  6  2  0
  5  7  1  0
  7  8  1  0
  8  9  1  6
  9 10  1  0
 10 11  2  0
 11 12  1  0
 12 13  1  0
 13 14  2  0
  8 15  1  0
 15 16  2  0
 15 17  1  0
 17 18  1  0
 18 19  1  0
 18 20  1  0
 18 21  1  0
  4 22  1  0
 22 23  2  0
 23 24  1  0
 24 25  1  0
 24 26  2  0
 26 27  1  0
 27 28  2  0
 28  2  1  0
 14 10  1  0
 28 22  1  0
M  END
>  <energy_score>  (3743) 
-19.337929

>  <inchikey>  (3743) 
ABNAGSZVCSZFJI-UHFFFAOYSA-N

>  <smiles>  (3743) 
Cn1nc(C(=O)NC(Cc2cocn2)C(=O)OC(C)(C)C)c2cc(F)ccc21

>  <ref_pdb>  (3743) 
A0514a

>  <alias>  (3743) 
ABNAGSZVCSZFJI-UHFFFAOYSA-N-P183-P126-P183-601502

>  <HIPPO Pose ID>  (3743) 
503451

>  <name>  (3743) 
ABNAGSZVCSZFJI-UHFFFAOYSA-N-P183-P126-P183-601502

>  <HIPPO Compound ID>  (3743) 
289860

>  <ref_mols>  (3743) 
A2290a,A3436a

>  <distance_score>  (3743) 
1.982747

>  <inspiration_score>  (3743) 
None

$$$$
ATWVTYZZYXHEHG-UHFFFAOYSA-N-P126-P126-P183-601502
     RDKit          3D

 28 31  0  0  0  0  0  0  0  0999 V2000
    8.6391   13.4487   22.5141 C   0  0  0  0  0  0  0  0  0  0  0  0
    9.5572   14.2497   21.7143 C   0  0  0  0  0  0  0  0  0  0  0  0
    8.8794   15.2283   21.0868 O   0  0  0  0  0  0  0  0  0  0  0  0
    9.8436   15.9619   20.5183 C   0  0  0  0  0  0  0  0  0  0  0  0
    9.3293   17.0951   19.8606 C   0  0  0  0  0  0  0  0  0  0  0  0
    9.3456   17.1008   18.4831 C   0  0  0  0  0  0  0  0  0  0  0  0
    8.4212   17.8816   17.8544 C   0  0  0  0  0  0  0  0  0  0  0  0
    7.6532   18.7646   18.5980 C   0  0  0  0  0  0  0  0  0  0  0  0
    7.8224   18.9185   19.9458 C   0  0  0  0  0  0  0  0  0  0  0  0
    8.6170   18.0284   20.6013 C   0  0  0  0  0  0  0  0  0  0  0  0
   11.0456   15.4825   20.6226 N   0  0  0  0  0  0  0  0  0  0  0  0
   10.9034   14.4116   21.4343 C   0  0  0  0  0  0  0  0  0  0  0  0
   12.1752   13.7811   21.8546 C   0  0  0  0  0  0  0  0  0  0  0  0
   12.3472   13.7669   23.3565 C   0  0  0  0  0  0  0  0  0  0  0  0
   11.4113   12.8612   23.9116 N   0  0  0  0  0  0  0  0  0  0  0  0
   10.4072   13.0436   25.0431 C   0  0  0  0  0  0  0  0  0  0  0  0
   10.2334   13.9423   25.7596 O   0  0  0  0  0  0  0  0  0  0  0  0
    9.5758   11.8352   25.0003 C   0  0  0  0  0  0  0  0  0  0  0  0
    9.9115   10.8497   24.1458 N   0  0  0  0  0  0  0  0  0  0  0  0
    8.9433    9.9424   24.2680 N   0  0  0  0  0  0  0  0  0  0  0  0
    9.0485    8.7808   23.4213 C   0  0  0  0  0  0  0  0  0  0  0  0
    7.9814   10.3097   25.1784 C   0  0  0  0  0  0  0  0  0  0  0  0
    6.8287    9.6915   25.6587 C   0  0  0  0  0  0  0  0  0  0  0  0
    6.0298   10.3908   26.5668 C   0  0  0  0  0  0  0  0  0  0  0  0
    6.3623   11.6771   26.9607 C   0  0  0  0  0  0  0  0  0  0  0  0
    5.5703   12.3213   27.8280 F   0  0  0  0  0  0  0  0  0  0  0  0
    7.5125   12.2987   26.4983 C   0  0  0  0  0  0  0  0  0  0  0  0
    8.3429   11.5831   25.6212 C   0  0  0  0  0  0  0  0  0  0  0  0
  1  2  1  0
  2  3  1  0
  3  4  1  0
  4  5  1  0
  5  6  2  0
  6  7  1  0
  7  8  2  0
  8  9  1  0
  9 10  2  0
  4 11  2  0
 11 12  1  0
 12 13  1  0
 13 14  1  0
 14 15  1  0
 15 16  1  0
 16 17  2  0
 16 18  1  0
 18 19  2  0
 19 20  1  0
 20 21  1  0
 20 22  1  0
 22 23  2  0
 23 24  1  0
 24 25  2  0
 25 26  1  0
 25 27  1  0
 27 28  2  0
 12  2  2  0
 28 18  1  0
 10  5  1  0
 28 22  1  0
M  END
>  <energy_score>  (3744) 
-9.847137

>  <inchikey>  (3744) 
ATWVTYZZYXHEHG-UHFFFAOYSA-N

>  <smiles>  (3744) 
Cc1oc(-c2ccccc2)nc1CCNC(=O)c1nn(C)c2ccc(F)cc12

>  <ref_pdb>  (3744) 
A0514a

>  <alias>  (3744) 
ATWVTYZZYXHEHG-UHFFFAOYSA-N-P126-P126-P183-601502

>  <HIPPO Pose ID>  (3744) 
503452

>  <name>  (3744) 
ATWVTYZZYXHEHG-UHFFFAOYSA-N-P126-P126-P183-601502

>  <HIPPO Compound ID>  (3744) 
289861

>  <ref_mols>  (3744) 
A2290a,A3436a

>  <distance_score>  (3744) 
1.312593

>  <inspiration_score>  (3744) 
None

$$$$
ATWVTYZZYXHEHG-UHFFFAOYSA-N-P183-P126-P183-601502
     RDKit          3D

 28 31  0  0  0  0  0  0  0  0999 V2000
   11.7875   14.5293   18.4473 C   0  0  0  0  0  0  0  0  0  0  0  0
   11.0374   14.9089   19.6096 C   0  0  0  0  0  0  0  0  0  0  0  0
    9.8540   15.4396   19.3260 O   0  0  0  0  0  0  0  0  0  0  0  0
    9.5562   16.1032   20.4601 C   0  0  0  0  0  0  0  0  0  0  0  0
    8.8370   17.2814   20.1647 C   0  0  0  0  0  0  0  0  0  0  0  0
    8.3661   17.4683   18.8850 C   0  0  0  0  0  0  0  0  0  0  0  0
    7.6211   18.5418   18.5062 C   0  0  0  0  0  0  0  0  0  0  0  0
    7.5080   19.5280   19.3616 C   0  0  0  0  0  0  0  0  0  0  0  0
    8.2032   19.4668   20.5187 C   0  0  0  0  0  0  0  0  0  0  0  0
    8.7971   18.3392   20.9900 C   0  0  0  0  0  0  0  0  0  0  0  0
   10.2487   15.7532   21.5117 N   0  0  0  0  0  0  0  0  0  0  0  0
   11.2388   14.9999   20.9565 C   0  0  0  0  0  0  0  0  0  0  0  0
   12.3773   14.5236   21.7332 C   0  0  0  0  0  0  0  0  0  0  0  0
   12.0922   14.4177   23.2109 C   0  0  0  0  0  0  0  0  0  0  0  0
   11.0137   13.5266   23.4643 N   0  0  0  0  0  0  0  0  0  0  0  0
    9.9131   13.5792   24.5118 C   0  0  0  0  0  0  0  0  0  0  0  0
    9.6566   14.3978   25.2952 O   0  0  0  0  0  0  0  0  0  0  0  0
    9.1825   12.3168   24.4227 C   0  0  0  0  0  0  0  0  0  0  0  0
    9.6456   11.2997   23.6704 N   0  0  0  0  0  0  0  0  0  0  0  0
    8.8976   10.2508   24.0445 N   0  0  0  0  0  0  0  0  0  0  0  0
    9.2472    8.9539   23.5109 C   0  0  0  0  0  0  0  0  0  0  0  0
    7.9300   10.5803   24.9680 C   0  0  0  0  0  0  0  0  0  0  0  0
    6.9680    9.8387   25.6572 C   0  0  0  0  0  0  0  0  0  0  0  0
    6.1148   10.5064   26.5392 C   0  0  0  0  0  0  0  0  0  0  0  0
    6.2115   11.8776   26.7104 C   0  0  0  0  0  0  0  0  0  0  0  0
    5.3872   12.4874   27.5727 F   0  0  0  0  0  0  0  0  0  0  0  0
    7.1644   12.6233   26.0309 C   0  0  0  0  0  0  0  0  0  0  0  0
    8.0408   11.9527   25.1592 C   0  0  0  0  0  0  0  0  0  0  0  0
  1  2  1  0
  2  3  1  0
  3  4  1  0
  4  5  1  0
  5  6  2  0
  6  7  1  0
  7  8  2  0
  8  9  1  0
  9 10  2  0
  4 11  2  0
 11 12  1  0
 12 13  1  0
 13 14  1  0
 14 15  1  0
 15 16  1  0
 16 17  2  0
 16 18  1  0
 18 19  2  0
 19 20  1  0
 20 21  1  0
 20 22  1  0
 22 23  2  0
 23 24  1  0
 24 25  2  0
 25 26  1  0
 25 27  1  0
 27 28  2  0
 12  2  2  0
 28 18  1  0
 10  5  1  0
 28 22  1  0
M  END
>  <energy_score>  (3745) 
-0.807712

>  <inchikey>  (3745) 
ATWVTYZZYXHEHG-UHFFFAOYSA-N

>  <smiles>  (3745) 
Cc1oc(-c2ccccc2)nc1CCNC(=O)c1nn(C)c2ccc(F)cc12

>  <ref_pdb>  (3745) 
A0514a

>  <alias>  (3745) 
ATWVTYZZYXHEHG-UHFFFAOYSA-N-P183-P126-P183-601502

>  <HIPPO Pose ID>  (3745) 
503453

>  <name>  (3745) 
ATWVTYZZYXHEHG-UHFFFAOYSA-N-P183-P126-P183-601502

>  <HIPPO Compound ID>  (3745) 
289861

>  <ref_mols>  (3745) 
A2290a,A3436a

>  <distance_score>  (3745) 
0.851283

>  <inspiration_score>  (3745) 
None

$$$$
JNAGOACLKSWBJD-UHFFFAOYSA-N-P126-P126-P183-601502
     RDKit          3D

 28 31  0  0  0  0  0  0  0  0999 V2000
    9.1964    8.8285   23.2747 C   0  0  0  0  0  0  0  0  0  0  0  0
    8.9990   10.0716   23.9811 N   0  0  0  0  0  0  0  0  0  0  0  0
    9.8196   11.0897   23.6909 N   0  0  0  0  0  0  0  0  0  0  0  0
    9.4341   12.0750   24.5247 C   0  0  0  0  0  0  0  0  0  0  0  0
   10.2166   13.3057   24.6207 C   0  0  0  0  0  0  0  0  0  0  0  0
   10.0375   14.1150   25.4358 O   0  0  0  0  0  0  0  0  0  0  0  0
   11.2772   13.2178   23.5326 N   0  0  0  0  0  0  0  0  0  0  0  0
   12.2811   14.1382   23.1500 C   0  0  0  0  0  0  0  0  0  0  0  0
   12.6543   14.0599   21.7024 C   0  0  0  0  0  0  0  0  0  0  0  0
   11.6501   14.5449   20.7701 C   0  0  0  0  0  0  0  0  0  0  0  0
   11.6894   14.4042   19.4108 C   0  0  0  0  0  0  0  0  0  0  0  0
   10.6654   15.0913   18.9031 O   0  0  0  0  0  0  0  0  0  0  0  0
   10.1211   15.7065   19.9768 C   0  0  0  0  0  0  0  0  0  0  0  0
    9.3326   16.8416   19.6354 C   0  0  0  0  0  0  0  0  0  0  0  0
    9.1093   17.1630   18.3049 C   0  0  0  0  0  0  0  0  0  0  0  0
    8.2317   18.1570   17.9975 C   0  0  0  0  0  0  0  0  0  0  0  0
    7.7040   18.9137   19.0121 C   0  0  0  0  0  0  0  0  0  0  0  0
    6.7854   19.8191   18.7212 F   0  0  0  0  0  0  0  0  0  0  0  0
    8.0825   18.7499   20.3071 C   0  0  0  0  0  0  0  0  0  0  0  0
    8.8268   17.6531   20.6294 C   0  0  0  0  0  0  0  0  0  0  0  0
   10.6017   15.3346   21.1414 N   0  0  0  0  0  0  0  0  0  0  0  0
    8.3034   11.7171   25.2790 C   0  0  0  0  0  0  0  0  0  0  0  0
    7.4992   12.3625   26.2334 C   0  0  0  0  0  0  0  0  0  0  0  0
    6.4861   11.6320   26.8391 C   0  0  0  0  0  0  0  0  0  0  0  0
    5.7178   12.2173   27.7677 F   0  0  0  0  0  0  0  0  0  0  0  0
    6.2716   10.2985   26.5267 C   0  0  0  0  0  0  0  0  0  0  0  0
    7.0647    9.6546   25.5741 C   0  0  0  0  0  0  0  0  0  0  0  0
    8.0738   10.3848   24.9489 C   0  0  0  0  0  0  0  0  0  0  0  0
  1  2  1  0
  2  3  1  0
  3  4  2  0
  4  5  1  0
  5  6  2  0
  5  7  1  0
  7  8  1  0
  8  9  1  0
  9 10  1  0
 10 11  2  0
 11 12  1  0
 12 13  1  0
 13 14  1  0
 14 15  2  0
 15 16  1  0
 16 17  2  0
 17 18  1  0
 17 19  1  0
 19 20  2  0
 13 21  2  0
  4 22  1  0
 22 23  2  0
 23 24  1  0
 24 25  1  0
 24 26  2  0
 26 27  1  0
 27 28  2  0
 28  2  1  0
 21 10  1  0
 28 22  1  0
 20 14  1  0
M  END
>  <energy_score>  (3746) 
-0.652919

>  <inchikey>  (3746) 
JNAGOACLKSWBJD-UHFFFAOYSA-N

>  <smiles>  (3746) 
Cn1nc(C(=O)NCCc2coc(-c3ccc(F)cc3)n2)c2cc(F)ccc21

>  <ref_pdb>  (3746) 
A0514a

>  <alias>  (3746) 
JNAGOACLKSWBJD-UHFFFAOYSA-N-P126-P126-P183-601502

>  <HIPPO Pose ID>  (3746) 
503454

>  <name>  (3746) 
JNAGOACLKSWBJD-UHFFFAOYSA-N-P126-P126-P183-601502

>  <HIPPO Compound ID>  (3746) 
289862

>  <ref_mols>  (3746) 
A2290a,A3436a

>  <distance_score>  (3746) 
0.981433

>  <inspiration_score>  (3746) 
None

$$$$
OYDVKSICLADJQR-UHFFFAOYSA-N-P126-P126-P183-601502
     RDKit          3D

 28 31  0  0  0  0  0  0  0  0999 V2000
    9.2068    8.8257   23.2684 C   0  0  0  0  0  0  0  0  0  0  0  0
    9.0125   10.0662   23.9802 N   0  0  0  0  0  0  0  0  0  0  0  0
    9.8421   11.0803   23.7024 N   0  0  0  0  0  0  0  0  0  0  0  0
    9.4427   12.0703   24.5246 C   0  0  0  0  0  0  0  0  0  0  0  0
   10.2251   13.3007   24.6236 C   0  0  0  0  0  0  0  0  0  0  0  0
   10.0666   14.0939   25.4586 O   0  0  0  0  0  0  0  0  0  0  0  0
   11.2705   13.2239   23.5203 N   0  0  0  0  0  0  0  0  0  0  0  0
   12.2805   14.1397   23.1453 C   0  0  0  0  0  0  0  0  0  0  0  0
   12.6543   14.0635   21.6980 C   0  0  0  0  0  0  0  0  0  0  0  0
   11.6497   14.5485   20.7667 C   0  0  0  0  0  0  0  0  0  0  0  0
   11.6862   14.4054   19.4075 C   0  0  0  0  0  0  0  0  0  0  0  0
   10.6617   15.0925   18.9009 O   0  0  0  0  0  0  0  0  0  0  0  0
   10.1202   15.7097   19.9746 C   0  0  0  0  0  0  0  0  0  0  0  0
    9.3313   16.8442   19.6336 C   0  0  0  0  0  0  0  0  0  0  0  0
    9.1075   17.1651   18.3031 C   0  0  0  0  0  0  0  0  0  0  0  0
    8.2296   18.1588   17.9963 C   0  0  0  0  0  0  0  0  0  0  0  0
    7.7023   18.9152   19.0114 C   0  0  0  0  0  0  0  0  0  0  0  0
    6.7839   19.8208   18.7208 F   0  0  0  0  0  0  0  0  0  0  0  0
    8.0813   18.7517   20.3063 C   0  0  0  0  0  0  0  0  0  0  0  0
    8.8260   17.6553   20.6282 C   0  0  0  0  0  0  0  0  0  0  0  0
   10.6038   15.3410   21.1388 N   0  0  0  0  0  0  0  0  0  0  0  0
    8.3076   11.7120   25.2719 C   0  0  0  0  0  0  0  0  0  0  0  0
    7.4941   12.3598   26.2184 C   0  0  0  0  0  0  0  0  0  0  0  0
    6.4734   11.6313   26.8226 C   0  0  0  0  0  0  0  0  0  0  0  0
    5.3644   12.4653   28.1068 Br  0  0  0  0  0  0  0  0  0  0  0  0
    6.2701   10.2923   26.5104 C   0  0  0  0  0  0  0  0  0  0  0  0
    7.0740    9.6493   25.5653 C   0  0  0  0  0  0  0  0  0  0  0  0
    8.0836   10.3794   24.9439 C   0  0  0  0  0  0  0  0  0  0  0  0
  1  2  1  0
  2  3  1  0
  3  4  2  0
  4  5  1  0
  5  6  2  0
  5  7  1  0
  7  8  1  0
  8  9  1  0
  9 10  1  0
 10 11  2  0
 11 12  1  0
 12 13  1  0
 13 14  1  0
 14 15  2  0
 15 16  1  0
 16 17  2  0
 17 18  1  0
 17 19  1  0
 19 20  2  0
 13 21  2  0
  4 22  1  0
 22 23  2  0
 23 24  1  0
 24 25  1  0
 24 26  2  0
 26 27  1  0
 27 28  2  0
 28  2  1  0
 21 10  1  0
 28 22  1  0
 20 14  1  0
M  END
>  <energy_score>  (3747) 
-0.477967

>  <inchikey>  (3747) 
OYDVKSICLADJQR-UHFFFAOYSA-N

>  <smiles>  (3747) 
Cn1nc(C(=O)NCCc2coc(-c3ccc(F)cc3)n2)c2cc(Br)ccc21

>  <ref_pdb>  (3747) 
A0514a

>  <alias>  (3747) 
OYDVKSICLADJQR-UHFFFAOYSA-N-P126-P126-P183-601502

>  <HIPPO Pose ID>  (3747) 
503456

>  <name>  (3747) 
OYDVKSICLADJQR-UHFFFAOYSA-N-P126-P126-P183-601502

>  <HIPPO Compound ID>  (3747) 
289863

>  <ref_mols>  (3747) 
A2290a,A3436a

>  <distance_score>  (3747) 
0.978139

>  <inspiration_score>  (3747) 
None

$$$$
KMUFPHPBOXOVEH-UHFFFAOYSA-N-P126-P126-P183-601502
     RDKit          3D

 28 31  0  0  0  0  0  0  0  0999 V2000
    8.5999   17.3829   20.6674 C   0  0  0  0  0  0  0  0  0  0  0  0
    9.5441   16.2604   20.5594 C   0  0  0  0  0  0  0  0  0  0  0  0
   10.1411   15.6139   21.5373 N   0  0  0  0  0  0  0  0  0  0  0  0
   11.0868   14.8617   20.9151 C   0  0  0  0  0  0  0  0  0  0  0  0
   12.2043   14.2139   21.6333 C   0  0  0  0  0  0  0  0  0  0  0  0
   12.0771   14.3087   23.1374 C   0  0  0  0  0  0  0  0  0  0  0  0
   10.9458   13.6062   23.6408 N   0  0  0  0  0  0  0  0  0  0  0  0
   10.1395   13.8074   24.9324 C   0  0  0  0  0  0  0  0  0  0  0  0
   10.3172   14.5303   25.8301 O   0  0  0  0  0  0  0  0  0  0  0  0
    9.0753   12.8055   24.8829 C   0  0  0  0  0  0  0  0  0  0  0  0
    9.1273   11.8984   23.8937 N   0  0  0  0  0  0  0  0  0  0  0  0
    8.4261   10.8858   24.3757 N   0  0  0  0  0  0  0  0  0  0  0  0
    8.9566    9.5648   24.1852 C   0  0  0  0  0  0  0  0  0  0  0  0
   10.0894    9.4732   23.1544 C   0  0  1  0  0  0  0  0  0  0  0  0
   10.9936    8.3083   23.3820 C   0  0  0  0  0  0  0  0  0  0  0  0
   10.0492    7.2928   23.2751 N   0  0  0  0  0  0  0  0  0  0  0  0
    9.2220    7.6950   22.2611 C   0  0  0  0  0  0  0  0  0  0  0  0
    8.4210    6.9704   21.7242 O   0  0  0  0  0  0  0  0  0  0  0  0
    9.4835    8.9984   21.9814 O   0  0  0  0  0  0  0  0  0  0  0  0
    7.6145   11.2220   25.4236 C   0  0  0  0  0  0  0  0  0  0  0  0
    6.6723   10.4844   26.1439 C   0  0  0  0  0  0  0  0  0  0  0  0
    6.0831   11.1232   27.2319 C   0  0  0  0  0  0  0  0  0  0  0  0
    6.4539   12.4189   27.5955 C   0  0  0  0  0  0  0  0  0  0  0  0
    7.4372   13.1199   26.8893 C   0  0  0  0  0  0  0  0  0  0  0  0
    8.0194   12.5082   25.7737 C   0  0  0  0  0  0  0  0  0  0  0  0
   10.9183   14.9677   19.5631 C   0  0  0  0  0  0  0  0  0  0  0  0
   11.7187   14.4670   18.4578 C   0  0  0  0  0  0  0  0  0  0  0  0
    9.9127   15.8532   19.3113 O   0  0  0  0  0  0  0  0  0  0  0  0
  1  2  1  0
  2  3  2  0
  3  4  1  0
  4  5  1  0
  5  6  1  0
  6  7  1  0
  7  8  1  0
  8  9  2  0
  8 10  1  0
 10 11  2  0
 11 12  1  0
 12 13  1  0
 14 13  1  1
 14 15  1  0
 15 16  1  0
 16 17  1  0
 17 18  2  0
 17 19  1  0
 12 20  1  0
 20 21  2  0
 21 22  1  0
 22 23  2  0
 23 24  1  0
 24 25  2  0
  4 26  2  0
 26 27  1  0
 26 28  1  0
 28  2  1  0
 25 10  1  0
 19 14  1  0
 25 20  1  0
M  END
>  <energy_score>  (3748) 
-15.778055

>  <inchikey>  (3748) 
KMUFPHPBOXOVEH-UHFFFAOYSA-N

>  <smiles>  (3748) 
Cc1nc(CCNC(=O)c2nn(CC3CNC(=O)O3)c3ccccc23)c(C)o1

>  <ref_pdb>  (3748) 
A0514a

>  <alias>  (3748) 
KMUFPHPBOXOVEH-UHFFFAOYSA-N-P126-P126-P183-601502

>  <HIPPO Pose ID>  (3748) 
503460

>  <name>  (3748) 
KMUFPHPBOXOVEH-UHFFFAOYSA-N-P126-P126-P183-601502

>  <HIPPO Compound ID>  (3748) 
289865

>  <ref_mols>  (3748) 
A2290a,A3436a

>  <distance_score>  (3748) 
1.240093

>  <inspiration_score>  (3748) 
None

$$$$
KMUFPHPBOXOVEH-UHFFFAOYSA-N-P183-P126-P183-601502
     RDKit          3D

 28 31  0  0  0  0  0  0  0  0999 V2000
    8.5432   17.9199   20.2812 C   0  0  0  0  0  0  0  0  0  0  0  0
    9.3984   16.7277   20.3309 C   0  0  0  0  0  0  0  0  0  0  0  0
    9.9815   16.1530   21.3616 N   0  0  0  0  0  0  0  0  0  0  0  0
   10.8786   15.2875   20.8030 C   0  0  0  0  0  0  0  0  0  0  0  0
   11.9679   14.6308   21.5634 C   0  0  0  0  0  0  0  0  0  0  0  0
   11.8035   14.6632   23.0695 C   0  0  0  0  0  0  0  0  0  0  0  0
   10.6657   13.9259   23.5167 N   0  0  0  0  0  0  0  0  0  0  0  0
    9.8472   14.0423   24.8083 C   0  0  0  0  0  0  0  0  0  0  0  0
   10.0140   14.7059   25.7514 O   0  0  0  0  0  0  0  0  0  0  0  0
    8.7845   13.0412   24.7229 C   0  0  0  0  0  0  0  0  0  0  0  0
    8.9114   12.0637   23.8129 N   0  0  0  0  0  0  0  0  0  0  0  0
    8.2260   11.0634   24.3562 N   0  0  0  0  0  0  0  0  0  0  0  0
    8.7909    9.7496   24.2711 C   0  0  0  0  0  0  0  0  0  0  0  0
    9.8459    9.5797   23.2015 C   0  0  1  0  0  0  0  0  0  0  0  0
   10.7285    8.4206   23.4946 C   0  0  0  0  0  0  0  0  0  0  0  0
    9.7699    7.4025   23.4207 N   0  0  0  0  0  0  0  0  0  0  0  0
    8.9554    7.7656   22.3879 C   0  0  0  0  0  0  0  0  0  0  0  0
    8.1968    7.0023   21.8409 O   0  0  0  0  0  0  0  0  0  0  0  0
    9.2132    9.0554   22.0716 O   0  0  0  0  0  0  0  0  0  0  0  0
    7.3894   11.4418   25.3691 C   0  0  0  0  0  0  0  0  0  0  0  0
    6.4943   10.7146   26.1598 C   0  0  0  0  0  0  0  0  0  0  0  0
    5.8387   11.4165   27.1675 C   0  0  0  0  0  0  0  0  0  0  0  0
    6.1044   12.7671   27.3927 C   0  0  0  0  0  0  0  0  0  0  0  0
    7.0450   13.4612   26.6244 C   0  0  0  0  0  0  0  0  0  0  0  0
    7.6943   12.7813   25.5866 C   0  0  0  0  0  0  0  0  0  0  0  0
   10.7122   15.3013   19.4429 C   0  0  0  0  0  0  0  0  0  0  0  0
   11.4537   14.7003   18.3489 C   0  0  0  0  0  0  0  0  0  0  0  0
    9.7426   16.1954   19.1244 O   0  0  0  0  0  0  0  0  0  0  0  0
  1  2  1  0
  2  3  2  0
  3  4  1  0
  4  5  1  0
  5  6  1  0
  6  7  1  0
  7  8  1  0
  8  9  2  0
  8 10  1  0
 10 11  2  0
 11 12  1  0
 12 13  1  0
 14 13  1  1
 14 15  1  0
 15 16  1  0
 16 17  1  0
 17 18  2  0
 17 19  1  0
 12 20  1  0
 20 21  2  0
 21 22  1  0
 22 23  2  0
 23 24  1  0
 24 25  2  0
  4 26  2  0
 26 27  1  0
 26 28  1  0
 28  2  1  0
 25 10  1  0
 19 14  1  0
 25 20  1  0
M  END
>  <energy_score>  (3749) 
-18.600423

>  <inchikey>  (3749) 
KMUFPHPBOXOVEH-UHFFFAOYSA-N

>  <smiles>  (3749) 
Cc1nc(CCNC(=O)c2nn(CC3CNC(=O)O3)c3ccccc23)c(C)o1

>  <ref_pdb>  (3749) 
A0514a

>  <alias>  (3749) 
KMUFPHPBOXOVEH-UHFFFAOYSA-N-P183-P126-P183-601502

>  <HIPPO Pose ID>  (3749) 
503461

>  <name>  (3749) 
KMUFPHPBOXOVEH-UHFFFAOYSA-N-P183-P126-P183-601502

>  <HIPPO Compound ID>  (3749) 
289865

>  <ref_mols>  (3749) 
A2290a,A3436a

>  <distance_score>  (3749) 
1.333788

>  <inspiration_score>  (3749) 
None

$$$$
XDQKNPYCLDNQOO-UHFFFAOYSA-N-P183-P126-P183-601502
     RDKit          3D

 28 30  0  0  0  0  0  0  0  0999 V2000
    5.5376   15.6969   29.6885 C   0  0  0  0  0  0  0  0  0  0  0  0
    5.8707   14.7232   28.6987 O   0  0  0  0  0  0  0  0  0  0  0  0
    6.8472   15.1294   27.8291 C   0  0  0  0  0  0  0  0  0  0  0  0
    7.4269   16.2087   27.9218 O   0  0  0  0  0  0  0  0  0  0  0  0
    7.1452   14.1270   26.7949 C   0  0  0  0  0  0  0  0  0  0  0  0
    7.9096   14.4468   25.7334 N   0  0  0  0  0  0  0  0  0  0  0  0
    7.8731   13.3414   24.9680 N   0  0  0  0  0  0  0  0  0  0  0  0
    8.0237   13.4950   23.5485 C   0  0  0  0  0  0  0  0  0  0  0  0
    9.2603   12.7587   23.1240 C   0  0  0  0  0  0  0  0  0  0  0  0
    9.3045   11.6095   22.9715 O   0  0  0  0  0  0  0  0  0  0  0  0
   10.3409   13.8208   22.9544 N   0  0  0  0  0  0  0  0  0  0  0  0
   11.7315   13.6912   22.6523 C   0  0  1  0  0  0  0  0  0  0  0  0
   12.1543   14.8177   21.7128 C   0  0  0  0  0  0  0  0  0  0  0  0
   11.0574   15.2943   20.8130 C   0  0  0  0  0  0  0  0  0  0  0  0
   10.8353   15.1215   19.4661 C   0  0  0  0  0  0  0  0  0  0  0  0
    9.7526   15.8784   19.1182 O   0  0  0  0  0  0  0  0  0  0  0  0
    9.3662   16.4627   20.2830 C   0  0  0  0  0  0  0  0  0  0  0  0
   10.0658   16.0989   21.3307 N   0  0  0  0  0  0  0  0  0  0  0  0
   12.3785   13.6543   24.0514 C   0  0  0  0  0  0  0  0  0  0  0  0
   12.0667   14.3869   24.9861 O   0  0  0  0  0  0  0  0  0  0  0  0
   13.3119   12.6645   24.1510 O   0  0  0  0  0  0  0  0  0  0  0  0
   14.0425   12.5346   25.3811 C   0  0  0  0  0  0  0  0  0  0  0  0
    7.4181   12.2270   25.6126 C   0  0  0  0  0  0  0  0  0  0  0  0
    7.4256   10.8712   25.2884 C   0  0  0  0  0  0  0  0  0  0  0  0
    6.6171   10.0408   26.0545 C   0  0  0  0  0  0  0  0  0  0  0  0
    5.8951   10.5271   27.1377 C   0  0  0  0  0  0  0  0  0  0  0  0
    5.9880   11.8706   27.5082 C   0  0  0  0  0  0  0  0  0  0  0  0
    6.7675   12.7437   26.7298 C   0  0  0  0  0  0  0  0  0  0  0  0
  1  2  1  0
  2  3  1  0
  3  4  2  0
  3  5  1  0
  5  6  2  0
  6  7  1  0
  7  8  1  0
  8  9  1  0
  9 10  2  0
  9 11  1  0
 11 12  1  0
 12 13  1  6
 13 14  1  0
 14 15  2  0
 15 16  1  0
 16 17  1  0
 17 18  2  0
 12 19  1  0
 19 20  2  0
 19 21  1  0
 21 22  1  0
  7 23  1  0
 23 24  2  0
 24 25  1  0
 25 26  2  0
 26 27  1  0
 27 28  2  0
 28  5  1  0
 18 14  1  0
 28 23  1  0
M  END
>  <energy_score>  (3750) 
-10.512858

>  <inchikey>  (3750) 
XDQKNPYCLDNQOO-UHFFFAOYSA-N

>  <smiles>  (3750) 
COC(=O)c1nn(CC(=O)NC(Cc2cocn2)C(=O)OC)c2ccccc12

>  <ref_pdb>  (3750) 
A0514a

>  <alias>  (3750) 
XDQKNPYCLDNQOO-UHFFFAOYSA-N-P183-P126-P183-601502

>  <HIPPO Pose ID>  (3750) 
503469

>  <name>  (3750) 
XDQKNPYCLDNQOO-UHFFFAOYSA-N-P183-P126-P183-601502

>  <HIPPO Compound ID>  (3750) 
289869

>  <ref_mols>  (3750) 
A2290a,A3436a

>  <distance_score>  (3750) 
1.889064

>  <inspiration_score>  (3750) 
None

$$$$
QAFFVBNCZZHNSX-UHFFFAOYSA-N-P126-P126-P183-601502
     RDKit          3D

 28 30  0  0  0  0  0  0  0  0999 V2000
    3.5761   12.3969   29.0407 C   0  0  0  0  0  0  0  0  0  0  0  0
    4.4210   11.7617   28.0801 O   0  0  0  0  0  0  0  0  0  0  0  0
    5.5973   12.4076   27.8791 C   0  0  0  0  0  0  0  0  0  0  0  0
    5.9696   13.4252   28.4394 O   0  0  0  0  0  0  0  0  0  0  0  0
    6.3987   11.7005   26.8530 C   0  0  0  0  0  0  0  0  0  0  0  0
    6.2912   10.3221   26.6645 C   0  0  0  0  0  0  0  0  0  0  0  0
    7.0797    9.6651   25.7164 C   0  0  0  0  0  0  0  0  0  0  0  0
    7.9751   10.4140   24.9586 C   0  0  0  0  0  0  0  0  0  0  0  0
    8.0714   11.7894   25.1082 C   0  0  0  0  0  0  0  0  0  0  0  0
    7.2973   12.4486   26.0814 C   0  0  0  0  0  0  0  0  0  0  0  0
    9.0000   12.1839   24.1242 C   0  0  0  0  0  0  0  0  0  0  0  0
    9.4726   13.5369   23.8614 C   0  0  0  0  0  0  0  0  0  0  0  0
    9.3074   14.3979   24.6235 O   0  0  0  0  0  0  0  0  0  0  0  0
   10.2430   13.5148   22.5449 N   0  0  0  0  0  0  0  0  0  0  0  0
   11.0614   14.5240   21.9212 C   0  0  2  0  0  0  0  0  0  0  0  0
   10.7868   14.6487   20.4307 C   0  0  0  0  0  0  0  0  0  0  0  0
    9.9383   15.8143   20.0888 C   0  0  0  0  0  0  0  0  0  0  0  0
    9.8613   16.5226   18.9136 C   0  0  0  0  0  0  0  0  0  0  0  0
    9.0476   17.5925   19.1059 O   0  0  0  0  0  0  0  0  0  0  0  0
    8.6860   17.4860   20.4122 C   0  0  0  0  0  0  0  0  0  0  0  0
    9.1253   16.4049   21.0168 N   0  0  0  0  0  0  0  0  0  0  0  0
   12.5282   14.2424   22.1446 C   0  0  0  0  0  0  0  0  0  0  0  0
   13.4015   15.0125   21.7741 O   0  0  0  0  0  0  0  0  0  0  0  0
   12.8153   13.0504   22.7286 O   0  0  0  0  0  0  0  0  0  0  0  0
   12.6423   12.9909   24.1401 C   0  0  0  0  0  0  0  0  0  0  0  0
    9.4811   11.1386   23.4254 N   0  0  0  0  0  0  0  0  0  0  0  0
    8.8797   10.0787   23.9811 N   0  0  0  0  0  0  0  0  0  0  0  0
    9.2655    8.7610   23.5430 C   0  0  0  0  0  0  0  0  0  0  0  0
  1  2  1  0
  2  3  1  0
  3  4  2  0
  3  5  1  0
  5  6  2  0
  6  7  1  0
  7  8  2  0
  8  9  1  0
  9 10  2  0
  9 11  1  0
 11 12  1  0
 12 13  2  0
 12 14  1  0
 14 15  1  0
 15 16  1  6
 16 17  1  0
 17 18  2  0
 18 19  1  0
 19 20  1  0
 20 21  2  0
 15 22  1  0
 22 23  2  0
 22 24  1  0
 24 25  1  0
 11 26  2  0
 26 27  1  0
 27 28  1  0
 10  5  1  0
 21 17  1  0
 27  8  1  0
M  END
>  <energy_score>  (3751) 
-21.106384

>  <inchikey>  (3751) 
QAFFVBNCZZHNSX-UHFFFAOYSA-N

>  <smiles>  (3751) 
COC(=O)c1ccc2c(c1)c(C(=O)NC(Cc1cocn1)C(=O)OC)nn2C

>  <ref_pdb>  (3751) 
A0514a

>  <alias>  (3751) 
QAFFVBNCZZHNSX-UHFFFAOYSA-N-P126-P126-P183-601502

>  <HIPPO Pose ID>  (3751) 
503470

>  <name>  (3751) 
QAFFVBNCZZHNSX-UHFFFAOYSA-N-P126-P126-P183-601502

>  <HIPPO Compound ID>  (3751) 
289870

>  <ref_mols>  (3751) 
A2290a,A3436a

>  <distance_score>  (3751) 
1.01565

>  <inspiration_score>  (3751) 
None

$$$$
QAFFVBNCZZHNSX-UHFFFAOYSA-N-P183-P126-P183-601502
     RDKit          3D

 28 30  0  0  0  0  0  0  0  0999 V2000
    3.0539   12.3006   29.1072 C   0  0  0  0  0  0  0  0  0  0  0  0
    3.9480   11.7003   28.1686 O   0  0  0  0  0  0  0  0  0  0  0  0
    5.0809   12.4181   27.9605 C   0  0  0  0  0  0  0  0  0  0  0  0
    5.3771   13.4717   28.4989 O   0  0  0  0  0  0  0  0  0  0  0  0
    5.9405   11.7406   26.9608 C   0  0  0  0  0  0  0  0  0  0  0  0
    5.8892   10.3627   26.7604 C   0  0  0  0  0  0  0  0  0  0  0  0
    6.7291    9.7383   25.8328 C   0  0  0  0  0  0  0  0  0  0  0  0
    7.6410   10.5068   25.1188 C   0  0  0  0  0  0  0  0  0  0  0  0
    7.6655   11.8840   25.2720 C   0  0  0  0  0  0  0  0  0  0  0  0
    6.8393   12.5155   26.2209 C   0  0  0  0  0  0  0  0  0  0  0  0
    8.6417   12.3087   24.3631 C   0  0  0  0  0  0  0  0  0  0  0  0
    9.2327   13.6283   24.2879 C   0  0  0  0  0  0  0  0  0  0  0  0
    9.0085   14.4665   25.0570 O   0  0  0  0  0  0  0  0  0  0  0  0
   10.2039   13.5944   23.1257 N   0  0  0  0  0  0  0  0  0  0  0  0
   11.1709   14.5332   22.7113 C   0  0  2  0  0  0  0  0  0  0  0  0
   11.5196   14.6223   21.2403 C   0  0  0  0  0  0  0  0  0  0  0  0
   10.5069   15.3683   20.4822 C   0  0  0  0  0  0  0  0  0  0  0  0
   10.3414   15.4627   19.1269 C   0  0  0  0  0  0  0  0  0  0  0  0
    9.4186   16.4319   18.8924 O   0  0  0  0  0  0  0  0  0  0  0  0
    9.0792   16.8848   20.1305 C   0  0  0  0  0  0  0  0  0  0  0  0
    9.6621   16.2455   21.1116 N   0  0  0  0  0  0  0  0  0  0  0  0
   12.3934   14.1145   23.4636 C   0  0  0  0  0  0  0  0  0  0  0  0
   13.4440   14.6671   23.2107 O   0  0  0  0  0  0  0  0  0  0  0  0
   12.2592   13.1570   24.4245 O   0  0  0  0  0  0  0  0  0  0  0  0
   13.4614   12.7187   25.0551 C   0  0  0  0  0  0  0  0  0  0  0  0
    9.1641   11.2932   23.6446 N   0  0  0  0  0  0  0  0  0  0  0  0
    8.6002   10.2053   24.1780 N   0  0  0  0  0  0  0  0  0  0  0  0
    9.0645    8.9153   23.7222 C   0  0  0  0  0  0  0  0  0  0  0  0
  1  2  1  0
  2  3  1  0
  3  4  2  0
  3  5  1  0
  5  6  2  0
  6  7  1  0
  7  8  2  0
  8  9  1  0
  9 10  2  0
  9 11  1  0
 11 12  1  0
 12 13  2  0
 12 14  1  0
 14 15  1  0
 15 16  1  6
 16 17  1  0
 17 18  2  0
 18 19  1  0
 19 20  1  0
 20 21  2  0
 15 22  1  0
 22 23  2  0
 22 24  1  0
 24 25  1  0
 11 26  2  0
 26 27  1  0
 27 28  1  0
 10  5  1  0
 21 17  1  0
 27  8  1  0
M  END
>  <energy_score>  (3752) 
-25.060766

>  <inchikey>  (3752) 
QAFFVBNCZZHNSX-UHFFFAOYSA-N

>  <smiles>  (3752) 
COC(=O)c1ccc2c(c1)c(C(=O)NC(Cc1cocn1)C(=O)OC)nn2C

>  <ref_pdb>  (3752) 
A0514a

>  <alias>  (3752) 
QAFFVBNCZZHNSX-UHFFFAOYSA-N-P183-P126-P183-601502

>  <HIPPO Pose ID>  (3752) 
503471

>  <name>  (3752) 
QAFFVBNCZZHNSX-UHFFFAOYSA-N-P183-P126-P183-601502

>  <HIPPO Compound ID>  (3752) 
289870

>  <ref_mols>  (3752) 
A2290a,A3436a

>  <distance_score>  (3752) 
1.020382

>  <inspiration_score>  (3752) 
None

$$$$
PGGHLJVEZRQSGC-UHFFFAOYSA-N-P126-P126-P183-601502
     RDKit          3D

 29 32  0  0  0  0  0  0  0  0999 V2000
    8.9884    8.9675   23.8221 C   0  0  0  0  0  0  0  0  0  0  0  0
    8.6160   10.2464   24.3817 N   0  0  0  0  0  0  0  0  0  0  0  0
    9.3443   11.3178   24.0579 N   0  0  0  0  0  0  0  0  0  0  0  0
    8.9054   12.2890   24.8947 C   0  0  0  0  0  0  0  0  0  0  0  0
    9.6348   13.5615   24.9690 C   0  0  0  0  0  0  0  0  0  0  0  0
    9.4734   14.3999   25.7551 O   0  0  0  0  0  0  0  0  0  0  0  0
   10.6627   13.4338   23.8661 N   0  0  0  0  0  0  0  0  0  0  0  0
   11.6565   14.3407   23.4227 C   0  0  0  0  0  0  0  0  0  0  0  0
   12.0896   14.0990   21.9929 C   0  0  0  0  0  0  0  0  0  0  0  0
   12.4567   12.6564   21.9223 C   0  0  0  0  0  0  0  0  0  0  0  0
   13.2733   14.9902   21.7073 C   0  0  0  0  0  0  0  0  0  0  0  0
   11.1251   14.4693   20.9514 C   0  0  0  0  0  0  0  0  0  0  0  0
   11.3384   14.3631   19.5963 C   0  0  0  0  0  0  0  0  0  0  0  0
   10.4894   15.1837   18.9872 O   0  0  0  0  0  0  0  0  0  0  0  0
    9.8747   15.8071   20.0121 C   0  0  0  0  0  0  0  0  0  0  0  0
    9.2087   16.9924   19.6305 C   0  0  0  0  0  0  0  0  0  0  0  0
    9.0252   17.2693   18.2860 C   0  0  0  0  0  0  0  0  0  0  0  0
    8.1423   18.2419   17.9473 C   0  0  0  0  0  0  0  0  0  0  0  0
    7.5844   19.0185   18.9376 C   0  0  0  0  0  0  0  0  0  0  0  0
    7.9675   18.8978   20.2405 C   0  0  0  0  0  0  0  0  0  0  0  0
    8.7087   17.8230   20.6094 C   0  0  0  0  0  0  0  0  0  0  0  0
   10.1186   15.3365   21.2097 N   0  0  0  0  0  0  0  0  0  0  0  0
    7.8112   11.8617   25.6542 C   0  0  0  0  0  0  0  0  0  0  0  0
    6.9852   12.4597   26.6161 C   0  0  0  0  0  0  0  0  0  0  0  0
    5.9956   11.6786   27.2036 C   0  0  0  0  0  0  0  0  0  0  0  0
    4.8548   12.4443   28.5036 Br  0  0  0  0  0  0  0  0  0  0  0  0
    5.8316   10.3420   26.8550 C   0  0  0  0  0  0  0  0  0  0  0  0
    6.6501    9.7459   25.8946 C   0  0  0  0  0  0  0  0  0  0  0  0
    7.6441   10.5230   25.3097 C   0  0  0  0  0  0  0  0  0  0  0  0
  1  2  1  0
  2  3  1  0
  3  4  2  0
  4  5  1  0
  5  6  2  0
  5  7  1  0
  7  8  1  0
  8  9  1  0
  9 10  1  0
  9 11  1  0
  9 12  1  0
 12 13  2  0
 13 14  1  0
 14 15  1  0
 15 16  1  0
 16 17  2  0
 17 18  1  0
 18 19  2  0
 19 20  1  0
 20 21  2  0
 15 22  2  0
  4 23  1  0
 23 24  2  0
 24 25  1  0
 25 26  1  0
 25 27  2  0
 27 28  1  0
 28 29  2  0
 29  2  1  0
 22 12  1  0
 29 23  1  0
 21 16  1  0
M  END
>  <energy_score>  (3753) 
-2.32094

>  <inchikey>  (3753) 
PGGHLJVEZRQSGC-UHFFFAOYSA-N

>  <smiles>  (3753) 
Cn1nc(C(=O)NCC(C)(C)c2coc(-c3ccccc3)n2)c2cc(Br)ccc21

>  <ref_pdb>  (3753) 
A0514a

>  <alias>  (3753) 
PGGHLJVEZRQSGC-UHFFFAOYSA-N-P126-P126-P183-601502

>  <HIPPO Pose ID>  (3753) 
503472

>  <name>  (3753) 
PGGHLJVEZRQSGC-UHFFFAOYSA-N-P126-P126-P183-601502

>  <HIPPO Compound ID>  (3753) 
289871

>  <ref_mols>  (3753) 
A2290a,A3436a

>  <distance_score>  (3753) 
1.275325

>  <inspiration_score>  (3753) 
None

$$$$
MGNDDFCFMJSPLL-UHFFFAOYSA-N-P126-P126-P183-601502
     RDKit          3D

 29 32  0  0  0  0  0  0  0  0999 V2000
    9.1878    8.7666   23.5842 C   0  0  0  0  0  0  0  0  0  0  0  0
    8.9275   10.0855   24.1051 N   0  0  0  0  0  0  0  0  0  0  0  0
    9.7516   11.0825   23.7633 N   0  0  0  0  0  0  0  0  0  0  0  0
    9.3611   12.1108   24.5404 C   0  0  0  0  0  0  0  0  0  0  0  0
   10.1633   13.3310   24.6139 C   0  0  0  0  0  0  0  0  0  0  0  0
   10.0039   14.1397   25.4337 O   0  0  0  0  0  0  0  0  0  0  0  0
   11.2196   13.2254   23.5228 N   0  0  0  0  0  0  0  0  0  0  0  0
   12.2444   14.1267   23.1424 C   0  0  0  0  0  0  0  0  0  0  0  0
   12.6183   14.0490   21.6937 C   0  0  0  0  0  0  0  0  0  0  0  0
   11.6205   14.5494   20.7599 C   0  0  0  0  0  0  0  0  0  0  0  0
   11.6627   14.4163   19.3995 C   0  0  0  0  0  0  0  0  0  0  0  0
   10.6484   15.1183   18.8914 O   0  0  0  0  0  0  0  0  0  0  0  0
   10.1030   15.7321   19.9652 C   0  0  0  0  0  0  0  0  0  0  0  0
    9.3113   16.8669   19.6256 C   0  0  0  0  0  0  0  0  0  0  0  0
    9.0720   17.1898   18.2987 C   0  0  0  0  0  0  0  0  0  0  0  0
    8.1931   18.1905   17.9990 C   0  0  0  0  0  0  0  0  0  0  0  0
    7.6604   18.9546   19.0116 C   0  0  0  0  0  0  0  0  0  0  0  0
    8.0636   18.7726   20.3027 C   0  0  0  0  0  0  0  0  0  0  0  0
    8.8125   17.6768   20.6210 C   0  0  0  0  0  0  0  0  0  0  0  0
   10.5776   15.3488   21.1302 N   0  0  0  0  0  0  0  0  0  0  0  0
    8.2053   11.8017   25.2841 C   0  0  0  0  0  0  0  0  0  0  0  0
    7.3814   12.5045   26.1804 C   0  0  0  0  0  0  0  0  0  0  0  0
    6.3279   11.8069   26.7790 C   0  0  0  0  0  0  0  0  0  0  0  0
    5.4340   12.5095   27.6974 N   0  0  0  0  0  0  0  0  0  0  0  0
    4.2761   12.0787   27.8104 O   0  0  0  0  0  0  0  0  0  0  0  0
    5.8997   13.4682   28.3284 O   0  0  0  0  0  0  0  0  0  0  0  0
    6.1162   10.4479   26.5351 C   0  0  0  0  0  0  0  0  0  0  0  0
    6.9434    9.7545   25.6507 C   0  0  0  0  0  0  0  0  0  0  0  0
    7.9716   10.4565   25.0213 C   0  0  0  0  0  0  0  0  0  0  0  0
  1  2  1  0
  2  3  1  0
  3  4  2  0
  4  5  1  0
  5  6  2  0
  5  7  1  0
  7  8  1  0
  8  9  1  0
  9 10  1  0
 10 11  2  0
 11 12  1  0
 12 13  1  0
 13 14  1  0
 14 15  2  0
 15 16  1  0
 16 17  2  0
 17 18  1  0
 18 19  2  0
 13 20  2  0
  4 21  1  0
 21 22  2  0
 22 23  1  0
 23 24  1  0
 24 25  2  0
 24 26  1  0
 23 27  2  0
 27 28  1  0
 28 29  2  0
 29  2  1  0
 20 10  1  0
 29 21  1  0
 19 14  1  0
M  CHG  2  24   1  26  -1
M  END
>  <energy_score>  (3754) 
-29.539312

>  <inchikey>  (3754) 
MGNDDFCFMJSPLL-UHFFFAOYSA-N

>  <smiles>  (3754) 
Cn1nc(C(=O)NCCc2coc(-c3ccccc3)n2)c2cc([N+](=O)[O-])ccc21

>  <ref_pdb>  (3754) 
A0514a

>  <alias>  (3754) 
MGNDDFCFMJSPLL-UHFFFAOYSA-N-P126-P126-P183-601502

>  <HIPPO Pose ID>  (3754) 
503476

>  <name>  (3754) 
MGNDDFCFMJSPLL-UHFFFAOYSA-N-P126-P126-P183-601502

>  <HIPPO Compound ID>  (3754) 
289873

>  <ref_mols>  (3754) 
A2290a,A3436a

>  <distance_score>  (3754) 
0.994081

>  <inspiration_score>  (3754) 
None

$$$$
MGNDDFCFMJSPLL-UHFFFAOYSA-N-P183-P126-P183-601502
     RDKit          3D

 29 32  0  0  0  0  0  0  0  0999 V2000
    9.3269    8.9308   23.4241 C   0  0  0  0  0  0  0  0  0  0  0  0
    9.0277   10.2481   23.9389 N   0  0  0  0  0  0  0  0  0  0  0  0
    9.7861   11.2700   23.5179 N   0  0  0  0  0  0  0  0  0  0  0  0
    9.3568   12.3248   24.2337 C   0  0  0  0  0  0  0  0  0  0  0  0
   10.0967   13.5899   24.2226 C   0  0  0  0  0  0  0  0  0  0  0  0
    9.9805   14.3813   25.0658 O   0  0  0  0  0  0  0  0  0  0  0  0
   10.9868   13.5857   22.9882 N   0  0  0  0  0  0  0  0  0  0  0  0
   11.9959   14.5053   22.5672 C   0  0  0  0  0  0  0  0  0  0  0  0
   12.3783   14.2740   21.1185 C   0  0  0  0  0  0  0  0  0  0  0  0
   11.3501   14.5923   20.1361 C   0  0  0  0  0  0  0  0  0  0  0  0
   11.4597   14.7999   18.7858 C   0  0  0  0  0  0  0  0  0  0  0  0
   10.3528   15.4763   18.4006 O   0  0  0  0  0  0  0  0  0  0  0  0
    9.6523   15.5719   19.5471 C   0  0  0  0  0  0  0  0  0  0  0  0
    9.0249   16.8240   19.7482 C   0  0  0  0  0  0  0  0  0  0  0  0
    8.3242   17.5433   18.8071 C   0  0  0  0  0  0  0  0  0  0  0  0
    7.7957   18.7802   19.0445 C   0  0  0  0  0  0  0  0  0  0  0  0
    8.1014   19.3264   20.2397 C   0  0  0  0  0  0  0  0  0  0  0  0
    8.8490   18.6345   21.1589 C   0  0  0  0  0  0  0  0  0  0  0  0
    9.2621   17.3684   20.9552 C   0  0  0  0  0  0  0  0  0  0  0  0
   10.0786   14.8202   20.5297 N   0  0  0  0  0  0  0  0  0  0  0  0
    8.2155   12.0036   25.0000 C   0  0  0  0  0  0  0  0  0  0  0  0
    7.3392   12.7244   25.8335 C   0  0  0  0  0  0  0  0  0  0  0  0
    6.3512   12.0121   26.5226 C   0  0  0  0  0  0  0  0  0  0  0  0
    5.4172   12.7311   27.3885 N   0  0  0  0  0  0  0  0  0  0  0  0
    4.3239   12.1933   27.6227 O   0  0  0  0  0  0  0  0  0  0  0  0
    5.7945   13.8087   27.8678 O   0  0  0  0  0  0  0  0  0  0  0  0
    6.2468   10.6236   26.4181 C   0  0  0  0  0  0  0  0  0  0  0  0
    7.1117    9.9149   25.5815 C   0  0  0  0  0  0  0  0  0  0  0  0
    8.0762   10.6256   24.8611 C   0  0  0  0  0  0  0  0  0  0  0  0
  1  2  1  0
  2  3  1  0
  3  4  2  0
  4  5  1  0
  5  6  2  0
  5  7  1  0
  7  8  1  0
  8  9  1  0
  9 10  1  0
 10 11  2  0
 11 12  1  0
 12 13  1  0
 13 14  1  0
 14 15  2  0
 15 16  1  0
 16 17  2  0
 17 18  1  0
 18 19  2  0
 13 20  2  0
  4 21  1  0
 21 22  2  0
 22 23  1  0
 23 24  1  0
 24 25  2  0
 24 26  1  0
 23 27  2  0
 27 28  1  0
 28 29  2  0
 29  2  1  0
 20 10  1  0
 29 21  1  0
 19 14  1  0
M  CHG  2  24   1  26  -1
M  END
>  <energy_score>  (3755) 
-6.256166

>  <inchikey>  (3755) 
MGNDDFCFMJSPLL-UHFFFAOYSA-N

>  <smiles>  (3755) 
Cn1nc(C(=O)NCCc2coc(-c3ccccc3)n2)c2cc([N+](=O)[O-])ccc21

>  <ref_pdb>  (3755) 
A0514a

>  <alias>  (3755) 
MGNDDFCFMJSPLL-UHFFFAOYSA-N-P183-P126-P183-601502

>  <HIPPO Pose ID>  (3755) 
503477

>  <name>  (3755) 
MGNDDFCFMJSPLL-UHFFFAOYSA-N-P183-P126-P183-601502

>  <HIPPO Compound ID>  (3755) 
289873

>  <ref_mols>  (3755) 
A2290a,A3436a

>  <distance_score>  (3755) 
0.880924

>  <inspiration_score>  (3755) 
None

$$$$
VHOUMAQIVBBOSM-UHFFFAOYSA-N-P126-P126-P183-601502
     RDKit          3D

 29 32  0  0  0  0  0  0  0  0999 V2000
    8.6396   17.3572   20.7067 C   0  0  0  0  0  0  0  0  0  0  0  0
    9.5727   16.2243   20.5875 C   0  0  0  0  0  0  0  0  0  0  0  0
   10.1832   15.5623   21.5489 N   0  0  0  0  0  0  0  0  0  0  0  0
   11.0472   14.7321   20.8895 C   0  0  0  0  0  0  0  0  0  0  0  0
   12.1032   13.9851   21.6100 C   0  0  0  0  0  0  0  0  0  0  0  0
   11.9826   13.9686   23.1296 C   0  0  0  0  0  0  0  0  0  0  0  0
   10.8498   13.3020   23.7255 N   0  0  0  0  0  0  0  0  0  0  0  0
   10.2022   11.9450   23.3976 C   0  0  0  0  0  0  0  0  0  0  0  0
   10.5259   11.1169   22.6476 O   0  0  0  0  0  0  0  0  0  0  0  0
    9.0153   11.7133   24.2607 C   0  0  0  0  0  0  0  0  0  0  0  0
    8.6893   10.4714   24.6573 N   0  0  0  0  0  0  0  0  0  0  0  0
    7.5311   10.6146   25.3377 N   0  0  0  0  0  0  0  0  0  0  0  0
    6.8802    9.3852   25.7627 C   0  0  0  0  0  0  0  0  0  0  0  0
    5.5859    9.3484   26.5900 C   0  0  0  0  0  0  0  0  0  0  0  0
    4.4994    8.6128   26.0552 C   0  0  0  0  0  0  0  0  0  0  0  0
    3.3289    8.3410   26.7732 C   0  0  0  0  0  0  0  0  0  0  0  0
    3.1951    8.8250   28.0601 C   0  0  0  0  0  0  0  0  0  0  0  0
    1.7449    8.5444   28.9357 Cl  0  0  0  0  0  0  0  0  0  0  0  0
    4.2370    9.5344   28.6386 C   0  0  0  0  0  0  0  0  0  0  0  0
    5.4286    9.7654   27.9259 C   0  0  0  0  0  0  0  0  0  0  0  0
    6.6463   10.5787   28.8253 Cl  0  0  0  0  0  0  0  0  0  0  0  0
    7.1633   11.9077   25.5155 C   0  0  0  0  0  0  0  0  0  0  0  0
    6.0812   12.5031   26.1641 C   0  0  0  0  0  0  0  0  0  0  0  0
    5.9607   13.8829   26.1188 C   0  0  0  0  0  0  0  0  0  0  0  0
    6.8485   14.6443   25.3794 C   0  0  0  0  0  0  0  0  0  0  0  0
    7.8925   14.0398   24.6821 C   0  0  0  0  0  0  0  0  0  0  0  0
    8.0869   12.6529   24.7862 C   0  0  0  0  0  0  0  0  0  0  0  0
   10.8352   14.8502   19.5355 C   0  0  0  0  0  0  0  0  0  0  0  0
    9.8759   15.7956   19.3324 O   0  0  0  0  0  0  0  0  0  0  0  0
  1  2  1  0
  2  3  2  0
  3  4  1  0
  4  5  1  0
  5  6  1  0
  6  7  1  0
  7  8  1  0
  8  9  2  0
  8 10  1  0
 10 11  2  0
 11 12  1  0
 12 13  1  0
 13 14  1  0
 14 15  2  0
 15 16  1  0
 16 17  2  0
 17 18  1  0
 17 19  1  0
 19 20  2  0
 20 21  1  0
 12 22  1  0
 22 23  2  0
 23 24  1  0
 24 25  2  0
 25 26  1  0
 26 27  2  0
  4 28  2  0
 28 29  1  0
 29  2  1  0
 27 10  1  0
 20 14  1  0
 27 22  1  0
M  END
>  <energy_score>  (3756) 
-11.668992

>  <inchikey>  (3756) 
VHOUMAQIVBBOSM-UHFFFAOYSA-N

>  <smiles>  (3756) 
Cc1nc(CCNC(=O)c2nn(Cc3ccc(Cl)cc3Cl)c3ccccc23)co1

>  <ref_pdb>  (3756) 
A0514a

>  <alias>  (3756) 
VHOUMAQIVBBOSM-UHFFFAOYSA-N-P126-P126-P183-601502

>  <HIPPO Pose ID>  (3756) 
503482

>  <name>  (3756) 
VHOUMAQIVBBOSM-UHFFFAOYSA-N-P126-P126-P183-601502

>  <HIPPO Compound ID>  (3756) 
289876

>  <ref_mols>  (3756) 
A2290a,A3436a

>  <distance_score>  (3756) 
1.972129

>  <inspiration_score>  (3756) 
None

$$$$
WMPMKDVSPIZPCW-UHFFFAOYSA-N-P126-P126-P183-601502
     RDKit          3D

 29 32  0  0  0  0  0  0  0  0999 V2000
   10.2056   14.1031   25.3941 O   0  0  0  0  0  0  0  0  0  0  0  0
   10.3655   13.3212   24.5487 C   0  0  0  0  0  0  0  0  0  0  0  0
   11.3844   13.2831   23.4180 N   0  0  0  0  0  0  0  0  0  0  0  0
   12.3570   14.2298   23.0253 C   0  0  0  0  0  0  0  0  0  0  0  0
   12.6881   14.1464   21.5687 C   0  0  0  0  0  0  0  0  0  0  0  0
   11.6365   14.5927   20.6731 C   0  0  0  0  0  0  0  0  0  0  0  0
   11.6235   14.4343   19.3158 C   0  0  0  0  0  0  0  0  0  0  0  0
   10.5803   15.1172   18.8444 O   0  0  0  0  0  0  0  0  0  0  0  0
   10.0796   15.7446   19.9290 C   0  0  0  0  0  0  0  0  0  0  0  0
    9.2930   16.8841   19.6053 C   0  0  0  0  0  0  0  0  0  0  0  0
    9.0450   17.2115   18.2812 C   0  0  0  0  0  0  0  0  0  0  0  0
    8.1680   18.2153   17.9959 C   0  0  0  0  0  0  0  0  0  0  0  0
    7.6455   18.9733   19.0184 C   0  0  0  0  0  0  0  0  0  0  0  0
    8.0589   18.7849   20.3056 C   0  0  0  0  0  0  0  0  0  0  0  0
    8.8081   17.6876   20.6122 C   0  0  0  0  0  0  0  0  0  0  0  0
   10.5951   15.3751   21.0789 N   0  0  0  0  0  0  0  0  0  0  0  0
    9.6256   12.0662   24.4453 C   0  0  0  0  0  0  0  0  0  0  0  0
   10.0776   11.1064   23.6186 N   0  0  0  0  0  0  0  0  0  0  0  0
    9.2823   10.0405   23.8539 N   0  0  0  0  0  0  0  0  0  0  0  0
    9.4869    8.8146   23.0644 C   0  0  0  0  0  0  0  0  0  0  0  0
    9.9527    9.0936   21.8231 F   0  0  0  0  0  0  0  0  0  0  0  0
    8.3370    8.1324   22.9245 F   0  0  0  0  0  0  0  0  0  0  0  0
   10.3886    7.9690   23.6091 F   0  0  0  0  0  0  0  0  0  0  0  0
    8.3236   10.3182   24.8130 C   0  0  0  0  0  0  0  0  0  0  0  0
    7.3286    9.5523   25.4159 C   0  0  0  0  0  0  0  0  0  0  0  0
    6.4820   10.1598   26.3491 C   0  0  0  0  0  0  0  0  0  0  0  0
    6.6231   11.5024   26.6781 C   0  0  0  0  0  0  0  0  0  0  0  0
    7.6333   12.2635   26.0949 C   0  0  0  0  0  0  0  0  0  0  0  0
    8.4924   11.6557   25.1623 C   0  0  0  0  0  0  0  0  0  0  0  0
  1  2  2  0
  2  3  1  0
  3  4  1  0
  4  5  1  0
  5  6  1  0
  6  7  2  0
  7  8  1  0
  8  9  1  0
  9 10  1  0
 10 11  2  0
 11 12  1  0
 12 13  2  0
 13 14  1  0
 14 15  2  0
  9 16  2  0
  2 17  1  0
 17 18  2  0
 18 19  1  0
 19 20  1  0
 20 21  1  0
 20 22  1  0
 20 23  1  0
 19 24  1  0
 24 25  2  0
 25 26  1  0
 26 27  2  0
 27 28  1  0
 28 29  2  0
 16  6  1  0
 29 17  1  0
 15 10  1  0
 29 24  1  0
M  END
>  <energy_score>  (3757) 
-16.493409

>  <inchikey>  (3757) 
WMPMKDVSPIZPCW-UHFFFAOYSA-N

>  <smiles>  (3757) 
O=C(NCCc1coc(-c2ccccc2)n1)c1nn(C(F)(F)F)c2ccccc12

>  <ref_pdb>  (3757) 
A0514a

>  <alias>  (3757) 
WMPMKDVSPIZPCW-UHFFFAOYSA-N-P126-P126-P183-601502

>  <HIPPO Pose ID>  (3757) 
503488

>  <name>  (3757) 
WMPMKDVSPIZPCW-UHFFFAOYSA-N-P126-P126-P183-601502

>  <HIPPO Compound ID>  (3757) 
289879

>  <ref_mols>  (3757) 
A2290a,A3436a

>  <distance_score>  (3757) 
0.905136

>  <inspiration_score>  (3757) 
None

$$$$
RYDWFUWLWADDSJ-UHFFFAOYSA-N-P126-P126-P183-601502
     RDKit          3D

 30 33  0  0  0  0  0  0  0  0999 V2000
    9.2006    8.8307   23.2877 C   0  0  0  0  0  0  0  0  0  0  0  0
    9.0038   10.0657   24.0082 N   0  0  0  0  0  0  0  0  0  0  0  0
    9.8296   11.0828   23.7349 N   0  0  0  0  0  0  0  0  0  0  0  0
    9.4147   12.0754   24.5448 C   0  0  0  0  0  0  0  0  0  0  0  0
   10.1695   13.3225   24.6213 C   0  0  0  0  0  0  0  0  0  0  0  0
   10.0138   14.1139   25.4578 O   0  0  0  0  0  0  0  0  0  0  0  0
   11.1666   13.2823   23.4747 N   0  0  0  0  0  0  0  0  0  0  0  0
   12.2413   14.1462   23.1596 C   0  0  0  0  0  0  0  0  0  0  0  0
   12.6533   14.0747   21.7212 C   0  0  0  0  0  0  0  0  0  0  0  0
   11.6623   14.5580   20.7726 C   0  0  0  0  0  0  0  0  0  0  0  0
   11.7044   14.4071   19.4147 C   0  0  0  0  0  0  0  0  0  0  0  0
   10.6799   15.0898   18.8989 O   0  0  0  0  0  0  0  0  0  0  0  0
   10.1294   15.7083   19.9677 C   0  0  0  0  0  0  0  0  0  0  0  0
    9.3361   16.8395   19.6258 C   0  0  0  0  0  0  0  0  0  0  0  0
    9.1096   17.1618   18.2970 C   0  0  0  0  0  0  0  0  0  0  0  0
    8.2307   18.1561   17.9937 C   0  0  0  0  0  0  0  0  0  0  0  0
    7.7045   18.9115   19.0105 C   0  0  0  0  0  0  0  0  0  0  0  0
    6.7867   19.8185   18.7223 F   0  0  0  0  0  0  0  0  0  0  0  0
    8.0844   18.7453   20.3047 C   0  0  0  0  0  0  0  0  0  0  0  0
    8.8304   17.6486   20.6228 C   0  0  0  0  0  0  0  0  0  0  0  0
   10.6103   15.3472   21.1347 N   0  0  0  0  0  0  0  0  0  0  0  0
    8.2733   11.7163   25.2810 C   0  0  0  0  0  0  0  0  0  0  0  0
    7.4375   12.3746   26.2004 C   0  0  0  0  0  0  0  0  0  0  0  0
    6.3932   11.6424   26.7719 C   0  0  0  0  0  0  0  0  0  0  0  0
    5.4960   12.2964   27.7232 N   0  0  0  0  0  0  0  0  0  0  0  0
    5.9446   13.2565   28.3653 O   0  0  0  0  0  0  0  0  0  0  0  0
    4.3550   11.8281   27.8534 O   0  0  0  0  0  0  0  0  0  0  0  0
    6.2023   10.2924   26.4738 C   0  0  0  0  0  0  0  0  0  0  0  0
    7.0419    9.6467   25.5633 C   0  0  0  0  0  0  0  0  0  0  0  0
    8.0599   10.3801   24.9584 C   0  0  0  0  0  0  0  0  0  0  0  0
  1  2  1  0
  2  3  1  0
  3  4  2  0
  4  5  1  0
  5  6  2  0
  5  7  1  0
  7  8  1  0
  8  9  1  0
  9 10  1  0
 10 11  2  0
 11 12  1  0
 12 13  1  0
 13 14  1  0
 14 15  2  0
 15 16  1  0
 16 17  2  0
 17 18  1  0
 17 19  1  0
 19 20  2  0
 13 21  2  0
  4 22  1  0
 22 23  2  0
 23 24  1  0
 24 25  1  0
 25 26  2  0
 25 27  1  0
 24 28  2  0
 28 29  1  0
 29 30  2  0
 30  2  1  0
 21 10  1  0
 30 22  1  0
 20 14  1  0
M  CHG  2  25   1  27  -1
M  END
>  <energy_score>  (3758) 
-19.805362

>  <inchikey>  (3758) 
RYDWFUWLWADDSJ-UHFFFAOYSA-N

>  <smiles>  (3758) 
Cn1nc(C(=O)NCCc2coc(-c3ccc(F)cc3)n2)c2cc([N+](=O)[O-])ccc21

>  <ref_pdb>  (3758) 
A0514a

>  <alias>  (3758) 
RYDWFUWLWADDSJ-UHFFFAOYSA-N-P126-P126-P183-601502

>  <HIPPO Pose ID>  (3758) 
503496

>  <name>  (3758) 
RYDWFUWLWADDSJ-UHFFFAOYSA-N-P126-P126-P183-601502

>  <HIPPO Compound ID>  (3758) 
289883

>  <ref_mols>  (3758) 
A2290a,A3436a

>  <distance_score>  (3758) 
0.989644

>  <inspiration_score>  (3758) 
None

$$$$
RYDWFUWLWADDSJ-UHFFFAOYSA-N-P183-P126-P183-601502
     RDKit          3D

 30 33  0  0  0  0  0  0  0  0999 V2000
    9.1084    8.9789   23.6982 C   0  0  0  0  0  0  0  0  0  0  0  0
    8.6671   10.2562   24.2140 N   0  0  0  0  0  0  0  0  0  0  0  0
    9.3571   11.3464   23.8559 N   0  0  0  0  0  0  0  0  0  0  0  0
    8.8061   12.3334   24.5916 C   0  0  0  0  0  0  0  0  0  0  0  0
    9.4832   13.6068   24.7603 C   0  0  0  0  0  0  0  0  0  0  0  0
    9.0030   14.5474   25.2393 O   0  0  0  0  0  0  0  0  0  0  0  0
   10.8996   13.3617   24.2804 N   0  0  0  0  0  0  0  0  0  0  0  0
   12.0016   14.2338   24.1960 C   0  0  0  0  0  0  0  0  0  0  0  0
   12.5653   14.2157   22.8008 C   0  0  0  0  0  0  0  0  0  0  0  0
   11.6965   14.7099   21.7534 C   0  0  0  0  0  0  0  0  0  0  0  0
   11.7851   14.4730   20.4110 C   0  0  0  0  0  0  0  0  0  0  0  0
   10.8314   15.2040   19.8235 O   0  0  0  0  0  0  0  0  0  0  0  0
   10.2562   15.9027   20.8590 C   0  0  0  0  0  0  0  0  0  0  0  0
    9.3809   16.9315   20.4201 C   0  0  0  0  0  0  0  0  0  0  0  0
    8.9612   16.7968   19.1495 C   0  0  0  0  0  0  0  0  0  0  0  0
    8.1343   17.7524   18.6189 C   0  0  0  0  0  0  0  0  0  0  0  0
    7.8134   18.9174   19.2084 C   0  0  0  0  0  0  0  0  0  0  0  0
    7.1144   19.8290   18.5485 F   0  0  0  0  0  0  0  0  0  0  0  0
    8.3192   19.1152   20.4328 C   0  0  0  0  0  0  0  0  0  0  0  0
    9.0436   18.1089   21.0540 C   0  0  0  0  0  0  0  0  0  0  0  0
   10.6996   15.5819   22.0393 N   0  0  0  0  0  0  0  0  0  0  0  0
    7.6980   11.9061   25.3279 C   0  0  0  0  0  0  0  0  0  0  0  0
    6.8135   12.5276   26.2262 C   0  0  0  0  0  0  0  0  0  0  0  0
    5.8911   11.7210   26.8907 C   0  0  0  0  0  0  0  0  0  0  0  0
    4.9579   12.3280   27.8367 N   0  0  0  0  0  0  0  0  0  0  0  0
    5.3303   13.3493   28.4305 O   0  0  0  0  0  0  0  0  0  0  0  0
    3.8694   11.7608   28.0138 O   0  0  0  0  0  0  0  0  0  0  0  0
    5.8532   10.3433   26.6845 C   0  0  0  0  0  0  0  0  0  0  0  0
    6.7339    9.7420   25.7829 C   0  0  0  0  0  0  0  0  0  0  0  0
    7.6691   10.5339   25.1236 C   0  0  0  0  0  0  0  0  0  0  0  0
  1  2  1  0
  2  3  1  0
  3  4  2  0
  4  5  1  0
  5  6  2  0
  5  7  1  0
  7  8  1  0
  8  9  1  0
  9 10  1  0
 10 11  2  0
 11 12  1  0
 12 13  1  0
 13 14  1  0
 14 15  2  0
 15 16  1  0
 16 17  2  0
 17 18  1  0
 17 19  1  0
 19 20  2  0
 13 21  2  0
  4 22  1  0
 22 23  2  0
 23 24  1  0
 24 25  1  0
 25 26  2  0
 25 27  1  0
 24 28  2  0
 28 29  1  0
 29 30  2  0
 30  2  1  0
 21 10  1  0
 30 22  1  0
 20 14  1  0
M  CHG  2  25   1  27  -1
M  END
>  <energy_score>  (3759) 
-6.270354

>  <inchikey>  (3759) 
RYDWFUWLWADDSJ-UHFFFAOYSA-N

>  <smiles>  (3759) 
Cn1nc(C(=O)NCCc2coc(-c3ccc(F)cc3)n2)c2cc([N+](=O)[O-])ccc21

>  <ref_pdb>  (3759) 
A0514a

>  <alias>  (3759) 
RYDWFUWLWADDSJ-UHFFFAOYSA-N-P183-P126-P183-601502

>  <HIPPO Pose ID>  (3759) 
503497

>  <name>  (3759) 
RYDWFUWLWADDSJ-UHFFFAOYSA-N-P183-P126-P183-601502

>  <HIPPO Compound ID>  (3759) 
289883

>  <ref_mols>  (3759) 
A2290a,A3436a

>  <distance_score>  (3759) 
1.436358

>  <inspiration_score>  (3759) 
None

$$$$
GMVALWIXUGOHHG-UHFFFAOYSA-N-P126-P126-P183-601502
     RDKit          3D

 30 33  0  0  0  0  0  0  0  0999 V2000
    7.2236   19.3045   19.6675 C   0  0  0  0  0  0  0  0  0  0  0  0
    8.3156   18.3515   19.6937 C   0  0  0  0  0  0  0  0  0  0  0  0
    8.8399   17.8990   18.5069 C   0  0  0  0  0  0  0  0  0  0  0  0
    9.6692   16.8195   18.5298 C   0  0  0  0  0  0  0  0  0  0  0  0
    9.6968   16.0502   19.6748 C   0  0  0  0  0  0  0  0  0  0  0  0
   10.5351   14.9341   19.8903 C   0  0  0  0  0  0  0  0  0  0  0  0
   10.7457   14.4417   21.0891 N   0  0  0  0  0  0  0  0  0  0  0  0
   12.0458   14.1286   21.0276 C   0  0  0  0  0  0  0  0  0  0  0  0
   12.8032   13.8497   22.2314 C   0  0  0  0  0  0  0  0  0  0  0  0
   12.0960   14.1498   23.5174 C   0  0  0  0  0  0  0  0  0  0  0  0
   10.9955   13.3100   23.7556 N   0  0  0  0  0  0  0  0  0  0  0  0
    9.9217   13.3717   24.8219 C   0  0  0  0  0  0  0  0  0  0  0  0
    9.7173   14.1692   25.6400 O   0  0  0  0  0  0  0  0  0  0  0  0
    9.1917   12.1172   24.6981 C   0  0  0  0  0  0  0  0  0  0  0  0
    9.6424   11.1541   23.8709 N   0  0  0  0  0  0  0  0  0  0  0  0
    8.8483   10.1091   24.1135 N   0  0  0  0  0  0  0  0  0  0  0  0
    9.1059    8.8963   23.3750 C   0  0  0  0  0  0  0  0  0  0  0  0
    7.8885   10.3787   25.0609 C   0  0  0  0  0  0  0  0  0  0  0  0
    6.8827    9.6125   25.6391 C   0  0  0  0  0  0  0  0  0  0  0  0
    6.0295   10.2132   26.5673 C   0  0  0  0  0  0  0  0  0  0  0  0
    6.1918   11.5564   26.9070 C   0  0  0  0  0  0  0  0  0  0  0  0
    5.2824   12.1612   27.8786 N   0  0  0  0  0  0  0  0  0  0  0  0
    5.7166   13.1000   28.5605 O   0  0  0  0  0  0  0  0  0  0  0  0
    4.1465   11.6746   27.9823 O   0  0  0  0  0  0  0  0  0  0  0  0
    7.2168   12.3269   26.3564 C   0  0  0  0  0  0  0  0  0  0  0  0
    8.0631   11.7115   25.4192 C   0  0  0  0  0  0  0  0  0  0  0  0
   12.4611   14.1531   19.7282 C   0  0  0  0  0  0  0  0  0  0  0  0
   11.4810   14.6731   18.9634 O   0  0  0  0  0  0  0  0  0  0  0  0
    9.0545   16.4565   20.8297 C   0  0  0  0  0  0  0  0  0  0  0  0
    8.5084   17.6907   20.8848 C   0  0  0  0  0  0  0  0  0  0  0  0
  1  2  1  0
  2  3  2  0
  3  4  1  0
  4  5  2  0
  5  6  1  0
  6  7  2  0
  7  8  1  0
  8  9  1  0
  9 10  1  0
 10 11  1  0
 11 12  1  0
 12 13  2  0
 12 14  1  0
 14 15  2  0
 15 16  1  0
 16 17  1  0
 16 18  1  0
 18 19  2  0
 19 20  1  0
 20 21  2  0
 21 22  1  0
 22 23  2  0
 22 24  1  0
 21 25  1  0
 25 26  2  0
  8 27  2  0
 27 28  1  0
  5 29  1  0
 29 30  2  0
 30  2  1  0
 28  6  1  0
 26 14  1  0
 26 18  1  0
M  CHG  2  22   1  24  -1
M  END
>  <energy_score>  (3760) 
-5.730691

>  <inchikey>  (3760) 
GMVALWIXUGOHHG-UHFFFAOYSA-N

>  <smiles>  (3760) 
Cc1ccc(-c2nc(CCNC(=O)c3nn(C)c4ccc([N+](=O)[O-])cc34)co2)cc1

>  <ref_pdb>  (3760) 
A0514a

>  <alias>  (3760) 
GMVALWIXUGOHHG-UHFFFAOYSA-N-P126-P126-P183-601502

>  <HIPPO Pose ID>  (3760) 
503502

>  <name>  (3760) 
GMVALWIXUGOHHG-UHFFFAOYSA-N-P126-P126-P183-601502

>  <HIPPO Compound ID>  (3760) 
289886

>  <ref_mols>  (3760) 
A2290a,A3436a

>  <distance_score>  (3760) 
1.445808

>  <inspiration_score>  (3760) 
None

$$$$
IKFAMCKKRXRBRT-UHFFFAOYSA-N-P126-P126-P183-601502
     RDKit          3D

 30 33  0  0  0  0  0  0  0  0999 V2000
   10.1519   14.1245   25.4258 O   0  0  0  0  0  0  0  0  0  0  0  0
   10.3189   13.3362   24.5882 C   0  0  0  0  0  0  0  0  0  0  0  0
   11.2904   13.3305   23.4173 N   0  0  0  0  0  0  0  0  0  0  0  0
   12.3204   14.2327   23.0748 C   0  0  0  0  0  0  0  0  0  0  0  0
   12.7005   14.1423   21.6300 C   0  0  0  0  0  0  0  0  0  0  0  0
   11.6722   14.5846   20.7058 C   0  0  0  0  0  0  0  0  0  0  0  0
   11.6799   14.4195   19.3496 C   0  0  0  0  0  0  0  0  0  0  0  0
   10.6361   15.0897   18.8591 O   0  0  0  0  0  0  0  0  0  0  0  0
   10.1116   15.7120   19.9363 C   0  0  0  0  0  0  0  0  0  0  0  0
    9.3231   16.8480   19.6077 C   0  0  0  0  0  0  0  0  0  0  0  0
    8.8297   17.6517   20.6149 C   0  0  0  0  0  0  0  0  0  0  0  0
    8.0842   18.7508   20.3079 C   0  0  0  0  0  0  0  0  0  0  0  0
    7.6964   18.9242   19.0167 C   0  0  0  0  0  0  0  0  0  0  0  0
    6.7813   19.8365   18.7385 F   0  0  0  0  0  0  0  0  0  0  0  0
    8.2130   18.1741   17.9912 C   0  0  0  0  0  0  0  0  0  0  0  0
    9.0887   17.1752   18.2816 C   0  0  0  0  0  0  0  0  0  0  0  0
   10.6168   15.3557   21.0931 N   0  0  0  0  0  0  0  0  0  0  0  0
    9.5964   12.0727   24.4899 C   0  0  0  0  0  0  0  0  0  0  0  0
   10.0511   11.1250   23.6511 N   0  0  0  0  0  0  0  0  0  0  0  0
    9.2609   10.0528   23.8753 N   0  0  0  0  0  0  0  0  0  0  0  0
    9.4832    8.8346   23.0784 C   0  0  0  0  0  0  0  0  0  0  0  0
   10.4136    8.0133   23.6113 F   0  0  0  0  0  0  0  0  0  0  0  0
    8.3508    8.1262   22.9400 F   0  0  0  0  0  0  0  0  0  0  0  0
    9.9363    9.1326   21.8360 F   0  0  0  0  0  0  0  0  0  0  0  0
    8.3022   10.3174   24.8376 C   0  0  0  0  0  0  0  0  0  0  0  0
    7.3042    9.5458   25.4263 C   0  0  0  0  0  0  0  0  0  0  0  0
    6.4522   10.1431   26.3614 C   0  0  0  0  0  0  0  0  0  0  0  0
    6.5929   11.4807   26.7092 C   0  0  0  0  0  0  0  0  0  0  0  0
    7.6065   12.2478   26.1411 C   0  0  0  0  0  0  0  0  0  0  0  0
    8.4684   11.6503   25.2048 C   0  0  0  0  0  0  0  0  0  0  0  0
  1  2  2  0
  2  3  1  0
  3  4  1  0
  4  5  1  0
  5  6  1  0
  6  7  2  0
  7  8  1  0
  8  9  1  0
  9 10  1  0
 10 11  2  0
 11 12  1  0
 12 13  2  0
 13 14  1  0
 13 15  1  0
 15 16  2  0
  9 17  2  0
  2 18  1  0
 18 19  2  0
 19 20  1  0
 20 21  1  0
 21 22  1  0
 21 23  1  0
 21 24  1  0
 20 25  1  0
 25 26  2  0
 26 27  1  0
 27 28  2  0
 28 29  1  0
 29 30  2  0
 17  6  1  0
 30 18  1  0
 16 10  1  0
 30 25  1  0
M  END
>  <energy_score>  (3761) 
-13.841781

>  <inchikey>  (3761) 
IKFAMCKKRXRBRT-UHFFFAOYSA-N

>  <smiles>  (3761) 
O=C(NCCc1coc(-c2ccc(F)cc2)n1)c1nn(C(F)(F)F)c2ccccc12

>  <ref_pdb>  (3761) 
A0514a

>  <alias>  (3761) 
IKFAMCKKRXRBRT-UHFFFAOYSA-N-P126-P126-P183-601502

>  <HIPPO Pose ID>  (3761) 
503512

>  <name>  (3761) 
IKFAMCKKRXRBRT-UHFFFAOYSA-N-P126-P126-P183-601502

>  <HIPPO Compound ID>  (3761) 
289891

>  <ref_mols>  (3761) 
A2290a,A3436a

>  <distance_score>  (3761) 
0.939908

>  <inspiration_score>  (3761) 
None

$$$$
GBQBFWSOOYJIDV-UHFFFAOYSA-N-P126-P126-P183-601502
     RDKit          3D

 30 33  0  0  0  0  0  0  0  0999 V2000
    3.3986   12.5090   28.9712 C   0  0  0  0  0  0  0  0  0  0  0  0
    4.2676   11.8615   28.0408 O   0  0  0  0  0  0  0  0  0  0  0  0
    5.4924   12.4404   27.9477 C   0  0  0  0  0  0  0  0  0  0  0  0
    5.8825   13.4064   28.5826 O   0  0  0  0  0  0  0  0  0  0  0  0
    6.3194   11.7323   26.9406 C   0  0  0  0  0  0  0  0  0  0  0  0
    6.1023   10.3887   26.6288 C   0  0  0  0  0  0  0  0  0  0  0  0
    6.9032    9.7276   25.6938 C   0  0  0  0  0  0  0  0  0  0  0  0
    7.9268   10.4420   25.0747 C   0  0  0  0  0  0  0  0  0  0  0  0
    8.1668   11.7758   25.3795 C   0  0  0  0  0  0  0  0  0  0  0  0
    7.3649   12.4359   26.3284 C   0  0  0  0  0  0  0  0  0  0  0  0
    9.2939   12.1182   24.6060 C   0  0  0  0  0  0  0  0  0  0  0  0
   10.0718   13.3558   24.6592 C   0  0  0  0  0  0  0  0  0  0  0  0
    9.9355   14.1539   25.4936 O   0  0  0  0  0  0  0  0  0  0  0  0
   11.0695   13.2877   23.5105 N   0  0  0  0  0  0  0  0  0  0  0  0
   12.1674   14.1262   23.1922 C   0  0  0  0  0  0  0  0  0  0  0  0
   12.5952   14.0449   21.7560 C   0  0  0  0  0  0  0  0  0  0  0  0
   11.6270   14.5524   20.7923 C   0  0  0  0  0  0  0  0  0  0  0  0
   11.6890   14.4135   19.4332 C   0  0  0  0  0  0  0  0  0  0  0  0
   10.6822   15.1146   18.9044 O   0  0  0  0  0  0  0  0  0  0  0  0
   10.1168   15.7294   19.9684 C   0  0  0  0  0  0  0  0  0  0  0  0
    9.3199   16.8593   19.6224 C   0  0  0  0  0  0  0  0  0  0  0  0
    9.0811   17.1815   18.2963 C   0  0  0  0  0  0  0  0  0  0  0  0
    8.2004   18.1813   17.9956 C   0  0  0  0  0  0  0  0  0  0  0  0
    7.6656   18.9465   19.0070 C   0  0  0  0  0  0  0  0  0  0  0  0
    8.0665   18.7646   20.2986 C   0  0  0  0  0  0  0  0  0  0  0  0
    8.8164   17.6691   20.6168 C   0  0  0  0  0  0  0  0  0  0  0  0
   10.5788   15.3545   21.1407 N   0  0  0  0  0  0  0  0  0  0  0  0
    9.6786   11.1088   23.7993 N   0  0  0  0  0  0  0  0  0  0  0  0
    8.8747   10.0959   24.1418 N   0  0  0  0  0  0  0  0  0  0  0  0
    9.1514    8.7860   23.6067 C   0  0  0  0  0  0  0  0  0  0  0  0
  1  2  1  0
  2  3  1  0
  3  4  2  0
  3  5  1  0
  5  6  2  0
  6  7  1  0
  7  8  2  0
  8  9  1  0
  9 10  2  0
  9 11  1  0
 11 12  1  0
 12 13  2  0
 12 14  1  0
 14 15  1  0
 15 16  1  0
 16 17  1  0
 17 18  2  0
 18 19  1  0
 19 20  1  0
 20 21  1  0
 21 22  2  0
 22 23  1  0
 23 24  2  0
 24 25  1  0
 25 26  2  0
 20 27  2  0
 11 28  2  0
 28 29  1  0
 29 30  1  0
 10  5  1  0
 27 17  1  0
 29  8  1  0
 26 21  1  0
M  END
>  <energy_score>  (3762) 
-23.986826

>  <inchikey>  (3762) 
GBQBFWSOOYJIDV-UHFFFAOYSA-N

>  <smiles>  (3762) 
COC(=O)c1ccc2c(c1)c(C(=O)NCCc1coc(-c3ccccc3)n1)nn2C

>  <ref_pdb>  (3762) 
A0514a

>  <alias>  (3762) 
GBQBFWSOOYJIDV-UHFFFAOYSA-N-P126-P126-P183-601502

>  <HIPPO Pose ID>  (3762) 
503514

>  <name>  (3762) 
GBQBFWSOOYJIDV-UHFFFAOYSA-N-P126-P126-P183-601502

>  <HIPPO Compound ID>  (3762) 
289892

>  <ref_mols>  (3762) 
A2290a,A3436a

>  <distance_score>  (3762) 
1.041365

>  <inspiration_score>  (3762) 
None

$$$$
HTTSBEHOPRZHSA-UHFFFAOYSA-N-P126-P126-P183-601502
     RDKit          3D

 30 33  0  0  0  0  0  0  0  0999 V2000
   14.4196   12.0450   24.9628 C   0  0  0  0  0  0  0  0  0  0  0  0
   13.5845   12.6207   23.9399 O   0  0  0  0  0  0  0  0  0  0  0  0
   12.6022   13.4629   24.3199 C   0  0  0  0  0  0  0  0  0  0  0  0
   12.3585   13.7479   25.4966 O   0  0  0  0  0  0  0  0  0  0  0  0
   11.6978   13.9921   23.2037 C   0  0  1  0  0  0  0  0  0  0  0  0
   12.0848   13.9397   21.7408 C   0  0  0  0  0  0  0  0  0  0  0  0
   11.0978   14.6944   20.9033 C   0  0  0  0  0  0  0  0  0  0  0  0
   10.9520   14.7809   19.5385 C   0  0  0  0  0  0  0  0  0  0  0  0
    9.9576   15.6774   19.2691 O   0  0  0  0  0  0  0  0  0  0  0  0
    9.5577   16.1049   20.4900 C   0  0  0  0  0  0  0  0  0  0  0  0
   10.1692   15.5245   21.4957 N   0  0  0  0  0  0  0  0  0  0  0  0
   10.4947   13.3078   23.5861 N   0  0  0  0  0  0  0  0  0  0  0  0
   10.2232   11.8211   23.7939 C   0  0  0  0  0  0  0  0  0  0  0  0
   10.9050   10.9006   23.6158 O   0  0  0  0  0  0  0  0  0  0  0  0
    8.8996   11.6221   24.4067 C   0  0  0  0  0  0  0  0  0  0  0  0
    8.3213   10.4126   24.4012 N   0  0  0  0  0  0  0  0  0  0  0  0
    7.2736   10.5419   25.2294 N   0  0  0  0  0  0  0  0  0  0  0  0
    6.6339    9.3277   25.7044 C   0  0  0  0  0  0  0  0  0  0  0  0
    5.6914    9.4187   26.9090 C   0  0  0  0  0  0  0  0  0  0  0  0
    4.4077    8.8434   26.8256 C   0  0  0  0  0  0  0  0  0  0  0  0
    3.5388    8.8338   27.9202 C   0  0  0  0  0  0  0  0  0  0  0  0
    3.9346    9.4011   29.1262 C   0  0  0  0  0  0  0  0  0  0  0  0
    5.2018    9.9637   29.2396 C   0  0  0  0  0  0  0  0  0  0  0  0
    6.0733    9.9587   28.1462 C   0  0  0  0  0  0  0  0  0  0  0  0
    7.0435   11.8211   25.6258 C   0  0  0  0  0  0  0  0  0  0  0  0
    5.9849   12.4126   26.3140 C   0  0  0  0  0  0  0  0  0  0  0  0
    6.1663   13.6964   26.7994 C   0  0  0  0  0  0  0  0  0  0  0  0
    7.3585   14.3691   26.5869 C   0  0  0  0  0  0  0  0  0  0  0  0
    8.3759   13.7957   25.8224 C   0  0  0  0  0  0  0  0  0  0  0  0
    8.1870   12.5143   25.2678 C   0  0  0  0  0  0  0  0  0  0  0  0
  1  2  1  0
  2  3  1  0
  3  4  2  0
  3  5  1  0
  5  6  1  6
  6  7  1  0
  7  8  2  0
  8  9  1  0
  9 10  1  0
 10 11  2  0
  5 12  1  0
 12 13  1  0
 13 14  2  0
 13 15  1  0
 15 16  2  0
 16 17  1  0
 17 18  1  0
 18 19  1  0
 19 20  2  0
 20 21  1  0
 21 22  2  0
 22 23  1  0
 23 24  2  0
 17 25  1  0
 25 26  2  0
 26 27  1  0
 27 28  2  0
 28 29  1  0
 29 30  2  0
 11  7  1  0
 30 15  1  0
 24 19  1  0
 30 25  1  0
M  END
>  <energy_score>  (3763) 
-14.28737

>  <inchikey>  (3763) 
HTTSBEHOPRZHSA-UHFFFAOYSA-N

>  <smiles>  (3763) 
COC(=O)C(Cc1cocn1)NC(=O)c1nn(Cc2ccccc2)c2ccccc12

>  <ref_pdb>  (3763) 
A0514a

>  <alias>  (3763) 
HTTSBEHOPRZHSA-UHFFFAOYSA-N-P126-P126-P183-601502

>  <HIPPO Pose ID>  (3763) 
503520

>  <name>  (3763) 
HTTSBEHOPRZHSA-UHFFFAOYSA-N-P126-P126-P183-601502

>  <HIPPO Compound ID>  (3763) 
289895

>  <ref_mols>  (3763) 
A2290a,A3436a

>  <distance_score>  (3763) 
1.945645

>  <inspiration_score>  (3763) 
None

$$$$
NZNSFRSFUMMPLN-UHFFFAOYSA-N-P141-P141-P180-601502
     RDKit          3D

 22 24  0  0  0  0  0  0  0  0999 V2000
   12.7011   14.5811   23.4933 C   0  0  0  0  0  0  0  0  0  0  0  0
   11.4770   14.8348   22.6416 C   0  0  1  0  0  0  0  0  0  0  0  0
   11.7947   14.8580   21.1473 C   0  0  0  0  0  0  0  0  0  0  0  0
   10.7604   15.4779   20.3446 N   0  0  0  0  0  0  0  0  0  0  0  0
   10.8225   15.7673   19.0169 C   0  0  0  0  0  0  0  0  0  0  0  0
    9.9815   16.7437   18.7512 N   0  0  0  0  0  0  0  0  0  0  0  0
    9.3842   16.9770   19.9479 C   0  0  0  0  0  0  0  0  0  0  0  0
    9.7582   16.1548   20.9246 N   0  0  0  0  0  0  0  0  0  0  0  0
   10.5077   13.8431   23.0013 N   0  0  0  0  0  0  0  0  0  0  0  0
    9.4765   13.8250   24.1293 C   0  0  0  0  0  0  0  0  0  0  0  0
    9.1919   14.6444   24.9049 O   0  0  0  0  0  0  0  0  0  0  0  0
    8.8923   12.4773   24.1571 C   0  0  0  0  0  0  0  0  0  0  0  0
    9.4194   11.4864   23.4093 N   0  0  0  0  0  0  0  0  0  0  0  0
    8.7394   10.3909   23.7797 N   0  0  0  0  0  0  0  0  0  0  0  0
    9.1232    9.1184   23.2113 C   0  0  0  0  0  0  0  0  0  0  0  0
    7.7640   10.6471   24.7112 C   0  0  0  0  0  0  0  0  0  0  0  0
    6.8432    9.8253   25.3606 C   0  0  0  0  0  0  0  0  0  0  0  0
    5.9863   10.4091   26.2961 C   0  0  0  0  0  0  0  0  0  0  0  0
    6.0279   11.7741   26.5380 C   0  0  0  0  0  0  0  0  0  0  0  0
    5.1915   12.3005   27.4429 F   0  0  0  0  0  0  0  0  0  0  0  0
    6.9373   12.5984   25.8840 C   0  0  0  0  0  0  0  0  0  0  0  0
    7.8261   12.0152   24.9615 C   0  0  0  0  0  0  0  0  0  0  0  0
  2  1  1  1
  2  3  1  0
  3  4  1  0
  4  5  1  0
  5  6  2  0
  6  7  1  0
  7  8  2  0
  2  9  1  0
  9 10  1  0
 10 11  2  0
 10 12  1  0
 12 13  2  0
 13 14  1  0
 14 15  1  0
 14 16  1  0
 16 17  2  0
 17 18  1  0
 18 19  2  0
 19 20  1  0
 19 21  1  0
 21 22  2  0
  8  4  1  0
 22 12  1  0
 22 16  1  0
M  END
>  <energy_score>  (3764) 
-24.675888

>  <inchikey>  (3764) 
NZNSFRSFUMMPLN-UHFFFAOYSA-N

>  <smiles>  (3764) 
CC(Cn1cncn1)NC(=O)c1nn(C)c2ccc(F)cc12

>  <ref_pdb>  (3764) 
A0514a

>  <alias>  (3764) 
NZNSFRSFUMMPLN-UHFFFAOYSA-N-P141-P141-P180-601502

>  <HIPPO Pose ID>  (3764) 
503524

>  <name>  (3764) 
NZNSFRSFUMMPLN-UHFFFAOYSA-N-P141-P141-P180-601502

>  <HIPPO Compound ID>  (3764) 
299790

>  <ref_mols>  (3764) 
A3417a,A3176a

>  <distance_score>  (3764) 
0.884884

>  <inspiration_score>  (3764) 
None

$$$$
NZNSFRSFUMMPLN-UHFFFAOYSA-N-P180-P141-P180-601502
     RDKit          3D

 22 24  0  0  0  0  0  0  0  0999 V2000
   12.4440   14.7936   23.0405 C   0  0  0  0  0  0  0  0  0  0  0  0
   11.1036   15.4703   23.0562 C   0  0  1  0  0  0  0  0  0  0  0  0
   10.7549   16.2022   21.7822 C   0  0  0  0  0  0  0  0  0  0  0  0
   10.7279   15.4311   20.5727 N   0  0  0  0  0  0  0  0  0  0  0  0
   11.7644   14.8741   19.8961 C   0  0  0  0  0  0  0  0  0  0  0  0
   11.3768   14.5044   18.7030 N   0  0  0  0  0  0  0  0  0  0  0  0
   10.0864   14.9301   18.6834 C   0  0  0  0  0  0  0  0  0  0  0  0
    9.6325   15.4710   19.8107 N   0  0  0  0  0  0  0  0  0  0  0  0
   10.1594   14.4860   23.4305 N   0  0  0  0  0  0  0  0  0  0  0  0
    8.9953   14.5543   24.3981 C   0  0  0  0  0  0  0  0  0  0  0  0
    8.5649   15.4504   24.9960 O   0  0  0  0  0  0  0  0  0  0  0  0
    8.5278   13.1803   24.5397 C   0  0  0  0  0  0  0  0  0  0  0  0
    9.1859   12.1573   23.9459 N   0  0  0  0  0  0  0  0  0  0  0  0
    8.6248   11.0649   24.4771 N   0  0  0  0  0  0  0  0  0  0  0  0
    9.2512    9.7865   24.2239 C   0  0  0  0  0  0  0  0  0  0  0  0
    7.5693   11.3570   25.3042 C   0  0  0  0  0  0  0  0  0  0  0  0
    6.6814   10.5734   26.0262 C   0  0  0  0  0  0  0  0  0  0  0  0
    5.7421   11.1836   26.8564 C   0  0  0  0  0  0  0  0  0  0  0  0
    5.6699   12.5600   26.9253 C   0  0  0  0  0  0  0  0  0  0  0  0
    4.7626   13.1290   27.7295 F   0  0  0  0  0  0  0  0  0  0  0  0
    6.5280   13.3599   26.1848 C   0  0  0  0  0  0  0  0  0  0  0  0
    7.4860   12.7388   25.3648 C   0  0  0  0  0  0  0  0  0  0  0  0
  2  1  1  6
  2  3  1  0
  3  4  1  0
  4  5  1  0
  5  6  2  0
  6  7  1  0
  7  8  2  0
  2  9  1  0
  9 10  1  0
 10 11  2  0
 10 12  1  0
 12 13  2  0
 13 14  1  0
 14 15  1  0
 14 16  1  0
 16 17  2  0
 17 18  1  0
 18 19  2  0
 19 20  1  0
 19 21  1  0
 21 22  2  0
  8  4  1  0
 22 12  1  0
 22 16  1  0
M  END
>  <energy_score>  (3765) 
-26.578223

>  <inchikey>  (3765) 
NZNSFRSFUMMPLN-UHFFFAOYSA-N

>  <smiles>  (3765) 
CC(Cn1cncn1)NC(=O)c1nn(C)c2ccc(F)cc12

>  <ref_pdb>  (3765) 
A0514a

>  <alias>  (3765) 
NZNSFRSFUMMPLN-UHFFFAOYSA-N-P180-P141-P180-601502

>  <HIPPO Pose ID>  (3765) 
503525

>  <name>  (3765) 
NZNSFRSFUMMPLN-UHFFFAOYSA-N-P180-P141-P180-601502

>  <HIPPO Compound ID>  (3765) 
299790

>  <ref_mols>  (3765) 
A3417a,A3176a

>  <distance_score>  (3765) 
1.283917

>  <inspiration_score>  (3765) 
None

$$$$
KAUTUNFKTUEHRF-UHFFFAOYSA-N-P141-P141-P180-601502
     RDKit          3D

 22 25  0  0  0  0  0  0  0  0999 V2000
    9.0771    9.1353   23.3039 C   0  0  0  0  0  0  0  0  0  0  0  0
    8.7584   10.3980   23.9309 N   0  0  0  0  0  0  0  0  0  0  0  0
    9.5314   11.4511   23.6504 N   0  0  0  0  0  0  0  0  0  0  0  0
    9.0487   12.4584   24.4035 C   0  0  0  0  0  0  0  0  0  0  0  0
    9.6724   13.7990   24.3770 C   0  0  0  0  0  0  0  0  0  0  0  0
    9.4095   14.6456   25.1520 O   0  0  0  0  0  0  0  0  0  0  0  0
   10.5558   13.8326   23.1649 N   0  0  0  0  0  0  0  0  0  0  0  0
   11.4603   14.9346   22.6226 C   0  0  0  0  0  0  0  0  0  0  0  0
   10.5114   15.4493   21.6284 C   0  0  0  0  0  0  0  0  0  0  0  0
   10.9301   15.4919   20.2469 N   0  0  0  0  0  0  0  0  0  0  0  0
   11.8516   14.7119   19.6264 C   0  0  0  0  0  0  0  0  0  0  0  0
   11.9913   15.1130   18.3903 N   0  0  0  0  0  0  0  0  0  0  0  0
   11.0932   16.1493   18.3113 C   0  0  0  0  0  0  0  0  0  0  0  0
   10.3515   16.3441   19.4005 N   0  0  0  0  0  0  0  0  0  0  0  0
    9.7573   14.2361   21.8921 C   0  0  0  0  0  0  0  0  0  0  0  0
    7.9091   12.0407   25.1339 C   0  0  0  0  0  0  0  0  0  0  0  0
    7.0001   12.6556   26.0147 C   0  0  0  0  0  0  0  0  0  0  0  0
    6.0243   11.8665   26.6160 C   0  0  0  0  0  0  0  0  0  0  0  0
    5.1817   12.4208   27.4981 F   0  0  0  0  0  0  0  0  0  0  0  0
    5.9287   10.5080   26.3536 C   0  0  0  0  0  0  0  0  0  0  0  0
    6.7816    9.8991   25.4315 C   0  0  0  0  0  0  0  0  0  0  0  0
    7.7696   10.6846   24.8373 C   0  0  0  0  0  0  0  0  0  0  0  0
  1  2  1  0
  2  3  1  0
  3  4  2  0
  4  5  1  0
  5  6  2  0
  5  7  1  0
  7  8  1  0
  8  9  1  0
  9 10  1  0
 10 11  1  0
 11 12  2  0
 12 13  1  0
 13 14  2  0
  9 15  1  0
  4 16  1  0
 16 17  2  0
 17 18  1  0
 18 19  1  0
 18 20  2  0
 20 21  1  0
 21 22  2  0
 22  2  1  0
 15  7  1  0
 22 16  1  0
 14 10  1  0
M  END
>  <energy_score>  (3766) 
-5.299478

>  <inchikey>  (3766) 
KAUTUNFKTUEHRF-UHFFFAOYSA-N

>  <smiles>  (3766) 
Cn1nc(C(=O)N2CC(n3cncn3)C2)c2cc(F)ccc21

>  <ref_pdb>  (3766) 
A0514a

>  <alias>  (3766) 
KAUTUNFKTUEHRF-UHFFFAOYSA-N-P141-P141-P180-601502

>  <HIPPO Pose ID>  (3766) 
503530

>  <name>  (3766) 
KAUTUNFKTUEHRF-UHFFFAOYSA-N-P141-P141-P180-601502

>  <HIPPO Compound ID>  (3766) 
299793

>  <ref_mols>  (3766) 
A3417a,A3176a

>  <distance_score>  (3766) 
0.963489

>  <inspiration_score>  (3766) 
None

$$$$
KAUTUNFKTUEHRF-UHFFFAOYSA-N-P180-P141-P180-601502
     RDKit          3D

 22 25  0  0  0  0  0  0  0  0999 V2000
    9.6034    9.5061   24.2432 C   0  0  0  0  0  0  0  0  0  0  0  0
    9.2057   10.8661   24.5105 N   0  0  0  0  0  0  0  0  0  0  0  0
   10.0004   11.8471   24.0731 N   0  0  0  0  0  0  0  0  0  0  0  0
    9.3247   12.9783   24.3602 C   0  0  0  0  0  0  0  0  0  0  0  0
    9.7179   14.2783   23.7970 C   0  0  0  0  0  0  0  0  0  0  0  0
    8.9403   15.1583   23.7191 O   0  0  0  0  0  0  0  0  0  0  0  0
   11.1389   14.1868   23.3052 N   0  0  0  0  0  0  0  0  0  0  0  0
   12.0274   15.2261   22.6558 C   0  0  0  0  0  0  0  0  0  0  0  0
   11.7649   14.8266   21.2547 C   0  0  0  0  0  0  0  0  0  0  0  0
   10.7502   15.5616   20.5440 N   0  0  0  0  0  0  0  0  0  0  0  0
   10.4940   15.4352   19.2175 C   0  0  0  0  0  0  0  0  0  0  0  0
    9.6667   16.3908   18.8655 N   0  0  0  0  0  0  0  0  0  0  0  0
    9.4387   17.0581   20.0402 C   0  0  0  0  0  0  0  0  0  0  0  0
   10.0550   16.5485   21.0943 N   0  0  0  0  0  0  0  0  0  0  0  0
   11.2035   13.6225   21.8600 C   0  0  0  0  0  0  0  0  0  0  0  0
    8.1543   12.7030   25.1101 C   0  0  0  0  0  0  0  0  0  0  0  0
    7.1267   13.4695   25.6924 C   0  0  0  0  0  0  0  0  0  0  0  0
    6.1060   12.8140   26.3734 C   0  0  0  0  0  0  0  0  0  0  0  0
    5.1464   13.5316   26.9725 F   0  0  0  0  0  0  0  0  0  0  0  0
    6.0626   11.4345   26.4474 C   0  0  0  0  0  0  0  0  0  0  0  0
    7.0454   10.6679   25.8223 C   0  0  0  0  0  0  0  0  0  0  0  0
    8.1002   11.3165   25.1835 C   0  0  0  0  0  0  0  0  0  0  0  0
  1  2  1  0
  2  3  1  0
  3  4  2  0
  4  5  1  0
  5  6  2  0
  5  7  1  0
  7  8  1  0
  8  9  1  0
  9 10  1  0
 10 11  1  0
 11 12  2  0
 12 13  1  0
 13 14  2  0
  9 15  1  0
  4 16  1  0
 16 17  2  0
 17 18  1  0
 18 19  1  0
 18 20  2  0
 20 21  1  0
 21 22  2  0
 22  2  1  0
 15  7  1  0
 22 16  1  0
 14 10  1  0
M  END
>  <energy_score>  (3767) 
-1.834016

>  <inchikey>  (3767) 
KAUTUNFKTUEHRF-UHFFFAOYSA-N

>  <smiles>  (3767) 
Cn1nc(C(=O)N2CC(n3cncn3)C2)c2cc(F)ccc21

>  <ref_pdb>  (3767) 
A0514a

>  <alias>  (3767) 
KAUTUNFKTUEHRF-UHFFFAOYSA-N-P180-P141-P180-601502

>  <HIPPO Pose ID>  (3767) 
503531

>  <name>  (3767) 
KAUTUNFKTUEHRF-UHFFFAOYSA-N-P180-P141-P180-601502

>  <HIPPO Compound ID>  (3767) 
299793

>  <ref_mols>  (3767) 
A3417a,A3176a

>  <distance_score>  (3767) 
1.073235

>  <inspiration_score>  (3767) 
None

$$$$
CVWBZYGDQLKTJC-UHFFFAOYSA-N-P141-P141-P180-601502
     RDKit          3D

 22 24  0  0  0  0  0  0  0  0999 V2000
    9.2141    9.1111   23.1688 C   0  0  0  0  0  0  0  0  0  0  0  0
    8.8997   10.4106   23.7190 N   0  0  0  0  0  0  0  0  0  0  0  0
    9.6625   11.4608   23.3669 N   0  0  0  0  0  0  0  0  0  0  0  0
    9.1780   12.4901   24.0905 C   0  0  0  0  0  0  0  0  0  0  0  0
    9.8597   13.8022   24.0877 C   0  0  0  0  0  0  0  0  0  0  0  0
    9.5469   14.6545   24.8180 O   0  0  0  0  0  0  0  0  0  0  0  0
   11.0018   13.7381   23.0639 N   0  0  0  0  0  0  0  0  0  0  0  0
   11.9444   14.7421   22.6521 C   0  0  0  0  0  0  0  0  0  0  0  0
   12.1898   14.7793   21.1530 C   0  0  0  0  0  0  0  0  0  0  0  0
   11.1184   15.3253   20.3603 N   0  0  0  0  0  0  0  0  0  0  0  0
   10.9661   15.1891   19.0213 C   0  0  0  0  0  0  0  0  0  0  0  0
   10.0912   16.0664   18.5991 N   0  0  0  0  0  0  0  0  0  0  0  0
    9.7889   16.7784   19.7128 C   0  0  0  0  0  0  0  0  0  0  0  0
    8.8182   18.3824   19.6197 Br  0  0  0  0  0  0  0  0  0  0  0  0
   10.3277   16.2951   20.8350 N   0  0  0  0  0  0  0  0  0  0  0  0
    8.0497   12.0944   24.8587 C   0  0  0  0  0  0  0  0  0  0  0  0
    7.1630   12.7296   25.7499 C   0  0  0  0  0  0  0  0  0  0  0  0
    6.2050   11.9560   26.4016 C   0  0  0  0  0  0  0  0  0  0  0  0
    5.3786   12.5364   27.2824 F   0  0  0  0  0  0  0  0  0  0  0  0
    6.1118   10.5876   26.1907 C   0  0  0  0  0  0  0  0  0  0  0  0
    6.9617    9.9490   25.2857 C   0  0  0  0  0  0  0  0  0  0  0  0
    7.9232   10.7251   24.6310 C   0  0  0  0  0  0  0  0  0  0  0  0
  1  2  1  0
  2  3  1  0
  3  4  2  0
  4  5  1  0
  5  6  2  0
  5  7  1  0
  7  8  1  0
  8  9  1  0
  9 10  1  0
 10 11  1  0
 11 12  2  0
 12 13  1  0
 13 14  1  0
 13 15  2  0
  4 16  1  0
 16 17  2  0
 17 18  1  0
 18 19  1  0
 18 20  2  0
 20 21  1  0
 21 22  2  0
 22  2  1  0
 15 10  1  0
 22 16  1  0
M  END
>  <energy_score>  (3768) 
-1.660298

>  <inchikey>  (3768) 
CVWBZYGDQLKTJC-UHFFFAOYSA-N

>  <smiles>  (3768) 
Cn1nc(C(=O)NCCn2cnc(Br)n2)c2cc(F)ccc21

>  <ref_pdb>  (3768) 
A0514a

>  <alias>  (3768) 
CVWBZYGDQLKTJC-UHFFFAOYSA-N-P141-P141-P180-601502

>  <HIPPO Pose ID>  (3768) 
503532

>  <name>  (3768) 
CVWBZYGDQLKTJC-UHFFFAOYSA-N-P141-P141-P180-601502

>  <HIPPO Compound ID>  (3768) 
299794

>  <ref_mols>  (3768) 
A3417a,A3176a

>  <distance_score>  (3768) 
0.634656

>  <inspiration_score>  (3768) 
None

$$$$
QQXHNYZCKARTOU-UHFFFAOYSA-N-P141-P141-P180-601502
     RDKit          3D

 23 26  0  0  0  0  0  0  0  0999 V2000
    9.1417    9.0626   23.1858 C   0  0  0  0  0  0  0  0  0  0  0  0
    8.7608   10.2939   23.8392 N   0  0  0  0  0  0  0  0  0  0  0  0
    9.4454   11.4162   23.5504 N   0  0  0  0  0  0  0  0  0  0  0  0
    8.9213   12.3307   24.3858 C   0  0  0  0  0  0  0  0  0  0  0  0
    9.4137   13.6955   24.4402 C   0  0  0  0  0  0  0  0  0  0  0  0
    9.2788   14.3615   25.3816 O   0  0  0  0  0  0  0  0  0  0  0  0
    9.9841   14.0266   23.0723 N   0  0  0  0  0  0  0  0  0  0  0  0
   10.4205   15.2506   22.5360 C   0  0  0  0  0  0  0  0  0  0  0  0
   11.2266   15.2015   21.2879 C   0  0  0  0  0  0  0  0  0  0  0  0
   10.5804   15.9687   20.1871 N   0  0  0  0  0  0  0  0  0  0  0  0
   10.7042   15.7958   18.8500 C   0  0  0  0  0  0  0  0  0  0  0  0
   10.0315   16.7485   18.2359 N   0  0  0  0  0  0  0  0  0  0  0  0
    9.5078   17.4753   19.2471 C   0  0  0  0  0  0  0  0  0  0  0  0
    9.8024   17.0236   20.4586 N   0  0  0  0  0  0  0  0  0  0  0  0
   12.1906   14.0678   21.0382 C   0  0  0  0  0  0  0  0  0  0  0  0
   12.7147   15.3524   21.5698 C   0  0  0  0  0  0  0  0  0  0  0  0
    7.8288   11.8334   25.1184 C   0  0  0  0  0  0  0  0  0  0  0  0
    6.9045   12.3787   26.0293 C   0  0  0  0  0  0  0  0  0  0  0  0
    5.9627   11.5320   26.5948 C   0  0  0  0  0  0  0  0  0  0  0  0
    5.0934   12.0132   27.4933 F   0  0  0  0  0  0  0  0  0  0  0  0
    5.9271   10.1868   26.2694 C   0  0  0  0  0  0  0  0  0  0  0  0
    6.8104    9.6538   25.3259 C   0  0  0  0  0  0  0  0  0  0  0  0
    7.7614   10.4953   24.7613 C   0  0  0  0  0  0  0  0  0  0  0  0
  1  2  1  0
  2  3  1  0
  3  4  2  0
  4  5  1  0
  5  6  2  0
  5  7  1  0
  7  8  1  0
  8  9  1  0
  9 10  1  0
 10 11  1  0
 11 12  2  0
 12 13  1  0
 13 14  2  0
  9 15  1  0
 15 16  1  0
  4 17  1  0
 17 18  2  0
 18 19  1  0
 19 20  1  0
 19 21  2  0
 21 22  1  0
 22 23  2  0
 23  2  1  0
 16  9  1  0
 23 17  1  0
 14 10  1  0
M  END
>  <energy_score>  (3769) 
-5.076329

>  <inchikey>  (3769) 
QQXHNYZCKARTOU-UHFFFAOYSA-N

>  <smiles>  (3769) 
Cn1nc(C(=O)NCC2(n3cncn3)CC2)c2cc(F)ccc21

>  <ref_pdb>  (3769) 
A0514a

>  <alias>  (3769) 
QQXHNYZCKARTOU-UHFFFAOYSA-N-P141-P141-P180-601502

>  <HIPPO Pose ID>  (3769) 
503538

>  <name>  (3769) 
QQXHNYZCKARTOU-UHFFFAOYSA-N-P141-P141-P180-601502

>  <HIPPO Compound ID>  (3769) 
299797

>  <ref_mols>  (3769) 
A3417a,A3176a

>  <distance_score>  (3769) 
1.039263

>  <inspiration_score>  (3769) 
None

$$$$
XKVOTHLLZIIZSH-UHFFFAOYSA-N-P141-P141-P180-601502
     RDKit          3D

 23 26  0  0  0  0  0  0  0  0999 V2000
    9.0399    9.0696   23.2899 C   0  0  0  0  0  0  0  0  0  0  0  0
    8.7497   10.3277   23.9350 N   0  0  0  0  0  0  0  0  0  0  0  0
    9.5451   11.3656   23.6633 N   0  0  0  0  0  0  0  0  0  0  0  0
    9.1101   12.3549   24.4659 C   0  0  0  0  0  0  0  0  0  0  0  0
    9.7928   13.6559   24.5055 C   0  0  0  0  0  0  0  0  0  0  0  0
    9.7866   14.3656   25.4444 O   0  0  0  0  0  0  0  0  0  0  0  0
   10.3510   13.8679   23.1384 N   0  0  0  0  0  0  0  0  0  0  0  0
   11.1650   15.0110   22.5685 C   0  0  0  0  0  0  0  0  0  0  0  0
   10.4401   14.7933   21.2811 C   0  0  0  0  0  0  0  0  0  0  0  0
   10.1715   15.9458   20.4538 N   0  0  0  0  0  0  0  0  0  0  0  0
    9.2891   16.9010   20.7512 N   0  0  0  0  0  0  0  0  0  0  0  0
    9.2944   17.6283   19.6334 C   0  0  0  0  0  0  0  0  0  0  0  0
   10.0675   17.1265   18.6312 N   0  0  0  0  0  0  0  0  0  0  0  0
   10.6035   16.0588   19.1756 C   0  0  0  0  0  0  0  0  0  0  0  0
   11.8706   14.8932   18.4127 Br  0  0  0  0  0  0  0  0  0  0  0  0
    9.3090   14.4983   22.1961 C   0  0  0  0  0  0  0  0  0  0  0  0
    7.9475   11.9675   25.1713 C   0  0  0  0  0  0  0  0  0  0  0  0
    7.0520   12.5988   26.0540 C   0  0  0  0  0  0  0  0  0  0  0  0
    6.0479   11.8321   26.6356 C   0  0  0  0  0  0  0  0  0  0  0  0
    5.2185   12.3975   27.5230 F   0  0  0  0  0  0  0  0  0  0  0  0
    5.9165   10.4808   26.3533 C   0  0  0  0  0  0  0  0  0  0  0  0
    6.7539    9.8610   25.4236 C   0  0  0  0  0  0  0  0  0  0  0  0
    7.7655   10.6250   24.8433 C   0  0  0  0  0  0  0  0  0  0  0  0
  1  2  1  0
  2  3  1  0
  3  4  2  0
  4  5  1  0
  5  6  2  0
  5  7  1  0
  7  8  1  0
  8  9  1  0
  9 10  1  0
 10 11  1  0
 11 12  2  0
 12 13  1  0
 13 14  2  0
 14 15  1  0
  9 16  1  0
  4 17  1  0
 17 18  2  0
 18 19  1  0
 19 20  1  0
 19 21  2  0
 21 22  1  0
 22 23  2  0
 23  2  1  0
 16  7  1  0
 23 17  1  0
 14 10  1  0
M  END
>  <energy_score>  (3770) 
-41.648046

>  <inchikey>  (3770) 
XKVOTHLLZIIZSH-UHFFFAOYSA-N

>  <smiles>  (3770) 
Cn1nc(C(=O)N2CC(n3ncnc3Br)C2)c2cc(F)ccc21

>  <ref_pdb>  (3770) 
A0514a

>  <alias>  (3770) 
XKVOTHLLZIIZSH-UHFFFAOYSA-N-P141-P141-P180-601502

>  <HIPPO Pose ID>  (3770) 
503540

>  <name>  (3770) 
XKVOTHLLZIIZSH-UHFFFAOYSA-N-P141-P141-P180-601502

>  <HIPPO Compound ID>  (3770) 
299798

>  <ref_mols>  (3770) 
A3417a,A3176a

>  <distance_score>  (3770) 
1.169032

>  <inspiration_score>  (3770) 
None

$$$$
XKVOTHLLZIIZSH-UHFFFAOYSA-N-P180-P141-P180-601502
     RDKit          3D

 23 26  0  0  0  0  0  0  0  0999 V2000
    9.4946    9.5454   24.3502 C   0  0  0  0  0  0  0  0  0  0  0  0
    9.1876   10.8645   24.8443 N   0  0  0  0  0  0  0  0  0  0  0  0
   10.0983   11.8231   24.6681 N   0  0  0  0  0  0  0  0  0  0  0  0
    9.5068   12.9395   25.1373 C   0  0  0  0  0  0  0  0  0  0  0  0
    9.9832   14.2833   24.7966 C   0  0  0  0  0  0  0  0  0  0  0  0
    9.6229   15.2598   25.3431 O   0  0  0  0  0  0  0  0  0  0  0  0
   10.8765   14.1121   23.6168 N   0  0  0  0  0  0  0  0  0  0  0  0
   11.6760   15.1322   22.8194 C   0  0  0  0  0  0  0  0  0  0  0  0
   11.3738   14.3161   21.6132 C   0  0  0  0  0  0  0  0  0  0  0  0
   11.2197   14.9666   20.3397 N   0  0  0  0  0  0  0  0  0  0  0  0
   11.8817   14.4576   19.2984 N   0  0  0  0  0  0  0  0  0  0  0  0
   11.2765   15.0672   18.2921 C   0  0  0  0  0  0  0  0  0  0  0  0
   10.2852   15.9366   18.6217 N   0  0  0  0  0  0  0  0  0  0  0  0
   10.2867   15.8843   19.9297 C   0  0  0  0  0  0  0  0  0  0  0  0
    9.2252   17.0900   20.9473 Br  0  0  0  0  0  0  0  0  0  0  0  0
   10.0817   14.1127   22.3080 C   0  0  0  0  0  0  0  0  0  0  0  0
    8.2345   12.6587   25.6891 C   0  0  0  0  0  0  0  0  0  0  0  0
    7.2075   13.4213   26.2763 C   0  0  0  0  0  0  0  0  0  0  0  0
    6.0728   12.7671   26.7360 C   0  0  0  0  0  0  0  0  0  0  0  0
    5.1144   13.4656   27.3579 F   0  0  0  0  0  0  0  0  0  0  0  0
    5.9247   11.4025   26.5847 C   0  0  0  0  0  0  0  0  0  0  0  0
    6.8980   10.6552   25.9212 C   0  0  0  0  0  0  0  0  0  0  0  0
    8.0567   11.2951   25.4889 C   0  0  0  0  0  0  0  0  0  0  0  0
  1  2  1  0
  2  3  1  0
  3  4  2  0
  4  5  1  0
  5  6  2  0
  5  7  1  0
  7  8  1  0
  8  9  1  0
  9 10  1  0
 10 11  1  0
 11 12  2  0
 12 13  1  0
 13 14  2  0
 14 15  1  0
  9 16  1  0
  4 17  1  0
 17 18  2  0
 18 19  1  0
 19 20  1  0
 19 21  2  0
 21 22  1  0
 22 23  2  0
 23  2  1  0
 16  7  1  0
 23 17  1  0
 14 10  1  0
M  END
>  <energy_score>  (3771) 
-33.529902

>  <inchikey>  (3771) 
XKVOTHLLZIIZSH-UHFFFAOYSA-N

>  <smiles>  (3771) 
Cn1nc(C(=O)N2CC(n3ncnc3Br)C2)c2cc(F)ccc21

>  <ref_pdb>  (3771) 
A0514a

>  <alias>  (3771) 
XKVOTHLLZIIZSH-UHFFFAOYSA-N-P180-P141-P180-601502

>  <HIPPO Pose ID>  (3771) 
503541

>  <name>  (3771) 
XKVOTHLLZIIZSH-UHFFFAOYSA-N-P180-P141-P180-601502

>  <HIPPO Compound ID>  (3771) 
299798

>  <ref_mols>  (3771) 
A3417a,A3176a

>  <distance_score>  (3771) 
1.112455

>  <inspiration_score>  (3771) 
None

$$$$
CNUISLGIJOAKIF-UHFFFAOYSA-N-P141-P141-P180-601502
     RDKit          3D

 23 25  0  0  0  0  0  0  0  0999 V2000
   12.4250   15.1683   23.1315 C   0  0  0  0  0  0  0  0  0  0  0  0
   11.9090   14.2833   22.0033 C   0  0  1  0  0  0  0  0  0  0  0  0
   10.8374   13.4434   22.4542 N   0  0  0  0  0  0  0  0  0  0  0  0
    9.8054   13.6541   23.5798 C   0  0  0  0  0  0  0  0  0  0  0  0
    9.6144   14.5769   24.2679 O   0  0  0  0  0  0  0  0  0  0  0  0
    9.0739   12.3891   23.7753 C   0  0  0  0  0  0  0  0  0  0  0  0
    9.4768   11.2663   23.1495 N   0  0  0  0  0  0  0  0  0  0  0  0
    8.7752   10.2879   23.7335 N   0  0  0  0  0  0  0  0  0  0  0  0
    9.1351    8.9252   23.4297 C   0  0  0  0  0  0  0  0  0  0  0  0
    7.8361   10.7368   24.6271 C   0  0  0  0  0  0  0  0  0  0  0  0
    6.8784   10.0755   25.4050 C   0  0  0  0  0  0  0  0  0  0  0  0
    6.0995   10.8431   26.2723 C   0  0  0  0  0  0  0  0  0  0  0  0
    6.2667   12.2194   26.3389 C   0  0  0  0  0  0  0  0  0  0  0  0
    5.5151   12.9229   27.1968 F   0  0  0  0  0  0  0  0  0  0  0  0
    7.2121   12.8796   25.5563 C   0  0  0  0  0  0  0  0  0  0  0  0
    8.0092   12.1197   24.6787 C   0  0  0  0  0  0  0  0  0  0  0  0
   11.7853   15.0506   20.6609 C   0  0  1  0  0  0  0  0  0  0  0  0
   12.1302   14.2102   19.4473 C   0  0  0  0  0  0  0  0  0  0  0  0
   10.5754   15.7792   20.3607 N   0  0  0  0  0  0  0  0  0  0  0  0
   10.3176   16.5023   19.2292 C   0  0  0  0  0  0  0  0  0  0  0  0
    9.3233   17.3244   19.4597 N   0  0  0  0  0  0  0  0  0  0  0  0
    8.9195   16.9464   20.7021 C   0  0  0  0  0  0  0  0  0  0  0  0
    9.5956   15.9345   21.2468 N   0  0  0  0  0  0  0  0  0  0  0  0
  2  1  1  1
  2  3  1  0
  3  4  1  0
  4  5  2  0
  4  6  1  0
  6  7  2  0
  7  8  1  0
  8  9  1  0
  8 10  1  0
 10 11  2  0
 11 12  1  0
 12 13  2  0
 13 14  1  0
 13 15  1  0
 15 16  2  0
  2 17  1  0
 17 18  1  6
 17 19  1  0
 19 20  1  0
 20 21  2  0
 21 22  1  0
 22 23  2  0
 16  6  1  0
 23 19  1  0
 16 10  1  0
M  END
>  <energy_score>  (3772) 
-2.231741

>  <inchikey>  (3772) 
CNUISLGIJOAKIF-UHFFFAOYSA-N

>  <smiles>  (3772) 
CC(NC(=O)c1nn(C)c2ccc(F)cc12)C(C)n1cncn1

>  <ref_pdb>  (3772) 
A0514a

>  <alias>  (3772) 
CNUISLGIJOAKIF-UHFFFAOYSA-N-P141-P141-P180-601502

>  <HIPPO Pose ID>  (3772) 
503544

>  <name>  (3772) 
CNUISLGIJOAKIF-UHFFFAOYSA-N-P141-P141-P180-601502

>  <HIPPO Compound ID>  (3772) 
299800

>  <ref_mols>  (3772) 
A3417a,A3176a

>  <distance_score>  (3772) 
0.91459

>  <inspiration_score>  (3772) 
None

$$$$
UMWRWIISYLUZJH-UHFFFAOYSA-N-P141-P141-P180-601502
     RDKit          3D

 23 25  0  0  0  0  0  0  0  0999 V2000
   12.5812   14.4387   24.7194 C   0  0  0  0  0  0  0  0  0  0  0  0
   12.3038   15.0917   23.3624 C   0  0  0  0  0  0  0  0  0  0  0  0
   11.9439   14.0810   22.2744 C   0  0  2  0  0  0  0  0  0  0  0  0
   11.9660   14.6424   20.8450 C   0  0  0  0  0  0  0  0  0  0  0  0
   10.8476   15.3984   20.3575 N   0  0  0  0  0  0  0  0  0  0  0  0
   10.6959   15.8733   19.0903 C   0  0  0  0  0  0  0  0  0  0  0  0
    9.7702   16.8052   19.0851 N   0  0  0  0  0  0  0  0  0  0  0  0
    9.3428   16.8163   20.3773 C   0  0  0  0  0  0  0  0  0  0  0  0
    9.9296   15.9210   21.1716 N   0  0  0  0  0  0  0  0  0  0  0  0
   10.8220   13.2692   22.6454 N   0  0  0  0  0  0  0  0  0  0  0  0
    9.6318   13.5717   23.5748 C   0  0  0  0  0  0  0  0  0  0  0  0
    9.3335   14.5554   24.1256 O   0  0  0  0  0  0  0  0  0  0  0  0
    8.9049   12.3134   23.7745 C   0  0  0  0  0  0  0  0  0  0  0  0
    9.3378   11.1872   23.1775 N   0  0  0  0  0  0  0  0  0  0  0  0
    8.6458   10.2093   23.7692 N   0  0  0  0  0  0  0  0  0  0  0  0
    9.0165    8.8479   23.4739 C   0  0  0  0  0  0  0  0  0  0  0  0
    7.7124   10.6620   24.6685 C   0  0  0  0  0  0  0  0  0  0  0  0
    6.7748   10.0033   25.4689 C   0  0  0  0  0  0  0  0  0  0  0  0
    6.0060   10.7712   26.3451 C   0  0  0  0  0  0  0  0  0  0  0  0
    6.1553   12.1501   26.3905 C   0  0  0  0  0  0  0  0  0  0  0  0
    5.4117   12.8548   27.2544 F   0  0  0  0  0  0  0  0  0  0  0  0
    7.0722   12.8113   25.5772 C   0  0  0  0  0  0  0  0  0  0  0  0
    7.8591   12.0476   24.6938 C   0  0  0  0  0  0  0  0  0  0  0  0
  1  2  1  0
  3  2  1  1
  3  4  1  0
  4  5  1  0
  5  6  1  0
  6  7  2  0
  7  8  1  0
  8  9  2  0
  3 10  1  0
 10 11  1  0
 11 12  2  0
 11 13  1  0
 13 14  2  0
 14 15  1  0
 15 16  1  0
 15 17  1  0
 17 18  2  0
 18 19  1  0
 19 20  2  0
 20 21  1  0
 20 22  1  0
 22 23  2  0
  9  5  1  0
 23 13  1  0
 23 17  1  0
M  END
>  <energy_score>  (3773) 
-4.930138

>  <inchikey>  (3773) 
UMWRWIISYLUZJH-UHFFFAOYSA-N

>  <smiles>  (3773) 
CCC(Cn1cncn1)NC(=O)c1nn(C)c2ccc(F)cc12

>  <ref_pdb>  (3773) 
A0514a

>  <alias>  (3773) 
UMWRWIISYLUZJH-UHFFFAOYSA-N-P141-P141-P180-601502

>  <HIPPO Pose ID>  (3773) 
503548

>  <name>  (3773) 
UMWRWIISYLUZJH-UHFFFAOYSA-N-P141-P141-P180-601502

>  <HIPPO Compound ID>  (3773) 
299802

>  <ref_mols>  (3773) 
A3417a,A3176a

>  <distance_score>  (3773) 
0.859869

>  <inspiration_score>  (3773) 
None

$$$$
GKWXXOWHCNUEFJ-UHFFFAOYSA-N-P141-P141-P180-601502
     RDKit          3D

 23 25  0  0  0  0  0  0  0  0999 V2000
    9.2117    9.1238   23.1689 C   0  0  0  0  0  0  0  0  0  0  0  0
    8.8849   10.4150   23.7312 N   0  0  0  0  0  0  0  0  0  0  0  0
    9.6384   11.4749   23.3895 N   0  0  0  0  0  0  0  0  0  0  0  0
    9.1389   12.4940   24.1178 C   0  0  0  0  0  0  0  0  0  0  0  0
    9.7987   13.8152   24.1134 C   0  0  0  0  0  0  0  0  0  0  0  0
    9.5230   14.6405   24.8876 O   0  0  0  0  0  0  0  0  0  0  0  0
   10.8682   13.8001   23.0144 N   0  0  0  0  0  0  0  0  0  0  0  0
   11.8894   14.7569   22.6931 C   0  0  0  0  0  0  0  0  0  0  0  0
   12.1989   14.8315   21.2104 C   0  0  0  0  0  0  0  0  0  0  0  0
   11.1370   15.3579   20.3912 N   0  0  0  0  0  0  0  0  0  0  0  0
   10.9423   15.0997   19.0761 C   0  0  0  0  0  0  0  0  0  0  0  0
   10.0511   15.9315   18.6005 N   0  0  0  0  0  0  0  0  0  0  0  0
    9.7989   16.7602   19.6486 C   0  0  0  0  0  0  0  0  0  0  0  0
    9.0940   17.9932   19.4587 C   0  0  0  0  0  0  0  0  0  0  0  0
    8.5735   18.9975   19.1930 N   0  0  0  0  0  0  0  0  0  0  0  0
   10.3829   16.3927   20.7956 N   0  0  0  0  0  0  0  0  0  0  0  0
    8.0193   12.0804   24.8868 C   0  0  0  0  0  0  0  0  0  0  0  0
    7.1267   12.7006   25.7824 C   0  0  0  0  0  0  0  0  0  0  0  0
    6.1751   11.9132   26.4262 C   0  0  0  0  0  0  0  0  0  0  0  0
    5.3422   12.4784   27.3107 F   0  0  0  0  0  0  0  0  0  0  0  0
    6.0937   10.5464   26.2022 C   0  0  0  0  0  0  0  0  0  0  0  0
    6.9493    9.9235   25.2914 C   0  0  0  0  0  0  0  0  0  0  0  0
    7.9056   10.7125   24.6459 C   0  0  0  0  0  0  0  0  0  0  0  0
  1  2  1  0
  2  3  1  0
  3  4  2  0
  4  5  1  0
  5  6  2  0
  5  7  1  0
  7  8  1  0
  8  9  1  0
  9 10  1  0
 10 11  1  0
 11 12  2  0
 12 13  1  0
 13 14  1  0
 14 15  3  0
 13 16  2  0
  4 17  1  0
 17 18  2  0
 18 19  1  0
 19 20  1  0
 19 21  2  0
 21 22  1  0
 22 23  2  0
 23  2  1  0
 16 10  1  0
 23 17  1  0
M  END
>  <energy_score>  (3774) 
-7.451645

>  <inchikey>  (3774) 
GKWXXOWHCNUEFJ-UHFFFAOYSA-N

>  <smiles>  (3774) 
Cn1nc(C(=O)NCCn2cnc(C#N)n2)c2cc(F)ccc21

>  <ref_pdb>  (3774) 
A0514a

>  <alias>  (3774) 
GKWXXOWHCNUEFJ-UHFFFAOYSA-N-P141-P141-P180-601502

>  <HIPPO Pose ID>  (3774) 
503550

>  <name>  (3774) 
GKWXXOWHCNUEFJ-UHFFFAOYSA-N-P141-P141-P180-601502

>  <HIPPO Compound ID>  (3774) 
299803

>  <ref_mols>  (3774) 
A3417a,A3176a

>  <distance_score>  (3774) 
0.632166

>  <inspiration_score>  (3774) 
None

$$$$
GKWXXOWHCNUEFJ-UHFFFAOYSA-N-P180-P141-P180-601502
     RDKit          3D

 23 25  0  0  0  0  0  0  0  0999 V2000
    9.5525    9.5220   24.1274 C   0  0  0  0  0  0  0  0  0  0  0  0
    9.1788   10.8829   24.4209 N   0  0  0  0  0  0  0  0  0  0  0  0
    9.9912   11.8601   24.0002 N   0  0  0  0  0  0  0  0  0  0  0  0
    9.4709   12.9772   24.5531 C   0  0  0  0  0  0  0  0  0  0  0  0
   10.1489   14.2683   24.3871 C   0  0  0  0  0  0  0  0  0  0  0  0
    9.8562   15.2219   24.9850 O   0  0  0  0  0  0  0  0  0  0  0  0
   11.2001   14.0658   23.2974 N   0  0  0  0  0  0  0  0  0  0  0  0
   12.0509   15.0069   22.6420 C   0  0  0  0  0  0  0  0  0  0  0  0
   12.0366   14.8149   21.1337 C   0  0  0  0  0  0  0  0  0  0  0  0
   10.8550   15.3417   20.5006 N   0  0  0  0  0  0  0  0  0  0  0  0
   10.5468   15.2860   19.1797 C   0  0  0  0  0  0  0  0  0  0  0  0
    9.6992   16.2512   18.9048 N   0  0  0  0  0  0  0  0  0  0  0  0
    9.4989   16.8559   20.1257 C   0  0  0  0  0  0  0  0  0  0  0  0
    8.8280   18.1171   20.2756 C   0  0  0  0  0  0  0  0  0  0  0  0
    8.3386   19.1702   20.2808 N   0  0  0  0  0  0  0  0  0  0  0  0
   10.1241   16.2636   21.1383 N   0  0  0  0  0  0  0  0  0  0  0  0
    8.2651   12.7098   25.2412 C   0  0  0  0  0  0  0  0  0  0  0  0
    7.3098   13.4750   25.9363 C   0  0  0  0  0  0  0  0  0  0  0  0
    6.2437   12.8212   26.5462 C   0  0  0  0  0  0  0  0  0  0  0  0
    5.3409   13.5325   27.2341 F   0  0  0  0  0  0  0  0  0  0  0  0
    6.1115   11.4465   26.4826 C   0  0  0  0  0  0  0  0  0  0  0  0
    7.0471   10.6827   25.7847 C   0  0  0  0  0  0  0  0  0  0  0  0
    8.1138   11.3301   25.1608 C   0  0  0  0  0  0  0  0  0  0  0  0
  1  2  1  0
  2  3  1  0
  3  4  2  0
  4  5  1  0
  5  6  2  0
  5  7  1  0
  7  8  1  0
  8  9  1  0
  9 10  1  0
 10 11  1  0
 11 12  2  0
 12 13  1  0
 13 14  1  0
 14 15  3  0
 13 16  2  0
  4 17  1  0
 17 18  2  0
 18 19  1  0
 19 20  1  0
 19 21  2  0
 21 22  1  0
 22 23  2  0
 23  2  1  0
 16 10  1  0
 23 17  1  0
M  END
>  <energy_score>  (3775) 
-2.5674

>  <inchikey>  (3775) 
GKWXXOWHCNUEFJ-UHFFFAOYSA-N

>  <smiles>  (3775) 
Cn1nc(C(=O)NCCn2cnc(C#N)n2)c2cc(F)ccc21

>  <ref_pdb>  (3775) 
A0514a

>  <alias>  (3775) 
GKWXXOWHCNUEFJ-UHFFFAOYSA-N-P180-P141-P180-601502

>  <HIPPO Pose ID>  (3775) 
503551

>  <name>  (3775) 
GKWXXOWHCNUEFJ-UHFFFAOYSA-N-P180-P141-P180-601502

>  <HIPPO Compound ID>  (3775) 
299803

>  <ref_mols>  (3775) 
A3417a,A3176a

>  <distance_score>  (3775) 
1.045005

>  <inspiration_score>  (3775) 
None

$$$$
RLBKBXWOUWYHEY-UHFFFAOYSA-N-P141-P141-P180-601502
     RDKit          3D

 23 25  0  0  0  0  0  0  0  0999 V2000
    8.6866   17.8203   20.5680 C   0  0  0  0  0  0  0  0  0  0  0  0
    9.6288   16.7390   20.3238 C   0  0  0  0  0  0  0  0  0  0  0  0
   10.0733   16.4247   19.0889 N   0  0  0  0  0  0  0  0  0  0  0  0
   10.9939   15.5246   19.3352 C   0  0  0  0  0  0  0  0  0  0  0  0
   11.8795   14.9300   18.3453 C   0  0  0  0  0  0  0  0  0  0  0  0
   11.0795   15.3172   20.6807 N   0  0  0  0  0  0  0  0  0  0  0  0
   12.1825   14.7434   21.4108 C   0  0  0  0  0  0  0  0  0  0  0  0
   11.9722   14.6083   22.9090 C   0  0  0  0  0  0  0  0  0  0  0  0
   10.9232   13.6799   23.2089 N   0  0  0  0  0  0  0  0  0  0  0  0
    9.8352   13.7217   24.2843 C   0  0  0  0  0  0  0  0  0  0  0  0
    9.5651   14.5531   25.0535 O   0  0  0  0  0  0  0  0  0  0  0  0
    9.1328   12.4270   24.2370 C   0  0  0  0  0  0  0  0  0  0  0  0
    9.6218   11.4172   23.4888 N   0  0  0  0  0  0  0  0  0  0  0  0
    8.8408   10.3672   23.7850 N   0  0  0  0  0  0  0  0  0  0  0  0
    9.1542    9.0884   23.1880 C   0  0  0  0  0  0  0  0  0  0  0  0
    7.8568   10.6628   24.6962 C   0  0  0  0  0  0  0  0  0  0  0  0
    6.8840    9.8779   25.3186 C   0  0  0  0  0  0  0  0  0  0  0  0
    6.0320   10.4960   26.2360 C   0  0  0  0  0  0  0  0  0  0  0  0
    6.1251   11.8586   26.4802 C   0  0  0  0  0  0  0  0  0  0  0  0
    5.2908   12.4187   27.3669 F   0  0  0  0  0  0  0  0  0  0  0  0
    7.0923   12.6435   25.8591 C   0  0  0  0  0  0  0  0  0  0  0  0
    7.9881   12.0235   24.9674 C   0  0  0  0  0  0  0  0  0  0  0  0
   10.1316   16.0033   21.3142 N   0  0  0  0  0  0  0  0  0  0  0  0
  1  2  1  0
  2  3  1  0
  3  4  2  0
  4  5  1  0
  4  6  1  0
  6  7  1  0
  7  8  1  0
  8  9  1  0
  9 10  1  0
 10 11  2  0
 10 12  1  0
 12 13  2  0
 13 14  1  0
 14 15  1  0
 14 16  1  0
 16 17  2  0
 17 18  1  0
 18 19  2  0
 19 20  1  0
 19 21  1  0
 21 22  2  0
  6 23  1  0
 23  2  2  0
 22 12  1  0
 22 16  1  0
M  END
>  <energy_score>  (3776) 
-25.446948

>  <inchikey>  (3776) 
RLBKBXWOUWYHEY-UHFFFAOYSA-N

>  <smiles>  (3776) 
Cc1nc(C)n(CCNC(=O)c2nn(C)c3ccc(F)cc23)n1

>  <ref_pdb>  (3776) 
A0514a

>  <alias>  (3776) 
RLBKBXWOUWYHEY-UHFFFAOYSA-N-P141-P141-P180-601502

>  <HIPPO Pose ID>  (3776) 
503552

>  <name>  (3776) 
RLBKBXWOUWYHEY-UHFFFAOYSA-N-P141-P141-P180-601502

>  <HIPPO Compound ID>  (3776) 
299804

>  <ref_mols>  (3776) 
A3417a,A3176a

>  <distance_score>  (3776) 
0.946888

>  <inspiration_score>  (3776) 
None

$$$$
SGWMMONGTDPZNP-UHFFFAOYSA-N-P141-P141-P180-601502
     RDKit          3D

 24 27  0  0  0  0  0  0  0  0999 V2000
    8.7923   18.4192   19.8731 C   0  0  0  0  0  0  0  0  0  0  0  0
    9.5666   17.1711   19.9695 C   0  0  0  0  0  0  0  0  0  0  0  0
   10.0728   16.5890   18.8554 N   0  0  0  0  0  0  0  0  0  0  0  0
   10.8559   15.6508   19.3331 C   0  0  0  0  0  0  0  0  0  0  0  0
   11.7031   14.7725   18.5285 C   0  0  0  0  0  0  0  0  0  0  0  0
   10.8171   15.6882   20.7029 N   0  0  0  0  0  0  0  0  0  0  0  0
   11.7408   14.9501   21.5644 C   0  0  0  0  0  0  0  0  0  0  0  0
   11.8180   15.1574   23.0255 C   0  0  0  0  0  0  0  0  0  0  0  0
   10.9139   14.0054   23.4205 N   0  0  0  0  0  0  0  0  0  0  0  0
    9.4404   13.9813   23.7669 C   0  0  0  0  0  0  0  0  0  0  0  0
    8.6355   14.8412   23.7336 O   0  0  0  0  0  0  0  0  0  0  0  0
    9.0331   12.5952   24.0958 C   0  0  0  0  0  0  0  0  0  0  0  0
    9.6484   11.5330   23.5399 N   0  0  0  0  0  0  0  0  0  0  0  0
    8.8932   10.4770   23.8753 N   0  0  0  0  0  0  0  0  0  0  0  0
    9.2397    9.1833   23.3295 C   0  0  0  0  0  0  0  0  0  0  0  0
    7.8828   10.7908   24.7488 C   0  0  0  0  0  0  0  0  0  0  0  0
    6.9269   10.0082   25.4027 C   0  0  0  0  0  0  0  0  0  0  0  0
    6.0350   10.6527   26.2612 C   0  0  0  0  0  0  0  0  0  0  0  0
    6.0602   12.0338   26.3984 C   0  0  0  0  0  0  0  0  0  0  0  0
    5.1808   12.6202   27.2225 F   0  0  0  0  0  0  0  0  0  0  0  0
    6.9854   12.8191   25.7139 C   0  0  0  0  0  0  0  0  0  0  0  0
    7.9349   12.1774   24.8961 C   0  0  0  0  0  0  0  0  0  0  0  0
   11.1484   13.6664   21.9379 C   0  0  0  0  0  0  0  0  0  0  0  0
    9.9049   16.5649   21.1123 N   0  0  0  0  0  0  0  0  0  0  0  0
  1  2  1  0
  2  3  1  0
  3  4  2  0
  4  5  1  0
  4  6  1  0
  6  7  1  0
  7  8  1  0
  8  9  1  0
  9 10  1  0
 10 11  2  0
 10 12  1  0
 12 13  2  0
 13 14  1  0
 14 15  1  0
 14 16  1  0
 16 17  2  0
 17 18  1  0
 18 19  2  0
 19 20  1  0
 19 21  1  0
 21 22  2  0
  9 23  1  0
  6 24  1  0
 24  2  2  0
 23  7  1  0
 22 12  1  0
 22 16  1  0
M  END
>  <energy_score>  (3777) 
-2.814944

>  <inchikey>  (3777) 
SGWMMONGTDPZNP-UHFFFAOYSA-N

>  <smiles>  (3777) 
Cc1nc(C)n(C2CN(C(=O)c3nn(C)c4ccc(F)cc34)C2)n1

>  <ref_pdb>  (3777) 
A0514a

>  <alias>  (3777) 
SGWMMONGTDPZNP-UHFFFAOYSA-N-P141-P141-P180-601502

>  <HIPPO Pose ID>  (3777) 
503560

>  <name>  (3777) 
SGWMMONGTDPZNP-UHFFFAOYSA-N-P141-P141-P180-601502

>  <HIPPO Compound ID>  (3777) 
299808

>  <ref_mols>  (3777) 
A3417a,A3176a

>  <distance_score>  (3777) 
0.909977

>  <inspiration_score>  (3777) 
None

$$$$
SGWMMONGTDPZNP-UHFFFAOYSA-N-P180-P141-P180-601502
     RDKit          3D

 24 27  0  0  0  0  0  0  0  0999 V2000
    8.5451   18.2731   20.5843 C   0  0  0  0  0  0  0  0  0  0  0  0
    9.4326   17.1275   20.3569 C   0  0  0  0  0  0  0  0  0  0  0  0
    9.6770   16.5532   19.1384 N   0  0  0  0  0  0  0  0  0  0  0  0
   10.5223   15.5867   19.4264 C   0  0  0  0  0  0  0  0  0  0  0  0
   11.1900   14.6884   18.4825 C   0  0  0  0  0  0  0  0  0  0  0  0
   10.7608   15.6128   20.7687 N   0  0  0  0  0  0  0  0  0  0  0  0
   11.7776   14.8591   21.4570 C   0  0  0  0  0  0  0  0  0  0  0  0
   12.0272   15.1940   22.8726 C   0  0  0  0  0  0  0  0  0  0  0  0
   11.1058   14.1599   23.4613 N   0  0  0  0  0  0  0  0  0  0  0  0
    9.6683   14.2603   23.8975 C   0  0  0  0  0  0  0  0  0  0  0  0
    8.9054   15.1518   23.8067 O   0  0  0  0  0  0  0  0  0  0  0  0
    9.2438   12.9585   24.4150 C   0  0  0  0  0  0  0  0  0  0  0  0
    9.9053   11.8263   24.1075 N   0  0  0  0  0  0  0  0  0  0  0  0
    9.1094   10.8505   24.5446 N   0  0  0  0  0  0  0  0  0  0  0  0
    9.5137    9.4941   24.2775 C   0  0  0  0  0  0  0  0  0  0  0  0
    8.0092   11.3039   25.2243 C   0  0  0  0  0  0  0  0  0  0  0  0
    6.9532   10.6638   25.8683 C   0  0  0  0  0  0  0  0  0  0  0  0
    5.9835   11.4359   26.5069 C   0  0  0  0  0  0  0  0  0  0  0  0
    6.0370   12.8150   26.4383 C   0  0  0  0  0  0  0  0  0  0  0  0
    5.0878   13.5380   27.0473 F   0  0  0  0  0  0  0  0  0  0  0  0
    7.0576   13.4642   25.7529 C   0  0  0  0  0  0  0  0  0  0  0  0
    8.0722   12.6899   25.1592 C   0  0  0  0  0  0  0  0  0  0  0  0
   11.2224   13.6211   22.0010 C   0  0  0  0  0  0  0  0  0  0  0  0
   10.0374   16.5328   21.3747 N   0  0  0  0  0  0  0  0  0  0  0  0
  1  2  1  0
  2  3  1  0
  3  4  2  0
  4  5  1  0
  4  6  1  0
  6  7  1  0
  7  8  1  0
  8  9  1  0
  9 10  1  0
 10 11  2  0
 10 12  1  0
 12 13  2  0
 13 14  1  0
 14 15  1  0
 14 16  1  0
 16 17  2  0
 17 18  1  0
 18 19  2  0
 19 20  1  0
 19 21  1  0
 21 22  2  0
  9 23  1  0
  6 24  1  0
 24  2  2  0
 23  7  1  0
 22 12  1  0
 22 16  1  0
M  END
>  <energy_score>  (3778) 
-4.804738

>  <inchikey>  (3778) 
SGWMMONGTDPZNP-UHFFFAOYSA-N

>  <smiles>  (3778) 
Cc1nc(C)n(C2CN(C(=O)c3nn(C)c4ccc(F)cc34)C2)n1

>  <ref_pdb>  (3778) 
A0514a

>  <alias>  (3778) 
SGWMMONGTDPZNP-UHFFFAOYSA-N-P180-P141-P180-601502

>  <HIPPO Pose ID>  (3778) 
503561

>  <name>  (3778) 
SGWMMONGTDPZNP-UHFFFAOYSA-N-P180-P141-P180-601502

>  <HIPPO Compound ID>  (3778) 
299808

>  <ref_mols>  (3778) 
A3417a,A3176a

>  <distance_score>  (3778) 
1.208286

>  <inspiration_score>  (3778) 
None

$$$$
GXBAPFAHLDNXDK-UHFFFAOYSA-N-P141-P141-P180-601502
     RDKit          3D

 24 27  0  0  0  0  0  0  0  0999 V2000
    8.9144   18.1832   18.7394 C   0  0  0  0  0  0  0  0  0  0  0  0
    9.5925   17.2067   19.6068 C   0  0  0  0  0  0  0  0  0  0  0  0
   10.3690   17.6028   20.6489 N   0  0  0  0  0  0  0  0  0  0  0  0
   10.9637   16.4976   21.0306 C   0  0  0  0  0  0  0  0  0  0  0  0
   10.3804   15.4901   20.3986 N   0  0  0  0  0  0  0  0  0  0  0  0
    9.5833   15.8814   19.4173 N   0  0  0  0  0  0  0  0  0  0  0  0
   10.8019   14.1591   20.5964 C   0  0  0  0  0  0  0  0  0  0  0  0
   11.4966   13.8825   21.9472 C   0  0  2  0  0  0  0  0  0  0  0  0
   10.6343   13.0742   22.7472 N   0  0  0  0  0  0  0  0  0  0  0  0
    9.5096   13.4688   23.7108 C   0  0  0  0  0  0  0  0  0  0  0  0
    9.1546   14.5181   24.0673 O   0  0  0  0  0  0  0  0  0  0  0  0
    8.8499   12.2206   24.0654 C   0  0  0  0  0  0  0  0  0  0  0  0
    9.2811   11.0867   23.4836 N   0  0  0  0  0  0  0  0  0  0  0  0
    8.5126   10.1357   24.0014 N   0  0  0  0  0  0  0  0  0  0  0  0
    8.8084    8.7779   23.6306 C   0  0  0  0  0  0  0  0  0  0  0  0
    7.5817   10.6089   24.8913 C   0  0  0  0  0  0  0  0  0  0  0  0
    6.5859    9.9821   25.6399 C   0  0  0  0  0  0  0  0  0  0  0  0
    5.8307   10.7658   26.5140 C   0  0  0  0  0  0  0  0  0  0  0  0
    6.0243   12.1377   26.5803 C   0  0  0  0  0  0  0  0  0  0  0  0
    5.2773   12.8598   27.4264 F   0  0  0  0  0  0  0  0  0  0  0  0
    6.9861   12.7746   25.8028 C   0  0  0  0  0  0  0  0  0  0  0  0
    7.7857   11.9862   24.9566 C   0  0  0  0  0  0  0  0  0  0  0  0
   12.0142   15.0723   22.7403 C   0  0  0  0  0  0  0  0  0  0  0  0
   12.2006   16.2318   21.8084 C   0  0  0  0  0  0  0  0  0  0  0  0
  1  2  1  0
  2  3  1  0
  3  4  2  0
  4  5  1  0
  5  6  1  0
  5  7  1  0
  7  8  1  0
  8  9  1  1
  9 10  1  0
 10 11  2  0
 10 12  1  0
 12 13  2  0
 13 14  1  0
 14 15  1  0
 14 16  1  0
 16 17  2  0
 17 18  1  0
 18 19  2  0
 19 20  1  0
 19 21  1  0
 21 22  2  0
  8 23  1  0
 23 24  1  0
  6  2  2  0
 22 12  1  0
 24  4  1  0
 22 16  1  0
M  END
>  <energy_score>  (3779) 
-8.514156

>  <inchikey>  (3779) 
GXBAPFAHLDNXDK-UHFFFAOYSA-N

>  <smiles>  (3779) 
Cc1nc2n(n1)CC(NC(=O)c1nn(C)c3ccc(F)cc13)CC2

>  <ref_pdb>  (3779) 
A0514a

>  <alias>  (3779) 
GXBAPFAHLDNXDK-UHFFFAOYSA-N-P141-P141-P180-601502

>  <HIPPO Pose ID>  (3779) 
503562

>  <name>  (3779) 
GXBAPFAHLDNXDK-UHFFFAOYSA-N-P141-P141-P180-601502

>  <HIPPO Compound ID>  (3779) 
299809

>  <ref_mols>  (3779) 
A3417a,A3176a

>  <distance_score>  (3779) 
1.086835

>  <inspiration_score>  (3779) 
None

$$$$
ZVXCLKSCZDSFCA-UHFFFAOYSA-N-P141-P141-P180-601502
     RDKit          3D

 24 26  0  0  0  0  0  0  0  0999 V2000
   12.8262   13.0913   24.4374 C   0  0  0  0  0  0  0  0  0  0  0  0
   12.5298   14.5548   24.1381 C   0  0  0  0  0  0  0  0  0  0  0  0
   12.1688   15.2178   25.4772 C   0  0  0  0  0  0  0  0  0  0  0  0
   11.4411   14.7761   23.0621 C   0  0  1  0  0  0  0  0  0  0  0  0
   11.9632   14.7305   21.6201 C   0  0  0  0  0  0  0  0  0  0  0  0
   11.0301   15.2704   20.6521 N   0  0  0  0  0  0  0  0  0  0  0  0
   11.1170   15.2143   19.2988 C   0  0  0  0  0  0  0  0  0  0  0  0
   10.2633   16.0660   18.7802 N   0  0  0  0  0  0  0  0  0  0  0  0
    9.6797   16.6360   19.8632 C   0  0  0  0  0  0  0  0  0  0  0  0
   10.0823   16.1400   21.0292 N   0  0  0  0  0  0  0  0  0  0  0  0
   10.4100   13.8151   23.2879 N   0  0  0  0  0  0  0  0  0  0  0  0
    9.1982   13.8604   24.2106 C   0  0  0  0  0  0  0  0  0  0  0  0
    8.7945   14.7178   24.8836 O   0  0  0  0  0  0  0  0  0  0  0  0
    8.6309   12.5106   24.1882 C   0  0  0  0  0  0  0  0  0  0  0  0
    9.2126   11.5421   23.4482 N   0  0  0  0  0  0  0  0  0  0  0  0
    8.5916   10.4167   23.8280 N   0  0  0  0  0  0  0  0  0  0  0  0
    9.0475    9.1601   23.2757 C   0  0  0  0  0  0  0  0  0  0  0  0
    7.6123   10.6349   24.7652 C   0  0  0  0  0  0  0  0  0  0  0  0
    6.7414    9.7773   25.4303 C   0  0  0  0  0  0  0  0  0  0  0  0
    5.8819   10.3222   26.3869 C   0  0  0  0  0  0  0  0  0  0  0  0
    5.8674   11.6868   26.6311 C   0  0  0  0  0  0  0  0  0  0  0  0
    5.0288   12.1746   27.5553 F   0  0  0  0  0  0  0  0  0  0  0  0
    6.7181   12.5504   25.9532 C   0  0  0  0  0  0  0  0  0  0  0  0
    7.6034   12.0051   25.0060 C   0  0  0  0  0  0  0  0  0  0  0  0
  1  2  1  0
  2  3  1  0
  2  4  1  0
  4  5  1  6
  5  6  1  0
  6  7  1  0
  7  8  2  0
  8  9  1  0
  9 10  2  0
  4 11  1  0
 11 12  1  0
 12 13  2  0
 12 14  1  0
 14 15  2  0
 15 16  1  0
 16 17  1  0
 16 18  1  0
 18 19  2  0
 19 20  1  0
 20 21  2  0
 21 22  1  0
 21 23  1  0
 23 24  2  0
 10  6  1  0
 24 14  1  0
 24 18  1  0
M  END
>  <energy_score>  (3780) 
-8.047845

>  <inchikey>  (3780) 
ZVXCLKSCZDSFCA-UHFFFAOYSA-N

>  <smiles>  (3780) 
CC(C)C(Cn1cncn1)NC(=O)c1nn(C)c2ccc(F)cc12

>  <ref_pdb>  (3780) 
A0514a

>  <alias>  (3780) 
ZVXCLKSCZDSFCA-UHFFFAOYSA-N-P141-P141-P180-601502

>  <HIPPO Pose ID>  (3780) 
503564

>  <name>  (3780) 
ZVXCLKSCZDSFCA-UHFFFAOYSA-N-P141-P141-P180-601502

>  <HIPPO Compound ID>  (3780) 
299810

>  <ref_mols>  (3780) 
A3417a,A3176a

>  <distance_score>  (3780) 
0.841356

>  <inspiration_score>  (3780) 
None

$$$$
CUKCWYGWPWXVTR-UHFFFAOYSA-N-P141-P141-P180-601502
     RDKit          3D

 24 26  0  0  0  0  0  0  0  0999 V2000
    9.8896   16.6553   18.5613 C   0  0  0  0  0  0  0  0  0  0  0  0
   11.0975   16.0524   19.0713 N   0  0  0  0  0  0  0  0  0  0  0  0
   11.8344   15.3749   18.0265 C   0  0  0  0  0  0  0  0  0  0  0  0
   10.9118   15.2153   20.2369 C   0  0  0  0  0  0  0  0  0  0  0  0
   12.2932   14.7555   20.6877 C   0  0  0  0  0  0  0  0  0  0  0  0
   12.3937   14.7235   22.1094 N   0  0  0  0  0  0  0  0  0  0  0  0
   12.2031   15.7592   22.9564 C   0  0  0  0  0  0  0  0  0  0  0  0
   11.7462   15.3078   24.1006 N   0  0  0  0  0  0  0  0  0  0  0  0
   11.6567   13.9917   23.8183 C   0  0  0  0  0  0  0  0  0  0  0  0
   10.6127   13.2390   24.1150 N   0  0  0  0  0  0  0  0  0  0  0  0
    9.3737   13.5488   24.9308 C   0  0  0  0  0  0  0  0  0  0  0  0
    9.0927   14.4923   25.5462 O   0  0  0  0  0  0  0  0  0  0  0  0
    8.5620   12.3521   24.7679 C   0  0  0  0  0  0  0  0  0  0  0  0
    8.9908   11.3878   23.9237 N   0  0  0  0  0  0  0  0  0  0  0  0
    8.2464   10.3286   24.2309 N   0  0  0  0  0  0  0  0  0  0  0  0
    8.6744    9.0433   23.7314 C   0  0  0  0  0  0  0  0  0  0  0  0
    7.2691   10.6207   25.1491 C   0  0  0  0  0  0  0  0  0  0  0  0
    6.2950    9.8452   25.7619 C   0  0  0  0  0  0  0  0  0  0  0  0
    5.5263   10.4307   26.7694 C   0  0  0  0  0  0  0  0  0  0  0  0
    5.6515   11.7779   27.0678 C   0  0  0  0  0  0  0  0  0  0  0  0
    4.8779   12.3094   28.0236 F   0  0  0  0  0  0  0  0  0  0  0  0
    6.5880   12.5738   26.4255 C   0  0  0  0  0  0  0  0  0  0  0  0
    7.4227   11.9657   25.4752 C   0  0  0  0  0  0  0  0  0  0  0  0
   12.3591   13.5788   22.7734 N   0  0  0  0  0  0  0  0  0  0  0  0
  1  2  1  0
  2  3  1  0
  2  4  1  0
  4  5  1  0
  5  6  1  0
  6  7  1  0
  7  8  2  0
  8  9  1  0
  9 10  1  0
 10 11  1  0
 11 12  2  0
 11 13  1  0
 13 14  2  0
 14 15  1  0
 15 16  1  0
 15 17  1  0
 17 18  2  0
 18 19  1  0
 19 20  2  0
 20 21  1  0
 20 22  1  0
 22 23  2  0
  9 24  2  0
 24  6  1  0
 23 13  1  0
 23 17  1  0
M  END
>  <energy_score>  (3781) 
-24.606629

>  <inchikey>  (3781) 
CUKCWYGWPWXVTR-UHFFFAOYSA-N

>  <smiles>  (3781) 
CN(C)CCn1cnc(NC(=O)c2nn(C)c3ccc(F)cc23)n1

>  <ref_pdb>  (3781) 
A0514a

>  <alias>  (3781) 
CUKCWYGWPWXVTR-UHFFFAOYSA-N-P141-P141-P180-601502

>  <HIPPO Pose ID>  (3781) 
503568

>  <name>  (3781) 
CUKCWYGWPWXVTR-UHFFFAOYSA-N-P141-P141-P180-601502

>  <HIPPO Compound ID>  (3781) 
299812

>  <ref_mols>  (3781) 
A3417a,A3176a

>  <distance_score>  (3781) 
1.872304

>  <inspiration_score>  (3781) 
None

$$$$
OGUVBYNAJBMCLL-UHFFFAOYSA-N-P141-P141-P180-601502
     RDKit          3D

 24 27  0  0  0  0  0  0  0  0999 V2000
    9.1170    9.1486   23.2344 C   0  0  0  0  0  0  0  0  0  0  0  0
    8.6612   10.4025   23.7920 N   0  0  0  0  0  0  0  0  0  0  0  0
    9.2602   11.5369   23.3959 N   0  0  0  0  0  0  0  0  0  0  0  0
    8.6852   12.4948   24.1512 C   0  0  0  0  0  0  0  0  0  0  0  0
    9.1801   13.8718   24.1277 C   0  0  0  0  0  0  0  0  0  0  0  0
    8.8264   14.6708   24.8944 O   0  0  0  0  0  0  0  0  0  0  0  0
   10.2407   13.9507   23.0349 N   0  0  0  0  0  0  0  0  0  0  0  0
   11.1494   14.9799   22.7118 C   0  0  0  0  0  0  0  0  0  0  0  0
   11.3343   15.1672   21.2306 C   0  0  0  0  0  0  0  0  0  0  0  0
   10.3283   16.0241   20.5301 N   0  0  0  0  0  0  0  0  0  0  0  0
   10.2286   16.3110   19.1896 C   0  0  0  0  0  0  0  0  0  0  0  0
    9.4982   17.3891   19.0215 N   0  0  0  0  0  0  0  0  0  0  0  0
    9.0274   17.6054   20.2725 C   0  0  0  0  0  0  0  0  0  0  0  0
    9.3833   16.6958   21.1792 N   0  0  0  0  0  0  0  0  0  0  0  0
   12.7990   15.6389   21.1281 C   0  0  0  0  0  0  0  0  0  0  0  0
   12.8516   14.9020   19.7796 C   0  0  0  0  0  0  0  0  0  0  0  0
   11.7739   14.0234   20.3344 C   0  0  0  0  0  0  0  0  0  0  0  0
    7.6712   11.9773   24.9820 C   0  0  0  0  0  0  0  0  0  0  0  0
    6.7762   12.5160   25.9251 C   0  0  0  0  0  0  0  0  0  0  0  0
    5.9171   11.6493   26.5882 C   0  0  0  0  0  0  0  0  0  0  0  0
    5.0675   12.1322   27.5048 F   0  0  0  0  0  0  0  0  0  0  0  0
    5.9328   10.2871   26.3333 C   0  0  0  0  0  0  0  0  0  0  0  0
    6.8043    9.7483   25.3834 C   0  0  0  0  0  0  0  0  0  0  0  0
    7.6801   10.6104   24.7300 C   0  0  0  0  0  0  0  0  0  0  0  0
  1  2  1  0
  2  3  1  0
  3  4  2  0
  4  5  1  0
  5  6  2  0
  5  7  1  0
  7  8  1  0
  8  9  1  0
  9 10  1  0
 10 11  1  0
 11 12  2  0
 12 13  1  0
 13 14  2  0
  9 15  1  0
 15 16  1  0
 16 17  1  0
  4 18  1  0
 18 19  2  0
 19 20  1  0
 20 21  1  0
 20 22  2  0
 22 23  1  0
 23 24  2  0
 24  2  1  0
 17  9  1  0
 24 18  1  0
 14 10  1  0
M  END
>  <energy_score>  (3782) 
-7.869021

>  <inchikey>  (3782) 
OGUVBYNAJBMCLL-UHFFFAOYSA-N

>  <smiles>  (3782) 
Cn1nc(C(=O)NCC2(n3cncn3)CCC2)c2cc(F)ccc21

>  <ref_pdb>  (3782) 
A0514a

>  <alias>  (3782) 
OGUVBYNAJBMCLL-UHFFFAOYSA-N-P141-P141-P180-601502

>  <HIPPO Pose ID>  (3782) 
503570

>  <name>  (3782) 
OGUVBYNAJBMCLL-UHFFFAOYSA-N-P141-P141-P180-601502

>  <HIPPO Compound ID>  (3782) 
299813

>  <ref_mols>  (3782) 
A3417a,A3176a

>  <distance_score>  (3782) 
1.034165

>  <inspiration_score>  (3782) 
None

$$$$
OGUVBYNAJBMCLL-UHFFFAOYSA-N-P180-P141-P180-601502
     RDKit          3D

 24 27  0  0  0  0  0  0  0  0999 V2000
    9.2859    9.7650   24.3133 C   0  0  0  0  0  0  0  0  0  0  0  0
    8.7557   11.0608   24.6763 N   0  0  0  0  0  0  0  0  0  0  0  0
    9.4427   12.1474   24.3067 N   0  0  0  0  0  0  0  0  0  0  0  0
    8.7733   13.1742   24.8852 C   0  0  0  0  0  0  0  0  0  0  0  0
    9.2208   14.5540   24.7066 C   0  0  0  0  0  0  0  0  0  0  0  0
    8.6612   15.4876   25.1073 O   0  0  0  0  0  0  0  0  0  0  0  0
   10.4555   14.4463   23.8349 N   0  0  0  0  0  0  0  0  0  0  0  0
   11.2172   15.4499   23.1886 C   0  0  0  0  0  0  0  0  0  0  0  0
   11.0382   15.2250   21.6970 C   0  0  0  0  0  0  0  0  0  0  0  0
   10.0096   16.0572   21.0509 N   0  0  0  0  0  0  0  0  0  0  0  0
    9.9685   16.4618   19.7516 C   0  0  0  0  0  0  0  0  0  0  0  0
    9.2829   17.5784   19.6859 N   0  0  0  0  0  0  0  0  0  0  0  0
    8.7262   17.6445   20.9214 C   0  0  0  0  0  0  0  0  0  0  0  0
    9.0063   16.6125   21.7180 N   0  0  0  0  0  0  0  0  0  0  0  0
   12.3934   15.2886   21.0133 C   0  0  0  0  0  0  0  0  0  0  0  0
   11.9480   14.1468   20.0856 C   0  0  0  0  0  0  0  0  0  0  0  0
   10.9289   13.7913   21.1846 C   0  0  0  0  0  0  0  0  0  0  0  0
    7.6461   12.7401   25.5925 C   0  0  0  0  0  0  0  0  0  0  0  0
    6.6408   13.3686   26.3468 C   0  0  0  0  0  0  0  0  0  0  0  0
    5.6934   12.5755   26.9758 C   0  0  0  0  0  0  0  0  0  0  0  0
    4.7498   13.1457   27.7361 F   0  0  0  0  0  0  0  0  0  0  0  0
    5.7150   11.2016   26.8457 C   0  0  0  0  0  0  0  0  0  0  0  0
    6.6756   10.5864   26.0438 C   0  0  0  0  0  0  0  0  0  0  0  0
    7.6572   11.3608   25.4424 C   0  0  0  0  0  0  0  0  0  0  0  0
  1  2  1  0
  2  3  1  0
  3  4  2  0
  4  5  1  0
  5  6  2  0
  5  7  1  0
  7  8  1  0
  8  9  1  0
  9 10  1  0
 10 11  1  0
 11 12  2  0
 12 13  1  0
 13 14  2  0
  9 15  1  0
 15 16  1  0
 16 17  1  0
  4 18  1  0
 18 19  2  0
 19 20  1  0
 20 21  1  0
 20 22  2  0
 22 23  1  0
 23 24  2  0
 24  2  1  0
 17  9  1  0
 24 18  1  0
 14 10  1  0
M  END
>  <energy_score>  (3783) 
-9.8745

>  <inchikey>  (3783) 
OGUVBYNAJBMCLL-UHFFFAOYSA-N

>  <smiles>  (3783) 
Cn1nc(C(=O)NCC2(n3cncn3)CCC2)c2cc(F)ccc21

>  <ref_pdb>  (3783) 
A0514a

>  <alias>  (3783) 
OGUVBYNAJBMCLL-UHFFFAOYSA-N-P180-P141-P180-601502

>  <HIPPO Pose ID>  (3783) 
503571

>  <name>  (3783) 
OGUVBYNAJBMCLL-UHFFFAOYSA-N-P180-P141-P180-601502

>  <HIPPO Compound ID>  (3783) 
299813

>  <ref_mols>  (3783) 
A3417a,A3176a

>  <distance_score>  (3783) 
1.545504

>  <inspiration_score>  (3783) 
None

$$$$
WFIBCPWSXSASKQ-UHFFFAOYSA-N-P141-P141-P180-601502
     RDKit          3D

 25 28  0  0  0  0  0  0  0  0999 V2000
    8.5486   18.8398   18.8655 C   0  0  0  0  0  0  0  0  0  0  0  0
    9.4595   17.7238   18.3920 C   0  0  0  0  0  0  0  0  0  0  0  0
    9.8885   16.8052   19.4602 C   0  0  0  0  0  0  0  0  0  0  0  0
   10.5437   17.2682   20.5610 N   0  0  0  0  0  0  0  0  0  0  0  0
   11.2708   16.2384   20.9223 C   0  0  0  0  0  0  0  0  0  0  0  0
   10.7344   15.1569   20.3327 N   0  0  0  0  0  0  0  0  0  0  0  0
    9.8864   15.4723   19.3622 N   0  0  0  0  0  0  0  0  0  0  0  0
   10.5637   14.0440   21.2015 C   0  0  0  0  0  0  0  0  0  0  0  0
   10.4483   14.5690   22.6259 C   0  0  1  0  0  0  0  0  0  0  0  0
    9.8683   13.5636   23.3980 N   0  0  0  0  0  0  0  0  0  0  0  0
    9.0811   13.6433   24.6848 C   0  0  0  0  0  0  0  0  0  0  0  0
    8.8438   14.5494   25.3666 O   0  0  0  0  0  0  0  0  0  0  0  0
    8.5831   12.2915   24.8367 C   0  0  0  0  0  0  0  0  0  0  0  0
    9.0702   11.3185   24.0337 N   0  0  0  0  0  0  0  0  0  0  0  0
    8.3293   10.2549   24.3267 N   0  0  0  0  0  0  0  0  0  0  0  0
    8.7205    8.9908   23.7543 C   0  0  0  0  0  0  0  0  0  0  0  0
    7.3357   10.5332   25.2298 C   0  0  0  0  0  0  0  0  0  0  0  0
    6.3171    9.7683   25.7744 C   0  0  0  0  0  0  0  0  0  0  0  0
    5.5225   10.3400   26.7698 C   0  0  0  0  0  0  0  0  0  0  0  0
    5.6458   11.6803   27.0951 C   0  0  0  0  0  0  0  0  0  0  0  0
    4.8326   12.2059   28.0203 F   0  0  0  0  0  0  0  0  0  0  0  0
    6.6056   12.4778   26.4934 C   0  0  0  0  0  0  0  0  0  0  0  0
    7.4894   11.8669   25.5896 C   0  0  0  0  0  0  0  0  0  0  0  0
   11.8042   15.0811   23.0761 C   0  0  0  0  0  0  0  0  0  0  0  0
   12.2917   16.0520   21.9949 C   0  0  0  0  0  0  0  0  0  0  0  0
  1  2  1  0
  2  3  1  0
  3  4  1  0
  4  5  2  0
  5  6  1  0
  6  7  1  0
  6  8  1  0
  8  9  1  0
  9 10  1  1
 10 11  1  0
 11 12  2  0
 11 13  1  0
 13 14  2  0
 14 15  1  0
 15 16  1  0
 15 17  1  0
 17 18  2  0
 18 19  1  0
 19 20  2  0
 20 21  1  0
 20 22  1  0
 22 23  2  0
  9 24  1  0
 24 25  1  0
  7  3  2  0
 23 13  1  0
 25  5  1  0
 23 17  1  0
M  END
>  <energy_score>  (3784) 
-4.023873

>  <inchikey>  (3784) 
WFIBCPWSXSASKQ-UHFFFAOYSA-N

>  <smiles>  (3784) 
CCc1nc2n(n1)CC(NC(=O)c1nn(C)c3ccc(F)cc13)CC2

>  <ref_pdb>  (3784) 
A0514a

>  <alias>  (3784) 
WFIBCPWSXSASKQ-UHFFFAOYSA-N-P141-P141-P180-601502

>  <HIPPO Pose ID>  (3784) 
503572

>  <name>  (3784) 
WFIBCPWSXSASKQ-UHFFFAOYSA-N-P141-P141-P180-601502

>  <HIPPO Compound ID>  (3784) 
299814

>  <ref_mols>  (3784) 
A3417a,A3176a

>  <distance_score>  (3784) 
1.683903

>  <inspiration_score>  (3784) 
None

$$$$
WFIBCPWSXSASKQ-UHFFFAOYSA-N-P180-P141-P180-601502
     RDKit          3D

 25 28  0  0  0  0  0  0  0  0999 V2000
    7.9068   19.3943   19.3704 C   0  0  0  0  0  0  0  0  0  0  0  0
    8.2967   18.5234   20.5255 C   0  0  0  0  0  0  0  0  0  0  0  0
    9.2956   17.4675   20.3527 C   0  0  0  0  0  0  0  0  0  0  0  0
    9.5748   16.6960   19.2463 N   0  0  0  0  0  0  0  0  0  0  0  0
   10.4171   15.8071   19.7278 C   0  0  0  0  0  0  0  0  0  0  0  0
   10.6957   16.1551   21.0063 N   0  0  0  0  0  0  0  0  0  0  0  0
    9.8679   17.0359   21.4649 N   0  0  0  0  0  0  0  0  0  0  0  0
   11.8276   15.7757   21.7857 C   0  0  0  0  0  0  0  0  0  0  0  0
   11.9514   14.3133   21.5682 C   0  0  1  0  0  0  0  0  0  0  0  0
   10.9270   13.5685   22.2215 N   0  0  0  0  0  0  0  0  0  0  0  0
   10.0693   13.9144   23.4562 C   0  0  0  0  0  0  0  0  0  0  0  0
   10.0117   14.8941   24.0864 O   0  0  0  0  0  0  0  0  0  0  0  0
    9.3349   12.7224   23.8425 C   0  0  0  0  0  0  0  0  0  0  0  0
    9.7723   11.5282   23.4139 N   0  0  0  0  0  0  0  0  0  0  0  0
    9.1199   10.6625   24.1820 N   0  0  0  0  0  0  0  0  0  0  0  0
    9.6378    9.3242   24.2115 C   0  0  0  0  0  0  0  0  0  0  0  0
    8.1088   11.2235   24.9164 C   0  0  0  0  0  0  0  0  0  0  0  0
    7.1137   10.6926   25.7382 C   0  0  0  0  0  0  0  0  0  0  0  0
    6.2438   11.5665   26.3892 C   0  0  0  0  0  0  0  0  0  0  0  0
    6.3874   12.9339   26.2319 C   0  0  0  0  0  0  0  0  0  0  0  0
    5.5581   13.7552   26.8888 F   0  0  0  0  0  0  0  0  0  0  0  0
    7.3787   13.4729   25.4146 C   0  0  0  0  0  0  0  0  0  0  0  0
    8.2400   12.5958   24.7296 C   0  0  0  0  0  0  0  0  0  0  0  0
   12.1604   14.0969   20.0637 C   0  0  0  0  0  0  0  0  0  0  0  0
   11.0744   14.6452   19.1238 C   0  0  0  0  0  0  0  0  0  0  0  0
  1  2  1  0
  2  3  1  0
  3  4  1  0
  4  5  2  0
  5  6  1  0
  6  7  1  0
  6  8  1  0
  8  9  1  0
  9 10  1  6
 10 11  1  0
 11 12  2  0
 11 13  1  0
 13 14  2  0
 14 15  1  0
 15 16  1  0
 15 17  1  0
 17 18  2  0
 18 19  1  0
 19 20  2  0
 20 21  1  0
 20 22  1  0
 22 23  2  0
  9 24  1  0
 24 25  1  0
  7  3  2  0
 23 13  1  0
 25  5  1  0
 23 17  1  0
M  END
>  <energy_score>  (3785) 
-11.121679

>  <inchikey>  (3785) 
WFIBCPWSXSASKQ-UHFFFAOYSA-N

>  <smiles>  (3785) 
CCc1nc2n(n1)CC(NC(=O)c1nn(C)c3ccc(F)cc13)CC2

>  <ref_pdb>  (3785) 
A0514a

>  <alias>  (3785) 
WFIBCPWSXSASKQ-UHFFFAOYSA-N-P180-P141-P180-601502

>  <HIPPO Pose ID>  (3785) 
503573

>  <name>  (3785) 
WFIBCPWSXSASKQ-UHFFFAOYSA-N-P180-P141-P180-601502

>  <HIPPO Compound ID>  (3785) 
299814

>  <ref_mols>  (3785) 
A3417a,A3176a

>  <distance_score>  (3785) 
1.675861

>  <inspiration_score>  (3785) 
None

$$$$
VFTTWDVHDNVEKD-UHFFFAOYSA-N-P141-P141-P180-601502
     RDKit          3D

 25 27  0  0  0  0  0  0  0  0999 V2000
    9.1181    9.0568   23.2338 C   0  0  0  0  0  0  0  0  0  0  0  0
    8.7992   10.3561   23.7782 N   0  0  0  0  0  0  0  0  0  0  0  0
    9.5199   11.4075   23.3651 N   0  0  0  0  0  0  0  0  0  0  0  0
    9.0210   12.4533   24.0545 C   0  0  0  0  0  0  0  0  0  0  0  0
    9.5966   13.7949   23.8686 C   0  0  0  0  0  0  0  0  0  0  0  0
    9.2920   14.7089   24.5219 O   0  0  0  0  0  0  0  0  0  0  0  0
   10.5694   13.6970   22.6887 N   0  0  0  0  0  0  0  0  0  0  0  0
   11.3046   14.7188   21.9981 C   0  0  0  0  0  0  0  0  0  0  0  0
   10.9908   14.7268   20.4896 C   0  0  1  0  0  0  0  0  0  0  0  0
   10.3217   15.9237   20.0379 N   0  0  0  0  0  0  0  0  0  0  0  0
   10.3645   16.5775   18.8463 C   0  0  0  0  0  0  0  0  0  0  0  0
    9.6278   17.6632   18.9136 N   0  0  0  0  0  0  0  0  0  0  0  0
    9.0956   17.5873   20.1590 C   0  0  0  0  0  0  0  0  0  0  0  0
    9.4015   16.4802   20.8361 N   0  0  0  0  0  0  0  0  0  0  0  0
   12.2861   14.4920   19.7865 C   0  0  0  0  0  0  0  0  0  0  0  0
   12.2394   14.6331   18.4529 F   0  0  0  0  0  0  0  0  0  0  0  0
   12.7548   13.2424   19.9880 F   0  0  0  0  0  0  0  0  0  0  0  0
   13.2063   15.3285   20.2916 F   0  0  0  0  0  0  0  0  0  0  0  0
    7.9509   12.0591   24.8939 C   0  0  0  0  0  0  0  0  0  0  0  0
    7.0757   12.7097   25.7841 C   0  0  0  0  0  0  0  0  0  0  0  0
    6.1360   11.9441   26.4692 C   0  0  0  0  0  0  0  0  0  0  0  0
    5.3174   12.5373   27.3485 F   0  0  0  0  0  0  0  0  0  0  0  0
    6.0438   10.5722   26.2833 C   0  0  0  0  0  0  0  0  0  0  0  0
    6.8824    9.9199   25.3771 C   0  0  0  0  0  0  0  0  0  0  0  0
    7.8370   10.6830   24.7007 C   0  0  0  0  0  0  0  0  0  0  0  0
  1  2  1  0
  2  3  1  0
  3  4  2  0
  4  5  1  0
  5  6  2  0
  5  7  1  0
  7  8  1  0
  9  8  1  1
  9 10  1  0
 10 11  1  0
 11 12  2  0
 12 13  1  0
 13 14  2  0
  9 15  1  0
 15 16  1  0
 15 17  1  0
 15 18  1  0
  4 19  1  0
 19 20  2  0
 20 21  1  0
 21 22  1  0
 21 23  2  0
 23 24  1  0
 24 25  2  0
 25  2  1  0
 14 10  1  0
 25 19  1  0
M  END
>  <energy_score>  (3786) 
-32.960919

>  <inchikey>  (3786) 
VFTTWDVHDNVEKD-UHFFFAOYSA-N

>  <smiles>  (3786) 
Cn1nc(C(=O)NCC(n2cncn2)C(F)(F)F)c2cc(F)ccc21

>  <ref_pdb>  (3786) 
A0514a

>  <alias>  (3786) 
VFTTWDVHDNVEKD-UHFFFAOYSA-N-P141-P141-P180-601502

>  <HIPPO Pose ID>  (3786) 
503576

>  <name>  (3786) 
VFTTWDVHDNVEKD-UHFFFAOYSA-N-P141-P141-P180-601502

>  <HIPPO Compound ID>  (3786) 
299816

>  <ref_mols>  (3786) 
A3417a,A3176a

>  <distance_score>  (3786) 
1.058025

>  <inspiration_score>  (3786) 
None

$$$$
VFTTWDVHDNVEKD-UHFFFAOYSA-N-P180-P141-P180-601502
     RDKit          3D

 25 27  0  0  0  0  0  0  0  0999 V2000
    8.9845    9.6362   24.5077 C   0  0  0  0  0  0  0  0  0  0  0  0
    8.4441   10.9423   24.7861 N   0  0  0  0  0  0  0  0  0  0  0  0
    9.1292   11.9770   24.3091 N   0  0  0  0  0  0  0  0  0  0  0  0
    8.5606   13.0445   24.9144 C   0  0  0  0  0  0  0  0  0  0  0  0
    9.1600   14.3537   24.7548 C   0  0  0  0  0  0  0  0  0  0  0  0
    8.7809   15.3392   25.2332 O   0  0  0  0  0  0  0  0  0  0  0  0
   10.3444   14.0933   23.8478 N   0  0  0  0  0  0  0  0  0  0  0  0
   11.2551   14.9812   23.2609 C   0  0  0  0  0  0  0  0  0  0  0  0
   11.4131   14.6971   21.7784 C   0  0  1  0  0  0  0  0  0  0  0  0
   10.3036   15.0793   20.9277 N   0  0  0  0  0  0  0  0  0  0  0  0
   10.3387   15.1360   19.5585 C   0  0  0  0  0  0  0  0  0  0  0  0
    9.7604   16.2496   19.1730 N   0  0  0  0  0  0  0  0  0  0  0  0
    9.2829   16.7730   20.3414 C   0  0  0  0  0  0  0  0  0  0  0  0
    9.4367   15.9841   21.4001 N   0  0  0  0  0  0  0  0  0  0  0  0
   12.5220   15.5915   21.4027 C   0  0  0  0  0  0  0  0  0  0  0  0
   12.9901   15.2244   20.2076 F   0  0  0  0  0  0  0  0  0  0  0  0
   13.4976   15.5454   22.3115 F   0  0  0  0  0  0  0  0  0  0  0  0
   12.1309   16.8664   21.4003 F   0  0  0  0  0  0  0  0  0  0  0  0
    7.4472   12.6990   25.6772 C   0  0  0  0  0  0  0  0  0  0  0  0
    6.5275   13.4074   26.4658 C   0  0  0  0  0  0  0  0  0  0  0  0
    5.5701   12.6899   27.1638 C   0  0  0  0  0  0  0  0  0  0  0  0
    4.7033   13.3366   27.9538 F   0  0  0  0  0  0  0  0  0  0  0  0
    5.5041   11.3146   27.0739 C   0  0  0  0  0  0  0  0  0  0  0  0
    6.3910   10.6188   26.2526 C   0  0  0  0  0  0  0  0  0  0  0  0
    7.3863   11.3150   25.5774 C   0  0  0  0  0  0  0  0  0  0  0  0
  1  2  1  0
  2  3  1  0
  3  4  2  0
  4  5  1  0
  5  6  2  0
  5  7  1  0
  7  8  1  0
  9  8  1  1
  9 10  1  0
 10 11  1  0
 11 12  2  0
 12 13  1  0
 13 14  2  0
  9 15  1  0
 15 16  1  0
 15 17  1  0
 15 18  1  0
  4 19  1  0
 19 20  2  0
 20 21  1  0
 21 22  1  0
 21 23  2  0
 23 24  1  0
 24 25  2  0
 25  2  1  0
 14 10  1  0
 25 19  1  0
M  END
>  <energy_score>  (3787) 
-17.010841

>  <inchikey>  (3787) 
VFTTWDVHDNVEKD-UHFFFAOYSA-N

>  <smiles>  (3787) 
Cn1nc(C(=O)NCC(n2cncn2)C(F)(F)F)c2cc(F)ccc21

>  <ref_pdb>  (3787) 
A0514a

>  <alias>  (3787) 
VFTTWDVHDNVEKD-UHFFFAOYSA-N-P180-P141-P180-601502

>  <HIPPO Pose ID>  (3787) 
503577

>  <name>  (3787) 
VFTTWDVHDNVEKD-UHFFFAOYSA-N-P180-P141-P180-601502

>  <HIPPO Compound ID>  (3787) 
299816

>  <ref_mols>  (3787) 
A3417a,A3176a

>  <distance_score>  (3787) 
1.330645

>  <inspiration_score>  (3787) 
None

$$$$
OISMTGZGLXVQDY-UHFFFAOYSA-N-P141-P141-P180-601502
     RDKit          3D

 25 27  0  0  0  0  0  0  0  0999 V2000
    8.9898   18.2700   20.6147 C   0  0  0  0  0  0  0  0  0  0  0  0
    8.7355   18.2071   19.2202 O   0  0  0  0  0  0  0  0  0  0  0  0
    9.4910   17.4252   18.3828 C   0  0  0  0  0  0  0  0  0  0  0  0
    9.3901   17.6733   17.1831 O   0  0  0  0  0  0  0  0  0  0  0  0
   10.3340   16.3282   18.9538 C   0  0  0  0  0  0  0  0  0  0  0  0
   11.3199   15.6958   18.2236 N   0  0  0  0  0  0  0  0  0  0  0  0
   11.8980   14.8839   19.0527 C   0  0  0  0  0  0  0  0  0  0  0  0
   11.3710   15.0615   20.2792 N   0  0  0  0  0  0  0  0  0  0  0  0
   12.1181   14.7760   21.4781 C   0  0  0  0  0  0  0  0  0  0  0  0
   11.4091   15.0308   22.7805 C   0  0  0  0  0  0  0  0  0  0  0  0
   10.5656   13.9530   23.1908 N   0  0  0  0  0  0  0  0  0  0  0  0
    9.5164   13.8796   24.2983 C   0  0  0  0  0  0  0  0  0  0  0  0
    9.2194   14.6591   25.1090 O   0  0  0  0  0  0  0  0  0  0  0  0
    8.9413   12.5250   24.2636 C   0  0  0  0  0  0  0  0  0  0  0  0
    9.4960   11.5572   23.5039 N   0  0  0  0  0  0  0  0  0  0  0  0
    8.7939   10.4515   23.8080 N   0  0  0  0  0  0  0  0  0  0  0  0
    9.1886    9.1935   23.2132 C   0  0  0  0  0  0  0  0  0  0  0  0
    7.7979   10.6763   24.7260 C   0  0  0  0  0  0  0  0  0  0  0  0
    6.8714    9.8302   25.3357 C   0  0  0  0  0  0  0  0  0  0  0  0
    5.9910   10.3842   26.2674 C   0  0  0  0  0  0  0  0  0  0  0  0
    6.0124   11.7438   26.5401 C   0  0  0  0  0  0  0  0  0  0  0  0
    5.1514   12.2412   27.4383 F   0  0  0  0  0  0  0  0  0  0  0  0
    6.9293   12.5910   25.9274 C   0  0  0  0  0  0  0  0  0  0  0  0
    7.8480   12.0367   25.0163 C   0  0  0  0  0  0  0  0  0  0  0  0
   10.3045   15.8754   20.2357 N   0  0  0  0  0  0  0  0  0  0  0  0
  1  2  1  0
  2  3  1  0
  3  4  2  0
  3  5  1  0
  5  6  1  0
  6  7  2  0
  7  8  1  0
  8  9  1  0
  9 10  1  0
 10 11  1  0
 11 12  1  0
 12 13  2  0
 12 14  1  0
 14 15  2  0
 15 16  1  0
 16 17  1  0
 16 18  1  0
 18 19  2  0
 19 20  1  0
 20 21  2  0
 21 22  1  0
 21 23  1  0
 23 24  2  0
  8 25  1  0
 25  5  2  0
 24 14  1  0
 24 18  1  0
M  END
>  <energy_score>  (3788) 
-16.331815

>  <inchikey>  (3788) 
OISMTGZGLXVQDY-UHFFFAOYSA-N

>  <smiles>  (3788) 
COC(=O)c1ncn(CCNC(=O)c2nn(C)c3ccc(F)cc23)n1

>  <ref_pdb>  (3788) 
A0514a

>  <alias>  (3788) 
OISMTGZGLXVQDY-UHFFFAOYSA-N-P141-P141-P180-601502

>  <HIPPO Pose ID>  (3788) 
503578

>  <name>  (3788) 
OISMTGZGLXVQDY-UHFFFAOYSA-N-P141-P141-P180-601502

>  <HIPPO Compound ID>  (3788) 
299818

>  <ref_mols>  (3788) 
A3417a,A3176a

>  <distance_score>  (3788) 
0.734377

>  <inspiration_score>  (3788) 
None

$$$$
OISMTGZGLXVQDY-UHFFFAOYSA-N-P180-P141-P180-601502
     RDKit          3D

 25 27  0  0  0  0  0  0  0  0999 V2000
    7.9174   19.6696   19.9605 C   0  0  0  0  0  0  0  0  0  0  0  0
    8.4231   18.7749   20.9448 O   0  0  0  0  0  0  0  0  0  0  0  0
    9.0240   17.7407   20.3260 C   0  0  0  0  0  0  0  0  0  0  0  0
    9.2669   17.7072   19.1312 O   0  0  0  0  0  0  0  0  0  0  0  0
    9.3916   16.6010   21.1213 C   0  0  0  0  0  0  0  0  0  0  0  0
    8.6946   15.3967   21.0736 N   0  0  0  0  0  0  0  0  0  0  0  0
    9.6562   14.5081   21.1442 C   0  0  0  0  0  0  0  0  0  0  0  0
   10.8404   15.1407   21.2624 N   0  0  0  0  0  0  0  0  0  0  0  0
   12.1158   14.6144   21.6515 C   0  0  0  0  0  0  0  0  0  0  0  0
   12.2133   14.7693   23.1578 C   0  0  0  0  0  0  0  0  0  0  0  0
   11.2882   13.8902   23.7852 N   0  0  0  0  0  0  0  0  0  0  0  0
   10.1459   14.1795   24.7533 C   0  0  0  0  0  0  0  0  0  0  0  0
    9.8195   15.1734   25.2584 O   0  0  0  0  0  0  0  0  0  0  0  0
    9.4174   12.9200   24.8721 C   0  0  0  0  0  0  0  0  0  0  0  0
    9.9340   11.7971   24.3273 N   0  0  0  0  0  0  0  0  0  0  0  0
    9.0417   10.8547   24.6332 N   0  0  0  0  0  0  0  0  0  0  0  0
    9.3689    9.5002   24.2763 C   0  0  0  0  0  0  0  0  0  0  0  0
    7.9634   11.3204   25.3404 C   0  0  0  0  0  0  0  0  0  0  0  0
    6.8452   10.7043   25.9004 C   0  0  0  0  0  0  0  0  0  0  0  0
    5.9233   11.4874   26.5954 C   0  0  0  0  0  0  0  0  0  0  0  0
    6.1012   12.8544   26.6940 C   0  0  0  0  0  0  0  0  0  0  0  0
    5.2017   13.5838   27.3673 F   0  0  0  0  0  0  0  0  0  0  0  0
    7.2107   13.4794   26.1384 C   0  0  0  0  0  0  0  0  0  0  0  0
    8.1653   12.6893   25.4739 C   0  0  0  0  0  0  0  0  0  0  0  0
   10.6975   16.4462   21.3514 N   0  0  0  0  0  0  0  0  0  0  0  0
  1  2  1  0
  2  3  1  0
  3  4  2  0
  3  5  1  0
  5  6  1  0
  6  7  2  0
  7  8  1  0
  8  9  1  0
  9 10  1  0
 10 11  1  0
 11 12  1  0
 12 13  2  0
 12 14  1  0
 14 15  2  0
 15 16  1  0
 16 17  1  0
 16 18  1  0
 18 19  2  0
 19 20  1  0
 20 21  2  0
 21 22  1  0
 21 23  1  0
 23 24  2  0
  8 25  1  0
 25  5  2  0
 24 14  1  0
 24 18  1  0
M  END
>  <energy_score>  (3789) 
-7.352783

>  <inchikey>  (3789) 
OISMTGZGLXVQDY-UHFFFAOYSA-N

>  <smiles>  (3789) 
COC(=O)c1ncn(CCNC(=O)c2nn(C)c3ccc(F)cc23)n1

>  <ref_pdb>  (3789) 
A0514a

>  <alias>  (3789) 
OISMTGZGLXVQDY-UHFFFAOYSA-N-P180-P141-P180-601502

>  <HIPPO Pose ID>  (3789) 
503579

>  <name>  (3789) 
OISMTGZGLXVQDY-UHFFFAOYSA-N-P180-P141-P180-601502

>  <HIPPO Compound ID>  (3789) 
299818

>  <ref_mols>  (3789) 
A3417a,A3176a

>  <distance_score>  (3789) 
1.340333

>  <inspiration_score>  (3789) 
None

$$$$
HQRPGGOUHRLWEG-UHFFFAOYSA-N-P141-P141-P180-601502
     RDKit          3D

 26 29  0  0  0  0  0  0  0  0999 V2000
    8.6146   18.9000   18.9300 C   0  0  0  0  0  0  0  0  0  0  0  0
    8.8320   18.0700   17.8018 O   0  0  0  0  0  0  0  0  0  0  0  0
   10.1205   17.4331   17.7967 C   0  0  0  0  0  0  0  0  0  0  0  0
   10.2888   16.2176   18.6276 C   0  0  0  0  0  0  0  0  0  0  0  0
   11.4751   15.5174   18.6937 N   0  0  0  0  0  0  0  0  0  0  0  0
   11.4012   14.9377   19.8647 C   0  0  0  0  0  0  0  0  0  0  0  0
   10.2242   15.2679   20.4478 N   0  0  0  0  0  0  0  0  0  0  0  0
    9.4405   15.9166   19.6117 N   0  0  0  0  0  0  0  0  0  0  0  0
   10.1537   15.7145   21.8066 C   0  0  0  0  0  0  0  0  0  0  0  0
   11.1589   15.0558   22.7183 C   0  0  1  0  0  0  0  0  0  0  0  0
   10.5246   13.8849   23.2257 N   0  0  0  0  0  0  0  0  0  0  0  0
    9.6050   13.6976   24.4286 C   0  0  0  0  0  0  0  0  0  0  0  0
    9.2743   14.4513   25.2493 O   0  0  0  0  0  0  0  0  0  0  0  0
    9.0570   12.3458   24.3653 C   0  0  0  0  0  0  0  0  0  0  0  0
    9.5975   11.4032   23.5713 N   0  0  0  0  0  0  0  0  0  0  0  0
    8.8530   10.3079   23.8152 N   0  0  0  0  0  0  0  0  0  0  0  0
    9.2032    9.0690   23.1577 C   0  0  0  0  0  0  0  0  0  0  0  0
    7.8441   10.5307   24.7214 C   0  0  0  0  0  0  0  0  0  0  0  0
    6.8782    9.6994   25.2818 C   0  0  0  0  0  0  0  0  0  0  0  0
    5.9877   10.2499   26.2070 C   0  0  0  0  0  0  0  0  0  0  0  0
    6.0293   11.6001   26.5135 C   0  0  0  0  0  0  0  0  0  0  0  0
    5.1536   12.0977   27.3969 F   0  0  0  0  0  0  0  0  0  0  0  0
    6.9860   12.4347   25.9508 C   0  0  0  0  0  0  0  0  0  0  0  0
    7.9248   11.8738   25.0635 C   0  0  0  0  0  0  0  0  0  0  0  0
   12.5196   14.8744   22.0896 C   0  0  0  0  0  0  0  0  0  0  0  0
   12.4810   14.3511   20.6551 C   0  0  0  0  0  0  0  0  0  0  0  0
  1  2  1  0
  2  3  1  0
  3  4  1  0
  4  5  1  0
  5  6  2  0
  6  7  1  0
  7  8  1  0
  7  9  1  0
  9 10  1  0
 10 11  1  6
 11 12  1  0
 12 13  2  0
 12 14  1  0
 14 15  2  0
 15 16  1  0
 16 17  1  0
 16 18  1  0
 18 19  2  0
 19 20  1  0
 20 21  2  0
 21 22  1  0
 21 23  1  0
 23 24  2  0
 10 25  1  0
 25 26  1  0
  8  4  2  0
 24 14  1  0
 26  6  1  0
 24 18  1  0
M  END
>  <energy_score>  (3790) 
-2.644476

>  <inchikey>  (3790) 
HQRPGGOUHRLWEG-UHFFFAOYSA-N

>  <smiles>  (3790) 
COCc1nc2n(n1)CC(NC(=O)c1nn(C)c3ccc(F)cc13)CC2

>  <ref_pdb>  (3790) 
A0514a

>  <alias>  (3790) 
HQRPGGOUHRLWEG-UHFFFAOYSA-N-P141-P141-P180-601502

>  <HIPPO Pose ID>  (3790) 
503592

>  <name>  (3790) 
HQRPGGOUHRLWEG-UHFFFAOYSA-N-P141-P141-P180-601502

>  <HIPPO Compound ID>  (3790) 
299825

>  <ref_mols>  (3790) 
A3417a,A3176a

>  <distance_score>  (3790) 
1.413485

>  <inspiration_score>  (3790) 
None

$$$$
UGXRHTOVWXZEJA-UHFFFAOYSA-N-P141-P141-P180-601502
     RDKit          3D

 26 29  0  0  0  0  0  0  0  0999 V2000
    8.9832   18.4987   18.4033 C   0  0  0  0  0  0  0  0  0  0  0  0
    8.3780   18.2781   19.6658 O   0  0  0  0  0  0  0  0  0  0  0  0
    8.7874   17.2427   20.4501 C   0  0  0  0  0  0  0  0  0  0  0  0
    8.1107   16.8190   21.3863 O   0  0  0  0  0  0  0  0  0  0  0  0
   10.0432   16.5787   20.1136 C   0  0  0  0  0  0  0  0  0  0  0  0
   10.2806   15.8448   18.9756 N   0  0  0  0  0  0  0  0  0  0  0  0
   11.2945   15.0784   19.3166 C   0  0  0  0  0  0  0  0  0  0  0  0
   11.5925   15.2953   20.6320 N   0  0  0  0  0  0  0  0  0  0  0  0
   11.7368   14.2149   21.6024 C   0  0  0  0  0  0  0  0  0  0  0  0
   11.9569   14.5956   23.0439 C   0  0  0  0  0  0  0  0  0  0  0  0
   10.9276   13.5485   23.4625 N   0  0  0  0  0  0  0  0  0  0  0  0
    9.8860   13.5765   24.5412 C   0  0  0  0  0  0  0  0  0  0  0  0
    9.5653   14.4454   25.2687 O   0  0  0  0  0  0  0  0  0  0  0  0
    9.1836   12.2806   24.5004 C   0  0  0  0  0  0  0  0  0  0  0  0
    9.6188   11.2727   23.7204 N   0  0  0  0  0  0  0  0  0  0  0  0
    8.7716   10.2662   23.9447 N   0  0  0  0  0  0  0  0  0  0  0  0
    9.0216    9.0150   23.2696 C   0  0  0  0  0  0  0  0  0  0  0  0
    7.7832   10.5849   24.8404 C   0  0  0  0  0  0  0  0  0  0  0  0
    6.7505    9.8422   25.4096 C   0  0  0  0  0  0  0  0  0  0  0  0
    5.9138   10.4789   26.3279 C   0  0  0  0  0  0  0  0  0  0  0  0
    6.0564   11.8313   26.5967 C   0  0  0  0  0  0  0  0  0  0  0  0
    5.2240   12.4139   27.4705 F   0  0  0  0  0  0  0  0  0  0  0  0
    7.0764   12.5798   26.0192 C   0  0  0  0  0  0  0  0  0  0  0  0
    7.9834   11.9260   25.1636 C   0  0  0  0  0  0  0  0  0  0  0  0
   10.3532   13.9657   22.1306 C   0  0  0  0  0  0  0  0  0  0  0  0
   10.9809   16.3989   21.0493 N   0  0  0  0  0  0  0  0  0  0  0  0
  1  2  1  0
  2  3  1  0
  3  4  2  0
  3  5  1  0
  5  6  1  0
  6  7  2  0
  7  8  1  0
  8  9  1  0
  9 10  1  0
 10 11  1  0
 11 12  1  0
 12 13  2  0
 12 14  1  0
 14 15  2  0
 15 16  1  0
 16 17  1  0
 16 18  1  0
 18 19  2  0
 19 20  1  0
 20 21  2  0
 21 22  1  0
 21 23  1  0
 23 24  2  0
 11 25  1  0
  8 26  1  0
 26  5  2  0
 25  9  1  0
 24 14  1  0
 24 18  1  0
M  END
>  <energy_score>  (3791) 
-7.73478

>  <inchikey>  (3791) 
UGXRHTOVWXZEJA-UHFFFAOYSA-N

>  <smiles>  (3791) 
COC(=O)c1ncn(C2CN(C(=O)c3nn(C)c4ccc(F)cc34)C2)n1

>  <ref_pdb>  (3791) 
A0514a

>  <alias>  (3791) 
UGXRHTOVWXZEJA-UHFFFAOYSA-N-P141-P141-P180-601502

>  <HIPPO Pose ID>  (3791) 
503610

>  <name>  (3791) 
UGXRHTOVWXZEJA-UHFFFAOYSA-N-P141-P141-P180-601502

>  <HIPPO Compound ID>  (3791) 
299834

>  <ref_mols>  (3791) 
A3417a,A3176a

>  <distance_score>  (3791) 
0.837418

>  <inspiration_score>  (3791) 
None

$$$$
UGXRHTOVWXZEJA-UHFFFAOYSA-N-P180-P141-P180-601502
     RDKit          3D

 26 29  0  0  0  0  0  0  0  0999 V2000
    9.0923   17.5809   20.8328 C   0  0  0  0  0  0  0  0  0  0  0  0
    9.3308   17.4304   19.4334 O   0  0  0  0  0  0  0  0  0  0  0  0
    9.5878   16.1773   18.9349 C   0  0  0  0  0  0  0  0  0  0  0  0
    8.9041   15.7048   18.0357 O   0  0  0  0  0  0  0  0  0  0  0  0
   10.7424   15.5097   19.4411 C   0  0  0  0  0  0  0  0  0  0  0  0
   11.3894   14.5156   18.7652 N   0  0  0  0  0  0  0  0  0  0  0  0
   12.1288   14.0079   19.7050 C   0  0  0  0  0  0  0  0  0  0  0  0
   11.9428   14.6737   20.8626 N   0  0  0  0  0  0  0  0  0  0  0  0
   11.8375   13.9840   22.1189 C   0  0  0  0  0  0  0  0  0  0  0  0
   11.9904   14.8264   23.3436 C   0  0  0  0  0  0  0  0  0  0  0  0
   10.9918   13.9193   23.9962 N   0  0  0  0  0  0  0  0  0  0  0  0
    9.9502   14.1979   25.0212 C   0  0  0  0  0  0  0  0  0  0  0  0
    9.6116   15.2138   25.5054 O   0  0  0  0  0  0  0  0  0  0  0  0
    9.3119   12.9059   25.2649 C   0  0  0  0  0  0  0  0  0  0  0  0
    9.8646   11.7639   24.8106 N   0  0  0  0  0  0  0  0  0  0  0  0
    8.9079   10.8536   24.9496 N   0  0  0  0  0  0  0  0  0  0  0  0
    9.1864    9.5315   24.4557 C   0  0  0  0  0  0  0  0  0  0  0  0
    7.7984   11.3245   25.6011 C   0  0  0  0  0  0  0  0  0  0  0  0
    6.6297   10.7244   26.0630 C   0  0  0  0  0  0  0  0  0  0  0  0
    5.6987   11.5117   26.7398 C   0  0  0  0  0  0  0  0  0  0  0  0
    5.8916   12.8734   26.8691 C   0  0  0  0  0  0  0  0  0  0  0  0
    4.9689   13.6072   27.5050 F   0  0  0  0  0  0  0  0  0  0  0  0
    7.0361   13.4884   26.3824 C   0  0  0  0  0  0  0  0  0  0  0  0
    8.0235   12.6848   25.7883 C   0  0  0  0  0  0  0  0  0  0  0  0
   10.4138   13.9806   22.5783 C   0  0  0  0  0  0  0  0  0  0  0  0
   11.2234   15.7581   20.6623 N   0  0  0  0  0  0  0  0  0  0  0  0
  1  2  1  0
  2  3  1  0
  3  4  2  0
  3  5  1  0
  5  6  1  0
  6  7  2  0
  7  8  1  0
  8  9  1  0
  9 10  1  0
 10 11  1  0
 11 12  1  0
 12 13  2  0
 12 14  1  0
 14 15  2  0
 15 16  1  0
 16 17  1  0
 16 18  1  0
 18 19  2  0
 19 20  1  0
 20 21  2  0
 21 22  1  0
 21 23  1  0
 23 24  2  0
 11 25  1  0
  8 26  1  0
 26  5  2  0
 25  9  1  0
 24 14  1  0
 24 18  1  0
M  END
>  <energy_score>  (3792) 
-9.604797

>  <inchikey>  (3792) 
UGXRHTOVWXZEJA-UHFFFAOYSA-N

>  <smiles>  (3792) 
COC(=O)c1ncn(C2CN(C(=O)c3nn(C)c4ccc(F)cc34)C2)n1

>  <ref_pdb>  (3792) 
A0514a

>  <alias>  (3792) 
UGXRHTOVWXZEJA-UHFFFAOYSA-N-P180-P141-P180-601502

>  <HIPPO Pose ID>  (3792) 
503611

>  <name>  (3792) 
UGXRHTOVWXZEJA-UHFFFAOYSA-N-P180-P141-P180-601502

>  <HIPPO Compound ID>  (3792) 
299834

>  <ref_mols>  (3792) 
A3417a,A3176a

>  <distance_score>  (3792) 
1.441339

>  <inspiration_score>  (3792) 
None

$$$$
UUHOGOIZMOFYNY-UHFFFAOYSA-N-P141-P141-P180-601502
     RDKit          3D

 26 29  0  0  0  0  0  0  0  0999 V2000
    9.2181    9.0883   23.1668 C   0  0  0  0  0  0  0  0  0  0  0  0
    8.9990   10.3973   23.7373 N   0  0  0  0  0  0  0  0  0  0  0  0
    9.8699   11.3753   23.4393 N   0  0  0  0  0  0  0  0  0  0  0  0
    9.4409   12.4442   24.1375 C   0  0  0  0  0  0  0  0  0  0  0  0
   10.2059   13.7135   24.1265 C   0  0  0  0  0  0  0  0  0  0  0  0
    9.9701   14.5738   24.8773 O   0  0  0  0  0  0  0  0  0  0  0  0
   11.1938   13.6602   22.9511 N   0  0  0  0  0  0  0  0  0  0  0  0
   12.0348   14.6853   22.3878 C   0  0  0  0  0  0  0  0  0  0  0  0
   11.8539   14.8080   20.8677 C   0  0  0  0  0  0  0  0  0  0  0  0
   10.5026   15.1925   20.5126 N   0  0  0  0  0  0  0  0  0  0  0  0
   10.0910   16.3205   19.8853 C   0  0  0  0  0  0  0  0  0  0  0  0
    8.9254   16.6703   20.3850 N   0  0  0  0  0  0  0  0  0  0  0  0
    8.5674   15.5801   21.1363 C   0  0  0  0  0  0  0  0  0  0  0  0
    7.3175   15.5084   21.9092 C   0  0  0  0  0  0  0  0  0  0  0  0
    6.2116   14.8631   21.4048 N   0  0  0  0  0  0  0  0  0  0  0  0
    5.2665   14.9543   22.3304 N   0  0  0  0  0  0  0  0  0  0  0  0
    5.8641   15.5784   23.3539 N   0  0  0  0  0  0  0  0  0  0  0  0
    7.1562   15.8833   23.1924 N   0  0  0  0  0  0  0  0  0  0  0  0
    9.4526   14.5784   21.0852 N   0  0  0  0  0  0  0  0  0  0  0  0
    8.2521   12.1365   24.8584 C   0  0  0  0  0  0  0  0  0  0  0  0
    7.3765   12.8431   25.7045 C   0  0  0  0  0  0  0  0  0  0  0  0
    6.3456   12.1450   26.3295 C   0  0  0  0  0  0  0  0  0  0  0  0
    5.5291   12.7958   27.1699 F   0  0  0  0  0  0  0  0  0  0  0  0
    6.1693   10.7813   26.1374 C   0  0  0  0  0  0  0  0  0  0  0  0
    7.0000   10.0728   25.2666 C   0  0  0  0  0  0  0  0  0  0  0  0
    8.0291   10.7780   24.6308 C   0  0  0  0  0  0  0  0  0  0  0  0
  1  2  1  0
  2  3  1  0
  3  4  2  0
  4  5  1  0
  5  6  2  0
  5  7  1  0
  7  8  1  0
  8  9  1  0
  9 10  1  0
 10 11  1  0
 11 12  2  0
 12 13  1  0
 13 14  1  0
 14 15  1  0
 15 16  2  0
 16 17  1  0
 17 18  1  0
 13 19  2  0
  4 20  1  0
 20 21  2  0
 21 22  1  0
 22 23  1  0
 22 24  2  0
 24 25  1  0
 25 26  2  0
 26  2  1  0
 19 10  1  0
 26 20  1  0
 18 14  2  0
M  END
>  <energy_score>  (3793) 
-25.533265

>  <inchikey>  (3793) 
UUHOGOIZMOFYNY-UHFFFAOYSA-N

>  <smiles>  (3793) 
Cn1nc(C(=O)NCCn2cnc(-c3nn[nH]n3)n2)c2cc(F)ccc21

>  <ref_pdb>  (3793) 
A0514a

>  <alias>  (3793) 
UUHOGOIZMOFYNY-UHFFFAOYSA-N-P141-P141-P180-601502

>  <HIPPO Pose ID>  (3793) 
503612

>  <name>  (3793) 
UUHOGOIZMOFYNY-UHFFFAOYSA-N-P141-P141-P180-601502

>  <HIPPO Compound ID>  (3793) 
299835

>  <ref_mols>  (3793) 
A3417a,A3176a

>  <distance_score>  (3793) 
1.159064

>  <inspiration_score>  (3793) 
None

$$$$
UUHOGOIZMOFYNY-UHFFFAOYSA-N-P180-P141-P180-601502
     RDKit          3D

 26 29  0  0  0  0  0  0  0  0999 V2000
    9.5488    9.5104   24.1234 C   0  0  0  0  0  0  0  0  0  0  0  0
    9.1909   10.8741   24.4188 N   0  0  0  0  0  0  0  0  0  0  0  0
   10.0185   11.8406   24.0042 N   0  0  0  0  0  0  0  0  0  0  0  0
    9.5029   12.9646   24.5490 C   0  0  0  0  0  0  0  0  0  0  0  0
   10.1844   14.2534   24.3795 C   0  0  0  0  0  0  0  0  0  0  0  0
    9.9236   15.1950   25.0098 O   0  0  0  0  0  0  0  0  0  0  0  0
   11.1904   14.0680   23.2449 N   0  0  0  0  0  0  0  0  0  0  0  0
   12.0240   15.0190   22.5771 C   0  0  0  0  0  0  0  0  0  0  0  0
   12.0488   14.7794   21.0739 C   0  0  0  0  0  0  0  0  0  0  0  0
   10.8810   15.2615   20.3851 N   0  0  0  0  0  0  0  0  0  0  0  0
   10.6341   15.2020   19.0535 C   0  0  0  0  0  0  0  0  0  0  0  0
    9.7883   16.1559   18.7397 N   0  0  0  0  0  0  0  0  0  0  0  0
    9.5488   16.7800   19.9446 C   0  0  0  0  0  0  0  0  0  0  0  0
    8.8538   18.0737   20.0357 C   0  0  0  0  0  0  0  0  0  0  0  0
    8.7960   18.7320   21.2152 N   0  0  0  0  0  0  0  0  0  0  0  0
    8.2031   19.8793   20.9623 N   0  0  0  0  0  0  0  0  0  0  0  0
    7.8273   19.8056   19.6957 N   0  0  0  0  0  0  0  0  0  0  0  0
    8.2865   18.7628   19.0217 N   0  0  0  0  0  0  0  0  0  0  0  0
   10.0988   16.1553   20.9854 N   0  0  0  0  0  0  0  0  0  0  0  0
    8.2933   12.7078   25.2368 C   0  0  0  0  0  0  0  0  0  0  0  0
    7.3424   13.4825   25.9276 C   0  0  0  0  0  0  0  0  0  0  0  0
    6.2684   12.8391   26.5350 C   0  0  0  0  0  0  0  0  0  0  0  0
    5.3698   13.5587   27.2196 F   0  0  0  0  0  0  0  0  0  0  0  0
    6.1241   11.4653   26.4727 C   0  0  0  0  0  0  0  0  0  0  0  0
    7.0553   10.6918   25.7796 C   0  0  0  0  0  0  0  0  0  0  0  0
    8.1295   11.3296   25.1578 C   0  0  0  0  0  0  0  0  0  0  0  0
  1  2  1  0
  2  3  1  0
  3  4  2  0
  4  5  1  0
  5  6  2  0
  5  7  1  0
  7  8  1  0
  8  9  1  0
  9 10  1  0
 10 11  1  0
 11 12  2  0
 12 13  1  0
 13 14  1  0
 14 15  1  0
 15 16  2  0
 16 17  1  0
 17 18  1  0
 13 19  2  0
  4 20  1  0
 20 21  2  0
 21 22  1  0
 22 23  1  0
 22 24  2  0
 24 25  1  0
 25 26  2  0
 26  2  1  0
 19 10  1  0
 26 20  1  0
 18 14  2  0
M  END
>  <energy_score>  (3794) 
-30.111434

>  <inchikey>  (3794) 
UUHOGOIZMOFYNY-UHFFFAOYSA-N

>  <smiles>  (3794) 
Cn1nc(C(=O)NCCn2cnc(-c3nn[nH]n3)n2)c2cc(F)ccc21

>  <ref_pdb>  (3794) 
A0514a

>  <alias>  (3794) 
UUHOGOIZMOFYNY-UHFFFAOYSA-N-P180-P141-P180-601502

>  <HIPPO Pose ID>  (3794) 
503613

>  <name>  (3794) 
UUHOGOIZMOFYNY-UHFFFAOYSA-N-P180-P141-P180-601502

>  <HIPPO Compound ID>  (3794) 
299835

>  <ref_mols>  (3794) 
A3417a,A3176a

>  <distance_score>  (3794) 
0.986557

>  <inspiration_score>  (3794) 
None

$$$$
ZSYQUYSXUNBJIZ-UHFFFAOYSA-N-P141-P141-P180-601502
     RDKit          3D

 27 30  0  0  0  0  0  0  0  0999 V2000
    8.9075    8.8883   23.5157 C   0  0  0  0  0  0  0  0  0  0  0  0
    8.4965   10.2293   23.8503 N   0  0  0  0  0  0  0  0  0  0  0  0
    9.1793   11.2433   23.3136 N   0  0  0  0  0  0  0  0  0  0  0  0
    8.7278   12.3301   23.9693 C   0  0  0  0  0  0  0  0  0  0  0  0
    9.5000   13.5691   23.9229 C   0  0  0  0  0  0  0  0  0  0  0  0
    9.1639   14.5583   24.4350 O   0  0  0  0  0  0  0  0  0  0  0  0
   10.7950   13.2234   23.1873 N   0  0  0  0  0  0  0  0  0  0  0  0
   11.9851   13.9805   23.0054 C   0  0  1  0  0  0  0  0  0  0  0  0
   11.7659   15.2968   22.2501 C   0  0  0  0  0  0  0  0  0  0  0  0
   11.3818   15.1506   20.8611 N   0  0  0  0  0  0  0  0  0  0  0  0
   12.0819   14.5477   19.8692 C   0  0  0  0  0  0  0  0  0  0  0  0
   11.5407   14.8075   18.7097 N   0  0  0  0  0  0  0  0  0  0  0  0
   10.5129   15.6463   19.0412 C   0  0  0  0  0  0  0  0  0  0  0  0
   10.3445   15.8402   20.3536 N   0  0  0  0  0  0  0  0  0  0  0  0
   12.5780   14.0598   24.4208 C   0  0  0  0  0  0  0  0  0  0  0  0
   12.1709   15.0173   25.3530 C   0  0  0  0  0  0  0  0  0  0  0  0
   12.6188   14.9887   26.6785 C   0  0  0  0  0  0  0  0  0  0  0  0
   13.5258   14.0215   27.0973 C   0  0  0  0  0  0  0  0  0  0  0  0
   13.9013   13.0209   26.2133 C   0  0  0  0  0  0  0  0  0  0  0  0
   13.3707   13.0118   24.9205 C   0  0  0  0  0  0  0  0  0  0  0  0
    7.6717   12.0157   24.8510 C   0  0  0  0  0  0  0  0  0  0  0  0
    6.8801   12.7295   25.7696 C   0  0  0  0  0  0  0  0  0  0  0  0
    5.9844   12.0189   26.5617 C   0  0  0  0  0  0  0  0  0  0  0  0
    5.2378   12.6723   27.4621 F   0  0  0  0  0  0  0  0  0  0  0  0
    5.8640   10.6411   26.4605 C   0  0  0  0  0  0  0  0  0  0  0  0
    6.6340    9.9266   25.5413 C   0  0  0  0  0  0  0  0  0  0  0  0
    7.5548   10.6307   24.7658 C   0  0  0  0  0  0  0  0  0  0  0  0
  1  2  1  0
  2  3  1  0
  3  4  2  0
  4  5  1  0
  5  6  2  0
  5  7  1  0
  7  8  1  0
  8  9  1  1
  9 10  1  0
 10 11  1  0
 11 12  2  0
 12 13  1  0
 13 14  2  0
  8 15  1  0
 15 16  2  0
 16 17  1  0
 17 18  2  0
 18 19  1  0
 19 20  2  0
  4 21  1  0
 21 22  2  0
 22 23  1  0
 23 24  1  0
 23 25  2  0
 25 26  1  0
 26 27  2  0
 27  2  1  0
 14 10  1  0
 20 15  1  0
 27 21  1  0
M  END
>  <energy_score>  (3795) 
-10.433306

>  <inchikey>  (3795) 
ZSYQUYSXUNBJIZ-UHFFFAOYSA-N

>  <smiles>  (3795) 
Cn1nc(C(=O)NC(Cn2cncn2)c2ccccc2)c2cc(F)ccc21

>  <ref_pdb>  (3795) 
A0514a

>  <alias>  (3795) 
ZSYQUYSXUNBJIZ-UHFFFAOYSA-N-P141-P141-P180-601502

>  <HIPPO Pose ID>  (3795) 
503620

>  <name>  (3795) 
ZSYQUYSXUNBJIZ-UHFFFAOYSA-N-P141-P141-P180-601502

>  <HIPPO Compound ID>  (3795) 
299839

>  <ref_mols>  (3795) 
A3417a,A3176a

>  <distance_score>  (3795) 
0.78349

>  <inspiration_score>  (3795) 
None

$$$$
KJNPOPMDDYZFBT-UHFFFAOYSA-N-P637-P178-P637-601502
     RDKit          3D

 19 20  0  0  0  0  0  0  0  0999 V2000
    9.9194   15.6989   20.0763 C   0  0  0  0  0  0  0  0  0  0  0  0
   10.3442   15.2012   21.3851 C   0  0  0  0  0  0  0  0  0  0  0  0
    9.7991   14.2703   22.1429 N   0  0  0  0  0  0  0  0  0  0  0  0
   10.8071   13.9725   23.0258 C   0  0  0  0  0  0  0  0  0  0  0  0
   10.7960   12.7461   23.8504 C   0  0  0  0  0  0  0  0  0  0  0  0
    9.9453   11.6241   23.2328 C   0  0  0  0  0  0  0  0  0  0  0  0
    8.6302   11.7588   23.7598 N   0  0  0  0  0  0  0  0  0  0  0  0
    7.8626   10.8828   24.7273 C   0  0  0  0  0  0  0  0  0  0  0  0
    8.1405    9.8635   25.1998 O   0  0  0  0  0  0  0  0  0  0  0  0
    6.5908   11.4968   25.2124 C   0  0  0  0  0  0  0  0  0  0  0  0
    5.7095   10.5763   25.8166 C   0  0  0  0  0  0  0  0  0  0  0  0
    4.6330   11.0046   26.5776 C   0  0  0  0  0  0  0  0  0  0  0  0
    4.4022   12.3639   26.7217 C   0  0  0  0  0  0  0  0  0  0  0  0
    5.2530   13.2916   26.1171 C   0  0  0  0  0  0  0  0  0  0  0  0
    6.3772   12.8886   25.3729 C   0  0  0  0  0  0  0  0  0  0  0  0
    7.2899   13.9899   24.8817 C   0  0  0  0  0  0  0  0  0  0  0  0
    7.3452   13.9641   23.4600 O   0  0  0  0  0  0  0  0  0  0  0  0
   11.8113   14.8996   22.9109 C   0  0  0  0  0  0  0  0  0  0  0  0
   11.5286   15.6927   21.8503 O   0  0  0  0  0  0  0  0  0  0  0  0
  1  2  1  0
  2  3  2  0
  3  4  1  0
  4  5  1  0
  5  6  1  0
  6  7  1  0
  7  8  1  0
  8  9  2  0
  8 10  1  0
 10 11  2  0
 11 12  1  0
 12 13  2  0
 13 14  1  0
 14 15  2  0
 15 16  1  0
 16 17  1  0
  4 18  2  0
 18 19  1  0
 19  2  1  0
 15 10  1  0
M  END
>  <energy_score>  (3796) 
-6.486242

>  <inchikey>  (3796) 
KJNPOPMDDYZFBT-UHFFFAOYSA-N

>  <smiles>  (3796) 
Cc1nc(CCNC(=O)c2ccccc2CO)co1

>  <ref_pdb>  (3796) 
A0514a

>  <alias>  (3796) 
KJNPOPMDDYZFBT-UHFFFAOYSA-N-P637-P178-P637-601502

>  <HIPPO Pose ID>  (3796) 
503634

>  <name>  (3796) 
KJNPOPMDDYZFBT-UHFFFAOYSA-N-P637-P178-P637-601502

>  <HIPPO Compound ID>  (3796) 
306227

>  <ref_mols>  (3796) 
A3408a,A5594a

>  <distance_score>  (3796) 
1.292322

>  <inspiration_score>  (3796) 
None

$$$$
LAOXWUGYUSSWHP-UHFFFAOYSA-N-P637-P178-P637-601502
     RDKit          3D

 19 20  0  0  0  0  0  0  0  0999 V2000
    9.8901   15.6437   19.9624 C   0  0  0  0  0  0  0  0  0  0  0  0
   10.3919   15.2544   21.2781 C   0  0  0  0  0  0  0  0  0  0  0  0
    9.9073   14.3766   22.1323 N   0  0  0  0  0  0  0  0  0  0  0  0
   10.9523   14.1901   23.0011 C   0  0  0  0  0  0  0  0  0  0  0  0
   10.9993   13.0547   23.9400 C   0  0  0  0  0  0  0  0  0  0  0  0
   10.0707   11.9297   23.5077 C   0  0  0  0  0  0  0  0  0  0  0  0
    8.8674   11.9487   24.2689 N   0  0  0  0  0  0  0  0  0  0  0  0
    7.8033   10.8794   24.4631 C   0  0  0  0  0  0  0  0  0  0  0  0
    7.7671    9.7801   24.0982 O   0  0  0  0  0  0  0  0  0  0  0  0
    6.6637   11.4080   25.2733 C   0  0  0  0  0  0  0  0  0  0  0  0
    6.0314   10.4400   26.0667 C   0  0  0  0  0  0  0  0  0  0  0  0
    5.0236   10.7888   26.9479 C   0  0  0  0  0  0  0  0  0  0  0  0
    4.6539   12.1215   27.0566 C   0  0  0  0  0  0  0  0  0  0  0  0
    5.2384   13.0929   26.2313 C   0  0  0  0  0  0  0  0  0  0  0  0
    4.5569   15.0683   26.5297 I   0  0  0  0  0  0  0  0  0  0  0  0
    6.2115   12.7494   25.2740 C   0  0  0  0  0  0  0  0  0  0  0  0
    6.6679   13.7621   24.2489 C   0  0  0  0  0  0  0  0  0  0  0  0
   11.9404   15.1021   22.7394 C   0  0  0  0  0  0  0  0  0  0  0  0
   11.5930   15.7936   21.6306 O   0  0  0  0  0  0  0  0  0  0  0  0
  1  2  1  0
  2  3  2  0
  3  4  1  0
  4  5  1  0
  5  6  1  0
  6  7  1  0
  7  8  1  0
  8  9  2  0
  8 10  1  0
 10 11  2  0
 11 12  1  0
 12 13  2  0
 13 14  1  0
 14 15  1  0
 14 16  2  0
 16 17  1  0
  4 18  2  0
 18 19  1  0
 19  2  1  0
 16 10  1  0
M  END
>  <energy_score>  (3797) 
-2.826281

>  <inchikey>  (3797) 
LAOXWUGYUSSWHP-UHFFFAOYSA-N

>  <smiles>  (3797) 
Cc1nc(CCNC(=O)c2cccc(I)c2C)co1

>  <ref_pdb>  (3797) 
A0514a

>  <alias>  (3797) 
LAOXWUGYUSSWHP-UHFFFAOYSA-N-P637-P178-P637-601502

>  <HIPPO Pose ID>  (3797) 
503637

>  <name>  (3797) 
LAOXWUGYUSSWHP-UHFFFAOYSA-N-P637-P178-P637-601502

>  <HIPPO Compound ID>  (3797) 
306230

>  <ref_mols>  (3797) 
A3408a,A5594a

>  <distance_score>  (3797) 
1.470694

>  <inspiration_score>  (3797) 
None

$$$$
BHNGZPIBBYHXFJ-UHFFFAOYSA-N-P637-P178-P637-601502
     RDKit          3D

 19 20  0  0  0  0  0  0  0  0999 V2000
    7.3320   14.2925   26.0446 C   0  0  0  0  0  0  0  0  0  0  0  0
    6.7584   12.8999   26.0906 C   0  0  0  0  0  0  0  0  0  0  0  0
    5.8478   12.4779   27.0637 C   0  0  0  0  0  0  0  0  0  0  0  0
    5.1123   13.7394   28.5694 I   0  0  0  0  0  0  0  0  0  0  0  0
    5.3606   11.1671   27.0539 C   0  0  0  0  0  0  0  0  0  0  0  0
    5.8081   10.2522   26.1021 C   0  0  0  0  0  0  0  0  0  0  0  0
    6.7199   10.6405   25.1312 C   0  0  0  0  0  0  0  0  0  0  0  0
    7.1124   11.9727   25.0887 C   0  0  0  0  0  0  0  0  0  0  0  0
    7.7178   12.5112   23.8536 C   0  0  0  0  0  0  0  0  0  0  0  0
    8.8140   12.2789   23.5463 O   0  0  0  0  0  0  0  0  0  0  0  0
    6.6773   13.4446   23.2093 N   0  0  0  0  0  0  0  0  0  0  0  0
    6.8001   14.3658   22.0994 C   0  0  1  0  0  0  0  0  0  0  0  0
    5.3932   14.8644   21.7712 C   0  0  0  0  0  0  0  0  0  0  0  0
    7.7448   15.5319   22.4474 C   0  0  0  0  0  0  0  0  0  0  0  0
    9.1587   15.1799   22.1688 C   0  0  0  0  0  0  0  0  0  0  0  0
   10.2508   15.0473   22.9935 C   0  0  0  0  0  0  0  0  0  0  0  0
   11.3181   14.7018   22.2239 O   0  0  0  0  0  0  0  0  0  0  0  0
   10.8050   14.6378   20.9672 C   0  0  0  0  0  0  0  0  0  0  0  0
    9.5267   14.9163   20.8746 N   0  0  0  0  0  0  0  0  0  0  0  0
  1  2  1  0
  2  3  2  0
  3  4  1  0
  3  5  1  0
  5  6  2  0
  6  7  1  0
  7  8  2  0
  8  9  1  0
  9 10  2  0
  9 11  1  0
 11 12  1  0
 12 13  1  1
 12 14  1  0
 14 15  1  0
 15 16  2  0
 16 17  1  0
 17 18  1  0
 18 19  2  0
  8  2  1  0
 19 15  1  0
M  END
>  <energy_score>  (3798) 
-9.25528

>  <inchikey>  (3798) 
BHNGZPIBBYHXFJ-UHFFFAOYSA-N

>  <smiles>  (3798) 
Cc1c(I)cccc1C(=O)NC(C)Cc1cocn1

>  <ref_pdb>  (3798) 
A0514a

>  <alias>  (3798) 
BHNGZPIBBYHXFJ-UHFFFAOYSA-N-P637-P178-P637-601502

>  <HIPPO Pose ID>  (3798) 
503638

>  <name>  (3798) 
BHNGZPIBBYHXFJ-UHFFFAOYSA-N-P637-P178-P637-601502

>  <HIPPO Compound ID>  (3798) 
306231

>  <ref_mols>  (3798) 
A3408a,A5594a

>  <distance_score>  (3798) 
1.862583

>  <inspiration_score>  (3798) 
None

$$$$
PBDREPJUKDKSIL-UHFFFAOYSA-N-P637-P178-P637-601502
     RDKit          3D

 19 20  0  0  0  0  0  0  0  0999 V2000
   10.6158   15.5259   18.7272 C   0  0  0  0  0  0  0  0  0  0  0  0
   10.8348   15.4184   20.1747 C   0  0  0  0  0  0  0  0  0  0  0  0
   10.0233   14.9774   21.1122 N   0  0  0  0  0  0  0  0  0  0  0  0
   10.7933   15.0144   22.2479 C   0  0  0  0  0  0  0  0  0  0  0  0
   10.2579   14.5020   23.5182 C   0  0  0  0  0  0  0  0  0  0  0  0
   10.2274   12.9722   23.5225 C   0  0  0  0  0  0  0  0  0  0  0  0
    9.0589   12.5038   24.2167 N   0  0  0  0  0  0  0  0  0  0  0  0
    7.6986   12.4777   23.8303 C   0  0  0  0  0  0  0  0  0  0  0  0
    7.1747   12.7642   22.7976 O   0  0  0  0  0  0  0  0  0  0  0  0
    6.8215   12.1183   24.9649 C   0  0  0  0  0  0  0  0  0  0  0  0
    6.6111   10.7765   25.2872 C   0  0  0  0  0  0  0  0  0  0  0  0
    5.7252   10.4615   26.3151 C   0  0  0  0  0  0  0  0  0  0  0  0
    5.0965   11.4745   27.0394 C   0  0  0  0  0  0  0  0  0  0  0  0
    5.3377   12.8143   26.7323 C   0  0  0  0  0  0  0  0  0  0  0  0
    6.1966   13.1524   25.6801 C   0  0  0  0  0  0  0  0  0  0  0  0
    6.4672   14.5879   25.3297 C   0  0  0  0  0  0  0  0  0  0  0  0
    7.7528   14.9428   25.6155 F   0  0  0  0  0  0  0  0  0  0  0  0
   12.0318   15.5201   21.9531 C   0  0  0  0  0  0  0  0  0  0  0  0
   12.0736   15.7742   20.6229 O   0  0  0  0  0  0  0  0  0  0  0  0
  1  2  1  0
  2  3  2  0
  3  4  1  0
  4  5  1  0
  5  6  1  0
  6  7  1  0
  7  8  1  0
  8  9  2  0
  8 10  1  0
 10 11  2  0
 11 12  1  0
 12 13  2  0
 13 14  1  0
 14 15  2  0
 15 16  1  0
 16 17  1  0
  4 18  2  0
 18 19  1  0
 19  2  1  0
 15 10  1  0
M  END
>  <energy_score>  (3799) 
-17.009551

>  <inchikey>  (3799) 
PBDREPJUKDKSIL-UHFFFAOYSA-N

>  <smiles>  (3799) 
Cc1nc(CCNC(=O)c2ccccc2CF)co1

>  <ref_pdb>  (3799) 
A0514a

>  <alias>  (3799) 
PBDREPJUKDKSIL-UHFFFAOYSA-N-P637-P178-P637-601502

>  <HIPPO Pose ID>  (3799) 
503640

>  <name>  (3799) 
PBDREPJUKDKSIL-UHFFFAOYSA-N-P637-P178-P637-601502

>  <HIPPO Compound ID>  (3799) 
306233

>  <ref_mols>  (3799) 
A3408a,A5594a

>  <distance_score>  (3799) 
1.946462

>  <inspiration_score>  (3799) 
None

$$$$
KZMVVJAPHIHDFJ-UHFFFAOYSA-N-P637-P178-P637-601502
     RDKit          3D

 19 20  0  0  0  0  0  0  0  0999 V2000
    9.9386   15.6739   20.0034 C   0  0  0  0  0  0  0  0  0  0  0  0
   10.3384   15.2069   21.3298 C   0  0  0  0  0  0  0  0  0  0  0  0
    9.7940   14.2728   22.0818 N   0  0  0  0  0  0  0  0  0  0  0  0
   10.7744   14.0247   23.0090 C   0  0  0  0  0  0  0  0  0  0  0  0
   10.7604   12.8111   23.8472 C   0  0  0  0  0  0  0  0  0  0  0  0
    9.8762   11.7162   23.2410 C   0  0  0  0  0  0  0  0  0  0  0  0
    8.5639   11.8415   23.7941 N   0  0  0  0  0  0  0  0  0  0  0  0
    7.8284   10.9710   24.7976 C   0  0  0  0  0  0  0  0  0  0  0  0
    8.1330    9.9658   25.2853 O   0  0  0  0  0  0  0  0  0  0  0  0
    6.5552   11.5390   25.3215 C   0  0  0  0  0  0  0  0  0  0  0  0
    5.6726   10.5518   25.8108 C   0  0  0  0  0  0  0  0  0  0  0  0
    4.5639   10.8873   26.5648 C   0  0  0  0  0  0  0  0  0  0  0  0
    4.2828   12.2254   26.7837 C   0  0  0  0  0  0  0  0  0  0  0  0
    5.1345   13.2227   26.2928 C   0  0  0  0  0  0  0  0  0  0  0  0
    4.5763   15.0150   26.6364 Br  0  0  0  0  0  0  0  0  0  0  0  0
    6.3295   12.9075   25.6140 C   0  0  0  0  0  0  0  0  0  0  0  0
    7.3024   14.0111   25.2840 C   0  0  0  0  0  0  0  0  0  0  0  0
   11.7731   14.9573   22.8950 C   0  0  0  0  0  0  0  0  0  0  0  0
   11.5057   15.7239   21.8112 O   0  0  0  0  0  0  0  0  0  0  0  0
  1  2  1  0
  2  3  2  0
  3  4  1  0
  4  5  1  0
  5  6  1  0
  6  7  1  0
  7  8  1  0
  8  9  2  0
  8 10  1  0
 10 11  2  0
 11 12  1  0
 12 13  2  0
 13 14  1  0
 14 15  1  0
 14 16  2  0
 16 17  1  0
  4 18  2  0
 18 19  1  0
 19  2  1  0
 16 10  1  0
M  END
>  <energy_score>  (3800) 
-0.494151

>  <inchikey>  (3800) 
KZMVVJAPHIHDFJ-UHFFFAOYSA-N

>  <smiles>  (3800) 
Cc1nc(CCNC(=O)c2cccc(Br)c2C)co1

>  <ref_pdb>  (3800) 
A0514a

>  <alias>  (3800) 
KZMVVJAPHIHDFJ-UHFFFAOYSA-N-P637-P178-P637-601502

>  <HIPPO Pose ID>  (3800) 
503644

>  <name>  (3800) 
KZMVVJAPHIHDFJ-UHFFFAOYSA-N-P637-P178-P637-601502

>  <HIPPO Compound ID>  (3800) 
306237

>  <ref_mols>  (3800) 
A3408a,A5594a

>  <distance_score>  (3800) 
1.631218

>  <inspiration_score>  (3800) 
None

$$$$
QJXGJNXCMRTAMS-UHFFFAOYSA-N-P637-P178-P637-601502
     RDKit          3D

 19 20  0  0  0  0  0  0  0  0999 V2000
    6.2806   14.7693   24.5554 C   0  0  0  0  0  0  0  0  0  0  0  0
    5.8914   13.5208   25.2914 C   0  0  0  0  0  0  0  0  0  0  0  0
    4.6719   13.4568   25.9599 C   0  0  0  0  0  0  0  0  0  0  0  0
    4.3199   12.3116   26.6665 C   0  0  0  0  0  0  0  0  0  0  0  0
    5.1660   11.2057   26.6789 C   0  0  0  0  0  0  0  0  0  0  0  0
    4.6712    9.7491   27.7682 Br  0  0  0  0  0  0  0  0  0  0  0  0
    6.3764   11.2275   25.9933 C   0  0  0  0  0  0  0  0  0  0  0  0
    6.7462   12.4116   25.3433 C   0  0  0  0  0  0  0  0  0  0  0  0
    8.1260   12.6195   24.8685 C   0  0  0  0  0  0  0  0  0  0  0  0
    8.6951   13.5416   25.2872 O   0  0  0  0  0  0  0  0  0  0  0  0
    8.5794   11.5345   23.9012 N   0  0  0  0  0  0  0  0  0  0  0  0
    9.7987   11.3959   23.1630 C   0  0  0  0  0  0  0  0  0  0  0  0
   10.5861   12.7142   23.0796 C   0  0  0  0  0  0  0  0  0  0  0  0
    9.9384   13.8277   22.3385 C   0  0  0  0  0  0  0  0  0  0  0  0
    8.5891   13.8668   22.0633 N   0  0  0  0  0  0  0  0  0  0  0  0
    8.4412   15.0202   21.4566 C   0  0  0  0  0  0  0  0  0  0  0  0
    9.5812   15.7110   21.2260 O   0  0  0  0  0  0  0  0  0  0  0  0
   10.5442   14.9529   21.8183 C   0  0  0  0  0  0  0  0  0  0  0  0
   11.9149   15.4708   21.7537 C   0  0  0  0  0  0  0  0  0  0  0  0
  1  2  1  0
  2  3  2  0
  3  4  1  0
  4  5  2  0
  5  6  1  0
  5  7  1  0
  7  8  2  0
  8  9  1  0
  9 10  2  0
  9 11  1  0
 11 12  1  0
 12 13  1  0
 13 14  1  0
 14 15  1  0
 15 16  2  0
 16 17  1  0
 17 18  1  0
 18 19  1  0
  8  2  1  0
 18 14  2  0
M  END
>  <energy_score>  (3801) 
-0.963605

>  <inchikey>  (3801) 
QJXGJNXCMRTAMS-UHFFFAOYSA-N

>  <smiles>  (3801) 
Cc1ccc(Br)cc1C(=O)NCCc1ncoc1C

>  <ref_pdb>  (3801) 
A0514a

>  <alias>  (3801) 
QJXGJNXCMRTAMS-UHFFFAOYSA-N-P637-P178-P637-601502

>  <HIPPO Pose ID>  (3801) 
503648

>  <name>  (3801) 
QJXGJNXCMRTAMS-UHFFFAOYSA-N-P637-P178-P637-601502

>  <HIPPO Compound ID>  (3801) 
306241

>  <ref_mols>  (3801) 
A3408a,A5594a

>  <distance_score>  (3801) 
1.933384

>  <inspiration_score>  (3801) 
None

$$$$
IVEOHOYSSNJYOW-UHFFFAOYSA-N-P637-P178-P637-601502
     RDKit          3D

 19 20  0  0  0  0  0  0  0  0999 V2000
    6.4189   13.8324   24.7986 C   0  0  0  0  0  0  0  0  0  0  0  0
    5.9419   12.8329   25.8252 C   0  0  0  0  0  0  0  0  0  0  0  0
    5.0100   13.3029   26.7615 C   0  0  0  0  0  0  0  0  0  0  0  0
    4.3832   12.4277   27.6490 C   0  0  0  0  0  0  0  0  0  0  0  0
    2.9561   13.1566   28.9761 I   0  0  0  0  0  0  0  0  0  0  0  0
    4.6737   11.0711   27.6354 C   0  0  0  0  0  0  0  0  0  0  0  0
    5.6283   10.5956   26.7518 C   0  0  0  0  0  0  0  0  0  0  0  0
    6.2965   11.4662   25.8792 C   0  0  0  0  0  0  0  0  0  0  0  0
    7.2406   10.7972   24.9481 C   0  0  0  0  0  0  0  0  0  0  0  0
    7.0216    9.6975   24.6511 O   0  0  0  0  0  0  0  0  0  0  0  0
    8.3181   11.7567   24.4595 N   0  0  0  0  0  0  0  0  0  0  0  0
    9.3014   11.6055   23.4317 C   0  0  2  0  0  0  0  0  0  0  0  0
    9.7017   10.1596   23.1781 C   0  0  0  0  0  0  0  0  0  0  0  0
   10.4051   12.6675   23.5829 C   0  0  0  0  0  0  0  0  0  0  0  0
   10.1299   13.8832   22.7658 C   0  0  0  0  0  0  0  0  0  0  0  0
   10.9043   14.4402   21.7742 C   0  0  0  0  0  0  0  0  0  0  0  0
   10.2071   15.4682   21.2223 O   0  0  0  0  0  0  0  0  0  0  0  0
    9.0500   15.4977   21.9338 C   0  0  0  0  0  0  0  0  0  0  0  0
    8.9502   14.5850   22.8776 N   0  0  0  0  0  0  0  0  0  0  0  0
  1  2  1  0
  2  3  2  0
  3  4  1  0
  4  5  1  0
  4  6  2  0
  6  7  1  0
  7  8  2  0
  8  9  1  0
  9 10  2  0
  9 11  1  0
 11 12  1  0
 12 13  1  1
 12 14  1  0
 14 15  1  0
 15 16  2  0
 16 17  1  0
 17 18  1  0
 18 19  2  0
  8  2  1  0
 19 15  1  0
M  END
>  <energy_score>  (3802) 
-4.844833

>  <inchikey>  (3802) 
IVEOHOYSSNJYOW-UHFFFAOYSA-N

>  <smiles>  (3802) 
Cc1cc(I)ccc1C(=O)NC(C)Cc1cocn1

>  <ref_pdb>  (3802) 
A0514a

>  <alias>  (3802) 
IVEOHOYSSNJYOW-UHFFFAOYSA-N-P637-P178-P637-601502

>  <HIPPO Pose ID>  (3802) 
503654

>  <name>  (3802) 
IVEOHOYSSNJYOW-UHFFFAOYSA-N-P637-P178-P637-601502

>  <HIPPO Compound ID>  (3802) 
306247

>  <ref_mols>  (3802) 
A3408a,A5594a

>  <distance_score>  (3802) 
1.837106

>  <inspiration_score>  (3802) 
None

$$$$
VKTGFJVHSDPXTH-UHFFFAOYSA-N-P637-P178-P637-601502
     RDKit          3D

 19 20  0  0  0  0  0  0  0  0999 V2000
   10.0767   15.8259   19.1073 C   0  0  0  0  0  0  0  0  0  0  0  0
   10.4419   15.5554   20.4929 C   0  0  0  0  0  0  0  0  0  0  0  0
   10.0893   14.5561   21.2699 N   0  0  0  0  0  0  0  0  0  0  0  0
   11.1150   14.5281   22.1701 C   0  0  0  0  0  0  0  0  0  0  0  0
   11.4091   13.3409   22.9564 C   0  0  0  0  0  0  0  0  0  0  0  0
   11.0344   13.4964   24.3977 C   0  0  0  0  0  0  0  0  0  0  0  0
    9.6615   13.1876   24.6539 N   0  0  0  0  0  0  0  0  0  0  0  0
    8.7190   12.1914   23.9663 C   0  0  0  0  0  0  0  0  0  0  0  0
    8.8845   11.5187   23.0337 O   0  0  0  0  0  0  0  0  0  0  0  0
    7.4466   12.0447   24.7212 C   0  0  0  0  0  0  0  0  0  0  0  0
    7.0650   10.7342   25.0827 C   0  0  0  0  0  0  0  0  0  0  0  0
    7.8364    9.5495   24.5780 C   0  0  0  0  0  0  0  0  0  0  0  0
    5.9392   10.5470   25.8956 C   0  0  0  0  0  0  0  0  0  0  0  0
    5.2078   11.6423   26.3463 C   0  0  0  0  0  0  0  0  0  0  0  0
    5.5653   12.9306   25.9525 C   0  0  0  0  0  0  0  0  0  0  0  0
    6.6746   13.1340   25.1270 C   0  0  0  0  0  0  0  0  0  0  0  0
    7.0501   15.0822   24.4950 I   0  0  0  0  0  0  0  0  0  0  0  0
   11.9076   15.6356   22.0393 C   0  0  0  0  0  0  0  0  0  0  0  0
   11.4680   16.3184   20.9654 O   0  0  0  0  0  0  0  0  0  0  0  0
  1  2  1  0
  2  3  2  0
  3  4  1  0
  4  5  1  0
  5  6  1  0
  6  7  1  0
  7  8  1  0
  8  9  2  0
  8 10  1  0
 10 11  2  0
 11 12  1  0
 11 13  1  0
 13 14  2  0
 14 15  1  0
 15 16  2  0
 16 17  1  0
  4 18  2  0
 18 19  1  0
 19  2  1  0
 16 10  1  0
M  END
>  <energy_score>  (3803) 
-25.217451

>  <inchikey>  (3803) 
VKTGFJVHSDPXTH-UHFFFAOYSA-N

>  <smiles>  (3803) 
Cc1nc(CCNC(=O)c2c(C)cccc2I)co1

>  <ref_pdb>  (3803) 
A0514a

>  <alias>  (3803) 
VKTGFJVHSDPXTH-UHFFFAOYSA-N-P637-P178-P637-601502

>  <HIPPO Pose ID>  (3803) 
503657

>  <name>  (3803) 
VKTGFJVHSDPXTH-UHFFFAOYSA-N-P637-P178-P637-601502

>  <HIPPO Compound ID>  (3803) 
306250

>  <ref_mols>  (3803) 
A3408a,A5594a

>  <distance_score>  (3803) 
1.849502

>  <inspiration_score>  (3803) 
None

$$$$
OQIYNRAVIBDPTD-UHFFFAOYSA-N-P637-P178-P637-601502
     RDKit          3D

 19 20  0  0  0  0  0  0  0  0999 V2000
    6.9597   14.5084   25.2137 C   0  0  0  0  0  0  0  0  0  0  0  0
    6.8016   13.0258   25.3601 C   0  0  0  0  0  0  0  0  0  0  0  0
    5.8443   12.4871   26.2225 C   0  0  0  0  0  0  0  0  0  0  0  0
    5.6910   11.1055   26.3198 C   0  0  0  0  0  0  0  0  0  0  0  0
    6.5167   10.2524   25.5828 C   0  0  0  0  0  0  0  0  0  0  0  0
    7.4973   10.7697   24.7395 C   0  0  0  0  0  0  0  0  0  0  0  0
    8.7953    9.4838   23.7069 I   0  0  0  0  0  0  0  0  0  0  0  0
    7.6059   12.1520   24.6143 C   0  0  0  0  0  0  0  0  0  0  0  0
    8.5029   12.7456   23.6194 C   0  0  0  0  0  0  0  0  0  0  0  0
    8.0985   12.9374   22.5469 O   0  0  0  0  0  0  0  0  0  0  0  0
    9.8660   13.0711   24.2411 N   0  0  0  0  0  0  0  0  0  0  0  0
   10.9921   13.7890   23.7027 C   0  0  2  0  0  0  0  0  0  0  0  0
   12.1967   13.7588   24.6225 C   0  0  0  0  0  0  0  0  0  0  0  0
   10.5945   15.2402   23.4007 C   0  0  0  0  0  0  0  0  0  0  0  0
   10.5961   15.4368   21.9478 C   0  0  0  0  0  0  0  0  0  0  0  0
   11.6832   15.5146   21.1122 C   0  0  0  0  0  0  0  0  0  0  0  0
   11.2209   15.5503   19.8382 O   0  0  0  0  0  0  0  0  0  0  0  0
    9.8719   15.5122   19.9845 C   0  0  0  0  0  0  0  0  0  0  0  0
    9.4364   15.4536   21.2213 N   0  0  0  0  0  0  0  0  0  0  0  0
  1  2  1  0
  2  3  2  0
  3  4  1  0
  4  5  2  0
  5  6  1  0
  6  7  1  0
  6  8  2  0
  8  9  1  0
  9 10  2  0
  9 11  1  0
 11 12  1  0
 12 13  1  1
 12 14  1  0
 14 15  1  0
 15 16  2  0
 16 17  1  0
 17 18  1  0
 18 19  2  0
  8  2  1  0
 19 15  1  0
M  END
>  <energy_score>  (3804) 
-35.063742

>  <inchikey>  (3804) 
OQIYNRAVIBDPTD-UHFFFAOYSA-N

>  <smiles>  (3804) 
Cc1cccc(I)c1C(=O)NC(C)Cc1cocn1

>  <ref_pdb>  (3804) 
A0514a

>  <alias>  (3804) 
OQIYNRAVIBDPTD-UHFFFAOYSA-N-P637-P178-P637-601502

>  <HIPPO Pose ID>  (3804) 
503658

>  <name>  (3804) 
OQIYNRAVIBDPTD-UHFFFAOYSA-N-P637-P178-P637-601502

>  <HIPPO Compound ID>  (3804) 
306251

>  <ref_mols>  (3804) 
A3408a,A5594a

>  <distance_score>  (3804) 
1.873569

>  <inspiration_score>  (3804) 
None

$$$$
BWCBNWZPONGZGT-UHFFFAOYSA-N-P637-P178-P637-601502
     RDKit          3D

 19 20  0  0  0  0  0  0  0  0999 V2000
    6.8130   14.0404   23.9301 C   0  0  0  0  0  0  0  0  0  0  0  0
    6.4325   13.0112   24.9466 C   0  0  0  0  0  0  0  0  0  0  0  0
    5.3397   13.3177   25.7668 C   0  0  0  0  0  0  0  0  0  0  0  0
    4.8318   12.3785   26.6510 C   0  0  0  0  0  0  0  0  0  0  0  0
    5.3940   11.1087   26.7061 C   0  0  0  0  0  0  0  0  0  0  0  0
    4.5699    9.7856   28.0786 I   0  0  0  0  0  0  0  0  0  0  0  0
    6.4948   10.7853   25.9083 C   0  0  0  0  0  0  0  0  0  0  0  0
    7.0665   11.7650   25.0785 C   0  0  0  0  0  0  0  0  0  0  0  0
    8.3357   11.4279   24.3493 C   0  0  0  0  0  0  0  0  0  0  0  0
    8.4202   10.3852   23.8376 O   0  0  0  0  0  0  0  0  0  0  0  0
    9.3348   12.6028   24.3954 N   0  0  0  0  0  0  0  0  0  0  0  0
   10.6111   12.7760   23.7396 C   0  0  0  0  0  0  0  0  0  0  0  0
   11.0899   14.2218   23.7352 C   0  0  0  0  0  0  0  0  0  0  0  0
   10.3555   15.0127   22.7299 C   0  0  0  0  0  0  0  0  0  0  0  0
    9.1393   15.5813   23.0040 N   0  0  0  0  0  0  0  0  0  0  0  0
    8.7997   16.1408   21.8628 C   0  0  0  0  0  0  0  0  0  0  0  0
    9.6851   15.9718   20.8505 O   0  0  0  0  0  0  0  0  0  0  0  0
   10.6990   15.2706   21.4248 C   0  0  0  0  0  0  0  0  0  0  0  0
   11.8504   14.9611   20.5786 C   0  0  0  0  0  0  0  0  0  0  0  0
  1  2  1  0
  2  3  2  0
  3  4  1  0
  4  5  2  0
  5  6  1  0
  5  7  1  0
  7  8  2  0
  8  9  1  0
  9 10  2  0
  9 11  1  0
 11 12  1  0
 12 13  1  0
 13 14  1  0
 14 15  1  0
 15 16  2  0
 16 17  1  0
 17 18  1  0
 18 19  1  0
  8  2  1  0
 18 14  2  0
M  END
>  <energy_score>  (3805) 
-4.945477

>  <inchikey>  (3805) 
BWCBNWZPONGZGT-UHFFFAOYSA-N

>  <smiles>  (3805) 
Cc1ccc(I)cc1C(=O)NCCc1ncoc1C

>  <ref_pdb>  (3805) 
A0514a

>  <alias>  (3805) 
BWCBNWZPONGZGT-UHFFFAOYSA-N-P637-P178-P637-601502

>  <HIPPO Pose ID>  (3805) 
503662

>  <name>  (3805) 
BWCBNWZPONGZGT-UHFFFAOYSA-N-P637-P178-P637-601502

>  <HIPPO Compound ID>  (3805) 
306255

>  <ref_mols>  (3805) 
A3408a,A5594a

>  <distance_score>  (3805) 
1.476185

>  <inspiration_score>  (3805) 
None

$$$$
XMQBKDVBLVABMW-UHFFFAOYSA-N-P637-P178-P637-601502
     RDKit          3D

 19 20  0  0  0  0  0  0  0  0999 V2000
    7.0696   14.0619   24.3572 C   0  0  0  0  0  0  0  0  0  0  0  0
    6.7545   12.7679   25.0369 C   0  0  0  0  0  0  0  0  0  0  0  0
    5.6376   12.7344   25.8862 C   0  0  0  0  0  0  0  0  0  0  0  0
    5.1947   11.5305   26.4117 C   0  0  0  0  0  0  0  0  0  0  0  0
    4.1050   11.5127   27.1902 F   0  0  0  0  0  0  0  0  0  0  0  0
    5.8428   10.3449   26.1067 C   0  0  0  0  0  0  0  0  0  0  0  0
    6.9883   10.3697   25.3075 C   0  0  0  0  0  0  0  0  0  0  0  0
    7.4801   11.5853   24.8067 C   0  0  0  0  0  0  0  0  0  0  0  0
    8.7458   11.5332   24.0010 C   0  0  0  0  0  0  0  0  0  0  0  0
    8.8647   10.6780   23.2216 O   0  0  0  0  0  0  0  0  0  0  0  0
    9.7141   12.6588   24.4009 N   0  0  0  0  0  0  0  0  0  0  0  0
   10.9997   13.0272   23.8571 C   0  0  0  0  0  0  0  0  0  0  0  0
   11.2279   14.5317   23.8468 C   0  0  0  0  0  0  0  0  0  0  0  0
   10.4012   15.1711   22.8042 C   0  0  0  0  0  0  0  0  0  0  0  0
    9.1631   15.6933   23.0759 N   0  0  0  0  0  0  0  0  0  0  0  0
    8.7522   16.1256   21.9025 C   0  0  0  0  0  0  0  0  0  0  0  0
    9.6028   15.8967   20.8708 O   0  0  0  0  0  0  0  0  0  0  0  0
   10.6762   15.3092   21.4648 C   0  0  0  0  0  0  0  0  0  0  0  0
   11.8111   14.9720   20.6054 C   0  0  0  0  0  0  0  0  0  0  0  0
  1  2  1  0
  2  3  2  0
  3  4  1  0
  4  5  1  0
  4  6  2  0
  6  7  1  0
  7  8  2  0
  8  9  1  0
  9 10  2  0
  9 11  1  0
 11 12  1  0
 12 13  1  0
 13 14  1  0
 14 15  1  0
 15 16  2  0
 16 17  1  0
 17 18  1  0
 18 19  1  0
  8  2  1  0
 18 14  2  0
M  END
>  <energy_score>  (3806) 
-7.64121

>  <inchikey>  (3806) 
XMQBKDVBLVABMW-UHFFFAOYSA-N

>  <smiles>  (3806) 
Cc1cc(F)ccc1C(=O)NCCc1ncoc1C

>  <ref_pdb>  (3806) 
A0514a

>  <alias>  (3806) 
XMQBKDVBLVABMW-UHFFFAOYSA-N-P637-P178-P637-601502

>  <HIPPO Pose ID>  (3806) 
503665

>  <name>  (3806) 
XMQBKDVBLVABMW-UHFFFAOYSA-N-P637-P178-P637-601502

>  <HIPPO Compound ID>  (3806) 
306258

>  <ref_mols>  (3806) 
A3408a,A5594a

>  <distance_score>  (3806) 
1.211698

>  <inspiration_score>  (3806) 
None

$$$$
QEGIWGFSCGWTSA-UHFFFAOYSA-N-P637-P178-P637-601502
     RDKit          3D

 19 20  0  0  0  0  0  0  0  0999 V2000
    7.0383   14.3983   24.5995 C   0  0  0  0  0  0  0  0  0  0  0  0
    6.8809   12.9852   25.0726 C   0  0  0  0  0  0  0  0  0  0  0  0
    5.7829   12.6740   25.8867 C   0  0  0  0  0  0  0  0  0  0  0  0
    5.4918   11.3535   26.2021 C   0  0  0  0  0  0  0  0  0  0  0  0
    6.2790   10.3310   25.6817 C   0  0  0  0  0  0  0  0  0  0  0  0
    7.4153   10.6127   24.9081 C   0  0  0  0  0  0  0  0  0  0  0  0
    8.2081    9.4893   24.3010 C   0  0  0  0  0  0  0  0  0  0  0  0
    7.7463   11.9566   24.6524 C   0  0  0  0  0  0  0  0  0  0  0  0
    9.0281   12.2621   23.9355 C   0  0  0  0  0  0  0  0  0  0  0  0
    9.2662   11.7099   22.9413 O   0  0  0  0  0  0  0  0  0  0  0  0
    9.8471   13.2977   24.7196 N   0  0  0  0  0  0  0  0  0  0  0  0
   11.1725   13.8022   24.4956 C   0  0  0  0  0  0  0  0  0  0  0  0
   11.5025   14.0613   23.0482 C   0  0  0  0  0  0  0  0  0  0  0  0
   10.5622   14.9312   22.3208 C   0  0  0  0  0  0  0  0  0  0  0  0
    9.4027   15.4601   22.8317 N   0  0  0  0  0  0  0  0  0  0  0  0
    8.8948   16.1118   21.8073 C   0  0  0  0  0  0  0  0  0  0  0  0
    9.6286   16.0647   20.6663 O   0  0  0  0  0  0  0  0  0  0  0  0
   10.7109   15.3271   21.0174 C   0  0  0  0  0  0  0  0  0  0  0  0
   11.7592   15.1219   20.0211 C   0  0  0  0  0  0  0  0  0  0  0  0
  1  2  1  0
  2  3  2  0
  3  4  1  0
  4  5  2  0
  5  6  1  0
  6  7  1  0
  6  8  2  0
  8  9  1  0
  9 10  2  0
  9 11  1  0
 11 12  1  0
 12 13  1  0
 13 14  1  0
 14 15  1  0
 15 16  2  0
 16 17  1  0
 17 18  1  0
 18 19  1  0
  8  2  1  0
 18 14  2  0
M  END
>  <energy_score>  (3807) 
-9.438503

>  <inchikey>  (3807) 
QEGIWGFSCGWTSA-UHFFFAOYSA-N

>  <smiles>  (3807) 
Cc1cccc(C)c1C(=O)NCCc1ncoc1C

>  <ref_pdb>  (3807) 
A0514a

>  <alias>  (3807) 
QEGIWGFSCGWTSA-UHFFFAOYSA-N-P637-P178-P637-601502

>  <HIPPO Pose ID>  (3807) 
503668

>  <name>  (3807) 
QEGIWGFSCGWTSA-UHFFFAOYSA-N-P637-P178-P637-601502

>  <HIPPO Compound ID>  (3807) 
306261

>  <ref_mols>  (3807) 
A3408a,A5594a

>  <distance_score>  (3807) 
1.417992

>  <inspiration_score>  (3807) 
None

$$$$
OAMYKIXDYRQSQG-UHFFFAOYSA-N-P637-P178-P637-601502
     RDKit          3D

 19 20  0  0  0  0  0  0  0  0999 V2000
    9.9685   15.6505   20.0144 C   0  0  0  0  0  0  0  0  0  0  0  0
   10.3427   15.1439   21.3356 C   0  0  0  0  0  0  0  0  0  0  0  0
    9.7861   14.1883   22.0529 N   0  0  0  0  0  0  0  0  0  0  0  0
   10.7347   13.9367   23.0123 C   0  0  0  0  0  0  0  0  0  0  0  0
   10.6903   12.7315   23.8647 C   0  0  0  0  0  0  0  0  0  0  0  0
    9.7459   11.6546   23.3155 C   0  0  0  0  0  0  0  0  0  0  0  0
    8.4354   11.9343   23.8264 N   0  0  0  0  0  0  0  0  0  0  0  0
    7.6866   11.3365   25.0075 C   0  0  0  0  0  0  0  0  0  0  0  0
    7.9732   10.4662   25.7155 O   0  0  0  0  0  0  0  0  0  0  0  0
    6.4297   12.0508   25.3698 C   0  0  0  0  0  0  0  0  0  0  0  0
    5.3823   11.2943   25.9523 C   0  0  0  0  0  0  0  0  0  0  0  0
    5.3782    9.8001   26.0489 C   0  0  0  0  0  0  0  0  0  0  0  0
    4.3166   11.9489   26.5741 C   0  0  0  0  0  0  0  0  0  0  0  0
    4.2405   13.3296   26.5666 C   0  0  0  0  0  0  0  0  0  0  0  0
    5.2619   14.0778   25.9957 C   0  0  0  0  0  0  0  0  0  0  0  0
    6.3956   13.4645   25.4431 C   0  0  0  0  0  0  0  0  0  0  0  0
    7.5118   14.3921   25.0394 C   0  0  0  0  0  0  0  0  0  0  0  0
   11.7305   14.8777   22.9420 C   0  0  0  0  0  0  0  0  0  0  0  0
   11.4919   15.6590   21.8623 O   0  0  0  0  0  0  0  0  0  0  0  0
  1  2  1  0
  2  3  2  0
  3  4  1  0
  4  5  1  0
  5  6  1  0
  6  7  1  0
  7  8  1  0
  8  9  2  0
  8 10  1  0
 10 11  2  0
 11 12  1  0
 11 13  1  0
 13 14  2  0
 14 15  1  0
 15 16  2  0
 16 17  1  0
  4 18  2  0
 18 19  1  0
 19  2  1  0
 16 10  1  0
M  END
>  <energy_score>  (3808) 
-9.460664

>  <inchikey>  (3808) 
OAMYKIXDYRQSQG-UHFFFAOYSA-N

>  <smiles>  (3808) 
Cc1nc(CCNC(=O)c2c(C)cccc2C)co1

>  <ref_pdb>  (3808) 
A0514a

>  <alias>  (3808) 
OAMYKIXDYRQSQG-UHFFFAOYSA-N-P637-P178-P637-601502

>  <HIPPO Pose ID>  (3808) 
503669

>  <name>  (3808) 
OAMYKIXDYRQSQG-UHFFFAOYSA-N-P637-P178-P637-601502

>  <HIPPO Compound ID>  (3808) 
306262

>  <ref_mols>  (3808) 
A3408a,A5594a

>  <distance_score>  (3808) 
1.552809

>  <inspiration_score>  (3808) 
None

$$$$
SPMSOEPHPXNFEO-UHFFFAOYSA-N-P637-P178-P637-601502
     RDKit          3D

 19 20  0  0  0  0  0  0  0  0999 V2000
    5.2060    9.7205   26.2416 C   0  0  0  0  0  0  0  0  0  0  0  0
    5.3974   11.1981   26.1670 C   0  0  0  0  0  0  0  0  0  0  0  0
    4.4082   11.9655   26.8009 C   0  0  0  0  0  0  0  0  0  0  0  0
    4.4792   13.3486   26.8230 C   0  0  0  0  0  0  0  0  0  0  0  0
    5.5565   13.9897   26.2360 C   0  0  0  0  0  0  0  0  0  0  0  0
    6.5644   13.2405   25.6346 C   0  0  0  0  0  0  0  0  0  0  0  0
    7.6342   13.9488   25.1512 O   0  0  0  0  0  0  0  0  0  0  0  0
    6.5107   11.8315   25.5738 C   0  0  0  0  0  0  0  0  0  0  0  0
    7.6316   11.0056   24.9496 C   0  0  0  0  0  0  0  0  0  0  0  0
    7.7238    9.8797   25.2183 O   0  0  0  0  0  0  0  0  0  0  0  0
    8.5372   11.8993   24.1052 N   0  0  0  0  0  0  0  0  0  0  0  0
    9.6974   11.5822   23.3335 C   0  0  0  0  0  0  0  0  0  0  0  0
   10.5690   12.8384   23.2399 C   0  0  0  0  0  0  0  0  0  0  0  0
    9.9356   13.9705   22.5020 C   0  0  0  0  0  0  0  0  0  0  0  0
    8.5651   14.1316   22.4171 N   0  0  0  0  0  0  0  0  0  0  0  0
    8.4287   15.1978   21.6640 C   0  0  0  0  0  0  0  0  0  0  0  0
    9.5865   15.7654   21.2492 O   0  0  0  0  0  0  0  0  0  0  0  0
   10.5544   14.9908   21.8134 C   0  0  0  0  0  0  0  0  0  0  0  0
   11.9417   15.3812   21.5478 C   0  0  0  0  0  0  0  0  0  0  0  0
  1  2  1  0
  2  3  2  0
  3  4  1  0
  4  5  2  0
  5  6  1  0
  6  7  1  0
  6  8  2  0
  8  9  1  0
  9 10  2  0
  9 11  1  0
 11 12  1  0
 12 13  1  0
 13 14  1  0
 14 15  1  0
 15 16  2  0
 16 17  1  0
 17 18  1  0
 18 19  1  0
  8  2  1  0
 18 14  2  0
M  END
>  <energy_score>  (3809) 
-24.925266

>  <inchikey>  (3809) 
SPMSOEPHPXNFEO-UHFFFAOYSA-N

>  <smiles>  (3809) 
Cc1cccc(O)c1C(=O)NCCc1ncoc1C

>  <ref_pdb>  (3809) 
A0514a

>  <alias>  (3809) 
SPMSOEPHPXNFEO-UHFFFAOYSA-N-P637-P178-P637-601502

>  <HIPPO Pose ID>  (3809) 
503671

>  <name>  (3809) 
SPMSOEPHPXNFEO-UHFFFAOYSA-N-P637-P178-P637-601502

>  <HIPPO Compound ID>  (3809) 
306264

>  <ref_mols>  (3809) 
A3408a,A5594a

>  <distance_score>  (3809) 
1.78046

>  <inspiration_score>  (3809) 
None

$$$$
CMLKPUXNYGPJQF-UHFFFAOYSA-N-P637-P178-P637-601502
     RDKit          3D

 19 20  0  0  0  0  0  0  0  0999 V2000
    9.7875   15.4535   19.7631 C   0  0  0  0  0  0  0  0  0  0  0  0
   10.5578   15.2650   20.9806 C   0  0  0  0  0  0  0  0  0  0  0  0
   10.2613   14.6329   22.0977 N   0  0  0  0  0  0  0  0  0  0  0  0
   11.4272   14.7378   22.8173 C   0  0  0  0  0  0  0  0  0  0  0  0
   11.6087   14.1469   24.1513 C   0  0  0  0  0  0  0  0  0  0  0  0
   10.5416   14.6563   25.0933 C   0  0  0  0  0  0  0  0  0  0  0  0
    9.3453   13.8611   25.1491 N   0  0  0  0  0  0  0  0  0  0  0  0
    8.9277   12.6098   24.3307 C   0  0  0  0  0  0  0  0  0  0  0  0
    9.5225   11.9898   23.5422 O   0  0  0  0  0  0  0  0  0  0  0  0
    7.5648   12.1544   24.7678 C   0  0  0  0  0  0  0  0  0  0  0  0
    7.2724   10.7872   24.9391 C   0  0  0  0  0  0  0  0  0  0  0  0
    8.1373    9.7074   24.3561 C   0  0  0  0  0  0  0  0  0  0  0  0
    6.1097   10.4337   25.6461 C   0  0  0  0  0  0  0  0  0  0  0  0
    5.2476   11.4086   26.1488 C   0  0  0  0  0  0  0  0  0  0  0  0
    5.4945   12.7509   25.8905 C   0  0  0  0  0  0  0  0  0  0  0  0
    6.6314   13.1102   25.1804 C   0  0  0  0  0  0  0  0  0  0  0  0
    6.8179   14.4463   24.9468 O   0  0  0  0  0  0  0  0  0  0  0  0
   12.3243   15.5125   22.1325 C   0  0  0  0  0  0  0  0  0  0  0  0
   11.7830   15.8478   20.9496 O   0  0  0  0  0  0  0  0  0  0  0  0
  1  2  1  0
  2  3  2  0
  3  4  1  0
  4  5  1  0
  5  6  1  0
  6  7  1  0
  7  8  1  0
  8  9  2  0
  8 10  1  0
 10 11  2  0
 11 12  1  0
 11 13  1  0
 13 14  2  0
 14 15  1  0
 15 16  2  0
 16 17  1  0
  4 18  2  0
 18 19  1  0
 19  2  1  0
 16 10  1  0
M  END
>  <energy_score>  (3810) 
-9.633012

>  <inchikey>  (3810) 
CMLKPUXNYGPJQF-UHFFFAOYSA-N

>  <smiles>  (3810) 
Cc1nc(CCNC(=O)c2c(C)cccc2O)co1

>  <ref_pdb>  (3810) 
A0514a

>  <alias>  (3810) 
CMLKPUXNYGPJQF-UHFFFAOYSA-N-P637-P178-P637-601502

>  <HIPPO Pose ID>  (3810) 
503672

>  <name>  (3810) 
CMLKPUXNYGPJQF-UHFFFAOYSA-N-P637-P178-P637-601502

>  <HIPPO Compound ID>  (3810) 
306265

>  <ref_mols>  (3810) 
A3408a,A5594a

>  <distance_score>  (3810) 
1.740019

>  <inspiration_score>  (3810) 
None

$$$$
BITHTTCSOHQMIZ-UHFFFAOYSA-N-P637-P178-P637-601502
     RDKit          3D

 19 20  0  0  0  0  0  0  0  0999 V2000
   11.9036   15.1379   20.0549 C   0  0  0  0  0  0  0  0  0  0  0  0
   10.8279   15.2887   21.0289 C   0  0  0  0  0  0  0  0  0  0  0  0
    9.9310   16.2855   20.8279 O   0  0  0  0  0  0  0  0  0  0  0  0
    9.1008   16.1845   21.8955 C   0  0  0  0  0  0  0  0  0  0  0  0
    9.3958   15.2208   22.7437 N   0  0  0  0  0  0  0  0  0  0  0  0
   10.4767   14.6069   22.1642 C   0  0  0  0  0  0  0  0  0  0  0  0
   11.1206   13.3746   22.6579 C   0  0  0  0  0  0  0  0  0  0  0  0
   11.0394   13.1655   24.1484 C   0  0  0  0  0  0  0  0  0  0  0  0
    9.7370   12.7169   24.5665 N   0  0  0  0  0  0  0  0  0  0  0  0
    8.8880   11.5153   24.0901 C   0  0  0  0  0  0  0  0  0  0  0  0
    9.1436   10.6600   23.3419 O   0  0  0  0  0  0  0  0  0  0  0  0
    7.5502   11.5431   24.7590 C   0  0  0  0  0  0  0  0  0  0  0  0
    7.0554   10.3652   25.3211 C   0  0  0  0  0  0  0  0  0  0  0  0
    5.8908   10.4001   26.0871 C   0  0  0  0  0  0  0  0  0  0  0  0
    5.2282   11.6067   26.2950 C   0  0  0  0  0  0  0  0  0  0  0  0
    5.6768   12.7674   25.6663 C   0  0  0  0  0  0  0  0  0  0  0  0
    6.8069   12.7344   24.8379 C   0  0  0  0  0  0  0  0  0  0  0  0
    7.2194   13.9230   24.0180 C   0  0  0  0  0  0  0  0  0  0  0  0
    5.9009   14.6934   23.1459 Cl  0  0  0  0  0  0  0  0  0  0  0  0
  1  2  1  0
  2  3  1  0
  3  4  1  0
  4  5  2  0
  5  6  1  0
  6  7  1  0
  7  8  1  0
  8  9  1  0
  9 10  1  0
 10 11  2  0
 10 12  1  0
 12 13  2  0
 13 14  1  0
 14 15  2  0
 15 16  1  0
 16 17  2  0
 17 18  1  0
 18 19  1  0
  6  2  2  0
 17 12  1  0
M  END
>  <energy_score>  (3811) 
-5.819913

>  <inchikey>  (3811) 
BITHTTCSOHQMIZ-UHFFFAOYSA-N

>  <smiles>  (3811) 
Cc1ocnc1CCNC(=O)c1ccccc1CCl

>  <ref_pdb>  (3811) 
A0514a

>  <alias>  (3811) 
BITHTTCSOHQMIZ-UHFFFAOYSA-N-P637-P178-P637-601502

>  <HIPPO Pose ID>  (3811) 
503674

>  <name>  (3811) 
BITHTTCSOHQMIZ-UHFFFAOYSA-N-P637-P178-P637-601502

>  <HIPPO Compound ID>  (3811) 
306267

>  <ref_mols>  (3811) 
A3408a,A5594a

>  <distance_score>  (3811) 
1.514252

>  <inspiration_score>  (3811) 
None

$$$$
PZGYIPDAIOZVAY-UHFFFAOYSA-N-P637-P178-P637-601502
     RDKit          3D

 19 20  0  0  0  0  0  0  0  0999 V2000
    7.2754   13.9893   25.4715 C   0  0  0  0  0  0  0  0  0  0  0  0
    6.4561   12.7529   25.7123 C   0  0  0  0  0  0  0  0  0  0  0  0
    5.2792   12.9459   26.4641 C   0  0  0  0  0  0  0  0  0  0  0  0
    4.4769   11.8730   26.8484 C   0  0  0  0  0  0  0  0  0  0  0  0
    2.9349   12.1814   27.8985 Br  0  0  0  0  0  0  0  0  0  0  0  0
    4.8045   10.5831   26.4719 C   0  0  0  0  0  0  0  0  0  0  0  0
    5.9269   10.3804   25.6793 C   0  0  0  0  0  0  0  0  0  0  0  0
    6.7588   11.4467   25.2753 C   0  0  0  0  0  0  0  0  0  0  0  0
    8.0321   11.0012   24.6253 C   0  0  0  0  0  0  0  0  0  0  0  0
    8.3875    9.9416   24.9358 O   0  0  0  0  0  0  0  0  0  0  0  0
    8.7005   12.0479   23.7452 N   0  0  0  0  0  0  0  0  0  0  0  0
    9.9926   12.0592   23.1316 C   0  0  0  0  0  0  0  0  0  0  0  0
   10.7314   13.3635   23.3940 C   0  0  0  0  0  0  0  0  0  0  0  0
   10.1040   14.4634   22.6269 C   0  0  0  0  0  0  0  0  0  0  0  0
    8.7999   14.8442   22.8566 N   0  0  0  0  0  0  0  0  0  0  0  0
    8.5783   15.7465   21.9263 C   0  0  0  0  0  0  0  0  0  0  0  0
    9.6240   15.9871   21.0969 O   0  0  0  0  0  0  0  0  0  0  0  0
   10.6075   15.1687   21.5610 C   0  0  0  0  0  0  0  0  0  0  0  0
   11.8742   15.1807   20.8280 C   0  0  0  0  0  0  0  0  0  0  0  0
  1  2  1  0
  2  3  2  0
  3  4  1  0
  4  5  1  0
  4  6  2  0
  6  7  1  0
  7  8  2  0
  8  9  1  0
  9 10  2  0
  9 11  1  0
 11 12  1  0
 12 13  1  0
 13 14  1  0
 14 15  1  0
 15 16  2  0
 16 17  1  0
 17 18  1  0
 18 19  1  0
  8  2  1  0
 18 14  2  0
M  END
>  <energy_score>  (3812) 
-6.590005

>  <inchikey>  (3812) 
PZGYIPDAIOZVAY-UHFFFAOYSA-N

>  <smiles>  (3812) 
Cc1cc(Br)ccc1C(=O)NCCc1ncoc1C

>  <ref_pdb>  (3812) 
A0514a

>  <alias>  (3812) 
PZGYIPDAIOZVAY-UHFFFAOYSA-N-P637-P178-P637-601502

>  <HIPPO Pose ID>  (3812) 
503677

>  <name>  (3812) 
PZGYIPDAIOZVAY-UHFFFAOYSA-N-P637-P178-P637-601502

>  <HIPPO Compound ID>  (3812) 
306270

>  <ref_mols>  (3812) 
A3408a,A5594a

>  <distance_score>  (3812) 
1.729188

>  <inspiration_score>  (3812) 
None

$$$$
WRGSLYFIXGUZJY-UHFFFAOYSA-N-P637-P178-P637-601502
     RDKit          3D

 19 20  0  0  0  0  0  0  0  0999 V2000
    6.6141   14.3945   24.3215 C   0  0  0  0  0  0  0  0  0  0  0  0
    6.5481   13.0370   24.9573 C   0  0  0  0  0  0  0  0  0  0  0  0
    5.4535   12.7162   25.7697 C   0  0  0  0  0  0  0  0  0  0  0  0
    5.3109   11.4254   26.2686 C   0  0  0  0  0  0  0  0  0  0  0  0
    3.9029   11.0275   27.4657 Br  0  0  0  0  0  0  0  0  0  0  0  0
    6.2113   10.4291   25.9040 C   0  0  0  0  0  0  0  0  0  0  0  0
    7.3438   10.7509   25.1530 C   0  0  0  0  0  0  0  0  0  0  0  0
    7.5513   12.0746   24.7571 C   0  0  0  0  0  0  0  0  0  0  0  0
    8.9102   12.4837   24.2807 C   0  0  0  0  0  0  0  0  0  0  0  0
    9.4768   11.8676   23.4725 O   0  0  0  0  0  0  0  0  0  0  0  0
    9.3481   13.7321   25.0761 N   0  0  0  0  0  0  0  0  0  0  0  0
   10.5401   14.5386   24.9728 C   0  0  2  0  0  0  0  0  0  0  0  0
   10.7531   15.2878   26.2971 C   0  0  0  0  0  0  0  0  0  0  0  0
   10.3234   15.5990   23.9120 C   0  0  0  0  0  0  0  0  0  0  0  0
   10.3192   15.1584   22.5146 C   0  0  0  0  0  0  0  0  0  0  0  0
   11.3818   14.8090   21.7205 C   0  0  0  0  0  0  0  0  0  0  0  0
   10.9470   14.7897   20.4341 O   0  0  0  0  0  0  0  0  0  0  0  0
    9.6336   15.1119   20.5355 C   0  0  0  0  0  0  0  0  0  0  0  0
    9.1820   15.2825   21.7549 N   0  0  0  0  0  0  0  0  0  0  0  0
  1  2  1  0
  2  3  2  0
  3  4  1  0
  4  5  1  0
  4  6  2  0
  6  7  1  0
  7  8  2  0
  8  9  1  0
  9 10  2  0
  9 11  1  0
 11 12  1  0
 12 13  1  1
 12 14  1  0
 14 15  1  0
 15 16  2  0
 16 17  1  0
 17 18  1  0
 18 19  2  0
  8  2  1  0
 19 15  1  0
M  END
>  <energy_score>  (3813) 
-7.652906

>  <inchikey>  (3813) 
WRGSLYFIXGUZJY-UHFFFAOYSA-N

>  <smiles>  (3813) 
Cc1cc(Br)ccc1C(=O)NC(C)Cc1cocn1

>  <ref_pdb>  (3813) 
A0514a

>  <alias>  (3813) 
WRGSLYFIXGUZJY-UHFFFAOYSA-N-P637-P178-P637-601502

>  <HIPPO Pose ID>  (3813) 
503679

>  <name>  (3813) 
WRGSLYFIXGUZJY-UHFFFAOYSA-N-P637-P178-P637-601502

>  <HIPPO Compound ID>  (3813) 
306272

>  <ref_mols>  (3813) 
A3408a,A5594a

>  <distance_score>  (3813) 
1.236996

>  <inspiration_score>  (3813) 
None

$$$$
LKDWHGIYOAJSDO-UHFFFAOYSA-N-P637-P178-P637-601502
     RDKit          3D

 19 20  0  0  0  0  0  0  0  0999 V2000
    6.8729   14.6805   24.2676 C   0  0  0  0  0  0  0  0  0  0  0  0
    7.4168   13.8396   25.4103 C   0  0  0  0  0  0  0  0  0  0  0  0
    6.5077   12.6688   25.7086 C   0  0  0  0  0  0  0  0  0  0  0  0
    5.3768   12.9798   26.4936 C   0  0  0  0  0  0  0  0  0  0  0  0
    4.4916   11.9984   26.9335 C   0  0  0  0  0  0  0  0  0  0  0  0
    4.6996   10.6768   26.5829 C   0  0  0  0  0  0  0  0  0  0  0  0
    5.7783   10.3510   25.7732 C   0  0  0  0  0  0  0  0  0  0  0  0
    6.6906   11.3239   25.3184 C   0  0  0  0  0  0  0  0  0  0  0  0
    7.9064   10.7410   24.6632 C   0  0  0  0  0  0  0  0  0  0  0  0
    8.1759    9.6592   24.9811 O   0  0  0  0  0  0  0  0  0  0  0  0
    8.6426   11.7144   23.7587 N   0  0  0  0  0  0  0  0  0  0  0  0
    9.9170   11.6084   23.1217 C   0  0  0  0  0  0  0  0  0  0  0  0
   10.6976   12.9178   23.2381 C   0  0  0  0  0  0  0  0  0  0  0  0
   10.1184   14.0006   22.4086 C   0  0  0  0  0  0  0  0  0  0  0  0
    8.7742   14.0327   22.1172 N   0  0  0  0  0  0  0  0  0  0  0  0
    8.6499   15.1097   21.3788 C   0  0  0  0  0  0  0  0  0  0  0  0
    9.7979   15.7745   21.1233 O   0  0  0  0  0  0  0  0  0  0  0  0
   10.7410   15.0718   21.8093 C   0  0  0  0  0  0  0  0  0  0  0  0
   12.1086   15.5848   21.7296 C   0  0  0  0  0  0  0  0  0  0  0  0
  1  2  1  0
  2  3  1  0
  3  4  2  0
  4  5  1  0
  5  6  2  0
  6  7  1  0
  7  8  2  0
  8  9  1  0
  9 10  2  0
  9 11  1  0
 11 12  1  0
 12 13  1  0
 13 14  1  0
 14 15  1  0
 15 16  2  0
 16 17  1  0
 17 18  1  0
 18 19  1  0
  8  3  1  0
 18 14  2  0
M  END
>  <energy_score>  (3814) 
-0.763593

>  <inchikey>  (3814) 
LKDWHGIYOAJSDO-UHFFFAOYSA-N

>  <smiles>  (3814) 
CCc1ccccc1C(=O)NCCc1ncoc1C

>  <ref_pdb>  (3814) 
A0514a

>  <alias>  (3814) 
LKDWHGIYOAJSDO-UHFFFAOYSA-N-P637-P178-P637-601502

>  <HIPPO Pose ID>  (3814) 
503680

>  <name>  (3814) 
LKDWHGIYOAJSDO-UHFFFAOYSA-N-P637-P178-P637-601502

>  <HIPPO Compound ID>  (3814) 
306273

>  <ref_mols>  (3814) 
A3408a,A5594a

>  <distance_score>  (3814) 
1.557393

>  <inspiration_score>  (3814) 
None

$$$$
NSVXUVGOUCIDEY-UHFFFAOYSA-N-P637-P178-P637-601502
     RDKit          3D

 19 20  0  0  0  0  0  0  0  0999 V2000
   11.8005   15.0722   20.6782 C   0  0  0  0  0  0  0  0  0  0  0  0
   10.6759   15.3656   21.5687 C   0  0  0  0  0  0  0  0  0  0  0  0
    9.5837   15.9526   21.0127 O   0  0  0  0  0  0  0  0  0  0  0  0
    8.7324   16.1000   22.0591 C   0  0  0  0  0  0  0  0  0  0  0  0
    9.1692   15.6445   23.2182 N   0  0  0  0  0  0  0  0  0  0  0  0
   10.4165   15.1612   22.9033 C   0  0  0  0  0  0  0  0  0  0  0  0
   11.2568   14.4532   23.8889 C   0  0  0  0  0  0  0  0  0  0  0  0
   11.0112   12.9532   23.7945 C   0  0  0  0  0  0  0  0  0  0  0  0
    9.7039   12.5829   24.2768 N   0  0  0  0  0  0  0  0  0  0  0  0
    8.8281   11.3518   23.9562 C   0  0  0  0  0  0  0  0  0  0  0  0
    9.0587   10.4083   23.3129 O   0  0  0  0  0  0  0  0  0  0  0  0
    7.5205   11.4396   24.6731 C   0  0  0  0  0  0  0  0  0  0  0  0
    7.0483   10.3181   25.3557 C   0  0  0  0  0  0  0  0  0  0  0  0
    5.9228   10.4201   26.1787 C   0  0  0  0  0  0  0  0  0  0  0  0
    5.2723   11.6433   26.3332 C   0  0  0  0  0  0  0  0  0  0  0  0
    5.6859   12.7457   25.5892 C   0  0  0  0  0  0  0  0  0  0  0  0
    6.7729   12.6159   24.7190 C   0  0  0  0  0  0  0  0  0  0  0  0
    6.9690   13.6600   23.7083 C   0  0  0  0  0  0  0  0  0  0  0  0
    7.3278   13.3608   22.5747 O   0  0  0  0  0  0  0  0  0  0  0  0
  1  2  1  0
  2  3  1  0
  3  4  1  0
  4  5  2  0
  5  6  1  0
  6  7  1  0
  7  8  1  0
  8  9  1  0
  9 10  1  0
 10 11  2  0
 10 12  1  0
 12 13  2  0
 13 14  1  0
 14 15  2  0
 15 16  1  0
 16 17  2  0
 17 18  1  0
 18 19  2  0
  6  2  2  0
 17 12  1  0
M  END
>  <energy_score>  (3815) 
-2.616387

>  <inchikey>  (3815) 
NSVXUVGOUCIDEY-UHFFFAOYSA-N

>  <smiles>  (3815) 
Cc1ocnc1CCNC(=O)c1ccccc1C=O

>  <ref_pdb>  (3815) 
A0514a

>  <alias>  (3815) 
NSVXUVGOUCIDEY-UHFFFAOYSA-N-P637-P178-P637-601502

>  <HIPPO Pose ID>  (3815) 
503681

>  <name>  (3815) 
NSVXUVGOUCIDEY-UHFFFAOYSA-N-P637-P178-P637-601502

>  <HIPPO Compound ID>  (3815) 
306274

>  <ref_mols>  (3815) 
A3408a,A5594a

>  <distance_score>  (3815) 
1.579769

>  <inspiration_score>  (3815) 
None

$$$$
CTQNIHDSZAAVAC-UHFFFAOYSA-N-P637-P178-P637-601502
     RDKit          3D

 19 20  0  0  0  0  0  0  0  0999 V2000
    6.1960   14.5354   25.1950 C   0  0  0  0  0  0  0  0  0  0  0  0
    5.9206   13.1240   25.6327 C   0  0  0  0  0  0  0  0  0  0  0  0
    4.7632   12.8267   26.3562 C   0  0  0  0  0  0  0  0  0  0  0  0
    4.4796   11.5141   26.7382 C   0  0  0  0  0  0  0  0  0  0  0  0
    5.3323   10.4769   26.3739 C   0  0  0  0  0  0  0  0  0  0  0  0
    6.5004   10.7665   25.6839 C   0  0  0  0  0  0  0  0  0  0  0  0
    7.3282    9.7566   25.3830 F   0  0  0  0  0  0  0  0  0  0  0  0
    6.8152   12.0843   25.3476 C   0  0  0  0  0  0  0  0  0  0  0  0
    8.1433   12.4435   24.8165 C   0  0  0  0  0  0  0  0  0  0  0  0
    8.6326   13.4150   25.2224 O   0  0  0  0  0  0  0  0  0  0  0  0
    8.6375   11.4504   23.7770 N   0  0  0  0  0  0  0  0  0  0  0  0
    9.8760   11.3807   23.0795 C   0  0  0  0  0  0  0  0  0  0  0  0
   10.6067   12.7306   23.0418 C   0  0  0  0  0  0  0  0  0  0  0  0
    9.9156   13.8391   22.3314 C   0  0  0  0  0  0  0  0  0  0  0  0
    8.5522   13.8769   22.1251 N   0  0  0  0  0  0  0  0  0  0  0  0
    8.3693   15.0318   21.5315 C   0  0  0  0  0  0  0  0  0  0  0  0
    9.4972   15.7300   21.2542 O   0  0  0  0  0  0  0  0  0  0  0  0
   10.4911   14.9701   21.7916 C   0  0  0  0  0  0  0  0  0  0  0  0
   11.8584   15.4882   21.6692 C   0  0  0  0  0  0  0  0  0  0  0  0
  1  2  1  0
  2  3  2  0
  3  4  1  0
  4  5  2  0
  5  6  1  0
  6  7  1  0
  6  8  2  0
  8  9  1  0
  9 10  2  0
  9 11  1  0
 11 12  1  0
 12 13  1  0
 13 14  1  0
 14 15  1  0
 15 16  2  0
 16 17  1  0
 17 18  1  0
 18 19  1  0
  8  2  1  0
 18 14  2  0
M  END
>  <energy_score>  (3816) 
-3.915842

>  <inchikey>  (3816) 
CTQNIHDSZAAVAC-UHFFFAOYSA-N

>  <smiles>  (3816) 
Cc1cccc(F)c1C(=O)NCCc1ncoc1C

>  <ref_pdb>  (3816) 
A0514a

>  <alias>  (3816) 
CTQNIHDSZAAVAC-UHFFFAOYSA-N-P637-P178-P637-601502

>  <HIPPO Pose ID>  (3816) 
503687

>  <name>  (3816) 
CTQNIHDSZAAVAC-UHFFFAOYSA-N-P637-P178-P637-601502

>  <HIPPO Compound ID>  (3816) 
306280

>  <ref_mols>  (3816) 
A3408a,A5594a

>  <distance_score>  (3816) 
1.9167

>  <inspiration_score>  (3816) 
None

$$$$
OKPLJAXDEPCUCO-UHFFFAOYSA-N-P637-P178-P637-601502
     RDKit          3D

 19 20  0  0  0  0  0  0  0  0999 V2000
    6.9262   14.2020   27.0045 C   0  0  0  0  0  0  0  0  0  0  0  0
    6.4411   12.8085   26.7167 C   0  0  0  0  0  0  0  0  0  0  0  0
    5.4649   12.2263   27.5232 C   0  0  0  0  0  0  0  0  0  0  0  0
    5.0089   10.9359   27.2538 C   0  0  0  0  0  0  0  0  0  0  0  0
    5.5550   10.2013   26.2030 C   0  0  0  0  0  0  0  0  0  0  0  0
    6.5367   10.7632   25.4026 C   0  0  0  0  0  0  0  0  0  0  0  0
    7.0771   10.0414   24.4176 F   0  0  0  0  0  0  0  0  0  0  0  0
    6.9138   12.0773   25.6166 C   0  0  0  0  0  0  0  0  0  0  0  0
    7.6956   12.8006   24.6097 C   0  0  0  0  0  0  0  0  0  0  0  0
    8.7956   12.5191   24.3610 O   0  0  0  0  0  0  0  0  0  0  0  0
    6.8250   13.9654   24.1051 N   0  0  0  0  0  0  0  0  0  0  0  0
    7.0947   14.9700   23.1194 C   0  0  2  0  0  0  0  0  0  0  0  0
    6.8694   14.3395   21.7775 C   0  0  0  0  0  0  0  0  0  0  0  0
    8.4288   15.6987   23.3018 C   0  0  0  0  0  0  0  0  0  0  0  0
    9.5940   15.0985   22.6151 C   0  0  0  0  0  0  0  0  0  0  0  0
   10.7210   14.4864   23.1083 C   0  0  0  0  0  0  0  0  0  0  0  0
   11.5153   14.1578   22.0544 O   0  0  0  0  0  0  0  0  0  0  0  0
   10.8199   14.5935   20.9715 C   0  0  0  0  0  0  0  0  0  0  0  0
    9.6695   15.1586   21.2443 N   0  0  0  0  0  0  0  0  0  0  0  0
  1  2  1  0
  2  3  2  0
  3  4  1  0
  4  5  2  0
  5  6  1  0
  6  7  1  0
  6  8  2  0
  8  9  1  0
  9 10  2  0
  9 11  1  0
 11 12  1  0
 12 13  1  6
 12 14  1  0
 14 15  1  0
 15 16  2  0
 16 17  1  0
 17 18  1  0
 18 19  2  0
  8  2  1  0
 19 15  1  0
M  END
>  <energy_score>  (3817) 
-5.773706

>  <inchikey>  (3817) 
OKPLJAXDEPCUCO-UHFFFAOYSA-N

>  <smiles>  (3817) 
Cc1cccc(F)c1C(=O)NC(C)Cc1cocn1

>  <ref_pdb>  (3817) 
A0514a

>  <alias>  (3817) 
OKPLJAXDEPCUCO-UHFFFAOYSA-N-P637-P178-P637-601502

>  <HIPPO Pose ID>  (3817) 
503689

>  <name>  (3817) 
OKPLJAXDEPCUCO-UHFFFAOYSA-N-P637-P178-P637-601502

>  <HIPPO Compound ID>  (3817) 
306282

>  <ref_mols>  (3817) 
A3408a,A5594a

>  <distance_score>  (3817) 
1.979224

>  <inspiration_score>  (3817) 
None

$$$$
IUBMMPAQRCKMEB-UHFFFAOYSA-N-P637-P178-P637-601502
     RDKit          3D

 19 20  0  0  0  0  0  0  0  0999 V2000
    7.4091   13.9561   25.3126 C   0  0  0  0  0  0  0  0  0  0  0  0
    6.4683   12.8453   25.6963 C   0  0  0  0  0  0  0  0  0  0  0  0
    5.3541   13.2573   26.4487 C   0  0  0  0  0  0  0  0  0  0  0  0
    4.4829   12.3348   27.0161 C   0  0  0  0  0  0  0  0  0  0  0  0
    4.6855   10.9804   26.8121 C   0  0  0  0  0  0  0  0  0  0  0  0
    3.7035    9.8598   27.6671 Cl  0  0  0  0  0  0  0  0  0  0  0  0
    5.7069   10.5465   25.9816 C   0  0  0  0  0  0  0  0  0  0  0  0
    6.6106   11.4660   25.4080 C   0  0  0  0  0  0  0  0  0  0  0  0
    7.8068   10.8247   24.7664 C   0  0  0  0  0  0  0  0  0  0  0  0
    8.0585    9.7521   25.1273 O   0  0  0  0  0  0  0  0  0  0  0  0
    8.5516   11.7438   23.8113 N   0  0  0  0  0  0  0  0  0  0  0  0
    9.8175   11.5840   23.1634 C   0  0  0  0  0  0  0  0  0  0  0  0
   10.6118   12.8882   23.2401 C   0  0  0  0  0  0  0  0  0  0  0  0
    9.9845   14.0007   22.4805 C   0  0  0  0  0  0  0  0  0  0  0  0
    8.6141   14.1230   22.3681 N   0  0  0  0  0  0  0  0  0  0  0  0
    8.4642   15.1968   21.6275 C   0  0  0  0  0  0  0  0  0  0  0  0
    9.6154   15.7874   21.2262 O   0  0  0  0  0  0  0  0  0  0  0  0
   10.5924   15.0307   21.7994 C   0  0  0  0  0  0  0  0  0  0  0  0
   11.9745   15.4505   21.5530 C   0  0  0  0  0  0  0  0  0  0  0  0
  1  2  1  0
  2  3  2  0
  3  4  1  0
  4  5  2  0
  5  6  1  0
  5  7  1  0
  7  8  2  0
  8  9  1  0
  9 10  2  0
  9 11  1  0
 11 12  1  0
 12 13  1  0
 13 14  1  0
 14 15  1  0
 15 16  2  0
 16 17  1  0
 17 18  1  0
 18 19  1  0
  8  2  1  0
 18 14  2  0
M  END
>  <energy_score>  (3818) 
-1.759711

>  <inchikey>  (3818) 
IUBMMPAQRCKMEB-UHFFFAOYSA-N

>  <smiles>  (3818) 
Cc1ccc(Cl)cc1C(=O)NCCc1ncoc1C

>  <ref_pdb>  (3818) 
A0514a

>  <alias>  (3818) 
IUBMMPAQRCKMEB-UHFFFAOYSA-N-P637-P178-P637-601502

>  <HIPPO Pose ID>  (3818) 
503690

>  <name>  (3818) 
IUBMMPAQRCKMEB-UHFFFAOYSA-N-P637-P178-P637-601502

>  <HIPPO Compound ID>  (3818) 
306283

>  <ref_mols>  (3818) 
A3408a,A5594a

>  <distance_score>  (3818) 
1.52149

>  <inspiration_score>  (3818) 
None

$$$$
OGLWVUIGHWZHIV-UHFFFAOYSA-N-P637-P178-P637-601502
     RDKit          3D

 19 20  0  0  0  0  0  0  0  0999 V2000
    7.2304   14.1146   22.7753 C   0  0  0  0  0  0  0  0  0  0  0  0
    7.2476   14.1737   24.2947 C   0  0  0  0  0  0  0  0  0  0  0  0
    6.8940   12.8610   24.9584 C   0  0  0  0  0  0  0  0  0  0  0  0
    5.7680   12.8332   25.8007 C   0  0  0  0  0  0  0  0  0  0  0  0
    5.2950   11.6354   26.3373 C   0  0  0  0  0  0  0  0  0  0  0  0
    5.9256   10.4370   26.0263 C   0  0  0  0  0  0  0  0  0  0  0  0
    7.0661   10.4424   25.2263 C   0  0  0  0  0  0  0  0  0  0  0  0
    7.5758   11.6505   24.7277 C   0  0  0  0  0  0  0  0  0  0  0  0
    8.8579   11.5697   23.9678 C   0  0  0  0  0  0  0  0  0  0  0  0
    8.9738   10.7809   23.1229 O   0  0  0  0  0  0  0  0  0  0  0  0
    9.8529   12.6061   24.5035 N   0  0  0  0  0  0  0  0  0  0  0  0
   11.1711   12.9565   24.0500 C   0  0  0  0  0  0  0  0  0  0  0  0
   11.4610   14.4371   24.2347 C   0  0  0  0  0  0  0  0  0  0  0  0
   11.3021   15.1114   22.9412 C   0  0  0  0  0  0  0  0  0  0  0  0
   12.2728   15.7172   22.1896 C   0  0  0  0  0  0  0  0  0  0  0  0
   11.7684   15.9626   20.9664 O   0  0  0  0  0  0  0  0  0  0  0  0
   10.5051   15.4714   21.0366 C   0  0  0  0  0  0  0  0  0  0  0  0
    9.7994   15.4619   19.7660 C   0  0  0  0  0  0  0  0  0  0  0  0
   10.1430   15.0184   22.2183 N   0  0  0  0  0  0  0  0  0  0  0  0
  1  2  1  0
  2  3  1  0
  3  4  2  0
  4  5  1  0
  5  6  2  0
  6  7  1  0
  7  8  2  0
  8  9  1  0
  9 10  2  0
  9 11  1  0
 11 12  1  0
 12 13  1  0
 13 14  1  0
 14 15  2  0
 15 16  1  0
 16 17  1  0
 17 18  1  0
 17 19  2  0
  8  3  1  0
 19 14  1  0
M  END
>  <energy_score>  (3819) 
-11.749265

>  <inchikey>  (3819) 
OGLWVUIGHWZHIV-UHFFFAOYSA-N

>  <smiles>  (3819) 
CCc1ccccc1C(=O)NCCc1coc(C)n1

>  <ref_pdb>  (3819) 
A0514a

>  <alias>  (3819) 
OGLWVUIGHWZHIV-UHFFFAOYSA-N-P637-P178-P637-601502

>  <HIPPO Pose ID>  (3819) 
503693

>  <name>  (3819) 
OGLWVUIGHWZHIV-UHFFFAOYSA-N-P637-P178-P637-601502

>  <HIPPO Compound ID>  (3819) 
306286

>  <ref_mols>  (3819) 
A3408a,A5594a

>  <distance_score>  (3819) 
1.15748

>  <inspiration_score>  (3819) 
None

$$$$
XROKWHOPPSZYRW-UHFFFAOYSA-N-P637-P178-P637-601502
     RDKit          3D

 19 20  0  0  0  0  0  0  0  0999 V2000
   12.0089   15.5235   21.5014 C   0  0  0  0  0  0  0  0  0  0  0  0
   10.6284   15.1331   21.7974 C   0  0  0  0  0  0  0  0  0  0  0  0
    9.6441   15.8868   21.2343 O   0  0  0  0  0  0  0  0  0  0  0  0
    8.4979   15.3338   21.7004 C   0  0  0  0  0  0  0  0  0  0  0  0
    8.6564   14.2737   22.4603 N   0  0  0  0  0  0  0  0  0  0  0  0
   10.0289   14.1326   22.5255 C   0  0  0  0  0  0  0  0  0  0  0  0
   10.6663   13.0250   23.2790 C   0  0  0  0  0  0  0  0  0  0  0  0
    9.8969   11.7173   23.1390 C   0  0  0  0  0  0  0  0  0  0  0  0
    8.6189   11.8099   23.7708 N   0  0  0  0  0  0  0  0  0  0  0  0
    7.9024   10.8422   24.6949 C   0  0  0  0  0  0  0  0  0  0  0  0
    8.1944    9.7747   25.0377 O   0  0  0  0  0  0  0  0  0  0  0  0
    6.6736   11.4077   25.3361 C   0  0  0  0  0  0  0  0  0  0  0  0
    5.7777   10.4132   25.7815 C   0  0  0  0  0  0  0  0  0  0  0  0
    4.6717   10.7219   26.5536 C   0  0  0  0  0  0  0  0  0  0  0  0
    4.4118   12.0481   26.8501 C   0  0  0  0  0  0  0  0  0  0  0  0
    5.2806   13.0535   26.4148 C   0  0  0  0  0  0  0  0  0  0  0  0
    4.8303   14.6760   26.8364 Cl  0  0  0  0  0  0  0  0  0  0  0  0
    6.4643   12.7587   25.7046 C   0  0  0  0  0  0  0  0  0  0  0  0
    7.4181   13.8899   25.4171 C   0  0  0  0  0  0  0  0  0  0  0  0
  1  2  1  0
  2  3  1  0
  3  4  1  0
  4  5  2  0
  5  6  1  0
  6  7  1  0
  7  8  1  0
  8  9  1  0
  9 10  1  0
 10 11  2  0
 10 12  1  0
 12 13  2  0
 13 14  1  0
 14 15  2  0
 15 16  1  0
 16 17  1  0
 16 18  2  0
 18 19  1  0
  6  2  2  0
 18 12  1  0
M  END
>  <energy_score>  (3820) 
-9.953491

>  <inchikey>  (3820) 
XROKWHOPPSZYRW-UHFFFAOYSA-N

>  <smiles>  (3820) 
Cc1ocnc1CCNC(=O)c1cccc(Cl)c1C

>  <ref_pdb>  (3820) 
A0514a

>  <alias>  (3820) 
XROKWHOPPSZYRW-UHFFFAOYSA-N-P637-P178-P637-601502

>  <HIPPO Pose ID>  (3820) 
503696

>  <name>  (3820) 
XROKWHOPPSZYRW-UHFFFAOYSA-N-P637-P178-P637-601502

>  <HIPPO Compound ID>  (3820) 
306289

>  <ref_mols>  (3820) 
A3408a,A5594a

>  <distance_score>  (3820) 
1.729258

>  <inspiration_score>  (3820) 
None

$$$$
ZQTVOQLPYNQASU-UHFFFAOYSA-N-P637-P178-P637-601502
     RDKit          3D

 19 20  0  0  0  0  0  0  0  0999 V2000
    7.9497   14.4030   25.3592 C   0  0  0  0  0  0  0  0  0  0  0  0
    6.7139   13.5982   25.6593 C   0  0  0  0  0  0  0  0  0  0  0  0
    5.6364   14.3434   26.1666 C   0  0  0  0  0  0  0  0  0  0  0  0
    4.4849   13.7268   26.6309 C   0  0  0  0  0  0  0  0  0  0  0  0
    4.3907   12.3503   26.5978 C   0  0  0  0  0  0  0  0  0  0  0  0
    5.4211   11.5891   26.0474 C   0  0  0  0  0  0  0  0  0  0  0  0
    5.1009    9.7453   26.1330 Br  0  0  0  0  0  0  0  0  0  0  0  0
    6.5740   12.1965   25.5241 C   0  0  0  0  0  0  0  0  0  0  0  0
    7.7036   11.3467   25.0341 C   0  0  0  0  0  0  0  0  0  0  0  0
    7.9352   10.3773   25.6226 O   0  0  0  0  0  0  0  0  0  0  0  0
    8.4318   11.9868   23.8621 N   0  0  0  0  0  0  0  0  0  0  0  0
    9.6614   11.6237   23.2168 C   0  0  0  0  0  0  0  0  0  0  0  0
   10.5617   12.8553   23.1068 C   0  0  0  0  0  0  0  0  0  0  0  0
    9.9540   13.9914   22.3654 C   0  0  0  0  0  0  0  0  0  0  0  0
    8.5879   14.1155   22.2004 N   0  0  0  0  0  0  0  0  0  0  0  0
    8.4664   15.2390   21.5333 C   0  0  0  0  0  0  0  0  0  0  0  0
    9.6300   15.8499   21.2083 O   0  0  0  0  0  0  0  0  0  0  0  0
   10.5863   15.0586   21.7684 C   0  0  0  0  0  0  0  0  0  0  0  0
   11.9764   15.4928   21.6038 C   0  0  0  0  0  0  0  0  0  0  0  0
  1  2  1  0
  2  3  2  0
  3  4  1  0
  4  5  2  0
  5  6  1  0
  6  7  1  0
  6  8  2  0
  8  9  1  0
  9 10  2  0
  9 11  1  0
 11 12  1  0
 12 13  1  0
 13 14  1  0
 14 15  1  0
 15 16  2  0
 16 17  1  0
 17 18  1  0
 18 19  1  0
  8  2  1  0
 18 14  2  0
M  END
>  <energy_score>  (3821) 
-7.72061

>  <inchikey>  (3821) 
ZQTVOQLPYNQASU-UHFFFAOYSA-N

>  <smiles>  (3821) 
Cc1cccc(Br)c1C(=O)NCCc1ncoc1C

>  <ref_pdb>  (3821) 
A0514a

>  <alias>  (3821) 
ZQTVOQLPYNQASU-UHFFFAOYSA-N-P637-P178-P637-601502

>  <HIPPO Pose ID>  (3821) 
503699

>  <name>  (3821) 
ZQTVOQLPYNQASU-UHFFFAOYSA-N-P637-P178-P637-601502

>  <HIPPO Compound ID>  (3821) 
306292

>  <ref_mols>  (3821) 
A3408a,A5594a

>  <distance_score>  (3821) 
1.730926

>  <inspiration_score>  (3821) 
None

$$$$
FLUGZLQPBUMMMK-UHFFFAOYSA-N-P637-P178-P637-601502
     RDKit          3D

 19 20  0  0  0  0  0  0  0  0999 V2000
    9.8265   15.4630   19.7261 C   0  0  0  0  0  0  0  0  0  0  0  0
   10.5799   15.2535   20.9514 C   0  0  0  0  0  0  0  0  0  0  0  0
   10.2744   14.5801   22.0402 N   0  0  0  0  0  0  0  0  0  0  0  0
   11.4176   14.6825   22.7913 C   0  0  0  0  0  0  0  0  0  0  0  0
   11.5680   14.0541   24.1123 C   0  0  0  0  0  0  0  0  0  0  0  0
   10.5151   14.5863   25.0589 C   0  0  0  0  0  0  0  0  0  0  0  0
    9.3036   13.8157   25.1351 N   0  0  0  0  0  0  0  0  0  0  0  0
    8.8147   12.6216   24.2765 C   0  0  0  0  0  0  0  0  0  0  0  0
    9.3528   12.0318   23.4267 O   0  0  0  0  0  0  0  0  0  0  0  0
    7.4656   12.1672   24.7536 C   0  0  0  0  0  0  0  0  0  0  0  0
    7.2304   10.7935   24.9775 C   0  0  0  0  0  0  0  0  0  0  0  0
    8.1189    9.7299   24.3963 C   0  0  0  0  0  0  0  0  0  0  0  0
    6.0962   10.4126   25.7133 C   0  0  0  0  0  0  0  0  0  0  0  0
    5.1999   11.3626   26.1946 C   0  0  0  0  0  0  0  0  0  0  0  0
    5.3752   12.7012   25.8680 C   0  0  0  0  0  0  0  0  0  0  0  0
    6.4867   13.0956   25.1231 C   0  0  0  0  0  0  0  0  0  0  0  0
    6.5653   14.9088   24.5806 Br  0  0  0  0  0  0  0  0  0  0  0  0
   12.3174   15.4908   22.1501 C   0  0  0  0  0  0  0  0  0  0  0  0
   11.7966   15.8560   20.9654 O   0  0  0  0  0  0  0  0  0  0  0  0
  1  2  1  0
  2  3  2  0
  3  4  1  0
  4  5  1  0
  5  6  1  0
  6  7  1  0
  7  8  1  0
  8  9  2  0
  8 10  1  0
 10 11  2  0
 11 12  1  0
 11 13  1  0
 13 14  2  0
 14 15  1  0
 15 16  2  0
 16 17  1  0
  4 18  2  0
 18 19  1  0
 19  2  1  0
 16 10  1  0
M  END
>  <energy_score>  (3822) 
-21.777467

>  <inchikey>  (3822) 
FLUGZLQPBUMMMK-UHFFFAOYSA-N

>  <smiles>  (3822) 
Cc1nc(CCNC(=O)c2c(C)cccc2Br)co1

>  <ref_pdb>  (3822) 
A0514a

>  <alias>  (3822) 
FLUGZLQPBUMMMK-UHFFFAOYSA-N-P637-P178-P637-601502

>  <HIPPO Pose ID>  (3822) 
503700

>  <name>  (3822) 
FLUGZLQPBUMMMK-UHFFFAOYSA-N-P637-P178-P637-601502

>  <HIPPO Compound ID>  (3822) 
306293

>  <ref_mols>  (3822) 
A3408a,A5594a

>  <distance_score>  (3822) 
1.844067

>  <inspiration_score>  (3822) 
None

$$$$
RMMMVVRYPHIFKV-UHFFFAOYSA-N-P637-P178-P637-601502
     RDKit          3D

 19 20  0  0  0  0  0  0  0  0999 V2000
    7.3056   14.5713   25.2342 C   0  0  0  0  0  0  0  0  0  0  0  0
    7.0867   13.0996   25.4048 C   0  0  0  0  0  0  0  0  0  0  0  0
    6.0297   12.6413   26.2029 C   0  0  0  0  0  0  0  0  0  0  0  0
    5.7484   11.2801   26.2911 C   0  0  0  0  0  0  0  0  0  0  0  0
    6.5236   10.3626   25.5841 C   0  0  0  0  0  0  0  0  0  0  0  0
    7.5859   10.8001   24.7898 C   0  0  0  0  0  0  0  0  0  0  0  0
    8.6210    9.5181   23.8492 Br  0  0  0  0  0  0  0  0  0  0  0  0
    7.8661   12.1667   24.7027 C   0  0  0  0  0  0  0  0  0  0  0  0
    8.8591   12.6640   23.7315 C   0  0  0  0  0  0  0  0  0  0  0  0
    8.5419   12.6577   22.6126 O   0  0  0  0  0  0  0  0  0  0  0  0
   10.1516   13.1665   24.3995 N   0  0  0  0  0  0  0  0  0  0  0  0
   11.3814   13.6876   23.8116 C   0  0  2  0  0  0  0  0  0  0  0  0
   12.5379   13.5967   24.7880 C   0  0  0  0  0  0  0  0  0  0  0  0
   11.2493   15.1578   23.3957 C   0  0  0  0  0  0  0  0  0  0  0  0
   10.2244   15.3158   22.3635 C   0  0  0  0  0  0  0  0  0  0  0  0
   10.3155   15.0265   21.0261 C   0  0  0  0  0  0  0  0  0  0  0  0
    9.0783   15.1853   20.4915 O   0  0  0  0  0  0  0  0  0  0  0  0
    8.3134   15.5605   21.5499 C   0  0  0  0  0  0  0  0  0  0  0  0
    8.9481   15.6904   22.6895 N   0  0  0  0  0  0  0  0  0  0  0  0
  1  2  1  0
  2  3  2  0
  3  4  1  0
  4  5  2  0
  5  6  1  0
  6  7  1  0
  6  8  2  0
  8  9  1  0
  9 10  2  0
  9 11  1  0
 11 12  1  0
 12 13  1  1
 12 14  1  0
 14 15  1  0
 15 16  2  0
 16 17  1  0
 17 18  1  0
 18 19  2  0
  8  2  1  0
 19 15  1  0
M  END
>  <energy_score>  (3823) 
-30.178045

>  <inchikey>  (3823) 
RMMMVVRYPHIFKV-UHFFFAOYSA-N

>  <smiles>  (3823) 
Cc1cccc(Br)c1C(=O)NC(C)Cc1cocn1

>  <ref_pdb>  (3823) 
A0514a

>  <alias>  (3823) 
RMMMVVRYPHIFKV-UHFFFAOYSA-N-P637-P178-P637-601502

>  <HIPPO Pose ID>  (3823) 
503701

>  <name>  (3823) 
RMMMVVRYPHIFKV-UHFFFAOYSA-N-P637-P178-P637-601502

>  <HIPPO Compound ID>  (3823) 
306294

>  <ref_mols>  (3823) 
A3408a,A5594a

>  <distance_score>  (3823) 
1.922654

>  <inspiration_score>  (3823) 
None

$$$$
CUIPUQLLZJFLGC-UHFFFAOYSA-N-P637-P178-P637-601502
     RDKit          3D

 19 20  0  0  0  0  0  0  0  0999 V2000
    7.7927   14.3483   25.3756 C   0  0  0  0  0  0  0  0  0  0  0  0
    6.6432   13.4269   25.6774 C   0  0  0  0  0  0  0  0  0  0  0  0
    5.5370   14.0275   26.3018 C   0  0  0  0  0  0  0  0  0  0  0  0
    4.4673   13.2723   26.7657 C   0  0  0  0  0  0  0  0  0  0  0  0
    4.4719   11.9010   26.5914 C   0  0  0  0  0  0  0  0  0  0  0  0
    5.5200   11.2890   25.9093 C   0  0  0  0  0  0  0  0  0  0  0  0
    5.3593    9.5989   25.7204 Cl  0  0  0  0  0  0  0  0  0  0  0  0
    6.6057   12.0373   25.4250 C   0  0  0  0  0  0  0  0  0  0  0  0
    7.8042   11.3042   24.9383 C   0  0  0  0  0  0  0  0  0  0  0  0
    8.0950   10.3621   25.5432 O   0  0  0  0  0  0  0  0  0  0  0  0
    8.5063   11.9835   23.7759 N   0  0  0  0  0  0  0  0  0  0  0  0
    9.7735   11.7072   23.1609 C   0  0  0  0  0  0  0  0  0  0  0  0
   10.6390   12.9661   23.1652 C   0  0  0  0  0  0  0  0  0  0  0  0
   10.0329   14.0955   22.4135 C   0  0  0  0  0  0  0  0  0  0  0  0
    8.6645   14.2403   22.2884 N   0  0  0  0  0  0  0  0  0  0  0  0
    8.5398   15.3390   21.5809 C   0  0  0  0  0  0  0  0  0  0  0  0
    9.7037   15.9168   21.2005 O   0  0  0  0  0  0  0  0  0  0  0  0
   10.6622   15.1326   21.7655 C   0  0  0  0  0  0  0  0  0  0  0  0
   12.0518   15.5422   21.5548 C   0  0  0  0  0  0  0  0  0  0  0  0
  1  2  1  0
  2  3  2  0
  3  4  1  0
  4  5  2  0
  5  6  1  0
  6  7  1  0
  6  8  2  0
  8  9  1  0
  9 10  2  0
  9 11  1  0
 11 12  1  0
 12 13  1  0
 13 14  1  0
 14 15  1  0
 15 16  2  0
 16 17  1  0
 17 18  1  0
 18 19  1  0
  8  2  1  0
 18 14  2  0
M  END
>  <energy_score>  (3824) 
-4.534045

>  <inchikey>  (3824) 
CUIPUQLLZJFLGC-UHFFFAOYSA-N

>  <smiles>  (3824) 
Cc1cccc(Cl)c1C(=O)NCCc1ncoc1C

>  <ref_pdb>  (3824) 
A0514a

>  <alias>  (3824) 
CUIPUQLLZJFLGC-UHFFFAOYSA-N-P637-P178-P637-601502

>  <HIPPO Pose ID>  (3824) 
503702

>  <name>  (3824) 
CUIPUQLLZJFLGC-UHFFFAOYSA-N-P637-P178-P637-601502

>  <HIPPO Compound ID>  (3824) 
306295

>  <ref_mols>  (3824) 
A3408a,A5594a

>  <distance_score>  (3824) 
1.60565

>  <inspiration_score>  (3824) 
None

$$$$
LDIHPHSIUOWOAP-UHFFFAOYSA-N-P637-P178-P637-601502
     RDKit          3D

 19 20  0  0  0  0  0  0  0  0999 V2000
   10.2149   15.7602   19.7252 C   0  0  0  0  0  0  0  0  0  0  0  0
   10.3328   15.2860   21.1073 C   0  0  0  0  0  0  0  0  0  0  0  0
   10.1136   14.0796   21.5781 N   0  0  0  0  0  0  0  0  0  0  0  0
   10.6679   14.1215   22.8289 C   0  0  0  0  0  0  0  0  0  0  0  0
   10.9265   12.8896   23.5946 C   0  0  0  0  0  0  0  0  0  0  0  0
   10.0058   11.7421   23.1869 C   0  0  0  0  0  0  0  0  0  0  0  0
    8.6785   11.9083   23.6885 N   0  0  0  0  0  0  0  0  0  0  0  0
    8.1348   12.8456   24.7567 C   0  0  0  0  0  0  0  0  0  0  0  0
    8.6593   13.6925   25.3534 O   0  0  0  0  0  0  0  0  0  0  0  0
    6.7405   12.5283   25.1300 C   0  0  0  0  0  0  0  0  0  0  0  0
    6.3572   11.2349   25.5485 C   0  0  0  0  0  0  0  0  0  0  0  0
    7.1754   10.0176   25.2853 C   0  0  0  0  0  0  0  0  0  0  0  0
    5.1546   11.0827   26.2502 C   0  0  0  0  0  0  0  0  0  0  0  0
    4.3556   12.1901   26.5210 C   0  0  0  0  0  0  0  0  0  0  0  0
    4.7056   13.4459   26.0280 C   0  0  0  0  0  0  0  0  0  0  0  0
    5.8924   13.6137   25.3234 C   0  0  0  0  0  0  0  0  0  0  0  0
    6.2711   15.1713   24.6869 Cl  0  0  0  0  0  0  0  0  0  0  0  0
   11.0355   15.4050   23.1293 C   0  0  0  0  0  0  0  0  0  0  0  0
   10.8592   16.1601   22.0155 O   0  0  0  0  0  0  0  0  0  0  0  0
  1  2  1  0
  2  3  2  0
  3  4  1  0
  4  5  1  0
  5  6  1  0
  6  7  1  0
  7  8  1  0
  8  9  2  0
  8 10  1  0
 10 11  2  0
 11 12  1  0
 11 13  1  0
 13 14  2  0
 14 15  1  0
 15 16  2  0
 16 17  1  0
  4 18  2  0
 18 19  1  0
 19  2  1  0
 16 10  1  0
M  END
>  <energy_score>  (3825) 
-18.694163

>  <inchikey>  (3825) 
LDIHPHSIUOWOAP-UHFFFAOYSA-N

>  <smiles>  (3825) 
Cc1nc(CCNC(=O)c2c(C)cccc2Cl)co1

>  <ref_pdb>  (3825) 
A0514a

>  <alias>  (3825) 
LDIHPHSIUOWOAP-UHFFFAOYSA-N-P637-P178-P637-601502

>  <HIPPO Pose ID>  (3825) 
503703

>  <name>  (3825) 
LDIHPHSIUOWOAP-UHFFFAOYSA-N-P637-P178-P637-601502

>  <HIPPO Compound ID>  (3825) 
306296

>  <ref_mols>  (3825) 
A3408a,A5594a

>  <distance_score>  (3825) 
1.751136

>  <inspiration_score>  (3825) 
None

$$$$
XMEBKAHQBYWMCY-UHFFFAOYSA-N-P637-P178-P637-601502
     RDKit          3D

 19 20  0  0  0  0  0  0  0  0999 V2000
   10.8642   15.3311   19.0845 C   0  0  0  0  0  0  0  0  0  0  0  0
   10.7110   15.2206   20.5359 C   0  0  0  0  0  0  0  0  0  0  0  0
    9.6200   14.9678   21.2173 N   0  0  0  0  0  0  0  0  0  0  0  0
   10.0767   14.8058   22.4955 C   0  0  0  0  0  0  0  0  0  0  0  0
    9.1376   14.3008   23.4937 C   0  0  0  0  0  0  0  0  0  0  0  0
    8.3354   13.1680   22.8549 C   0  0  0  0  0  0  0  0  0  0  0  0
    7.4272   12.6342   23.7991 N   0  0  0  0  0  0  0  0  0  0  0  0
    7.5957   11.5071   24.8031 C   0  0  0  0  0  0  0  0  0  0  0  0
    8.4783   10.7780   24.9720 O   0  0  0  0  0  0  0  0  0  0  0  0
    6.4429   11.4851   25.7114 C   0  0  0  0  0  0  0  0  0  0  0  0
    5.8615   10.2550   26.0114 C   0  0  0  0  0  0  0  0  0  0  0  0
    4.8382   10.2268   26.9394 C   0  0  0  0  0  0  0  0  0  0  0  0
    4.2638    9.0663   27.3587 O   0  0  0  0  0  0  0  0  0  0  0  0
    4.3692   11.4014   27.5171 C   0  0  0  0  0  0  0  0  0  0  0  0
    4.9710   12.6239   27.2276 C   0  0  0  0  0  0  0  0  0  0  0  0
    6.0574   12.6801   26.3584 C   0  0  0  0  0  0  0  0  0  0  0  0
    6.7551   14.0037   26.1749 C   0  0  0  0  0  0  0  0  0  0  0  0
   11.4228   15.0550   22.5574 C   0  0  0  0  0  0  0  0  0  0  0  0
   11.8436   15.3319   21.2935 O   0  0  0  0  0  0  0  0  0  0  0  0
  1  2  1  0
  2  3  2  0
  3  4  1  0
  4  5  1  0
  5  6  1  0
  6  7  1  0
  7  8  1  0
  8  9  2  0
  8 10  1  0
 10 11  2  0
 11 12  1  0
 12 13  1  0
 12 14  2  0
 14 15  1  0
 15 16  2  0
 16 17  1  0
  4 18  2  0
 18 19  1  0
 19  2  1  0
 16 10  1  0
M  END
>  <energy_score>  (3826) 
-20.078065

>  <inchikey>  (3826) 
XMEBKAHQBYWMCY-UHFFFAOYSA-N

>  <smiles>  (3826) 
Cc1nc(CCNC(=O)c2cc(O)ccc2C)co1

>  <ref_pdb>  (3826) 
A0514a

>  <alias>  (3826) 
XMEBKAHQBYWMCY-UHFFFAOYSA-N-P637-P178-P637-601502

>  <HIPPO Pose ID>  (3826) 
503705

>  <name>  (3826) 
XMEBKAHQBYWMCY-UHFFFAOYSA-N-P637-P178-P637-601502

>  <HIPPO Compound ID>  (3826) 
306298

>  <ref_mols>  (3826) 
A3408a,A5594a

>  <distance_score>  (3826) 
1.835343

>  <inspiration_score>  (3826) 
None

$$$$
TWFRZASFWPOYPK-UHFFFAOYSA-N-P637-P178-P637-601502
     RDKit          3D

 19 20  0  0  0  0  0  0  0  0999 V2000
    4.5454   13.7071   26.1265 C   0  0  0  0  0  0  0  0  0  0  0  0
    5.5770   12.6726   25.7677 C   0  0  0  0  0  0  0  0  0  0  0  0
    5.3656   11.3482   26.1673 C   0  0  0  0  0  0  0  0  0  0  0  0
    6.2399   10.3396   25.7733 C   0  0  0  0  0  0  0  0  0  0  0  0
    7.3860   10.6430   25.0448 C   0  0  0  0  0  0  0  0  0  0  0  0
    7.6403   11.9680   24.6870 C   0  0  0  0  0  0  0  0  0  0  0  0
    8.9782   12.2924   24.0972 C   0  0  0  0  0  0  0  0  0  0  0  0
    9.3882   11.6974   23.1851 O   0  0  0  0  0  0  0  0  0  0  0  0
    9.6182   13.4312   24.9172 N   0  0  0  0  0  0  0  0  0  0  0  0
   10.8596   14.1408   24.7255 C   0  0  1  0  0  0  0  0  0  0  0  0
   11.9885   13.3191   24.1359 C   0  0  0  0  0  0  0  0  0  0  0  0
   10.6153   15.4564   24.0027 C   0  0  0  0  0  0  0  0  0  0  0  0
   10.4262   15.3250   22.5523 C   0  0  0  0  0  0  0  0  0  0  0  0
   11.3768   15.3223   21.5586 C   0  0  0  0  0  0  0  0  0  0  0  0
   10.7323   15.2190   20.3691 O   0  0  0  0  0  0  0  0  0  0  0  0
    9.4234   15.1726   20.7211 C   0  0  0  0  0  0  0  0  0  0  0  0
    9.1749   15.2172   22.0076 N   0  0  0  0  0  0  0  0  0  0  0  0
    6.6927   12.9765   24.9604 C   0  0  0  0  0  0  0  0  0  0  0  0
    6.8454   14.3460   24.3588 C   0  0  0  0  0  0  0  0  0  0  0  0
  1  2  1  0
  2  3  2  0
  3  4  1  0
  4  5  2  0
  5  6  1  0
  6  7  1  0
  7  8  2  0
  7  9  1  0
  9 10  1  0
 10 11  1  6
 10 12  1  0
 12 13  1  0
 13 14  2  0
 14 15  1  0
 15 16  1  0
 16 17  2  0
  6 18  2  0
 18 19  1  0
 18  2  1  0
 17 13  1  0
M  END
>  <energy_score>  (3827) 
-7.223807

>  <inchikey>  (3827) 
TWFRZASFWPOYPK-UHFFFAOYSA-N

>  <smiles>  (3827) 
Cc1cccc(C(=O)NC(C)Cc2cocn2)c1C

>  <ref_pdb>  (3827) 
A0514a

>  <alias>  (3827) 
TWFRZASFWPOYPK-UHFFFAOYSA-N-P637-P178-P637-601502

>  <HIPPO Pose ID>  (3827) 
503708

>  <name>  (3827) 
TWFRZASFWPOYPK-UHFFFAOYSA-N-P637-P178-P637-601502

>  <HIPPO Compound ID>  (3827) 
306301

>  <ref_mols>  (3827) 
A3408a,A5594a

>  <distance_score>  (3827) 
1.645292

>  <inspiration_score>  (3827) 
None

$$$$
IVLUXAZQIRRFDV-UHFFFAOYSA-N-P637-P178-P637-601502
     RDKit          3D

 19 20  0  0  0  0  0  0  0  0999 V2000
    7.4250   14.4463   24.8582 C   0  0  0  0  0  0  0  0  0  0  0  0
    7.1955   13.0189   25.2426 C   0  0  0  0  0  0  0  0  0  0  0  0
    6.0620   12.7463   26.0360 C   0  0  0  0  0  0  0  0  0  0  0  0
    5.6619   11.4400   26.2908 C   0  0  0  0  0  0  0  0  0  0  0  0
    4.2925   11.1427   27.2862 Cl  0  0  0  0  0  0  0  0  0  0  0  0
    6.3652   10.3821   25.7360 C   0  0  0  0  0  0  0  0  0  0  0  0
    7.5082   10.6317   24.9688 C   0  0  0  0  0  0  0  0  0  0  0  0
    7.9575   11.9476   24.7421 C   0  0  0  0  0  0  0  0  0  0  0  0
    9.1833   12.1019   23.8829 C   0  0  0  0  0  0  0  0  0  0  0  0
    9.2255   11.4407   22.9249 O   0  0  0  0  0  0  0  0  0  0  0  0
   10.2018   13.1174   24.4427 N   0  0  0  0  0  0  0  0  0  0  0  0
   11.4588   13.6073   23.8825 C   0  0  2  0  0  0  0  0  0  0  0  0
   12.5960   13.5591   24.8815 C   0  0  0  0  0  0  0  0  0  0  0  0
   11.3351   15.0537   23.3949 C   0  0  0  0  0  0  0  0  0  0  0  0
   10.3781   15.1449   22.2907 C   0  0  0  0  0  0  0  0  0  0  0  0
   10.6019   14.9652   20.9504 C   0  0  0  0  0  0  0  0  0  0  0  0
    9.4021   15.0615   20.3219 O   0  0  0  0  0  0  0  0  0  0  0  0
    8.5230   15.2756   21.3318 C   0  0  0  0  0  0  0  0  0  0  0  0
    9.0497   15.3637   22.5269 N   0  0  0  0  0  0  0  0  0  0  0  0
  1  2  1  0
  2  3  2  0
  3  4  1  0
  4  5  1  0
  4  6  2  0
  6  7  1  0
  7  8  2  0
  8  9  1  0
  9 10  2  0
  9 11  1  0
 11 12  1  0
 12 13  1  1
 12 14  1  0
 14 15  1  0
 15 16  2  0
 16 17  1  0
 17 18  1  0
 18 19  2  0
  8  2  1  0
 19 15  1  0
M  END
>  <energy_score>  (3828) 
-4.125073

>  <inchikey>  (3828) 
IVLUXAZQIRRFDV-UHFFFAOYSA-N

>  <smiles>  (3828) 
Cc1cc(Cl)ccc1C(=O)NC(C)Cc1cocn1

>  <ref_pdb>  (3828) 
A0514a

>  <alias>  (3828) 
IVLUXAZQIRRFDV-UHFFFAOYSA-N-P637-P178-P637-601502

>  <HIPPO Pose ID>  (3828) 
503710

>  <name>  (3828) 
IVLUXAZQIRRFDV-UHFFFAOYSA-N-P637-P178-P637-601502

>  <HIPPO Compound ID>  (3828) 
306303

>  <ref_mols>  (3828) 
A3408a,A5594a

>  <distance_score>  (3828) 
1.295297

>  <inspiration_score>  (3828) 
None

$$$$
IPZLCXUWTRRBKQ-UHFFFAOYSA-N-P637-P178-P637-601502
     RDKit          3D

 19 20  0  0  0  0  0  0  0  0999 V2000
    7.1085   14.6480   25.1973 C   0  0  0  0  0  0  0  0  0  0  0  0
    6.6200   13.2944   25.6130 C   0  0  0  0  0  0  0  0  0  0  0  0
    5.7476   13.1741   26.6922 C   0  0  0  0  0  0  0  0  0  0  0  0
    5.3033   11.9196   27.0881 C   0  0  0  0  0  0  0  0  0  0  0  0
    5.7340   10.7746   26.4235 C   0  0  0  0  0  0  0  0  0  0  0  0
    5.2563    9.6147   26.9460 O   0  0  0  0  0  0  0  0  0  0  0  0
    6.6046   10.8583   25.3407 C   0  0  0  0  0  0  0  0  0  0  0  0
    7.0236   12.1352   24.9309 C   0  0  0  0  0  0  0  0  0  0  0  0
    7.9383   12.3386   23.7785 C   0  0  0  0  0  0  0  0  0  0  0  0
    7.5133   12.5128   22.7127 O   0  0  0  0  0  0  0  0  0  0  0  0
    9.3784   12.3719   24.2888 N   0  0  0  0  0  0  0  0  0  0  0  0
   10.6034   12.7212   23.6142 C   0  0  0  0  0  0  0  0  0  0  0  0
   10.9532   14.1985   23.7442 C   0  0  0  0  0  0  0  0  0  0  0  0
   10.2289   14.9989   22.7457 C   0  0  0  0  0  0  0  0  0  0  0  0
    8.9959   15.5306   23.0044 N   0  0  0  0  0  0  0  0  0  0  0  0
    8.6564   16.0790   21.8592 C   0  0  0  0  0  0  0  0  0  0  0  0
    9.5778   15.9677   20.8679 O   0  0  0  0  0  0  0  0  0  0  0  0
   10.6010   15.2912   21.4558 C   0  0  0  0  0  0  0  0  0  0  0  0
   11.7820   15.0211   20.6346 C   0  0  0  0  0  0  0  0  0  0  0  0
  1  2  1  0
  2  3  2  0
  3  4  1  0
  4  5  2  0
  5  6  1  0
  5  7  1  0
  7  8  2  0
  8  9  1  0
  9 10  2  0
  9 11  1  0
 11 12  1  0
 12 13  1  0
 13 14  1  0
 14 15  1  0
 15 16  2  0
 16 17  1  0
 17 18  1  0
 18 19  1  0
  8  2  1  0
 18 14  2  0
M  END
>  <energy_score>  (3829) 
-5.250631

>  <inchikey>  (3829) 
IPZLCXUWTRRBKQ-UHFFFAOYSA-N

>  <smiles>  (3829) 
Cc1ccc(O)cc1C(=O)NCCc1ncoc1C

>  <ref_pdb>  (3829) 
A0514a

>  <alias>  (3829) 
IPZLCXUWTRRBKQ-UHFFFAOYSA-N-P637-P178-P637-601502

>  <HIPPO Pose ID>  (3829) 
503712

>  <name>  (3829) 
IPZLCXUWTRRBKQ-UHFFFAOYSA-N-P637-P178-P637-601502

>  <HIPPO Compound ID>  (3829) 
306305

>  <ref_mols>  (3829) 
A3408a,A5594a

>  <distance_score>  (3829) 
1.776438

>  <inspiration_score>  (3829) 
None

$$$$
DIMDZNCJPOBNHF-UHFFFAOYSA-N-P637-P178-P637-601502
     RDKit          3D

 19 20  0  0  0  0  0  0  0  0999 V2000
    7.2380   13.9589   25.4646 C   0  0  0  0  0  0  0  0  0  0  0  0
    6.4886   12.6761   25.6918 C   0  0  0  0  0  0  0  0  0  0  0  0
    5.3073   12.7924   26.4538 C   0  0  0  0  0  0  0  0  0  0  0  0
    4.5614   11.6753   26.8116 C   0  0  0  0  0  0  0  0  0  0  0  0
    3.4479   11.8570   27.5780 O   0  0  0  0  0  0  0  0  0  0  0  0
    4.9409   10.4131   26.4024 C   0  0  0  0  0  0  0  0  0  0  0  0
    6.0715   10.2848   25.6076 C   0  0  0  0  0  0  0  0  0  0  0  0
    6.8557   11.3953   25.2279 C   0  0  0  0  0  0  0  0  0  0  0  0
    8.1339   11.0126   24.5359 C   0  0  0  0  0  0  0  0  0  0  0  0
    8.4997    9.9299   24.7363 O   0  0  0  0  0  0  0  0  0  0  0  0
    8.7892   12.1486   23.7642 N   0  0  0  0  0  0  0  0  0  0  0  0
   10.0768   12.2334   23.1510 C   0  0  0  0  0  0  0  0  0  0  0  0
   10.7597   13.5587   23.4398 C   0  0  0  0  0  0  0  0  0  0  0  0
   10.1144   14.6230   22.6455 C   0  0  0  0  0  0  0  0  0  0  0  0
    8.8116   15.0037   22.8773 N   0  0  0  0  0  0  0  0  0  0  0  0
    8.5775   15.8704   21.9164 C   0  0  0  0  0  0  0  0  0  0  0  0
    9.6046   16.0657   21.0513 O   0  0  0  0  0  0  0  0  0  0  0  0
   10.5978   15.2719   21.5360 C   0  0  0  0  0  0  0  0  0  0  0  0
   11.8532   15.2410   20.7827 C   0  0  0  0  0  0  0  0  0  0  0  0
  1  2  1  0
  2  3  2  0
  3  4  1  0
  4  5  1  0
  4  6  2  0
  6  7  1  0
  7  8  2  0
  8  9  1  0
  9 10  2  0
  9 11  1  0
 11 12  1  0
 12 13  1  0
 13 14  1  0
 14 15  1  0
 15 16  2  0
 16 17  1  0
 17 18  1  0
 18 19  1  0
  8  2  1  0
 18 14  2  0
M  END
>  <energy_score>  (3830) 
-5.27511

>  <inchikey>  (3830) 
DIMDZNCJPOBNHF-UHFFFAOYSA-N

>  <smiles>  (3830) 
Cc1cc(O)ccc1C(=O)NCCc1ncoc1C

>  <ref_pdb>  (3830) 
A0514a

>  <alias>  (3830) 
DIMDZNCJPOBNHF-UHFFFAOYSA-N-P637-P178-P637-601502

>  <HIPPO Pose ID>  (3830) 
503713

>  <name>  (3830) 
DIMDZNCJPOBNHF-UHFFFAOYSA-N-P637-P178-P637-601502

>  <HIPPO Compound ID>  (3830) 
306306

>  <ref_mols>  (3830) 
A3408a,A5594a

>  <distance_score>  (3830) 
1.269492

>  <inspiration_score>  (3830) 
None

$$$$
DCUJIRWADWUGAN-UHFFFAOYSA-N-P637-P178-P637-601502
     RDKit          3D

 19 20  0  0  0  0  0  0  0  0999 V2000
    6.8114   14.0935   24.3697 C   0  0  0  0  0  0  0  0  0  0  0  0
    6.5066   12.8533   25.1598 C   0  0  0  0  0  0  0  0  0  0  0  0
    5.3987   12.8827   26.0204 C   0  0  0  0  0  0  0  0  0  0  0  0
    4.9599   11.7176   26.6413 C   0  0  0  0  0  0  0  0  0  0  0  0
    3.8717   11.7251   27.4628 O   0  0  0  0  0  0  0  0  0  0  0  0
    5.5949   10.5074   26.4117 C   0  0  0  0  0  0  0  0  0  0  0  0
    6.7277   10.4743   25.6011 C   0  0  0  0  0  0  0  0  0  0  0  0
    7.2247   11.6524   25.0250 C   0  0  0  0  0  0  0  0  0  0  0  0
    8.4802   11.5326   24.2290 C   0  0  0  0  0  0  0  0  0  0  0  0
    8.5896   10.6116   23.5256 O   0  0  0  0  0  0  0  0  0  0  0  0
    9.3968   12.7551   24.4227 N   0  0  0  0  0  0  0  0  0  0  0  0
   10.6932   13.0558   23.8576 C   0  0  1  0  0  0  0  0  0  0  0  0
   10.6594   12.7045   22.3808 C   0  0  0  0  0  0  0  0  0  0  0  0
   11.1086   14.5203   24.0839 C   0  0  0  0  0  0  0  0  0  0  0  0
   10.5256   15.3949   23.0413 C   0  0  0  0  0  0  0  0  0  0  0  0
   11.1357   15.8704   21.9028 C   0  0  0  0  0  0  0  0  0  0  0  0
   10.1673   16.3792   21.0952 O   0  0  0  0  0  0  0  0  0  0  0  0
    9.0261   16.2280   21.8182 C   0  0  0  0  0  0  0  0  0  0  0  0
    9.1747   15.6414   22.9864 N   0  0  0  0  0  0  0  0  0  0  0  0
  1  2  1  0
  2  3  2  0
  3  4  1  0
  4  5  1  0
  4  6  2  0
  6  7  1  0
  7  8  2  0
  8  9  1  0
  9 10  2  0
  9 11  1  0
 11 12  1  0
 12 13  1  6
 12 14  1  0
 14 15  1  0
 15 16  2  0
 16 17  1  0
 17 18  1  0
 18 19  2  0
  8  2  1  0
 19 15  1  0
M  END
>  <energy_score>  (3831) 
-19.701038

>  <inchikey>  (3831) 
DCUJIRWADWUGAN-UHFFFAOYSA-N

>  <smiles>  (3831) 
Cc1cc(O)ccc1C(=O)NC(C)Cc1cocn1

>  <ref_pdb>  (3831) 
A0514a

>  <alias>  (3831) 
DCUJIRWADWUGAN-UHFFFAOYSA-N-P637-P178-P637-601502

>  <HIPPO Pose ID>  (3831) 
503715

>  <name>  (3831) 
DCUJIRWADWUGAN-UHFFFAOYSA-N-P637-P178-P637-601502

>  <HIPPO Compound ID>  (3831) 
306308

>  <ref_mols>  (3831) 
A3408a,A5594a

>  <distance_score>  (3831) 
1.480696

>  <inspiration_score>  (3831) 
None

$$$$
HTNQUOAJSUCZCK-UHFFFAOYSA-N-P637-P178-P637-601502
     RDKit          3D

 19 20  0  0  0  0  0  0  0  0999 V2000
    3.1460   12.5985   27.6949 C   0  0  0  0  0  0  0  0  0  0  0  0
    4.3242   12.1965   26.8580 C   0  0  0  0  0  0  0  0  0  0  0  0
    4.5849   10.8529   26.6153 C   0  0  0  0  0  0  0  0  0  0  0  0
    5.6778   10.4937   25.8404 C   0  0  0  0  0  0  0  0  0  0  0  0
    6.5689   11.4576   25.3294 C   0  0  0  0  0  0  0  0  0  0  0  0
    7.8220   10.8715   24.7636 C   0  0  0  0  0  0  0  0  0  0  0  0
    8.0938    9.8132   25.1507 O   0  0  0  0  0  0  0  0  0  0  0  0
    8.5853   11.8110   23.8452 N   0  0  0  0  0  0  0  0  0  0  0  0
    9.8904   11.6969   23.2773 C   0  0  0  0  0  0  0  0  0  0  0  0
   10.7665   12.8055   23.8681 C   0  0  0  0  0  0  0  0  0  0  0  0
   10.7765   14.0120   23.0196 C   0  0  0  0  0  0  0  0  0  0  0  0
   11.7751   14.9437   22.8952 C   0  0  0  0  0  0  0  0  0  0  0  0
   11.5022   15.7057   21.8095 O   0  0  0  0  0  0  0  0  0  0  0  0
   10.3314   15.1869   21.3381 C   0  0  0  0  0  0  0  0  0  0  0  0
    9.9224   15.6482   20.0127 C   0  0  0  0  0  0  0  0  0  0  0  0
    9.7899   14.2589   22.0994 N   0  0  0  0  0  0  0  0  0  0  0  0
    6.3548   12.8228   25.6207 C   0  0  0  0  0  0  0  0  0  0  0  0
    7.2565   13.9702   25.2471 C   0  0  0  0  0  0  0  0  0  0  0  0
    5.2044   13.1646   26.3581 C   0  0  0  0  0  0  0  0  0  0  0  0
  1  2  1  0
  2  3  2  0
  3  4  1  0
  4  5  2  0
  5  6  1  0
  6  7  2  0
  6  8  1  0
  8  9  1  0
  9 10  1  0
 10 11  1  0
 11 12  2  0
 12 13  1  0
 13 14  1  0
 14 15  1  0
 14 16  2  0
  5 17  1  0
 17 18  1  0
 17 19  2  0
 19  2  1  0
 16 11  1  0
M  END
>  <energy_score>  (3832) 
-2.732321

>  <inchikey>  (3832) 
HTNQUOAJSUCZCK-UHFFFAOYSA-N

>  <smiles>  (3832) 
Cc1ccc(C(=O)NCCc2coc(C)n2)c(C)c1

>  <ref_pdb>  (3832) 
A0514a

>  <alias>  (3832) 
HTNQUOAJSUCZCK-UHFFFAOYSA-N-P637-P178-P637-601502

>  <HIPPO Pose ID>  (3832) 
503717

>  <name>  (3832) 
HTNQUOAJSUCZCK-UHFFFAOYSA-N-P637-P178-P637-601502

>  <HIPPO Compound ID>  (3832) 
306310

>  <ref_mols>  (3832) 
A3408a,A5594a

>  <distance_score>  (3832) 
1.705446

>  <inspiration_score>  (3832) 
None

$$$$
HOQCOCVZGRWVMJ-UHFFFAOYSA-N-P637-P178-P637-601502
     RDKit          3D

 19 20  0  0  0  0  0  0  0  0999 V2000
   10.7289   12.7001   22.2595 C   0  0  0  0  0  0  0  0  0  0  0  0
   10.7372   13.0648   23.7216 C   0  0  1  0  0  0  0  0  0  0  0  0
   11.0912   14.5432   23.9544 C   0  0  0  0  0  0  0  0  0  0  0  0
   10.4914   15.4076   22.9167 C   0  0  0  0  0  0  0  0  0  0  0  0
   11.0806   15.8751   21.7647 C   0  0  0  0  0  0  0  0  0  0  0  0
   10.0993   16.3941   20.9799 O   0  0  0  0  0  0  0  0  0  0  0  0
    8.9738   16.2531   21.7288 C   0  0  0  0  0  0  0  0  0  0  0  0
    9.1421   15.6727   22.8968 N   0  0  0  0  0  0  0  0  0  0  0  0
    9.4851   12.6794   24.3276 N   0  0  0  0  0  0  0  0  0  0  0  0
    8.1028   12.4527   23.7019 C   0  0  0  0  0  0  0  0  0  0  0  0
    7.7329   12.6140   22.6109 O   0  0  0  0  0  0  0  0  0  0  0  0
    7.1488   12.0592   24.7492 C   0  0  0  0  0  0  0  0  0  0  0  0
    6.9445   10.7207   25.0790 C   0  0  0  0  0  0  0  0  0  0  0  0
    5.9836   10.4150   26.0393 C   0  0  0  0  0  0  0  0  0  0  0  0
    5.2801   11.4325   26.6856 C   0  0  0  0  0  0  0  0  0  0  0  0
    5.5141   12.7682   26.3601 C   0  0  0  0  0  0  0  0  0  0  0  0
    6.4455   13.0953   25.3736 C   0  0  0  0  0  0  0  0  0  0  0  0
    6.6577   14.5126   24.9334 C   0  0  0  0  0  0  0  0  0  0  0  0
    7.9977   14.8876   25.1857 O   0  0  0  0  0  0  0  0  0  0  0  0
  2  1  1  6
  2  3  1  0
  3  4  1  0
  4  5  2  0
  5  6  1  0
  6  7  1  0
  7  8  2  0
  2  9  1  0
  9 10  1  0
 10 11  2  0
 10 12  1  0
 12 13  2  0
 13 14  1  0
 14 15  2  0
 15 16  1  0
 16 17  2  0
 17 18  1  0
 18 19  1  0
  8  4  1  0
 17 12  1  0
M  END
>  <energy_score>  (3833) 
-24.515435

>  <inchikey>  (3833) 
HOQCOCVZGRWVMJ-UHFFFAOYSA-N

>  <smiles>  (3833) 
CC(Cc1cocn1)NC(=O)c1ccccc1CO

>  <ref_pdb>  (3833) 
A0514a

>  <alias>  (3833) 
HOQCOCVZGRWVMJ-UHFFFAOYSA-N-P637-P178-P637-601502

>  <HIPPO Pose ID>  (3833) 
503721

>  <name>  (3833) 
HOQCOCVZGRWVMJ-UHFFFAOYSA-N-P637-P178-P637-601502

>  <HIPPO Compound ID>  (3833) 
306314

>  <ref_mols>  (3833) 
A3408a,A5594a

>  <distance_score>  (3833) 
1.95967

>  <inspiration_score>  (3833) 
None

$$$$
ZQWQSLMHSKINMQ-UHFFFAOYSA-N-P637-P178-P637-601502
     RDKit          3D

 19 20  0  0  0  0  0  0  0  0999 V2000
    6.8392   14.1401   24.2699 C   0  0  0  0  0  0  0  0  0  0  0  0
    6.5462   12.9469   25.1274 C   0  0  0  0  0  0  0  0  0  0  0  0
    5.4439   13.0141   25.9927 C   0  0  0  0  0  0  0  0  0  0  0  0
    5.0151   11.8841   26.6776 C   0  0  0  0  0  0  0  0  0  0  0  0
    5.6664   10.6781   26.4767 C   0  0  0  0  0  0  0  0  0  0  0  0
    5.2444    9.6063   27.1525 F   0  0  0  0  0  0  0  0  0  0  0  0
    6.7705   10.5848   25.6411 C   0  0  0  0  0  0  0  0  0  0  0  0
    7.2550   11.7362   25.0132 C   0  0  0  0  0  0  0  0  0  0  0  0
    8.5271   11.5988   24.2420 C   0  0  0  0  0  0  0  0  0  0  0  0
    8.6480   10.6906   23.5242 O   0  0  0  0  0  0  0  0  0  0  0  0
    9.5063   12.7372   24.5852 N   0  0  0  0  0  0  0  0  0  0  0  0
   10.8054   13.0495   24.0445 C   0  0  0  0  0  0  0  0  0  0  0  0
   10.7911   13.0794   22.5309 C   0  0  0  0  0  0  0  0  0  0  0  0
   10.1462   14.3019   22.0346 C   0  0  0  0  0  0  0  0  0  0  0  0
    8.7875   14.4437   21.9419 N   0  0  0  0  0  0  0  0  0  0  0  0
    8.6490   15.6758   21.5098 C   0  0  0  0  0  0  0  0  0  0  0  0
    9.8058   16.3407   21.2655 O   0  0  0  0  0  0  0  0  0  0  0  0
   10.7670   15.4556   21.6330 C   0  0  0  0  0  0  0  0  0  0  0  0
   12.1625   15.8734   21.5287 C   0  0  0  0  0  0  0  0  0  0  0  0
  1  2  1  0
  2  3  2  0
  3  4  1  0
  4  5  2  0
  5  6  1  0
  5  7  1  0
  7  8  2  0
  8  9  1  0
  9 10  2  0
  9 11  1  0
 11 12  1  0
 12 13  1  0
 13 14  1  0
 14 15  1  0
 15 16  2  0
 16 17  1  0
 17 18  1  0
 18 19  1  0
  8  2  1  0
 18 14  2  0
M  END
>  <energy_score>  (3834) 
-1.163801

>  <inchikey>  (3834) 
ZQWQSLMHSKINMQ-UHFFFAOYSA-N

>  <smiles>  (3834) 
Cc1ccc(F)cc1C(=O)NCCc1ncoc1C

>  <ref_pdb>  (3834) 
A0514a

>  <alias>  (3834) 
ZQWQSLMHSKINMQ-UHFFFAOYSA-N-P637-P178-P637-601502

>  <HIPPO Pose ID>  (3834) 
503723

>  <name>  (3834) 
ZQWQSLMHSKINMQ-UHFFFAOYSA-N-P637-P178-P637-601502

>  <HIPPO Compound ID>  (3834) 
306316

>  <ref_mols>  (3834) 
A3408a,A5594a

>  <distance_score>  (3834) 
1.556575

>  <inspiration_score>  (3834) 
None

$$$$
PGAJFGJQXFMSEH-UHFFFAOYSA-N-P637-P178-P637-601502
     RDKit          3D

 20 21  0  0  0  0  0  0  0  0999 V2000
    6.8669   14.2308   24.0483 C   0  0  0  0  0  0  0  0  0  0  0  0
    6.4394   13.1313   24.9744 C   0  0  0  0  0  0  0  0  0  0  0  0
    5.3087   13.3507   25.7725 C   0  0  0  0  0  0  0  0  0  0  0  0
    4.7961   12.3365   26.5759 C   0  0  0  0  0  0  0  0  0  0  0  0
    5.3952   11.0822   26.5732 C   0  0  0  0  0  0  0  0  0  0  0  0
    4.7492    9.8773   27.6147 Cl  0  0  0  0  0  0  0  0  0  0  0  0
    6.5274   10.8525   25.7970 C   0  0  0  0  0  0  0  0  0  0  0  0
    7.1114    9.6490   25.8229 F   0  0  0  0  0  0  0  0  0  0  0  0
    7.0914   11.8891   25.0491 C   0  0  0  0  0  0  0  0  0  0  0  0
    8.3729   11.6211   24.3454 C   0  0  0  0  0  0  0  0  0  0  0  0
    8.4905   10.6150   23.7728 O   0  0  0  0  0  0  0  0  0  0  0  0
    9.3483   12.8069   24.4934 N   0  0  0  0  0  0  0  0  0  0  0  0
   10.6413   13.0424   23.8855 C   0  0  1  0  0  0  0  0  0  0  0  0
   10.5619   12.6407   22.4245 C   0  0  0  0  0  0  0  0  0  0  0  0
   11.1330   14.4900   24.0617 C   0  0  0  0  0  0  0  0  0  0  0  0
   10.6237   15.3603   22.9790 C   0  0  0  0  0  0  0  0  0  0  0  0
   11.2825   15.7707   21.8422 C   0  0  0  0  0  0  0  0  0  0  0  0
   10.3636   16.3284   21.0089 O   0  0  0  0  0  0  0  0  0  0  0  0
    9.2038   16.2661   21.7142 C   0  0  0  0  0  0  0  0  0  0  0  0
    9.2937   15.6901   22.8930 N   0  0  0  0  0  0  0  0  0  0  0  0
  1  2  1  0
  2  3  2  0
  3  4  1  0
  4  5  2  0
  5  6  1  0
  5  7  1  0
  7  8  1  0
  7  9  2  0
  9 10  1  0
 10 11  2  0
 10 12  1  0
 12 13  1  0
 13 14  1  6
 13 15  1  0
 15 16  1  0
 16 17  2  0
 17 18  1  0
 18 19  1  0
 19 20  2  0
  9  2  1  0
 20 16  1  0
M  END
>  <energy_score>  (3835) 
-8.619888

>  <inchikey>  (3835) 
PGAJFGJQXFMSEH-UHFFFAOYSA-N

>  <smiles>  (3835) 
Cc1ccc(Cl)c(F)c1C(=O)NC(C)Cc1cocn1

>  <ref_pdb>  (3835) 
A0514a

>  <alias>  (3835) 
PGAJFGJQXFMSEH-UHFFFAOYSA-N-P637-P178-P637-601502

>  <HIPPO Pose ID>  (3835) 
503724

>  <name>  (3835) 
PGAJFGJQXFMSEH-UHFFFAOYSA-N-P637-P178-P637-601502

>  <HIPPO Compound ID>  (3835) 
306317

>  <ref_mols>  (3835) 
A3408a,A5594a

>  <distance_score>  (3835) 
1.360125

>  <inspiration_score>  (3835) 
None

$$$$
OUOMNUIAOVKRTQ-UHFFFAOYSA-N-P637-P178-P637-601502
     RDKit          3D

 20 21  0  0  0  0  0  0  0  0999 V2000
   10.2209   15.7491   19.7079 C   0  0  0  0  0  0  0  0  0  0  0  0
   10.3377   15.2824   21.0927 C   0  0  0  0  0  0  0  0  0  0  0  0
   10.1171   14.0788   21.5703 N   0  0  0  0  0  0  0  0  0  0  0  0
   10.6662   14.1280   22.8227 C   0  0  0  0  0  0  0  0  0  0  0  0
   10.9186   12.9008   23.5966 C   0  0  0  0  0  0  0  0  0  0  0  0
   10.0033   11.7501   23.1873 C   0  0  0  0  0  0  0  0  0  0  0  0
    8.6732   11.9051   23.6870 N   0  0  0  0  0  0  0  0  0  0  0  0
    8.1170   12.8483   24.7462 C   0  0  0  0  0  0  0  0  0  0  0  0
    8.6311   13.7085   25.3339 O   0  0  0  0  0  0  0  0  0  0  0  0
    6.7329   12.5258   25.1278 C   0  0  0  0  0  0  0  0  0  0  0  0
    6.3139   11.2491   25.5521 C   0  0  0  0  0  0  0  0  0  0  0  0
    7.1107   10.0112   25.3329 C   0  0  0  0  0  0  0  0  0  0  0  0
    5.0957   11.1388   26.2341 C   0  0  0  0  0  0  0  0  0  0  0  0
    4.3265   12.2747   26.4843 C   0  0  0  0  0  0  0  0  0  0  0  0
    4.7339   13.5186   26.0035 C   0  0  0  0  0  0  0  0  0  0  0  0
    3.7409   14.8950   26.2931 Cl  0  0  0  0  0  0  0  0  0  0  0  0
    5.9350   13.6395   25.3255 C   0  0  0  0  0  0  0  0  0  0  0  0
    6.3728   14.8298   24.8909 F   0  0  0  0  0  0  0  0  0  0  0  0
   11.0348   15.4129   23.1161 C   0  0  0  0  0  0  0  0  0  0  0  0
   10.8634   16.1611   21.9969 O   0  0  0  0  0  0  0  0  0  0  0  0
  1  2  1  0
  2  3  2  0
  3  4  1  0
  4  5  1  0
  5  6  1  0
  6  7  1  0
  7  8  1  0
  8  9  2  0
  8 10  1  0
 10 11  2  0
 11 12  1  0
 11 13  1  0
 13 14  2  0
 14 15  1  0
 15 16  1  0
 15 17  2  0
 17 18  1  0
  4 19  2  0
 19 20  1  0
 20  2  1  0
 17 10  1  0
M  END
>  <energy_score>  (3836) 
-4.277791

>  <inchikey>  (3836) 
OUOMNUIAOVKRTQ-UHFFFAOYSA-N

>  <smiles>  (3836) 
Cc1nc(CCNC(=O)c2c(C)ccc(Cl)c2F)co1

>  <ref_pdb>  (3836) 
A0514a

>  <alias>  (3836) 
OUOMNUIAOVKRTQ-UHFFFAOYSA-N-P637-P178-P637-601502

>  <HIPPO Pose ID>  (3836) 
503728

>  <name>  (3836) 
OUOMNUIAOVKRTQ-UHFFFAOYSA-N-P637-P178-P637-601502

>  <HIPPO Compound ID>  (3836) 
306321

>  <ref_mols>  (3836) 
A3408a,A5594a

>  <distance_score>  (3836) 
1.668663

>  <inspiration_score>  (3836) 
None

$$$$
VRLICSYDIMFDJM-UHFFFAOYSA-N-P637-P178-P637-601502
     RDKit          3D

 20 21  0  0  0  0  0  0  0  0999 V2000
    9.9028   15.6426   19.9382 C   0  0  0  0  0  0  0  0  0  0  0  0
   10.4155   15.2544   21.2500 C   0  0  0  0  0  0  0  0  0  0  0  0
    9.9474   14.3648   22.1005 N   0  0  0  0  0  0  0  0  0  0  0  0
   10.9951   14.1917   22.9692 C   0  0  0  0  0  0  0  0  0  0  0  0
   11.0608   13.0548   23.9074 C   0  0  0  0  0  0  0  0  0  0  0  0
   10.0498   11.9731   23.5551 C   0  0  0  0  0  0  0  0  0  0  0  0
    8.8529   12.1537   24.3144 N   0  0  0  0  0  0  0  0  0  0  0  0
    7.6473   11.2444   24.4900 C   0  0  0  0  0  0  0  0  0  0  0  0
    7.4580   10.1677   24.1107 O   0  0  0  0  0  0  0  0  0  0  0  0
    6.5599   11.9751   25.2345 C   0  0  0  0  0  0  0  0  0  0  0  0
    5.7373   11.2595   26.1319 C   0  0  0  0  0  0  0  0  0  0  0  0
    5.7359    9.7741   26.2559 C   0  0  0  0  0  0  0  0  0  0  0  0
    4.7742   11.9357   26.8887 C   0  0  0  0  0  0  0  0  0  0  0  0
    4.6196   13.3037   26.7545 C   0  0  0  0  0  0  0  0  0  0  0  0
    3.3241   14.2082   27.7923 Br  0  0  0  0  0  0  0  0  0  0  0  0
    5.3758   14.0087   25.8273 C   0  0  0  0  0  0  0  0  0  0  0  0
    6.3169   13.3529   25.0197 C   0  0  0  0  0  0  0  0  0  0  0  0
    6.9451   14.1739   23.9196 C   0  0  0  0  0  0  0  0  0  0  0  0
   11.9676   15.1206   22.7092 C   0  0  0  0  0  0  0  0  0  0  0  0
   11.6079   15.8111   21.6036 O   0  0  0  0  0  0  0  0  0  0  0  0
  1  2  1  0
  2  3  2  0
  3  4  1  0
  4  5  1  0
  5  6  1  0
  6  7  1  0
  7  8  1  0
  8  9  2  0
  8 10  1  0
 10 11  2  0
 11 12  1  0
 11 13  1  0
 13 14  2  0
 14 15  1  0
 14 16  1  0
 16 17  2  0
 17 18  1  0
  4 19  2  0
 19 20  1  0
 20  2  1  0
 17 10  1  0
M  END
>  <energy_score>  (3837) 
-10.69994

>  <inchikey>  (3837) 
VRLICSYDIMFDJM-UHFFFAOYSA-N

>  <smiles>  (3837) 
Cc1nc(CCNC(=O)c2c(C)cc(Br)cc2C)co1

>  <ref_pdb>  (3837) 
A0514a

>  <alias>  (3837) 
VRLICSYDIMFDJM-UHFFFAOYSA-N-P637-P178-P637-601502

>  <HIPPO Pose ID>  (3837) 
503731

>  <name>  (3837) 
VRLICSYDIMFDJM-UHFFFAOYSA-N-P637-P178-P637-601502

>  <HIPPO Compound ID>  (3837) 
306324

>  <ref_mols>  (3837) 
A3408a,A5594a

>  <distance_score>  (3837) 
1.75746

>  <inspiration_score>  (3837) 
None

$$$$
FMSFFLCCDSBKCL-UHFFFAOYSA-N-P637-P178-P637-601502
     RDKit          3D

 20 21  0  0  0  0  0  0  0  0999 V2000
    6.4614   14.9514   25.0597 C   0  0  0  0  0  0  0  0  0  0  0  0
    6.0711   13.5659   25.4887 C   0  0  0  0  0  0  0  0  0  0  0  0
    4.9036   13.3675   26.2306 C   0  0  0  0  0  0  0  0  0  0  0  0
    4.5350   12.0874   26.6353 C   0  0  0  0  0  0  0  0  0  0  0  0
    2.9910   11.8565   27.7065 Br  0  0  0  0  0  0  0  0  0  0  0  0
    5.2901   10.9807   26.2632 C   0  0  0  0  0  0  0  0  0  0  0  0
    6.4815   11.1554   25.5436 C   0  0  0  0  0  0  0  0  0  0  0  0
    7.2710    9.9408   25.1922 C   0  0  0  0  0  0  0  0  0  0  0  0
    6.8875   12.4645   25.2008 C   0  0  0  0  0  0  0  0  0  0  0  0
    8.2657   12.7788   24.7328 C   0  0  0  0  0  0  0  0  0  0  0  0
    8.8474   13.6060   25.3014 O   0  0  0  0  0  0  0  0  0  0  0  0
    8.7065   11.8621   23.6069 N   0  0  0  0  0  0  0  0  0  0  0  0
    9.9789   11.6938   22.9970 C   0  0  0  0  0  0  0  0  0  0  0  0
   10.7698   12.9953   22.9283 C   0  0  0  0  0  0  0  0  0  0  0  0
   10.0935   14.1098   22.2246 C   0  0  0  0  0  0  0  0  0  0  0  0
    8.7295   14.1787   22.0391 N   0  0  0  0  0  0  0  0  0  0  0  0
    8.5641   15.3482   21.4708 C   0  0  0  0  0  0  0  0  0  0  0  0
    9.7038   16.0199   21.1782 O   0  0  0  0  0  0  0  0  0  0  0  0
   10.6851   15.2304   21.6914 C   0  0  0  0  0  0  0  0  0  0  0  0
   12.0612   15.7136   21.5748 C   0  0  0  0  0  0  0  0  0  0  0  0
  1  2  1  0
  2  3  2  0
  3  4  1  0
  4  5  1  0
  4  6  2  0
  6  7  1  0
  7  8  1  0
  7  9  2  0
  9 10  1  0
 10 11  2  0
 10 12  1  0
 12 13  1  0
 13 14  1  0
 14 15  1  0
 15 16  1  0
 16 17  2  0
 17 18  1  0
 18 19  1  0
 19 20  1  0
  9  2  1  0
 19 15  2  0
M  END
>  <energy_score>  (3838) 
-3.292593

>  <inchikey>  (3838) 
FMSFFLCCDSBKCL-UHFFFAOYSA-N

>  <smiles>  (3838) 
Cc1cc(Br)cc(C)c1C(=O)NCCc1ncoc1C

>  <ref_pdb>  (3838) 
A0514a

>  <alias>  (3838) 
FMSFFLCCDSBKCL-UHFFFAOYSA-N-P637-P178-P637-601502

>  <HIPPO Pose ID>  (3838) 
503732

>  <name>  (3838) 
FMSFFLCCDSBKCL-UHFFFAOYSA-N-P637-P178-P637-601502

>  <HIPPO Compound ID>  (3838) 
306325

>  <ref_mols>  (3838) 
A3408a,A5594a

>  <distance_score>  (3838) 
1.880651

>  <inspiration_score>  (3838) 
None

$$$$
SULAVEFHJJZJQW-UHFFFAOYSA-N-P637-P178-P637-601502
     RDKit          3D

 20 21  0  0  0  0  0  0  0  0999 V2000
    6.7231    9.8550   25.4869 C   0  0  0  0  0  0  0  0  0  0  0  0
    6.4680   11.3165   25.5511 C   0  0  0  0  0  0  0  0  0  0  0  0
    5.2945   11.7069   26.2131 C   0  0  0  0  0  0  0  0  0  0  0  0
    4.4926   10.7834   26.7636 F   0  0  0  0  0  0  0  0  0  0  0  0
    4.9317   13.0362   26.3371 C   0  0  0  0  0  0  0  0  0  0  0  0
    5.7367   14.0107   25.7690 C   0  0  0  0  0  0  0  0  0  0  0  0
    6.8919   13.6438   25.0845 C   0  0  0  0  0  0  0  0  0  0  0  0
    7.6114   14.6802   24.5585 O   0  0  0  0  0  0  0  0  0  0  0  0
    7.2905   12.3051   24.9835 C   0  0  0  0  0  0  0  0  0  0  0  0
    8.5829   11.9732   24.2967 C   0  0  0  0  0  0  0  0  0  0  0  0
    8.6432   11.0191   23.6327 O   0  0  0  0  0  0  0  0  0  0  0  0
    9.6432   13.0560   24.5902 N   0  0  0  0  0  0  0  0  0  0  0  0
   10.9720   13.2403   24.0496 C   0  0  2  0  0  0  0  0  0  0  0  0
   11.6015   14.5256   24.5799 C   0  0  0  0  0  0  0  0  0  0  0  0
   10.9407   13.1987   22.5229 C   0  0  0  0  0  0  0  0  0  0  0  0
   10.2423   14.3518   21.9237 C   0  0  0  0  0  0  0  0  0  0  0  0
   10.7639   15.2713   21.0487 C   0  0  0  0  0  0  0  0  0  0  0  0
    9.7907   16.1716   20.7674 O   0  0  0  0  0  0  0  0  0  0  0  0
    8.7314   15.7547   21.5091 C   0  0  0  0  0  0  0  0  0  0  0  0
    8.9287   14.6596   22.2110 N   0  0  0  0  0  0  0  0  0  0  0  0
  1  2  1  0
  2  3  2  0
  3  4  1  0
  3  5  1  0
  5  6  2  0
  6  7  1  0
  7  8  1  0
  7  9  2  0
  9 10  1  0
 10 11  2  0
 10 12  1  0
 12 13  1  0
 13 14  1  6
 13 15  1  0
 15 16  1  0
 16 17  2  0
 17 18  1  0
 18 19  1  0
 19 20  2  0
  9  2  1  0
 20 16  1  0
M  END
>  <energy_score>  (3839) 
-28.8708

>  <inchikey>  (3839) 
SULAVEFHJJZJQW-UHFFFAOYSA-N

>  <smiles>  (3839) 
Cc1c(F)ccc(O)c1C(=O)NC(C)Cc1cocn1

>  <ref_pdb>  (3839) 
A0514a

>  <alias>  (3839) 
SULAVEFHJJZJQW-UHFFFAOYSA-N-P637-P178-P637-601502

>  <HIPPO Pose ID>  (3839) 
503734

>  <name>  (3839) 
SULAVEFHJJZJQW-UHFFFAOYSA-N-P637-P178-P637-601502

>  <HIPPO Compound ID>  (3839) 
306327

>  <ref_mols>  (3839) 
A3408a,A5594a

>  <distance_score>  (3839) 
1.420848

>  <inspiration_score>  (3839) 
None

$$$$
DDUFQGTZUGBRQE-UHFFFAOYSA-N-P637-P178-P637-601502
     RDKit          3D

 20 21  0  0  0  0  0  0  0  0999 V2000
    9.9527   15.6306   20.0179 C   0  0  0  0  0  0  0  0  0  0  0  0
   10.3457   15.1265   21.3344 C   0  0  0  0  0  0  0  0  0  0  0  0
    9.8034   14.1679   22.0587 N   0  0  0  0  0  0  0  0  0  0  0  0
   10.7531   13.9371   23.0201 C   0  0  0  0  0  0  0  0  0  0  0  0
   10.7102   12.7479   23.8919 C   0  0  0  0  0  0  0  0  0  0  0  0
    9.7523   11.6685   23.3737 C   0  0  0  0  0  0  0  0  0  0  0  0
    8.4508   11.9366   23.9190 N   0  0  0  0  0  0  0  0  0  0  0  0
    7.6471   11.1905   24.9859 C   0  0  0  0  0  0  0  0  0  0  0  0
    7.8737   10.1970   25.5401 O   0  0  0  0  0  0  0  0  0  0  0  0
    6.4401   11.9491   25.4159 C   0  0  0  0  0  0  0  0  0  0  0  0
    6.4817   13.3557   25.4320 C   0  0  0  0  0  0  0  0  0  0  0  0
    7.5609   14.1019   25.0365 O   0  0  0  0  0  0  0  0  0  0  0  0
    5.4260   14.0978   25.9406 C   0  0  0  0  0  0  0  0  0  0  0  0
    4.3501   13.4453   26.5211 C   0  0  0  0  0  0  0  0  0  0  0  0
    4.3340   12.0609   26.5772 C   0  0  0  0  0  0  0  0  0  0  0  0
    3.2933   11.4715   27.1852 F   0  0  0  0  0  0  0  0  0  0  0  0
    5.3516   11.2881   26.0180 C   0  0  0  0  0  0  0  0  0  0  0  0
    5.2469    9.8074   26.1784 C   0  0  0  0  0  0  0  0  0  0  0  0
   11.7445   14.8812   22.9343 C   0  0  0  0  0  0  0  0  0  0  0  0
   11.4967   15.6502   21.8482 O   0  0  0  0  0  0  0  0  0  0  0  0
  1  2  1  0
  2  3  2  0
  3  4  1  0
  4  5  1  0
  5  6  1  0
  6  7  1  0
  7  8  1  0
  8  9  2  0
  8 10  1  0
 10 11  2  0
 11 12  1  0
 11 13  1  0
 13 14  2  0
 14 15  1  0
 15 16  1  0
 15 17  2  0
 17 18  1  0
  4 19  2  0
 19 20  1  0
 20  2  1  0
 17 10  1  0
M  END
>  <energy_score>  (3840) 
-20.432202

>  <inchikey>  (3840) 
DDUFQGTZUGBRQE-UHFFFAOYSA-N

>  <smiles>  (3840) 
Cc1nc(CCNC(=O)c2c(O)ccc(F)c2C)co1

>  <ref_pdb>  (3840) 
A0514a

>  <alias>  (3840) 
DDUFQGTZUGBRQE-UHFFFAOYSA-N-P637-P178-P637-601502

>  <HIPPO Pose ID>  (3840) 
503735

>  <name>  (3840) 
DDUFQGTZUGBRQE-UHFFFAOYSA-N-P637-P178-P637-601502

>  <HIPPO Compound ID>  (3840) 
306328

>  <ref_mols>  (3840) 
A3408a,A5594a

>  <distance_score>  (3840) 
1.643325

>  <inspiration_score>  (3840) 
None

$$$$
YIPCBTMPVKIVCZ-UHFFFAOYSA-N-P637-P178-P637-601502
     RDKit          3D

 20 21  0  0  0  0  0  0  0  0999 V2000
   11.6629   15.2454   20.1378 C   0  0  0  0  0  0  0  0  0  0  0  0
   10.5728   15.4050   21.1006 C   0  0  0  0  0  0  0  0  0  0  0  0
    9.3472   15.7598   20.6325 O   0  0  0  0  0  0  0  0  0  0  0  0
    8.5744   15.8049   21.7504 C   0  0  0  0  0  0  0  0  0  0  0  0
    9.1817   15.4663   22.8641 N   0  0  0  0  0  0  0  0  0  0  0  0
   10.4718   15.2205   22.4548 C   0  0  0  0  0  0  0  0  0  0  0  0
   11.5076   14.6499   23.3410 C   0  0  0  0  0  0  0  0  0  0  0  0
   11.4583   13.1225   23.2231 C   0  0  0  0  0  0  0  0  0  0  0  0
   10.1553   12.6366   23.5915 N   0  0  0  0  0  0  0  0  0  0  0  0
    9.2104   13.0818   24.6956 C   0  0  0  0  0  0  0  0  0  0  0  0
    9.2912   13.9664   25.4461 O   0  0  0  0  0  0  0  0  0  0  0  0
    7.9144   12.3196   24.8152 C   0  0  0  0  0  0  0  0  0  0  0  0
    6.8423   13.1031   25.3133 C   0  0  0  0  0  0  0  0  0  0  0  0
    6.8796   14.4746   25.3340 O   0  0  0  0  0  0  0  0  0  0  0  0
    5.6819   12.5469   25.8368 C   0  0  0  0  0  0  0  0  0  0  0  0
    5.5536   11.1742   25.8589 C   0  0  0  0  0  0  0  0  0  0  0  0
    6.5436   10.3995   25.2667 C   0  0  0  0  0  0  0  0  0  0  0  0
    6.3264    9.0838   25.1906 F   0  0  0  0  0  0  0  0  0  0  0  0
    7.7276   10.9289   24.7162 C   0  0  0  0  0  0  0  0  0  0  0  0
    8.6395    9.9657   24.0159 C   0  0  0  0  0  0  0  0  0  0  0  0
  1  2  1  0
  2  3  1  0
  3  4  1  0
  4  5  2  0
  5  6  1  0
  6  7  1  0
  7  8  1  0
  8  9  1  0
  9 10  1  0
 10 11  2  0
 10 12  1  0
 12 13  2  0
 13 14  1  0
 13 15  1  0
 15 16  2  0
 16 17  1  0
 17 18  1  0
 17 19  2  0
 19 20  1  0
  6  2  2  0
 19 12  1  0
M  END
>  <energy_score>  (3841) 
-8.999317

>  <inchikey>  (3841) 
YIPCBTMPVKIVCZ-UHFFFAOYSA-N

>  <smiles>  (3841) 
Cc1ocnc1CCNC(=O)c1c(O)ccc(F)c1C

>  <ref_pdb>  (3841) 
A0514a

>  <alias>  (3841) 
YIPCBTMPVKIVCZ-UHFFFAOYSA-N-P637-P178-P637-601502

>  <HIPPO Pose ID>  (3841) 
503736

>  <name>  (3841) 
YIPCBTMPVKIVCZ-UHFFFAOYSA-N-P637-P178-P637-601502

>  <HIPPO Compound ID>  (3841) 
306329

>  <ref_mols>  (3841) 
A3408a,A5594a

>  <distance_score>  (3841) 
1.957173

>  <inspiration_score>  (3841) 
None

$$$$
GYSJRLNDDQFBMJ-UHFFFAOYSA-N-P637-P178-P637-601502
     RDKit          3D

 20 21  0  0  0  0  0  0  0  0999 V2000
   12.1049   16.0665   21.5331 C   0  0  0  0  0  0  0  0  0  0  0  0
   10.7493   15.5327   21.6004 C   0  0  0  0  0  0  0  0  0  0  0  0
    9.7139   16.3203   21.2155 O   0  0  0  0  0  0  0  0  0  0  0  0
    8.6242   15.5458   21.4495 C   0  0  0  0  0  0  0  0  0  0  0  0
    8.8682   14.3338   21.8891 N   0  0  0  0  0  0  0  0  0  0  0  0
   10.2410   14.3253   21.9915 C   0  0  0  0  0  0  0  0  0  0  0  0
   11.0273   13.1901   22.5016 C   0  0  0  0  0  0  0  0  0  0  0  0
   11.0784   13.2056   24.0189 C   0  0  0  0  0  0  0  0  0  0  0  0
    9.7663   12.9701   24.5486 N   0  0  0  0  0  0  0  0  0  0  0  0
    8.6150   12.1151   24.0110 C   0  0  0  0  0  0  0  0  0  0  0  0
    8.5700   11.4039   23.0942 O   0  0  0  0  0  0  0  0  0  0  0  0
    7.3968   12.2017   24.8513 C   0  0  0  0  0  0  0  0  0  0  0  0
    6.7881   11.0341   25.3118 C   0  0  0  0  0  0  0  0  0  0  0  0
    7.4785    9.3646   24.8461 Br  0  0  0  0  0  0  0  0  0  0  0  0
    5.6357   11.0717   26.1018 C   0  0  0  0  0  0  0  0  0  0  0  0
    5.0525   12.2975   26.4037 C   0  0  0  0  0  0  0  0  0  0  0  0
    5.6086   13.4694   25.8935 C   0  0  0  0  0  0  0  0  0  0  0  0
    6.7716   13.4086   25.1178 C   0  0  0  0  0  0  0  0  0  0  0  0
    7.2994   14.6495   24.5717 C   0  0  0  0  0  0  0  0  0  0  0  0
    8.3445   15.0988   25.0211 O   0  0  0  0  0  0  0  0  0  0  0  0
  1  2  1  0
  2  3  1  0
  3  4  1  0
  4  5  2  0
  5  6  1  0
  6  7  1  0
  7  8  1  0
  8  9  1  0
  9 10  1  0
 10 11  2  0
 10 12  1  0
 12 13  2  0
 13 14  1  0
 13 15  1  0
 15 16  2  0
 16 17  1  0
 17 18  2  0
 18 19  1  0
 19 20  2  0
  6  2  2  0
 18 12  1  0
M  END
>  <energy_score>  (3842) 
-27.655941

>  <inchikey>  (3842) 
GYSJRLNDDQFBMJ-UHFFFAOYSA-N

>  <smiles>  (3842) 
Cc1ocnc1CCNC(=O)c1c(Br)cccc1C=O

>  <ref_pdb>  (3842) 
A0514a

>  <alias>  (3842) 
GYSJRLNDDQFBMJ-UHFFFAOYSA-N-P637-P178-P637-601502

>  <HIPPO Pose ID>  (3842) 
503738

>  <name>  (3842) 
GYSJRLNDDQFBMJ-UHFFFAOYSA-N-P637-P178-P637-601502

>  <HIPPO Compound ID>  (3842) 
306331

>  <ref_mols>  (3842) 
A3408a,A5594a

>  <distance_score>  (3842) 
1.585918

>  <inspiration_score>  (3842) 
None

$$$$
SZGRYLWDWLJSGF-UHFFFAOYSA-N-P637-P178-P637-601502
     RDKit          3D

 20 21  0  0  0  0  0  0  0  0999 V2000
   10.2678   15.5497   19.7679 C   0  0  0  0  0  0  0  0  0  0  0  0
   10.4235   15.1183   21.1603 C   0  0  0  0  0  0  0  0  0  0  0  0
   10.2445   13.9202   21.6657 N   0  0  0  0  0  0  0  0  0  0  0  0
   10.7114   14.0282   22.9438 C   0  0  0  0  0  0  0  0  0  0  0  0
   10.8910   12.8431   23.8034 C   0  0  0  0  0  0  0  0  0  0  0  0
   10.0056   11.6572   23.4152 C   0  0  0  0  0  0  0  0  0  0  0  0
    8.7927   11.7325   24.1565 N   0  0  0  0  0  0  0  0  0  0  0  0
    7.4463   12.3209   23.7859 C   0  0  0  0  0  0  0  0  0  0  0  0
    7.0732   12.7755   22.7873 O   0  0  0  0  0  0  0  0  0  0  0  0
    6.6029   12.3443   24.9890 C   0  0  0  0  0  0  0  0  0  0  0  0
    6.1222   11.1913   25.6199 C   0  0  0  0  0  0  0  0  0  0  0  0
    6.5102    9.8180   25.2052 C   0  0  0  0  0  0  0  0  0  0  0  0
    5.2610   11.3363   26.7130 C   0  0  0  0  0  0  0  0  0  0  0  0
    4.9144   12.6066   27.1726 C   0  0  0  0  0  0  0  0  0  0  0  0
    5.4588   13.7459   26.5773 C   0  0  0  0  0  0  0  0  0  0  0  0
    6.3258   13.6042   25.4992 C   0  0  0  0  0  0  0  0  0  0  0  0
    7.0482   14.7745   24.9794 C   0  0  0  0  0  0  0  0  0  0  0  0
    8.2643   14.7477   24.8386 O   0  0  0  0  0  0  0  0  0  0  0  0
   11.0566   15.3303   23.1956 C   0  0  0  0  0  0  0  0  0  0  0  0
   10.9041   16.0390   22.0476 O   0  0  0  0  0  0  0  0  0  0  0  0
  1  2  1  0
  2  3  2  0
  3  4  1  0
  4  5  1  0
  5  6  1  0
  6  7  1  0
  7  8  1  0
  8  9  2  0
  8 10  1  0
 10 11  2  0
 11 12  1  0
 11 13  1  0
 13 14  2  0
 14 15  1  0
 15 16  2  0
 16 17  1  0
 17 18  2  0
  4 19  2  0
 19 20  1  0
 20  2  1  0
 16 10  1  0
M  END
>  <energy_score>  (3843) 
-17.549231

>  <inchikey>  (3843) 
SZGRYLWDWLJSGF-UHFFFAOYSA-N

>  <smiles>  (3843) 
Cc1nc(CCNC(=O)c2c(C)cccc2C=O)co1

>  <ref_pdb>  (3843) 
A0514a

>  <alias>  (3843) 
SZGRYLWDWLJSGF-UHFFFAOYSA-N-P637-P178-P637-601502

>  <HIPPO Pose ID>  (3843) 
503739

>  <name>  (3843) 
SZGRYLWDWLJSGF-UHFFFAOYSA-N-P637-P178-P637-601502

>  <HIPPO Compound ID>  (3843) 
306332

>  <ref_mols>  (3843) 
A3408a,A5594a

>  <distance_score>  (3843) 
1.70335

>  <inspiration_score>  (3843) 
None

$$$$
QDJIOGOLXOIZLK-UHFFFAOYSA-N-P637-P178-P637-601502
     RDKit          3D

 20 21  0  0  0  0  0  0  0  0999 V2000
   10.9593   14.8254   24.5938 C   0  0  0  0  0  0  0  0  0  0  0  0
   10.8520   13.4105   24.0341 C   0  0  2  0  0  0  0  0  0  0  0  0
   11.1415   13.2621   22.5564 C   0  0  0  0  0  0  0  0  0  0  0  0
   10.8180   14.4178   21.7154 C   0  0  0  0  0  0  0  0  0  0  0  0
   11.6445   15.4602   21.3713 C   0  0  0  0  0  0  0  0  0  0  0  0
   11.0217   16.1723   20.4008 O   0  0  0  0  0  0  0  0  0  0  0  0
    9.8513   15.5145   20.2221 C   0  0  0  0  0  0  0  0  0  0  0  0
    9.6426   14.5009   21.0217 N   0  0  0  0  0  0  0  0  0  0  0  0
    9.6202   12.7924   24.4558 N   0  0  0  0  0  0  0  0  0  0  0  0
    8.2997   12.5889   23.7046 C   0  0  0  0  0  0  0  0  0  0  0  0
    8.0175   12.8174   22.6013 O   0  0  0  0  0  0  0  0  0  0  0  0
    7.2830   12.1114   24.6362 C   0  0  0  0  0  0  0  0  0  0  0  0
    7.1404   10.7592   24.9169 C   0  0  0  0  0  0  0  0  0  0  0  0
    8.2904    9.4879   24.1179 Br  0  0  0  0  0  0  0  0  0  0  0  0
    6.1256   10.3528   25.7824 C   0  0  0  0  0  0  0  0  0  0  0  0
    5.2754   11.2947   26.3699 C   0  0  0  0  0  0  0  0  0  0  0  0
    5.4285   12.6501   26.0839 C   0  0  0  0  0  0  0  0  0  0  0  0
    6.4404   13.0534   25.2141 C   0  0  0  0  0  0  0  0  0  0  0  0
    6.6120   14.4842   24.9283 C   0  0  0  0  0  0  0  0  0  0  0  0
    7.7081   14.9881   24.7369 O   0  0  0  0  0  0  0  0  0  0  0  0
  2  1  1  6
  2  3  1  0
  3  4  1  0
  4  5  2  0
  5  6  1  0
  6  7  1  0
  7  8  2  0
  2  9  1  0
  9 10  1  0
 10 11  2  0
 10 12  1  0
 12 13  2  0
 13 14  1  0
 13 15  1  0
 15 16  2  0
 16 17  1  0
 17 18  2  0
 18 19  1  0
 19 20  2  0
  8  4  1  0
 18 12  1  0
M  END
>  <energy_score>  (3844) 
-10.363759

>  <inchikey>  (3844) 
QDJIOGOLXOIZLK-UHFFFAOYSA-N

>  <smiles>  (3844) 
CC(Cc1cocn1)NC(=O)c1c(Br)cccc1C=O

>  <ref_pdb>  (3844) 
A0514a

>  <alias>  (3844) 
QDJIOGOLXOIZLK-UHFFFAOYSA-N-P637-P178-P637-601502

>  <HIPPO Pose ID>  (3844) 
503741

>  <name>  (3844) 
QDJIOGOLXOIZLK-UHFFFAOYSA-N-P637-P178-P637-601502

>  <HIPPO Compound ID>  (3844) 
306334

>  <ref_mols>  (3844) 
A3408a,A5594a

>  <distance_score>  (3844) 
1.9874

>  <inspiration_score>  (3844) 
None

$$$$
UEVQLUTYPHECSR-UHFFFAOYSA-N-P637-P178-P637-601502
     RDKit          3D

 20 21  0  0  0  0  0  0  0  0999 V2000
    6.8329   14.1159   22.8485 C   0  0  0  0  0  0  0  0  0  0  0  0
    7.0202   14.2412   24.3518 C   0  0  0  0  0  0  0  0  0  0  0  0
    6.7867   12.9306   25.0662 C   0  0  0  0  0  0  0  0  0  0  0  0
    5.6663   12.8405   25.9147 C   0  0  0  0  0  0  0  0  0  0  0  0
    5.2416   11.6161   26.4437 C   0  0  0  0  0  0  0  0  0  0  0  0
    4.0507   11.5478   27.3531 C   0  0  0  0  0  0  0  0  0  0  0  0
    5.9434   10.4582   26.1148 C   0  0  0  0  0  0  0  0  0  0  0  0
    7.0831   10.5315   25.3149 C   0  0  0  0  0  0  0  0  0  0  0  0
    7.5403   11.7679   24.8348 C   0  0  0  0  0  0  0  0  0  0  0  0
    8.8275   11.7513   24.0769 C   0  0  0  0  0  0  0  0  0  0  0  0
    8.9920   10.9130   23.2853 O   0  0  0  0  0  0  0  0  0  0  0  0
    9.7612   12.8879   24.5369 N   0  0  0  0  0  0  0  0  0  0  0  0
   11.0622   13.2901   24.0495 C   0  0  2  0  0  0  0  0  0  0  0  0
   11.5289   14.5894   24.6980 C   0  0  0  0  0  0  0  0  0  0  0  0
   11.1245   13.3304   22.5260 C   0  0  0  0  0  0  0  0  0  0  0  0
   10.6032   14.5503   21.8859 C   0  0  0  0  0  0  0  0  0  0  0  0
   11.1227   15.1786   20.7811 C   0  0  0  0  0  0  0  0  0  0  0  0
   10.3244   16.2331   20.4836 O   0  0  0  0  0  0  0  0  0  0  0  0
    9.3756   16.2040   21.4544 C   0  0  0  0  0  0  0  0  0  0  0  0
    9.4919   15.2242   22.3231 N   0  0  0  0  0  0  0  0  0  0  0  0
  1  2  1  0
  2  3  1  0
  3  4  2  0
  4  5  1  0
  5  6  1  0
  5  7  2  0
  7  8  1  0
  8  9  2  0
  9 10  1  0
 10 11  2  0
 10 12  1  0
 12 13  1  0
 13 14  1  1
 13 15  1  0
 15 16  1  0
 16 17  2  0
 17 18  1  0
 18 19  1  0
 19 20  2  0
  9  3  1  0
 20 16  1  0
M  END
>  <energy_score>  (3845) 
-18.048961

>  <inchikey>  (3845) 
UEVQLUTYPHECSR-UHFFFAOYSA-N

>  <smiles>  (3845) 
CCc1cc(C)ccc1C(=O)NC(C)Cc1cocn1

>  <ref_pdb>  (3845) 
A0514a

>  <alias>  (3845) 
UEVQLUTYPHECSR-UHFFFAOYSA-N-P637-P178-P637-601502

>  <HIPPO Pose ID>  (3845) 
503743

>  <name>  (3845) 
UEVQLUTYPHECSR-UHFFFAOYSA-N-P637-P178-P637-601502

>  <HIPPO Compound ID>  (3845) 
306336

>  <ref_mols>  (3845) 
A3408a,A5594a

>  <distance_score>  (3845) 
1.286231

>  <inspiration_score>  (3845) 
None

$$$$
RYGBPVOWLHIDCI-UHFFFAOYSA-N-P637-P178-P637-601502
     RDKit          3D

 20 21  0  0  0  0  0  0  0  0999 V2000
    7.2307   14.1190   22.7979 C   0  0  0  0  0  0  0  0  0  0  0  0
    7.2338   14.1729   24.3182 C   0  0  0  0  0  0  0  0  0  0  0  0
    6.8994   12.8533   24.9808 C   0  0  0  0  0  0  0  0  0  0  0  0
    5.7852   12.8159   25.8407 C   0  0  0  0  0  0  0  0  0  0  0  0
    5.3097   11.6118   26.3749 C   0  0  0  0  0  0  0  0  0  0  0  0
    4.1272   11.5999   27.2975 C   0  0  0  0  0  0  0  0  0  0  0  0
    5.9567   10.4213   26.0448 C   0  0  0  0  0  0  0  0  0  0  0  0
    7.0890   10.4374   25.2314 C   0  0  0  0  0  0  0  0  0  0  0  0
    7.5894   11.6497   24.7393 C   0  0  0  0  0  0  0  0  0  0  0  0
    8.8681   11.5816   23.9715 C   0  0  0  0  0  0  0  0  0  0  0  0
    8.9738   10.8108   23.1092 O   0  0  0  0  0  0  0  0  0  0  0  0
    9.8378   12.6627   24.4626 N   0  0  0  0  0  0  0  0  0  0  0  0
   11.1826   12.9633   24.0583 C   0  0  0  0  0  0  0  0  0  0  0  0
   11.4989   14.4400   24.2237 C   0  0  0  0  0  0  0  0  0  0  0  0
   11.3281   15.1109   22.9292 C   0  0  0  0  0  0  0  0  0  0  0  0
   12.2926   15.7217   22.1742 C   0  0  0  0  0  0  0  0  0  0  0  0
   11.7829   15.9661   20.9539 O   0  0  0  0  0  0  0  0  0  0  0  0
   10.5185   15.4788   21.0296 C   0  0  0  0  0  0  0  0  0  0  0  0
    9.8042   15.4829   19.7630 C   0  0  0  0  0  0  0  0  0  0  0  0
   10.1647   15.0187   22.2121 N   0  0  0  0  0  0  0  0  0  0  0  0
  1  2  1  0
  2  3  1  0
  3  4  2  0
  4  5  1  0
  5  6  1  0
  5  7  2  0
  7  8  1  0
  8  9  2  0
  9 10  1  0
 10 11  2  0
 10 12  1  0
 12 13  1  0
 13 14  1  0
 14 15  1  0
 15 16  2  0
 16 17  1  0
 17 18  1  0
 18 19  1  0
 18 20  2  0
  9  3  1  0
 20 15  1  0
M  END
>  <energy_score>  (3846) 
-20.173912

>  <inchikey>  (3846) 
RYGBPVOWLHIDCI-UHFFFAOYSA-N

>  <smiles>  (3846) 
CCc1cc(C)ccc1C(=O)NCCc1coc(C)n1

>  <ref_pdb>  (3846) 
A0514a

>  <alias>  (3846) 
RYGBPVOWLHIDCI-UHFFFAOYSA-N-P637-P178-P637-601502

>  <HIPPO Pose ID>  (3846) 
503744

>  <name>  (3846) 
RYGBPVOWLHIDCI-UHFFFAOYSA-N-P637-P178-P637-601502

>  <HIPPO Compound ID>  (3846) 
306337

>  <ref_mols>  (3846) 
A3408a,A5594a

>  <distance_score>  (3846) 
1.582389

>  <inspiration_score>  (3846) 
None

$$$$
YAKNLEOVDYKOID-UHFFFAOYSA-N-P637-P178-P637-601502
     RDKit          3D

 20 22  0  0  0  0  0  0  0  0999 V2000
   10.7419   15.4226   26.2640 C   0  0  0  0  0  0  0  0  0  0  0  0
   10.5464   14.6739   24.9400 C   0  0  2  0  0  0  0  0  0  0  0  0
   10.3584   15.7127   23.8412 C   0  0  0  0  0  0  0  0  0  0  0  0
   10.4135   15.2324   22.4517 C   0  0  0  0  0  0  0  0  0  0  0  0
   11.2758   14.3561   21.8457 C   0  0  0  0  0  0  0  0  0  0  0  0
   11.0622   14.4242   20.5045 O   0  0  0  0  0  0  0  0  0  0  0  0
   10.0337   15.2956   20.3761 C   0  0  0  0  0  0  0  0  0  0  0  0
    9.5915   15.7958   21.5038 N   0  0  0  0  0  0  0  0  0  0  0  0
    9.3700   13.8448   25.0501 N   0  0  0  0  0  0  0  0  0  0  0  0
    8.9648   12.5722   24.2772 C   0  0  0  0  0  0  0  0  0  0  0  0
    9.5511   11.9513   23.4861 O   0  0  0  0  0  0  0  0  0  0  0  0
    7.6174   12.1257   24.7509 C   0  0  0  0  0  0  0  0  0  0  0  0
    7.4427   10.7856   25.1119 C   0  0  0  0  0  0  0  0  0  0  0  0
    6.2845   10.4011   25.7824 C   0  0  0  0  0  0  0  0  0  0  0  0
    5.3175   11.3450   26.1038 C   0  0  0  0  0  0  0  0  0  0  0  0
    5.4588   12.6580   25.6594 C   0  0  0  0  0  0  0  0  0  0  0  0
    6.5806   13.0646   24.9187 C   0  0  0  0  0  0  0  0  0  0  0  0
    6.6159   14.4465   24.3033 C   0  0  0  0  0  0  0  0  0  0  0  0
    5.5378   14.8382   23.3221 C   0  0  0  0  0  0  0  0  0  0  0  0
    6.9216   14.6083   22.8281 C   0  0  0  0  0  0  0  0  0  0  0  0
  2  1  1  1
  2  3  1  0
  3  4  1  0
  4  5  2  0
  5  6  1  0
  6  7  1  0
  7  8  2  0
  2  9  1  0
  9 10  1  0
 10 11  2  0
 10 12  1  0
 12 13  2  0
 13 14  1  0
 14 15  2  0
 15 16  1  0
 16 17  2  0
 17 18  1  0
 18 19  1  0
 19 20  1  0
  8  4  1  0
 17 12  1  0
 20 18  1  0
M  END
>  <energy_score>  (3847) 
-23.352198

>  <inchikey>  (3847) 
YAKNLEOVDYKOID-UHFFFAOYSA-N

>  <smiles>  (3847) 
CC(Cc1cocn1)NC(=O)c1ccccc1C1CC1

>  <ref_pdb>  (3847) 
A0514a

>  <alias>  (3847) 
YAKNLEOVDYKOID-UHFFFAOYSA-N-P637-P178-P637-601502

>  <HIPPO Pose ID>  (3847) 
503746

>  <name>  (3847) 
YAKNLEOVDYKOID-UHFFFAOYSA-N-P637-P178-P637-601502

>  <HIPPO Compound ID>  (3847) 
306339

>  <ref_mols>  (3847) 
A3408a,A5594a

>  <distance_score>  (3847) 
1.8585

>  <inspiration_score>  (3847) 
None

$$$$
JFXWCSDYCXCZCO-UHFFFAOYSA-N-P637-P178-P637-601502
     RDKit          3D

 20 22  0  0  0  0  0  0  0  0999 V2000
   10.0394   15.6185   19.9397 C   0  0  0  0  0  0  0  0  0  0  0  0
   10.4463   15.1234   21.2558 C   0  0  0  0  0  0  0  0  0  0  0  0
    9.9309   14.1472   21.9740 N   0  0  0  0  0  0  0  0  0  0  0  0
   10.8635   13.9589   22.9610 C   0  0  0  0  0  0  0  0  0  0  0  0
   10.8359   12.7853   23.8567 C   0  0  0  0  0  0  0  0  0  0  0  0
    9.9797   11.6424   23.3021 C   0  0  0  0  0  0  0  0  0  0  0  0
    8.6728   11.7706   23.8495 N   0  0  0  0  0  0  0  0  0  0  0  0
    7.8308   10.7828   24.6373 C   0  0  0  0  0  0  0  0  0  0  0  0
    8.0294    9.6723   24.9067 O   0  0  0  0  0  0  0  0  0  0  0  0
    6.5852   11.4027   25.2386 C   0  0  0  0  0  0  0  0  0  0  0  0
    5.7693   10.4429   25.8859 C   0  0  0  0  0  0  0  0  0  0  0  0
    4.7159   10.8012   26.7114 C   0  0  0  0  0  0  0  0  0  0  0  0
    4.4503   12.1402   26.9099 C   0  0  0  0  0  0  0  0  0  0  0  0
    5.2164   13.1037   26.2529 C   0  0  0  0  0  0  0  0  0  0  0  0
    6.2834   12.7865   25.3783 C   0  0  0  0  0  0  0  0  0  0  0  0
    6.9968   13.9740   24.7309 C   0  0  0  0  0  0  0  0  0  0  0  0
    6.8209   14.2475   23.2413 C   0  0  0  0  0  0  0  0  0  0  0  0
    6.2081   15.1681   24.2289 C   0  0  0  0  0  0  0  0  0  0  0  0
   11.8247   14.9332   22.8800 C   0  0  0  0  0  0  0  0  0  0  0  0
   11.5693   15.6889   21.7856 O   0  0  0  0  0  0  0  0  0  0  0  0
  1  2  1  0
  2  3  2  0
  3  4  1  0
  4  5  1  0
  5  6  1  0
  6  7  1  0
  7  8  1  0
  8  9  2  0
  8 10  1  0
 10 11  2  0
 11 12  1  0
 12 13  2  0
 13 14  1  0
 14 15  2  0
 15 16  1  0
 16 17  1  0
 17 18  1  0
  4 19  2  0
 19 20  1  0
 20  2  1  0
 15 10  1  0
 18 16  1  0
M  END
>  <energy_score>  (3848) 
-7.622835

>  <inchikey>  (3848) 
JFXWCSDYCXCZCO-UHFFFAOYSA-N

>  <smiles>  (3848) 
Cc1nc(CCNC(=O)c2ccccc2C2CC2)co1

>  <ref_pdb>  (3848) 
A0514a

>  <alias>  (3848) 
JFXWCSDYCXCZCO-UHFFFAOYSA-N-P637-P178-P637-601502

>  <HIPPO Pose ID>  (3848) 
503747

>  <name>  (3848) 
JFXWCSDYCXCZCO-UHFFFAOYSA-N-P637-P178-P637-601502

>  <HIPPO Compound ID>  (3848) 
306340

>  <ref_mols>  (3848) 
A3408a,A5594a

>  <distance_score>  (3848) 
1.629356

>  <inspiration_score>  (3848) 
None

$$$$
ZTPHAHOHXPMFEW-UHFFFAOYSA-N-P637-P178-P637-601502
     RDKit          3D

 20 21  0  0  0  0  0  0  0  0999 V2000
    6.8882   14.0270   22.8918 C   0  0  0  0  0  0  0  0  0  0  0  0
    6.9099   14.1989   24.4024 C   0  0  0  0  0  0  0  0  0  0  0  0
    6.5724   12.9430   25.1783 C   0  0  0  0  0  0  0  0  0  0  0  0
    5.4743   13.0104   26.0521 C   0  0  0  0  0  0  0  0  0  0  0  0
    5.0054   11.8775   26.7137 C   0  0  0  0  0  0  0  0  0  0  0  0
    5.5999   10.6466   26.4893 C   0  0  0  0  0  0  0  0  0  0  0  0
    5.0800    9.5891   27.1700 O   0  0  0  0  0  0  0  0  0  0  0  0
    6.6977   10.5433   25.6478 C   0  0  0  0  0  0  0  0  0  0  0  0
    7.2272   11.7022   25.0425 C   0  0  0  0  0  0  0  0  0  0  0  0
    8.4865   11.5223   24.2602 C   0  0  0  0  0  0  0  0  0  0  0  0
    8.5880   10.5714   23.5951 O   0  0  0  0  0  0  0  0  0  0  0  0
    9.4614   12.6965   24.4806 N   0  0  0  0  0  0  0  0  0  0  0  0
   10.7318   12.9950   23.8523 C   0  0  1  0  0  0  0  0  0  0  0  0
   10.6362   12.6677   22.3745 C   0  0  0  0  0  0  0  0  0  0  0  0
   11.2060   14.4400   24.1023 C   0  0  0  0  0  0  0  0  0  0  0  0
   10.7646   15.3487   23.0201 C   0  0  0  0  0  0  0  0  0  0  0  0
   11.4788   15.7619   21.9177 C   0  0  0  0  0  0  0  0  0  0  0  0
   10.6098   16.3565   21.0572 O   0  0  0  0  0  0  0  0  0  0  0  0
    9.4237   16.3213   21.7178 C   0  0  0  0  0  0  0  0  0  0  0  0
    9.4515   15.7231   22.8898 N   0  0  0  0  0  0  0  0  0  0  0  0
  1  2  1  0
  2  3  1  0
  3  4  2  0
  4  5  1  0
  5  6  2  0
  6  7  1  0
  6  8  1  0
  8  9  2  0
  9 10  1  0
 10 11  2  0
 10 12  1  0
 12 13  1  0
 13 14  1  6
 13 15  1  0
 15 16  1  0
 16 17  2  0
 17 18  1  0
 18 19  1  0
 19 20  2  0
  9  3  1  0
 20 16  1  0
M  END
>  <energy_score>  (3849) 
-5.126213

>  <inchikey>  (3849) 
ZTPHAHOHXPMFEW-UHFFFAOYSA-N

>  <smiles>  (3849) 
CCc1ccc(O)cc1C(=O)NC(C)Cc1cocn1

>  <ref_pdb>  (3849) 
A0514a

>  <alias>  (3849) 
ZTPHAHOHXPMFEW-UHFFFAOYSA-N-P637-P178-P637-601502

>  <HIPPO Pose ID>  (3849) 
503751

>  <name>  (3849) 
ZTPHAHOHXPMFEW-UHFFFAOYSA-N-P637-P178-P637-601502

>  <HIPPO Compound ID>  (3849) 
306344

>  <ref_mols>  (3849) 
A3408a,A5594a

>  <distance_score>  (3849) 
1.35808

>  <inspiration_score>  (3849) 
None

$$$$
OGFXRECLXKFPKC-UHFFFAOYSA-N-P637-P178-P637-601502
     RDKit          3D

 20 21  0  0  0  0  0  0  0  0999 V2000
    4.5580   14.7000   25.3959 C   0  0  0  0  0  0  0  0  0  0  0  0
    5.4230   13.4751   25.5339 C   0  0  0  0  0  0  0  0  0  0  0  0
    4.9953   12.4479   26.3745 C   0  0  0  0  0  0  0  0  0  0  0  0
    5.7049   11.2544   26.4501 C   0  0  0  0  0  0  0  0  0  0  0  0
    5.0229    9.9397   27.6174 Br  0  0  0  0  0  0  0  0  0  0  0  0
    6.8935   11.0815   25.7405 C   0  0  0  0  0  0  0  0  0  0  0  0
    7.3895   12.1427   24.9755 C   0  0  0  0  0  0  0  0  0  0  0  0
    8.7376   12.0351   24.3173 C   0  0  0  0  0  0  0  0  0  0  0  0
    8.9940   11.0752   23.7051 O   0  0  0  0  0  0  0  0  0  0  0  0
    9.5422   13.3475   24.5129 N   0  0  0  0  0  0  0  0  0  0  0  0
   10.7930   13.7875   23.9126 C   0  0  1  0  0  0  0  0  0  0  0  0
   12.0785   13.4407   24.6214 C   0  0  0  0  0  0  0  0  0  0  0  0
   10.8641   13.4409   22.4231 C   0  0  0  0  0  0  0  0  0  0  0  0
   10.3996   14.5977   21.6406 C   0  0  0  0  0  0  0  0  0  0  0  0
   11.0461   15.2384   20.6159 C   0  0  0  0  0  0  0  0  0  0  0  0
   10.3131   16.3330   20.2882 O   0  0  0  0  0  0  0  0  0  0  0  0
    9.2701   16.3029   21.1595 C   0  0  0  0  0  0  0  0  0  0  0  0
    9.2461   15.2690   21.9645 N   0  0  0  0  0  0  0  0  0  0  0  0
    6.5928   13.2918   24.7713 C   0  0  0  0  0  0  0  0  0  0  0  0
    6.9293   14.2792   23.6864 C   0  0  0  0  0  0  0  0  0  0  0  0
  1  2  1  0
  2  3  2  0
  3  4  1  0
  4  5  1  0
  4  6  2  0
  6  7  1  0
  7  8  1  0
  8  9  2  0
  8 10  1  0
 10 11  1  0
 11 12  1  1
 11 13  1  0
 13 14  1  0
 14 15  2  0
 15 16  1  0
 16 17  1  0
 17 18  2  0
  7 19  2  0
 19 20  1  0
 19  2  1  0
 18 14  1  0
M  END
>  <energy_score>  (3850) 
-0.855528

>  <inchikey>  (3850) 
OGFXRECLXKFPKC-UHFFFAOYSA-N

>  <smiles>  (3850) 
Cc1cc(Br)cc(C(=O)NC(C)Cc2cocn2)c1C

>  <ref_pdb>  (3850) 
A0514a

>  <alias>  (3850) 
OGFXRECLXKFPKC-UHFFFAOYSA-N-P637-P178-P637-601502

>  <HIPPO Pose ID>  (3850) 
503755

>  <name>  (3850) 
OGFXRECLXKFPKC-UHFFFAOYSA-N-P637-P178-P637-601502

>  <HIPPO Compound ID>  (3850) 
306348

>  <ref_mols>  (3850) 
A3408a,A5594a

>  <distance_score>  (3850) 
1.642945

>  <inspiration_score>  (3850) 
None

$$$$
FSDLVZYIZXTDOG-UHFFFAOYSA-N-P637-P178-P637-601502
     RDKit          3D

 20 21  0  0  0  0  0  0  0  0999 V2000
    4.6656   14.6081   25.7484 C   0  0  0  0  0  0  0  0  0  0  0  0
    5.3822   13.2832   25.7818 C   0  0  0  0  0  0  0  0  0  0  0  0
    4.8953   12.2850   26.6259 C   0  0  0  0  0  0  0  0  0  0  0  0
    5.4699   11.0200   26.6294 C   0  0  0  0  0  0  0  0  0  0  0  0
    4.7490    9.7553   27.8311 Br  0  0  0  0  0  0  0  0  0  0  0  0
    6.5685   10.7360   25.8219 C   0  0  0  0  0  0  0  0  0  0  0  0
    7.1201   11.7487   25.0244 C   0  0  0  0  0  0  0  0  0  0  0  0
    8.3977   11.4469   24.2917 C   0  0  0  0  0  0  0  0  0  0  0  0
    8.5136   10.4108   23.7735 O   0  0  0  0  0  0  0  0  0  0  0  0
    9.3772   12.6344   24.3813 N   0  0  0  0  0  0  0  0  0  0  0  0
   10.6711   12.8318   23.7695 C   0  0  0  0  0  0  0  0  0  0  0  0
   11.1084   14.2909   23.7568 C   0  0  0  0  0  0  0  0  0  0  0  0
   10.3662   15.0539   22.7356 C   0  0  0  0  0  0  0  0  0  0  0  0
    9.1591   15.6424   23.0067 N   0  0  0  0  0  0  0  0  0  0  0  0
    8.8082   16.1666   21.8524 C   0  0  0  0  0  0  0  0  0  0  0  0
    9.6804   15.9604   20.8353 O   0  0  0  0  0  0  0  0  0  0  0  0
   10.6961   15.2697   21.4195 C   0  0  0  0  0  0  0  0  0  0  0  0
   11.8369   14.9282   20.5716 C   0  0  0  0  0  0  0  0  0  0  0  0
    6.4733   12.9987   24.9329 C   0  0  0  0  0  0  0  0  0  0  0  0
    6.8734   14.0234   23.9128 C   0  0  0  0  0  0  0  0  0  0  0  0
  1  2  1  0
  2  3  2  0
  3  4  1  0
  4  5  1  0
  4  6  2  0
  6  7  1  0
  7  8  1  0
  8  9  2  0
  8 10  1  0
 10 11  1  0
 11 12  1  0
 12 13  1  0
 13 14  1  0
 14 15  2  0
 15 16  1  0
 16 17  1  0
 17 18  1  0
  7 19  2  0
 19 20  1  0
 19  2  1  0
 17 13  2  0
M  END
>  <energy_score>  (3851) 
-12.833921

>  <inchikey>  (3851) 
FSDLVZYIZXTDOG-UHFFFAOYSA-N

>  <smiles>  (3851) 
Cc1cc(Br)cc(C(=O)NCCc2ncoc2C)c1C

>  <ref_pdb>  (3851) 
A0514a

>  <alias>  (3851) 
FSDLVZYIZXTDOG-UHFFFAOYSA-N-P637-P178-P637-601502

>  <HIPPO Pose ID>  (3851) 
503757

>  <name>  (3851) 
FSDLVZYIZXTDOG-UHFFFAOYSA-N-P637-P178-P637-601502

>  <HIPPO Compound ID>  (3851) 
306350

>  <ref_mols>  (3851) 
A3408a,A5594a

>  <distance_score>  (3851) 
1.408143

>  <inspiration_score>  (3851) 
None

$$$$
BGWKUVDZDCMYQS-UHFFFAOYSA-N-P637-P178-P637-601502
     RDKit          3D

 20 21  0  0  0  0  0  0  0  0999 V2000
    6.9908   14.5862   25.2336 C   0  0  0  0  0  0  0  0  0  0  0  0
    6.7063   13.1363   25.4698 C   0  0  0  0  0  0  0  0  0  0  0  0
    5.7183   12.7340   26.3646 C   0  0  0  0  0  0  0  0  0  0  0  0
    5.0247   13.6483   27.0568 F   0  0  0  0  0  0  0  0  0  0  0  0
    5.4254   11.3889   26.5631 C   0  0  0  0  0  0  0  0  0  0  0  0
    6.1499   10.4134   25.8791 C   0  0  0  0  0  0  0  0  0  0  0  0
    7.1682   10.7865   25.0024 C   0  0  0  0  0  0  0  0  0  0  0  0
    8.1225    9.5723   24.2456 Cl  0  0  0  0  0  0  0  0  0  0  0  0
    7.4199   12.1415   24.7893 C   0  0  0  0  0  0  0  0  0  0  0  0
    8.3422   12.5777   23.7354 C   0  0  0  0  0  0  0  0  0  0  0  0
    7.9403   12.6127   22.6460 O   0  0  0  0  0  0  0  0  0  0  0  0
    9.6936   13.0164   24.3111 N   0  0  0  0  0  0  0  0  0  0  0  0
   10.8080   13.6818   23.6824 C   0  0  2  0  0  0  0  0  0  0  0  0
   12.0694   13.6523   24.5256 C   0  0  0  0  0  0  0  0  0  0  0  0
   10.4286   15.1375   23.3730 C   0  0  0  0  0  0  0  0  0  0  0  0
   10.5235   15.3594   21.9282 C   0  0  0  0  0  0  0  0  0  0  0  0
   11.6554   15.5026   21.1649 C   0  0  0  0  0  0  0  0  0  0  0  0
   11.2673   15.5732   19.8670 O   0  0  0  0  0  0  0  0  0  0  0  0
    9.9139   15.4856   19.9274 C   0  0  0  0  0  0  0  0  0  0  0  0
    9.4091   15.3467   21.1316 N   0  0  0  0  0  0  0  0  0  0  0  0
  1  2  1  0
  2  3  2  0
  3  4  1  0
  3  5  1  0
  5  6  2  0
  6  7  1  0
  7  8  1  0
  7  9  2  0
  9 10  1  0
 10 11  2  0
 10 12  1  0
 12 13  1  0
 13 14  1  1
 13 15  1  0
 15 16  1  0
 16 17  2  0
 17 18  1  0
 18 19  1  0
 19 20  2  0
  9  2  1  0
 20 16  1  0
M  END
>  <energy_score>  (3852) 
-21.376188

>  <inchikey>  (3852) 
BGWKUVDZDCMYQS-UHFFFAOYSA-N

>  <smiles>  (3852) 
Cc1c(F)ccc(Cl)c1C(=O)NC(C)Cc1cocn1

>  <ref_pdb>  (3852) 
A0514a

>  <alias>  (3852) 
BGWKUVDZDCMYQS-UHFFFAOYSA-N-P637-P178-P637-601502

>  <HIPPO Pose ID>  (3852) 
503760

>  <name>  (3852) 
BGWKUVDZDCMYQS-UHFFFAOYSA-N-P637-P178-P637-601502

>  <HIPPO Compound ID>  (3852) 
306353

>  <ref_mols>  (3852) 
A3408a,A5594a

>  <distance_score>  (3852) 
1.72112

>  <inspiration_score>  (3852) 
None

$$$$
VZOQUEJVDNIXBT-UHFFFAOYSA-N-P637-P178-P637-601502
     RDKit          3D

 20 21  0  0  0  0  0  0  0  0999 V2000
    9.9824   15.6802   19.9661 C   0  0  0  0  0  0  0  0  0  0  0  0
   10.3715   15.1934   21.2901 C   0  0  0  0  0  0  0  0  0  0  0  0
    9.8295   14.2413   22.0226 N   0  0  0  0  0  0  0  0  0  0  0  0
   10.7924   14.0050   22.9730 C   0  0  0  0  0  0  0  0  0  0  0  0
   10.7717   12.8016   23.8280 C   0  0  0  0  0  0  0  0  0  0  0  0
    9.8190   11.7305   23.2893 C   0  0  0  0  0  0  0  0  0  0  0  0
    8.5129   12.0152   23.8050 N   0  0  0  0  0  0  0  0  0  0  0  0
    7.7526   11.3948   24.9636 C   0  0  0  0  0  0  0  0  0  0  0  0
    8.0229   10.5001   25.6448 O   0  0  0  0  0  0  0  0  0  0  0  0
    6.5127   12.1206   25.3356 C   0  0  0  0  0  0  0  0  0  0  0  0
    5.4521   11.3762   25.8894 C   0  0  0  0  0  0  0  0  0  0  0  0
    5.3320    9.6707   25.8250 Cl  0  0  0  0  0  0  0  0  0  0  0  0
    4.3944   12.0089   26.5353 C   0  0  0  0  0  0  0  0  0  0  0  0
    4.3532   13.3892   26.5925 C   0  0  0  0  0  0  0  0  0  0  0  0
    5.3901   14.1291   26.0429 C   0  0  0  0  0  0  0  0  0  0  0  0
    5.3254   15.4652   26.1478 F   0  0  0  0  0  0  0  0  0  0  0  0
    6.5065   13.5295   25.4502 C   0  0  0  0  0  0  0  0  0  0  0  0
    7.6294   14.4421   25.0420 C   0  0  0  0  0  0  0  0  0  0  0  0
   11.7808   14.9507   22.8808 C   0  0  0  0  0  0  0  0  0  0  0  0
   11.5234   15.7204   21.7976 O   0  0  0  0  0  0  0  0  0  0  0  0
  1  2  1  0
  2  3  2  0
  3  4  1  0
  4  5  1  0
  5  6  1  0
  6  7  1  0
  7  8  1  0
  8  9  2  0
  8 10  1  0
 10 11  2  0
 11 12  1  0
 11 13  1  0
 13 14  2  0
 14 15  1  0
 15 16  1  0
 15 17  2  0
 17 18  1  0
  4 19  2  0
 19 20  1  0
 20  2  1  0
 17 10  1  0
M  END
>  <energy_score>  (3853) 
-19.292491

>  <inchikey>  (3853) 
VZOQUEJVDNIXBT-UHFFFAOYSA-N

>  <smiles>  (3853) 
Cc1nc(CCNC(=O)c2c(Cl)ccc(F)c2C)co1

>  <ref_pdb>  (3853) 
A0514a

>  <alias>  (3853) 
VZOQUEJVDNIXBT-UHFFFAOYSA-N-P637-P178-P637-601502

>  <HIPPO Pose ID>  (3853) 
503761

>  <name>  (3853) 
VZOQUEJVDNIXBT-UHFFFAOYSA-N-P637-P178-P637-601502

>  <HIPPO Compound ID>  (3853) 
306354

>  <ref_mols>  (3853) 
A3408a,A5594a

>  <distance_score>  (3853) 
1.611304

>  <inspiration_score>  (3853) 
None

$$$$
BPHFETZYEHXKEG-UHFFFAOYSA-N-P637-P178-P637-601502
     RDKit          3D

 20 21  0  0  0  0  0  0  0  0999 V2000
    4.7604    9.8494   27.2975 C   0  0  0  0  0  0  0  0  0  0  0  0
    5.4295   10.9351   26.5068 C   0  0  0  0  0  0  0  0  0  0  0  0
    4.8696   12.2163   26.4736 C   0  0  0  0  0  0  0  0  0  0  0  0
    5.4137   13.2031   25.6553 C   0  0  0  0  0  0  0  0  0  0  0  0
    6.5447   12.9206   24.8900 C   0  0  0  0  0  0  0  0  0  0  0  0
    6.9577   13.8790   23.8550 C   0  0  0  0  0  0  0  0  0  0  0  0
    6.6981   15.0672   23.9632 O   0  0  0  0  0  0  0  0  0  0  0  0
    7.1936   11.6977   25.0204 C   0  0  0  0  0  0  0  0  0  0  0  0
    8.5009   11.4516   24.3654 C   0  0  0  0  0  0  0  0  0  0  0  0
    8.6421   10.4435   23.7968 O   0  0  0  0  0  0  0  0  0  0  0  0
    9.4454   12.6737   24.4924 N   0  0  0  0  0  0  0  0  0  0  0  0
   10.7238   12.9448   23.8637 C   0  0  1  0  0  0  0  0  0  0  0  0
   10.5936   12.6108   22.3897 C   0  0  0  0  0  0  0  0  0  0  0  0
   11.2256   14.3839   24.0894 C   0  0  0  0  0  0  0  0  0  0  0  0
   10.7013   15.2898   23.0440 C   0  0  0  0  0  0  0  0  0  0  0  0
   11.3453   15.7803   21.9315 C   0  0  0  0  0  0  0  0  0  0  0  0
   10.4039   16.3288   21.1144 O   0  0  0  0  0  0  0  0  0  0  0  0
    9.2437   16.1838   21.8094 C   0  0  0  0  0  0  0  0  0  0  0  0
    9.3599   15.5507   22.9557 N   0  0  0  0  0  0  0  0  0  0  0  0
    6.5946   10.6779   25.7693 C   0  0  0  0  0  0  0  0  0  0  0  0
  1  2  1  0
  2  3  2  0
  3  4  1  0
  4  5  2  0
  5  6  1  0
  6  7  2  0
  5  8  1  0
  8  9  1  0
  9 10  2  0
  9 11  1  0
 11 12  1  0
 12 13  1  6
 12 14  1  0
 14 15  1  0
 15 16  2  0
 16 17  1  0
 17 18  1  0
 18 19  2  0
  8 20  2  0
 20  2  1  0
 19 15  1  0
M  END
>  <energy_score>  (3854) 
-11.582494

>  <inchikey>  (3854) 
BPHFETZYEHXKEG-UHFFFAOYSA-N

>  <smiles>  (3854) 
Cc1ccc(C=O)c(C(=O)NC(C)Cc2cocn2)c1

>  <ref_pdb>  (3854) 
A0514a

>  <alias>  (3854) 
BPHFETZYEHXKEG-UHFFFAOYSA-N-P637-P178-P637-601502

>  <HIPPO Pose ID>  (3854) 
503764

>  <name>  (3854) 
BPHFETZYEHXKEG-UHFFFAOYSA-N-P637-P178-P637-601502

>  <HIPPO Compound ID>  (3854) 
306357

>  <ref_mols>  (3854) 
A3408a,A5594a

>  <distance_score>  (3854) 
1.430344

>  <inspiration_score>  (3854) 
None

$$$$
RVLWNESPEVASIQ-UHFFFAOYSA-N-P637-P178-P637-601502
     RDKit          3D

 20 21  0  0  0  0  0  0  0  0999 V2000
    6.7823   14.1058   23.8739 C   0  0  0  0  0  0  0  0  0  0  0  0
    6.3581   13.1265   24.9316 C   0  0  0  0  0  0  0  0  0  0  0  0
    5.2330   13.4002   25.7222 C   0  0  0  0  0  0  0  0  0  0  0  0
    4.4121   14.9232   25.6527 Cl  0  0  0  0  0  0  0  0  0  0  0  0
    4.7286   12.4537   26.6104 C   0  0  0  0  0  0  0  0  0  0  0  0
    5.3239   11.2028   26.7050 C   0  0  0  0  0  0  0  0  0  0  0  0
    4.5253    9.8597   28.0695 I   0  0  0  0  0  0  0  0  0  0  0  0
    6.4567   10.9097   25.9526 C   0  0  0  0  0  0  0  0  0  0  0  0
    7.0179   11.8996   25.1284 C   0  0  0  0  0  0  0  0  0  0  0  0
    8.3247   11.5860   24.4794 C   0  0  0  0  0  0  0  0  0  0  0  0
    8.4550   10.5399   23.9833 O   0  0  0  0  0  0  0  0  0  0  0  0
    9.2899   12.7910   24.5434 N   0  0  0  0  0  0  0  0  0  0  0  0
   10.5853   12.9933   23.9250 C   0  0  1  0  0  0  0  0  0  0  0  0
   10.4871   12.5789   22.4691 C   0  0  0  0  0  0  0  0  0  0  0  0
   11.1099   14.4316   24.0889 C   0  0  0  0  0  0  0  0  0  0  0  0
   10.6131   15.3051   23.0029 C   0  0  0  0  0  0  0  0  0  0  0  0
   11.2838   15.7247   21.8767 C   0  0  0  0  0  0  0  0  0  0  0  0
   10.3736   16.2888   21.0378 O   0  0  0  0  0  0  0  0  0  0  0  0
    9.2063   16.2232   21.7310 C   0  0  0  0  0  0  0  0  0  0  0  0
    9.2832   15.6310   22.9028 N   0  0  0  0  0  0  0  0  0  0  0  0
  1  2  1  0
  2  3  2  0
  3  4  1  0
  3  5  1  0
  5  6  2  0
  6  7  1  0
  6  8  1  0
  8  9  2  0
  9 10  1  0
 10 11  2  0
 10 12  1  0
 12 13  1  0
 13 14  1  6
 13 15  1  0
 15 16  1  0
 16 17  2  0
 17 18  1  0
 18 19  1  0
 19 20  2  0
  9  2  1  0
 20 16  1  0
M  END
>  <energy_score>  (3855) 
-3.531011

>  <inchikey>  (3855) 
RVLWNESPEVASIQ-UHFFFAOYSA-N

>  <smiles>  (3855) 
Cc1c(Cl)cc(I)cc1C(=O)NC(C)Cc1cocn1

>  <ref_pdb>  (3855) 
A0514a

>  <alias>  (3855) 
RVLWNESPEVASIQ-UHFFFAOYSA-N-P637-P178-P637-601502

>  <HIPPO Pose ID>  (3855) 
503769

>  <name>  (3855) 
RVLWNESPEVASIQ-UHFFFAOYSA-N-P637-P178-P637-601502

>  <HIPPO Compound ID>  (3855) 
306362

>  <ref_mols>  (3855) 
A3408a,A5594a

>  <distance_score>  (3855) 
1.39898

>  <inspiration_score>  (3855) 
None

$$$$
CZHJMHYBSWAUMO-UHFFFAOYSA-N-P637-P178-P637-601502
     RDKit          3D

 20 21  0  0  0  0  0  0  0  0999 V2000
    7.1318   14.5391   22.9255 C   0  0  0  0  0  0  0  0  0  0  0  0
    6.7468   14.4066   24.3761 C   0  0  0  0  0  0  0  0  0  0  0  0
    6.5588   15.3731   25.1127 O   0  0  0  0  0  0  0  0  0  0  0  0
    6.5755   13.0606   24.9468 C   0  0  0  0  0  0  0  0  0  0  0  0
    5.4055   12.7708   25.6516 C   0  0  0  0  0  0  0  0  0  0  0  0
    5.1867   11.4774   26.1211 C   0  0  0  0  0  0  0  0  0  0  0  0
    6.1133   10.4730   25.8480 C   0  0  0  0  0  0  0  0  0  0  0  0
    7.3094   10.7791   25.1965 C   0  0  0  0  0  0  0  0  0  0  0  0
    7.5709   12.0998   24.8152 C   0  0  0  0  0  0  0  0  0  0  0  0
    8.9575   12.4856   24.4373 C   0  0  0  0  0  0  0  0  0  0  0  0
    9.5703   11.7717   23.7471 O   0  0  0  0  0  0  0  0  0  0  0  0
    9.3789   13.7971   25.1569 N   0  0  0  0  0  0  0  0  0  0  0  0
   10.6080   14.5427   25.0960 C   0  0  0  0  0  0  0  0  0  0  0  0
   11.6493   14.0168   24.1322 C   0  0  0  0  0  0  0  0  0  0  0  0
   11.4648   14.6324   22.8092 C   0  0  0  0  0  0  0  0  0  0  0  0
   12.3277   15.4787   22.1656 C   0  0  0  0  0  0  0  0  0  0  0  0
   11.7799   15.8393   20.9928 O   0  0  0  0  0  0  0  0  0  0  0  0
   10.5860   15.1938   20.9853 C   0  0  0  0  0  0  0  0  0  0  0  0
    9.7982   15.4256   19.7858 C   0  0  0  0  0  0  0  0  0  0  0  0
   10.3236   14.4818   22.0622 N   0  0  0  0  0  0  0  0  0  0  0  0
  1  2  1  0
  2  3  2  0
  2  4  1  0
  4  5  2  0
  5  6  1  0
  6  7  2  0
  7  8  1  0
  8  9  2  0
  9 10  1  0
 10 11  2  0
 10 12  1  0
 12 13  1  0
 13 14  1  0
 14 15  1  0
 15 16  2  0
 16 17  1  0
 17 18  1  0
 18 19  1  0
 18 20  2  0
  9  4  1  0
 20 15  1  0
M  END
>  <energy_score>  (3856) 
-10.235893

>  <inchikey>  (3856) 
CZHJMHYBSWAUMO-UHFFFAOYSA-N

>  <smiles>  (3856) 
CC(=O)c1ccccc1C(=O)NCCc1coc(C)n1

>  <ref_pdb>  (3856) 
A0514a

>  <alias>  (3856) 
CZHJMHYBSWAUMO-UHFFFAOYSA-N-P637-P178-P637-601502

>  <HIPPO Pose ID>  (3856) 
503771

>  <name>  (3856) 
CZHJMHYBSWAUMO-UHFFFAOYSA-N-P637-P178-P637-601502

>  <HIPPO Compound ID>  (3856) 
306364

>  <ref_mols>  (3856) 
A3408a,A5594a

>  <distance_score>  (3856) 
1.626566

>  <inspiration_score>  (3856) 
None

$$$$
PONMGIVVULKRPF-UHFFFAOYSA-N-P637-P178-P637-601502
     RDKit          3D

 20 21  0  0  0  0  0  0  0  0999 V2000
    6.5737   14.8217   23.6577 C   0  0  0  0  0  0  0  0  0  0  0  0
    6.3459   14.2782   25.0398 C   0  0  0  0  0  0  0  0  0  0  0  0
    5.8215   14.9391   25.9345 O   0  0  0  0  0  0  0  0  0  0  0  0
    6.5963   12.8474   25.2528 C   0  0  0  0  0  0  0  0  0  0  0  0
    5.5485   12.0996   25.7984 C   0  0  0  0  0  0  0  0  0  0  0  0
    5.6570   10.7206   25.8627 C   0  0  0  0  0  0  0  0  0  0  0  0
    6.7956   10.1071   25.3506 C   0  0  0  0  0  0  0  0  0  0  0  0
    7.8710   10.8556   24.8633 C   0  0  0  0  0  0  0  0  0  0  0  0
    7.7959   12.2492   24.8556 C   0  0  0  0  0  0  0  0  0  0  0  0
    9.0091   13.1226   24.7371 C   0  0  0  0  0  0  0  0  0  0  0  0
    9.0208   14.0661   25.4159 O   0  0  0  0  0  0  0  0  0  0  0  0
   10.0807   12.5602   23.8030 N   0  0  0  0  0  0  0  0  0  0  0  0
   11.3681   13.0897   23.4280 C   0  0  0  0  0  0  0  0  0  0  0  0
   11.4521   14.6093   23.4955 C   0  0  0  0  0  0  0  0  0  0  0  0
   10.5788   15.2075   22.4693 C   0  0  0  0  0  0  0  0  0  0  0  0
    9.3235   15.6621   22.7528 N   0  0  0  0  0  0  0  0  0  0  0  0
    8.8925   16.1155   21.5994 C   0  0  0  0  0  0  0  0  0  0  0  0
    9.7280   15.9164   20.5517 O   0  0  0  0  0  0  0  0  0  0  0  0
   10.8227   15.3519   21.1267 C   0  0  0  0  0  0  0  0  0  0  0  0
   11.9529   15.0482   20.2558 C   0  0  0  0  0  0  0  0  0  0  0  0
  1  2  1  0
  2  3  2  0
  2  4  1  0
  4  5  2  0
  5  6  1  0
  6  7  2  0
  7  8  1  0
  8  9  2  0
  9 10  1  0
 10 11  2  0
 10 12  1  0
 12 13  1  0
 13 14  1  0
 14 15  1  0
 15 16  1  0
 16 17  2  0
 17 18  1  0
 18 19  1  0
 19 20  1  0
  9  4  1  0
 19 15  2  0
M  END
>  <energy_score>  (3857) 
-7.087791

>  <inchikey>  (3857) 
PONMGIVVULKRPF-UHFFFAOYSA-N

>  <smiles>  (3857) 
CC(=O)c1ccccc1C(=O)NCCc1ncoc1C

>  <ref_pdb>  (3857) 
A0514a

>  <alias>  (3857) 
PONMGIVVULKRPF-UHFFFAOYSA-N-P637-P178-P637-601502

>  <HIPPO Pose ID>  (3857) 
503772

>  <name>  (3857) 
PONMGIVVULKRPF-UHFFFAOYSA-N-P637-P178-P637-601502

>  <HIPPO Compound ID>  (3857) 
306365

>  <ref_mols>  (3857) 
A3408a,A5594a

>  <distance_score>  (3857) 
1.899755

>  <inspiration_score>  (3857) 
None

$$$$
QHCXLYYMGKQNMV-UHFFFAOYSA-N-P637-P178-P637-601502
     RDKit          3D

 20 21  0  0  0  0  0  0  0  0999 V2000
    7.3788   14.4232   24.9276 C   0  0  0  0  0  0  0  0  0  0  0  0
    7.0371   13.0121   25.3151 C   0  0  0  0  0  0  0  0  0  0  0  0
    7.7708   11.9088   24.8304 C   0  0  0  0  0  0  0  0  0  0  0  0
    8.9963   12.0275   23.9722 C   0  0  0  0  0  0  0  0  0  0  0  0
    9.0115   11.3772   23.0072 O   0  0  0  0  0  0  0  0  0  0  0  0
    9.9962   13.0853   24.4798 N   0  0  0  0  0  0  0  0  0  0  0  0
   11.1920   13.6397   23.8499 C   0  0  2  0  0  0  0  0  0  0  0  0
   12.3925   13.6123   24.7741 C   0  0  0  0  0  0  0  0  0  0  0  0
   10.9443   15.0935   23.4362 C   0  0  0  0  0  0  0  0  0  0  0  0
   10.2922   15.1962   22.1250 C   0  0  0  0  0  0  0  0  0  0  0  0
    9.2041   14.5443   21.6125 C   0  0  0  0  0  0  0  0  0  0  0  0
    9.0306   14.9530   20.3348 O   0  0  0  0  0  0  0  0  0  0  0  0
   10.0559   15.8107   20.1236 C   0  0  0  0  0  0  0  0  0  0  0  0
   10.8154   16.0224   21.1700 N   0  0  0  0  0  0  0  0  0  0  0  0
    7.3044   10.6054   25.0678 C   0  0  0  0  0  0  0  0  0  0  0  0
    6.1741   10.3872   25.8540 C   0  0  0  0  0  0  0  0  0  0  0  0
    5.5118   11.4618   26.4396 C   0  0  0  0  0  0  0  0  0  0  0  0
    4.0618   11.0515   27.5993 Br  0  0  0  0  0  0  0  0  0  0  0  0
    5.9351   12.7710   26.1725 C   0  0  0  0  0  0  0  0  0  0  0  0
    5.1218   14.1135   26.9251 Cl  0  0  0  0  0  0  0  0  0  0  0  0
  1  2  1  0
  2  3  2  0
  3  4  1  0
  4  5  2  0
  4  6  1  0
  6  7  1  0
  7  8  1  1
  7  9  1  0
  9 10  1  0
 10 11  2  0
 11 12  1  0
 12 13  1  0
 13 14  2  0
  3 15  1  0
 15 16  2  0
 16 17  1  0
 17 18  1  0
 17 19  2  0
 19 20  1  0
 19  2  1  0
 14 10  1  0
M  END
>  <energy_score>  (3858) 
-24.05877

>  <inchikey>  (3858) 
QHCXLYYMGKQNMV-UHFFFAOYSA-N

>  <smiles>  (3858) 
Cc1c(C(=O)NC(C)Cc2cocn2)ccc(Br)c1Cl

>  <ref_pdb>  (3858) 
A0514a

>  <alias>  (3858) 
QHCXLYYMGKQNMV-UHFFFAOYSA-N-P637-P178-P637-601502

>  <HIPPO Pose ID>  (3858) 
503774

>  <name>  (3858) 
QHCXLYYMGKQNMV-UHFFFAOYSA-N-P637-P178-P637-601502

>  <HIPPO Compound ID>  (3858) 
306367

>  <ref_mols>  (3858) 
A3408a,A5594a

>  <distance_score>  (3858) 
1.811131

>  <inspiration_score>  (3858) 
None

$$$$
HOBGWVLGXIQGFJ-UHFFFAOYSA-N-P637-P178-P637-601502
     RDKit          3D

 20 21  0  0  0  0  0  0  0  0999 V2000
    9.9728   15.5810   19.9920 C   0  0  0  0  0  0  0  0  0  0  0  0
   10.4042   15.0783   21.2962 C   0  0  0  0  0  0  0  0  0  0  0  0
    9.8973   14.1055   22.0233 N   0  0  0  0  0  0  0  0  0  0  0  0
   10.8368   13.9160   22.9979 C   0  0  0  0  0  0  0  0  0  0  0  0
   10.7970   12.7698   23.9242 C   0  0  0  0  0  0  0  0  0  0  0  0
    9.9733   11.5774   23.4200 C   0  0  0  0  0  0  0  0  0  0  0  0
    8.7554   11.5254   24.1557 N   0  0  0  0  0  0  0  0  0  0  0  0
    7.4115   12.1652   23.8809 C   0  0  0  0  0  0  0  0  0  0  0  0
    7.0442   12.7797   22.9719 O   0  0  0  0  0  0  0  0  0  0  0  0
    6.5781   11.9714   25.0770 C   0  0  0  0  0  0  0  0  0  0  0  0
    6.1616   10.6870   25.4373 C   0  0  0  0  0  0  0  0  0  0  0  0
    5.3459   10.5320   26.5460 C   0  0  0  0  0  0  0  0  0  0  0  0
    4.9946   11.6528   27.3031 C   0  0  0  0  0  0  0  0  0  0  0  0
    3.8502   11.3402   28.7928 Br  0  0  0  0  0  0  0  0  0  0  0  0
    5.4922   12.9328   26.9791 C   0  0  0  0  0  0  0  0  0  0  0  0
    5.0802   14.3026   27.9638 Cl  0  0  0  0  0  0  0  0  0  0  0  0
    6.3325   13.1005   25.8702 C   0  0  0  0  0  0  0  0  0  0  0  0
    6.9600   14.4163   25.4787 C   0  0  0  0  0  0  0  0  0  0  0  0
   11.8053   14.8828   22.8985 C   0  0  0  0  0  0  0  0  0  0  0  0
   11.5432   15.6343   21.8032 O   0  0  0  0  0  0  0  0  0  0  0  0
  1  2  1  0
  2  3  2  0
  3  4  1  0
  4  5  1  0
  5  6  1  0
  6  7  1  0
  7  8  1  0
  8  9  2  0
  8 10  1  0
 10 11  2  0
 11 12  1  0
 12 13  2  0
 13 14  1  0
 13 15  1  0
 15 16  1  0
 15 17  2  0
 17 18  1  0
  4 19  2  0
 19 20  1  0
 20  2  1  0
 17 10  1  0
M  END
>  <energy_score>  (3859) 
-3.816148

>  <inchikey>  (3859) 
HOBGWVLGXIQGFJ-UHFFFAOYSA-N

>  <smiles>  (3859) 
Cc1nc(CCNC(=O)c2ccc(Br)c(Cl)c2C)co1

>  <ref_pdb>  (3859) 
A0514a

>  <alias>  (3859) 
HOBGWVLGXIQGFJ-UHFFFAOYSA-N-P637-P178-P637-601502

>  <HIPPO Pose ID>  (3859) 
503775

>  <name>  (3859) 
HOBGWVLGXIQGFJ-UHFFFAOYSA-N-P637-P178-P637-601502

>  <HIPPO Compound ID>  (3859) 
306368

>  <ref_mols>  (3859) 
A3408a,A5594a

>  <distance_score>  (3859) 
1.566368

>  <inspiration_score>  (3859) 
None

$$$$
HVQXGMVMDKKIQQ-UHFFFAOYSA-N-P637-P178-P637-601502
     RDKit          3D

 20 21  0  0  0  0  0  0  0  0999 V2000
    6.5832   14.4627   23.1702 C   0  0  0  0  0  0  0  0  0  0  0  0
    6.1747   14.5129   24.6469 C   0  0  0  0  0  0  0  0  0  0  0  0
    5.8735   13.1771   25.2976 C   0  0  0  0  0  0  0  0  0  0  0  0
    4.6944   12.9721   26.0134 C   0  0  0  0  0  0  0  0  0  0  0  0
    4.4153   11.7265   26.5921 C   0  0  0  0  0  0  0  0  0  0  0  0
    5.2844   10.6490   26.4291 C   0  0  0  0  0  0  0  0  0  0  0  0
    6.4833   10.8419   25.7600 C   0  0  0  0  0  0  0  0  0  0  0  0
    6.7775   12.1137   25.2507 C   0  0  0  0  0  0  0  0  0  0  0  0
    8.1410   12.4428   24.8467 C   0  0  0  0  0  0  0  0  0  0  0  0
    8.6117   13.3949   25.3101 O   0  0  0  0  0  0  0  0  0  0  0  0
    8.7276   11.4186   23.8978 N   0  0  0  0  0  0  0  0  0  0  0  0
    9.9887   11.3855   23.2339 C   0  0  0  0  0  0  0  0  0  0  0  0
   10.8564   12.5919   23.6235 C   0  0  0  0  0  0  0  0  0  0  0  0
   10.4840   13.8580   22.9701 C   0  0  0  0  0  0  0  0  0  0  0  0
   10.1648   13.9073   21.6463 N   0  0  0  0  0  0  0  0  0  0  0  0
   10.1938   15.1901   21.3691 C   0  0  0  0  0  0  0  0  0  0  0  0
   10.1760   15.8267   20.0475 C   0  0  0  0  0  0  0  0  0  0  0  0
   10.3709   16.0010   22.4570 O   0  0  0  0  0  0  0  0  0  0  0  0
   10.5241   15.1261   23.4931 C   0  0  0  0  0  0  0  0  0  0  0  0
   10.7147   15.6562   24.8509 C   0  0  0  0  0  0  0  0  0  0  0  0
  1  2  1  0
  2  3  1  0
  3  4  2  0
  4  5  1  0
  5  6  2  0
  6  7  1  0
  7  8  2  0
  8  9  1  0
  9 10  2  0
  9 11  1  0
 11 12  1  0
 12 13  1  0
 13 14  1  0
 14 15  1  0
 15 16  2  0
 16 17  1  0
 16 18  1  0
 18 19  1  0
 19 20  1  0
  8  3  1  0
 19 14  2  0
M  END
>  <energy_score>  (3860) 
-0.640064

>  <inchikey>  (3860) 
HVQXGMVMDKKIQQ-UHFFFAOYSA-N

>  <smiles>  (3860) 
CCc1ccccc1C(=O)NCCc1nc(C)oc1C

>  <ref_pdb>  (3860) 
A0514a

>  <alias>  (3860) 
HVQXGMVMDKKIQQ-UHFFFAOYSA-N-P637-P178-P637-601502

>  <HIPPO Pose ID>  (3860) 
503777

>  <name>  (3860) 
HVQXGMVMDKKIQQ-UHFFFAOYSA-N-P637-P178-P637-601502

>  <HIPPO Compound ID>  (3860) 
306370

>  <ref_mols>  (3860) 
A3408a,A5594a

>  <distance_score>  (3860) 
1.862563

>  <inspiration_score>  (3860) 
None

$$$$
IGFOFSBWWFICDY-UHFFFAOYSA-N-P637-P178-P637-601502
     RDKit          3D

 20 21  0  0  0  0  0  0  0  0999 V2000
   11.9187   15.0088   20.7402 C   0  0  0  0  0  0  0  0  0  0  0  0
   10.6845   14.9733   21.5212 C   0  0  0  0  0  0  0  0  0  0  0  0
    9.6947   15.8100   21.0990 O   0  0  0  0  0  0  0  0  0  0  0  0
    8.6938   15.6024   21.9869 C   0  0  0  0  0  0  0  0  0  0  0  0
    8.9650   14.7162   22.9155 N   0  0  0  0  0  0  0  0  0  0  0  0
   10.2185   14.2668   22.6063 C   0  0  0  0  0  0  0  0  0  0  0  0
   10.8445   13.1714   23.3896 C   0  0  0  0  0  0  0  0  0  0  0  0
   10.0725   11.8517   23.2828 C   0  0  0  0  0  0  0  0  0  0  0  0
    8.8985   11.8049   24.0930 N   0  0  0  0  0  0  0  0  0  0  0  0
    7.4785   12.2353   23.7940 C   0  0  0  0  0  0  0  0  0  0  0  0
    7.0039   12.6296   22.8155 O   0  0  0  0  0  0  0  0  0  0  0  0
    6.7041   12.1874   25.0344 C   0  0  0  0  0  0  0  0  0  0  0  0
    6.1069   11.0271   25.5258 C   0  0  0  0  0  0  0  0  0  0  0  0
    5.2966   11.1450   26.6518 C   0  0  0  0  0  0  0  0  0  0  0  0
    4.4969    9.7828   27.3148 Cl  0  0  0  0  0  0  0  0  0  0  0  0
    5.1101   12.3823   27.2778 C   0  0  0  0  0  0  0  0  0  0  0  0
    5.7627   13.5190   26.8053 C   0  0  0  0  0  0  0  0  0  0  0  0
    6.5833   13.4039   25.6934 C   0  0  0  0  0  0  0  0  0  0  0  0
    7.4108   14.5347   25.2622 C   0  0  0  0  0  0  0  0  0  0  0  0
    6.9240   15.6333   25.0538 O   0  0  0  0  0  0  0  0  0  0  0  0
  1  2  1  0
  2  3  1  0
  3  4  1  0
  4  5  2  0
  5  6  1  0
  6  7  1  0
  7  8  1  0
  8  9  1  0
  9 10  1  0
 10 11  2  0
 10 12  1  0
 12 13  2  0
 13 14  1  0
 14 15  1  0
 14 16  2  0
 16 17  1  0
 17 18  2  0
 18 19  1  0
 19 20  2  0
  6  2  2  0
 18 12  1  0
M  END
>  <energy_score>  (3861) 
-15.425946

>  <inchikey>  (3861) 
IGFOFSBWWFICDY-UHFFFAOYSA-N

>  <smiles>  (3861) 
Cc1ocnc1CCNC(=O)c1cc(Cl)ccc1C=O

>  <ref_pdb>  (3861) 
A0514a

>  <alias>  (3861) 
IGFOFSBWWFICDY-UHFFFAOYSA-N-P637-P178-P637-601502

>  <HIPPO Pose ID>  (3861) 
503779

>  <name>  (3861) 
IGFOFSBWWFICDY-UHFFFAOYSA-N-P637-P178-P637-601502

>  <HIPPO Compound ID>  (3861) 
306372

>  <ref_mols>  (3861) 
A3408a,A5594a

>  <distance_score>  (3861) 
1.738558

>  <inspiration_score>  (3861) 
None

$$$$
UDGJRXWDDYDNOP-UHFFFAOYSA-N-P637-P178-P637-601502
     RDKit          3D

 20 21  0  0  0  0  0  0  0  0999 V2000
    9.9234   15.6393   20.0050 C   0  0  0  0  0  0  0  0  0  0  0  0
   10.3301   15.1682   21.3279 C   0  0  0  0  0  0  0  0  0  0  0  0
    9.7944   14.2270   22.0776 N   0  0  0  0  0  0  0  0  0  0  0  0
   10.7750   13.9894   23.0075 C   0  0  0  0  0  0  0  0  0  0  0  0
   10.7680   12.7853   23.8599 C   0  0  0  0  0  0  0  0  0  0  0  0
    9.8845   11.6748   23.2811 C   0  0  0  0  0  0  0  0  0  0  0  0
    8.5805   11.8177   23.8457 N   0  0  0  0  0  0  0  0  0  0  0  0
    7.8034   10.9060   24.7802 C   0  0  0  0  0  0  0  0  0  0  0  0
    8.0599    9.8514   25.1864 O   0  0  0  0  0  0  0  0  0  0  0  0
    6.5546   11.5195   25.3372 C   0  0  0  0  0  0  0  0  0  0  0  0
    5.6800   10.5812   25.9333 C   0  0  0  0  0  0  0  0  0  0  0  0
    4.6115   10.9644   26.7490 C   0  0  0  0  0  0  0  0  0  0  0  0
    3.8329    9.9064   27.4796 C   0  0  0  0  0  0  0  0  0  0  0  0
    4.3741   12.3273   26.9077 C   0  0  0  0  0  0  0  0  0  0  0  0
    2.9388   12.9833   27.9669 Br  0  0  0  0  0  0  0  0  0  0  0  0
    5.2138   13.2723   26.3101 C   0  0  0  0  0  0  0  0  0  0  0  0
    6.3479   12.8965   25.5680 C   0  0  0  0  0  0  0  0  0  0  0  0
    7.2506   14.0278   25.1487 C   0  0  0  0  0  0  0  0  0  0  0  0
   11.7650   14.9319   22.8944 C   0  0  0  0  0  0  0  0  0  0  0  0
   11.4918   15.6963   21.8108 O   0  0  0  0  0  0  0  0  0  0  0  0
  1  2  1  0
  2  3  2  0
  3  4  1  0
  4  5  1  0
  5  6  1  0
  6  7  1  0
  7  8  1  0
  8  9  2  0
  8 10  1  0
 10 11  2  0
 11 12  1  0
 12 13  1  0
 12 14  2  0
 14 15  1  0
 14 16  1  0
 16 17  2  0
 17 18  1  0
  4 19  2  0
 19 20  1  0
 20  2  1  0
 17 10  1  0
M  END
>  <energy_score>  (3862) 
-2.707087

>  <inchikey>  (3862) 
UDGJRXWDDYDNOP-UHFFFAOYSA-N

>  <smiles>  (3862) 
Cc1nc(CCNC(=O)c2cc(C)c(Br)cc2C)co1

>  <ref_pdb>  (3862) 
A0514a

>  <alias>  (3862) 
UDGJRXWDDYDNOP-UHFFFAOYSA-N-P637-P178-P637-601502

>  <HIPPO Pose ID>  (3862) 
503781

>  <name>  (3862) 
UDGJRXWDDYDNOP-UHFFFAOYSA-N-P637-P178-P637-601502

>  <HIPPO Compound ID>  (3862) 
306374

>  <ref_mols>  (3862) 
A3408a,A5594a

>  <distance_score>  (3862) 
1.547714

>  <inspiration_score>  (3862) 
None

$$$$
KTACDVHEJHZSTD-UHFFFAOYSA-N-P637-P178-P637-601502
     RDKit          3D

 20 21  0  0  0  0  0  0  0  0999 V2000
    6.8094   14.1248   23.9630 C   0  0  0  0  0  0  0  0  0  0  0  0
    6.3832   13.0953   24.9717 C   0  0  0  0  0  0  0  0  0  0  0  0
    5.2636   13.3322   25.7827 C   0  0  0  0  0  0  0  0  0  0  0  0
    4.4460   14.8582   25.7955 Cl  0  0  0  0  0  0  0  0  0  0  0  0
    4.7648   12.3445   26.6279 C   0  0  0  0  0  0  0  0  0  0  0  0
    5.3622   11.0929   26.6578 C   0  0  0  0  0  0  0  0  0  0  0  0
    4.6542    9.8045   27.8400 Br  0  0  0  0  0  0  0  0  0  0  0  0
    6.4899   10.8341   25.8878 C   0  0  0  0  0  0  0  0  0  0  0  0
    7.0435   11.8592   25.1049 C   0  0  0  0  0  0  0  0  0  0  0  0
    8.3455   11.5730   24.4337 C   0  0  0  0  0  0  0  0  0  0  0  0
    8.4936   10.5304   23.9361 O   0  0  0  0  0  0  0  0  0  0  0  0
    9.2946   12.7876   24.5125 N   0  0  0  0  0  0  0  0  0  0  0  0
   10.5937   13.0069   23.9104 C   0  0  1  0  0  0  0  0  0  0  0  0
   10.5142   12.5967   22.4523 C   0  0  0  0  0  0  0  0  0  0  0  0
   11.0985   14.4513   24.0810 C   0  0  0  0  0  0  0  0  0  0  0  0
   10.5988   15.3223   22.9946 C   0  0  0  0  0  0  0  0  0  0  0  0
   11.2676   15.7413   21.8671 C   0  0  0  0  0  0  0  0  0  0  0  0
   10.3558   16.3041   21.0290 O   0  0  0  0  0  0  0  0  0  0  0  0
    9.1898   16.2386   21.7244 C   0  0  0  0  0  0  0  0  0  0  0  0
    9.2688   15.6479   22.8966 N   0  0  0  0  0  0  0  0  0  0  0  0
  1  2  1  0
  2  3  2  0
  3  4  1  0
  3  5  1  0
  5  6  2  0
  6  7  1  0
  6  8  1  0
  8  9  2  0
  9 10  1  0
 10 11  2  0
 10 12  1  0
 12 13  1  0
 13 14  1  6
 13 15  1  0
 15 16  1  0
 16 17  2  0
 17 18  1  0
 18 19  1  0
 19 20  2  0
  9  2  1  0
 20 16  1  0
M  END
>  <energy_score>  (3863) 
-8.000247

>  <inchikey>  (3863) 
KTACDVHEJHZSTD-UHFFFAOYSA-N

>  <smiles>  (3863) 
Cc1c(Cl)cc(Br)cc1C(=O)NC(C)Cc1cocn1

>  <ref_pdb>  (3863) 
A0514a

>  <alias>  (3863) 
KTACDVHEJHZSTD-UHFFFAOYSA-N-P637-P178-P637-601502

>  <HIPPO Pose ID>  (3863) 
503785

>  <name>  (3863) 
KTACDVHEJHZSTD-UHFFFAOYSA-N-P637-P178-P637-601502

>  <HIPPO Compound ID>  (3863) 
306378

>  <ref_mols>  (3863) 
A3408a,A5594a

>  <distance_score>  (3863) 
1.339057

>  <inspiration_score>  (3863) 
None

$$$$
IRDWZFUUKVKUGD-UHFFFAOYSA-N-P637-P178-P637-601502
     RDKit          3D

 20 21  0  0  0  0  0  0  0  0999 V2000
   12.1871   15.5752   21.4538 C   0  0  0  0  0  0  0  0  0  0  0  0
   10.8066   15.2756   21.8235 C   0  0  0  0  0  0  0  0  0  0  0  0
    9.8392   16.0059   21.2042 O   0  0  0  0  0  0  0  0  0  0  0  0
    8.6895   15.5596   21.7632 C   0  0  0  0  0  0  0  0  0  0  0  0
    8.8373   14.5893   22.6357 N   0  0  0  0  0  0  0  0  0  0  0  0
   10.1953   14.3831   22.6707 C   0  0  0  0  0  0  0  0  0  0  0  0
   10.8052   13.3093   23.4923 C   0  0  0  0  0  0  0  0  0  0  0  0
   10.0022   12.0214   23.4074 C   0  0  0  0  0  0  0  0  0  0  0  0
    8.8317   12.0333   24.2312 N   0  0  0  0  0  0  0  0  0  0  0  0
    7.7922   10.9445   24.4958 C   0  0  0  0  0  0  0  0  0  0  0  0
    7.7574    9.8368   24.1495 O   0  0  0  0  0  0  0  0  0  0  0  0
    6.6604   11.4508   25.3431 C   0  0  0  0  0  0  0  0  0  0  0  0
    6.0663   10.4892   26.1750 C   0  0  0  0  0  0  0  0  0  0  0  0
    5.0849   10.8557   27.0830 C   0  0  0  0  0  0  0  0  0  0  0  0
    4.3322    9.5929   28.2683 Br  0  0  0  0  0  0  0  0  0  0  0  0
    4.6753   12.1760   27.1689 C   0  0  0  0  0  0  0  0  0  0  0  0
    5.2061   13.1244   26.2988 C   0  0  0  0  0  0  0  0  0  0  0  0
    4.6244   14.7470   26.4750 Cl  0  0  0  0  0  0  0  0  0  0  0  0
    6.1635   12.7727   25.3326 C   0  0  0  0  0  0  0  0  0  0  0  0
    6.5475   13.7847   24.2899 C   0  0  0  0  0  0  0  0  0  0  0  0
  1  2  1  0
  2  3  1  0
  3  4  1  0
  4  5  2  0
  5  6  1  0
  6  7  1  0
  7  8  1  0
  8  9  1  0
  9 10  1  0
 10 11  2  0
 10 12  1  0
 12 13  2  0
 13 14  1  0
 14 15  1  0
 14 16  2  0
 16 17  1  0
 17 18  1  0
 17 19  2  0
 19 20  1  0
  6  2  2  0
 19 12  1  0
M  END
>  <energy_score>  (3864) 
-4.40705

>  <inchikey>  (3864) 
IRDWZFUUKVKUGD-UHFFFAOYSA-N

>  <smiles>  (3864) 
Cc1ocnc1CCNC(=O)c1cc(Br)cc(Cl)c1C

>  <ref_pdb>  (3864) 
A0514a

>  <alias>  (3864) 
IRDWZFUUKVKUGD-UHFFFAOYSA-N-P637-P178-P637-601502

>  <HIPPO Pose ID>  (3864) 
503787

>  <name>  (3864) 
IRDWZFUUKVKUGD-UHFFFAOYSA-N-P637-P178-P637-601502

>  <HIPPO Compound ID>  (3864) 
306380

>  <ref_mols>  (3864) 
A3408a,A5594a

>  <distance_score>  (3864) 
1.686157

>  <inspiration_score>  (3864) 
None

$$$$
LGNFJFDAYJJWCX-UHFFFAOYSA-N-P637-P178-P637-601502
     RDKit          3D

 20 21  0  0  0  0  0  0  0  0999 V2000
   10.0228   15.5360   19.9279 C   0  0  0  0  0  0  0  0  0  0  0  0
   10.4329   15.0288   21.2362 C   0  0  0  0  0  0  0  0  0  0  0  0
    9.9542   14.0104   21.9154 N   0  0  0  0  0  0  0  0  0  0  0  0
   10.8395   13.8724   22.9482 C   0  0  0  0  0  0  0  0  0  0  0  0
   10.8112   12.7288   23.8792 C   0  0  0  0  0  0  0  0  0  0  0  0
   10.0009   11.5202   23.3896 C   0  0  0  0  0  0  0  0  0  0  0  0
    8.7799   11.4817   24.1135 N   0  0  0  0  0  0  0  0  0  0  0  0
    7.4372   12.1054   23.8098 C   0  0  0  0  0  0  0  0  0  0  0  0
    7.0743   12.6930   22.8807 O   0  0  0  0  0  0  0  0  0  0  0  0
    6.5915   11.9458   24.9928 C   0  0  0  0  0  0  0  0  0  0  0  0
    6.1857   10.6887   25.4444 C   0  0  0  0  0  0  0  0  0  0  0  0
    5.3435   10.6189   26.5449 C   0  0  0  0  0  0  0  0  0  0  0  0
    4.9511   11.7942   27.1958 C   0  0  0  0  0  0  0  0  0  0  0  0
    5.4165   13.0559   26.7792 C   0  0  0  0  0  0  0  0  0  0  0  0
    5.0143   14.2881   27.5363 C   0  0  0  0  0  0  0  0  0  0  0  0
    6.2671   13.1153   25.6714 C   0  0  0  0  0  0  0  0  0  0  0  0
    6.9134   14.3762   25.2475 C   0  0  0  0  0  0  0  0  0  0  0  0
    8.1276   14.4518   25.1011 O   0  0  0  0  0  0  0  0  0  0  0  0
   11.7600   14.8894   22.9037 C   0  0  0  0  0  0  0  0  0  0  0  0
   11.5149   15.6386   21.8025 O   0  0  0  0  0  0  0  0  0  0  0  0
  1  2  1  0
  2  3  2  0
  3  4  1  0
  4  5  1  0
  5  6  1  0
  6  7  1  0
  7  8  1  0
  8  9  2  0
  8 10  1  0
 10 11  2  0
 11 12  1  0
 12 13  2  0
 13 14  1  0
 14 15  1  0
 14 16  2  0
 16 17  1  0
 17 18  2  0
  4 19  2  0
 19 20  1  0
 20  2  1  0
 16 10  1  0
M  END
>  <energy_score>  (3865) 
-14.239725

>  <inchikey>  (3865) 
LGNFJFDAYJJWCX-UHFFFAOYSA-N

>  <smiles>  (3865) 
Cc1nc(CCNC(=O)c2cccc(C)c2C=O)co1

>  <ref_pdb>  (3865) 
A0514a

>  <alias>  (3865) 
LGNFJFDAYJJWCX-UHFFFAOYSA-N-P637-P178-P637-601502

>  <HIPPO Pose ID>  (3865) 
503789

>  <name>  (3865) 
LGNFJFDAYJJWCX-UHFFFAOYSA-N-P637-P178-P637-601502

>  <HIPPO Compound ID>  (3865) 
306382

>  <ref_mols>  (3865) 
A3408a,A5594a

>  <distance_score>  (3865) 
1.870079

>  <inspiration_score>  (3865) 
None

$$$$
CSRSHYYBWFWURH-UHFFFAOYSA-N-P637-P178-P637-601502
     RDKit          3D

 20 21  0  0  0  0  0  0  0  0999 V2000
    4.8364   14.0314   25.6892 C   0  0  0  0  0  0  0  0  0  0  0  0
    5.6536   12.7719   25.6202 C   0  0  0  0  0  0  0  0  0  0  0  0
    5.2451   11.6526   26.3579 C   0  0  0  0  0  0  0  0  0  0  0  0
    5.8888   10.4258   26.2011 C   0  0  0  0  0  0  0  0  0  0  0  0
    7.0116   10.3223   25.3811 C   0  0  0  0  0  0  0  0  0  0  0  0
    7.4876   11.4442   24.7028 C   0  0  0  0  0  0  0  0  0  0  0  0
    8.7983   11.3420   23.9905 C   0  0  0  0  0  0  0  0  0  0  0  0
    9.0390   10.3750   23.3876 O   0  0  0  0  0  0  0  0  0  0  0  0
    9.6673   12.5857   24.2750 N   0  0  0  0  0  0  0  0  0  0  0  0
   10.9803   12.9397   23.7967 C   0  0  0  0  0  0  0  0  0  0  0  0
   11.2332   14.4395   23.8613 C   0  0  0  0  0  0  0  0  0  0  0  0
   10.3993   15.1338   22.8614 C   0  0  0  0  0  0  0  0  0  0  0  0
    9.1446   15.6049   23.1603 N   0  0  0  0  0  0  0  0  0  0  0  0
    8.7142   16.0533   21.9969 C   0  0  0  0  0  0  0  0  0  0  0  0
    9.5804   15.9178   20.9613 O   0  0  0  0  0  0  0  0  0  0  0  0
   10.6716   15.3401   21.5300 C   0  0  0  0  0  0  0  0  0  0  0  0
   11.8084   15.0562   20.6529 C   0  0  0  0  0  0  0  0  0  0  0  0
    6.7469   12.6299   24.7439 C   0  0  0  0  0  0  0  0  0  0  0  0
    6.9856   13.6460   23.7069 C   0  0  0  0  0  0  0  0  0  0  0  0
    7.2851   13.3063   22.5666 O   0  0  0  0  0  0  0  0  0  0  0  0
  1  2  1  0
  2  3  2  0
  3  4  1  0
  4  5  2  0
  5  6  1  0
  6  7  1  0
  7  8  2  0
  7  9  1  0
  9 10  1  0
 10 11  1  0
 11 12  1  0
 12 13  1  0
 13 14  2  0
 14 15  1  0
 15 16  1  0
 16 17  1  0
  6 18  2  0
 18 19  1  0
 19 20  2  0
 18  2  1  0
 16 12  2  0
M  END
>  <energy_score>  (3866) 
-18.632654

>  <inchikey>  (3866) 
CSRSHYYBWFWURH-UHFFFAOYSA-N

>  <smiles>  (3866) 
Cc1cccc(C(=O)NCCc2ncoc2C)c1C=O

>  <ref_pdb>  (3866) 
A0514a

>  <alias>  (3866) 
CSRSHYYBWFWURH-UHFFFAOYSA-N-P637-P178-P637-601502

>  <HIPPO Pose ID>  (3866) 
503790

>  <name>  (3866) 
CSRSHYYBWFWURH-UHFFFAOYSA-N-P637-P178-P637-601502

>  <HIPPO Compound ID>  (3866) 
306383

>  <ref_mols>  (3866) 
A3408a,A5594a

>  <distance_score>  (3866) 
1.238449

>  <inspiration_score>  (3866) 
None

$$$$
NIGAQWFHEQGEFP-UHFFFAOYSA-N-P637-P178-P637-601502
     RDKit          3D

 20 21  0  0  0  0  0  0  0  0999 V2000
    6.9251   14.4606   23.4118 C   0  0  0  0  0  0  0  0  0  0  0  0
    7.2761   14.1631   24.7678 O   0  0  0  0  0  0  0  0  0  0  0  0
    7.0186   12.8402   25.0101 C   0  0  0  0  0  0  0  0  0  0  0  0
    5.8927   12.5553   25.7793 C   0  0  0  0  0  0  0  0  0  0  0  0
    5.5674   11.2350   26.0372 C   0  0  0  0  0  0  0  0  0  0  0  0
    6.3593   10.2187   25.5042 C   0  0  0  0  0  0  0  0  0  0  0  0
    7.5247   10.4962   24.7629 C   0  0  0  0  0  0  0  0  0  0  0  0
    8.3256    9.3707   24.1759 C   0  0  0  0  0  0  0  0  0  0  0  0
    7.8833   11.8347   24.5528 C   0  0  0  0  0  0  0  0  0  0  0  0
    9.2250   12.1952   23.9616 C   0  0  0  0  0  0  0  0  0  0  0  0
    9.6767   11.5641   23.0967 O   0  0  0  0  0  0  0  0  0  0  0  0
    9.8186   13.3702   24.7511 N   0  0  0  0  0  0  0  0  0  0  0  0
   11.0602   14.0808   24.5803 C   0  0  2  0  0  0  0  0  0  0  0  0
   10.9284   15.3986   25.3395 C   0  0  0  0  0  0  0  0  0  0  0  0
   11.5628   14.2118   23.1514 C   0  0  0  0  0  0  0  0  0  0  0  0
   10.6719   14.8820   22.1933 C   0  0  0  0  0  0  0  0  0  0  0  0
   10.7882   14.8665   20.8258 C   0  0  0  0  0  0  0  0  0  0  0  0
    9.8197   15.6643   20.3099 O   0  0  0  0  0  0  0  0  0  0  0  0
    9.1832   16.1423   21.4086 C   0  0  0  0  0  0  0  0  0  0  0  0
    9.6235   15.6853   22.5578 N   0  0  0  0  0  0  0  0  0  0  0  0
  1  2  1  0
  2  3  1  0
  3  4  2  0
  4  5  1  0
  5  6  2  0
  6  7  1  0
  7  8  1  0
  7  9  2  0
  9 10  1  0
 10 11  2  0
 10 12  1  0
 12 13  1  0
 13 14  1  6
 13 15  1  0
 15 16  1  0
 16 17  2  0
 17 18  1  0
 18 19  1  0
 19 20  2  0
  9  3  1  0
 20 16  1  0
M  END
>  <energy_score>  (3867) 
-21.954384

>  <inchikey>  (3867) 
NIGAQWFHEQGEFP-UHFFFAOYSA-N

>  <smiles>  (3867) 
COc1cccc(C)c1C(=O)NC(C)Cc1cocn1

>  <ref_pdb>  (3867) 
A0514a

>  <alias>  (3867) 
NIGAQWFHEQGEFP-UHFFFAOYSA-N-P637-P178-P637-601502

>  <HIPPO Pose ID>  (3867) 
503791

>  <name>  (3867) 
NIGAQWFHEQGEFP-UHFFFAOYSA-N-P637-P178-P637-601502

>  <HIPPO Compound ID>  (3867) 
306384

>  <ref_mols>  (3867) 
A3408a,A5594a

>  <distance_score>  (3867) 
1.629659

>  <inspiration_score>  (3867) 
None

$$$$
UBRYYXQIKHWCBC-UHFFFAOYSA-N-P637-P178-P637-601502
     RDKit          3D

 20 21  0  0  0  0  0  0  0  0999 V2000
    7.3881   14.5025   23.3218 C   0  0  0  0  0  0  0  0  0  0  0  0
    7.6668   14.1578   24.6852 O   0  0  0  0  0  0  0  0  0  0  0  0
    7.2077   12.8969   24.9561 C   0  0  0  0  0  0  0  0  0  0  0  0
    6.0836   12.7886   25.7728 C   0  0  0  0  0  0  0  0  0  0  0  0
    5.5936   11.5299   26.1058 C   0  0  0  0  0  0  0  0  0  0  0  0
    6.2313   10.3853   25.6250 C   0  0  0  0  0  0  0  0  0  0  0  0
    7.3880   10.4856   24.8339 C   0  0  0  0  0  0  0  0  0  0  0  0
    8.0791    9.2629   24.3117 C   0  0  0  0  0  0  0  0  0  0  0  0
    7.8841   11.7564   24.5127 C   0  0  0  0  0  0  0  0  0  0  0  0
    9.1648   11.8603   23.7527 C   0  0  0  0  0  0  0  0  0  0  0  0
    9.3331   11.1823   22.8275 O   0  0  0  0  0  0  0  0  0  0  0  0
   10.0889   12.8750   24.4157 N   0  0  0  0  0  0  0  0  0  0  0  0
   11.4507   13.2074   24.1428 C   0  0  0  0  0  0  0  0  0  0  0  0
   11.6483   14.7034   24.1817 C   0  0  0  0  0  0  0  0  0  0  0  0
   11.4167   15.2574   22.8426 C   0  0  0  0  0  0  0  0  0  0  0  0
   12.3535   15.8257   22.0228 C   0  0  0  0  0  0  0  0  0  0  0  0
   11.8101   15.9796   20.8048 O   0  0  0  0  0  0  0  0  0  0  0  0
   10.5526   15.4934   20.9485 C   0  0  0  0  0  0  0  0  0  0  0  0
    9.7984   15.4490   19.7085 C   0  0  0  0  0  0  0  0  0  0  0  0
   10.2367   15.0949   22.1633 N   0  0  0  0  0  0  0  0  0  0  0  0
  1  2  1  0
  2  3  1  0
  3  4  2  0
  4  5  1  0
  5  6  2  0
  6  7  1  0
  7  8  1  0
  7  9  2  0
  9 10  1  0
 10 11  2  0
 10 12  1  0
 12 13  1  0
 13 14  1  0
 14 15  1  0
 15 16  2  0
 16 17  1  0
 17 18  1  0
 18 19  1  0
 18 20  2  0
  9  3  1  0
 20 15  1  0
M  END
>  <energy_score>  (3868) 
-11.398215

>  <inchikey>  (3868) 
UBRYYXQIKHWCBC-UHFFFAOYSA-N

>  <smiles>  (3868) 
COc1cccc(C)c1C(=O)NCCc1coc(C)n1

>  <ref_pdb>  (3868) 
A0514a

>  <alias>  (3868) 
UBRYYXQIKHWCBC-UHFFFAOYSA-N-P637-P178-P637-601502

>  <HIPPO Pose ID>  (3868) 
503792

>  <name>  (3868) 
UBRYYXQIKHWCBC-UHFFFAOYSA-N-P637-P178-P637-601502

>  <HIPPO Compound ID>  (3868) 
306385

>  <ref_mols>  (3868) 
A3408a,A5594a

>  <distance_score>  (3868) 
1.336713

>  <inspiration_score>  (3868) 
None

$$$$
CUTSFMLIRTXKQW-UHFFFAOYSA-N-P637-P178-P637-601502
     RDKit          3D

 20 21  0  0  0  0  0  0  0  0999 V2000
    6.8501   14.4860   23.5265 C   0  0  0  0  0  0  0  0  0  0  0  0
    7.3189   14.1989   24.8496 O   0  0  0  0  0  0  0  0  0  0  0  0
    7.0742   12.8769   25.1029 C   0  0  0  0  0  0  0  0  0  0  0  0
    5.9375   12.5803   25.8543 C   0  0  0  0  0  0  0  0  0  0  0  0
    5.5979   11.2571   26.0742 C   0  0  0  0  0  0  0  0  0  0  0  0
    6.3857   10.2500   25.5202 C   0  0  0  0  0  0  0  0  0  0  0  0
    7.5607   10.5402   24.7973 C   0  0  0  0  0  0  0  0  0  0  0  0
    8.3434    9.4163   24.1799 C   0  0  0  0  0  0  0  0  0  0  0  0
    7.9385   11.8829   24.6290 C   0  0  0  0  0  0  0  0  0  0  0  0
    9.2732   12.2518   24.0245 C   0  0  0  0  0  0  0  0  0  0  0  0
    9.6978   11.6026   23.1566 O   0  0  0  0  0  0  0  0  0  0  0  0
    9.9014   13.4363   24.7854 N   0  0  0  0  0  0  0  0  0  0  0  0
   11.1438   14.1292   24.5739 C   0  0  0  0  0  0  0  0  0  0  0  0
   11.5622   14.2561   23.1323 C   0  0  0  0  0  0  0  0  0  0  0  0
   10.6360   15.0251   22.2862 C   0  0  0  0  0  0  0  0  0  0  0  0
    9.5010   15.6535   22.7303 N   0  0  0  0  0  0  0  0  0  0  0  0
    9.0405   16.2403   21.6464 C   0  0  0  0  0  0  0  0  0  0  0  0
    9.7659   16.0351   20.5196 O   0  0  0  0  0  0  0  0  0  0  0  0
   10.8035   15.2751   20.9495 C   0  0  0  0  0  0  0  0  0  0  0  0
   11.8523   14.9446   19.9909 C   0  0  0  0  0  0  0  0  0  0  0  0
  1  2  1  0
  2  3  1  0
  3  4  2  0
  4  5  1  0
  5  6  2  0
  6  7  1  0
  7  8  1  0
  7  9  2  0
  9 10  1  0
 10 11  2  0
 10 12  1  0
 12 13  1  0
 13 14  1  0
 14 15  1  0
 15 16  1  0
 16 17  2  0
 17 18  1  0
 18 19  1  0
 19 20  1  0
  9  3  1  0
 19 15  2  0
M  END
>  <energy_score>  (3869) 
-18.934709

>  <inchikey>  (3869) 
CUTSFMLIRTXKQW-UHFFFAOYSA-N

>  <smiles>  (3869) 
COc1cccc(C)c1C(=O)NCCc1ncoc1C

>  <ref_pdb>  (3869) 
A0514a

>  <alias>  (3869) 
CUTSFMLIRTXKQW-UHFFFAOYSA-N-P637-P178-P637-601502

>  <HIPPO Pose ID>  (3869) 
503793

>  <name>  (3869) 
CUTSFMLIRTXKQW-UHFFFAOYSA-N-P637-P178-P637-601502

>  <HIPPO Compound ID>  (3869) 
306386

>  <ref_mols>  (3869) 
A3408a,A5594a

>  <distance_score>  (3869) 
1.901958

>  <inspiration_score>  (3869) 
None

$$$$
RWYWDCVLAWTSJE-UHFFFAOYSA-N-P637-P178-P637-601502
     RDKit          3D

 20 21  0  0  0  0  0  0  0  0999 V2000
    6.8273   13.9979   24.2105 C   0  0  0  0  0  0  0  0  0  0  0  0
    6.4867   12.8060   25.0611 C   0  0  0  0  0  0  0  0  0  0  0  0
    5.3716   12.8257   25.9231 C   0  0  0  0  0  0  0  0  0  0  0  0
    4.5759   14.0575   26.1607 C   0  0  0  0  0  0  0  0  0  0  0  0
    3.6288   14.0807   26.9409 O   0  0  0  0  0  0  0  0  0  0  0  0
    4.9500   11.6581   26.5757 C   0  0  0  0  0  0  0  0  0  0  0  0
    5.6083   10.4541   26.3618 C   0  0  0  0  0  0  0  0  0  0  0  0
    6.7429   10.4308   25.5611 C   0  0  0  0  0  0  0  0  0  0  0  0
    7.2204   11.6072   24.9653 C   0  0  0  0  0  0  0  0  0  0  0  0
    8.5016   11.4849   24.2101 C   0  0  0  0  0  0  0  0  0  0  0  0
    8.6714   10.5261   23.5715 O   0  0  0  0  0  0  0  0  0  0  0  0
    9.4127   12.7063   24.4393 N   0  0  0  0  0  0  0  0  0  0  0  0
   10.6909   13.0495   23.8521 C   0  0  1  0  0  0  0  0  0  0  0  0
   10.6460   12.7088   22.3735 C   0  0  0  0  0  0  0  0  0  0  0  0
   11.0835   14.5176   24.0912 C   0  0  0  0  0  0  0  0  0  0  0  0
   10.5054   15.3916   23.0461 C   0  0  0  0  0  0  0  0  0  0  0  0
   11.1214   15.8703   21.9120 C   0  0  0  0  0  0  0  0  0  0  0  0
   10.1588   16.3932   21.1062 O   0  0  0  0  0  0  0  0  0  0  0  0
    9.0155   16.2510   21.8287 C   0  0  0  0  0  0  0  0  0  0  0  0
    9.1557   15.6414   22.9863 N   0  0  0  0  0  0  0  0  0  0  0  0
  1  2  1  0
  2  3  2  0
  3  4  1  0
  4  5  2  0
  3  6  1  0
  6  7  2  0
  7  8  1  0
  8  9  2  0
  9 10  1  0
 10 11  2  0
 10 12  1  0
 12 13  1  0
 13 14  1  6
 13 15  1  0
 15 16  1  0
 16 17  2  0
 17 18  1  0
 18 19  1  0
 19 20  2  0
  9  2  1  0
 20 16  1  0
M  END
>  <energy_score>  (3870) 
-3.713489

>  <inchikey>  (3870) 
RWYWDCVLAWTSJE-UHFFFAOYSA-N

>  <smiles>  (3870) 
Cc1c(C=O)cccc1C(=O)NC(C)Cc1cocn1

>  <ref_pdb>  (3870) 
A0514a

>  <alias>  (3870) 
RWYWDCVLAWTSJE-UHFFFAOYSA-N-P637-P178-P637-601502

>  <HIPPO Pose ID>  (3870) 
503805

>  <name>  (3870) 
RWYWDCVLAWTSJE-UHFFFAOYSA-N-P637-P178-P637-601502

>  <HIPPO Compound ID>  (3870) 
306398

>  <ref_mols>  (3870) 
A3408a,A5594a

>  <distance_score>  (3870) 
1.450862

>  <inspiration_score>  (3870) 
None

$$$$
IFKRAGZLBGAASE-UHFFFAOYSA-N-P637-P178-P637-601502
     RDKit          3D

 20 21  0  0  0  0  0  0  0  0999 V2000
   11.8828   15.2247   20.1896 C   0  0  0  0  0  0  0  0  0  0  0  0
   10.7140   15.2936   21.0619 C   0  0  0  0  0  0  0  0  0  0  0  0
    9.8160   16.2851   20.8336 O   0  0  0  0  0  0  0  0  0  0  0  0
    8.8751   16.0932   21.7929 C   0  0  0  0  0  0  0  0  0  0  0  0
    9.0923   15.0681   22.5882 N   0  0  0  0  0  0  0  0  0  0  0  0
   10.2652   14.5381   22.1128 C   0  0  0  0  0  0  0  0  0  0  0  0
   10.9044   13.3231   22.6481 C   0  0  0  0  0  0  0  0  0  0  0  0
   10.8120   13.2081   24.1500 C   0  0  0  0  0  0  0  0  0  0  0  0
    9.5034   12.7992   24.5848 N   0  0  0  0  0  0  0  0  0  0  0  0
    8.6313   11.6075   24.1483 C   0  0  0  0  0  0  0  0  0  0  0  0
    8.8656   10.7263   23.4249 O   0  0  0  0  0  0  0  0  0  0  0  0
    7.3255   11.6209   24.8847 C   0  0  0  0  0  0  0  0  0  0  0  0
    6.8971   10.4056   25.4259 C   0  0  0  0  0  0  0  0  0  0  0  0
    5.7715   10.3654   26.2400 C   0  0  0  0  0  0  0  0  0  0  0  0
    5.0779   11.5359   26.5254 C   0  0  0  0  0  0  0  0  0  0  0  0
    5.4364   12.7535   25.9271 C   0  0  0  0  0  0  0  0  0  0  0  0
    4.5822   13.9629   26.2278 C   0  0  0  0  0  0  0  0  0  0  0  0
    5.2776   14.8661   27.0788 O   0  0  0  0  0  0  0  0  0  0  0  0
    6.5471   12.7870   25.0525 C   0  0  0  0  0  0  0  0  0  0  0  0
    6.8471   14.0148   24.2396 C   0  0  0  0  0  0  0  0  0  0  0  0
  1  2  1  0
  2  3  1  0
  3  4  1  0
  4  5  2  0
  5  6  1  0
  6  7  1  0
  7  8  1  0
  8  9  1  0
  9 10  1  0
 10 11  2  0
 10 12  1  0
 12 13  2  0
 13 14  1  0
 14 15  2  0
 15 16  1  0
 16 17  1  0
 17 18  1  0
 16 19  2  0
 19 20  1  0
  6  2  2  0
 19 12  1  0
M  END
>  <energy_score>  (3871) 
-6.352039

>  <inchikey>  (3871) 
IFKRAGZLBGAASE-UHFFFAOYSA-N

>  <smiles>  (3871) 
Cc1ocnc1CCNC(=O)c1cccc(CO)c1C

>  <ref_pdb>  (3871) 
A0514a

>  <alias>  (3871) 
IFKRAGZLBGAASE-UHFFFAOYSA-N-P637-P178-P637-601502

>  <HIPPO Pose ID>  (3871) 
503809

>  <name>  (3871) 
IFKRAGZLBGAASE-UHFFFAOYSA-N-P637-P178-P637-601502

>  <HIPPO Compound ID>  (3871) 
306402

>  <ref_mols>  (3871) 
A3408a,A5594a

>  <distance_score>  (3871) 
1.903877

>  <inspiration_score>  (3871) 
None

$$$$
DMFCGHVVUYMHLB-UHFFFAOYSA-N-P637-P178-P637-601502
     RDKit          3D

 20 21  0  0  0  0  0  0  0  0999 V2000
    5.0508   13.7691   26.6453 C   0  0  0  0  0  0  0  0  0  0  0  0
    5.9180   12.6855   26.0644 C   0  0  0  0  0  0  0  0  0  0  0  0
    5.5722   11.3544   26.3123 C   0  0  0  0  0  0  0  0  0  0  0  0
    6.2950   10.3137   25.7364 C   0  0  0  0  0  0  0  0  0  0  0  0
    7.4238   10.5687   24.9509 C   0  0  0  0  0  0  0  0  0  0  0  0
    8.1745    9.4340   24.3112 C   0  0  0  0  0  0  0  0  0  0  0  0
    7.7940   11.9043   24.7127 C   0  0  0  0  0  0  0  0  0  0  0  0
    8.9889   12.1512   23.8466 C   0  0  0  0  0  0  0  0  0  0  0  0
    9.0017   11.6398   22.8065 O   0  0  0  0  0  0  0  0  0  0  0  0
   10.0217   13.0553   24.5189 N   0  0  0  0  0  0  0  0  0  0  0  0
   11.3390   13.4492   24.0919 C   0  0  0  0  0  0  0  0  0  0  0  0
   11.4253   14.9417   23.8267 C   0  0  0  0  0  0  0  0  0  0  0  0
   10.4961   15.3493   22.7549 C   0  0  0  0  0  0  0  0  0  0  0  0
    9.2537   15.8546   23.0323 N   0  0  0  0  0  0  0  0  0  0  0  0
    8.7391   16.0677   21.8403 C   0  0  0  0  0  0  0  0  0  0  0  0
    9.5327   15.7199   20.7959 O   0  0  0  0  0  0  0  0  0  0  0  0
   10.6715   15.2773   21.3949 C   0  0  0  0  0  0  0  0  0  0  0  0
   11.7650   14.8537   20.5230 C   0  0  0  0  0  0  0  0  0  0  0  0
    7.0020   12.9648   25.2046 C   0  0  0  0  0  0  0  0  0  0  0  0
    7.2643   14.3649   24.7367 C   0  0  0  0  0  0  0  0  0  0  0  0
  1  2  1  0
  2  3  2  0
  3  4  1  0
  4  5  2  0
  5  6  1  0
  5  7  1  0
  7  8  1  0
  8  9  2  0
  8 10  1  0
 10 11  1  0
 11 12  1  0
 12 13  1  0
 13 14  1  0
 14 15  2  0
 15 16  1  0
 16 17  1  0
 17 18  1  0
  7 19  2  0
 19 20  1  0
 19  2  1  0
 17 13  2  0
M  END
>  <energy_score>  (3872) 
-21.300739

>  <inchikey>  (3872) 
DMFCGHVVUYMHLB-UHFFFAOYSA-N

>  <smiles>  (3872) 
Cc1ccc(C)c(C(=O)NCCc2ncoc2C)c1C

>  <ref_pdb>  (3872) 
A0514a

>  <alias>  (3872) 
DMFCGHVVUYMHLB-UHFFFAOYSA-N-P637-P178-P637-601502

>  <HIPPO Pose ID>  (3872) 
503814

>  <name>  (3872) 
DMFCGHVVUYMHLB-UHFFFAOYSA-N-P637-P178-P637-601502

>  <HIPPO Compound ID>  (3872) 
306407

>  <ref_mols>  (3872) 
A3408a,A5594a

>  <distance_score>  (3872) 
1.879542

>  <inspiration_score>  (3872) 
None

$$$$
ZUTGNASFPUFKEO-UHFFFAOYSA-N-P637-P178-P637-601502
     RDKit          3D

 20 21  0  0  0  0  0  0  0  0999 V2000
   12.0038   15.5272   21.5005 C   0  0  0  0  0  0  0  0  0  0  0  0
   10.6240   15.1363   21.7985 C   0  0  0  0  0  0  0  0  0  0  0  0
    9.6396   15.8896   21.2351 O   0  0  0  0  0  0  0  0  0  0  0  0
    8.4933   15.3342   21.6978 C   0  0  0  0  0  0  0  0  0  0  0  0
    8.6522   14.2774   22.4626 N   0  0  0  0  0  0  0  0  0  0  0  0
   10.0249   14.1357   22.5267 C   0  0  0  0  0  0  0  0  0  0  0  0
   10.6619   13.0272   23.2794 C   0  0  0  0  0  0  0  0  0  0  0  0
    9.8942   11.7186   23.1368 C   0  0  0  0  0  0  0  0  0  0  0  0
    8.6129   11.8119   23.7621 N   0  0  0  0  0  0  0  0  0  0  0  0
    7.8979   10.8516   24.6955 C   0  0  0  0  0  0  0  0  0  0  0  0
    8.1944    9.7903   25.0526 O   0  0  0  0  0  0  0  0  0  0  0  0
    6.6628   11.4188   25.3244 C   0  0  0  0  0  0  0  0  0  0  0  0
    5.7772   10.4274   25.7954 C   0  0  0  0  0  0  0  0  0  0  0  0
    4.6681   10.7444   26.5606 C   0  0  0  0  0  0  0  0  0  0  0  0
    4.3847   12.0756   26.8121 C   0  0  0  0  0  0  0  0  0  0  0  0
    5.2333   13.0835   26.3356 C   0  0  0  0  0  0  0  0  0  0  0  0
    4.8078   14.4846   26.5920 C   0  0  0  0  0  0  0  0  0  0  0  0
    3.9680   14.7703   27.4387 O   0  0  0  0  0  0  0  0  0  0  0  0
    6.4347   12.7769   25.6542 C   0  0  0  0  0  0  0  0  0  0  0  0
    7.4042   13.8998   25.3888 C   0  0  0  0  0  0  0  0  0  0  0  0
  1  2  1  0
  2  3  1  0
  3  4  1  0
  4  5  2  0
  5  6  1  0
  6  7  1  0
  7  8  1  0
  8  9  1  0
  9 10  1  0
 10 11  2  0
 10 12  1  0
 12 13  2  0
 13 14  1  0
 14 15  2  0
 15 16  1  0
 16 17  1  0
 17 18  2  0
 16 19  2  0
 19 20  1  0
  6  2  2  0
 19 12  1  0
M  END
>  <energy_score>  (3873) 
-14.572421

>  <inchikey>  (3873) 
ZUTGNASFPUFKEO-UHFFFAOYSA-N

>  <smiles>  (3873) 
Cc1ocnc1CCNC(=O)c1cccc(C=O)c1C

>  <ref_pdb>  (3873) 
A0514a

>  <alias>  (3873) 
ZUTGNASFPUFKEO-UHFFFAOYSA-N-P637-P178-P637-601502

>  <HIPPO Pose ID>  (3873) 
503816

>  <name>  (3873) 
ZUTGNASFPUFKEO-UHFFFAOYSA-N-P637-P178-P637-601502

>  <HIPPO Compound ID>  (3873) 
306409

>  <ref_mols>  (3873) 
A3408a,A5594a

>  <distance_score>  (3873) 
1.587876

>  <inspiration_score>  (3873) 
None

$$$$
BRYRZNPXBDKJKA-UHFFFAOYSA-N-P637-P178-P637-601502
     RDKit          3D

 20 21  0  0  0  0  0  0  0  0999 V2000
    6.7548   14.1379   21.9968 C   0  0  0  0  0  0  0  0  0  0  0  0
    6.0316   14.6267   23.2316 C   0  0  0  0  0  0  0  0  0  0  0  0
    6.8157   14.4764   24.5256 C   0  0  0  0  0  0  0  0  0  0  0  0
    6.8243   13.0536   25.0319 C   0  0  0  0  0  0  0  0  0  0  0  0
    5.6771   12.5870   25.6963 C   0  0  0  0  0  0  0  0  0  0  0  0
    5.5293   11.2386   26.0025 C   0  0  0  0  0  0  0  0  0  0  0  0
    6.5047   10.3340   25.6025 C   0  0  0  0  0  0  0  0  0  0  0  0
    7.6726   10.7806   24.9847 C   0  0  0  0  0  0  0  0  0  0  0  0
    7.8642   12.1477   24.7614 C   0  0  0  0  0  0  0  0  0  0  0  0
    9.2100   12.6154   24.3006 C   0  0  0  0  0  0  0  0  0  0  0  0
    9.7385   12.0946   23.4044 O   0  0  0  0  0  0  0  0  0  0  0  0
    9.6460   13.8250   25.1524 N   0  0  0  0  0  0  0  0  0  0  0  0
   10.7811   14.7068   25.0171 C   0  0  2  0  0  0  0  0  0  0  0  0
   10.9575   15.4608   26.3429 C   0  0  0  0  0  0  0  0  0  0  0  0
   10.5075   15.7413   23.9304 C   0  0  0  0  0  0  0  0  0  0  0  0
   10.4768   15.2702   22.5380 C   0  0  0  0  0  0  0  0  0  0  0  0
   11.2850   14.3820   21.8766 C   0  0  0  0  0  0  0  0  0  0  0  0
   10.9883   14.4547   20.5521 O   0  0  0  0  0  0  0  0  0  0  0  0
    9.9725   15.3475   20.4910 C   0  0  0  0  0  0  0  0  0  0  0  0
    9.6104   15.8543   21.6458 N   0  0  0  0  0  0  0  0  0  0  0  0
  1  2  1  0
  2  3  1  0
  3  4  1  0
  4  5  2  0
  5  6  1  0
  6  7  2  0
  7  8  1  0
  8  9  2  0
  9 10  1  0
 10 11  2  0
 10 12  1  0
 12 13  1  0
 13 14  1  1
 13 15  1  0
 15 16  1  0
 16 17  2  0
 17 18  1  0
 18 19  1  0
 19 20  2  0
  9  4  1  0
 20 16  1  0
M  END
>  <energy_score>  (3874) 
-16.663454

>  <inchikey>  (3874) 
BRYRZNPXBDKJKA-UHFFFAOYSA-N

>  <smiles>  (3874) 
CCCc1ccccc1C(=O)NC(C)Cc1cocn1

>  <ref_pdb>  (3874) 
A0514a

>  <alias>  (3874) 
BRYRZNPXBDKJKA-UHFFFAOYSA-N-P637-P178-P637-601502

>  <HIPPO Pose ID>  (3874) 
503817

>  <name>  (3874) 
BRYRZNPXBDKJKA-UHFFFAOYSA-N-P637-P178-P637-601502

>  <HIPPO Compound ID>  (3874) 
306410

>  <ref_mols>  (3874) 
A3408a,A5594a

>  <distance_score>  (3874) 
1.549116

>  <inspiration_score>  (3874) 
None

$$$$
GJOAYYGNADKCLK-UHFFFAOYSA-N-P637-P178-P637-601502
     RDKit          3D

 20 21  0  0  0  0  0  0  0  0999 V2000
    4.6965   13.9058   25.8330 C   0  0  0  0  0  0  0  0  0  0  0  0
    5.6254   12.7323   25.6960 C   0  0  0  0  0  0  0  0  0  0  0  0
    5.3006   11.5319   26.3370 C   0  0  0  0  0  0  0  0  0  0  0  0
    6.0491   10.3791   26.1034 C   0  0  0  0  0  0  0  0  0  0  0  0
    7.1968   10.4244   25.3110 C   0  0  0  0  0  0  0  0  0  0  0  0
    7.5939   11.6318   24.7418 C   0  0  0  0  0  0  0  0  0  0  0  0
    8.8794   11.7024   23.9821 C   0  0  0  0  0  0  0  0  0  0  0  0
    9.1146   10.8713   23.2005 O   0  0  0  0  0  0  0  0  0  0  0  0
    9.6514   12.9952   24.3329 N   0  0  0  0  0  0  0  0  0  0  0  0
   10.8269   13.5825   23.7250 C   0  0  2  0  0  0  0  0  0  0  0  0
   12.0730   13.5218   24.5831 C   0  0  0  0  0  0  0  0  0  0  0  0
   10.5266   15.0579   23.3990 C   0  0  0  0  0  0  0  0  0  0  0  0
   10.5869   15.2767   21.9521 C   0  0  0  0  0  0  0  0  0  0  0  0
   11.6979   15.4019   21.1565 C   0  0  0  0  0  0  0  0  0  0  0  0
   11.2747   15.5107   19.8720 O   0  0  0  0  0  0  0  0  0  0  0  0
    9.9217   15.4641   19.9731 C   0  0  0  0  0  0  0  0  0  0  0  0
    9.4509   15.3308   21.1906 N   0  0  0  0  0  0  0  0  0  0  0  0
    6.7443   12.7457   24.8422 C   0  0  0  0  0  0  0  0  0  0  0  0
    6.9096   13.8600   23.8892 C   0  0  0  0  0  0  0  0  0  0  0  0
    7.3271   13.6549   22.7573 O   0  0  0  0  0  0  0  0  0  0  0  0
  1  2  1  0
  2  3  2  0
  3  4  1  0
  4  5  2  0
  5  6  1  0
  6  7  1  0
  7  8  2  0
  7  9  1  0
  9 10  1  0
 10 11  1  1
 10 12  1  0
 12 13  1  0
 13 14  2  0
 14 15  1  0
 15 16  1  0
 16 17  2  0
  6 18  2  0
 18 19  1  0
 19 20  2  0
 18  2  1  0
 17 13  1  0
M  END
>  <energy_score>  (3875) 
-15.298733

>  <inchikey>  (3875) 
GJOAYYGNADKCLK-UHFFFAOYSA-N

>  <smiles>  (3875) 
Cc1cccc(C(=O)NC(C)Cc2cocn2)c1C=O

>  <ref_pdb>  (3875) 
A0514a

>  <alias>  (3875) 
GJOAYYGNADKCLK-UHFFFAOYSA-N-P637-P178-P637-601502

>  <HIPPO Pose ID>  (3875) 
503818

>  <name>  (3875) 
GJOAYYGNADKCLK-UHFFFAOYSA-N-P637-P178-P637-601502

>  <HIPPO Compound ID>  (3875) 
306411

>  <ref_mols>  (3875) 
A3408a,A5594a

>  <distance_score>  (3875) 
1.446376

>  <inspiration_score>  (3875) 
None

$$$$
VQYSFIJRGLDCHR-UHFFFAOYSA-N-P637-P178-P637-601502
     RDKit          3D

 20 21  0  0  0  0  0  0  0  0999 V2000
    6.6997   14.1206   22.3289 C   0  0  0  0  0  0  0  0  0  0  0  0
    6.8896   14.9469   23.5860 C   0  0  0  0  0  0  0  0  0  0  0  0
    6.3726   14.3491   24.8947 C   0  0  0  0  0  0  0  0  0  0  0  0
    6.6440   12.8919   25.1445 C   0  0  0  0  0  0  0  0  0  0  0  0
    5.6033   12.1158   25.6788 C   0  0  0  0  0  0  0  0  0  0  0  0
    5.7300   10.7393   25.7856 C   0  0  0  0  0  0  0  0  0  0  0  0
    6.8869   10.1312   25.3214 C   0  0  0  0  0  0  0  0  0  0  0  0
    7.9642   10.8930   24.8679 C   0  0  0  0  0  0  0  0  0  0  0  0
    7.8740   12.2868   24.8477 C   0  0  0  0  0  0  0  0  0  0  0  0
    9.0942   13.1569   24.7365 C   0  0  0  0  0  0  0  0  0  0  0  0
    9.1724   14.0367   25.4927 O   0  0  0  0  0  0  0  0  0  0  0  0
   10.0670   12.6907   23.6559 N   0  0  0  0  0  0  0  0  0  0  0  0
   11.3925   13.1467   23.3311 C   0  0  0  0  0  0  0  0  0  0  0  0
   11.5609   14.6596   23.4298 C   0  0  0  0  0  0  0  0  0  0  0  0
   10.7552   15.3534   22.4079 C   0  0  0  0  0  0  0  0  0  0  0  0
    9.6634   16.1022   22.7324 N   0  0  0  0  0  0  0  0  0  0  0  0
    9.2354   16.5553   21.5768 C   0  0  0  0  0  0  0  0  0  0  0  0
    9.9392   16.1321   20.4986 O   0  0  0  0  0  0  0  0  0  0  0  0
   10.9386   15.3923   21.0484 C   0  0  0  0  0  0  0  0  0  0  0  0
   11.9505   14.8726   20.1382 C   0  0  0  0  0  0  0  0  0  0  0  0
  1  2  1  0
  2  3  1  0
  3  4  1  0
  4  5  2  0
  5  6  1  0
  6  7  2  0
  7  8  1  0
  8  9  2  0
  9 10  1  0
 10 11  2  0
 10 12  1  0
 12 13  1  0
 13 14  1  0
 14 15  1  0
 15 16  1  0
 16 17  2  0
 17 18  1  0
 18 19  1  0
 19 20  1  0
  9  4  1  0
 19 15  2  0
M  END
>  <energy_score>  (3876) 
-1.190009

>  <inchikey>  (3876) 
VQYSFIJRGLDCHR-UHFFFAOYSA-N

>  <smiles>  (3876) 
CCCc1ccccc1C(=O)NCCc1ncoc1C

>  <ref_pdb>  (3876) 
A0514a

>  <alias>  (3876) 
VQYSFIJRGLDCHR-UHFFFAOYSA-N-P637-P178-P637-601502

>  <HIPPO Pose ID>  (3876) 
503821

>  <name>  (3876) 
VQYSFIJRGLDCHR-UHFFFAOYSA-N-P637-P178-P637-601502

>  <HIPPO Compound ID>  (3876) 
306414

>  <ref_mols>  (3876) 
A3408a,A5594a

>  <distance_score>  (3876) 
1.902863

>  <inspiration_score>  (3876) 
None

$$$$
NAWQERQEEKMZDE-UHFFFAOYSA-N-P637-P178-P637-601502
     RDKit          3D

 20 22  0  0  0  0  0  0  0  0999 V2000
   10.0787   15.9322   19.1634 C   0  0  0  0  0  0  0  0  0  0  0  0
   10.2973   15.6034   20.5708 C   0  0  0  0  0  0  0  0  0  0  0  0
    9.9305   14.5305   21.2384 N   0  0  0  0  0  0  0  0  0  0  0  0
   10.9167   14.4471   22.1790 C   0  0  0  0  0  0  0  0  0  0  0  0
   11.3020   13.1643   22.7552 C   0  0  0  0  0  0  0  0  0  0  0  0
   11.1632   13.1055   24.2464 C   0  0  0  0  0  0  0  0  0  0  0  0
    9.8305   12.7240   24.6037 N   0  0  0  0  0  0  0  0  0  0  0  0
    8.9631   11.5414   24.1216 C   0  0  0  0  0  0  0  0  0  0  0  0
    9.2244   10.6520   23.4184 O   0  0  0  0  0  0  0  0  0  0  0  0
    7.6125   11.6771   24.6798 C   0  0  0  0  0  0  0  0  0  0  0  0
    7.0158   10.6347   25.3916 C   0  0  0  0  0  0  0  0  0  0  0  0
    5.8028   10.8532   26.0580 C   0  0  0  0  0  0  0  0  0  0  0  0
    5.1758   12.1021   25.9842 C   0  0  0  0  0  0  0  0  0  0  0  0
    5.7487   13.0862   25.1894 C   0  0  0  0  0  0  0  0  0  0  0  0
    6.9477   12.8764   24.5349 C   0  0  0  0  0  0  0  0  0  0  0  0
    7.2407   14.0270   23.6383 C   0  0  0  0  0  0  0  0  0  0  0  0
    6.3525   15.0461   24.1322 O   0  0  0  0  0  0  0  0  0  0  0  0
    5.2181   14.3999   24.7491 C   0  0  0  0  0  0  0  0  0  0  0  0
   11.6454   15.6053   22.2231 C   0  0  0  0  0  0  0  0  0  0  0  0
   11.2392   16.3729   21.1913 O   0  0  0  0  0  0  0  0  0  0  0  0
  1  2  1  0
  2  3  2  0
  3  4  1  0
  4  5  1  0
  5  6  1  0
  6  7  1  0
  7  8  1  0
  8  9  2  0
  8 10  1  0
 10 11  2  0
 11 12  1  0
 12 13  2  0
 13 14  1  0
 14 15  2  0
 15 16  1  0
 16 17  1  0
 17 18  1  0
  4 19  2  0
 19 20  1  0
 20  2  1  0
 15 10  1  0
 18 14  1  0
M  END
>  <energy_score>  (3877) 
-0.575587

>  <inchikey>  (3877) 
NAWQERQEEKMZDE-UHFFFAOYSA-N

>  <smiles>  (3877) 
Cc1nc(CCNC(=O)c2cccc3c2COC3)co1

>  <ref_pdb>  (3877) 
A0514a

>  <alias>  (3877) 
NAWQERQEEKMZDE-UHFFFAOYSA-N-P637-P178-P637-601502

>  <HIPPO Pose ID>  (3877) 
503829

>  <name>  (3877) 
NAWQERQEEKMZDE-UHFFFAOYSA-N-P637-P178-P637-601502

>  <HIPPO Compound ID>  (3877) 
306422

>  <ref_mols>  (3877) 
A3408a,A5594a

>  <distance_score>  (3877) 
1.970487

>  <inspiration_score>  (3877) 
None

$$$$
MUVAESXMSPSNOI-UHFFFAOYSA-N-P637-P178-P637-601502
     RDKit          3D

 20 21  0  0  0  0  0  0  0  0999 V2000
    7.0797   14.7029   23.8316 C   0  0  0  0  0  0  0  0  0  0  0  0
    7.4214   14.0188   25.1513 C   0  0  0  0  0  0  0  0  0  0  0  0
    6.4613   12.9054   25.5140 C   0  0  0  0  0  0  0  0  0  0  0  0
    5.3362   13.2883   26.2701 C   0  0  0  0  0  0  0  0  0  0  0  0
    4.4381   12.3486   26.7776 C   0  0  0  0  0  0  0  0  0  0  0  0
    4.6116   11.0027   26.4970 C   0  0  0  0  0  0  0  0  0  0  0  0
    5.6699   10.6086   25.6968 C   0  0  0  0  0  0  0  0  0  0  0  0
    5.7468    9.3101   25.3769 F   0  0  0  0  0  0  0  0  0  0  0  0
    6.6154   11.5294   25.2185 C   0  0  0  0  0  0  0  0  0  0  0  0
    7.8771   10.9123   24.7389 C   0  0  0  0  0  0  0  0  0  0  0  0
    8.1545    9.9006   25.2268 O   0  0  0  0  0  0  0  0  0  0  0  0
    8.6439   11.7714   23.7534 N   0  0  0  0  0  0  0  0  0  0  0  0
    9.9586   11.6246   23.2233 C   0  0  0  0  0  0  0  0  0  0  0  0
   10.8274   12.7467   23.8065 C   0  0  0  0  0  0  0  0  0  0  0  0
   10.8148   13.9610   22.9678 C   0  0  0  0  0  0  0  0  0  0  0  0
   11.7790   14.9328   22.8868 C   0  0  0  0  0  0  0  0  0  0  0  0
   11.4994   15.7118   21.8157 O   0  0  0  0  0  0  0  0  0  0  0  0
   10.3601   15.1618   21.3041 C   0  0  0  0  0  0  0  0  0  0  0  0
    9.9527   15.6561   19.9890 C   0  0  0  0  0  0  0  0  0  0  0  0
    9.8438   14.1877   22.0257 N   0  0  0  0  0  0  0  0  0  0  0  0
  1  2  1  0
  2  3  1  0
  3  4  2  0
  4  5  1  0
  5  6  2  0
  6  7  1  0
  7  8  1  0
  7  9  2  0
  9 10  1  0
 10 11  2  0
 10 12  1  0
 12 13  1  0
 13 14  1  0
 14 15  1  0
 15 16  2  0
 16 17  1  0
 17 18  1  0
 18 19  1  0
 18 20  2  0
  9  3  1  0
 20 15  1  0
M  END
>  <energy_score>  (3878) 
-1.453541

>  <inchikey>  (3878) 
MUVAESXMSPSNOI-UHFFFAOYSA-N

>  <smiles>  (3878) 
CCc1cccc(F)c1C(=O)NCCc1coc(C)n1

>  <ref_pdb>  (3878) 
A0514a

>  <alias>  (3878) 
MUVAESXMSPSNOI-UHFFFAOYSA-N-P637-P178-P637-601502

>  <HIPPO Pose ID>  (3878) 
503832

>  <name>  (3878) 
MUVAESXMSPSNOI-UHFFFAOYSA-N-P637-P178-P637-601502

>  <HIPPO Compound ID>  (3878) 
306425

>  <ref_mols>  (3878) 
A3408a,A5594a

>  <distance_score>  (3878) 
1.698744

>  <inspiration_score>  (3878) 
None

$$$$
SQNDSSTUVVCWPZ-UHFFFAOYSA-N-P637-P178-P637-601502
     RDKit          3D

 20 21  0  0  0  0  0  0  0  0999 V2000
    6.9284   14.7296   24.3126 C   0  0  0  0  0  0  0  0  0  0  0  0
    7.4783   13.8572   25.4282 C   0  0  0  0  0  0  0  0  0  0  0  0
    6.5471   12.7038   25.7234 C   0  0  0  0  0  0  0  0  0  0  0  0
    5.4398   13.0149   26.5408 C   0  0  0  0  0  0  0  0  0  0  0  0
    4.5336   12.0405   26.9543 C   0  0  0  0  0  0  0  0  0  0  0  0
    4.6884   10.7336   26.5258 C   0  0  0  0  0  0  0  0  0  0  0  0
    5.7376   10.4162   25.6786 C   0  0  0  0  0  0  0  0  0  0  0  0
    5.7934    9.1584   25.2234 F   0  0  0  0  0  0  0  0  0  0  0  0
    6.6878   11.3693   25.2811 C   0  0  0  0  0  0  0  0  0  0  0  0
    7.9169   10.7932   24.6701 C   0  0  0  0  0  0  0  0  0  0  0  0
    8.2100    9.7375   25.0449 O   0  0  0  0  0  0  0  0  0  0  0  0
    8.6376   11.7376   23.7246 N   0  0  0  0  0  0  0  0  0  0  0  0
    9.9216   11.6322   23.1059 C   0  0  0  0  0  0  0  0  0  0  0  0
   10.7015   12.9393   23.2288 C   0  0  0  0  0  0  0  0  0  0  0  0
   10.1200   14.0232   22.4033 C   0  0  0  0  0  0  0  0  0  0  0  0
    8.7741   14.0602   22.1199 N   0  0  0  0  0  0  0  0  0  0  0  0
    8.6502   15.1352   21.3789 C   0  0  0  0  0  0  0  0  0  0  0  0
    9.7992   15.7981   21.1196 O   0  0  0  0  0  0  0  0  0  0  0  0
   10.7433   15.0905   21.7992 C   0  0  0  0  0  0  0  0  0  0  0  0
   12.1141   15.5920   21.7105 C   0  0  0  0  0  0  0  0  0  0  0  0
  1  2  1  0
  2  3  1  0
  3  4  2  0
  4  5  1  0
  5  6  2  0
  6  7  1  0
  7  8  1  0
  7  9  2  0
  9 10  1  0
 10 11  2  0
 10 12  1  0
 12 13  1  0
 13 14  1  0
 14 15  1  0
 15 16  1  0
 16 17  2  0
 17 18  1  0
 18 19  1  0
 19 20  1  0
  9  3  1  0
 19 15  2  0
M  END
>  <energy_score>  (3879) 
-2.747821

>  <inchikey>  (3879) 
SQNDSSTUVVCWPZ-UHFFFAOYSA-N

>  <smiles>  (3879) 
CCc1cccc(F)c1C(=O)NCCc1ncoc1C

>  <ref_pdb>  (3879) 
A0514a

>  <alias>  (3879) 
SQNDSSTUVVCWPZ-UHFFFAOYSA-N-P637-P178-P637-601502

>  <HIPPO Pose ID>  (3879) 
503833

>  <name>  (3879) 
SQNDSSTUVVCWPZ-UHFFFAOYSA-N-P637-P178-P637-601502

>  <HIPPO Compound ID>  (3879) 
306426

>  <ref_mols>  (3879) 
A3408a,A5594a

>  <distance_score>  (3879) 
1.56177

>  <inspiration_score>  (3879) 
None

$$$$
DCSFFOUIYZRSGC-UHFFFAOYSA-N-P637-P178-P637-601502
     RDKit          3D

 20 21  0  0  0  0  0  0  0  0999 V2000
    9.7626   15.4429   19.7507 C   0  0  0  0  0  0  0  0  0  0  0  0
   10.5060   15.4980   20.9963 C   0  0  0  0  0  0  0  0  0  0  0  0
   10.1814   15.1111   22.2136 N   0  0  0  0  0  0  0  0  0  0  0  0
   11.3637   15.2623   22.8907 C   0  0  0  0  0  0  0  0  0  0  0  0
   11.5866   14.6963   24.2241 C   0  0  0  0  0  0  0  0  0  0  0  0
   11.4138   13.1972   24.1531 C   0  0  0  0  0  0  0  0  0  0  0  0
   10.0730   12.8285   24.4859 N   0  0  0  0  0  0  0  0  0  0  0  0
    9.0755   11.9478   23.7447 C   0  0  0  0  0  0  0  0  0  0  0  0
    9.2018   11.3157   22.7829 O   0  0  0  0  0  0  0  0  0  0  0  0
    7.7939   11.8788   24.5060 C   0  0  0  0  0  0  0  0  0  0  0  0
    7.3342   10.6062   24.8929 C   0  0  0  0  0  0  0  0  0  0  0  0
    8.0282    9.3758   24.3880 C   0  0  0  0  0  0  0  0  0  0  0  0
    6.2096   10.5094   25.7262 C   0  0  0  0  0  0  0  0  0  0  0  0
    5.5706   11.6635   26.1721 C   0  0  0  0  0  0  0  0  0  0  0  0
    4.2435   11.5422   27.2608 Cl  0  0  0  0  0  0  0  0  0  0  0  0
    6.0015   12.9192   25.7474 C   0  0  0  0  0  0  0  0  0  0  0  0
    7.0999   13.0400   24.8832 C   0  0  0  0  0  0  0  0  0  0  0  0
    7.4962   14.3979   24.3847 C   0  0  0  0  0  0  0  0  0  0  0  0
   12.3105   15.8138   22.0703 C   0  0  0  0  0  0  0  0  0  0  0  0
   11.7695   15.9704   20.8521 O   0  0  0  0  0  0  0  0  0  0  0  0
  1  2  1  0
  2  3  2  0
  3  4  1  0
  4  5  1  0
  5  6  1  0
  6  7  1  0
  7  8  1  0
  8  9  2  0
  8 10  1  0
 10 11  2  0
 11 12  1  0
 11 13  1  0
 13 14  2  0
 14 15  1  0
 14 16  1  0
 16 17  2  0
 17 18  1  0
  4 19  2  0
 19 20  1  0
 20  2  1  0
 17 10  1  0
M  END
>  <energy_score>  (3880) 
-9.301453

>  <inchikey>  (3880) 
DCSFFOUIYZRSGC-UHFFFAOYSA-N

>  <smiles>  (3880) 
Cc1nc(CCNC(=O)c2c(C)cc(Cl)cc2C)co1

>  <ref_pdb>  (3880) 
A0514a

>  <alias>  (3880) 
DCSFFOUIYZRSGC-UHFFFAOYSA-N-P637-P178-P637-601502

>  <HIPPO Pose ID>  (3880) 
503835

>  <name>  (3880) 
DCSFFOUIYZRSGC-UHFFFAOYSA-N-P637-P178-P637-601502

>  <HIPPO Compound ID>  (3880) 
306428

>  <ref_mols>  (3880) 
A3408a,A5594a

>  <distance_score>  (3880) 
1.72821

>  <inspiration_score>  (3880) 
None

$$$$
DQFATNJTEVJEGN-UHFFFAOYSA-N-P637-P178-P637-601502
     RDKit          3D

 20 21  0  0  0  0  0  0  0  0999 V2000
    7.2828   14.4112   24.8479 C   0  0  0  0  0  0  0  0  0  0  0  0
    7.0343   12.9891   25.2371 C   0  0  0  0  0  0  0  0  0  0  0  0
    5.9401   12.7092   26.0703 C   0  0  0  0  0  0  0  0  0  0  0  0
    5.5728   11.3960   26.3308 C   0  0  0  0  0  0  0  0  0  0  0  0
    4.2358   11.0718   27.3631 Cl  0  0  0  0  0  0  0  0  0  0  0  0
    6.2800   10.3464   25.7555 C   0  0  0  0  0  0  0  0  0  0  0  0
    7.4097   10.5952   24.9583 C   0  0  0  0  0  0  0  0  0  0  0  0
    8.1515    9.4512   24.3231 C   0  0  0  0  0  0  0  0  0  0  0  0
    7.8017   11.9287   24.7210 C   0  0  0  0  0  0  0  0  0  0  0  0
    8.9893   12.1716   23.8443 C   0  0  0  0  0  0  0  0  0  0  0  0
    9.0032   11.6380   22.8157 O   0  0  0  0  0  0  0  0  0  0  0  0
   10.0221   13.0877   24.4989 N   0  0  0  0  0  0  0  0  0  0  0  0
   11.3418   13.4702   24.0660 C   0  0  0  0  0  0  0  0  0  0  0  0
   11.4212   14.9611   23.7830 C   0  0  0  0  0  0  0  0  0  0  0  0
   10.4846   15.3393   22.7065 C   0  0  0  0  0  0  0  0  0  0  0  0
    9.2094   15.7644   22.9738 N   0  0  0  0  0  0  0  0  0  0  0  0
    8.6951   15.9451   21.7775 C   0  0  0  0  0  0  0  0  0  0  0  0
    9.5185   15.6541   20.7399 O   0  0  0  0  0  0  0  0  0  0  0  0
   10.6787   15.2866   21.3482 C   0  0  0  0  0  0  0  0  0  0  0  0
   11.8052   14.9328   20.4868 C   0  0  0  0  0  0  0  0  0  0  0  0
  1  2  1  0
  2  3  2  0
  3  4  1  0
  4  5  1  0
  4  6  2  0
  6  7  1  0
  7  8  1  0
  7  9  2  0
  9 10  1  0
 10 11  2  0
 10 12  1  0
 12 13  1  0
 13 14  1  0
 14 15  1  0
 15 16  1  0
 16 17  2  0
 17 18  1  0
 18 19  1  0
 19 20  1  0
  9  2  1  0
 19 15  2  0
M  END
>  <energy_score>  (3881) 
-25.008949

>  <inchikey>  (3881) 
DQFATNJTEVJEGN-UHFFFAOYSA-N

>  <smiles>  (3881) 
Cc1cc(Cl)cc(C)c1C(=O)NCCc1ncoc1C

>  <ref_pdb>  (3881) 
A0514a

>  <alias>  (3881) 
DQFATNJTEVJEGN-UHFFFAOYSA-N-P637-P178-P637-601502

>  <HIPPO Pose ID>  (3881) 
503836

>  <name>  (3881) 
DQFATNJTEVJEGN-UHFFFAOYSA-N-P637-P178-P637-601502

>  <HIPPO Compound ID>  (3881) 
306429

>  <ref_mols>  (3881) 
A3408a,A5594a

>  <distance_score>  (3881) 
1.770594

>  <inspiration_score>  (3881) 
None

$$$$
GKTYLJCQJXUOPU-UHFFFAOYSA-N-P637-P178-P637-601502
     RDKit          3D

 20 21  0  0  0  0  0  0  0  0999 V2000
    4.7402    9.4532   28.9696 C   0  0  0  0  0  0  0  0  0  0  0  0
    4.2839    9.8441   27.2657 S   0  0  0  0  0  0  0  0  0  0  0  0
    5.3956   11.1730   26.8846 C   0  0  0  0  0  0  0  0  0  0  0  0
    5.5071   12.2655   27.7469 C   0  0  0  0  0  0  0  0  0  0  0  0
    6.3167   13.3529   27.4255 C   0  0  0  0  0  0  0  0  0  0  0  0
    6.9965   13.3878   26.2113 C   0  0  0  0  0  0  0  0  0  0  0  0
    7.8913   14.5525   25.8922 C   0  0  0  0  0  0  0  0  0  0  0  0
    6.8058   12.3290   25.3119 C   0  0  0  0  0  0  0  0  0  0  0  0
    7.2413   12.5203   23.9104 C   0  0  0  0  0  0  0  0  0  0  0  0
    8.0658   11.8554   23.4287 O   0  0  0  0  0  0  0  0  0  0  0  0
    6.4879   13.7417   23.3480 N   0  0  0  0  0  0  0  0  0  0  0  0
    6.6600   14.4611   22.1055 C   0  0  1  0  0  0  0  0  0  0  0  0
    5.2803   14.9714   21.6940 C   0  0  0  0  0  0  0  0  0  0  0  0
    7.6789   15.6115   22.2620 C   0  0  0  0  0  0  0  0  0  0  0  0
    9.0833   15.1515   22.0898 C   0  0  0  0  0  0  0  0  0  0  0  0
    9.9652   15.4334   21.0714 C   0  0  0  0  0  0  0  0  0  0  0  0
   11.0776   14.6794   21.2472 O   0  0  0  0  0  0  0  0  0  0  0  0
   10.8086   13.9869   22.3811 C   0  0  0  0  0  0  0  0  0  0  0  0
    9.6721   14.2818   22.9674 N   0  0  0  0  0  0  0  0  0  0  0  0
    6.0683   11.1954   25.6627 C   0  0  0  0  0  0  0  0  0  0  0  0
  1  2  1  0
  2  3  1  0
  3  4  2  0
  4  5  1  0
  5  6  2  0
  6  7  1  0
  6  8  1  0
  8  9  1  0
  9 10  2  0
  9 11  1  0
 11 12  1  0
 12 13  1  1
 12 14  1  0
 14 15  1  0
 15 16  2  0
 16 17  1  0
 17 18  1  0
 18 19  2  0
  8 20  2  0
 20  3  1  0
 19 15  1  0
M  END
>  <energy_score>  (3882) 
-2.80654

>  <inchikey>  (3882) 
GKTYLJCQJXUOPU-UHFFFAOYSA-N

>  <smiles>  (3882) 
CSc1ccc(C)c(C(=O)NC(C)Cc2cocn2)c1

>  <ref_pdb>  (3882) 
A0514a

>  <alias>  (3882) 
GKTYLJCQJXUOPU-UHFFFAOYSA-N-P637-P178-P637-601502

>  <HIPPO Pose ID>  (3882) 
503837

>  <name>  (3882) 
GKTYLJCQJXUOPU-UHFFFAOYSA-N-P637-P178-P637-601502

>  <HIPPO Compound ID>  (3882) 
306430

>  <ref_mols>  (3882) 
A3408a,A5594a

>  <distance_score>  (3882) 
1.980868

>  <inspiration_score>  (3882) 
None

$$$$
PXCMASXZSYJTCR-UHFFFAOYSA-N-P637-P178-P637-601502
     RDKit          3D

 20 21  0  0  0  0  0  0  0  0999 V2000
    4.7808   10.9675   29.0641 C   0  0  0  0  0  0  0  0  0  0  0  0
    4.8825   10.0142   27.5294 S   0  0  0  0  0  0  0  0  0  0  0  0
    5.5944   11.2114   26.4225 C   0  0  0  0  0  0  0  0  0  0  0  0
    5.0417   12.4883   26.3201 C   0  0  0  0  0  0  0  0  0  0  0  0
    5.5962   13.4366   25.4636 C   0  0  0  0  0  0  0  0  0  0  0  0
    6.7232   13.1308   24.6962 C   0  0  0  0  0  0  0  0  0  0  0  0
    7.2282   14.1598   23.7246 C   0  0  0  0  0  0  0  0  0  0  0  0
    7.3147   11.8648   24.8456 C   0  0  0  0  0  0  0  0  0  0  0  0
    8.6198   11.5507   24.1954 C   0  0  0  0  0  0  0  0  0  0  0  0
    8.7352   10.5967   23.5417 O   0  0  0  0  0  0  0  0  0  0  0  0
    9.6286   12.6651   24.5192 N   0  0  0  0  0  0  0  0  0  0  0  0
   10.9638   12.8891   24.0294 C   0  0  0  0  0  0  0  0  0  0  0  0
   11.3916   14.3375   24.2103 C   0  0  0  0  0  0  0  0  0  0  0  0
   11.2496   15.0405   22.9304 C   0  0  0  0  0  0  0  0  0  0  0  0
   12.2308   15.6711   22.2137 C   0  0  0  0  0  0  0  0  0  0  0  0
   11.7447   15.9521   20.9908 O   0  0  0  0  0  0  0  0  0  0  0  0
   10.4817   15.4549   21.0251 C   0  0  0  0  0  0  0  0  0  0  0  0
    9.8005   15.4768   19.7412 C   0  0  0  0  0  0  0  0  0  0  0  0
   10.0986   14.9682   22.1875 N   0  0  0  0  0  0  0  0  0  0  0  0
    6.7169   10.8877   25.6533 C   0  0  0  0  0  0  0  0  0  0  0  0
  1  2  1  0
  2  3  1  0
  3  4  2  0
  4  5  1  0
  5  6  2  0
  6  7  1  0
  6  8  1  0
  8  9  1  0
  9 10  2  0
  9 11  1  0
 11 12  1  0
 12 13  1  0
 13 14  1  0
 14 15  2  0
 15 16  1  0
 16 17  1  0
 17 18  1  0
 17 19  2  0
  8 20  2  0
 20  3  1  0
 19 14  1  0
M  END
>  <energy_score>  (3883) 
-13.507081

>  <inchikey>  (3883) 
PXCMASXZSYJTCR-UHFFFAOYSA-N

>  <smiles>  (3883) 
CSc1ccc(C)c(C(=O)NCCc2coc(C)n2)c1

>  <ref_pdb>  (3883) 
A0514a

>  <alias>  (3883) 
PXCMASXZSYJTCR-UHFFFAOYSA-N-P637-P178-P637-601502

>  <HIPPO Pose ID>  (3883) 
503838

>  <name>  (3883) 
PXCMASXZSYJTCR-UHFFFAOYSA-N-P637-P178-P637-601502

>  <HIPPO Compound ID>  (3883) 
306431

>  <ref_mols>  (3883) 
A3408a,A5594a

>  <distance_score>  (3883) 
1.241305

>  <inspiration_score>  (3883) 
None

$$$$
IDRUSGQSJGDZII-UHFFFAOYSA-N-P637-P178-P637-601502
     RDKit          3D

 20 21  0  0  0  0  0  0  0  0999 V2000
    6.8073   14.7223   24.0083 C   0  0  0  0  0  0  0  0  0  0  0  0
    7.1967   14.0144   25.2988 C   0  0  0  0  0  0  0  0  0  0  0  0
    6.1674   12.9959   25.7460 C   0  0  0  0  0  0  0  0  0  0  0  0
    5.0632   13.5148   26.4388 C   0  0  0  0  0  0  0  0  0  0  0  0
    4.1477   12.6784   27.0746 C   0  0  0  0  0  0  0  0  0  0  0  0
    4.2972   11.3010   27.0072 C   0  0  0  0  0  0  0  0  0  0  0  0
    3.1534   10.2015   28.0332 Br  0  0  0  0  0  0  0  0  0  0  0  0
    5.3134   10.7505   26.2480 C   0  0  0  0  0  0  0  0  0  0  0  0
    6.2523   11.5900   25.6174 C   0  0  0  0  0  0  0  0  0  0  0  0
    7.4417   10.8736   25.1055 C   0  0  0  0  0  0  0  0  0  0  0  0
    7.7542    9.9337   25.7025 O   0  0  0  0  0  0  0  0  0  0  0  0
    8.1100   11.5593   23.9329 N   0  0  0  0  0  0  0  0  0  0  0  0
    9.3651   11.2969   23.2907 C   0  0  2  0  0  0  0  0  0  0  0  0
    9.7426    9.8204   23.3236 C   0  0  0  0  0  0  0  0  0  0  0  0
   10.3505   12.4130   23.7090 C   0  0  0  0  0  0  0  0  0  0  0  0
   10.2641   13.6140   22.8137 C   0  0  0  0  0  0  0  0  0  0  0  0
   11.2611   14.4805   22.4275 C   0  0  0  0  0  0  0  0  0  0  0  0
   10.7384   15.3548   21.5252 O   0  0  0  0  0  0  0  0  0  0  0  0
    9.4372   14.9847   21.4242 C   0  0  0  0  0  0  0  0  0  0  0  0
    9.0866   13.9713   22.1857 N   0  0  0  0  0  0  0  0  0  0  0  0
  1  2  1  0
  2  3  1  0
  3  4  2  0
  4  5  1  0
  5  6  2  0
  6  7  1  0
  6  8  1  0
  8  9  2  0
  9 10  1  0
 10 11  2  0
 10 12  1  0
 12 13  1  0
 13 14  1  1
 13 15  1  0
 15 16  1  0
 16 17  2  0
 17 18  1  0
 18 19  1  0
 19 20  2  0
  9  3  1  0
 20 16  1  0
M  END
>  <energy_score>  (3884) 
-2.917426

>  <inchikey>  (3884) 
IDRUSGQSJGDZII-UHFFFAOYSA-N

>  <smiles>  (3884) 
CCc1ccc(Br)cc1C(=O)NC(C)Cc1cocn1

>  <ref_pdb>  (3884) 
A0514a

>  <alias>  (3884) 
IDRUSGQSJGDZII-UHFFFAOYSA-N-P637-P178-P637-601502

>  <HIPPO Pose ID>  (3884) 
503840

>  <name>  (3884) 
IDRUSGQSJGDZII-UHFFFAOYSA-N-P637-P178-P637-601502

>  <HIPPO Compound ID>  (3884) 
306433

>  <ref_mols>  (3884) 
A3408a,A5594a

>  <distance_score>  (3884) 
1.691188

>  <inspiration_score>  (3884) 
None

$$$$
YXRRGAAYNHZMDM-UHFFFAOYSA-N-P637-P178-P637-601502
     RDKit          3D

 20 21  0  0  0  0  0  0  0  0999 V2000
    6.8919   14.7479   24.1848 C   0  0  0  0  0  0  0  0  0  0  0  0
    7.4362   13.9291   25.3418 C   0  0  0  0  0  0  0  0  0  0  0  0
    6.4935   12.8032   25.7053 C   0  0  0  0  0  0  0  0  0  0  0  0
    5.3992   13.2012   26.4999 C   0  0  0  0  0  0  0  0  0  0  0  0
    4.5403   12.2743   27.0763 C   0  0  0  0  0  0  0  0  0  0  0  0
    4.7377   10.9246   26.8460 C   0  0  0  0  0  0  0  0  0  0  0  0
    3.7168    9.6800   27.8343 Br  0  0  0  0  0  0  0  0  0  0  0  0
    5.7339   10.5037   25.9766 C   0  0  0  0  0  0  0  0  0  0  0  0
    6.6302   11.4284   25.3959 C   0  0  0  0  0  0  0  0  0  0  0  0
    7.8309   10.7901   24.7581 C   0  0  0  0  0  0  0  0  0  0  0  0
    8.0851    9.7230   25.1334 O   0  0  0  0  0  0  0  0  0  0  0  0
    8.5743   11.6986   23.7921 N   0  0  0  0  0  0  0  0  0  0  0  0
    9.8432   11.5335   23.1470 C   0  0  0  0  0  0  0  0  0  0  0  0
   10.6522   12.8332   23.2393 C   0  0  0  0  0  0  0  0  0  0  0  0
   10.0953   13.9258   22.4046 C   0  0  0  0  0  0  0  0  0  0  0  0
    8.7604   13.9599   22.0778 N   0  0  0  0  0  0  0  0  0  0  0  0
    8.6571   15.0330   21.3316 C   0  0  0  0  0  0  0  0  0  0  0  0
    9.8071   15.7098   21.1229 O   0  0  0  0  0  0  0  0  0  0  0  0
   10.7315   15.0049   21.8323 C   0  0  0  0  0  0  0  0  0  0  0  0
   12.0982   15.5238   21.7915 C   0  0  0  0  0  0  0  0  0  0  0  0
  1  2  1  0
  2  3  1  0
  3  4  2  0
  4  5  1  0
  5  6  2  0
  6  7  1  0
  6  8  1  0
  8  9  2  0
  9 10  1  0
 10 11  2  0
 10 12  1  0
 12 13  1  0
 13 14  1  0
 14 15  1  0
 15 16  1  0
 16 17  2  0
 17 18  1  0
 18 19  1  0
 19 20  1  0
  9  3  1  0
 19 15  2  0
M  END
>  <energy_score>  (3885) 
-8.176662

>  <inchikey>  (3885) 
YXRRGAAYNHZMDM-UHFFFAOYSA-N

>  <smiles>  (3885) 
CCc1ccc(Br)cc1C(=O)NCCc1ncoc1C

>  <ref_pdb>  (3885) 
A0514a

>  <alias>  (3885) 
YXRRGAAYNHZMDM-UHFFFAOYSA-N-P637-P178-P637-601502

>  <HIPPO Pose ID>  (3885) 
503842

>  <name>  (3885) 
YXRRGAAYNHZMDM-UHFFFAOYSA-N-P637-P178-P637-601502

>  <HIPPO Compound ID>  (3885) 
306435

>  <ref_mols>  (3885) 
A3408a,A5594a

>  <distance_score>  (3885) 
1.735688

>  <inspiration_score>  (3885) 
None

$$$$
VCNVHOGNWMTRJA-UHFFFAOYSA-N-P637-P178-P637-601502
     RDKit          3D

 20 21  0  0  0  0  0  0  0  0999 V2000
    4.3273   11.2375   27.3002 C   0  0  0  0  0  0  0  0  0  0  0  0
    5.4791   11.4737   26.3603 C   0  0  0  0  0  0  0  0  0  0  0  0
    6.1865   10.3633   25.8886 C   0  0  0  0  0  0  0  0  0  0  0  0
    7.3174   10.5171   25.0899 C   0  0  0  0  0  0  0  0  0  0  0  0
    7.7421   11.7945   24.7165 C   0  0  0  0  0  0  0  0  0  0  0  0
    9.0092   11.8923   23.9229 C   0  0  0  0  0  0  0  0  0  0  0  0
    9.1510   11.1692   23.0225 O   0  0  0  0  0  0  0  0  0  0  0  0
    9.8891   13.0570   24.4164 N   0  0  0  0  0  0  0  0  0  0  0  0
   11.0856   13.6394   23.8452 C   0  0  2  0  0  0  0  0  0  0  0  0
   12.3054   13.5608   24.7379 C   0  0  0  0  0  0  0  0  0  0  0  0
   10.8153   15.1158   23.5319 C   0  0  0  0  0  0  0  0  0  0  0  0
   10.6243   15.2804   22.0918 C   0  0  0  0  0  0  0  0  0  0  0  0
   11.5991   15.4153   21.1342 C   0  0  0  0  0  0  0  0  0  0  0  0
   10.9834   15.4679   19.9295 O   0  0  0  0  0  0  0  0  0  0  0  0
    9.6672   15.3641   20.2405 C   0  0  0  0  0  0  0  0  0  0  0  0
    9.3834   15.2368   21.5159 N   0  0  0  0  0  0  0  0  0  0  0  0
    6.9601   12.9212   25.0435 C   0  0  0  0  0  0  0  0  0  0  0  0
    7.2452   14.2585   24.4141 C   0  0  0  0  0  0  0  0  0  0  0  0
    5.8713   12.7540   25.9296 C   0  0  0  0  0  0  0  0  0  0  0  0
    4.9184   14.2822   26.5781 Br  0  0  0  0  0  0  0  0  0  0  0  0
  1  2  1  0
  2  3  2  0
  3  4  1  0
  4  5  2  0
  5  6  1  0
  6  7  2  0
  6  8  1  0
  8  9  1  0
  9 10  1  1
  9 11  1  0
 11 12  1  0
 12 13  2  0
 13 14  1  0
 14 15  1  0
 15 16  2  0
  5 17  1  0
 17 18  1  0
 17 19  2  0
 19 20  1  0
 19  2  1  0
 16 12  1  0
M  END
>  <energy_score>  (3886) 
-2.198634

>  <inchikey>  (3886) 
VCNVHOGNWMTRJA-UHFFFAOYSA-N

>  <smiles>  (3886) 
Cc1ccc(C(=O)NC(C)Cc2cocn2)c(C)c1Br

>  <ref_pdb>  (3886) 
A0514a

>  <alias>  (3886) 
VCNVHOGNWMTRJA-UHFFFAOYSA-N-P637-P178-P637-601502

>  <HIPPO Pose ID>  (3886) 
503843

>  <name>  (3886) 
VCNVHOGNWMTRJA-UHFFFAOYSA-N-P637-P178-P637-601502

>  <HIPPO Compound ID>  (3886) 
306436

>  <ref_mols>  (3886) 
A3408a,A5594a

>  <distance_score>  (3886) 
1.57531

>  <inspiration_score>  (3886) 
None

$$$$
IIBMAKUKPJYIAF-UHFFFAOYSA-N-P637-P178-P637-601502
     RDKit          3D

 20 21  0  0  0  0  0  0  0  0999 V2000
    3.6924   10.7762   28.1186 C   0  0  0  0  0  0  0  0  0  0  0  0
    4.8232   11.1457   27.1938 C   0  0  0  0  0  0  0  0  0  0  0  0
    5.3251   10.1495   26.3423 C   0  0  0  0  0  0  0  0  0  0  0  0
    6.3464   10.4210   25.4444 C   0  0  0  0  0  0  0  0  0  0  0  0
    6.8230   11.7198   25.3675 C   0  0  0  0  0  0  0  0  0  0  0  0
    7.7119   12.1021   24.2636 C   0  0  0  0  0  0  0  0  0  0  0  0
    8.7870   11.6696   24.1740 O   0  0  0  0  0  0  0  0  0  0  0  0
    6.9948   13.1714   23.4240 N   0  0  0  0  0  0  0  0  0  0  0  0
    7.4783   13.9960   22.3641 C   0  0  0  0  0  0  0  0  0  0  0  0
    8.6909   14.7807   22.8468 C   0  0  0  0  0  0  0  0  0  0  0  0
    9.6040   15.0666   21.7372 C   0  0  0  0  0  0  0  0  0  0  0  0
    9.1213   15.2514   20.4723 N   0  0  0  0  0  0  0  0  0  0  0  0
   10.2052   15.4261   19.7512 C   0  0  0  0  0  0  0  0  0  0  0  0
   11.3713   15.3679   20.4434 O   0  0  0  0  0  0  0  0  0  0  0  0
   10.9727   15.1460   21.7267 C   0  0  0  0  0  0  0  0  0  0  0  0
   12.0074   15.0331   22.7443 C   0  0  0  0  0  0  0  0  0  0  0  0
    6.4216   12.7359   26.2582 C   0  0  0  0  0  0  0  0  0  0  0  0
    7.0695   14.1002   26.1957 C   0  0  0  0  0  0  0  0  0  0  0  0
    5.3872   12.4366   27.1555 C   0  0  0  0  0  0  0  0  0  0  0  0
    4.7070   13.7883   28.3229 Br  0  0  0  0  0  0  0  0  0  0  0  0
  1  2  1  0
  2  3  2  0
  3  4  1  0
  4  5  2  0
  5  6  1  0
  6  7  2  0
  6  8  1  0
  8  9  1  0
  9 10  1  0
 10 11  1  0
 11 12  1  0
 12 13  2  0
 13 14  1  0
 14 15  1  0
 15 16  1  0
  5 17  1  0
 17 18  1  0
 17 19  2  0
 19 20  1  0
 19  2  1  0
 15 11  2  0
M  END
>  <energy_score>  (3887) 
-11.606404

>  <inchikey>  (3887) 
IIBMAKUKPJYIAF-UHFFFAOYSA-N

>  <smiles>  (3887) 
Cc1ccc(C(=O)NCCc2ncoc2C)c(C)c1Br

>  <ref_pdb>  (3887) 
A0514a

>  <alias>  (3887) 
IIBMAKUKPJYIAF-UHFFFAOYSA-N-P637-P178-P637-601502

>  <HIPPO Pose ID>  (3887) 
503845

>  <name>  (3887) 
IIBMAKUKPJYIAF-UHFFFAOYSA-N-P637-P178-P637-601502

>  <HIPPO Compound ID>  (3887) 
306438

>  <ref_mols>  (3887) 
A3408a,A5594a

>  <distance_score>  (3887) 
1.913311

>  <inspiration_score>  (3887) 
None

$$$$
KQTOBBKHIDXBJY-UHFFFAOYSA-N-P637-P178-P637-601502
     RDKit          3D

 20 21  0  0  0  0  0  0  0  0999 V2000
    4.4389   10.7263   26.9834 C   0  0  0  0  0  0  0  0  0  0  0  0
    5.5700   11.2042   26.1243 C   0  0  0  0  0  0  0  0  0  0  0  0
    6.4286   10.2870   25.5091 C   0  0  0  0  0  0  0  0  0  0  0  0
    7.5725   10.6932   24.7908 C   0  0  0  0  0  0  0  0  0  0  0  0
    8.4198    9.6456   24.1223 C   0  0  0  0  0  0  0  0  0  0  0  0
    7.8714   12.0667   24.7182 C   0  0  0  0  0  0  0  0  0  0  0  0
    9.2126   12.5730   24.2319 C   0  0  0  0  0  0  0  0  0  0  0  0
    9.7978   11.9424   23.4464 O   0  0  0  0  0  0  0  0  0  0  0  0
    9.6184   13.8589   24.9865 N   0  0  0  0  0  0  0  0  0  0  0  0
   10.8679   14.5833   25.0010 C   0  0  2  0  0  0  0  0  0  0  0  0
   10.8774   15.4674   26.2525 C   0  0  0  0  0  0  0  0  0  0  0  0
   11.1297   15.4358   23.7546 C   0  0  0  0  0  0  0  0  0  0  0  0
   10.2925   15.1257   22.5883 C   0  0  0  0  0  0  0  0  0  0  0  0
   10.6648   14.6002   21.3783 C   0  0  0  0  0  0  0  0  0  0  0  0
    9.5507   14.5315   20.6035 O   0  0  0  0  0  0  0  0  0  0  0  0
    8.5606   14.9965   21.4043 C   0  0  0  0  0  0  0  0  0  0  0  0
    8.9397   15.3820   22.5966 N   0  0  0  0  0  0  0  0  0  0  0  0
    6.9471   12.9686   25.2483 C   0  0  0  0  0  0  0  0  0  0  0  0
    7.1759   14.2844   25.1604 F   0  0  0  0  0  0  0  0  0  0  0  0
    5.8230   12.5596   25.9589 C   0  0  0  0  0  0  0  0  0  0  0  0
  1  2  1  0
  2  3  2  0
  3  4  1  0
  4  5  1  0
  4  6  2  0
  6  7  1  0
  7  8  2  0
  7  9  1  0
  9 10  1  0
 10 11  1  1
 10 12  1  0
 12 13  1  0
 13 14  2  0
 14 15  1  0
 15 16  1  0
 16 17  2  0
  6 18  1  0
 18 19  1  0
 18 20  2  0
 20  2  1  0
 17 13  1  0
M  END
>  <energy_score>  (3888) 
-6.207171

>  <inchikey>  (3888) 
KQTOBBKHIDXBJY-UHFFFAOYSA-N

>  <smiles>  (3888) 
Cc1cc(C)c(C(=O)NC(C)Cc2cocn2)c(F)c1

>  <ref_pdb>  (3888) 
A0514a

>  <alias>  (3888) 
KQTOBBKHIDXBJY-UHFFFAOYSA-N-P637-P178-P637-601502

>  <HIPPO Pose ID>  (3888) 
503848

>  <name>  (3888) 
KQTOBBKHIDXBJY-UHFFFAOYSA-N-P637-P178-P637-601502

>  <HIPPO Compound ID>  (3888) 
306441

>  <ref_mols>  (3888) 
A3408a,A5594a

>  <distance_score>  (3888) 
1.291063

>  <inspiration_score>  (3888) 
None

$$$$
BTCRCCHMQZBHPJ-UHFFFAOYSA-N-P637-P178-P637-601502
     RDKit          3D

 20 21  0  0  0  0  0  0  0  0999 V2000
    4.4444   10.2717   27.6570 C   0  0  0  0  0  0  0  0  0  0  0  0
    5.4230   10.9373   26.7342 C   0  0  0  0  0  0  0  0  0  0  0  0
    6.2004   10.1587   25.8570 C   0  0  0  0  0  0  0  0  0  0  0  0
    7.1461   10.7179   24.9954 C   0  0  0  0  0  0  0  0  0  0  0  0
    8.0846    9.8803   24.1848 C   0  0  0  0  0  0  0  0  0  0  0  0
    7.2129   12.1002   24.9760 C   0  0  0  0  0  0  0  0  0  0  0  0
    7.8893   12.8681   23.9356 C   0  0  0  0  0  0  0  0  0  0  0  0
    9.0506   12.8755   23.8538 O   0  0  0  0  0  0  0  0  0  0  0  0
    6.8248   13.6579   23.1432 N   0  0  0  0  0  0  0  0  0  0  0  0
    6.9731   14.6894   22.1527 C   0  0  0  0  0  0  0  0  0  0  0  0
    7.9297   15.7832   22.6333 C   0  0  0  0  0  0  0  0  0  0  0  0
    9.3044   15.4753   22.1977 C   0  0  0  0  0  0  0  0  0  0  0  0
   10.4900   15.3223   22.8754 C   0  0  0  0  0  0  0  0  0  0  0  0
   11.4571   15.0246   21.9635 O   0  0  0  0  0  0  0  0  0  0  0  0
   10.7785   14.9919   20.7767 C   0  0  0  0  0  0  0  0  0  0  0  0
   11.5471   14.7216   19.5623 C   0  0  0  0  0  0  0  0  0  0  0  0
    9.5008   15.2628   20.8643 N   0  0  0  0  0  0  0  0  0  0  0  0
    6.5284   12.8793   25.8996 C   0  0  0  0  0  0  0  0  0  0  0  0
    6.7415   14.2015   25.9121 F   0  0  0  0  0  0  0  0  0  0  0  0
    5.6331   12.3128   26.7859 C   0  0  0  0  0  0  0  0  0  0  0  0
  1  2  1  0
  2  3  2  0
  3  4  1  0
  4  5  1  0
  4  6  2  0
  6  7  1  0
  7  8  2  0
  7  9  1  0
  9 10  1  0
 10 11  1  0
 11 12  1  0
 12 13  2  0
 13 14  1  0
 14 15  1  0
 15 16  1  0
 15 17  2  0
  6 18  1  0
 18 19  1  0
 18 20  2  0
 20  2  1  0
 17 12  1  0
M  END
>  <energy_score>  (3889) 
-1.341268

>  <inchikey>  (3889) 
BTCRCCHMQZBHPJ-UHFFFAOYSA-N

>  <smiles>  (3889) 
Cc1cc(C)c(C(=O)NCCc2coc(C)n2)c(F)c1

>  <ref_pdb>  (3889) 
A0514a

>  <alias>  (3889) 
BTCRCCHMQZBHPJ-UHFFFAOYSA-N-P637-P178-P637-601502

>  <HIPPO Pose ID>  (3889) 
503849

>  <name>  (3889) 
BTCRCCHMQZBHPJ-UHFFFAOYSA-N-P637-P178-P637-601502

>  <HIPPO Compound ID>  (3889) 
306442

>  <ref_mols>  (3889) 
A3408a,A5594a

>  <distance_score>  (3889) 
1.691448

>  <inspiration_score>  (3889) 
None

$$$$
XHVXFNQDEIKXAM-UHFFFAOYSA-N-P637-P178-P637-601502
     RDKit          3D

 20 21  0  0  0  0  0  0  0  0999 V2000
    4.4555   10.9589   27.1840 C   0  0  0  0  0  0  0  0  0  0  0  0
    5.6239   11.3167   26.3153 C   0  0  0  0  0  0  0  0  0  0  0  0
    6.3729   10.3184   25.6931 C   0  0  0  0  0  0  0  0  0  0  0  0
    7.5008   10.6238   24.9146 C   0  0  0  0  0  0  0  0  0  0  0  0
    8.2598    9.5090   24.2451 C   0  0  0  0  0  0  0  0  0  0  0  0
    7.8690   11.9743   24.7371 C   0  0  0  0  0  0  0  0  0  0  0  0
    9.0481   12.2728   23.8631 C   0  0  0  0  0  0  0  0  0  0  0  0
    9.0521   11.7950   22.8059 O   0  0  0  0  0  0  0  0  0  0  0  0
   10.1164   13.1024   24.5815 N   0  0  0  0  0  0  0  0  0  0  0  0
   11.3845   13.6027   24.1140 C   0  0  0  0  0  0  0  0  0  0  0  0
   11.3029   15.0703   23.7228 C   0  0  0  0  0  0  0  0  0  0  0  0
   10.3605   15.2619   22.6051 C   0  0  0  0  0  0  0  0  0  0  0  0
    9.0218   15.4631   22.8158 N   0  0  0  0  0  0  0  0  0  0  0  0
    8.5222   15.4597   21.6021 C   0  0  0  0  0  0  0  0  0  0  0  0
    9.4243   15.3094   20.6013 O   0  0  0  0  0  0  0  0  0  0  0  0
   10.6123   15.1982   21.2572 C   0  0  0  0  0  0  0  0  0  0  0  0
   11.8142   15.0171   20.4445 C   0  0  0  0  0  0  0  0  0  0  0  0
    7.0964   12.9920   25.3248 C   0  0  0  0  0  0  0  0  0  0  0  0
    7.3171   14.4429   25.0350 C   0  0  0  0  0  0  0  0  0  0  0  0
    5.9946   12.6470   26.1278 C   0  0  0  0  0  0  0  0  0  0  0  0
  1  2  1  0
  2  3  2  0
  3  4  1  0
  4  5  1  0
  4  6  2  0
  6  7  1  0
  7  8  2  0
  7  9  1  0
  9 10  1  0
 10 11  1  0
 11 12  1  0
 12 13  1  0
 13 14  2  0
 14 15  1  0
 15 16  1  0
 16 17  1  0
  6 18  1  0
 18 19  1  0
 18 20  2  0
 20  2  1  0
 16 12  2  0
M  END
>  <energy_score>  (3890) 
-20.413716

>  <inchikey>  (3890) 
XHVXFNQDEIKXAM-UHFFFAOYSA-N

>  <smiles>  (3890) 
Cc1cc(C)c(C(=O)NCCc2ncoc2C)c(C)c1

>  <ref_pdb>  (3890) 
A0514a

>  <alias>  (3890) 
XHVXFNQDEIKXAM-UHFFFAOYSA-N-P637-P178-P637-601502

>  <HIPPO Pose ID>  (3890) 
503851

>  <name>  (3890) 
XHVXFNQDEIKXAM-UHFFFAOYSA-N-P637-P178-P637-601502

>  <HIPPO Compound ID>  (3890) 
306444

>  <ref_mols>  (3890) 
A3408a,A5594a

>  <distance_score>  (3890) 
1.669086

>  <inspiration_score>  (3890) 
None

$$$$
GAULDCUPZOYZHL-UHFFFAOYSA-N-P637-P178-P637-601502
     RDKit          3D

 20 21  0  0  0  0  0  0  0  0999 V2000
   11.8003   14.9911   20.6448 C   0  0  0  0  0  0  0  0  0  0  0  0
   10.6822   15.3182   21.5299 C   0  0  0  0  0  0  0  0  0  0  0  0
    9.6381   15.9909   20.9803 O   0  0  0  0  0  0  0  0  0  0  0  0
    8.7850   16.1625   22.0207 C   0  0  0  0  0  0  0  0  0  0  0  0
    9.1745   15.6415   23.1690 N   0  0  0  0  0  0  0  0  0  0  0  0
   10.3939   15.0901   22.8542 C   0  0  0  0  0  0  0  0  0  0  0  0
   11.1860   14.3206   23.8329 C   0  0  0  0  0  0  0  0  0  0  0  0
   10.8017   12.8474   23.7867 C   0  0  0  0  0  0  0  0  0  0  0  0
    9.4832   12.6170   24.3216 N   0  0  0  0  0  0  0  0  0  0  0  0
    8.5598   11.3828   24.2176 C   0  0  0  0  0  0  0  0  0  0  0  0
    8.7521   10.3339   23.7497 O   0  0  0  0  0  0  0  0  0  0  0  0
    7.2446   11.6685   24.8635 C   0  0  0  0  0  0  0  0  0  0  0  0
    6.6887   10.7343   25.7439 C   0  0  0  0  0  0  0  0  0  0  0  0
    5.5820   11.0968   26.5156 C   0  0  0  0  0  0  0  0  0  0  0  0
    4.8468    9.9276   27.8029 Br  0  0  0  0  0  0  0  0  0  0  0  0
    5.0138   12.3645   26.3982 C   0  0  0  0  0  0  0  0  0  0  0  0
    5.5074   13.2594   25.4556 C   0  0  0  0  0  0  0  0  0  0  0  0
    6.5929   12.8872   24.6608 C   0  0  0  0  0  0  0  0  0  0  0  0
    6.9047   13.7415   23.5067 C   0  0  0  0  0  0  0  0  0  0  0  0
    7.3185   13.2653   22.4564 O   0  0  0  0  0  0  0  0  0  0  0  0
  1  2  1  0
  2  3  1  0
  3  4  1  0
  4  5  2  0
  5  6  1  0
  6  7  1  0
  7  8  1  0
  8  9  1  0
  9 10  1  0
 10 11  2  0
 10 12  1  0
 12 13  2  0
 13 14  1  0
 14 15  1  0
 14 16  2  0
 16 17  1  0
 17 18  2  0
 18 19  1  0
 19 20  2  0
  6  2  2  0
 18 12  1  0
M  END
>  <energy_score>  (3891) 
-3.643696

>  <inchikey>  (3891) 
GAULDCUPZOYZHL-UHFFFAOYSA-N

>  <smiles>  (3891) 
Cc1ocnc1CCNC(=O)c1cc(Br)ccc1C=O

>  <ref_pdb>  (3891) 
A0514a

>  <alias>  (3891) 
GAULDCUPZOYZHL-UHFFFAOYSA-N-P637-P178-P637-601502

>  <HIPPO Pose ID>  (3891) 
503854

>  <name>  (3891) 
GAULDCUPZOYZHL-UHFFFAOYSA-N-P637-P178-P637-601502

>  <HIPPO Compound ID>  (3891) 
306447

>  <ref_mols>  (3891) 
A3408a,A5594a

>  <distance_score>  (3891) 
1.714348

>  <inspiration_score>  (3891) 
None

$$$$
XOBNRJSNSLLBBJ-UHFFFAOYSA-N-P637-P178-P637-601502
     RDKit          3D

 20 21  0  0  0  0  0  0  0  0999 V2000
    6.9900   14.5781   23.2318 C   0  0  0  0  0  0  0  0  0  0  0  0
    7.0048   14.2617   24.5302 C   0  0  0  0  0  0  0  0  0  0  0  0
    6.9025   12.8707   24.9598 C   0  0  0  0  0  0  0  0  0  0  0  0
    5.8074   12.5467   25.7697 C   0  0  0  0  0  0  0  0  0  0  0  0
    5.5483   11.2236   26.0919 C   0  0  0  0  0  0  0  0  0  0  0  0
    6.3636   10.2217   25.5739 C   0  0  0  0  0  0  0  0  0  0  0  0
    7.4971   10.5203   24.7997 C   0  0  0  0  0  0  0  0  0  0  0  0
    8.3178    9.4115   24.2056 C   0  0  0  0  0  0  0  0  0  0  0  0
    7.7966   11.8664   24.5391 C   0  0  0  0  0  0  0  0  0  0  0  0
    9.1090   12.2259   23.8924 C   0  0  0  0  0  0  0  0  0  0  0  0
    9.4777   11.6552   22.9498 O   0  0  0  0  0  0  0  0  0  0  0  0
    9.8009   13.3066   24.7354 N   0  0  0  0  0  0  0  0  0  0  0  0
   11.0581   13.9835   24.5413 C   0  0  2  0  0  0  0  0  0  0  0  0
   10.9796   15.3038   25.3030 C   0  0  0  0  0  0  0  0  0  0  0  0
   11.5524   14.1045   23.1087 C   0  0  0  0  0  0  0  0  0  0  0  0
   10.7116   14.8500   22.1625 C   0  0  0  0  0  0  0  0  0  0  0  0
   10.8294   14.8451   20.7949 C   0  0  0  0  0  0  0  0  0  0  0  0
    9.9200   15.7129   20.2866 O   0  0  0  0  0  0  0  0  0  0  0  0
    9.3181   16.2217   21.3907 C   0  0  0  0  0  0  0  0  0  0  0  0
    9.7349   15.7329   22.5366 N   0  0  0  0  0  0  0  0  0  0  0  0
  1  2  2  0
  2  3  1  0
  3  4  2  0
  4  5  1  0
  5  6  2  0
  6  7  1  0
  7  8  1  0
  7  9  2  0
  9 10  1  0
 10 11  2  0
 10 12  1  0
 12 13  1  0
 13 14  1  6
 13 15  1  0
 15 16  1  0
 16 17  2  0
 17 18  1  0
 18 19  1  0
 19 20  2  0
  9  3  1  0
 20 16  1  0
M  END
>  <energy_score>  (3892) 
-10.334871

>  <inchikey>  (3892) 
XOBNRJSNSLLBBJ-UHFFFAOYSA-N

>  <smiles>  (3892) 
C=Cc1cccc(C)c1C(=O)NC(C)Cc1cocn1

>  <ref_pdb>  (3892) 
A0514a

>  <alias>  (3892) 
XOBNRJSNSLLBBJ-UHFFFAOYSA-N-P637-P178-P637-601502

>  <HIPPO Pose ID>  (3892) 
503856

>  <name>  (3892) 
XOBNRJSNSLLBBJ-UHFFFAOYSA-N-P637-P178-P637-601502

>  <HIPPO Compound ID>  (3892) 
306449

>  <ref_mols>  (3892) 
A3408a,A5594a

>  <distance_score>  (3892) 
1.3536

>  <inspiration_score>  (3892) 
None

$$$$
SEANAVSZPBLPSB-UHFFFAOYSA-N-P637-P178-P637-601502
     RDKit          3D

 20 21  0  0  0  0  0  0  0  0999 V2000
    7.5084   14.6247   23.2620 C   0  0  0  0  0  0  0  0  0  0  0  0
    7.3569   14.2931   24.5488 C   0  0  0  0  0  0  0  0  0  0  0  0
    7.0539   12.9246   24.9661 C   0  0  0  0  0  0  0  0  0  0  0  0
    5.9447   12.7417   25.8023 C   0  0  0  0  0  0  0  0  0  0  0  0
    5.5377   11.4615   26.1669 C   0  0  0  0  0  0  0  0  0  0  0  0
    6.2279   10.3512   25.6873 C   0  0  0  0  0  0  0  0  0  0  0  0
    7.3663   10.5069   24.8839 C   0  0  0  0  0  0  0  0  0  0  0  0
    8.0949    9.3157   24.3352 C   0  0  0  0  0  0  0  0  0  0  0  0
    7.7920   11.8036   24.5504 C   0  0  0  0  0  0  0  0  0  0  0  0
    9.0627   11.9402   23.7767 C   0  0  0  0  0  0  0  0  0  0  0  0
    9.1974   11.3274   22.8021 O   0  0  0  0  0  0  0  0  0  0  0  0
   10.0393   12.8483   24.5170 N   0  0  0  0  0  0  0  0  0  0  0  0
   11.3601   13.2731   24.1687 C   0  0  0  0  0  0  0  0  0  0  0  0
   11.4445   14.7836   24.1634 C   0  0  0  0  0  0  0  0  0  0  0  0
   11.3361   15.2715   22.7862 C   0  0  0  0  0  0  0  0  0  0  0  0
   12.3382   15.7916   22.0134 C   0  0  0  0  0  0  0  0  0  0  0  0
   11.8764   15.9266   20.7585 O   0  0  0  0  0  0  0  0  0  0  0  0
   10.5972   15.4820   20.8349 C   0  0  0  0  0  0  0  0  0  0  0  0
    9.8941   15.4736   19.5629 C   0  0  0  0  0  0  0  0  0  0  0  0
   10.2044   15.1084   22.0344 N   0  0  0  0  0  0  0  0  0  0  0  0
  1  2  2  0
  2  3  1  0
  3  4  2  0
  4  5  1  0
  5  6  2  0
  6  7  1  0
  7  8  1  0
  7  9  2  0
  9 10  1  0
 10 11  2  0
 10 12  1  0
 12 13  1  0
 13 14  1  0
 14 15  1  0
 15 16  2  0
 16 17  1  0
 17 18  1  0
 18 19  1  0
 18 20  2  0
  9  3  1  0
 20 15  1  0
M  END
>  <energy_score>  (3893) 
-8.415743

>  <inchikey>  (3893) 
SEANAVSZPBLPSB-UHFFFAOYSA-N

>  <smiles>  (3893) 
C=Cc1cccc(C)c1C(=O)NCCc1coc(C)n1

>  <ref_pdb>  (3893) 
A0514a

>  <alias>  (3893) 
SEANAVSZPBLPSB-UHFFFAOYSA-N-P637-P178-P637-601502

>  <HIPPO Pose ID>  (3893) 
503857

>  <name>  (3893) 
SEANAVSZPBLPSB-UHFFFAOYSA-N-P637-P178-P637-601502

>  <HIPPO Compound ID>  (3893) 
306450

>  <ref_mols>  (3893) 
A3408a,A5594a

>  <distance_score>  (3893) 
1.279288

>  <inspiration_score>  (3893) 
None

$$$$
RDHBCGCTSQHQOG-UHFFFAOYSA-N-P637-P178-P637-601502
     RDKit          3D

 20 21  0  0  0  0  0  0  0  0999 V2000
    7.4127   14.7610   23.2789 C   0  0  0  0  0  0  0  0  0  0  0  0
    7.0756   13.8970   24.0390 C   0  0  0  0  0  0  0  0  0  0  0  0
    6.6750   12.8145   24.8811 C   0  0  0  0  0  0  0  0  0  0  0  0
    5.5496   12.9840   25.6921 C   0  0  0  0  0  0  0  0  0  0  0  0
    5.0637   11.9131   26.4355 C   0  0  0  0  0  0  0  0  0  0  0  0
    5.6793   10.6727   26.3316 C   0  0  0  0  0  0  0  0  0  0  0  0
    5.2013    9.6605   27.0605 F   0  0  0  0  0  0  0  0  0  0  0  0
    6.8001   10.4853   25.5321 C   0  0  0  0  0  0  0  0  0  0  0  0
    7.3377   11.5782   24.8497 C   0  0  0  0  0  0  0  0  0  0  0  0
    8.6362   11.3973   24.1355 C   0  0  0  0  0  0  0  0  0  0  0  0
    8.8117   10.4375   23.5032 O   0  0  0  0  0  0  0  0  0  0  0  0
    9.5729   12.5804   24.4325 N   0  0  0  0  0  0  0  0  0  0  0  0
   10.8885   12.8765   23.9368 C   0  0  0  0  0  0  0  0  0  0  0  0
   11.2290   14.3505   24.1016 C   0  0  0  0  0  0  0  0  0  0  0  0
   11.2147   15.0069   22.7898 C   0  0  0  0  0  0  0  0  0  0  0  0
   12.2483   15.6415   22.1572 C   0  0  0  0  0  0  0  0  0  0  0  0
   11.8665   15.9184   20.8957 O   0  0  0  0  0  0  0  0  0  0  0  0
   10.6018   15.4286   20.8236 C   0  0  0  0  0  0  0  0  0  0  0  0
    9.9921   15.5159   19.5032 C   0  0  0  0  0  0  0  0  0  0  0  0
   10.1394   14.9154   21.9447 N   0  0  0  0  0  0  0  0  0  0  0  0
  1  2  3  0
  2  3  1  0
  3  4  2  0
  4  5  1  0
  5  6  2  0
  6  7  1  0
  6  8  1  0
  8  9  2  0
  9 10  1  0
 10 11  2  0
 10 12  1  0
 12 13  1  0
 13 14  1  0
 14 15  1  0
 15 16  2  0
 16 17  1  0
 17 18  1  0
 18 19  1  0
 18 20  2  0
  9  3  1  0
 20 15  1  0
M  END
>  <energy_score>  (3894) 
-8.736179

>  <inchikey>  (3894) 
RDHBCGCTSQHQOG-UHFFFAOYSA-N

>  <smiles>  (3894) 
C#Cc1ccc(F)cc1C(=O)NCCc1coc(C)n1

>  <ref_pdb>  (3894) 
A0514a

>  <alias>  (3894) 
RDHBCGCTSQHQOG-UHFFFAOYSA-N-P637-P178-P637-601502

>  <HIPPO Pose ID>  (3894) 
503860

>  <name>  (3894) 
RDHBCGCTSQHQOG-UHFFFAOYSA-N-P637-P178-P637-601502

>  <HIPPO Compound ID>  (3894) 
306453

>  <ref_mols>  (3894) 
A3408a,A5594a

>  <distance_score>  (3894) 
1.470352

>  <inspiration_score>  (3894) 
None

$$$$
UIYZJRGJHCYYAW-UHFFFAOYSA-N-P637-P178-P637-601502
     RDKit          3D

 20 21  0  0  0  0  0  0  0  0999 V2000
   10.1737   15.3890   19.6111 C   0  0  0  0  0  0  0  0  0  0  0  0
   10.0856   14.9145   20.9982 C   0  0  0  0  0  0  0  0  0  0  0  0
    9.7408   13.7294   21.4692 N   0  0  0  0  0  0  0  0  0  0  0  0
   10.2633   13.7267   22.7281 C   0  0  0  0  0  0  0  0  0  0  0  0
   10.5112   12.5289   23.5559 C   0  0  0  0  0  0  0  0  0  0  0  0
    9.6947   11.3005   23.2038 C   0  0  0  0  0  0  0  0  0  0  0  0
    8.4071   11.5067   23.7835 N   0  0  0  0  0  0  0  0  0  0  0  0
    7.6483   10.6937   24.8118 C   0  0  0  0  0  0  0  0  0  0  0  0
    7.9057    9.6791   25.3053 O   0  0  0  0  0  0  0  0  0  0  0  0
    6.4249   11.3694   25.3339 C   0  0  0  0  0  0  0  0  0  0  0  0
    5.5082   10.4958   25.9484 C   0  0  0  0  0  0  0  0  0  0  0  0
    4.4673   10.9778   26.7265 C   0  0  0  0  0  0  0  0  0  0  0  0
    4.3079   12.3464   26.8781 C   0  0  0  0  0  0  0  0  0  0  0  0
    5.1969   13.2296   26.2653 C   0  0  0  0  0  0  0  0  0  0  0  0
    6.2840   12.7664   25.5031 C   0  0  0  0  0  0  0  0  0  0  0  0
    7.2404   13.8088   24.9846 C   0  0  0  0  0  0  0  0  0  0  0  0
    7.3651   13.7783   23.6287 F   0  0  0  0  0  0  0  0  0  0  0  0
   10.6927   14.9850   23.0315 C   0  0  0  0  0  0  0  0  0  0  0  0
   11.3297   15.5318   24.2031 C   0  0  0  0  0  0  0  0  0  0  0  0
   10.5940   15.7637   21.9335 O   0  0  0  0  0  0  0  0  0  0  0  0
  1  2  1  0
  2  3  2  0
  3  4  1  0
  4  5  1  0
  5  6  1  0
  6  7  1  0
  7  8  1  0
  8  9  2  0
  8 10  1  0
 10 11  2  0
 11 12  1  0
 12 13  2  0
 13 14  1  0
 14 15  2  0
 15 16  1  0
 16 17  1  0
  4 18  2  0
 18 19  1  0
 18 20  1  0
 20  2  1  0
 15 10  1  0
M  END
>  <energy_score>  (3895) 
-8.501317

>  <inchikey>  (3895) 
UIYZJRGJHCYYAW-UHFFFAOYSA-N

>  <smiles>  (3895) 
Cc1nc(CCNC(=O)c2ccccc2CF)c(C)o1

>  <ref_pdb>  (3895) 
A0514a

>  <alias>  (3895) 
UIYZJRGJHCYYAW-UHFFFAOYSA-N-P637-P178-P637-601502

>  <HIPPO Pose ID>  (3895) 
503862

>  <name>  (3895) 
UIYZJRGJHCYYAW-UHFFFAOYSA-N-P637-P178-P637-601502

>  <HIPPO Compound ID>  (3895) 
306455

>  <ref_mols>  (3895) 
A3408a,A5594a

>  <distance_score>  (3895) 
1.644259

>  <inspiration_score>  (3895) 
None

$$$$
ZYOSCFWUGPXIRM-UHFFFAOYSA-N-P637-P178-P637-601502
     RDKit          3D

 20 21  0  0  0  0  0  0  0  0999 V2000
    9.8383   15.6518   20.0978 C   0  0  0  0  0  0  0  0  0  0  0  0
   10.3856   15.2446   21.3898 C   0  0  0  0  0  0  0  0  0  0  0  0
    9.9246   14.3605   22.2477 N   0  0  0  0  0  0  0  0  0  0  0  0
   11.0015   14.1265   23.0591 C   0  0  0  0  0  0  0  0  0  0  0  0
   11.0657   12.9506   23.9524 C   0  0  0  0  0  0  0  0  0  0  0  0
   10.0414   11.8830   23.5668 C   0  0  0  0  0  0  0  0  0  0  0  0
    8.8211   12.1582   24.2600 N   0  0  0  0  0  0  0  0  0  0  0  0
    7.6255   11.2507   24.5702 C   0  0  0  0  0  0  0  0  0  0  0  0
    7.4731   10.1156   24.3803 O   0  0  0  0  0  0  0  0  0  0  0  0
    6.4973   12.0657   25.1214 C   0  0  0  0  0  0  0  0  0  0  0  0
    5.6777   11.5619   26.1373 C   0  0  0  0  0  0  0  0  0  0  0  0
    5.7144    9.9697   26.7376 Cl  0  0  0  0  0  0  0  0  0  0  0  0
    4.7222   12.3715   26.7543 C   0  0  0  0  0  0  0  0  0  0  0  0
    4.5531   13.6871   26.3563 C   0  0  0  0  0  0  0  0  0  0  0  0
    5.2978   14.1818   25.2946 C   0  0  0  0  0  0  0  0  0  0  0  0
    6.2331   13.3645   24.6507 C   0  0  0  0  0  0  0  0  0  0  0  0
    6.7905   13.9191   23.3943 C   0  0  0  0  0  0  0  0  0  0  0  0
    7.0850   13.2143   22.4389 O   0  0  0  0  0  0  0  0  0  0  0  0
   11.9794   15.0492   22.7964 C   0  0  0  0  0  0  0  0  0  0  0  0
   11.5989   15.7734   21.7173 O   0  0  0  0  0  0  0  0  0  0  0  0
  1  2  1  0
  2  3  2  0
  3  4  1  0
  4  5  1  0
  5  6  1  0
  6  7  1  0
  7  8  1  0
  8  9  2  0
  8 10  1  0
 10 11  2  0
 11 12  1  0
 11 13  1  0
 13 14  2  0
 14 15  1  0
 15 16  2  0
 16 17  1  0
 17 18  2  0
  4 19  2  0
 19 20  1  0
 20  2  1  0
 16 10  1  0
M  END
>  <energy_score>  (3896) 
-2.00869

>  <inchikey>  (3896) 
ZYOSCFWUGPXIRM-UHFFFAOYSA-N

>  <smiles>  (3896) 
Cc1nc(CCNC(=O)c2c(Cl)cccc2C=O)co1

>  <ref_pdb>  (3896) 
A0514a

>  <alias>  (3896) 
ZYOSCFWUGPXIRM-UHFFFAOYSA-N-P637-P178-P637-601502

>  <HIPPO Pose ID>  (3896) 
503864

>  <name>  (3896) 
ZYOSCFWUGPXIRM-UHFFFAOYSA-N-P637-P178-P637-601502

>  <HIPPO Compound ID>  (3896) 
306457

>  <ref_mols>  (3896) 
A3408a,A5594a

>  <distance_score>  (3896) 
1.668924

>  <inspiration_score>  (3896) 
None

$$$$
LPGSPJOPJLZYLO-UHFFFAOYSA-N-P637-P178-P637-601502
     RDKit          3D

 20 21  0  0  0  0  0  0  0  0999 V2000
   10.0428   15.6031   19.8970 C   0  0  0  0  0  0  0  0  0  0  0  0
   10.4352   15.1165   21.2191 C   0  0  0  0  0  0  0  0  0  0  0  0
    9.9184   14.1367   21.9273 N   0  0  0  0  0  0  0  0  0  0  0  0
   10.8318   13.9590   22.9323 C   0  0  0  0  0  0  0  0  0  0  0  0
   10.7874   12.7903   23.8326 C   0  0  0  0  0  0  0  0  0  0  0  0
    9.9450   11.6420   23.2679 C   0  0  0  0  0  0  0  0  0  0  0  0
    8.6313   11.7552   23.8046 N   0  0  0  0  0  0  0  0  0  0  0  0
    7.8346   10.7998   24.6744 C   0  0  0  0  0  0  0  0  0  0  0  0
    8.0839    9.7272   25.0368 O   0  0  0  0  0  0  0  0  0  0  0  0
    6.5696   11.3696   25.2363 C   0  0  0  0  0  0  0  0  0  0  0  0
    5.7114   10.4041   25.8043 C   0  0  0  0  0  0  0  0  0  0  0  0
    4.6443   10.7605   26.6209 C   0  0  0  0  0  0  0  0  0  0  0  0
    4.4036   12.1013   26.8710 C   0  0  0  0  0  0  0  0  0  0  0  0
    3.0744   12.5604   27.8614 Cl  0  0  0  0  0  0  0  0  0  0  0  0
    5.2232   13.0815   26.3194 C   0  0  0  0  0  0  0  0  0  0  0  0
    6.3084   12.7232   25.5058 C   0  0  0  0  0  0  0  0  0  0  0  0
    7.0934   13.8777   25.0376 C   0  0  0  0  0  0  0  0  0  0  0  0
    7.4565   13.9755   23.8742 O   0  0  0  0  0  0  0  0  0  0  0  0
   11.7919   14.9358   22.8622 C   0  0  0  0  0  0  0  0  0  0  0  0
   11.5505   15.6877   21.7611 O   0  0  0  0  0  0  0  0  0  0  0  0
  1  2  1  0
  2  3  2  0
  3  4  1  0
  4  5  1  0
  5  6  1  0
  6  7  1  0
  7  8  1  0
  8  9  2  0
  8 10  1  0
 10 11  2  0
 11 12  1  0
 12 13  2  0
 13 14  1  0
 13 15  1  0
 15 16  2  0
 16 17  1  0
 17 18  2  0
  4 19  2  0
 19 20  1  0
 20  2  1  0
 16 10  1  0
M  END
>  <energy_score>  (3897) 
-2.023669

>  <inchikey>  (3897) 
LPGSPJOPJLZYLO-UHFFFAOYSA-N

>  <smiles>  (3897) 
Cc1nc(CCNC(=O)c2ccc(Cl)cc2C=O)co1

>  <ref_pdb>  (3897) 
A0514a

>  <alias>  (3897) 
LPGSPJOPJLZYLO-UHFFFAOYSA-N-P637-P178-P637-601502

>  <HIPPO Pose ID>  (3897) 
503866

>  <name>  (3897) 
LPGSPJOPJLZYLO-UHFFFAOYSA-N-P637-P178-P637-601502

>  <HIPPO Compound ID>  (3897) 
306459

>  <ref_mols>  (3897) 
A3408a,A5594a

>  <distance_score>  (3897) 
1.42111

>  <inspiration_score>  (3897) 
None

$$$$
RHJVPFSUVQAFAD-UHFFFAOYSA-N-P637-P178-P637-601502
     RDKit          3D

 20 21  0  0  0  0  0  0  0  0999 V2000
    7.1996   14.1601   22.6619 C   0  0  0  0  0  0  0  0  0  0  0  0
    7.0979   14.4482   24.1512 C   0  0  0  0  0  0  0  0  0  0  0  0
    6.6669   13.2571   24.9798 C   0  0  0  0  0  0  0  0  0  0  0  0
    5.4942   13.3852   25.7377 C   0  0  0  0  0  0  0  0  0  0  0  0
    4.9363   12.2921   26.3972 C   0  0  0  0  0  0  0  0  0  0  0  0
    5.5174   11.0295   26.2923 C   0  0  0  0  0  0  0  0  0  0  0  0
    4.8383    9.8462   26.9090 C   0  0  0  0  0  0  0  0  0  0  0  0
    6.7185   10.8920   25.5864 C   0  0  0  0  0  0  0  0  0  0  0  0
    7.3183   12.0096   24.9797 C   0  0  0  0  0  0  0  0  0  0  0  0
    8.6544   11.8119   24.3452 C   0  0  0  0  0  0  0  0  0  0  0  0
    8.8321   10.8796   23.6715 O   0  0  0  0  0  0  0  0  0  0  0  0
    9.5861   12.9924   24.6830 N   0  0  0  0  0  0  0  0  0  0  0  0
   10.9582   13.2232   24.3394 C   0  0  0  0  0  0  0  0  0  0  0  0
   11.1820   13.1421   22.8578 C   0  0  0  0  0  0  0  0  0  0  0  0
   10.9556   14.4080   22.1688 C   0  0  0  0  0  0  0  0  0  0  0  0
   11.7715   15.5083   22.1846 C   0  0  0  0  0  0  0  0  0  0  0  0
   11.4315   16.2802   21.1318 O   0  0  0  0  0  0  0  0  0  0  0  0
   10.4333   15.5751   20.5239 C   0  0  0  0  0  0  0  0  0  0  0  0
   10.1484   15.9719   19.1482 C   0  0  0  0  0  0  0  0  0  0  0  0
   10.0123   14.5248   21.1911 N   0  0  0  0  0  0  0  0  0  0  0  0
  1  2  1  0
  2  3  1  0
  3  4  2  0
  4  5  1  0
  5  6  2  0
  6  7  1  0
  6  8  1  0
  8  9  2  0
  9 10  1  0
 10 11  2  0
 10 12  1  0
 12 13  1  0
 13 14  1  0
 14 15  1  0
 15 16  2  0
 16 17  1  0
 17 18  1  0
 18 19  1  0
 18 20  2  0
  9  3  1  0
 20 15  1  0
M  END
>  <energy_score>  (3898) 
-7.15198

>  <inchikey>  (3898) 
RHJVPFSUVQAFAD-UHFFFAOYSA-N

>  <smiles>  (3898) 
CCc1ccc(C)cc1C(=O)NCCc1coc(C)n1

>  <ref_pdb>  (3898) 
A0514a

>  <alias>  (3898) 
RHJVPFSUVQAFAD-UHFFFAOYSA-N-P637-P178-P637-601502

>  <HIPPO Pose ID>  (3898) 
503870

>  <name>  (3898) 
RHJVPFSUVQAFAD-UHFFFAOYSA-N-P637-P178-P637-601502

>  <HIPPO Compound ID>  (3898) 
306463

>  <ref_mols>  (3898) 
A3408a,A5594a

>  <distance_score>  (3898) 
1.627113

>  <inspiration_score>  (3898) 
None

$$$$
NCPLWLGPCQIPFQ-UHFFFAOYSA-N-P637-P178-P637-601502
     RDKit          3D

 20 21  0  0  0  0  0  0  0  0999 V2000
    7.2811   14.3664   25.4381 C   0  0  0  0  0  0  0  0  0  0  0  0
    6.4374   13.1455   25.6939 C   0  0  0  0  0  0  0  0  0  0  0  0
    5.2630   13.3931   26.4285 C   0  0  0  0  0  0  0  0  0  0  0  0
    4.4763   12.3554   26.9110 C   0  0  0  0  0  0  0  0  0  0  0  0
    4.8080   11.0455   26.6096 C   0  0  0  0  0  0  0  0  0  0  0  0
    3.9375    9.7905   27.3978 Cl  0  0  0  0  0  0  0  0  0  0  0  0
    5.8753   10.7756   25.7636 C   0  0  0  0  0  0  0  0  0  0  0  0
    6.1002    9.4966   25.4232 F   0  0  0  0  0  0  0  0  0  0  0  0
    6.7326   11.8089   25.3200 C   0  0  0  0  0  0  0  0  0  0  0  0
    8.0723   11.3362   24.8341 C   0  0  0  0  0  0  0  0  0  0  0  0
    8.3448   10.2513   25.1361 O   0  0  0  0  0  0  0  0  0  0  0  0
    8.8928   12.3947   24.1115 N   0  0  0  0  0  0  0  0  0  0  0  0
   10.2528   12.3827   23.6884 C   0  0  0  0  0  0  0  0  0  0  0  0
   10.5392   13.0478   22.3847 C   0  0  0  0  0  0  0  0  0  0  0  0
    9.9679   14.3858   22.2122 C   0  0  0  0  0  0  0  0  0  0  0  0
    8.6127   14.6238   22.2764 N   0  0  0  0  0  0  0  0  0  0  0  0
    8.5197   15.8761   21.8831 C   0  0  0  0  0  0  0  0  0  0  0  0
    9.7003   16.4810   21.5913 O   0  0  0  0  0  0  0  0  0  0  0  0
   10.6319   15.5229   21.8328 C   0  0  0  0  0  0  0  0  0  0  0  0
   12.0356   15.8463   21.5708 C   0  0  0  0  0  0  0  0  0  0  0  0
  1  2  1  0
  2  3  2  0
  3  4  1  0
  4  5  2  0
  5  6  1  0
  5  7  1  0
  7  8  1  0
  7  9  2  0
  9 10  1  0
 10 11  2  0
 10 12  1  0
 12 13  1  0
 13 14  1  0
 14 15  1  0
 15 16  1  0
 16 17  2  0
 17 18  1  0
 18 19  1  0
 19 20  1  0
  9  2  1  0
 19 15  2  0
M  END
>  <energy_score>  (3899) 
-10.860678

>  <inchikey>  (3899) 
NCPLWLGPCQIPFQ-UHFFFAOYSA-N

>  <smiles>  (3899) 
Cc1ccc(Cl)c(F)c1C(=O)NCCc1ncoc1C

>  <ref_pdb>  (3899) 
A0514a

>  <alias>  (3899) 
NCPLWLGPCQIPFQ-UHFFFAOYSA-N-P637-P178-P637-601502

>  <HIPPO Pose ID>  (3899) 
503872

>  <name>  (3899) 
NCPLWLGPCQIPFQ-UHFFFAOYSA-N-P637-P178-P637-601502

>  <HIPPO Compound ID>  (3899) 
306465

>  <ref_mols>  (3899) 
A3408a,A5594a

>  <distance_score>  (3899) 
1.699995

>  <inspiration_score>  (3899) 
None

$$$$
HAJMMJLMGWTZAB-UHFFFAOYSA-N-P637-P178-P637-601502
     RDKit          3D

 20 21  0  0  0  0  0  0  0  0999 V2000
    4.0153    9.5956   27.2754 C   0  0  0  0  0  0  0  0  0  0  0  0
    5.2602   10.3423   27.6943 C   0  0  0  0  0  0  0  0  0  0  0  0
    5.7419   11.3121   26.6461 C   0  0  0  0  0  0  0  0  0  0  0  0
    5.0613   12.5274   26.5278 C   0  0  0  0  0  0  0  0  0  0  0  0
    5.4641   13.4769   25.5993 C   0  0  0  0  0  0  0  0  0  0  0  0
    6.5800   13.2501   24.7901 C   0  0  0  0  0  0  0  0  0  0  0  0
    6.8962   14.2701   23.7324 C   0  0  0  0  0  0  0  0  0  0  0  0
    7.3297   12.0723   24.9690 C   0  0  0  0  0  0  0  0  0  0  0  0
    8.6094   11.9188   24.2046 C   0  0  0  0  0  0  0  0  0  0  0  0
    8.7685   10.9959   23.5130 O   0  0  0  0  0  0  0  0  0  0  0  0
    9.4957   13.1641   24.4325 N   0  0  0  0  0  0  0  0  0  0  0  0
   10.7237   13.5787   23.7800 C   0  0  2  0  0  0  0  0  0  0  0  0
   11.9961   13.4013   24.5772 C   0  0  0  0  0  0  0  0  0  0  0  0
   10.6028   15.0737   23.4327 C   0  0  0  0  0  0  0  0  0  0  0  0
   10.5816   15.2483   21.9812 C   0  0  0  0  0  0  0  0  0  0  0  0
   11.6533   15.3887   21.1359 C   0  0  0  0  0  0  0  0  0  0  0  0
   11.1689   15.4835   19.8740 O   0  0  0  0  0  0  0  0  0  0  0  0
    9.8243   15.4032   20.0379 C   0  0  0  0  0  0  0  0  0  0  0  0
    9.4075   15.2398   21.2734 N   0  0  0  0  0  0  0  0  0  0  0  0
    6.8563   11.0661   25.8211 C   0  0  0  0  0  0  0  0  0  0  0  0
  1  2  1  0
  2  3  1  0
  3  4  2  0
  4  5  1  0
  5  6  2  0
  6  7  1  0
  6  8  1  0
  8  9  1  0
  9 10  2  0
  9 11  1  0
 11 12  1  0
 12 13  1  1
 12 14  1  0
 14 15  1  0
 15 16  2  0
 16 17  1  0
 17 18  1  0
 18 19  2  0
  8 20  2  0
 20  3  1  0
 19 15  1  0
M  END
>  <energy_score>  (3900) 
-4.560709

>  <inchikey>  (3900) 
HAJMMJLMGWTZAB-UHFFFAOYSA-N

>  <smiles>  (3900) 
CCc1ccc(C)c(C(=O)NC(C)Cc2cocn2)c1

>  <ref_pdb>  (3900) 
A0514a

>  <alias>  (3900) 
HAJMMJLMGWTZAB-UHFFFAOYSA-N-P637-P178-P637-601502

>  <HIPPO Pose ID>  (3900) 
503876

>  <name>  (3900) 
HAJMMJLMGWTZAB-UHFFFAOYSA-N-P637-P178-P637-601502

>  <HIPPO Compound ID>  (3900) 
306469

>  <ref_mols>  (3900) 
A3408a,A5594a

>  <distance_score>  (3900) 
1.396109

>  <inspiration_score>  (3900) 
None

$$$$
CTQCIPMAJUMYKK-UHFFFAOYSA-N-P637-P178-P637-601502
     RDKit          3D

 21 22  0  0  0  0  0  0  0  0999 V2000
   10.3866   15.3466   18.5286 C   0  0  0  0  0  0  0  0  0  0  0  0
   10.4256   15.2040   19.9710 C   0  0  0  0  0  0  0  0  0  0  0  0
    9.5054   14.7591   20.8025 N   0  0  0  0  0  0  0  0  0  0  0  0
   10.1705   14.7624   21.9833 C   0  0  0  0  0  0  0  0  0  0  0  0
    9.6085   14.2959   23.2250 C   0  0  0  0  0  0  0  0  0  0  0  0
   10.0088   12.8432   23.4954 C   0  0  0  0  0  0  0  0  0  0  0  0
    8.9117   12.3560   24.2421 N   0  0  0  0  0  0  0  0  0  0  0  0
    7.4370   12.3244   23.9142 C   0  0  0  0  0  0  0  0  0  0  0  0
    6.8765   12.6207   22.9467 O   0  0  0  0  0  0  0  0  0  0  0  0
    6.6593   11.9391   25.0752 C   0  0  0  0  0  0  0  0  0  0  0  0
    6.4745   10.6312   25.4644 C   0  0  0  0  0  0  0  0  0  0  0  0
    7.4497    9.4025   24.7943 Cl  0  0  0  0  0  0  0  0  0  0  0  0
    5.5329   10.3583   26.4521 C   0  0  0  0  0  0  0  0  0  0  0  0
    4.8284   11.4022   27.0647 C   0  0  0  0  0  0  0  0  0  0  0  0
    5.0847   12.7278   26.7164 C   0  0  0  0  0  0  0  0  0  0  0  0
    6.0201   12.9882   25.7249 C   0  0  0  0  0  0  0  0  0  0  0  0
    6.4000   14.3732   25.4100 C   0  0  0  0  0  0  0  0  0  0  0  0
    7.5789   14.6977   25.3423 O   0  0  0  0  0  0  0  0  0  0  0  0
   11.4332   15.2223   21.8181 C   0  0  0  0  0  0  0  0  0  0  0  0
   12.4849   15.4327   22.7671 C   0  0  0  0  0  0  0  0  0  0  0  0
   11.6287   15.5128   20.5259 O   0  0  0  0  0  0  0  0  0  0  0  0
  1  2  1  0
  2  3  2  0
  3  4  1  0
  4  5  1  0
  5  6  1  0
  6  7  1  0
  7  8  1  0
  8  9  2  0
  8 10  1  0
 10 11  2  0
 11 12  1  0
 11 13  1  0
 13 14  2  0
 14 15  1  0
 15 16  2  0
 16 17  1  0
 17 18  2  0
  4 19  2  0
 19 20  1  0
 19 21  1  0
 21  2  1  0
 16 10  1  0
M  END
>  <energy_score>  (3901) 
-3.903934

>  <inchikey>  (3901) 
CTQCIPMAJUMYKK-UHFFFAOYSA-N

>  <smiles>  (3901) 
Cc1nc(CCNC(=O)c2c(Cl)cccc2C=O)c(C)o1

>  <ref_pdb>  (3901) 
A0514a

>  <alias>  (3901) 
CTQCIPMAJUMYKK-UHFFFAOYSA-N-P637-P178-P637-601502

>  <HIPPO Pose ID>  (3901) 
503880

>  <name>  (3901) 
CTQCIPMAJUMYKK-UHFFFAOYSA-N-P637-P178-P637-601502

>  <HIPPO Compound ID>  (3901) 
306473

>  <ref_mols>  (3901) 
A3408a,A5594a

>  <distance_score>  (3901) 
1.747268

>  <inspiration_score>  (3901) 
None

$$$$
BJRCZCZKQIKSMJ-UHFFFAOYSA-N-P637-P178-P637-601502
     RDKit          3D

 21 22  0  0  0  0  0  0  0  0999 V2000
    7.1075   14.7463   23.5800 C   0  0  0  0  0  0  0  0  0  0  0  0
    7.2564   14.1587   24.7746 C   0  0  0  0  0  0  0  0  0  0  0  0
    6.2035   13.3010   25.3332 C   0  0  0  0  0  0  0  0  0  0  0  0
    5.1313   13.9926   25.9110 C   0  0  0  0  0  0  0  0  0  0  0  0
    4.1322   13.3193   26.6012 C   0  0  0  0  0  0  0  0  0  0  0  0
    4.1751   11.9402   26.7071 C   0  0  0  0  0  0  0  0  0  0  0  0
    5.1967   11.2109   26.0925 C   0  0  0  0  0  0  0  0  0  0  0  0
    5.1595    9.7291   26.2871 C   0  0  0  0  0  0  0  0  0  0  0  0
    6.2312   11.8892   25.4054 C   0  0  0  0  0  0  0  0  0  0  0  0
    7.4833   11.1425   25.0871 C   0  0  0  0  0  0  0  0  0  0  0  0
    7.7701   10.3219   25.8521 O   0  0  0  0  0  0  0  0  0  0  0  0
    8.2274   11.6530   23.8631 N   0  0  0  0  0  0  0  0  0  0  0  0
    9.5323   11.3319   23.3652 C   0  0  0  0  0  0  0  0  0  0  0  0
   10.4436   12.4546   23.8634 C   0  0  0  0  0  0  0  0  0  0  0  0
   10.3799   13.7088   23.0927 C   0  0  0  0  0  0  0  0  0  0  0  0
    9.9990   13.7568   21.7864 N   0  0  0  0  0  0  0  0  0  0  0  0
   10.2910   14.9859   21.4197 C   0  0  0  0  0  0  0  0  0  0  0  0
   10.2853   15.5593   20.0676 C   0  0  0  0  0  0  0  0  0  0  0  0
   10.7012   15.7975   22.4453 O   0  0  0  0  0  0  0  0  0  0  0  0
   10.7187   14.9662   23.5248 C   0  0  0  0  0  0  0  0  0  0  0  0
   11.0665   15.5035   24.8445 C   0  0  0  0  0  0  0  0  0  0  0  0
  1  2  2  0
  2  3  1  0
  3  4  2  0
  4  5  1  0
  5  6  2  0
  6  7  1  0
  7  8  1  0
  7  9  2  0
  9 10  1  0
 10 11  2  0
 10 12  1  0
 12 13  1  0
 13 14  1  0
 14 15  1  0
 15 16  1  0
 16 17  2  0
 17 18  1  0
 17 19  1  0
 19 20  1  0
 20 21  1  0
  9  3  1  0
 20 15  2  0
M  END
>  <energy_score>  (3902) 
-13.77921

>  <inchikey>  (3902) 
BJRCZCZKQIKSMJ-UHFFFAOYSA-N

>  <smiles>  (3902) 
C=Cc1cccc(C)c1C(=O)NCCc1nc(C)oc1C

>  <ref_pdb>  (3902) 
A0514a

>  <alias>  (3902) 
BJRCZCZKQIKSMJ-UHFFFAOYSA-N-P637-P178-P637-601502

>  <HIPPO Pose ID>  (3902) 
503885

>  <name>  (3902) 
BJRCZCZKQIKSMJ-UHFFFAOYSA-N-P637-P178-P637-601502

>  <HIPPO Compound ID>  (3902) 
306478

>  <ref_mols>  (3902) 
A3408a,A5594a

>  <distance_score>  (3902) 
1.877049

>  <inspiration_score>  (3902) 
None

$$$$
FZZFELYHIZELPQ-UHFFFAOYSA-N-P637-P178-P637-601502
     RDKit          3D

 21 22  0  0  0  0  0  0  0  0999 V2000
    6.5214   14.3513   23.5009 C   0  0  0  0  0  0  0  0  0  0  0  0
    7.1706   13.9764   24.7927 C   0  0  0  0  0  0  0  0  0  0  0  0
    7.9450   14.6705   25.4417 O   0  0  0  0  0  0  0  0  0  0  0  0
    6.7929   12.6735   25.3197 C   0  0  0  0  0  0  0  0  0  0  0  0
    5.6397   12.6388   26.1129 C   0  0  0  0  0  0  0  0  0  0  0  0
    5.1186   11.4158   26.5059 C   0  0  0  0  0  0  0  0  0  0  0  0
    5.7366   10.2439   26.0846 C   0  0  0  0  0  0  0  0  0  0  0  0
    6.9098   10.2902   25.3219 C   0  0  0  0  0  0  0  0  0  0  0  0
    7.4767   11.5181   24.9550 C   0  0  0  0  0  0  0  0  0  0  0  0
    8.7702   11.4983   24.1966 C   0  0  0  0  0  0  0  0  0  0  0  0
    8.9546   10.5770   23.5067 O   0  0  0  0  0  0  0  0  0  0  0  0
    9.6940   12.6843   24.5503 N   0  0  0  0  0  0  0  0  0  0  0  0
   11.0008   13.0323   24.0548 C   0  0  0  0  0  0  0  0  0  0  0  0
   11.0433   13.0974   22.5449 C   0  0  0  0  0  0  0  0  0  0  0  0
   10.5203   14.3780   22.0777 C   0  0  0  0  0  0  0  0  0  0  0  0
    9.1874   14.6526   22.0922 N   0  0  0  0  0  0  0  0  0  0  0  0
    9.1590   15.9120   21.7301 C   0  0  0  0  0  0  0  0  0  0  0  0
    8.0472   16.8314   21.7492 C   0  0  0  0  0  0  0  0  0  0  0  0
   10.3502   16.4700   21.4187 O   0  0  0  0  0  0  0  0  0  0  0  0
   11.2249   15.4780   21.6649 C   0  0  0  0  0  0  0  0  0  0  0  0
   12.6253   15.8080   21.4770 C   0  0  0  0  0  0  0  0  0  0  0  0
  1  2  1  0
  2  3  2  0
  2  4  1  0
  4  5  2  0
  5  6  1  0
  6  7  2  0
  7  8  1  0
  8  9  2  0
  9 10  1  0
 10 11  2  0
 10 12  1  0
 12 13  1  0
 13 14  1  0
 14 15  1  0
 15 16  1  0
 16 17  2  0
 17 18  1  0
 17 19  1  0
 19 20  1  0
 20 21  1  0
  9  4  1  0
 20 15  2  0
M  END
>  <energy_score>  (3903) 
-16.600731

>  <inchikey>  (3903) 
FZZFELYHIZELPQ-UHFFFAOYSA-N

>  <smiles>  (3903) 
CC(=O)c1ccccc1C(=O)NCCc1nc(C)oc1C

>  <ref_pdb>  (3903) 
A0514a

>  <alias>  (3903) 
FZZFELYHIZELPQ-UHFFFAOYSA-N-P637-P178-P637-601502

>  <HIPPO Pose ID>  (3903) 
503893

>  <name>  (3903) 
FZZFELYHIZELPQ-UHFFFAOYSA-N-P637-P178-P637-601502

>  <HIPPO Compound ID>  (3903) 
306486

>  <ref_mols>  (3903) 
A3408a,A5594a

>  <distance_score>  (3903) 
1.763452

>  <inspiration_score>  (3903) 
None

$$$$
WPDXYYOJNMWFCW-UHFFFAOYSA-N-P637-P178-P637-601502
     RDKit          3D

 21 22  0  0  0  0  0  0  0  0999 V2000
    6.9490   14.3658   23.1802 C   0  0  0  0  0  0  0  0  0  0  0  0
    7.3599   14.2697   24.5519 O   0  0  0  0  0  0  0  0  0  0  0  0
    6.5227   13.4187   25.2336 C   0  0  0  0  0  0  0  0  0  0  0  0
    5.5067   14.0219   25.9711 C   0  0  0  0  0  0  0  0  0  0  0  0
    4.6215   13.2420   26.7008 C   0  0  0  0  0  0  0  0  0  0  0  0
    4.7589   11.8620   26.7001 C   0  0  0  0  0  0  0  0  0  0  0  0
    5.8010   11.2428   25.9935 C   0  0  0  0  0  0  0  0  0  0  0  0
    5.8203    9.7541   26.0415 C   0  0  0  0  0  0  0  0  0  0  0  0
    6.7127   12.0286   25.2593 C   0  0  0  0  0  0  0  0  0  0  0  0
    7.8684   11.3966   24.5305 C   0  0  0  0  0  0  0  0  0  0  0  0
    7.7517   10.3167   24.1214 O   0  0  0  0  0  0  0  0  0  0  0  0
    9.0475   12.3684   24.4434 N   0  0  0  0  0  0  0  0  0  0  0  0
   10.3549   12.1875   23.9222 C   0  0  0  0  0  0  0  0  0  0  0  0
   10.5560   12.7116   22.5497 C   0  0  0  0  0  0  0  0  0  0  0  0
   10.1953   14.0954   22.3051 C   0  0  0  0  0  0  0  0  0  0  0  0
    9.6350   14.4111   21.1116 N   0  0  0  0  0  0  0  0  0  0  0  0
   10.0202   15.6508   20.9465 C   0  0  0  0  0  0  0  0  0  0  0  0
   10.2011   16.3406   19.6696 C   0  0  0  0  0  0  0  0  0  0  0  0
   10.5105   16.2516   22.0780 O   0  0  0  0  0  0  0  0  0  0  0  0
   10.5676   15.2270   22.9812 C   0  0  0  0  0  0  0  0  0  0  0  0
   11.1225   15.4763   24.3140 C   0  0  0  0  0  0  0  0  0  0  0  0
  1  2  1  0
  2  3  1  0
  3  4  2  0
  4  5  1  0
  5  6  2  0
  6  7  1  0
  7  8  1  0
  7  9  2  0
  9 10  1  0
 10 11  2  0
 10 12  1  0
 12 13  1  0
 13 14  1  0
 14 15  1  0
 15 16  1  0
 16 17  2  0
 17 18  1  0
 17 19  1  0
 19 20  1  0
 20 21  1  0
  9  3  1  0
 20 15  2  0
M  END
>  <energy_score>  (3904) 
-21.242873

>  <inchikey>  (3904) 
WPDXYYOJNMWFCW-UHFFFAOYSA-N

>  <smiles>  (3904) 
COc1cccc(C)c1C(=O)NCCc1nc(C)oc1C

>  <ref_pdb>  (3904) 
A0514a

>  <alias>  (3904) 
WPDXYYOJNMWFCW-UHFFFAOYSA-N-P637-P178-P637-601502

>  <HIPPO Pose ID>  (3904) 
503895

>  <name>  (3904) 
WPDXYYOJNMWFCW-UHFFFAOYSA-N-P637-P178-P637-601502

>  <HIPPO Compound ID>  (3904) 
306488

>  <ref_mols>  (3904) 
A3408a,A5594a

>  <distance_score>  (3904) 
1.996579

>  <inspiration_score>  (3904) 
None

$$$$
HKRZWQMMOCYAMG-UHFFFAOYSA-N-P637-P178-P637-601502
     RDKit          3D

 21 22  0  0  0  0  0  0  0  0999 V2000
    9.9100   15.3935   19.7357 C   0  0  0  0  0  0  0  0  0  0  0  0
   10.1099   14.7991   21.0561 C   0  0  0  0  0  0  0  0  0  0  0  0
    9.5616   13.7454   21.6413 N   0  0  0  0  0  0  0  0  0  0  0  0
   10.3408   13.5655   22.7550 C   0  0  0  0  0  0  0  0  0  0  0  0
   10.2879   12.4354   23.7077 C   0  0  0  0  0  0  0  0  0  0  0  0
    9.3850   11.2662   23.3530 C   0  0  0  0  0  0  0  0  0  0  0  0
    8.1016   11.6071   23.8794 N   0  0  0  0  0  0  0  0  0  0  0  0
    7.3776   11.1068   25.1162 C   0  0  0  0  0  0  0  0  0  0  0  0
    7.6669   10.2791   25.8723 O   0  0  0  0  0  0  0  0  0  0  0  0
    6.1475   11.8685   25.4700 C   0  0  0  0  0  0  0  0  0  0  0  0
    5.1191   11.2030   26.1760 C   0  0  0  0  0  0  0  0  0  0  0  0
    5.0522    9.7177   26.3448 C   0  0  0  0  0  0  0  0  0  0  0  0
    4.1407   11.9464   26.8460 C   0  0  0  0  0  0  0  0  0  0  0  0
    4.1503   13.3319   26.8075 C   0  0  0  0  0  0  0  0  0  0  0  0
    5.1508   13.9979   26.1151 C   0  0  0  0  0  0  0  0  0  0  0  0
    6.1499   13.2751   25.4603 C   0  0  0  0  0  0  0  0  0  0  0  0
    7.1796   14.1146   24.8393 C   0  0  0  0  0  0  0  0  0  0  0  0
    7.3750   14.0400   23.6347 O   0  0  0  0  0  0  0  0  0  0  0  0
   11.2472   14.5849   22.8253 C   0  0  0  0  0  0  0  0  0  0  0  0
   12.2998   14.9196   23.7471 C   0  0  0  0  0  0  0  0  0  0  0  0
   11.1086   15.3871   21.7579 O   0  0  0  0  0  0  0  0  0  0  0  0
  1  2  1  0
  2  3  2  0
  3  4  1  0
  4  5  1  0
  5  6  1  0
  6  7  1  0
  7  8  1  0
  8  9  2  0
  8 10  1  0
 10 11  2  0
 11 12  1  0
 11 13  1  0
 13 14  2  0
 14 15  1  0
 15 16  2  0
 16 17  1  0
 17 18  2  0
  4 19  2  0
 19 20  1  0
 19 21  1  0
 21  2  1  0
 16 10  1  0
M  END
>  <energy_score>  (3905) 
-6.085242

>  <inchikey>  (3905) 
HKRZWQMMOCYAMG-UHFFFAOYSA-N

>  <smiles>  (3905) 
Cc1nc(CCNC(=O)c2c(C)cccc2C=O)c(C)o1

>  <ref_pdb>  (3905) 
A0514a

>  <alias>  (3905) 
HKRZWQMMOCYAMG-UHFFFAOYSA-N-P637-P178-P637-601502

>  <HIPPO Pose ID>  (3905) 
503903

>  <name>  (3905) 
HKRZWQMMOCYAMG-UHFFFAOYSA-N-P637-P178-P637-601502

>  <HIPPO Compound ID>  (3905) 
306496

>  <ref_mols>  (3905) 
A3408a,A5594a

>  <distance_score>  (3905) 
1.994134

>  <inspiration_score>  (3905) 
None

$$$$
CJYUKOIRZNUHDH-UHFFFAOYSA-N-P637-P178-P637-601502
     RDKit          3D

 21 22  0  0  0  0  0  0  0  0999 V2000
    6.1895   14.0763   23.7707 C   0  0  0  0  0  0  0  0  0  0  0  0
    6.5150   13.9552   25.2497 C   0  0  0  0  0  0  0  0  0  0  0  0
    6.1601   12.6066   25.8585 C   0  0  0  0  0  0  0  0  0  0  0  0
    5.0856   12.6187   26.7675 C   0  0  0  0  0  0  0  0  0  0  0  0
    4.5408   11.4390   27.2853 C   0  0  0  0  0  0  0  0  0  0  0  0
    3.3461   11.4829   28.1921 C   0  0  0  0  0  0  0  0  0  0  0  0
    5.0526   10.2150   26.8669 C   0  0  0  0  0  0  0  0  0  0  0  0
    6.1347   10.1738   25.9978 C   0  0  0  0  0  0  0  0  0  0  0  0
    6.7253   11.3468   25.5283 C   0  0  0  0  0  0  0  0  0  0  0  0
    7.8318   11.1382   24.5455 C   0  0  0  0  0  0  0  0  0  0  0  0
    7.7936   10.2374   23.8236 O   0  0  0  0  0  0  0  0  0  0  0  0
    8.8119   12.2839   24.6317 N   0  0  0  0  0  0  0  0  0  0  0  0
    9.9076   12.6294   23.7925 C   0  0  0  0  0  0  0  0  0  0  0  0
    9.3101   13.7883   23.0265 C   0  0  0  0  0  0  0  0  0  0  0  0
   10.1363   14.4079   22.0301 C   0  0  0  0  0  0  0  0  0  0  0  0
    9.6174   14.6339   20.7991 N   0  0  0  0  0  0  0  0  0  0  0  0
   10.6179   15.1950   20.1631 C   0  0  0  0  0  0  0  0  0  0  0  0
   10.7007   15.5421   18.7508 C   0  0  0  0  0  0  0  0  0  0  0  0
   11.7317   15.4291   20.9214 O   0  0  0  0  0  0  0  0  0  0  0  0
   11.3916   14.9245   22.1346 C   0  0  0  0  0  0  0  0  0  0  0  0
   12.3305   15.0436   23.2362 C   0  0  0  0  0  0  0  0  0  0  0  0
  1  2  1  0
  2  3  1  0
  3  4  2  0
  4  5  1  0
  5  6  1  0
  5  7  2  0
  7  8  1  0
  8  9  2  0
  9 10  1  0
 10 11  2  0
 10 12  1  0
 12 13  1  0
 13 14  1  0
 14 15  1  0
 15 16  1  0
 16 17  2  0
 17 18  1  0
 17 19  1  0
 19 20  1  0
 20 21  1  0
  9  3  1  0
 20 15  2  0
M  END
>  <energy_score>  (3906) 
-9.171822

>  <inchikey>  (3906) 
CJYUKOIRZNUHDH-UHFFFAOYSA-N

>  <smiles>  (3906) 
CCc1cc(C)ccc1C(=O)NCCc1nc(C)oc1C

>  <ref_pdb>  (3906) 
A0514a

>  <alias>  (3906) 
CJYUKOIRZNUHDH-UHFFFAOYSA-N-P637-P178-P637-601502

>  <HIPPO Pose ID>  (3906) 
503904

>  <name>  (3906) 
CJYUKOIRZNUHDH-UHFFFAOYSA-N-P637-P178-P637-601502

>  <HIPPO Compound ID>  (3906) 
306497

>  <ref_mols>  (3906) 
A3408a,A5594a

>  <distance_score>  (3906) 
1.601222

>  <inspiration_score>  (3906) 
None

$$$$
TWSHCQQBIAKJOH-UHFFFAOYSA-N-P637-P178-P637-601502
     RDKit          3D

 21 22  0  0  0  0  0  0  0  0999 V2000
    6.8043   14.1857   22.6612 C   0  0  0  0  0  0  0  0  0  0  0  0
    6.1681   14.3812   24.0346 C   0  0  0  0  0  0  0  0  0  0  0  0
    5.9972   13.1460   24.8939 C   0  0  0  0  0  0  0  0  0  0  0  0
    4.8322   12.9748   25.6460 C   0  0  0  0  0  0  0  0  0  0  0  0
    4.6432   11.8241   26.4157 C   0  0  0  0  0  0  0  0  0  0  0  0
    5.5803   10.7994   26.3886 C   0  0  0  0  0  0  0  0  0  0  0  0
    5.3364    9.7216   27.1833 O   0  0  0  0  0  0  0  0  0  0  0  0
    6.7636   10.9505   25.6843 C   0  0  0  0  0  0  0  0  0  0  0  0
    6.9948   12.1717   25.0338 C   0  0  0  0  0  0  0  0  0  0  0  0
    8.3992   12.5981   24.8280 C   0  0  0  0  0  0  0  0  0  0  0  0
    9.1611   11.9481   24.2343 O   0  0  0  0  0  0  0  0  0  0  0  0
    8.6023   13.9198   25.6090 N   0  0  0  0  0  0  0  0  0  0  0  0
    9.7550   14.7531   25.7378 C   0  0  0  0  0  0  0  0  0  0  0  0
    9.8661   15.7162   24.5962 C   0  0  0  0  0  0  0  0  0  0  0  0
   10.2813   15.1486   23.3039 C   0  0  0  0  0  0  0  0  0  0  0  0
    9.7436   15.6088   22.1293 N   0  0  0  0  0  0  0  0  0  0  0  0
   10.4685   15.0154   21.2029 C   0  0  0  0  0  0  0  0  0  0  0  0
   10.4716   15.2330   19.7508 C   0  0  0  0  0  0  0  0  0  0  0  0
   11.4173   14.1628   21.6869 O   0  0  0  0  0  0  0  0  0  0  0  0
   11.2615   14.2289   23.0354 C   0  0  0  0  0  0  0  0  0  0  0  0
   12.1263   13.3953   23.8659 C   0  0  0  0  0  0  0  0  0  0  0  0
  1  2  1  0
  2  3  1  0
  3  4  2  0
  4  5  1  0
  5  6  2  0
  6  7  1  0
  6  8  1  0
  8  9  2  0
  9 10  1  0
 10 11  2  0
 10 12  1  0
 12 13  1  0
 13 14  1  0
 14 15  1  0
 15 16  1  0
 16 17  2  0
 17 18  1  0
 17 19  1  0
 19 20  1  0
 20 21  1  0
  9  3  1  0
 20 15  2  0
M  END
>  <energy_score>  (3907) 
-4.668582

>  <inchikey>  (3907) 
TWSHCQQBIAKJOH-UHFFFAOYSA-N

>  <smiles>  (3907) 
CCc1ccc(O)cc1C(=O)NCCc1nc(C)oc1C

>  <ref_pdb>  (3907) 
A0514a

>  <alias>  (3907) 
TWSHCQQBIAKJOH-UHFFFAOYSA-N-P637-P178-P637-601502

>  <HIPPO Pose ID>  (3907) 
503905

>  <name>  (3907) 
TWSHCQQBIAKJOH-UHFFFAOYSA-N-P637-P178-P637-601502

>  <HIPPO Compound ID>  (3907) 
306498

>  <ref_mols>  (3907) 
A3408a,A5594a

>  <distance_score>  (3907) 
1.893128

>  <inspiration_score>  (3907) 
None

$$$$
JQIRDMIYHJYQJV-UHFFFAOYSA-N-P637-P178-P637-601502
     RDKit          3D

 21 22  0  0  0  0  0  0  0  0999 V2000
    6.9226   14.5256   23.6762 C   0  0  0  0  0  0  0  0  0  0  0  0
    7.2605   13.9458   25.0469 C   0  0  0  0  0  0  0  0  0  0  0  0
    6.3240   12.8353   25.4784 C   0  0  0  0  0  0  0  0  0  0  0  0
    5.2030   13.2591   26.2168 C   0  0  0  0  0  0  0  0  0  0  0  0
    4.3564   12.3527   26.8548 C   0  0  0  0  0  0  0  0  0  0  0  0
    4.5691   10.9844   26.7377 C   0  0  0  0  0  0  0  0  0  0  0  0
    3.7494   10.0123   27.5335 C   0  0  0  0  0  0  0  0  0  0  0  0
    5.6156   10.5427   25.9327 C   0  0  0  0  0  0  0  0  0  0  0  0
    6.5039   11.4419   25.3013 C   0  0  0  0  0  0  0  0  0  0  0  0
    7.7541   10.7849   24.8065 C   0  0  0  0  0  0  0  0  0  0  0  0
    8.0187    9.7816   25.3192 O   0  0  0  0  0  0  0  0  0  0  0  0
    8.5200   11.5973   23.7825 N   0  0  0  0  0  0  0  0  0  0  0  0
    9.8244   11.4056   23.2313 C   0  0  0  0  0  0  0  0  0  0  0  0
   10.6823   12.5542   23.7686 C   0  0  0  0  0  0  0  0  0  0  0  0
   10.4589   13.8387   23.0838 C   0  0  0  0  0  0  0  0  0  0  0  0
   10.0717   13.9064   21.7805 N   0  0  0  0  0  0  0  0  0  0  0  0
   10.2272   15.1745   21.4751 C   0  0  0  0  0  0  0  0  0  0  0  0
   10.1961   15.7978   20.1462 C   0  0  0  0  0  0  0  0  0  0  0  0
   10.5371   15.9755   22.5430 O   0  0  0  0  0  0  0  0  0  0  0  0
   10.6447   15.1015   23.5844 C   0  0  0  0  0  0  0  0  0  0  0  0
   10.9210   15.6139   24.9330 C   0  0  0  0  0  0  0  0  0  0  0  0
  1  2  1  0
  2  3  1  0
  3  4  2  0
  4  5  1  0
  5  6  2  0
  6  7  1  0
  6  8  1  0
  8  9  2  0
  9 10  1  0
 10 11  2  0
 10 12  1  0
 12 13  1  0
 13 14  1  0
 14 15  1  0
 15 16  1  0
 16 17  2  0
 17 18  1  0
 17 19  1  0
 19 20  1  0
 20 21  1  0
  9  3  1  0
 20 15  2  0
M  END
>  <energy_score>  (3908) 
-11.274584

>  <inchikey>  (3908) 
JQIRDMIYHJYQJV-UHFFFAOYSA-N

>  <smiles>  (3908) 
CCc1ccc(C)cc1C(=O)NCCc1nc(C)oc1C

>  <ref_pdb>  (3908) 
A0514a

>  <alias>  (3908) 
JQIRDMIYHJYQJV-UHFFFAOYSA-N-P637-P178-P637-601502

>  <HIPPO Pose ID>  (3908) 
503911

>  <name>  (3908) 
JQIRDMIYHJYQJV-UHFFFAOYSA-N-P637-P178-P637-601502

>  <HIPPO Compound ID>  (3908) 
306504

>  <ref_mols>  (3908) 
A3408a,A5594a

>  <distance_score>  (3908) 
1.657998

>  <inspiration_score>  (3908) 
None

$$$$
TYTRDFYIXLCNAD-UHFFFAOYSA-N-P637-P178-P637-601502
     RDKit          3D

 26 27  0  0  0  0  0  0  0  0999 V2000
    6.6365   14.5099   23.3749 C   0  0  0  0  0  0  0  0  0  0  0  0
    6.6966   14.3317   24.8008 O   0  0  0  0  0  0  0  0  0  0  0  0
    6.6366   12.9990   25.1200 C   0  0  0  0  0  0  0  0  0  0  0  0
    5.5103   12.5680   25.8104 C   0  0  0  0  0  0  0  0  0  0  0  0
    5.3576   11.2167   26.0749 C   0  0  0  0  0  0  0  0  0  0  0  0
    6.2934   10.3119   25.5754 C   0  0  0  0  0  0  0  0  0  0  0  0
    7.4568   10.7448   24.9123 C   0  0  0  0  0  0  0  0  0  0  0  0
    8.3432    9.7300   24.2497 C   0  0  0  0  0  0  0  0  0  0  0  0
    7.6861   12.1261   24.8060 C   0  0  0  0  0  0  0  0  0  0  0  0
    9.0270   12.7177   24.4331 C   0  0  0  0  0  0  0  0  0  0  0  0
    9.7388   12.1271   23.7242 O   0  0  0  0  0  0  0  0  0  0  0  0
    9.2082   14.0983   25.1159 N   0  0  0  0  0  0  0  0  0  0  0  0
   10.2651   15.0778   24.9884 C   0  0  2  0  0  0  0  0  0  0  0  0
   11.3407   14.7309   23.9765 C   0  0  0  0  0  0  0  0  0  0  0  0
   10.8668   14.9012   22.5798 C   0  0  0  0  0  0  0  0  0  0  0  0
    9.9265   15.7481   22.0399 C   0  0  0  0  0  0  0  0  0  0  0  0
    9.8854   15.5552   20.6966 O   0  0  0  0  0  0  0  0  0  0  0  0
   10.8405   14.6188   20.4896 C   0  0  0  0  0  0  0  0  0  0  0  0
   11.4308   14.1742   21.5743 N   0  0  0  0  0  0  0  0  0  0  0  0
   10.8356   15.4723   26.3495 C   0  0  0  0  0  0  0  0  0  0  0  0
   11.7892   14.9521   26.9035 O   0  0  0  0  0  0  0  0  0  0  0  0
   10.0791   16.4783   26.8819 O   0  0  0  0  0  0  0  0  0  0  0  0
   10.3914   17.0348   28.1860 C   0  0  0  0  0  0  0  0  0  0  0  0
   10.2404   15.9815   29.2887 C   0  0  0  0  0  0  0  0  0  0  0  0
    9.3346   18.1281   28.4050 C   0  0  0  0  0  0  0  0  0  0  0  0
   11.7792   17.6847   28.1981 C   0  0  0  0  0  0  0  0  0  0  0  0
  1  2  1  0
  2  3  1  0
  3  4  2  0
  4  5  1  0
  5  6  2  0
  6  7  1  0
  7  8  1  0
  7  9  2  0
  9 10  1  0
 10 11  2  0
 10 12  1  0
 12 13  1  0
 13 14  1  6
 14 15  1  0
 15 16  2  0
 16 17  1  0
 17 18  1  0
 18 19  2  0
 13 20  1  0
 20 21  2  0
 20 22  1  0
 22 23  1  0
 23 24  1  0
 23 25  1  0
 23 26  1  0
  9  3  1  0
 19 15  1  0
M  END
>  <energy_score>  (3909) 
-44.646559

>  <inchikey>  (3909) 
TYTRDFYIXLCNAD-UHFFFAOYSA-N

>  <smiles>  (3909) 
COc1cccc(C)c1C(=O)NC(Cc1cocn1)C(=O)OC(C)(C)C

>  <ref_pdb>  (3909) 
A0514a

>  <alias>  (3909) 
TYTRDFYIXLCNAD-UHFFFAOYSA-N-P637-P178-P637-601502

>  <HIPPO Pose ID>  (3909) 
503943

>  <name>  (3909) 
TYTRDFYIXLCNAD-UHFFFAOYSA-N-P637-P178-P637-601502

>  <HIPPO Compound ID>  (3909) 
306536

>  <ref_mols>  (3909) 
A3408a,A5594a

>  <distance_score>  (3909) 
1.892342

>  <inspiration_score>  (3909) 
None

$$$$
ZMUSRROHXZDXAD-UHFFFAOYSA-N-P203-P203-P222-601503
     RDKit          3D

 22 23  0  0  0  0  0  0  0  0999 V2000
   13.2218   15.2412   27.2981 C   0  0  0  0  0  0  0  0  0  0  0  0
   12.2457   15.3988   26.2621 O   0  0  0  0  0  0  0  0  0  0  0  0
   12.3191   14.5008   25.2347 C   0  0  0  0  0  0  0  0  0  0  0  0
   13.1937   13.6538   25.1123 O   0  0  0  0  0  0  0  0  0  0  0  0
   11.0876   14.6901   24.2957 C   0  0  1  0  0  0  0  0  0  0  0  0
   11.1401   15.9235   23.4409 C   0  0  0  0  0  0  0  0  0  0  0  0
   11.6649   15.3163   22.1890 C   0  0  2  0  0  0  0  0  0  0  0  0
   10.9786   15.6503   20.9567 N   0  0  0  0  0  0  0  0  0  0  0  0
   11.4005   15.1856   19.7393 C   0  0  0  0  0  0  0  0  0  0  0  0
   12.2345   14.3206   19.5235 O   0  0  0  0  0  0  0  0  0  0  0  0
   10.7195   15.9562   18.6457 C   0  0  0  0  0  0  0  0  0  0  0  0
   10.1161   16.9902   19.4060 N   0  0  0  0  0  0  0  0  0  0  0  0
   10.2799   16.7928   20.7407 C   0  0  0  0  0  0  0  0  0  0  0  0
    9.8909   17.6066   21.5523 O   0  0  0  0  0  0  0  0  0  0  0  0
   11.5851   13.8447   22.6038 C   0  0  0  0  0  0  0  0  0  0  0  0
   10.5064   13.4673   23.5867 N   0  0  0  0  0  0  0  0  0  0  0  0
    8.9884   13.5613   23.4781 C   0  0  0  0  0  0  0  0  0  0  0  0
    8.3126   14.0246   22.6324 O   0  0  0  0  0  0  0  0  0  0  0  0
    8.4289   13.0041   24.7975 C   0  0  0  0  0  0  0  0  0  0  0  0
    7.5269   11.8691   24.5836 N   0  0  0  0  0  0  0  0  0  0  0  0
    8.2528   10.6339   24.3169 C   0  0  0  0  0  0  0  0  0  0  0  0
    6.6223   11.7195   25.7180 C   0  0  0  0  0  0  0  0  0  0  0  0
  1  2  1  0
  2  3  1  0
  3  4  2  0
  5  3  1  6
  5  6  1  0
  6  7  1  0
  7  8  1  6
  8  9  1  0
  9 10  2  0
  9 11  1  0
 11 12  1  0
 12 13  1  0
 13 14  2  0
  7 15  1  0
 15 16  1  0
 16 17  1  0
 17 18  2  0
 17 19  1  0
 19 20  1  0
 20 21  1  0
 20 22  1  0
 16  5  1  0
 13  8  1  0
M  END
>  <energy_score>  (3910) 
-0.829625

>  <inchikey>  (3910) 
ZMUSRROHXZDXAD-UHFFFAOYSA-N

>  <smiles>  (3910) 
COC(=O)C1CC(N2C(=O)CNC2=O)CN1C(=O)CN(C)C

>  <ref_pdb>  (3910) 
A3665a

>  <alias>  (3910) 
ZMUSRROHXZDXAD-UHFFFAOYSA-N-P203-P203-P222-601503

>  <HIPPO Pose ID>  (3910) 
505395

>  <name>  (3910) 
ZMUSRROHXZDXAD-UHFFFAOYSA-N-P203-P203-P222-601503

>  <HIPPO Compound ID>  (3910) 
298530

>  <ref_mols>  (3910) 
A3665a,A3571b

>  <distance_score>  (3910) 
1.49214

>  <inspiration_score>  (3910) 
None

$$$$
ZMUSRROHXZDXAD-UHFFFAOYSA-N-P222-P203-P222-601503
     RDKit          3D

 22 23  0  0  0  0  0  0  0  0999 V2000
   11.0337   15.4075   28.0239 C   0  0  0  0  0  0  0  0  0  0  0  0
   10.4171   15.2863   26.7437 O   0  0  0  0  0  0  0  0  0  0  0  0
   11.2092   14.9241   25.6919 C   0  0  0  0  0  0  0  0  0  0  0  0
   12.4016   14.6579   25.7752 O   0  0  0  0  0  0  0  0  0  0  0  0
   10.3781   14.9555   24.3826 C   0  0  1  0  0  0  0  0  0  0  0  0
   10.7699   16.1186   23.5184 C   0  0  0  0  0  0  0  0  0  0  0  0
   11.4557   15.4157   22.4044 C   0  0  2  0  0  0  0  0  0  0  0  0
   10.8732   15.6377   21.0866 N   0  0  0  0  0  0  0  0  0  0  0  0
   11.4004   15.0993   19.9420 C   0  0  0  0  0  0  0  0  0  0  0  0
   12.2818   14.2585   19.8574 O   0  0  0  0  0  0  0  0  0  0  0  0
   10.7910   15.7706   18.7374 C   0  0  0  0  0  0  0  0  0  0  0  0
   10.0814   16.8259   19.3725 N   0  0  0  0  0  0  0  0  0  0  0  0
   10.2321   16.7797   20.7223 C   0  0  0  0  0  0  0  0  0  0  0  0
    9.9068   17.7321   21.4048 O   0  0  0  0  0  0  0  0  0  0  0  0
   11.3429   13.9959   22.9775 C   0  0  0  0  0  0  0  0  0  0  0  0
   10.0331   13.6613   23.6631 N   0  0  0  0  0  0  0  0  0  0  0  0
    8.6084   13.6866   23.1389 C   0  0  0  0  0  0  0  0  0  0  0  0
    8.1841   14.0492   22.1004 O   0  0  0  0  0  0  0  0  0  0  0  0
    7.6313   13.2416   24.2441 C   0  0  0  0  0  0  0  0  0  0  0  0
    8.1111   12.2132   25.1953 N   0  0  0  0  0  0  0  0  0  0  0  0
    8.4114   10.9482   24.5235 C   0  0  0  0  0  0  0  0  0  0  0  0
    7.0386   11.9951   26.1763 C   0  0  0  0  0  0  0  0  0  0  0  0
  1  2  1  0
  2  3  1  0
  3  4  2  0
  5  3  1  1
  5  6  1  0
  6  7  1  0
  7  8  1  6
  8  9  1  0
  9 10  2  0
  9 11  1  0
 11 12  1  0
 12 13  1  0
 13 14  2  0
  7 15  1  0
 15 16  1  0
 16 17  1  0
 17 18  2  0
 17 19  1  0
 19 20  1  0
 20 21  1  0
 20 22  1  0
 16  5  1  0
 13  8  1  0
M  END
>  <energy_score>  (3911) 
-0.138334

>  <inchikey>  (3911) 
ZMUSRROHXZDXAD-UHFFFAOYSA-N

>  <smiles>  (3911) 
COC(=O)C1CC(N2C(=O)CNC2=O)CN1C(=O)CN(C)C

>  <ref_pdb>  (3911) 
A3665a

>  <alias>  (3911) 
ZMUSRROHXZDXAD-UHFFFAOYSA-N-P222-P203-P222-601503

>  <HIPPO Pose ID>  (3911) 
505396

>  <name>  (3911) 
ZMUSRROHXZDXAD-UHFFFAOYSA-N-P222-P203-P222-601503

>  <HIPPO Compound ID>  (3911) 
298530

>  <ref_mols>  (3911) 
A3665a,A3571b

>  <distance_score>  (3911) 
1.618646

>  <inspiration_score>  (3911) 
None

$$$$
WGVVBMPVSAIQED-UHFFFAOYSA-N-P141-P135-P141-601504
     RDKit          3D

 19 21  0  0  0  0  0  0  0  0999 V2000
   10.2689   15.2284   24.7933 O   0  0  0  0  0  0  0  0  0  0  0  0
    9.9429   14.5225   23.9244 C   0  0  0  0  0  0  0  0  0  0  0  0
   10.2348   14.6004   22.4007 N   0  0  0  0  0  0  0  0  0  0  0  0
   11.0801   15.5258   21.6395 C   0  0  0  0  0  0  0  0  0  0  0  0
   12.4234   15.7190   22.3171 C   0  0  0  0  0  0  0  0  0  0  0  0
   12.2939   16.3542   23.5109 F   0  0  0  0  0  0  0  0  0  0  0  0
   10.1707   16.5149   20.8544 C   0  0  0  0  0  0  0  0  0  0  0  0
   10.2039   15.6543   19.6887 O   0  0  0  0  0  0  0  0  0  0  0  0
   11.3885   15.0149   20.2082 C   0  0  0  0  0  0  0  0  0  0  0  0
    9.2136   13.2671   24.1489 C   0  0  0  0  0  0  0  0  0  0  0  0
    9.7753   12.1136   23.5111 C   0  0  0  0  0  0  0  0  0  0  0  0
    9.1618   10.9619   23.6583 C   0  0  0  0  0  0  0  0  0  0  0  0
    8.0743   10.8398   24.4579 N   0  0  0  0  0  0  0  0  0  0  0  0
    7.5515   11.8540   25.2149 C   0  0  0  0  0  0  0  0  0  0  0  0
    6.6829   11.6710   26.0597 O   0  0  0  0  0  0  0  0  0  0  0  0
    8.1628   13.1884   24.9803 C   0  0  0  0  0  0  0  0  0  0  0  0
    7.6480    9.4953   24.6567 C   0  0  0  0  0  0  0  0  0  0  0  0
    8.4298    8.5809   23.7337 C   0  0  0  0  0  0  0  0  0  0  0  0
    9.6954    9.5282   22.9423 S   0  0  0  0  0  0  0  0  0  0  0  0
  1  2  2  0
  2  3  1  0
  3  4  1  0
  4  5  1  0
  5  6  1  0
  4  7  1  0
  7  8  1  0
  8  9  1  0
  2 10  1  0
 10 11  1  0
 11 12  2  0
 12 13  1  0
 13 14  1  0
 14 15  2  0
 14 16  1  0
 13 17  1  0
 17 18  1  0
 18 19  1  0
  9  4  1  0
 16 10  2  0
 19 12  1  0
M  END
>  <energy_score>  (3912) 
-7.563335

>  <inchikey>  (3912) 
WGVVBMPVSAIQED-UHFFFAOYSA-N

>  <smiles>  (3912) 
O=C(NC1(CF)COC1)c1cc2n(c(=O)c1)CCS2

>  <ref_pdb>  (3912) 
A0514b

>  <alias>  (3912) 
WGVVBMPVSAIQED-UHFFFAOYSA-N-P141-P135-P141-601504

>  <HIPPO Pose ID>  (3912) 
506812

>  <name>  (3912) 
WGVVBMPVSAIQED-UHFFFAOYSA-N-P141-P135-P141-601504

>  <HIPPO Compound ID>  (3912) 
290933

>  <ref_mols>  (3912) 
A3176a,A2629a

>  <distance_score>  (3912) 
1.955547

>  <inspiration_score>  (3912) 
None

$$$$
XGPZLSPSNZRKLF-UHFFFAOYSA-N-P141-P135-P141-601504
     RDKit          3D

 19 20  0  0  0  0  0  0  0  0999 V2000
   10.8848   15.4339   19.0757 C   0  0  0  0  0  0  0  0  0  0  0  0
   10.9665   15.3860   20.4998 O   0  0  0  0  0  0  0  0  0  0  0  0
   12.0487   14.5681   20.9180 C   0  0  0  0  0  0  0  0  0  0  0  0
   11.9847   14.1120   22.3772 C   0  0  1  0  0  0  0  0  0  0  0  0
   12.2003   15.2221   23.3073 C   0  0  0  0  0  0  0  0  0  0  0  0
   12.2447   15.9425   24.2145 N   0  0  0  0  0  0  0  0  0  0  0  0
   10.8425   13.4316   22.9339 N   0  0  0  0  0  0  0  0  0  0  0  0
    9.3790   13.4386   22.5058 C   0  0  0  0  0  0  0  0  0  0  0  0
    8.8653   13.9307   21.5903 O   0  0  0  0  0  0  0  0  0  0  0  0
    8.6339   12.7442   23.5824 C   0  0  0  0  0  0  0  0  0  0  0  0
    8.0543   13.6439   24.5450 C   0  0  0  0  0  0  0  0  0  0  0  0
    7.2821   13.1511   25.5023 C   0  0  0  0  0  0  0  0  0  0  0  0
    7.0462   11.8102   25.5976 N   0  0  0  0  0  0  0  0  0  0  0  0
    7.6323   10.8696   24.7776 C   0  0  0  0  0  0  0  0  0  0  0  0
    7.4158    9.6661   24.8750 O   0  0  0  0  0  0  0  0  0  0  0  0
    8.5273   11.4140   23.7120 C   0  0  0  0  0  0  0  0  0  0  0  0
    5.9749   11.4743   26.5156 C   0  0  0  0  0  0  0  0  0  0  0  0
    5.1721   12.7314   26.8273 C   0  0  0  0  0  0  0  0  0  0  0  0
    6.3855   14.0734   26.6438 S   0  0  0  0  0  0  0  0  0  0  0  0
  1  2  1  0
  2  3  1  0
  4  3  1  6
  4  5  1  0
  5  6  3  0
  4  7  1  0
  7  8  1  0
  8  9  2  0
  8 10  1  0
 10 11  1  0
 11 12  2  0
 12 13  1  0
 13 14  1  0
 14 15  2  0
 14 16  1  0
 13 17  1  0
 17 18  1  0
 18 19  1  0
 16 10  2  0
 19 12  1  0
M  END
>  <energy_score>  (3913) 
-12.237251

>  <inchikey>  (3913) 
XGPZLSPSNZRKLF-UHFFFAOYSA-N

>  <smiles>  (3913) 
COCC(C#N)NC(=O)c1cc2n(c(=O)c1)CCS2

>  <ref_pdb>  (3913) 
A0514b

>  <alias>  (3913) 
XGPZLSPSNZRKLF-UHFFFAOYSA-N-P141-P135-P141-601504

>  <HIPPO Pose ID>  (3913) 
506832

>  <name>  (3913) 
XGPZLSPSNZRKLF-UHFFFAOYSA-N-P141-P135-P141-601504

>  <HIPPO Compound ID>  (3913) 
290943

>  <ref_mols>  (3913) 
A3176a,A2629a

>  <distance_score>  (3913) 
1.987533

>  <inspiration_score>  (3913) 
None

$$$$
YJDIOSSIZRBCCU-UHFFFAOYSA-N-P141-P135-P141-601504
     RDKit          3D

 19 20  0  0  0  0  0  0  0  0999 V2000
   12.7909   14.0720   24.0115 C   0  0  0  0  0  0  0  0  0  0  0  0
   12.5505   15.4033   23.2998 C   0  0  0  0  0  0  0  0  0  0  0  0
   11.3914   15.4421   22.3107 C   0  0  1  0  0  0  0  0  0  0  0  0
   11.8114   14.9836   20.9154 C   0  0  0  0  0  0  0  0  0  0  0  0
   10.6643   15.2024   20.1005 O   0  0  0  0  0  0  0  0  0  0  0  0
   10.9571   15.2205   18.7206 C   0  0  0  0  0  0  0  0  0  0  0  0
   10.3436   14.6060   22.7944 N   0  0  0  0  0  0  0  0  0  0  0  0
    9.6412   14.5704   24.1736 C   0  0  0  0  0  0  0  0  0  0  0  0
    9.7579   15.2695   25.0993 O   0  0  0  0  0  0  0  0  0  0  0  0
    8.8021   13.3496   24.1643 C   0  0  0  0  0  0  0  0  0  0  0  0
    9.4511   12.2087   23.5580 C   0  0  0  0  0  0  0  0  0  0  0  0
    8.9339   11.0163   23.7123 C   0  0  0  0  0  0  0  0  0  0  0  0
    7.8282   10.8261   24.4654 N   0  0  0  0  0  0  0  0  0  0  0  0
    7.2175   11.8139   25.1955 C   0  0  0  0  0  0  0  0  0  0  0  0
    6.3659   11.5713   26.0436 O   0  0  0  0  0  0  0  0  0  0  0  0
    7.7381   13.1929   24.9679 C   0  0  0  0  0  0  0  0  0  0  0  0
    7.5499    9.4510   24.7168 C   0  0  0  0  0  0  0  0  0  0  0  0
    8.3966    8.5940   23.7910 C   0  0  0  0  0  0  0  0  0  0  0  0
    9.6592    9.6185   23.0957 S   0  0  0  0  0  0  0  0  0  0  0  0
  1  2  1  0
  3  2  1  1
  3  4  1  0
  4  5  1  0
  5  6  1  0
  3  7  1  0
  7  8  1  0
  8  9  2  0
  8 10  1  0
 10 11  1  0
 11 12  2  0
 12 13  1  0
 13 14  1  0
 14 15  2  0
 14 16  1  0
 13 17  1  0
 17 18  1  0
 18 19  1  0
 16 10  2  0
 19 12  1  0
M  END
>  <energy_score>  (3914) 
-6.532184

>  <inchikey>  (3914) 
YJDIOSSIZRBCCU-UHFFFAOYSA-N

>  <smiles>  (3914) 
CCC(COC)NC(=O)c1cc2n(c(=O)c1)CCS2

>  <ref_pdb>  (3914) 
A0514b

>  <alias>  (3914) 
YJDIOSSIZRBCCU-UHFFFAOYSA-N-P141-P135-P141-601504

>  <HIPPO Pose ID>  (3914) 
506872

>  <name>  (3914) 
YJDIOSSIZRBCCU-UHFFFAOYSA-N-P141-P135-P141-601504

>  <HIPPO Compound ID>  (3914) 
290963

>  <ref_mols>  (3914) 
A3176a,A2629a

>  <distance_score>  (3914) 
1.618411

>  <inspiration_score>  (3914) 
None

$$$$
APUJVGCTMAQZPW-UHFFFAOYSA-N-P141-P135-P141-601504
     RDKit          3D

 19 21  0  0  0  0  0  0  0  0999 V2000
   12.5130   15.8445   22.3371 C   0  0  0  0  0  0  0  0  0  0  0  0
   11.4016   15.3000   21.4623 C   0  0  1  0  0  0  0  0  0  0  0  0
   10.5912   14.4030   22.2458 N   0  0  0  0  0  0  0  0  0  0  0  0
   10.1745   14.4660   23.7371 C   0  0  0  0  0  0  0  0  0  0  0  0
   10.4859   15.2111   24.5776 O   0  0  0  0  0  0  0  0  0  0  0  0
    9.3282   13.2875   23.9943 C   0  0  0  0  0  0  0  0  0  0  0  0
    9.8071   12.0708   23.4131 C   0  0  0  0  0  0  0  0  0  0  0  0
    9.1632   10.9552   23.6579 C   0  0  0  0  0  0  0  0  0  0  0  0
    8.0812   10.9326   24.4731 N   0  0  0  0  0  0  0  0  0  0  0  0
    7.6115   12.0177   25.1620 C   0  0  0  0  0  0  0  0  0  0  0  0
    6.7435   11.9255   26.0221 O   0  0  0  0  0  0  0  0  0  0  0  0
    8.2899   13.3052   24.8463 C   0  0  0  0  0  0  0  0  0  0  0  0
    7.5861    9.6264   24.7490 C   0  0  0  0  0  0  0  0  0  0  0  0
    8.3257    8.6329   23.8770 C   0  0  0  0  0  0  0  0  0  0  0  0
    9.6638    9.4552   23.0620 S   0  0  0  0  0  0  0  0  0  0  0  0
   10.4508   16.2335   20.7175 C   0  0  0  0  0  0  0  0  0  0  0  0
   10.5126   15.7792   19.2609 C   0  0  0  0  0  0  0  0  0  0  0  0
   11.1224   14.4902   19.2666 O   0  0  0  0  0  0  0  0  0  0  0  0
   12.0718   14.5289   20.3237 C   0  0  0  0  0  0  0  0  0  0  0  0
  2  1  1  1
  2  3  1  0
  3  4  1  0
  4  5  2  0
  4  6  1  0
  6  7  1  0
  7  8  2  0
  8  9  1  0
  9 10  1  0
 10 11  2  0
 10 12  1  0
  9 13  1  0
 13 14  1  0
 14 15  1  0
  2 16  1  0
 16 17  1  0
 17 18  1  0
 18 19  1  0
 19  2  1  0
 12  6  2  0
 15  8  1  0
M  END
>  <energy_score>  (3915) 
-11.674866

>  <inchikey>  (3915) 
APUJVGCTMAQZPW-UHFFFAOYSA-N

>  <smiles>  (3915) 
CC1(NC(=O)c2cc3n(c(=O)c2)CCS3)CCOC1

>  <ref_pdb>  (3915) 
A0514b

>  <alias>  (3915) 
APUJVGCTMAQZPW-UHFFFAOYSA-N-P141-P135-P141-601504

>  <HIPPO Pose ID>  (3915) 
506888

>  <name>  (3915) 
APUJVGCTMAQZPW-UHFFFAOYSA-N-P141-P135-P141-601504

>  <HIPPO Compound ID>  (3915) 
290971

>  <ref_mols>  (3915) 
A3176a,A2629a

>  <distance_score>  (3915) 
1.753084

>  <inspiration_score>  (3915) 
None

$$$$
HCQOGGNDLJEIHN-UHFFFAOYSA-N-P135-P135-P141-601504
     RDKit          3D

 20 23  0  0  0  0  0  0  0  0999 V2000
   10.4635   13.6326   20.7089 O   0  0  0  0  0  0  0  0  0  0  0  0
   11.3674   13.9682   21.4118 C   0  0  0  0  0  0  0  0  0  0  0  0
   11.6372   13.6771   22.7826 N   0  0  0  0  0  0  0  0  0  0  0  0
   10.8572   12.9671   23.7735 C   0  0  2  0  0  0  0  0  0  0  0  0
   10.5558   11.5221   23.3751 C   0  0  0  0  0  0  0  0  0  0  0  0
    9.0719   11.4029   23.6645 C   0  0  1  0  0  0  0  0  0  0  0  0
    8.7632   11.5663   25.1483 C   0  0  0  0  0  0  0  0  0  0  0  0
    8.8897   13.0765   25.3312 C   0  0  0  0  0  0  0  0  0  0  0  0
    9.4171   13.5166   23.9673 C   0  0  2  0  0  0  0  0  0  0  0  0
    8.5937   12.6551   23.1322 O   0  0  0  0  0  0  0  0  0  0  0  0
   12.3847   14.9349   20.7752 C   0  0  0  0  0  0  0  0  0  0  0  0
   12.3406   15.1199   19.3219 C   0  0  0  0  0  0  0  0  0  0  0  0
   12.9663   16.1602   18.7656 C   0  0  0  0  0  0  0  0  0  0  0  0
   13.7585   16.9979   19.4966 N   0  0  0  0  0  0  0  0  0  0  0  0
   13.8990   16.8900   20.8517 C   0  0  0  0  0  0  0  0  0  0  0  0
   14.5806   17.6715   21.5091 O   0  0  0  0  0  0  0  0  0  0  0  0
   13.1225   15.7975   21.4971 C   0  0  0  0  0  0  0  0  0  0  0  0
   14.3320   18.1076   18.7629 C   0  0  0  0  0  0  0  0  0  0  0  0
   14.2924   17.7583   17.2904 C   0  0  0  0  0  0  0  0  0  0  0  0
   12.8124   16.7130   17.1421 S   0  0  0  0  0  0  0  0  0  0  0  0
  1  2  2  0
  2  3  1  0
  4  3  1  6
  4  5  1  0
  6  5  1  1
  6  7  1  0
  7  8  1  0
  9  8  1  1
  9 10  1  0
  2 11  1  0
 11 12  1  0
 12 13  2  0
 13 14  1  0
 14 15  1  0
 15 16  2  0
 15 17  1  0
 14 18  1  0
 18 19  1  0
 19 20  1  0
  9  4  1  0
 17 11  2  0
 10  6  1  0
 20 13  1  0
M  END
>  <energy_score>  (3916) 
-18.684858

>  <inchikey>  (3916) 
HCQOGGNDLJEIHN-UHFFFAOYSA-N

>  <smiles>  (3916) 
O=C(NC1CC2CCC1O2)c1cc2n(c(=O)c1)CCS2

>  <ref_pdb>  (3916) 
A0514b

>  <alias>  (3916) 
HCQOGGNDLJEIHN-UHFFFAOYSA-N-P135-P135-P141-601504

>  <HIPPO Pose ID>  (3916) 
506909

>  <name>  (3916) 
HCQOGGNDLJEIHN-UHFFFAOYSA-N-P135-P135-P141-601504

>  <HIPPO Compound ID>  (3916) 
290982

>  <ref_mols>  (3916) 
A3176a,A2629a

>  <distance_score>  (3916) 
1.869938

>  <inspiration_score>  (3916) 
None

$$$$
BEODMKGCEBJHBY-UHFFFAOYSA-N-P135-P135-P141-601504
     RDKit          3D

 20 22  0  0  0  0  0  0  0  0999 V2000
    7.6909   11.6326   25.2944 C   0  0  0  0  0  0  0  0  0  0  0  0
    7.7010   12.9608   24.5404 C   0  0  0  0  0  0  0  0  0  0  0  0
    9.0337   13.5678   24.0305 C   0  0  1  0  0  0  0  0  0  0  0  0
   10.0481   13.2798   24.9829 O   0  0  0  0  0  0  0  0  0  0  0  0
   10.6723   12.0662   24.5476 C   0  0  0  0  0  0  0  0  0  0  0  0
   10.1578   11.6831   23.1708 C   0  0  0  0  0  0  0  0  0  0  0  0
    9.5107   12.9585   22.7093 C   0  0  2  0  0  0  0  0  0  0  0  0
   10.4528   13.7509   21.9354 N   0  0  0  0  0  0  0  0  0  0  0  0
   11.9890   13.8647   22.0383 C   0  0  0  0  0  0  0  0  0  0  0  0
   12.7464   13.2840   22.7073 O   0  0  0  0  0  0  0  0  0  0  0  0
   12.4014   14.9878   21.1584 C   0  0  0  0  0  0  0  0  0  0  0  0
   12.7160   14.9308   19.7561 C   0  0  0  0  0  0  0  0  0  0  0  0
   13.0695   16.0790   19.1673 C   0  0  0  0  0  0  0  0  0  0  0  0
   13.1332   17.2665   19.8461 N   0  0  0  0  0  0  0  0  0  0  0  0
   12.6348   17.4268   21.1062 C   0  0  0  0  0  0  0  0  0  0  0  0
   12.4807   18.5281   21.6253 O   0  0  0  0  0  0  0  0  0  0  0  0
   12.3081   16.1628   21.7868 C   0  0  0  0  0  0  0  0  0  0  0  0
   13.5563   18.4154   19.0802 C   0  0  0  0  0  0  0  0  0  0  0  0
   14.2900   17.8975   17.8730 C   0  0  0  0  0  0  0  0  0  0  0  0
   13.3998   16.3655   17.5239 S   0  0  0  0  0  0  0  0  0  0  0  0
  1  2  1  0
  3  2  1  1
  3  4  1  0
  4  5  1  0
  5  6  1  0
  6  7  1  0
  7  8  1  1
  8  9  1  0
  9 10  2  0
  9 11  1  0
 11 12  1  0
 12 13  2  0
 13 14  1  0
 14 15  1  0
 15 16  2  0
 15 17  1  0
 14 18  1  0
 18 19  1  0
 19 20  1  0
  7  3  1  0
 17 11  2  0
 20 13  1  0
M  END
>  <energy_score>  (3917) 
-9.907776

>  <inchikey>  (3917) 
BEODMKGCEBJHBY-UHFFFAOYSA-N

>  <smiles>  (3917) 
CCC1OCCC1NC(=O)c1cc2n(c(=O)c1)CCS2

>  <ref_pdb>  (3917) 
A0514b

>  <alias>  (3917) 
BEODMKGCEBJHBY-UHFFFAOYSA-N-P135-P135-P141-601504

>  <HIPPO Pose ID>  (3917) 
506913

>  <name>  (3917) 
BEODMKGCEBJHBY-UHFFFAOYSA-N-P135-P135-P141-601504

>  <HIPPO Compound ID>  (3917) 
290984

>  <ref_mols>  (3917) 
A3176a,A2629a

>  <distance_score>  (3917) 
1.647135

>  <inspiration_score>  (3917) 
None

$$$$
SZKAHURSLMYUAD-UHFFFAOYSA-N-P135-P135-P141-601504
     RDKit          3D

 20 22  0  0  0  0  0  0  0  0999 V2000
   14.7270   18.5632   20.5548 C   0  0  0  0  0  0  0  0  0  0  0  0
   14.0944   17.4564   20.9717 C   0  0  0  0  0  0  0  0  0  0  0  0
   12.8446   16.8600   20.3804 C   0  0  1  0  0  0  0  0  0  0  0  0
   12.7560   17.3008   18.9996 O   0  0  0  0  0  0  0  0  0  0  0  0
   13.1743   16.1931   18.1954 C   0  0  0  0  0  0  0  0  0  0  0  0
   12.5869   15.0019   18.8968 C   0  0  0  0  0  0  0  0  0  0  0  0
   12.8530   15.3162   20.3523 C   0  0  2  0  0  0  0  0  0  0  0  0
   11.8880   14.6240   21.1707 N   0  0  0  0  0  0  0  0  0  0  0  0
   12.0862   13.7177   22.4084 C   0  0  0  0  0  0  0  0  0  0  0  0
   13.0637   13.3285   22.9117 O   0  0  0  0  0  0  0  0  0  0  0  0
   10.7681   13.2602   22.8896 C   0  0  0  0  0  0  0  0  0  0  0  0
   10.4763   11.8596   23.1120 C   0  0  0  0  0  0  0  0  0  0  0  0
    9.3962   11.5624   23.8289 C   0  0  0  0  0  0  0  0  0  0  0  0
    8.5227   12.5418   24.2414 N   0  0  0  0  0  0  0  0  0  0  0  0
    8.6260   13.8424   23.8151 C   0  0  0  0  0  0  0  0  0  0  0  0
    7.7272   14.6679   23.8426 O   0  0  0  0  0  0  0  0  0  0  0  0
    9.9276   14.2224   23.2758 C   0  0  0  0  0  0  0  0  0  0  0  0
    7.3394   12.0591   24.9154 C   0  0  0  0  0  0  0  0  0  0  0  0
    7.6641   10.6879   25.4629 C   0  0  0  0  0  0  0  0  0  0  0  0
    8.9083   10.0050   24.3197 S   0  0  0  0  0  0  0  0  0  0  0  0
  1  2  2  0
  3  2  1  6
  3  4  1  0
  4  5  1  0
  5  6  1  0
  6  7  1  0
  7  8  1  1
  8  9  1  0
  9 10  2  0
  9 11  1  0
 11 12  1  0
 12 13  2  0
 13 14  1  0
 14 15  1  0
 15 16  2  0
 15 17  1  0
 14 18  1  0
 18 19  1  0
 19 20  1  0
  7  3  1  0
 17 11  2  0
 20 13  1  0
M  END
>  <energy_score>  (3918) 
-36.23321

>  <inchikey>  (3918) 
SZKAHURSLMYUAD-UHFFFAOYSA-N

>  <smiles>  (3918) 
C=CC1OCCC1NC(=O)c1cc2n(c(=O)c1)CCS2

>  <ref_pdb>  (3918) 
A0514b

>  <alias>  (3918) 
SZKAHURSLMYUAD-UHFFFAOYSA-N-P135-P135-P141-601504

>  <HIPPO Pose ID>  (3918) 
506917

>  <name>  (3918) 
SZKAHURSLMYUAD-UHFFFAOYSA-N-P135-P135-P141-601504

>  <HIPPO Compound ID>  (3918) 
290986

>  <ref_mols>  (3918) 
A3176a,A2629a

>  <distance_score>  (3918) 
1.489544

>  <inspiration_score>  (3918) 
None

$$$$
HJNZCZYZWYBPKS-UHFFFAOYSA-N-P141-P135-P141-601504
     RDKit          3D

 20 22  0  0  0  0  0  0  0  0999 V2000
    9.1083   17.6460   20.2639 C   0  0  0  0  0  0  0  0  0  0  0  0
   10.4553   17.2430   20.1036 O   0  0  0  0  0  0  0  0  0  0  0  0
   10.9186   16.3492   21.1000 C   0  0  0  0  0  0  0  0  0  0  0  0
   11.2054   14.9909   20.4971 C   0  0  0  0  0  0  0  0  0  0  0  0
   10.7345   14.0888   21.5110 N   0  0  0  0  0  0  0  0  0  0  0  0
   11.4573   13.4874   22.7244 C   0  0  0  0  0  0  0  0  0  0  0  0
   12.5689   13.5644   23.0538 O   0  0  0  0  0  0  0  0  0  0  0  0
   10.4093   12.8350   23.5013 C   0  0  0  0  0  0  0  0  0  0  0  0
    9.8116   11.5483   23.3094 C   0  0  0  0  0  0  0  0  0  0  0  0
    8.7940   11.2468   24.1105 C   0  0  0  0  0  0  0  0  0  0  0  0
    8.2485   12.1734   24.9699 N   0  0  0  0  0  0  0  0  0  0  0  0
    8.6833   13.4734   25.0562 C   0  0  0  0  0  0  0  0  0  0  0  0
    8.1522   14.3773   25.6854 O   0  0  0  0  0  0  0  0  0  0  0  0
    9.9065   13.7624   24.3254 C   0  0  0  0  0  0  0  0  0  0  0  0
    7.0095   11.7721   25.5908 C   0  0  0  0  0  0  0  0  0  0  0  0
    6.8868   10.2683   25.4825 C   0  0  0  0  0  0  0  0  0  0  0  0
    8.0531    9.7221   24.2093 S   0  0  0  0  0  0  0  0  0  0  0  0
   10.7565   14.7157   19.0577 C   0  0  0  0  0  0  0  0  0  0  0  0
   12.1103   15.1651   18.5800 C   0  0  0  0  0  0  0  0  0  0  0  0
   12.6234   14.7620   19.9795 C   0  0  0  0  0  0  0  0  0  0  0  0
  1  2  1  0
  2  3  1  0
  3  4  1  0
  4  5  1  0
  5  6  1  0
  6  7  2  0
  6  8  1  0
  8  9  1  0
  9 10  2  0
 10 11  1  0
 11 12  1  0
 12 13  2  0
 12 14  1  0
 11 15  1  0
 15 16  1  0
 16 17  1  0
  4 18  1  0
 18 19  1  0
 19 20  1  0
 20  4  1  0
 14  8  2  0
 17 10  1  0
M  END
>  <energy_score>  (3919) 
-3.633266

>  <inchikey>  (3919) 
HJNZCZYZWYBPKS-UHFFFAOYSA-N

>  <smiles>  (3919) 
COCC1(NC(=O)c2cc3n(c(=O)c2)CCS3)CCC1

>  <ref_pdb>  (3919) 
A0514b

>  <alias>  (3919) 
HJNZCZYZWYBPKS-UHFFFAOYSA-N-P141-P135-P141-601504

>  <HIPPO Pose ID>  (3919) 
506932

>  <name>  (3919) 
HJNZCZYZWYBPKS-UHFFFAOYSA-N-P141-P135-P141-601504

>  <HIPPO Compound ID>  (3919) 
290993

>  <ref_mols>  (3919) 
A3176a,A2629a

>  <distance_score>  (3919) 
1.914295

>  <inspiration_score>  (3919) 
None

$$$$
QNKAJJQLFZDZPX-UHFFFAOYSA-N-P141-P135-P141-601504
     RDKit          3D

 20 21  0  0  0  0  0  0  0  0999 V2000
   11.3389   15.1655   18.5399 C   0  0  0  0  0  0  0  0  0  0  0  0
   11.3324   14.1205   19.4851 O   0  0  0  0  0  0  0  0  0  0  0  0
   12.0686   14.3700   20.6590 C   0  0  0  0  0  0  0  0  0  0  0  0
   11.2590   14.9716   21.8157 C   0  0  1  0  0  0  0  0  0  0  0  0
   12.3041   15.5624   22.7767 C   0  0  0  0  0  0  0  0  0  0  0  0
   10.2529   16.0520   21.3424 C   0  0  0  0  0  0  0  0  0  0  0  0
    9.3386   15.6977   20.3218 O   0  0  0  0  0  0  0  0  0  0  0  0
   10.5093   14.0267   22.6576 N   0  0  0  0  0  0  0  0  0  0  0  0
    9.0806   13.4960   22.5266 C   0  0  0  0  0  0  0  0  0  0  0  0
    8.2897   13.6588   21.6908 O   0  0  0  0  0  0  0  0  0  0  0  0
    8.7478   12.7524   23.7632 C   0  0  0  0  0  0  0  0  0  0  0  0
    8.3335   13.6133   24.8401 C   0  0  0  0  0  0  0  0  0  0  0  0
    7.5342   13.1212   25.7760 C   0  0  0  0  0  0  0  0  0  0  0  0
    7.2178   11.7936   25.8076 N   0  0  0  0  0  0  0  0  0  0  0  0
    7.6719   10.8762   24.8789 C   0  0  0  0  0  0  0  0  0  0  0  0
    7.3490    9.6924   24.8929 O   0  0  0  0  0  0  0  0  0  0  0  0
    8.5215   11.4323   23.7840 C   0  0  0  0  0  0  0  0  0  0  0  0
    6.0811   11.4987   26.6562 C   0  0  0  0  0  0  0  0  0  0  0  0
    5.9435   12.5847   27.7144 C   0  0  0  0  0  0  0  0  0  0  0  0
    6.7309   14.0511   26.9826 S   0  0  0  0  0  0  0  0  0  0  0  0
  1  2  1  0
  2  3  1  0
  3  4  1  0
  4  5  1  1
  4  6  1  0
  6  7  1  0
  4  8  1  0
  8  9  1  0
  9 10  2  0
  9 11  1  0
 11 12  1  0
 12 13  2  0
 13 14  1  0
 14 15  1  0
 15 16  2  0
 15 17  1  0
 14 18  1  0
 18 19  1  0
 19 20  1  0
 17 11  2  0
 20 13  1  0
M  END
>  <energy_score>  (3920) 
-39.242039

>  <inchikey>  (3920) 
QNKAJJQLFZDZPX-UHFFFAOYSA-N

>  <smiles>  (3920) 
COCC(C)(CO)NC(=O)c1cc2n(c(=O)c1)CCS2

>  <ref_pdb>  (3920) 
A0514b

>  <alias>  (3920) 
QNKAJJQLFZDZPX-UHFFFAOYSA-N-P141-P135-P141-601504

>  <HIPPO Pose ID>  (3920) 
506948

>  <name>  (3920) 
QNKAJJQLFZDZPX-UHFFFAOYSA-N-P141-P135-P141-601504

>  <HIPPO Compound ID>  (3920) 
291001

>  <ref_mols>  (3920) 
A3176a,A2629a

>  <distance_score>  (3920) 
1.964482

>  <inspiration_score>  (3920) 
None

$$$$
NKUUEFRWHWENJV-UHFFFAOYSA-N-P141-P135-P141-601504
     RDKit          3D

 20 20  0  0  0  0  0  0  0  0999 V2000
    9.7445   17.2480   18.7766 C   0  0  0  0  0  0  0  0  0  0  0  0
   10.5921   16.0056   18.9541 C   0  0  0  0  0  0  0  0  0  0  0  0
   10.9632   15.8515   20.3308 O   0  0  0  0  0  0  0  0  0  0  0  0
   11.8054   14.7155   20.4637 C   0  0  0  0  0  0  0  0  0  0  0  0
   12.0161   14.2574   21.9066 C   0  0  1  0  0  0  0  0  0  0  0  0
   12.6094   15.3309   22.7929 C   0  0  0  0  0  0  0  0  0  0  0  0
   10.9086   13.6609   22.6050 N   0  0  0  0  0  0  0  0  0  0  0  0
    9.4320   13.5706   22.2299 C   0  0  0  0  0  0  0  0  0  0  0  0
    8.8533   14.0282   21.3343 O   0  0  0  0  0  0  0  0  0  0  0  0
    8.7386   12.8444   23.2936 C   0  0  0  0  0  0  0  0  0  0  0  0
    8.7618   11.4652   23.4319 C   0  0  0  0  0  0  0  0  0  0  0  0
    8.1664   10.9412   24.5593 C   0  0  0  0  0  0  0  0  0  0  0  0
    7.6502   11.7063   25.5461 N   0  0  0  0  0  0  0  0  0  0  0  0
    7.6730   13.0498   25.3724 C   0  0  0  0  0  0  0  0  0  0  0  0
    7.2407   14.0645   26.7468 S   0  0  0  0  0  0  0  0  0  0  0  0
    5.7288   14.9992   26.2060 C   0  0  0  0  0  0  0  0  0  0  0  0
    4.9772   15.3499   27.5032 C   0  0  0  0  0  0  0  0  0  0  0  0
    6.1348   16.3033   25.5077 C   0  0  0  0  0  0  0  0  0  0  0  0
    4.8034   14.1766   25.3099 C   0  0  0  0  0  0  0  0  0  0  0  0
    8.1998   13.6539   24.2626 C   0  0  0  0  0  0  0  0  0  0  0  0
  1  2  1  0
  2  3  1  0
  3  4  1  0
  4  5  1  0
  5  6  1  1
  5  7  1  0
  7  8  1  0
  8  9  2  0
  8 10  1  0
 10 11  2  0
 11 12  1  0
 12 13  2  0
 13 14  1  0
 14 15  1  0
 15 16  1  0
 16 17  1  0
 16 18  1  0
 16 19  1  0
 14 20  2  0
 20 10  1  0
M  END
>  <energy_score>  (3921) 
-11.502213

>  <inchikey>  (3921) 
NKUUEFRWHWENJV-UHFFFAOYSA-N

>  <smiles>  (3921) 
CCOCC(C)NC(=O)c1ccnc(SC(C)(C)C)c1

>  <ref_pdb>  (3921) 
A0514b

>  <alias>  (3921) 
NKUUEFRWHWENJV-UHFFFAOYSA-N-P141-P135-P141-601504

>  <HIPPO Pose ID>  (3921) 
506972

>  <name>  (3921) 
NKUUEFRWHWENJV-UHFFFAOYSA-N-P141-P135-P141-601504

>  <HIPPO Compound ID>  (3921) 
291013

>  <ref_mols>  (3921) 
A3176a,A2629a

>  <distance_score>  (3921) 
1.975639

>  <inspiration_score>  (3921) 
None

$$$$
MJAIRFAALKWXPA-UHFFFAOYSA-N-P135-P135-P141-601504
     RDKit          3D

 20 23  0  0  0  0  0  0  0  0999 V2000
   11.2448   15.8804   22.6325 O   0  0  0  0  0  0  0  0  0  0  0  0
   11.5987   14.9023   22.0489 C   0  0  0  0  0  0  0  0  0  0  0  0
   11.1917   13.5633   22.1733 N   0  0  0  0  0  0  0  0  0  0  0  0
   10.3015   12.9414   23.0941 C   0  0  1  0  0  0  0  0  0  0  0  0
    8.8552   13.4625   22.9421 C   0  0  0  0  0  0  0  0  0  0  0  0
    8.0042   12.4596   23.5284 O   0  0  0  0  0  0  0  0  0  0  0  0
    8.8771   11.4205   24.0007 C   0  0  0  0  0  0  0  0  0  0  0  0
    8.3681   10.2422   24.7578 C   0  0  0  0  0  0  0  0  0  0  0  0
    8.9705   11.3960   25.4982 C   0  0  0  0  0  0  0  0  0  0  0  0
   10.1520   11.4454   23.2125 C   0  0  0  0  0  0  0  0  0  0  0  0
   12.6206   15.1748   20.9815 C   0  0  0  0  0  0  0  0  0  0  0  0
   12.3259   15.2076   19.5665 C   0  0  0  0  0  0  0  0  0  0  0  0
   12.9227   16.1486   18.8236 C   0  0  0  0  0  0  0  0  0  0  0  0
   13.8575   17.0085   19.3413 N   0  0  0  0  0  0  0  0  0  0  0  0
   14.2100   17.0203   20.6654 C   0  0  0  0  0  0  0  0  0  0  0  0
   14.9528   17.8603   21.1676 O   0  0  0  0  0  0  0  0  0  0  0  0
   13.5660   15.9823   21.4849 C   0  0  0  0  0  0  0  0  0  0  0  0
   14.2865   18.0709   18.4624 C   0  0  0  0  0  0  0  0  0  0  0  0
   13.9680   17.6576   17.0451 C   0  0  0  0  0  0  0  0  0  0  0  0
   12.5237   16.5673   17.2038 S   0  0  0  0  0  0  0  0  0  0  0  0
  1  2  2  0
  2  3  1  0
  4  3  1  6
  4  5  1  0
  5  6  1  0
  6  7  1  0
  7  8  1  0
  8  9  1  0
  7 10  1  0
  2 11  1  0
 11 12  1  0
 12 13  2  0
 13 14  1  0
 14 15  1  0
 15 16  2  0
 15 17  1  0
 14 18  1  0
 18 19  1  0
 19 20  1  0
 10  4  1  0
 17 11  2  0
  9  7  1  0
 20 13  1  0
M  END
>  <energy_score>  (3922) 
-12.76038

>  <inchikey>  (3922) 
MJAIRFAALKWXPA-UHFFFAOYSA-N

>  <smiles>  (3922) 
O=C(NC1COC2(CC2)C1)c1cc2n(c(=O)c1)CCS2

>  <ref_pdb>  (3922) 
A0514b

>  <alias>  (3922) 
MJAIRFAALKWXPA-UHFFFAOYSA-N-P135-P135-P141-601504

>  <HIPPO Pose ID>  (3922) 
506977

>  <name>  (3922) 
MJAIRFAALKWXPA-UHFFFAOYSA-N-P135-P135-P141-601504

>  <HIPPO Compound ID>  (3922) 
291016

>  <ref_mols>  (3922) 
A3176a,A2629a

>  <distance_score>  (3922) 
1.85466

>  <inspiration_score>  (3922) 
None

$$$$
IMDFRWOIAURBJH-UHFFFAOYSA-N-P135-P135-P141-601504
     RDKit          3D

 20 21  0  0  0  0  0  0  0  0999 V2000
    9.5439   13.5582   25.1718 C   0  0  0  0  0  0  0  0  0  0  0  0
    9.4195   12.4320   24.4676 C   0  0  0  0  0  0  0  0  0  0  0  0
    8.7606   11.2196   25.0401 C   0  0  0  0  0  0  0  0  0  0  0  0
    9.0434   10.1275   24.1543 O   0  0  0  0  0  0  0  0  0  0  0  0
   10.0112   10.5954   23.2090 C   0  0  0  0  0  0  0  0  0  0  0  0
    9.7660   12.0883   23.0650 C   0  0  2  0  0  0  0  0  0  0  0  0
   10.7848   12.8018   22.3456 N   0  0  0  0  0  0  0  0  0  0  0  0
   11.1037   14.3025   22.2931 C   0  0  0  0  0  0  0  0  0  0  0  0
   10.6419   15.1932   22.8836 O   0  0  0  0  0  0  0  0  0  0  0  0
   12.0997   14.6569   21.2383 C   0  0  0  0  0  0  0  0  0  0  0  0
   11.9536   14.1785   19.9484 C   0  0  0  0  0  0  0  0  0  0  0  0
   12.5915   14.8368   18.9159 C   0  0  0  0  0  0  0  0  0  0  0  0
   13.3482   15.9341   19.0701 N   0  0  0  0  0  0  0  0  0  0  0  0
   13.5003   16.3643   20.3392 C   0  0  0  0  0  0  0  0  0  0  0  0
   14.4879   17.8021   20.6159 S   0  0  0  0  0  0  0  0  0  0  0  0
   13.3913   19.1231   20.0253 C   0  0  0  0  0  0  0  0  0  0  0  0
   12.0931   19.2028   20.8237 C   0  0  0  0  0  0  0  0  0  0  0  0
   14.1693   20.4352   20.2747 C   0  0  0  0  0  0  0  0  0  0  0  0
   13.1289   19.0273   18.5173 C   0  0  0  0  0  0  0  0  0  0  0  0
   12.9189   15.7514   21.4363 C   0  0  0  0  0  0  0  0  0  0  0  0
  1  2  2  0
  2  3  1  0
  3  4  1  0
  4  5  1  0
  5  6  1  0
  6  7  1  1
  7  8  1  0
  8  9  2  0
  8 10  1  0
 10 11  2  0
 11 12  1  0
 12 13  2  0
 13 14  1  0
 14 15  1  0
 15 16  1  0
 16 17  1  0
 16 18  1  0
 16 19  1  0
 14 20  2  0
  6  2  1  0
 20 10  1  0
M  END
>  <energy_score>  (3923) 
-1.661138

>  <inchikey>  (3923) 
IMDFRWOIAURBJH-UHFFFAOYSA-N

>  <smiles>  (3923) 
C=C1COCC1NC(=O)c1ccnc(SC(C)(C)C)c1

>  <ref_pdb>  (3923) 
A0514b

>  <alias>  (3923) 
IMDFRWOIAURBJH-UHFFFAOYSA-N-P135-P135-P141-601504

>  <HIPPO Pose ID>  (3923) 
507029

>  <name>  (3923) 
IMDFRWOIAURBJH-UHFFFAOYSA-N-P135-P135-P141-601504

>  <HIPPO Compound ID>  (3923) 
291042

>  <ref_mols>  (3923) 
A3176a,A2629a

>  <distance_score>  (3923) 
1.923801

>  <inspiration_score>  (3923) 
None

$$$$
XFONZUOWORYVSI-UHFFFAOYSA-N-P141-P135-P141-601504
     RDKit          3D

 20 21  0  0  0  0  0  0  0  0999 V2000
   12.7841   14.9643   23.1878 C   0  0  0  0  0  0  0  0  0  0  0  0
   11.9435   14.2653   22.1386 C   0  0  1  0  0  0  0  0  0  0  0  0
   10.7907   13.6418   22.7208 N   0  0  0  0  0  0  0  0  0  0  0  0
   10.0731   13.9167   24.0434 C   0  0  0  0  0  0  0  0  0  0  0  0
   10.2526   14.7440   24.8417 O   0  0  0  0  0  0  0  0  0  0  0  0
    8.9919   12.9438   24.2948 C   0  0  0  0  0  0  0  0  0  0  0  0
    9.0951   11.5892   24.0053 C   0  0  0  0  0  0  0  0  0  0  0  0
    8.0900   10.7634   24.4571 C   0  0  0  0  0  0  0  0  0  0  0  0
    7.0156   11.2154   25.1316 N   0  0  0  0  0  0  0  0  0  0  0  0
    6.9079   12.5454   25.3451 C   0  0  0  0  0  0  0  0  0  0  0  0
    5.3961   13.2130   26.0111 S   0  0  0  0  0  0  0  0  0  0  0  0
    5.2328   12.3978   27.6370 C   0  0  0  0  0  0  0  0  0  0  0  0
    6.1695   13.0747   28.6404 C   0  0  0  0  0  0  0  0  0  0  0  0
    5.4458   10.8854   27.6033 C   0  0  0  0  0  0  0  0  0  0  0  0
    3.7815   12.6590   28.0917 C   0  0  0  0  0  0  0  0  0  0  0  0
    7.8740   13.4341   24.9439 C   0  0  0  0  0  0  0  0  0  0  0  0
   11.5164   15.2684   21.0771 C   0  0  2  0  0  0  0  0  0  0  0  0
   10.2061   15.1402   20.2924 C   0  0  0  0  0  0  0  0  0  0  0  0
   11.0952   15.1658   19.0535 C   0  0  0  0  0  0  0  0  0  0  0  0
   12.2843   15.0257   19.8613 O   0  0  0  0  0  0  0  0  0  0  0  0
  2  1  1  1
  2  3  1  0
  3  4  1  0
  4  5  2  0
  4  6  1  0
  6  7  2  0
  7  8  1  0
  8  9  2  0
  9 10  1  0
 10 11  1  0
 11 12  1  0
 12 13  1  0
 12 14  1  0
 12 15  1  0
 10 16  2  0
  2 17  1  0
 17 18  1  6
 18 19  1  0
 19 20  1  0
 16  6  1  0
 20 17  1  0
M  END
>  <energy_score>  (3924) 
-12.959265

>  <inchikey>  (3924) 
XFONZUOWORYVSI-UHFFFAOYSA-N

>  <smiles>  (3924) 
CC(NC(=O)c1ccnc(SC(C)(C)C)c1)C1CCO1

>  <ref_pdb>  (3924) 
A0514b

>  <alias>  (3924) 
XFONZUOWORYVSI-UHFFFAOYSA-N-P141-P135-P141-601504

>  <HIPPO Pose ID>  (3924) 
507032

>  <name>  (3924) 
XFONZUOWORYVSI-UHFFFAOYSA-N-P141-P135-P141-601504

>  <HIPPO Compound ID>  (3924) 
291043

>  <ref_mols>  (3924) 
A3176a,A2629a

>  <distance_score>  (3924) 
1.884453

>  <inspiration_score>  (3924) 
None

$$$$
UZNCYGDXRYRGJJ-UHFFFAOYSA-N-P141-P135-P141-601504
     RDKit          3D

 20 20  0  0  0  0  0  0  0  0999 V2000
   11.2085   15.1918   18.9555 C   0  0  0  0  0  0  0  0  0  0  0  0
   11.0783   15.4510   20.3449 O   0  0  0  0  0  0  0  0  0  0  0  0
   12.0404   14.7530   21.1333 C   0  0  0  0  0  0  0  0  0  0  0  0
   11.5893   14.7954   22.5887 C   0  0  2  0  0  0  0  0  0  0  0  0
   12.6718   14.5281   23.5437 C   0  0  0  0  0  0  0  0  0  0  0  0
   13.3538   14.1704   24.4145 N   0  0  0  0  0  0  0  0  0  0  0  0
   10.5716   13.8365   22.9556 N   0  0  0  0  0  0  0  0  0  0  0  0
    9.1746   13.6173   22.4000 C   0  0  0  0  0  0  0  0  0  0  0  0
    8.6347   14.1167   21.5061 O   0  0  0  0  0  0  0  0  0  0  0  0
    8.5070   12.6665   23.2955 C   0  0  0  0  0  0  0  0  0  0  0  0
    8.7923   11.3132   23.3526 C   0  0  0  0  0  0  0  0  0  0  0  0
    8.2564   10.6118   24.4096 C   0  0  0  0  0  0  0  0  0  0  0  0
    7.5800   11.2017   25.4196 N   0  0  0  0  0  0  0  0  0  0  0  0
    7.3628   12.5376   25.3498 C   0  0  0  0  0  0  0  0  0  0  0  0
    6.8094   13.3083   26.8334 S   0  0  0  0  0  0  0  0  0  0  0  0
    5.5519   14.6086   26.3966 C   0  0  0  0  0  0  0  0  0  0  0  0
    4.6625   14.7310   27.6520 C   0  0  0  0  0  0  0  0  0  0  0  0
    6.2383   15.9635   26.1720 C   0  0  0  0  0  0  0  0  0  0  0  0
    4.6545   14.2397   25.2169 C   0  0  0  0  0  0  0  0  0  0  0  0
    7.7850   13.2903   24.2891 C   0  0  0  0  0  0  0  0  0  0  0  0
  1  2  1  0
  2  3  1  0
  4  3  1  6
  4  5  1  0
  5  6  3  0
  4  7  1  0
  7  8  1  0
  8  9  2  0
  8 10  1  0
 10 11  2  0
 11 12  1  0
 12 13  2  0
 13 14  1  0
 14 15  1  0
 15 16  1  0
 16 17  1  0
 16 18  1  0
 16 19  1  0
 14 20  2  0
 20 10  1  0
M  END
>  <energy_score>  (3925) 
-1.847647

>  <inchikey>  (3925) 
UZNCYGDXRYRGJJ-UHFFFAOYSA-N

>  <smiles>  (3925) 
COCC(C#N)NC(=O)c1ccnc(SC(C)(C)C)c1

>  <ref_pdb>  (3925) 
A0514b

>  <alias>  (3925) 
UZNCYGDXRYRGJJ-UHFFFAOYSA-N-P141-P135-P141-601504

>  <HIPPO Pose ID>  (3925) 
507042

>  <name>  (3925) 
UZNCYGDXRYRGJJ-UHFFFAOYSA-N-P141-P135-P141-601504

>  <HIPPO Compound ID>  (3925) 
291048

>  <ref_mols>  (3925) 
A3176a,A2629a

>  <distance_score>  (3925) 
1.793145

>  <inspiration_score>  (3925) 
None

$$$$
CLPVVRIXYQAQKH-UHFFFAOYSA-N-P141-P135-P141-601504
     RDKit          3D

 21 21  0  0  0  0  0  0  0  0999 V2000
    9.9317   17.0093   18.4515 C   0  0  0  0  0  0  0  0  0  0  0  0
   10.7739   15.8122   18.8680 C   0  0  0  0  0  0  0  0  0  0  0  0
   10.8429   15.8587   20.2851 O   0  0  0  0  0  0  0  0  0  0  0  0
   11.7447   14.9287   20.8697 C   0  0  0  0  0  0  0  0  0  0  0  0
   11.4567   14.9716   22.3656 C   0  0  2  0  0  0  0  0  0  0  0  0
   12.6870   14.7640   23.2308 C   0  0  0  0  0  0  0  0  0  0  0  0
   12.3722   14.9680   24.6209 O   0  0  0  0  0  0  0  0  0  0  0  0
   10.4700   14.0311   22.8517 N   0  0  0  0  0  0  0  0  0  0  0  0
    9.0737   13.7023   22.3332 C   0  0  0  0  0  0  0  0  0  0  0  0
    8.5153   14.0747   21.3879 O   0  0  0  0  0  0  0  0  0  0  0  0
    8.4372   12.8464   23.3372 C   0  0  0  0  0  0  0  0  0  0  0  0
    8.6842   11.4928   23.4891 C   0  0  0  0  0  0  0  0  0  0  0  0
    8.2126   10.9014   24.6418 C   0  0  0  0  0  0  0  0  0  0  0  0
    7.6627   11.5974   25.6640 N   0  0  0  0  0  0  0  0  0  0  0  0
    7.4826   12.9237   25.4823 C   0  0  0  0  0  0  0  0  0  0  0  0
    7.1034   13.9556   26.8709 S   0  0  0  0  0  0  0  0  0  0  0  0
    5.2737   13.7365   27.0371 C   0  0  0  0  0  0  0  0  0  0  0  0
    4.8645   14.5144   28.2996 C   0  0  0  0  0  0  0  0  0  0  0  0
    4.5542   14.3421   25.8270 C   0  0  0  0  0  0  0  0  0  0  0  0
    4.8972   12.2631   27.2226 C   0  0  0  0  0  0  0  0  0  0  0  0
    7.8093   13.5740   24.3227 C   0  0  0  0  0  0  0  0  0  0  0  0
  1  2  1  0
  2  3  1  0
  3  4  1  0
  5  4  1  6
  5  6  1  0
  6  7  1  0
  5  8  1  0
  8  9  1  0
  9 10  2  0
  9 11  1  0
 11 12  2  0
 12 13  1  0
 13 14  2  0
 14 15  1  0
 15 16  1  0
 16 17  1  0
 17 18  1  0
 17 19  1  0
 17 20  1  0
 15 21  2  0
 21 11  1  0
M  END
>  <energy_score>  (3926) 
-10.007679

>  <inchikey>  (3926) 
CLPVVRIXYQAQKH-UHFFFAOYSA-N

>  <smiles>  (3926) 
CCOCC(CO)NC(=O)c1ccnc(SC(C)(C)C)c1

>  <ref_pdb>  (3926) 
A0514b

>  <alias>  (3926) 
CLPVVRIXYQAQKH-UHFFFAOYSA-N-P141-P135-P141-601504

>  <HIPPO Pose ID>  (3926) 
507100

>  <name>  (3926) 
CLPVVRIXYQAQKH-UHFFFAOYSA-N-P141-P135-P141-601504

>  <HIPPO Compound ID>  (3926) 
291077

>  <ref_mols>  (3926) 
A3176a,A2629a

>  <distance_score>  (3926) 
1.988468

>  <inspiration_score>  (3926) 
None

$$$$
NSCTWEKXNBMTAD-UHFFFAOYSA-N-P141-P135-P141-601504
     RDKit          3D

 21 21  0  0  0  0  0  0  0  0999 V2000
   11.2382   14.9691   19.2846 C   0  0  0  0  0  0  0  0  0  0  0  0
   11.0255   14.8428   20.6843 O   0  0  0  0  0  0  0  0  0  0  0  0
   12.1410   14.2472   21.3745 C   0  0  0  0  0  0  0  0  0  0  0  0
   11.8973   14.3170   22.8992 C   0  0  0  0  0  0  0  0  0  0  0  0
   12.0117   15.7760   23.2359 C   0  0  0  0  0  0  0  0  0  0  0  0
   12.8553   13.6169   23.8547 C   0  0  0  0  0  0  0  0  0  0  0  0
   10.5952   13.8311   23.2634 N   0  0  0  0  0  0  0  0  0  0  0  0
    9.8168   13.9674   24.5629 C   0  0  0  0  0  0  0  0  0  0  0  0
   10.0640   14.5599   25.5310 O   0  0  0  0  0  0  0  0  0  0  0  0
    8.6259   13.1254   24.5764 C   0  0  0  0  0  0  0  0  0  0  0  0
    8.6917   11.7550   24.3696 C   0  0  0  0  0  0  0  0  0  0  0  0
    7.6185   11.0167   24.8096 C   0  0  0  0  0  0  0  0  0  0  0  0
    6.5294   11.5706   25.3883 N   0  0  0  0  0  0  0  0  0  0  0  0
    6.4676   12.9170   25.4695 C   0  0  0  0  0  0  0  0  0  0  0  0
    5.0196   13.7256   26.1239 S   0  0  0  0  0  0  0  0  0  0  0  0
    4.4897   12.5548   27.4049 C   0  0  0  0  0  0  0  0  0  0  0  0
    5.5719   11.9061   28.2367 C   0  0  0  0  0  0  0  0  0  0  0  0
    6.0255   10.7586   27.6937 F   0  0  0  0  0  0  0  0  0  0  0  0
    6.6239   12.7133   28.4874 F   0  0  0  0  0  0  0  0  0  0  0  0
    5.0570   11.5635   29.4494 F   0  0  0  0  0  0  0  0  0  0  0  0
    7.4922   13.7286   25.0687 C   0  0  0  0  0  0  0  0  0  0  0  0
  1  2  1  0
  2  3  1  0
  3  4  1  0
  4  5  1  0
  4  6  1  0
  4  7  1  0
  7  8  1  0
  8  9  2  0
  8 10  1  0
 10 11  2  0
 11 12  1  0
 12 13  2  0
 13 14  1  0
 14 15  1  0
 15 16  1  0
 16 17  1  0
 17 18  1  0
 17 19  1  0
 17 20  1  0
 14 21  2  0
 21 10  1  0
M  END
>  <energy_score>  (3927) 
-16.878396

>  <inchikey>  (3927) 
NSCTWEKXNBMTAD-UHFFFAOYSA-N

>  <smiles>  (3927) 
COCC(C)(C)NC(=O)c1ccnc(SCC(F)(F)F)c1

>  <ref_pdb>  (3927) 
A0514b

>  <alias>  (3927) 
NSCTWEKXNBMTAD-UHFFFAOYSA-N-P141-P135-P141-601504

>  <HIPPO Pose ID>  (3927) 
507154

>  <name>  (3927) 
NSCTWEKXNBMTAD-UHFFFAOYSA-N-P141-P135-P141-601504

>  <HIPPO Compound ID>  (3927) 
291104

>  <ref_mols>  (3927) 
A3176a,A2629a

>  <distance_score>  (3927) 
1.971433

>  <inspiration_score>  (3927) 
None

$$$$
HYMDELIBTGMHQU-UHFFFAOYSA-N-P135-P135-P141-601504
     RDKit          3D

 21 21  0  0  0  0  0  0  0  0999 V2000
   11.9425   14.8429   18.6147 C   0  0  0  0  0  0  0  0  0  0  0  0
   11.3433   14.3966   19.8115 O   0  0  0  0  0  0  0  0  0  0  0  0
   12.3181   14.1327   20.7952 C   0  0  0  0  0  0  0  0  0  0  0  0
   11.7891   14.3611   22.1963 C   0  0  2  0  0  0  0  0  0  0  0  0
   12.8423   13.9579   23.2043 C   0  0  0  0  0  0  0  0  0  0  0  0
   13.2166   12.5859   23.1534 O   0  0  0  0  0  0  0  0  0  0  0  0
   10.5552   13.6950   22.5448 N   0  0  0  0  0  0  0  0  0  0  0  0
   10.1338   12.9876   23.8439 C   0  0  0  0  0  0  0  0  0  0  0  0
   10.7420   12.7612   24.8137 O   0  0  0  0  0  0  0  0  0  0  0  0
    8.7150   12.6283   23.9076 C   0  0  0  0  0  0  0  0  0  0  0  0
    7.7496   13.4720   23.3739 C   0  0  0  0  0  0  0  0  0  0  0  0
    6.4689   13.3345   23.8463 C   0  0  0  0  0  0  0  0  0  0  0  0
    6.1466   12.5039   24.8496 N   0  0  0  0  0  0  0  0  0  0  0  0
    7.1096   11.7195   25.3574 C   0  0  0  0  0  0  0  0  0  0  0  0
    6.6901   10.8611   26.8292 S   0  0  0  0  0  0  0  0  0  0  0  0
    5.9478   12.2439   27.7577 C   0  0  0  0  0  0  0  0  0  0  0  0
    4.5600   11.9295   28.2865 C   0  0  0  0  0  0  0  0  0  0  0  0
    4.0980   13.0045   28.9770 F   0  0  0  0  0  0  0  0  0  0  0  0
    3.6729   11.6750   27.3049 F   0  0  0  0  0  0  0  0  0  0  0  0
    4.5700   10.8880   29.1447 F   0  0  0  0  0  0  0  0  0  0  0  0
    8.3825   11.6690   24.8568 C   0  0  0  0  0  0  0  0  0  0  0  0
  1  2  1  0
  2  3  1  0
  4  3  1  6
  4  5  1  0
  5  6  1  0
  4  7  1  0
  7  8  1  0
  8  9  2  0
  8 10  1  0
 10 11  2  0
 11 12  1  0
 12 13  2  0
 13 14  1  0
 14 15  1  0
 15 16  1  0
 16 17  1  0
 17 18  1  0
 17 19  1  0
 17 20  1  0
 14 21  2  0
 21 10  1  0
M  END
>  <energy_score>  (3928) 
-9.119579

>  <inchikey>  (3928) 
HYMDELIBTGMHQU-UHFFFAOYSA-N

>  <smiles>  (3928) 
COCC(CO)NC(=O)c1ccnc(SCC(F)(F)F)c1

>  <ref_pdb>  (3928) 
A0514b

>  <alias>  (3928) 
HYMDELIBTGMHQU-UHFFFAOYSA-N-P135-P135-P141-601504

>  <HIPPO Pose ID>  (3928) 
507157

>  <name>  (3928) 
HYMDELIBTGMHQU-UHFFFAOYSA-N-P135-P135-P141-601504

>  <HIPPO Compound ID>  (3928) 
291106

>  <ref_mols>  (3928) 
A3176a,A2629a

>  <distance_score>  (3928) 
1.973598

>  <inspiration_score>  (3928) 
None

$$$$
QUAFGWNJYKPAFK-UHFFFAOYSA-N-P135-P135-P141-601504
     RDKit          3D

 21 22  0  0  0  0  0  0  0  0999 V2000
    9.9007   13.6432   21.1272 O   0  0  0  0  0  0  0  0  0  0  0  0
   10.9702   13.6680   21.5776 C   0  0  0  0  0  0  0  0  0  0  0  0
   11.4871   13.1742   22.9239 N   0  0  0  0  0  0  0  0  0  0  0  0
   10.8177   12.4536   23.9766 C   0  0  2  0  0  0  0  0  0  0  0  0
   10.2528   11.0994   23.5582 C   0  0  0  0  0  0  0  0  0  0  0  0
    9.1922   10.7919   24.4754 O   0  0  0  0  0  0  0  0  0  0  0  0
    8.7222   12.0325   25.0276 C   0  0  0  0  0  0  0  0  0  0  0  0
    9.5387   13.1476   24.4137 C   0  0  1  0  0  0  0  0  0  0  0  0
    9.8253   14.0985   25.3287 F   0  0  0  0  0  0  0  0  0  0  0  0
   12.0175   14.3721   20.7772 C   0  0  0  0  0  0  0  0  0  0  0  0
   12.0192   14.1743   19.4044 C   0  0  0  0  0  0  0  0  0  0  0  0
   12.6591   15.0841   18.5984 C   0  0  0  0  0  0  0  0  0  0  0  0
   13.3457   16.1323   19.0539 N   0  0  0  0  0  0  0  0  0  0  0  0
   13.4170   16.2449   20.3918 C   0  0  0  0  0  0  0  0  0  0  0  0
   14.2375   17.6919   20.9532 S   0  0  0  0  0  0  0  0  0  0  0  0
   12.8263   18.7902   20.7258 C   0  0  0  0  0  0  0  0  0  0  0  0
   12.8468   19.5462   19.4075 C   0  0  0  0  0  0  0  0  0  0  0  0
   14.0640   20.0684   19.1277 F   0  0  0  0  0  0  0  0  0  0  0  0
   12.4559   18.8104   18.3476 F   0  0  0  0  0  0  0  0  0  0  0  0
   11.9996   20.6068   19.4891 F   0  0  0  0  0  0  0  0  0  0  0  0
   12.7675   15.4122   21.2985 C   0  0  0  0  0  0  0  0  0  0  0  0
  1  2  2  0
  2  3  1  0
  4  3  1  6
  4  5  1  0
  5  6  1  0
  6  7  1  0
  7  8  1  0
  8  9  1  1
  2 10  1  0
 10 11  2  0
 11 12  1  0
 12 13  2  0
 13 14  1  0
 14 15  1  0
 15 16  1  0
 16 17  1  0
 17 18  1  0
 17 19  1  0
 17 20  1  0
 14 21  2  0
  8  4  1  0
 21 10  1  0
M  END
>  <energy_score>  (3929) 
-2.951019

>  <inchikey>  (3929) 
QUAFGWNJYKPAFK-UHFFFAOYSA-N

>  <smiles>  (3929) 
O=C(NC1COCC1F)c1ccnc(SCC(F)(F)F)c1

>  <ref_pdb>  (3929) 
A0514b

>  <alias>  (3929) 
QUAFGWNJYKPAFK-UHFFFAOYSA-N-P135-P135-P141-601504

>  <HIPPO Pose ID>  (3929) 
507173

>  <name>  (3929) 
QUAFGWNJYKPAFK-UHFFFAOYSA-N-P135-P135-P141-601504

>  <HIPPO Compound ID>  (3929) 
291114

>  <ref_mols>  (3929) 
A3176a,A2629a

>  <distance_score>  (3929) 
1.59812

>  <inspiration_score>  (3929) 
None

$$$$
SDAAPWIOBMMAJO-UHFFFAOYSA-N-P135-P135-P141-601504
     RDKit          3D

 21 21  0  0  0  0  0  0  0  0999 V2000
   12.3270   15.4910   18.3726 C   0  0  0  0  0  0  0  0  0  0  0  0
   11.6831   14.4777   19.1199 O   0  0  0  0  0  0  0  0  0  0  0  0
   12.5008   14.1043   20.2239 C   0  0  0  0  0  0  0  0  0  0  0  0
   11.8841   14.4336   21.5503 C   0  0  2  0  0  0  0  0  0  0  0  0
   12.9038   14.6832   22.6247 C   0  0  0  0  0  0  0  0  0  0  0  0
   13.3329   13.5108   23.1787 F   0  0  0  0  0  0  0  0  0  0  0  0
   10.9962   13.4785   22.1575 N   0  0  0  0  0  0  0  0  0  0  0  0
    9.6269   13.6650   22.7890 C   0  0  0  0  0  0  0  0  0  0  0  0
    8.9507   14.6062   22.8570 O   0  0  0  0  0  0  0  0  0  0  0  0
    9.1699   12.4456   23.5016 C   0  0  0  0  0  0  0  0  0  0  0  0
    9.5189   11.1341   23.2234 C   0  0  0  0  0  0  0  0  0  0  0  0
    9.0750   10.1517   24.0878 C   0  0  0  0  0  0  0  0  0  0  0  0
    8.3711   10.4092   25.2104 N   0  0  0  0  0  0  0  0  0  0  0  0
    8.0955   11.6890   25.4888 C   0  0  0  0  0  0  0  0  0  0  0  0
    7.2299   12.0189   26.9900 S   0  0  0  0  0  0  0  0  0  0  0  0
    5.6427   12.5045   26.2308 C   0  0  0  0  0  0  0  0  0  0  0  0
    4.6752   13.0123   27.2685 C   0  0  0  0  0  0  0  0  0  0  0  0
    5.1678   14.0625   27.9627 F   0  0  0  0  0  0  0  0  0  0  0  0
    3.5135   13.4054   26.7072 F   0  0  0  0  0  0  0  0  0  0  0  0
    4.3986   12.0316   28.1396 F   0  0  0  0  0  0  0  0  0  0  0  0
    8.4583   12.7202   24.6612 C   0  0  0  0  0  0  0  0  0  0  0  0
  1  2  1  0
  2  3  1  0
  4  3  1  6
  4  5  1  0
  5  6  1  0
  4  7  1  0
  7  8  1  0
  8  9  2  0
  8 10  1  0
 10 11  2  0
 11 12  1  0
 12 13  2  0
 13 14  1  0
 14 15  1  0
 15 16  1  0
 16 17  1  0
 17 18  1  0
 17 19  1  0
 17 20  1  0
 14 21  2  0
 21 10  1  0
M  END
>  <energy_score>  (3930) 
-16.139572

>  <inchikey>  (3930) 
SDAAPWIOBMMAJO-UHFFFAOYSA-N

>  <smiles>  (3930) 
COCC(CF)NC(=O)c1ccnc(SCC(F)(F)F)c1

>  <ref_pdb>  (3930) 
A0514b

>  <alias>  (3930) 
SDAAPWIOBMMAJO-UHFFFAOYSA-N-P135-P135-P141-601504

>  <HIPPO Pose ID>  (3930) 
507175

>  <name>  (3930) 
SDAAPWIOBMMAJO-UHFFFAOYSA-N-P135-P135-P141-601504

>  <HIPPO Compound ID>  (3930) 
291115

>  <ref_mols>  (3930) 
A3176a,A2629a

>  <distance_score>  (3930) 
1.867992

>  <inspiration_score>  (3930) 
None

$$$$
SDAAPWIOBMMAJO-UHFFFAOYSA-N-P141-P135-P141-601504
     RDKit          3D

 21 21  0  0  0  0  0  0  0  0999 V2000
   10.5855   15.7879   19.0321 C   0  0  0  0  0  0  0  0  0  0  0  0
   10.7362   14.5916   19.7830 O   0  0  0  0  0  0  0  0  0  0  0  0
   11.8116   14.6428   20.7181 C   0  0  0  0  0  0  0  0  0  0  0  0
   11.2918   15.0576   22.0936 C   0  0  2  0  0  0  0  0  0  0  0  0
   12.4559   15.2087   23.0653 C   0  0  0  0  0  0  0  0  0  0  0  0
   12.9306   13.9816   23.4242 F   0  0  0  0  0  0  0  0  0  0  0  0
   10.3225   14.1141   22.6289 N   0  0  0  0  0  0  0  0  0  0  0  0
    9.6687   14.0622   23.8923 C   0  0  0  0  0  0  0  0  0  0  0  0
    9.6870   14.8255   24.8142 O   0  0  0  0  0  0  0  0  0  0  0  0
    8.8670   12.8181   24.1354 C   0  0  0  0  0  0  0  0  0  0  0  0
    9.1975   11.5784   23.5975 C   0  0  0  0  0  0  0  0  0  0  0  0
    8.4766   10.4769   24.0219 C   0  0  0  0  0  0  0  0  0  0  0  0
    7.4640   10.5414   24.9135 N   0  0  0  0  0  0  0  0  0  0  0  0
    7.1394   11.7506   25.4181 C   0  0  0  0  0  0  0  0  0  0  0  0
    5.8464   11.7293   26.6415 S   0  0  0  0  0  0  0  0  0  0  0  0
    4.8651   13.2103   26.1833 C   0  0  0  0  0  0  0  0  0  0  0  0
    5.0472   14.3520   27.1630 C   0  0  0  0  0  0  0  0  0  0  0  0
    4.3180   15.4252   26.7805 F   0  0  0  0  0  0  0  0  0  0  0  0
    4.6450   14.0180   28.4093 F   0  0  0  0  0  0  0  0  0  0  0  0
    6.3373   14.7453   27.2360 F   0  0  0  0  0  0  0  0  0  0  0  0
    7.8215   12.8996   25.0605 C   0  0  0  0  0  0  0  0  0  0  0  0
  1  2  1  0
  2  3  1  0
  4  3  1  6
  4  5  1  0
  5  6  1  0
  4  7  1  0
  7  8  1  0
  8  9  2  0
  8 10  1  0
 10 11  2  0
 11 12  1  0
 12 13  2  0
 13 14  1  0
 14 15  1  0
 15 16  1  0
 16 17  1  0
 17 18  1  0
 17 19  1  0
 17 20  1  0
 14 21  2  0
 21 10  1  0
M  END
>  <energy_score>  (3931) 
-17.684519

>  <inchikey>  (3931) 
SDAAPWIOBMMAJO-UHFFFAOYSA-N

>  <smiles>  (3931) 
COCC(CF)NC(=O)c1ccnc(SCC(F)(F)F)c1

>  <ref_pdb>  (3931) 
A0514b

>  <alias>  (3931) 
SDAAPWIOBMMAJO-UHFFFAOYSA-N-P141-P135-P141-601504

>  <HIPPO Pose ID>  (3931) 
507176

>  <name>  (3931) 
SDAAPWIOBMMAJO-UHFFFAOYSA-N-P141-P135-P141-601504

>  <HIPPO Compound ID>  (3931) 
291115

>  <ref_mols>  (3931) 
A3176a,A2629a

>  <distance_score>  (3931) 
1.958522

>  <inspiration_score>  (3931) 
None

$$$$
IMOUFNIZQPFYQN-UHFFFAOYSA-N-P141-P135-P141-601504
     RDKit          3D

 22 22  0  0  0  0  0  0  0  0999 V2000
   10.7843   15.2103   18.8201 C   0  0  0  0  0  0  0  0  0  0  0  0
   10.5502   14.8320   20.1773 O   0  0  0  0  0  0  0  0  0  0  0  0
   11.6518   14.2887   20.7784 C   0  0  0  0  0  0  0  0  0  0  0  0
   12.6564   13.9444   20.1723 O   0  0  0  0  0  0  0  0  0  0  0  0
   11.4701   14.2837   22.3110 C   0  0  0  0  0  0  0  0  0  0  0  0
   11.4266   15.7441   22.6714 C   0  0  0  0  0  0  0  0  0  0  0  0
   12.6340   13.7720   23.1260 C   0  0  0  0  0  0  0  0  0  0  0  0
   10.3038   13.5891   22.8202 N   0  0  0  0  0  0  0  0  0  0  0  0
    9.6309   13.6488   24.1967 C   0  0  0  0  0  0  0  0  0  0  0  0
    9.8575   14.3224   25.1197 O   0  0  0  0  0  0  0  0  0  0  0  0
    8.5947   12.6110   24.3980 C   0  0  0  0  0  0  0  0  0  0  0  0
    8.7815   11.2906   24.0138 C   0  0  0  0  0  0  0  0  0  0  0  0
    7.9416   10.3442   24.5698 C   0  0  0  0  0  0  0  0  0  0  0  0
    6.9629   10.6311   25.4594 N   0  0  0  0  0  0  0  0  0  0  0  0
    6.7707   11.9283   25.7759 C   0  0  0  0  0  0  0  0  0  0  0  0
    5.4747   12.3819   26.9198 S   0  0  0  0  0  0  0  0  0  0  0  0
    5.2002   10.8346   27.8597 C   0  0  0  0  0  0  0  0  0  0  0  0
    5.2854   11.0485   29.3599 C   0  0  0  0  0  0  0  0  0  0  0  0
    5.1147    9.8718   30.0105 F   0  0  0  0  0  0  0  0  0  0  0  0
    6.4904   11.5313   29.7405 F   0  0  0  0  0  0  0  0  0  0  0  0
    4.3352   11.8947   29.8116 F   0  0  0  0  0  0  0  0  0  0  0  0
    7.5527   12.9382   25.2542 C   0  0  0  0  0  0  0  0  0  0  0  0
  1  2  1  0
  2  3  1  0
  3  4  2  0
  3  5  1  0
  5  6  1  0
  5  7  1  0
  5  8  1  0
  8  9  1  0
  9 10  2  0
  9 11  1  0
 11 12  2  0
 12 13  1  0
 13 14  2  0
 14 15  1  0
 15 16  1  0
 16 17  1  0
 17 18  1  0
 18 19  1  0
 18 20  1  0
 18 21  1  0
 15 22  2  0
 22 11  1  0
M  END
>  <energy_score>  (3932) 
-1.758725

>  <inchikey>  (3932) 
IMOUFNIZQPFYQN-UHFFFAOYSA-N

>  <smiles>  (3932) 
COC(=O)C(C)(C)NC(=O)c1ccnc(SCC(F)(F)F)c1

>  <ref_pdb>  (3932) 
A0514b

>  <alias>  (3932) 
IMOUFNIZQPFYQN-UHFFFAOYSA-N-P141-P135-P141-601504

>  <HIPPO Pose ID>  (3932) 
507220

>  <name>  (3932) 
IMOUFNIZQPFYQN-UHFFFAOYSA-N-P141-P135-P141-601504

>  <HIPPO Compound ID>  (3932) 
291137

>  <ref_mols>  (3932) 
A3176a,A2629a

>  <distance_score>  (3932) 
1.92339

>  <inspiration_score>  (3932) 
None

$$$$
JGQWRMSNUSJEKV-UHFFFAOYSA-N-P141-P135-P141-601504
     RDKit          3D

 22 22  0  0  0  0  0  0  0  0999 V2000
   11.9780   15.1583   18.6398 C   0  0  0  0  0  0  0  0  0  0  0  0
   10.6694   14.9697   19.3426 C   0  0  0  0  0  0  0  0  0  0  0  0
   10.4327   15.7121   20.5135 O   0  0  0  0  0  0  0  0  0  0  0  0
   11.3777   15.6431   21.5598 C   0  0  0  0  0  0  0  0  0  0  0  0
   11.7244   14.2903   22.1711 C   0  0  1  0  0  0  0  0  0  0  0  0
   12.6822   14.5577   23.3554 C   0  0  0  0  0  0  0  0  0  0  0  0
   12.1790   15.4674   24.3383 O   0  0  0  0  0  0  0  0  0  0  0  0
   10.5846   13.5271   22.6412 N   0  0  0  0  0  0  0  0  0  0  0  0
    9.6995   13.7180   23.8782 C   0  0  0  0  0  0  0  0  0  0  0  0
    9.6935   14.5641   24.6797 O   0  0  0  0  0  0  0  0  0  0  0  0
    8.7676   12.5812   24.1387 C   0  0  0  0  0  0  0  0  0  0  0  0
    9.0022   11.2759   23.7288 C   0  0  0  0  0  0  0  0  0  0  0  0
    8.2229   10.2771   24.2806 C   0  0  0  0  0  0  0  0  0  0  0  0
    7.2543   10.5012   25.1917 N   0  0  0  0  0  0  0  0  0  0  0  0
    7.0080   11.7754   25.5539 C   0  0  0  0  0  0  0  0  0  0  0  0
    5.7712   11.9781   26.8174 S   0  0  0  0  0  0  0  0  0  0  0  0
    4.9049   13.4921   26.2501 C   0  0  0  0  0  0  0  0  0  0  0  0
    3.6161   13.7353   27.0149 C   0  0  0  0  0  0  0  0  0  0  0  0
    3.8457   13.9249   28.3341 F   0  0  0  0  0  0  0  0  0  0  0  0
    3.0007   14.8503   26.5547 F   0  0  0  0  0  0  0  0  0  0  0  0
    2.7404   12.7141   26.8874 F   0  0  0  0  0  0  0  0  0  0  0  0
    7.7376   12.8289   25.0451 C   0  0  0  0  0  0  0  0  0  0  0  0
  1  2  1  0
  2  3  1  0
  3  4  1  0
  5  4  1  1
  5  6  1  0
  6  7  1  0
  5  8  1  0
  8  9  1  0
  9 10  2  0
  9 11  1  0
 11 12  2  0
 12 13  1  0
 13 14  2  0
 14 15  1  0
 15 16  1  0
 16 17  1  0
 17 18  1  0
 18 19  1  0
 18 20  1  0
 18 21  1  0
 15 22  2  0
 22 11  1  0
M  END
>  <energy_score>  (3933) 
-0.08005

>  <inchikey>  (3933) 
JGQWRMSNUSJEKV-UHFFFAOYSA-N

>  <smiles>  (3933) 
CCOCC(CO)NC(=O)c1ccnc(SCC(F)(F)F)c1

>  <ref_pdb>  (3933) 
A0514b

>  <alias>  (3933) 
JGQWRMSNUSJEKV-UHFFFAOYSA-N-P141-P135-P141-601504

>  <HIPPO Pose ID>  (3933) 
507232

>  <name>  (3933) 
JGQWRMSNUSJEKV-UHFFFAOYSA-N-P141-P135-P141-601504

>  <HIPPO Compound ID>  (3933) 
291143

>  <ref_mols>  (3933) 
A3176a,A2629a

>  <distance_score>  (3933) 
1.969895

>  <inspiration_score>  (3933) 
None

$$$$
MQRVDELFLKOGIX-UHFFFAOYSA-N-P135-P135-P141-601504
     RDKit          3D

 22 24  0  0  0  0  0  0  0  0999 V2000
   14.9794   17.6096   16.8416 C   0  0  0  0  0  0  0  0  0  0  0  0
   13.5052   17.6752   17.1949 C   0  0  0  0  0  0  0  0  0  0  0  0
   13.2578   16.8935   18.4141 N   0  0  0  0  0  0  0  0  0  0  0  0
   12.6250   15.4905   18.5991 C   0  0  0  0  0  0  0  0  0  0  0  0
   12.2737   14.7088   17.8064 O   0  0  0  0  0  0  0  0  0  0  0  0
   12.5320   15.1030   20.0344 C   0  0  0  0  0  0  0  0  0  0  0  0
   13.3279   15.6577   20.9994 C   0  0  0  0  0  0  0  0  0  0  0  0
   13.1458   15.1856   22.2743 C   0  0  0  0  0  0  0  0  0  0  0  0
   12.1821   14.3476   22.7161 N   0  0  0  0  0  0  0  0  0  0  0  0
   11.3454   13.9279   21.7746 C   0  0  0  0  0  0  0  0  0  0  0  0
    9.7029   13.4954   22.2816 S   0  0  0  0  0  0  0  0  0  0  0  0
    9.9520   12.7074   23.8874 C   0  0  0  0  0  0  0  0  0  0  0  0
    8.6316   12.2472   24.4860 C   0  0  0  0  0  0  0  0  0  0  0  0
    8.4376   10.9489   24.9725 C   0  0  0  0  0  0  0  0  0  0  0  0
    7.2399   10.5987   25.6140 C   0  0  0  0  0  0  0  0  0  0  0  0
    6.2188   11.5203   25.7802 C   0  0  0  0  0  0  0  0  0  0  0  0
    6.3649   12.7798   25.2317 C   0  0  0  0  0  0  0  0  0  0  0  0
    7.5615   13.1415   24.6066 C   0  0  0  0  0  0  0  0  0  0  0  0
   11.5844   14.1624   20.4296 C   0  0  0  0  0  0  0  0  0  0  0  0
   12.9621   19.1128   17.2221 C   0  0  0  0  0  0  0  0  0  0  0  0
   12.1837   18.8942   16.0226 O   0  0  0  0  0  0  0  0  0  0  0  0
   12.4839   17.4749   16.0639 C   0  0  0  0  0  0  0  0  0  0  0  0
  1  2  1  0
  2  3  1  0
  3  4  1  0
  4  5  2  0
  4  6  1  0
  6  7  2  0
  7  8  1  0
  8  9  2  0
  9 10  1  0
 10 11  1  0
 11 12  1  0
 12 13  1  0
 13 14  2  0
 14 15  1  0
 15 16  2  0
 16 17  1  0
 17 18  2  0
 10 19  2  0
  2 20  1  0
 20 21  1  0
 21 22  1  0
 22  2  1  0
 19  6  1  0
 18 13  1  0
M  END
>  <energy_score>  (3934) 
-13.567513

>  <inchikey>  (3934) 
MQRVDELFLKOGIX-UHFFFAOYSA-N

>  <smiles>  (3934) 
CC1(NC(=O)c2ccnc(SCc3ccccc3)c2)COC1

>  <ref_pdb>  (3934) 
A0514b

>  <alias>  (3934) 
MQRVDELFLKOGIX-UHFFFAOYSA-N-P135-P135-P141-601504

>  <HIPPO Pose ID>  (3934) 
507245

>  <name>  (3934) 
MQRVDELFLKOGIX-UHFFFAOYSA-N-P135-P135-P141-601504

>  <HIPPO Compound ID>  (3934) 
291150

>  <ref_mols>  (3934) 
A3176a,A2629a

>  <distance_score>  (3934) 
1.963292

>  <inspiration_score>  (3934) 
None

$$$$
ZWRZMZJYCCGPQW-UHFFFAOYSA-N-P135-P135-P141-601504
     RDKit          3D

 23 25  0  0  0  0  0  0  0  0999 V2000
   14.3497   17.4843   16.5997 C   0  0  0  0  0  0  0  0  0  0  0  0
   13.2834   18.0637   17.5140 C   0  0  1  0  0  0  0  0  0  0  0  0
   12.9838   17.1898   18.6276 N   0  0  0  0  0  0  0  0  0  0  0  0
   12.5966   15.6945   18.6538 C   0  0  0  0  0  0  0  0  0  0  0  0
   12.3838   14.9543   17.7794 O   0  0  0  0  0  0  0  0  0  0  0  0
   12.5354   15.1821   20.0489 C   0  0  0  0  0  0  0  0  0  0  0  0
   13.3425   15.6960   21.0268 C   0  0  0  0  0  0  0  0  0  0  0  0
   13.1722   15.1711   22.2811 C   0  0  0  0  0  0  0  0  0  0  0  0
   12.2125   14.3141   22.6944 N   0  0  0  0  0  0  0  0  0  0  0  0
   11.3712   13.9295   21.7397 C   0  0  0  0  0  0  0  0  0  0  0  0
    9.7266   13.4962   22.2485 S   0  0  0  0  0  0  0  0  0  0  0  0
    9.9748   12.7092   23.8561 C   0  0  0  0  0  0  0  0  0  0  0  0
    8.6551   12.2509   24.4591 C   0  0  0  0  0  0  0  0  0  0  0  0
    8.4620   10.9520   24.9459 C   0  0  0  0  0  0  0  0  0  0  0  0
    7.2658   10.6012   25.5899 C   0  0  0  0  0  0  0  0  0  0  0  0
    6.2451   11.5228   25.7586 C   0  0  0  0  0  0  0  0  0  0  0  0
    6.3903   12.7829   25.2109 C   0  0  0  0  0  0  0  0  0  0  0  0
    7.5860   13.1460   24.5844 C   0  0  0  0  0  0  0  0  0  0  0  0
   11.6018   14.2132   20.4008 C   0  0  0  0  0  0  0  0  0  0  0  0
   13.7778   19.4028   18.0824 C   0  0  2  0  0  0  0  0  0  0  0  0
   15.0822   19.4452   18.9026 C   0  0  0  0  0  0  0  0  0  0  0  0
   14.2462   20.1987   19.9311 C   0  0  0  0  0  0  0  0  0  0  0  0
   13.0179   19.8411   19.2530 O   0  0  0  0  0  0  0  0  0  0  0  0
  2  1  1  6
  2  3  1  0
  3  4  1  0
  4  5  2  0
  4  6  1  0
  6  7  2  0
  7  8  1  0
  8  9  2  0
  9 10  1  0
 10 11  1  0
 11 12  1  0
 12 13  1  0
 13 14  2  0
 14 15  1  0
 15 16  2  0
 16 17  1  0
 17 18  2  0
 10 19  2  0
  2 20  1  0
 20 21  1  1
 21 22  1  0
 22 23  1  0
 19  6  1  0
 23 20  1  0
 18 13  1  0
M  END
>  <energy_score>  (3935) 
-4.15042

>  <inchikey>  (3935) 
ZWRZMZJYCCGPQW-UHFFFAOYSA-N

>  <smiles>  (3935) 
CC(NC(=O)c1ccnc(SCc2ccccc2)c1)C1CCO1

>  <ref_pdb>  (3935) 
A0514b

>  <alias>  (3935) 
ZWRZMZJYCCGPQW-UHFFFAOYSA-N-P135-P135-P141-601504

>  <HIPPO Pose ID>  (3935) 
507326

>  <name>  (3935) 
ZWRZMZJYCCGPQW-UHFFFAOYSA-N-P135-P135-P141-601504

>  <HIPPO Compound ID>  (3935) 
291191

>  <ref_mols>  (3935) 
A3176a,A2629a

>  <distance_score>  (3935) 
1.976414

>  <inspiration_score>  (3935) 
None

$$$$
XNELRAWUPWDHHU-UHFFFAOYSA-N-P87-P87-P135-601504
     RDKit          3D

 25 27  0  0  0  0  0  0  0  0999 V2000
    8.7819    9.7072   24.6188 C   0  0  0  0  0  0  0  0  0  0  0  0
    9.0810   10.8858   25.3133 O   0  0  0  0  0  0  0  0  0  0  0  0
    7.9441   11.5946   25.5991 N   0  0  0  0  0  0  0  0  0  0  0  0
    7.6871   12.5262   24.7289 C   0  0  0  0  0  0  0  0  0  0  0  0
    8.4938   12.8310   23.4515 C   0  0  0  0  0  0  0  0  0  0  0  0
    7.8695   13.0270   22.4113 O   0  0  0  0  0  0  0  0  0  0  0  0
    9.8854   12.7872   23.4148 N   0  0  0  0  0  0  0  0  0  0  0  0
   10.6938   13.9550   23.5933 C   0  0  0  0  0  0  0  0  0  0  0  0
   12.0302   13.6638   24.3056 C   0  0  0  0  0  0  0  0  0  0  0  0
   12.6966   12.2857   24.3317 C   0  0  0  0  0  0  0  0  0  0  0  0
   13.6448   12.1463   25.5198 C   0  0  0  0  0  0  0  0  0  0  0  0
   13.3440   12.5956   26.6203 O   0  0  0  0  0  0  0  0  0  0  0  0
   14.9233   11.4328   25.5386 C   0  0  0  0  0  0  0  0  0  0  0  0
   15.0027   10.1003   25.1984 C   0  0  0  0  0  0  0  0  0  0  0  0
   16.1155    9.3565   25.5867 C   0  0  0  0  0  0  0  0  0  0  0  0
   17.1060    9.9744   26.3291 C   0  0  0  0  0  0  0  0  0  0  0  0
   17.0617   11.2751   26.6704 N   0  0  0  0  0  0  0  0  0  0  0  0
   15.9714   11.9760   26.2790 C   0  0  0  0  0  0  0  0  0  0  0  0
   11.5416   11.3216   24.4156 C   0  0  0  0  0  0  0  0  0  0  0  0
   10.6454   11.5855   23.1971 C   0  0  0  0  0  0  0  0  0  0  0  0
    6.4573   13.2435   24.9571 C   0  0  0  0  0  0  0  0  0  0  0  0
    5.5765   13.2265   26.0310 C   0  0  0  0  0  0  0  0  0  0  0  0
    4.5393   14.1417   25.7278 C   0  0  0  0  0  0  0  0  0  0  0  0
    4.8160   14.6231   24.4711 C   0  0  0  0  0  0  0  0  0  0  0  0
    5.9821   14.1055   24.0114 O   0  0  0  0  0  0  0  0  0  0  0  0
  1  2  1  0
  2  3  1  0
  3  4  2  3
  4  5  1  0
  5  6  2  0
  5  7  1  0
  7  8  1  0
  8  9  1  0
  9 10  1  0
 10 11  1  0
 11 12  2  0
 11 13  1  0
 13 14  2  0
 14 15  1  0
 15 16  2  0
 16 17  1  0
 17 18  2  0
 10 19  1  0
 19 20  1  0
  4 21  1  0
 21 22  2  0
 22 23  1  0
 23 24  2  0
 24 25  1  0
 20  7  1  0
 25 21  1  0
 18 13  1  0
M  END
>  <energy_score>  (3936) 
-2.007193

>  <inchikey>  (3936) 
XNELRAWUPWDHHU-UHFFFAOYSA-N

>  <smiles>  (3936) 
CON=C(C(=O)N1CCC(C(=O)c2cccnc2)CC1)c1ccco1

>  <ref_pdb>  (3936) 
A0514b

>  <alias>  (3936) 
XNELRAWUPWDHHU-UHFFFAOYSA-N-P87-P87-P135-601504

>  <HIPPO Pose ID>  (3936) 
507422

>  <name>  (3936) 
XNELRAWUPWDHHU-UHFFFAOYSA-N-P87-P87-P135-601504

>  <HIPPO Compound ID>  (3936) 
315378

>  <ref_mols>  (3936) 
A2629a,A0875a

>  <distance_score>  (3936) 
1.97602

>  <inspiration_score>  (3936) 
None

$$$$
BXTAJCLGFPUGLT-UHFFFAOYSA-N-P87-P87-P135-601504
     RDKit          3D

 26 28  0  0  0  0  0  0  0  0999 V2000
   17.7911   13.2572   26.7261 C   0  0  0  0  0  0  0  0  0  0  0  0
   17.2516   12.3821   27.8058 C   0  0  0  0  0  0  0  0  0  0  0  0
   17.7478   12.6998   29.0347 N   0  0  0  0  0  0  0  0  0  0  0  0
   17.3566   11.9950   30.1255 C   0  0  0  0  0  0  0  0  0  0  0  0
   17.9180   12.3428   31.4968 C   0  0  0  0  0  0  0  0  0  0  0  0
   18.5051   13.5702   31.5721 F   0  0  0  0  0  0  0  0  0  0  0  0
   16.9577   12.3355   32.4700 F   0  0  0  0  0  0  0  0  0  0  0  0
   18.8610   11.4487   31.9152 F   0  0  0  0  0  0  0  0  0  0  0  0
   16.4695   10.9413   30.0007 C   0  0  0  0  0  0  0  0  0  0  0  0
   15.9778   10.6218   28.7354 C   0  0  0  0  0  0  0  0  0  0  0  0
   16.3566   11.3286   27.5844 C   0  0  0  0  0  0  0  0  0  0  0  0
   15.7598   10.9496   26.2399 C   0  0  0  0  0  0  0  0  0  0  0  0
   14.3705   11.5505   25.8803 C   0  0  0  0  0  0  0  0  0  0  0  0
   13.8090   12.5137   26.8930 C   0  0  0  0  0  0  0  0  0  0  0  0
   12.4676   13.1294   26.4764 C   0  0  0  0  0  0  0  0  0  0  0  0
   12.1661   13.1941   25.0753 N   0  0  0  0  0  0  0  0  0  0  0  0
   10.8761   13.5307   24.6793 C   0  0  0  0  0  0  0  0  0  0  0  0
   10.4143   14.6280   24.4538 O   0  0  0  0  0  0  0  0  0  0  0  0
   10.0362   12.3242   24.5026 C   0  0  0  0  0  0  0  0  0  0  0  0
    9.4195   11.6736   25.4404 N   0  0  0  0  0  0  0  0  0  0  0  0
    9.2390   10.3742   24.8718 O   0  0  0  0  0  0  0  0  0  0  0  0
   10.2620   10.3111   23.8590 C   0  0  1  0  0  0  0  0  0  0  0  0
   10.1121    9.1763   22.9104 C   0  0  0  0  0  0  0  0  0  0  0  0
   10.0789   11.6470   23.2098 C   0  0  0  0  0  0  0  0  0  0  0  0
   13.1589   12.9215   24.0825 C   0  0  0  0  0  0  0  0  0  0  0  0
   14.4395   12.2354   24.5585 C   0  0  0  0  0  0  0  0  0  0  0  0
  1  2  1  0
  2  3  2  0
  3  4  1  0
  4  5  1  0
  5  6  1  0
  5  7  1  0
  5  8  1  0
  4  9  2  0
  9 10  1  0
 10 11  2  0
 11 12  1  0
 12 13  1  0
 13 14  1  0
 14 15  1  0
 15 16  1  0
 16 17  1  0
 17 18  2  0
 17 19  1  0
 19 20  2  0
 20 21  1  0
 21 22  1  0
 22 23  1  6
 22 24  1  0
 16 25  1  0
 25 26  1  0
 11  2  1  0
 26 13  1  0
 24 19  1  0
M  END
>  <energy_score>  (3937) 
-4.678612

>  <inchikey>  (3937) 
BXTAJCLGFPUGLT-UHFFFAOYSA-N

>  <smiles>  (3937) 
Cc1nc(C(F)(F)F)ccc1CC1CCN(C(=O)C2=NOC(C)C2)CC1

>  <ref_pdb>  (3937) 
A0514b

>  <alias>  (3937) 
BXTAJCLGFPUGLT-UHFFFAOYSA-N-P87-P87-P135-601504

>  <HIPPO Pose ID>  (3937) 
507424

>  <name>  (3937) 
BXTAJCLGFPUGLT-UHFFFAOYSA-N-P87-P87-P135-601504

>  <HIPPO Compound ID>  (3937) 
315379

>  <ref_mols>  (3937) 
A2629a,A0875a

>  <distance_score>  (3937) 
1.841448

>  <inspiration_score>  (3937) 
None

$$$$
QNBLHGAVWOTQJV-UHFFFAOYSA-N-P87-P87-P135-601504
     RDKit          3D

 27 30  0  0  0  0  0  0  0  0999 V2000
   10.5197   14.7804   24.7297 O   0  0  0  0  0  0  0  0  0  0  0  0
   10.9137   13.6717   25.0258 C   0  0  0  0  0  0  0  0  0  0  0  0
    9.9215   12.5976   25.0269 C   0  0  0  0  0  0  0  0  0  0  0  0
    9.9065   11.6473   25.8854 N   0  0  0  0  0  0  0  0  0  0  0  0
    8.9579   10.7376   25.4494 O   0  0  0  0  0  0  0  0  0  0  0  0
    8.7998   11.0197   24.0826 C   0  0  2  0  0  0  0  0  0  0  0  0
    9.8729   10.3641   23.2511 C   0  0  0  0  0  0  0  0  0  0  0  0
   10.4130   11.3969   22.4209 O   0  0  0  0  0  0  0  0  0  0  0  0
    9.7821   12.6718   22.6643 C   0  0  0  0  0  0  0  0  0  0  0  0
    8.9993   12.4909   23.9154 C   0  0  2  0  0  0  0  0  0  0  0  0
   12.1852   13.2274   25.2810 N   0  0  0  0  0  0  0  0  0  0  0  0
   12.6979   13.2666   26.6214 C   0  0  0  0  0  0  0  0  0  0  0  0
   13.9669   12.4355   26.9227 C   0  0  0  0  0  0  0  0  0  0  0  0
   14.8009   12.0492   25.7011 C   0  0  0  0  0  0  0  0  0  0  0  0
   15.8407   10.9424   25.9129 C   0  0  0  0  0  0  0  0  0  0  0  0
   16.9451   11.2209   26.8876 C   0  0  0  0  0  0  0  0  0  0  0  0
   17.4241   12.4959   27.1916 C   0  0  0  0  0  0  0  0  0  0  0  0
   18.4872   12.6525   28.0819 C   0  0  0  0  0  0  0  0  0  0  0  0
   19.0740   11.5241   28.6535 C   0  0  0  0  0  0  0  0  0  0  0  0
   20.2203   11.7103   29.6395 C   0  0  0  0  0  0  0  0  0  0  0  0
   19.8003   12.2363   30.8282 F   0  0  0  0  0  0  0  0  0  0  0  0
   21.1728   12.5746   29.1790 F   0  0  0  0  0  0  0  0  0  0  0  0
   20.8850   10.5630   29.9549 F   0  0  0  0  0  0  0  0  0  0  0  0
   18.6300   10.2699   28.3629 N   0  0  0  0  0  0  0  0  0  0  0  0
   17.6046   10.1513   27.4906 C   0  0  0  0  0  0  0  0  0  0  0  0
   13.8427   11.5784   24.6425 C   0  0  0  0  0  0  0  0  0  0  0  0
   12.9789   12.7313   24.1989 C   0  0  0  0  0  0  0  0  0  0  0  0
  1  2  2  0
  2  3  1  0
  3  4  2  0
  4  5  1  0
  5  6  1  0
  6  7  1  6
  7  8  1  0
  8  9  1  0
 10  9  1  6
  2 11  1  0
 11 12  1  0
 12 13  1  0
 13 14  1  0
 14 15  1  0
 15 16  1  0
 16 17  2  0
 17 18  1  0
 18 19  2  0
 19 20  1  0
 20 21  1  0
 20 22  1  0
 20 23  1  0
 19 24  1  0
 24 25  2  0
 14 26  1  0
 26 27  1  0
 10  3  1  0
 27 11  1  0
 10  6  1  0
 25 16  1  0
M  END
>  <energy_score>  (3938) 
-4.603015

>  <inchikey>  (3938) 
QNBLHGAVWOTQJV-UHFFFAOYSA-N

>  <smiles>  (3938) 
O=C(C1=NOC2COCC12)N1CCC(Cc2ccc(C(F)(F)F)nc2)CC1

>  <ref_pdb>  (3938) 
A0514b

>  <alias>  (3938) 
QNBLHGAVWOTQJV-UHFFFAOYSA-N-P87-P87-P135-601504

>  <HIPPO Pose ID>  (3938) 
507434

>  <name>  (3938) 
QNBLHGAVWOTQJV-UHFFFAOYSA-N-P87-P87-P135-601504

>  <HIPPO Compound ID>  (3938) 
315384

>  <ref_mols>  (3938) 
A2629a,A0875a

>  <distance_score>  (3938) 
1.928339

>  <inspiration_score>  (3938) 
None

$$$$
HZDBIOKZFZWHAA-UHFFFAOYSA-N-P87-P87-P135-601504
     RDKit          3D

 27 30  0  0  0  0  0  0  0  0999 V2000
   10.6066   15.0723   24.3326 O   0  0  0  0  0  0  0  0  0  0  0  0
   10.8029   13.8880   24.5331 C   0  0  0  0  0  0  0  0  0  0  0  0
    9.5929   13.0584   24.3711 C   0  0  0  0  0  0  0  0  0  0  0  0
    8.8998   13.0532   23.2789 N   0  0  0  0  0  0  0  0  0  0  0  0
    7.8335   12.1841   23.5257 O   0  0  0  0  0  0  0  0  0  0  0  0
    8.2022   11.3426   24.6201 C   0  0  1  0  0  0  0  0  0  0  0  0
    8.8303   10.0340   24.1470 C   0  0  0  0  0  0  0  0  0  0  0  0
   10.2078   10.0168   23.5436 C   0  0  0  0  0  0  0  0  0  0  0  0
   10.4493   11.0211   22.5583 O   0  0  0  0  0  0  0  0  0  0  0  0
   11.1991    9.9412   24.6534 C   0  0  0  0  0  0  0  0  0  0  0  0
   11.8648    8.8024   24.1329 O   0  0  0  0  0  0  0  0  0  0  0  0
   10.7668    8.6209   23.1954 C   0  0  0  0  0  0  0  0  0  0  0  0
    9.0619   12.2280   25.4554 C   0  0  0  0  0  0  0  0  0  0  0  0
   11.9907   13.2980   24.9720 N   0  0  0  0  0  0  0  0  0  0  0  0
   12.3305   13.0876   26.3625 C   0  0  0  0  0  0  0  0  0  0  0  0
   13.7042   12.4785   26.7613 C   0  0  0  0  0  0  0  0  0  0  0  0
   14.3851   11.6306   25.7226 C   0  0  0  0  0  0  0  0  0  0  0  0
   13.8130   10.3373   25.6541 O   0  0  0  0  0  0  0  0  0  0  0  0
   15.9112   11.4501   25.9136 C   0  0  0  0  0  0  0  0  0  0  0  0
   16.4094   10.6385   27.0751 C   0  0  0  0  0  0  0  0  0  0  0  0
   17.1535    9.4700   26.8747 C   0  0  0  0  0  0  0  0  0  0  0  0
   17.7155    8.8016   27.9608 C   0  0  0  0  0  0  0  0  0  0  0  0
   17.5058    9.3171   29.2266 C   0  0  0  0  0  0  0  0  0  0  0  0
   16.8023   10.4430   29.4641 N   0  0  0  0  0  0  0  0  0  0  0  0
   16.2896   11.0824   28.3890 C   0  0  0  0  0  0  0  0  0  0  0  0
   14.2022   12.2792   24.4001 C   0  0  0  0  0  0  0  0  0  0  0  0
   12.8897   12.8965   23.9449 C   0  0  0  0  0  0  0  0  0  0  0  0
  1  2  2  0
  2  3  1  0
  3  4  2  0
  4  5  1  0
  5  6  1  0
  6  7  1  6
  7  8  1  0
  8  9  1  0
  8 10  1  0
 10 11  1  0
 11 12  1  0
  6 13  1  0
  2 14  1  0
 14 15  1  0
 15 16  1  0
 16 17  1  0
 17 18  1  0
 17 19  1  0
 19 20  1  0
 20 21  2  0
 21 22  1  0
 22 23  2  0
 23 24  1  0
 24 25  2  0
 17 26  1  0
 26 27  1  0
 13  3  1  0
 27 14  1  0
 12  8  1  0
 25 20  1  0
M  END
>  <energy_score>  (3939) 
-1.574658

>  <inchikey>  (3939) 
HZDBIOKZFZWHAA-UHFFFAOYSA-N

>  <smiles>  (3939) 
O=C(C1=NOC(CC2(O)COC2)C1)N1CCC(O)(Cc2cccnc2)CC1

>  <ref_pdb>  (3939) 
A0514b

>  <alias>  (3939) 
HZDBIOKZFZWHAA-UHFFFAOYSA-N-P87-P87-P135-601504

>  <HIPPO Pose ID>  (3939) 
507436

>  <name>  (3939) 
HZDBIOKZFZWHAA-UHFFFAOYSA-N-P87-P87-P135-601504

>  <HIPPO Compound ID>  (3939) 
315385

>  <ref_mols>  (3939) 
A2629a,A0875a

>  <distance_score>  (3939) 
1.877016

>  <inspiration_score>  (3939) 
None

$$$$
UBZRPYYFJIAMFC-UHFFFAOYSA-N-P87-P87-P135-601504
     RDKit          3D

 28 30  0  0  0  0  0  0  0  0999 V2000
   10.2061    9.6667   24.0530 C   0  0  0  0  0  0  0  0  0  0  0  0
   10.2934   10.8534   24.8235 O   0  0  0  0  0  0  0  0  0  0  0  0
    9.1299   11.5609   24.5968 N   0  0  0  0  0  0  0  0  0  0  0  0
    9.3301   12.8163   24.3238 C   0  0  0  0  0  0  0  0  0  0  0  0
   10.5910   13.6772   24.4757 C   0  0  0  0  0  0  0  0  0  0  0  0
   10.4962   14.8904   24.3434 O   0  0  0  0  0  0  0  0  0  0  0  0
   11.8129   13.1371   24.8611 N   0  0  0  0  0  0  0  0  0  0  0  0
   12.1405   12.9511   26.2491 C   0  0  0  0  0  0  0  0  0  0  0  0
   13.4890   12.2937   26.6043 C   0  0  0  0  0  0  0  0  0  0  0  0
   13.9948   11.3594   25.5419 C   0  0  0  0  0  0  0  0  0  0  0  0
   15.4153   10.7512   25.7578 C   0  0  0  0  0  0  0  0  0  0  0  0
   16.2699   11.3871   26.8176 C   0  0  0  0  0  0  0  0  0  0  0  0
   16.8719   12.6285   26.6343 C   0  0  0  0  0  0  0  0  0  0  0  0
   17.6343   13.2096   27.6469 C   0  0  0  0  0  0  0  0  0  0  0  0
   17.7876   12.5328   28.8534 C   0  0  0  0  0  0  0  0  0  0  0  0
   18.6188   13.1742   29.9571 C   0  0  0  0  0  0  0  0  0  0  0  0
   18.1615   14.4158   30.2981 F   0  0  0  0  0  0  0  0  0  0  0  0
   18.6554   12.4642   31.1203 F   0  0  0  0  0  0  0  0  0  0  0  0
   19.9217   13.3557   29.5916 F   0  0  0  0  0  0  0  0  0  0  0  0
   17.2103   11.3166   29.0579 N   0  0  0  0  0  0  0  0  0  0  0  0
   16.4817   10.7825   28.0509 C   0  0  0  0  0  0  0  0  0  0  0  0
   14.0131   12.1630   24.3022 C   0  0  0  0  0  0  0  0  0  0  0  0
   12.7114   12.7827   23.8203 C   0  0  0  0  0  0  0  0  0  0  0  0
    8.2074   13.5072   23.7652 C   0  0  0  0  0  0  0  0  0  0  0  0
    6.8493   13.3793   23.9649 C   0  0  0  0  0  0  0  0  0  0  0  0
    6.2330   14.3417   23.1336 C   0  0  0  0  0  0  0  0  0  0  0  0
    7.2580   14.9914   22.4946 C   0  0  0  0  0  0  0  0  0  0  0  0
    8.4451   14.4435   22.8099 O   0  0  0  0  0  0  0  0  0  0  0  0
  1  2  1  0
  2  3  1  0
  3  4  2  3
  4  5  1  0
  5  6  2  0
  5  7  1  0
  7  8  1  0
  8  9  1  0
  9 10  1  0
 10 11  1  0
 11 12  1  0
 12 13  2  0
 13 14  1  0
 14 15  2  0
 15 16  1  0
 16 17  1  0
 16 18  1  0
 16 19  1  0
 15 20  1  0
 20 21  2  0
 10 22  1  0
 22 23  1  0
  4 24  1  0
 24 25  2  0
 25 26  1  0
 26 27  2  0
 27 28  1  0
 23  7  1  0
 28 24  1  0
 21 12  1  0
M  END
>  <energy_score>  (3940) 
-28.552803

>  <inchikey>  (3940) 
UBZRPYYFJIAMFC-UHFFFAOYSA-N

>  <smiles>  (3940) 
CON=C(C(=O)N1CCC(Cc2ccc(C(F)(F)F)nc2)CC1)c1ccco1

>  <ref_pdb>  (3940) 
A0514b

>  <alias>  (3940) 
UBZRPYYFJIAMFC-UHFFFAOYSA-N-P87-P87-P135-601504

>  <HIPPO Pose ID>  (3940) 
507444

>  <name>  (3940) 
UBZRPYYFJIAMFC-UHFFFAOYSA-N-P87-P87-P135-601504

>  <HIPPO Compound ID>  (3940) 
315389

>  <ref_mols>  (3940) 
A2629a,A0875a

>  <distance_score>  (3940) 
1.626255

>  <inspiration_score>  (3940) 
None

$$$$
BIVGXAPRTSOBRN-UHFFFAOYSA-N-P441-P124-P441-601504
     RDKit          3D

 26 29  0  0  0  0  0  0  0  0999 V2000
    5.2781   15.0964   29.9652 O   0  0  0  0  0  0  0  0  0  0  0  0
    5.5337   14.7363   28.8287 C   0  0  0  0  0  0  0  0  0  0  0  0
    5.6631   15.6273   27.5872 C   0  0  0  0  0  0  0  0  0  0  0  0
    6.0129   14.6300   26.5203 C   0  0  0  0  0  0  0  0  0  0  0  0
    6.2512   14.8363   25.1688 C   0  0  0  0  0  0  0  0  0  0  0  0
    6.5468   13.7145   24.3878 C   0  0  0  0  0  0  0  0  0  0  0  0
    6.7833   13.8093   22.9108 C   0  0  0  0  0  0  0  0  0  0  0  0
    6.3351   12.9635   22.2543 O   0  0  0  0  0  0  0  0  0  0  0  0
    7.6698   14.9936   22.5305 N   0  0  0  0  0  0  0  0  0  0  0  0
    8.1228   15.4509   21.2355 C   0  0  0  0  0  0  0  0  0  0  0  0
    9.6331   15.4440   20.8813 C   0  0  0  0  0  0  0  0  0  0  0  0
   10.1833   14.0725   20.6357 C   0  0  0  0  0  0  0  0  0  0  0  0
   11.5273   13.7629   21.2752 C   0  0  0  0  0  0  0  0  0  0  0  0
   11.6287   14.1536   22.6761 N   0  0  0  0  0  0  0  0  0  0  0  0
   10.5958   13.6280   23.6011 C   0  0  0  0  0  0  0  0  0  0  0  0
   10.0232   12.2021   23.4103 C   0  0  0  0  0  0  0  0  0  0  0  0
   10.0214   11.3770   24.6852 C   0  0  0  0  0  0  0  0  0  0  0  0
    9.4814   12.1026   25.7901 O   0  0  0  0  0  0  0  0  0  0  0  0
    9.9695   13.4262   25.9575 C   0  0  0  0  0  0  0  0  0  0  0  0
   11.1055   13.7853   25.0314 C   0  0  0  0  0  0  0  0  0  0  0  0
   11.6446   15.6041   22.5592 C   0  0  0  0  0  0  0  0  0  0  0  0
   10.4131   16.1898   21.9103 C   0  0  0  0  0  0  0  0  0  0  0  0
    6.5860   12.4265   24.9815 C   0  0  0  0  0  0  0  0  0  0  0  0
    6.3318   12.2280   26.3404 C   0  0  0  0  0  0  0  0  0  0  0  0
    6.0485   13.3499   27.0797 C   0  0  0  0  0  0  0  0  0  0  0  0
    5.7707   13.4252   28.4334 N   0  0  0  0  0  0  0  0  0  0  0  0
  1  2  2  0
  2  3  1  0
  3  4  1  0
  4  5  2  0
  5  6  1  0
  6  7  1  0
  7  8  2  0
  7  9  1  0
  9 10  1  0
 10 11  1  0
 11 12  1  0
 12 13  1  0
 13 14  1  0
 14 15  1  0
 15 16  1  0
 16 17  1  0
 17 18  1  0
 18 19  1  0
 19 20  1  0
 14 21  1  0
 21 22  1  0
  6 23  2  0
 23 24  1  0
 24 25  2  0
 25 26  1  0
 26  2  1  0
 25  4  1  0
 22 11  1  0
 20 15  1  0
M  END
>  <energy_score>  (3941) 
-17.402538

>  <inchikey>  (3941) 
BIVGXAPRTSOBRN-UHFFFAOYSA-N

>  <smiles>  (3941) 
O=C1Cc2cc(C(=O)NCC3CCN(C4CCOCC4)CC3)ccc2N1

>  <ref_pdb>  (3941) 
A0514b

>  <alias>  (3941) 
BIVGXAPRTSOBRN-UHFFFAOYSA-N-P441-P124-P441-601504

>  <HIPPO Pose ID>  (3941) 
507467

>  <name>  (3941) 
BIVGXAPRTSOBRN-UHFFFAOYSA-N-P441-P124-P441-601504

>  <HIPPO Compound ID>  (3941) 
311593

>  <ref_mols>  (3941) 
A4708a,A1778a

>  <distance_score>  (3941) 
1.854114

>  <inspiration_score>  (3941) 
None

$$$$
PCLPDWOEUDJUAZ-UHFFFAOYSA-N-P441-P124-P441-601504
     RDKit          3D

 27 30  0  0  0  0  0  0  0  0999 V2000
    5.3171   12.3511   29.3582 C   0  0  0  0  0  0  0  0  0  0  0  0
    5.5969   13.4711   28.5033 N   0  0  0  0  0  0  0  0  0  0  0  0
    5.4449   14.8063   28.8890 C   0  0  0  0  0  0  0  0  0  0  0  0
    5.1089   15.2199   29.9878 O   0  0  0  0  0  0  0  0  0  0  0  0
    5.7805   15.6752   27.6742 C   0  0  0  0  0  0  0  0  0  0  0  0
    6.1266   14.6545   26.6310 C   0  0  0  0  0  0  0  0  0  0  0  0
    6.4646   14.8609   25.3005 C   0  0  0  0  0  0  0  0  0  0  0  0
    6.7022   13.7348   24.5074 C   0  0  0  0  0  0  0  0  0  0  0  0
    6.9607   13.8462   23.0330 C   0  0  0  0  0  0  0  0  0  0  0  0
    6.4675   13.0425   22.3501 O   0  0  0  0  0  0  0  0  0  0  0  0
    7.8266   15.0630   22.6731 N   0  0  0  0  0  0  0  0  0  0  0  0
    8.1908   15.6035   21.3928 C   0  0  0  0  0  0  0  0  0  0  0  0
    9.6127   15.5078   20.8178 C   0  0  0  0  0  0  0  0  0  0  0  0
   10.1201   14.1076   20.5864 C   0  0  0  0  0  0  0  0  0  0  0  0
   11.4081   13.7853   21.3372 C   0  0  0  0  0  0  0  0  0  0  0  0
   11.3316   14.1611   22.7270 N   0  0  0  0  0  0  0  0  0  0  0  0
   10.4908   13.3827   23.6334 C   0  0  0  0  0  0  0  0  0  0  0  0
    9.9082   12.0015   23.2776 C   0  0  0  0  0  0  0  0  0  0  0  0
    9.7733   11.0951   24.4922 C   0  0  0  0  0  0  0  0  0  0  0  0
    9.4695   11.8998   25.6301 O   0  0  0  0  0  0  0  0  0  0  0  0
   10.5312   12.7731   25.9820 C   0  0  0  0  0  0  0  0  0  0  0  0
   11.3654   13.2746   24.8495 C   0  0  0  0  0  0  0  0  0  0  0  0
   11.1070   15.5933   22.8477 C   0  0  0  0  0  0  0  0  0  0  0  0
   10.6842   16.2520   21.5545 C   0  0  0  0  0  0  0  0  0  0  0  0
    6.5923   12.4418   25.0728 C   0  0  0  0  0  0  0  0  0  0  0  0
    6.2486   12.2449   26.4144 C   0  0  0  0  0  0  0  0  0  0  0  0
    6.0056   13.3705   27.1709 C   0  0  0  0  0  0  0  0  0  0  0  0
  1  2  1  0
  2  3  1  0
  3  4  2  0
  3  5  1  0
  5  6  1  0
  6  7  2  0
  7  8  1  0
  8  9  1  0
  9 10  2  0
  9 11  1  0
 11 12  1  0
 12 13  1  0
 13 14  1  0
 14 15  1  0
 15 16  1  0
 16 17  1  0
 17 18  1  0
 18 19  1  0
 19 20  1  0
 20 21  1  0
 21 22  1  0
 16 23  1  0
 23 24  1  0
  8 25  2  0
 25 26  1  0
 26 27  2  0
 27  2  1  0
 27  6  1  0
 24 13  1  0
 22 17  1  0
M  END
>  <energy_score>  (3942) 
-8.17574

>  <inchikey>  (3942) 
PCLPDWOEUDJUAZ-UHFFFAOYSA-N

>  <smiles>  (3942) 
CN1C(=O)Cc2cc(C(=O)NCC3CCN(C4CCOCC4)CC3)ccc21

>  <ref_pdb>  (3942) 
A0514b

>  <alias>  (3942) 
PCLPDWOEUDJUAZ-UHFFFAOYSA-N-P441-P124-P441-601504

>  <HIPPO Pose ID>  (3942) 
507473

>  <name>  (3942) 
PCLPDWOEUDJUAZ-UHFFFAOYSA-N-P441-P124-P441-601504

>  <HIPPO Compound ID>  (3942) 
311596

>  <ref_mols>  (3942) 
A4708a,A1778a

>  <distance_score>  (3942) 
1.72165

>  <inspiration_score>  (3942) 
None

$$$$
ZMJZWZLBXFJPQF-UHFFFAOYSA-N-P441-P124-P441-601504
     RDKit          3D

 27 30  0  0  0  0  0  0  0  0999 V2000
    4.5636   15.8588   29.3170 O   0  0  0  0  0  0  0  0  0  0  0  0
    5.0332   15.3747   28.3016 C   0  0  0  0  0  0  0  0  0  0  0  0
    5.2655   16.0834   26.9611 C   0  0  0  0  0  0  0  0  0  0  0  0
    5.8776   14.9887   26.1325 C   0  0  0  0  0  0  0  0  0  0  0  0
    6.2932   15.0201   24.8094 C   0  0  0  0  0  0  0  0  0  0  0  0
    6.8241   13.8456   24.2555 C   0  0  0  0  0  0  0  0  0  0  0  0
    7.1559   13.8279   22.7904 C   0  0  0  0  0  0  0  0  0  0  0  0
    6.6717   12.9837   22.1544 O   0  0  0  0  0  0  0  0  0  0  0  0
    8.0523   15.0024   22.3692 N   0  0  0  0  0  0  0  0  0  0  0  0
    8.4677   15.4442   21.0546 C   0  0  0  0  0  0  0  0  0  0  0  0
    9.9368   15.6155   20.5794 C   0  0  0  0  0  0  0  0  0  0  0  0
   10.7438   14.3812   20.3140 C   0  0  0  0  0  0  0  0  0  0  0  0
   10.9201   13.6047   21.6071 C   0  0  0  0  0  0  0  0  0  0  0  0
   11.3149   14.3227   22.8327 N   0  0  0  0  0  0  0  0  0  0  0  0
   10.6677   13.7236   24.0066 C   0  0  0  0  0  0  0  0  0  0  0  0
   11.0860   14.3820   25.3178 C   0  0  0  0  0  0  0  0  0  0  0  0
   10.1566   13.8821   26.3898 C   0  0  0  0  0  0  0  0  0  0  0  0
    9.7958   12.5240   26.1875 O   0  0  0  0  0  0  0  0  0  0  0  0
   10.7512   11.7489   25.4705 C   0  0  0  0  0  0  0  0  0  0  0  0
   10.9950   12.2644   24.0956 C   0  0  0  0  0  0  0  0  0  0  0  0
   10.9849   15.7248   22.8190 C   0  0  0  0  0  0  0  0  0  0  0  0
   10.8512   16.3739   21.4902 C   0  0  0  0  0  0  0  0  0  0  0  0
    6.9198   12.6781   25.0596 C   0  0  0  0  0  0  0  0  0  0  0  0
    7.7020   11.2433   24.5427 Cl  0  0  0  0  0  0  0  0  0  0  0  0
    6.4679   12.6548   26.3863 C   0  0  0  0  0  0  0  0  0  0  0  0
    5.9549   13.8222   26.8902 C   0  0  0  0  0  0  0  0  0  0  0  0
    5.4650   14.0596   28.1624 N   0  0  0  0  0  0  0  0  0  0  0  0
  1  2  2  0
  2  3  1  0
  3  4  1  0
  4  5  2  0
  5  6  1  0
  6  7  1  0
  7  8  2  0
  7  9  1  0
  9 10  1  0
 10 11  1  0
 11 12  1  0
 12 13  1  0
 13 14  1  0
 14 15  1  0
 15 16  1  0
 16 17  1  0
 17 18  1  0
 18 19  1  0
 19 20  1  0
 14 21  1  0
 21 22  1  0
  6 23  2  0
 23 24  1  0
 23 25  1  0
 25 26  2  0
 26 27  1  0
 27  2  1  0
 26  4  1  0
 22 11  1  0
 20 15  1  0
M  END
>  <energy_score>  (3943) 
-0.685843

>  <inchikey>  (3943) 
ZMJZWZLBXFJPQF-UHFFFAOYSA-N

>  <smiles>  (3943) 
O=C1Cc2cc(C(=O)NCC3CCN(C4CCOCC4)CC3)c(Cl)cc2N1

>  <ref_pdb>  (3943) 
A0514b

>  <alias>  (3943) 
ZMJZWZLBXFJPQF-UHFFFAOYSA-N-P441-P124-P441-601504

>  <HIPPO Pose ID>  (3943) 
507475

>  <name>  (3943) 
ZMJZWZLBXFJPQF-UHFFFAOYSA-N-P441-P124-P441-601504

>  <HIPPO Compound ID>  (3943) 
311597

>  <ref_mols>  (3943) 
A4708a,A1778a

>  <distance_score>  (3943) 
1.887333

>  <inspiration_score>  (3943) 
None

$$$$
WONOMISROJJTNI-UHFFFAOYSA-N-P441-P124-P441-601504
     RDKit          3D

 28 31  0  0  0  0  0  0  0  0999 V2000
    5.5468   11.7058   29.7188 O   0  0  0  0  0  0  0  0  0  0  0  0
    5.6963   12.2692   28.6578 C   0  0  0  0  0  0  0  0  0  0  0  0
    5.8613   13.6139   28.4180 N   0  0  0  0  0  0  0  0  0  0  0  0
    6.0728   13.8549   27.0602 C   0  0  0  0  0  0  0  0  0  0  0  0
    6.3189   15.0637   26.4373 C   0  0  0  0  0  0  0  0  0  0  0  0
    6.3880   16.6709   27.4248 Br  0  0  0  0  0  0  0  0  0  0  0  0
    6.5330   15.0842   25.0505 C   0  0  0  0  0  0  0  0  0  0  0  0
    6.5321   13.8852   24.3097 C   0  0  0  0  0  0  0  0  0  0  0  0
    6.8164   13.8431   22.8310 C   0  0  0  0  0  0  0  0  0  0  0  0
    6.2623   13.0285   22.2144 O   0  0  0  0  0  0  0  0  0  0  0  0
    7.8470   14.8907   22.3940 N   0  0  0  0  0  0  0  0  0  0  0  0
    8.3480   15.2237   21.0803 C   0  0  0  0  0  0  0  0  0  0  0  0
    9.8372   15.5286   20.7768 C   0  0  0  0  0  0  0  0  0  0  0  0
   10.7681   14.4434   20.3134 C   0  0  0  0  0  0  0  0  0  0  0  0
   11.0724   13.4758   21.4584 C   0  0  0  0  0  0  0  0  0  0  0  0
   11.4031   13.9894   22.7863 N   0  0  0  0  0  0  0  0  0  0  0  0
   10.4350   13.5081   23.7850 C   0  0  0  0  0  0  0  0  0  0  0  0
   10.5732   14.2357   25.1115 C   0  0  0  0  0  0  0  0  0  0  0  0
   10.1015   13.3828   26.2504 C   0  0  0  0  0  0  0  0  0  0  0  0
    9.0140   12.5621   25.8642 O   0  0  0  0  0  0  0  0  0  0  0  0
    9.4075   11.5245   24.9589 C   0  0  0  0  0  0  0  0  0  0  0  0
   10.4978   11.9924   24.0197 C   0  0  0  0  0  0  0  0  0  0  0  0
   11.6252   15.4109   22.6399 C   0  0  0  0  0  0  0  0  0  0  0  0
   10.5217   16.1685   21.9393 C   0  0  0  0  0  0  0  0  0  0  0  0
    6.2497   12.6697   24.9590 C   0  0  0  0  0  0  0  0  0  0  0  0
    6.0340   12.6825   26.3216 C   0  0  0  0  0  0  0  0  0  0  0  0
    5.7831   11.5931   27.2653 C   0  0  0  0  0  0  0  0  0  0  0  0
    5.6616   10.4156   27.0363 O   0  0  0  0  0  0  0  0  0  0  0  0
  1  2  2  0
  2  3  1  0
  3  4  1  0
  4  5  2  0
  5  6  1  0
  5  7  1  0
  7  8  2  0
  8  9  1  0
  9 10  2  0
  9 11  1  0
 11 12  1  0
 12 13  1  0
 13 14  1  0
 14 15  1  0
 15 16  1  0
 16 17  1  0
 17 18  1  0
 18 19  1  0
 19 20  1  0
 20 21  1  0
 21 22  1  0
 16 23  1  0
 23 24  1  0
  8 25  1  0
 25 26  2  0
 26 27  1  0
 27 28  2  0
 27  2  1  0
 26  4  1  0
 24 13  1  0
 22 17  1  0
M  END
>  <energy_score>  (3944) 
-15.605199

>  <inchikey>  (3944) 
WONOMISROJJTNI-UHFFFAOYSA-N

>  <smiles>  (3944) 
O=C1Nc2c(Br)cc(C(=O)NCC3CCN(C4CCOCC4)CC3)cc2C1=O

>  <ref_pdb>  (3944) 
A0514b

>  <alias>  (3944) 
WONOMISROJJTNI-UHFFFAOYSA-N-P441-P124-P441-601504

>  <HIPPO Pose ID>  (3944) 
507477

>  <name>  (3944) 
WONOMISROJJTNI-UHFFFAOYSA-N-P441-P124-P441-601504

>  <HIPPO Compound ID>  (3944) 
311598

>  <ref_mols>  (3944) 
A4708a,A1778a

>  <distance_score>  (3944) 
1.827986

>  <inspiration_score>  (3944) 
None

$$$$
ISYFCCZUGGPOTJ-UHFFFAOYSA-N-P441-P124-P441-601504
     RDKit          3D

 30 34  0  0  0  0  0  0  0  0999 V2000
    6.6102   13.2401   21.9812 O   0  0  0  0  0  0  0  0  0  0  0  0
    7.1499   14.0098   22.6727 C   0  0  0  0  0  0  0  0  0  0  0  0
    8.1871   15.1070   22.3339 N   0  0  0  0  0  0  0  0  0  0  0  0
    8.7037   15.5473   21.0601 C   0  0  0  0  0  0  0  0  0  0  0  0
   10.2011   15.6228   20.6870 C   0  0  0  0  0  0  0  0  0  0  0  0
   10.8666   14.3433   20.2952 C   0  0  0  0  0  0  0  0  0  0  0  0
   10.9471   13.4405   21.5142 C   0  0  0  0  0  0  0  0  0  0  0  0
   11.2599   13.9216   22.8414 N   0  0  0  0  0  0  0  0  0  0  0  0
   10.3974   13.3464   23.8757 C   0  0  0  0  0  0  0  0  0  0  0  0
    9.8239   11.9216   23.7084 C   0  0  0  0  0  0  0  0  0  0  0  0
    9.6052   11.2478   25.0412 C   0  0  0  0  0  0  0  0  0  0  0  0
    9.1375   12.1738   26.0252 O   0  0  0  0  0  0  0  0  0  0  0  0
    9.8816   13.3779   26.1872 C   0  0  0  0  0  0  0  0  0  0  0  0
   11.0415   13.4973   25.2389 C   0  0  0  0  0  0  0  0  0  0  0  0
   11.3660   15.3659   22.9298 C   0  0  0  0  0  0  0  0  0  0  0  0
   11.2100   16.1689   21.6627 C   0  0  0  0  0  0  0  0  0  0  0  0
    6.7457   13.9986   24.1232 C   0  0  0  0  0  0  0  0  0  0  0  0
    6.5370   15.1976   24.8451 C   0  0  0  0  0  0  0  0  0  0  0  0
    6.1651   15.1638   26.1980 C   0  0  0  0  0  0  0  0  0  0  0  0
    6.0061   13.9204   26.7779 C   0  0  0  0  0  0  0  0  0  0  0  0
    6.1718   12.7419   26.0790 C   0  0  0  0  0  0  0  0  0  0  0  0
    6.5297   12.7512   24.7484 C   0  0  0  0  0  0  0  0  0  0  0  0
    5.9459   11.6634   27.0427 C   0  0  0  0  0  0  0  0  0  0  0  0
    5.9598   10.4747   26.8396 O   0  0  0  0  0  0  0  0  0  0  0  0
    5.6688   12.3682   28.4072 C   0  0  0  0  0  0  0  0  0  0  0  0
    5.5170   11.8082   29.4712 O   0  0  0  0  0  0  0  0  0  0  0  0
    5.6761   13.7133   28.1130 N   0  0  0  0  0  0  0  0  0  0  0  0
    5.5625   14.8341   29.0200 C   0  0  0  0  0  0  0  0  0  0  0  0
    5.1040   16.0982   28.2817 C   0  0  0  0  0  0  0  0  0  0  0  0
    5.9674   16.3939   27.0409 C   0  0  0  0  0  0  0  0  0  0  0  0
  1  2  2  0
  2  3  1  0
  3  4  1  0
  4  5  1  0
  5  6  1  0
  6  7  1  0
  7  8  1  0
  8  9  1  0
  9 10  1  0
 10 11  1  0
 11 12  1  0
 12 13  1  0
 13 14  1  0
  8 15  1  0
 15 16  1  0
  2 17  1  0
 17 18  2  0
 18 19  1  0
 19 20  2  0
 20 21  1  0
 21 22  2  0
 21 23  1  0
 23 24  2  0
 23 25  1  0
 25 26  2  0
 25 27  1  0
 27 28  1  0
 28 29  1  0
 29 30  1  0
 16  5  1  0
 22 17  1  0
 14  9  1  0
 30 19  1  0
 27 20  1  0
M  END
>  <energy_score>  (3945) 
-0.381805

>  <inchikey>  (3945) 
ISYFCCZUGGPOTJ-UHFFFAOYSA-N

>  <smiles>  (3945) 
O=C(NCC1CCN(C2CCOCC2)CC1)c1cc2c3c(c1)C(=O)C(=O)N3CCC2

>  <ref_pdb>  (3945) 
A0514b

>  <alias>  (3945) 
ISYFCCZUGGPOTJ-UHFFFAOYSA-N-P441-P124-P441-601504

>  <HIPPO Pose ID>  (3945) 
507489

>  <name>  (3945) 
ISYFCCZUGGPOTJ-UHFFFAOYSA-N-P441-P124-P441-601504

>  <HIPPO Compound ID>  (3945) 
311604

>  <ref_mols>  (3945) 
A4708a,A1778a

>  <distance_score>  (3945) 
1.788335

>  <inspiration_score>  (3945) 
None

$$$$
XPXDDSZVOFQMIM-UHFFFAOYSA-N-P271-P28-P271-601504
     RDKit          3D

 30 31  0  0  0  0  0  0  0  0999 V2000
   15.7206   11.4817   25.4143 C   0  0  0  0  0  0  0  0  0  0  0  0
   14.9167   12.6276   26.0260 C   0  0  0  0  0  0  0  0  0  0  0  0
   14.5131   12.2634   27.4528 C   0  0  0  0  0  0  0  0  0  0  0  0
   15.8316   13.8256   26.1513 C   0  0  0  0  0  0  0  0  0  0  0  0
   13.8131   12.9210   25.1020 O   0  0  0  0  0  0  0  0  0  0  0  0
   13.0538   14.0587   25.2495 C   0  0  0  0  0  0  0  0  0  0  0  0
   13.0569   14.6845   26.2303 O   0  0  0  0  0  0  0  0  0  0  0  0
   12.3661   14.3232   23.9025 N   0  0  0  0  0  0  0  0  0  0  0  0
   11.4409   15.3866   23.4977 C   0  0  2  0  0  0  0  0  0  0  0  0
   10.2350   15.4433   24.4666 C   0  0  0  0  0  0  0  0  0  0  0  0
    9.3903   14.2745   24.5262 N   0  0  0  0  0  0  0  0  0  0  0  0
    9.7443   12.7811   24.4409 C   0  0  0  0  0  0  0  0  0  0  0  0
   10.7629   12.2578   24.2323 O   0  0  0  0  0  0  0  0  0  0  0  0
    8.5971   11.9473   24.7505 C   0  0  0  0  0  0  0  0  0  0  0  0
    8.5714   10.5393   24.6817 C   0  0  0  0  0  0  0  0  0  0  0  0
    7.4772   10.0222   25.2349 N   0  0  0  0  0  0  0  0  0  0  0  0
    6.7748   11.0995   25.6346 N   0  0  0  0  0  0  0  0  0  0  0  0
    5.5998   10.9264   26.4831 C   0  0  1  0  0  0  0  0  0  0  0  0
    5.3021    9.4594   26.7973 C   0  0  0  0  0  0  0  0  0  0  0  0
    4.3132    9.2996   27.9326 C   0  0  0  0  0  0  0  0  0  0  0  0
    4.9043    9.9317   29.1539 C   0  0  0  0  0  0  0  0  0  0  0  0
    4.5950    9.5986   30.2899 O   0  0  0  0  0  0  0  0  0  0  0  0
    5.7367   10.9962   28.9381 N   0  0  0  0  0  0  0  0  0  0  0  0
    5.7913   11.6972   27.7642 C   0  0  0  0  0  0  0  0  0  0  0  0
    5.9485   12.9148   27.7816 O   0  0  0  0  0  0  0  0  0  0  0  0
    7.3562   12.2797   25.2517 C   0  0  0  0  0  0  0  0  0  0  0  0
   11.0760   15.4700   21.9625 C   0  0  0  0  0  0  0  0  0  0  0  0
   10.0387   14.4388   21.5221 C   0  0  0  0  0  0  0  0  0  0  0  0
   10.4995   16.8507   21.6102 C   0  0  0  0  0  0  0  0  0  0  0  0
   12.3070   15.2863   21.0794 C   0  0  0  0  0  0  0  0  0  0  0  0
  1  2  1  0
  2  3  1  0
  2  4  1  0
  2  5  1  0
  5  6  1  0
  6  7  2  0
  6  8  1  0
  8  9  1  0
  9 10  1  1
 10 11  1  0
 11 12  1  0
 12 13  2  0
 12 14  1  0
 14 15  1  0
 15 16  2  0
 16 17  1  0
 18 17  1  6
 18 19  1  0
 19 20  1  0
 20 21  1  0
 21 22  2  0
 21 23  1  0
 23 24  1  0
 24 25  2  0
 17 26  1  0
  9 27  1  0
 27 28  1  0
 27 29  1  0
 27 30  1  0
 26 14  2  0
 24 18  1  0
M  END
>  <energy_score>  (3946) 
-37.107684

>  <inchikey>  (3946) 
XPXDDSZVOFQMIM-UHFFFAOYSA-N

>  <smiles>  (3946) 
CC(C)(C)OC(=O)NC(CNC(=O)c1cnn(C2CCC(=O)NC2=O)c1)C(C)(C)C

>  <ref_pdb>  (3946) 
A0514b

>  <alias>  (3946) 
XPXDDSZVOFQMIM-UHFFFAOYSA-N-P271-P28-P271-601504

>  <HIPPO Pose ID>  (3946) 
507503

>  <name>  (3946) 
XPXDDSZVOFQMIM-UHFFFAOYSA-N-P271-P28-P271-601504

>  <HIPPO Compound ID>  (3946) 
311572

>  <ref_mols>  (3946) 
A0556a,A4020b

>  <distance_score>  (3946) 
1.832292

>  <inspiration_score>  (3946) 
None

$$$$
ZYWOPNRQCFMFDF-UHFFFAOYSA-N-P271-P28-P271-601504
     RDKit          3D

 31 32  0  0  0  0  0  0  0  0999 V2000
   10.2366   15.7150   20.0139 C   0  0  0  0  0  0  0  0  0  0  0  0
   10.2112   15.6330   21.5463 C   0  0  0  0  0  0  0  0  0  0  0  0
   11.5763   15.2696   22.2052 C   0  0  0  0  0  0  0  0  0  0  0  0
   12.6019   16.3104   21.7541 C   0  0  0  0  0  0  0  0  0  0  0  0
   11.9163   13.8715   21.6908 C   0  0  0  0  0  0  0  0  0  0  0  0
   11.5428   15.1085   23.7758 C   0  0  2  0  0  0  0  0  0  0  0  0
   10.8195   16.2094   24.5631 C   0  0  0  0  0  0  0  0  0  0  0  0
    9.6988   15.6292   25.2564 N   0  0  0  0  0  0  0  0  0  0  0  0
    8.2737   15.3300   24.7726 C   0  0  0  0  0  0  0  0  0  0  0  0
    7.7543   15.5741   23.7616 O   0  0  0  0  0  0  0  0  0  0  0  0
    7.5702   14.5343   25.7670 C   0  0  0  0  0  0  0  0  0  0  0  0
    7.6200   14.5417   27.1746 C   0  0  0  0  0  0  0  0  0  0  0  0
    6.8411   13.6077   27.7249 N   0  0  0  0  0  0  0  0  0  0  0  0
    6.2467   13.0181   26.6618 N   0  0  0  0  0  0  0  0  0  0  0  0
    5.2449   11.9758   26.8653 C   0  0  2  0  0  0  0  0  0  0  0  0
    4.5429   12.0849   28.2281 C   0  0  0  0  0  0  0  0  0  0  0  0
    3.6746   10.8699   28.4923 C   0  0  0  0  0  0  0  0  0  0  0  0
    4.5454    9.6505   28.4082 C   0  0  0  0  0  0  0  0  0  0  0  0
    4.6819    8.8663   29.3368 O   0  0  0  0  0  0  0  0  0  0  0  0
    5.2247    9.5264   27.2297 N   0  0  0  0  0  0  0  0  0  0  0  0
    5.8722   10.6007   26.6661 C   0  0  0  0  0  0  0  0  0  0  0  0
    6.9019   10.4113   26.0250 O   0  0  0  0  0  0  0  0  0  0  0  0
    6.6560   13.5414   25.4721 C   0  0  0  0  0  0  0  0  0  0  0  0
   12.8661   14.8286   24.3647 N   0  0  0  0  0  0  0  0  0  0  0  0
   13.2456   14.3204   25.7466 C   0  0  0  0  0  0  0  0  0  0  0  0
   12.5885   14.1106   26.6750 O   0  0  0  0  0  0  0  0  0  0  0  0
   14.5962   14.0965   25.7092 O   0  0  0  0  0  0  0  0  0  0  0  0
   15.2781   13.0794   26.5214 C   0  0  0  0  0  0  0  0  0  0  0  0
   15.3612   11.8384   25.6295 C   0  0  0  0  0  0  0  0  0  0  0  0
   16.6961   13.5576   26.8480 C   0  0  0  0  0  0  0  0  0  0  0  0
   14.6402   12.7266   27.8615 C   0  0  0  0  0  0  0  0  0  0  0  0
  1  2  1  0
  2  3  1  0
  3  4  1  0
  3  5  1  0
  3  6  1  0
  6  7  1  1
  7  8  1  0
  8  9  1  0
  9 10  2  0
  9 11  1  0
 11 12  1  0
 12 13  2  0
 13 14  1  0
 15 14  1  1
 15 16  1  0
 16 17  1  0
 17 18  1  0
 18 19  2  0
 18 20  1  0
 20 21  1  0
 21 22  2  0
 14 23  1  0
  6 24  1  0
 24 25  1  0
 25 26  2  0
 25 27  1  0
 27 28  1  0
 28 29  1  0
 28 30  1  0
 28 31  1  0
 23 11  2  0
 21 15  1  0
M  END
>  <energy_score>  (3947) 
-46.395611

>  <inchikey>  (3947) 
ZYWOPNRQCFMFDF-UHFFFAOYSA-N

>  <smiles>  (3947) 
CCC(C)(C)C(CNC(=O)c1cnn(C2CCC(=O)NC2=O)c1)NC(=O)OC(C)(C)C

>  <ref_pdb>  (3947) 
A0514b

>  <alias>  (3947) 
ZYWOPNRQCFMFDF-UHFFFAOYSA-N-P271-P28-P271-601504

>  <HIPPO Pose ID>  (3947) 
507511

>  <name>  (3947) 
ZYWOPNRQCFMFDF-UHFFFAOYSA-N-P271-P28-P271-601504

>  <HIPPO Compound ID>  (3947) 
311576

>  <ref_mols>  (3947) 
A0556a,A4020b

>  <distance_score>  (3947) 
1.863434

>  <inspiration_score>  (3947) 
None

$$$$
JHWZQXJDFDOKGL-UHFFFAOYSA-N-P9-P9-P76-601504
     RDKit          3D

 25 28  0  0  0  0  0  0  0  0999 V2000
    8.6543   11.8994    1.2887 C   0  0  0  0  0  0  0  0  0  0  0  0
    8.9385   13.2525    1.7017 N   0  0  0  0  0  0  0  0  0  0  0  0
    8.2766   13.9765    2.6415 C   0  0  0  0  0  0  0  0  0  0  0  0
    8.9380   15.1812    2.7190 C   0  0  0  0  0  0  0  0  0  0  0  0
   10.0139   15.0956    1.7904 C   0  0  0  0  0  0  0  0  0  0  0  0
   11.1122   16.0434    1.5185 C   0  0  0  0  0  0  0  0  0  0  0  0
   11.8823   15.9103    0.3459 C   0  0  0  0  0  0  0  0  0  0  0  0
   13.0030   16.7249    0.0830 C   0  0  0  0  0  0  0  0  0  0  0  0
   13.4201   17.6940    1.0008 C   0  0  0  0  0  0  0  0  0  0  0  0
   14.6253   18.6055    0.7454 C   0  0  0  0  0  0  0  0  0  0  0  0
   15.7785   17.9614    0.0893 N   0  0  0  0  0  0  0  0  0  0  0  0
   17.1085   18.3314    0.6371 C   0  0  0  0  0  0  0  0  0  0  0  0
   17.6537   17.2648    1.5833 C   0  0  0  0  0  0  0  0  0  0  0  0
   16.7859   16.8176    2.5853 C   0  0  0  0  0  0  0  0  0  0  0  0
   17.0084   15.6293    3.2576 C   0  0  0  0  0  0  0  0  0  0  0  0
   18.1743   14.9199    2.9793 C   0  0  0  0  0  0  0  0  0  0  0  0
   18.6648   13.6707    3.3696 C   0  0  0  0  0  0  0  0  0  0  0  0
   19.8770   13.4232    2.8921 N   0  0  0  0  0  0  0  0  0  0  0  0
   20.2062   14.5718    2.2617 N   0  0  0  0  0  0  0  0  0  0  0  0
   21.5811   14.7374    1.8582 C   0  0  0  0  0  0  0  0  0  0  0  0
   19.1544   15.4593    2.1488 C   0  0  0  0  0  0  0  0  0  0  0  0
   18.9204   16.6466    1.4208 C   0  0  0  0  0  0  0  0  0  0  0  0
   12.6311   17.8554    2.1583 C   0  0  0  0  0  0  0  0  0  0  0  0
   11.4976   17.0461    2.4149 C   0  0  0  0  0  0  0  0  0  0  0  0
    9.9753   13.9091    1.1594 N   0  0  0  0  0  0  0  0  0  0  0  0
  1  2  1  0
  2  3  1  0
  3  4  2  0
  4  5  1  0
  5  6  1  0
  6  7  2  0
  7  8  1  0
  8  9  2  0
  9 10  1  0
 10 11  1  0
 11 12  1  0
 12 13  1  0
 13 14  2  0
 14 15  1  0
 15 16  2  0
 16 17  1  0
 17 18  2  0
 18 19  1  0
 19 20  1  0
 19 21  1  0
 21 22  2  0
  9 23  1  0
 23 24  2  0
  5 25  2  0
 25  2  1  0
 24  6  1  0
 22 13  1  0
 21 16  1  0
M  END
>  <energy_score>  (3948) 
-7.950771

>  <inchikey>  (3948) 
JHWZQXJDFDOKGL-UHFFFAOYSA-N

>  <smiles>  (3948) 
Cn1ccc(-c2ccc(CNCc3ccc4cnn(C)c4c3)cc2)n1

>  <ref_pdb>  (3948) 
A0514b

>  <alias>  (3948) 
JHWZQXJDFDOKGL-UHFFFAOYSA-N-P9-P9-P76-601504

>  <HIPPO Pose ID>  (3948) 
507514

>  <name>  (3948) 
JHWZQXJDFDOKGL-UHFFFAOYSA-N-P9-P9-P76-601504

>  <HIPPO Compound ID>  (3948) 
289721

>  <ref_mols>  (3948) 
A0486a,A0717a

>  <distance_score>  (3948) 
1.84598

>  <inspiration_score>  (3948) 
None

$$$$
JHWZQXJDFDOKGL-UHFFFAOYSA-N-P76-P9-P76-601504
     RDKit          3D

 25 28  0  0  0  0  0  0  0  0999 V2000
    8.6773   11.8721    1.3335 C   0  0  0  0  0  0  0  0  0  0  0  0
    8.9705   13.2104    1.7853 N   0  0  0  0  0  0  0  0  0  0  0  0
    8.3473   13.8914    2.7817 C   0  0  0  0  0  0  0  0  0  0  0  0
    9.0162   15.0896    2.8891 C   0  0  0  0  0  0  0  0  0  0  0  0
   10.0531   15.0460    1.9145 C   0  0  0  0  0  0  0  0  0  0  0  0
   11.1491   15.9987    1.6500 C   0  0  0  0  0  0  0  0  0  0  0  0
   11.9132   15.8822    0.4717 C   0  0  0  0  0  0  0  0  0  0  0  0
   13.0372   16.6944    0.2187 C   0  0  0  0  0  0  0  0  0  0  0  0
   13.4635   17.6445    1.1518 C   0  0  0  0  0  0  0  0  0  0  0  0
   14.6764   18.5477    0.9078 C   0  0  0  0  0  0  0  0  0  0  0  0
   15.8246   17.8965    0.2504 N   0  0  0  0  0  0  0  0  0  0  0  0
   17.1555   18.2443    0.8081 C   0  0  0  0  0  0  0  0  0  0  0  0
   17.6817   17.1630    1.7474 C   0  0  0  0  0  0  0  0  0  0  0  0
   16.8091   16.7230    2.7487 C   0  0  0  0  0  0  0  0  0  0  0  0
   17.0182   15.5307    3.4218 C   0  0  0  0  0  0  0  0  0  0  0  0
   18.1736   14.8043    3.1412 C   0  0  0  0  0  0  0  0  0  0  0  0
   18.6454   13.5415    3.5209 C   0  0  0  0  0  0  0  0  0  0  0  0
   19.8616   13.2910    3.0524 N   0  0  0  0  0  0  0  0  0  0  0  0
   20.1964   14.4320    2.4099 N   0  0  0  0  0  0  0  0  0  0  0  0
   21.5653   14.5784    1.9785 C   0  0  0  0  0  0  0  0  0  0  0  0
   19.1566   15.3341    2.3072 C   0  0  0  0  0  0  0  0  0  0  0  0
   18.9376   16.5263    1.5811 C   0  0  0  0  0  0  0  0  0  0  0  0
   12.6789   17.7930    2.3137 C   0  0  0  0  0  0  0  0  0  0  0  0
   11.5420   16.9860    2.5605 C   0  0  0  0  0  0  0  0  0  0  0  0
    9.9775   13.8952    1.2229 N   0  0  0  0  0  0  0  0  0  0  0  0
  1  2  1  0
  2  3  1  0
  3  4  2  0
  4  5  1  0
  5  6  1  0
  6  7  2  0
  7  8  1  0
  8  9  2  0
  9 10  1  0
 10 11  1  0
 11 12  1  0
 12 13  1  0
 13 14  2  0
 14 15  1  0
 15 16  2  0
 16 17  1  0
 17 18  2  0
 18 19  1  0
 19 20  1  0
 19 21  1  0
 21 22  2  0
  9 23  1  0
 23 24  2  0
  5 25  2  0
 25  2  1  0
 24  6  1  0
 22 13  1  0
 21 16  1  0
M  END
>  <energy_score>  (3949) 
-8.56969

>  <inchikey>  (3949) 
JHWZQXJDFDOKGL-UHFFFAOYSA-N

>  <smiles>  (3949) 
Cn1ccc(-c2ccc(CNCc3ccc4cnn(C)c4c3)cc2)n1

>  <ref_pdb>  (3949) 
A0514b

>  <alias>  (3949) 
JHWZQXJDFDOKGL-UHFFFAOYSA-N-P76-P9-P76-601504

>  <HIPPO Pose ID>  (3949) 
507515

>  <name>  (3949) 
JHWZQXJDFDOKGL-UHFFFAOYSA-N-P76-P9-P76-601504

>  <HIPPO Compound ID>  (3949) 
289721

>  <ref_mols>  (3949) 
A0486a,A0717a

>  <distance_score>  (3949) 
1.810015

>  <inspiration_score>  (3949) 
None

$$$$
FZTBOFTVYHFFBT-UHFFFAOYSA-N-P9-P9-P76-601504
     RDKit          3D

 25 28  0  0  0  0  0  0  0  0999 V2000
   10.4196   13.5441   -0.3098 C   0  0  0  0  0  0  0  0  0  0  0  0
    9.7605   13.9295    0.9183 N   0  0  0  0  0  0  0  0  0  0  0  0
    8.7522   13.1601    1.3640 N   0  0  0  0  0  0  0  0  0  0  0  0
    8.3096   13.8031    2.4417 C   0  0  0  0  0  0  0  0  0  0  0  0
    9.0284   14.9897    2.6813 C   0  0  0  0  0  0  0  0  0  0  0  0
   10.0316   15.0168    1.7256 C   0  0  0  0  0  0  0  0  0  0  0  0
   11.1782   15.9149    1.5334 C   0  0  0  0  0  0  0  0  0  0  0  0
   12.4780   15.3878    1.4292 C   0  0  0  0  0  0  0  0  0  0  0  0
   13.5906   16.2045    1.1515 C   0  0  0  0  0  0  0  0  0  0  0  0
   13.4507   17.5860    0.9745 C   0  0  0  0  0  0  0  0  0  0  0  0
   14.6471   18.5131    0.7465 C   0  0  0  0  0  0  0  0  0  0  0  0
   15.8063   17.8763    0.0951 N   0  0  0  0  0  0  0  0  0  0  0  0
   17.1314   18.3057    0.6031 C   0  0  0  0  0  0  0  0  0  0  0  0
   17.7057   17.2732    1.5674 C   0  0  0  0  0  0  0  0  0  0  0  0
   16.8784   16.8878    2.6267 C   0  0  0  0  0  0  0  0  0  0  0  0
   17.0840   15.7027    3.3096 C   0  0  0  0  0  0  0  0  0  0  0  0
   18.2090   14.9452    2.9944 C   0  0  0  0  0  0  0  0  0  0  0  0
   18.6707   13.6832    3.3801 C   0  0  0  0  0  0  0  0  0  0  0  0
   19.8602   13.3946    2.8690 N   0  0  0  0  0  0  0  0  0  0  0  0
   20.2066   14.5307    2.2246 N   0  0  0  0  0  0  0  0  0  0  0  0
   21.5808   14.6676    1.8088 C   0  0  0  0  0  0  0  0  0  0  0  0
   19.1746   15.4408    2.1213 C   0  0  0  0  0  0  0  0  0  0  0  0
   18.9466   16.6156    1.3717 C   0  0  0  0  0  0  0  0  0  0  0  0
   12.1544   18.1181    1.1213 C   0  0  0  0  0  0  0  0  0  0  0  0
   11.0354   17.2969    1.3936 C   0  0  0  0  0  0  0  0  0  0  0  0
  1  2  1  0
  2  3  1  0
  3  4  2  0
  4  5  1  0
  5  6  2  0
  6  7  1  0
  7  8  2  0
  8  9  1  0
  9 10  2  0
 10 11  1  0
 11 12  1  0
 12 13  1  0
 13 14  1  0
 14 15  2  0
 15 16  1  0
 16 17  2  0
 17 18  1  0
 18 19  2  0
 19 20  1  0
 20 21  1  0
 20 22  1  0
 22 23  2  0
 10 24  1  0
 24 25  2  0
  6  2  1  0
 25  7  1  0
 23 14  1  0
 22 17  1  0
M  END
>  <energy_score>  (3950) 
-10.925156

>  <inchikey>  (3950) 
FZTBOFTVYHFFBT-UHFFFAOYSA-N

>  <smiles>  (3950) 
Cn1nccc1-c1ccc(CNCc2ccc3cnn(C)c3c2)cc1

>  <ref_pdb>  (3950) 
A0514b

>  <alias>  (3950) 
FZTBOFTVYHFFBT-UHFFFAOYSA-N-P9-P9-P76-601504

>  <HIPPO Pose ID>  (3950) 
507516

>  <name>  (3950) 
FZTBOFTVYHFFBT-UHFFFAOYSA-N-P9-P9-P76-601504

>  <HIPPO Compound ID>  (3950) 
289722

>  <ref_mols>  (3950) 
A0486a,A0717a

>  <distance_score>  (3950) 
1.791533

>  <inspiration_score>  (3950) 
None

$$$$
FZTBOFTVYHFFBT-UHFFFAOYSA-N-P76-P9-P76-601504
     RDKit          3D

 25 28  0  0  0  0  0  0  0  0999 V2000
   10.3461   13.6603   -0.2997 C   0  0  0  0  0  0  0  0  0  0  0  0
    9.7415   13.9618    0.9787 N   0  0  0  0  0  0  0  0  0  0  0  0
    8.7417   13.1726    1.4100 N   0  0  0  0  0  0  0  0  0  0  0  0
    8.3638   13.7331    2.5567 C   0  0  0  0  0  0  0  0  0  0  0  0
    9.1096   14.8902    2.8515 C   0  0  0  0  0  0  0  0  0  0  0  0
   10.0628   14.9829    1.8506 C   0  0  0  0  0  0  0  0  0  0  0  0
   11.2143   15.8765    1.6751 C   0  0  0  0  0  0  0  0  0  0  0  0
   12.5036   15.3383    1.5146 C   0  0  0  0  0  0  0  0  0  0  0  0
   13.6215   16.1537    1.2575 C   0  0  0  0  0  0  0  0  0  0  0  0
   13.4961   17.5439    1.1544 C   0  0  0  0  0  0  0  0  0  0  0  0
   14.6977   18.4676    0.9438 C   0  0  0  0  0  0  0  0  0  0  0  0
   15.8512   17.8384    0.2748 N   0  0  0  0  0  0  0  0  0  0  0  0
   17.1784   18.2346    0.8011 C   0  0  0  0  0  0  0  0  0  0  0  0
   17.7312   17.1753    1.7475 C   0  0  0  0  0  0  0  0  0  0  0  0
   16.8982   16.7831    2.8001 C   0  0  0  0  0  0  0  0  0  0  0  0
   17.0949   15.5910    3.4766 C   0  0  0  0  0  0  0  0  0  0  0  0
   18.2132   14.8252    3.1572 C   0  0  0  0  0  0  0  0  0  0  0  0
   18.6614   13.5513    3.5279 C   0  0  0  0  0  0  0  0  0  0  0  0
   19.8572   13.2677    3.0265 N   0  0  0  0  0  0  0  0  0  0  0  0
   20.2036   14.3999    2.3743 N   0  0  0  0  0  0  0  0  0  0  0  0
   21.5704   14.5242    1.9304 C   0  0  0  0  0  0  0  0  0  0  0  0
   19.1804   15.3209    2.2852 C   0  0  0  0  0  0  0  0  0  0  0  0
   18.9636   16.5052    1.5455 C   0  0  0  0  0  0  0  0  0  0  0  0
   12.2104   18.0845    1.3556 C   0  0  0  0  0  0  0  0  0  0  0  0
   11.0865   17.2651    1.6104 C   0  0  0  0  0  0  0  0  0  0  0  0
  1  2  1  0
  2  3  1  0
  3  4  2  0
  4  5  1  0
  5  6  2  0
  6  7  1  0
  7  8  2  0
  8  9  1  0
  9 10  2  0
 10 11  1  0
 11 12  1  0
 12 13  1  0
 13 14  1  0
 14 15  2  0
 15 16  1  0
 16 17  2  0
 17 18  1  0
 18 19  2  0
 19 20  1  0
 20 21  1  0
 20 22  1  0
 22 23  2  0
 10 24  1  0
 24 25  2  0
  6  2  1  0
 25  7  1  0
 23 14  1  0
 22 17  1  0
M  END
>  <energy_score>  (3951) 
-11.75921

>  <inchikey>  (3951) 
FZTBOFTVYHFFBT-UHFFFAOYSA-N

>  <smiles>  (3951) 
Cn1nccc1-c1ccc(CNCc2ccc3cnn(C)c3c2)cc1

>  <ref_pdb>  (3951) 
A0514b

>  <alias>  (3951) 
FZTBOFTVYHFFBT-UHFFFAOYSA-N-P76-P9-P76-601504

>  <HIPPO Pose ID>  (3951) 
507517

>  <name>  (3951) 
FZTBOFTVYHFFBT-UHFFFAOYSA-N-P76-P9-P76-601504

>  <HIPPO Compound ID>  (3951) 
289722

>  <ref_mols>  (3951) 
A0486a,A0717a

>  <distance_score>  (3951) 
1.756

>  <inspiration_score>  (3951) 
None

$$$$
LHINEFFBEZLGTP-UHFFFAOYSA-N-P76-P9-P76-601504
     RDKit          3D

 26 29  0  0  0  0  0  0  0  0999 V2000
   19.9416   17.0730    0.5092 C   0  0  0  0  0  0  0  0  0  0  0  0
   18.9906   16.5466    1.5455 C   0  0  0  0  0  0  0  0  0  0  0  0
   17.7237   17.1878    1.7481 C   0  0  0  0  0  0  0  0  0  0  0  0
   17.1381   18.2890    0.8579 C   0  0  0  0  0  0  0  0  0  0  0  0
   15.8082   17.9033    0.3305 N   0  0  0  0  0  0  0  0  0  0  0  0
   14.6514   18.5158    1.0086 C   0  0  0  0  0  0  0  0  0  0  0  0
   13.4586   17.5810    1.2255 C   0  0  0  0  0  0  0  0  0  0  0  0
   13.4061   16.2770    0.7263 C   0  0  0  0  0  0  0  0  0  0  0  0
   12.2862   15.4548    0.9583 C   0  0  0  0  0  0  0  0  0  0  0  0
   11.1695   15.8905    1.7005 C   0  0  0  0  0  0  0  0  0  0  0  0
   10.0472   14.9628    1.9446 C   0  0  0  0  0  0  0  0  0  0  0  0
    8.9276   15.0915    2.8140 C   0  0  0  0  0  0  0  0  0  0  0  0
    8.2501   13.8962    2.7367 C   0  0  0  0  0  0  0  0  0  0  0  0
    8.9442   13.1356    1.8514 N   0  0  0  0  0  0  0  0  0  0  0  0
    8.6562   11.7760    1.4635 C   0  0  0  0  0  0  0  0  0  0  0  0
   10.0230   13.7564    1.3500 N   0  0  0  0  0  0  0  0  0  0  0  0
   11.2169   17.1962    2.1983 C   0  0  0  0  0  0  0  0  0  0  0  0
   12.3402   18.0256    1.9606 C   0  0  0  0  0  0  0  0  0  0  0  0
   16.8734   16.7526    2.7722 C   0  0  0  0  0  0  0  0  0  0  0  0
   17.0817   15.5609    3.4361 C   0  0  0  0  0  0  0  0  0  0  0  0
   18.2178   14.8219    3.1268 C   0  0  0  0  0  0  0  0  0  0  0  0
   18.6608   13.5479    3.5004 C   0  0  0  0  0  0  0  0  0  0  0  0
   19.8613   13.2715    3.0147 N   0  0  0  0  0  0  0  0  0  0  0  0
   20.2295   14.4182    2.4022 N   0  0  0  0  0  0  0  0  0  0  0  0
   21.6246   14.5562    2.0579 C   0  0  0  0  0  0  0  0  0  0  0  0
   19.2018   15.3415    2.2812 C   0  0  0  0  0  0  0  0  0  0  0  0
  1  2  1  0
  2  3  2  0
  3  4  1  0
  4  5  1  0
  5  6  1  0
  6  7  1  0
  7  8  2  0
  8  9  1  0
  9 10  2  0
 10 11  1  0
 11 12  1  0
 12 13  2  0
 13 14  1  0
 14 15  1  0
 14 16  1  0
 10 17  1  0
 17 18  2  0
  3 19  1  0
 19 20  2  0
 20 21  1  0
 21 22  1  0
 22 23  2  0
 23 24  1  0
 24 25  1  0
 24 26  1  0
 26  2  1  0
 18  7  1  0
 26 21  2  0
 16 11  2  0
M  END
>  <energy_score>  (3952) 
-25.279246

>  <inchikey>  (3952) 
LHINEFFBEZLGTP-UHFFFAOYSA-N

>  <smiles>  (3952) 
Cc1c(CNCc2ccc(-c3ccn(C)n3)cc2)ccc2cnn(C)c12

>  <ref_pdb>  (3952) 
A0514b

>  <alias>  (3952) 
LHINEFFBEZLGTP-UHFFFAOYSA-N-P76-P9-P76-601504

>  <HIPPO Pose ID>  (3952) 
507519

>  <name>  (3952) 
LHINEFFBEZLGTP-UHFFFAOYSA-N-P76-P9-P76-601504

>  <HIPPO Compound ID>  (3952) 
289723

>  <ref_mols>  (3952) 
A0486a,A0717a

>  <distance_score>  (3952) 
1.913494

>  <inspiration_score>  (3952) 
None

$$$$
CWQUIWRCEMXFMT-UHFFFAOYSA-N-P9-P9-P76-601504
     RDKit          3D

 26 29  0  0  0  0  0  0  0  0999 V2000
   19.9915   17.2407    0.4475 C   0  0  0  0  0  0  0  0  0  0  0  0
   19.0061   16.6976    1.4441 C   0  0  0  0  0  0  0  0  0  0  0  0
   17.7394   17.3497    1.6269 C   0  0  0  0  0  0  0  0  0  0  0  0
   17.2518   18.5055    0.7451 C   0  0  0  0  0  0  0  0  0  0  0  0
   15.7795   18.6423    0.6064 N   0  0  0  0  0  0  0  0  0  0  0  0
   15.1318   17.5477   -0.1225 C   0  0  0  0  0  0  0  0  0  0  0  0
   13.8688   16.9840    0.5307 C   0  0  0  0  0  0  0  0  0  0  0  0
   12.6618   17.7017    0.5900 C   0  0  0  0  0  0  0  0  0  0  0  0
   11.4600   17.0926    1.0296 C   0  0  0  0  0  0  0  0  0  0  0  0
   11.4353   15.7493    1.4176 C   0  0  0  0  0  0  0  0  0  0  0  0
   10.1913   15.0118    1.6730 C   0  0  0  0  0  0  0  0  0  0  0  0
    9.2002   15.1462    2.6308 C   0  0  0  0  0  0  0  0  0  0  0  0
    8.3640   14.0237    2.4670 C   0  0  0  0  0  0  0  0  0  0  0  0
    8.7312   13.2748    1.4302 N   0  0  0  0  0  0  0  0  0  0  0  0
    9.7895   13.9247    0.9208 N   0  0  0  0  0  0  0  0  0  0  0  0
   10.3795   13.4195   -0.2992 C   0  0  0  0  0  0  0  0  0  0  0  0
   12.6605   15.0592    1.4320 C   0  0  0  0  0  0  0  0  0  0  0  0
   13.8531   15.6620    0.9958 C   0  0  0  0  0  0  0  0  0  0  0  0
   16.8661   16.9140    2.6304 C   0  0  0  0  0  0  0  0  0  0  0  0
   17.0442   15.7027    3.2683 C   0  0  0  0  0  0  0  0  0  0  0  0
   18.1769   14.9542    2.9659 C   0  0  0  0  0  0  0  0  0  0  0  0
   18.6020   13.6743    3.3322 C   0  0  0  0  0  0  0  0  0  0  0  0
   19.8014   13.3829    2.8538 N   0  0  0  0  0  0  0  0  0  0  0  0
   20.2029   14.5394    2.2817 N   0  0  0  0  0  0  0  0  0  0  0  0
   21.6100   14.6694    1.9833 C   0  0  0  0  0  0  0  0  0  0  0  0
   19.1865   15.4752    2.1537 C   0  0  0  0  0  0  0  0  0  0  0  0
  1  2  1  0
  2  3  2  0
  3  4  1  0
  4  5  1  0
  5  6  1  0
  6  7  1  0
  7  8  2  0
  8  9  1  0
  9 10  2  0
 10 11  1  0
 11 12  2  0
 12 13  1  0
 13 14  2  0
 14 15  1  0
 15 16  1  0
 10 17  1  0
 17 18  2  0
  3 19  1  0
 19 20  2  0
 20 21  1  0
 21 22  1  0
 22 23  2  0
 23 24  1  0
 24 25  1  0
 24 26  1  0
 26  2  1  0
 18  7  1  0
 26 21  2  0
 15 11  1  0
M  END
>  <energy_score>  (3953) 
-31.401885

>  <inchikey>  (3953) 
CWQUIWRCEMXFMT-UHFFFAOYSA-N

>  <smiles>  (3953) 
Cc1c(CNCc2ccc(-c3ccnn3C)cc2)ccc2cnn(C)c12

>  <ref_pdb>  (3953) 
A0514b

>  <alias>  (3953) 
CWQUIWRCEMXFMT-UHFFFAOYSA-N-P9-P9-P76-601504

>  <HIPPO Pose ID>  (3953) 
507520

>  <name>  (3953) 
CWQUIWRCEMXFMT-UHFFFAOYSA-N-P9-P9-P76-601504

>  <HIPPO Compound ID>  (3953) 
289724

>  <ref_mols>  (3953) 
A0486a,A0717a

>  <distance_score>  (3953) 
1.906186

>  <inspiration_score>  (3953) 
None

$$$$
CWQUIWRCEMXFMT-UHFFFAOYSA-N-P76-P9-P76-601504
     RDKit          3D

 26 29  0  0  0  0  0  0  0  0999 V2000
   20.0254   17.1259    0.6181 C   0  0  0  0  0  0  0  0  0  0  0  0
   19.0298   16.5815    1.6043 C   0  0  0  0  0  0  0  0  0  0  0  0
   17.7673   17.2419    1.7836 C   0  0  0  0  0  0  0  0  0  0  0  0
   17.3030   18.4180    0.9171 C   0  0  0  0  0  0  0  0  0  0  0  0
   15.8357   18.5877    0.7784 N   0  0  0  0  0  0  0  0  0  0  0  0
   15.1681   17.5253    0.0214 C   0  0  0  0  0  0  0  0  0  0  0  0
   13.9097   16.9494    0.6710 C   0  0  0  0  0  0  0  0  0  0  0  0
   12.7185   17.6846    0.8011 C   0  0  0  0  0  0  0  0  0  0  0  0
   11.5156   17.0732    1.2338 C   0  0  0  0  0  0  0  0  0  0  0  0
   11.4738   15.7100    1.5412 C   0  0  0  0  0  0  0  0  0  0  0  0
   10.2246   14.9807    1.7907 C   0  0  0  0  0  0  0  0  0  0  0  0
    9.2859   15.0494    2.8060 C   0  0  0  0  0  0  0  0  0  0  0  0
    8.4210   13.9576    2.5930 C   0  0  0  0  0  0  0  0  0  0  0  0
    8.7188   13.2936    1.4786 N   0  0  0  0  0  0  0  0  0  0  0  0
    9.7690   13.9623    0.9759 N   0  0  0  0  0  0  0  0  0  0  0  0
   10.3005   13.5414   -0.3013 C   0  0  0  0  0  0  0  0  0  0  0  0
   12.6845   14.9970    1.4818 C   0  0  0  0  0  0  0  0  0  0  0  0
   13.8787   15.6024    1.0556 C   0  0  0  0  0  0  0  0  0  0  0  0
   16.8840   16.8011    2.7762 C   0  0  0  0  0  0  0  0  0  0  0  0
   17.0571   15.5895    3.4179 C   0  0  0  0  0  0  0  0  0  0  0  0
   18.1880   14.8349    3.1220 C   0  0  0  0  0  0  0  0  0  0  0  0
   18.6067   13.5507    3.4909 C   0  0  0  0  0  0  0  0  0  0  0  0
   19.8119   13.2627    3.0242 N   0  0  0  0  0  0  0  0  0  0  0  0
   20.2085   14.4075    2.4260 N   0  0  0  0  0  0  0  0  0  0  0  0
   21.6071   14.5185    2.0833 C   0  0  0  0  0  0  0  0  0  0  0  0
   19.1995   15.3527    2.3085 C   0  0  0  0  0  0  0  0  0  0  0  0
  1  2  1  0
  2  3  2  0
  3  4  1  0
  4  5  1  0
  5  6  1  0
  6  7  1  0
  7  8  2  0
  8  9  1  0
  9 10  2  0
 10 11  1  0
 11 12  2  0
 12 13  1  0
 13 14  2  0
 14 15  1  0
 15 16  1  0
 10 17  1  0
 17 18  2  0
  3 19  1  0
 19 20  2  0
 20 21  1  0
 21 22  1  0
 22 23  2  0
 23 24  1  0
 24 25  1  0
 24 26  1  0
 26  2  1  0
 18  7  1  0
 26 21  2  0
 15 11  1  0
M  END
>  <energy_score>  (3954) 
-32.288112

>  <inchikey>  (3954) 
CWQUIWRCEMXFMT-UHFFFAOYSA-N

>  <smiles>  (3954) 
Cc1c(CNCc2ccc(-c3ccnn3C)cc2)ccc2cnn(C)c12

>  <ref_pdb>  (3954) 
A0514b

>  <alias>  (3954) 
CWQUIWRCEMXFMT-UHFFFAOYSA-N-P76-P9-P76-601504

>  <HIPPO Pose ID>  (3954) 
507521

>  <name>  (3954) 
CWQUIWRCEMXFMT-UHFFFAOYSA-N-P76-P9-P76-601504

>  <HIPPO Compound ID>  (3954) 
289724

>  <ref_mols>  (3954) 
A0486a,A0717a

>  <distance_score>  (3954) 
1.871609

>  <inspiration_score>  (3954) 
None

$$$$
JNGLGZNMIUGLCK-UHFFFAOYSA-N-P9-P9-P76-601504
     RDKit          3D

 26 29  0  0  0  0  0  0  0  0999 V2000
    8.8679   12.5275    0.8243 C   0  0  0  0  0  0  0  0  0  0  0  0
    9.0108   13.7272    1.6130 N   0  0  0  0  0  0  0  0  0  0  0  0
    8.2084   14.1356    2.6303 C   0  0  0  0  0  0  0  0  0  0  0  0
    8.7501   15.3177    3.0825 C   0  0  0  0  0  0  0  0  0  0  0  0
    9.9117   15.5434    2.2900 C   0  0  0  0  0  0  0  0  0  0  0  0
   10.9828   16.5521    2.4445 C   0  0  0  0  0  0  0  0  0  0  0  0
   11.8722   16.8045    1.3860 C   0  0  0  0  0  0  0  0  0  0  0  0
   13.0602   17.5439    1.5681 C   0  0  0  0  0  0  0  0  0  0  0  0
   13.4254   18.0375    2.8263 C   0  0  0  0  0  0  0  0  0  0  0  0
   14.8183   18.5990    3.1455 C   0  0  0  0  0  0  0  0  0  0  0  0
   15.6515   18.9637    1.9841 N   0  0  0  0  0  0  0  0  0  0  0  0
   17.0939   18.7628    2.1921 C   0  0  2  0  0  0  0  0  0  0  0  0
   17.7467   19.5742    1.2398 O   0  0  0  0  0  0  0  0  0  0  0  0
   17.5769   17.3221    1.9880 C   0  0  0  0  0  0  0  0  0  0  0  0
   16.6550   16.3948    1.4892 C   0  0  0  0  0  0  0  0  0  0  0  0
   16.8908   15.0326    1.4911 C   0  0  0  0  0  0  0  0  0  0  0  0
   18.1253   14.5801    1.9378 C   0  0  0  0  0  0  0  0  0  0  0  0
   18.6579   13.3072    2.1490 C   0  0  0  0  0  0  0  0  0  0  0  0
   19.9226   13.3547    2.5423 N   0  0  0  0  0  0  0  0  0  0  0  0
   20.2326   14.6679    2.4862 N   0  0  0  0  0  0  0  0  0  0  0  0
   21.6332   15.0150    2.5322 C   0  0  0  0  0  0  0  0  0  0  0  0
   19.1364   15.4824    2.2703 C   0  0  0  0  0  0  0  0  0  0  0  0
   18.8903   16.8782    2.3055 C   0  0  0  0  0  0  0  0  0  0  0  0
   12.4884   17.8657    3.8654 C   0  0  0  0  0  0  0  0  0  0  0  0
   11.2813   17.1507    3.6763 C   0  0  0  0  0  0  0  0  0  0  0  0
   10.0465   14.5535    1.3875 N   0  0  0  0  0  0  0  0  0  0  0  0
  1  2  1  0
  2  3  1  0
  3  4  2  0
  4  5  1  0
  5  6  1  0
  6  7  2  0
  7  8  1  0
  8  9  2  0
  9 10  1  0
 10 11  1  0
 11 12  1  0
 12 13  1  6
 12 14  1  0
 14 15  2  0
 15 16  1  0
 16 17  2  0
 17 18  1  0
 18 19  2  0
 19 20  1  0
 20 21  1  0
 20 22  1  0
 22 23  2  0
  9 24  1  0
 24 25  2  0
  5 26  2  0
 26  2  1  0
 25  6  1  0
 23 14  1  0
 22 17  1  0
M  END
>  <energy_score>  (3955) 
-19.567495

>  <inchikey>  (3955) 
JNGLGZNMIUGLCK-UHFFFAOYSA-N

>  <smiles>  (3955) 
Cn1ccc(-c2ccc(CNC(O)c3ccc4cnn(C)c4c3)cc2)n1

>  <ref_pdb>  (3955) 
A0514b

>  <alias>  (3955) 
JNGLGZNMIUGLCK-UHFFFAOYSA-N-P9-P9-P76-601504

>  <HIPPO Pose ID>  (3955) 
507522

>  <name>  (3955) 
JNGLGZNMIUGLCK-UHFFFAOYSA-N-P9-P9-P76-601504

>  <HIPPO Compound ID>  (3955) 
289725

>  <ref_mols>  (3955) 
A0486a,A0717a

>  <distance_score>  (3955) 
1.95023

>  <inspiration_score>  (3955) 
None

$$$$
JNGLGZNMIUGLCK-UHFFFAOYSA-N-P76-P9-P76-601504
     RDKit          3D

 26 29  0  0  0  0  0  0  0  0999 V2000
    8.7350   12.2583    1.0818 C   0  0  0  0  0  0  0  0  0  0  0  0
    8.9495   13.4889    1.8035 N   0  0  0  0  0  0  0  0  0  0  0  0
    8.2175   13.9616    2.8450 C   0  0  0  0  0  0  0  0  0  0  0  0
    8.8237   15.1374    3.2255 C   0  0  0  0  0  0  0  0  0  0  0  0
    9.9447   15.2949    2.3630 C   0  0  0  0  0  0  0  0  0  0  0  0
   11.0406   16.2871    2.4022 C   0  0  0  0  0  0  0  0  0  0  0  0
   11.9560   16.3445    1.3379 C   0  0  0  0  0  0  0  0  0  0  0  0
   13.1056   17.1509    1.3890 C   0  0  0  0  0  0  0  0  0  0  0  0
   13.4006   17.9324    2.5149 C   0  0  0  0  0  0  0  0  0  0  0  0
   14.6644   18.7966    2.5345 C   0  0  0  0  0  0  0  0  0  0  0  0
   15.7473   18.2439    3.3614 N   0  0  0  0  0  0  0  0  0  0  0  0
   17.1236   18.4989    2.8766 C   0  0  2  0  0  0  0  0  0  0  0  0
   17.2016   19.6122    2.0108 O   0  0  0  0  0  0  0  0  0  0  0  0
   17.7585   17.2562    2.2343 C   0  0  0  0  0  0  0  0  0  0  0  0
   16.9707   16.5336    1.3326 C   0  0  0  0  0  0  0  0  0  0  0  0
   17.2474   15.2090    1.0314 C   0  0  0  0  0  0  0  0  0  0  0  0
   18.3841   14.6230    1.5881 C   0  0  0  0  0  0  0  0  0  0  0  0
   18.8831   13.3134    1.6446 C   0  0  0  0  0  0  0  0  0  0  0  0
   20.0531   13.2516    2.2676 N   0  0  0  0  0  0  0  0  0  0  0  0
   20.3706   14.5442    2.4774 N   0  0  0  0  0  0  0  0  0  0  0  0
   21.7630   14.8466    2.7039 C   0  0  0  0  0  0  0  0  0  0  0  0
   19.3095   15.4058    2.2792 C   0  0  0  0  0  0  0  0  0  0  0  0
   19.0320   16.7526    2.6057 C   0  0  0  0  0  0  0  0  0  0  0  0
   12.4802   17.9020    3.5744 C   0  0  0  0  0  0  0  0  0  0  0  0
   11.3110   17.1014    3.5144 C   0  0  0  0  0  0  0  0  0  0  0  0
    9.9867   14.2787    1.4801 N   0  0  0  0  0  0  0  0  0  0  0  0
  1  2  1  0
  2  3  1  0
  3  4  2  0
  4  5  1  0
  5  6  1  0
  6  7  2  0
  7  8  1  0
  8  9  2  0
  9 10  1  0
 10 11  1  0
 11 12  1  0
 12 13  1  6
 12 14  1  0
 14 15  2  0
 15 16  1  0
 16 17  2  0
 17 18  1  0
 18 19  2  0
 19 20  1  0
 20 21  1  0
 20 22  1  0
 22 23  2  0
  9 24  1  0
 24 25  2  0
  5 26  2  0
 26  2  1  0
 25  6  1  0
 23 14  1  0
 22 17  1  0
M  END
>  <energy_score>  (3956) 
-13.914012

>  <inchikey>  (3956) 
JNGLGZNMIUGLCK-UHFFFAOYSA-N

>  <smiles>  (3956) 
Cn1ccc(-c2ccc(CNC(O)c3ccc4cnn(C)c4c3)cc2)n1

>  <ref_pdb>  (3956) 
A0514b

>  <alias>  (3956) 
JNGLGZNMIUGLCK-UHFFFAOYSA-N-P76-P9-P76-601504

>  <HIPPO Pose ID>  (3956) 
507523

>  <name>  (3956) 
JNGLGZNMIUGLCK-UHFFFAOYSA-N-P76-P9-P76-601504

>  <HIPPO Compound ID>  (3956) 
289725

>  <ref_mols>  (3956) 
A0486a,A0717a

>  <distance_score>  (3956) 
1.871708

>  <inspiration_score>  (3956) 
None

$$$$
YFIDAESKNWECFP-UHFFFAOYSA-N-P9-P9-P76-601504
     RDKit          3D

 26 29  0  0  0  0  0  0  0  0999 V2000
   11.0629   13.3456    0.2510 C   0  0  0  0  0  0  0  0  0  0  0  0
   10.0928   13.9678    1.1262 N   0  0  0  0  0  0  0  0  0  0  0  0
    9.0358   13.2264    1.4999 N   0  0  0  0  0  0  0  0  0  0  0  0
    8.4188   13.9729    2.4101 C   0  0  0  0  0  0  0  0  0  0  0  0
    9.0543   15.2155    2.5868 C   0  0  0  0  0  0  0  0  0  0  0  0
   10.1452   15.2149    1.7279 C   0  0  0  0  0  0  0  0  0  0  0  0
   11.2123   16.2116    1.5075 C   0  0  0  0  0  0  0  0  0  0  0  0
   11.7320   16.4593    0.2241 C   0  0  0  0  0  0  0  0  0  0  0  0
   12.8576   17.2841    0.0168 C   0  0  0  0  0  0  0  0  0  0  0  0
   13.4999   17.9111    1.0893 C   0  0  0  0  0  0  0  0  0  0  0  0
   14.7230   18.8064    0.8830 C   0  0  0  0  0  0  0  0  0  0  0  0
   15.8362   18.1561    0.1705 N   0  0  0  0  0  0  0  0  0  0  0  0
   17.1707   18.4405    0.7156 C   0  0  2  0  0  0  0  0  0  0  0  0
   18.0103   18.5774   -0.4076 O   0  0  0  0  0  0  0  0  0  0  0  0
   17.6957   17.3151    1.6125 C   0  0  0  0  0  0  0  0  0  0  0  0
   16.8182   16.8447    2.5985 C   0  0  0  0  0  0  0  0  0  0  0  0
   17.0247   15.6409    3.2506 C   0  0  0  0  0  0  0  0  0  0  0  0
   18.1872   14.9277    2.9705 C   0  0  0  0  0  0  0  0  0  0  0  0
   18.6715   13.6734    3.3533 C   0  0  0  0  0  0  0  0  0  0  0  0
   19.8844   13.4275    2.8774 N   0  0  0  0  0  0  0  0  0  0  0  0
   20.2209   14.5791    2.2570 N   0  0  0  0  0  0  0  0  0  0  0  0
   21.5966   14.7395    1.8536 C   0  0  0  0  0  0  0  0  0  0  0  0
   19.1755   15.4750    2.1559 C   0  0  0  0  0  0  0  0  0  0  0  0
   18.9565   16.6801    1.4525 C   0  0  0  0  0  0  0  0  0  0  0  0
   12.9330   17.7337    2.3641 C   0  0  0  0  0  0  0  0  0  0  0  0
   11.8081   16.9030    2.5691 C   0  0  0  0  0  0  0  0  0  0  0  0
  1  2  1  0
  2  3  1  0
  3  4  2  0
  4  5  1  0
  5  6  2  0
  6  7  1  0
  7  8  2  0
  8  9  1  0
  9 10  2  0
 10 11  1  0
 11 12  1  0
 12 13  1  0
 13 14  1  6
 13 15  1  0
 15 16  2  0
 16 17  1  0
 17 18  2  0
 18 19  1  0
 19 20  2  0
 20 21  1  0
 21 22  1  0
 21 23  1  0
 23 24  2  0
 10 25  1  0
 25 26  2  0
  6  2  1  0
 26  7  1  0
 24 15  1  0
 23 18  1  0
M  END
>  <energy_score>  (3957) 
-16.936271

>  <inchikey>  (3957) 
YFIDAESKNWECFP-UHFFFAOYSA-N

>  <smiles>  (3957) 
Cn1nccc1-c1ccc(CNC(O)c2ccc3cnn(C)c3c2)cc1

>  <ref_pdb>  (3957) 
A0514b

>  <alias>  (3957) 
YFIDAESKNWECFP-UHFFFAOYSA-N-P9-P9-P76-601504

>  <HIPPO Pose ID>  (3957) 
507524

>  <name>  (3957) 
YFIDAESKNWECFP-UHFFFAOYSA-N-P9-P9-P76-601504

>  <HIPPO Compound ID>  (3957) 
289726

>  <ref_mols>  (3957) 
A0486a,A0717a

>  <distance_score>  (3957) 
1.857933

>  <inspiration_score>  (3957) 
None

$$$$
YFIDAESKNWECFP-UHFFFAOYSA-N-P76-P9-P76-601504
     RDKit          3D

 26 29  0  0  0  0  0  0  0  0999 V2000
   11.0536   13.3009    0.3361 C   0  0  0  0  0  0  0  0  0  0  0  0
   10.0910   13.9278    1.2161 N   0  0  0  0  0  0  0  0  0  0  0  0
    9.0212   13.1966    1.5763 N   0  0  0  0  0  0  0  0  0  0  0  0
    8.4410   13.9201    2.5282 C   0  0  0  0  0  0  0  0  0  0  0  0
    9.0955   15.1492    2.7257 C   0  0  0  0  0  0  0  0  0  0  0  0
   10.1621   15.1652    1.8368 C   0  0  0  0  0  0  0  0  0  0  0  0
   11.2300   16.1625    1.6170 C   0  0  0  0  0  0  0  0  0  0  0  0
   11.7710   16.3944    0.3394 C   0  0  0  0  0  0  0  0  0  0  0  0
   12.9007   17.2154    0.1399 C   0  0  0  0  0  0  0  0  0  0  0  0
   13.5262   17.8548    1.2147 C   0  0  0  0  0  0  0  0  0  0  0  0
   14.7597   18.7372    1.0207 C   0  0  0  0  0  0  0  0  0  0  0  0
   15.8710   18.0767    0.3134 N   0  0  0  0  0  0  0  0  0  0  0  0
   17.2028   18.3418    0.8731 C   0  0  2  0  0  0  0  0  0  0  0  0
   18.0536   18.4808   -0.2418 O   0  0  0  0  0  0  0  0  0  0  0  0
   17.7090   17.2041    1.7644 C   0  0  0  0  0  0  0  0  0  0  0  0
   16.8195   16.7302    2.7383 C   0  0  0  0  0  0  0  0  0  0  0  0
   17.0165   15.5236    3.3916 C   0  0  0  0  0  0  0  0  0  0  0  0
   18.1795   14.8064    3.1223 C   0  0  0  0  0  0  0  0  0  0  0  0
   18.6525   13.5430    3.4976 C   0  0  0  0  0  0  0  0  0  0  0  0
   19.8782   13.3056    3.0478 N   0  0  0  0  0  0  0  0  0  0  0  0
   20.2139   14.4505    2.4124 N   0  0  0  0  0  0  0  0  0  0  0  0
   21.5830   14.5997    1.9825 C   0  0  0  0  0  0  0  0  0  0  0  0
   19.1745   15.3534    2.3147 C   0  0  0  0  0  0  0  0  0  0  0  0
   18.9666   16.5622    1.6125 C   0  0  0  0  0  0  0  0  0  0  0  0
   12.9338   17.7006    2.4805 C   0  0  0  0  0  0  0  0  0  0  0  0
   11.8040   16.8750    2.6767 C   0  0  0  0  0  0  0  0  0  0  0  0
  1  2  1  0
  2  3  1  0
  3  4  2  0
  4  5  1  0
  5  6  2  0
  6  7  1  0
  7  8  2  0
  8  9  1  0
  9 10  2  0
 10 11  1  0
 11 12  1  0
 12 13  1  0
 13 14  1  6
 13 15  1  0
 15 16  2  0
 16 17  1  0
 17 18  2  0
 18 19  1  0
 19 20  2  0
 20 21  1  0
 21 22  1  0
 21 23  1  0
 23 24  2  0
 10 25  1  0
 25 26  2  0
  6  2  1  0
 26  7  1  0
 24 15  1  0
 23 18  1  0
M  END
>  <energy_score>  (3958) 
-17.311223

>  <inchikey>  (3958) 
YFIDAESKNWECFP-UHFFFAOYSA-N

>  <smiles>  (3958) 
Cn1nccc1-c1ccc(CNC(O)c2ccc3cnn(C)c3c2)cc1

>  <ref_pdb>  (3958) 
A0514b

>  <alias>  (3958) 
YFIDAESKNWECFP-UHFFFAOYSA-N-P76-P9-P76-601504

>  <HIPPO Pose ID>  (3958) 
507525

>  <name>  (3958) 
YFIDAESKNWECFP-UHFFFAOYSA-N-P76-P9-P76-601504

>  <HIPPO Compound ID>  (3958) 
289726

>  <ref_mols>  (3958) 
A0486a,A0717a

>  <distance_score>  (3958) 
1.831133

>  <inspiration_score>  (3958) 
None

$$$$
CXCYIBNJCGFMTB-UHFFFAOYSA-N-P9-P9-P76-601504
     RDKit          3D

 26 29  0  0  0  0  0  0  0  0999 V2000
   22.3420   16.7060    1.7138 C   0  0  0  0  0  0  0  0  0  0  0  0
   21.0902   15.9741    2.0344 C   0  0  0  0  0  0  0  0  0  0  0  0
   19.7709   16.3386    2.0058 C   0  0  0  0  0  0  0  0  0  0  0  0
   19.2979   17.5986    1.6607 C   0  0  0  0  0  0  0  0  0  0  0  0
   17.8980   17.6605    1.7001 C   0  0  0  0  0  0  0  0  0  0  0  0
   17.0634   16.5542    2.0651 C   0  0  0  0  0  0  0  0  0  0  0  0
   15.5484   16.7362    1.9729 C   0  0  0  0  0  0  0  0  0  0  0  0
   15.0094   17.6070    3.0279 N   0  0  0  0  0  0  0  0  0  0  0  0
   13.8320   18.3734    2.5778 C   0  0  0  0  0  0  0  0  0  0  0  0
   12.5564   17.5697    2.4438 C   0  0  0  0  0  0  0  0  0  0  0  0
   11.5985   17.5444    3.4702 C   0  0  0  0  0  0  0  0  0  0  0  0
   10.4406   16.7533    3.3655 C   0  0  0  0  0  0  0  0  0  0  0  0
   10.2418   15.9288    2.2501 C   0  0  0  0  0  0  0  0  0  0  0  0
    9.2486   14.8438    2.2425 C   0  0  0  0  0  0  0  0  0  0  0  0
    8.2080   14.5623    3.1689 C   0  0  0  0  0  0  0  0  0  0  0  0
    7.7281   13.3206    2.8230 C   0  0  0  0  0  0  0  0  0  0  0  0
    8.4525   12.9316    1.7421 N   0  0  0  0  0  0  0  0  0  0  0  0
    8.3549   11.6743    1.0420 C   0  0  0  0  0  0  0  0  0  0  0  0
    9.3536   13.8439    1.3483 N   0  0  0  0  0  0  0  0  0  0  0  0
   11.1645   16.0192    1.1943 C   0  0  0  0  0  0  0  0  0  0  0  0
   12.2981   16.8326    1.2839 C   0  0  0  0  0  0  0  0  0  0  0  0
   17.5970   15.2857    2.4376 C   0  0  0  0  0  0  0  0  0  0  0  0
   18.9952   15.1916    2.3887 C   0  0  0  0  0  0  0  0  0  0  0  0
   19.8198   14.1632    2.6526 N   0  0  0  0  0  0  0  0  0  0  0  0
   21.0658   14.6777    2.4890 N   0  0  0  0  0  0  0  0  0  0  0  0
   22.2162   13.8787    2.8419 C   0  0  0  0  0  0  0  0  0  0  0  0
  1  2  1  0
  2  3  2  0
  3  4  1  0
  4  5  2  0
  5  6  1  0
  6  7  1  0
  7  8  1  0
  8  9  1  0
  9 10  1  0
 10 11  2  0
 11 12  1  0
 12 13  2  0
 13 14  1  0
 14 15  1  0
 15 16  2  0
 16 17  1  0
 17 18  1  0
 17 19  1  0
 13 20  1  0
 20 21  2  0
  6 22  2  0
 22 23  1  0
 23 24  2  0
 24 25  1  0
 25 26  1  0
 25  2  1  0
 23  3  1  0
 21 10  1  0
 19 14  2  0
M  END
>  <energy_score>  (3959) 
-28.978307

>  <inchikey>  (3959) 
CXCYIBNJCGFMTB-UHFFFAOYSA-N

>  <smiles>  (3959) 
Cc1c2ccc(CNCc3ccc(-c4ccn(C)n4)cc3)cc2nn1C

>  <ref_pdb>  (3959) 
A0514b

>  <alias>  (3959) 
CXCYIBNJCGFMTB-UHFFFAOYSA-N-P9-P9-P76-601504

>  <HIPPO Pose ID>  (3959) 
507526

>  <name>  (3959) 
CXCYIBNJCGFMTB-UHFFFAOYSA-N-P9-P9-P76-601504

>  <HIPPO Compound ID>  (3959) 
289727

>  <ref_mols>  (3959) 
A0486a,A0717a

>  <distance_score>  (3959) 
1.718778

>  <inspiration_score>  (3959) 
None

$$$$
CXCYIBNJCGFMTB-UHFFFAOYSA-N-P76-P9-P76-601504
     RDKit          3D

 26 29  0  0  0  0  0  0  0  0999 V2000
   22.4342   16.5871    2.0056 C   0  0  0  0  0  0  0  0  0  0  0  0
   21.1412   15.8922    2.2313 C   0  0  0  0  0  0  0  0  0  0  0  0
   19.8388   16.3090    2.1489 C   0  0  0  0  0  0  0  0  0  0  0  0
   19.4262   17.5987    1.8349 C   0  0  0  0  0  0  0  0  0  0  0  0
   18.0287   17.7001    1.7685 C   0  0  0  0  0  0  0  0  0  0  0  0
   17.1404   16.6004    1.9945 C   0  0  0  0  0  0  0  0  0  0  0  0
   15.6474   16.8300    1.7860 C   0  0  0  0  0  0  0  0  0  0  0  0
   15.0731   17.6801    2.8293 N   0  0  0  0  0  0  0  0  0  0  0  0
   13.8541   18.3837    2.4130 C   0  0  0  0  0  0  0  0  0  0  0  0
   12.6093   17.5256    2.3535 C   0  0  0  0  0  0  0  0  0  0  0  0
   11.6754   17.5167    3.4024 C   0  0  0  0  0  0  0  0  0  0  0  0
   10.5412   16.6858    3.3585 C   0  0  0  0  0  0  0  0  0  0  0  0
   10.3399   15.8130    2.2819 C   0  0  0  0  0  0  0  0  0  0  0  0
    9.3416   14.7343    2.3137 C   0  0  0  0  0  0  0  0  0  0  0  0
    8.3393   14.4558    3.2821 C   0  0  0  0  0  0  0  0  0  0  0  0
    7.8211   13.2292    2.9383 C   0  0  0  0  0  0  0  0  0  0  0  0
    8.4905   12.8447    1.8211 N   0  0  0  0  0  0  0  0  0  0  0  0
    8.3389   11.6009    1.1066 C   0  0  0  0  0  0  0  0  0  0  0  0
    9.3872   13.7483    1.3995 N   0  0  0  0  0  0  0  0  0  0  0  0
   11.2449   15.8763    1.2082 C   0  0  0  0  0  0  0  0  0  0  0  0
   12.3560   16.7235    1.2374 C   0  0  0  0  0  0  0  0  0  0  0  0
   17.6094   15.3018    2.3459 C   0  0  0  0  0  0  0  0  0  0  0  0
   19.0036   15.1714    2.4130 C   0  0  0  0  0  0  0  0  0  0  0  0
   19.7734   14.1073    2.6950 N   0  0  0  0  0  0  0  0  0  0  0  0
   21.0452   14.5719    2.6030 N   0  0  0  0  0  0  0  0  0  0  0  0
   22.1421   13.6865    2.9201 C   0  0  0  0  0  0  0  0  0  0  0  0
  1  2  1  0
  2  3  2  0
  3  4  1  0
  4  5  2  0
  5  6  1  0
  6  7  1  0
  7  8  1  0
  8  9  1  0
  9 10  1  0
 10 11  2  0
 11 12  1  0
 12 13  2  0
 13 14  1  0
 14 15  1  0
 15 16  2  0
 16 17  1  0
 17 18  1  0
 17 19  1  0
 13 20  1  0
 20 21  2  0
  6 22  2  0
 22 23  1  0
 23 24  2  0
 24 25  1  0
 25 26  1  0
 25  2  1  0
 23  3  1  0
 21 10  1  0
 19 14  2  0
M  END
>  <energy_score>  (3960) 
-32.802572

>  <inchikey>  (3960) 
CXCYIBNJCGFMTB-UHFFFAOYSA-N

>  <smiles>  (3960) 
Cc1c2ccc(CNCc3ccc(-c4ccn(C)n4)cc3)cc2nn1C

>  <ref_pdb>  (3960) 
A0514b

>  <alias>  (3960) 
CXCYIBNJCGFMTB-UHFFFAOYSA-N-P76-P9-P76-601504

>  <HIPPO Pose ID>  (3960) 
507527

>  <name>  (3960) 
CXCYIBNJCGFMTB-UHFFFAOYSA-N-P76-P9-P76-601504

>  <HIPPO Compound ID>  (3960) 
289727

>  <ref_mols>  (3960) 
A0486a,A0717a

>  <distance_score>  (3960) 
1.679679

>  <inspiration_score>  (3960) 
None

$$$$
HJCYMYIDFNDTAN-UHFFFAOYSA-N-P9-P9-P76-601504
     RDKit          3D

 26 29  0  0  0  0  0  0  0  0999 V2000
   22.3734   16.7327    1.8050 C   0  0  0  0  0  0  0  0  0  0  0  0
   21.1061   16.0049    2.0700 C   0  0  0  0  0  0  0  0  0  0  0  0
   19.7924   16.3849    2.0168 C   0  0  0  0  0  0  0  0  0  0  0  0
   19.3461   17.6625    1.7048 C   0  0  0  0  0  0  0  0  0  0  0  0
   17.9473   17.7386    1.6984 C   0  0  0  0  0  0  0  0  0  0  0  0
   17.0874   16.6278    1.9779 C   0  0  0  0  0  0  0  0  0  0  0  0
   15.5825   16.8470    1.8426 C   0  0  0  0  0  0  0  0  0  0  0  0
   15.0819   17.7792    2.8539 N   0  0  0  0  0  0  0  0  0  0  0  0
   13.9139   18.5561    2.4270 C   0  0  0  0  0  0  0  0  0  0  0  0
   12.6336   17.7621    2.3073 C   0  0  0  0  0  0  0  0  0  0  0  0
   11.8038   17.5479    3.4146 C   0  0  0  0  0  0  0  0  0  0  0  0
   10.6661   16.7322    3.3113 C   0  0  0  0  0  0  0  0  0  0  0  0
   10.3627   16.0629    2.1167 C   0  0  0  0  0  0  0  0  0  0  0  0
    9.3901   14.9546    2.0957 C   0  0  0  0  0  0  0  0  0  0  0  0
    8.2894   14.7112    2.9059 C   0  0  0  0  0  0  0  0  0  0  0  0
    7.8056   13.4457    2.5365 C   0  0  0  0  0  0  0  0  0  0  0  0
    8.5131   12.9124    1.5465 N   0  0  0  0  0  0  0  0  0  0  0  0
    9.5080   13.7935    1.3444 N   0  0  0  0  0  0  0  0  0  0  0  0
   10.5868   13.3648    0.4810 C   0  0  0  0  0  0  0  0  0  0  0  0
   11.1162   16.3984    0.9840 C   0  0  0  0  0  0  0  0  0  0  0  0
   12.2454   17.2208    1.0782 C   0  0  0  0  0  0  0  0  0  0  0  0
   17.5927   15.3376    2.3159 C   0  0  0  0  0  0  0  0  0  0  0  0
   18.9922   15.2323    2.3274 C   0  0  0  0  0  0  0  0  0  0  0  0
   19.7987   14.1890    2.5943 N   0  0  0  0  0  0  0  0  0  0  0  0
   21.0546   14.6964    2.4839 N   0  0  0  0  0  0  0  0  0  0  0  0
   22.1870   13.8763    2.8448 C   0  0  0  0  0  0  0  0  0  0  0  0
  1  2  1  0
  2  3  2  0
  3  4  1  0
  4  5  2  0
  5  6  1  0
  6  7  1  0
  7  8  1  0
  8  9  1  0
  9 10  1  0
 10 11  2  0
 11 12  1  0
 12 13  2  0
 13 14  1  0
 14 15  2  0
 15 16  1  0
 16 17  2  0
 17 18  1  0
 18 19  1  0
 13 20  1  0
 20 21  2  0
  6 22  2  0
 22 23  1  0
 23 24  2  0
 24 25  1  0
 25 26  1  0
 25  2  1  0
 23  3  1  0
 21 10  1  0
 18 14  1  0
M  END
>  <energy_score>  (3961) 
-38.873976

>  <inchikey>  (3961) 
HJCYMYIDFNDTAN-UHFFFAOYSA-N

>  <smiles>  (3961) 
Cc1c2ccc(CNCc3ccc(-c4ccnn4C)cc3)cc2nn1C

>  <ref_pdb>  (3961) 
A0514b

>  <alias>  (3961) 
HJCYMYIDFNDTAN-UHFFFAOYSA-N-P9-P9-P76-601504

>  <HIPPO Pose ID>  (3961) 
507528

>  <name>  (3961) 
HJCYMYIDFNDTAN-UHFFFAOYSA-N-P9-P9-P76-601504

>  <HIPPO Compound ID>  (3961) 
289728

>  <ref_mols>  (3961) 
A0486a,A0717a

>  <distance_score>  (3961) 
1.790285

>  <inspiration_score>  (3961) 
None

$$$$
HJCYMYIDFNDTAN-UHFFFAOYSA-N-P76-P9-P76-601504
     RDKit          3D

 26 29  0  0  0  0  0  0  0  0999 V2000
   22.4033   16.5724    1.9575 C   0  0  0  0  0  0  0  0  0  0  0  0
   21.1064   15.8926    2.2056 C   0  0  0  0  0  0  0  0  0  0  0  0
   19.8076   16.3212    2.1326 C   0  0  0  0  0  0  0  0  0  0  0  0
   19.4074   17.6115    1.8071 C   0  0  0  0  0  0  0  0  0  0  0  0
   18.0109   17.7339    1.7731 C   0  0  0  0  0  0  0  0  0  0  0  0
   17.1105   16.6523    2.0368 C   0  0  0  0  0  0  0  0  0  0  0  0
   15.6152   16.9167    1.8825 C   0  0  0  0  0  0  0  0  0  0  0  0
   15.0972   17.7371    2.9776 N   0  0  0  0  0  0  0  0  0  0  0  0
   13.9111   18.5247    2.6223 C   0  0  0  0  0  0  0  0  0  0  0  0
   12.6389   17.7213    2.4759 C   0  0  0  0  0  0  0  0  0  0  0  0
   11.7982   17.4843    3.5706 C   0  0  0  0  0  0  0  0  0  0  0  0
   10.6690   16.6591    3.4435 C   0  0  0  0  0  0  0  0  0  0  0  0
   10.3859   16.0024    2.2378 C   0  0  0  0  0  0  0  0  0  0  0  0
    9.4178   14.8912    2.1913 C   0  0  0  0  0  0  0  0  0  0  0  0
    8.3179   14.6277    2.9960 C   0  0  0  0  0  0  0  0  0  0  0  0
    7.8280   13.3763    2.5895 C   0  0  0  0  0  0  0  0  0  0  0  0
    8.5327   12.8687    1.5840 N   0  0  0  0  0  0  0  0  0  0  0  0
    9.5344   13.7493    1.4116 N   0  0  0  0  0  0  0  0  0  0  0  0
   10.6136   13.3390    0.5402 C   0  0  0  0  0  0  0  0  0  0  0  0
   11.1488   16.3609    1.1184 C   0  0  0  0  0  0  0  0  0  0  0  0
   12.2686   17.1937    1.2356 C   0  0  0  0  0  0  0  0  0  0  0  0
   17.5678   15.3504    2.3945 C   0  0  0  0  0  0  0  0  0  0  0  0
   18.9624   15.1991    2.4325 C   0  0  0  0  0  0  0  0  0  0  0  0
   19.7262   14.1302    2.7183 N   0  0  0  0  0  0  0  0  0  0  0  0
   21.0015   14.5810    2.6018 N   0  0  0  0  0  0  0  0  0  0  0  0
   22.0952   13.6941    2.9254 C   0  0  0  0  0  0  0  0  0  0  0  0
  1  2  1  0
  2  3  2  0
  3  4  1  0
  4  5  2  0
  5  6  1  0
  6  7  1  0
  7  8  1  0
  8  9  1  0
  9 10  1  0
 10 11  2  0
 11 12  1  0
 12 13  2  0
 13 14  1  0
 14 15  2  0
 15 16  1  0
 16 17  2  0
 17 18  1  0
 18 19  1  0
 13 20  1  0
 20 21  2  0
  6 22  2  0
 22 23  1  0
 23 24  2  0
 24 25  1  0
 25 26  1  0
 25  2  1  0
 23  3  1  0
 21 10  1  0
 18 14  1  0
M  END
>  <energy_score>  (3962) 
-39.404207

>  <inchikey>  (3962) 
HJCYMYIDFNDTAN-UHFFFAOYSA-N

>  <smiles>  (3962) 
Cc1c2ccc(CNCc3ccc(-c4ccnn4C)cc3)cc2nn1C

>  <ref_pdb>  (3962) 
A0514b

>  <alias>  (3962) 
HJCYMYIDFNDTAN-UHFFFAOYSA-N-P76-P9-P76-601504

>  <HIPPO Pose ID>  (3962) 
507529

>  <name>  (3962) 
HJCYMYIDFNDTAN-UHFFFAOYSA-N-P76-P9-P76-601504

>  <HIPPO Compound ID>  (3962) 
289728

>  <ref_mols>  (3962) 
A0486a,A0717a

>  <distance_score>  (3962) 
1.692449

>  <inspiration_score>  (3962) 
None

$$$$
KOBXWNWPTOGHSG-UHFFFAOYSA-N-P9-P9-P76-601504
     RDKit          3D

 26 29  0  0  0  0  0  0  0  0999 V2000
    8.4587   11.7013    1.2666 C   0  0  0  0  0  0  0  0  0  0  0  0
    8.6275   13.0338    1.7925 N   0  0  0  0  0  0  0  0  0  0  0  0
    7.9415   13.5992    2.8198 C   0  0  0  0  0  0  0  0  0  0  0  0
    8.4962   14.8455    2.9992 C   0  0  0  0  0  0  0  0  0  0  0  0
    9.5350   14.9476    2.0336 C   0  0  0  0  0  0  0  0  0  0  0  0
   10.5703   15.9797    1.8663 C   0  0  0  0  0  0  0  0  0  0  0  0
   11.3530   15.9954    0.6979 C   0  0  0  0  0  0  0  0  0  0  0  0
   12.4922   16.8068    0.5808 C   0  0  0  0  0  0  0  0  0  0  0  0
   12.9104   17.6084    1.6473 C   0  0  0  0  0  0  0  0  0  0  0  0
   14.2061   18.4173    1.6236 C   0  0  0  0  0  0  0  0  0  0  0  0
   15.2130   17.9251    0.6766 N   0  0  0  0  0  0  0  0  0  0  0  0
   16.5945   18.3128    0.9650 C   0  0  1  0  0  0  0  0  0  0  0  0
   16.6722   19.4470    1.8084 O   0  0  0  0  0  0  0  0  0  0  0  0
   17.4567   17.1835    1.5479 C   0  0  0  0  0  0  0  0  0  0  0  0
   16.8604   16.2596    2.4790 C   0  0  0  0  0  0  0  0  0  0  0  0
   17.4980   15.1326    3.0289 C   0  0  0  0  0  0  0  0  0  0  0  0
   18.8082   15.0583    2.5998 C   0  0  0  0  0  0  0  0  0  0  0  0
   19.7267   14.1410    3.0226 C   0  0  0  0  0  0  0  0  0  0  0  0
   20.8989   14.5301    2.4451 N   0  0  0  0  0  0  0  0  0  0  0  0
   22.2182   14.0044    2.7043 C   0  0  0  0  0  0  0  0  0  0  0  0
   20.7669   15.5764    1.6105 N   0  0  0  0  0  0  0  0  0  0  0  0
   19.4879   15.9605    1.7258 C   0  0  0  0  0  0  0  0  0  0  0  0
   18.8218   17.0620    1.1600 C   0  0  0  0  0  0  0  0  0  0  0  0
   12.0774   17.6638    2.7817 C   0  0  0  0  0  0  0  0  0  0  0  0
   10.9198   16.8681    2.8890 C   0  0  0  0  0  0  0  0  0  0  0  0
    9.5672   13.8380    1.2748 N   0  0  0  0  0  0  0  0  0  0  0  0
  1  2  1  0
  2  3  1  0
  3  4  2  0
  4  5  1  0
  5  6  1  0
  6  7  2  0
  7  8  1  0
  8  9  2  0
  9 10  1  0
 10 11  1  0
 11 12  1  0
 12 13  1  1
 12 14  1  0
 14 15  1  0
 15 16  2  0
 16 17  1  0
 17 18  2  0
 18 19  1  0
 19 20  1  0
 19 21  1  0
 21 22  2  0
 22 23  1  0
  9 24  1  0
 24 25  2  0
  5 26  2  0
 26  2  1  0
 25  6  1  0
 23 14  2  0
 22 17  1  0
M  END
>  <energy_score>  (3963) 
-34.813175

>  <inchikey>  (3963) 
KOBXWNWPTOGHSG-UHFFFAOYSA-N

>  <smiles>  (3963) 
Cn1ccc(-c2ccc(CNC(O)c3ccc4cn(C)nc4c3)cc2)n1

>  <ref_pdb>  (3963) 
A0514b

>  <alias>  (3963) 
KOBXWNWPTOGHSG-UHFFFAOYSA-N-P9-P9-P76-601504

>  <HIPPO Pose ID>  (3963) 
507530

>  <name>  (3963) 
KOBXWNWPTOGHSG-UHFFFAOYSA-N-P9-P9-P76-601504

>  <HIPPO Compound ID>  (3963) 
289729

>  <ref_mols>  (3963) 
A0486a,A0717a

>  <distance_score>  (3963) 
1.868266

>  <inspiration_score>  (3963) 
None

$$$$
KOBXWNWPTOGHSG-UHFFFAOYSA-N-P76-P9-P76-601504
     RDKit          3D

 26 29  0  0  0  0  0  0  0  0999 V2000
    8.5056   11.7951    1.1897 C   0  0  0  0  0  0  0  0  0  0  0  0
    8.7015   13.0819    1.8110 N   0  0  0  0  0  0  0  0  0  0  0  0
    8.0631   13.5643    2.9085 C   0  0  0  0  0  0  0  0  0  0  0  0
    8.6317   14.7914    3.1619 C   0  0  0  0  0  0  0  0  0  0  0  0
    9.6279   14.9695    2.1624 C   0  0  0  0  0  0  0  0  0  0  0  0
   10.6593   16.0123    2.0329 C   0  0  0  0  0  0  0  0  0  0  0  0
   11.4273   16.0889    0.8573 C   0  0  0  0  0  0  0  0  0  0  0  0
   12.5636   16.9089    0.7647 C   0  0  0  0  0  0  0  0  0  0  0  0
   12.9965   17.6586    1.8629 C   0  0  0  0  0  0  0  0  0  0  0  0
   14.2913   18.4694    1.8690 C   0  0  0  0  0  0  0  0  0  0  0  0
   15.2555   18.1076    0.8201 N   0  0  0  0  0  0  0  0  0  0  0  0
   16.6612   18.3972    1.1067 C   0  0  1  0  0  0  0  0  0  0  0  0
   16.7990   19.5460    1.9120 O   0  0  0  0  0  0  0  0  0  0  0  0
   17.4736   17.2428    1.7030 C   0  0  0  0  0  0  0  0  0  0  0  0
   16.8216   16.2514    2.5190 C   0  0  0  0  0  0  0  0  0  0  0  0
   17.4298   15.0967    3.0458 C   0  0  0  0  0  0  0  0  0  0  0  0
   18.7623   15.0472    2.6922 C   0  0  0  0  0  0  0  0  0  0  0  0
   19.6401   14.0735    3.0685 C   0  0  0  0  0  0  0  0  0  0  0  0
   20.8421   14.4718    2.5659 N   0  0  0  0  0  0  0  0  0  0  0  0
   22.1258   13.8465    2.7798 C   0  0  0  0  0  0  0  0  0  0  0  0
   20.7772   15.6085    1.8489 N   0  0  0  0  0  0  0  0  0  0  0  0
   19.4974   16.0045    1.9292 C   0  0  0  0  0  0  0  0  0  0  0  0
   18.8676   17.1508    1.4119 C   0  0  0  0  0  0  0  0  0  0  0  0
   12.1773   17.6549    3.0090 C   0  0  0  0  0  0  0  0  0  0  0  0
   11.0204   16.8532    3.0912 C   0  0  0  0  0  0  0  0  0  0  0  0
    9.6165   13.9264    1.3131 N   0  0  0  0  0  0  0  0  0  0  0  0
  1  2  1  0
  2  3  1  0
  3  4  2  0
  4  5  1  0
  5  6  1  0
  6  7  2  0
  7  8  1  0
  8  9  2  0
  9 10  1  0
 10 11  1  0
 11 12  1  0
 12 13  1  1
 12 14  1  0
 14 15  1  0
 15 16  2  0
 16 17  1  0
 17 18  2  0
 18 19  1  0
 19 20  1  0
 19 21  1  0
 21 22  2  0
 22 23  1  0
  9 24  1  0
 24 25  2  0
  5 26  2  0
 26  2  1  0
 25  6  1  0
 23 14  2  0
 22 17  1  0
M  END
>  <energy_score>  (3964) 
-36.209186

>  <inchikey>  (3964) 
KOBXWNWPTOGHSG-UHFFFAOYSA-N

>  <smiles>  (3964) 
Cn1ccc(-c2ccc(CNC(O)c3ccc4cn(C)nc4c3)cc2)n1

>  <ref_pdb>  (3964) 
A0514b

>  <alias>  (3964) 
KOBXWNWPTOGHSG-UHFFFAOYSA-N-P76-P9-P76-601504

>  <HIPPO Pose ID>  (3964) 
507531

>  <name>  (3964) 
KOBXWNWPTOGHSG-UHFFFAOYSA-N-P76-P9-P76-601504

>  <HIPPO Compound ID>  (3964) 
289729

>  <ref_mols>  (3964) 
A0486a,A0717a

>  <distance_score>  (3964) 
1.831225

>  <inspiration_score>  (3964) 
None

$$$$
UASTZKAZOIYVOI-UHFFFAOYSA-N-P9-P9-P76-601504
     RDKit          3D

 26 29  0  0  0  0  0  0  0  0999 V2000
   22.1884   14.0414    2.6247 C   0  0  0  0  0  0  0  0  0  0  0  0
   20.9245   14.6577    2.2976 N   0  0  0  0  0  0  0  0  0  0  0  0
   19.8956   14.1146    1.5862 C   0  0  0  0  0  0  0  0  0  0  0  0
   18.9468   15.0985    1.5452 C   0  0  0  0  0  0  0  0  0  0  0  0
   17.7333   15.0251    0.8900 C   0  0  0  0  0  0  0  0  0  0  0  0
   17.0283   16.2419    1.0066 C   0  0  0  0  0  0  0  0  0  0  0  0
   17.4636   17.3919    1.7572 C   0  0  0  0  0  0  0  0  0  0  0  0
   16.5682   18.6253    1.8800 C   0  0  1  0  0  0  0  0  0  0  0  0
   16.9076   19.4884    0.8196 O   0  0  0  0  0  0  0  0  0  0  0  0
   15.1297   18.4213    1.7815 N   0  0  0  0  0  0  0  0  0  0  0  0
   14.5551   17.7350    2.9349 C   0  0  0  0  0  0  0  0  0  0  0  0
   13.2206   17.0850    2.6078 C   0  0  0  0  0  0  0  0  0  0  0  0
   13.1968   15.8457    1.9585 C   0  0  0  0  0  0  0  0  0  0  0  0
   11.9854   15.1964    1.7022 C   0  0  0  0  0  0  0  0  0  0  0  0
   10.7544   15.7544    2.0928 C   0  0  0  0  0  0  0  0  0  0  0  0
    9.5419   14.9402    1.9681 C   0  0  0  0  0  0  0  0  0  0  0  0
    8.6289   14.5359    2.9299 C   0  0  0  0  0  0  0  0  0  0  0  0
    7.8886   13.5018    2.3308 C   0  0  0  0  0  0  0  0  0  0  0  0
    8.2195   13.3246    1.0529 N   0  0  0  0  0  0  0  0  0  0  0  0
    9.1735   14.2474    0.8354 N   0  0  0  0  0  0  0  0  0  0  0  0
    9.6896   14.3910   -0.5069 C   0  0  0  0  0  0  0  0  0  0  0  0
   10.7725   17.0021    2.7207 C   0  0  0  0  0  0  0  0  0  0  0  0
   11.9928   17.6664    2.9638 C   0  0  0  0  0  0  0  0  0  0  0  0
   18.7434   17.4146    2.3769 C   0  0  0  0  0  0  0  0  0  0  0  0
   19.4735   16.2229    2.2471 C   0  0  0  0  0  0  0  0  0  0  0  0
   20.6989   15.9225    2.6878 N   0  0  0  0  0  0  0  0  0  0  0  0
  1  2  1  0
  2  3  1  0
  3  4  2  0
  4  5  1  0
  5  6  2  0
  6  7  1  0
  7  8  1  0
  8  9  1  6
  8 10  1  0
 10 11  1  0
 11 12  1  0
 12 13  2  0
 13 14  1  0
 14 15  2  0
 15 16  1  0
 16 17  2  0
 17 18  1  0
 18 19  2  0
 19 20  1  0
 20 21  1  0
 15 22  1  0
 22 23  2  0
  7 24  2  0
 24 25  1  0
 25 26  2  0
 26  2  1  0
 25  4  1  0
 23 12  1  0
 20 16  1  0
M  END
>  <energy_score>  (3965) 
-44.309679

>  <inchikey>  (3965) 
UASTZKAZOIYVOI-UHFFFAOYSA-N

>  <smiles>  (3965) 
Cn1cc2ccc(C(O)NCc3ccc(-c4ccnn4C)cc3)cc2n1

>  <ref_pdb>  (3965) 
A0514b

>  <alias>  (3965) 
UASTZKAZOIYVOI-UHFFFAOYSA-N-P9-P9-P76-601504

>  <HIPPO Pose ID>  (3965) 
507532

>  <name>  (3965) 
UASTZKAZOIYVOI-UHFFFAOYSA-N-P9-P9-P76-601504

>  <HIPPO Compound ID>  (3965) 
289730

>  <ref_mols>  (3965) 
A0486a,A0717a

>  <distance_score>  (3965) 
1.83564

>  <inspiration_score>  (3965) 
None

$$$$
UASTZKAZOIYVOI-UHFFFAOYSA-N-P76-P9-P76-601504
     RDKit          3D

 26 29  0  0  0  0  0  0  0  0999 V2000
   22.0776   13.8764    2.7389 C   0  0  0  0  0  0  0  0  0  0  0  0
   20.8417   14.5422    2.4000 N   0  0  0  0  0  0  0  0  0  0  0  0
   19.8580   14.0858    1.5729 C   0  0  0  0  0  0  0  0  0  0  0  0
   18.9363   15.0957    1.5421 C   0  0  0  0  0  0  0  0  0  0  0  0
   17.7802   15.1143    0.7855 C   0  0  0  0  0  0  0  0  0  0  0  0
   17.0860   16.3302    0.9598 C   0  0  0  0  0  0  0  0  0  0  0  0
   17.4776   17.3920    1.8513 C   0  0  0  0  0  0  0  0  0  0  0  0
   16.5824   18.6172    2.0296 C   0  0  1  0  0  0  0  0  0  0  0  0
   16.8979   19.5175    0.9932 O   0  0  0  0  0  0  0  0  0  0  0  0
   15.1446   18.4013    1.9487 N   0  0  0  0  0  0  0  0  0  0  0  0
   14.6019   17.6564    3.0815 C   0  0  0  0  0  0  0  0  0  0  0  0
   13.2601   17.0216    2.7566 C   0  0  0  0  0  0  0  0  0  0  0  0
   13.2203   15.8314    2.0214 C   0  0  0  0  0  0  0  0  0  0  0  0
   12.0040   15.1894    1.7675 C   0  0  0  0  0  0  0  0  0  0  0  0
   10.7856   15.7079    2.2424 C   0  0  0  0  0  0  0  0  0  0  0  0
    9.5731   14.8971    2.1061 C   0  0  0  0  0  0  0  0  0  0  0  0
    8.7067   14.4118    3.0730 C   0  0  0  0  0  0  0  0  0  0  0  0
    7.9341   13.4328    2.4250 C   0  0  0  0  0  0  0  0  0  0  0  0
    8.2057   13.3601    1.1228 N   0  0  0  0  0  0  0  0  0  0  0  0
    9.1557   14.2952    0.9394 N   0  0  0  0  0  0  0  0  0  0  0  0
    9.6184   14.5427   -0.4071 C   0  0  0  0  0  0  0  0  0  0  0  0
   10.8192   16.9099    2.9540 C   0  0  0  0  0  0  0  0  0  0  0  0
   12.0434   17.5656    3.1992 C   0  0  0  0  0  0  0  0  0  0  0  0
   18.7029   17.3286    2.5698 C   0  0  0  0  0  0  0  0  0  0  0  0
   19.4209   16.1361    2.3895 C   0  0  0  0  0  0  0  0  0  0  0  0
   20.5986   15.7654    2.9014 N   0  0  0  0  0  0  0  0  0  0  0  0
  1  2  1  0
  2  3  1  0
  3  4  2  0
  4  5  1  0
  5  6  2  0
  6  7  1  0
  7  8  1  0
  8  9  1  6
  8 10  1  0
 10 11  1  0
 11 12  1  0
 12 13  2  0
 13 14  1  0
 14 15  2  0
 15 16  1  0
 16 17  2  0
 17 18  1  0
 18 19  2  0
 19 20  1  0
 20 21  1  0
 15 22  1  0
 22 23  2  0
  7 24  2  0
 24 25  1  0
 25 26  2  0
 26  2  1  0
 25  4  1  0
 23 12  1  0
 20 16  1  0
M  END
>  <energy_score>  (3966) 
-45.248508

>  <inchikey>  (3966) 
UASTZKAZOIYVOI-UHFFFAOYSA-N

>  <smiles>  (3966) 
Cn1cc2ccc(C(O)NCc3ccc(-c4ccnn4C)cc3)cc2n1

>  <ref_pdb>  (3966) 
A0514b

>  <alias>  (3966) 
UASTZKAZOIYVOI-UHFFFAOYSA-N-P76-P9-P76-601504

>  <HIPPO Pose ID>  (3966) 
507533

>  <name>  (3966) 
UASTZKAZOIYVOI-UHFFFAOYSA-N-P76-P9-P76-601504

>  <HIPPO Compound ID>  (3966) 
289730

>  <ref_mols>  (3966) 
A0486a,A0717a

>  <distance_score>  (3966) 
1.77571

>  <inspiration_score>  (3966) 
None

$$$$
ZTERLLUTVOVPKY-UHFFFAOYSA-N-P9-P9-P76-601504
     RDKit          3D

 27 30  0  0  0  0  0  0  0  0999 V2000
   22.9149   13.6012    1.5559 C   0  0  0  0  0  0  0  0  0  0  0  0
   22.2678   14.1770    2.7997 C   0  0  0  0  0  0  0  0  0  0  0  0
   20.9469   14.7135    2.5340 N   0  0  0  0  0  0  0  0  0  0  0  0
   19.7510   14.1886    2.9236 C   0  0  0  0  0  0  0  0  0  0  0  0
   18.8189   15.0974    2.5182 C   0  0  0  0  0  0  0  0  0  0  0  0
   17.4628   14.9971    2.7422 C   0  0  0  0  0  0  0  0  0  0  0  0
   16.8022   16.1434    2.2625 C   0  0  0  0  0  0  0  0  0  0  0  0
   17.4287   17.2794    1.6335 C   0  0  0  0  0  0  0  0  0  0  0  0
   16.5553   18.4592    1.1774 C   0  0  1  0  0  0  0  0  0  0  0  0
   17.0762   18.9675   -0.0365 O   0  0  0  0  0  0  0  0  0  0  0  0
   15.1798   18.1045    0.8673 N   0  0  0  0  0  0  0  0  0  0  0  0
   14.2354   18.3648    1.9642 C   0  0  0  0  0  0  0  0  0  0  0  0
   12.9528   17.5439    1.8750 C   0  0  0  0  0  0  0  0  0  0  0  0
   12.8312   16.4359    1.0305 C   0  0  0  0  0  0  0  0  0  0  0  0
   11.6870   15.6271    1.0618 C   0  0  0  0  0  0  0  0  0  0  0  0
   10.6208   15.8789    1.9444 C   0  0  0  0  0  0  0  0  0  0  0  0
    9.5387   14.8860    2.0620 C   0  0  0  0  0  0  0  0  0  0  0  0
    8.4564   14.8242    2.9831 C   0  0  0  0  0  0  0  0  0  0  0  0
    7.8667   13.5968    2.7851 C   0  0  0  0  0  0  0  0  0  0  0  0
    8.5728   13.0050    1.7871 N   0  0  0  0  0  0  0  0  0  0  0  0
    8.3822   11.6763    1.2588 C   0  0  0  0  0  0  0  0  0  0  0  0
    9.5562   13.7757    1.3037 N   0  0  0  0  0  0  0  0  0  0  0  0
   10.7200   17.0085    2.7640 C   0  0  0  0  0  0  0  0  0  0  0  0
   11.8709   17.8260    2.7301 C   0  0  0  0  0  0  0  0  0  0  0  0
   18.8438   17.3259    1.4625 C   0  0  0  0  0  0  0  0  0  0  0  0
   19.5247   16.1834    1.9181 C   0  0  0  0  0  0  0  0  0  0  0  0
   20.8367   15.9064    1.9206 N   0  0  0  0  0  0  0  0  0  0  0  0
  1  2  1  0
  2  3  1  0
  3  4  1  0
  4  5  2  0
  5  6  1  0
  6  7  2  0
  7  8  1  0
  8  9  1  0
  9 10  1  6
  9 11  1  0
 11 12  1  0
 12 13  1  0
 13 14  2  0
 14 15  1  0
 15 16  2  0
 16 17  1  0
 17 18  1  0
 18 19  2  0
 19 20  1  0
 20 21  1  0
 20 22  1  0
 16 23  1  0
 23 24  2  0
  8 25  2  0
 25 26  1  0
 26 27  2  0
 27  3  1  0
 26  5  1  0
 24 13  1  0
 22 17  2  0
M  END
>  <energy_score>  (3967) 
-41.463591

>  <inchikey>  (3967) 
ZTERLLUTVOVPKY-UHFFFAOYSA-N

>  <smiles>  (3967) 
CCn1cc2ccc(C(O)NCc3ccc(-c4ccn(C)n4)cc3)cc2n1

>  <ref_pdb>  (3967) 
A0514b

>  <alias>  (3967) 
ZTERLLUTVOVPKY-UHFFFAOYSA-N-P9-P9-P76-601504

>  <HIPPO Pose ID>  (3967) 
507534

>  <name>  (3967) 
ZTERLLUTVOVPKY-UHFFFAOYSA-N-P9-P9-P76-601504

>  <HIPPO Compound ID>  (3967) 
289731

>  <ref_mols>  (3967) 
A0486a,A0717a

>  <distance_score>  (3967) 
1.788231

>  <inspiration_score>  (3967) 
None

$$$$
ZTERLLUTVOVPKY-UHFFFAOYSA-N-P76-P9-P76-601504
     RDKit          3D

 27 30  0  0  0  0  0  0  0  0999 V2000
   22.8699   13.3791    1.4779 C   0  0  0  0  0  0  0  0  0  0  0  0
   22.2753   14.0161    2.7173 C   0  0  0  0  0  0  0  0  0  0  0  0
   20.9395   14.5338    2.4891 N   0  0  0  0  0  0  0  0  0  0  0  0
   19.7926   14.0966    3.0770 C   0  0  0  0  0  0  0  0  0  0  0  0
   18.8490   15.0154    2.7282 C   0  0  0  0  0  0  0  0  0  0  0  0
   17.5598   15.0314    3.2101 C   0  0  0  0  0  0  0  0  0  0  0  0
   16.8807   16.1568    2.7225 C   0  0  0  0  0  0  0  0  0  0  0  0
   17.4096   17.1352    1.7949 C   0  0  0  0  0  0  0  0  0  0  0  0
   16.4171   18.2244    1.3474 C   0  0  1  0  0  0  0  0  0  0  0  0
   16.8107   18.8421    0.1438 O   0  0  0  0  0  0  0  0  0  0  0  0
   15.1107   17.6310    1.1368 N   0  0  0  0  0  0  0  0  0  0  0  0
   13.9711   18.5327    1.2177 C   0  0  0  0  0  0  0  0  0  0  0  0
   12.6958   17.7233    1.4160 C   0  0  0  0  0  0  0  0  0  0  0  0
   12.0067   17.7201    2.6410 C   0  0  0  0  0  0  0  0  0  0  0  0
   10.9087   16.8638    2.8613 C   0  0  0  0  0  0  0  0  0  0  0  0
   10.4898   15.9699    1.8681 C   0  0  0  0  0  0  0  0  0  0  0  0
    9.5189   14.8962    2.1273 C   0  0  0  0  0  0  0  0  0  0  0  0
    8.5711   14.7569    3.1774 C   0  0  0  0  0  0  0  0  0  0  0  0
    8.0407   13.4951    3.0362 C   0  0  0  0  0  0  0  0  0  0  0  0
    8.6581   12.9543    1.9537 N   0  0  0  0  0  0  0  0  0  0  0  0
    8.4957   11.6158    1.4415 C   0  0  0  0  0  0  0  0  0  0  0  0
    9.5170   13.7932    1.3578 N   0  0  0  0  0  0  0  0  0  0  0  0
   11.1432   16.0248    0.6238 C   0  0  0  0  0  0  0  0  0  0  0  0
   12.2222   16.8897    0.3965 C   0  0  0  0  0  0  0  0  0  0  0  0
   18.7614   17.0692    1.3577 C   0  0  0  0  0  0  0  0  0  0  0  0
   19.4777   15.9674    1.8689 C   0  0  0  0  0  0  0  0  0  0  0  0
   20.7681   15.6262    1.7173 N   0  0  0  0  0  0  0  0  0  0  0  0
  1  2  1  0
  2  3  1  0
  3  4  1  0
  4  5  2  0
  5  6  1  0
  6  7  2  0
  7  8  1  0
  8  9  1  0
  9 10  1  6
  9 11  1  0
 11 12  1  0
 12 13  1  0
 13 14  2  0
 14 15  1  0
 15 16  2  0
 16 17  1  0
 17 18  1  0
 18 19  2  0
 19 20  1  0
 20 21  1  0
 20 22  1  0
 16 23  1  0
 23 24  2  0
  8 25  2  0
 25 26  1  0
 26 27  2  0
 27  3  1  0
 26  5  1  0
 24 13  1  0
 22 17  2  0
M  END
>  <energy_score>  (3968) 
-38.876148

>  <inchikey>  (3968) 
ZTERLLUTVOVPKY-UHFFFAOYSA-N

>  <smiles>  (3968) 
CCn1cc2ccc(C(O)NCc3ccc(-c4ccn(C)n4)cc3)cc2n1

>  <ref_pdb>  (3968) 
A0514b

>  <alias>  (3968) 
ZTERLLUTVOVPKY-UHFFFAOYSA-N-P76-P9-P76-601504

>  <HIPPO Pose ID>  (3968) 
507535

>  <name>  (3968) 
ZTERLLUTVOVPKY-UHFFFAOYSA-N-P76-P9-P76-601504

>  <HIPPO Compound ID>  (3968) 
289731

>  <ref_mols>  (3968) 
A0486a,A0717a

>  <distance_score>  (3968) 
1.762835

>  <inspiration_score>  (3968) 
None

$$$$
AVXNAUFQWXBNEI-UHFFFAOYSA-N-P9-P9-P76-601504
     RDKit          3D

 27 30  0  0  0  0  0  0  0  0999 V2000
   22.9993   13.5547    1.5266 C   0  0  0  0  0  0  0  0  0  0  0  0
   22.3182   14.1436    2.7455 C   0  0  0  0  0  0  0  0  0  0  0  0
   20.9788   14.6201    2.4585 N   0  0  0  0  0  0  0  0  0  0  0  0
   19.8129   14.1589    2.9939 C   0  0  0  0  0  0  0  0  0  0  0  0
   18.8670   15.0582    2.5973 C   0  0  0  0  0  0  0  0  0  0  0  0
   17.5543   15.0587    3.0167 C   0  0  0  0  0  0  0  0  0  0  0  0
   16.8945   16.2029    2.5373 C   0  0  0  0  0  0  0  0  0  0  0  0
   17.4660   17.2181    1.6796 C   0  0  0  0  0  0  0  0  0  0  0  0
   16.5337   18.3652    1.2603 C   0  0  1  0  0  0  0  0  0  0  0  0
   17.0070   19.0462    0.1175 O   0  0  0  0  0  0  0  0  0  0  0  0
   15.2132   17.8701    0.9087 N   0  0  0  0  0  0  0  0  0  0  0  0
   14.1360   18.3557    1.7723 C   0  0  0  0  0  0  0  0  0  0  0  0
   12.9060   17.4550    1.7600 C   0  0  0  0  0  0  0  0  0  0  0  0
   12.9878   16.1023    1.4107 C   0  0  0  0  0  0  0  0  0  0  0  0
   11.8619   15.2749    1.4723 C   0  0  0  0  0  0  0  0  0  0  0  0
   10.6113   15.7638    1.8867 C   0  0  0  0  0  0  0  0  0  0  0  0
    9.4759   14.8423    1.9467 C   0  0  0  0  0  0  0  0  0  0  0  0
    8.6187   14.5142    2.9840 C   0  0  0  0  0  0  0  0  0  0  0  0
    7.9283   13.3683    2.5481 C   0  0  0  0  0  0  0  0  0  0  0  0
    8.2324   13.0488    1.2915 N   0  0  0  0  0  0  0  0  0  0  0  0
    9.1090   13.9970    0.9207 N   0  0  0  0  0  0  0  0  0  0  0  0
    9.5529   14.0133   -0.4552 C   0  0  0  0  0  0  0  0  0  0  0  0
   10.5255   17.1037    2.2644 C   0  0  0  0  0  0  0  0  0  0  0  0
   11.6596   17.9391    2.1994 C   0  0  0  0  0  0  0  0  0  0  0  0
   18.8321   17.1533    1.2900 C   0  0  0  0  0  0  0  0  0  0  0  0
   19.5255   16.0366    1.7934 C   0  0  0  0  0  0  0  0  0  0  0  0
   20.8209   15.7095    1.6827 N   0  0  0  0  0  0  0  0  0  0  0  0
  1  2  1  0
  2  3  1  0
  3  4  1  0
  4  5  2  0
  5  6  1  0
  6  7  2  0
  7  8  1  0
  8  9  1  0
  9 10  1  6
  9 11  1  0
 11 12  1  0
 12 13  1  0
 13 14  2  0
 14 15  1  0
 15 16  2  0
 16 17  1  0
 17 18  2  0
 18 19  1  0
 19 20  2  0
 20 21  1  0
 21 22  1  0
 16 23  1  0
 23 24  2  0
  8 25  2  0
 25 26  1  0
 26 27  2  0
 27  3  1  0
 26  5  1  0
 24 13  1  0
 21 17  1  0
M  END
>  <energy_score>  (3969) 
-30.817119

>  <inchikey>  (3969) 
AVXNAUFQWXBNEI-UHFFFAOYSA-N

>  <smiles>  (3969) 
CCn1cc2ccc(C(O)NCc3ccc(-c4ccnn4C)cc3)cc2n1

>  <ref_pdb>  (3969) 
A0514b

>  <alias>  (3969) 
AVXNAUFQWXBNEI-UHFFFAOYSA-N-P9-P9-P76-601504

>  <HIPPO Pose ID>  (3969) 
507536

>  <name>  (3969) 
AVXNAUFQWXBNEI-UHFFFAOYSA-N-P9-P9-P76-601504

>  <HIPPO Compound ID>  (3969) 
289732

>  <ref_mols>  (3969) 
A0486a,A0717a

>  <distance_score>  (3969) 
1.75667

>  <inspiration_score>  (3969) 
None

$$$$
AVXNAUFQWXBNEI-UHFFFAOYSA-N-P76-P9-P76-601504
     RDKit          3D

 27 30  0  0  0  0  0  0  0  0999 V2000
   23.0367   13.4404    1.6351 C   0  0  0  0  0  0  0  0  0  0  0  0
   22.2664   14.0192    2.8068 C   0  0  0  0  0  0  0  0  0  0  0  0
   21.0117   14.6405    2.4241 N   0  0  0  0  0  0  0  0  0  0  0  0
   20.0027   14.0866    1.6906 C   0  0  0  0  0  0  0  0  0  0  0  0
   19.0278   15.0430    1.6628 C   0  0  0  0  0  0  0  0  0  0  0  0
   17.8139   14.9285    1.0177 C   0  0  0  0  0  0  0  0  0  0  0  0
   17.0322   16.0736    1.2477 C   0  0  0  0  0  0  0  0  0  0  0  0
   17.4144   17.1978    2.0741 C   0  0  0  0  0  0  0  0  0  0  0  0
   16.3444   18.2587    2.3726 C   0  0  1  0  0  0  0  0  0  0  0  0
   16.2145   19.1160    1.2584 O   0  0  0  0  0  0  0  0  0  0  0  0
   15.0869   17.5847    2.6542 N   0  0  0  0  0  0  0  0  0  0  0  0
   13.8897   18.4156    2.7200 C   0  0  0  0  0  0  0  0  0  0  0  0
   12.6466   17.5363    2.6297 C   0  0  0  0  0  0  0  0  0  0  0  0
   12.5839   16.5220    1.6653 C   0  0  0  0  0  0  0  0  0  0  0  0
   11.4675   15.6895    1.5653 C   0  0  0  0  0  0  0  0  0  0  0  0
   10.3457   15.8653    2.3900 C   0  0  0  0  0  0  0  0  0  0  0  0
    9.2493   14.8933    2.3213 C   0  0  0  0  0  0  0  0  0  0  0  0
    8.5624   14.2361    3.3305 C   0  0  0  0  0  0  0  0  0  0  0  0
    7.8730   13.1883    2.6956 C   0  0  0  0  0  0  0  0  0  0  0  0
    8.0077   13.2327    1.3714 N   0  0  0  0  0  0  0  0  0  0  0  0
    8.7558   14.3309    1.1619 N   0  0  0  0  0  0  0  0  0  0  0  0
    8.9252   14.7816   -0.2010 C   0  0  0  0  0  0  0  0  0  0  0  0
   10.3901   16.8950    3.3369 C   0  0  0  0  0  0  0  0  0  0  0  0
   11.5272   17.7228    3.4548 C   0  0  0  0  0  0  0  0  0  0  0  0
   18.7072   17.2920    2.6438 C   0  0  0  0  0  0  0  0  0  0  0  0
   19.5010   16.1540    2.4253 C   0  0  0  0  0  0  0  0  0  0  0  0
   20.7425   15.8915    2.8451 N   0  0  0  0  0  0  0  0  0  0  0  0
  1  2  1  0
  2  3  1  0
  3  4  1  0
  4  5  2  0
  5  6  1  0
  6  7  2  0
  7  8  1  0
  8  9  1  0
  9 10  1  6
  9 11  1  0
 11 12  1  0
 12 13  1  0
 13 14  2  0
 14 15  1  0
 15 16  2  0
 16 17  1  0
 17 18  2  0
 18 19  1  0
 19 20  2  0
 20 21  1  0
 21 22  1  0
 16 23  1  0
 23 24  2  0
  8 25  2  0
 25 26  1  0
 26 27  2  0
 27  3  1  0
 26  5  1  0
 24 13  1  0
 21 17  1  0
M  END
>  <energy_score>  (3970) 
-33.321518

>  <inchikey>  (3970) 
AVXNAUFQWXBNEI-UHFFFAOYSA-N

>  <smiles>  (3970) 
CCn1cc2ccc(C(O)NCc3ccc(-c4ccnn4C)cc3)cc2n1

>  <ref_pdb>  (3970) 
A0514b

>  <alias>  (3970) 
AVXNAUFQWXBNEI-UHFFFAOYSA-N-P76-P9-P76-601504

>  <HIPPO Pose ID>  (3970) 
507537

>  <name>  (3970) 
AVXNAUFQWXBNEI-UHFFFAOYSA-N-P76-P9-P76-601504

>  <HIPPO Compound ID>  (3970) 
289732

>  <ref_mols>  (3970) 
A0486a,A0717a

>  <distance_score>  (3970) 
1.674479

>  <inspiration_score>  (3970) 
None

$$$$
OIYXNSPPLDNRNG-UHFFFAOYSA-N-P9-P9-P76-601504
     RDKit          3D

 27 30  0  0  0  0  0  0  0  0999 V2000
   18.5245   19.5554   -0.9854 C   0  0  0  0  0  0  0  0  0  0  0  0
   17.8212   18.3856   -0.5940 O   0  0  0  0  0  0  0  0  0  0  0  0
   17.2689   18.4886    0.7129 C   0  0  1  0  0  0  0  0  0  0  0  0
   15.7910   18.5810    0.6232 N   0  0  0  0  0  0  0  0  0  0  0  0
   15.1741   17.4700   -0.1186 C   0  0  0  0  0  0  0  0  0  0  0  0
   13.8897   16.9271    0.5102 C   0  0  0  0  0  0  0  0  0  0  0  0
   12.6828   17.6465    0.5296 C   0  0  0  0  0  0  0  0  0  0  0  0
   11.4728   17.0496    0.9652 C   0  0  0  0  0  0  0  0  0  0  0  0
   11.4397   15.7174    1.3901 C   0  0  0  0  0  0  0  0  0  0  0  0
   10.1913   14.9895    1.6500 C   0  0  0  0  0  0  0  0  0  0  0  0
    9.2021   15.1358    2.6077 C   0  0  0  0  0  0  0  0  0  0  0  0
    8.3583   14.0183    2.4503 C   0  0  0  0  0  0  0  0  0  0  0  0
    8.7194   13.2607    1.4176 N   0  0  0  0  0  0  0  0  0  0  0  0
    9.7887   13.8947    0.9102 N   0  0  0  0  0  0  0  0  0  0  0  0
   10.3893   13.3670   -0.2950 C   0  0  0  0  0  0  0  0  0  0  0  0
   12.6622   15.0257    1.4394 C   0  0  0  0  0  0  0  0  0  0  0  0
   13.8619   15.6165    1.0077 C   0  0  0  0  0  0  0  0  0  0  0  0
   17.7515   17.3330    1.6006 C   0  0  0  0  0  0  0  0  0  0  0  0
   16.8828   16.9264    2.6236 C   0  0  0  0  0  0  0  0  0  0  0  0
   17.0532   15.7250    3.2898 C   0  0  0  0  0  0  0  0  0  0  0  0
   18.1741   14.9550    2.9867 C   0  0  0  0  0  0  0  0  0  0  0  0
   18.6129   13.6824    3.3679 C   0  0  0  0  0  0  0  0  0  0  0  0
   19.8019   13.3787    2.8634 N   0  0  0  0  0  0  0  0  0  0  0  0
   20.1813   14.5205    2.2487 N   0  0  0  0  0  0  0  0  0  0  0  0
   21.5660   14.6422    1.8620 C   0  0  0  0  0  0  0  0  0  0  0  0
   19.1665   15.4500    2.1431 C   0  0  0  0  0  0  0  0  0  0  0  0
   18.9825   16.6499    1.4224 C   0  0  0  0  0  0  0  0  0  0  0  0
  1  2  1  0
  2  3  1  0
  3  4  1  6
  4  5  1  0
  5  6  1  0
  6  7  2  0
  7  8  1  0
  8  9  2  0
  9 10  1  0
 10 11  2  0
 11 12  1  0
 12 13  2  0
 13 14  1  0
 14 15  1  0
  9 16  1  0
 16 17  2  0
  3 18  1  0
 18 19  2  0
 19 20  1  0
 20 21  2  0
 21 22  1  0
 22 23  2  0
 23 24  1  0
 24 25  1  0
 24 26  1  0
 26 27  2  0
 17  6  1  0
 27 18  1  0
 14 10  1  0
 26 21  1  0
M  END
>  <energy_score>  (3971) 
-16.910127

>  <inchikey>  (3971) 
OIYXNSPPLDNRNG-UHFFFAOYSA-N

>  <smiles>  (3971) 
COC(NCc1ccc(-c2ccnn2C)cc1)c1ccc2cnn(C)c2c1

>  <ref_pdb>  (3971) 
A0514b

>  <alias>  (3971) 
OIYXNSPPLDNRNG-UHFFFAOYSA-N-P9-P9-P76-601504

>  <HIPPO Pose ID>  (3971) 
507538

>  <name>  (3971) 
OIYXNSPPLDNRNG-UHFFFAOYSA-N-P9-P9-P76-601504

>  <HIPPO Compound ID>  (3971) 
289733

>  <ref_mols>  (3971) 
A0486a,A0717a

>  <distance_score>  (3971) 
1.900356

>  <inspiration_score>  (3971) 
None

$$$$
OIYXNSPPLDNRNG-UHFFFAOYSA-N-P76-P9-P76-601504
     RDKit          3D

 27 30  0  0  0  0  0  0  0  0999 V2000
   18.5858   19.4868   -0.8006 C   0  0  0  0  0  0  0  0  0  0  0  0
   17.8870   18.3114   -0.4181 O   0  0  0  0  0  0  0  0  0  0  0  0
   17.3269   18.4054    0.8864 C   0  0  1  0  0  0  0  0  0  0  0  0
   15.8521   18.5232    0.7897 N   0  0  0  0  0  0  0  0  0  0  0  0
   15.2241   17.4319    0.0284 C   0  0  0  0  0  0  0  0  0  0  0  0
   13.9409   16.8825    0.6522 C   0  0  0  0  0  0  0  0  0  0  0  0
   12.7519   17.6259    0.7441 C   0  0  0  0  0  0  0  0  0  0  0  0
   11.5380   17.0303    1.1706 C   0  0  0  0  0  0  0  0  0  0  0  0
   11.4832   15.6750    1.5106 C   0  0  0  0  0  0  0  0  0  0  0  0
   10.2271   14.9594    1.7639 C   0  0  0  0  0  0  0  0  0  0  0  0
    9.2898   15.0432    2.7791 C   0  0  0  0  0  0  0  0  0  0  0  0
    8.4144   13.9586    2.5729 C   0  0  0  0  0  0  0  0  0  0  0  0
    8.7054   13.2842    1.4629 N   0  0  0  0  0  0  0  0  0  0  0  0
    9.7684   13.9337    0.9608 N   0  0  0  0  0  0  0  0  0  0  0  0
   10.3095   13.4873   -0.3038 C   0  0  0  0  0  0  0  0  0  0  0  0
   12.6892   14.9537    1.4839 C   0  0  0  0  0  0  0  0  0  0  0  0
   13.8931   15.5436    1.0648 C   0  0  0  0  0  0  0  0  0  0  0  0
   17.7855   17.2314    1.7614 C   0  0  0  0  0  0  0  0  0  0  0  0
   16.9124   16.8312    2.7834 C   0  0  0  0  0  0  0  0  0  0  0  0
   17.0727   15.6292    3.4547 C   0  0  0  0  0  0  0  0  0  0  0  0
   18.1826   14.8429    3.1502 C   0  0  0  0  0  0  0  0  0  0  0  0
   18.6071   13.5617    3.5290 C   0  0  0  0  0  0  0  0  0  0  0  0
   19.7971   13.2527    3.0277 N   0  0  0  0  0  0  0  0  0  0  0  0
   20.1777   14.3836    2.3935 N   0  0  0  0  0  0  0  0  0  0  0  0
   21.5541   14.4852    1.9722 C   0  0  0  0  0  0  0  0  0  0  0  0
   19.1745   15.3263    2.2984 C   0  0  0  0  0  0  0  0  0  0  0  0
   19.0039   16.5293    1.5781 C   0  0  0  0  0  0  0  0  0  0  0  0
  1  2  1  0
  2  3  1  0
  3  4  1  6
  4  5  1  0
  5  6  1  0
  6  7  2  0
  7  8  1  0
  8  9  2  0
  9 10  1  0
 10 11  2  0
 11 12  1  0
 12 13  2  0
 13 14  1  0
 14 15  1  0
  9 16  1  0
 16 17  2  0
  3 18  1  0
 18 19  2  0
 19 20  1  0
 20 21  2  0
 21 22  1  0
 22 23  2  0
 23 24  1  0
 24 25  1  0
 24 26  1  0
 26 27  2  0
 17  6  1  0
 27 18  1  0
 14 10  1  0
 26 21  1  0
M  END
>  <energy_score>  (3972) 
-17.767573

>  <inchikey>  (3972) 
OIYXNSPPLDNRNG-UHFFFAOYSA-N

>  <smiles>  (3972) 
COC(NCc1ccc(-c2ccnn2C)cc1)c1ccc2cnn(C)c2c1

>  <ref_pdb>  (3972) 
A0514b

>  <alias>  (3972) 
OIYXNSPPLDNRNG-UHFFFAOYSA-N-P76-P9-P76-601504

>  <HIPPO Pose ID>  (3972) 
507539

>  <name>  (3972) 
OIYXNSPPLDNRNG-UHFFFAOYSA-N-P76-P9-P76-601504

>  <HIPPO Compound ID>  (3972) 
289733

>  <ref_mols>  (3972) 
A0486a,A0717a

>  <distance_score>  (3972) 
1.868391

>  <inspiration_score>  (3972) 
None

$$$$
CAOASTGJPQYTPM-UHFFFAOYSA-N-P9-P9-P76-601504
     RDKit          3D

 27 30  0  0  0  0  0  0  0  0999 V2000
   18.7360   19.7612   -0.3159 C   0  0  0  0  0  0  0  0  0  0  0  0
   17.9398   18.5945   -0.4679 O   0  0  0  0  0  0  0  0  0  0  0  0
   17.0906   18.3594    0.6507 C   0  0  1  0  0  0  0  0  0  0  0  0
   15.8000   17.9029    0.1162 N   0  0  0  0  0  0  0  0  0  0  0  0
   14.6074   18.5439    0.6848 C   0  0  0  0  0  0  0  0  0  0  0  0
   13.4187   17.6109    0.9333 C   0  0  0  0  0  0  0  0  0  0  0  0
   13.4499   16.2394    0.6661 C   0  0  0  0  0  0  0  0  0  0  0  0
   12.3365   15.4198    0.9398 C   0  0  0  0  0  0  0  0  0  0  0  0
   11.1449   15.9260    1.4975 C   0  0  0  0  0  0  0  0  0  0  0  0
   10.0200   15.0110    1.7709 C   0  0  0  0  0  0  0  0  0  0  0  0
    8.8929   15.1778    2.6243 C   0  0  0  0  0  0  0  0  0  0  0  0
    8.2140   13.9808    2.5905 C   0  0  0  0  0  0  0  0  0  0  0  0
    8.9140   13.1842    1.7415 N   0  0  0  0  0  0  0  0  0  0  0  0
    8.6267   11.8113    1.4028 C   0  0  0  0  0  0  0  0  0  0  0  0
    9.9946   13.7843    1.2216 N   0  0  0  0  0  0  0  0  0  0  0  0
   11.1108   17.2966    1.7700 C   0  0  0  0  0  0  0  0  0  0  0  0
   12.2270   18.1225    1.4887 C   0  0  0  0  0  0  0  0  0  0  0  0
   17.6768   17.2761    1.5696 C   0  0  0  0  0  0  0  0  0  0  0  0
   16.8191   16.8319    2.5874 C   0  0  0  0  0  0  0  0  0  0  0  0
   17.0405   15.6472    3.2671 C   0  0  0  0  0  0  0  0  0  0  0  0
   18.1982   14.9296    2.9805 C   0  0  0  0  0  0  0  0  0  0  0  0
   18.6857   13.6803    3.3748 C   0  0  0  0  0  0  0  0  0  0  0  0
   19.8941   13.4254    2.8914 N   0  0  0  0  0  0  0  0  0  0  0  0
   20.2157   14.5611    2.2349 N   0  0  0  0  0  0  0  0  0  0  0  0
   21.5830   14.7111    1.8018 C   0  0  0  0  0  0  0  0  0  0  0  0
   19.1699   15.4560    2.1325 C   0  0  0  0  0  0  0  0  0  0  0  0
   18.9334   16.6384    1.3951 C   0  0  0  0  0  0  0  0  0  0  0  0
  1  2  1  0
  2  3  1  0
  3  4  1  6
  4  5  1  0
  5  6  1  0
  6  7  2  0
  7  8  1  0
  8  9  2  0
  9 10  1  0
 10 11  1  0
 11 12  2  0
 12 13  1  0
 13 14  1  0
 13 15  1  0
  9 16  1  0
 16 17  2  0
  3 18  1  0
 18 19  2  0
 19 20  1  0
 20 21  2  0
 21 22  1  0
 22 23  2  0
 23 24  1  0
 24 25  1  0
 24 26  1  0
 26 27  2  0
 17  6  1  0
 27 18  1  0
 15 10  2  0
 26 21  1  0
M  END
>  <energy_score>  (3973) 
-19.258988

>  <inchikey>  (3973) 
CAOASTGJPQYTPM-UHFFFAOYSA-N

>  <smiles>  (3973) 
COC(NCc1ccc(-c2ccn(C)n2)cc1)c1ccc2cnn(C)c2c1

>  <ref_pdb>  (3973) 
A0514b

>  <alias>  (3973) 
CAOASTGJPQYTPM-UHFFFAOYSA-N-P9-P9-P76-601504

>  <HIPPO Pose ID>  (3973) 
507540

>  <name>  (3973) 
CAOASTGJPQYTPM-UHFFFAOYSA-N-P9-P9-P76-601504

>  <HIPPO Compound ID>  (3973) 
289734

>  <ref_mols>  (3973) 
A0486a,A0717a

>  <distance_score>  (3973) 
1.861934

>  <inspiration_score>  (3973) 
None

$$$$
CAOASTGJPQYTPM-UHFFFAOYSA-N-P76-P9-P76-601504
     RDKit          3D

 27 30  0  0  0  0  0  0  0  0999 V2000
   18.8300   19.6700   -0.0809 C   0  0  0  0  0  0  0  0  0  0  0  0
   18.0034   18.5303   -0.2715 O   0  0  0  0  0  0  0  0  0  0  0  0
   17.1425   18.2850    0.8365 C   0  0  1  0  0  0  0  0  0  0  0  0
   15.8511   17.8554    0.2834 N   0  0  0  0  0  0  0  0  0  0  0  0
   14.6623   18.4947    0.8617 C   0  0  0  0  0  0  0  0  0  0  0  0
   13.4698   17.5643    1.0990 C   0  0  0  0  0  0  0  0  0  0  0  0
   13.4729   16.2103    0.7537 C   0  0  0  0  0  0  0  0  0  0  0  0
   12.3558   15.3920    1.0132 C   0  0  0  0  0  0  0  0  0  0  0  0
   11.1882   15.8823    1.6324 C   0  0  0  0  0  0  0  0  0  0  0  0
   10.0638   14.9650    1.8970 C   0  0  0  0  0  0  0  0  0  0  0  0
    8.9723   15.0954    2.8012 C   0  0  0  0  0  0  0  0  0  0  0  0
    8.2858   13.9040    2.7369 C   0  0  0  0  0  0  0  0  0  0  0  0
    8.9510   13.1449    1.8278 N   0  0  0  0  0  0  0  0  0  0  0  0
    8.6593   11.7824    1.4541 C   0  0  0  0  0  0  0  0  0  0  0  0
   10.0029   13.7713    1.2813 N   0  0  0  0  0  0  0  0  0  0  0  0
   11.1814   17.2357    1.9811 C   0  0  0  0  0  0  0  0  0  0  0  0
   12.3011   18.0610    1.7138 C   0  0  0  0  0  0  0  0  0  0  0  0
   17.7067   17.1808    1.7420 C   0  0  0  0  0  0  0  0  0  0  0  0
   16.8448   16.7434    2.7594 C   0  0  0  0  0  0  0  0  0  0  0  0
   17.0510   15.5533    3.4378 C   0  0  0  0  0  0  0  0  0  0  0  0
   18.1947   14.8156    3.1442 C   0  0  0  0  0  0  0  0  0  0  0  0
   18.6602   13.5503    3.5235 C   0  0  0  0  0  0  0  0  0  0  0  0
   19.8693   13.2876    3.0422 N   0  0  0  0  0  0  0  0  0  0  0  0
   20.2018   14.4212    2.3854 N   0  0  0  0  0  0  0  0  0  0  0  0
   21.5660   14.5564    1.9373 C   0  0  0  0  0  0  0  0  0  0  0  0
   19.1693   15.3318    2.2926 C   0  0  0  0  0  0  0  0  0  0  0  0
   18.9501   16.5215    1.5603 C   0  0  0  0  0  0  0  0  0  0  0  0
  1  2  1  0
  2  3  1  0
  3  4  1  6
  4  5  1  0
  5  6  1  0
  6  7  2  0
  7  8  1  0
  8  9  2  0
  9 10  1  0
 10 11  1  0
 11 12  2  0
 12 13  1  0
 13 14  1  0
 13 15  1  0
  9 16  1  0
 16 17  2  0
  3 18  1  0
 18 19  2  0
 19 20  1  0
 20 21  2  0
 21 22  1  0
 22 23  2  0
 23 24  1  0
 24 25  1  0
 24 26  1  0
 26 27  2  0
 17  6  1  0
 27 18  1  0
 15 10  2  0
 26 21  1  0
M  END
>  <energy_score>  (3974) 
-19.605149

>  <inchikey>  (3974) 
CAOASTGJPQYTPM-UHFFFAOYSA-N

>  <smiles>  (3974) 
COC(NCc1ccc(-c2ccn(C)n2)cc1)c1ccc2cnn(C)c2c1

>  <ref_pdb>  (3974) 
A0514b

>  <alias>  (3974) 
CAOASTGJPQYTPM-UHFFFAOYSA-N-P76-P9-P76-601504

>  <HIPPO Pose ID>  (3974) 
507541

>  <name>  (3974) 
CAOASTGJPQYTPM-UHFFFAOYSA-N-P76-P9-P76-601504

>  <HIPPO Compound ID>  (3974) 
289734

>  <ref_mols>  (3974) 
A0486a,A0717a

>  <distance_score>  (3974) 
1.879842

>  <inspiration_score>  (3974) 
None

$$$$
LDPZOZJNFOIANG-UHFFFAOYSA-N-P9-P9-P76-601504
     RDKit          3D

 27 30  0  0  0  0  0  0  0  0999 V2000
    8.7167   14.3235   -0.4199 C   0  0  0  0  0  0  0  0  0  0  0  0
    8.4800   13.9567    0.9578 N   0  0  0  0  0  0  0  0  0  0  0  0
    7.6832   12.9035    1.2041 N   0  0  0  0  0  0  0  0  0  0  0  0
    7.5522   12.9041    2.5300 C   0  0  0  0  0  0  0  0  0  0  0  0
    8.2793   13.9442    3.1322 C   0  0  0  0  0  0  0  0  0  0  0  0
    8.9748   14.5478    2.0978 C   0  0  0  0  0  0  0  0  0  0  0  0
   10.1093   15.4632    2.1347 C   0  0  0  0  0  0  0  0  0  0  0  0
   10.1303   16.5989    2.9458 C   0  0  0  0  0  0  0  0  0  0  0  0
   11.3086   17.3511    3.0756 C   0  0  0  0  0  0  0  0  0  0  0  0
   12.4863   16.9768    2.4048 C   0  0  0  0  0  0  0  0  0  0  0  0
   13.7312   17.8327    2.4926 C   0  0  0  0  0  0  0  0  0  0  0  0
   14.9763   17.0472    2.3677 N   0  0  0  0  0  0  0  0  0  0  0  0
   16.0668   17.9126    1.9639 C   0  0  2  0  0  0  0  0  0  0  0  0
   15.8110   18.3317    0.6390 O   0  0  0  0  0  0  0  0  0  0  0  0
   17.4669   17.3001    1.9588 C   0  0  0  0  0  0  0  0  0  0  0  0
   18.5079   18.1901    1.5229 C   0  0  0  0  0  0  0  0  0  0  0  0
   19.8590   17.8481    1.4375 C   0  0  0  0  0  0  0  0  0  0  0  0
   20.0802   16.5426    1.8443 C   0  0  0  0  0  0  0  0  0  0  0  0
   21.2993   15.9403    1.9186 C   0  0  0  0  0  0  0  0  0  0  0  0
   22.9969   16.6642    1.4445 Br  0  0  0  0  0  0  0  0  0  0  0  0
   21.0495   14.7187    2.4670 N   0  0  0  0  0  0  0  0  0  0  0  0
   22.0557   13.8131    2.9592 C   0  0  0  0  0  0  0  0  0  0  0  0
   19.7246   14.4357    2.6252 N   0  0  0  0  0  0  0  0  0  0  0  0
   19.1037   15.5856    2.2934 C   0  0  0  0  0  0  0  0  0  0  0  0
   17.7457   15.9556    2.3478 C   0  0  0  0  0  0  0  0  0  0  0  0
   12.4471   15.8581    1.5675 C   0  0  0  0  0  0  0  0  0  0  0  0
   11.2810   15.1061    1.4464 C   0  0  0  0  0  0  0  0  0  0  0  0
  1  2  1  0
  2  3  1  0
  3  4  2  0
  4  5  1  0
  5  6  2  0
  6  7  1  0
  7  8  2  0
  8  9  1  0
  9 10  2  0
 10 11  1  0
 11 12  1  0
 12 13  1  0
 13 14  1  6
 13 15  1  0
 15 16  1  0
 16 17  2  0
 17 18  1  0
 18 19  2  0
 19 20  1  0
 19 21  1  0
 21 22  1  0
 21 23  1  0
 23 24  2  0
 24 25  1  0
 10 26  1  0
 26 27  2  0
  6  2  1  0
 27  7  1  0
 25 15  2  0
 24 18  1  0
M  END
>  <energy_score>  (3975) 
-39.551734

>  <inchikey>  (3975) 
LDPZOZJNFOIANG-UHFFFAOYSA-N

>  <smiles>  (3975) 
Cn1nccc1-c1ccc(CNC(O)c2ccc3c(Br)n(C)nc3c2)cc1

>  <ref_pdb>  (3975) 
A0514b

>  <alias>  (3975) 
LDPZOZJNFOIANG-UHFFFAOYSA-N-P9-P9-P76-601504

>  <HIPPO Pose ID>  (3975) 
507542

>  <name>  (3975) 
LDPZOZJNFOIANG-UHFFFAOYSA-N-P9-P9-P76-601504

>  <HIPPO Compound ID>  (3975) 
289735

>  <ref_mols>  (3975) 
A0486a,A0717a

>  <distance_score>  (3975) 
1.709553

>  <inspiration_score>  (3975) 
None

$$$$
LDPZOZJNFOIANG-UHFFFAOYSA-N-P76-P9-P76-601504
     RDKit          3D

 27 30  0  0  0  0  0  0  0  0999 V2000
    9.0501   14.4528   -0.3451 C   0  0  0  0  0  0  0  0  0  0  0  0
    8.7968   14.0348    1.0150 N   0  0  0  0  0  0  0  0  0  0  0  0
    8.0192   12.9547    1.2075 N   0  0  0  0  0  0  0  0  0  0  0  0
    7.8395   12.9214    2.5271 C   0  0  0  0  0  0  0  0  0  0  0  0
    8.5210   13.9628    3.1782 C   0  0  0  0  0  0  0  0  0  0  0  0
    9.2397   14.6103    2.1857 C   0  0  0  0  0  0  0  0  0  0  0  0
   10.3122   15.5994    2.2860 C   0  0  0  0  0  0  0  0  0  0  0  0
   10.2472   16.6691    3.1791 C   0  0  0  0  0  0  0  0  0  0  0  0
   11.3421   17.5344    3.3281 C   0  0  0  0  0  0  0  0  0  0  0  0
   12.5272   17.3536    2.5897 C   0  0  0  0  0  0  0  0  0  0  0  0
   13.6413   18.3708    2.7188 C   0  0  0  0  0  0  0  0  0  0  0  0
   14.9709   17.9708    2.2276 N   0  0  0  0  0  0  0  0  0  0  0  0
   15.7040   17.1227    3.1541 C   0  0  2  0  0  0  0  0  0  0  0  0
   15.8407   17.7981    4.3929 O   0  0  0  0  0  0  0  0  0  0  0  0
   17.1111   16.7344    2.6587 C   0  0  0  0  0  0  0  0  0  0  0  0
   17.9414   17.6901    1.9826 C   0  0  0  0  0  0  0  0  0  0  0  0
   19.2710   17.4468    1.5963 C   0  0  0  0  0  0  0  0  0  0  0  0
   19.7040   16.1826    1.9812 C   0  0  0  0  0  0  0  0  0  0  0  0
   20.9737   15.6933    1.8688 C   0  0  0  0  0  0  0  0  0  0  0  0
   22.4872   16.5441    1.0868 Br  0  0  0  0  0  0  0  0  0  0  0  0
   20.9452   14.4829    2.5038 N   0  0  0  0  0  0  0  0  0  0  0  0
   22.0914   13.6802    2.8582 C   0  0  0  0  0  0  0  0  0  0  0  0
   19.6993   14.0940    2.8882 N   0  0  0  0  0  0  0  0  0  0  0  0
   18.9315   15.1721    2.6481 C   0  0  0  0  0  0  0  0  0  0  0  0
   17.5951   15.4308    2.9892 C   0  0  0  0  0  0  0  0  0  0  0  0
   12.5827   16.2907    1.6868 C   0  0  0  0  0  0  0  0  0  0  0  0
   11.4996   15.4163    1.5547 C   0  0  0  0  0  0  0  0  0  0  0  0
  1  2  1  0
  2  3  1  0
  3  4  2  0
  4  5  1  0
  5  6  2  0
  6  7  1  0
  7  8  2  0
  8  9  1  0
  9 10  2  0
 10 11  1  0
 11 12  1  0
 12 13  1  0
 13 14  1  1
 13 15  1  0
 15 16  1  0
 16 17  2  0
 17 18  1  0
 18 19  2  0
 19 20  1  0
 19 21  1  0
 21 22  1  0
 21 23  1  0
 23 24  2  0
 24 25  1  0
 10 26  1  0
 26 27  2  0
  6  2  1  0
 27  7  1  0
 25 15  2  0
 24 18  1  0
M  END
>  <energy_score>  (3976) 
-38.923053

>  <inchikey>  (3976) 
LDPZOZJNFOIANG-UHFFFAOYSA-N

>  <smiles>  (3976) 
Cn1nccc1-c1ccc(CNC(O)c2ccc3c(Br)n(C)nc3c2)cc1

>  <ref_pdb>  (3976) 
A0514b

>  <alias>  (3976) 
LDPZOZJNFOIANG-UHFFFAOYSA-N-P76-P9-P76-601504

>  <HIPPO Pose ID>  (3976) 
507543

>  <name>  (3976) 
LDPZOZJNFOIANG-UHFFFAOYSA-N-P76-P9-P76-601504

>  <HIPPO Compound ID>  (3976) 
289735

>  <ref_mols>  (3976) 
A0486a,A0717a

>  <distance_score>  (3976) 
1.625899

>  <inspiration_score>  (3976) 
None

$$$$
GEZARJNJIAUMHJ-UHFFFAOYSA-N-P9-P9-P76-601504
     RDKit          3D

 27 30  0  0  0  0  0  0  0  0999 V2000
    7.2708   11.6380    1.1393 C   0  0  0  0  0  0  0  0  0  0  0  0
    7.8151   12.8301    1.7416 N   0  0  0  0  0  0  0  0  0  0  0  0
    7.4146   13.4148    2.9012 C   0  0  0  0  0  0  0  0  0  0  0  0
    8.2587   14.4824    3.0955 C   0  0  0  0  0  0  0  0  0  0  0  0
    9.1705   14.4395    2.0090 C   0  0  0  0  0  0  0  0  0  0  0  0
   10.4315   15.1585    1.8433 C   0  0  0  0  0  0  0  0  0  0  0  0
   11.4929   14.4692    1.2317 C   0  0  0  0  0  0  0  0  0  0  0  0
   12.7899   14.9737    1.2448 C   0  0  0  0  0  0  0  0  0  0  0  0
   13.0642   16.2161    1.8255 C   0  0  0  0  0  0  0  0  0  0  0  0
   14.4873   16.7468    1.8681 C   0  0  0  0  0  0  0  0  0  0  0  0
   15.1313   16.5878    0.5679 N   0  0  0  0  0  0  0  0  0  0  0  0
   16.3179   17.3742    0.3507 C   0  0  1  0  0  0  0  0  0  0  0  0
   15.9567   18.7363    0.4582 O   0  0  0  0  0  0  0  0  0  0  0  0
   17.5771   17.0409    1.1558 C   0  0  0  0  0  0  0  0  0  0  0  0
   18.5030   18.1163    1.3702 C   0  0  0  0  0  0  0  0  0  0  0  0
   19.8114   17.9532    1.8360 C   0  0  0  0  0  0  0  0  0  0  0  0
   20.1124   16.6185    2.0579 C   0  0  0  0  0  0  0  0  0  0  0  0
   21.3599   16.1208    2.2907 C   0  0  0  0  0  0  0  0  0  0  0  0
   23.0094   17.0829    2.3058 Br  0  0  0  0  0  0  0  0  0  0  0  0
   21.1753   14.7815    2.4712 N   0  0  0  0  0  0  0  0  0  0  0  0
   22.1878   13.8292    2.8485 C   0  0  0  0  0  0  0  0  0  0  0  0
   19.8918   14.3651    2.2779 N   0  0  0  0  0  0  0  0  0  0  0  0
   19.2291   15.4904    1.9432 C   0  0  0  0  0  0  0  0  0  0  0  0
   17.9120   15.6901    1.4901 C   0  0  0  0  0  0  0  0  0  0  0  0
   11.9958   16.9339    2.3945 C   0  0  0  0  0  0  0  0  0  0  0  0
   10.6892   16.4107    2.4062 C   0  0  0  0  0  0  0  0  0  0  0  0
    8.8330   13.4657    1.1489 N   0  0  0  0  0  0  0  0  0  0  0  0
  1  2  1  0
  2  3  1  0
  3  4  2  0
  4  5  1  0
  5  6  1  0
  6  7  2  0
  7  8  1  0
  8  9  2  0
  9 10  1  0
 10 11  1  0
 11 12  1  0
 12 13  1  1
 12 14  1  0
 14 15  1  0
 15 16  2  0
 16 17  1  0
 17 18  2  0
 18 19  1  0
 18 20  1  0
 20 21  1  0
 20 22  1  0
 22 23  2  0
 23 24  1  0
  9 25  1  0
 25 26  2  0
  5 27  2  0
 27  2  1  0
 26  6  1  0
 24 14  2  0
 23 17  1  0
M  END
>  <energy_score>  (3977) 
-28.274084

>  <inchikey>  (3977) 
GEZARJNJIAUMHJ-UHFFFAOYSA-N

>  <smiles>  (3977) 
Cn1ccc(-c2ccc(CNC(O)c3ccc4c(Br)n(C)nc4c3)cc2)n1

>  <ref_pdb>  (3977) 
A0514b

>  <alias>  (3977) 
GEZARJNJIAUMHJ-UHFFFAOYSA-N-P9-P9-P76-601504

>  <HIPPO Pose ID>  (3977) 
507544

>  <name>  (3977) 
GEZARJNJIAUMHJ-UHFFFAOYSA-N-P9-P9-P76-601504

>  <HIPPO Compound ID>  (3977) 
289736

>  <ref_mols>  (3977) 
A0486a,A0717a

>  <distance_score>  (3977) 
1.881101

>  <inspiration_score>  (3977) 
None

$$$$
GEZARJNJIAUMHJ-UHFFFAOYSA-N-P76-P9-P76-601504
     RDKit          3D

 27 30  0  0  0  0  0  0  0  0999 V2000
    7.3455   11.7922    0.9328 C   0  0  0  0  0  0  0  0  0  0  0  0
    7.9017   12.8914    1.6826 N   0  0  0  0  0  0  0  0  0  0  0  0
    7.5255   13.3080    2.9205 C   0  0  0  0  0  0  0  0  0  0  0  0
    8.3673   14.3472    3.2392 C   0  0  0  0  0  0  0  0  0  0  0  0
    9.2513   14.4628    2.1352 C   0  0  0  0  0  0  0  0  0  0  0  0
   10.4925   15.2252    2.0366 C   0  0  0  0  0  0  0  0  0  0  0  0
   11.5801   14.6121    1.3908 C   0  0  0  0  0  0  0  0  0  0  0  0
   12.8538   15.1714    1.4290 C   0  0  0  0  0  0  0  0  0  0  0  0
   13.0732   16.3977    2.0658 C   0  0  0  0  0  0  0  0  0  0  0  0
   14.4695   17.0010    2.0986 C   0  0  0  0  0  0  0  0  0  0  0  0
   15.1436   16.7934    0.8156 N   0  0  0  0  0  0  0  0  0  0  0  0
   16.3314   17.5872    0.6072 C   0  0  1  0  0  0  0  0  0  0  0  0
   16.0309   18.9549    0.8143 O   0  0  0  0  0  0  0  0  0  0  0  0
   17.6038   17.1671    1.3475 C   0  0  0  0  0  0  0  0  0  0  0  0
   18.6077   18.1761    1.5255 C   0  0  0  0  0  0  0  0  0  0  0  0
   19.9151   17.9227    1.9527 C   0  0  0  0  0  0  0  0  0  0  0  0
   20.1309   16.5712    2.1758 C   0  0  0  0  0  0  0  0  0  0  0  0
   21.3454   15.9945    2.4035 C   0  0  0  0  0  0  0  0  0  0  0  0
   23.0517   16.8508    2.4145 Br  0  0  0  0  0  0  0  0  0  0  0  0
   21.0771   14.6683    2.5770 N   0  0  0  0  0  0  0  0  0  0  0  0
   22.0304   13.6426    2.9164 C   0  0  0  0  0  0  0  0  0  0  0  0
   19.7669   14.3396    2.4063 N   0  0  0  0  0  0  0  0  0  0  0  0
   19.1703   15.5046    2.0830 C   0  0  0  0  0  0  0  0  0  0  0  0
   17.8580   15.7952    1.6645 C   0  0  0  0  0  0  0  0  0  0  0  0
   11.9814   17.0331    2.6846 C   0  0  0  0  0  0  0  0  0  0  0  0
   10.7000   16.4512    2.6738 C   0  0  0  0  0  0  0  0  0  0  0  0
    8.9030   13.6099    1.1587 N   0  0  0  0  0  0  0  0  0  0  0  0
  1  2  1  0
  2  3  1  0
  3  4  2  0
  4  5  1  0
  5  6  1  0
  6  7  2  0
  7  8  1  0
  8  9  2  0
  9 10  1  0
 10 11  1  0
 11 12  1  0
 12 13  1  1
 12 14  1  0
 14 15  1  0
 15 16  2  0
 16 17  1  0
 17 18  2  0
 18 19  1  0
 18 20  1  0
 20 21  1  0
 20 22  1  0
 22 23  2  0
 23 24  1  0
  9 25  1  0
 25 26  2  0
  5 27  2  0
 27  2  1  0
 26  6  1  0
 24 14  2  0
 23 17  1  0
M  END
>  <energy_score>  (3978) 
-28.03392

>  <inchikey>  (3978) 
GEZARJNJIAUMHJ-UHFFFAOYSA-N

>  <smiles>  (3978) 
Cn1ccc(-c2ccc(CNC(O)c3ccc4c(Br)n(C)nc4c3)cc2)n1

>  <ref_pdb>  (3978) 
A0514b

>  <alias>  (3978) 
GEZARJNJIAUMHJ-UHFFFAOYSA-N-P76-P9-P76-601504

>  <HIPPO Pose ID>  (3978) 
507545

>  <name>  (3978) 
GEZARJNJIAUMHJ-UHFFFAOYSA-N-P76-P9-P76-601504

>  <HIPPO Compound ID>  (3978) 
289736

>  <ref_mols>  (3978) 
A0486a,A0717a

>  <distance_score>  (3978) 
1.793298

>  <inspiration_score>  (3978) 
None

$$$$
MSXZCYOWISKQMY-UHFFFAOYSA-N-P9-P9-P76-601504
     RDKit          3D

 27 30  0  0  0  0  0  0  0  0999 V2000
   11.0395   13.5336    0.2480 C   0  0  0  0  0  0  0  0  0  0  0  0
   10.0617   14.0854    1.1609 N   0  0  0  0  0  0  0  0  0  0  0  0
    9.0326   13.2956    1.5125 N   0  0  0  0  0  0  0  0  0  0  0  0
    8.3993   13.9852    2.4559 C   0  0  0  0  0  0  0  0  0  0  0  0
    8.9987   15.2383    2.6810 C   0  0  0  0  0  0  0  0  0  0  0  0
   10.0839   15.3057    1.8177 C   0  0  0  0  0  0  0  0  0  0  0  0
   11.1288   16.3344    1.6432 C   0  0  0  0  0  0  0  0  0  0  0  0
   11.6314   16.6605    0.3715 C   0  0  0  0  0  0  0  0  0  0  0  0
   12.7550   17.4962    0.2032 C   0  0  0  0  0  0  0  0  0  0  0  0
   13.4155   18.0497    1.3058 C   0  0  0  0  0  0  0  0  0  0  0  0
   14.6678   18.9163    1.1454 C   0  0  0  0  0  0  0  0  0  0  0  0
   15.7117   18.2912    0.3209 N   0  0  0  0  0  0  0  0  0  0  0  0
   17.1009   18.4747    0.7693 C   0  0  2  0  0  0  0  0  0  0  0  0
   17.8061   18.6159   -0.4376 O   0  0  0  0  0  0  0  0  0  0  0  0
   17.6566   17.2967    1.5907 C   0  0  0  0  0  0  0  0  0  0  0  0
   16.7344   16.6812    2.4549 C   0  0  0  0  0  0  0  0  0  0  0  0
   16.9784   15.4748    3.0833 C   0  0  0  0  0  0  0  0  0  0  0  0
   18.2122   14.8713    2.8862 C   0  0  0  0  0  0  0  0  0  0  0  0
   18.7454   13.6474    3.2889 C   0  0  0  0  0  0  0  0  0  0  0  0
   20.0021   13.4943    2.9062 N   0  0  0  0  0  0  0  0  0  0  0  0
   20.3152   14.6797    2.3378 N   0  0  0  0  0  0  0  0  0  0  0  0
   21.7042   14.9020    2.0120 C   0  0  0  0  0  0  0  0  0  0  0  0
   19.2274   15.5250    2.1865 C   0  0  0  0  0  0  0  0  0  0  0  0
   18.9826   16.7689    1.5442 C   0  0  0  0  0  0  0  0  0  0  0  0
   20.2714   17.5790    0.7405 Cl  0  0  0  0  0  0  0  0  0  0  0  0
   12.8547   17.8081    2.5721 C   0  0  0  0  0  0  0  0  0  0  0  0
   11.7289   16.9702    2.7374 C   0  0  0  0  0  0  0  0  0  0  0  0
  1  2  1  0
  2  3  1  0
  3  4  2  0
  4  5  1  0
  5  6  2  0
  6  7  1  0
  7  8  2  0
  8  9  1  0
  9 10  2  0
 10 11  1  0
 11 12  1  0
 12 13  1  0
 13 14  1  6
 13 15  1  0
 15 16  2  0
 16 17  1  0
 17 18  2  0
 18 19  1  0
 19 20  2  0
 20 21  1  0
 21 22  1  0
 21 23  1  0
 23 24  2  0
 24 25  1  0
 10 26  1  0
 26 27  2  0
  6  2  1  0
 27  7  1  0
 24 15  1  0
 23 18  1  0
M  END
>  <energy_score>  (3979) 
-36.801322

>  <inchikey>  (3979) 
MSXZCYOWISKQMY-UHFFFAOYSA-N

>  <smiles>  (3979) 
Cn1nccc1-c1ccc(CNC(O)c2ccc3cnn(C)c3c2Cl)cc1

>  <ref_pdb>  (3979) 
A0514b

>  <alias>  (3979) 
MSXZCYOWISKQMY-UHFFFAOYSA-N-P9-P9-P76-601504

>  <HIPPO Pose ID>  (3979) 
507546

>  <name>  (3979) 
MSXZCYOWISKQMY-UHFFFAOYSA-N-P9-P9-P76-601504

>  <HIPPO Compound ID>  (3979) 
289737

>  <ref_mols>  (3979) 
A0486a,A0717a

>  <distance_score>  (3979) 
1.854677

>  <inspiration_score>  (3979) 
None

$$$$
MSXZCYOWISKQMY-UHFFFAOYSA-N-P76-P9-P76-601504
     RDKit          3D

 27 30  0  0  0  0  0  0  0  0999 V2000
   11.0181   13.5313    0.3060 C   0  0  0  0  0  0  0  0  0  0  0  0
   10.0621   14.0713    1.2482 N   0  0  0  0  0  0  0  0  0  0  0  0
    9.0315   13.2809    1.5956 N   0  0  0  0  0  0  0  0  0  0  0  0
    8.4373   13.9380    2.5862 C   0  0  0  0  0  0  0  0  0  0  0  0
    9.0524   15.1783    2.8356 C   0  0  0  0  0  0  0  0  0  0  0  0
   10.1082   15.2732    1.9384 C   0  0  0  0  0  0  0  0  0  0  0  0
   11.1511   16.3070    1.7701 C   0  0  0  0  0  0  0  0  0  0  0  0
   11.6752   16.6274    0.5059 C   0  0  0  0  0  0  0  0  0  0  0  0
   12.8023   17.4611    0.3519 C   0  0  0  0  0  0  0  0  0  0  0  0
   13.4461   18.0185    1.4622 C   0  0  0  0  0  0  0  0  0  0  0  0
   14.7101   18.8719    1.3227 C   0  0  0  0  0  0  0  0  0  0  0  0
   15.7407   18.2618    0.4704 N   0  0  0  0  0  0  0  0  0  0  0  0
   17.1333   18.3925    0.9233 C   0  0  2  0  0  0  0  0  0  0  0  0
   17.8433   18.5280   -0.2823 O   0  0  0  0  0  0  0  0  0  0  0  0
   17.6605   17.1859    1.7207 C   0  0  0  0  0  0  0  0  0  0  0  0
   16.7164   16.5332    2.5317 C   0  0  0  0  0  0  0  0  0  0  0  0
   16.9587   15.3201    3.1510 C   0  0  0  0  0  0  0  0  0  0  0  0
   18.2082   14.7371    2.9918 C   0  0  0  0  0  0  0  0  0  0  0  0
   18.7453   13.5120    3.3943 C   0  0  0  0  0  0  0  0  0  0  0  0
   20.0193   13.3903    3.0578 N   0  0  0  0  0  0  0  0  0  0  0  0
   20.3242   14.5757    2.4838 N   0  0  0  0  0  0  0  0  0  0  0  0
   21.7095   14.8022    2.1442 C   0  0  0  0  0  0  0  0  0  0  0  0
   19.2329   15.4155    2.3291 C   0  0  0  0  0  0  0  0  0  0  0  0
   18.9922   16.6711    1.7049 C   0  0  0  0  0  0  0  0  0  0  0  0
   20.2962   17.5196    0.9665 Cl  0  0  0  0  0  0  0  0  0  0  0  0
   12.8565   17.7942    2.7183 C   0  0  0  0  0  0  0  0  0  0  0  0
   11.7259   16.9598    2.8681 C   0  0  0  0  0  0  0  0  0  0  0  0
  1  2  1  0
  2  3  1  0
  3  4  2  0
  4  5  1  0
  5  6  2  0
  6  7  1  0
  7  8  2  0
  8  9  1  0
  9 10  2  0
 10 11  1  0
 11 12  1  0
 12 13  1  0
 13 14  1  6
 13 15  1  0
 15 16  2  0
 16 17  1  0
 17 18  2  0
 18 19  1  0
 19 20  2  0
 20 21  1  0
 21 22  1  0
 21 23  1  0
 23 24  2  0
 24 25  1  0
 10 26  1  0
 26 27  2  0
  6  2  1  0
 27  7  1  0
 24 15  1  0
 23 18  1  0
M  END
>  <energy_score>  (3980) 
-37.351227

>  <inchikey>  (3980) 
MSXZCYOWISKQMY-UHFFFAOYSA-N

>  <smiles>  (3980) 
Cn1nccc1-c1ccc(CNC(O)c2ccc3cnn(C)c3c2Cl)cc1

>  <ref_pdb>  (3980) 
A0514b

>  <alias>  (3980) 
MSXZCYOWISKQMY-UHFFFAOYSA-N-P76-P9-P76-601504

>  <HIPPO Pose ID>  (3980) 
507547

>  <name>  (3980) 
MSXZCYOWISKQMY-UHFFFAOYSA-N-P76-P9-P76-601504

>  <HIPPO Compound ID>  (3980) 
289737

>  <ref_mols>  (3980) 
A0486a,A0717a

>  <distance_score>  (3980) 
1.826795

>  <inspiration_score>  (3980) 
None

$$$$
UFBJMASQKWZVJO-UHFFFAOYSA-N-P9-P9-P76-601504
     RDKit          3D

 27 30  0  0  0  0  0  0  0  0999 V2000
    8.6655   11.9107    1.2961 C   0  0  0  0  0  0  0  0  0  0  0  0
    8.9297   13.2615    1.7302 N   0  0  0  0  0  0  0  0  0  0  0  0
    8.2417   13.9692    2.6640 C   0  0  0  0  0  0  0  0  0  0  0  0
    8.8807   15.1847    2.7587 C   0  0  0  0  0  0  0  0  0  0  0  0
    9.9718   15.1224    1.8474 C   0  0  0  0  0  0  0  0  0  0  0  0
   11.0547   16.0910    1.5933 C   0  0  0  0  0  0  0  0  0  0  0  0
   11.8123   15.9997    0.4097 C   0  0  0  0  0  0  0  0  0  0  0  0
   12.9279   16.8252    0.1654 C   0  0  0  0  0  0  0  0  0  0  0  0
   13.3540   17.7609    1.1143 C   0  0  0  0  0  0  0  0  0  0  0  0
   14.5707   18.6652    0.8875 C   0  0  0  0  0  0  0  0  0  0  0  0
   15.6905   18.0233    0.1797 N   0  0  0  0  0  0  0  0  0  0  0  0
   17.0408   18.3648    0.6579 C   0  0  2  0  0  0  0  0  0  0  0  0
   17.7696   18.5538   -0.5257 O   0  0  0  0  0  0  0  0  0  0  0  0
   17.6523   17.2663    1.5470 C   0  0  0  0  0  0  0  0  0  0  0  0
   16.7674   16.7480    2.5106 C   0  0  0  0  0  0  0  0  0  0  0  0
   17.0022   15.5600    3.1762 C   0  0  0  0  0  0  0  0  0  0  0  0
   18.1977   14.8968    2.9318 C   0  0  0  0  0  0  0  0  0  0  0  0
   18.7037   13.6604    3.3357 C   0  0  0  0  0  0  0  0  0  0  0  0
   19.9381   13.4543    2.9056 N   0  0  0  0  0  0  0  0  0  0  0  0
   20.2698   14.6218    2.3101 N   0  0  0  0  0  0  0  0  0  0  0  0
   21.6607   14.8161    1.9738 C   0  0  0  0  0  0  0  0  0  0  0  0
   19.1982   15.4868    2.1586 C   0  0  0  0  0  0  0  0  0  0  0  0
   18.9573   16.6980    1.4578 C   0  0  0  0  0  0  0  0  0  0  0  0
   20.2166   17.3945    0.5148 Cl  0  0  0  0  0  0  0  0  0  0  0  0
   12.5720   17.8866    2.2806 C   0  0  0  0  0  0  0  0  0  0  0  0
   11.4413   17.0677    2.5178 C   0  0  0  0  0  0  0  0  0  0  0  0
    9.9742   13.9332    1.2202 N   0  0  0  0  0  0  0  0  0  0  0  0
  1  2  1  0
  2  3  1  0
  3  4  2  0
  4  5  1  0
  5  6  1  0
  6  7  2  0
  7  8  1  0
  8  9  2  0
  9 10  1  0
 10 11  1  0
 11 12  1  0
 12 13  1  6
 12 14  1  0
 14 15  2  0
 15 16  1  0
 16 17  2  0
 17 18  1  0
 18 19  2  0
 19 20  1  0
 20 21  1  0
 20 22  1  0
 22 23  2  0
 23 24  1  0
  9 25  1  0
 25 26  2  0
  5 27  2  0
 27  2  1  0
 26  6  1  0
 23 14  1  0
 22 17  1  0
M  END
>  <energy_score>  (3981) 
-29.764429

>  <inchikey>  (3981) 
UFBJMASQKWZVJO-UHFFFAOYSA-N

>  <smiles>  (3981) 
Cn1ccc(-c2ccc(CNC(O)c3ccc4cnn(C)c4c3Cl)cc2)n1

>  <ref_pdb>  (3981) 
A0514b

>  <alias>  (3981) 
UFBJMASQKWZVJO-UHFFFAOYSA-N-P9-P9-P76-601504

>  <HIPPO Pose ID>  (3981) 
507548

>  <name>  (3981) 
UFBJMASQKWZVJO-UHFFFAOYSA-N-P9-P9-P76-601504

>  <HIPPO Compound ID>  (3981) 
289738

>  <ref_mols>  (3981) 
A0486a,A0717a

>  <distance_score>  (3981) 
1.851308

>  <inspiration_score>  (3981) 
None

$$$$
UFBJMASQKWZVJO-UHFFFAOYSA-N-P76-P9-P76-601504
     RDKit          3D

 27 30  0  0  0  0  0  0  0  0999 V2000
    8.7023   11.8765    1.3551 C   0  0  0  0  0  0  0  0  0  0  0  0
    8.9711   13.2167    1.8172 N   0  0  0  0  0  0  0  0  0  0  0  0
    8.3196   13.8872    2.8029 C   0  0  0  0  0  0  0  0  0  0  0  0
    8.9651   15.0971    2.9219 C   0  0  0  0  0  0  0  0  0  0  0  0
   10.0186   15.0716    1.9658 C   0  0  0  0  0  0  0  0  0  0  0  0
   11.0991   16.0443    1.7154 C   0  0  0  0  0  0  0  0  0  0  0  0
   11.8523   15.9637    0.5280 C   0  0  0  0  0  0  0  0  0  0  0  0
   12.9703   16.7868    0.2895 C   0  0  0  0  0  0  0  0  0  0  0  0
   13.4032   17.7096    1.2476 C   0  0  0  0  0  0  0  0  0  0  0  0
   14.6253   18.6070    1.0263 C   0  0  0  0  0  0  0  0  0  0  0  0
   15.7431   17.9569    0.3230 N   0  0  0  0  0  0  0  0  0  0  0  0
   17.0927   18.2818    0.8121 C   0  0  2  0  0  0  0  0  0  0  0  0
   17.8309   18.4774   -0.3644 O   0  0  0  0  0  0  0  0  0  0  0  0
   17.6865   17.1702    1.6959 C   0  0  0  0  0  0  0  0  0  0  0  0
   16.7963   16.6662    2.6623 C   0  0  0  0  0  0  0  0  0  0  0  0
   17.0140   15.4750    3.3311 C   0  0  0  0  0  0  0  0  0  0  0  0
   18.1959   14.7876    3.0836 C   0  0  0  0  0  0  0  0  0  0  0  0
   18.6797   13.5366    3.4800 C   0  0  0  0  0  0  0  0  0  0  0  0
   19.9152   13.3204    3.0556 N   0  0  0  0  0  0  0  0  0  0  0  0
   20.2577   14.4773    2.4455 N   0  0  0  0  0  0  0  0  0  0  0  0
   21.6455   14.6447    2.0819 C   0  0  0  0  0  0  0  0  0  0  0  0
   19.2013   15.3616    2.3035 C   0  0  0  0  0  0  0  0  0  0  0  0
   18.9794   16.5775    1.6022 C   0  0  0  0  0  0  0  0  0  0  0  0
   20.2485   17.2512    0.6551 Cl  0  0  0  0  0  0  0  0  0  0  0  0
   12.6244   17.8280    2.4165 C   0  0  0  0  0  0  0  0  0  0  0  0
   11.4913   17.0113    2.6480 C   0  0  0  0  0  0  0  0  0  0  0  0
    9.9845   13.9147    1.2812 N   0  0  0  0  0  0  0  0  0  0  0  0
  1  2  1  0
  2  3  1  0
  3  4  2  0
  4  5  1  0
  5  6  1  0
  6  7  2  0
  7  8  1  0
  8  9  2  0
  9 10  1  0
 10 11  1  0
 11 12  1  0
 12 13  1  6
 12 14  1  0
 14 15  2  0
 15 16  1  0
 16 17  2  0
 17 18  1  0
 18 19  2  0
 19 20  1  0
 20 21  1  0
 20 22  1  0
 22 23  2  0
 23 24  1  0
  9 25  1  0
 25 26  2  0
  5 27  2  0
 27  2  1  0
 26  6  1  0
 23 14  1  0
 22 17  1  0
M  END
>  <energy_score>  (3982) 
-30.158533

>  <inchikey>  (3982) 
UFBJMASQKWZVJO-UHFFFAOYSA-N

>  <smiles>  (3982) 
Cn1ccc(-c2ccc(CNC(O)c3ccc4cnn(C)c4c3Cl)cc2)n1

>  <ref_pdb>  (3982) 
A0514b

>  <alias>  (3982) 
UFBJMASQKWZVJO-UHFFFAOYSA-N-P76-P9-P76-601504

>  <HIPPO Pose ID>  (3982) 
507549

>  <name>  (3982) 
UFBJMASQKWZVJO-UHFFFAOYSA-N-P76-P9-P76-601504

>  <HIPPO Compound ID>  (3982) 
289738

>  <ref_mols>  (3982) 
A0486a,A0717a

>  <distance_score>  (3982) 
1.810075

>  <inspiration_score>  (3982) 
None

$$$$
YRCHILFIYQZGLZ-UHFFFAOYSA-N-P9-P9-P76-601504
     RDKit          3D

 27 30  0  0  0  0  0  0  0  0999 V2000
    8.8126   12.3724    0.9826 C   0  0  0  0  0  0  0  0  0  0  0  0
    8.9993   13.6182    1.6864 N   0  0  0  0  0  0  0  0  0  0  0  0
    8.2256   14.1140    2.6871 C   0  0  0  0  0  0  0  0  0  0  0  0
    8.8055   15.3077    3.0536 C   0  0  0  0  0  0  0  0  0  0  0  0
    9.9562   15.4506    2.2287 C   0  0  0  0  0  0  0  0  0  0  0  0
   11.0374   16.4570    2.2714 C   0  0  0  0  0  0  0  0  0  0  0  0
   11.8610   16.6361    1.1476 C   0  0  0  0  0  0  0  0  0  0  0  0
   12.9988   17.4627    1.1849 C   0  0  0  0  0  0  0  0  0  0  0  0
   13.3794   18.1308    2.3586 C   0  0  0  0  0  0  0  0  0  0  0  0
   14.6322   19.0101    2.3707 C   0  0  0  0  0  0  0  0  0  0  0  0
   15.7114   18.5230    3.2456 N   0  0  0  0  0  0  0  0  0  0  0  0
   17.0650   18.6358    2.6705 C   0  0  1  0  0  0  0  0  0  0  0  0
   17.8806   19.0676    3.7364 O   0  0  0  0  0  0  0  0  0  0  0  0
   17.6115   17.2999    2.1525 C   0  0  0  0  0  0  0  0  0  0  0  0
   16.7226   16.4982    1.4245 C   0  0  0  0  0  0  0  0  0  0  0  0
   16.9554   15.1467    1.2459 C   0  0  0  0  0  0  0  0  0  0  0  0
   16.0064   14.3373    0.6777 O   0  0  0  0  0  0  0  0  0  0  0  0
   18.1443   14.5979    1.7170 C   0  0  0  0  0  0  0  0  0  0  0  0
   18.6384   13.2941    1.8229 C   0  0  0  0  0  0  0  0  0  0  0  0
   19.8644   13.2627    2.3292 N   0  0  0  0  0  0  0  0  0  0  0  0
   20.2058   14.5644    2.4315 N   0  0  0  0  0  0  0  0  0  0  0  0
   21.6079   14.8637    2.6023 C   0  0  0  0  0  0  0  0  0  0  0  0
   19.1429   15.4232    2.2345 C   0  0  0  0  0  0  0  0  0  0  0  0
   18.9107   16.8011    2.4462 C   0  0  0  0  0  0  0  0  0  0  0  0
   12.5422   17.9844    3.4765 C   0  0  0  0  0  0  0  0  0  0  0  0
   11.3827   17.1688    3.4315 C   0  0  0  0  0  0  0  0  0  0  0  0
   10.0507   14.4018    1.3899 N   0  0  0  0  0  0  0  0  0  0  0  0
  1  2  1  0
  2  3  1  0
  3  4  2  0
  4  5  1  0
  5  6  1  0
  6  7  2  0
  7  8  1  0
  8  9  2  0
  9 10  1  0
 10 11  1  0
 11 12  1  0
 12 13  1  1
 12 14  1  0
 14 15  2  0
 15 16  1  0
 16 17  1  0
 16 18  2  0
 18 19  1  0
 19 20  2  0
 20 21  1  0
 21 22  1  0
 21 23  1  0
 23 24  2  0
  9 25  1  0
 25 26  2  0
  5 27  2  0
 27  2  1  0
 26  6  1  0
 24 14  1  0
 23 18  1  0
M  END
>  <energy_score>  (3983) 
-26.970718

>  <inchikey>  (3983) 
YRCHILFIYQZGLZ-UHFFFAOYSA-N

>  <smiles>  (3983) 
Cn1ccc(-c2ccc(CNC(O)c3cc(O)c4cnn(C)c4c3)cc2)n1

>  <ref_pdb>  (3983) 
A0514b

>  <alias>  (3983) 
YRCHILFIYQZGLZ-UHFFFAOYSA-N-P9-P9-P76-601504

>  <HIPPO Pose ID>  (3983) 
507550

>  <name>  (3983) 
YRCHILFIYQZGLZ-UHFFFAOYSA-N-P9-P9-P76-601504

>  <HIPPO Compound ID>  (3983) 
289739

>  <ref_mols>  (3983) 
A0486a,A0717a

>  <distance_score>  (3983) 
1.833499

>  <inspiration_score>  (3983) 
None

$$$$
YRCHILFIYQZGLZ-UHFFFAOYSA-N-P76-P9-P76-601504
     RDKit          3D

 27 30  0  0  0  0  0  0  0  0999 V2000
    8.8105   12.3032    1.0535 C   0  0  0  0  0  0  0  0  0  0  0  0
    9.0128   13.5323    1.7815 N   0  0  0  0  0  0  0  0  0  0  0  0
    8.2788   13.9902    2.8286 C   0  0  0  0  0  0  0  0  0  0  0  0
    8.8709   15.1721    3.2126 C   0  0  0  0  0  0  0  0  0  0  0  0
    9.9851   15.3494    2.3455 C   0  0  0  0  0  0  0  0  0  0  0  0
   11.0637   16.3598    2.3783 C   0  0  0  0  0  0  0  0  0  0  0  0
   11.9119   16.5018    1.2669 C   0  0  0  0  0  0  0  0  0  0  0  0
   13.0510   17.3252    1.3017 C   0  0  0  0  0  0  0  0  0  0  0  0
   13.4073   18.0300    2.4608 C   0  0  0  0  0  0  0  0  0  0  0  0
   14.6657   18.8987    2.4725 C   0  0  0  0  0  0  0  0  0  0  0  0
   15.7354   18.4001    3.3527 N   0  0  0  0  0  0  0  0  0  0  0  0
   17.0925   18.5350    2.7917 C   0  0  1  0  0  0  0  0  0  0  0  0
   17.8888   18.9861    3.8643 O   0  0  0  0  0  0  0  0  0  0  0  0
   17.6695   17.2086    2.2811 C   0  0  0  0  0  0  0  0  0  0  0  0
   16.8024   16.3752    1.5609 C   0  0  0  0  0  0  0  0  0  0  0  0
   17.0861   15.0336    1.3691 C   0  0  0  0  0  0  0  0  0  0  0  0
   16.1631   14.1928    0.8037 O   0  0  0  0  0  0  0  0  0  0  0  0
   18.3031   14.5270    1.8182 C   0  0  0  0  0  0  0  0  0  0  0  0
   18.8594   13.2440    1.8988 C   0  0  0  0  0  0  0  0  0  0  0  0
   20.0948   13.2620    2.3842 N   0  0  0  0  0  0  0  0  0  0  0  0
   20.3736   14.5755    2.5025 N   0  0  0  0  0  0  0  0  0  0  0  0
   21.7610   14.9421    2.6497 C   0  0  0  0  0  0  0  0  0  0  0  0
   19.2708   15.3882    2.3350 C   0  0  0  0  0  0  0  0  0  0  0  0
   18.9858   16.7527    2.5672 C   0  0  0  0  0  0  0  0  0  0  0  0
   12.5454   17.9244    3.5642 C   0  0  0  0  0  0  0  0  0  0  0  0
   11.3838   17.1123    3.5199 C   0  0  0  0  0  0  0  0  0  0  0  0
   10.0398   14.3370    1.4592 N   0  0  0  0  0  0  0  0  0  0  0  0
  1  2  1  0
  2  3  1  0
  3  4  2  0
  4  5  1  0
  5  6  1  0
  6  7  2  0
  7  8  1  0
  8  9  2  0
  9 10  1  0
 10 11  1  0
 11 12  1  0
 12 13  1  1
 12 14  1  0
 14 15  2  0
 15 16  1  0
 16 17  1  0
 16 18  2  0
 18 19  1  0
 19 20  2  0
 20 21  1  0
 21 22  1  0
 21 23  1  0
 23 24  2  0
  9 25  1  0
 25 26  2  0
  5 27  2  0
 27  2  1  0
 26  6  1  0
 24 14  1  0
 23 18  1  0
M  END
>  <energy_score>  (3984) 
-28.007825

>  <inchikey>  (3984) 
YRCHILFIYQZGLZ-UHFFFAOYSA-N

>  <smiles>  (3984) 
Cn1ccc(-c2ccc(CNC(O)c3cc(O)c4cnn(C)c4c3)cc2)n1

>  <ref_pdb>  (3984) 
A0514b

>  <alias>  (3984) 
YRCHILFIYQZGLZ-UHFFFAOYSA-N-P76-P9-P76-601504

>  <HIPPO Pose ID>  (3984) 
507551

>  <name>  (3984) 
YRCHILFIYQZGLZ-UHFFFAOYSA-N-P76-P9-P76-601504

>  <HIPPO Compound ID>  (3984) 
289739

>  <ref_mols>  (3984) 
A0486a,A0717a

>  <distance_score>  (3984) 
1.780366

>  <inspiration_score>  (3984) 
None

$$$$
JXQBWVONVAGYTK-UHFFFAOYSA-N-P9-P9-P76-601504
     RDKit          3D

 27 30  0  0  0  0  0  0  0  0999 V2000
   11.3028   14.1605    0.4616 C   0  0  0  0  0  0  0  0  0  0  0  0
   10.2071   14.5282    1.3326 N   0  0  0  0  0  0  0  0  0  0  0  0
    9.1952   13.6484    1.4537 N   0  0  0  0  0  0  0  0  0  0  0  0
    8.4179   14.1723    2.3961 C   0  0  0  0  0  0  0  0  0  0  0  0
    8.9239   15.3953    2.8735 C   0  0  0  0  0  0  0  0  0  0  0  0
   10.1018   15.6276    2.1738 C   0  0  0  0  0  0  0  0  0  0  0  0
   11.1468   16.6646    2.3475 C   0  0  0  0  0  0  0  0  0  0  0  0
   11.5307   17.1054    3.6214 C   0  0  0  0  0  0  0  0  0  0  0  0
   12.7111   17.8573    3.8134 C   0  0  0  0  0  0  0  0  0  0  0  0
   13.5422   18.2214    2.7385 C   0  0  0  0  0  0  0  0  0  0  0  0
   14.9089   18.8568    3.0267 C   0  0  0  0  0  0  0  0  0  0  0  0
   15.7528   19.1251    1.8459 N   0  0  0  0  0  0  0  0  0  0  0  0
   17.1934   18.8524    2.0089 C   0  0  1  0  0  0  0  0  0  0  0  0
   17.6582   19.4966    3.1773 O   0  0  0  0  0  0  0  0  0  0  0  0
   17.5937   17.3699    1.9777 C   0  0  0  0  0  0  0  0  0  0  0  0
   16.5995   16.4386    1.6570 C   0  0  0  0  0  0  0  0  0  0  0  0
   16.8082   15.0785    1.7479 C   0  0  0  0  0  0  0  0  0  0  0  0
   15.7409   14.2529    1.4750 O   0  0  0  0  0  0  0  0  0  0  0  0
   18.0654   14.6043    2.1088 C   0  0  0  0  0  0  0  0  0  0  0  0
   18.5936   13.3356    2.3566 C   0  0  0  0  0  0  0  0  0  0  0  0
   19.8900   13.3723    2.6258 N   0  0  0  0  0  0  0  0  0  0  0  0
   20.2163   14.6757    2.4943 N   0  0  0  0  0  0  0  0  0  0  0  0
   21.6222   15.0064    2.4914 C   0  0  0  0  0  0  0  0  0  0  0  0
   19.1229   15.4989    2.2944 C   0  0  0  0  0  0  0  0  0  0  0  0
   18.9148   16.9017    2.2369 C   0  0  0  0  0  0  0  0  0  0  0  0
   13.0741   17.9139    1.4564 C   0  0  0  0  0  0  0  0  0  0  0  0
   11.8970   17.1558    1.2669 C   0  0  0  0  0  0  0  0  0  0  0  0
  1  2  1  0
  2  3  1  0
  3  4  2  0
  4  5  1  0
  5  6  2  0
  6  7  1  0
  7  8  2  0
  8  9  1  0
  9 10  2  0
 10 11  1  0
 11 12  1  0
 12 13  1  0
 13 14  1  1
 13 15  1  0
 15 16  2  0
 16 17  1  0
 17 18  1  0
 17 19  2  0
 19 20  1  0
 20 21  2  0
 21 22  1  0
 22 23  1  0
 22 24  1  0
 24 25  2  0
 10 26  1  0
 26 27  2  0
  6  2  1  0
 27  7  1  0
 25 15  1  0
 24 19  1  0
M  END
>  <energy_score>  (3985) 
-17.396327

>  <inchikey>  (3985) 
JXQBWVONVAGYTK-UHFFFAOYSA-N

>  <smiles>  (3985) 
Cn1nccc1-c1ccc(CNC(O)c2cc(O)c3cnn(C)c3c2)cc1

>  <ref_pdb>  (3985) 
A0514b

>  <alias>  (3985) 
JXQBWVONVAGYTK-UHFFFAOYSA-N-P9-P9-P76-601504

>  <HIPPO Pose ID>  (3985) 
507552

>  <name>  (3985) 
JXQBWVONVAGYTK-UHFFFAOYSA-N-P9-P9-P76-601504

>  <HIPPO Compound ID>  (3985) 
289740

>  <ref_mols>  (3985) 
A0486a,A0717a

>  <distance_score>  (3985) 
1.98309

>  <inspiration_score>  (3985) 
None

$$$$
GHIAWPWOHGJZFC-UHFFFAOYSA-N-P9-P9-P76-601504
     RDKit          3D

 27 30  0  0  0  0  0  0  0  0999 V2000
   22.5048   14.1041    1.6076 C   0  0  0  0  0  0  0  0  0  0  0  0
   21.6312   14.6145    2.7445 C   0  0  0  0  0  0  0  0  0  0  0  0
   20.2117   14.4463    2.4876 N   0  0  0  0  0  0  0  0  0  0  0  0
   19.7270   13.1837    2.4379 N   0  0  0  0  0  0  0  0  0  0  0  0
   18.6273   13.3072    1.7034 C   0  0  0  0  0  0  0  0  0  0  0  0
   18.3028   14.6495    1.4684 C   0  0  0  0  0  0  0  0  0  0  0  0
   17.2970   15.2980    0.7550 C   0  0  0  0  0  0  0  0  0  0  0  0
   17.1365   16.6645    0.9311 C   0  0  0  0  0  0  0  0  0  0  0  0
   17.9014   17.3693    1.8662 C   0  0  0  0  0  0  0  0  0  0  0  0
   17.3666   18.7058    2.3767 C   0  0  1  0  0  0  0  0  0  0  0  0
   17.8242   19.7125    1.5059 O   0  0  0  0  0  0  0  0  0  0  0  0
   15.9016   18.8358    2.4294 N   0  0  0  0  0  0  0  0  0  0  0  0
   15.2487   17.9714    3.4204 C   0  0  0  0  0  0  0  0  0  0  0  0
   13.8994   17.4023    2.9752 C   0  0  0  0  0  0  0  0  0  0  0  0
   12.6691   18.0075    3.2852 C   0  0  0  0  0  0  0  0  0  0  0  0
   11.4306   17.3863    2.9659 C   0  0  0  0  0  0  0  0  0  0  0  0
   11.3875   16.1535    2.3020 C   0  0  0  0  0  0  0  0  0  0  0  0
   10.1578   15.3528    2.1027 C   0  0  0  0  0  0  0  0  0  0  0  0
    8.9137   15.4165    2.7932 C   0  0  0  0  0  0  0  0  0  0  0  0
    8.2075   14.3014    2.3998 C   0  0  0  0  0  0  0  0  0  0  0  0
    9.0012   13.6592    1.5031 N   0  0  0  0  0  0  0  0  0  0  0  0
    8.7207   12.4171    0.8247 C   0  0  0  0  0  0  0  0  0  0  0  0
   10.1723   14.2783    1.2940 N   0  0  0  0  0  0  0  0  0  0  0  0
   12.6256   15.5883    1.9406 C   0  0  0  0  0  0  0  0  0  0  0  0
   13.8494   16.1883    2.2819 C   0  0  0  0  0  0  0  0  0  0  0  0
   19.0937   16.7800    2.3653 C   0  0  0  0  0  0  0  0  0  0  0  0
   19.2578   15.3920    2.1622 C   0  0  0  0  0  0  0  0  0  0  0  0
  1  2  1  0
  2  3  1  0
  3  4  1  0
  4  5  2  0
  5  6  1  0
  6  7  2  0
  7  8  1  0
  8  9  2  0
  9 10  1  0
 10 11  1  6
 10 12  1  0
 12 13  1  0
 13 14  1  0
 14 15  2  0
 15 16  1  0
 16 17  2  0
 17 18  1  0
 18 19  1  0
 19 20  2  0
 20 21  1  0
 21 22  1  0
 21 23  1  0
 17 24  1  0
 24 25  2  0
  9 26  1  0
 26 27  2  0
 27  3  1  0
 27  6  1  0
 25 14  1  0
 23 18  2  0
M  END
>  <energy_score>  (3986) 
-18.265837

>  <inchikey>  (3986) 
GHIAWPWOHGJZFC-UHFFFAOYSA-N

>  <smiles>  (3986) 
CCn1ncc2ccc(C(O)NCc3ccc(-c4ccn(C)n4)cc3)cc21

>  <ref_pdb>  (3986) 
A0514b

>  <alias>  (3986) 
GHIAWPWOHGJZFC-UHFFFAOYSA-N-P9-P9-P76-601504

>  <HIPPO Pose ID>  (3986) 
507554

>  <name>  (3986) 
GHIAWPWOHGJZFC-UHFFFAOYSA-N-P9-P9-P76-601504

>  <HIPPO Compound ID>  (3986) 
289741

>  <ref_mols>  (3986) 
A0486a,A0717a

>  <distance_score>  (3986) 
1.819172

>  <inspiration_score>  (3986) 
None

$$$$
GHIAWPWOHGJZFC-UHFFFAOYSA-N-P76-P9-P76-601504
     RDKit          3D

 27 30  0  0  0  0  0  0  0  0999 V2000
   22.5230   14.0089    1.6516 C   0  0  0  0  0  0  0  0  0  0  0  0
   21.6957   14.5284    2.8189 C   0  0  0  0  0  0  0  0  0  0  0  0
   20.2687   14.3565    2.6140 N   0  0  0  0  0  0  0  0  0  0  0  0
   19.7875   13.0930    2.5912 N   0  0  0  0  0  0  0  0  0  0  0  0
   18.6991   13.1999    1.8365 C   0  0  0  0  0  0  0  0  0  0  0  0
   18.3727   14.5390    1.5744 C   0  0  0  0  0  0  0  0  0  0  0  0
   17.3805   15.1780    0.8328 C   0  0  0  0  0  0  0  0  0  0  0  0
   17.2150   16.5473    0.9884 C   0  0  0  0  0  0  0  0  0  0  0  0
   17.9502   17.2610    1.9405 C   0  0  0  0  0  0  0  0  0  0  0  0
   17.3897   18.5934    2.4349 C   0  0  1  0  0  0  0  0  0  0  0  0
   17.8488   19.6018    1.5668 O   0  0  0  0  0  0  0  0  0  0  0  0
   15.9216   18.7045    2.4611 N   0  0  0  0  0  0  0  0  0  0  0  0
   15.2654   17.8364    3.4465 C   0  0  0  0  0  0  0  0  0  0  0  0
   13.8916   17.3112    3.0212 C   0  0  0  0  0  0  0  0  0  0  0  0
   12.6839   17.8375    3.5118 C   0  0  0  0  0  0  0  0  0  0  0  0
   11.4323   17.2307    3.2182 C   0  0  0  0  0  0  0  0  0  0  0  0
   11.3506   16.0892    2.4088 C   0  0  0  0  0  0  0  0  0  0  0  0
   10.1272   15.2735    2.2404 C   0  0  0  0  0  0  0  0  0  0  0  0
    8.9390   15.2501    3.0255 C   0  0  0  0  0  0  0  0  0  0  0  0
    8.2251   14.1543    2.5947 C   0  0  0  0  0  0  0  0  0  0  0  0
    8.9606   13.6064    1.5922 N   0  0  0  0  0  0  0  0  0  0  0  0
    8.6553   12.4130    0.8413 C   0  0  0  0  0  0  0  0  0  0  0  0
   10.0944   14.2759    1.3385 N   0  0  0  0  0  0  0  0  0  0  0  0
   12.5592   15.6132    1.8677 C   0  0  0  0  0  0  0  0  0  0  0  0
   13.7983   16.2003    2.1758 C   0  0  0  0  0  0  0  0  0  0  0  0
   19.1330   16.6814    2.4729 C   0  0  0  0  0  0  0  0  0  0  0  0
   19.3111   15.2941    2.2772 C   0  0  0  0  0  0  0  0  0  0  0  0
  1  2  1  0
  2  3  1  0
  3  4  1  0
  4  5  2  0
  5  6  1  0
  6  7  2  0
  7  8  1  0
  8  9  2  0
  9 10  1  0
 10 11  1  6
 10 12  1  0
 12 13  1  0
 13 14  1  0
 14 15  2  0
 15 16  1  0
 16 17  2  0
 17 18  1  0
 18 19  1  0
 19 20  2  0
 20 21  1  0
 21 22  1  0
 21 23  1  0
 17 24  1  0
 24 25  2  0
  9 26  1  0
 26 27  2  0
 27  3  1  0
 27  6  1  0
 25 14  1  0
 23 18  2  0
M  END
>  <energy_score>  (3987) 
-16.793313

>  <inchikey>  (3987) 
GHIAWPWOHGJZFC-UHFFFAOYSA-N

>  <smiles>  (3987) 
CCn1ncc2ccc(C(O)NCc3ccc(-c4ccn(C)n4)cc3)cc21

>  <ref_pdb>  (3987) 
A0514b

>  <alias>  (3987) 
GHIAWPWOHGJZFC-UHFFFAOYSA-N-P76-P9-P76-601504

>  <HIPPO Pose ID>  (3987) 
507555

>  <name>  (3987) 
GHIAWPWOHGJZFC-UHFFFAOYSA-N-P76-P9-P76-601504

>  <HIPPO Compound ID>  (3987) 
289741

>  <ref_mols>  (3987) 
A0486a,A0717a

>  <distance_score>  (3987) 
1.731785

>  <inspiration_score>  (3987) 
None

$$$$
BZJNWWWWZLRWBF-UHFFFAOYSA-N-P9-P9-P76-601504
     RDKit          3D

 27 30  0  0  0  0  0  0  0  0999 V2000
   22.6544   13.7957    1.8459 C   0  0  0  0  0  0  0  0  0  0  0  0
   21.6573   14.9416    1.7810 C   0  0  0  0  0  0  0  0  0  0  0  0
   20.2954   14.6449    2.1837 N   0  0  0  0  0  0  0  0  0  0  0  0
   20.0178   13.4864    2.8188 N   0  0  0  0  0  0  0  0  0  0  0  0
   18.8178   13.6961    3.3442 C   0  0  0  0  0  0  0  0  0  0  0  0
   18.2747   14.9294    2.9713 C   0  0  0  0  0  0  0  0  0  0  0  0
   17.1077   15.6137    3.2985 C   0  0  0  0  0  0  0  0  0  0  0  0
   16.8456   16.8105    2.6541 C   0  0  0  0  0  0  0  0  0  0  0  0
   17.6627   17.2965    1.6220 C   0  0  0  0  0  0  0  0  0  0  0  0
   17.0269   18.3892    0.7555 C   0  0  1  0  0  0  0  0  0  0  0  0
   17.8261   18.6973   -0.3682 O   0  0  0  0  0  0  0  0  0  0  0  0
   15.7353   17.9379    0.2383 N   0  0  0  0  0  0  0  0  0  0  0  0
   14.5591   18.5646    0.8564 C   0  0  0  0  0  0  0  0  0  0  0  0
   13.3671   17.6257    1.0600 C   0  0  0  0  0  0  0  0  0  0  0  0
   12.0797   18.1521    1.2871 C   0  0  0  0  0  0  0  0  0  0  0  0
   10.9644   17.3191    1.5363 C   0  0  0  0  0  0  0  0  0  0  0  0
   11.1030   15.9306    1.5674 C   0  0  0  0  0  0  0  0  0  0  0  0
    9.9636   15.0212    1.7429 C   0  0  0  0  0  0  0  0  0  0  0  0
    8.9919   14.9329    2.7272 C   0  0  0  0  0  0  0  0  0  0  0  0
    8.2904   13.7416    2.4587 C   0  0  0  0  0  0  0  0  0  0  0  0
    8.7100   13.1578    1.3386 N   0  0  0  0  0  0  0  0  0  0  0  0
    9.6682   13.9821    0.8828 N   0  0  0  0  0  0  0  0  0  0  0  0
   10.2586   13.6939   -0.4054 C   0  0  0  0  0  0  0  0  0  0  0  0
   12.3946   15.4061    1.3784 C   0  0  0  0  0  0  0  0  0  0  0  0
   13.5034   16.2344    1.1267 C   0  0  0  0  0  0  0  0  0  0  0  0
   18.9266   16.6903    1.4019 C   0  0  0  0  0  0  0  0  0  0  0  0
   19.2082   15.4998    2.1109 C   0  0  0  0  0  0  0  0  0  0  0  0
  1  2  1  0
  2  3  1  0
  3  4  1  0
  4  5  2  0
  5  6  1  0
  6  7  2  0
  7  8  1  0
  8  9  2  0
  9 10  1  0
 10 11  1  6
 10 12  1  0
 12 13  1  0
 13 14  1  0
 14 15  2  0
 15 16  1  0
 16 17  2  0
 17 18  1  0
 18 19  2  0
 19 20  1  0
 20 21  2  0
 21 22  1  0
 22 23  1  0
 17 24  1  0
 24 25  2  0
  9 26  1  0
 26 27  2  0
 27  3  1  0
 27  6  1  0
 25 14  1  0
 22 18  1  0
M  END
>  <energy_score>  (3988) 
-34.024642

>  <inchikey>  (3988) 
BZJNWWWWZLRWBF-UHFFFAOYSA-N

>  <smiles>  (3988) 
CCn1ncc2ccc(C(O)NCc3ccc(-c4ccnn4C)cc3)cc21

>  <ref_pdb>  (3988) 
A0514b

>  <alias>  (3988) 
BZJNWWWWZLRWBF-UHFFFAOYSA-N-P9-P9-P76-601504

>  <HIPPO Pose ID>  (3988) 
507556

>  <name>  (3988) 
BZJNWWWWZLRWBF-UHFFFAOYSA-N-P9-P9-P76-601504

>  <HIPPO Compound ID>  (3988) 
289742

>  <ref_mols>  (3988) 
A0486a,A0717a

>  <distance_score>  (3988) 
1.800137

>  <inspiration_score>  (3988) 
None

$$$$
BZJNWWWWZLRWBF-UHFFFAOYSA-N-P76-P9-P76-601504
     RDKit          3D

 27 30  0  0  0  0  0  0  0  0999 V2000
   22.5954   13.6099    1.8621 C   0  0  0  0  0  0  0  0  0  0  0  0
   21.6611   14.8066    1.9496 C   0  0  0  0  0  0  0  0  0  0  0  0
   20.2986   14.5262    2.3629 N   0  0  0  0  0  0  0  0  0  0  0  0
   20.0155   13.3670    2.9980 N   0  0  0  0  0  0  0  0  0  0  0  0
   18.7935   13.5580    3.4788 C   0  0  0  0  0  0  0  0  0  0  0  0
   18.2600   14.7970    3.1088 C   0  0  0  0  0  0  0  0  0  0  0  0
   17.0816   15.4722    3.4099 C   0  0  0  0  0  0  0  0  0  0  0  0
   16.8226   16.6667    2.7566 C   0  0  0  0  0  0  0  0  0  0  0  0
   17.6638   17.1716    1.7572 C   0  0  0  0  0  0  0  0  0  0  0  0
   17.0870   18.2821    0.8698 C   0  0  1  0  0  0  0  0  0  0  0  0
   17.8901   18.4195   -0.2861 O   0  0  0  0  0  0  0  0  0  0  0  0
   15.7537   17.9490    0.3611 N   0  0  0  0  0  0  0  0  0  0  0  0
   14.6326   18.5339    1.1219 C   0  0  0  0  0  0  0  0  0  0  0  0
   13.4267   17.6063    1.2902 C   0  0  0  0  0  0  0  0  0  0  0  0
   12.1570   18.1365    1.5949 C   0  0  0  0  0  0  0  0  0  0  0  0
   11.0326   17.3064    1.8126 C   0  0  0  0  0  0  0  0  0  0  0  0
   11.1443   15.9174    1.7344 C   0  0  0  0  0  0  0  0  0  0  0  0
    9.9961   15.0150    1.8850 C   0  0  0  0  0  0  0  0  0  0  0  0
    9.0764   14.8535    2.9085 C   0  0  0  0  0  0  0  0  0  0  0  0
    8.3403   13.7002    2.5759 C   0  0  0  0  0  0  0  0  0  0  0  0
    8.6873   13.2112    1.3872 N   0  0  0  0  0  0  0  0  0  0  0  0
    9.6464   14.0511    0.9604 N   0  0  0  0  0  0  0  0  0  0  0  0
   10.1840   13.8533   -0.3671 C   0  0  0  0  0  0  0  0  0  0  0  0
   12.4190   15.3864    1.4689 C   0  0  0  0  0  0  0  0  0  0  0  0
   13.5361   16.2117    1.2470 C   0  0  0  0  0  0  0  0  0  0  0  0
   18.9484   16.5874    1.5901 C   0  0  0  0  0  0  0  0  0  0  0  0
   19.2140   15.3827    2.2810 C   0  0  0  0  0  0  0  0  0  0  0  0
  1  2  1  0
  2  3  1  0
  3  4  1  0
  4  5  2  0
  5  6  1  0
  6  7  2  0
  7  8  1  0
  8  9  2  0
  9 10  1  0
 10 11  1  6
 10 12  1  0
 12 13  1  0
 13 14  1  0
 14 15  2  0
 15 16  1  0
 16 17  2  0
 17 18  1  0
 18 19  2  0
 19 20  1  0
 20 21  2  0
 21 22  1  0
 22 23  1  0
 17 24  1  0
 24 25  2  0
  9 26  1  0
 26 27  2  0
 27  3  1  0
 27  6  1  0
 25 14  1  0
 22 18  1  0
M  END
>  <energy_score>  (3989) 
-37.731091

>  <inchikey>  (3989) 
BZJNWWWWZLRWBF-UHFFFAOYSA-N

>  <smiles>  (3989) 
CCn1ncc2ccc(C(O)NCc3ccc(-c4ccnn4C)cc3)cc21

>  <ref_pdb>  (3989) 
A0514b

>  <alias>  (3989) 
BZJNWWWWZLRWBF-UHFFFAOYSA-N-P76-P9-P76-601504

>  <HIPPO Pose ID>  (3989) 
507557

>  <name>  (3989) 
BZJNWWWWZLRWBF-UHFFFAOYSA-N-P76-P9-P76-601504

>  <HIPPO Compound ID>  (3989) 
289742

>  <ref_mols>  (3989) 
A0486a,A0717a

>  <distance_score>  (3989) 
1.769367

>  <inspiration_score>  (3989) 
None

$$$$
QAXMGIZYEFQQAT-UHFFFAOYSA-N-P9-P9-P76-601504
     RDKit          3D

 27 30  0  0  0  0  0  0  0  0999 V2000
   17.8845   12.1054    1.0819 C   0  0  0  0  0  0  0  0  0  0  0  0
   18.5933   13.3041    1.5962 C   0  0  0  0  0  0  0  0  0  0  0  0
   19.7574   13.1910    2.2334 N   0  0  0  0  0  0  0  0  0  0  0  0
   20.1615   14.4662    2.4104 N   0  0  0  0  0  0  0  0  0  0  0  0
   21.5652   14.6823    2.6717 C   0  0  0  0  0  0  0  0  0  0  0  0
   19.1598   15.3868    2.1907 C   0  0  0  0  0  0  0  0  0  0  0  0
   18.9647   16.7514    2.4954 C   0  0  0  0  0  0  0  0  0  0  0  0
   17.7063   17.3142    2.1621 C   0  0  0  0  0  0  0  0  0  0  0  0
   17.1058   18.5507    2.8417 C   0  0  2  0  0  0  0  0  0  0  0  0
   17.8788   18.8616    3.9822 O   0  0  0  0  0  0  0  0  0  0  0  0
   15.7473   18.3041    3.3661 N   0  0  0  0  0  0  0  0  0  0  0  0
   14.6692   18.8917    2.5523 C   0  0  0  0  0  0  0  0  0  0  0  0
   13.3984   18.0416    2.4966 C   0  0  0  0  0  0  0  0  0  0  0  0
   13.0857   17.3157    1.3384 C   0  0  0  0  0  0  0  0  0  0  0  0
   11.9306   16.5167    1.2622 C   0  0  0  0  0  0  0  0  0  0  0  0
   11.0256   16.4149    2.3316 C   0  0  0  0  0  0  0  0  0  0  0  0
    9.9255   15.4288    2.2622 C   0  0  0  0  0  0  0  0  0  0  0  0
    8.7643   15.2949    3.0744 C   0  0  0  0  0  0  0  0  0  0  0  0
    8.1741   14.1100    2.6958 C   0  0  0  0  0  0  0  0  0  0  0  0
    8.9512   13.6115    1.6995 N   0  0  0  0  0  0  0  0  0  0  0  0
    8.7590   12.3712    0.9878 C   0  0  0  0  0  0  0  0  0  0  0  0
   10.0123   14.3851    1.4161 N   0  0  0  0  0  0  0  0  0  0  0  0
   11.3119   17.1747    3.4774 C   0  0  0  0  0  0  0  0  0  0  0  0
   12.4859   17.9671    3.5617 C   0  0  0  0  0  0  0  0  0  0  0  0
   16.8875   16.6414    1.2508 C   0  0  0  0  0  0  0  0  0  0  0  0
   17.0933   15.3053    0.9451 C   0  0  0  0  0  0  0  0  0  0  0  0
   18.1874   14.6521    1.5139 C   0  0  0  0  0  0  0  0  0  0  0  0
  1  2  1  0
  2  3  2  0
  3  4  1  0
  4  5  1  0
  4  6  1  0
  6  7  2  0
  7  8  1  0
  8  9  1  0
  9 10  1  1
  9 11  1  0
 11 12  1  0
 12 13  1  0
 13 14  2  0
 14 15  1  0
 15 16  2  0
 16 17  1  0
 17 18  1  0
 18 19  2  0
 19 20  1  0
 20 21  1  0
 20 22  1  0
 16 23  1  0
 23 24  2  0
  8 25  2  0
 25 26  1  0
 26 27  2  0
 27  2  1  0
 27  6  1  0
 24 13  1  0
 22 17  2  0
M  END
>  <energy_score>  (3990) 
-17.900332

>  <inchikey>  (3990) 
QAXMGIZYEFQQAT-UHFFFAOYSA-N

>  <smiles>  (3990) 
Cc1nn(C)c2cc(C(O)NCc3ccc(-c4ccn(C)n4)cc3)ccc12

>  <ref_pdb>  (3990) 
A0514b

>  <alias>  (3990) 
QAXMGIZYEFQQAT-UHFFFAOYSA-N-P9-P9-P76-601504

>  <HIPPO Pose ID>  (3990) 
507560

>  <name>  (3990) 
QAXMGIZYEFQQAT-UHFFFAOYSA-N-P9-P9-P76-601504

>  <HIPPO Compound ID>  (3990) 
289744

>  <ref_mols>  (3990) 
A0486a,A0717a

>  <distance_score>  (3990) 
1.810373

>  <inspiration_score>  (3990) 
None

$$$$
QAXMGIZYEFQQAT-UHFFFAOYSA-N-P76-P9-P76-601504
     RDKit          3D

 27 30  0  0  0  0  0  0  0  0999 V2000
   18.1015   11.9890    1.3849 C   0  0  0  0  0  0  0  0  0  0  0  0
   18.7423   13.2508    1.8333 C   0  0  0  0  0  0  0  0  0  0  0  0
   19.9977   13.2562    2.2776 N   0  0  0  0  0  0  0  0  0  0  0  0
   20.2789   14.5620    2.4638 N   0  0  0  0  0  0  0  0  0  0  0  0
   21.6686   14.9125    2.6295 C   0  0  0  0  0  0  0  0  0  0  0  0
   19.1755   15.3854    2.3718 C   0  0  0  0  0  0  0  0  0  0  0  0
   18.9049   16.7459    2.6630 C   0  0  0  0  0  0  0  0  0  0  0  0
   17.5714   17.2112    2.4814 C   0  0  0  0  0  0  0  0  0  0  0  0
   17.0340   18.5367    3.0391 C   0  0  2  0  0  0  0  0  0  0  0  0
   17.7955   18.8560    4.1905 O   0  0  0  0  0  0  0  0  0  0  0  0
   15.6493   18.4627    3.5397 N   0  0  0  0  0  0  0  0  0  0  0  0
   14.6306   18.9348    2.5773 C   0  0  0  0  0  0  0  0  0  0  0  0
   13.3610   18.0818    2.5537 C   0  0  0  0  0  0  0  0  0  0  0  0
   13.0022   17.3951    1.3837 C   0  0  0  0  0  0  0  0  0  0  0  0
   11.8636   16.5712    1.3343 C   0  0  0  0  0  0  0  0  0  0  0  0
   11.0147   16.4111    2.4416 C   0  0  0  0  0  0  0  0  0  0  0  0
    9.9445   15.3912    2.3966 C   0  0  0  0  0  0  0  0  0  0  0  0
    8.8430   15.1823    3.2735 C   0  0  0  0  0  0  0  0  0  0  0  0
    8.2592   14.0019    2.8719 C   0  0  0  0  0  0  0  0  0  0  0  0
    8.9849   13.5755    1.8061 N   0  0  0  0  0  0  0  0  0  0  0  0
    8.7884   12.3604    1.0538 C   0  0  0  0  0  0  0  0  0  0  0  0
    9.9961   14.3996    1.4868 N   0  0  0  0  0  0  0  0  0  0  0  0
   11.3304   17.1519    3.5925 C   0  0  0  0  0  0  0  0  0  0  0  0
   12.4916   17.9659    3.6506 C   0  0  0  0  0  0  0  0  0  0  0  0
   16.6689   16.3916    1.8002 C   0  0  0  0  0  0  0  0  0  0  0  0
   16.9485   15.0697    1.4957 C   0  0  0  0  0  0  0  0  0  0  0  0
   18.1875   14.5462    1.8581 C   0  0  0  0  0  0  0  0  0  0  0  0
  1  2  1  0
  2  3  2  0
  3  4  1  0
  4  5  1  0
  4  6  1  0
  6  7  2  0
  7  8  1  0
  8  9  1  0
  9 10  1  1
  9 11  1  0
 11 12  1  0
 12 13  1  0
 13 14  2  0
 14 15  1  0
 15 16  2  0
 16 17  1  0
 17 18  1  0
 18 19  2  0
 19 20  1  0
 20 21  1  0
 20 22  1  0
 16 23  1  0
 23 24  2  0
  8 25  2  0
 25 26  1  0
 26 27  2  0
 27  2  1  0
 27  6  1  0
 24 13  1  0
 22 17  2  0
M  END
>  <energy_score>  (3991) 
-18.703172

>  <inchikey>  (3991) 
QAXMGIZYEFQQAT-UHFFFAOYSA-N

>  <smiles>  (3991) 
Cc1nn(C)c2cc(C(O)NCc3ccc(-c4ccn(C)n4)cc3)ccc12

>  <ref_pdb>  (3991) 
A0514b

>  <alias>  (3991) 
QAXMGIZYEFQQAT-UHFFFAOYSA-N-P76-P9-P76-601504

>  <HIPPO Pose ID>  (3991) 
507561

>  <name>  (3991) 
QAXMGIZYEFQQAT-UHFFFAOYSA-N-P76-P9-P76-601504

>  <HIPPO Compound ID>  (3991) 
289744

>  <ref_mols>  (3991) 
A0486a,A0717a

>  <distance_score>  (3991) 
1.803907

>  <inspiration_score>  (3991) 
None

$$$$
NPUMLTFYQROYDB-UHFFFAOYSA-N-P9-P9-P76-601504
     RDKit          3D

 27 30  0  0  0  0  0  0  0  0999 V2000
   20.0611   17.9307    2.8811 C   0  0  0  0  0  0  0  0  0  0  0  0
   19.1008   16.9453    2.2755 C   0  0  0  0  0  0  0  0  0  0  0  0
   17.8307   17.4252    1.8040 C   0  0  0  0  0  0  0  0  0  0  0  0
   17.1806   18.7449    2.2563 C   0  0  1  0  0  0  0  0  0  0  0  0
   17.1835   19.6879    1.2105 O   0  0  0  0  0  0  0  0  0  0  0  0
   15.8311   18.5615    2.8351 N   0  0  0  0  0  0  0  0  0  0  0  0
   14.6864   18.7866    1.9392 C   0  0  0  0  0  0  0  0  0  0  0  0
   13.4736   17.8753    2.1577 C   0  0  0  0  0  0  0  0  0  0  0  0
   13.5849   16.4822    2.0893 C   0  0  0  0  0  0  0  0  0  0  0  0
   12.4454   15.6600    2.0710 C   0  0  0  0  0  0  0  0  0  0  0  0
   11.1441   16.1897    2.1331 C   0  0  0  0  0  0  0  0  0  0  0  0
    9.9875   15.2854    2.0423 C   0  0  0  0  0  0  0  0  0  0  0  0
    8.9345   15.0511    2.9133 C   0  0  0  0  0  0  0  0  0  0  0  0
    8.2798   13.9077    2.4157 C   0  0  0  0  0  0  0  0  0  0  0  0
    8.8045   13.4925    1.2647 N   0  0  0  0  0  0  0  0  0  0  0  0
    9.7976   14.3678    1.0276 N   0  0  0  0  0  0  0  0  0  0  0  0
   10.5359   14.2435   -0.2091 C   0  0  0  0  0  0  0  0  0  0  0  0
   11.0246   17.5737    2.2644 C   0  0  0  0  0  0  0  0  0  0  0  0
   12.1720   18.4038    2.2638 C   0  0  0  0  0  0  0  0  0  0  0  0
   17.0488   16.6149    0.9796 C   0  0  0  0  0  0  0  0  0  0  0  0
   17.2475   15.2499    0.9228 C   0  0  0  0  0  0  0  0  0  0  0  0
   18.3119   14.7048    1.6341 C   0  0  0  0  0  0  0  0  0  0  0  0
   18.6705   13.3912    1.9554 C   0  0  0  0  0  0  0  0  0  0  0  0
   19.8191   13.3416    2.6133 N   0  0  0  0  0  0  0  0  0  0  0  0
   20.2829   14.6131    2.5336 N   0  0  0  0  0  0  0  0  0  0  0  0
   21.7176   14.7561    2.6228 C   0  0  0  0  0  0  0  0  0  0  0  0
   19.2947   15.5304    2.1967 C   0  0  0  0  0  0  0  0  0  0  0  0
  1  2  1  0
  2  3  2  0
  3  4  1  0
  4  5  1  6
  4  6  1  0
  6  7  1  0
  7  8  1  0
  8  9  2  0
  9 10  1  0
 10 11  2  0
 11 12  1  0
 12 13  2  0
 13 14  1  0
 14 15  2  0
 15 16  1  0
 16 17  1  0
 11 18  1  0
 18 19  2  0
  3 20  1  0
 20 21  2  0
 21 22  1  0
 22 23  1  0
 23 24  2  0
 24 25  1  0
 25 26  1  0
 25 27  1  0
 27  2  1  0
 19  8  1  0
 27 22  2  0
 16 12  1  0
M  END
>  <energy_score>  (3992) 
-35.033133

>  <inchikey>  (3992) 
NPUMLTFYQROYDB-UHFFFAOYSA-N

>  <smiles>  (3992) 
Cc1c(C(O)NCc2ccc(-c3ccnn3C)cc2)ccc2cnn(C)c12

>  <ref_pdb>  (3992) 
A0514b

>  <alias>  (3992) 
NPUMLTFYQROYDB-UHFFFAOYSA-N-P9-P9-P76-601504

>  <HIPPO Pose ID>  (3992) 
507562

>  <name>  (3992) 
NPUMLTFYQROYDB-UHFFFAOYSA-N-P9-P9-P76-601504

>  <HIPPO Compound ID>  (3992) 
289745

>  <ref_mols>  (3992) 
A0486a,A0717a

>  <distance_score>  (3992) 
1.707443

>  <inspiration_score>  (3992) 
None

$$$$
NPUMLTFYQROYDB-UHFFFAOYSA-N-P76-P9-P76-601504
     RDKit          3D

 27 30  0  0  0  0  0  0  0  0999 V2000
   20.0343   17.8630    3.1636 C   0  0  0  0  0  0  0  0  0  0  0  0
   19.1329   16.8872    2.4602 C   0  0  0  0  0  0  0  0  0  0  0  0
   17.8636   17.3456    1.9677 C   0  0  0  0  0  0  0  0  0  0  0  0
   17.1581   18.6246    2.4544 C   0  0  1  0  0  0  0  0  0  0  0  0
   17.1476   19.6023    1.4403 O   0  0  0  0  0  0  0  0  0  0  0  0
   15.8051   18.3678    2.9982 N   0  0  0  0  0  0  0  0  0  0  0  0
   14.6740   18.6309    2.0967 C   0  0  0  0  0  0  0  0  0  0  0  0
   13.4582   17.7210    2.2884 C   0  0  0  0  0  0  0  0  0  0  0  0
   13.5397   16.3495    2.0219 C   0  0  0  0  0  0  0  0  0  0  0  0
   12.3908   15.5426    2.0033 C   0  0  0  0  0  0  0  0  0  0  0  0
   11.1111   16.0666    2.2575 C   0  0  0  0  0  0  0  0  0  0  0  0
    9.9411   15.1807    2.1787 C   0  0  0  0  0  0  0  0  0  0  0  0
    8.9696   14.8608    3.1141 C   0  0  0  0  0  0  0  0  0  0  0  0
    8.2639   13.7718    2.5682 C   0  0  0  0  0  0  0  0  0  0  0  0
    8.6752   13.4752    1.3369 N   0  0  0  0  0  0  0  0  0  0  0  0
    9.6496   14.3713    1.0983 N   0  0  0  0  0  0  0  0  0  0  0  0
   10.2640   14.3777   -0.2101 C   0  0  0  0  0  0  0  0  0  0  0  0
   11.0288   17.4204    2.5880 C   0  0  0  0  0  0  0  0  0  0  0  0
   12.1851   18.2376    2.5934 C   0  0  0  0  0  0  0  0  0  0  0  0
   17.1289   16.5414    1.0932 C   0  0  0  0  0  0  0  0  0  0  0  0
   17.3736   15.1849    0.9915 C   0  0  0  0  0  0  0  0  0  0  0  0
   18.4444   14.6483    1.7016 C   0  0  0  0  0  0  0  0  0  0  0  0
   18.8519   13.3373    1.9866 C   0  0  0  0  0  0  0  0  0  0  0  0
   19.9903   13.3124    2.6655 N   0  0  0  0  0  0  0  0  0  0  0  0
   20.4052   14.6000    2.6201 N   0  0  0  0  0  0  0  0  0  0  0  0
   21.8351   14.7969    2.6640 C   0  0  0  0  0  0  0  0  0  0  0  0
   19.3827   15.4881    2.3145 C   0  0  0  0  0  0  0  0  0  0  0  0
  1  2  1  0
  2  3  2  0
  3  4  1  0
  4  5  1  6
  4  6  1  0
  6  7  1  0
  7  8  1  0
  8  9  2  0
  9 10  1  0
 10 11  2  0
 11 12  1  0
 12 13  2  0
 13 14  1  0
 14 15  2  0
 15 16  1  0
 16 17  1  0
 11 18  1  0
 18 19  2  0
  3 20  1  0
 20 21  2  0
 21 22  1  0
 22 23  1  0
 23 24  2  0
 24 25  1  0
 25 26  1  0
 25 27  1  0
 27  2  1  0
 19  8  1  0
 27 22  2  0
 16 12  1  0
M  END
>  <energy_score>  (3993) 
-35.703464

>  <inchikey>  (3993) 
NPUMLTFYQROYDB-UHFFFAOYSA-N

>  <smiles>  (3993) 
Cc1c(C(O)NCc2ccc(-c3ccnn3C)cc2)ccc2cnn(C)c12

>  <ref_pdb>  (3993) 
A0514b

>  <alias>  (3993) 
NPUMLTFYQROYDB-UHFFFAOYSA-N-P76-P9-P76-601504

>  <HIPPO Pose ID>  (3993) 
507563

>  <name>  (3993) 
NPUMLTFYQROYDB-UHFFFAOYSA-N-P76-P9-P76-601504

>  <HIPPO Compound ID>  (3993) 
289745

>  <ref_mols>  (3993) 
A0486a,A0717a

>  <distance_score>  (3993) 
1.634641

>  <inspiration_score>  (3993) 
None

$$$$
PTTWWUJFUDJAMV-UHFFFAOYSA-N-P9-P9-P76-601504
     RDKit          3D

 27 30  0  0  0  0  0  0  0  0999 V2000
   19.9493   17.2886    0.4486 C   0  0  0  0  0  0  0  0  0  0  0  0
   18.9750   16.6981    1.4283 C   0  0  0  0  0  0  0  0  0  0  0  0
   17.6654   17.2733    1.5803 C   0  0  0  0  0  0  0  0  0  0  0  0
   17.0785   18.3681    0.6673 C   0  0  2  0  0  0  0  0  0  0  0  0
   17.1429   19.6429    1.2727 O   0  0  0  0  0  0  0  0  0  0  0  0
   15.7214   18.0542    0.1899 N   0  0  0  0  0  0  0  0  0  0  0  0
   14.5933   18.6278    0.9469 C   0  0  0  0  0  0  0  0  0  0  0  0
   13.3967   17.6869    1.1338 C   0  0  0  0  0  0  0  0  0  0  0  0
   13.3742   16.3704    0.6652 C   0  0  0  0  0  0  0  0  0  0  0  0
   12.2599   15.5377    0.8897 C   0  0  0  0  0  0  0  0  0  0  0  0
   11.1202   15.9738    1.5959 C   0  0  0  0  0  0  0  0  0  0  0  0
   10.0025   15.0373    1.8324 C   0  0  0  0  0  0  0  0  0  0  0  0
    8.8482   15.1804    2.6533 C   0  0  0  0  0  0  0  0  0  0  0  0
    8.1858   13.9760    2.5878 C   0  0  0  0  0  0  0  0  0  0  0  0
    8.9183   13.1970    1.7507 N   0  0  0  0  0  0  0  0  0  0  0  0
    8.6431   11.8310    1.3748 C   0  0  0  0  0  0  0  0  0  0  0  0
   10.0207   13.8074    1.2877 N   0  0  0  0  0  0  0  0  0  0  0  0
   11.1381   17.2917    2.0632 C   0  0  0  0  0  0  0  0  0  0  0  0
   12.2556   18.1316    1.8329 C   0  0  0  0  0  0  0  0  0  0  0  0
   16.7976   16.7792    2.5624 C   0  0  0  0  0  0  0  0  0  0  0  0
   17.0406   15.5954    3.2263 C   0  0  0  0  0  0  0  0  0  0  0  0
   18.2217   14.9180    2.9522 C   0  0  0  0  0  0  0  0  0  0  0  0
   18.7109   13.6701    3.3432 C   0  0  0  0  0  0  0  0  0  0  0  0
   19.9274   13.4369    2.8792 N   0  0  0  0  0  0  0  0  0  0  0  0
   20.2680   14.5971    2.2795 N   0  0  0  0  0  0  0  0  0  0  0  0
   21.6612   14.7700    1.9444 C   0  0  0  0  0  0  0  0  0  0  0  0
   19.2110   15.4871    2.1465 C   0  0  0  0  0  0  0  0  0  0  0  0
  1  2  1  0
  2  3  2  0
  3  4  1  0
  4  5  1  1
  4  6  1  0
  6  7  1  0
  7  8  1  0
  8  9  2  0
  9 10  1  0
 10 11  2  0
 11 12  1  0
 12 13  1  0
 13 14  2  0
 14 15  1  0
 15 16  1  0
 15 17  1  0
 11 18  1  0
 18 19  2  0
  3 20  1  0
 20 21  2  0
 21 22  1  0
 22 23  1  0
 23 24  2  0
 24 25  1  0
 25 26  1  0
 25 27  1  0
 27  2  1  0
 19  8  1  0
 27 22  2  0
 17 12  2  0
M  END
>  <energy_score>  (3994) 
-33.664918

>  <inchikey>  (3994) 
PTTWWUJFUDJAMV-UHFFFAOYSA-N

>  <smiles>  (3994) 
Cc1c(C(O)NCc2ccc(-c3ccn(C)n3)cc2)ccc2cnn(C)c12

>  <ref_pdb>  (3994) 
A0514b

>  <alias>  (3994) 
PTTWWUJFUDJAMV-UHFFFAOYSA-N-P9-P9-P76-601504

>  <HIPPO Pose ID>  (3994) 
507564

>  <name>  (3994) 
PTTWWUJFUDJAMV-UHFFFAOYSA-N-P9-P9-P76-601504

>  <HIPPO Compound ID>  (3994) 
289746

>  <ref_mols>  (3994) 
A0486a,A0717a

>  <distance_score>  (3994) 
1.860013

>  <inspiration_score>  (3994) 
None

$$$$
PTTWWUJFUDJAMV-UHFFFAOYSA-N-P76-P9-P76-601504
     RDKit          3D

 27 30  0  0  0  0  0  0  0  0999 V2000
   19.9807   17.1626    0.6020 C   0  0  0  0  0  0  0  0  0  0  0  0
   18.9990   16.5821    1.5804 C   0  0  0  0  0  0  0  0  0  0  0  0
   17.6980   17.1742    1.7344 C   0  0  0  0  0  0  0  0  0  0  0  0
   17.1276   18.2813    0.8268 C   0  0  2  0  0  0  0  0  0  0  0  0
   17.2078   19.5518    1.4393 O   0  0  0  0  0  0  0  0  0  0  0  0
   15.7687   17.9893    0.3435 N   0  0  0  0  0  0  0  0  0  0  0  0
   14.6450   18.5671    1.1036 C   0  0  0  0  0  0  0  0  0  0  0  0
   13.4455   17.6305    1.2900 C   0  0  0  0  0  0  0  0  0  0  0  0
   12.3443   18.0440    2.0679 C   0  0  0  0  0  0  0  0  0  0  0  0
   11.2226   17.2078    2.2894 C   0  0  0  0  0  0  0  0  0  0  0  0
   11.1594   15.9268    1.7323 C   0  0  0  0  0  0  0  0  0  0  0  0
   10.0429   14.9882    1.9638 C   0  0  0  0  0  0  0  0  0  0  0  0
    8.9252   15.0953    2.8387 C   0  0  0  0  0  0  0  0  0  0  0  0
    8.2556   13.8968    2.7445 C   0  0  0  0  0  0  0  0  0  0  0  0
    8.9523   13.1549    1.8455 N   0  0  0  0  0  0  0  0  0  0  0  0
    8.6722   11.7995    1.4377 C   0  0  0  0  0  0  0  0  0  0  0  0
   10.0254   13.7910    1.3504 N   0  0  0  0  0  0  0  0  0  0  0  0
   12.2573   15.5243    0.9450 C   0  0  0  0  0  0  0  0  0  0  0  0
   13.3756   16.3529    0.7283 C   0  0  0  0  0  0  0  0  0  0  0  0
   16.8261   16.6889    2.7173 C   0  0  0  0  0  0  0  0  0  0  0  0
   17.0579   15.5037    3.3853 C   0  0  0  0  0  0  0  0  0  0  0  0
   18.2282   14.8079    3.1082 C   0  0  0  0  0  0  0  0  0  0  0  0
   18.6999   13.5481    3.4920 C   0  0  0  0  0  0  0  0  0  0  0  0
   19.9195   13.3103    3.0366 N   0  0  0  0  0  0  0  0  0  0  0  0
   20.2648   14.4600    2.4183 N   0  0  0  0  0  0  0  0  0  0  0  0
   21.6520   14.6091    2.0481 C   0  0  0  0  0  0  0  0  0  0  0  0
   19.2202   15.3657    2.2966 C   0  0  0  0  0  0  0  0  0  0  0  0
  1  2  1  0
  2  3  2  0
  3  4  1  0
  4  5  1  1
  4  6  1  0
  6  7  1  0
  7  8  1  0
  8  9  2  0
  9 10  1  0
 10 11  2  0
 11 12  1  0
 12 13  1  0
 13 14  2  0
 14 15  1  0
 15 16  1  0
 15 17  1  0
 11 18  1  0
 18 19  2  0
  3 20  1  0
 20 21  2  0
 21 22  1  0
 22 23  1  0
 23 24  2  0
 24 25  1  0
 25 26  1  0
 25 27  1  0
 27  2  1  0
 19  8  1  0
 27 22  2  0
 17 12  2  0
M  END
>  <energy_score>  (3995) 
-34.014145

>  <inchikey>  (3995) 
PTTWWUJFUDJAMV-UHFFFAOYSA-N

>  <smiles>  (3995) 
Cc1c(C(O)NCc2ccc(-c3ccn(C)n3)cc2)ccc2cnn(C)c12

>  <ref_pdb>  (3995) 
A0514b

>  <alias>  (3995) 
PTTWWUJFUDJAMV-UHFFFAOYSA-N-P76-P9-P76-601504

>  <HIPPO Pose ID>  (3995) 
507565

>  <name>  (3995) 
PTTWWUJFUDJAMV-UHFFFAOYSA-N-P76-P9-P76-601504

>  <HIPPO Compound ID>  (3995) 
289746

>  <ref_mols>  (3995) 
A0486a,A0717a

>  <distance_score>  (3995) 
1.818506

>  <inspiration_score>  (3995) 
None

$$$$
DADBTNGOYDYRJA-UHFFFAOYSA-N-P9-P9-P76-601504
     RDKit          3D

 27 30  0  0  0  0  0  0  0  0999 V2000
   11.0348   13.5353    0.2497 C   0  0  0  0  0  0  0  0  0  0  0  0
   10.0567   14.0854    1.1633 N   0  0  0  0  0  0  0  0  0  0  0  0
    9.0285   13.2945    1.5147 N   0  0  0  0  0  0  0  0  0  0  0  0
    8.3953   13.9827    2.4593 C   0  0  0  0  0  0  0  0  0  0  0  0
    8.9937   15.2361    2.6851 C   0  0  0  0  0  0  0  0  0  0  0  0
   10.0781   15.3053    1.8209 C   0  0  0  0  0  0  0  0  0  0  0  0
   11.1220   16.3350    1.6465 C   0  0  0  0  0  0  0  0  0  0  0  0
   11.6225   16.6626    0.3744 C   0  0  0  0  0  0  0  0  0  0  0  0
   12.7460   17.4980    0.2057 C   0  0  0  0  0  0  0  0  0  0  0  0
   13.4083   18.0498    1.3081 C   0  0  0  0  0  0  0  0  0  0  0  0
   14.6619   18.9141    1.1461 C   0  0  0  0  0  0  0  0  0  0  0  0
   15.7045   18.2814    0.3262 N   0  0  0  0  0  0  0  0  0  0  0  0
   17.0953   18.4790    0.7640 C   0  0  2  0  0  0  0  0  0  0  0  0
   17.7851   18.6186   -0.4516 O   0  0  0  0  0  0  0  0  0  0  0  0
   17.6666   17.3079    1.5905 C   0  0  0  0  0  0  0  0  0  0  0  0
   16.7466   16.6991    2.4616 C   0  0  0  0  0  0  0  0  0  0  0  0
   16.9854   15.4917    3.0879 C   0  0  0  0  0  0  0  0  0  0  0  0
   18.2136   14.8798    2.8845 C   0  0  0  0  0  0  0  0  0  0  0  0
   18.7311   13.6478    3.2816 C   0  0  0  0  0  0  0  0  0  0  0  0
   19.9861   13.4833    2.9011 N   0  0  0  0  0  0  0  0  0  0  0  0
   20.3154   14.6700    2.3435 N   0  0  0  0  0  0  0  0  0  0  0  0
   21.7122   14.8721    2.0378 C   0  0  0  0  0  0  0  0  0  0  0  0
   19.2356   15.5280    2.1867 C   0  0  0  0  0  0  0  0  0  0  0  0
   18.9948   16.7778    1.5457 C   0  0  0  0  0  0  0  0  0  0  0  0
   20.4129   17.6827    0.6718 Br  0  0  0  0  0  0  0  0  0  0  0  0
   12.8497   17.8067    2.5750 C   0  0  0  0  0  0  0  0  0  0  0  0
   11.7236   16.9693    2.7407 C   0  0  0  0  0  0  0  0  0  0  0  0
  1  2  1  0
  2  3  1  0
  3  4  2  0
  4  5  1  0
  5  6  2  0
  6  7  1  0
  7  8  2  0
  8  9  1  0
  9 10  2  0
 10 11  1  0
 11 12  1  0
 12 13  1  0
 13 14  1  6
 13 15  1  0
 15 16  2  0
 16 17  1  0
 17 18  2  0
 18 19  1  0
 19 20  2  0
 20 21  1  0
 21 22  1  0
 21 23  1  0
 23 24  2  0
 24 25  1  0
 10 26  1  0
 26 27  2  0
  6  2  1  0
 27  7  1  0
 24 15  1  0
 23 18  1  0
M  END
>  <energy_score>  (3996) 
-59.470379

>  <inchikey>  (3996) 
DADBTNGOYDYRJA-UHFFFAOYSA-N

>  <smiles>  (3996) 
Cn1nccc1-c1ccc(CNC(O)c2ccc3cnn(C)c3c2Br)cc1

>  <ref_pdb>  (3996) 
A0514b

>  <alias>  (3996) 
DADBTNGOYDYRJA-UHFFFAOYSA-N-P9-P9-P76-601504

>  <HIPPO Pose ID>  (3996) 
507566

>  <name>  (3996) 
DADBTNGOYDYRJA-UHFFFAOYSA-N-P9-P9-P76-601504

>  <HIPPO Compound ID>  (3996) 
289747

>  <ref_mols>  (3996) 
A0486a,A0717a

>  <distance_score>  (3996) 
1.844773

>  <inspiration_score>  (3996) 
None

$$$$
DADBTNGOYDYRJA-UHFFFAOYSA-N-P76-P9-P76-601504
     RDKit          3D

 27 30  0  0  0  0  0  0  0  0999 V2000
   11.0135   13.5418    0.3084 C   0  0  0  0  0  0  0  0  0  0  0  0
   10.0565   14.0769    1.2524 N   0  0  0  0  0  0  0  0  0  0  0  0
    9.0279   13.2833    1.5979 N   0  0  0  0  0  0  0  0  0  0  0  0
    8.4328   13.9362    2.5908 C   0  0  0  0  0  0  0  0  0  0  0  0
    9.0453   15.1772    2.8435 C   0  0  0  0  0  0  0  0  0  0  0  0
   10.1002   15.2770    1.9460 C   0  0  0  0  0  0  0  0  0  0  0  0
   11.1413   16.3130    1.7804 C   0  0  0  0  0  0  0  0  0  0  0  0
   11.6635   16.6385    0.5168 C   0  0  0  0  0  0  0  0  0  0  0  0
   12.7908   17.4721    0.3650 C   0  0  0  0  0  0  0  0  0  0  0  0
   13.4368   18.0238    1.4769 C   0  0  0  0  0  0  0  0  0  0  0  0
   14.7037   18.8732    1.3394 C   0  0  0  0  0  0  0  0  0  0  0  0
   15.7283   18.2615    0.4814 N   0  0  0  0  0  0  0  0  0  0  0  0
   17.1246   18.3968    0.9215 C   0  0  2  0  0  0  0  0  0  0  0  0
   17.8176   18.5271   -0.2946 O   0  0  0  0  0  0  0  0  0  0  0  0
   17.6653   17.1929    1.7198 C   0  0  0  0  0  0  0  0  0  0  0  0
   16.7212   16.5352    2.5263 C   0  0  0  0  0  0  0  0  0  0  0  0
   16.9634   15.3219    3.1426 C   0  0  0  0  0  0  0  0  0  0  0  0
   18.2131   14.7403    2.9848 C   0  0  0  0  0  0  0  0  0  0  0  0
   18.7416   13.5115    3.3858 C   0  0  0  0  0  0  0  0  0  0  0  0
   20.0162   13.3862    3.0567 N   0  0  0  0  0  0  0  0  0  0  0  0
   20.3309   14.5731    2.4905 N   0  0  0  0  0  0  0  0  0  0  0  0
   21.7221   14.7826    2.1645 C   0  0  0  0  0  0  0  0  0  0  0  0
   19.2437   15.4208    2.3303 C   0  0  0  0  0  0  0  0  0  0  0  0
   19.0026   16.6837    1.7118 C   0  0  0  0  0  0  0  0  0  0  0  0
   20.4354   17.6465    0.9262 Br  0  0  0  0  0  0  0  0  0  0  0  0
   12.8485   17.7954    2.7328 C   0  0  0  0  0  0  0  0  0  0  0  0
   11.7173   16.9616    2.8804 C   0  0  0  0  0  0  0  0  0  0  0  0
  1  2  1  0
  2  3  1  0
  3  4  2  0
  4  5  1  0
  5  6  2  0
  6  7  1  0
  7  8  2  0
  8  9  1  0
  9 10  2  0
 10 11  1  0
 11 12  1  0
 12 13  1  0
 13 14  1  6
 13 15  1  0
 15 16  2  0
 16 17  1  0
 17 18  2  0
 18 19  1  0
 19 20  2  0
 20 21  1  0
 21 22  1  0
 21 23  1  0
 23 24  2  0
 24 25  1  0
 10 26  1  0
 26 27  2  0
  6  2  1  0
 27  7  1  0
 24 15  1  0
 23 18  1  0
M  END
>  <energy_score>  (3997) 
-60.215862

>  <inchikey>  (3997) 
DADBTNGOYDYRJA-UHFFFAOYSA-N

>  <smiles>  (3997) 
Cn1nccc1-c1ccc(CNC(O)c2ccc3cnn(C)c3c2Br)cc1

>  <ref_pdb>  (3997) 
A0514b

>  <alias>  (3997) 
DADBTNGOYDYRJA-UHFFFAOYSA-N-P76-P9-P76-601504

>  <HIPPO Pose ID>  (3997) 
507567

>  <name>  (3997) 
DADBTNGOYDYRJA-UHFFFAOYSA-N-P76-P9-P76-601504

>  <HIPPO Compound ID>  (3997) 
289747

>  <ref_mols>  (3997) 
A0486a,A0717a

>  <distance_score>  (3997) 
1.818419

>  <inspiration_score>  (3997) 
None

$$$$
JVOASDSRGUYUFB-UHFFFAOYSA-N-P76-P9-P76-601504
     RDKit          3D

 27 30  0  0  0  0  0  0  0  0999 V2000
    8.4773   11.9092    1.7265 C   0  0  0  0  0  0  0  0  0  0  0  0
    8.9272   13.2619    1.9517 N   0  0  0  0  0  0  0  0  0  0  0  0
    8.3239   14.2073    2.7178 C   0  0  0  0  0  0  0  0  0  0  0  0
    9.1428   15.3128    2.6649 C   0  0  0  0  0  0  0  0  0  0  0  0
   10.2470   14.9385    1.8530 C   0  0  0  0  0  0  0  0  0  0  0  0
   11.4763   15.6793    1.5139 C   0  0  0  0  0  0  0  0  0  0  0  0
   12.6215   14.9582    1.1234 C   0  0  0  0  0  0  0  0  0  0  0  0
   13.8046   15.5960    0.7121 C   0  0  0  0  0  0  0  0  0  0  0  0
   13.8968   16.9929    0.6643 C   0  0  0  0  0  0  0  0  0  0  0  0
   15.1338   17.6384    0.0389 C   0  0  0  0  0  0  0  0  0  0  0  0
   15.8105   18.6505    0.8562 N   0  0  0  0  0  0  0  0  0  0  0  0
   17.2604   18.4534    0.9879 C   0  0  1  0  0  0  0  0  0  0  0  0
   17.7437   19.6039    1.6435 O   0  0  0  0  0  0  0  0  0  0  0  0
   17.7200   17.2433    1.7986 C   0  0  0  0  0  0  0  0  0  0  0  0
   16.8304   16.7463    2.7626 C   0  0  0  0  0  0  0  0  0  0  0  0
   17.0176   15.5207    3.3776 C   0  0  0  0  0  0  0  0  0  0  0  0
   18.1731   14.8001    3.0933 C   0  0  0  0  0  0  0  0  0  0  0  0
   18.6261   13.5279    3.4587 C   0  0  0  0  0  0  0  0  0  0  0  0
   19.8421   13.2771    2.9976 N   0  0  0  0  0  0  0  0  0  0  0  0
   20.2162   14.4428    2.4221 N   0  0  0  0  0  0  0  0  0  0  0  0
   21.6179   14.6007    2.1090 C   0  0  0  0  0  0  0  0  0  0  0  0
   19.1808   15.3547    2.3003 C   0  0  0  0  0  0  0  0  0  0  0  0
   18.9734   16.5848    1.6226 C   0  0  0  0  0  0  0  0  0  0  0  0
   20.2850   17.2765    0.4420 Br  0  0  0  0  0  0  0  0  0  0  0  0
   12.7713   17.7230    1.0862 C   0  0  0  0  0  0  0  0  0  0  0  0
   11.5802   17.0759    1.5128 C   0  0  0  0  0  0  0  0  0  0  0  0
   10.0806   13.6798    1.4091 N   0  0  0  0  0  0  0  0  0  0  0  0
  1  2  1  0
  2  3  1  0
  3  4  2  0
  4  5  1  0
  5  6  1  0
  6  7  2  0
  7  8  1  0
  8  9  2  0
  9 10  1  0
 10 11  1  0
 11 12  1  0
 12 13  1  1
 12 14  1  0
 14 15  2  0
 15 16  1  0
 16 17  2  0
 17 18  1  0
 18 19  2  0
 19 20  1  0
 20 21  1  0
 20 22  1  0
 22 23  2  0
 23 24  1  0
  9 25  1  0
 25 26  2  0
  5 27  2  0
 27  2  1  0
 26  6  1  0
 23 14  1  0
 22 17  1  0
M  END
>  <energy_score>  (3998) 
-47.146094

>  <inchikey>  (3998) 
JVOASDSRGUYUFB-UHFFFAOYSA-N

>  <smiles>  (3998) 
Cn1ccc(-c2ccc(CNC(O)c3ccc4cnn(C)c4c3Br)cc2)n1

>  <ref_pdb>  (3998) 
A0514b

>  <alias>  (3998) 
JVOASDSRGUYUFB-UHFFFAOYSA-N-P76-P9-P76-601504

>  <HIPPO Pose ID>  (3998) 
507569

>  <name>  (3998) 
JVOASDSRGUYUFB-UHFFFAOYSA-N-P76-P9-P76-601504

>  <HIPPO Compound ID>  (3998) 
289748

>  <ref_mols>  (3998) 
A0486a,A0717a

>  <distance_score>  (3998) 
1.98444

>  <inspiration_score>  (3998) 
None

$$$$
UYJHDDYHNOTAEK-UHFFFAOYSA-N-P9-P9-P76-601504
     RDKit          3D

 27 30  0  0  0  0  0  0  0  0999 V2000
   16.6243   14.8178    3.3936 C   0  0  0  0  0  0  0  0  0  0  0  0
   17.6109   15.7729    2.7998 C   0  0  0  0  0  0  0  0  0  0  0  0
   17.2911   17.1542    2.5244 C   0  0  0  0  0  0  0  0  0  0  0  0
   16.0072   17.7851    3.0979 C   0  0  1  0  0  0  0  0  0  0  0  0
   16.2134   19.1787    3.2863 O   0  0  0  0  0  0  0  0  0  0  0  0
   14.8441   17.5768    2.2572 N   0  0  0  0  0  0  0  0  0  0  0  0
   13.6873   18.3419    2.7575 C   0  0  0  0  0  0  0  0  0  0  0  0
   12.3783   17.6255    2.5058 C   0  0  0  0  0  0  0  0  0  0  0  0
   12.0404   17.1469    1.2378 C   0  0  0  0  0  0  0  0  0  0  0  0
   10.9086   16.3434    1.0623 C   0  0  0  0  0  0  0  0  0  0  0  0
   10.1069   15.9748    2.1508 C   0  0  0  0  0  0  0  0  0  0  0  0
    9.1837   14.8296    2.0777 C   0  0  0  0  0  0  0  0  0  0  0  0
    8.0712   14.5271    2.8502 C   0  0  0  0  0  0  0  0  0  0  0  0
    7.6617   13.2436    2.4562 C   0  0  0  0  0  0  0  0  0  0  0  0
    8.4260   12.7526    1.4867 N   0  0  0  0  0  0  0  0  0  0  0  0
    9.3848   13.6815    1.3249 N   0  0  0  0  0  0  0  0  0  0  0  0
   10.5107   13.3124    0.4945 C   0  0  0  0  0  0  0  0  0  0  0  0
   10.3319   16.6247    3.3704 C   0  0  0  0  0  0  0  0  0  0  0  0
   11.4686   17.4224    3.5531 C   0  0  0  0  0  0  0  0  0  0  0  0
   18.1772   18.0102    1.7784 C   0  0  0  0  0  0  0  0  0  0  0  0
   19.4599   17.6438    1.3570 C   0  0  0  0  0  0  0  0  0  0  0  0
   19.7711   16.3640    1.7723 C   0  0  0  0  0  0  0  0  0  0  0  0
   21.0144   15.8201    1.6666 C   0  0  0  0  0  0  0  0  0  0  0  0
   20.9206   14.6393    2.3375 N   0  0  0  0  0  0  0  0  0  0  0  0
   22.0566   13.8575    2.7609 C   0  0  0  0  0  0  0  0  0  0  0  0
   19.6564   14.2999    2.6957 N   0  0  0  0  0  0  0  0  0  0  0  0
   18.9354   15.4174    2.4545 C   0  0  0  0  0  0  0  0  0  0  0  0
  1  2  1  0
  2  3  2  0
  3  4  1  0
  4  5  1  6
  4  6  1  0
  6  7  1  0
  7  8  1  0
  8  9  2  0
  9 10  1  0
 10 11  2  0
 11 12  1  0
 12 13  2  0
 13 14  1  0
 14 15  2  0
 15 16  1  0
 16 17  1  0
 11 18  1  0
 18 19  2  0
  3 20  1  0
 20 21  2  0
 21 22  1  0
 22 23  2  0
 23 24  1  0
 24 25  1  0
 24 26  1  0
 26 27  2  0
 27  2  1  0
 19  8  1  0
 27 22  1  0
 16 12  1  0
M  END
>  <energy_score>  (3999) 
-17.90478

>  <inchikey>  (3999) 
UYJHDDYHNOTAEK-UHFFFAOYSA-N

>  <smiles>  (3999) 
Cc1c(C(O)NCc2ccc(-c3ccnn3C)cc2)ccc2cn(C)nc12

>  <ref_pdb>  (3999) 
A0514b

>  <alias>  (3999) 
UYJHDDYHNOTAEK-UHFFFAOYSA-N-P9-P9-P76-601504

>  <HIPPO Pose ID>  (3999) 
507570

>  <name>  (3999) 
UYJHDDYHNOTAEK-UHFFFAOYSA-N-P9-P9-P76-601504

>  <HIPPO Compound ID>  (3999) 
289749

>  <ref_mols>  (3999) 
A0486a,A0717a

>  <distance_score>  (3999) 
1.743608

>  <inspiration_score>  (3999) 
None

$$$$
UYJHDDYHNOTAEK-UHFFFAOYSA-N-P76-P9-P76-601504
     RDKit          3D

 27 30  0  0  0  0  0  0  0  0999 V2000
   19.0561   18.4373    3.6669 C   0  0  0  0  0  0  0  0  0  0  0  0
   18.4937   17.2341    2.9824 C   0  0  0  0  0  0  0  0  0  0  0  0
   17.0978   17.0217    2.7428 C   0  0  0  0  0  0  0  0  0  0  0  0
   15.9515   17.8371    3.3831 C   0  0  1  0  0  0  0  0  0  0  0  0
   16.3889   18.6463    4.4538 O   0  0  0  0  0  0  0  0  0  0  0  0
   15.2778   18.6714    2.4020 N   0  0  0  0  0  0  0  0  0  0  0  0
   13.9791   19.1668    2.8818 C   0  0  0  0  0  0  0  0  0  0  0  0
   12.8323   18.1850    2.7117 C   0  0  0  0  0  0  0  0  0  0  0  0
   12.5138   17.6661    1.4523 C   0  0  0  0  0  0  0  0  0  0  0  0
   11.4530   16.7591    1.2893 C   0  0  0  0  0  0  0  0  0  0  0  0
   10.6904   16.3126    2.3789 C   0  0  0  0  0  0  0  0  0  0  0  0
    9.7332   15.1911    2.2598 C   0  0  0  0  0  0  0  0  0  0  0  0
    8.6134   14.8829    3.0225 C   0  0  0  0  0  0  0  0  0  0  0  0
    8.1418   13.6479    2.5475 C   0  0  0  0  0  0  0  0  0  0  0  0
    8.8764   13.1906    1.5391 N   0  0  0  0  0  0  0  0  0  0  0  0
    9.8667   14.0947    1.4191 N   0  0  0  0  0  0  0  0  0  0  0  0
   10.9614   13.7471    0.5396 C   0  0  0  0  0  0  0  0  0  0  0  0
   10.9469   16.9185    3.6190 C   0  0  0  0  0  0  0  0  0  0  0  0
   12.0113   17.8252    3.7885 C   0  0  0  0  0  0  0  0  0  0  0  0
   16.6283   15.8969    1.9590 C   0  0  0  0  0  0  0  0  0  0  0  0
   17.4193   14.8365    1.4861 C   0  0  0  0  0  0  0  0  0  0  0  0
   18.7266   15.0065    1.8888 C   0  0  0  0  0  0  0  0  0  0  0  0
   19.7261   14.0886    1.7200 C   0  0  0  0  0  0  0  0  0  0  0  0
   20.8077   14.6433    2.3345 N   0  0  0  0  0  0  0  0  0  0  0  0
   22.0938   14.0228    2.5527 C   0  0  0  0  0  0  0  0  0  0  0  0
   20.5891   15.8894    2.7901 N   0  0  0  0  0  0  0  0  0  0  0  0
   19.2830   16.1252    2.5847 C   0  0  0  0  0  0  0  0  0  0  0  0
  1  2  1  0
  2  3  2  0
  3  4  1  0
  4  5  1  1
  4  6  1  0
  6  7  1  0
  7  8  1  0
  8  9  2  0
  9 10  1  0
 10 11  2  0
 11 12  1  0
 12 13  2  0
 13 14  1  0
 14 15  2  0
 15 16  1  0
 16 17  1  0
 11 18  1  0
 18 19  2  0
  3 20  1  0
 20 21  2  0
 21 22  1  0
 22 23  2  0
 23 24  1  0
 24 25  1  0
 24 26  1  0
 26 27  2  0
 27  2  1  0
 19  8  1  0
 27 22  1  0
 16 12  1  0
M  END
>  <energy_score>  (4000) 
-22.042765

>  <inchikey>  (4000) 
UYJHDDYHNOTAEK-UHFFFAOYSA-N

>  <smiles>  (4000) 
Cc1c(C(O)NCc2ccc(-c3ccnn3C)cc2)ccc2cn(C)nc12

>  <ref_pdb>  (4000) 
A0514b

>  <alias>  (4000) 
UYJHDDYHNOTAEK-UHFFFAOYSA-N-P76-P9-P76-601504

>  <HIPPO Pose ID>  (4000) 
507571

>  <name>  (4000) 
UYJHDDYHNOTAEK-UHFFFAOYSA-N-P76-P9-P76-601504

>  <HIPPO Compound ID>  (4000) 
289749

>  <ref_mols>  (4000) 
A0486a,A0717a

>  <distance_score>  (4000) 
1.926884

>  <inspiration_score>  (4000) 
None

$$$$
POQDMVWERIUBTA-UHFFFAOYSA-N-P9-P9-P76-601504
     RDKit          3D

 27 30  0  0  0  0  0  0  0  0999 V2000
   19.3333   18.6753    3.1061 C   0  0  0  0  0  0  0  0  0  0  0  0
   18.7892   17.4766    2.3946 C   0  0  0  0  0  0  0  0  0  0  0  0
   17.4921   17.4530    1.7774 C   0  0  0  0  0  0  0  0  0  0  0  0
   16.5688   18.6774    1.8777 C   0  0  1  0  0  0  0  0  0  0  0  0
   16.9264   19.5533    0.8336 O   0  0  0  0  0  0  0  0  0  0  0  0
   15.1330   18.4654    1.7408 N   0  0  0  0  0  0  0  0  0  0  0  0
   14.5325   17.7704    2.8766 C   0  0  0  0  0  0  0  0  0  0  0  0
   13.1776   17.1630    2.5479 C   0  0  0  0  0  0  0  0  0  0  0  0
   11.9866   17.6214    3.1354 C   0  0  0  0  0  0  0  0  0  0  0  0
   10.7621   16.9486    2.9303 C   0  0  0  0  0  0  0  0  0  0  0  0
   10.7013   15.8057    2.1240 C   0  0  0  0  0  0  0  0  0  0  0  0
    9.5374   14.9053    2.0779 C   0  0  0  0  0  0  0  0  0  0  0  0
    8.4425   14.8055    2.9803 C   0  0  0  0  0  0  0  0  0  0  0  0
    7.7859   13.6456    2.6394 C   0  0  0  0  0  0  0  0  0  0  0  0
    8.4631   13.1356    1.5779 N   0  0  0  0  0  0  0  0  0  0  0  0
    8.1926   11.8969    0.8902 C   0  0  0  0  0  0  0  0  0  0  0  0
    9.4958   13.8968    1.1901 N   0  0  0  0  0  0  0  0  0  0  0  0
   11.8843   15.4016    1.4783 C   0  0  0  0  0  0  0  0  0  0  0  0
   13.1005   16.0573    1.6943 C   0  0  0  0  0  0  0  0  0  0  0  0
   17.0476   16.3007    1.0292 C   0  0  0  0  0  0  0  0  0  0  0  0
   17.7336   15.0759    0.9138 C   0  0  0  0  0  0  0  0  0  0  0  0
   18.9471   15.1392    1.5643 C   0  0  0  0  0  0  0  0  0  0  0  0
   19.8778   14.1376    1.6003 C   0  0  0  0  0  0  0  0  0  0  0  0
   20.9215   14.6641    2.2991 N   0  0  0  0  0  0  0  0  0  0  0  0
   22.1806   14.0302    2.6107 C   0  0  0  0  0  0  0  0  0  0  0  0
   20.7189   15.9301    2.6936 N   0  0  0  0  0  0  0  0  0  0  0  0
   19.4954   16.2585    2.2592 C   0  0  0  0  0  0  0  0  0  0  0  0
  1  2  1  0
  2  3  2  0
  3  4  1  0
  4  5  1  6
  4  6  1  0
  6  7  1  0
  7  8  1  0
  8  9  2  0
  9 10  1  0
 10 11  2  0
 11 12  1  0
 12 13  1  0
 13 14  2  0
 14 15  1  0
 15 16  1  0
 15 17  1  0
 11 18  1  0
 18 19  2  0
  3 20  1  0
 20 21  2  0
 21 22  1  0
 22 23  2  0
 23 24  1  0
 24 25  1  0
 24 26  1  0
 26 27  2  0
 27  2  1  0
 19  8  1  0
 27 22  1  0
 17 12  2  0
M  END
>  <energy_score>  (4001) 
-36.238929

>  <inchikey>  (4001) 
POQDMVWERIUBTA-UHFFFAOYSA-N

>  <smiles>  (4001) 
Cc1c(C(O)NCc2ccc(-c3ccn(C)n3)cc2)ccc2cn(C)nc12

>  <ref_pdb>  (4001) 
A0514b

>  <alias>  (4001) 
POQDMVWERIUBTA-UHFFFAOYSA-N-P9-P9-P76-601504

>  <HIPPO Pose ID>  (4001) 
507572

>  <name>  (4001) 
POQDMVWERIUBTA-UHFFFAOYSA-N-P9-P9-P76-601504

>  <HIPPO Compound ID>  (4001) 
289750

>  <ref_mols>  (4001) 
A0486a,A0717a

>  <distance_score>  (4001) 
1.869411

>  <inspiration_score>  (4001) 
None

$$$$
OVHYTYKUHPUBKR-UHFFFAOYSA-N-P9-P9-P76-601504
     RDKit          3D

 27 30  0  0  0  0  0  0  0  0999 V2000
   17.1905   20.0099   -0.0219 C   0  0  0  0  0  0  0  0  0  0  0  0
   16.7770   18.6532   -0.0940 O   0  0  0  0  0  0  0  0  0  0  0  0
   16.3894   18.1345    1.1687 C   0  0  1  0  0  0  0  0  0  0  0  0
   15.0673   17.5369    1.0307 N   0  0  0  0  0  0  0  0  0  0  0  0
   13.9423   18.4575    1.0046 C   0  0  0  0  0  0  0  0  0  0  0  0
   12.6507   17.6816    1.2234 C   0  0  0  0  0  0  0  0  0  0  0  0
   12.1605   16.8321    0.2250 C   0  0  0  0  0  0  0  0  0  0  0  0
   11.0692   15.9898    0.4766 C   0  0  0  0  0  0  0  0  0  0  0  0
   10.4217   15.9737    1.7250 C   0  0  0  0  0  0  0  0  0  0  0  0
    9.4391   14.9191    2.0142 C   0  0  0  0  0  0  0  0  0  0  0  0
    8.4664   14.8361    3.0471 C   0  0  0  0  0  0  0  0  0  0  0  0
    7.9341   13.5704    2.9566 C   0  0  0  0  0  0  0  0  0  0  0  0
    8.5725   12.9744    1.9158 N   0  0  0  0  0  0  0  0  0  0  0  0
    8.4111   11.6141    1.4636 C   0  0  0  0  0  0  0  0  0  0  0  0
    9.4527   13.7782    1.3028 N   0  0  0  0  0  0  0  0  0  0  0  0
   10.8592   16.8823    2.6966 C   0  0  0  0  0  0  0  0  0  0  0  0
   11.9693   17.7155    2.4521 C   0  0  0  0  0  0  0  0  0  0  0  0
   17.3840   17.0538    1.6468 C   0  0  0  0  0  0  0  0  0  0  0  0
   16.8693   16.0918    2.5971 C   0  0  0  0  0  0  0  0  0  0  0  0
   17.5670   14.9881    3.1077 C   0  0  0  0  0  0  0  0  0  0  0  0
   18.8586   14.9810    2.6301 C   0  0  0  0  0  0  0  0  0  0  0  0
   19.8279   14.1108    3.0329 C   0  0  0  0  0  0  0  0  0  0  0  0
   20.9601   14.5422    2.4141 N   0  0  0  0  0  0  0  0  0  0  0  0
   22.3008   14.0536    2.6303 C   0  0  0  0  0  0  0  0  0  0  0  0
   20.7608   15.5827    1.5827 N   0  0  0  0  0  0  0  0  0  0  0  0
   19.4688   15.9163    1.7383 C   0  0  0  0  0  0  0  0  0  0  0  0
   18.7341   16.9928    1.2029 C   0  0  0  0  0  0  0  0  0  0  0  0
  1  2  1  0
  2  3  1  0
  3  4  1  6
  4  5  1  0
  5  6  1  0
  6  7  2  0
  7  8  1  0
  8  9  2  0
  9 10  1  0
 10 11  1  0
 11 12  2  0
 12 13  1  0
 13 14  1  0
 13 15  1  0
  9 16  1  0
 16 17  2  0
  3 18  1  0
 18 19  1  0
 19 20  2  0
 20 21  1  0
 21 22  2  0
 22 23  1  0
 23 24  1  0
 23 25  1  0
 25 26  2  0
 26 27  1  0
 17  6  1  0
 27 18  2  0
 15 10  2  0
 26 21  1  0
M  END
>  <energy_score>  (4002) 
-34.985212

>  <inchikey>  (4002) 
OVHYTYKUHPUBKR-UHFFFAOYSA-N

>  <smiles>  (4002) 
COC(NCc1ccc(-c2ccn(C)n2)cc1)c1ccc2cn(C)nc2c1

>  <ref_pdb>  (4002) 
A0514b

>  <alias>  (4002) 
OVHYTYKUHPUBKR-UHFFFAOYSA-N-P9-P9-P76-601504

>  <HIPPO Pose ID>  (4002) 
507574

>  <name>  (4002) 
OVHYTYKUHPUBKR-UHFFFAOYSA-N-P9-P9-P76-601504

>  <HIPPO Compound ID>  (4002) 
289751

>  <ref_mols>  (4002) 
A0486a,A0717a

>  <distance_score>  (4002) 
1.879634

>  <inspiration_score>  (4002) 
None

$$$$
OVHYTYKUHPUBKR-UHFFFAOYSA-N-P76-P9-P76-601504
     RDKit          3D

 27 30  0  0  0  0  0  0  0  0999 V2000
   17.2965   19.9782   -0.0150 C   0  0  0  0  0  0  0  0  0  0  0  0
   16.8219   18.6406   -0.0641 O   0  0  0  0  0  0  0  0  0  0  0  0
   16.4377   18.1527    1.2114 C   0  0  1  0  0  0  0  0  0  0  0  0
   15.1196   17.5421    1.0890 N   0  0  0  0  0  0  0  0  0  0  0  0
   13.9865   18.4516    1.0510 C   0  0  0  0  0  0  0  0  0  0  0  0
   12.7038   17.6647    1.2831 C   0  0  0  0  0  0  0  0  0  0  0  0
   12.2116   16.8118    0.2890 C   0  0  0  0  0  0  0  0  0  0  0  0
   11.1300   15.9600    0.5504 C   0  0  0  0  0  0  0  0  0  0  0  0
   10.4949   15.9358    1.8053 C   0  0  0  0  0  0  0  0  0  0  0  0
    9.5203   14.8751    2.1001 C   0  0  0  0  0  0  0  0  0  0  0  0
    8.5821   14.7668    3.1623 C   0  0  0  0  0  0  0  0  0  0  0  0
    8.0424   13.5056    3.0558 C   0  0  0  0  0  0  0  0  0  0  0  0
    8.6463   12.9352    1.9808 N   0  0  0  0  0  0  0  0  0  0  0  0
    8.4726   11.5852    1.5036 C   0  0  0  0  0  0  0  0  0  0  0  0
    9.5030   13.7550    1.3561 N   0  0  0  0  0  0  0  0  0  0  0  0
   10.9354   16.8459    2.7740 C   0  0  0  0  0  0  0  0  0  0  0  0
   12.0353   17.6900    2.5193 C   0  0  0  0  0  0  0  0  0  0  0  0
   17.4285   17.0848    1.7223 C   0  0  0  0  0  0  0  0  0  0  0  0
   16.9217   16.2028    2.7513 C   0  0  0  0  0  0  0  0  0  0  0  0
   17.5936   15.0947    3.2841 C   0  0  0  0  0  0  0  0  0  0  0  0
   18.8548   14.9982    2.7393 C   0  0  0  0  0  0  0  0  0  0  0  0
   19.7859   14.0727    3.1051 C   0  0  0  0  0  0  0  0  0  0  0  0
   20.9107   14.4261    2.4279 N   0  0  0  0  0  0  0  0  0  0  0  0
   22.2298   13.8665    2.6018 C   0  0  0  0  0  0  0  0  0  0  0  0
   20.7295   15.4522    1.5736 N   0  0  0  0  0  0  0  0  0  0  0  0
   19.4643   15.8595    1.7751 C   0  0  0  0  0  0  0  0  0  0  0  0
   18.7530   16.9438    1.2224 C   0  0  0  0  0  0  0  0  0  0  0  0
  1  2  1  0
  2  3  1  0
  3  4  1  6
  4  5  1  0
  5  6  1  0
  6  7  2  0
  7  8  1  0
  8  9  2  0
  9 10  1  0
 10 11  1  0
 11 12  2  0
 12 13  1  0
 13 14  1  0
 13 15  1  0
  9 16  1  0
 16 17  2  0
  3 18  1  0
 18 19  1  0
 19 20  2  0
 20 21  1  0
 21 22  2  0
 22 23  1  0
 23 24  1  0
 23 25  1  0
 25 26  2  0
 26 27  1  0
 17  6  1  0
 27 18  2  0
 15 10  2  0
 26 21  1  0
M  END
>  <energy_score>  (4003) 
-35.044658

>  <inchikey>  (4003) 
OVHYTYKUHPUBKR-UHFFFAOYSA-N

>  <smiles>  (4003) 
COC(NCc1ccc(-c2ccn(C)n2)cc1)c1ccc2cn(C)nc2c1

>  <ref_pdb>  (4003) 
A0514b

>  <alias>  (4003) 
OVHYTYKUHPUBKR-UHFFFAOYSA-N-P76-P9-P76-601504

>  <HIPPO Pose ID>  (4003) 
507575

>  <name>  (4003) 
OVHYTYKUHPUBKR-UHFFFAOYSA-N-P76-P9-P76-601504

>  <HIPPO Compound ID>  (4003) 
289751

>  <ref_mols>  (4003) 
A0486a,A0717a

>  <distance_score>  (4003) 
1.845261

>  <inspiration_score>  (4003) 
None

$$$$
XISGWTMOFKFSGZ-UHFFFAOYSA-N-P9-P9-P76-601504
     RDKit          3D

 27 30  0  0  0  0  0  0  0  0999 V2000
   14.9169   17.5027   -1.1699 C   0  0  0  0  0  0  0  0  0  0  0  0
   15.4818   16.7974   -0.0730 O   0  0  0  0  0  0  0  0  0  0  0  0
   16.2090   17.6398    0.8146 C   0  0  1  0  0  0  0  0  0  0  0  0
   15.3389   18.4937    1.6304 N   0  0  0  0  0  0  0  0  0  0  0  0
   14.4639   17.9387    2.6644 C   0  0  0  0  0  0  0  0  0  0  0  0
   13.1432   17.2708    2.2950 C   0  0  0  0  0  0  0  0  0  0  0  0
   11.9202   17.7828    2.7776 C   0  0  0  0  0  0  0  0  0  0  0  0
   10.7050   17.0731    2.6447 C   0  0  0  0  0  0  0  0  0  0  0  0
   10.6740   15.8296    2.0146 C   0  0  0  0  0  0  0  0  0  0  0  0
    9.4837   14.9738    1.9778 C   0  0  0  0  0  0  0  0  0  0  0  0
    8.6248   14.5783    2.9917 C   0  0  0  0  0  0  0  0  0  0  0  0
    7.8860   13.5066    2.4599 C   0  0  0  0  0  0  0  0  0  0  0  0
    8.1587   13.3008    1.1730 N   0  0  0  0  0  0  0  0  0  0  0  0
    9.0750   14.2418    0.8828 N   0  0  0  0  0  0  0  0  0  0  0  0
    9.5049   14.3693   -0.4914 C   0  0  0  0  0  0  0  0  0  0  0  0
   11.8835   15.3341    1.5054 C   0  0  0  0  0  0  0  0  0  0  0  0
   13.0867   16.0403    1.6384 C   0  0  0  0  0  0  0  0  0  0  0  0
   17.2492   16.7682    1.5402 C   0  0  0  0  0  0  0  0  0  0  0  0
   16.7766   15.6696    2.3411 C   0  0  0  0  0  0  0  0  0  0  0  0
   17.5654   14.6853    2.9549 C   0  0  0  0  0  0  0  0  0  0  0  0
   18.8875   14.8806    2.6354 C   0  0  0  0  0  0  0  0  0  0  0  0
   19.9113   14.0964    3.0720 C   0  0  0  0  0  0  0  0  0  0  0  0
   21.0285   14.6415    2.5214 N   0  0  0  0  0  0  0  0  0  0  0  0
   22.3846   14.1801    2.6984 C   0  0  0  0  0  0  0  0  0  0  0  0
   20.7866   15.7517    1.7961 N   0  0  0  0  0  0  0  0  0  0  0  0
   19.4566   15.9298    1.8527 C   0  0  0  0  0  0  0  0  0  0  0  0
   18.6437   16.9353    1.2918 C   0  0  0  0  0  0  0  0  0  0  0  0
  1  2  1  0
  2  3  1  0
  3  4  1  1
  4  5  1  0
  5  6  1  0
  6  7  2  0
  7  8  1  0
  8  9  2  0
  9 10  1  0
 10 11  2  0
 11 12  1  0
 12 13  2  0
 13 14  1  0
 14 15  1  0
  9 16  1  0
 16 17  2  0
  3 18  1  0
 18 19  1  0
 19 20  2  0
 20 21  1  0
 21 22  2  0
 22 23  1  0
 23 24  1  0
 23 25  1  0
 25 26  2  0
 26 27  1  0
 17  6  1  0
 27 18  2  0
 14 10  1  0
 26 21  1  0
M  END
>  <energy_score>  (4004) 
-24.189939

>  <inchikey>  (4004) 
XISGWTMOFKFSGZ-UHFFFAOYSA-N

>  <smiles>  (4004) 
COC(NCc1ccc(-c2ccnn2C)cc1)c1ccc2cn(C)nc2c1

>  <ref_pdb>  (4004) 
A0514b

>  <alias>  (4004) 
XISGWTMOFKFSGZ-UHFFFAOYSA-N-P9-P9-P76-601504

>  <HIPPO Pose ID>  (4004) 
507576

>  <name>  (4004) 
XISGWTMOFKFSGZ-UHFFFAOYSA-N-P9-P9-P76-601504

>  <HIPPO Compound ID>  (4004) 
289752

>  <ref_mols>  (4004) 
A0486a,A0717a

>  <distance_score>  (4004) 
1.890133

>  <inspiration_score>  (4004) 
None

$$$$
XISGWTMOFKFSGZ-UHFFFAOYSA-N-P76-P9-P76-601504
     RDKit          3D

 27 30  0  0  0  0  0  0  0  0999 V2000
   16.6054   20.7900    1.9032 C   0  0  0  0  0  0  0  0  0  0  0  0
   16.4393   19.4528    1.4544 O   0  0  0  0  0  0  0  0  0  0  0  0
   16.4942   18.5097    2.5183 C   0  0  1  0  0  0  0  0  0  0  0  0
   15.1740   17.9780    2.9053 N   0  0  0  0  0  0  0  0  0  0  0  0
   14.1026   18.2886    1.9578 C   0  0  0  0  0  0  0  0  0  0  0  0
   12.8981   17.3749    2.1107 C   0  0  0  0  0  0  0  0  0  0  0  0
   11.7030   17.8039    2.7105 C   0  0  0  0  0  0  0  0  0  0  0  0
   10.5659   16.9724    2.7450 C   0  0  0  0  0  0  0  0  0  0  0  0
   10.6024   15.6978    2.1765 C   0  0  0  0  0  0  0  0  0  0  0  0
    9.4535   14.7913    2.1788 C   0  0  0  0  0  0  0  0  0  0  0  0
    8.6495   14.3445    3.2139 C   0  0  0  0  0  0  0  0  0  0  0  0
    7.9050   13.2803    2.6751 C   0  0  0  0  0  0  0  0  0  0  0  0
    8.1259   13.1223    1.3711 N   0  0  0  0  0  0  0  0  0  0  0  0
    9.0164   14.0859    1.0775 N   0  0  0  0  0  0  0  0  0  0  0  0
    9.3959   14.2618   -0.3060 C   0  0  0  0  0  0  0  0  0  0  0  0
   11.8183   15.2535    1.6284 C   0  0  0  0  0  0  0  0  0  0  0  0
   12.9466   16.0767    1.5915 C   0  0  0  0  0  0  0  0  0  0  0  0
   17.4725   17.3990    2.1094 C   0  0  0  0  0  0  0  0  0  0  0  0
   17.0879   16.4632    1.0848 C   0  0  0  0  0  0  0  0  0  0  0  0
   17.8101   15.3030    0.7349 C   0  0  0  0  0  0  0  0  0  0  0  0
   18.9708   15.2031    1.4810 C   0  0  0  0  0  0  0  0  0  0  0  0
   19.8973   14.1993    1.4030 C   0  0  0  0  0  0  0  0  0  0  0  0
   20.8653   14.5509    2.2976 N   0  0  0  0  0  0  0  0  0  0  0  0
   22.0870   13.8424    2.5989 C   0  0  0  0  0  0  0  0  0  0  0  0
   20.6204   15.7129    2.9250 N   0  0  0  0  0  0  0  0  0  0  0  0
   19.4426   16.1329    2.4545 C   0  0  0  0  0  0  0  0  0  0  0  0
   18.7116   17.2811    2.7901 C   0  0  0  0  0  0  0  0  0  0  0  0
  1  2  1  0
  2  3  1  0
  3  4  1  6
  4  5  1  0
  5  6  1  0
  6  7  2  0
  7  8  1  0
  8  9  2  0
  9 10  1  0
 10 11  2  0
 11 12  1  0
 12 13  2  0
 13 14  1  0
 14 15  1  0
  9 16  1  0
 16 17  2  0
  3 18  1  0
 18 19  1  0
 19 20  2  0
 20 21  1  0
 21 22  2  0
 22 23  1  0
 23 24  1  0
 23 25  1  0
 25 26  2  0
 26 27  1  0
 17  6  1  0
 27 18  2  0
 14 10  1  0
 26 21  1  0
M  END
>  <energy_score>  (4005) 
-35.57698

>  <inchikey>  (4005) 
XISGWTMOFKFSGZ-UHFFFAOYSA-N

>  <smiles>  (4005) 
COC(NCc1ccc(-c2ccnn2C)cc1)c1ccc2cn(C)nc2c1

>  <ref_pdb>  (4005) 
A0514b

>  <alias>  (4005) 
XISGWTMOFKFSGZ-UHFFFAOYSA-N-P76-P9-P76-601504

>  <HIPPO Pose ID>  (4005) 
507577

>  <name>  (4005) 
XISGWTMOFKFSGZ-UHFFFAOYSA-N-P76-P9-P76-601504

>  <HIPPO Compound ID>  (4005) 
289752

>  <ref_mols>  (4005) 
A0486a,A0717a

>  <distance_score>  (4005) 
1.745466

>  <inspiration_score>  (4005) 
None

$$$$
VDSMSDWBTFDIHZ-UHFFFAOYSA-N-P9-P9-P76-601504
     RDKit          3D

 27 30  0  0  0  0  0  0  0  0999 V2000
   22.2254   16.4824    1.2563 C   0  0  0  0  0  0  0  0  0  0  0  0
   20.9806   15.8692    1.7834 C   0  0  0  0  0  0  0  0  0  0  0  0
   19.6881   16.3138    1.8584 C   0  0  0  0  0  0  0  0  0  0  0  0
   19.2586   17.5736    1.4655 C   0  0  0  0  0  0  0  0  0  0  0  0
   17.9045   17.7821    1.7686 C   0  0  0  0  0  0  0  0  0  0  0  0
   17.0546   16.7995    2.3816 C   0  0  0  0  0  0  0  0  0  0  0  0
   15.6063   17.1640    2.7587 C   0  0  1  0  0  0  0  0  0  0  0  0
   15.6576   17.6625    4.0808 O   0  0  0  0  0  0  0  0  0  0  0  0
   15.0448   18.1749    1.8781 N   0  0  0  0  0  0  0  0  0  0  0  0
   13.7683   18.7563    2.3055 C   0  0  0  0  0  0  0  0  0  0  0  0
   12.5638   17.8490    2.2094 C   0  0  0  0  0  0  0  0  0  0  0  0
   12.1641   17.3001    0.9871 C   0  0  0  0  0  0  0  0  0  0  0  0
   11.0700   16.4272    0.9203 C   0  0  0  0  0  0  0  0  0  0  0  0
   10.3563   16.0607    2.0700 C   0  0  0  0  0  0  0  0  0  0  0  0
    9.4072   14.9335    2.0634 C   0  0  0  0  0  0  0  0  0  0  0  0
    8.3133   14.6746    2.8776 C   0  0  0  0  0  0  0  0  0  0  0  0
    7.8508   13.3994    2.5136 C   0  0  0  0  0  0  0  0  0  0  0  0
    8.5655   12.8750    1.5236 N   0  0  0  0  0  0  0  0  0  0  0  0
    9.5450   13.7723    1.3175 N   0  0  0  0  0  0  0  0  0  0  0  0
   10.6323   13.3621    0.4557 C   0  0  0  0  0  0  0  0  0  0  0  0
   10.6676   16.7310    3.2602 C   0  0  0  0  0  0  0  0  0  0  0  0
   11.7727   17.5917    3.3365 C   0  0  0  0  0  0  0  0  0  0  0  0
   17.5456   15.5045    2.7389 C   0  0  0  0  0  0  0  0  0  0  0  0
   18.9057   15.2785    2.4719 C   0  0  0  0  0  0  0  0  0  0  0  0
   19.6960   14.2211    2.7319 N   0  0  0  0  0  0  0  0  0  0  0  0
   20.9446   14.6493    2.4121 N   0  0  0  0  0  0  0  0  0  0  0  0
   22.0970   13.8802    2.8222 C   0  0  0  0  0  0  0  0  0  0  0  0
  1  2  1  0
  2  3  2  0
  3  4  1  0
  4  5  2  0
  5  6  1  0
  6  7  1  0
  7  8  1  1
  7  9  1  0
  9 10  1  0
 10 11  1  0
 11 12  2  0
 12 13  1  0
 13 14  2  0
 14 15  1  0
 15 16  2  0
 16 17  1  0
 17 18  2  0
 18 19  1  0
 19 20  1  0
 14 21  1  0
 21 22  2  0
  6 23  2  0
 23 24  1  0
 24 25  2  0
 25 26  1  0
 26 27  1  0
 26  2  1  0
 24  3  1  0
 22 11  1  0
 19 15  1  0
M  END
>  <energy_score>  (4006) 
-44.087123

>  <inchikey>  (4006) 
VDSMSDWBTFDIHZ-UHFFFAOYSA-N

>  <smiles>  (4006) 
Cc1c2ccc(C(O)NCc3ccc(-c4ccnn4C)cc3)cc2nn1C

>  <ref_pdb>  (4006) 
A0514b

>  <alias>  (4006) 
VDSMSDWBTFDIHZ-UHFFFAOYSA-N-P9-P9-P76-601504

>  <HIPPO Pose ID>  (4006) 
507578

>  <name>  (4006) 
VDSMSDWBTFDIHZ-UHFFFAOYSA-N-P9-P9-P76-601504

>  <HIPPO Compound ID>  (4006) 
289753

>  <ref_mols>  (4006) 
A0486a,A0717a

>  <distance_score>  (4006) 
1.759163

>  <inspiration_score>  (4006) 
None

$$$$
VDSMSDWBTFDIHZ-UHFFFAOYSA-N-P76-P9-P76-601504
     RDKit          3D

 27 30  0  0  0  0  0  0  0  0999 V2000
   22.1550   15.6332    0.5820 C   0  0  0  0  0  0  0  0  0  0  0  0
   20.9739   15.3900    1.4463 C   0  0  0  0  0  0  0  0  0  0  0  0
   19.7831   16.0491    1.6001 C   0  0  0  0  0  0  0  0  0  0  0  0
   19.4338   17.2286    0.9583 C   0  0  0  0  0  0  0  0  0  0  0  0
   18.2385   17.7644    1.4661 C   0  0  0  0  0  0  0  0  0  0  0  0
   17.4624   17.1575    2.5089 C   0  0  0  0  0  0  0  0  0  0  0  0
   16.2148   17.8599    3.0535 C   0  0  1  0  0  0  0  0  0  0  0  0
   16.2274   19.2254    2.7019 O   0  0  0  0  0  0  0  0  0  0  0  0
   14.9959   17.2667    2.5413 N   0  0  0  0  0  0  0  0  0  0  0  0
   13.7916   17.8468    3.1578 C   0  0  0  0  0  0  0  0  0  0  0  0
   12.5176   17.0898    2.8269 C   0  0  0  0  0  0  0  0  0  0  0  0
   12.4564   16.1458    1.7974 C   0  0  0  0  0  0  0  0  0  0  0  0
   11.2975   15.3980    1.5880 C   0  0  0  0  0  0  0  0  0  0  0  0
   10.1477   15.5985    2.3681 C   0  0  0  0  0  0  0  0  0  0  0  0
    9.0424   14.6499    2.2545 C   0  0  0  0  0  0  0  0  0  0  0  0
    8.3983   13.9187    3.2394 C   0  0  0  0  0  0  0  0  0  0  0  0
    7.6701   12.9325    2.5548 C   0  0  0  0  0  0  0  0  0  0  0  0
    7.7563   13.0727    1.2327 N   0  0  0  0  0  0  0  0  0  0  0  0
    8.5318   14.1604    1.0736 N   0  0  0  0  0  0  0  0  0  0  0  0
    8.7187   14.6706   -0.2654 C   0  0  0  0  0  0  0  0  0  0  0  0
   10.1751   16.5952    3.3458 C   0  0  0  0  0  0  0  0  0  0  0  0
   11.3495   17.3318    3.5734 C   0  0  0  0  0  0  0  0  0  0  0  0
   17.8287   15.8992    3.0764 C   0  0  0  0  0  0  0  0  0  0  0  0
   19.0390   15.3623    2.6126 C   0  0  0  0  0  0  0  0  0  0  0  0
   19.7210   14.2722    3.0025 N   0  0  0  0  0  0  0  0  0  0  0  0
   20.9304   14.4091    2.4066 N   0  0  0  0  0  0  0  0  0  0  0  0
   22.0666   13.6579    2.8906 C   0  0  0  0  0  0  0  0  0  0  0  0
  1  2  1  0
  2  3  2  0
  3  4  1  0
  4  5  2  0
  5  6  1  0
  6  7  1  0
  7  8  1  6
  7  9  1  0
  9 10  1  0
 10 11  1  0
 11 12  2  0
 12 13  1  0
 13 14  2  0
 14 15  1  0
 15 16  2  0
 16 17  1  0
 17 18  2  0
 18 19  1  0
 19 20  1  0
 14 21  1  0
 21 22  2  0
  6 23  2  0
 23 24  1  0
 24 25  2  0
 25 26  1  0
 26 27  1  0
 26  2  1  0
 24  3  1  0
 22 11  1  0
 19 15  1  0
M  END
>  <energy_score>  (4007) 
-45.221853

>  <inchikey>  (4007) 
VDSMSDWBTFDIHZ-UHFFFAOYSA-N

>  <smiles>  (4007) 
Cc1c2ccc(C(O)NCc3ccc(-c4ccnn4C)cc3)cc2nn1C

>  <ref_pdb>  (4007) 
A0514b

>  <alias>  (4007) 
VDSMSDWBTFDIHZ-UHFFFAOYSA-N-P76-P9-P76-601504

>  <HIPPO Pose ID>  (4007) 
507579

>  <name>  (4007) 
VDSMSDWBTFDIHZ-UHFFFAOYSA-N-P76-P9-P76-601504

>  <HIPPO Compound ID>  (4007) 
289753

>  <ref_mols>  (4007) 
A0486a,A0717a

>  <distance_score>  (4007) 
1.644986

>  <inspiration_score>  (4007) 
None

$$$$
RPWLBUIULDXFFQ-UHFFFAOYSA-N-P9-P9-P76-601504
     RDKit          3D

 27 30  0  0  0  0  0  0  0  0999 V2000
   22.2977   16.7418    1.7338 C   0  0  0  0  0  0  0  0  0  0  0  0
   21.0824   15.9496    2.0494 C   0  0  0  0  0  0  0  0  0  0  0  0
   19.7480   16.2581    2.0425 C   0  0  0  0  0  0  0  0  0  0  0  0
   19.2130   17.5031    1.7347 C   0  0  0  0  0  0  0  0  0  0  0  0
   17.8110   17.5022    1.8077 C   0  0  0  0  0  0  0  0  0  0  0  0
   17.0243   16.3573    2.1725 C   0  0  0  0  0  0  0  0  0  0  0  0
   15.4927   16.4604    2.1011 C   0  0  1  0  0  0  0  0  0  0  0  0
   14.8945   15.4036    2.8293 O   0  0  0  0  0  0  0  0  0  0  0  0
   14.9881   17.6914    2.6752 N   0  0  0  0  0  0  0  0  0  0  0  0
   13.8764   18.3073    1.9517 C   0  0  0  0  0  0  0  0  0  0  0  0
   12.5872   17.5158    1.9640 C   0  0  0  0  0  0  0  0  0  0  0  0
   12.2698   16.6815    0.8875 C   0  0  0  0  0  0  0  0  0  0  0  0
   11.1429   15.8584    0.9390 C   0  0  0  0  0  0  0  0  0  0  0  0
   10.2885   15.8537    2.0552 C   0  0  0  0  0  0  0  0  0  0  0  0
    9.2869   14.7869    2.1793 C   0  0  0  0  0  0  0  0  0  0  0  0
    8.2177   14.6413    3.1026 C   0  0  0  0  0  0  0  0  0  0  0  0
    7.7241   13.3731    2.9008 C   0  0  0  0  0  0  0  0  0  0  0  0
    8.4736   12.8372    1.9012 N   0  0  0  0  0  0  0  0  0  0  0  0
    8.3783   11.5008    1.3657 C   0  0  0  0  0  0  0  0  0  0  0  0
    9.4019   13.6794    1.4263 N   0  0  0  0  0  0  0  0  0  0  0  0
   10.5515   16.7621    3.0886 C   0  0  0  0  0  0  0  0  0  0  0  0
   11.7011   17.5705    3.0512 C   0  0  0  0  0  0  0  0  0  0  0  0
   17.6318   15.1011    2.4807 C   0  0  0  0  0  0  0  0  0  0  0  0
   19.0295   15.0708    2.4093 C   0  0  0  0  0  0  0  0  0  0  0  0
   19.8990   14.0715    2.6360 N   0  0  0  0  0  0  0  0  0  0  0  0
   21.1188   14.6447    2.4811 N   0  0  0  0  0  0  0  0  0  0  0  0
   22.3016   13.8853    2.8131 C   0  0  0  0  0  0  0  0  0  0  0  0
  1  2  1  0
  2  3  2  0
  3  4  1  0
  4  5  2  0
  5  6  1  0
  6  7  1  0
  7  8  1  1
  7  9  1  0
  9 10  1  0
 10 11  1  0
 11 12  2  0
 12 13  1  0
 13 14  2  0
 14 15  1  0
 15 16  1  0
 16 17  2  0
 17 18  1  0
 18 19  1  0
 18 20  1  0
 14 21  1  0
 21 22  2  0
  6 23  2  0
 23 24  1  0
 24 25  2  0
 25 26  1  0
 26 27  1  0
 26  2  1  0
 24  3  1  0
 22 11  1  0
 20 15  2  0
M  END
>  <energy_score>  (4008) 
-31.33146

>  <inchikey>  (4008) 
RPWLBUIULDXFFQ-UHFFFAOYSA-N

>  <smiles>  (4008) 
Cc1c2ccc(C(O)NCc3ccc(-c4ccn(C)n4)cc3)cc2nn1C

>  <ref_pdb>  (4008) 
A0514b

>  <alias>  (4008) 
RPWLBUIULDXFFQ-UHFFFAOYSA-N-P9-P9-P76-601504

>  <HIPPO Pose ID>  (4008) 
507580

>  <name>  (4008) 
RPWLBUIULDXFFQ-UHFFFAOYSA-N-P9-P9-P76-601504

>  <HIPPO Compound ID>  (4008) 
289754

>  <ref_mols>  (4008) 
A0486a,A0717a

>  <distance_score>  (4008) 
1.733514

>  <inspiration_score>  (4008) 
None

$$$$
RPWLBUIULDXFFQ-UHFFFAOYSA-N-P76-P9-P76-601504
     RDKit          3D

 27 30  0  0  0  0  0  0  0  0999 V2000
   22.0710   15.5860    0.5259 C   0  0  0  0  0  0  0  0  0  0  0  0
   20.9011   15.3744    1.4131 C   0  0  0  0  0  0  0  0  0  0  0  0
   19.7184   16.0480    1.5690 C   0  0  0  0  0  0  0  0  0  0  0  0
   19.3692   17.2144    0.9034 C   0  0  0  0  0  0  0  0  0  0  0  0
   18.1912   17.7784    1.4221 C   0  0  0  0  0  0  0  0  0  0  0  0
   17.4314   17.2106    2.4984 C   0  0  0  0  0  0  0  0  0  0  0  0
   16.2109   17.9509    3.0547 C   0  0  1  0  0  0  0  0  0  0  0  0
   16.3067   19.3285    2.7673 O   0  0  0  0  0  0  0  0  0  0  0  0
   14.9683   17.4511    2.5004 N   0  0  0  0  0  0  0  0  0  0  0  0
   13.7886   18.0830    3.1177 C   0  0  0  0  0  0  0  0  0  0  0  0
   12.4978   17.3429    2.8184 C   0  0  0  0  0  0  0  0  0  0  0  0
   12.3341   16.5985    1.6466 C   0  0  0  0  0  0  0  0  0  0  0  0
   11.1932   15.8160    1.4584 C   0  0  0  0  0  0  0  0  0  0  0  0
   10.1694   15.7705    2.4199 C   0  0  0  0  0  0  0  0  0  0  0  0
    9.1687   14.6980    2.3393 C   0  0  0  0  0  0  0  0  0  0  0  0
    8.2032   14.2953    3.3023 C   0  0  0  0  0  0  0  0  0  0  0  0
    7.6911   13.1057    2.8397 C   0  0  0  0  0  0  0  0  0  0  0  0
    8.3238   12.8654    1.6612 N   0  0  0  0  0  0  0  0  0  0  0  0
    8.1620   11.7134    0.8086 C   0  0  0  0  0  0  0  0  0  0  0  0
    9.1840   13.8311    1.3120 N   0  0  0  0  0  0  0  0  0  0  0  0
   10.2637   16.6307    3.5203 C   0  0  0  0  0  0  0  0  0  0  0  0
   11.4217   17.4017    3.7209 C   0  0  0  0  0  0  0  0  0  0  0  0
   17.7913   15.9605    3.0872 C   0  0  0  0  0  0  0  0  0  0  0  0
   18.9860   15.3962    2.6129 C   0  0  0  0  0  0  0  0  0  0  0  0
   19.6629   14.3071    3.0154 N   0  0  0  0  0  0  0  0  0  0  0  0
   20.8654   14.4208    2.4007 N   0  0  0  0  0  0  0  0  0  0  0  0
   22.0049   13.6788    2.8915 C   0  0  0  0  0  0  0  0  0  0  0  0
  1  2  1  0
  2  3  2  0
  3  4  1  0
  4  5  2  0
  5  6  1  0
  6  7  1  0
  7  8  1  6
  7  9  1  0
  9 10  1  0
 10 11  1  0
 11 12  2  0
 12 13  1  0
 13 14  2  0
 14 15  1  0
 15 16  1  0
 16 17  2  0
 17 18  1  0
 18 19  1  0
 18 20  1  0
 14 21  1  0
 21 22  2  0
  6 23  2  0
 23 24  1  0
 24 25  2  0
 25 26  1  0
 26 27  1  0
 26  2  1  0
 24  3  1  0
 22 11  1  0
 20 15  2  0
M  END
>  <energy_score>  (4009) 
-29.777478

>  <inchikey>  (4009) 
RPWLBUIULDXFFQ-UHFFFAOYSA-N

>  <smiles>  (4009) 
Cc1c2ccc(C(O)NCc3ccc(-c4ccn(C)n4)cc3)cc2nn1C

>  <ref_pdb>  (4009) 
A0514b

>  <alias>  (4009) 
RPWLBUIULDXFFQ-UHFFFAOYSA-N-P76-P9-P76-601504

>  <HIPPO Pose ID>  (4009) 
507581

>  <name>  (4009) 
RPWLBUIULDXFFQ-UHFFFAOYSA-N-P76-P9-P76-601504

>  <HIPPO Compound ID>  (4009) 
289754

>  <ref_mols>  (4009) 
A0486a,A0717a

>  <distance_score>  (4009) 
1.614343

>  <inspiration_score>  (4009) 
None

$$$$
HPSYOIDWZCGVIM-UHFFFAOYSA-N-P9-P9-P76-601504
     RDKit          3D

 27 30  0  0  0  0  0  0  0  0999 V2000
   10.7139   14.5506   -0.3345 C   0  0  0  0  0  0  0  0  0  0  0  0
    9.9726   14.5890    0.9059 N   0  0  0  0  0  0  0  0  0  0  0  0
    8.9261   13.7546    1.0437 N   0  0  0  0  0  0  0  0  0  0  0  0
    8.3857   14.1070    2.2081 C   0  0  0  0  0  0  0  0  0  0  0  0
    9.0986   15.1538    2.8231 C   0  0  0  0  0  0  0  0  0  0  0  0
   10.2057   15.3790    2.0146 C   0  0  0  0  0  0  0  0  0  0  0  0
   11.4541   16.1222    2.2779 C   0  0  0  0  0  0  0  0  0  0  0  0
   12.6903   15.4642    2.1316 C   0  0  0  0  0  0  0  0  0  0  0  0
   13.9035   16.0641    2.5113 C   0  0  0  0  0  0  0  0  0  0  0  0
   13.9414   17.3605    3.0381 C   0  0  0  0  0  0  0  0  0  0  0  0
   15.2667   17.9498    3.5265 C   0  0  0  0  0  0  0  0  0  0  0  0
   15.9095   18.8788    2.5864 N   0  0  0  0  0  0  0  0  0  0  0  0
   17.3728   18.7442    2.4720 C   0  0  1  0  0  0  0  0  0  0  0  0
   17.9293   19.0158    3.7425 O   0  0  0  0  0  0  0  0  0  0  0  0
   17.8794   17.4009    1.9476 C   0  0  0  0  0  0  0  0  0  0  0  0
   17.0790   16.7149    1.0281 C   0  0  0  0  0  0  0  0  0  0  0  0
   17.2430   15.3554    0.8063 C   0  0  0  0  0  0  0  0  0  0  0  0
   18.2769   14.6870    1.4654 C   0  0  0  0  0  0  0  0  0  0  0  0
   18.6407   13.3456    1.6468 C   0  0  0  0  0  0  0  0  0  0  0  0
   17.6403   11.8834    1.0160 Br  0  0  0  0  0  0  0  0  0  0  0  0
   19.7632   13.2113    2.3404 N   0  0  0  0  0  0  0  0  0  0  0  0
   20.2107   14.4783    2.4534 N   0  0  0  0  0  0  0  0  0  0  0  0
   21.6228   14.6631    2.6965 C   0  0  0  0  0  0  0  0  0  0  0  0
   19.2448   15.4188    2.1557 C   0  0  0  0  0  0  0  0  0  0  0  0
   19.0860   16.8000    2.3910 C   0  0  0  0  0  0  0  0  0  0  0  0
   12.7158   18.0389    3.1512 C   0  0  0  0  0  0  0  0  0  0  0  0
   11.4885   17.4226    2.7917 C   0  0  0  0  0  0  0  0  0  0  0  0
  1  2  1  0
  2  3  1  0
  3  4  2  0
  4  5  1  0
  5  6  2  0
  6  7  1  0
  7  8  2  0
  8  9  1  0
  9 10  2  0
 10 11  1  0
 11 12  1  0
 12 13  1  0
 13 14  1  1
 13 15  1  0
 15 16  2  0
 16 17  1  0
 17 18  2  0
 18 19  1  0
 19 20  1  0
 19 21  2  0
 21 22  1  0
 22 23  1  0
 22 24  1  0
 24 25  2  0
 10 26  1  0
 26 27  2  0
  6  2  1  0
 27  7  1  0
 25 15  1  0
 24 18  1  0
M  END
>  <energy_score>  (4010) 
-15.251997

>  <inchikey>  (4010) 
HPSYOIDWZCGVIM-UHFFFAOYSA-N

>  <smiles>  (4010) 
Cn1nccc1-c1ccc(CNC(O)c2ccc3c(Br)nn(C)c3c2)cc1

>  <ref_pdb>  (4010) 
A0514b

>  <alias>  (4010) 
HPSYOIDWZCGVIM-UHFFFAOYSA-N-P9-P9-P76-601504

>  <HIPPO Pose ID>  (4010) 
507582

>  <name>  (4010) 
HPSYOIDWZCGVIM-UHFFFAOYSA-N-P9-P9-P76-601504

>  <HIPPO Compound ID>  (4010) 
289755

>  <ref_mols>  (4010) 
A0486a,A0717a

>  <distance_score>  (4010) 
1.812666

>  <inspiration_score>  (4010) 
None

$$$$
HPSYOIDWZCGVIM-UHFFFAOYSA-N-P76-P9-P76-601504
     RDKit          3D

 27 30  0  0  0  0  0  0  0  0999 V2000
   10.5434   14.6604   -0.2956 C   0  0  0  0  0  0  0  0  0  0  0  0
    9.8803   14.5946    0.9871 N   0  0  0  0  0  0  0  0  0  0  0  0
    8.8528   13.7367    1.1258 N   0  0  0  0  0  0  0  0  0  0  0  0
    8.3923   13.9842    2.3504 C   0  0  0  0  0  0  0  0  0  0  0  0
    9.1328   14.9910    2.9979 C   0  0  0  0  0  0  0  0  0  0  0  0
   10.1745   15.3037    2.1347 C   0  0  0  0  0  0  0  0  0  0  0  0
   11.4205   16.0567    2.3668 C   0  0  0  0  0  0  0  0  0  0  0  0
   12.6561   15.4311    2.1172 C   0  0  0  0  0  0  0  0  0  0  0  0
   13.8775   16.0300    2.4706 C   0  0  0  0  0  0  0  0  0  0  0  0
   13.9238   17.2941    3.0702 C   0  0  0  0  0  0  0  0  0  0  0  0
   15.2628   17.8769    3.5281 C   0  0  0  0  0  0  0  0  0  0  0  0
   15.9002   18.7831    2.5632 N   0  0  0  0  0  0  0  0  0  0  0  0
   17.3671   18.6674    2.4683 C   0  0  1  0  0  0  0  0  0  0  0  0
   17.9060   18.9937    3.7329 O   0  0  0  0  0  0  0  0  0  0  0  0
   17.8996   17.3148    1.9935 C   0  0  0  0  0  0  0  0  0  0  0  0
   17.1213   16.5931    1.0820 C   0  0  0  0  0  0  0  0  0  0  0  0
   17.2980   15.2276    0.9092 C   0  0  0  0  0  0  0  0  0  0  0  0
   18.3343   14.5913    1.5961 C   0  0  0  0  0  0  0  0  0  0  0  0
   18.7078   13.2599    1.8356 C   0  0  0  0  0  0  0  0  0  0  0  0
   17.6875   11.7725    1.3025 Br  0  0  0  0  0  0  0  0  0  0  0  0
   19.8439   13.1629    2.5149 N   0  0  0  0  0  0  0  0  0  0  0  0
   20.2752   14.4394    2.5717 N   0  0  0  0  0  0  0  0  0  0  0  0
   21.6919   14.6578    2.7474 C   0  0  0  0  0  0  0  0  0  0  0  0
   19.2901   15.3570    2.2647 C   0  0  0  0  0  0  0  0  0  0  0  0
   19.1065   16.7403    2.4718 C   0  0  0  0  0  0  0  0  0  0  0  0
   12.6960   17.9432    3.2840 C   0  0  0  0  0  0  0  0  0  0  0  0
   11.4614   17.3261    2.9527 C   0  0  0  0  0  0  0  0  0  0  0  0
  1  2  1  0
  2  3  1  0
  3  4  2  0
  4  5  1  0
  5  6  2  0
  6  7  1  0
  7  8  2  0
  8  9  1  0
  9 10  2  0
 10 11  1  0
 11 12  1  0
 12 13  1  0
 13 14  1  1
 13 15  1  0
 15 16  2  0
 16 17  1  0
 17 18  2  0
 18 19  1  0
 19 20  1  0
 19 21  2  0
 21 22  1  0
 22 23  1  0
 22 24  1  0
 24 25  2  0
 10 26  1  0
 26 27  2  0
  6  2  1  0
 27  7  1  0
 25 15  1  0
 24 18  1  0
M  END
>  <energy_score>  (4011) 
-14.349774

>  <inchikey>  (4011) 
HPSYOIDWZCGVIM-UHFFFAOYSA-N

>  <smiles>  (4011) 
Cn1nccc1-c1ccc(CNC(O)c2ccc3c(Br)nn(C)c3c2)cc1

>  <ref_pdb>  (4011) 
A0514b

>  <alias>  (4011) 
HPSYOIDWZCGVIM-UHFFFAOYSA-N-P76-P9-P76-601504

>  <HIPPO Pose ID>  (4011) 
507583

>  <name>  (4011) 
HPSYOIDWZCGVIM-UHFFFAOYSA-N-P76-P9-P76-601504

>  <HIPPO Compound ID>  (4011) 
289755

>  <ref_mols>  (4011) 
A0486a,A0717a

>  <distance_score>  (4011) 
1.73668

>  <inspiration_score>  (4011) 
None

$$$$
SDXXQLOXNUSHOW-UHFFFAOYSA-N-P9-P9-P76-601504
     RDKit          3D

 27 30  0  0  0  0  0  0  0  0999 V2000
    8.6701   12.4334    0.8509 C   0  0  0  0  0  0  0  0  0  0  0  0
    8.9164   13.6559    1.5765 N   0  0  0  0  0  0  0  0  0  0  0  0
    8.1332   14.2071    2.5392 C   0  0  0  0  0  0  0  0  0  0  0  0
    8.7935   15.3415    2.9549 C   0  0  0  0  0  0  0  0  0  0  0  0
   10.0032   15.3868    2.2041 C   0  0  0  0  0  0  0  0  0  0  0  0
   11.1981   16.2469    2.3822 C   0  0  0  0  0  0  0  0  0  0  0  0
   12.3498   15.9829    1.6198 C   0  0  0  0  0  0  0  0  0  0  0  0
   13.5953   16.5626    1.9221 C   0  0  0  0  0  0  0  0  0  0  0  0
   13.7497   17.4516    2.9921 C   0  0  0  0  0  0  0  0  0  0  0  0
   15.1441   17.9197    3.4260 C   0  0  0  0  0  0  0  0  0  0  0  0
   15.8105   18.8291    2.4806 N   0  0  0  0  0  0  0  0  0  0  0  0
   17.2783   18.7237    2.4693 C   0  0  2  0  0  0  0  0  0  0  0  0
   17.7478   19.7770    1.6626 O   0  0  0  0  0  0  0  0  0  0  0  0
   17.8539   17.4205    1.9160 C   0  0  0  0  0  0  0  0  0  0  0  0
   17.1278   16.7386    0.9373 C   0  0  0  0  0  0  0  0  0  0  0  0
   17.3003   15.3772    0.7343 C   0  0  0  0  0  0  0  0  0  0  0  0
   18.3004   14.7139    1.4480 C   0  0  0  0  0  0  0  0  0  0  0  0
   18.6605   13.3746    1.6558 C   0  0  0  0  0  0  0  0  0  0  0  0
   17.6861   11.9036    1.0057 Br  0  0  0  0  0  0  0  0  0  0  0  0
   19.7616   13.2507    2.3866 N   0  0  0  0  0  0  0  0  0  0  0  0
   20.2039   14.5218    2.4866 N   0  0  0  0  0  0  0  0  0  0  0  0
   21.6207   14.7148    2.6945 C   0  0  0  0  0  0  0  0  0  0  0  0
   19.2340   15.4552    2.1752 C   0  0  0  0  0  0  0  0  0  0  0  0
   19.0454   16.8344    2.4148 C   0  0  0  0  0  0  0  0  0  0  0  0
   12.5878   17.7800    3.7123 C   0  0  0  0  0  0  0  0  0  0  0  0
   11.3315   17.1888    3.4131 C   0  0  0  0  0  0  0  0  0  0  0  0
   10.0409   14.3507    1.3454 N   0  0  0  0  0  0  0  0  0  0  0  0
  1  2  1  0
  2  3  1  0
  3  4  2  0
  4  5  1  0
  5  6  1  0
  6  7  2  0
  7  8  1  0
  8  9  2  0
  9 10  1  0
 10 11  1  0
 11 12  1  0
 12 13  1  6
 12 14  1  0
 14 15  2  0
 15 16  1  0
 16 17  2  0
 17 18  1  0
 18 19  1  0
 18 20  2  0
 20 21  1  0
 21 22  1  0
 21 23  1  0
 23 24  2  0
  9 25  1  0
 25 26  2  0
  5 27  2  0
 27  2  1  0
 26  6  1  0
 24 14  1  0
 23 17  1  0
M  END
>  <energy_score>  (4012) 
-15.772528

>  <inchikey>  (4012) 
SDXXQLOXNUSHOW-UHFFFAOYSA-N

>  <smiles>  (4012) 
Cn1ccc(-c2ccc(CNC(O)c3ccc4c(Br)nn(C)c4c3)cc2)n1

>  <ref_pdb>  (4012) 
A0514b

>  <alias>  (4012) 
SDXXQLOXNUSHOW-UHFFFAOYSA-N-P9-P9-P76-601504

>  <HIPPO Pose ID>  (4012) 
507584

>  <name>  (4012) 
SDXXQLOXNUSHOW-UHFFFAOYSA-N-P9-P9-P76-601504

>  <HIPPO Compound ID>  (4012) 
289756

>  <ref_mols>  (4012) 
A0486a,A0717a

>  <distance_score>  (4012) 
1.854375

>  <inspiration_score>  (4012) 
None

$$$$
SDXXQLOXNUSHOW-UHFFFAOYSA-N-P76-P9-P76-601504
     RDKit          3D

 27 30  0  0  0  0  0  0  0  0999 V2000
    8.6351   12.4378    0.8262 C   0  0  0  0  0  0  0  0  0  0  0  0
    8.9125   13.6076    1.6233 N   0  0  0  0  0  0  0  0  0  0  0  0
    8.1826   14.0762    2.6681 C   0  0  0  0  0  0  0  0  0  0  0  0
    8.8589   15.1829    3.1296 C   0  0  0  0  0  0  0  0  0  0  0  0
   10.0218   15.2972    2.3152 C   0  0  0  0  0  0  0  0  0  0  0  0
   11.2138   16.1596    2.4886 C   0  0  0  0  0  0  0  0  0  0  0  0
   12.3751   15.8714    1.7497 C   0  0  0  0  0  0  0  0  0  0  0  0
   13.6173   16.4567    2.0523 C   0  0  0  0  0  0  0  0  0  0  0  0
   13.7589   17.3768    3.0973 C   0  0  0  0  0  0  0  0  0  0  0  0
   15.1486   17.8585    3.5314 C   0  0  0  0  0  0  0  0  0  0  0  0
   15.8170   18.7509    2.5710 N   0  0  0  0  0  0  0  0  0  0  0  0
   17.2847   18.6472    2.5659 C   0  0  2  0  0  0  0  0  0  0  0  0
   17.7552   19.6913    1.7476 O   0  0  0  0  0  0  0  0  0  0  0  0
   17.8665   17.3388    2.0311 C   0  0  0  0  0  0  0  0  0  0  0  0
   17.1396   16.6332    1.0693 C   0  0  0  0  0  0  0  0  0  0  0  0
   17.3213   15.2690    0.8909 C   0  0  0  0  0  0  0  0  0  0  0  0
   18.3388   14.6288    1.6015 C   0  0  0  0  0  0  0  0  0  0  0  0
   18.7139   13.2969    1.8395 C   0  0  0  0  0  0  0  0  0  0  0  0
   17.7111   11.8075    1.2801 Br  0  0  0  0  0  0  0  0  0  0  0  0
   19.8392   13.2011    2.5384 N   0  0  0  0  0  0  0  0  0  0  0  0
   20.2656   14.4799    2.5977 N   0  0  0  0  0  0  0  0  0  0  0  0
   21.6851   14.7034    2.7441 C   0  0  0  0  0  0  0  0  0  0  0  0
   19.2737   15.3942    2.3004 C   0  0  0  0  0  0  0  0  0  0  0  0
   19.0675   16.7722    2.5311 C   0  0  0  0  0  0  0  0  0  0  0  0
   12.5883   17.7281    3.7921 C   0  0  0  0  0  0  0  0  0  0  0  0
   11.3347   17.1313    3.4929 C   0  0  0  0  0  0  0  0  0  0  0  0
   10.0114   14.3359    1.3729 N   0  0  0  0  0  0  0  0  0  0  0  0
  1  2  1  0
  2  3  1  0
  3  4  2  0
  4  5  1  0
  5  6  1  0
  6  7  2  0
  7  8  1  0
  8  9  2  0
  9 10  1  0
 10 11  1  0
 11 12  1  0
 12 13  1  6
 12 14  1  0
 14 15  2  0
 15 16  1  0
 16 17  2  0
 17 18  1  0
 18 19  1  0
 18 20  2  0
 20 21  1  0
 21 22  1  0
 21 23  1  0
 23 24  2  0
  9 25  1  0
 25 26  2  0
  5 27  2  0
 27  2  1  0
 26  6  1  0
 24 14  1  0
 23 17  1  0
M  END
>  <energy_score>  (4013) 
-15.49574

>  <inchikey>  (4013) 
SDXXQLOXNUSHOW-UHFFFAOYSA-N

>  <smiles>  (4013) 
Cn1ccc(-c2ccc(CNC(O)c3ccc4c(Br)nn(C)c4c3)cc2)n1

>  <ref_pdb>  (4013) 
A0514b

>  <alias>  (4013) 
SDXXQLOXNUSHOW-UHFFFAOYSA-N-P76-P9-P76-601504

>  <HIPPO Pose ID>  (4013) 
507585

>  <name>  (4013) 
SDXXQLOXNUSHOW-UHFFFAOYSA-N-P76-P9-P76-601504

>  <HIPPO Compound ID>  (4013) 
289756

>  <ref_mols>  (4013) 
A0486a,A0717a

>  <distance_score>  (4013) 
1.775674

>  <inspiration_score>  (4013) 
None

$$$$
RNWDAZQTRPMLCX-UHFFFAOYSA-N-P9-P9-P76-601504
     RDKit          3D

 28 31  0  0  0  0  0  0  0  0999 V2000
   10.5312   13.2237   -0.1909 C   0  0  0  0  0  0  0  0  0  0  0  0
    9.8933   13.8542    0.9438 N   0  0  0  0  0  0  0  0  0  0  0  0
    8.7793   13.2909    1.4397 N   0  0  0  0  0  0  0  0  0  0  0  0
    8.4132   14.1130    2.4194 C   0  0  0  0  0  0  0  0  0  0  0  0
    9.2864   15.2115    2.5433 C   0  0  0  0  0  0  0  0  0  0  0  0
   10.2962   14.9890    1.6223 C   0  0  0  0  0  0  0  0  0  0  0  0
   11.5590   15.6869    1.3433 C   0  0  0  0  0  0  0  0  0  0  0  0
   12.7756   14.9925    1.4539 C   0  0  0  0  0  0  0  0  0  0  0  0
   13.9850   15.5429    0.9912 C   0  0  0  0  0  0  0  0  0  0  0  0
   14.0312   16.8181    0.4092 C   0  0  0  0  0  0  0  0  0  0  0  0
   15.3229   17.3089   -0.2523 C   0  0  0  0  0  0  0  0  0  0  0  0
   15.9341   18.4982    0.3629 N   0  0  0  0  0  0  0  0  0  0  0  0
   17.3825   18.3955    0.6154 C   0  0  2  0  0  0  0  0  0  0  0  0
   18.0300   18.2781   -0.6312 O   0  0  0  0  0  0  0  0  0  0  0  0
   17.8210   17.2793    1.5644 C   0  0  0  0  0  0  0  0  0  0  0  0
   16.9147   16.8891    2.5581 C   0  0  0  0  0  0  0  0  0  0  0  0
   17.0560   15.6900    3.2336 C   0  0  0  0  0  0  0  0  0  0  0  0
   18.1901   14.9199    2.9876 C   0  0  0  0  0  0  0  0  0  0  0  0
   18.5962   13.6475    3.3907 C   0  0  0  0  0  0  0  0  0  0  0  0
   19.8232   13.3471    2.9902 N   0  0  0  0  0  0  0  0  0  0  0  0
   20.2520   14.4882    2.3768 N   0  0  0  0  0  0  0  0  0  0  0  0
   21.6888   14.6555    2.1532 C   0  0  0  0  0  0  0  0  0  0  0  0
   22.1615   13.7855    1.2221 F   0  0  0  0  0  0  0  0  0  0  0  0
   21.9934   15.9063    1.7096 F   0  0  0  0  0  0  0  0  0  0  0  0
   19.2291   15.4102    2.1992 C   0  0  0  0  0  0  0  0  0  0  0  0
   19.0674   16.6015    1.4581 C   0  0  0  0  0  0  0  0  0  0  0  0
   12.8300   17.5459    0.3675 C   0  0  0  0  0  0  0  0  0  0  0  0
   11.6102   16.9878    0.8290 C   0  0  0  0  0  0  0  0  0  0  0  0
  1  2  1  0
  2  3  1  0
  3  4  2  0
  4  5  1  0
  5  6  2  0
  6  7  1  0
  7  8  2  0
  8  9  1  0
  9 10  2  0
 10 11  1  0
 11 12  1  0
 12 13  1  0
 13 14  1  6
 13 15  1  0
 15 16  2  0
 16 17  1  0
 17 18  2  0
 18 19  1  0
 19 20  2  0
 20 21  1  0
 21 22  1  0
 22 23  1  0
 22 24  1  0
 21 25  1  0
 25 26  2  0
 10 27  1  0
 27 28  2  0
  6  2  1  0
 28  7  1  0
 26 15  1  0
 25 18  1  0
M  END
>  <energy_score>  (4014) 
-29.028698

>  <inchikey>  (4014) 
RNWDAZQTRPMLCX-UHFFFAOYSA-N

>  <smiles>  (4014) 
Cn1nccc1-c1ccc(CNC(O)c2ccc3cnn(C(F)F)c3c2)cc1

>  <ref_pdb>  (4014) 
A0514b

>  <alias>  (4014) 
RNWDAZQTRPMLCX-UHFFFAOYSA-N-P9-P9-P76-601504

>  <HIPPO Pose ID>  (4014) 
507586

>  <name>  (4014) 
RNWDAZQTRPMLCX-UHFFFAOYSA-N-P9-P9-P76-601504

>  <HIPPO Compound ID>  (4014) 
289757

>  <ref_mols>  (4014) 
A0486a,A0717a

>  <distance_score>  (4014) 
1.91535

>  <inspiration_score>  (4014) 
None

$$$$
RNWDAZQTRPMLCX-UHFFFAOYSA-N-P76-P9-P76-601504
     RDKit          3D

 28 31  0  0  0  0  0  0  0  0999 V2000
   10.4620   13.3551   -0.2199 C   0  0  0  0  0  0  0  0  0  0  0  0
    9.8815   13.9007    0.9870 N   0  0  0  0  0  0  0  0  0  0  0  0
    8.7797   13.3143    1.4845 N   0  0  0  0  0  0  0  0  0  0  0  0
    8.4777   14.0531    2.5491 C   0  0  0  0  0  0  0  0  0  0  0  0
    9.3747   15.1255    2.7224 C   0  0  0  0  0  0  0  0  0  0  0  0
   10.3339   14.9699    1.7365 C   0  0  0  0  0  0  0  0  0  0  0  0
   11.6007   15.6624    1.4648 C   0  0  0  0  0  0  0  0  0  0  0  0
   12.8057   14.9402    1.5040 C   0  0  0  0  0  0  0  0  0  0  0  0
   14.0162   15.4966    1.0539 C   0  0  0  0  0  0  0  0  0  0  0  0
   14.0752   16.8045    0.5525 C   0  0  0  0  0  0  0  0  0  0  0  0
   15.3647   17.3110   -0.0999 C   0  0  0  0  0  0  0  0  0  0  0  0
   15.9980   18.4624    0.5622 N   0  0  0  0  0  0  0  0  0  0  0  0
   17.4400   18.3161    0.8242 C   0  0  2  0  0  0  0  0  0  0  0  0
   18.0976   18.2221   -0.4192 O   0  0  0  0  0  0  0  0  0  0  0  0
   17.8447   17.1639    1.7433 C   0  0  0  0  0  0  0  0  0  0  0  0
   16.9209   16.7572    2.7145 C   0  0  0  0  0  0  0  0  0  0  0  0
   17.0499   15.5493    3.3801 C   0  0  0  0  0  0  0  0  0  0  0  0
   18.1854   14.7775    3.1442 C   0  0  0  0  0  0  0  0  0  0  0  0
   18.5837   13.4977    3.5412 C   0  0  0  0  0  0  0  0  0  0  0  0
   19.8197   13.2065    3.1588 N   0  0  0  0  0  0  0  0  0  0  0  0
   20.2493   14.3449    2.5401 N   0  0  0  0  0  0  0  0  0  0  0  0
   21.6842   14.5053    2.3005 C   0  0  0  0  0  0  0  0  0  0  0  0
   22.1083   13.7634    1.2440 F   0  0  0  0  0  0  0  0  0  0  0  0
   22.0122   15.7989    2.0277 F   0  0  0  0  0  0  0  0  0  0  0  0
   19.2318   15.2732    2.3679 C   0  0  0  0  0  0  0  0  0  0  0  0
   19.0851   16.4760    1.6400 C   0  0  0  0  0  0  0  0  0  0  0  0
   12.8869   17.5545    0.5788 C   0  0  0  0  0  0  0  0  0  0  0  0
   11.6659   16.9911    1.0307 C   0  0  0  0  0  0  0  0  0  0  0  0
  1  2  1  0
  2  3  1  0
  3  4  2  0
  4  5  1  0
  5  6  2  0
  6  7  1  0
  7  8  2  0
  8  9  1  0
  9 10  2  0
 10 11  1  0
 11 12  1  0
 12 13  1  0
 13 14  1  6
 13 15  1  0
 15 16  2  0
 16 17  1  0
 17 18  2  0
 18 19  1  0
 19 20  2  0
 20 21  1  0
 21 22  1  0
 22 23  1  0
 22 24  1  0
 21 25  1  0
 25 26  2  0
 10 27  1  0
 27 28  2  0
  6  2  1  0
 28  7  1  0
 26 15  1  0
 25 18  1  0
M  END
>  <energy_score>  (4015) 
-30.374871

>  <inchikey>  (4015) 
RNWDAZQTRPMLCX-UHFFFAOYSA-N

>  <smiles>  (4015) 
Cn1nccc1-c1ccc(CNC(O)c2ccc3cnn(C(F)F)c3c2)cc1

>  <ref_pdb>  (4015) 
A0514b

>  <alias>  (4015) 
RNWDAZQTRPMLCX-UHFFFAOYSA-N-P76-P9-P76-601504

>  <HIPPO Pose ID>  (4015) 
507587

>  <name>  (4015) 
RNWDAZQTRPMLCX-UHFFFAOYSA-N-P76-P9-P76-601504

>  <HIPPO Compound ID>  (4015) 
289757

>  <ref_mols>  (4015) 
A0486a,A0717a

>  <distance_score>  (4015) 
1.890405

>  <inspiration_score>  (4015) 
None

$$$$
MQTSULCDEQVALO-UHFFFAOYSA-N-P9-P9-P76-601504
     RDKit          3D

 28 31  0  0  0  0  0  0  0  0999 V2000
   16.6026   14.3507    2.8156 C   0  0  0  0  0  0  0  0  0  0  0  0
   17.5320   15.4504    2.4060 C   0  0  0  0  0  0  0  0  0  0  0  0
   17.0704   16.7472    1.9793 C   0  0  0  0  0  0  0  0  0  0  0  0
   15.5636   17.0595    1.8266 C   0  0  2  0  0  0  0  0  0  0  0  0
   15.3930   17.6296    0.5349 O   0  0  0  0  0  0  0  0  0  0  0  0
   15.0882   17.9652    2.8683 N   0  0  0  0  0  0  0  0  0  0  0  0
   13.8546   18.6944    2.5258 C   0  0  0  0  0  0  0  0  0  0  0  0
   12.5988   17.8595    2.4138 C   0  0  0  0  0  0  0  0  0  0  0  0
   12.1760   17.3782    1.1704 C   0  0  0  0  0  0  0  0  0  0  0  0
   11.0568   16.5434    1.0659 C   0  0  0  0  0  0  0  0  0  0  0  0
   10.3418   16.1423    2.2013 C   0  0  0  0  0  0  0  0  0  0  0  0
    9.3867   15.0198    2.1521 C   0  0  0  0  0  0  0  0  0  0  0  0
    8.2971   14.7292    2.9612 C   0  0  0  0  0  0  0  0  0  0  0  0
    7.8372   13.4653    2.5559 C   0  0  0  0  0  0  0  0  0  0  0  0
    8.5488   12.9770    1.5453 N   0  0  0  0  0  0  0  0  0  0  0  0
    9.5240   13.8850    1.3651 N   0  0  0  0  0  0  0  0  0  0  0  0
   10.6094   13.5078    0.4861 C   0  0  0  0  0  0  0  0  0  0  0  0
   10.6737   16.7537    3.4193 C   0  0  0  0  0  0  0  0  0  0  0  0
   11.8089   17.5721    3.5327 C   0  0  0  0  0  0  0  0  0  0  0  0
   17.9807   17.8054    1.6176 C   0  0  0  0  0  0  0  0  0  0  0  0
   19.3723   17.6796    1.6015 C   0  0  0  0  0  0  0  0  0  0  0  0
   19.7710   16.4065    1.9725 C   0  0  0  0  0  0  0  0  0  0  0  0
   21.0742   15.9904    2.0159 C   0  0  0  0  0  0  0  0  0  0  0  0
   22.3578   16.6627    1.6883 C   0  0  0  0  0  0  0  0  0  0  0  0
   20.9934   14.7078    2.4942 N   0  0  0  0  0  0  0  0  0  0  0  0
   22.1115   13.8759    2.8729 C   0  0  0  0  0  0  0  0  0  0  0  0
   19.7269   14.2503    2.6630 N   0  0  0  0  0  0  0  0  0  0  0  0
   18.9389   15.3032    2.3693 C   0  0  0  0  0  0  0  0  0  0  0  0
  1  2  1  0
  2  3  2  0
  3  4  1  0
  4  5  1  6
  4  6  1  0
  6  7  1  0
  7  8  1  0
  8  9  2  0
  9 10  1  0
 10 11  2  0
 11 12  1  0
 12 13  2  0
 13 14  1  0
 14 15  2  0
 15 16  1  0
 16 17  1  0
 11 18  1  0
 18 19  2  0
  3 20  1  0
 20 21  2  0
 21 22  1  0
 22 23  2  0
 23 24  1  0
 23 25  1  0
 25 26  1  0
 25 27  1  0
 27 28  2  0
 28  2  1  0
 19  8  1  0
 28 22  1  0
 16 12  1  0
M  END
>  <energy_score>  (4016) 
-29.929164

>  <inchikey>  (4016) 
MQTSULCDEQVALO-UHFFFAOYSA-N

>  <smiles>  (4016) 
Cc1c(C(O)NCc2ccc(-c3ccnn3C)cc2)ccc2c(C)n(C)nc12

>  <ref_pdb>  (4016) 
A0514b

>  <alias>  (4016) 
MQTSULCDEQVALO-UHFFFAOYSA-N-P9-P9-P76-601504

>  <HIPPO Pose ID>  (4016) 
507590

>  <name>  (4016) 
MQTSULCDEQVALO-UHFFFAOYSA-N-P9-P9-P76-601504

>  <HIPPO Compound ID>  (4016) 
289759

>  <ref_mols>  (4016) 
A0486a,A0717a

>  <distance_score>  (4016) 
1.724214

>  <inspiration_score>  (4016) 
None

$$$$
MQTSULCDEQVALO-UHFFFAOYSA-N-P76-P9-P76-601504
     RDKit          3D

 28 31  0  0  0  0  0  0  0  0999 V2000
   16.5476   14.3725    2.9764 C   0  0  0  0  0  0  0  0  0  0  0  0
   17.5057   15.4420    2.5506 C   0  0  0  0  0  0  0  0  0  0  0  0
   17.0776   16.7461    2.1125 C   0  0  0  0  0  0  0  0  0  0  0  0
   15.5774   17.0908    1.9669 C   0  0  2  0  0  0  0  0  0  0  0  0
   15.4182   17.7236    0.7031 O   0  0  0  0  0  0  0  0  0  0  0  0
   15.1086   17.9548    3.0459 N   0  0  0  0  0  0  0  0  0  0  0  0
   13.8606   18.6797    2.7438 C   0  0  0  0  0  0  0  0  0  0  0  0
   12.6136   17.8341    2.6057 C   0  0  0  0  0  0  0  0  0  0  0  0
   12.2077   17.3695    1.3502 C   0  0  0  0  0  0  0  0  0  0  0  0
   11.0985   16.5246    1.2196 C   0  0  0  0  0  0  0  0  0  0  0  0
   10.3744   16.0973    2.3396 C   0  0  0  0  0  0  0  0  0  0  0  0
    9.4249   14.9718    2.2617 C   0  0  0  0  0  0  0  0  0  0  0  0
    8.3385   14.6562    3.0657 C   0  0  0  0  0  0  0  0  0  0  0  0
    7.8721   13.4090    2.6191 C   0  0  0  0  0  0  0  0  0  0  0  0
    8.5784   12.9523    1.5900 N   0  0  0  0  0  0  0  0  0  0  0  0
    9.5595   13.8606    1.4417 N   0  0  0  0  0  0  0  0  0  0  0  0
   10.6437   13.5063    0.5522 C   0  0  0  0  0  0  0  0  0  0  0  0
   10.6857   16.6940    3.5698 C   0  0  0  0  0  0  0  0  0  0  0  0
   11.8125   17.5216    3.7101 C   0  0  0  0  0  0  0  0  0  0  0  0
   18.0163   17.7763    1.7433 C   0  0  0  0  0  0  0  0  0  0  0  0
   19.4052   17.6102    1.7232 C   0  0  0  0  0  0  0  0  0  0  0  0
   19.7710   16.3285    2.1021 C   0  0  0  0  0  0  0  0  0  0  0  0
   21.0614   15.8708    2.1439 C   0  0  0  0  0  0  0  0  0  0  0  0
   22.3647   16.5007    1.8107 C   0  0  0  0  0  0  0  0  0  0  0  0
   20.9415   14.5865    2.6120 N   0  0  0  0  0  0  0  0  0  0  0  0
   22.0286   13.6932    2.9411 C   0  0  0  0  0  0  0  0  0  0  0  0
   19.6630   14.1812    2.8100 N   0  0  0  0  0  0  0  0  0  0  0  0
   18.9073   15.2545    2.5096 C   0  0  0  0  0  0  0  0  0  0  0  0
  1  2  1  0
  2  3  2  0
  3  4  1  0
  4  5  1  6
  4  6  1  0
  6  7  1  0
  7  8  1  0
  8  9  2  0
  9 10  1  0
 10 11  2  0
 11 12  1  0
 12 13  2  0
 13 14  1  0
 14 15  2  0
 15 16  1  0
 16 17  1  0
 11 18  1  0
 18 19  2  0
  3 20  1  0
 20 21  2  0
 21 22  1  0
 22 23  2  0
 23 24  1  0
 23 25  1  0
 25 26  1  0
 25 27  1  0
 27 28  2  0
 28  2  1  0
 19  8  1  0
 28 22  1  0
 16 12  1  0
M  END
>  <energy_score>  (4017) 
-30.52444

>  <inchikey>  (4017) 
MQTSULCDEQVALO-UHFFFAOYSA-N

>  <smiles>  (4017) 
Cc1c(C(O)NCc2ccc(-c3ccnn3C)cc2)ccc2c(C)n(C)nc12

>  <ref_pdb>  (4017) 
A0514b

>  <alias>  (4017) 
MQTSULCDEQVALO-UHFFFAOYSA-N-P76-P9-P76-601504

>  <HIPPO Pose ID>  (4017) 
507591

>  <name>  (4017) 
MQTSULCDEQVALO-UHFFFAOYSA-N-P76-P9-P76-601504

>  <HIPPO Compound ID>  (4017) 
289759

>  <ref_mols>  (4017) 
A0486a,A0717a

>  <distance_score>  (4017) 
1.685208

>  <inspiration_score>  (4017) 
None

$$$$
LURZPXDEORHJAD-UHFFFAOYSA-N-P9-P9-P76-601504
     RDKit          3D

 28 31  0  0  0  0  0  0  0  0999 V2000
   16.9454   14.5277    1.4248 C   0  0  0  0  0  0  0  0  0  0  0  0
   17.8947   15.6713    1.5940 C   0  0  0  0  0  0  0  0  0  0  0  0
   17.5686   17.0457    1.2918 C   0  0  0  0  0  0  0  0  0  0  0  0
   16.2951   17.5020    0.5709 C   0  0  1  0  0  0  0  0  0  0  0  0
   16.5662   17.4582   -0.8201 O   0  0  0  0  0  0  0  0  0  0  0  0
   15.0927   16.7341    0.7504 N   0  0  0  0  0  0  0  0  0  0  0  0
   14.2579   17.2074    1.8548 C   0  0  0  0  0  0  0  0  0  0  0  0
   12.8931   16.5380    1.8472 C   0  0  0  0  0  0  0  0  0  0  0  0
   11.7783   17.1586    2.4393 C   0  0  0  0  0  0  0  0  0  0  0  0
   10.5223   16.5243    2.4717 C   0  0  0  0  0  0  0  0  0  0  0  0
   10.3612   15.2552    1.9090 C   0  0  0  0  0  0  0  0  0  0  0  0
    9.1574   14.4413    2.0770 C   0  0  0  0  0  0  0  0  0  0  0  0
    8.1685   14.5015    3.0931 C   0  0  0  0  0  0  0  0  0  0  0  0
    7.4174   13.3601    2.9376 C   0  0  0  0  0  0  0  0  0  0  0  0
    7.9447   12.7105    1.8659 N   0  0  0  0  0  0  0  0  0  0  0  0
    7.5338   11.4328    1.3368 C   0  0  0  0  0  0  0  0  0  0  0  0
    8.9595   13.3687    1.2949 N   0  0  0  0  0  0  0  0  0  0  0  0
   11.4710   14.6563    1.2878 C   0  0  0  0  0  0  0  0  0  0  0  0
   12.7186   15.2719    1.2794 C   0  0  0  0  0  0  0  0  0  0  0  0
   18.5193   18.1136    1.4731 C   0  0  0  0  0  0  0  0  0  0  0  0
   19.8411   17.9393    1.8832 C   0  0  0  0  0  0  0  0  0  0  0  0
   20.1317   16.6037    2.0874 C   0  0  0  0  0  0  0  0  0  0  0  0
   21.3971   16.1215    2.2868 C   0  0  0  0  0  0  0  0  0  0  0  0
   22.7345   16.7735    2.2987 C   0  0  0  0  0  0  0  0  0  0  0  0
   21.2077   14.7755    2.4621 N   0  0  0  0  0  0  0  0  0  0  0  0
   22.2274   13.8099    2.7907 C   0  0  0  0  0  0  0  0  0  0  0  0
   19.9245   14.3630    2.3066 N   0  0  0  0  0  0  0  0  0  0  0  0
   19.2398   15.4820    1.9969 C   0  0  0  0  0  0  0  0  0  0  0  0
  1  2  1  0
  2  3  2  0
  3  4  1  0
  4  5  1  6
  4  6  1  0
  6  7  1  0
  7  8  1  0
  8  9  2  0
  9 10  1  0
 10 11  2  0
 11 12  1  0
 12 13  1  0
 13 14  2  0
 14 15  1  0
 15 16  1  0
 15 17  1  0
 11 18  1  0
 18 19  2  0
  3 20  1  0
 20 21  2  0
 21 22  1  0
 22 23  2  0
 23 24  1  0
 23 25  1  0
 25 26  1  0
 25 27  1  0
 27 28  2  0
 28  2  1  0
 19  8  1  0
 28 22  1  0
 17 12  2  0
M  END
>  <energy_score>  (4018) 
-44.74488

>  <inchikey>  (4018) 
LURZPXDEORHJAD-UHFFFAOYSA-N

>  <smiles>  (4018) 
Cc1c(C(O)NCc2ccc(-c3ccn(C)n3)cc2)ccc2c(C)n(C)nc12

>  <ref_pdb>  (4018) 
A0514b

>  <alias>  (4018) 
LURZPXDEORHJAD-UHFFFAOYSA-N-P9-P9-P76-601504

>  <HIPPO Pose ID>  (4018) 
507592

>  <name>  (4018) 
LURZPXDEORHJAD-UHFFFAOYSA-N-P9-P9-P76-601504

>  <HIPPO Compound ID>  (4018) 
289760

>  <ref_mols>  (4018) 
A0486a,A0717a

>  <distance_score>  (4018) 
1.858436

>  <inspiration_score>  (4018) 
None

$$$$
LURZPXDEORHJAD-UHFFFAOYSA-N-P76-P9-P76-601504
     RDKit          3D

 28 31  0  0  0  0  0  0  0  0999 V2000
   16.8643   14.6082    1.5195 C   0  0  0  0  0  0  0  0  0  0  0  0
   17.8574   15.7107    1.7076 C   0  0  0  0  0  0  0  0  0  0  0  0
   17.5845   17.1035    1.4427 C   0  0  0  0  0  0  0  0  0  0  0  0
   16.3110   17.6392    0.7789 C   0  0  1  0  0  0  0  0  0  0  0  0
   16.5671   17.6983   -0.6141 O   0  0  0  0  0  0  0  0  0  0  0  0
   15.0939   16.8850    0.9097 N   0  0  0  0  0  0  0  0  0  0  0  0
   14.2903   17.2656    2.0716 C   0  0  0  0  0  0  0  0  0  0  0  0
   12.9296   16.5880    2.0517 C   0  0  0  0  0  0  0  0  0  0  0  0
   11.8256   17.1558    2.7131 C   0  0  0  0  0  0  0  0  0  0  0  0
   10.5753   16.5091    2.7308 C   0  0  0  0  0  0  0  0  0  0  0  0
   10.4096   15.2814    2.0840 C   0  0  0  0  0  0  0  0  0  0  0  0
    9.2092   14.4565    2.2060 C   0  0  0  0  0  0  0  0  0  0  0  0
    8.2779   14.3875    3.2743 C   0  0  0  0  0  0  0  0  0  0  0  0
    7.5016   13.2840    3.0089 C   0  0  0  0  0  0  0  0  0  0  0  0
    7.9589   12.7824    1.8306 N   0  0  0  0  0  0  0  0  0  0  0  0
    7.4933   11.5970    1.1533 C   0  0  0  0  0  0  0  0  0  0  0  0
    8.9525   13.5027    1.2970 N   0  0  0  0  0  0  0  0  0  0  0  0
   11.5078   14.7350    1.3989 C   0  0  0  0  0  0  0  0  0  0  0  0
   12.7501   15.3615    1.4031 C   0  0  0  0  0  0  0  0  0  0  0  0
   18.5863   18.1236    1.6293 C   0  0  0  0  0  0  0  0  0  0  0  0
   19.9030   17.8842    2.0263 C   0  0  0  0  0  0  0  0  0  0  0  0
   20.1345   16.5345    2.2151 C   0  0  0  0  0  0  0  0  0  0  0  0
   21.3755   15.9939    2.4227 C   0  0  0  0  0  0  0  0  0  0  0  0
   22.7356   16.5950    2.4674 C   0  0  0  0  0  0  0  0  0  0  0  0
   21.1289   14.6514    2.5534 N   0  0  0  0  0  0  0  0  0  0  0  0
   22.1041   13.6212    2.8169 C   0  0  0  0  0  0  0  0  0  0  0  0
   19.8279   14.3035    2.3934 N   0  0  0  0  0  0  0  0  0  0  0  0
   19.1942   15.4566    2.1047 C   0  0  0  0  0  0  0  0  0  0  0  0
  1  2  1  0
  2  3  2  0
  3  4  1  0
  4  5  1  6
  4  6  1  0
  6  7  1  0
  7  8  1  0
  8  9  2  0
  9 10  1  0
 10 11  2  0
 11 12  1  0
 12 13  1  0
 13 14  2  0
 14 15  1  0
 15 16  1  0
 15 17  1  0
 11 18  1  0
 18 19  2  0
  3 20  1  0
 20 21  2  0
 21 22  1  0
 22 23  2  0
 23 24  1  0
 23 25  1  0
 25 26  1  0
 25 27  1  0
 27 28  2  0
 28  2  1  0
 19  8  1  0
 28 22  1  0
 17 12  2  0
M  END
>  <energy_score>  (4019) 
-45.653318

>  <inchikey>  (4019) 
LURZPXDEORHJAD-UHFFFAOYSA-N

>  <smiles>  (4019) 
Cc1c(C(O)NCc2ccc(-c3ccn(C)n3)cc2)ccc2c(C)n(C)nc12

>  <ref_pdb>  (4019) 
A0514b

>  <alias>  (4019) 
LURZPXDEORHJAD-UHFFFAOYSA-N-P76-P9-P76-601504

>  <HIPPO Pose ID>  (4019) 
507593

>  <name>  (4019) 
LURZPXDEORHJAD-UHFFFAOYSA-N-P76-P9-P76-601504

>  <HIPPO Compound ID>  (4019) 
289760

>  <ref_mols>  (4019) 
A0486a,A0717a

>  <distance_score>  (4019) 
1.77117

>  <inspiration_score>  (4019) 
None

$$$$
BSIRVHWYKABYMU-UHFFFAOYSA-N-P9-P9-P76-601504
     RDKit          3D

 28 31  0  0  0  0  0  0  0  0999 V2000
   17.8349   12.1027    1.3969 C   0  0  0  0  0  0  0  0  0  0  0  0
   18.5719   13.3285    1.7963 C   0  0  0  0  0  0  0  0  0  0  0  0
   19.7936   13.2737    2.3118 N   0  0  0  0  0  0  0  0  0  0  0  0
   20.1876   14.5680    2.3854 N   0  0  0  0  0  0  0  0  0  0  0  0
   21.6019   14.7683    2.5960 C   0  0  0  0  0  0  0  0  0  0  0  0
   19.1554   15.4744    2.1846 C   0  0  0  0  0  0  0  0  0  0  0  0
   18.9619   16.8876    2.3272 C   0  0  0  0  0  0  0  0  0  0  0  0
   20.0466   17.8651    2.6841 C   0  0  0  0  0  0  0  0  0  0  0  0
   17.6160   17.3565    2.1384 C   0  0  0  0  0  0  0  0  0  0  0  0
   17.0176   18.6660    2.6978 C   0  0  2  0  0  0  0  0  0  0  0  0
   17.7613   19.0778    3.8226 O   0  0  0  0  0  0  0  0  0  0  0  0
   15.6481   18.5056    3.2315 N   0  0  0  0  0  0  0  0  0  0  0  0
   14.5793   19.0029    2.3505 C   0  0  0  0  0  0  0  0  0  0  0  0
   13.3217   18.1297    2.3444 C   0  0  0  0  0  0  0  0  0  0  0  0
   12.4607   18.0251    3.4492 C   0  0  0  0  0  0  0  0  0  0  0  0
   11.3059   17.2016    3.4127 C   0  0  0  0  0  0  0  0  0  0  0  0
   10.9879   16.4430    2.2747 C   0  0  0  0  0  0  0  0  0  0  0  0
    9.9095   15.4327    2.2455 C   0  0  0  0  0  0  0  0  0  0  0  0
    8.7617   15.2946    3.0752 C   0  0  0  0  0  0  0  0  0  0  0  0
    8.1827   14.0967    2.7211 C   0  0  0  0  0  0  0  0  0  0  0  0
    8.9537   13.5940    1.7220 N   0  0  0  0  0  0  0  0  0  0  0  0
    8.7662   12.3435    1.0271 C   0  0  0  0  0  0  0  0  0  0  0  0
   10.0033   14.3755    1.4172 N   0  0  0  0  0  0  0  0  0  0  0  0
   11.8365   16.5794    1.1638 C   0  0  0  0  0  0  0  0  0  0  0  0
   12.9711   17.4099    1.1928 C   0  0  0  0  0  0  0  0  0  0  0  0
   16.7175   16.5546    1.4288 C   0  0  0  0  0  0  0  0  0  0  0  0
   16.9457   15.2129    1.2170 C   0  0  0  0  0  0  0  0  0  0  0  0
   18.1257   14.6580    1.7009 C   0  0  0  0  0  0  0  0  0  0  0  0
  1  2  1  0
  2  3  2  0
  3  4  1  0
  4  5  1  0
  4  6  1  0
  6  7  2  0
  7  8  1  0
  7  9  1  0
  9 10  1  0
 10 11  1  1
 10 12  1  0
 12 13  1  0
 13 14  1  0
 14 15  2  0
 15 16  1  0
 16 17  2  0
 17 18  1  0
 18 19  1  0
 19 20  2  0
 20 21  1  0
 21 22  1  0
 21 23  1  0
 17 24  1  0
 24 25  2  0
  9 26  2  0
 26 27  1  0
 27 28  2  0
 28  2  1  0
 28  6  1  0
 25 14  1  0
 23 18  2  0
M  END
>  <energy_score>  (4020) 
-19.919949

>  <inchikey>  (4020) 
BSIRVHWYKABYMU-UHFFFAOYSA-N

>  <smiles>  (4020) 
Cc1nn(C)c2c(C)c(C(O)NCc3ccc(-c4ccn(C)n4)cc3)ccc12

>  <ref_pdb>  (4020) 
A0514b

>  <alias>  (4020) 
BSIRVHWYKABYMU-UHFFFAOYSA-N-P9-P9-P76-601504

>  <HIPPO Pose ID>  (4020) 
507594

>  <name>  (4020) 
BSIRVHWYKABYMU-UHFFFAOYSA-N-P9-P9-P76-601504

>  <HIPPO Compound ID>  (4020) 
289761

>  <ref_mols>  (4020) 
A0486a,A0717a

>  <distance_score>  (4020) 
1.813869

>  <inspiration_score>  (4020) 
None

$$$$
BSIRVHWYKABYMU-UHFFFAOYSA-N-P76-P9-P76-601504
     RDKit          3D

 28 31  0  0  0  0  0  0  0  0999 V2000
   17.9950   12.0343    1.5473 C   0  0  0  0  0  0  0  0  0  0  0  0
   18.7046   13.2820    1.9256 C   0  0  0  0  0  0  0  0  0  0  0  0
   19.9314   13.2487    2.4330 N   0  0  0  0  0  0  0  0  0  0  0  0
   20.3040   14.5474    2.4937 N   0  0  0  0  0  0  0  0  0  0  0  0
   21.7193   14.7772    2.6566 C   0  0  0  0  0  0  0  0  0  0  0  0
   19.2551   15.4363    2.3066 C   0  0  0  0  0  0  0  0  0  0  0  0
   19.0398   16.8429    2.4733 C   0  0  0  0  0  0  0  0  0  0  0  0
   20.1056   17.8176    2.8877 C   0  0  0  0  0  0  0  0  0  0  0  0
   17.6926   17.2966    2.2661 C   0  0  0  0  0  0  0  0  0  0  0  0
   17.0622   18.5843    2.8425 C   0  0  2  0  0  0  0  0  0  0  0  0
   17.7852   19.0054    3.9776 O   0  0  0  0  0  0  0  0  0  0  0  0
   15.6940   18.3804    3.3661 N   0  0  0  0  0  0  0  0  0  0  0  0
   14.6252   18.9063    2.5012 C   0  0  0  0  0  0  0  0  0  0  0  0
   13.3642   18.0403    2.4856 C   0  0  0  0  0  0  0  0  0  0  0  0
   12.4790   17.9625    3.5732 C   0  0  0  0  0  0  0  0  0  0  0  0
   11.3219   17.1430    3.5281 C   0  0  0  0  0  0  0  0  0  0  0  0
   11.0281   16.3577    2.4015 C   0  0  0  0  0  0  0  0  0  0  0  0
    9.9506   15.3456    2.3704 C   0  0  0  0  0  0  0  0  0  0  0  0
    8.8380   15.1665    3.2394 C   0  0  0  0  0  0  0  0  0  0  0  0
    8.2470   13.9834    2.8569 C   0  0  0  0  0  0  0  0  0  0  0  0
    8.9796   13.5269    1.8083 N   0  0  0  0  0  0  0  0  0  0  0  0
    8.7782   12.2984    1.0794 C   0  0  0  0  0  0  0  0  0  0  0  0
   10.0039   14.3329    1.4844 N   0  0  0  0  0  0  0  0  0  0  0  0
   11.9019   16.4691    1.3069 C   0  0  0  0  0  0  0  0  0  0  0  0
   13.0381   17.2961    1.3430 C   0  0  0  0  0  0  0  0  0  0  0  0
   16.8186   16.4937    1.5256 C   0  0  0  0  0  0  0  0  0  0  0  0
   17.0641   15.1539    1.3100 C   0  0  0  0  0  0  0  0  0  0  0  0
   18.2423   14.6070    1.8104 C   0  0  0  0  0  0  0  0  0  0  0  0
  1  2  1  0
  2  3  2  0
  3  4  1  0
  4  5  1  0
  4  6  1  0
  6  7  2  0
  7  8  1  0
  7  9  1  0
  9 10  1  0
 10 11  1  1
 10 12  1  0
 12 13  1  0
 13 14  1  0
 14 15  2  0
 15 16  1  0
 16 17  2  0
 17 18  1  0
 18 19  1  0
 19 20  2  0
 20 21  1  0
 21 22  1  0
 21 23  1  0
 17 24  1  0
 24 25  2  0
  9 26  2  0
 26 27  1  0
 27 28  2  0
 28  2  1  0
 28  6  1  0
 25 14  1  0
 23 18  2  0
M  END
>  <energy_score>  (4021) 
-20.073306

>  <inchikey>  (4021) 
BSIRVHWYKABYMU-UHFFFAOYSA-N

>  <smiles>  (4021) 
Cc1nn(C)c2c(C)c(C(O)NCc3ccc(-c4ccn(C)n4)cc3)ccc12

>  <ref_pdb>  (4021) 
A0514b

>  <alias>  (4021) 
BSIRVHWYKABYMU-UHFFFAOYSA-N-P76-P9-P76-601504

>  <HIPPO Pose ID>  (4021) 
507595

>  <name>  (4021) 
BSIRVHWYKABYMU-UHFFFAOYSA-N-P76-P9-P76-601504

>  <HIPPO Compound ID>  (4021) 
289761

>  <ref_mols>  (4021) 
A0486a,A0717a

>  <distance_score>  (4021) 
1.74543

>  <inspiration_score>  (4021) 
None

$$$$
HVXLDXITFPGFJS-UHFFFAOYSA-N-P9-P9-P76-601504
     RDKit          3D

 28 31  0  0  0  0  0  0  0  0999 V2000
   17.8120   12.1482    1.4578 C   0  0  0  0  0  0  0  0  0  0  0  0
   18.5780   13.3632    1.8346 C   0  0  0  0  0  0  0  0  0  0  0  0
   19.7402   13.2893    2.4728 N   0  0  0  0  0  0  0  0  0  0  0  0
   20.2067   14.5625    2.4585 N   0  0  0  0  0  0  0  0  0  0  0  0
   21.6320   14.7014    2.6476 C   0  0  0  0  0  0  0  0  0  0  0  0
   19.2336   15.5025    2.1422 C   0  0  0  0  0  0  0  0  0  0  0  0
   19.0884   16.9279    2.2054 C   0  0  0  0  0  0  0  0  0  0  0  0
   20.1551   17.8794    2.6710 C   0  0  0  0  0  0  0  0  0  0  0  0
   17.8028   17.4417    1.8203 C   0  0  0  0  0  0  0  0  0  0  0  0
   17.2375   18.8357    2.1712 C   0  0  2  0  0  0  0  0  0  0  0  0
   17.6619   19.3055    3.4337 O   0  0  0  0  0  0  0  0  0  0  0  0
   15.7595   18.9076    2.1326 N   0  0  0  0  0  0  0  0  0  0  0  0
   15.0697   18.2509    3.2517 C   0  0  0  0  0  0  0  0  0  0  0  0
   13.7577   17.5695    2.8620 C   0  0  0  0  0  0  0  0  0  0  0  0
   12.5085   18.2095    2.9306 C   0  0  0  0  0  0  0  0  0  0  0  0
   11.3027   17.5174    2.6446 C   0  0  0  0  0  0  0  0  0  0  0  0
   11.3165   16.1766    2.2485 C   0  0  0  0  0  0  0  0  0  0  0  0
   10.1015   15.3733    2.0253 C   0  0  0  0  0  0  0  0  0  0  0  0
    9.0111   15.1261    2.8480 C   0  0  0  0  0  0  0  0  0  0  0  0
    8.3331   14.0405    2.2611 C   0  0  0  0  0  0  0  0  0  0  0  0
    8.8851   13.6739    1.1068 N   0  0  0  0  0  0  0  0  0  0  0  0
    9.8955   14.5464    0.9386 N   0  0  0  0  0  0  0  0  0  0  0  0
   10.6353   14.5047   -0.3030 C   0  0  0  0  0  0  0  0  0  0  0  0
   12.5729   15.5519    2.1508 C   0  0  0  0  0  0  0  0  0  0  0  0
   13.7621   16.2271    2.4652 C   0  0  0  0  0  0  0  0  0  0  0  0
   16.9547   16.6424    1.0473 C   0  0  0  0  0  0  0  0  0  0  0  0
   17.1341   15.2798    0.9471 C   0  0  0  0  0  0  0  0  0  0  0  0
   18.2198   14.7030    1.5984 C   0  0  0  0  0  0  0  0  0  0  0  0
  1  2  1  0
  2  3  2  0
  3  4  1  0
  4  5  1  0
  4  6  1  0
  6  7  2  0
  7  8  1  0
  7  9  1  0
  9 10  1  0
 10 11  1  1
 10 12  1  0
 12 13  1  0
 13 14  1  0
 14 15  2  0
 15 16  1  0
 16 17  2  0
 17 18  1  0
 18 19  2  0
 19 20  1  0
 20 21  2  0
 21 22  1  0
 22 23  1  0
 17 24  1  0
 24 25  2  0
  9 26  2  0
 26 27  1  0
 27 28  2  0
 28  2  1  0
 28  6  1  0
 25 14  1  0
 22 18  1  0
M  END
>  <energy_score>  (4022) 
-22.659717

>  <inchikey>  (4022) 
HVXLDXITFPGFJS-UHFFFAOYSA-N

>  <smiles>  (4022) 
Cc1nn(C)c2c(C)c(C(O)NCc3ccc(-c4ccnn4C)cc3)ccc12

>  <ref_pdb>  (4022) 
A0514b

>  <alias>  (4022) 
HVXLDXITFPGFJS-UHFFFAOYSA-N-P9-P9-P76-601504

>  <HIPPO Pose ID>  (4022) 
507596

>  <name>  (4022) 
HVXLDXITFPGFJS-UHFFFAOYSA-N-P9-P9-P76-601504

>  <HIPPO Compound ID>  (4022) 
289762

>  <ref_mols>  (4022) 
A0486a,A0717a

>  <distance_score>  (4022) 
1.830603

>  <inspiration_score>  (4022) 
None

$$$$
HVXLDXITFPGFJS-UHFFFAOYSA-N-P76-P9-P76-601504
     RDKit          3D

 28 31  0  0  0  0  0  0  0  0999 V2000
   18.0153   12.0919    1.4485 C   0  0  0  0  0  0  0  0  0  0  0  0
   18.7436   13.3171    1.8613 C   0  0  0  0  0  0  0  0  0  0  0  0
   19.8920   13.2382    2.5250 N   0  0  0  0  0  0  0  0  0  0  0  0
   20.3410   14.5144    2.5542 N   0  0  0  0  0  0  0  0  0  0  0  0
   21.7660   14.6639    2.7264 C   0  0  0  0  0  0  0  0  0  0  0  0
   19.3549   15.4479    2.2707 C   0  0  0  0  0  0  0  0  0  0  0  0
   19.1663   16.8560    2.4394 C   0  0  0  0  0  0  0  0  0  0  0  0
   20.1807   17.7987    3.0227 C   0  0  0  0  0  0  0  0  0  0  0  0
   17.8722   17.3480    2.0662 C   0  0  0  0  0  0  0  0  0  0  0  0
   17.1371   18.5649    2.6730 C   0  0  2  0  0  0  0  0  0  0  0  0
   17.8380   19.0967    3.7693 O   0  0  0  0  0  0  0  0  0  0  0  0
   15.8225   18.1854    3.2373 N   0  0  0  0  0  0  0  0  0  0  0  0
   14.6732   18.6202    2.4295 C   0  0  0  0  0  0  0  0  0  0  0  0
   13.4477   17.7058    2.5086 C   0  0  0  0  0  0  0  0  0  0  0  0
   13.5008   16.3879    2.0397 C   0  0  0  0  0  0  0  0  0  0  0  0
   12.3437   15.5963    1.9542 C   0  0  0  0  0  0  0  0  0  0  0  0
   11.0800   16.0826    2.3325 C   0  0  0  0  0  0  0  0  0  0  0  0
    9.9059   15.2041    2.2178 C   0  0  0  0  0  0  0  0  0  0  0  0
    8.9525   14.8264    3.1515 C   0  0  0  0  0  0  0  0  0  0  0  0
    8.2530   13.7545    2.5652 C   0  0  0  0  0  0  0  0  0  0  0  0
    8.6467   13.5267    1.3136 N   0  0  0  0  0  0  0  0  0  0  0  0
    9.5874   14.4631    1.0964 N   0  0  0  0  0  0  0  0  0  0  0  0
   10.1393   14.5754   -0.2350 C   0  0  0  0  0  0  0  0  0  0  0  0
   11.0268   17.3773    2.8531 C   0  0  0  0  0  0  0  0  0  0  0  0
   12.1920   18.1799    2.9307 C   0  0  0  0  0  0  0  0  0  0  0  0
   17.1075   16.6157    1.1531 C   0  0  0  0  0  0  0  0  0  0  0  0
   17.3250   15.2659    0.9617 C   0  0  0  0  0  0  0  0  0  0  0  0
   18.3804   14.6617    1.6426 C   0  0  0  0  0  0  0  0  0  0  0  0
  1  2  1  0
  2  3  2  0
  3  4  1  0
  4  5  1  0
  4  6  1  0
  6  7  2  0
  7  8  1  0
  7  9  1  0
  9 10  1  0
 10 11  1  1
 10 12  1  0
 12 13  1  0
 13 14  1  0
 14 15  2  0
 15 16  1  0
 16 17  2  0
 17 18  1  0
 18 19  2  0
 19 20  1  0
 20 21  2  0
 21 22  1  0
 22 23  1  0
 17 24  1  0
 24 25  2  0
  9 26  2  0
 26 27  1  0
 27 28  2  0
 28  2  1  0
 28  6  1  0
 25 14  1  0
 22 18  1  0
M  END
>  <energy_score>  (4023) 
-17.503164

>  <inchikey>  (4023) 
HVXLDXITFPGFJS-UHFFFAOYSA-N

>  <smiles>  (4023) 
Cc1nn(C)c2c(C)c(C(O)NCc3ccc(-c4ccnn4C)cc3)ccc12

>  <ref_pdb>  (4023) 
A0514b

>  <alias>  (4023) 
HVXLDXITFPGFJS-UHFFFAOYSA-N-P76-P9-P76-601504

>  <HIPPO Pose ID>  (4023) 
507597

>  <name>  (4023) 
HVXLDXITFPGFJS-UHFFFAOYSA-N-P76-P9-P76-601504

>  <HIPPO Compound ID>  (4023) 
289762

>  <ref_mols>  (4023) 
A0486a,A0717a

>  <distance_score>  (4023) 
1.674286

>  <inspiration_score>  (4023) 
None

$$$$
ROFKHKMBGCUQTH-UHFFFAOYSA-N-P9-P9-P76-601504
     RDKit          3D

 28 31  0  0  0  0  0  0  0  0999 V2000
    8.1638   11.3050    1.4194 C   0  0  0  0  0  0  0  0  0  0  0  0
    8.3298   12.6475    1.9202 N   0  0  0  0  0  0  0  0  0  0  0  0
    7.6506   13.2264    2.9442 C   0  0  0  0  0  0  0  0  0  0  0  0
    8.2056   14.4745    3.1042 C   0  0  0  0  0  0  0  0  0  0  0  0
    9.2376   14.5612    2.1316 C   0  0  0  0  0  0  0  0  0  0  0  0
   10.2818   15.5790    1.9601 C   0  0  0  0  0  0  0  0  0  0  0  0
   11.2814   15.3699    0.9929 C   0  0  0  0  0  0  0  0  0  0  0  0
   12.4004   16.1995    0.9067 C   0  0  0  0  0  0  0  0  0  0  0  0
   12.5650   17.2631    1.7969 C   0  0  0  0  0  0  0  0  0  0  0  0
   13.7621   18.1797    1.6880 C   0  0  0  0  0  0  0  0  0  0  0  0
   15.0287   17.5124    1.3570 N   0  0  0  0  0  0  0  0  0  0  0  0
   15.6170   16.7939    2.4912 C   0  0  0  0  0  0  0  0  0  0  0  0
   17.1393   16.6979    2.3769 C   0  0  0  0  0  0  0  0  0  0  0  0
   17.8857   17.9254    2.3942 C   0  0  0  0  0  0  0  0  0  0  0  0
   19.2800   17.9915    2.3192 C   0  0  0  0  0  0  0  0  0  0  0  0
   19.8331   16.7267    2.2462 C   0  0  0  0  0  0  0  0  0  0  0  0
   21.1686   16.4911    2.1556 C   0  0  0  0  0  0  0  0  0  0  0  0
   21.2859   15.1325    2.0725 N   0  0  0  0  0  0  0  0  0  0  0  0
   22.5360   14.3846    1.8497 C   0  0  0  0  0  0  0  0  0  0  0  0
   22.3190   13.3242    0.7662 C   0  0  0  0  0  0  0  0  0  0  0  0
   23.6903   15.2834    1.3333 C   0  0  0  0  0  0  0  0  0  0  0  0
   22.9988   13.7580    3.1589 C   0  0  0  0  0  0  0  0  0  0  0  0
   20.0898   14.4800    2.1947 N   0  0  0  0  0  0  0  0  0  0  0  0
   19.1679   15.4590    2.2462 C   0  0  0  0  0  0  0  0  0  0  0  0
   17.7680   15.4179    2.3080 C   0  0  0  0  0  0  0  0  0  0  0  0
   11.5440   17.5136    2.7292 C   0  0  0  0  0  0  0  0  0  0  0  0
   10.4129   16.6824    2.8103 C   0  0  0  0  0  0  0  0  0  0  0  0
    9.2564   13.4483    1.3783 N   0  0  0  0  0  0  0  0  0  0  0  0
  1  2  1  0
  2  3  1  0
  3  4  2  0
  4  5  1  0
  5  6  1  0
  6  7  2  0
  7  8  1  0
  8  9  2  0
  9 10  1  0
 10 11  1  0
 11 12  1  0
 12 13  1  0
 13 14  1  0
 14 15  2  0
 15 16  1  0
 16 17  2  0
 17 18  1  0
 18 19  1  0
 19 20  1  0
 19 21  1  0
 19 22  1  0
 18 23  1  0
 23 24  2  0
 24 25  1  0
  9 26  1  0
 26 27  2  0
  5 28  2  0
 28  2  1  0
 27  6  1  0
 25 13  2  0
 24 16  1  0
M  END
>  <energy_score>  (4024) 
-41.937558

>  <inchikey>  (4024) 
ROFKHKMBGCUQTH-UHFFFAOYSA-N

>  <smiles>  (4024) 
Cn1ccc(-c2ccc(CNCc3ccc4cn(C(C)(C)C)nc4c3)cc2)n1

>  <ref_pdb>  (4024) 
A0514b

>  <alias>  (4024) 
ROFKHKMBGCUQTH-UHFFFAOYSA-N-P9-P9-P76-601504

>  <HIPPO Pose ID>  (4024) 
507598

>  <name>  (4024) 
ROFKHKMBGCUQTH-UHFFFAOYSA-N-P9-P9-P76-601504

>  <HIPPO Compound ID>  (4024) 
289763

>  <ref_mols>  (4024) 
A0486a,A0717a

>  <distance_score>  (4024) 
1.77427

>  <inspiration_score>  (4024) 
None

$$$$
ROFKHKMBGCUQTH-UHFFFAOYSA-N-P76-P9-P76-601504
     RDKit          3D

 28 31  0  0  0  0  0  0  0  0999 V2000
    8.4843   11.9402    0.9613 C   0  0  0  0  0  0  0  0  0  0  0  0
    8.6001   13.1256    1.7747 N   0  0  0  0  0  0  0  0  0  0  0  0
    7.9104   13.4065    2.9103 C   0  0  0  0  0  0  0  0  0  0  0  0
    8.4026   14.6108    3.3581 C   0  0  0  0  0  0  0  0  0  0  0  0
    9.4131   14.9850    2.4296 C   0  0  0  0  0  0  0  0  0  0  0  0
   10.4009   16.0764    2.5057 C   0  0  0  0  0  0  0  0  0  0  0  0
   11.3530   16.2078    1.4811 C   0  0  0  0  0  0  0  0  0  0  0  0
   12.4635   17.0467    1.6190 C   0  0  0  0  0  0  0  0  0  0  0  0
   12.6686   17.7832    2.7931 C   0  0  0  0  0  0  0  0  0  0  0  0
   13.9535   18.5796    2.9545 C   0  0  0  0  0  0  0  0  0  0  0  0
   15.0960   17.6734    2.9303 N   0  0  0  0  0  0  0  0  0  0  0  0
   16.3912   18.2834    2.6281 C   0  0  0  0  0  0  0  0  0  0  0  0
   17.4230   17.2001    2.3052 C   0  0  0  0  0  0  0  0  0  0  0  0
   16.9886   16.0875    1.4969 C   0  0  0  0  0  0  0  0  0  0  0  0
   17.7651   14.9582    1.1829 C   0  0  0  0  0  0  0  0  0  0  0  0
   19.0329   15.0832    1.7143 C   0  0  0  0  0  0  0  0  0  0  0  0
   20.0484   14.1852    1.5516 C   0  0  0  0  0  0  0  0  0  0  0  0
   21.1448   14.7791    2.1180 N   0  0  0  0  0  0  0  0  0  0  0  0
   22.5602   14.3877    1.9777 C   0  0  0  0  0  0  0  0  0  0  0  0
   22.7571   13.2660    0.9454 C   0  0  0  0  0  0  0  0  0  0  0  0
   23.3868   15.5959    1.4746 C   0  0  0  0  0  0  0  0  0  0  0  0
   23.1366   13.9144    3.3112 C   0  0  0  0  0  0  0  0  0  0  0  0
   20.8374   15.9352    2.7538 N   0  0  0  0  0  0  0  0  0  0  0  0
   19.5516   16.1768    2.4672 C   0  0  0  0  0  0  0  0  0  0  0  0
   18.7527   17.2895    2.7887 C   0  0  0  0  0  0  0  0  0  0  0  0
   11.6838   17.7197    3.7897 C   0  0  0  0  0  0  0  0  0  0  0  0
   10.5559   16.8845    3.6427 C   0  0  0  0  0  0  0  0  0  0  0  0
    9.4818   14.0782    1.4372 N   0  0  0  0  0  0  0  0  0  0  0  0
  1  2  1  0
  2  3  1  0
  3  4  2  0
  4  5  1  0
  5  6  1  0
  6  7  2  0
  7  8  1  0
  8  9  2  0
  9 10  1  0
 10 11  1  0
 11 12  1  0
 12 13  1  0
 13 14  1  0
 14 15  2  0
 15 16  1  0
 16 17  2  0
 17 18  1  0
 18 19  1  0
 19 20  1  0
 19 21  1  0
 19 22  1  0
 18 23  1  0
 23 24  2  0
 24 25  1  0
  9 26  1  0
 26 27  2  0
  5 28  2  0
 28  2  1  0
 27  6  1  0
 25 13  2  0
 24 16  1  0
M  END
>  <energy_score>  (4025) 
-42.821159

>  <inchikey>  (4025) 
ROFKHKMBGCUQTH-UHFFFAOYSA-N

>  <smiles>  (4025) 
Cn1ccc(-c2ccc(CNCc3ccc4cn(C(C)(C)C)nc4c3)cc2)n1

>  <ref_pdb>  (4025) 
A0514b

>  <alias>  (4025) 
ROFKHKMBGCUQTH-UHFFFAOYSA-N-P76-P9-P76-601504

>  <HIPPO Pose ID>  (4025) 
507599

>  <name>  (4025) 
ROFKHKMBGCUQTH-UHFFFAOYSA-N-P76-P9-P76-601504

>  <HIPPO Compound ID>  (4025) 
289763

>  <ref_mols>  (4025) 
A0486a,A0717a

>  <distance_score>  (4025) 
1.715789

>  <inspiration_score>  (4025) 
None

$$$$
ONSHOKSXCKRHGR-UHFFFAOYSA-N-P9-P9-P76-601504
     RDKit          3D

 28 31  0  0  0  0  0  0  0  0999 V2000
   10.7107   13.7548    0.5181 C   0  0  0  0  0  0  0  0  0  0  0  0
    9.6189   14.0806    1.4102 N   0  0  0  0  0  0  0  0  0  0  0  0
    8.6748   13.1389    1.5816 N   0  0  0  0  0  0  0  0  0  0  0  0
    7.9222   13.6085    2.5706 C   0  0  0  0  0  0  0  0  0  0  0  0
    8.3475   14.8778    2.9981 C   0  0  0  0  0  0  0  0  0  0  0  0
    9.4512   15.1966    2.2193 C   0  0  0  0  0  0  0  0  0  0  0  0
   10.3863   16.3359    2.3005 C   0  0  0  0  0  0  0  0  0  0  0  0
   11.0797   16.7904    1.1715 C   0  0  0  0  0  0  0  0  0  0  0  0
   12.1970   17.6267    1.2942 C   0  0  0  0  0  0  0  0  0  0  0  0
   12.6301   18.0704    2.5500 C   0  0  0  0  0  0  0  0  0  0  0  0
   13.9595   18.7939    2.6741 C   0  0  0  0  0  0  0  0  0  0  0  0
   15.0396   17.8119    2.6604 N   0  0  0  0  0  0  0  0  0  0  0  0
   16.3696   18.3590    2.3781 C   0  0  0  0  0  0  0  0  0  0  0  0
   17.3994   17.2431    2.1807 C   0  0  0  0  0  0  0  0  0  0  0  0
   16.9667   16.0082    1.5745 C   0  0  0  0  0  0  0  0  0  0  0  0
   17.7754   14.8750    1.3600 C   0  0  0  0  0  0  0  0  0  0  0  0
   19.0721   15.1239    1.7645 C   0  0  0  0  0  0  0  0  0  0  0  0
   20.1298   14.2702    1.6194 C   0  0  0  0  0  0  0  0  0  0  0  0
   21.2247   14.9853    2.0278 N   0  0  0  0  0  0  0  0  0  0  0  0
   22.6515   14.6780    1.8210 C   0  0  0  0  0  0  0  0  0  0  0  0
   22.8766   13.4176    0.9772 C   0  0  0  0  0  0  0  0  0  0  0  0
   23.3234   15.8448    1.0563 C   0  0  0  0  0  0  0  0  0  0  0  0
   23.3700   14.4861    3.1559 C   0  0  0  0  0  0  0  0  0  0  0  0
   20.8931   16.1947    2.5361 N   0  0  0  0  0  0  0  0  0  0  0  0
   19.5804   16.3325    2.3227 C   0  0  0  0  0  0  0  0  0  0  0  0
   18.7514   17.4438    2.5549 C   0  0  0  0  0  0  0  0  0  0  0  0
   11.8514   17.7436    3.6666 C   0  0  0  0  0  0  0  0  0  0  0  0
   10.7293   16.9049    3.5374 C   0  0  0  0  0  0  0  0  0  0  0  0
  1  2  1  0
  2  3  1  0
  3  4  2  0
  4  5  1  0
  5  6  2  0
  6  7  1  0
  7  8  2  0
  8  9  1  0
  9 10  2  0
 10 11  1  0
 11 12  1  0
 12 13  1  0
 13 14  1  0
 14 15  1  0
 15 16  2  0
 16 17  1  0
 17 18  2  0
 18 19  1  0
 19 20  1  0
 20 21  1  0
 20 22  1  0
 20 23  1  0
 19 24  1  0
 24 25  2  0
 25 26  1  0
 10 27  1  0
 27 28  2  0
  6  2  1  0
 28  7  1  0
 26 14  2  0
 25 17  1  0
M  END
>  <energy_score>  (4026) 
-32.344639

>  <inchikey>  (4026) 
ONSHOKSXCKRHGR-UHFFFAOYSA-N

>  <smiles>  (4026) 
Cn1nccc1-c1ccc(CNCc2ccc3cn(C(C)(C)C)nc3c2)cc1

>  <ref_pdb>  (4026) 
A0514b

>  <alias>  (4026) 
ONSHOKSXCKRHGR-UHFFFAOYSA-N-P9-P9-P76-601504

>  <HIPPO Pose ID>  (4026) 
507600

>  <name>  (4026) 
ONSHOKSXCKRHGR-UHFFFAOYSA-N-P9-P9-P76-601504

>  <HIPPO Compound ID>  (4026) 
289764

>  <ref_mols>  (4026) 
A0486a,A0717a

>  <distance_score>  (4026) 
1.914264

>  <inspiration_score>  (4026) 
None

$$$$
ONSHOKSXCKRHGR-UHFFFAOYSA-N-P76-P9-P76-601504
     RDKit          3D

 28 31  0  0  0  0  0  0  0  0999 V2000
   10.7391   13.8176    0.5590 C   0  0  0  0  0  0  0  0  0  0  0  0
    9.6654   14.0976    1.4870 N   0  0  0  0  0  0  0  0  0  0  0  0
    8.7305   13.1422    1.6336 N   0  0  0  0  0  0  0  0  0  0  0  0
    7.9910   13.5650    2.6532 C   0  0  0  0  0  0  0  0  0  0  0  0
    8.4166   14.8174    3.1275 C   0  0  0  0  0  0  0  0  0  0  0  0
    9.5071   15.1764    2.3469 C   0  0  0  0  0  0  0  0  0  0  0  0
   10.4359   16.3187    2.4669 C   0  0  0  0  0  0  0  0  0  0  0  0
   11.1431   16.8073    1.3613 C   0  0  0  0  0  0  0  0  0  0  0  0
   12.2574   17.6417    1.5221 C   0  0  0  0  0  0  0  0  0  0  0  0
   12.6752   18.0498    2.7952 C   0  0  0  0  0  0  0  0  0  0  0  0
   14.0030   18.7709    2.9544 C   0  0  0  0  0  0  0  0  0  0  0  0
   15.0876   17.8003    2.8400 N   0  0  0  0  0  0  0  0  0  0  0  0
   16.4166   18.3711    2.6010 C   0  0  0  0  0  0  0  0  0  0  0  0
   17.4260   17.2649    2.2822 C   0  0  0  0  0  0  0  0  0  0  0  0
   16.9856   16.1728    1.4500 C   0  0  0  0  0  0  0  0  0  0  0  0
   17.7479   15.0338    1.1330 C   0  0  0  0  0  0  0  0  0  0  0  0
   19.0097   15.1270    1.6865 C   0  0  0  0  0  0  0  0  0  0  0  0
   20.0147   14.2172    1.5213 C   0  0  0  0  0  0  0  0  0  0  0  0
   21.1128   14.7860    2.1117 N   0  0  0  0  0  0  0  0  0  0  0  0
   22.5258   14.3820    1.9775 C   0  0  0  0  0  0  0  0  0  0  0  0
   22.7192   13.2704    0.9337 C   0  0  0  0  0  0  0  0  0  0  0  0
   23.3673   15.5878    1.4937 C   0  0  0  0  0  0  0  0  0  0  0  0
   23.0879   13.8885    3.3098 C   0  0  0  0  0  0  0  0  0  0  0  0
   20.8115   15.9332    2.7659 N   0  0  0  0  0  0  0  0  0  0  0  0
   19.5344   16.1994    2.4650 C   0  0  0  0  0  0  0  0  0  0  0  0
   18.7489   17.3203    2.7907 C   0  0  0  0  0  0  0  0  0  0  0  0
   11.8787   17.6958    3.8905 C   0  0  0  0  0  0  0  0  0  0  0  0
   10.7581   16.8606    3.7217 C   0  0  0  0  0  0  0  0  0  0  0  0
  1  2  1  0
  2  3  1  0
  3  4  2  0
  4  5  1  0
  5  6  2  0
  6  7  1  0
  7  8  2  0
  8  9  1  0
  9 10  2  0
 10 11  1  0
 11 12  1  0
 12 13  1  0
 13 14  1  0
 14 15  1  0
 15 16  2  0
 16 17  1  0
 17 18  2  0
 18 19  1  0
 19 20  1  0
 20 21  1  0
 20 22  1  0
 20 23  1  0
 19 24  1  0
 24 25  2  0
 25 26  1  0
 10 27  1  0
 27 28  2  0
  6  2  1  0
 28  7  1  0
 26 14  2  0
 25 17  1  0
M  END
>  <energy_score>  (4027) 
-31.401177

>  <inchikey>  (4027) 
ONSHOKSXCKRHGR-UHFFFAOYSA-N

>  <smiles>  (4027) 
Cn1nccc1-c1ccc(CNCc2ccc3cn(C(C)(C)C)nc3c2)cc1

>  <ref_pdb>  (4027) 
A0514b

>  <alias>  (4027) 
ONSHOKSXCKRHGR-UHFFFAOYSA-N-P76-P9-P76-601504

>  <HIPPO Pose ID>  (4027) 
507601

>  <name>  (4027) 
ONSHOKSXCKRHGR-UHFFFAOYSA-N-P76-P9-P76-601504

>  <HIPPO Compound ID>  (4027) 
289764

>  <ref_mols>  (4027) 
A0486a,A0717a

>  <distance_score>  (4027) 
1.835606

>  <inspiration_score>  (4027) 
None

$$$$
XGOAJKJIPNJOPK-UHFFFAOYSA-N-P9-P9-P76-601504
     RDKit          3D

 28 31  0  0  0  0  0  0  0  0999 V2000
    8.3794   11.5915    1.2496 C   0  0  0  0  0  0  0  0  0  0  0  0
    8.4804   12.8987    1.8514 N   0  0  0  0  0  0  0  0  0  0  0  0
    7.7442   13.3779    2.8877 C   0  0  0  0  0  0  0  0  0  0  0  0
    8.2325   14.6377    3.1455 C   0  0  0  0  0  0  0  0  0  0  0  0
    9.2865   14.8375    2.2150 C   0  0  0  0  0  0  0  0  0  0  0  0
   10.2823   15.9155    2.1377 C   0  0  0  0  0  0  0  0  0  0  0  0
   10.5532   16.7650    3.2189 C   0  0  0  0  0  0  0  0  0  0  0  0
   11.7115   17.5618    3.2273 C   0  0  0  0  0  0  0  0  0  0  0  0
   12.5943   17.5621    2.1367 C   0  0  0  0  0  0  0  0  0  0  0  0
   13.8941   18.3352    2.1692 C   0  0  0  0  0  0  0  0  0  0  0  0
   15.0072   17.6581    2.8296 N   0  0  0  0  0  0  0  0  0  0  0  0
   15.4825   16.4498    2.1922 C   0  0  2  0  0  0  0  0  0  0  0  0
   14.8826   15.3572    2.8656 O   0  0  0  0  0  0  0  0  0  0  0  0
   17.0149   16.3319    2.2264 C   0  0  0  0  0  0  0  0  0  0  0  0
   17.7945   17.4732    1.8269 C   0  0  0  0  0  0  0  0  0  0  0  0
   19.1940   17.4762    1.7294 C   0  0  0  0  0  0  0  0  0  0  0  0
   19.7225   16.2379    2.0536 C   0  0  0  0  0  0  0  0  0  0  0  0
   21.0511   15.9484    2.0637 C   0  0  0  0  0  0  0  0  0  0  0  0
   21.1274   14.6535    2.5078 N   0  0  0  0  0  0  0  0  0  0  0  0
   22.3798   13.9640    2.8045 C   0  0  0  0  0  0  0  0  0  0  0  0
   22.7990   13.2529    1.7266 F   0  0  0  0  0  0  0  0  0  0  0  0
   23.3755   14.8553    3.0789 F   0  0  0  0  0  0  0  0  0  0  0  0
   19.9062   14.0627    2.6947 N   0  0  0  0  0  0  0  0  0  0  0  0
   19.0223   15.0514    2.4537 C   0  0  0  0  0  0  0  0  0  0  0  0
   17.6258   15.0790    2.5459 C   0  0  0  0  0  0  0  0  0  0  0  0
   12.2641   16.7971    1.0128 C   0  0  0  0  0  0  0  0  0  0  0  0
   11.1311   15.9802    1.0197 C   0  0  0  0  0  0  0  0  0  0  0  0
    9.4013   13.7677    1.4074 N   0  0  0  0  0  0  0  0  0  0  0  0
  1  2  1  0
  2  3  1  0
  3  4  2  0
  4  5  1  0
  5  6  1  0
  6  7  2  0
  7  8  1  0
  8  9  2  0
  9 10  1  0
 10 11  1  0
 11 12  1  0
 12 13  1  1
 12 14  1  0
 14 15  1  0
 15 16  2  0
 16 17  1  0
 17 18  2  0
 18 19  1  0
 19 20  1  0
 20 21  1  0
 20 22  1  0
 19 23  1  0
 23 24  2  0
 24 25  1  0
  9 26  1  0
 26 27  2  0
  5 28  2  0
 28  2  1  0
 27  6  1  0
 25 14  2  0
 24 17  1  0
M  END
>  <energy_score>  (4028) 
-40.5295

>  <inchikey>  (4028) 
XGOAJKJIPNJOPK-UHFFFAOYSA-N

>  <smiles>  (4028) 
Cn1ccc(-c2ccc(CNC(O)c3ccc4cn(C(F)F)nc4c3)cc2)n1

>  <ref_pdb>  (4028) 
A0514b

>  <alias>  (4028) 
XGOAJKJIPNJOPK-UHFFFAOYSA-N-P9-P9-P76-601504

>  <HIPPO Pose ID>  (4028) 
507602

>  <name>  (4028) 
XGOAJKJIPNJOPK-UHFFFAOYSA-N-P9-P9-P76-601504

>  <HIPPO Compound ID>  (4028) 
289765

>  <ref_mols>  (4028) 
A0486a,A0717a

>  <distance_score>  (4028) 
1.71672

>  <inspiration_score>  (4028) 
None

$$$$
JYOSNIZMEZSZEB-UHFFFAOYSA-N-P9-P9-P76-601504
     RDKit          3D

 28 31  0  0  0  0  0  0  0  0999 V2000
   10.7196   13.4933    0.3802 C   0  0  0  0  0  0  0  0  0  0  0  0
    9.6918   13.9589    1.2858 N   0  0  0  0  0  0  0  0  0  0  0  0
    8.6926   13.1043    1.5663 N   0  0  0  0  0  0  0  0  0  0  0  0
    8.0341   13.6921    2.5600 C   0  0  0  0  0  0  0  0  0  0  0  0
    8.5641   14.9574    2.8669 C   0  0  0  0  0  0  0  0  0  0  0  0
    9.6380   15.1422    2.0076 C   0  0  0  0  0  0  0  0  0  0  0  0
   10.6441   16.2178    1.9360 C   0  0  0  0  0  0  0  0  0  0  0  0
   11.1227   16.8429    3.0936 C   0  0  0  0  0  0  0  0  0  0  0  0
   12.2893   17.6271    3.0623 C   0  0  0  0  0  0  0  0  0  0  0  0
   12.9921   17.8419    1.8660 C   0  0  0  0  0  0  0  0  0  0  0  0
   14.3165   18.5966    1.8921 C   0  0  0  0  0  0  0  0  0  0  0  0
   15.2259   18.2333    0.7982 N   0  0  0  0  0  0  0  0  0  0  0  0
   16.6433   18.5006    1.0316 C   0  0  1  0  0  0  0  0  0  0  0  0
   16.8267   19.6433    1.8358 O   0  0  0  0  0  0  0  0  0  0  0  0
   17.4750   17.3411    1.5901 C   0  0  0  0  0  0  0  0  0  0  0  0
   16.8578   16.2927    2.3607 C   0  0  0  0  0  0  0  0  0  0  0  0
   17.5156   15.1490    2.8607 C   0  0  0  0  0  0  0  0  0  0  0  0
   18.8564   15.1714    2.5274 C   0  0  0  0  0  0  0  0  0  0  0  0
   19.7884   14.2506    2.9115 C   0  0  0  0  0  0  0  0  0  0  0  0
   20.9802   14.7244    2.4296 N   0  0  0  0  0  0  0  0  0  0  0  0
   22.3132   14.1716    2.6535 C   0  0  0  0  0  0  0  0  0  0  0  0
   22.6392   13.2875    1.6765 F   0  0  0  0  0  0  0  0  0  0  0  0
   22.3865   13.5121    3.8329 F   0  0  0  0  0  0  0  0  0  0  0  0
   20.8461   15.8722    1.7250 N   0  0  0  0  0  0  0  0  0  0  0  0
   19.5473   16.1882    1.8025 C   0  0  0  0  0  0  0  0  0  0  0  0
   18.8720   17.3164    1.3115 C   0  0  0  0  0  0  0  0  0  0  0  0
   12.4079   17.3708    0.6855 C   0  0  0  0  0  0  0  0  0  0  0  0
   11.2529   16.5719    0.7229 C   0  0  0  0  0  0  0  0  0  0  0  0
  1  2  1  0
  2  3  1  0
  3  4  2  0
  4  5  1  0
  5  6  2  0
  6  7  1  0
  7  8  2  0
  8  9  1  0
  9 10  2  0
 10 11  1  0
 11 12  1  0
 12 13  1  0
 13 14  1  1
 13 15  1  0
 15 16  1  0
 16 17  2  0
 17 18  1  0
 18 19  2  0
 19 20  1  0
 20 21  1  0
 21 22  1  0
 21 23  1  0
 20 24  1  0
 24 25  2  0
 25 26  1  0
 10 27  1  0
 27 28  2  0
  6  2  1  0
 28  7  1  0
 26 15  2  0
 25 18  1  0
M  END
>  <energy_score>  (4029) 
-40.587336

>  <inchikey>  (4029) 
JYOSNIZMEZSZEB-UHFFFAOYSA-N

>  <smiles>  (4029) 
Cn1nccc1-c1ccc(CNC(O)c2ccc3cn(C(F)F)nc3c2)cc1

>  <ref_pdb>  (4029) 
A0514b

>  <alias>  (4029) 
JYOSNIZMEZSZEB-UHFFFAOYSA-N-P9-P9-P76-601504

>  <HIPPO Pose ID>  (4029) 
507604

>  <name>  (4029) 
JYOSNIZMEZSZEB-UHFFFAOYSA-N-P9-P9-P76-601504

>  <HIPPO Compound ID>  (4029) 
289766

>  <ref_mols>  (4029) 
A0486a,A0717a

>  <distance_score>  (4029) 
1.881281

>  <inspiration_score>  (4029) 
None

$$$$
JYOSNIZMEZSZEB-UHFFFAOYSA-N-P76-P9-P76-601504
     RDKit          3D

 28 31  0  0  0  0  0  0  0  0999 V2000
    9.5651   14.5229   -0.4089 C   0  0  0  0  0  0  0  0  0  0  0  0
    9.1109   14.2713    0.9397 N   0  0  0  0  0  0  0  0  0  0  0  0
    8.1663   13.3319    1.1274 N   0  0  0  0  0  0  0  0  0  0  0  0
    7.9050   13.3989    2.4321 C   0  0  0  0  0  0  0  0  0  0  0  0
    8.6789   14.3786    3.0775 C   0  0  0  0  0  0  0  0  0  0  0  0
    9.5339   14.8717    2.1047 C   0  0  0  0  0  0  0  0  0  0  0  0
   10.7446   15.6847    2.2340 C   0  0  0  0  0  0  0  0  0  0  0  0
   10.7769   16.8933    2.9336 C   0  0  0  0  0  0  0  0  0  0  0  0
   12.0009   17.5505    3.1729 C   0  0  0  0  0  0  0  0  0  0  0  0
   13.2179   17.0002    2.7383 C   0  0  0  0  0  0  0  0  0  0  0  0
   14.5593   17.6378    3.0627 C   0  0  0  0  0  0  0  0  0  0  0  0
   15.0923   18.3987    1.9323 N   0  0  0  0  0  0  0  0  0  0  0  0
   16.5317   18.6362    1.9907 C   0  0  1  0  0  0  0  0  0  0  0  0
   16.7967   19.3773    3.1623 O   0  0  0  0  0  0  0  0  0  0  0  0
   17.4511   17.4117    1.8945 C   0  0  0  0  0  0  0  0  0  0  0  0
   17.0434   16.2727    1.1105 C   0  0  0  0  0  0  0  0  0  0  0  0
   17.7615   15.0640    0.9869 C   0  0  0  0  0  0  0  0  0  0  0  0
   18.9618   15.1358    1.6668 C   0  0  0  0  0  0  0  0  0  0  0  0
   19.9123   14.1555    1.7160 C   0  0  0  0  0  0  0  0  0  0  0  0
   20.9401   14.6988    2.4407 N   0  0  0  0  0  0  0  0  0  0  0  0
   22.2209   14.0693    2.7466 C   0  0  0  0  0  0  0  0  0  0  0  0
   22.6722   13.3479    1.6848 F   0  0  0  0  0  0  0  0  0  0  0  0
   22.0975   13.2113    3.7853 F   0  0  0  0  0  0  0  0  0  0  0  0
   20.6875   15.9628    2.8551 N   0  0  0  0  0  0  0  0  0  0  0  0
   19.4639   16.2516    2.4008 C   0  0  0  0  0  0  0  0  0  0  0  0
   18.7186   17.4314    2.5394 C   0  0  0  0  0  0  0  0  0  0  0  0
   13.1784   15.8029    2.0152 C   0  0  0  0  0  0  0  0  0  0  0  0
   11.9623   15.1609    1.7639 C   0  0  0  0  0  0  0  0  0  0  0  0
  1  2  1  0
  2  3  1  0
  3  4  2  0
  4  5  1  0
  5  6  2  0
  6  7  1  0
  7  8  2  0
  8  9  1  0
  9 10  2  0
 10 11  1  0
 11 12  1  0
 12 13  1  0
 13 14  1  1
 13 15  1  0
 15 16  1  0
 16 17  2  0
 17 18  1  0
 18 19  2  0
 19 20  1  0
 20 21  1  0
 21 22  1  0
 21 23  1  0
 20 24  1  0
 24 25  2  0
 25 26  1  0
 10 27  1  0
 27 28  2  0
  6  2  1  0
 28  7  1  0
 26 15  2  0
 25 18  1  0
M  END
>  <energy_score>  (4030) 
-46.919375

>  <inchikey>  (4030) 
JYOSNIZMEZSZEB-UHFFFAOYSA-N

>  <smiles>  (4030) 
Cn1nccc1-c1ccc(CNC(O)c2ccc3cn(C(F)F)nc3c2)cc1

>  <ref_pdb>  (4030) 
A0514b

>  <alias>  (4030) 
JYOSNIZMEZSZEB-UHFFFAOYSA-N-P76-P9-P76-601504

>  <HIPPO Pose ID>  (4030) 
507605

>  <name>  (4030) 
JYOSNIZMEZSZEB-UHFFFAOYSA-N-P76-P9-P76-601504

>  <HIPPO Compound ID>  (4030) 
289766

>  <ref_mols>  (4030) 
A0486a,A0717a

>  <distance_score>  (4030) 
1.78201

>  <inspiration_score>  (4030) 
None

$$$$
DUDBYDKFJCOGDI-UHFFFAOYSA-N-P9-P9-P76-601504
     RDKit          3D

 28 31  0  0  0  0  0  0  0  0999 V2000
   22.6380   14.0738    1.7020 C   0  0  0  0  0  0  0  0  0  0  0  0
   21.6266   14.5559    2.7327 C   0  0  0  0  0  0  0  0  0  0  0  0
   20.2500   14.4036    2.2979 N   0  0  0  0  0  0  0  0  0  0  0  0
   19.8192   13.1554    2.0098 N   0  0  0  0  0  0  0  0  0  0  0  0
   18.6991   13.3569    1.3281 C   0  0  0  0  0  0  0  0  0  0  0  0
   18.3119   14.7028    1.3356 C   0  0  0  0  0  0  0  0  0  0  0  0
   17.2427   15.4143    0.7907 C   0  0  0  0  0  0  0  0  0  0  0  0
   17.0289   16.7149    1.2232 C   0  0  0  0  0  0  0  0  0  0  0  0
   17.8238   17.2840    2.2213 C   0  0  0  0  0  0  0  0  0  0  0  0
   17.2009   18.4158    3.0728 C   0  0  1  0  0  0  0  0  0  0  0  0
   15.8099   18.0900    3.4787 N   0  0  0  0  0  0  0  0  0  0  0  0
   14.7616   18.7546    2.7000 C   0  0  0  0  0  0  0  0  0  0  0  0
   13.4680   17.9444    2.5932 C   0  0  0  0  0  0  0  0  0  0  0  0
   12.5153   17.9004    3.6242 C   0  0  0  0  0  0  0  0  0  0  0  0
   11.3237   17.1411    3.5007 C   0  0  0  0  0  0  0  0  0  0  0  0
   11.0595   16.3812    2.3497 C   0  0  0  0  0  0  0  0  0  0  0  0
    9.9435   15.4142    2.2529 C   0  0  0  0  0  0  0  0  0  0  0  0
    8.7710   15.2891    3.0507 C   0  0  0  0  0  0  0  0  0  0  0  0
    8.1720   14.1132    2.6588 C   0  0  0  0  0  0  0  0  0  0  0  0
    8.9546   13.6117    1.6684 N   0  0  0  0  0  0  0  0  0  0  0  0
    8.7580   12.3761    0.9497 C   0  0  0  0  0  0  0  0  0  0  0  0
   10.0260   14.3763    1.3992 N   0  0  0  0  0  0  0  0  0  0  0  0
   12.0057   16.4524    1.3137 C   0  0  0  0  0  0  0  0  0  0  0  0
   13.1799   17.2190    1.4289 C   0  0  0  0  0  0  0  0  0  0  0  0
   17.9965   18.5014    4.2569 O   0  0  0  0  0  0  0  0  0  0  0  0
   17.8334   19.7296    4.9504 C   0  0  0  0  0  0  0  0  0  0  0  0
   19.0852   16.6965    2.5055 C   0  0  0  0  0  0  0  0  0  0  0  0
   19.2738   15.3605    2.1001 C   0  0  0  0  0  0  0  0  0  0  0  0
  1  2  1  0
  2  3  1  0
  3  4  1  0
  4  5  2  0
  5  6  1  0
  6  7  2  0
  7  8  1  0
  8  9  2  0
  9 10  1  0
 10 11  1  1
 11 12  1  0
 12 13  1  0
 13 14  2  0
 14 15  1  0
 15 16  2  0
 16 17  1  0
 17 18  1  0
 18 19  2  0
 19 20  1  0
 20 21  1  0
 20 22  1  0
 16 23  1  0
 23 24  2  0
 10 25  1  0
 25 26  1  0
  9 27  1  0
 27 28  2  0
 28  3  1  0
 28  6  1  0
 24 13  1  0
 22 17  2  0
M  END
>  <energy_score>  (4031) 
-17.877518

>  <inchikey>  (4031) 
DUDBYDKFJCOGDI-UHFFFAOYSA-N

>  <smiles>  (4031) 
CCn1ncc2ccc(C(NCc3ccc(-c4ccn(C)n4)cc3)OC)cc21

>  <ref_pdb>  (4031) 
A0514b

>  <alias>  (4031) 
DUDBYDKFJCOGDI-UHFFFAOYSA-N-P9-P9-P76-601504

>  <HIPPO Pose ID>  (4031) 
507606

>  <name>  (4031) 
DUDBYDKFJCOGDI-UHFFFAOYSA-N-P9-P9-P76-601504

>  <HIPPO Compound ID>  (4031) 
289767

>  <ref_mols>  (4031) 
A0486a,A0717a

>  <distance_score>  (4031) 
1.814265

>  <inspiration_score>  (4031) 
None

$$$$
DUDBYDKFJCOGDI-UHFFFAOYSA-N-P76-P9-P76-601504
     RDKit          3D

 28 31  0  0  0  0  0  0  0  0999 V2000
   22.7022   13.9529    1.7970 C   0  0  0  0  0  0  0  0  0  0  0  0
   21.6783   14.4337    2.8164 C   0  0  0  0  0  0  0  0  0  0  0  0
   20.3098   14.3083    2.3508 N   0  0  0  0  0  0  0  0  0  0  0  0
   19.8858   13.0787    1.9868 N   0  0  0  0  0  0  0  0  0  0  0  0
   18.7862   13.3229    1.2845 C   0  0  0  0  0  0  0  0  0  0  0  0
   18.4026   14.6702    1.3506 C   0  0  0  0  0  0  0  0  0  0  0  0
   17.3559   15.4205    0.8102 C   0  0  0  0  0  0  0  0  0  0  0  0
   17.1355   16.6991    1.3039 C   0  0  0  0  0  0  0  0  0  0  0  0
   17.8990   17.2044    2.3597 C   0  0  0  0  0  0  0  0  0  0  0  0
   17.2521   18.2897    3.2540 C   0  0  1  0  0  0  0  0  0  0  0  0
   15.8656   17.9160    3.6386 N   0  0  0  0  0  0  0  0  0  0  0  0
   14.8126   18.6188    2.8995 C   0  0  0  0  0  0  0  0  0  0  0  0
   13.5164   17.8178    2.7718 C   0  0  0  0  0  0  0  0  0  0  0  0
   13.2786   17.0350    1.6344 C   0  0  0  0  0  0  0  0  0  0  0  0
   12.0994   16.2812    1.4969 C   0  0  0  0  0  0  0  0  0  0  0  0
   11.0989   16.2750    2.4840 C   0  0  0  0  0  0  0  0  0  0  0  0
    9.9777   15.3142    2.3773 C   0  0  0  0  0  0  0  0  0  0  0  0
    8.8363   15.1473    3.2118 C   0  0  0  0  0  0  0  0  0  0  0  0
    8.2198   13.9940    2.7822 C   0  0  0  0  0  0  0  0  0  0  0  0
    8.9640   13.5446    1.7391 N   0  0  0  0  0  0  0  0  0  0  0  0
    8.7458   12.3415    0.9735 C   0  0  0  0  0  0  0  0  0  0  0  0
   10.0173   14.3295    1.4593 N   0  0  0  0  0  0  0  0  0  0  0  0
   11.3156   17.0914    3.6059 C   0  0  0  0  0  0  0  0  0  0  0  0
   12.5119   17.8393    3.7531 C   0  0  0  0  0  0  0  0  0  0  0  0
   18.0401   18.3528    4.4438 O   0  0  0  0  0  0  0  0  0  0  0  0
   17.8506   19.5552    5.1747 C   0  0  0  0  0  0  0  0  0  0  0  0
   19.1447   16.5904    2.6556 C   0  0  0  0  0  0  0  0  0  0  0  0
   19.3418   15.2789    2.1808 C   0  0  0  0  0  0  0  0  0  0  0  0
  1  2  1  0
  2  3  1  0
  3  4  1  0
  4  5  2  0
  5  6  1  0
  6  7  2  0
  7  8  1  0
  8  9  2  0
  9 10  1  0
 10 11  1  1
 11 12  1  0
 12 13  1  0
 13 14  2  0
 14 15  1  0
 15 16  2  0
 16 17  1  0
 17 18  1  0
 18 19  2  0
 19 20  1  0
 20 21  1  0
 20 22  1  0
 16 23  1  0
 23 24  2  0
 10 25  1  0
 25 26  1  0
  9 27  1  0
 27 28  2  0
 28  3  1  0
 28  6  1  0
 24 13  1  0
 22 17  2  0
M  END
>  <energy_score>  (4032) 
-17.982563

>  <inchikey>  (4032) 
DUDBYDKFJCOGDI-UHFFFAOYSA-N

>  <smiles>  (4032) 
CCn1ncc2ccc(C(NCc3ccc(-c4ccn(C)n4)cc3)OC)cc21

>  <ref_pdb>  (4032) 
A0514b

>  <alias>  (4032) 
DUDBYDKFJCOGDI-UHFFFAOYSA-N-P76-P9-P76-601504

>  <HIPPO Pose ID>  (4032) 
507607

>  <name>  (4032) 
DUDBYDKFJCOGDI-UHFFFAOYSA-N-P76-P9-P76-601504

>  <HIPPO Compound ID>  (4032) 
289767

>  <ref_mols>  (4032) 
A0486a,A0717a

>  <distance_score>  (4032) 
1.859636

>  <inspiration_score>  (4032) 
None

$$$$
XLDXDMPLOLSHOF-UHFFFAOYSA-N-P9-P9-P76-601504
     RDKit          3D

 28 31  0  0  0  0  0  0  0  0999 V2000
   22.5385   14.1439    1.6027 C   0  0  0  0  0  0  0  0  0  0  0  0
   21.6397   14.6595    2.7180 C   0  0  0  0  0  0  0  0  0  0  0  0
   20.2270   14.4677    2.4432 N   0  0  0  0  0  0  0  0  0  0  0  0
   19.7838   13.1945    2.3472 N   0  0  0  0  0  0  0  0  0  0  0  0
   18.6409   13.3096    1.6848 C   0  0  0  0  0  0  0  0  0  0  0  0
   18.2601   14.6471    1.5258 C   0  0  0  0  0  0  0  0  0  0  0  0
   17.1720   15.2707    0.9193 C   0  0  0  0  0  0  0  0  0  0  0  0
   16.9777   16.6185    1.1581 C   0  0  0  0  0  0  0  0  0  0  0  0
   17.8097   17.3345    2.0334 C   0  0  0  0  0  0  0  0  0  0  0  0
   17.1764   18.6095    2.6208 C   0  0  2  0  0  0  0  0  0  0  0  0
   15.8670   18.2084    3.1647 N   0  0  0  0  0  0  0  0  0  0  0  0
   14.7290   19.1074    3.0856 C   0  0  0  0  0  0  0  0  0  0  0  0
   13.4330   18.3152    2.8864 C   0  0  0  0  0  0  0  0  0  0  0  0
   12.5994   17.9377    3.9474 C   0  0  0  0  0  0  0  0  0  0  0  0
   11.4568   17.1299    3.7310 C   0  0  0  0  0  0  0  0  0  0  0  0
   11.1210   16.6490    2.4528 C   0  0  0  0  0  0  0  0  0  0  0  0
   10.0710   15.6185    2.2584 C   0  0  0  0  0  0  0  0  0  0  0  0
    8.8810   15.3975    2.9418 C   0  0  0  0  0  0  0  0  0  0  0  0
    8.3569   14.1921    2.4413 C   0  0  0  0  0  0  0  0  0  0  0  0
    9.1312   13.6700    1.4964 N   0  0  0  0  0  0  0  0  0  0  0  0
   10.1680   14.5241    1.4079 N   0  0  0  0  0  0  0  0  0  0  0  0
   11.2721   14.1320    0.5586 C   0  0  0  0  0  0  0  0  0  0  0  0
   11.9066   17.1132    1.3876 C   0  0  0  0  0  0  0  0  0  0  0  0
   13.0477   17.9128    1.5996 C   0  0  0  0  0  0  0  0  0  0  0  0
   17.0406   19.5793    1.5889 O   0  0  0  0  0  0  0  0  0  0  0  0
   18.2293   20.3280    1.3773 C   0  0  0  0  0  0  0  0  0  0  0  0
   19.0500   16.7792    2.4375 C   0  0  0  0  0  0  0  0  0  0  0  0
   19.2374   15.3992    2.1826 C   0  0  0  0  0  0  0  0  0  0  0  0
  1  2  1  0
  2  3  1  0
  3  4  1  0
  4  5  2  0
  5  6  1  0
  6  7  2  0
  7  8  1  0
  8  9  2  0
  9 10  1  0
 10 11  1  6
 11 12  1  0
 12 13  1  0
 13 14  2  0
 14 15  1  0
 15 16  2  0
 16 17  1  0
 17 18  2  0
 18 19  1  0
 19 20  2  0
 20 21  1  0
 21 22  1  0
 16 23  1  0
 23 24  2  0
 10 25  1  0
 25 26  1  0
  9 27  1  0
 27 28  2  0
 28  3  1  0
 28  6  1  0
 24 13  1  0
 21 17  1  0
M  END
>  <energy_score>  (4033) 
-25.39354

>  <inchikey>  (4033) 
XLDXDMPLOLSHOF-UHFFFAOYSA-N

>  <smiles>  (4033) 
CCn1ncc2ccc(C(NCc3ccc(-c4ccnn4C)cc3)OC)cc21

>  <ref_pdb>  (4033) 
A0514b

>  <alias>  (4033) 
XLDXDMPLOLSHOF-UHFFFAOYSA-N-P9-P9-P76-601504

>  <HIPPO Pose ID>  (4033) 
507608

>  <name>  (4033) 
XLDXDMPLOLSHOF-UHFFFAOYSA-N-P9-P9-P76-601504

>  <HIPPO Compound ID>  (4033) 
289768

>  <ref_mols>  (4033) 
A0486a,A0717a

>  <distance_score>  (4033) 
1.761677

>  <inspiration_score>  (4033) 
None

$$$$
XLDXDMPLOLSHOF-UHFFFAOYSA-N-P76-P9-P76-601504
     RDKit          3D

 28 31  0  0  0  0  0  0  0  0999 V2000
   22.5817   14.0616    1.6483 C   0  0  0  0  0  0  0  0  0  0  0  0
   21.7177   14.5741    2.7923 C   0  0  0  0  0  0  0  0  0  0  0  0
   20.2993   14.3811    2.5539 N   0  0  0  0  0  0  0  0  0  0  0  0
   19.8587   13.1079    2.4626 N   0  0  0  0  0  0  0  0  0  0  0  0
   18.7250   13.2214    1.7834 C   0  0  0  0  0  0  0  0  0  0  0  0
   18.3413   14.5603    1.6235 C   0  0  0  0  0  0  0  0  0  0  0  0
   17.2610   15.1883    1.0056 C   0  0  0  0  0  0  0  0  0  0  0  0
   17.0608   16.5349    1.2519 C   0  0  0  0  0  0  0  0  0  0  0  0
   17.8774   17.2444    2.1476 C   0  0  0  0  0  0  0  0  0  0  0  0
   17.2320   18.5103    2.7428 C   0  0  2  0  0  0  0  0  0  0  0  0
   15.9230   18.0935    3.2734 N   0  0  0  0  0  0  0  0  0  0  0  0
   14.7986   19.0128    3.2649 C   0  0  0  0  0  0  0  0  0  0  0  0
   13.4895   18.2462    3.0540 C   0  0  0  0  0  0  0  0  0  0  0  0
   12.6255   17.9032    4.1020 C   0  0  0  0  0  0  0  0  0  0  0  0
   11.4742   17.1111    3.8720 C   0  0  0  0  0  0  0  0  0  0  0  0
   11.1623   16.6056    2.5963 C   0  0  0  0  0  0  0  0  0  0  0  0
   10.1101   15.5752    2.4005 C   0  0  0  0  0  0  0  0  0  0  0  0
    8.9372   15.3369    3.1077 C   0  0  0  0  0  0  0  0  0  0  0  0
    8.3906   14.1530    2.5815 C   0  0  0  0  0  0  0  0  0  0  0  0
    9.1333   13.6597    1.5970 N   0  0  0  0  0  0  0  0  0  0  0  0
   10.1815   14.5017    1.5202 N   0  0  0  0  0  0  0  0  0  0  0  0
   11.2663   14.1147    0.6444 C   0  0  0  0  0  0  0  0  0  0  0  0
   11.9740   17.0474    1.5415 C   0  0  0  0  0  0  0  0  0  0  0  0
   13.1219   17.8338    1.7654 C   0  0  0  0  0  0  0  0  0  0  0  0
   17.0902   19.4862    1.7176 O   0  0  0  0  0  0  0  0  0  0  0  0
   18.2740   20.2441    1.5120 C   0  0  0  0  0  0  0  0  0  0  0  0
   19.1114   16.6869    2.5682 C   0  0  0  0  0  0  0  0  0  0  0  0
   19.3071   15.3109    2.2987 C   0  0  0  0  0  0  0  0  0  0  0  0
  1  2  1  0
  2  3  1  0
  3  4  1  0
  4  5  2  0
  5  6  1  0
  6  7  2  0
  7  8  1  0
  8  9  2  0
  9 10  1  0
 10 11  1  6
 11 12  1  0
 12 13  1  0
 13 14  2  0
 14 15  1  0
 15 16  2  0
 16 17  1  0
 17 18  2  0
 18 19  1  0
 19 20  2  0
 20 21  1  0
 21 22  1  0
 16 23  1  0
 23 24  2  0
 10 25  1  0
 25 26  1  0
  9 27  1  0
 27 28  2  0
 28  3  1  0
 28  6  1  0
 24 13  1  0
 21 17  1  0
M  END
>  <energy_score>  (4034) 
-24.921233

>  <inchikey>  (4034) 
XLDXDMPLOLSHOF-UHFFFAOYSA-N

>  <smiles>  (4034) 
CCn1ncc2ccc(C(NCc3ccc(-c4ccnn4C)cc3)OC)cc21

>  <ref_pdb>  (4034) 
A0514b

>  <alias>  (4034) 
XLDXDMPLOLSHOF-UHFFFAOYSA-N-P76-P9-P76-601504

>  <HIPPO Pose ID>  (4034) 
507609

>  <name>  (4034) 
XLDXDMPLOLSHOF-UHFFFAOYSA-N-P76-P9-P76-601504

>  <HIPPO Compound ID>  (4034) 
289768

>  <ref_mols>  (4034) 
A0486a,A0717a

>  <distance_score>  (4034) 
1.719234

>  <inspiration_score>  (4034) 
None

$$$$
HSWLALQSLJLUHF-UHFFFAOYSA-N-P9-P9-P76-601504
     RDKit          3D

 29 32  0  0  0  0  0  0  0  0999 V2000
   10.4610   13.4374    0.5298 C   0  0  0  0  0  0  0  0  0  0  0  0
    9.3113   13.7546    1.3486 N   0  0  0  0  0  0  0  0  0  0  0  0
    8.3629   12.8063    1.4398 N   0  0  0  0  0  0  0  0  0  0  0  0
    7.5407   13.2572    2.3798 C   0  0  0  0  0  0  0  0  0  0  0  0
    7.9181   14.5269    2.8431 C   0  0  0  0  0  0  0  0  0  0  0  0
    9.0706   14.8647    2.1475 C   0  0  0  0  0  0  0  0  0  0  0  0
    9.9908   15.9998    2.3398 C   0  0  0  0  0  0  0  0  0  0  0  0
   10.8908   16.3941    1.3434 C   0  0  0  0  0  0  0  0  0  0  0  0
   12.0459   17.1139    1.6636 C   0  0  0  0  0  0  0  0  0  0  0  0
   12.3063   17.4818    2.9860 C   0  0  0  0  0  0  0  0  0  0  0  0
   13.6468   18.0434    3.4113 C   0  0  0  0  0  0  0  0  0  0  0  0
   14.7738   17.3535    2.7601 N   0  0  0  0  0  0  0  0  0  0  0  0
   15.9519   17.2927    3.6060 C   0  0  2  0  0  0  0  0  0  0  0  0
   16.1464   18.5324    4.2693 O   0  0  0  0  0  0  0  0  0  0  0  0
   17.2274   16.9546    2.8268 C   0  0  0  0  0  0  0  0  0  0  0  0
   17.8021   17.9795    1.9979 C   0  0  0  0  0  0  0  0  0  0  0  0
   19.0346   17.8586    1.3477 C   0  0  0  0  0  0  0  0  0  0  0  0
   19.6296   16.6442    1.6360 C   0  0  0  0  0  0  0  0  0  0  0  0
   20.8990   16.3218    1.2736 C   0  0  0  0  0  0  0  0  0  0  0  0
   21.1439   15.1140    1.8647 N   0  0  0  0  0  0  0  0  0  0  0  0
   22.4233   14.3815    1.8245 C   0  0  0  0  0  0  0  0  0  0  0  0
   22.3105   13.2750    0.7787 C   0  0  0  0  0  0  0  0  0  0  0  0
   22.7747   13.8217    3.1983 C   0  0  0  0  0  0  0  0  0  0  0  0
   23.6184   15.2804    1.4105 C   0  0  0  0  0  0  0  0  0  0  0  0
   20.0348   14.5780    2.4620 N   0  0  0  0  0  0  0  0  0  0  0  0
   19.1118   15.5569    2.4058 C   0  0  0  0  0  0  0  0  0  0  0  0
   17.8435   15.6754    2.9957 C   0  0  0  0  0  0  0  0  0  0  0  0
   11.2867   17.3037    3.9316 C   0  0  0  0  0  0  0  0  0  0  0  0
   10.1292   16.5850    3.6052 C   0  0  0  0  0  0  0  0  0  0  0  0
  1  2  1  0
  2  3  1  0
  3  4  2  0
  4  5  1  0
  5  6  2  0
  6  7  1  0
  7  8  2  0
  8  9  1  0
  9 10  2  0
 10 11  1  0
 11 12  1  0
 12 13  1  0
 13 14  1  6
 13 15  1  0
 15 16  1  0
 16 17  2  0
 17 18  1  0
 18 19  2  0
 19 20  1  0
 20 21  1  0
 21 22  1  0
 21 23  1  0
 21 24  1  0
 20 25  1  0
 25 26  2  0
 26 27  1  0
 10 28  1  0
 28 29  2  0
  6  2  1  0
 29  7  1  0
 27 15  2  0
 26 18  1  0
M  END
>  <energy_score>  (4035) 
-35.879859

>  <inchikey>  (4035) 
HSWLALQSLJLUHF-UHFFFAOYSA-N

>  <smiles>  (4035) 
Cn1nccc1-c1ccc(CNC(O)c2ccc3cn(C(C)(C)C)nc3c2)cc1

>  <ref_pdb>  (4035) 
A0514b

>  <alias>  (4035) 
HSWLALQSLJLUHF-UHFFFAOYSA-N-P9-P9-P76-601504

>  <HIPPO Pose ID>  (4035) 
507610

>  <name>  (4035) 
HSWLALQSLJLUHF-UHFFFAOYSA-N-P9-P9-P76-601504

>  <HIPPO Compound ID>  (4035) 
289769

>  <ref_mols>  (4035) 
A0486a,A0717a

>  <distance_score>  (4035) 
1.777893

>  <inspiration_score>  (4035) 
None

$$$$
HSWLALQSLJLUHF-UHFFFAOYSA-N-P76-P9-P76-601504
     RDKit          3D

 29 32  0  0  0  0  0  0  0  0999 V2000
    8.8133   14.3610   -0.3909 C   0  0  0  0  0  0  0  0  0  0  0  0
    8.5925   14.0106    0.9939 N   0  0  0  0  0  0  0  0  0  0  0  0
    7.7332   13.0136    1.2641 N   0  0  0  0  0  0  0  0  0  0  0  0
    7.6546   13.0085    2.5934 C   0  0  0  0  0  0  0  0  0  0  0  0
    8.4666   13.9965    3.1738 C   0  0  0  0  0  0  0  0  0  0  0  0
    9.1558   14.5701    2.1187 C   0  0  0  0  0  0  0  0  0  0  0  0
   10.3284   15.4391    2.1173 C   0  0  0  0  0  0  0  0  0  0  0  0
   10.4150   16.5839    2.9109 C   0  0  0  0  0  0  0  0  0  0  0  0
   11.6196   17.3015    2.9857 C   0  0  0  0  0  0  0  0  0  0  0  0
   12.7529   16.8919    2.2609 C   0  0  0  0  0  0  0  0  0  0  0  0
   14.0816   17.6046    2.4072 C   0  0  0  0  0  0  0  0  0  0  0  0
   14.8159   17.1773    3.6060 N   0  0  0  0  0  0  0  0  0  0  0  0
   15.5648   15.9495    3.4108 C   0  0  2  0  0  0  0  0  0  0  0  0
   15.5538   15.3301    4.6878 O   0  0  0  0  0  0  0  0  0  0  0  0
   17.0256   16.1029    2.9685 C   0  0  0  0  0  0  0  0  0  0  0  0
   17.5794   17.3711    2.5854 C   0  0  0  0  0  0  0  0  0  0  0  0
   18.9189   17.5594    2.2019 C   0  0  0  0  0  0  0  0  0  0  0  0
   19.6306   16.3706    2.2517 C   0  0  0  0  0  0  0  0  0  0  0  0
   20.9633   16.2488    1.9986 C   0  0  0  0  0  0  0  0  0  0  0  0
   21.2493   14.9223    2.1908 N   0  0  0  0  0  0  0  0  0  0  0  0
   22.5507   14.2576    1.9957 C   0  0  0  0  0  0  0  0  0  0  0  0
   22.4071   13.1795    0.9161 C   0  0  0  0  0  0  0  0  0  0  0  0
   23.0440   13.6419    3.3054 C   0  0  0  0  0  0  0  0  0  0  0  0
   23.6545   15.2286    1.5074 C   0  0  0  0  0  0  0  0  0  0  0  0
   20.1568   14.1880    2.5460 N   0  0  0  0  0  0  0  0  0  0  0  0
   19.1496   15.0723    2.6037 C   0  0  0  0  0  0  0  0  0  0  0  0
   17.8113   14.9061    2.9625 C   0  0  0  0  0  0  0  0  0  0  0  0
   12.6527   15.7639    1.4443 C   0  0  0  0  0  0  0  0  0  0  0  0
   11.4615   15.0422    1.3863 C   0  0  0  0  0  0  0  0  0  0  0  0
  1  2  1  0
  2  3  1  0
  3  4  2  0
  4  5  1  0
  5  6  2  0
  6  7  1  0
  7  8  2  0
  8  9  1  0
  9 10  2  0
 10 11  1  0
 11 12  1  0
 12 13  1  0
 13 14  1  1
 13 15  1  0
 15 16  1  0
 16 17  2  0
 17 18  1  0
 18 19  2  0
 19 20  1  0
 20 21  1  0
 21 22  1  0
 21 23  1  0
 21 24  1  0
 20 25  1  0
 25 26  2  0
 26 27  1  0
 10 28  1  0
 28 29  2  0
  6  2  1  0
 29  7  1  0
 27 15  2  0
 26 18  1  0
M  END
>  <energy_score>  (4036) 
-46.77952

>  <inchikey>  (4036) 
HSWLALQSLJLUHF-UHFFFAOYSA-N

>  <smiles>  (4036) 
Cn1nccc1-c1ccc(CNC(O)c2ccc3cn(C(C)(C)C)nc3c2)cc1

>  <ref_pdb>  (4036) 
A0514b

>  <alias>  (4036) 
HSWLALQSLJLUHF-UHFFFAOYSA-N-P76-P9-P76-601504

>  <HIPPO Pose ID>  (4036) 
507611

>  <name>  (4036) 
HSWLALQSLJLUHF-UHFFFAOYSA-N-P76-P9-P76-601504

>  <HIPPO Compound ID>  (4036) 
289769

>  <ref_mols>  (4036) 
A0486a,A0717a

>  <distance_score>  (4036) 
1.735969

>  <inspiration_score>  (4036) 
None

$$$$
RGKXBNXITOBCMI-UHFFFAOYSA-N-P9-P9-P76-601504
     RDKit          3D

 29 32  0  0  0  0  0  0  0  0999 V2000
    8.1356   11.3835    1.2814 C   0  0  0  0  0  0  0  0  0  0  0  0
    8.3154   12.7107    1.8177 N   0  0  0  0  0  0  0  0  0  0  0  0
    7.6130   13.2863    2.8289 C   0  0  0  0  0  0  0  0  0  0  0  0
    8.1849   14.5214    3.0272 C   0  0  0  0  0  0  0  0  0  0  0  0
    9.2529   14.6024    2.0933 C   0  0  0  0  0  0  0  0  0  0  0  0
   10.3304   15.5946    1.9852 C   0  0  0  0  0  0  0  0  0  0  0  0
   11.3976   15.3398    1.1028 C   0  0  0  0  0  0  0  0  0  0  0  0
   12.5709   16.0949    1.1352 C   0  0  0  0  0  0  0  0  0  0  0  0
   12.7109   17.1347    2.0549 C   0  0  0  0  0  0  0  0  0  0  0  0
   14.0383   17.8510    2.1918 C   0  0  0  0  0  0  0  0  0  0  0  0
   14.7778   17.4404    3.3936 N   0  0  0  0  0  0  0  0  0  0  0  0
   15.4976   16.1898    3.2335 C   0  0  2  0  0  0  0  0  0  0  0  0
   15.4667   15.6081    4.5283 O   0  0  0  0  0  0  0  0  0  0  0  0
   16.9682   16.3070    2.8067 C   0  0  0  0  0  0  0  0  0  0  0  0
   17.5468   17.5724    2.4533 C   0  0  0  0  0  0  0  0  0  0  0  0
   18.8913   17.7476    2.0906 C   0  0  0  0  0  0  0  0  0  0  0  0
   19.5831   16.5486    2.1257 C   0  0  0  0  0  0  0  0  0  0  0  0
   20.9154   16.4231    1.8804 C   0  0  0  0  0  0  0  0  0  0  0  0
   21.1890   15.0928    2.0452 N   0  0  0  0  0  0  0  0  0  0  0  0
   22.4933   14.4343    1.8476 C   0  0  0  0  0  0  0  0  0  0  0  0
   22.3559   13.3592    0.7663 C   0  0  0  0  0  0  0  0  0  0  0  0
   23.5954   15.4078    1.3556 C   0  0  0  0  0  0  0  0  0  0  0  0
   22.9857   13.8355    3.1614 C   0  0  0  0  0  0  0  0  0  0  0  0
   20.0880   14.3566    2.3837 N   0  0  0  0  0  0  0  0  0  0  0  0
   19.0848   15.2486    2.4501 C   0  0  0  0  0  0  0  0  0  0  0  0
   17.7375   15.0968    2.7933 C   0  0  0  0  0  0  0  0  0  0  0  0
   11.6199   17.4505    2.8836 C   0  0  0  0  0  0  0  0  0  0  0  0
   10.4373   16.6929    2.8453 C   0  0  0  0  0  0  0  0  0  0  0  0
    9.2785   13.5001    1.3257 N   0  0  0  0  0  0  0  0  0  0  0  0
  1  2  1  0
  2  3  1  0
  3  4  2  0
  4  5  1  0
  5  6  1  0
  6  7  2  0
  7  8  1  0
  8  9  2  0
  9 10  1  0
 10 11  1  0
 11 12  1  0
 12 13  1  1
 12 14  1  0
 14 15  1  0
 15 16  2  0
 16 17  1  0
 17 18  2  0
 18 19  1  0
 19 20  1  0
 20 21  1  0
 20 22  1  0
 20 23  1  0
 19 24  1  0
 24 25  2  0
 25 26  1  0
  9 27  1  0
 27 28  2  0
  5 29  2  0
 29  2  1  0
 28  6  1  0
 26 14  2  0
 25 17  1  0
M  END
>  <energy_score>  (4037) 
-42.326331

>  <inchikey>  (4037) 
RGKXBNXITOBCMI-UHFFFAOYSA-N

>  <smiles>  (4037) 
Cn1ccc(-c2ccc(CNC(O)c3ccc4cn(C(C)(C)C)nc4c3)cc2)n1

>  <ref_pdb>  (4037) 
A0514b

>  <alias>  (4037) 
RGKXBNXITOBCMI-UHFFFAOYSA-N-P9-P9-P76-601504

>  <HIPPO Pose ID>  (4037) 
507612

>  <name>  (4037) 
RGKXBNXITOBCMI-UHFFFAOYSA-N-P9-P9-P76-601504

>  <HIPPO Compound ID>  (4037) 
289770

>  <ref_mols>  (4037) 
A0486a,A0717a

>  <distance_score>  (4037) 
1.824351

>  <inspiration_score>  (4037) 
None

$$$$
RGKXBNXITOBCMI-UHFFFAOYSA-N-P76-P9-P76-601504
     RDKit          3D

 29 32  0  0  0  0  0  0  0  0999 V2000
    8.0390   11.5112    1.0857 C   0  0  0  0  0  0  0  0  0  0  0  0
    8.2951   12.7525    1.7746 N   0  0  0  0  0  0  0  0  0  0  0  0
    7.6873   13.2006    2.9045 C   0  0  0  0  0  0  0  0  0  0  0  0
    8.2992   14.3935    3.2107 C   0  0  0  0  0  0  0  0  0  0  0  0
    9.2931   14.5802    2.2121 C   0  0  0  0  0  0  0  0  0  0  0  0
   10.3769   15.5682    2.1495 C   0  0  0  0  0  0  0  0  0  0  0  0
   10.4927   16.6262    3.0574 C   0  0  0  0  0  0  0  0  0  0  0  0
   11.6768   17.3801    3.1201 C   0  0  0  0  0  0  0  0  0  0  0  0
   12.7595   17.1013    2.2674 C   0  0  0  0  0  0  0  0  0  0  0  0
   14.0909   17.8060    2.4258 C   0  0  0  0  0  0  0  0  0  0  0  0
   14.8473   17.3225    3.5912 N   0  0  0  0  0  0  0  0  0  0  0  0
   15.5486   16.0743    3.3461 C   0  0  2  0  0  0  0  0  0  0  0  0
   15.5092   15.4091    4.6016 O   0  0  0  0  0  0  0  0  0  0  0  0
   17.0193   16.1941    2.9214 C   0  0  0  0  0  0  0  0  0  0  0  0
   17.6005   17.4503    2.5410 C   0  0  0  0  0  0  0  0  0  0  0  0
   18.9482   17.6139    2.1765 C   0  0  0  0  0  0  0  0  0  0  0  0
   19.6388   16.4136    2.2392 C   0  0  0  0  0  0  0  0  0  0  0  0
   20.9720   16.2699    2.0010 C   0  0  0  0  0  0  0  0  0  0  0  0
   21.2333   14.9386    2.1933 N   0  0  0  0  0  0  0  0  0  0  0  0
   22.5239   14.2522    2.0003 C   0  0  0  0  0  0  0  0  0  0  0  0
   22.3637   13.1771    0.9203 C   0  0  0  0  0  0  0  0  0  0  0  0
   23.6449   15.2042    1.5132 C   0  0  0  0  0  0  0  0  0  0  0  0
   23.0048   13.6295    3.3109 C   0  0  0  0  0  0  0  0  0  0  0  0
   20.1257   14.2235    2.5433 N   0  0  0  0  0  0  0  0  0  0  0  0
   19.1315   15.1242    2.5866 C   0  0  0  0  0  0  0  0  0  0  0  0
   17.7846   14.9829    2.9269 C   0  0  0  0  0  0  0  0  0  0  0  0
   12.6095   16.1041    1.3028 C   0  0  0  0  0  0  0  0  0  0  0  0
   11.4357   15.3517    1.2475 C   0  0  0  0  0  0  0  0  0  0  0  0
    9.2314   13.5885    1.3078 N   0  0  0  0  0  0  0  0  0  0  0  0
  1  2  1  0
  2  3  1  0
  3  4  2  0
  4  5  1  0
  5  6  1  0
  6  7  2  0
  7  8  1  0
  8  9  2  0
  9 10  1  0
 10 11  1  0
 11 12  1  0
 12 13  1  1
 12 14  1  0
 14 15  1  0
 15 16  2  0
 16 17  1  0
 17 18  2  0
 18 19  1  0
 19 20  1  0
 20 21  1  0
 20 22  1  0
 20 23  1  0
 19 24  1  0
 24 25  2  0
 25 26  1  0
  9 27  1  0
 27 28  2  0
  5 29  2  0
 29  2  1  0
 28  6  1  0
 26 14  2  0
 25 17  1  0
M  END
>  <energy_score>  (4038) 
-43.007599

>  <inchikey>  (4038) 
RGKXBNXITOBCMI-UHFFFAOYSA-N

>  <smiles>  (4038) 
Cn1ccc(-c2ccc(CNC(O)c3ccc4cn(C(C)(C)C)nc4c3)cc2)n1

>  <ref_pdb>  (4038) 
A0514b

>  <alias>  (4038) 
RGKXBNXITOBCMI-UHFFFAOYSA-N-P76-P9-P76-601504

>  <HIPPO Pose ID>  (4038) 
507613

>  <name>  (4038) 
RGKXBNXITOBCMI-UHFFFAOYSA-N-P76-P9-P76-601504

>  <HIPPO Compound ID>  (4038) 
289770

>  <ref_mols>  (4038) 
A0486a,A0717a

>  <distance_score>  (4038) 
1.75766

>  <inspiration_score>  (4038) 
None

$$$$
OUKRFDSAMHKIMS-UHFFFAOYSA-N-P9-P9-P76-601504
     RDKit          3D

 32 35  0  0  0  0  0  0  0  0999 V2000
   10.2622   14.6870   -0.3017 C   0  0  0  0  0  0  0  0  0  0  0  0
    9.6451   14.5796    1.0011 N   0  0  0  0  0  0  0  0  0  0  0  0
    8.7108   13.6298    1.1817 N   0  0  0  0  0  0  0  0  0  0  0  0
    8.2276   13.8836    2.3962 C   0  0  0  0  0  0  0  0  0  0  0  0
    8.8792   14.9742    3.0041 C   0  0  0  0  0  0  0  0  0  0  0  0
    9.8957   15.3347    2.1302 C   0  0  0  0  0  0  0  0  0  0  0  0
   11.0755   16.1964    2.3200 C   0  0  0  0  0  0  0  0  0  0  0  0
   11.0166   17.4772    2.8723 C   0  0  0  0  0  0  0  0  0  0  0  0
   12.1934   18.2455    3.0595 C   0  0  0  0  0  0  0  0  0  0  0  0
   13.4679   17.7490    2.7249 C   0  0  0  0  0  0  0  0  0  0  0  0
   14.7161   18.6368    2.7799 C   0  0  0  0  0  0  0  0  0  0  0  0
   15.8370   18.0882    3.5596 N   0  0  0  0  0  0  0  0  0  0  0  0
   17.1731   18.4703    3.0638 C   0  0  1  0  0  0  0  0  0  0  0  0
   17.9369   18.6709    4.2352 O   0  0  0  0  0  0  0  0  0  0  0  0
   17.8388   17.3593    2.2411 C   0  0  0  0  0  0  0  0  0  0  0  0
   17.0655   16.7457    1.2521 C   0  0  0  0  0  0  0  0  0  0  0  0
   17.3435   15.4588    0.8168 C   0  0  0  0  0  0  0  0  0  0  0  0
   18.4791   14.8220    1.3147 C   0  0  0  0  0  0  0  0  0  0  0  0
   18.9686   13.5141    1.2610 C   0  0  0  0  0  0  0  0  0  0  0  0
   20.1459   13.3951    1.8576 N   0  0  0  0  0  0  0  0  0  0  0  0
   20.5298   14.6933    2.1022 N   0  0  0  0  0  0  0  0  0  0  0  0
   21.8997   15.0141    2.2545 C   0  0  0  0  0  0  0  0  0  0  0  0
   22.2563   16.1450    2.5479 O   0  0  0  0  0  0  0  0  0  0  0  0
   22.6587   13.9312    1.9385 O   0  0  0  0  0  0  0  0  0  0  0  0
   24.1065   13.9772    1.8645 C   0  0  0  0  0  0  0  0  0  0  0  0
   24.6927   14.0212    3.2711 C   0  0  0  0  0  0  0  0  0  0  0  0
   24.5346   12.6601    1.1955 C   0  0  0  0  0  0  0  0  0  0  0  0
   24.6043   15.1380    0.9955 C   0  0  0  0  0  0  0  0  0  0  0  0
   19.4181   15.5430    2.0505 C   0  0  0  0  0  0  0  0  0  0  0  0
   19.1357   16.8491    2.5027 C   0  0  0  0  0  0  0  0  0  0  0  0
   13.5208   16.4477    2.2122 C   0  0  0  0  0  0  0  0  0  0  0  0
   12.3526   15.6923    2.0132 C   0  0  0  0  0  0  0  0  0  0  0  0
  1  2  1  0
  2  3  1  0
  3  4  2  0
  4  5  1  0
  5  6  2  0
  6  7  1  0
  7  8  2  0
  8  9  1  0
  9 10  2  0
 10 11  1  0
 11 12  1  0
 12 13  1  0
 13 14  1  1
 13 15  1  0
 15 16  2  0
 16 17  1  0
 17 18  2  0
 18 19  1  0
 19 20  2  0
 20 21  1  0
 21 22  1  0
 22 23  2  0
 22 24  1  0
 24 25  1  0
 25 26  1  0
 25 27  1  0
 25 28  1  0
 21 29  1  0
 29 30  2  0
 10 31  1  0
 31 32  2  0
  6  2  1  0
 32  7  1  0
 30 15  1  0
 29 18  1  0
M  END
>  <energy_score>  (4039) 
-43.913272

>  <inchikey>  (4039) 
OUKRFDSAMHKIMS-UHFFFAOYSA-N

>  <smiles>  (4039) 
Cn1nccc1-c1ccc(CNC(O)c2ccc3cnn(C(=O)OC(C)(C)C)c3c2)cc1

>  <ref_pdb>  (4039) 
A0514b

>  <alias>  (4039) 
OUKRFDSAMHKIMS-UHFFFAOYSA-N-P9-P9-P76-601504

>  <HIPPO Pose ID>  (4039) 
507614

>  <name>  (4039) 
OUKRFDSAMHKIMS-UHFFFAOYSA-N-P9-P9-P76-601504

>  <HIPPO Compound ID>  (4039) 
289771

>  <ref_mols>  (4039) 
A0486a,A0717a

>  <distance_score>  (4039) 
1.645799

>  <inspiration_score>  (4039) 
None

$$$$
OUKRFDSAMHKIMS-UHFFFAOYSA-N-P76-P9-P76-601504
     RDKit          3D

 32 35  0  0  0  0  0  0  0  0999 V2000
   10.0782   14.8354   -0.2338 C   0  0  0  0  0  0  0  0  0  0  0  0
    9.5565   14.5978    1.0931 N   0  0  0  0  0  0  0  0  0  0  0  0
    8.6362   13.6288    1.2453 N   0  0  0  0  0  0  0  0  0  0  0  0
    8.2418   13.7595    2.5105 C   0  0  0  0  0  0  0  0  0  0  0  0
    8.9326   14.7918    3.1728 C   0  0  0  0  0  0  0  0  0  0  0  0
    9.8832   15.2447    2.2688 C   0  0  0  0  0  0  0  0  0  0  0  0
   11.0665   16.0997    2.4604 C   0  0  0  0  0  0  0  0  0  0  0  0
   11.0431   17.3000    3.1752 C   0  0  0  0  0  0  0  0  0  0  0  0
   12.2275   18.0509    3.3822 C   0  0  0  0  0  0  0  0  0  0  0  0
   13.4751   17.6162    2.8982 C   0  0  0  0  0  0  0  0  0  0  0  0
   14.7299   18.4889    2.9934 C   0  0  0  0  0  0  0  0  0  0  0  0
   15.8454   17.8803    3.7369 N   0  0  0  0  0  0  0  0  0  0  0  0
   17.1821   18.3111    3.2769 C   0  0  1  0  0  0  0  0  0  0  0  0
   17.9337   18.4583    4.4640 O   0  0  0  0  0  0  0  0  0  0  0  0
   17.8686   17.2566    2.3973 C   0  0  0  0  0  0  0  0  0  0  0  0
   17.1161   16.7034    1.3574 C   0  0  0  0  0  0  0  0  0  0  0  0
   17.3997   15.4394    0.8607 C   0  0  0  0  0  0  0  0  0  0  0  0
   18.5193   14.7688    1.3537 C   0  0  0  0  0  0  0  0  0  0  0  0
   19.0020   13.4591    1.2548 C   0  0  0  0  0  0  0  0  0  0  0  0
   20.1632   13.3043    1.8752 N   0  0  0  0  0  0  0  0  0  0  0  0
   20.5500   14.5884    2.1771 N   0  0  0  0  0  0  0  0  0  0  0  0
   21.9185   14.8918    2.3619 C   0  0  0  0  0  0  0  0  0  0  0  0
   22.2808   16.0099    2.6950 O   0  0  0  0  0  0  0  0  0  0  0  0
   22.6698   13.8108    2.0262 O   0  0  0  0  0  0  0  0  0  0  0  0
   24.1175   13.8377    1.9783 C   0  0  0  0  0  0  0  0  0  0  0  0
   24.6778   13.8516    3.3955 C   0  0  0  0  0  0  0  0  0  0  0  0
   24.5320   12.5234    1.2957 C   0  0  0  0  0  0  0  0  0  0  0  0
   24.6457   15.0055    1.1382 C   0  0  0  0  0  0  0  0  0  0  0  0
   19.4448   15.4468    2.1454 C   0  0  0  0  0  0  0  0  0  0  0  0
   19.1582   16.7285    2.6590 C   0  0  0  0  0  0  0  0  0  0  0  0
   13.4964   16.3931    2.2174 C   0  0  0  0  0  0  0  0  0  0  0  0
   12.3202   15.6541    2.0046 C   0  0  0  0  0  0  0  0  0  0  0  0
  1  2  1  0
  2  3  1  0
  3  4  2  0
  4  5  1  0
  5  6  2  0
  6  7  1  0
  7  8  2  0
  8  9  1  0
  9 10  2  0
 10 11  1  0
 11 12  1  0
 12 13  1  0
 13 14  1  1
 13 15  1  0
 15 16  2  0
 16 17  1  0
 17 18  2  0
 18 19  1  0
 19 20  2  0
 20 21  1  0
 21 22  1  0
 22 23  2  0
 22 24  1  0
 24 25  1  0
 25 26  1  0
 25 27  1  0
 25 28  1  0
 21 29  1  0
 29 30  2  0
 10 31  1  0
 31 32  2  0
  6  2  1  0
 32  7  1  0
 30 15  1  0
 29 18  1  0
M  END
>  <energy_score>  (4040) 
-44.097119

>  <inchikey>  (4040) 
OUKRFDSAMHKIMS-UHFFFAOYSA-N

>  <smiles>  (4040) 
Cn1nccc1-c1ccc(CNC(O)c2ccc3cnn(C(=O)OC(C)(C)C)c3c2)cc1

>  <ref_pdb>  (4040) 
A0514b

>  <alias>  (4040) 
OUKRFDSAMHKIMS-UHFFFAOYSA-N-P76-P9-P76-601504

>  <HIPPO Pose ID>  (4040) 
507615

>  <name>  (4040) 
OUKRFDSAMHKIMS-UHFFFAOYSA-N-P76-P9-P76-601504

>  <HIPPO Compound ID>  (4040) 
289771

>  <ref_mols>  (4040) 
A0486a,A0717a

>  <distance_score>  (4040) 
1.57567

>  <inspiration_score>  (4040) 
None

$$$$
HCXBJZUQXWVTDO-UHFFFAOYSA-N-P9-P9-P76-601504
     RDKit          3D

 32 35  0  0  0  0  0  0  0  0999 V2000
    8.3512   11.8719    1.7534 C   0  0  0  0  0  0  0  0  0  0  0  0
    8.8191   13.2302    1.8943 N   0  0  0  0  0  0  0  0  0  0  0  0
    8.2139   14.2361    2.5775 C   0  0  0  0  0  0  0  0  0  0  0  0
    9.0425   15.3282    2.4527 C   0  0  0  0  0  0  0  0  0  0  0  0
   10.1557   14.8837    1.6909 C   0  0  0  0  0  0  0  0  0  0  0  0
   11.3914   15.5889    1.3088 C   0  0  0  0  0  0  0  0  0  0  0  0
   12.5514   14.8363    1.0424 C   0  0  0  0  0  0  0  0  0  0  0  0
   13.7382   15.4305    0.5816 C   0  0  0  0  0  0  0  0  0  0  0  0
   13.8170   16.8106    0.3553 C   0  0  0  0  0  0  0  0  0  0  0  0
   15.0638   17.3867   -0.3159 C   0  0  0  0  0  0  0  0  0  0  0  0
   15.7022   18.4991    0.3950 N   0  0  0  0  0  0  0  0  0  0  0  0
   17.1605   18.3836    0.4923 C   0  0  1  0  0  0  0  0  0  0  0  0
   17.6112   19.5999    1.0437 O   0  0  0  0  0  0  0  0  0  0  0  0
   17.6898   17.2622    1.3814 C   0  0  0  0  0  0  0  0  0  0  0  0
   16.9081   16.8317    2.4601 C   0  0  0  0  0  0  0  0  0  0  0  0
   17.2085   15.6757    3.1624 C   0  0  0  0  0  0  0  0  0  0  0  0
   18.3626   14.9678    2.8276 C   0  0  0  0  0  0  0  0  0  0  0  0
   18.9225   13.7717    3.2768 C   0  0  0  0  0  0  0  0  0  0  0  0
   20.0825   13.5017    2.7004 N   0  0  0  0  0  0  0  0  0  0  0  0
   20.3461   14.5917    1.9037 N   0  0  0  0  0  0  0  0  0  0  0  0
   21.5969   14.6938    1.2421 C   0  0  0  0  0  0  0  0  0  0  0  0
   21.7772   15.5072    0.3487 O   0  0  0  0  0  0  0  0  0  0  0  0
   22.4722   13.8104    1.7835 O   0  0  0  0  0  0  0  0  0  0  0  0
   23.8328   13.6022    1.3237 C   0  0  0  0  0  0  0  0  0  0  0  0
   24.5724   12.9623    2.5067 C   0  0  0  0  0  0  0  0  0  0  0  0
   24.5839   14.8748    0.9830 C   0  0  0  0  0  0  0  0  0  0  0  0
   23.8156   12.6784    0.1075 C   0  0  0  0  0  0  0  0  0  0  0  0
   19.2462   15.4607    1.8686 C   0  0  0  0  0  0  0  0  0  0  0  0
   18.9323   16.6223    1.1267 C   0  0  0  0  0  0  0  0  0  0  0  0
   12.6760   17.5762    0.6539 C   0  0  0  0  0  0  0  0  0  0  0  0
   11.4815   16.9752    1.1320 C   0  0  0  0  0  0  0  0  0  0  0  0
    9.9901   13.5936    1.3495 N   0  0  0  0  0  0  0  0  0  0  0  0
  1  2  1  0
  2  3  1  0
  3  4  2  0
  4  5  1  0
  5  6  1  0
  6  7  2  0
  7  8  1  0
  8  9  2  0
  9 10  1  0
 10 11  1  0
 11 12  1  0
 12 13  1  1
 12 14  1  0
 14 15  2  0
 15 16  1  0
 16 17  2  0
 17 18  1  0
 18 19  2  0
 19 20  1  0
 20 21  1  0
 21 22  2  0
 21 23  1  0
 23 24  1  0
 24 25  1  0
 24 26  1  0
 24 27  1  0
 20 28  1  0
 28 29  2  0
  9 30  1  0
 30 31  2  0
  5 32  2  0
 32  2  1  0
 31  6  1  0
 29 14  1  0
 28 17  1  0
M  END
>  <energy_score>  (4041) 
-37.959841

>  <inchikey>  (4041) 
HCXBJZUQXWVTDO-UHFFFAOYSA-N

>  <smiles>  (4041) 
Cn1ccc(-c2ccc(CNC(O)c3ccc4cnn(C(=O)OC(C)(C)C)c4c3)cc2)n1

>  <ref_pdb>  (4041) 
A0514b

>  <alias>  (4041) 
HCXBJZUQXWVTDO-UHFFFAOYSA-N-P9-P9-P76-601504

>  <HIPPO Pose ID>  (4041) 
507616

>  <name>  (4041) 
HCXBJZUQXWVTDO-UHFFFAOYSA-N-P9-P9-P76-601504

>  <HIPPO Compound ID>  (4041) 
289772

>  <ref_mols>  (4041) 
A0486a,A0717a

>  <distance_score>  (4041) 
1.989844

>  <inspiration_score>  (4041) 
None

$$$$
HCXBJZUQXWVTDO-UHFFFAOYSA-N-P76-P9-P76-601504
     RDKit          3D

 32 35  0  0  0  0  0  0  0  0999 V2000
    8.3233   11.8831    1.9004 C   0  0  0  0  0  0  0  0  0  0  0  0
    8.8171   13.2291    2.0659 N   0  0  0  0  0  0  0  0  0  0  0  0
    8.3417   14.1746    2.9168 C   0  0  0  0  0  0  0  0  0  0  0  0
    9.1658   15.2664    2.7636 C   0  0  0  0  0  0  0  0  0  0  0  0
   10.1356   14.8884    1.7964 C   0  0  0  0  0  0  0  0  0  0  0  0
   11.3270   15.6056    1.3039 C   0  0  0  0  0  0  0  0  0  0  0  0
   11.9840   15.1268    0.1566 C   0  0  0  0  0  0  0  0  0  0  0  0
   13.1966   15.6754   -0.2921 C   0  0  0  0  0  0  0  0  0  0  0  0
   13.8205   16.7334    0.3868 C   0  0  0  0  0  0  0  0  0  0  0  0
   15.1919   17.1784   -0.1227 C   0  0  0  0  0  0  0  0  0  0  0  0
   15.8344   18.2897    0.5991 N   0  0  0  0  0  0  0  0  0  0  0  0
   17.3024   18.1898    0.5932 C   0  0  1  0  0  0  0  0  0  0  0  0
   17.7914   19.4402    1.0217 O   0  0  0  0  0  0  0  0  0  0  0  0
   17.8398   17.1244    1.5494 C   0  0  0  0  0  0  0  0  0  0  0  0
   17.0138   16.7442    2.6156 C   0  0  0  0  0  0  0  0  0  0  0  0
   17.2470   15.5870    3.3365 C   0  0  0  0  0  0  0  0  0  0  0  0
   18.3804   14.8331    3.0360 C   0  0  0  0  0  0  0  0  0  0  0  0
   18.8543   13.5950    3.4710 C   0  0  0  0  0  0  0  0  0  0  0  0
   20.0399   13.2963    2.9655 N   0  0  0  0  0  0  0  0  0  0  0  0
   20.4038   14.4026    2.2360 N   0  0  0  0  0  0  0  0  0  0  0  0
   21.7312   14.5293    1.7521 C   0  0  0  0  0  0  0  0  0  0  0  0
   22.0461   15.4527    1.0155 O   0  0  0  0  0  0  0  0  0  0  0  0
   22.5269   13.5611    2.2895 O   0  0  0  0  0  0  0  0  0  0  0  0
   23.9712   13.5787    2.1320 C   0  0  0  0  0  0  0  0  0  0  0  0
   24.5634   14.8869    2.6417 C   0  0  0  0  0  0  0  0  0  0  0  0
   24.3600   13.2610    0.6880 C   0  0  0  0  0  0  0  0  0  0  0  0
   24.5437   12.4754    3.0250 C   0  0  0  0  0  0  0  0  0  0  0  0
   19.3290   15.3014    2.1264 C   0  0  0  0  0  0  0  0  0  0  0  0
   19.0818   16.4649    1.3586 C   0  0  0  0  0  0  0  0  0  0  0  0
   13.1515   17.2465    1.5093 C   0  0  0  0  0  0  0  0  0  0  0  0
   11.9207   16.6936    1.9603 C   0  0  0  0  0  0  0  0  0  0  0  0
    9.8832   13.6393    1.3641 N   0  0  0  0  0  0  0  0  0  0  0  0
  1  2  1  0
  2  3  1  0
  3  4  2  0
  4  5  1  0
  5  6  1  0
  6  7  2  0
  7  8  1  0
  8  9  2  0
  9 10  1  0
 10 11  1  0
 11 12  1  0
 12 13  1  1
 12 14  1  0
 14 15  2  0
 15 16  1  0
 16 17  2  0
 17 18  1  0
 18 19  2  0
 19 20  1  0
 20 21  1  0
 21 22  2  0
 21 23  1  0
 23 24  1  0
 24 25  1  0
 24 26  1  0
 24 27  1  0
 20 28  1  0
 28 29  2  0
  9 30  1  0
 30 31  2  0
  5 32  2  0
 32  2  1  0
 31  6  1  0
 29 14  1  0
 28 17  1  0
M  END
>  <energy_score>  (4042) 
-36.109634

>  <inchikey>  (4042) 
HCXBJZUQXWVTDO-UHFFFAOYSA-N

>  <smiles>  (4042) 
Cn1ccc(-c2ccc(CNC(O)c3ccc4cnn(C(=O)OC(C)(C)C)c4c3)cc2)n1

>  <ref_pdb>  (4042) 
A0514b

>  <alias>  (4042) 
HCXBJZUQXWVTDO-UHFFFAOYSA-N-P76-P9-P76-601504

>  <HIPPO Pose ID>  (4042) 
507617

>  <name>  (4042) 
HCXBJZUQXWVTDO-UHFFFAOYSA-N-P76-P9-P76-601504

>  <HIPPO Compound ID>  (4042) 
289772

>  <ref_mols>  (4042) 
A0486a,A0717a

>  <distance_score>  (4042) 
1.86874

>  <inspiration_score>  (4042) 
None

$$$$
MTHMNWLGWYNQNJ-UHFFFAOYSA-N-P87-P87-P439-601504
     RDKit          3D

 23 25  0  0  0  0  0  0  0  0999 V2000
   12.3369   13.4553   26.6811 O   0  0  0  0  0  0  0  0  0  0  0  0
   12.9425   12.5691   26.1056 C   0  0  0  0  0  0  0  0  0  0  0  0
   14.0881   11.9746   26.5680 O   0  0  0  0  0  0  0  0  0  0  0  0
   14.7292   12.5340   27.7349 C   0  0  1  0  0  0  0  0  0  0  0  0
   15.0769   11.4408   28.7230 C   0  0  0  0  0  0  0  0  0  0  0  0
   16.2538   12.0339   29.4545 C   0  0  0  0  0  0  0  0  0  0  0  0
   17.0135   12.7074   28.4481 O   0  0  0  0  0  0  0  0  0  0  0  0
   16.1082   13.1058   27.4042 C   0  0  0  0  0  0  0  0  0  0  0  0
   12.5596   11.9583   24.7690 C   0  0  0  0  0  0  0  0  0  0  0  0
   12.6924   12.9632   23.6371 C   0  0  0  0  0  0  0  0  0  0  0  0
   11.4668   13.7351   23.2240 C   0  0  0  0  0  0  0  0  0  0  0  0
   10.2071   12.9887   23.4163 N   0  0  0  0  0  0  0  0  0  0  0  0
    9.1637   13.8609   24.3746 S   0  0  0  0  0  0  0  0  0  0  0  0
    9.0636   15.1303   23.6970 O   0  0  0  0  0  0  0  0  0  0  0  0
    9.6461   13.7367   25.7305 O   0  0  0  0  0  0  0  0  0  0  0  0
    7.7112   13.0393   24.2786 N   0  0  0  0  0  0  0  0  0  0  0  0
    7.4469   11.9568   25.2272 C   0  0  0  0  0  0  0  0  0  0  0  0
    6.7103   12.4210   26.4581 C   0  0  0  0  0  0  0  0  0  0  0  0
    5.5006   13.2908   26.2055 C   0  0  0  0  0  0  0  0  0  0  0  0
    5.4067   13.9791   24.8478 C   0  0  0  0  0  0  0  0  0  0  0  0
    6.5268   13.8069   23.8159 C   0  0  0  0  0  0  0  0  0  0  0  0
   10.3575   11.5520   23.5391 C   0  0  0  0  0  0  0  0  0  0  0  0
   11.2106   11.2322   24.7475 C   0  0  0  0  0  0  0  0  0  0  0  0
  1  2  2  0
  2  3  1  0
  4  3  1  6
  4  5  1  0
  5  6  1  0
  6  7  1  0
  7  8  1  0
  2  9  1  0
  9 10  1  0
 10 11  1  0
 11 12  1  0
 12 13  1  0
 13 14  2  0
 13 15  2  0
 13 16  1  0
 16 17  1  0
 17 18  1  0
 18 19  1  0
 19 20  1  0
 20 21  1  0
 12 22  1  0
 22 23  1  0
  8  4  1  0
 23  9  1  0
 21 16  1  0
M  END
>  <energy_score>  (4043) 
-22.573313

>  <inchikey>  (4043) 
MTHMNWLGWYNQNJ-UHFFFAOYSA-N

>  <smiles>  (4043) 
O=C(OC1CCOC1)C1CCN(S(=O)(=O)N2CCCCC2)CC1

>  <ref_pdb>  (4043) 
A0514b

>  <alias>  (4043) 
MTHMNWLGWYNQNJ-UHFFFAOYSA-N-P87-P87-P439-601504

>  <HIPPO Pose ID>  (4043) 
507618

>  <name>  (4043) 
MTHMNWLGWYNQNJ-UHFFFAOYSA-N-P87-P87-P439-601504

>  <HIPPO Compound ID>  (4043) 
314345

>  <ref_mols>  (4043) 
A4706a,A0875a

>  <distance_score>  (4043) 
1.932435

>  <inspiration_score>  (4043) 
None

$$$$
MTHMNWLGWYNQNJ-UHFFFAOYSA-N-P439-P87-P439-601504
     RDKit          3D

 23 25  0  0  0  0  0  0  0  0999 V2000
   15.4082   12.9501   28.0449 O   0  0  0  0  0  0  0  0  0  0  0  0
   15.0331   12.2198   27.1247 C   0  0  0  0  0  0  0  0  0  0  0  0
   15.6528   11.0601   26.8118 O   0  0  0  0  0  0  0  0  0  0  0  0
   16.6562   10.6680   27.7922 C   0  0  1  0  0  0  0  0  0  0  0  0
   17.4797    9.4794   27.3342 C   0  0  0  0  0  0  0  0  0  0  0  0
   18.7056    9.5775   28.2079 C   0  0  0  0  0  0  0  0  0  0  0  0
   18.9888   10.9721   28.3102 O   0  0  0  0  0  0  0  0  0  0  0  0
   17.7525   11.6864   28.1512 C   0  0  0  0  0  0  0  0  0  0  0  0
   13.8220   12.6457   26.2936 C   0  0  0  0  0  0  0  0  0  0  0  0
   12.8475   13.1573   27.3489 C   0  0  0  0  0  0  0  0  0  0  0  0
   11.6203   13.8560   26.8315 C   0  0  0  0  0  0  0  0  0  0  0  0
   10.9126   13.0566   25.8112 N   0  0  0  0  0  0  0  0  0  0  0  0
    9.5554   13.9685   25.2796 S   0  0  0  0  0  0  0  0  0  0  0  0
    9.9473   14.7520   24.1346 O   0  0  0  0  0  0  0  0  0  0  0  0
    9.0128   14.6065   26.4571 O   0  0  0  0  0  0  0  0  0  0  0  0
    8.4327   12.8059   24.8043 N   0  0  0  0  0  0  0  0  0  0  0  0
    8.2804   11.6208   25.6843 C   0  0  0  0  0  0  0  0  0  0  0  0
    6.8406   11.3583   26.1030 C   0  0  0  0  0  0  0  0  0  0  0  0
    6.1803   12.6184   26.6343 C   0  0  0  0  0  0  0  0  0  0  0  0
    6.2260   13.7404   25.6006 C   0  0  0  0  0  0  0  0  0  0  0  0
    7.1296   13.4295   24.4041 C   0  0  0  0  0  0  0  0  0  0  0  0
   11.8219   12.5912   24.7341 C   0  0  0  0  0  0  0  0  0  0  0  0
   13.0076   11.7724   25.3432 C   0  0  0  0  0  0  0  0  0  0  0  0
  1  2  2  0
  2  3  1  0
  4  3  1  6
  4  5  1  0
  5  6  1  0
  6  7  1  0
  7  8  1  0
  2  9  1  0
  9 10  1  0
 10 11  1  0
 11 12  1  0
 12 13  1  0
 13 14  2  0
 13 15  2  0
 13 16  1  0
 16 17  1  0
 17 18  1  0
 18 19  1  0
 19 20  1  0
 20 21  1  0
 12 22  1  0
 22 23  1  0
  8  4  1  0
 23  9  1  0
 21 16  1  0
M  END
>  <energy_score>  (4044) 
-35.764089

>  <inchikey>  (4044) 
MTHMNWLGWYNQNJ-UHFFFAOYSA-N

>  <smiles>  (4044) 
O=C(OC1CCOC1)C1CCN(S(=O)(=O)N2CCCCC2)CC1

>  <ref_pdb>  (4044) 
A0514b

>  <alias>  (4044) 
MTHMNWLGWYNQNJ-UHFFFAOYSA-N-P439-P87-P439-601504

>  <HIPPO Pose ID>  (4044) 
507619

>  <name>  (4044) 
MTHMNWLGWYNQNJ-UHFFFAOYSA-N-P439-P87-P439-601504

>  <HIPPO Compound ID>  (4044) 
314345

>  <ref_mols>  (4044) 
A4706a,A0875a

>  <distance_score>  (4044) 
1.834778

>  <inspiration_score>  (4044) 
None

$$$$
DIAXWFAAFMAQSR-UHFFFAOYSA-N-P87-P87-P439-601504
     RDKit          3D

 23 25  0  0  0  0  0  0  0  0999 V2000
   16.3483   10.6770   25.8791 C   0  0  0  0  0  0  0  0  0  0  0  0
   15.5880   11.7610   26.6313 C   0  0  0  0  0  0  0  0  0  0  0  0
   14.4632   12.3035   25.8814 O   0  0  0  0  0  0  0  0  0  0  0  0
   13.5382   11.4560   25.3719 C   0  0  0  0  0  0  0  0  0  0  0  0
   13.6446   10.2374   25.3512 O   0  0  0  0  0  0  0  0  0  0  0  0
   12.3036   12.1981   24.8964 C   0  0  0  0  0  0  0  0  0  0  0  0
   12.6088   13.0016   23.6481 C   0  0  0  0  0  0  0  0  0  0  0  0
   11.4255   13.6776   22.9928 C   0  0  0  0  0  0  0  0  0  0  0  0
   10.1499   12.9986   23.3144 N   0  0  0  0  0  0  0  0  0  0  0  0
    9.2093   13.8963   24.3537 S   0  0  0  0  0  0  0  0  0  0  0  0
    9.0998   15.1773   23.7016 O   0  0  0  0  0  0  0  0  0  0  0  0
    9.7798   13.7528   25.6768 O   0  0  0  0  0  0  0  0  0  0  0  0
    7.7361   13.1150   24.3408 N   0  0  0  0  0  0  0  0  0  0  0  0
    7.4693   11.9993   25.2399 C   0  0  0  0  0  0  0  0  0  0  0  0
    6.6930   12.4267   26.4598 C   0  0  0  0  0  0  0  0  0  0  0  0
    5.4923   13.3083   26.1931 C   0  0  0  0  0  0  0  0  0  0  0  0
    5.4104   13.9952   24.8307 C   0  0  0  0  0  0  0  0  0  0  0  0
    6.5516   13.8312   23.8175 C   0  0  0  0  0  0  0  0  0  0  0  0
   10.2850   11.5572   23.4467 C   0  0  0  0  0  0  0  0  0  0  0  0
   11.1242   11.2252   24.6607 C   0  0  0  0  0  0  0  0  0  0  0  0
   16.5338   12.8475   27.2081 C   0  0  0  0  0  0  0  0  0  0  0  0
   16.4777   12.2509   28.5261 O   0  0  0  0  0  0  0  0  0  0  0  0
   15.3540   11.4369   28.1223 C   0  0  0  0  0  0  0  0  0  0  0  0
  1  2  1  0
  2  3  1  0
  3  4  1  0
  4  5  2  0
  4  6  1  0
  6  7  1  0
  7  8  1  0
  8  9  1  0
  9 10  1  0
 10 11  2  0
 10 12  2  0
 10 13  1  0
 13 14  1  0
 14 15  1  0
 15 16  1  0
 16 17  1  0
 17 18  1  0
  9 19  1  0
 19 20  1  0
  2 21  1  0
 21 22  1  0
 22 23  1  0
 23  2  1  0
 20  6  1  0
 18 13  1  0
M  END
>  <energy_score>  (4045) 
-55.328317

>  <inchikey>  (4045) 
DIAXWFAAFMAQSR-UHFFFAOYSA-N

>  <smiles>  (4045) 
CC1(OC(=O)C2CCN(S(=O)(=O)N3CCCCC3)CC2)COC1

>  <ref_pdb>  (4045) 
A0514b

>  <alias>  (4045) 
DIAXWFAAFMAQSR-UHFFFAOYSA-N-P87-P87-P439-601504

>  <HIPPO Pose ID>  (4045) 
507620

>  <name>  (4045) 
DIAXWFAAFMAQSR-UHFFFAOYSA-N-P87-P87-P439-601504

>  <HIPPO Compound ID>  (4045) 
314346

>  <ref_mols>  (4045) 
A4706a,A0875a

>  <distance_score>  (4045) 
1.638846

>  <inspiration_score>  (4045) 
None

$$$$
DIAXWFAAFMAQSR-UHFFFAOYSA-N-P439-P87-P439-601504
     RDKit          3D

 23 25  0  0  0  0  0  0  0  0999 V2000
   15.8776   10.3232   26.1561 C   0  0  0  0  0  0  0  0  0  0  0  0
   15.2674   11.4252   26.9891 C   0  0  0  0  0  0  0  0  0  0  0  0
   14.2299   12.1327   26.2437 O   0  0  0  0  0  0  0  0  0  0  0  0
   13.2035   11.3924   25.7507 C   0  0  0  0  0  0  0  0  0  0  0  0
   13.2085   10.1818   25.5806 O   0  0  0  0  0  0  0  0  0  0  0  0
   11.9877   12.2220   25.5276 C   0  0  0  0  0  0  0  0  0  0  0  0
   12.2957   13.3417   24.5520 C   0  0  0  0  0  0  0  0  0  0  0  0
   11.1128   14.2788   24.5013 C   0  0  0  0  0  0  0  0  0  0  0  0
    9.8809   13.4789   24.6355 N   0  0  0  0  0  0  0  0  0  0  0  0
    8.5058   14.3721   24.6752 S   0  0  0  0  0  0  0  0  0  0  0  0
    8.3424   14.9415   23.3633 O   0  0  0  0  0  0  0  0  0  0  0  0
    8.6198   15.2037   25.8520 O   0  0  0  0  0  0  0  0  0  0  0  0
    7.2766   13.2398   24.9436 N   0  0  0  0  0  0  0  0  0  0  0  0
    7.4596   12.3326   26.1087 C   0  0  0  0  0  0  0  0  0  0  0  0
    6.1372   11.8088   26.6407 C   0  0  0  0  0  0  0  0  0  0  0  0
    5.2677   12.9452   27.1550 C   0  0  0  0  0  0  0  0  0  0  0  0
    5.4254   14.2048   26.3066 C   0  0  0  0  0  0  0  0  0  0  0  0
    5.9206   13.8789   24.9004 C   0  0  0  0  0  0  0  0  0  0  0  0
    9.9584   12.1685   24.0018 C   0  0  0  0  0  0  0  0  0  0  0  0
   10.7562   11.3928   25.0520 C   0  0  0  0  0  0  0  0  0  0  0  0
   16.4269   12.3161   27.4955 C   0  0  0  0  0  0  0  0  0  0  0  0
   15.6718   12.6204   28.7023 O   0  0  0  0  0  0  0  0  0  0  0  0
   14.9915   11.3330   28.5201 C   0  0  0  0  0  0  0  0  0  0  0  0
  1  2  1  0
  2  3  1  0
  3  4  1  0
  4  5  2  0
  4  6  1  0
  6  7  1  0
  7  8  1  0
  8  9  1  0
  9 10  1  0
 10 11  2  0
 10 12  2  0
 10 13  1  0
 13 14  1  0
 14 15  1  0
 15 16  1  0
 16 17  1  0
 17 18  1  0
  9 19  1  0
 19 20  1  0
  2 21  1  0
 21 22  1  0
 22 23  1  0
 23  2  1  0
 20  6  1  0
 18 13  1  0
M  END
>  <energy_score>  (4046) 
-56.891146

>  <inchikey>  (4046) 
DIAXWFAAFMAQSR-UHFFFAOYSA-N

>  <smiles>  (4046) 
CC1(OC(=O)C2CCN(S(=O)(=O)N3CCCCC3)CC2)COC1

>  <ref_pdb>  (4046) 
A0514b

>  <alias>  (4046) 
DIAXWFAAFMAQSR-UHFFFAOYSA-N-P439-P87-P439-601504

>  <HIPPO Pose ID>  (4046) 
507621

>  <name>  (4046) 
DIAXWFAAFMAQSR-UHFFFAOYSA-N-P439-P87-P439-601504

>  <HIPPO Compound ID>  (4046) 
314346

>  <ref_mols>  (4046) 
A4706a,A0875a

>  <distance_score>  (4046) 
1.684825

>  <inspiration_score>  (4046) 
None

$$$$
OAFVEFZDPSKQDG-UHFFFAOYSA-N-P87-P87-P439-601504
     RDKit          3D

 23 25  0  0  0  0  0  0  0  0999 V2000
   15.3625   11.2146   28.9831 C   0  0  0  0  0  0  0  0  0  0  0  0
   15.5637   12.1560   27.8023 C   0  0  1  0  0  0  0  0  0  0  0  0
   14.4817   12.0309   26.8476 O   0  0  0  0  0  0  0  0  0  0  0  0
   14.5380   11.0127   25.9709 C   0  0  0  0  0  0  0  0  0  0  0  0
   15.3062   10.0634   26.0524 O   0  0  0  0  0  0  0  0  0  0  0  0
   13.5095   11.0888   24.8547 C   0  0  0  0  0  0  0  0  0  0  0  0
   13.0992   12.5076   24.5454 C   0  0  0  0  0  0  0  0  0  0  0  0
   11.9671   12.8679   25.4654 C   0  0  0  0  0  0  0  0  0  0  0  0
   10.7238   12.1118   25.1358 N   0  0  0  0  0  0  0  0  0  0  0  0
    9.5133   13.2333   24.7875 S   0  0  0  0  0  0  0  0  0  0  0  0
    9.8782   13.9425   23.5877 O   0  0  0  0  0  0  0  0  0  0  0  0
    9.3979   13.8963   26.0614 O   0  0  0  0  0  0  0  0  0  0  0  0
    8.0585   12.4268   24.5431 N   0  0  0  0  0  0  0  0  0  0  0  0
    7.7397   11.3724   25.5083 C   0  0  0  0  0  0  0  0  0  0  0  0
    6.4609   11.5140   26.3098 C   0  0  0  0  0  0  0  0  0  0  0  0
    5.9486   12.9090   26.4718 C   0  0  0  0  0  0  0  0  0  0  0  0
    5.7972   13.5550   25.1183 C   0  0  0  0  0  0  0  0  0  0  0  0
    6.9495   13.3569   24.1296 C   0  0  0  0  0  0  0  0  0  0  0  0
   10.9249   10.9066   24.3320 C   0  0  0  0  0  0  0  0  0  0  0  0
   12.2241   10.1603   24.7983 C   0  0  0  0  0  0  0  0  0  0  0  0
   15.6360   13.6057   28.2056 C   0  0  2  0  0  0  0  0  0  0  0  0
   15.3140   14.1616   29.5778 C   0  0  0  0  0  0  0  0  0  0  0  0
   14.3519   14.1749   28.5211 O   0  0  0  0  0  0  0  0  0  0  0  0
  2  1  1  1
  2  3  1  0
  3  4  1  0
  4  5  2  0
  4  6  1  0
  6  7  1  0
  7  8  1  0
  8  9  1  0
  9 10  1  0
 10 11  2  0
 10 12  2  0
 10 13  1  0
 13 14  1  0
 14 15  1  0
 15 16  1  0
 16 17  1  0
 17 18  1  0
  9 19  1  0
 19 20  1  0
  2 21  1  0
 21 22  1  1
 22 23  1  0
 20  6  1  0
 23 21  1  0
 18 13  1  0
M  END
>  <energy_score>  (4047) 
-18.248935

>  <inchikey>  (4047) 
OAFVEFZDPSKQDG-UHFFFAOYSA-N

>  <smiles>  (4047) 
CC(OC(=O)C1CCN(S(=O)(=O)N2CCCCC2)CC1)C1CO1

>  <ref_pdb>  (4047) 
A0514b

>  <alias>  (4047) 
OAFVEFZDPSKQDG-UHFFFAOYSA-N-P87-P87-P439-601504

>  <HIPPO Pose ID>  (4047) 
507622

>  <name>  (4047) 
OAFVEFZDPSKQDG-UHFFFAOYSA-N-P87-P87-P439-601504

>  <HIPPO Compound ID>  (4047) 
314347

>  <ref_mols>  (4047) 
A4706a,A0875a

>  <distance_score>  (4047) 
1.256869

>  <inspiration_score>  (4047) 
None

$$$$
OAFVEFZDPSKQDG-UHFFFAOYSA-N-P439-P87-P439-601504
     RDKit          3D

 23 25  0  0  0  0  0  0  0  0999 V2000
   16.8806   10.4671   28.6475 C   0  0  0  0  0  0  0  0  0  0  0  0
   16.7374   11.9299   28.2489 C   0  0  1  0  0  0  0  0  0  0  0  0
   15.4179   12.2646   27.7733 O   0  0  0  0  0  0  0  0  0  0  0  0
   14.9313   11.7346   26.6272 C   0  0  0  0  0  0  0  0  0  0  0  0
   15.4007   10.7919   26.0107 O   0  0  0  0  0  0  0  0  0  0  0  0
   13.7375   12.5495   26.1509 C   0  0  0  0  0  0  0  0  0  0  0  0
   12.8964   13.0373   27.3082 C   0  0  0  0  0  0  0  0  0  0  0  0
   11.6469   13.7918   26.8902 C   0  0  0  0  0  0  0  0  0  0  0  0
   10.8529   13.0673   25.8625 N   0  0  0  0  0  0  0  0  0  0  0  0
    9.4812   14.0067   25.4509 S   0  0  0  0  0  0  0  0  0  0  0  0
    9.8430   14.8975   24.3757 O   0  0  0  0  0  0  0  0  0  0  0  0
    8.9555   14.5214   26.6932 O   0  0  0  0  0  0  0  0  0  0  0  0
    8.3759   12.8704   24.8791 N   0  0  0  0  0  0  0  0  0  0  0  0
    8.2130   11.6315   25.6814 C   0  0  0  0  0  0  0  0  0  0  0  0
    6.7765   11.3799   26.1197 C   0  0  0  0  0  0  0  0  0  0  0  0
    6.1378   12.6335   26.6920 C   0  0  0  0  0  0  0  0  0  0  0  0
    6.1691   13.7767   25.6799 C   0  0  0  0  0  0  0  0  0  0  0  0
    7.0791   13.5004   24.4803 C   0  0  0  0  0  0  0  0  0  0  0  0
   11.6712   12.6591   24.6989 C   0  0  0  0  0  0  0  0  0  0  0  0
   12.8328   11.7891   25.1975 C   0  0  0  0  0  0  0  0  0  0  0  0
   17.0441   12.8106   29.4377 C   0  0  2  0  0  0  0  0  0  0  0  0
   16.1264   12.8811   30.6351 C   0  0  0  0  0  0  0  0  0  0  0  0
   16.1523   13.9195   29.6475 O   0  0  0  0  0  0  0  0  0  0  0  0
  2  1  1  1
  2  3  1  0
  3  4  1  0
  4  5  2  0
  4  6  1  0
  6  7  1  0
  7  8  1  0
  8  9  1  0
  9 10  1  0
 10 11  2  0
 10 12  2  0
 10 13  1  0
 13 14  1  0
 14 15  1  0
 15 16  1  0
 16 17  1  0
 17 18  1  0
  9 19  1  0
 19 20  1  0
  2 21  1  0
 21 22  1  1
 22 23  1  0
 20  6  1  0
 23 21  1  0
 18 13  1  0
M  END
>  <energy_score>  (4048) 
-53.389834

>  <inchikey>  (4048) 
OAFVEFZDPSKQDG-UHFFFAOYSA-N

>  <smiles>  (4048) 
CC(OC(=O)C1CCN(S(=O)(=O)N2CCCCC2)CC1)C1CO1

>  <ref_pdb>  (4048) 
A0514b

>  <alias>  (4048) 
OAFVEFZDPSKQDG-UHFFFAOYSA-N-P439-P87-P439-601504

>  <HIPPO Pose ID>  (4048) 
507623

>  <name>  (4048) 
OAFVEFZDPSKQDG-UHFFFAOYSA-N-P439-P87-P439-601504

>  <HIPPO Compound ID>  (4048) 
314347

>  <ref_mols>  (4048) 
A4706a,A0875a

>  <distance_score>  (4048) 
1.658054

>  <inspiration_score>  (4048) 
None

$$$$
KNKZBQHPGXDEMM-UHFFFAOYSA-N-P87-P87-P439-601505
     RDKit          3D

 24 25  0  0  0  0  0  0  0  0999 V2000
   19.5307   13.8603   28.9150 C   0  0  0  0  0  0  0  0  0  0  0  0
   18.4551   12.9474   28.7386 O   0  0  0  0  0  0  0  0  0  0  0  0
   18.7655   11.9422   27.7694 C   0  0  0  0  0  0  0  0  0  0  0  0
   17.5529   11.0269   27.5333 C   0  0  1  0  0  0  0  0  0  0  0  0
   16.9698   10.4514   28.8426 C   0  0  0  0  0  0  0  0  0  0  0  0
   17.8507    9.5413   29.5708 N   0  0  0  0  0  0  0  0  0  0  0  0
   16.5354   11.8208   26.8744 O   0  0  0  0  0  0  0  0  0  0  0  0
   15.6106   11.1553   26.1408 C   0  0  0  0  0  0  0  0  0  0  0  0
   15.5883    9.9517   25.9273 O   0  0  0  0  0  0  0  0  0  0  0  0
   14.5363   12.1136   25.6711 C   0  0  0  0  0  0  0  0  0  0  0  0
   13.6729   12.4917   26.8430 C   0  0  0  0  0  0  0  0  0  0  0  0
   12.3589   13.1732   26.4752 C   0  0  0  0  0  0  0  0  0  0  0  0
   11.5761   12.6030   25.3393 N   0  0  0  0  0  0  0  0  0  0  0  0
   10.2734   13.6706   24.9795 S   0  0  0  0  0  0  0  0  0  0  0  0
   10.7414   14.6308   24.0120 O   0  0  0  0  0  0  0  0  0  0  0  0
    9.7926   14.0702   26.2772 O   0  0  0  0  0  0  0  0  0  0  0  0
    9.0386   12.8146   24.2526 N   0  0  0  0  0  0  0  0  0  0  0  0
    8.4376   11.6757   24.9486 C   0  0  0  0  0  0  0  0  0  0  0  0
    7.3538   12.0801   25.9277 C   0  0  0  0  0  0  0  0  0  0  0  0
    6.2947   13.0049   25.3827 C   0  0  0  0  0  0  0  0  0  0  0  0
    6.6186   13.6078   24.0279 C   0  0  0  0  0  0  0  0  0  0  0  0
    8.0660   13.7554   23.6072 C   0  0  0  0  0  0  0  0  0  0  0  0
   12.4773   12.3974   24.1915 C   0  0  0  0  0  0  0  0  0  0  0  0
   13.6312   11.4796   24.6415 C   0  0  0  0  0  0  0  0  0  0  0  0
  1  2  1  0
  2  3  1  0
  4  3  1  1
  4  5  1  0
  5  6  1  0
  4  7  1  0
  7  8  1  0
  8  9  2  0
  8 10  1  0
 10 11  1  0
 11 12  1  0
 12 13  1  0
 13 14  1  0
 14 15  2  0
 14 16  2  0
 14 17  1  0
 17 18  1  0
 18 19  1  0
 19 20  1  0
 20 21  1  0
 21 22  1  0
 13 23  1  0
 23 24  1  0
 24 10  1  0
 22 17  1  0
M  END
>  <energy_score>  (4049) 
-54.851673

>  <inchikey>  (4049) 
KNKZBQHPGXDEMM-UHFFFAOYSA-N

>  <smiles>  (4049) 
COCC(CN)OC(=O)C1CCN(S(=O)(=O)N2CCCCC2)CC1

>  <ref_pdb>  (4049) 
A0875a

>  <alias>  (4049) 
KNKZBQHPGXDEMM-UHFFFAOYSA-N-P87-P87-P439-601505

>  <HIPPO Pose ID>  (4049) 
507624

>  <name>  (4049) 
KNKZBQHPGXDEMM-UHFFFAOYSA-N-P87-P87-P439-601505

>  <HIPPO Compound ID>  (4049) 
314348

>  <ref_mols>  (4049) 
A4706a,A0875a

>  <distance_score>  (4049) 
1.767895

>  <inspiration_score>  (4049) 
None

$$$$
KNKZBQHPGXDEMM-UHFFFAOYSA-N-P439-P87-P439-601505
     RDKit          3D

 24 25  0  0  0  0  0  0  0  0999 V2000
   14.2595   13.2896   29.9090 C   0  0  0  0  0  0  0  0  0  0  0  0
   14.9009   13.5665   28.6695 O   0  0  0  0  0  0  0  0  0  0  0  0
   15.7964   12.5259   28.2653 C   0  0  0  0  0  0  0  0  0  0  0  0
   15.0823   11.3132   27.6628 C   0  0  2  0  0  0  0  0  0  0  0  0
   16.0564   10.5215   26.7590 C   0  0  0  0  0  0  0  0  0  0  0  0
   17.2183    9.9777   27.4575 N   0  0  0  0  0  0  0  0  0  0  0  0
   13.8315   11.5929   26.9533 O   0  0  0  0  0  0  0  0  0  0  0  0
   13.8977   12.3829   25.8583 C   0  0  0  0  0  0  0  0  0  0  0  0
   14.9037   12.9736   25.5014 O   0  0  0  0  0  0  0  0  0  0  0  0
   12.6456   12.4113   25.0072 C   0  0  0  0  0  0  0  0  0  0  0  0
   12.1903   13.7918   24.5906 C   0  0  0  0  0  0  0  0  0  0  0  0
   11.0584   13.6792   23.5798 C   0  0  0  0  0  0  0  0  0  0  0  0
    9.8932   13.0045   24.2005 N   0  0  0  0  0  0  0  0  0  0  0  0
    8.9972   13.9679   25.2404 S   0  0  0  0  0  0  0  0  0  0  0  0
    9.1774   15.3341   24.8195 O   0  0  0  0  0  0  0  0  0  0  0  0
    9.3086   13.5757   26.5931 O   0  0  0  0  0  0  0  0  0  0  0  0
    7.4028   13.5700   24.8934 N   0  0  0  0  0  0  0  0  0  0  0  0
    6.9183   12.1824   24.9140 C   0  0  0  0  0  0  0  0  0  0  0  0
    6.6808   11.6835   26.3300 C   0  0  0  0  0  0  0  0  0  0  0  0
    5.7163   12.6021   27.0768 C   0  0  0  0  0  0  0  0  0  0  0  0
    6.1283   14.0705   26.9677 C   0  0  0  0  0  0  0  0  0  0  0  0
    6.4004   14.4808   25.5198 C   0  0  0  0  0  0  0  0  0  0  0  0
   10.2160   11.6416   24.6378 C   0  0  0  0  0  0  0  0  0  0  0  0
   11.4716   11.6113   25.5015 C   0  0  0  0  0  0  0  0  0  0  0  0
  1  2  1  0
  2  3  1  0
  4  3  1  6
  4  5  1  0
  5  6  1  0
  4  7  1  0
  7  8  1  0
  8  9  2  0
  8 10  1  0
 10 11  1  0
 11 12  1  0
 12 13  1  0
 13 14  1  0
 14 15  2  0
 14 16  2  0
 14 17  1  0
 17 18  1  0
 18 19  1  0
 19 20  1  0
 20 21  1  0
 21 22  1  0
 13 23  1  0
 23 24  1  0
 24 10  1  0
 22 17  1  0
M  END
>  <energy_score>  (4050) 
-63.439387

>  <inchikey>  (4050) 
KNKZBQHPGXDEMM-UHFFFAOYSA-N

>  <smiles>  (4050) 
COCC(CN)OC(=O)C1CCN(S(=O)(=O)N2CCCCC2)CC1

>  <ref_pdb>  (4050) 
A0875a

>  <alias>  (4050) 
KNKZBQHPGXDEMM-UHFFFAOYSA-N-P439-P87-P439-601505

>  <HIPPO Pose ID>  (4050) 
507625

>  <name>  (4050) 
KNKZBQHPGXDEMM-UHFFFAOYSA-N-P439-P87-P439-601505

>  <HIPPO Compound ID>  (4050) 
314348

>  <ref_mols>  (4050) 
A4706a,A0875a

>  <distance_score>  (4050) 
1.450682

>  <inspiration_score>  (4050) 
None

$$$$
ZHEVTYIBYIRNSJ-UHFFFAOYSA-N-P439-P87-P439-601505
     RDKit          3D

 24 26  0  0  0  0  0  0  0  0999 V2000
    9.8807   15.6245   18.9607 N   0  0  0  0  0  0  0  0  0  0  0  0
   10.1624   14.8026   20.1406 C   0  0  1  0  0  0  0  0  0  0  0  0
   11.6543   14.7207   20.4200 C   0  0  0  0  0  0  0  0  0  0  0  0
   11.8984   15.6277   21.4891 O   0  0  0  0  0  0  0  0  0  0  0  0
   10.7728   15.4428   22.3466 C   0  0  0  0  0  0  0  0  0  0  0  0
    9.5406   15.3036   21.4586 C   0  0  2  0  0  0  0  0  0  0  0  0
    8.6520   14.2808   21.9913 O   0  0  0  0  0  0  0  0  0  0  0  0
    7.7617   14.6463   22.9598 C   0  0  0  0  0  0  0  0  0  0  0  0
    7.4531   15.7886   23.2507 O   0  0  0  0  0  0  0  0  0  0  0  0
    7.1267   13.4150   23.6068 C   0  0  0  0  0  0  0  0  0  0  0  0
    8.1571   12.3169   23.9353 C   0  0  0  0  0  0  0  0  0  0  0  0
    8.2388   11.9651   25.4072 C   0  0  0  0  0  0  0  0  0  0  0  0
    8.3028   13.1821   26.2054 N   0  0  0  0  0  0  0  0  0  0  0  0
    9.6760   14.1495   26.1622 S   0  0  0  0  0  0  0  0  0  0  0  0
    9.5883   14.9704   27.3426 O   0  0  0  0  0  0  0  0  0  0  0  0
    9.7732   14.7451   24.8586 O   0  0  0  0  0  0  0  0  0  0  0  0
   10.9983   13.0576   26.3460 N   0  0  0  0  0  0  0  0  0  0  0  0
   11.6874   12.7487   25.0553 C   0  0  0  0  0  0  0  0  0  0  0  0
   12.8279   11.7733   25.2943 C   0  0  0  0  0  0  0  0  0  0  0  0
   13.8695   12.3216   26.2337 C   0  0  0  0  0  0  0  0  0  0  0  0
   13.2234   12.8029   27.5109 C   0  0  0  0  0  0  0  0  0  0  0  0
   11.9682   13.6525   27.3158 C   0  0  0  0  0  0  0  0  0  0  0  0
    7.0470   13.9993   26.1199 C   0  0  0  0  0  0  0  0  0  0  0  0
    6.2614   13.7449   24.8337 C   0  0  0  0  0  0  0  0  0  0  0  0
  2  1  1  6
  2  3  1  0
  3  4  1  0
  4  5  1  0
  5  6  1  0
  6  7  1  1
  7  8  1  0
  8  9  2  0
  8 10  1  0
 10 11  1  0
 11 12  1  0
 12 13  1  0
 13 14  1  0
 14 15  2  0
 14 16  2  0
 14 17  1  0
 17 18  1  0
 18 19  1  0
 19 20  1  0
 20 21  1  0
 21 22  1  0
 13 23  1  0
 23 24  1  0
  6  2  1  0
 24 10  1  0
 22 17  1  0
M  END
>  <energy_score>  (4051) 
-49.913791

>  <inchikey>  (4051) 
ZHEVTYIBYIRNSJ-UHFFFAOYSA-N

>  <smiles>  (4051) 
NC1COCC1OC(=O)C1CCN(S(=O)(=O)N2CCCCC2)CC1

>  <ref_pdb>  (4051) 
A0875a

>  <alias>  (4051) 
ZHEVTYIBYIRNSJ-UHFFFAOYSA-N-P439-P87-P439-601505

>  <HIPPO Pose ID>  (4051) 
507627

>  <name>  (4051) 
ZHEVTYIBYIRNSJ-UHFFFAOYSA-N-P439-P87-P439-601505

>  <HIPPO Compound ID>  (4051) 
314349

>  <ref_mols>  (4051) 
A4706a,A0875a

>  <distance_score>  (4051) 
1.89506

>  <inspiration_score>  (4051) 
None

$$$$
RJZIFSKPELRLIS-UHFFFAOYSA-N-P87-P87-P439-601505
     RDKit          3D

 24 26  0  0  0  0  0  0  0  0999 V2000
   15.1806   11.1735   28.6554 C   0  0  0  0  0  0  0  0  0  0  0  0
   14.9870   12.3747   27.7199 C   0  0  1  0  0  0  0  0  0  0  0  0
   14.1483   11.9392   26.6020 O   0  0  0  0  0  0  0  0  0  0  0  0
   13.0001   12.5408   26.1628 C   0  0  0  0  0  0  0  0  0  0  0  0
   12.3923   13.4217   26.7427 O   0  0  0  0  0  0  0  0  0  0  0  0
   12.5930   11.9420   24.8174 C   0  0  0  0  0  0  0  0  0  0  0  0
   12.7269   12.9495   23.6875 C   0  0  0  0  0  0  0  0  0  0  0  0
   11.5056   13.7257   23.2648 C   0  0  0  0  0  0  0  0  0  0  0  0
   10.2403   12.9843   23.4399 N   0  0  0  0  0  0  0  0  0  0  0  0
    9.1853   13.8603   24.3837 S   0  0  0  0  0  0  0  0  0  0  0  0
    9.0885   15.1255   23.6978 O   0  0  0  0  0  0  0  0  0  0  0  0
    9.6604   13.7458   25.7433 O   0  0  0  0  0  0  0  0  0  0  0  0
    7.7334   13.0372   24.2821 N   0  0  0  0  0  0  0  0  0  0  0  0
    7.4639   11.9534   25.2277 C   0  0  0  0  0  0  0  0  0  0  0  0
    6.7198   12.4169   26.4547 C   0  0  0  0  0  0  0  0  0  0  0  0
    5.5115   13.2867   26.1967 C   0  0  0  0  0  0  0  0  0  0  0  0
    5.4228   13.9728   24.8377 C   0  0  0  0  0  0  0  0  0  0  0  0
    6.5490   13.8011   23.8119 C   0  0  0  0  0  0  0  0  0  0  0  0
   10.3871   11.5489   23.5688 C   0  0  0  0  0  0  0  0  0  0  0  0
   11.2331   11.2329   24.7843 C   0  0  0  0  0  0  0  0  0  0  0  0
   14.6122   13.6034   28.5329 C   0  0  0  0  0  0  0  0  0  0  0  0
   15.9468   14.1107   29.0501 C   0  0  0  0  0  0  0  0  0  0  0  0
   16.9659   13.6285   28.1642 O   0  0  0  0  0  0  0  0  0  0  0  0
   16.3544   12.7924   27.1772 C   0  0  0  0  0  0  0  0  0  0  0  0
  2  1  1  1
  2  3  1  0
  3  4  1  0
  4  5  2  0
  4  6  1  0
  6  7  1  0
  7  8  1  0
  8  9  1  0
  9 10  1  0
 10 11  2  0
 10 12  2  0
 10 13  1  0
 13 14  1  0
 14 15  1  0
 15 16  1  0
 16 17  1  0
 17 18  1  0
  9 19  1  0
 19 20  1  0
  2 21  1  0
 21 22  1  0
 22 23  1  0
 23 24  1  0
 24  2  1  0
 20  6  1  0
 18 13  1  0
M  END
>  <energy_score>  (4052) 
-35.056107

>  <inchikey>  (4052) 
RJZIFSKPELRLIS-UHFFFAOYSA-N

>  <smiles>  (4052) 
CC1(OC(=O)C2CCN(S(=O)(=O)N3CCCCC3)CC2)CCOC1

>  <ref_pdb>  (4052) 
A0875a

>  <alias>  (4052) 
RJZIFSKPELRLIS-UHFFFAOYSA-N-P87-P87-P439-601505

>  <HIPPO Pose ID>  (4052) 
507628

>  <name>  (4052) 
RJZIFSKPELRLIS-UHFFFAOYSA-N-P87-P87-P439-601505

>  <HIPPO Compound ID>  (4052) 
314350

>  <ref_mols>  (4052) 
A4706a,A0875a

>  <distance_score>  (4052) 
1.915663

>  <inspiration_score>  (4052) 
None

$$$$
RJZIFSKPELRLIS-UHFFFAOYSA-N-P439-P87-P439-601505
     RDKit          3D

 24 26  0  0  0  0  0  0  0  0999 V2000
   17.4150    9.6054   27.2119 C   0  0  0  0  0  0  0  0  0  0  0  0
   16.7173   10.8475   27.7935 C   0  0  1  0  0  0  0  0  0  0  0  0
   15.6041   11.1878   26.8830 O   0  0  0  0  0  0  0  0  0  0  0  0
   14.9469   12.3432   27.1301 C   0  0  0  0  0  0  0  0  0  0  0  0
   15.2809   13.1334   28.0143 O   0  0  0  0  0  0  0  0  0  0  0  0
   13.7169   12.6782   26.2834 C   0  0  0  0  0  0  0  0  0  0  0  0
   12.7191   13.1930   27.3207 C   0  0  0  0  0  0  0  0  0  0  0  0
   11.2870   13.3601   26.8781 C   0  0  0  0  0  0  0  0  0  0  0  0
   11.1610   13.5043   25.4418 N   0  0  0  0  0  0  0  0  0  0  0  0
    9.7802   14.2829   24.8770 S   0  0  0  0  0  0  0  0  0  0  0  0
   10.0423   14.7457   23.5384 O   0  0  0  0  0  0  0  0  0  0  0  0
    9.3625   15.1988   25.9136 O   0  0  0  0  0  0  0  0  0  0  0  0
    8.5649   13.0924   24.7673 N   0  0  0  0  0  0  0  0  0  0  0  0
    8.4194   12.1629   25.9079 C   0  0  0  0  0  0  0  0  0  0  0  0
    7.0420   11.5212   25.9633 C   0  0  0  0  0  0  0  0  0  0  0  0
    5.9773   12.5775   26.2372 C   0  0  0  0  0  0  0  0  0  0  0  0
    6.3229   13.9077   25.5693 C   0  0  0  0  0  0  0  0  0  0  0  0
    7.2444   13.7124   24.3635 C   0  0  0  0  0  0  0  0  0  0  0  0
   11.8091   12.4916   24.6081 C   0  0  0  0  0  0  0  0  0  0  0  0
   12.9654   11.7448   25.3540 C   0  0  0  0  0  0  0  0  0  0  0  0
   16.2167   10.5578   29.2160 C   0  0  0  0  0  0  0  0  0  0  0  0
   17.3168   11.0928   30.1041 C   0  0  0  0  0  0  0  0  0  0  0  0
   17.8520   12.2226   29.4226 O   0  0  0  0  0  0  0  0  0  0  0  0
   17.7802   11.9538   28.0128 C   0  0  0  0  0  0  0  0  0  0  0  0
  2  1  1  6
  2  3  1  0
  3  4  1  0
  4  5  2  0
  4  6  1  0
  6  7  1  0
  7  8  1  0
  8  9  1  0
  9 10  1  0
 10 11  2  0
 10 12  2  0
 10 13  1  0
 13 14  1  0
 14 15  1  0
 15 16  1  0
 16 17  1  0
 17 18  1  0
  9 19  1  0
 19 20  1  0
  2 21  1  0
 21 22  1  0
 22 23  1  0
 23 24  1  0
 24  2  1  0
 20  6  1  0
 18 13  1  0
M  END
>  <energy_score>  (4053) 
-43.762899

>  <inchikey>  (4053) 
RJZIFSKPELRLIS-UHFFFAOYSA-N

>  <smiles>  (4053) 
CC1(OC(=O)C2CCN(S(=O)(=O)N3CCCCC3)CC2)CCOC1

>  <ref_pdb>  (4053) 
A0875a

>  <alias>  (4053) 
RJZIFSKPELRLIS-UHFFFAOYSA-N-P439-P87-P439-601505

>  <HIPPO Pose ID>  (4053) 
507629

>  <name>  (4053) 
RJZIFSKPELRLIS-UHFFFAOYSA-N-P439-P87-P439-601505

>  <HIPPO Compound ID>  (4053) 
314350

>  <ref_mols>  (4053) 
A4706a,A0875a

>  <distance_score>  (4053) 
1.871279

>  <inspiration_score>  (4053) 
None

$$$$
XOLXRARSOWZGPZ-UHFFFAOYSA-N-P439-P87-P439-601505
     RDKit          3D

 24 26  0  0  0  0  0  0  0  0999 V2000
    5.3938   15.1560   23.1819 O   0  0  0  0  0  0  0  0  0  0  0  0
    6.5979   14.9521   23.2760 C   0  0  0  0  0  0  0  0  0  0  0  0
    7.4824   15.3523   22.3064 O   0  0  0  0  0  0  0  0  0  0  0  0
    8.7763   14.7035   22.0417 C   0  0  1  0  0  0  0  0  0  0  0  0
    8.9126   14.4832   20.5526 C   0  0  0  0  0  0  0  0  0  0  0  0
    9.6400   15.5656   19.7809 C   0  0  0  0  0  0  0  0  0  0  0  0
    9.5509   16.8119   20.6117 C   0  0  0  0  0  0  0  0  0  0  0  0
   10.4137   16.5804   21.7146 O   0  0  0  0  0  0  0  0  0  0  0  0
   10.0127   15.4773   22.5282 C   0  0  0  0  0  0  0  0  0  0  0  0
    7.2059   14.2950   24.4898 C   0  0  0  0  0  0  0  0  0  0  0  0
    7.1407   12.7564   24.4962 C   0  0  0  0  0  0  0  0  0  0  0  0
    7.8604   12.1254   25.7092 C   0  0  0  0  0  0  0  0  0  0  0  0
    8.6820   13.1475   26.4303 N   0  0  0  0  0  0  0  0  0  0  0  0
   10.0581   13.6813   25.5850 S   0  0  0  0  0  0  0  0  0  0  0  0
    9.8978   13.2571   24.2172 O   0  0  0  0  0  0  0  0  0  0  0  0
   10.2829   15.0651   25.9168 O   0  0  0  0  0  0  0  0  0  0  0  0
   11.3854   12.7904   26.1340 N   0  0  0  0  0  0  0  0  0  0  0  0
   12.3765   12.6462   25.0171 C   0  0  0  0  0  0  0  0  0  0  0  0
   13.4519   11.6669   25.4359 C   0  0  0  0  0  0  0  0  0  0  0  0
   14.2333   12.2369   26.6033 C   0  0  0  0  0  0  0  0  0  0  0  0
   13.3064   12.6812   27.7243 C   0  0  0  0  0  0  0  0  0  0  0  0
   12.0486   13.4426   27.2899 C   0  0  0  0  0  0  0  0  0  0  0  0
    7.7574   14.2410   26.9439 C   0  0  0  0  0  0  0  0  0  0  0  0
    6.7904   14.7875   25.8662 C   0  0  0  0  0  0  0  0  0  0  0  0
  1  2  2  0
  2  3  1  0
  4  3  1  6
  4  5  1  0
  5  6  1  0
  6  7  1  0
  7  8  1  0
  8  9  1  0
  2 10  1  0
 10 11  1  0
 11 12  1  0
 12 13  1  0
 13 14  1  0
 14 15  2  0
 14 16  2  0
 14 17  1  0
 17 18  1  0
 18 19  1  0
 19 20  1  0
 20 21  1  0
 21 22  1  0
 13 23  1  0
 23 24  1  0
  9  4  1  0
 24 10  1  0
 22 17  1  0
M  END
>  <energy_score>  (4054) 
-14.771246

>  <inchikey>  (4054) 
XOLXRARSOWZGPZ-UHFFFAOYSA-N

>  <smiles>  (4054) 
O=C(OC1CCCOC1)C1CCN(S(=O)(=O)N2CCCCC2)CC1

>  <ref_pdb>  (4054) 
A0875a

>  <alias>  (4054) 
XOLXRARSOWZGPZ-UHFFFAOYSA-N-P439-P87-P439-601505

>  <HIPPO Pose ID>  (4054) 
507631

>  <name>  (4054) 
XOLXRARSOWZGPZ-UHFFFAOYSA-N-P439-P87-P439-601505

>  <HIPPO Compound ID>  (4054) 
314351

>  <ref_mols>  (4054) 
A4706a,A0875a

>  <distance_score>  (4054) 
1.851018

>  <inspiration_score>  (4054) 
None

$$$$
JZRGNRQWORISRZ-UHFFFAOYSA-N-P87-P87-P439-601505
     RDKit          3D

 24 25  0  0  0  0  0  0  0  0999 V2000
   16.7268    8.8834   30.6356 C   0  0  0  0  0  0  0  0  0  0  0  0
   17.3942    9.4131   29.4880 O   0  0  0  0  0  0  0  0  0  0  0  0
   16.6714   10.3436   28.8043 C   0  0  0  0  0  0  0  0  0  0  0  0
   15.5428   10.7191   29.1047 O   0  0  0  0  0  0  0  0  0  0  0  0
   17.4537   10.8457   27.5872 C   0  0  2  0  0  0  0  0  0  0  0  0
   18.6686   11.6429   28.0371 C   0  0  0  0  0  0  0  0  0  0  0  0
   16.6274   11.7316   26.8120 O   0  0  0  0  0  0  0  0  0  0  0  0
   15.6278   11.1210   26.1273 C   0  0  0  0  0  0  0  0  0  0  0  0
   15.5042    9.9141   25.9657 O   0  0  0  0  0  0  0  0  0  0  0  0
   14.6133   12.1370   25.6545 C   0  0  0  0  0  0  0  0  0  0  0  0
   13.6999   12.4944   26.8004 C   0  0  0  0  0  0  0  0  0  0  0  0
   12.3872   13.1765   26.4143 C   0  0  0  0  0  0  0  0  0  0  0  0
   11.7120   12.7072   25.1797 N   0  0  0  0  0  0  0  0  0  0  0  0
   10.3677   13.6918   24.8143 S   0  0  0  0  0  0  0  0  0  0  0  0
   10.7847   14.7700   23.9578 O   0  0  0  0  0  0  0  0  0  0  0  0
    9.7376   13.9278   26.0881 O   0  0  0  0  0  0  0  0  0  0  0  0
    9.3138   12.7847   23.9142 N   0  0  0  0  0  0  0  0  0  0  0  0
    9.0539   11.4016   24.2728 C   0  0  0  0  0  0  0  0  0  0  0  0
    8.0749   11.2737   25.4109 C   0  0  0  0  0  0  0  0  0  0  0  0
    7.0712   12.3944   25.6151 C   0  0  0  0  0  0  0  0  0  0  0  0
    6.8652   13.1973   24.3528 C   0  0  0  0  0  0  0  0  0  0  0  0
    8.1006   13.5855   23.5573 C   0  0  0  0  0  0  0  0  0  0  0  0
   12.6681   12.5460   24.0857 C   0  0  0  0  0  0  0  0  0  0  0  0
   13.7411   11.5548   24.5694 C   0  0  0  0  0  0  0  0  0  0  0  0
  1  2  1  0
  2  3  1  0
  3  4  2  0
  3  5  1  0
  5  6  1  1
  5  7  1  0
  7  8  1  0
  8  9  2  0
  8 10  1  0
 10 11  1  0
 11 12  1  0
 12 13  1  0
 13 14  1  0
 14 15  2  0
 14 16  2  0
 14 17  1  0
 17 18  1  0
 18 19  1  0
 19 20  1  0
 20 21  1  0
 21 22  1  0
 13 23  1  0
 23 24  1  0
 24 10  1  0
 22 17  1  0
M  END
>  <energy_score>  (4055) 
-53.171899

>  <inchikey>  (4055) 
JZRGNRQWORISRZ-UHFFFAOYSA-N

>  <smiles>  (4055) 
COC(=O)C(C)OC(=O)C1CCN(S(=O)(=O)N2CCCCC2)CC1

>  <ref_pdb>  (4055) 
A0875a

>  <alias>  (4055) 
JZRGNRQWORISRZ-UHFFFAOYSA-N-P87-P87-P439-601505

>  <HIPPO Pose ID>  (4055) 
507632

>  <name>  (4055) 
JZRGNRQWORISRZ-UHFFFAOYSA-N-P87-P87-P439-601505

>  <HIPPO Compound ID>  (4055) 
314352

>  <ref_mols>  (4055) 
A4706a,A0875a

>  <distance_score>  (4055) 
1.852665

>  <inspiration_score>  (4055) 
None

$$$$
WVBAKBAQRWIRDM-UHFFFAOYSA-N-P439-P87-P439-601505
     RDKit          3D

 24 26  0  0  0  0  0  0  0  0999 V2000
   10.1921   15.0804   18.9747 C   0  0  0  0  0  0  0  0  0  0  0  0
   10.3174   15.4118   20.4433 C   0  0  2  0  0  0  0  0  0  0  0  0
   11.7328   15.0739   20.9032 C   0  0  0  0  0  0  0  0  0  0  0  0
   11.7051   14.9354   22.3202 O   0  0  0  0  0  0  0  0  0  0  0  0
   10.3424   15.0674   22.6922 C   0  0  0  0  0  0  0  0  0  0  0  0
    9.4889   14.6664   21.4968 C   0  0  1  0  0  0  0  0  0  0  0  0
    8.1064   15.0805   21.6195 O   0  0  0  0  0  0  0  0  0  0  0  0
    7.1980   14.2335   22.1986 C   0  0  0  0  0  0  0  0  0  0  0  0
    6.3299   13.6582   21.5539 O   0  0  0  0  0  0  0  0  0  0  0  0
    7.2883   14.0609   23.6994 C   0  0  0  0  0  0  0  0  0  0  0  0
    6.8052   12.7080   24.2513 C   0  0  0  0  0  0  0  0  0  0  0  0
    7.0630   12.5481   25.7586 C   0  0  0  0  0  0  0  0  0  0  0  0
    7.5949   13.7897   26.3185 N   0  0  0  0  0  0  0  0  0  0  0  0
    9.2015   14.2597   26.3672 S   0  0  0  0  0  0  0  0  0  0  0  0
    9.3703   15.3153   25.3978 O   0  0  0  0  0  0  0  0  0  0  0  0
    9.4958   14.5467   27.7487 O   0  0  0  0  0  0  0  0  0  0  0  0
   10.2566   13.0348   25.9233 N   0  0  0  0  0  0  0  0  0  0  0  0
   10.0872   12.1286   24.7819 C   0  0  0  0  0  0  0  0  0  0  0  0
   10.9047   10.8943   25.0976 C   0  0  0  0  0  0  0  0  0  0  0  0
   12.3603   11.2877   25.4720 C   0  0  0  0  0  0  0  0  0  0  0  0
   12.6466   12.7395   25.1657 C   0  0  0  0  0  0  0  0  0  0  0  0
   11.6688   13.5796   25.9783 C   0  0  0  0  0  0  0  0  0  0  0  0
    6.6597   14.9190   26.0219 C   0  0  0  0  0  0  0  0  0  0  0  0
    6.6004   15.1696   24.5002 C   0  0  0  0  0  0  0  0  0  0  0  0
  2  1  1  6
  2  3  1  0
  3  4  1  0
  4  5  1  0
  5  6  1  0
  6  7  1  1
  7  8  1  0
  8  9  2  0
  8 10  1  0
 10 11  1  0
 11 12  1  0
 12 13  1  0
 13 14  1  0
 14 15  2  0
 14 16  2  0
 14 17  1  0
 17 18  1  0
 18 19  1  0
 19 20  1  0
 20 21  1  0
 21 22  1  0
 13 23  1  0
 23 24  1  0
  6  2  1  0
 24 10  1  0
 22 17  1  0
M  END
>  <energy_score>  (4056) 
-3.110416

>  <inchikey>  (4056) 
WVBAKBAQRWIRDM-UHFFFAOYSA-N

>  <smiles>  (4056) 
CC1COCC1OC(=O)C1CCN(S(=O)(=O)N2CCCCC2)CC1

>  <ref_pdb>  (4056) 
A0875a

>  <alias>  (4056) 
WVBAKBAQRWIRDM-UHFFFAOYSA-N-P439-P87-P439-601505

>  <HIPPO Pose ID>  (4056) 
507641

>  <name>  (4056) 
WVBAKBAQRWIRDM-UHFFFAOYSA-N-P439-P87-P439-601505

>  <HIPPO Compound ID>  (4056) 
314356

>  <ref_mols>  (4056) 
A4706a,A0875a

>  <distance_score>  (4056) 
1.69541

>  <inspiration_score>  (4056) 
None

$$$$
SGSHBGMCXHZZSZ-UHFFFAOYSA-N-P439-P87-P439-601505
     RDKit          3D

 24 26  0  0  0  0  0  0  0  0999 V2000
    6.1744   13.1825   22.2740 O   0  0  0  0  0  0  0  0  0  0  0  0
    6.5047   14.1295   22.9854 C   0  0  0  0  0  0  0  0  0  0  0  0
    7.4597   15.0379   22.6396 O   0  0  0  0  0  0  0  0  0  0  0  0
    8.2229   14.7013   21.4563 C   0  0  0  0  0  0  0  0  0  0  0  0
    9.3085   15.7447   21.1719 C   0  0  2  0  0  0  0  0  0  0  0  0
    9.9126   15.5827   19.7939 C   0  0  0  0  0  0  0  0  0  0  0  0
   10.9924   14.6757   19.9540 O   0  0  0  0  0  0  0  0  0  0  0  0
   11.3906   14.8173   21.3177 C   0  0  0  0  0  0  0  0  0  0  0  0
   10.4285   15.5674   22.0483 O   0  0  0  0  0  0  0  0  0  0  0  0
    5.8782   14.3903   24.3666 C   0  0  0  0  0  0  0  0  0  0  0  0
    5.6247   13.0723   25.1285 C   0  0  0  0  0  0  0  0  0  0  0  0
    6.8519   12.4185   25.7753 C   0  0  0  0  0  0  0  0  0  0  0  0
    7.9253   13.4120   26.0174 N   0  0  0  0  0  0  0  0  0  0  0  0
    9.1582   13.4615   24.8618 S   0  0  0  0  0  0  0  0  0  0  0  0
    9.6961   14.7952   24.8113 O   0  0  0  0  0  0  0  0  0  0  0  0
    8.6672   12.7557   23.7057 O   0  0  0  0  0  0  0  0  0  0  0  0
   10.2756   12.4356   25.6028 N   0  0  0  0  0  0  0  0  0  0  0  0
   11.5203   13.0898   26.0510 C   0  0  0  0  0  0  0  0  0  0  0  0
   12.6677   12.6483   25.1726 C   0  0  0  0  0  0  0  0  0  0  0  0
   12.8972   11.1764   25.4504 C   0  0  0  0  0  0  0  0  0  0  0  0
   11.6126   10.3270   25.2696 C   0  0  0  0  0  0  0  0  0  0  0  0
   10.3781   11.1255   24.9009 C   0  0  0  0  0  0  0  0  0  0  0  0
    7.3771   14.7202   26.4311 C   0  0  0  0  0  0  0  0  0  0  0  0
    6.6117   15.3821   25.2850 C   0  0  0  0  0  0  0  0  0  0  0  0
  1  2  2  0
  2  3  1  0
  3  4  1  0
  5  4  1  1
  5  6  1  0
  6  7  1  0
  7  8  1  0
  8  9  1  0
  2 10  1  0
 10 11  1  0
 11 12  1  0
 12 13  1  0
 13 14  1  0
 14 15  2  0
 14 16  2  0
 14 17  1  0
 17 18  1  0
 18 19  1  0
 19 20  1  0
 20 21  1  0
 21 22  1  0
 13 23  1  0
 23 24  1  0
  9  5  1  0
 24 10  1  0
 22 17  1  0
M  END
>  <energy_score>  (4057) 
-35.271955

>  <inchikey>  (4057) 
SGSHBGMCXHZZSZ-UHFFFAOYSA-N

>  <smiles>  (4057) 
O=C(OCC1COCO1)C1CCN(S(=O)(=O)N2CCCCC2)CC1

>  <ref_pdb>  (4057) 
A0875a

>  <alias>  (4057) 
SGSHBGMCXHZZSZ-UHFFFAOYSA-N-P439-P87-P439-601505

>  <HIPPO Pose ID>  (4057) 
507643

>  <name>  (4057) 
SGSHBGMCXHZZSZ-UHFFFAOYSA-N-P439-P87-P439-601505

>  <HIPPO Compound ID>  (4057) 
314357

>  <ref_mols>  (4057) 
A4706a,A0875a

>  <distance_score>  (4057) 
1.467537

>  <inspiration_score>  (4057) 
None

$$$$
MRYRZVFKIDASDM-UHFFFAOYSA-N-P87-P87-P439-601505
     RDKit          3D

 24 26  0  0  0  0  0  0  0  0999 V2000
   17.1429    9.8172   27.5964 C   0  0  0  0  0  0  0  0  0  0  0  0
   16.8510   11.2818   27.8546 C   0  0  0  0  0  0  0  0  0  0  0  0
   15.3607   11.5584   28.1324 C   0  0  0  0  0  0  0  0  0  0  0  0
   14.4339   11.0287   27.1125 O   0  0  0  0  0  0  0  0  0  0  0  0
   14.5632   11.5540   25.8859 C   0  0  0  0  0  0  0  0  0  0  0  0
   15.4737   12.3177   25.5821 O   0  0  0  0  0  0  0  0  0  0  0  0
   13.5121   11.1792   24.8362 C   0  0  0  0  0  0  0  0  0  0  0  0
   12.9912   12.5276   24.3524 C   0  0  0  0  0  0  0  0  0  0  0  0
   11.9203   12.9234   25.3319 C   0  0  0  0  0  0  0  0  0  0  0  0
   10.6827   12.1190   25.1285 N   0  0  0  0  0  0  0  0  0  0  0  0
    9.4469   13.2096   24.7770 S   0  0  0  0  0  0  0  0  0  0  0  0
    9.7908   13.9073   23.5634 O   0  0  0  0  0  0  0  0  0  0  0  0
    9.3528   13.8863   26.0456 O   0  0  0  0  0  0  0  0  0  0  0  0
    7.9805   12.4264   24.5564 N   0  0  0  0  0  0  0  0  0  0  0  0
    7.6394   11.3920   25.5305 C   0  0  0  0  0  0  0  0  0  0  0  0
    6.3849   11.5743   26.3636 C   0  0  0  0  0  0  0  0  0  0  0  0
    5.8568   12.9702   26.4637 C   0  0  0  0  0  0  0  0  0  0  0  0
    5.7330   13.5947   25.0973 C   0  0  0  0  0  0  0  0  0  0  0  0
    6.8909   13.3691   24.1242 C   0  0  0  0  0  0  0  0  0  0  0  0
   10.8934   10.8661   24.4031 C   0  0  0  0  0  0  0  0  0  0  0  0
   12.2590   10.2049   24.8477 C   0  0  0  0  0  0  0  0  0  0  0  0
   14.9792   11.2217   29.5963 C   0  0  0  0  0  0  0  0  0  0  0  0
   14.4730   12.5566   29.8176 O   0  0  0  0  0  0  0  0  0  0  0  0
   15.0819   13.0147   28.5883 C   0  0  0  0  0  0  0  0  0  0  0  0
  1  2  1  0
  2  3  1  0
  3  4  1  0
  4  5  1  0
  5  6  2  0
  5  7  1  0
  7  8  1  0
  8  9  1  0
  9 10  1  0
 10 11  1  0
 11 12  2  0
 11 13  2  0
 11 14  1  0
 14 15  1  0
 15 16  1  0
 16 17  1  0
 17 18  1  0
 18 19  1  0
 10 20  1  0
 20 21  1  0
  3 22  1  0
 22 23  1  0
 23 24  1  0
 24  3  1  0
 21  7  1  0
 19 14  1  0
M  END
>  <energy_score>  (4058) 
-27.648601

>  <inchikey>  (4058) 
MRYRZVFKIDASDM-UHFFFAOYSA-N

>  <smiles>  (4058) 
CCC1(OC(=O)C2CCN(S(=O)(=O)N3CCCCC3)CC2)COC1

>  <ref_pdb>  (4058) 
A0875a

>  <alias>  (4058) 
MRYRZVFKIDASDM-UHFFFAOYSA-N-P87-P87-P439-601505

>  <HIPPO Pose ID>  (4058) 
507644

>  <name>  (4058) 
MRYRZVFKIDASDM-UHFFFAOYSA-N-P87-P87-P439-601505

>  <HIPPO Compound ID>  (4058) 
314358

>  <ref_mols>  (4058) 
A4706a,A0875a

>  <distance_score>  (4058) 
1.175633

>  <inspiration_score>  (4058) 
None

$$$$
MRYRZVFKIDASDM-UHFFFAOYSA-N-P439-P87-P439-601505
     RDKit          3D

 24 26  0  0  0  0  0  0  0  0999 V2000
   17.2297   11.0316   28.2679 C   0  0  0  0  0  0  0  0  0  0  0  0
   16.5903   12.4003   28.1048 C   0  0  0  0  0  0  0  0  0  0  0  0
   15.0774   12.4555   28.4048 C   0  0  0  0  0  0  0  0  0  0  0  0
   14.2987   12.7806   27.1957 O   0  0  0  0  0  0  0  0  0  0  0  0
   14.1300   11.7750   26.3071 C   0  0  0  0  0  0  0  0  0  0  0  0
   14.6568   10.6731   26.4056 O   0  0  0  0  0  0  0  0  0  0  0  0
   13.1313   12.0262   25.1829 C   0  0  0  0  0  0  0  0  0  0  0  0
   12.7804   13.4377   24.7895 C   0  0  0  0  0  0  0  0  0  0  0  0
   11.6578   14.0261   25.6307 C   0  0  0  0  0  0  0  0  0  0  0  0
   10.4016   13.2513   25.4649 N   0  0  0  0  0  0  0  0  0  0  0  0
    9.0806   14.1777   25.0044 S   0  0  0  0  0  0  0  0  0  0  0  0
    8.9645   14.1304   23.5706 O   0  0  0  0  0  0  0  0  0  0  0  0
    9.2290   15.4191   25.7256 O   0  0  0  0  0  0  0  0  0  0  0  0
    7.8098   13.3599   25.7135 N   0  0  0  0  0  0  0  0  0  0  0  0
    7.2039   12.2083   25.0251 C   0  0  0  0  0  0  0  0  0  0  0  0
    6.6421   11.3127   26.1242 C   0  0  0  0  0  0  0  0  0  0  0  0
    5.5748   12.0560   26.9292 C   0  0  0  0  0  0  0  0  0  0  0  0
    6.0825   13.4039   27.4363 C   0  0  0  0  0  0  0  0  0  0  0  0
    6.7556   14.2110   26.3294 C   0  0  0  0  0  0  0  0  0  0  0  0
   10.5785   11.9114   24.8975 C   0  0  0  0  0  0  0  0  0  0  0  0
   11.8406   11.3438   25.5303 C   0  0  0  0  0  0  0  0  0  0  0  0
   14.4616   11.4319   29.3970 C   0  0  0  0  0  0  0  0  0  0  0  0
   14.5773   12.3479   30.5056 O   0  0  0  0  0  0  0  0  0  0  0  0
   14.7692   13.4401   29.5856 C   0  0  0  0  0  0  0  0  0  0  0  0
  1  2  1  0
  2  3  1  0
  3  4  1  0
  4  5  1  0
  5  6  2  0
  5  7  1  0
  7  8  1  0
  8  9  1  0
  9 10  1  0
 10 11  1  0
 11 12  2  0
 11 13  2  0
 11 14  1  0
 14 15  1  0
 15 16  1  0
 16 17  1  0
 17 18  1  0
 18 19  1  0
 10 20  1  0
 20 21  1  0
  3 22  1  0
 22 23  1  0
 23 24  1  0
 24  3  1  0
 21  7  1  0
 19 14  1  0
M  END
>  <energy_score>  (4059) 
-64.504989

>  <inchikey>  (4059) 
MRYRZVFKIDASDM-UHFFFAOYSA-N

>  <smiles>  (4059) 
CCC1(OC(=O)C2CCN(S(=O)(=O)N3CCCCC3)CC2)COC1

>  <ref_pdb>  (4059) 
A0875a

>  <alias>  (4059) 
MRYRZVFKIDASDM-UHFFFAOYSA-N-P439-P87-P439-601505

>  <HIPPO Pose ID>  (4059) 
507645

>  <name>  (4059) 
MRYRZVFKIDASDM-UHFFFAOYSA-N-P439-P87-P439-601505

>  <HIPPO Compound ID>  (4059) 
314358

>  <ref_mols>  (4059) 
A4706a,A0875a

>  <distance_score>  (4059) 
1.485936

>  <inspiration_score>  (4059) 
None

$$$$
GZWACZCSQAGXEQ-UHFFFAOYSA-N-P87-P87-P439-601505
     RDKit          3D

 24 26  0  0  0  0  0  0  0  0999 V2000
   13.0762   15.3814   19.6231 C   0  0  0  0  0  0  0  0  0  0  0  0
   12.2534   14.2760   19.9680 O   0  0  0  0  0  0  0  0  0  0  0  0
   11.4665   14.3619   21.1723 C   0  0  1  0  0  0  0  0  0  0  0  0
   11.8529   15.4263   22.1834 C   0  0  0  0  0  0  0  0  0  0  0  0
   10.5180   16.1165   21.9698 C   0  0  0  0  0  0  0  0  0  0  0  0
   10.0040   14.9275   21.1711 C   0  0  2  0  0  0  0  0  0  0  0  0
    9.0456   14.0162   21.7410 O   0  0  0  0  0  0  0  0  0  0  0  0
    8.2695   14.3768   22.8044 C   0  0  0  0  0  0  0  0  0  0  0  0
    7.9343   15.4911   23.1528 O   0  0  0  0  0  0  0  0  0  0  0  0
    7.8010   13.0762   23.4341 C   0  0  0  0  0  0  0  0  0  0  0  0
    8.9272   11.9797   23.4271 C   0  0  0  0  0  0  0  0  0  0  0  0
    9.2101   11.3178   24.7440 C   0  0  0  0  0  0  0  0  0  0  0  0
    9.1522   12.3499   25.7503 N   0  0  0  0  0  0  0  0  0  0  0  0
   10.2997   13.6085   25.6736 S   0  0  0  0  0  0  0  0  0  0  0  0
   10.1769   14.3980   26.8792 O   0  0  0  0  0  0  0  0  0  0  0  0
   10.3039   14.2180   24.3829 O   0  0  0  0  0  0  0  0  0  0  0  0
   11.7483   12.6935   25.8367 N   0  0  0  0  0  0  0  0  0  0  0  0
   12.6500   13.3069   26.8295 C   0  0  0  0  0  0  0  0  0  0  0  0
   13.9444   12.5296   27.0763 C   0  0  0  0  0  0  0  0  0  0  0  0
   14.6282   12.0165   25.8333 C   0  0  0  0  0  0  0  0  0  0  0  0
   13.6279   11.4717   24.8481 C   0  0  0  0  0  0  0  0  0  0  0  0
   12.4742   12.4312   24.5700 C   0  0  0  0  0  0  0  0  0  0  0  0
    7.7329   12.6780   25.9861 C   0  0  0  0  0  0  0  0  0  0  0  0
    6.9916   13.0742   24.7251 C   0  0  0  0  0  0  0  0  0  0  0  0
  1  2  1  0
  3  2  1  6
  3  4  1  0
  4  5  1  0
  5  6  1  0
  6  7  1  1
  7  8  1  0
  8  9  2  0
  8 10  1  0
 10 11  1  0
 11 12  1  0
 12 13  1  0
 13 14  1  0
 14 15  2  0
 14 16  2  0
 14 17  1  0
 17 18  1  0
 18 19  1  0
 19 20  1  0
 20 21  1  0
 21 22  1  0
 13 23  1  0
 23 24  1  0
  6  3  1  0
 24 10  1  0
 22 17  1  0
M  END
>  <energy_score>  (4060) 
-35.896863

>  <inchikey>  (4060) 
GZWACZCSQAGXEQ-UHFFFAOYSA-N

>  <smiles>  (4060) 
COC1CCC1OC(=O)C1CCN(S(=O)(=O)N2CCCCC2)CC1

>  <ref_pdb>  (4060) 
A0875a

>  <alias>  (4060) 
GZWACZCSQAGXEQ-UHFFFAOYSA-N-P87-P87-P439-601505

>  <HIPPO Pose ID>  (4060) 
507648

>  <name>  (4060) 
GZWACZCSQAGXEQ-UHFFFAOYSA-N-P87-P87-P439-601505

>  <HIPPO Compound ID>  (4060) 
314360

>  <ref_mols>  (4060) 
A4706a,A0875a

>  <distance_score>  (4060) 
1.923042

>  <inspiration_score>  (4060) 
None

$$$$
GZWACZCSQAGXEQ-UHFFFAOYSA-N-P439-P87-P439-601505
     RDKit          3D

 24 26  0  0  0  0  0  0  0  0999 V2000
   11.0284   14.8130   18.6838 C   0  0  0  0  0  0  0  0  0  0  0  0
   10.1736   15.5997   19.4933 O   0  0  0  0  0  0  0  0  0  0  0  0
    9.6149   14.9681   20.6750 C   0  0  1  0  0  0  0  0  0  0  0  0
   10.6316   14.4938   21.7414 C   0  0  0  0  0  0  0  0  0  0  0  0
   10.5063   15.8813   22.3613 C   0  0  0  0  0  0  0  0  0  0  0  0
    9.0825   15.9894   21.7226 C   0  0  2  0  0  0  0  0  0  0  0  0
    7.9076   15.7970   22.5672 O   0  0  0  0  0  0  0  0  0  0  0  0
    7.3057   14.5971   22.7498 C   0  0  0  0  0  0  0  0  0  0  0  0
    7.5463   13.5631   22.1324 O   0  0  0  0  0  0  0  0  0  0  0  0
    6.1810   14.6640   23.8176 C   0  0  0  0  0  0  0  0  0  0  0  0
    5.8188   13.2434   24.2744 C   0  0  0  0  0  0  0  0  0  0  0  0
    6.9584   12.5941   25.0628 C   0  0  0  0  0  0  0  0  0  0  0  0
    7.5451   13.4984   26.0953 N   0  0  0  0  0  0  0  0  0  0  0  0
    9.1258   14.0541   25.9056 S   0  0  0  0  0  0  0  0  0  0  0  0
    9.4246   14.9096   27.0292 O   0  0  0  0  0  0  0  0  0  0  0  0
    9.2553   14.5620   24.5704 O   0  0  0  0  0  0  0  0  0  0  0  0
   10.2146   12.7781   26.0027 N   0  0  0  0  0  0  0  0  0  0  0  0
   11.5993   13.3825   25.9802 C   0  0  0  0  0  0  0  0  0  0  0  0
   12.5506   12.6579   25.0521 C   0  0  0  0  0  0  0  0  0  0  0  0
   12.4889   11.2010   25.4269 C   0  0  0  0  0  0  0  0  0  0  0  0
   11.0843   10.6129   25.1665 C   0  0  0  0  0  0  0  0  0  0  0  0
   10.0117   11.6720   25.0483 C   0  0  0  0  0  0  0  0  0  0  0  0
    6.6210   14.6519   26.3584 C   0  0  0  0  0  0  0  0  0  0  0  0
    6.4412   15.5023   25.0843 C   0  0  0  0  0  0  0  0  0  0  0  0
  1  2  1  0
  3  2  1  6
  3  4  1  0
  4  5  1  0
  5  6  1  0
  6  7  1  1
  7  8  1  0
  8  9  2  0
  8 10  1  0
 10 11  1  0
 11 12  1  0
 12 13  1  0
 13 14  1  0
 14 15  2  0
 14 16  2  0
 14 17  1  0
 17 18  1  0
 18 19  1  0
 19 20  1  0
 20 21  1  0
 21 22  1  0
 13 23  1  0
 23 24  1  0
  6  3  1  0
 24 10  1  0
 22 17  1  0
M  END
>  <energy_score>  (4061) 
-55.686254

>  <inchikey>  (4061) 
GZWACZCSQAGXEQ-UHFFFAOYSA-N

>  <smiles>  (4061) 
COC1CCC1OC(=O)C1CCN(S(=O)(=O)N2CCCCC2)CC1

>  <ref_pdb>  (4061) 
A0875a

>  <alias>  (4061) 
GZWACZCSQAGXEQ-UHFFFAOYSA-N-P439-P87-P439-601505

>  <HIPPO Pose ID>  (4061) 
507649

>  <name>  (4061) 
GZWACZCSQAGXEQ-UHFFFAOYSA-N-P439-P87-P439-601505

>  <HIPPO Compound ID>  (4061) 
314360

>  <ref_mols>  (4061) 
A4706a,A0875a

>  <distance_score>  (4061) 
1.442956

>  <inspiration_score>  (4061) 
None

$$$$
XETGTHVKEOGYFT-UHFFFAOYSA-N-P439-P87-P439-601505
     RDKit          3D

 24 26  0  0  0  0  0  0  0  0999 V2000
    7.0682   13.2334   22.0492 O   0  0  0  0  0  0  0  0  0  0  0  0
    7.3237   14.1415   22.8381 C   0  0  0  0  0  0  0  0  0  0  0  0
    8.3543   15.0275   22.6748 O   0  0  0  0  0  0  0  0  0  0  0  0
    9.4542   14.6356   21.8002 C   0  0  2  0  0  0  0  0  0  0  0  0
   10.8118   14.9035   22.4696 C   0  0  0  0  0  0  0  0  0  0  0  0
   11.8038   15.1006   21.4554 O   0  0  0  0  0  0  0  0  0  0  0  0
   11.1051   15.1020   20.2176 C   0  0  0  0  0  0  0  0  0  0  0  0
    9.6769   15.4518   20.5406 C   0  0  1  0  0  0  0  0  0  0  0  0
    8.9254   15.0504   19.5057 F   0  0  0  0  0  0  0  0  0  0  0  0
    6.4806   14.3221   24.1343 C   0  0  0  0  0  0  0  0  0  0  0  0
    6.1560   12.9637   24.8199 C   0  0  0  0  0  0  0  0  0  0  0  0
    7.1279   12.4323   25.8939 C   0  0  0  0  0  0  0  0  0  0  0  0
    8.1483   13.4467   26.2740 N   0  0  0  0  0  0  0  0  0  0  0  0
    9.4930   13.4865   25.2650 S   0  0  0  0  0  0  0  0  0  0  0  0
    9.9194   14.8553   25.1217 O   0  0  0  0  0  0  0  0  0  0  0  0
    9.1374   12.6730   24.1267 O   0  0  0  0  0  0  0  0  0  0  0  0
   10.7201   12.6665   26.1061 N   0  0  0  0  0  0  0  0  0  0  0  0
   11.5576   13.5543   26.9717 C   0  0  0  0  0  0  0  0  0  0  0  0
   12.8831   12.9015   27.3885 C   0  0  0  0  0  0  0  0  0  0  0  0
   13.7286   12.4080   26.2366 C   0  0  0  0  0  0  0  0  0  0  0  0
   12.9074   12.2787   24.9868 C   0  0  0  0  0  0  0  0  0  0  0  0
   11.5042   11.7764   25.2184 C   0  0  0  0  0  0  0  0  0  0  0  0
    7.4789   14.7548   26.4879 C   0  0  0  0  0  0  0  0  0  0  0  0
    6.9514   15.3451   25.1750 C   0  0  0  0  0  0  0  0  0  0  0  0
  1  2  2  0
  2  3  1  0
  4  3  1  1
  4  5  1  0
  5  6  1  0
  6  7  1  0
  7  8  1  0
  8  9  1  6
  2 10  1  0
 10 11  1  0
 11 12  1  0
 12 13  1  0
 13 14  1  0
 14 15  2  0
 14 16  2  0
 14 17  1  0
 17 18  1  0
 18 19  1  0
 19 20  1  0
 20 21  1  0
 21 22  1  0
 13 23  1  0
 23 24  1  0
  8  4  1  0
 24 10  1  0
 22 17  1  0
M  END
>  <energy_score>  (4062) 
-23.129356

>  <inchikey>  (4062) 
XETGTHVKEOGYFT-UHFFFAOYSA-N

>  <smiles>  (4062) 
O=C(OC1COCC1F)C1CCN(S(=O)(=O)N2CCCCC2)CC1

>  <ref_pdb>  (4062) 
A0875a

>  <alias>  (4062) 
XETGTHVKEOGYFT-UHFFFAOYSA-N-P439-P87-P439-601505

>  <HIPPO Pose ID>  (4062) 
507653

>  <name>  (4062) 
XETGTHVKEOGYFT-UHFFFAOYSA-N-P439-P87-P439-601505

>  <HIPPO Compound ID>  (4062) 
314362

>  <ref_mols>  (4062) 
A4706a,A0875a

>  <distance_score>  (4062) 
1.694112

>  <inspiration_score>  (4062) 
None

$$$$
CTXZXYBGNBKXLA-UHFFFAOYSA-N-P439-P87-P439-601505
     RDKit          3D

 24 26  0  0  0  0  0  0  0  0999 V2000
   10.3251   15.1939   19.0547 C   0  0  0  0  0  0  0  0  0  0  0  0
    9.9934   14.7254   20.4467 C   0  0  2  0  0  0  0  0  0  0  0  0
    9.1455   15.6746   21.2687 C   0  0  0  0  0  0  0  0  0  0  0  0
    9.5076   15.2682   22.6774 C   0  0  1  0  0  0  0  0  0  0  0  0
    8.4484   14.7437   23.4994 O   0  0  0  0  0  0  0  0  0  0  0  0
    7.6366   13.7399   23.1148 C   0  0  0  0  0  0  0  0  0  0  0  0
    7.5153   13.3090   21.9760 O   0  0  0  0  0  0  0  0  0  0  0  0
    6.8999   13.0810   24.2779 C   0  0  0  0  0  0  0  0  0  0  0  0
    7.6517   11.8078   24.7303 C   0  0  0  0  0  0  0  0  0  0  0  0
    8.5738   12.0367   25.9335 C   0  0  0  0  0  0  0  0  0  0  0  0
    9.0307   13.4171   25.8484 N   0  0  0  0  0  0  0  0  0  0  0  0
   10.4752   13.9841   26.4489 S   0  0  0  0  0  0  0  0  0  0  0  0
   10.8901   15.0563   25.5773 O   0  0  0  0  0  0  0  0  0  0  0  0
   10.2304   14.2209   27.8502 O   0  0  0  0  0  0  0  0  0  0  0  0
   11.6518   12.7537   26.3768 N   0  0  0  0  0  0  0  0  0  0  0  0
   12.1136   12.3682   25.0437 C   0  0  0  0  0  0  0  0  0  0  0  0
   13.1719   11.2543   25.1599 C   0  0  0  0  0  0  0  0  0  0  0  0
   14.3260   11.4557   26.1054 C   0  0  0  0  0  0  0  0  0  0  0  0
   14.1983   12.8059   26.7151 C   0  0  0  0  0  0  0  0  0  0  0  0
   12.8090   13.0197   27.3108 C   0  0  0  0  0  0  0  0  0  0  0  0
    7.9087   14.3679   26.2032 C   0  0  0  0  0  0  0  0  0  0  0  0
    6.6348   14.0213   25.4442 C   0  0  0  0  0  0  0  0  0  0  0  0
   10.7183   14.3584   22.5477 C   0  0  0  0  0  0  0  0  0  0  0  0
   11.1842   14.5184   21.2103 O   0  0  0  0  0  0  0  0  0  0  0  0
  2  1  1  6
  2  3  1  0
  3  4  1  0
  4  5  1  6
  5  6  1  0
  6  7  2  0
  6  8  1  0
  8  9  1  0
  9 10  1  0
 10 11  1  0
 11 12  1  0
 12 13  2  0
 12 14  2  0
 12 15  1  0
 15 16  1  0
 16 17  1  0
 17 18  1  0
 18 19  1  0
 19 20  1  0
 11 21  1  0
 21 22  1  0
  4 23  1  0
 23 24  1  0
 24  2  1  0
 22  8  1  0
 20 15  1  0
M  END
>  <energy_score>  (4063) 
-49.735377

>  <inchikey>  (4063) 
CTXZXYBGNBKXLA-UHFFFAOYSA-N

>  <smiles>  (4063) 
CC1CC(OC(=O)C2CCN(S(=O)(=O)N3CCCCC3)CC2)CO1

>  <ref_pdb>  (4063) 
A0875a

>  <alias>  (4063) 
CTXZXYBGNBKXLA-UHFFFAOYSA-N-P439-P87-P439-601505

>  <HIPPO Pose ID>  (4063) 
507655

>  <name>  (4063) 
CTXZXYBGNBKXLA-UHFFFAOYSA-N-P439-P87-P439-601505

>  <HIPPO Compound ID>  (4063) 
314363

>  <ref_mols>  (4063) 
A4706a,A0875a

>  <distance_score>  (4063) 
1.539446

>  <inspiration_score>  (4063) 
None

$$$$
RFXBLUSQCPCKKG-UHFFFAOYSA-N-P439-P87-P439-601505
     RDKit          3D

 24 26  0  0  0  0  0  0  0  0999 V2000
    7.5432   13.8649   21.5117 O   0  0  0  0  0  0  0  0  0  0  0  0
    7.4994   14.8034   22.2969 C   0  0  0  0  0  0  0  0  0  0  0  0
    8.3791   15.8371   22.2707 O   0  0  0  0  0  0  0  0  0  0  0  0
    9.6194   15.7897   21.5403 C   0  0  1  0  0  0  0  0  0  0  0  0
   10.6013   14.7588   22.0705 C   0  0  0  0  0  0  0  0  0  0  0  0
   11.6410   14.6608   21.0036 C   0  0  0  0  0  0  0  0  0  0  0  0
   10.9562   14.8629   19.7882 O   0  0  0  0  0  0  0  0  0  0  0  0
    9.8945   15.6823   20.0281 C   0  0  0  0  0  0  0  0  0  0  0  0
    9.3929   16.3371   19.1344 O   0  0  0  0  0  0  0  0  0  0  0  0
    6.3960   14.9334   23.4130 C   0  0  0  0  0  0  0  0  0  0  0  0
    5.6708   13.5995   23.7252 C   0  0  0  0  0  0  0  0  0  0  0  0
    6.2199   12.7216   24.8694 C   0  0  0  0  0  0  0  0  0  0  0  0
    7.3923   13.3374   25.5361 N   0  0  0  0  0  0  0  0  0  0  0  0
    8.8363   13.1632   24.6905 S   0  0  0  0  0  0  0  0  0  0  0  0
    9.3777   14.4791   24.4681 O   0  0  0  0  0  0  0  0  0  0  0  0
    8.5893   12.2215   23.6290 O   0  0  0  0  0  0  0  0  0  0  0  0
    9.8802   12.4276   25.7728 N   0  0  0  0  0  0  0  0  0  0  0  0
   10.5072   13.3740   26.7014 C   0  0  0  0  0  0  0  0  0  0  0  0
   11.7718   14.0117   26.1638 C   0  0  0  0  0  0  0  0  0  0  0  0
   12.6123   13.1236   25.2499 C   0  0  0  0  0  0  0  0  0  0  0  0
   12.2735   11.6876   25.5326 C   0  0  0  0  0  0  0  0  0  0  0  0
   10.8148   11.4588   25.1320 C   0  0  0  0  0  0  0  0  0  0  0  0
    7.0301   14.7057   25.9557 C   0  0  0  0  0  0  0  0  0  0  0  0
    6.7747   15.6131   24.7450 C   0  0  0  0  0  0  0  0  0  0  0  0
  1  2  2  0
  2  3  1  0
  4  3  1  6
  4  5  1  0
  5  6  1  0
  6  7  1  0
  7  8  1  0
  8  9  2  0
  2 10  1  0
 10 11  1  0
 11 12  1  0
 12 13  1  0
 13 14  1  0
 14 15  2  0
 14 16  2  0
 14 17  1  0
 17 18  1  0
 18 19  1  0
 19 20  1  0
 20 21  1  0
 21 22  1  0
 13 23  1  0
 23 24  1  0
  8  4  1  0
 24 10  1  0
 22 17  1  0
M  END
>  <energy_score>  (4064) 
-50.647649

>  <inchikey>  (4064) 
RFXBLUSQCPCKKG-UHFFFAOYSA-N

>  <smiles>  (4064) 
O=C(OC1CCOC1=O)C1CCN(S(=O)(=O)N2CCCCC2)CC1

>  <ref_pdb>  (4064) 
A0875a

>  <alias>  (4064) 
RFXBLUSQCPCKKG-UHFFFAOYSA-N-P439-P87-P439-601505

>  <HIPPO Pose ID>  (4064) 
507657

>  <name>  (4064) 
RFXBLUSQCPCKKG-UHFFFAOYSA-N-P439-P87-P439-601505

>  <HIPPO Compound ID>  (4064) 
314364

>  <ref_mols>  (4064) 
A4706a,A0875a

>  <distance_score>  (4064) 
1.913069

>  <inspiration_score>  (4064) 
None

$$$$
JEGPXZVWPVWCGI-UHFFFAOYSA-N-P439-P87-P439-601505
     RDKit          3D

 24 26  0  0  0  0  0  0  0  0999 V2000
   14.7591   10.7988   30.3902 N   0  0  0  0  0  0  0  0  0  0  0  0
   15.2797   10.9819   29.3693 C   0  0  0  0  0  0  0  0  0  0  0  0
   15.8578   11.2126   28.0525 C   0  0  0  0  0  0  0  0  0  0  0  0
   14.7890   11.4272   27.0499 O   0  0  0  0  0  0  0  0  0  0  0  0
   14.1683   12.6269   27.1885 C   0  0  0  0  0  0  0  0  0  0  0  0
   14.5145   13.4415   28.0407 O   0  0  0  0  0  0  0  0  0  0  0  0
   13.0921   12.9477   26.1528 C   0  0  0  0  0  0  0  0  0  0  0  0
   11.9902   13.8274   26.7759 C   0  0  0  0  0  0  0  0  0  0  0  0
   10.6108   13.2376   26.6830 C   0  0  0  0  0  0  0  0  0  0  0  0
   10.2557   12.9233   25.2968 N   0  0  0  0  0  0  0  0  0  0  0  0
    9.1307   13.9940   24.6466 S   0  0  0  0  0  0  0  0  0  0  0  0
    8.9422   13.7161   23.2483 O   0  0  0  0  0  0  0  0  0  0  0  0
    9.4976   15.2954   25.1427 O   0  0  0  0  0  0  0  0  0  0  0  0
    7.7962   13.4468   25.4980 N   0  0  0  0  0  0  0  0  0  0  0  0
    7.2634   12.1201   25.1267 C   0  0  0  0  0  0  0  0  0  0  0  0
    6.5060   11.5744   26.3313 C   0  0  0  0  0  0  0  0  0  0  0  0
    5.4073   12.5374   26.7796 C   0  0  0  0  0  0  0  0  0  0  0  0
    5.9445   13.9559   26.9733 C   0  0  0  0  0  0  0  0  0  0  0  0
    6.7196   14.4285   25.7442 C   0  0  0  0  0  0  0  0  0  0  0  0
   11.3668   12.5428   24.4193 C   0  0  0  0  0  0  0  0  0  0  0  0
   12.4919   11.8836   25.2546 C   0  0  0  0  0  0  0  0  0  0  0  0
   17.0584   12.1876   28.0610 C   0  0  0  0  0  0  0  0  0  0  0  0
   18.0053   11.1205   27.8497 O   0  0  0  0  0  0  0  0  0  0  0  0
   16.9362   10.1727   27.6692 C   0  0  0  0  0  0  0  0  0  0  0  0
  1  2  3  0
  2  3  1  0
  3  4  1  0
  4  5  1  0
  5  6  2  0
  5  7  1  0
  7  8  1  0
  8  9  1  0
  9 10  1  0
 10 11  1  0
 11 12  2  0
 11 13  2  0
 11 14  1  0
 14 15  1  0
 15 16  1  0
 16 17  1  0
 17 18  1  0
 18 19  1  0
 10 20  1  0
 20 21  1  0
  3 22  1  0
 22 23  1  0
 23 24  1  0
 24  3  1  0
 21  7  1  0
 19 14  1  0
M  END
>  <energy_score>  (4065) 
-68.534394

>  <inchikey>  (4065) 
JEGPXZVWPVWCGI-UHFFFAOYSA-N

>  <smiles>  (4065) 
N#CC1(OC(=O)C2CCN(S(=O)(=O)N3CCCCC3)CC2)COC1

>  <ref_pdb>  (4065) 
A0875a

>  <alias>  (4065) 
JEGPXZVWPVWCGI-UHFFFAOYSA-N-P439-P87-P439-601505

>  <HIPPO Pose ID>  (4065) 
507659

>  <name>  (4065) 
JEGPXZVWPVWCGI-UHFFFAOYSA-N-P439-P87-P439-601505

>  <HIPPO Compound ID>  (4065) 
314365

>  <ref_mols>  (4065) 
A4706a,A0875a

>  <distance_score>  (4065) 
1.930495

>  <inspiration_score>  (4065) 
None

$$$$
XJQKKBNTMAIOSA-UHFFFAOYSA-N-P87-P87-P439-601505
     RDKit          3D

 24 26  0  0  0  0  0  0  0  0999 V2000
   16.0371   10.6825   26.4768 C   0  0  0  0  0  0  0  0  0  0  0  0
   15.0954   11.8826   26.5383 C   0  0  1  0  0  0  0  0  0  0  0  0
   13.7726   11.5715   26.0077 O   0  0  0  0  0  0  0  0  0  0  0  0
   13.7107   11.6710   24.6561 C   0  0  0  0  0  0  0  0  0  0  0  0
   14.7074   11.6321   23.9443 O   0  0  0  0  0  0  0  0  0  0  0  0
   12.3179   11.9199   24.0541 C   0  0  0  0  0  0  0  0  0  0  0  0
   11.8283   13.2451   24.5055 C   0  0  0  0  0  0  0  0  0  0  0  0
   10.9321   12.9812   25.6457 C   0  0  0  0  0  0  0  0  0  0  0  0
    9.7205   12.1804   25.1976 N   0  0  0  0  0  0  0  0  0  0  0  0
    8.4590   13.2077   25.1638 S   0  0  0  0  0  0  0  0  0  0  0  0
    8.6699   14.1095   24.0614 O   0  0  0  0  0  0  0  0  0  0  0  0
    8.5323   13.5701   26.5502 O   0  0  0  0  0  0  0  0  0  0  0  0
    6.9828   12.4557   25.0520 N   0  0  0  0  0  0  0  0  0  0  0  0
    6.7468   11.3908   26.0328 C   0  0  0  0  0  0  0  0  0  0  0  0
    6.1890   11.8579   27.3771 C   0  0  0  0  0  0  0  0  0  0  0  0
    4.9636   12.7195   27.2958 C   0  0  0  0  0  0  0  0  0  0  0  0
    5.1753   13.8225   26.2966 C   0  0  0  0  0  0  0  0  0  0  0  0
    5.8210   13.4216   24.9728 C   0  0  0  0  0  0  0  0  0  0  0  0
    9.8921   11.3373   24.0450 C   0  0  0  0  0  0  0  0  0  0  0  0
   11.2632   10.7630   24.1852 C   0  0  0  0  0  0  0  0  0  0  0  0
   14.9499   12.3343   27.9928 C   0  0  1  0  0  0  0  0  0  0  0  0
   16.1350   13.0906   28.6099 C   0  0  0  0  0  0  0  0  0  0  0  0
   15.1052   14.1664   28.9330 C   0  0  0  0  0  0  0  0  0  0  0  0
   14.1079   13.5184   28.1024 O   0  0  0  0  0  0  0  0  0  0  0  0
  2  1  1  1
  2  3  1  0
  3  4  1  0
  4  5  2  0
  4  6  1  0
  6  7  1  0
  7  8  1  0
  8  9  1  0
  9 10  1  0
 10 11  2  0
 10 12  2  0
 10 13  1  0
 13 14  1  0
 14 15  1  0
 15 16  1  0
 16 17  1  0
 17 18  1  0
  9 19  1  0
 19 20  1  0
  2 21  1  0
 21 22  1  6
 22 23  1  0
 23 24  1  0
 20  6  1  0
 24 21  1  0
 18 13  1  0
M  END
>  <energy_score>  (4066) 
-42.905367

>  <inchikey>  (4066) 
XJQKKBNTMAIOSA-UHFFFAOYSA-N

>  <smiles>  (4066) 
CC(OC(=O)C1CCN(S(=O)(=O)N2CCCCC2)CC1)C1CCO1

>  <ref_pdb>  (4066) 
A0875a

>  <alias>  (4066) 
XJQKKBNTMAIOSA-UHFFFAOYSA-N-P87-P87-P439-601505

>  <HIPPO Pose ID>  (4066) 
507660

>  <name>  (4066) 
XJQKKBNTMAIOSA-UHFFFAOYSA-N-P87-P87-P439-601505

>  <HIPPO Compound ID>  (4066) 
314366

>  <ref_mols>  (4066) 
A4706a,A0875a

>  <distance_score>  (4066) 
1.369692

>  <inspiration_score>  (4066) 
None

$$$$
OSOJIFSJLSGDFP-UHFFFAOYSA-N-P87-P87-P439-601505
     RDKit          3D

 24 26  0  0  0  0  0  0  0  0999 V2000
   11.7201   17.3855   21.0869 O   0  0  0  0  0  0  0  0  0  0  0  0
   11.1371   16.3435   21.3255 C   0  0  0  0  0  0  0  0  0  0  0  0
    9.6475   16.2252   21.4957 C   0  0  0  0  0  0  0  0  0  0  0  0
    9.5338   14.8279   21.9685 C   0  0  1  0  0  0  0  0  0  0  0  0
    8.3298   14.2183   21.5063 O   0  0  0  0  0  0  0  0  0  0  0  0
    7.3987   13.7634   22.3734 C   0  0  0  0  0  0  0  0  0  0  0  0
    6.2243   13.6970   22.0531 O   0  0  0  0  0  0  0  0  0  0  0  0
    7.9200   13.2541   23.6881 C   0  0  0  0  0  0  0  0  0  0  0  0
    8.9001   12.0619   23.5029 C   0  0  0  0  0  0  0  0  0  0  0  0
    9.1227   11.2599   24.7509 C   0  0  0  0  0  0  0  0  0  0  0  0
    9.1151   12.2379   25.8170 N   0  0  0  0  0  0  0  0  0  0  0  0
   10.3525   13.4544   25.7745 S   0  0  0  0  0  0  0  0  0  0  0  0
   10.2132   14.3392   26.9118 O   0  0  0  0  0  0  0  0  0  0  0  0
   10.5716   14.0048   24.4793 O   0  0  0  0  0  0  0  0  0  0  0  0
   11.7204   12.4658   26.0486 N   0  0  0  0  0  0  0  0  0  0  0  0
   12.7225   13.2147   26.8104 C   0  0  0  0  0  0  0  0  0  0  0  0
   14.0276   12.4735   27.0533 C   0  0  0  0  0  0  0  0  0  0  0  0
   14.6527   11.9170   25.8003 C   0  0  0  0  0  0  0  0  0  0  0  0
   13.7487   12.0913   24.6138 C   0  0  0  0  0  0  0  0  0  0  0  0
   12.2894   11.7733   24.8588 C   0  0  0  0  0  0  0  0  0  0  0  0
    7.6807   12.5989   26.0743 C   0  0  0  0  0  0  0  0  0  0  0  0
    6.9274   12.9342   24.7886 C   0  0  0  0  0  0  0  0  0  0  0  0
   10.7780   14.1862   21.4128 C   0  0  0  0  0  0  0  0  0  0  0  0
   11.7794   15.1662   21.5172 O   0  0  0  0  0  0  0  0  0  0  0  0
  1  2  2  0
  2  3  1  0
  3  4  1  0
  4  5  1  6
  5  6  1  0
  6  7  2  0
  6  8  1  0
  8  9  1  0
  9 10  1  0
 10 11  1  0
 11 12  1  0
 12 13  2  0
 12 14  2  0
 12 15  1  0
 15 16  1  0
 16 17  1  0
 17 18  1  0
 18 19  1  0
 19 20  1  0
 11 21  1  0
 21 22  1  0
  4 23  1  0
 23 24  1  0
 24  2  1  0
 22  8  1  0
 20 15  1  0
M  END
>  <energy_score>  (4067) 
-16.979564

>  <inchikey>  (4067) 
OSOJIFSJLSGDFP-UHFFFAOYSA-N

>  <smiles>  (4067) 
O=C1CC(OC(=O)C2CCN(S(=O)(=O)N3CCCCC3)CC2)CO1

>  <ref_pdb>  (4067) 
A0875a

>  <alias>  (4067) 
OSOJIFSJLSGDFP-UHFFFAOYSA-N-P87-P87-P439-601505

>  <HIPPO Pose ID>  (4067) 
507662

>  <name>  (4067) 
OSOJIFSJLSGDFP-UHFFFAOYSA-N-P87-P87-P439-601505

>  <HIPPO Compound ID>  (4067) 
314367

>  <ref_mols>  (4067) 
A4706a,A0875a

>  <distance_score>  (4067) 
1.871204

>  <inspiration_score>  (4067) 
None

$$$$
OSOJIFSJLSGDFP-UHFFFAOYSA-N-P439-P87-P439-601505
     RDKit          3D

 24 26  0  0  0  0  0  0  0  0999 V2000
   10.3180   15.6085   19.1646 O   0  0  0  0  0  0  0  0  0  0  0  0
   10.0406   15.4588   20.3412 C   0  0  0  0  0  0  0  0  0  0  0  0
    8.6553   15.4250   20.8956 C   0  0  0  0  0  0  0  0  0  0  0  0
    8.8528   14.6801   22.1625 C   0  0  2  0  0  0  0  0  0  0  0  0
    7.8288   14.9531   23.1414 O   0  0  0  0  0  0  0  0  0  0  0  0
    6.8237   14.0286   23.2057 C   0  0  0  0  0  0  0  0  0  0  0  0
    6.5871   13.2143   22.3140 O   0  0  0  0  0  0  0  0  0  0  0  0
    6.0597   14.0099   24.5501 C   0  0  0  0  0  0  0  0  0  0  0  0
    5.9699   12.5698   25.1093 C   0  0  0  0  0  0  0  0  0  0  0  0
    7.1069   12.0515   26.0024 C   0  0  0  0  0  0  0  0  0  0  0  0
    8.0041   13.1440   26.4391 N   0  0  0  0  0  0  0  0  0  0  0  0
    9.2556   13.5024   25.3796 S   0  0  0  0  0  0  0  0  0  0  0  0
    8.9692   12.8124   24.1477 O   0  0  0  0  0  0  0  0  0  0  0  0
    9.4639   14.9245   25.4604 O   0  0  0  0  0  0  0  0  0  0  0  0
   10.6298   12.7638   25.9841 N   0  0  0  0  0  0  0  0  0  0  0  0
   11.8335   13.6547   26.0054 C   0  0  0  0  0  0  0  0  0  0  0  0
   12.7888   13.2909   24.8695 C   0  0  0  0  0  0  0  0  0  0  0  0
   13.4210   11.9529   25.1542 C   0  0  0  0  0  0  0  0  0  0  0  0
   12.3376   11.0547   25.6477 C   0  0  0  0  0  0  0  0  0  0  0  0
   10.9142   11.4677   25.2999 C   0  0  0  0  0  0  0  0  0  0  0  0
    7.1876   14.3240   26.8505 C   0  0  0  0  0  0  0  0  0  0  0  0
    6.4949   14.9885   25.6502 C   0  0  0  0  0  0  0  0  0  0  0  0
   10.2378   15.1560   22.5542 C   0  0  0  0  0  0  0  0  0  0  0  0
   10.9566   15.3230   21.3415 O   0  0  0  0  0  0  0  0  0  0  0  0
  1  2  2  0
  2  3  1  0
  3  4  1  0
  4  5  1  1
  5  6  1  0
  6  7  2  0
  6  8  1  0
  8  9  1  0
  9 10  1  0
 10 11  1  0
 11 12  1  0
 12 13  2  0
 12 14  2  0
 12 15  1  0
 15 16  1  0
 16 17  1  0
 17 18  1  0
 18 19  1  0
 19 20  1  0
 11 21  1  0
 21 22  1  0
  4 23  1  0
 23 24  1  0
 24  2  1  0
 22  8  1  0
 20 15  1  0
M  END
>  <energy_score>  (4068) 
-39.33496

>  <inchikey>  (4068) 
OSOJIFSJLSGDFP-UHFFFAOYSA-N

>  <smiles>  (4068) 
O=C1CC(OC(=O)C2CCN(S(=O)(=O)N3CCCCC3)CC2)CO1

>  <ref_pdb>  (4068) 
A0875a

>  <alias>  (4068) 
OSOJIFSJLSGDFP-UHFFFAOYSA-N-P439-P87-P439-601505

>  <HIPPO Pose ID>  (4068) 
507663

>  <name>  (4068) 
OSOJIFSJLSGDFP-UHFFFAOYSA-N-P439-P87-P439-601505

>  <HIPPO Compound ID>  (4068) 
314367

>  <ref_mols>  (4068) 
A4706a,A0875a

>  <distance_score>  (4068) 
1.434011

>  <inspiration_score>  (4068) 
None

$$$$
MAIYYSHJJZXKMS-UHFFFAOYSA-N-P87-P87-P439-601505
     RDKit          3D

 24 26  0  0  0  0  0  0  0  0999 V2000
   16.3982    9.6971   26.1172 C   0  0  0  0  0  0  0  0  0  0  0  0
   15.9641   10.3854   27.1793 C   0  0  0  0  0  0  0  0  0  0  0  0
   15.3332   11.7361   27.0470 C   0  0  0  0  0  0  0  0  0  0  0  0
   13.9724   11.7543   26.4906 O   0  0  0  0  0  0  0  0  0  0  0  0
   13.8393   11.8976   25.1430 C   0  0  0  0  0  0  0  0  0  0  0  0
   14.7053   11.6336   24.3206 O   0  0  0  0  0  0  0  0  0  0  0  0
   12.4695   12.4555   24.7685 C   0  0  0  0  0  0  0  0  0  0  0  0
   12.5839   13.1726   23.4272 C   0  0  0  0  0  0  0  0  0  0  0  0
   11.3075   13.7365   22.8636 C   0  0  0  0  0  0  0  0  0  0  0  0
   10.1221   12.9846   23.3290 N   0  0  0  0  0  0  0  0  0  0  0  0
    9.2009   13.8873   24.3791 S   0  0  0  0  0  0  0  0  0  0  0  0
    9.0594   15.1622   23.7208 O   0  0  0  0  0  0  0  0  0  0  0  0
    9.7934   13.7600   25.6936 O   0  0  0  0  0  0  0  0  0  0  0  0
    7.7359   13.0974   24.3890 N   0  0  0  0  0  0  0  0  0  0  0  0
    7.4883   11.9789   25.2855 C   0  0  0  0  0  0  0  0  0  0  0  0
    6.6947   12.4027   26.4974 C   0  0  0  0  0  0  0  0  0  0  0  0
    5.4894   13.2775   26.2260 C   0  0  0  0  0  0  0  0  0  0  0  0
    5.4096   13.9693   24.8671 C   0  0  0  0  0  0  0  0  0  0  0  0
    6.5471   13.7952   23.8543 C   0  0  0  0  0  0  0  0  0  0  0  0
   10.3899   11.5681   23.5515 C   0  0  0  0  0  0  0  0  0  0  0  0
   11.3610   11.3942   24.7109 C   0  0  0  0  0  0  0  0  0  0  0  0
   15.3968   12.5382   28.3941 C   0  0  0  0  0  0  0  0  0  0  0  0
   15.9672   13.6815   27.7158 O   0  0  0  0  0  0  0  0  0  0  0  0
   16.3438   12.8273   26.6059 C   0  0  0  0  0  0  0  0  0  0  0  0
  1  2  2  0
  2  3  1  0
  3  4  1  0
  4  5  1  0
  5  6  2  0
  5  7  1  0
  7  8  1  0
  8  9  1  0
  9 10  1  0
 10 11  1  0
 11 12  2  0
 11 13  2  0
 11 14  1  0
 14 15  1  0
 15 16  1  0
 16 17  1  0
 17 18  1  0
 18 19  1  0
 10 20  1  0
 20 21  1  0
  3 22  1  0
 22 23  1  0
 23 24  1  0
 24  3  1  0
 21  7  1  0
 19 14  1  0
M  END
>  <energy_score>  (4069) 
-65.125741

>  <inchikey>  (4069) 
MAIYYSHJJZXKMS-UHFFFAOYSA-N

>  <smiles>  (4069) 
C=CC1(OC(=O)C2CCN(S(=O)(=O)N3CCCCC3)CC2)COC1

>  <ref_pdb>  (4069) 
A0875a

>  <alias>  (4069) 
MAIYYSHJJZXKMS-UHFFFAOYSA-N-P87-P87-P439-601505

>  <HIPPO Pose ID>  (4069) 
507664

>  <name>  (4069) 
MAIYYSHJJZXKMS-UHFFFAOYSA-N-P87-P87-P439-601505

>  <HIPPO Compound ID>  (4069) 
314368

>  <ref_mols>  (4069) 
A4706a,A0875a

>  <distance_score>  (4069) 
1.533976

>  <inspiration_score>  (4069) 
None

$$$$
MAIYYSHJJZXKMS-UHFFFAOYSA-N-P439-P87-P439-601505
     RDKit          3D

 24 26  0  0  0  0  0  0  0  0999 V2000
   17.3135   13.5107   29.3107 C   0  0  0  0  0  0  0  0  0  0  0  0
   17.2524   12.8125   28.1669 C   0  0  0  0  0  0  0  0  0  0  0  0
   16.1664   11.8116   27.8721 C   0  0  0  0  0  0  0  0  0  0  0  0
   14.9298   12.4099   27.3516 O   0  0  0  0  0  0  0  0  0  0  0  0
   14.5736   12.2864   26.0323 C   0  0  0  0  0  0  0  0  0  0  0  0
   15.2214   11.7675   25.1391 O   0  0  0  0  0  0  0  0  0  0  0  0
   13.1539   12.8073   25.8251 C   0  0  0  0  0  0  0  0  0  0  0  0
   12.7824   13.5958   24.6062 C   0  0  0  0  0  0  0  0  0  0  0  0
   11.4682   14.2898   24.8657 C   0  0  0  0  0  0  0  0  0  0  0  0
   10.4628   13.3509   25.4378 N   0  0  0  0  0  0  0  0  0  0  0  0
    8.9389   13.9441   25.0386 S   0  0  0  0  0  0  0  0  0  0  0  0
    8.6457   13.5652   23.6805 O   0  0  0  0  0  0  0  0  0  0  0  0
    8.9811   15.3320   25.4369 O   0  0  0  0  0  0  0  0  0  0  0  0
    7.8878   13.1812   26.0922 N   0  0  0  0  0  0  0  0  0  0  0  0
    7.5901   11.7502   25.8835 C   0  0  0  0  0  0  0  0  0  0  0  0
    6.1289   11.4120   26.1233 C   0  0  0  0  0  0  0  0  0  0  0  0
    5.5508   12.0099   27.3983 C   0  0  0  0  0  0  0  0  0  0  0  0
    5.9899   13.4501   27.6180 C   0  0  0  0  0  0  0  0  0  0  0  0
    6.6924   14.0212   26.3996 C   0  0  0  0  0  0  0  0  0  0  0  0
   10.8017   11.9477   25.1796 C   0  0  0  0  0  0  0  0  0  0  0  0
   12.1883   11.6548   25.8054 C   0  0  0  0  0  0  0  0  0  0  0  0
   16.7321   10.4948   27.2567 C   0  0  0  0  0  0  0  0  0  0  0  0
   16.7055    9.8170   28.5348 O   0  0  0  0  0  0  0  0  0  0  0  0
   15.9004   10.8700   29.0998 C   0  0  0  0  0  0  0  0  0  0  0  0
  1  2  2  0
  2  3  1  0
  3  4  1  0
  4  5  1  0
  5  6  2  0
  5  7  1  0
  7  8  1  0
  8  9  1  0
  9 10  1  0
 10 11  1  0
 11 12  2  0
 11 13  2  0
 11 14  1  0
 14 15  1  0
 15 16  1  0
 16 17  1  0
 17 18  1  0
 18 19  1  0
 10 20  1  0
 20 21  1  0
  3 22  1  0
 22 23  1  0
 23 24  1  0
 24  3  1  0
 21  7  1  0
 19 14  1  0
M  END
>  <energy_score>  (4070) 
-65.275541

>  <inchikey>  (4070) 
MAIYYSHJJZXKMS-UHFFFAOYSA-N

>  <smiles>  (4070) 
C=CC1(OC(=O)C2CCN(S(=O)(=O)N3CCCCC3)CC2)COC1

>  <ref_pdb>  (4070) 
A0875a

>  <alias>  (4070) 
MAIYYSHJJZXKMS-UHFFFAOYSA-N-P439-P87-P439-601505

>  <HIPPO Pose ID>  (4070) 
507665

>  <name>  (4070) 
MAIYYSHJJZXKMS-UHFFFAOYSA-N-P439-P87-P439-601505

>  <HIPPO Compound ID>  (4070) 
314368

>  <ref_mols>  (4070) 
A4706a,A0875a

>  <distance_score>  (4070) 
1.588557

>  <inspiration_score>  (4070) 
None

$$$$
YIPQLZDLDOBAJQ-UHFFFAOYSA-N-P87-P87-P439-601505
     RDKit          3D

 24 26  0  0  0  0  0  0  0  0999 V2000
   14.6893   10.8088   29.9428 C   0  0  0  0  0  0  0  0  0  0  0  0
   15.0501   11.4237   28.9760 C   0  0  0  0  0  0  0  0  0  0  0  0
   15.5304   12.1805   27.8277 C   0  0  0  0  0  0  0  0  0  0  0  0
   14.5116   12.1981   26.7795 O   0  0  0  0  0  0  0  0  0  0  0  0
   14.4530   11.0999   25.9916 C   0  0  0  0  0  0  0  0  0  0  0  0
   15.1370   10.0969   26.1512 O   0  0  0  0  0  0  0  0  0  0  0  0
   13.4436   11.1480   24.8533 C   0  0  0  0  0  0  0  0  0  0  0  0
   12.9923   12.5468   24.5285 C   0  0  0  0  0  0  0  0  0  0  0  0
   11.8736   12.8678   25.4781 C   0  0  0  0  0  0  0  0  0  0  0  0
   10.6269   12.1039   25.1469 N   0  0  0  0  0  0  0  0  0  0  0  0
    9.4443   13.2436   24.7780 S   0  0  0  0  0  0  0  0  0  0  0  0
    9.8611   13.9386   23.5854 O   0  0  0  0  0  0  0  0  0  0  0  0
    9.3565   13.9115   26.0510 O   0  0  0  0  0  0  0  0  0  0  0  0
    7.9532   12.5278   24.5027 N   0  0  0  0  0  0  0  0  0  0  0  0
    7.4304   11.6089   25.5098 C   0  0  0  0  0  0  0  0  0  0  0  0
    6.7221   12.2960   26.6554 C   0  0  0  0  0  0  0  0  0  0  0  0
    5.6072   13.2246   26.2549 C   0  0  0  0  0  0  0  0  0  0  0  0
    5.6809   13.7670   24.8404 C   0  0  0  0  0  0  0  0  0  0  0  0
    6.9226   13.5016   23.9747 C   0  0  0  0  0  0  0  0  0  0  0  0
   10.8503   10.9032   24.3368 C   0  0  0  0  0  0  0  0  0  0  0  0
   12.1722   10.1841   24.7920 C   0  0  0  0  0  0  0  0  0  0  0  0
   16.0907   13.5713   28.2282 C   0  0  0  0  0  0  0  0  0  0  0  0
   17.4544   13.1544   27.9948 O   0  0  0  0  0  0  0  0  0  0  0  0
   16.9970   11.9131   27.4133 C   0  0  0  0  0  0  0  0  0  0  0  0
  1  2  3  0
  2  3  1  0
  3  4  1  0
  4  5  1  0
  5  6  2  0
  5  7  1  0
  7  8  1  0
  8  9  1  0
  9 10  1  0
 10 11  1  0
 11 12  2  0
 11 13  2  0
 11 14  1  0
 14 15  1  0
 15 16  1  0
 16 17  1  0
 17 18  1  0
 18 19  1  0
 10 20  1  0
 20 21  1  0
  3 22  1  0
 22 23  1  0
 23 24  1  0
 24  3  1  0
 21  7  1  0
 19 14  1  0
M  END
>  <energy_score>  (4071) 
-27.047087

>  <inchikey>  (4071) 
YIPQLZDLDOBAJQ-UHFFFAOYSA-N

>  <smiles>  (4071) 
C#CC1(OC(=O)C2CCN(S(=O)(=O)N3CCCCC3)CC2)COC1

>  <ref_pdb>  (4071) 
A0875a

>  <alias>  (4071) 
YIPQLZDLDOBAJQ-UHFFFAOYSA-N-P87-P87-P439-601505

>  <HIPPO Pose ID>  (4071) 
507666

>  <name>  (4071) 
YIPQLZDLDOBAJQ-UHFFFAOYSA-N-P87-P87-P439-601505

>  <HIPPO Compound ID>  (4071) 
314369

>  <ref_mols>  (4071) 
A4706a,A0875a

>  <distance_score>  (4071) 
1.331462

>  <inspiration_score>  (4071) 
None

$$$$
YIPQLZDLDOBAJQ-UHFFFAOYSA-N-P439-P87-P439-601505
     RDKit          3D

 24 26  0  0  0  0  0  0  0  0999 V2000
   15.8751    9.3812   25.6241 C   0  0  0  0  0  0  0  0  0  0  0  0
   15.7004   10.3644   26.2827 C   0  0  0  0  0  0  0  0  0  0  0  0
   15.2622   11.5799   26.9035 C   0  0  0  0  0  0  0  0  0  0  0  0
   14.3192   12.2579   26.0187 O   0  0  0  0  0  0  0  0  0  0  0  0
   13.2181   11.5372   25.6665 C   0  0  0  0  0  0  0  0  0  0  0  0
   13.0782   10.3272   25.7757 O   0  0  0  0  0  0  0  0  0  0  0  0
   12.1431   12.3627   25.0657 C   0  0  0  0  0  0  0  0  0  0  0  0
   11.9073   13.6314   25.8595 C   0  0  0  0  0  0  0  0  0  0  0  0
   10.4419   13.9121   26.0885 C   0  0  0  0  0  0  0  0  0  0  0  0
    9.7179   13.7015   24.8234 N   0  0  0  0  0  0  0  0  0  0  0  0
    8.2438   14.4346   24.6984 S   0  0  0  0  0  0  0  0  0  0  0  0
    7.7789   14.2755   23.3468 O   0  0  0  0  0  0  0  0  0  0  0  0
    8.4066   15.7174   25.3325 O   0  0  0  0  0  0  0  0  0  0  0  0
    7.3148   13.4998   25.7431 N   0  0  0  0  0  0  0  0  0  0  0  0
    6.6905   12.2624   25.2306 C   0  0  0  0  0  0  0  0  0  0  0  0
    6.3883   11.3801   26.4355 C   0  0  0  0  0  0  0  0  0  0  0  0
    5.4339   12.0819   27.3975 C   0  0  0  0  0  0  0  0  0  0  0  0
    5.9401   13.4727   27.7665 C   0  0  0  0  0  0  0  0  0  0  0  0
    6.3220   14.2830   26.5326 C   0  0  0  0  0  0  0  0  0  0  0  0
    9.9604   12.4744   24.0590 C   0  0  0  0  0  0  0  0  0  0  0  0
   10.8232   11.5858   24.9140 C   0  0  0  0  0  0  0  0  0  0  0  0
   14.8471   11.5840   28.3974 C   0  0  0  0  0  0  0  0  0  0  0  0
   15.6075   12.8277   28.5877 O   0  0  0  0  0  0  0  0  0  0  0  0
   16.4409   12.4007   27.4648 C   0  0  0  0  0  0  0  0  0  0  0  0
  1  2  3  0
  2  3  1  0
  3  4  1  0
  4  5  1  0
  5  6  2  0
  5  7  1  0
  7  8  1  0
  8  9  1  0
  9 10  1  0
 10 11  1  0
 11 12  2  0
 11 13  2  0
 11 14  1  0
 14 15  1  0
 15 16  1  0
 16 17  1  0
 17 18  1  0
 18 19  1  0
 10 20  1  0
 20 21  1  0
  3 22  1  0
 22 23  1  0
 23 24  1  0
 24  3  1  0
 21  7  1  0
 19 14  1  0
M  END
>  <energy_score>  (4072) 
-49.869077

>  <inchikey>  (4072) 
YIPQLZDLDOBAJQ-UHFFFAOYSA-N

>  <smiles>  (4072) 
C#CC1(OC(=O)C2CCN(S(=O)(=O)N3CCCCC3)CC2)COC1

>  <ref_pdb>  (4072) 
A0875a

>  <alias>  (4072) 
YIPQLZDLDOBAJQ-UHFFFAOYSA-N-P439-P87-P439-601505

>  <HIPPO Pose ID>  (4072) 
507667

>  <name>  (4072) 
YIPQLZDLDOBAJQ-UHFFFAOYSA-N-P439-P87-P439-601505

>  <HIPPO Compound ID>  (4072) 
314369

>  <ref_mols>  (4072) 
A4706a,A0875a

>  <distance_score>  (4072) 
1.77126

>  <inspiration_score>  (4072) 
None

$$$$
TZHYANZSBOXEBD-UHFFFAOYSA-N-P87-P87-P439-601505
     RDKit          3D

 24 25  0  0  0  0  0  0  0  0999 V2000
   14.4713   10.2938   30.7195 C   0  0  0  0  0  0  0  0  0  0  0  0
   14.3810   11.1508   29.5842 O   0  0  0  0  0  0  0  0  0  0  0  0
   15.6110   11.1814   28.8560 C   0  0  0  0  0  0  0  0  0  0  0  0
   15.5748   12.3010   27.7898 C   0  0  0  0  0  0  0  0  0  0  0  0
   16.9321   12.4035   27.0820 C   0  0  0  0  0  0  0  0  0  0  0  0
   15.2828   13.6389   28.4929 C   0  0  0  0  0  0  0  0  0  0  0  0
   14.5059   12.1402   26.7993 O   0  0  0  0  0  0  0  0  0  0  0  0
   14.4759   11.0657   25.9852 C   0  0  0  0  0  0  0  0  0  0  0  0
   15.1964   10.0814   26.0926 O   0  0  0  0  0  0  0  0  0  0  0  0
   13.4467   11.1263   24.8625 C   0  0  0  0  0  0  0  0  0  0  0  0
   13.0039   12.5319   24.5501 C   0  0  0  0  0  0  0  0  0  0  0  0
   11.8828   12.8523   25.4970 C   0  0  0  0  0  0  0  0  0  0  0  0
   10.6326   12.0987   25.1503 N   0  0  0  0  0  0  0  0  0  0  0  0
    9.4569   13.2431   24.7772 S   0  0  0  0  0  0  0  0  0  0  0  0
    9.8772   13.9348   23.5838 O   0  0  0  0  0  0  0  0  0  0  0  0
    9.3638   13.9153   26.0473 O   0  0  0  0  0  0  0  0  0  0  0  0
    7.9635   12.5291   24.4986 N   0  0  0  0  0  0  0  0  0  0  0  0
    7.4394   11.6104   25.5054 C   0  0  0  0  0  0  0  0  0  0  0  0
    6.7290   12.2971   26.6498 C   0  0  0  0  0  0  0  0  0  0  0  0
    5.6138   13.2247   26.2476 C   0  0  0  0  0  0  0  0  0  0  0  0
    5.6897   13.7668   24.8332 C   0  0  0  0  0  0  0  0  0  0  0  0
    6.9345   13.5043   23.9706 C   0  0  0  0  0  0  0  0  0  0  0  0
   10.8551   10.8980   24.3399 C   0  0  0  0  0  0  0  0  0  0  0  0
   12.1726   10.1707   24.7954 C   0  0  0  0  0  0  0  0  0  0  0  0
  1  2  1  0
  2  3  1  0
  3  4  1  0
  4  5  1  0
  4  6  1  0
  4  7  1  0
  7  8  1  0
  8  9  2  0
  8 10  1  0
 10 11  1  0
 11 12  1  0
 12 13  1  0
 13 14  1  0
 14 15  2  0
 14 16  2  0
 14 17  1  0
 17 18  1  0
 18 19  1  0
 19 20  1  0
 20 21  1  0
 21 22  1  0
 13 23  1  0
 23 24  1  0
 24 10  1  0
 22 17  1  0
M  END
>  <energy_score>  (4073) 
-36.460257

>  <inchikey>  (4073) 
TZHYANZSBOXEBD-UHFFFAOYSA-N

>  <smiles>  (4073) 
COCC(C)(C)OC(=O)C1CCN(S(=O)(=O)N2CCCCC2)CC1

>  <ref_pdb>  (4073) 
A0875a

>  <alias>  (4073) 
TZHYANZSBOXEBD-UHFFFAOYSA-N-P87-P87-P439-601505

>  <HIPPO Pose ID>  (4073) 
507668

>  <name>  (4073) 
TZHYANZSBOXEBD-UHFFFAOYSA-N-P87-P87-P439-601505

>  <HIPPO Compound ID>  (4073) 
314370

>  <ref_mols>  (4073) 
A4706a,A0875a

>  <distance_score>  (4073) 
1.322342

>  <inspiration_score>  (4073) 
None

$$$$
TZHYANZSBOXEBD-UHFFFAOYSA-N-P439-P87-P439-601505
     RDKit          3D

 24 25  0  0  0  0  0  0  0  0999 V2000
   15.2814    9.7541   31.7206 C   0  0  0  0  0  0  0  0  0  0  0  0
   16.1139   10.5309   30.8670 O   0  0  0  0  0  0  0  0  0  0  0  0
   15.3767   11.1115   29.7957 C   0  0  0  0  0  0  0  0  0  0  0  0
   16.3016   11.8539   28.8064 C   0  0  0  0  0  0  0  0  0  0  0  0
   17.3940   10.9434   28.2354 C   0  0  0  0  0  0  0  0  0  0  0  0
   16.9970   13.0103   29.5463 C   0  0  0  0  0  0  0  0  0  0  0  0
   15.4827   12.4952   27.7773 O   0  0  0  0  0  0  0  0  0  0  0  0
   14.8176   11.7684   26.8370 C   0  0  0  0  0  0  0  0  0  0  0  0
   14.9973   10.5965   26.5531 O   0  0  0  0  0  0  0  0  0  0  0  0
   13.7259   12.6058   26.2050 C   0  0  0  0  0  0  0  0  0  0  0  0
   12.7734   13.0649   27.2905 C   0  0  0  0  0  0  0  0  0  0  0  0
   11.5156   13.7745   26.8052 C   0  0  0  0  0  0  0  0  0  0  0  0
   10.8607   13.0975   25.6493 N   0  0  0  0  0  0  0  0  0  0  0  0
    9.5360   14.0215   25.0585 S   0  0  0  0  0  0  0  0  0  0  0  0
    9.3529   13.7802   23.6500 O   0  0  0  0  0  0  0  0  0  0  0  0
    9.6806   15.3549   25.5860 O   0  0  0  0  0  0  0  0  0  0  0  0
    8.2415   13.3106   25.8730 N   0  0  0  0  0  0  0  0  0  0  0  0
    8.0063   11.8719   25.5917 C   0  0  0  0  0  0  0  0  0  0  0  0
    6.5746   11.4540   25.9244 C   0  0  0  0  0  0  0  0  0  0  0  0
    5.9875   12.2066   27.1106 C   0  0  0  0  0  0  0  0  0  0  0  0
    6.0695   13.7202   26.9236 C   0  0  0  0  0  0  0  0  0  0  0  0
    6.9982   14.1247   25.7855 C   0  0  0  0  0  0  0  0  0  0  0  0
   11.8260   12.7522   24.5830 C   0  0  0  0  0  0  0  0  0  0  0  0
   12.9035   11.8424   25.1792 C   0  0  0  0  0  0  0  0  0  0  0  0
  1  2  1  0
  2  3  1  0
  3  4  1  0
  4  5  1  0
  4  6  1  0
  4  7  1  0
  7  8  1  0
  8  9  2  0
  8 10  1  0
 10 11  1  0
 11 12  1  0
 12 13  1  0
 13 14  1  0
 14 15  2  0
 14 16  2  0
 14 17  1  0
 17 18  1  0
 18 19  1  0
 19 20  1  0
 20 21  1  0
 21 22  1  0
 13 23  1  0
 23 24  1  0
 24 10  1  0
 22 17  1  0
M  END
>  <energy_score>  (4074) 
-72.691558

>  <inchikey>  (4074) 
TZHYANZSBOXEBD-UHFFFAOYSA-N

>  <smiles>  (4074) 
COCC(C)(C)OC(=O)C1CCN(S(=O)(=O)N2CCCCC2)CC1

>  <ref_pdb>  (4074) 
A0875a

>  <alias>  (4074) 
TZHYANZSBOXEBD-UHFFFAOYSA-N-P439-P87-P439-601505

>  <HIPPO Pose ID>  (4074) 
507669

>  <name>  (4074) 
TZHYANZSBOXEBD-UHFFFAOYSA-N-P439-P87-P439-601505

>  <HIPPO Compound ID>  (4074) 
314370

>  <ref_mols>  (4074) 
A4706a,A0875a

>  <distance_score>  (4074) 
1.730732

>  <inspiration_score>  (4074) 
None

$$$$
CRUYGRLEHQLFHZ-UHFFFAOYSA-N-P87-P87-P439-601505
     RDKit          3D

 24 26  0  0  0  0  0  0  0  0999 V2000
   17.7274   13.5515   28.2812 N   0  0  0  0  0  0  0  0  0  0  0  0
   18.4552   12.3955   27.7463 C   0  0  0  0  0  0  0  0  0  0  0  0
   17.5433   11.1864   27.4503 C   0  0  0  0  0  0  0  0  0  0  0  0
   16.3611   11.6588   26.7410 O   0  0  0  0  0  0  0  0  0  0  0  0
   15.4946   10.7695   26.2073 C   0  0  0  0  0  0  0  0  0  0  0  0
   15.7540    9.6340   25.8414 O   0  0  0  0  0  0  0  0  0  0  0  0
   14.0615   11.2944   26.1972 C   0  0  0  0  0  0  0  0  0  0  0  0
   13.9222   12.7335   26.1322 C   0  0  0  0  0  0  0  0  0  0  0  0
   12.4712   13.1533   26.3014 C   0  0  0  0  0  0  0  0  0  0  0  0
   11.4498   12.4254   25.5153 N   0  0  0  0  0  0  0  0  0  0  0  0
   10.2541   13.5444   25.0357 S   0  0  0  0  0  0  0  0  0  0  0  0
   10.8172   14.3673   23.9938 O   0  0  0  0  0  0  0  0  0  0  0  0
    9.8426   14.1050   26.2978 O   0  0  0  0  0  0  0  0  0  0  0  0
    8.9512   12.7454   24.3761 N   0  0  0  0  0  0  0  0  0  0  0  0
    8.2859   11.6690   25.1051 C   0  0  0  0  0  0  0  0  0  0  0  0
    7.2247   12.1714   26.0601 C   0  0  0  0  0  0  0  0  0  0  0  0
    6.1934   13.0767   25.4345 C   0  0  0  0  0  0  0  0  0  0  0  0
    6.5775   13.6307   24.0717 C   0  0  0  0  0  0  0  0  0  0  0  0
    8.0409   13.7147   23.6884 C   0  0  0  0  0  0  0  0  0  0  0  0
   12.0714   11.6650   24.4578 C   0  0  0  0  0  0  0  0  0  0  0  0
   13.2537   10.7850   25.0034 C   0  0  0  0  0  0  0  0  0  0  0  0
   18.3798    9.9805   26.9675 C   0  0  0  0  0  0  0  0  0  0  0  0
   18.2535    9.3215   28.2512 O   0  0  0  0  0  0  0  0  0  0  0  0
   17.2956   10.3071   28.6949 C   0  0  0  0  0  0  0  0  0  0  0  0
  1  2  1  0
  2  3  1  0
  3  4  1  0
  4  5  1  0
  5  6  2  0
  5  7  1  0
  7  8  1  0
  8  9  1  0
  9 10  1  0
 10 11  1  0
 11 12  2  0
 11 13  2  0
 11 14  1  0
 14 15  1  0
 15 16  1  0
 16 17  1  0
 17 18  1  0
 18 19  1  0
 10 20  1  0
 20 21  1  0
  3 22  1  0
 22 23  1  0
 23 24  1  0
 24  3  1  0
 21  7  1  0
 19 14  1  0
M  END
>  <energy_score>  (4075) 
-22.023491

>  <inchikey>  (4075) 
CRUYGRLEHQLFHZ-UHFFFAOYSA-N

>  <smiles>  (4075) 
NCC1(OC(=O)C2CCN(S(=O)(=O)N3CCCCC3)CC2)COC1

>  <ref_pdb>  (4075) 
A0875a

>  <alias>  (4075) 
CRUYGRLEHQLFHZ-UHFFFAOYSA-N-P87-P87-P439-601505

>  <HIPPO Pose ID>  (4075) 
507670

>  <name>  (4075) 
CRUYGRLEHQLFHZ-UHFFFAOYSA-N-P87-P87-P439-601505

>  <HIPPO Compound ID>  (4075) 
314371

>  <ref_mols>  (4075) 
A4706a,A0875a

>  <distance_score>  (4075) 
1.688997

>  <inspiration_score>  (4075) 
None

$$$$
WWKFWAJHCBOZGV-UHFFFAOYSA-N-P87-P87-P439-601505
     RDKit          3D

 24 26  0  0  0  0  0  0  0  0999 V2000
   18.7686   11.8375   27.7750 C   0  0  0  0  0  0  0  0  0  0  0  0
   17.5942   10.9078   27.4748 C   0  0  2  0  0  0  0  0  0  0  0  0
   16.5180   11.7328   26.9791 O   0  0  0  0  0  0  0  0  0  0  0  0
   15.6194   11.1302   26.1609 C   0  0  0  0  0  0  0  0  0  0  0  0
   15.5837    9.9399   25.8819 O   0  0  0  0  0  0  0  0  0  0  0  0
   14.5994   12.1398   25.6697 C   0  0  0  0  0  0  0  0  0  0  0  0
   13.6692   12.5004   26.7972 C   0  0  0  0  0  0  0  0  0  0  0  0
   12.3585   13.1789   26.3957 C   0  0  0  0  0  0  0  0  0  0  0  0
   11.6938   12.7134   25.1519 N   0  0  0  0  0  0  0  0  0  0  0  0
   10.3225   13.6782   24.7876 S   0  0  0  0  0  0  0  0  0  0  0  0
   10.6980   14.7481   23.9034 O   0  0  0  0  0  0  0  0  0  0  0  0
    9.7457   13.9328   26.0849 O   0  0  0  0  0  0  0  0  0  0  0  0
    9.2306   12.7340   23.9543 N   0  0  0  0  0  0  0  0  0  0  0  0
    9.2307   11.2940   24.1204 C   0  0  0  0  0  0  0  0  0  0  0  0
    8.5106   10.9067   25.3742 C   0  0  0  0  0  0  0  0  0  0  0  0
    7.1337   11.4920   25.5674 C   0  0  0  0  0  0  0  0  0  0  0  0
    7.0402   12.9367   25.1650 C   0  0  0  0  0  0  0  0  0  0  0  0
    7.8571   13.3272   23.9283 C   0  0  0  0  0  0  0  0  0  0  0  0
   12.6676   12.5628   24.0709 C   0  0  0  0  0  0  0  0  0  0  0  0
   13.7374   11.5662   24.5690 C   0  0  0  0  0  0  0  0  0  0  0  0
   17.1825   10.1034   28.6961 C   0  0  2  0  0  0  0  0  0  0  0  0
   17.8383    8.7619   28.8477 C   0  0  0  0  0  0  0  0  0  0  0  0
   15.9058   10.3993   29.4729 C   0  0  0  0  0  0  0  0  0  0  0  0
   17.1782   10.8557   29.9274 O   0  0  0  0  0  0  0  0  0  0  0  0
  2  1  1  1
  2  3  1  0
  3  4  1  0
  4  5  2  0
  4  6  1  0
  6  7  1  0
  7  8  1  0
  8  9  1  0
  9 10  1  0
 10 11  2  0
 10 12  2  0
 10 13  1  0
 13 14  1  0
 14 15  1  0
 15 16  1  0
 16 17  1  0
 17 18  1  0
  9 19  1  0
 19 20  1  0
  2 21  1  0
 21 22  1  1
 21 23  1  0
 23 24  1  0
 20  6  1  0
 24 21  1  0
 18 13  1  0
M  END
>  <energy_score>  (4076) 
-52.29173

>  <inchikey>  (4076) 
WWKFWAJHCBOZGV-UHFFFAOYSA-N

>  <smiles>  (4076) 
CC(OC(=O)C1CCN(S(=O)(=O)N2CCCCC2)CC1)C1(C)CO1

>  <ref_pdb>  (4076) 
A0875a

>  <alias>  (4076) 
WWKFWAJHCBOZGV-UHFFFAOYSA-N-P87-P87-P439-601505

>  <HIPPO Pose ID>  (4076) 
507672

>  <name>  (4076) 
WWKFWAJHCBOZGV-UHFFFAOYSA-N-P87-P87-P439-601505

>  <HIPPO Compound ID>  (4076) 
314372

>  <ref_mols>  (4076) 
A4706a,A0875a

>  <distance_score>  (4076) 
1.889231

>  <inspiration_score>  (4076) 
None

$$$$
WWKFWAJHCBOZGV-UHFFFAOYSA-N-P439-P87-P439-601505
     RDKit          3D

 24 26  0  0  0  0  0  0  0  0999 V2000
   14.4397   13.8047   29.8444 C   0  0  0  0  0  0  0  0  0  0  0  0
   14.7338   12.6243   28.9207 C   0  0  2  0  0  0  0  0  0  0  0  0
   13.5210   12.3672   28.1708 O   0  0  0  0  0  0  0  0  0  0  0  0
   13.5973   12.4958   26.8174 C   0  0  0  0  0  0  0  0  0  0  0  0
   14.6282   12.4803   26.1600 O   0  0  0  0  0  0  0  0  0  0  0  0
   12.2194   12.6813   26.2004 C   0  0  0  0  0  0  0  0  0  0  0  0
   12.1966   13.8625   25.2128 C   0  0  0  0  0  0  0  0  0  0  0  0
   11.3369   13.6616   23.9641 C   0  0  0  0  0  0  0  0  0  0  0  0
   10.1028   12.9377   24.3271 N   0  0  0  0  0  0  0  0  0  0  0  0
    9.0206   13.9040   25.1860 S   0  0  0  0  0  0  0  0  0  0  0  0
    9.1342   15.2397   24.6519 O   0  0  0  0  0  0  0  0  0  0  0  0
    9.2458   13.6688   26.5920 O   0  0  0  0  0  0  0  0  0  0  0  0
    7.4972   13.3488   24.7630 N   0  0  0  0  0  0  0  0  0  0  0  0
    7.1035   11.9464   24.9522 C   0  0  0  0  0  0  0  0  0  0  0  0
    6.7600   11.6300   26.3965 C   0  0  0  0  0  0  0  0  0  0  0  0
    5.6983   12.5808   26.9429 C   0  0  0  0  0  0  0  0  0  0  0  0
    6.0364   14.0426   26.6549 C   0  0  0  0  0  0  0  0  0  0  0  0
    6.3880   14.2602   25.1827 C   0  0  0  0  0  0  0  0  0  0  0  0
   10.4123   11.5879   24.8494 C   0  0  0  0  0  0  0  0  0  0  0  0
   11.8565   11.4853   25.3616 C   0  0  0  0  0  0  0  0  0  0  0  0
   15.1960   11.4228   29.7036 C   0  0  2  0  0  0  0  0  0  0  0  0
   14.3025   10.8339   30.7452 C   0  0  0  0  0  0  0  0  0  0  0  0
   16.6914   11.2106   29.8773 C   0  0  0  0  0  0  0  0  0  0  0  0
   15.9242   10.4669   28.9259 O   0  0  0  0  0  0  0  0  0  0  0  0
  2  1  1  1
  2  3  1  0
  3  4  1  0
  4  5  2  0
  4  6  1  0
  6  7  1  0
  7  8  1  0
  8  9  1  0
  9 10  1  0
 10 11  2  0
 10 12  2  0
 10 13  1  0
 13 14  1  0
 14 15  1  0
 15 16  1  0
 16 17  1  0
 17 18  1  0
  9 19  1  0
 19 20  1  0
  2 21  1  0
 21 22  1  1
 21 23  1  0
 23 24  1  0
 20  6  1  0
 24 21  1  0
 18 13  1  0
M  END
>  <energy_score>  (4077) 
-51.541681

>  <inchikey>  (4077) 
WWKFWAJHCBOZGV-UHFFFAOYSA-N

>  <smiles>  (4077) 
CC(OC(=O)C1CCN(S(=O)(=O)N2CCCCC2)CC1)C1(C)CO1

>  <ref_pdb>  (4077) 
A0875a

>  <alias>  (4077) 
WWKFWAJHCBOZGV-UHFFFAOYSA-N-P439-P87-P439-601505

>  <HIPPO Pose ID>  (4077) 
507673

>  <name>  (4077) 
WWKFWAJHCBOZGV-UHFFFAOYSA-N-P439-P87-P439-601505

>  <HIPPO Compound ID>  (4077) 
314372

>  <ref_mols>  (4077) 
A4706a,A0875a

>  <distance_score>  (4077) 
1.71194

>  <inspiration_score>  (4077) 
None

$$$$
QGHSTAJKFDYVEK-UHFFFAOYSA-N-P439-P87-P439-601505
     RDKit          3D

 24 26  0  0  0  0  0  0  0  0999 V2000
    9.9707   15.1950   19.1471 C   0  0  0  0  0  0  0  0  0  0  0  0
   10.3104   14.9384   20.4102 C   0  0  0  0  0  0  0  0  0  0  0  0
   11.7435   14.6530   20.7588 C   0  0  0  0  0  0  0  0  0  0  0  0
   11.9444   15.1766   22.0789 O   0  0  0  0  0  0  0  0  0  0  0  0
   10.7057   15.8100   22.4040 C   0  0  0  0  0  0  0  0  0  0  0  0
    9.6156   14.9607   21.7485 C   0  0  1  0  0  0  0  0  0  0  0  0
    8.3120   15.5156   22.0191 O   0  0  0  0  0  0  0  0  0  0  0  0
    7.3408   14.5894   22.2936 C   0  0  0  0  0  0  0  0  0  0  0  0
    7.1672   13.5977   21.5904 O   0  0  0  0  0  0  0  0  0  0  0  0
    6.4118   14.8703   23.5239 C   0  0  0  0  0  0  0  0  0  0  0  0
    5.6564   13.5943   24.0049 C   0  0  0  0  0  0  0  0  0  0  0  0
    6.3154   12.7054   25.0860 C   0  0  0  0  0  0  0  0  0  0  0  0
    7.5518   13.3166   25.6414 N   0  0  0  0  0  0  0  0  0  0  0  0
    8.9166   13.0894   24.6833 S   0  0  0  0  0  0  0  0  0  0  0  0
    8.4847   12.2925   23.5639 O   0  0  0  0  0  0  0  0  0  0  0  0
    9.5522   14.3662   24.5159 O   0  0  0  0  0  0  0  0  0  0  0  0
    9.9661   12.1470   25.6046 N   0  0  0  0  0  0  0  0  0  0  0  0
   10.2654   10.8711   24.8783 C   0  0  0  0  0  0  0  0  0  0  0  0
   11.5793   10.2288   25.2637 C   0  0  0  0  0  0  0  0  0  0  0  0
   12.7664   11.2143   25.4386 C   0  0  0  0  0  0  0  0  0  0  0  0
   12.3532   12.6561   25.2126 C   0  0  0  0  0  0  0  0  0  0  0  0
   11.1505   12.9131   26.0999 C   0  0  0  0  0  0  0  0  0  0  0  0
    7.2561   14.7231   26.0020 C   0  0  0  0  0  0  0  0  0  0  0  0
    7.0118   15.5781   24.7481 C   0  0  0  0  0  0  0  0  0  0  0  0
  1  2  2  0
  2  3  1  0
  3  4  1  0
  4  5  1  0
  5  6  1  0
  6  7  1  6
  7  8  1  0
  8  9  2  0
  8 10  1  0
 10 11  1  0
 11 12  1  0
 12 13  1  0
 13 14  1  0
 14 15  2  0
 14 16  2  0
 14 17  1  0
 17 18  1  0
 18 19  1  0
 19 20  1  0
 20 21  1  0
 21 22  1  0
 13 23  1  0
 23 24  1  0
  6  2  1  0
 24 10  1  0
 22 17  1  0
M  END
>  <energy_score>  (4078) 
-17.760243

>  <inchikey>  (4078) 
QGHSTAJKFDYVEK-UHFFFAOYSA-N

>  <smiles>  (4078) 
C=C1COCC1OC(=O)C1CCN(S(=O)(=O)N2CCCCC2)CC1

>  <ref_pdb>  (4078) 
A0875a

>  <alias>  (4078) 
QGHSTAJKFDYVEK-UHFFFAOYSA-N-P439-P87-P439-601505

>  <HIPPO Pose ID>  (4078) 
507675

>  <name>  (4078) 
QGHSTAJKFDYVEK-UHFFFAOYSA-N-P439-P87-P439-601505

>  <HIPPO Compound ID>  (4078) 
314373

>  <ref_mols>  (4078) 
A4706a,A0875a

>  <distance_score>  (4078) 
1.864983

>  <inspiration_score>  (4078) 
None

$$$$
YHTXAKLMEWRTTI-UHFFFAOYSA-N-P439-P87-P439-601505
     RDKit          3D

 24 26  0  0  0  0  0  0  0  0999 V2000
    6.7794   13.4205   22.0080 O   0  0  0  0  0  0  0  0  0  0  0  0
    7.0543   14.2916   22.8332 C   0  0  0  0  0  0  0  0  0  0  0  0
    8.1349   15.1249   22.7330 O   0  0  0  0  0  0  0  0  0  0  0  0
    9.2642   14.6625   21.9323 C   0  0  1  0  0  0  0  0  0  0  0  0
    9.1464   14.9906   20.4870 C   0  0  0  0  0  0  0  0  0  0  0  0
   10.2425   15.0719   19.7231 C   0  0  0  0  0  0  0  0  0  0  0  0
   11.5624   14.8528   20.3709 C   0  0  0  0  0  0  0  0  0  0  0  0
   11.6069   15.5972   21.5784 O   0  0  0  0  0  0  0  0  0  0  0  0
   10.6140   15.1686   22.5171 C   0  0  0  0  0  0  0  0  0  0  0  0
    6.2173   14.4691   24.1342 C   0  0  0  0  0  0  0  0  0  0  0  0
    5.8039   13.1000   24.7417 C   0  0  0  0  0  0  0  0  0  0  0  0
    6.7529   12.4230   25.7530 C   0  0  0  0  0  0  0  0  0  0  0  0
    7.8428   13.3354   26.1892 N   0  0  0  0  0  0  0  0  0  0  0  0
    9.1670   13.3717   25.1540 S   0  0  0  0  0  0  0  0  0  0  0  0
    9.7057   14.7072   25.1611 O   0  0  0  0  0  0  0  0  0  0  0  0
    8.7254   12.7147   23.9509 O   0  0  0  0  0  0  0  0  0  0  0  0
   10.2987   12.3275   25.8334 N   0  0  0  0  0  0  0  0  0  0  0  0
   11.5760   12.9869   26.2231 C   0  0  0  0  0  0  0  0  0  0  0  0
   12.6807   12.6186   25.2569 C   0  0  0  0  0  0  0  0  0  0  0  0
   12.9573   11.1387   25.4305 C   0  0  0  0  0  0  0  0  0  0  0  0
   11.6720   10.2780   25.2895 C   0  0  0  0  0  0  0  0  0  0  0  0
   10.4227   11.0805   25.0023 C   0  0  0  0  0  0  0  0  0  0  0  0
    7.2627   14.6693   26.5004 C   0  0  0  0  0  0  0  0  0  0  0  0
    6.7685   15.3868   25.2361 C   0  0  0  0  0  0  0  0  0  0  0  0
  1  2  2  0
  2  3  1  0
  4  3  1  1
  4  5  1  0
  5  6  2  0
  6  7  1  0
  7  8  1  0
  8  9  1  0
  2 10  1  0
 10 11  1  0
 11 12  1  0
 12 13  1  0
 13 14  1  0
 14 15  2  0
 14 16  2  0
 14 17  1  0
 17 18  1  0
 18 19  1  0
 19 20  1  0
 20 21  1  0
 21 22  1  0
 13 23  1  0
 23 24  1  0
  9  4  1  0
 24 10  1  0
 22 17  1  0
M  END
>  <energy_score>  (4079) 
-10.85038

>  <inchikey>  (4079) 
YHTXAKLMEWRTTI-UHFFFAOYSA-N

>  <smiles>  (4079) 
O=C(OC1C=CCOC1)C1CCN(S(=O)(=O)N2CCCCC2)CC1

>  <ref_pdb>  (4079) 
A0875a

>  <alias>  (4079) 
YHTXAKLMEWRTTI-UHFFFAOYSA-N-P439-P87-P439-601505

>  <HIPPO Pose ID>  (4079) 
507677

>  <name>  (4079) 
YHTXAKLMEWRTTI-UHFFFAOYSA-N-P439-P87-P439-601505

>  <HIPPO Compound ID>  (4079) 
314374

>  <ref_mols>  (4079) 
A4706a,A0875a

>  <distance_score>  (4079) 
1.555487

>  <inspiration_score>  (4079) 
None

$$$$
BIVMVLCHXGCTEU-UHFFFAOYSA-N-P87-P87-P439-601505
     RDKit          3D

 24 26  0  0  0  0  0  0  0  0999 V2000
   14.4764   11.0867   30.5183 C   0  0  0  0  0  0  0  0  0  0  0  0
   14.4340   11.1063   29.0951 O   0  0  0  0  0  0  0  0  0  0  0  0
   15.2412   12.1504   28.5670 C   0  0  0  0  0  0  0  0  0  0  0  0
   15.3667   11.9747   27.0743 C   0  0  0  0  0  0  0  0  0  0  0  0
   14.1910   12.3777   26.3310 O   0  0  0  0  0  0  0  0  0  0  0  0
   13.5007   11.5202   25.5350 C   0  0  0  0  0  0  0  0  0  0  0  0
   13.7768   10.3458   25.3234 O   0  0  0  0  0  0  0  0  0  0  0  0
   12.2686   12.2067   24.9751 C   0  0  0  0  0  0  0  0  0  0  0  0
   12.6223   12.9840   23.7254 C   0  0  0  0  0  0  0  0  0  0  0  0
   11.4562   13.6484   23.0251 C   0  0  0  0  0  0  0  0  0  0  0  0
   10.1699   12.9780   23.3308 N   0  0  0  0  0  0  0  0  0  0  0  0
    9.2091   13.8839   24.3467 S   0  0  0  0  0  0  0  0  0  0  0  0
    9.1092   15.1611   23.6858 O   0  0  0  0  0  0  0  0  0  0  0  0
    9.7499   13.7512   25.6828 O   0  0  0  0  0  0  0  0  0  0  0  0
    7.7348   13.1005   24.3160 N   0  0  0  0  0  0  0  0  0  0  0  0
    7.4638   11.9938   25.2269 C   0  0  0  0  0  0  0  0  0  0  0  0
    6.6992   12.4309   26.4503 C   0  0  0  0  0  0  0  0  0  0  0  0
    5.4974   13.3106   26.1865 C   0  0  0  0  0  0  0  0  0  0  0  0
    5.4134   13.9962   24.8241 C   0  0  0  0  0  0  0  0  0  0  0  0
    6.5522   13.8333   23.8080 C   0  0  0  0  0  0  0  0  0  0  0  0
   10.3005   11.5358   23.4709 C   0  0  0  0  0  0  0  0  0  0  0  0
   11.1272   11.2041   24.6955 C   0  0  0  0  0  0  0  0  0  0  0  0
   16.3696   11.0149   26.4798 C   0  0  0  0  0  0  0  0  0  0  0  0
   16.6480   12.4854   26.4641 C   0  0  0  0  0  0  0  0  0  0  0  0
  1  2  1  0
  2  3  1  0
  3  4  1  0
  4  5  1  0
  5  6  1  0
  6  7  2  0
  6  8  1  0
  8  9  1  0
  9 10  1  0
 10 11  1  0
 11 12  1  0
 12 13  2  0
 12 14  2  0
 12 15  1  0
 15 16  1  0
 16 17  1  0
 17 18  1  0
 18 19  1  0
 19 20  1  0
 11 21  1  0
 21 22  1  0
  4 23  1  0
 23 24  1  0
 24  4  1  0
 22  8  1  0
 20 15  1  0
M  END
>  <energy_score>  (4080) 
-49.338268

>  <inchikey>  (4080) 
BIVMVLCHXGCTEU-UHFFFAOYSA-N

>  <smiles>  (4080) 
COCC1(OC(=O)C2CCN(S(=O)(=O)N3CCCCC3)CC2)CC1

>  <ref_pdb>  (4080) 
A0875a

>  <alias>  (4080) 
BIVMVLCHXGCTEU-UHFFFAOYSA-N-P87-P87-P439-601505

>  <HIPPO Pose ID>  (4080) 
507678

>  <name>  (4080) 
BIVMVLCHXGCTEU-UHFFFAOYSA-N-P87-P87-P439-601505

>  <HIPPO Compound ID>  (4080) 
314375

>  <ref_mols>  (4080) 
A4706a,A0875a

>  <distance_score>  (4080) 
1.64981

>  <inspiration_score>  (4080) 
None

$$$$
BIVMVLCHXGCTEU-UHFFFAOYSA-N-P439-P87-P439-601505
     RDKit          3D

 24 26  0  0  0  0  0  0  0  0999 V2000
   16.0475   13.3507   30.3802 C   0  0  0  0  0  0  0  0  0  0  0  0
   16.0713   13.4412   28.9590 O   0  0  0  0  0  0  0  0  0  0  0  0
   17.0834   12.5933   28.3838 C   0  0  0  0  0  0  0  0  0  0  0  0
   16.5532   11.1941   28.2272 C   0  0  0  0  0  0  0  0  0  0  0  0
   15.1396   11.1344   27.9247 O   0  0  0  0  0  0  0  0  0  0  0  0
   14.7373   11.4342   26.6583 C   0  0  0  0  0  0  0  0  0  0  0  0
   15.4467   11.4607   25.6645 O   0  0  0  0  0  0  0  0  0  0  0  0
   13.2582   11.7862   26.6502 C   0  0  0  0  0  0  0  0  0  0  0  0
   13.1482   13.2567   26.6977 C   0  0  0  0  0  0  0  0  0  0  0  0
   11.7179   13.7573   26.7732 C   0  0  0  0  0  0  0  0  0  0  0  0
   10.8032   12.9928   25.8864 N   0  0  0  0  0  0  0  0  0  0  0  0
    9.4772   13.9596   25.4475 S   0  0  0  0  0  0  0  0  0  0  0  0
    9.8669   14.7901   24.3345 O   0  0  0  0  0  0  0  0  0  0  0  0
    8.9988   14.5453   26.6778 O   0  0  0  0  0  0  0  0  0  0  0  0
    8.3160   12.8546   24.9276 N   0  0  0  0  0  0  0  0  0  0  0  0
    8.1254   11.6316   25.7447 C   0  0  0  0  0  0  0  0  0  0  0  0
    6.6850   11.4211   26.1902 C   0  0  0  0  0  0  0  0  0  0  0  0
    6.0881   12.6962   26.7597 C   0  0  0  0  0  0  0  0  0  0  0  0
    6.1510   13.8347   25.7433 C   0  0  0  0  0  0  0  0  0  0  0  0
    7.0368   13.5213   24.5350 C   0  0  0  0  0  0  0  0  0  0  0  0
   11.5021   12.3194   24.7893 C   0  0  0  0  0  0  0  0  0  0  0  0
   12.5366   11.3278   25.3828 C   0  0  0  0  0  0  0  0  0  0  0  0
   17.0532   10.1178   29.1632 C   0  0  0  0  0  0  0  0  0  0  0  0
   17.4407   10.0890   27.7129 C   0  0  0  0  0  0  0  0  0  0  0  0
  1  2  1  0
  2  3  1  0
  3  4  1  0
  4  5  1  0
  5  6  1  0
  6  7  2  0
  6  8  1  0
  8  9  1  0
  9 10  1  0
 10 11  1  0
 11 12  1  0
 12 13  2  0
 12 14  2  0
 12 15  1  0
 15 16  1  0
 16 17  1  0
 17 18  1  0
 18 19  1  0
 19 20  1  0
 11 21  1  0
 21 22  1  0
  4 23  1  0
 23 24  1  0
 24  4  1  0
 22  8  1  0
 20 15  1  0
M  END
>  <energy_score>  (4081) 
-66.740569

>  <inchikey>  (4081) 
BIVMVLCHXGCTEU-UHFFFAOYSA-N

>  <smiles>  (4081) 
COCC1(OC(=O)C2CCN(S(=O)(=O)N3CCCCC3)CC2)CC1

>  <ref_pdb>  (4081) 
A0875a

>  <alias>  (4081) 
BIVMVLCHXGCTEU-UHFFFAOYSA-N-P439-P87-P439-601505

>  <HIPPO Pose ID>  (4081) 
507679

>  <name>  (4081) 
BIVMVLCHXGCTEU-UHFFFAOYSA-N-P439-P87-P439-601505

>  <HIPPO Compound ID>  (4081) 
314375

>  <ref_mols>  (4081) 
A4706a,A0875a

>  <distance_score>  (4081) 
1.494386

>  <inspiration_score>  (4081) 
None

$$$$
JBTUBECIVPSUQD-UHFFFAOYSA-N-P87-P87-P439-601505
     RDKit          3D

 24 25  0  0  0  0  0  0  0  0999 V2000
   17.8480    9.9517   29.8189 C   0  0  0  0  0  0  0  0  0  0  0  0
   16.6300   10.6787   29.7189 O   0  0  0  0  0  0  0  0  0  0  0  0
   16.2471   10.8889   28.3597 C   0  0  0  0  0  0  0  0  0  0  0  0
   14.9490   11.7215   28.3139 C   0  0  1  0  0  0  0  0  0  0  0  0
   15.2062   13.2273   28.2815 C   0  0  0  0  0  0  0  0  0  0  0  0
   15.7398   13.9297   30.0104 Br  0  0  0  0  0  0  0  0  0  0  0  0
   14.0445   11.3714   27.2074 O   0  0  0  0  0  0  0  0  0  0  0  0
   14.5381   11.2411   25.9650 C   0  0  0  0  0  0  0  0  0  0  0  0
   15.7265   11.3293   25.6879 O   0  0  0  0  0  0  0  0  0  0  0  0
   13.4733   11.0720   24.8788 C   0  0  0  0  0  0  0  0  0  0  0  0
   13.0577   12.4712   24.4839 C   0  0  0  0  0  0  0  0  0  0  0  0
   11.9305   12.8790   25.3941 C   0  0  0  0  0  0  0  0  0  0  0  0
   10.6724   12.1074   25.1322 N   0  0  0  0  0  0  0  0  0  0  0  0
    9.4744   13.2390   24.7720 S   0  0  0  0  0  0  0  0  0  0  0  0
    9.8727   13.9254   23.5673 O   0  0  0  0  0  0  0  0  0  0  0  0
    9.4029   13.9199   26.0393 O   0  0  0  0  0  0  0  0  0  0  0  0
    7.9793   12.5248   24.5109 N   0  0  0  0  0  0  0  0  0  0  0  0
    7.4537   11.6084   25.5170 C   0  0  0  0  0  0  0  0  0  0  0  0
    6.7414   12.2996   26.6577 C   0  0  0  0  0  0  0  0  0  0  0  0
    5.6215   13.2189   26.2511 C   0  0  0  0  0  0  0  0  0  0  0  0
    5.6999   13.7589   24.8366 C   0  0  0  0  0  0  0  0  0  0  0  0
    6.9476   13.4970   23.9781 C   0  0  0  0  0  0  0  0  0  0  0  0
   10.8679   10.8805   24.3605 C   0  0  0  0  0  0  0  0  0  0  0  0
   12.1837   10.1466   24.8272 C   0  0  0  0  0  0  0  0  0  0  0  0
  1  2  1  0
  2  3  1  0
  4  3  1  6
  4  5  1  0
  5  6  1  0
  4  7  1  0
  7  8  1  0
  8  9  2  0
  8 10  1  0
 10 11  1  0
 11 12  1  0
 12 13  1  0
 13 14  1  0
 14 15  2  0
 14 16  2  0
 14 17  1  0
 17 18  1  0
 18 19  1  0
 19 20  1  0
 20 21  1  0
 21 22  1  0
 13 23  1  0
 23 24  1  0
 24 10  1  0
 22 17  1  0
M  END
>  <energy_score>  (4082) 
-41.924692

>  <inchikey>  (4082) 
JBTUBECIVPSUQD-UHFFFAOYSA-N

>  <smiles>  (4082) 
COCC(CBr)OC(=O)C1CCN(S(=O)(=O)N2CCCCC2)CC1

>  <ref_pdb>  (4082) 
A0875a

>  <alias>  (4082) 
JBTUBECIVPSUQD-UHFFFAOYSA-N-P87-P87-P439-601505

>  <HIPPO Pose ID>  (4082) 
507682

>  <name>  (4082) 
JBTUBECIVPSUQD-UHFFFAOYSA-N-P87-P87-P439-601505

>  <HIPPO Compound ID>  (4082) 
314377

>  <ref_mols>  (4082) 
A4706a,A0875a

>  <distance_score>  (4082) 
1.233874

>  <inspiration_score>  (4082) 
None

$$$$
AQBPLMQGMLAYHT-UHFFFAOYSA-N-P87-P87-P439-601505
     RDKit          3D

 24 26  0  0  0  0  0  0  0  0999 V2000
   16.1902   10.4343   26.4234 C   0  0  0  0  0  0  0  0  0  0  0  0
   15.4436   11.6372   27.0213 C   0  0  0  0  0  0  0  0  0  0  0  0
   15.2460   11.4123   28.5330 C   0  0  0  0  0  0  0  0  0  0  0  0
   14.0785   11.7876   26.4770 O   0  0  0  0  0  0  0  0  0  0  0  0
   13.8725   11.8785   25.1349 C   0  0  0  0  0  0  0  0  0  0  0  0
   14.6936   11.5627   24.2843 O   0  0  0  0  0  0  0  0  0  0  0  0
   12.4980   12.4503   24.7901 C   0  0  0  0  0  0  0  0  0  0  0  0
   12.6043   13.1744   23.4506 C   0  0  0  0  0  0  0  0  0  0  0  0
   11.3295   13.7487   22.8952 C   0  0  0  0  0  0  0  0  0  0  0  0
   10.1425   12.9902   23.3440 N   0  0  0  0  0  0  0  0  0  0  0  0
    9.2074   13.8875   24.3854 S   0  0  0  0  0  0  0  0  0  0  0  0
    9.0650   15.1608   23.7239 O   0  0  0  0  0  0  0  0  0  0  0  0
    9.7932   13.7634   25.7030 O   0  0  0  0  0  0  0  0  0  0  0  0
    7.7449   13.0916   24.3850 N   0  0  0  0  0  0  0  0  0  0  0  0
    7.4958   11.9750   25.2839 C   0  0  0  0  0  0  0  0  0  0  0  0
    6.7020   12.4008   26.4950 C   0  0  0  0  0  0  0  0  0  0  0  0
    5.4960   13.2738   26.2227 C   0  0  0  0  0  0  0  0  0  0  0  0
    5.4171   13.9653   24.8639 C   0  0  0  0  0  0  0  0  0  0  0  0
    6.5555   13.7911   23.8520 C   0  0  0  0  0  0  0  0  0  0  0  0
   10.4116   11.5743   23.5649 C   0  0  0  0  0  0  0  0  0  0  0  0
   11.3807   11.3976   24.7267 C   0  0  0  0  0  0  0  0  0  0  0  0
   16.2406   12.8902   26.7491 C   0  0  2  0  0  0  0  0  0  0  0  0
   17.4437   13.3268   27.5526 C   0  0  0  0  0  0  0  0  0  0  0  0
   16.1495   13.9193   27.7415 O   0  0  0  0  0  0  0  0  0  0  0  0
  1  2  1  0
  2  3  1  0
  2  4  1  0
  4  5  1  0
  5  6  2  0
  5  7  1  0
  7  8  1  0
  8  9  1  0
  9 10  1  0
 10 11  1  0
 11 12  2  0
 11 13  2  0
 11 14  1  0
 14 15  1  0
 15 16  1  0
 16 17  1  0
 17 18  1  0
 18 19  1  0
 10 20  1  0
 20 21  1  0
 22  2  1  1
 22 23  1  0
 23 24  1  0
 21  7  1  0
 24 22  1  0
 19 14  1  0
M  END
>  <energy_score>  (4083) 
-46.296953

>  <inchikey>  (4083) 
AQBPLMQGMLAYHT-UHFFFAOYSA-N

>  <smiles>  (4083) 
CC(C)(OC(=O)C1CCN(S(=O)(=O)N2CCCCC2)CC1)C1CO1

>  <ref_pdb>  (4083) 
A0875a

>  <alias>  (4083) 
AQBPLMQGMLAYHT-UHFFFAOYSA-N-P87-P87-P439-601505

>  <HIPPO Pose ID>  (4083) 
507684

>  <name>  (4083) 
AQBPLMQGMLAYHT-UHFFFAOYSA-N-P87-P87-P439-601505

>  <HIPPO Compound ID>  (4083) 
314378

>  <ref_mols>  (4083) 
A4706a,A0875a

>  <distance_score>  (4083) 
1.522396

>  <inspiration_score>  (4083) 
None

$$$$
AQBPLMQGMLAYHT-UHFFFAOYSA-N-P439-P87-P439-601505
     RDKit          3D

 24 26  0  0  0  0  0  0  0  0999 V2000
   17.0127   12.7262   27.8945 C   0  0  0  0  0  0  0  0  0  0  0  0
   15.6872   11.9466   27.7714 C   0  0  0  0  0  0  0  0  0  0  0  0
   16.0787   10.6263   27.1291 C   0  0  0  0  0  0  0  0  0  0  0  0
   14.6468   12.6706   27.0093 O   0  0  0  0  0  0  0  0  0  0  0  0
   14.0244   12.1885   25.8843 C   0  0  0  0  0  0  0  0  0  0  0  0
   14.4999   11.4177   25.0616 O   0  0  0  0  0  0  0  0  0  0  0  0
   12.6181   12.7440   25.7130 C   0  0  0  0  0  0  0  0  0  0  0  0
   12.5563   13.6853   24.5376 C   0  0  0  0  0  0  0  0  0  0  0  0
   11.2598   14.4575   24.6007 C   0  0  0  0  0  0  0  0  0  0  0  0
   10.1405   13.5178   24.8442 N   0  0  0  0  0  0  0  0  0  0  0  0
    8.6790   14.2436   24.6126 S   0  0  0  0  0  0  0  0  0  0  0  0
    8.5955   14.6001   23.2195 O   0  0  0  0  0  0  0  0  0  0  0  0
    8.5880   15.2443   25.6519 O   0  0  0  0  0  0  0  0  0  0  0  0
    7.5256   13.0550   24.9322 N   0  0  0  0  0  0  0  0  0  0  0  0
    7.6504   12.3671   26.2441 C   0  0  0  0  0  0  0  0  0  0  0  0
    6.3325   11.7182   26.6394 C   0  0  0  0  0  0  0  0  0  0  0  0
    5.2858   12.7883   26.9169 C   0  0  0  0  0  0  0  0  0  0  0  0
    5.4451   13.9804   25.9774 C   0  0  0  0  0  0  0  0  0  0  0  0
    6.1351   13.5763   24.6779 C   0  0  0  0  0  0  0  0  0  0  0  0
   10.4417   12.1597   24.3985 C   0  0  0  0  0  0  0  0  0  0  0  0
   11.4875   11.7183   25.4541 C   0  0  0  0  0  0  0  0  0  0  0  0
   15.1401   11.8720   29.1869 C   0  0  2  0  0  0  0  0  0  0  0  0
   15.1936   10.6715   30.1008 C   0  0  0  0  0  0  0  0  0  0  0  0
   14.0124   11.0209   29.3621 O   0  0  0  0  0  0  0  0  0  0  0  0
  1  2  1  0
  2  3  1  0
  2  4  1  0
  4  5  1  0
  5  6  2  0
  5  7  1  0
  7  8  1  0
  8  9  1  0
  9 10  1  0
 10 11  1  0
 11 12  2  0
 11 13  2  0
 11 14  1  0
 14 15  1  0
 15 16  1  0
 16 17  1  0
 17 18  1  0
 18 19  1  0
 10 20  1  0
 20 21  1  0
 22  2  1  6
 22 23  1  0
 23 24  1  0
 21  7  1  0
 24 22  1  0
 19 14  1  0
M  END
>  <energy_score>  (4084) 
-40.381086

>  <inchikey>  (4084) 
AQBPLMQGMLAYHT-UHFFFAOYSA-N

>  <smiles>  (4084) 
CC(C)(OC(=O)C1CCN(S(=O)(=O)N2CCCCC2)CC1)C1CO1

>  <ref_pdb>  (4084) 
A0875a

>  <alias>  (4084) 
AQBPLMQGMLAYHT-UHFFFAOYSA-N-P439-P87-P439-601505

>  <HIPPO Pose ID>  (4084) 
507685

>  <name>  (4084) 
AQBPLMQGMLAYHT-UHFFFAOYSA-N-P439-P87-P439-601505

>  <HIPPO Compound ID>  (4084) 
314378

>  <ref_mols>  (4084) 
A4706a,A0875a

>  <distance_score>  (4084) 
1.629264

>  <inspiration_score>  (4084) 
None

$$$$
BAKBEGKYCJEHDW-UHFFFAOYSA-N-P439-P87-P439-601505
     RDKit          3D

 25 27  0  0  0  0  0  0  0  0999 V2000
   11.0035   14.8018   18.7557 C   0  0  0  0  0  0  0  0  0  0  0  0
   10.2289   15.3656   19.7950 O   0  0  0  0  0  0  0  0  0  0  0  0
    9.8579   14.4699   20.8535 C   0  0  1  0  0  0  0  0  0  0  0  0
   11.0598   13.9094   21.6088 C   0  0  0  0  0  0  0  0  0  0  0  0
   11.6228   15.1108   22.3007 C   0  0  0  0  0  0  0  0  0  0  0  0
   10.4055   15.9665   22.5656 C   0  0  0  0  0  0  0  0  0  0  0  0
    9.1736   15.3308   21.9174 C   0  0  2  0  0  0  0  0  0  0  0  0
    8.3901   14.6473   22.9304 O   0  0  0  0  0  0  0  0  0  0  0  0
    7.1851   14.1740   22.5295 C   0  0  0  0  0  0  0  0  0  0  0  0
    6.9054   13.9331   21.3608 O   0  0  0  0  0  0  0  0  0  0  0  0
    6.1531   13.9285   23.6344 C   0  0  0  0  0  0  0  0  0  0  0  0
    6.4531   12.7022   24.5233 C   0  0  0  0  0  0  0  0  0  0  0  0
    6.9204   13.0955   25.9189 C   0  0  0  0  0  0  0  0  0  0  0  0
    7.7349   14.2785   25.7045 N   0  0  0  0  0  0  0  0  0  0  0  0
    9.2403   14.4836   26.3262 S   0  0  0  0  0  0  0  0  0  0  0  0
    9.7184   15.7843   25.9625 O   0  0  0  0  0  0  0  0  0  0  0  0
    9.2269   14.0908   27.7076 O   0  0  0  0  0  0  0  0  0  0  0  0
   10.2317   13.4032   25.4849 N   0  0  0  0  0  0  0  0  0  0  0  0
   11.6461   13.7499   25.7982 C   0  0  0  0  0  0  0  0  0  0  0  0
   12.6234   12.8584   25.0729 C   0  0  0  0  0  0  0  0  0  0  0  0
   12.3562   11.4482   25.5026 C   0  0  0  0  0  0  0  0  0  0  0  0
   10.9303   11.0763   25.0895 C   0  0  0  0  0  0  0  0  0  0  0  0
    9.8935   11.9919   25.6735 C   0  0  0  0  0  0  0  0  0  0  0  0
    6.9094   15.4802   25.5144 C   0  0  0  0  0  0  0  0  0  0  0  0
    5.8546   15.1903   24.4506 C   0  0  0  0  0  0  0  0  0  0  0  0
  1  2  1  0
  3  2  1  6
  3  4  1  0
  4  5  1  0
  5  6  1  0
  6  7  1  0
  7  8  1  1
  8  9  1  0
  9 10  2  0
  9 11  1  0
 11 12  1  0
 12 13  1  0
 13 14  1  0
 14 15  1  0
 15 16  2  0
 15 17  2  0
 15 18  1  0
 18 19  1  0
 19 20  1  0
 20 21  1  0
 21 22  1  0
 22 23  1  0
 14 24  1  0
 24 25  1  0
  7  3  1  0
 25 11  1  0
 23 18  1  0
M  END
>  <energy_score>  (4085) 
-51.352816

>  <inchikey>  (4085) 
BAKBEGKYCJEHDW-UHFFFAOYSA-N

>  <smiles>  (4085) 
COC1CCCC1OC(=O)C1CCN(S(=O)(=O)N2CCCCC2)CC1

>  <ref_pdb>  (4085) 
A0875a

>  <alias>  (4085) 
BAKBEGKYCJEHDW-UHFFFAOYSA-N-P439-P87-P439-601505

>  <HIPPO Pose ID>  (4085) 
507691

>  <name>  (4085) 
BAKBEGKYCJEHDW-UHFFFAOYSA-N-P439-P87-P439-601505

>  <HIPPO Compound ID>  (4085) 
314381

>  <ref_mols>  (4085) 
A4706a,A0875a

>  <distance_score>  (4085) 
1.628126

>  <inspiration_score>  (4085) 
None

$$$$
RWUIFIYIFAHAOE-UHFFFAOYSA-N-P439-P87-P439-601505
     RDKit          3D

 25 26  0  0  0  0  0  0  0  0999 V2000
   18.1706   11.6236   29.9760 C   0  0  0  0  0  0  0  0  0  0  0  0
   17.6415   12.5877   28.9315 C   0  0  0  0  0  0  0  0  0  0  0  0
   16.2276   12.7806   29.1068 O   0  0  0  0  0  0  0  0  0  0  0  0
   15.4253   11.8830   28.4749 C   0  0  0  0  0  0  0  0  0  0  0  0
   15.8123   10.9121   27.8347 O   0  0  0  0  0  0  0  0  0  0  0  0
   13.9310   12.2197   28.6602 C   0  0  1  0  0  0  0  0  0  0  0  0
   13.6407   13.6159   29.2105 C   0  0  0  0  0  0  0  0  0  0  0  0
   13.1001   11.9655   27.4961 O   0  0  0  0  0  0  0  0  0  0  0  0
   13.5724   12.4476   26.3256 C   0  0  0  0  0  0  0  0  0  0  0  0
   14.6385   13.0373   26.2214 O   0  0  0  0  0  0  0  0  0  0  0  0
   12.7063   12.1679   25.1132 C   0  0  0  0  0  0  0  0  0  0  0  0
   12.3863   13.4495   24.3546 C   0  0  0  0  0  0  0  0  0  0  0  0
   11.2359   14.2234   24.9530 C   0  0  0  0  0  0  0  0  0  0  0  0
   10.0464   13.3380   25.0619 N   0  0  0  0  0  0  0  0  0  0  0  0
    8.6882   14.2430   25.4423 S   0  0  0  0  0  0  0  0  0  0  0  0
    8.6535   15.3230   24.4877 O   0  0  0  0  0  0  0  0  0  0  0  0
    8.7588   14.5013   26.8610 O   0  0  0  0  0  0  0  0  0  0  0  0
    7.3597   13.2474   25.1245 N   0  0  0  0  0  0  0  0  0  0  0  0
    7.1845   12.0271   25.9495 C   0  0  0  0  0  0  0  0  0  0  0  0
    5.7765   11.8304   26.4717 C   0  0  0  0  0  0  0  0  0  0  0  0
    5.2992   13.0753   27.2007 C   0  0  0  0  0  0  0  0  0  0  0  0
    5.4799   14.3293   26.3433 C   0  0  0  0  0  0  0  0  0  0  0  0
    6.0924   14.0285   24.9759 C   0  0  0  0  0  0  0  0  0  0  0  0
   10.3561   12.2184   25.9514 C   0  0  0  0  0  0  0  0  0  0  0  0
   11.4101   11.3943   25.2684 C   0  0  0  0  0  0  0  0  0  0  0  0
  1  2  1  0
  2  3  1  0
  3  4  1  0
  4  5  2  0
  4  6  1  0
  6  7  1  6
  6  8  1  0
  8  9  1  0
  9 10  2  0
  9 11  1  0
 11 12  1  0
 12 13  1  0
 13 14  1  0
 14 15  1  0
 15 16  2  0
 15 17  2  0
 15 18  1  0
 18 19  1  0
 19 20  1  0
 20 21  1  0
 21 22  1  0
 22 23  1  0
 14 24  1  0
 24 25  1  0
 25 11  1  0
 23 18  1  0
M  END
>  <energy_score>  (4086) 
-76.001307

>  <inchikey>  (4086) 
RWUIFIYIFAHAOE-UHFFFAOYSA-N

>  <smiles>  (4086) 
CCOC(=O)C(C)OC(=O)C1CCN(S(=O)(=O)N2CCCCC2)CC1

>  <ref_pdb>  (4086) 
A0875a

>  <alias>  (4086) 
RWUIFIYIFAHAOE-UHFFFAOYSA-N-P439-P87-P439-601505

>  <HIPPO Pose ID>  (4086) 
507693

>  <name>  (4086) 
RWUIFIYIFAHAOE-UHFFFAOYSA-N-P439-P87-P439-601505

>  <HIPPO Compound ID>  (4086) 
314382

>  <ref_mols>  (4086) 
A4706a,A0875a

>  <distance_score>  (4086) 
1.75333

>  <inspiration_score>  (4086) 
None

$$$$
SUDAJIUNFRIGDN-UHFFFAOYSA-N-P87-P87-P439-601505
     RDKit          3D

 25 27  0  0  0  0  0  0  0  0999 V2000
   15.7538   14.4903   30.2819 C   0  0  0  0  0  0  0  0  0  0  0  0
   16.0054   13.6801   29.1423 O   0  0  0  0  0  0  0  0  0  0  0  0
   14.7977   13.2550   28.5112 C   0  0  0  0  0  0  0  0  0  0  0  0
   15.1214   12.4324   27.2469 C   0  0  2  0  0  0  0  0  0  0  0  0
   13.8878   12.2406   26.4875 O   0  0  0  0  0  0  0  0  0  0  0  0
   14.0588   12.2243   25.1427 C   0  0  0  0  0  0  0  0  0  0  0  0
   15.1434   12.1663   24.5725 O   0  0  0  0  0  0  0  0  0  0  0  0
   12.7961   12.2831   24.3149 C   0  0  0  0  0  0  0  0  0  0  0  0
   12.3281   13.6202   23.8332 C   0  0  0  0  0  0  0  0  0  0  0  0
   11.2568   13.4510   22.7712 C   0  0  0  0  0  0  0  0  0  0  0  0
   10.0855   12.7593   23.3729 N   0  0  0  0  0  0  0  0  0  0  0  0
    9.2027   13.7678   24.3897 S   0  0  0  0  0  0  0  0  0  0  0  0
    9.1363   15.0301   23.6975 O   0  0  0  0  0  0  0  0  0  0  0  0
    9.7588   13.6590   25.7209 O   0  0  0  0  0  0  0  0  0  0  0  0
    7.6939   13.0563   24.4090 N   0  0  0  0  0  0  0  0  0  0  0  0
    7.3970   11.9666   25.3264 C   0  0  0  0  0  0  0  0  0  0  0  0
    6.6173   12.4344   26.5295 C   0  0  0  0  0  0  0  0  0  0  0  0
    5.4382   13.3345   26.2327 C   0  0  0  0  0  0  0  0  0  0  0  0
    5.3851   13.9960   24.8565 C   0  0  0  0  0  0  0  0  0  0  0  0
    6.5400   13.8031   23.8650 C   0  0  0  0  0  0  0  0  0  0  0  0
   10.4473   11.3989   23.7849 C   0  0  0  0  0  0  0  0  0  0  0  0
   11.6294   11.4135   24.7560 C   0  0  0  0  0  0  0  0  0  0  0  0
   15.7091   11.0922   27.6231 C   0  0  0  0  0  0  0  0  0  0  0  0
   17.1981   10.9750   27.8519 C   0  0  0  0  0  0  0  0  0  0  0  0
   16.5733   10.3134   26.6597 C   0  0  0  0  0  0  0  0  0  0  0  0
  1  2  1  0
  2  3  1  0
  4  3  1  1
  4  5  1  0
  5  6  1  0
  6  7  2  0
  6  8  1  0
  8  9  1  0
  9 10  1  0
 10 11  1  0
 11 12  1  0
 12 13  2  0
 12 14  2  0
 12 15  1  0
 15 16  1  0
 16 17  1  0
 17 18  1  0
 18 19  1  0
 19 20  1  0
 11 21  1  0
 21 22  1  0
  4 23  1  0
 23 24  1  0
 24 25  1  0
 22  8  1  0
 25 23  1  0
 20 15  1  0
M  END
>  <energy_score>  (4087) 
-42.240709

>  <inchikey>  (4087) 
SUDAJIUNFRIGDN-UHFFFAOYSA-N

>  <smiles>  (4087) 
COCC(OC(=O)C1CCN(S(=O)(=O)N2CCCCC2)CC1)C1CC1

>  <ref_pdb>  (4087) 
A0875a

>  <alias>  (4087) 
SUDAJIUNFRIGDN-UHFFFAOYSA-N-P87-P87-P439-601505

>  <HIPPO Pose ID>  (4087) 
507694

>  <name>  (4087) 
SUDAJIUNFRIGDN-UHFFFAOYSA-N-P87-P87-P439-601505

>  <HIPPO Compound ID>  (4087) 
314383

>  <ref_mols>  (4087) 
A4706a,A0875a

>  <distance_score>  (4087) 
1.524465

>  <inspiration_score>  (4087) 
None

$$$$
SUDAJIUNFRIGDN-UHFFFAOYSA-N-P439-P87-P439-601505
     RDKit          3D

 25 27  0  0  0  0  0  0  0  0999 V2000
   14.8237   13.3573   31.1021 C   0  0  0  0  0  0  0  0  0  0  0  0
   15.1939   12.0239   30.7798 O   0  0  0  0  0  0  0  0  0  0  0  0
   14.4333   11.4678   29.7048 C   0  0  0  0  0  0  0  0  0  0  0  0
   15.0143   11.8128   28.3214 C   0  0  2  0  0  0  0  0  0  0  0  0
   13.9680   11.6068   27.3209 O   0  0  0  0  0  0  0  0  0  0  0  0
   14.1122   12.3506   26.1939 C   0  0  0  0  0  0  0  0  0  0  0  0
   15.0793   13.0638   25.9806 O   0  0  0  0  0  0  0  0  0  0  0  0
   13.0213   12.1638   25.1467 C   0  0  0  0  0  0  0  0  0  0  0  0
   12.5857   13.4824   24.5231 C   0  0  0  0  0  0  0  0  0  0  0  0
   11.4858   14.1579   25.3155 C   0  0  0  0  0  0  0  0  0  0  0  0
   10.2707   13.3174   25.3786 N   0  0  0  0  0  0  0  0  0  0  0  0
    8.8911   14.1494   24.9246 S   0  0  0  0  0  0  0  0  0  0  0  0
    8.7314   14.0166   23.5004 O   0  0  0  0  0  0  0  0  0  0  0  0
    9.0128   15.4326   25.5738 O   0  0  0  0  0  0  0  0  0  0  0  0
    7.6907   13.3137   25.7248 N   0  0  0  0  0  0  0  0  0  0  0  0
    7.0875   12.1348   25.0823 C   0  0  0  0  0  0  0  0  0  0  0  0
    6.5749   11.2539   26.2148 C   0  0  0  0  0  0  0  0  0  0  0  0
    5.5282   11.9940   27.0485 C   0  0  0  0  0  0  0  0  0  0  0  0
    6.0336   13.3563   27.5148 C   0  0  0  0  0  0  0  0  0  0  0  0
    6.6450   14.1548   26.3681 C   0  0  0  0  0  0  0  0  0  0  0  0
   10.4706   11.9302   24.9589 C   0  0  0  0  0  0  0  0  0  0  0  0
   11.7724   11.4771   25.6148 C   0  0  0  0  0  0  0  0  0  0  0  0
   16.2484   11.0153   27.9409 C   0  0  0  0  0  0  0  0  0  0  0  0
   17.0656   10.1730   28.8997 C   0  0  0  0  0  0  0  0  0  0  0  0
   17.5972   11.4930   28.4331 C   0  0  0  0  0  0  0  0  0  0  0  0
  1  2  1  0
  2  3  1  0
  4  3  1  1
  4  5  1  0
  5  6  1  0
  6  7  2  0
  6  8  1  0
  8  9  1  0
  9 10  1  0
 10 11  1  0
 11 12  1  0
 12 13  2  0
 12 14  2  0
 12 15  1  0
 15 16  1  0
 16 17  1  0
 17 18  1  0
 18 19  1  0
 19 20  1  0
 11 21  1  0
 21 22  1  0
  4 23  1  0
 23 24  1  0
 24 25  1  0
 22  8  1  0
 25 23  1  0
 20 15  1  0
M  END
>  <energy_score>  (4088) 
-54.61712

>  <inchikey>  (4088) 
SUDAJIUNFRIGDN-UHFFFAOYSA-N

>  <smiles>  (4088) 
COCC(OC(=O)C1CCN(S(=O)(=O)N2CCCCC2)CC1)C1CC1

>  <ref_pdb>  (4088) 
A0875a

>  <alias>  (4088) 
SUDAJIUNFRIGDN-UHFFFAOYSA-N-P439-P87-P439-601505

>  <HIPPO Pose ID>  (4088) 
507695

>  <name>  (4088) 
SUDAJIUNFRIGDN-UHFFFAOYSA-N-P439-P87-P439-601505

>  <HIPPO Compound ID>  (4088) 
314383

>  <ref_mols>  (4088) 
A4706a,A0875a

>  <distance_score>  (4088) 
1.486871

>  <inspiration_score>  (4088) 
None

$$$$
DKEDSPUURMVLHM-UHFFFAOYSA-N-P87-P87-P439-601505
     RDKit          3D

 25 26  0  0  0  0  0  0  0  0999 V2000
   16.0207   13.7345   30.5647 C   0  0  0  0  0  0  0  0  0  0  0  0
   15.9284   12.7652   29.5178 O   0  0  0  0  0  0  0  0  0  0  0  0
   15.0826   13.1190   28.5096 C   0  0  0  0  0  0  0  0  0  0  0  0
   14.4401   14.1615   28.4773 O   0  0  0  0  0  0  0  0  0  0  0  0
   14.9785   12.0055   27.4688 C   0  0  2  0  0  0  0  0  0  0  0  0
   16.3282   11.7771   26.7796 C   0  0  0  0  0  0  0  0  0  0  0  0
   16.4725   10.3804   26.3487 N   0  0  0  0  0  0  0  0  0  0  0  0
   13.9467   12.4366   26.5426 O   0  0  0  0  0  0  0  0  0  0  0  0
   13.4520   11.6215   25.5888 C   0  0  0  0  0  0  0  0  0  0  0  0
   13.8665   10.5014   25.3256 O   0  0  0  0  0  0  0  0  0  0  0  0
   12.2306   12.2556   24.9566 C   0  0  0  0  0  0  0  0  0  0  0  0
   12.5926   13.0032   23.6941 C   0  0  0  0  0  0  0  0  0  0  0  0
   11.4174   13.6497   22.9895 C   0  0  0  0  0  0  0  0  0  0  0  0
   10.1340   12.9712   23.3086 N   0  0  0  0  0  0  0  0  0  0  0  0
    9.1698   13.8812   24.3224 S   0  0  0  0  0  0  0  0  0  0  0  0
    9.0805   15.1615   23.6668 O   0  0  0  0  0  0  0  0  0  0  0  0
    9.6911   13.7367   25.6645 O   0  0  0  0  0  0  0  0  0  0  0  0
    7.6877   13.1067   24.2768 N   0  0  0  0  0  0  0  0  0  0  0  0
    7.4128   12.0060   25.1954 C   0  0  0  0  0  0  0  0  0  0  0  0
    6.6764   12.4483   26.4328 C   0  0  0  0  0  0  0  0  0  0  0  0
    5.4766   13.3352   26.1856 C   0  0  0  0  0  0  0  0  0  0  0  0
    5.3807   14.0227   24.8242 C   0  0  0  0  0  0  0  0  0  0  0  0
    6.5097   13.8656   23.7961 C   0  0  0  0  0  0  0  0  0  0  0  0
   10.2799   11.5308   23.4669 C   0  0  0  0  0  0  0  0  0  0  0  0
   11.1175   11.2219   24.6908 C   0  0  0  0  0  0  0  0  0  0  0  0
  1  2  1  0
  2  3  1  0
  3  4  2  0
  3  5  1  0
  5  6  1  6
  6  7  1  0
  5  8  1  0
  8  9  1  0
  9 10  2  0
  9 11  1  0
 11 12  1  0
 12 13  1  0
 13 14  1  0
 14 15  1  0
 15 16  2  0
 15 17  2  0
 15 18  1  0
 18 19  1  0
 19 20  1  0
 20 21  1  0
 21 22  1  0
 22 23  1  0
 14 24  1  0
 24 25  1  0
 25 11  1  0
 23 18  1  0
M  END
>  <energy_score>  (4089) 
-46.892321

>  <inchikey>  (4089) 
DKEDSPUURMVLHM-UHFFFAOYSA-N

>  <smiles>  (4089) 
COC(=O)C(CN)OC(=O)C1CCN(S(=O)(=O)N2CCCCC2)CC1

>  <ref_pdb>  (4089) 
A0875a

>  <alias>  (4089) 
DKEDSPUURMVLHM-UHFFFAOYSA-N-P87-P87-P439-601505

>  <HIPPO Pose ID>  (4089) 
507696

>  <name>  (4089) 
DKEDSPUURMVLHM-UHFFFAOYSA-N-P87-P87-P439-601505

>  <HIPPO Compound ID>  (4089) 
314384

>  <ref_mols>  (4089) 
A4706a,A0875a

>  <distance_score>  (4089) 
1.639342

>  <inspiration_score>  (4089) 
None

$$$$
QJQFNTSESIQPFJ-UHFFFAOYSA-N-P439-P87-P439-601505
     RDKit          3D

 25 26  0  0  0  0  0  0  0  0999 V2000
   17.1742   10.1026   27.2080 C   0  0  0  0  0  0  0  0  0  0  0  0
   15.9563   10.8458   26.6797 C   0  0  0  0  0  0  0  0  0  0  0  0
   15.7609   12.2702   27.1811 C   0  0  1  0  0  0  0  0  0  0  0  0
   14.6129   12.8217   26.4686 O   0  0  0  0  0  0  0  0  0  0  0  0
   13.4120   12.4402   26.9591 C   0  0  0  0  0  0  0  0  0  0  0  0
   13.2841   11.7488   27.9628 O   0  0  0  0  0  0  0  0  0  0  0  0
   12.2053   12.8155   26.1415 C   0  0  0  0  0  0  0  0  0  0  0  0
   12.3115   13.8958   25.0691 C   0  0  0  0  0  0  0  0  0  0  0  0
   11.3877   13.7036   23.8563 C   0  0  0  0  0  0  0  0  0  0  0  0
   10.1282   13.0513   24.2856 N   0  0  0  0  0  0  0  0  0  0  0  0
    9.0431   14.1723   24.9072 S   0  0  0  0  0  0  0  0  0  0  0  0
    8.5201   14.9131   23.7882 O   0  0  0  0  0  0  0  0  0  0  0  0
    9.7004   14.8598   25.9961 O   0  0  0  0  0  0  0  0  0  0  0  0
    7.8093   13.3176   25.6161 N   0  0  0  0  0  0  0  0  0  0  0  0
    7.1217   12.2296   24.9157 C   0  0  0  0  0  0  0  0  0  0  0  0
    6.5860   11.3272   26.0300 C   0  0  0  0  0  0  0  0  0  0  0  0
    5.5722   12.0813   26.8927 C   0  0  0  0  0  0  0  0  0  0  0  0
    6.1459   13.3969   27.4133 C   0  0  0  0  0  0  0  0  0  0  0  0
    6.8160   14.1978   26.3030 C   0  0  0  0  0  0  0  0  0  0  0  0
   10.3570   11.7483   24.9277 C   0  0  0  0  0  0  0  0  0  0  0  0
   11.8008   11.5882   25.3726 C   0  0  0  0  0  0  0  0  0  0  0  0
   15.6883   12.5506   28.6920 C   0  0  0  0  0  0  0  0  0  0  0  0
   15.3665   13.6625   29.1097 O   0  0  0  0  0  0  0  0  0  0  0  0
   16.0160   11.4925   29.4652 O   0  0  0  0  0  0  0  0  0  0  0  0
   15.8916   11.7259   30.8691 C   0  0  0  0  0  0  0  0  0  0  0  0
  1  2  1  0
  3  2  1  1
  3  4  1  0
  4  5  1  0
  5  6  2  0
  5  7  1  0
  7  8  1  0
  8  9  1  0
  9 10  1  0
 10 11  1  0
 11 12  2  0
 11 13  2  0
 11 14  1  0
 14 15  1  0
 15 16  1  0
 16 17  1  0
 17 18  1  0
 18 19  1  0
 10 20  1  0
 20 21  1  0
  3 22  1  0
 22 23  2  0
 22 24  1  0
 24 25  1  0
 21  7  1  0
 19 14  1  0
M  END
>  <energy_score>  (4090) 
-49.410125

>  <inchikey>  (4090) 
QJQFNTSESIQPFJ-UHFFFAOYSA-N

>  <smiles>  (4090) 
CCC(OC(=O)C1CCN(S(=O)(=O)N2CCCCC2)CC1)C(=O)OC

>  <ref_pdb>  (4090) 
A0875a

>  <alias>  (4090) 
QJQFNTSESIQPFJ-UHFFFAOYSA-N-P439-P87-P439-601505

>  <HIPPO Pose ID>  (4090) 
507699

>  <name>  (4090) 
QJQFNTSESIQPFJ-UHFFFAOYSA-N-P439-P87-P439-601505

>  <HIPPO Compound ID>  (4090) 
314385

>  <ref_mols>  (4090) 
A4706a,A0875a

>  <distance_score>  (4090) 
1.89912

>  <inspiration_score>  (4090) 
None

$$$$
IHTKRXQLYFZLCB-UHFFFAOYSA-N-P439-P87-P439-601505
     RDKit          3D

 25 28  0  0  0  0  0  0  0  0999 V2000
    9.6111   11.7271   23.1703 O   0  0  0  0  0  0  0  0  0  0  0  0
    8.8822   12.7039   23.0305 C   0  0  0  0  0  0  0  0  0  0  0  0
    9.1269   13.6632   22.1152 O   0  0  0  0  0  0  0  0  0  0  0  0
   10.3795   14.3373   22.2996 C   0  0  1  0  0  0  0  0  0  0  0  0
   11.3977   14.2326   21.1539 C   0  0  0  0  0  0  0  0  0  0  0  0
   10.9367   14.7766   19.8003 C   0  0  0  0  0  0  0  0  0  0  0  0
    9.7481   15.7092   19.9085 C   0  0  0  0  0  0  0  0  0  0  0  0
    9.7817   16.5143   21.1580 C   0  0  1  0  0  0  0  0  0  0  0  0
    8.7470   16.1955   22.0852 O   0  0  0  0  0  0  0  0  0  0  0  0
   10.0758   15.7821   22.4341 C   0  0  1  0  0  0  0  0  0  0  0  0
    7.5613   12.8919   23.7934 C   0  0  0  0  0  0  0  0  0  0  0  0
    7.5206   11.8325   24.9132 C   0  0  0  0  0  0  0  0  0  0  0  0
    8.6509   12.0788   25.9342 C   0  0  0  0  0  0  0  0  0  0  0  0
    9.1978   13.4302   25.6989 N   0  0  0  0  0  0  0  0  0  0  0  0
   10.5720   14.0073   26.4186 S   0  0  0  0  0  0  0  0  0  0  0  0
   10.2182   14.2249   27.7976 O   0  0  0  0  0  0  0  0  0  0  0  0
   11.0245   15.0918   25.5770 O   0  0  0  0  0  0  0  0  0  0  0  0
   11.7549   12.7849   26.3778 N   0  0  0  0  0  0  0  0  0  0  0  0
   12.8693   12.9934   27.3656 C   0  0  0  0  0  0  0  0  0  0  0  0
   14.2802   12.7667   26.8247 C   0  0  0  0  0  0  0  0  0  0  0  0
   14.4162   11.4593   26.1198 C   0  0  0  0  0  0  0  0  0  0  0  0
   13.2698   11.2886   25.1607 C   0  0  0  0  0  0  0  0  0  0  0  0
   12.2654   12.4401   25.0507 C   0  0  0  0  0  0  0  0  0  0  0  0
    8.0961   14.4341   25.7124 C   0  0  0  0  0  0  0  0  0  0  0  0
    7.3237   14.2672   24.4212 C   0  0  0  0  0  0  0  0  0  0  0  0
  1  2  2  0
  2  3  1  0
  4  3  1  6
  4  5  1  0
  5  6  1  0
  6  7  1  0
  8  7  1  6
  8  9  1  0
 10  9  1  1
  2 11  1  0
 11 12  1  0
 12 13  1  0
 13 14  1  0
 14 15  1  0
 15 16  2  0
 15 17  2  0
 15 18  1  0
 18 19  1  0
 19 20  1  0
 20 21  1  0
 21 22  1  0
 22 23  1  0
 14 24  1  0
 24 25  1  0
 10  4  1  0
 25 11  1  0
 10  8  1  0
 23 18  1  0
M  END
>  <energy_score>  (4091) 
-47.450465

>  <inchikey>  (4091) 
IHTKRXQLYFZLCB-UHFFFAOYSA-N

>  <smiles>  (4091) 
O=C(OC1CCCC2OC12)C1CCN(S(=O)(=O)N2CCCCC2)CC1

>  <ref_pdb>  (4091) 
A0875a

>  <alias>  (4091) 
IHTKRXQLYFZLCB-UHFFFAOYSA-N-P439-P87-P439-601505

>  <HIPPO Pose ID>  (4091) 
507701

>  <name>  (4091) 
IHTKRXQLYFZLCB-UHFFFAOYSA-N-P439-P87-P439-601505

>  <HIPPO Compound ID>  (4091) 
314386

>  <ref_mols>  (4091) 
A4706a,A0875a

>  <distance_score>  (4091) 
1.940093

>  <inspiration_score>  (4091) 
None

$$$$
WXJYXDUPTWVORK-UHFFFAOYSA-N-P439-P87-P439-601505
     RDKit          3D

 25 27  0  0  0  0  0  0  0  0999 V2000
    6.9236   13.8243   21.9077 O   0  0  0  0  0  0  0  0  0  0  0  0
    7.1274   14.5768   22.8613 C   0  0  0  0  0  0  0  0  0  0  0  0
    8.1590   15.4713   22.9292 O   0  0  0  0  0  0  0  0  0  0  0  0
    9.2290   15.3357   21.9397 C   0  0  1  0  0  0  0  0  0  0  0  0
    9.1654   16.3891   20.8365 C   0  0  0  0  0  0  0  0  0  0  0  0
    9.4722   15.7950   19.5238 N   0  0  0  0  0  0  0  0  0  0  0  0
   10.8021   15.2386   19.3202 C   0  0  0  0  0  0  0  0  0  0  0  0
   11.6200   14.7314   20.5117 C   0  0  0  0  0  0  0  0  0  0  0  0
   11.6864   15.6449   21.6032 O   0  0  0  0  0  0  0  0  0  0  0  0
   10.6407   15.4136   22.5501 C   0  0  0  0  0  0  0  0  0  0  0  0
    6.2209   14.5231   24.1181 C   0  0  0  0  0  0  0  0  0  0  0  0
    5.8936   13.0608   24.4967 C   0  0  0  0  0  0  0  0  0  0  0  0
    6.9881   12.2809   25.2458 C   0  0  0  0  0  0  0  0  0  0  0  0
    7.9097   13.1916   25.9709 N   0  0  0  0  0  0  0  0  0  0  0  0
    9.2983   13.6427   25.1342 S   0  0  0  0  0  0  0  0  0  0  0  0
    9.5047   15.0366   25.4134 O   0  0  0  0  0  0  0  0  0  0  0  0
    9.1961   13.1381   23.7896 O   0  0  0  0  0  0  0  0  0  0  0  0
   10.5642   12.8148   25.8557 N   0  0  0  0  0  0  0  0  0  0  0  0
   11.8080   13.6446   25.9558 C   0  0  0  0  0  0  0  0  0  0  0  0
   12.7867   13.2636   24.8523 C   0  0  0  0  0  0  0  0  0  0  0  0
   13.3627   11.9032   25.1387 C   0  0  0  0  0  0  0  0  0  0  0  0
   12.2352   11.0403   25.6077 C   0  0  0  0  0  0  0  0  0  0  0  0
   10.8172   11.4832   25.2452 C   0  0  0  0  0  0  0  0  0  0  0  0
    7.1488   14.3563   26.5221 C   0  0  0  0  0  0  0  0  0  0  0  0
    6.6322   15.2733   25.3934 C   0  0  0  0  0  0  0  0  0  0  0  0
  1  2  2  0
  2  3  1  0
  4  3  1  1
  4  5  1  0
  5  6  1  0
  6  7  1  0
  7  8  1  0
  8  9  1  0
  9 10  1  0
  2 11  1  0
 11 12  1  0
 12 13  1  0
 13 14  1  0
 14 15  1  0
 15 16  2  0
 15 17  2  0
 15 18  1  0
 18 19  1  0
 19 20  1  0
 20 21  1  0
 21 22  1  0
 22 23  1  0
 14 24  1  0
 24 25  1  0
 10  4  1  0
 25 11  1  0
 23 18  1  0
M  END
>  <energy_score>  (4092) 
-52.409986

>  <inchikey>  (4092) 
WXJYXDUPTWVORK-UHFFFAOYSA-N

>  <smiles>  (4092) 
O=C(OC1CNCCOC1)C1CCN(S(=O)(=O)N2CCCCC2)CC1

>  <ref_pdb>  (4092) 
A0875a

>  <alias>  (4092) 
WXJYXDUPTWVORK-UHFFFAOYSA-N-P439-P87-P439-601505

>  <HIPPO Pose ID>  (4092) 
507703

>  <name>  (4092) 
WXJYXDUPTWVORK-UHFFFAOYSA-N-P439-P87-P439-601505

>  <HIPPO Compound ID>  (4092) 
314387

>  <ref_mols>  (4092) 
A4706a,A0875a

>  <distance_score>  (4092) 
1.594022

>  <inspiration_score>  (4092) 
None

$$$$
WJYGMVLJKSJZBP-UHFFFAOYSA-N-P439-P87-P439-601505
     RDKit          3D

 25 27  0  0  0  0  0  0  0  0999 V2000
   10.7851   15.2984   18.7321 C   0  0  0  0  0  0  0  0  0  0  0  0
   10.1504   15.7733   19.9648 N   0  0  0  0  0  0  0  0  0  0  0  0
   10.1214   14.6864   20.9278 C   0  0  1  0  0  0  0  0  0  0  0  0
   11.5550   14.3278   21.3681 C   0  0  0  0  0  0  0  0  0  0  0  0
   11.4496   13.5685   22.5772 O   0  0  0  0  0  0  0  0  0  0  0  0
   10.0623   13.5608   22.8736 C   0  0  0  0  0  0  0  0  0  0  0  0
    9.4796   14.8421   22.3091 C   0  0  2  0  0  0  0  0  0  0  0  0
    8.0491   14.9554   22.4386 O   0  0  0  0  0  0  0  0  0  0  0  0
    7.3606   13.8735   22.8615 C   0  0  0  0  0  0  0  0  0  0  0  0
    7.0469   12.9778   22.0839 O   0  0  0  0  0  0  0  0  0  0  0  0
    6.9210   13.8161   24.3262 C   0  0  0  0  0  0  0  0  0  0  0  0
    7.1586   12.4097   24.9406 C   0  0  0  0  0  0  0  0  0  0  0  0
    8.5157   12.1977   25.6280 C   0  0  0  0  0  0  0  0  0  0  0  0
    8.9338   13.3612   26.4163 N   0  0  0  0  0  0  0  0  0  0  0  0
   10.4798   14.0206   26.5121 S   0  0  0  0  0  0  0  0  0  0  0  0
   10.6917   14.8913   25.3796 O   0  0  0  0  0  0  0  0  0  0  0  0
   10.5012   14.5813   27.8407 O   0  0  0  0  0  0  0  0  0  0  0  0
   11.6543   12.7568   26.4942 N   0  0  0  0  0  0  0  0  0  0  0  0
   12.8423   13.0426   27.3898 C   0  0  0  0  0  0  0  0  0  0  0  0
   14.2185   12.8063   26.7642 C   0  0  0  0  0  0  0  0  0  0  0  0
   14.3350   11.4390   26.1875 C   0  0  0  0  0  0  0  0  0  0  0  0
   13.1869   11.2313   25.2376 C   0  0  0  0  0  0  0  0  0  0  0  0
   12.1085   12.3224   25.1621 C   0  0  0  0  0  0  0  0  0  0  0  0
    7.8487   14.3723   26.6121 C   0  0  0  0  0  0  0  0  0  0  0  0
    7.4191   14.9208   25.2546 C   0  0  0  0  0  0  0  0  0  0  0  0
  1  2  1  0
  3  2  1  1
  3  4  1  0
  4  5  1  0
  5  6  1  0
  6  7  1  0
  7  8  1  6
  8  9  1  0
  9 10  2  0
  9 11  1  0
 11 12  1  0
 12 13  1  0
 13 14  1  0
 14 15  1  0
 15 16  2  0
 15 17  2  0
 15 18  1  0
 18 19  1  0
 19 20  1  0
 20 21  1  0
 21 22  1  0
 22 23  1  0
 14 24  1  0
 24 25  1  0
  7  3  1  0
 25 11  1  0
 23 18  1  0
M  END
>  <energy_score>  (4093) 
-16.062056

>  <inchikey>  (4093) 
WJYGMVLJKSJZBP-UHFFFAOYSA-N

>  <smiles>  (4093) 
CNC1COCC1OC(=O)C1CCN(S(=O)(=O)N2CCCCC2)CC1

>  <ref_pdb>  (4093) 
A0875a

>  <alias>  (4093) 
WJYGMVLJKSJZBP-UHFFFAOYSA-N-P439-P87-P439-601505

>  <HIPPO Pose ID>  (4093) 
507705

>  <name>  (4093) 
WJYGMVLJKSJZBP-UHFFFAOYSA-N-P439-P87-P439-601505

>  <HIPPO Compound ID>  (4093) 
314388

>  <ref_mols>  (4093) 
A4706a,A0875a

>  <distance_score>  (4093) 
1.520075

>  <inspiration_score>  (4093) 
None

$$$$
BSNQGQMYTQTYDB-UHFFFAOYSA-N-P439-P87-P439-601505
     RDKit          3D

 25 27  0  0  0  0  0  0  0  0999 V2000
    6.7739   14.3383   21.3471 C   0  0  0  0  0  0  0  0  0  0  0  0
    7.6846   15.2539   22.1462 C   0  0  1  0  0  0  0  0  0  0  0  0
    7.3170   14.9346   23.5098 O   0  0  0  0  0  0  0  0  0  0  0  0
    6.0950   15.3922   23.9125 C   0  0  0  0  0  0  0  0  0  0  0  0
    5.3704   16.1402   23.2646 O   0  0  0  0  0  0  0  0  0  0  0  0
    5.6346   14.7940   25.2319 C   0  0  0  0  0  0  0  0  0  0  0  0
    5.7159   13.2629   25.2643 C   0  0  0  0  0  0  0  0  0  0  0  0
    7.1045   12.7298   25.5823 C   0  0  0  0  0  0  0  0  0  0  0  0
    7.8450   13.5494   26.5569 N   0  0  0  0  0  0  0  0  0  0  0  0
    9.3502   14.2320   26.1880 S   0  0  0  0  0  0  0  0  0  0  0  0
    9.9444   14.5431   27.4664 O   0  0  0  0  0  0  0  0  0  0  0  0
    9.2079   15.2538   25.1950 O   0  0  0  0  0  0  0  0  0  0  0  0
   10.2011   12.9632   25.5529 N   0  0  0  0  0  0  0  0  0  0  0  0
   11.5942   12.8593   25.9971 C   0  0  0  0  0  0  0  0  0  0  0  0
   12.1624   11.5665   25.4331 C   0  0  0  0  0  0  0  0  0  0  0  0
   11.0286   10.5496   25.0746 C   0  0  0  0  0  0  0  0  0  0  0  0
   10.0223   11.1180   24.0647 C   0  0  0  0  0  0  0  0  0  0  0  0
   10.0715   12.6329   24.1239 C   0  0  0  0  0  0  0  0  0  0  0  0
    6.9750   14.4507   27.3462 C   0  0  0  0  0  0  0  0  0  0  0  0
    6.3047   15.4613   26.4284 C   0  0  0  0  0  0  0  0  0  0  0  0
    9.1460   14.8827   21.7351 C   0  0  1  0  0  0  0  0  0  0  0  0
    9.6113   15.4467   20.3956 C   0  0  0  0  0  0  0  0  0  0  0  0
   11.0766   15.1084   20.4563 C   0  0  0  0  0  0  0  0  0  0  0  0
   11.3903   15.4730   21.8928 C   0  0  0  0  0  0  0  0  0  0  0  0
   10.1792   15.2867   22.6413 O   0  0  0  0  0  0  0  0  0  0  0  0
  2  1  1  6
  2  3  1  0
  3  4  1  0
  4  5  2  0
  4  6  1  0
  6  7  1  0
  7  8  1  0
  8  9  1  0
  9 10  1  0
 10 11  2  0
 10 12  2  0
 10 13  1  0
 13 14  1  0
 14 15  1  0
 15 16  1  0
 16 17  1  0
 17 18  1  0
  9 19  1  0
 19 20  1  0
  2 21  1  0
 21 22  1  6
 22 23  1  0
 23 24  1  0
 24 25  1  0
 20  6  1  0
 25 21  1  0
 18 13  1  0
M  END
>  <energy_score>  (4094) 
-32.605866

>  <inchikey>  (4094) 
BSNQGQMYTQTYDB-UHFFFAOYSA-N

>  <smiles>  (4094) 
CC(OC(=O)C1CCN(S(=O)(=O)N2CCCCC2)CC1)C1CCCO1

>  <ref_pdb>  (4094) 
A0875a

>  <alias>  (4094) 
BSNQGQMYTQTYDB-UHFFFAOYSA-N-P439-P87-P439-601505

>  <HIPPO Pose ID>  (4094) 
507707

>  <name>  (4094) 
BSNQGQMYTQTYDB-UHFFFAOYSA-N-P439-P87-P439-601505

>  <HIPPO Compound ID>  (4094) 
314389

>  <ref_mols>  (4094) 
A4706a,A0875a

>  <distance_score>  (4094) 
1.978449

>  <inspiration_score>  (4094) 
None

$$$$
CALPBEFGCAHIQT-UHFFFAOYSA-N-P87-P87-P439-601505
     RDKit          3D

 25 27  0  0  0  0  0  0  0  0999 V2000
   16.4452    9.3605   25.9473 C   0  0  0  0  0  0  0  0  0  0  0  0
   15.9493   10.3532   26.4052 C   0  0  0  0  0  0  0  0  0  0  0  0
   15.3639   11.5881   26.9670 C   0  0  2  0  0  0  0  0  0  0  0  0
   14.0279   11.8376   26.4429 O   0  0  0  0  0  0  0  0  0  0  0  0
   13.8787   11.9820   25.0947 C   0  0  0  0  0  0  0  0  0  0  0  0
   14.7401   11.7373   24.2618 O   0  0  0  0  0  0  0  0  0  0  0  0
   12.5017   12.5237   24.7281 C   0  0  0  0  0  0  0  0  0  0  0  0
   12.5788   13.2039   23.3639 C   0  0  0  0  0  0  0  0  0  0  0  0
   11.2890   13.7177   22.7802 C   0  0  0  0  0  0  0  0  0  0  0  0
   10.1165   13.0007   23.3213 N   0  0  0  0  0  0  0  0  0  0  0  0
    9.2775   13.9603   24.3888 S   0  0  0  0  0  0  0  0  0  0  0  0
    9.0314   15.1824   23.6659 O   0  0  0  0  0  0  0  0  0  0  0  0
   10.0143   13.9393   25.6367 O   0  0  0  0  0  0  0  0  0  0  0  0
    7.8415   13.1112   24.6151 N   0  0  0  0  0  0  0  0  0  0  0  0
    7.7569   12.3171   25.8430 C   0  0  0  0  0  0  0  0  0  0  0  0
    6.3607   11.9206   26.2387 C   0  0  0  0  0  0  0  0  0  0  0  0
    5.4661   13.1327   26.3058 C   0  0  0  0  0  0  0  0  0  0  0  0
    5.4276   13.8868   24.9861 C   0  0  0  0  0  0  0  0  0  0  0  0
    6.6059   13.6879   24.0231 C   0  0  0  0  0  0  0  0  0  0  0  0
   10.3865   11.5938   23.6004 C   0  0  0  0  0  0  0  0  0  0  0  0
   11.3947   11.4612   24.7336 C   0  0  0  0  0  0  0  0  0  0  0  0
   16.2998   12.7738   26.8326 C   0  0  0  0  0  0  0  0  0  0  0  0
   17.2941   12.5572   27.9523 C   0  0  0  0  0  0  0  0  0  0  0  0
   16.5564   11.9637   29.0299 O   0  0  0  0  0  0  0  0  0  0  0  0
   15.3017   11.4949   28.5020 C   0  0  0  0  0  0  0  0  0  0  0  0
  1  2  3  0
  3  2  1  6
  3  4  1  0
  4  5  1  0
  5  6  2  0
  5  7  1  0
  7  8  1  0
  8  9  1  0
  9 10  1  0
 10 11  1  0
 11 12  2  0
 11 13  2  0
 11 14  1  0
 14 15  1  0
 15 16  1  0
 16 17  1  0
 17 18  1  0
 18 19  1  0
 10 20  1  0
 20 21  1  0
  3 22  1  0
 22 23  1  0
 23 24  1  0
 24 25  1  0
 25  3  1  0
 21  7  1  0
 19 14  1  0
M  END
>  <energy_score>  (4095) 
-32.840724

>  <inchikey>  (4095) 
CALPBEFGCAHIQT-UHFFFAOYSA-N

>  <smiles>  (4095) 
C#CC1(OC(=O)C2CCN(S(=O)(=O)N3CCCCC3)CC2)CCOC1

>  <ref_pdb>  (4095) 
A0875a

>  <alias>  (4095) 
CALPBEFGCAHIQT-UHFFFAOYSA-N-P87-P87-P439-601505

>  <HIPPO Pose ID>  (4095) 
507708

>  <name>  (4095) 
CALPBEFGCAHIQT-UHFFFAOYSA-N-P87-P87-P439-601505

>  <HIPPO Compound ID>  (4095) 
314390

>  <ref_mols>  (4095) 
A4706a,A0875a

>  <distance_score>  (4095) 
1.532467

>  <inspiration_score>  (4095) 
None

$$$$
CALPBEFGCAHIQT-UHFFFAOYSA-N-P439-P87-P439-601505
     RDKit          3D

 25 27  0  0  0  0  0  0  0  0999 V2000
   17.1612    8.9874   29.2075 C   0  0  0  0  0  0  0  0  0  0  0  0
   16.8035   10.1199   29.0231 C   0  0  0  0  0  0  0  0  0  0  0  0
   16.4256   11.5275   28.8227 C   0  0  2  0  0  0  0  0  0  0  0  0
   15.0851   11.6743   28.2744 O   0  0  0  0  0  0  0  0  0  0  0  0
   14.7665   11.3668   26.9888 C   0  0  0  0  0  0  0  0  0  0  0  0
   15.4950   10.8473   26.1628 O   0  0  0  0  0  0  0  0  0  0  0  0
   13.3140   11.7812   26.7405 C   0  0  0  0  0  0  0  0  0  0  0  0
   13.2256   13.2543   26.7622 C   0  0  0  0  0  0  0  0  0  0  0  0
   11.7913   13.7587   26.7966 C   0  0  0  0  0  0  0  0  0  0  0  0
   10.8927   12.9762   25.9105 N   0  0  0  0  0  0  0  0  0  0  0  0
    9.5613   13.9375   25.4549 S   0  0  0  0  0  0  0  0  0  0  0  0
    9.9623   14.7715   24.3483 O   0  0  0  0  0  0  0  0  0  0  0  0
    9.0674   14.5211   26.6802 O   0  0  0  0  0  0  0  0  0  0  0  0
    8.4065   12.8343   24.9200 N   0  0  0  0  0  0  0  0  0  0  0  0
    8.2000   11.6140   25.7367 C   0  0  0  0  0  0  0  0  0  0  0  0
    6.7508   11.4020   26.1528 C   0  0  0  0  0  0  0  0  0  0  0  0
    6.1417   12.6752   26.7141 C   0  0  0  0  0  0  0  0  0  0  0  0
    6.2297   13.8186   25.7054 C   0  0  0  0  0  0  0  0  0  0  0  0
    7.1333   13.5051   24.5104 C   0  0  0  0  0  0  0  0  0  0  0  0
   11.6114   12.3099   24.8204 C   0  0  0  0  0  0  0  0  0  0  0  0
   12.6845   11.3429   25.4083 C   0  0  0  0  0  0  0  0  0  0  0  0
   17.4680   12.3102   28.0302 C   0  0  0  0  0  0  0  0  0  0  0  0
   18.0601   13.2858   29.0257 C   0  0  0  0  0  0  0  0  0  0  0  0
   17.0027   13.5451   29.9525 O   0  0  0  0  0  0  0  0  0  0  0  0
   16.3908   12.2635   30.1777 C   0  0  0  0  0  0  0  0  0  0  0  0
  1  2  3  0
  3  2  1  1
  3  4  1  0
  4  5  1  0
  5  6  2  0
  5  7  1  0
  7  8  1  0
  8  9  1  0
  9 10  1  0
 10 11  1  0
 11 12  2  0
 11 13  2  0
 11 14  1  0
 14 15  1  0
 15 16  1  0
 16 17  1  0
 17 18  1  0
 18 19  1  0
 10 20  1  0
 20 21  1  0
  3 22  1  0
 22 23  1  0
 23 24  1  0
 24 25  1  0
 25  3  1  0
 21  7  1  0
 19 14  1  0
M  END
>  <energy_score>  (4096) 
-40.244641

>  <inchikey>  (4096) 
CALPBEFGCAHIQT-UHFFFAOYSA-N

>  <smiles>  (4096) 
C#CC1(OC(=O)C2CCN(S(=O)(=O)N3CCCCC3)CC2)CCOC1

>  <ref_pdb>  (4096) 
A0875a

>  <alias>  (4096) 
CALPBEFGCAHIQT-UHFFFAOYSA-N-P439-P87-P439-601505

>  <HIPPO Pose ID>  (4096) 
507709

>  <name>  (4096) 
CALPBEFGCAHIQT-UHFFFAOYSA-N-P439-P87-P439-601505

>  <HIPPO Compound ID>  (4096) 
314390

>  <ref_mols>  (4096) 
A4706a,A0875a

>  <distance_score>  (4096) 
1.641793

>  <inspiration_score>  (4096) 
None

$$$$
OUDAPDHWTIBFFN-UHFFFAOYSA-N-P439-P87-P439-601505
     RDKit          3D

 25 27  0  0  0  0  0  0  0  0999 V2000
    7.8657   14.7447   20.9375 N   0  0  0  0  0  0  0  0  0  0  0  0
    9.2731   14.4016   21.0553 C   0  0  1  0  0  0  0  0  0  0  0  0
   10.2018   15.2768   20.2278 C   0  0  0  0  0  0  0  0  0  0  0  0
   11.6133   14.9120   20.6458 C   0  0  0  0  0  0  0  0  0  0  0  0
   11.8953   15.1991   22.0131 O   0  0  0  0  0  0  0  0  0  0  0  0
   10.7441   15.3157   22.8391 C   0  0  0  0  0  0  0  0  0  0  0  0
    9.6806   14.2804   22.5223 C   0  0  1  0  0  0  0  0  0  0  0  0
    8.5252   14.4258   23.3923 O   0  0  0  0  0  0  0  0  0  0  0  0
    7.7336   13.3247   23.4896 C   0  0  0  0  0  0  0  0  0  0  0  0
    8.0572   12.2208   23.0610 O   0  0  0  0  0  0  0  0  0  0  0  0
    6.4046   13.5175   24.2183 C   0  0  0  0  0  0  0  0  0  0  0  0
    6.3013   12.4797   25.3676 C   0  0  0  0  0  0  0  0  0  0  0  0
    7.1756   12.8465   26.5827 C   0  0  0  0  0  0  0  0  0  0  0  0
    7.9330   14.0418   26.2011 N   0  0  0  0  0  0  0  0  0  0  0  0
    9.4332   14.4431   26.7726 S   0  0  0  0  0  0  0  0  0  0  0  0
    9.3146   14.7173   28.1779 O   0  0  0  0  0  0  0  0  0  0  0  0
    9.9705   15.4279   25.8627 O   0  0  0  0  0  0  0  0  0  0  0  0
   10.3988   13.0620   26.6075 N   0  0  0  0  0  0  0  0  0  0  0  0
   10.1847   12.3830   25.3421 C   0  0  0  0  0  0  0  0  0  0  0  0
   11.1261   11.2596   25.0836 C   0  0  0  0  0  0  0  0  0  0  0  0
   12.5914   11.6569   25.2904 C   0  0  0  0  0  0  0  0  0  0  0  0
   12.7496   13.0901   25.7099 C   0  0  0  0  0  0  0  0  0  0  0  0
   11.8377   13.3855   26.8850 C   0  0  0  0  0  0  0  0  0  0  0  0
    7.0190   15.1936   26.0101 C   0  0  0  0  0  0  0  0  0  0  0  0
    6.1854   14.9300   24.7613 C   0  0  0  0  0  0  0  0  0  0  0  0
  2  1  1  1
  2  3  1  0
  3  4  1  0
  4  5  1  0
  5  6  1  0
  6  7  1  0
  7  8  1  1
  8  9  1  0
  9 10  2  0
  9 11  1  0
 11 12  1  0
 12 13  1  0
 13 14  1  0
 14 15  1  0
 15 16  2  0
 15 17  2  0
 15 18  1  0
 18 19  1  0
 19 20  1  0
 20 21  1  0
 21 22  1  0
 22 23  1  0
 14 24  1  0
 24 25  1  0
  7  2  1  0
 25 11  1  0
 23 18  1  0
M  END
>  <energy_score>  (4097) 
-35.854611

>  <inchikey>  (4097) 
OUDAPDHWTIBFFN-UHFFFAOYSA-N

>  <smiles>  (4097) 
NC1CCOCC1OC(=O)C1CCN(S(=O)(=O)N2CCCCC2)CC1

>  <ref_pdb>  (4097) 
A0875a

>  <alias>  (4097) 
OUDAPDHWTIBFFN-UHFFFAOYSA-N-P439-P87-P439-601505

>  <HIPPO Pose ID>  (4097) 
507711

>  <name>  (4097) 
OUDAPDHWTIBFFN-UHFFFAOYSA-N-P439-P87-P439-601505

>  <HIPPO Compound ID>  (4097) 
314391

>  <ref_mols>  (4097) 
A4706a,A0875a

>  <distance_score>  (4097) 
1.733965

>  <inspiration_score>  (4097) 
None

$$$$
JSLPNBCNDXATQS-UHFFFAOYSA-N-P439-P87-P439-601505
     RDKit          3D

 25 27  0  0  0  0  0  0  0  0999 V2000
   10.8124   15.5480   18.5046 N   0  0  0  0  0  0  0  0  0  0  0  0
    9.9479   15.6986   19.6688 C   0  0  0  0  0  0  0  0  0  0  0  0
   10.5723   14.8966   20.7715 C   0  0  1  0  0  0  0  0  0  0  0  0
   11.4962   15.5422   21.7631 C   0  0  0  0  0  0  0  0  0  0  0  0
   11.7385   14.4940   22.7278 O   0  0  0  0  0  0  0  0  0  0  0  0
   10.7414   13.4736   22.4990 C   0  0  0  0  0  0  0  0  0  0  0  0
    9.6518   14.0875   21.6533 C   0  0  1  0  0  0  0  0  0  0  0  0
    8.7077   14.7057   22.5675 O   0  0  0  0  0  0  0  0  0  0  0  0
    7.6180   13.9250   22.8293 C   0  0  0  0  0  0  0  0  0  0  0  0
    7.1551   13.1156   22.0234 O   0  0  0  0  0  0  0  0  0  0  0  0
    6.9997   13.9665   24.2267 C   0  0  0  0  0  0  0  0  0  0  0  0
    7.0877   12.5540   24.8601 C   0  0  0  0  0  0  0  0  0  0  0  0
    8.4548   12.2766   25.4861 C   0  0  0  0  0  0  0  0  0  0  0  0
    8.8781   13.3423   26.4072 N   0  0  0  0  0  0  0  0  0  0  0  0
   10.4305   14.0083   26.3887 S   0  0  0  0  0  0  0  0  0  0  0  0
   10.5831   14.7387   25.1596 O   0  0  0  0  0  0  0  0  0  0  0  0
   10.5009   14.7111   27.6461 O   0  0  0  0  0  0  0  0  0  0  0  0
   11.5928   12.7309   26.4717 N   0  0  0  0  0  0  0  0  0  0  0  0
   12.7872   13.0740   27.3258 C   0  0  0  0  0  0  0  0  0  0  0  0
   14.1459   12.8484   26.6639 C   0  0  0  0  0  0  0  0  0  0  0  0
   14.2909   11.4349   26.2240 C   0  0  0  0  0  0  0  0  0  0  0  0
   13.1653   11.1495   25.2700 C   0  0  0  0  0  0  0  0  0  0  0  0
   12.0028   12.1532   25.1830 C   0  0  0  0  0  0  0  0  0  0  0  0
    7.8314   14.4131   26.5753 C   0  0  0  0  0  0  0  0  0  0  0  0
    7.4709   15.0229   25.2170 C   0  0  0  0  0  0  0  0  0  0  0  0
  1  2  1  0
  3  2  1  1
  3  4  1  0
  4  5  1  0
  5  6  1  0
  6  7  1  0
  7  8  1  1
  8  9  1  0
  9 10  2  0
  9 11  1  0
 11 12  1  0
 12 13  1  0
 13 14  1  0
 14 15  1  0
 15 16  2  0
 15 17  2  0
 15 18  1  0
 18 19  1  0
 19 20  1  0
 20 21  1  0
 21 22  1  0
 22 23  1  0
 14 24  1  0
 24 25  1  0
  7  3  1  0
 25 11  1  0
 23 18  1  0
M  END
>  <energy_score>  (4098) 
-14.199907

>  <inchikey>  (4098) 
JSLPNBCNDXATQS-UHFFFAOYSA-N

>  <smiles>  (4098) 
NCC1COCC1OC(=O)C1CCN(S(=O)(=O)N2CCCCC2)CC1

>  <ref_pdb>  (4098) 
A0875a

>  <alias>  (4098) 
JSLPNBCNDXATQS-UHFFFAOYSA-N-P439-P87-P439-601505

>  <HIPPO Pose ID>  (4098) 
507719

>  <name>  (4098) 
JSLPNBCNDXATQS-UHFFFAOYSA-N-P439-P87-P439-601505

>  <HIPPO Compound ID>  (4098) 
314395

>  <ref_mols>  (4098) 
A4706a,A0875a

>  <distance_score>  (4098) 
1.509701

>  <inspiration_score>  (4098) 
None

$$$$
GEQYOKOEPUPJHN-UHFFFAOYSA-N-P439-P87-P439-601505
     RDKit          3D

 25 27  0  0  0  0  0  0  0  0999 V2000
    6.6179   13.2394   22.0467 O   0  0  0  0  0  0  0  0  0  0  0  0
    7.7907   13.5350   22.2708 C   0  0  0  0  0  0  0  0  0  0  0  0
    8.5897   13.9600   21.2565 O   0  0  0  0  0  0  0  0  0  0  0  0
   10.0427   14.1393   21.3211 C   0  0  1  0  0  0  0  0  0  0  0  0
   10.7270   14.2878   19.8949 C   0  0  0  0  0  0  0  0  0  0  0  0
   10.8213   15.6260   19.4132 O   0  0  0  0  0  0  0  0  0  0  0  0
    9.6889   16.3351   19.8380 C   0  0  0  0  0  0  0  0  0  0  0  0
    9.8004   16.6215   21.3090 C   0  0  0  0  0  0  0  0  0  0  0  0
   10.3120   15.4232   22.0730 C   0  0  2  0  0  0  0  0  0  0  0  0
   12.2095   15.4640   22.3245 Br  0  0  0  0  0  0  0  0  0  0  0  0
    8.3569   13.3200   23.6503 C   0  0  0  0  0  0  0  0  0  0  0  0
    8.2548   11.8656   24.1101 C   0  0  0  0  0  0  0  0  0  0  0  0
    8.9979   11.6537   25.4254 C   0  0  0  0  0  0  0  0  0  0  0  0
    9.0838   12.8926   26.2149 N   0  0  0  0  0  0  0  0  0  0  0  0
   10.4716   13.8410   26.3437 S   0  0  0  0  0  0  0  0  0  0  0  0
   10.3684   14.4413   27.6479 O   0  0  0  0  0  0  0  0  0  0  0  0
   10.5865   14.6742   25.1720 O   0  0  0  0  0  0  0  0  0  0  0  0
   11.7777   12.7452   26.3392 N   0  0  0  0  0  0  0  0  0  0  0  0
   12.8463   12.9944   27.3645 C   0  0  0  0  0  0  0  0  0  0  0  0
   14.2805   12.7436   26.8914 C   0  0  0  0  0  0  0  0  0  0  0  0
   14.4398   11.4578   26.1452 C   0  0  0  0  0  0  0  0  0  0  0  0
   13.3239   11.3039   25.1438 C   0  0  0  0  0  0  0  0  0  0  0  0
   12.3589   12.4850   25.0158 C   0  0  0  0  0  0  0  0  0  0  0  0
    7.8239   13.6935   26.1188 C   0  0  0  0  0  0  0  0  0  0  0  0
    7.6505   14.2196   24.6873 C   0  0  0  0  0  0  0  0  0  0  0  0
  1  2  2  0
  2  3  1  0
  4  3  1  6
  4  5  1  0
  5  6  1  0
  6  7  1  0
  7  8  1  0
  8  9  1  0
  9 10  1  6
  2 11  1  0
 11 12  1  0
 12 13  1  0
 13 14  1  0
 14 15  1  0
 15 16  2  0
 15 17  2  0
 15 18  1  0
 18 19  1  0
 19 20  1  0
 20 21  1  0
 21 22  1  0
 22 23  1  0
 14 24  1  0
 24 25  1  0
  9  4  1  0
 25 11  1  0
 23 18  1  0
M  END
>  <energy_score>  (4099) 
-11.928593

>  <inchikey>  (4099) 
GEQYOKOEPUPJHN-UHFFFAOYSA-N

>  <smiles>  (4099) 
O=C(OC1COCCC1Br)C1CCN(S(=O)(=O)N2CCCCC2)CC1

>  <ref_pdb>  (4099) 
A0875a

>  <alias>  (4099) 
GEQYOKOEPUPJHN-UHFFFAOYSA-N-P439-P87-P439-601505

>  <HIPPO Pose ID>  (4099) 
507721

>  <name>  (4099) 
GEQYOKOEPUPJHN-UHFFFAOYSA-N-P439-P87-P439-601505

>  <HIPPO Compound ID>  (4099) 
314396

>  <ref_mols>  (4099) 
A4706a,A0875a

>  <distance_score>  (4099) 
1.777966

>  <inspiration_score>  (4099) 
None

$$$$
ZKOUUEAJTSIXBB-UHFFFAOYSA-N-P439-P87-P439-601505
     RDKit          3D

 25 27  0  0  0  0  0  0  0  0999 V2000
   10.6650   14.8944   18.5186 N   0  0  0  0  0  0  0  0  0  0  0  0
    9.7349   14.8741   19.6315 N   0  0  0  0  0  0  0  0  0  0  0  0
   10.3608   15.4448   20.7967 C   0  0  2  0  0  0  0  0  0  0  0  0
   11.7224   14.8591   21.1320 C   0  0  0  0  0  0  0  0  0  0  0  0
   12.0577   15.5067   22.3545 O   0  0  0  0  0  0  0  0  0  0  0  0
   10.8438   15.4356   23.0864 C   0  0  0  0  0  0  0  0  0  0  0  0
    9.6326   15.5555   22.1501 C   0  0  2  0  0  0  0  0  0  0  0  0
    8.6089   14.6046   22.5813 O   0  0  0  0  0  0  0  0  0  0  0  0
    7.4019   15.1250   22.9550 C   0  0  0  0  0  0  0  0  0  0  0  0
    6.9509   16.1535   22.4617 O   0  0  0  0  0  0  0  0  0  0  0  0
    6.6190   14.4202   24.1153 C   0  0  0  0  0  0  0  0  0  0  0  0
    6.6240   12.8875   24.1710 C   0  0  0  0  0  0  0  0  0  0  0  0
    7.0941   12.2014   25.4678 C   0  0  0  0  0  0  0  0  0  0  0  0
    8.0754   13.0472   26.2034 N   0  0  0  0  0  0  0  0  0  0  0  0
    9.4749   13.3686   25.3276 S   0  0  0  0  0  0  0  0  0  0  0  0
    9.3233   12.6525   24.0847 O   0  0  0  0  0  0  0  0  0  0  0  0
    9.6703   14.7968   25.3853 O   0  0  0  0  0  0  0  0  0  0  0  0
   10.8020   12.6168   26.0942 N   0  0  0  0  0  0  0  0  0  0  0  0
   11.6905   13.5513   26.8310 C   0  0  0  0  0  0  0  0  0  0  0  0
   13.1679   13.1886   26.7318 C   0  0  0  0  0  0  0  0  0  0  0  0
   13.4660   11.7389   26.7268 C   0  0  0  0  0  0  0  0  0  0  0  0
   12.8659   11.1997   25.4595 C   0  0  0  0  0  0  0  0  0  0  0  0
   11.5036   11.7711   25.0866 C   0  0  0  0  0  0  0  0  0  0  0  0
    7.3424   14.2702   26.6511 C   0  0  0  0  0  0  0  0  0  0  0  0
    6.8343   15.1228   25.4737 C   0  0  0  0  0  0  0  0  0  0  0  0
  1  2  1  0
  3  2  1  6
  3  4  1  0
  4  5  1  0
  5  6  1  0
  6  7  1  0
  7  8  1  1
  8  9  1  0
  9 10  2  0
  9 11  1  0
 11 12  1  0
 12 13  1  0
 13 14  1  0
 14 15  1  0
 15 16  2  0
 15 17  2  0
 15 18  1  0
 18 19  1  0
 19 20  1  0
 20 21  1  0
 21 22  1  0
 22 23  1  0
 14 24  1  0
 24 25  1  0
  7  3  1  0
 25 11  1  0
 23 18  1  0
M  END
>  <energy_score>  (4100) 
-4.018057

>  <inchikey>  (4100) 
ZKOUUEAJTSIXBB-UHFFFAOYSA-N

>  <smiles>  (4100) 
NNC1COCC1OC(=O)C1CCN(S(=O)(=O)N2CCCCC2)CC1

>  <ref_pdb>  (4100) 
A0875a

>  <alias>  (4100) 
ZKOUUEAJTSIXBB-UHFFFAOYSA-N-P439-P87-P439-601505

>  <HIPPO Pose ID>  (4100) 
507723

>  <name>  (4100) 
ZKOUUEAJTSIXBB-UHFFFAOYSA-N-P439-P87-P439-601505

>  <HIPPO Compound ID>  (4100) 
314397

>  <ref_mols>  (4100) 
A4706a,A0875a

>  <distance_score>  (4100) 
1.691675

>  <inspiration_score>  (4100) 
None

$$$$
OYMOMISHKDRNPJ-UHFFFAOYSA-N-P87-P87-P439-601505
     RDKit          3D

 25 26  0  0  0  0  0  0  0  0999 V2000
   12.7309   16.0786   20.5564 C   0  0  0  0  0  0  0  0  0  0  0  0
   12.1989   14.8516   20.6131 C   0  0  0  0  0  0  0  0  0  0  0  0
   11.4902   14.2740   21.7747 C   0  0  0  0  0  0  0  0  0  0  0  0
   10.1040   14.5243   21.6693 O   0  0  0  0  0  0  0  0  0  0  0  0
    9.7627   15.7374   22.3299 C   0  0  0  0  0  0  0  0  0  0  0  0
    8.2971   16.0771   22.0533 C   0  0  2  0  0  0  0  0  0  0  0  0
    8.1964   17.5693   21.8584 C   0  0  0  0  0  0  0  0  0  0  0  0
    7.4799   15.7544   23.1901 O   0  0  0  0  0  0  0  0  0  0  0  0
    6.7079   14.6349   23.0963 C   0  0  0  0  0  0  0  0  0  0  0  0
    5.9213   14.3468   22.2114 O   0  0  0  0  0  0  0  0  0  0  0  0
    7.0929   13.7510   24.2635 C   0  0  0  0  0  0  0  0  0  0  0  0
    7.5232   12.4539   23.7319 C   0  0  0  0  0  0  0  0  0  0  0  0
    8.0419   11.4183   24.6833 C   0  0  0  0  0  0  0  0  0  0  0  0
    8.5426   12.1380   25.8392 N   0  0  0  0  0  0  0  0  0  0  0  0
    9.9104   13.1447   25.4710 S   0  0  0  0  0  0  0  0  0  0  0  0
   10.1131   14.1281   26.5079 O   0  0  0  0  0  0  0  0  0  0  0  0
    9.9434   13.5061   24.0871 O   0  0  0  0  0  0  0  0  0  0  0  0
   11.1967   12.0715   25.5782 N   0  0  0  0  0  0  0  0  0  0  0  0
   11.1381   10.9038   24.6765 C   0  0  0  0  0  0  0  0  0  0  0  0
   12.3460   10.0016   24.8721 C   0  0  0  0  0  0  0  0  0  0  0  0
   13.6732   10.7821   25.0218 C   0  0  0  0  0  0  0  0  0  0  0  0
   13.5040   12.2210   24.6227 C   0  0  0  0  0  0  0  0  0  0  0  0
   12.4632   12.8401   25.5124 C   0  0  0  0  0  0  0  0  0  0  0  0
    7.2810   12.7126   26.5057 C   0  0  0  0  0  0  0  0  0  0  0  0
    6.2958   13.4071   25.5156 C   0  0  0  0  0  0  0  0  0  0  0  0
  1  2  2  0
  2  3  1  0
  3  4  1  0
  4  5  1  0
  5  6  1  0
  6  7  1  1
  6  8  1  0
  8  9  1  0
  9 10  2  0
  9 11  1  0
 11 12  1  0
 12 13  1  0
 13 14  1  0
 14 15  1  0
 15 16  2  0
 15 17  2  0
 15 18  1  0
 18 19  1  0
 19 20  1  0
 20 21  1  0
 21 22  1  0
 22 23  1  0
 14 24  1  0
 24 25  1  0
 25 11  1  0
 23 18  1  0
M  END
>  <energy_score>  (4101) 
-17.020283

>  <inchikey>  (4101) 
OYMOMISHKDRNPJ-UHFFFAOYSA-N

>  <smiles>  (4101) 
C=CCOCC(C)OC(=O)C1CCN(S(=O)(=O)N2CCCCC2)CC1

>  <ref_pdb>  (4101) 
A0875a

>  <alias>  (4101) 
OYMOMISHKDRNPJ-UHFFFAOYSA-N-P87-P87-P439-601505

>  <HIPPO Pose ID>  (4101) 
507724

>  <name>  (4101) 
OYMOMISHKDRNPJ-UHFFFAOYSA-N-P87-P87-P439-601505

>  <HIPPO Compound ID>  (4101) 
314398

>  <ref_mols>  (4101) 
A4706a,A0875a

>  <distance_score>  (4101) 
1.713219

>  <inspiration_score>  (4101) 
None

$$$$
OYMOMISHKDRNPJ-UHFFFAOYSA-N-P439-P87-P439-601505
     RDKit          3D

 25 26  0  0  0  0  0  0  0  0999 V2000
   11.4000   15.1195   18.1833 C   0  0  0  0  0  0  0  0  0  0  0  0
   10.5321   14.8756   19.1536 C   0  0  0  0  0  0  0  0  0  0  0  0
    9.9126   15.9183   19.9759 C   0  0  0  0  0  0  0  0  0  0  0  0
   10.8264   16.0660   21.0421 O   0  0  0  0  0  0  0  0  0  0  0  0
   10.1992   15.9760   22.2887 C   0  0  0  0  0  0  0  0  0  0  0  0
    9.8831   14.5621   22.7259 C   0  0  2  0  0  0  0  0  0  0  0  0
   11.0228   13.5935   22.4766 C   0  0  0  0  0  0  0  0  0  0  0  0
    8.6680   14.0518   22.0939 O   0  0  0  0  0  0  0  0  0  0  0  0
    7.5968   13.5313   22.7546 C   0  0  0  0  0  0  0  0  0  0  0  0
    6.6507   13.0312   22.1587 O   0  0  0  0  0  0  0  0  0  0  0  0
    7.6502   13.5895   24.2400 C   0  0  0  0  0  0  0  0  0  0  0  0
    7.1439   12.4687   25.1411 C   0  0  0  0  0  0  0  0  0  0  0  0
    7.8739   12.6592   26.5117 C   0  0  0  0  0  0  0  0  0  0  0  0
    8.3865   14.0512   26.5734 N   0  0  0  0  0  0  0  0  0  0  0  0
    9.6989   14.6200   27.4134 S   0  0  0  0  0  0  0  0  0  0  0  0
    9.3507   14.6108   28.8111 O   0  0  0  0  0  0  0  0  0  0  0  0
   10.1141   15.8322   26.7413 O   0  0  0  0  0  0  0  0  0  0  0  0
   10.9615   13.4737   27.1561 N   0  0  0  0  0  0  0  0  0  0  0  0
   11.3546   13.3209   25.7389 C   0  0  0  0  0  0  0  0  0  0  0  0
   12.4142   12.2434   25.5650 C   0  0  0  0  0  0  0  0  0  0  0  0
   13.6530   12.4714   26.4060 C   0  0  0  0  0  0  0  0  0  0  0  0
   13.3188   12.8900   27.8308 C   0  0  0  0  0  0  0  0  0  0  0  0
   12.1634   13.8938   27.9648 C   0  0  0  0  0  0  0  0  0  0  0  0
    7.3312   15.0367   26.2507 C   0  0  0  0  0  0  0  0  0  0  0  0
    7.1336   14.9409   24.7433 C   0  0  0  0  0  0  0  0  0  0  0  0
  1  2  2  0
  2  3  1  0
  3  4  1  0
  4  5  1  0
  5  6  1  0
  6  7  1  6
  6  8  1  0
  8  9  1  0
  9 10  2  0
  9 11  1  0
 11 12  1  0
 12 13  1  0
 13 14  1  0
 14 15  1  0
 15 16  2  0
 15 17  2  0
 15 18  1  0
 18 19  1  0
 19 20  1  0
 20 21  1  0
 21 22  1  0
 22 23  1  0
 14 24  1  0
 24 25  1  0
 25 11  1  0
 23 18  1  0
M  END
>  <energy_score>  (4102) 
-116.28816

>  <inchikey>  (4102) 
OYMOMISHKDRNPJ-UHFFFAOYSA-N

>  <smiles>  (4102) 
C=CCOCC(C)OC(=O)C1CCN(S(=O)(=O)N2CCCCC2)CC1

>  <ref_pdb>  (4102) 
A0875a

>  <alias>  (4102) 
OYMOMISHKDRNPJ-UHFFFAOYSA-N-P439-P87-P439-601505

>  <HIPPO Pose ID>  (4102) 
507725

>  <name>  (4102) 
OYMOMISHKDRNPJ-UHFFFAOYSA-N-P439-P87-P439-601505

>  <HIPPO Compound ID>  (4102) 
314398

>  <ref_mols>  (4102) 
A4706a,A0875a

>  <distance_score>  (4102) 
1.911389

>  <inspiration_score>  (4102) 
None

$$$$
KCKKYNOHSOWHHK-UHFFFAOYSA-N-P87-P87-P439-601505
     RDKit          3D

 25 27  0  0  0  0  0  0  0  0999 V2000
   18.7030   12.5824   27.6340 C   0  0  0  0  0  0  0  0  0  0  0  0
   17.6196   11.6761   28.2155 C   0  0  0  0  0  0  0  0  0  0  0  0
   17.2648   12.1899   29.6252 C   0  0  0  0  0  0  0  0  0  0  0  0
   16.3777   11.8824   27.4682 O   0  0  0  0  0  0  0  0  0  0  0  0
   15.9493   11.3302   26.3107 C   0  0  0  0  0  0  0  0  0  0  0  0
   16.4270   10.3829   25.7139 O   0  0  0  0  0  0  0  0  0  0  0  0
   14.7797   12.1630   25.7854 C   0  0  0  0  0  0  0  0  0  0  0  0
   13.8098   12.4865   26.9031 C   0  0  0  0  0  0  0  0  0  0  0  0
   12.5237   13.1826   26.4847 C   0  0  0  0  0  0  0  0  0  0  0  0
   11.9187   12.7581   25.2170 N   0  0  0  0  0  0  0  0  0  0  0  0
   10.5509   13.7079   24.8329 S   0  0  0  0  0  0  0  0  0  0  0  0
   10.8279   14.6054   23.7449 O   0  0  0  0  0  0  0  0  0  0  0  0
   10.0746   14.1610   26.1195 O   0  0  0  0  0  0  0  0  0  0  0  0
    9.4362   12.5832   24.3029 N   0  0  0  0  0  0  0  0  0  0  0  0
    9.4823   11.3149   25.0373 C   0  0  0  0  0  0  0  0  0  0  0  0
    8.1562   10.6344   25.0079 C   0  0  0  0  0  0  0  0  0  0  0  0
    7.0566   11.4449   25.6594 C   0  0  0  0  0  0  0  0  0  0  0  0
    7.2195   12.9145   25.3987 C   0  0  0  0  0  0  0  0  0  0  0  0
    8.0725   13.2001   24.1671 C   0  0  0  0  0  0  0  0  0  0  0  0
   12.8885   12.5421   24.1542 C   0  0  0  0  0  0  0  0  0  0  0  0
   13.9567   11.5383   24.6671 C   0  0  0  0  0  0  0  0  0  0  0  0
   18.1334   10.2385   28.3615 C   0  0  2  0  0  0  0  0  0  0  0  0
   18.8355    9.4577   27.2423 C   0  0  0  0  0  0  0  0  0  0  0  0
   17.8370    8.3576   27.5784 C   0  0  0  0  0  0  0  0  0  0  0  0
   17.0710    9.2526   28.4316 O   0  0  0  0  0  0  0  0  0  0  0  0
  1  2  1  0
  2  3  1  0
  2  4  1  0
  4  5  1  0
  5  6  2  0
  5  7  1  0
  7  8  1  0
  8  9  1  0
  9 10  1  0
 10 11  1  0
 11 12  2  0
 11 13  2  0
 11 14  1  0
 14 15  1  0
 15 16  1  0
 16 17  1  0
 17 18  1  0
 18 19  1  0
 10 20  1  0
 20 21  1  0
 22  2  1  6
 22 23  1  0
 23 24  1  0
 24 25  1  0
 21  7  1  0
 25 22  1  0
 19 14  1  0
M  END
>  <energy_score>  (4103) 
-47.034261

>  <inchikey>  (4103) 
KCKKYNOHSOWHHK-UHFFFAOYSA-N

>  <smiles>  (4103) 
CC(C)(OC(=O)C1CCN(S(=O)(=O)N2CCCCC2)CC1)C1CCO1

>  <ref_pdb>  (4103) 
A0875a

>  <alias>  (4103) 
KCKKYNOHSOWHHK-UHFFFAOYSA-N-P87-P87-P439-601505

>  <HIPPO Pose ID>  (4103) 
507726

>  <name>  (4103) 
KCKKYNOHSOWHHK-UHFFFAOYSA-N-P87-P87-P439-601505

>  <HIPPO Compound ID>  (4103) 
314399

>  <ref_mols>  (4103) 
A4706a,A0875a

>  <distance_score>  (4103) 
1.914819

>  <inspiration_score>  (4103) 
None

$$$$
RXKANFORUSLNDD-UHFFFAOYSA-N-P87-P87-P439-601505
     RDKit          3D

 25 27  0  0  0  0  0  0  0  0999 V2000
   17.2207    9.6226   27.2299 C   0  0  0  0  0  0  0  0  0  0  0  0
   17.0187   11.0946   27.5801 C   0  0  0  0  0  0  0  0  0  0  0  0
   18.0659   11.5079   28.6229 C   0  0  0  0  0  0  0  0  0  0  0  0
   15.5472   11.3870   28.0097 C   0  0  0  0  0  0  0  0  0  0  0  0
   14.5591   10.9069   27.0155 O   0  0  0  0  0  0  0  0  0  0  0  0
   14.5536   11.5738   25.8535 C   0  0  0  0  0  0  0  0  0  0  0  0
   15.3777   12.4429   25.5917 O   0  0  0  0  0  0  0  0  0  0  0  0
   13.4919   11.1927   24.8173 C   0  0  0  0  0  0  0  0  0  0  0  0
   12.9321   12.5354   24.3584 C   0  0  0  0  0  0  0  0  0  0  0  0
   11.8835   12.8863   25.3814 C   0  0  0  0  0  0  0  0  0  0  0  0
   10.6358   12.0904   25.1577 N   0  0  0  0  0  0  0  0  0  0  0  0
    9.4351   13.2067   24.7689 S   0  0  0  0  0  0  0  0  0  0  0  0
    9.8361   13.8771   23.5564 O   0  0  0  0  0  0  0  0  0  0  0  0
    9.3543   13.9051   26.0259 O   0  0  0  0  0  0  0  0  0  0  0  0
    7.9400   12.4949   24.5161 N   0  0  0  0  0  0  0  0  0  0  0  0
    7.4160   11.5911   25.5340 C   0  0  0  0  0  0  0  0  0  0  0  0
    6.7196   12.2950   26.6769 C   0  0  0  0  0  0  0  0  0  0  0  0
    5.6021   13.2187   26.2734 C   0  0  0  0  0  0  0  0  0  0  0  0
    5.6759   13.7545   24.8572 C   0  0  0  0  0  0  0  0  0  0  0  0
    6.9141   13.4790   23.9909 C   0  0  0  0  0  0  0  0  0  0  0  0
   10.8626   10.8462   24.4168 C   0  0  0  0  0  0  0  0  0  0  0  0
   12.2463   10.2003   24.8424 C   0  0  0  0  0  0  0  0  0  0  0  0
   15.1872   11.0048   29.4732 C   0  0  0  0  0  0  0  0  0  0  0  0
   15.2477   12.3834   29.9007 O   0  0  0  0  0  0  0  0  0  0  0  0
   15.2833   12.8335   28.5277 C   0  0  0  0  0  0  0  0  0  0  0  0
  1  2  1  0
  2  3  1  0
  2  4  1  0
  4  5  1  0
  5  6  1  0
  6  7  2  0
  6  8  1  0
  8  9  1  0
  9 10  1  0
 10 11  1  0
 11 12  1  0
 12 13  2  0
 12 14  2  0
 12 15  1  0
 15 16  1  0
 16 17  1  0
 17 18  1  0
 18 19  1  0
 19 20  1  0
 11 21  1  0
 21 22  1  0
  4 23  1  0
 23 24  1  0
 24 25  1  0
 25  4  1  0
 22  8  1  0
 20 15  1  0
M  END
>  <energy_score>  (4104) 
-31.693015

>  <inchikey>  (4104) 
RXKANFORUSLNDD-UHFFFAOYSA-N

>  <smiles>  (4104) 
CC(C)C1(OC(=O)C2CCN(S(=O)(=O)N3CCCCC3)CC2)COC1

>  <ref_pdb>  (4104) 
A0875a

>  <alias>  (4104) 
RXKANFORUSLNDD-UHFFFAOYSA-N-P87-P87-P439-601505

>  <HIPPO Pose ID>  (4104) 
507728

>  <name>  (4104) 
RXKANFORUSLNDD-UHFFFAOYSA-N-P87-P87-P439-601505

>  <HIPPO Compound ID>  (4104) 
314400

>  <ref_mols>  (4104) 
A4706a,A0875a

>  <distance_score>  (4104) 
1.219857

>  <inspiration_score>  (4104) 
None

$$$$
RXKANFORUSLNDD-UHFFFAOYSA-N-P439-P87-P439-601505
     RDKit          3D

 25 27  0  0  0  0  0  0  0  0999 V2000
   17.4837    9.3996   27.1038 C   0  0  0  0  0  0  0  0  0  0  0  0
   16.9807   10.0663   28.3792 C   0  0  0  0  0  0  0  0  0  0  0  0
   18.1807   10.2243   29.3302 C   0  0  0  0  0  0  0  0  0  0  0  0
   16.1925   11.3732   28.0649 C   0  0  0  0  0  0  0  0  0  0  0  0
   15.2069   11.1722   26.9491 O   0  0  0  0  0  0  0  0  0  0  0  0
   14.3672   12.2211   26.6465 C   0  0  0  0  0  0  0  0  0  0  0  0
   14.2871   13.2323   27.3276 O   0  0  0  0  0  0  0  0  0  0  0  0
   13.4772   12.0106   25.3812 C   0  0  0  0  0  0  0  0  0  0  0  0
   12.9531   13.3376   24.8478 C   0  0  0  0  0  0  0  0  0  0  0  0
   11.8366   13.9263   25.7057 C   0  0  0  0  0  0  0  0  0  0  0  0
   10.6115   13.1060   25.6186 N   0  0  0  0  0  0  0  0  0  0  0  0
    9.2869   13.9947   25.0557 S   0  0  0  0  0  0  0  0  0  0  0  0
    9.2144   13.8658   23.6231 O   0  0  0  0  0  0  0  0  0  0  0  0
    9.3872   15.2838   25.6986 O   0  0  0  0  0  0  0  0  0  0  0  0
    7.9936   13.2046   25.7666 N   0  0  0  0  0  0  0  0  0  0  0  0
    7.4187   12.0396   25.0706 C   0  0  0  0  0  0  0  0  0  0  0  0
    6.6975   11.2148   26.1280 C   0  0  0  0  0  0  0  0  0  0  0  0
    5.5885   12.0269   26.7948 C   0  0  0  0  0  0  0  0  0  0  0  0
    6.1103   13.3575   27.3247 C   0  0  0  0  0  0  0  0  0  0  0  0
    6.9116   14.1047   26.2641 C   0  0  0  0  0  0  0  0  0  0  0  0
   10.8571   11.7554   25.1068 C   0  0  0  0  0  0  0  0  0  0  0  0
   12.2135   11.2421   25.6610 C   0  0  0  0  0  0  0  0  0  0  0  0
   15.6666   12.0433   29.3656 C   0  0  0  0  0  0  0  0  0  0  0  0
   16.4124   13.2535   29.0888 O   0  0  0  0  0  0  0  0  0  0  0  0
   17.0895   12.6233   27.9733 C   0  0  0  0  0  0  0  0  0  0  0  0
  1  2  1  0
  2  3  1  0
  2  4  1  0
  4  5  1  0
  5  6  1  0
  6  7  2  0
  6  8  1  0
  8  9  1  0
  9 10  1  0
 10 11  1  0
 11 12  1  0
 12 13  2  0
 12 14  2  0
 12 15  1  0
 15 16  1  0
 16 17  1  0
 17 18  1  0
 18 19  1  0
 19 20  1  0
 11 21  1  0
 21 22  1  0
  4 23  1  0
 23 24  1  0
 24 25  1  0
 25  4  1  0
 22  8  1  0
 20 15  1  0
M  END
>  <energy_score>  (4105) 
-61.98081

>  <inchikey>  (4105) 
RXKANFORUSLNDD-UHFFFAOYSA-N

>  <smiles>  (4105) 
CC(C)C1(OC(=O)C2CCN(S(=O)(=O)N3CCCCC3)CC2)COC1

>  <ref_pdb>  (4105) 
A0875a

>  <alias>  (4105) 
RXKANFORUSLNDD-UHFFFAOYSA-N-P439-P87-P439-601505

>  <HIPPO Pose ID>  (4105) 
507729

>  <name>  (4105) 
RXKANFORUSLNDD-UHFFFAOYSA-N-P439-P87-P439-601505

>  <HIPPO Compound ID>  (4105) 
314400

>  <ref_mols>  (4105) 
A4706a,A0875a

>  <distance_score>  (4105) 
1.529929

>  <inspiration_score>  (4105) 
None

$$$$
UKLGAIZLVQSDJU-UHFFFAOYSA-N-P439-P87-P439-601505
     RDKit          3D

 25 28  0  0  0  0  0  0  0  0999 V2000
    5.9792   13.8151   21.8251 O   0  0  0  0  0  0  0  0  0  0  0  0
    6.9825   13.7524   22.5117 C   0  0  0  0  0  0  0  0  0  0  0  0
    8.2705   13.6579   22.0289 O   0  0  0  0  0  0  0  0  0  0  0  0
    8.5893   14.6602   21.0630 C   0  0  1  0  0  0  0  0  0  0  0  0
    8.7253   16.0144   21.7519 C   0  0  0  0  0  0  0  0  0  0  0  0
   10.1117   16.4639   21.3245 C   0  0  1  0  0  0  0  0  0  0  0  0
   11.2135   15.6680   22.0061 C   0  0  0  0  0  0  0  0  0  0  0  0
   11.1079   14.3199   21.3247 C   0  0  0  0  0  0  0  0  0  0  0  0
    9.9611   14.5525   20.3711 C   0  0  2  0  0  0  0  0  0  0  0  0
   10.1880   15.9240   19.9960 O   0  0  0  0  0  0  0  0  0  0  0  0
    7.0300   13.7313   24.0123 C   0  0  0  0  0  0  0  0  0  0  0  0
    6.7623   12.4052   24.7114 C   0  0  0  0  0  0  0  0  0  0  0  0
    7.2849   12.4491   26.1555 C   0  0  0  0  0  0  0  0  0  0  0  0
    7.6545   13.8252   26.5456 N   0  0  0  0  0  0  0  0  0  0  0  0
    9.2053   14.4806   26.4471 S   0  0  0  0  0  0  0  0  0  0  0  0
    9.4699   15.0599   27.7375 O   0  0  0  0  0  0  0  0  0  0  0  0
    9.3368   15.2931   25.2596 O   0  0  0  0  0  0  0  0  0  0  0  0
   10.2823   13.1987   26.2392 N   0  0  0  0  0  0  0  0  0  0  0  0
   11.6848   13.6552   26.5085 C   0  0  0  0  0  0  0  0  0  0  0  0
   12.6752   12.4986   26.4434 C   0  0  0  0  0  0  0  0  0  0  0  0
   12.4427   11.6004   25.2405 C   0  0  0  0  0  0  0  0  0  0  0  0
   10.9568   11.2942   24.9982 C   0  0  0  0  0  0  0  0  0  0  0  0
   10.2431   12.6017   24.8913 C   0  0  0  0  0  0  0  0  0  0  0  0
    6.5545   14.7904   26.2504 C   0  0  0  0  0  0  0  0  0  0  0  0
    6.3026   14.8631   24.7330 C   0  0  0  0  0  0  0  0  0  0  0  0
  1  2  2  0
  2  3  1  0
  4  3  1  1
  4  5  1  0
  6  5  1  1
  6  7  1  0
  7  8  1  0
  9  8  1  1
  9 10  1  0
  2 11  1  0
 11 12  1  0
 12 13  1  0
 13 14  1  0
 14 15  1  0
 15 16  2  0
 15 17  2  0
 15 18  1  0
 18 19  1  0
 19 20  1  0
 20 21  1  0
 21 22  1  0
 22 23  1  0
 14 24  1  0
 24 25  1  0
  9  4  1  0
 25 11  1  0
 10  6  1  0
 23 18  1  0
M  END
>  <energy_score>  (4106) 
-16.197854

>  <inchikey>  (4106) 
UKLGAIZLVQSDJU-UHFFFAOYSA-N

>  <smiles>  (4106) 
O=C(OC1CC2CCC1O2)C1CCN(S(=O)(=O)N2CCCCC2)CC1

>  <ref_pdb>  (4106) 
A0875a

>  <alias>  (4106) 
UKLGAIZLVQSDJU-UHFFFAOYSA-N-P439-P87-P439-601505

>  <HIPPO Pose ID>  (4106) 
507731

>  <name>  (4106) 
UKLGAIZLVQSDJU-UHFFFAOYSA-N-P439-P87-P439-601505

>  <HIPPO Compound ID>  (4106) 
314401

>  <ref_mols>  (4106) 
A4706a,A0875a

>  <distance_score>  (4106) 
1.827511

>  <inspiration_score>  (4106) 
None

$$$$
BVVOKTGDTQUMNL-UHFFFAOYSA-N-P439-P87-P439-601505
     RDKit          3D

 25 27  0  0  0  0  0  0  0  0999 V2000
   10.6589   15.8533   22.8894 C   0  0  0  0  0  0  0  0  0  0  0  0
    9.6407   14.9655   22.1739 C   0  0  1  0  0  0  0  0  0  0  0  0
    8.4053   14.9791   22.9721 O   0  0  0  0  0  0  0  0  0  0  0  0
    7.3977   14.1011   22.7551 C   0  0  0  0  0  0  0  0  0  0  0  0
    7.4041   13.2318   21.8899 O   0  0  0  0  0  0  0  0  0  0  0  0
    6.2017   14.1733   23.7042 C   0  0  0  0  0  0  0  0  0  0  0  0
    6.2088   12.9473   24.6584 C   0  0  0  0  0  0  0  0  0  0  0  0
    6.8825   13.2361   25.9982 C   0  0  0  0  0  0  0  0  0  0  0  0
    7.7496   14.3912   25.7645 N   0  0  0  0  0  0  0  0  0  0  0  0
    9.2452   14.5448   26.4365 S   0  0  0  0  0  0  0  0  0  0  0  0
    9.1886   14.1000   27.7989 O   0  0  0  0  0  0  0  0  0  0  0  0
    9.7527   15.8569   26.1474 O   0  0  0  0  0  0  0  0  0  0  0  0
   10.2310   13.4834   25.5677 N   0  0  0  0  0  0  0  0  0  0  0  0
    9.8769   12.0632   25.6714 C   0  0  0  0  0  0  0  0  0  0  0  0
   10.9247   11.1515   25.0821 C   0  0  0  0  0  0  0  0  0  0  0  0
   12.3587   11.5206   25.4742 C   0  0  0  0  0  0  0  0  0  0  0  0
   12.6153   12.9495   25.0956 C   0  0  0  0  0  0  0  0  0  0  0  0
   11.6490   13.8045   25.8766 C   0  0  0  0  0  0  0  0  0  0  0  0
    6.9371   15.6179   25.6710 C   0  0  0  0  0  0  0  0  0  0  0  0
    6.0371   15.4974   24.4480 C   0  0  0  0  0  0  0  0  0  0  0  0
    9.3893   15.4617   20.7398 C   0  0  0  0  0  0  0  0  0  0  0  0
   10.4931   15.0828   19.7592 C   0  0  0  0  0  0  0  0  0  0  0  0
   11.7773   14.6401   20.4295 C   0  0  0  0  0  0  0  0  0  0  0  0
   11.6340   13.7099   21.5071 O   0  0  0  0  0  0  0  0  0  0  0  0
   10.3312   13.6212   22.0874 C   0  0  0  0  0  0  0  0  0  0  0  0
  2  1  1  1
  2  3  1  0
  3  4  1  0
  4  5  2  0
  4  6  1  0
  6  7  1  0
  7  8  1  0
  8  9  1  0
  9 10  1  0
 10 11  2  0
 10 12  2  0
 10 13  1  0
 13 14  1  0
 14 15  1  0
 15 16  1  0
 16 17  1  0
 17 18  1  0
  9 19  1  0
 19 20  1  0
  2 21  1  0
 21 22  1  0
 22 23  1  0
 23 24  1  0
 24 25  1  0
 25  2  1  0
 20  6  1  0
 18 13  1  0
M  END
>  <energy_score>  (4107) 
-37.778043

>  <inchikey>  (4107) 
BVVOKTGDTQUMNL-UHFFFAOYSA-N

>  <smiles>  (4107) 
CC1(OC(=O)C2CCN(S(=O)(=O)N3CCCCC3)CC2)CCCOC1

>  <ref_pdb>  (4107) 
A0875a

>  <alias>  (4107) 
BVVOKTGDTQUMNL-UHFFFAOYSA-N-P439-P87-P439-601505

>  <HIPPO Pose ID>  (4107) 
507733

>  <name>  (4107) 
BVVOKTGDTQUMNL-UHFFFAOYSA-N-P439-P87-P439-601505

>  <HIPPO Compound ID>  (4107) 
314402

>  <ref_mols>  (4107) 
A4706a,A0875a

>  <distance_score>  (4107) 
1.902518

>  <inspiration_score>  (4107) 
None

$$$$
HNEAVBWKPSPQSJ-UHFFFAOYSA-N-P87-P87-P439-601505
     RDKit          3D

 25 27  0  0  0  0  0  0  0  0999 V2000
   14.7672   11.8782   30.0370 C   0  0  0  0  0  0  0  0  0  0  0  0
   15.4409   12.7689   28.9908 C   0  0  2  0  0  0  0  0  0  0  0  0
   14.5489   13.8941   28.6595 N   0  0  0  0  0  0  0  0  0  0  0  0
   15.8039   11.9496   27.7259 C   0  0  0  0  0  0  0  0  0  0  0  0
   14.5875   11.6757   26.9483 O   0  0  0  0  0  0  0  0  0  0  0  0
   14.6611   10.8458   25.8864 C   0  0  0  0  0  0  0  0  0  0  0  0
   15.4632    9.9331   25.7561 O   0  0  0  0  0  0  0  0  0  0  0  0
   13.5641   11.0528   24.8563 C   0  0  0  0  0  0  0  0  0  0  0  0
   13.1835   12.4977   24.6596 C   0  0  0  0  0  0  0  0  0  0  0  0
   12.0458   12.8194   25.5854 C   0  0  0  0  0  0  0  0  0  0  0  0
   10.7913   12.1142   25.1851 N   0  0  0  0  0  0  0  0  0  0  0  0
    9.6005   13.2585   24.8236 S   0  0  0  0  0  0  0  0  0  0  0  0
    9.9933   13.9694   23.6341 O   0  0  0  0  0  0  0  0  0  0  0  0
    9.4677   13.9211   26.0963 O   0  0  0  0  0  0  0  0  0  0  0  0
    8.1465   12.4525   24.5495 N   0  0  0  0  0  0  0  0  0  0  0  0
    7.8182   11.3717   25.4820 C   0  0  0  0  0  0  0  0  0  0  0  0
    6.5215   11.4898   26.2561 C   0  0  0  0  0  0  0  0  0  0  0  0
    6.0064   12.8801   26.4449 C   0  0  0  0  0  0  0  0  0  0  0  0
    5.8588   13.5391   25.0974 C   0  0  0  0  0  0  0  0  0  0  0  0
    7.0301   13.3669   24.1221 C   0  0  0  0  0  0  0  0  0  0  0  0
   10.9851   10.9292   24.3465 C   0  0  0  0  0  0  0  0  0  0  0  0
   12.2667   10.1505   24.8001 C   0  0  0  0  0  0  0  0  0  0  0  0
   16.8541   10.8535   28.0299 C   0  0  0  0  0  0  0  0  0  0  0  0
   17.8355   11.4846   27.1784 O   0  0  0  0  0  0  0  0  0  0  0  0
   16.9578   12.6031   26.9331 C   0  0  0  0  0  0  0  0  0  0  0  0
  2  1  1  1
  2  3  1  0
  2  4  1  0
  4  5  1  0
  5  6  1  0
  6  7  2  0
  6  8  1  0
  8  9  1  0
  9 10  1  0
 10 11  1  0
 11 12  1  0
 12 13  2  0
 12 14  2  0
 12 15  1  0
 15 16  1  0
 16 17  1  0
 17 18  1  0
 18 19  1  0
 19 20  1  0
 11 21  1  0
 21 22  1  0
  4 23  1  0
 23 24  1  0
 24 25  1  0
 25  4  1  0
 22  8  1  0
 20 15  1  0
M  END
>  <energy_score>  (4108) 
-57.131999

>  <inchikey>  (4108) 
HNEAVBWKPSPQSJ-UHFFFAOYSA-N

>  <smiles>  (4108) 
CC(N)C1(OC(=O)C2CCN(S(=O)(=O)N3CCCCC3)CC2)COC1

>  <ref_pdb>  (4108) 
A0875a

>  <alias>  (4108) 
HNEAVBWKPSPQSJ-UHFFFAOYSA-N-P87-P87-P439-601505

>  <HIPPO Pose ID>  (4108) 
507734

>  <name>  (4108) 
HNEAVBWKPSPQSJ-UHFFFAOYSA-N-P87-P87-P439-601505

>  <HIPPO Compound ID>  (4108) 
314403

>  <ref_mols>  (4108) 
A4706a,A0875a

>  <distance_score>  (4108) 
1.200195

>  <inspiration_score>  (4108) 
None

$$$$
HNEAVBWKPSPQSJ-UHFFFAOYSA-N-P439-P87-P439-601505
     RDKit          3D

 25 27  0  0  0  0  0  0  0  0999 V2000
   15.0400   10.1937   30.4266 C   0  0  0  0  0  0  0  0  0  0  0  0
   15.4679   11.4791   29.7290 C   0  0  2  0  0  0  0  0  0  0  0  0
   14.3794   12.4512   29.8967 N   0  0  0  0  0  0  0  0  0  0  0  0
   15.9328   11.2888   28.2506 C   0  0  0  0  0  0  0  0  0  0  0  0
   14.8498   11.1244   27.2461 O   0  0  0  0  0  0  0  0  0  0  0  0
   14.3030   12.2765   26.7598 C   0  0  0  0  0  0  0  0  0  0  0  0
   14.4707   13.3504   27.3187 O   0  0  0  0  0  0  0  0  0  0  0  0
   13.4950   12.0747   25.4359 C   0  0  0  0  0  0  0  0  0  0  0  0
   12.9314   13.3853   24.9152 C   0  0  0  0  0  0  0  0  0  0  0  0
   11.7797   13.8802   25.7966 C   0  0  0  0  0  0  0  0  0  0  0  0
   10.5944   12.9786   25.6460 N   0  0  0  0  0  0  0  0  0  0  0  0
    9.2523   13.8686   25.1494 S   0  0  0  0  0  0  0  0  0  0  0  0
    9.5576   14.4308   23.8555 O   0  0  0  0  0  0  0  0  0  0  0  0
    8.9471   14.7277   26.2694 O   0  0  0  0  0  0  0  0  0  0  0  0
    7.9843   12.7793   24.9502 N   0  0  0  0  0  0  0  0  0  0  0  0
    7.7918   11.7002   25.9427 C   0  0  0  0  0  0  0  0  0  0  0  0
    6.3799   11.6264   26.5045 C   0  0  0  0  0  0  0  0  0  0  0  0
    5.9019   12.9951   26.9499 C   0  0  0  0  0  0  0  0  0  0  0  0
    5.9575   13.9958   25.7976 C   0  0  0  0  0  0  0  0  0  0  0  0
    6.7108   13.4707   24.5730 C   0  0  0  0  0  0  0  0  0  0  0  0
   10.9316   11.7247   24.9689 C   0  0  0  0  0  0  0  0  0  0  0  0
   12.2667   11.2170   25.5824 C   0  0  0  0  0  0  0  0  0  0  0  0
   17.0945   10.2660   28.0611 C   0  0  0  0  0  0  0  0  0  0  0  0
   18.0795   11.3050   27.9378 O   0  0  0  0  0  0  0  0  0  0  0  0
   17.0562   12.3168   27.9298 C   0  0  0  0  0  0  0  0  0  0  0  0
  2  1  1  6
  2  3  1  0
  2  4  1  0
  4  5  1  0
  5  6  1  0
  6  7  2  0
  6  8  1  0
  8  9  1  0
  9 10  1  0
 10 11  1  0
 11 12  1  0
 12 13  2  0
 12 14  2  0
 12 15  1  0
 15 16  1  0
 16 17  1  0
 17 18  1  0
 18 19  1  0
 19 20  1  0
 11 21  1  0
 21 22  1  0
  4 23  1  0
 23 24  1  0
 24 25  1  0
 25  4  1  0
 22  8  1  0
 20 15  1  0
M  END
>  <energy_score>  (4109) 
-73.091815

>  <inchikey>  (4109) 
HNEAVBWKPSPQSJ-UHFFFAOYSA-N

>  <smiles>  (4109) 
CC(N)C1(OC(=O)C2CCN(S(=O)(=O)N3CCCCC3)CC2)COC1

>  <ref_pdb>  (4109) 
A0875a

>  <alias>  (4109) 
HNEAVBWKPSPQSJ-UHFFFAOYSA-N-P439-P87-P439-601505

>  <HIPPO Pose ID>  (4109) 
507735

>  <name>  (4109) 
HNEAVBWKPSPQSJ-UHFFFAOYSA-N-P439-P87-P439-601505

>  <HIPPO Compound ID>  (4109) 
314403

>  <ref_mols>  (4109) 
A4706a,A0875a

>  <distance_score>  (4109) 
1.56297

>  <inspiration_score>  (4109) 
None

$$$$
LIRBXGLFKVMAJG-UHFFFAOYSA-N-P439-P87-P439-601505
     RDKit          3D

 25 27  0  0  0  0  0  0  0  0999 V2000
    9.5966   17.1764   20.8098 C   0  0  0  0  0  0  0  0  0  0  0  0
   10.3933   15.8881   20.6797 C   0  0  2  0  0  0  0  0  0  0  0  0
    9.5107   14.8410   20.0826 C   0  0  0  0  0  0  0  0  0  0  0  0
    8.3531   14.5500   21.0185 C   0  0  0  0  0  0  0  0  0  0  0  0
    8.7398   14.5769   22.4911 C   0  0  1  0  0  0  0  0  0  0  0  0
    8.0457   13.5383   23.2169 O   0  0  0  0  0  0  0  0  0  0  0  0
    6.7133   13.7758   23.3906 C   0  0  0  0  0  0  0  0  0  0  0  0
    6.0629   14.5933   22.7487 O   0  0  0  0  0  0  0  0  0  0  0  0
    6.0703   12.9716   24.5127 C   0  0  0  0  0  0  0  0  0  0  0  0
    6.9019   11.8042   25.0835 C   0  0  0  0  0  0  0  0  0  0  0  0
    7.7135   12.2259   26.3064 C   0  0  0  0  0  0  0  0  0  0  0  0
    8.0963   13.6074   26.0584 N   0  0  0  0  0  0  0  0  0  0  0  0
    9.5332   14.2517   26.5425 S   0  0  0  0  0  0  0  0  0  0  0  0
    9.8972   15.2581   25.5781 O   0  0  0  0  0  0  0  0  0  0  0  0
    9.3735   14.5931   27.9328 O   0  0  0  0  0  0  0  0  0  0  0  0
   10.6824   13.0029   26.4839 N   0  0  0  0  0  0  0  0  0  0  0  0
   11.9274   13.5146   27.1428 C   0  0  0  0  0  0  0  0  0  0  0  0
   13.1187   12.5825   26.9760 C   0  0  0  0  0  0  0  0  0  0  0  0
   13.3802   12.2016   25.5288 C   0  0  0  0  0  0  0  0  0  0  0  0
   12.2900   12.7676   24.6309 C   0  0  0  0  0  0  0  0  0  0  0  0
   10.9249   12.3705   25.1659 C   0  0  0  0  0  0  0  0  0  0  0  0
    6.9560   14.5563   26.2321 C   0  0  0  0  0  0  0  0  0  0  0  0
    5.6970   13.9545   25.6229 C   0  0  0  0  0  0  0  0  0  0  0  0
   10.2586   14.4608   22.5881 C   0  0  0  0  0  0  0  0  0  0  0  0
   10.9540   15.5104   21.9284 O   0  0  0  0  0  0  0  0  0  0  0  0
  2  1  1  1
  2  3  1  0
  3  4  1  0
  4  5  1  0
  5  6  1  1
  6  7  1  0
  7  8  2  0
  7  9  1  0
  9 10  1  0
 10 11  1  0
 11 12  1  0
 12 13  1  0
 13 14  2  0
 13 15  2  0
 13 16  1  0
 16 17  1  0
 17 18  1  0
 18 19  1  0
 19 20  1  0
 20 21  1  0
 12 22  1  0
 22 23  1  0
  5 24  1  0
 24 25  1  0
 25  2  1  0
 23  9  1  0
 21 16  1  0
M  END
>  <energy_score>  (4110) 
-38.881283

>  <inchikey>  (4110) 
LIRBXGLFKVMAJG-UHFFFAOYSA-N

>  <smiles>  (4110) 
CC1CCC(OC(=O)C2CCN(S(=O)(=O)N3CCCCC3)CC2)CO1

>  <ref_pdb>  (4110) 
A0875a

>  <alias>  (4110) 
LIRBXGLFKVMAJG-UHFFFAOYSA-N-P439-P87-P439-601505

>  <HIPPO Pose ID>  (4110) 
507737

>  <name>  (4110) 
LIRBXGLFKVMAJG-UHFFFAOYSA-N-P439-P87-P439-601505

>  <HIPPO Compound ID>  (4110) 
314404

>  <ref_mols>  (4110) 
A4706a,A0875a

>  <distance_score>  (4110) 
1.797821

>  <inspiration_score>  (4110) 
None

$$$$
JNNKKDXKOMOTQA-UHFFFAOYSA-N-P439-P87-P439-601505
     RDKit          3D

 25 28  0  0  0  0  0  0  0  0999 V2000
    6.7322   13.2154   22.3399 O   0  0  0  0  0  0  0  0  0  0  0  0
    6.9665   14.0049   23.2519 C   0  0  0  0  0  0  0  0  0  0  0  0
    7.7554   15.1045   23.1646 O   0  0  0  0  0  0  0  0  0  0  0  0
    8.4884   15.4297   21.9612 C   0  0  1  0  0  0  0  0  0  0  0  0
    9.8447   16.0962   22.2676 C   0  0  0  0  0  0  0  0  0  0  0  0
   10.8596   15.5540   21.4198 O   0  0  0  0  0  0  0  0  0  0  0  0
   10.1383   14.8871   20.3930 C   0  0  0  0  0  0  0  0  0  0  0  0
   10.9008   14.4960   19.1630 C   0  0  0  0  0  0  0  0  0  0  0  0
    9.9767   15.6590   19.1182 C   0  0  0  0  0  0  0  0  0  0  0  0
    8.9194   14.3160   21.0272 C   0  0  0  0  0  0  0  0  0  0  0  0
    6.3452   13.8247   24.6461 C   0  0  0  0  0  0  0  0  0  0  0  0
    6.5117   12.3774   25.1490 C   0  0  0  0  0  0  0  0  0  0  0  0
    7.8887   12.0255   25.7183 C   0  0  0  0  0  0  0  0  0  0  0  0
    8.5552   13.2065   26.3208 N   0  0  0  0  0  0  0  0  0  0  0  0
    9.8193   13.8727   25.4210 S   0  0  0  0  0  0  0  0  0  0  0  0
    9.5814   13.5611   24.0389 O   0  0  0  0  0  0  0  0  0  0  0  0
   10.0395   15.2188   25.8835 O   0  0  0  0  0  0  0  0  0  0  0  0
   11.1446   12.9208   25.9121 N   0  0  0  0  0  0  0  0  0  0  0  0
   11.8605   13.5265   27.0642 C   0  0  0  0  0  0  0  0  0  0  0  0
   13.1322   12.7604   27.4464 C   0  0  0  0  0  0  0  0  0  0  0  0
   13.9897   12.2939   26.2856 C   0  0  0  0  0  0  0  0  0  0  0  0
   13.1194   11.6834   25.2189 C   0  0  0  0  0  0  0  0  0  0  0  0
   12.0672   12.6845   24.7709 C   0  0  0  0  0  0  0  0  0  0  0  0
    7.5765   14.1848   26.8579 C   0  0  0  0  0  0  0  0  0  0  0  0
    6.7653   14.8264   25.7348 C   0  0  0  0  0  0  0  0  0  0  0  0
  1  2  2  0
  2  3  1  0
  4  3  1  1
  4  5  1  0
  5  6  1  0
  6  7  1  0
  7  8  1  0
  8  9  1  0
  7 10  1  0
  2 11  1  0
 11 12  1  0
 12 13  1  0
 13 14  1  0
 14 15  1  0
 15 16  2  0
 15 17  2  0
 15 18  1  0
 18 19  1  0
 19 20  1  0
 20 21  1  0
 21 22  1  0
 22 23  1  0
 14 24  1  0
 24 25  1  0
 10  4  1  0
 25 11  1  0
  9  7  1  0
 23 18  1  0
M  END
>  <energy_score>  (4111) 
-31.29675

>  <inchikey>  (4111) 
JNNKKDXKOMOTQA-UHFFFAOYSA-N

>  <smiles>  (4111) 
O=C(OC1COC2(CC2)C1)C1CCN(S(=O)(=O)N2CCCCC2)CC1

>  <ref_pdb>  (4111) 
A0875a

>  <alias>  (4111) 
JNNKKDXKOMOTQA-UHFFFAOYSA-N-P439-P87-P439-601505

>  <HIPPO Pose ID>  (4111) 
507739

>  <name>  (4111) 
JNNKKDXKOMOTQA-UHFFFAOYSA-N-P439-P87-P439-601505

>  <HIPPO Compound ID>  (4111) 
314405

>  <ref_mols>  (4111) 
A4706a,A0875a

>  <distance_score>  (4111) 
1.52606

>  <inspiration_score>  (4111) 
None

$$$$
GWDWHUGSVMQWNX-UHFFFAOYSA-N-P439-P87-P439-601505
     RDKit          3D

 25 26  0  0  0  0  0  0  0  0999 V2000
   12.3032   15.5543   21.9228 C   0  0  0  0  0  0  0  0  0  0  0  0
   11.3691   14.7984   22.6684 O   0  0  0  0  0  0  0  0  0  0  0  0
   10.3622   14.2491   21.8186 C   0  0  0  0  0  0  0  0  0  0  0  0
    9.4969   15.2891   21.1080 C   0  0  2  0  0  0  0  0  0  0  0  0
    7.9842   15.1899   21.4607 C   0  0  0  0  0  0  0  0  0  0  0  0
    7.5530   15.0317   22.8200 O   0  0  0  0  0  0  0  0  0  0  0  0
    6.5141   14.1665   23.0101 C   0  0  0  0  0  0  0  0  0  0  0  0
    6.1287   13.3561   22.1691 O   0  0  0  0  0  0  0  0  0  0  0  0
    5.8243   14.2936   24.3835 C   0  0  0  0  0  0  0  0  0  0  0  0
    5.6324   12.9054   25.0381 C   0  0  0  0  0  0  0  0  0  0  0  0
    6.6383   12.4751   26.1051 C   0  0  0  0  0  0  0  0  0  0  0  0
    7.7393   13.4419   26.1928 N   0  0  0  0  0  0  0  0  0  0  0  0
    8.9182   13.3151   25.0014 S   0  0  0  0  0  0  0  0  0  0  0  0
    8.4266   12.4046   23.9972 O   0  0  0  0  0  0  0  0  0  0  0  0
    9.4212   14.6351   24.7182 O   0  0  0  0  0  0  0  0  0  0  0  0
   10.0944   12.4963   25.8472 N   0  0  0  0  0  0  0  0  0  0  0  0
   10.7510   13.3317   26.8361 C   0  0  0  0  0  0  0  0  0  0  0  0
   11.9837   14.0044   26.3309 C   0  0  0  0  0  0  0  0  0  0  0  0
   12.8826   13.1338   25.4569 C   0  0  0  0  0  0  0  0  0  0  0  0
   12.4272   11.7070   25.4897 C   0  0  0  0  0  0  0  0  0  0  0  0
   10.9790   11.6569   25.0116 C   0  0  0  0  0  0  0  0  0  0  0  0
    7.2369   14.7940   26.4891 C   0  0  0  0  0  0  0  0  0  0  0  0
    6.3898   15.3435   25.3477 C   0  0  0  0  0  0  0  0  0  0  0  0
    9.5076   15.1254   19.6745 O   0  0  0  0  0  0  0  0  0  0  0  0
   10.7238   15.0361   18.9658 C   0  0  0  0  0  0  0  0  0  0  0  0
  1  2  1  0
  2  3  1  0
  4  3  1  1
  4  5  1  0
  5  6  1  0
  6  7  1  0
  7  8  2  0
  7  9  1  0
  9 10  1  0
 10 11  1  0
 11 12  1  0
 12 13  1  0
 13 14  2  0
 13 15  2  0
 13 16  1  0
 16 17  1  0
 17 18  1  0
 18 19  1  0
 19 20  1  0
 20 21  1  0
 12 22  1  0
 22 23  1  0
  4 24  1  0
 24 25  1  0
 23  9  1  0
 21 16  1  0
M  END
>  <energy_score>  (4112) 
-26.399094

>  <inchikey>  (4112) 
GWDWHUGSVMQWNX-UHFFFAOYSA-N

>  <smiles>  (4112) 
COCC(COC(=O)C1CCN(S(=O)(=O)N2CCCCC2)CC1)OC

>  <ref_pdb>  (4112) 
A0875a

>  <alias>  (4112) 
GWDWHUGSVMQWNX-UHFFFAOYSA-N-P439-P87-P439-601505

>  <HIPPO Pose ID>  (4112) 
507741

>  <name>  (4112) 
GWDWHUGSVMQWNX-UHFFFAOYSA-N-P439-P87-P439-601505

>  <HIPPO Compound ID>  (4112) 
314406

>  <ref_mols>  (4112) 
A4706a,A0875a

>  <distance_score>  (4112) 
1.650812

>  <inspiration_score>  (4112) 
None

$$$$
FKIZANYFTHOCHB-UHFFFAOYSA-N-P87-P87-P439-601505
     RDKit          3D

 25 27  0  0  0  0  0  0  0  0999 V2000
   13.1388   16.3615   20.6867 C   0  0  0  0  0  0  0  0  0  0  0  0
   12.2819   15.4465   21.5408 C   0  0  2  0  0  0  0  0  0  0  0  0
   11.8382   14.3281   20.7782 O   0  0  0  0  0  0  0  0  0  0  0  0
   10.5139   14.1220   21.2535 C   0  0  0  0  0  0  0  0  0  0  0  0
   10.0004   15.4889   21.5668 C   0  0  1  0  0  0  0  0  0  0  0  0
    8.7797   15.6488   22.4770 C   0  0  0  0  0  0  0  0  0  0  0  0
    8.6109   14.5717   23.4125 O   0  0  0  0  0  0  0  0  0  0  0  0
    7.8100   13.5648   23.0289 C   0  0  0  0  0  0  0  0  0  0  0  0
    7.2026   13.5033   21.9692 O   0  0  0  0  0  0  0  0  0  0  0  0
    7.7829   12.3935   23.9898 C   0  0  0  0  0  0  0  0  0  0  0  0
    8.9884   11.4872   23.7303 C   0  0  0  0  0  0  0  0  0  0  0  0
    9.7862   11.1789   24.9530 C   0  0  0  0  0  0  0  0  0  0  0  0
    9.9611   12.3472   25.7816 N   0  0  0  0  0  0  0  0  0  0  0  0
   11.2835   13.3681   25.6245 S   0  0  0  0  0  0  0  0  0  0  0  0
   11.1980   13.9056   24.2948 O   0  0  0  0  0  0  0  0  0  0  0  0
   11.2080   14.2093   26.7991 O   0  0  0  0  0  0  0  0  0  0  0  0
   12.6491   12.3675   25.7525 N   0  0  0  0  0  0  0  0  0  0  0  0
   13.6059   12.5459   26.8988 C   0  0  0  0  0  0  0  0  0  0  0  0
   15.0946   12.4007   26.5774 C   0  0  0  0  0  0  0  0  0  0  0  0
   15.3559   11.1702   25.7540 C   0  0  0  0  0  0  0  0  0  0  0  0
   14.3413   11.0426   24.6411 C   0  0  0  0  0  0  0  0  0  0  0  0
   13.3734   12.2171   24.4977 C   0  0  0  0  0  0  0  0  0  0  0  0
    8.7389   13.1772   25.9925 C   0  0  0  0  0  0  0  0  0  0  0  0
    7.4926   12.6391   25.4245 C   0  0  0  0  0  0  0  0  0  0  0  0
   11.1584   16.1569   22.0751 O   0  0  0  0  0  0  0  0  0  0  0  0
  2  1  1  6
  2  3  1  0
  3  4  1  0
  4  5  1  0
  5  6  1  1
  6  7  1  0
  7  8  1  0
  8  9  2  0
  8 10  1  0
 10 11  1  0
 11 12  1  0
 12 13  1  0
 13 14  1  0
 14 15  2  0
 14 16  2  0
 14 17  1  0
 17 18  1  0
 18 19  1  0
 19 20  1  0
 20 21  1  0
 21 22  1  0
 13 23  1  0
 23 24  1  0
  5 25  1  0
 25  2  1  0
 24 10  1  0
 22 17  1  0
M  END
>  <energy_score>  (4113) 
-30.236853

>  <inchikey>  (4113) 
FKIZANYFTHOCHB-UHFFFAOYSA-N

>  <smiles>  (4113) 
CC1OCC(COC(=O)C2CCN(S(=O)(=O)N3CCCCC3)CC2)O1

>  <ref_pdb>  (4113) 
A0875a

>  <alias>  (4113) 
FKIZANYFTHOCHB-UHFFFAOYSA-N-P87-P87-P439-601505

>  <HIPPO Pose ID>  (4113) 
507742

>  <name>  (4113) 
FKIZANYFTHOCHB-UHFFFAOYSA-N-P87-P87-P439-601505

>  <HIPPO Compound ID>  (4113) 
314407

>  <ref_mols>  (4113) 
A4706a,A0875a

>  <distance_score>  (4113) 
1.986345

>  <inspiration_score>  (4113) 
None

$$$$
FKIZANYFTHOCHB-UHFFFAOYSA-N-P439-P87-P439-601505
     RDKit          3D

 25 27  0  0  0  0  0  0  0  0999 V2000
   12.1456   15.3885   22.1445 C   0  0  0  0  0  0  0  0  0  0  0  0
   11.2667   14.6693   21.1490 C   0  0  2  0  0  0  0  0  0  0  0  0
   11.0530   15.5030   20.0113 O   0  0  0  0  0  0  0  0  0  0  0  0
    9.6723   15.8634   20.0722 C   0  0  0  0  0  0  0  0  0  0  0  0
    9.2314   15.5520   21.4880 C   0  0  1  0  0  0  0  0  0  0  0  0
    7.7260   15.3298   21.6415 C   0  0  0  0  0  0  0  0  0  0  0  0
    7.2722   15.2112   23.0076 O   0  0  0  0  0  0  0  0  0  0  0  0
    6.5138   14.1273   23.3263 C   0  0  0  0  0  0  0  0  0  0  0  0
    6.2120   13.2213   22.5519 O   0  0  0  0  0  0  0  0  0  0  0  0
    6.0153   14.1720   24.7804 C   0  0  0  0  0  0  0  0  0  0  0  0
    5.9753   12.7627   25.3910 C   0  0  0  0  0  0  0  0  0  0  0  0
    7.3496   12.1875   25.7342 C   0  0  0  0  0  0  0  0  0  0  0  0
    8.3219   13.2433   26.1634 N   0  0  0  0  0  0  0  0  0  0  0  0
    9.5038   13.6788   25.0129 S   0  0  0  0  0  0  0  0  0  0  0  0
    8.9755   13.3039   23.7358 O   0  0  0  0  0  0  0  0  0  0  0  0
    9.9717   15.0033   25.3345 O   0  0  0  0  0  0  0  0  0  0  0  0
   10.7506   12.6088   25.3238 N   0  0  0  0  0  0  0  0  0  0  0  0
   11.6166   12.9599   26.4459 C   0  0  0  0  0  0  0  0  0  0  0  0
   12.9223   12.1773   26.4438 C   0  0  0  0  0  0  0  0  0  0  0  0
   12.9742   11.0827   25.3933 C   0  0  0  0  0  0  0  0  0  0  0  0
   11.6495   10.3005   25.2556 C   0  0  0  0  0  0  0  0  0  0  0  0
   10.4519   11.1995   25.0362 C   0  0  0  0  0  0  0  0  0  0  0  0
    7.6154   14.4020   26.7724 C   0  0  0  0  0  0  0  0  0  0  0  0
    6.7513   15.1263   25.7383 C   0  0  0  0  0  0  0  0  0  0  0  0
   10.0137   14.3917   21.7514 O   0  0  0  0  0  0  0  0  0  0  0  0
  2  1  1  1
  2  3  1  0
  3  4  1  0
  4  5  1  0
  5  6  1  6
  6  7  1  0
  7  8  1  0
  8  9  2  0
  8 10  1  0
 10 11  1  0
 11 12  1  0
 12 13  1  0
 13 14  1  0
 14 15  2  0
 14 16  2  0
 14 17  1  0
 17 18  1  0
 18 19  1  0
 19 20  1  0
 20 21  1  0
 21 22  1  0
 13 23  1  0
 23 24  1  0
  5 25  1  0
 25  2  1  0
 24 10  1  0
 22 17  1  0
M  END
>  <energy_score>  (4114) 
-34.981013

>  <inchikey>  (4114) 
FKIZANYFTHOCHB-UHFFFAOYSA-N

>  <smiles>  (4114) 
CC1OCC(COC(=O)C2CCN(S(=O)(=O)N3CCCCC3)CC2)O1

>  <ref_pdb>  (4114) 
A0875a

>  <alias>  (4114) 
FKIZANYFTHOCHB-UHFFFAOYSA-N-P439-P87-P439-601505

>  <HIPPO Pose ID>  (4114) 
507743

>  <name>  (4114) 
FKIZANYFTHOCHB-UHFFFAOYSA-N-P439-P87-P439-601505

>  <HIPPO Compound ID>  (4114) 
314407

>  <ref_mols>  (4114) 
A4706a,A0875a

>  <distance_score>  (4114) 
1.449261

>  <inspiration_score>  (4114) 
None

$$$$
SKVUFYZVPVLIFB-UHFFFAOYSA-N-P439-P87-P439-601505
     RDKit          3D

 25 28  0  0  0  0  0  0  0  0999 V2000
    5.8791   13.9214   21.7843 O   0  0  0  0  0  0  0  0  0  0  0  0
    6.9723   14.0277   22.3199 C   0  0  0  0  0  0  0  0  0  0  0  0
    8.1281   14.0703   21.6018 O   0  0  0  0  0  0  0  0  0  0  0  0
    8.9537   15.2783   21.5540 C   0  0  2  0  0  0  0  0  0  0  0  0
    9.3642   15.5346   20.0763 C   0  0  0  0  0  0  0  0  0  0  0  0
   10.5880   14.9265   19.6826 O   0  0  0  0  0  0  0  0  0  0  0  0
   11.5188   14.7430   20.7547 C   0  0  1  0  0  0  0  0  0  0  0  0
   11.4836   15.8425   21.8492 C   0  0  0  0  0  0  0  0  0  0  0  0
   10.2436   15.0732   22.3626 C   0  0  2  0  0  0  0  0  0  0  0  0
   11.0113   13.8224   21.8913 C   0  0  0  0  0  0  0  0  0  0  0  0
    7.1624   14.0115   23.8162 C   0  0  0  0  0  0  0  0  0  0  0  0
    6.7241   12.6815   24.4585 C   0  0  0  0  0  0  0  0  0  0  0  0
    7.0614   12.6067   25.9553 C   0  0  0  0  0  0  0  0  0  0  0  0
    7.5206   13.9103   26.4428 N   0  0  0  0  0  0  0  0  0  0  0  0
    9.1067   14.4339   26.5211 S   0  0  0  0  0  0  0  0  0  0  0  0
    9.3341   15.3733   25.4505 O   0  0  0  0  0  0  0  0  0  0  0  0
    9.3280   14.8554   27.8802 O   0  0  0  0  0  0  0  0  0  0  0  0
   10.1727   13.1637   26.2453 N   0  0  0  0  0  0  0  0  0  0  0  0
   10.0908   12.4666   24.9644 C   0  0  0  0  0  0  0  0  0  0  0  0
   10.9037   11.2087   25.0690 C   0  0  0  0  0  0  0  0  0  0  0  0
   12.3585   11.5335   25.4612 C   0  0  0  0  0  0  0  0  0  0  0  0
   12.6163   13.0156   25.5691 C   0  0  0  0  0  0  0  0  0  0  0  0
   11.5868   13.6351   26.5145 C   0  0  0  0  0  0  0  0  0  0  0  0
    6.5429   14.9798   26.0882 C   0  0  0  0  0  0  0  0  0  0  0  0
    6.4829   15.1618   24.5599 C   0  0  0  0  0  0  0  0  0  0  0  0
  1  2  2  0
  2  3  1  0
  4  3  1  6
  4  5  1  0
  5  6  1  0
  6  7  1  0
  7  8  1  1
  9  8  1  6
  9 10  1  0
  2 11  1  0
 11 12  1  0
 12 13  1  0
 13 14  1  0
 14 15  1  0
 15 16  2  0
 15 17  2  0
 15 18  1  0
 18 19  1  0
 19 20  1  0
 20 21  1  0
 21 22  1  0
 22 23  1  0
 14 24  1  0
 24 25  1  0
  9  4  1  0
 25 11  1  0
 10  7  1  0
 23 18  1  0
M  END
>  <energy_score>  (4115) 
-17.461842

>  <inchikey>  (4115) 
SKVUFYZVPVLIFB-UHFFFAOYSA-N

>  <smiles>  (4115) 
O=C(OC1COC2CC1C2)C1CCN(S(=O)(=O)N2CCCCC2)CC1

>  <ref_pdb>  (4115) 
A0875a

>  <alias>  (4115) 
SKVUFYZVPVLIFB-UHFFFAOYSA-N-P439-P87-P439-601505

>  <HIPPO Pose ID>  (4115) 
507745

>  <name>  (4115) 
SKVUFYZVPVLIFB-UHFFFAOYSA-N-P439-P87-P439-601505

>  <HIPPO Compound ID>  (4115) 
314408

>  <ref_mols>  (4115) 
A4706a,A0875a

>  <distance_score>  (4115) 
1.736771

>  <inspiration_score>  (4115) 
None

$$$$
KRNDDFJHZWMSAR-UHFFFAOYSA-N-P439-P87-P439-601505
     RDKit          3D

 25 27  0  0  0  0  0  0  0  0999 V2000
   11.1225   14.8955   19.0273 C   0  0  0  0  0  0  0  0  0  0  0  0
    9.8654   16.1322   19.4183 S   0  0  0  0  0  0  0  0  0  0  0  0
    9.5357   16.0029   21.2453 C   0  0  2  0  0  0  0  0  0  0  0  0
   10.7776   15.7373   22.0897 C   0  0  0  0  0  0  0  0  0  0  0  0
   10.8536   14.3254   22.3195 O   0  0  0  0  0  0  0  0  0  0  0  0
    9.6758   13.7637   21.7274 C   0  0  0  0  0  0  0  0  0  0  0  0
    8.6144   14.8340   21.5698 C   0  0  1  0  0  0  0  0  0  0  0  0
    7.8348   15.0547   22.7789 O   0  0  0  0  0  0  0  0  0  0  0  0
    6.7854   14.1986   22.9880 C   0  0  0  0  0  0  0  0  0  0  0  0
    6.4382   13.3429   22.1738 O   0  0  0  0  0  0  0  0  0  0  0  0
    6.0816   14.3588   24.3701 C   0  0  0  0  0  0  0  0  0  0  0  0
    5.8482   12.9901   25.0743 C   0  0  0  0  0  0  0  0  0  0  0  0
    6.8242   12.5587   26.1909 C   0  0  0  0  0  0  0  0  0  0  0  0
    7.9433   13.5247   26.3586 N   0  0  0  0  0  0  0  0  0  0  0  0
    9.1208   13.4199   25.1579 S   0  0  0  0  0  0  0  0  0  0  0  0
    8.4781   12.6501   24.1239 O   0  0  0  0  0  0  0  0  0  0  0  0
    9.6812   14.7317   24.9536 O   0  0  0  0  0  0  0  0  0  0  0  0
   10.2885   12.3947   25.8145 N   0  0  0  0  0  0  0  0  0  0  0  0
   10.4285   11.1662   24.9591 C   0  0  0  0  0  0  0  0  0  0  0  0
   11.6584   10.3464   25.2806 C   0  0  0  0  0  0  0  0  0  0  0  0
   12.9427   11.1994   25.4360 C   0  0  0  0  0  0  0  0  0  0  0  0
   12.6735   12.6818   25.2514 C   0  0  0  0  0  0  0  0  0  0  0  0
   11.5539   13.0727   26.1954 C   0  0  0  0  0  0  0  0  0  0  0  0
    7.3755   14.8763   26.5704 C   0  0  0  0  0  0  0  0  0  0  0  0
    6.6577   15.4113   25.3291 C   0  0  0  0  0  0  0  0  0  0  0  0
  1  2  1  0
  3  2  1  6
  3  4  1  0
  4  5  1  0
  5  6  1  0
  6  7  1  0
  7  8  1  1
  8  9  1  0
  9 10  2  0
  9 11  1  0
 11 12  1  0
 12 13  1  0
 13 14  1  0
 14 15  1  0
 15 16  2  0
 15 17  2  0
 15 18  1  0
 18 19  1  0
 19 20  1  0
 20 21  1  0
 21 22  1  0
 22 23  1  0
 14 24  1  0
 24 25  1  0
  7  3  1  0
 25 11  1  0
 23 18  1  0
M  END
>  <energy_score>  (4116) 
-26.721453

>  <inchikey>  (4116) 
KRNDDFJHZWMSAR-UHFFFAOYSA-N

>  <smiles>  (4116) 
CSC1COCC1OC(=O)C1CCN(S(=O)(=O)N2CCCCC2)CC1

>  <ref_pdb>  (4116) 
A0875a

>  <alias>  (4116) 
KRNDDFJHZWMSAR-UHFFFAOYSA-N-P439-P87-P439-601505

>  <HIPPO Pose ID>  (4116) 
507747

>  <name>  (4116) 
KRNDDFJHZWMSAR-UHFFFAOYSA-N-P439-P87-P439-601505

>  <HIPPO Compound ID>  (4116) 
314409

>  <ref_mols>  (4116) 
A4706a,A0875a

>  <distance_score>  (4116) 
1.33247

>  <inspiration_score>  (4116) 
None

$$$$
ALLDMVZLBLZBCY-UHFFFAOYSA-N-P87-P87-P439-601505
     RDKit          3D

 25 26  0  0  0  0  0  0  0  0999 V2000
   17.5682   13.6824   27.0700 C   0  0  0  0  0  0  0  0  0  0  0  0
   16.7586   12.7979   27.0081 C   0  0  0  0  0  0  0  0  0  0  0  0
   15.8370   11.6498   27.0453 C   0  0  1  0  0  0  0  0  0  0  0  0
   16.4877   10.4185   26.4049 C   0  0  0  0  0  0  0  0  0  0  0  0
   15.5679   11.3228   28.5447 C   0  0  0  0  0  0  0  0  0  0  0  0
   14.7510   12.3303   29.1571 O   0  0  0  0  0  0  0  0  0  0  0  0
   14.6893   12.1656   30.5685 C   0  0  0  0  0  0  0  0  0  0  0  0
   14.5413   11.9192   26.4229 O   0  0  0  0  0  0  0  0  0  0  0  0
   14.4160   12.1444   25.0882 C   0  0  0  0  0  0  0  0  0  0  0  0
   15.3348   12.2478   24.2975 O   0  0  0  0  0  0  0  0  0  0  0  0
   12.9597   12.1471   24.6526 C   0  0  0  0  0  0  0  0  0  0  0  0
   11.9528   12.5084   25.6922 C   0  0  0  0  0  0  0  0  0  0  0  0
   10.7079   11.7326   25.2524 C   0  0  0  0  0  0  0  0  0  0  0  0
   10.1189   12.3904   24.0998 N   0  0  0  0  0  0  0  0  0  0  0  0
    9.1782   13.7083   24.4917 S   0  0  0  0  0  0  0  0  0  0  0  0
    9.3704   14.7300   23.4984 O   0  0  0  0  0  0  0  0  0  0  0  0
    9.4133   13.9088   25.9036 O   0  0  0  0  0  0  0  0  0  0  0  0
    7.6569   13.0081   24.3351 N   0  0  0  0  0  0  0  0  0  0  0  0
    7.2724   11.9366   25.2509 C   0  0  0  0  0  0  0  0  0  0  0  0
    6.6000   12.4424   26.4988 C   0  0  0  0  0  0  0  0  0  0  0  0
    5.4449   13.3842   26.2340 C   0  0  0  0  0  0  0  0  0  0  0  0
    5.3814   14.0321   24.8488 C   0  0  0  0  0  0  0  0  0  0  0  0
    6.5435   13.8624   23.8570 C   0  0  0  0  0  0  0  0  0  0  0  0
   11.0217   12.4784   22.9550 C   0  0  0  0  0  0  0  0  0  0  0  0
   12.4515   12.8605   23.3810 C   0  0  0  0  0  0  0  0  0  0  0  0
  1  2  3  0
  2  3  1  0
  3  4  1  6
  3  5  1  0
  5  6  1  0
  6  7  1  0
  3  8  1  0
  8  9  1  0
  9 10  2  0
  9 11  1  0
 11 12  1  0
 12 13  1  0
 13 14  1  0
 14 15  1  0
 15 16  2  0
 15 17  2  0
 15 18  1  0
 18 19  1  0
 19 20  1  0
 20 21  1  0
 21 22  1  0
 22 23  1  0
 14 24  1  0
 24 25  1  0
 25 11  1  0
 23 18  1  0
M  END
>  <energy_score>  (4117) 
-37.611639

>  <inchikey>  (4117) 
ALLDMVZLBLZBCY-UHFFFAOYSA-N

>  <smiles>  (4117) 
C#CC(C)(COC)OC(=O)C1CCN(S(=O)(=O)N2CCCCC2)CC1

>  <ref_pdb>  (4117) 
A0875a

>  <alias>  (4117) 
ALLDMVZLBLZBCY-UHFFFAOYSA-N-P87-P87-P439-601505

>  <HIPPO Pose ID>  (4117) 
507748

>  <name>  (4117) 
ALLDMVZLBLZBCY-UHFFFAOYSA-N-P87-P87-P439-601505

>  <HIPPO Compound ID>  (4117) 
314410

>  <ref_mols>  (4117) 
A4706a,A0875a

>  <distance_score>  (4117) 
1.424696

>  <inspiration_score>  (4117) 
None

$$$$
KHEAOFOXIWHDLF-UHFFFAOYSA-N-P439-P87-P439-601505
     RDKit          3D

 25 27  0  0  0  0  0  0  0  0999 V2000
   10.1344   15.0487   18.9980 C   0  0  0  0  0  0  0  0  0  0  0  0
   10.3738   15.4620   20.4252 C   0  0  2  0  0  0  0  0  0  0  0  0
   11.7383   14.9556   20.8354 C   0  0  0  0  0  0  0  0  0  0  0  0
   11.8504   15.2477   22.2064 O   0  0  0  0  0  0  0  0  0  0  0  0
   10.5861   15.4562   22.6636 C   0  0  0  0  0  0  0  0  0  0  0  0
   10.3919   15.9314   23.7646 O   0  0  0  0  0  0  0  0  0  0  0  0
    9.5460   14.9795   21.6227 C   0  0  1  0  0  0  0  0  0  0  0  0
    8.1964   15.4910   21.6148 O   0  0  0  0  0  0  0  0  0  0  0  0
    7.1679   15.1411   22.4547 C   0  0  0  0  0  0  0  0  0  0  0  0
    5.9984   15.3398   22.1388 O   0  0  0  0  0  0  0  0  0  0  0  0
    7.4906   14.4632   23.7684 C   0  0  0  0  0  0  0  0  0  0  0  0
    7.3714   12.9393   23.6684 C   0  0  0  0  0  0  0  0  0  0  0  0
    7.7486   12.1405   24.9305 C   0  0  0  0  0  0  0  0  0  0  0  0
    8.2695   13.0413   25.9766 N   0  0  0  0  0  0  0  0  0  0  0  0
    9.8197   13.6697   25.6680 S   0  0  0  0  0  0  0  0  0  0  0  0
   10.0757   13.5123   24.2544 O   0  0  0  0  0  0  0  0  0  0  0  0
    9.8792   14.9254   26.3736 O   0  0  0  0  0  0  0  0  0  0  0  0
   10.9323   12.6044   26.3941 N   0  0  0  0  0  0  0  0  0  0  0  0
   11.9336   13.4208   27.1660 C   0  0  0  0  0  0  0  0  0  0  0  0
   13.2275   12.6738   27.4482 C   0  0  0  0  0  0  0  0  0  0  0  0
   13.9214   12.2304   26.1802 C   0  0  0  0  0  0  0  0  0  0  0  0
   12.9558   12.1796   25.0181 C   0  0  0  0  0  0  0  0  0  0  0  0
   11.5745   11.6850   25.3965 C   0  0  0  0  0  0  0  0  0  0  0  0
    7.2134   14.0929   26.2808 C   0  0  0  0  0  0  0  0  0  0  0  0
    6.7461   14.8901   25.0332 C   0  0  0  0  0  0  0  0  0  0  0  0
  2  1  1  6
  2  3  1  0
  3  4  1  0
  4  5  1  0
  5  6  2  0
  5  7  1  0
  7  8  1  1
  8  9  1  0
  9 10  2  0
  9 11  1  0
 11 12  1  0
 12 13  1  0
 13 14  1  0
 14 15  1  0
 15 16  2  0
 15 17  2  0
 15 18  1  0
 18 19  1  0
 19 20  1  0
 20 21  1  0
 21 22  1  0
 22 23  1  0
 14 24  1  0
 24 25  1  0
  7  2  1  0
 25 11  1  0
 23 18  1  0
M  END
>  <energy_score>  (4118) 
-7.698368

>  <inchikey>  (4118) 
KHEAOFOXIWHDLF-UHFFFAOYSA-N

>  <smiles>  (4118) 
CC1COC(=O)C1OC(=O)C1CCN(S(=O)(=O)N2CCCCC2)CC1

>  <ref_pdb>  (4118) 
A0875a

>  <alias>  (4118) 
KHEAOFOXIWHDLF-UHFFFAOYSA-N-P439-P87-P439-601505

>  <HIPPO Pose ID>  (4118) 
507751

>  <name>  (4118) 
KHEAOFOXIWHDLF-UHFFFAOYSA-N-P439-P87-P439-601505

>  <HIPPO Compound ID>  (4118) 
314411

>  <ref_mols>  (4118) 
A4706a,A0875a

>  <distance_score>  (4118) 
1.848541

>  <inspiration_score>  (4118) 
None

$$$$
UGBDRWOEGZBUOE-UHFFFAOYSA-N-P439-P87-P439-601505
     RDKit          3D

 25 28  0  0  0  0  0  0  0  0999 V2000
    7.2359   15.7970   23.6343 O   0  0  0  0  0  0  0  0  0  0  0  0
    7.8495   14.8448   23.1489 C   0  0  0  0  0  0  0  0  0  0  0  0
    8.9071   15.0869   22.3596 O   0  0  0  0  0  0  0  0  0  0  0  0
    9.7346   14.3272   21.4294 C   0  0  2  0  0  0  0  0  0  0  0  0
   11.0073   13.7456   22.0503 C   0  0  0  0  0  0  0  0  0  0  0  0
   11.7801   14.8714   22.4921 O   0  0  0  0  0  0  0  0  0  0  0  0
   11.5825   15.8489   21.4472 C   0  0  0  0  0  0  0  0  0  0  0  0
   10.4768   15.3111   20.6015 C   0  0  1  0  0  0  0  0  0  0  0  0
   10.6549   15.1718   19.1040 C   0  0  0  0  0  0  0  0  0  0  0  0
    9.7786   16.1463   19.6967 O   0  0  0  0  0  0  0  0  0  0  0  0
    7.3130   13.4433   23.4300 C   0  0  0  0  0  0  0  0  0  0  0  0
    8.3219   12.3404   23.7524 C   0  0  0  0  0  0  0  0  0  0  0  0
    8.3102   11.8337   25.1855 C   0  0  0  0  0  0  0  0  0  0  0  0
    8.2946   12.9771   26.0880 N   0  0  0  0  0  0  0  0  0  0  0  0
    9.6433   13.9929   26.2119 S   0  0  0  0  0  0  0  0  0  0  0  0
    9.4413   14.7349   27.4310 O   0  0  0  0  0  0  0  0  0  0  0  0
    9.8511   14.6767   24.9633 O   0  0  0  0  0  0  0  0  0  0  0  0
   11.0002   12.9353   26.4476 N   0  0  0  0  0  0  0  0  0  0  0  0
   11.9794   13.6329   27.3389 C   0  0  0  0  0  0  0  0  0  0  0  0
   13.2559   12.8193   27.5598 C   0  0  0  0  0  0  0  0  0  0  0  0
   13.9136   12.3192   26.2939 C   0  0  0  0  0  0  0  0  0  0  0  0
   12.8949   11.7053   25.3735 C   0  0  0  0  0  0  0  0  0  0  0  0
   11.6788   12.5842   25.1670 C   0  0  0  0  0  0  0  0  0  0  0  0
    7.0009   13.7451   25.9733 C   0  0  0  0  0  0  0  0  0  0  0  0
    6.3086   13.5122   24.6149 C   0  0  0  0  0  0  0  0  0  0  0  0
  1  2  2  0
  2  3  1  0
  4  3  1  1
  4  5  1  0
  5  6  1  0
  6  7  1  0
  8  7  1  1
  8  9  1  0
  9 10  1  0
  2 11  1  0
 11 12  1  0
 12 13  1  0
 13 14  1  0
 14 15  1  0
 15 16  2  0
 15 17  2  0
 15 18  1  0
 18 19  1  0
 19 20  1  0
 20 21  1  0
 21 22  1  0
 22 23  1  0
 14 24  1  0
 24 25  1  0
  8  4  1  0
 25 11  1  0
 10  8  1  0
 23 18  1  0
M  END
>  <energy_score>  (4119) 
-14.468261

>  <inchikey>  (4119) 
UGBDRWOEGZBUOE-UHFFFAOYSA-N

>  <smiles>  (4119) 
O=C(OC1COCC12CO2)C1CCN(S(=O)(=O)N2CCCCC2)CC1

>  <ref_pdb>  (4119) 
A0875a

>  <alias>  (4119) 
UGBDRWOEGZBUOE-UHFFFAOYSA-N-P439-P87-P439-601505

>  <HIPPO Pose ID>  (4119) 
507753

>  <name>  (4119) 
UGBDRWOEGZBUOE-UHFFFAOYSA-N-P439-P87-P439-601505

>  <HIPPO Compound ID>  (4119) 
314412

>  <ref_mols>  (4119) 
A4706a,A0875a

>  <distance_score>  (4119) 
1.664086

>  <inspiration_score>  (4119) 
None

$$$$
VASHJITYRBAHPO-UHFFFAOYSA-N-P87-P87-P439-601505
     RDKit          3D

 25 26  0  0  0  0  0  0  0  0999 V2000
   14.7492   12.8914   30.3845 C   0  0  0  0  0  0  0  0  0  0  0  0
   14.4862   12.2385   29.1472 O   0  0  0  0  0  0  0  0  0  0  0  0
   14.9106   13.0229   28.0280 C   0  0  0  0  0  0  0  0  0  0  0  0
   15.1679   12.1152   26.8061 C   0  0  1  0  0  0  0  0  0  0  0  0
   16.0051   10.9180   27.2909 C   0  0  0  0  0  0  0  0  0  0  0  0
   16.6781   10.2403   26.2349 O   0  0  0  0  0  0  0  0  0  0  0  0
   15.7576    9.3155   25.5915 N   0  0  0  0  0  0  0  0  0  0  0  0
   13.8689   11.7597   26.2043 O   0  0  0  0  0  0  0  0  0  0  0  0
   13.8457   11.6833   24.8429 C   0  0  0  0  0  0  0  0  0  0  0  0
   14.8451   11.5573   24.1417 O   0  0  0  0  0  0  0  0  0  0  0  0
   12.4648   11.8809   24.1892 C   0  0  0  0  0  0  0  0  0  0  0  0
   11.9370   13.2245   24.5421 C   0  0  0  0  0  0  0  0  0  0  0  0
   10.9846   13.0178   25.6445 C   0  0  0  0  0  0  0  0  0  0  0  0
    9.8060   12.2092   25.1637 N   0  0  0  0  0  0  0  0  0  0  0  0
    8.5204   13.2018   25.1124 S   0  0  0  0  0  0  0  0  0  0  0  0
    8.7150   14.1159   24.0181 O   0  0  0  0  0  0  0  0  0  0  0  0
    8.5553   13.5689   26.5001 O   0  0  0  0  0  0  0  0  0  0  0  0
    7.0756   12.3919   24.9803 N   0  0  0  0  0  0  0  0  0  0  0  0
    6.9293   11.2286   25.8677 C   0  0  0  0  0  0  0  0  0  0  0  0
    5.9481   11.3554   27.0294 C   0  0  0  0  0  0  0  0  0  0  0  0
    5.7612   12.7597   27.5259 C   0  0  0  0  0  0  0  0  0  0  0  0
    5.2805   13.6158   26.3810 C   0  0  0  0  0  0  0  0  0  0  0  0
    5.9024   13.3362   25.0134 C   0  0  0  0  0  0  0  0  0  0  0  0
   10.0271   11.3391   24.0386 C   0  0  0  0  0  0  0  0  0  0  0  0
   11.3788   10.7415   24.2862 C   0  0  0  0  0  0  0  0  0  0  0  0
  1  2  1  0
  2  3  1  0
  4  3  1  1
  4  5  1  0
  5  6  1  0
  6  7  1  0
  4  8  1  0
  8  9  1  0
  9 10  2  0
  9 11  1  0
 11 12  1  0
 12 13  1  0
 13 14  1  0
 14 15  1  0
 15 16  2  0
 15 17  2  0
 15 18  1  0
 18 19  1  0
 19 20  1  0
 20 21  1  0
 21 22  1  0
 22 23  1  0
 14 24  1  0
 24 25  1  0
 25 11  1  0
 23 18  1  0
M  END
>  <energy_score>  (4120) 
-14.606309

>  <inchikey>  (4120) 
VASHJITYRBAHPO-UHFFFAOYSA-N

>  <smiles>  (4120) 
COCC(CON)OC(=O)C1CCN(S(=O)(=O)N2CCCCC2)CC1

>  <ref_pdb>  (4120) 
A0875a

>  <alias>  (4120) 
VASHJITYRBAHPO-UHFFFAOYSA-N-P87-P87-P439-601505

>  <HIPPO Pose ID>  (4120) 
507754

>  <name>  (4120) 
VASHJITYRBAHPO-UHFFFAOYSA-N-P87-P87-P439-601505

>  <HIPPO Compound ID>  (4120) 
314413

>  <ref_mols>  (4120) 
A4706a,A0875a

>  <distance_score>  (4120) 
1.289664

>  <inspiration_score>  (4120) 
None

$$$$
VASHJITYRBAHPO-UHFFFAOYSA-N-P439-P87-P439-601505
     RDKit          3D

 25 26  0  0  0  0  0  0  0  0999 V2000
   14.2871   11.4858   30.9716 C   0  0  0  0  0  0  0  0  0  0  0  0
   14.2894   11.3853   29.5531 O   0  0  0  0  0  0  0  0  0  0  0  0
   15.0818   12.4084   28.9439 C   0  0  0  0  0  0  0  0  0  0  0  0
   15.0949   12.2024   27.4201 C   0  0  1  0  0  0  0  0  0  0  0  0
   15.8093   10.8920   27.0596 C   0  0  0  0  0  0  0  0  0  0  0  0
   15.1648   10.1423   26.0235 O   0  0  0  0  0  0  0  0  0  0  0  0
   16.0445    9.0458   25.6594 N   0  0  0  0  0  0  0  0  0  0  0  0
   13.7343   12.3703   26.9614 O   0  0  0  0  0  0  0  0  0  0  0  0
   13.6042   12.5975   25.6285 C   0  0  0  0  0  0  0  0  0  0  0  0
   14.5090   12.4180   24.8340 O   0  0  0  0  0  0  0  0  0  0  0  0
   12.2130   13.0781   25.2541 C   0  0  0  0  0  0  0  0  0  0  0  0
   11.2743   12.0272   25.7683 C   0  0  0  0  0  0  0  0  0  0  0  0
   10.0183   11.7699   24.9909 C   0  0  0  0  0  0  0  0  0  0  0  0
    9.6107   12.9282   24.2154 N   0  0  0  0  0  0  0  0  0  0  0  0
    8.8776   14.2260   24.9596 S   0  0  0  0  0  0  0  0  0  0  0  0
    8.3051   15.0503   23.9272 O   0  0  0  0  0  0  0  0  0  0  0  0
    9.7934   14.7828   25.9272 O   0  0  0  0  0  0  0  0  0  0  0  0
    7.6391   13.5092   25.8175 N   0  0  0  0  0  0  0  0  0  0  0  0
    6.7625   12.5245   25.1557 C   0  0  0  0  0  0  0  0  0  0  0  0
    6.2060   11.6627   26.2888 C   0  0  0  0  0  0  0  0  0  0  0  0
    5.3584   12.5121   27.2340 C   0  0  0  0  0  0  0  0  0  0  0  0
    6.1335   13.7309   27.7335 C   0  0  0  0  0  0  0  0  0  0  0  0
    6.8258   14.4796   26.5985 C   0  0  0  0  0  0  0  0  0  0  0  0
   10.6024   13.2875   23.1970 C   0  0  0  0  0  0  0  0  0  0  0  0
   12.0110   13.3483   23.7668 C   0  0  0  0  0  0  0  0  0  0  0  0
  1  2  1  0
  2  3  1  0
  4  3  1  1
  4  5  1  0
  5  6  1  0
  6  7  1  0
  4  8  1  0
  8  9  1  0
  9 10  2  0
  9 11  1  0
 11 12  1  0
 12 13  1  0
 13 14  1  0
 14 15  1  0
 15 16  2  0
 15 17  2  0
 15 18  1  0
 18 19  1  0
 19 20  1  0
 20 21  1  0
 21 22  1  0
 22 23  1  0
 14 24  1  0
 24 25  1  0
 25 11  1  0
 23 18  1  0
M  END
>  <energy_score>  (4121) 
-49.453476

>  <inchikey>  (4121) 
VASHJITYRBAHPO-UHFFFAOYSA-N

>  <smiles>  (4121) 
COCC(CON)OC(=O)C1CCN(S(=O)(=O)N2CCCCC2)CC1

>  <ref_pdb>  (4121) 
A0875a

>  <alias>  (4121) 
VASHJITYRBAHPO-UHFFFAOYSA-N-P439-P87-P439-601505

>  <HIPPO Pose ID>  (4121) 
507755

>  <name>  (4121) 
VASHJITYRBAHPO-UHFFFAOYSA-N-P439-P87-P439-601505

>  <HIPPO Compound ID>  (4121) 
314413

>  <ref_mols>  (4121) 
A4706a,A0875a

>  <distance_score>  (4121) 
1.81371

>  <inspiration_score>  (4121) 
None

$$$$
UOKAKGWPDMVGIK-UHFFFAOYSA-N-P439-P87-P439-601505
     RDKit          3D

 25 27  0  0  0  0  0  0  0  0999 V2000
    7.2087   13.0604   22.0966 O   0  0  0  0  0  0  0  0  0  0  0  0
    7.5830   13.8516   22.9561 C   0  0  0  0  0  0  0  0  0  0  0  0
    8.7244   14.5829   22.8680 O   0  0  0  0  0  0  0  0  0  0  0  0
    9.7207   14.2552   21.8256 C   0  0  2  0  0  0  0  0  0  0  0  0
   11.0686   14.8983   22.1467 C   0  0  0  0  0  0  0  0  0  0  0  0
   10.9497   16.2939   21.7992 O   0  0  0  0  0  0  0  0  0  0  0  0
    9.7615   16.4140   20.9796 C   0  0  0  0  0  0  0  0  0  0  0  0
    9.4700   15.0107   20.5482 C   0  0  0  0  0  0  0  0  0  0  0  0
    8.2414   14.8125   20.0901 F   0  0  0  0  0  0  0  0  0  0  0  0
   10.3215   14.6788   19.5503 F   0  0  0  0  0  0  0  0  0  0  0  0
    6.7679   14.0293   24.2597 C   0  0  0  0  0  0  0  0  0  0  0  0
    6.5254   12.6740   24.9727 C   0  0  0  0  0  0  0  0  0  0  0  0
    7.5041   12.2591   26.0828 C   0  0  0  0  0  0  0  0  0  0  0  0
    8.5058   13.3175   26.3686 N   0  0  0  0  0  0  0  0  0  0  0  0
    9.8349   13.3336   25.3422 S   0  0  0  0  0  0  0  0  0  0  0  0
   10.1772   14.7040   25.0569 O   0  0  0  0  0  0  0  0  0  0  0  0
    9.5583   12.3668   24.3034 O   0  0  0  0  0  0  0  0  0  0  0  0
   11.1371   12.7073   26.2515 N   0  0  0  0  0  0  0  0  0  0  0  0
   12.0991   12.0287   25.3420 C   0  0  0  0  0  0  0  0  0  0  0  0
   13.5596   12.3072   25.6036 C   0  0  0  0  0  0  0  0  0  0  0  0
   13.9311   12.3370   27.0601 C   0  0  0  0  0  0  0  0  0  0  0  0
   13.0401   13.2711   27.8469 C   0  0  0  0  0  0  0  0  0  0  0  0
   11.7311   13.7086   27.1765 C   0  0  0  0  0  0  0  0  0  0  0  0
    7.8157   14.6181   26.5496 C   0  0  0  0  0  0  0  0  0  0  0  0
    7.2045   15.1225   25.2400 C   0  0  0  0  0  0  0  0  0  0  0  0
  1  2  2  0
  2  3  1  0
  4  3  1  1
  4  5  1  0
  5  6  1  0
  6  7  1  0
  7  8  1  0
  8  9  1  0
  8 10  1  0
  2 11  1  0
 11 12  1  0
 12 13  1  0
 13 14  1  0
 14 15  1  0
 15 16  2  0
 15 17  2  0
 15 18  1  0
 18 19  1  0
 19 20  1  0
 20 21  1  0
 21 22  1  0
 22 23  1  0
 14 24  1  0
 24 25  1  0
  8  4  1  0
 25 11  1  0
 23 18  1  0
M  END
>  <energy_score>  (4122) 
-41.285454

>  <inchikey>  (4122) 
UOKAKGWPDMVGIK-UHFFFAOYSA-N

>  <smiles>  (4122) 
O=C(OC1COCC1(F)F)C1CCN(S(=O)(=O)N2CCCCC2)CC1

>  <ref_pdb>  (4122) 
A0875a

>  <alias>  (4122) 
UOKAKGWPDMVGIK-UHFFFAOYSA-N-P439-P87-P439-601505

>  <HIPPO Pose ID>  (4122) 
507759

>  <name>  (4122) 
UOKAKGWPDMVGIK-UHFFFAOYSA-N-P439-P87-P439-601505

>  <HIPPO Compound ID>  (4122) 
314415

>  <ref_mols>  (4122) 
A4706a,A0875a

>  <distance_score>  (4122) 
1.830493

>  <inspiration_score>  (4122) 
None

$$$$
UQWCSNBSEQVDDO-UHFFFAOYSA-N-P439-P87-P439-601505
     RDKit          3D

 25 27  0  0  0  0  0  0  0  0999 V2000
   10.6656   14.7137   18.5959 C   0  0  0  0  0  0  0  0  0  0  0  0
    9.7042   14.9272   19.6296 O   0  0  0  0  0  0  0  0  0  0  0  0
   10.3587   15.2487   20.8184 C   0  0  2  0  0  0  0  0  0  0  0  0
   11.0353   14.1271   21.5619 C   0  0  0  0  0  0  0  0  0  0  0  0
   11.5344   14.7473   22.7476 O   0  0  0  0  0  0  0  0  0  0  0  0
   10.8103   15.9824   22.8794 C   0  0  0  0  0  0  0  0  0  0  0  0
    9.6142   15.9949   21.9077 C   0  0  2  0  0  0  0  0  0  0  0  0
    8.4735   15.5371   22.6969 O   0  0  0  0  0  0  0  0  0  0  0  0
    7.6021   14.5435   22.4546 C   0  0  0  0  0  0  0  0  0  0  0  0
    7.5189   13.9127   21.4087 O   0  0  0  0  0  0  0  0  0  0  0  0
    6.7037   14.1893   23.6975 C   0  0  0  0  0  0  0  0  0  0  0  0
    6.8728   12.6848   24.0477 C   0  0  0  0  0  0  0  0  0  0  0  0
    7.3711   12.2287   25.4176 C   0  0  0  0  0  0  0  0  0  0  0  0
    8.0347   13.3203   26.1305 N   0  0  0  0  0  0  0  0  0  0  0  0
    9.5053   13.8611   25.5139 S   0  0  0  0  0  0  0  0  0  0  0  0
    9.4683   13.6948   24.0927 O   0  0  0  0  0  0  0  0  0  0  0  0
    9.7127   15.1471   26.1260 O   0  0  0  0  0  0  0  0  0  0  0  0
   10.7154   12.8247   26.0415 N   0  0  0  0  0  0  0  0  0  0  0  0
   12.0282   13.5470   26.1921 C   0  0  0  0  0  0  0  0  0  0  0  0
   13.0296   13.1634   25.1014 C   0  0  0  0  0  0  0  0  0  0  0  0
   13.4452   11.7256   25.1961 C   0  0  0  0  0  0  0  0  0  0  0  0
   12.2150   10.9654   25.5567 C   0  0  0  0  0  0  0  0  0  0  0  0
   10.8648   11.5883   25.2166 C   0  0  0  0  0  0  0  0  0  0  0  0
    7.0268   14.4237   26.2693 C   0  0  0  0  0  0  0  0  0  0  0  0
    6.7672   15.1186   24.9262 C   0  0  0  0  0  0  0  0  0  0  0  0
  1  2  1  0
  3  2  1  6
  3  4  1  0
  4  5  1  0
  5  6  1  0
  6  7  1  0
  7  8  1  1
  8  9  1  0
  9 10  2  0
  9 11  1  0
 11 12  1  0
 12 13  1  0
 13 14  1  0
 14 15  1  0
 15 16  2  0
 15 17  2  0
 15 18  1  0
 18 19  1  0
 19 20  1  0
 20 21  1  0
 21 22  1  0
 22 23  1  0
 14 24  1  0
 24 25  1  0
  7  3  1  0
 25 11  1  0
 23 18  1  0
M  END
>  <energy_score>  (4123) 
-13.77692

>  <inchikey>  (4123) 
UQWCSNBSEQVDDO-UHFFFAOYSA-N

>  <smiles>  (4123) 
COC1COCC1OC(=O)C1CCN(S(=O)(=O)N2CCCCC2)CC1

>  <ref_pdb>  (4123) 
A0875a

>  <alias>  (4123) 
UQWCSNBSEQVDDO-UHFFFAOYSA-N-P439-P87-P439-601505

>  <HIPPO Pose ID>  (4123) 
507761

>  <name>  (4123) 
UQWCSNBSEQVDDO-UHFFFAOYSA-N-P439-P87-P439-601505

>  <HIPPO Compound ID>  (4123) 
314416

>  <ref_mols>  (4123) 
A4706a,A0875a

>  <distance_score>  (4123) 
1.419629

>  <inspiration_score>  (4123) 
None

$$$$
BVYYBSJFBUBOGX-UHFFFAOYSA-N-P439-P87-P439-601505
     RDKit          3D

 25 27  0  0  0  0  0  0  0  0999 V2000
   11.1314   14.6201   18.6761 C   0  0  0  0  0  0  0  0  0  0  0  0
   10.4903   15.4634   19.7468 C   0  0  0  0  0  0  0  0  0  0  0  0
    9.7446   14.7215   20.8654 C   0  0  1  0  0  0  0  0  0  0  0  0
   10.6989   13.8675   21.6881 C   0  0  0  0  0  0  0  0  0  0  0  0
   11.2281   14.6563   22.7454 O   0  0  0  0  0  0  0  0  0  0  0  0
   10.5329   15.9038   22.7058 C   0  0  0  0  0  0  0  0  0  0  0  0
    9.2452   15.7411   21.8770 C   0  0  2  0  0  0  0  0  0  0  0  0
    8.1306   15.4152   22.7680 O   0  0  0  0  0  0  0  0  0  0  0  0
    7.2691   14.3862   22.6908 C   0  0  0  0  0  0  0  0  0  0  0  0
    7.1717   13.6091   21.7450 O   0  0  0  0  0  0  0  0  0  0  0  0
    6.4185   14.1543   23.9689 C   0  0  0  0  0  0  0  0  0  0  0  0
    6.7413   12.7190   24.4559 C   0  0  0  0  0  0  0  0  0  0  0  0
    6.9437   12.5024   25.9409 C   0  0  0  0  0  0  0  0  0  0  0  0
    7.6308   13.6337   26.5612 N   0  0  0  0  0  0  0  0  0  0  0  0
    9.1891   14.1152   26.1641 S   0  0  0  0  0  0  0  0  0  0  0  0
    9.1757   14.5796   24.8104 O   0  0  0  0  0  0  0  0  0  0  0  0
    9.6164   15.0101   27.2122 O   0  0  0  0  0  0  0  0  0  0  0  0
   10.2702   12.8241   26.1430 N   0  0  0  0  0  0  0  0  0  0  0  0
   11.6625   13.4375   26.0352 C   0  0  0  0  0  0  0  0  0  0  0  0
   12.6010   12.6691   25.1195 C   0  0  0  0  0  0  0  0  0  0  0  0
   12.4613   11.2107   25.4579 C   0  0  0  0  0  0  0  0  0  0  0  0
   11.0337   10.6993   25.1629 C   0  0  0  0  0  0  0  0  0  0  0  0
   10.0358   11.8277   25.0748 C   0  0  0  0  0  0  0  0  0  0  0  0
    6.6806   14.7918   26.5042 C   0  0  0  0  0  0  0  0  0  0  0  0
    6.4385   15.2520   25.0572 C   0  0  0  0  0  0  0  0  0  0  0  0
  1  2  1  0
  3  2  1  6
  3  4  1  0
  4  5  1  0
  5  6  1  0
  6  7  1  0
  7  8  1  1
  8  9  1  0
  9 10  2  0
  9 11  1  0
 11 12  1  0
 12 13  1  0
 13 14  1  0
 14 15  1  0
 15 16  2  0
 15 17  2  0
 15 18  1  0
 18 19  1  0
 19 20  1  0
 20 21  1  0
 21 22  1  0
 22 23  1  0
 14 24  1  0
 24 25  1  0
  7  3  1  0
 25 11  1  0
 23 18  1  0
M  END
>  <energy_score>  (4124) 
-5.560777

>  <inchikey>  (4124) 
BVYYBSJFBUBOGX-UHFFFAOYSA-N

>  <smiles>  (4124) 
CCC1COCC1OC(=O)C1CCN(S(=O)(=O)N2CCCCC2)CC1

>  <ref_pdb>  (4124) 
A0875a

>  <alias>  (4124) 
BVYYBSJFBUBOGX-UHFFFAOYSA-N-P439-P87-P439-601505

>  <HIPPO Pose ID>  (4124) 
507763

>  <name>  (4124) 
BVYYBSJFBUBOGX-UHFFFAOYSA-N-P439-P87-P439-601505

>  <HIPPO Compound ID>  (4124) 
314417

>  <ref_mols>  (4124) 
A4706a,A0875a

>  <distance_score>  (4124) 
1.284216

>  <inspiration_score>  (4124) 
None

$$$$
HLZQRTYSAHGKSR-UHFFFAOYSA-N-P87-P87-P439-601505
     RDKit          3D

 25 27  0  0  0  0  0  0  0  0999 V2000
   17.0122   11.4580   31.0515 C   0  0  0  0  0  0  0  0  0  0  0  0
   16.2306   11.3109   30.1519 C   0  0  0  0  0  0  0  0  0  0  0  0
   15.2705   11.1222   29.0505 C   0  0  0  0  0  0  0  0  0  0  0  0
   15.2402   12.2572   28.0122 C   0  0  0  0  0  0  0  0  0  0  0  0
   14.1854   12.0419   27.0101 O   0  0  0  0  0  0  0  0  0  0  0  0
   14.4223   11.1064   26.0624 C   0  0  0  0  0  0  0  0  0  0  0  0
   15.3139   10.2710   26.1345 O   0  0  0  0  0  0  0  0  0  0  0  0
   13.4314   11.0937   24.8996 C   0  0  0  0  0  0  0  0  0  0  0  0
   13.0419   12.4972   24.5186 C   0  0  0  0  0  0  0  0  0  0  0  0
   11.8848   12.9091   25.3822 C   0  0  0  0  0  0  0  0  0  0  0  0
   10.6431   12.1184   25.1069 N   0  0  0  0  0  0  0  0  0  0  0  0
    9.4399   13.2450   24.7617 S   0  0  0  0  0  0  0  0  0  0  0  0
    9.8274   13.9443   23.5613 O   0  0  0  0  0  0  0  0  0  0  0  0
    9.3715   13.9109   26.0372 O   0  0  0  0  0  0  0  0  0  0  0  0
    7.9560   12.5143   24.5084 N   0  0  0  0  0  0  0  0  0  0  0  0
    7.4515   11.5987   25.5262 C   0  0  0  0  0  0  0  0  0  0  0  0
    6.7379   12.2892   26.6677 C   0  0  0  0  0  0  0  0  0  0  0  0
    5.6124   13.2047   26.2684 C   0  0  0  0  0  0  0  0  0  0  0  0
    5.6804   13.7503   24.8565 C   0  0  0  0  0  0  0  0  0  0  0  0
    6.9153   13.4824   23.9846 C   0  0  0  0  0  0  0  0  0  0  0  0
   10.8494   10.9096   24.3113 C   0  0  0  0  0  0  0  0  0  0  0  0
   12.1447   10.1630   24.8013 C   0  0  0  0  0  0  0  0  0  0  0  0
   15.1813   13.6703   28.6491 C   0  0  0  0  0  0  0  0  0  0  0  0
   16.5096   13.9922   28.1899 O   0  0  0  0  0  0  0  0  0  0  0  0
   16.6042   12.7469   27.4648 C   0  0  0  0  0  0  0  0  0  0  0  0
  1  2  3  0
  2  3  1  0
  3  4  1  0
  4  5  1  0
  5  6  1  0
  6  7  2  0
  6  8  1  0
  8  9  1  0
  9 10  1  0
 10 11  1  0
 11 12  1  0
 12 13  2  0
 12 14  2  0
 12 15  1  0
 15 16  1  0
 16 17  1  0
 17 18  1  0
 18 19  1  0
 19 20  1  0
 11 21  1  0
 21 22  1  0
  4 23  1  0
 23 24  1  0
 24 25  1  0
 25  4  1  0
 22  8  1  0
 20 15  1  0
M  END
>  <energy_score>  (4125) 
-35.511754

>  <inchikey>  (4125) 
HLZQRTYSAHGKSR-UHFFFAOYSA-N

>  <smiles>  (4125) 
C#CCC1(OC(=O)C2CCN(S(=O)(=O)N3CCCCC3)CC2)COC1

>  <ref_pdb>  (4125) 
A0875a

>  <alias>  (4125) 
HLZQRTYSAHGKSR-UHFFFAOYSA-N-P87-P87-P439-601505

>  <HIPPO Pose ID>  (4125) 
507764

>  <name>  (4125) 
HLZQRTYSAHGKSR-UHFFFAOYSA-N-P87-P87-P439-601505

>  <HIPPO Compound ID>  (4125) 
314418

>  <ref_mols>  (4125) 
A4706a,A0875a

>  <distance_score>  (4125) 
1.345475

>  <inspiration_score>  (4125) 
None

$$$$
HLZQRTYSAHGKSR-UHFFFAOYSA-N-P439-P87-P439-601505
     RDKit          3D

 25 27  0  0  0  0  0  0  0  0999 V2000
   18.7620    9.1269   29.5776 C   0  0  0  0  0  0  0  0  0  0  0  0
   18.2209    9.8935   28.8282 C   0  0  0  0  0  0  0  0  0  0  0  0
   17.5632   10.8255   27.8964 C   0  0  0  0  0  0  0  0  0  0  0  0
   16.3913   11.6081   28.5005 C   0  0  0  0  0  0  0  0  0  0  0  0
   15.6798   12.3839   27.4787 O   0  0  0  0  0  0  0  0  0  0  0  0
   14.8501   11.6894   26.6516 C   0  0  0  0  0  0  0  0  0  0  0  0
   14.9267   10.4986   26.3951 O   0  0  0  0  0  0  0  0  0  0  0  0
   13.7478   12.5812   26.1263 C   0  0  0  0  0  0  0  0  0  0  0  0
   12.9149   13.0688   27.2905 C   0  0  0  0  0  0  0  0  0  0  0  0
   11.6589   13.8255   26.8867 C   0  0  0  0  0  0  0  0  0  0  0  0
   10.8624   13.1080   25.8541 N   0  0  0  0  0  0  0  0  0  0  0  0
    9.4793   14.0352   25.4598 S   0  0  0  0  0  0  0  0  0  0  0  0
    9.8293   14.9398   24.3923 O   0  0  0  0  0  0  0  0  0  0  0  0
    8.9550   14.5309   26.7102 O   0  0  0  0  0  0  0  0  0  0  0  0
    8.3851   12.8927   24.8799 N   0  0  0  0  0  0  0  0  0  0  0  0
    8.2321   11.6474   25.6744 C   0  0  0  0  0  0  0  0  0  0  0  0
    6.7970   11.3800   26.1084 C   0  0  0  0  0  0  0  0  0  0  0  0
    6.1455   12.6242   26.6871 C   0  0  0  0  0  0  0  0  0  0  0  0
    6.1703   13.7750   25.6834 C   0  0  0  0  0  0  0  0  0  0  0  0
    7.0830   13.5130   24.4828 C   0  0  0  0  0  0  0  0  0  0  0  0
   11.6749   12.7192   24.6806 C   0  0  0  0  0  0  0  0  0  0  0  0
   12.8261   11.8386   25.1707 C   0  0  0  0  0  0  0  0  0  0  0  0
   15.4701   10.9481   29.5691 C   0  0  0  0  0  0  0  0  0  0  0  0
   15.6249   12.0989   30.4433 O   0  0  0  0  0  0  0  0  0  0  0  0
   16.8165   12.4890   29.7110 C   0  0  0  0  0  0  0  0  0  0  0  0
  1  2  3  0
  2  3  1  0
  3  4  1  0
  4  5  1  0
  5  6  1  0
  6  7  2  0
  6  8  1  0
  8  9  1  0
  9 10  1  0
 10 11  1  0
 11 12  1  0
 12 13  2  0
 12 14  2  0
 12 15  1  0
 15 16  1  0
 16 17  1  0
 17 18  1  0
 18 19  1  0
 19 20  1  0
 11 21  1  0
 21 22  1  0
  4 23  1  0
 23 24  1  0
 24 25  1  0
 25  4  1  0
 22  8  1  0
 20 15  1  0
M  END
>  <energy_score>  (4126) 
-73.315709

>  <inchikey>  (4126) 
HLZQRTYSAHGKSR-UHFFFAOYSA-N

>  <smiles>  (4126) 
C#CCC1(OC(=O)C2CCN(S(=O)(=O)N3CCCCC3)CC2)COC1

>  <ref_pdb>  (4126) 
A0875a

>  <alias>  (4126) 
HLZQRTYSAHGKSR-UHFFFAOYSA-N-P439-P87-P439-601505

>  <HIPPO Pose ID>  (4126) 
507765

>  <name>  (4126) 
HLZQRTYSAHGKSR-UHFFFAOYSA-N-P439-P87-P439-601505

>  <HIPPO Compound ID>  (4126) 
314418

>  <ref_mols>  (4126) 
A4706a,A0875a

>  <distance_score>  (4126) 
1.696478

>  <inspiration_score>  (4126) 
None

$$$$
BTUXNMRKCDHNNJ-UHFFFAOYSA-N-P439-P87-P439-601505
     RDKit          3D

 25 27  0  0  0  0  0  0  0  0999 V2000
   11.2517   14.4087   18.7185 O   0  0  0  0  0  0  0  0  0  0  0  0
   10.8239   14.8988   19.7481 C   0  0  0  0  0  0  0  0  0  0  0  0
   11.3265   14.6414   20.9911 O   0  0  0  0  0  0  0  0  0  0  0  0
   10.7170   15.5687   21.8671 C   0  0  0  0  0  0  0  0  0  0  0  0
    9.4026   15.8546   21.2083 C   0  0  2  0  0  0  0  0  0  0  0  0
    8.2960   14.8265   21.4888 C   0  0  0  0  0  0  0  0  0  0  0  0
    7.5499   15.1173   22.6906 O   0  0  0  0  0  0  0  0  0  0  0  0
    6.5842   14.1926   22.9859 C   0  0  0  0  0  0  0  0  0  0  0  0
    6.2857   13.2550   22.2486 O   0  0  0  0  0  0  0  0  0  0  0  0
    5.9088   14.4139   24.3505 C   0  0  0  0  0  0  0  0  0  0  0  0
    5.6279   13.0660   25.0477 C   0  0  0  0  0  0  0  0  0  0  0  0
    6.8519   12.3656   25.6501 C   0  0  0  0  0  0  0  0  0  0  0  0
    7.9064   13.3490   25.9970 N   0  0  0  0  0  0  0  0  0  0  0  0
    9.1922   13.4861   24.9185 S   0  0  0  0  0  0  0  0  0  0  0  0
    9.6893   14.8398   24.9643 O   0  0  0  0  0  0  0  0  0  0  0  0
    8.7824   12.8639   23.6877 O   0  0  0  0  0  0  0  0  0  0  0  0
   10.3060   12.4487   25.6333 N   0  0  0  0  0  0  0  0  0  0  0  0
   10.3792   11.1301   24.9367 C   0  0  0  0  0  0  0  0  0  0  0  0
   11.6186   10.3219   25.2704 C   0  0  0  0  0  0  0  0  0  0  0  0
   12.9169   11.1590   25.4254 C   0  0  0  0  0  0  0  0  0  0  0  0
   12.6929   12.6336   25.1610 C   0  0  0  0  0  0  0  0  0  0  0  0
   11.5681   13.0780   26.0650 C   0  0  0  0  0  0  0  0  0  0  0  0
    7.3302   14.6230   26.4790 C   0  0  0  0  0  0  0  0  0  0  0  0
    6.6160   15.3553   25.3399 C   0  0  0  0  0  0  0  0  0  0  0  0
    9.7744   15.7726   19.8284 O   0  0  0  0  0  0  0  0  0  0  0  0
  1  2  2  0
  2  3  1  0
  3  4  1  0
  4  5  1  0
  5  6  1  1
  6  7  1  0
  7  8  1  0
  8  9  2  0
  8 10  1  0
 10 11  1  0
 11 12  1  0
 12 13  1  0
 13 14  1  0
 14 15  2  0
 14 16  2  0
 14 17  1  0
 17 18  1  0
 18 19  1  0
 19 20  1  0
 20 21  1  0
 21 22  1  0
 13 23  1  0
 23 24  1  0
  5 25  1  0
 25  2  1  0
 24 10  1  0
 22 17  1  0
M  END
>  <energy_score>  (4127) 
-45.45459

>  <inchikey>  (4127) 
BTUXNMRKCDHNNJ-UHFFFAOYSA-N

>  <smiles>  (4127) 
O=C1OCC(COC(=O)C2CCN(S(=O)(=O)N3CCCCC3)CC2)O1

>  <ref_pdb>  (4127) 
A0875a

>  <alias>  (4127) 
BTUXNMRKCDHNNJ-UHFFFAOYSA-N-P439-P87-P439-601505

>  <HIPPO Pose ID>  (4127) 
507769

>  <name>  (4127) 
BTUXNMRKCDHNNJ-UHFFFAOYSA-N-P439-P87-P439-601505

>  <HIPPO Compound ID>  (4127) 
314420

>  <ref_mols>  (4127) 
A4706a,A0875a

>  <distance_score>  (4127) 
1.501652

>  <inspiration_score>  (4127) 
None

$$$$
MFEFPPXLRJILAC-UHFFFAOYSA-N-P439-P87-P439-601505
     RDKit          3D

 25 28  0  0  0  0  0  0  0  0999 V2000
    7.0260   13.2691   21.8128 O   0  0  0  0  0  0  0  0  0  0  0  0
    7.2465   14.0848   22.7043 C   0  0  0  0  0  0  0  0  0  0  0  0
    8.1486   15.0910   22.5931 O   0  0  0  0  0  0  0  0  0  0  0  0
    8.6363   15.3386   21.2662 C   0  0  0  0  0  0  0  0  0  0  0  0
    9.7968   14.5325   20.7031 C   0  0  1  0  0  0  0  0  0  0  0  0
   10.0887   15.2537   19.3833 C   0  0  0  0  0  0  0  0  0  0  0  0
    9.7915   16.6349   19.7245 O   0  0  0  0  0  0  0  0  0  0  0  0
    9.4592   16.5943   21.1414 C   0  0  2  0  0  0  0  0  0  0  0  0
   10.7262   16.2061   21.9094 C   0  0  0  0  0  0  0  0  0  0  0  0
   10.9386   14.8300   21.5381 O   0  0  0  0  0  0  0  0  0  0  0  0
    6.4900   13.9930   24.0295 C   0  0  0  0  0  0  0  0  0  0  0  0
    6.7005   12.5665   24.6086 C   0  0  0  0  0  0  0  0  0  0  0  0
    7.1904   12.4533   26.0375 C   0  0  0  0  0  0  0  0  0  0  0  0
    7.9452   13.6464   26.3582 N   0  0  0  0  0  0  0  0  0  0  0  0
    9.5653   13.8121   26.0292 S   0  0  0  0  0  0  0  0  0  0  0  0
   10.2589   13.3775   27.2094 O   0  0  0  0  0  0  0  0  0  0  0  0
    9.7816   15.1230   25.4644 O   0  0  0  0  0  0  0  0  0  0  0  0
    9.8623   12.6570   24.8513 N   0  0  0  0  0  0  0  0  0  0  0  0
   10.4997   13.1537   23.6438 C   0  0  0  0  0  0  0  0  0  0  0  0
   11.9924   13.3671   23.7954 C   0  0  0  0  0  0  0  0  0  0  0  0
   12.5996   12.8550   25.0754 C   0  0  0  0  0  0  0  0  0  0  0  0
   11.9739   11.5783   25.5779 C   0  0  0  0  0  0  0  0  0  0  0  0
   10.4856   11.3889   25.2286 C   0  0  0  0  0  0  0  0  0  0  0  0
    7.1017   14.8387   26.3906 C   0  0  0  0  0  0  0  0  0  0  0  0
    6.6742   15.1876   24.9791 C   0  0  0  0  0  0  0  0  0  0  0  0
  1  2  2  0
  2  3  1  0
  3  4  1  0
  4  5  1  0
  5  6  1  6
  6  7  1  0
  7  8  1  0
  8  9  1  1
  9 10  1  0
  2 11  1  0
 11 12  1  0
 12 13  1  0
 13 14  1  0
 14 15  1  0
 15 16  2  0
 15 17  2  0
 15 18  1  0
 18 19  1  0
 19 20  1  0
 20 21  1  0
 21 22  1  0
 22 23  1  0
 14 24  1  0
 24 25  1  0
  8  4  1  0
 25 11  1  0
 10  5  1  0
 23 18  1  0
M  END
>  <energy_score>  (4128) 
-40.257761

>  <inchikey>  (4128) 
MFEFPPXLRJILAC-UHFFFAOYSA-N

>  <smiles>  (4128) 
O=C(OC1C2COC1CO2)C1CCN(S(=O)(=O)N2CCCCC2)CC1

>  <ref_pdb>  (4128) 
A0875a

>  <alias>  (4128) 
MFEFPPXLRJILAC-UHFFFAOYSA-N-P439-P87-P439-601505

>  <HIPPO Pose ID>  (4128) 
507771

>  <name>  (4128) 
MFEFPPXLRJILAC-UHFFFAOYSA-N-P439-P87-P439-601505

>  <HIPPO Compound ID>  (4128) 
314421

>  <ref_mols>  (4128) 
A4706a,A0875a

>  <distance_score>  (4128) 
1.861058

>  <inspiration_score>  (4128) 
None

$$$$
QXNBWTWVIOZOML-UHFFFAOYSA-N-P439-P87-P439-601505
     RDKit          3D

 25 27  0  0  0  0  0  0  0  0999 V2000
   10.9161   15.0196   18.7099 C   0  0  0  0  0  0  0  0  0  0  0  0
   10.3658   15.3349   19.7267 C   0  0  0  0  0  0  0  0  0  0  0  0
    9.8124   15.6933   21.0562 C   0  0  2  0  0  0  0  0  0  0  0  0
   10.9609   15.7623   22.0492 C   0  0  0  0  0  0  0  0  0  0  0  0
   11.2463   14.4272   22.4752 O   0  0  0  0  0  0  0  0  0  0  0  0
   10.0635   13.6604   22.2287 C   0  0  0  0  0  0  0  0  0  0  0  0
    8.9832   14.5503   21.6184 C   0  0  1  0  0  0  0  0  0  0  0  0
    8.0262   14.9251   22.6578 O   0  0  0  0  0  0  0  0  0  0  0  0
    7.1312   13.9372   22.9272 C   0  0  0  0  0  0  0  0  0  0  0  0
    6.9756   12.9648   22.1877 O   0  0  0  0  0  0  0  0  0  0  0  0
    6.3317   14.0053   24.2262 C   0  0  0  0  0  0  0  0  0  0  0  0
    6.4084   12.6139   24.9034 C   0  0  0  0  0  0  0  0  0  0  0  0
    7.7792   12.3649   25.5287 C   0  0  0  0  0  0  0  0  0  0  0  0
    8.1884   13.4779   26.4016 N   0  0  0  0  0  0  0  0  0  0  0  0
    9.6773   14.2303   26.1853 S   0  0  0  0  0  0  0  0  0  0  0  0
    9.7825   15.1221   27.3158 O   0  0  0  0  0  0  0  0  0  0  0  0
    9.7380   14.7649   24.8538 O   0  0  0  0  0  0  0  0  0  0  0  0
   10.9022   13.0435   26.3788 N   0  0  0  0  0  0  0  0  0  0  0  0
   12.0739   13.7041   27.0509 C   0  0  0  0  0  0  0  0  0  0  0  0
   13.4391   13.1326   26.6642 C   0  0  0  0  0  0  0  0  0  0  0  0
   13.3779   11.6658   26.5850 C   0  0  0  0  0  0  0  0  0  0  0  0
   12.4716   11.3406   25.4255 C   0  0  0  0  0  0  0  0  0  0  0  0
   11.3235   12.3261   25.1529 C   0  0  0  0  0  0  0  0  0  0  0  0
    7.0977   14.4919   26.5980 C   0  0  0  0  0  0  0  0  0  0  0  0
    6.6722   15.0879   25.2499 C   0  0  0  0  0  0  0  0  0  0  0  0
  1  2  3  0
  3  2  1  6
  3  4  1  0
  4  5  1  0
  5  6  1  0
  6  7  1  0
  7  8  1  1
  8  9  1  0
  9 10  2  0
  9 11  1  0
 11 12  1  0
 12 13  1  0
 13 14  1  0
 14 15  1  0
 15 16  2  0
 15 17  2  0
 15 18  1  0
 18 19  1  0
 19 20  1  0
 20 21  1  0
 21 22  1  0
 22 23  1  0
 14 24  1  0
 24 25  1  0
  7  3  1  0
 25 11  1  0
 23 18  1  0
M  END
>  <energy_score>  (4129) 
-36.579471

>  <inchikey>  (4129) 
QXNBWTWVIOZOML-UHFFFAOYSA-N

>  <smiles>  (4129) 
C#CC1COCC1OC(=O)C1CCN(S(=O)(=O)N2CCCCC2)CC1

>  <ref_pdb>  (4129) 
A0875a

>  <alias>  (4129) 
QXNBWTWVIOZOML-UHFFFAOYSA-N-P439-P87-P439-601505

>  <HIPPO Pose ID>  (4129) 
507773

>  <name>  (4129) 
QXNBWTWVIOZOML-UHFFFAOYSA-N-P439-P87-P439-601505

>  <HIPPO Compound ID>  (4129) 
314422

>  <ref_mols>  (4129) 
A4706a,A0875a

>  <distance_score>  (4129) 
1.752562

>  <inspiration_score>  (4129) 
None

$$$$
RJOQVDUPNQVOFB-UHFFFAOYSA-N-P439-P87-P439-601505
     RDKit          3D

 25 26  0  0  0  0  0  0  0  0999 V2000
    7.8157   14.5355   21.0427 C   0  0  0  0  0  0  0  0  0  0  0  0
    8.3123   15.3067   22.2341 C   0  0  2  0  0  0  0  0  0  0  0  0
    9.7477   14.8586   22.6470 C   0  0  0  0  0  0  0  0  0  0  0  0
   10.6073   14.3820   21.6201 O   0  0  0  0  0  0  0  0  0  0  0  0
   10.9252   15.3188   20.6219 C   0  0  0  0  0  0  0  0  0  0  0  0
   10.6688   14.7549   19.4209 F   0  0  0  0  0  0  0  0  0  0  0  0
   10.1120   16.3900   20.7235 F   0  0  0  0  0  0  0  0  0  0  0  0
    7.3233   15.2687   23.3032 O   0  0  0  0  0  0  0  0  0  0  0  0
    6.7676   14.0897   23.6688 C   0  0  0  0  0  0  0  0  0  0  0  0
    7.0012   13.0042   23.1386 O   0  0  0  0  0  0  0  0  0  0  0  0
    5.7532   14.2322   24.8066 C   0  0  0  0  0  0  0  0  0  0  0  0
    5.6170   12.8673   25.4906 C   0  0  0  0  0  0  0  0  0  0  0  0
    6.9540   12.4559   26.0999 C   0  0  0  0  0  0  0  0  0  0  0  0
    7.6100   13.5490   26.8551 N   0  0  0  0  0  0  0  0  0  0  0  0
    9.1274   14.1828   26.5027 S   0  0  0  0  0  0  0  0  0  0  0  0
    9.5505   14.9143   27.6713 O   0  0  0  0  0  0  0  0  0  0  0  0
    9.0487   14.8835   25.2518 O   0  0  0  0  0  0  0  0  0  0  0  0
   10.2655   12.9576   26.3136 N   0  0  0  0  0  0  0  0  0  0  0  0
    9.9214   11.8512   25.4236 C   0  0  0  0  0  0  0  0  0  0  0  0
   11.0317   10.8646   25.1686 C   0  0  0  0  0  0  0  0  0  0  0  0
   12.4383   11.4289   25.4022 C   0  0  0  0  0  0  0  0  0  0  0  0
   12.4619   12.8900   25.0605 C   0  0  0  0  0  0  0  0  0  0  0  0
   11.6041   13.6018   26.0845 C   0  0  0  0  0  0  0  0  0  0  0  0
    6.6411   14.6448   27.1728 C   0  0  0  0  0  0  0  0  0  0  0  0
    6.0936   15.2746   25.8828 C   0  0  0  0  0  0  0  0  0  0  0  0
  2  1  1  6
  2  3  1  0
  3  4  1  0
  4  5  1  0
  5  6  1  0
  5  7  1  0
  2  8  1  0
  8  9  1  0
  9 10  2  0
  9 11  1  0
 11 12  1  0
 12 13  1  0
 13 14  1  0
 14 15  1  0
 15 16  2  0
 15 17  2  0
 15 18  1  0
 18 19  1  0
 19 20  1  0
 20 21  1  0
 21 22  1  0
 22 23  1  0
 14 24  1  0
 24 25  1  0
 25 11  1  0
 23 18  1  0
M  END
>  <energy_score>  (4130) 
-34.499425

>  <inchikey>  (4130) 
RJOQVDUPNQVOFB-UHFFFAOYSA-N

>  <smiles>  (4130) 
CC(COC(F)F)OC(=O)C1CCN(S(=O)(=O)N2CCCCC2)CC1

>  <ref_pdb>  (4130) 
A0875a

>  <alias>  (4130) 
RJOQVDUPNQVOFB-UHFFFAOYSA-N-P439-P87-P439-601505

>  <HIPPO Pose ID>  (4130) 
507777

>  <name>  (4130) 
RJOQVDUPNQVOFB-UHFFFAOYSA-N-P439-P87-P439-601505

>  <HIPPO Compound ID>  (4130) 
314424

>  <ref_mols>  (4130) 
A4706a,A0875a

>  <distance_score>  (4130) 
1.826516

>  <inspiration_score>  (4130) 
None

$$$$
BRCJQMFQGRSILI-UHFFFAOYSA-N-P87-P87-P439-601505
     RDKit          3D

 25 26  0  0  0  0  0  0  0  0999 V2000
   17.4858    8.9729   26.8232 C   0  0  0  0  0  0  0  0  0  0  0  0
   16.3976    9.8508   27.1257 O   0  0  0  0  0  0  0  0  0  0  0  0
   16.5016   11.0533   26.3697 C   0  0  0  0  0  0  0  0  0  0  0  0
   15.3723   12.0536   26.6525 C   0  0  2  0  0  0  0  0  0  0  0  0
   15.3639   12.6803   28.0593 C   0  0  0  0  0  0  0  0  0  0  0  0
   15.1095   11.7585   29.2504 C   0  0  0  0  0  0  0  0  0  0  0  0
   16.3015   11.0293   29.6568 N   0  0  0  0  0  0  0  0  0  0  0  0
   14.0365   11.5554   26.3544 O   0  0  0  0  0  0  0  0  0  0  0  0
   13.7078   11.5859   25.0314 C   0  0  0  0  0  0  0  0  0  0  0  0
   14.5235   11.5235   24.1233 O   0  0  0  0  0  0  0  0  0  0  0  0
   12.2184   11.8163   24.8197 C   0  0  0  0  0  0  0  0  0  0  0  0
   12.0395   12.8876   23.7326 C   0  0  0  0  0  0  0  0  0  0  0  0
   10.8135   12.6157   22.8846 C   0  0  0  0  0  0  0  0  0  0  0  0
    9.6583   12.2930   23.7574 N   0  0  0  0  0  0  0  0  0  0  0  0
    9.0952   13.6567   24.5672 S   0  0  0  0  0  0  0  0  0  0  0  0
    9.1728   14.7668   23.6520 O   0  0  0  0  0  0  0  0  0  0  0  0
    9.7811   13.6856   25.8403 O   0  0  0  0  0  0  0  0  0  0  0  0
    7.4997   13.2510   24.8379 N   0  0  0  0  0  0  0  0  0  0  0  0
    7.1043   12.0861   25.5995 C   0  0  0  0  0  0  0  0  0  0  0  0
    5.9788   12.3720   26.5667 C   0  0  0  0  0  0  0  0  0  0  0  0
    5.1118   13.5695   26.2332 C   0  0  0  0  0  0  0  0  0  0  0  0
    5.1828   14.1088   24.8025 C   0  0  0  0  0  0  0  0  0  0  0  0
    6.4501   13.8306   23.9853 C   0  0  0  0  0  0  0  0  0  0  0  0
    9.8592   11.0685   24.5734 C   0  0  0  0  0  0  0  0  0  0  0  0
   11.2951   10.5976   24.5507 C   0  0  0  0  0  0  0  0  0  0  0  0
  1  2  1  0
  2  3  1  0
  4  3  1  1
  4  5  1  0
  5  6  1  0
  6  7  1  0
  4  8  1  0
  8  9  1  0
  9 10  2  0
  9 11  1  0
 11 12  1  0
 12 13  1  0
 13 14  1  0
 14 15  1  0
 15 16  2  0
 15 17  2  0
 15 18  1  0
 18 19  1  0
 19 20  1  0
 20 21  1  0
 21 22  1  0
 22 23  1  0
 14 24  1  0
 24 25  1  0
 25 11  1  0
 23 18  1  0
M  END
>  <energy_score>  (4131) 
-52.578509

>  <inchikey>  (4131) 
BRCJQMFQGRSILI-UHFFFAOYSA-N

>  <smiles>  (4131) 
COCC(CCN)OC(=O)C1CCN(S(=O)(=O)N2CCCCC2)CC1

>  <ref_pdb>  (4131) 
A0875a

>  <alias>  (4131) 
BRCJQMFQGRSILI-UHFFFAOYSA-N-P87-P87-P439-601505

>  <HIPPO Pose ID>  (4131) 
507778

>  <name>  (4131) 
BRCJQMFQGRSILI-UHFFFAOYSA-N-P87-P87-P439-601505

>  <HIPPO Compound ID>  (4131) 
314425

>  <ref_mols>  (4131) 
A4706a,A0875a

>  <distance_score>  (4131) 
1.56442

>  <inspiration_score>  (4131) 
None

$$$$
BRCJQMFQGRSILI-UHFFFAOYSA-N-P439-P87-P439-601505
     RDKit          3D

 25 26  0  0  0  0  0  0  0  0999 V2000
   17.5149    8.2726   22.8097 C   0  0  0  0  0  0  0  0  0  0  0  0
   17.2130    8.4936   24.3293 O   0  0  0  0  0  0  0  0  0  0  0  0
   16.1155    9.0830   25.0679 C   0  0  0  0  0  0  0  0  0  0  0  0
   16.4676    9.9409   26.3615 C   0  0  2  0  0  0  0  0  0  0  0  0
   17.5750    9.4512   27.3163 C   0  0  0  0  0  0  0  0  0  0  0  0
   17.2749    8.3873   28.3584 C   0  0  0  0  0  0  0  0  0  0  0  0
   18.5078    7.9774   29.0294 N   0  0  0  0  0  0  0  0  0  0  0  0
   15.2580   10.5238   26.9477 O   0  0  0  0  0  0  0  0  0  0  0  0
   14.6563   11.4920   26.1911 C   0  0  0  0  0  0  0  0  0  0  0  0
   15.1500   12.0468   25.2175 O   0  0  0  0  0  0  0  0  0  0  0  0
   13.2192   11.7726   26.5937 C   0  0  0  0  0  0  0  0  0  0  0  0
   13.0012   13.2371   26.6951 C   0  0  0  0  0  0  0  0  0  0  0  0
   11.5502   13.6675   26.7735 C   0  0  0  0  0  0  0  0  0  0  0  0
   10.7524   13.0865   25.6776 N   0  0  0  0  0  0  0  0  0  0  0  0
    9.5119   14.0719   25.0810 S   0  0  0  0  0  0  0  0  0  0  0  0
    9.4158   13.9430   23.6500 O   0  0  0  0  0  0  0  0  0  0  0  0
    9.6280   15.3530   25.7316 O   0  0  0  0  0  0  0  0  0  0  0  0
    8.1771   13.3042   25.7704 N   0  0  0  0  0  0  0  0  0  0  0  0
    7.7772   12.0135   25.1652 C   0  0  0  0  0  0  0  0  0  0  0  0
    6.8277   11.3091   26.1264 C   0  0  0  0  0  0  0  0  0  0  0  0
    5.6227   12.1758   26.4803 C   0  0  0  0  0  0  0  0  0  0  0  0
    6.0545   13.5579   26.9546 C   0  0  0  0  0  0  0  0  0  0  0  0
    6.9990   14.2013   25.9467 C   0  0  0  0  0  0  0  0  0  0  0  0
   11.4940   12.2802   24.7072 C   0  0  0  0  0  0  0  0  0  0  0  0
   12.3372   11.2289   25.4617 C   0  0  0  0  0  0  0  0  0  0  0  0
  1  2  1  0
  2  3  1  0
  4  3  1  1
  4  5  1  0
  5  6  1  0
  6  7  1  0
  4  8  1  0
  8  9  1  0
  9 10  2  0
  9 11  1  0
 11 12  1  0
 12 13  1  0
 13 14  1  0
 14 15  1  0
 15 16  2  0
 15 17  2  0
 15 18  1  0
 18 19  1  0
 19 20  1  0
 20 21  1  0
 21 22  1  0
 22 23  1  0
 14 24  1  0
 24 25  1  0
 25 11  1  0
 23 18  1  0
M  END
>  <energy_score>  (4132) 
-18.230724

>  <inchikey>  (4132) 
BRCJQMFQGRSILI-UHFFFAOYSA-N

>  <smiles>  (4132) 
COCC(CCN)OC(=O)C1CCN(S(=O)(=O)N2CCCCC2)CC1

>  <ref_pdb>  (4132) 
A0875a

>  <alias>  (4132) 
BRCJQMFQGRSILI-UHFFFAOYSA-N-P439-P87-P439-601505

>  <HIPPO Pose ID>  (4132) 
507779

>  <name>  (4132) 
BRCJQMFQGRSILI-UHFFFAOYSA-N-P439-P87-P439-601505

>  <HIPPO Compound ID>  (4132) 
314425

>  <ref_mols>  (4132) 
A4706a,A0875a

>  <distance_score>  (4132) 
1.31663

>  <inspiration_score>  (4132) 
None

$$$$
CWGJBMFGISOZDI-UHFFFAOYSA-N-P87-P87-P439-601505
     RDKit          3D

 25 26  0  0  0  0  0  0  0  0999 V2000
   18.9951   14.7534   28.6898 C   0  0  0  0  0  0  0  0  0  0  0  0
   17.9855   13.7192   28.2317 C   0  0  0  0  0  0  0  0  0  0  0  0
   16.6755   14.1812   28.6062 O   0  0  0  0  0  0  0  0  0  0  0  0
   15.5748   13.4893   28.2904 C   0  0  0  0  0  0  0  0  0  0  0  0
   14.4436   14.0613   28.5383 N   0  0  0  0  0  0  0  0  0  0  0  0
   15.6471   12.0762   27.7431 C   0  0  1  0  0  0  0  0  0  0  0  0
   15.5330   11.1079   28.9123 C   0  0  0  0  0  0  0  0  0  0  0  0
   14.5282   11.9407   26.8366 O   0  0  0  0  0  0  0  0  0  0  0  0
   14.5882   10.9455   25.9372 C   0  0  0  0  0  0  0  0  0  0  0  0
   15.3811   10.0148   25.9812 O   0  0  0  0  0  0  0  0  0  0  0  0
   13.5348   11.0330   24.8470 C   0  0  0  0  0  0  0  0  0  0  0  0
   13.1398   12.4572   24.5483 C   0  0  0  0  0  0  0  0  0  0  0  0
   12.0143   12.8129   25.4728 C   0  0  0  0  0  0  0  0  0  0  0  0
   10.7503   12.1015   25.1088 N   0  0  0  0  0  0  0  0  0  0  0  0
    9.6189   13.2576   24.6149 S   0  0  0  0  0  0  0  0  0  0  0  0
    9.9519   13.7178   23.2938 O   0  0  0  0  0  0  0  0  0  0  0  0
    9.6531   14.1273   25.7617 O   0  0  0  0  0  0  0  0  0  0  0  0
    8.0789   12.5241   24.6193 N   0  0  0  0  0  0  0  0  0  0  0  0
    7.8140   11.9190   25.9228 C   0  0  0  0  0  0  0  0  0  0  0  0
    6.3781   11.6887   26.2815 C   0  0  0  0  0  0  0  0  0  0  0  0
    5.6388   12.9972   26.2861 C   0  0  0  0  0  0  0  0  0  0  0  0
    5.7313   13.6716   24.9346 C   0  0  0  0  0  0  0  0  0  0  0  0
    7.0035   13.4549   24.0899 C   0  0  0  0  0  0  0  0  0  0  0  0
   10.9304   10.8599   24.3540 C   0  0  0  0  0  0  0  0  0  0  0  0
   12.2374   10.1174   24.8046 C   0  0  0  0  0  0  0  0  0  0  0  0
  1  2  1  0
  2  3  1  0
  3  4  1  0
  4  5  2  3
  4  6  1  0
  6  7  1  1
  6  8  1  0
  8  9  1  0
  9 10  2  0
  9 11  1  0
 11 12  1  0
 12 13  1  0
 13 14  1  0
 14 15  1  0
 15 16  2  0
 15 17  2  0
 15 18  1  0
 18 19  1  0
 19 20  1  0
 20 21  1  0
 21 22  1  0
 22 23  1  0
 14 24  1  0
 24 25  1  0
 25 11  1  0
 23 18  1  0
M  END
>  <energy_score>  (4133) 
-35.477653

>  <inchikey>  (4133) 
CWGJBMFGISOZDI-UHFFFAOYSA-N

>  <smiles>  (4133) 
CCOC(=N)C(C)OC(=O)C1CCN(S(=O)(=O)N2CCCCC2)CC1

>  <ref_pdb>  (4133) 
A0875a

>  <alias>  (4133) 
CWGJBMFGISOZDI-UHFFFAOYSA-N-P87-P87-P439-601505

>  <HIPPO Pose ID>  (4133) 
507782

>  <name>  (4133) 
CWGJBMFGISOZDI-UHFFFAOYSA-N-P87-P87-P439-601505

>  <HIPPO Compound ID>  (4133) 
314427

>  <ref_mols>  (4133) 
A4706a,A0875a

>  <distance_score>  (4133) 
1.301422

>  <inspiration_score>  (4133) 
None

$$$$
CWGJBMFGISOZDI-UHFFFAOYSA-N-P439-P87-P439-601505
     RDKit          3D

 25 26  0  0  0  0  0  0  0  0999 V2000
   16.0469   15.0249   31.0436 C   0  0  0  0  0  0  0  0  0  0  0  0
   15.2146   13.7812   30.8027 C   0  0  0  0  0  0  0  0  0  0  0  0
   15.4556   13.3437   29.4556 O   0  0  0  0  0  0  0  0  0  0  0  0
   14.8900   12.1961   29.0088 C   0  0  0  0  0  0  0  0  0  0  0  0
   14.1239   11.4144   29.6880 N   0  0  0  0  0  0  0  0  0  0  0  0
   15.2981   11.9056   27.5659 C   0  0  1  0  0  0  0  0  0  0  0  0
   16.4696   10.9310   27.5766 C   0  0  0  0  0  0  0  0  0  0  0  0
   14.2652   11.4090   26.7051 O   0  0  0  0  0  0  0  0  0  0  0  0
   13.2105   12.2646   26.5649 C   0  0  0  0  0  0  0  0  0  0  0  0
   12.8842   13.1223   27.3685 O   0  0  0  0  0  0  0  0  0  0  0  0
   12.5653   12.0645   25.2105 C   0  0  0  0  0  0  0  0  0  0  0  0
   12.4889   13.4205   24.5198 C   0  0  0  0  0  0  0  0  0  0  0  0
   11.2763   14.2224   24.9428 C   0  0  0  0  0  0  0  0  0  0  0  0
   10.0579   13.3939   24.8794 N   0  0  0  0  0  0  0  0  0  0  0  0
    8.6786   14.2760   24.6893 S   0  0  0  0  0  0  0  0  0  0  0  0
    8.6270   14.6969   23.3131 O   0  0  0  0  0  0  0  0  0  0  0  0
    8.6653   15.2311   25.7734 O   0  0  0  0  0  0  0  0  0  0  0  0
    7.4524   13.1451   24.9698 N   0  0  0  0  0  0  0  0  0  0  0  0
    7.5738   12.3860   26.2454 C   0  0  0  0  0  0  0  0  0  0  0  0
    6.2440   11.7601   26.6308 C   0  0  0  0  0  0  0  0  0  0  0  0
    5.2318   12.8476   26.9661 C   0  0  0  0  0  0  0  0  0  0  0  0
    5.4351   14.0910   26.1023 C   0  0  0  0  0  0  0  0  0  0  0  0
    6.0905   13.7446   24.7687 C   0  0  0  0  0  0  0  0  0  0  0  0
   10.2233   12.0895   24.2399 C   0  0  0  0  0  0  0  0  0  0  0  0
   11.1818   11.4095   25.2193 C   0  0  0  0  0  0  0  0  0  0  0  0
  1  2  1  0
  2  3  1  0
  3  4  1  0
  4  5  2  3
  4  6  1  0
  6  7  1  1
  6  8  1  0
  8  9  1  0
  9 10  2  0
  9 11  1  0
 11 12  1  0
 12 13  1  0
 13 14  1  0
 14 15  1  0
 15 16  2  0
 15 17  2  0
 15 18  1  0
 18 19  1  0
 19 20  1  0
 20 21  1  0
 21 22  1  0
 22 23  1  0
 14 24  1  0
 24 25  1  0
 25 11  1  0
 23 18  1  0
M  END
>  <energy_score>  (4134) 
-58.403399

>  <inchikey>  (4134) 
CWGJBMFGISOZDI-UHFFFAOYSA-N

>  <smiles>  (4134) 
CCOC(=N)C(C)OC(=O)C1CCN(S(=O)(=O)N2CCCCC2)CC1

>  <ref_pdb>  (4134) 
A0875a

>  <alias>  (4134) 
CWGJBMFGISOZDI-UHFFFAOYSA-N-P439-P87-P439-601505

>  <HIPPO Pose ID>  (4134) 
507783

>  <name>  (4134) 
CWGJBMFGISOZDI-UHFFFAOYSA-N-P439-P87-P439-601505

>  <HIPPO Compound ID>  (4134) 
314427

>  <ref_mols>  (4134) 
A4706a,A0875a

>  <distance_score>  (4134) 
1.815929

>  <inspiration_score>  (4134) 
None

$$$$
DEGJEROPLQHNSB-UHFFFAOYSA-N-P439-P87-P439-601505
     RDKit          3D

 25 26  0  0  0  0  0  0  0  0999 V2000
   11.0721   14.6263   18.8568 C   0  0  0  0  0  0  0  0  0  0  0  0
   10.0851   14.6069   19.8804 O   0  0  0  0  0  0  0  0  0  0  0  0
   10.0414   15.8452   20.5623 C   0  0  0  0  0  0  0  0  0  0  0  0
   11.1846   16.0754   21.3705 O   0  0  0  0  0  0  0  0  0  0  0  0
   11.3424   15.1705   22.4356 C   0  0  0  0  0  0  0  0  0  0  0  0
    8.6456   16.1191   21.1686 C   0  0  2  0  0  0  0  0  0  0  0  0
    8.4450   17.6269   21.1613 C   0  0  0  0  0  0  0  0  0  0  0  0
    8.3489   15.5699   22.4513 O   0  0  0  0  0  0  0  0  0  0  0  0
    7.0170   15.3521   22.7733 C   0  0  0  0  0  0  0  0  0  0  0  0
    6.0255   15.6102   22.1147 O   0  0  0  0  0  0  0  0  0  0  0  0
    7.0147   14.6206   24.0833 C   0  0  0  0  0  0  0  0  0  0  0  0
    6.9901   13.1021   23.8366 C   0  0  0  0  0  0  0  0  0  0  0  0
    7.3377   12.2858   25.0869 C   0  0  0  0  0  0  0  0  0  0  0  0
    7.9671   13.1780   26.0839 N   0  0  0  0  0  0  0  0  0  0  0  0
    9.5263   13.7420   25.6241 S   0  0  0  0  0  0  0  0  0  0  0  0
    9.7804   14.9376   26.3907 O   0  0  0  0  0  0  0  0  0  0  0  0
    9.6645   13.7176   24.1927 O   0  0  0  0  0  0  0  0  0  0  0  0
   10.5138   12.5115   26.1699 N   0  0  0  0  0  0  0  0  0  0  0  0
   11.3964   12.9481   27.2357 C   0  0  0  0  0  0  0  0  0  0  0  0
   12.5673   13.6786   26.7432 C   0  0  0  0  0  0  0  0  0  0  0  0
   13.4149   12.7439   25.9194 C   0  0  0  0  0  0  0  0  0  0  0  0
   12.5699   12.2663   24.7721 C   0  0  0  0  0  0  0  0  0  0  0  0
   11.2009   11.6883   25.1453 C   0  0  0  0  0  0  0  0  0  0  0  0
    6.9629   14.2501   26.5171 C   0  0  0  0  0  0  0  0  0  0  0  0
    6.2079   14.9073   25.3221 C   0  0  0  0  0  0  0  0  0  0  0  0
  1  2  1  0
  2  3  1  0
  3  4  1  0
  4  5  1  0
  3  6  1  0
  6  7  1  1
  6  8  1  0
  8  9  1  0
  9 10  2  0
  9 11  1  0
 11 12  1  0
 12 13  1  0
 13 14  1  0
 14 15  1  0
 15 16  2  0
 15 17  2  0
 15 18  1  0
 18 19  1  0
 19 20  1  0
 20 21  1  0
 21 22  1  0
 22 23  1  0
 14 24  1  0
 24 25  1  0
 25 11  1  0
 23 18  1  0
M  END
>  <energy_score>  (4135) 
-0.185391

>  <inchikey>  (4135) 
DEGJEROPLQHNSB-UHFFFAOYSA-N

>  <smiles>  (4135) 
COC(OC)C(C)OC(=O)C1CCN(S(=O)(=O)N2CCCCC2)CC1

>  <ref_pdb>  (4135) 
A0875a

>  <alias>  (4135) 
DEGJEROPLQHNSB-UHFFFAOYSA-N-P439-P87-P439-601505

>  <HIPPO Pose ID>  (4135) 
507787

>  <name>  (4135) 
DEGJEROPLQHNSB-UHFFFAOYSA-N-P439-P87-P439-601505

>  <HIPPO Compound ID>  (4135) 
314429

>  <ref_mols>  (4135) 
A4706a,A0875a

>  <distance_score>  (4135) 
1.622297

>  <inspiration_score>  (4135) 
None

$$$$
YUTUPMZPVKQRSH-UHFFFAOYSA-N-P87-P87-P439-601505
     RDKit          3D

 25 26  0  0  0  0  0  0  0  0999 V2000
   15.9913    8.7086   25.3245 C   0  0  0  0  0  0  0  0  0  0  0  0
   16.4623    9.6395   25.9094 C   0  0  0  0  0  0  0  0  0  0  0  0
   17.0360   10.7657   26.6223 C   0  0  0  0  0  0  0  0  0  0  0  0
   16.3700   10.8761   27.8682 O   0  0  0  0  0  0  0  0  0  0  0  0
   16.1363   12.2337   28.2058 C   0  0  0  0  0  0  0  0  0  0  0  0
   14.6598   12.5935   27.9765 C   0  0  1  0  0  0  0  0  0  0  0  0
   14.5134   14.0348   28.4377 C   0  0  0  0  0  0  0  0  0  0  0  0
   14.2407   12.3144   26.5929 O   0  0  0  0  0  0  0  0  0  0  0  0
   12.9810   12.6485   26.1533 C   0  0  0  0  0  0  0  0  0  0  0  0
   12.2030   13.3687   26.7555 O   0  0  0  0  0  0  0  0  0  0  0  0
   12.6493   11.9984   24.8121 C   0  0  0  0  0  0  0  0  0  0  0  0
   12.7419   12.9848   23.6619 C   0  0  0  0  0  0  0  0  0  0  0  0
   11.5022   13.7521   23.2741 C   0  0  0  0  0  0  0  0  0  0  0  0
   10.2459   12.9891   23.4391 N   0  0  0  0  0  0  0  0  0  0  0  0
    9.1653   13.8568   24.3644 S   0  0  0  0  0  0  0  0  0  0  0  0
    9.0757   15.1238   23.6805 O   0  0  0  0  0  0  0  0  0  0  0  0
    9.6073   13.7405   25.7338 O   0  0  0  0  0  0  0  0  0  0  0  0
    7.7100   13.0358   24.2367 N   0  0  0  0  0  0  0  0  0  0  0  0
    7.4358   11.9586   25.1908 C   0  0  0  0  0  0  0  0  0  0  0  0
    6.7123   12.4253   26.4281 C   0  0  0  0  0  0  0  0  0  0  0  0
    5.5064   13.3014   26.1840 C   0  0  0  0  0  0  0  0  0  0  0  0
    5.4090   13.9886   24.8260 C   0  0  0  0  0  0  0  0  0  0  0  0
    6.5287   13.8228   23.7918 C   0  0  0  0  0  0  0  0  0  0  0  0
   10.4210   11.5580   23.5789 C   0  0  0  0  0  0  0  0  0  0  0  0
   11.2957   11.2600   24.7809 C   0  0  0  0  0  0  0  0  0  0  0  0
  1  2  3  0
  2  3  1  0
  3  4  1  0
  4  5  1  0
  5  6  1  0
  6  7  1  6
  6  8  1  0
  8  9  1  0
  9 10  2  0
  9 11  1  0
 11 12  1  0
 12 13  1  0
 13 14  1  0
 14 15  1  0
 15 16  2  0
 15 17  2  0
 15 18  1  0
 18 19  1  0
 19 20  1  0
 20 21  1  0
 21 22  1  0
 22 23  1  0
 14 24  1  0
 24 25  1  0
 25 11  1  0
 23 18  1  0
M  END
>  <energy_score>  (4136) 
-41.325199

>  <inchikey>  (4136) 
YUTUPMZPVKQRSH-UHFFFAOYSA-N

>  <smiles>  (4136) 
C#CCOCC(C)OC(=O)C1CCN(S(=O)(=O)N2CCCCC2)CC1

>  <ref_pdb>  (4136) 
A0875a

>  <alias>  (4136) 
YUTUPMZPVKQRSH-UHFFFAOYSA-N-P87-P87-P439-601505

>  <HIPPO Pose ID>  (4136) 
507788

>  <name>  (4136) 
YUTUPMZPVKQRSH-UHFFFAOYSA-N-P87-P87-P439-601505

>  <HIPPO Compound ID>  (4136) 
314430

>  <ref_mols>  (4136) 
A4706a,A0875a

>  <distance_score>  (4136) 
1.915266

>  <inspiration_score>  (4136) 
None

$$$$
FDKHDFLRRSSYOE-UHFFFAOYSA-N-P439-P87-P439-601505
     RDKit          3D

 25 28  0  0  0  0  0  0  0  0999 V2000
    6.4353   13.2066   21.9398 O   0  0  0  0  0  0  0  0  0  0  0  0
    6.8994   14.0041   22.7363 C   0  0  0  0  0  0  0  0  0  0  0  0
    7.6070   15.1346   22.4565 O   0  0  0  0  0  0  0  0  0  0  0  0
    8.4282   15.1200   21.2856 C   0  0  1  0  0  0  0  0  0  0  0  0
    9.1333   16.4826   21.1283 C   0  0  0  0  0  0  0  0  0  0  0  0
   10.6296   16.1271   21.2866 C   0  0  2  0  0  0  0  0  0  0  0  0
   11.0412   15.3706   20.0228 C   0  0  0  0  0  0  0  0  0  0  0  0
   10.2677   14.1740   20.1276 O   0  0  0  0  0  0  0  0  0  0  0  0
    9.6512   14.2064   21.4295 C   0  0  1  0  0  0  0  0  0  0  0  0
   10.6258   14.9977   22.2707 C   0  0  0  0  0  0  0  0  0  0  0  0
    6.8716   13.8391   24.2238 C   0  0  0  0  0  0  0  0  0  0  0  0
    6.5378   12.4930   24.8534 C   0  0  0  0  0  0  0  0  0  0  0  0
    7.1791   12.4095   26.2533 C   0  0  0  0  0  0  0  0  0  0  0  0
    7.6650   13.7343   26.7054 N   0  0  0  0  0  0  0  0  0  0  0  0
    9.2147   14.3609   26.4652 S   0  0  0  0  0  0  0  0  0  0  0  0
    9.2172   15.2688   25.3426 O   0  0  0  0  0  0  0  0  0  0  0  0
    9.6417   14.8522   27.7506 O   0  0  0  0  0  0  0  0  0  0  0  0
   10.2789   13.1360   26.0531 N   0  0  0  0  0  0  0  0  0  0  0  0
   10.0776   12.3565   24.8248 C   0  0  0  0  0  0  0  0  0  0  0  0
   10.8511   11.0746   25.0439 C   0  0  0  0  0  0  0  0  0  0  0  0
   12.3198   11.3936   25.4411 C   0  0  0  0  0  0  0  0  0  0  0  0
   12.6525   12.8539   25.2416 C   0  0  0  0  0  0  0  0  0  0  0  0
   11.6894   13.6723   26.1008 C   0  0  0  0  0  0  0  0  0  0  0  0
    6.5871   14.7620   26.5492 C   0  0  0  0  0  0  0  0  0  0  0  0
    6.2832   14.9750   25.0552 C   0  0  0  0  0  0  0  0  0  0  0  0
  1  2  2  0
  2  3  1  0
  4  3  1  1
  4  5  1  0
  6  5  1  6
  6  7  1  0
  7  8  1  0
  9  8  1  6
  9 10  1  0
  2 11  1  0
 11 12  1  0
 12 13  1  0
 13 14  1  0
 14 15  1  0
 15 16  2  0
 15 17  2  0
 15 18  1  0
 18 19  1  0
 19 20  1  0
 20 21  1  0
 21 22  1  0
 22 23  1  0
 14 24  1  0
 24 25  1  0
  9  4  1  0
 25 11  1  0
 10  6  1  0
 23 18  1  0
M  END
>  <energy_score>  (4137) 
-30.262081

>  <inchikey>  (4137) 
FDKHDFLRRSSYOE-UHFFFAOYSA-N

>  <smiles>  (4137) 
O=C(OC1CC2COC1C2)C1CCN(S(=O)(=O)N2CCCCC2)CC1

>  <ref_pdb>  (4137) 
A0875a

>  <alias>  (4137) 
FDKHDFLRRSSYOE-UHFFFAOYSA-N-P439-P87-P439-601505

>  <HIPPO Pose ID>  (4137) 
507791

>  <name>  (4137) 
FDKHDFLRRSSYOE-UHFFFAOYSA-N-P439-P87-P439-601505

>  <HIPPO Compound ID>  (4137) 
314431

>  <ref_mols>  (4137) 
A4706a,A0875a

>  <distance_score>  (4137) 
1.530805

>  <inspiration_score>  (4137) 
None

$$$$
RCFRNJCGKQNBNA-UHFFFAOYSA-N-P439-P87-P439-601505
     RDKit          3D

 25 27  0  0  0  0  0  0  0  0999 V2000
   10.7541   15.0588   18.8622 C   0  0  0  0  0  0  0  0  0  0  0  0
    9.6363   14.9104   19.7158 O   0  0  0  0  0  0  0  0  0  0  0  0
    9.5359   15.6990   20.9198 C   0  0  2  0  0  0  0  0  0  0  0  0
   10.5670   15.3998   22.0582 C   0  0  2  0  0  0  0  0  0  0  0  0
   11.9969   15.0201   21.8484 C   0  0  0  0  0  0  0  0  0  0  0  0
    9.6334   14.2195   22.3835 C   0  0  0  0  0  0  0  0  0  0  0  0
    8.4762   15.1589   21.9944 C   0  0  2  0  0  0  0  0  0  0  0  0
    7.2691   14.5342   21.5559 O   0  0  0  0  0  0  0  0  0  0  0  0
    6.4183   13.8651   22.3577 C   0  0  0  0  0  0  0  0  0  0  0  0
    5.5443   13.1949   21.7978 O   0  0  0  0  0  0  0  0  0  0  0  0
    6.4836   13.7450   23.8842 C   0  0  0  0  0  0  0  0  0  0  0  0
    7.3035   12.5087   24.2979 C   0  0  0  0  0  0  0  0  0  0  0  0
    7.6252   12.3685   25.7702 C   0  0  0  0  0  0  0  0  0  0  0  0
    7.9621   13.6468   26.3678 N   0  0  0  0  0  0  0  0  0  0  0  0
    9.4858   14.3164   26.3930 S   0  0  0  0  0  0  0  0  0  0  0  0
    9.5372   15.0521   27.6314 O   0  0  0  0  0  0  0  0  0  0  0  0
    9.7540   15.0168   25.1636 O   0  0  0  0  0  0  0  0  0  0  0  0
   10.6090   13.0373   26.5215 N   0  0  0  0  0  0  0  0  0  0  0  0
   11.8493   13.5746   27.1881 C   0  0  0  0  0  0  0  0  0  0  0  0
   13.0595   12.6603   27.0224 C   0  0  0  0  0  0  0  0  0  0  0  0
   13.3773   12.3644   25.5647 C   0  0  0  0  0  0  0  0  0  0  0  0
   12.2195   12.7916   24.6755 C   0  0  0  0  0  0  0  0  0  0  0  0
   10.9169   12.2940   25.2661 C   0  0  0  0  0  0  0  0  0  0  0  0
    6.8533   14.6279   26.2212 C   0  0  0  0  0  0  0  0  0  0  0  0
    6.6827   14.9872   24.7444 C   0  0  0  0  0  0  0  0  0  0  0  0
  1  2  1  0
  3  2  1  6
  3  4  1  0
  4  5  1  6
  4  6  1  0
  6  7  1  0
  7  8  1  6
  8  9  1  0
  9 10  2  0
  9 11  1  0
 11 12  1  0
 12 13  1  0
 13 14  1  0
 14 15  1  0
 15 16  2  0
 15 17  2  0
 15 18  1  0
 18 19  1  0
 19 20  1  0
 20 21  1  0
 21 22  1  0
 22 23  1  0
 14 24  1  0
 24 25  1  0
  7  3  1  0
 25 11  1  0
 23 18  1  0
M  END
>  <energy_score>  (4138) 
-15.965957

>  <inchikey>  (4138) 
RCFRNJCGKQNBNA-UHFFFAOYSA-N

>  <smiles>  (4138) 
COC1C(C)CC1OC(=O)C1CCN(S(=O)(=O)N2CCCCC2)CC1

>  <ref_pdb>  (4138) 
A0875a

>  <alias>  (4138) 
RCFRNJCGKQNBNA-UHFFFAOYSA-N-P439-P87-P439-601505

>  <HIPPO Pose ID>  (4138) 
507793

>  <name>  (4138) 
RCFRNJCGKQNBNA-UHFFFAOYSA-N-P439-P87-P439-601505

>  <HIPPO Compound ID>  (4138) 
314432

>  <ref_mols>  (4138) 
A4706a,A0875a

>  <distance_score>  (4138) 
1.589843

>  <inspiration_score>  (4138) 
None

$$$$
ZMLUHQOFAASPHV-UHFFFAOYSA-N-P439-P87-P439-601505
     RDKit          3D

 25 27  0  0  0  0  0  0  0  0999 V2000
   10.9588   14.8948   18.7381 C   0  0  0  0  0  0  0  0  0  0  0  0
   10.1771   15.4810   19.7611 O   0  0  0  0  0  0  0  0  0  0  0  0
    9.8141   14.6218   20.8621 C   0  0  1  0  0  0  0  0  0  0  0  0
   11.0224   13.9539   21.5216 C   0  0  0  0  0  0  0  0  0  0  0  0
   11.6435   14.9175   22.4280 N   0  0  0  0  0  0  0  0  0  0  0  0
   10.6638   16.0171   22.4928 C   0  0  0  0  0  0  0  0  0  0  0  0
    9.2936   15.5561   21.9489 C   0  0  2  0  0  0  0  0  0  0  0  0
    8.4916   15.0568   23.0610 O   0  0  0  0  0  0  0  0  0  0  0  0
    7.4451   14.2037   22.9579 C   0  0  0  0  0  0  0  0  0  0  0  0
    7.1004   13.6308   21.9290 O   0  0  0  0  0  0  0  0  0  0  0  0
    6.6897   13.9856   24.3117 C   0  0  0  0  0  0  0  0  0  0  0  0
    6.7266   12.5143   24.8015 C   0  0  0  0  0  0  0  0  0  0  0  0
    7.6292   12.1571   25.9957 C   0  0  0  0  0  0  0  0  0  0  0  0
    8.5415   13.2718   26.3528 N   0  0  0  0  0  0  0  0  0  0  0  0
    9.7985   13.5256   25.2606 S   0  0  0  0  0  0  0  0  0  0  0  0
    9.4437   12.7595   24.0909 O   0  0  0  0  0  0  0  0  0  0  0  0
   10.0889   14.9372   25.2521 O   0  0  0  0  0  0  0  0  0  0  0  0
   11.1649   12.7595   25.9061 N   0  0  0  0  0  0  0  0  0  0  0  0
   11.7972   13.4917   27.0297 C   0  0  0  0  0  0  0  0  0  0  0  0
   13.0935   12.7935   27.4904 C   0  0  0  0  0  0  0  0  0  0  0  0
   14.0196   12.2809   26.3948 C   0  0  0  0  0  0  0  0  0  0  0  0
   13.2296   11.6430   25.2794 C   0  0  0  0  0  0  0  0  0  0  0  0
   12.1724   12.6213   24.8123 C   0  0  0  0  0  0  0  0  0  0  0  0
    7.7181   14.4715   26.6568 C   0  0  0  0  0  0  0  0  0  0  0  0
    6.9736   15.0035   25.4295 C   0  0  0  0  0  0  0  0  0  0  0  0
  1  2  1  0
  3  2  1  6
  3  4  1  0
  4  5  1  0
  5  6  1  0
  6  7  1  0
  7  8  1  1
  8  9  1  0
  9 10  2  0
  9 11  1  0
 11 12  1  0
 12 13  1  0
 13 14  1  0
 14 15  1  0
 15 16  2  0
 15 17  2  0
 15 18  1  0
 18 19  1  0
 19 20  1  0
 20 21  1  0
 21 22  1  0
 22 23  1  0
 14 24  1  0
 24 25  1  0
  7  3  1  0
 25 11  1  0
 23 18  1  0
M  END
>  <energy_score>  (4139) 
-27.810234

>  <inchikey>  (4139) 
ZMLUHQOFAASPHV-UHFFFAOYSA-N

>  <smiles>  (4139) 
COC1CNCC1OC(=O)C1CCN(S(=O)(=O)N2CCCCC2)CC1

>  <ref_pdb>  (4139) 
A0875a

>  <alias>  (4139) 
ZMLUHQOFAASPHV-UHFFFAOYSA-N-P439-P87-P439-601505

>  <HIPPO Pose ID>  (4139) 
507797

>  <name>  (4139) 
ZMLUHQOFAASPHV-UHFFFAOYSA-N-P439-P87-P439-601505

>  <HIPPO Compound ID>  (4139) 
314434

>  <ref_mols>  (4139) 
A4706a,A0875a

>  <distance_score>  (4139) 
1.459445

>  <inspiration_score>  (4139) 
None

$$$$
PWPWQNLRJLLXME-UHFFFAOYSA-N-P439-P87-P439-601505
     RDKit          3D

 25 28  0  0  0  0  0  0  0  0999 V2000
    6.6272   13.0855   22.1649 O   0  0  0  0  0  0  0  0  0  0  0  0
    7.1454   13.8216   23.0021 C   0  0  0  0  0  0  0  0  0  0  0  0
    8.2767   14.5443   22.7785 O   0  0  0  0  0  0  0  0  0  0  0  0
    8.9364   14.3790   21.4856 C   0  0  1  0  0  0  0  0  0  0  0  0
    8.8976   15.7022   20.7233 C   0  0  0  0  0  0  0  0  0  0  0  0
    9.9881   16.5993   20.8732 O   0  0  0  0  0  0  0  0  0  0  0  0
   10.8269   16.3001   21.9737 C   0  0  0  0  0  0  0  0  0  0  0  0
   11.3935   14.9491   21.8760 C   0  0  2  0  0  0  0  0  0  0  0  0
   11.4181   14.2295   20.5726 C   0  0  0  0  0  0  0  0  0  0  0  0
   10.3632   13.9049   21.6332 C   0  0  2  0  0  0  0  0  0  0  0  0
    6.5462   13.9316   24.4204 C   0  0  0  0  0  0  0  0  0  0  0  0
    6.5307   12.5534   25.1289 C   0  0  0  0  0  0  0  0  0  0  0  0
    7.5880   12.2825   26.2093 C   0  0  0  0  0  0  0  0  0  0  0  0
    8.5636   13.3981   26.3390 N   0  0  0  0  0  0  0  0  0  0  0  0
    9.7485   13.4334   25.1494 S   0  0  0  0  0  0  0  0  0  0  0  0
    9.3308   12.4791   24.1503 O   0  0  0  0  0  0  0  0  0  0  0  0
   10.0866   14.8048   24.8509 O   0  0  0  0  0  0  0  0  0  0  0  0
   11.1387   12.7660   25.8397 N   0  0  0  0  0  0  0  0  0  0  0  0
   12.1579   12.6174   24.7638 C   0  0  0  0  0  0  0  0  0  0  0  0
   13.2095   11.6496   25.2622 C   0  0  0  0  0  0  0  0  0  0  0  0
   13.9816   12.3139   26.3754 C   0  0  0  0  0  0  0  0  0  0  0  0
   13.0384   12.8564   27.4429 C   0  0  0  0  0  0  0  0  0  0  0  0
   11.7393   13.5349   26.9519 C   0  0  0  0  0  0  0  0  0  0  0  0
    7.8227   14.6646   26.5474 C   0  0  0  0  0  0  0  0  0  0  0  0
    7.0444   15.0822   25.3011 C   0  0  0  0  0  0  0  0  0  0  0  0
  1  2  2  0
  2  3  1  0
  4  3  1  1
  4  5  1  0
  5  6  1  0
  6  7  1  0
  8  7  1  6
  8  9  1  0
 10  9  1  6
  2 11  1  0
 11 12  1  0
 12 13  1  0
 13 14  1  0
 14 15  1  0
 15 16  2  0
 15 17  2  0
 15 18  1  0
 18 19  1  0
 19 20  1  0
 20 21  1  0
 21 22  1  0
 22 23  1  0
 14 24  1  0
 24 25  1  0
 10  4  1  0
 25 11  1  0
 10  8  1  0
 23 18  1  0
M  END
>  <energy_score>  (4140) 
-61.270128

>  <inchikey>  (4140) 
PWPWQNLRJLLXME-UHFFFAOYSA-N

>  <smiles>  (4140) 
O=C(OC1COCC2CC21)C1CCN(S(=O)(=O)N2CCCCC2)CC1

>  <ref_pdb>  (4140) 
A0875a

>  <alias>  (4140) 
PWPWQNLRJLLXME-UHFFFAOYSA-N-P439-P87-P439-601505

>  <HIPPO Pose ID>  (4140) 
507799

>  <name>  (4140) 
PWPWQNLRJLLXME-UHFFFAOYSA-N-P439-P87-P439-601505

>  <HIPPO Compound ID>  (4140) 
314435

>  <ref_mols>  (4140) 
A4706a,A0875a

>  <distance_score>  (4140) 
1.783371

>  <inspiration_score>  (4140) 
None

$$$$
HDGJOXZGCFOSOR-UHFFFAOYSA-N-P87-P87-P439-601505
     RDKit          3D

 25 27  0  0  0  0  0  0  0  0999 V2000
   12.5082   13.7324   19.1377 N   0  0  0  0  0  0  0  0  0  0  0  0
   11.9890   14.1630   20.0855 C   0  0  0  0  0  0  0  0  0  0  0  0
   11.3822   14.7485   21.2701 C   0  0  1  0  0  0  0  0  0  0  0  0
   11.7850   16.1941   21.3584 C   0  0  0  0  0  0  0  0  0  0  0  0
   10.6431   16.9502   21.7609 O   0  0  0  0  0  0  0  0  0  0  0  0
    9.5667   16.0569   22.0347 C   0  0  0  0  0  0  0  0  0  0  0  0
    9.8657   14.7825   21.2740 C   0  0  2  0  0  0  0  0  0  0  0  0
    9.3796   13.6251   21.9570 O   0  0  0  0  0  0  0  0  0  0  0  0
    8.0869   13.5728   22.3349 C   0  0  0  0  0  0  0  0  0  0  0  0
    7.1741   14.2155   21.8502 O   0  0  0  0  0  0  0  0  0  0  0  0
    7.9171   12.6167   23.5064 C   0  0  0  0  0  0  0  0  0  0  0  0
    9.0063   11.5075   23.5676 C   0  0  0  0  0  0  0  0  0  0  0  0
    9.2265   10.9759   24.9412 C   0  0  0  0  0  0  0  0  0  0  0  0
    9.2482   12.1178   25.8307 N   0  0  0  0  0  0  0  0  0  0  0  0
   10.4494   13.3199   25.6185 S   0  0  0  0  0  0  0  0  0  0  0  0
   10.2739   14.2705   26.6909 O   0  0  0  0  0  0  0  0  0  0  0  0
   10.5323   13.7714   24.2651 O   0  0  0  0  0  0  0  0  0  0  0  0
   11.8245   12.4004   25.9583 N   0  0  0  0  0  0  0  0  0  0  0  0
   12.4363   11.6914   24.8211 C   0  0  0  0  0  0  0  0  0  0  0  0
   13.9075   11.9997   24.6418 C   0  0  0  0  0  0  0  0  0  0  0  0
   14.7479   11.8539   25.8780 C   0  0  0  0  0  0  0  0  0  0  0  0
   14.0690   12.4595   27.0807 C   0  0  0  0  0  0  0  0  0  0  0  0
   12.7608   13.1670   26.7687 C   0  0  0  0  0  0  0  0  0  0  0  0
    7.8790   12.6451   25.9562 C   0  0  0  0  0  0  0  0  0  0  0  0
    7.6365   13.4391   24.7134 C   0  0  0  0  0  0  0  0  0  0  0  0
  1  2  3  0
  3  2  1  6
  3  4  1  0
  4  5  1  0
  5  6  1  0
  6  7  1  0
  7  8  1  1
  8  9  1  0
  9 10  2  0
  9 11  1  0
 11 12  1  0
 12 13  1  0
 13 14  1  0
 14 15  1  0
 15 16  2  0
 15 17  2  0
 15 18  1  0
 18 19  1  0
 19 20  1  0
 20 21  1  0
 21 22  1  0
 22 23  1  0
 14 24  1  0
 24 25  1  0
  7  3  1  0
 25 11  1  0
 23 18  1  0
M  END
>  <energy_score>  (4141) 
-26.2842

>  <inchikey>  (4141) 
HDGJOXZGCFOSOR-UHFFFAOYSA-N

>  <smiles>  (4141) 
N#CC1COCC1OC(=O)C1CCN(S(=O)(=O)N2CCCCC2)CC1

>  <ref_pdb>  (4141) 
A0875a

>  <alias>  (4141) 
HDGJOXZGCFOSOR-UHFFFAOYSA-N-P87-P87-P439-601505

>  <HIPPO Pose ID>  (4141) 
507800

>  <name>  (4141) 
HDGJOXZGCFOSOR-UHFFFAOYSA-N-P87-P87-P439-601505

>  <HIPPO Compound ID>  (4141) 
314436

>  <ref_mols>  (4141) 
A4706a,A0875a

>  <distance_score>  (4141) 
1.921227

>  <inspiration_score>  (4141) 
None

$$$$
HDGJOXZGCFOSOR-UHFFFAOYSA-N-P439-P87-P439-601505
     RDKit          3D

 25 27  0  0  0  0  0  0  0  0999 V2000
   10.3991   15.5301   18.8583 N   0  0  0  0  0  0  0  0  0  0  0  0
   10.0628   15.0609   19.8620 C   0  0  0  0  0  0  0  0  0  0  0  0
    9.6615   14.4270   21.1278 C   0  0  1  0  0  0  0  0  0  0  0  0
   10.8984   13.7999   21.7553 C   0  0  0  0  0  0  0  0  0  0  0  0
   11.3293   14.6171   22.8418 O   0  0  0  0  0  0  0  0  0  0  0  0
   10.5430   15.8086   22.7669 C   0  0  0  0  0  0  0  0  0  0  0  0
    9.1915   15.4608   22.1317 C   0  0  2  0  0  0  0  0  0  0  0  0
    8.2731   15.0669   23.2123 O   0  0  0  0  0  0  0  0  0  0  0  0
    7.2676   14.1588   23.1259 C   0  0  0  0  0  0  0  0  0  0  0  0
    7.0009   13.5018   22.1237 O   0  0  0  0  0  0  0  0  0  0  0  0
    6.4657   13.9912   24.4528 C   0  0  0  0  0  0  0  0  0  0  0  0
    6.3734   12.5193   24.9256 C   0  0  0  0  0  0  0  0  0  0  0  0
    7.4142   11.9907   25.9281 C   0  0  0  0  0  0  0  0  0  0  0  0
    8.2831   13.0740   26.4428 N   0  0  0  0  0  0  0  0  0  0  0  0
    9.5897   13.4600   25.4533 S   0  0  0  0  0  0  0  0  0  0  0  0
    9.8052   14.8729   25.6174 O   0  0  0  0  0  0  0  0  0  0  0  0
    9.2913   12.8325   24.1885 O   0  0  0  0  0  0  0  0  0  0  0  0
   10.9377   12.6410   26.1087 N   0  0  0  0  0  0  0  0  0  0  0  0
   11.5739   11.8286   25.0529 C   0  0  0  0  0  0  0  0  0  0  0  0
   12.8944   11.1554   25.4204 C   0  0  0  0  0  0  0  0  0  0  0  0
   13.5604   11.6651   26.6695 C   0  0  0  0  0  0  0  0  0  0  0  0
   13.3485   13.1275   26.6813 C   0  0  0  0  0  0  0  0  0  0  0  0
   11.8828   13.5354   26.8303 C   0  0  0  0  0  0  0  0  0  0  0  0
    7.4337   14.2357   26.8369 C   0  0  0  0  0  0  0  0  0  0  0  0
    6.8041   14.9298   25.6219 C   0  0  0  0  0  0  0  0  0  0  0  0
  1  2  3  0
  3  2  1  6
  3  4  1  0
  4  5  1  0
  5  6  1  0
  6  7  1  0
  7  8  1  1
  8  9  1  0
  9 10  2  0
  9 11  1  0
 11 12  1  0
 12 13  1  0
 13 14  1  0
 14 15  1  0
 15 16  2  0
 15 17  2  0
 15 18  1  0
 18 19  1  0
 19 20  1  0
 20 21  1  0
 21 22  1  0
 22 23  1  0
 14 24  1  0
 24 25  1  0
  7  3  1  0
 25 11  1  0
 23 18  1  0
M  END
>  <energy_score>  (4142) 
-27.413396

>  <inchikey>  (4142) 
HDGJOXZGCFOSOR-UHFFFAOYSA-N

>  <smiles>  (4142) 
N#CC1COCC1OC(=O)C1CCN(S(=O)(=O)N2CCCCC2)CC1

>  <ref_pdb>  (4142) 
A0875a

>  <alias>  (4142) 
HDGJOXZGCFOSOR-UHFFFAOYSA-N-P439-P87-P439-601505

>  <HIPPO Pose ID>  (4142) 
507801

>  <name>  (4142) 
HDGJOXZGCFOSOR-UHFFFAOYSA-N-P439-P87-P439-601505

>  <HIPPO Compound ID>  (4142) 
314436

>  <ref_mols>  (4142) 
A4706a,A0875a

>  <distance_score>  (4142) 
1.429988

>  <inspiration_score>  (4142) 
None

$$$$
WSMFQGBGOYYLQS-UHFFFAOYSA-N-P439-P87-P439-601505
     RDKit          3D

 25 27  0  0  0  0  0  0  0  0999 V2000
   11.0638   14.9539   18.6874 C   0  0  0  0  0  0  0  0  0  0  0  0
    9.8029   15.1728   19.2949 O   0  0  0  0  0  0  0  0  0  0  0  0
    9.6801   14.7218   20.6615 C   0  0  1  0  0  0  0  0  0  0  0  0
   10.0580   15.7928   21.6845 C   0  0  2  0  0  0  0  0  0  0  0  0
   11.2132   15.2585   22.9271 Cl  0  0  0  0  0  0  0  0  0  0  0  0
    8.5581   15.9832   21.9706 C   0  0  0  0  0  0  0  0  0  0  0  0
    8.2456   14.6735   21.2486 C   0  0  2  0  0  0  0  0  0  0  0  0
    7.8686   13.5766   22.1166 O   0  0  0  0  0  0  0  0  0  0  0  0
    6.6319   13.7481   22.7020 C   0  0  0  0  0  0  0  0  0  0  0  0
    5.5975   13.9467   22.0930 O   0  0  0  0  0  0  0  0  0  0  0  0
    6.8025   13.6515   24.1905 C   0  0  0  0  0  0  0  0  0  0  0  0
    6.5644   12.3205   24.8835 C   0  0  0  0  0  0  0  0  0  0  0  0
    7.2300   12.3248   26.2703 C   0  0  0  0  0  0  0  0  0  0  0  0
    7.6641   13.6839   26.6551 N   0  0  0  0  0  0  0  0  0  0  0  0
    9.1913   14.3469   26.3741 S   0  0  0  0  0  0  0  0  0  0  0  0
    9.1438   15.2166   25.2241 O   0  0  0  0  0  0  0  0  0  0  0  0
    9.6145   14.8905   27.6404 O   0  0  0  0  0  0  0  0  0  0  0  0
   10.2688   13.1229   25.9993 N   0  0  0  0  0  0  0  0  0  0  0  0
   11.6794   13.6440   26.0884 C   0  0  0  0  0  0  0  0  0  0  0  0
   12.6580   12.8141   25.2578 C   0  0  0  0  0  0  0  0  0  0  0  0
   12.3162   11.3566   25.4652 C   0  0  0  0  0  0  0  0  0  0  0  0
   10.8502   11.0384   25.0530 C   0  0  0  0  0  0  0  0  0  0  0  0
   10.0899   12.3200   24.7792 C   0  0  0  0  0  0  0  0  0  0  0  0
    6.5480   14.6647   26.4873 C   0  0  0  0  0  0  0  0  0  0  0  0
    6.1736   14.7855   24.9993 C   0  0  0  0  0  0  0  0  0  0  0  0
  1  2  1  0
  3  2  1  6
  3  4  1  0
  4  5  1  1
  4  6  1  0
  6  7  1  0
  7  8  1  1
  8  9  1  0
  9 10  2  0
  9 11  1  0
 11 12  1  0
 12 13  1  0
 13 14  1  0
 14 15  1  0
 15 16  2  0
 15 17  2  0
 15 18  1  0
 18 19  1  0
 19 20  1  0
 20 21  1  0
 21 22  1  0
 22 23  1  0
 14 24  1  0
 24 25  1  0
  7  3  1  0
 25 11  1  0
 23 18  1  0
M  END
>  <energy_score>  (4143) 
-13.510341

>  <inchikey>  (4143) 
WSMFQGBGOYYLQS-UHFFFAOYSA-N

>  <smiles>  (4143) 
COC1C(Cl)CC1OC(=O)C1CCN(S(=O)(=O)N2CCCCC2)CC1

>  <ref_pdb>  (4143) 
A0875a

>  <alias>  (4143) 
WSMFQGBGOYYLQS-UHFFFAOYSA-N-P439-P87-P439-601505

>  <HIPPO Pose ID>  (4143) 
507803

>  <name>  (4143) 
WSMFQGBGOYYLQS-UHFFFAOYSA-N-P439-P87-P439-601505

>  <HIPPO Compound ID>  (4143) 
314437

>  <ref_mols>  (4143) 
A4706a,A0875a

>  <distance_score>  (4143) 
1.449122

>  <inspiration_score>  (4143) 
None

$$$$
QKENHPRIUQEIJI-UHFFFAOYSA-N-P439-P87-P439-601505
     RDKit          3D

 25 27  0  0  0  0  0  0  0  0999 V2000
   11.0771   14.3472   18.5538 N   0  0  0  0  0  0  0  0  0  0  0  0
   10.1762   15.1326   19.3889 C   0  0  0  0  0  0  0  0  0  0  0  0
    9.8549   14.4866   20.7621 C   0  0  1  0  0  0  0  0  0  0  0  0
   11.0750   14.0642   21.4097 O   0  0  0  0  0  0  0  0  0  0  0  0
   11.6199   15.1828   22.0710 C   0  0  0  0  0  0  0  0  0  0  0  0
   10.4773   16.1399   22.2585 C   0  0  0  0  0  0  0  0  0  0  0  0
    9.2189   15.5141   21.6926 C   0  0  2  0  0  0  0  0  0  0  0  0
    8.4017   15.0209   22.7979 O   0  0  0  0  0  0  0  0  0  0  0  0
    7.2354   14.3928   22.5022 C   0  0  0  0  0  0  0  0  0  0  0  0
    6.9521   13.9831   21.3818 O   0  0  0  0  0  0  0  0  0  0  0  0
    6.2714   14.1709   23.6809 C   0  0  0  0  0  0  0  0  0  0  0  0
    6.5273   12.8466   24.4465 C   0  0  0  0  0  0  0  0  0  0  0  0
    7.2487   13.0360   25.7789 C   0  0  0  0  0  0  0  0  0  0  0  0
    8.0388   14.2455   25.5914 N   0  0  0  0  0  0  0  0  0  0  0  0
    9.5993   14.3606   26.0925 S   0  0  0  0  0  0  0  0  0  0  0  0
   10.2598   15.4268   25.3887 O   0  0  0  0  0  0  0  0  0  0  0  0
    9.6022   14.3119   27.5315 O   0  0  0  0  0  0  0  0  0  0  0  0
   10.2751   12.9523   25.5471 N   0  0  0  0  0  0  0  0  0  0  0  0
   11.6600   12.7855   26.0128 C   0  0  0  0  0  0  0  0  0  0  0  0
   12.2106   11.4989   25.4341 C   0  0  0  0  0  0  0  0  0  0  0  0
   11.0698   10.4941   25.0751 C   0  0  0  0  0  0  0  0  0  0  0  0
   10.0480   11.0797   24.0926 C   0  0  0  0  0  0  0  0  0  0  0  0
   10.1423   12.5932   24.1199 C   0  0  0  0  0  0  0  0  0  0  0  0
    7.2081   15.4472   25.6968 C   0  0  0  0  0  0  0  0  0  0  0  0
    6.1405   15.3850   24.6091 C   0  0  0  0  0  0  0  0  0  0  0  0
  1  2  1  0
  3  2  1  6
  3  4  1  0
  4  5  1  0
  5  6  1  0
  6  7  1  0
  7  8  1  1
  8  9  1  0
  9 10  2  0
  9 11  1  0
 11 12  1  0
 12 13  1  0
 13 14  1  0
 14 15  1  0
 15 16  2  0
 15 17  2  0
 15 18  1  0
 18 19  1  0
 19 20  1  0
 20 21  1  0
 21 22  1  0
 22 23  1  0
 14 24  1  0
 24 25  1  0
  7  3  1  0
 25 11  1  0
 23 18  1  0
M  END
>  <energy_score>  (4144) 
-48.860975

>  <inchikey>  (4144) 
QKENHPRIUQEIJI-UHFFFAOYSA-N

>  <smiles>  (4144) 
NCC1OCCC1OC(=O)C1CCN(S(=O)(=O)N2CCCCC2)CC1

>  <ref_pdb>  (4144) 
A0875a

>  <alias>  (4144) 
QKENHPRIUQEIJI-UHFFFAOYSA-N-P439-P87-P439-601505

>  <HIPPO Pose ID>  (4144) 
507811

>  <name>  (4144) 
QKENHPRIUQEIJI-UHFFFAOYSA-N-P439-P87-P439-601505

>  <HIPPO Compound ID>  (4144) 
314441

>  <ref_mols>  (4144) 
A4706a,A0875a

>  <distance_score>  (4144) 
1.786302

>  <inspiration_score>  (4144) 
None

$$$$
NMTWUOQNIJMWRS-UHFFFAOYSA-N-P439-P87-P439-601505
     RDKit          3D

 25 27  0  0  0  0  0  0  0  0999 V2000
   11.6497   14.1891   20.1103 C   0  0  0  0  0  0  0  0  0  0  0  0
   10.4186   14.7096   20.1170 C   0  0  0  0  0  0  0  0  0  0  0  0
   10.0329   15.8498   19.2294 C   0  0  0  0  0  0  0  0  0  0  0  0
    9.5398   16.9839   20.1615 C   0  0  0  0  0  0  0  0  0  0  0  0
   10.2357   16.9107   21.4069 O   0  0  0  0  0  0  0  0  0  0  0  0
    9.8203   15.7540   22.1511 C   0  0  0  0  0  0  0  0  0  0  0  0
    9.4020   14.6056   21.2218 C   0  0  2  0  0  0  0  0  0  0  0  0
    9.3346   13.4062   21.9503 O   0  0  0  0  0  0  0  0  0  0  0  0
    8.1116   13.2886   22.5583 C   0  0  0  0  0  0  0  0  0  0  0  0
    7.0196   13.3268   22.0138 O   0  0  0  0  0  0  0  0  0  0  0  0
    8.3295   13.0715   24.0006 C   0  0  0  0  0  0  0  0  0  0  0  0
    8.1995   11.6460   24.4713 C   0  0  0  0  0  0  0  0  0  0  0  0
    8.9539   11.5488   25.7895 C   0  0  0  0  0  0  0  0  0  0  0  0
    9.0700   12.8644   26.4643 N   0  0  0  0  0  0  0  0  0  0  0  0
   10.4593   13.8384   26.4750 S   0  0  0  0  0  0  0  0  0  0  0  0
   10.5086   14.6577   25.2860 O   0  0  0  0  0  0  0  0  0  0  0  0
   10.4276   14.4536   27.7757 O   0  0  0  0  0  0  0  0  0  0  0  0
   11.7677   12.7407   26.4156 N   0  0  0  0  0  0  0  0  0  0  0  0
   12.8804   13.0053   27.3856 C   0  0  0  0  0  0  0  0  0  0  0  0
   14.2888   12.7576   26.8415 C   0  0  0  0  0  0  0  0  0  0  0  0
   14.4154   11.4566   26.1206 C   0  0  0  0  0  0  0  0  0  0  0  0
   13.2721   11.2978   25.1535 C   0  0  0  0  0  0  0  0  0  0  0  0
   12.2683   12.4514   25.0640 C   0  0  0  0  0  0  0  0  0  0  0  0
    7.7964   13.6497   26.3737 C   0  0  0  0  0  0  0  0  0  0  0  0
    7.5399   14.0164   24.9094 C   0  0  0  0  0  0  0  0  0  0  0  0
  1  2  2  0
  2  3  1  0
  3  4  1  0
  4  5  1  0
  5  6  1  0
  6  7  1  0
  7  8  1  1
  8  9  1  0
  9 10  2  0
  9 11  1  0
 11 12  1  0
 12 13  1  0
 13 14  1  0
 14 15  1  0
 15 16  2  0
 15 17  2  0
 15 18  1  0
 18 19  1  0
 19 20  1  0
 20 21  1  0
 21 22  1  0
 22 23  1  0
 14 24  1  0
 24 25  1  0
  7  2  1  0
 25 11  1  0
 23 18  1  0
M  END
>  <energy_score>  (4145) 
-6.892187

>  <inchikey>  (4145) 
NMTWUOQNIJMWRS-UHFFFAOYSA-N

>  <smiles>  (4145) 
C=C1CCOCC1OC(=O)C1CCN(S(=O)(=O)N2CCCCC2)CC1

>  <ref_pdb>  (4145) 
A0875a

>  <alias>  (4145) 
NMTWUOQNIJMWRS-UHFFFAOYSA-N-P439-P87-P439-601505

>  <HIPPO Pose ID>  (4145) 
507813

>  <name>  (4145) 
NMTWUOQNIJMWRS-UHFFFAOYSA-N-P439-P87-P439-601505

>  <HIPPO Compound ID>  (4145) 
314442

>  <ref_mols>  (4145) 
A4706a,A0875a

>  <distance_score>  (4145) 
1.784171

>  <inspiration_score>  (4145) 
None

$$$$
JALDLCQTVAUAAP-UHFFFAOYSA-N-P439-P87-P439-601505
     RDKit          3D

 25 27  0  0  0  0  0  0  0  0999 V2000
    6.7342   13.1070   22.4763 O   0  0  0  0  0  0  0  0  0  0  0  0
    6.9070   13.9667   23.3399 C   0  0  0  0  0  0  0  0  0  0  0  0
    7.5277   15.1616   23.1392 O   0  0  0  0  0  0  0  0  0  0  0  0
    7.8553   15.4978   21.7800 C   0  0  0  0  0  0  0  0  0  0  0  0
    9.3413   15.7830   21.4467 C   0  0  2  0  0  0  0  0  0  0  0  0
    9.7045   15.1109   20.1135 C   0  0  0  0  0  0  0  0  0  0  0  0
   11.0319   15.3960   19.7108 O   0  0  0  0  0  0  0  0  0  0  0  0
   11.9552   15.1500   20.7641 C   0  0  0  0  0  0  0  0  0  0  0  0
   11.3419   14.6375   22.0558 C   0  0  0  0  0  0  0  0  0  0  0  0
   10.2450   15.4282   22.5007 O   0  0  0  0  0  0  0  0  0  0  0  0
    6.3246   13.8203   24.7526 C   0  0  0  0  0  0  0  0  0  0  0  0
    6.4584   12.3770   25.2761 C   0  0  0  0  0  0  0  0  0  0  0  0
    7.8201   11.9991   25.8636 C   0  0  0  0  0  0  0  0  0  0  0  0
    8.5483   13.1840   26.3848 N   0  0  0  0  0  0  0  0  0  0  0  0
    9.7687   13.7808   25.3747 S   0  0  0  0  0  0  0  0  0  0  0  0
   10.0190   15.1533   25.7292 O   0  0  0  0  0  0  0  0  0  0  0  0
    9.4557   13.3406   24.0411 O   0  0  0  0  0  0  0  0  0  0  0  0
   11.1184   12.8637   25.9060 N   0  0  0  0  0  0  0  0  0  0  0  0
   11.8139   13.5122   27.0520 C   0  0  0  0  0  0  0  0  0  0  0  0
   13.0916   12.7638   27.4650 C   0  0  0  0  0  0  0  0  0  0  0  0
   13.9675   12.2625   26.3315 C   0  0  0  0  0  0  0  0  0  0  0  0
   13.1183   11.6485   25.2477 C   0  0  0  0  0  0  0  0  0  0  0  0
   12.0707   12.6490   24.7947 C   0  0  0  0  0  0  0  0  0  0  0  0
    7.6191   14.2085   26.9211 C   0  0  0  0  0  0  0  0  0  0  0  0
    6.7926   14.8377   25.8047 C   0  0  0  0  0  0  0  0  0  0  0  0
  1  2  2  0
  2  3  1  0
  3  4  1  0
  5  4  1  1
  5  6  1  0
  6  7  1  0
  7  8  1  0
  8  9  1  0
  9 10  1  0
  2 11  1  0
 11 12  1  0
 12 13  1  0
 13 14  1  0
 14 15  1  0
 15 16  2  0
 15 17  2  0
 15 18  1  0
 18 19  1  0
 19 20  1  0
 20 21  1  0
 21 22  1  0
 22 23  1  0
 14 24  1  0
 24 25  1  0
 10  5  1  0
 25 11  1  0
 23 18  1  0
M  END
>  <energy_score>  (4146) 
-55.935802

>  <inchikey>  (4146) 
JALDLCQTVAUAAP-UHFFFAOYSA-N

>  <smiles>  (4146) 
O=C(OCC1COCCO1)C1CCN(S(=O)(=O)N2CCCCC2)CC1

>  <ref_pdb>  (4146) 
A0875a

>  <alias>  (4146) 
JALDLCQTVAUAAP-UHFFFAOYSA-N-P439-P87-P439-601505

>  <HIPPO Pose ID>  (4146) 
507815

>  <name>  (4146) 
JALDLCQTVAUAAP-UHFFFAOYSA-N-P439-P87-P439-601505

>  <HIPPO Compound ID>  (4146) 
314443

>  <ref_mols>  (4146) 
A4706a,A0875a

>  <distance_score>  (4146) 
1.594159

>  <inspiration_score>  (4146) 
None

$$$$
XRGSAEFDILRMMJ-UHFFFAOYSA-N-P87-P87-P439-601505
     RDKit          3D

 25 27  0  0  0  0  0  0  0  0999 V2000
    5.6243   15.1962   23.8623 O   0  0  0  0  0  0  0  0  0  0  0  0
    6.3981   14.2577   23.7750 C   0  0  0  0  0  0  0  0  0  0  0  0
    7.4101   14.0981   22.8884 O   0  0  0  0  0  0  0  0  0  0  0  0
    7.7660   15.1825   22.0272 C   0  0  0  0  0  0  0  0  0  0  0  0
    8.9487   16.0494   22.4854 C   0  0  0  0  0  0  0  0  0  0  0  0
   10.1430   15.9572   21.7103 O   0  0  0  0  0  0  0  0  0  0  0  0
   10.5596   14.6389   21.3998 C   0  0  0  0  0  0  0  0  0  0  0  0
   11.9574   14.6373   20.9031 C   0  0  1  0  0  0  0  0  0  0  0  0
   12.7702   15.8795   20.7020 C   0  0  0  0  0  0  0  0  0  0  0  0
   12.9270   15.0549   21.8714 O   0  0  0  0  0  0  0  0  0  0  0  0
    6.3020   13.0894   24.7306 C   0  0  0  0  0  0  0  0  0  0  0  0
    7.3176   11.9896   24.4365 C   0  0  0  0  0  0  0  0  0  0  0  0
    8.0204   11.3910   25.5779 C   0  0  0  0  0  0  0  0  0  0  0  0
    8.4214   12.5172   26.3480 N   0  0  0  0  0  0  0  0  0  0  0  0
    9.6915   13.5143   25.7377 S   0  0  0  0  0  0  0  0  0  0  0  0
    9.3965   13.9830   24.4240 O   0  0  0  0  0  0  0  0  0  0  0  0
   10.1005   14.3882   26.8183 O   0  0  0  0  0  0  0  0  0  0  0  0
   10.9531   12.4048   25.5565 N   0  0  0  0  0  0  0  0  0  0  0  0
   12.2920   13.0306   25.7410 C   0  0  0  0  0  0  0  0  0  0  0  0
   13.3763   11.9865   25.9576 C   0  0  0  0  0  0  0  0  0  0  0  0
   13.2573   10.8678   24.9444 C   0  0  0  0  0  0  0  0  0  0  0  0
   11.7865   10.3919   24.6408 C   0  0  0  0  0  0  0  0  0  0  0  0
   10.9727   11.6230   24.3006 C   0  0  0  0  0  0  0  0  0  0  0  0
    7.2138   12.9667   27.1077 C   0  0  0  0  0  0  0  0  0  0  0  0
    6.0571   13.3627   26.2093 C   0  0  0  0  0  0  0  0  0  0  0  0
  1  2  2  0
  2  3  1  0
  3  4  1  0
  4  5  1  0
  5  6  1  0
  6  7  1  0
  8  7  1  1
  8  9  1  0
  9 10  1  0
  2 11  1  0
 11 12  1  0
 12 13  1  0
 13 14  1  0
 14 15  1  0
 15 16  2  0
 15 17  2  0
 15 18  1  0
 18 19  1  0
 19 20  1  0
 20 21  1  0
 21 22  1  0
 22 23  1  0
 14 24  1  0
 24 25  1  0
 10  8  1  0
 25 11  1  0
 23 18  1  0
M  END
>  <energy_score>  (4147) 
-15.83251

>  <inchikey>  (4147) 
XRGSAEFDILRMMJ-UHFFFAOYSA-N

>  <smiles>  (4147) 
O=C(OCCOCC1CO1)C1CCN(S(=O)(=O)N2CCCCC2)CC1

>  <ref_pdb>  (4147) 
A0875a

>  <alias>  (4147) 
XRGSAEFDILRMMJ-UHFFFAOYSA-N-P87-P87-P439-601505

>  <HIPPO Pose ID>  (4147) 
507816

>  <name>  (4147) 
XRGSAEFDILRMMJ-UHFFFAOYSA-N-P87-P87-P439-601505

>  <HIPPO Compound ID>  (4147) 
314444

>  <ref_mols>  (4147) 
A4706a,A0875a

>  <distance_score>  (4147) 
1.837221

>  <inspiration_score>  (4147) 
None

$$$$
XRGSAEFDILRMMJ-UHFFFAOYSA-N-P439-P87-P439-601505
     RDKit          3D

 25 27  0  0  0  0  0  0  0  0999 V2000
    6.6923   14.8140   22.1183 O   0  0  0  0  0  0  0  0  0  0  0  0
    6.9977   14.1049   23.0673 C   0  0  0  0  0  0  0  0  0  0  0  0
    8.1499   13.3943   23.1467 O   0  0  0  0  0  0  0  0  0  0  0  0
    9.1726   13.6934   22.1803 C   0  0  0  0  0  0  0  0  0  0  0  0
   10.0105   14.9240   22.5353 C   0  0  0  0  0  0  0  0  0  0  0  0
   10.7187   15.4020   21.4078 O   0  0  0  0  0  0  0  0  0  0  0  0
    9.8212   16.0427   20.5040 C   0  0  0  0  0  0  0  0  0  0  0  0
    9.9895   15.4756   19.1446 C   0  0  2  0  0  0  0  0  0  0  0  0
   11.2396   14.7703   18.6981 C   0  0  0  0  0  0  0  0  0  0  0  0
   10.9846   16.1277   18.3620 O   0  0  0  0  0  0  0  0  0  0  0  0
    6.1102   13.9285   24.3025 C   0  0  0  0  0  0  0  0  0  0  0  0
    6.3098   12.5850   25.0281 C   0  0  0  0  0  0  0  0  0  0  0  0
    6.8775   12.6229   26.4366 C   0  0  0  0  0  0  0  0  0  0  0  0
    7.5196   13.8869   26.7826 N   0  0  0  0  0  0  0  0  0  0  0  0
    9.1037   14.3331   26.4591 S   0  0  0  0  0  0  0  0  0  0  0  0
    9.1892   14.8095   25.1071 O   0  0  0  0  0  0  0  0  0  0  0  0
    9.4965   15.2131   27.5292 O   0  0  0  0  0  0  0  0  0  0  0  0
   10.0473   12.9438   26.5765 N   0  0  0  0  0  0  0  0  0  0  0  0
   11.4884   13.2201   26.8127 C   0  0  0  0  0  0  0  0  0  0  0  0
   12.2313   13.4584   25.5296 C   0  0  0  0  0  0  0  0  0  0  0  0
   12.0409   12.3524   24.5376 C   0  0  0  0  0  0  0  0  0  0  0  0
   10.9677   11.3378   24.9034 C   0  0  0  0  0  0  0  0  0  0  0  0
    9.7691   11.9018   25.5844 C   0  0  0  0  0  0  0  0  0  0  0  0
    6.5414   14.9877   26.6386 C   0  0  0  0  0  0  0  0  0  0  0  0
    6.1814   15.1964   25.1718 C   0  0  0  0  0  0  0  0  0  0  0  0
  1  2  2  0
  2  3  1  0
  3  4  1  0
  4  5  1  0
  5  6  1  0
  6  7  1  0
  8  7  1  1
  8  9  1  0
  9 10  1  0
  2 11  1  0
 11 12  1  0
 12 13  1  0
 13 14  1  0
 14 15  1  0
 15 16  2  0
 15 17  2  0
 15 18  1  0
 18 19  1  0
 19 20  1  0
 20 21  1  0
 21 22  1  0
 22 23  1  0
 14 24  1  0
 24 25  1  0
 10  8  1  0
 25 11  1  0
 23 18  1  0
M  END
>  <energy_score>  (4148) 
-45.184311

>  <inchikey>  (4148) 
XRGSAEFDILRMMJ-UHFFFAOYSA-N

>  <smiles>  (4148) 
O=C(OCCOCC1CO1)C1CCN(S(=O)(=O)N2CCCCC2)CC1

>  <ref_pdb>  (4148) 
A0875a

>  <alias>  (4148) 
XRGSAEFDILRMMJ-UHFFFAOYSA-N-P439-P87-P439-601505

>  <HIPPO Pose ID>  (4148) 
507817

>  <name>  (4148) 
XRGSAEFDILRMMJ-UHFFFAOYSA-N-P439-P87-P439-601505

>  <HIPPO Compound ID>  (4148) 
314444

>  <ref_mols>  (4148) 
A4706a,A0875a

>  <distance_score>  (4148) 
1.552851

>  <inspiration_score>  (4148) 
None

$$$$
JSXJOPLJXTXYGJ-UHFFFAOYSA-N-P439-P87-P439-601505
     RDKit          3D

 25 27  0  0  0  0  0  0  0  0999 V2000
   10.1048   15.2986   19.4246 N   0  0  0  0  0  0  0  0  0  0  0  0
    9.3181   14.9112   20.6303 C   0  0  1  0  0  0  0  0  0  0  0  0
   10.1547   14.0881   21.5713 C   0  0  0  0  0  0  0  0  0  0  0  0
    9.9535   12.9579   21.9598 O   0  0  0  0  0  0  0  0  0  0  0  0
   11.1221   14.8783   22.1001 O   0  0  0  0  0  0  0  0  0  0  0  0
   10.4554   16.1214   22.2711 C   0  0  0  0  0  0  0  0  0  0  0  0
    9.0497   16.0274   21.6258 C   0  0  2  0  0  0  0  0  0  0  0  0
    7.9961   15.8032   22.6640 O   0  0  0  0  0  0  0  0  0  0  0  0
    7.0550   14.8218   22.6972 C   0  0  0  0  0  0  0  0  0  0  0  0
    6.8768   14.0022   21.8022 O   0  0  0  0  0  0  0  0  0  0  0  0
    6.1387   14.8343   23.9633 C   0  0  0  0  0  0  0  0  0  0  0  0
    5.6971   13.4091   24.3982 C   0  0  0  0  0  0  0  0  0  0  0  0
    6.2955   12.8693   25.7067 C   0  0  0  0  0  0  0  0  0  0  0  0
    7.5977   13.5127   26.0128 N   0  0  0  0  0  0  0  0  0  0  0  0
    8.8145   13.1598   24.8997 S   0  0  0  0  0  0  0  0  0  0  0  0
    9.2689   14.4159   24.3601 O   0  0  0  0  0  0  0  0  0  0  0  0
    8.3393   12.0659   24.0908 O   0  0  0  0  0  0  0  0  0  0  0  0
   10.1280   12.5905   25.8003 N   0  0  0  0  0  0  0  0  0  0  0  0
   11.1512   12.1627   24.7958 C   0  0  0  0  0  0  0  0  0  0  0  0
   12.4365   11.6535   25.4259 C   0  0  0  0  0  0  0  0  0  0  0  0
   12.8996   12.4545   26.6257 C   0  0  0  0  0  0  0  0  0  0  0  0
   12.1228   13.7444   26.7109 C   0  0  0  0  0  0  0  0  0  0  0  0
   10.6335   13.5737   26.7762 C   0  0  0  0  0  0  0  0  0  0  0  0
    7.3756   14.9535   26.2820 C   0  0  0  0  0  0  0  0  0  0  0  0
    6.5625   15.6563   25.1860 C   0  0  0  0  0  0  0  0  0  0  0  0
  2  1  1  6
  2  3  1  0
  3  4  2  0
  3  5  1  0
  5  6  1  0
  6  7  1  0
  7  8  1  1
  8  9  1  0
  9 10  2  0
  9 11  1  0
 11 12  1  0
 12 13  1  0
 13 14  1  0
 14 15  1  0
 15 16  2  0
 15 17  2  0
 15 18  1  0
 18 19  1  0
 19 20  1  0
 20 21  1  0
 21 22  1  0
 22 23  1  0
 14 24  1  0
 24 25  1  0
  7  2  1  0
 25 11  1  0
 23 18  1  0
M  END
>  <energy_score>  (4149) 
-25.769807

>  <inchikey>  (4149) 
JSXJOPLJXTXYGJ-UHFFFAOYSA-N

>  <smiles>  (4149) 
NC1C(=O)OCC1OC(=O)C1CCN(S(=O)(=O)N2CCCCC2)CC1

>  <ref_pdb>  (4149) 
A0875a

>  <alias>  (4149) 
JSXJOPLJXTXYGJ-UHFFFAOYSA-N-P439-P87-P439-601505

>  <HIPPO Pose ID>  (4149) 
507819

>  <name>  (4149) 
JSXJOPLJXTXYGJ-UHFFFAOYSA-N-P439-P87-P439-601505

>  <HIPPO Compound ID>  (4149) 
314445

>  <ref_mols>  (4149) 
A4706a,A0875a

>  <distance_score>  (4149) 
1.851735

>  <inspiration_score>  (4149) 
None

$$$$
VNUXJXWAVAPMQR-UHFFFAOYSA-N-P439-P87-P439-601505
     RDKit          3D

 25 27  0  0  0  0  0  0  0  0999 V2000
    7.0257   13.4070   22.0037 O   0  0  0  0  0  0  0  0  0  0  0  0
    7.1449   14.3276   22.8123 C   0  0  0  0  0  0  0  0  0  0  0  0
    8.1040   15.2951   22.7247 O   0  0  0  0  0  0  0  0  0  0  0  0
    9.2664   14.9603   21.9232 C   0  0  1  0  0  0  0  0  0  0  0  0
    9.1969   15.5563   20.5309 C   0  0  0  0  0  0  0  0  0  0  0  0
   10.3413   15.4032   19.6978 O   0  0  0  0  0  0  0  0  0  0  0  0
   11.4656   14.8274   20.3420 C   0  0  0  0  0  0  0  0  0  0  0  0
   11.7696   15.5372   21.6307 C   0  0  0  0  0  0  0  0  0  0  0  0
   10.5921   15.4137   22.5448 C   0  0  0  0  0  0  0  0  0  0  0  0
   10.7543   15.6612   23.7393 O   0  0  0  0  0  0  0  0  0  0  0  0
    6.2171   14.4408   24.0431 C   0  0  0  0  0  0  0  0  0  0  0  0
    5.8409   13.0312   24.5509 C   0  0  0  0  0  0  0  0  0  0  0  0
    6.9315   12.2859   25.3393 C   0  0  0  0  0  0  0  0  0  0  0  0
    7.7766   13.2199   26.1332 N   0  0  0  0  0  0  0  0  0  0  0  0
    9.2767   13.6168   25.4647 S   0  0  0  0  0  0  0  0  0  0  0  0
    9.6421   14.8976   26.0127 O   0  0  0  0  0  0  0  0  0  0  0  0
    9.1780   13.3549   24.0583 O   0  0  0  0  0  0  0  0  0  0  0  0
   10.3662   12.4491   26.0153 N   0  0  0  0  0  0  0  0  0  0  0  0
   11.7196   13.0549   26.2048 C   0  0  0  0  0  0  0  0  0  0  0  0
   12.6962   12.5799   25.1572 C   0  0  0  0  0  0  0  0  0  0  0  0
   12.8900   11.1022   25.3983 C   0  0  0  0  0  0  0  0  0  0  0  0
   11.5535   10.3188   25.2968 C   0  0  0  0  0  0  0  0  0  0  0  0
   10.3210   11.1977   25.1745 C   0  0  0  0  0  0  0  0  0  0  0  0
    6.9872   14.4401   26.4985 C   0  0  0  0  0  0  0  0  0  0  0  0
    6.6769   15.2818   25.2448 C   0  0  0  0  0  0  0  0  0  0  0  0
  1  2  2  0
  2  3  1  0
  4  3  1  1
  4  5  1  0
  5  6  1  0
  6  7  1  0
  7  8  1  0
  8  9  1  0
  9 10  2  0
  2 11  1  0
 11 12  1  0
 12 13  1  0
 13 14  1  0
 14 15  1  0
 15 16  2  0
 15 17  2  0
 15 18  1  0
 18 19  1  0
 19 20  1  0
 20 21  1  0
 21 22  1  0
 22 23  1  0
 14 24  1  0
 24 25  1  0
  9  4  1  0
 25 11  1  0
 23 18  1  0
M  END
>  <energy_score>  (4150) 
-34.005387

>  <inchikey>  (4150) 
VNUXJXWAVAPMQR-UHFFFAOYSA-N

>  <smiles>  (4150) 
O=C(OC1COCCC1=O)C1CCN(S(=O)(=O)N2CCCCC2)CC1

>  <ref_pdb>  (4150) 
A0875a

>  <alias>  (4150) 
VNUXJXWAVAPMQR-UHFFFAOYSA-N-P439-P87-P439-601505

>  <HIPPO Pose ID>  (4150) 
507821

>  <name>  (4150) 
VNUXJXWAVAPMQR-UHFFFAOYSA-N-P439-P87-P439-601505

>  <HIPPO Compound ID>  (4150) 
314446

>  <ref_mols>  (4150) 
A4706a,A0875a

>  <distance_score>  (4150) 
1.632925

>  <inspiration_score>  (4150) 
None

$$$$
OJUCMMCTZOCDLI-UHFFFAOYSA-N-P439-P87-P439-601505
     RDKit          3D

 25 27  0  0  0  0  0  0  0  0999 V2000
   11.2722   14.4146   19.3881 C   0  0  0  0  0  0  0  0  0  0  0  0
   10.5643   15.1838   20.5082 C   0  0  0  0  0  0  0  0  0  0  0  0
    9.6162   16.1339   19.8107 C   0  0  0  0  0  0  0  0  0  0  0  0
   11.6492   15.9052   21.3111 C   0  0  0  0  0  0  0  0  0  0  0  0
   11.8609   15.1458   22.4874 O   0  0  0  0  0  0  0  0  0  0  0  0
   10.5476   14.7882   22.8480 C   0  0  0  0  0  0  0  0  0  0  0  0
    9.8498   14.3182   21.5872 C   0  0  1  0  0  0  0  0  0  0  0  0
    8.3969   14.4987   21.6071 O   0  0  0  0  0  0  0  0  0  0  0  0
    7.5139   13.7608   22.3254 C   0  0  0  0  0  0  0  0  0  0  0  0
    6.5096   13.2748   21.8110 O   0  0  0  0  0  0  0  0  0  0  0  0
    7.7290   13.6000   23.8013 C   0  0  0  0  0  0  0  0  0  0  0  0
    7.4606   12.1883   24.3283 C   0  0  0  0  0  0  0  0  0  0  0  0
    7.7560   12.0445   25.8165 C   0  0  0  0  0  0  0  0  0  0  0  0
    7.9685   13.3446   26.4498 N   0  0  0  0  0  0  0  0  0  0  0  0
    9.4415   14.1193   26.6382 S   0  0  0  0  0  0  0  0  0  0  0  0
    9.3602   14.7406   27.9361 O   0  0  0  0  0  0  0  0  0  0  0  0
    9.7081   14.9554   25.4964 O   0  0  0  0  0  0  0  0  0  0  0  0
   10.6958   12.9585   26.7079 N   0  0  0  0  0  0  0  0  0  0  0  0
   11.8931   13.6618   27.2591 C   0  0  0  0  0  0  0  0  0  0  0  0
   13.1329   12.7930   27.3055 C   0  0  0  0  0  0  0  0  0  0  0  0
   13.5583   12.4509   25.9122 C   0  0  0  0  0  0  0  0  0  0  0  0
   12.4112   11.8694   25.1377 C   0  0  0  0  0  0  0  0  0  0  0  0
   10.9599   12.1466   25.5017 C   0  0  0  0  0  0  0  0  0  0  0  0
    6.8602   14.2831   26.1042 C   0  0  0  0  0  0  0  0  0  0  0  0
    6.9110   14.6211   24.6067 C   0  0  0  0  0  0  0  0  0  0  0  0
  1  2  1  0
  2  3  1  0
  2  4  1  0
  4  5  1  0
  5  6  1  0
  6  7  1  0
  7  8  1  1
  8  9  1  0
  9 10  2  0
  9 11  1  0
 11 12  1  0
 12 13  1  0
 13 14  1  0
 14 15  1  0
 15 16  2  0
 15 17  2  0
 15 18  1  0
 18 19  1  0
 19 20  1  0
 20 21  1  0
 21 22  1  0
 22 23  1  0
 14 24  1  0
 24 25  1  0
  7  2  1  0
 25 11  1  0
 23 18  1  0
M  END
>  <energy_score>  (4151) 
-16.526726

>  <inchikey>  (4151) 
OJUCMMCTZOCDLI-UHFFFAOYSA-N

>  <smiles>  (4151) 
CC1(C)COCC1OC(=O)C1CCN(S(=O)(=O)N2CCCCC2)CC1

>  <ref_pdb>  (4151) 
A0875a

>  <alias>  (4151) 
OJUCMMCTZOCDLI-UHFFFAOYSA-N-P439-P87-P439-601505

>  <HIPPO Pose ID>  (4151) 
507823

>  <name>  (4151) 
OJUCMMCTZOCDLI-UHFFFAOYSA-N-P439-P87-P439-601505

>  <HIPPO Compound ID>  (4151) 
314447

>  <ref_mols>  (4151) 
A4706a,A0875a

>  <distance_score>  (4151) 
1.715717

>  <inspiration_score>  (4151) 
None

$$$$
ZNTNBSMFHSDHAD-UHFFFAOYSA-N-P439-P87-P439-601505
     RDKit          3D

 25 28  0  0  0  0  0  0  0  0999 V2000
    7.0271   16.2781   22.2518 O   0  0  0  0  0  0  0  0  0  0  0  0
    7.4027   15.2345   22.7696 C   0  0  0  0  0  0  0  0  0  0  0  0
    8.6227   14.6729   22.5238 O   0  0  0  0  0  0  0  0  0  0  0  0
    9.6830   15.6142   22.1518 C   0  0  1  0  0  0  0  0  0  0  0  0
   10.8553   15.4339   23.1127 C   0  0  0  0  0  0  0  0  0  0  0  0
   12.0778   15.4358   22.3821 O   0  0  0  0  0  0  0  0  0  0  0  0
   11.7498   14.8607   21.1238 C   0  0  0  0  0  0  0  0  0  0  0  0
   10.3605   15.3068   20.8585 C   0  0  0  0  0  0  0  0  0  0  0  0
    9.5984   14.7979   19.7068 C   0  0  0  0  0  0  0  0  0  0  0  0
   10.0910   16.1827   19.6459 C   0  0  0  0  0  0  0  0  0  0  0  0
    6.4884   14.4951   23.7784 C   0  0  0  0  0  0  0  0  0  0  0  0
    6.8033   13.0156   24.0204 C   0  0  0  0  0  0  0  0  0  0  0  0
    6.9229   12.5509   25.4613 C   0  0  0  0  0  0  0  0  0  0  0  0
    7.4973   13.5764   26.3222 N   0  0  0  0  0  0  0  0  0  0  0  0
    9.0509   14.1825   26.1883 S   0  0  0  0  0  0  0  0  0  0  0  0
    9.3825   14.7210   27.4849 O   0  0  0  0  0  0  0  0  0  0  0  0
    9.0854   15.0658   25.0568 O   0  0  0  0  0  0  0  0  0  0  0  0
   10.1612   12.9698   25.8988 N   0  0  0  0  0  0  0  0  0  0  0  0
   10.0488   12.0662   24.7444 C   0  0  0  0  0  0  0  0  0  0  0  0
   10.9057   10.8624   25.0773 C   0  0  0  0  0  0  0  0  0  0  0  0
   12.3501   11.2955   25.4565 C   0  0  0  0  0  0  0  0  0  0  0  0
   12.5827   12.7673   25.2093 C   0  0  0  0  0  0  0  0  0  0  0  0
   11.5611   13.5274   26.0493 C   0  0  0  0  0  0  0  0  0  0  0  0
    6.4922   14.6788   26.4178 C   0  0  0  0  0  0  0  0  0  0  0  0
    6.2625   15.3490   25.0538 C   0  0  0  0  0  0  0  0  0  0  0  0
  1  2  2  0
  2  3  1  0
  4  3  1  1
  4  5  1  0
  5  6  1  0
  6  7  1  0
  7  8  1  0
  8  9  1  0
  9 10  1  0
  2 11  1  0
 11 12  1  0
 12 13  1  0
 13 14  1  0
 14 15  1  0
 15 16  2  0
 15 17  2  0
 15 18  1  0
 18 19  1  0
 19 20  1  0
 20 21  1  0
 21 22  1  0
 22 23  1  0
 14 24  1  0
 24 25  1  0
  8  4  1  0
 25 11  1  0
 10  8  1  0
 23 18  1  0
M  END
>  <energy_score>  (4152) 
-8.04964

>  <inchikey>  (4152) 
ZNTNBSMFHSDHAD-UHFFFAOYSA-N

>  <smiles>  (4152) 
O=C(OC1COCC12CC2)C1CCN(S(=O)(=O)N2CCCCC2)CC1

>  <ref_pdb>  (4152) 
A0875a

>  <alias>  (4152) 
ZNTNBSMFHSDHAD-UHFFFAOYSA-N-P439-P87-P439-601505

>  <HIPPO Pose ID>  (4152) 
507825

>  <name>  (4152) 
ZNTNBSMFHSDHAD-UHFFFAOYSA-N-P439-P87-P439-601505

>  <HIPPO Compound ID>  (4152) 
314448

>  <ref_mols>  (4152) 
A4706a,A0875a

>  <distance_score>  (4152) 
1.600715

>  <inspiration_score>  (4152) 
None

$$$$
HFEXFXBGFYYULV-UHFFFAOYSA-N-P439-P87-P439-601505
     RDKit          3D

 25 28  0  0  0  0  0  0  0  0999 V2000
    6.8244   13.5263   21.9272 O   0  0  0  0  0  0  0  0  0  0  0  0
    7.9497   13.4913   22.3967 C   0  0  0  0  0  0  0  0  0  0  0  0
    9.1111   13.6364   21.6930 O   0  0  0  0  0  0  0  0  0  0  0  0
    9.2210   14.8889   21.0167 C   0  0  1  0  0  0  0  0  0  0  0  0
    9.5023   15.9515   22.0630 C   0  0  0  0  0  0  0  0  0  0  0  0
   10.9769   15.7149   22.3572 C   0  0  0  0  0  0  0  0  0  0  0  0
   11.5575   15.4993   21.0754 O   0  0  0  0  0  0  0  0  0  0  0  0
   10.4989   15.0031   20.2297 C   0  0  0  0  0  0  0  0  0  0  0  0
   10.9545   14.3236   18.9761 C   0  0  0  0  0  0  0  0  0  0  0  0
   10.3565   15.6682   18.8931 C   0  0  0  0  0  0  0  0  0  0  0  0
    8.2800   13.2102   23.8267 C   0  0  0  0  0  0  0  0  0  0  0  0
    8.2319   11.7506   24.2296 C   0  0  0  0  0  0  0  0  0  0  0  0
    8.9658   11.5754   25.5541 C   0  0  0  0  0  0  0  0  0  0  0  0
    9.0361   12.8395   26.3111 N   0  0  0  0  0  0  0  0  0  0  0  0
   10.4046   13.8279   26.4164 S   0  0  0  0  0  0  0  0  0  0  0  0
   10.4778   14.7041   25.2711 O   0  0  0  0  0  0  0  0  0  0  0  0
   10.3228   14.3951   27.7378 O   0  0  0  0  0  0  0  0  0  0  0  0
   11.7374   12.7639   26.3642 N   0  0  0  0  0  0  0  0  0  0  0  0
   12.8285   13.0332   27.3583 C   0  0  0  0  0  0  0  0  0  0  0  0
   14.2512   12.7711   26.8568 C   0  0  0  0  0  0  0  0  0  0  0  0
   14.3893   11.4712   26.1360 C   0  0  0  0  0  0  0  0  0  0  0  0
   13.2624   11.3190   25.1464 C   0  0  0  0  0  0  0  0  0  0  0  0
   12.2789   12.4905   25.0261 C   0  0  0  0  0  0  0  0  0  0  0  0
    7.7447   13.5926   26.2609 C   0  0  0  0  0  0  0  0  0  0  0  0
    7.4778   14.0557   24.8254 C   0  0  0  0  0  0  0  0  0  0  0  0
  1  2  2  0
  2  3  1  0
  4  3  1  1
  4  5  1  0
  5  6  1  0
  6  7  1  0
  7  8  1  0
  8  9  1  0
  9 10  1  0
  2 11  1  0
 11 12  1  0
 12 13  1  0
 13 14  1  0
 14 15  1  0
 15 16  2  0
 15 17  2  0
 15 18  1  0
 18 19  1  0
 19 20  1  0
 20 21  1  0
 21 22  1  0
 22 23  1  0
 14 24  1  0
 24 25  1  0
  8  4  1  0
 25 11  1  0
 10  8  1  0
 23 18  1  0
M  END
>  <energy_score>  (4153) 
-46.953728

>  <inchikey>  (4153) 
HFEXFXBGFYYULV-UHFFFAOYSA-N

>  <smiles>  (4153) 
O=C(OC1CCOC12CC2)C1CCN(S(=O)(=O)N2CCCCC2)CC1

>  <ref_pdb>  (4153) 
A0875a

>  <alias>  (4153) 
HFEXFXBGFYYULV-UHFFFAOYSA-N-P439-P87-P439-601505

>  <HIPPO Pose ID>  (4153) 
507827

>  <name>  (4153) 
HFEXFXBGFYYULV-UHFFFAOYSA-N-P439-P87-P439-601505

>  <HIPPO Compound ID>  (4153) 
314449

>  <ref_mols>  (4153) 
A4706a,A0875a

>  <distance_score>  (4153) 
1.526204

>  <inspiration_score>  (4153) 
None

$$$$
VQUDZAIWFMJRHZ-UHFFFAOYSA-N-P87-P87-P439-601505
     RDKit          3D

 25 27  0  0  0  0  0  0  0  0999 V2000
   17.0696   12.3332   26.9781 C   0  0  0  0  0  0  0  0  0  0  0  0
   15.7247   12.3896   27.7214 C   0  0  0  0  0  0  0  0  0  0  0  0
   15.5885   13.8358   28.2462 C   0  0  0  0  0  0  0  0  0  0  0  0
   14.6183   12.2169   26.7566 O   0  0  0  0  0  0  0  0  0  0  0  0
   14.5113   11.0970   26.0068 C   0  0  0  0  0  0  0  0  0  0  0  0
   15.1842   10.0846   26.1520 O   0  0  0  0  0  0  0  0  0  0  0  0
   13.4789   11.1459   24.8758 C   0  0  0  0  0  0  0  0  0  0  0  0
   13.0203   12.5440   24.5553 C   0  0  0  0  0  0  0  0  0  0  0  0
   11.9056   12.8551   25.5135 C   0  0  0  0  0  0  0  0  0  0  0  0
   10.6546   12.1026   25.1663 N   0  0  0  0  0  0  0  0  0  0  0  0
    9.4778   13.2454   24.7862 S   0  0  0  0  0  0  0  0  0  0  0  0
    9.9037   13.9368   23.5945 O   0  0  0  0  0  0  0  0  0  0  0  0
    9.3791   13.9201   26.0548 O   0  0  0  0  0  0  0  0  0  0  0  0
    7.9855   12.5313   24.5007 N   0  0  0  0  0  0  0  0  0  0  0  0
    7.4553   11.6095   25.5015 C   0  0  0  0  0  0  0  0  0  0  0  0
    6.7391   12.2941   26.6439 C   0  0  0  0  0  0  0  0  0  0  0  0
    5.6252   13.2216   26.2386 C   0  0  0  0  0  0  0  0  0  0  0  0
    5.7061   13.7633   24.8245 C   0  0  0  0  0  0  0  0  0  0  0  0
    6.9566   13.5048   23.9681 C   0  0  0  0  0  0  0  0  0  0  0  0
   10.8815   10.8997   24.3589 C   0  0  0  0  0  0  0  0  0  0  0  0
   12.2085   10.1831   24.8100 C   0  0  0  0  0  0  0  0  0  0  0  0
   15.6388   11.4074   28.9030 C   0  0  1  0  0  0  0  0  0  0  0  0
   16.6467   10.2963   29.0075 C   0  0  0  0  0  0  0  0  0  0  0  0
   14.9299   11.7833   30.2132 C   0  0  0  0  0  0  0  0  0  0  0  0
   14.3004   10.9972   29.2099 O   0  0  0  0  0  0  0  0  0  0  0  0
  1  2  1  0
  2  3  1  0
  2  4  1  0
  4  5  1  0
  5  6  2  0
  5  7  1  0
  7  8  1  0
  8  9  1  0
  9 10  1  0
 10 11  1  0
 11 12  2  0
 11 13  2  0
 11 14  1  0
 14 15  1  0
 15 16  1  0
 16 17  1  0
 17 18  1  0
 18 19  1  0
 10 20  1  0
 20 21  1  0
  2 22  1  0
 22 23  1  1
 22 24  1  0
 24 25  1  0
 21  7  1  0
 25 22  1  0
 19 14  1  0
M  END
>  <energy_score>  (4154) 
-42.687042

>  <inchikey>  (4154) 
VQUDZAIWFMJRHZ-UHFFFAOYSA-N

>  <smiles>  (4154) 
CC(C)(OC(=O)C1CCN(S(=O)(=O)N2CCCCC2)CC1)C1(C)CO1

>  <ref_pdb>  (4154) 
A0875a

>  <alias>  (4154) 
VQUDZAIWFMJRHZ-UHFFFAOYSA-N-P87-P87-P439-601505

>  <HIPPO Pose ID>  (4154) 
507830

>  <name>  (4154) 
VQUDZAIWFMJRHZ-UHFFFAOYSA-N-P87-P87-P439-601505

>  <HIPPO Compound ID>  (4154) 
314451

>  <ref_mols>  (4154) 
A4706a,A0875a

>  <distance_score>  (4154) 
1.374875

>  <inspiration_score>  (4154) 
None

$$$$
VQUDZAIWFMJRHZ-UHFFFAOYSA-N-P439-P87-P439-601505
     RDKit          3D

 25 27  0  0  0  0  0  0  0  0999 V2000
   17.3521   10.5698   28.0747 C   0  0  0  0  0  0  0  0  0  0  0  0
   16.6188   11.8273   28.5681 C   0  0  0  0  0  0  0  0  0  0  0  0
   17.7290   12.8767   28.7946 C   0  0  0  0  0  0  0  0  0  0  0  0
   15.7031   12.4333   27.5993 O   0  0  0  0  0  0  0  0  0  0  0  0
   14.9454   11.7046   26.7352 C   0  0  0  0  0  0  0  0  0  0  0  0
   15.1122   10.5430   26.3997 O   0  0  0  0  0  0  0  0  0  0  0  0
   13.8086   12.5534   26.1940 C   0  0  0  0  0  0  0  0  0  0  0  0
   12.8846   12.9755   27.3169 C   0  0  0  0  0  0  0  0  0  0  0  0
   11.6147   13.7045   26.8764 C   0  0  0  0  0  0  0  0  0  0  0  0
   10.9423   13.1053   25.6861 N   0  0  0  0  0  0  0  0  0  0  0  0
    9.6358   14.0863   25.1388 S   0  0  0  0  0  0  0  0  0  0  0  0
    9.5028   13.9860   23.7075 O   0  0  0  0  0  0  0  0  0  0  0  0
    9.7586   15.3609   25.8023 O   0  0  0  0  0  0  0  0  0  0  0  0
    8.3255   13.2817   25.8375 N   0  0  0  0  0  0  0  0  0  0  0  0
    7.9550   11.9991   25.1864 C   0  0  0  0  0  0  0  0  0  0  0  0
    6.9691   11.2635   26.0849 C   0  0  0  0  0  0  0  0  0  0  0  0
    5.7461   12.1121   26.4196 C   0  0  0  0  0  0  0  0  0  0  0  0
    6.1526   13.4794   26.9537 C   0  0  0  0  0  0  0  0  0  0  0  0
    7.1287   14.1596   26.0028 C   0  0  0  0  0  0  0  0  0  0  0  0
   11.8856   12.7577   24.6059 C   0  0  0  0  0  0  0  0  0  0  0  0
   12.9554   11.8207   25.1710 C   0  0  0  0  0  0  0  0  0  0  0  0
   15.8234   11.6163   29.8708 C   0  0  2  0  0  0  0  0  0  0  0  0
   15.4343   12.8389   30.6601 C   0  0  0  0  0  0  0  0  0  0  0  0
   15.7432   10.2719   30.5798 C   0  0  0  0  0  0  0  0  0  0  0  0
   14.7067   10.7227   29.7020 O   0  0  0  0  0  0  0  0  0  0  0  0
  1  2  1  0
  2  3  1  0
  2  4  1  0
  4  5  1  0
  5  6  2  0
  5  7  1  0
  7  8  1  0
  8  9  1  0
  9 10  1  0
 10 11  1  0
 11 12  2  0
 11 13  2  0
 11 14  1  0
 14 15  1  0
 15 16  1  0
 16 17  1  0
 17 18  1  0
 18 19  1  0
 10 20  1  0
 20 21  1  0
  2 22  1  0
 22 23  1  1
 22 24  1  0
 24 25  1  0
 21  7  1  0
 25 22  1  0
 19 14  1  0
M  END
>  <energy_score>  (4155) 
-85.963016

>  <inchikey>  (4155) 
VQUDZAIWFMJRHZ-UHFFFAOYSA-N

>  <smiles>  (4155) 
CC(C)(OC(=O)C1CCN(S(=O)(=O)N2CCCCC2)CC1)C1(C)CO1

>  <ref_pdb>  (4155) 
A0875a

>  <alias>  (4155) 
VQUDZAIWFMJRHZ-UHFFFAOYSA-N-P439-P87-P439-601505

>  <HIPPO Pose ID>  (4155) 
507831

>  <name>  (4155) 
VQUDZAIWFMJRHZ-UHFFFAOYSA-N-P439-P87-P439-601505

>  <HIPPO Compound ID>  (4155) 
314451

>  <ref_mols>  (4155) 
A4706a,A0875a

>  <distance_score>  (4155) 
1.689475

>  <inspiration_score>  (4155) 
None

$$$$
HDQGCUZAIBADAV-UHFFFAOYSA-N-P439-P87-P439-601505
     RDKit          3D

 26 28  0  0  0  0  0  0  0  0999 V2000
   11.3774   14.8129   18.3921 C   0  0  0  0  0  0  0  0  0  0  0  0
   10.3311   14.3046   19.1979 O   0  0  0  0  0  0  0  0  0  0  0  0
   10.3552   14.8722   20.4871 C   0  0  2  0  0  0  0  0  0  0  0  0
   11.5523   14.3947   21.2959 C   0  0  0  0  0  0  0  0  0  0  0  0
   11.3550   14.6549   22.7585 C   0  0  0  0  0  0  0  0  0  0  0  0
   10.5550   15.9195   22.9161 C   0  0  0  0  0  0  0  0  0  0  0  0
    9.1611   15.9359   22.2523 C   0  0  0  0  0  0  0  0  0  0  0  0
    9.0177   14.7897   21.2686 C   0  0  2  0  0  0  0  0  0  0  0  0
    8.7442   13.6392   22.1274 O   0  0  0  0  0  0  0  0  0  0  0  0
    7.4475   13.5771   22.5516 C   0  0  0  0  0  0  0  0  0  0  0  0
    6.5078   14.0606   21.9270 O   0  0  0  0  0  0  0  0  0  0  0  0
    7.1896   12.9027   23.9017 C   0  0  0  0  0  0  0  0  0  0  0  0
    8.1469   11.7852   24.3406 C   0  0  0  0  0  0  0  0  0  0  0  0
    8.8203   12.0839   25.6766 C   0  0  0  0  0  0  0  0  0  0  0  0
    9.3322   13.4490   25.5573 N   0  0  0  0  0  0  0  0  0  0  0  0
   10.6322   13.9478   26.4763 S   0  0  0  0  0  0  0  0  0  0  0  0
   10.1663   14.0101   27.8369 O   0  0  0  0  0  0  0  0  0  0  0  0
   11.1764   15.1165   25.8374 O   0  0  0  0  0  0  0  0  0  0  0  0
   11.8122   12.7201   26.4040 N   0  0  0  0  0  0  0  0  0  0  0  0
   12.3270   12.4108   25.0729 C   0  0  0  0  0  0  0  0  0  0  0  0
   13.3288   11.2571   25.1625 C   0  0  0  0  0  0  0  0  0  0  0  0
   14.4751   11.4214   26.1266 C   0  0  0  0  0  0  0  0  0  0  0  0
   14.3338   12.7163   26.8590 C   0  0  0  0  0  0  0  0  0  0  0  0
   12.9219   12.9221   27.4016 C   0  0  0  0  0  0  0  0  0  0  0  0
    8.2199   14.4556   25.6318 C   0  0  0  0  0  0  0  0  0  0  0  0
    6.9432   13.9479   24.9885 C   0  0  0  0  0  0  0  0  0  0  0  0
  1  2  1  0
  3  2  1  6
  3  4  1  0
  4  5  1  0
  5  6  1  0
  6  7  1  0
  7  8  1  0
  8  9  1  1
  9 10  1  0
 10 11  2  0
 10 12  1  0
 12 13  1  0
 13 14  1  0
 14 15  1  0
 15 16  1  0
 16 17  2  0
 16 18  2  0
 16 19  1  0
 19 20  1  0
 20 21  1  0
 21 22  1  0
 22 23  1  0
 23 24  1  0
 15 25  1  0
 25 26  1  0
  8  3  1  0
 26 12  1  0
 24 19  1  0
M  END
>  <energy_score>  (4156) 
-43.0051

>  <inchikey>  (4156) 
HDQGCUZAIBADAV-UHFFFAOYSA-N

>  <smiles>  (4156) 
COC1CCCCC1OC(=O)C1CCN(S(=O)(=O)N2CCCCC2)CC1

>  <ref_pdb>  (4156) 
A0875a

>  <alias>  (4156) 
HDQGCUZAIBADAV-UHFFFAOYSA-N-P439-P87-P439-601505

>  <HIPPO Pose ID>  (4156) 
507833

>  <name>  (4156) 
HDQGCUZAIBADAV-UHFFFAOYSA-N-P439-P87-P439-601505

>  <HIPPO Compound ID>  (4156) 
314452

>  <ref_mols>  (4156) 
A4706a,A0875a

>  <distance_score>  (4156) 
1.600295

>  <inspiration_score>  (4156) 
None

$$$$
FYVQEXPXTXWQKB-UHFFFAOYSA-N-P439-P87-P439-601505
     RDKit          3D

 26 28  0  0  0  0  0  0  0  0999 V2000
   11.3246   13.4845   22.1026 C   0  0  0  0  0  0  0  0  0  0  0  0
   10.9871   14.8604   21.5880 C   0  0  0  0  0  0  0  0  0  0  0  0
   12.1523   15.7870   21.7499 C   0  0  0  0  0  0  0  0  0  0  0  0
   10.6562   14.8014   20.1942 O   0  0  0  0  0  0  0  0  0  0  0  0
    9.4269   15.5171   20.1190 C   0  0  0  0  0  0  0  0  0  0  0  0
    8.7747   15.1885   21.4435 C   0  0  2  0  0  0  0  0  0  0  0  0
    7.5570   16.0247   21.8395 C   0  0  0  0  0  0  0  0  0  0  0  0
    7.1993   15.8090   23.2107 O   0  0  0  0  0  0  0  0  0  0  0  0
    6.2519   14.8703   23.4891 C   0  0  0  0  0  0  0  0  0  0  0  0
    5.2405   14.6357   22.8506 O   0  0  0  0  0  0  0  0  0  0  0  0
    6.7485   14.1058   24.6827 C   0  0  0  0  0  0  0  0  0  0  0  0
    7.0822   12.6728   24.2576 C   0  0  0  0  0  0  0  0  0  0  0  0
    7.7319   11.8470   25.3633 C   0  0  0  0  0  0  0  0  0  0  0  0
    8.2515   12.7375   26.4180 N   0  0  0  0  0  0  0  0  0  0  0  0
    9.6065   13.6997   26.0120 S   0  0  0  0  0  0  0  0  0  0  0  0
    9.6342   13.9440   24.5935 O   0  0  0  0  0  0  0  0  0  0  0  0
    9.6406   14.7915   26.9537 O   0  0  0  0  0  0  0  0  0  0  0  0
   10.9929   12.7437   26.3124 N   0  0  0  0  0  0  0  0  0  0  0  0
   11.2187   11.6547   25.3368 C   0  0  0  0  0  0  0  0  0  0  0  0
   12.6716   11.1582   25.3695 C   0  0  0  0  0  0  0  0  0  0  0  0
   13.4924   11.5877   26.5545 C   0  0  0  0  0  0  0  0  0  0  0  0
   13.5256   13.0596   26.5338 C   0  0  0  0  0  0  0  0  0  0  0  0
   12.1452   13.6904   26.3600 C   0  0  0  0  0  0  0  0  0  0  0  0
    7.0787   13.4994   27.0548 C   0  0  0  0  0  0  0  0  0  0  0  0
    6.0700   14.0719   26.0234 C   0  0  0  0  0  0  0  0  0  0  0  0
    9.8816   15.3824   22.3249 O   0  0  0  0  0  0  0  0  0  0  0  0
  1  2  1  0
  2  3  1  0
  2  4  1  0
  4  5  1  0
  5  6  1  0
  6  7  1  1
  7  8  1  0
  8  9  1  0
  9 10  2  0
  9 11  1  0
 11 12  1  0
 12 13  1  0
 13 14  1  0
 14 15  1  0
 15 16  2  0
 15 17  2  0
 15 18  1  0
 18 19  1  0
 19 20  1  0
 20 21  1  0
 21 22  1  0
 22 23  1  0
 14 24  1  0
 24 25  1  0
  6 26  1  0
 26  2  1  0
 25 11  1  0
 23 18  1  0
M  END
>  <energy_score>  (4157) 
-35.908155

>  <inchikey>  (4157) 
FYVQEXPXTXWQKB-UHFFFAOYSA-N

>  <smiles>  (4157) 
CC1(C)OCC(COC(=O)C2CCN(S(=O)(=O)N3CCCCC3)CC2)O1

>  <ref_pdb>  (4157) 
A0875a

>  <alias>  (4157) 
FYVQEXPXTXWQKB-UHFFFAOYSA-N-P439-P87-P439-601505

>  <HIPPO Pose ID>  (4157) 
507835

>  <name>  (4157) 
FYVQEXPXTXWQKB-UHFFFAOYSA-N-P439-P87-P439-601505

>  <HIPPO Compound ID>  (4157) 
314453

>  <ref_mols>  (4157) 
A4706a,A0875a

>  <distance_score>  (4157) 
1.791418

>  <inspiration_score>  (4157) 
None

$$$$
KZCDQXZJFBONMV-UHFFFAOYSA-N-P87-P87-P439-601505
     RDKit          3D

 26 27  0  0  0  0  0  0  0  0999 V2000
   15.7450   12.8473   30.6646 C   0  0  0  0  0  0  0  0  0  0  0  0
   14.6691   11.9148   30.1411 C   0  0  0  0  0  0  0  0  0  0  0  0
   14.6658   11.9258   28.7023 O   0  0  0  0  0  0  0  0  0  0  0  0
   15.5446   11.0653   28.1092 C   0  0  0  0  0  0  0  0  0  0  0  0
   16.2183   10.2416   28.7140 O   0  0  0  0  0  0  0  0  0  0  0  0
   15.6171   11.3091   26.5852 C   0  0  0  0  0  0  0  0  0  0  0  0
   16.2576   10.0878   25.9302 C   0  0  0  0  0  0  0  0  0  0  0  0
   16.4773   12.5642   26.4329 C   0  0  0  0  0  0  0  0  0  0  0  0
   14.2809   11.5552   26.0504 O   0  0  0  0  0  0  0  0  0  0  0  0
   14.1020   11.8266   24.7224 C   0  0  0  0  0  0  0  0  0  0  0  0
   14.8726   11.4760   23.8468 O   0  0  0  0  0  0  0  0  0  0  0  0
   12.8899   12.7146   24.4466 C   0  0  0  0  0  0  0  0  0  0  0  0
   11.8942   12.6536   25.5653 C   0  0  0  0  0  0  0  0  0  0  0  0
   10.8039   11.6821   25.1619 C   0  0  0  0  0  0  0  0  0  0  0  0
   10.0438   12.2501   24.0677 N   0  0  0  0  0  0  0  0  0  0  0  0
    9.1173   13.5904   24.4688 S   0  0  0  0  0  0  0  0  0  0  0  0
    9.3380   14.6136   23.4828 O   0  0  0  0  0  0  0  0  0  0  0  0
    9.3180   13.7966   25.8850 O   0  0  0  0  0  0  0  0  0  0  0  0
    7.5863   12.9188   24.3166 N   0  0  0  0  0  0  0  0  0  0  0  0
    7.2184   11.8897   25.2939 C   0  0  0  0  0  0  0  0  0  0  0  0
    6.5611   12.4388   26.5328 C   0  0  0  0  0  0  0  0  0  0  0  0
    5.4106   13.3814   26.2626 C   0  0  0  0  0  0  0  0  0  0  0  0
    5.3496   14.0201   24.8759 C   0  0  0  0  0  0  0  0  0  0  0  0
    6.4960   13.8230   23.8767 C   0  0  0  0  0  0  0  0  0  0  0  0
   10.8236   12.2800   22.8368 C   0  0  0  0  0  0  0  0  0  0  0  0
   12.2011   12.8965   23.0730 C   0  0  0  0  0  0  0  0  0  0  0  0
  1  2  1  0
  2  3  1  0
  3  4  1  0
  4  5  2  0
  4  6  1  0
  6  7  1  0
  6  8  1  0
  6  9  1  0
  9 10  1  0
 10 11  2  0
 10 12  1  0
 12 13  1  0
 13 14  1  0
 14 15  1  0
 15 16  1  0
 16 17  2  0
 16 18  2  0
 16 19  1  0
 19 20  1  0
 20 21  1  0
 21 22  1  0
 22 23  1  0
 23 24  1  0
 15 25  1  0
 25 26  1  0
 26 12  1  0
 24 19  1  0
M  END
>  <energy_score>  (4158) 
-30.64081

>  <inchikey>  (4158) 
KZCDQXZJFBONMV-UHFFFAOYSA-N

>  <smiles>  (4158) 
CCOC(=O)C(C)(C)OC(=O)C1CCN(S(=O)(=O)N2CCCCC2)CC1

>  <ref_pdb>  (4158) 
A0875a

>  <alias>  (4158) 
KZCDQXZJFBONMV-UHFFFAOYSA-N-P87-P87-P439-601505

>  <HIPPO Pose ID>  (4158) 
507838

>  <name>  (4158) 
KZCDQXZJFBONMV-UHFFFAOYSA-N-P87-P87-P439-601505

>  <HIPPO Compound ID>  (4158) 
314455

>  <ref_mols>  (4158) 
A4706a,A0875a

>  <distance_score>  (4158) 
1.445333

>  <inspiration_score>  (4158) 
None

$$$$
KZCDQXZJFBONMV-UHFFFAOYSA-N-P439-P87-P439-601505
     RDKit          3D

 26 27  0  0  0  0  0  0  0  0999 V2000
   14.8889   12.5749   31.3848 C   0  0  0  0  0  0  0  0  0  0  0  0
   14.0051   11.4660   30.8421 C   0  0  0  0  0  0  0  0  0  0  0  0
   13.8919   11.5766   29.4116 O   0  0  0  0  0  0  0  0  0  0  0  0
   14.9226   11.0156   28.7108 C   0  0  0  0  0  0  0  0  0  0  0  0
   15.8554   10.4126   29.2255 O   0  0  0  0  0  0  0  0  0  0  0  0
   14.8105   11.3389   27.1954 C   0  0  0  0  0  0  0  0  0  0  0  0
   15.6682   10.3908   26.3530 C   0  0  0  0  0  0  0  0  0  0  0  0
   15.4079   12.7221   27.1502 C   0  0  0  0  0  0  0  0  0  0  0  0
   13.4362   11.4520   26.7095 O   0  0  0  0  0  0  0  0  0  0  0  0
   13.2789   11.8255   25.4113 C   0  0  0  0  0  0  0  0  0  0  0  0
   14.1468   11.7138   24.5581 O   0  0  0  0  0  0  0  0  0  0  0  0
   11.9545   12.4607   25.0743 C   0  0  0  0  0  0  0  0  0  0  0  0
   11.6961   13.6478   25.9818 C   0  0  0  0  0  0  0  0  0  0  0  0
   10.4260   13.5254   26.7650 C   0  0  0  0  0  0  0  0  0  0  0  0
    9.3389   13.0386   25.9217 N   0  0  0  0  0  0  0  0  0  0  0  0
    8.6719   14.1330   24.8533 S   0  0  0  0  0  0  0  0  0  0  0  0
    8.9536   13.6801   23.5158 O   0  0  0  0  0  0  0  0  0  0  0  0
    9.0791   15.4338   25.3180 O   0  0  0  0  0  0  0  0  0  0  0  0
    7.0506   13.9368   25.1881 N   0  0  0  0  0  0  0  0  0  0  0  0
    6.3461   12.6700   24.9543 C   0  0  0  0  0  0  0  0  0  0  0  0
    6.1943   11.8856   26.2606 C   0  0  0  0  0  0  0  0  0  0  0  0
    5.5561   12.7327   27.3563 C   0  0  0  0  0  0  0  0  0  0  0  0
    6.3017   14.0540   27.5254 C   0  0  0  0  0  0  0  0  0  0  0  0
    6.4090   14.7934   26.1996 C   0  0  0  0  0  0  0  0  0  0  0  0
    9.5038   11.6623   25.4863 C   0  0  0  0  0  0  0  0  0  0  0  0
   10.8438   11.4308   24.8538 C   0  0  0  0  0  0  0  0  0  0  0  0
  1  2  1  0
  2  3  1  0
  3  4  1  0
  4  5  2  0
  4  6  1  0
  6  7  1  0
  6  8  1  0
  6  9  1  0
  9 10  1  0
 10 11  2  0
 10 12  1  0
 12 13  1  0
 13 14  1  0
 14 15  1  0
 15 16  1  0
 16 17  2  0
 16 18  2  0
 16 19  1  0
 19 20  1  0
 20 21  1  0
 21 22  1  0
 22 23  1  0
 23 24  1  0
 15 25  1  0
 25 26  1  0
 26 12  1  0
 24 19  1  0
M  END
>  <energy_score>  (4159) 
-48.25807

>  <inchikey>  (4159) 
KZCDQXZJFBONMV-UHFFFAOYSA-N

>  <smiles>  (4159) 
CCOC(=O)C(C)(C)OC(=O)C1CCN(S(=O)(=O)N2CCCCC2)CC1

>  <ref_pdb>  (4159) 
A0875a

>  <alias>  (4159) 
KZCDQXZJFBONMV-UHFFFAOYSA-N-P439-P87-P439-601505

>  <HIPPO Pose ID>  (4159) 
507839

>  <name>  (4159) 
KZCDQXZJFBONMV-UHFFFAOYSA-N-P439-P87-P439-601505

>  <HIPPO Compound ID>  (4159) 
314455

>  <ref_mols>  (4159) 
A4706a,A0875a

>  <distance_score>  (4159) 
1.709107

>  <inspiration_score>  (4159) 
None

$$$$
HAFVJPFDCQODLN-UHFFFAOYSA-N-P439-P87-P439-601505
     RDKit          3D

 26 28  0  0  0  0  0  0  0  0999 V2000
    7.0612   15.8920   22.1285 C   0  0  0  0  0  0  0  0  0  0  0  0
    8.1087   15.1082   21.3326 C   0  0  2  0  0  0  0  0  0  0  0  0
    8.4377   13.8862   22.0121 O   0  0  0  0  0  0  0  0  0  0  0  0
    7.4836   13.3028   22.7599 C   0  0  0  0  0  0  0  0  0  0  0  0
    6.3604   13.0109   22.3898 O   0  0  0  0  0  0  0  0  0  0  0  0
    8.0520   13.0518   24.1039 C   0  0  0  0  0  0  0  0  0  0  0  0
    8.0562   11.6055   24.5277 C   0  0  0  0  0  0  0  0  0  0  0  0
    9.0055   11.4748   25.7078 C   0  0  0  0  0  0  0  0  0  0  0  0
    9.1327   12.7335   26.4768 N   0  0  0  0  0  0  0  0  0  0  0  0
   10.4756   13.7625   26.4114 S   0  0  0  0  0  0  0  0  0  0  0  0
   10.4543   14.4543   27.6740 O   0  0  0  0  0  0  0  0  0  0  0  0
   10.4729   14.5135   25.1814 O   0  0  0  0  0  0  0  0  0  0  0  0
   11.8121   12.7073   26.3804 N   0  0  0  0  0  0  0  0  0  0  0  0
   12.3476   12.4464   25.0392 C   0  0  0  0  0  0  0  0  0  0  0  0
   13.3390   11.2864   25.1382 C   0  0  0  0  0  0  0  0  0  0  0  0
   14.4678   11.4466   26.1221 C   0  0  0  0  0  0  0  0  0  0  0  0
   14.3157   12.7307   26.8723 C   0  0  0  0  0  0  0  0  0  0  0  0
   12.8927   12.9642   27.3833 C   0  0  0  0  0  0  0  0  0  0  0  0
    7.8246   13.4591   26.5648 C   0  0  0  0  0  0  0  0  0  0  0  0
    7.4249   13.9443   25.1766 C   0  0  0  0  0  0  0  0  0  0  0  0
    9.4446   15.8883   21.0794 C   0  0  1  0  0  0  0  0  0  0  0  0
    9.2235   17.3689   20.7542 C   0  0  0  0  0  0  0  0  0  0  0  0
   10.4541   15.7216   22.2116 C   0  0  0  0  0  0  0  0  0  0  0  0
   11.2962   14.5410   21.8035 C   0  0  0  0  0  0  0  0  0  0  0  0
   11.3875   14.7874   20.3355 C   0  0  0  0  0  0  0  0  0  0  0  0
   10.1079   15.2854   19.9366 O   0  0  0  0  0  0  0  0  0  0  0  0
  2  1  1  1
  2  3  1  0
  3  4  1  0
  4  5  2  0
  4  6  1  0
  6  7  1  0
  7  8  1  0
  8  9  1  0
  9 10  1  0
 10 11  2  0
 10 12  2  0
 10 13  1  0
 13 14  1  0
 14 15  1  0
 15 16  1  0
 16 17  1  0
 17 18  1  0
  9 19  1  0
 19 20  1  0
  2 21  1  0
 21 22  1  6
 21 23  1  0
 23 24  1  0
 24 25  1  0
 25 26  1  0
 20  6  1  0
 26 21  1  0
 18 13  1  0
M  END
>  <energy_score>  (4160) 
-20.471227

>  <inchikey>  (4160) 
HAFVJPFDCQODLN-UHFFFAOYSA-N

>  <smiles>  (4160) 
CC(OC(=O)C1CCN(S(=O)(=O)N2CCCCC2)CC1)C1(C)CCCO1

>  <ref_pdb>  (4160) 
A0875a

>  <alias>  (4160) 
HAFVJPFDCQODLN-UHFFFAOYSA-N-P439-P87-P439-601505

>  <HIPPO Pose ID>  (4160) 
507843

>  <name>  (4160) 
HAFVJPFDCQODLN-UHFFFAOYSA-N-P439-P87-P439-601505

>  <HIPPO Compound ID>  (4160) 
314457

>  <ref_mols>  (4160) 
A4706a,A0875a

>  <distance_score>  (4160) 
1.902843

>  <inspiration_score>  (4160) 
None

$$$$
BNQYRJJKGLVQQH-UHFFFAOYSA-N-P439-P87-P439-601505
     RDKit          3D

 26 27  0  0  0  0  0  0  0  0999 V2000
   11.3191   14.8968   18.2772 C   0  0  0  0  0  0  0  0  0  0  0  0
   11.5076   14.8030   19.6653 O   0  0  0  0  0  0  0  0  0  0  0  0
   10.3617   15.3248   20.3048 C   0  0  0  0  0  0  0  0  0  0  0  0
   10.3197   14.8082   21.7222 C   0  0  0  0  0  0  0  0  0  0  0  0
    9.0997   15.1696   22.3522 O   0  0  0  0  0  0  0  0  0  0  0  0
    7.9989   14.4237   21.8408 C   0  0  0  0  0  0  0  0  0  0  0  0
    6.6066   14.7721   22.4256 C   0  0  2  0  0  0  0  0  0  0  0  0
    6.4748   16.2502   22.7003 C   0  0  0  0  0  0  0  0  0  0  0  0
    6.3983   14.0454   23.6442 O   0  0  0  0  0  0  0  0  0  0  0  0
    5.1872   14.0965   24.2496 C   0  0  0  0  0  0  0  0  0  0  0  0
    4.1657   14.5663   23.7727 O   0  0  0  0  0  0  0  0  0  0  0  0
    5.3109   13.5688   25.6724 C   0  0  0  0  0  0  0  0  0  0  0  0
    5.8842   12.1401   25.6540 C   0  0  0  0  0  0  0  0  0  0  0  0
    7.1365   11.8837   26.4626 C   0  0  0  0  0  0  0  0  0  0  0  0
    7.9765   13.0793   26.5325 N   0  0  0  0  0  0  0  0  0  0  0  0
    8.8714   13.4969   25.1721 S   0  0  0  0  0  0  0  0  0  0  0  0
    8.5042   12.5785   24.1213 O   0  0  0  0  0  0  0  0  0  0  0  0
    8.8453   14.9325   25.0616 O   0  0  0  0  0  0  0  0  0  0  0  0
   10.4042   13.0271   25.6782 N   0  0  0  0  0  0  0  0  0  0  0  0
   10.7600   11.6584   25.2620 C   0  0  0  0  0  0  0  0  0  0  0  0
   12.1854   11.3669   25.7083 C   0  0  0  0  0  0  0  0  0  0  0  0
   13.2181   12.2836   25.1383 C   0  0  0  0  0  0  0  0  0  0  0  0
   12.5294   13.4773   24.5112 C   0  0  0  0  0  0  0  0  0  0  0  0
   11.4679   14.0265   25.4484 C   0  0  0  0  0  0  0  0  0  0  0  0
    7.2885   14.1636   27.2532 C   0  0  0  0  0  0  0  0  0  0  0  0
    6.0543   14.6332   26.5011 C   0  0  0  0  0  0  0  0  0  0  0  0
  1  2  1  0
  2  3  1  0
  3  4  1  0
  4  5  1  0
  5  6  1  0
  6  7  1  0
  7  8  1  1
  7  9  1  0
  9 10  1  0
 10 11  2  0
 10 12  1  0
 12 13  1  0
 13 14  1  0
 14 15  1  0
 15 16  1  0
 16 17  2  0
 16 18  2  0
 16 19  1  0
 19 20  1  0
 20 21  1  0
 21 22  1  0
 22 23  1  0
 23 24  1  0
 15 25  1  0
 25 26  1  0
 26 12  1  0
 24 19  1  0
M  END
>  <energy_score>  (4161) 
-59.236094

>  <inchikey>  (4161) 
BNQYRJJKGLVQQH-UHFFFAOYSA-N

>  <smiles>  (4161) 
COCCOCC(C)OC(=O)C1CCN(S(=O)(=O)N2CCCCC2)CC1

>  <ref_pdb>  (4161) 
A0875a

>  <alias>  (4161) 
BNQYRJJKGLVQQH-UHFFFAOYSA-N-P439-P87-P439-601505

>  <HIPPO Pose ID>  (4161) 
507845

>  <name>  (4161) 
BNQYRJJKGLVQQH-UHFFFAOYSA-N-P439-P87-P439-601505

>  <HIPPO Compound ID>  (4161) 
314458

>  <ref_mols>  (4161) 
A4706a,A0875a

>  <distance_score>  (4161) 
1.920094

>  <inspiration_score>  (4161) 
None

$$$$
FLJJMGQSNUBYKS-UHFFFAOYSA-N-P439-P87-P439-601505
     RDKit          3D

 26 28  0  0  0  0  0  0  0  0999 V2000
   10.7434   15.3601   19.0705 C   0  0  0  0  0  0  0  0  0  0  0  0
    9.5232   15.4909   19.7731 O   0  0  0  0  0  0  0  0  0  0  0  0
    9.4514   16.0846   21.1015 C   0  0  2  0  0  0  0  0  0  0  0  0
   10.6654   15.8007   22.0174 C   0  0  0  0  0  0  0  0  0  0  0  0
   10.6895   14.4975   22.5990 O   0  0  0  0  0  0  0  0  0  0  0  0
    9.9410   13.5824   21.8244 C   0  0  0  0  0  0  0  0  0  0  0  0
    8.4525   13.9338   21.7416 C   0  0  0  0  0  0  0  0  0  0  0  0
    8.1739   15.4294   21.7159 C   0  0  1  0  0  0  0  0  0  0  0  0
    7.7471   15.8760   23.0101 O   0  0  0  0  0  0  0  0  0  0  0  0
    6.5849   15.3022   23.5043 C   0  0  0  0  0  0  0  0  0  0  0  0
    5.5045   15.2643   22.9405 O   0  0  0  0  0  0  0  0  0  0  0  0
    6.9271   14.6382   24.8249 C   0  0  0  0  0  0  0  0  0  0  0  0
    6.4936   13.1898   25.0864 C   0  0  0  0  0  0  0  0  0  0  0  0
    7.3536   12.5218   26.1972 C   0  0  0  0  0  0  0  0  0  0  0  0
    8.4769   13.4234   26.6798 N   0  0  0  0  0  0  0  0  0  0  0  0
    9.7595   13.6036   25.5644 S   0  0  0  0  0  0  0  0  0  0  0  0
   10.1083   15.0041   25.5213 O   0  0  0  0  0  0  0  0  0  0  0  0
    9.3361   12.8582   24.4045 O   0  0  0  0  0  0  0  0  0  0  0  0
   11.1292   12.7848   26.1211 N   0  0  0  0  0  0  0  0  0  0  0  0
   12.0412   12.5932   24.9380 C   0  0  0  0  0  0  0  0  0  0  0  0
   13.1539   11.6471   25.3313 C   0  0  0  0  0  0  0  0  0  0  0  0
   14.0085   12.2701   26.4072 C   0  0  0  0  0  0  0  0  0  0  0  0
   13.1622   12.7861   27.5611 C   0  0  0  0  0  0  0  0  0  0  0  0
   11.8691   13.5228   27.1716 C   0  0  0  0  0  0  0  0  0  0  0  0
    7.8611   14.7175   27.1710 C   0  0  0  0  0  0  0  0  0  0  0  0
    6.9796   15.4295   26.1119 C   0  0  0  0  0  0  0  0  0  0  0  0
  1  2  1  0
  3  2  1  6
  3  4  1  0
  4  5  1  0
  5  6  1  0
  6  7  1  0
  7  8  1  0
  8  9  1  1
  9 10  1  0
 10 11  2  0
 10 12  1  0
 12 13  1  0
 13 14  1  0
 14 15  1  0
 15 16  1  0
 16 17  2  0
 16 18  2  0
 16 19  1  0
 19 20  1  0
 20 21  1  0
 21 22  1  0
 22 23  1  0
 23 24  1  0
 15 25  1  0
 25 26  1  0
  8  3  1  0
 26 12  1  0
 24 19  1  0
M  END
>  <energy_score>  (4162) 
-16.897298

>  <inchikey>  (4162) 
FLJJMGQSNUBYKS-UHFFFAOYSA-N

>  <smiles>  (4162) 
COC1COCCC1OC(=O)C1CCN(S(=O)(=O)N2CCCCC2)CC1

>  <ref_pdb>  (4162) 
A0875a

>  <alias>  (4162) 
FLJJMGQSNUBYKS-UHFFFAOYSA-N-P439-P87-P439-601505

>  <HIPPO Pose ID>  (4162) 
507847

>  <name>  (4162) 
FLJJMGQSNUBYKS-UHFFFAOYSA-N-P439-P87-P439-601505

>  <HIPPO Compound ID>  (4162) 
314459

>  <ref_mols>  (4162) 
A4706a,A0875a

>  <distance_score>  (4162) 
1.912575

>  <inspiration_score>  (4162) 
None

$$$$
FAAONHOJZROUAB-UHFFFAOYSA-N-P439-P87-P439-601505
     RDKit          3D

 26 28  0  0  0  0  0  0  0  0999 V2000
   10.6294   14.5885   19.5051 C   0  0  0  0  0  0  0  0  0  0  0  0
    9.7036   14.9567   20.6872 C   0  0  2  0  0  0  0  0  0  0  0  0
    9.9317   16.3753   20.8057 O   0  0  0  0  0  0  0  0  0  0  0  0
   11.1345   16.4607   21.5614 C   0  0  0  0  0  0  0  0  0  0  0  0
   10.9270   15.5444   22.7029 C   0  0  0  0  0  0  0  0  0  0  0  0
    9.9954   14.4541   22.1465 C   0  0  2  0  0  0  0  0  0  0  0  0
   10.7767   13.1418   22.2984 C   0  0  0  0  0  0  0  0  0  0  0  0
   10.0631   11.9263   22.6885 N   0  0  0  0  0  0  0  0  0  0  0  0
    8.8342   14.5188   23.0729 O   0  0  0  0  0  0  0  0  0  0  0  0
    7.6840   13.8463   22.9127 C   0  0  0  0  0  0  0  0  0  0  0  0
    7.3910   13.2205   21.8997 O   0  0  0  0  0  0  0  0  0  0  0  0
    6.7597   13.7938   24.1306 C   0  0  0  0  0  0  0  0  0  0  0  0
    6.8774   12.4156   24.8069 C   0  0  0  0  0  0  0  0  0  0  0  0
    8.1289   12.2898   25.6623 C   0  0  0  0  0  0  0  0  0  0  0  0
    8.3265   13.4435   26.5424 N   0  0  0  0  0  0  0  0  0  0  0  0
    9.7911   14.2564   26.6111 S   0  0  0  0  0  0  0  0  0  0  0  0
    9.9966   14.9720   25.3826 O   0  0  0  0  0  0  0  0  0  0  0  0
    9.7343   14.9866   27.8527 O   0  0  0  0  0  0  0  0  0  0  0  0
   11.0578   13.0881   26.7573 N   0  0  0  0  0  0  0  0  0  0  0  0
   12.1367   13.6629   27.6223 C   0  0  0  0  0  0  0  0  0  0  0  0
   13.3689   12.7590   27.7097 C   0  0  0  0  0  0  0  0  0  0  0  0
   13.9086   12.2751   26.3812 C   0  0  0  0  0  0  0  0  0  0  0  0
   12.7991   11.7928   25.4849 C   0  0  0  0  0  0  0  0  0  0  0  0
   11.6343   12.7527   25.4318 C   0  0  0  0  0  0  0  0  0  0  0  0
    7.1613   14.3783   26.5687 C   0  0  0  0  0  0  0  0  0  0  0  0
    6.8731   14.9156   25.1644 C   0  0  0  0  0  0  0  0  0  0  0  0
  2  1  1  6
  2  3  1  0
  3  4  1  0
  4  5  1  0
  5  6  1  0
  6  7  1  6
  7  8  1  0
  6  9  1  0
  9 10  1  0
 10 11  2  0
 10 12  1  0
 12 13  1  0
 13 14  1  0
 14 15  1  0
 15 16  1  0
 16 17  2  0
 16 18  2  0
 16 19  1  0
 19 20  1  0
 20 21  1  0
 21 22  1  0
 22 23  1  0
 23 24  1  0
 15 25  1  0
 25 26  1  0
  6  2  1  0
 26 12  1  0
 24 19  1  0
M  END
>  <energy_score>  (4163) 
-38.57254

>  <inchikey>  (4163) 
FAAONHOJZROUAB-UHFFFAOYSA-N

>  <smiles>  (4163) 
CC1OCCC1(CN)OC(=O)C1CCN(S(=O)(=O)N2CCCCC2)CC1

>  <ref_pdb>  (4163) 
A0875a

>  <alias>  (4163) 
FAAONHOJZROUAB-UHFFFAOYSA-N-P439-P87-P439-601505

>  <HIPPO Pose ID>  (4163) 
507851

>  <name>  (4163) 
FAAONHOJZROUAB-UHFFFAOYSA-N-P439-P87-P439-601505

>  <HIPPO Compound ID>  (4163) 
314461

>  <ref_mols>  (4163) 
A4706a,A0875a

>  <distance_score>  (4163) 
1.681342

>  <inspiration_score>  (4163) 
None

$$$$
SRYGEIKFCQBGBC-UHFFFAOYSA-N-P87-P87-P439-601505
     RDKit          3D

 26 27  0  0  0  0  0  0  0  0999 V2000
   17.3252    9.3796   26.6729 C   0  0  0  0  0  0  0  0  0  0  0  0
   16.2346   10.3021   26.5782 O   0  0  0  0  0  0  0  0  0  0  0  0
   16.4202   11.4434   27.3012 C   0  0  0  0  0  0  0  0  0  0  0  0
   17.4352   11.7126   27.9304 O   0  0  0  0  0  0  0  0  0  0  0  0
   15.2025   12.3735   27.2185 C   0  0  2  0  0  0  0  0  0  0  0  0
   14.9125   12.9523   28.6055 C   0  0  0  0  0  0  0  0  0  0  0  0
   14.6843   11.8925   29.5928 C   0  0  0  0  0  0  0  0  0  0  0  0
   14.4917   11.0259   30.3379 N   0  0  0  0  0  0  0  0  0  0  0  0
   14.0889   11.7131   26.5594 O   0  0  0  0  0  0  0  0  0  0  0  0
   13.0308   12.4566   26.1118 C   0  0  0  0  0  0  0  0  0  0  0  0
   12.5739   13.4240   26.6905 O   0  0  0  0  0  0  0  0  0  0  0  0
   12.5570   11.9056   24.7779 C   0  0  0  0  0  0  0  0  0  0  0  0
   12.6940   12.9326   23.6640 C   0  0  0  0  0  0  0  0  0  0  0  0
   11.4731   13.7105   23.2461 C   0  0  0  0  0  0  0  0  0  0  0  0
   10.2047   12.9737   23.4295 N   0  0  0  0  0  0  0  0  0  0  0  0
    9.1667   13.8590   24.3848 S   0  0  0  0  0  0  0  0  0  0  0  0
    9.0802   15.1264   23.7024 O   0  0  0  0  0  0  0  0  0  0  0  0
    9.6588   13.7340   25.7384 O   0  0  0  0  0  0  0  0  0  0  0  0
    7.7026   13.0554   24.2900 N   0  0  0  0  0  0  0  0  0  0  0  0
    7.4213   11.9709   25.2290 C   0  0  0  0  0  0  0  0  0  0  0  0
    6.6861   12.4345   26.4601 C   0  0  0  0  0  0  0  0  0  0  0  0
    5.4847   13.3149   26.2032 C   0  0  0  0  0  0  0  0  0  0  0  0
    5.3968   13.9971   24.8406 C   0  0  0  0  0  0  0  0  0  0  0  0
    6.5251   13.8262   23.8159 C   0  0  0  0  0  0  0  0  0  0  0  0
   10.3451   11.5365   23.5596 C   0  0  0  0  0  0  0  0  0  0  0  0
   11.1925   11.2156   24.7715 C   0  0  0  0  0  0  0  0  0  0  0  0
  1  2  1  0
  2  3  1  0
  3  4  2  0
  3  5  1  0
  5  6  1  1
  6  7  1  0
  7  8  3  0
  5  9  1  0
  9 10  1  0
 10 11  2  0
 10 12  1  0
 12 13  1  0
 13 14  1  0
 14 15  1  0
 15 16  1  0
 16 17  2  0
 16 18  2  0
 16 19  1  0
 19 20  1  0
 20 21  1  0
 21 22  1  0
 22 23  1  0
 23 24  1  0
 15 25  1  0
 25 26  1  0
 26 12  1  0
 24 19  1  0
M  END
>  <energy_score>  (4164) 
-26.484348

>  <inchikey>  (4164) 
SRYGEIKFCQBGBC-UHFFFAOYSA-N

>  <smiles>  (4164) 
COC(=O)C(CC#N)OC(=O)C1CCN(S(=O)(=O)N2CCCCC2)CC1

>  <ref_pdb>  (4164) 
A0875a

>  <alias>  (4164) 
SRYGEIKFCQBGBC-UHFFFAOYSA-N-P87-P87-P439-601505

>  <HIPPO Pose ID>  (4164) 
507856

>  <name>  (4164) 
SRYGEIKFCQBGBC-UHFFFAOYSA-N-P87-P87-P439-601505

>  <HIPPO Compound ID>  (4164) 
314464

>  <ref_mols>  (4164) 
A4706a,A0875a

>  <distance_score>  (4164) 
1.880483

>  <inspiration_score>  (4164) 
None

$$$$
SRYGEIKFCQBGBC-UHFFFAOYSA-N-P439-P87-P439-601505
     RDKit          3D

 26 27  0  0  0  0  0  0  0  0999 V2000
   15.6354    9.7971   25.6220 C   0  0  0  0  0  0  0  0  0  0  0  0
   16.6410    9.8041   26.6278 O   0  0  0  0  0  0  0  0  0  0  0  0
   16.7838   10.8285   27.4967 C   0  0  0  0  0  0  0  0  0  0  0  0
   17.8782   11.0368   28.0120 O   0  0  0  0  0  0  0  0  0  0  0  0
   15.5211   11.6178   27.8791 C   0  0  1  0  0  0  0  0  0  0  0  0
   15.9527   12.5676   29.0075 C   0  0  0  0  0  0  0  0  0  0  0  0
   14.8565   13.3277   29.6049 C   0  0  0  0  0  0  0  0  0  0  0  0
   14.0296   13.9921   30.0713 N   0  0  0  0  0  0  0  0  0  0  0  0
   14.8988   12.2413   26.7169 O   0  0  0  0  0  0  0  0  0  0  0  0
   13.5349   12.1686   26.7166 C   0  0  0  0  0  0  0  0  0  0  0  0
   12.9078   12.0565   27.7544 O   0  0  0  0  0  0  0  0  0  0  0  0
   12.8761   12.1259   25.3295 C   0  0  0  0  0  0  0  0  0  0  0  0
   12.6649   13.4754   24.6917 C   0  0  0  0  0  0  0  0  0  0  0  0
   11.4357   14.1965   25.2172 C   0  0  0  0  0  0  0  0  0  0  0  0
   10.2186   13.3685   25.0511 N   0  0  0  0  0  0  0  0  0  0  0  0
    8.8221   14.2262   24.7776 S   0  0  0  0  0  0  0  0  0  0  0  0
    8.5194   14.1550   23.3727 O   0  0  0  0  0  0  0  0  0  0  0  0
    9.0183   15.4761   25.4704 O   0  0  0  0  0  0  0  0  0  0  0  0
    7.6804   13.3764   25.6585 N   0  0  0  0  0  0  0  0  0  0  0  0
    7.0033   12.2205   25.0462 C   0  0  0  0  0  0  0  0  0  0  0  0
    6.5605   11.3284   26.2004 C   0  0  0  0  0  0  0  0  0  0  0  0
    5.5642   12.0686   27.0924 C   0  0  0  0  0  0  0  0  0  0  0  0
    6.1075   13.4233   27.5392 C   0  0  0  0  0  0  0  0  0  0  0  0
    6.6855   14.2259   26.3768 C   0  0  0  0  0  0  0  0  0  0  0  0
   10.4387   12.0519   24.4620 C   0  0  0  0  0  0  0  0  0  0  0  0
   11.5012   11.4446   25.3702 C   0  0  0  0  0  0  0  0  0  0  0  0
  1  2  1  0
  2  3  1  0
  3  4  2  0
  3  5  1  0
  5  6  1  1
  6  7  1  0
  7  8  3  0
  5  9  1  0
  9 10  1  0
 10 11  2  0
 10 12  1  0
 12 13  1  0
 13 14  1  0
 14 15  1  0
 15 16  1  0
 16 17  2  0
 16 18  2  0
 16 19  1  0
 19 20  1  0
 20 21  1  0
 21 22  1  0
 22 23  1  0
 23 24  1  0
 15 25  1  0
 25 26  1  0
 26 12  1  0
 24 19  1  0
M  END
>  <energy_score>  (4165) 
-26.896415

>  <inchikey>  (4165) 
SRYGEIKFCQBGBC-UHFFFAOYSA-N

>  <smiles>  (4165) 
COC(=O)C(CC#N)OC(=O)C1CCN(S(=O)(=O)N2CCCCC2)CC1

>  <ref_pdb>  (4165) 
A0875a

>  <alias>  (4165) 
SRYGEIKFCQBGBC-UHFFFAOYSA-N-P439-P87-P439-601505

>  <HIPPO Pose ID>  (4165) 
507857

>  <name>  (4165) 
SRYGEIKFCQBGBC-UHFFFAOYSA-N-P439-P87-P439-601505

>  <HIPPO Compound ID>  (4165) 
314464

>  <ref_mols>  (4165) 
A4706a,A0875a

>  <distance_score>  (4165) 
1.800954

>  <inspiration_score>  (4165) 
None

$$$$
GIHBHSMMDWEVBT-UHFFFAOYSA-N-P439-P87-P439-601505
     RDKit          3D

 26 29  0  0  0  0  0  0  0  0999 V2000
    5.8843   14.6166   22.3160 O   0  0  0  0  0  0  0  0  0  0  0  0
    6.7825   14.8163   23.1141 C   0  0  0  0  0  0  0  0  0  0  0  0
    7.9403   15.5352   22.9143 O   0  0  0  0  0  0  0  0  0  0  0  0
    8.2920   15.8317   21.5757 C   0  0  2  0  0  0  0  0  0  0  0  0
    8.4308   14.5719   20.7766 C   0  0  0  0  0  0  0  0  0  0  0  0
    9.1660   14.9232   19.6163 O   0  0  0  0  0  0  0  0  0  0  0  0
   10.0351   15.9748   19.9459 C   0  0  2  0  0  0  0  0  0  0  0  0
   11.3616   15.4796   19.9562 O   0  0  0  0  0  0  0  0  0  0  0  0
   11.6289   15.0453   21.2770 C   0  0  0  0  0  0  0  0  0  0  0  0
   10.8300   15.9468   22.1778 C   0  0  0  0  0  0  0  0  0  0  0  0
    9.6688   16.4339   21.3435 C   0  0  2  0  0  0  0  0  0  0  0  0
    6.8881   14.2325   24.4865 C   0  0  0  0  0  0  0  0  0  0  0  0
    6.3312   12.8735   24.8590 C   0  0  0  0  0  0  0  0  0  0  0  0
    7.0475   12.3816   26.1364 C   0  0  0  0  0  0  0  0  0  0  0  0
    7.8247   13.4631   26.8004 N   0  0  0  0  0  0  0  0  0  0  0  0
    9.4491   13.8716   26.5055 S   0  0  0  0  0  0  0  0  0  0  0  0
    9.9627   14.3003   27.7830 O   0  0  0  0  0  0  0  0  0  0  0  0
    9.5731   14.7807   25.3917 O   0  0  0  0  0  0  0  0  0  0  0  0
   10.2601   12.4386   26.1088 N   0  0  0  0  0  0  0  0  0  0  0  0
   10.0353   11.8090   24.7823 C   0  0  0  0  0  0  0  0  0  0  0  0
   10.6702   12.6083   23.6718 C   0  0  0  0  0  0  0  0  0  0  0  0
   12.1001   13.0129   23.9723 C   0  0  0  0  0  0  0  0  0  0  0  0
   12.3755   13.4732   25.3705 C   0  0  0  0  0  0  0  0  0  0  0  0
   11.7294   12.5549   26.3614 C   0  0  0  0  0  0  0  0  0  0  0  0
    6.9618   14.6693   26.9695 C   0  0  0  0  0  0  0  0  0  0  0  0
    6.6416   15.2560   25.5924 C   0  0  0  0  0  0  0  0  0  0  0  0
  1  2  2  0
  2  3  1  0
  4  3  1  1
  4  5  1  0
  5  6  1  0
  7  6  1  1
  7  8  1  0
  8  9  1  0
  9 10  1  0
 11 10  1  1
  2 12  1  0
 12 13  1  0
 13 14  1  0
 14 15  1  0
 15 16  1  0
 16 17  2  0
 16 18  2  0
 16 19  1  0
 19 20  1  0
 20 21  1  0
 21 22  1  0
 22 23  1  0
 23 24  1  0
 15 25  1  0
 25 26  1  0
 11  4  1  0
 26 12  1  0
 11  7  1  0
 24 19  1  0
M  END
>  <energy_score>  (4166) 
-19.340194

>  <inchikey>  (4166) 
GIHBHSMMDWEVBT-UHFFFAOYSA-N

>  <smiles>  (4166) 
O=C(OC1COC2OCCC12)C1CCN(S(=O)(=O)N2CCCCC2)CC1

>  <ref_pdb>  (4166) 
A0875a

>  <alias>  (4166) 
GIHBHSMMDWEVBT-UHFFFAOYSA-N-P439-P87-P439-601505

>  <HIPPO Pose ID>  (4166) 
507861

>  <name>  (4166) 
GIHBHSMMDWEVBT-UHFFFAOYSA-N-P439-P87-P439-601505

>  <HIPPO Compound ID>  (4166) 
314466

>  <ref_mols>  (4166) 
A4706a,A0875a

>  <distance_score>  (4166) 
1.864615

>  <inspiration_score>  (4166) 
None

$$$$
PAOHWRKRWMSODW-UHFFFAOYSA-N-P439-P87-P439-601505
     RDKit          3D

 26 28  0  0  0  0  0  0  0  0999 V2000
    8.3868   17.8616   20.8900 C   0  0  0  0  0  0  0  0  0  0  0  0
    8.4369   16.4165   21.3925 C   0  0  2  0  0  0  0  0  0  0  0  0
    7.6349   16.1558   22.5776 O   0  0  0  0  0  0  0  0  0  0  0  0
    6.9007   15.0028   22.6228 C   0  0  0  0  0  0  0  0  0  0  0  0
    6.8526   14.1635   21.7235 O   0  0  0  0  0  0  0  0  0  0  0  0
    6.0157   14.8773   23.8870 C   0  0  0  0  0  0  0  0  0  0  0  0
    5.6673   13.4022   24.2133 C   0  0  0  0  0  0  0  0  0  0  0  0
    6.6937   12.6027   25.0324 C   0  0  0  0  0  0  0  0  0  0  0  0
    7.6229   13.4973   25.7568 N   0  0  0  0  0  0  0  0  0  0  0  0
    9.0732   13.8315   24.9457 S   0  0  0  0  0  0  0  0  0  0  0  0
    8.9134   13.4127   23.5809 O   0  0  0  0  0  0  0  0  0  0  0  0
    9.5119   15.1372   25.3699 O   0  0  0  0  0  0  0  0  0  0  0  0
   10.0875   12.7277   25.6914 N   0  0  0  0  0  0  0  0  0  0  0  0
   10.9616   11.9086   24.8289 C   0  0  0  0  0  0  0  0  0  0  0  0
   12.3736   11.7584   25.3983 C   0  0  0  0  0  0  0  0  0  0  0  0
   12.9772   13.0742   25.7802 C   0  0  0  0  0  0  0  0  0  0  0  0
   12.0216   13.9253   26.6095 C   0  0  0  0  0  0  0  0  0  0  0  0
   10.7056   13.2684   26.8909 C   0  0  0  0  0  0  0  0  0  0  0  0
    6.9130   14.6805   26.2911 C   0  0  0  0  0  0  0  0  0  0  0  0
    6.4757   15.6080   25.1573 C   0  0  0  0  0  0  0  0  0  0  0  0
    9.9266   16.0390   21.4397 C   0  0  2  0  0  0  0  0  0  0  0  0
   10.1826   15.0838   20.2377 C   0  0  0  0  0  0  0  0  0  0  0  0
   11.4559   14.3650   20.2966 N   0  0  0  0  0  0  0  0  0  0  0  0
   11.5010   13.8102   21.6552 C   0  0  0  0  0  0  0  0  0  0  0  0
   11.5844   14.9434   22.6498 C   0  0  0  0  0  0  0  0  0  0  0  0
   10.3052   15.5453   22.7166 O   0  0  0  0  0  0  0  0  0  0  0  0
  2  1  1  1
  2  3  1  0
  3  4  1  0
  4  5  2  0
  4  6  1  0
  6  7  1  0
  7  8  1  0
  8  9  1  0
  9 10  1  0
 10 11  2  0
 10 12  2  0
 10 13  1  0
 13 14  1  0
 14 15  1  0
 15 16  1  0
 16 17  1  0
 17 18  1  0
  9 19  1  0
 19 20  1  0
  2 21  1  0
 21 22  1  6
 22 23  1  0
 23 24  1  0
 24 25  1  0
 25 26  1  0
 20  6  1  0
 26 21  1  0
 18 13  1  0
M  END
>  <energy_score>  (4167) 
-29.970056

>  <inchikey>  (4167) 
PAOHWRKRWMSODW-UHFFFAOYSA-N

>  <smiles>  (4167) 
CC(OC(=O)C1CCN(S(=O)(=O)N2CCCCC2)CC1)C1CNCCO1

>  <ref_pdb>  (4167) 
A0875a

>  <alias>  (4167) 
PAOHWRKRWMSODW-UHFFFAOYSA-N-P439-P87-P439-601505

>  <HIPPO Pose ID>  (4167) 
507863

>  <name>  (4167) 
PAOHWRKRWMSODW-UHFFFAOYSA-N-P439-P87-P439-601505

>  <HIPPO Compound ID>  (4167) 
314467

>  <ref_mols>  (4167) 
A4706a,A0875a

>  <distance_score>  (4167) 
1.833214

>  <inspiration_score>  (4167) 
None

$$$$
UVWGHOWMUZHEDH-UHFFFAOYSA-N-P439-P87-P439-601505
     RDKit          3D

 26 28  0  0  0  0  0  0  0  0999 V2000
   10.3064   14.9173   18.3723 C   0  0  0  0  0  0  0  0  0  0  0  0
    9.9735   15.8976   19.3249 O   0  0  0  0  0  0  0  0  0  0  0  0
    9.9876   15.3941   20.6503 C   0  0  2  0  0  0  0  0  0  0  0  0
    8.7271   14.5383   20.9169 C   0  0  0  0  0  0  0  0  0  0  0  0
    8.1109   14.7738   22.1880 O   0  0  0  0  0  0  0  0  0  0  0  0
    7.1297   13.9083   22.5720 C   0  0  0  0  0  0  0  0  0  0  0  0
    6.4192   13.2379   21.8437 O   0  0  0  0  0  0  0  0  0  0  0  0
    7.1339   13.8323   24.0646 C   0  0  0  0  0  0  0  0  0  0  0  0
    6.8981   12.4378   24.6504 C   0  0  0  0  0  0  0  0  0  0  0  0
    7.2730   12.3961   26.1336 C   0  0  0  0  0  0  0  0  0  0  0  0
    7.9939   13.6328   26.5035 N   0  0  0  0  0  0  0  0  0  0  0  0
    9.6507   13.8225   26.1393 S   0  0  0  0  0  0  0  0  0  0  0  0
    9.8217   15.1047   25.4996 O   0  0  0  0  0  0  0  0  0  0  0  0
   10.3945   13.4815   27.3216 O   0  0  0  0  0  0  0  0  0  0  0  0
    9.9418   12.6146   24.9902 N   0  0  0  0  0  0  0  0  0  0  0  0
   10.5669   12.9704   23.7277 C   0  0  0  0  0  0  0  0  0  0  0  0
   12.0398   13.2478   23.9114 C   0  0  0  0  0  0  0  0  0  0  0  0
   12.6972   12.7142   25.1516 C   0  0  0  0  0  0  0  0  0  0  0  0
   12.0361   11.4953   25.7053 C   0  0  0  0  0  0  0  0  0  0  0  0
   10.5278   11.3561   25.4184 C   0  0  0  0  0  0  0  0  0  0  0  0
    7.1146   14.8406   26.3371 C   0  0  0  0  0  0  0  0  0  0  0  0
    6.5066   14.9088   24.9195 C   0  0  0  0  0  0  0  0  0  0  0  0
   10.0242   16.5883   21.5484 C   0  0  0  0  0  0  0  0  0  0  0  0
   11.0063   16.1703   22.5933 C   0  0  0  0  0  0  0  0  0  0  0  0
   11.9738   15.3443   21.9911 O   0  0  0  0  0  0  0  0  0  0  0  0
   11.3341   14.6909   20.9161 C   0  0  0  0  0  0  0  0  0  0  0  0
  1  2  1  0
  2  3  1  0
  3  4  1  1
  4  5  1  0
  5  6  1  0
  6  7  2  0
  6  8  1  0
  8  9  1  0
  9 10  1  0
 10 11  1  0
 11 12  1  0
 12 13  2  0
 12 14  2  0
 12 15  1  0
 15 16  1  0
 16 17  1  0
 17 18  1  0
 18 19  1  0
 19 20  1  0
 11 21  1  0
 21 22  1  0
  3 23  1  0
 23 24  1  0
 24 25  1  0
 25 26  1  0
 26  3  1  0
 22  8  1  0
 20 15  1  0
M  END
>  <energy_score>  (4168) 
-18.966419

>  <inchikey>  (4168) 
UVWGHOWMUZHEDH-UHFFFAOYSA-N

>  <smiles>  (4168) 
COC1(COC(=O)C2CCN(S(=O)(=O)N3CCCCC3)CC2)CCOC1

>  <ref_pdb>  (4168) 
A0875a

>  <alias>  (4168) 
UVWGHOWMUZHEDH-UHFFFAOYSA-N-P439-P87-P439-601505

>  <HIPPO Pose ID>  (4168) 
507865

>  <name>  (4168) 
UVWGHOWMUZHEDH-UHFFFAOYSA-N-P439-P87-P439-601505

>  <HIPPO Compound ID>  (4168) 
314468

>  <ref_mols>  (4168) 
A4706a,A0875a

>  <distance_score>  (4168) 
1.672892

>  <inspiration_score>  (4168) 
None

$$$$
VTPXYHJESWGONK-UHFFFAOYSA-N-P87-P87-P439-601505
     RDKit          3D

 26 28  0  0  0  0  0  0  0  0999 V2000
    8.5952   17.5109   23.3421 N   0  0  0  0  0  0  0  0  0  0  0  0
    8.5454   17.2107   21.9282 C   0  0  0  0  0  0  0  0  0  0  0  0
    9.0377   15.8213   21.5413 C   0  0  2  0  0  0  0  0  0  0  0  0
    8.3490   14.6187   21.9758 O   0  0  0  0  0  0  0  0  0  0  0  0
    7.5083   14.5910   23.0286 C   0  0  0  0  0  0  0  0  0  0  0  0
    6.8399   15.5155   23.4499 O   0  0  0  0  0  0  0  0  0  0  0  0
    7.3944   13.1843   23.6013 C   0  0  0  0  0  0  0  0  0  0  0  0
    8.6783   12.3147   23.4753 C   0  0  0  0  0  0  0  0  0  0  0  0
    9.0845   11.5744   24.7174 C   0  0  0  0  0  0  0  0  0  0  0  0
    9.0490   12.5131   25.8147 N   0  0  0  0  0  0  0  0  0  0  0  0
   10.0448   13.9064   25.7072 S   0  0  0  0  0  0  0  0  0  0  0  0
   10.1403   14.4932   27.0277 O   0  0  0  0  0  0  0  0  0  0  0  0
    9.6272   14.6312   24.5474 O   0  0  0  0  0  0  0  0  0  0  0  0
   11.5437   13.3353   25.3738 N   0  0  0  0  0  0  0  0  0  0  0  0
   12.4884   13.0189   26.4054 C   0  0  0  0  0  0  0  0  0  0  0  0
   13.7193   12.2502   25.9556 C   0  0  0  0  0  0  0  0  0  0  0  0
   13.4448   11.4522   24.7153 C   0  0  0  0  0  0  0  0  0  0  0  0
   12.5199   12.1571   23.7055 C   0  0  0  0  0  0  0  0  0  0  0  0
   12.0858   13.4950   24.0753 C   0  0  0  0  0  0  0  0  0  0  0  0
    7.6133   12.6993   26.1593 C   0  0  0  0  0  0  0  0  0  0  0  0
    6.7247   13.0750   24.9821 C   0  0  0  0  0  0  0  0  0  0  0  0
   10.5274   15.6207   21.7441 C   0  0  1  0  0  0  0  0  0  0  0  0
   10.9839   14.3872   20.9972 C   0  0  0  0  0  0  0  0  0  0  0  0
   12.4170   14.6731   20.7069 C   0  0  0  0  0  0  0  0  0  0  0  0
   12.5779   16.1638   20.8456 C   0  0  0  0  0  0  0  0  0  0  0  0
   11.3316   16.7030   21.2743 O   0  0  0  0  0  0  0  0  0  0  0  0
  1  2  1  0
  3  2  1  1
  3  4  1  0
  4  5  1  0
  5  6  2  0
  5  7  1  0
  7  8  1  0
  8  9  1  0
  9 10  1  0
 10 11  1  0
 11 12  2  0
 11 13  2  0
 11 14  1  0
 14 15  1  0
 15 16  1  0
 16 17  1  0
 17 18  1  0
 18 19  1  0
 10 20  1  0
 20 21  1  0
  3 22  1  0
 22 23  1  6
 23 24  1  0
 24 25  1  0
 25 26  1  0
 21  7  1  0
 26 22  1  0
 19 14  1  0
M  END
>  <energy_score>  (4169) 
-12.262343

>  <inchikey>  (4169) 
VTPXYHJESWGONK-UHFFFAOYSA-N

>  <smiles>  (4169) 
NCC(OC(=O)C1CCN(S(=O)(=O)N2CCCCC2)CC1)C1CCCO1

>  <ref_pdb>  (4169) 
A0875a

>  <alias>  (4169) 
VTPXYHJESWGONK-UHFFFAOYSA-N-P87-P87-P439-601505

>  <HIPPO Pose ID>  (4169) 
507868

>  <name>  (4169) 
VTPXYHJESWGONK-UHFFFAOYSA-N-P87-P87-P439-601505

>  <HIPPO Compound ID>  (4169) 
314470

>  <ref_mols>  (4169) 
A4706a,A0875a

>  <distance_score>  (4169) 
1.72275

>  <inspiration_score>  (4169) 
None

$$$$
VTPXYHJESWGONK-UHFFFAOYSA-N-P439-P87-P439-601505
     RDKit          3D

 26 28  0  0  0  0  0  0  0  0999 V2000
    5.3019   15.7690   21.9757 N   0  0  0  0  0  0  0  0  0  0  0  0
    6.6869   16.2959   22.0765 C   0  0  0  0  0  0  0  0  0  0  0  0
    7.7417   15.2030   22.2708 C   0  0  2  0  0  0  0  0  0  0  0  0
    7.4704   14.8548   23.6421 O   0  0  0  0  0  0  0  0  0  0  0  0
    6.6066   13.8152   23.8048 C   0  0  0  0  0  0  0  0  0  0  0  0
    6.3054   13.0076   22.9273 O   0  0  0  0  0  0  0  0  0  0  0  0
    5.9661   13.7885   25.1882 C   0  0  0  0  0  0  0  0  0  0  0  0
    6.0047   12.3565   25.7265 C   0  0  0  0  0  0  0  0  0  0  0  0
    7.4321   11.8847   25.9732 C   0  0  0  0  0  0  0  0  0  0  0  0
    8.2730   12.9815   26.5088 N   0  0  0  0  0  0  0  0  0  0  0  0
    9.5513   13.5504   25.5614 S   0  0  0  0  0  0  0  0  0  0  0  0
    9.9485   14.8316   26.0903 O   0  0  0  0  0  0  0  0  0  0  0  0
    9.2395   13.3039   24.1822 O   0  0  0  0  0  0  0  0  0  0  0  0
   10.7693   12.4161   25.9334 N   0  0  0  0  0  0  0  0  0  0  0  0
   12.0970   13.0842   25.9285 C   0  0  0  0  0  0  0  0  0  0  0  0
   13.1855   12.1095   26.3291 C   0  0  0  0  0  0  0  0  0  0  0  0
   13.1909   10.9237   25.3851 C   0  0  0  0  0  0  0  0  0  0  0  0
   11.7976   10.2530   25.2593 C   0  0  0  0  0  0  0  0  0  0  0  0
   10.6969   11.2584   24.9917 C   0  0  0  0  0  0  0  0  0  0  0  0
    7.4885   14.0354   27.2016 C   0  0  0  0  0  0  0  0  0  0  0  0
    6.5643   14.7510   26.2238 C   0  0  0  0  0  0  0  0  0  0  0  0
    9.1783   15.7479   21.9321 C   0  0  2  0  0  0  0  0  0  0  0  0
    9.5746   15.5421   20.4613 C   0  0  0  0  0  0  0  0  0  0  0  0
   10.9692   14.9679   20.5100 C   0  0  0  0  0  0  0  0  0  0  0  0
   10.9952   14.3082   21.8635 C   0  0  0  0  0  0  0  0  0  0  0  0
   10.2385   15.1714   22.7100 O   0  0  0  0  0  0  0  0  0  0  0  0
  1  2  1  0
  3  2  1  1
  3  4  1  0
  4  5  1  0
  5  6  2  0
  5  7  1  0
  7  8  1  0
  8  9  1  0
  9 10  1  0
 10 11  1  0
 11 12  2  0
 11 13  2  0
 11 14  1  0
 14 15  1  0
 15 16  1  0
 16 17  1  0
 17 18  1  0
 18 19  1  0
 10 20  1  0
 20 21  1  0
  3 22  1  0
 22 23  1  6
 23 24  1  0
 24 25  1  0
 25 26  1  0
 21  7  1  0
 26 22  1  0
 19 14  1  0
M  END
>  <energy_score>  (4170) 
-45.413768

>  <inchikey>  (4170) 
VTPXYHJESWGONK-UHFFFAOYSA-N

>  <smiles>  (4170) 
NCC(OC(=O)C1CCN(S(=O)(=O)N2CCCCC2)CC1)C1CCCO1

>  <ref_pdb>  (4170) 
A0875a

>  <alias>  (4170) 
VTPXYHJESWGONK-UHFFFAOYSA-N-P439-P87-P439-601505

>  <HIPPO Pose ID>  (4170) 
507869

>  <name>  (4170) 
VTPXYHJESWGONK-UHFFFAOYSA-N-P439-P87-P439-601505

>  <HIPPO Compound ID>  (4170) 
314470

>  <ref_mols>  (4170) 
A4706a,A0875a

>  <distance_score>  (4170) 
1.382052

>  <inspiration_score>  (4170) 
None

$$$$
MOLJTLPXQKBXOS-UHFFFAOYSA-N-P439-P87-P439-601505
     RDKit          3D

 26 28  0  0  0  0  0  0  0  0999 V2000
    7.5946   15.7891   21.8529 C   0  0  0  0  0  0  0  0  0  0  0  0
    8.7083   15.2314   22.7284 C   0  0  1  0  0  0  0  0  0  0  0  0
    8.5380   13.8448   23.1165 O   0  0  0  0  0  0  0  0  0  0  0  0
    7.2911   13.3320   23.0407 C   0  0  0  0  0  0  0  0  0  0  0  0
    6.7390   13.0972   21.9707 O   0  0  0  0  0  0  0  0  0  0  0  0
    6.6181   12.9416   24.3439 C   0  0  0  0  0  0  0  0  0  0  0  0
    7.3461   11.7700   25.0225 C   0  0  0  0  0  0  0  0  0  0  0  0
    8.2112   12.2381   26.1844 C   0  0  0  0  0  0  0  0  0  0  0  0
    8.6812   13.5737   25.8201 N   0  0  0  0  0  0  0  0  0  0  0  0
   10.1721   14.1640   26.2239 S   0  0  0  0  0  0  0  0  0  0  0  0
   10.0733   14.5361   27.6127 O   0  0  0  0  0  0  0  0  0  0  0  0
   10.5538   15.1351   25.2282 O   0  0  0  0  0  0  0  0  0  0  0  0
   11.2527   12.9041   26.1405 N   0  0  0  0  0  0  0  0  0  0  0  0
   11.4318   12.1280   24.8974 C   0  0  0  0  0  0  0  0  0  0  0  0
   12.3946   11.0063   25.3137 C   0  0  0  0  0  0  0  0  0  0  0  0
   13.8220   11.4488   25.5100 C   0  0  0  0  0  0  0  0  0  0  0  0
   13.7806   12.8703   26.0257 C   0  0  0  0  0  0  0  0  0  0  0  0
   12.5353   13.1350   26.8914 C   0  0  0  0  0  0  0  0  0  0  0  0
    7.5907   14.5685   26.0348 C   0  0  0  0  0  0  0  0  0  0  0  0
    6.3591   14.1392   25.2541 C   0  0  0  0  0  0  0  0  0  0  0  0
   10.1442   15.5703   22.2147 C   0  0  1  0  0  0  0  0  0  0  0  0
   11.0033   14.4509   21.6971 C   0  0  0  0  0  0  0  0  0  0  0  0
   10.6060   14.3986   20.2503 C   0  0  0  0  0  0  0  0  0  0  0  0
   10.1843   15.7809   19.9438 C   0  0  0  0  0  0  0  0  0  0  0  0
    9.9080   16.2199   18.8444 O   0  0  0  0  0  0  0  0  0  0  0  0
   10.0924   16.4801   21.1024 O   0  0  0  0  0  0  0  0  0  0  0  0
  2  1  1  6
  2  3  1  0
  3  4  1  0
  4  5  2  0
  4  6  1  0
  6  7  1  0
  7  8  1  0
  8  9  1  0
  9 10  1  0
 10 11  2  0
 10 12  2  0
 10 13  1  0
 13 14  1  0
 14 15  1  0
 15 16  1  0
 16 17  1  0
 17 18  1  0
  9 19  1  0
 19 20  1  0
  2 21  1  0
 21 22  1  6
 22 23  1  0
 23 24  1  0
 24 25  2  0
 24 26  1  0
 20  6  1  0
 26 21  1  0
 18 13  1  0
M  END
>  <energy_score>  (4171) 
-25.803166

>  <inchikey>  (4171) 
MOLJTLPXQKBXOS-UHFFFAOYSA-N

>  <smiles>  (4171) 
CC(OC(=O)C1CCN(S(=O)(=O)N2CCCCC2)CC1)C1CCC(=O)O1

>  <ref_pdb>  (4171) 
A0875a

>  <alias>  (4171) 
MOLJTLPXQKBXOS-UHFFFAOYSA-N-P439-P87-P439-601505

>  <HIPPO Pose ID>  (4171) 
507871

>  <name>  (4171) 
MOLJTLPXQKBXOS-UHFFFAOYSA-N-P439-P87-P439-601505

>  <HIPPO Compound ID>  (4171) 
314471

>  <ref_mols>  (4171) 
A4706a,A0875a

>  <distance_score>  (4171) 
1.473502

>  <inspiration_score>  (4171) 
None

$$$$
IUDKIKIIGLJUOE-UHFFFAOYSA-N-P439-P87-P439-601505
     RDKit          3D

 26 28  0  0  0  0  0  0  0  0999 V2000
    7.0605   13.3806   22.5906 O   0  0  0  0  0  0  0  0  0  0  0  0
    6.7693   14.2482   23.4156 C   0  0  0  0  0  0  0  0  0  0  0  0
    7.1153   15.5613   23.3167 O   0  0  0  0  0  0  0  0  0  0  0  0
    8.0566   15.8957   22.2593 C   0  0  0  0  0  0  0  0  0  0  0  0
    9.5047   15.4649   22.6288 C   0  0  0  0  0  0  0  0  0  0  0  0
   10.5460   15.8049   21.7257 O   0  0  0  0  0  0  0  0  0  0  0  0
   10.8625   14.6804   20.9273 C   0  0  2  0  0  0  0  0  0  0  0  0
   11.9582   15.0013   19.9627 C   0  0  0  0  0  0  0  0  0  0  0  0
   11.2470   15.3624   18.6575 C   0  0  0  0  0  0  0  0  0  0  0  0
    9.8580   15.4386   18.9780 O   0  0  0  0  0  0  0  0  0  0  0  0
    9.7541   14.4359   19.9781 C   0  0  0  0  0  0  0  0  0  0  0  0
    5.9241   13.9442   24.6655 C   0  0  0  0  0  0  0  0  0  0  0  0
    6.0423   12.4537   25.0127 C   0  0  0  0  0  0  0  0  0  0  0  0
    7.3920   12.0551   25.5989 C   0  0  0  0  0  0  0  0  0  0  0  0
    7.8753   13.0165   26.6192 N   0  0  0  0  0  0  0  0  0  0  0  0
    9.2353   13.9222   26.2344 S   0  0  0  0  0  0  0  0  0  0  0  0
    9.4573   14.8535   27.3118 O   0  0  0  0  0  0  0  0  0  0  0  0
    9.0303   14.3996   24.9045 O   0  0  0  0  0  0  0  0  0  0  0  0
   10.5909   12.9671   26.1626 N   0  0  0  0  0  0  0  0  0  0  0  0
   11.7909   13.8491   25.9657 C   0  0  0  0  0  0  0  0  0  0  0  0
   12.6417   13.3997   24.7824 C   0  0  0  0  0  0  0  0  0  0  0  0
   13.2018   12.0327   25.0798 C   0  0  0  0  0  0  0  0  0  0  0  0
   12.0758   11.1853   25.5845 C   0  0  0  0  0  0  0  0  0  0  0  0
   10.6650   11.7515   25.3386 C   0  0  0  0  0  0  0  0  0  0  0  0
    6.7607   13.9117   27.0882 C   0  0  0  0  0  0  0  0  0  0  0  0
    6.2139   14.7679   25.9310 C   0  0  0  0  0  0  0  0  0  0  0  0
  1  2  2  0
  2  3  1  0
  3  4  1  0
  4  5  1  0
  5  6  1  0
  7  6  1  1
  7  8  1  0
  8  9  1  0
  9 10  1  0
 10 11  1  0
  2 12  1  0
 12 13  1  0
 13 14  1  0
 14 15  1  0
 15 16  1  0
 16 17  2  0
 16 18  2  0
 16 19  1  0
 19 20  1  0
 20 21  1  0
 21 22  1  0
 22 23  1  0
 23 24  1  0
 15 25  1  0
 25 26  1  0
 11  7  1  0
 26 12  1  0
 24 19  1  0
M  END
>  <energy_score>  (4172) 
-36.201334

>  <inchikey>  (4172) 
IUDKIKIIGLJUOE-UHFFFAOYSA-N

>  <smiles>  (4172) 
O=C(OCCOC1CCOC1)C1CCN(S(=O)(=O)N2CCCCC2)CC1

>  <ref_pdb>  (4172) 
A0875a

>  <alias>  (4172) 
IUDKIKIIGLJUOE-UHFFFAOYSA-N-P439-P87-P439-601505

>  <HIPPO Pose ID>  (4172) 
507873

>  <name>  (4172) 
IUDKIKIIGLJUOE-UHFFFAOYSA-N-P439-P87-P439-601505

>  <HIPPO Compound ID>  (4172) 
314472

>  <ref_mols>  (4172) 
A4706a,A0875a

>  <distance_score>  (4172) 
1.624603

>  <inspiration_score>  (4172) 
None

$$$$
GHXAEYSXUNBQFX-UHFFFAOYSA-N-P439-P87-P439-601505
     RDKit          3D

 26 28  0  0  0  0  0  0  0  0999 V2000
   11.6030   15.0161   18.3373 C   0  0  0  0  0  0  0  0  0  0  0  0
   10.2708   14.9747   19.0043 C   0  0  0  0  0  0  0  0  0  0  0  0
   10.2793   15.8307   20.1305 O   0  0  0  0  0  0  0  0  0  0  0  0
    9.9633   15.2157   21.4214 C   0  0  0  0  0  0  0  0  0  0  0  0
    8.4236   15.2275   21.5574 C   0  0  0  0  0  0  0  0  0  0  0  0
    7.8707   15.0183   22.8849 O   0  0  0  0  0  0  0  0  0  0  0  0
    7.1103   13.9098   23.0863 C   0  0  0  0  0  0  0  0  0  0  0  0
    6.9359   13.0322   22.2428 O   0  0  0  0  0  0  0  0  0  0  0  0
    6.4066   13.8388   24.4537 C   0  0  0  0  0  0  0  0  0  0  0  0
    6.4854   12.4194   25.0590 C   0  0  0  0  0  0  0  0  0  0  0  0
    7.7708   12.0762   25.8170 C   0  0  0  0  0  0  0  0  0  0  0  0
    8.3692   13.2665   26.4743 N   0  0  0  0  0  0  0  0  0  0  0  0
    9.7198   13.9215   25.6919 S   0  0  0  0  0  0  0  0  0  0  0  0
    9.9230   15.2358   26.2477 O   0  0  0  0  0  0  0  0  0  0  0  0
    9.4887   13.7084   24.2931 O   0  0  0  0  0  0  0  0  0  0  0  0
   10.9996   12.8961   26.1651 N   0  0  0  0  0  0  0  0  0  0  0  0
   12.0381   13.6241   26.9432 C   0  0  0  0  0  0  0  0  0  0  0  0
   13.4595   13.1091   26.6983 C   0  0  0  0  0  0  0  0  0  0  0  0
   13.4899   11.6347   26.6503 C   0  0  0  0  0  0  0  0  0  0  0  0
   12.7087   11.2160   25.4259 C   0  0  0  0  0  0  0  0  0  0  0  0
   11.5582   12.1408   25.0209 C   0  0  0  0  0  0  0  0  0  0  0  0
    7.3270   14.2864   26.7925 C   0  0  0  0  0  0  0  0  0  0  0  0
    6.7595   14.8981   25.5078 C   0  0  0  0  0  0  0  0  0  0  0  0
   10.7612   15.8393   22.5723 C   0  0  0  0  0  0  0  0  0  0  0  0
   11.5571   14.6599   22.7930 O   0  0  0  0  0  0  0  0  0  0  0  0
   10.8171   13.9649   21.7657 C   0  0  0  0  0  0  0  0  0  0  0  0
  1  2  1  0
  2  3  1  0
  3  4  1  0
  4  5  1  0
  5  6  1  0
  6  7  1  0
  7  8  2  0
  7  9  1  0
  9 10  1  0
 10 11  1  0
 11 12  1  0
 12 13  1  0
 13 14  2  0
 13 15  2  0
 13 16  1  0
 16 17  1  0
 17 18  1  0
 18 19  1  0
 19 20  1  0
 20 21  1  0
 12 22  1  0
 22 23  1  0
  4 24  1  0
 24 25  1  0
 25 26  1  0
 26  4  1  0
 23  9  1  0
 21 16  1  0
M  END
>  <energy_score>  (4173) 
-54.551702

>  <inchikey>  (4173) 
GHXAEYSXUNBQFX-UHFFFAOYSA-N

>  <smiles>  (4173) 
CCOC1(COC(=O)C2CCN(S(=O)(=O)N3CCCCC3)CC2)COC1

>  <ref_pdb>  (4173) 
A0875a

>  <alias>  (4173) 
GHXAEYSXUNBQFX-UHFFFAOYSA-N-P439-P87-P439-601505

>  <HIPPO Pose ID>  (4173) 
507877

>  <name>  (4173) 
GHXAEYSXUNBQFX-UHFFFAOYSA-N-P439-P87-P439-601505

>  <HIPPO Compound ID>  (4173) 
314474

>  <ref_mols>  (4173) 
A4706a,A0875a

>  <distance_score>  (4173) 
1.312301

>  <inspiration_score>  (4173) 
None

$$$$
KEAAAEVQJQBQIA-UHFFFAOYSA-N-P439-P87-P439-601505
     RDKit          3D

 26 28  0  0  0  0  0  0  0  0999 V2000
    7.2740   14.2252   21.6760 C   0  0  0  0  0  0  0  0  0  0  0  0
    7.5225   15.7111   21.9181 C   0  0  1  0  0  0  0  0  0  0  0  0
    7.0340   16.1501   23.2170 O   0  0  0  0  0  0  0  0  0  0  0  0
    5.9810   15.4772   23.7767 C   0  0  0  0  0  0  0  0  0  0  0  0
    4.8119   15.5817   23.4438 O   0  0  0  0  0  0  0  0  0  0  0  0
    6.5283   14.5320   24.8131 C   0  0  0  0  0  0  0  0  0  0  0  0
    6.0803   13.0746   24.7879 C   0  0  0  0  0  0  0  0  0  0  0  0
    7.1714   12.1807   25.4150 C   0  0  0  0  0  0  0  0  0  0  0  0
    8.0503   12.9517   26.3551 N   0  0  0  0  0  0  0  0  0  0  0  0
    9.4979   13.6051   25.7128 S   0  0  0  0  0  0  0  0  0  0  0  0
    9.8395   14.7629   26.5021 O   0  0  0  0  0  0  0  0  0  0  0  0
    9.4216   13.6384   24.2773 O   0  0  0  0  0  0  0  0  0  0  0  0
   10.6709   12.4108   26.0297 N   0  0  0  0  0  0  0  0  0  0  0  0
   12.0148   13.0692   26.0327 C   0  0  0  0  0  0  0  0  0  0  0  0
   13.1127   12.0837   26.3654 C   0  0  0  0  0  0  0  0  0  0  0  0
   13.0901   10.9441   25.3690 C   0  0  0  0  0  0  0  0  0  0  0  0
   11.6912   10.2754   25.2539 C   0  0  0  0  0  0  0  0  0  0  0  0
   10.5812   11.2898   25.0419 C   0  0  0  0  0  0  0  0  0  0  0  0
    7.2266   13.9441   27.1417 C   0  0  0  0  0  0  0  0  0  0  0  0
    6.6271   15.0354   26.2389 C   0  0  0  0  0  0  0  0  0  0  0  0
    9.0227   16.1069   21.6252 C   0  0  2  0  0  0  0  0  0  0  0  0
    9.5073   15.7426   20.1917 C   0  0  0  0  0  0  0  0  0  0  0  0
   10.8002   14.9676   20.0145 C   0  0  0  0  0  0  0  0  0  0  0  0
   11.2677   14.3551   21.3097 C   0  0  0  0  0  0  0  0  0  0  0  0
   11.1886   15.3986   22.3894 C   0  0  0  0  0  0  0  0  0  0  0  0
    9.8230   15.5961   22.6834 O   0  0  0  0  0  0  0  0  0  0  0  0
  2  1  1  1
  2  3  1  0
  3  4  1  0
  4  5  2  0
  4  6  1  0
  6  7  1  0
  7  8  1  0
  8  9  1  0
  9 10  1  0
 10 11  2  0
 10 12  2  0
 10 13  1  0
 13 14  1  0
 14 15  1  0
 15 16  1  0
 16 17  1  0
 17 18  1  0
  9 19  1  0
 19 20  1  0
  2 21  1  0
 21 22  1  6
 22 23  1  0
 23 24  1  0
 24 25  1  0
 25 26  1  0
 20  6  1  0
 26 21  1  0
 18 13  1  0
M  END
>  <energy_score>  (4174) 
-9.887813

>  <inchikey>  (4174) 
KEAAAEVQJQBQIA-UHFFFAOYSA-N

>  <smiles>  (4174) 
CC(OC(=O)C1CCN(S(=O)(=O)N2CCCCC2)CC1)C1CCCCO1

>  <ref_pdb>  (4174) 
A0875a

>  <alias>  (4174) 
KEAAAEVQJQBQIA-UHFFFAOYSA-N-P439-P87-P439-601505

>  <HIPPO Pose ID>  (4174) 
507879

>  <name>  (4174) 
KEAAAEVQJQBQIA-UHFFFAOYSA-N-P439-P87-P439-601505

>  <HIPPO Compound ID>  (4174) 
314475

>  <ref_mols>  (4174) 
A4706a,A0875a

>  <distance_score>  (4174) 
1.764476

>  <inspiration_score>  (4174) 
None

$$$$
UQEXOUQGBPYZHL-UHFFFAOYSA-N-P439-P87-P439-601505
     RDKit          3D

 26 28  0  0  0  0  0  0  0  0999 V2000
    6.7456   13.2298   21.9601 O   0  0  0  0  0  0  0  0  0  0  0  0
    6.7502   14.3456   22.4858 C   0  0  0  0  0  0  0  0  0  0  0  0
    7.6287   15.3438   22.1395 O   0  0  0  0  0  0  0  0  0  0  0  0
    8.6118   14.9200   21.1541 C   0  0  2  0  0  0  0  0  0  0  0  0
    9.5514   13.9239   21.7901 C   0  0  0  0  0  0  0  0  0  0  0  0
   10.7943   14.5409   22.1197 O   0  0  0  0  0  0  0  0  0  0  0  0
   10.6873   15.8989   21.7312 C   0  0  0  0  0  0  0  0  0  0  0  0
    9.5994   15.9722   20.6817 C   0  0  1  0  0  0  0  0  0  0  0  0
   10.1646   15.5927   19.3059 C   0  0  0  0  0  0  0  0  0  0  0  0
   10.6518   14.3363   19.2515 F   0  0  0  0  0  0  0  0  0  0  0  0
    9.1756   15.6570   18.3834 F   0  0  0  0  0  0  0  0  0  0  0  0
    5.7564   14.6642   23.5999 C   0  0  0  0  0  0  0  0  0  0  0  0
    5.6292   13.4207   24.5177 C   0  0  0  0  0  0  0  0  0  0  0  0
    6.9377   13.0879   25.2525 C   0  0  0  0  0  0  0  0  0  0  0  0
    7.8150   14.2811   25.1892 N   0  0  0  0  0  0  0  0  0  0  0  0
    9.3446   14.2127   25.8352 S   0  0  0  0  0  0  0  0  0  0  0  0
    9.8412   15.5671   25.8808 O   0  0  0  0  0  0  0  0  0  0  0  0
    9.3057   13.4202   27.0305 O   0  0  0  0  0  0  0  0  0  0  0  0
   10.3441   13.4480   24.7658 N   0  0  0  0  0  0  0  0  0  0  0  0
   11.7542   13.8400   24.9980 C   0  0  0  0  0  0  0  0  0  0  0  0
   12.7093   12.6976   24.8354 C   0  0  0  0  0  0  0  0  0  0  0  0
   12.2357   11.4822   25.5828 C   0  0  0  0  0  0  0  0  0  0  0  0
   10.7914   11.0997   25.2136 C   0  0  0  0  0  0  0  0  0  0  0  0
   10.1605   12.0816   24.2702 C   0  0  0  0  0  0  0  0  0  0  0  0
    7.0350   15.4773   25.6206 C   0  0  0  0  0  0  0  0  0  0  0  0
    6.1090   15.8646   24.4731 C   0  0  0  0  0  0  0  0  0  0  0  0
  1  2  2  0
  2  3  1  0
  4  3  1  1
  4  5  1  0
  5  6  1  0
  6  7  1  0
  7  8  1  0
  8  9  1  6
  9 10  1  0
  9 11  1  0
  2 12  1  0
 12 13  1  0
 13 14  1  0
 14 15  1  0
 15 16  1  0
 16 17  2  0
 16 18  2  0
 16 19  1  0
 19 20  1  0
 20 21  1  0
 21 22  1  0
 22 23  1  0
 23 24  1  0
 15 25  1  0
 25 26  1  0
  8  4  1  0
 26 12  1  0
 24 19  1  0
M  END
>  <energy_score>  (4175) 
-62.541708

>  <inchikey>  (4175) 
UQEXOUQGBPYZHL-UHFFFAOYSA-N

>  <smiles>  (4175) 
O=C(OC1COCC1C(F)F)C1CCN(S(=O)(=O)N2CCCCC2)CC1

>  <ref_pdb>  (4175) 
A0875a

>  <alias>  (4175) 
UQEXOUQGBPYZHL-UHFFFAOYSA-N-P439-P87-P439-601505

>  <HIPPO Pose ID>  (4175) 
507883

>  <name>  (4175) 
UQEXOUQGBPYZHL-UHFFFAOYSA-N-P439-P87-P439-601505

>  <HIPPO Compound ID>  (4175) 
314477

>  <ref_mols>  (4175) 
A4706a,A0875a

>  <distance_score>  (4175) 
1.741404

>  <inspiration_score>  (4175) 
None

$$$$
DZHNGWGYBNWKHZ-UHFFFAOYSA-N-P439-P87-P439-601505
     RDKit          3D

 26 29  0  0  0  0  0  0  0  0999 V2000
    5.5006   15.8537   23.3379 O   0  0  0  0  0  0  0  0  0  0  0  0
    6.3610   15.3318   24.0332 C   0  0  0  0  0  0  0  0  0  0  0  0
    7.6950   15.2867   23.7464 O   0  0  0  0  0  0  0  0  0  0  0  0
    8.0975   15.4867   22.3818 C   0  0  2  0  0  0  0  0  0  0  0  0
    7.2489   14.6477   21.4509 C   0  0  0  0  0  0  0  0  0  0  0  0
    8.0007   14.5157   20.2489 O   0  0  0  0  0  0  0  0  0  0  0  0
    9.3242   14.9959   20.4613 C   0  0  0  0  0  0  0  0  0  0  0  0
    9.4586   14.8848   21.9545 C   0  0  1  0  0  0  0  0  0  0  0  0
   10.7415   15.4275   22.4721 C   0  0  0  0  0  0  0  0  0  0  0  0
   11.9974   15.3687   21.6345 C   0  0  0  0  0  0  0  0  0  0  0  0
   11.8264   14.4216   22.7675 C   0  0  0  0  0  0  0  0  0  0  0  0
    6.0270   14.5457   25.2976 C   0  0  0  0  0  0  0  0  0  0  0  0
    6.1942   13.0270   25.0303 C   0  0  0  0  0  0  0  0  0  0  0  0
    7.0871   12.2356   25.9832 C   0  0  0  0  0  0  0  0  0  0  0  0
    8.1068   13.0988   26.6043 N   0  0  0  0  0  0  0  0  0  0  0  0
    9.4093   13.5858   25.6541 S   0  0  0  0  0  0  0  0  0  0  0  0
    9.8740   14.8642   26.1367 O   0  0  0  0  0  0  0  0  0  0  0  0
    9.0641   13.3434   24.2819 O   0  0  0  0  0  0  0  0  0  0  0  0
   10.5970   12.4176   26.0310 N   0  0  0  0  0  0  0  0  0  0  0  0
   10.5873   11.3205   25.0128 C   0  0  0  0  0  0  0  0  0  0  0  0
   11.6823   10.3075   25.2647 C   0  0  0  0  0  0  0  0  0  0  0  0
   13.0568   11.0055   25.4022 C   0  0  0  0  0  0  0  0  0  0  0  0
   13.0516   12.0894   26.4623 C   0  0  0  0  0  0  0  0  0  0  0  0
   11.9204   13.0699   26.2354 C   0  0  0  0  0  0  0  0  0  0  0  0
    7.4459   14.1578   27.3989 C   0  0  0  0  0  0  0  0  0  0  0  0
    6.7551   15.1591   26.4955 C   0  0  0  0  0  0  0  0  0  0  0  0
  1  2  2  0
  2  3  1  0
  4  3  1  1
  4  5  1  0
  5  6  1  0
  6  7  1  0
  7  8  1  0
  8  9  1  1
  9 10  1  0
 10 11  1  0
  2 12  1  0
 12 13  1  0
 13 14  1  0
 14 15  1  0
 15 16  1  0
 16 17  2  0
 16 18  2  0
 16 19  1  0
 19 20  1  0
 20 21  1  0
 21 22  1  0
 22 23  1  0
 23 24  1  0
 15 25  1  0
 25 26  1  0
  8  4  1  0
 11  9  1  0
 26 12  1  0
 24 19  1  0
M  END
>  <energy_score>  (4176) 
-25.223629

>  <inchikey>  (4176) 
DZHNGWGYBNWKHZ-UHFFFAOYSA-N

>  <smiles>  (4176) 
O=C(OC1COCC1C1CC1)C1CCN(S(=O)(=O)N2CCCCC2)CC1

>  <ref_pdb>  (4176) 
A0875a

>  <alias>  (4176) 
DZHNGWGYBNWKHZ-UHFFFAOYSA-N-P439-P87-P439-601505

>  <HIPPO Pose ID>  (4176) 
507885

>  <name>  (4176) 
DZHNGWGYBNWKHZ-UHFFFAOYSA-N-P439-P87-P439-601505

>  <HIPPO Compound ID>  (4176) 
314478

>  <ref_mols>  (4176) 
A4706a,A0875a

>  <distance_score>  (4176) 
1.768248

>  <inspiration_score>  (4176) 
None

$$$$
PEWLDCPOVSLADO-UHFFFAOYSA-N-P439-P87-P439-601505
     RDKit          3D

 26 28  0  0  0  0  0  0  0  0999 V2000
   11.6606   14.7088   18.6041 C   0  0  0  0  0  0  0  0  0  0  0  0
   10.4120   15.0727   18.8694 C   0  0  0  0  0  0  0  0  0  0  0  0
    9.9726   15.5468   20.1913 C   0  0  0  0  0  0  0  0  0  0  0  0
    9.4357   14.3842   21.0373 C   0  0  1  0  0  0  0  0  0  0  0  0
   10.5268   13.9124   21.9716 C   0  0  0  0  0  0  0  0  0  0  0  0
   10.5400   14.8757   23.0216 O   0  0  0  0  0  0  0  0  0  0  0  0
    9.2939   15.5854   22.9556 C   0  0  0  0  0  0  0  0  0  0  0  0
    8.3778   14.8799   21.9909 C   0  0  2  0  0  0  0  0  0  0  0  0
    7.6635   13.8243   22.6797 O   0  0  0  0  0  0  0  0  0  0  0  0
    6.5519   14.2856   23.3264 C   0  0  0  0  0  0  0  0  0  0  0  0
    6.0133   15.3596   23.0751 O   0  0  0  0  0  0  0  0  0  0  0  0
    6.0260   13.3945   24.4485 C   0  0  0  0  0  0  0  0  0  0  0  0
    6.8229   12.1162   24.7684 C   0  0  0  0  0  0  0  0  0  0  0  0
    7.7574   12.2922   25.9542 C   0  0  0  0  0  0  0  0  0  0  0  0
    8.3310   13.6248   25.7928 N   0  0  0  0  0  0  0  0  0  0  0  0
    9.9133   13.9716   26.1844 S   0  0  0  0  0  0  0  0  0  0  0  0
   10.1210   15.3702   25.8910 O   0  0  0  0  0  0  0  0  0  0  0  0
   10.1674   13.4957   27.5148 O   0  0  0  0  0  0  0  0  0  0  0  0
   10.8877   13.0746   25.1635 N   0  0  0  0  0  0  0  0  0  0  0  0
   10.9148   11.6186   25.1558 C   0  0  0  0  0  0  0  0  0  0  0  0
   12.3353   11.0587   25.3700 C   0  0  0  0  0  0  0  0  0  0  0  0
   13.0979   11.7270   26.4713 C   0  0  0  0  0  0  0  0  0  0  0  0
   13.1723   13.1757   26.1224 C   0  0  0  0  0  0  0  0  0  0  0  0
   12.2330   13.6365   25.0046 C   0  0  0  0  0  0  0  0  0  0  0  0
    7.3335   14.6552   26.2247 C   0  0  0  0  0  0  0  0  0  0  0  0
    5.9359   14.2660   25.7162 C   0  0  0  0  0  0  0  0  0  0  0  0
  1  2  2  0
  2  3  1  0
  4  3  1  6
  4  5  1  0
  5  6  1  0
  6  7  1  0
  7  8  1  0
  8  9  1  1
  9 10  1  0
 10 11  2  0
 10 12  1  0
 12 13  1  0
 13 14  1  0
 14 15  1  0
 15 16  1  0
 16 17  2  0
 16 18  2  0
 16 19  1  0
 19 20  1  0
 20 21  1  0
 21 22  1  0
 22 23  1  0
 23 24  1  0
 15 25  1  0
 25 26  1  0
  8  4  1  0
 26 12  1  0
 24 19  1  0
M  END
>  <energy_score>  (4177) 
-25.370837

>  <inchikey>  (4177) 
PEWLDCPOVSLADO-UHFFFAOYSA-N

>  <smiles>  (4177) 
C=CCC1COCC1OC(=O)C1CCN(S(=O)(=O)N2CCCCC2)CC1

>  <ref_pdb>  (4177) 
A0875a

>  <alias>  (4177) 
PEWLDCPOVSLADO-UHFFFAOYSA-N-P439-P87-P439-601505

>  <HIPPO Pose ID>  (4177) 
507887

>  <name>  (4177) 
PEWLDCPOVSLADO-UHFFFAOYSA-N-P439-P87-P439-601505

>  <HIPPO Compound ID>  (4177) 
314479

>  <ref_mols>  (4177) 
A4706a,A0875a

>  <distance_score>  (4177) 
1.524262

>  <inspiration_score>  (4177) 
None

$$$$
OTMAIOKTDVXFKE-UHFFFAOYSA-N-P439-P87-P439-601505
     RDKit          3D

 26 28  0  0  0  0  0  0  0  0999 V2000
   11.5836   15.0412   18.3052 C   0  0  0  0  0  0  0  0  0  0  0  0
   10.2803   15.5341   18.8353 C   0  0  0  0  0  0  0  0  0  0  0  0
    9.9598   14.7100   19.9115 O   0  0  0  0  0  0  0  0  0  0  0  0
    9.3526   15.3979   20.9878 C   0  0  2  0  0  0  0  0  0  0  0  0
   10.4325   15.7342   21.9947 C   0  0  0  0  0  0  0  0  0  0  0  0
   10.8417   14.3892   22.5386 C   0  0  0  0  0  0  0  0  0  0  0  0
    9.5833   13.5313   22.4305 C   0  0  0  0  0  0  0  0  0  0  0  0
    8.5189   14.3298   21.6566 C   0  0  1  0  0  0  0  0  0  0  0  0
    7.5104   14.8782   22.5046 O   0  0  0  0  0  0  0  0  0  0  0  0
    6.6300   13.9217   22.9272 C   0  0  0  0  0  0  0  0  0  0  0  0
    6.0011   13.1644   22.2062 O   0  0  0  0  0  0  0  0  0  0  0  0
    6.6474   13.8897   24.4208 C   0  0  0  0  0  0  0  0  0  0  0  0
    6.3129   12.6078   25.1524 C   0  0  0  0  0  0  0  0  0  0  0  0
    6.9967   12.6343   26.5296 C   0  0  0  0  0  0  0  0  0  0  0  0
    7.6190   13.9513   26.8552 N   0  0  0  0  0  0  0  0  0  0  0  0
    9.1979   14.4906   26.5050 S   0  0  0  0  0  0  0  0  0  0  0  0
    9.5457   15.3468   27.6112 O   0  0  0  0  0  0  0  0  0  0  0  0
    9.2876   15.0400   25.1736 O   0  0  0  0  0  0  0  0  0  0  0  0
   10.2554   13.1931   26.5468 N   0  0  0  0  0  0  0  0  0  0  0  0
    9.9725   12.0200   25.7289 C   0  0  0  0  0  0  0  0  0  0  0  0
   11.1100   11.4530   24.9385 C   0  0  0  0  0  0  0  0  0  0  0  0
   12.5015   11.6923   25.4747 C   0  0  0  0  0  0  0  0  0  0  0  0
   12.6759   13.1436   25.7449 C   0  0  0  0  0  0  0  0  0  0  0  0
   11.6690   13.6096   26.7768 C   0  0  0  0  0  0  0  0  0  0  0  0
    6.5960   15.0344   26.6592 C   0  0  0  0  0  0  0  0  0  0  0  0
    6.1958   15.1281   25.1766 C   0  0  0  0  0  0  0  0  0  0  0  0
  1  2  1  0
  2  3  1  0
  4  3  1  6
  4  5  1  0
  5  6  1  0
  6  7  1  0
  7  8  1  0
  8  9  1  1
  9 10  1  0
 10 11  2  0
 10 12  1  0
 12 13  1  0
 13 14  1  0
 14 15  1  0
 15 16  1  0
 16 17  2  0
 16 18  2  0
 16 19  1  0
 19 20  1  0
 20 21  1  0
 21 22  1  0
 22 23  1  0
 23 24  1  0
 15 25  1  0
 25 26  1  0
  8  4  1  0
 26 12  1  0
 24 19  1  0
M  END
>  <energy_score>  (4178) 
-5.393838

>  <inchikey>  (4178) 
OTMAIOKTDVXFKE-UHFFFAOYSA-N

>  <smiles>  (4178) 
CCOC1CCCC1OC(=O)C1CCN(S(=O)(=O)N2CCCCC2)CC1

>  <ref_pdb>  (4178) 
A0875a

>  <alias>  (4178) 
OTMAIOKTDVXFKE-UHFFFAOYSA-N-P439-P87-P439-601505

>  <HIPPO Pose ID>  (4178) 
507889

>  <name>  (4178) 
OTMAIOKTDVXFKE-UHFFFAOYSA-N-P439-P87-P439-601505

>  <HIPPO Compound ID>  (4178) 
314480

>  <ref_mols>  (4178) 
A4706a,A0875a

>  <distance_score>  (4178) 
1.613828

>  <inspiration_score>  (4178) 
None

$$$$
PYPYOHDFUOUTME-UHFFFAOYSA-N-P439-P87-P439-601505
     RDKit          3D

 26 28  0  0  0  0  0  0  0  0999 V2000
   11.6509   15.0621   18.2743 C   0  0  0  0  0  0  0  0  0  0  0  0
   10.2917   14.8163   18.8233 C   0  0  0  0  0  0  0  0  0  0  0  0
   10.0640   15.6206   20.0010 N   0  0  0  0  0  0  0  0  0  0  0  0
    9.5709   14.7960   21.1287 C   0  0  1  0  0  0  0  0  0  0  0  0
   10.7174   13.9407   21.7026 C   0  0  0  0  0  0  0  0  0  0  0  0
   11.2542   14.5887   22.8541 O   0  0  0  0  0  0  0  0  0  0  0  0
   10.6434   15.8810   22.8698 C   0  0  0  0  0  0  0  0  0  0  0  0
    9.2389   15.7557   22.2571 C   0  0  2  0  0  0  0  0  0  0  0  0
    8.2829   15.3693   23.2885 O   0  0  0  0  0  0  0  0  0  0  0  0
    7.1115   14.7243   23.0727 C   0  0  0  0  0  0  0  0  0  0  0  0
    6.7216   14.3172   21.9835 O   0  0  0  0  0  0  0  0  0  0  0  0
    6.2892   14.5095   24.3802 C   0  0  0  0  0  0  0  0  0  0  0  0
    6.0002   13.0192   24.6742 C   0  0  0  0  0  0  0  0  0  0  0  0
    6.9477   12.2566   25.6199 C   0  0  0  0  0  0  0  0  0  0  0  0
    7.9653   13.1465   26.2301 N   0  0  0  0  0  0  0  0  0  0  0  0
    9.3122   13.4536   25.2581 S   0  0  0  0  0  0  0  0  0  0  0  0
    8.9321   12.9949   23.9445 O   0  0  0  0  0  0  0  0  0  0  0  0
    9.7549   14.7941   25.5542 O   0  0  0  0  0  0  0  0  0  0  0  0
   10.5024   12.3704   25.8268 N   0  0  0  0  0  0  0  0  0  0  0  0
   11.8178   13.0835   25.9169 C   0  0  0  0  0  0  0  0  0  0  0  0
   12.9433   12.1666   26.3481 C   0  0  0  0  0  0  0  0  0  0  0  0
   13.0409   10.9980   25.3927 C   0  0  0  0  0  0  0  0  0  0  0  0
   11.6935   10.2415   25.2514 C   0  0  0  0  0  0  0  0  0  0  0  0
   10.5314   11.1635   24.9458 C   0  0  0  0  0  0  0  0  0  0  0  0
    7.2970   14.3630   26.7633 C   0  0  0  0  0  0  0  0  0  0  0  0
    6.7495   15.2559   25.6438 C   0  0  0  0  0  0  0  0  0  0  0  0
  1  2  1  0
  2  3  1  0
  4  3  1  6
  4  5  1  0
  5  6  1  0
  6  7  1  0
  7  8  1  0
  8  9  1  1
  9 10  1  0
 10 11  2  0
 10 12  1  0
 12 13  1  0
 13 14  1  0
 14 15  1  0
 15 16  1  0
 16 17  2  0
 16 18  2  0
 16 19  1  0
 19 20  1  0
 20 21  1  0
 21 22  1  0
 22 23  1  0
 23 24  1  0
 15 25  1  0
 25 26  1  0
  8  4  1  0
 26 12  1  0
 24 19  1  0
M  END
>  <energy_score>  (4179) 
-50.710752

>  <inchikey>  (4179) 
PYPYOHDFUOUTME-UHFFFAOYSA-N

>  <smiles>  (4179) 
CCNC1COCC1OC(=O)C1CCN(S(=O)(=O)N2CCCCC2)CC1

>  <ref_pdb>  (4179) 
A0875a

>  <alias>  (4179) 
PYPYOHDFUOUTME-UHFFFAOYSA-N-P439-P87-P439-601505

>  <HIPPO Pose ID>  (4179) 
507891

>  <name>  (4179) 
PYPYOHDFUOUTME-UHFFFAOYSA-N-P439-P87-P439-601505

>  <HIPPO Compound ID>  (4179) 
314481

>  <ref_mols>  (4179) 
A4706a,A0875a

>  <distance_score>  (4179) 
1.316786

>  <inspiration_score>  (4179) 
None

$$$$
COHVHEOCGNCZNE-UHFFFAOYSA-N-P439-P87-P439-601505
     RDKit          3D

 26 27  0  0  0  0  0  0  0  0999 V2000
   10.1976   15.4105   19.0499 C   0  0  0  0  0  0  0  0  0  0  0  0
    9.6539   15.8145   20.4048 C   0  0  0  0  0  0  0  0  0  0  0  0
    9.1384   17.2384   20.4808 C   0  0  0  0  0  0  0  0  0  0  0  0
   10.7141   15.6706   21.3363 O   0  0  0  0  0  0  0  0  0  0  0  0
   10.2643   15.6613   22.6834 C   0  0  0  0  0  0  0  0  0  0  0  0
    9.5514   14.3826   23.1026 C   0  0  2  0  0  0  0  0  0  0  0  0
    9.9507   13.2103   22.2527 C   0  0  0  0  0  0  0  0  0  0  0  0
   11.7035   13.1705   22.1785 Cl  0  0  0  0  0  0  0  0  0  0  0  0
    8.1414   14.6438   23.2836 O   0  0  0  0  0  0  0  0  0  0  0  0
    7.3170   13.5837   23.3445 C   0  0  0  0  0  0  0  0  0  0  0  0
    7.1412   12.8320   22.3939 O   0  0  0  0  0  0  0  0  0  0  0  0
    6.6282   13.3615   24.6782 C   0  0  0  0  0  0  0  0  0  0  0  0
    7.1290   12.0675   25.3454 C   0  0  0  0  0  0  0  0  0  0  0  0
    8.5780   12.1434   25.8560 C   0  0  0  0  0  0  0  0  0  0  0  0
    8.9749   13.5371   26.0777 N   0  0  0  0  0  0  0  0  0  0  0  0
   10.4713   14.0227   26.6778 S   0  0  0  0  0  0  0  0  0  0  0  0
   10.2542   14.2033   28.0908 O   0  0  0  0  0  0  0  0  0  0  0  0
   10.8931   15.1327   25.8550 O   0  0  0  0  0  0  0  0  0  0  0  0
   11.6379   12.7756   26.5372 N   0  0  0  0  0  0  0  0  0  0  0  0
   12.8409   13.0317   27.4340 C   0  0  0  0  0  0  0  0  0  0  0  0
   14.2141   12.7931   26.8019 C   0  0  0  0  0  0  0  0  0  0  0  0
   14.3053   11.4657   26.1352 C   0  0  0  0  0  0  0  0  0  0  0  0
   13.1236   11.3125   25.2159 C   0  0  0  0  0  0  0  0  0  0  0  0
   12.0817   12.4399   25.1874 C   0  0  0  0  0  0  0  0  0  0  0  0
    7.8650   14.3785   26.6387 C   0  0  0  0  0  0  0  0  0  0  0  0
    6.7350   14.5421   25.6356 C   0  0  0  0  0  0  0  0  0  0  0  0
  1  2  1  0
  2  3  1  0
  2  4  1  0
  4  5  1  0
  6  5  1  6
  6  7  1  0
  7  8  1  0
  6  9  1  0
  9 10  1  0
 10 11  2  0
 10 12  1  0
 12 13  1  0
 13 14  1  0
 14 15  1  0
 15 16  1  0
 16 17  2  0
 16 18  2  0
 16 19  1  0
 19 20  1  0
 20 21  1  0
 21 22  1  0
 22 23  1  0
 23 24  1  0
 15 25  1  0
 25 26  1  0
 26 12  1  0
 24 19  1  0
M  END
>  <energy_score>  (4180) 
-24.928914

>  <inchikey>  (4180) 
COHVHEOCGNCZNE-UHFFFAOYSA-N

>  <smiles>  (4180) 
CC(C)OCC(CCl)OC(=O)C1CCN(S(=O)(=O)N2CCCCC2)CC1

>  <ref_pdb>  (4180) 
A0875a

>  <alias>  (4180) 
COHVHEOCGNCZNE-UHFFFAOYSA-N-P439-P87-P439-601505

>  <HIPPO Pose ID>  (4180) 
507897

>  <name>  (4180) 
COHVHEOCGNCZNE-UHFFFAOYSA-N-P439-P87-P439-601505

>  <HIPPO Compound ID>  (4180) 
314484

>  <ref_mols>  (4180) 
A4706a,A0875a

>  <distance_score>  (4180) 
1.672353

>  <inspiration_score>  (4180) 
None

$$$$
VHASPIFUUMKZGH-UHFFFAOYSA-N-P439-P87-P439-601505
     RDKit          3D

 26 28  0  0  0  0  0  0  0  0999 V2000
   10.5449   14.9992   18.8365 C   0  0  0  0  0  0  0  0  0  0  0  0
    9.4780   15.1394   19.7635 O   0  0  0  0  0  0  0  0  0  0  0  0
    9.7263   15.9018   20.9464 C   0  0  2  0  0  0  0  0  0  0  0  0
   11.1779   15.7946   21.4392 C   0  0  0  0  0  0  0  0  0  0  0  0
   11.2645   14.4117   22.0798 C   0  0  1  0  0  0  0  0  0  0  0  0
   11.9497   14.5539   23.3531 N   0  0  0  0  0  0  0  0  0  0  0  0
    9.8161   13.9463   22.2193 C   0  0  0  0  0  0  0  0  0  0  0  0
    9.0141   15.2422   22.1608 C   0  0  2  0  0  0  0  0  0  0  0  0
    7.5774   15.1627   22.2171 O   0  0  0  0  0  0  0  0  0  0  0  0
    7.0560   14.0255   22.7308 C   0  0  0  0  0  0  0  0  0  0  0  0
    7.1500   12.9460   22.1529 O   0  0  0  0  0  0  0  0  0  0  0  0
    6.2430   14.1226   24.0258 C   0  0  0  0  0  0  0  0  0  0  0  0
    6.2835   12.7525   24.7541 C   0  0  0  0  0  0  0  0  0  0  0  0
    7.6244   12.4986   25.4421 C   0  0  0  0  0  0  0  0  0  0  0  0
    7.9871   13.6015   26.3518 N   0  0  0  0  0  0  0  0  0  0  0  0
    9.5244   14.2676   26.3110 S   0  0  0  0  0  0  0  0  0  0  0  0
    9.7750   14.7946   24.9959 O   0  0  0  0  0  0  0  0  0  0  0  0
    9.5826   15.1643   27.4387 O   0  0  0  0  0  0  0  0  0  0  0  0
   10.6743   13.0300   26.6065 N   0  0  0  0  0  0  0  0  0  0  0  0
   10.9677   12.1212   25.4779 C   0  0  0  0  0  0  0  0  0  0  0  0
   12.4212   11.6840   25.2940 C   0  0  0  0  0  0  0  0  0  0  0  0
   13.5461   12.3394   26.0420 C   0  0  0  0  0  0  0  0  0  0  0  0
   13.0798   12.7891   27.3861 C   0  0  0  0  0  0  0  0  0  0  0  0
   11.8580   13.6733   27.2502 C   0  0  0  0  0  0  0  0  0  0  0  0
    6.9290   14.6677   26.4199 C   0  0  0  0  0  0  0  0  0  0  0  0
    6.6288   15.2198   25.0195 C   0  0  0  0  0  0  0  0  0  0  0  0
  1  2  1  0
  3  2  1  6
  3  4  1  0
  4  5  1  0
  5  6  1  1
  5  7  1  0
  7  8  1  0
  8  9  1  6
  9 10  1  0
 10 11  2  0
 10 12  1  0
 12 13  1  0
 13 14  1  0
 14 15  1  0
 15 16  1  0
 16 17  2  0
 16 18  2  0
 16 19  1  0
 19 20  1  0
 20 21  1  0
 21 22  1  0
 22 23  1  0
 23 24  1  0
 15 25  1  0
 25 26  1  0
  8  3  1  0
 26 12  1  0
 24 19  1  0
M  END
>  <energy_score>  (4181) 
-28.714136

>  <inchikey>  (4181) 
VHASPIFUUMKZGH-UHFFFAOYSA-N

>  <smiles>  (4181) 
COC1CC(N)CC1OC(=O)C1CCN(S(=O)(=O)N2CCCCC2)CC1

>  <ref_pdb>  (4181) 
A0875a

>  <alias>  (4181) 
VHASPIFUUMKZGH-UHFFFAOYSA-N-P439-P87-P439-601505

>  <HIPPO Pose ID>  (4181) 
507899

>  <name>  (4181) 
VHASPIFUUMKZGH-UHFFFAOYSA-N-P439-P87-P439-601505

>  <HIPPO Compound ID>  (4181) 
314485

>  <ref_mols>  (4181) 
A4706a,A0875a

>  <distance_score>  (4181) 
1.539802

>  <inspiration_score>  (4181) 
None

$$$$
CRTJDPGXQCIWEQ-UHFFFAOYSA-N-P439-P87-P439-601505
     RDKit          3D

 26 27  0  0  0  0  0  0  0  0999 V2000
   11.0081   14.9127   18.6695 C   0  0  0  0  0  0  0  0  0  0  0  0
   10.2226   14.8879   19.8552 O   0  0  0  0  0  0  0  0  0  0  0  0
    9.6467   16.0459   20.2680 C   0  0  0  0  0  0  0  0  0  0  0  0
    9.5817   17.0703   19.6053 O   0  0  0  0  0  0  0  0  0  0  0  0
    9.1094   15.9054   21.6963 C   0  0  1  0  0  0  0  0  0  0  0  0
    7.5953   16.1384   21.6485 C   0  0  0  0  0  0  0  0  0  0  0  0
    6.9393   16.4384   22.8898 O   0  0  0  0  0  0  0  0  0  0  0  0
    6.0165   15.5256   23.2851 C   0  0  0  0  0  0  0  0  0  0  0  0
    4.8748   15.4339   22.8643 O   0  0  0  0  0  0  0  0  0  0  0  0
    6.6686   14.6107   24.2703 C   0  0  0  0  0  0  0  0  0  0  0  0
    6.6101   13.1581   23.8746 C   0  0  0  0  0  0  0  0  0  0  0  0
    7.7421   12.4247   24.5808 C   0  0  0  0  0  0  0  0  0  0  0  0
    8.0468   12.9845   25.9236 N   0  0  0  0  0  0  0  0  0  0  0  0
    9.4349   13.9192   26.1429 S   0  0  0  0  0  0  0  0  0  0  0  0
    9.6989   13.9527   27.5594 O   0  0  0  0  0  0  0  0  0  0  0  0
    9.3431   15.1688   25.4322 O   0  0  0  0  0  0  0  0  0  0  0  0
   10.7117   13.1181   25.4529 N   0  0  0  0  0  0  0  0  0  0  0  0
   11.9794   13.7624   25.8190 C   0  0  0  0  0  0  0  0  0  0  0  0
   13.0650   13.2408   24.9150 C   0  0  0  0  0  0  0  0  0  0  0  0
   13.3854   11.8001   25.1780 C   0  0  0  0  0  0  0  0  0  0  0  0
   12.1281   11.1176   25.6112 C   0  0  0  0  0  0  0  0  0  0  0  0
   10.7692   11.6861   25.2090 C   0  0  0  0  0  0  0  0  0  0  0  0
    6.8296   13.5996   26.5595 C   0  0  0  0  0  0  0  0  0  0  0  0
    6.2971   14.7805   25.7321 C   0  0  0  0  0  0  0  0  0  0  0  0
    9.4161   14.6305   22.2649 O   0  0  0  0  0  0  0  0  0  0  0  0
   10.7918   14.5323   22.6091 C   0  0  0  0  0  0  0  0  0  0  0  0
  1  2  1  0
  2  3  1  0
  3  4  2  0
  3  5  1  0
  5  6  1  6
  6  7  1  0
  7  8  1  0
  8  9  2  0
  8 10  1  0
 10 11  1  0
 11 12  1  0
 12 13  1  0
 13 14  1  0
 14 15  2  0
 14 16  2  0
 14 17  1  0
 17 18  1  0
 18 19  1  0
 19 20  1  0
 20 21  1  0
 21 22  1  0
 13 23  1  0
 23 24  1  0
  5 25  1  0
 25 26  1  0
 24 10  1  0
 22 17  1  0
M  END
>  <energy_score>  (4182) 
-27.255082

>  <inchikey>  (4182) 
CRTJDPGXQCIWEQ-UHFFFAOYSA-N

>  <smiles>  (4182) 
COC(=O)C(COC(=O)C1CCN(S(=O)(=O)N2CCCCC2)CC1)OC

>  <ref_pdb>  (4182) 
A0875a

>  <alias>  (4182) 
CRTJDPGXQCIWEQ-UHFFFAOYSA-N-P439-P87-P439-601505

>  <HIPPO Pose ID>  (4182) 
507901

>  <name>  (4182) 
CRTJDPGXQCIWEQ-UHFFFAOYSA-N-P439-P87-P439-601505

>  <HIPPO Compound ID>  (4182) 
314486

>  <ref_mols>  (4182) 
A4706a,A0875a

>  <distance_score>  (4182) 
1.708103

>  <inspiration_score>  (4182) 
None

$$$$
LDFVAVUMUDJZSA-UHFFFAOYSA-N-P439-P87-P439-601505
     RDKit          3D

 26 28  0  0  0  0  0  0  0  0999 V2000
    6.2907   13.0396   22.6251 O   0  0  0  0  0  0  0  0  0  0  0  0
    6.3729   13.7406   23.6296 C   0  0  0  0  0  0  0  0  0  0  0  0
    6.9570   14.9648   23.6799 O   0  0  0  0  0  0  0  0  0  0  0  0
    7.5342   15.4505   22.4512 C   0  0  0  0  0  0  0  0  0  0  0  0
    9.0641   15.3706   22.5096 C   0  0  0  0  0  0  0  0  0  0  0  0
    9.7019   16.0035   21.3152 C   0  0  0  0  0  0  0  0  0  0  0  0
    9.2777   15.1971   20.2373 O   0  0  0  0  0  0  0  0  0  0  0  0
    9.8779   15.5719   19.0219 C   0  0  0  0  0  0  0  0  0  0  0  0
   10.8758   14.5604   18.7022 C   0  0  2  0  0  0  0  0  0  0  0  0
   12.0972   14.4113   19.5498 C   0  0  0  0  0  0  0  0  0  0  0  0
   12.1270   15.0297   18.2551 O   0  0  0  0  0  0  0  0  0  0  0  0
    5.8226   13.2965   24.9848 C   0  0  0  0  0  0  0  0  0  0  0  0
    6.4419   11.9621   25.4234 C   0  0  0  0  0  0  0  0  0  0  0  0
    7.4753   12.0780   26.5367 C   0  0  0  0  0  0  0  0  0  0  0  0
    8.2087   13.3636   26.5133 N   0  0  0  0  0  0  0  0  0  0  0  0
    9.3967   13.5179   25.3392 S   0  0  0  0  0  0  0  0  0  0  0  0
    9.7798   14.9018   25.2324 O   0  0  0  0  0  0  0  0  0  0  0  0
    8.9439   12.7433   24.2122 O   0  0  0  0  0  0  0  0  0  0  0  0
   10.7457   12.7063   25.9909 N   0  0  0  0  0  0  0  0  0  0  0  0
   11.6167   13.5780   26.8285 C   0  0  0  0  0  0  0  0  0  0  0  0
   13.0926   13.2112   26.7052 C   0  0  0  0  0  0  0  0  0  0  0  0
   13.3539   11.7571   26.6471 C   0  0  0  0  0  0  0  0  0  0  0  0
   12.6947   11.2404   25.3930 C   0  0  0  0  0  0  0  0  0  0  0  0
   11.4825   12.0370   24.9007 C   0  0  0  0  0  0  0  0  0  0  0  0
    7.3083   14.5370   26.6830 C   0  0  0  0  0  0  0  0  0  0  0  0
    5.9089   14.3244   26.1109 C   0  0  0  0  0  0  0  0  0  0  0  0
  1  2  2  0
  2  3  1  0
  3  4  1  0
  4  5  1  0
  5  6  1  0
  6  7  1  0
  7  8  1  0
  9  8  1  1
  9 10  1  0
 10 11  1  0
  2 12  1  0
 12 13  1  0
 13 14  1  0
 14 15  1  0
 15 16  1  0
 16 17  2  0
 16 18  2  0
 16 19  1  0
 19 20  1  0
 20 21  1  0
 21 22  1  0
 22 23  1  0
 23 24  1  0
 15 25  1  0
 25 26  1  0
 11  9  1  0
 26 12  1  0
 24 19  1  0
M  END
>  <energy_score>  (4183) 
-33.564336

>  <inchikey>  (4183) 
LDFVAVUMUDJZSA-UHFFFAOYSA-N

>  <smiles>  (4183) 
O=C(OCCCOCC1CO1)C1CCN(S(=O)(=O)N2CCCCC2)CC1

>  <ref_pdb>  (4183) 
A0875a

>  <alias>  (4183) 
LDFVAVUMUDJZSA-UHFFFAOYSA-N-P439-P87-P439-601505

>  <HIPPO Pose ID>  (4183) 
507903

>  <name>  (4183) 
LDFVAVUMUDJZSA-UHFFFAOYSA-N-P439-P87-P439-601505

>  <HIPPO Compound ID>  (4183) 
314487

>  <ref_mols>  (4183) 
A4706a,A0875a

>  <distance_score>  (4183) 
1.670529

>  <inspiration_score>  (4183) 
None

$$$$
HGBSFBANFLVKRK-UHFFFAOYSA-N-P439-P87-P439-601505
     RDKit          3D

 26 28  0  0  0  0  0  0  0  0999 V2000
    9.5399   17.4267   19.4488 O   0  0  0  0  0  0  0  0  0  0  0  0
    9.8435   16.4433   20.1007 C   0  0  0  0  0  0  0  0  0  0  0  0
    9.6262   15.0449   19.6422 C   0  0  0  0  0  0  0  0  0  0  0  0
    8.6433   14.4161   20.4767 O   0  0  0  0  0  0  0  0  0  0  0  0
    8.7532   14.7603   21.8640 C   0  0  2  0  0  0  0  0  0  0  0  0
    7.5506   15.6668   22.2589 C   0  0  0  0  0  0  0  0  0  0  0  0
    6.2428   14.9982   22.1789 O   0  0  0  0  0  0  0  0  0  0  0  0
    5.4681   14.8112   23.3008 C   0  0  0  0  0  0  0  0  0  0  0  0
    4.2579   14.9963   23.3072 O   0  0  0  0  0  0  0  0  0  0  0  0
    6.2182   14.2540   24.4909 C   0  0  0  0  0  0  0  0  0  0  0  0
    5.8383   12.8423   24.9405 C   0  0  0  0  0  0  0  0  0  0  0  0
    6.7446   12.2981   26.0670 C   0  0  0  0  0  0  0  0  0  0  0  0
    7.8688   13.2443   26.3778 N   0  0  0  0  0  0  0  0  0  0  0  0
    9.0715   13.3395   25.1862 S   0  0  0  0  0  0  0  0  0  0  0  0
    9.2691   14.7369   24.8863 O   0  0  0  0  0  0  0  0  0  0  0  0
    8.6960   12.3992   24.1554 O   0  0  0  0  0  0  0  0  0  0  0  0
   10.4708   12.7626   25.8945 N   0  0  0  0  0  0  0  0  0  0  0  0
   11.6062   13.7381   25.9019 C   0  0  0  0  0  0  0  0  0  0  0  0
   12.5645   13.4008   24.7577 C   0  0  0  0  0  0  0  0  0  0  0  0
   13.2949   12.1224   25.1139 C   0  0  0  0  0  0  0  0  0  0  0  0
   12.3091   11.1563   25.6786 C   0  0  0  0  0  0  0  0  0  0  0  0
   10.8626   11.4485   25.3095 C   0  0  0  0  0  0  0  0  0  0  0  0
    7.2807   14.5641   26.7923 C   0  0  0  0  0  0  0  0  0  0  0  0
    6.3669   15.1682   25.7012 C   0  0  0  0  0  0  0  0  0  0  0  0
   10.1413   15.3659   22.1485 C   0  0  0  0  0  0  0  0  0  0  0  0
   10.3647   16.5216   21.3460 O   0  0  0  0  0  0  0  0  0  0  0  0
  1  2  2  0
  2  3  1  0
  3  4  1  0
  4  5  1  0
  5  6  1  6
  6  7  1  0
  7  8  1  0
  8  9  2  0
  8 10  1  0
 10 11  1  0
 11 12  1  0
 12 13  1  0
 13 14  1  0
 14 15  2  0
 14 16  2  0
 14 17  1  0
 17 18  1  0
 18 19  1  0
 19 20  1  0
 20 21  1  0
 21 22  1  0
 13 23  1  0
 23 24  1  0
  5 25  1  0
 25 26  1  0
 26  2  1  0
 24 10  1  0
 22 17  1  0
M  END
>  <energy_score>  (4184) 
-19.241433

>  <inchikey>  (4184) 
HGBSFBANFLVKRK-UHFFFAOYSA-N

>  <smiles>  (4184) 
O=C1COC(COC(=O)C2CCN(S(=O)(=O)N3CCCCC3)CC2)CO1

>  <ref_pdb>  (4184) 
A0875a

>  <alias>  (4184) 
HGBSFBANFLVKRK-UHFFFAOYSA-N-P439-P87-P439-601505

>  <HIPPO Pose ID>  (4184) 
507905

>  <name>  (4184) 
HGBSFBANFLVKRK-UHFFFAOYSA-N-P439-P87-P439-601505

>  <HIPPO Compound ID>  (4184) 
314488

>  <ref_mols>  (4184) 
A4706a,A0875a

>  <distance_score>  (4184) 
1.82469

>  <inspiration_score>  (4184) 
None

$$$$
VOIDJDTZGAQAIR-UHFFFAOYSA-N-P439-P87-P439-601505
     RDKit          3D

 26 29  0  0  0  0  0  0  0  0999 V2000
    7.0223   14.3414   21.2772 C   0  0  0  0  0  0  0  0  0  0  0  0
    7.7902   15.5617   21.7483 C   0  0  1  0  0  0  0  0  0  0  0  0
    7.5698   15.6645   23.1487 O   0  0  0  0  0  0  0  0  0  0  0  0
    6.2883   15.6255   23.6568 C   0  0  0  0  0  0  0  0  0  0  0  0
    5.2440   15.9532   23.1279 O   0  0  0  0  0  0  0  0  0  0  0  0
    6.4707   14.9826   24.9933 C   0  0  0  0  0  0  0  0  0  0  0  0
    6.6705   13.4623   24.7903 C   0  0  0  0  0  0  0  0  0  0  0  0
    6.9843   12.7837   26.1098 C   0  0  0  0  0  0  0  0  0  0  0  0
    7.7029   13.7393   26.9812 N   0  0  0  0  0  0  0  0  0  0  0  0
    9.2547   14.3572   26.5430 S   0  0  0  0  0  0  0  0  0  0  0  0
    9.3279   14.7887   25.1693 O   0  0  0  0  0  0  0  0  0  0  0  0
    9.6371   15.2619   27.5961 O   0  0  0  0  0  0  0  0  0  0  0  0
   10.3214   13.0592   26.6083 N   0  0  0  0  0  0  0  0  0  0  0  0
    9.9893   11.9571   25.6985 C   0  0  0  0  0  0  0  0  0  0  0  0
   11.1199   11.3068   24.9681 C   0  0  0  0  0  0  0  0  0  0  0  0
   12.5262   11.6618   25.3996 C   0  0  0  0  0  0  0  0  0  0  0  0
   12.5979   13.1453   25.5117 C   0  0  0  0  0  0  0  0  0  0  0  0
   11.7356   13.5401   26.6895 C   0  0  0  0  0  0  0  0  0  0  0  0
    6.6959   14.8151   27.4242 C   0  0  0  0  0  0  0  0  0  0  0  0
    5.7227   15.2287   26.2728 C   0  0  0  0  0  0  0  0  0  0  0  0
    9.2684   15.2983   21.4335 C   0  0  2  0  0  0  0  0  0  0  0  0
   10.5184   16.0352   22.0551 C   0  0  0  0  0  0  0  0  0  0  0  0
   11.2204   14.8062   21.4002 C   0  0  2  0  0  0  0  0  0  0  0  0
   10.8905   14.9261   19.9070 C   0  0  0  0  0  0  0  0  0  0  0  0
    9.5062   15.2760   19.9872 O   0  0  0  0  0  0  0  0  0  0  0  0
   10.0199   14.0317   22.0273 C   0  0  0  0  0  0  0  0  0  0  0  0
  2  1  1  1
  2  3  1  0
  3  4  1  0
  4  5  2  0
  4  6  1  0
  6  7  1  0
  7  8  1  0
  8  9  1  0
  9 10  1  0
 10 11  2  0
 10 12  2  0
 10 13  1  0
 13 14  1  0
 14 15  1  0
 15 16  1  0
 16 17  1  0
 17 18  1  0
  9 19  1  0
 19 20  1  0
  2 21  1  0
 21 22  1  1
 23 22  1  1
 23 24  1  0
 24 25  1  0
 23 26  1  0
 20  6  1  0
 25 21  1  0
 18 13  1  0
 26 21  1  0
M  END
>  <energy_score>  (4185) 
-5.774836

>  <inchikey>  (4185) 
VOIDJDTZGAQAIR-UHFFFAOYSA-N

>  <smiles>  (4185) 
CC(OC(=O)C1CCN(S(=O)(=O)N2CCCCC2)CC1)C12CC(CO1)C2

>  <ref_pdb>  (4185) 
A0875a

>  <alias>  (4185) 
VOIDJDTZGAQAIR-UHFFFAOYSA-N-P439-P87-P439-601505

>  <HIPPO Pose ID>  (4185) 
507907

>  <name>  (4185) 
VOIDJDTZGAQAIR-UHFFFAOYSA-N-P439-P87-P439-601505

>  <HIPPO Compound ID>  (4185) 
314489

>  <ref_mols>  (4185) 
A4706a,A0875a

>  <distance_score>  (4185) 
1.909696

>  <inspiration_score>  (4185) 
None

$$$$
FRBQIASZUIJBCO-UHFFFAOYSA-N-P439-P87-P439-601505
     RDKit          3D

 26 28  0  0  0  0  0  0  0  0999 V2000
   11.8526   14.8238   23.1017 O   0  0  0  0  0  0  0  0  0  0  0  0
   10.8795   15.0046   22.3889 C   0  0  0  0  0  0  0  0  0  0  0  0
    9.8528   13.9738   22.0444 C   0  0  0  0  0  0  0  0  0  0  0  0
    8.7273   14.7819   21.4537 C   0  0  1  0  0  0  0  0  0  0  0  0
    7.7527   15.1618   22.4730 O   0  0  0  0  0  0  0  0  0  0  0  0
    6.9337   14.1526   22.8701 C   0  0  0  0  0  0  0  0  0  0  0  0
    6.9211   13.0541   22.3099 O   0  0  0  0  0  0  0  0  0  0  0  0
    5.9873   14.4472   24.0461 C   0  0  0  0  0  0  0  0  0  0  0  0
    5.7339   13.1240   24.7923 C   0  0  0  0  0  0  0  0  0  0  0  0
    6.9997   12.6488   25.4999 C   0  0  0  0  0  0  0  0  0  0  0  0
    7.6300   13.7035   26.3318 N   0  0  0  0  0  0  0  0  0  0  0  0
    9.2127   14.2127   26.0371 S   0  0  0  0  0  0  0  0  0  0  0  0
    9.5770   15.0768   27.1333 O   0  0  0  0  0  0  0  0  0  0  0  0
    9.2535   14.7205   24.6925 O   0  0  0  0  0  0  0  0  0  0  0  0
   10.2721   12.8996   26.1146 N   0  0  0  0  0  0  0  0  0  0  0  0
    9.9749   11.7223   25.2890 C   0  0  0  0  0  0  0  0  0  0  0  0
   11.0686   10.6799   25.2199 C   0  0  0  0  0  0  0  0  0  0  0  0
   12.4833   11.2283   25.4630 C   0  0  0  0  0  0  0  0  0  0  0  0
   12.5634   12.6672   25.0633 C   0  0  0  0  0  0  0  0  0  0  0  0
   11.6703   13.4485   26.0019 C   0  0  0  0  0  0  0  0  0  0  0  0
    6.7275   14.8961   26.4679 C   0  0  0  0  0  0  0  0  0  0  0  0
    6.4013   15.4970   25.0856 C   0  0  0  0  0  0  0  0  0  0  0  0
    9.4764   15.9787   20.8988 C   0  0  2  0  0  0  0  0  0  0  0  0
    9.8836   15.8366   19.4353 C   0  0  0  0  0  0  0  0  0  0  0  0
   11.3552   14.6634   19.0243 Br  0  0  0  0  0  0  0  0  0  0  0  0
   10.6328   16.1578   21.7188 O   0  0  0  0  0  0  0  0  0  0  0  0
  1  2  2  0
  2  3  1  0
  3  4  1  0
  4  5  1  1
  5  6  1  0
  6  7  2  0
  6  8  1  0
  8  9  1  0
  9 10  1  0
 10 11  1  0
 11 12  1  0
 12 13  2  0
 12 14  2  0
 12 15  1  0
 15 16  1  0
 16 17  1  0
 17 18  1  0
 18 19  1  0
 19 20  1  0
 11 21  1  0
 21 22  1  0
  4 23  1  0
 23 24  1  6
 24 25  1  0
 23 26  1  0
 26  2  1  0
 22  8  1  0
 20 15  1  0
M  END
>  <energy_score>  (4186) 
-40.480001

>  <inchikey>  (4186) 
FRBQIASZUIJBCO-UHFFFAOYSA-N

>  <smiles>  (4186) 
O=C1CC(OC(=O)C2CCN(S(=O)(=O)N3CCCCC3)CC2)C(CBr)O1

>  <ref_pdb>  (4186) 
A0875a

>  <alias>  (4186) 
FRBQIASZUIJBCO-UHFFFAOYSA-N-P439-P87-P439-601505

>  <HIPPO Pose ID>  (4186) 
507909

>  <name>  (4186) 
FRBQIASZUIJBCO-UHFFFAOYSA-N-P439-P87-P439-601505

>  <HIPPO Compound ID>  (4186) 
314490

>  <ref_mols>  (4186) 
A4706a,A0875a

>  <distance_score>  (4186) 
1.516948

>  <inspiration_score>  (4186) 
None

$$$$
BICRTDKIXXBQES-UHFFFAOYSA-N-P439-P87-P439-601505
     RDKit          3D

 26 27  0  0  0  0  0  0  0  0999 V2000
    7.3964   14.3304   21.2075 C   0  0  0  0  0  0  0  0  0  0  0  0
    7.6931   15.1041   22.4638 C   0  0  0  0  0  0  0  0  0  0  0  0
    7.0780   16.4791   22.2829 C   0  0  0  0  0  0  0  0  0  0  0  0
    9.2239   15.1175   22.7412 C   0  0  0  0  0  0  0  0  0  0  0  0
    9.9985   15.7146   21.6990 O   0  0  0  0  0  0  0  0  0  0  0  0
   10.6322   14.7758   20.8341 C   0  0  0  0  0  0  0  0  0  0  0  0
   10.4598   15.2200   19.3820 C   0  0  0  0  0  0  0  0  0  0  0  0
   11.2688   14.4407   18.4574 N   0  0  0  0  0  0  0  0  0  0  0  0
    6.9058   14.5620   23.5473 O   0  0  0  0  0  0  0  0  0  0  0  0
    6.9152   13.2457   23.8213 C   0  0  0  0  0  0  0  0  0  0  0  0
    7.6301   12.4164   23.2753 O   0  0  0  0  0  0  0  0  0  0  0  0
    5.8815   12.8913   24.8755 C   0  0  0  0  0  0  0  0  0  0  0  0
    6.4691   11.7711   25.7375 C   0  0  0  0  0  0  0  0  0  0  0  0
    7.5483   12.3129   26.6747 C   0  0  0  0  0  0  0  0  0  0  0  0
    7.9059   13.6875   26.2751 N   0  0  0  0  0  0  0  0  0  0  0  0
    9.3248   14.3900   26.7872 S   0  0  0  0  0  0  0  0  0  0  0  0
    9.5898   15.5171   25.9285 O   0  0  0  0  0  0  0  0  0  0  0  0
    9.2060   14.5665   28.2102 O   0  0  0  0  0  0  0  0  0  0  0  0
   10.5616   13.2575   26.5138 N   0  0  0  0  0  0  0  0  0  0  0  0
   10.8226   13.0893   25.0723 C   0  0  0  0  0  0  0  0  0  0  0  0
   11.9838   12.1607   24.8531 C   0  0  0  0  0  0  0  0  0  0  0  0
   13.2538   12.5131   25.5916 C   0  0  0  0  0  0  0  0  0  0  0  0
   12.9661   12.7914   27.0449 C   0  0  0  0  0  0  0  0  0  0  0  0
   11.7930   13.7488   27.2110 C   0  0  0  0  0  0  0  0  0  0  0  0
    6.7481   14.6187   26.4831 C   0  0  0  0  0  0  0  0  0  0  0  0
    5.5178   14.0726   25.7727 C   0  0  0  0  0  0  0  0  0  0  0  0
  1  2  1  0
  2  3  1  0
  2  4  1  0
  4  5  1  0
  5  6  1  0
  6  7  1  0
  7  8  1  0
  2  9  1  0
  9 10  1  0
 10 11  2  0
 10 12  1  0
 12 13  1  0
 13 14  1  0
 14 15  1  0
 15 16  1  0
 16 17  2  0
 16 18  2  0
 16 19  1  0
 19 20  1  0
 20 21  1  0
 21 22  1  0
 22 23  1  0
 23 24  1  0
 15 25  1  0
 25 26  1  0
 26 12  1  0
 24 19  1  0
M  END
>  <energy_score>  (4187) 
-44.128614

>  <inchikey>  (4187) 
BICRTDKIXXBQES-UHFFFAOYSA-N

>  <smiles>  (4187) 
CC(C)(COCCN)OC(=O)C1CCN(S(=O)(=O)N2CCCCC2)CC1

>  <ref_pdb>  (4187) 
A0875a

>  <alias>  (4187) 
BICRTDKIXXBQES-UHFFFAOYSA-N-P439-P87-P439-601505

>  <HIPPO Pose ID>  (4187) 
507911

>  <name>  (4187) 
BICRTDKIXXBQES-UHFFFAOYSA-N-P439-P87-P439-601505

>  <HIPPO Compound ID>  (4187) 
314491

>  <ref_mols>  (4187) 
A4706a,A0875a

>  <distance_score>  (4187) 
1.686219

>  <inspiration_score>  (4187) 
None

$$$$
ITBOGBFJCLNMBZ-UHFFFAOYSA-N-P439-P87-P439-601505
     RDKit          3D

 26 28  0  0  0  0  0  0  0  0999 V2000
    8.5379   18.7840   20.6316 C   0  0  0  0  0  0  0  0  0  0  0  0
    9.2191   17.6882   20.2930 C   0  0  0  0  0  0  0  0  0  0  0  0
    9.3875   16.5117   21.1389 C   0  0  1  0  0  0  0  0  0  0  0  0
    8.8819   15.4868   20.3211 O   0  0  0  0  0  0  0  0  0  0  0  0
    9.2777   14.2240   20.7597 C   0  0  0  0  0  0  0  0  0  0  0  0
    9.6550   14.1892   22.2123 C   0  0  2  0  0  0  0  0  0  0  0  0
    8.5280   14.5715   23.0899 O   0  0  0  0  0  0  0  0  0  0  0  0
    7.4284   13.7805   23.2018 C   0  0  0  0  0  0  0  0  0  0  0  0
    7.0941   12.9401   22.3724 O   0  0  0  0  0  0  0  0  0  0  0  0
    6.6351   13.9470   24.5204 C   0  0  0  0  0  0  0  0  0  0  0  0
    6.4590   12.5830   25.2371 C   0  0  0  0  0  0  0  0  0  0  0  0
    7.4717   12.2075   26.3356 C   0  0  0  0  0  0  0  0  0  0  0  0
    8.4915   13.2748   26.5745 N   0  0  0  0  0  0  0  0  0  0  0  0
    9.7269   13.3137   25.4524 S   0  0  0  0  0  0  0  0  0  0  0  0
   10.0338   14.6951   25.1767 O   0  0  0  0  0  0  0  0  0  0  0  0
    9.3400   12.3580   24.4420 O   0  0  0  0  0  0  0  0  0  0  0  0
   11.1601   12.6878   26.0602 N   0  0  0  0  0  0  0  0  0  0  0  0
   12.1143   12.5648   24.9024 C   0  0  0  0  0  0  0  0  0  0  0  0
   13.2312   11.6373   25.3192 C   0  0  0  0  0  0  0  0  0  0  0  0
   14.0374   12.2979   26.4121 C   0  0  0  0  0  0  0  0  0  0  0  0
   13.1433   12.8233   27.5333 C   0  0  0  0  0  0  0  0  0  0  0  0
   11.8261   13.5021   27.1001 C   0  0  0  0  0  0  0  0  0  0  0  0
    7.7744   14.5669   26.7699 C   0  0  0  0  0  0  0  0  0  0  0  0
    7.0771   15.0503   25.4906 C   0  0  0  0  0  0  0  0  0  0  0  0
   10.8235   15.1870   22.3741 C   0  0  0  0  0  0  0  0  0  0  0  0
   10.7461   16.2689   21.4434 O   0  0  0  0  0  0  0  0  0  0  0  0
  1  2  2  0
  3  2  1  6
  3  4  1  0
  4  5  1  0
  5  6  1  0
  6  7  1  1
  7  8  1  0
  8  9  2  0
  8 10  1  0
 10 11  1  0
 11 12  1  0
 12 13  1  0
 13 14  1  0
 14 15  2  0
 14 16  2  0
 14 17  1  0
 17 18  1  0
 18 19  1  0
 19 20  1  0
 20 21  1  0
 21 22  1  0
 13 23  1  0
 23 24  1  0
  6 25  1  0
 25 26  1  0
 26  3  1  0
 24 10  1  0
 22 17  1  0
M  END
>  <energy_score>  (4188) 
-14.560626

>  <inchikey>  (4188) 
ITBOGBFJCLNMBZ-UHFFFAOYSA-N

>  <smiles>  (4188) 
C=CC1OCC(OC(=O)C2CCN(S(=O)(=O)N3CCCCC3)CC2)CO1

>  <ref_pdb>  (4188) 
A0875a

>  <alias>  (4188) 
ITBOGBFJCLNMBZ-UHFFFAOYSA-N-P439-P87-P439-601505

>  <HIPPO Pose ID>  (4188) 
507913

>  <name>  (4188) 
ITBOGBFJCLNMBZ-UHFFFAOYSA-N-P439-P87-P439-601505

>  <HIPPO Compound ID>  (4188) 
314492

>  <ref_mols>  (4188) 
A4706a,A0875a

>  <distance_score>  (4188) 
1.751605

>  <inspiration_score>  (4188) 
None

$$$$
DYQFGICUYIWWNQ-UHFFFAOYSA-N-P439-P87-P439-601505
     RDKit          3D

 26 28  0  0  0  0  0  0  0  0999 V2000
    8.4803   17.3978   21.2502 C   0  0  0  0  0  0  0  0  0  0  0  0
    8.3046   15.9332   21.6769 C   0  0  1  0  0  0  0  0  0  0  0  0
    9.5980   15.4174   22.3573 C   0  0  0  0  0  0  0  0  0  0  0  0
   10.7494   15.4694   21.5460 O   0  0  0  0  0  0  0  0  0  0  0  0
   10.6317   14.7271   20.3226 C   0  0  0  0  0  0  0  0  0  0  0  0
   11.9409   14.4795   19.6017 C   0  0  0  0  0  0  0  0  0  0  0  0
   11.3949   15.0371   18.3717 N   0  0  0  0  0  0  0  0  0  0  0  0
   10.2108   15.5118   19.0807 C   0  0  0  0  0  0  0  0  0  0  0  0
    7.1527   15.7879   22.5493 O   0  0  0  0  0  0  0  0  0  0  0  0
    6.7902   14.4928   22.7875 C   0  0  0  0  0  0  0  0  0  0  0  0
    6.2959   13.7336   21.9650 O   0  0  0  0  0  0  0  0  0  0  0  0
    7.1835   14.0875   24.1860 C   0  0  0  0  0  0  0  0  0  0  0  0
    7.5142   12.5950   24.3038 C   0  0  0  0  0  0  0  0  0  0  0  0
    7.8878   12.2048   25.7241 C   0  0  0  0  0  0  0  0  0  0  0  0
    8.3709   13.3688   26.4668 N   0  0  0  0  0  0  0  0  0  0  0  0
    9.9109   14.0398   26.2927 S   0  0  0  0  0  0  0  0  0  0  0  0
   10.1133   14.7704   27.5185 O   0  0  0  0  0  0  0  0  0  0  0  0
   10.0530   14.7253   25.0391 O   0  0  0  0  0  0  0  0  0  0  0  0
   11.0327   12.7953   26.2462 N   0  0  0  0  0  0  0  0  0  0  0  0
   12.3800   13.1726   26.8286 C   0  0  0  0  0  0  0  0  0  0  0  0
   13.5576   12.9346   25.8582 C   0  0  0  0  0  0  0  0  0  0  0  0
   13.6554   11.4973   25.3967 C   0  0  0  0  0  0  0  0  0  0  0  0
   12.2515   10.9708   25.3230 C   0  0  0  0  0  0  0  0  0  0  0  0
   11.1844   12.0107   24.9875 C   0  0  0  0  0  0  0  0  0  0  0  0
    7.2575   14.3862   26.6525 C   0  0  0  0  0  0  0  0  0  0  0  0
    6.3772   14.5327   25.3863 C   0  0  0  0  0  0  0  0  0  0  0  0
  2  1  1  1
  2  3  1  0
  3  4  1  0
  4  5  1  0
  5  6  1  0
  6  7  1  0
  7  8  1  0
  2  9  1  0
  9 10  1  0
 10 11  2  0
 10 12  1  0
 12 13  1  0
 13 14  1  0
 14 15  1  0
 15 16  1  0
 16 17  2  0
 16 18  2  0
 16 19  1  0
 19 20  1  0
 20 21  1  0
 21 22  1  0
 22 23  1  0
 23 24  1  0
 15 25  1  0
 25 26  1  0
  8  5  1  0
 26 12  1  0
 24 19  1  0
M  END
>  <energy_score>  (4189) 
-13.791741

>  <inchikey>  (4189) 
DYQFGICUYIWWNQ-UHFFFAOYSA-N

>  <smiles>  (4189) 
CC(COC1CNC1)OC(=O)C1CCN(S(=O)(=O)N2CCCCC2)CC1

>  <ref_pdb>  (4189) 
A0875a

>  <alias>  (4189) 
DYQFGICUYIWWNQ-UHFFFAOYSA-N-P439-P87-P439-601505

>  <HIPPO Pose ID>  (4189) 
507917

>  <name>  (4189) 
DYQFGICUYIWWNQ-UHFFFAOYSA-N-P439-P87-P439-601505

>  <HIPPO Compound ID>  (4189) 
314494

>  <ref_mols>  (4189) 
A4706a,A0875a

>  <distance_score>  (4189) 
1.637371

>  <inspiration_score>  (4189) 
None

$$$$
ISZNWYURAVGPGY-UHFFFAOYSA-N-P439-P87-P439-601505
     RDKit          3D

 26 27  0  0  0  0  0  0  0  0999 V2000
   10.8869   15.2419   19.0714 C   0  0  0  0  0  0  0  0  0  0  0  0
    9.8814   15.6825   20.1369 C   0  0  0  0  0  0  0  0  0  0  0  0
    9.5595   17.1732   20.2073 C   0  0  0  0  0  0  0  0  0  0  0  0
   10.3576   15.2270   21.5086 C   0  0  0  0  0  0  0  0  0  0  0  0
    9.9283   13.8976   21.7156 O   0  0  0  0  0  0  0  0  0  0  0  0
    8.7879   13.7956   22.5519 C   0  0  0  0  0  0  0  0  0  0  0  0
    7.4118   14.2830   22.0117 C   0  0  2  0  0  0  0  0  0  0  0  0
    7.0501   15.7163   22.4077 C   0  0  0  0  0  0  0  0  0  0  0  0
    6.3116   13.3805   22.3856 O   0  0  0  0  0  0  0  0  0  0  0  0
    5.6025   13.6248   23.5327 C   0  0  0  0  0  0  0  0  0  0  0  0
    4.4047   13.8605   23.5466 O   0  0  0  0  0  0  0  0  0  0  0  0
    6.4513   13.4835   24.7612 C   0  0  0  0  0  0  0  0  0  0  0  0
    6.7653   12.0380   25.0979 C   0  0  0  0  0  0  0  0  0  0  0  0
    7.9607   11.9790   26.0306 C   0  0  0  0  0  0  0  0  0  0  0  0
    8.0943   13.2188   26.8105 N   0  0  0  0  0  0  0  0  0  0  0  0
    9.3678   14.2958   26.6147 S   0  0  0  0  0  0  0  0  0  0  0  0
    9.2177   15.0514   25.3983 O   0  0  0  0  0  0  0  0  0  0  0  0
    9.4604   14.9973   27.8690 O   0  0  0  0  0  0  0  0  0  0  0  0
   10.7369   13.2779   26.4693 N   0  0  0  0  0  0  0  0  0  0  0  0
   11.1965   13.1224   25.0656 C   0  0  0  0  0  0  0  0  0  0  0  0
   12.3356   12.1319   25.0148 C   0  0  0  0  0  0  0  0  0  0  0  0
   13.5190   12.4800   25.8818 C   0  0  0  0  0  0  0  0  0  0  0  0
   13.0695   12.8508   27.2763 C   0  0  0  0  0  0  0  0  0  0  0  0
   11.8572   13.7840   27.3135 C   0  0  0  0  0  0  0  0  0  0  0  0
    6.7877   13.8134   27.2177 C   0  0  0  0  0  0  0  0  0  0  0  0
    5.9693   14.2316   25.9952 C   0  0  0  0  0  0  0  0  0  0  0  0
  1  2  1  0
  2  3  1  0
  2  4  1  0
  4  5  1  0
  5  6  1  0
  6  7  1  0
  7  8  1  1
  7  9  1  0
  9 10  1  0
 10 11  2  0
 10 12  1  0
 12 13  1  0
 13 14  1  0
 14 15  1  0
 15 16  1  0
 16 17  2  0
 16 18  2  0
 16 19  1  0
 19 20  1  0
 20 21  1  0
 21 22  1  0
 22 23  1  0
 23 24  1  0
 15 25  1  0
 25 26  1  0
 26 12  1  0
 24 19  1  0
M  END
>  <energy_score>  (4190) 
-37.553444

>  <inchikey>  (4190) 
ISZNWYURAVGPGY-UHFFFAOYSA-N

>  <smiles>  (4190) 
CC(C)COCC(C)OC(=O)C1CCN(S(=O)(=O)N2CCCCC2)CC1

>  <ref_pdb>  (4190) 
A0875a

>  <alias>  (4190) 
ISZNWYURAVGPGY-UHFFFAOYSA-N-P439-P87-P439-601505

>  <HIPPO Pose ID>  (4190) 
507923

>  <name>  (4190) 
ISZNWYURAVGPGY-UHFFFAOYSA-N-P439-P87-P439-601505

>  <HIPPO Compound ID>  (4190) 
314497

>  <ref_mols>  (4190) 
A4706a,A0875a

>  <distance_score>  (4190) 
1.894037

>  <inspiration_score>  (4190) 
None

$$$$
LNTDHWHTTIHEPR-UHFFFAOYSA-N-P439-P87-P439-601505
     RDKit          3D

 26 28  0  0  0  0  0  0  0  0999 V2000
    8.3767   18.2448   21.3770 N   0  0  0  0  0  0  0  0  0  0  0  0
    9.2427   17.2372   20.8335 C   0  0  0  0  0  0  0  0  0  0  0  0
    9.0932   15.7900   21.3999 C   0  0  1  0  0  0  0  0  0  0  0  0
    7.7501   15.6460   21.9987 O   0  0  0  0  0  0  0  0  0  0  0  0
    7.2078   14.4515   22.3431 C   0  0  0  0  0  0  0  0  0  0  0  0
    6.8271   13.5989   21.5540 O   0  0  0  0  0  0  0  0  0  0  0  0
    7.2136   14.2139   23.8305 C   0  0  0  0  0  0  0  0  0  0  0  0
    6.7645   12.8324   24.3248 C   0  0  0  0  0  0  0  0  0  0  0  0
    7.1162   12.6141   25.8059 C   0  0  0  0  0  0  0  0  0  0  0  0
    7.6482   13.8443   26.4090 N   0  0  0  0  0  0  0  0  0  0  0  0
    9.2487   14.3516   26.3963 S   0  0  0  0  0  0  0  0  0  0  0  0
    9.4293   15.3308   25.3540 O   0  0  0  0  0  0  0  0  0  0  0  0
    9.5574   14.7234   27.7538 O   0  0  0  0  0  0  0  0  0  0  0  0
   10.2928   13.1085   26.0064 N   0  0  0  0  0  0  0  0  0  0  0  0
   10.1476   12.3258   24.7755 C   0  0  0  0  0  0  0  0  0  0  0  0
   10.8907   11.0386   25.0568 C   0  0  0  0  0  0  0  0  0  0  0  0
   12.3601   11.3559   25.4564 C   0  0  0  0  0  0  0  0  0  0  0  0
   12.6947   12.8198   25.2814 C   0  0  0  0  0  0  0  0  0  0  0  0
   11.7122   13.6166   26.1371 C   0  0  0  0  0  0  0  0  0  0  0  0
    6.6816   14.9680   26.2007 C   0  0  0  0  0  0  0  0  0  0  0  0
    6.5502   15.2827   24.6975 C   0  0  0  0  0  0  0  0  0  0  0  0
    9.3422   14.8170   20.2503 C   0  0  0  0  0  0  0  0  0  0  0  0
   10.7419   14.9035   19.6769 C   0  0  0  0  0  0  0  0  0  0  0  0
   11.7480   14.7224   20.7914 C   0  0  0  0  0  0  0  0  0  0  0  0
   11.5254   15.6108   21.8787 O   0  0  0  0  0  0  0  0  0  0  0  0
   10.2098   15.4921   22.4209 C   0  0  0  0  0  0  0  0  0  0  0  0
  1  2  1  0
  3  2  1  6
  3  4  1  0
  4  5  1  0
  5  6  2  0
  5  7  1  0
  7  8  1  0
  8  9  1  0
  9 10  1  0
 10 11  1  0
 11 12  2  0
 11 13  2  0
 11 14  1  0
 14 15  1  0
 15 16  1  0
 16 17  1  0
 17 18  1  0
 18 19  1  0
 10 20  1  0
 20 21  1  0
  3 22  1  0
 22 23  1  0
 23 24  1  0
 24 25  1  0
 25 26  1  0
 26  3  1  0
 21  7  1  0
 19 14  1  0
M  END
>  <energy_score>  (4191) 
-17.94826

>  <inchikey>  (4191) 
LNTDHWHTTIHEPR-UHFFFAOYSA-N

>  <smiles>  (4191) 
NCC1(OC(=O)C2CCN(S(=O)(=O)N3CCCCC3)CC2)CCCOC1

>  <ref_pdb>  (4191) 
A0875a

>  <alias>  (4191) 
LNTDHWHTTIHEPR-UHFFFAOYSA-N-P439-P87-P439-601505

>  <HIPPO Pose ID>  (4191) 
507927

>  <name>  (4191) 
LNTDHWHTTIHEPR-UHFFFAOYSA-N-P439-P87-P439-601505

>  <HIPPO Compound ID>  (4191) 
314499

>  <ref_mols>  (4191) 
A4706a,A0875a

>  <distance_score>  (4191) 
1.697773

>  <inspiration_score>  (4191) 
None

$$$$
BNNDXNVOYQFXIK-UHFFFAOYSA-N-P439-P87-P439-601505
     RDKit          3D

 26 28  0  0  0  0  0  0  0  0999 V2000
    6.7326   13.8214   22.0239 O   0  0  0  0  0  0  0  0  0  0  0  0
    7.0032   14.5120   23.0019 C   0  0  0  0  0  0  0  0  0  0  0  0
    8.0685   15.3518   23.0943 O   0  0  0  0  0  0  0  0  0  0  0  0
    9.1123   15.5413   22.0735 C   0  0  2  0  0  0  0  0  0  0  0  0
    9.0202   14.7272   20.7943 C   0  0  0  0  0  0  0  0  0  0  0  0
    9.9833   15.1841   19.8452 O   0  0  0  0  0  0  0  0  0  0  0  0
   11.3115   14.9243   20.2810 C   0  0  0  0  0  0  0  0  0  0  0  0
   11.5983   15.6516   21.5714 C   0  0  0  0  0  0  0  0  0  0  0  0
   10.5523   15.3008   22.5945 C   0  0  0  0  0  0  0  0  0  0  0  0
   10.8262   16.0253   23.7049 F   0  0  0  0  0  0  0  0  0  0  0  0
   10.7626   14.0026   22.9352 F   0  0  0  0  0  0  0  0  0  0  0  0
    6.1400   14.4665   24.2963 C   0  0  0  0  0  0  0  0  0  0  0  0
    5.7844   13.0157   24.7002 C   0  0  0  0  0  0  0  0  0  0  0  0
    6.7552   12.2557   25.6222 C   0  0  0  0  0  0  0  0  0  0  0  0
    7.7916   13.1523   26.1871 N   0  0  0  0  0  0  0  0  0  0  0  0
    9.1295   13.3972   25.1882 S   0  0  0  0  0  0  0  0  0  0  0  0
    9.5551   14.7568   25.3981 O   0  0  0  0  0  0  0  0  0  0  0  0
    8.7495   12.8725   23.9005 O   0  0  0  0  0  0  0  0  0  0  0  0
   10.2985   12.3522   25.8063 N   0  0  0  0  0  0  0  0  0  0  0  0
   11.5868   13.0281   26.1263 C   0  0  0  0  0  0  0  0  0  0  0  0
   12.6834   12.5967   25.1801 C   0  0  0  0  0  0  0  0  0  0  0  0
   12.9285   11.1237   25.4192 C   0  0  0  0  0  0  0  0  0  0  0  0
   11.6297   10.2820   25.2753 C   0  0  0  0  0  0  0  0  0  0  0  0
   10.3898   11.1041   24.9829 C   0  0  0  0  0  0  0  0  0  0  0  0
    7.1520   14.4032   26.6776 C   0  0  0  0  0  0  0  0  0  0  0  0
    6.6176   15.2621   25.5224 C   0  0  0  0  0  0  0  0  0  0  0  0
  1  2  2  0
  2  3  1  0
  4  3  1  1
  4  5  1  0
  5  6  1  0
  6  7  1  0
  7  8  1  0
  8  9  1  0
  9 10  1  0
  9 11  1  0
  2 12  1  0
 12 13  1  0
 13 14  1  0
 14 15  1  0
 15 16  1  0
 16 17  2  0
 16 18  2  0
 16 19  1  0
 19 20  1  0
 20 21  1  0
 21 22  1  0
 22 23  1  0
 23 24  1  0
 15 25  1  0
 25 26  1  0
  9  4  1  0
 26 12  1  0
 24 19  1  0
M  END
>  <energy_score>  (4192) 
-10.01512

>  <inchikey>  (4192) 
BNNDXNVOYQFXIK-UHFFFAOYSA-N

>  <smiles>  (4192) 
O=C(OC1COCCC1(F)F)C1CCN(S(=O)(=O)N2CCCCC2)CC1

>  <ref_pdb>  (4192) 
A0875a

>  <alias>  (4192) 
BNNDXNVOYQFXIK-UHFFFAOYSA-N-P439-P87-P439-601505

>  <HIPPO Pose ID>  (4192) 
507929

>  <name>  (4192) 
BNNDXNVOYQFXIK-UHFFFAOYSA-N-P439-P87-P439-601505

>  <HIPPO Compound ID>  (4192) 
314500

>  <ref_mols>  (4192) 
A4706a,A0875a

>  <distance_score>  (4192) 
1.575084

>  <inspiration_score>  (4192) 
None

$$$$
KWEJVZWSGIRBBJ-UHFFFAOYSA-N-P439-P87-P439-601505
     RDKit          3D

 26 27  0  0  0  0  0  0  0  0999 V2000
   19.2992   10.1090   29.0693 C   0  0  0  0  0  0  0  0  0  0  0  0
   18.4626   10.7540   27.9744 C   0  0  0  0  0  0  0  0  0  0  0  0
   17.0990   10.2256   28.0277 N   0  0  0  0  0  0  0  0  0  0  0  0
   16.2077   10.8317   27.0402 C   0  0  0  0  0  0  0  0  0  0  0  0
   15.7907   12.2887   27.2613 C   0  0  2  0  0  0  0  0  0  0  0  0
   15.3967   12.5543   28.7277 C   0  0  0  0  0  0  0  0  0  0  0  0
   14.8856   13.8872   28.8459 O   0  0  0  0  0  0  0  0  0  0  0  0
   14.2969   14.0849   30.1286 C   0  0  0  0  0  0  0  0  0  0  0  0
   14.7746   12.6427   26.2559 O   0  0  0  0  0  0  0  0  0  0  0  0
   13.5090   12.1993   26.4399 C   0  0  0  0  0  0  0  0  0  0  0  0
   13.1087   11.6774   27.4689 O   0  0  0  0  0  0  0  0  0  0  0  0
   12.6397   12.3078   25.1972 C   0  0  0  0  0  0  0  0  0  0  0  0
   12.3786   13.7118   24.7184 C   0  0  0  0  0  0  0  0  0  0  0  0
   11.3260   13.7683   23.6143 C   0  0  0  0  0  0  0  0  0  0  0  0
   10.0433   13.1941   24.0936 N   0  0  0  0  0  0  0  0  0  0  0  0
    9.0945   14.2882   24.9197 S   0  0  0  0  0  0  0  0  0  0  0  0
    8.5498   15.1796   23.9281 O   0  0  0  0  0  0  0  0  0  0  0  0
    9.8740   14.8089   26.0199 O   0  0  0  0  0  0  0  0  0  0  0  0
    7.8362   13.4635   25.6288 N   0  0  0  0  0  0  0  0  0  0  0  0
    6.9896   12.5341   24.8725 C   0  0  0  0  0  0  0  0  0  0  0  0
    6.4732   11.5603   25.9354 C   0  0  0  0  0  0  0  0  0  0  0  0
    5.5504   12.2950   26.9077 C   0  0  0  0  0  0  0  0  0  0  0  0
    6.2383   13.5195   27.5074 C   0  0  0  0  0  0  0  0  0  0  0  0
    6.9644   14.3570   26.4581 C   0  0  0  0  0  0  0  0  0  0  0  0
   10.1868   11.8033   24.4795 C   0  0  0  0  0  0  0  0  0  0  0  0
   11.3055   11.6210   25.4669 C   0  0  0  0  0  0  0  0  0  0  0  0
  1  2  1  0
  2  3  1  0
  3  4  1  0
  5  4  1  1
  5  6  1  0
  6  7  1  0
  7  8  1  0
  5  9  1  0
  9 10  1  0
 10 11  2  0
 10 12  1  0
 12 13  1  0
 13 14  1  0
 14 15  1  0
 15 16  1  0
 16 17  2  0
 16 18  2  0
 16 19  1  0
 19 20  1  0
 20 21  1  0
 21 22  1  0
 22 23  1  0
 23 24  1  0
 15 25  1  0
 25 26  1  0
 26 12  1  0
 24 19  1  0
M  END
>  <energy_score>  (4193) 
-64.323595

>  <inchikey>  (4193) 
KWEJVZWSGIRBBJ-UHFFFAOYSA-N

>  <smiles>  (4193) 
CCNCC(COC)OC(=O)C1CCN(S(=O)(=O)N2CCCCC2)CC1

>  <ref_pdb>  (4193) 
A0875a

>  <alias>  (4193) 
KWEJVZWSGIRBBJ-UHFFFAOYSA-N-P439-P87-P439-601505

>  <HIPPO Pose ID>  (4193) 
507931

>  <name>  (4193) 
KWEJVZWSGIRBBJ-UHFFFAOYSA-N-P439-P87-P439-601505

>  <HIPPO Compound ID>  (4193) 
314501

>  <ref_mols>  (4193) 
A4706a,A0875a

>  <distance_score>  (4193) 
1.770775

>  <inspiration_score>  (4193) 
None

$$$$
PIJSNBDACINDOG-UHFFFAOYSA-N-P439-P87-P439-601505
     RDKit          3D

 26 28  0  0  0  0  0  0  0  0999 V2000
    7.5967   14.2554   21.3288 C   0  0  0  0  0  0  0  0  0  0  0  0
    7.8596   15.6821   21.7384 C   0  0  1  0  0  0  0  0  0  0  0  0
    7.5293   15.8164   23.1268 O   0  0  0  0  0  0  0  0  0  0  0  0
    6.2702   15.4574   23.5559 C   0  0  0  0  0  0  0  0  0  0  0  0
    5.2071   15.6880   23.0074 O   0  0  0  0  0  0  0  0  0  0  0  0
    6.4893   14.6280   24.7946 C   0  0  0  0  0  0  0  0  0  0  0  0
    6.5302   13.1324   24.4212 C   0  0  0  0  0  0  0  0  0  0  0  0
    6.9981   12.2567   25.5749 C   0  0  0  0  0  0  0  0  0  0  0  0
    7.7890   13.0683   26.5250 N   0  0  0  0  0  0  0  0  0  0  0  0
    9.2804   13.7341   25.9765 S   0  0  0  0  0  0  0  0  0  0  0  0
    9.6441   14.7629   26.9213 O   0  0  0  0  0  0  0  0  0  0  0  0
    9.2530   13.9944   24.5589 O   0  0  0  0  0  0  0  0  0  0  0  0
   10.4530   12.5254   26.1246 N   0  0  0  0  0  0  0  0  0  0  0  0
   11.7956   13.2064   26.0772 C   0  0  0  0  0  0  0  0  0  0  0  0
   12.7494   12.5721   25.0942 C   0  0  0  0  0  0  0  0  0  0  0  0
   12.8341   11.1065   25.4191 C   0  0  0  0  0  0  0  0  0  0  0  0
   11.4584   10.4104   25.2691 C   0  0  0  0  0  0  0  0  0  0  0  0
   10.2996   11.3909   25.1735 C   0  0  0  0  0  0  0  0  0  0  0  0
    6.8329   14.0934   27.1751 C   0  0  0  0  0  0  0  0  0  0  0  0
    5.8587   14.7648   26.1524 C   0  0  0  0  0  0  0  0  0  0  0  0
    9.3242   16.1219   21.3859 C   0  0  2  0  0  0  0  0  0  0  0  0
    9.7939   15.7857   19.9403 C   0  0  0  0  0  0  0  0  0  0  0  0
   10.5770   14.6115   19.7947 O   0  0  0  0  0  0  0  0  0  0  0  0
   11.6259   14.5999   20.7508 C   0  0  0  0  0  0  0  0  0  0  0  0
   11.0278   14.5877   22.1402 C   0  0  0  0  0  0  0  0  0  0  0  0
   10.3023   15.7834   22.3844 O   0  0  0  0  0  0  0  0  0  0  0  0
  2  1  1  1
  2  3  1  0
  3  4  1  0
  4  5  2  0
  4  6  1  0
  6  7  1  0
  7  8  1  0
  8  9  1  0
  9 10  1  0
 10 11  2  0
 10 12  2  0
 10 13  1  0
 13 14  1  0
 14 15  1  0
 15 16  1  0
 16 17  1  0
 17 18  1  0
  9 19  1  0
 19 20  1  0
  2 21  1  0
 21 22  1  6
 22 23  1  0
 23 24  1  0
 24 25  1  0
 25 26  1  0
 20  6  1  0
 26 21  1  0
 18 13  1  0
M  END
>  <energy_score>  (4194) 
-4.11607

>  <inchikey>  (4194) 
PIJSNBDACINDOG-UHFFFAOYSA-N

>  <smiles>  (4194) 
CC(OC(=O)C1CCN(S(=O)(=O)N2CCCCC2)CC1)C1COCCO1

>  <ref_pdb>  (4194) 
A0875a

>  <alias>  (4194) 
PIJSNBDACINDOG-UHFFFAOYSA-N-P439-P87-P439-601505

>  <HIPPO Pose ID>  (4194) 
507933

>  <name>  (4194) 
PIJSNBDACINDOG-UHFFFAOYSA-N-P439-P87-P439-601505

>  <HIPPO Compound ID>  (4194) 
314502

>  <ref_mols>  (4194) 
A4706a,A0875a

>  <distance_score>  (4194) 
1.591586

>  <inspiration_score>  (4194) 
None

$$$$
XSAQLKKKEAYCQI-UHFFFAOYSA-N-P439-P87-P439-601505
     RDKit          3D

 26 29  0  0  0  0  0  0  0  0999 V2000
    6.9869   12.9691   22.0993 O   0  0  0  0  0  0  0  0  0  0  0  0
    7.2572   13.5364   23.1520 C   0  0  0  0  0  0  0  0  0  0  0  0
    8.3534   14.3036   23.3490 O   0  0  0  0  0  0  0  0  0  0  0  0
    9.3878   14.2678   22.3535 C   0  0  2  0  0  0  0  0  0  0  0  0
   10.5621   15.1881   22.7084 C   0  0  0  0  0  0  0  0  0  0  0  0
   11.0620   15.7150   21.4792 O   0  0  0  0  0  0  0  0  0  0  0  0
   10.2412   15.2358   20.3884 C   0  0  0  0  0  0  0  0  0  0  0  0
   11.0197   14.3914   19.3497 C   0  0  0  0  0  0  0  0  0  0  0  0
   11.1430   15.5811   18.5082 N   0  0  0  0  0  0  0  0  0  0  0  0
    9.9549   16.1176   19.1832 C   0  0  0  0  0  0  0  0  0  0  0  0
    8.9369   14.8421   21.0393 C   0  0  0  0  0  0  0  0  0  0  0  0
    6.3909   13.3094   24.3816 C   0  0  0  0  0  0  0  0  0  0  0  0
    6.9092   12.0813   25.1625 C   0  0  0  0  0  0  0  0  0  0  0  0
    7.8569   12.4624   26.3024 C   0  0  0  0  0  0  0  0  0  0  0  0
    8.4966   13.7139   25.9043 N   0  0  0  0  0  0  0  0  0  0  0  0
   10.0090   14.1673   26.4006 S   0  0  0  0  0  0  0  0  0  0  0  0
    9.9040   14.4172   27.8154 O   0  0  0  0  0  0  0  0  0  0  0  0
   10.4824   15.1922   25.5067 O   0  0  0  0  0  0  0  0  0  0  0  0
   11.0375   12.8688   26.2269 N   0  0  0  0  0  0  0  0  0  0  0  0
   11.0925   12.0740   24.9853 C   0  0  0  0  0  0  0  0  0  0  0  0
   12.1260   10.9863   25.2877 C   0  0  0  0  0  0  0  0  0  0  0  0
   13.5569   11.4644   25.3321 C   0  0  0  0  0  0  0  0  0  0  0  0
   13.5387   12.8977   25.8242 C   0  0  0  0  0  0  0  0  0  0  0  0
   12.3975   13.1389   26.8258 C   0  0  0  0  0  0  0  0  0  0  0  0
    7.5281   14.8535   26.0261 C   0  0  0  0  0  0  0  0  0  0  0  0
    6.2501   14.5407   25.2629 C   0  0  0  0  0  0  0  0  0  0  0  0
  1  2  2  0
  2  3  1  0
  4  3  1  1
  4  5  1  0
  5  6  1  0
  6  7  1  0
  7  8  1  0
  8  9  1  0
  9 10  1  0
  7 11  1  0
  2 12  1  0
 12 13  1  0
 13 14  1  0
 14 15  1  0
 15 16  1  0
 16 17  2  0
 16 18  2  0
 16 19  1  0
 19 20  1  0
 20 21  1  0
 21 22  1  0
 22 23  1  0
 23 24  1  0
 15 25  1  0
 25 26  1  0
 11  4  1  0
 26 12  1  0
 10  7  1  0
 24 19  1  0
M  END
>  <energy_score>  (4195) 
-35.782255

>  <inchikey>  (4195) 
XSAQLKKKEAYCQI-UHFFFAOYSA-N

>  <smiles>  (4195) 
O=C(OC1COC2(CNC2)C1)C1CCN(S(=O)(=O)N2CCCCC2)CC1

>  <ref_pdb>  (4195) 
A0875a

>  <alias>  (4195) 
XSAQLKKKEAYCQI-UHFFFAOYSA-N-P439-P87-P439-601505

>  <HIPPO Pose ID>  (4195) 
507937

>  <name>  (4195) 
XSAQLKKKEAYCQI-UHFFFAOYSA-N-P439-P87-P439-601505

>  <HIPPO Compound ID>  (4195) 
314504

>  <ref_mols>  (4195) 
A4706a,A0875a

>  <distance_score>  (4195) 
1.207372

>  <inspiration_score>  (4195) 
None

$$$$
YJZCYQLEFMHPQJ-UHFFFAOYSA-N-P439-P87-P439-601505
     RDKit          3D

 26 28  0  0  0  0  0  0  0  0999 V2000
   12.1094   15.1746   21.8848 C   0  0  0  0  0  0  0  0  0  0  0  0
   10.8238   15.8413   21.4925 C   0  0  1  0  0  0  0  0  0  0  0  0
   10.3093   15.3174   20.1705 C   0  0  0  0  0  0  0  0  0  0  0  0
    8.9020   15.3222   20.3393 O   0  0  0  0  0  0  0  0  0  0  0  0
    8.6673   15.1630   21.7487 C   0  0  2  0  0  0  0  0  0  0  0  0
    8.5100   13.6916   22.0149 C   0  0  0  0  0  0  0  0  0  0  0  0
    7.3752   15.9270   22.1458 C   0  0  0  0  0  0  0  0  0  0  0  0
    6.8399   15.6952   23.4735 O   0  0  0  0  0  0  0  0  0  0  0  0
    5.9953   14.6495   23.6312 C   0  0  0  0  0  0  0  0  0  0  0  0
    5.6932   13.8619   22.7372 O   0  0  0  0  0  0  0  0  0  0  0  0
    5.4341   14.4977   25.0483 C   0  0  0  0  0  0  0  0  0  0  0  0
    5.5529   13.0244   25.4815 C   0  0  0  0  0  0  0  0  0  0  0  0
    7.0030   12.6611   25.7770 C   0  0  0  0  0  0  0  0  0  0  0  0
    7.6767   13.6347   26.6698 N   0  0  0  0  0  0  0  0  0  0  0  0
    9.1342   14.3626   26.1944 S   0  0  0  0  0  0  0  0  0  0  0  0
    8.9743   14.9252   24.8868 O   0  0  0  0  0  0  0  0  0  0  0  0
    9.5497   15.1892   27.3002 O   0  0  0  0  0  0  0  0  0  0  0  0
   10.2528   13.1063   26.0817 N   0  0  0  0  0  0  0  0  0  0  0  0
   11.6458   13.6245   26.2758 C   0  0  0  0  0  0  0  0  0  0  0  0
   12.6400   12.4776   26.3836 C   0  0  0  0  0  0  0  0  0  0  0  0
   12.4425   11.4762   25.2639 C   0  0  0  0  0  0  0  0  0  0  0  0
   10.9652   11.0930   25.0345 C   0  0  0  0  0  0  0  0  0  0  0  0
   10.1871   12.3521   24.8145 C   0  0  0  0  0  0  0  0  0  0  0  0
    6.7224   14.6240   27.2459 C   0  0  0  0  0  0  0  0  0  0  0  0
    6.0264   15.4088   26.1337 C   0  0  0  0  0  0  0  0  0  0  0  0
    9.8324   15.5524   22.4627 O   0  0  0  0  0  0  0  0  0  0  0  0
  2  1  1  1
  2  3  1  0
  3  4  1  0
  4  5  1  0
  5  6  1  6
  5  7  1  0
  7  8  1  0
  8  9  1  0
  9 10  2  0
  9 11  1  0
 11 12  1  0
 12 13  1  0
 13 14  1  0
 14 15  1  0
 15 16  2  0
 15 17  2  0
 15 18  1  0
 18 19  1  0
 19 20  1  0
 20 21  1  0
 21 22  1  0
 22 23  1  0
 14 24  1  0
 24 25  1  0
  5 26  1  0
 26  2  1  0
 25 11  1  0
 23 18  1  0
M  END
>  <energy_score>  (4196) 
-53.292661

>  <inchikey>  (4196) 
YJZCYQLEFMHPQJ-UHFFFAOYSA-N

>  <smiles>  (4196) 
CC1COC(C)(COC(=O)C2CCN(S(=O)(=O)N3CCCCC3)CC2)O1

>  <ref_pdb>  (4196) 
A0875a

>  <alias>  (4196) 
YJZCYQLEFMHPQJ-UHFFFAOYSA-N-P439-P87-P439-601505

>  <HIPPO Pose ID>  (4196) 
507945

>  <name>  (4196) 
YJZCYQLEFMHPQJ-UHFFFAOYSA-N-P439-P87-P439-601505

>  <HIPPO Compound ID>  (4196) 
314508

>  <ref_mols>  (4196) 
A4706a,A0875a

>  <distance_score>  (4196) 
1.86876

>  <inspiration_score>  (4196) 
None

$$$$
NOCRQZYFRGWJJD-UHFFFAOYSA-N-P439-P87-P439-601505
     RDKit          3D

 26 29  0  0  0  0  0  0  0  0999 V2000
    6.8131   13.2635   21.9715 O   0  0  0  0  0  0  0  0  0  0  0  0
    7.2472   13.9475   22.8963 C   0  0  0  0  0  0  0  0  0  0  0  0
    8.0898   14.9983   22.7507 O   0  0  0  0  0  0  0  0  0  0  0  0
    8.6893   15.1531   21.4483 C   0  0  1  0  0  0  0  0  0  0  0  0
    9.3496   16.5219   21.3062 C   0  0  0  0  0  0  0  0  0  0  0  0
   10.7851   16.4685   21.8481 C   0  0  0  0  0  0  0  0  0  0  0  0
   11.5985   15.2932   21.3288 C   0  0  2  0  0  0  0  0  0  0  0  0
   11.4491   14.9411   19.8577 C   0  0  0  0  0  0  0  0  0  0  0  0
   10.1603   14.3422   19.7640 O   0  0  0  0  0  0  0  0  0  0  0  0
    9.7717   14.1017   21.1236 C   0  0  1  0  0  0  0  0  0  0  0  0
   10.9599   14.1760   21.9248 O   0  0  0  0  0  0  0  0  0  0  0  0
    6.9347   13.5694   24.3409 C   0  0  0  0  0  0  0  0  0  0  0  0
    7.7147   12.2557   24.5937 C   0  0  0  0  0  0  0  0  0  0  0  0
    8.3672   12.0814   25.9474 C   0  0  0  0  0  0  0  0  0  0  0  0
    8.8553   13.3582   26.4924 N   0  0  0  0  0  0  0  0  0  0  0  0
   10.2006   14.1058   25.7837 S   0  0  0  0  0  0  0  0  0  0  0  0
   10.4920   15.2672   26.5853 O   0  0  0  0  0  0  0  0  0  0  0  0
    9.9390   14.2328   24.3810 O   0  0  0  0  0  0  0  0  0  0  0  0
   11.4176   12.9755   25.9793 N   0  0  0  0  0  0  0  0  0  0  0  0
   11.8265   12.1864   24.8016 C   0  0  0  0  0  0  0  0  0  0  0  0
   12.7133   11.0504   25.3354 C   0  0  0  0  0  0  0  0  0  0  0  0
   14.0120   11.5070   25.9493 C   0  0  0  0  0  0  0  0  0  0  0  0
   13.8634   12.9175   26.4196 C   0  0  0  0  0  0  0  0  0  0  0  0
   12.4694   13.1913   26.9880 C   0  0  0  0  0  0  0  0  0  0  0  0
    7.6906   14.2661   26.6959 C   0  0  0  0  0  0  0  0  0  0  0  0
    7.1119   14.7071   25.3596 C   0  0  0  0  0  0  0  0  0  0  0  0
  1  2  2  0
  2  3  1  0
  4  3  1  1
  4  5  1  0
  5  6  1  0
  7  6  1  6
  7  8  1  0
  8  9  1  0
 10  9  1  6
 10 11  1  0
  2 12  1  0
 12 13  1  0
 13 14  1  0
 14 15  1  0
 15 16  1  0
 16 17  2  0
 16 18  2  0
 16 19  1  0
 19 20  1  0
 20 21  1  0
 21 22  1  0
 22 23  1  0
 23 24  1  0
 15 25  1  0
 25 26  1  0
 10  4  1  0
 26 12  1  0
 11  7  1  0
 24 19  1  0
M  END
>  <energy_score>  (4197) 
-61.092588

>  <inchikey>  (4197) 
NOCRQZYFRGWJJD-UHFFFAOYSA-N

>  <smiles>  (4197) 
O=C(OC1CCC2COC1O2)C1CCN(S(=O)(=O)N2CCCCC2)CC1

>  <ref_pdb>  (4197) 
A0875a

>  <alias>  (4197) 
NOCRQZYFRGWJJD-UHFFFAOYSA-N-P439-P87-P439-601505

>  <HIPPO Pose ID>  (4197) 
507947

>  <name>  (4197) 
NOCRQZYFRGWJJD-UHFFFAOYSA-N-P439-P87-P439-601505

>  <HIPPO Compound ID>  (4197) 
314509

>  <ref_mols>  (4197) 
A4706a,A0875a

>  <distance_score>  (4197) 
1.446918

>  <inspiration_score>  (4197) 
None

$$$$
PISNHLVLUOKGAU-UHFFFAOYSA-N-P439-P87-P439-601505
     RDKit          3D

 26 27  0  0  0  0  0  0  0  0999 V2000
    8.4638   16.9787   21.1599 C   0  0  0  0  0  0  0  0  0  0  0  0
    8.4344   15.5538   21.6852 C   0  0  1  0  0  0  0  0  0  0  0  0
    9.7916   15.1765   22.2896 C   0  0  0  0  0  0  0  0  0  0  0  0
   10.9330   15.7133   21.6370 O   0  0  0  0  0  0  0  0  0  0  0  0
   11.4831   14.8844   20.6200 C   0  0  0  0  0  0  0  0  0  0  0  0
   10.7359   14.8917   19.3004 C   0  0  0  0  0  0  0  0  0  0  0  0
   11.3313   14.0292   18.4455 F   0  0  0  0  0  0  0  0  0  0  0  0
   10.7588   16.1063   18.7153 F   0  0  0  0  0  0  0  0  0  0  0  0
    7.3791   15.3874   22.6780 O   0  0  0  0  0  0  0  0  0  0  0  0
    6.9018   14.1254   22.8616 C   0  0  0  0  0  0  0  0  0  0  0  0
    7.2452   13.1533   22.1922 O   0  0  0  0  0  0  0  0  0  0  0  0
    5.8501   13.9946   23.9714 C   0  0  0  0  0  0  0  0  0  0  0  0
    6.0934   12.7008   24.7959 C   0  0  0  0  0  0  0  0  0  0  0  0
    7.1532   12.8612   25.8840 C   0  0  0  0  0  0  0  0  0  0  0  0
    7.9072   14.0768   25.5624 N   0  0  0  0  0  0  0  0  0  0  0  0
    9.5014   14.2060   25.9840 S   0  0  0  0  0  0  0  0  0  0  0  0
    9.7759   13.3876   27.1306 O   0  0  0  0  0  0  0  0  0  0  0  0
    9.8597   15.6018   25.9795 O   0  0  0  0  0  0  0  0  0  0  0  0
   10.3296   13.5467   24.6987 N   0  0  0  0  0  0  0  0  0  0  0  0
   10.0556   12.1973   24.1923 C   0  0  0  0  0  0  0  0  0  0  0  0
   10.6663   11.1709   25.1191 C   0  0  0  0  0  0  0  0  0  0  0  0
   12.0885   11.5554   25.5652 C   0  0  0  0  0  0  0  0  0  0  0  0
   12.6576   12.6987   24.7717 C   0  0  0  0  0  0  0  0  0  0  0  0
   11.7644   13.9041   24.7518 C   0  0  0  0  0  0  0  0  0  0  0  0
    7.0803   15.2935   25.7604 C   0  0  0  0  0  0  0  0  0  0  0  0
    5.8007   15.1769   24.9373 C   0  0  0  0  0  0  0  0  0  0  0  0
  2  1  1  1
  2  3  1  0
  3  4  1  0
  4  5  1  0
  5  6  1  0
  6  7  1  0
  6  8  1  0
  2  9  1  0
  9 10  1  0
 10 11  2  0
 10 12  1  0
 12 13  1  0
 13 14  1  0
 14 15  1  0
 15 16  1  0
 16 17  2  0
 16 18  2  0
 16 19  1  0
 19 20  1  0
 20 21  1  0
 21 22  1  0
 22 23  1  0
 23 24  1  0
 15 25  1  0
 25 26  1  0
 26 12  1  0
 24 19  1  0
M  END
>  <energy_score>  (4198) 
-45.476851

>  <inchikey>  (4198) 
PISNHLVLUOKGAU-UHFFFAOYSA-N

>  <smiles>  (4198) 
CC(COCC(F)F)OC(=O)C1CCN(S(=O)(=O)N2CCCCC2)CC1

>  <ref_pdb>  (4198) 
A0875a

>  <alias>  (4198) 
PISNHLVLUOKGAU-UHFFFAOYSA-N-P439-P87-P439-601505

>  <HIPPO Pose ID>  (4198) 
507949

>  <name>  (4198) 
PISNHLVLUOKGAU-UHFFFAOYSA-N-P439-P87-P439-601505

>  <HIPPO Compound ID>  (4198) 
314510

>  <ref_mols>  (4198) 
A4706a,A0875a

>  <distance_score>  (4198) 
1.798318

>  <inspiration_score>  (4198) 
None

$$$$
BJEPSUXOJQRQJB-UHFFFAOYSA-N-P439-P87-P439-601505
     RDKit          3D

 26 28  0  0  0  0  0  0  0  0999 V2000
   10.7827   14.9635   19.0434 C   0  0  0  0  0  0  0  0  0  0  0  0
    9.5720   15.3894   19.7533 N   0  0  0  0  0  0  0  0  0  0  0  0
    9.6374   16.8054   20.0859 C   0  0  0  0  0  0  0  0  0  0  0  0
    9.2635   14.5135   20.9188 C   0  0  1  0  0  0  0  0  0  0  0  0
   10.2577   14.7076   22.0576 C   0  0  0  0  0  0  0  0  0  0  0  0
    9.6289   15.5505   23.0210 O   0  0  0  0  0  0  0  0  0  0  0  0
    8.2628   15.7842   22.6152 C   0  0  0  0  0  0  0  0  0  0  0  0
    7.8806   14.7474   21.5927 C   0  0  2  0  0  0  0  0  0  0  0  0
    7.2693   13.5756   22.2125 O   0  0  0  0  0  0  0  0  0  0  0  0
    6.1200   13.8499   22.9533 C   0  0  0  0  0  0  0  0  0  0  0  0
    5.0990   14.3316   22.4992 O   0  0  0  0  0  0  0  0  0  0  0  0
    6.3964   13.5493   24.4148 C   0  0  0  0  0  0  0  0  0  0  0  0
    6.6419   12.0910   24.8006 C   0  0  0  0  0  0  0  0  0  0  0  0
    7.3701   11.9316   26.1370 C   0  0  0  0  0  0  0  0  0  0  0  0
    8.0244   13.2045   26.5176 N   0  0  0  0  0  0  0  0  0  0  0  0
    9.3305   13.6939   25.5179 S   0  0  0  0  0  0  0  0  0  0  0  0
    9.1235   13.1142   24.2151 O   0  0  0  0  0  0  0  0  0  0  0  0
    9.5038   15.1086   25.7331 O   0  0  0  0  0  0  0  0  0  0  0  0
   10.6824   12.8759   26.0895 N   0  0  0  0  0  0  0  0  0  0  0  0
   11.9035   13.7336   26.0503 C   0  0  0  0  0  0  0  0  0  0  0  0
   12.8002   13.3423   24.8772 C   0  0  0  0  0  0  0  0  0  0  0  0
   13.4114   11.9903   25.1545 C   0  0  0  0  0  0  0  0  0  0  0  0
   12.3270   11.1157   25.6824 C   0  0  0  0  0  0  0  0  0  0  0  0
   10.9123   11.5794   25.3668 C   0  0  0  0  0  0  0  0  0  0  0  0
    6.9345   14.2651   26.7390 C   0  0  0  0  0  0  0  0  0  0  0  0
    5.8507   14.2938   25.6130 C   0  0  0  0  0  0  0  0  0  0  0  0
  1  2  1  0
  2  3  1  0
  4  2  1  6
  4  5  1  0
  5  6  1  0
  6  7  1  0
  7  8  1  0
  8  9  1  1
  9 10  1  0
 10 11  2  0
 10 12  1  0
 12 13  1  0
 13 14  1  0
 14 15  1  0
 15 16  1  0
 16 17  2  0
 16 18  2  0
 16 19  1  0
 19 20  1  0
 20 21  1  0
 21 22  1  0
 22 23  1  0
 23 24  1  0
 15 25  1  0
 25 26  1  0
  8  4  1  0
 26 12  1  0
 24 19  1  0
M  END
>  <energy_score>  (4199) 
-10.963534

>  <inchikey>  (4199) 
BJEPSUXOJQRQJB-UHFFFAOYSA-N

>  <smiles>  (4199) 
CN(C)C1COCC1OC(=O)C1CCN(S(=O)(=O)N2CCCCC2)CC1

>  <ref_pdb>  (4199) 
A0875a

>  <alias>  (4199) 
BJEPSUXOJQRQJB-UHFFFAOYSA-N-P439-P87-P439-601505

>  <HIPPO Pose ID>  (4199) 
507953

>  <name>  (4199) 
BJEPSUXOJQRQJB-UHFFFAOYSA-N-P439-P87-P439-601505

>  <HIPPO Compound ID>  (4199) 
314512

>  <ref_mols>  (4199) 
A4706a,A0875a

>  <distance_score>  (4199) 
1.390029

>  <inspiration_score>  (4199) 
None

$$$$
WEKOBLNYZOPLQB-UHFFFAOYSA-N-P439-P87-P439-601505
     RDKit          3D

 26 28  0  0  0  0  0  0  0  0999 V2000
    8.6177   14.0579   21.3393 C   0  0  0  0  0  0  0  0  0  0  0  0
    8.9921   15.3967   21.9508 C   0  0  2  0  0  0  0  0  0  0  0  0
    8.0162   15.6312   23.0361 O   0  0  0  0  0  0  0  0  0  0  0  0
    6.7068   15.2711   22.9694 C   0  0  0  0  0  0  0  0  0  0  0  0
    6.0352   15.1988   21.9484 O   0  0  0  0  0  0  0  0  0  0  0  0
    6.1384   14.8367   24.3298 C   0  0  0  0  0  0  0  0  0  0  0  0
    6.4913   13.3376   24.5206 C   0  0  0  0  0  0  0  0  0  0  0  0
    6.7453   12.8795   25.9476 C   0  0  0  0  0  0  0  0  0  0  0  0
    7.5171   13.8785   26.7128 N   0  0  0  0  0  0  0  0  0  0  0  0
    9.1220   14.2635   26.3226 S   0  0  0  0  0  0  0  0  0  0  0  0
    9.2199   14.5208   24.9160 O   0  0  0  0  0  0  0  0  0  0  0  0
    9.5641   15.2507   27.2725 O   0  0  0  0  0  0  0  0  0  0  0  0
   10.0220   12.8673   26.5797 N   0  0  0  0  0  0  0  0  0  0  0  0
   11.4648   13.1598   26.8220 C   0  0  0  0  0  0  0  0  0  0  0  0
   12.2080   13.3916   25.5406 C   0  0  0  0  0  0  0  0  0  0  0  0
   12.0466   12.2368   24.6016 C   0  0  0  0  0  0  0  0  0  0  0  0
   10.9672   11.2189   24.9667 C   0  0  0  0  0  0  0  0  0  0  0  0
    9.7479   11.8033   25.5985 C   0  0  0  0  0  0  0  0  0  0  0  0
    6.6612   15.0962   26.8397 C   0  0  0  0  0  0  0  0  0  0  0  0
    6.5070   15.7793   25.4844 C   0  0  0  0  0  0  0  0  0  0  0  0
    9.0602   16.5507   20.9450 C   0  0  0  0  0  0  0  0  0  0  0  0
    9.6143   16.2761   19.6069 N   0  0  0  0  0  0  0  0  0  0  0  0
   10.7233   15.3451   19.4318 C   0  0  0  0  0  0  0  0  0  0  0  0
   11.6426   14.9318   20.5935 C   0  0  0  0  0  0  0  0  0  0  0  0
   11.5029   15.6956   21.7779 O   0  0  0  0  0  0  0  0  0  0  0  0
   10.4059   15.2819   22.5900 C   0  0  0  0  0  0  0  0  0  0  0  0
  2  1  1  6
  2  3  1  0
  3  4  1  0
  4  5  2  0
  4  6  1  0
  6  7  1  0
  7  8  1  0
  8  9  1  0
  9 10  1  0
 10 11  2  0
 10 12  2  0
 10 13  1  0
 13 14  1  0
 14 15  1  0
 15 16  1  0
 16 17  1  0
 17 18  1  0
  9 19  1  0
 19 20  1  0
  2 21  1  0
 21 22  1  0
 22 23  1  0
 23 24  1  0
 24 25  1  0
 25 26  1  0
 26  2  1  0
 20  6  1  0
 18 13  1  0
M  END
>  <energy_score>  (4200) 
-49.708195

>  <inchikey>  (4200) 
WEKOBLNYZOPLQB-UHFFFAOYSA-N

>  <smiles>  (4200) 
CC1(OC(=O)C2CCN(S(=O)(=O)N3CCCCC3)CC2)CNCCOC1

>  <ref_pdb>  (4200) 
A0875a

>  <alias>  (4200) 
WEKOBLNYZOPLQB-UHFFFAOYSA-N-P439-P87-P439-601505

>  <HIPPO Pose ID>  (4200) 
507955

>  <name>  (4200) 
WEKOBLNYZOPLQB-UHFFFAOYSA-N-P439-P87-P439-601505

>  <HIPPO Compound ID>  (4200) 
314513

>  <ref_mols>  (4200) 
A4706a,A0875a

>  <distance_score>  (4200) 
1.917105

>  <inspiration_score>  (4200) 
None

$$$$
RKUXKVVIOLKVTN-UHFFFAOYSA-N-P87-P87-P439-601505
     RDKit          3D

 26 27  0  0  0  0  0  0  0  0999 V2000
   17.4134    7.5854   22.5611 C   0  0  0  0  0  0  0  0  0  0  0  0
   17.3761    7.9224   24.0254 O   0  0  0  0  0  0  0  0  0  0  0  0
   16.3574    8.6466   24.6648 C   0  0  0  0  0  0  0  0  0  0  0  0
   16.4929    9.6200   25.8496 C   0  0  2  0  0  0  0  0  0  0  0  0
   17.1795    9.0596   27.1076 C   0  0  0  0  0  0  0  0  0  0  0  0
   18.6059    9.4262   27.2530 N   0  0  0  0  0  0  0  0  0  0  0  0
   19.2562    8.5410   28.2264 C   0  0  0  0  0  0  0  0  0  0  0  0
   18.7642   10.8166   27.6971 C   0  0  0  0  0  0  0  0  0  0  0  0
   15.0983   10.1071   26.0718 O   0  0  0  0  0  0  0  0  0  0  0  0
   14.5829   10.8769   25.0545 C   0  0  0  0  0  0  0  0  0  0  0  0
   15.2320   11.3079   24.1086 O   0  0  0  0  0  0  0  0  0  0  0  0
   13.1085   11.2233   25.2225 C   0  0  0  0  0  0  0  0  0  0  0  0
   12.9419   12.5204   24.4602 C   0  0  0  0  0  0  0  0  0  0  0  0
   11.6802   13.1638   24.9008 C   0  0  0  0  0  0  0  0  0  0  0  0
   10.4823   12.2895   24.7144 N   0  0  0  0  0  0  0  0  0  0  0  0
    9.2933   13.2775   24.0099 S   0  0  0  0  0  0  0  0  0  0  0  0
    9.4347   13.2794   22.5830 O   0  0  0  0  0  0  0  0  0  0  0  0
    9.4316   14.4934   24.7555 O   0  0  0  0  0  0  0  0  0  0  0  0
    7.7895   12.6254   24.4450 N   0  0  0  0  0  0  0  0  0  0  0  0
    7.7469   12.2201   25.8521 C   0  0  0  0  0  0  0  0  0  0  0  0
    6.3580   11.9197   26.3544 C   0  0  0  0  0  0  0  0  0  0  0  0
    5.5003   13.1550   26.2995 C   0  0  0  0  0  0  0  0  0  0  0  0
    5.4956   13.7996   24.9265 C   0  0  0  0  0  0  0  0  0  0  0  0
    6.6890   13.5692   23.9898 C   0  0  0  0  0  0  0  0  0  0  0  0
   10.7433   10.9830   24.0709 C   0  0  0  0  0  0  0  0  0  0  0  0
   11.9432   10.2551   24.7634 C   0  0  0  0  0  0  0  0  0  0  0  0
  1  2  1  0
  2  3  1  0
  4  3  1  6
  4  5  1  0
  5  6  1  0
  6  7  1  0
  6  8  1  0
  4  9  1  0
  9 10  1  0
 10 11  2  0
 10 12  1  0
 12 13  1  0
 13 14  1  0
 14 15  1  0
 15 16  1  0
 16 17  2  0
 16 18  2  0
 16 19  1  0
 19 20  1  0
 20 21  1  0
 21 22  1  0
 22 23  1  0
 23 24  1  0
 15 25  1  0
 25 26  1  0
 26 12  1  0
 24 19  1  0
M  END
>  <energy_score>  (4201) 
-0.221383

>  <inchikey>  (4201) 
RKUXKVVIOLKVTN-UHFFFAOYSA-N

>  <smiles>  (4201) 
COCC(CN(C)C)OC(=O)C1CCN(S(=O)(=O)N2CCCCC2)CC1

>  <ref_pdb>  (4201) 
A0875a

>  <alias>  (4201) 
RKUXKVVIOLKVTN-UHFFFAOYSA-N-P87-P87-P439-601505

>  <HIPPO Pose ID>  (4201) 
507956

>  <name>  (4201) 
RKUXKVVIOLKVTN-UHFFFAOYSA-N-P87-P87-P439-601505

>  <HIPPO Compound ID>  (4201) 
314514

>  <ref_mols>  (4201) 
A4706a,A0875a

>  <distance_score>  (4201) 
1.187086

>  <inspiration_score>  (4201) 
None

$$$$
RKUXKVVIOLKVTN-UHFFFAOYSA-N-P439-P87-P439-601505
     RDKit          3D

 26 27  0  0  0  0  0  0  0  0999 V2000
   17.5523    8.2554   22.7594 C   0  0  0  0  0  0  0  0  0  0  0  0
   17.2411    8.4899   24.2864 O   0  0  0  0  0  0  0  0  0  0  0  0
   16.0920    9.0533   24.9416 C   0  0  0  0  0  0  0  0  0  0  0  0
   16.2501    9.9548   26.2128 C   0  0  2  0  0  0  0  0  0  0  0  0
   17.0954    9.3125   27.3359 C   0  0  0  0  0  0  0  0  0  0  0  0
   17.0115   10.0209   28.6346 N   0  0  0  0  0  0  0  0  0  0  0  0
   17.6507    9.2118   29.6785 C   0  0  0  0  0  0  0  0  0  0  0  0
   17.6505   11.3392   28.5777 C   0  0  0  0  0  0  0  0  0  0  0  0
   14.9067   10.5052   26.5269 O   0  0  0  0  0  0  0  0  0  0  0  0
   14.4830   11.4962   25.6766 C   0  0  0  0  0  0  0  0  0  0  0  0
   15.1735   12.0113   24.8120 O   0  0  0  0  0  0  0  0  0  0  0  0
   13.0248   11.8590   25.7967 C   0  0  0  0  0  0  0  0  0  0  0  0
   12.7559   12.7099   27.0134 C   0  0  0  0  0  0  0  0  0  0  0  0
   11.5307   13.6260   26.8415 C   0  0  0  0  0  0  0  0  0  0  0  0
   10.4983   13.0531   25.9212 N   0  0  0  0  0  0  0  0  0  0  0  0
    9.1494   14.0751   25.7840 S   0  0  0  0  0  0  0  0  0  0  0  0
    9.4581   15.0985   24.8147 O   0  0  0  0  0  0  0  0  0  0  0  0
    8.7487   14.4112   27.1263 O   0  0  0  0  0  0  0  0  0  0  0  0
    7.9986   13.0303   25.1243 N   0  0  0  0  0  0  0  0  0  0  0  0
    7.8243   11.7132   25.7899 C   0  0  0  0  0  0  0  0  0  0  0  0
    6.4145   11.4922   26.3196 C   0  0  0  0  0  0  0  0  0  0  0  0
    5.8687   12.7309   27.0089 C   0  0  0  0  0  0  0  0  0  0  0  0
    5.8675   13.9323   26.0626 C   0  0  0  0  0  0  0  0  0  0  0  0
    6.7127   13.7127   24.8069 C   0  0  0  0  0  0  0  0  0  0  0  0
   10.9921   12.6306   24.5967 C   0  0  0  0  0  0  0  0  0  0  0  0
   12.4971   12.6421   24.5982 C   0  0  0  0  0  0  0  0  0  0  0  0
  1  2  1  0
  2  3  1  0
  4  3  1  6
  4  5  1  0
  5  6  1  0
  6  7  1  0
  6  8  1  0
  4  9  1  0
  9 10  1  0
 10 11  2  0
 10 12  1  0
 12 13  1  0
 13 14  1  0
 14 15  1  0
 15 16  1  0
 16 17  2  0
 16 18  2  0
 16 19  1  0
 19 20  1  0
 20 21  1  0
 21 22  1  0
 22 23  1  0
 23 24  1  0
 15 25  1  0
 25 26  1  0
 26 12  1  0
 24 19  1  0
M  END
>  <energy_score>  (4202) 
-24.282373

>  <inchikey>  (4202) 
RKUXKVVIOLKVTN-UHFFFAOYSA-N

>  <smiles>  (4202) 
COCC(CN(C)C)OC(=O)C1CCN(S(=O)(=O)N2CCCCC2)CC1

>  <ref_pdb>  (4202) 
A0875a

>  <alias>  (4202) 
RKUXKVVIOLKVTN-UHFFFAOYSA-N-P439-P87-P439-601505

>  <HIPPO Pose ID>  (4202) 
507957

>  <name>  (4202) 
RKUXKVVIOLKVTN-UHFFFAOYSA-N-P439-P87-P439-601505

>  <HIPPO Compound ID>  (4202) 
314514

>  <ref_mols>  (4202) 
A4706a,A0875a

>  <distance_score>  (4202) 
1.309112

>  <inspiration_score>  (4202) 
None

$$$$
POQIZJGSTSXQFU-UHFFFAOYSA-N-P439-P87-P439-601505
     RDKit          3D

 26 28  0  0  0  0  0  0  0  0999 V2000
   11.2640   14.7016   18.7410 C   0  0  0  0  0  0  0  0  0  0  0  0
   11.0415   15.1509   20.1549 C   0  0  2  0  0  0  0  0  0  0  0  0
   11.1888   14.0732   21.2209 C   0  0  0  0  0  0  0  0  0  0  0  0
   11.2517   14.6544   22.5249 O   0  0  0  0  0  0  0  0  0  0  0  0
   10.4379   15.8279   22.5826 C   0  0  0  0  0  0  0  0  0  0  0  0
    9.2740   15.9196   21.5742 C   0  0  2  0  0  0  0  0  0  0  0  0
    8.1067   14.9374   21.7896 C   0  0  0  0  0  0  0  0  0  0  0  0
    7.4563   15.0203   23.0705 O   0  0  0  0  0  0  0  0  0  0  0  0
    6.7201   13.9056   23.3489 C   0  0  0  0  0  0  0  0  0  0  0  0
    6.5191   12.9982   22.5417 O   0  0  0  0  0  0  0  0  0  0  0  0
    6.1331   13.8519   24.7598 C   0  0  0  0  0  0  0  0  0  0  0  0
    6.2685   12.4250   25.3370 C   0  0  0  0  0  0  0  0  0  0  0  0
    7.6550   12.0597   25.8747 C   0  0  0  0  0  0  0  0  0  0  0  0
    8.3481   13.2368   26.4592 N   0  0  0  0  0  0  0  0  0  0  0  0
    9.6276   13.8634   25.5464 S   0  0  0  0  0  0  0  0  0  0  0  0
    9.3405   13.5548   24.1722 O   0  0  0  0  0  0  0  0  0  0  0  0
    9.8464   15.2119   26.0093 O   0  0  0  0  0  0  0  0  0  0  0  0
   10.9395   12.8968   26.0451 N   0  0  0  0  0  0  0  0  0  0  0  0
   11.5400   12.1519   24.9241 C   0  0  0  0  0  0  0  0  0  0  0  0
   12.6720   11.2267   25.3900 C   0  0  0  0  0  0  0  0  0  0  0  0
   13.4277   11.6671   26.6202 C   0  0  0  0  0  0  0  0  0  0  0  0
   13.3682   13.1391   26.6648 C   0  0  0  0  0  0  0  0  0  0  0  0
   11.9346   13.6420   26.8583 C   0  0  0  0  0  0  0  0  0  0  0  0
    7.3840   14.2619   26.9426 C   0  0  0  0  0  0  0  0  0  0  0  0
    6.6324   14.8931   25.7704 C   0  0  0  0  0  0  0  0  0  0  0  0
    9.7555   15.7804   20.2192 O   0  0  0  0  0  0  0  0  0  0  0  0
  2  1  1  6
  2  3  1  0
  3  4  1  0
  4  5  1  0
  5  6  1  0
  6  7  1  1
  7  8  1  0
  8  9  1  0
  9 10  2  0
  9 11  1  0
 11 12  1  0
 12 13  1  0
 13 14  1  0
 14 15  1  0
 15 16  2  0
 15 17  2  0
 15 18  1  0
 18 19  1  0
 19 20  1  0
 20 21  1  0
 21 22  1  0
 22 23  1  0
 14 24  1  0
 24 25  1  0
  6 26  1  0
 26  2  1  0
 25 11  1  0
 23 18  1  0
M  END
>  <energy_score>  (4203) 
-57.395064

>  <inchikey>  (4203) 
POQIZJGSTSXQFU-UHFFFAOYSA-N

>  <smiles>  (4203) 
CC1COCC(COC(=O)C2CCN(S(=O)(=O)N3CCCCC3)CC2)O1

>  <ref_pdb>  (4203) 
A0875a

>  <alias>  (4203) 
POQIZJGSTSXQFU-UHFFFAOYSA-N-P439-P87-P439-601505

>  <HIPPO Pose ID>  (4203) 
507959

>  <name>  (4203) 
POQIZJGSTSXQFU-UHFFFAOYSA-N-P439-P87-P439-601505

>  <HIPPO Compound ID>  (4203) 
314515

>  <ref_mols>  (4203) 
A4706a,A0875a

>  <distance_score>  (4203) 
1.658688

>  <inspiration_score>  (4203) 
None

$$$$
ZMZIGSQMZMXSDZ-UHFFFAOYSA-N-P439-P87-P439-601505
     RDKit          3D

 26 29  0  0  0  0  0  0  0  0999 V2000
    7.2099   13.3266   21.7906 O   0  0  0  0  0  0  0  0  0  0  0  0
    7.6537   13.6823   22.8733 C   0  0  0  0  0  0  0  0  0  0  0  0
    8.6806   14.5318   23.0702 O   0  0  0  0  0  0  0  0  0  0  0  0
    9.3023   15.3651   22.0511 C   0  0  2  0  0  0  0  0  0  0  0  0
    8.5060   15.7758   20.8582 C   0  0  0  0  0  0  0  0  0  0  0  0
    9.4473   15.9809   19.7783 O   0  0  0  0  0  0  0  0  0  0  0  0
   10.4180   14.9542   19.9177 C   0  0  0  0  0  0  0  0  0  0  0  0
   10.5715   14.8189   21.4074 C   0  0  0  0  0  0  0  0  0  0  0  0
   11.8029   15.6686   21.8095 C   0  0  0  0  0  0  0  0  0  0  0  0
   11.9062   14.7293   22.9914 C   0  0  0  0  0  0  0  0  0  0  0  0
   11.2833   13.6458   22.1000 C   0  0  0  0  0  0  0  0  0  0  0  0
    7.0506   13.1176   24.1525 C   0  0  0  0  0  0  0  0  0  0  0  0
    7.8294   11.8942   24.6643 C   0  0  0  0  0  0  0  0  0  0  0  0
    8.6143   12.1901   25.9409 C   0  0  0  0  0  0  0  0  0  0  0  0
    9.1968   13.5235   25.7705 N   0  0  0  0  0  0  0  0  0  0  0  0
   10.5579   13.9948   26.6163 S   0  0  0  0  0  0  0  0  0  0  0  0
   10.1574   14.0793   27.9967 O   0  0  0  0  0  0  0  0  0  0  0  0
   11.0767   15.1644   25.9519 O   0  0  0  0  0  0  0  0  0  0  0  0
   11.7183   12.7418   26.5148 N   0  0  0  0  0  0  0  0  0  0  0  0
   12.1406   12.3432   25.1772 C   0  0  0  0  0  0  0  0  0  0  0  0
   13.1948   11.2313   25.2239 C   0  0  0  0  0  0  0  0  0  0  0  0
   14.3690   11.4183   26.1513 C   0  0  0  0  0  0  0  0  0  0  0  0
   14.2691   12.7605   26.7952 C   0  0  0  0  0  0  0  0  0  0  0  0
   12.8962   12.9821   27.4280 C   0  0  0  0  0  0  0  0  0  0  0  0
    8.1315   14.5872   25.8984 C   0  0  0  0  0  0  0  0  0  0  0  0
    6.8345   14.1767   25.2212 C   0  0  0  0  0  0  0  0  0  0  0  0
  1  2  2  0
  2  3  1  0
  4  3  1  6
  4  5  1  0
  5  6  1  0
  6  7  1  0
  7  8  1  0
  8  9  1  0
  9 10  1  0
 10 11  1  0
  2 12  1  0
 12 13  1  0
 13 14  1  0
 14 15  1  0
 15 16  1  0
 16 17  2  0
 16 18  2  0
 16 19  1  0
 19 20  1  0
 20 21  1  0
 21 22  1  0
 22 23  1  0
 23 24  1  0
 15 25  1  0
 25 26  1  0
  8  4  1  0
 26 12  1  0
 11  8  1  0
 24 19  1  0
M  END
>  <energy_score>  (4204) 
-31.605126

>  <inchikey>  (4204) 
ZMZIGSQMZMXSDZ-UHFFFAOYSA-N

>  <smiles>  (4204) 
O=C(OC1COCC12CCC2)C1CCN(S(=O)(=O)N2CCCCC2)CC1

>  <ref_pdb>  (4204) 
A0875a

>  <alias>  (4204) 
ZMZIGSQMZMXSDZ-UHFFFAOYSA-N-P439-P87-P439-601505

>  <HIPPO Pose ID>  (4204) 
507965

>  <name>  (4204) 
ZMZIGSQMZMXSDZ-UHFFFAOYSA-N-P439-P87-P439-601505

>  <HIPPO Compound ID>  (4204) 
314518

>  <ref_mols>  (4204) 
A4706a,A0875a

>  <distance_score>  (4204) 
1.705403

>  <inspiration_score>  (4204) 
None

$$$$
NARHJNNLKFGEFH-UHFFFAOYSA-N-P439-P87-P439-601505
     RDKit          3D

 26 29  0  0  0  0  0  0  0  0999 V2000
    5.7534   14.5541   22.2344 O   0  0  0  0  0  0  0  0  0  0  0  0
    6.3861   14.8833   23.2356 C   0  0  0  0  0  0  0  0  0  0  0  0
    7.5950   15.5070   23.2071 O   0  0  0  0  0  0  0  0  0  0  0  0
    8.1067   15.8208   21.8858 C   0  0  2  0  0  0  0  0  0  0  0  0
    8.4307   14.6227   20.9618 C   0  0  0  0  0  0  0  0  0  0  0  0
    9.5312   15.4889   20.3230 C   0  0  2  0  0  0  0  0  0  0  0  0
   10.7030   14.7073   19.9414 N   0  0  0  0  0  0  0  0  0  0  0  0
   11.4543   14.2027   21.0871 C   0  0  0  0  0  0  0  0  0  0  0  0
   11.7909   15.2813   22.0923 C   0  0  0  0  0  0  0  0  0  0  0  0
   10.5719   15.7180   22.6660 O   0  0  0  0  0  0  0  0  0  0  0  0
    9.6210   16.2134   21.6887 C   0  0  2  0  0  0  0  0  0  0  0  0
    5.8712   14.5629   24.6525 C   0  0  0  0  0  0  0  0  0  0  0  0
    5.7875   13.0324   24.8684 C   0  0  0  0  0  0  0  0  0  0  0  0
    6.8019   12.3751   25.8079 C   0  0  0  0  0  0  0  0  0  0  0  0
    7.8805   13.3062   26.1765 N   0  0  0  0  0  0  0  0  0  0  0  0
    9.0765   13.5620   25.0099 S   0  0  0  0  0  0  0  0  0  0  0  0
    9.5402   14.9166   25.1535 O   0  0  0  0  0  0  0  0  0  0  0  0
    8.5777   12.9919   23.7828 O   0  0  0  0  0  0  0  0  0  0  0  0
   10.2678   12.5144   25.5957 N   0  0  0  0  0  0  0  0  0  0  0  0
   10.3170   11.2250   24.8569 C   0  0  0  0  0  0  0  0  0  0  0  0
   11.5061   10.3612   25.2421 C   0  0  0  0  0  0  0  0  0  0  0  0
   12.8198   11.1567   25.4528 C   0  0  0  0  0  0  0  0  0  0  0  0
   12.6705   12.6175   25.0935 C   0  0  0  0  0  0  0  0  0  0  0  0
   11.5478   13.1729   25.9374 C   0  0  0  0  0  0  0  0  0  0  0  0
    7.3164   14.5197   26.8004 C   0  0  0  0  0  0  0  0  0  0  0  0
    6.5192   15.3491   25.8006 C   0  0  0  0  0  0  0  0  0  0  0  0
  1  2  2  0
  2  3  1  0
  4  3  1  1
  4  5  1  0
  6  5  1  1
  6  7  1  0
  7  8  1  0
  8  9  1  0
  9 10  1  0
 11 10  1  1
  2 12  1  0
 12 13  1  0
 13 14  1  0
 14 15  1  0
 15 16  1  0
 16 17  2  0
 16 18  2  0
 16 19  1  0
 19 20  1  0
 20 21  1  0
 21 22  1  0
 22 23  1  0
 23 24  1  0
 15 25  1  0
 25 26  1  0
 11  4  1  0
 26 12  1  0
 11  6  1  0
 24 19  1  0
M  END
>  <energy_score>  (4205) 
-47.519492

>  <inchikey>  (4205) 
NARHJNNLKFGEFH-UHFFFAOYSA-N

>  <smiles>  (4205) 
O=C(OC1CC2NCCOC21)C1CCN(S(=O)(=O)N2CCCCC2)CC1

>  <ref_pdb>  (4205) 
A0875a

>  <alias>  (4205) 
NARHJNNLKFGEFH-UHFFFAOYSA-N-P439-P87-P439-601505

>  <HIPPO Pose ID>  (4205) 
507967

>  <name>  (4205) 
NARHJNNLKFGEFH-UHFFFAOYSA-N-P439-P87-P439-601505

>  <HIPPO Compound ID>  (4205) 
314519

>  <ref_mols>  (4205) 
A4706a,A0875a

>  <distance_score>  (4205) 
1.465429

>  <inspiration_score>  (4205) 
None

$$$$
CJROMFKVNCQGAI-UHFFFAOYSA-N-P439-P87-P439-601505
     RDKit          3D

 26 29  0  0  0  0  0  0  0  0999 V2000
    8.1111   13.0633   22.6932 O   0  0  0  0  0  0  0  0  0  0  0  0
    7.6074   14.1074   23.0959 C   0  0  0  0  0  0  0  0  0  0  0  0
    8.0142   15.3368   22.7062 O   0  0  0  0  0  0  0  0  0  0  0  0
    9.3387   15.5533   22.1383 C   0  0  1  0  0  0  0  0  0  0  0  0
   10.5005   15.0176   23.0256 C   0  0  0  0  0  0  0  0  0  0  0  0
   11.6372   14.6465   22.2136 O   0  0  0  0  0  0  0  0  0  0  0  0
   11.2744   15.2102   20.9941 C   0  0  1  0  0  0  0  0  0  0  0  0
   11.7105   14.6824   19.7110 C   0  0  0  0  0  0  0  0  0  0  0  0
   10.6523   14.8570   18.9216 C   0  0  0  0  0  0  0  0  0  0  0  0
    9.4888   15.3380   19.5474 O   0  0  0  0  0  0  0  0  0  0  0  0
    9.7894   14.8967   20.8613 C   0  0  2  0  0  0  0  0  0  0  0  0
    6.4103   14.1042   24.0747 C   0  0  0  0  0  0  0  0  0  0  0  0
    6.2364   12.6968   24.6662 C   0  0  0  0  0  0  0  0  0  0  0  0
    7.4433   12.2735   25.4986 C   0  0  0  0  0  0  0  0  0  0  0  0
    7.8665   13.3166   26.4470 N   0  0  0  0  0  0  0  0  0  0  0  0
    9.3655   14.0523   26.3662 S   0  0  0  0  0  0  0  0  0  0  0  0
    9.5990   14.6131   27.6759 O   0  0  0  0  0  0  0  0  0  0  0  0
    9.3037   14.9682   25.2610 O   0  0  0  0  0  0  0  0  0  0  0  0
   10.6362   13.0055   26.1121 N   0  0  0  0  0  0  0  0  0  0  0  0
   11.9326   13.7579   26.0962 C   0  0  0  0  0  0  0  0  0  0  0  0
   12.8682   13.2955   24.9782 C   0  0  0  0  0  0  0  0  0  0  0  0
   13.2735   11.8655   25.1552 C   0  0  0  0  0  0  0  0  0  0  0  0
   12.0335   11.1271   25.5440 C   0  0  0  0  0  0  0  0  0  0  0  0
   10.6764   11.8106   25.2590 C   0  0  0  0  0  0  0  0  0  0  0  0
    6.7945   14.3665   26.6170 C   0  0  0  0  0  0  0  0  0  0  0  0
    6.4621   15.0668   25.2732 C   0  0  0  0  0  0  0  0  0  0  0  0
  1  2  2  0
  2  3  1  0
  4  3  1  1
  4  5  1  0
  5  6  1  0
  7  6  1  1
  7  8  1  0
  8  9  2  0
  9 10  1  0
 11 10  1  6
  2 12  1  0
 12 13  1  0
 13 14  1  0
 14 15  1  0
 15 16  1  0
 16 17  2  0
 16 18  2  0
 16 19  1  0
 19 20  1  0
 20 21  1  0
 21 22  1  0
 22 23  1  0
 23 24  1  0
 15 25  1  0
 25 26  1  0
 11  4  1  0
 26 12  1  0
 11  7  1  0
 24 19  1  0
M  END
>  <energy_score>  (4206) 
-1.827211

>  <inchikey>  (4206) 
CJROMFKVNCQGAI-UHFFFAOYSA-N

>  <smiles>  (4206) 
O=C(OC1COC2C=COC21)C1CCN(S(=O)(=O)N2CCCCC2)CC1

>  <ref_pdb>  (4206) 
A0875a

>  <alias>  (4206) 
CJROMFKVNCQGAI-UHFFFAOYSA-N-P439-P87-P439-601505

>  <HIPPO Pose ID>  (4206) 
507969

>  <name>  (4206) 
CJROMFKVNCQGAI-UHFFFAOYSA-N-P439-P87-P439-601505

>  <HIPPO Compound ID>  (4206) 
314520

>  <ref_mols>  (4206) 
A4706a,A0875a

>  <distance_score>  (4206) 
1.367227

>  <inspiration_score>  (4206) 
None

$$$$
XRZDFAPXFVNCRK-UHFFFAOYSA-N-P87-P87-P439-601505
     RDKit          3D

 26 27  0  0  0  0  0  0  0  0999 V2000
   18.1101   15.1117   27.7771 C   0  0  0  0  0  0  0  0  0  0  0  0
   17.0649   14.1411   27.7041 O   0  0  0  0  0  0  0  0  0  0  0  0
   17.4536   12.9263   27.2167 C   0  0  0  0  0  0  0  0  0  0  0  0
   18.5802   12.6676   26.8139 O   0  0  0  0  0  0  0  0  0  0  0  0
   16.2990   11.9280   27.3238 C   0  0  1  0  0  0  0  0  0  0  0  0
   15.6136   11.7063   26.0620 O   0  0  0  0  0  0  0  0  0  0  0  0
   14.2959   11.4036   26.2035 C   0  0  0  0  0  0  0  0  0  0  0  0
   13.7378   11.3785   27.2835 O   0  0  0  0  0  0  0  0  0  0  0  0
   13.5663   11.0998   24.8967 C   0  0  0  0  0  0  0  0  0  0  0  0
   13.2037   12.4565   24.3470 C   0  0  0  0  0  0  0  0  0  0  0  0
   12.0416   13.0034   25.1247 C   0  0  0  0  0  0  0  0  0  0  0  0
   10.7915   12.1942   24.9926 N   0  0  0  0  0  0  0  0  0  0  0  0
    9.5733   13.2832   24.5770 S   0  0  0  0  0  0  0  0  0  0  0  0
    9.8213   13.7744   23.2467 O   0  0  0  0  0  0  0  0  0  0  0  0
    9.6499   14.1360   25.7354 O   0  0  0  0  0  0  0  0  0  0  0  0
    8.0569   12.5248   24.6286 N   0  0  0  0  0  0  0  0  0  0  0  0
    7.8208   11.9185   25.9334 C   0  0  0  0  0  0  0  0  0  0  0  0
    6.3884   11.6634   26.2985 C   0  0  0  0  0  0  0  0  0  0  0  0
    5.6344   12.9638   26.3263 C   0  0  0  0  0  0  0  0  0  0  0  0
    5.7047   13.6545   24.9826 C   0  0  0  0  0  0  0  0  0  0  0  0
    6.9576   13.4380   24.1131 C   0  0  0  0  0  0  0  0  0  0  0  0
   10.9465   10.9089   24.3280 C   0  0  0  0  0  0  0  0  0  0  0  0
   12.2524   10.1910   24.8279 C   0  0  0  0  0  0  0  0  0  0  0  0
   16.7742   10.5797   27.9436 C   0  0  1  0  0  0  0  0  0  0  0  0
   17.5261    9.6770   26.9617 C   0  0  0  0  0  0  0  0  0  0  0  0
   17.5507   10.7285   29.1828 N   0  0  0  0  0  0  0  0  0  0  0  0
  1  2  1  0
  2  3  1  0
  3  4  2  0
  3  5  1  0
  5  6  1  6
  6  7  1  0
  7  8  2  0
  7  9  1  0
  9 10  1  0
 10 11  1  0
 11 12  1  0
 12 13  1  0
 13 14  2  0
 13 15  2  0
 13 16  1  0
 16 17  1  0
 17 18  1  0
 18 19  1  0
 19 20  1  0
 20 21  1  0
 12 22  1  0
 22 23  1  0
  5 24  1  0
 24 25  1  6
 24 26  1  0
 23  9  1  0
 21 16  1  0
M  END
>  <energy_score>  (4207) 
-17.37653

>  <inchikey>  (4207) 
XRZDFAPXFVNCRK-UHFFFAOYSA-N

>  <smiles>  (4207) 
COC(=O)C(OC(=O)C1CCN(S(=O)(=O)N2CCCCC2)CC1)C(C)N

>  <ref_pdb>  (4207) 
A0875a

>  <alias>  (4207) 
XRZDFAPXFVNCRK-UHFFFAOYSA-N-P87-P87-P439-601505

>  <HIPPO Pose ID>  (4207) 
507970

>  <name>  (4207) 
XRZDFAPXFVNCRK-UHFFFAOYSA-N-P87-P87-P439-601505

>  <HIPPO Compound ID>  (4207) 
314521

>  <ref_mols>  (4207) 
A4706a,A0875a

>  <distance_score>  (4207) 
1.458259

>  <inspiration_score>  (4207) 
None

$$$$
XRZDFAPXFVNCRK-UHFFFAOYSA-N-P439-P87-P439-601505
     RDKit          3D

 26 27  0  0  0  0  0  0  0  0999 V2000
   19.8444   13.7478   27.4468 C   0  0  0  0  0  0  0  0  0  0  0  0
   18.4924   13.5137   27.8498 O   0  0  0  0  0  0  0  0  0  0  0  0
   18.1727   12.2117   28.1076 C   0  0  0  0  0  0  0  0  0  0  0  0
   18.9456   11.2755   27.9748 O   0  0  0  0  0  0  0  0  0  0  0  0
   16.7406   12.1520   28.6649 C   0  0  1  0  0  0  0  0  0  0  0  0
   15.6730   12.6034   27.7952 O   0  0  0  0  0  0  0  0  0  0  0  0
   15.1092   11.8249   26.8303 C   0  0  0  0  0  0  0  0  0  0  0  0
   15.5115   10.7434   26.4409 O   0  0  0  0  0  0  0  0  0  0  0  0
   13.8907   12.5573   26.2522 C   0  0  0  0  0  0  0  0  0  0  0  0
   13.0002   13.0261   27.3878 C   0  0  0  0  0  0  0  0  0  0  0  0
   11.7358   13.7503   26.9572 C   0  0  0  0  0  0  0  0  0  0  0  0
   10.9816   13.0345   25.8973 N   0  0  0  0  0  0  0  0  0  0  0  0
    9.6145   13.9763   25.4559 S   0  0  0  0  0  0  0  0  0  0  0  0
    9.9971   14.8683   24.3887 O   0  0  0  0  0  0  0  0  0  0  0  0
    9.0650   14.4940   26.6875 O   0  0  0  0  0  0  0  0  0  0  0  0
    8.5111   12.8485   24.8653 N   0  0  0  0  0  0  0  0  0  0  0  0
    8.3236   11.6120   25.6653 C   0  0  0  0  0  0  0  0  0  0  0  0
    6.8743   11.3607   26.0610 C   0  0  0  0  0  0  0  0  0  0  0  0
    6.2222   12.6119   26.6239 C   0  0  0  0  0  0  0  0  0  0  0  0
    6.2909   13.7644   25.6245 C   0  0  0  0  0  0  0  0  0  0  0  0
    7.2257   13.4893   24.4437 C   0  0  0  0  0  0  0  0  0  0  0  0
   11.8455   12.6446   24.7580 C   0  0  0  0  0  0  0  0  0  0  0  0
   13.0105   11.7741   25.2781 C   0  0  0  0  0  0  0  0  0  0  0  0
   16.4119   10.9244   29.5662 C   0  0  2  0  0  0  0  0  0  0  0  0
   16.9765    9.5809   29.1026 C   0  0  0  0  0  0  0  0  0  0  0  0
   14.9608   10.8293   29.8496 N   0  0  0  0  0  0  0  0  0  0  0  0
  1  2  1  0
  2  3  1  0
  3  4  2  0
  3  5  1  0
  5  6  1  6
  6  7  1  0
  7  8  2  0
  7  9  1  0
  9 10  1  0
 10 11  1  0
 11 12  1  0
 12 13  1  0
 13 14  2  0
 13 15  2  0
 13 16  1  0
 16 17  1  0
 17 18  1  0
 18 19  1  0
 19 20  1  0
 20 21  1  0
 12 22  1  0
 22 23  1  0
  5 24  1  0
 24 25  1  6
 24 26  1  0
 23  9  1  0
 21 16  1  0
M  END
>  <energy_score>  (4208) 
-46.579158

>  <inchikey>  (4208) 
XRZDFAPXFVNCRK-UHFFFAOYSA-N

>  <smiles>  (4208) 
COC(=O)C(OC(=O)C1CCN(S(=O)(=O)N2CCCCC2)CC1)C(C)N

>  <ref_pdb>  (4208) 
A0875a

>  <alias>  (4208) 
XRZDFAPXFVNCRK-UHFFFAOYSA-N-P439-P87-P439-601505

>  <HIPPO Pose ID>  (4208) 
507971

>  <name>  (4208) 
XRZDFAPXFVNCRK-UHFFFAOYSA-N-P439-P87-P439-601505

>  <HIPPO Compound ID>  (4208) 
314521

>  <ref_mols>  (4208) 
A4706a,A0875a

>  <distance_score>  (4208) 
1.778602

>  <inspiration_score>  (4208) 
None

$$$$
NAAPUSVQHDNDDM-UHFFFAOYSA-N-P439-P87-P439-601505
     RDKit          3D

 26 27  0  0  0  0  0  0  0  0999 V2000
   10.0664   15.3664   18.7036 C   0  0  0  0  0  0  0  0  0  0  0  0
    9.6064   15.3626   20.1316 C   0  0  0  0  0  0  0  0  0  0  0  0
    9.3264   16.7391   20.6964 C   0  0  0  0  0  0  0  0  0  0  0  0
   10.6688   14.7303   20.8104 O   0  0  0  0  0  0  0  0  0  0  0  0
   10.1957   13.7301   21.6962 C   0  0  0  0  0  0  0  0  0  0  0  0
    9.9105   14.2952   23.0564 C   0  0  1  0  0  0  0  0  0  0  0  0
   10.9189   15.4115   23.3322 C   0  0  0  0  0  0  0  0  0  0  0  0
   12.2702   15.0935   22.8381 N   0  0  0  0  0  0  0  0  0  0  0  0
    8.5304   14.6918   23.2411 O   0  0  0  0  0  0  0  0  0  0  0  0
    7.6546   13.6498   23.3168 C   0  0  0  0  0  0  0  0  0  0  0  0
    7.9255   12.4974   22.9843 O   0  0  0  0  0  0  0  0  0  0  0  0
    6.2855   13.9566   23.9129 C   0  0  0  0  0  0  0  0  0  0  0  0
    6.0150   12.9081   25.0304 C   0  0  0  0  0  0  0  0  0  0  0  0
    6.8753   13.1452   26.2849 C   0  0  0  0  0  0  0  0  0  0  0  0
    7.7183   14.3175   26.0057 N   0  0  0  0  0  0  0  0  0  0  0  0
    9.2012   14.5633   26.6881 S   0  0  0  0  0  0  0  0  0  0  0  0
    9.6587   15.8661   26.2795 O   0  0  0  0  0  0  0  0  0  0  0  0
    9.1138   14.2502   28.0853 O   0  0  0  0  0  0  0  0  0  0  0  0
   10.2666   13.4875   25.9652 N   0  0  0  0  0  0  0  0  0  0  0  0
   11.6562   13.7263   26.4315 C   0  0  0  0  0  0  0  0  0  0  0  0
   12.6650   13.0512   25.5206 C   0  0  0  0  0  0  0  0  0  0  0  0
   12.4117   11.5793   25.5507 C   0  0  0  0  0  0  0  0  0  0  0  0
   10.9804   11.2796   25.1065 C   0  0  0  0  0  0  0  0  0  0  0  0
    9.9023   12.0788   25.8200 C   0  0  0  0  0  0  0  0  0  0  0  0
    6.8659   15.5154   25.8227 C   0  0  0  0  0  0  0  0  0  0  0  0
    6.1484   15.3683   24.4835 C   0  0  0  0  0  0  0  0  0  0  0  0
  1  2  1  0
  2  3  1  0
  2  4  1  0
  4  5  1  0
  6  5  1  6
  6  7  1  0
  7  8  1  0
  6  9  1  0
  9 10  1  0
 10 11  2  0
 10 12  1  0
 12 13  1  0
 13 14  1  0
 14 15  1  0
 15 16  1  0
 16 17  2  0
 16 18  2  0
 16 19  1  0
 19 20  1  0
 20 21  1  0
 21 22  1  0
 22 23  1  0
 23 24  1  0
 15 25  1  0
 25 26  1  0
 26 12  1  0
 24 19  1  0
M  END
>  <energy_score>  (4209) 
-30.356859

>  <inchikey>  (4209) 
NAAPUSVQHDNDDM-UHFFFAOYSA-N

>  <smiles>  (4209) 
CC(C)OCC(CN)OC(=O)C1CCN(S(=O)(=O)N2CCCCC2)CC1

>  <ref_pdb>  (4209) 
A0875a

>  <alias>  (4209) 
NAAPUSVQHDNDDM-UHFFFAOYSA-N-P439-P87-P439-601505

>  <HIPPO Pose ID>  (4209) 
507973

>  <name>  (4209) 
NAAPUSVQHDNDDM-UHFFFAOYSA-N-P439-P87-P439-601505

>  <HIPPO Compound ID>  (4209) 
314522

>  <ref_mols>  (4209) 
A4706a,A0875a

>  <distance_score>  (4209) 
1.736996

>  <inspiration_score>  (4209) 
None

$$$$
MWVHJUCPNJLLSN-UHFFFAOYSA-N-P87-P87-P439-601505
     RDKit          3D

 26 28  0  0  0  0  0  0  0  0999 V2000
   10.8894   15.8805   22.3336 C   0  0  0  0  0  0  0  0  0  0  0  0
    9.3653   16.1114   22.3618 C   0  0  0  0  0  0  0  0  0  0  0  0
    8.8046   17.3185   23.0739 C   0  0  0  0  0  0  0  0  0  0  0  0
    9.0912   16.2682   20.9449 C   0  0  0  0  0  0  0  0  0  0  0  0
    8.7102   17.2957   20.4171 O   0  0  0  0  0  0  0  0  0  0  0  0
    9.3146   15.0767   20.3448 O   0  0  0  0  0  0  0  0  0  0  0  0
    8.9711   14.1380   21.3120 C   0  0  0  0  0  0  0  0  0  0  0  0
    8.4217   14.9590   22.4366 C   0  0  1  0  0  0  0  0  0  0  0  0
    8.3513   14.1932   23.5933 O   0  0  0  0  0  0  0  0  0  0  0  0
    7.4223   13.2329   23.4058 C   0  0  0  0  0  0  0  0  0  0  0  0
    6.5601   13.2499   22.5431 O   0  0  0  0  0  0  0  0  0  0  0  0
    7.6119   12.0631   24.3036 C   0  0  0  0  0  0  0  0  0  0  0  0
    8.8878   11.3381   23.8821 C   0  0  0  0  0  0  0  0  0  0  0  0
    9.7905   11.0847   25.0297 C   0  0  0  0  0  0  0  0  0  0  0  0
    9.9539   12.2677   25.8438 N   0  0  0  0  0  0  0  0  0  0  0  0
   11.2454   13.3013   25.5721 S   0  0  0  0  0  0  0  0  0  0  0  0
   11.1749   14.2277   26.6797 O   0  0  0  0  0  0  0  0  0  0  0  0
   11.0818   13.6915   24.1989 O   0  0  0  0  0  0  0  0  0  0  0  0
   12.6415   12.3511   25.7252 N   0  0  0  0  0  0  0  0  0  0  0  0
   13.5702   12.5366   26.8906 C   0  0  0  0  0  0  0  0  0  0  0  0
   15.0681   12.3970   26.6073 C   0  0  0  0  0  0  0  0  0  0  0  0
   15.3554   11.1708   25.7845 C   0  0  0  0  0  0  0  0  0  0  0  0
   14.3675   11.0429   24.6469 C   0  0  0  0  0  0  0  0  0  0  0  0
   13.4028   12.2187   24.4905 C   0  0  0  0  0  0  0  0  0  0  0  0
    8.7148   13.0866   26.0945 C   0  0  0  0  0  0  0  0  0  0  0  0
    7.4484   12.4298   25.7246 C   0  0  0  0  0  0  0  0  0  0  0  0
  1  2  1  0
  2  3  1  0
  2  4  1  0
  4  5  2  0
  4  6  1  0
  6  7  1  0
  7  8  1  0
  8  9  1  1
  9 10  1  0
 10 11  2  0
 10 12  1  0
 12 13  1  0
 13 14  1  0
 14 15  1  0
 15 16  1  0
 16 17  2  0
 16 18  2  0
 16 19  1  0
 19 20  1  0
 20 21  1  0
 21 22  1  0
 22 23  1  0
 23 24  1  0
 15 25  1  0
 25 26  1  0
  8  2  1  0
 26 12  1  0
 24 19  1  0
M  END
>  <energy_score>  (4210) 
-9.893874

>  <inchikey>  (4210) 
MWVHJUCPNJLLSN-UHFFFAOYSA-N

>  <smiles>  (4210) 
CC1(C)C(=O)OCC1OC(=O)C1CCN(S(=O)(=O)N2CCCCC2)CC1

>  <ref_pdb>  (4210) 
A0875a

>  <alias>  (4210) 
MWVHJUCPNJLLSN-UHFFFAOYSA-N-P87-P87-P439-601505

>  <HIPPO Pose ID>  (4210) 
507976

>  <name>  (4210) 
MWVHJUCPNJLLSN-UHFFFAOYSA-N-P87-P87-P439-601505

>  <HIPPO Compound ID>  (4210) 
314524

>  <ref_mols>  (4210) 
A4706a,A0875a

>  <distance_score>  (4210) 
1.956066

>  <inspiration_score>  (4210) 
None

$$$$
MWVHJUCPNJLLSN-UHFFFAOYSA-N-P439-P87-P439-601505
     RDKit          3D

 26 28  0  0  0  0  0  0  0  0999 V2000
   11.2682   15.4795   21.9653 C   0  0  0  0  0  0  0  0  0  0  0  0
    9.8390   15.7292   21.5116 C   0  0  0  0  0  0  0  0  0  0  0  0
    9.5504   17.1932   21.1174 C   0  0  0  0  0  0  0  0  0  0  0  0
    9.5591   15.0126   20.2383 C   0  0  0  0  0  0  0  0  0  0  0  0
   10.2839   14.9626   19.2609 O   0  0  0  0  0  0  0  0  0  0  0  0
    8.2725   14.5586   20.2832 O   0  0  0  0  0  0  0  0  0  0  0  0
    7.6229   14.9932   21.4730 C   0  0  0  0  0  0  0  0  0  0  0  0
    8.7588   15.1225   22.4325 C   0  0  1  0  0  0  0  0  0  0  0  0
    9.1228   13.8118   22.9150 O   0  0  0  0  0  0  0  0  0  0  0  0
    8.2927   12.8484   23.3532 C   0  0  0  0  0  0  0  0  0  0  0  0
    8.6566   11.6786   23.2095 O   0  0  0  0  0  0  0  0  0  0  0  0
    6.9441   13.1108   24.0640 C   0  0  0  0  0  0  0  0  0  0  0  0
    6.8971   12.0993   25.2482 C   0  0  0  0  0  0  0  0  0  0  0  0
    7.9716   12.4561   26.2943 C   0  0  0  0  0  0  0  0  0  0  0  0
    8.5783   13.7248   25.8627 N   0  0  0  0  0  0  0  0  0  0  0  0
   10.0987   14.2402   26.2319 S   0  0  0  0  0  0  0  0  0  0  0  0
   10.0222   14.6754   27.6036 O   0  0  0  0  0  0  0  0  0  0  0  0
   10.4995   15.1632   25.1955 O   0  0  0  0  0  0  0  0  0  0  0  0
   11.1310   12.9337   26.1901 N   0  0  0  0  0  0  0  0  0  0  0  0
   12.4571   13.1869   26.8524 C   0  0  0  0  0  0  0  0  0  0  0  0
   13.6467   12.9298   25.9056 C   0  0  0  0  0  0  0  0  0  0  0  0
   13.6988   11.4944   25.4301 C   0  0  0  0  0  0  0  0  0  0  0  0
   12.2773   11.0180   25.3372 C   0  0  0  0  0  0  0  0  0  0  0  0
   11.2414   12.0863   24.9793 C   0  0  0  0  0  0  0  0  0  0  0  0
    7.5607   14.7999   25.8313 C   0  0  0  0  0  0  0  0  0  0  0  0
    6.6297   14.4829   24.6725 C   0  0  0  0  0  0  0  0  0  0  0  0
  1  2  1  0
  2  3  1  0
  2  4  1  0
  4  5  2  0
  4  6  1  0
  6  7  1  0
  7  8  1  0
  8  9  1  6
  9 10  1  0
 10 11  2  0
 10 12  1  0
 12 13  1  0
 13 14  1  0
 14 15  1  0
 15 16  1  0
 16 17  2  0
 16 18  2  0
 16 19  1  0
 19 20  1  0
 20 21  1  0
 21 22  1  0
 22 23  1  0
 23 24  1  0
 15 25  1  0
 25 26  1  0
  8  2  1  0
 26 12  1  0
 24 19  1  0
M  END
>  <energy_score>  (4211) 
-23.01329

>  <inchikey>  (4211) 
MWVHJUCPNJLLSN-UHFFFAOYSA-N

>  <smiles>  (4211) 
CC1(C)C(=O)OCC1OC(=O)C1CCN(S(=O)(=O)N2CCCCC2)CC1

>  <ref_pdb>  (4211) 
A0875a

>  <alias>  (4211) 
MWVHJUCPNJLLSN-UHFFFAOYSA-N-P439-P87-P439-601505

>  <HIPPO Pose ID>  (4211) 
507977

>  <name>  (4211) 
MWVHJUCPNJLLSN-UHFFFAOYSA-N-P439-P87-P439-601505

>  <HIPPO Compound ID>  (4211) 
314524

>  <ref_mols>  (4211) 
A4706a,A0875a

>  <distance_score>  (4211) 
1.482202

>  <inspiration_score>  (4211) 
None

$$$$
FWIPLDGHSXJNBX-UHFFFAOYSA-N-P439-P87-P439-601505
     RDKit          3D

 26 29  0  0  0  0  0  0  0  0999 V2000
    7.1193   15.1435   22.6337 O   0  0  0  0  0  0  0  0  0  0  0  0
    7.7539   14.1379   22.9394 C   0  0  0  0  0  0  0  0  0  0  0  0
    8.9703   13.7915   22.4062 O   0  0  0  0  0  0  0  0  0  0  0  0
    9.6381   14.8031   21.5935 C   0  0  2  0  0  0  0  0  0  0  0  0
    8.8065   15.2088   20.4179 C   0  0  0  0  0  0  0  0  0  0  0  0
    9.7869   15.5571   19.3127 C   0  0  0  0  0  0  0  0  0  0  0  0
   10.9737   14.6568   19.5469 C   0  0  0  0  0  0  0  0  0  0  0  0
   10.9870   14.3614   21.0498 C   0  0  1  0  0  0  0  0  0  0  0  0
   12.0109   15.2042   21.7894 C   0  0  0  0  0  0  0  0  0  0  0  0
   11.3314   15.8423   22.8515 O   0  0  0  0  0  0  0  0  0  0  0  0
   10.0251   16.0545   22.3385 C   0  0  0  0  0  0  0  0  0  0  0  0
    7.1723   13.1561   23.9603 C   0  0  0  0  0  0  0  0  0  0  0  0
    7.9145   11.8393   24.1797 C   0  0  0  0  0  0  0  0  0  0  0  0
    8.9950   11.8026   25.2381 C   0  0  0  0  0  0  0  0  0  0  0  0
    8.9118   12.8992   26.1979 N   0  0  0  0  0  0  0  0  0  0  0  0
    9.8854   14.2580   25.9902 S   0  0  0  0  0  0  0  0  0  0  0  0
    9.6058   14.7923   24.7009 O   0  0  0  0  0  0  0  0  0  0  0  0
    9.6487   15.0563   27.1620 O   0  0  0  0  0  0  0  0  0  0  0  0
   11.4686   13.7228   26.0109 N   0  0  0  0  0  0  0  0  0  0  0  0
   12.1039   13.1630   24.8192 C   0  0  0  0  0  0  0  0  0  0  0  0
   12.8883   11.9030   25.1736 C   0  0  0  0  0  0  0  0  0  0  0  0
   13.9636   12.1850   26.1898 C   0  0  0  0  0  0  0  0  0  0  0  0
   13.3787   12.8185   27.4270 C   0  0  0  0  0  0  0  0  0  0  0  0
   11.9395   13.2914   27.3084 C   0  0  0  0  0  0  0  0  0  0  0  0
    7.4863   13.2394   26.4982 C   0  0  0  0  0  0  0  0  0  0  0  0
    6.8088   13.8608   25.2820 C   0  0  0  0  0  0  0  0  0  0  0  0
  1  2  2  0
  2  3  1  0
  4  3  1  1
  4  5  1  0
  5  6  1  0
  6  7  1  0
  8  7  1  6
  8  9  1  0
  9 10  1  0
 10 11  1  0
  2 12  1  0
 12 13  1  0
 13 14  1  0
 14 15  1  0
 15 16  1  0
 16 17  2  0
 16 18  2  0
 16 19  1  0
 19 20  1  0
 20 21  1  0
 21 22  1  0
 22 23  1  0
 23 24  1  0
 15 25  1  0
 25 26  1  0
  8  4  1  0
 26 12  1  0
 11  4  1  0
 24 19  1  0
M  END
>  <energy_score>  (4212) 
-29.875718

>  <inchikey>  (4212) 
FWIPLDGHSXJNBX-UHFFFAOYSA-N

>  <smiles>  (4212) 
O=C(OC12CCCC1COC2)C1CCN(S(=O)(=O)N2CCCCC2)CC1

>  <ref_pdb>  (4212) 
A0875a

>  <alias>  (4212) 
FWIPLDGHSXJNBX-UHFFFAOYSA-N-P439-P87-P439-601505

>  <HIPPO Pose ID>  (4212) 
507979

>  <name>  (4212) 
FWIPLDGHSXJNBX-UHFFFAOYSA-N-P439-P87-P439-601505

>  <HIPPO Compound ID>  (4212) 
314525

>  <ref_mols>  (4212) 
A4706a,A0875a

>  <distance_score>  (4212) 
1.838222

>  <inspiration_score>  (4212) 
None

$$$$
ZQBLLMBVGNIGMX-UHFFFAOYSA-N-P439-P87-P439-601505
     RDKit          3D

 26 29  0  0  0  0  0  0  0  0999 V2000
   10.3194   14.5582   18.6574 N   0  0  0  0  0  0  0  0  0  0  0  0
   10.6337   15.3893   19.7988 C   0  0  2  0  0  0  0  0  0  0  0  0
   11.7373   14.7613   20.6546 C   0  0  0  0  0  0  0  0  0  0  0  0
   11.1176   14.7924   22.0391 C   0  0  2  0  0  0  0  0  0  0  0  0
    9.9190   13.8560   22.1191 C   0  0  0  0  0  0  0  0  0  0  0  0
    8.7975   14.6396   21.4360 C   0  0  1  0  0  0  0  0  0  0  0  0
    7.7971   15.0733   22.4113 O   0  0  0  0  0  0  0  0  0  0  0  0
    6.9953   14.0825   22.8730 C   0  0  0  0  0  0  0  0  0  0  0  0
    7.0074   12.9443   22.4018 O   0  0  0  0  0  0  0  0  0  0  0  0
    6.0161   14.4487   23.9997 C   0  0  0  0  0  0  0  0  0  0  0  0
    5.7396   13.1820   24.8339 C   0  0  0  0  0  0  0  0  0  0  0  0
    6.9810   12.7736   25.6234 C   0  0  0  0  0  0  0  0  0  0  0  0
    7.5733   13.8901   26.4013 N   0  0  0  0  0  0  0  0  0  0  0  0
    9.1823   14.3751   26.2235 S   0  0  0  0  0  0  0  0  0  0  0  0
    9.3618   14.8653   24.8832 O   0  0  0  0  0  0  0  0  0  0  0  0
    9.4708   15.2514   27.3318 O   0  0  0  0  0  0  0  0  0  0  0  0
   10.2175   13.0281   26.4152 N   0  0  0  0  0  0  0  0  0  0  0  0
    9.9515   11.9308   25.4790 C   0  0  0  0  0  0  0  0  0  0  0  0
   11.0776   10.9995   25.1540 C   0  0  0  0  0  0  0  0  0  0  0  0
   12.4606   11.6479   25.1648 C   0  0  0  0  0  0  0  0  0  0  0  0
   12.6787   12.4949   26.3869 C   0  0  0  0  0  0  0  0  0  0  0  0
   11.6180   13.5663   26.4237 C   0  0  0  0  0  0  0  0  0  0  0  0
    6.6707   15.0867   26.4022 C   0  0  0  0  0  0  0  0  0  0  0  0
    6.4096   15.5722   24.9649 C   0  0  0  0  0  0  0  0  0  0  0  0
    9.5969   15.8122   20.8748 C   0  0  1  0  0  0  0  0  0  0  0  0
   10.4918   16.0809   21.9969 O   0  0  0  0  0  0  0  0  0  0  0  0
  2  1  1  6
  2  3  1  0
  4  3  1  6
  4  5  1  0
  5  6  1  0
  6  7  1  1
  7  8  1  0
  8  9  2  0
  8 10  1  0
 10 11  1  0
 11 12  1  0
 12 13  1  0
 13 14  1  0
 14 15  2  0
 14 16  2  0
 14 17  1  0
 17 18  1  0
 18 19  1  0
 19 20  1  0
 20 21  1  0
 21 22  1  0
 13 23  1  0
 23 24  1  0
  6 25  1  0
 25 26  1  1
 25  2  1  0
 26  4  1  0
 24 10  1  0
 22 17  1  0
M  END
>  <energy_score>  (4213) 
-26.336628

>  <inchikey>  (4213) 
ZQBLLMBVGNIGMX-UHFFFAOYSA-N

>  <smiles>  (4213) 
NC1CC2CC(OC(=O)C3CCN(S(=O)(=O)N4CCCCC4)CC3)C1O2

>  <ref_pdb>  (4213) 
A0875a

>  <alias>  (4213) 
ZQBLLMBVGNIGMX-UHFFFAOYSA-N-P439-P87-P439-601505

>  <HIPPO Pose ID>  (4213) 
507983

>  <name>  (4213) 
ZQBLLMBVGNIGMX-UHFFFAOYSA-N-P439-P87-P439-601505

>  <HIPPO Compound ID>  (4213) 
314527

>  <ref_mols>  (4213) 
A4706a,A0875a

>  <distance_score>  (4213) 
1.568869

>  <inspiration_score>  (4213) 
None

$$$$
VETCPAIOKUQKNK-UHFFFAOYSA-N-P439-P87-P439-601505
     RDKit          3D

 26 28  0  0  0  0  0  0  0  0999 V2000
    9.7438   11.4628   22.7150 C   0  0  0  0  0  0  0  0  0  0  0  0
    9.7606   12.6408   22.4696 C   0  0  0  0  0  0  0  0  0  0  0  0
    9.6107   14.0879   22.1769 C   0  0  2  0  0  0  0  0  0  0  0  0
    8.5367   14.5821   23.0470 O   0  0  0  0  0  0  0  0  0  0  0  0
    7.3488   13.9221   23.0509 C   0  0  0  0  0  0  0  0  0  0  0  0
    6.9517   13.1916   22.1424 O   0  0  0  0  0  0  0  0  0  0  0  0
    6.5262   14.0350   24.3352 C   0  0  0  0  0  0  0  0  0  0  0  0
    6.5389   12.6518   25.0139 C   0  0  0  0  0  0  0  0  0  0  0  0
    7.9049   12.3703   25.6320 C   0  0  0  0  0  0  0  0  0  0  0  0
    8.3835   13.4612   26.4892 N   0  0  0  0  0  0  0  0  0  0  0  0
    9.9334   14.1152   26.3654 S   0  0  0  0  0  0  0  0  0  0  0  0
   10.1108   14.8434   27.5972 O   0  0  0  0  0  0  0  0  0  0  0  0
   10.0393   14.8101   25.1161 O   0  0  0  0  0  0  0  0  0  0  0  0
   11.0741   12.8730   26.3813 N   0  0  0  0  0  0  0  0  0  0  0  0
   12.4338   13.2845   26.8929 C   0  0  0  0  0  0  0  0  0  0  0  0
   13.5794   13.0311   25.8664 C   0  0  0  0  0  0  0  0  0  0  0  0
   13.7140   11.5899   25.4340 C   0  0  0  0  0  0  0  0  0  0  0  0
   12.3390   11.0229   25.4933 C   0  0  0  0  0  0  0  0  0  0  0  0
   11.1944   11.9754   25.2232 C   0  0  0  0  0  0  0  0  0  0  0  0
    7.3519   14.5287   26.6929 C   0  0  0  0  0  0  0  0  0  0  0  0
    6.9086   15.1156   25.3482 C   0  0  0  0  0  0  0  0  0  0  0  0
    9.2987   14.3915   20.6940 C   0  0  0  0  0  0  0  0  0  0  0  0
    9.9067   15.6861   20.1683 C   0  0  0  0  0  0  0  0  0  0  0  0
    9.9728   16.6325   21.3303 C   0  0  0  0  0  0  0  0  0  0  0  0
   10.9857   16.1848   22.2302 O   0  0  0  0  0  0  0  0  0  0  0  0
   10.9816   14.7744   22.4408 C   0  0  0  0  0  0  0  0  0  0  0  0
  1  2  3  0
  3  2  1  6
  3  4  1  0
  4  5  1  0
  5  6  2  0
  5  7  1  0
  7  8  1  0
  8  9  1  0
  9 10  1  0
 10 11  1  0
 11 12  2  0
 11 13  2  0
 11 14  1  0
 14 15  1  0
 15 16  1  0
 16 17  1  0
 17 18  1  0
 18 19  1  0
 10 20  1  0
 20 21  1  0
  3 22  1  0
 22 23  1  0
 23 24  1  0
 24 25  1  0
 25 26  1  0
 26  3  1  0
 21  7  1  0
 19 14  1  0
M  END
>  <energy_score>  (4214) 
-18.378414

>  <inchikey>  (4214) 
VETCPAIOKUQKNK-UHFFFAOYSA-N

>  <smiles>  (4214) 
C#CC1(OC(=O)C2CCN(S(=O)(=O)N3CCCCC3)CC2)CCCOC1

>  <ref_pdb>  (4214) 
A0875a

>  <alias>  (4214) 
VETCPAIOKUQKNK-UHFFFAOYSA-N-P439-P87-P439-601505

>  <HIPPO Pose ID>  (4214) 
507985

>  <name>  (4214) 
VETCPAIOKUQKNK-UHFFFAOYSA-N-P439-P87-P439-601505

>  <HIPPO Compound ID>  (4214) 
314528

>  <ref_mols>  (4214) 
A4706a,A0875a

>  <distance_score>  (4214) 
1.4752

>  <inspiration_score>  (4214) 
None

$$$$
FOGVXWRSELHTEF-UHFFFAOYSA-N-P439-P87-P439-601505
     RDKit          3D

 26 28  0  0  0  0  0  0  0  0999 V2000
    6.5270   13.9711   21.8055 O   0  0  0  0  0  0  0  0  0  0  0  0
    6.8325   14.5944   22.8156 C   0  0  0  0  0  0  0  0  0  0  0  0
    7.9094   15.4021   22.9388 O   0  0  0  0  0  0  0  0  0  0  0  0
    8.8643   15.7141   21.9069 C   0  0  1  0  0  0  0  0  0  0  0  0
   10.3203   15.6526   22.3816 C   0  0  0  0  0  0  0  0  0  0  0  0
   11.1181   15.8577   21.2168 O   0  0  0  0  0  0  0  0  0  0  0  0
   10.2976   15.4502   20.0890 C   0  0  1  0  0  0  0  0  0  0  0  0
   11.1485   14.6004   19.1732 C   0  0  0  0  0  0  0  0  0  0  0  0
   10.4114   13.8517   18.3374 F   0  0  0  0  0  0  0  0  0  0  0  0
   11.8958   15.3866   18.3627 F   0  0  0  0  0  0  0  0  0  0  0  0
    9.0590   14.8082   20.7170 C   0  0  0  0  0  0  0  0  0  0  0  0
    6.0121   14.5045   24.1339 C   0  0  0  0  0  0  0  0  0  0  0  0
    5.7680   13.0448   24.5722 C   0  0  0  0  0  0  0  0  0  0  0  0
    6.7798   12.3899   25.5243 C   0  0  0  0  0  0  0  0  0  0  0  0
    7.8097   13.3549   25.9589 N   0  0  0  0  0  0  0  0  0  0  0  0
    9.0882   13.5539   24.8864 S   0  0  0  0  0  0  0  0  0  0  0  0
    9.5254   14.9275   24.9338 O   0  0  0  0  0  0  0  0  0  0  0  0
    8.7625   12.8560   23.6682 O   0  0  0  0  0  0  0  0  0  0  0  0
   10.3327   12.6956   25.5798 N   0  0  0  0  0  0  0  0  0  0  0  0
   11.4426   12.5103   24.6103 C   0  0  0  0  0  0  0  0  0  0  0  0
   12.5697   11.7423   25.2844 C   0  0  0  0  0  0  0  0  0  0  0  0
   13.1190   12.4956   26.4773 C   0  0  0  0  0  0  0  0  0  0  0  0
   12.1962   13.6287   26.8940 C   0  0  0  0  0  0  0  0  0  0  0  0
   10.7440   13.2705   26.8635 C   0  0  0  0  0  0  0  0  0  0  0  0
    7.1739   14.6005   26.4468 C   0  0  0  0  0  0  0  0  0  0  0  0
    6.4766   15.3657   25.3204 C   0  0  0  0  0  0  0  0  0  0  0  0
  1  2  2  0
  2  3  1  0
  4  3  1  1
  4  5  1  0
  5  6  1  0
  6  7  1  0
  7  8  1  6
  8  9  1  0
  8 10  1  0
  7 11  1  0
  2 12  1  0
 12 13  1  0
 13 14  1  0
 14 15  1  0
 15 16  1  0
 16 17  2  0
 16 18  2  0
 16 19  1  0
 19 20  1  0
 20 21  1  0
 21 22  1  0
 22 23  1  0
 23 24  1  0
 15 25  1  0
 25 26  1  0
 11  4  1  0
 26 12  1  0
 24 19  1  0
M  END
>  <energy_score>  (4215) 
-32.176348

>  <inchikey>  (4215) 
FOGVXWRSELHTEF-UHFFFAOYSA-N

>  <smiles>  (4215) 
O=C(OC1COC(C(F)F)C1)C1CCN(S(=O)(=O)N2CCCCC2)CC1

>  <ref_pdb>  (4215) 
A0875a

>  <alias>  (4215) 
FOGVXWRSELHTEF-UHFFFAOYSA-N-P439-P87-P439-601505

>  <HIPPO Pose ID>  (4215) 
507987

>  <name>  (4215) 
FOGVXWRSELHTEF-UHFFFAOYSA-N-P439-P87-P439-601505

>  <HIPPO Compound ID>  (4215) 
314529

>  <ref_mols>  (4215) 
A4706a,A0875a

>  <distance_score>  (4215) 
1.738355

>  <inspiration_score>  (4215) 
None

$$$$
IOUUCSULFNHZSK-UHFFFAOYSA-N-P439-P87-P439-601505
     RDKit          3D

 26 29  0  0  0  0  0  0  0  0999 V2000
    6.5109   13.2669   22.3634 O   0  0  0  0  0  0  0  0  0  0  0  0
    6.6853   14.0943   23.2539 C   0  0  0  0  0  0  0  0  0  0  0  0
    7.5300   15.1570   23.1900 O   0  0  0  0  0  0  0  0  0  0  0  0
    8.4285   15.4574   22.0800 C   0  0  2  0  0  0  0  0  0  0  0  0
    8.3691   14.5863   20.8401 C   0  0  0  0  0  0  0  0  0  0  0  0
    9.1001   15.1210   19.7346 O   0  0  0  0  0  0  0  0  0  0  0  0
   10.2068   15.9306   20.0795 C   0  0  0  0  0  0  0  0  0  0  0  0
   10.8367   15.4089   21.3251 C   0  0  0  0  0  0  0  0  0  0  0  0
   12.3029   15.5020   21.6338 C   0  0  0  0  0  0  0  0  0  0  0  0
   11.7451   14.2289   21.0910 C   0  0  0  0  0  0  0  0  0  0  0  0
    9.9079   15.3748   22.5042 C   0  0  0  0  0  0  0  0  0  0  0  0
    5.9540   13.9883   24.6160 C   0  0  0  0  0  0  0  0  0  0  0  0
    5.9722   12.5375   25.1524 C   0  0  0  0  0  0  0  0  0  0  0  0
    7.1119   12.1153   26.0869 C   0  0  0  0  0  0  0  0  0  0  0  0
    7.9854   13.2557   26.4289 N   0  0  0  0  0  0  0  0  0  0  0  0
    9.1785   13.6084   25.3036 S   0  0  0  0  0  0  0  0  0  0  0  0
    9.3870   15.0363   25.3309 O   0  0  0  0  0  0  0  0  0  0  0  0
    8.8392   12.8815   24.1062 O   0  0  0  0  0  0  0  0  0  0  0  0
   10.5543   12.8737   25.9203 N   0  0  0  0  0  0  0  0  0  0  0  0
   11.7556   13.7535   25.9406 C   0  0  0  0  0  0  0  0  0  0  0  0
   12.6968   13.3636   24.8072 C   0  0  0  0  0  0  0  0  0  0  0  0
   13.3277   12.0304   25.1252 C   0  0  0  0  0  0  0  0  0  0  0  0
   12.2548   11.1352   25.6523 C   0  0  0  0  0  0  0  0  0  0  0  0
   10.8296   11.5475   25.2964 C   0  0  0  0  0  0  0  0  0  0  0  0
    7.1588   14.4085   26.8650 C   0  0  0  0  0  0  0  0  0  0  0  0
    6.3441   14.9966   25.7094 C   0  0  0  0  0  0  0  0  0  0  0  0
  1  2  2  0
  2  3  1  0
  4  3  1  1
  4  5  1  0
  5  6  1  0
  6  7  1  0
  7  8  1  0
  8  9  1  0
  9 10  1  0
  8 11  1  0
  2 12  1  0
 12 13  1  0
 13 14  1  0
 14 15  1  0
 15 16  1  0
 16 17  2  0
 16 18  2  0
 16 19  1  0
 19 20  1  0
 20 21  1  0
 21 22  1  0
 22 23  1  0
 23 24  1  0
 15 25  1  0
 25 26  1  0
 11  4  1  0
 26 12  1  0
 10  8  1  0
 24 19  1  0
M  END
>  <energy_score>  (4216) 
-25.05307

>  <inchikey>  (4216) 
IOUUCSULFNHZSK-UHFFFAOYSA-N

>  <smiles>  (4216) 
O=C(OC1COCC2(CC2)C1)C1CCN(S(=O)(=O)N2CCCCC2)CC1

>  <ref_pdb>  (4216) 
A0875a

>  <alias>  (4216) 
IOUUCSULFNHZSK-UHFFFAOYSA-N-P439-P87-P439-601505

>  <HIPPO Pose ID>  (4216) 
507989

>  <name>  (4216) 
IOUUCSULFNHZSK-UHFFFAOYSA-N-P439-P87-P439-601505

>  <HIPPO Compound ID>  (4216) 
314530

>  <ref_mols>  (4216) 
A4706a,A0875a

>  <distance_score>  (4216) 
1.573358

>  <inspiration_score>  (4216) 
None

$$$$
YPEMDULHTBPJBQ-UHFFFAOYSA-N-P439-P87-P439-601505
     RDKit          3D

 26 28  0  0  0  0  0  0  0  0999 V2000
   11.1429   14.3771   18.8661 N   0  0  0  0  0  0  0  0  0  0  0  0
   10.0665   15.0877   19.5512 C   0  0  0  0  0  0  0  0  0  0  0  0
    9.5128   14.3027   20.7874 C   0  0  1  0  0  0  0  0  0  0  0  0
   10.5166   13.8034   21.6771 O   0  0  0  0  0  0  0  0  0  0  0  0
   11.4433   14.7764   22.0772 C   0  0  0  0  0  0  0  0  0  0  0  0
   10.7801   16.0826   22.4012 C   0  0  0  0  0  0  0  0  0  0  0  0
    9.2546   16.1764   22.2600 C   0  0  0  0  0  0  0  0  0  0  0  0
    8.4829   15.1145   21.5379 C   0  0  2  0  0  0  0  0  0  0  0  0
    7.6937   14.3649   22.5273 O   0  0  0  0  0  0  0  0  0  0  0  0
    6.4042   14.7482   22.7536 C   0  0  0  0  0  0  0  0  0  0  0  0
    5.6933   15.2883   21.9135 O   0  0  0  0  0  0  0  0  0  0  0  0
    5.8860   14.4817   24.1872 C   0  0  0  0  0  0  0  0  0  0  0  0
    5.7452   12.9934   24.5340 C   0  0  0  0  0  0  0  0  0  0  0  0
    6.4880   12.4689   25.7591 C   0  0  0  0  0  0  0  0  0  0  0  0
    7.6820   13.2871   26.0185 N   0  0  0  0  0  0  0  0  0  0  0  0
    8.9281   13.1245   24.8900 S   0  0  0  0  0  0  0  0  0  0  0  0
    8.5162   12.1534   23.9077 O   0  0  0  0  0  0  0  0  0  0  0  0
    9.4579   14.4275   24.5889 O   0  0  0  0  0  0  0  0  0  0  0  0
   10.1013   12.3849   25.8265 N   0  0  0  0  0  0  0  0  0  0  0  0
   10.7104   13.2931   26.7903 C   0  0  0  0  0  0  0  0  0  0  0  0
   11.9276   14.0014   26.2832 C   0  0  0  0  0  0  0  0  0  0  0  0
   12.9193   13.1170   25.5307 C   0  0  0  0  0  0  0  0  0  0  0  0
   12.4774   11.6852   25.5265 C   0  0  0  0  0  0  0  0  0  0  0  0
   11.0494   11.6034   25.0056 C   0  0  0  0  0  0  0  0  0  0  0  0
    7.2818   14.6581   26.3807 C   0  0  0  0  0  0  0  0  0  0  0  0
    6.5831   15.3671   25.2282 C   0  0  0  0  0  0  0  0  0  0  0  0
  1  2  1  0
  3  2  1  6
  3  4  1  0
  4  5  1  0
  5  6  1  0
  6  7  1  0
  7  8  1  0
  8  9  1  1
  9 10  1  0
 10 11  2  0
 10 12  1  0
 12 13  1  0
 13 14  1  0
 14 15  1  0
 15 16  1  0
 16 17  2  0
 16 18  2  0
 16 19  1  0
 19 20  1  0
 20 21  1  0
 21 22  1  0
 22 23  1  0
 23 24  1  0
 15 25  1  0
 25 26  1  0
  8  3  1  0
 26 12  1  0
 24 19  1  0
M  END
>  <energy_score>  (4217) 
-16.969176

>  <inchikey>  (4217) 
YPEMDULHTBPJBQ-UHFFFAOYSA-N

>  <smiles>  (4217) 
NCC1OCCCC1OC(=O)C1CCN(S(=O)(=O)N2CCCCC2)CC1

>  <ref_pdb>  (4217) 
A0875a

>  <alias>  (4217) 
YPEMDULHTBPJBQ-UHFFFAOYSA-N-P439-P87-P439-601505

>  <HIPPO Pose ID>  (4217) 
507991

>  <name>  (4217) 
YPEMDULHTBPJBQ-UHFFFAOYSA-N-P439-P87-P439-601505

>  <HIPPO Compound ID>  (4217) 
314531

>  <ref_mols>  (4217) 
A4706a,A0875a

>  <distance_score>  (4217) 
1.64173

>  <inspiration_score>  (4217) 
None

$$$$
NRZWFKIEJGPYTI-UHFFFAOYSA-N-P439-P87-P439-601505
     RDKit          3D

 26 29  0  0  0  0  0  0  0  0999 V2000
    6.8441   13.2786   22.2057 O   0  0  0  0  0  0  0  0  0  0  0  0
    6.9333   14.0765   23.1340 C   0  0  0  0  0  0  0  0  0  0  0  0
    7.7193   15.1809   23.1632 O   0  0  0  0  0  0  0  0  0  0  0  0
    8.8316   15.4119   22.2698 C   0  0  2  0  0  0  0  0  0  0  0  0
    8.7048   16.6586   21.4257 C   0  0  0  0  0  0  0  0  0  0  0  0
    9.7671   16.5598   20.4772 O   0  0  0  0  0  0  0  0  0  0  0  0
   10.2503   15.1956   20.4067 C   0  0  0  0  0  0  0  0  0  0  0  0
   10.8138   14.7931   19.0311 C   0  0  0  0  0  0  0  0  0  0  0  0
   12.0386   14.3074   19.6185 O   0  0  0  0  0  0  0  0  0  0  0  0
   11.7003   14.9471   20.8748 C   0  0  0  0  0  0  0  0  0  0  0  0
    9.2314   14.3919   21.2084 C   0  0  0  0  0  0  0  0  0  0  0  0
    6.1526   13.8713   24.4462 C   0  0  0  0  0  0  0  0  0  0  0  0
    6.4450   12.4959   25.0857 C   0  0  0  0  0  0  0  0  0  0  0  0
    7.3810   12.5227   26.3002 C   0  0  0  0  0  0  0  0  0  0  0  0
    8.3019   13.6838   26.2714 N   0  0  0  0  0  0  0  0  0  0  0  0
    9.5908   13.5828   25.1966 S   0  0  0  0  0  0  0  0  0  0  0  0
    9.1392   12.7467   24.1136 O   0  0  0  0  0  0  0  0  0  0  0  0
   10.1501   14.8910   24.9667 O   0  0  0  0  0  0  0  0  0  0  0  0
   10.7538   12.7029   26.0739 N   0  0  0  0  0  0  0  0  0  0  0  0
   11.5887   13.5495   26.9801 C   0  0  0  0  0  0  0  0  0  0  0  0
   12.9035   12.8751   27.3923 C   0  0  0  0  0  0  0  0  0  0  0  0
   13.7498   12.3866   26.2396 C   0  0  0  0  0  0  0  0  0  0  0  0
   12.9341   12.2766   24.9825 C   0  0  0  0  0  0  0  0  0  0  0  0
   11.5238   11.7946   25.2013 C   0  0  0  0  0  0  0  0  0  0  0  0
    7.5705   14.9742   26.3070 C   0  0  0  0  0  0  0  0  0  0  0  0
    6.2781   14.9773   25.4921 C   0  0  0  0  0  0  0  0  0  0  0  0
  1  2  2  0
  2  3  1  0
  4  3  1  6
  4  5  1  0
  5  6  1  0
  6  7  1  0
  7  8  1  0
  8  9  1  0
  9 10  1  0
  7 11  1  0
  2 12  1  0
 12 13  1  0
 13 14  1  0
 14 15  1  0
 15 16  1  0
 16 17  2  0
 16 18  2  0
 16 19  1  0
 19 20  1  0
 20 21  1  0
 21 22  1  0
 22 23  1  0
 23 24  1  0
 15 25  1  0
 25 26  1  0
 11  4  1  0
 26 12  1  0
 10  7  1  0
 24 19  1  0
M  END
>  <energy_score>  (4218) 
-57.393633

>  <inchikey>  (4218) 
NRZWFKIEJGPYTI-UHFFFAOYSA-N

>  <smiles>  (4218) 
O=C(OC1COC2(COC2)C1)C1CCN(S(=O)(=O)N2CCCCC2)CC1

>  <ref_pdb>  (4218) 
A0875a

>  <alias>  (4218) 
NRZWFKIEJGPYTI-UHFFFAOYSA-N-P439-P87-P439-601505

>  <HIPPO Pose ID>  (4218) 
507993

>  <name>  (4218) 
NRZWFKIEJGPYTI-UHFFFAOYSA-N-P439-P87-P439-601505

>  <HIPPO Compound ID>  (4218) 
314532

>  <ref_mols>  (4218) 
A4706a,A0875a

>  <distance_score>  (4218) 
1.677785

>  <inspiration_score>  (4218) 
None

$$$$
FVXORDUWFDIMJQ-UHFFFAOYSA-N-P439-P87-P439-601505
     RDKit          3D

 26 28  0  0  0  0  0  0  0  0999 V2000
   12.0460   14.5130   19.2998 C   0  0  0  0  0  0  0  0  0  0  0  0
   10.6590   14.4316   18.9172 N   0  0  0  0  0  0  0  0  0  0  0  0
    9.9335   15.6467   19.2609 C   0  0  0  0  0  0  0  0  0  0  0  0
    9.5423   15.8652   20.7365 C   0  0  2  0  0  0  0  0  0  0  0  0
   10.7359   16.1839   21.4824 O   0  0  0  0  0  0  0  0  0  0  0  0
   10.8583   15.2582   22.5528 C   0  0  0  0  0  0  0  0  0  0  0  0
   10.0156   14.0608   22.1897 C   0  0  0  0  0  0  0  0  0  0  0  0
    8.8763   14.6515   21.3832 C   0  0  1  0  0  0  0  0  0  0  0  0
    7.8069   15.0484   22.2720 O   0  0  0  0  0  0  0  0  0  0  0  0
    6.9805   14.0303   22.6568 C   0  0  0  0  0  0  0  0  0  0  0  0
    6.4241   13.2329   21.9177 O   0  0  0  0  0  0  0  0  0  0  0  0
    6.9341   13.9614   24.1515 C   0  0  0  0  0  0  0  0  0  0  0  0
    6.4962   12.6639   24.8123 C   0  0  0  0  0  0  0  0  0  0  0  0
    6.9551   12.6426   26.2778 C   0  0  0  0  0  0  0  0  0  0  0  0
    7.5618   13.9250   26.7109 N   0  0  0  0  0  0  0  0  0  0  0  0
    9.1723   14.4310   26.5595 S   0  0  0  0  0  0  0  0  0  0  0  0
    9.3825   15.0774   25.2883 O   0  0  0  0  0  0  0  0  0  0  0  0
    9.4528   15.1676   27.7654 O   0  0  0  0  0  0  0  0  0  0  0  0
   10.2154   13.1175   26.5537 N   0  0  0  0  0  0  0  0  0  0  0  0
   11.6342   13.5685   26.7261 C   0  0  0  0  0  0  0  0  0  0  0  0
   12.5640   13.1702   25.6012 C   0  0  0  0  0  0  0  0  0  0  0  0
   12.4610   11.6969   25.4159 C   0  0  0  0  0  0  0  0  0  0  0  0
   11.0710   11.3964   24.9078 C   0  0  0  0  0  0  0  0  0  0  0  0
    9.9258   12.0017   25.6560 C   0  0  0  0  0  0  0  0  0  0  0  0
    6.5998   15.0398   26.4156 C   0  0  0  0  0  0  0  0  0  0  0  0
    6.3892   15.1729   24.8962 C   0  0  0  0  0  0  0  0  0  0  0  0
  1  2  1  0
  2  3  1  0
  4  3  1  6
  4  5  1  0
  5  6  1  0
  6  7  1  0
  7  8  1  0
  8  9  1  1
  9 10  1  0
 10 11  2  0
 10 12  1  0
 12 13  1  0
 13 14  1  0
 14 15  1  0
 15 16  1  0
 16 17  2  0
 16 18  2  0
 16 19  1  0
 19 20  1  0
 20 21  1  0
 21 22  1  0
 22 23  1  0
 23 24  1  0
 15 25  1  0
 25 26  1  0
  8  4  1  0
 26 12  1  0
 24 19  1  0
M  END
>  <energy_score>  (4219) 
-24.975859

>  <inchikey>  (4219) 
FVXORDUWFDIMJQ-UHFFFAOYSA-N

>  <smiles>  (4219) 
CNCC1OCCC1OC(=O)C1CCN(S(=O)(=O)N2CCCCC2)CC1

>  <ref_pdb>  (4219) 
A0875a

>  <alias>  (4219) 
FVXORDUWFDIMJQ-UHFFFAOYSA-N-P439-P87-P439-601505

>  <HIPPO Pose ID>  (4219) 
507995

>  <name>  (4219) 
FVXORDUWFDIMJQ-UHFFFAOYSA-N-P439-P87-P439-601505

>  <HIPPO Compound ID>  (4219) 
314533

>  <ref_mols>  (4219) 
A4706a,A0875a

>  <distance_score>  (4219) 
1.354799

>  <inspiration_score>  (4219) 
None

$$$$
BDLILJPZWGUTBM-UHFFFAOYSA-N-P439-P87-P439-601505
     RDKit          3D

 26 29  0  0  0  0  0  0  0  0999 V2000
    6.7407   13.1111   22.2657 O   0  0  0  0  0  0  0  0  0  0  0  0
    7.0711   13.9916   23.0603 C   0  0  0  0  0  0  0  0  0  0  0  0
    8.0713   14.8877   22.8236 O   0  0  0  0  0  0  0  0  0  0  0  0
    8.8521   14.7037   21.6125 C   0  0  2  0  0  0  0  0  0  0  0  0
   10.0599   13.7963   21.8487 C   0  0  0  0  0  0  0  0  0  0  0  0
   11.2834   14.2847   21.0644 C   0  0  1  0  0  0  0  0  0  0  0  0
   10.9699   14.6791   19.6156 C   0  0  0  0  0  0  0  0  0  0  0  0
    9.8949   15.7537   19.6116 C   0  0  0  0  0  0  0  0  0  0  0  0
    9.4277   16.0200   21.0488 C   0  0  2  0  0  0  0  0  0  0  0  0
   10.5811   16.4574   21.7990 O   0  0  0  0  0  0  0  0  0  0  0  0
   11.6861   15.5549   21.7881 C   0  0  0  0  0  0  0  0  0  0  0  0
    6.3508   14.1557   24.4232 C   0  0  0  0  0  0  0  0  0  0  0  0
    6.2078   12.7991   25.1656 C   0  0  0  0  0  0  0  0  0  0  0  0
    7.1661   12.5134   26.3356 C   0  0  0  0  0  0  0  0  0  0  0  0
    8.2246   13.5488   26.4611 N   0  0  0  0  0  0  0  0  0  0  0  0
    9.4516   13.4360   25.3226 S   0  0  0  0  0  0  0  0  0  0  0  0
    8.9669   12.4852   24.3479 O   0  0  0  0  0  0  0  0  0  0  0  0
    9.9096   14.7564   24.9711 O   0  0  0  0  0  0  0  0  0  0  0  0
   10.7356   12.6705   26.1318 N   0  0  0  0  0  0  0  0  0  0  0  0
   11.5138   11.8185   25.2025 C   0  0  0  0  0  0  0  0  0  0  0  0
   12.9299   12.2957   25.0077 C   0  0  0  0  0  0  0  0  0  0  0  0
   13.7322   12.3998   26.2718 C   0  0  0  0  0  0  0  0  0  0  0  0
   12.8876   12.9400   27.4032 C   0  0  0  0  0  0  0  0  0  0  0  0
   11.5648   13.5871   26.9657 C   0  0  0  0  0  0  0  0  0  0  0  0
    7.5923   14.8789   26.5948 C   0  0  0  0  0  0  0  0  0  0  0  0
    6.8330   15.2922   25.3345 C   0  0  0  0  0  0  0  0  0  0  0  0
  1  2  2  0
  2  3  1  0
  4  3  1  1
  4  5  1  0
  6  5  1  1
  6  7  1  0
  7  8  1  0
  9  8  1  6
  9 10  1  0
 10 11  1  0
  2 12  1  0
 12 13  1  0
 13 14  1  0
 14 15  1  0
 15 16  1  0
 16 17  2  0
 16 18  2  0
 16 19  1  0
 19 20  1  0
 20 21  1  0
 21 22  1  0
 22 23  1  0
 23 24  1  0
 15 25  1  0
 25 26  1  0
  9  4  1  0
 26 12  1  0
 11  6  1  0
 24 19  1  0
M  END
>  <energy_score>  (4220) 
-40.293242

>  <inchikey>  (4220) 
BDLILJPZWGUTBM-UHFFFAOYSA-N

>  <smiles>  (4220) 
O=C(OC1CC2CCC1OC2)C1CCN(S(=O)(=O)N2CCCCC2)CC1

>  <ref_pdb>  (4220) 
A0875a

>  <alias>  (4220) 
BDLILJPZWGUTBM-UHFFFAOYSA-N-P439-P87-P439-601505

>  <HIPPO Pose ID>  (4220) 
507999

>  <name>  (4220) 
BDLILJPZWGUTBM-UHFFFAOYSA-N-P439-P87-P439-601505

>  <HIPPO Compound ID>  (4220) 
314535

>  <ref_mols>  (4220) 
A4706a,A0875a

>  <distance_score>  (4220) 
1.520681

>  <inspiration_score>  (4220) 
None

$$$$
OBLYRGYPDCQELW-UHFFFAOYSA-N-P439-P87-P439-601505
     RDKit          3D

 26 28  0  0  0  0  0  0  0  0999 V2000
   10.6091   15.3653   19.2255 C   0  0  0  0  0  0  0  0  0  0  0  0
   10.3051   15.3394   20.7233 C   0  0  0  0  0  0  0  0  0  0  0  0
   10.9532   16.5021   21.4552 C   0  0  0  0  0  0  0  0  0  0  0  0
   10.9783   14.1193   21.3378 C   0  0  0  0  0  0  0  0  0  0  0  0
    9.9901   13.2798   21.8891 O   0  0  0  0  0  0  0  0  0  0  0  0
    9.2680   13.9584   22.8986 C   0  0  0  0  0  0  0  0  0  0  0  0
    8.4394   15.1267   22.4234 C   0  0  2  0  0  0  0  0  0  0  0  0
    7.0444   15.0908   22.8148 O   0  0  0  0  0  0  0  0  0  0  0  0
    6.4265   13.8910   22.9003 C   0  0  0  0  0  0  0  0  0  0  0  0
    6.5892   12.9922   22.0842 O   0  0  0  0  0  0  0  0  0  0  0  0
    5.5836   13.6958   24.1683 C   0  0  0  0  0  0  0  0  0  0  0  0
    6.0550   12.4393   24.9657 C   0  0  0  0  0  0  0  0  0  0  0  0
    7.0327   12.7436   26.1033 C   0  0  0  0  0  0  0  0  0  0  0  0
    7.8007   13.9005   25.6451 N   0  0  0  0  0  0  0  0  0  0  0  0
    9.3222   14.1960   26.2350 S   0  0  0  0  0  0  0  0  0  0  0  0
    9.2137   14.1905   27.6663 O   0  0  0  0  0  0  0  0  0  0  0  0
    9.7848   15.3791   25.5484 O   0  0  0  0  0  0  0  0  0  0  0  0
   10.3716   12.9612   25.8245 N   0  0  0  0  0  0  0  0  0  0  0  0
   10.1053   11.9031   24.8402 C   0  0  0  0  0  0  0  0  0  0  0  0
   10.9598   10.7009   25.1578 C   0  0  0  0  0  0  0  0  0  0  0  0
   12.4147   11.1343   25.4909 C   0  0  0  0  0  0  0  0  0  0  0  0
   12.7132   12.5482   25.0593 C   0  0  0  0  0  0  0  0  0  0  0  0
   11.7798   13.4633   25.8221 C   0  0  0  0  0  0  0  0  0  0  0  0
    6.9360   15.1319   25.7557 C   0  0  0  0  0  0  0  0  0  0  0  0
    5.5759   14.9002   25.1037 C   0  0  0  0  0  0  0  0  0  0  0  0
    8.7672   15.4049   20.9738 C   0  0  0  0  0  0  0  0  0  0  0  0
  1  2  1  0
  2  3  1  0
  2  4  1  0
  4  5  1  0
  5  6  1  0
  6  7  1  0
  7  8  1  6
  8  9  1  0
  9 10  2  0
  9 11  1  0
 11 12  1  0
 12 13  1  0
 13 14  1  0
 14 15  1  0
 15 16  2  0
 15 17  2  0
 15 18  1  0
 18 19  1  0
 19 20  1  0
 20 21  1  0
 21 22  1  0
 22 23  1  0
 14 24  1  0
 24 25  1  0
  7 26  1  0
 26  2  1  0
 25 11  1  0
 23 18  1  0
M  END
>  <energy_score>  (4221) 
-24.486457

>  <inchikey>  (4221) 
OBLYRGYPDCQELW-UHFFFAOYSA-N

>  <smiles>  (4221) 
CC1(C)COCC(OC(=O)C2CCN(S(=O)(=O)N3CCCCC3)CC2)C1

>  <ref_pdb>  (4221) 
A0875a

>  <alias>  (4221) 
OBLYRGYPDCQELW-UHFFFAOYSA-N-P439-P87-P439-601505

>  <HIPPO Pose ID>  (4221) 
508001

>  <name>  (4221) 
OBLYRGYPDCQELW-UHFFFAOYSA-N-P439-P87-P439-601505

>  <HIPPO Compound ID>  (4221) 
314536

>  <ref_mols>  (4221) 
A4706a,A0875a

>  <distance_score>  (4221) 
1.915217

>  <inspiration_score>  (4221) 
None

$$$$
REICCVITQWBZQR-UHFFFAOYSA-N-P439-P87-P439-601505
     RDKit          3D

 26 29  0  0  0  0  0  0  0  0999 V2000
   10.8869   14.8348   18.6765 C   0  0  0  0  0  0  0  0  0  0  0  0
    9.6654   15.0263   19.3624 O   0  0  0  0  0  0  0  0  0  0  0  0
    9.6133   15.9731   20.4429 C   0  0  2  0  0  0  0  0  0  0  0  0
   10.8908   16.1791   21.2699 C   0  0  0  0  0  0  0  0  0  0  0  0
   10.3286   15.1688   22.1530 C   0  0  0  0  0  0  0  0  0  0  0  0
   10.8594   13.7777   22.2624 C   0  0  0  0  0  0  0  0  0  0  0  0
   10.9799   14.7570   23.4007 C   0  0  0  0  0  0  0  0  0  0  0  0
    8.9101   15.5072   21.7753 C   0  0  2  0  0  0  0  0  0  0  0  0
    7.9737   14.4024   21.7340 O   0  0  0  0  0  0  0  0  0  0  0  0
    6.6999   14.4971   22.1925 C   0  0  0  0  0  0  0  0  0  0  0  0
    5.7671   14.2824   21.4141 O   0  0  0  0  0  0  0  0  0  0  0  0
    6.3497   14.7464   23.6801 C   0  0  0  0  0  0  0  0  0  0  0  0
    5.7327   13.4497   24.2862 C   0  0  0  0  0  0  0  0  0  0  0  0
    6.0941   13.0977   25.7324 C   0  0  0  0  0  0  0  0  0  0  0  0
    7.5079   13.4705   26.0343 N   0  0  0  0  0  0  0  0  0  0  0  0
    8.5878   12.4732   25.2252 S   0  0  0  0  0  0  0  0  0  0  0  0
    8.3994   11.1618   25.7963 O   0  0  0  0  0  0  0  0  0  0  0  0
    8.4233   12.6674   23.8104 O   0  0  0  0  0  0  0  0  0  0  0  0
   10.1578   12.9360   25.5739 N   0  0  0  0  0  0  0  0  0  0  0  0
   11.0959   11.9121   25.0221 C   0  0  0  0  0  0  0  0  0  0  0  0
   12.5605   12.2837   25.2059 C   0  0  0  0  0  0  0  0  0  0  0  0
   12.8805   12.7328   26.6167 C   0  0  0  0  0  0  0  0  0  0  0  0
   11.8987   13.8144   27.0295 C   0  0  0  0  0  0  0  0  0  0  0  0
   10.4781   13.3155   26.9328 C   0  0  0  0  0  0  0  0  0  0  0  0
    7.5955   14.9279   25.9549 C   0  0  0  0  0  0  0  0  0  0  0  0
    7.3913   15.4282   24.5494 C   0  0  0  0  0  0  0  0  0  0  0  0
  1  2  1  0
  3  2  1  6
  3  4  1  0
  4  5  1  0
  5  6  1  0
  6  7  1  0
  5  8  1  0
  8  9  1  6
  9 10  1  0
 10 11  2  0
 10 12  1  0
 12 13  1  0
 13 14  1  0
 14 15  1  0
 15 16  1  0
 16 17  2  0
 16 18  2  0
 16 19  1  0
 19 20  1  0
 20 21  1  0
 21 22  1  0
 22 23  1  0
 23 24  1  0
 15 25  1  0
 25 26  1  0
  8  3  1  0
 26 12  1  0
  7  5  1  0
 24 19  1  0
M  END
>  <energy_score>  (4222) 
-16.509638

>  <inchikey>  (4222) 
REICCVITQWBZQR-UHFFFAOYSA-N

>  <smiles>  (4222) 
COC1CC2(CC2)C1OC(=O)C1CCN(S(=O)(=O)N2CCCCC2)CC1

>  <ref_pdb>  (4222) 
A0875a

>  <alias>  (4222) 
REICCVITQWBZQR-UHFFFAOYSA-N-P439-P87-P439-601505

>  <HIPPO Pose ID>  (4222) 
508003

>  <name>  (4222) 
REICCVITQWBZQR-UHFFFAOYSA-N-P439-P87-P439-601505

>  <HIPPO Compound ID>  (4222) 
314537

>  <ref_mols>  (4222) 
A4706a,A0875a

>  <distance_score>  (4222) 
1.934443

>  <inspiration_score>  (4222) 
None

$$$$
PANCYFVZYSIZTR-UHFFFAOYSA-N-P439-P87-P439-601505
     RDKit          3D

 26 29  0  0  0  0  0  0  0  0999 V2000
    5.8894   14.3815   22.3181 O   0  0  0  0  0  0  0  0  0  0  0  0
    6.5143   14.8239   23.2812 C   0  0  0  0  0  0  0  0  0  0  0  0
    7.7031   15.4868   23.1748 O   0  0  0  0  0  0  0  0  0  0  0  0
    8.1973   15.6440   21.8283 C   0  0  2  0  0  0  0  0  0  0  0  0
    8.4948   14.3189   21.1417 C   0  0  0  0  0  0  0  0  0  0  0  0
    9.8159   14.3891   20.4690 N   0  0  0  0  0  0  0  0  0  0  0  0
   10.8999   13.9896   21.4126 C   0  0  0  0  0  0  0  0  0  0  0  0
   11.4587   15.1125   22.2874 C   0  0  0  0  0  0  0  0  0  0  0  0
   10.4575   16.0382   22.6581 O   0  0  0  0  0  0  0  0  0  0  0  0
    9.5351   16.3675   21.6056 C   0  0  1  0  0  0  0  0  0  0  0  0
    9.9763   15.8256   20.2387 C   0  0  0  0  0  0  0  0  0  0  0  0
    5.9986   14.6219   24.7207 C   0  0  0  0  0  0  0  0  0  0  0  0
    5.8432   13.1114   25.0464 C   0  0  0  0  0  0  0  0  0  0  0  0
    6.8268   12.4884   26.0447 C   0  0  0  0  0  0  0  0  0  0  0  0
    7.9660   13.3870   26.3135 N   0  0  0  0  0  0  0  0  0  0  0  0
    9.1214   13.4825   25.0870 S   0  0  0  0  0  0  0  0  0  0  0  0
    9.6635   14.8134   25.0725 O   0  0  0  0  0  0  0  0  0  0  0  0
    8.5327   12.8409   23.9386 O   0  0  0  0  0  0  0  0  0  0  0  0
   10.2951   12.4286   25.6865 N   0  0  0  0  0  0  0  0  0  0  0  0
   11.5636   13.0738   26.0947 C   0  0  0  0  0  0  0  0  0  0  0  0
   12.6880   12.6266   25.1872 C   0  0  0  0  0  0  0  0  0  0  0  0
   12.9049   11.1502   25.4312 C   0  0  0  0  0  0  0  0  0  0  0  0
   11.5980   10.3271   25.2584 C   0  0  0  0  0  0  0  0  0  0  0  0
   10.3783   11.1634   24.9080 C   0  0  0  0  0  0  0  0  0  0  0  0
    7.4824   14.6734   26.8480 C   0  0  0  0  0  0  0  0  0  0  0  0
    6.6845   15.4550   25.8110 C   0  0  0  0  0  0  0  0  0  0  0  0
  1  2  2  0
  2  3  1  0
  4  3  1  1
  4  5  1  0
  5  6  1  0
  6  7  1  0
  7  8  1  0
  8  9  1  0
 10  9  1  1
 10 11  1  0
  2 12  1  0
 12 13  1  0
 13 14  1  0
 14 15  1  0
 15 16  1  0
 16 17  2  0
 16 18  2  0
 16 19  1  0
 19 20  1  0
 20 21  1  0
 21 22  1  0
 22 23  1  0
 23 24  1  0
 15 25  1  0
 25 26  1  0
 10  4  1  0
 26 12  1  0
 11  6  1  0
 24 19  1  0
M  END
>  <energy_score>  (4223) 
-42.32006

>  <inchikey>  (4223) 
PANCYFVZYSIZTR-UHFFFAOYSA-N

>  <smiles>  (4223) 
O=C(OC1CN2CCOC1C2)C1CCN(S(=O)(=O)N2CCCCC2)CC1

>  <ref_pdb>  (4223) 
A0875a

>  <alias>  (4223) 
PANCYFVZYSIZTR-UHFFFAOYSA-N-P439-P87-P439-601505

>  <HIPPO Pose ID>  (4223) 
508005

>  <name>  (4223) 
PANCYFVZYSIZTR-UHFFFAOYSA-N-P439-P87-P439-601505

>  <HIPPO Compound ID>  (4223) 
314538

>  <ref_mols>  (4223) 
A4706a,A0875a

>  <distance_score>  (4223) 
1.592859

>  <inspiration_score>  (4223) 
None

$$$$
DNCYGCPPPOSGKF-UHFFFAOYSA-N-P439-P87-P439-601505
     RDKit          3D

 26 28  0  0  0  0  0  0  0  0999 V2000
    9.2559   16.9719   20.5593 C   0  0  0  0  0  0  0  0  0  0  0  0
   10.0563   15.6987   20.6777 C   0  0  0  0  0  0  0  0  0  0  0  0
   10.4699   15.2391   19.2785 C   0  0  0  0  0  0  0  0  0  0  0  0
   11.2874   16.0498   21.3509 O   0  0  0  0  0  0  0  0  0  0  0  0
   11.2839   15.4236   22.6286 C   0  0  0  0  0  0  0  0  0  0  0  0
   10.5522   14.1203   22.4166 C   0  0  2  0  0  0  0  0  0  0  0  0
   11.5321   13.2044   21.8493 N   0  0  0  0  0  0  0  0  0  0  0  0
    9.3897   14.5745   21.5222 C   0  0  1  0  0  0  0  0  0  0  0  0
    8.2941   14.9935   22.4213 O   0  0  0  0  0  0  0  0  0  0  0  0
    7.3144   14.0787   22.6421 C   0  0  0  0  0  0  0  0  0  0  0  0
    7.1393   13.0983   21.9188 O   0  0  0  0  0  0  0  0  0  0  0  0
    6.4312   14.2002   23.8960 C   0  0  0  0  0  0  0  0  0  0  0  0
    6.5611   12.8593   24.6744 C   0  0  0  0  0  0  0  0  0  0  0  0
    6.9090   12.9042   26.1513 C   0  0  0  0  0  0  0  0  0  0  0  0
    7.5586   14.1502   26.5551 N   0  0  0  0  0  0  0  0  0  0  0  0
    9.1577   14.5596   26.2785 S   0  0  0  0  0  0  0  0  0  0  0  0
    9.3070   14.9018   24.8901 O   0  0  0  0  0  0  0  0  0  0  0  0
    9.5020   15.5613   27.2561 O   0  0  0  0  0  0  0  0  0  0  0  0
   10.1612   13.2193   26.5496 N   0  0  0  0  0  0  0  0  0  0  0  0
   11.5710   13.7071   26.6637 C   0  0  0  0  0  0  0  0  0  0  0  0
   12.6242   12.6368   26.5177 C   0  0  0  0  0  0  0  0  0  0  0  0
   12.4539   11.9805   25.1806 C   0  0  0  0  0  0  0  0  0  0  0  0
   11.0698   11.3751   25.0314 C   0  0  0  0  0  0  0  0  0  0  0  0
    9.9047   12.0858   25.6502 C   0  0  0  0  0  0  0  0  0  0  0  0
    6.6237   15.2696   26.2515 C   0  0  0  0  0  0  0  0  0  0  0  0
    6.4991   15.4752   24.7391 C   0  0  0  0  0  0  0  0  0  0  0  0
  1  2  1  0
  2  3  1  0
  2  4  1  0
  4  5  1  0
  5  6  1  0
  6  7  1  6
  6  8  1  0
  8  9  1  1
  9 10  1  0
 10 11  2  0
 10 12  1  0
 12 13  1  0
 13 14  1  0
 14 15  1  0
 15 16  1  0
 16 17  2  0
 16 18  2  0
 16 19  1  0
 19 20  1  0
 20 21  1  0
 21 22  1  0
 22 23  1  0
 23 24  1  0
 15 25  1  0
 25 26  1  0
  8  2  1  0
 26 12  1  0
 24 19  1  0
M  END
>  <energy_score>  (4224) 
-19.066352

>  <inchikey>  (4224) 
DNCYGCPPPOSGKF-UHFFFAOYSA-N

>  <smiles>  (4224) 
CC1(C)OCC(N)C1OC(=O)C1CCN(S(=O)(=O)N2CCCCC2)CC1

>  <ref_pdb>  (4224) 
A0875a

>  <alias>  (4224) 
DNCYGCPPPOSGKF-UHFFFAOYSA-N-P439-P87-P439-601505

>  <HIPPO Pose ID>  (4224) 
508007

>  <name>  (4224) 
DNCYGCPPPOSGKF-UHFFFAOYSA-N-P439-P87-P439-601505

>  <HIPPO Compound ID>  (4224) 
314539

>  <ref_mols>  (4224) 
A4706a,A0875a

>  <distance_score>  (4224) 
1.757498

>  <inspiration_score>  (4224) 
None

$$$$
WMSQCHGVFDBAHU-UHFFFAOYSA-N-P87-P87-P439-601505
     RDKit          3D

 26 28  0  0  0  0  0  0  0  0999 V2000
   18.6787   10.6454   27.7764 C   0  0  0  0  0  0  0  0  0  0  0  0
   17.2296   10.1397   27.7176 C   0  0  0  0  0  0  0  0  0  0  0  0
   16.8875    9.5392   29.0975 C   0  0  0  0  0  0  0  0  0  0  0  0
   17.1743    9.0466   26.7374 N   0  0  0  0  0  0  0  0  0  0  0  0
   16.2056   11.2634   27.3527 C   0  0  0  0  0  0  0  0  0  0  0  0
   14.9518   10.7091   26.7951 O   0  0  0  0  0  0  0  0  0  0  0  0
   14.8285   10.7008   25.4365 C   0  0  0  0  0  0  0  0  0  0  0  0
   15.7422   10.4786   24.6595 O   0  0  0  0  0  0  0  0  0  0  0  0
   13.4148   11.1163   24.9933 C   0  0  0  0  0  0  0  0  0  0  0  0
   13.0533   12.2800   25.8629 C   0  0  0  0  0  0  0  0  0  0  0  0
   11.8909   13.0236   25.3114 C   0  0  0  0  0  0  0  0  0  0  0  0
   10.6734   12.1640   25.1288 N   0  0  0  0  0  0  0  0  0  0  0  0
    9.4408   13.2787   24.7927 S   0  0  0  0  0  0  0  0  0  0  0  0
    9.8252   14.0195   23.6164 O   0  0  0  0  0  0  0  0  0  0  0  0
    9.3308   13.9075   26.0827 O   0  0  0  0  0  0  0  0  0  0  0  0
    7.9674   12.5338   24.4986 N   0  0  0  0  0  0  0  0  0  0  0  0
    7.4534   11.6037   25.4997 C   0  0  0  0  0  0  0  0  0  0  0  0
    6.7301   12.2750   26.6467 C   0  0  0  0  0  0  0  0  0  0  0  0
    5.6150   13.2066   26.2546 C   0  0  0  0  0  0  0  0  0  0  0  0
    5.6844   13.7574   24.8443 C   0  0  0  0  0  0  0  0  0  0  0  0
    6.9224   13.4970   23.9734 C   0  0  0  0  0  0  0  0  0  0  0  0
   10.9237   11.0160   24.2457 C   0  0  0  0  0  0  0  0  0  0  0  0
   12.1614   10.1910   24.7771 C   0  0  0  0  0  0  0  0  0  0  0  0
   16.6933   12.6085   26.7027 C   0  0  0  0  0  0  0  0  0  0  0  0
   15.8984   13.3710   27.6537 O   0  0  0  0  0  0  0  0  0  0  0  0
   15.9033   12.2330   28.5476 C   0  0  0  0  0  0  0  0  0  0  0  0
  1  2  1  0
  2  3  1  0
  2  4  1  0
  2  5  1  0
  5  6  1  0
  6  7  1  0
  7  8  2  0
  7  9  1  0
  9 10  1  0
 10 11  1  0
 11 12  1  0
 12 13  1  0
 13 14  2  0
 13 15  2  0
 13 16  1  0
 16 17  1  0
 17 18  1  0
 18 19  1  0
 19 20  1  0
 20 21  1  0
 12 22  1  0
 22 23  1  0
  5 24  1  0
 24 25  1  0
 25 26  1  0
 26  5  1  0
 23  9  1  0
 21 16  1  0
M  END
>  <energy_score>  (4225) 
-39.181814

>  <inchikey>  (4225) 
WMSQCHGVFDBAHU-UHFFFAOYSA-N

>  <smiles>  (4225) 
CC(C)(N)C1(OC(=O)C2CCN(S(=O)(=O)N3CCCCC3)CC2)COC1

>  <ref_pdb>  (4225) 
A0875a

>  <alias>  (4225) 
WMSQCHGVFDBAHU-UHFFFAOYSA-N-P87-P87-P439-601505

>  <HIPPO Pose ID>  (4225) 
508008

>  <name>  (4225) 
WMSQCHGVFDBAHU-UHFFFAOYSA-N-P87-P87-P439-601505

>  <HIPPO Compound ID>  (4225) 
314540

>  <ref_mols>  (4225) 
A4706a,A0875a

>  <distance_score>  (4225) 
1.100904

>  <inspiration_score>  (4225) 
None

$$$$
WMSQCHGVFDBAHU-UHFFFAOYSA-N-P439-P87-P439-601505
     RDKit          3D

 26 28  0  0  0  0  0  0  0  0999 V2000
   16.4122   12.1362   29.1871 C   0  0  0  0  0  0  0  0  0  0  0  0
   14.9314   11.9776   28.8080 C   0  0  0  0  0  0  0  0  0  0  0  0
   14.1534   13.2337   29.2483 C   0  0  0  0  0  0  0  0  0  0  0  0
   14.3942   10.8865   29.6317 N   0  0  0  0  0  0  0  0  0  0  0  0
   14.6978   11.7039   27.2804 C   0  0  0  0  0  0  0  0  0  0  0  0
   13.2567   11.7496   26.9964 O   0  0  0  0  0  0  0  0  0  0  0  0
   12.8340   11.2621   25.8042 C   0  0  0  0  0  0  0  0  0  0  0  0
   13.1142   10.1400   25.3989 O   0  0  0  0  0  0  0  0  0  0  0  0
   11.9038   12.1524   25.0563 C   0  0  0  0  0  0  0  0  0  0  0  0
   11.6841   13.5208   25.6879 C   0  0  0  0  0  0  0  0  0  0  0  0
   10.3419   13.5552   26.3699 C   0  0  0  0  0  0  0  0  0  0  0  0
    9.2758   13.2935   25.3779 N   0  0  0  0  0  0  0  0  0  0  0  0
    8.3573   14.6025   24.9051 S   0  0  0  0  0  0  0  0  0  0  0  0
    8.4693   14.7127   23.4731 O   0  0  0  0  0  0  0  0  0  0  0  0
    8.6967   15.6909   25.7875 O   0  0  0  0  0  0  0  0  0  0  0  0
    6.8273   14.0815   25.3006 N   0  0  0  0  0  0  0  0  0  0  0  0
    6.2916   12.7786   24.9021 C   0  0  0  0  0  0  0  0  0  0  0  0
    6.4263   11.7972   26.0709 C   0  0  0  0  0  0  0  0  0  0  0  0
    5.7426   12.3515   27.3217 C   0  0  0  0  0  0  0  0  0  0  0  0
    6.2516   13.7552   27.6512 C   0  0  0  0  0  0  0  0  0  0  0  0
    6.1269   14.6767   26.4472 C   0  0  0  0  0  0  0  0  0  0  0  0
    9.5794   12.3175   24.3099 C   0  0  0  0  0  0  0  0  0  0  0  0
   10.5915   11.3661   24.8590 C   0  0  0  0  0  0  0  0  0  0  0  0
   15.4481   12.6501   26.3137 C   0  0  0  0  0  0  0  0  0  0  0  0
   15.6278   11.5587   25.3769 O   0  0  0  0  0  0  0  0  0  0  0  0
   15.5962   10.6532   26.5188 C   0  0  0  0  0  0  0  0  0  0  0  0
  1  2  1  0
  2  3  1  0
  2  4  1  0
  2  5  1  0
  5  6  1  0
  6  7  1  0
  7  8  2  0
  7  9  1  0
  9 10  1  0
 10 11  1  0
 11 12  1  0
 12 13  1  0
 13 14  2  0
 13 15  2  0
 13 16  1  0
 16 17  1  0
 17 18  1  0
 18 19  1  0
 19 20  1  0
 20 21  1  0
 12 22  1  0
 22 23  1  0
  5 24  1  0
 24 25  1  0
 25 26  1  0
 26  5  1  0
 23  9  1  0
 21 16  1  0
M  END
>  <energy_score>  (4226) 
-58.37664

>  <inchikey>  (4226) 
WMSQCHGVFDBAHU-UHFFFAOYSA-N

>  <smiles>  (4226) 
CC(C)(N)C1(OC(=O)C2CCN(S(=O)(=O)N3CCCCC3)CC2)COC1

>  <ref_pdb>  (4226) 
A0875a

>  <alias>  (4226) 
WMSQCHGVFDBAHU-UHFFFAOYSA-N-P439-P87-P439-601505

>  <HIPPO Pose ID>  (4226) 
508009

>  <name>  (4226) 
WMSQCHGVFDBAHU-UHFFFAOYSA-N-P439-P87-P439-601505

>  <HIPPO Compound ID>  (4226) 
314540

>  <ref_mols>  (4226) 
A4706a,A0875a

>  <distance_score>  (4226) 
1.867184

>  <inspiration_score>  (4226) 
None

$$$$
NGILFOSLAFMVLU-UHFFFAOYSA-N-P439-P87-P439-601505
     RDKit          3D

 26 27  0  0  0  0  0  0  0  0999 V2000
    7.2233   14.3170   21.3526 C   0  0  0  0  0  0  0  0  0  0  0  0
    7.7492   15.5859   21.9933 C   0  0  1  0  0  0  0  0  0  0  0  0
    7.4495   15.4504   23.4100 O   0  0  0  0  0  0  0  0  0  0  0  0
    6.1347   15.4244   23.7752 C   0  0  0  0  0  0  0  0  0  0  0  0
    5.1980   15.7852   23.0697 O   0  0  0  0  0  0  0  0  0  0  0  0
    5.9159   14.7816   25.1505 C   0  0  0  0  0  0  0  0  0  0  0  0
    5.9872   13.2391   25.0212 C   0  0  0  0  0  0  0  0  0  0  0  0
    6.9264   12.5132   25.9796 C   0  0  0  0  0  0  0  0  0  0  0  0
    8.0850   13.3581   26.3260 N   0  0  0  0  0  0  0  0  0  0  0  0
    9.2077   13.6455   25.0874 S   0  0  0  0  0  0  0  0  0  0  0  0
    8.7559   12.8697   23.9587 O   0  0  0  0  0  0  0  0  0  0  0  0
    9.4811   15.0585   25.0543 O   0  0  0  0  0  0  0  0  0  0  0  0
   10.5557   12.8806   25.7480 N   0  0  0  0  0  0  0  0  0  0  0  0
   10.8064   11.5375   25.1961 C   0  0  0  0  0  0  0  0  0  0  0  0
   12.2040   11.0875   25.6032 C   0  0  0  0  0  0  0  0  0  0  0  0
   13.3456   11.9320   25.1478 C   0  0  0  0  0  0  0  0  0  0  0  0
   12.8251   13.3207   24.8871 C   0  0  0  0  0  0  0  0  0  0  0  0
   11.7679   13.7222   25.9072 C   0  0  0  0  0  0  0  0  0  0  0  0
    7.6401   14.5409   27.0849 C   0  0  0  0  0  0  0  0  0  0  0  0
    6.7632   15.4553   26.2382 C   0  0  0  0  0  0  0  0  0  0  0  0
    9.2766   15.8887   21.6828 C   0  0  2  0  0  0  0  0  0  0  0  0
    9.6280   16.1031   20.1995 C   0  0  0  0  0  0  0  0  0  0  0  0
   10.2440   15.0750   22.3571 O   0  0  0  0  0  0  0  0  0  0  0  0
   10.6716   13.9690   21.6124 C   0  0  0  0  0  0  0  0  0  0  0  0
    9.6142   13.5152   20.9188 F   0  0  0  0  0  0  0  0  0  0  0  0
   11.0297   12.9925   22.4682 F   0  0  0  0  0  0  0  0  0  0  0  0
  2  1  1  6
  2  3  1  0
  3  4  1  0
  4  5  2  0
  4  6  1  0
  6  7  1  0
  7  8  1  0
  8  9  1  0
  9 10  1  0
 10 11  2  0
 10 12  2  0
 10 13  1  0
 13 14  1  0
 14 15  1  0
 15 16  1  0
 16 17  1  0
 17 18  1  0
  9 19  1  0
 19 20  1  0
  2 21  1  0
 21 22  1  6
 21 23  1  0
 23 24  1  0
 24 25  1  0
 24 26  1  0
 20  6  1  0
 18 13  1  0
M  END
>  <energy_score>  (4227) 
-16.621832

>  <inchikey>  (4227) 
NGILFOSLAFMVLU-UHFFFAOYSA-N

>  <smiles>  (4227) 
CC(OC(=O)C1CCN(S(=O)(=O)N2CCCCC2)CC1)C(C)OC(F)F

>  <ref_pdb>  (4227) 
A0875a

>  <alias>  (4227) 
NGILFOSLAFMVLU-UHFFFAOYSA-N-P439-P87-P439-601505

>  <HIPPO Pose ID>  (4227) 
508011

>  <name>  (4227) 
NGILFOSLAFMVLU-UHFFFAOYSA-N-P439-P87-P439-601505

>  <HIPPO Compound ID>  (4227) 
314541

>  <ref_mols>  (4227) 
A4706a,A0875a

>  <distance_score>  (4227) 
1.64809

>  <inspiration_score>  (4227) 
None

$$$$
GRQPEDLCRWQJHL-UHFFFAOYSA-N-P439-P87-P439-601505
     RDKit          3D

 26 29  0  0  0  0  0  0  0  0999 V2000
    7.4920   13.2601   22.2082 O   0  0  0  0  0  0  0  0  0  0  0  0
    7.5721   14.2301   22.9602 C   0  0  0  0  0  0  0  0  0  0  0  0
    8.4603   15.2455   22.8282 O   0  0  0  0  0  0  0  0  0  0  0  0
    9.2371   15.5148   21.6196 C   0  0  2  0  0  0  0  0  0  0  0  0
    8.8302   14.7728   20.3809 C   0  0  0  0  0  0  0  0  0  0  0  0
    9.8353   15.2681   19.3522 C   0  0  0  0  0  0  0  0  0  0  0  0
   11.0424   15.2974   20.1036 O   0  0  0  0  0  0  0  0  0  0  0  0
   10.7203   15.1417   21.5223 C   0  0  0  0  0  0  0  0  0  0  0  0
   11.7635   15.7242   22.4461 C   0  0  0  0  0  0  0  0  0  0  0  0
   11.7583   14.4915   23.2403 N   0  0  0  0  0  0  0  0  0  0  0  0
   11.1605   13.7825   22.1015 C   0  0  0  0  0  0  0  0  0  0  0  0
    6.5579   14.3691   24.1145 C   0  0  0  0  0  0  0  0  0  0  0  0
    6.2303   12.9595   24.6454 C   0  0  0  0  0  0  0  0  0  0  0  0
    7.4495   12.3618   25.3458 C   0  0  0  0  0  0  0  0  0  0  0  0
    8.0341   13.2934   26.3423 N   0  0  0  0  0  0  0  0  0  0  0  0
    9.6229   13.8230   26.1791 S   0  0  0  0  0  0  0  0  0  0  0  0
    9.8939   14.6158   27.3536 O   0  0  0  0  0  0  0  0  0  0  0  0
    9.7673   14.4223   24.8820 O   0  0  0  0  0  0  0  0  0  0  0  0
   10.6624   12.5006   26.2398 N   0  0  0  0  0  0  0  0  0  0  0  0
   12.0484   12.9259   26.6328 C   0  0  0  0  0  0  0  0  0  0  0  0
   13.1049   12.5617   25.6284 C   0  0  0  0  0  0  0  0  0  0  0  0
   13.1300   11.0786   25.3654 C   0  0  0  0  0  0  0  0  0  0  0  0
   11.7106   10.4545   25.2786 C   0  0  0  0  0  0  0  0  0  0  0  0
   10.6006   11.4933   25.1507 C   0  0  0  0  0  0  0  0  0  0  0  0
    7.1217   14.4579   26.6066 C   0  0  0  0  0  0  0  0  0  0  0  0
    6.8978   15.2620   25.3140 C   0  0  0  0  0  0  0  0  0  0  0  0
  1  2  2  0
  2  3  1  0
  4  3  1  1
  4  5  1  0
  5  6  1  0
  6  7  1  0
  7  8  1  0
  8  9  1  0
  9 10  1  0
 10 11  1  0
  2 12  1  0
 12 13  1  0
 13 14  1  0
 14 15  1  0
 15 16  1  0
 16 17  2  0
 16 18  2  0
 16 19  1  0
 19 20  1  0
 20 21  1  0
 21 22  1  0
 22 23  1  0
 23 24  1  0
 15 25  1  0
 25 26  1  0
  8  4  1  0
 26 12  1  0
 11  8  1  0
 24 19  1  0
M  END
>  <energy_score>  (4228) 
-14.016313

>  <inchikey>  (4228) 
GRQPEDLCRWQJHL-UHFFFAOYSA-N

>  <smiles>  (4228) 
O=C(OC1CCOC12CNC2)C1CCN(S(=O)(=O)N2CCCCC2)CC1

>  <ref_pdb>  (4228) 
A0875a

>  <alias>  (4228) 
GRQPEDLCRWQJHL-UHFFFAOYSA-N-P439-P87-P439-601505

>  <HIPPO Pose ID>  (4228) 
508015

>  <name>  (4228) 
GRQPEDLCRWQJHL-UHFFFAOYSA-N-P439-P87-P439-601505

>  <HIPPO Compound ID>  (4228) 
314543

>  <ref_mols>  (4228) 
A4706a,A0875a

>  <distance_score>  (4228) 
1.253674

>  <inspiration_score>  (4228) 
None

$$$$
PQLVDYZOAWUPCM-UHFFFAOYSA-N-P439-P87-P439-601505
     RDKit          3D

 26 28  0  0  0  0  0  0  0  0999 V2000
    8.5864   14.0417   20.9072 C   0  0  0  0  0  0  0  0  0  0  0  0
    9.7504   14.9441   21.0309 C   0  0  2  0  0  0  0  0  0  0  0  0
   10.2161   15.4769   19.6495 C   0  0  0  0  0  0  0  0  0  0  0  0
   10.6683   14.4382   18.7326 N   0  0  0  0  0  0  0  0  0  0  0  0
   10.8323   14.1480   21.5850 O   0  0  0  0  0  0  0  0  0  0  0  0
   11.7301   15.0519   22.1697 C   0  0  0  0  0  0  0  0  0  0  0  0
   10.8849   16.2134   22.5936 C   0  0  0  0  0  0  0  0  0  0  0  0
    9.4746   16.0437   22.0304 C   0  0  2  0  0  0  0  0  0  0  0  0
    8.5295   15.6558   23.0924 O   0  0  0  0  0  0  0  0  0  0  0  0
    7.1888   15.7570   22.8860 C   0  0  0  0  0  0  0  0  0  0  0  0
    6.7107   16.1542   21.8354 O   0  0  0  0  0  0  0  0  0  0  0  0
    6.2750   15.2644   24.0283 C   0  0  0  0  0  0  0  0  0  0  0  0
    6.0710   13.7324   24.0003 C   0  0  0  0  0  0  0  0  0  0  0  0
    6.5596   12.9535   25.2169 C   0  0  0  0  0  0  0  0  0  0  0  0
    7.5664   13.7257   25.9644 N   0  0  0  0  0  0  0  0  0  0  0  0
    9.0757   13.9278   25.2394 S   0  0  0  0  0  0  0  0  0  0  0  0
    9.0470   13.2890   23.9520 O   0  0  0  0  0  0  0  0  0  0  0  0
    9.5530   15.2634   25.4764 O   0  0  0  0  0  0  0  0  0  0  0  0
    9.9566   12.9138   26.2129 N   0  0  0  0  0  0  0  0  0  0  0  0
   11.3007   13.4096   26.5802 C   0  0  0  0  0  0  0  0  0  0  0  0
   12.3196   13.0585   25.5249 C   0  0  0  0  0  0  0  0  0  0  0  0
   12.3754   11.5663   25.4394 C   0  0  0  0  0  0  0  0  0  0  0  0
   11.0046   11.0121   25.0326 C   0  0  0  0  0  0  0  0  0  0  0  0
    9.8051   11.5176   25.7848 C   0  0  0  0  0  0  0  0  0  0  0  0
    6.9591   14.9429   26.5187 C   0  0  0  0  0  0  0  0  0  0  0  0
    6.5573   15.8956   25.4001 C   0  0  0  0  0  0  0  0  0  0  0  0
  2  1  1  6
  2  3  1  0
  3  4  1  0
  2  5  1  0
  5  6  1  0
  6  7  1  0
  7  8  1  0
  8  9  1  1
  9 10  1  0
 10 11  2  0
 10 12  1  0
 12 13  1  0
 13 14  1  0
 14 15  1  0
 15 16  1  0
 16 17  2  0
 16 18  2  0
 16 19  1  0
 19 20  1  0
 20 21  1  0
 21 22  1  0
 22 23  1  0
 23 24  1  0
 15 25  1  0
 25 26  1  0
  8  2  1  0
 26 12  1  0
 24 19  1  0
M  END
>  <energy_score>  (4229) 
-53.359907

>  <inchikey>  (4229) 
PQLVDYZOAWUPCM-UHFFFAOYSA-N

>  <smiles>  (4229) 
CC1(CN)OCCC1OC(=O)C1CCN(S(=O)(=O)N2CCCCC2)CC1

>  <ref_pdb>  (4229) 
A0875a

>  <alias>  (4229) 
PQLVDYZOAWUPCM-UHFFFAOYSA-N-P439-P87-P439-601505

>  <HIPPO Pose ID>  (4229) 
508019

>  <name>  (4229) 
PQLVDYZOAWUPCM-UHFFFAOYSA-N-P439-P87-P439-601505

>  <HIPPO Compound ID>  (4229) 
314545

>  <ref_mols>  (4229) 
A4706a,A0875a

>  <distance_score>  (4229) 
1.778172

>  <inspiration_score>  (4229) 
None

$$$$
GDZJNSBVUVVBIY-UHFFFAOYSA-N-P439-P87-P439-601505
     RDKit          3D

 27 29  0  0  0  0  0  0  0  0999 V2000
    8.2950   18.8583   19.8663 C   0  0  0  0  0  0  0  0  0  0  0  0
    9.0445   17.6494   20.0835 O   0  0  0  0  0  0  0  0  0  0  0  0
    8.5621   17.0416   21.2722 C   0  0  0  0  0  0  0  0  0  0  0  0
    9.0529   15.6443   21.7205 C   0  0  0  0  0  0  0  0  0  0  0  0
    8.0733   15.3000   22.8036 O   0  0  0  0  0  0  0  0  0  0  0  0
    6.9653   14.5284   22.7170 C   0  0  0  0  0  0  0  0  0  0  0  0
    6.6282   13.8818   21.7317 O   0  0  0  0  0  0  0  0  0  0  0  0
    6.1195   14.5263   24.0233 C   0  0  0  0  0  0  0  0  0  0  0  0
    5.7977   13.0998   24.5194 C   0  0  0  0  0  0  0  0  0  0  0  0
    6.7670   12.4389   25.5109 C   0  0  0  0  0  0  0  0  0  0  0  0
    7.7696   13.4056   26.0071 N   0  0  0  0  0  0  0  0  0  0  0  0
    9.1431   13.5592   25.0458 S   0  0  0  0  0  0  0  0  0  0  0  0
    8.8545   12.8891   23.8037 O   0  0  0  0  0  0  0  0  0  0  0  0
    9.6003   14.9246   25.1367 O   0  0  0  0  0  0  0  0  0  0  0  0
   10.2288   12.6141   25.8780 N   0  0  0  0  0  0  0  0  0  0  0  0
   10.5823   11.3169   25.2563 C   0  0  0  0  0  0  0  0  0  0  0  0
   12.0678   11.0514   25.4540 C   0  0  0  0  0  0  0  0  0  0  0  0
   12.8418   12.1835   24.8632 C   0  0  0  0  0  0  0  0  0  0  0  0
   12.5654   13.3996   25.7037 C   0  0  0  0  0  0  0  0  0  0  0  0
   11.3103   13.3437   26.5570 C   0  0  0  0  0  0  0  0  0  0  0  0
    7.1161   14.6709   26.4032 C   0  0  0  0  0  0  0  0  0  0  0  0
    6.5741   15.4229   25.1861 C   0  0  0  0  0  0  0  0  0  0  0  0
    9.1213   14.6870   20.5404 C   0  0  0  0  0  0  0  0  0  0  0  0
   10.3366   14.9321   19.6407 C   0  0  0  0  0  0  0  0  0  0  0  0
   11.5586   14.6844   20.3970 N   0  0  0  0  0  0  0  0  0  0  0  0
   11.6490   15.5684   21.5447 C   0  0  0  0  0  0  0  0  0  0  0  0
   10.4240   15.5131   22.4199 C   0  0  0  0  0  0  0  0  0  0  0  0
  1  2  1  0
  2  3  1  0
  3  4  1  0
  4  5  1  0
  5  6  1  0
  6  7  2  0
  6  8  1  0
  8  9  1  0
  9 10  1  0
 10 11  1  0
 11 12  1  0
 12 13  2  0
 12 14  2  0
 12 15  1  0
 15 16  1  0
 16 17  1  0
 17 18  1  0
 18 19  1  0
 19 20  1  0
 11 21  1  0
 21 22  1  0
  4 23  1  0
 23 24  1  0
 24 25  1  0
 25 26  1  0
 26 27  1  0
 27  4  1  0
 22  8  1  0
 20 15  1  0
M  END
>  <energy_score>  (4230) 
-21.494514

>  <inchikey>  (4230) 
GDZJNSBVUVVBIY-UHFFFAOYSA-N

>  <smiles>  (4230) 
COCC1(OC(=O)C2CCN(S(=O)(=O)N3CCCCC3)CC2)CCNCC1

>  <ref_pdb>  (4230) 
A0875a

>  <alias>  (4230) 
GDZJNSBVUVVBIY-UHFFFAOYSA-N-P439-P87-P439-601505

>  <HIPPO Pose ID>  (4230) 
508025

>  <name>  (4230) 
GDZJNSBVUVVBIY-UHFFFAOYSA-N-P439-P87-P439-601505

>  <HIPPO Compound ID>  (4230) 
314548

>  <ref_mols>  (4230) 
A4706a,A0875a

>  <distance_score>  (4230) 
1.57005

>  <inspiration_score>  (4230) 
None

$$$$
ALGWDGVCYSIONK-UHFFFAOYSA-N-P439-P87-P439-601505
     RDKit          3D

 27 28  0  0  0  0  0  0  0  0999 V2000
   10.1656   13.4161   21.8354 C   0  0  0  0  0  0  0  0  0  0  0  0
   10.1271   14.6193   22.7315 C   0  0  1  0  0  0  0  0  0  0  0  0
   11.0146   15.7264   22.1833 C   0  0  0  0  0  0  0  0  0  0  0  0
   10.4319   16.6438   21.3055 O   0  0  0  0  0  0  0  0  0  0  0  0
    9.5862   16.1657   20.2844 C   0  0  0  0  0  0  0  0  0  0  0  0
   10.1826   15.4971   19.0521 C   0  0  0  0  0  0  0  0  0  0  0  0
   10.8680   14.3702   19.2954 F   0  0  0  0  0  0  0  0  0  0  0  0
   10.9848   16.3083   18.3531 F   0  0  0  0  0  0  0  0  0  0  0  0
    9.1454   15.1965   18.2381 F   0  0  0  0  0  0  0  0  0  0  0  0
    8.8251   15.0244   23.2825 O   0  0  0  0  0  0  0  0  0  0  0  0
    7.7251   14.2084   23.2157 C   0  0  0  0  0  0  0  0  0  0  0  0
    7.4440   13.4937   22.2535 O   0  0  0  0  0  0  0  0  0  0  0  0
    6.8250   14.1876   24.4912 C   0  0  0  0  0  0  0  0  0  0  0  0
    6.5994   12.7392   25.0230 C   0  0  0  0  0  0  0  0  0  0  0  0
    7.4686   12.2357   26.2006 C   0  0  0  0  0  0  0  0  0  0  0  0
    8.4106   13.2803   26.7115 N   0  0  0  0  0  0  0  0  0  0  0  0
    9.7757   13.4920   25.7667 S   0  0  0  0  0  0  0  0  0  0  0  0
    9.4439   12.7889   24.5540 O   0  0  0  0  0  0  0  0  0  0  0  0
   10.1048   14.8956   25.7938 O   0  0  0  0  0  0  0  0  0  0  0  0
   11.1262   12.6442   26.3695 N   0  0  0  0  0  0  0  0  0  0  0  0
   12.0982   13.5156   27.0894 C   0  0  0  0  0  0  0  0  0  0  0  0
   13.5603   13.0996   26.9129 C   0  0  0  0  0  0  0  0  0  0  0  0
   13.7545   11.6349   26.8385 C   0  0  0  0  0  0  0  0  0  0  0  0
   13.0992   11.2055   25.5409 C   0  0  0  0  0  0  0  0  0  0  0  0
   11.7437   11.8483   25.2578 C   0  0  0  0  0  0  0  0  0  0  0  0
    7.6210   14.5284   26.9396 C   0  0  0  0  0  0  0  0  0  0  0  0
    7.1421   15.1680   25.6272 C   0  0  0  0  0  0  0  0  0  0  0  0
  2  1  1  6
  2  3  1  0
  3  4  1  0
  4  5  1  0
  5  6  1  0
  6  7  1  0
  6  8  1  0
  6  9  1  0
  2 10  1  0
 10 11  1  0
 11 12  2  0
 11 13  1  0
 13 14  1  0
 14 15  1  0
 15 16  1  0
 16 17  1  0
 17 18  2  0
 17 19  2  0
 17 20  1  0
 20 21  1  0
 21 22  1  0
 22 23  1  0
 23 24  1  0
 24 25  1  0
 16 26  1  0
 26 27  1  0
 27 13  1  0
 25 20  1  0
M  END
>  <energy_score>  (4231) 
-17.61032

>  <inchikey>  (4231) 
ALGWDGVCYSIONK-UHFFFAOYSA-N

>  <smiles>  (4231) 
CC(COCC(F)(F)F)OC(=O)C1CCN(S(=O)(=O)N2CCCCC2)CC1

>  <ref_pdb>  (4231) 
A0875a

>  <alias>  (4231) 
ALGWDGVCYSIONK-UHFFFAOYSA-N-P439-P87-P439-601505

>  <HIPPO Pose ID>  (4231) 
508027

>  <name>  (4231) 
ALGWDGVCYSIONK-UHFFFAOYSA-N-P439-P87-P439-601505

>  <HIPPO Compound ID>  (4231) 
314549

>  <ref_mols>  (4231) 
A4706a,A0875a

>  <distance_score>  (4231) 
1.622603

>  <inspiration_score>  (4231) 
None

$$$$
JUUPQQIOBVNYKH-UHFFFAOYSA-N-P439-P87-P439-601505
     RDKit          3D

 27 29  0  0  0  0  0  0  0  0999 V2000
    9.6622   15.3653   18.9451 C   0  0  0  0  0  0  0  0  0  0  0  0
    9.5724   14.4042   19.9934 O   0  0  0  0  0  0  0  0  0  0  0  0
    8.4785   14.5291   20.9104 C   0  0  0  0  0  0  0  0  0  0  0  0
    8.4857   15.7675   21.8285 C   0  0  1  0  0  0  0  0  0  0  0  0
    7.7265   15.5764   23.0829 O   0  0  0  0  0  0  0  0  0  0  0  0
    6.5446   14.9111   23.0565 C   0  0  0  0  0  0  0  0  0  0  0  0
    5.9867   14.5415   22.0253 O   0  0  0  0  0  0  0  0  0  0  0  0
    5.9074   14.5834   24.4266 C   0  0  0  0  0  0  0  0  0  0  0  0
    5.6879   13.0603   24.6014 C   0  0  0  0  0  0  0  0  0  0  0  0
    6.7088   12.2344   25.4032 C   0  0  0  0  0  0  0  0  0  0  0  0
    7.5592   13.0682   26.2865 N   0  0  0  0  0  0  0  0  0  0  0  0
    9.0099   13.5739   25.5882 S   0  0  0  0  0  0  0  0  0  0  0  0
    8.7997   13.5032   24.1649 O   0  0  0  0  0  0  0  0  0  0  0  0
    9.3812   14.7821   26.2887 O   0  0  0  0  0  0  0  0  0  0  0  0
   10.1914   12.4229   25.9545 N   0  0  0  0  0  0  0  0  0  0  0  0
   11.5350   13.0816   26.1111 C   0  0  0  0  0  0  0  0  0  0  0  0
   12.5530   12.5657   25.1181 C   0  0  0  0  0  0  0  0  0  0  0  0
   12.7292   11.1034   25.4152 C   0  0  0  0  0  0  0  0  0  0  0  0
   11.3923   10.3309   25.2458 C   0  0  0  0  0  0  0  0  0  0  0  0
   10.1735   11.2289   25.0561 C   0  0  0  0  0  0  0  0  0  0  0  0
    6.7577   14.2219   26.8107 C   0  0  0  0  0  0  0  0  0  0  0  0
    6.4531   15.2371   25.6966 C   0  0  0  0  0  0  0  0  0  0  0  0
    9.9599   15.9617   22.0998 C   0  0  0  0  0  0  0  0  0  0  0  0
   10.8229   16.3094   21.1654 N   0  0  0  0  0  0  0  0  0  0  0  0
   11.9993   15.6361   21.3653 C   0  0  0  0  0  0  0  0  0  0  0  0
   12.1253   15.1186   22.6176 C   0  0  0  0  0  0  0  0  0  0  0  0
   10.7301   15.4055   23.4932 S   0  0  0  0  0  0  0  0  0  0  0  0
  1  2  1  0
  2  3  1  0
  4  3  1  6
  4  5  1  0
  5  6  1  0
  6  7  2  0
  6  8  1  0
  8  9  1  0
  9 10  1  0
 10 11  1  0
 11 12  1  0
 12 13  2  0
 12 14  2  0
 12 15  1  0
 15 16  1  0
 16 17  1  0
 17 18  1  0
 18 19  1  0
 19 20  1  0
 11 21  1  0
 21 22  1  0
  4 23  1  0
 23 24  2  0
 24 25  1  0
 25 26  2  0
 26 27  1  0
 22  8  1  0
 27 23  1  0
 20 15  1  0
M  END
>  <energy_score>  (4232) 
-31.620168

>  <inchikey>  (4232) 
JUUPQQIOBVNYKH-UHFFFAOYSA-N

>  <smiles>  (4232) 
COCC(OC(=O)C1CCN(S(=O)(=O)N2CCCCC2)CC1)c1nccs1

>  <ref_pdb>  (4232) 
A0875a

>  <alias>  (4232) 
JUUPQQIOBVNYKH-UHFFFAOYSA-N-P439-P87-P439-601505

>  <HIPPO Pose ID>  (4232) 
508029

>  <name>  (4232) 
JUUPQQIOBVNYKH-UHFFFAOYSA-N-P439-P87-P439-601505

>  <HIPPO Compound ID>  (4232) 
314550

>  <ref_mols>  (4232) 
A4706a,A0875a

>  <distance_score>  (4232) 
1.66068

>  <inspiration_score>  (4232) 
None

$$$$
UDAUGGKZLKAKFC-UHFFFAOYSA-N-P439-P87-P439-601505
     RDKit          3D

 27 28  0  0  0  0  0  0  0  0999 V2000
   10.2831   15.5699   23.0889 C   0  0  0  0  0  0  0  0  0  0  0  0
    8.8377   15.5351   22.5376 C   0  0  1  0  0  0  0  0  0  0  0  0
    7.8235   15.6021   23.5640 O   0  0  0  0  0  0  0  0  0  0  0  0
    6.7960   14.7153   23.4046 C   0  0  0  0  0  0  0  0  0  0  0  0
    6.5638   14.1040   22.3610 O   0  0  0  0  0  0  0  0  0  0  0  0
    5.9731   14.4655   24.6784 C   0  0  0  0  0  0  0  0  0  0  0  0
    5.7308   12.9510   24.8561 C   0  0  0  0  0  0  0  0  0  0  0  0
    6.8965   12.1366   25.4370 C   0  0  0  0  0  0  0  0  0  0  0  0
    7.7623   12.9530   26.3248 N   0  0  0  0  0  0  0  0  0  0  0  0
    9.1862   13.5375   25.6412 S   0  0  0  0  0  0  0  0  0  0  0  0
    9.0473   13.4606   24.2129 O   0  0  0  0  0  0  0  0  0  0  0  0
    9.5265   14.7528   26.3392 O   0  0  0  0  0  0  0  0  0  0  0  0
   10.3904   12.4142   25.9878 N   0  0  0  0  0  0  0  0  0  0  0  0
   11.7176   13.1118   26.0518 C   0  0  0  0  0  0  0  0  0  0  0  0
   12.7214   12.5431   25.0821 C   0  0  0  0  0  0  0  0  0  0  0  0
   12.8816   11.0808   25.4091 C   0  0  0  0  0  0  0  0  0  0  0  0
   11.5415   10.3073   25.2733 C   0  0  0  0  0  0  0  0  0  0  0  0
   10.3353   11.2134   25.0950 C   0  0  0  0  0  0  0  0  0  0  0  0
    6.9601   14.0156   27.0043 C   0  0  0  0  0  0  0  0  0  0  0  0
    6.4742   15.0696   25.9979 C   0  0  0  0  0  0  0  0  0  0  0  0
    8.7822   16.6023   21.4422 C   0  0  0  0  0  0  0  0  0  0  0  0
    8.2198   17.6798   21.5231 O   0  0  0  0  0  0  0  0  0  0  0  0
    9.5202   16.2992   20.3455 O   0  0  0  0  0  0  0  0  0  0  0  0
    9.4246   14.9385   19.9564 C   0  0  0  0  0  0  0  0  0  0  0  0
   10.0308   14.7980   18.5929 C   0  0  0  0  0  0  0  0  0  0  0  0
   11.4458   15.2149   18.5215 C   0  0  0  0  0  0  0  0  0  0  0  0
   12.2949   14.6172   19.9400 Cl  0  0  0  0  0  0  0  0  0  0  0  0
  2  1  1  1
  2  3  1  0
  3  4  1  0
  4  5  2  0
  4  6  1  0
  6  7  1  0
  7  8  1  0
  8  9  1  0
  9 10  1  0
 10 11  2  0
 10 12  2  0
 10 13  1  0
 13 14  1  0
 14 15  1  0
 15 16  1  0
 16 17  1  0
 17 18  1  0
  9 19  1  0
 19 20  1  0
  2 21  1  0
 21 22  2  0
 21 23  1  0
 23 24  1  0
 24 25  1  0
 25 26  1  0
 26 27  1  0
 20  6  1  0
 18 13  1  0
M  END
>  <energy_score>  (4233) 
-7.757209

>  <inchikey>  (4233) 
UDAUGGKZLKAKFC-UHFFFAOYSA-N

>  <smiles>  (4233) 
CC(OC(=O)C1CCN(S(=O)(=O)N2CCCCC2)CC1)C(=O)OCCCCl

>  <ref_pdb>  (4233) 
A0875a

>  <alias>  (4233) 
UDAUGGKZLKAKFC-UHFFFAOYSA-N-P439-P87-P439-601505

>  <HIPPO Pose ID>  (4233) 
508033

>  <name>  (4233) 
UDAUGGKZLKAKFC-UHFFFAOYSA-N-P439-P87-P439-601505

>  <HIPPO Compound ID>  (4233) 
314552

>  <ref_mols>  (4233) 
A4706a,A0875a

>  <distance_score>  (4233) 
1.719025

>  <inspiration_score>  (4233) 
None

$$$$
LNNONBIZUZGNNO-UHFFFAOYSA-N-P87-P87-P439-601505
     RDKit          3D

 27 28  0  0  0  0  0  0  0  0999 V2000
   14.5908   10.0214   30.7710 C   0  0  0  0  0  0  0  0  0  0  0  0
   14.2726   11.1216   29.9125 O   0  0  0  0  0  0  0  0  0  0  0  0
   15.0023   11.1868   28.7599 C   0  0  0  0  0  0  0  0  0  0  0  0
   15.7893   10.3293   28.3866 O   0  0  0  0  0  0  0  0  0  0  0  0
   14.7594   12.5508   28.0671 C   0  0  2  0  0  0  0  0  0  0  0  0
   13.8957   12.6780   26.8814 O   0  0  0  0  0  0  0  0  0  0  0  0
   13.7918   11.7007   25.9584 C   0  0  0  0  0  0  0  0  0  0  0  0
   14.3569   10.6170   26.0498 O   0  0  0  0  0  0  0  0  0  0  0  0
   12.8759   11.9347   24.7486 C   0  0  0  0  0  0  0  0  0  0  0  0
   12.6143   13.3339   24.2992 C   0  0  0  0  0  0  0  0  0  0  0  0
   11.6665   13.4554   23.1143 C   0  0  0  0  0  0  0  0  0  0  0  0
   10.3593   12.8314   23.4279 N   0  0  0  0  0  0  0  0  0  0  0  0
    9.3629   13.7961   24.3763 S   0  0  0  0  0  0  0  0  0  0  0  0
    9.3126   15.0574   23.6809 O   0  0  0  0  0  0  0  0  0  0  0  0
    9.8427   13.6988   25.7384 O   0  0  0  0  0  0  0  0  0  0  0  0
    7.8630   13.0472   24.3092 N   0  0  0  0  0  0  0  0  0  0  0  0
    7.5493   11.9524   25.2222 C   0  0  0  0  0  0  0  0  0  0  0  0
    6.7592   12.4101   26.4225 C   0  0  0  0  0  0  0  0  0  0  0  0
    5.5678   13.2903   26.1254 C   0  0  0  0  0  0  0  0  0  0  0  0
    5.5208   13.9604   24.7556 C   0  0  0  0  0  0  0  0  0  0  0  0
    6.6991   13.8035   23.7798 C   0  0  0  0  0  0  0  0  0  0  0  0
   10.5332   11.4038   23.6649 C   0  0  0  0  0  0  0  0  0  0  0  0
   11.5348   11.1716   24.7934 C   0  0  0  0  0  0  0  0  0  0  0  0
   16.1517   13.2835   27.9303 C   0  0  0  0  0  0  0  0  0  0  0  0
   16.9001   12.8182   26.6746 C   0  0  0  0  0  0  0  0  0  0  0  0
   17.0649   13.0769   29.1604 C   0  0  0  0  0  0  0  0  0  0  0  0
   15.9908   14.7529   27.8994 N   0  0  0  0  0  0  0  0  0  0  0  0
  1  2  1  0
  2  3  1  0
  3  4  2  0
  3  5  1  0
  5  6  1  6
  6  7  1  0
  7  8  2  0
  7  9  1  0
  9 10  1  0
 10 11  1  0
 11 12  1  0
 12 13  1  0
 13 14  2  0
 13 15  2  0
 13 16  1  0
 16 17  1  0
 17 18  1  0
 18 19  1  0
 19 20  1  0
 20 21  1  0
 12 22  1  0
 22 23  1  0
  5 24  1  0
 24 25  1  0
 24 26  1  0
 24 27  1  0
 23  9  1  0
 21 16  1  0
M  END
>  <energy_score>  (4234) 
-53.294488

>  <inchikey>  (4234) 
LNNONBIZUZGNNO-UHFFFAOYSA-N

>  <smiles>  (4234) 
COC(=O)C(OC(=O)C1CCN(S(=O)(=O)N2CCCCC2)CC1)C(C)(C)N

>  <ref_pdb>  (4234) 
A0875a

>  <alias>  (4234) 
LNNONBIZUZGNNO-UHFFFAOYSA-N-P87-P87-P439-601505

>  <HIPPO Pose ID>  (4234) 
508034

>  <name>  (4234) 
LNNONBIZUZGNNO-UHFFFAOYSA-N-P87-P87-P439-601505

>  <HIPPO Compound ID>  (4234) 
314553

>  <ref_mols>  (4234) 
A4706a,A0875a

>  <distance_score>  (4234) 
1.588045

>  <inspiration_score>  (4234) 
None

$$$$
LNNONBIZUZGNNO-UHFFFAOYSA-N-P439-P87-P439-601505
     RDKit          3D

 27 28  0  0  0  0  0  0  0  0999 V2000
   18.2075   14.5569   30.4440 C   0  0  0  0  0  0  0  0  0  0  0  0
   18.1085   13.3562   29.6729 O   0  0  0  0  0  0  0  0  0  0  0  0
   16.8683   13.1039   29.1759 C   0  0  0  0  0  0  0  0  0  0  0  0
   15.8914   13.8272   29.3690 O   0  0  0  0  0  0  0  0  0  0  0  0
   16.8433   11.8770   28.2556 C   0  0  2  0  0  0  0  0  0  0  0  0
   15.4157   11.7966   27.9264 O   0  0  0  0  0  0  0  0  0  0  0  0
   15.0573   11.6233   26.6366 C   0  0  0  0  0  0  0  0  0  0  0  0
   15.6757   10.9410   25.8351 O   0  0  0  0  0  0  0  0  0  0  0  0
   13.8480   12.4590   26.2324 C   0  0  0  0  0  0  0  0  0  0  0  0
   12.9314   12.8676   27.3639 C   0  0  0  0  0  0  0  0  0  0  0  0
   11.6659   13.6226   26.9317 C   0  0  0  0  0  0  0  0  0  0  0  0
   10.9873   13.0536   25.7267 N   0  0  0  0  0  0  0  0  0  0  0  0
    9.6940   14.0658   25.1877 S   0  0  0  0  0  0  0  0  0  0  0  0
    9.5618   13.9812   23.7548 O   0  0  0  0  0  0  0  0  0  0  0  0
    9.8360   15.3329   25.8614 O   0  0  0  0  0  0  0  0  0  0  0  0
    8.3673   13.2723   25.8721 N   0  0  0  0  0  0  0  0  0  0  0  0
    7.9832   12.0019   25.2033 C   0  0  0  0  0  0  0  0  0  0  0  0
    6.9731   11.2734   26.0806 C   0  0  0  0  0  0  0  0  0  0  0  0
    5.7580   12.1375   26.4039 C   0  0  0  0  0  0  0  0  0  0  0  0
    6.1779   13.4934   26.9568 C   0  0  0  0  0  0  0  0  0  0  0  0
    7.1808   14.1674   26.0295 C   0  0  0  0  0  0  0  0  0  0  0  0
   11.9345   12.7339   24.6421 C   0  0  0  0  0  0  0  0  0  0  0  0
   12.9922   11.7693   25.1837 C   0  0  0  0  0  0  0  0  0  0  0  0
   17.4303   10.5758   28.8951 C   0  0  0  0  0  0  0  0  0  0  0  0
   17.6401    9.4982   27.8160 C   0  0  0  0  0  0  0  0  0  0  0  0
   16.5108   10.0509   30.0075 C   0  0  0  0  0  0  0  0  0  0  0  0
   18.7762   10.7250   29.4911 N   0  0  0  0  0  0  0  0  0  0  0  0
  1  2  1  0
  2  3  1  0
  3  4  2  0
  3  5  1  0
  5  6  1  1
  6  7  1  0
  7  8  2  0
  7  9  1  0
  9 10  1  0
 10 11  1  0
 11 12  1  0
 12 13  1  0
 13 14  2  0
 13 15  2  0
 13 16  1  0
 16 17  1  0
 17 18  1  0
 18 19  1  0
 19 20  1  0
 20 21  1  0
 12 22  1  0
 22 23  1  0
  5 24  1  0
 24 25  1  0
 24 26  1  0
 24 27  1  0
 23  9  1  0
 21 16  1  0
M  END
>  <energy_score>  (4235) 
-82.343192

>  <inchikey>  (4235) 
LNNONBIZUZGNNO-UHFFFAOYSA-N

>  <smiles>  (4235) 
COC(=O)C(OC(=O)C1CCN(S(=O)(=O)N2CCCCC2)CC1)C(C)(C)N

>  <ref_pdb>  (4235) 
A0875a

>  <alias>  (4235) 
LNNONBIZUZGNNO-UHFFFAOYSA-N-P439-P87-P439-601505

>  <HIPPO Pose ID>  (4235) 
508035

>  <name>  (4235) 
LNNONBIZUZGNNO-UHFFFAOYSA-N-P439-P87-P439-601505

>  <HIPPO Compound ID>  (4235) 
314553

>  <ref_mols>  (4235) 
A4706a,A0875a

>  <distance_score>  (4235) 
1.608277

>  <inspiration_score>  (4235) 
None

$$$$
YDZHYZRRXBZBMC-UHFFFAOYSA-N-P439-P87-P439-601505
     RDKit          3D

 27 29  0  0  0  0  0  0  0  0999 V2000
    6.4097   13.1386   22.0293 O   0  0  0  0  0  0  0  0  0  0  0  0
    7.2139   13.4101   22.9219 C   0  0  0  0  0  0  0  0  0  0  0  0
    8.4593   13.7863   22.5669 O   0  0  0  0  0  0  0  0  0  0  0  0
    9.4888   13.9574   23.5360 C   0  0  0  0  0  0  0  0  0  0  0  0
   10.9189   14.1004   23.0220 C   0  0  0  0  0  0  0  0  0  0  0  0
   11.3098   15.4185   22.7191 O   0  0  0  0  0  0  0  0  0  0  0  0
   10.4517   16.0497   21.8071 C   0  0  0  0  0  0  0  0  0  0  0  0
   10.2843   15.2503   20.5598 C   0  0  2  0  0  0  0  0  0  0  0  0
   11.5693   14.6715   20.0059 C   0  0  0  0  0  0  0  0  0  0  0  0
   11.1523   14.4619   18.6022 C   0  0  0  0  0  0  0  0  0  0  0  0
   10.2885   15.6438   18.3764 C   0  0  0  0  0  0  0  0  0  0  0  0
    9.7796   16.1378   19.5894 O   0  0  0  0  0  0  0  0  0  0  0  0
    6.7853   13.1913   24.3742 C   0  0  0  0  0  0  0  0  0  0  0  0
    7.3905   11.9120   24.9970 C   0  0  0  0  0  0  0  0  0  0  0  0
    8.2082   12.1374   26.2700 C   0  0  0  0  0  0  0  0  0  0  0  0
    8.8344   13.4486   26.1464 N   0  0  0  0  0  0  0  0  0  0  0  0
   10.3317   13.9142   26.7095 S   0  0  0  0  0  0  0  0  0  0  0  0
   10.1390   14.1916   28.1091 O   0  0  0  0  0  0  0  0  0  0  0  0
   10.7881   14.9689   25.8363 O   0  0  0  0  0  0  0  0  0  0  0  0
   11.4689   12.6630   26.6127 N   0  0  0  0  0  0  0  0  0  0  0  0
   11.6050   11.7425   25.4783 C   0  0  0  0  0  0  0  0  0  0  0  0
   12.9984   11.1195   25.2632 C   0  0  0  0  0  0  0  0  0  0  0  0
   14.1747   11.4566   26.1265 C   0  0  0  0  0  0  0  0  0  0  0  0
   13.9877   12.8824   26.4904 C   0  0  0  0  0  0  0  0  0  0  0  0
   12.7348   13.0191   27.3312 C   0  0  0  0  0  0  0  0  0  0  0  0
    7.7949   14.5049   26.3511 C   0  0  0  0  0  0  0  0  0  0  0  0
    6.8014   14.4792   25.2008 C   0  0  0  0  0  0  0  0  0  0  0  0
  1  2  2  0
  2  3  1  0
  3  4  1  0
  4  5  1  0
  5  6  1  0
  6  7  1  0
  8  7  1  1
  8  9  1  0
  9 10  1  0
 10 11  1  0
 11 12  1  0
  2 13  1  0
 13 14  1  0
 14 15  1  0
 15 16  1  0
 16 17  1  0
 17 18  2  0
 17 19  2  0
 17 20  1  0
 20 21  1  0
 21 22  1  0
 22 23  1  0
 23 24  1  0
 24 25  1  0
 16 26  1  0
 26 27  1  0
 12  8  1  0
 27 13  1  0
 25 20  1  0
M  END
>  <energy_score>  (4236) 
-11.664229

>  <inchikey>  (4236) 
YDZHYZRRXBZBMC-UHFFFAOYSA-N

>  <smiles>  (4236) 
O=C(OCCOCC1CCCO1)C1CCN(S(=O)(=O)N2CCCCC2)CC1

>  <ref_pdb>  (4236) 
A0875a

>  <alias>  (4236) 
YDZHYZRRXBZBMC-UHFFFAOYSA-N-P439-P87-P439-601505

>  <HIPPO Pose ID>  (4236) 
508041

>  <name>  (4236) 
YDZHYZRRXBZBMC-UHFFFAOYSA-N-P439-P87-P439-601505

>  <HIPPO Compound ID>  (4236) 
314556

>  <ref_mols>  (4236) 
A4706a,A0875a

>  <distance_score>  (4236) 
1.697953

>  <inspiration_score>  (4236) 
None

$$$$
IHYKBGIYCGPMFN-UHFFFAOYSA-N-P439-P87-P439-601505
     RDKit          3D

 27 29  0  0  0  0  0  0  0  0999 V2000
    6.8377   13.7142   21.8505 O   0  0  0  0  0  0  0  0  0  0  0  0
    7.0209   14.5332   22.7441 C   0  0  0  0  0  0  0  0  0  0  0  0
    8.0184   15.4457   22.7409 O   0  0  0  0  0  0  0  0  0  0  0  0
    9.0696   15.6256   21.7158 C   0  0  1  0  0  0  0  0  0  0  0  0
   10.3808   15.9398   22.4505 C   0  0  0  0  0  0  0  0  0  0  0  0
   11.1391   14.7351   22.6066 O   0  0  0  0  0  0  0  0  0  0  0  0
   10.4868   13.7376   21.8352 C   0  0  0  0  0  0  0  0  0  0  0  0
    9.5220   14.4290   20.9027 C   0  0  2  0  0  0  0  0  0  0  0  0
   10.3650   14.9381   19.3928 S   0  0  0  0  0  0  0  0  0  0  0  0
   10.0639   16.3253   19.1221 O   0  0  0  0  0  0  0  0  0  0  0  0
   10.3112   13.9457   18.3482 O   0  0  0  0  0  0  0  0  0  0  0  0
   12.3171   14.8149   19.7604 Cl  0  0  0  0  0  0  0  0  0  0  0  0
    6.0936   14.6279   23.9965 C   0  0  0  0  0  0  0  0  0  0  0  0
    5.5955   13.2377   24.4612 C   0  0  0  0  0  0  0  0  0  0  0  0
    6.2763   12.5980   25.6791 C   0  0  0  0  0  0  0  0  0  0  0  0
    7.5195   13.3105   26.0345 N   0  0  0  0  0  0  0  0  0  0  0  0
    8.8002   13.0726   24.9791 S   0  0  0  0  0  0  0  0  0  0  0  0
    8.3793   12.0999   24.0027 O   0  0  0  0  0  0  0  0  0  0  0  0
    9.3106   14.3680   24.6255 O   0  0  0  0  0  0  0  0  0  0  0  0
    9.9804   12.3632   25.9191 N   0  0  0  0  0  0  0  0  0  0  0  0
   10.8945   11.4744   25.1497 C   0  0  0  0  0  0  0  0  0  0  0  0
   12.3600   11.6649   25.5417 C   0  0  0  0  0  0  0  0  0  0  0  0
   12.7224   13.1023   25.3003 C   0  0  0  0  0  0  0  0  0  0  0  0
   11.8398   14.0069   26.1556 C   0  0  0  0  0  0  0  0  0  0  0  0
   10.6517   13.3324   26.7859 C   0  0  0  0  0  0  0  0  0  0  0  0
    7.2025   14.7167   26.3689 C   0  0  0  0  0  0  0  0  0  0  0  0
    6.5772   15.4702   25.1888 C   0  0  0  0  0  0  0  0  0  0  0  0
  1  2  2  0
  2  3  1  0
  4  3  1  1
  4  5  1  0
  5  6  1  0
  6  7  1  0
  7  8  1  0
  8  9  1  6
  9 10  2  0
  9 11  2  0
  9 12  1  0
  2 13  1  0
 13 14  1  0
 14 15  1  0
 15 16  1  0
 16 17  1  0
 17 18  2  0
 17 19  2  0
 17 20  1  0
 20 21  1  0
 21 22  1  0
 22 23  1  0
 23 24  1  0
 24 25  1  0
 16 26  1  0
 26 27  1  0
  8  4  1  0
 27 13  1  0
 25 20  1  0
M  END
>  <energy_score>  (4237) 
-28.498835

>  <inchikey>  (4237) 
IHYKBGIYCGPMFN-UHFFFAOYSA-N

>  <smiles>  (4237) 
O=C(OC1COCC1S(=O)(=O)Cl)C1CCN(S(=O)(=O)N2CCCCC2)CC1

>  <ref_pdb>  (4237) 
A0875a

>  <alias>  (4237) 
IHYKBGIYCGPMFN-UHFFFAOYSA-N-P439-P87-P439-601505

>  <HIPPO Pose ID>  (4237) 
508045

>  <name>  (4237) 
IHYKBGIYCGPMFN-UHFFFAOYSA-N-P439-P87-P439-601505

>  <HIPPO Compound ID>  (4237) 
314558

>  <ref_mols>  (4237) 
A4706a,A0875a

>  <distance_score>  (4237) 
1.773803

>  <inspiration_score>  (4237) 
None

$$$$
VITHVANVBINOMH-UHFFFAOYSA-N-P439-P87-P439-601505
     RDKit          3D

 27 29  0  0  0  0  0  0  0  0999 V2000
    7.1511   14.2084   21.2077 C   0  0  0  0  0  0  0  0  0  0  0  0
    8.3812   14.0850   22.0320 C   0  0  0  0  0  0  0  0  0  0  0  0
    8.7514   12.9783   22.4300 O   0  0  0  0  0  0  0  0  0  0  0  0
    9.0314   15.3634   22.4681 C   0  0  1  0  0  0  0  0  0  0  0  0
    8.3000   15.4176   23.7116 O   0  0  0  0  0  0  0  0  0  0  0  0
    6.9854   15.7075   23.8326 C   0  0  0  0  0  0  0  0  0  0  0  0
    6.3780   16.4694   23.0991 O   0  0  0  0  0  0  0  0  0  0  0  0
    6.2873   14.9173   24.9407 C   0  0  0  0  0  0  0  0  0  0  0  0
    6.3617   13.3827   24.7886 C   0  0  0  0  0  0  0  0  0  0  0  0
    7.6143   12.7305   25.3772 C   0  0  0  0  0  0  0  0  0  0  0  0
    8.1040   13.3985   26.5915 N   0  0  0  0  0  0  0  0  0  0  0  0
    9.6255   14.1211   26.6240 S   0  0  0  0  0  0  0  0  0  0  0  0
    9.8562   14.9438   25.4708 O   0  0  0  0  0  0  0  0  0  0  0  0
    9.7392   14.7066   27.9370 O   0  0  0  0  0  0  0  0  0  0  0  0
   10.7831   12.8719   26.5689 N   0  0  0  0  0  0  0  0  0  0  0  0
   11.0267   12.2602   25.2327 C   0  0  0  0  0  0  0  0  0  0  0  0
   12.3740   12.6986   24.6834 C   0  0  0  0  0  0  0  0  0  0  0  0
   13.4897   12.1395   25.5478 C   0  0  0  0  0  0  0  0  0  0  0  0
   13.2495   12.5096   27.0004 C   0  0  0  0  0  0  0  0  0  0  0  0
   12.0427   13.4147   27.1903 C   0  0  0  0  0  0  0  0  0  0  0  0
    7.0462   14.2217   27.2428 C   0  0  0  0  0  0  0  0  0  0  0  0
    6.6785   15.3901   26.3375 C   0  0  0  0  0  0  0  0  0  0  0  0
   10.5115   15.1118   22.7604 C   0  0  0  0  0  0  0  0  0  0  0  0
   11.1760   15.0627   21.4140 C   0  0  0  0  0  0  0  0  0  0  0  0
   10.3803   15.8793   20.5753 O   0  0  0  0  0  0  0  0  0  0  0  0
    9.2586   16.2817   21.2506 C   0  0  0  0  0  0  0  0  0  0  0  0
    8.5731   17.1948   20.8412 O   0  0  0  0  0  0  0  0  0  0  0  0
  1  2  1  0
  2  3  2  0
  2  4  1  0
  4  5  1  1
  5  6  1  0
  6  7  2  0
  6  8  1  0
  8  9  1  0
  9 10  1  0
 10 11  1  0
 11 12  1  0
 12 13  2  0
 12 14  2  0
 12 15  1  0
 15 16  1  0
 16 17  1  0
 17 18  1  0
 18 19  1  0
 19 20  1  0
 11 21  1  0
 21 22  1  0
  4 23  1  0
 23 24  1  0
 24 25  1  0
 25 26  1  0
 26 27  2  0
 26  4  1  0
 22  8  1  0
 20 15  1  0
M  END
>  <energy_score>  (4238) 
-16.072213

>  <inchikey>  (4238) 
VITHVANVBINOMH-UHFFFAOYSA-N

>  <smiles>  (4238) 
CC(=O)C1(OC(=O)C2CCN(S(=O)(=O)N3CCCCC3)CC2)CCOC1=O

>  <ref_pdb>  (4238) 
A0875a

>  <alias>  (4238) 
VITHVANVBINOMH-UHFFFAOYSA-N-P439-P87-P439-601505

>  <HIPPO Pose ID>  (4238) 
508047

>  <name>  (4238) 
VITHVANVBINOMH-UHFFFAOYSA-N-P439-P87-P439-601505

>  <HIPPO Compound ID>  (4238) 
314559

>  <ref_mols>  (4238) 
A4706a,A0875a

>  <distance_score>  (4238) 
1.919902

>  <inspiration_score>  (4238) 
None

$$$$
VRUXLPFJVBCVLA-UHFFFAOYSA-N-P439-P87-P439-601505
     RDKit          3D

 27 30  0  0  0  0  0  0  0  0999 V2000
    6.4679   14.2748   21.8543 O   0  0  0  0  0  0  0  0  0  0  0  0
    6.8973   14.8267   22.8595 C   0  0  0  0  0  0  0  0  0  0  0  0
    8.1047   15.4345   22.9710 O   0  0  0  0  0  0  0  0  0  0  0  0
    9.0674   15.6564   21.8662 C   0  0  0  0  0  0  0  0  0  0  0  0
    8.5686   16.9441   21.2573 C   0  0  1  0  0  0  0  0  0  0  0  0
    9.2951   18.2180   21.0037 C   0  0  0  0  0  0  0  0  0  0  0  0
    9.1031   17.2891   19.9601 O   0  0  0  0  0  0  0  0  0  0  0  0
    9.1428   14.5784   20.7765 C   0  0  0  0  0  0  0  0  0  0  0  0
   10.4075   14.7155   19.9221 C   0  0  0  0  0  0  0  0  0  0  0  0
   11.5502   14.5312   20.7492 O   0  0  0  0  0  0  0  0  0  0  0  0
   11.6548   15.5470   21.7237 C   0  0  0  0  0  0  0  0  0  0  0  0
   10.4279   15.6029   22.5976 C   0  0  0  0  0  0  0  0  0  0  0  0
    6.0872   14.9086   24.1742 C   0  0  0  0  0  0  0  0  0  0  0  0
    5.5750   13.5268   24.6421 C   0  0  0  0  0  0  0  0  0  0  0  0
    6.1740   13.0900   25.9889 C   0  0  0  0  0  0  0  0  0  0  0  0
    7.6447   13.3578   25.9981 N   0  0  0  0  0  0  0  0  0  0  0  0
    8.4533   12.4055   24.8786 S   0  0  0  0  0  0  0  0  0  0  0  0
    8.8250   13.1724   23.7272 O   0  0  0  0  0  0  0  0  0  0  0  0
    7.6609   11.2102   24.7306 O   0  0  0  0  0  0  0  0  0  0  0  0
    9.8954   11.9207   25.5841 N   0  0  0  0  0  0  0  0  0  0  0  0
   10.9280   12.9766   25.7727 C   0  0  0  0  0  0  0  0  0  0  0  0
   12.2352   12.6622   25.0612 C   0  0  0  0  0  0  0  0  0  0  0  0
   12.7272   11.2904   25.4870 C   0  0  0  0  0  0  0  0  0  0  0  0
   11.6546   10.2070   25.2570 C   0  0  0  0  0  0  0  0  0  0  0  0
   10.3354   10.7412   24.7778 C   0  0  0  0  0  0  0  0  0  0  0  0
    7.9123   14.8151   25.9873 C   0  0  0  0  0  0  0  0  0  0  0  0
    6.7755   15.6191   25.3471 C   0  0  0  0  0  0  0  0  0  0  0  0
  1  2  2  0
  2  3  1  0
  3  4  1  0
  5  4  1  1
  5  6  1  0
  6  7  1  0
  4  8  1  0
  8  9  1  0
  9 10  1  0
 10 11  1  0
 11 12  1  0
  2 13  1  0
 13 14  1  0
 14 15  1  0
 15 16  1  0
 16 17  1  0
 17 18  2  0
 17 19  2  0
 17 20  1  0
 20 21  1  0
 21 22  1  0
 22 23  1  0
 23 24  1  0
 24 25  1  0
 16 26  1  0
 26 27  1  0
 12  4  1  0
 27 13  1  0
  7  5  1  0
 25 20  1  0
M  END
>  <energy_score>  (4239) 
-19.134527

>  <inchikey>  (4239) 
VRUXLPFJVBCVLA-UHFFFAOYSA-N

>  <smiles>  (4239) 
O=C(OC1(C2CO2)CCOCC1)C1CCN(S(=O)(=O)N2CCCCC2)CC1

>  <ref_pdb>  (4239) 
A0875a

>  <alias>  (4239) 
VRUXLPFJVBCVLA-UHFFFAOYSA-N-P439-P87-P439-601505

>  <HIPPO Pose ID>  (4239) 
508049

>  <name>  (4239) 
VRUXLPFJVBCVLA-UHFFFAOYSA-N-P439-P87-P439-601505

>  <HIPPO Compound ID>  (4239) 
314560

>  <ref_mols>  (4239) 
A4706a,A0875a

>  <distance_score>  (4239) 
1.782175

>  <inspiration_score>  (4239) 
None

$$$$
IFXLWGLLPLAMEL-UHFFFAOYSA-N-P439-P87-P439-601505
     RDKit          3D

 27 29  0  0  0  0  0  0  0  0999 V2000
   11.7996   15.1832   18.0548 C   0  0  0  0  0  0  0  0  0  0  0  0
   10.8690   14.3424   18.7665 C   0  0  0  0  0  0  0  0  0  0  0  0
   10.2799   13.4949   18.2647 O   0  0  0  0  0  0  0  0  0  0  0  0
   10.8940   14.7982   20.1974 N   0  0  0  0  0  0  0  0  0  0  0  0
   10.1068   14.3615   21.3477 C   0  0  1  0  0  0  0  0  0  0  0  0
   10.9515   14.9585   22.4375 C   0  0  0  0  0  0  0  0  0  0  0  0
   10.5937   16.3426   22.4115 O   0  0  0  0  0  0  0  0  0  0  0  0
    9.4149   16.5268   21.5541 C   0  0  0  0  0  0  0  0  0  0  0  0
    8.7926   15.1513   21.4240 C   0  0  2  0  0  0  0  0  0  0  0  0
    7.9602   15.0326   22.6189 O   0  0  0  0  0  0  0  0  0  0  0  0
    6.8809   14.2158   22.6535 C   0  0  0  0  0  0  0  0  0  0  0  0
    6.6090   13.4077   21.7737 O   0  0  0  0  0  0  0  0  0  0  0  0
    6.0103   14.3638   23.9330 C   0  0  0  0  0  0  0  0  0  0  0  0
    5.6954   12.9956   24.5762 C   0  0  0  0  0  0  0  0  0  0  0  0
    6.6558   12.4407   25.6357 C   0  0  0  0  0  0  0  0  0  0  0  0
    7.6559   13.4546   26.0206 N   0  0  0  0  0  0  0  0  0  0  0  0
    8.9922   13.5367   25.0051 S   0  0  0  0  0  0  0  0  0  0  0  0
    8.7134   12.7372   23.8413 O   0  0  0  0  0  0  0  0  0  0  0  0
    9.4112   14.9161   24.9585 O   0  0  0  0  0  0  0  0  0  0  0  0
   10.1368   12.7223   25.8676 N   0  0  0  0  0  0  0  0  0  0  0  0
   10.7241   13.4845   26.9499 C   0  0  0  0  0  0  0  0  0  0  0  0
   12.1764   13.7271   26.7264 C   0  0  0  0  0  0  0  0  0  0  0  0
   12.9558   12.4585   26.4938 C   0  0  0  0  0  0  0  0  0  0  0  0
   12.4045   11.7831   25.2682 C   0  0  0  0  0  0  0  0  0  0  0  0
   10.8850   11.6490   25.1946 C   0  0  0  0  0  0  0  0  0  0  0  0
    6.9876   14.7514   26.2895 C   0  0  0  0  0  0  0  0  0  0  0  0
    6.4431   15.3776   25.0017 C   0  0  0  0  0  0  0  0  0  0  0  0
  1  2  1  0
  2  3  2  0
  2  4  1  0
  5  4  1  6
  5  6  1  0
  6  7  1  0
  7  8  1  0
  8  9  1  0
  9 10  1  1
 10 11  1  0
 11 12  2  0
 11 13  1  0
 13 14  1  0
 14 15  1  0
 15 16  1  0
 16 17  1  0
 17 18  2  0
 17 19  2  0
 17 20  1  0
 20 21  1  0
 21 22  1  0
 22 23  1  0
 23 24  1  0
 24 25  1  0
 16 26  1  0
 26 27  1  0
  9  5  1  0
 27 13  1  0
 25 20  1  0
M  END
>  <energy_score>  (4240) 
-2.33703

>  <inchikey>  (4240) 
IFXLWGLLPLAMEL-UHFFFAOYSA-N

>  <smiles>  (4240) 
CC(=O)NC1COCC1OC(=O)C1CCN(S(=O)(=O)N2CCCCC2)CC1

>  <ref_pdb>  (4240) 
A0875a

>  <alias>  (4240) 
IFXLWGLLPLAMEL-UHFFFAOYSA-N-P439-P87-P439-601505

>  <HIPPO Pose ID>  (4240) 
508053

>  <name>  (4240) 
IFXLWGLLPLAMEL-UHFFFAOYSA-N-P439-P87-P439-601505

>  <HIPPO Compound ID>  (4240) 
314562

>  <ref_mols>  (4240) 
A4706a,A0875a

>  <distance_score>  (4240) 
1.687566

>  <inspiration_score>  (4240) 
None

$$$$
AAIASMXQDYCOMM-UHFFFAOYSA-N-P439-P87-P439-601505
     RDKit          3D

 27 28  0  0  0  0  0  0  0  0999 V2000
   10.0131   15.2244   18.7812 C   0  0  0  0  0  0  0  0  0  0  0  0
    9.6927   15.3153   20.2648 C   0  0  0  0  0  0  0  0  0  0  0  0
    9.5936   16.7914   20.6698 C   0  0  0  0  0  0  0  0  0  0  0  0
    8.3622   14.6398   20.6436 C   0  0  0  0  0  0  0  0  0  0  0  0
   10.8642   14.7160   20.8241 O   0  0  0  0  0  0  0  0  0  0  0  0
   10.6803   13.9061   21.9586 C   0  0  0  0  0  0  0  0  0  0  0  0
   10.0085   14.7025   23.0479 C   0  0  2  0  0  0  0  0  0  0  0  0
   11.1580   15.3713   23.7374 C   0  0  0  0  0  0  0  0  0  0  0  0
   12.0306   15.8631   22.8142 F   0  0  0  0  0  0  0  0  0  0  0  0
    9.1260   13.8051   23.7534 O   0  0  0  0  0  0  0  0  0  0  0  0
    7.8483   14.2561   23.9395 C   0  0  0  0  0  0  0  0  0  0  0  0
    7.4677   15.3996   23.7248 O   0  0  0  0  0  0  0  0  0  0  0  0
    6.8733   13.1969   24.4515 C   0  0  0  0  0  0  0  0  0  0  0  0
    7.4980   11.8331   24.8011 C   0  0  0  0  0  0  0  0  0  0  0  0
    8.1240   11.8352   26.1939 C   0  0  0  0  0  0  0  0  0  0  0  0
    8.4366   13.2127   26.5103 N   0  0  0  0  0  0  0  0  0  0  0  0
    9.9069   13.9128   26.7541 S   0  0  0  0  0  0  0  0  0  0  0  0
    9.9471   15.0941   25.9386 O   0  0  0  0  0  0  0  0  0  0  0  0
   10.0427   14.0973   28.1753 O   0  0  0  0  0  0  0  0  0  0  0  0
   11.1304   12.8663   26.2948 N   0  0  0  0  0  0  0  0  0  0  0  0
   12.4722   13.1837   26.8971 C   0  0  0  0  0  0  0  0  0  0  0  0
   13.6499   12.9125   25.9305 C   0  0  0  0  0  0  0  0  0  0  0  0
   13.6876   11.4855   25.4230 C   0  0  0  0  0  0  0  0  0  0  0  0
   12.2638   11.0078   25.3563 C   0  0  0  0  0  0  0  0  0  0  0  0
   11.2256   12.0849   25.0483 C   0  0  0  0  0  0  0  0  0  0  0  0
    7.2376   14.0470   26.7896 C   0  0  0  0  0  0  0  0  0  0  0  0
    6.1923   13.7723   25.7035 C   0  0  0  0  0  0  0  0  0  0  0  0
  1  2  1  0
  2  3  1  0
  2  4  1  0
  2  5  1  0
  5  6  1  0
  7  6  1  6
  7  8  1  0
  8  9  1  0
  7 10  1  0
 10 11  1  0
 11 12  2  0
 11 13  1  0
 13 14  1  0
 14 15  1  0
 15 16  1  0
 16 17  1  0
 17 18  2  0
 17 19  2  0
 17 20  1  0
 20 21  1  0
 21 22  1  0
 22 23  1  0
 23 24  1  0
 24 25  1  0
 16 26  1  0
 26 27  1  0
 27 13  1  0
 25 20  1  0
M  END
>  <energy_score>  (4241) 
-16.36937

>  <inchikey>  (4241) 
AAIASMXQDYCOMM-UHFFFAOYSA-N

>  <smiles>  (4241) 
CC(C)(C)OCC(CF)OC(=O)C1CCN(S(=O)(=O)N2CCCCC2)CC1

>  <ref_pdb>  (4241) 
A0875a

>  <alias>  (4241) 
AAIASMXQDYCOMM-UHFFFAOYSA-N-P439-P87-P439-601505

>  <HIPPO Pose ID>  (4241) 
508055

>  <name>  (4241) 
AAIASMXQDYCOMM-UHFFFAOYSA-N-P439-P87-P439-601505

>  <HIPPO Compound ID>  (4241) 
314563

>  <ref_mols>  (4241) 
A4706a,A0875a

>  <distance_score>  (4241) 
1.467656

>  <inspiration_score>  (4241) 
None

$$$$
KTLOOLHBDHZKLA-UHFFFAOYSA-N-P439-P87-P439-601505
     RDKit          3D

 27 29  0  0  0  0  0  0  0  0999 V2000
   11.6334   15.0214   18.3261 C   0  0  0  0  0  0  0  0  0  0  0  0
   10.2418   14.8376   18.8142 C   0  0  0  0  0  0  0  0  0  0  0  0
    9.9104   15.7969   19.7797 O   0  0  0  0  0  0  0  0  0  0  0  0
    9.8595   15.3959   21.1544 C   0  0  2  0  0  0  0  0  0  0  0  0
    8.4338   15.8213   21.6005 C   0  0  0  0  0  0  0  0  0  0  0  0
    7.8816   15.5327   22.8940 O   0  0  0  0  0  0  0  0  0  0  0  0
    7.0712   14.4490   22.9953 C   0  0  0  0  0  0  0  0  0  0  0  0
    7.0354   13.5294   22.1748 O   0  0  0  0  0  0  0  0  0  0  0  0
    6.0843   14.4909   24.1832 C   0  0  0  0  0  0  0  0  0  0  0  0
    5.8303   13.0564   24.6620 C   0  0  0  0  0  0  0  0  0  0  0  0
    7.0708   12.4908   25.3391 C   0  0  0  0  0  0  0  0  0  0  0  0
    7.6407   13.3974   26.3733 N   0  0  0  0  0  0  0  0  0  0  0  0
    9.2006   14.0076   26.1601 S   0  0  0  0  0  0  0  0  0  0  0  0
    9.5302   14.7535   27.3516 O   0  0  0  0  0  0  0  0  0  0  0  0
    9.2198   14.6791   24.8941 O   0  0  0  0  0  0  0  0  0  0  0  0
   10.3160   12.7503   26.0957 N   0  0  0  0  0  0  0  0  0  0  0  0
   10.0867   11.6668   25.1288 C   0  0  0  0  0  0  0  0  0  0  0  0
   11.1640   10.6050   25.1951 C   0  0  0  0  0  0  0  0  0  0  0  0
   12.5756   11.1824   25.4409 C   0  0  0  0  0  0  0  0  0  0  0  0
   12.6439   12.6427   25.1043 C   0  0  0  0  0  0  0  0  0  0  0  0
   11.6889   13.3657   26.0326 C   0  0  0  0  0  0  0  0  0  0  0  0
    6.6959   14.5257   26.6762 C   0  0  0  0  0  0  0  0  0  0  0  0
    6.4074   15.3569   25.4101 C   0  0  0  0  0  0  0  0  0  0  0  0
   11.0407   16.0936   21.7720 C   0  0  0  0  0  0  0  0  0  0  0  0
   11.3527   15.3219   23.0112 C   0  0  0  0  0  0  0  0  0  0  0  0
   10.7614   14.0358   22.8794 O   0  0  0  0  0  0  0  0  0  0  0  0
   10.2415   13.9831   21.5564 C   0  0  0  0  0  0  0  0  0  0  0  0
  1  2  1  0
  2  3  1  0
  3  4  1  0
  4  5  1  1
  5  6  1  0
  6  7  1  0
  7  8  2  0
  7  9  1  0
  9 10  1  0
 10 11  1  0
 11 12  1  0
 12 13  1  0
 13 14  2  0
 13 15  2  0
 13 16  1  0
 16 17  1  0
 17 18  1  0
 18 19  1  0
 19 20  1  0
 20 21  1  0
 12 22  1  0
 22 23  1  0
  4 24  1  0
 24 25  1  0
 25 26  1  0
 26 27  1  0
 27  4  1  0
 23  9  1  0
 21 16  1  0
M  END
>  <energy_score>  (4242) 
-42.011661

>  <inchikey>  (4242) 
KTLOOLHBDHZKLA-UHFFFAOYSA-N

>  <smiles>  (4242) 
CCOC1(COC(=O)C2CCN(S(=O)(=O)N3CCCCC3)CC2)CCOC1

>  <ref_pdb>  (4242) 
A0875a

>  <alias>  (4242) 
KTLOOLHBDHZKLA-UHFFFAOYSA-N-P439-P87-P439-601505

>  <HIPPO Pose ID>  (4242) 
508057

>  <name>  (4242) 
KTLOOLHBDHZKLA-UHFFFAOYSA-N-P439-P87-P439-601505

>  <HIPPO Compound ID>  (4242) 
314564

>  <ref_mols>  (4242) 
A4706a,A0875a

>  <distance_score>  (4242) 
1.488727

>  <inspiration_score>  (4242) 
None

$$$$
YOONUZSFPRZWMT-UHFFFAOYSA-N-P439-P87-P439-601505
     RDKit          3D

 27 29  0  0  0  0  0  0  0  0999 V2000
    9.4369   13.8851   20.6572 C   0  0  0  0  0  0  0  0  0  0  0  0
   10.3422   14.9821   20.2127 C   0  0  0  0  0  0  0  0  0  0  0  0
   10.5047   15.0605   18.7111 C   0  0  0  0  0  0  0  0  0  0  0  0
   11.7009   14.8267   20.8969 C   0  0  0  0  0  0  0  0  0  0  0  0
   11.5404   14.8760   22.3208 O   0  0  0  0  0  0  0  0  0  0  0  0
   10.8930   16.1105   22.6312 C   0  0  0  0  0  0  0  0  0  0  0  0
    9.4906   16.2463   22.0036 C   0  0  2  0  0  0  0  0  0  0  0  0
    8.5197   15.3494   22.8288 C   0  0  0  0  0  0  0  0  0  0  0  0
    7.1398   15.3131   22.4421 O   0  0  0  0  0  0  0  0  0  0  0  0
    6.5576   14.1427   22.8201 C   0  0  0  0  0  0  0  0  0  0  0  0
    6.8098   13.0651   22.2833 O   0  0  0  0  0  0  0  0  0  0  0  0
    5.5535   14.2469   23.9667 C   0  0  0  0  0  0  0  0  0  0  0  0
    5.6842   12.9975   24.8687 C   0  0  0  0  0  0  0  0  0  0  0  0
    7.0544   12.8857   25.5453 C   0  0  0  0  0  0  0  0  0  0  0  0
    7.6771   14.2207   25.5808 N   0  0  0  0  0  0  0  0  0  0  0  0
    9.1514   14.4544   26.3057 S   0  0  0  0  0  0  0  0  0  0  0  0
    9.0611   13.9973   27.6614 O   0  0  0  0  0  0  0  0  0  0  0  0
    9.5138   15.8236   26.0540 O   0  0  0  0  0  0  0  0  0  0  0  0
   10.3287   13.5675   25.5322 N   0  0  0  0  0  0  0  0  0  0  0  0
   11.6472   13.9256   26.1313 C   0  0  0  0  0  0  0  0  0  0  0  0
   12.7885   13.4731   25.2473 C   0  0  0  0  0  0  0  0  0  0  0  0
   12.5062   12.1886   24.5582 C   0  0  0  0  0  0  0  0  0  0  0  0
   11.5036   11.4071   25.3535 C   0  0  0  0  0  0  0  0  0  0  0  0
   10.1604   12.1167   25.3490 C   0  0  0  0  0  0  0  0  0  0  0  0
    6.6727   15.2432   26.0088 C   0  0  0  0  0  0  0  0  0  0  0  0
    5.7094   15.4860   24.8514 C   0  0  0  0  0  0  0  0  0  0  0  0
    9.6262   16.1396   20.5905 O   0  0  0  0  0  0  0  0  0  0  0  0
  1  2  1  0
  2  3  1  0
  2  4  1  0
  4  5  1  0
  5  6  1  0
  6  7  1  0
  7  8  1  1
  8  9  1  0
  9 10  1  0
 10 11  2  0
 10 12  1  0
 12 13  1  0
 13 14  1  0
 14 15  1  0
 15 16  1  0
 16 17  2  0
 16 18  2  0
 16 19  1  0
 19 20  1  0
 20 21  1  0
 21 22  1  0
 22 23  1  0
 23 24  1  0
 15 25  1  0
 25 26  1  0
  7 27  1  0
 27  2  1  0
 26 12  1  0
 24 19  1  0
M  END
>  <energy_score>  (4243) 
-41.378232

>  <inchikey>  (4243) 
YOONUZSFPRZWMT-UHFFFAOYSA-N

>  <smiles>  (4243) 
CC1(C)COCC(COC(=O)C2CCN(S(=O)(=O)N3CCCCC3)CC2)O1

>  <ref_pdb>  (4243) 
A0875a

>  <alias>  (4243) 
YOONUZSFPRZWMT-UHFFFAOYSA-N-P439-P87-P439-601505

>  <HIPPO Pose ID>  (4243) 
508061

>  <name>  (4243) 
YOONUZSFPRZWMT-UHFFFAOYSA-N-P439-P87-P439-601505

>  <HIPPO Compound ID>  (4243) 
314566

>  <ref_mols>  (4243) 
A4706a,A0875a

>  <distance_score>  (4243) 
1.807847

>  <inspiration_score>  (4243) 
None

$$$$
QVAXIXXTUIMBRC-UHFFFAOYSA-N-P439-P87-P439-601505
     RDKit          3D

 27 30  0  0  0  0  0  0  0  0999 V2000
    5.4394   15.5764   23.5468 O   0  0  0  0  0  0  0  0  0  0  0  0
    6.3151   14.9534   24.1337 C   0  0  0  0  0  0  0  0  0  0  0  0
    7.6389   15.0519   23.8509 O   0  0  0  0  0  0  0  0  0  0  0  0
    7.9528   15.4985   22.5199 C   0  0  2  0  0  0  0  0  0  0  0  0
    7.3559   14.5274   21.5066 C   0  0  0  0  0  0  0  0  0  0  0  0
    8.1423   14.5808   20.3118 O   0  0  0  0  0  0  0  0  0  0  0  0
    9.3850   14.9094   20.7514 C   0  0  0  0  0  0  0  0  0  0  0  0
   10.5189   14.7621   19.9839 C   0  0  0  0  0  0  0  0  0  0  0  0
   11.7341   14.9798   20.6034 C   0  0  0  0  0  0  0  0  0  0  0  0
   11.7771   15.4044   21.9323 C   0  0  0  0  0  0  0  0  0  0  0  0
   10.6005   15.6358   22.6457 C   0  0  0  0  0  0  0  0  0  0  0  0
    9.3839   15.3618   22.0577 C   0  0  0  0  0  0  0  0  0  0  0  0
    5.9887   13.9249   25.2167 C   0  0  0  0  0  0  0  0  0  0  0  0
    6.6330   12.5432   25.0157 C   0  0  0  0  0  0  0  0  0  0  0  0
    7.6423   12.1647   26.0998 C   0  0  0  0  0  0  0  0  0  0  0  0
    8.4584   13.3295   26.4932 N   0  0  0  0  0  0  0  0  0  0  0  0
    9.7193   13.7512   25.4580 S   0  0  0  0  0  0  0  0  0  0  0  0
    9.4010   13.2363   24.1495 O   0  0  0  0  0  0  0  0  0  0  0  0
   10.0414   15.1337   25.7042 O   0  0  0  0  0  0  0  0  0  0  0  0
   11.0197   12.8116   26.0445 N   0  0  0  0  0  0  0  0  0  0  0  0
   11.6491   12.0645   24.9433 C   0  0  0  0  0  0  0  0  0  0  0  0
   12.8311   11.1983   25.3859 C   0  0  0  0  0  0  0  0  0  0  0  0
   13.5499   11.6500   26.6327 C   0  0  0  0  0  0  0  0  0  0  0  0
   13.4315   13.1203   26.6888 C   0  0  0  0  0  0  0  0  0  0  0  0
   11.9806   13.5713   26.8841 C   0  0  0  0  0  0  0  0  0  0  0  0
    7.6664   14.4593   27.0588 C   0  0  0  0  0  0  0  0  0  0  0  0
    6.2092   14.4592   26.6209 C   0  0  0  0  0  0  0  0  0  0  0  0
  1  2  2  0
  2  3  1  0
  4  3  1  1
  4  5  1  0
  5  6  1  0
  6  7  1  0
  7  8  2  0
  8  9  1  0
  9 10  2  0
 10 11  1  0
 11 12  2  0
  2 13  1  0
 13 14  1  0
 14 15  1  0
 15 16  1  0
 16 17  1  0
 17 18  2  0
 17 19  2  0
 17 20  1  0
 20 21  1  0
 21 22  1  0
 22 23  1  0
 23 24  1  0
 24 25  1  0
 16 26  1  0
 26 27  1  0
 12  4  1  0
 27 13  1  0
 12  7  1  0
 25 20  1  0
M  END
>  <energy_score>  (4244) 
-30.702049

>  <inchikey>  (4244) 
QVAXIXXTUIMBRC-UHFFFAOYSA-N

>  <smiles>  (4244) 
O=C(OC1COc2ccccc21)C1CCN(S(=O)(=O)N2CCCCC2)CC1

>  <ref_pdb>  (4244) 
A0875a

>  <alias>  (4244) 
QVAXIXXTUIMBRC-UHFFFAOYSA-N-P439-P87-P439-601505

>  <HIPPO Pose ID>  (4244) 
508069

>  <name>  (4244) 
QVAXIXXTUIMBRC-UHFFFAOYSA-N-P439-P87-P439-601505

>  <HIPPO Compound ID>  (4244) 
314570

>  <ref_mols>  (4244) 
A4706a,A0875a

>  <distance_score>  (4244) 
1.924704

>  <inspiration_score>  (4244) 
None

$$$$
LVDAMNLAAGRUHY-UHFFFAOYSA-N-P87-P87-P439-601505
     RDKit          3D

 27 29  0  0  0  0  0  0  0  0999 V2000
   19.2294   10.1649   27.1256 C   0  0  0  0  0  0  0  0  0  0  0  0
   18.2508   10.3750   28.2946 C   0  0  0  0  0  0  0  0  0  0  0  0
   18.3445    9.1274   29.2021 C   0  0  0  0  0  0  0  0  0  0  0  0
   18.7341   11.6017   29.0943 C   0  0  0  0  0  0  0  0  0  0  0  0
   16.7838   10.5186   27.7574 C   0  0  1  0  0  0  0  0  0  0  0  0
   15.7560   10.6452   28.8970 C   0  0  0  0  0  0  0  0  0  0  0  0
   14.7587   11.5615   28.4347 O   0  0  0  0  0  0  0  0  0  0  0  0
   15.4983   12.5490   27.7065 C   0  0  0  0  0  0  0  0  0  0  0  0
   16.4647   11.7353   26.8601 C   0  0  2  0  0  0  0  0  0  0  0  0
   15.8509   11.4464   25.5535 O   0  0  0  0  0  0  0  0  0  0  0  0
   14.8624   10.5382   25.3935 C   0  0  0  0  0  0  0  0  0  0  0  0
   15.0518    9.3303   25.3765 O   0  0  0  0  0  0  0  0  0  0  0  0
   13.4541   11.1164   25.3432 C   0  0  0  0  0  0  0  0  0  0  0  0
   13.3354   12.3864   24.5552 C   0  0  0  0  0  0  0  0  0  0  0  0
   12.0759   13.0567   25.0151 C   0  0  0  0  0  0  0  0  0  0  0  0
   10.9068   12.2126   24.7804 N   0  0  0  0  0  0  0  0  0  0  0  0
    9.5009   13.0595   24.4852 S   0  0  0  0  0  0  0  0  0  0  0  0
    9.3755   13.8956   25.6426 O   0  0  0  0  0  0  0  0  0  0  0  0
    8.4526   12.1425   24.1346 O   0  0  0  0  0  0  0  0  0  0  0  0
    9.9157   13.9934   23.1811 N   0  0  0  0  0  0  0  0  0  0  0  0
   10.5091   13.4115   21.9778 C   0  0  0  0  0  0  0  0  0  0  0  0
   11.6311   14.3266   21.5196 C   0  0  0  0  0  0  0  0  0  0  0  0
   11.2156   15.7860   21.5998 C   0  0  0  0  0  0  0  0  0  0  0  0
    9.7000   15.9554   21.6918 C   0  0  0  0  0  0  0  0  0  0  0  0
    9.0870   15.1791   22.8635 C   0  0  0  0  0  0  0  0  0  0  0  0
   11.0041   10.8008   24.4195 C   0  0  0  0  0  0  0  0  0  0  0  0
   12.3092   10.1365   24.9106 C   0  0  0  0  0  0  0  0  0  0  0  0
  1  2  1  0
  2  3  1  0
  2  4  1  0
  5  2  1  1
  5  6  1  0
  6  7  1  0
  7  8  1  0
  8  9  1  0
  9 10  1  6
 10 11  1  0
 11 12  2  0
 11 13  1  0
 13 14  1  0
 14 15  1  0
 15 16  1  0
 16 17  1  0
 17 18  2  0
 17 19  2  0
 17 20  1  0
 20 21  1  0
 21 22  1  0
 22 23  1  0
 23 24  1  0
 24 25  1  0
 16 26  1  0
 26 27  1  0
  9  5  1  0
 27 13  1  0
 25 20  1  0
M  END
>  <energy_score>  (4245) 
-32.285704

>  <inchikey>  (4245) 
LVDAMNLAAGRUHY-UHFFFAOYSA-N

>  <smiles>  (4245) 
CC(C)(C)C1COCC1OC(=O)C1CCN(S(=O)(=O)N2CCCCC2)CC1

>  <ref_pdb>  (4245) 
A0875a

>  <alias>  (4245) 
LVDAMNLAAGRUHY-UHFFFAOYSA-N-P87-P87-P439-601505

>  <HIPPO Pose ID>  (4245) 
508070

>  <name>  (4245) 
LVDAMNLAAGRUHY-UHFFFAOYSA-N-P87-P87-P439-601505

>  <HIPPO Compound ID>  (4245) 
314571

>  <ref_mols>  (4245) 
A4706a,A0875a

>  <distance_score>  (4245) 
1.654028

>  <inspiration_score>  (4245) 
None

$$$$
GIGNHIZKVZAINQ-UHFFFAOYSA-N-P439-P87-P439-601505
     RDKit          3D

 27 29  0  0  0  0  0  0  0  0999 V2000
    8.1057   18.6636   19.8772 N   0  0  0  0  0  0  0  0  0  0  0  0
    9.0210   17.7211   20.5130 C   0  0  0  0  0  0  0  0  0  0  0  0
    8.3081   16.7279   21.4234 C   0  0  0  0  0  0  0  0  0  0  0  0
    9.0769   15.4694   21.8281 C   0  0  1  0  0  0  0  0  0  0  0  0
    8.2686   14.8302   22.8532 O   0  0  0  0  0  0  0  0  0  0  0  0
    7.1115   14.1190   22.8348 C   0  0  0  0  0  0  0  0  0  0  0  0
    6.5021   13.6831   21.8791 O   0  0  0  0  0  0  0  0  0  0  0  0
    6.8001   13.8994   24.2975 C   0  0  0  0  0  0  0  0  0  0  0  0
    6.3559   12.5879   24.9138 C   0  0  0  0  0  0  0  0  0  0  0  0
    6.8789   12.5324   26.3769 C   0  0  0  0  0  0  0  0  0  0  0  0
    7.4178   13.8505   26.8248 N   0  0  0  0  0  0  0  0  0  0  0  0
    9.0363   14.3674   26.7338 S   0  0  0  0  0  0  0  0  0  0  0  0
    9.2230   15.2652   25.6147 O   0  0  0  0  0  0  0  0  0  0  0  0
    9.3687   14.8243   28.0580 O   0  0  0  0  0  0  0  0  0  0  0  0
    9.9978   13.0164   26.4126 N   0  0  0  0  0  0  0  0  0  0  0  0
   11.4423   13.2705   26.7510 C   0  0  0  0  0  0  0  0  0  0  0  0
   12.3213   13.4032   25.5357 C   0  0  0  0  0  0  0  0  0  0  0  0
   12.2058   12.2265   24.6160 C   0  0  0  0  0  0  0  0  0  0  0  0
   10.8843   11.4788   24.7437 C   0  0  0  0  0  0  0  0  0  0  0  0
    9.8070   12.4455   25.0691 C   0  0  0  0  0  0  0  0  0  0  0  0
    6.4260   14.9355   26.5611 C   0  0  0  0  0  0  0  0  0  0  0  0
    6.2206   15.0970   25.0450 C   0  0  0  0  0  0  0  0  0  0  0  0
    9.3117   14.5814   20.6146 C   0  0  0  0  0  0  0  0  0  0  0  0
   10.7682   14.2359   20.4053 C   0  0  0  0  0  0  0  0  0  0  0  0
   11.6753   15.4027   20.5624 C   0  0  0  0  0  0  0  0  0  0  0  0
   11.4333   16.1941   21.7124 O   0  0  0  0  0  0  0  0  0  0  0  0
   10.4274   15.6573   22.5439 C   0  0  0  0  0  0  0  0  0  0  0  0
  1  2  1  0
  2  3  1  0
  4  3  1  6
  4  5  1  0
  5  6  1  0
  6  7  2  0
  6  8  1  0
  8  9  1  0
  9 10  1  0
 10 11  1  0
 11 12  1  0
 12 13  2  0
 12 14  2  0
 12 15  1  0
 15 16  1  0
 16 17  1  0
 17 18  1  0
 18 19  1  0
 19 20  1  0
 11 21  1  0
 21 22  1  0
  4 23  1  0
 23 24  1  0
 24 25  1  0
 25 26  1  0
 26 27  1  0
 27  4  1  0
 22  8  1  0
 20 15  1  0
M  END
>  <energy_score>  (4246) 
-19.16086

>  <inchikey>  (4246) 
GIGNHIZKVZAINQ-UHFFFAOYSA-N

>  <smiles>  (4246) 
NCCC1(OC(=O)C2CCN(S(=O)(=O)N3CCCCC3)CC2)CCCOC1

>  <ref_pdb>  (4246) 
A0875a

>  <alias>  (4246) 
GIGNHIZKVZAINQ-UHFFFAOYSA-N-P439-P87-P439-601505

>  <HIPPO Pose ID>  (4246) 
508073

>  <name>  (4246) 
GIGNHIZKVZAINQ-UHFFFAOYSA-N-P439-P87-P439-601505

>  <HIPPO Compound ID>  (4246) 
314572

>  <ref_mols>  (4246) 
A4706a,A0875a

>  <distance_score>  (4246) 
1.814257

>  <inspiration_score>  (4246) 
None

$$$$
URRCAQSSFBZICJ-UHFFFAOYSA-N-P439-P87-P439-601505
     RDKit          3D

 27 30  0  0  0  0  0  0  0  0999 V2000
    6.0132   14.2707   21.8090 O   0  0  0  0  0  0  0  0  0  0  0  0
    6.5402   14.7518   22.8094 C   0  0  0  0  0  0  0  0  0  0  0  0
    7.7297   15.4112   22.8166 O   0  0  0  0  0  0  0  0  0  0  0  0
    8.3919   15.6242   21.5442 C   0  0  2  0  0  0  0  0  0  0  0  0
    8.7577   14.3825   20.7563 C   0  0  0  0  0  0  0  0  0  0  0  0
    9.6954   14.6586   19.5570 C   0  0  0  0  0  0  0  0  0  0  0  0
   10.8289   15.5642   19.8124 C   0  0  2  0  0  0  0  0  0  0  0  0
   11.9240   14.9618   20.6817 C   0  0  0  0  0  0  0  0  0  0  0  0
   11.5213   14.7650   22.1240 C   0  0  0  0  0  0  0  0  0  0  0  0
   10.7522   15.9814   22.5742 C   0  0  0  0  0  0  0  0  0  0  0  0
    9.6477   16.4695   21.6416 C   0  0  1  0  0  0  0  0  0  0  0  0
   10.2094   16.7056   20.3604 O   0  0  0  0  0  0  0  0  0  0  0  0
    5.8652   14.6115   24.1814 C   0  0  0  0  0  0  0  0  0  0  0  0
    5.6888   13.1251   24.5549 C   0  0  0  0  0  0  0  0  0  0  0  0
    6.8435   12.4436   25.2931 C   0  0  0  0  0  0  0  0  0  0  0  0
    7.7285   13.4389   25.9228 N   0  0  0  0  0  0  0  0  0  0  0  0
    9.1200   13.8390   25.0567 S   0  0  0  0  0  0  0  0  0  0  0  0
    9.5031   15.1701   25.4543 O   0  0  0  0  0  0  0  0  0  0  0  0
    8.9664   13.3979   23.7011 O   0  0  0  0  0  0  0  0  0  0  0  0
   10.1950   12.8336   25.7724 N   0  0  0  0  0  0  0  0  0  0  0  0
   10.6830   13.3029   27.0436 C   0  0  0  0  0  0  0  0  0  0  0  0
   12.0912   13.7845   26.9526 C   0  0  0  0  0  0  0  0  0  0  0  0
   12.9873   12.6791   26.4405 C   0  0  0  0  0  0  0  0  0  0  0  0
   12.4966   12.2465   25.0734 C   0  0  0  0  0  0  0  0  0  0  0  0
   11.0110   11.8888   25.0148 C   0  0  0  0  0  0  0  0  0  0  0  0
    6.9729   14.5824   26.4774 C   0  0  0  0  0  0  0  0  0  0  0  0
    6.4100   15.4403   25.3485 C   0  0  0  0  0  0  0  0  0  0  0  0
  1  2  2  0
  2  3  1  0
  4  3  1  1
  4  5  1  0
  5  6  1  0
  7  6  1  1
  7  8  1  0
  8  9  1  0
  9 10  1  0
 11 10  1  1
 11 12  1  0
  2 13  1  0
 13 14  1  0
 14 15  1  0
 15 16  1  0
 16 17  1  0
 17 18  2  0
 17 19  2  0
 17 20  1  0
 20 21  1  0
 21 22  1  0
 22 23  1  0
 23 24  1  0
 24 25  1  0
 16 26  1  0
 26 27  1  0
 11  4  1  0
 27 13  1  0
 12  7  1  0
 25 20  1  0
M  END
>  <energy_score>  (4247) 
-43.346852

>  <inchikey>  (4247) 
URRCAQSSFBZICJ-UHFFFAOYSA-N

>  <smiles>  (4247) 
O=C(OC1CCC2CCCC1O2)C1CCN(S(=O)(=O)N2CCCCC2)CC1

>  <ref_pdb>  (4247) 
A0875a

>  <alias>  (4247) 
URRCAQSSFBZICJ-UHFFFAOYSA-N-P439-P87-P439-601505

>  <HIPPO Pose ID>  (4247) 
508079

>  <name>  (4247) 
URRCAQSSFBZICJ-UHFFFAOYSA-N-P439-P87-P439-601505

>  <HIPPO Compound ID>  (4247) 
314575

>  <ref_mols>  (4247) 
A4706a,A0875a

>  <distance_score>  (4247) 
1.999745

>  <inspiration_score>  (4247) 
None

$$$$
JDDCNGIANIUTQX-UHFFFAOYSA-N-P439-P87-P439-601505
     RDKit          3D

 27 30  0  0  0  0  0  0  0  0999 V2000
    6.0663   13.1926   21.8625 O   0  0  0  0  0  0  0  0  0  0  0  0
    6.2984   14.0273   22.7354 C   0  0  0  0  0  0  0  0  0  0  0  0
    6.6262   15.3075   22.4342 O   0  0  0  0  0  0  0  0  0  0  0  0
    8.0127   15.4946   22.1512 C   0  0  2  0  0  0  0  0  0  0  0  0
    8.4520   16.8102   21.5562 C   0  0  0  0  0  0  0  0  0  0  0  0
    9.8444   16.5844   21.3262 O   0  0  0  0  0  0  0  0  0  0  0  0
    9.9055   15.2932   20.7071 C   0  0  0  0  0  0  0  0  0  0  0  0
   10.0338   15.5670   19.2152 C   0  0  0  0  0  0  0  0  0  0  0  0
   11.1057   14.6522   18.7160 C   0  0  0  0  0  0  0  0  0  0  0  0
   11.9968   14.3974   19.9015 C   0  0  0  0  0  0  0  0  0  0  0  0
   11.1718   14.5832   21.1515 C   0  0  0  0  0  0  0  0  0  0  0  0
    8.6296   14.5630   21.1334 C   0  0  0  0  0  0  0  0  0  0  0  0
    6.3310   13.5979   24.1961 C   0  0  0  0  0  0  0  0  0  0  0  0
    7.5643   12.6906   24.3662 C   0  0  0  0  0  0  0  0  0  0  0  0
    7.8877   12.3769   25.8039 C   0  0  0  0  0  0  0  0  0  0  0  0
    8.0171   13.6213   26.5692 N   0  0  0  0  0  0  0  0  0  0  0  0
    9.3090   14.6667   26.2610 S   0  0  0  0  0  0  0  0  0  0  0  0
    9.6075   15.3326   27.4985 O   0  0  0  0  0  0  0  0  0  0  0  0
    8.9854   15.4160   25.0830 O   0  0  0  0  0  0  0  0  0  0  0  0
   10.5640   13.6553   25.8580 N   0  0  0  0  0  0  0  0  0  0  0  0
   11.4234   13.2370   26.9531 C   0  0  0  0  0  0  0  0  0  0  0  0
   12.6882   12.5145   26.5063 C   0  0  0  0  0  0  0  0  0  0  0  0
   12.4947   11.7691   25.2172 C   0  0  0  0  0  0  0  0  0  0  0  0
   11.7989   12.6254   24.1502 C   0  0  0  0  0  0  0  0  0  0  0  0
   11.3022   13.9527   24.6469 C   0  0  0  0  0  0  0  0  0  0  0  0
    6.6980   14.3218   26.6332 C   0  0  0  0  0  0  0  0  0  0  0  0
    6.1964   14.7160   25.2362 C   0  0  0  0  0  0  0  0  0  0  0  0
  1  2  2  0
  2  3  1  0
  4  3  1  6
  4  5  1  0
  5  6  1  0
  6  7  1  0
  7  8  1  0
  8  9  1  0
  9 10  1  0
 10 11  1  0
  7 12  1  0
  2 13  1  0
 13 14  1  0
 14 15  1  0
 15 16  1  0
 16 17  1  0
 17 18  2  0
 17 19  2  0
 17 20  1  0
 20 21  1  0
 21 22  1  0
 22 23  1  0
 23 24  1  0
 24 25  1  0
 16 26  1  0
 26 27  1  0
 12  4  1  0
 27 13  1  0
 11  7  1  0
 25 20  1  0
M  END
>  <energy_score>  (4248) 
-56.027764

>  <inchikey>  (4248) 
JDDCNGIANIUTQX-UHFFFAOYSA-N

>  <smiles>  (4248) 
O=C(OC1COC2(CCCC2)C1)C1CCN(S(=O)(=O)N2CCCCC2)CC1

>  <ref_pdb>  (4248) 
A0875a

>  <alias>  (4248) 
JDDCNGIANIUTQX-UHFFFAOYSA-N-P439-P87-P439-601505

>  <HIPPO Pose ID>  (4248) 
508081

>  <name>  (4248) 
JDDCNGIANIUTQX-UHFFFAOYSA-N-P439-P87-P439-601505

>  <HIPPO Compound ID>  (4248) 
314576

>  <ref_mols>  (4248) 
A4706a,A0875a

>  <distance_score>  (4248) 
1.883128

>  <inspiration_score>  (4248) 
None

$$$$
NZMAUYRNLHZQII-UHFFFAOYSA-N-P439-P87-P439-601505
     RDKit          3D

 27 29  0  0  0  0  0  0  0  0999 V2000
    8.8338   15.1441   20.0911 C   0  0  0  0  0  0  0  0  0  0  0  0
    9.6211   16.1538   20.8617 C   0  0  0  0  0  0  0  0  0  0  0  0
    9.1659   17.5578   20.4926 C   0  0  0  0  0  0  0  0  0  0  0  0
   11.0055   16.0338   20.5882 O   0  0  0  0  0  0  0  0  0  0  0  0
   11.5120   14.7379   20.3321 C   0  0  0  0  0  0  0  0  0  0  0  0
   11.5368   13.9212   21.6056 C   0  0  0  0  0  0  0  0  0  0  0  0
   10.3404   13.9445   22.5641 C   0  0  2  0  0  0  0  0  0  0  0  0
    9.1266   13.3134   22.0756 O   0  0  0  0  0  0  0  0  0  0  0  0
    7.8847   13.3081   22.6266 C   0  0  0  0  0  0  0  0  0  0  0  0
    6.8745   13.1146   21.9560 O   0  0  0  0  0  0  0  0  0  0  0  0
    7.7857   13.4346   24.0913 C   0  0  0  0  0  0  0  0  0  0  0  0
    7.3977   12.1232   24.7832 C   0  0  0  0  0  0  0  0  0  0  0  0
    7.5330   12.2732   26.3000 C   0  0  0  0  0  0  0  0  0  0  0  0
    7.9702   13.6431   26.6052 N   0  0  0  0  0  0  0  0  0  0  0  0
    9.5545   14.1675   26.7348 S   0  0  0  0  0  0  0  0  0  0  0  0
    9.5833   15.5423   26.2849 O   0  0  0  0  0  0  0  0  0  0  0  0
   10.0512   13.8595   28.0449 O   0  0  0  0  0  0  0  0  0  0  0  0
   10.6001   13.3524   25.6766 N   0  0  0  0  0  0  0  0  0  0  0  0
   10.6940   11.8984   25.4850 C   0  0  0  0  0  0  0  0  0  0  0  0
   12.0837   11.3320   25.7952 C   0  0  0  0  0  0  0  0  0  0  0  0
   13.3109   11.9748   25.2519 C   0  0  0  0  0  0  0  0  0  0  0  0
   12.9370   13.3605   24.8559 C   0  0  0  0  0  0  0  0  0  0  0  0
   11.9293   13.9852   25.7898 C   0  0  0  0  0  0  0  0  0  0  0  0
    6.9632   14.6325   26.1136 C   0  0  0  0  0  0  0  0  0  0  0  0
    6.9184   14.5857   24.5867 C   0  0  0  0  0  0  0  0  0  0  0  0
   10.1684   15.3678   23.0360 C   0  0  0  0  0  0  0  0  0  0  0  0
    9.2619   16.0490   22.2244 O   0  0  0  0  0  0  0  0  0  0  0  0
  1  2  1  0
  2  3  1  0
  2  4  1  0
  4  5  1  0
  5  6  1  0
  6  7  1  0
  7  8  1  6
  8  9  1  0
  9 10  2  0
  9 11  1  0
 11 12  1  0
 12 13  1  0
 13 14  1  0
 14 15  1  0
 15 16  2  0
 15 17  2  0
 15 18  1  0
 18 19  1  0
 19 20  1  0
 20 21  1  0
 21 22  1  0
 22 23  1  0
 14 24  1  0
 24 25  1  0
  7 26  1  0
 26 27  1  0
 27  2  1  0
 25 11  1  0
 23 18  1  0
M  END
>  <energy_score>  (4249) 
-6.302207

>  <inchikey>  (4249) 
NZMAUYRNLHZQII-UHFFFAOYSA-N

>  <smiles>  (4249) 
CC1(C)OCCC(OC(=O)C2CCN(S(=O)(=O)N3CCCCC3)CC2)CO1

>  <ref_pdb>  (4249) 
A0875a

>  <alias>  (4249) 
NZMAUYRNLHZQII-UHFFFAOYSA-N-P439-P87-P439-601505

>  <HIPPO Pose ID>  (4249) 
508083

>  <name>  (4249) 
NZMAUYRNLHZQII-UHFFFAOYSA-N-P439-P87-P439-601505

>  <HIPPO Compound ID>  (4249) 
314577

>  <ref_mols>  (4249) 
A4706a,A0875a

>  <distance_score>  (4249) 
1.517047

>  <inspiration_score>  (4249) 
None

$$$$
MUHGYZNYHQYUHK-UHFFFAOYSA-N-P439-P87-P439-601505
     RDKit          3D

 27 30  0  0  0  0  0  0  0  0999 V2000
   11.2822   15.3658   18.4615 O   0  0  0  0  0  0  0  0  0  0  0  0
   10.9264   14.9145   19.5287 C   0  0  0  0  0  0  0  0  0  0  0  0
   11.7597   14.7063   20.7329 C   0  0  0  0  0  0  0  0  0  0  0  0
   10.7434   14.8408   21.8290 C   0  0  1  0  0  0  0  0  0  0  0  0
   10.4229   16.2824   22.1454 C   0  0  0  0  0  0  0  0  0  0  0  0
    9.0891   16.6198   21.4594 C   0  0  0  0  0  0  0  0  0  0  0  0
    8.3287   15.3069   21.5711 C   0  0  2  0  0  0  0  0  0  0  0  0
    7.7337   15.1956   22.8755 O   0  0  0  0  0  0  0  0  0  0  0  0
    6.7543   14.2569   23.0224 C   0  0  0  0  0  0  0  0  0  0  0  0
    6.4575   13.4231   22.1692 O   0  0  0  0  0  0  0  0  0  0  0  0
    6.0394   14.3380   24.3869 C   0  0  0  0  0  0  0  0  0  0  0  0
    5.8169   12.9385   24.9954 C   0  0  0  0  0  0  0  0  0  0  0  0
    6.9824   12.3254   25.7790 C   0  0  0  0  0  0  0  0  0  0  0  0
    7.9887   13.3488   26.1437 N   0  0  0  0  0  0  0  0  0  0  0  0
    9.2697   13.5270   25.0673 S   0  0  0  0  0  0  0  0  0  0  0  0
    8.8517   12.9447   23.8206 O   0  0  0  0  0  0  0  0  0  0  0  0
    9.7805   14.8709   25.1625 O   0  0  0  0  0  0  0  0  0  0  0  0
   10.3869   12.4533   25.7260 N   0  0  0  0  0  0  0  0  0  0  0  0
   11.6648   13.0612   26.1450 C   0  0  0  0  0  0  0  0  0  0  0  0
   12.7675   12.6234   25.2124 C   0  0  0  0  0  0  0  0  0  0  0  0
   12.9757   11.1404   25.4374 C   0  0  0  0  0  0  0  0  0  0  0  0
   11.6643   10.3252   25.2834 C   0  0  0  0  0  0  0  0  0  0  0  0
   10.4410   11.1639   24.9712 C   0  0  0  0  0  0  0  0  0  0  0  0
    7.3369   14.5972   26.5923 C   0  0  0  0  0  0  0  0  0  0  0  0
    6.6282   15.2970   25.4343 C   0  0  0  0  0  0  0  0  0  0  0  0
    9.4622   14.3410   21.2181 C   0  0  1  0  0  0  0  0  0  0  0  0
    9.6728   14.4979   19.8023 O   0  0  0  0  0  0  0  0  0  0  0  0
  1  2  2  0
  2  3  1  0
  4  3  1  6
  4  5  1  0
  5  6  1  0
  6  7  1  0
  7  8  1  1
  8  9  1  0
  9 10  2  0
  9 11  1  0
 11 12  1  0
 12 13  1  0
 13 14  1  0
 14 15  1  0
 15 16  2  0
 15 17  2  0
 15 18  1  0
 18 19  1  0
 19 20  1  0
 20 21  1  0
 21 22  1  0
 22 23  1  0
 14 24  1  0
 24 25  1  0
  7 26  1  0
 26 27  1  6
 27  2  1  0
 26  4  1  0
 25 11  1  0
 23 18  1  0
M  END
>  <energy_score>  (4250) 
-21.039181

>  <inchikey>  (4250) 
MUHGYZNYHQYUHK-UHFFFAOYSA-N

>  <smiles>  (4250) 
O=C1CC2CCC(OC(=O)C3CCN(S(=O)(=O)N4CCCCC4)CC3)C2O1

>  <ref_pdb>  (4250) 
A0875a

>  <alias>  (4250) 
MUHGYZNYHQYUHK-UHFFFAOYSA-N-P439-P87-P439-601505

>  <HIPPO Pose ID>  (4250) 
508085

>  <name>  (4250) 
MUHGYZNYHQYUHK-UHFFFAOYSA-N-P439-P87-P439-601505

>  <HIPPO Compound ID>  (4250) 
314578

>  <ref_mols>  (4250) 
A4706a,A0875a

>  <distance_score>  (4250) 
1.482868

>  <inspiration_score>  (4250) 
None

$$$$
AOJYEJOFWWSLIZ-UHFFFAOYSA-N-P439-P87-P439-601505
     RDKit          3D

 27 29  0  0  0  0  0  0  0  0999 V2000
    9.4980   13.0064   22.4528 O   0  0  0  0  0  0  0  0  0  0  0  0
    9.0208   14.1216   22.2626 C   0  0  0  0  0  0  0  0  0  0  0  0
    7.5674   14.3217   21.8363 C   0  0  0  0  0  0  0  0  0  0  0  0
    6.7019   15.1939   22.5607 O   0  0  0  0  0  0  0  0  0  0  0  0
    6.1570   14.7514   23.7279 C   0  0  0  0  0  0  0  0  0  0  0  0
    4.9638   14.8692   23.9760 O   0  0  0  0  0  0  0  0  0  0  0  0
    7.1434   14.1660   24.7058 C   0  0  0  0  0  0  0  0  0  0  0  0
    7.1233   12.6410   24.7596 C   0  0  0  0  0  0  0  0  0  0  0  0
    8.3711   12.1113   25.4693 C   0  0  0  0  0  0  0  0  0  0  0  0
    8.8465   13.0486   26.5065 N   0  0  0  0  0  0  0  0  0  0  0  0
   10.2811   13.9280   26.2948 S   0  0  0  0  0  0  0  0  0  0  0  0
   10.3055   14.5348   24.9915 O   0  0  0  0  0  0  0  0  0  0  0  0
   10.3828   14.7414   27.4797 O   0  0  0  0  0  0  0  0  0  0  0  0
   11.5406   12.7547   26.3692 N   0  0  0  0  0  0  0  0  0  0  0  0
   12.6936   13.1349   27.2480 C   0  0  0  0  0  0  0  0  0  0  0  0
   14.0739   12.8904   26.6370 C   0  0  0  0  0  0  0  0  0  0  0  0
   14.2200   11.4798   26.1970 C   0  0  0  0  0  0  0  0  0  0  0  0
   13.1130   11.2033   25.2154 C   0  0  0  0  0  0  0  0  0  0  0  0
   11.9825   12.2436   25.0611 C   0  0  0  0  0  0  0  0  0  0  0  0
    7.7068   13.8235   27.1220 C   0  0  0  0  0  0  0  0  0  0  0  0
    7.0206   14.7377   26.1120 C   0  0  0  0  0  0  0  0  0  0  0  0
    9.7008   15.2580   22.5060 O   0  0  0  0  0  0  0  0  0  0  0  0
   10.4250   15.9166   21.4552 C   0  0  1  0  0  0  0  0  0  0  0  0
   11.3120   15.0009   20.6314 C   0  0  0  0  0  0  0  0  0  0  0  0
   10.7226   15.0442   19.2396 C   0  0  0  0  0  0  0  0  0  0  0  0
    9.4192   15.6099   19.3812 O   0  0  0  0  0  0  0  0  0  0  0  0
    9.4656   16.5359   20.4757 C   0  0  0  0  0  0  0  0  0  0  0  0
  1  2  2  0
  2  3  1  0
  3  4  1  0
  4  5  1  0
  5  6  2  0
  5  7  1  0
  7  8  1  0
  8  9  1  0
  9 10  1  0
 10 11  1  0
 11 12  2  0
 11 13  2  0
 11 14  1  0
 14 15  1  0
 15 16  1  0
 16 17  1  0
 17 18  1  0
 18 19  1  0
 10 20  1  0
 20 21  1  0
  2 22  1  0
 23 22  1  1
 23 24  1  0
 24 25  1  0
 25 26  1  0
 26 27  1  0
 21  7  1  0
 27 23  1  0
 19 14  1  0
M  END
>  <energy_score>  (4251) 
-4.476681

>  <inchikey>  (4251) 
AOJYEJOFWWSLIZ-UHFFFAOYSA-N

>  <smiles>  (4251) 
O=C(COC(=O)C1CCN(S(=O)(=O)N2CCCCC2)CC1)OC1CCOC1

>  <ref_pdb>  (4251) 
A0875a

>  <alias>  (4251) 
AOJYEJOFWWSLIZ-UHFFFAOYSA-N-P439-P87-P439-601505

>  <HIPPO Pose ID>  (4251) 
508089

>  <name>  (4251) 
AOJYEJOFWWSLIZ-UHFFFAOYSA-N-P439-P87-P439-601505

>  <HIPPO Compound ID>  (4251) 
314580

>  <ref_mols>  (4251) 
A4706a,A0875a

>  <distance_score>  (4251) 
1.934175

>  <inspiration_score>  (4251) 
None

$$$$
YAEWKLCCPNIBNL-UHFFFAOYSA-N-P439-P87-P439-601505
     RDKit          3D

 27 29  0  0  0  0  0  0  0  0999 V2000
    9.2166   15.9422   18.0807 N   0  0  0  0  0  0  0  0  0  0  0  0
    9.8183   15.1537   18.6165 N   0  0  0  0  0  0  0  0  0  0  0  0
   10.3552   14.3262   19.3532 N   0  0  0  0  0  0  0  0  0  0  0  0
   10.4424   14.8408   20.7018 C   0  0  2  0  0  0  0  0  0  0  0  0
   11.4804   14.1358   21.4921 C   0  0  0  0  0  0  0  0  0  0  0  0
   11.7857   14.9872   22.6923 C   0  0  0  0  0  0  0  0  0  0  0  0
   10.9449   16.1187   22.8061 O   0  0  0  0  0  0  0  0  0  0  0  0
    9.5420   15.9741   22.5349 C   0  0  0  0  0  0  0  0  0  0  0  0
    9.1316   14.9659   21.4887 C   0  0  2  0  0  0  0  0  0  0  0  0
    8.5391   13.8713   22.2719 O   0  0  0  0  0  0  0  0  0  0  0  0
    7.1719   13.9299   22.3427 C   0  0  0  0  0  0  0  0  0  0  0  0
    6.4886   14.2930   21.3883 O   0  0  0  0  0  0  0  0  0  0  0  0
    6.4526   13.5810   23.6651 C   0  0  0  0  0  0  0  0  0  0  0  0
    6.8766   12.3458   24.4887 C   0  0  0  0  0  0  0  0  0  0  0  0
    7.4990   12.6964   25.8344 C   0  0  0  0  0  0  0  0  0  0  0  0
    8.2358   13.9252   25.5672 N   0  0  0  0  0  0  0  0  0  0  0  0
    9.7628   14.1506   26.1508 S   0  0  0  0  0  0  0  0  0  0  0  0
   10.3700   15.2364   25.4308 O   0  0  0  0  0  0  0  0  0  0  0  0
    9.6920   14.1813   27.5870 O   0  0  0  0  0  0  0  0  0  0  0  0
   10.5447   12.7415   25.7154 N   0  0  0  0  0  0  0  0  0  0  0  0
   10.3534   12.1820   24.3745 C   0  0  0  0  0  0  0  0  0  0  0  0
   10.3356   10.6813   24.5755 C   0  0  0  0  0  0  0  0  0  0  0  0
   11.6432   10.2544   25.2493 C   0  0  0  0  0  0  0  0  0  0  0  0
   12.6213   11.4224   25.5706 C   0  0  0  0  0  0  0  0  0  0  0  0
   11.9489   12.6649   26.1523 C   0  0  0  0  0  0  0  0  0  0  0  0
    7.3293   15.0806   25.5760 C   0  0  0  0  0  0  0  0  0  0  0  0
    6.2376   14.8387   24.5330 C   0  0  0  0  0  0  0  0  0  0  0  0
  1  2  2  0
  2  3  2  0
  4  3  1  6
  4  5  1  0
  5  6  1  0
  6  7  1  0
  7  8  1  0
  8  9  1  0
  9 10  1  1
 10 11  1  0
 11 12  2  0
 11 13  1  0
 13 14  1  0
 14 15  1  0
 15 16  1  0
 16 17  1  0
 17 18  2  0
 17 19  2  0
 17 20  1  0
 20 21  1  0
 21 22  1  0
 22 23  1  0
 23 24  1  0
 24 25  1  0
 16 26  1  0
 26 27  1  0
  9  4  1  0
 27 13  1  0
 25 20  1  0
M  CHG  2   1  -1   2   1
M  END
>  <energy_score>  (4252) 
-31.902073

>  <inchikey>  (4252) 
YAEWKLCCPNIBNL-UHFFFAOYSA-N

>  <smiles>  (4252) 
[N-]=[N+]=NC1CCOCC1OC(=O)C1CCN(S(=O)(=O)N2CCCCC2)CC1

>  <ref_pdb>  (4252) 
A0875a

>  <alias>  (4252) 
YAEWKLCCPNIBNL-UHFFFAOYSA-N-P439-P87-P439-601505

>  <HIPPO Pose ID>  (4252) 
508091

>  <name>  (4252) 
YAEWKLCCPNIBNL-UHFFFAOYSA-N-P439-P87-P439-601505

>  <HIPPO Compound ID>  (4252) 
314581

>  <ref_mols>  (4252) 
A4706a,A0875a

>  <distance_score>  (4252) 
1.567289

>  <inspiration_score>  (4252) 
None

$$$$
RFCZDRCGOMXJCY-UHFFFAOYSA-N-P439-P87-P439-601505
     RDKit          3D

 27 30  0  0  0  0  0  0  0  0999 V2000
    5.1800   13.6143   22.9158 O   0  0  0  0  0  0  0  0  0  0  0  0
    6.2946   13.4974   23.3887 C   0  0  0  0  0  0  0  0  0  0  0  0
    7.4498   13.1902   22.6868 O   0  0  0  0  0  0  0  0  0  0  0  0
    8.1266   14.3069   22.0445 C   0  0  0  0  0  0  0  0  0  0  0  0
    9.6229   14.1635   21.7267 C   0  0  1  0  0  0  0  0  0  0  0  0
   10.1074   14.9184   20.4332 C   0  0  0  0  0  0  0  0  0  0  0  0
   11.5623   14.9616   20.2601 N   0  0  0  0  0  0  0  0  0  0  0  0
   12.1044   15.5359   21.4953 C   0  0  0  0  0  0  0  0  0  0  0  0
   11.7405   14.6083   22.6423 C   0  0  0  0  0  0  0  0  0  0  0  0
   10.3366   14.6560   22.8649 O   0  0  0  0  0  0  0  0  0  0  0  0
    7.5511   15.7074   22.0932 C   0  0  0  0  0  0  0  0  0  0  0  0
    7.2399   14.7656   20.9768 C   0  0  0  0  0  0  0  0  0  0  0  0
    6.6656   13.5534   24.8100 C   0  0  0  0  0  0  0  0  0  0  0  0
    6.5925   12.1859   25.4556 C   0  0  0  0  0  0  0  0  0  0  0  0
    7.4235   12.2085   26.7204 C   0  0  0  0  0  0  0  0  0  0  0  0
    7.9953   13.5499   26.9596 N   0  0  0  0  0  0  0  0  0  0  0  0
    9.5531   14.0172   26.4907 S   0  0  0  0  0  0  0  0  0  0  0  0
   10.2130   14.4006   27.7136 O   0  0  0  0  0  0  0  0  0  0  0  0
    9.4800   14.9517   25.3973 O   0  0  0  0  0  0  0  0  0  0  0  0
   10.3110   12.6008   25.9564 N   0  0  0  0  0  0  0  0  0  0  0  0
   11.7816   12.6459   26.1460 C   0  0  0  0  0  0  0  0  0  0  0  0
   12.4546   11.4399   25.4909 C   0  0  0  0  0  0  0  0  0  0  0  0
   11.5103   10.2289   25.2211 C   0  0  0  0  0  0  0  0  0  0  0  0
   10.1698   10.5996   24.6049 C   0  0  0  0  0  0  0  0  0  0  0  0
    9.9858   12.1012   24.6042 C   0  0  0  0  0  0  0  0  0  0  0  0
    6.9623   14.6297   27.0117 C   0  0  0  0  0  0  0  0  0  0  0  0
    6.1269   14.6349   25.7176 C   0  0  0  0  0  0  0  0  0  0  0  0
  1  2  2  0
  2  3  1  0
  3  4  1  0
  5  4  1  1
  5  6  1  0
  6  7  1  0
  7  8  1  0
  8  9  1  0
  9 10  1  0
  4 11  1  0
 11 12  1  0
  2 13  1  0
 13 14  1  0
 14 15  1  0
 15 16  1  0
 16 17  1  0
 17 18  2  0
 17 19  2  0
 17 20  1  0
 20 21  1  0
 21 22  1  0
 22 23  1  0
 23 24  1  0
 24 25  1  0
 16 26  1  0
 26 27  1  0
 12  4  1  0
 27 13  1  0
 10  5  1  0
 25 20  1  0
M  END
>  <energy_score>  (4253) 
-5.525802

>  <inchikey>  (4253) 
RFCZDRCGOMXJCY-UHFFFAOYSA-N

>  <smiles>  (4253) 
O=C(OC1(C2CNCCO2)CC1)C1CCN(S(=O)(=O)N2CCCCC2)CC1

>  <ref_pdb>  (4253) 
A0875a

>  <alias>  (4253) 
RFCZDRCGOMXJCY-UHFFFAOYSA-N-P439-P87-P439-601505

>  <HIPPO Pose ID>  (4253) 
508093

>  <name>  (4253) 
RFCZDRCGOMXJCY-UHFFFAOYSA-N-P439-P87-P439-601505

>  <HIPPO Compound ID>  (4253) 
314582

>  <ref_mols>  (4253) 
A4706a,A0875a

>  <distance_score>  (4253) 
1.636525

>  <inspiration_score>  (4253) 
None

$$$$
FDGCGBUKBRLOHB-UHFFFAOYSA-N-P439-P87-P439-601505
     RDKit          3D

 27 28  0  0  0  0  0  0  0  0999 V2000
   20.1983    9.1909   28.8160 C   0  0  0  0  0  0  0  0  0  0  0  0
   19.8499   10.4069   27.9485 C   0  0  0  0  0  0  0  0  0  0  0  0
   20.1859   11.7110   28.6783 C   0  0  0  0  0  0  0  0  0  0  0  0
   20.6749   10.3520   26.6540 C   0  0  0  0  0  0  0  0  0  0  0  0
   18.4801   10.3626   27.5244 O   0  0  0  0  0  0  0  0  0  0  0  0
   17.4526   10.4580   28.5117 C   0  0  0  0  0  0  0  0  0  0  0  0
   16.6932   11.7905   28.3628 C   0  0  2  0  0  0  0  0  0  0  0  0
   16.7428   12.5775   29.6929 C   0  0  0  0  0  0  0  0  0  0  0  0
   16.2463   13.9597   29.5555 N   0  0  0  0  0  0  0  0  0  0  0  0
   15.2763   11.5711   28.1137 O   0  0  0  0  0  0  0  0  0  0  0  0
   14.8586   11.4429   26.8276 C   0  0  0  0  0  0  0  0  0  0  0  0
   15.5547   11.1743   25.8647 O   0  0  0  0  0  0  0  0  0  0  0  0
   13.3709   11.7714   26.7489 C   0  0  0  0  0  0  0  0  0  0  0  0
   13.2451   13.2388   26.8542 C   0  0  0  0  0  0  0  0  0  0  0  0
   11.8088   13.7267   26.9107 C   0  0  0  0  0  0  0  0  0  0  0  0
   10.9687   13.0827   25.8848 N   0  0  0  0  0  0  0  0  0  0  0  0
    9.6531   14.0323   25.3786 S   0  0  0  0  0  0  0  0  0  0  0  0
    9.3706   13.7760   23.9899 O   0  0  0  0  0  0  0  0  0  0  0  0
    9.8551   15.3720   25.8702 O   0  0  0  0  0  0  0  0  0  0  0  0
    8.4446   13.3404   26.3344 N   0  0  0  0  0  0  0  0  0  0  0  0
    7.2806   14.2307   26.6251 C   0  0  0  0  0  0  0  0  0  0  0  0
    5.9935   13.7471   25.9687 C   0  0  0  0  0  0  0  0  0  0  0  0
    6.2723   13.0697   24.6385 C   0  0  0  0  0  0  0  0  0  0  0  0
    7.1742   11.8531   24.8294 C   0  0  0  0  0  0  0  0  0  0  0  0
    8.0635   11.9473   26.0530 C   0  0  0  0  0  0  0  0  0  0  0  0
   11.7059   12.3917   24.8257 C   0  0  0  0  0  0  0  0  0  0  0  0
   12.6875   11.3594   25.4339 C   0  0  0  0  0  0  0  0  0  0  0  0
  1  2  1  0
  2  3  1  0
  2  4  1  0
  2  5  1  0
  5  6  1  0
  7  6  1  1
  7  8  1  0
  8  9  1  0
  7 10  1  0
 10 11  1  0
 11 12  2  0
 11 13  1  0
 13 14  1  0
 14 15  1  0
 15 16  1  0
 16 17  1  0
 17 18  2  0
 17 19  2  0
 17 20  1  0
 20 21  1  0
 21 22  1  0
 22 23  1  0
 23 24  1  0
 24 25  1  0
 16 26  1  0
 26 27  1  0
 27 13  1  0
 25 20  1  0
M  END
>  <energy_score>  (4254) 
-65.945635

>  <inchikey>  (4254) 
FDGCGBUKBRLOHB-UHFFFAOYSA-N

>  <smiles>  (4254) 
CC(C)(C)OCC(CN)OC(=O)C1CCN(S(=O)(=O)N2CCCCC2)CC1

>  <ref_pdb>  (4254) 
A0875a

>  <alias>  (4254) 
FDGCGBUKBRLOHB-UHFFFAOYSA-N-P439-P87-P439-601505

>  <HIPPO Pose ID>  (4254) 
508095

>  <name>  (4254) 
FDGCGBUKBRLOHB-UHFFFAOYSA-N-P439-P87-P439-601505

>  <HIPPO Compound ID>  (4254) 
314583

>  <ref_mols>  (4254) 
A4706a,A0875a

>  <distance_score>  (4254) 
1.814119

>  <inspiration_score>  (4254) 
None

$$$$
UQTAUORWBCHGDF-UHFFFAOYSA-N-P439-P87-P439-601505
     RDKit          3D

 27 29  0  0  0  0  0  0  0  0999 V2000
    6.3786   16.7676   22.7908 N   0  0  0  0  0  0  0  0  0  0  0  0
    7.6093   16.5599   22.0011 C   0  0  0  0  0  0  0  0  0  0  0  0
    8.4012   15.3413   22.4165 C   0  0  1  0  0  0  0  0  0  0  0  0
    7.4966   14.2206   22.2702 O   0  0  0  0  0  0  0  0  0  0  0  0
    6.5103   13.7864   23.0657 C   0  0  0  0  0  0  0  0  0  0  0  0
    5.8563   12.8521   22.5906 O   0  0  0  0  0  0  0  0  0  0  0  0
    6.0934   14.3189   24.4543 C   0  0  0  0  0  0  0  0  0  0  0  0
    5.5495   13.1562   25.3252 C   0  0  0  0  0  0  0  0  0  0  0  0
    6.6348   12.2769   25.9436 C   0  0  0  0  0  0  0  0  0  0  0  0
    7.8555   13.0627   26.2992 N   0  0  0  0  0  0  0  0  0  0  0  0
    9.1661   12.6568   25.3544 S   0  0  0  0  0  0  0  0  0  0  0  0
    9.5366   11.3137   25.7135 O   0  0  0  0  0  0  0  0  0  0  0  0
    8.8345   12.9551   23.9909 O   0  0  0  0  0  0  0  0  0  0  0  0
   10.4021   13.7099   25.7782 N   0  0  0  0  0  0  0  0  0  0  0  0
   11.1930   13.4064   26.9715 C   0  0  0  0  0  0  0  0  0  0  0  0
   12.5199   12.6805   26.6758 C   0  0  0  0  0  0  0  0  0  0  0  0
   12.5956   11.9539   25.3407 C   0  0  0  0  0  0  0  0  0  0  0  0
   11.9362   12.7285   24.2011 C   0  0  0  0  0  0  0  0  0  0  0  0
   11.2915   14.0048   24.6610 C   0  0  0  0  0  0  0  0  0  0  0  0
    7.5592   14.4692   26.5751 C   0  0  0  0  0  0  0  0  0  0  0  0
    6.9636   15.1838   25.3732 C   0  0  0  0  0  0  0  0  0  0  0  0
    9.6608   15.0657   21.5483 C   0  0  1  0  0  0  0  0  0  0  0  0
    9.5566   15.4299   20.0752 C   0  0  0  0  0  0  0  0  0  0  0  0
   10.7931   15.0130   19.2942 C   0  0  0  0  0  0  0  0  0  0  0  0
   11.9345   14.6374   20.2174 C   0  0  0  0  0  0  0  0  0  0  0  0
   12.0144   15.4742   21.4843 C   0  0  0  0  0  0  0  0  0  0  0  0
   10.7639   15.8256   22.0614 O   0  0  0  0  0  0  0  0  0  0  0  0
  1  2  1  0
  3  2  1  6
  3  4  1  0
  4  5  1  0
  5  6  2  0
  5  7  1  0
  7  8  1  0
  8  9  1  0
  9 10  1  0
 10 11  1  0
 11 12  2  0
 11 13  2  0
 11 14  1  0
 14 15  1  0
 15 16  1  0
 16 17  1  0
 17 18  1  0
 18 19  1  0
 10 20  1  0
 20 21  1  0
  3 22  1  0
 22 23  1  6
 23 24  1  0
 24 25  1  0
 25 26  1  0
 26 27  1  0
 21  7  1  0
 27 22  1  0
 19 14  1  0
M  END
>  <energy_score>  (4255) 
-17.294379

>  <inchikey>  (4255) 
UQTAUORWBCHGDF-UHFFFAOYSA-N

>  <smiles>  (4255) 
NCC(OC(=O)C1CCN(S(=O)(=O)N2CCCCC2)CC1)C1CCCCO1

>  <ref_pdb>  (4255) 
A0875a

>  <alias>  (4255) 
UQTAUORWBCHGDF-UHFFFAOYSA-N-P439-P87-P439-601505

>  <HIPPO Pose ID>  (4255) 
508097

>  <name>  (4255) 
UQTAUORWBCHGDF-UHFFFAOYSA-N-P439-P87-P439-601505

>  <HIPPO Compound ID>  (4255) 
314584

>  <ref_mols>  (4255) 
A4706a,A0875a

>  <distance_score>  (4255) 
1.813513

>  <inspiration_score>  (4255) 
None

$$$$
FFYITZDKEGKMPA-UHFFFAOYSA-N-P439-P87-P439-601505
     RDKit          3D

 27 29  0  0  0  0  0  0  0  0999 V2000
   11.8737   15.0528   20.1270 C   0  0  0  0  0  0  0  0  0  0  0  0
   10.3740   15.2846   20.3367 C   0  0  0  0  0  0  0  0  0  0  0  0
    9.8412   15.8553   19.0449 C   0  0  0  0  0  0  0  0  0  0  0  0
    9.8402   13.9881   20.5678 O   0  0  0  0  0  0  0  0  0  0  0  0
   10.1393   13.5328   21.8937 C   0  0  0  0  0  0  0  0  0  0  0  0
   10.9865   14.4699   22.7627 C   0  0  0  0  0  0  0  0  0  0  0  0
   10.4835   15.7876   22.7818 O   0  0  0  0  0  0  0  0  0  0  0  0
    9.8496   16.1379   21.5461 C   0  0  2  0  0  0  0  0  0  0  0  0
    8.2628   16.0665   21.6362 C   0  0  0  0  0  0  0  0  0  0  0  0
    7.6457   15.7838   22.9195 O   0  0  0  0  0  0  0  0  0  0  0  0
    6.6478   14.8524   22.9594 C   0  0  0  0  0  0  0  0  0  0  0  0
    6.2437   14.2223   21.9813 O   0  0  0  0  0  0  0  0  0  0  0  0
    6.0483   14.5767   24.3713 C   0  0  0  0  0  0  0  0  0  0  0  0
    6.1273   13.0430   24.6549 C   0  0  0  0  0  0  0  0  0  0  0  0
    6.7477   12.5540   25.9660 C   0  0  0  0  0  0  0  0  0  0  0  0
    7.6864   13.5338   26.5473 N   0  0  0  0  0  0  0  0  0  0  0  0
    9.1260   13.8256   25.7241 S   0  0  0  0  0  0  0  0  0  0  0  0
    9.8743   14.8393   26.4184 O   0  0  0  0  0  0  0  0  0  0  0  0
    8.7560   13.9946   24.3557 O   0  0  0  0  0  0  0  0  0  0  0  0
    9.9717   12.3585   25.7638 N   0  0  0  0  0  0  0  0  0  0  0  0
    9.7591   11.5774   24.5080 C   0  0  0  0  0  0  0  0  0  0  0  0
   10.1963   10.1630   24.6653 C   0  0  0  0  0  0  0  0  0  0  0  0
   11.5858   10.1088   25.2571 C   0  0  0  0  0  0  0  0  0  0  0  0
   12.2975   11.4575   25.5197 C   0  0  0  0  0  0  0  0  0  0  0  0
   11.4139   12.5630   26.0776 C   0  0  0  0  0  0  0  0  0  0  0  0
    6.9163   14.7833   26.8135 C   0  0  0  0  0  0  0  0  0  0  0  0
    6.5358   15.4908   25.5128 C   0  0  0  0  0  0  0  0  0  0  0  0
  1  2  1  0
  2  3  1  0
  2  4  1  0
  4  5  1  0
  5  6  1  0
  6  7  1  0
  7  8  1  0
  8  9  1  1
  9 10  1  0
 10 11  1  0
 11 12  2  0
 11 13  1  0
 13 14  1  0
 14 15  1  0
 15 16  1  0
 16 17  1  0
 17 18  2  0
 17 19  2  0
 17 20  1  0
 20 21  1  0
 21 22  1  0
 22 23  1  0
 23 24  1  0
 24 25  1  0
 16 26  1  0
 26 27  1  0
  8  2  1  0
 27 13  1  0
 25 20  1  0
M  END
>  <energy_score>  (4256) 
-18.731455

>  <inchikey>  (4256) 
FFYITZDKEGKMPA-UHFFFAOYSA-N

>  <smiles>  (4256) 
CC1(C)OCCOC1COC(=O)C1CCN(S(=O)(=O)N2CCCCC2)CC1

>  <ref_pdb>  (4256) 
A0875a

>  <alias>  (4256) 
FFYITZDKEGKMPA-UHFFFAOYSA-N-P439-P87-P439-601505

>  <HIPPO Pose ID>  (4256) 
508099

>  <name>  (4256) 
FFYITZDKEGKMPA-UHFFFAOYSA-N-P439-P87-P439-601505

>  <HIPPO Compound ID>  (4256) 
314585

>  <ref_mols>  (4256) 
A4706a,A0875a

>  <distance_score>  (4256) 
1.755951

>  <inspiration_score>  (4256) 
None

$$$$
GZBFVJUGCGPRQC-UHFFFAOYSA-N-P439-P87-P439-601505
     RDKit          3D

 27 29  0  0  0  0  0  0  0  0999 V2000
   10.7921   15.0369   18.6851 C   0  0  0  0  0  0  0  0  0  0  0  0
   10.0038   15.6671   19.6898 O   0  0  0  0  0  0  0  0  0  0  0  0
    9.7651   14.8139   20.7949 C   0  0  2  0  0  0  0  0  0  0  0  0
    8.2895   14.5781   21.0889 C   0  0  0  0  0  0  0  0  0  0  0  0
    8.4199   13.8634   22.4122 C   0  0  0  0  0  0  0  0  0  0  0  0
    7.2578   13.3765   23.0806 O   0  0  0  0  0  0  0  0  0  0  0  0
    6.2466   14.2177   23.3907 C   0  0  0  0  0  0  0  0  0  0  0  0
    6.0416   15.2918   22.8454 O   0  0  0  0  0  0  0  0  0  0  0  0
    5.4019   13.6975   24.5555 C   0  0  0  0  0  0  0  0  0  0  0  0
    5.9806   12.4735   25.3111 C   0  0  0  0  0  0  0  0  0  0  0  0
    6.9037   12.8851   26.4627 C   0  0  0  0  0  0  0  0  0  0  0  0
    7.5880   14.1144   26.0310 N   0  0  0  0  0  0  0  0  0  0  0  0
    9.1148   14.4937   26.5879 S   0  0  0  0  0  0  0  0  0  0  0  0
    9.1575   14.2418   28.0006 O   0  0  0  0  0  0  0  0  0  0  0  0
    9.4490   15.7997   26.0844 O   0  0  0  0  0  0  0  0  0  0  0  0
   10.1912   13.4570   25.8394 N   0  0  0  0  0  0  0  0  0  0  0  0
    9.8725   12.0471   25.7144 C   0  0  0  0  0  0  0  0  0  0  0  0
   10.9557   11.2788   24.9988 C   0  0  0  0  0  0  0  0  0  0  0  0
   12.3742   11.6258   25.4514 C   0  0  0  0  0  0  0  0  0  0  0  0
   12.5767   13.1004   25.2678 C   0  0  0  0  0  0  0  0  0  0  0  0
   11.5920   13.8102   26.1752 C   0  0  0  0  0  0  0  0  0  0  0  0
    6.6350   15.2709   26.0980 C   0  0  0  0  0  0  0  0  0  0  0  0
    5.2630   14.8543   25.5530 C   0  0  0  0  0  0  0  0  0  0  0  0
    9.2842   14.8465   23.1640 C   0  0  0  0  0  0  0  0  0  0  0  0
   10.2140   15.4418   22.1206 C   0  0  1  0  0  0  0  0  0  0  0  0
   11.5317   15.0711   22.5081 O   0  0  0  0  0  0  0  0  0  0  0  0
   12.4825   15.6545   21.6536 C   0  0  0  0  0  0  0  0  0  0  0  0
  1  2  1  0
  3  2  1  6
  3  4  1  0
  4  5  1  0
  5  6  1  0
  6  7  1  0
  7  8  2  0
  7  9  1  0
  9 10  1  0
 10 11  1  0
 11 12  1  0
 12 13  1  0
 13 14  2  0
 13 15  2  0
 13 16  1  0
 16 17  1  0
 17 18  1  0
 18 19  1  0
 19 20  1  0
 20 21  1  0
 12 22  1  0
 22 23  1  0
  5 24  1  0
 24 25  1  0
 25 26  1  1
 26 27  1  0
 25  3  1  0
 23  9  1  0
 21 16  1  0
M  END
>  <energy_score>  (4257) 
-50.55343

>  <inchikey>  (4257) 
GZBFVJUGCGPRQC-UHFFFAOYSA-N

>  <smiles>  (4257) 
COC1CC(OC(=O)C2CCN(S(=O)(=O)N3CCCCC3)CC2)CC1OC

>  <ref_pdb>  (4257) 
A0875a

>  <alias>  (4257) 
GZBFVJUGCGPRQC-UHFFFAOYSA-N-P439-P87-P439-601505

>  <HIPPO Pose ID>  (4257) 
508101

>  <name>  (4257) 
GZBFVJUGCGPRQC-UHFFFAOYSA-N-P439-P87-P439-601505

>  <HIPPO Compound ID>  (4257) 
314586

>  <ref_mols>  (4257) 
A4706a,A0875a

>  <distance_score>  (4257) 
1.904668

>  <inspiration_score>  (4257) 
None

$$$$
HTPIFEYHLGZKKC-UHFFFAOYSA-N-P439-P87-P439-601505
     RDKit          3D

 27 29  0  0  0  0  0  0  0  0999 V2000
    6.7715   16.5169   22.0746 C   0  0  0  0  0  0  0  0  0  0  0  0
    7.5259   15.2554   22.4348 C   0  0  0  0  0  0  0  0  0  0  0  0
    6.9694   14.0390   21.6994 C   0  0  0  0  0  0  0  0  0  0  0  0
    7.2382   15.0286   23.8538 O   0  0  0  0  0  0  0  0  0  0  0  0
    5.9317   14.8543   24.2444 C   0  0  0  0  0  0  0  0  0  0  0  0
    4.9310   15.1739   23.6101 O   0  0  0  0  0  0  0  0  0  0  0  0
    5.7870   14.0960   25.5475 C   0  0  0  0  0  0  0  0  0  0  0  0
    6.0784   12.6018   25.2905 C   0  0  0  0  0  0  0  0  0  0  0  0
    7.2041   11.9607   26.0841 C   0  0  0  0  0  0  0  0  0  0  0  0
    8.1502   12.9727   26.5625 N   0  0  0  0  0  0  0  0  0  0  0  0
    9.2238   13.6270   25.4337 S   0  0  0  0  0  0  0  0  0  0  0  0
    9.3613   15.0244   25.7647 O   0  0  0  0  0  0  0  0  0  0  0  0
    8.8845   13.0903   24.1396 O   0  0  0  0  0  0  0  0  0  0  0  0
   10.6473   12.8653   25.8973 N   0  0  0  0  0  0  0  0  0  0  0  0
   11.8293   13.7553   25.8599 C   0  0  0  0  0  0  0  0  0  0  0  0
   12.8183   13.2907   24.8055 C   0  0  0  0  0  0  0  0  0  0  0  0
   13.4093   11.9613   25.1846 C   0  0  0  0  0  0  0  0  0  0  0  0
   12.2753   11.0966   25.6293 C   0  0  0  0  0  0  0  0  0  0  0  0
   10.8715   11.5600   25.2434 C   0  0  0  0  0  0  0  0  0  0  0  0
    7.4741   13.9460   27.4512 C   0  0  0  0  0  0  0  0  0  0  0  0
    6.5080   14.8170   26.6796 C   0  0  0  0  0  0  0  0  0  0  0  0
    9.0688   15.5295   21.9924 C   0  0  2  0  0  0  0  0  0  0  0  0
    9.4142   14.9618   20.5777 C   0  0  0  0  0  0  0  0  0  0  0  0
   10.7367   15.3194   20.0583 N   0  0  0  0  0  0  0  0  0  0  0  0
   11.7251   14.9296   21.0594 C   0  0  0  0  0  0  0  0  0  0  0  0
   11.3682   15.5013   22.4289 C   0  0  0  0  0  0  0  0  0  0  0  0
   10.0859   15.0580   22.8923 O   0  0  0  0  0  0  0  0  0  0  0  0
  1  2  1  0
  2  3  1  0
  2  4  1  0
  4  5  1  0
  5  6  2  0
  5  7  1  0
  7  8  1  0
  8  9  1  0
  9 10  1  0
 10 11  1  0
 11 12  2  0
 11 13  2  0
 11 14  1  0
 14 15  1  0
 15 16  1  0
 16 17  1  0
 17 18  1  0
 18 19  1  0
 10 20  1  0
 20 21  1  0
 22  2  1  1
 22 23  1  0
 23 24  1  0
 24 25  1  0
 25 26  1  0
 26 27  1  0
 21  7  1  0
 27 22  1  0
 19 14  1  0
M  END
>  <energy_score>  (4258) 
-33.427374

>  <inchikey>  (4258) 
HTPIFEYHLGZKKC-UHFFFAOYSA-N

>  <smiles>  (4258) 
CC(C)(OC(=O)C1CCN(S(=O)(=O)N2CCCCC2)CC1)C1CNCCO1

>  <ref_pdb>  (4258) 
A0875a

>  <alias>  (4258) 
HTPIFEYHLGZKKC-UHFFFAOYSA-N-P439-P87-P439-601505

>  <HIPPO Pose ID>  (4258) 
508103

>  <name>  (4258) 
HTPIFEYHLGZKKC-UHFFFAOYSA-N-P439-P87-P439-601505

>  <HIPPO Compound ID>  (4258) 
314587

>  <ref_mols>  (4258) 
A4706a,A0875a

>  <distance_score>  (4258) 
1.737045

>  <inspiration_score>  (4258) 
None

$$$$
BPEIYWIVUFCSCD-UHFFFAOYSA-N-P439-P87-P439-601505
     RDKit          3D

 27 30  0  0  0  0  0  0  0  0999 V2000
    6.6326   12.9043   22.5448 O   0  0  0  0  0  0  0  0  0  0  0  0
    7.0996   13.6825   23.3688 C   0  0  0  0  0  0  0  0  0  0  0  0
    8.2883   14.3082   23.2151 O   0  0  0  0  0  0  0  0  0  0  0  0
    9.2815   13.5818   22.4686 C   0  0  0  0  0  0  0  0  0  0  0  0
    9.5546   14.2391   21.1950 C   0  0  0  0  0  0  0  0  0  0  0  0
    8.5901   14.5430   20.3930 N   0  0  0  0  0  0  0  0  0  0  0  0
    9.1846   15.3181   19.3847 O   0  0  0  0  0  0  0  0  0  0  0  0
   10.3528   15.8216   19.9669 C   0  0  1  0  0  0  0  0  0  0  0  0
   10.0674   16.8302   21.0793 C   0  0  0  0  0  0  0  0  0  0  0  0
   11.1516   16.6468   22.0177 O   0  0  0  0  0  0  0  0  0  0  0  0
   11.7722   15.3919   21.7596 C   0  0  0  0  0  0  0  0  0  0  0  0
   10.9103   14.6912   20.7617 C   0  0  1  0  0  0  0  0  0  0  0  0
    6.4210   13.9392   24.7247 C   0  0  0  0  0  0  0  0  0  0  0  0
    6.3385   12.6166   25.5197 C   0  0  0  0  0  0  0  0  0  0  0  0
    7.3625   12.3834   26.6418 C   0  0  0  0  0  0  0  0  0  0  0  0
    8.4180   13.4472   26.7310 N   0  0  0  0  0  0  0  0  0  0  0  0
    9.6207   13.3370   25.5838 S   0  0  0  0  0  0  0  0  0  0  0  0
    9.1776   12.2725   24.7110 O   0  0  0  0  0  0  0  0  0  0  0  0
    9.9602   14.6686   25.1326 O   0  0  0  0  0  0  0  0  0  0  0  0
   11.0749   12.7304   26.1760 N   0  0  0  0  0  0  0  0  0  0  0  0
   11.9706   12.5270   24.9758 C   0  0  0  0  0  0  0  0  0  0  0  0
   13.1370   11.6542   25.3621 C   0  0  0  0  0  0  0  0  0  0  0  0
   13.9764   12.3500   26.4042 C   0  0  0  0  0  0  0  0  0  0  0  0
   13.1237   12.9026   27.5435 C   0  0  0  0  0  0  0  0  0  0  0  0
   11.7969   13.5836   27.1392 C   0  0  0  0  0  0  0  0  0  0  0  0
    7.7309   14.7629   26.8211 C   0  0  0  0  0  0  0  0  0  0  0  0
    6.9514   15.1187   25.5505 C   0  0  0  0  0  0  0  0  0  0  0  0
  1  2  2  0
  2  3  1  0
  3  4  1  0
  4  5  1  0
  5  6  2  0
  6  7  1  0
  7  8  1  0
  8  9  1  1
  9 10  1  0
 10 11  1  0
 12 11  1  1
  2 13  1  0
 13 14  1  0
 14 15  1  0
 15 16  1  0
 16 17  1  0
 17 18  2  0
 17 19  2  0
 17 20  1  0
 20 21  1  0
 21 22  1  0
 22 23  1  0
 23 24  1  0
 24 25  1  0
 16 26  1  0
 26 27  1  0
 12  5  1  0
 27 13  1  0
 12  8  1  0
 25 20  1  0
M  END
>  <energy_score>  (4259) 
-28.065238

>  <inchikey>  (4259) 
BPEIYWIVUFCSCD-UHFFFAOYSA-N

>  <smiles>  (4259) 
O=C(OCC1=NOC2COCC12)C1CCN(S(=O)(=O)N2CCCCC2)CC1

>  <ref_pdb>  (4259) 
A0875a

>  <alias>  (4259) 
BPEIYWIVUFCSCD-UHFFFAOYSA-N-P439-P87-P439-601505

>  <HIPPO Pose ID>  (4259) 
508107

>  <name>  (4259) 
BPEIYWIVUFCSCD-UHFFFAOYSA-N-P439-P87-P439-601505

>  <HIPPO Compound ID>  (4259) 
314589

>  <ref_mols>  (4259) 
A4706a,A0875a

>  <distance_score>  (4259) 
1.775184

>  <inspiration_score>  (4259) 
None

$$$$
UYQCRARRSHVBIM-UHFFFAOYSA-N-P439-P87-P439-601505
     RDKit          3D

 27 29  0  0  0  0  0  0  0  0999 V2000
   11.0305   14.5573   19.6511 C   0  0  0  0  0  0  0  0  0  0  0  0
   10.0771   15.1070   20.7405 C   0  0  0  0  0  0  0  0  0  0  0  0
    8.7176   15.2285   20.1956 C   0  0  0  0  0  0  0  0  0  0  0  0
   10.5020   16.4390   20.9171 O   0  0  0  0  0  0  0  0  0  0  0  0
   11.5744   16.3430   21.8168 C   0  0  0  0  0  0  0  0  0  0  0  0
   11.2088   15.3100   22.8252 C   0  0  0  0  0  0  0  0  0  0  0  0
   10.0690   14.5321   22.1818 C   0  0  2  0  0  0  0  0  0  0  0  0
   10.3568   13.0529   22.1162 C   0  0  0  0  0  0  0  0  0  0  0  0
    9.9153   12.1841   23.1844 N   0  0  0  0  0  0  0  0  0  0  0  0
    8.8743   14.8088   23.0244 O   0  0  0  0  0  0  0  0  0  0  0  0
    7.8006   13.9762   23.0883 C   0  0  0  0  0  0  0  0  0  0  0  0
    7.3707   13.2904   22.1612 O   0  0  0  0  0  0  0  0  0  0  0  0
    7.1410   13.8669   24.4710 C   0  0  0  0  0  0  0  0  0  0  0  0
    7.1836   12.4093   24.9914 C   0  0  0  0  0  0  0  0  0  0  0  0
    8.3683   12.0112   25.8845 C   0  0  0  0  0  0  0  0  0  0  0  0
    8.9337   13.1281   26.6641 N   0  0  0  0  0  0  0  0  0  0  0  0
   10.4678   13.7628   26.4039 S   0  0  0  0  0  0  0  0  0  0  0  0
   10.5106   14.1471   25.0278 O   0  0  0  0  0  0  0  0  0  0  0  0
   10.6563   14.7481   27.4348 O   0  0  0  0  0  0  0  0  0  0  0  0
   11.6796   12.5522   26.5853 N   0  0  0  0  0  0  0  0  0  0  0  0
   12.8715   12.9663   27.3901 C   0  0  0  0  0  0  0  0  0  0  0  0
   14.2036   12.8106   26.6670 C   0  0  0  0  0  0  0  0  0  0  0  0
   14.4306   11.3885   26.2835 C   0  0  0  0  0  0  0  0  0  0  0  0
   13.3403   11.0160   25.3271 C   0  0  0  0  0  0  0  0  0  0  0  0
   12.0345   11.8188   25.3492 C   0  0  0  0  0  0  0  0  0  0  0  0
    7.8907   14.1891   26.8797 C   0  0  0  0  0  0  0  0  0  0  0  0
    7.5350   14.8698   25.5571 C   0  0  0  0  0  0  0  0  0  0  0  0
  1  2  1  0
  2  3  1  0
  2  4  1  0
  4  5  1  0
  5  6  1  0
  6  7  1  0
  7  8  1  6
  8  9  1  0
  7 10  1  0
 10 11  1  0
 11 12  2  0
 11 13  1  0
 13 14  1  0
 14 15  1  0
 15 16  1  0
 16 17  1  0
 17 18  2  0
 17 19  2  0
 17 20  1  0
 20 21  1  0
 21 22  1  0
 22 23  1  0
 23 24  1  0
 24 25  1  0
 16 26  1  0
 26 27  1  0
  7  2  1  0
 27 13  1  0
 25 20  1  0
M  END
>  <energy_score>  (4260) 
-12.432471

>  <inchikey>  (4260) 
UYQCRARRSHVBIM-UHFFFAOYSA-N

>  <smiles>  (4260) 
CC1(C)OCCC1(CN)OC(=O)C1CCN(S(=O)(=O)N2CCCCC2)CC1

>  <ref_pdb>  (4260) 
A0875a

>  <alias>  (4260) 
UYQCRARRSHVBIM-UHFFFAOYSA-N-P439-P87-P439-601505

>  <HIPPO Pose ID>  (4260) 
508111

>  <name>  (4260) 
UYQCRARRSHVBIM-UHFFFAOYSA-N-P439-P87-P439-601505

>  <HIPPO Compound ID>  (4260) 
314591

>  <ref_mols>  (4260) 
A4706a,A0875a

>  <distance_score>  (4260) 
1.61173

>  <inspiration_score>  (4260) 
None

$$$$
QEGSYYIZQOTQSB-UHFFFAOYSA-N-P439-P87-P439-601505
     RDKit          3D

 27 30  0  0  0  0  0  0  0  0999 V2000
    6.9924   16.0567   23.7448 O   0  0  0  0  0  0  0  0  0  0  0  0
    7.0201   14.8483   23.9058 C   0  0  0  0  0  0  0  0  0  0  0  0
    7.7720   13.9962   23.1840 O   0  0  0  0  0  0  0  0  0  0  0  0
    8.8724   14.3851   22.3354 C   0  0  2  0  0  0  0  0  0  0  0  0
   10.0332   15.2764   22.8075 C   0  0  0  0  0  0  0  0  0  0  0  0
   10.5380   16.0059   21.6696 O   0  0  0  0  0  0  0  0  0  0  0  0
    9.8455   15.4738   20.5460 C   0  0  2  0  0  0  0  0  0  0  0  0
   10.6883   14.3499   20.0342 C   0  0  0  0  0  0  0  0  0  0  0  0
   11.4490   14.8620   18.8533 C   0  0  0  0  0  0  0  0  0  0  0  0
   10.9610   16.1570   18.5807 O   0  0  0  0  0  0  0  0  0  0  0  0
    9.7687   16.3417   19.3347 C   0  0  0  0  0  0  0  0  0  0  0  0
    8.4772   15.0835   21.0825 C   0  0  0  0  0  0  0  0  0  0  0  0
    6.1743   14.1487   24.9850 C   0  0  0  0  0  0  0  0  0  0  0  0
    6.2389   12.6122   25.0849 C   0  0  0  0  0  0  0  0  0  0  0  0
    7.0638   12.0723   26.2610 C   0  0  0  0  0  0  0  0  0  0  0  0
    8.1814   12.9880   26.5980 N   0  0  0  0  0  0  0  0  0  0  0  0
    9.3985   13.0874   25.4557 S   0  0  0  0  0  0  0  0  0  0  0  0
    9.6289   14.4840   25.2067 O   0  0  0  0  0  0  0  0  0  0  0  0
    9.0547   12.1508   24.4109 O   0  0  0  0  0  0  0  0  0  0  0  0
   10.8307   12.4862   26.1433 N   0  0  0  0  0  0  0  0  0  0  0  0
   11.5570   11.7303   25.0941 C   0  0  0  0  0  0  0  0  0  0  0  0
   12.9469   11.2132   25.4514 C   0  0  0  0  0  0  0  0  0  0  0  0
   13.5174   11.7602   26.7313 C   0  0  0  0  0  0  0  0  0  0  0  0
   13.1494   13.1964   26.7580 C   0  0  0  0  0  0  0  0  0  0  0  0
   11.6583   13.5031   26.8369 C   0  0  0  0  0  0  0  0  0  0  0  0
    7.6574   14.2840   27.1191 C   0  0  0  0  0  0  0  0  0  0  0  0
    6.4199   14.7827   26.3602 C   0  0  0  0  0  0  0  0  0  0  0  0
  1  2  2  0
  2  3  1  0
  4  3  1  1
  4  5  1  0
  5  6  1  0
  6  7  1  0
  7  8  1  6
  8  9  1  0
  9 10  1  0
 10 11  1  0
  7 12  1  0
  2 13  1  0
 13 14  1  0
 14 15  1  0
 15 16  1  0
 16 17  1  0
 17 18  2  0
 17 19  2  0
 17 20  1  0
 20 21  1  0
 21 22  1  0
 22 23  1  0
 23 24  1  0
 24 25  1  0
 16 26  1  0
 26 27  1  0
 12  4  1  0
 27 13  1  0
 11  7  1  0
 25 20  1  0
M  END
>  <energy_score>  (4261) 
-29.410433

>  <inchikey>  (4261) 
QEGSYYIZQOTQSB-UHFFFAOYSA-N

>  <smiles>  (4261) 
O=C(OC1COC2(CCOC2)C1)C1CCN(S(=O)(=O)N2CCCCC2)CC1

>  <ref_pdb>  (4261) 
A0875a

>  <alias>  (4261) 
QEGSYYIZQOTQSB-UHFFFAOYSA-N-P439-P87-P439-601505

>  <HIPPO Pose ID>  (4261) 
508113

>  <name>  (4261) 
QEGSYYIZQOTQSB-UHFFFAOYSA-N-P439-P87-P439-601505

>  <HIPPO Compound ID>  (4261) 
314592

>  <ref_mols>  (4261) 
A4706a,A0875a

>  <distance_score>  (4261) 
1.680659

>  <inspiration_score>  (4261) 
None

$$$$
LVEAUAOBWZQCFD-UHFFFAOYSA-N-P439-P87-P439-601505
     RDKit          3D

 27 30  0  0  0  0  0  0  0  0999 V2000
    6.0415   15.4065   22.3442 O   0  0  0  0  0  0  0  0  0  0  0  0
    6.7509   14.8039   23.1395 C   0  0  0  0  0  0  0  0  0  0  0  0
    8.0968   14.6061   22.9959 O   0  0  0  0  0  0  0  0  0  0  0  0
    8.7402   15.2742   21.8889 C   0  0  2  0  0  0  0  0  0  0  0  0
    8.4058   14.5447   20.6208 C   0  0  0  0  0  0  0  0  0  0  0  0
    8.9538   15.1768   19.4636 O   0  0  0  0  0  0  0  0  0  0  0  0
   10.3666   15.1637   19.4213 C   0  0  0  0  0  0  0  0  0  0  0  0
   10.8341   15.8517   20.6710 C   0  0  0  0  0  0  0  0  0  0  0  0
   10.2702   15.1697   21.9191 C   0  0  0  0  0  0  0  0  0  0  0  0
   10.9954   15.7320   23.1306 C   0  0  0  0  0  0  0  0  0  0  0  0
   11.9590   14.5695   23.0731 C   0  0  0  0  0  0  0  0  0  0  0  0
   10.9895   13.8212   22.1714 C   0  0  0  0  0  0  0  0  0  0  0  0
    6.1769   14.1862   24.4161 C   0  0  0  0  0  0  0  0  0  0  0  0
    6.7524   12.7844   24.6846 C   0  0  0  0  0  0  0  0  0  0  0  0
    6.9061   12.4362   26.1512 C   0  0  0  0  0  0  0  0  0  0  0  0
    7.5166   13.5408   26.9009 N   0  0  0  0  0  0  0  0  0  0  0  0
    9.0707   14.1367   26.6144 S   0  0  0  0  0  0  0  0  0  0  0  0
    9.0979   14.7489   25.3166 O   0  0  0  0  0  0  0  0  0  0  0  0
    9.4193   14.9255   27.7682 O   0  0  0  0  0  0  0  0  0  0  0  0
   10.1743   12.8306   26.5560 N   0  0  0  0  0  0  0  0  0  0  0  0
   10.0086   12.0359   25.3330 C   0  0  0  0  0  0  0  0  0  0  0  0
   11.0374   10.9715   25.1467 C   0  0  0  0  0  0  0  0  0  0  0  0
   12.4604   11.5162   25.2790 C   0  0  0  0  0  0  0  0  0  0  0  0
   12.6692   12.3879   26.4968 C   0  0  0  0  0  0  0  0  0  0  0  0
   11.5611   13.4078   26.6848 C   0  0  0  0  0  0  0  0  0  0  0  0
    6.5115   14.6474   26.9551 C   0  0  0  0  0  0  0  0  0  0  0  0
    6.2557   15.2168   25.5591 C   0  0  0  0  0  0  0  0  0  0  0  0
  1  2  2  0
  2  3  1  0
  4  3  1  1
  4  5  1  0
  5  6  1  0
  6  7  1  0
  7  8  1  0
  8  9  1  0
  9 10  1  0
 10 11  1  0
 11 12  1  0
  2 13  1  0
 13 14  1  0
 14 15  1  0
 15 16  1  0
 16 17  1  0
 17 18  2  0
 17 19  2  0
 17 20  1  0
 20 21  1  0
 21 22  1  0
 22 23  1  0
 23 24  1  0
 24 25  1  0
 16 26  1  0
 26 27  1  0
  9  4  1  0
 27 13  1  0
 12  9  1  0
 25 20  1  0
M  END
>  <energy_score>  (4262) 
-62.107246

>  <inchikey>  (4262) 
LVEAUAOBWZQCFD-UHFFFAOYSA-N

>  <smiles>  (4262) 
O=C(OC1COCCC12CCC2)C1CCN(S(=O)(=O)N2CCCCC2)CC1

>  <ref_pdb>  (4262) 
A0875a

>  <alias>  (4262) 
LVEAUAOBWZQCFD-UHFFFAOYSA-N-P439-P87-P439-601505

>  <HIPPO Pose ID>  (4262) 
508115

>  <name>  (4262) 
LVEAUAOBWZQCFD-UHFFFAOYSA-N-P439-P87-P439-601505

>  <HIPPO Compound ID>  (4262) 
314593

>  <ref_mols>  (4262) 
A4706a,A0875a

>  <distance_score>  (4262) 
1.721685

>  <inspiration_score>  (4262) 
None

$$$$
IWOLJXCCZAENPR-UHFFFAOYSA-N-P439-P87-P439-601505
     RDKit          3D

 27 30  0  0  0  0  0  0  0  0999 V2000
    5.9843   14.5079   21.4818 N   0  0  0  0  0  0  0  0  0  0  0  0
    7.4045   14.2275   21.1808 C   0  0  0  0  0  0  0  0  0  0  0  0
    8.4077   14.9318   22.0870 C   0  0  2  0  0  0  0  0  0  0  0  0
    7.7745   14.9645   23.4110 O   0  0  0  0  0  0  0  0  0  0  0  0
    7.2213   13.7800   23.8482 C   0  0  0  0  0  0  0  0  0  0  0  0
    7.5942   12.6609   23.4917 O   0  0  0  0  0  0  0  0  0  0  0  0
    6.0050   13.9431   24.7581 C   0  0  0  0  0  0  0  0  0  0  0  0
    6.0424   12.8400   25.8401 C   0  0  0  0  0  0  0  0  0  0  0  0
    7.1205   13.1198   26.8999 C   0  0  0  0  0  0  0  0  0  0  0  0
    7.9053   14.2690   26.4288 N   0  0  0  0  0  0  0  0  0  0  0  0
    9.5028   14.5270   26.7764 S   0  0  0  0  0  0  0  0  0  0  0  0
    9.5889   14.8745   28.1681 O   0  0  0  0  0  0  0  0  0  0  0  0
   10.0339   15.3931   25.7488 O   0  0  0  0  0  0  0  0  0  0  0  0
   10.2709   13.0398   26.5928 N   0  0  0  0  0  0  0  0  0  0  0  0
   11.7353   13.1533   26.8673 C   0  0  0  0  0  0  0  0  0  0  0  0
   12.5377   13.3037   25.6070 C   0  0  0  0  0  0  0  0  0  0  0  0
   12.2982   12.1723   24.6603 C   0  0  0  0  0  0  0  0  0  0  0  0
   10.9679   11.4498   24.8507 C   0  0  0  0  0  0  0  0  0  0  0  0
    9.9166   12.3818   25.3327 C   0  0  0  0  0  0  0  0  0  0  0  0
    7.0820   15.5036   26.4113 C   0  0  0  0  0  0  0  0  0  0  0  0
    5.9330   15.3099   25.4296 C   0  0  0  0  0  0  0  0  0  0  0  0
    8.6430   16.3506   21.4894 C   0  0  0  0  0  0  0  0  0  0  0  0
    9.7735   16.4290   20.6196 O   0  0  0  0  0  0  0  0  0  0  0  0
   10.8941   15.6619   21.1120 C   0  0  2  0  0  0  0  0  0  0  0  0
   10.6547   14.1949   20.8431 C   0  0  0  0  0  0  0  0  0  0  0  0
    9.7914   14.2340   22.1468 C   0  0  1  0  0  0  0  0  0  0  0  0
   10.8779   15.2399   22.6114 C   0  0  0  0  0  0  0  0  0  0  0  0
  1  2  1  0
  3  2  1  6
  3  4  1  0
  4  5  1  0
  5  6  2  0
  5  7  1  0
  7  8  1  0
  8  9  1  0
  9 10  1  0
 10 11  1  0
 11 12  2  0
 11 13  2  0
 11 14  1  0
 14 15  1  0
 15 16  1  0
 16 17  1  0
 17 18  1  0
 18 19  1  0
 10 20  1  0
 20 21  1  0
  3 22  1  0
 22 23  1  0
 23 24  1  0
 24 25  1  6
 26 25  1  6
 26 27  1  0
 26  3  1  0
 21  7  1  0
 27 24  1  0
 19 14  1  0
M  END
>  <energy_score>  (4263) 
-68.086267

>  <inchikey>  (4263) 
IWOLJXCCZAENPR-UHFFFAOYSA-N

>  <smiles>  (4263) 
NCC1(OC(=O)C2CCN(S(=O)(=O)N3CCCCC3)CC2)COC2CC1C2

>  <ref_pdb>  (4263) 
A0875a

>  <alias>  (4263) 
IWOLJXCCZAENPR-UHFFFAOYSA-N-P439-P87-P439-601505

>  <HIPPO Pose ID>  (4263) 
508117

>  <name>  (4263) 
IWOLJXCCZAENPR-UHFFFAOYSA-N-P439-P87-P439-601505

>  <HIPPO Compound ID>  (4263) 
314594

>  <ref_mols>  (4263) 
A4706a,A0875a

>  <distance_score>  (4263) 
1.91149

>  <inspiration_score>  (4263) 
None

$$$$
KCADPSQSZXDXFU-UHFFFAOYSA-N-P439-P87-P439-601505
     RDKit          3D

 27 30  0  0  0  0  0  0  0  0999 V2000
    7.4244   14.2947   20.8049 N   0  0  0  0  0  0  0  0  0  0  0  0
    8.1878   15.5366   20.9185 C   0  0  2  0  0  0  0  0  0  0  0  0
    9.2815   15.7216   19.8400 C   0  0  0  0  0  0  0  0  0  0  0  0
   10.3951   15.0506   20.3643 O   0  0  0  0  0  0  0  0  0  0  0  0
   10.3073   15.0535   21.8096 C   0  0  0  0  0  0  0  0  0  0  0  0
   11.1213   13.9295   22.4222 C   0  0  0  0  0  0  0  0  0  0  0  0
   12.3005   14.9006   22.3553 C   0  0  0  0  0  0  0  0  0  0  0  0
   11.3045   16.0138   22.4717 C   0  0  0  0  0  0  0  0  0  0  0  0
    8.9504   15.5885   22.1940 C   0  0  2  0  0  0  0  0  0  0  0  0
    8.1733   15.1165   23.3220 O   0  0  0  0  0  0  0  0  0  0  0  0
    7.8345   13.8261   23.5187 C   0  0  0  0  0  0  0  0  0  0  0  0
    8.3459   12.8654   22.9553 O   0  0  0  0  0  0  0  0  0  0  0  0
    6.6408   13.6818   24.4613 C   0  0  0  0  0  0  0  0  0  0  0  0
    6.6422   12.2750   25.0688 C   0  0  0  0  0  0  0  0  0  0  0  0
    7.8559   12.0559   25.9616 C   0  0  0  0  0  0  0  0  0  0  0  0
    8.2113   13.2829   26.6882 N   0  0  0  0  0  0  0  0  0  0  0  0
    9.6729   14.0786   26.5200 S   0  0  0  0  0  0  0  0  0  0  0  0
    9.7667   14.9300   27.6803 O   0  0  0  0  0  0  0  0  0  0  0  0
    9.8064   14.6770   25.2215 O   0  0  0  0  0  0  0  0  0  0  0  0
   10.8682   12.8750   26.6736 N   0  0  0  0  0  0  0  0  0  0  0  0
   11.2069   12.1332   25.4230 C   0  0  0  0  0  0  0  0  0  0  0  0
   12.5650   12.5706   24.9215 C   0  0  0  0  0  0  0  0  0  0  0  0
   13.6664   12.1538   25.8677 C   0  0  0  0  0  0  0  0  0  0  0  0
   13.3058   12.5813   27.2797 C   0  0  0  0  0  0  0  0  0  0  0  0
   12.0703   13.4767   27.3422 C   0  0  0  0  0  0  0  0  0  0  0  0
    7.0512   14.1794   26.9158 C   0  0  0  0  0  0  0  0  0  0  0  0
    6.5588   14.7302   25.5814 C   0  0  0  0  0  0  0  0  0  0  0  0
  2  1  1  6
  2  3  1  0
  3  4  1  0
  4  5  1  0
  5  6  1  0
  6  7  1  0
  7  8  1  0
  5  9  1  0
  9 10  1  1
 10 11  1  0
 11 12  2  0
 11 13  1  0
 13 14  1  0
 14 15  1  0
 15 16  1  0
 16 17  1  0
 17 18  2  0
 17 19  2  0
 17 20  1  0
 20 21  1  0
 21 22  1  0
 22 23  1  0
 23 24  1  0
 24 25  1  0
 16 26  1  0
 26 27  1  0
  9  2  1  0
 27 13  1  0
  8  5  1  0
 25 20  1  0
M  END
>  <energy_score>  (4264) 
-32.087993

>  <inchikey>  (4264) 
KCADPSQSZXDXFU-UHFFFAOYSA-N

>  <smiles>  (4264) 
NC1COC2(CCC2)C1OC(=O)C1CCN(S(=O)(=O)N2CCCCC2)CC1

>  <ref_pdb>  (4264) 
A0875a

>  <alias>  (4264) 
KCADPSQSZXDXFU-UHFFFAOYSA-N-P439-P87-P439-601505

>  <HIPPO Pose ID>  (4264) 
508119

>  <name>  (4264) 
KCADPSQSZXDXFU-UHFFFAOYSA-N-P439-P87-P439-601505

>  <HIPPO Compound ID>  (4264) 
314595

>  <ref_mols>  (4264) 
A4706a,A0875a

>  <distance_score>  (4264) 
1.746937

>  <inspiration_score>  (4264) 
None

$$$$
QEALSLMLYDMSEE-UHFFFAOYSA-N-P439-P87-P439-601505
     RDKit          3D

 27 30  0  0  0  0  0  0  0  0999 V2000
    6.7612   14.5019   21.2148 C   0  0  0  0  0  0  0  0  0  0  0  0
    7.7211   15.3382   22.0438 C   0  0  1  0  0  0  0  0  0  0  0  0
    7.3215   15.1199   23.4176 O   0  0  0  0  0  0  0  0  0  0  0  0
    7.1223   13.8460   23.8413 C   0  0  0  0  0  0  0  0  0  0  0  0
    7.4837   12.8276   23.2504 O   0  0  0  0  0  0  0  0  0  0  0  0
    6.2850   13.7819   25.1089 C   0  0  0  0  0  0  0  0  0  0  0  0
    6.4066   12.3617   25.6743 C   0  0  0  0  0  0  0  0  0  0  0  0
    7.8667   12.0653   26.0139 C   0  0  0  0  0  0  0  0  0  0  0  0
    8.5376   13.2087   26.6804 N   0  0  0  0  0  0  0  0  0  0  0  0
    9.8545   14.0013   25.9942 S   0  0  0  0  0  0  0  0  0  0  0  0
    9.5105   14.4533   24.6822 O   0  0  0  0  0  0  0  0  0  0  0  0
   10.3065   14.9544   26.9783 O   0  0  0  0  0  0  0  0  0  0  0  0
   11.1125   12.9208   25.8104 N   0  0  0  0  0  0  0  0  0  0  0  0
   12.2993   13.5963   25.2134 C   0  0  0  0  0  0  0  0  0  0  0  0
   13.5783   12.9144   25.6933 C   0  0  0  0  0  0  0  0  0  0  0  0
   13.6035   11.4792   25.2234 C   0  0  0  0  0  0  0  0  0  0  0  0
   12.2433   10.8951   25.4910 C   0  0  0  0  0  0  0  0  0  0  0  0
   10.9684   11.6513   25.1128 C   0  0  0  0  0  0  0  0  0  0  0  0
    7.5487   14.1657   27.2715 C   0  0  0  0  0  0  0  0  0  0  0  0
    6.6940   14.8007   26.1772 C   0  0  0  0  0  0  0  0  0  0  0  0
    9.2255   15.2156   21.6282 C   0  0  1  0  0  0  0  0  0  0  0  0
    9.5391   15.6229   20.1492 C   0  0  0  0  0  0  0  0  0  0  0  0
   10.8763   14.9420   19.8517 C   0  0  0  0  0  0  0  0  0  0  0  0
   11.2310   14.3758   21.2206 C   0  0  1  0  0  0  0  0  0  0  0  0
   11.4418   15.5394   22.1654 C   0  0  0  0  0  0  0  0  0  0  0  0
   10.1156   16.0363   22.4095 O   0  0  0  0  0  0  0  0  0  0  0  0
    9.8912   13.8699   21.7087 C   0  0  0  0  0  0  0  0  0  0  0  0
  2  1  1  6
  2  3  1  0
  3  4  1  0
  4  5  2  0
  4  6  1  0
  6  7  1  0
  7  8  1  0
  8  9  1  0
  9 10  1  0
 10 11  2  0
 10 12  2  0
 10 13  1  0
 13 14  1  0
 14 15  1  0
 15 16  1  0
 16 17  1  0
 17 18  1  0
  9 19  1  0
 19 20  1  0
  2 21  1  0
 21 22  1  6
 22 23  1  0
 24 23  1  6
 24 25  1  0
 25 26  1  0
 24 27  1  0
 20  6  1  0
 26 21  1  0
 18 13  1  0
 27 21  1  0
M  END
>  <energy_score>  (4265) 
-16.131841

>  <inchikey>  (4265) 
QEALSLMLYDMSEE-UHFFFAOYSA-N

>  <smiles>  (4265) 
CC(OC(=O)C1CCN(S(=O)(=O)N2CCCCC2)CC1)C12CCC(CO1)C2

>  <ref_pdb>  (4265) 
A0875a

>  <alias>  (4265) 
QEALSLMLYDMSEE-UHFFFAOYSA-N-P439-P87-P439-601505

>  <HIPPO Pose ID>  (4265) 
508123

>  <name>  (4265) 
QEALSLMLYDMSEE-UHFFFAOYSA-N-P439-P87-P439-601505

>  <HIPPO Compound ID>  (4265) 
314597

>  <ref_mols>  (4265) 
A4706a,A0875a

>  <distance_score>  (4265) 
1.313513

>  <inspiration_score>  (4265) 
None

$$$$
WOVGPWGFOGVDDY-UHFFFAOYSA-N-P87-P87-P439-601505
     RDKit          3D

 27 30  0  0  0  0  0  0  0  0999 V2000
    5.4012   14.2927   23.0817 O   0  0  0  0  0  0  0  0  0  0  0  0
    6.5828   14.0098   22.9641 C   0  0  0  0  0  0  0  0  0  0  0  0
    7.3060   14.2534   21.8384 O   0  0  0  0  0  0  0  0  0  0  0  0
    8.2101   15.3541   22.0073 C   0  0  0  0  0  0  0  0  0  0  0  0
    9.5543   15.1337   21.3101 C   0  0  1  0  0  0  0  0  0  0  0  0
   10.5153   16.1971   21.7663 C   0  0  0  0  0  0  0  0  0  0  0  0
   11.8759   15.5742   21.7678 C   0  0  2  0  0  0  0  0  0  0  0  0
   12.8677   16.0501   20.7418 C   0  0  0  0  0  0  0  0  0  0  0  0
   13.0205   15.0156   19.7870 O   0  0  0  0  0  0  0  0  0  0  0  0
   12.1468   13.9523   20.1329 C   0  0  0  0  0  0  0  0  0  0  0  0
   11.6099   14.1361   21.5182 C   0  0  2  0  0  0  0  0  0  0  0  0
   10.2035   13.9044   21.6634 O   0  0  0  0  0  0  0  0  0  0  0  0
    7.4254   13.3953   24.0614 C   0  0  0  0  0  0  0  0  0  0  0  0
    8.1751   12.1151   23.7251 C   0  0  0  0  0  0  0  0  0  0  0  0
    9.0881   11.4885   24.7261 C   0  0  0  0  0  0  0  0  0  0  0  0
    9.1160   12.4023   25.8224 N   0  0  0  0  0  0  0  0  0  0  0  0
   10.2805   13.6342   25.6833 S   0  0  0  0  0  0  0  0  0  0  0  0
   10.3007   14.2287   24.3794 O   0  0  0  0  0  0  0  0  0  0  0  0
   10.1643   14.4296   26.8815 O   0  0  0  0  0  0  0  0  0  0  0  0
   11.7275   12.7091   25.8569 N   0  0  0  0  0  0  0  0  0  0  0  0
   12.4558   12.4668   24.5878 C   0  0  0  0  0  0  0  0  0  0  0  0
   13.6080   11.5023   24.8469 C   0  0  0  0  0  0  0  0  0  0  0  0
   14.6171   12.0403   25.8256 C   0  0  0  0  0  0  0  0  0  0  0  0
   13.9372   12.5435   27.0771 C   0  0  0  0  0  0  0  0  0  0  0  0
   12.6378   13.3221   26.8447 C   0  0  0  0  0  0  0  0  0  0  0  0
    7.7080   12.6243   26.3532 C   0  0  0  0  0  0  0  0  0  0  0  0
    6.6821   13.1006   25.3409 C   0  0  0  0  0  0  0  0  0  0  0  0
  1  2  2  0
  2  3  1  0
  3  4  1  0
  5  4  1  1
  5  6  1  0
  7  6  1  6
  7  8  1  0
  8  9  1  0
  9 10  1  0
 11 10  1  6
 11 12  1  0
  2 13  1  0
 13 14  1  0
 14 15  1  0
 15 16  1  0
 16 17  1  0
 17 18  2  0
 17 19  2  0
 17 20  1  0
 20 21  1  0
 21 22  1  0
 22 23  1  0
 23 24  1  0
 24 25  1  0
 16 26  1  0
 26 27  1  0
 12  5  1  0
 27 13  1  0
 11  7  1  0
 25 20  1  0
M  END
>  <energy_score>  (4266) 
-14.726269

>  <inchikey>  (4266) 
WOVGPWGFOGVDDY-UHFFFAOYSA-N

>  <smiles>  (4266) 
O=C(OCC1CC2COCC2O1)C1CCN(S(=O)(=O)N2CCCCC2)CC1

>  <ref_pdb>  (4266) 
A0875a

>  <alias>  (4266) 
WOVGPWGFOGVDDY-UHFFFAOYSA-N-P87-P87-P439-601505

>  <HIPPO Pose ID>  (4266) 
508126

>  <name>  (4266) 
WOVGPWGFOGVDDY-UHFFFAOYSA-N-P87-P87-P439-601505

>  <HIPPO Compound ID>  (4266) 
314599

>  <ref_mols>  (4266) 
A4706a,A0875a

>  <distance_score>  (4266) 
1.939398

>  <inspiration_score>  (4266) 
None

$$$$
WOVGPWGFOGVDDY-UHFFFAOYSA-N-P439-P87-P439-601505
     RDKit          3D

 27 30  0  0  0  0  0  0  0  0999 V2000
    6.0189   13.0487   22.4850 O   0  0  0  0  0  0  0  0  0  0  0  0
    6.2190   14.0772   23.1242 C   0  0  0  0  0  0  0  0  0  0  0  0
    7.0021   15.0926   22.6820 O   0  0  0  0  0  0  0  0  0  0  0  0
    7.8358   14.7516   21.5547 C   0  0  0  0  0  0  0  0  0  0  0  0
    8.8353   15.8724   21.2672 C   0  0  2  0  0  0  0  0  0  0  0  0
    9.7306   15.6596   20.0506 C   0  0  0  0  0  0  0  0  0  0  0  0
   11.0715   15.3034   20.6319 C   0  0  2  0  0  0  0  0  0  0  0  0
   11.2470   13.8801   21.0852 C   0  0  0  0  0  0  0  0  0  0  0  0
   11.8067   13.8187   22.3944 O   0  0  0  0  0  0  0  0  0  0  0  0
   11.9264   15.1645   22.8239 C   0  0  0  0  0  0  0  0  0  0  0  0
   11.0628   16.0094   21.9395 C   0  0  2  0  0  0  0  0  0  0  0  0
    9.7167   15.9725   22.3846 O   0  0  0  0  0  0  0  0  0  0  0  0
    5.5928   14.3572   24.4943 C   0  0  0  0  0  0  0  0  0  0  0  0
    5.3769   13.0476   25.2751 C   0  0  0  0  0  0  0  0  0  0  0  0
    6.6567   12.3800   25.7858 C   0  0  0  0  0  0  0  0  0  0  0  0
    7.7153   13.3878   26.0090 N   0  0  0  0  0  0  0  0  0  0  0  0
    8.9672   13.4543   24.8720 S   0  0  0  0  0  0  0  0  0  0  0  0
    9.3608   14.8291   24.7299 O   0  0  0  0  0  0  0  0  0  0  0  0
    8.6053   12.5889   23.7812 O   0  0  0  0  0  0  0  0  0  0  0  0
   10.1511   12.7001   25.7551 N   0  0  0  0  0  0  0  0  0  0  0  0
   10.9136   11.6295   25.1152 C   0  0  0  0  0  0  0  0  0  0  0  0
   12.4314   11.7461   25.2526 C   0  0  0  0  0  0  0  0  0  0  0  0
   12.9489   12.4285   26.4884 C   0  0  0  0  0  0  0  0  0  0  0  0
   12.1687   13.6994   26.6901 C   0  0  0  0  0  0  0  0  0  0  0  0
   10.7044   13.4711   26.8498 C   0  0  0  0  0  0  0  0  0  0  0  0
    7.1842   14.6824   26.4796 C   0  0  0  0  0  0  0  0  0  0  0  0
    6.3523   15.3548   25.3873 C   0  0  0  0  0  0  0  0  0  0  0  0
  1  2  2  0
  2  3  1  0
  3  4  1  0
  5  4  1  1
  5  6  1  0
  7  6  1  1
  7  8  1  0
  8  9  1  0
  9 10  1  0
 11 10  1  1
 11 12  1  0
  2 13  1  0
 13 14  1  0
 14 15  1  0
 15 16  1  0
 16 17  1  0
 17 18  2  0
 17 19  2  0
 17 20  1  0
 20 21  1  0
 21 22  1  0
 22 23  1  0
 23 24  1  0
 24 25  1  0
 16 26  1  0
 26 27  1  0
 12  5  1  0
 27 13  1  0
 11  7  1  0
 25 20  1  0
M  END
>  <energy_score>  (4267) 
-55.55717

>  <inchikey>  (4267) 
WOVGPWGFOGVDDY-UHFFFAOYSA-N

>  <smiles>  (4267) 
O=C(OCC1CC2COCC2O1)C1CCN(S(=O)(=O)N2CCCCC2)CC1

>  <ref_pdb>  (4267) 
A0875a

>  <alias>  (4267) 
WOVGPWGFOGVDDY-UHFFFAOYSA-N-P439-P87-P439-601505

>  <HIPPO Pose ID>  (4267) 
508127

>  <name>  (4267) 
WOVGPWGFOGVDDY-UHFFFAOYSA-N-P439-P87-P439-601505

>  <HIPPO Compound ID>  (4267) 
314599

>  <ref_mols>  (4267) 
A4706a,A0875a

>  <distance_score>  (4267) 
1.8878

>  <inspiration_score>  (4267) 
None

$$$$
QPCDDFQZBDCOHV-UHFFFAOYSA-N-P439-P87-P439-601505
     RDKit          3D

 27 29  0  0  0  0  0  0  0  0999 V2000
    6.7865   12.9871   22.1823 O   0  0  0  0  0  0  0  0  0  0  0  0
    6.9276   13.7413   23.1405 C   0  0  0  0  0  0  0  0  0  0  0  0
    8.0123   14.5396   23.3083 O   0  0  0  0  0  0  0  0  0  0  0  0
    9.0340   14.4258   22.3041 C   0  0  2  0  0  0  0  0  0  0  0  0
   10.3624   15.0464   22.6923 C   0  0  0  0  0  0  0  0  0  0  0  0
   11.0337   15.2968   21.4585 O   0  0  0  0  0  0  0  0  0  0  0  0
   10.0123   15.7195   20.5306 C   0  0  1  0  0  0  0  0  0  0  0  0
   10.2955   15.3232   19.0845 C   0  0  0  0  0  0  0  0  0  0  0  0
   10.5342   14.0136   18.9218 F   0  0  0  0  0  0  0  0  0  0  0  0
    9.2399   15.6566   18.3086 F   0  0  0  0  0  0  0  0  0  0  0  0
   11.3579   15.9711   18.5920 F   0  0  0  0  0  0  0  0  0  0  0  0
    8.6821   15.2111   21.0732 C   0  0  0  0  0  0  0  0  0  0  0  0
    5.9120   13.7526   24.2797 C   0  0  0  0  0  0  0  0  0  0  0  0
    6.1873   12.5981   25.2754 C   0  0  0  0  0  0  0  0  0  0  0  0
    6.9743   13.0529   26.5132 C   0  0  0  0  0  0  0  0  0  0  0  0
    7.7828   14.1824   26.0629 N   0  0  0  0  0  0  0  0  0  0  0  0
    9.3253   14.4892   26.5792 S   0  0  0  0  0  0  0  0  0  0  0  0
    9.2650   14.8403   27.9714 O   0  0  0  0  0  0  0  0  0  0  0  0
    9.9378   15.3606   25.6060 O   0  0  0  0  0  0  0  0  0  0  0  0
   10.1366   13.0243   26.4707 N   0  0  0  0  0  0  0  0  0  0  0  0
    9.8439   12.2757   25.2497 C   0  0  0  0  0  0  0  0  0  0  0  0
   10.9549   11.3761   24.8538 C   0  0  0  0  0  0  0  0  0  0  0  0
   12.2682   12.1396   24.6824 C   0  0  0  0  0  0  0  0  0  0  0  0
   12.4599   13.2941   25.6147 C   0  0  0  0  0  0  0  0  0  0  0  0
   11.5794   13.1831   26.8238 C   0  0  0  0  0  0  0  0  0  0  0  0
    6.9518   15.4001   25.9151 C   0  0  0  0  0  0  0  0  0  0  0  0
    5.7857   15.1027   24.9803 C   0  0  0  0  0  0  0  0  0  0  0  0
  1  2  2  0
  2  3  1  0
  4  3  1  1
  4  5  1  0
  5  6  1  0
  6  7  1  0
  7  8  1  6
  8  9  1  0
  8 10  1  0
  8 11  1  0
  7 12  1  0
  2 13  1  0
 13 14  1  0
 14 15  1  0
 15 16  1  0
 16 17  1  0
 17 18  2  0
 17 19  2  0
 17 20  1  0
 20 21  1  0
 21 22  1  0
 22 23  1  0
 23 24  1  0
 24 25  1  0
 16 26  1  0
 26 27  1  0
 12  4  1  0
 27 13  1  0
 25 20  1  0
M  END
>  <energy_score>  (4268) 
-52.241755

>  <inchikey>  (4268) 
QPCDDFQZBDCOHV-UHFFFAOYSA-N

>  <smiles>  (4268) 
O=C(OC1COC(C(F)(F)F)C1)C1CCN(S(=O)(=O)N2CCCCC2)CC1

>  <ref_pdb>  (4268) 
A0875a

>  <alias>  (4268) 
QPCDDFQZBDCOHV-UHFFFAOYSA-N-P439-P87-P439-601505

>  <HIPPO Pose ID>  (4268) 
508129

>  <name>  (4268) 
QPCDDFQZBDCOHV-UHFFFAOYSA-N-P439-P87-P439-601505

>  <HIPPO Compound ID>  (4268) 
314600

>  <ref_mols>  (4268) 
A4706a,A0875a

>  <distance_score>  (4268) 
1.718684

>  <inspiration_score>  (4268) 
None

$$$$
RVJYCJUVOGAPIK-UHFFFAOYSA-N-P439-P87-P439-601505
     RDKit          3D

 27 28  0  0  0  0  0  0  0  0999 V2000
    8.3586   17.6152   20.9300 C   0  0  0  0  0  0  0  0  0  0  0  0
    9.0759   16.7327   21.6126 C   0  0  0  0  0  0  0  0  0  0  0  0
    8.6281   15.5238   22.4107 C   0  0  1  0  0  0  0  0  0  0  0  0
    7.1986   15.3989   22.4380 O   0  0  0  0  0  0  0  0  0  0  0  0
    6.6639   14.2116   22.8173 C   0  0  0  0  0  0  0  0  0  0  0  0
    6.6542   13.2250   22.0840 O   0  0  0  0  0  0  0  0  0  0  0  0
    5.9533   14.1937   24.2018 C   0  0  0  0  0  0  0  0  0  0  0  0
    6.1714   12.8047   24.8839 C   0  0  0  0  0  0  0  0  0  0  0  0
    6.7331   12.7559   26.3070 C   0  0  0  0  0  0  0  0  0  0  0  0
    7.5044   13.9696   26.6585 N   0  0  0  0  0  0  0  0  0  0  0  0
    8.9636   14.2451   25.8624 S   0  0  0  0  0  0  0  0  0  0  0  0
    8.7448   13.8917   24.4945 O   0  0  0  0  0  0  0  0  0  0  0  0
    9.4405   15.5622   26.1966 O   0  0  0  0  0  0  0  0  0  0  0  0
   10.0622   13.1108   26.4215 N   0  0  0  0  0  0  0  0  0  0  0  0
    9.8669   11.8029   25.7561 C   0  0  0  0  0  0  0  0  0  0  0  0
   11.0165   11.3463   24.9184 C   0  0  0  0  0  0  0  0  0  0  0  0
   12.4414   11.7108   25.3292 C   0  0  0  0  0  0  0  0  0  0  0  0
   12.5216   12.6243   26.5172 C   0  0  0  0  0  0  0  0  0  0  0  0
   11.4455   13.6766   26.4030 C   0  0  0  0  0  0  0  0  0  0  0  0
    6.5636   15.1202   26.5604 C   0  0  0  0  0  0  0  0  0  0  0  0
    6.2053   15.4182   25.1050 C   0  0  0  0  0  0  0  0  0  0  0  0
    9.6493   14.3826   22.1397 C   0  0  0  0  0  0  0  0  0  0  0  0
    9.4206   13.1928   22.0110 O   0  0  0  0  0  0  0  0  0  0  0  0
   10.9250   14.8860   22.1415 O   0  0  0  0  0  0  0  0  0  0  0  0
   11.5926   14.6399   20.9042 C   0  0  0  0  0  0  0  0  0  0  0  0
   10.7515   15.0586   19.6962 C   0  0  0  0  0  0  0  0  0  0  0  0
   11.4193   14.7295   18.4059 C   0  0  0  0  0  0  0  0  0  0  0  0
  1  2  2  0
  2  3  1  0
  3  4  1  6
  4  5  1  0
  5  6  2  0
  5  7  1  0
  7  8  1  0
  8  9  1  0
  9 10  1  0
 10 11  1  0
 11 12  2  0
 11 13  2  0
 11 14  1  0
 14 15  1  0
 15 16  1  0
 16 17  1  0
 17 18  1  0
 18 19  1  0
 10 20  1  0
 20 21  1  0
  3 22  1  0
 22 23  2  0
 22 24  1  0
 24 25  1  0
 25 26  1  0
 26 27  1  0
 21  7  1  0
 19 14  1  0
M  END
>  <energy_score>  (4269) 
-26.534199

>  <inchikey>  (4269) 
RVJYCJUVOGAPIK-UHFFFAOYSA-N

>  <smiles>  (4269) 
C=CC(OC(=O)C1CCN(S(=O)(=O)N2CCCCC2)CC1)C(=O)OCCC

>  <ref_pdb>  (4269) 
A0875a

>  <alias>  (4269) 
RVJYCJUVOGAPIK-UHFFFAOYSA-N-P439-P87-P439-601505

>  <HIPPO Pose ID>  (4269) 
508133

>  <name>  (4269) 
RVJYCJUVOGAPIK-UHFFFAOYSA-N-P439-P87-P439-601505

>  <HIPPO Compound ID>  (4269) 
314602

>  <ref_mols>  (4269) 
A4706a,A0875a

>  <distance_score>  (4269) 
1.674789

>  <inspiration_score>  (4269) 
None

$$$$
DAVKXRPFUKSVOE-UHFFFAOYSA-N-P439-P87-P439-601505
     RDKit          3D

 27 28  0  0  0  0  0  0  0  0999 V2000
    7.4528   16.4321   21.7508 C   0  0  0  0  0  0  0  0  0  0  0  0
    8.5101   15.3924   22.0060 C   0  0  1  0  0  0  0  0  0  0  0  0
    7.8762   14.1066   21.8756 O   0  0  0  0  0  0  0  0  0  0  0  0
    7.6899   13.3574   22.9871 C   0  0  0  0  0  0  0  0  0  0  0  0
    8.3349   12.3217   23.1379 O   0  0  0  0  0  0  0  0  0  0  0  0
    6.5846   13.7711   23.9822 C   0  0  0  0  0  0  0  0  0  0  0  0
    6.3211   12.5713   24.9187 C   0  0  0  0  0  0  0  0  0  0  0  0
    7.4735   12.3310   25.8961 C   0  0  0  0  0  0  0  0  0  0  0  0
    8.0562   13.5886   26.3999 N   0  0  0  0  0  0  0  0  0  0  0  0
    9.6143   14.1076   26.0017 S   0  0  0  0  0  0  0  0  0  0  0  0
    9.8854   15.1841   26.9227 O   0  0  0  0  0  0  0  0  0  0  0  0
    9.7102   14.3456   24.5901 O   0  0  0  0  0  0  0  0  0  0  0  0
   10.6607   12.8469   26.3603 N   0  0  0  0  0  0  0  0  0  0  0  0
   12.0126   13.3114   26.8100 C   0  0  0  0  0  0  0  0  0  0  0  0
   13.0999   13.1876   25.7463 C   0  0  0  0  0  0  0  0  0  0  0  0
   13.0693   11.9541   24.8955 C   0  0  0  0  0  0  0  0  0  0  0  0
   12.0466   11.0455   25.4639 C   0  0  0  0  0  0  0  0  0  0  0  0
   10.6930   11.7155   25.3891 C   0  0  0  0  0  0  0  0  0  0  0  0
    7.0620   14.6932   26.3374 C   0  0  0  0  0  0  0  0  0  0  0  0
    6.7427   15.0152   24.8711 C   0  0  0  0  0  0  0  0  0  0  0  0
    9.8254   15.5302   21.1949 C   0  0  2  0  0  0  0  0  0  0  0  0
    9.9006   15.2357   19.7136 C   0  0  0  0  0  0  0  0  0  0  0  0
   10.7436   14.5955   21.7518 O   0  0  0  0  0  0  0  0  0  0  0  0
   11.7426   15.2499   22.4595 C   0  0  0  0  0  0  0  0  0  0  0  0
   11.2146   16.0977   23.3566 F   0  0  0  0  0  0  0  0  0  0  0  0
   12.5313   15.9333   21.6141 F   0  0  0  0  0  0  0  0  0  0  0  0
   12.4675   14.3335   23.1077 F   0  0  0  0  0  0  0  0  0  0  0  0
  2  1  1  6
  2  3  1  0
  3  4  1  0
  4  5  2  0
  4  6  1  0
  6  7  1  0
  7  8  1  0
  8  9  1  0
  9 10  1  0
 10 11  2  0
 10 12  2  0
 10 13  1  0
 13 14  1  0
 14 15  1  0
 15 16  1  0
 16 17  1  0
 17 18  1  0
  9 19  1  0
 19 20  1  0
  2 21  1  0
 21 22  1  6
 21 23  1  0
 23 24  1  0
 24 25  1  0
 24 26  1  0
 24 27  1  0
 20  6  1  0
 18 13  1  0
M  END
>  <energy_score>  (4270) 
-20.789934

>  <inchikey>  (4270) 
DAVKXRPFUKSVOE-UHFFFAOYSA-N

>  <smiles>  (4270) 
CC(OC(=O)C1CCN(S(=O)(=O)N2CCCCC2)CC1)C(C)OC(F)(F)F

>  <ref_pdb>  (4270) 
A0875a

>  <alias>  (4270) 
DAVKXRPFUKSVOE-UHFFFAOYSA-N-P439-P87-P439-601505

>  <HIPPO Pose ID>  (4270) 
508135

>  <name>  (4270) 
DAVKXRPFUKSVOE-UHFFFAOYSA-N-P439-P87-P439-601505

>  <HIPPO Compound ID>  (4270) 
314603

>  <ref_mols>  (4270) 
A4706a,A0875a

>  <distance_score>  (4270) 
1.227663

>  <inspiration_score>  (4270) 
None

$$$$
VEFKDUISMSPZNX-UHFFFAOYSA-N-P439-P87-P439-601505
     RDKit          3D

 27 29  0  0  0  0  0  0  0  0999 V2000
   12.4934   13.4274   19.6833 N   0  0  0  0  0  0  0  0  0  0  0  0
   12.0117   14.7654   19.5955 C   0  0  0  0  0  0  0  0  0  0  0  0
   10.6128   14.8280   20.1230 C   0  0  2  0  0  0  0  0  0  0  0  0
    9.8846   15.9134   19.3517 C   0  0  0  0  0  0  0  0  0  0  0  0
    9.0945   16.7998   20.1135 O   0  0  0  0  0  0  0  0  0  0  0  0
    8.8213   16.3426   21.4410 C   0  0  1  0  0  0  0  0  0  0  0  0
    7.9577   15.0616   21.4870 C   0  0  0  0  0  0  0  0  0  0  0  0
    6.6819   15.2874   22.1033 O   0  0  0  0  0  0  0  0  0  0  0  0
    6.2466   14.1401   22.6859 C   0  0  0  0  0  0  0  0  0  0  0  0
    5.6859   13.2384   22.0809 O   0  0  0  0  0  0  0  0  0  0  0  0
    6.6415   14.0891   24.1353 C   0  0  0  0  0  0  0  0  0  0  0  0
    6.3372   12.7515   24.8199 C   0  0  0  0  0  0  0  0  0  0  0  0
    6.7885   12.7461   26.2819 C   0  0  0  0  0  0  0  0  0  0  0  0
    7.6288   13.9262   26.5649 N   0  0  0  0  0  0  0  0  0  0  0  0
    9.2656   14.0282   26.1345 S   0  0  0  0  0  0  0  0  0  0  0  0
   10.0762   13.6801   27.2724 O   0  0  0  0  0  0  0  0  0  0  0  0
    9.4638   15.2859   25.4518 O   0  0  0  0  0  0  0  0  0  0  0  0
    9.4889   12.8123   24.9867 N   0  0  0  0  0  0  0  0  0  0  0  0
   10.5747   13.1036   24.0235 C   0  0  0  0  0  0  0  0  0  0  0  0
   11.9390   12.8864   24.6369 C   0  0  0  0  0  0  0  0  0  0  0  0
   12.0147   11.5699   25.3845 C   0  0  0  0  0  0  0  0  0  0  0  0
   10.7777   10.6983   25.1036 C   0  0  0  0  0  0  0  0  0  0  0  0
    9.4987   11.4161   25.4630 C   0  0  0  0  0  0  0  0  0  0  0  0
    6.8278   15.1758   26.4059 C   0  0  0  0  0  0  0  0  0  0  0  0
    6.1977   15.2545   25.0073 C   0  0  0  0  0  0  0  0  0  0  0  0
   10.1951   16.1163   22.0480 C   0  0  0  0  0  0  0  0  0  0  0  0
   10.7164   14.9006   21.5487 O   0  0  0  0  0  0  0  0  0  0  0  0
  1  2  1  0
  3  2  1  6
  3  4  1  0
  4  5  1  0
  5  6  1  0
  6  7  1  6
  7  8  1  0
  8  9  1  0
  9 10  2  0
  9 11  1  0
 11 12  1  0
 12 13  1  0
 13 14  1  0
 14 15  1  0
 15 16  2  0
 15 17  2  0
 15 18  1  0
 18 19  1  0
 19 20  1  0
 20 21  1  0
 21 22  1  0
 22 23  1  0
 14 24  1  0
 24 25  1  0
  6 26  1  0
 26 27  1  0
 27  3  1  0
 25 11  1  0
 23 18  1  0
M  END
>  <energy_score>  (4271) 
-25.046853

>  <inchikey>  (4271) 
VEFKDUISMSPZNX-UHFFFAOYSA-N

>  <smiles>  (4271) 
NCC1COC(COC(=O)C2CCN(S(=O)(=O)N3CCCCC3)CC2)CO1

>  <ref_pdb>  (4271) 
A0875a

>  <alias>  (4271) 
VEFKDUISMSPZNX-UHFFFAOYSA-N-P439-P87-P439-601505

>  <HIPPO Pose ID>  (4271) 
508137

>  <name>  (4271) 
VEFKDUISMSPZNX-UHFFFAOYSA-N-P439-P87-P439-601505

>  <HIPPO Compound ID>  (4271) 
314604

>  <ref_mols>  (4271) 
A4706a,A0875a

>  <distance_score>  (4271) 
1.857577

>  <inspiration_score>  (4271) 
None

$$$$
QPWUKHQPMDVBGA-UHFFFAOYSA-N-P87-P87-P439-601505
     RDKit          3D

 27 28  0  0  0  0  0  0  0  0999 V2000
   16.8272   14.4636   29.5443 C   0  0  0  0  0  0  0  0  0  0  0  0
   17.2042   13.5525   28.5187 O   0  0  0  0  0  0  0  0  0  0  0  0
   16.0692   12.9176   27.9350 C   0  0  0  0  0  0  0  0  0  0  0  0
   16.5421   11.9739   26.8158 C   0  0  1  0  0  0  0  0  0  0  0  0
   17.0521   10.6154   27.2994 C   0  0  0  0  0  0  0  0  0  0  0  0
   18.2200   10.6875   28.2525 C   0  0  0  0  0  0  0  0  0  0  0  0
   17.8634   11.1568   29.4628 F   0  0  0  0  0  0  0  0  0  0  0  0
   19.2247   11.4373   27.7610 F   0  0  0  0  0  0  0  0  0  0  0  0
   18.7111    9.4378   28.4462 F   0  0  0  0  0  0  0  0  0  0  0  0
   15.5469   11.7453   25.7678 O   0  0  0  0  0  0  0  0  0  0  0  0
   14.2825   11.3827   26.1026 C   0  0  0  0  0  0  0  0  0  0  0  0
   13.8805   11.2983   27.2456 O   0  0  0  0  0  0  0  0  0  0  0  0
   13.4394   11.1114   24.8598 C   0  0  0  0  0  0  0  0  0  0  0  0
   13.0426   12.4858   24.3701 C   0  0  0  0  0  0  0  0  0  0  0  0
   11.9150   12.9606   25.2473 C   0  0  0  0  0  0  0  0  0  0  0  0
   10.6643   12.1598   25.0692 N   0  0  0  0  0  0  0  0  0  0  0  0
    9.4368   13.2657   24.7620 S   0  0  0  0  0  0  0  0  0  0  0  0
    9.7865   13.9819   23.5591 O   0  0  0  0  0  0  0  0  0  0  0  0
    9.3875   13.9199   26.0444 O   0  0  0  0  0  0  0  0  0  0  0  0
    7.9562   12.5257   24.5217 N   0  0  0  0  0  0  0  0  0  0  0  0
    7.4593   11.6049   25.5370 C   0  0  0  0  0  0  0  0  0  0  0  0
    6.7392   12.2908   26.6775 C   0  0  0  0  0  0  0  0  0  0  0  0
    5.6085   13.2001   26.2785 C   0  0  0  0  0  0  0  0  0  0  0  0
    5.6742   13.7487   24.8681 C   0  0  0  0  0  0  0  0  0  0  0  0
    6.9069   13.4811   23.9938 C   0  0  0  0  0  0  0  0  0  0  0  0
   10.8335   10.9179   24.3242 C   0  0  0  0  0  0  0  0  0  0  0  0
   12.1391   10.1849   24.8022 C   0  0  0  0  0  0  0  0  0  0  0  0
  1  2  1  0
  2  3  1  0
  4  3  1  1
  4  5  1  0
  5  6  1  0
  6  7  1  0
  6  8  1  0
  6  9  1  0
  4 10  1  0
 10 11  1  0
 11 12  2  0
 11 13  1  0
 13 14  1  0
 14 15  1  0
 15 16  1  0
 16 17  1  0
 17 18  2  0
 17 19  2  0
 17 20  1  0
 20 21  1  0
 21 22  1  0
 22 23  1  0
 23 24  1  0
 24 25  1  0
 16 26  1  0
 26 27  1  0
 27 13  1  0
 25 20  1  0
M  END
>  <energy_score>  (4272) 
-6.949538

>  <inchikey>  (4272) 
QPWUKHQPMDVBGA-UHFFFAOYSA-N

>  <smiles>  (4272) 
COCC(CC(F)(F)F)OC(=O)C1CCN(S(=O)(=O)N2CCCCC2)CC1

>  <ref_pdb>  (4272) 
A0875a

>  <alias>  (4272) 
QPWUKHQPMDVBGA-UHFFFAOYSA-N-P87-P87-P439-601505

>  <HIPPO Pose ID>  (4272) 
508140

>  <name>  (4272) 
QPWUKHQPMDVBGA-UHFFFAOYSA-N-P87-P87-P439-601505

>  <HIPPO Compound ID>  (4272) 
314606

>  <ref_mols>  (4272) 
A4706a,A0875a

>  <distance_score>  (4272) 
1.440201

>  <inspiration_score>  (4272) 
None

$$$$
QLTIHSUSQMIQSG-UHFFFAOYSA-N-P439-P87-P439-601505
     RDKit          3D

 27 29  0  0  0  0  0  0  0  0999 V2000
   10.5649   14.9640   19.0084 C   0  0  0  0  0  0  0  0  0  0  0  0
    9.3421   15.1932   19.6774 O   0  0  0  0  0  0  0  0  0  0  0  0
    9.2796   15.2294   21.1107 C   0  0  1  0  0  0  0  0  0  0  0  0
    7.7492   15.2553   21.4419 C   0  0  0  0  0  0  0  0  0  0  0  0
    7.3936   14.9243   22.7882 O   0  0  0  0  0  0  0  0  0  0  0  0
    6.0720   14.6977   23.0281 C   0  0  0  0  0  0  0  0  0  0  0  0
    5.1727   14.8083   22.2067 O   0  0  0  0  0  0  0  0  0  0  0  0
    5.8600   14.1841   24.4493 C   0  0  0  0  0  0  0  0  0  0  0  0
    6.5977   12.8374   24.5965 C   0  0  0  0  0  0  0  0  0  0  0  0
    7.0637   12.5210   26.0010 C   0  0  0  0  0  0  0  0  0  0  0  0
    7.7491   13.6757   26.5895 N   0  0  0  0  0  0  0  0  0  0  0  0
    9.2201   14.2740   26.0274 S   0  0  0  0  0  0  0  0  0  0  0  0
    9.0922   14.7953   24.6951 O   0  0  0  0  0  0  0  0  0  0  0  0
    9.7092   15.1469   27.0683 O   0  0  0  0  0  0  0  0  0  0  0  0
   10.2985   12.9895   25.9290 N   0  0  0  0  0  0  0  0  0  0  0  0
   10.1169   12.0327   24.8182 C   0  0  0  0  0  0  0  0  0  0  0  0
   10.9451   10.8130   25.1301 C   0  0  0  0  0  0  0  0  0  0  0  0
   12.3971   11.2198   25.5075 C   0  0  0  0  0  0  0  0  0  0  0  0
   12.6983   12.6675   25.2215 C   0  0  0  0  0  0  0  0  0  0  0  0
   11.7057   13.5214   25.9952 C   0  0  0  0  0  0  0  0  0  0  0  0
    6.7374   14.7514   26.8083 C   0  0  0  0  0  0  0  0  0  0  0  0
    6.2169   15.2755   25.4728 C   0  0  0  0  0  0  0  0  0  0  0  0
    9.9274   14.0228   21.7554 C   0  0  0  0  0  0  0  0  0  0  0  0
   11.3151   14.2612   22.3233 C   0  0  0  0  0  0  0  0  0  0  0  0
   12.0796   15.3917   21.6963 C   0  0  0  0  0  0  0  0  0  0  0  0
   11.3329   16.5782   21.5857 O   0  0  0  0  0  0  0  0  0  0  0  0
    9.9177   16.4754   21.6778 C   0  0  0  0  0  0  0  0  0  0  0  0
  1  2  1  0
  2  3  1  0
  3  4  1  6
  4  5  1  0
  5  6  1  0
  6  7  2  0
  6  8  1  0
  8  9  1  0
  9 10  1  0
 10 11  1  0
 11 12  1  0
 12 13  2  0
 12 14  2  0
 12 15  1  0
 15 16  1  0
 16 17  1  0
 17 18  1  0
 18 19  1  0
 19 20  1  0
 11 21  1  0
 21 22  1  0
  3 23  1  0
 23 24  1  0
 24 25  1  0
 25 26  1  0
 26 27  1  0
 27  3  1  0
 22  8  1  0
 20 15  1  0
M  END
>  <energy_score>  (4273) 
-91.955354

>  <inchikey>  (4273) 
QLTIHSUSQMIQSG-UHFFFAOYSA-N

>  <smiles>  (4273) 
COC1(COC(=O)C2CCN(S(=O)(=O)N3CCCCC3)CC2)CCCOC1

>  <ref_pdb>  (4273) 
A0875a

>  <alias>  (4273) 
QLTIHSUSQMIQSG-UHFFFAOYSA-N-P439-P87-P439-601505

>  <HIPPO Pose ID>  (4273) 
508147

>  <name>  (4273) 
QLTIHSUSQMIQSG-UHFFFAOYSA-N-P439-P87-P439-601505

>  <HIPPO Compound ID>  (4273) 
314609

>  <ref_mols>  (4273) 
A4706a,A0875a

>  <distance_score>  (4273) 
1.55499

>  <inspiration_score>  (4273) 
None

$$$$
XJHGXFCMKAIUNV-UHFFFAOYSA-N-P439-P87-P439-601505
     RDKit          3D

 27 30  0  0  0  0  0  0  0  0999 V2000
    9.7151   16.1745   18.5351 O   0  0  0  0  0  0  0  0  0  0  0  0
   10.2646   15.7251   19.5170 C   0  0  0  0  0  0  0  0  0  0  0  0
   10.8207   14.4908   19.6039 O   0  0  0  0  0  0  0  0  0  0  0  0
   10.8447   14.2104   20.9822 C   0  0  2  0  0  0  0  0  0  0  0  0
    9.4711   13.7445   21.5008 C   0  0  0  0  0  0  0  0  0  0  0  0
    8.9503   14.8121   22.4466 C   0  0  1  0  0  0  0  0  0  0  0  0
    8.1181   14.3491   23.5223 O   0  0  0  0  0  0  0  0  0  0  0  0
    7.0018   13.6334   23.2247 C   0  0  0  0  0  0  0  0  0  0  0  0
    6.7919   13.1134   22.1329 O   0  0  0  0  0  0  0  0  0  0  0  0
    6.0230   13.4299   24.3840 C   0  0  0  0  0  0  0  0  0  0  0  0
    6.3936   12.2129   25.2628 C   0  0  0  0  0  0  0  0  0  0  0  0
    7.2793   12.5626   26.4640 C   0  0  0  0  0  0  0  0  0  0  0  0
    7.8452   13.8678   26.1689 N   0  0  0  0  0  0  0  0  0  0  0  0
    9.3855   14.3333   26.4877 S   0  0  0  0  0  0  0  0  0  0  0  0
    9.5407   14.4318   27.9140 O   0  0  0  0  0  0  0  0  0  0  0  0
    9.6683   15.4734   25.6545 O   0  0  0  0  0  0  0  0  0  0  0  0
   10.4018   13.1184   25.9828 N   0  0  0  0  0  0  0  0  0  0  0  0
   10.1156   12.2984   24.8096 C   0  0  0  0  0  0  0  0  0  0  0  0
   10.8412   10.9908   25.0575 C   0  0  0  0  0  0  0  0  0  0  0  0
   12.3263   11.2684   25.4470 C   0  0  0  0  0  0  0  0  0  0  0  0
   12.7286   12.7006   25.1837 C   0  0  0  0  0  0  0  0  0  0  0  0
   11.8222   13.5762   26.0381 C   0  0  0  0  0  0  0  0  0  0  0  0
    6.8308   14.9358   26.2725 C   0  0  0  0  0  0  0  0  0  0  0  0
    5.7851   14.7069   25.1908 C   0  0  0  0  0  0  0  0  0  0  0  0
   10.2877   15.3982   22.8955 C   0  0  0  0  0  0  0  0  0  0  0  0
   11.0467   15.5421   21.6052 C   0  0  2  0  0  0  0  0  0  0  0  0
   10.3440   16.3805   20.7119 O   0  0  0  0  0  0  0  0  0  0  0  0
  1  2  2  0
  2  3  1  0
  3  4  1  0
  4  5  1  1
  5  6  1  0
  6  7  1  1
  7  8  1  0
  8  9  2  0
  8 10  1  0
 10 11  1  0
 11 12  1  0
 12 13  1  0
 13 14  1  0
 14 15  2  0
 14 16  2  0
 14 17  1  0
 17 18  1  0
 18 19  1  0
 19 20  1  0
 20 21  1  0
 21 22  1  0
 13 23  1  0
 23 24  1  0
  6 25  1  0
 26 25  1  1
 26 27  1  0
 27  2  1  0
 26  4  1  0
 24 10  1  0
 22 17  1  0
M  END
>  <energy_score>  (4274) 
-40.213328

>  <inchikey>  (4274) 
XJHGXFCMKAIUNV-UHFFFAOYSA-N

>  <smiles>  (4274) 
O=C1OC2CC(OC(=O)C3CCN(S(=O)(=O)N4CCCCC4)CC3)CC2O1

>  <ref_pdb>  (4274) 
A0875a

>  <alias>  (4274) 
XJHGXFCMKAIUNV-UHFFFAOYSA-N-P439-P87-P439-601505

>  <HIPPO Pose ID>  (4274) 
508151

>  <name>  (4274) 
XJHGXFCMKAIUNV-UHFFFAOYSA-N-P439-P87-P439-601505

>  <HIPPO Compound ID>  (4274) 
314611

>  <ref_mols>  (4274) 
A4706a,A0875a

>  <distance_score>  (4274) 
1.539709

>  <inspiration_score>  (4274) 
None

$$$$
ZIQIOYROOGNGCZ-UHFFFAOYSA-N-P439-P87-P439-601505
     RDKit          3D

 27 29  0  0  0  0  0  0  0  0999 V2000
   11.3001   14.9853   18.4076 C   0  0  0  0  0  0  0  0  0  0  0  0
   11.0880   15.1678   19.7813 O   0  0  0  0  0  0  0  0  0  0  0  0
    9.7822   15.6522   20.0685 C   0  0  0  0  0  0  0  0  0  0  0  0
    9.3958   15.3259   21.5341 C   0  0  1  0  0  0  0  0  0  0  0  0
    7.9059   15.6794   21.7313 C   0  0  0  0  0  0  0  0  0  0  0  0
    7.3317   15.4653   23.0380 O   0  0  0  0  0  0  0  0  0  0  0  0
    6.6562   14.3100   23.2470 C   0  0  0  0  0  0  0  0  0  0  0  0
    6.6364   13.3575   22.4668 O   0  0  0  0  0  0  0  0  0  0  0  0
    5.8346   14.3264   24.5443 C   0  0  0  0  0  0  0  0  0  0  0  0
    5.7734   12.9064   25.1182 C   0  0  0  0  0  0  0  0  0  0  0  0
    7.1259   12.4819   25.6692 C   0  0  0  0  0  0  0  0  0  0  0  0
    7.7390   13.5050   26.5591 N   0  0  0  0  0  0  0  0  0  0  0  0
    9.2643   14.1249   26.1696 S   0  0  0  0  0  0  0  0  0  0  0  0
    9.2610   14.5246   24.7903 O   0  0  0  0  0  0  0  0  0  0  0  0
    9.6165   15.0837   27.1880 O   0  0  0  0  0  0  0  0  0  0  0  0
   10.3600   12.8236   26.3300 N   0  0  0  0  0  0  0  0  0  0  0  0
   11.7437   13.3877   26.3483 C   0  0  0  0  0  0  0  0  0  0  0  0
   12.8165   12.3262   26.4080 C   0  0  0  0  0  0  0  0  0  0  0  0
   12.6384   11.3868   25.2429 C   0  0  0  0  0  0  0  0  0  0  0  0
   11.2409   10.7478   25.2077 C   0  0  0  0  0  0  0  0  0  0  0  0
   10.1305   11.7474   25.3462 C   0  0  0  0  0  0  0  0  0  0  0  0
    6.7713   14.5852   26.9098 C   0  0  0  0  0  0  0  0  0  0  0  0
    6.2876   15.3011   25.6449 C   0  0  0  0  0  0  0  0  0  0  0  0
    9.7349   13.8927   21.8658 C   0  0  0  0  0  0  0  0  0  0  0  0
   11.1772   13.9110   22.2798 C   0  0  0  0  0  0  0  0  0  0  0  0
   11.3919   15.3309   22.7181 C   0  0  0  0  0  0  0  0  0  0  0  0
   10.2340   16.0972   22.3975 O   0  0  0  0  0  0  0  0  0  0  0  0
  1  2  1  0
  2  3  1  0
  4  3  1  6
  4  5  1  0
  5  6  1  0
  6  7  1  0
  7  8  2  0
  7  9  1  0
  9 10  1  0
 10 11  1  0
 11 12  1  0
 12 13  1  0
 13 14  2  0
 13 15  2  0
 13 16  1  0
 16 17  1  0
 17 18  1  0
 18 19  1  0
 19 20  1  0
 20 21  1  0
 12 22  1  0
 22 23  1  0
  4 24  1  0
 24 25  1  0
 25 26  1  0
 26 27  1  0
 27  4  1  0
 23  9  1  0
 21 16  1  0
M  END
>  <energy_score>  (4275) 
-53.837369

>  <inchikey>  (4275) 
ZIQIOYROOGNGCZ-UHFFFAOYSA-N

>  <smiles>  (4275) 
COCC1(COC(=O)C2CCN(S(=O)(=O)N3CCCCC3)CC2)CCCO1

>  <ref_pdb>  (4275) 
A0875a

>  <alias>  (4275) 
ZIQIOYROOGNGCZ-UHFFFAOYSA-N-P439-P87-P439-601505

>  <HIPPO Pose ID>  (4275) 
508153

>  <name>  (4275) 
ZIQIOYROOGNGCZ-UHFFFAOYSA-N-P439-P87-P439-601505

>  <HIPPO Compound ID>  (4275) 
314612

>  <ref_mols>  (4275) 
A4706a,A0875a

>  <distance_score>  (4275) 
1.498264

>  <inspiration_score>  (4275) 
None

$$$$
CMTZPHHDBQBQMY-UHFFFAOYSA-N-P439-P87-P439-601505
     RDKit          3D

 27 30  0  0  0  0  0  0  0  0999 V2000
    7.8445   13.1986   22.2733 O   0  0  0  0  0  0  0  0  0  0  0  0
    7.3135   14.3008   22.2170 C   0  0  0  0  0  0  0  0  0  0  0  0
    7.7302   15.2723   21.3731 O   0  0  0  0  0  0  0  0  0  0  0  0
    8.9768   15.9885   21.6292 C   0  0  2  0  0  0  0  0  0  0  0  0
    8.9476   17.2605   20.7690 C   0  0  0  0  0  0  0  0  0  0  0  0
    9.4038   16.8591   19.4480 O   0  0  0  0  0  0  0  0  0  0  0  0
   10.1148   15.7025   19.5557 C   0  0  0  0  0  0  0  0  0  0  0  0
   10.6091   15.1261   18.6057 O   0  0  0  0  0  0  0  0  0  0  0  0
   10.2336   15.3695   21.0367 C   0  0  0  0  0  0  0  0  0  0  0  0
   11.5504   15.9987   21.6283 C   0  0  0  0  0  0  0  0  0  0  0  0
   11.5140   14.8901   22.6433 C   0  0  0  0  0  0  0  0  0  0  0  0
   10.8364   14.0560   21.5448 C   0  0  0  0  0  0  0  0  0  0  0  0
    6.0525   14.6365   23.0244 C   0  0  0  0  0  0  0  0  0  0  0  0
    5.6947   13.4562   23.9608 C   0  0  0  0  0  0  0  0  0  0  0  0
    6.7893   13.1596   24.9981 C   0  0  0  0  0  0  0  0  0  0  0  0
    7.7231   14.3152   24.9935 N   0  0  0  0  0  0  0  0  0  0  0  0
    9.1293   14.2067   25.8572 S   0  0  0  0  0  0  0  0  0  0  0  0
    8.8698   13.4059   27.0175 O   0  0  0  0  0  0  0  0  0  0  0  0
    9.6448   15.5470   25.9919 O   0  0  0  0  0  0  0  0  0  0  0  0
   10.2899   13.4243   24.9607 N   0  0  0  0  0  0  0  0  0  0  0  0
   10.1100   12.1030   24.3434 C   0  0  0  0  0  0  0  0  0  0  0  0
   10.7674   11.0263   25.1760 C   0  0  0  0  0  0  0  0  0  0  0  0
   12.2432   11.3419   25.5310 C   0  0  0  0  0  0  0  0  0  0  0  0
   12.6580   12.6998   25.0432 C   0  0  0  0  0  0  0  0  0  0  0  0
   11.6323   13.6684   25.5676 C   0  0  0  0  0  0  0  0  0  0  0  0
    6.9303   15.5548   25.2183 C   0  0  0  0  0  0  0  0  0  0  0  0
    6.2069   15.8744   23.9077 C   0  0  0  0  0  0  0  0  0  0  0  0
  1  2  2  0
  2  3  1  0
  4  3  1  6
  4  5  1  0
  5  6  1  0
  6  7  1  0
  7  8  2  0
  7  9  1  0
  9 10  1  0
 10 11  1  0
 11 12  1  0
  2 13  1  0
 13 14  1  0
 14 15  1  0
 15 16  1  0
 16 17  1  0
 17 18  2  0
 17 19  2  0
 17 20  1  0
 20 21  1  0
 21 22  1  0
 22 23  1  0
 23 24  1  0
 24 25  1  0
 16 26  1  0
 26 27  1  0
  9  4  1  0
 27 13  1  0
 12  9  1  0
 25 20  1  0
M  END
>  <energy_score>  (4276) 
-41.145087

>  <inchikey>  (4276) 
CMTZPHHDBQBQMY-UHFFFAOYSA-N

>  <smiles>  (4276) 
O=C(OC1COC(=O)C12CCC2)C1CCN(S(=O)(=O)N2CCCCC2)CC1

>  <ref_pdb>  (4276) 
A0875a

>  <alias>  (4276) 
CMTZPHHDBQBQMY-UHFFFAOYSA-N-P439-P87-P439-601505

>  <HIPPO Pose ID>  (4276) 
508155

>  <name>  (4276) 
CMTZPHHDBQBQMY-UHFFFAOYSA-N-P439-P87-P439-601505

>  <HIPPO Compound ID>  (4276) 
314613

>  <ref_mols>  (4276) 
A4706a,A0875a

>  <distance_score>  (4276) 
1.879689

>  <inspiration_score>  (4276) 
None

$$$$
QSXRXQGILBRKOH-UHFFFAOYSA-N-P439-P87-P439-601505
     RDKit          3D

 27 30  0  0  0  0  0  0  0  0999 V2000
    6.5489   16.0162   22.1402 N   0  0  0  0  0  0  0  0  0  0  0  0
    7.9627   15.9233   21.7476 C   0  0  0  0  0  0  0  0  0  0  0  0
    8.8539   14.9121   22.5078 C   0  0  1  0  0  0  0  0  0  0  0  0
    8.1035   14.4695   23.6774 O   0  0  0  0  0  0  0  0  0  0  0  0
    7.0041   13.6821   23.4482 C   0  0  0  0  0  0  0  0  0  0  0  0
    6.8102   13.0471   22.4080 O   0  0  0  0  0  0  0  0  0  0  0  0
    5.9879   13.5934   24.5843 C   0  0  0  0  0  0  0  0  0  0  0  0
    6.3023   12.4207   25.5260 C   0  0  0  0  0  0  0  0  0  0  0  0
    7.1331   12.8551   26.7388 C   0  0  0  0  0  0  0  0  0  0  0  0
    7.8439   14.0725   26.3517 N   0  0  0  0  0  0  0  0  0  0  0  0
    9.3931   14.4399   26.8120 S   0  0  0  0  0  0  0  0  0  0  0  0
    9.3819   14.6680   28.2319 O   0  0  0  0  0  0  0  0  0  0  0  0
    9.9145   15.4275   25.9001 O   0  0  0  0  0  0  0  0  0  0  0  0
   10.2573   13.0198   26.5443 N   0  0  0  0  0  0  0  0  0  0  0  0
    9.9892   12.4636   25.2186 C   0  0  0  0  0  0  0  0  0  0  0  0
   10.9831   11.4256   24.8603 C   0  0  0  0  0  0  0  0  0  0  0  0
   12.3807   12.0372   24.7917 C   0  0  0  0  0  0  0  0  0  0  0  0
   12.5869   13.2350   25.6660 C   0  0  0  0  0  0  0  0  0  0  0  0
   11.7050   13.1958   26.8791 C   0  0  0  0  0  0  0  0  0  0  0  0
    6.9461   15.2418   26.2560 C   0  0  0  0  0  0  0  0  0  0  0  0
    5.7730   14.8942   25.3528 C   0  0  0  0  0  0  0  0  0  0  0  0
    9.3801   13.6927   21.7355 C   0  0  0  0  0  0  0  0  0  0  0  0
   10.8911   13.8806   21.6493 C   0  0  1  0  0  0  0  0  0  0  0  0
   11.2138   14.9797   20.6572 C   0  0  0  0  0  0  0  0  0  0  0  0
   10.8398   16.1911   21.4960 C   0  0  0  0  0  0  0  0  0  0  0  0
   10.2389   15.5723   22.7676 C   0  0  2  0  0  0  0  0  0  0  0  0
   11.1611   14.4747   22.9153 O   0  0  0  0  0  0  0  0  0  0  0  0
  1  2  1  0
  3  2  1  6
  3  4  1  0
  4  5  1  0
  5  6  2  0
  5  7  1  0
  7  8  1  0
  8  9  1  0
  9 10  1  0
 10 11  1  0
 11 12  2  0
 11 13  2  0
 11 14  1  0
 14 15  1  0
 15 16  1  0
 16 17  1  0
 17 18  1  0
 18 19  1  0
 10 20  1  0
 20 21  1  0
  3 22  1  0
 23 22  1  1
 23 24  1  0
 24 25  1  0
 26 25  1  6
 26 27  1  0
 26  3  1  0
 21  7  1  0
 27 23  1  0
 19 14  1  0
M  END
>  <energy_score>  (4277) 
-41.367019

>  <inchikey>  (4277) 
QSXRXQGILBRKOH-UHFFFAOYSA-N

>  <smiles>  (4277) 
NCC1(OC(=O)C2CCN(S(=O)(=O)N3CCCCC3)CC2)CC2CCC1O2

>  <ref_pdb>  (4277) 
A0875a

>  <alias>  (4277) 
QSXRXQGILBRKOH-UHFFFAOYSA-N-P439-P87-P439-601505

>  <HIPPO Pose ID>  (4277) 
508159

>  <name>  (4277) 
QSXRXQGILBRKOH-UHFFFAOYSA-N-P439-P87-P439-601505

>  <HIPPO Compound ID>  (4277) 
314615

>  <ref_mols>  (4277) 
A4706a,A0875a

>  <distance_score>  (4277) 
1.674742

>  <inspiration_score>  (4277) 
None

$$$$
CJTQFZASJRRAST-UHFFFAOYSA-N-P87-P87-P439-601505
     RDKit          3D

 27 28  0  0  0  0  0  0  0  0999 V2000
   16.6451   15.4722   28.1287 C   0  0  0  0  0  0  0  0  0  0  0  0
   15.7600   14.3493   28.0407 O   0  0  0  0  0  0  0  0  0  0  0  0
   16.1557   13.3059   27.2548 C   0  0  0  0  0  0  0  0  0  0  0  0
   17.1441   13.2743   26.5386 O   0  0  0  0  0  0  0  0  0  0  0  0
   15.2211   12.1195   27.4881 C   0  0  1  0  0  0  0  0  0  0  0  0
   13.9702   12.0425   26.7342 O   0  0  0  0  0  0  0  0  0  0  0  0
   13.9047   12.0662   25.3757 C   0  0  0  0  0  0  0  0  0  0  0  0
   14.8309   11.7974   24.6275 O   0  0  0  0  0  0  0  0  0  0  0  0
   12.5188   12.5284   24.8830 C   0  0  0  0  0  0  0  0  0  0  0  0
   12.6521   13.1849   23.5158 C   0  0  0  0  0  0  0  0  0  0  0  0
   11.3789   13.7417   22.9271 C   0  0  0  0  0  0  0  0  0  0  0  0
   10.1830   12.9841   23.3688 N   0  0  0  0  0  0  0  0  0  0  0  0
    9.2124   13.8874   24.3765 S   0  0  0  0  0  0  0  0  0  0  0  0
    9.0868   15.1575   23.7062 O   0  0  0  0  0  0  0  0  0  0  0  0
    9.7586   13.7690   25.7117 O   0  0  0  0  0  0  0  0  0  0  0  0
    7.7431   13.0944   24.3426 N   0  0  0  0  0  0  0  0  0  0  0  0
    7.4774   11.9836   25.2459 C   0  0  0  0  0  0  0  0  0  0  0  0
    6.6990   12.4148   26.4639 C   0  0  0  0  0  0  0  0  0  0  0  0
    5.4981   13.2954   26.1975 C   0  0  0  0  0  0  0  0  0  0  0  0
    5.4177   13.9832   24.8366 C   0  0  0  0  0  0  0  0  0  0  0  0
    6.5583   13.8164   23.8241 C   0  0  0  0  0  0  0  0  0  0  0  0
   10.4671   11.5776   23.6260 C   0  0  0  0  0  0  0  0  0  0  0  0
   11.4389   11.4382   24.7954 C   0  0  0  0  0  0  0  0  0  0  0  0
   16.0619   10.8322   27.6722 C   0  0  0  0  0  0  0  0  0  0  0  0
   17.3540   11.0251   28.4805 C   0  0  0  0  0  0  0  0  0  0  0  0
   16.3667   10.0604   26.3971 C   0  0  0  0  0  0  0  0  0  0  0  0
   15.3024   10.0214   28.4767 F   0  0  0  0  0  0  0  0  0  0  0  0
  1  2  1  0
  2  3  1  0
  3  4  2  0
  3  5  1  0
  5  6  1  6
  6  7  1  0
  7  8  2  0
  7  9  1  0
  9 10  1  0
 10 11  1  0
 11 12  1  0
 12 13  1  0
 13 14  2  0
 13 15  2  0
 13 16  1  0
 16 17  1  0
 17 18  1  0
 18 19  1  0
 19 20  1  0
 20 21  1  0
 12 22  1  0
 22 23  1  0
  5 24  1  0
 24 25  1  0
 24 26  1  0
 24 27  1  0
 23  9  1  0
 21 16  1  0
M  END
>  <energy_score>  (4278) 
-40.431635

>  <inchikey>  (4278) 
CJTQFZASJRRAST-UHFFFAOYSA-N

>  <smiles>  (4278) 
COC(=O)C(OC(=O)C1CCN(S(=O)(=O)N2CCCCC2)CC1)C(C)(C)F

>  <ref_pdb>  (4278) 
A0875a

>  <alias>  (4278) 
CJTQFZASJRRAST-UHFFFAOYSA-N-P87-P87-P439-601505

>  <HIPPO Pose ID>  (4278) 
508162

>  <name>  (4278) 
CJTQFZASJRRAST-UHFFFAOYSA-N-P87-P87-P439-601505

>  <HIPPO Compound ID>  (4278) 
314617

>  <ref_mols>  (4278) 
A4706a,A0875a

>  <distance_score>  (4278) 
1.531576

>  <inspiration_score>  (4278) 
None

$$$$
CJTQFZASJRRAST-UHFFFAOYSA-N-P439-P87-P439-601505
     RDKit          3D

 27 28  0  0  0  0  0  0  0  0999 V2000
   14.3515    9.6412   31.4972 C   0  0  0  0  0  0  0  0  0  0  0  0
   15.1098   10.1827   30.4096 O   0  0  0  0  0  0  0  0  0  0  0  0
   14.6648   11.3573   29.8944 C   0  0  0  0  0  0  0  0  0  0  0  0
   13.6244   11.9189   30.2173 O   0  0  0  0  0  0  0  0  0  0  0  0
   15.5971   11.8702   28.7993 C   0  0  1  0  0  0  0  0  0  0  0  0
   14.8628   12.9068   28.0855 O   0  0  0  0  0  0  0  0  0  0  0  0
   14.4839   12.5162   26.8398 C   0  0  0  0  0  0  0  0  0  0  0  0
   15.2874   12.2135   25.9715 O   0  0  0  0  0  0  0  0  0  0  0  0
   12.9791   12.3912   26.6781 C   0  0  0  0  0  0  0  0  0  0  0  0
   12.0891   13.5401   27.1112 C   0  0  0  0  0  0  0  0  0  0  0  0
   10.6422   13.2496   26.7733 C   0  0  0  0  0  0  0  0  0  0  0  0
   10.4374   13.0317   25.3235 N   0  0  0  0  0  0  0  0  0  0  0  0
    9.2768   14.0652   24.6788 S   0  0  0  0  0  0  0  0  0  0  0  0
    9.1253   13.8229   23.2698 O   0  0  0  0  0  0  0  0  0  0  0  0
    9.5843   15.3643   25.2181 O   0  0  0  0  0  0  0  0  0  0  0  0
    7.9407   13.4512   25.4889 N   0  0  0  0  0  0  0  0  0  0  0  0
    7.4611   12.1194   25.0646 C   0  0  0  0  0  0  0  0  0  0  0  0
    6.6611   11.5238   26.2178 C   0  0  0  0  0  0  0  0  0  0  0  0
    5.5192   12.4472   26.6407 C   0  0  0  0  0  0  0  0  0  0  0  0
    6.0112   13.8715   26.8964 C   0  0  0  0  0  0  0  0  0  0  0  0
    6.8241   14.3956   25.7138 C   0  0  0  0  0  0  0  0  0  0  0  0
   11.6684   12.8772   24.5360 C   0  0  0  0  0  0  0  0  0  0  0  0
   12.5734   11.8878   25.2807 C   0  0  0  0  0  0  0  0  0  0  0  0
   16.9101   12.3809   29.4228 C   0  0  0  0  0  0  0  0  0  0  0  0
   16.7276   13.6040   30.3188 C   0  0  0  0  0  0  0  0  0  0  0  0
   17.9629   12.6390   28.3492 C   0  0  0  0  0  0  0  0  0  0  0  0
   17.4319   11.3898   30.2129 F   0  0  0  0  0  0  0  0  0  0  0  0
  1  2  1  0
  2  3  1  0
  3  4  2  0
  3  5  1  0
  5  6  1  1
  6  7  1  0
  7  8  2  0
  7  9  1  0
  9 10  1  0
 10 11  1  0
 11 12  1  0
 12 13  1  0
 13 14  2  0
 13 15  2  0
 13 16  1  0
 16 17  1  0
 17 18  1  0
 18 19  1  0
 19 20  1  0
 20 21  1  0
 12 22  1  0
 22 23  1  0
  5 24  1  0
 24 25  1  0
 24 26  1  0
 24 27  1  0
 23  9  1  0
 21 16  1  0
M  END
>  <energy_score>  (4279) 
-66.843465

>  <inchikey>  (4279) 
CJTQFZASJRRAST-UHFFFAOYSA-N

>  <smiles>  (4279) 
COC(=O)C(OC(=O)C1CCN(S(=O)(=O)N2CCCCC2)CC1)C(C)(C)F

>  <ref_pdb>  (4279) 
A0875a

>  <alias>  (4279) 
CJTQFZASJRRAST-UHFFFAOYSA-N-P439-P87-P439-601505

>  <HIPPO Pose ID>  (4279) 
508163

>  <name>  (4279) 
CJTQFZASJRRAST-UHFFFAOYSA-N-P439-P87-P439-601505

>  <HIPPO Compound ID>  (4279) 
314617

>  <ref_mols>  (4279) 
A4706a,A0875a

>  <distance_score>  (4279) 
1.815561

>  <inspiration_score>  (4279) 
None

$$$$
DVGYKYZKFSYEGO-UHFFFAOYSA-N-P439-P87-P439-601505
     RDKit          3D

 27 30  0  0  0  0  0  0  0  0999 V2000
    6.9255   15.5880   22.1986 O   0  0  0  0  0  0  0  0  0  0  0  0
    7.5470   14.5568   22.4184 C   0  0  0  0  0  0  0  0  0  0  0  0
    8.6626   14.1817   21.7199 O   0  0  0  0  0  0  0  0  0  0  0  0
    9.4722   15.2621   21.1533 C   0  0  2  0  0  0  0  0  0  0  0  0
    9.3607   15.4109   19.6490 C   0  0  0  0  0  0  0  0  0  0  0  0
   10.4578   14.9202   18.7120 C   0  0  0  0  0  0  0  0  0  0  0  0
   11.7818   14.6841   19.3376 C   0  0  0  0  0  0  0  0  0  0  0  0
   11.8331   15.5096   20.4711 O   0  0  0  0  0  0  0  0  0  0  0  0
   10.9312   15.0833   21.5162 C   0  0  0  0  0  0  0  0  0  0  0  0
   11.4076   13.8201   22.2363 C   0  0  0  0  0  0  0  0  0  0  0  0
   12.1223   14.6871   23.1878 N   0  0  0  0  0  0  0  0  0  0  0  0
   11.1859   15.7669   22.8431 C   0  0  0  0  0  0  0  0  0  0  0  0
    7.1059   13.5628   23.5198 C   0  0  0  0  0  0  0  0  0  0  0  0
    8.1301   12.4477   23.7846 C   0  0  0  0  0  0  0  0  0  0  0  0
    8.0859   11.7996   25.1509 C   0  0  0  0  0  0  0  0  0  0  0  0
    8.1416   12.8394   26.1808 N   0  0  0  0  0  0  0  0  0  0  0  0
    9.4975   13.8513   26.2991 S   0  0  0  0  0  0  0  0  0  0  0  0
    9.2834   14.6323   27.4936 O   0  0  0  0  0  0  0  0  0  0  0  0
    9.6873   14.5353   25.0503 O   0  0  0  0  0  0  0  0  0  0  0  0
   10.8586   12.8471   26.5814 N   0  0  0  0  0  0  0  0  0  0  0  0
   11.4192   12.0905   25.4276 C   0  0  0  0  0  0  0  0  0  0  0  0
   12.9091   12.3151   25.2069 C   0  0  0  0  0  0  0  0  0  0  0  0
   13.8048   12.2180   26.4127 C   0  0  0  0  0  0  0  0  0  0  0  0
   13.1701   12.8696   27.6108 C   0  0  0  0  0  0  0  0  0  0  0  0
   11.8917   13.6489   27.3087 C   0  0  0  0  0  0  0  0  0  0  0  0
    6.8589   13.6163   26.1171 C   0  0  0  0  0  0  0  0  0  0  0  0
    6.7375   14.3741   24.7920 C   0  0  0  0  0  0  0  0  0  0  0  0
  1  2  2  0
  2  3  1  0
  4  3  1  6
  4  5  1  0
  5  6  1  0
  6  7  1  0
  7  8  1  0
  8  9  1  0
  9 10  1  0
 10 11  1  0
 11 12  1  0
  2 13  1  0
 13 14  1  0
 14 15  1  0
 15 16  1  0
 16 17  1  0
 17 18  2  0
 17 19  2  0
 17 20  1  0
 20 21  1  0
 21 22  1  0
 22 23  1  0
 23 24  1  0
 24 25  1  0
 16 26  1  0
 26 27  1  0
  9  4  1  0
 27 13  1  0
 12  9  1  0
 25 20  1  0
M  END
>  <energy_score>  (4280) 
-34.593559

>  <inchikey>  (4280) 
DVGYKYZKFSYEGO-UHFFFAOYSA-N

>  <smiles>  (4280) 
O=C(OC1CCCOC12CNC2)C1CCN(S(=O)(=O)N2CCCCC2)CC1

>  <ref_pdb>  (4280) 
A0875a

>  <alias>  (4280) 
DVGYKYZKFSYEGO-UHFFFAOYSA-N-P439-P87-P439-601505

>  <HIPPO Pose ID>  (4280) 
508167

>  <name>  (4280) 
DVGYKYZKFSYEGO-UHFFFAOYSA-N-P439-P87-P439-601505

>  <HIPPO Compound ID>  (4280) 
314619

>  <ref_mols>  (4280) 
A4706a,A0875a

>  <distance_score>  (4280) 
1.72955

>  <inspiration_score>  (4280) 
None

$$$$
LPFVYYNBSCDWDR-UHFFFAOYSA-N-P439-P87-P439-601505
     RDKit          3D

 27 28  0  0  0  0  0  0  0  0999 V2000
   13.7143    7.6105   33.0292 C   0  0  0  0  0  0  0  0  0  0  0  0
   14.1210    8.9429   32.4199 C   0  0  0  0  0  0  0  0  0  0  0  0
   13.0314   10.0000   32.6113 C   0  0  0  0  0  0  0  0  0  0  0  0
   13.4205   11.3488   32.0127 C   0  0  0  0  0  0  0  0  0  0  0  0
   13.6655   11.2095   30.6119 O   0  0  0  0  0  0  0  0  0  0  0  0
   14.1105   12.4283   30.0219 C   0  0  0  0  0  0  0  0  0  0  0  0
   14.8028   12.1688   28.6736 C   0  0  1  0  0  0  0  0  0  0  0  0
   15.8734   11.0641   28.7982 C   0  0  0  0  0  0  0  0  0  0  0  0
   16.5089   10.7257   27.5222 N   0  0  0  0  0  0  0  0  0  0  0  0
   13.8324   11.8924   27.6205 O   0  0  0  0  0  0  0  0  0  0  0  0
   14.1741   12.3735   26.3928 C   0  0  0  0  0  0  0  0  0  0  0  0
   15.2161   12.9791   26.1720 O   0  0  0  0  0  0  0  0  0  0  0  0
   13.1685   12.1311   25.2626 C   0  0  0  0  0  0  0  0  0  0  0  0
   12.7390   13.4418   24.6210 C   0  0  0  0  0  0  0  0  0  0  0  0
   11.6197   14.1311   25.3690 C   0  0  0  0  0  0  0  0  0  0  0  0
   10.4382   13.2673   25.4872 N   0  0  0  0  0  0  0  0  0  0  0  0
    9.0100   14.0917   25.2769 S   0  0  0  0  0  0  0  0  0  0  0  0
    8.5776   13.9119   23.9149 O   0  0  0  0  0  0  0  0  0  0  0  0
    9.2229   15.4040   25.8399 O   0  0  0  0  0  0  0  0  0  0  0  0
    7.9923   13.2825   26.3456 N   0  0  0  0  0  0  0  0  0  0  0  0
    6.9417   14.1532   26.9427 C   0  0  0  0  0  0  0  0  0  0  0  0
    5.8324   14.3977   25.9265 C   0  0  0  0  0  0  0  0  0  0  0  0
    5.4190   13.1067   25.2186 C   0  0  0  0  0  0  0  0  0  0  0  0
    5.9859   11.8896   25.9357 C   0  0  0  0  0  0  0  0  0  0  0  0
    7.4954   11.9515   25.9373 C   0  0  0  0  0  0  0  0  0  0  0  0
   10.6219   11.9153   24.9654 C   0  0  0  0  0  0  0  0  0  0  0  0
   11.9037   11.4163   25.6259 C   0  0  0  0  0  0  0  0  0  0  0  0
  1  2  1  0
  2  3  1  0
  3  4  1  0
  4  5  1  0
  5  6  1  0
  7  6  1  1
  7  8  1  0
  8  9  1  0
  7 10  1  0
 10 11  1  0
 11 12  2  0
 11 13  1  0
 13 14  1  0
 14 15  1  0
 15 16  1  0
 16 17  1  0
 17 18  2  0
 17 19  2  0
 17 20  1  0
 20 21  1  0
 21 22  1  0
 22 23  1  0
 23 24  1  0
 24 25  1  0
 16 26  1  0
 26 27  1  0
 27 13  1  0
 25 20  1  0
M  END
>  <energy_score>  (4281) 
-58.375916

>  <inchikey>  (4281) 
LPFVYYNBSCDWDR-UHFFFAOYSA-N

>  <smiles>  (4281) 
CCCCOCC(CN)OC(=O)C1CCN(S(=O)(=O)N2CCCCC2)CC1

>  <ref_pdb>  (4281) 
A0875a

>  <alias>  (4281) 
LPFVYYNBSCDWDR-UHFFFAOYSA-N-P439-P87-P439-601505

>  <HIPPO Pose ID>  (4281) 
508171

>  <name>  (4281) 
LPFVYYNBSCDWDR-UHFFFAOYSA-N-P439-P87-P439-601505

>  <HIPPO Compound ID>  (4281) 
314621

>  <ref_mols>  (4281) 
A4706a,A0875a

>  <distance_score>  (4281) 
1.999559

>  <inspiration_score>  (4281) 
None

$$$$
NPZSFOIBMDVILE-UHFFFAOYSA-N-P439-P87-P439-601505
     RDKit          3D

 27 31  0  0  0  0  0  0  0  0999 V2000
    6.4981   13.0338   22.1469 O   0  0  0  0  0  0  0  0  0  0  0  0
    6.8556   13.7370   23.0865 C   0  0  0  0  0  0  0  0  0  0  0  0
    7.7058   14.7759   22.9664 O   0  0  0  0  0  0  0  0  0  0  0  0
    8.3870   14.9368   21.7028 C   0  0  1  0  0  0  0  0  0  0  0  0
    9.1285   16.2616   21.7852 C   0  0  2  0  0  0  0  0  0  0  0  0
    9.8958   16.5771   20.5213 C   0  0  0  0  0  0  0  0  0  0  0  0
   11.0835   15.5803   20.5841 C   0  0  2  0  0  0  0  0  0  0  0  0
   10.9052   14.5250   19.5675 C   0  0  0  0  0  0  0  0  0  0  0  0
    9.7433   13.8639   20.0608 O   0  0  0  0  0  0  0  0  0  0  0  0
    9.5967   14.0098   21.4724 C   0  0  1  0  0  0  0  0  0  0  0  0
   10.8150   14.8201   21.8768 C   0  0  2  0  0  0  0  0  0  0  0  0
   10.2947   15.9199   22.7296 C   0  0  0  0  0  0  0  0  0  0  0  0
    6.4325   13.4248   24.5319 C   0  0  0  0  0  0  0  0  0  0  0  0
    6.9932   12.0280   24.9098 C   0  0  0  0  0  0  0  0  0  0  0  0
    7.9002   11.8811   26.1254 C   0  0  0  0  0  0  0  0  0  0  0  0
    8.4558   13.1679   26.5764 N   0  0  0  0  0  0  0  0  0  0  0  0
    9.7155   13.7928   25.6613 S   0  0  0  0  0  0  0  0  0  0  0  0
    9.4325   13.4527   24.2958 O   0  0  0  0  0  0  0  0  0  0  0  0
    9.9429   15.1510   26.0870 O   0  0  0  0  0  0  0  0  0  0  0  0
   11.0813   12.8674   26.0903 N   0  0  0  0  0  0  0  0  0  0  0  0
   11.9301   12.6105   24.8881 C   0  0  0  0  0  0  0  0  0  0  0  0
   13.0543   11.6651   25.2689 C   0  0  0  0  0  0  0  0  0  0  0  0
   13.9619   12.2888   26.2970 C   0  0  0  0  0  0  0  0  0  0  0  0
   13.1598   12.7636   27.4931 C   0  0  0  0  0  0  0  0  0  0  0  0
   11.8788   13.5331   27.1541 C   0  0  0  0  0  0  0  0  0  0  0  0
    7.3389   14.1123   26.8408 C   0  0  0  0  0  0  0  0  0  0  0  0
    6.6747   14.5560   25.5459 C   0  0  0  0  0  0  0  0  0  0  0  0
  1  2  2  0
  2  3  1  0
  4  3  1  1
  4  5  1  0
  5  6  1  6
  7  6  1  6
  7  8  1  0
  8  9  1  0
 10  9  1  6
 10 11  1  0
 11 12  1  1
  2 13  1  0
 13 14  1  0
 14 15  1  0
 15 16  1  0
 16 17  1  0
 17 18  2  0
 17 19  2  0
 17 20  1  0
 20 21  1  0
 21 22  1  0
 22 23  1  0
 23 24  1  0
 24 25  1  0
 16 26  1  0
 26 27  1  0
 10  4  1  0
 27 13  1  0
 12  5  1  0
 25 20  1  0
 11  7  1  0
M  END
>  <energy_score>  (4282) 
-41.79337

>  <inchikey>  (4282) 
NPZSFOIBMDVILE-UHFFFAOYSA-N

>  <smiles>  (4282) 
O=C(OC1C2CC3COC1C3C2)C1CCN(S(=O)(=O)N2CCCCC2)CC1

>  <ref_pdb>  (4282) 
A0875a

>  <alias>  (4282) 
NPZSFOIBMDVILE-UHFFFAOYSA-N-P439-P87-P439-601505

>  <HIPPO Pose ID>  (4282) 
508175

>  <name>  (4282) 
NPZSFOIBMDVILE-UHFFFAOYSA-N-P439-P87-P439-601505

>  <HIPPO Compound ID>  (4282) 
314623

>  <ref_mols>  (4282) 
A4706a,A0875a

>  <distance_score>  (4282) 
1.593209

>  <inspiration_score>  (4282) 
None

$$$$
UDOKXQSPYWGYKL-UHFFFAOYSA-N-P439-P87-P439-601505
     RDKit          3D

 27 29  0  0  0  0  0  0  0  0999 V2000
   12.3996   15.1977   20.9797 N   0  0  0  0  0  0  0  0  0  0  0  0
   11.6675   14.1259   21.6380 C   0  0  0  0  0  0  0  0  0  0  0  0
   10.1631   14.4052   21.6578 C   0  0  2  0  0  0  0  0  0  0  0  0
    9.4520   13.2659   22.2646 O   0  0  0  0  0  0  0  0  0  0  0  0
    8.1000   13.3749   22.5420 C   0  0  0  0  0  0  0  0  0  0  0  0
    7.1864   13.4265   21.7331 O   0  0  0  0  0  0  0  0  0  0  0  0
    7.8826   13.3149   24.0100 C   0  0  0  0  0  0  0  0  0  0  0  0
    7.7660   11.9031   24.5615 C   0  0  0  0  0  0  0  0  0  0  0  0
    7.9923   11.9107   26.0656 C   0  0  0  0  0  0  0  0  0  0  0  0
    8.0681   13.2870   26.5727 N   0  0  0  0  0  0  0  0  0  0  0  0
    9.5012   14.1464   26.7730 S   0  0  0  0  0  0  0  0  0  0  0  0
    9.4428   14.6483   28.1217 O   0  0  0  0  0  0  0  0  0  0  0  0
    9.7100   15.0759   25.6922 O   0  0  0  0  0  0  0  0  0  0  0  0
   10.7805   13.0102   26.7027 N   0  0  0  0  0  0  0  0  0  0  0  0
   11.9772   13.6214   27.3665 C   0  0  0  0  0  0  0  0  0  0  0  0
   13.2072   12.7209   27.2796 C   0  0  0  0  0  0  0  0  0  0  0  0
   13.5651   12.3274   25.8602 C   0  0  0  0  0  0  0  0  0  0  0  0
   12.4876   12.7793   24.8995 C   0  0  0  0  0  0  0  0  0  0  0  0
   11.1028   12.4119   25.3770 C   0  0  0  0  0  0  0  0  0  0  0  0
    6.8913   14.1139   26.1661 C   0  0  0  0  0  0  0  0  0  0  0  0
    6.8167   14.2109   24.6324 C   0  0  0  0  0  0  0  0  0  0  0  0
    9.6411   14.6120   20.2460 C   0  0  0  0  0  0  0  0  0  0  0  0
    9.8075   15.9438   19.5675 C   0  0  0  0  0  0  0  0  0  0  0  0
    9.2828   17.1220   20.3779 C   0  0  0  0  0  0  0  0  0  0  0  0
    8.2753   16.7856   21.4725 C   0  0  0  0  0  0  0  0  0  0  0  0
    8.6963   16.0070   22.5798 O   0  0  0  0  0  0  0  0  0  0  0  0
   10.0363   15.6053   22.5698 C   0  0  0  0  0  0  0  0  0  0  0  0
  1  2  1  0
  3  2  1  6
  3  4  1  0
  4  5  1  0
  5  6  2  0
  5  7  1  0
  7  8  1  0
  8  9  1  0
  9 10  1  0
 10 11  1  0
 11 12  2  0
 11 13  2  0
 11 14  1  0
 14 15  1  0
 15 16  1  0
 16 17  1  0
 17 18  1  0
 18 19  1  0
 10 20  1  0
 20 21  1  0
  3 22  1  0
 22 23  1  0
 23 24  1  0
 24 25  1  0
 25 26  1  0
 26 27  1  0
 27  3  1  0
 21  7  1  0
 19 14  1  0
M  END
>  <energy_score>  (4283) 
-9.751169

>  <inchikey>  (4283) 
UDOKXQSPYWGYKL-UHFFFAOYSA-N

>  <smiles>  (4283) 
NCC1(OC(=O)C2CCN(S(=O)(=O)N3CCCCC3)CC2)CCCCOC1

>  <ref_pdb>  (4283) 
A0875a

>  <alias>  (4283) 
UDOKXQSPYWGYKL-UHFFFAOYSA-N-P439-P87-P439-601505

>  <HIPPO Pose ID>  (4283) 
508179

>  <name>  (4283) 
UDOKXQSPYWGYKL-UHFFFAOYSA-N-P439-P87-P439-601505

>  <HIPPO Compound ID>  (4283) 
314625

>  <ref_mols>  (4283) 
A4706a,A0875a

>  <distance_score>  (4283) 
1.989943

>  <inspiration_score>  (4283) 
None

$$$$
YISIEPDXODKGRX-UHFFFAOYSA-N-P439-P87-P439-601505
     RDKit          3D

 27 29  0  0  0  0  0  0  0  0999 V2000
   10.6096   14.1031   18.2113 N   0  0  0  0  0  0  0  0  0  0  0  0
   11.6097   14.8894   18.8830 C   0  0  0  0  0  0  0  0  0  0  0  0
   11.2026   15.2380   20.2925 C   0  0  2  0  0  0  0  0  0  0  0  0
   11.2384   14.0931   21.2898 C   0  0  0  0  0  0  0  0  0  0  0  0
   11.2252   14.6200   22.6205 O   0  0  0  0  0  0  0  0  0  0  0  0
   10.4374   15.8109   22.6726 C   0  0  0  0  0  0  0  0  0  0  0  0
    9.3350   15.9496   21.6072 C   0  0  2  0  0  0  0  0  0  0  0  0
    8.1513   14.9728   21.7678 C   0  0  0  0  0  0  0  0  0  0  0  0
    7.5077   15.0189   23.0579 O   0  0  0  0  0  0  0  0  0  0  0  0
    6.7700   13.9032   23.3285 C   0  0  0  0  0  0  0  0  0  0  0  0
    6.5289   13.0247   22.5014 O   0  0  0  0  0  0  0  0  0  0  0  0
    6.2196   13.8261   24.7568 C   0  0  0  0  0  0  0  0  0  0  0  0
    6.3575   12.3946   25.3232 C   0  0  0  0  0  0  0  0  0  0  0  0
    7.7215   12.0224   25.9160 C   0  0  0  0  0  0  0  0  0  0  0  0
    8.4331   13.2051   26.4753 N   0  0  0  0  0  0  0  0  0  0  0  0
    9.6855   13.8009   25.5085 S   0  0  0  0  0  0  0  0  0  0  0  0
    9.3390   13.4495   24.1581 O   0  0  0  0  0  0  0  0  0  0  0  0
    9.9381   15.1609   25.9202 O   0  0  0  0  0  0  0  0  0  0  0  0
   11.0360   12.8630   25.9782 N   0  0  0  0  0  0  0  0  0  0  0  0
   11.8015   13.5233   27.0741 C   0  0  0  0  0  0  0  0  0  0  0  0
   13.0818   12.7659   27.4480 C   0  0  0  0  0  0  0  0  0  0  0  0
   13.9136   12.2804   26.2793 C   0  0  0  0  0  0  0  0  0  0  0  0
   13.0261   11.6580   25.2328 C   0  0  0  0  0  0  0  0  0  0  0  0
   11.9313   12.6255   24.8115 C   0  0  0  0  0  0  0  0  0  0  0  0
    7.4737   14.2423   26.9421 C   0  0  0  0  0  0  0  0  0  0  0  0
    6.7249   14.8673   25.7649 C   0  0  0  0  0  0  0  0  0  0  0  0
    9.8927   15.8522   20.2773 O   0  0  0  0  0  0  0  0  0  0  0  0
  1  2  1  0
  3  2  1  6
  3  4  1  0
  4  5  1  0
  5  6  1  0
  6  7  1  0
  7  8  1  1
  8  9  1  0
  9 10  1  0
 10 11  2  0
 10 12  1  0
 12 13  1  0
 13 14  1  0
 14 15  1  0
 15 16  1  0
 16 17  2  0
 16 18  2  0
 16 19  1  0
 19 20  1  0
 20 21  1  0
 21 22  1  0
 22 23  1  0
 23 24  1  0
 15 25  1  0
 25 26  1  0
  7 27  1  0
 27  3  1  0
 26 12  1  0
 24 19  1  0
M  END
>  <energy_score>  (4284) 
-58.769432

>  <inchikey>  (4284) 
YISIEPDXODKGRX-UHFFFAOYSA-N

>  <smiles>  (4284) 
NCC1COCC(COC(=O)C2CCN(S(=O)(=O)N3CCCCC3)CC2)O1

>  <ref_pdb>  (4284) 
A0875a

>  <alias>  (4284) 
YISIEPDXODKGRX-UHFFFAOYSA-N-P439-P87-P439-601505

>  <HIPPO Pose ID>  (4284) 
508185

>  <name>  (4284) 
YISIEPDXODKGRX-UHFFFAOYSA-N-P439-P87-P439-601505

>  <HIPPO Compound ID>  (4284) 
314628

>  <ref_mols>  (4284) 
A4706a,A0875a

>  <distance_score>  (4284) 
1.631023

>  <inspiration_score>  (4284) 
None

$$$$
XNYYFBVAIMKNGU-UHFFFAOYSA-N-P439-P87-P439-601505
     RDKit          3D

 27 29  0  0  0  0  0  0  0  0999 V2000
    9.4503   15.5037   18.7908 C   0  0  0  0  0  0  0  0  0  0  0  0
   10.3785   14.4530   18.4618 N   0  0  0  0  0  0  0  0  0  0  0  0
   11.4584   14.4703   19.3932 C   0  0  0  0  0  0  0  0  0  0  0  0
   11.1536   14.5874   20.8731 C   0  0  1  0  0  0  0  0  0  0  0  0
   11.1230   15.9626   21.2105 O   0  0  0  0  0  0  0  0  0  0  0  0
   10.9222   16.1355   22.5877 C   0  0  0  0  0  0  0  0  0  0  0  0
   11.4112   15.0010   23.4279 C   0  0  0  0  0  0  0  0  0  0  0  0
   10.7544   13.7069   23.0394 C   0  0  0  0  0  0  0  0  0  0  0  0
   10.0843   13.7974   21.6842 C   0  0  1  0  0  0  0  0  0  0  0  0
    8.7358   14.3475   21.9029 O   0  0  0  0  0  0  0  0  0  0  0  0
    7.8949   13.5336   22.6244 C   0  0  0  0  0  0  0  0  0  0  0  0
    8.1515   12.3594   22.8934 O   0  0  0  0  0  0  0  0  0  0  0  0
    6.5597   14.1268   23.0739 C   0  0  0  0  0  0  0  0  0  0  0  0
    5.9624   13.2356   24.2118 C   0  0  0  0  0  0  0  0  0  0  0  0
    6.8099   13.2323   25.5012 C   0  0  0  0  0  0  0  0  0  0  0  0
    7.7823   14.3384   25.3757 N   0  0  0  0  0  0  0  0  0  0  0  0
    9.0533   14.5010   26.4276 S   0  0  0  0  0  0  0  0  0  0  0  0
    8.5862   14.1674   27.7434 O   0  0  0  0  0  0  0  0  0  0  0  0
    9.6440   15.7889   26.1696 O   0  0  0  0  0  0  0  0  0  0  0  0
   10.2343   13.4033   25.9756 N   0  0  0  0  0  0  0  0  0  0  0  0
    9.8900   11.9939   25.8253 C   0  0  0  0  0  0  0  0  0  0  0  0
   11.0293   11.2090   25.2002 C   0  0  0  0  0  0  0  0  0  0  0  0
   12.4499   11.5882   25.6260 C   0  0  0  0  0  0  0  0  0  0  0  0
   12.6728   13.0524   25.8257 C   0  0  0  0  0  0  0  0  0  0  0  0
   11.5368   13.6533   26.6354 C   0  0  0  0  0  0  0  0  0  0  0  0
    7.0165   15.5767   25.0993 C   0  0  0  0  0  0  0  0  0  0  0  0
    6.6724   15.5542   23.6097 C   0  0  0  0  0  0  0  0  0  0  0  0
  1  2  1  0
  2  3  1  0
  4  3  1  6
  4  5  1  0
  5  6  1  0
  6  7  1  0
  7  8  1  0
  8  9  1  0
  9 10  1  1
 10 11  1  0
 11 12  2  0
 11 13  1  0
 13 14  1  0
 14 15  1  0
 15 16  1  0
 16 17  1  0
 17 18  2  0
 17 19  2  0
 17 20  1  0
 20 21  1  0
 21 22  1  0
 22 23  1  0
 23 24  1  0
 24 25  1  0
 16 26  1  0
 26 27  1  0
  9  4  1  0
 27 13  1  0
 25 20  1  0
M  END
>  <energy_score>  (4285) 
-11.852341

>  <inchikey>  (4285) 
XNYYFBVAIMKNGU-UHFFFAOYSA-N

>  <smiles>  (4285) 
CNCC1OCCCC1OC(=O)C1CCN(S(=O)(=O)N2CCCCC2)CC1

>  <ref_pdb>  (4285) 
A0875a

>  <alias>  (4285) 
XNYYFBVAIMKNGU-UHFFFAOYSA-N-P439-P87-P439-601505

>  <HIPPO Pose ID>  (4285) 
508187

>  <name>  (4285) 
XNYYFBVAIMKNGU-UHFFFAOYSA-N-P439-P87-P439-601505

>  <HIPPO Compound ID>  (4285) 
314629

>  <ref_mols>  (4285) 
A4706a,A0875a

>  <distance_score>  (4285) 
1.940363

>  <inspiration_score>  (4285) 
None

$$$$
OJKGKZPXFBKBHB-UHFFFAOYSA-N-P439-P87-P439-601505
     RDKit          3D

 27 29  0  0  0  0  0  0  0  0999 V2000
    7.4207   15.7118   24.8082 O   0  0  0  0  0  0  0  0  0  0  0  0
    6.8431   14.6819   24.4890 C   0  0  0  0  0  0  0  0  0  0  0  0
    6.8677   14.1279   23.2545 O   0  0  0  0  0  0  0  0  0  0  0  0
    7.3951   14.9505   22.1727 C   0  0  1  0  0  0  0  0  0  0  0  0
    6.5730   16.2374   22.0642 C   0  0  0  0  0  0  0  0  0  0  0  0
    5.3010   15.8774   21.7064 F   0  0  0  0  0  0  0  0  0  0  0  0
    6.4152   16.9289   23.2067 F   0  0  0  0  0  0  0  0  0  0  0  0
    8.9280   15.1719   22.1547 C   0  0  2  0  0  0  0  0  0  0  0  0
    9.4986   15.7204   20.8431 C   0  0  0  0  0  0  0  0  0  0  0  0
   10.9164   15.1743   20.7766 C   0  0  0  0  0  0  0  0  0  0  0  0
   10.9989   14.2239   21.9480 C   0  0  0  0  0  0  0  0  0  0  0  0
    9.6420   13.9299   22.2786 O   0  0  0  0  0  0  0  0  0  0  0  0
    5.9962   13.8998   25.4742 C   0  0  0  0  0  0  0  0  0  0  0  0
    6.2840   12.3917   25.4753 C   0  0  0  0  0  0  0  0  0  0  0  0
    7.3637   12.0071   26.4879 C   0  0  0  0  0  0  0  0  0  0  0  0
    8.3482   13.1113   26.6504 N   0  0  0  0  0  0  0  0  0  0  0  0
    9.4802   13.2551   25.4094 S   0  0  0  0  0  0  0  0  0  0  0  0
    9.8310   14.6265   25.1443 O   0  0  0  0  0  0  0  0  0  0  0  0
    9.0304   12.3304   24.3961 O   0  0  0  0  0  0  0  0  0  0  0  0
   10.8562   12.5653   26.1450 N   0  0  0  0  0  0  0  0  0  0  0  0
   11.6528   13.5195   26.9594 C   0  0  0  0  0  0  0  0  0  0  0  0
   12.9680   12.8974   27.4475 C   0  0  0  0  0  0  0  0  0  0  0  0
   13.8288   12.3059   26.3554 C   0  0  0  0  0  0  0  0  0  0  0  0
   13.0727   12.2170   25.0635 C   0  0  0  0  0  0  0  0  0  0  0  0
   11.6340   11.7838   25.1738 C   0  0  0  0  0  0  0  0  0  0  0  0
    7.7542   14.3275   27.2592 C   0  0  0  0  0  0  0  0  0  0  0  0
    6.2733   14.4729   26.8717 C   0  0  0  0  0  0  0  0  0  0  0  0
  1  2  2  0
  2  3  1  0
  4  3  1  1
  4  5  1  0
  5  6  1  0
  5  7  1  0
  4  8  1  0
  8  9  1  6
  9 10  1  0
 10 11  1  0
 11 12  1  0
  2 13  1  0
 13 14  1  0
 14 15  1  0
 15 16  1  0
 16 17  1  0
 17 18  2  0
 17 19  2  0
 17 20  1  0
 20 21  1  0
 21 22  1  0
 22 23  1  0
 23 24  1  0
 24 25  1  0
 16 26  1  0
 26 27  1  0
 12  8  1  0
 27 13  1  0
 25 20  1  0
M  END
>  <energy_score>  (4286) 
-30.015877

>  <inchikey>  (4286) 
OJKGKZPXFBKBHB-UHFFFAOYSA-N

>  <smiles>  (4286) 
O=C(OC(C(F)F)C1CCCO1)C1CCN(S(=O)(=O)N2CCCCC2)CC1

>  <ref_pdb>  (4286) 
A0875a

>  <alias>  (4286) 
OJKGKZPXFBKBHB-UHFFFAOYSA-N-P439-P87-P439-601505

>  <HIPPO Pose ID>  (4286) 
508201

>  <name>  (4286) 
OJKGKZPXFBKBHB-UHFFFAOYSA-N-P439-P87-P439-601505

>  <HIPPO Compound ID>  (4286) 
314636

>  <ref_mols>  (4286) 
A4706a,A0875a

>  <distance_score>  (4286) 
1.883237

>  <inspiration_score>  (4286) 
None

$$$$
RPRVPNUSURBYRC-UHFFFAOYSA-N-P439-P87-P439-601505
     RDKit          3D

 27 29  0  0  0  0  0  0  0  0999 V2000
    8.2002   19.0162   19.7668 C   0  0  0  0  0  0  0  0  0  0  0  0
    8.9544   17.8141   19.9829 O   0  0  0  0  0  0  0  0  0  0  0  0
    8.4695   17.1910   21.1630 C   0  0  0  0  0  0  0  0  0  0  0  0
    9.1016   15.8457   21.5871 C   0  0  0  0  0  0  0  0  0  0  0  0
    8.2235   15.4074   22.7095 O   0  0  0  0  0  0  0  0  0  0  0  0
    7.0287   14.7763   22.5628 C   0  0  0  0  0  0  0  0  0  0  0  0
    6.6288   14.2628   21.5238 O   0  0  0  0  0  0  0  0  0  0  0  0
    6.1555   14.7577   23.8424 C   0  0  0  0  0  0  0  0  0  0  0  0
    5.7370   13.3297   24.2497 C   0  0  0  0  0  0  0  0  0  0  0  0
    6.6616   12.5780   25.2144 C   0  0  0  0  0  0  0  0  0  0  0  0
    7.7362   13.4615   25.7037 N   0  0  0  0  0  0  0  0  0  0  0  0
    9.1294   13.5141   24.7565 S   0  0  0  0  0  0  0  0  0  0  0  0
    9.6743   14.8475   24.7845 O   0  0  0  0  0  0  0  0  0  0  0  0
    8.8606   12.7677   23.5565 O   0  0  0  0  0  0  0  0  0  0  0  0
   10.1249   12.6184   25.7247 N   0  0  0  0  0  0  0  0  0  0  0  0
   10.6213   13.3461   26.8810 C   0  0  0  0  0  0  0  0  0  0  0  0
   12.0420   13.7792   26.7221 C   0  0  0  0  0  0  0  0  0  0  0  0
   12.9338   12.5943   26.4480 C   0  0  0  0  0  0  0  0  0  0  0  0
   12.4694   11.9382   25.1678 C   0  0  0  0  0  0  0  0  0  0  0  0
   10.9786   11.6107   25.0994 C   0  0  0  0  0  0  0  0  0  0  0  0
    7.2004   14.7374   26.1985 C   0  0  0  0  0  0  0  0  0  0  0  0
    6.6284   15.5658   25.0557 C   0  0  0  0  0  0  0  0  0  0  0  0
    9.2052   14.8168   20.4625 C   0  0  0  0  0  0  0  0  0  0  0  0
   10.4616   14.9922   19.6264 C   0  0  0  0  0  0  0  0  0  0  0  0
   11.6426   14.7689   20.3908 O   0  0  0  0  0  0  0  0  0  0  0  0
   11.4769   14.9175   21.7923 C   0  0  0  0  0  0  0  0  0  0  0  0
   10.5365   16.0571   22.1278 C   0  0  0  0  0  0  0  0  0  0  0  0
  1  2  1  0
  2  3  1  0
  3  4  1  0
  4  5  1  0
  5  6  1  0
  6  7  2  0
  6  8  1  0
  8  9  1  0
  9 10  1  0
 10 11  1  0
 11 12  1  0
 12 13  2  0
 12 14  2  0
 12 15  1  0
 15 16  1  0
 16 17  1  0
 17 18  1  0
 18 19  1  0
 19 20  1  0
 11 21  1  0
 21 22  1  0
  4 23  1  0
 23 24  1  0
 24 25  1  0
 25 26  1  0
 26 27  1  0
 27  4  1  0
 22  8  1  0
 20 15  1  0
M  END
>  <energy_score>  (4287) 
-47.566524

>  <inchikey>  (4287) 
RPRVPNUSURBYRC-UHFFFAOYSA-N

>  <smiles>  (4287) 
COCC1(OC(=O)C2CCN(S(=O)(=O)N3CCCCC3)CC2)CCOCC1

>  <ref_pdb>  (4287) 
A0875a

>  <alias>  (4287) 
RPRVPNUSURBYRC-UHFFFAOYSA-N-P439-P87-P439-601505

>  <HIPPO Pose ID>  (4287) 
508203

>  <name>  (4287) 
RPRVPNUSURBYRC-UHFFFAOYSA-N-P439-P87-P439-601505

>  <HIPPO Compound ID>  (4287) 
314637

>  <ref_mols>  (4287) 
A4706a,A0875a

>  <distance_score>  (4287) 
1.835808

>  <inspiration_score>  (4287) 
None

$$$$
QPZVPEKRUTUFLH-UHFFFAOYSA-N-P439-P87-P439-601505
     RDKit          3D

 27 30  0  0  0  0  0  0  0  0999 V2000
   10.3037   14.3456   19.4310 N   0  0  0  0  0  0  0  0  0  0  0  0
   10.2389   14.9550   20.7453 C   0  0  2  0  0  0  0  0  0  0  0  0
   11.5439   14.6905   21.3893 C   0  0  0  0  0  0  0  0  0  0  0  0
   11.9039   15.0275   22.7971 C   0  0  0  0  0  0  0  0  0  0  0  0
   12.2964   15.9406   21.6986 C   0  0  0  0  0  0  0  0  0  0  0  0
    9.0091   14.6279   21.6255 C   0  0  0  0  0  0  0  0  0  0  0  0
    8.9425   13.3399   22.2744 O   0  0  0  0  0  0  0  0  0  0  0  0
    7.6877   13.0801   22.7626 C   0  0  0  0  0  0  0  0  0  0  0  0
    6.6931   12.8601   22.0916 O   0  0  0  0  0  0  0  0  0  0  0  0
    7.6639   13.0678   24.2250 C   0  0  0  0  0  0  0  0  0  0  0  0
    7.7228   11.6886   24.8309 C   0  0  0  0  0  0  0  0  0  0  0  0
    8.0206   11.8350   26.3077 C   0  0  0  0  0  0  0  0  0  0  0  0
    8.1329   13.2565   26.6989 N   0  0  0  0  0  0  0  0  0  0  0  0
    9.5701   14.1372   26.6840 S   0  0  0  0  0  0  0  0  0  0  0  0
    9.7021   14.9373   25.4855 O   0  0  0  0  0  0  0  0  0  0  0  0
    9.6103   14.7988   27.9617 O   0  0  0  0  0  0  0  0  0  0  0  0
   10.8075   12.9607   26.6536 N   0  0  0  0  0  0  0  0  0  0  0  0
   12.0298   13.5124   27.3177 C   0  0  0  0  0  0  0  0  0  0  0  0
   13.2412   12.5783   27.2159 C   0  0  0  0  0  0  0  0  0  0  0  0
   13.5320   12.0863   25.8050 C   0  0  0  0  0  0  0  0  0  0  0  0
   12.4882   12.6433   24.8761 C   0  0  0  0  0  0  0  0  0  0  0  0
   11.0847   12.3336   25.3277 C   0  0  0  0  0  0  0  0  0  0  0  0
    6.9006   14.0341   26.3929 C   0  0  0  0  0  0  0  0  0  0  0  0
    6.5787   13.9032   24.8998 C   0  0  0  0  0  0  0  0  0  0  0  0
    8.7590   15.8490   22.4947 C   0  0  0  0  0  0  0  0  0  0  0  0
    7.9149   16.4293   21.4794 O   0  0  0  0  0  0  0  0  0  0  0  0
    7.7637   15.0997   20.9346 C   0  0  0  0  0  0  0  0  0  0  0  0
  2  1  1  6
  2  3  1  0
  3  4  1  0
  4  5  1  0
  2  6  1  0
  6  7  1  0
  7  8  1  0
  8  9  2  0
  8 10  1  0
 10 11  1  0
 11 12  1  0
 12 13  1  0
 13 14  1  0
 14 15  2  0
 14 16  2  0
 14 17  1  0
 17 18  1  0
 18 19  1  0
 19 20  1  0
 20 21  1  0
 21 22  1  0
 13 23  1  0
 23 24  1  0
  6 25  1  0
 25 26  1  0
 26 27  1  0
  5  3  1  0
 27  6  1  0
 24 10  1  0
 22 17  1  0
M  END
>  <energy_score>  (4288) 
-41.111081

>  <inchikey>  (4288) 
QPZVPEKRUTUFLH-UHFFFAOYSA-N

>  <smiles>  (4288) 
NC(C1CC1)C1(OC(=O)C2CCN(S(=O)(=O)N3CCCCC3)CC2)COC1

>  <ref_pdb>  (4288) 
A0875a

>  <alias>  (4288) 
QPZVPEKRUTUFLH-UHFFFAOYSA-N-P439-P87-P439-601505

>  <HIPPO Pose ID>  (4288) 
508205

>  <name>  (4288) 
QPZVPEKRUTUFLH-UHFFFAOYSA-N-P439-P87-P439-601505

>  <HIPPO Compound ID>  (4288) 
314638

>  <ref_mols>  (4288) 
A4706a,A0875a

>  <distance_score>  (4288) 
1.560263

>  <inspiration_score>  (4288) 
None

$$$$
GHJHZMDJUKHYFA-UHFFFAOYSA-N-P439-P87-P439-601505
     RDKit          3D

 27 30  0  0  0  0  0  0  0  0999 V2000
   11.7335   15.1206   18.2404 N   0  0  0  0  0  0  0  0  0  0  0  0
   11.2153   14.2759   19.2952 C   0  0  0  0  0  0  0  0  0  0  0  0
   10.5218   14.9171   20.4714 C   0  0  1  0  0  0  0  0  0  0  0  0
   11.3925   15.4867   21.5399 C   0  0  0  0  0  0  0  0  0  0  0  0
   10.4415   16.2840   22.2654 O   0  0  0  0  0  0  0  0  0  0  0  0
    9.2104   16.3418   21.4842 C   0  0  1  0  0  0  0  0  0  0  0  0
    9.6954   16.1092   20.0853 C   0  0  0  0  0  0  0  0  0  0  0  0
    8.4004   15.0733   21.6991 C   0  0  2  0  0  0  0  0  0  0  0  0
    7.8432   14.9401   23.0045 O   0  0  0  0  0  0  0  0  0  0  0  0
    7.0697   13.8451   23.1966 C   0  0  0  0  0  0  0  0  0  0  0  0
    6.8411   13.0016   22.3313 O   0  0  0  0  0  0  0  0  0  0  0  0
    6.4434   13.7401   24.5875 C   0  0  0  0  0  0  0  0  0  0  0  0
    6.6657   12.3322   25.1725 C   0  0  0  0  0  0  0  0  0  0  0  0
    8.0697   12.0964   25.7291 C   0  0  0  0  0  0  0  0  0  0  0  0
    8.6203   13.3114   26.3841 N   0  0  0  0  0  0  0  0  0  0  0  0
    9.9287   14.0439   25.6044 S   0  0  0  0  0  0  0  0  0  0  0  0
   10.1503   15.3320   26.2092 O   0  0  0  0  0  0  0  0  0  0  0  0
    9.7502   13.8791   24.1930 O   0  0  0  0  0  0  0  0  0  0  0  0
   11.2116   13.0045   26.0504 N   0  0  0  0  0  0  0  0  0  0  0  0
   12.0959   12.7212   24.8909 C   0  0  0  0  0  0  0  0  0  0  0  0
   13.1447   11.7053   25.3092 C   0  0  0  0  0  0  0  0  0  0  0  0
   14.0391   12.2766   26.3876 C   0  0  0  0  0  0  0  0  0  0  0  0
   13.2064   12.7385   27.5644 C   0  0  0  0  0  0  0  0  0  0  0  0
   11.9573   13.5484   27.2116 C   0  0  0  0  0  0  0  0  0  0  0  0
    7.5588   14.2572   26.8167 C   0  0  0  0  0  0  0  0  0  0  0  0
    6.8176   14.8239   25.6093 C   0  0  0  0  0  0  0  0  0  0  0  0
    9.4471   14.0544   21.2098 C   0  0  0  0  0  0  0  0  0  0  0  0
  1  2  1  0
  3  2  1  6
  3  4  1  0
  4  5  1  0
  6  5  1  1
  6  7  1  0
  6  8  1  0
  8  9  1  1
  9 10  1  0
 10 11  2  0
 10 12  1  0
 12 13  1  0
 13 14  1  0
 14 15  1  0
 15 16  1  0
 16 17  2  0
 16 18  2  0
 16 19  1  0
 19 20  1  0
 20 21  1  0
 21 22  1  0
 22 23  1  0
 23 24  1  0
 15 25  1  0
 25 26  1  0
  8 27  1  0
  7  3  1  0
 26 12  1  0
 27  3  1  0
 24 19  1  0
M  END
>  <energy_score>  (4289) 
-59.446351

>  <inchikey>  (4289) 
GHJHZMDJUKHYFA-UHFFFAOYSA-N

>  <smiles>  (4289) 
NCC12COC(C1)C(OC(=O)C1CCN(S(=O)(=O)N3CCCCC3)CC1)C2

>  <ref_pdb>  (4289) 
A0875a

>  <alias>  (4289) 
GHJHZMDJUKHYFA-UHFFFAOYSA-N-P439-P87-P439-601505

>  <HIPPO Pose ID>  (4289) 
508207

>  <name>  (4289) 
GHJHZMDJUKHYFA-UHFFFAOYSA-N-P439-P87-P439-601505

>  <HIPPO Compound ID>  (4289) 
314639

>  <ref_mols>  (4289) 
A4706a,A0875a

>  <distance_score>  (4289) 
1.905599

>  <inspiration_score>  (4289) 
None

$$$$
UCZLIEWPUHGDKG-UHFFFAOYSA-N-P439-P87-P439-601505
     RDKit          3D

 27 30  0  0  0  0  0  0  0  0999 V2000
   12.2129   14.8817   22.1701 N   0  0  0  0  0  0  0  0  0  0  0  0
   11.3764   15.5663   21.1998 C   0  0  1  0  0  0  0  0  0  0  0  0
   11.1326   14.8397   19.8625 C   0  0  0  0  0  0  0  0  0  0  0  0
    9.7625   14.3321   19.9202 O   0  0  0  0  0  0  0  0  0  0  0  0
    9.3920   14.3646   21.2902 C   0  0  2  0  0  0  0  0  0  0  0  0
    7.9442   14.5232   21.7887 C   0  0  1  0  0  0  0  0  0  0  0  0
    7.4504   13.4312   22.6227 O   0  0  0  0  0  0  0  0  0  0  0  0
    6.2145   13.7134   23.1522 C   0  0  0  0  0  0  0  0  0  0  0  0
    5.4498   14.5399   22.6617 O   0  0  0  0  0  0  0  0  0  0  0  0
    5.8651   12.9712   24.4389 C   0  0  0  0  0  0  0  0  0  0  0  0
    6.8671   11.9150   24.9425 C   0  0  0  0  0  0  0  0  0  0  0  0
    7.6412   12.3829   26.1648 C   0  0  0  0  0  0  0  0  0  0  0  0
    7.9117   13.8062   25.9489 N   0  0  0  0  0  0  0  0  0  0  0  0
    9.2788   14.4623   26.6351 S   0  0  0  0  0  0  0  0  0  0  0  0
    9.5327   15.7254   26.0028 O   0  0  0  0  0  0  0  0  0  0  0  0
    9.1359   14.3665   28.0622 O   0  0  0  0  0  0  0  0  0  0  0  0
   10.4818   13.3914   26.1470 N   0  0  0  0  0  0  0  0  0  0  0  0
   10.7934   13.5961   24.7301 C   0  0  0  0  0  0  0  0  0  0  0  0
   11.5852   12.4225   24.2618 C   0  0  0  0  0  0  0  0  0  0  0  0
   12.4835   11.7510   25.2934 C   0  0  0  0  0  0  0  0  0  0  0  0
   12.8129   12.5993   26.4942 C   0  0  0  0  0  0  0  0  0  0  0  0
   11.7238   13.5820   26.9124 C   0  0  0  0  0  0  0  0  0  0  0  0
    6.7046   14.6384   26.1728 C   0  0  0  0  0  0  0  0  0  0  0  0
    5.4928   13.9701   25.5432 C   0  0  0  0  0  0  0  0  0  0  0  0
    8.1032   15.7232   22.7369 C   0  0  0  0  0  0  0  0  0  0  0  0
    9.5354   15.8706   22.9405 O   0  0  0  0  0  0  0  0  0  0  0  0
    9.9568   15.7086   21.6229 C   0  0  1  0  0  0  0  0  0  0  0  0
  2  1  1  1
  2  3  1  0
  3  4  1  0
  5  4  1  6
  5  6  1  0
  6  7  1  1
  7  8  1  0
  8  9  2  0
  8 10  1  0
 10 11  1  0
 11 12  1  0
 12 13  1  0
 13 14  1  0
 14 15  2  0
 14 16  2  0
 14 17  1  0
 17 18  1  0
 18 19  1  0
 19 20  1  0
 20 21  1  0
 21 22  1  0
 13 23  1  0
 23 24  1  0
  6 25  1  0
 25 26  1  0
 27 26  1  1
 27  2  1  0
 27  5  1  0
 24 10  1  0
 22 17  1  0
M  END
>  <energy_score>  (4290) 
-44.220144

>  <inchikey>  (4290) 
UCZLIEWPUHGDKG-UHFFFAOYSA-N

>  <smiles>  (4290) 
NC1COC2C(OC(=O)C3CCN(S(=O)(=O)N4CCCCC4)CC3)COC12

>  <ref_pdb>  (4290) 
A0875a

>  <alias>  (4290) 
UCZLIEWPUHGDKG-UHFFFAOYSA-N-P439-P87-P439-601505

>  <HIPPO Pose ID>  (4290) 
508211

>  <name>  (4290) 
UCZLIEWPUHGDKG-UHFFFAOYSA-N-P439-P87-P439-601505

>  <HIPPO Compound ID>  (4290) 
314641

>  <ref_mols>  (4290) 
A4706a,A0875a

>  <distance_score>  (4290) 
1.964027

>  <inspiration_score>  (4290) 
None

$$$$
ZJNUMTRBEOKOPJ-UHFFFAOYSA-N-P439-P87-P439-601505
     RDKit          3D

 27 30  0  0  0  0  0  0  0  0999 V2000
    6.9565   12.9890   22.2377 O   0  0  0  0  0  0  0  0  0  0  0  0
    7.4244   13.8203   23.0172 C   0  0  0  0  0  0  0  0  0  0  0  0
    8.4610   14.6475   22.6933 O   0  0  0  0  0  0  0  0  0  0  0  0
    9.1713   14.2373   21.4791 C   0  0  1  0  0  0  0  0  0  0  0  0
    8.5694   14.8062   20.2392 C   0  0  0  0  0  0  0  0  0  0  0  0
    9.9165   14.5588   19.4844 C   0  0  0  0  0  0  0  0  0  0  0  0
   10.5101   14.8082   20.8580 C   0  0  2  0  0  0  0  0  0  0  0  0
   11.7067   14.1595   21.4665 C   0  0  0  0  0  0  0  0  0  0  0  0
   12.1326   15.0112   22.6624 C   0  0  0  0  0  0  0  0  0  0  0  0
   11.0677   16.0203   23.0631 C   0  0  0  0  0  0  0  0  0  0  0  0
   10.6362   16.8683   21.8918 C   0  0  0  0  0  0  0  0  0  0  0  0
   10.8232   16.1754   20.7375 O   0  0  0  0  0  0  0  0  0  0  0  0
    6.8413   13.9288   24.4290 C   0  0  0  0  0  0  0  0  0  0  0  0
    6.7978   12.5343   25.1026 C   0  0  0  0  0  0  0  0  0  0  0  0
    8.0991   12.0918   25.7857 C   0  0  0  0  0  0  0  0  0  0  0  0
    8.8270   13.2289   26.4311 N   0  0  0  0  0  0  0  0  0  0  0  0
   10.2640   13.7069   25.6738 S   0  0  0  0  0  0  0  0  0  0  0  0
   10.0528   13.4447   24.2752 O   0  0  0  0  0  0  0  0  0  0  0  0
   10.5955   15.0219   26.1638 O   0  0  0  0  0  0  0  0  0  0  0  0
   11.4427   12.6071   26.2181 N   0  0  0  0  0  0  0  0  0  0  0  0
   11.8626   11.6567   25.1817 C   0  0  0  0  0  0  0  0  0  0  0  0
   13.2470   10.9991   25.3028 C   0  0  0  0  0  0  0  0  0  0  0  0
   14.2145   11.5040   26.3266 C   0  0  0  0  0  0  0  0  0  0  0  0
   13.9023   12.9477   26.5135 C   0  0  0  0  0  0  0  0  0  0  0  0
   12.5089   13.1207   27.0964 C   0  0  0  0  0  0  0  0  0  0  0  0
    7.9003   14.3717   26.7005 C   0  0  0  0  0  0  0  0  0  0  0  0
    7.4040   14.9811   25.3851 C   0  0  0  0  0  0  0  0  0  0  0  0
  1  2  2  0
  2  3  1  0
  4  3  1  1
  4  5  1  0
  5  6  1  0
  7  6  1  6
  7  8  1  0
  8  9  1  0
  9 10  1  0
 10 11  1  0
 11 12  1  0
  2 13  1  0
 13 14  1  0
 14 15  1  0
 15 16  1  0
 16 17  1  0
 17 18  2  0
 17 19  2  0
 17 20  1  0
 20 21  1  0
 21 22  1  0
 22 23  1  0
 23 24  1  0
 24 25  1  0
 16 26  1  0
 26 27  1  0
  7  4  1  0
 27 13  1  0
 12  7  1  0
 25 20  1  0
M  END
>  <energy_score>  (4291) 
-3.659604

>  <inchikey>  (4291) 
ZJNUMTRBEOKOPJ-UHFFFAOYSA-N

>  <smiles>  (4291) 
O=C(OC1CCC12CCCCO2)C1CCN(S(=O)(=O)N2CCCCC2)CC1

>  <ref_pdb>  (4291) 
A0875a

>  <alias>  (4291) 
ZJNUMTRBEOKOPJ-UHFFFAOYSA-N-P439-P87-P439-601505

>  <HIPPO Pose ID>  (4291) 
508215

>  <name>  (4291) 
ZJNUMTRBEOKOPJ-UHFFFAOYSA-N-P439-P87-P439-601505

>  <HIPPO Compound ID>  (4291) 
314643

>  <ref_mols>  (4291) 
A4706a,A0875a

>  <distance_score>  (4291) 
1.503587

>  <inspiration_score>  (4291) 
None

$$$$
BBQYRYHYAHHTFJ-UHFFFAOYSA-N-P439-P87-P439-601505
     RDKit          3D

 27 29  0  0  0  0  0  0  0  0999 V2000
   12.1351   15.1375   21.1732 C   0  0  0  0  0  0  0  0  0  0  0  0
   10.8203   14.8837   21.8711 C   0  0  0  0  0  0  0  0  0  0  0  0
   11.1081   14.1386   23.1358 C   0  0  0  0  0  0  0  0  0  0  0  0
   10.0513   16.1626   22.0971 C   0  0  0  0  0  0  0  0  0  0  0  0
    8.7115   15.9958   21.4058 C   0  0  2  0  0  0  0  0  0  0  0  0
    7.7565   15.6538   22.4510 O   0  0  0  0  0  0  0  0  0  0  0  0
    7.0636   14.4925   22.5885 C   0  0  0  0  0  0  0  0  0  0  0  0
    6.5978   13.7780   21.7177 O   0  0  0  0  0  0  0  0  0  0  0  0
    7.0550   14.1676   24.0590 C   0  0  0  0  0  0  0  0  0  0  0  0
    6.6908   12.7714   24.5263 C   0  0  0  0  0  0  0  0  0  0  0  0
    7.0298   12.5993   26.0135 C   0  0  0  0  0  0  0  0  0  0  0  0
    7.6029   13.8234   26.6335 N   0  0  0  0  0  0  0  0  0  0  0  0
    9.1967   14.3996   26.5923 S   0  0  0  0  0  0  0  0  0  0  0  0
    9.4339   15.1784   25.4000 O   0  0  0  0  0  0  0  0  0  0  0  0
    9.3959   15.0591   27.8591 O   0  0  0  0  0  0  0  0  0  0  0  0
   10.2944   13.1407   26.5509 N   0  0  0  0  0  0  0  0  0  0  0  0
   10.0345   12.0037   25.6926 C   0  0  0  0  0  0  0  0  0  0  0  0
   11.2130   11.3528   25.0491 C   0  0  0  0  0  0  0  0  0  0  0  0
   12.5930   11.6493   25.5829 C   0  0  0  0  0  0  0  0  0  0  0  0
   12.7637   13.0952   25.8655 C   0  0  0  0  0  0  0  0  0  0  0  0
   11.6882   13.6047   26.8036 C   0  0  0  0  0  0  0  0  0  0  0  0
    6.6130   14.9335   26.4543 C   0  0  0  0  0  0  0  0  0  0  0  0
    6.4208   15.2318   24.9588 C   0  0  0  0  0  0  0  0  0  0  0  0
    9.0604   14.9184   20.4090 C   0  0  1  0  0  0  0  0  0  0  0  0
    9.7384   15.4357   19.1117 C   0  0  0  0  0  0  0  0  0  0  0  0
   10.7716   14.5505   18.5720 N   0  0  0  0  0  0  0  0  0  0  0  0
    9.9610   14.0533   21.1058 O   0  0  0  0  0  0  0  0  0  0  0  0
  1  2  1  0
  2  3  1  0
  2  4  1  0
  4  5  1  0
  5  6  1  1
  6  7  1  0
  7  8  2  0
  7  9  1  0
  9 10  1  0
 10 11  1  0
 11 12  1  0
 12 13  1  0
 13 14  2  0
 13 15  2  0
 13 16  1  0
 16 17  1  0
 17 18  1  0
 18 19  1  0
 19 20  1  0
 20 21  1  0
 12 22  1  0
 22 23  1  0
  5 24  1  0
 24 25  1  6
 25 26  1  0
 24 27  1  0
 27  2  1  0
 23  9  1  0
 21 16  1  0
M  END
>  <energy_score>  (4292) 
-20.356485

>  <inchikey>  (4292) 
BBQYRYHYAHHTFJ-UHFFFAOYSA-N

>  <smiles>  (4292) 
CC1(C)CC(OC(=O)C2CCN(S(=O)(=O)N3CCCCC3)CC2)C(CN)O1

>  <ref_pdb>  (4292) 
A0875a

>  <alias>  (4292) 
BBQYRYHYAHHTFJ-UHFFFAOYSA-N-P439-P87-P439-601505

>  <HIPPO Pose ID>  (4292) 
508217

>  <name>  (4292) 
BBQYRYHYAHHTFJ-UHFFFAOYSA-N-P439-P87-P439-601505

>  <HIPPO Compound ID>  (4292) 
314644

>  <ref_mols>  (4292) 
A4706a,A0875a

>  <distance_score>  (4292) 
1.652002

>  <inspiration_score>  (4292) 
None

$$$$
NRTHQCSZRBDCRU-UHFFFAOYSA-N-P439-P87-P439-601505
     RDKit          3D

 28 30  0  0  0  0  0  0  0  0999 V2000
    4.7955   14.0642   23.3491 O   0  0  0  0  0  0  0  0  0  0  0  0
    5.9783   13.8012   23.4496 C   0  0  0  0  0  0  0  0  0  0  0  0
    6.8319   13.5796   22.3932 O   0  0  0  0  0  0  0  0  0  0  0  0
    7.4115   14.7553   21.7299 C   0  0  2  0  0  0  0  0  0  0  0  0
    8.9556   14.9195   21.8530 C   0  0  2  0  0  0  0  0  0  0  0  0
    9.6352   15.6347   20.6677 C   0  0  0  0  0  0  0  0  0  0  0  0
   11.0101   14.9997   20.5550 C   0  0  0  0  0  0  0  0  0  0  0  0
   11.0542   14.0779   21.7448 C   0  0  0  0  0  0  0  0  0  0  0  0
    9.6871   13.7009   21.9380 O   0  0  0  0  0  0  0  0  0  0  0  0
    6.8045   16.0907   22.1643 C   0  0  0  0  0  0  0  0  0  0  0  0
    5.4909   16.1679   21.8781 F   0  0  0  0  0  0  0  0  0  0  0  0
    7.4651   17.0908   21.5569 F   0  0  0  0  0  0  0  0  0  0  0  0
    6.9373   16.2619   23.5008 F   0  0  0  0  0  0  0  0  0  0  0  0
    6.7479   13.6414   24.7184 C   0  0  0  0  0  0  0  0  0  0  0  0
    6.8691   12.1832   25.1548 C   0  0  0  0  0  0  0  0  0  0  0  0
    7.7807   12.0505   26.3806 C   0  0  0  0  0  0  0  0  0  0  0  0
    8.6182   13.2918   26.5855 N   0  0  0  0  0  0  0  0  0  0  0  0
    9.8088   13.5068   25.3832 S   0  0  0  0  0  0  0  0  0  0  0  0
   10.0534   14.9116   25.1572 O   0  0  0  0  0  0  0  0  0  0  0  0
    9.4516   12.6145   24.3155 O   0  0  0  0  0  0  0  0  0  0  0  0
   11.2252   12.8327   25.9884 N   0  0  0  0  0  0  0  0  0  0  0  0
   11.8647   13.5695   27.0877 C   0  0  0  0  0  0  0  0  0  0  0  0
   13.1630   12.8593   27.5239 C   0  0  0  0  0  0  0  0  0  0  0  0
   14.0625   12.3292   26.4096 C   0  0  0  0  0  0  0  0  0  0  0  0
   13.2503   11.6841   25.3135 C   0  0  0  0  0  0  0  0  0  0  0  0
   12.1890   12.6614   24.8614 C   0  0  0  0  0  0  0  0  0  0  0  0
    7.7055   14.4748   26.8507 C   0  0  0  0  0  0  0  0  0  0  0  0
    6.4625   14.4996   25.9315 C   0  0  0  0  0  0  0  0  0  0  0  0
  1  2  2  0
  2  3  1  0
  4  3  1  1
  4  5  1  0
  5  6  1  6
  6  7  1  0
  7  8  1  0
  8  9  1  0
  4 10  1  0
 10 11  1  0
 10 12  1  0
 10 13  1  0
  2 14  1  0
 14 15  1  0
 15 16  1  0
 16 17  1  0
 17 18  1  0
 18 19  2  0
 18 20  2  0
 18 21  1  0
 21 22  1  0
 22 23  1  0
 23 24  1  0
 24 25  1  0
 25 26  1  0
 17 27  1  0
 27 28  1  0
  9  5  1  0
 28 14  1  0
 26 21  1  0
M  END
>  <energy_score>  (4293) 
-29.781645

>  <inchikey>  (4293) 
NRTHQCSZRBDCRU-UHFFFAOYSA-N

>  <smiles>  (4293) 
O=C(OC(C1CCCO1)C(F)(F)F)C1CCN(S(=O)(=O)N2CCCCC2)CC1

>  <ref_pdb>  (4293) 
A0875a

>  <alias>  (4293) 
NRTHQCSZRBDCRU-UHFFFAOYSA-N-P439-P87-P439-601505

>  <HIPPO Pose ID>  (4293) 
508223

>  <name>  (4293) 
NRTHQCSZRBDCRU-UHFFFAOYSA-N-P439-P87-P439-601505

>  <HIPPO Compound ID>  (4293) 
314647

>  <ref_mols>  (4293) 
A4706a,A0875a

>  <distance_score>  (4293) 
1.765585

>  <inspiration_score>  (4293) 
None

$$$$
ZUBXFQNOOBEQOG-UHFFFAOYSA-N-P439-P87-P439-601505
     RDKit          3D

 28 29  0  0  0  0  0  0  0  0999 V2000
   10.9914   14.6825   18.6148 C   0  0  0  0  0  0  0  0  0  0  0  0
    9.8894   15.2611   19.2869 O   0  0  0  0  0  0  0  0  0  0  0  0
    9.9460   15.1091   20.7032 C   0  0  0  0  0  0  0  0  0  0  0  0
   11.2327   15.5424   21.1219 O   0  0  0  0  0  0  0  0  0  0  0  0
   11.4211   15.4993   22.5029 C   0  0  0  0  0  0  0  0  0  0  0  0
    8.7541   15.9084   21.2635 C   0  0  1  0  0  0  0  0  0  0  0  0
    8.3019   15.5857   22.6214 O   0  0  0  0  0  0  0  0  0  0  0  0
    7.4612   14.5183   22.7055 C   0  0  0  0  0  0  0  0  0  0  0  0
    7.3216   13.6971   21.7964 O   0  0  0  0  0  0  0  0  0  0  0  0
    6.6502   14.3473   24.0061 C   0  0  0  0  0  0  0  0  0  0  0  0
    6.8391   12.8781   24.4654 C   0  0  0  0  0  0  0  0  0  0  0  0
    7.0258   12.6326   25.9470 C   0  0  0  0  0  0  0  0  0  0  0  0
    7.7915   13.7069   26.5752 N   0  0  0  0  0  0  0  0  0  0  0  0
    9.4111   14.0413   26.2643 S   0  0  0  0  0  0  0  0  0  0  0  0
    9.5320   14.6069   24.9460 O   0  0  0  0  0  0  0  0  0  0  0  0
    9.8642   14.8200   27.3907 O   0  0  0  0  0  0  0  0  0  0  0  0
   10.2876   12.5846   26.2944 N   0  0  0  0  0  0  0  0  0  0  0  0
   11.7741   12.8416   26.5072 C   0  0  0  0  0  0  0  0  0  0  0  0
   12.6326   12.3373   25.3510 C   0  0  0  0  0  0  0  0  0  0  0  0
   11.9446   12.7926   24.0842 C   0  0  0  0  0  0  0  0  0  0  0  0
   10.5569   12.1767   23.8885 C   0  0  0  0  0  0  0  0  0  0  0  0
   10.0561   11.6158   25.1923 C   0  0  0  0  0  0  0  0  0  0  0  0
    6.9455   14.9360   26.5304 C   0  0  0  0  0  0  0  0  0  0  0  0
    6.7947   15.4299   25.0895 C   0  0  0  0  0  0  0  0  0  0  0  0
    8.9835   17.3964   20.9875 C   0  0  0  0  0  0  0  0  0  0  0  0
    8.1646   18.1558   21.7290 F   0  0  0  0  0  0  0  0  0  0  0  0
   10.2383   17.8005   21.2316 F   0  0  0  0  0  0  0  0  0  0  0  0
    8.7503   17.7241   19.6990 F   0  0  0  0  0  0  0  0  0  0  0  0
  1  2  1  0
  2  3  1  0
  3  4  1  0
  4  5  1  0
  3  6  1  0
  6  7  1  1
  7  8  1  0
  8  9  2  0
  8 10  1  0
 10 11  1  0
 11 12  1  0
 12 13  1  0
 13 14  1  0
 14 15  2  0
 14 16  2  0
 14 17  1  0
 17 18  1  0
 18 19  1  0
 19 20  1  0
 20 21  1  0
 21 22  1  0
 13 23  1  0
 23 24  1  0
  6 25  1  0
 25 26  1  0
 25 27  1  0
 25 28  1  0
 24 10  1  0
 22 17  1  0
M  END
>  <energy_score>  (4294) 
-14.358053

>  <inchikey>  (4294) 
ZUBXFQNOOBEQOG-UHFFFAOYSA-N

>  <smiles>  (4294) 
COC(OC)C(OC(=O)C1CCN(S(=O)(=O)N2CCCCC2)CC1)C(F)(F)F

>  <ref_pdb>  (4294) 
A0875a

>  <alias>  (4294) 
ZUBXFQNOOBEQOG-UHFFFAOYSA-N-P439-P87-P439-601505

>  <HIPPO Pose ID>  (4294) 
508225

>  <name>  (4294) 
ZUBXFQNOOBEQOG-UHFFFAOYSA-N-P439-P87-P439-601505

>  <HIPPO Compound ID>  (4294) 
314648

>  <ref_mols>  (4294) 
A4706a,A0875a

>  <distance_score>  (4294) 
1.739281

>  <inspiration_score>  (4294) 
None

$$$$
FJEBPDQZWBCJLE-UHFFFAOYSA-N-P439-P87-P439-601505
     RDKit          3D

 28 31  0  0  0  0  0  0  0  0999 V2000
    6.5053   13.1321   22.0313 O   0  0  0  0  0  0  0  0  0  0  0  0
    6.7763   14.0519   22.7894 C   0  0  0  0  0  0  0  0  0  0  0  0
    7.1201   15.3078   22.4034 O   0  0  0  0  0  0  0  0  0  0  0  0
    8.3605   15.5424   21.6834 C   0  0  2  0  0  0  0  0  0  0  0  0
    8.5699   14.6830   20.4687 C   0  0  0  0  0  0  0  0  0  0  0  0
    9.7503   15.1695   19.6319 C   0  0  0  0  0  0  0  0  0  0  0  0
   10.7555   15.7259   20.4564 O   0  0  0  0  0  0  0  0  0  0  0  0
   10.8547   15.0906   21.7057 C   0  0  2  0  0  0  0  0  0  0  0  0
   12.0311   15.6385   22.4311 C   0  0  0  0  0  0  0  0  0  0  0  0
   12.2209   14.5820   23.4761 C   0  0  0  0  0  0  0  0  0  0  0  0
   11.9688   13.3370   22.8605 O   0  0  0  0  0  0  0  0  0  0  0  0
   11.2638   13.6275   21.6574 C   0  0  0  0  0  0  0  0  0  0  0  0
    9.5813   15.2854   22.5409 C   0  0  0  0  0  0  0  0  0  0  0  0
    6.8748   13.8996   24.2839 C   0  0  0  0  0  0  0  0  0  0  0  0
    6.4917   12.5573   24.9016 C   0  0  0  0  0  0  0  0  0  0  0  0
    7.0414   12.4493   26.3359 C   0  0  0  0  0  0  0  0  0  0  0  0
    7.5626   13.7470   26.8187 N   0  0  0  0  0  0  0  0  0  0  0  0
    9.1527   14.2985   26.7127 S   0  0  0  0  0  0  0  0  0  0  0  0
    9.4508   14.8714   27.9997 O   0  0  0  0  0  0  0  0  0  0  0  0
    9.3226   15.1291   25.5413 O   0  0  0  0  0  0  0  0  0  0  0  0
   10.1847   12.9596   26.5115 N   0  0  0  0  0  0  0  0  0  0  0  0
   10.0644   12.3216   25.1904 C   0  0  0  0  0  0  0  0  0  0  0  0
   10.9335   11.1102   25.1024 C   0  0  0  0  0  0  0  0  0  0  0  0
   12.4071   11.4700   25.3443 C   0  0  0  0  0  0  0  0  0  0  0  0
   12.6542   12.3425   26.5579 C   0  0  0  0  0  0  0  0  0  0  0  0
   11.5981   13.4106   26.7808 C   0  0  0  0  0  0  0  0  0  0  0  0
    6.5433   14.8170   26.6223 C   0  0  0  0  0  0  0  0  0  0  0  0
    6.3185   15.0518   25.1213 C   0  0  0  0  0  0  0  0  0  0  0  0
  1  2  2  0
  2  3  1  0
  4  3  1  1
  4  5  1  0
  5  6  1  0
  6  7  1  0
  7  8  1  0
  8  9  1  1
  9 10  1  0
 10 11  1  0
 11 12  1  0
  8 13  1  0
  2 14  1  0
 14 15  1  0
 15 16  1  0
 16 17  1  0
 17 18  1  0
 18 19  2  0
 18 20  2  0
 18 21  1  0
 21 22  1  0
 22 23  1  0
 23 24  1  0
 24 25  1  0
 25 26  1  0
 17 27  1  0
 27 28  1  0
 13  4  1  0
 28 14  1  0
 12  8  1  0
 26 21  1  0
M  END
>  <energy_score>  (4295) 
-24.651179

>  <inchikey>  (4295) 
FJEBPDQZWBCJLE-UHFFFAOYSA-N

>  <smiles>  (4295) 
O=C(OC1CCOC2(CCOC2)C1)C1CCN(S(=O)(=O)N2CCCCC2)CC1

>  <ref_pdb>  (4295) 
A0875a

>  <alias>  (4295) 
FJEBPDQZWBCJLE-UHFFFAOYSA-N-P439-P87-P439-601505

>  <HIPPO Pose ID>  (4295) 
508227

>  <name>  (4295) 
FJEBPDQZWBCJLE-UHFFFAOYSA-N-P439-P87-P439-601505

>  <HIPPO Compound ID>  (4295) 
314649

>  <ref_mols>  (4295) 
A4706a,A0875a

>  <distance_score>  (4295) 
1.63253

>  <inspiration_score>  (4295) 
None

$$$$
JAXBFXQIDQAUGA-UHFFFAOYSA-N-P439-P87-P439-601505
     RDKit          3D

 28 31  0  0  0  0  0  0  0  0999 V2000
    4.8818   15.1362   23.4916 O   0  0  0  0  0  0  0  0  0  0  0  0
    5.9028   14.9414   24.1361 C   0  0  0  0  0  0  0  0  0  0  0  0
    7.1597   15.2745   23.7389 O   0  0  0  0  0  0  0  0  0  0  0  0
    7.3110   15.5745   22.3524 C   0  0  2  0  0  0  0  0  0  0  0  0
    6.8629   14.4102   21.4837 C   0  0  0  0  0  0  0  0  0  0  0  0
    7.6675   14.3912   20.2901 O   0  0  0  0  0  0  0  0  0  0  0  0
    8.8180   15.0359   20.6156 C   0  0  0  0  0  0  0  0  0  0  0  0
    9.9744   14.9709   19.8586 C   0  0  0  0  0  0  0  0  0  0  0  0
   11.1491   15.1177   20.5479 C   0  0  0  0  0  0  0  0  0  0  0  0
   11.0475   15.3871   21.9040 C   0  0  0  0  0  0  0  0  0  0  0  0
   12.2606   14.6292   23.0435 Br  0  0  0  0  0  0  0  0  0  0  0  0
    9.8861   15.7736   22.5391 C   0  0  0  0  0  0  0  0  0  0  0  0
    8.7264   15.5618   21.8801 C   0  0  0  0  0  0  0  0  0  0  0  0
    5.9332   14.1860   25.4570 C   0  0  0  0  0  0  0  0  0  0  0  0
    6.3877   12.7310   25.1754 C   0  0  0  0  0  0  0  0  0  0  0  0
    7.4738   12.1421   26.0696 C   0  0  0  0  0  0  0  0  0  0  0  0
    8.3855   13.1847   26.5761 N   0  0  0  0  0  0  0  0  0  0  0  0
    9.5480   13.8052   25.5192 S   0  0  0  0  0  0  0  0  0  0  0  0
    9.0984   13.5201   24.1813 O   0  0  0  0  0  0  0  0  0  0  0  0
    9.8802   15.1324   25.9756 O   0  0  0  0  0  0  0  0  0  0  0  0
   10.8618   12.8163   25.8103 N   0  0  0  0  0  0  0  0  0  0  0  0
   11.0631   11.7168   24.8731 C   0  0  0  0  0  0  0  0  0  0  0  0
   12.2294   10.8880   25.3682 C   0  0  0  0  0  0  0  0  0  0  0  0
   13.5779   11.5234   25.4112 C   0  0  0  0  0  0  0  0  0  0  0  0
   13.4102   12.9369   25.9213 C   0  0  0  0  0  0  0  0  0  0  0  0
   12.0420   13.3187   26.5433 C   0  0  0  0  0  0  0  0  0  0  0  0
    7.6233   14.1707   27.3776 C   0  0  0  0  0  0  0  0  0  0  0  0
    6.7120   14.9975   26.4980 C   0  0  0  0  0  0  0  0  0  0  0  0
  1  2  2  0
  2  3  1  0
  4  3  1  1
  4  5  1  0
  5  6  1  0
  6  7  1  0
  7  8  2  0
  8  9  1  0
  9 10  2  0
 10 11  1  0
 10 12  1  0
 12 13  2  0
  2 14  1  0
 14 15  1  0
 15 16  1  0
 16 17  1  0
 17 18  1  0
 18 19  2  0
 18 20  2  0
 18 21  1  0
 21 22  1  0
 22 23  1  0
 23 24  1  0
 24 25  1  0
 25 26  1  0
 17 27  1  0
 27 28  1  0
 13  4  1  0
 28 14  1  0
 13  7  1  0
 26 21  1  0
M  END
>  <energy_score>  (4296) 
-4.721712

>  <inchikey>  (4296) 
JAXBFXQIDQAUGA-UHFFFAOYSA-N

>  <smiles>  (4296) 
O=C(OC1COc2ccc(Br)cc21)C1CCN(S(=O)(=O)N2CCCCC2)CC1

>  <ref_pdb>  (4296) 
A0875a

>  <alias>  (4296) 
JAXBFXQIDQAUGA-UHFFFAOYSA-N-P439-P87-P439-601505

>  <HIPPO Pose ID>  (4296) 
508235

>  <name>  (4296) 
JAXBFXQIDQAUGA-UHFFFAOYSA-N-P439-P87-P439-601505

>  <HIPPO Compound ID>  (4296) 
314653

>  <ref_mols>  (4296) 
A4706a,A0875a

>  <distance_score>  (4296) 
1.797548

>  <inspiration_score>  (4296) 
None

$$$$
YCYCSHAWMLXAGP-UHFFFAOYSA-N-P439-P87-P439-601505
     RDKit          3D

 28 30  0  0  0  0  0  0  0  0999 V2000
   10.8897   14.8580   18.6426 C   0  0  0  0  0  0  0  0  0  0  0  0
   10.2338   15.8803   19.3658 O   0  0  0  0  0  0  0  0  0  0  0  0
   10.1950   15.7875   20.7934 C   0  0  0  0  0  0  0  0  0  0  0  0
    9.8228   17.0570   21.3242 O   0  0  0  0  0  0  0  0  0  0  0  0
    8.6860   17.7041   20.8017 C   0  0  0  0  0  0  0  0  0  0  0  0
   11.6245   15.6325   21.3653 C   0  0  0  0  0  0  0  0  0  0  0  0
   11.5511   15.2147   22.8062 C   0  0  0  0  0  0  0  0  0  0  0  0
   10.8078   14.0339   23.0230 O   0  0  0  0  0  0  0  0  0  0  0  0
   10.1501   13.5600   21.8728 C   0  0  0  0  0  0  0  0  0  0  0  0
    9.2497   14.6330   21.2601 C   0  0  1  0  0  0  0  0  0  0  0  0
    8.2434   15.0252   22.2296 O   0  0  0  0  0  0  0  0  0  0  0  0
    7.4548   13.9947   22.6475 C   0  0  0  0  0  0  0  0  0  0  0  0
    6.7136   13.3309   21.9372 O   0  0  0  0  0  0  0  0  0  0  0  0
    7.7035   13.7145   24.0976 C   0  0  0  0  0  0  0  0  0  0  0  0
    7.5647   12.2511   24.5076 C   0  0  0  0  0  0  0  0  0  0  0  0
    8.1932   12.0201   25.8800 C   0  0  0  0  0  0  0  0  0  0  0  0
    8.5535   13.2906   26.5243 N   0  0  0  0  0  0  0  0  0  0  0  0
   10.0652   14.0334   26.5004 S   0  0  0  0  0  0  0  0  0  0  0  0
   10.2082   14.5156   27.8538 O   0  0  0  0  0  0  0  0  0  0  0  0
   10.1446   14.9962   25.4336 O   0  0  0  0  0  0  0  0  0  0  0  0
   11.2538   12.8637   26.2850 N   0  0  0  0  0  0  0  0  0  0  0  0
   11.4710   12.1555   25.0001 C   0  0  0  0  0  0  0  0  0  0  0  0
   12.4283   11.0206   25.3610 C   0  0  0  0  0  0  0  0  0  0  0  0
   13.8536   11.4622   25.5621 C   0  0  0  0  0  0  0  0  0  0  0  0
   13.8051   12.8737   26.1074 C   0  0  0  0  0  0  0  0  0  0  0  0
   12.5601   13.1450   26.9877 C   0  0  0  0  0  0  0  0  0  0  0  0
    7.3977   14.2435   26.5311 C   0  0  0  0  0  0  0  0  0  0  0  0
    7.0259   14.6396   25.0949 C   0  0  0  0  0  0  0  0  0  0  0  0
  1  2  1  0
  2  3  1  0
  3  4  1  0
  4  5  1  0
  3  6  1  0
  6  7  1  0
  7  8  1  0
  8  9  1  0
  9 10  1  0
 10 11  1  1
 11 12  1  0
 12 13  2  0
 12 14  1  0
 14 15  1  0
 15 16  1  0
 16 17  1  0
 17 18  1  0
 18 19  2  0
 18 20  2  0
 18 21  1  0
 21 22  1  0
 22 23  1  0
 23 24  1  0
 24 25  1  0
 25 26  1  0
 17 27  1  0
 27 28  1  0
 10  3  1  0
 28 14  1  0
 26 21  1  0
M  END
>  <energy_score>  (4297) 
-9.050266

>  <inchikey>  (4297) 
YCYCSHAWMLXAGP-UHFFFAOYSA-N

>  <smiles>  (4297) 
COC1(OC)CCOCC1OC(=O)C1CCN(S(=O)(=O)N2CCCCC2)CC1

>  <ref_pdb>  (4297) 
A0875a

>  <alias>  (4297) 
YCYCSHAWMLXAGP-UHFFFAOYSA-N-P439-P87-P439-601505

>  <HIPPO Pose ID>  (4297) 
508239

>  <name>  (4297) 
YCYCSHAWMLXAGP-UHFFFAOYSA-N-P439-P87-P439-601505

>  <HIPPO Compound ID>  (4297) 
314655

>  <ref_mols>  (4297) 
A4706a,A0875a

>  <distance_score>  (4297) 
1.267055

>  <inspiration_score>  (4297) 
None

$$$$
ZESWLTWNCDXEBE-UHFFFAOYSA-N-P87-P87-P439-601505
     RDKit          3D

 28 30  0  0  0  0  0  0  0  0999 V2000
   14.6507   11.1006   30.7537 C   0  0  0  0  0  0  0  0  0  0  0  0
   15.2119   11.9392   29.6065 C   0  0  0  0  0  0  0  0  0  0  0  0
   16.1430   13.0009   30.1777 C   0  0  0  0  0  0  0  0  0  0  0  0
   15.8327   11.0158   28.7076 O   0  0  0  0  0  0  0  0  0  0  0  0
   16.3759   11.4626   27.4549 C   0  0  2  0  0  0  0  0  0  0  0  0
   15.5116   12.4876   26.7017 C   0  0  0  0  0  0  0  0  0  0  0  0
   14.0752   12.2860   26.6777 O   0  0  0  0  0  0  0  0  0  0  0  0
   13.5441   11.4776   25.7321 C   0  0  0  0  0  0  0  0  0  0  0  0
   14.0536   10.4441   25.3212 O   0  0  0  0  0  0  0  0  0  0  0  0
   12.2506   12.0422   25.1721 C   0  0  0  0  0  0  0  0  0  0  0  0
   12.7348   12.7894   23.9540 C   0  0  0  0  0  0  0  0  0  0  0  0
   11.6965   13.1534   22.9423 C   0  0  0  0  0  0  0  0  0  0  0  0
   10.3948   12.6604   23.3811 N   0  0  0  0  0  0  0  0  0  0  0  0
    9.3743   13.7312   24.1232 S   0  0  0  0  0  0  0  0  0  0  0  0
   10.2254   14.7967   24.5651 O   0  0  0  0  0  0  0  0  0  0  0  0
    8.5447   13.0286   25.0754 O   0  0  0  0  0  0  0  0  0  0  0  0
    8.4675   14.1692   22.7836 N   0  0  0  0  0  0  0  0  0  0  0  0
    9.0849   14.1205   21.4510 C   0  0  0  0  0  0  0  0  0  0  0  0
    9.8596   15.3361   21.0466 C   0  0  0  0  0  0  0  0  0  0  0  0
    9.9128   16.4262   22.0593 C   0  0  0  0  0  0  0  0  0  0  0  0
    8.5812   16.6466   22.7595 C   0  0  0  0  0  0  0  0  0  0  0  0
    7.6816   15.4173   22.8360 C   0  0  0  0  0  0  0  0  0  0  0  0
   10.3241   11.2452   23.6056 C   0  0  0  0  0  0  0  0  0  0  0  0
   11.1749   10.9666   24.8214 C   0  0  0  0  0  0  0  0  0  0  0  0
   16.6401   10.2174   26.6189 C   0  0  0  0  0  0  0  0  0  0  0  0
   17.9174    9.6731   27.2124 C   0  0  0  0  0  0  0  0  0  0  0  0
   18.7121   10.8163   27.5316 O   0  0  0  0  0  0  0  0  0  0  0  0
   17.8331   11.9576   27.6020 C   0  0  0  0  0  0  0  0  0  0  0  0
  1  2  1  0
  2  3  1  0
  2  4  1  0
  4  5  1  0
  5  6  1  6
  6  7  1  0
  7  8  1  0
  8  9  2  0
  8 10  1  0
 10 11  1  0
 11 12  1  0
 12 13  1  0
 13 14  1  0
 14 15  2  0
 14 16  2  0
 14 17  1  0
 17 18  1  0
 18 19  1  0
 19 20  1  0
 20 21  1  0
 21 22  1  0
 13 23  1  0
 23 24  1  0
  5 25  1  0
 25 26  1  0
 26 27  1  0
 27 28  1  0
 28  5  1  0
 24 10  1  0
 22 17  1  0
M  END
>  <energy_score>  (4298) 
-19.963651

>  <inchikey>  (4298) 
ZESWLTWNCDXEBE-UHFFFAOYSA-N

>  <smiles>  (4298) 
CC(C)OC1(COC(=O)C2CCN(S(=O)(=O)N3CCCCC3)CC2)CCOC1

>  <ref_pdb>  (4298) 
A0875a

>  <alias>  (4298) 
ZESWLTWNCDXEBE-UHFFFAOYSA-N-P87-P87-P439-601505

>  <HIPPO Pose ID>  (4298) 
508240

>  <name>  (4298) 
ZESWLTWNCDXEBE-UHFFFAOYSA-N-P87-P87-P439-601505

>  <HIPPO Compound ID>  (4298) 
314656

>  <ref_mols>  (4298) 
A4706a,A0875a

>  <distance_score>  (4298) 
1.750225

>  <inspiration_score>  (4298) 
None

$$$$
NEWTVCAFUNWVCQ-UHFFFAOYSA-N-P439-P87-P439-601505
     RDKit          3D

 28 30  0  0  0  0  0  0  0  0999 V2000
   18.2521   10.9474   30.3699 C   0  0  0  0  0  0  0  0  0  0  0  0
   17.1579   10.3629   29.4272 C   0  0  0  0  0  0  0  0  0  0  0  0
   16.9251    8.9344   29.9903 C   0  0  0  0  0  0  0  0  0  0  0  0
   17.8551   10.2275   28.0422 C   0  0  0  0  0  0  0  0  0  0  0  0
   17.1377    9.4240   27.0561 N   0  0  0  0  0  0  0  0  0  0  0  0
   15.8067   11.2651   29.4014 C   0  0  2  0  0  0  0  0  0  0  0  0
   14.9635   11.1607   28.1866 O   0  0  0  0  0  0  0  0  0  0  0  0
   15.1664   12.0459   27.1745 C   0  0  0  0  0  0  0  0  0  0  0  0
   16.2504   12.5490   26.9216 O   0  0  0  0  0  0  0  0  0  0  0  0
   13.9055   12.4749   26.4170 C   0  0  0  0  0  0  0  0  0  0  0  0
   12.9516   13.0397   27.4524 C   0  0  0  0  0  0  0  0  0  0  0  0
   11.6996   13.7086   26.9089 C   0  0  0  0  0  0  0  0  0  0  0  0
   11.4884   13.3805   25.4885 N   0  0  0  0  0  0  0  0  0  0  0  0
   10.0226   14.0276   24.9252 S   0  0  0  0  0  0  0  0  0  0  0  0
   10.0773   15.4412   25.1719 O   0  0  0  0  0  0  0  0  0  0  0  0
    8.9594   13.2208   25.4727 O   0  0  0  0  0  0  0  0  0  0  0  0
   10.1103   13.8012   23.2590 N   0  0  0  0  0  0  0  0  0  0  0  0
   11.3986   14.1796   22.6057 C   0  0  0  0  0  0  0  0  0  0  0  0
   11.3672   15.5763   22.0339 C   0  0  0  0  0  0  0  0  0  0  0  0
   10.2973   15.7206   20.9645 C   0  0  0  0  0  0  0  0  0  0  0  0
    9.2065   14.6719   21.1025 C   0  0  0  0  0  0  0  0  0  0  0  0
    8.9074   14.3507   22.5541 C   0  0  0  0  0  0  0  0  0  0  0  0
   11.6875   11.9619   25.2084 C   0  0  0  0  0  0  0  0  0  0  0  0
   13.1683   11.5641   25.4367 C   0  0  0  0  0  0  0  0  0  0  0  0
   16.0246   12.7476   29.7862 C   0  0  0  0  0  0  0  0  0  0  0  0
   15.9139   12.8124   31.2993 C   0  0  0  0  0  0  0  0  0  0  0  0
   15.3038   11.5926   31.7262 O   0  0  0  0  0  0  0  0  0  0  0  0
   14.8368   10.9186   30.5565 C   0  0  0  0  0  0  0  0  0  0  0  0
  1  2  1  0
  2  3  1  0
  2  4  1  0
  4  5  1  0
  2  6  1  0
  6  7  1  6
  7  8  1  0
  8  9  2  0
  8 10  1  0
 10 11  1  0
 11 12  1  0
 12 13  1  0
 13 14  1  0
 14 15  2  0
 14 16  2  0
 14 17  1  0
 17 18  1  0
 18 19  1  0
 19 20  1  0
 20 21  1  0
 21 22  1  0
 13 23  1  0
 23 24  1  0
  6 25  1  0
 25 26  1  0
 26 27  1  0
 27 28  1  0
 28  6  1  0
 24 10  1  0
 22 17  1  0
M  END
>  <energy_score>  (4299) 
-72.790997

>  <inchikey>  (4299) 
NEWTVCAFUNWVCQ-UHFFFAOYSA-N

>  <smiles>  (4299) 
CC(C)(CN)C1(OC(=O)C2CCN(S(=O)(=O)N3CCCCC3)CC2)CCOC1

>  <ref_pdb>  (4299) 
A0875a

>  <alias>  (4299) 
NEWTVCAFUNWVCQ-UHFFFAOYSA-N-P439-P87-P439-601505

>  <HIPPO Pose ID>  (4299) 
508243

>  <name>  (4299) 
NEWTVCAFUNWVCQ-UHFFFAOYSA-N-P439-P87-P439-601505

>  <HIPPO Compound ID>  (4299) 
314657

>  <ref_mols>  (4299) 
A4706a,A0875a

>  <distance_score>  (4299) 
1.971309

>  <inspiration_score>  (4299) 
None

$$$$
BCAXBXDIAXBSNW-UHFFFAOYSA-N-P439-P87-P439-601505
     RDKit          3D

 28 31  0  0  0  0  0  0  0  0999 V2000
    5.3302   16.2509   22.0298 O   0  0  0  0  0  0  0  0  0  0  0  0
    6.2141   15.8522   22.7805 C   0  0  0  0  0  0  0  0  0  0  0  0
    7.5449   16.0638   22.6324 O   0  0  0  0  0  0  0  0  0  0  0  0
    8.0509   17.0099   21.6429 C   0  0  0  0  0  0  0  0  0  0  0  0
    9.5202   16.8035   21.1907 C   0  0  2  0  0  0  0  0  0  0  0  0
    9.7696   16.2646   19.7712 C   0  0  0  0  0  0  0  0  0  0  0  0
   10.8581   15.2447   19.9397 C   0  0  0  0  0  0  0  0  0  0  0  0
   10.4370   14.7484   21.2928 C   0  0  2  0  0  0  0  0  0  0  0  0
   11.3946   13.8226   21.9364 C   0  0  0  0  0  0  0  0  0  0  0  0
   10.4827   12.7829   22.5310 C   0  0  0  0  0  0  0  0  0  0  0  0
    9.1283   13.1539   22.3850 O   0  0  0  0  0  0  0  0  0  0  0  0
    9.1443   13.9714   21.2383 C   0  0  0  0  0  0  0  0  0  0  0  0
   10.2523   15.9271   22.0563 O   0  0  0  0  0  0  0  0  0  0  0  0
    5.8478   14.9549   23.9635 C   0  0  0  0  0  0  0  0  0  0  0  0
    6.2728   13.5055   23.7170 C   0  0  0  0  0  0  0  0  0  0  0  0
    7.1673   12.8008   24.7233 C   0  0  0  0  0  0  0  0  0  0  0  0
    7.6041   13.6157   25.8595 N   0  0  0  0  0  0  0  0  0  0  0  0
    9.0870   14.4043   25.8273 S   0  0  0  0  0  0  0  0  0  0  0  0
    9.1322   15.3228   24.7288 O   0  0  0  0  0  0  0  0  0  0  0  0
    9.3244   14.8539   27.1796 O   0  0  0  0  0  0  0  0  0  0  0  0
   10.2551   13.2673   25.5175 N   0  0  0  0  0  0  0  0  0  0  0  0
   10.0570   11.9348   26.0284 C   0  0  0  0  0  0  0  0  0  0  0  0
   11.0641   10.9983   25.3672 C   0  0  0  0  0  0  0  0  0  0  0  0
   12.5029   11.4782   25.6141 C   0  0  0  0  0  0  0  0  0  0  0  0
   12.6952   12.9141   25.2063 C   0  0  0  0  0  0  0  0  0  0  0  0
   11.6162   13.8050   25.8012 C   0  0  0  0  0  0  0  0  0  0  0  0
    6.4997   14.4711   26.3583 C   0  0  0  0  0  0  0  0  0  0  0  0
    6.1679   15.5445   25.3329 C   0  0  0  0  0  0  0  0  0  0  0  0
  1  2  2  0
  2  3  1  0
  3  4  1  0
  5  4  1  1
  5  6  1  0
  6  7  1  0
  8  7  1  6
  8  9  1  0
  9 10  1  0
 10 11  1  0
 11 12  1  0
  8 13  1  0
  2 14  1  0
 14 15  1  0
 15 16  1  0
 16 17  1  0
 17 18  1  0
 18 19  2  0
 18 20  2  0
 18 21  1  0
 21 22  1  0
 22 23  1  0
 23 24  1  0
 24 25  1  0
 25 26  1  0
 17 27  1  0
 27 28  1  0
 13  5  1  0
 28 14  1  0
 12  8  1  0
 26 21  1  0
M  END
>  <energy_score>  (4300) 
-37.949543

>  <inchikey>  (4300) 
BCAXBXDIAXBSNW-UHFFFAOYSA-N

>  <smiles>  (4300) 
O=C(OCC1CCC2(CCOC2)O1)C1CCN(S(=O)(=O)N2CCCCC2)CC1

>  <ref_pdb>  (4300) 
A0875a

>  <alias>  (4300) 
BCAXBXDIAXBSNW-UHFFFAOYSA-N-P439-P87-P439-601505

>  <HIPPO Pose ID>  (4300) 
508249

>  <name>  (4300) 
BCAXBXDIAXBSNW-UHFFFAOYSA-N-P439-P87-P439-601505

>  <HIPPO Compound ID>  (4300) 
314660

>  <ref_mols>  (4300) 
A4706a,A0875a

>  <distance_score>  (4300) 
1.969857

>  <inspiration_score>  (4300) 
None

$$$$
RONPSQXNQWPDJX-UHFFFAOYSA-N-P439-P87-P439-601505
     RDKit          3D

 28 30  0  0  0  0  0  0  0  0999 V2000
    4.4596   13.6961   20.8050 C   0  0  0  0  0  0  0  0  0  0  0  0
    5.8109   14.1127   21.0647 O   0  0  0  0  0  0  0  0  0  0  0  0
    5.8842   15.2593   21.7864 C   0  0  0  0  0  0  0  0  0  0  0  0
    4.8940   15.9513   22.0241 O   0  0  0  0  0  0  0  0  0  0  0  0
    7.2746   15.5650   22.3756 C   0  0  1  0  0  0  0  0  0  0  0  0
    6.9934   15.2531   23.7810 O   0  0  0  0  0  0  0  0  0  0  0  0
    6.4748   14.0148   24.0449 C   0  0  0  0  0  0  0  0  0  0  0  0
    6.5070   13.0524   23.2794 O   0  0  0  0  0  0  0  0  0  0  0  0
    5.7630   13.9464   25.3866 C   0  0  0  0  0  0  0  0  0  0  0  0
    5.7614   12.4797   25.8450 C   0  0  0  0  0  0  0  0  0  0  0  0
    7.1817   11.9671   26.0825 C   0  0  0  0  0  0  0  0  0  0  0  0
    8.0241   13.0123   26.7137 N   0  0  0  0  0  0  0  0  0  0  0  0
    9.3109   13.6639   25.8517 S   0  0  0  0  0  0  0  0  0  0  0  0
    9.0053   13.6612   24.4526 O   0  0  0  0  0  0  0  0  0  0  0  0
    9.7245   14.8650   26.5373 O   0  0  0  0  0  0  0  0  0  0  0  0
   10.5504   12.5323   26.0162 N   0  0  0  0  0  0  0  0  0  0  0  0
   11.8618   13.2408   25.9426 C   0  0  0  0  0  0  0  0  0  0  0  0
   12.8546   12.5430   25.0531 C   0  0  0  0  0  0  0  0  0  0  0  0
   12.9222   11.0897   25.4434 C   0  0  0  0  0  0  0  0  0  0  0  0
   11.5550   10.3819   25.2765 C   0  0  0  0  0  0  0  0  0  0  0  0
   10.4102   11.3623   25.0946 C   0  0  0  0  0  0  0  0  0  0  0  0
    7.2187   14.0223   27.4546 C   0  0  0  0  0  0  0  0  0  0  0  0
    6.3670   14.8313   26.4824 C   0  0  0  0  0  0  0  0  0  0  0  0
    8.6205   14.9647   21.8521 C   0  0  0  0  0  0  0  0  0  0  0  0
    9.0160   15.3412   20.4252 C   0  0  0  0  0  0  0  0  0  0  0  0
   10.4910   14.9773   20.2552 C   0  0  0  0  0  0  0  0  0  0  0  0
   11.0311   14.8961   21.6805 C   0  0  0  0  0  0  0  0  0  0  0  0
    9.9097   15.5117   22.5042 C   0  0  0  0  0  0  0  0  0  0  0  0
  1  2  1  0
  2  3  1  0
  3  4  2  0
  3  5  1  0
  5  6  1  1
  6  7  1  0
  7  8  2  0
  7  9  1  0
  9 10  1  0
 10 11  1  0
 11 12  1  0
 12 13  1  0
 13 14  2  0
 13 15  2  0
 13 16  1  0
 16 17  1  0
 17 18  1  0
 18 19  1  0
 19 20  1  0
 20 21  1  0
 12 22  1  0
 22 23  1  0
  5 24  1  0
 24 25  1  0
 25 26  1  0
 26 27  1  0
 27 28  1  0
 23  9  1  0
 28 24  1  0
 21 16  1  0
M  END
>  <energy_score>  (4301) 
-44.657083

>  <inchikey>  (4301) 
RONPSQXNQWPDJX-UHFFFAOYSA-N

>  <smiles>  (4301) 
COC(=O)C(OC(=O)C1CCN(S(=O)(=O)N2CCCCC2)CC1)C1CCCC1

>  <ref_pdb>  (4301) 
A0875a

>  <alias>  (4301) 
RONPSQXNQWPDJX-UHFFFAOYSA-N-P439-P87-P439-601505

>  <HIPPO Pose ID>  (4301) 
508251

>  <name>  (4301) 
RONPSQXNQWPDJX-UHFFFAOYSA-N-P439-P87-P439-601505

>  <HIPPO Compound ID>  (4301) 
314661

>  <ref_mols>  (4301) 
A4706a,A0875a

>  <distance_score>  (4301) 
1.639039

>  <inspiration_score>  (4301) 
None

$$$$
FQFBODVVRJFPCE-UHFFFAOYSA-N-P439-P87-P439-601505
     RDKit          3D

 28 31  0  0  0  0  0  0  0  0999 V2000
    5.3617   15.3321   22.9137 O   0  0  0  0  0  0  0  0  0  0  0  0
    6.2367   15.1973   23.7633 C   0  0  0  0  0  0  0  0  0  0  0  0
    7.5712   15.3860   23.5256 O   0  0  0  0  0  0  0  0  0  0  0  0
    7.9217   15.6425   22.1589 C   0  0  2  0  0  0  0  0  0  0  0  0
    7.6020   14.4826   21.2652 C   0  0  0  0  0  0  0  0  0  0  0  0
    8.4381   14.6249   20.1176 O   0  0  0  0  0  0  0  0  0  0  0  0
    9.4292   15.6249   20.3105 C   0  0  0  0  0  0  0  0  0  0  0  0
    9.4007   15.8577   21.7933 C   0  0  2  0  0  0  0  0  0  0  0  0
   10.4162   15.0169   22.3642 N   0  0  0  0  0  0  0  0  0  0  0  0
   10.6203   13.6825   22.2778 C   0  0  0  0  0  0  0  0  0  0  0  0
   11.7568   13.3637   22.8491 N   0  0  0  0  0  0  0  0  0  0  0  0
   12.3678   14.5297   23.1982 N   0  0  0  0  0  0  0  0  0  0  0  0
   11.5858   15.5043   22.8219 C   0  0  0  0  0  0  0  0  0  0  0  0
    5.9149   14.6904   25.1734 C   0  0  0  0  0  0  0  0  0  0  0  0
    5.8675   13.1407   25.1871 C   0  0  0  0  0  0  0  0  0  0  0  0
    6.8084   12.4217   26.1561 C   0  0  0  0  0  0  0  0  0  0  0  0
    7.9744   13.2651   26.4783 N   0  0  0  0  0  0  0  0  0  0  0  0
    9.1242   13.4466   25.2606 S   0  0  0  0  0  0  0  0  0  0  0  0
    8.5260   12.8707   24.0771 O   0  0  0  0  0  0  0  0  0  0  0  0
    9.6202   14.8019   25.3000 O   0  0  0  0  0  0  0  0  0  0  0  0
   10.3329   12.3821   25.8263 N   0  0  0  0  0  0  0  0  0  0  0  0
   11.5952   13.1081   26.1520 C   0  0  0  0  0  0  0  0  0  0  0  0
   12.7881   12.2152   26.4364 C   0  0  0  0  0  0  0  0  0  0  0  0
   12.9167   11.1161   25.4053 C   0  0  0  0  0  0  0  0  0  0  0  0
   11.6117   10.3048   25.2519 C   0  0  0  0  0  0  0  0  0  0  0  0
   10.4287   11.1906   24.9412 C   0  0  0  0  0  0  0  0  0  0  0  0
    7.5458   14.4868   27.1762 C   0  0  0  0  0  0  0  0  0  0  0  0
    6.7401   15.3934   26.2594 C   0  0  0  0  0  0  0  0  0  0  0  0
  1  2  2  0
  2  3  1  0
  4  3  1  1
  4  5  1  0
  5  6  1  0
  6  7  1  0
  7  8  1  0
  8  9  1  1
  9 10  1  0
 10 11  2  0
 11 12  1  0
 12 13  2  0
  2 14  1  0
 14 15  1  0
 15 16  1  0
 16 17  1  0
 17 18  1  0
 18 19  2  0
 18 20  2  0
 18 21  1  0
 21 22  1  0
 22 23  1  0
 23 24  1  0
 24 25  1  0
 25 26  1  0
 17 27  1  0
 27 28  1  0
  8  4  1  0
 13  9  1  0
 28 14  1  0
 26 21  1  0
M  END
>  <energy_score>  (4302) 
-54.596447

>  <inchikey>  (4302) 
FQFBODVVRJFPCE-UHFFFAOYSA-N

>  <smiles>  (4302) 
O=C(OC1COCC1n1cnnc1)C1CCN(S(=O)(=O)N2CCCCC2)CC1

>  <ref_pdb>  (4302) 
A0875a

>  <alias>  (4302) 
FQFBODVVRJFPCE-UHFFFAOYSA-N-P439-P87-P439-601505

>  <HIPPO Pose ID>  (4302) 
508259

>  <name>  (4302) 
FQFBODVVRJFPCE-UHFFFAOYSA-N-P439-P87-P439-601505

>  <HIPPO Compound ID>  (4302) 
314665

>  <ref_mols>  (4302) 
A4706a,A0875a

>  <distance_score>  (4302) 
1.734414

>  <inspiration_score>  (4302) 
None

$$$$
RUCRUNKYTYXDFX-UHFFFAOYSA-N-P439-P87-P439-601505
     RDKit          3D

 28 30  0  0  0  0  0  0  0  0999 V2000
    4.9203   14.3369   21.5595 C   0  0  0  0  0  0  0  0  0  0  0  0
    6.3528   14.3573   21.5127 O   0  0  0  0  0  0  0  0  0  0  0  0
    6.9225   15.3850   22.2164 C   0  0  0  0  0  0  0  0  0  0  0  0
    6.2785   16.2853   22.7332 O   0  0  0  0  0  0  0  0  0  0  0  0
    8.4299   15.1984   22.3589 C   0  0  1  0  0  0  0  0  0  0  0  0
    8.7784   13.8128   22.2550 O   0  0  0  0  0  0  0  0  0  0  0  0
    8.5577   12.8786   23.1906 C   0  0  0  0  0  0  0  0  0  0  0  0
    9.2473   11.8562   23.1350 O   0  0  0  0  0  0  0  0  0  0  0  0
    7.4216   12.9845   24.2323 C   0  0  0  0  0  0  0  0  0  0  0  0
    7.4984   11.7006   25.0768 C   0  0  0  0  0  0  0  0  0  0  0  0
    8.7674   11.7054   25.9271 C   0  0  0  0  0  0  0  0  0  0  0  0
    9.0563   13.0319   26.5092 N   0  0  0  0  0  0  0  0  0  0  0  0
   10.4342   13.9196   26.0930 S   0  0  0  0  0  0  0  0  0  0  0  0
   10.3045   14.3079   24.7126 O   0  0  0  0  0  0  0  0  0  0  0  0
   10.5597   14.9198   27.1200 O   0  0  0  0  0  0  0  0  0  0  0  0
   11.7094   12.7970   26.2389 N   0  0  0  0  0  0  0  0  0  0  0  0
   12.2864   12.4015   24.9520 C   0  0  0  0  0  0  0  0  0  0  0  0
   13.2905   11.2620   25.1582 C   0  0  0  0  0  0  0  0  0  0  0  0
   14.3770   11.4787   26.1788 C   0  0  0  0  0  0  0  0  0  0  0  0
   14.1882   12.8110   26.8239 C   0  0  0  0  0  0  0  0  0  0  0  0
   12.7454   13.0464   27.2806 C   0  0  0  0  0  0  0  0  0  0  0  0
    7.8294   13.8633   26.6199 C   0  0  0  0  0  0  0  0  0  0  0  0
    7.2799   14.1590   25.2235 C   0  0  0  0  0  0  0  0  0  0  0  0
    9.3401   16.0713   21.4720 C   0  0  2  0  0  0  0  0  0  0  0  0
    9.6933   15.5788   20.0859 C   0  0  0  0  0  0  0  0  0  0  0  0
   10.9220   14.7425   20.2941 C   0  0  0  0  0  0  0  0  0  0  0  0
   11.5887   15.3361   21.5068 C   0  0  0  0  0  0  0  0  0  0  0  0
   10.6273   16.1741   22.1382 O   0  0  0  0  0  0  0  0  0  0  0  0
  1  2  1  0
  2  3  1  0
  3  4  2  0
  3  5  1  0
  5  6  1  6
  6  7  1  0
  7  8  2  0
  7  9  1  0
  9 10  1  0
 10 11  1  0
 11 12  1  0
 12 13  1  0
 13 14  2  0
 13 15  2  0
 13 16  1  0
 16 17  1  0
 17 18  1  0
 18 19  1  0
 19 20  1  0
 20 21  1  0
 12 22  1  0
 22 23  1  0
  5 24  1  0
 24 25  1  6
 25 26  1  0
 26 27  1  0
 27 28  1  0
 23  9  1  0
 28 24  1  0
 21 16  1  0
M  END
>  <energy_score>  (4303) 
-15.153414

>  <inchikey>  (4303) 
RUCRUNKYTYXDFX-UHFFFAOYSA-N

>  <smiles>  (4303) 
COC(=O)C(OC(=O)C1CCN(S(=O)(=O)N2CCCCC2)CC1)C1CCCO1

>  <ref_pdb>  (4303) 
A0875a

>  <alias>  (4303) 
RUCRUNKYTYXDFX-UHFFFAOYSA-N-P439-P87-P439-601505

>  <HIPPO Pose ID>  (4303) 
508263

>  <name>  (4303) 
RUCRUNKYTYXDFX-UHFFFAOYSA-N-P439-P87-P439-601505

>  <HIPPO Compound ID>  (4303) 
314667

>  <ref_mols>  (4303) 
A4706a,A0875a

>  <distance_score>  (4303) 
1.548151

>  <inspiration_score>  (4303) 
None

$$$$
CSASASKRAPUNGD-UHFFFAOYSA-N-P439-P87-P439-601505
     RDKit          3D

 28 30  0  0  0  0  0  0  0  0999 V2000
    3.7562   14.6625   21.7247 C   0  0  0  0  0  0  0  0  0  0  0  0
    4.8704   15.4458   22.1621 O   0  0  0  0  0  0  0  0  0  0  0  0
    6.0765   14.9582   21.7140 C   0  0  0  0  0  0  0  0  0  0  0  0
    6.1568   14.0580   20.8949 O   0  0  0  0  0  0  0  0  0  0  0  0
    7.2341   15.6123   22.4487 C   0  0  1  0  0  0  0  0  0  0  0  0
    7.1239   15.1955   23.8342 O   0  0  0  0  0  0  0  0  0  0  0  0
    6.6818   13.9322   24.0930 C   0  0  0  0  0  0  0  0  0  0  0  0
    6.5983   13.0089   23.2894 O   0  0  0  0  0  0  0  0  0  0  0  0
    6.1777   13.7793   25.5139 C   0  0  0  0  0  0  0  0  0  0  0  0
    6.4381   12.3363   25.9712 C   0  0  0  0  0  0  0  0  0  0  0  0
    7.9331   12.0237   26.0218 C   0  0  0  0  0  0  0  0  0  0  0  0
    8.7283   13.2097   26.4676 N   0  0  0  0  0  0  0  0  0  0  0  0
    9.7658   13.9259   25.3240 S   0  0  0  0  0  0  0  0  0  0  0  0
    9.9137   15.3083   25.6969 O   0  0  0  0  0  0  0  0  0  0  0  0
    9.3594   13.4788   24.0223 O   0  0  0  0  0  0  0  0  0  0  0  0
   11.2248   13.1762   25.6322 N   0  0  0  0  0  0  0  0  0  0  0  0
   11.9415   13.5955   26.8254 C   0  0  0  0  0  0  0  0  0  0  0  0
   13.3935   13.1361   26.7376 C   0  0  0  0  0  0  0  0  0  0  0  0
   13.4775   11.6619   26.6557 C   0  0  0  0  0  0  0  0  0  0  0  0
   12.7467   11.2408   25.3925 C   0  0  0  0  0  0  0  0  0  0  0  0
   11.3215   11.7811   25.2300 C   0  0  0  0  0  0  0  0  0  0  0  0
    7.9351   14.1696   27.2892 C   0  0  0  0  0  0  0  0  0  0  0  0
    6.7856   14.7761   26.5030 C   0  0  0  0  0  0  0  0  0  0  0  0
    8.6204   15.3908   21.8763 C   0  0  0  0  0  0  0  0  0  0  0  0
    9.1224   15.0605   20.6319 C   0  0  0  0  0  0  0  0  0  0  0  0
   10.5328   15.0576   20.6961 C   0  0  0  0  0  0  0  0  0  0  0  0
   10.8331   15.4472   21.9768 C   0  0  0  0  0  0  0  0  0  0  0  0
    9.6957   15.6947   22.6770 O   0  0  0  0  0  0  0  0  0  0  0  0
  1  2  1  0
  2  3  1  0
  3  4  2  0
  3  5  1  0
  5  6  1  1
  6  7  1  0
  7  8  2  0
  7  9  1  0
  9 10  1  0
 10 11  1  0
 11 12  1  0
 12 13  1  0
 13 14  2  0
 13 15  2  0
 13 16  1  0
 16 17  1  0
 17 18  1  0
 18 19  1  0
 19 20  1  0
 20 21  1  0
 12 22  1  0
 22 23  1  0
  5 24  1  0
 24 25  2  0
 25 26  1  0
 26 27  2  0
 27 28  1  0
 23  9  1  0
 28 24  1  0
 21 16  1  0
M  END
>  <energy_score>  (4304) 
-39.343044

>  <inchikey>  (4304) 
CSASASKRAPUNGD-UHFFFAOYSA-N

>  <smiles>  (4304) 
COC(=O)C(OC(=O)C1CCN(S(=O)(=O)N2CCCCC2)CC1)c1ccco1

>  <ref_pdb>  (4304) 
A0875a

>  <alias>  (4304) 
CSASASKRAPUNGD-UHFFFAOYSA-N-P439-P87-P439-601505

>  <HIPPO Pose ID>  (4304) 
508269

>  <name>  (4304) 
CSASASKRAPUNGD-UHFFFAOYSA-N-P439-P87-P439-601505

>  <HIPPO Compound ID>  (4304) 
314670

>  <ref_mols>  (4304) 
A4706a,A0875a

>  <distance_score>  (4304) 
1.797485

>  <inspiration_score>  (4304) 
None

$$$$
UQDIZGUYXZGEHS-UHFFFAOYSA-N-P439-P87-P439-601505
     RDKit          3D

 28 30  0  0  0  0  0  0  0  0999 V2000
    4.3430   13.8548   21.2279 C   0  0  0  0  0  0  0  0  0  0  0  0
    5.3869   14.8321   21.2601 O   0  0  0  0  0  0  0  0  0  0  0  0
    6.6150   14.3894   21.6413 C   0  0  0  0  0  0  0  0  0  0  0  0
    6.8807   13.1979   21.7647 O   0  0  0  0  0  0  0  0  0  0  0  0
    7.5740   15.5409   21.9987 C   0  0  1  0  0  0  0  0  0  0  0  0
    7.3873   15.5262   23.4494 O   0  0  0  0  0  0  0  0  0  0  0  0
    6.1291   15.6415   23.9657 C   0  0  0  0  0  0  0  0  0  0  0  0
    5.2269   16.3117   23.4826 O   0  0  0  0  0  0  0  0  0  0  0  0
    5.9299   14.7443   25.1864 C   0  0  0  0  0  0  0  0  0  0  0  0
    6.4448   13.2993   24.9278 C   0  0  0  0  0  0  0  0  0  0  0  0
    6.9782   12.5892   26.1550 C   0  0  0  0  0  0  0  0  0  0  0  0
    7.8536   13.4886   26.9267 N   0  0  0  0  0  0  0  0  0  0  0  0
    9.2903   14.1271   26.3028 S   0  0  0  0  0  0  0  0  0  0  0  0
    9.0490   14.7476   25.0347 O   0  0  0  0  0  0  0  0  0  0  0  0
    9.8689   14.9099   27.3684 O   0  0  0  0  0  0  0  0  0  0  0  0
   10.3653   12.8876   26.0072 N   0  0  0  0  0  0  0  0  0  0  0  0
   10.0758   11.9779   24.8856 C   0  0  0  0  0  0  0  0  0  0  0  0
   10.9247   10.7489   25.1034 C   0  0  0  0  0  0  0  0  0  0  0  0
   12.3870   11.1685   25.4462 C   0  0  0  0  0  0  0  0  0  0  0  0
   12.6782   12.5991   25.0563 C   0  0  0  0  0  0  0  0  0  0  0  0
   11.7404   13.4951   25.8471 C   0  0  0  0  0  0  0  0  0  0  0  0
    6.9861   14.5531   27.5164 C   0  0  0  0  0  0  0  0  0  0  0  0
    6.4729   15.4752   26.4201 C   0  0  0  0  0  0  0  0  0  0  0  0
    9.0807   15.3032   21.6197 C   0  0  0  0  0  0  0  0  0  0  0  0
    9.4499   15.6766   20.1744 C   0  0  0  0  0  0  0  0  0  0  0  0
   10.2712   15.7815   22.4867 C   0  0  0  0  0  0  0  0  0  0  0  0
   10.8578   14.4583   22.5035 O   0  0  0  0  0  0  0  0  0  0  0  0
    9.6270   13.9241   21.9706 C   0  0  0  0  0  0  0  0  0  0  0  0
  1  2  1  0
  2  3  1  0
  3  4  2  0
  3  5  1  0
  5  6  1  1
  6  7  1  0
  7  8  2  0
  7  9  1  0
  9 10  1  0
 10 11  1  0
 11 12  1  0
 12 13  1  0
 13 14  2  0
 13 15  2  0
 13 16  1  0
 16 17  1  0
 17 18  1  0
 18 19  1  0
 19 20  1  0
 20 21  1  0
 12 22  1  0
 22 23  1  0
  5 24  1  0
 24 25  1  0
 24 26  1  0
 26 27  1  0
 27 28  1  0
 23  9  1  0
 28 24  1  0
 21 16  1  0
M  END
>  <energy_score>  (4305) 
-43.064821

>  <inchikey>  (4305) 
UQDIZGUYXZGEHS-UHFFFAOYSA-N

>  <smiles>  (4305) 
COC(=O)C(OC(=O)C1CCN(S(=O)(=O)N2CCCCC2)CC1)C1(C)COC1

>  <ref_pdb>  (4305) 
A0875a

>  <alias>  (4305) 
UQDIZGUYXZGEHS-UHFFFAOYSA-N-P439-P87-P439-601505

>  <HIPPO Pose ID>  (4305) 
508275

>  <name>  (4305) 
UQDIZGUYXZGEHS-UHFFFAOYSA-N-P439-P87-P439-601505

>  <HIPPO Compound ID>  (4305) 
314673

>  <ref_mols>  (4305) 
A4706a,A0875a

>  <distance_score>  (4305) 
1.812481

>  <inspiration_score>  (4305) 
None

$$$$
BGXJCVBMVHLLFF-UHFFFAOYSA-N-P439-P87-P439-601505
     RDKit          3D

 28 29  0  0  0  0  0  0  0  0999 V2000
   12.0773   15.6495   21.5614 C   0  0  0  0  0  0  0  0  0  0  0  0
   11.2716   14.7841   22.4933 C   0  0  0  0  0  0  0  0  0  0  0  0
    9.9845   15.3660   22.6604 O   0  0  0  0  0  0  0  0  0  0  0  0
    8.9455   14.7626   21.8856 C   0  0  2  0  0  0  0  0  0  0  0  0
    9.1567   15.1625   20.4352 C   0  0  0  0  0  0  0  0  0  0  0  0
    7.5345   15.1916   22.4356 C   0  0  2  0  0  0  0  0  0  0  0  0
    7.3987   14.8725   23.8628 O   0  0  0  0  0  0  0  0  0  0  0  0
    6.2175   15.1885   24.4495 C   0  0  0  0  0  0  0  0  0  0  0  0
    5.4887   16.1023   24.0853 O   0  0  0  0  0  0  0  0  0  0  0  0
    5.8331   14.2543   25.5928 C   0  0  0  0  0  0  0  0  0  0  0  0
    6.2400   12.7777   25.4233 C   0  0  0  0  0  0  0  0  0  0  0  0
    7.3160   12.3380   26.4147 C   0  0  0  0  0  0  0  0  0  0  0  0
    8.3207   13.4097   26.5974 N   0  0  0  0  0  0  0  0  0  0  0  0
    9.4957   13.5366   25.4006 S   0  0  0  0  0  0  0  0  0  0  0  0
    9.0405   12.7305   24.2939 O   0  0  0  0  0  0  0  0  0  0  0  0
    9.9006   14.9152   25.2814 O   0  0  0  0  0  0  0  0  0  0  0  0
   10.7990   12.7082   26.1262 N   0  0  0  0  0  0  0  0  0  0  0  0
   11.6511   13.5656   26.9920 C   0  0  0  0  0  0  0  0  0  0  0  0
   12.9507   12.8743   27.4173 C   0  0  0  0  0  0  0  0  0  0  0  0
   13.7784   12.3350   26.2753 C   0  0  0  0  0  0  0  0  0  0  0  0
   12.9722   12.2607   25.0121 C   0  0  0  0  0  0  0  0  0  0  0  0
   11.5309   11.8462   25.1801 C   0  0  0  0  0  0  0  0  0  0  0  0
    7.7807   14.6623   27.1733 C   0  0  0  0  0  0  0  0  0  0  0  0
    6.2860   14.8221   26.9290 C   0  0  0  0  0  0  0  0  0  0  0  0
    6.4502   14.2786   21.8798 C   0  0  0  0  0  0  0  0  0  0  0  0
    6.5298   13.0540   21.8805 O   0  0  0  0  0  0  0  0  0  0  0  0
    5.3458   14.9564   21.4735 O   0  0  0  0  0  0  0  0  0  0  0  0
    4.2196   14.1314   21.1637 C   0  0  0  0  0  0  0  0  0  0  0  0
  1  2  1  0
  2  3  1  0
  3  4  1  0
  4  5  1  6
  4  6  1  0
  6  7  1  1
  7  8  1  0
  8  9  2  0
  8 10  1  0
 10 11  1  0
 11 12  1  0
 12 13  1  0
 13 14  1  0
 14 15  2  0
 14 16  2  0
 14 17  1  0
 17 18  1  0
 18 19  1  0
 19 20  1  0
 20 21  1  0
 21 22  1  0
 13 23  1  0
 23 24  1  0
  6 25  1  0
 25 26  2  0
 25 27  1  0
 27 28  1  0
 24 10  1  0
 22 17  1  0
M  END
>  <energy_score>  (4306) 
-101.098087

>  <inchikey>  (4306) 
BGXJCVBMVHLLFF-UHFFFAOYSA-N

>  <smiles>  (4306) 
CCOC(C)C(OC(=O)C1CCN(S(=O)(=O)N2CCCCC2)CC1)C(=O)OC

>  <ref_pdb>  (4306) 
A0875a

>  <alias>  (4306) 
BGXJCVBMVHLLFF-UHFFFAOYSA-N-P439-P87-P439-601505

>  <HIPPO Pose ID>  (4306) 
508279

>  <name>  (4306) 
BGXJCVBMVHLLFF-UHFFFAOYSA-N-P439-P87-P439-601505

>  <HIPPO Compound ID>  (4306) 
314675

>  <ref_mols>  (4306) 
A4706a,A0875a

>  <distance_score>  (4306) 
1.869085

>  <inspiration_score>  (4306) 
None

$$$$
CPBJEQNMBIFOJJ-UHFFFAOYSA-N-P439-P87-P439-601505
     RDKit          3D

 28 29  0  0  0  0  0  0  0  0999 V2000
   18.5589   12.6414   32.0754 C   0  0  0  0  0  0  0  0  0  0  0  0
   17.6670   13.0791   30.9309 C   0  0  0  0  0  0  0  0  0  0  0  0
   17.9335   12.2381   29.8119 O   0  0  0  0  0  0  0  0  0  0  0  0
   17.1412   12.5507   28.6564 C   0  0  0  0  0  0  0  0  0  0  0  0
   17.9665   12.8975   27.5512 O   0  0  0  0  0  0  0  0  0  0  0  0
   18.8980   13.9489   27.7879 C   0  0  0  0  0  0  0  0  0  0  0  0
   20.2779   13.3754   28.0522 C   0  0  0  0  0  0  0  0  0  0  0  0
   16.2894   11.2834   28.2693 C   0  0  0  0  0  0  0  0  0  0  0  0
   17.2761   10.1232   28.0000 C   0  0  0  0  0  0  0  0  0  0  0  0
   15.3895   10.9494   29.4736 C   0  0  0  0  0  0  0  0  0  0  0  0
   15.4565   11.3635   27.0357 O   0  0  0  0  0  0  0  0  0  0  0  0
   14.5344   12.3480   26.8477 C   0  0  0  0  0  0  0  0  0  0  0  0
   14.3780   13.2684   27.6378 O   0  0  0  0  0  0  0  0  0  0  0  0
   13.6751   12.1215   25.5438 C   0  0  0  0  0  0  0  0  0  0  0  0
   13.0965   13.3926   24.9695 C   0  0  0  0  0  0  0  0  0  0  0  0
   11.9685   13.9644   25.8210 C   0  0  0  0  0  0  0  0  0  0  0  0
   10.7930   13.0843   25.8056 N   0  0  0  0  0  0  0  0  0  0  0  0
    9.3836   13.9208   25.4045 S   0  0  0  0  0  0  0  0  0  0  0  0
    9.1123   13.7331   24.0017 O   0  0  0  0  0  0  0  0  0  0  0  0
    9.5080   15.2421   25.9743 O   0  0  0  0  0  0  0  0  0  0  0  0
    8.2512   13.1066   26.3440 N   0  0  0  0  0  0  0  0  0  0  0  0
    7.8029   11.7831   25.8695 C   0  0  0  0  0  0  0  0  0  0  0  0
    6.2995   11.7192   25.7210 C   0  0  0  0  0  0  0  0  0  0  0  0
    5.7862   12.9508   24.9868 C   0  0  0  0  0  0  0  0  0  0  0  0
    6.1360   14.2309   25.7462 C   0  0  0  0  0  0  0  0  0  0  0  0
    7.1483   13.9693   26.8541 C   0  0  0  0  0  0  0  0  0  0  0  0
   11.0686   11.7767   25.2076 C   0  0  0  0  0  0  0  0  0  0  0  0
   12.4409   11.2763   25.7477 C   0  0  0  0  0  0  0  0  0  0  0  0
  1  2  1  0
  2  3  1  0
  3  4  1  0
  4  5  1  0
  5  6  1  0
  6  7  1  0
  4  8  1  0
  8  9  1  0
  8 10  1  0
  8 11  1  0
 11 12  1  0
 12 13  2  0
 12 14  1  0
 14 15  1  0
 15 16  1  0
 16 17  1  0
 17 18  1  0
 18 19  2  0
 18 20  2  0
 18 21  1  0
 21 22  1  0
 22 23  1  0
 23 24  1  0
 24 25  1  0
 25 26  1  0
 17 27  1  0
 27 28  1  0
 28 14  1  0
 26 21  1  0
M  END
>  <energy_score>  (4307) 
-97.116554

>  <inchikey>  (4307) 
CPBJEQNMBIFOJJ-UHFFFAOYSA-N

>  <smiles>  (4307) 
CCOC(OCC)C(C)(C)OC(=O)C1CCN(S(=O)(=O)N2CCCCC2)CC1

>  <ref_pdb>  (4307) 
A0875a

>  <alias>  (4307) 
CPBJEQNMBIFOJJ-UHFFFAOYSA-N-P439-P87-P439-601505

>  <HIPPO Pose ID>  (4307) 
508281

>  <name>  (4307) 
CPBJEQNMBIFOJJ-UHFFFAOYSA-N-P439-P87-P439-601505

>  <HIPPO Compound ID>  (4307) 
314676

>  <ref_mols>  (4307) 
A4706a,A0875a

>  <distance_score>  (4307) 
1.929144

>  <inspiration_score>  (4307) 
None

$$$$
BGEQXHIKLQXALN-UHFFFAOYSA-N-P87-P87-P439-601505
     RDKit          3D

 28 31  0  0  0  0  0  0  0  0999 V2000
   13.3672   12.6915   26.8767 O   0  0  0  0  0  0  0  0  0  0  0  0
   13.8125   11.7149   26.3039 C   0  0  0  0  0  0  0  0  0  0  0  0
   14.8567   10.9630   26.7523 O   0  0  0  0  0  0  0  0  0  0  0  0
   15.7655   11.5223   27.7743 C   0  0  0  0  0  0  0  0  0  0  0  0
   16.7348   10.3925   28.2180 C   0  0  0  0  0  0  0  0  0  0  0  0
   17.7438   10.7937   29.3243 C   0  0  0  0  0  0  0  0  0  0  0  0
   19.1013   10.0981   29.1954 C   0  0  0  0  0  0  0  0  0  0  0  0
   18.9203    8.7218   28.7628 N   0  0  0  0  0  0  0  0  0  0  0  0
   18.3799    8.6375   27.4090 C   0  0  0  0  0  0  0  0  0  0  0  0
   17.4880    9.8171   27.0135 C   0  0  0  0  0  0  0  0  0  0  0  0
   16.4438   12.8653   27.4091 C   0  0  0  0  0  0  0  0  0  0  0  0
   15.9934   13.4863   28.6322 O   0  0  0  0  0  0  0  0  0  0  0  0
   15.2019   12.3248   28.9791 C   0  0  0  0  0  0  0  0  0  0  0  0
   13.3080   11.2217   24.9433 C   0  0  0  0  0  0  0  0  0  0  0  0
   13.0486   12.5004   24.1313 C   0  0  0  0  0  0  0  0  0  0  0  0
   11.7578   13.1654   24.4993 C   0  0  0  0  0  0  0  0  0  0  0  0
   10.6656   12.2098   24.5913 N   0  0  0  0  0  0  0  0  0  0  0  0
    9.2657   12.7621   25.2304 S   0  0  0  0  0  0  0  0  0  0  0  0
    9.6025   13.9688   25.9288 O   0  0  0  0  0  0  0  0  0  0  0  0
    8.6357   11.6708   25.9208 O   0  0  0  0  0  0  0  0  0  0  0  0
    8.2670   13.1411   23.9474 N   0  0  0  0  0  0  0  0  0  0  0  0
    6.8405   13.1915   24.4233 C   0  0  0  0  0  0  0  0  0  0  0  0
    5.9510   14.1677   23.6662 C   0  0  0  0  0  0  0  0  0  0  0  0
    6.3239   14.2011   22.2122 C   0  0  0  0  0  0  0  0  0  0  0  0
    7.7776   14.6266   22.0315 C   0  0  0  0  0  0  0  0  0  0  0  0
    8.6965   14.3284   23.1889 C   0  0  0  0  0  0  0  0  0  0  0  0
   10.8174   10.8319   24.1805 C   0  0  0  0  0  0  0  0  0  0  0  0
   12.0934   10.2259   24.7984 C   0  0  0  0  0  0  0  0  0  0  0  0
  1  2  2  0
  2  3  1  0
  3  4  1  0
  4  5  1  0
  5  6  1  0
  6  7  1  0
  7  8  1  0
  8  9  1  0
  9 10  1  0
  4 11  1  0
 11 12  1  0
 12 13  1  0
  2 14  1  0
 14 15  1  0
 15 16  1  0
 16 17  1  0
 17 18  1  0
 18 19  2  0
 18 20  2  0
 18 21  1  0
 21 22  1  0
 22 23  1  0
 23 24  1  0
 24 25  1  0
 25 26  1  0
 17 27  1  0
 27 28  1  0
 13  4  1  0
 28 14  1  0
 10  5  1  0
 26 21  1  0
M  END
>  <energy_score>  (4308) 
-55.04684

>  <inchikey>  (4308) 
BGEQXHIKLQXALN-UHFFFAOYSA-N

>  <smiles>  (4308) 
O=C(OC1(C2CCNCC2)COC1)C1CCN(S(=O)(=O)N2CCCCC2)CC1

>  <ref_pdb>  (4308) 
A0875a

>  <alias>  (4308) 
BGEQXHIKLQXALN-UHFFFAOYSA-N-P87-P87-P439-601505

>  <HIPPO Pose ID>  (4308) 
508282

>  <name>  (4308) 
BGEQXHIKLQXALN-UHFFFAOYSA-N-P87-P87-P439-601505

>  <HIPPO Compound ID>  (4308) 
314677

>  <ref_mols>  (4308) 
A4706a,A0875a

>  <distance_score>  (4308) 
1.874007

>  <inspiration_score>  (4308) 
None

$$$$
YDANGDBFCICAQF-UHFFFAOYSA-N-P439-P87-P439-601505
     RDKit          3D

 28 30  0  0  0  0  0  0  0  0999 V2000
   11.1831   14.8110   18.9664 C   0  0  0  0  0  0  0  0  0  0  0  0
   10.7907   14.8540   20.3365 O   0  0  0  0  0  0  0  0  0  0  0  0
    9.9233   15.8483   20.6561 C   0  0  0  0  0  0  0  0  0  0  0  0
    9.5277   16.6985   19.8669 O   0  0  0  0  0  0  0  0  0  0  0  0
    9.5277   15.8333   22.1579 C   0  0  2  0  0  0  0  0  0  0  0  0
   10.6833   15.3475   22.9599 N   0  0  0  0  0  0  0  0  0  0  0  0
    8.1564   15.1685   22.5236 C   0  0  0  0  0  0  0  0  0  0  0  0
    7.6410   15.2990   23.8935 O   0  0  0  0  0  0  0  0  0  0  0  0
    6.4809   14.6171   24.1812 C   0  0  0  0  0  0  0  0  0  0  0  0
    5.8065   13.9892   23.3687 O   0  0  0  0  0  0  0  0  0  0  0  0
    6.0431   14.6302   25.6358 C   0  0  0  0  0  0  0  0  0  0  0  0
    5.8126   13.1726   26.0949 C   0  0  0  0  0  0  0  0  0  0  0  0
    7.1008   12.3815   26.3303 C   0  0  0  0  0  0  0  0  0  0  0  0
    8.2399   13.2874   26.6316 N   0  0  0  0  0  0  0  0  0  0  0  0
    9.3468   13.5794   25.4039 S   0  0  0  0  0  0  0  0  0  0  0  0
    8.8688   12.8628   24.2511 O   0  0  0  0  0  0  0  0  0  0  0  0
    9.6485   14.9919   25.4073 O   0  0  0  0  0  0  0  0  0  0  0  0
   10.7032   12.7770   25.9529 N   0  0  0  0  0  0  0  0  0  0  0  0
   11.9266   13.6179   26.0428 C   0  0  0  0  0  0  0  0  0  0  0  0
   12.8828   13.2601   24.9108 C   0  0  0  0  0  0  0  0  0  0  0  0
   13.4514   11.8819   25.1522 C   0  0  0  0  0  0  0  0  0  0  0  0
   12.3232   11.0153   25.5996 C   0  0  0  0  0  0  0  0  0  0  0  0
   10.9273   11.4960   25.2372 C   0  0  0  0  0  0  0  0  0  0  0  0
    7.8353   14.4609   27.4340 C   0  0  0  0  0  0  0  0  0  0  0  0
    6.9298   15.3852   26.6233 C   0  0  0  0  0  0  0  0  0  0  0  0
    8.1209   13.8266   21.8235 C   0  0  0  0  0  0  0  0  0  0  0  0
    7.4097   14.4094   20.7175 O   0  0  0  0  0  0  0  0  0  0  0  0
    7.1332   15.5936   21.5118 C   0  0  0  0  0  0  0  0  0  0  0  0
  1  2  1  0
  2  3  1  0
  3  4  2  0
  3  5  1  0
  5  6  1  1
  5  7  1  0
  7  8  1  0
  8  9  1  0
  9 10  2  0
  9 11  1  0
 11 12  1  0
 12 13  1  0
 13 14  1  0
 14 15  1  0
 15 16  2  0
 15 17  2  0
 15 18  1  0
 18 19  1  0
 19 20  1  0
 20 21  1  0
 21 22  1  0
 22 23  1  0
 14 24  1  0
 24 25  1  0
  7 26  1  0
 26 27  1  0
 27 28  1  0
 28  7  1  0
 25 11  1  0
 23 18  1  0
M  END
>  <energy_score>  (4309) 
-54.08398

>  <inchikey>  (4309) 
YDANGDBFCICAQF-UHFFFAOYSA-N

>  <smiles>  (4309) 
COC(=O)C(N)C1(OC(=O)C2CCN(S(=O)(=O)N3CCCCC3)CC2)COC1

>  <ref_pdb>  (4309) 
A0875a

>  <alias>  (4309) 
YDANGDBFCICAQF-UHFFFAOYSA-N-P439-P87-P439-601505

>  <HIPPO Pose ID>  (4309) 
508285

>  <name>  (4309) 
YDANGDBFCICAQF-UHFFFAOYSA-N-P439-P87-P439-601505

>  <HIPPO Compound ID>  (4309) 
314678

>  <ref_mols>  (4309) 
A4706a,A0875a

>  <distance_score>  (4309) 
1.558439

>  <inspiration_score>  (4309) 
None

$$$$
OCNNGOWOCMBIOT-UHFFFAOYSA-N-P439-P87-P439-601505
     RDKit          3D

 28 30  0  0  0  0  0  0  0  0999 V2000
   11.0765   14.5424   18.6805 C   0  0  0  0  0  0  0  0  0  0  0  0
   10.1511   15.4837   19.4139 C   0  0  0  0  0  0  0  0  0  0  0  0
   10.0864   15.4209   20.9555 C   0  0  0  0  0  0  0  0  0  0  0  0
    9.7355   16.7954   21.4900 C   0  0  0  0  0  0  0  0  0  0  0  0
    8.5599   17.5568   20.9394 C   0  0  0  0  0  0  0  0  0  0  0  0
   11.4411   15.0686   21.5803 C   0  0  0  0  0  0  0  0  0  0  0  0
   11.4061   13.6939   21.9205 O   0  0  0  0  0  0  0  0  0  0  0  0
   10.1123   13.2928   22.0300 C   0  0  0  0  0  0  0  0  0  0  0  0
    9.7907   12.2448   22.5807 O   0  0  0  0  0  0  0  0  0  0  0  0
    9.1447   14.3207   21.4812 C   0  0  1  0  0  0  0  0  0  0  0  0
    8.2596   14.6840   22.5778 O   0  0  0  0  0  0  0  0  0  0  0  0
    7.2520   13.8260   22.8500 C   0  0  0  0  0  0  0  0  0  0  0  0
    6.8144   13.0190   22.0346 O   0  0  0  0  0  0  0  0  0  0  0  0
    6.7160   13.8255   24.2808 C   0  0  0  0  0  0  0  0  0  0  0  0
    7.0923   12.5050   24.9811 C   0  0  0  0  0  0  0  0  0  0  0  0
    8.5125   12.4991   25.5459 C   0  0  0  0  0  0  0  0  0  0  0  0
    8.8865   13.7621   26.2269 N   0  0  0  0  0  0  0  0  0  0  0  0
   10.2304   14.6477   25.6951 S   0  0  0  0  0  0  0  0  0  0  0  0
   10.0974   14.9268   24.2968 O   0  0  0  0  0  0  0  0  0  0  0  0
   10.3647   15.7440   26.6243 O   0  0  0  0  0  0  0  0  0  0  0  0
   11.5802   13.6903   25.9004 N   0  0  0  0  0  0  0  0  0  0  0  0
   12.0179   12.7962   24.8261 C   0  0  0  0  0  0  0  0  0  0  0  0
   13.0011   11.7319   25.2964 C   0  0  0  0  0  0  0  0  0  0  0  0
   14.0034   12.2592   26.2828 C   0  0  0  0  0  0  0  0  0  0  0  0
   13.2992   12.8309   27.4928 C   0  0  0  0  0  0  0  0  0  0  0  0
   11.8649   13.2923   27.2571 C   0  0  0  0  0  0  0  0  0  0  0  0
    7.6930   14.6258   26.4870 C   0  0  0  0  0  0  0  0  0  0  0  0
    7.0269   15.0299   25.1706 C   0  0  0  0  0  0  0  0  0  0  0  0
  1  2  1  0
  2  3  1  0
  3  4  1  0
  4  5  1  0
  3  6  1  0
  6  7  1  0
  7  8  1  0
  8  9  2  0
  8 10  1  0
 10 11  1  1
 11 12  1  0
 12 13  2  0
 12 14  1  0
 14 15  1  0
 15 16  1  0
 16 17  1  0
 17 18  1  0
 18 19  2  0
 18 20  2  0
 18 21  1  0
 21 22  1  0
 22 23  1  0
 23 24  1  0
 24 25  1  0
 25 26  1  0
 17 27  1  0
 27 28  1  0
 10  3  1  0
 28 14  1  0
 26 21  1  0
M  END
>  <energy_score>  (4310) 
-65.289592

>  <inchikey>  (4310) 
OCNNGOWOCMBIOT-UHFFFAOYSA-N

>  <smiles>  (4310) 
CCC1(CC)COC(=O)C1OC(=O)C1CCN(S(=O)(=O)N2CCCCC2)CC1

>  <ref_pdb>  (4310) 
A0875a

>  <alias>  (4310) 
OCNNGOWOCMBIOT-UHFFFAOYSA-N-P439-P87-P439-601505

>  <HIPPO Pose ID>  (4310) 
508289

>  <name>  (4310) 
OCNNGOWOCMBIOT-UHFFFAOYSA-N-P439-P87-P439-601505

>  <HIPPO Compound ID>  (4310) 
314680

>  <ref_mols>  (4310) 
A4706a,A0875a

>  <distance_score>  (4310) 
1.506102

>  <inspiration_score>  (4310) 
None

$$$$
BJRLSBOWHYDOTR-UHFFFAOYSA-N-P439-P87-P439-601505
     RDKit          3D

 28 30  0  0  0  0  0  0  0  0999 V2000
   11.2084   15.1353   18.4190 C   0  0  0  0  0  0  0  0  0  0  0  0
   11.0951   15.3538   19.8066 O   0  0  0  0  0  0  0  0  0  0  0  0
    9.9678   16.0199   20.1880 C   0  0  0  0  0  0  0  0  0  0  0  0
    9.4184   16.8662   19.5028 O   0  0  0  0  0  0  0  0  0  0  0  0
    9.5261   15.5249   21.5764 C   0  0  1  0  0  0  0  0  0  0  0  0
    8.0531   15.9104   21.8135 C   0  0  0  0  0  0  0  0  0  0  0  0
    7.4652   15.5232   23.0888 O   0  0  0  0  0  0  0  0  0  0  0  0
    6.6011   14.4719   23.1007 C   0  0  0  0  0  0  0  0  0  0  0  0
    6.4477   13.6888   22.1666 O   0  0  0  0  0  0  0  0  0  0  0  0
    5.7792   14.3810   24.4004 C   0  0  0  0  0  0  0  0  0  0  0  0
    5.6902   12.9370   24.9407 C   0  0  0  0  0  0  0  0  0  0  0  0
    6.5604   12.6345   26.1624 C   0  0  0  0  0  0  0  0  0  0  0  0
    7.7177   13.5450   26.2049 N   0  0  0  0  0  0  0  0  0  0  0  0
    8.9173   13.2634   25.0643 S   0  0  0  0  0  0  0  0  0  0  0  0
    9.4968   14.5179   24.6680 O   0  0  0  0  0  0  0  0  0  0  0  0
    8.4249   12.2863   24.1359 O   0  0  0  0  0  0  0  0  0  0  0  0
   10.0693   12.4858   25.9750 N   0  0  0  0  0  0  0  0  0  0  0  0
   10.7543   13.3902   26.8775 C   0  0  0  0  0  0  0  0  0  0  0  0
   12.0380   13.9365   26.3457 C   0  0  0  0  0  0  0  0  0  0  0  0
   12.8570   13.0130   25.4524 C   0  0  0  0  0  0  0  0  0  0  0  0
   12.3842   11.6044   25.6195 C   0  0  0  0  0  0  0  0  0  0  0  0
   10.9082   11.5133   25.2325 C   0  0  0  0  0  0  0  0  0  0  0  0
    7.3107   14.9489   26.4126 C   0  0  0  0  0  0  0  0  0  0  0  0
    6.1491   15.3646   25.5137 C   0  0  0  0  0  0  0  0  0  0  0  0
    9.7345   14.0289   21.6150 C   0  0  0  0  0  0  0  0  0  0  0  0
   11.1626   13.8483   22.0549 C   0  0  0  0  0  0  0  0  0  0  0  0
   11.5583   15.1853   22.6176 C   0  0  0  0  0  0  0  0  0  0  0  0
   10.4280   16.0510   22.5501 O   0  0  0  0  0  0  0  0  0  0  0  0
  1  2  1  0
  2  3  1  0
  3  4  2  0
  3  5  1  0
  5  6  1  1
  6  7  1  0
  7  8  1  0
  8  9  2  0
  8 10  1  0
 10 11  1  0
 11 12  1  0
 12 13  1  0
 13 14  1  0
 14 15  2  0
 14 16  2  0
 14 17  1  0
 17 18  1  0
 18 19  1  0
 19 20  1  0
 20 21  1  0
 21 22  1  0
 13 23  1  0
 23 24  1  0
  5 25  1  0
 25 26  1  0
 26 27  1  0
 27 28  1  0
 28  5  1  0
 24 10  1  0
 22 17  1  0
M  END
>  <energy_score>  (4311) 
-18.719286

>  <inchikey>  (4311) 
BJRLSBOWHYDOTR-UHFFFAOYSA-N

>  <smiles>  (4311) 
COC(=O)C1(COC(=O)C2CCN(S(=O)(=O)N3CCCCC3)CC2)CCCO1

>  <ref_pdb>  (4311) 
A0875a

>  <alias>  (4311) 
BJRLSBOWHYDOTR-UHFFFAOYSA-N-P439-P87-P439-601505

>  <HIPPO Pose ID>  (4311) 
508295

>  <name>  (4311) 
BJRLSBOWHYDOTR-UHFFFAOYSA-N-P439-P87-P439-601505

>  <HIPPO Compound ID>  (4311) 
314683

>  <ref_mols>  (4311) 
A4706a,A0875a

>  <distance_score>  (4311) 
1.929176

>  <inspiration_score>  (4311) 
None

$$$$
UCFKQNGJLOZJNT-UHFFFAOYSA-N-P439-P87-P439-601505
     RDKit          3D

 28 31  0  0  0  0  0  0  0  0999 V2000
   11.1409   12.5343   22.3380 N   0  0  0  0  0  0  0  0  0  0  0  0
   11.6211   13.7270   21.9778 C   0  0  0  0  0  0  0  0  0  0  0  0
   11.9490   14.0191   20.7466 N   0  0  0  0  0  0  0  0  0  0  0  0
   11.6867   15.3577   20.5832 C   0  0  0  0  0  0  0  0  0  0  0  0
   10.9196   15.8281   21.6434 C   0  0  0  0  0  0  0  0  0  0  0  0
    9.3402   15.9800   21.5227 C   0  0  0  0  0  0  0  0  0  0  0  0
    8.6160   15.4750   22.6930 O   0  0  0  0  0  0  0  0  0  0  0  0
    7.3290   15.0480   22.6262 C   0  0  0  0  0  0  0  0  0  0  0  0
    6.5396   15.2629   21.7208 O   0  0  0  0  0  0  0  0  0  0  0  0
    6.9484   14.1295   23.7936 C   0  0  0  0  0  0  0  0  0  0  0  0
    7.9392   12.9583   23.8771 C   0  0  0  0  0  0  0  0  0  0  0  0
    7.9369   12.2154   25.1977 C   0  0  0  0  0  0  0  0  0  0  0  0
    8.0868   13.1728   26.2990 N   0  0  0  0  0  0  0  0  0  0  0  0
    9.5065   14.0818   26.4646 S   0  0  0  0  0  0  0  0  0  0  0  0
    9.3537   14.7863   27.7142 O   0  0  0  0  0  0  0  0  0  0  0  0
    9.7406   14.8377   25.2645 O   0  0  0  0  0  0  0  0  0  0  0  0
   10.7966   12.9762   26.6718 N   0  0  0  0  0  0  0  0  0  0  0  0
   11.9045   13.6765   27.4000 C   0  0  0  0  0  0  0  0  0  0  0  0
   13.1664   12.8268   27.5503 C   0  0  0  0  0  0  0  0  0  0  0  0
   13.6988   12.2766   26.2515 C   0  0  0  0  0  0  0  0  0  0  0  0
   12.7227   12.5247   25.1312 C   0  0  0  0  0  0  0  0  0  0  0  0
   11.2659   12.2523   25.4632 C   0  0  0  0  0  0  0  0  0  0  0  0
    6.8581   14.0364   26.3508 C   0  0  0  0  0  0  0  0  0  0  0  0
    6.7515   14.9113   25.0986 C   0  0  0  0  0  0  0  0  0  0  0  0
    9.0128   15.3788   20.1467 C   0  0  0  0  0  0  0  0  0  0  0  0
    9.2438   16.7011   19.5450 O   0  0  0  0  0  0  0  0  0  0  0  0
    8.9502   17.2994   20.8547 C   0  0  0  0  0  0  0  0  0  0  0  0
   11.5635   15.0681   22.9980 S   0  0  0  0  0  0  0  0  0  0  0  0
  1  2  1  0
  2  3  2  0
  3  4  1  0
  4  5  2  0
  5  6  1  0
  6  7  1  0
  7  8  1  0
  8  9  2  0
  8 10  1  0
 10 11  1  0
 11 12  1  0
 12 13  1  0
 13 14  1  0
 14 15  2  0
 14 16  2  0
 14 17  1  0
 17 18  1  0
 18 19  1  0
 19 20  1  0
 20 21  1  0
 21 22  1  0
 13 23  1  0
 23 24  1  0
  6 25  1  0
 25 26  1  0
 26 27  1  0
  5 28  1  0
 28  2  1  0
 27  6  1  0
 24 10  1  0
 22 17  1  0
M  END
>  <energy_score>  (4312) 
-23.059305

>  <inchikey>  (4312) 
UCFKQNGJLOZJNT-UHFFFAOYSA-N

>  <smiles>  (4312) 
Nc1ncc(C2(OC(=O)C3CCN(S(=O)(=O)N4CCCCC4)CC3)COC2)s1

>  <ref_pdb>  (4312) 
A0875a

>  <alias>  (4312) 
UCFKQNGJLOZJNT-UHFFFAOYSA-N-P439-P87-P439-601505

>  <HIPPO Pose ID>  (4312) 
508297

>  <name>  (4312) 
UCFKQNGJLOZJNT-UHFFFAOYSA-N-P439-P87-P439-601505

>  <HIPPO Compound ID>  (4312) 
314684

>  <ref_mols>  (4312) 
A4706a,A0875a

>  <distance_score>  (4312) 
1.854192

>  <inspiration_score>  (4312) 
None

$$$$
STNVEBFLBPKSHQ-UHFFFAOYSA-N-P439-P87-P439-601505
     RDKit          3D

 28 31  0  0  0  0  0  0  0  0999 V2000
    5.5563   15.9230   22.7560 O   0  0  0  0  0  0  0  0  0  0  0  0
    6.3317   15.5142   23.6136 C   0  0  0  0  0  0  0  0  0  0  0  0
    7.6911   15.4624   23.4777 O   0  0  0  0  0  0  0  0  0  0  0  0
    8.2191   15.6670   22.1441 C   0  0  2  0  0  0  0  0  0  0  0  0
    7.7273   14.5188   21.2894 C   0  0  0  0  0  0  0  0  0  0  0  0
    8.0612   14.6679   19.9337 O   0  0  0  0  0  0  0  0  0  0  0  0
    9.2447   15.3392   19.5315 C   0  0  0  0  0  0  0  0  0  0  0  0
   10.2025   15.3173   20.6206 C   0  0  0  0  0  0  0  0  0  0  0  0
   11.5197   15.2091   20.2510 C   0  0  0  0  0  0  0  0  0  0  0  0
   12.4263   15.3562   21.2370 C   0  0  0  0  0  0  0  0  0  0  0  0
   12.0260   15.4002   22.5454 C   0  0  0  0  0  0  0  0  0  0  0  0
   10.7048   15.5961   22.9008 C   0  0  0  0  0  0  0  0  0  0  0  0
    9.7403   15.5454   21.9360 C   0  0  0  0  0  0  0  0  0  0  0  0
    5.8140   14.8994   24.9237 C   0  0  0  0  0  0  0  0  0  0  0  0
    5.6677   13.3620   24.7762 C   0  0  0  0  0  0  0  0  0  0  0  0
    6.4037   12.4878   25.7936 C   0  0  0  0  0  0  0  0  0  0  0  0
    7.5895   13.1876   26.3212 N   0  0  0  0  0  0  0  0  0  0  0  0
    8.8460   13.4080   25.2209 S   0  0  0  0  0  0  0  0  0  0  0  0
    9.3286   14.7562   25.3715 O   0  0  0  0  0  0  0  0  0  0  0  0
    8.4357   12.8227   23.9701 O   0  0  0  0  0  0  0  0  0  0  0  0
   10.0213   12.4205   25.8763 N   0  0  0  0  0  0  0  0  0  0  0  0
   10.8308   11.6902   24.8785 C   0  0  0  0  0  0  0  0  0  0  0  0
   11.9179   12.6184   24.3869 C   0  0  0  0  0  0  0  0  0  0  0  0
   12.8505   12.9536   25.5186 C   0  0  0  0  0  0  0  0  0  0  0  0
   12.0445   13.8115   26.4734 C   0  0  0  0  0  0  0  0  0  0  0  0
   10.8171   13.0825   26.9245 C   0  0  0  0  0  0  0  0  0  0  0  0
    7.1672   14.3842   27.0760 C   0  0  0  0  0  0  0  0  0  0  0  0
    6.5446   15.4321   26.1621 C   0  0  0  0  0  0  0  0  0  0  0  0
  1  2  2  0
  2  3  1  0
  4  3  1  1
  4  5  1  0
  5  6  1  0
  6  7  1  0
  7  8  1  0
  8  9  2  0
  9 10  1  0
 10 11  2  0
 11 12  1  0
 12 13  2  0
  2 14  1  0
 14 15  1  0
 15 16  1  0
 16 17  1  0
 17 18  1  0
 18 19  2  0
 18 20  2  0
 18 21  1  0
 21 22  1  0
 22 23  1  0
 23 24  1  0
 24 25  1  0
 25 26  1  0
 17 27  1  0
 27 28  1  0
 13  4  1  0
 28 14  1  0
 13  8  1  0
 26 21  1  0
M  END
>  <energy_score>  (4313) 
-17.780435

>  <inchikey>  (4313) 
STNVEBFLBPKSHQ-UHFFFAOYSA-N

>  <smiles>  (4313) 
O=C(OC1COCc2ccccc21)C1CCN(S(=O)(=O)N2CCCCC2)CC1

>  <ref_pdb>  (4313) 
A0875a

>  <alias>  (4313) 
STNVEBFLBPKSHQ-UHFFFAOYSA-N-P439-P87-P439-601505

>  <HIPPO Pose ID>  (4313) 
508305

>  <name>  (4313) 
STNVEBFLBPKSHQ-UHFFFAOYSA-N-P439-P87-P439-601505

>  <HIPPO Compound ID>  (4313) 
314688

>  <ref_mols>  (4313) 
A4706a,A0875a

>  <distance_score>  (4313) 
1.984068

>  <inspiration_score>  (4313) 
None

$$$$
JRQLWJPFNWXMCT-UHFFFAOYSA-N-P439-P87-P439-601505
     RDKit          3D

 28 31  0  0  0  0  0  0  0  0999 V2000
    4.9125   14.9780   21.4541 C   0  0  0  0  0  0  0  0  0  0  0  0
    6.0931   15.1716   21.5965 C   0  0  0  0  0  0  0  0  0  0  0  0
    7.5246   15.2387   22.0092 C   0  0  2  0  0  0  0  0  0  0  0  0
    7.4066   15.0129   23.4262 O   0  0  0  0  0  0  0  0  0  0  0  0
    6.8258   13.8291   23.7569 C   0  0  0  0  0  0  0  0  0  0  0  0
    6.8676   12.8081   23.0722 O   0  0  0  0  0  0  0  0  0  0  0  0
    5.9980   13.8900   25.0311 C   0  0  0  0  0  0  0  0  0  0  0  0
    6.1234   12.5279   25.7212 C   0  0  0  0  0  0  0  0  0  0  0  0
    7.5804   12.2947   26.0969 C   0  0  0  0  0  0  0  0  0  0  0  0
    8.1890   13.5076   26.6942 N   0  0  0  0  0  0  0  0  0  0  0  0
    9.6071   14.1650   26.0625 S   0  0  0  0  0  0  0  0  0  0  0  0
    9.5194   14.3345   24.6433 O   0  0  0  0  0  0  0  0  0  0  0  0
    9.9536   15.2858   26.9011 O   0  0  0  0  0  0  0  0  0  0  0  0
   10.7028   12.9328   26.3515 N   0  0  0  0  0  0  0  0  0  0  0  0
   10.6455   11.7736   25.4251 C   0  0  0  0  0  0  0  0  0  0  0  0
   11.9925   11.0941   25.4388 C   0  0  0  0  0  0  0  0  0  0  0  0
   12.9747   12.0021   24.7858 C   0  0  0  0  0  0  0  0  0  0  0  0
   13.0494   13.2763   25.5661 C   0  0  0  0  0  0  0  0  0  0  0  0
   12.0643   13.3873   26.7245 C   0  0  0  0  0  0  0  0  0  0  0  0
    7.1993   14.4989   27.1727 C   0  0  0  0  0  0  0  0  0  0  0  0
    6.3701   15.0139   26.0050 C   0  0  0  0  0  0  0  0  0  0  0  0
    8.2337   16.5665   21.7434 C   0  0  0  0  0  0  0  0  0  0  0  0
    9.7773   16.4172   21.9723 C   0  0  0  0  0  0  0  0  0  0  0  0
   10.4423   15.1639   21.4063 C   0  0  2  0  0  0  0  0  0  0  0  0
   10.1793   15.0463   19.9346 C   0  0  0  0  0  0  0  0  0  0  0  0
    8.7747   14.7833   19.9379 O   0  0  0  0  0  0  0  0  0  0  0  0
    8.4527   14.2529   21.2469 C   0  0  1  0  0  0  0  0  0  0  0  0
    9.7044   14.0556   21.9129 O   0  0  0  0  0  0  0  0  0  0  0  0
  1  2  3  0
  3  2  1  6
  3  4  1  0
  4  5  1  0
  5  6  2  0
  5  7  1  0
  7  8  1  0
  8  9  1  0
  9 10  1  0
 10 11  1  0
 11 12  2  0
 11 13  2  0
 11 14  1  0
 14 15  1  0
 15 16  1  0
 16 17  1  0
 17 18  1  0
 18 19  1  0
 10 20  1  0
 20 21  1  0
  3 22  1  0
 22 23  1  0
 24 23  1  1
 24 25  1  0
 25 26  1  0
 27 26  1  6
 27 28  1  0
 27  3  1  0
 21  7  1  0
 28 24  1  0
 19 14  1  0
M  END
>  <energy_score>  (4314) 
-30.343496

>  <inchikey>  (4314) 
JRQLWJPFNWXMCT-UHFFFAOYSA-N

>  <smiles>  (4314) 
C#CC1(OC(=O)C2CCN(S(=O)(=O)N3CCCCC3)CC2)CCC2COC1O2

>  <ref_pdb>  (4314) 
A0875a

>  <alias>  (4314) 
JRQLWJPFNWXMCT-UHFFFAOYSA-N-P439-P87-P439-601505

>  <HIPPO Pose ID>  (4314) 
508307

>  <name>  (4314) 
JRQLWJPFNWXMCT-UHFFFAOYSA-N-P439-P87-P439-601505

>  <HIPPO Compound ID>  (4314) 
314689

>  <ref_mols>  (4314) 
A4706a,A0875a

>  <distance_score>  (4314) 
1.54595

>  <inspiration_score>  (4314) 
None

$$$$
BXLZOHUUEXCDAL-UHFFFAOYSA-N-P87-P87-P439-601505
     RDKit          3D

 28 30  0  0  0  0  0  0  0  0999 V2000
   19.8248   14.8241   26.7093 C   0  0  0  0  0  0  0  0  0  0  0  0
   18.6422   13.9836   27.1546 C   0  0  0  0  0  0  0  0  0  0  0  0
   19.1154   13.0399   28.1093 O   0  0  0  0  0  0  0  0  0  0  0  0
   18.1445   12.1693   28.7374 C   0  0  2  0  0  0  0  0  0  0  0  0
   17.4298   11.2724   27.6979 C   0  0  0  0  0  0  0  0  0  0  0  0
   16.4016   12.0051   27.0039 O   0  0  0  0  0  0  0  0  0  0  0  0
   15.5923   11.2508   26.2189 C   0  0  0  0  0  0  0  0  0  0  0  0
   15.7060   10.0464   26.0362 O   0  0  0  0  0  0  0  0  0  0  0  0
   14.4594   12.0899   25.6525 C   0  0  0  0  0  0  0  0  0  0  0  0
   13.6065   12.6043   26.7715 C   0  0  0  0  0  0  0  0  0  0  0  0
   12.2636   13.2119   26.3500 C   0  0  0  0  0  0  0  0  0  0  0  0
   11.8927   13.0277   24.9334 N   0  0  0  0  0  0  0  0  0  0  0  0
   10.3077   13.5693   24.6092 S   0  0  0  0  0  0  0  0  0  0  0  0
   10.3361   14.9747   24.8325 O   0  0  0  0  0  0  0  0  0  0  0  0
    9.3912   12.7347   25.3542 O   0  0  0  0  0  0  0  0  0  0  0  0
   10.0340   13.3588   22.9647 N   0  0  0  0  0  0  0  0  0  0  0  0
   11.1089   13.8319   22.0362 C   0  0  0  0  0  0  0  0  0  0  0  0
   11.2417   15.3388   21.9829 C   0  0  0  0  0  0  0  0  0  0  0  0
    9.8958   16.0422   22.0309 C   0  0  0  0  0  0  0  0  0  0  0  0
    8.7969   15.1047   21.6104 C   0  0  0  0  0  0  0  0  0  0  0  0
    8.6957   13.9328   22.5675 C   0  0  0  0  0  0  0  0  0  0  0  0
   12.1005   11.6578   24.5528 C   0  0  0  0  0  0  0  0  0  0  0  0
   13.5840   11.2711   24.7254 C   0  0  0  0  0  0  0  0  0  0  0  0
   17.1605   12.9797   29.6004 C   0  0  0  0  0  0  0  0  0  0  0  0
   17.8970   13.8037   30.6598 C   0  0  0  0  0  0  0  0  0  0  0  0
   19.1840   13.1304   31.1241 C   0  0  0  0  0  0  0  0  0  0  0  0
   19.0466   11.7161   31.0416 O   0  0  0  0  0  0  0  0  0  0  0  0
   18.9802   11.2512   29.6824 C   0  0  0  0  0  0  0  0  0  0  0  0
  1  2  1  0
  2  3  1  0
  3  4  1  0
  4  5  1  6
  5  6  1  0
  6  7  1  0
  7  8  2  0
  7  9  1  0
  9 10  1  0
 10 11  1  0
 11 12  1  0
 12 13  1  0
 13 14  2  0
 13 15  2  0
 13 16  1  0
 16 17  1  0
 17 18  1  0
 18 19  1  0
 19 20  1  0
 20 21  1  0
 12 22  1  0
 22 23  1  0
  4 24  1  0
 24 25  1  0
 25 26  1  0
 26 27  1  0
 27 28  1  0
 28  4  1  0
 23  9  1  0
 21 16  1  0
M  END
>  <energy_score>  (4315) 
-63.659607

>  <inchikey>  (4315) 
BXLZOHUUEXCDAL-UHFFFAOYSA-N

>  <smiles>  (4315) 
CCOC1(COC(=O)C2CCN(S(=O)(=O)N3CCCCC3)CC2)CCCOC1

>  <ref_pdb>  (4315) 
A0875a

>  <alias>  (4315) 
BXLZOHUUEXCDAL-UHFFFAOYSA-N-P87-P87-P439-601505

>  <HIPPO Pose ID>  (4315) 
508316

>  <name>  (4315) 
BXLZOHUUEXCDAL-UHFFFAOYSA-N-P87-P87-P439-601505

>  <HIPPO Compound ID>  (4315) 
314694

>  <ref_mols>  (4315) 
A4706a,A0875a

>  <distance_score>  (4315) 
1.841649

>  <inspiration_score>  (4315) 
None

$$$$
BCJPSRJYNJCDQX-UHFFFAOYSA-N-P439-P87-P439-601505
     RDKit          3D

 28 31  0  0  0  0  0  0  0  0999 V2000
   11.1166   15.4035   18.1634 N   0  0  0  0  0  0  0  0  0  0  0  0
   11.0628   15.1242   19.4627 C   0  0  0  0  0  0  0  0  0  0  0  0
   11.9932   14.4057   20.2011 C   0  0  0  0  0  0  0  0  0  0  0  0
   11.5779   14.1020   21.4368 N   0  0  0  0  0  0  0  0  0  0  0  0
   10.3552   14.6471   21.4250 N   0  0  0  0  0  0  0  0  0  0  0  0
   10.1127   15.4720   20.3643 C   0  0  0  0  0  0  0  0  0  0  0  0
    9.0602   16.2756   20.3193 O   0  0  0  0  0  0  0  0  0  0  0  0
    8.3366   16.3140   21.5507 C   0  0  0  0  0  0  0  0  0  0  0  0
    7.9731   14.8925   21.9468 C   0  0  2  0  0  0  0  0  0  0  0  0
    7.1412   14.8577   23.1134 O   0  0  0  0  0  0  0  0  0  0  0  0
    6.5120   13.6706   23.2559 C   0  0  0  0  0  0  0  0  0  0  0  0
    6.3510   12.8874   22.3272 O   0  0  0  0  0  0  0  0  0  0  0  0
    6.1104   13.3130   24.6716 C   0  0  0  0  0  0  0  0  0  0  0  0
    7.0601   12.2099   25.1955 C   0  0  0  0  0  0  0  0  0  0  0  0
    8.2129   12.7561   26.0503 C   0  0  0  0  0  0  0  0  0  0  0  0
    8.5550   14.0873   25.5497 N   0  0  0  0  0  0  0  0  0  0  0  0
   10.0611   14.8120   25.7688 S   0  0  0  0  0  0  0  0  0  0  0  0
   10.3270   15.5819   24.5837 O   0  0  0  0  0  0  0  0  0  0  0  0
    9.9810   15.4535   27.0575 O   0  0  0  0  0  0  0  0  0  0  0  0
   11.2212   13.6449   25.8574 N   0  0  0  0  0  0  0  0  0  0  0  0
   11.8575   13.0681   24.6831 C   0  0  0  0  0  0  0  0  0  0  0  0
   12.7871   11.9255   25.0865 C   0  0  0  0  0  0  0  0  0  0  0  0
   13.7834   12.3061   26.1346 C   0  0  0  0  0  0  0  0  0  0  0  0
   13.0516   12.7717   27.3606 C   0  0  0  0  0  0  0  0  0  0  0  0
   11.5957   13.1786   27.1639 C   0  0  0  0  0  0  0  0  0  0  0  0
    7.4572   15.0697   25.8970 C   0  0  0  0  0  0  0  0  0  0  0  0
    6.0726   14.5006   25.6160 C   0  0  0  0  0  0  0  0  0  0  0  0
    9.2733   14.1214   22.2051 C   0  0  0  0  0  0  0  0  0  0  0  0
  1  2  1  0
  2  3  1  0
  3  4  2  0
  4  5  1  0
  5  6  1  0
  6  7  1  0
  7  8  1  0
  8  9  1  0
  9 10  1  1
 10 11  1  0
 11 12  2  0
 11 13  1  0
 13 14  1  0
 14 15  1  0
 15 16  1  0
 16 17  1  0
 17 18  2  0
 17 19  2  0
 17 20  1  0
 20 21  1  0
 21 22  1  0
 22 23  1  0
 23 24  1  0
 24 25  1  0
 16 26  1  0
 26 27  1  0
  9 28  1  0
  6  2  2  0
 27 13  1  0
 28  5  1  0
 25 20  1  0
M  END
>  <energy_score>  (4316) 
-45.841129

>  <inchikey>  (4316) 
BCJPSRJYNJCDQX-UHFFFAOYSA-N

>  <smiles>  (4316) 
Nc1cnn2c1OCC(OC(=O)C1CCN(S(=O)(=O)N3CCCCC3)CC1)C2

>  <ref_pdb>  (4316) 
A0875a

>  <alias>  (4316) 
BCJPSRJYNJCDQX-UHFFFAOYSA-N-P439-P87-P439-601505

>  <HIPPO Pose ID>  (4316) 
508327

>  <name>  (4316) 
BCJPSRJYNJCDQX-UHFFFAOYSA-N-P439-P87-P439-601505

>  <HIPPO Compound ID>  (4316) 
314699

>  <ref_mols>  (4316) 
A4706a,A0875a

>  <distance_score>  (4316) 
1.984087

>  <inspiration_score>  (4316) 
None

$$$$
GUGSFJZVPQAKCQ-UHFFFAOYSA-M-P439-P87-P439-601505
     RDKit          3D

 28 30  0  0  0  0  0  0  0  0999 V2000
   10.7189   15.8062   22.1813 C   0  0  0  0  0  0  0  0  0  0  0  0
    9.4365   15.9981   21.3600 C   0  0  0  0  0  0  0  0  0  0  0  0
    9.1449   17.4942   21.1060 C   0  0  0  0  0  0  0  0  0  0  0  0
    9.8683   15.4452   19.9633 C   0  0  0  0  0  0  0  0  0  0  0  0
    9.6632   16.1711   18.9553 O   0  0  0  0  0  0  0  0  0  0  0  0
   10.3813   14.2996   19.9701 O   0  0  0  0  0  0  0  0  0  0  0  0
    8.1957   15.2870   22.0293 C   0  0  0  0  0  0  0  0  0  0  0  0
    8.4059   14.7916   23.3912 O   0  0  0  0  0  0  0  0  0  0  0  0
    7.6128   13.7439   23.7692 C   0  0  0  0  0  0  0  0  0  0  0  0
    7.7795   12.5894   23.3739 O   0  0  0  0  0  0  0  0  0  0  0  0
    6.4606   14.0685   24.7066 C   0  0  0  0  0  0  0  0  0  0  0  0
    6.1656   12.8074   25.5445 C   0  0  0  0  0  0  0  0  0  0  0  0
    7.2855   12.4935   26.5407 C   0  0  0  0  0  0  0  0  0  0  0  0
    8.0628   13.6966   26.8358 N   0  0  0  0  0  0  0  0  0  0  0  0
    9.6789   14.0025   26.6035 S   0  0  0  0  0  0  0  0  0  0  0  0
    9.8555   14.9060   25.4978 O   0  0  0  0  0  0  0  0  0  0  0  0
   10.1331   14.4459   27.9027 O   0  0  0  0  0  0  0  0  0  0  0  0
   10.5265   12.5735   26.3003 N   0  0  0  0  0  0  0  0  0  0  0  0
   12.0120   12.8000   26.4880 C   0  0  0  0  0  0  0  0  0  0  0  0
   12.8358   12.4873   25.2508 C   0  0  0  0  0  0  0  0  0  0  0  0
   12.1350   13.0678   24.0405 C   0  0  0  0  0  0  0  0  0  0  0  0
   10.7423   12.5219   23.8504 C   0  0  0  0  0  0  0  0  0  0  0  0
   10.2436   11.8016   25.0646 C   0  0  0  0  0  0  0  0  0  0  0  0
    7.2171   14.8935   26.9861 C   0  0  0  0  0  0  0  0  0  0  0  0
    6.6724   15.2816   25.6184 C   0  0  0  0  0  0  0  0  0  0  0  0
    7.4250   14.3483   21.1111 C   0  0  0  0  0  0  0  0  0  0  0  0
    6.1419   14.8688   21.5641 O   0  0  0  0  0  0  0  0  0  0  0  0
    6.8438   16.0529   22.0356 C   0  0  0  0  0  0  0  0  0  0  0  0
  1  2  1  0
  2  3  1  0
  2  4  1  0
  4  5  2  0
  4  6  1  0
  2  7  1  0
  7  8  1  0
  8  9  1  0
  9 10  2  0
  9 11  1  0
 11 12  1  0
 12 13  1  0
 13 14  1  0
 14 15  1  0
 15 16  2  0
 15 17  2  0
 15 18  1  0
 18 19  1  0
 19 20  1  0
 20 21  1  0
 21 22  1  0
 22 23  1  0
 14 24  1  0
 24 25  1  0
  7 26  1  0
 26 27  1  0
 27 28  1  0
 28  7  1  0
 25 11  1  0
 23 18  1  0
M  CHG  1   6  -1
M  END
>  <energy_score>  (4317) 
-41.361306

>  <inchikey>  (4317) 
GUGSFJZVPQAKCQ-UHFFFAOYSA-M

>  <smiles>  (4317) 
CC(C)(C(=O)[O-])C1(OC(=O)C2CCN(S(=O)(=O)N3CCCCC3)CC2)COC1

>  <ref_pdb>  (4317) 
A0875a

>  <alias>  (4317) 
GUGSFJZVPQAKCQ-UHFFFAOYSA-M-P439-P87-P439-601505

>  <HIPPO Pose ID>  (4317) 
508329

>  <name>  (4317) 
GUGSFJZVPQAKCQ-UHFFFAOYSA-M-P439-P87-P439-601505

>  <HIPPO Compound ID>  (4317) 
314700

>  <ref_mols>  (4317) 
A4706a,A0875a

>  <distance_score>  (4317) 
1.782906

>  <inspiration_score>  (4317) 
None

$$$$
CMOZOLMIUPYMPF-UHFFFAOYSA-N-P439-P87-P439-601505
     RDKit          3D

 28 31  0  0  0  0  0  0  0  0999 V2000
    6.5462   12.6072   23.4370 O   0  0  0  0  0  0  0  0  0  0  0  0
    6.5166   13.5463   24.2264 C   0  0  0  0  0  0  0  0  0  0  0  0
    7.0601   14.7652   23.9965 O   0  0  0  0  0  0  0  0  0  0  0  0
    7.1837   15.1170   22.5947 C   0  0  0  0  0  0  0  0  0  0  0  0
    8.7560   15.0918   21.9548 C   0  0  0  0  0  0  0  0  0  0  0  0
    9.0221   14.8737   20.5956 C   0  0  0  0  0  0  0  0  0  0  0  0
   10.3023   14.8693   20.0188 C   0  0  0  0  0  0  0  0  0  0  0  0
   11.4061   15.0651   20.8242 C   0  0  0  0  0  0  0  0  0  0  0  0
   11.2131   15.3362   22.1669 C   0  0  0  0  0  0  0  0  0  0  0  0
    9.9158   15.3943   22.6934 C   0  0  0  0  0  0  0  0  0  0  0  0
    6.5245   16.4876   22.3596 C   0  0  0  0  0  0  0  0  0  0  0  0
    5.3004   15.8981   21.8612 O   0  0  0  0  0  0  0  0  0  0  0  0
    5.9589   14.6230   21.7424 C   0  0  0  0  0  0  0  0  0  0  0  0
    5.8187   13.4719   25.5696 C   0  0  0  0  0  0  0  0  0  0  0  0
    6.0376   12.0663   26.1303 C   0  0  0  0  0  0  0  0  0  0  0  0
    7.5279   11.7711   26.2219 C   0  0  0  0  0  0  0  0  0  0  0  0
    8.2763   12.9601   26.6880 N   0  0  0  0  0  0  0  0  0  0  0  0
    9.5377   13.5648   25.7652 S   0  0  0  0  0  0  0  0  0  0  0  0
    9.9460   14.8220   26.3429 O   0  0  0  0  0  0  0  0  0  0  0  0
    9.1981   13.4377   24.3795 O   0  0  0  0  0  0  0  0  0  0  0  0
   10.7743   12.4274   26.0169 N   0  0  0  0  0  0  0  0  0  0  0  0
   12.1028   13.0979   26.0288 C   0  0  0  0  0  0  0  0  0  0  0  0
   13.1996   12.1067   26.3684 C   0  0  0  0  0  0  0  0  0  0  0  0
   13.1850   10.9423   25.3955 C   0  0  0  0  0  0  0  0  0  0  0  0
   11.7838   10.2945   25.2600 C   0  0  0  0  0  0  0  0  0  0  0  0
   10.7151   11.3372   24.9904 C   0  0  0  0  0  0  0  0  0  0  0  0
    7.4556   13.9515   27.4330 C   0  0  0  0  0  0  0  0  0  0  0  0
    6.3277   14.5066   26.5779 C   0  0  0  0  0  0  0  0  0  0  0  0
  1  2  2  0
  2  3  1  0
  3  4  1  0
  4  5  1  0
  5  6  2  0
  6  7  1  0
  7  8  2  0
  8  9  1  0
  9 10  2  0
  4 11  1  0
 11 12  1  0
 12 13  1  0
  2 14  1  0
 14 15  1  0
 15 16  1  0
 16 17  1  0
 17 18  1  0
 18 19  2  0
 18 20  2  0
 18 21  1  0
 21 22  1  0
 22 23  1  0
 23 24  1  0
 24 25  1  0
 25 26  1  0
 17 27  1  0
 27 28  1  0
 13  4  1  0
 28 14  1  0
 10  5  1  0
 26 21  1  0
M  END
>  <energy_score>  (4318) 
-70.184688

>  <inchikey>  (4318) 
CMOZOLMIUPYMPF-UHFFFAOYSA-N

>  <smiles>  (4318) 
O=C(OC1(c2ccccc2)COC1)C1CCN(S(=O)(=O)N2CCCCC2)CC1

>  <ref_pdb>  (4318) 
A0875a

>  <alias>  (4318) 
CMOZOLMIUPYMPF-UHFFFAOYSA-N-P439-P87-P439-601505

>  <HIPPO Pose ID>  (4318) 
508331

>  <name>  (4318) 
CMOZOLMIUPYMPF-UHFFFAOYSA-N-P439-P87-P439-601505

>  <HIPPO Compound ID>  (4318) 
314701

>  <ref_mols>  (4318) 
A4706a,A0875a

>  <distance_score>  (4318) 
1.605554

>  <inspiration_score>  (4318) 
None

$$$$
YRQRWFZEXDSXOU-UHFFFAOYSA-N-P87-P87-P439-601505
     RDKit          3D

 28 31  0  0  0  0  0  0  0  0999 V2000
    7.6455   13.9802   21.5717 O   0  0  0  0  0  0  0  0  0  0  0  0
    7.7660   14.1256   22.7839 C   0  0  0  0  0  0  0  0  0  0  0  0
    8.3259   15.1702   23.3916 O   0  0  0  0  0  0  0  0  0  0  0  0
    8.9373   16.1699   22.5128 C   0  0  0  0  0  0  0  0  0  0  0  0
   10.3212   15.7694   21.8127 C   0  0  0  0  0  0  0  0  0  0  0  0
   10.7298   14.5350   21.3361 C   0  0  0  0  0  0  0  0  0  0  0  0
   11.9932   14.3996   20.7637 C   0  0  0  0  0  0  0  0  0  0  0  0
   12.8301   15.4899   20.6456 C   0  0  0  0  0  0  0  0  0  0  0  0
   12.3613   16.6798   21.1120 C   0  0  0  0  0  0  0  0  0  0  0  0
   11.1488   16.8332   21.6684 N   0  0  0  0  0  0  0  0  0  0  0  0
    8.9039   17.5604   23.1732 C   0  0  0  0  0  0  0  0  0  0  0  0
    7.6875   17.9201   22.5464 O   0  0  0  0  0  0  0  0  0  0  0  0
    7.9310   16.8586   21.6196 C   0  0  0  0  0  0  0  0  0  0  0  0
    7.3539   13.0053   23.6956 C   0  0  0  0  0  0  0  0  0  0  0  0
    8.5214   11.9864   23.6626 C   0  0  0  0  0  0  0  0  0  0  0  0
    8.7695   11.3254   24.9713 C   0  0  0  0  0  0  0  0  0  0  0  0
    8.8294   12.4161   25.9134 N   0  0  0  0  0  0  0  0  0  0  0  0
   10.0906   13.5780   25.7407 S   0  0  0  0  0  0  0  0  0  0  0  0
   10.2134   14.1485   24.4360 O   0  0  0  0  0  0  0  0  0  0  0  0
   10.1329   14.4011   26.9309 O   0  0  0  0  0  0  0  0  0  0  0  0
   11.4037   12.4897   25.8724 N   0  0  0  0  0  0  0  0  0  0  0  0
   11.7954   11.8522   24.5974 C   0  0  0  0  0  0  0  0  0  0  0  0
   13.0237   12.5167   24.0508 C   0  0  0  0  0  0  0  0  0  0  0  0
   14.2025   12.1091   24.9256 C   0  0  0  0  0  0  0  0  0  0  0  0
   13.8451   12.3279   26.3948 C   0  0  0  0  0  0  0  0  0  0  0  0
   12.5574   13.1312   26.5313 C   0  0  0  0  0  0  0  0  0  0  0  0
    7.4425   12.7739   26.2516 C   0  0  0  0  0  0  0  0  0  0  0  0
    6.6379   13.1749   25.0324 C   0  0  0  0  0  0  0  0  0  0  0  0
  1  2  2  0
  2  3  1  0
  3  4  1  0
  4  5  1  0
  5  6  2  0
  6  7  1  0
  7  8  2  0
  8  9  1  0
  9 10  2  0
  4 11  1  0
 11 12  1  0
 12 13  1  0
  2 14  1  0
 14 15  1  0
 15 16  1  0
 16 17  1  0
 17 18  1  0
 18 19  2  0
 18 20  2  0
 18 21  1  0
 21 22  1  0
 22 23  1  0
 23 24  1  0
 24 25  1  0
 25 26  1  0
 17 27  1  0
 27 28  1  0
 13  4  1  0
 28 14  1  0
 10  5  1  0
 26 21  1  0
M  END
>  <energy_score>  (4319) 
-9.291489

>  <inchikey>  (4319) 
YRQRWFZEXDSXOU-UHFFFAOYSA-N

>  <smiles>  (4319) 
O=C(OC1(c2ccccn2)COC1)C1CCN(S(=O)(=O)N2CCCCC2)CC1

>  <ref_pdb>  (4319) 
A0875a

>  <alias>  (4319) 
YRQRWFZEXDSXOU-UHFFFAOYSA-N-P87-P87-P439-601505

>  <HIPPO Pose ID>  (4319) 
508332

>  <name>  (4319) 
YRQRWFZEXDSXOU-UHFFFAOYSA-N-P87-P87-P439-601505

>  <HIPPO Compound ID>  (4319) 
314702

>  <ref_mols>  (4319) 
A4706a,A0875a

>  <distance_score>  (4319) 
1.709234

>  <inspiration_score>  (4319) 
None

$$$$
AEJBVQFJAILRRI-UHFFFAOYSA-N-P87-P87-P439-601505
     RDKit          3D

 28 31  0  0  0  0  0  0  0  0999 V2000
    5.3925   15.1507   24.0347 O   0  0  0  0  0  0  0  0  0  0  0  0
    6.1058   14.1626   24.0903 C   0  0  0  0  0  0  0  0  0  0  0  0
    7.1350   13.8707   23.2745 O   0  0  0  0  0  0  0  0  0  0  0  0
    7.5666   14.7760   22.2446 C   0  0  0  0  0  0  0  0  0  0  0  0
    8.6012   15.8130   22.7204 C   0  0  2  0  0  0  0  0  0  0  0  0
    9.0755   16.6977   21.5884 C   0  0  0  0  0  0  0  0  0  0  0  0
    9.9032   15.9311   20.7082 O   0  0  0  0  0  0  0  0  0  0  0  0
   11.1037   15.3936   21.3186 C   0  0  0  0  0  0  0  0  0  0  0  0
   12.2655   16.3928   21.4933 C   0  0  0  0  0  0  0  0  0  0  0  0
   12.9920   15.7785   20.3141 C   0  0  0  0  0  0  0  0  0  0  0  0
   12.1253   14.5267   20.5276 C   0  0  0  0  0  0  0  0  0  0  0  0
   10.6568   14.5575   22.4926 C   0  0  0  0  0  0  0  0  0  0  0  0
    9.7764   15.2765   23.3540 O   0  0  0  0  0  0  0  0  0  0  0  0
    5.9239   13.1061   25.1715 C   0  0  0  0  0  0  0  0  0  0  0  0
    6.6107   11.7937   24.9163 C   0  0  0  0  0  0  0  0  0  0  0  0
    7.7251   11.2350   25.6817 C   0  0  0  0  0  0  0  0  0  0  0  0
    8.3681   12.3269   26.3030 N   0  0  0  0  0  0  0  0  0  0  0  0
    9.5679   13.0228   25.3478 S   0  0  0  0  0  0  0  0  0  0  0  0
    9.9781   14.2494   25.9564 O   0  0  0  0  0  0  0  0  0  0  0  0
    9.1752   12.7927   23.9889 O   0  0  0  0  0  0  0  0  0  0  0  0
   10.9344   12.0043   25.5490 N   0  0  0  0  0  0  0  0  0  0  0  0
   12.2072   12.8059   25.6575 C   0  0  0  0  0  0  0  0  0  0  0  0
   13.4312   11.9492   25.9536 C   0  0  0  0  0  0  0  0  0  0  0  0
   13.5390   10.7876   24.9940 C   0  0  0  0  0  0  0  0  0  0  0  0
   12.1959   10.0233   24.8045 C   0  0  0  0  0  0  0  0  0  0  0  0
   11.0491   10.9729   24.4852 C   0  0  0  0  0  0  0  0  0  0  0  0
    7.3795   12.9872   27.2350 C   0  0  0  0  0  0  0  0  0  0  0  0
    6.0474   13.4286   26.6281 C   0  0  0  0  0  0  0  0  0  0  0  0
  1  2  2  0
  2  3  1  0
  3  4  1  0
  5  4  1  6
  5  6  1  0
  6  7  1  0
  7  8  1  0
  8  9  1  0
  9 10  1  0
 10 11  1  0
  8 12  1  0
 12 13  1  0
  2 14  1  0
 14 15  1  0
 15 16  1  0
 16 17  1  0
 17 18  1  0
 18 19  2  0
 18 20  2  0
 18 21  1  0
 21 22  1  0
 22 23  1  0
 23 24  1  0
 24 25  1  0
 25 26  1  0
 17 27  1  0
 27 28  1  0
 13  5  1  0
 28 14  1  0
 11  8  1  0
 26 21  1  0
M  END
>  <energy_score>  (4320) 
-5.422142

>  <inchikey>  (4320) 
AEJBVQFJAILRRI-UHFFFAOYSA-N

>  <smiles>  (4320) 
O=C(OCC1COC2(CCC2)CO1)C1CCN(S(=O)(=O)N2CCCCC2)CC1

>  <ref_pdb>  (4320) 
A0875a

>  <alias>  (4320) 
AEJBVQFJAILRRI-UHFFFAOYSA-N-P87-P87-P439-601505

>  <HIPPO Pose ID>  (4320) 
508334

>  <name>  (4320) 
AEJBVQFJAILRRI-UHFFFAOYSA-N-P87-P87-P439-601505

>  <HIPPO Compound ID>  (4320) 
314703

>  <ref_mols>  (4320) 
A4706a,A0875a

>  <distance_score>  (4320) 
1.807386

>  <inspiration_score>  (4320) 
None

$$$$
AEJBVQFJAILRRI-UHFFFAOYSA-N-P439-P87-P439-601505
     RDKit          3D

 28 31  0  0  0  0  0  0  0  0999 V2000
    6.2548   12.7476   22.9973 O   0  0  0  0  0  0  0  0  0  0  0  0
    6.3655   13.8339   23.5514 C   0  0  0  0  0  0  0  0  0  0  0  0
    6.8594   14.9268   22.9250 O   0  0  0  0  0  0  0  0  0  0  0  0
    7.4971   14.6556   21.6506 C   0  0  0  0  0  0  0  0  0  0  0  0
    8.3687   15.8524   21.2486 C   0  0  2  0  0  0  0  0  0  0  0  0
    9.1904   15.6819   19.9296 C   0  0  0  0  0  0  0  0  0  0  0  0
   10.3766   14.9438   20.0503 O   0  0  0  0  0  0  0  0  0  0  0  0
   10.9217   15.0175   21.3619 C   0  0  0  0  0  0  0  0  0  0  0  0
   12.3843   14.7839   21.4584 C   0  0  0  0  0  0  0  0  0  0  0  0
   12.0826   13.9619   22.7368 C   0  0  0  0  0  0  0  0  0  0  0  0
   10.6847   13.7805   22.2129 C   0  0  0  0  0  0  0  0  0  0  0  0
   10.5356   16.2653   22.0964 C   0  0  0  0  0  0  0  0  0  0  0  0
    9.1670   16.1568   22.3857 O   0  0  0  0  0  0  0  0  0  0  0  0
    5.8801   14.1109   24.9739 C   0  0  0  0  0  0  0  0  0  0  0  0
    5.7734   12.8127   25.7990 C   0  0  0  0  0  0  0  0  0  0  0  0
    7.0640   12.2919   26.4426 C   0  0  0  0  0  0  0  0  0  0  0  0
    8.1056   13.3486   26.5697 N   0  0  0  0  0  0  0  0  0  0  0  0
    9.2810   13.3578   25.3691 S   0  0  0  0  0  0  0  0  0  0  0  0
    9.6496   14.7193   25.0713 O   0  0  0  0  0  0  0  0  0  0  0  0
    8.8163   12.4369   24.3587 O   0  0  0  0  0  0  0  0  0  0  0  0
   10.6501   12.6254   26.1185 N   0  0  0  0  0  0  0  0  0  0  0  0
   11.4909   13.5987   26.8584 C   0  0  0  0  0  0  0  0  0  0  0  0
   12.8242   12.9981   27.2890 C   0  0  0  0  0  0  0  0  0  0  0  0
   13.6250   12.5775   26.0896 C   0  0  0  0  0  0  0  0  0  0  0  0
   12.8624   11.5558   25.3119 C   0  0  0  0  0  0  0  0  0  0  0  0
   11.3570   11.7549   25.1473 C   0  0  0  0  0  0  0  0  0  0  0  0
    7.5011   14.6585   26.8974 C   0  0  0  0  0  0  0  0  0  0  0  0
    6.6635   15.1920   25.7353 C   0  0  0  0  0  0  0  0  0  0  0  0
  1  2  2  0
  2  3  1  0
  3  4  1  0
  5  4  1  1
  5  6  1  0
  6  7  1  0
  7  8  1  0
  8  9  1  0
  9 10  1  0
 10 11  1  0
  8 12  1  0
 12 13  1  0
  2 14  1  0
 14 15  1  0
 15 16  1  0
 16 17  1  0
 17 18  1  0
 18 19  2  0
 18 20  2  0
 18 21  1  0
 21 22  1  0
 22 23  1  0
 23 24  1  0
 24 25  1  0
 25 26  1  0
 17 27  1  0
 27 28  1  0
 13  5  1  0
 28 14  1  0
 11  8  1  0
 26 21  1  0
M  END
>  <energy_score>  (4321) 
-35.250461

>  <inchikey>  (4321) 
AEJBVQFJAILRRI-UHFFFAOYSA-N

>  <smiles>  (4321) 
O=C(OCC1COC2(CCC2)CO1)C1CCN(S(=O)(=O)N2CCCCC2)CC1

>  <ref_pdb>  (4321) 
A0875a

>  <alias>  (4321) 
AEJBVQFJAILRRI-UHFFFAOYSA-N-P439-P87-P439-601505

>  <HIPPO Pose ID>  (4321) 
508335

>  <name>  (4321) 
AEJBVQFJAILRRI-UHFFFAOYSA-N-P439-P87-P439-601505

>  <HIPPO Compound ID>  (4321) 
314703

>  <ref_mols>  (4321) 
A4706a,A0875a

>  <distance_score>  (4321) 
1.800644

>  <inspiration_score>  (4321) 
None

$$$$
MSFNVCUKNCJSIY-UHFFFAOYSA-N-P87-P87-P439-601505
     RDKit          3D

 28 31  0  0  0  0  0  0  0  0999 V2000
    4.6604   14.2203   24.0293 O   0  0  0  0  0  0  0  0  0  0  0  0
    5.7810   13.8128   23.7787 C   0  0  0  0  0  0  0  0  0  0  0  0
    6.4422   13.8847   22.6018 O   0  0  0  0  0  0  0  0  0  0  0  0
    6.9031   15.2159   22.4898 C   0  0  0  0  0  0  0  0  0  0  0  0
    8.3996   15.4304   22.4030 C   0  0  2  0  0  0  0  0  0  0  0  0
    8.7253   16.8264   21.8039 C   0  0  0  0  0  0  0  0  0  0  0  0
   10.0868   17.0238   21.3902 O   0  0  0  0  0  0  0  0  0  0  0  0
   10.8749   15.9227   21.7662 C   0  0  2  0  0  0  0  0  0  0  0  0
   12.3031   15.8504   21.2464 C   0  0  0  0  0  0  0  0  0  0  0  0
   12.6136   14.3969   21.2286 N   0  0  0  0  0  0  0  0  0  0  0  0
   11.4373   13.7503   21.8217 C   0  0  0  0  0  0  0  0  0  0  0  0
   10.3006   14.5999   21.3087 C   0  0  1  0  0  0  0  0  0  0  0  0
    8.9992   14.3036   21.7655 O   0  0  0  0  0  0  0  0  0  0  0  0
    6.7407   13.2254   24.7383 C   0  0  0  0  0  0  0  0  0  0  0  0
    7.4320   11.9593   24.3172 C   0  0  0  0  0  0  0  0  0  0  0  0
    8.0869   11.2142   25.4076 C   0  0  0  0  0  0  0  0  0  0  0  0
    8.5889   12.2508   26.2580 N   0  0  0  0  0  0  0  0  0  0  0  0
    9.8973   13.2479   25.6448 S   0  0  0  0  0  0  0  0  0  0  0  0
    9.6957   13.5999   24.2764 O   0  0  0  0  0  0  0  0  0  0  0  0
   10.2120   14.2480   26.6427 O   0  0  0  0  0  0  0  0  0  0  0  0
   11.1989   12.1480   25.6405 N   0  0  0  0  0  0  0  0  0  0  0  0
   12.5131   12.8487   25.7569 C   0  0  0  0  0  0  0  0  0  0  0  0
   13.6595   11.8782   26.0265 C   0  0  0  0  0  0  0  0  0  0  0  0
   13.6676   10.7295   25.0303 C   0  0  0  0  0  0  0  0  0  0  0  0
   12.2608   10.0969   24.8227 C   0  0  0  0  0  0  0  0  0  0  0  0
   11.2573   11.2063   24.4977 C   0  0  0  0  0  0  0  0  0  0  0  0
    7.3836   12.8064   27.0304 C   0  0  0  0  0  0  0  0  0  0  0  0
    6.2149   13.1624   26.1388 C   0  0  0  0  0  0  0  0  0  0  0  0
  1  2  2  0
  2  3  1  0
  3  4  1  0
  5  4  1  6
  5  6  1  0
  6  7  1  0
  7  8  1  0
  8  9  1  6
  9 10  1  0
 10 11  1  0
 12 11  1  1
 12 13  1  0
  2 14  1  0
 14 15  1  0
 15 16  1  0
 16 17  1  0
 17 18  1  0
 18 19  2  0
 18 20  2  0
 18 21  1  0
 21 22  1  0
 22 23  1  0
 23 24  1  0
 24 25  1  0
 25 26  1  0
 17 27  1  0
 27 28  1  0
 13  5  1  0
 28 14  1  0
 12  8  1  0
 26 21  1  0
M  END
>  <energy_score>  (4322) 
-8.50077

>  <inchikey>  (4322) 
MSFNVCUKNCJSIY-UHFFFAOYSA-N

>  <smiles>  (4322) 
O=C(OCC1COC2CNCC2O1)C1CCN(S(=O)(=O)N2CCCCC2)CC1

>  <ref_pdb>  (4322) 
A0875a

>  <alias>  (4322) 
MSFNVCUKNCJSIY-UHFFFAOYSA-N-P87-P87-P439-601505

>  <HIPPO Pose ID>  (4322) 
508338

>  <name>  (4322) 
MSFNVCUKNCJSIY-UHFFFAOYSA-N-P87-P87-P439-601505

>  <HIPPO Compound ID>  (4322) 
314705

>  <ref_mols>  (4322) 
A4706a,A0875a

>  <distance_score>  (4322) 
1.996327

>  <inspiration_score>  (4322) 
None

$$$$
MSFNVCUKNCJSIY-UHFFFAOYSA-N-P439-P87-P439-601505
     RDKit          3D

 28 31  0  0  0  0  0  0  0  0999 V2000
    6.3020   12.8301   22.8740 O   0  0  0  0  0  0  0  0  0  0  0  0
    6.3950   13.7980   23.6246 C   0  0  0  0  0  0  0  0  0  0  0  0
    6.9620   14.9728   23.2581 O   0  0  0  0  0  0  0  0  0  0  0  0
    7.5926   14.9235   21.9647 C   0  0  0  0  0  0  0  0  0  0  0  0
    8.7306   15.9413   21.8429 C   0  0  2  0  0  0  0  0  0  0  0  0
    9.2533   16.0245   20.4227 C   0  0  0  0  0  0  0  0  0  0  0  0
   10.5960   16.3571   20.2917 O   0  0  0  0  0  0  0  0  0  0  0  0
   11.4900   15.6176   21.0714 C   0  0  2  0  0  0  0  0  0  0  0  0
   11.8176   14.3536   20.3202 C   0  0  0  0  0  0  0  0  0  0  0  0
   11.9284   13.3485   21.3635 N   0  0  0  0  0  0  0  0  0  0  0  0
   10.9409   13.6978   22.3475 C   0  0  0  0  0  0  0  0  0  0  0  0
   10.9594   15.1971   22.4252 C   0  0  2  0  0  0  0  0  0  0  0  0
    9.7275   15.7372   22.8377 O   0  0  0  0  0  0  0  0  0  0  0  0
    5.8338   13.7902   25.0423 C   0  0  0  0  0  0  0  0  0  0  0  0
    6.0005   12.3902   25.6638 C   0  0  0  0  0  0  0  0  0  0  0  0
    7.4260   12.0517   26.0973 C   0  0  0  0  0  0  0  0  0  0  0  0
    8.1346   13.2415   26.6312 N   0  0  0  0  0  0  0  0  0  0  0  0
    9.4030   13.8405   25.6846 S   0  0  0  0  0  0  0  0  0  0  0  0
    9.0808   13.5001   24.3276 O   0  0  0  0  0  0  0  0  0  0  0  0
    9.6629   15.1885   26.1208 O   0  0  0  0  0  0  0  0  0  0  0  0
   10.6932   12.8688   26.2117 N   0  0  0  0  0  0  0  0  0  0  0  0
   11.7009   13.6308   26.9744 C   0  0  0  0  0  0  0  0  0  0  0  0
   12.9489   12.8385   27.3141 C   0  0  0  0  0  0  0  0  0  0  0  0
   13.6257   12.3479   26.0744 C   0  0  0  0  0  0  0  0  0  0  0  0
   12.6499   11.6644   25.1572 C   0  0  0  0  0  0  0  0  0  0  0  0
   11.1349   11.7750   25.3411 C   0  0  0  0  0  0  0  0  0  0  0  0
    7.2024   14.2809   27.1368 C   0  0  0  0  0  0  0  0  0  0  0  0
    6.3801   14.8678   25.9921 C   0  0  0  0  0  0  0  0  0  0  0  0
  1  2  2  0
  2  3  1  0
  3  4  1  0
  5  4  1  6
  5  6  1  0
  6  7  1  0
  7  8  1  0
  8  9  1  6
  9 10  1  0
 10 11  1  0
 12 11  1  6
 12 13  1  0
  2 14  1  0
 14 15  1  0
 15 16  1  0
 16 17  1  0
 17 18  1  0
 18 19  2  0
 18 20  2  0
 18 21  1  0
 21 22  1  0
 22 23  1  0
 23 24  1  0
 24 25  1  0
 25 26  1  0
 17 27  1  0
 27 28  1  0
 13  5  1  0
 28 14  1  0
 12  8  1  0
 26 21  1  0
M  END
>  <energy_score>  (4323) 
-38.133312

>  <inchikey>  (4323) 
MSFNVCUKNCJSIY-UHFFFAOYSA-N

>  <smiles>  (4323) 
O=C(OCC1COC2CNCC2O1)C1CCN(S(=O)(=O)N2CCCCC2)CC1

>  <ref_pdb>  (4323) 
A0875a

>  <alias>  (4323) 
MSFNVCUKNCJSIY-UHFFFAOYSA-N-P439-P87-P439-601505

>  <HIPPO Pose ID>  (4323) 
508339

>  <name>  (4323) 
MSFNVCUKNCJSIY-UHFFFAOYSA-N-P439-P87-P439-601505

>  <HIPPO Compound ID>  (4323) 
314705

>  <ref_mols>  (4323) 
A4706a,A0875a

>  <distance_score>  (4323) 
1.669525

>  <inspiration_score>  (4323) 
None

$$$$
IVNFOWUBEVYFRK-UHFFFAOYSA-N-P439-P87-P439-601505
     RDKit          3D

 28 31  0  0  0  0  0  0  0  0999 V2000
    6.1491   13.3991   22.3742 O   0  0  0  0  0  0  0  0  0  0  0  0
    6.4650   13.9792   23.4075 C   0  0  0  0  0  0  0  0  0  0  0  0
    7.0514   15.1901   23.4813 O   0  0  0  0  0  0  0  0  0  0  0  0
    7.1156   16.0073   22.3156 C   0  0  0  0  0  0  0  0  0  0  0  0
    8.4411   15.9385   21.5326 C   0  0  2  0  0  0  0  0  0  0  0  0
    8.4352   14.8115   20.5158 C   0  0  0  0  0  0  0  0  0  0  0  0
    9.0670   13.5928   20.8092 O   0  0  0  0  0  0  0  0  0  0  0  0
    9.8398   13.5672   21.9729 C   0  0  0  0  0  0  0  0  0  0  0  0
   10.5534   14.8680   22.0284 C   0  0  0  0  0  0  0  0  0  0  0  0
   11.8349   14.9155   22.8421 C   0  0  0  0  0  0  0  0  0  0  0  0
   12.3161   15.8931   21.7529 C   0  0  0  0  0  0  0  0  0  0  0  0
   11.4672   15.0975   20.7786 C   0  0  0  0  0  0  0  0  0  0  0  0
    9.6089   15.9195   22.3398 O   0  0  0  0  0  0  0  0  0  0  0  0
    6.2876   13.3565   24.7896 C   0  0  0  0  0  0  0  0  0  0  0  0
    7.1903   12.1097   24.8281 C   0  0  0  0  0  0  0  0  0  0  0  0
    7.8875   11.8411   26.1331 C   0  0  0  0  0  0  0  0  0  0  0  0
    8.3794   13.0830   26.7255 N   0  0  0  0  0  0  0  0  0  0  0  0
    9.6668   13.9582   26.0835 S   0  0  0  0  0  0  0  0  0  0  0  0
    9.9579   14.9911   27.0461 O   0  0  0  0  0  0  0  0  0  0  0  0
    9.3619   14.3071   24.7295 O   0  0  0  0  0  0  0  0  0  0  0  0
   10.9452   12.8720   26.0655 N   0  0  0  0  0  0  0  0  0  0  0  0
   12.2311   13.3140   26.6779 C   0  0  0  0  0  0  0  0  0  0  0  0
   13.4665   12.9932   25.8007 C   0  0  0  0  0  0  0  0  0  0  0  0
   13.5923   11.5429   25.3874 C   0  0  0  0  0  0  0  0  0  0  0  0
   12.2074   10.9743   25.3575 C   0  0  0  0  0  0  0  0  0  0  0  0
   11.1066   11.9399   24.9364 C   0  0  0  0  0  0  0  0  0  0  0  0
    7.2143   13.8970   27.1525 C   0  0  0  0  0  0  0  0  0  0  0  0
    6.4318   14.3774   25.9463 C   0  0  0  0  0  0  0  0  0  0  0  0
  1  2  2  0
  2  3  1  0
  3  4  1  0
  5  4  1  1
  5  6  1  0
  6  7  1  0
  7  8  1  0
  8  9  1  0
  9 10  1  0
 10 11  1  0
 11 12  1  0
  9 13  1  0
  2 14  1  0
 14 15  1  0
 15 16  1  0
 16 17  1  0
 17 18  1  0
 18 19  2  0
 18 20  2  0
 18 21  1  0
 21 22  1  0
 22 23  1  0
 23 24  1  0
 24 25  1  0
 25 26  1  0
 17 27  1  0
 27 28  1  0
 13  5  1  0
 28 14  1  0
 12  9  1  0
 26 21  1  0
M  END
>  <energy_score>  (4324) 
-37.215249

>  <inchikey>  (4324) 
IVNFOWUBEVYFRK-UHFFFAOYSA-N

>  <smiles>  (4324) 
O=C(OCC1COCC2(CCC2)O1)C1CCN(S(=O)(=O)N2CCCCC2)CC1

>  <ref_pdb>  (4324) 
A0875a

>  <alias>  (4324) 
IVNFOWUBEVYFRK-UHFFFAOYSA-N-P439-P87-P439-601505

>  <HIPPO Pose ID>  (4324) 
508343

>  <name>  (4324) 
IVNFOWUBEVYFRK-UHFFFAOYSA-N-P439-P87-P439-601505

>  <HIPPO Compound ID>  (4324) 
314707

>  <ref_mols>  (4324) 
A4706a,A0875a

>  <distance_score>  (4324) 
1.625018

>  <inspiration_score>  (4324) 
None

$$$$
UVGFITPHBZYQHZ-UHFFFAOYSA-N-P87-P87-P439-601505
     RDKit          3D

 28 30  0  0  0  0  0  0  0  0999 V2000
   16.1230   10.6647   28.7393 C   0  0  0  0  0  0  0  0  0  0  0  0
   16.6882   10.9098   27.3216 C   0  0  1  0  0  0  0  0  0  0  0  0
   17.7921    9.8342   27.0540 C   0  0  0  0  0  0  0  0  0  0  0  0
   18.8764    9.7052   28.0256 N   0  0  0  0  0  0  0  0  0  0  0  0
   15.7131   10.6580   26.2147 O   0  0  0  0  0  0  0  0  0  0  0  0
   14.4448   11.1172   26.2878 C   0  0  0  0  0  0  0  0  0  0  0  0
   13.9313   11.5215   27.3160 O   0  0  0  0  0  0  0  0  0  0  0  0
   13.6475   10.9841   24.9705 C   0  0  0  0  0  0  0  0  0  0  0  0
   13.3155   12.4143   24.6194 C   0  0  0  0  0  0  0  0  0  0  0  0
   12.1765   12.8358   25.5174 C   0  0  0  0  0  0  0  0  0  0  0  0
   10.8924   12.2223   25.0986 N   0  0  0  0  0  0  0  0  0  0  0  0
    9.8765   13.4815   24.6891 S   0  0  0  0  0  0  0  0  0  0  0  0
   10.5652   14.2660   23.6896 O   0  0  0  0  0  0  0  0  0  0  0  0
    9.5860   14.0083   25.9987 O   0  0  0  0  0  0  0  0  0  0  0  0
    8.4477   12.9436   24.0040 N   0  0  0  0  0  0  0  0  0  0  0  0
    7.9061   14.0300   23.1030 C   0  0  0  0  0  0  0  0  0  0  0  0
    6.4199   14.0030   22.8799 C   0  0  0  0  0  0  0  0  0  0  0  0
    5.6361   13.9954   24.1790 C   0  0  0  0  0  0  0  0  0  0  0  0
    6.2170   13.0714   25.2527 C   0  0  0  0  0  0  0  0  0  0  0  0
    7.4836   12.2945   24.9138 C   0  0  0  0  0  0  0  0  0  0  0  0
   11.0153   10.9733   24.3615 C   0  0  0  0  0  0  0  0  0  0  0  0
   12.2849   10.1532   24.8439 C   0  0  0  0  0  0  0  0  0  0  0  0
   17.1923   12.3847   27.1570 C   0  0  2  0  0  0  0  0  0  0  0  0
   18.4537   12.7757   27.9415 C   0  0  0  0  0  0  0  0  0  0  0  0
   18.6593   14.2855   27.9037 C   0  0  0  0  0  0  0  0  0  0  0  0
   17.4363   15.0294   28.4302 C   0  0  0  0  0  0  0  0  0  0  0  0
   16.2100   14.1335   28.5154 C   0  0  0  0  0  0  0  0  0  0  0  0
   16.0996   13.3047   27.3643 O   0  0  0  0  0  0  0  0  0  0  0  0
  2  1  1  1
  2  3  1  0
  3  4  1  0
  2  5  1  0
  5  6  1  0
  6  7  2  0
  6  8  1  0
  8  9  1  0
  9 10  1  0
 10 11  1  0
 11 12  1  0
 12 13  2  0
 12 14  2  0
 12 15  1  0
 15 16  1  0
 16 17  1  0
 17 18  1  0
 18 19  1  0
 19 20  1  0
 11 21  1  0
 21 22  1  0
  2 23  1  0
 23 24  1  1
 24 25  1  0
 25 26  1  0
 26 27  1  0
 27 28  1  0
 22  8  1  0
 28 23  1  0
 20 15  1  0
M  END
>  <energy_score>  (4325) 
-42.981291

>  <inchikey>  (4325) 
UVGFITPHBZYQHZ-UHFFFAOYSA-N

>  <smiles>  (4325) 
CC(CN)(OC(=O)C1CCN(S(=O)(=O)N2CCCCC2)CC1)C1CCCCO1

>  <ref_pdb>  (4325) 
A0875a

>  <alias>  (4325) 
UVGFITPHBZYQHZ-UHFFFAOYSA-N-P87-P87-P439-601505

>  <HIPPO Pose ID>  (4325) 
508344

>  <name>  (4325) 
UVGFITPHBZYQHZ-UHFFFAOYSA-N-P87-P87-P439-601505

>  <HIPPO Compound ID>  (4325) 
314708

>  <ref_mols>  (4325) 
A4706a,A0875a

>  <distance_score>  (4325) 
1.69778

>  <inspiration_score>  (4325) 
None

$$$$
UVGFITPHBZYQHZ-UHFFFAOYSA-N-P439-P87-P439-601505
     RDKit          3D

 28 30  0  0  0  0  0  0  0  0999 V2000
   15.2004   11.2875   29.7738 C   0  0  0  0  0  0  0  0  0  0  0  0
   16.3071   11.8885   28.8870 C   0  0  1  0  0  0  0  0  0  0  0  0
   17.3644   10.7956   28.5483 C   0  0  0  0  0  0  0  0  0  0  0  0
   18.6383   11.3164   28.0521 N   0  0  0  0  0  0  0  0  0  0  0  0
   15.6564   12.4670   27.6944 O   0  0  0  0  0  0  0  0  0  0  0  0
   14.9360   11.7315   26.8117 C   0  0  0  0  0  0  0  0  0  0  0  0
   15.0812   10.5474   26.5573 O   0  0  0  0  0  0  0  0  0  0  0  0
   13.8225   12.5684   26.2146 C   0  0  0  0  0  0  0  0  0  0  0  0
   12.9066   13.0416   27.3319 C   0  0  0  0  0  0  0  0  0  0  0  0
   11.4708   13.3553   26.9145 C   0  0  0  0  0  0  0  0  0  0  0  0
   11.3718   13.6885   25.4993 N   0  0  0  0  0  0  0  0  0  0  0  0
    9.9573   14.4883   25.0265 S   0  0  0  0  0  0  0  0  0  0  0  0
   10.2246   15.0681   23.7355 O   0  0  0  0  0  0  0  0  0  0  0  0
    9.5294   15.2851   26.1503 O   0  0  0  0  0  0  0  0  0  0  0  0
    8.8920   13.1877   24.8331 N   0  0  0  0  0  0  0  0  0  0  0  0
    8.5268   12.8731   23.4328 C   0  0  0  0  0  0  0  0  0  0  0  0
    7.3243   13.7075   23.0052 C   0  0  0  0  0  0  0  0  0  0  0  0
    6.1462   13.5746   23.9728 C   0  0  0  0  0  0  0  0  0  0  0  0
    6.4629   12.6610   25.1527 C   0  0  0  0  0  0  0  0  0  0  0  0
    7.7789   13.0597   25.8123 C   0  0  0  0  0  0  0  0  0  0  0  0
   11.9089   12.6989   24.5580 C   0  0  0  0  0  0  0  0  0  0  0  0
   12.9709   11.8065   25.2155 C   0  0  0  0  0  0  0  0  0  0  0  0
   16.9583   13.1163   29.6107 C   0  0  2  0  0  0  0  0  0  0  0  0
   17.6534   12.7999   30.9396 C   0  0  0  0  0  0  0  0  0  0  0  0
   18.3945   14.0314   31.4634 C   0  0  0  0  0  0  0  0  0  0  0  0
   17.8035   15.3288   30.9220 C   0  0  0  0  0  0  0  0  0  0  0  0
   16.3068   15.1898   30.6923 C   0  0  0  0  0  0  0  0  0  0  0  0
   15.9341   14.1213   29.8165 O   0  0  0  0  0  0  0  0  0  0  0  0
  2  1  1  1
  2  3  1  0
  3  4  1  0
  2  5  1  0
  5  6  1  0
  6  7  2  0
  6  8  1  0
  8  9  1  0
  9 10  1  0
 10 11  1  0
 11 12  1  0
 12 13  2  0
 12 14  2  0
 12 15  1  0
 15 16  1  0
 16 17  1  0
 17 18  1  0
 18 19  1  0
 19 20  1  0
 11 21  1  0
 21 22  1  0
  2 23  1  0
 23 24  1  1
 24 25  1  0
 25 26  1  0
 26 27  1  0
 27 28  1  0
 22  8  1  0
 28 23  1  0
 20 15  1  0
M  END
>  <energy_score>  (4326) 
-81.388407

>  <inchikey>  (4326) 
UVGFITPHBZYQHZ-UHFFFAOYSA-N

>  <smiles>  (4326) 
CC(CN)(OC(=O)C1CCN(S(=O)(=O)N2CCCCC2)CC1)C1CCCCO1

>  <ref_pdb>  (4326) 
A0875a

>  <alias>  (4326) 
UVGFITPHBZYQHZ-UHFFFAOYSA-N-P439-P87-P439-601505

>  <HIPPO Pose ID>  (4326) 
508345

>  <name>  (4326) 
UVGFITPHBZYQHZ-UHFFFAOYSA-N-P439-P87-P439-601505

>  <HIPPO Compound ID>  (4326) 
314708

>  <ref_mols>  (4326) 
A4706a,A0875a

>  <distance_score>  (4326) 
1.799656

>  <inspiration_score>  (4326) 
None

$$$$
KCPWFTIDRJCHOT-UHFFFAOYSA-N-P439-P87-P439-601505
     RDKit          3D

 28 30  0  0  0  0  0  0  0  0999 V2000
   11.2677   14.8859   18.2440 C   0  0  0  0  0  0  0  0  0  0  0  0
   11.4935   14.9989   19.6222 O   0  0  0  0  0  0  0  0  0  0  0  0
   10.5412   15.7502   20.2118 C   0  0  0  0  0  0  0  0  0  0  0  0
    9.6223   16.3118   19.6294 O   0  0  0  0  0  0  0  0  0  0  0  0
   10.7805   15.8794   21.6822 C   0  0  2  0  0  0  0  0  0  0  0  0
   11.8058   14.9014   22.2039 C   0  0  0  0  0  0  0  0  0  0  0  0
   11.4063   13.5574   21.9780 O   0  0  0  0  0  0  0  0  0  0  0  0
   10.1486   13.2343   22.5389 C   0  0  0  0  0  0  0  0  0  0  0  0
    9.0024   14.2251   22.3433 C   0  0  1  0  0  0  0  0  0  0  0  0
    8.1442   14.1076   23.4975 O   0  0  0  0  0  0  0  0  0  0  0  0
    7.0076   13.4040   23.4306 C   0  0  0  0  0  0  0  0  0  0  0  0
    6.5373   12.9465   22.4011 O   0  0  0  0  0  0  0  0  0  0  0  0
    6.4376   13.1575   24.8179 C   0  0  0  0  0  0  0  0  0  0  0  0
    6.9933   11.8323   25.3524 C   0  0  0  0  0  0  0  0  0  0  0  0
    8.4886   11.9210   25.6522 C   0  0  0  0  0  0  0  0  0  0  0  0
    8.8215   13.0868   26.4703 N   0  0  0  0  0  0  0  0  0  0  0  0
   10.2940   13.8912   26.4337 S   0  0  0  0  0  0  0  0  0  0  0  0
   10.3447   14.5876   27.6955 O   0  0  0  0  0  0  0  0  0  0  0  0
   10.4153   14.6452   25.2136 O   0  0  0  0  0  0  0  0  0  0  0  0
   11.5450   12.6989   26.4803 N   0  0  0  0  0  0  0  0  0  0  0  0
   11.9388   12.1058   25.1919 C   0  0  0  0  0  0  0  0  0  0  0  0
   13.1373   11.1422   25.2757 C   0  0  0  0  0  0  0  0  0  0  0  0
   14.2443   11.4530   26.2427 C   0  0  0  0  0  0  0  0  0  0  0  0
   14.0883   12.8802   26.6281 C   0  0  0  0  0  0  0  0  0  0  0  0
   12.7350   13.1174   27.2968 C   0  0  0  0  0  0  0  0  0  0  0  0
    7.6518   13.8975   26.9340 C   0  0  0  0  0  0  0  0  0  0  0  0
    6.7219   14.3039   25.7966 C   0  0  0  0  0  0  0  0  0  0  0  0
    9.4750   15.6596   22.3926 C   0  0  0  0  0  0  0  0  0  0  0  0
  1  2  1  0
  2  3  1  0
  3  4  2  0
  5  3  1  6
  5  6  1  0
  6  7  1  0
  7  8  1  0
  8  9  1  0
  9 10  1  1
 10 11  1  0
 11 12  2  0
 11 13  1  0
 13 14  1  0
 14 15  1  0
 15 16  1  0
 16 17  1  0
 17 18  2  0
 17 19  2  0
 17 20  1  0
 20 21  1  0
 21 22  1  0
 22 23  1  0
 23 24  1  0
 24 25  1  0
 16 26  1  0
 26 27  1  0
  9 28  1  0
 28  5  1  0
 27 13  1  0
 25 20  1  0
M  END
>  <energy_score>  (4327) 
-52.838558

>  <inchikey>  (4327) 
KCPWFTIDRJCHOT-UHFFFAOYSA-N

>  <smiles>  (4327) 
COC(=O)C1COCC(OC(=O)C2CCN(S(=O)(=O)N3CCCCC3)CC2)C1

>  <ref_pdb>  (4327) 
A0875a

>  <alias>  (4327) 
KCPWFTIDRJCHOT-UHFFFAOYSA-N-P439-P87-P439-601505

>  <HIPPO Pose ID>  (4327) 
508347

>  <name>  (4327) 
KCPWFTIDRJCHOT-UHFFFAOYSA-N-P439-P87-P439-601505

>  <HIPPO Compound ID>  (4327) 
314709

>  <ref_mols>  (4327) 
A4706a,A0875a

>  <distance_score>  (4327) 
1.603207

>  <inspiration_score>  (4327) 
None

$$$$
ZXBGYZGXRSGSRF-UHFFFAOYSA-N-P439-P87-P439-601505
     RDKit          3D

 28 30  0  0  0  0  0  0  0  0999 V2000
   11.2742   16.8503   22.0315 C   0  0  0  0  0  0  0  0  0  0  0  0
   10.0265   16.3235   22.3673 O   0  0  0  0  0  0  0  0  0  0  0  0
    9.0386   16.5632   21.4753 C   0  0  0  0  0  0  0  0  0  0  0  0
    8.8639   17.5647   20.8078 O   0  0  0  0  0  0  0  0  0  0  0  0
    8.2796   15.2782   21.4303 C   0  0  2  0  0  0  0  0  0  0  0  0
    7.7842   14.9609   22.7475 O   0  0  0  0  0  0  0  0  0  0  0  0
    6.9538   13.9103   22.8850 C   0  0  0  0  0  0  0  0  0  0  0  0
    6.4872   13.2548   21.9595 O   0  0  0  0  0  0  0  0  0  0  0  0
    6.7163   13.5181   24.3403 C   0  0  0  0  0  0  0  0  0  0  0  0
    7.5891   12.2679   24.5764 C   0  0  0  0  0  0  0  0  0  0  0  0
    8.1444   12.0960   25.9685 C   0  0  0  0  0  0  0  0  0  0  0  0
    8.6236   13.3730   26.5085 N   0  0  0  0  0  0  0  0  0  0  0  0
   10.0058   14.1254   25.8887 S   0  0  0  0  0  0  0  0  0  0  0  0
    9.8094   14.4041   24.4943 O   0  0  0  0  0  0  0  0  0  0  0  0
   10.3085   15.2002   26.7995 O   0  0  0  0  0  0  0  0  0  0  0  0
   11.1923   12.9509   26.0126 N   0  0  0  0  0  0  0  0  0  0  0  0
   11.4316   12.0632   24.8527 C   0  0  0  0  0  0  0  0  0  0  0  0
   12.4243   11.0083   25.3411 C   0  0  0  0  0  0  0  0  0  0  0  0
   13.8204   11.5122   25.5716 C   0  0  0  0  0  0  0  0  0  0  0  0
   13.7036   12.9442   26.0394 C   0  0  0  0  0  0  0  0  0  0  0  0
   12.4044   13.2273   26.8282 C   0  0  0  0  0  0  0  0  0  0  0  0
    7.4581   14.2826   26.6885 C   0  0  0  0  0  0  0  0  0  0  0  0
    6.8801   14.6825   25.3384 C   0  0  0  0  0  0  0  0  0  0  0  0
    9.3506   14.2812   20.8986 C   0  0  1  0  0  0  0  0  0  0  0  0
   10.2863   14.7532   19.7531 C   0  0  0  0  0  0  0  0  0  0  0  0
   11.6714   14.2772   20.1270 C   0  0  0  0  0  0  0  0  0  0  0  0
   11.5766   13.8008   21.5670 C   0  0  0  0  0  0  0  0  0  0  0  0
   10.1844   13.6707   21.9501 N   0  0  0  0  0  0  0  0  0  0  0  0
  1  2  1  0
  2  3  1  0
  3  4  2  0
  3  5  1  0
  5  6  1  1
  6  7  1  0
  7  8  2  0
  7  9  1  0
  9 10  1  0
 10 11  1  0
 11 12  1  0
 12 13  1  0
 13 14  2  0
 13 15  2  0
 13 16  1  0
 16 17  1  0
 17 18  1  0
 18 19  1  0
 19 20  1  0
 20 21  1  0
 12 22  1  0
 22 23  1  0
  5 24  1  0
 24 25  1  6
 25 26  1  0
 26 27  1  0
 27 28  1  0
 23  9  1  0
 28 24  1  0
 21 16  1  0
M  END
>  <energy_score>  (4328) 
-21.85716

>  <inchikey>  (4328) 
ZXBGYZGXRSGSRF-UHFFFAOYSA-N

>  <smiles>  (4328) 
COC(=O)C(OC(=O)C1CCN(S(=O)(=O)N2CCCCC2)CC1)C1CCCN1

>  <ref_pdb>  (4328) 
A0875a

>  <alias>  (4328) 
ZXBGYZGXRSGSRF-UHFFFAOYSA-N-P439-P87-P439-601505

>  <HIPPO Pose ID>  (4328) 
508349

>  <name>  (4328) 
ZXBGYZGXRSGSRF-UHFFFAOYSA-N-P439-P87-P439-601505

>  <HIPPO Compound ID>  (4328) 
314710

>  <ref_mols>  (4328) 
A4706a,A0875a

>  <distance_score>  (4328) 
1.368424

>  <inspiration_score>  (4328) 
None

$$$$
OYIMFXWEAIEQFK-UHFFFAOYSA-N-P439-P87-P439-601505
     RDKit          3D

 28 31  0  0  0  0  0  0  0  0999 V2000
    5.3911   14.8492   22.5391 O   0  0  0  0  0  0  0  0  0  0  0  0
    6.4032   14.3576   23.0021 C   0  0  0  0  0  0  0  0  0  0  0  0
    7.5550   14.0575   22.3214 O   0  0  0  0  0  0  0  0  0  0  0  0
    7.8327   14.8718   21.1827 C   0  0  0  0  0  0  0  0  0  0  0  0
    9.3399   15.1577   20.9988 C   0  0  1  0  0  0  0  0  0  0  0  0
    9.5650   15.7988   19.5978 C   0  0  0  0  0  0  0  0  0  0  0  0
   10.9067   15.8355   19.1386 O   0  0  0  0  0  0  0  0  0  0  0  0
   11.5416   14.5874   19.3448 C   0  0  0  0  0  0  0  0  0  0  0  0
   11.4611   14.2359   20.8207 C   0  0  1  0  0  0  0  0  0  0  0  0
   12.0117   15.3767   21.6873 C   0  0  0  0  0  0  0  0  0  0  0  0
   11.0885   15.7930   22.6721 O   0  0  0  0  0  0  0  0  0  0  0  0
    9.8148   16.0879   22.1088 C   0  0  0  0  0  0  0  0  0  0  0  0
   10.0766   13.9449   21.1154 O   0  0  0  0  0  0  0  0  0  0  0  0
    6.6976   14.0479   24.4363 C   0  0  0  0  0  0  0  0  0  0  0  0
    6.7310   12.5636   24.7641 C   0  0  0  0  0  0  0  0  0  0  0  0
    7.1423   12.3439   26.2154 C   0  0  0  0  0  0  0  0  0  0  0  0
    7.8071   13.5323   26.7686 N   0  0  0  0  0  0  0  0  0  0  0  0
    9.4174   13.9862   26.5129 S   0  0  0  0  0  0  0  0  0  0  0  0
    9.5482   14.7905   25.3239 O   0  0  0  0  0  0  0  0  0  0  0  0
    9.8295   14.5660   27.7690 O   0  0  0  0  0  0  0  0  0  0  0  0
   10.3568   12.5834   26.3121 N   0  0  0  0  0  0  0  0  0  0  0  0
   10.1379   11.7300   25.1191 C   0  0  0  0  0  0  0  0  0  0  0  0
   10.5731   12.4360   23.8672 C   0  0  0  0  0  0  0  0  0  0  0  0
   11.9590   13.0352   24.0480 C   0  0  0  0  0  0  0  0  0  0  0  0
   12.6738   12.5427   25.2909 C   0  0  0  0  0  0  0  0  0  0  0  0
   11.8270   12.9077   26.5004 C   0  0  0  0  0  0  0  0  0  0  0  0
    6.8490   14.6962   26.8414 C   0  0  0  0  0  0  0  0  0  0  0  0
    6.0219   14.8330   25.5421 C   0  0  0  0  0  0  0  0  0  0  0  0
  1  2  2  0
  2  3  1  0
  3  4  1  0
  5  4  1  1
  5  6  1  0
  6  7  1  0
  7  8  1  0
  9  8  1  6
  9 10  1  0
 10 11  1  0
 11 12  1  0
  9 13  1  0
  2 14  1  0
 14 15  1  0
 15 16  1  0
 16 17  1  0
 17 18  1  0
 18 19  2  0
 18 20  2  0
 18 21  1  0
 21 22  1  0
 22 23  1  0
 23 24  1  0
 24 25  1  0
 25 26  1  0
 17 27  1  0
 27 28  1  0
 12  5  1  0
 28 14  1  0
 13  5  1  0
 26 21  1  0
M  END
>  <energy_score>  (4329) 
-66.780177

>  <inchikey>  (4329) 
OYIMFXWEAIEQFK-UHFFFAOYSA-N

>  <smiles>  (4329) 
O=C(OCC12COCC(COC1)O2)C1CCN(S(=O)(=O)N2CCCCC2)CC1

>  <ref_pdb>  (4329) 
A0875a

>  <alias>  (4329) 
OYIMFXWEAIEQFK-UHFFFAOYSA-N-P439-P87-P439-601505

>  <HIPPO Pose ID>  (4329) 
508351

>  <name>  (4329) 
OYIMFXWEAIEQFK-UHFFFAOYSA-N-P439-P87-P439-601505

>  <HIPPO Compound ID>  (4329) 
314711

>  <ref_mols>  (4329) 
A4706a,A0875a

>  <distance_score>  (4329) 
1.578326

>  <inspiration_score>  (4329) 
None

$$$$
JBNOSKJKCOBQMN-UHFFFAOYSA-N-P439-P87-P439-601505
     RDKit          3D

 28 31  0  0  0  0  0  0  0  0999 V2000
    6.3261   14.4690   21.8139 O   0  0  0  0  0  0  0  0  0  0  0  0
    7.0792   14.8443   22.6941 C   0  0  0  0  0  0  0  0  0  0  0  0
    7.9462   15.8961   22.6748 O   0  0  0  0  0  0  0  0  0  0  0  0
    8.0913   16.7776   21.5570 C   0  0  0  0  0  0  0  0  0  0  0  0
    9.3849   16.5360   20.7606 C   0  0  2  0  0  0  0  0  0  0  0  0
    9.3536   15.2493   19.9690 C   0  0  0  0  0  0  0  0  0  0  0  0
   10.5279   14.3523   20.2567 C   0  0  2  0  0  0  0  0  0  0  0  0
   10.3364   13.6647   21.6400 C   0  0  0  0  0  0  0  0  0  0  0  0
   11.5588   13.5499   22.3505 O   0  0  0  0  0  0  0  0  0  0  0  0
   12.0219   14.8640   22.6161 C   0  0  0  0  0  0  0  0  0  0  0  0
   11.8327   15.8103   21.4442 C   0  0  2  0  0  0  0  0  0  0  0  0
   10.5980   16.6558   21.6775 C   0  0  0  0  0  0  0  0  0  0  0  0
   11.7195   15.1244   20.2193 O   0  0  0  0  0  0  0  0  0  0  0  0
    7.3153   14.1584   24.0132 C   0  0  0  0  0  0  0  0  0  0  0  0
    7.1914   12.6548   24.1255 C   0  0  0  0  0  0  0  0  0  0  0  0
    7.8408   12.1393   25.4173 C   0  0  0  0  0  0  0  0  0  0  0  0
    8.1093   13.2288   26.3775 N   0  0  0  0  0  0  0  0  0  0  0  0
    9.5713   14.0749   26.4791 S   0  0  0  0  0  0  0  0  0  0  0  0
    9.5177   14.7376   27.7593 O   0  0  0  0  0  0  0  0  0  0  0  0
    9.8543   14.8673   25.3069 O   0  0  0  0  0  0  0  0  0  0  0  0
   10.7948   12.8938   26.5773 N   0  0  0  0  0  0  0  0  0  0  0  0
   11.9753   13.5047   27.2777 C   0  0  0  0  0  0  0  0  0  0  0  0
   13.2129   12.6075   27.2701 C   0  0  0  0  0  0  0  0  0  0  0  0
   13.6026   12.1235   25.8872 C   0  0  0  0  0  0  0  0  0  0  0  0
   12.5805   12.5974   24.8887 C   0  0  0  0  0  0  0  0  0  0  0  0
   11.1595   12.2595   25.2772 C   0  0  0  0  0  0  0  0  0  0  0  0
    6.9062   14.1084   26.5028 C   0  0  0  0  0  0  0  0  0  0  0  0
    6.6821   14.8778   25.2001 C   0  0  0  0  0  0  0  0  0  0  0  0
  1  2  2  0
  2  3  1  0
  3  4  1  0
  5  4  1  1
  5  6  1  0
  7  6  1  1
  7  8  1  0
  8  9  1  0
  9 10  1  0
 11 10  1  1
 11 12  1  0
 11 13  1  0
  2 14  1  0
 14 15  1  0
 15 16  1  0
 16 17  1  0
 17 18  1  0
 18 19  2  0
 18 20  2  0
 18 21  1  0
 21 22  1  0
 22 23  1  0
 23 24  1  0
 24 25  1  0
 25 26  1  0
 17 27  1  0
 27 28  1  0
 12  5  1  0
 28 14  1  0
 13  7  1  0
 26 21  1  0
M  END
>  <energy_score>  (4330) 
-101.454621

>  <inchikey>  (4330) 
JBNOSKJKCOBQMN-UHFFFAOYSA-N

>  <smiles>  (4330) 
O=C(OCC1CC2COCC(C1)O2)C1CCN(S(=O)(=O)N2CCCCC2)CC1

>  <ref_pdb>  (4330) 
A0875a

>  <alias>  (4330) 
JBNOSKJKCOBQMN-UHFFFAOYSA-N-P439-P87-P439-601505

>  <HIPPO Pose ID>  (4330) 
508357

>  <name>  (4330) 
JBNOSKJKCOBQMN-UHFFFAOYSA-N-P439-P87-P439-601505

>  <HIPPO Compound ID>  (4330) 
314714

>  <ref_mols>  (4330) 
A4706a,A0875a

>  <distance_score>  (4330) 
1.798608

>  <inspiration_score>  (4330) 
None

$$$$
OCWLDEQIXHHTFQ-UHFFFAOYSA-N-P439-P87-P439-601505
     RDKit          3D

 28 30  0  0  0  0  0  0  0  0999 V2000
   11.4096   15.3486   18.3384 C   0  0  0  0  0  0  0  0  0  0  0  0
   10.5345   16.0438   19.2242 O   0  0  0  0  0  0  0  0  0  0  0  0
   10.0549   15.1282   20.0883 C   0  0  0  0  0  0  0  0  0  0  0  0
   10.0606   13.9386   19.8057 O   0  0  0  0  0  0  0  0  0  0  0  0
    9.6060   15.5699   21.4763 C   0  0  2  0  0  0  0  0  0  0  0  0
   10.7393   15.9090   22.3394 O   0  0  0  0  0  0  0  0  0  0  0  0
   11.8892   15.0836   22.2112 C   0  0  0  0  0  0  0  0  0  0  0  0
    8.7289   14.4266   22.0698 C   0  0  0  0  0  0  0  0  0  0  0  0
    7.9197   15.4896   22.8133 C   0  0  2  0  0  0  0  0  0  0  0  0
    6.5027   15.2953   23.0415 O   0  0  0  0  0  0  0  0  0  0  0  0
    6.1550   14.0503   23.4702 C   0  0  0  0  0  0  0  0  0  0  0  0
    6.1232   13.0920   22.7029 O   0  0  0  0  0  0  0  0  0  0  0  0
    5.7090   13.9954   24.9513 C   0  0  0  0  0  0  0  0  0  0  0  0
    5.8240   12.5691   25.5475 C   0  0  0  0  0  0  0  0  0  0  0  0
    6.9511   12.2803   26.5461 C   0  0  0  0  0  0  0  0  0  0  0  0
    7.9674   13.3539   26.5758 N   0  0  0  0  0  0  0  0  0  0  0  0
    9.0585   13.3465   25.3061 S   0  0  0  0  0  0  0  0  0  0  0  0
    9.6163   14.6642   25.1501 O   0  0  0  0  0  0  0  0  0  0  0  0
    8.3803   12.6477   24.2472 O   0  0  0  0  0  0  0  0  0  0  0  0
   10.2817   12.3232   25.8418 N   0  0  0  0  0  0  0  0  0  0  0  0
   11.5442   13.0140   26.2243 C   0  0  0  0  0  0  0  0  0  0  0  0
   12.6574   12.6583   25.2605 C   0  0  0  0  0  0  0  0  0  0  0  0
   12.9395   11.1766   25.4083 C   0  0  0  0  0  0  0  0  0  0  0  0
   11.6526   10.3172   25.2597 C   0  0  0  0  0  0  0  0  0  0  0  0
   10.4203   11.1388   24.9372 C   0  0  0  0  0  0  0  0  0  0  0  0
    7.3293   14.6421   26.9012 C   0  0  0  0  0  0  0  0  0  0  0  0
    6.2996   15.0830   25.8643 C   0  0  0  0  0  0  0  0  0  0  0  0
    8.3504   16.4375   21.6696 C   0  0  0  0  0  0  0  0  0  0  0  0
  1  2  1  0
  2  3  1  0
  3  4  2  0
  3  5  1  0
  5  6  1  1
  6  7  1  0
  5  8  1  0
  8  9  1  0
  9 10  1  6
 10 11  1  0
 11 12  2  0
 11 13  1  0
 13 14  1  0
 14 15  1  0
 15 16  1  0
 16 17  1  0
 17 18  2  0
 17 19  2  0
 17 20  1  0
 20 21  1  0
 21 22  1  0
 22 23  1  0
 23 24  1  0
 24 25  1  0
 16 26  1  0
 26 27  1  0
  9 28  1  0
 28  5  1  0
 27 13  1  0
 25 20  1  0
M  END
>  <energy_score>  (4331) 
-16.973872

>  <inchikey>  (4331) 
OCWLDEQIXHHTFQ-UHFFFAOYSA-N

>  <smiles>  (4331) 
COC(=O)C1(OC)CC(OC(=O)C2CCN(S(=O)(=O)N3CCCCC3)CC2)C1

>  <ref_pdb>  (4331) 
A0875a

>  <alias>  (4331) 
OCWLDEQIXHHTFQ-UHFFFAOYSA-N-P439-P87-P439-601505

>  <HIPPO Pose ID>  (4331) 
508359

>  <name>  (4331) 
OCWLDEQIXHHTFQ-UHFFFAOYSA-N-P439-P87-P439-601505

>  <HIPPO Compound ID>  (4331) 
314715

>  <ref_mols>  (4331) 
A4706a,A0875a

>  <distance_score>  (4331) 
1.576497

>  <inspiration_score>  (4331) 
None

$$$$
LNJFVOWEVMAGQG-UHFFFAOYSA-N-P439-P87-P439-601505
     RDKit          3D

 28 31  0  0  0  0  0  0  0  0999 V2000
    6.8058   12.9447   22.2061 O   0  0  0  0  0  0  0  0  0  0  0  0
    6.8625   13.8298   23.0534 C   0  0  0  0  0  0  0  0  0  0  0  0
    7.7874   14.8175   23.0024 O   0  0  0  0  0  0  0  0  0  0  0  0
    9.1395   14.3082   22.8504 C   0  0  1  0  0  0  0  0  0  0  0  0
    9.5433   13.7841   21.4983 C   0  0  0  0  0  0  0  0  0  0  0  0
   10.8914   13.9470   21.1009 O   0  0  0  0  0  0  0  0  0  0  0  0
   11.2390   15.1890   20.5293 C   0  0  1  0  0  0  0  0  0  0  0  0
   10.4922   15.5392   19.2618 C   0  0  0  0  0  0  0  0  0  0  0  0
    9.4923   16.5036   19.6011 O   0  0  0  0  0  0  0  0  0  0  0  0
    9.5883   16.8481   20.9932 C   0  0  0  0  0  0  0  0  0  0  0  0
   10.9111   16.2922   21.4901 C   0  0  1  0  0  0  0  0  0  0  0  0
   11.1334   15.9179   22.8146 O   0  0  0  0  0  0  0  0  0  0  0  0
   10.1354   15.2336   23.4977 C   0  0  0  0  0  0  0  0  0  0  0  0
    5.9623   13.8081   24.2815 C   0  0  0  0  0  0  0  0  0  0  0  0
    6.3117   12.5802   25.1658 C   0  0  0  0  0  0  0  0  0  0  0  0
    7.1782   12.9232   26.3854 C   0  0  0  0  0  0  0  0  0  0  0  0
    8.0457   14.0492   25.9868 N   0  0  0  0  0  0  0  0  0  0  0  0
    9.4856   14.3249   26.8170 S   0  0  0  0  0  0  0  0  0  0  0  0
   10.1392   15.4411   26.1828 O   0  0  0  0  0  0  0  0  0  0  0  0
    9.1774   14.3982   28.2182 O   0  0  0  0  0  0  0  0  0  0  0  0
   10.4616   12.9621   26.5631 N   0  0  0  0  0  0  0  0  0  0  0  0
   11.8981   13.2471   26.8908 C   0  0  0  0  0  0  0  0  0  0  0  0
   12.8256   12.9742   25.7271 C   0  0  0  0  0  0  0  0  0  0  0  0
   12.6921   11.5353   25.2903 C   0  0  0  0  0  0  0  0  0  0  0  0
   11.2241   11.0626   25.1782 C   0  0  0  0  0  0  0  0  0  0  0  0
   10.2715   12.2043   25.3328 C   0  0  0  0  0  0  0  0  0  0  0  0
    7.2154   15.2984   25.9316 C   0  0  0  0  0  0  0  0  0  0  0  0
    5.9551   15.0923   25.0980 C   0  0  0  0  0  0  0  0  0  0  0  0
  1  2  2  0
  2  3  1  0
  4  3  1  6
  4  5  1  0
  5  6  1  0
  6  7  1  0
  7  8  1  6
  8  9  1  0
  9 10  1  0
 11 10  1  1
 11 12  1  0
 12 13  1  0
  2 14  1  0
 14 15  1  0
 15 16  1  0
 16 17  1  0
 17 18  1  0
 18 19  2  0
 18 20  2  0
 18 21  1  0
 21 22  1  0
 22 23  1  0
 23 24  1  0
 24 25  1  0
 25 26  1  0
 17 27  1  0
 27 28  1  0
 13  4  1  0
 28 14  1  0
 11  7  1  0
 26 21  1  0
M  END
>  <energy_score>  (4332) 
-38.146127

>  <inchikey>  (4332) 
LNJFVOWEVMAGQG-UHFFFAOYSA-N

>  <smiles>  (4332) 
O=C(OC1COC2COCC2OC1)C1CCN(S(=O)(=O)N2CCCCC2)CC1

>  <ref_pdb>  (4332) 
A0875a

>  <alias>  (4332) 
LNJFVOWEVMAGQG-UHFFFAOYSA-N-P439-P87-P439-601505

>  <HIPPO Pose ID>  (4332) 
508365

>  <name>  (4332) 
LNJFVOWEVMAGQG-UHFFFAOYSA-N-P439-P87-P439-601505

>  <HIPPO Compound ID>  (4332) 
314718

>  <ref_mols>  (4332) 
A4706a,A0875a

>  <distance_score>  (4332) 
1.817445

>  <inspiration_score>  (4332) 
None

$$$$
KJQVYWCKOWIHBD-UHFFFAOYSA-N-P439-P87-P439-601505
     RDKit          3D

 28 29  0  0  0  0  0  0  0  0999 V2000
    6.7843   16.2403   22.3445 N   0  0  0  0  0  0  0  0  0  0  0  0
    8.1466   16.1022   21.8142 C   0  0  0  0  0  0  0  0  0  0  0  0
    8.8873   14.7976   22.1558 C   0  0  1  0  0  0  0  0  0  0  0  0
   10.3607   15.1228   22.4660 C   0  0  0  0  0  0  0  0  0  0  0  0
   11.0640   15.7334   21.3887 O   0  0  0  0  0  0  0  0  0  0  0  0
   11.4172   14.8150   20.3593 C   0  0  0  0  0  0  0  0  0  0  0  0
   10.6847   15.0198   19.0416 C   0  0  0  0  0  0  0  0  0  0  0  0
   10.8442   13.9209   18.2760 F   0  0  0  0  0  0  0  0  0  0  0  0
   11.1489   16.0653   18.3439 F   0  0  0  0  0  0  0  0  0  0  0  0
    9.3634   15.2097   19.2179 F   0  0  0  0  0  0  0  0  0  0  0  0
    8.3009   14.1553   23.3044 O   0  0  0  0  0  0  0  0  0  0  0  0
    7.1543   13.4666   23.1067 C   0  0  0  0  0  0  0  0  0  0  0  0
    6.7234   13.1361   22.0057 O   0  0  0  0  0  0  0  0  0  0  0  0
    6.4488   13.0369   24.3848 C   0  0  0  0  0  0  0  0  0  0  0  0
    7.1694   11.8485   25.0500 C   0  0  0  0  0  0  0  0  0  0  0  0
    8.0336   12.2904   26.2293 C   0  0  0  0  0  0  0  0  0  0  0  0
    8.5800   13.5909   25.8576 N   0  0  0  0  0  0  0  0  0  0  0  0
   10.0674   14.1337   26.3324 S   0  0  0  0  0  0  0  0  0  0  0  0
   10.4927   15.1615   25.4175 O   0  0  0  0  0  0  0  0  0  0  0  0
    9.9567   14.4147   27.7419 O   0  0  0  0  0  0  0  0  0  0  0  0
   11.1440   12.8726   26.1874 N   0  0  0  0  0  0  0  0  0  0  0  0
   12.4670   13.1408   26.8559 C   0  0  0  0  0  0  0  0  0  0  0  0
   13.6626   12.8871   25.9194 C   0  0  0  0  0  0  0  0  0  0  0  0
   13.6987   11.4572   25.4199 C   0  0  0  0  0  0  0  0  0  0  0  0
   12.2694   10.9913   25.3066 C   0  0  0  0  0  0  0  0  0  0  0  0
   11.2645   12.0906   24.9426 C   0  0  0  0  0  0  0  0  0  0  0  0
    7.5367   14.6639   25.9774 C   0  0  0  0  0  0  0  0  0  0  0  0
    6.2326   14.2007   25.3453 C   0  0  0  0  0  0  0  0  0  0  0  0
  1  2  1  0
  3  2  1  1
  3  4  1  0
  4  5  1  0
  5  6  1  0
  6  7  1  0
  7  8  1  0
  7  9  1  0
  7 10  1  0
  3 11  1  0
 11 12  1  0
 12 13  2  0
 12 14  1  0
 14 15  1  0
 15 16  1  0
 16 17  1  0
 17 18  1  0
 18 19  2  0
 18 20  2  0
 18 21  1  0
 21 22  1  0
 22 23  1  0
 23 24  1  0
 24 25  1  0
 25 26  1  0
 17 27  1  0
 27 28  1  0
 28 14  1  0
 26 21  1  0
M  END
>  <energy_score>  (4333) 
-54.768846

>  <inchikey>  (4333) 
KJQVYWCKOWIHBD-UHFFFAOYSA-N

>  <smiles>  (4333) 
NCC(COCC(F)(F)F)OC(=O)C1CCN(S(=O)(=O)N2CCCCC2)CC1

>  <ref_pdb>  (4333) 
A0875a

>  <alias>  (4333) 
KJQVYWCKOWIHBD-UHFFFAOYSA-N-P439-P87-P439-601505

>  <HIPPO Pose ID>  (4333) 
508369

>  <name>  (4333) 
KJQVYWCKOWIHBD-UHFFFAOYSA-N-P439-P87-P439-601505

>  <HIPPO Compound ID>  (4333) 
314720

>  <ref_mols>  (4333) 
A4706a,A0875a

>  <distance_score>  (4333) 
1.339094

>  <inspiration_score>  (4333) 
None

$$$$
XUEHLOUDZWYPQM-UHFFFAOYSA-N-P87-P87-P439-601505
     RDKit          3D

 28 31  0  0  0  0  0  0  0  0999 V2000
   13.3227   18.8133   20.9222 N   0  0  0  0  0  0  0  0  0  0  0  0
   13.7277   17.6365   20.1608 C   0  0  0  0  0  0  0  0  0  0  0  0
   13.2915   16.2766   20.7303 C   0  0  2  0  0  0  0  0  0  0  0  0
   13.2324   15.2602   19.5838 C   0  0  0  0  0  0  0  0  0  0  0  0
   12.3315   14.1789   19.9419 O   0  0  0  0  0  0  0  0  0  0  0  0
   11.6133   14.6310   21.0938 C   0  0  2  0  0  0  0  0  0  0  0  0
   10.0826   14.6611   21.2150 C   0  0  1  0  0  0  0  0  0  0  0  0
    9.5863   13.5091   21.8961 O   0  0  0  0  0  0  0  0  0  0  0  0
    8.2890   13.5334   22.2816 C   0  0  0  0  0  0  0  0  0  0  0  0
    7.4127   14.2191   21.7831 O   0  0  0  0  0  0  0  0  0  0  0  0
    8.0493   12.6137   23.4666 C   0  0  0  0  0  0  0  0  0  0  0  0
    9.0798   11.4555   23.5678 C   0  0  0  0  0  0  0  0  0  0  0  0
    9.2952   10.9718   24.9602 C   0  0  0  0  0  0  0  0  0  0  0  0
    9.3176   12.1399   25.8178 N   0  0  0  0  0  0  0  0  0  0  0  0
   10.5317   13.3232   25.5753 S   0  0  0  0  0  0  0  0  0  0  0  0
   10.6280   13.7064   24.2039 O   0  0  0  0  0  0  0  0  0  0  0  0
   10.3538   14.3276   26.5938 O   0  0  0  0  0  0  0  0  0  0  0  0
   11.8899   12.4072   25.9682 N   0  0  0  0  0  0  0  0  0  0  0  0
   12.8004   13.1692   26.8107 C   0  0  0  0  0  0  0  0  0  0  0  0
   14.1148   12.4767   27.1273 C   0  0  0  0  0  0  0  0  0  0  0  0
   14.8109   11.8639   25.9353 C   0  0  0  0  0  0  0  0  0  0  0  0
   13.9901   11.9933   24.6842 C   0  0  0  0  0  0  0  0  0  0  0  0
   12.5224   11.6800   24.8546 C   0  0  0  0  0  0  0  0  0  0  0  0
    7.9538   12.6813   25.9103 C   0  0  0  0  0  0  0  0  0  0  0  0
    7.7426   13.4648   24.6540 C   0  0  0  0  0  0  0  0  0  0  0  0
    9.8701   15.9219   22.0831 C   0  0  0  0  0  0  0  0  0  0  0  0
   11.1658   16.5490   22.2116 O   0  0  0  0  0  0  0  0  0  0  0  0
   11.8599   16.1019   21.1049 C   0  0  1  0  0  0  0  0  0  0  0  0
  1  2  1  0
  3  2  1  6
  3  4  1  0
  4  5  1  0
  6  5  1  6
  6  7  1  0
  7  8  1  1
  8  9  1  0
  9 10  2  0
  9 11  1  0
 11 12  1  0
 12 13  1  0
 13 14  1  0
 14 15  1  0
 15 16  2  0
 15 17  2  0
 15 18  1  0
 18 19  1  0
 19 20  1  0
 20 21  1  0
 21 22  1  0
 22 23  1  0
 14 24  1  0
 24 25  1  0
  7 26  1  0
 26 27  1  0
 28 27  1  1
 28  3  1  0
 28  6  1  0
 25 11  1  0
 23 18  1  0
M  END
>  <energy_score>  (4334) 
-7.572936

>  <inchikey>  (4334) 
XUEHLOUDZWYPQM-UHFFFAOYSA-N

>  <smiles>  (4334) 
NCC1COC2C(OC(=O)C3CCN(S(=O)(=O)N4CCCCC4)CC3)COC12

>  <ref_pdb>  (4334) 
A0875a

>  <alias>  (4334) 
XUEHLOUDZWYPQM-UHFFFAOYSA-N-P87-P87-P439-601505

>  <HIPPO Pose ID>  (4334) 
508370

>  <name>  (4334) 
XUEHLOUDZWYPQM-UHFFFAOYSA-N-P87-P87-P439-601505

>  <HIPPO Compound ID>  (4334) 
314721

>  <ref_mols>  (4334) 
A4706a,A0875a

>  <distance_score>  (4334) 
1.952036

>  <inspiration_score>  (4334) 
None

$$$$
WGIVRGGBGVBZPZ-UHFFFAOYSA-N-P439-P87-P439-601505
     RDKit          3D

 28 32  0  0  0  0  0  0  0  0999 V2000
    7.0839   13.5593   22.6313 O   0  0  0  0  0  0  0  0  0  0  0  0
    6.9722   14.6209   23.2430 C   0  0  0  0  0  0  0  0  0  0  0  0
    7.6839   15.7528   23.0038 O   0  0  0  0  0  0  0  0  0  0  0  0
    8.8317   15.9119   22.0993 C   0  0  1  0  0  0  0  0  0  0  0  0
   10.2025   15.4633   22.7188 C   0  0  2  0  0  0  0  0  0  0  0  0
   11.3624   15.7998   21.7623 C   0  0  0  0  0  0  0  0  0  0  0  0
   11.1011   14.8612   20.5782 C   0  0  2  0  0  0  0  0  0  0  0  0
   10.4964   15.5378   19.4137 C   0  0  0  0  0  0  0  0  0  0  0  0
   11.0556   15.8825   18.3977 O   0  0  0  0  0  0  0  0  0  0  0  0
    9.1916   15.7527   19.6670 O   0  0  0  0  0  0  0  0  0  0  0  0
    8.7751   15.0623   20.8464 C   0  0  1  0  0  0  0  0  0  0  0  0
    9.8997   14.0890   21.0676 C   0  0  2  0  0  0  0  0  0  0  0  0
   10.1565   13.9603   22.5300 C   0  0  0  0  0  0  0  0  0  0  0  0
    5.9223   14.8192   24.3558 C   0  0  0  0  0  0  0  0  0  0  0  0
    5.4098   13.4640   24.8600 C   0  0  0  0  0  0  0  0  0  0  0  0
    6.3970   12.7076   25.7506 C   0  0  0  0  0  0  0  0  0  0  0  0
    7.2803   13.5797   26.5626 N   0  0  0  0  0  0  0  0  0  0  0  0
    8.9118   13.8770   26.2609 S   0  0  0  0  0  0  0  0  0  0  0  0
    9.4722   14.4522   27.4598 O   0  0  0  0  0  0  0  0  0  0  0  0
    8.9985   14.6339   25.0469 O   0  0  0  0  0  0  0  0  0  0  0  0
    9.7592   12.4455   25.9871 N   0  0  0  0  0  0  0  0  0  0  0  0
   11.2032   12.7886   25.7700 C   0  0  0  0  0  0  0  0  0  0  0  0
   12.0910   11.5786   25.5569 C   0  0  0  0  0  0  0  0  0  0  0  0
   11.3076   10.3248   25.1591 C   0  0  0  0  0  0  0  0  0  0  0  0
   10.1682   10.6869   24.2361 C   0  0  0  0  0  0  0  0  0  0  0  0
    9.1753   11.5153   24.9967 C   0  0  0  0  0  0  0  0  0  0  0  0
    6.5606   14.8585   26.8613 C   0  0  0  0  0  0  0  0  0  0  0  0
    6.3314   15.6711   25.5723 C   0  0  0  0  0  0  0  0  0  0  0  0
  1  2  2  0
  2  3  1  0
  4  3  1  1
  4  5  1  0
  5  6  1  6
  7  6  1  1
  7  8  1  0
  8  9  2  0
  8 10  1  0
 11 10  1  6
 11 12  1  0
 12 13  1  1
  2 14  1  0
 14 15  1  0
 15 16  1  0
 16 17  1  0
 17 18  1  0
 18 19  2  0
 18 20  2  0
 18 21  1  0
 21 22  1  0
 22 23  1  0
 23 24  1  0
 24 25  1  0
 25 26  1  0
 17 27  1  0
 27 28  1  0
 11  4  1  0
 28 14  1  0
 13  5  1  0
 26 21  1  0
 12  7  1  0
M  END
>  <energy_score>  (4335) 
-45.235392

>  <inchikey>  (4335) 
WGIVRGGBGVBZPZ-UHFFFAOYSA-N

>  <smiles>  (4335) 
O=C(OC1C2CC3C(=O)OC1C3C2)C1CCN(S(=O)(=O)N2CCCCC2)CC1

>  <ref_pdb>  (4335) 
A0875a

>  <alias>  (4335) 
WGIVRGGBGVBZPZ-UHFFFAOYSA-N-P439-P87-P439-601505

>  <HIPPO Pose ID>  (4335) 
508383

>  <name>  (4335) 
WGIVRGGBGVBZPZ-UHFFFAOYSA-N-P439-P87-P439-601505

>  <HIPPO Compound ID>  (4335) 
314727

>  <ref_mols>  (4335) 
A4706a,A0875a

>  <distance_score>  (4335) 
1.811039

>  <inspiration_score>  (4335) 
None

$$$$
MOYYUSKUBSMVMZ-UHFFFAOYSA-N-P439-P87-P439-601505
     RDKit          3D

 28 31  0  0  0  0  0  0  0  0999 V2000
    5.1883   15.2839   22.5746 O   0  0  0  0  0  0  0  0  0  0  0  0
    6.0473   15.1983   23.4405 C   0  0  0  0  0  0  0  0  0  0  0  0
    7.3506   15.5715   23.2899 O   0  0  0  0  0  0  0  0  0  0  0  0
    7.7717   15.8107   21.9501 C   0  0  2  0  0  0  0  0  0  0  0  0
    7.7244   14.5512   21.1300 C   0  0  0  0  0  0  0  0  0  0  0  0
    8.6539   14.7118   20.0586 O   0  0  0  0  0  0  0  0  0  0  0  0
    9.4568   15.8681   20.2643 C   0  0  0  0  0  0  0  0  0  0  0  0
    9.2118   16.2479   21.7082 C   0  0  2  0  0  0  0  0  0  0  0  0
   10.2798   15.6246   22.4611 N   0  0  0  0  0  0  0  0  0  0  0  0
   10.4420   14.2802   22.6626 C   0  0  0  0  0  0  0  0  0  0  0  0
   11.7257   14.0100   22.2898 C   0  0  0  0  0  0  0  0  0  0  0  0
   12.3072   15.2632   22.0992 C   0  0  0  0  0  0  0  0  0  0  0  0
   11.4663   16.2474   22.3843 N   0  0  0  0  0  0  0  0  0  0  0  0
    5.7957   14.5516   24.7902 C   0  0  0  0  0  0  0  0  0  0  0  0
    6.4447   13.1506   24.7549 C   0  0  0  0  0  0  0  0  0  0  0  0
    6.8236   12.6219   26.1207 C   0  0  0  0  0  0  0  0  0  0  0  0
    7.5661   13.6326   26.9036 N   0  0  0  0  0  0  0  0  0  0  0  0
    9.0780   14.2494   26.4273 S   0  0  0  0  0  0  0  0  0  0  0  0
    9.0073   14.6862   25.0596 O   0  0  0  0  0  0  0  0  0  0  0  0
    9.4779   15.1817   27.4508 O   0  0  0  0  0  0  0  0  0  0  0  0
   10.1981   12.9675   26.4824 N   0  0  0  0  0  0  0  0  0  0  0  0
    9.9112   11.9153   25.5006 C   0  0  0  0  0  0  0  0  0  0  0  0
   11.0480   11.0123   25.1303 C   0  0  0  0  0  0  0  0  0  0  0  0
   12.4428   11.6361   25.1828 C   0  0  0  0  0  0  0  0  0  0  0  0
   12.6521   12.5146   26.3830 C   0  0  0  0  0  0  0  0  0  0  0  0
   11.5700   13.5663   26.4012 C   0  0  0  0  0  0  0  0  0  0  0  0
    6.6034   14.7361   27.2201 C   0  0  0  0  0  0  0  0  0  0  0  0
    6.2084   15.4758   25.9453 C   0  0  0  0  0  0  0  0  0  0  0  0
  1  2  2  0
  2  3  1  0
  4  3  1  1
  4  5  1  0
  5  6  1  0
  6  7  1  0
  7  8  1  0
  8  9  1  1
  9 10  1  0
 10 11  2  0
 11 12  1  0
 12 13  2  0
  2 14  1  0
 14 15  1  0
 15 16  1  0
 16 17  1  0
 17 18  1  0
 18 19  2  0
 18 20  2  0
 18 21  1  0
 21 22  1  0
 22 23  1  0
 23 24  1  0
 24 25  1  0
 25 26  1  0
 17 27  1  0
 27 28  1  0
  8  4  1  0
 13  9  1  0
 28 14  1  0
 26 21  1  0
M  END
>  <energy_score>  (4336) 
-45.229388

>  <inchikey>  (4336) 
MOYYUSKUBSMVMZ-UHFFFAOYSA-N

>  <smiles>  (4336) 
O=C(OC1COCC1n1cccn1)C1CCN(S(=O)(=O)N2CCCCC2)CC1

>  <ref_pdb>  (4336) 
A0875a

>  <alias>  (4336) 
MOYYUSKUBSMVMZ-UHFFFAOYSA-N-P439-P87-P439-601505

>  <HIPPO Pose ID>  (4336) 
508385

>  <name>  (4336) 
MOYYUSKUBSMVMZ-UHFFFAOYSA-N-P439-P87-P439-601505

>  <HIPPO Compound ID>  (4336) 
314728

>  <ref_mols>  (4336) 
A4706a,A0875a

>  <distance_score>  (4336) 
1.811766

>  <inspiration_score>  (4336) 
None

$$$$
RLEJJHSYWDWLRR-UHFFFAOYSA-N-P439-P87-P439-601505
     RDKit          3D

 28 31  0  0  0  0  0  0  0  0999 V2000
    6.5275   13.0936   22.4555 O   0  0  0  0  0  0  0  0  0  0  0  0
    6.6027   13.9620   23.3226 C   0  0  0  0  0  0  0  0  0  0  0  0
    7.1155   15.2027   23.1228 O   0  0  0  0  0  0  0  0  0  0  0  0
    7.5412   15.5460   21.7813 C   0  0  0  0  0  0  0  0  0  0  0  0
    8.9005   14.9787   21.3416 C   0  0  1  0  0  0  0  0  0  0  0  0
    9.4485   15.5470   20.0037 C   0  0  0  0  0  0  0  0  0  0  0  0
   10.7939   15.0694   19.6436 N   0  0  0  0  0  0  0  0  0  0  0  0
   11.7099   15.2769   20.7690 C   0  0  0  0  0  0  0  0  0  0  0  0
   11.1464   14.7140   22.0586 C   0  0  0  0  0  0  0  0  0  0  0  0
   12.0852   14.7534   23.2264 C   0  0  0  0  0  0  0  0  0  0  0  0
   12.2034   13.3265   23.2902 O   0  0  0  0  0  0  0  0  0  0  0  0
   11.3341   13.2129   22.1438 C   0  0  0  0  0  0  0  0  0  0  0  0
    9.8632   15.3048   22.3342 O   0  0  0  0  0  0  0  0  0  0  0  0
    6.0232   13.7822   24.7380 C   0  0  0  0  0  0  0  0  0  0  0  0
    6.2134   12.3468   25.2575 C   0  0  0  0  0  0  0  0  0  0  0  0
    7.5754   12.0119   25.8619 C   0  0  0  0  0  0  0  0  0  0  0  0
    8.2449   13.2041   26.4401 N   0  0  0  0  0  0  0  0  0  0  0  0
    9.4504   13.8962   25.4686 S   0  0  0  0  0  0  0  0  0  0  0  0
    9.1076   13.5550   24.1179 O   0  0  0  0  0  0  0  0  0  0  0  0
    9.6297   15.2529   25.9199 O   0  0  0  0  0  0  0  0  0  0  0  0
   10.8113   13.0357   25.8751 N   0  0  0  0  0  0  0  0  0  0  0  0
   11.0078   11.6916   25.3467 C   0  0  0  0  0  0  0  0  0  0  0  0
   12.4606   11.2059   25.4319 C   0  0  0  0  0  0  0  0  0  0  0  0
   13.2846   11.6915   26.5975 C   0  0  0  0  0  0  0  0  0  0  0  0
   13.1643   13.1642   26.6226 C   0  0  0  0  0  0  0  0  0  0  0  0
   11.7333   13.6235   26.8385 C   0  0  0  0  0  0  0  0  0  0  0  0
    7.2477   14.1822   26.9519 C   0  0  0  0  0  0  0  0  0  0  0  0
    6.4521   14.8052   25.8044 C   0  0  0  0  0  0  0  0  0  0  0  0
  1  2  2  0
  2  3  1  0
  3  4  1  0
  5  4  1  1
  5  6  1  0
  6  7  1  0
  7  8  1  0
  8  9  1  0
  9 10  1  0
 10 11  1  0
 11 12  1  0
  9 13  1  0
  2 14  1  0
 14 15  1  0
 15 16  1  0
 16 17  1  0
 17 18  1  0
 18 19  2  0
 18 20  2  0
 18 21  1  0
 21 22  1  0
 22 23  1  0
 23 24  1  0
 24 25  1  0
 25 26  1  0
 17 27  1  0
 27 28  1  0
 13  5  1  0
 28 14  1  0
 12  9  1  0
 26 21  1  0
M  END
>  <energy_score>  (4337) 
-36.832277

>  <inchikey>  (4337) 
RLEJJHSYWDWLRR-UHFFFAOYSA-N

>  <smiles>  (4337) 
O=C(OCC1CNCC2(COC2)O1)C1CCN(S(=O)(=O)N2CCCCC2)CC1

>  <ref_pdb>  (4337) 
A0875a

>  <alias>  (4337) 
RLEJJHSYWDWLRR-UHFFFAOYSA-N-P439-P87-P439-601505

>  <HIPPO Pose ID>  (4337) 
508391

>  <name>  (4337) 
RLEJJHSYWDWLRR-UHFFFAOYSA-N-P439-P87-P439-601505

>  <HIPPO Compound ID>  (4337) 
314731

>  <ref_mols>  (4337) 
A4706a,A0875a

>  <distance_score>  (4337) 
1.574564

>  <inspiration_score>  (4337) 
None

$$$$
KCOZTYMWQXUSKU-UHFFFAOYSA-N-P439-P87-P439-601505
     RDKit          3D

 28 30  0  0  0  0  0  0  0  0999 V2000
    8.4051   18.3012   20.6053 C   0  0  0  0  0  0  0  0  0  0  0  0
    8.7052   17.0485   21.2032 O   0  0  0  0  0  0  0  0  0  0  0  0
    7.7108   16.2326   21.6350 C   0  0  0  0  0  0  0  0  0  0  0  0
    6.5817   16.5438   21.9919 O   0  0  0  0  0  0  0  0  0  0  0  0
    8.1307   14.7648   21.5265 C   0  0  2  0  0  0  0  0  0  0  0  0
    7.6746   13.7663   22.4466 O   0  0  0  0  0  0  0  0  0  0  0  0
    7.2490   14.1906   23.6686 C   0  0  0  0  0  0  0  0  0  0  0  0
    7.3604   15.3188   24.1251 O   0  0  0  0  0  0  0  0  0  0  0  0
    6.6305   13.0447   24.4525 C   0  0  0  0  0  0  0  0  0  0  0  0
    7.6015   11.8675   24.6055 C   0  0  0  0  0  0  0  0  0  0  0  0
    8.3196   11.8308   25.9398 C   0  0  0  0  0  0  0  0  0  0  0  0
    8.5685   13.1787   26.4567 N   0  0  0  0  0  0  0  0  0  0  0  0
    9.8523   14.0710   25.8484 S   0  0  0  0  0  0  0  0  0  0  0  0
    9.9861   15.2569   26.6548 O   0  0  0  0  0  0  0  0  0  0  0  0
    9.7511   14.1632   24.4179 O   0  0  0  0  0  0  0  0  0  0  0  0
   11.1682   13.0290   26.1667 N   0  0  0  0  0  0  0  0  0  0  0  0
   12.0155   13.5663   27.2543 C   0  0  0  0  0  0  0  0  0  0  0  0
   13.2620   12.7264   27.5211 C   0  0  0  0  0  0  0  0  0  0  0  0
   13.9963   12.2573   26.2833 C   0  0  0  0  0  0  0  0  0  0  0  0
   13.0239   11.6944   25.2782 C   0  0  0  0  0  0  0  0  0  0  0  0
   11.9353   12.6953   24.9355 C   0  0  0  0  0  0  0  0  0  0  0  0
    7.3196   13.9497   26.7333 C   0  0  0  0  0  0  0  0  0  0  0  0
    6.1610   13.5224   25.8297 C   0  0  0  0  0  0  0  0  0  0  0  0
    9.5976   14.6597   21.2247 C   0  0  0  0  0  0  0  0  0  0  0  0
   10.1255   14.5135   20.0230 N   0  0  0  0  0  0  0  0  0  0  0  0
   11.4634   14.7431   20.1687 C   0  0  0  0  0  0  0  0  0  0  0  0
   11.7590   15.0585   21.4739 C   0  0  0  0  0  0  0  0  0  0  0  0
   10.5710   14.9926   22.1292 N   0  0  0  0  0  0  0  0  0  0  0  0
  1  2  1  0
  2  3  1  0
  3  4  2  0
  3  5  1  0
  5  6  1  1
  6  7  1  0
  7  8  2  0
  7  9  1  0
  9 10  1  0
 10 11  1  0
 11 12  1  0
 12 13  1  0
 13 14  2  0
 13 15  2  0
 13 16  1  0
 16 17  1  0
 17 18  1  0
 18 19  1  0
 19 20  1  0
 20 21  1  0
 12 22  1  0
 22 23  1  0
  5 24  1  0
 24 25  2  0
 25 26  1  0
 26 27  2  0
 27 28  1  0
 23  9  1  0
 28 24  1  0
 21 16  1  0
M  END
>  <energy_score>  (4338) 
-48.716181

>  <inchikey>  (4338) 
KCOZTYMWQXUSKU-UHFFFAOYSA-N

>  <smiles>  (4338) 
COC(=O)C(OC(=O)C1CCN(S(=O)(=O)N2CCCCC2)CC1)c1ncc[nH]1

>  <ref_pdb>  (4338) 
A0875a

>  <alias>  (4338) 
KCOZTYMWQXUSKU-UHFFFAOYSA-N-P439-P87-P439-601505

>  <HIPPO Pose ID>  (4338) 
508393

>  <name>  (4338) 
KCOZTYMWQXUSKU-UHFFFAOYSA-N-P439-P87-P439-601505

>  <HIPPO Compound ID>  (4338) 
314732

>  <ref_mols>  (4338) 
A4706a,A0875a

>  <distance_score>  (4338) 
1.645506

>  <inspiration_score>  (4338) 
None

$$$$
USBAQURMGORQIP-UHFFFAOYSA-N-P87-P87-P439-601505
     RDKit          3D

 29 32  0  0  0  0  0  0  0  0999 V2000
   15.4249   10.8835   24.1075 O   0  0  0  0  0  0  0  0  0  0  0  0
   14.7418   10.7720   25.1125 C   0  0  0  0  0  0  0  0  0  0  0  0
   15.2099   10.4104   26.3364 O   0  0  0  0  0  0  0  0  0  0  0  0
   16.5746   10.8389   26.6126 C   0  0  1  0  0  0  0  0  0  0  0  0
   16.6332   12.3750   26.7132 C   0  0  0  0  0  0  0  0  0  0  0  0
   16.1697   12.8830   28.0821 C   0  0  0  0  0  0  0  0  0  0  0  0
   15.3541   11.9133   28.7355 O   0  0  0  0  0  0  0  0  0  0  0  0
   16.0889   10.7249   29.0712 C   0  0  0  0  0  0  0  0  0  0  0  0
   17.0683   10.2925   27.9642 C   0  0  1  0  0  0  0  0  0  0  0  0
   17.2556    8.8816   27.8743 O   0  0  0  0  0  0  0  0  0  0  0  0
   17.9510    8.2926   28.9723 C   0  0  0  0  0  0  0  0  0  0  0  0
   19.4238    8.4996   28.8186 C   0  0  0  0  0  0  0  0  0  0  0  0
   20.3551    8.1207   29.9420 C   0  0  0  0  0  0  0  0  0  0  0  0
   20.1502    9.5688   29.5962 C   0  0  0  0  0  0  0  0  0  0  0  0
   13.2675   11.1243   25.1897 C   0  0  0  0  0  0  0  0  0  0  0  0
   13.1885   12.4396   24.4477 C   0  0  0  0  0  0  0  0  0  0  0  0
   12.0636   13.2012   25.0355 C   0  0  0  0  0  0  0  0  0  0  0  0
   10.8388   12.3873   25.2126 N   0  0  0  0  0  0  0  0  0  0  0  0
    9.5955   13.5230   25.2844 S   0  0  0  0  0  0  0  0  0  0  0  0
    9.6158   14.2220   24.0216 O   0  0  0  0  0  0  0  0  0  0  0  0
    9.8843   14.1906   26.5326 O   0  0  0  0  0  0  0  0  0  0  0  0
    8.2143   12.6095   25.4031 N   0  0  0  0  0  0  0  0  0  0  0  0
    7.5803   12.3567   24.1360 C   0  0  0  0  0  0  0  0  0  0  0  0
    6.7220   13.5353   23.7146 C   0  0  0  0  0  0  0  0  0  0  0  0
    5.6328   13.8514   24.7231 C   0  0  0  0  0  0  0  0  0  0  0  0
    5.8608   13.3080   26.1298 C   0  0  0  0  0  0  0  0  0  0  0  0
    7.2132   12.6740   26.4763 C   0  0  0  0  0  0  0  0  0  0  0  0
   10.7981   11.1528   24.4003 C   0  0  0  0  0  0  0  0  0  0  0  0
   12.0231   10.2468   24.7959 C   0  0  0  0  0  0  0  0  0  0  0  0
  1  2  2  0
  2  3  1  0
  4  3  1  1
  4  5  1  0
  5  6  1  0
  6  7  1  0
  7  8  1  0
  8  9  1  0
  9 10  1  6
 10 11  1  0
 11 12  1  0
 12 13  1  0
 13 14  1  0
  2 15  1  0
 15 16  1  0
 16 17  1  0
 17 18  1  0
 18 19  1  0
 19 20  2  0
 19 21  2  0
 19 22  1  0
 22 23  1  0
 23 24  1  0
 24 25  1  0
 25 26  1  0
 26 27  1  0
 18 28  1  0
 28 29  1  0
  9  4  1  0
 14 12  1  0
 29 15  1  0
 27 22  1  0
M  END
>  <energy_score>  (4339) 
-26.169927

>  <inchikey>  (4339) 
USBAQURMGORQIP-UHFFFAOYSA-N

>  <smiles>  (4339) 
O=C(OC1CCOCC1OCC1CC1)C1CCN(S(=O)(=O)N2CCCCC2)CC1

>  <ref_pdb>  (4339) 
A0875a

>  <alias>  (4339) 
USBAQURMGORQIP-UHFFFAOYSA-N-P87-P87-P439-601505

>  <HIPPO Pose ID>  (4339) 
508400

>  <name>  (4339) 
USBAQURMGORQIP-UHFFFAOYSA-N-P87-P87-P439-601505

>  <HIPPO Compound ID>  (4339) 
314736

>  <ref_mols>  (4339) 
A4706a,A0875a

>  <distance_score>  (4339) 
1.687112

>  <inspiration_score>  (4339) 
None

$$$$
LJCDUTNORPNWGL-UHFFFAOYSA-N-P439-P87-P439-601505
     RDKit          3D

 29 31  0  0  0  0  0  0  0  0999 V2000
    5.2457   16.6751   23.9477 C   0  0  0  0  0  0  0  0  0  0  0  0
    6.5453   16.0981   23.9983 O   0  0  0  0  0  0  0  0  0  0  0  0
    7.0996   15.8153   22.7740 C   0  0  0  0  0  0  0  0  0  0  0  0
    6.5535   16.0382   21.7144 O   0  0  0  0  0  0  0  0  0  0  0  0
    8.4256   15.1003   22.9978 C   0  0  1  0  0  0  0  0  0  0  0  0
    8.2736   13.8106   23.6000 O   0  0  0  0  0  0  0  0  0  0  0  0
    7.1146   13.1808   23.3413 C   0  0  0  0  0  0  0  0  0  0  0  0
    6.5783   13.1555   22.2408 O   0  0  0  0  0  0  0  0  0  0  0  0
    6.5247   12.4678   24.5398 C   0  0  0  0  0  0  0  0  0  0  0  0
    7.4805   11.3966   25.0652 C   0  0  0  0  0  0  0  0  0  0  0  0
    8.2359   11.8886   26.2861 C   0  0  0  0  0  0  0  0  0  0  0  0
    8.3879   13.3324   26.1480 N   0  0  0  0  0  0  0  0  0  0  0  0
    9.7220   14.1752   26.6222 S   0  0  0  0  0  0  0  0  0  0  0  0
    9.9657   15.2312   25.6703 O   0  0  0  0  0  0  0  0  0  0  0  0
    9.5040   14.4905   28.0109 O   0  0  0  0  0  0  0  0  0  0  0  0
   11.0204   13.0847   26.5395 N   0  0  0  0  0  0  0  0  0  0  0  0
   11.5050   12.8484   25.1553 C   0  0  0  0  0  0  0  0  0  0  0  0
   12.6702   11.8773   25.1940 C   0  0  0  0  0  0  0  0  0  0  0  0
   13.8249   12.3273   26.0543 C   0  0  0  0  0  0  0  0  0  0  0  0
   13.3387   12.7230   27.4261 C   0  0  0  0  0  0  0  0  0  0  0  0
   12.1125   13.6233   27.4013 C   0  0  0  0  0  0  0  0  0  0  0  0
    7.1216   14.0557   26.4167 C   0  0  0  0  0  0  0  0  0  0  0  0
    6.0040   13.4064   25.6238 C   0  0  0  0  0  0  0  0  0  0  0  0
    9.5120   15.0928   21.9580 C   0  0  0  0  0  0  0  0  0  0  0  0
    9.3266   14.9392   20.5929 C   0  0  0  0  0  0  0  0  0  0  0  0
   10.4255   14.8613   19.7394 C   0  0  0  0  0  0  0  0  0  0  0  0
   11.6839   14.8790   20.3068 C   0  0  0  0  0  0  0  0  0  0  0  0
   11.9144   15.0504   21.6241 N   0  0  0  0  0  0  0  0  0  0  0  0
   10.8289   15.1887   22.3970 C   0  0  0  0  0  0  0  0  0  0  0  0
  1  2  1  0
  2  3  1  0
  3  4  2  0
  3  5  1  0
  5  6  1  6
  6  7  1  0
  7  8  2  0
  7  9  1  0
  9 10  1  0
 10 11  1  0
 11 12  1  0
 12 13  1  0
 13 14  2  0
 13 15  2  0
 13 16  1  0
 16 17  1  0
 17 18  1  0
 18 19  1  0
 19 20  1  0
 20 21  1  0
 12 22  1  0
 22 23  1  0
  5 24  1  0
 24 25  2  0
 25 26  1  0
 26 27  2  0
 27 28  1  0
 28 29  2  0
 23  9  1  0
 29 24  1  0
 21 16  1  0
M  END
>  <energy_score>  (4340) 
-35.446964

>  <inchikey>  (4340) 
LJCDUTNORPNWGL-UHFFFAOYSA-N

>  <smiles>  (4340) 
COC(=O)C(OC(=O)C1CCN(S(=O)(=O)N2CCCCC2)CC1)c1cccnc1

>  <ref_pdb>  (4340) 
A0875a

>  <alias>  (4340) 
LJCDUTNORPNWGL-UHFFFAOYSA-N-P439-P87-P439-601505

>  <HIPPO Pose ID>  (4340) 
508407

>  <name>  (4340) 
LJCDUTNORPNWGL-UHFFFAOYSA-N-P439-P87-P439-601505

>  <HIPPO Compound ID>  (4340) 
314739

>  <ref_mols>  (4340) 
A4706a,A0875a

>  <distance_score>  (4340) 
1.613795

>  <inspiration_score>  (4340) 
None

$$$$
SOXAJGFANLDFHP-UHFFFAOYSA-N-P439-P87-P439-601505
     RDKit          3D

 29 31  0  0  0  0  0  0  0  0999 V2000
   12.4151   14.9039   22.5301 O   0  0  0  0  0  0  0  0  0  0  0  0
   11.4354   15.1006   21.8404 C   0  0  0  0  0  0  0  0  0  0  0  0
   10.2262   15.4903   22.2949 O   0  0  0  0  0  0  0  0  0  0  0  0
    9.2622   15.3566   21.2416 C   0  0  1  0  0  0  0  0  0  0  0  0
    8.1908   16.4450   21.4074 C   0  0  2  0  0  0  0  0  0  0  0  0
    8.7080   17.8634   21.1974 C   0  0  0  0  0  0  0  0  0  0  0  0
    8.1640   18.7679   19.5686 Br  0  0  0  0  0  0  0  0  0  0  0  0
    7.5425   16.2866   22.6994 O   0  0  0  0  0  0  0  0  0  0  0  0
    6.5347   15.3766   22.8546 C   0  0  0  0  0  0  0  0  0  0  0  0
    5.6580   15.1006   22.0537 O   0  0  0  0  0  0  0  0  0  0  0  0
    6.7635   14.6871   24.1732 C   0  0  0  0  0  0  0  0  0  0  0  0
    6.9101   13.1719   23.9746 C   0  0  0  0  0  0  0  0  0  0  0  0
    7.2690   12.4507   25.2719 C   0  0  0  0  0  0  0  0  0  0  0  0
    7.8629   13.4045   26.2361 N   0  0  0  0  0  0  0  0  0  0  0  0
    9.4141   14.0514   25.8755 S   0  0  0  0  0  0  0  0  0  0  0  0
    9.6124   15.1786   26.7522 O   0  0  0  0  0  0  0  0  0  0  0  0
    9.6011   14.1697   24.4525 O   0  0  0  0  0  0  0  0  0  0  0  0
   10.4699   12.8395   26.3496 N   0  0  0  0  0  0  0  0  0  0  0  0
   11.8175   13.3688   26.7295 C   0  0  0  0  0  0  0  0  0  0  0  0
   12.8304   13.3102   25.5959 C   0  0  0  0  0  0  0  0  0  0  0  0
   12.7981   12.0650   24.7675 C   0  0  0  0  0  0  0  0  0  0  0  0
   11.8923   11.0795   25.4274 C   0  0  0  0  0  0  0  0  0  0  0  0
   10.4949   11.6511   25.4554 C   0  0  0  0  0  0  0  0  0  0  0  0
    6.8063   14.4303   26.6382 C   0  0  0  0  0  0  0  0  0  0  0  0
    5.9771   14.9527   25.4318 C   0  0  0  0  0  0  0  0  0  0  0  0
   10.1167   15.2572   20.0306 C   0  0  0  0  0  0  0  0  0  0  0  0
    9.6337   15.3094   18.7574 O   0  0  0  0  0  0  0  0  0  0  0  0
   11.3683   14.9957   20.3762 C   0  0  0  0  0  0  0  0  0  0  0  0
   12.3972   14.6709   19.5478 O   0  0  0  0  0  0  0  0  0  0  0  0
  1  2  2  0
  2  3  1  0
  4  3  1  1
  4  5  1  0
  5  6  1  1
  6  7  1  0
  5  8  1  0
  8  9  1  0
  9 10  2  0
  9 11  1  0
 11 12  1  0
 12 13  1  0
 13 14  1  0
 14 15  1  0
 15 16  2  0
 15 17  2  0
 15 18  1  0
 18 19  1  0
 19 20  1  0
 20 21  1  0
 21 22  1  0
 22 23  1  0
 14 24  1  0
 24 25  1  0
  4 26  1  0
 26 27  1  0
 26 28  2  0
 28 29  1  0
 28  2  1  0
 25 11  1  0
 23 18  1  0
M  END
>  <energy_score>  (4341) 
-33.894342

>  <inchikey>  (4341) 
SOXAJGFANLDFHP-UHFFFAOYSA-N

>  <smiles>  (4341) 
O=C1OC(C(CBr)OC(=O)C2CCN(S(=O)(=O)N3CCCCC3)CC2)C(O)=C1O

>  <ref_pdb>  (4341) 
A0875a

>  <alias>  (4341) 
SOXAJGFANLDFHP-UHFFFAOYSA-N-P439-P87-P439-601505

>  <HIPPO Pose ID>  (4341) 
508415

>  <name>  (4341) 
SOXAJGFANLDFHP-UHFFFAOYSA-N-P439-P87-P439-601505

>  <HIPPO Compound ID>  (4341) 
314743

>  <ref_mols>  (4341) 
A4706a,A0875a

>  <distance_score>  (4341) 
1.731279

>  <inspiration_score>  (4341) 
None

$$$$
DRKDFFAWICXPJY-UHFFFAOYSA-N-P439-P87-P439-601505
     RDKit          3D

 29 31  0  0  0  0  0  0  0  0999 V2000
    8.6706   18.8332   21.4375 N   0  0  0  0  0  0  0  0  0  0  0  0
    8.3472   17.6531   20.6849 C   0  0  0  0  0  0  0  0  0  0  0  0
    8.6026   16.2274   21.2698 C   0  0  2  0  0  0  0  0  0  0  0  0
    7.9152   15.9211   22.5178 O   0  0  0  0  0  0  0  0  0  0  0  0
    7.2989   14.7034   22.6001 C   0  0  0  0  0  0  0  0  0  0  0  0
    7.2160   13.9029   21.6656 O   0  0  0  0  0  0  0  0  0  0  0  0
    6.6497   14.3508   23.9655 C   0  0  0  0  0  0  0  0  0  0  0  0
    6.9613   12.8506   24.2819 C   0  0  0  0  0  0  0  0  0  0  0  0
    7.4781   12.4712   25.6650 C   0  0  0  0  0  0  0  0  0  0  0  0
    8.1999   13.5818   26.3045 N   0  0  0  0  0  0  0  0  0  0  0  0
    9.6811   14.0900   25.6399 S   0  0  0  0  0  0  0  0  0  0  0  0
   10.0431   15.2800   26.3730 O   0  0  0  0  0  0  0  0  0  0  0  0
    9.5248   14.1122   24.2148 O   0  0  0  0  0  0  0  0  0  0  0  0
   10.7796   12.8737   26.0228 N   0  0  0  0  0  0  0  0  0  0  0  0
   10.8900   11.7646   25.0376 C   0  0  0  0  0  0  0  0  0  0  0  0
   12.1158   10.9426   25.4014 C   0  0  0  0  0  0  0  0  0  0  0  0
   13.4436   11.6043   25.2343 C   0  0  0  0  0  0  0  0  0  0  0  0
   13.2651   13.0653   25.5667 C   0  0  0  0  0  0  0  0  0  0  0  0
   12.1046   13.3463   26.5393 C   0  0  0  0  0  0  0  0  0  0  0  0
    7.2219   14.7003   26.4670 C   0  0  0  0  0  0  0  0  0  0  0  0
    6.9066   15.3363   25.1165 C   0  0  0  0  0  0  0  0  0  0  0  0
   10.1128   16.0719   21.2717 C   0  0  1  0  0  0  0  0  0  0  0  0
   10.6510   15.2728   22.3076 O   0  0  0  0  0  0  0  0  0  0  0  0
   11.4897   14.3569   21.7745 C   0  0  0  0  0  0  0  0  0  0  0  0
   12.1007   13.5292   22.4236 O   0  0  0  0  0  0  0  0  0  0  0  0
   11.5162   14.5418   20.3132 C   0  0  0  0  0  0  0  0  0  0  0  0
   12.3739   13.9993   19.4138 O   0  0  0  0  0  0  0  0  0  0  0  0
   10.6072   15.4446   20.0212 C   0  0  0  0  0  0  0  0  0  0  0  0
   10.2598   15.8548   18.7644 O   0  0  0  0  0  0  0  0  0  0  0  0
  1  2  1  0
  3  2  1  1
  3  4  1  0
  4  5  1  0
  5  6  2  0
  5  7  1  0
  7  8  1  0
  8  9  1  0
  9 10  1  0
 10 11  1  0
 11 12  2  0
 11 13  2  0
 11 14  1  0
 14 15  1  0
 15 16  1  0
 16 17  1  0
 17 18  1  0
 18 19  1  0
 10 20  1  0
 20 21  1  0
  3 22  1  0
 22 23  1  1
 23 24  1  0
 24 25  2  0
 24 26  1  0
 26 27  1  0
 26 28  2  0
 28 29  1  0
 21  7  1  0
 28 22  1  0
 19 14  1  0
M  END
>  <energy_score>  (4342) 
-6.730218

>  <inchikey>  (4342) 
DRKDFFAWICXPJY-UHFFFAOYSA-N

>  <smiles>  (4342) 
NCC(OC(=O)C1CCN(S(=O)(=O)N2CCCCC2)CC1)C1OC(=O)C(O)=C1O

>  <ref_pdb>  (4342) 
A0875a

>  <alias>  (4342) 
DRKDFFAWICXPJY-UHFFFAOYSA-N-P439-P87-P439-601505

>  <HIPPO Pose ID>  (4342) 
508417

>  <name>  (4342) 
DRKDFFAWICXPJY-UHFFFAOYSA-N-P439-P87-P439-601505

>  <HIPPO Compound ID>  (4342) 
314744

>  <ref_mols>  (4342) 
A4706a,A0875a

>  <distance_score>  (4342) 
1.403372

>  <inspiration_score>  (4342) 
None

$$$$
PAXUECBJWKZNJI-UHFFFAOYSA-N-P439-P87-P439-601505
     RDKit          3D

 29 31  0  0  0  0  0  0  0  0999 V2000
    4.2316   13.6588   21.1577 C   0  0  0  0  0  0  0  0  0  0  0  0
    5.2200   14.6836   21.3067 O   0  0  0  0  0  0  0  0  0  0  0  0
    6.4567   14.3171   21.7577 C   0  0  0  0  0  0  0  0  0  0  0  0
    6.7957   13.1558   21.9576 O   0  0  0  0  0  0  0  0  0  0  0  0
    7.3008   15.5743   22.0728 C   0  0  1  0  0  0  0  0  0  0  0  0
    6.9861   16.0864   23.3984 O   0  0  0  0  0  0  0  0  0  0  0  0
    5.8703   15.5815   24.0324 C   0  0  0  0  0  0  0  0  0  0  0  0
    4.7204   15.9329   23.8322 O   0  0  0  0  0  0  0  0  0  0  0  0
    6.3120   14.5363   25.0187 C   0  0  0  0  0  0  0  0  0  0  0  0
    5.7995   13.1018   24.9672 C   0  0  0  0  0  0  0  0  0  0  0  0
    6.8953   12.1466   25.5062 C   0  0  0  0  0  0  0  0  0  0  0  0
    7.8348   12.8604   26.4438 N   0  0  0  0  0  0  0  0  0  0  0  0
    9.2414   13.5370   25.7441 S   0  0  0  0  0  0  0  0  0  0  0  0
    9.5648   14.7247   26.5001 O   0  0  0  0  0  0  0  0  0  0  0  0
    9.1081   13.5653   24.3118 O   0  0  0  0  0  0  0  0  0  0  0  0
   10.4663   12.4217   26.0143 N   0  0  0  0  0  0  0  0  0  0  0  0
   11.7797   13.1431   26.0019 C   0  0  0  0  0  0  0  0  0  0  0  0
   12.7813   12.5195   25.0671 C   0  0  0  0  0  0  0  0  0  0  0  0
   12.9036   11.0616   25.4284 C   0  0  0  0  0  0  0  0  0  0  0  0
   11.5541   10.3095   25.2744 C   0  0  0  0  0  0  0  0  0  0  0  0
   10.3724   11.2454   25.0932 C   0  0  0  0  0  0  0  0  0  0  0  0
    7.0600   13.8370   27.2998 C   0  0  0  0  0  0  0  0  0  0  0  0
    6.4714   14.9838   26.4587 C   0  0  0  0  0  0  0  0  0  0  0  0
    8.8080   15.3946   21.7195 C   0  0  0  0  0  0  0  0  0  0  0  0
    9.1983   15.1074   20.4012 C   0  0  0  0  0  0  0  0  0  0  0  0
   10.5282   14.9624   19.9957 C   0  0  0  0  0  0  0  0  0  0  0  0
   11.5298   15.0740   20.9390 C   0  0  0  0  0  0  0  0  0  0  0  0
   11.1935   15.3450   22.2567 C   0  0  0  0  0  0  0  0  0  0  0  0
    9.8561   15.5375   22.6257 C   0  0  0  0  0  0  0  0  0  0  0  0
  1  2  1  0
  2  3  1  0
  3  4  2  0
  3  5  1  0
  5  6  1  1
  6  7  1  0
  7  8  2  0
  7  9  1  0
  9 10  1  0
 10 11  1  0
 11 12  1  0
 12 13  1  0
 13 14  2  0
 13 15  2  0
 13 16  1  0
 16 17  1  0
 17 18  1  0
 18 19  1  0
 19 20  1  0
 20 21  1  0
 12 22  1  0
 22 23  1  0
  5 24  1  0
 24 25  2  0
 25 26  1  0
 26 27  2  0
 27 28  1  0
 28 29  2  0
 23  9  1  0
 29 24  1  0
 21 16  1  0
M  END
>  <energy_score>  (4343) 
-14.237174

>  <inchikey>  (4343) 
PAXUECBJWKZNJI-UHFFFAOYSA-N

>  <smiles>  (4343) 
COC(=O)C(OC(=O)C1CCN(S(=O)(=O)N2CCCCC2)CC1)c1ccccc1

>  <ref_pdb>  (4343) 
A0875a

>  <alias>  (4343) 
PAXUECBJWKZNJI-UHFFFAOYSA-N-P439-P87-P439-601505

>  <HIPPO Pose ID>  (4343) 
508419

>  <name>  (4343) 
PAXUECBJWKZNJI-UHFFFAOYSA-N-P439-P87-P439-601505

>  <HIPPO Compound ID>  (4343) 
314745

>  <ref_mols>  (4343) 
A4706a,A0875a

>  <distance_score>  (4343) 
1.821239

>  <inspiration_score>  (4343) 
None

$$$$
OSQHRXQAAOPLCR-UHFFFAOYSA-N-P87-P87-P439-601505
     RDKit          3D

 29 31  0  0  0  0  0  0  0  0999 V2000
   19.9476   14.0250   28.4577 C   0  0  0  0  0  0  0  0  0  0  0  0
   18.8797   13.6750   27.4402 C   0  0  0  0  0  0  0  0  0  0  0  0
   17.9196   12.8235   28.0796 O   0  0  0  0  0  0  0  0  0  0  0  0
   16.9103   12.4079   27.2715 C   0  0  0  0  0  0  0  0  0  0  0  0
   16.7802   12.7197   26.0963 O   0  0  0  0  0  0  0  0  0  0  0  0
   15.8907   11.5585   28.0362 C   0  0  1  0  0  0  0  0  0  0  0  0
   14.7417   11.2343   27.1978 O   0  0  0  0  0  0  0  0  0  0  0  0
   14.9244   10.6367   25.9887 C   0  0  0  0  0  0  0  0  0  0  0  0
   15.8389    9.8785   25.7146 O   0  0  0  0  0  0  0  0  0  0  0  0
   13.7748   10.9631   25.0285 C   0  0  0  0  0  0  0  0  0  0  0  0
   13.5185   12.4439   25.1487 C   0  0  0  0  0  0  0  0  0  0  0  0
   12.4609   12.8627   24.1850 C   0  0  0  0  0  0  0  0  0  0  0  0
   11.2138   12.2714   24.6458 N   0  0  0  0  0  0  0  0  0  0  0  0
    9.8570   13.2416   24.5819 S   0  0  0  0  0  0  0  0  0  0  0  0
   10.2987   14.5555   24.9458 O   0  0  0  0  0  0  0  0  0  0  0  0
    8.8174   12.5992   25.3537 O   0  0  0  0  0  0  0  0  0  0  0  0
    9.4019   13.2693   22.9529 N   0  0  0  0  0  0  0  0  0  0  0  0
   10.4330   13.6543   21.9355 C   0  0  0  0  0  0  0  0  0  0  0  0
   10.8452   15.1154   22.0160 C   0  0  0  0  0  0  0  0  0  0  0  0
    9.6375   16.0145   22.2183 C   0  0  0  0  0  0  0  0  0  0  0  0
    8.3707   15.2863   21.8559 C   0  0  0  0  0  0  0  0  0  0  0  0
    8.1463   14.0674   22.7297 C   0  0  0  0  0  0  0  0  0  0  0  0
   11.1159   10.8314   24.4590 C   0  0  0  0  0  0  0  0  0  0  0  0
   12.4429   10.1148   24.9011 C   0  0  0  0  0  0  0  0  0  0  0  0
   16.4324   10.3533   28.8088 C   0  0  1  0  0  0  0  0  0  0  0  0
   17.5763    9.5606   28.2010 C   0  0  0  0  0  0  0  0  0  0  0  0
   18.0894    8.7852   29.3978 C   0  0  0  0  0  0  0  0  0  0  0  0
   17.8586    9.6042   30.5507 O   0  0  0  0  0  0  0  0  0  0  0  0
   17.0234   10.7061   30.1695 C   0  0  0  0  0  0  0  0  0  0  0  0
  1  2  1  0
  2  3  1  0
  3  4  1  0
  4  5  2  0
  4  6  1  0
  6  7  1  6
  7  8  1  0
  8  9  2  0
  8 10  1  0
 10 11  1  0
 11 12  1  0
 12 13  1  0
 13 14  1  0
 14 15  2  0
 14 16  2  0
 14 17  1  0
 17 18  1  0
 18 19  1  0
 19 20  1  0
 20 21  1  0
 21 22  1  0
 13 23  1  0
 23 24  1  0
  6 25  1  0
 25 26  1  6
 26 27  1  0
 27 28  1  0
 28 29  1  0
 24 10  1  0
 29 25  1  0
 22 17  1  0
M  END
>  <energy_score>  (4344) 
-44.503583

>  <inchikey>  (4344) 
OSQHRXQAAOPLCR-UHFFFAOYSA-N

>  <smiles>  (4344) 
CCOC(=O)C(OC(=O)C1CCN(S(=O)(=O)N2CCCCC2)CC1)C1CCOC1

>  <ref_pdb>  (4344) 
A0875a

>  <alias>  (4344) 
OSQHRXQAAOPLCR-UHFFFAOYSA-N-P87-P87-P439-601505

>  <HIPPO Pose ID>  (4344) 
508428

>  <name>  (4344) 
OSQHRXQAAOPLCR-UHFFFAOYSA-N-P87-P87-P439-601505

>  <HIPPO Compound ID>  (4344) 
314750

>  <ref_mols>  (4344) 
A4706a,A0875a

>  <distance_score>  (4344) 
1.71998

>  <inspiration_score>  (4344) 
None

$$$$
MGHUWIQZIZWLEP-UHFFFAOYSA-N-P439-P87-P439-601505
     RDKit          3D

 29 30  0  0  0  0  0  0  0  0999 V2000
   11.1272   14.8766   18.4648 C   0  0  0  0  0  0  0  0  0  0  0  0
   10.6725   15.3068   19.8050 C   0  0  0  0  0  0  0  0  0  0  0  0
    9.9291   16.2469   20.0351 O   0  0  0  0  0  0  0  0  0  0  0  0
   11.2497   14.5156   20.7342 O   0  0  0  0  0  0  0  0  0  0  0  0
   11.4016   15.1044   22.0082 C   0  0  0  0  0  0  0  0  0  0  0  0
   10.1335   15.3901   22.8205 C   0  0  1  0  0  0  0  0  0  0  0  0
    9.0679   14.3020   22.5981 C   0  0  0  0  0  0  0  0  0  0  0  0
    8.0612   14.2973   23.6218 O   0  0  0  0  0  0  0  0  0  0  0  0
    7.1043   13.3706   23.4699 C   0  0  0  0  0  0  0  0  0  0  0  0
    6.8245   12.8706   22.3850 O   0  0  0  0  0  0  0  0  0  0  0  0
    6.4533   12.8903   24.7618 C   0  0  0  0  0  0  0  0  0  0  0  0
    6.8645   11.4593   25.0903 C   0  0  0  0  0  0  0  0  0  0  0  0
    8.3105   11.2582   25.4772 C   0  0  0  0  0  0  0  0  0  0  0  0
    8.7215   12.2043   26.5060 N   0  0  0  0  0  0  0  0  0  0  0  0
   10.1430   13.0357   26.2796 S   0  0  0  0  0  0  0  0  0  0  0  0
   10.1626   13.3609   24.8832 O   0  0  0  0  0  0  0  0  0  0  0  0
   10.1636   13.9882   27.3591 O   0  0  0  0  0  0  0  0  0  0  0  0
   11.5719   12.1591   26.4612 N   0  0  0  0  0  0  0  0  0  0  0  0
   12.6750   12.8082   27.2293 C   0  0  0  0  0  0  0  0  0  0  0  0
   14.0039   12.8297   26.5016 C   0  0  0  0  0  0  0  0  0  0  0  0
   14.4365   11.4358   26.2040 C   0  0  0  0  0  0  0  0  0  0  0  0
   13.4193   10.8733   25.2627 C   0  0  0  0  0  0  0  0  0  0  0  0
   12.0037   11.4693   25.2494 C   0  0  0  0  0  0  0  0  0  0  0  0
    7.5624   13.0742   27.0286 C   0  0  0  0  0  0  0  0  0  0  0  0
    6.6545   13.7315   25.9966 C   0  0  0  0  0  0  0  0  0  0  0  0
   10.7278   15.5914   24.1377 O   0  0  0  0  0  0  0  0  0  0  0  0
   10.0518   15.7736   25.2883 C   0  0  0  0  0  0  0  0  0  0  0  0
   11.0033   16.2193   26.3505 C   0  0  0  0  0  0  0  0  0  0  0  0
    8.8527   15.6945   25.4937 O   0  0  0  0  0  0  0  0  0  0  0  0
  1  2  1  0
  2  3  2  0
  2  4  1  0
  4  5  1  0
  6  5  1  6
  6  7  1  0
  7  8  1  0
  8  9  1  0
  9 10  2  0
  9 11  1  0
 11 12  1  0
 12 13  1  0
 13 14  1  0
 14 15  1  0
 15 16  2  0
 15 17  2  0
 15 18  1  0
 18 19  1  0
 19 20  1  0
 20 21  1  0
 21 22  1  0
 22 23  1  0
 14 24  1  0
 24 25  1  0
  6 26  1  0
 26 27  1  0
 27 28  1  0
 27 29  2  0
 25 11  1  0
 23 18  1  0
M  END
>  <energy_score>  (4345) 
-2.98651

>  <inchikey>  (4345) 
MGHUWIQZIZWLEP-UHFFFAOYSA-N

>  <smiles>  (4345) 
CC(=O)OCC(COC(=O)C1CCN(S(=O)(=O)N2CCCCC2)CC1)OC(C)=O

>  <ref_pdb>  (4345) 
A0875a

>  <alias>  (4345) 
MGHUWIQZIZWLEP-UHFFFAOYSA-N-P439-P87-P439-601505

>  <HIPPO Pose ID>  (4345) 
508433

>  <name>  (4345) 
MGHUWIQZIZWLEP-UHFFFAOYSA-N-P439-P87-P439-601505

>  <HIPPO Compound ID>  (4345) 
314752

>  <ref_mols>  (4345) 
A4706a,A0875a

>  <distance_score>  (4345) 
1.414259

>  <inspiration_score>  (4345) 
None

$$$$
ZIQVKJGEXNXQOV-UHFFFAOYSA-N-P87-P87-P439-601505
     RDKit          3D

 29 31  0  0  0  0  0  0  0  0999 V2000
   17.0791   14.9383   28.6404 C   0  0  0  0  0  0  0  0  0  0  0  0
   17.2307   13.7562   27.8517 O   0  0  0  0  0  0  0  0  0  0  0  0
   16.0456   13.1890   27.4773 C   0  0  0  0  0  0  0  0  0  0  0  0
   14.9418   13.5880   27.8245 O   0  0  0  0  0  0  0  0  0  0  0  0
   16.3144   11.9584   26.5861 C   0  0  2  0  0  0  0  0  0  0  0  0
   15.3175   11.7462   25.5341 O   0  0  0  0  0  0  0  0  0  0  0  0
   14.0568   11.4743   25.9366 C   0  0  0  0  0  0  0  0  0  0  0  0
   13.7979   11.1461   27.0784 O   0  0  0  0  0  0  0  0  0  0  0  0
   12.9819   11.7150   24.8935 C   0  0  0  0  0  0  0  0  0  0  0  0
   12.4337   13.0633   25.2890 C   0  0  0  0  0  0  0  0  0  0  0  0
   10.9679   13.0261   25.5189 C   0  0  0  0  0  0  0  0  0  0  0  0
   10.2931   12.6154   24.2989 N   0  0  0  0  0  0  0  0  0  0  0  0
    8.7120   13.0859   24.1953 S   0  0  0  0  0  0  0  0  0  0  0  0
    8.0145   12.1824   23.3352 O   0  0  0  0  0  0  0  0  0  0  0  0
    8.2932   13.2862   25.5625 O   0  0  0  0  0  0  0  0  0  0  0  0
    8.8308   14.4923   23.3598 N   0  0  0  0  0  0  0  0  0  0  0  0
    8.3639   14.6458   21.9770 C   0  0  0  0  0  0  0  0  0  0  0  0
    9.5345   14.4997   21.0179 C   0  0  0  0  0  0  0  0  0  0  0  0
   10.7449   15.3432   21.3191 C   0  0  0  0  0  0  0  0  0  0  0  0
   11.1227   15.0768   22.7271 C   0  0  0  0  0  0  0  0  0  0  0  0
    9.9214   15.3985   23.6084 C   0  0  0  0  0  0  0  0  0  0  0  0
   10.7554   11.3724   23.6705 C   0  0  0  0  0  0  0  0  0  0  0  0
   11.7849   10.7234   24.6201 C   0  0  0  0  0  0  0  0  0  0  0  0
   16.6497   10.6757   27.4130 C   0  0  2  0  0  0  0  0  0  0  0  0
   16.3489   10.7821   28.9282 C   0  0  0  0  0  0  0  0  0  0  0  0
   16.8492    9.5732   29.7145 C   0  0  0  0  0  0  0  0  0  0  0  0
   18.2969    9.2676   29.3734 C   0  0  0  0  0  0  0  0  0  0  0  0
   18.4454    9.1021   27.9663 O   0  0  0  0  0  0  0  0  0  0  0  0
   18.1270   10.2912   27.2444 C   0  0  0  0  0  0  0  0  0  0  0  0
  1  2  1  0
  2  3  1  0
  3  4  2  0
  3  5  1  0
  5  6  1  1
  6  7  1  0
  7  8  2  0
  7  9  1  0
  9 10  1  0
 10 11  1  0
 11 12  1  0
 12 13  1  0
 13 14  2  0
 13 15  2  0
 13 16  1  0
 16 17  1  0
 17 18  1  0
 18 19  1  0
 19 20  1  0
 20 21  1  0
 12 22  1  0
 22 23  1  0
  5 24  1  0
 24 25  1  1
 25 26  1  0
 26 27  1  0
 27 28  1  0
 28 29  1  0
 23  9  1  0
 29 24  1  0
 21 16  1  0
M  END
>  <energy_score>  (4346) 
-45.927507

>  <inchikey>  (4346) 
ZIQVKJGEXNXQOV-UHFFFAOYSA-N

>  <smiles>  (4346) 
COC(=O)C(OC(=O)C1CCN(S(=O)(=O)N2CCCCC2)CC1)C1CCCOC1

>  <ref_pdb>  (4346) 
A0875a

>  <alias>  (4346) 
ZIQVKJGEXNXQOV-UHFFFAOYSA-N-P87-P87-P439-601505

>  <HIPPO Pose ID>  (4346) 
508438

>  <name>  (4346) 
ZIQVKJGEXNXQOV-UHFFFAOYSA-N-P87-P87-P439-601505

>  <HIPPO Compound ID>  (4346) 
314755

>  <ref_mols>  (4346) 
A4706a,A0875a

>  <distance_score>  (4346) 
1.541381

>  <inspiration_score>  (4346) 
None

$$$$
CEQKTIBRCOBDCH-UHFFFAOYSA-N-P439-P87-P439-601505
     RDKit          3D

 29 31  0  0  0  0  0  0  0  0999 V2000
    9.5404   15.6102   18.9573 C   0  0  0  0  0  0  0  0  0  0  0  0
    8.7044   15.1072   20.0095 O   0  0  0  0  0  0  0  0  0  0  0  0
    8.5077   15.9438   21.0740 C   0  0  0  0  0  0  0  0  0  0  0  0
    8.3897   17.1569   21.0246 O   0  0  0  0  0  0  0  0  0  0  0  0
    8.5694   15.0964   22.3498 C   0  0  1  0  0  0  0  0  0  0  0  0
    7.8389   13.8767   22.4288 O   0  0  0  0  0  0  0  0  0  0  0  0
    6.6576   14.0435   23.0716 C   0  0  0  0  0  0  0  0  0  0  0  0
    5.8214   14.8663   22.7262 O   0  0  0  0  0  0  0  0  0  0  0  0
    6.5177   13.1673   24.3219 C   0  0  0  0  0  0  0  0  0  0  0  0
    7.6256   12.0947   24.4629 C   0  0  0  0  0  0  0  0  0  0  0  0
    8.0438   11.7413   25.8685 C   0  0  0  0  0  0  0  0  0  0  0  0
    8.1988   12.9531   26.6619 N   0  0  0  0  0  0  0  0  0  0  0  0
    9.4590   14.0173   26.3322 S   0  0  0  0  0  0  0  0  0  0  0  0
    9.3009   14.4879   24.9852 O   0  0  0  0  0  0  0  0  0  0  0  0
    9.4728   14.9606   27.4196 O   0  0  0  0  0  0  0  0  0  0  0  0
   10.8642   13.0388   26.4174 N   0  0  0  0  0  0  0  0  0  0  0  0
   11.8837   13.6956   27.2899 C   0  0  0  0  0  0  0  0  0  0  0  0
   13.1468   12.8510   27.4507 C   0  0  0  0  0  0  0  0  0  0  0  0
   13.7395   12.3773   26.1478 C   0  0  0  0  0  0  0  0  0  0  0  0
   12.6672   11.8220   25.2474 C   0  0  0  0  0  0  0  0  0  0  0  0
   11.4586   12.7295   25.0830 C   0  0  0  0  0  0  0  0  0  0  0  0
    6.8755   13.6041   26.8423 C   0  0  0  0  0  0  0  0  0  0  0  0
    6.3645   14.1373   25.5147 C   0  0  0  0  0  0  0  0  0  0  0  0
   10.0459   14.7827   22.3732 C   0  0  0  0  0  0  0  0  0  0  0  0
   10.5916   13.9950   21.4010 C   0  0  0  0  0  0  0  0  0  0  0  0
   11.7745   14.2229   20.8288 N   0  0  0  0  0  0  0  0  0  0  0  0
   12.4584   15.2194   21.3734 C   0  0  0  0  0  0  0  0  0  0  0  0
   12.1474   15.8338   22.5043 N   0  0  0  0  0  0  0  0  0  0  0  0
   10.9242   15.6311   22.9625 C   0  0  0  0  0  0  0  0  0  0  0  0
  1  2  1  0
  2  3  1  0
  3  4  2  0
  3  5  1  0
  5  6  1  6
  6  7  1  0
  7  8  2  0
  7  9  1  0
  9 10  1  0
 10 11  1  0
 11 12  1  0
 12 13  1  0
 13 14  2  0
 13 15  2  0
 13 16  1  0
 16 17  1  0
 17 18  1  0
 18 19  1  0
 19 20  1  0
 20 21  1  0
 12 22  1  0
 22 23  1  0
  5 24  1  0
 24 25  2  0
 25 26  1  0
 26 27  2  0
 27 28  1  0
 28 29  2  0
 23  9  1  0
 29 24  1  0
 21 16  1  0
M  END
>  <energy_score>  (4347) 
-22.794994

>  <inchikey>  (4347) 
CEQKTIBRCOBDCH-UHFFFAOYSA-N

>  <smiles>  (4347) 
COC(=O)C(OC(=O)C1CCN(S(=O)(=O)N2CCCCC2)CC1)c1cncnc1

>  <ref_pdb>  (4347) 
A0875a

>  <alias>  (4347) 
CEQKTIBRCOBDCH-UHFFFAOYSA-N-P439-P87-P439-601505

>  <HIPPO Pose ID>  (4347) 
508443

>  <name>  (4347) 
CEQKTIBRCOBDCH-UHFFFAOYSA-N-P439-P87-P439-601505

>  <HIPPO Compound ID>  (4347) 
314757

>  <ref_mols>  (4347) 
A4706a,A0875a

>  <distance_score>  (4347) 
1.791808

>  <inspiration_score>  (4347) 
None

$$$$
QWMMEAYENZIBSB-UHFFFAOYSA-N-P87-P87-P439-601505
     RDKit          3D

 29 31  0  0  0  0  0  0  0  0999 V2000
    8.0050   17.2788   23.2308 C   0  0  0  0  0  0  0  0  0  0  0  0
    8.7233   16.1449   22.8508 O   0  0  0  0  0  0  0  0  0  0  0  0
    9.0437   16.1662   21.5485 C   0  0  0  0  0  0  0  0  0  0  0  0
    8.8635   17.0977   20.7801 O   0  0  0  0  0  0  0  0  0  0  0  0
    9.7626   14.8922   21.2012 C   0  0  2  0  0  0  0  0  0  0  0  0
    9.3852   13.7234   21.9358 O   0  0  0  0  0  0  0  0  0  0  0  0
    8.1056   13.5189   22.3094 C   0  0  0  0  0  0  0  0  0  0  0  0
    7.1167   13.9999   21.7848 O   0  0  0  0  0  0  0  0  0  0  0  0
    8.0463   12.5846   23.5090 C   0  0  0  0  0  0  0  0  0  0  0  0
    9.2112   11.5737   23.5376 C   0  0  0  0  0  0  0  0  0  0  0  0
    9.5451   11.0944   24.9101 C   0  0  0  0  0  0  0  0  0  0  0  0
    9.4592   12.2276   25.8128 N   0  0  0  0  0  0  0  0  0  0  0  0
   10.5571   13.5292   25.6520 S   0  0  0  0  0  0  0  0  0  0  0  0
   10.3670   14.3870   26.8009 O   0  0  0  0  0  0  0  0  0  0  0  0
   10.5262   14.0558   24.3237 O   0  0  0  0  0  0  0  0  0  0  0  0
   12.0042   12.6910   25.8587 N   0  0  0  0  0  0  0  0  0  0  0  0
   12.8463   13.2984   26.8960 C   0  0  0  0  0  0  0  0  0  0  0  0
   14.1362   12.5211   27.1424 C   0  0  0  0  0  0  0  0  0  0  0  0
   14.8445   12.0301   25.8905 C   0  0  0  0  0  0  0  0  0  0  0  0
   13.8714   11.4746   24.8783 C   0  0  0  0  0  0  0  0  0  0  0  0
   12.7406   12.4496   24.5977 C   0  0  0  0  0  0  0  0  0  0  0  0
    8.0475   12.6422   25.9435 C   0  0  0  0  0  0  0  0  0  0  0  0
    7.7217   13.4090   24.7044 C   0  0  0  0  0  0  0  0  0  0  0  0
   11.2162   15.1196   21.5306 C   0  0  0  0  0  0  0  0  0  0  0  0
   12.3013   14.3520   20.7822 C   0  0  0  0  0  0  0  0  0  0  0  0
   13.2105   15.5676   21.0925 C   0  0  0  0  0  0  0  0  0  0  0  0
   14.0775   15.9832   20.1489 F   0  0  0  0  0  0  0  0  0  0  0  0
   13.8714   15.4836   22.2602 F   0  0  0  0  0  0  0  0  0  0  0  0
   11.9571   16.4031   21.1509 C   0  0  0  0  0  0  0  0  0  0  0  0
  1  2  1  0
  2  3  1  0
  3  4  2  0
  3  5  1  0
  5  6  1  1
  6  7  1  0
  7  8  2  0
  7  9  1  0
  9 10  1  0
 10 11  1  0
 11 12  1  0
 12 13  1  0
 13 14  2  0
 13 15  2  0
 13 16  1  0
 16 17  1  0
 17 18  1  0
 18 19  1  0
 19 20  1  0
 20 21  1  0
 12 22  1  0
 22 23  1  0
  5 24  1  0
 24 25  1  0
 25 26  1  0
 26 27  1  0
 26 28  1  0
 26 29  1  0
 23  9  1  0
 29 24  1  0
 21 16  1  0
M  END
>  <energy_score>  (4348) 
-45.020542

>  <inchikey>  (4348) 
QWMMEAYENZIBSB-UHFFFAOYSA-N

>  <smiles>  (4348) 
COC(=O)C(OC(=O)C1CCN(S(=O)(=O)N2CCCCC2)CC1)C1CC(F)(F)C1

>  <ref_pdb>  (4348) 
A0875a

>  <alias>  (4348) 
QWMMEAYENZIBSB-UHFFFAOYSA-N-P87-P87-P439-601505

>  <HIPPO Pose ID>  (4348) 
508444

>  <name>  (4348) 
QWMMEAYENZIBSB-UHFFFAOYSA-N-P87-P87-P439-601505

>  <HIPPO Compound ID>  (4348) 
314758

>  <ref_mols>  (4348) 
A4706a,A0875a

>  <distance_score>  (4348) 
1.993235

>  <inspiration_score>  (4348) 
None

$$$$
XDPCGUWLAGRKBW-UHFFFAOYSA-N-P439-P87-P439-601505
     RDKit          3D

 29 31  0  0  0  0  0  0  0  0999 V2000
    8.3807   18.3500   20.4508 C   0  0  0  0  0  0  0  0  0  0  0  0
    8.8075   17.0288   20.7515 O   0  0  0  0  0  0  0  0  0  0  0  0
    8.0303   16.2552   21.5630 C   0  0  0  0  0  0  0  0  0  0  0  0
    7.0131   16.5931   22.1538 O   0  0  0  0  0  0  0  0  0  0  0  0
    8.5534   14.8135   21.5768 C   0  0  2  0  0  0  0  0  0  0  0  0
    8.1300   14.1827   22.8154 O   0  0  0  0  0  0  0  0  0  0  0  0
    6.8534   13.7344   22.8194 C   0  0  0  0  0  0  0  0  0  0  0  0
    6.2845   13.3556   21.7996 O   0  0  0  0  0  0  0  0  0  0  0  0
    6.1682   13.6088   24.1820 C   0  0  0  0  0  0  0  0  0  0  0  0
    6.5544   12.3066   24.9056 C   0  0  0  0  0  0  0  0  0  0  0  0
    7.3358   12.4083   26.2054 C   0  0  0  0  0  0  0  0  0  0  0  0
    7.7445   13.7687   26.4931 N   0  0  0  0  0  0  0  0  0  0  0  0
    9.2137   14.4500   26.1325 S   0  0  0  0  0  0  0  0  0  0  0  0
    9.0981   15.2346   24.9357 O   0  0  0  0  0  0  0  0  0  0  0  0
    9.6524   15.0927   27.3471 O   0  0  0  0  0  0  0  0  0  0  0  0
   10.3033   13.2347   25.8176 N   0  0  0  0  0  0  0  0  0  0  0  0
   11.7077   13.7290   25.9344 C   0  0  0  0  0  0  0  0  0  0  0  0
   12.6884   12.8283   25.1918 C   0  0  0  0  0  0  0  0  0  0  0  0
   12.2986   11.3898   25.4572 C   0  0  0  0  0  0  0  0  0  0  0  0
   10.8293   11.0947   25.0256 C   0  0  0  0  0  0  0  0  0  0  0  0
   10.1359   12.3858   24.6277 C   0  0  0  0  0  0  0  0  0  0  0  0
    6.6029   14.7000   26.4596 C   0  0  0  0  0  0  0  0  0  0  0  0
    6.1537   14.8926   25.0188 C   0  0  0  0  0  0  0  0  0  0  0  0
   10.0481   14.8545   21.5012 C   0  0  0  0  0  0  0  0  0  0  0  0
   10.9632   15.2107   22.4708 C   0  0  0  0  0  0  0  0  0  0  0  0
   12.1853   15.2762   21.8251 C   0  0  0  0  0  0  0  0  0  0  0  0
   12.0936   14.9406   20.5471 N   0  0  0  0  0  0  0  0  0  0  0  0
   10.7790   14.8391   20.3286 N   0  0  0  0  0  0  0  0  0  0  0  0
   10.3708   14.9306   18.9485 C   0  0  0  0  0  0  0  0  0  0  0  0
  1  2  1  0
  2  3  1  0
  3  4  2  0
  3  5  1  0
  5  6  1  1
  6  7  1  0
  7  8  2  0
  7  9  1  0
  9 10  1  0
 10 11  1  0
 11 12  1  0
 12 13  1  0
 13 14  2  0
 13 15  2  0
 13 16  1  0
 16 17  1  0
 17 18  1  0
 18 19  1  0
 19 20  1  0
 20 21  1  0
 12 22  1  0
 22 23  1  0
  5 24  1  0
 24 25  2  0
 25 26  1  0
 26 27  2  0
 27 28  1  0
 28 29  1  0
 23  9  1  0
 28 24  1  0
 21 16  1  0
M  END
>  <energy_score>  (4349) 
-33.69376

>  <inchikey>  (4349) 
XDPCGUWLAGRKBW-UHFFFAOYSA-N

>  <smiles>  (4349) 
COC(=O)C(OC(=O)C1CCN(S(=O)(=O)N2CCCCC2)CC1)c1ccnn1C

>  <ref_pdb>  (4349) 
A0875a

>  <alias>  (4349) 
XDPCGUWLAGRKBW-UHFFFAOYSA-N-P439-P87-P439-601505

>  <HIPPO Pose ID>  (4349) 
508447

>  <name>  (4349) 
XDPCGUWLAGRKBW-UHFFFAOYSA-N-P439-P87-P439-601505

>  <HIPPO Compound ID>  (4349) 
314759

>  <ref_mols>  (4349) 
A4706a,A0875a

>  <distance_score>  (4349) 
1.485493

>  <inspiration_score>  (4349) 
None

$$$$
PBDWVHQDMCXNLY-UHFFFAOYSA-N-P439-P87-P439-601505
     RDKit          3D

 29 32  0  0  0  0  0  0  0  0999 V2000
    7.2091   12.5208   23.0783 O   0  0  0  0  0  0  0  0  0  0  0  0
    7.0754   13.4177   23.9056 C   0  0  0  0  0  0  0  0  0  0  0  0
    7.6212   14.6506   23.7547 O   0  0  0  0  0  0  0  0  0  0  0  0
    7.6561   15.0815   22.3680 C   0  0  0  0  0  0  0  0  0  0  0  0
    9.1735   15.0218   21.5351 C   0  0  0  0  0  0  0  0  0  0  0  0
    9.2257   14.9551   20.1376 C   0  0  0  0  0  0  0  0  0  0  0  0
   10.3958   14.9103   19.3685 C   0  0  0  0  0  0  0  0  0  0  0  0
   11.6102   14.9359   19.9034 N   0  0  0  0  0  0  0  0  0  0  0  0
   11.6175   15.0741   21.2347 C   0  0  0  0  0  0  0  0  0  0  0  0
   10.4691   15.1378   22.0378 C   0  0  0  0  0  0  0  0  0  0  0  0
   10.8315   15.5400   23.7892 Br  0  0  0  0  0  0  0  0  0  0  0  0
    6.9338   16.4470   22.2286 C   0  0  0  0  0  0  0  0  0  0  0  0
    5.6974   15.8299   21.8027 O   0  0  0  0  0  0  0  0  0  0  0  0
    6.3669   14.5794   21.6079 C   0  0  0  0  0  0  0  0  0  0  0  0
    6.1932   13.2666   25.1254 C   0  0  0  0  0  0  0  0  0  0  0  0
    6.3381   11.8285   25.6328 C   0  0  0  0  0  0  0  0  0  0  0  0
    7.7523   11.5213   26.1017 C   0  0  0  0  0  0  0  0  0  0  0  0
    8.3505   12.7121   26.7292 N   0  0  0  0  0  0  0  0  0  0  0  0
    9.6302   13.4536   25.9570 S   0  0  0  0  0  0  0  0  0  0  0  0
    9.4886   13.1901   24.5530 O   0  0  0  0  0  0  0  0  0  0  0  0
    9.7148   14.7843   26.5118 O   0  0  0  0  0  0  0  0  0  0  0  0
   10.9999   12.5902   26.4444 N   0  0  0  0  0  0  0  0  0  0  0  0
   11.6213   11.7498   25.3778 C   0  0  0  0  0  0  0  0  0  0  0  0
   13.0415   12.1782   25.0823 C   0  0  0  0  0  0  0  0  0  0  0  0
   13.9604   12.2000   26.2777 C   0  0  0  0  0  0  0  0  0  0  0  0
   13.2557   12.7311   27.5054 C   0  0  0  0  0  0  0  0  0  0  0  0
   11.9559   13.4559   27.1822 C   0  0  0  0  0  0  0  0  0  0  0  0
    7.3411   13.6328   27.3318 C   0  0  0  0  0  0  0  0  0  0  0  0
    6.4741   14.2610   26.2526 C   0  0  0  0  0  0  0  0  0  0  0  0
  1  2  2  0
  2  3  1  0
  3  4  1  0
  4  5  1  0
  5  6  2  0
  6  7  1  0
  7  8  2  0
  8  9  1  0
  9 10  2  0
 10 11  1  0
  4 12  1  0
 12 13  1  0
 13 14  1  0
  2 15  1  0
 15 16  1  0
 16 17  1  0
 17 18  1  0
 18 19  1  0
 19 20  2  0
 19 21  2  0
 19 22  1  0
 22 23  1  0
 23 24  1  0
 24 25  1  0
 25 26  1  0
 26 27  1  0
 18 28  1  0
 28 29  1  0
 14  4  1  0
 29 15  1  0
 10  5  1  0
 27 22  1  0
M  END
>  <energy_score>  (4350) 
-43.879957

>  <inchikey>  (4350) 
PBDWVHQDMCXNLY-UHFFFAOYSA-N

>  <smiles>  (4350) 
O=C(OC1(c2ccncc2Br)COC1)C1CCN(S(=O)(=O)N2CCCCC2)CC1

>  <ref_pdb>  (4350) 
A0875a

>  <alias>  (4350) 
PBDWVHQDMCXNLY-UHFFFAOYSA-N-P439-P87-P439-601505

>  <HIPPO Pose ID>  (4350) 
508451

>  <name>  (4350) 
PBDWVHQDMCXNLY-UHFFFAOYSA-N-P439-P87-P439-601505

>  <HIPPO Compound ID>  (4350) 
314761

>  <ref_mols>  (4350) 
A4706a,A0875a

>  <distance_score>  (4350) 
1.685685

>  <inspiration_score>  (4350) 
None

$$$$
KWLLUNGADWCOGA-UHFFFAOYSA-N-P439-P87-P439-601505
     RDKit          3D

 29 32  0  0  0  0  0  0  0  0999 V2000
    5.0094   15.1224   23.2329 O   0  0  0  0  0  0  0  0  0  0  0  0
    5.9509   14.8615   23.9696 C   0  0  0  0  0  0  0  0  0  0  0  0
    7.2515   15.1513   23.7046 O   0  0  0  0  0  0  0  0  0  0  0  0
    7.5447   15.5546   22.3646 C   0  0  2  0  0  0  0  0  0  0  0  0
    7.2078   14.4641   21.3654 C   0  0  0  0  0  0  0  0  0  0  0  0
    8.0765   14.6266   20.2207 O   0  0  0  0  0  0  0  0  0  0  0  0
    9.2258   15.1320   20.7456 C   0  0  0  0  0  0  0  0  0  0  0  0
   10.4875   15.0484   20.1862 C   0  0  0  0  0  0  0  0  0  0  0  0
   10.8047   14.6659   18.5661 Cl  0  0  0  0  0  0  0  0  0  0  0  0
   11.5626   15.1071   21.0367 C   0  0  0  0  0  0  0  0  0  0  0  0
   11.2919   15.2492   22.3812 C   0  0  0  0  0  0  0  0  0  0  0  0
   12.2711   14.2381   23.5718 Br  0  0  0  0  0  0  0  0  0  0  0  0
   10.0730   15.6578   22.8697 C   0  0  0  0  0  0  0  0  0  0  0  0
    9.0040   15.5458   22.0419 C   0  0  0  0  0  0  0  0  0  0  0  0
    5.8092   14.0634   25.2634 C   0  0  0  0  0  0  0  0  0  0  0  0
    6.2521   12.6051   24.9996 C   0  0  0  0  0  0  0  0  0  0  0  0
    7.2523   11.9599   25.9543 C   0  0  0  0  0  0  0  0  0  0  0  0
    8.1168   12.9698   26.5779 N   0  0  0  0  0  0  0  0  0  0  0  0
    9.3440   13.6331   25.6313 S   0  0  0  0  0  0  0  0  0  0  0  0
    9.4997   14.9997   26.0669 O   0  0  0  0  0  0  0  0  0  0  0  0
    9.0803   13.2727   24.2607 O   0  0  0  0  0  0  0  0  0  0  0  0
   10.7165   12.7832   26.1405 N   0  0  0  0  0  0  0  0  0  0  0  0
   11.7233   13.5924   26.8669 C   0  0  0  0  0  0  0  0  0  0  0  0
   13.1683   13.1355   26.7464 C   0  0  0  0  0  0  0  0  0  0  0  0
   13.3282   11.6737   26.6736 C   0  0  0  0  0  0  0  0  0  0  0  0
   12.5761   11.2067   25.4509 C   0  0  0  0  0  0  0  0  0  0  0  0
   11.1065   11.6236   25.3235 C   0  0  0  0  0  0  0  0  0  0  0  0
    7.2933   13.9324   27.3511 C   0  0  0  0  0  0  0  0  0  0  0  0
    6.4585   14.8066   26.4334 C   0  0  0  0  0  0  0  0  0  0  0  0
  1  2  2  0
  2  3  1  0
  4  3  1  1
  4  5  1  0
  5  6  1  0
  6  7  1  0
  7  8  2  0
  8  9  1  0
  8 10  1  0
 10 11  2  0
 11 12  1  0
 11 13  1  0
 13 14  2  0
  2 15  1  0
 15 16  1  0
 16 17  1  0
 17 18  1  0
 18 19  1  0
 19 20  2  0
 19 21  2  0
 19 22  1  0
 22 23  1  0
 23 24  1  0
 24 25  1  0
 25 26  1  0
 26 27  1  0
 18 28  1  0
 28 29  1  0
 14  4  1  0
 29 15  1  0
 14  7  1  0
 27 22  1  0
M  END
>  <energy_score>  (4351) 
-8.059246

>  <inchikey>  (4351) 
KWLLUNGADWCOGA-UHFFFAOYSA-N

>  <smiles>  (4351) 
O=C(OC1COc2c(Cl)cc(Br)cc21)C1CCN(S(=O)(=O)N2CCCCC2)CC1

>  <ref_pdb>  (4351) 
A0875a

>  <alias>  (4351) 
KWLLUNGADWCOGA-UHFFFAOYSA-N-P439-P87-P439-601505

>  <HIPPO Pose ID>  (4351) 
508455

>  <name>  (4351) 
KWLLUNGADWCOGA-UHFFFAOYSA-N-P439-P87-P439-601505

>  <HIPPO Compound ID>  (4351) 
314763

>  <ref_mols>  (4351) 
A4706a,A0875a

>  <distance_score>  (4351) 
1.96241

>  <inspiration_score>  (4351) 
None

$$$$
PIHBOMIHOZFJCH-UHFFFAOYSA-N-P439-P87-P439-601505
     RDKit          3D

 29 33  0  0  0  0  0  0  0  0999 V2000
   10.8201   14.8837   19.3689 N   0  0  0  0  0  0  0  0  0  0  0  0
   10.1574   15.2142   20.5910 C   0  0  1  0  0  0  0  0  0  0  0  0
    9.4543   16.5790   20.6742 C   0  0  0  0  0  0  0  0  0  0  0  0
    8.6675   15.7357   21.7967 C   0  0  1  0  0  0  0  0  0  0  0  0
    7.2553   16.0163   22.2760 C   0  0  0  0  0  0  0  0  0  0  0  0
    6.9374   15.4126   23.5518 O   0  0  0  0  0  0  0  0  0  0  0  0
    6.4243   14.1564   23.5740 C   0  0  0  0  0  0  0  0  0  0  0  0
    6.2943   13.4250   22.5945 O   0  0  0  0  0  0  0  0  0  0  0  0
    5.9300   13.7760   24.9848 C   0  0  0  0  0  0  0  0  0  0  0  0
    6.1727   12.2927   25.3050 C   0  0  0  0  0  0  0  0  0  0  0  0
    7.5278   11.9030   25.8929 C   0  0  0  0  0  0  0  0  0  0  0  0
    8.2739   13.0700   26.4159 N   0  0  0  0  0  0  0  0  0  0  0  0
    9.3383   13.8035   25.3136 S   0  0  0  0  0  0  0  0  0  0  0  0
    8.9218   13.3375   24.0165 O   0  0  0  0  0  0  0  0  0  0  0  0
    9.4484   15.1851   25.7045 O   0  0  0  0  0  0  0  0  0  0  0  0
   10.7931   13.0697   25.6470 N   0  0  0  0  0  0  0  0  0  0  0  0
   10.9728   11.6751   25.2802 C   0  0  0  0  0  0  0  0  0  0  0  0
   12.4430   11.2551   25.3729 C   0  0  0  0  0  0  0  0  0  0  0  0
   13.2216   11.7503   26.5653 C   0  0  0  0  0  0  0  0  0  0  0  0
   13.0332   13.2175   26.6152 C   0  0  0  0  0  0  0  0  0  0  0  0
   11.5777   13.6255   26.7431 C   0  0  0  0  0  0  0  0  0  0  0  0
    7.3549   14.0075   27.1130 C   0  0  0  0  0  0  0  0  0  0  0  0
    6.3849   14.6786   26.1446 C   0  0  0  0  0  0  0  0  0  0  0  0
    8.7538   14.6066   20.7335 C   0  0  0  0  0  0  0  0  0  0  0  0
    9.6387   15.4502   22.8491 O   0  0  0  0  0  0  0  0  0  0  0  0
   10.7099   14.9959   21.9729 C   0  0  2  0  0  0  0  0  0  0  0  0
   12.0646   15.5525   22.2696 C   0  0  0  0  0  0  0  0  0  0  0  0
   12.3621   14.3433   23.0573 O   0  0  0  0  0  0  0  0  0  0  0  0
   11.3833   13.6619   22.2073 C   0  0  0  0  0  0  0  0  0  0  0  0
  2  1  1  6
  2  3  1  0
  3  4  1  0
  4  5  1  1
  5  6  1  0
  6  7  1  0
  7  8  2  0
  7  9  1  0
  9 10  1  0
 10 11  1  0
 11 12  1  0
 12 13  1  0
 13 14  2  0
 13 15  2  0
 13 16  1  0
 16 17  1  0
 17 18  1  0
 18 19  1  0
 19 20  1  0
 20 21  1  0
 12 22  1  0
 22 23  1  0
  4 24  1  0
  4 25  1  0
 25 26  1  0
 26 27  1  6
 27 28  1  0
 28 29  1  0
 24  2  1  0
 29 26  1  0
 26  2  1  0
 23  9  1  0
 21 16  1  0
M  END
>  <energy_score>  (4352) 
-52.76337

>  <inchikey>  (4352) 
PIHBOMIHOZFJCH-UHFFFAOYSA-N

>  <smiles>  (4352) 
NC12CC(COC(=O)C3CCN(S(=O)(=O)N4CCCCC4)CC3)(C1)OC21COC1

>  <ref_pdb>  (4352) 
A0875a

>  <alias>  (4352) 
PIHBOMIHOZFJCH-UHFFFAOYSA-N-P439-P87-P439-601505

>  <HIPPO Pose ID>  (4352) 
508465

>  <name>  (4352) 
PIHBOMIHOZFJCH-UHFFFAOYSA-N-P439-P87-P439-601505

>  <HIPPO Compound ID>  (4352) 
314768

>  <ref_mols>  (4352) 
A4706a,A0875a

>  <distance_score>  (4352) 
1.736517

>  <inspiration_score>  (4352) 
None

$$$$
AGMCBECNZKFZMM-UHFFFAOYSA-N-P439-P87-P439-601505
     RDKit          3D

 29 31  0  0  0  0  0  0  0  0999 V2000
   11.0256   15.0377   18.7000 C   0  0  0  0  0  0  0  0  0  0  0  0
   10.1103   14.8156   19.7638 O   0  0  0  0  0  0  0  0  0  0  0  0
    9.4968   15.8797   20.3452 C   0  0  0  0  0  0  0  0  0  0  0  0
    9.4764   17.0063   19.8730 O   0  0  0  0  0  0  0  0  0  0  0  0
    8.9327   15.4749   21.7277 C   0  0  1  0  0  0  0  0  0  0  0  0
    7.5413   16.1332   21.9352 C   0  0  0  0  0  0  0  0  0  0  0  0
    7.0359   15.9984   23.2866 O   0  0  0  0  0  0  0  0  0  0  0  0
    6.1024   15.0350   23.5336 C   0  0  0  0  0  0  0  0  0  0  0  0
    5.1179   14.7876   22.8590 O   0  0  0  0  0  0  0  0  0  0  0  0
    6.5734   14.2644   24.7401 C   0  0  0  0  0  0  0  0  0  0  0  0
    6.4044   12.7536   24.7409 C   0  0  0  0  0  0  0  0  0  0  0  0
    7.6156   12.1327   25.4632 C   0  0  0  0  0  0  0  0  0  0  0  0
    8.0969   13.0075   26.5723 N   0  0  0  0  0  0  0  0  0  0  0  0
    9.5213   13.9219   26.3751 S   0  0  0  0  0  0  0  0  0  0  0  0
    9.6220   14.4627   25.0494 O   0  0  0  0  0  0  0  0  0  0  0  0
    9.5843   14.7980   27.5201 O   0  0  0  0  0  0  0  0  0  0  0  0
   10.8396   12.8462   26.5384 N   0  0  0  0  0  0  0  0  0  0  0  0
   12.0315   13.6696   26.9133 C   0  0  0  0  0  0  0  0  0  0  0  0
   13.3906   13.1067   26.5242 C   0  0  0  0  0  0  0  0  0  0  0  0
   13.3866   11.6356   26.5139 C   0  0  0  0  0  0  0  0  0  0  0  0
   12.4339   11.2571   25.4153 C   0  0  0  0  0  0  0  0  0  0  0  0
   11.0448   11.8993   25.4296 C   0  0  0  0  0  0  0  0  0  0  0  0
    6.9544   13.8194   27.1565 C   0  0  0  0  0  0  0  0  0  0  0  0
    6.3858   14.8211   26.1334 C   0  0  0  0  0  0  0  0  0  0  0  0
    8.7727   13.9569   21.8741 C   0  0  0  0  0  0  0  0  0  0  0  0
   10.0476   13.2377   22.1876 C   0  0  0  0  0  0  0  0  0  0  0  0
   11.1659   13.9183   22.4501 C   0  0  0  0  0  0  0  0  0  0  0  0
   11.1675   15.3961   22.5876 C   0  0  0  0  0  0  0  0  0  0  0  0
    9.8576   15.9308   22.7108 O   0  0  0  0  0  0  0  0  0  0  0  0
  1  2  1  0
  2  3  1  0
  3  4  2  0
  3  5  1  0
  5  6  1  1
  6  7  1  0
  7  8  1  0
  8  9  2  0
  8 10  1  0
 10 11  1  0
 11 12  1  0
 12 13  1  0
 13 14  1  0
 14 15  2  0
 14 16  2  0
 14 17  1  0
 17 18  1  0
 18 19  1  0
 19 20  1  0
 20 21  1  0
 21 22  1  0
 13 23  1  0
 23 24  1  0
  5 25  1  0
 25 26  1  0
 26 27  2  0
 27 28  1  0
 28 29  1  0
 29  5  1  0
 24 10  1  0
 22 17  1  0
M  END
>  <energy_score>  (4353) 
-29.093515

>  <inchikey>  (4353) 
AGMCBECNZKFZMM-UHFFFAOYSA-N

>  <smiles>  (4353) 
COC(=O)C1(COC(=O)C2CCN(S(=O)(=O)N3CCCCC3)CC2)CC=CCO1

>  <ref_pdb>  (4353) 
A0875a

>  <alias>  (4353) 
AGMCBECNZKFZMM-UHFFFAOYSA-N-P439-P87-P439-601505

>  <HIPPO Pose ID>  (4353) 
508467

>  <name>  (4353) 
AGMCBECNZKFZMM-UHFFFAOYSA-N-P439-P87-P439-601505

>  <HIPPO Compound ID>  (4353) 
314769

>  <ref_mols>  (4353) 
A4706a,A0875a

>  <distance_score>  (4353) 
1.831641

>  <inspiration_score>  (4353) 
None

$$$$
KVLWKWCKHCLDDU-UHFFFAOYSA-N-P439-P87-P439-601505
     RDKit          3D

 29 32  0  0  0  0  0  0  0  0999 V2000
    5.8543   12.5160   22.9418 O   0  0  0  0  0  0  0  0  0  0  0  0
    6.0074   13.3371   23.8165 C   0  0  0  0  0  0  0  0  0  0  0  0
    5.7271   14.6236   23.6957 O   0  0  0  0  0  0  0  0  0  0  0  0
    5.8712   14.9817   22.3214 C   0  0  0  0  0  0  0  0  0  0  0  0
    7.4106   14.9538   21.7746 C   0  0  0  0  0  0  0  0  0  0  0  0
    8.5326   15.4188   22.4215 C   0  0  0  0  0  0  0  0  0  0  0  0
    9.6075   15.2388   21.5223 C   0  0  0  0  0  0  0  0  0  0  0  0
   11.0302   15.6124   21.6318 C   0  0  0  0  0  0  0  0  0  0  0  0
   11.8396   14.5267   22.7612 Cl  0  0  0  0  0  0  0  0  0  0  0  0
    9.1702   14.6637   20.4032 N   0  0  0  0  0  0  0  0  0  0  0  0
    7.8210   14.4477   20.5866 O   0  0  0  0  0  0  0  0  0  0  0  0
    5.1824   16.2887   22.1155 C   0  0  0  0  0  0  0  0  0  0  0  0
    4.1718   15.7315   21.2428 O   0  0  0  0  0  0  0  0  0  0  0  0
    4.7708   14.4257   21.3753 C   0  0  0  0  0  0  0  0  0  0  0  0
    6.6097   13.1036   25.1045 C   0  0  0  0  0  0  0  0  0  0  0  0
    7.1366   11.7055   25.2618 C   0  0  0  0  0  0  0  0  0  0  0  0
    7.9549   11.7012   26.5144 C   0  0  0  0  0  0  0  0  0  0  0  0
    8.4459   13.0585   26.8541 N   0  0  0  0  0  0  0  0  0  0  0  0
    9.7784   13.7748   26.1104 S   0  0  0  0  0  0  0  0  0  0  0  0
   10.1964   14.8305   26.9991 O   0  0  0  0  0  0  0  0  0  0  0  0
    9.5038   14.0770   24.7325 O   0  0  0  0  0  0  0  0  0  0  0  0
   10.9382   12.5454   26.1283 N   0  0  0  0  0  0  0  0  0  0  0  0
   12.3058   13.1156   26.2451 C   0  0  0  0  0  0  0  0  0  0  0  0
   13.3462   12.0302   26.4401 C   0  0  0  0  0  0  0  0  0  0  0  0
   13.2183   10.9417   25.3871 C   0  0  0  0  0  0  0  0  0  0  0  0
   11.7654   10.4264   25.2467 C   0  0  0  0  0  0  0  0  0  0  0  0
   10.8505   11.6111   24.9672 C   0  0  0  0  0  0  0  0  0  0  0  0
    7.3229   13.9891   27.2459 C   0  0  0  0  0  0  0  0  0  0  0  0
    6.0859   13.7202   26.3772 C   0  0  0  0  0  0  0  0  0  0  0  0
  1  2  2  0
  2  3  1  0
  3  4  1  0
  4  5  1  0
  5  6  2  0
  6  7  1  0
  7  8  1  0
  8  9  1  0
  7 10  2  0
 10 11  1  0
  4 12  1  0
 12 13  1  0
 13 14  1  0
  2 15  1  0
 15 16  1  0
 16 17  1  0
 17 18  1  0
 18 19  1  0
 19 20  2  0
 19 21  2  0
 19 22  1  0
 22 23  1  0
 23 24  1  0
 24 25  1  0
 25 26  1  0
 26 27  1  0
 18 28  1  0
 28 29  1  0
 14  4  1  0
 29 15  1  0
 11  5  1  0
 27 22  1  0
M  END
>  <energy_score>  (4354) 
-29.262195

>  <inchikey>  (4354) 
KVLWKWCKHCLDDU-UHFFFAOYSA-N

>  <smiles>  (4354) 
O=C(OC1(c2cc(CCl)no2)COC1)C1CCN(S(=O)(=O)N2CCCCC2)CC1

>  <ref_pdb>  (4354) 
A0875a

>  <alias>  (4354) 
KVLWKWCKHCLDDU-UHFFFAOYSA-N-P439-P87-P439-601505

>  <HIPPO Pose ID>  (4354) 
508473

>  <name>  (4354) 
KVLWKWCKHCLDDU-UHFFFAOYSA-N-P439-P87-P439-601505

>  <HIPPO Compound ID>  (4354) 
314772

>  <ref_mols>  (4354) 
A4706a,A0875a

>  <distance_score>  (4354) 
1.867968

>  <inspiration_score>  (4354) 
None

$$$$
ZJYJYOYHIWXZJW-UHFFFAOYSA-N-P439-P87-P439-601505
     RDKit          3D

 29 32  0  0  0  0  0  0  0  0999 V2000
    5.2826   16.0924   22.4591 N   0  0  0  0  0  0  0  0  0  0  0  0
    6.3216   16.3513   22.0584 N   0  0  0  0  0  0  0  0  0  0  0  0
    7.4394   16.5678   21.5392 N   0  0  0  0  0  0  0  0  0  0  0  0
    8.1801   15.3819   21.0993 C   0  0  1  0  0  0  0  0  0  0  0  0
    9.2239   15.6884   20.0034 C   0  0  0  0  0  0  0  0  0  0  0  0
   10.2937   14.8376   20.3153 O   0  0  0  0  0  0  0  0  0  0  0  0
   10.3629   14.7575   21.7457 C   0  0  0  0  0  0  0  0  0  0  0  0
   11.4533   13.8378   22.2538 C   0  0  0  0  0  0  0  0  0  0  0  0
   12.3852   15.0502   22.1840 C   0  0  0  0  0  0  0  0  0  0  0  0
   11.1838   15.9250   22.3673 C   0  0  0  0  0  0  0  0  0  0  0  0
    8.9622   14.9059   22.2998 C   0  0  2  0  0  0  0  0  0  0  0  0
    8.3091   13.7296   22.8284 O   0  0  0  0  0  0  0  0  0  0  0  0
    7.4392   14.0495   23.8447 C   0  0  0  0  0  0  0  0  0  0  0  0
    7.2367   15.1796   24.2772 O   0  0  0  0  0  0  0  0  0  0  0  0
    6.6994   12.8604   24.4048 C   0  0  0  0  0  0  0  0  0  0  0  0
    7.6293   11.6715   24.6394 C   0  0  0  0  0  0  0  0  0  0  0  0
    8.1956   11.6364   26.0371 C   0  0  0  0  0  0  0  0  0  0  0  0
    8.3449   12.9793   26.5722 N   0  0  0  0  0  0  0  0  0  0  0  0
    9.7007   13.9268   26.3532 S   0  0  0  0  0  0  0  0  0  0  0  0
    9.8443   14.3673   24.9939 O   0  0  0  0  0  0  0  0  0  0  0  0
    9.6885   14.8904   27.4245 O   0  0  0  0  0  0  0  0  0  0  0  0
   10.9725   12.8302   26.6364 N   0  0  0  0  0  0  0  0  0  0  0  0
   12.0814   13.5210   27.3514 C   0  0  0  0  0  0  0  0  0  0  0  0
   13.3495   12.6747   27.4156 C   0  0  0  0  0  0  0  0  0  0  0  0
   13.8434   12.2272   26.0526 C   0  0  0  0  0  0  0  0  0  0  0  0
   12.7878   12.4892   25.0059 C   0  0  0  0  0  0  0  0  0  0  0  0
   11.4112   12.0521   25.4434 C   0  0  0  0  0  0  0  0  0  0  0  0
    7.0554   13.6929   26.7777 C   0  0  0  0  0  0  0  0  0  0  0  0
    6.0253   13.2629   25.7275 C   0  0  0  0  0  0  0  0  0  0  0  0
  1  2  2  0
  2  3  2  0
  4  3  1  1
  4  5  1  0
  5  6  1  0
  6  7  1  0
  7  8  1  0
  8  9  1  0
  9 10  1  0
  7 11  1  0
 11 12  1  6
 12 13  1  0
 13 14  2  0
 13 15  1  0
 15 16  1  0
 16 17  1  0
 17 18  1  0
 18 19  1  0
 19 20  2  0
 19 21  2  0
 19 22  1  0
 22 23  1  0
 23 24  1  0
 24 25  1  0
 25 26  1  0
 26 27  1  0
 18 28  1  0
 28 29  1  0
 11  4  1  0
 29 15  1  0
 10  7  1  0
 27 22  1  0
M  CHG  2   1  -1   2   1
M  END
>  <energy_score>  (4355) 
-54.542072

>  <inchikey>  (4355) 
ZJYJYOYHIWXZJW-UHFFFAOYSA-N

>  <smiles>  (4355) 
[N-]=[N+]=NC1COC2(CCC2)C1OC(=O)C1CCN(S(=O)(=O)N2CCCCC2)CC1

>  <ref_pdb>  (4355) 
A0875a

>  <alias>  (4355) 
ZJYJYOYHIWXZJW-UHFFFAOYSA-N-P439-P87-P439-601505

>  <HIPPO Pose ID>  (4355) 
508481

>  <name>  (4355) 
ZJYJYOYHIWXZJW-UHFFFAOYSA-N-P439-P87-P439-601505

>  <HIPPO Compound ID>  (4355) 
314776

>  <ref_mols>  (4355) 
A4706a,A0875a

>  <distance_score>  (4355) 
1.645297

>  <inspiration_score>  (4355) 
None

$$$$
FKAHBMYZQJDILD-UHFFFAOYSA-N-P439-P87-P439-601505
     RDKit          3D

 29 30  0  0  0  0  0  0  0  0999 V2000
   14.5706    8.6242   31.7379 C   0  0  0  0  0  0  0  0  0  0  0  0
   15.6631    9.1040   31.5972 C   0  0  0  0  0  0  0  0  0  0  0  0
   17.0053    9.6977   31.4227 C   0  0  0  0  0  0  0  0  0  0  0  0
   17.2224   10.8538   32.4065 C   0  0  0  0  0  0  0  0  0  0  0  0
   18.0675    8.6210   31.6800 C   0  0  0  0  0  0  0  0  0  0  0  0
   17.2306   10.1425   30.0722 O   0  0  0  0  0  0  0  0  0  0  0  0
   16.2253   10.9822   29.5092 C   0  0  0  0  0  0  0  0  0  0  0  0
   16.7675   11.6420   28.2349 C   0  0  2  0  0  0  0  0  0  0  0  0
   17.8653   12.6622   28.5694 C   0  0  0  0  0  0  0  0  0  0  0  0
   17.3411   13.6676   29.4509 O   0  0  0  0  0  0  0  0  0  0  0  0
   18.3355   14.6341   29.7753 C   0  0  0  0  0  0  0  0  0  0  0  0
   15.6937   12.3540   27.5769 O   0  0  0  0  0  0  0  0  0  0  0  0
   14.9531   11.6638   26.6735 C   0  0  0  0  0  0  0  0  0  0  0  0
   15.1494   10.5207   26.2939 O   0  0  0  0  0  0  0  0  0  0  0  0
   13.8154   12.5299   26.1884 C   0  0  0  0  0  0  0  0  0  0  0  0
   12.9434   12.9480   27.3539 C   0  0  0  0  0  0  0  0  0  0  0  0
   11.6743   13.6947   26.9592 C   0  0  0  0  0  0  0  0  0  0  0  0
   10.9636   13.0870   25.8017 N   0  0  0  0  0  0  0  0  0  0  0  0
    9.6121   14.0332   25.3400 S   0  0  0  0  0  0  0  0  0  0  0  0
    9.2715   13.7539   23.9690 O   0  0  0  0  0  0  0  0  0  0  0  0
    9.8585   15.3794   25.7914 O   0  0  0  0  0  0  0  0  0  0  0  0
    8.4509   13.3590   26.3622 N   0  0  0  0  0  0  0  0  0  0  0  0
    7.2974   14.2418   26.6786 C   0  0  0  0  0  0  0  0  0  0  0  0
    6.3330   14.2962   25.5050 C   0  0  0  0  0  0  0  0  0  0  0  0
    5.8589   12.8957   25.1415 C   0  0  0  0  0  0  0  0  0  0  0  0
    7.0093   11.9162   24.9515 C   0  0  0  0  0  0  0  0  0  0  0  0
    8.0220   11.9725   26.0773 C   0  0  0  0  0  0  0  0  0  0  0  0
   11.8535   12.7660   24.6694 C   0  0  0  0  0  0  0  0  0  0  0  0
   12.9373   11.8196   25.1775 C   0  0  0  0  0  0  0  0  0  0  0  0
  1  2  3  0
  2  3  1  0
  3  4  1  0
  3  5  1  0
  3  6  1  0
  6  7  1  0
  8  7  1  1
  8  9  1  0
  9 10  1  0
 10 11  1  0
  8 12  1  0
 12 13  1  0
 13 14  2  0
 13 15  1  0
 15 16  1  0
 16 17  1  0
 17 18  1  0
 18 19  1  0
 19 20  2  0
 19 21  2  0
 19 22  1  0
 22 23  1  0
 23 24  1  0
 24 25  1  0
 25 26  1  0
 26 27  1  0
 18 28  1  0
 28 29  1  0
 29 15  1  0
 27 22  1  0
M  END
>  <energy_score>  (4356) 
-106.359552

>  <inchikey>  (4356) 
FKAHBMYZQJDILD-UHFFFAOYSA-N

>  <smiles>  (4356) 
C#CC(C)(C)OCC(COC)OC(=O)C1CCN(S(=O)(=O)N2CCCCC2)CC1

>  <ref_pdb>  (4356) 
A0875a

>  <alias>  (4356) 
FKAHBMYZQJDILD-UHFFFAOYSA-N-P439-P87-P439-601505

>  <HIPPO Pose ID>  (4356) 
508485

>  <name>  (4356) 
FKAHBMYZQJDILD-UHFFFAOYSA-N-P439-P87-P439-601505

>  <HIPPO Compound ID>  (4356) 
314778

>  <ref_mols>  (4356) 
A4706a,A0875a

>  <distance_score>  (4356) 
1.980429

>  <inspiration_score>  (4356) 
None

$$$$
OJOFNKBUUQTRJY-UHFFFAOYSA-N-P87-P87-P439-601505
     RDKit          3D

 29 31  0  0  0  0  0  0  0  0999 V2000
    8.4964   17.5613   23.2366 C   0  0  0  0  0  0  0  0  0  0  0  0
    8.6797   16.2397   22.8374 O   0  0  0  0  0  0  0  0  0  0  0  0
    8.8835   16.2331   21.5046 C   0  0  0  0  0  0  0  0  0  0  0  0
    8.7694   17.2054   20.7680 O   0  0  0  0  0  0  0  0  0  0  0  0
    9.3713   14.8918   21.0730 C   0  0  2  0  0  0  0  0  0  0  0  0
    8.8567   13.7279   21.7387 O   0  0  0  0  0  0  0  0  0  0  0  0
    7.6783   13.6683   22.3581 C   0  0  0  0  0  0  0  0  0  0  0  0
    6.6786   14.2849   22.0408 O   0  0  0  0  0  0  0  0  0  0  0  0
    7.7597   12.6793   23.5312 C   0  0  0  0  0  0  0  0  0  0  0  0
    8.9710   11.7085   23.5151 C   0  0  0  0  0  0  0  0  0  0  0  0
    9.2680   11.1063   24.8502 C   0  0  0  0  0  0  0  0  0  0  0  0
    9.2864   12.1901   25.8134 N   0  0  0  0  0  0  0  0  0  0  0  0
   10.4644   13.4420   25.6666 S   0  0  0  0  0  0  0  0  0  0  0  0
   10.2808   14.3385   26.7894 O   0  0  0  0  0  0  0  0  0  0  0  0
   10.5393   13.9723   24.3410 O   0  0  0  0  0  0  0  0  0  0  0  0
   11.8480   12.5213   26.0115 N   0  0  0  0  0  0  0  0  0  0  0  0
   12.4471   11.7369   24.9288 C   0  0  0  0  0  0  0  0  0  0  0  0
   13.9168   12.0314   24.7234 C   0  0  0  0  0  0  0  0  0  0  0  0
   14.7606   11.9045   25.9591 C   0  0  0  0  0  0  0  0  0  0  0  0
   14.0913   12.5297   27.1603 C   0  0  0  0  0  0  0  0  0  0  0  0
   12.7769   13.2448   26.8758 C   0  0  0  0  0  0  0  0  0  0  0  0
    7.9011   12.6621   25.9909 C   0  0  0  0  0  0  0  0  0  0  0  0
    7.5672   13.4581   24.7708 C   0  0  0  0  0  0  0  0  0  0  0  0
   10.8183   14.8342   21.3362 C   0  0  0  0  0  0  0  0  0  0  0  0
   11.2053   13.5935   21.7231 O   0  0  0  0  0  0  0  0  0  0  0  0
   12.4554   13.6925   22.1392 C   0  0  0  0  0  0  0  0  0  0  0  0
   12.9334   14.9518   21.9881 C   0  0  0  0  0  0  0  0  0  0  0  0
   11.9243   15.6436   21.3311 C   0  0  0  0  0  0  0  0  0  0  0  0
   12.3627   17.3421   20.7700 Br  0  0  0  0  0  0  0  0  0  0  0  0
  1  2  1  0
  2  3  1  0
  3  4  2  0
  3  5  1  0
  5  6  1  1
  6  7  1  0
  7  8  2  0
  7  9  1  0
  9 10  1  0
 10 11  1  0
 11 12  1  0
 12 13  1  0
 13 14  2  0
 13 15  2  0
 13 16  1  0
 16 17  1  0
 17 18  1  0
 18 19  1  0
 19 20  1  0
 20 21  1  0
 12 22  1  0
 22 23  1  0
  5 24  1  0
 24 25  1  0
 25 26  1  0
 26 27  2  0
 27 28  1  0
 28 29  1  0
 23  9  1  0
 28 24  2  0
 21 16  1  0
M  END
>  <energy_score>  (4357) 
-20.614268

>  <inchikey>  (4357) 
OJOFNKBUUQTRJY-UHFFFAOYSA-N

>  <smiles>  (4357) 
COC(=O)C(OC(=O)C1CCN(S(=O)(=O)N2CCCCC2)CC1)c1occc1Br

>  <ref_pdb>  (4357) 
A0875a

>  <alias>  (4357) 
OJOFNKBUUQTRJY-UHFFFAOYSA-N-P87-P87-P439-601505

>  <HIPPO Pose ID>  (4357) 
508494

>  <name>  (4357) 
OJOFNKBUUQTRJY-UHFFFAOYSA-N-P87-P87-P439-601505

>  <HIPPO Compound ID>  (4357) 
314783

>  <ref_mols>  (4357) 
A4706a,A0875a

>  <distance_score>  (4357) 
1.867189

>  <inspiration_score>  (4357) 
None

$$$$
OJOFNKBUUQTRJY-UHFFFAOYSA-N-P439-P87-P439-601505
     RDKit          3D

 29 31  0  0  0  0  0  0  0  0999 V2000
    8.9128   17.9056   20.5974 C   0  0  0  0  0  0  0  0  0  0  0  0
    8.0104   17.5396   21.6309 O   0  0  0  0  0  0  0  0  0  0  0  0
    7.4537   16.3447   21.8458 C   0  0  0  0  0  0  0  0  0  0  0  0
    6.2821   16.2743   22.2488 O   0  0  0  0  0  0  0  0  0  0  0  0
    8.2522   15.0765   21.7192 C   0  0  2  0  0  0  0  0  0  0  0  0
    7.9446   14.5760   23.0609 O   0  0  0  0  0  0  0  0  0  0  0  0
    6.9591   13.6709   23.1980 C   0  0  0  0  0  0  0  0  0  0  0  0
    6.5170   13.0010   22.2708 O   0  0  0  0  0  0  0  0  0  0  0  0
    6.4246   13.5522   24.6306 C   0  0  0  0  0  0  0  0  0  0  0  0
    6.6187   12.1437   25.2123 C   0  0  0  0  0  0  0  0  0  0  0  0
    7.9475   11.8484   25.9074 C   0  0  0  0  0  0  0  0  0  0  0  0
    8.6379   13.0806   26.3584 N   0  0  0  0  0  0  0  0  0  0  0  0
    9.8645   13.6224   25.3357 S   0  0  0  0  0  0  0  0  0  0  0  0
   10.0895   15.0227   25.5956 O   0  0  0  0  0  0  0  0  0  0  0  0
    9.6017   13.0663   24.0343 O   0  0  0  0  0  0  0  0  0  0  0  0
   11.2351   12.7884   25.9087 N   0  0  0  0  0  0  0  0  0  0  0  0
   12.2273   12.6321   24.8170 C   0  0  0  0  0  0  0  0  0  0  0  0
   13.2590   11.6194   25.2716 C   0  0  0  0  0  0  0  0  0  0  0  0
   14.0655   12.2202   26.3979 C   0  0  0  0  0  0  0  0  0  0  0  0
   13.1548   12.7214   27.5098 C   0  0  0  0  0  0  0  0  0  0  0  0
   11.8758   13.4535   27.0682 C   0  0  0  0  0  0  0  0  0  0  0  0
    7.6660   14.1174   26.7932 C   0  0  0  0  0  0  0  0  0  0  0  0
    6.8524   14.6493   25.6179 C   0  0  0  0  0  0  0  0  0  0  0  0
    9.7302   15.1787   21.5934 C   0  0  0  0  0  0  0  0  0  0  0  0
   10.4351   15.3220   22.7593 O   0  0  0  0  0  0  0  0  0  0  0  0
   11.7399   15.2253   22.4533 C   0  0  0  0  0  0  0  0  0  0  0  0
   11.9273   15.1641   21.1102 C   0  0  0  0  0  0  0  0  0  0  0  0
   10.6454   15.1064   20.5653 C   0  0  0  0  0  0  0  0  0  0  0  0
   10.4866   14.9572   18.7344 Br  0  0  0  0  0  0  0  0  0  0  0  0
  1  2  1  0
  2  3  1  0
  3  4  2  0
  3  5  1  0
  5  6  1  1
  6  7  1  0
  7  8  2  0
  7  9  1  0
  9 10  1  0
 10 11  1  0
 11 12  1  0
 12 13  1  0
 13 14  2  0
 13 15  2  0
 13 16  1  0
 16 17  1  0
 17 18  1  0
 18 19  1  0
 19 20  1  0
 20 21  1  0
 12 22  1  0
 22 23  1  0
  5 24  1  0
 24 25  1  0
 25 26  1  0
 26 27  2  0
 27 28  1  0
 28 29  1  0
 23  9  1  0
 28 24  2  0
 21 16  1  0
M  END
>  <energy_score>  (4358) 
-43.803356

>  <inchikey>  (4358) 
OJOFNKBUUQTRJY-UHFFFAOYSA-N

>  <smiles>  (4358) 
COC(=O)C(OC(=O)C1CCN(S(=O)(=O)N2CCCCC2)CC1)c1occc1Br

>  <ref_pdb>  (4358) 
A0875a

>  <alias>  (4358) 
OJOFNKBUUQTRJY-UHFFFAOYSA-N-P439-P87-P439-601505

>  <HIPPO Pose ID>  (4358) 
508495

>  <name>  (4358) 
OJOFNKBUUQTRJY-UHFFFAOYSA-N-P439-P87-P439-601505

>  <HIPPO Compound ID>  (4358) 
314783

>  <ref_mols>  (4358) 
A4706a,A0875a

>  <distance_score>  (4358) 
1.501031

>  <inspiration_score>  (4358) 
None

$$$$
VMAKZNCXFGGVOK-UHFFFAOYSA-N-P87-P87-P439-601505
     RDKit          3D

 29 30  0  0  0  0  0  0  0  0999 V2000
   18.9359   14.2823   33.2983 C   0  0  0  0  0  0  0  0  0  0  0  0
   18.3488   14.2776   31.8957 C   0  0  0  0  0  0  0  0  0  0  0  0
   16.9056   14.7840   31.8944 C   0  0  0  0  0  0  0  0  0  0  0  0
   16.3065   14.9100   30.4917 C   0  0  0  0  0  0  0  0  0  0  0  0
   16.1668   13.5730   29.7673 C   0  0  0  0  0  0  0  0  0  0  0  0
   15.3956   13.7281   28.4603 C   0  0  0  0  0  0  0  0  0  0  0  0
   15.3015   12.4617   27.8028 O   0  0  0  0  0  0  0  0  0  0  0  0
   16.3543   12.2570   26.8511 C   0  0  0  0  0  0  0  0  0  0  0  0
   16.4613   10.7503   26.5356 C   0  0  1  0  0  0  0  0  0  0  0  0
   17.0161   10.0320   27.7686 C   0  0  0  0  0  0  0  0  0  0  0  0
   17.8266    8.5109   27.2987 Cl  0  0  0  0  0  0  0  0  0  0  0  0
   15.1479   10.2313   26.1838 O   0  0  0  0  0  0  0  0  0  0  0  0
   14.6729   10.7437   25.0199 C   0  0  0  0  0  0  0  0  0  0  0  0
   15.3622   10.9631   24.0355 O   0  0  0  0  0  0  0  0  0  0  0  0
   13.2038   11.1104   25.1356 C   0  0  0  0  0  0  0  0  0  0  0  0
   13.1331   12.4378   24.4125 C   0  0  0  0  0  0  0  0  0  0  0  0
   12.0258   13.2031   25.0218 C   0  0  0  0  0  0  0  0  0  0  0  0
   10.7832   12.4084   25.1805 N   0  0  0  0  0  0  0  0  0  0  0  0
    9.5709   13.5711   25.2419 S   0  0  0  0  0  0  0  0  0  0  0  0
    9.6516   14.3136   24.0064 O   0  0  0  0  0  0  0  0  0  0  0  0
    9.8371   14.1811   26.5245 O   0  0  0  0  0  0  0  0  0  0  0  0
    8.1559   12.7267   25.2584 N   0  0  0  0  0  0  0  0  0  0  0  0
    7.5152   12.6030   23.9741 C   0  0  0  0  0  0  0  0  0  0  0  0
    6.5940   13.7645   23.6753 C   0  0  0  0  0  0  0  0  0  0  0  0
    5.5282   13.9391   24.7511 C   0  0  0  0  0  0  0  0  0  0  0  0
    5.8222   13.2770   26.1046 C   0  0  0  0  0  0  0  0  0  0  0  0
    7.1977   12.6352   26.3569 C   0  0  0  0  0  0  0  0  0  0  0  0
   10.7241   11.1834   24.3615 C   0  0  0  0  0  0  0  0  0  0  0  0
   11.9310   10.2560   24.7565 C   0  0  0  0  0  0  0  0  0  0  0  0
  1  2  1  0
  2  3  1  0
  3  4  1  0
  4  5  1  0
  5  6  1  0
  6  7  1  0
  7  8  1  0
  9  8  1  1
  9 10  1  0
 10 11  1  0
  9 12  1  0
 12 13  1  0
 13 14  2  0
 13 15  1  0
 15 16  1  0
 16 17  1  0
 17 18  1  0
 18 19  1  0
 19 20  2  0
 19 21  2  0
 19 22  1  0
 22 23  1  0
 23 24  1  0
 24 25  1  0
 25 26  1  0
 26 27  1  0
 18 28  1  0
 28 29  1  0
 29 15  1  0
 27 22  1  0
M  END
>  <energy_score>  (4359) 
-5.592944

>  <inchikey>  (4359) 
VMAKZNCXFGGVOK-UHFFFAOYSA-N

>  <smiles>  (4359) 
CCCCCCOCC(CCl)OC(=O)C1CCN(S(=O)(=O)N2CCCCC2)CC1

>  <ref_pdb>  (4359) 
A0875a

>  <alias>  (4359) 
VMAKZNCXFGGVOK-UHFFFAOYSA-N-P87-P87-P439-601505

>  <HIPPO Pose ID>  (4359) 
508506

>  <name>  (4359) 
VMAKZNCXFGGVOK-UHFFFAOYSA-N-P87-P87-P439-601505

>  <HIPPO Compound ID>  (4359) 
314789

>  <ref_mols>  (4359) 
A4706a,A0875a

>  <distance_score>  (4359) 
1.741409

>  <inspiration_score>  (4359) 
None

$$$$
HKYACQUNJVRYAR-UHFFFAOYSA-N-P87-P87-P439-601505
     RDKit          3D

 29 31  0  0  0  0  0  0  0  0999 V2000
   19.6572    8.9998   28.9866 C   0  0  0  0  0  0  0  0  0  0  0  0
   18.9199    9.7666   28.1803 C   0  0  0  0  0  0  0  0  0  0  0  0
   18.7408   11.2607   28.0642 C   0  0  0  0  0  0  0  0  0  0  0  0
   17.4718   10.9152   27.2336 C   0  0  0  0  0  0  0  0  0  0  0  0
   16.1374   11.2570   27.9047 C   0  0  2  0  0  0  0  0  0  0  0  0
   15.8132   10.4562   29.1724 C   0  0  0  0  0  0  0  0  0  0  0  0
   16.1717   11.2029   30.3544 O   0  0  0  0  0  0  0  0  0  0  0  0
   15.2517   12.1329   30.7400 C   0  0  0  0  0  0  0  0  0  0  0  0
   15.7033   12.8241   31.9884 C   0  0  0  0  0  0  0  0  0  0  0  0
   14.2098   12.3750   30.1461 O   0  0  0  0  0  0  0  0  0  0  0  0
   14.9896   11.2823   26.9906 O   0  0  0  0  0  0  0  0  0  0  0  0
   14.8453   10.6145   25.8269 C   0  0  0  0  0  0  0  0  0  0  0  0
   15.5332    9.6773   25.4610 O   0  0  0  0  0  0  0  0  0  0  0  0
   13.6171   11.1074   25.0407 C   0  0  0  0  0  0  0  0  0  0  0  0
   13.2568   12.5343   25.4044 C   0  0  0  0  0  0  0  0  0  0  0  0
   11.8058   12.8034   25.6357 C   0  0  0  0  0  0  0  0  0  0  0  0
   11.0365   12.2612   24.5319 N   0  0  0  0  0  0  0  0  0  0  0  0
    9.5523   13.0450   24.3366 S   0  0  0  0  0  0  0  0  0  0  0  0
    8.8191   12.3910   23.2845 O   0  0  0  0  0  0  0  0  0  0  0  0
    8.9647   13.1947   25.6490 O   0  0  0  0  0  0  0  0  0  0  0  0
   10.0539   14.5365   23.7803 N   0  0  0  0  0  0  0  0  0  0  0  0
   11.2519   14.6099   22.9054 C   0  0  0  0  0  0  0  0  0  0  0  0
   10.9246   14.1832   21.5149 C   0  0  0  0  0  0  0  0  0  0  0  0
    9.8958   15.1543   21.0076 C   0  0  0  0  0  0  0  0  0  0  0  0
    8.6414   15.1612   21.8262 C   0  0  0  0  0  0  0  0  0  0  0  0
    8.9399   15.3880   23.2772 C   0  0  0  0  0  0  0  0  0  0  0  0
   11.0129   10.7948   24.4704 C   0  0  0  0  0  0  0  0  0  0  0  0
   12.3723   10.1586   24.8823 C   0  0  0  0  0  0  0  0  0  0  0  0
   17.9654    9.4492   27.0537 C   0  0  0  0  0  0  0  0  0  0  0  0
  1  2  2  0
  2  3  1  0
  3  4  1  0
  4  5  1  0
  5  6  1  1
  6  7  1  0
  7  8  1  0
  8  9  1  0
  8 10  2  0
  5 11  1  0
 11 12  1  0
 12 13  2  0
 12 14  1  0
 14 15  1  0
 15 16  1  0
 16 17  1  0
 17 18  1  0
 18 19  2  0
 18 20  2  0
 18 21  1  0
 21 22  1  0
 22 23  1  0
 23 24  1  0
 24 25  1  0
 25 26  1  0
 17 27  1  0
 27 28  1  0
  4 29  1  0
 29  2  1  0
 28 14  1  0
 26 21  1  0
M  END
>  <energy_score>  (4360) 
-44.332787

>  <inchikey>  (4360) 
HKYACQUNJVRYAR-UHFFFAOYSA-N

>  <smiles>  (4360) 
C=C1CC(C(COC(C)=O)OC(=O)C2CCN(S(=O)(=O)N3CCCCC3)CC2)C1

>  <ref_pdb>  (4360) 
A0875a

>  <alias>  (4360) 
HKYACQUNJVRYAR-UHFFFAOYSA-N-P87-P87-P439-601505

>  <HIPPO Pose ID>  (4360) 
508514

>  <name>  (4360) 
HKYACQUNJVRYAR-UHFFFAOYSA-N-P87-P87-P439-601505

>  <HIPPO Compound ID>  (4360) 
314793

>  <ref_mols>  (4360) 
A4706a,A0875a

>  <distance_score>  (4360) 
1.664621

>  <inspiration_score>  (4360) 
None

$$$$
HKYACQUNJVRYAR-UHFFFAOYSA-N-P439-P87-P439-601505
     RDKit          3D

 29 31  0  0  0  0  0  0  0  0999 V2000
   19.3393    9.9069   29.8637 C   0  0  0  0  0  0  0  0  0  0  0  0
   18.4948    9.7553   28.8424 C   0  0  0  0  0  0  0  0  0  0  0  0
   18.4331   10.3367   27.4527 C   0  0  0  0  0  0  0  0  0  0  0  0
   16.8995    9.9960   27.5341 C   0  0  0  0  0  0  0  0  0  0  0  0
   15.8496   11.0421   27.9977 C   0  0  1  0  0  0  0  0  0  0  0  0
   16.4392   12.4393   28.1562 C   0  0  0  0  0  0  0  0  0  0  0  0
   15.4586   13.3269   28.7531 O   0  0  0  0  0  0  0  0  0  0  0  0
   15.4253   13.6218   30.0791 C   0  0  0  0  0  0  0  0  0  0  0  0
   16.3703   12.8956   30.9881 C   0  0  0  0  0  0  0  0  0  0  0  0
   14.6504   14.4776   30.4947 O   0  0  0  0  0  0  0  0  0  0  0  0
   14.6008   11.0965   27.1833 O   0  0  0  0  0  0  0  0  0  0  0  0
   14.6327   11.3348   25.8537 C   0  0  0  0  0  0  0  0  0  0  0  0
   15.6410   11.2687   25.1761 O   0  0  0  0  0  0  0  0  0  0  0  0
   13.3217   11.8137   25.2412 C   0  0  0  0  0  0  0  0  0  0  0  0
   13.1451   13.2533   25.6447 C   0  0  0  0  0  0  0  0  0  0  0  0
   11.7098   13.7516   25.7998 C   0  0  0  0  0  0  0  0  0  0  0  0
   10.9080   13.1292   24.7379 N   0  0  0  0  0  0  0  0  0  0  0  0
    9.4589   13.9301   24.3943 S   0  0  0  0  0  0  0  0  0  0  0  0
    8.6035   13.0013   23.6968 O   0  0  0  0  0  0  0  0  0  0  0  0
    9.0277   14.5579   25.6224 O   0  0  0  0  0  0  0  0  0  0  0  0
    9.8962   15.1119   23.3027 N   0  0  0  0  0  0  0  0  0  0  0  0
   11.2611   15.2769   22.7785 C   0  0  0  0  0  0  0  0  0  0  0  0
   11.4756   14.5507   21.4727 C   0  0  0  0  0  0  0  0  0  0  0  0
   10.4257   14.9324   20.4486 C   0  0  0  0  0  0  0  0  0  0  0  0
    9.0445   14.7061   21.0330 C   0  0  0  0  0  0  0  0  0  0  0  0
    8.8646   15.5096   22.3069 C   0  0  0  0  0  0  0  0  0  0  0  0
   10.7512   11.6832   24.9792 C   0  0  0  0  0  0  0  0  0  0  0  0
   12.0535   11.1051   25.5649 C   0  0  0  0  0  0  0  0  0  0  0  0
   17.2520    8.9293   28.6392 C   0  0  0  0  0  0  0  0  0  0  0  0
  1  2  2  0
  2  3  1  0
  3  4  1  0
  4  5  1  0
  5  6  1  6
  6  7  1  0
  7  8  1  0
  8  9  1  0
  8 10  2  0
  5 11  1  0
 11 12  1  0
 12 13  2  0
 12 14  1  0
 14 15  1  0
 15 16  1  0
 16 17  1  0
 17 18  1  0
 18 19  2  0
 18 20  2  0
 18 21  1  0
 21 22  1  0
 22 23  1  0
 23 24  1  0
 24 25  1  0
 25 26  1  0
 17 27  1  0
 27 28  1  0
  4 29  1  0
 29  2  1  0
 28 14  1  0
 26 21  1  0
M  END
>  <energy_score>  (4361) 
-38.905037

>  <inchikey>  (4361) 
HKYACQUNJVRYAR-UHFFFAOYSA-N

>  <smiles>  (4361) 
C=C1CC(C(COC(C)=O)OC(=O)C2CCN(S(=O)(=O)N3CCCCC3)CC2)C1

>  <ref_pdb>  (4361) 
A0875a

>  <alias>  (4361) 
HKYACQUNJVRYAR-UHFFFAOYSA-N-P439-P87-P439-601505

>  <HIPPO Pose ID>  (4361) 
508515

>  <name>  (4361) 
HKYACQUNJVRYAR-UHFFFAOYSA-N-P439-P87-P439-601505

>  <HIPPO Compound ID>  (4361) 
314793

>  <ref_mols>  (4361) 
A4706a,A0875a

>  <distance_score>  (4361) 
1.413936

>  <inspiration_score>  (4361) 
None

$$$$
SZLGGFHPOAIKIY-UHFFFAOYSA-N-P439-P87-P439-601505
     RDKit          3D

 29 32  0  0  0  0  0  0  0  0999 V2000
   12.1959   14.4200   23.9775 N   0  0  0  0  0  0  0  0  0  0  0  0
   11.9959   13.9286   22.9820 N   0  0  0  0  0  0  0  0  0  0  0  0
   11.8329   13.3903   21.8937 N   0  0  0  0  0  0  0  0  0  0  0  0
   11.7551   14.3331   20.7900 C   0  0  0  0  0  0  0  0  0  0  0  0
   10.4390   15.0438   20.8461 C   0  0  2  0  0  0  0  0  0  0  0  0
   10.1273   15.6687   19.4945 C   0  0  0  0  0  0  0  0  0  0  0  0
    9.2719   16.7598   19.8497 O   0  0  0  0  0  0  0  0  0  0  0  0
    8.9970   16.6206   21.2707 C   0  0  2  0  0  0  0  0  0  0  0  0
   10.3691   16.2391   21.7740 C   0  0  0  0  0  0  0  0  0  0  0  0
    8.1530   15.3477   21.5392 C   0  0  2  0  0  0  0  0  0  0  0  0
    7.5340   15.3017   22.8394 O   0  0  0  0  0  0  0  0  0  0  0  0
    6.6675   14.2654   23.0409 C   0  0  0  0  0  0  0  0  0  0  0  0
    6.4526   13.3796   22.2146 O   0  0  0  0  0  0  0  0  0  0  0  0
    5.9343   14.3165   24.3985 C   0  0  0  0  0  0  0  0  0  0  0  0
    5.7887   12.9048   25.0183 C   0  0  0  0  0  0  0  0  0  0  0  0
    6.7345   12.5489   26.1666 C   0  0  0  0  0  0  0  0  0  0  0  0
    7.8681   13.4870   26.2239 N   0  0  0  0  0  0  0  0  0  0  0  0
    9.0456   13.2958   25.0448 S   0  0  0  0  0  0  0  0  0  0  0  0
    8.5735   12.2906   24.1262 O   0  0  0  0  0  0  0  0  0  0  0  0
    9.4844   14.5995   24.6181 O   0  0  0  0  0  0  0  0  0  0  0  0
   10.2919   12.6122   25.9303 N   0  0  0  0  0  0  0  0  0  0  0  0
   11.0373   11.5624   25.2203 C   0  0  0  0  0  0  0  0  0  0  0  0
   12.5452   11.4929   25.4530 C   0  0  0  0  0  0  0  0  0  0  0  0
   13.0664   12.0930   26.7329 C   0  0  0  0  0  0  0  0  0  0  0  0
   12.4175   13.4238   26.9339 C   0  0  0  0  0  0  0  0  0  0  0  0
   10.9202   13.4909   26.9130 C   0  0  0  0  0  0  0  0  0  0  0  0
    7.4025   14.8609   26.4816 C   0  0  0  0  0  0  0  0  0  0  0  0
    6.4294   15.3561   25.4129 C   0  0  0  0  0  0  0  0  0  0  0  0
    9.2088   14.2623   21.3275 C   0  0  0  0  0  0  0  0  0  0  0  0
  1  2  2  0
  2  3  2  0
  3  4  1  0
  5  4  1  6
  5  6  1  0
  6  7  1  0
  8  7  1  6
  8  9  1  0
  8 10  1  0
 10 11  1  1
 11 12  1  0
 12 13  2  0
 12 14  1  0
 14 15  1  0
 15 16  1  0
 16 17  1  0
 17 18  1  0
 18 19  2  0
 18 20  2  0
 18 21  1  0
 21 22  1  0
 22 23  1  0
 23 24  1  0
 24 25  1  0
 25 26  1  0
 17 27  1  0
 27 28  1  0
 10 29  1  0
  9  5  1  0
 28 14  1  0
 29  5  1  0
 26 21  1  0
M  CHG  2   1  -1   2   1
M  END
>  <energy_score>  (4362) 
-46.578981

>  <inchikey>  (4362) 
SZLGGFHPOAIKIY-UHFFFAOYSA-N

>  <smiles>  (4362) 
[N-]=[N+]=NCC12COC(C1)C(OC(=O)C1CCN(S(=O)(=O)N3CCCCC3)CC1)C2

>  <ref_pdb>  (4362) 
A0875a

>  <alias>  (4362) 
SZLGGFHPOAIKIY-UHFFFAOYSA-N-P439-P87-P439-601505

>  <HIPPO Pose ID>  (4362) 
508519

>  <name>  (4362) 
SZLGGFHPOAIKIY-UHFFFAOYSA-N-P439-P87-P439-601505

>  <HIPPO Compound ID>  (4362) 
314795

>  <ref_mols>  (4362) 
A4706a,A0875a

>  <distance_score>  (4362) 
1.91833

>  <inspiration_score>  (4362) 
None

$$$$
OQBQKIKKCWEJOZ-UHFFFAOYSA-N-P439-P87-P439-601505
     RDKit          3D

 29 32  0  0  0  0  0  0  0  0999 V2000
    5.5722   14.5677   22.5730 O   0  0  0  0  0  0  0  0  0  0  0  0
    6.0516   13.8013   23.3980 C   0  0  0  0  0  0  0  0  0  0  0  0
    7.2951   13.2617   23.3020 O   0  0  0  0  0  0  0  0  0  0  0  0
    8.2052   13.9267   22.4058 C   0  0  2  0  0  0  0  0  0  0  0  0
    9.5438   13.2101   22.4388 C   0  0  0  0  0  0  0  0  0  0  0  0
   10.5260   14.0650   23.0173 O   0  0  0  0  0  0  0  0  0  0  0  0
   10.0917   15.3991   22.7521 C   0  0  1  0  0  0  0  0  0  0  0  0
   10.5413   15.6771   21.3760 C   0  0  0  0  0  0  0  0  0  0  0  0
   11.5191   15.0561   20.6161 C   0  0  0  0  0  0  0  0  0  0  0  0
   11.2635   15.0527   19.2733 N   0  0  0  0  0  0  0  0  0  0  0  0
   10.1679   15.7443   19.1293 C   0  0  0  0  0  0  0  0  0  0  0  0
    9.0171   15.4545   17.9598 Cl  0  0  0  0  0  0  0  0  0  0  0  0
    9.6281   16.7132   20.3918 S   0  0  0  0  0  0  0  0  0  0  0  0
    8.5702   15.3094   22.8849 C   0  0  0  0  0  0  0  0  0  0  0  0
    5.3361   13.4028   24.6863 C   0  0  0  0  0  0  0  0  0  0  0  0
    5.9945   12.2516   25.4793 C   0  0  0  0  0  0  0  0  0  0  0  0
    6.9356   12.7621   26.5692 C   0  0  0  0  0  0  0  0  0  0  0  0
    7.5548   13.9901   26.0527 N   0  0  0  0  0  0  0  0  0  0  0  0
    9.1094   14.4275   26.4764 S   0  0  0  0  0  0  0  0  0  0  0  0
    9.2756   14.1950   27.8849 O   0  0  0  0  0  0  0  0  0  0  0  0
    9.3663   15.7310   25.9311 O   0  0  0  0  0  0  0  0  0  0  0  0
   10.1536   13.4017   25.6549 N   0  0  0  0  0  0  0  0  0  0  0  0
    9.8989   11.9748   25.7541 C   0  0  0  0  0  0  0  0  0  0  0  0
   10.9883   11.1324   25.1407 C   0  0  0  0  0  0  0  0  0  0  0  0
   12.4033   11.5689   25.5140 C   0  0  0  0  0  0  0  0  0  0  0  0
   12.5749   13.0100   25.1320 C   0  0  0  0  0  0  0  0  0  0  0  0
   11.5611   13.8296   25.9037 C   0  0  0  0  0  0  0  0  0  0  0  0
    6.5714   15.1123   26.1137 C   0  0  0  0  0  0  0  0  0  0  0  0
    5.2154   14.6466   25.5743 C   0  0  0  0  0  0  0  0  0  0  0  0
  1  2  2  0
  2  3  1  0
  4  3  1  1
  4  5  1  0
  5  6  1  0
  6  7  1  0
  7  8  1  6
  8  9  2  0
  9 10  1  0
 10 11  2  0
 11 12  1  0
 11 13  1  0
  7 14  1  0
  2 15  1  0
 15 16  1  0
 16 17  1  0
 17 18  1  0
 18 19  1  0
 19 20  2  0
 19 21  2  0
 19 22  1  0
 22 23  1  0
 23 24  1  0
 24 25  1  0
 25 26  1  0
 26 27  1  0
 18 28  1  0
 28 29  1  0
 14  4  1  0
 29 15  1  0
 13  8  1  0
 27 22  1  0
M  END
>  <energy_score>  (4363) 
-110.301485

>  <inchikey>  (4363) 
OQBQKIKKCWEJOZ-UHFFFAOYSA-N

>  <smiles>  (4363) 
O=C(OC1COC(c2cnc(Cl)s2)C1)C1CCN(S(=O)(=O)N2CCCCC2)CC1

>  <ref_pdb>  (4363) 
A0875a

>  <alias>  (4363) 
OQBQKIKKCWEJOZ-UHFFFAOYSA-N-P439-P87-P439-601505

>  <HIPPO Pose ID>  (4363) 
508525

>  <name>  (4363) 
OQBQKIKKCWEJOZ-UHFFFAOYSA-N-P439-P87-P439-601505

>  <HIPPO Compound ID>  (4363) 
314799

>  <ref_mols>  (4363) 
A4706a,A0875a

>  <distance_score>  (4363) 
1.949803

>  <inspiration_score>  (4363) 
None

$$$$
PDWTVEGUZPJCNS-UHFFFAOYSA-N-P87-P87-P439-601505
     RDKit          3D

 29 32  0  0  0  0  0  0  0  0999 V2000
   13.6688   11.4799   27.3324 O   0  0  0  0  0  0  0  0  0  0  0  0
   14.3084   11.3818   26.3055 C   0  0  0  0  0  0  0  0  0  0  0  0
   15.6511   11.5452   26.2779 O   0  0  0  0  0  0  0  0  0  0  0  0
   16.3770   11.8269   27.5679 C   0  0  2  0  0  0  0  0  0  0  0  0
   16.0328   13.2687   28.0798 C   0  0  0  0  0  0  0  0  0  0  0  0
   17.2133   14.1536   28.5364 C   0  0  0  0  0  0  0  0  0  0  0  0
   17.7160   13.8404   29.9483 C   0  0  0  0  0  0  0  0  0  0  0  0
   16.6613   13.4043   30.8593 N   0  0  0  0  0  0  0  0  0  0  0  0
   15.3622   13.9454   30.4865 C   0  0  0  0  0  0  0  0  0  0  0  0
   14.9184   13.3280   29.1592 C   0  0  0  0  0  0  0  0  0  0  0  0
   17.8480   11.6295   27.2274 C   0  0  0  0  0  0  0  0  0  0  0  0
   17.9534   10.1270   27.0810 C   0  0  0  0  0  0  0  0  0  0  0  0
   17.0340    9.5770   28.0315 O   0  0  0  0  0  0  0  0  0  0  0  0
   16.2458   10.6639   28.5652 C   0  0  0  0  0  0  0  0  0  0  0  0
   13.6192   11.0910   24.9618 C   0  0  0  0  0  0  0  0  0  0  0  0
   13.2560   12.4553   24.4295 C   0  0  0  0  0  0  0  0  0  0  0  0
   12.0799   13.0013   25.2017 C   0  0  0  0  0  0  0  0  0  0  0  0
   10.8270   12.2026   25.0439 N   0  0  0  0  0  0  0  0  0  0  0  0
    9.5894   13.2987   24.7229 S   0  0  0  0  0  0  0  0  0  0  0  0
    9.9523   14.0256   23.5287 O   0  0  0  0  0  0  0  0  0  0  0  0
    9.4964   13.9503   26.0040 O   0  0  0  0  0  0  0  0  0  0  0  0
    8.1215   12.5444   24.4261 N   0  0  0  0  0  0  0  0  0  0  0  0
    7.5940   11.6324   25.4372 C   0  0  0  0  0  0  0  0  0  0  0  0
    6.8178   12.3255   26.5338 C   0  0  0  0  0  0  0  0  0  0  0  0
    5.6948   13.2164   26.0647 C   0  0  0  0  0  0  0  0  0  0  0  0
    5.8067   13.7414   24.6482 C   0  0  0  0  0  0  0  0  0  0  0  0
    7.0906   13.4987   23.8502 C   0  0  0  0  0  0  0  0  0  0  0  0
   10.9912   10.9391   24.3424 C   0  0  0  0  0  0  0  0  0  0  0  0
   12.2930   10.1991   24.8489 C   0  0  0  0  0  0  0  0  0  0  0  0
  1  2  2  0
  2  3  1  0
  4  3  1  6
  4  5  1  0
  5  6  1  0
  6  7  1  0
  7  8  1  0
  8  9  1  0
  9 10  1  0
  4 11  1  0
 11 12  1  0
 12 13  1  0
 13 14  1  0
  2 15  1  0
 15 16  1  0
 16 17  1  0
 17 18  1  0
 18 19  1  0
 19 20  2  0
 19 21  2  0
 19 22  1  0
 22 23  1  0
 23 24  1  0
 24 25  1  0
 25 26  1  0
 26 27  1  0
 18 28  1  0
 28 29  1  0
 14  4  1  0
 29 15  1  0
 10  5  1  0
 27 22  1  0
M  END
>  <energy_score>  (4364) 
-25.711227

>  <inchikey>  (4364) 
PDWTVEGUZPJCNS-UHFFFAOYSA-N

>  <smiles>  (4364) 
O=C(OC1(C2CCNCC2)CCOC1)C1CCN(S(=O)(=O)N2CCCCC2)CC1

>  <ref_pdb>  (4364) 
A0875a

>  <alias>  (4364) 
PDWTVEGUZPJCNS-UHFFFAOYSA-N-P87-P87-P439-601505

>  <HIPPO Pose ID>  (4364) 
508546

>  <name>  (4364) 
PDWTVEGUZPJCNS-UHFFFAOYSA-N-P87-P87-P439-601505

>  <HIPPO Compound ID>  (4364) 
314810

>  <ref_mols>  (4364) 
A4706a,A0875a

>  <distance_score>  (4364) 
1.486239

>  <inspiration_score>  (4364) 
None

$$$$
PDWTVEGUZPJCNS-UHFFFAOYSA-N-P439-P87-P439-601505
     RDKit          3D

 29 32  0  0  0  0  0  0  0  0999 V2000
   15.2385   10.6793   26.5406 O   0  0  0  0  0  0  0  0  0  0  0  0
   14.8948   11.7788   26.9352 C   0  0  0  0  0  0  0  0  0  0  0  0
   15.4034   12.4731   27.9912 O   0  0  0  0  0  0  0  0  0  0  0  0
   16.3949   12.0101   28.9828 C   0  0  2  0  0  0  0  0  0  0  0  0
   16.3117   13.0776   30.1199 C   0  0  0  0  0  0  0  0  0  0  0  0
   17.4312   13.0018   31.1867 C   0  0  0  0  0  0  0  0  0  0  0  0
   16.9962   13.5241   32.5605 C   0  0  0  0  0  0  0  0  0  0  0  0
   16.0914   14.6555   32.4149 N   0  0  0  0  0  0  0  0  0  0  0  0
   14.8236   14.2742   31.7944 C   0  0  0  0  0  0  0  0  0  0  0  0
   14.9404   13.0891   30.8266 C   0  0  0  0  0  0  0  0  0  0  0  0
   17.7664   11.9060   28.3406 C   0  0  0  0  0  0  0  0  0  0  0  0
   17.8900   10.4424   27.9683 C   0  0  0  0  0  0  0  0  0  0  0  0
   17.0158    9.6988   28.8199 O   0  0  0  0  0  0  0  0  0  0  0  0
   16.1318   10.5972   29.4993 C   0  0  0  0  0  0  0  0  0  0  0  0
   13.7829   12.5892   26.2740 C   0  0  0  0  0  0  0  0  0  0  0  0
   12.8711   13.1294   27.3565 C   0  0  0  0  0  0  0  0  0  0  0  0
   11.6212   13.8382   26.8773 C   0  0  0  0  0  0  0  0  0  0  0  0
   10.8921   13.0741   25.8346 N   0  0  0  0  0  0  0  0  0  0  0  0
    9.5465   14.0034   25.3297 S   0  0  0  0  0  0  0  0  0  0  0  0
   10.0206   14.9570   24.3556 O   0  0  0  0  0  0  0  0  0  0  0  0
    8.8679   14.4460   26.5241 O   0  0  0  0  0  0  0  0  0  0  0  0
    8.5525   12.8912   24.5584 N   0  0  0  0  0  0  0  0  0  0  0  0
    8.1388   11.6897   25.3124 C   0  0  0  0  0  0  0  0  0  0  0  0
    6.9976   11.9545   26.2905 C   0  0  0  0  0  0  0  0  0  0  0  0
    6.0131   13.0250   25.8311 C   0  0  0  0  0  0  0  0  0  0  0  0
    6.0536   13.1900   24.3272 C   0  0  0  0  0  0  0  0  0  0  0  0
    7.4384   13.5553   23.8107 C   0  0  0  0  0  0  0  0  0  0  0  0
   11.7861   12.6760   24.7199 C   0  0  0  0  0  0  0  0  0  0  0  0
   12.9230   11.8067   25.2818 C   0  0  0  0  0  0  0  0  0  0  0  0
  1  2  2  0
  2  3  1  0
  4  3  1  6
  4  5  1  0
  5  6  1  0
  6  7  1  0
  7  8  1  0
  8  9  1  0
  9 10  1  0
  4 11  1  0
 11 12  1  0
 12 13  1  0
 13 14  1  0
  2 15  1  0
 15 16  1  0
 16 17  1  0
 17 18  1  0
 18 19  1  0
 19 20  2  0
 19 21  2  0
 19 22  1  0
 22 23  1  0
 23 24  1  0
 24 25  1  0
 25 26  1  0
 26 27  1  0
 18 28  1  0
 28 29  1  0
 14  4  1  0
 29 15  1  0
 10  5  1  0
 27 22  1  0
M  END
>  <energy_score>  (4365) 
-67.159792

>  <inchikey>  (4365) 
PDWTVEGUZPJCNS-UHFFFAOYSA-N

>  <smiles>  (4365) 
O=C(OC1(C2CCNCC2)CCOC1)C1CCN(S(=O)(=O)N2CCCCC2)CC1

>  <ref_pdb>  (4365) 
A0875a

>  <alias>  (4365) 
PDWTVEGUZPJCNS-UHFFFAOYSA-N-P439-P87-P439-601505

>  <HIPPO Pose ID>  (4365) 
508547

>  <name>  (4365) 
PDWTVEGUZPJCNS-UHFFFAOYSA-N-P439-P87-P439-601505

>  <HIPPO Compound ID>  (4365) 
314810

>  <ref_mols>  (4365) 
A4706a,A0875a

>  <distance_score>  (4365) 
1.797447

>  <inspiration_score>  (4365) 
None

$$$$
MGBJPBPHKBEHIB-UHFFFAOYSA-N-P87-P87-P439-601505
     RDKit          3D

 29 30  0  0  0  0  0  0  0  0999 V2000
   18.6059    8.4663   27.8770 C   0  0  0  0  0  0  0  0  0  0  0  0
   19.3209    9.7545   27.5185 C   0  0  0  0  0  0  0  0  0  0  0  0
   18.3340   10.7882   27.4179 O   0  0  0  0  0  0  0  0  0  0  0  0
   18.8320   12.0378   27.1868 C   0  0  0  0  0  0  0  0  0  0  0  0
   20.0221   12.2923   27.0563 O   0  0  0  0  0  0  0  0  0  0  0  0
   17.7178   13.0883   27.1614 C   0  0  1  0  0  0  0  0  0  0  0  0
   16.4397   12.4137   27.0675 O   0  0  0  0  0  0  0  0  0  0  0  0
   15.7720   12.4380   25.8881 C   0  0  0  0  0  0  0  0  0  0  0  0
   16.1116   12.9488   24.8473 O   0  0  0  0  0  0  0  0  0  0  0  0
   14.4904   11.7065   25.9894 C   0  0  0  0  0  0  0  0  0  0  0  0
   13.6192   12.3993   26.9787 C   0  0  0  0  0  0  0  0  0  0  0  0
   12.3796   13.1413   26.4793 C   0  0  0  0  0  0  0  0  0  0  0  0
   11.7476   12.6449   25.2345 N   0  0  0  0  0  0  0  0  0  0  0  0
   10.4071   13.6364   24.8011 S   0  0  0  0  0  0  0  0  0  0  0  0
   10.8239   14.6713   23.8942 O   0  0  0  0  0  0  0  0  0  0  0  0
    9.7979   13.9436   26.0720 O   0  0  0  0  0  0  0  0  0  0  0  0
    9.3194   12.6961   23.9654 N   0  0  0  0  0  0  0  0  0  0  0  0
    9.3004   11.2564   24.1215 C   0  0  0  0  0  0  0  0  0  0  0  0
    8.5476   10.8777   25.3597 C   0  0  0  0  0  0  0  0  0  0  0  0
    7.1775   11.4857   25.5339 C   0  0  0  0  0  0  0  0  0  0  0  0
    7.1173   12.9339   25.1420 C   0  0  0  0  0  0  0  0  0  0  0  0
    7.9548   13.3104   23.9155 C   0  0  0  0  0  0  0  0  0  0  0  0
   12.7808   12.5060   24.2059 C   0  0  0  0  0  0  0  0  0  0  0  0
   13.7594   11.4181   24.6954 C   0  0  0  0  0  0  0  0  0  0  0  0
   17.7524   13.9460   28.4557 C   0  0  0  0  0  0  0  0  0  0  0  0
   17.7141   13.0752   29.7291 C   0  0  0  0  0  0  0  0  0  0  0  0
   18.9927   14.8554   28.4996 C   0  0  0  0  0  0  0  0  0  0  0  0
   16.5494   14.8094   28.4789 C   0  0  0  0  0  0  0  0  0  0  0  0
   15.5741   15.4342   28.5369 N   0  0  0  0  0  0  0  0  0  0  0  0
  1  2  1  0
  2  3  1  0
  3  4  1  0
  4  5  2  0
  4  6  1  0
  6  7  1  1
  7  8  1  0
  8  9  2  0
  8 10  1  0
 10 11  1  0
 11 12  1  0
 12 13  1  0
 13 14  1  0
 14 15  2  0
 14 16  2  0
 14 17  1  0
 17 18  1  0
 18 19  1  0
 19 20  1  0
 20 21  1  0
 21 22  1  0
 13 23  1  0
 23 24  1  0
  6 25  1  0
 25 26  1  0
 25 27  1  0
 25 28  1  0
 28 29  3  0
 24 10  1  0
 22 17  1  0
M  END
>  <energy_score>  (4366) 
-47.964951

>  <inchikey>  (4366) 
MGBJPBPHKBEHIB-UHFFFAOYSA-N

>  <smiles>  (4366) 
CCOC(=O)C(OC(=O)C1CCN(S(=O)(=O)N2CCCCC2)CC1)C(C)(C)C#N

>  <ref_pdb>  (4366) 
A0875a

>  <alias>  (4366) 
MGBJPBPHKBEHIB-UHFFFAOYSA-N-P87-P87-P439-601505

>  <HIPPO Pose ID>  (4366) 
508550

>  <name>  (4366) 
MGBJPBPHKBEHIB-UHFFFAOYSA-N-P87-P87-P439-601505

>  <HIPPO Compound ID>  (4366) 
314812

>  <ref_mols>  (4366) 
A4706a,A0875a

>  <distance_score>  (4366) 
1.93734

>  <inspiration_score>  (4366) 
None

$$$$
ZJKVQNKMLMQWOD-UHFFFAOYSA-N-P439-P87-P439-601505
     RDKit          3D

 29 31  0  0  0  0  0  0  0  0999 V2000
   11.4117   14.7927   18.4811 C   0  0  0  0  0  0  0  0  0  0  0  0
   10.3407   14.2311   19.2216 O   0  0  0  0  0  0  0  0  0  0  0  0
   10.1763   14.9199   20.4374 C   0  0  0  0  0  0  0  0  0  0  0  0
   11.3254   14.8620   21.2634 O   0  0  0  0  0  0  0  0  0  0  0  0
   11.5044   13.6557   21.9512 C   0  0  0  0  0  0  0  0  0  0  0  0
    8.7516   14.7856   21.1446 C   0  0  1  0  0  0  0  0  0  0  0  0
    8.3977   13.7061   22.0807 O   0  0  0  0  0  0  0  0  0  0  0  0
    7.0700   13.6283   22.4138 C   0  0  0  0  0  0  0  0  0  0  0  0
    6.1748   13.8613   21.6051 O   0  0  0  0  0  0  0  0  0  0  0  0
    6.6951   13.2447   23.8681 C   0  0  0  0  0  0  0  0  0  0  0  0
    7.4323   12.0185   24.4363 C   0  0  0  0  0  0  0  0  0  0  0  0
    7.5591   11.9836   25.9458 C   0  0  0  0  0  0  0  0  0  0  0  0
    7.9991   13.2823   26.4590 N   0  0  0  0  0  0  0  0  0  0  0  0
    9.4731   13.9254   25.9219 S   0  0  0  0  0  0  0  0  0  0  0  0
    9.4118   13.9443   24.4906 O   0  0  0  0  0  0  0  0  0  0  0  0
    9.6749   15.1261   26.6933 O   0  0  0  0  0  0  0  0  0  0  0  0
   10.6471   12.7920   26.3090 N   0  0  0  0  0  0  0  0  0  0  0  0
   11.9572   13.4004   26.6998 C   0  0  0  0  0  0  0  0  0  0  0  0
   13.0560   13.2595   25.6440 C   0  0  0  0  0  0  0  0  0  0  0  0
   13.1322   11.9599   24.9091 C   0  0  0  0  0  0  0  0  0  0  0  0
   12.1464   11.0401   25.5133 C   0  0  0  0  0  0  0  0  0  0  0  0
   10.7677   11.6425   25.3665 C   0  0  0  0  0  0  0  0  0  0  0  0
    6.8681   14.2424   26.2659 C   0  0  0  0  0  0  0  0  0  0  0  0
    6.6327   14.4961   24.7756 C   0  0  0  0  0  0  0  0  0  0  0  0
    8.6885   16.0407   21.9672 C   0  0  0  0  0  0  0  0  0  0  0  0
    9.7670   16.0357   22.9344 C   0  0  0  0  0  0  0  0  0  0  0  0
   10.6818   16.0020   23.6570 N   0  0  0  0  0  0  0  0  0  0  0  0
    7.3187   16.6416   22.1428 C   0  0  0  0  0  0  0  0  0  0  0  0
    8.3478   17.3809   21.3312 C   0  0  0  0  0  0  0  0  0  0  0  0
  1  2  1  0
  2  3  1  0
  3  4  1  0
  4  5  1  0
  3  6  1  0
  6  7  1  1
  7  8  1  0
  8  9  2  0
  8 10  1  0
 10 11  1  0
 11 12  1  0
 12 13  1  0
 13 14  1  0
 14 15  2  0
 14 16  2  0
 14 17  1  0
 17 18  1  0
 18 19  1  0
 19 20  1  0
 20 21  1  0
 21 22  1  0
 13 23  1  0
 23 24  1  0
  6 25  1  0
 25 26  1  0
 26 27  3  0
 25 28  1  0
 28 29  1  0
 24 10  1  0
 29 25  1  0
 22 17  1  0
M  END
>  <energy_score>  (4367) 
-2.657778

>  <inchikey>  (4367) 
ZJKVQNKMLMQWOD-UHFFFAOYSA-N

>  <smiles>  (4367) 
COC(OC)C(OC(=O)C1CCN(S(=O)(=O)N2CCCCC2)CC1)C1(C#N)CC1

>  <ref_pdb>  (4367) 
A0875a

>  <alias>  (4367) 
ZJKVQNKMLMQWOD-UHFFFAOYSA-N-P439-P87-P439-601505

>  <HIPPO Pose ID>  (4367) 
508553

>  <name>  (4367) 
ZJKVQNKMLMQWOD-UHFFFAOYSA-N-P439-P87-P439-601505

>  <HIPPO Compound ID>  (4367) 
314813

>  <ref_mols>  (4367) 
A4706a,A0875a

>  <distance_score>  (4367) 
1.140574

>  <inspiration_score>  (4367) 
None

$$$$
PWGOPABTXHTWJV-UHFFFAOYSA-N-P439-P87-P439-601505
     RDKit          3D

 29 32  0  0  0  0  0  0  0  0999 V2000
   11.6384   14.8276   19.7183 N   0  0  0  0  0  0  0  0  0  0  0  0
   10.5714   15.0813   20.5743 C   0  0  0  0  0  0  0  0  0  0  0  0
    9.6933   16.1215   20.3317 C   0  0  0  0  0  0  0  0  0  0  0  0
    8.5312   16.2896   21.1036 C   0  0  0  0  0  0  0  0  0  0  0  0
    8.0611   15.3161   21.9912 C   0  0  0  0  0  0  0  0  0  0  0  0
    6.5461   15.3747   22.7155 C   0  0  0  0  0  0  0  0  0  0  0  0
    6.4841   14.5778   23.8841 O   0  0  0  0  0  0  0  0  0  0  0  0
    6.2767   13.2673   23.6427 C   0  0  0  0  0  0  0  0  0  0  0  0
    5.9618   12.7509   22.5934 O   0  0  0  0  0  0  0  0  0  0  0  0
    6.6162   12.6321   24.9073 C   0  0  0  0  0  0  0  0  0  0  0  0
    7.2967   11.3148   25.0411 C   0  0  0  0  0  0  0  0  0  0  0  0
    8.1168   11.4144   26.3100 C   0  0  0  0  0  0  0  0  0  0  0  0
    8.2112   12.8004   26.8508 N   0  0  0  0  0  0  0  0  0  0  0  0
    9.4401   13.8968   26.4672 S   0  0  0  0  0  0  0  0  0  0  0  0
    9.2869   14.4625   25.1521 O   0  0  0  0  0  0  0  0  0  0  0  0
    9.5470   14.7694   27.6091 O   0  0  0  0  0  0  0  0  0  0  0  0
   10.7822   12.8739   26.4433 N   0  0  0  0  0  0  0  0  0  0  0  0
   11.0728   12.2544   25.1220 C   0  0  0  0  0  0  0  0  0  0  0  0
   12.3609   12.8198   24.5719 C   0  0  0  0  0  0  0  0  0  0  0  0
   13.5218   12.4029   25.4748 C   0  0  0  0  0  0  0  0  0  0  0  0
   13.1933   12.6542   26.9369 C   0  0  0  0  0  0  0  0  0  0  0  0
   11.9510   13.5160   27.0946 C   0  0  0  0  0  0  0  0  0  0  0  0
    6.8899   13.4130   27.2085 C   0  0  0  0  0  0  0  0  0  0  0  0
    5.8544   13.0663   26.1425 C   0  0  0  0  0  0  0  0  0  0  0  0
    5.9448   16.7377   23.0661 C   0  0  0  0  0  0  0  0  0  0  0  0
    4.9153   16.5906   22.0668 O   0  0  0  0  0  0  0  0  0  0  0  0
    5.2398   15.2144   21.8876 C   0  0  0  0  0  0  0  0  0  0  0  0
    8.9989   14.2859   22.2220 C   0  0  0  0  0  0  0  0  0  0  0  0
   10.2420   14.1935   21.5804 C   0  0  0  0  0  0  0  0  0  0  0  0
  1  2  1  0
  2  3  2  0
  3  4  1  0
  4  5  2  0
  5  6  1  0
  6  7  1  0
  7  8  1  0
  8  9  2  0
  8 10  1  0
 10 11  1  0
 11 12  1  0
 12 13  1  0
 13 14  1  0
 14 15  2  0
 14 16  2  0
 14 17  1  0
 17 18  1  0
 18 19  1  0
 19 20  1  0
 20 21  1  0
 21 22  1  0
 13 23  1  0
 23 24  1  0
  6 25  1  0
 25 26  1  0
 26 27  1  0
  5 28  1  0
 28 29  2  0
 29  2  1  0
 27  6  1  0
 24 10  1  0
 22 17  1  0
M  END
>  <energy_score>  (4368) 
-45.941617

>  <inchikey>  (4368) 
PWGOPABTXHTWJV-UHFFFAOYSA-N

>  <smiles>  (4368) 
Nc1ccc(C2(OC(=O)C3CCN(S(=O)(=O)N4CCCCC4)CC3)COC2)cc1

>  <ref_pdb>  (4368) 
A0875a

>  <alias>  (4368) 
PWGOPABTXHTWJV-UHFFFAOYSA-N-P439-P87-P439-601505

>  <HIPPO Pose ID>  (4368) 
508557

>  <name>  (4368) 
PWGOPABTXHTWJV-UHFFFAOYSA-N-P439-P87-P439-601505

>  <HIPPO Compound ID>  (4368) 
314815

>  <ref_mols>  (4368) 
A4706a,A0875a

>  <distance_score>  (4368) 
1.908429

>  <inspiration_score>  (4368) 
None

$$$$
DHLMJOSNCQIOLE-UHFFFAOYSA-N-P439-P87-P439-601505
     RDKit          3D

 30 32  0  0  0  0  0  0  0  0999 V2000
    3.3776   14.4144   21.6749 C   0  0  0  0  0  0  0  0  0  0  0  0
    4.7496   13.8184   21.4356 C   0  0  0  0  0  0  0  0  0  0  0  0
    5.7322   14.8613   21.4924 O   0  0  0  0  0  0  0  0  0  0  0  0
    7.0241   14.4799   21.7421 C   0  0  0  0  0  0  0  0  0  0  0  0
    7.3650   13.3055   21.7312 O   0  0  0  0  0  0  0  0  0  0  0  0
    7.8846   15.6835   22.1216 C   0  0  1  0  0  0  0  0  0  0  0  0
    7.6180   15.7798   23.5573 O   0  0  0  0  0  0  0  0  0  0  0  0
    6.3964   16.0026   24.0876 C   0  0  0  0  0  0  0  0  0  0  0  0
    5.4461   16.5195   23.5196 O   0  0  0  0  0  0  0  0  0  0  0  0
    6.2979   15.4155   25.5004 C   0  0  0  0  0  0  0  0  0  0  0  0
    5.7296   13.9801   25.3685 C   0  0  0  0  0  0  0  0  0  0  0  0
    6.1977   13.0197   26.4523 C   0  0  0  0  0  0  0  0  0  0  0  0
    7.6779   13.0940   26.5803 N   0  0  0  0  0  0  0  0  0  0  0  0
    8.4754   12.5751   25.1875 S   0  0  0  0  0  0  0  0  0  0  0  0
    8.7094   13.6844   24.3205 O   0  0  0  0  0  0  0  0  0  0  0  0
    7.7127   11.4371   24.7309 O   0  0  0  0  0  0  0  0  0  0  0  0
    9.9886   12.0036   25.6974 N   0  0  0  0  0  0  0  0  0  0  0  0
   10.3679   10.9033   24.7603 C   0  0  0  0  0  0  0  0  0  0  0  0
   11.6475   10.2502   25.2338 C   0  0  0  0  0  0  0  0  0  0  0  0
   12.7930   11.2626   25.4499 C   0  0  0  0  0  0  0  0  0  0  0  0
   12.3631   12.4866   26.2355 C   0  0  0  0  0  0  0  0  0  0  0  0
   11.0523   13.0580   25.7092 C   0  0  0  0  0  0  0  0  0  0  0  0
    8.0207   14.3961   27.1737 C   0  0  0  0  0  0  0  0  0  0  0  0
    7.6181   15.5628   26.2871 C   0  0  0  0  0  0  0  0  0  0  0  0
    9.4092   15.4207   21.9705 C   0  0  0  0  0  0  0  0  0  0  0  0
   10.2785   15.3917   22.9841 N   0  0  0  0  0  0  0  0  0  0  0  0
   11.4979   15.0760   22.4702 C   0  0  0  0  0  0  0  0  0  0  0  0
   11.4359   14.9843   21.1140 C   0  0  0  0  0  0  0  0  0  0  0  0
   10.1340   15.2610   20.7973 N   0  0  0  0  0  0  0  0  0  0  0  0
    9.7287   15.4231   19.4318 C   0  0  0  0  0  0  0  0  0  0  0  0
  1  2  1  0
  2  3  1  0
  3  4  1  0
  4  5  2  0
  4  6  1  0
  6  7  1  1
  7  8  1  0
  8  9  2  0
  8 10  1  0
 10 11  1  0
 11 12  1  0
 12 13  1  0
 13 14  1  0
 14 15  2  0
 14 16  2  0
 14 17  1  0
 17 18  1  0
 18 19  1  0
 19 20  1  0
 20 21  1  0
 21 22  1  0
 13 23  1  0
 23 24  1  0
  6 25  1  0
 25 26  2  0
 26 27  1  0
 27 28  2  0
 28 29  1  0
 29 30  1  0
 24 10  1  0
 29 25  1  0
 22 17  1  0
M  END
>  <energy_score>  (4369) 
-18.67594

>  <inchikey>  (4369) 
DHLMJOSNCQIOLE-UHFFFAOYSA-N

>  <smiles>  (4369) 
CCOC(=O)C(OC(=O)C1CCN(S(=O)(=O)N2CCCCC2)CC1)c1nccn1C

>  <ref_pdb>  (4369) 
A0875a

>  <alias>  (4369) 
DHLMJOSNCQIOLE-UHFFFAOYSA-N-P439-P87-P439-601505

>  <HIPPO Pose ID>  (4369) 
508565

>  <name>  (4369) 
DHLMJOSNCQIOLE-UHFFFAOYSA-N-P439-P87-P439-601505

>  <HIPPO Compound ID>  (4369) 
314819

>  <ref_mols>  (4369) 
A4706a,A0875a

>  <distance_score>  (4369) 
1.981479

>  <inspiration_score>  (4369) 
None

$$$$
PANRWVDCWLWUPA-UHFFFAOYSA-N-P439-P87-P439-601505
     RDKit          3D

 30 32  0  0  0  0  0  0  0  0999 V2000
    9.3938   10.2921   23.4449 C   0  0  0  0  0  0  0  0  0  0  0  0
    8.7706   11.5474   23.1523 O   0  0  0  0  0  0  0  0  0  0  0  0
    9.5889   12.5516   22.7174 C   0  0  0  0  0  0  0  0  0  0  0  0
   10.7924   12.4121   22.5713 O   0  0  0  0  0  0  0  0  0  0  0  0
    8.8184   13.8659   22.5480 C   0  0  2  0  0  0  0  0  0  0  0  0
    9.8035   15.0511   22.5053 C   0  0  0  0  0  0  0  0  0  0  0  0
   10.4214   15.1636   21.1678 C   0  0  0  0  0  0  0  0  0  0  0  0
    9.6004   15.4349   20.0988 C   0  0  0  0  0  0  0  0  0  0  0  0
   10.0851   15.2404   18.8331 C   0  0  0  0  0  0  0  0  0  0  0  0
   11.3338   14.8410   18.5730 N   0  0  0  0  0  0  0  0  0  0  0  0
   12.1246   14.6805   19.6442 C   0  0  0  0  0  0  0  0  0  0  0  0
   11.7390   14.8492   20.9493 C   0  0  0  0  0  0  0  0  0  0  0  0
    7.9613   14.0669   23.6802 O   0  0  0  0  0  0  0  0  0  0  0  0
    6.7732   13.4391   23.7057 C   0  0  0  0  0  0  0  0  0  0  0  0
    6.2215   12.9752   22.7193 O   0  0  0  0  0  0  0  0  0  0  0  0
    6.2758   13.2970   25.1347 C   0  0  0  0  0  0  0  0  0  0  0  0
    7.0010   12.1049   25.7714 C   0  0  0  0  0  0  0  0  0  0  0  0
    8.4630   12.4309   26.0966 C   0  0  0  0  0  0  0  0  0  0  0  0
    8.6522   13.6926   26.8351 N   0  0  0  0  0  0  0  0  0  0  0  0
    9.8578   14.8116   26.4158 S   0  0  0  0  0  0  0  0  0  0  0  0
    9.9373   15.7049   27.5408 O   0  0  0  0  0  0  0  0  0  0  0  0
    9.5373   15.3444   25.1269 O   0  0  0  0  0  0  0  0  0  0  0  0
   11.3440   14.0282   26.3077 N   0  0  0  0  0  0  0  0  0  0  0  0
   11.8012   13.3970   27.5134 C   0  0  0  0  0  0  0  0  0  0  0  0
   13.2474   12.9142   27.5204 C   0  0  0  0  0  0  0  0  0  0  0  0
   13.7374   12.3348   26.2111 C   0  0  0  0  0  0  0  0  0  0  0  0
   12.5929   12.1378   25.2535 C   0  0  0  0  0  0  0  0  0  0  0  0
   11.7498   13.3874   25.0671 C   0  0  0  0  0  0  0  0  0  0  0  0
    7.3533   14.3492   27.1996 C   0  0  0  0  0  0  0  0  0  0  0  0
    6.4556   14.5659   25.9789 C   0  0  0  0  0  0  0  0  0  0  0  0
  1  2  1  0
  2  3  1  0
  3  4  2  0
  3  5  1  0
  5  6  1  1
  6  7  1  0
  7  8  2  0
  8  9  1  0
  9 10  2  0
 10 11  1  0
 11 12  2  0
  5 13  1  0
 13 14  1  0
 14 15  2  0
 14 16  1  0
 16 17  1  0
 17 18  1  0
 18 19  1  0
 19 20  1  0
 20 21  2  0
 20 22  2  0
 20 23  1  0
 23 24  1  0
 24 25  1  0
 25 26  1  0
 26 27  1  0
 27 28  1  0
 19 29  1  0
 29 30  1  0
 12  7  1  0
 30 16  1  0
 28 23  1  0
M  END
>  <energy_score>  (4370) 
-39.080788

>  <inchikey>  (4370) 
PANRWVDCWLWUPA-UHFFFAOYSA-N

>  <smiles>  (4370) 
COC(=O)C(Cc1ccncc1)OC(=O)C1CCN(S(=O)(=O)N2CCCCC2)CC1

>  <ref_pdb>  (4370) 
A0875a

>  <alias>  (4370) 
PANRWVDCWLWUPA-UHFFFAOYSA-N-P439-P87-P439-601505

>  <HIPPO Pose ID>  (4370) 
508579

>  <name>  (4370) 
PANRWVDCWLWUPA-UHFFFAOYSA-N-P439-P87-P439-601505

>  <HIPPO Compound ID>  (4370) 
314826

>  <ref_mols>  (4370) 
A4706a,A0875a

>  <distance_score>  (4370) 
1.658002

>  <inspiration_score>  (4370) 
None

$$$$
YQHDYVKSXOVWBM-UHFFFAOYSA-N-P439-P87-P439-601505
     RDKit          3D

 30 32  0  0  0  0  0  0  0  0999 V2000
    4.4734   15.1500   22.4081 C   0  0  0  0  0  0  0  0  0  0  0  0
    5.6651   15.4492   21.7048 O   0  0  0  0  0  0  0  0  0  0  0  0
    6.6723   16.1737   22.4408 C   0  0  0  0  0  0  0  0  0  0  0  0
    7.7913   15.2367   22.9909 C   0  0  1  0  0  0  0  0  0  0  0  0
    7.1439   14.0388   23.4827 O   0  0  0  0  0  0  0  0  0  0  0  0
    6.4470   14.2750   24.6294 C   0  0  0  0  0  0  0  0  0  0  0  0
    6.2580   15.3920   25.1065 O   0  0  0  0  0  0  0  0  0  0  0  0
    5.8720   13.0414   25.3027 C   0  0  0  0  0  0  0  0  0  0  0  0
    6.6577   11.7404   25.1276 C   0  0  0  0  0  0  0  0  0  0  0  0
    7.6797   11.4730   26.2204 C   0  0  0  0  0  0  0  0  0  0  0  0
    8.2330   12.7383   26.7155 N   0  0  0  0  0  0  0  0  0  0  0  0
    9.4118   13.4265   25.7375 S   0  0  0  0  0  0  0  0  0  0  0  0
    9.4613   14.8344   26.0388 O   0  0  0  0  0  0  0  0  0  0  0  0
    9.1655   12.9182   24.4135 O   0  0  0  0  0  0  0  0  0  0  0  0
   10.8396   12.6841   26.2809 N   0  0  0  0  0  0  0  0  0  0  0  0
   11.7155   13.5788   27.0751 C   0  0  0  0  0  0  0  0  0  0  0  0
   13.0258   12.8974   27.4809 C   0  0  0  0  0  0  0  0  0  0  0  0
   13.8044   12.2993   26.3331 C   0  0  0  0  0  0  0  0  0  0  0  0
   12.9812   12.2546   25.0765 C   0  0  0  0  0  0  0  0  0  0  0  0
   11.5339   11.8587   25.2614 C   0  0  0  0  0  0  0  0  0  0  0  0
    7.2063   13.6340   27.3456 C   0  0  0  0  0  0  0  0  0  0  0  0
    5.8032   13.3555   26.7985 C   0  0  0  0  0  0  0  0  0  0  0  0
    8.9338   15.0149   21.9735 C   0  0  0  0  0  0  0  0  0  0  0  0
    8.5891   14.8868   20.6431 C   0  0  0  0  0  0  0  0  0  0  0  0
    9.5112   15.0289   19.6144 C   0  0  0  0  0  0  0  0  0  0  0  0
   10.8423   14.9714   19.8991 C   0  0  0  0  0  0  0  0  0  0  0  0
   11.8787   14.7495   18.5924 Cl  0  0  0  0  0  0  0  0  0  0  0  0
   11.2699   15.0078   21.2020 C   0  0  0  0  0  0  0  0  0  0  0  0
   10.3145   15.0936   22.2157 C   0  0  0  0  0  0  0  0  0  0  0  0
   10.9862   15.3421   23.7418 Cl  0  0  0  0  0  0  0  0  0  0  0  0
  1  2  1  0
  2  3  1  0
  4  3  1  6
  4  5  1  0
  5  6  1  0
  6  7  2  0
  6  8  1  0
  8  9  1  0
  9 10  1  0
 10 11  1  0
 11 12  1  0
 12 13  2  0
 12 14  2  0
 12 15  1  0
 15 16  1  0
 16 17  1  0
 17 18  1  0
 18 19  1  0
 19 20  1  0
 11 21  1  0
 21 22  1  0
  4 23  1  0
 23 24  2  0
 24 25  1  0
 25 26  2  0
 26 27  1  0
 26 28  1  0
 28 29  2  0
 29 30  1  0
 22  8  1  0
 29 23  1  0
 20 15  1  0
M  END
>  <energy_score>  (4371) 
-18.548722

>  <inchikey>  (4371) 
YQHDYVKSXOVWBM-UHFFFAOYSA-N

>  <smiles>  (4371) 
COCC(OC(=O)C1CCN(S(=O)(=O)N2CCCCC2)CC1)c1ccc(Cl)cc1Cl

>  <ref_pdb>  (4371) 
A0875a

>  <alias>  (4371) 
YQHDYVKSXOVWBM-UHFFFAOYSA-N-P439-P87-P439-601505

>  <HIPPO Pose ID>  (4371) 
508583

>  <name>  (4371) 
YQHDYVKSXOVWBM-UHFFFAOYSA-N-P439-P87-P439-601505

>  <HIPPO Compound ID>  (4371) 
314828

>  <ref_mols>  (4371) 
A4706a,A0875a

>  <distance_score>  (4371) 
1.959982

>  <inspiration_score>  (4371) 
None

$$$$
RINOCACPVQMHHR-UHFFFAOYSA-N-P439-P87-P439-601505
     RDKit          3D

 30 32  0  0  0  0  0  0  0  0999 V2000
    8.4489   19.0517   20.9829 C   0  0  0  0  0  0  0  0  0  0  0  0
    8.0675   17.8711   21.6753 O   0  0  0  0  0  0  0  0  0  0  0  0
    8.5595   16.8109   21.0412 C   0  0  0  0  0  0  0  0  0  0  0  0
    9.1359   16.9164   19.9544 O   0  0  0  0  0  0  0  0  0  0  0  0
    8.4453   15.4577   21.8376 C   0  0  2  0  0  0  0  0  0  0  0  0
    7.5169   14.4371   21.1826 C   0  0  0  0  0  0  0  0  0  0  0  0
    8.1145   15.3983   23.2540 O   0  0  0  0  0  0  0  0  0  0  0  0
    6.8025   15.4834   23.6294 C   0  0  0  0  0  0  0  0  0  0  0  0
    5.9210   16.0294   22.9778 O   0  0  0  0  0  0  0  0  0  0  0  0
    6.4723   14.7197   24.9288 C   0  0  0  0  0  0  0  0  0  0  0  0
    6.6091   13.1815   24.7650 C   0  0  0  0  0  0  0  0  0  0  0  0
    7.4563   12.4276   25.7993 C   0  0  0  0  0  0  0  0  0  0  0  0
    8.4951   13.3069   26.3903 N   0  0  0  0  0  0  0  0  0  0  0  0
    9.7469   13.7450   25.3500 S   0  0  0  0  0  0  0  0  0  0  0  0
   10.0745   15.1291   25.5975 O   0  0  0  0  0  0  0  0  0  0  0  0
    9.4123   13.2450   24.0418 O   0  0  0  0  0  0  0  0  0  0  0  0
   11.0870   12.8437   25.8925 N   0  0  0  0  0  0  0  0  0  0  0  0
   12.0387   12.6352   24.7651 C   0  0  0  0  0  0  0  0  0  0  0  0
   13.1037   11.6529   25.2218 C   0  0  0  0  0  0  0  0  0  0  0  0
   13.9513   12.2776   26.2994 C   0  0  0  0  0  0  0  0  0  0  0  0
   13.0742   12.7591   27.4390 C   0  0  0  0  0  0  0  0  0  0  0  0
   11.7921   13.4987   27.0297 C   0  0  0  0  0  0  0  0  0  0  0  0
    7.8266   14.4189   27.1076 C   0  0  0  0  0  0  0  0  0  0  0  0
    7.1361   15.3716   26.1423 C   0  0  0  0  0  0  0  0  0  0  0  0
    9.9062   14.9845   21.5966 C   0  0  0  0  0  0  0  0  0  0  0  0
   10.3031   14.6030   20.2941 C   0  0  0  0  0  0  0  0  0  0  0  0
   11.6128   14.6316   19.9186 C   0  0  0  0  0  0  0  0  0  0  0  0
   12.5537   14.9806   20.7811 N   0  0  0  0  0  0  0  0  0  0  0  0
   12.1943   15.3151   22.0270 C   0  0  0  0  0  0  0  0  0  0  0  0
   10.9045   15.3616   22.4761 C   0  0  0  0  0  0  0  0  0  0  0  0
  1  2  1  0
  2  3  1  0
  3  4  2  0
  3  5  1  0
  5  6  1  6
  5  7  1  0
  7  8  1  0
  8  9  2  0
  8 10  1  0
 10 11  1  0
 11 12  1  0
 12 13  1  0
 13 14  1  0
 14 15  2  0
 14 16  2  0
 14 17  1  0
 17 18  1  0
 18 19  1  0
 19 20  1  0
 20 21  1  0
 21 22  1  0
 13 23  1  0
 23 24  1  0
  5 25  1  0
 25 26  2  0
 26 27  1  0
 27 28  2  0
 28 29  1  0
 29 30  2  0
 24 10  1  0
 30 25  1  0
 22 17  1  0
M  END
>  <energy_score>  (4372) 
-27.01336

>  <inchikey>  (4372) 
RINOCACPVQMHHR-UHFFFAOYSA-N

>  <smiles>  (4372) 
COC(=O)C(C)(OC(=O)C1CCN(S(=O)(=O)N2CCCCC2)CC1)c1ccncc1

>  <ref_pdb>  (4372) 
A0875a

>  <alias>  (4372) 
RINOCACPVQMHHR-UHFFFAOYSA-N-P439-P87-P439-601505

>  <HIPPO Pose ID>  (4372) 
508595

>  <name>  (4372) 
RINOCACPVQMHHR-UHFFFAOYSA-N-P439-P87-P439-601505

>  <HIPPO Compound ID>  (4372) 
314834

>  <ref_mols>  (4372) 
A4706a,A0875a

>  <distance_score>  (4372) 
1.794472

>  <inspiration_score>  (4372) 
None

$$$$
VIFWCNKARRJLCT-UHFFFAOYSA-N-P439-P87-P439-601505
     RDKit          3D

 30 32  0  0  0  0  0  0  0  0999 V2000
    4.4727   13.7184   20.9339 C   0  0  0  0  0  0  0  0  0  0  0  0
    5.8407   14.0708   21.1945 O   0  0  0  0  0  0  0  0  0  0  0  0
    5.9903   15.2505   21.8526 C   0  0  0  0  0  0  0  0  0  0  0  0
    5.0343   15.9979   22.0636 O   0  0  0  0  0  0  0  0  0  0  0  0
    7.3972   15.5221   22.4025 C   0  0  1  0  0  0  0  0  0  0  0  0
    7.2252   15.0060   23.7394 O   0  0  0  0  0  0  0  0  0  0  0  0
    6.9448   13.6839   23.8328 C   0  0  0  0  0  0  0  0  0  0  0  0
    7.2977   12.8259   23.0298 O   0  0  0  0  0  0  0  0  0  0  0  0
    6.0308   13.3702   25.0078 C   0  0  0  0  0  0  0  0  0  0  0  0
    6.3618   11.9658   25.5142 C   0  0  0  0  0  0  0  0  0  0  0  0
    7.7891   11.9067   26.0258 C   0  0  0  0  0  0  0  0  0  0  0  0
    8.1304   13.1250   26.7700 N   0  0  0  0  0  0  0  0  0  0  0  0
    9.4709   14.0428   26.3836 S   0  0  0  0  0  0  0  0  0  0  0  0
    9.3799   14.5307   25.0399 O   0  0  0  0  0  0  0  0  0  0  0  0
    9.6569   14.9630   27.4757 O   0  0  0  0  0  0  0  0  0  0  0  0
   10.7247   12.8999   26.4337 N   0  0  0  0  0  0  0  0  0  0  0  0
   11.0188   12.2530   25.1199 C   0  0  0  0  0  0  0  0  0  0  0  0
   12.3605   12.7348   24.6160 C   0  0  0  0  0  0  0  0  0  0  0  0
   13.4678   12.2397   25.5347 C   0  0  0  0  0  0  0  0  0  0  0  0
   13.1491   12.5975   26.9777 C   0  0  0  0  0  0  0  0  0  0  0  0
   11.9211   13.4896   27.1040 C   0  0  0  0  0  0  0  0  0  0  0  0
    6.9705   13.8726   27.3024 C   0  0  0  0  0  0  0  0  0  0  0  0
    6.0981   14.3764   26.1636 C   0  0  0  0  0  0  0  0  0  0  0  0
    8.7357   15.2150   21.7096 C   0  0  0  0  0  0  0  0  0  0  0  0
    8.8171   14.9049   20.3665 C   0  0  0  0  0  0  0  0  0  0  0  0
   10.0083   14.8859   19.6262 C   0  0  0  0  0  0  0  0  0  0  0  0
   11.2024   15.0547   20.2743 C   0  0  0  0  0  0  0  0  0  0  0  0
   11.1974   15.2921   21.6361 C   0  0  0  0  0  0  0  0  0  0  0  0
   12.4039   15.5843   22.2580 N   0  0  0  0  0  0  0  0  0  0  0  0
    9.9782   15.4369   22.3187 C   0  0  0  0  0  0  0  0  0  0  0  0
  1  2  1  0
  2  3  1  0
  3  4  2  0
  3  5  1  0
  5  6  1  1
  6  7  1  0
  7  8  2  0
  7  9  1  0
  9 10  1  0
 10 11  1  0
 11 12  1  0
 12 13  1  0
 13 14  2  0
 13 15  2  0
 13 16  1  0
 16 17  1  0
 17 18  1  0
 18 19  1  0
 19 20  1  0
 20 21  1  0
 12 22  1  0
 22 23  1  0
  5 24  1  0
 24 25  2  0
 25 26  1  0
 26 27  2  0
 27 28  1  0
 28 29  1  0
 28 30  2  0
 23  9  1  0
 30 24  1  0
 21 16  1  0
M  END
>  <energy_score>  (4373) 
-22.276164

>  <inchikey>  (4373) 
VIFWCNKARRJLCT-UHFFFAOYSA-N

>  <smiles>  (4373) 
COC(=O)C(OC(=O)C1CCN(S(=O)(=O)N2CCCCC2)CC1)c1cccc(N)c1

>  <ref_pdb>  (4373) 
A0875a

>  <alias>  (4373) 
VIFWCNKARRJLCT-UHFFFAOYSA-N-P439-P87-P439-601505

>  <HIPPO Pose ID>  (4373) 
508633

>  <name>  (4373) 
VIFWCNKARRJLCT-UHFFFAOYSA-N-P439-P87-P439-601505

>  <HIPPO Compound ID>  (4373) 
314853

>  <ref_mols>  (4373) 
A4706a,A0875a

>  <distance_score>  (4373) 
1.639847

>  <inspiration_score>  (4373) 
None

$$$$
UKXNDOPIMLXVHO-UHFFFAOYSA-N-P439-P87-P439-601505
     RDKit          3D

 30 32  0  0  0  0  0  0  0  0999 V2000
    7.8091   19.4551   19.2316 C   0  0  0  0  0  0  0  0  0  0  0  0
    8.1986   18.1641   19.6609 O   0  0  0  0  0  0  0  0  0  0  0  0
    8.3429   18.0667   21.0103 C   0  0  0  0  0  0  0  0  0  0  0  0
    8.5272   19.0509   21.7024 O   0  0  0  0  0  0  0  0  0  0  0  0
    8.2464   16.5886   21.4768 C   0  0  2  0  0  0  0  0  0  0  0  0
    7.5188   16.2673   22.6930 O   0  0  0  0  0  0  0  0  0  0  0  0
    6.9881   15.0191   22.8145 C   0  0  0  0  0  0  0  0  0  0  0  0
    7.1821   14.0868   22.0339 O   0  0  0  0  0  0  0  0  0  0  0  0
    5.9979   14.8902   23.9936 C   0  0  0  0  0  0  0  0  0  0  0  0
    5.7473   13.4052   24.3223 C   0  0  0  0  0  0  0  0  0  0  0  0
    6.9415   12.7637   25.0271 C   0  0  0  0  0  0  0  0  0  0  0  0
    7.4947   13.6004   26.1357 N   0  0  0  0  0  0  0  0  0  0  0  0
    9.0710   14.1974   25.9599 S   0  0  0  0  0  0  0  0  0  0  0  0
    9.1943   14.6701   24.6095 O   0  0  0  0  0  0  0  0  0  0  0  0
    9.3299   15.0850   27.0667 O   0  0  0  0  0  0  0  0  0  0  0  0
   10.1419   12.8887   26.1350 N   0  0  0  0  0  0  0  0  0  0  0  0
   11.5294   13.4598   26.2651 C   0  0  0  0  0  0  0  0  0  0  0  0
   12.6026   12.4000   26.3778 C   0  0  0  0  0  0  0  0  0  0  0  0
   12.4663   11.4165   25.2442 C   0  0  0  0  0  0  0  0  0  0  0  0
   11.0474   10.8304   25.1075 C   0  0  0  0  0  0  0  0  0  0  0  0
   10.0140   11.9109   25.0389 C   0  0  0  0  0  0  0  0  0  0  0  0
    6.5465   14.7023   26.4927 C   0  0  0  0  0  0  0  0  0  0  0  0
    6.3388   15.6392   25.2918 C   0  0  0  0  0  0  0  0  0  0  0  0
    9.6125   15.9672   21.3375 C   0  0  0  0  0  0  0  0  0  0  0  0
   10.0246   15.4475   20.1102 C   0  0  0  0  0  0  0  0  0  0  0  0
   11.1059   14.6015   20.0940 C   0  0  0  0  0  0  0  0  0  0  0  0
   11.7115   14.2917   21.3121 C   0  0  0  0  0  0  0  0  0  0  0  0
   11.9012   12.9358   21.6639 N   0  0  0  0  0  0  0  0  0  0  0  0
   11.5630   15.0851   22.4165 C   0  0  0  0  0  0  0  0  0  0  0  0
   10.4628   15.8838   22.4304 C   0  0  0  0  0  0  0  0  0  0  0  0
  1  2  1  0
  2  3  1  0
  3  4  2  0
  3  5  1  0
  5  6  1  1
  6  7  1  0
  7  8  2  0
  7  9  1  0
  9 10  1  0
 10 11  1  0
 11 12  1  0
 12 13  1  0
 13 14  2  0
 13 15  2  0
 13 16  1  0
 16 17  1  0
 17 18  1  0
 18 19  1  0
 19 20  1  0
 20 21  1  0
 12 22  1  0
 22 23  1  0
  5 24  1  0
 24 25  2  0
 25 26  1  0
 26 27  2  0
 27 28  1  0
 27 29  1  0
 29 30  2  0
 23  9  1  0
 30 24  1  0
 21 16  1  0
M  END
>  <energy_score>  (4374) 
-13.235555

>  <inchikey>  (4374) 
UKXNDOPIMLXVHO-UHFFFAOYSA-N

>  <smiles>  (4374) 
COC(=O)C(OC(=O)C1CCN(S(=O)(=O)N2CCCCC2)CC1)c1ccc(N)cc1

>  <ref_pdb>  (4374) 
A0875a

>  <alias>  (4374) 
UKXNDOPIMLXVHO-UHFFFAOYSA-N-P439-P87-P439-601505

>  <HIPPO Pose ID>  (4374) 
508637

>  <name>  (4374) 
UKXNDOPIMLXVHO-UHFFFAOYSA-N-P439-P87-P439-601505

>  <HIPPO Compound ID>  (4374) 
314855

>  <ref_mols>  (4374) 
A4706a,A0875a

>  <distance_score>  (4374) 
1.70431

>  <inspiration_score>  (4374) 
None

$$$$
XUESOAMUKWESFA-UHFFFAOYSA-N-P439-P87-P439-601505
     RDKit          3D

 30 33  0  0  0  0  0  0  0  0999 V2000
   11.7970   13.5421   21.9683 C   0  0  0  0  0  0  0  0  0  0  0  0
   10.3459   13.9164   21.8899 C   0  0  0  0  0  0  0  0  0  0  0  0
    9.5176   12.8459   22.4152 O   0  0  0  0  0  0  0  0  0  0  0  0
    8.1869   13.1218   22.6632 C   0  0  0  0  0  0  0  0  0  0  0  0
    7.3065   13.2797   21.8340 O   0  0  0  0  0  0  0  0  0  0  0  0
    7.9608   13.0951   24.1235 C   0  0  0  0  0  0  0  0  0  0  0  0
    7.8196   11.7056   24.7073 C   0  0  0  0  0  0  0  0  0  0  0  0
    8.2085   11.7795   26.1740 C   0  0  0  0  0  0  0  0  0  0  0  0
    8.1585   13.1707   26.6638 N   0  0  0  0  0  0  0  0  0  0  0  0
    9.5121   14.1574   26.8693 S   0  0  0  0  0  0  0  0  0  0  0  0
    9.6125   15.1023   25.7865 O   0  0  0  0  0  0  0  0  0  0  0  0
    9.3987   14.6438   28.2199 O   0  0  0  0  0  0  0  0  0  0  0  0
   10.9009   13.1236   26.7943 N   0  0  0  0  0  0  0  0  0  0  0  0
   12.0045   13.7660   27.5833 C   0  0  0  0  0  0  0  0  0  0  0  0
   13.2540   12.8833   27.6381 C   0  0  0  0  0  0  0  0  0  0  0  0
   13.7389   12.3929   26.2952 C   0  0  0  0  0  0  0  0  0  0  0  0
   12.5932   11.9078   25.4361 C   0  0  0  0  0  0  0  0  0  0  0  0
   11.4017   12.8533   25.4199 C   0  0  0  0  0  0  0  0  0  0  0  0
    6.9203   13.8932   26.2420 C   0  0  0  0  0  0  0  0  0  0  0  0
    6.9070   14.0289   24.7118 C   0  0  0  0  0  0  0  0  0  0  0  0
    9.9942   14.2686   20.4559 C   0  0  0  0  0  0  0  0  0  0  0  0
   10.5957   15.4908   20.1274 O   0  0  0  0  0  0  0  0  0  0  0  0
    9.6872   16.4329   20.4564 C   0  0  0  0  0  0  0  0  0  0  0  0
    9.5917   17.4257   19.5406 C   0  0  0  0  0  0  0  0  0  0  0  0
    8.7943   18.5164   19.7297 C   0  0  0  0  0  0  0  0  0  0  0  0
    8.1995   18.6228   20.9244 C   0  0  0  0  0  0  0  0  0  0  0  0
    8.0112   17.4881   21.6895 C   0  0  0  0  0  0  0  0  0  0  0  0
    8.8861   16.4606   21.5668 C   0  0  0  0  0  0  0  0  0  0  0  0
    8.9609   15.6530   22.6516 O   0  0  0  0  0  0  0  0  0  0  0  0
   10.2670   15.1481   22.7786 C   0  0  0  0  0  0  0  0  0  0  0  0
  1  2  1  0
  2  3  1  0
  3  4  1  0
  4  5  2  0
  4  6  1  0
  6  7  1  0
  7  8  1  0
  8  9  1  0
  9 10  1  0
 10 11  2  0
 10 12  2  0
 10 13  1  0
 13 14  1  0
 14 15  1  0
 15 16  1  0
 16 17  1  0
 17 18  1  0
  9 19  1  0
 19 20  1  0
  2 21  1  0
 21 22  1  0
 22 23  1  0
 23 24  2  0
 24 25  1  0
 25 26  2  0
 26 27  1  0
 27 28  2  0
 28 29  1  0
 29 30  1  0
 30  2  1  0
 20  6  1  0
 28 23  1  0
 18 13  1  0
M  END
>  <energy_score>  (4375) 
-6.337184

>  <inchikey>  (4375) 
XUESOAMUKWESFA-UHFFFAOYSA-N

>  <smiles>  (4375) 
CC1(OC(=O)C2CCN(S(=O)(=O)N3CCCCC3)CC2)COc2ccccc2OC1

>  <ref_pdb>  (4375) 
A0875a

>  <alias>  (4375) 
XUESOAMUKWESFA-UHFFFAOYSA-N-P439-P87-P439-601505

>  <HIPPO Pose ID>  (4375) 
508653

>  <name>  (4375) 
XUESOAMUKWESFA-UHFFFAOYSA-N-P439-P87-P439-601505

>  <HIPPO Compound ID>  (4375) 
314863

>  <ref_mols>  (4375) 
A4706a,A0875a

>  <distance_score>  (4375) 
1.99478

>  <inspiration_score>  (4375) 
None

$$$$
NEIOCROZIHOHKL-UHFFFAOYSA-N-P87-P87-P439-601505
     RDKit          3D

 30 32  0  0  0  0  0  0  0  0999 V2000
   15.0528   13.5817   28.6827 C   0  0  0  0  0  0  0  0  0  0  0  0
   15.4612   12.2555   28.0162 C   0  0  0  0  0  0  0  0  0  0  0  0
   16.8844   12.4210   27.4637 C   0  0  0  0  0  0  0  0  0  0  0  0
   15.3734   11.1180   29.0629 C   0  0  0  0  0  0  0  0  0  0  0  0
   16.1777   11.4215   30.2040 O   0  0  0  0  0  0  0  0  0  0  0  0
   16.1015   10.5607   31.2590 C   0  0  0  0  0  0  0  0  0  0  0  0
   15.3446    9.3983   31.3327 C   0  0  0  0  0  0  0  0  0  0  0  0
   15.3850    8.6274   32.4965 C   0  0  0  0  0  0  0  0  0  0  0  0
   16.1751    9.0432   33.5585 C   0  0  0  0  0  0  0  0  0  0  0  0
   16.2545    8.2857   34.7226 N   0  0  0  0  0  0  0  0  0  0  0  0
   16.9192   10.1577   33.5155 N   0  0  0  0  0  0  0  0  0  0  0  0
   16.8667   10.8863   32.3728 C   0  0  0  0  0  0  0  0  0  0  0  0
   14.5016   12.0630   26.9231 O   0  0  0  0  0  0  0  0  0  0  0  0
   14.6166   11.0080   26.0884 C   0  0  0  0  0  0  0  0  0  0  0  0
   15.3832   10.0690   26.2530 O   0  0  0  0  0  0  0  0  0  0  0  0
   13.6380   11.0001   24.9183 C   0  0  0  0  0  0  0  0  0  0  0  0
   13.3365   12.4020   24.4805 C   0  0  0  0  0  0  0  0  0  0  0  0
   12.1700   12.9142   25.2527 C   0  0  0  0  0  0  0  0  0  0  0  0
   10.9494   12.2043   24.9055 N   0  0  0  0  0  0  0  0  0  0  0  0
    9.5939   13.1534   24.6970 S   0  0  0  0  0  0  0  0  0  0  0  0
   10.0015   14.4749   25.0709 O   0  0  0  0  0  0  0  0  0  0  0  0
    8.4988   12.5118   25.3809 O   0  0  0  0  0  0  0  0  0  0  0  0
    9.3027   13.1738   23.0373 N   0  0  0  0  0  0  0  0  0  0  0  0
    8.1543   14.0788   22.6551 C   0  0  0  0  0  0  0  0  0  0  0  0
    8.5794   15.2275   21.7487 C   0  0  0  0  0  0  0  0  0  0  0  0
    9.8637   15.8568   22.2229 C   0  0  0  0  0  0  0  0  0  0  0  0
   10.9985   14.8497   22.2158 C   0  0  0  0  0  0  0  0  0  0  0  0
   10.4689   13.4295   22.1525 C   0  0  0  0  0  0  0  0  0  0  0  0
   10.9877   10.8081   24.5100 C   0  0  0  0  0  0  0  0  0  0  0  0
   12.3296   10.1117   24.8796 C   0  0  0  0  0  0  0  0  0  0  0  0
  1  2  1  0
  2  3  1  0
  2  4  1  0
  4  5  1  0
  5  6  1  0
  6  7  2  0
  7  8  1  0
  8  9  2  0
  9 10  1  0
  9 11  1  0
 11 12  2  0
  2 13  1  0
 13 14  1  0
 14 15  2  0
 14 16  1  0
 16 17  1  0
 17 18  1  0
 18 19  1  0
 19 20  1  0
 20 21  2  0
 20 22  2  0
 20 23  1  0
 23 24  1  0
 24 25  1  0
 25 26  1  0
 26 27  1  0
 27 28  1  0
 19 29  1  0
 29 30  1  0
 12  6  1  0
 30 16  1  0
 28 23  1  0
M  END
>  <energy_score>  (4376) 
-72.491303

>  <inchikey>  (4376) 
NEIOCROZIHOHKL-UHFFFAOYSA-N

>  <smiles>  (4376) 
CC(C)(COc1ccc(N)nc1)OC(=O)C1CCN(S(=O)(=O)N2CCCCC2)CC1

>  <ref_pdb>  (4376) 
A0875a

>  <alias>  (4376) 
NEIOCROZIHOHKL-UHFFFAOYSA-N-P87-P87-P439-601505

>  <HIPPO Pose ID>  (4376) 
508654

>  <name>  (4376) 
NEIOCROZIHOHKL-UHFFFAOYSA-N-P87-P87-P439-601505

>  <HIPPO Compound ID>  (4376) 
314864

>  <ref_mols>  (4376) 
A4706a,A0875a

>  <distance_score>  (4376) 
1.938733

>  <inspiration_score>  (4376) 
None

$$$$
MDOQPYBZPKQZOK-UHFFFAOYSA-N-P439-P87-P439-601505
     RDKit          3D

 30 33  0  0  0  0  0  0  0  0999 V2000
    9.6064   15.8797   19.6307 C   0  0  0  0  0  0  0  0  0  0  0  0
    9.9617   15.2599   20.8791 N   0  0  0  0  0  0  0  0  0  0  0  0
    9.3034   15.2836   22.1098 C   0  0  0  0  0  0  0  0  0  0  0  0
    7.8058   15.1456   22.3763 C   0  0  1  0  0  0  0  0  0  0  0  0
    7.5180   14.7267   23.7601 O   0  0  0  0  0  0  0  0  0  0  0  0
    6.7271   13.6475   24.0333 C   0  0  0  0  0  0  0  0  0  0  0  0
    6.5292   12.6870   23.2973 O   0  0  0  0  0  0  0  0  0  0  0  0
    6.0309   13.6956   25.3793 C   0  0  0  0  0  0  0  0  0  0  0  0
    6.0567   12.2635   25.9460 C   0  0  0  0  0  0  0  0  0  0  0  0
    7.4920   11.7803   26.1628 C   0  0  0  0  0  0  0  0  0  0  0  0
    8.3383   12.9071   26.6188 N   0  0  0  0  0  0  0  0  0  0  0  0
    9.5711   13.4515   25.6183 S   0  0  0  0  0  0  0  0  0  0  0  0
    9.7179   14.8528   25.9171 O   0  0  0  0  0  0  0  0  0  0  0  0
    9.3282   12.9667   24.2872 O   0  0  0  0  0  0  0  0  0  0  0  0
   10.9142   12.6362   26.2442 N   0  0  0  0  0  0  0  0  0  0  0  0
   11.6055   11.7722   25.2656 C   0  0  0  0  0  0  0  0  0  0  0  0
   13.0321   12.2079   25.0379 C   0  0  0  0  0  0  0  0  0  0  0  0
   13.8842   12.2754   26.2768 C   0  0  0  0  0  0  0  0  0  0  0  0
   13.0989   12.8115   27.4518 C   0  0  0  0  0  0  0  0  0  0  0  0
   11.7996   13.5094   27.0539 C   0  0  0  0  0  0  0  0  0  0  0  0
    7.5802   13.9650   27.3425 C   0  0  0  0  0  0  0  0  0  0  0  0
    6.6202   14.6727   26.3951 C   0  0  0  0  0  0  0  0  0  0  0  0
    6.9437   16.3734   22.2543 C   0  0  0  0  0  0  0  0  0  0  0  0
    5.5602   15.7564   22.1057 C   0  0  0  0  0  0  0  0  0  0  0  0
    5.7267   14.5314   21.3847 O   0  0  0  0  0  0  0  0  0  0  0  0
    7.1396   14.2675   21.3416 C   0  0  0  0  0  0  0  0  0  0  0  0
   10.3962   15.3921   22.9587 C   0  0  0  0  0  0  0  0  0  0  0  0
   11.5759   15.0185   22.3732 N   0  0  0  0  0  0  0  0  0  0  0  0
   11.2394   14.8656   21.1236 C   0  0  0  0  0  0  0  0  0  0  0  0
   12.1798   14.3645   19.8150 Cl  0  0  0  0  0  0  0  0  0  0  0  0
  1  2  1  0
  2  3  1  0
  3  4  1  0
  4  5  1  1
  5  6  1  0
  6  7  2  0
  6  8  1  0
  8  9  1  0
  9 10  1  0
 10 11  1  0
 11 12  1  0
 12 13  2  0
 12 14  2  0
 12 15  1  0
 15 16  1  0
 16 17  1  0
 17 18  1  0
 18 19  1  0
 19 20  1  0
 11 21  1  0
 21 22  1  0
  4 23  1  0
 23 24  1  0
 24 25  1  0
 25 26  1  0
  3 27  2  0
 27 28  1  0
 28 29  2  0
 29 30  1  0
 29  2  1  0
 26  4  1  0
 22  8  1  0
 20 15  1  0
M  END
>  <energy_score>  (4377) 
-24.906

>  <inchikey>  (4377) 
MDOQPYBZPKQZOK-UHFFFAOYSA-N

>  <smiles>  (4377) 
Cn1c(C2(OC(=O)C3CCN(S(=O)(=O)N4CCCCC4)CC3)CCOC2)cnc1Cl

>  <ref_pdb>  (4377) 
A0875a

>  <alias>  (4377) 
MDOQPYBZPKQZOK-UHFFFAOYSA-N-P439-P87-P439-601505

>  <HIPPO Pose ID>  (4377) 
508665

>  <name>  (4377) 
MDOQPYBZPKQZOK-UHFFFAOYSA-N-P439-P87-P439-601505

>  <HIPPO Compound ID>  (4377) 
314869

>  <ref_mols>  (4377) 
A4706a,A0875a

>  <distance_score>  (4377) 
1.801096

>  <inspiration_score>  (4377) 
None

$$$$
BSHJZHKTHJUYIQ-UHFFFAOYSA-N-P439-P87-P439-601505
     RDKit          3D

 30 32  0  0  0  0  0  0  0  0999 V2000
    9.7005   10.2356   22.4866 N   0  0  0  0  0  0  0  0  0  0  0  0
    9.4787   11.3744   23.3309 C   0  0  0  0  0  0  0  0  0  0  0  0
    9.6488   12.8228   22.7326 C   0  0  2  0  0  0  0  0  0  0  0  0
   11.1303   13.2433   22.5955 C   0  0  0  0  0  0  0  0  0  0  0  0
   11.4332   14.6310   22.5930 O   0  0  0  0  0  0  0  0  0  0  0  0
   11.0201   15.1448   21.4056 C   0  0  0  0  0  0  0  0  0  0  0  0
   11.5157   14.6934   20.1824 C   0  0  0  0  0  0  0  0  0  0  0  0
   10.8355   14.9891   19.0274 C   0  0  0  0  0  0  0  0  0  0  0  0
    9.7368   15.8200   19.1254 C   0  0  0  0  0  0  0  0  0  0  0  0
    9.4138   16.4602   20.3203 C   0  0  0  0  0  0  0  0  0  0  0  0
    8.5023   17.4380   20.3651 F   0  0  0  0  0  0  0  0  0  0  0  0
   10.0063   16.0679   21.4835 C   0  0  0  0  0  0  0  0  0  0  0  0
    8.7938   13.6675   23.5315 O   0  0  0  0  0  0  0  0  0  0  0  0
    7.4679   13.4907   23.2336 C   0  0  0  0  0  0  0  0  0  0  0  0
    7.0416   13.0733   22.1600 O   0  0  0  0  0  0  0  0  0  0  0  0
    6.5152   13.7424   24.3772 C   0  0  0  0  0  0  0  0  0  0  0  0
    6.6462   12.6358   25.4387 C   0  0  0  0  0  0  0  0  0  0  0  0
    7.8583   12.7920   26.3759 C   0  0  0  0  0  0  0  0  0  0  0  0
    8.4927   14.0951   26.1426 N   0  0  0  0  0  0  0  0  0  0  0  0
    9.8754   14.5934   26.9215 S   0  0  0  0  0  0  0  0  0  0  0  0
   10.4175   15.6615   26.1153 O   0  0  0  0  0  0  0  0  0  0  0  0
    9.4832   14.7949   28.2927 O   0  0  0  0  0  0  0  0  0  0  0  0
   11.0583   13.3500   26.9358 N   0  0  0  0  0  0  0  0  0  0  0  0
   11.5897   13.1203   25.5966 C   0  0  0  0  0  0  0  0  0  0  0  0
   12.6186   12.0012   25.5646 C   0  0  0  0  0  0  0  0  0  0  0  0
   13.8110   12.3299   26.4279 C   0  0  0  0  0  0  0  0  0  0  0  0
   13.3726   12.8001   27.8022 C   0  0  0  0  0  0  0  0  0  0  0  0
   12.1894   13.7808   27.8298 C   0  0  0  0  0  0  0  0  0  0  0  0
    7.4544   15.1744   26.2043 C   0  0  0  0  0  0  0  0  0  0  0  0
    6.6522   15.1506   24.9235 C   0  0  0  0  0  0  0  0  0  0  0  0
  1  2  1  0
  3  2  1  1
  3  4  1  0
  4  5  1  0
  5  6  1  0
  6  7  2  0
  7  8  1  0
  8  9  2  0
  9 10  1  0
 10 11  1  0
 10 12  2  0
  3 13  1  0
 13 14  1  0
 14 15  2  0
 14 16  1  0
 16 17  1  0
 17 18  1  0
 18 19  1  0
 19 20  1  0
 20 21  2  0
 20 22  2  0
 20 23  1  0
 23 24  1  0
 24 25  1  0
 25 26  1  0
 26 27  1  0
 27 28  1  0
 19 29  1  0
 29 30  1  0
 12  6  1  0
 30 16  1  0
 28 23  1  0
M  END
>  <energy_score>  (4378) 
-33.152935

>  <inchikey>  (4378) 
BSHJZHKTHJUYIQ-UHFFFAOYSA-N

>  <smiles>  (4378) 
NCC(COc1cccc(F)c1)OC(=O)C1CCN(S(=O)(=O)N2CCCCC2)CC1

>  <ref_pdb>  (4378) 
A0875a

>  <alias>  (4378) 
BSHJZHKTHJUYIQ-UHFFFAOYSA-N-P439-P87-P439-601505

>  <HIPPO Pose ID>  (4378) 
508671

>  <name>  (4378) 
BSHJZHKTHJUYIQ-UHFFFAOYSA-N-P439-P87-P439-601505

>  <HIPPO Compound ID>  (4378) 
314872

>  <ref_mols>  (4378) 
A4706a,A0875a

>  <distance_score>  (4378) 
1.998099

>  <inspiration_score>  (4378) 
None

$$$$
AUXPXAXAQRRHAJ-UHFFFAOYSA-N-P439-P87-P439-601505
     RDKit          3D

 30 32  0  0  0  0  0  0  0  0999 V2000
    5.2504   17.2296   24.4594 C   0  0  0  0  0  0  0  0  0  0  0  0
    6.4411   16.6493   23.9496 O   0  0  0  0  0  0  0  0  0  0  0  0
    6.2475   16.0092   22.7581 C   0  0  0  0  0  0  0  0  0  0  0  0
    5.2974   16.2038   22.0119 O   0  0  0  0  0  0  0  0  0  0  0  0
    7.2999   14.9493   22.5275 C   0  0  1  0  0  0  0  0  0  0  0  0
    8.8007   15.1963   22.6373 C   0  0  0  0  0  0  0  0  0  0  0  0
    9.7484   15.3463   21.5038 C   0  0  0  0  0  0  0  0  0  0  0  0
    9.3741   15.1049   20.1989 C   0  0  0  0  0  0  0  0  0  0  0  0
   10.3196   14.9590   19.1972 C   0  0  0  0  0  0  0  0  0  0  0  0
   11.6558   14.9864   19.5205 C   0  0  0  0  0  0  0  0  0  0  0  0
   12.0448   15.2964   20.8202 C   0  0  0  0  0  0  0  0  0  0  0  0
   11.1001   15.4887   21.8086 C   0  0  0  0  0  0  0  0  0  0  0  0
    6.9508   14.2636   23.7917 O   0  0  0  0  0  0  0  0  0  0  0  0
    5.9959   13.3268   23.7397 C   0  0  0  0  0  0  0  0  0  0  0  0
    5.6256   12.8426   22.6842 O   0  0  0  0  0  0  0  0  0  0  0  0
    5.5113   12.9265   25.1285 C   0  0  0  0  0  0  0  0  0  0  0  0
    6.1813   11.6362   25.6021 C   0  0  0  0  0  0  0  0  0  0  0  0
    7.2291   11.8331   26.6769 C   0  0  0  0  0  0  0  0  0  0  0  0
    7.9446   13.1046   26.5204 N   0  0  0  0  0  0  0  0  0  0  0  0
    9.1093   13.1516   25.3198 S   0  0  0  0  0  0  0  0  0  0  0  0
    8.6536   12.3347   24.2228 O   0  0  0  0  0  0  0  0  0  0  0  0
    9.5793   14.5085   25.1805 O   0  0  0  0  0  0  0  0  0  0  0  0
   10.3511   12.3075   26.0286 N   0  0  0  0  0  0  0  0  0  0  0  0
   11.0814   13.0955   27.0021 C   0  0  0  0  0  0  0  0  0  0  0  0
   12.1822   13.8966   26.4151 C   0  0  0  0  0  0  0  0  0  0  0  0
   13.0149   13.1427   25.3813 C   0  0  0  0  0  0  0  0  0  0  0  0
   12.6759   11.6798   25.4039 C   0  0  0  0  0  0  0  0  0  0  0  0
   11.1896   11.5494   25.0764 C   0  0  0  0  0  0  0  0  0  0  0  0
    7.0663   14.2910   26.6575 C   0  0  0  0  0  0  0  0  0  0  0  0
    5.6370   14.0125   26.1997 C   0  0  0  0  0  0  0  0  0  0  0  0
  1  2  1  0
  2  3  1  0
  3  4  2  0
  3  5  1  0
  5  6  1  1
  6  7  1  0
  7  8  2  0
  8  9  1  0
  9 10  2  0
 10 11  1  0
 11 12  2  0
  5 13  1  0
 13 14  1  0
 14 15  2  0
 14 16  1  0
 16 17  1  0
 17 18  1  0
 18 19  1  0
 19 20  1  0
 20 21  2  0
 20 22  2  0
 20 23  1  0
 23 24  1  0
 24 25  1  0
 25 26  1  0
 26 27  1  0
 27 28  1  0
 19 29  1  0
 29 30  1  0
 12  7  1  0
 30 16  1  0
 28 23  1  0
M  END
>  <energy_score>  (4379) 
-25.345728

>  <inchikey>  (4379) 
AUXPXAXAQRRHAJ-UHFFFAOYSA-N

>  <smiles>  (4379) 
COC(=O)C(Cc1ccccc1)OC(=O)C1CCN(S(=O)(=O)N2CCCCC2)CC1

>  <ref_pdb>  (4379) 
A0875a

>  <alias>  (4379) 
AUXPXAXAQRRHAJ-UHFFFAOYSA-N-P439-P87-P439-601505

>  <HIPPO Pose ID>  (4379) 
508675

>  <name>  (4379) 
AUXPXAXAQRRHAJ-UHFFFAOYSA-N-P439-P87-P439-601505

>  <HIPPO Compound ID>  (4379) 
314874

>  <ref_mols>  (4379) 
A4706a,A0875a

>  <distance_score>  (4379) 
1.809811

>  <inspiration_score>  (4379) 
None

$$$$
RSGSAXZTPQLTSG-UHFFFAOYSA-N-P87-P87-P439-601505
     RDKit          3D

 30 31  0  0  0  0  0  0  0  0999 V2000
   18.5635   17.5805   27.9033 C   0  0  0  0  0  0  0  0  0  0  0  0
   19.2021   16.5593   28.8263 C   0  0  0  0  0  0  0  0  0  0  0  0
   18.1972   15.6942   29.3756 O   0  0  0  0  0  0  0  0  0  0  0  0
   17.8638   14.6144   28.6111 C   0  0  0  0  0  0  0  0  0  0  0  0
   18.3628   14.3377   27.5272 O   0  0  0  0  0  0  0  0  0  0  0  0
   16.7725   13.7911   29.3060 C   0  0  1  0  0  0  0  0  0  0  0  0
   15.4975   14.6118   29.4331 C   0  0  0  0  0  0  0  0  0  0  0  0
   16.4286   12.6239   28.5420 O   0  0  0  0  0  0  0  0  0  0  0  0
   17.3953   11.6562   28.5204 C   0  0  0  0  0  0  0  0  0  0  0  0
   18.3749   11.6456   29.2536 O   0  0  0  0  0  0  0  0  0  0  0  0
   17.0410   10.5742   27.4994 C   0  0  2  0  0  0  0  0  0  0  0  0
   18.2914    9.8428   27.0369 C   0  0  0  0  0  0  0  0  0  0  0  0
   16.3642   11.2088   26.3937 O   0  0  0  0  0  0  0  0  0  0  0  0
   15.5035   10.4536   25.6887 C   0  0  0  0  0  0  0  0  0  0  0  0
   15.4424    9.2333   25.7348 O   0  0  0  0  0  0  0  0  0  0  0  0
   14.5238   11.2527   24.8442 C   0  0  0  0  0  0  0  0  0  0  0  0
   14.2768   12.6631   25.3016 C   0  0  0  0  0  0  0  0  0  0  0  0
   13.0835   12.8084   26.3030 C   0  0  0  0  0  0  0  0  0  0  0  0
   11.7510   12.4751   25.6678 N   0  0  0  0  0  0  0  0  0  0  0  0
   10.6961   13.7892   25.4171 S   0  0  0  0  0  0  0  0  0  0  0  0
   11.0647   14.3904   24.1594 O   0  0  0  0  0  0  0  0  0  0  0  0
   10.7077   14.5018   26.6785 O   0  0  0  0  0  0  0  0  0  0  0  0
    9.1443   13.2745   25.2441 N   0  0  0  0  0  0  0  0  0  0  0  0
    8.3460   13.8586   24.1425 C   0  0  0  0  0  0  0  0  0  0  0  0
    8.6028   13.0563   22.8997 C   0  0  0  0  0  0  0  0  0  0  0  0
    8.9757   11.6394   23.3297 C   0  0  0  0  0  0  0  0  0  0  0  0
    8.2206   11.1776   24.5633 C   0  0  0  0  0  0  0  0  0  0  0  0
    8.6569   12.0087   25.7249 C   0  0  0  0  0  0  0  0  0  0  0  0
   11.9509   11.5102   24.5800 C   0  0  0  0  0  0  0  0  0  0  0  0
   13.1545   10.6244   24.9041 C   0  0  0  0  0  0  0  0  0  0  0  0
  1  2  1  0
  2  3  1  0
  3  4  1  0
  4  5  2  0
  4  6  1  0
  6  7  1  6
  6  8  1  0
  8  9  1  0
  9 10  2  0
  9 11  1  0
 11 12  1  6
 11 13  1  0
 13 14  1  0
 14 15  2  0
 14 16  1  0
 16 17  1  0
 17 18  1  0
 18 19  1  0
 19 20  1  0
 20 21  2  0
 20 22  2  0
 20 23  1  0
 23 24  1  0
 24 25  1  0
 25 26  1  0
 26 27  1  0
 27 28  1  0
 19 29  1  0
 29 30  1  0
 30 16  1  0
 28 23  1  0
M  END
>  <energy_score>  (4380) 
-28.903435

>  <inchikey>  (4380) 
RSGSAXZTPQLTSG-UHFFFAOYSA-N

>  <smiles>  (4380) 
CCOC(=O)C(C)OC(=O)C(C)OC(=O)C1CCN(S(=O)(=O)N2CCCCC2)CC1

>  <ref_pdb>  (4380) 
A0875a

>  <alias>  (4380) 
RSGSAXZTPQLTSG-UHFFFAOYSA-N-P87-P87-P439-601505

>  <HIPPO Pose ID>  (4380) 
508684

>  <name>  (4380) 
RSGSAXZTPQLTSG-UHFFFAOYSA-N-P87-P87-P439-601505

>  <HIPPO Compound ID>  (4380) 
314879

>  <ref_mols>  (4380) 
A4706a,A0875a

>  <distance_score>  (4380) 
1.949784

>  <inspiration_score>  (4380) 
None

$$$$
PCIAYZYMYQPUQK-UHFFFAOYSA-N-P439-P87-P439-601505
     RDKit          3D

 30 32  0  0  0  0  0  0  0  0999 V2000
    3.6680   14.8026   21.2255 C   0  0  0  0  0  0  0  0  0  0  0  0
    4.7991   15.4939   21.9646 C   0  0  0  0  0  0  0  0  0  0  0  0
    6.0459   15.0098   21.4704 O   0  0  0  0  0  0  0  0  0  0  0  0
    7.1106   15.4667   22.1765 C   0  0  0  0  0  0  0  0  0  0  0  0
    7.1340   16.4703   22.8567 O   0  0  0  0  0  0  0  0  0  0  0  0
    8.2358   14.4957   22.0864 C   0  0  2  0  0  0  0  0  0  0  0  0
    7.7556   13.1501   22.3166 O   0  0  0  0  0  0  0  0  0  0  0  0
    6.7218   13.0678   23.1964 C   0  0  0  0  0  0  0  0  0  0  0  0
    5.5847   12.8272   22.8465 O   0  0  0  0  0  0  0  0  0  0  0  0
    7.1458   13.1934   24.5810 C   0  0  0  0  0  0  0  0  0  0  0  0
    7.1197   11.8285   25.2219 C   0  0  0  0  0  0  0  0  0  0  0  0
    7.8471   11.9264   26.5331 C   0  0  0  0  0  0  0  0  0  0  0  0
    8.0654   13.3312   26.9346 N   0  0  0  0  0  0  0  0  0  0  0  0
    9.4933   14.1849   26.7018 S   0  0  0  0  0  0  0  0  0  0  0  0
    9.4997   14.8892   25.4447 O   0  0  0  0  0  0  0  0  0  0  0  0
    9.6745   14.9313   27.9192 O   0  0  0  0  0  0  0  0  0  0  0  0
   10.7099   12.9965   26.6238 N   0  0  0  0  0  0  0  0  0  0  0  0
   11.9665   13.5533   27.2083 C   0  0  0  0  0  0  0  0  0  0  0  0
   13.1551   12.6389   26.9635 C   0  0  0  0  0  0  0  0  0  0  0  0
   13.3960   12.4020   25.4830 C   0  0  0  0  0  0  0  0  0  0  0  0
   12.1963   12.8443   24.6509 C   0  0  0  0  0  0  0  0  0  0  0  0
   10.9163   12.3420   25.2947 C   0  0  0  0  0  0  0  0  0  0  0  0
    6.8264   14.1438   26.8606 C   0  0  0  0  0  0  0  0  0  0  0  0
    6.3938   14.2332   25.4014 C   0  0  0  0  0  0  0  0  0  0  0  0
    9.6007   14.7534   22.6807 C   0  0  0  0  0  0  0  0  0  0  0  0
    9.4484   14.6271   21.2055 C   0  0  2  0  0  0  0  0  0  0  0  0
    9.7997   15.8225   20.4506 C   0  0  0  0  0  0  0  0  0  0  0  0
    9.9439   15.5497   19.1426 F   0  0  0  0  0  0  0  0  0  0  0  0
    8.8645   16.7647   20.6085 F   0  0  0  0  0  0  0  0  0  0  0  0
   10.9622   16.2962   20.9296 F   0  0  0  0  0  0  0  0  0  0  0  0
  1  2  1  0
  2  3  1  0
  3  4  1  0
  4  5  2  0
  4  6  1  0
  6  7  1  1
  7  8  1  0
  8  9  2  0
  8 10  1  0
 10 11  1  0
 11 12  1  0
 12 13  1  0
 13 14  1  0
 14 15  2  0
 14 16  2  0
 14 17  1  0
 17 18  1  0
 18 19  1  0
 19 20  1  0
 20 21  1  0
 21 22  1  0
 13 23  1  0
 23 24  1  0
  6 25  1  0
 25 26  1  0
 26 27  1  6
 27 28  1  0
 27 29  1  0
 27 30  1  0
 26  6  1  0
 24 10  1  0
 22 17  1  0
M  END
>  <energy_score>  (4381) 
-45.06545

>  <inchikey>  (4381) 
PCIAYZYMYQPUQK-UHFFFAOYSA-N

>  <smiles>  (4381) 
CCOC(=O)C1(OC(=O)C2CCN(S(=O)(=O)N3CCCCC3)CC2)CC1C(F)(F)F

>  <ref_pdb>  (4381) 
A0875a

>  <alias>  (4381) 
PCIAYZYMYQPUQK-UHFFFAOYSA-N-P439-P87-P439-601505

>  <HIPPO Pose ID>  (4381) 
508687

>  <name>  (4381) 
PCIAYZYMYQPUQK-UHFFFAOYSA-N-P439-P87-P439-601505

>  <HIPPO Compound ID>  (4381) 
314880

>  <ref_mols>  (4381) 
A4706a,A0875a

>  <distance_score>  (4381) 
1.660033

>  <inspiration_score>  (4381) 
None

$$$$
UILMXVIVNUZVFT-UHFFFAOYSA-N-P439-P87-P439-601505
     RDKit          3D

 30 32  0  0  0  0  0  0  0  0999 V2000
    8.3852   18.3373   21.0061 C   0  0  0  0  0  0  0  0  0  0  0  0
    8.2864   16.9240   21.1608 O   0  0  0  0  0  0  0  0  0  0  0  0
    7.5196   16.3359   22.0988 C   0  0  0  0  0  0  0  0  0  0  0  0
    6.6808   16.8628   22.8205 O   0  0  0  0  0  0  0  0  0  0  0  0
    7.8191   14.8444   22.1540 C   0  0  1  0  0  0  0  0  0  0  0  0
    9.3275   14.4250   21.9856 C   0  0  0  0  0  0  0  0  0  0  0  0
    9.7785   14.7618   20.5811 C   0  0  0  0  0  0  0  0  0  0  0  0
   10.7259   14.1848   19.4783 C   0  0  0  0  0  0  0  0  0  0  0  0
   10.8021   15.6325   19.0317 C   0  0  0  0  0  0  0  0  0  0  0  0
   11.8386   15.8721   18.2354 F   0  0  0  0  0  0  0  0  0  0  0  0
    9.7097   16.1296   18.4098 F   0  0  0  0  0  0  0  0  0  0  0  0
   10.8509   15.8783   20.5677 C   0  0  0  0  0  0  0  0  0  0  0  0
    7.2832   14.5261   23.4611 O   0  0  0  0  0  0  0  0  0  0  0  0
    6.2818   13.6215   23.5017 C   0  0  0  0  0  0  0  0  0  0  0  0
    5.9026   12.9893   22.5226 O   0  0  0  0  0  0  0  0  0  0  0  0
    5.7438   13.3858   24.9130 C   0  0  0  0  0  0  0  0  0  0  0  0
    6.2458   12.0580   25.4953 C   0  0  0  0  0  0  0  0  0  0  0  0
    7.2882   12.1868   26.6004 C   0  0  0  0  0  0  0  0  0  0  0  0
    8.1290   13.3965   26.4663 N   0  0  0  0  0  0  0  0  0  0  0  0
    9.2765   13.3815   25.2389 S   0  0  0  0  0  0  0  0  0  0  0  0
    8.6841   12.6311   24.1601 O   0  0  0  0  0  0  0  0  0  0  0  0
    9.8155   14.7112   25.0750 O   0  0  0  0  0  0  0  0  0  0  0  0
   10.5232   12.3734   25.8279 N   0  0  0  0  0  0  0  0  0  0  0  0
   10.6050   11.1763   24.9290 C   0  0  0  0  0  0  0  0  0  0  0  0
   11.7603   10.2662   25.2679 C   0  0  0  0  0  0  0  0  0  0  0  0
   13.0867   11.0418   25.4313 C   0  0  0  0  0  0  0  0  0  0  0  0
   12.9510   12.2191   26.3785 C   0  0  0  0  0  0  0  0  0  0  0  0
   11.8098   13.1213   25.9430 C   0  0  0  0  0  0  0  0  0  0  0  0
    7.3159   14.6428   26.5498 C   0  0  0  0  0  0  0  0  0  0  0  0
    5.9411   14.5416   25.8910 C   0  0  0  0  0  0  0  0  0  0  0  0
  1  2  1  0
  2  3  1  0
  3  4  2  0
  3  5  1  0
  5  6  1  1
  6  7  1  0
  7  8  1  0
  8  9  1  0
  9 10  1  0
  9 11  1  0
  9 12  1  0
  5 13  1  0
 13 14  1  0
 14 15  2  0
 14 16  1  0
 16 17  1  0
 17 18  1  0
 18 19  1  0
 19 20  1  0
 20 21  2  0
 20 22  2  0
 20 23  1  0
 23 24  1  0
 24 25  1  0
 25 26  1  0
 26 27  1  0
 27 28  1  0
 19 29  1  0
 29 30  1  0
 12  7  1  0
 30 16  1  0
 28 23  1  0
M  END
>  <energy_score>  (4382) 
-30.38943

>  <inchikey>  (4382) 
UILMXVIVNUZVFT-UHFFFAOYSA-N

>  <smiles>  (4382) 
COC(=O)C(CC1CC(F)(F)C1)OC(=O)C1CCN(S(=O)(=O)N2CCCCC2)CC1

>  <ref_pdb>  (4382) 
A0875a

>  <alias>  (4382) 
UILMXVIVNUZVFT-UHFFFAOYSA-N-P439-P87-P439-601505

>  <HIPPO Pose ID>  (4382) 
508693

>  <name>  (4382) 
UILMXVIVNUZVFT-UHFFFAOYSA-N-P439-P87-P439-601505

>  <HIPPO Compound ID>  (4382) 
314883

>  <ref_mols>  (4382) 
A4706a,A0875a

>  <distance_score>  (4382) 
1.499758

>  <inspiration_score>  (4382) 
None

$$$$
ABUCCZDQFXUAQQ-UHFFFAOYSA-N-P439-P87-P439-601505
     RDKit          3D

 30 32  0  0  0  0  0  0  0  0999 V2000
    5.4953   17.3088   25.4118 C   0  0  0  0  0  0  0  0  0  0  0  0
    6.4917   16.7057   24.5855 O   0  0  0  0  0  0  0  0  0  0  0  0
    6.0234   16.2773   23.3714 C   0  0  0  0  0  0  0  0  0  0  0  0
    5.0422   16.7711   22.8247 O   0  0  0  0  0  0  0  0  0  0  0  0
    6.7624   15.0605   22.8134 C   0  0  2  0  0  0  0  0  0  0  0  0
    5.7069   14.3748   21.9053 C   0  0  0  0  0  0  0  0  0  0  0  0
    6.7499   14.3760   24.1184 O   0  0  0  0  0  0  0  0  0  0  0  0
    6.7000   13.0501   24.1807 C   0  0  0  0  0  0  0  0  0  0  0  0
    6.9936   12.3207   23.2537 O   0  0  0  0  0  0  0  0  0  0  0  0
    6.1512   12.5612   25.5055 C   0  0  0  0  0  0  0  0  0  0  0  0
    6.9149   11.3370   25.9568 C   0  0  0  0  0  0  0  0  0  0  0  0
    8.3927   11.6373   26.0157 C   0  0  0  0  0  0  0  0  0  0  0  0
    8.7410   13.0317   26.3971 N   0  0  0  0  0  0  0  0  0  0  0  0
    9.9097   13.7397   25.4005 S   0  0  0  0  0  0  0  0  0  0  0  0
   10.1214   15.1069   25.8092 O   0  0  0  0  0  0  0  0  0  0  0  0
    9.6245   13.3240   24.0556 O   0  0  0  0  0  0  0  0  0  0  0  0
   11.2815   12.8609   25.8961 N   0  0  0  0  0  0  0  0  0  0  0  0
   12.2396   12.6877   24.7852 C   0  0  0  0  0  0  0  0  0  0  0  0
   13.2553   11.6498   25.2373 C   0  0  0  0  0  0  0  0  0  0  0  0
   14.0855   12.2128   26.3662 C   0  0  0  0  0  0  0  0  0  0  0  0
   13.1961   12.6943   27.4987 C   0  0  0  0  0  0  0  0  0  0  0  0
   11.9357   13.4594   27.0810 C   0  0  0  0  0  0  0  0  0  0  0  0
    7.7052   13.9756   26.9023 C   0  0  0  0  0  0  0  0  0  0  0  0
    6.2694   13.5703   26.6325 C   0  0  0  0  0  0  0  0  0  0  0  0
    8.1792   15.2459   22.2102 C   0  0  0  0  0  0  0  0  0  0  0  0
    8.5013   14.8566   20.9082 C   0  0  0  0  0  0  0  0  0  0  0  0
    9.8066   14.9419   20.3961 C   0  0  0  0  0  0  0  0  0  0  0  0
   10.8184   15.3671   21.2225 C   0  0  0  0  0  0  0  0  0  0  0  0
   10.4557   15.7219   22.4979 C   0  0  0  0  0  0  0  0  0  0  0  0
    9.1851   15.6900   22.9930 N   0  0  0  0  0  0  0  0  0  0  0  0
  1  2  1  0
  2  3  1  0
  3  4  2  0
  3  5  1  0
  5  6  1  6
  5  7  1  0
  7  8  1  0
  8  9  2  0
  8 10  1  0
 10 11  1  0
 11 12  1  0
 12 13  1  0
 13 14  1  0
 14 15  2  0
 14 16  2  0
 14 17  1  0
 17 18  1  0
 18 19  1  0
 19 20  1  0
 20 21  1  0
 21 22  1  0
 13 23  1  0
 23 24  1  0
  5 25  1  0
 25 26  2  0
 26 27  1  0
 27 28  2  0
 28 29  1  0
 29 30  2  0
 24 10  1  0
 30 25  1  0
 22 17  1  0
M  END
>  <energy_score>  (4383) 
-26.372682

>  <inchikey>  (4383) 
ABUCCZDQFXUAQQ-UHFFFAOYSA-N

>  <smiles>  (4383) 
COC(=O)C(C)(OC(=O)C1CCN(S(=O)(=O)N2CCCCC2)CC1)c1ccccn1

>  <ref_pdb>  (4383) 
A0875a

>  <alias>  (4383) 
ABUCCZDQFXUAQQ-UHFFFAOYSA-N-P439-P87-P439-601505

>  <HIPPO Pose ID>  (4383) 
508701

>  <name>  (4383) 
ABUCCZDQFXUAQQ-UHFFFAOYSA-N-P439-P87-P439-601505

>  <HIPPO Compound ID>  (4383) 
314887

>  <ref_mols>  (4383) 
A4706a,A0875a

>  <distance_score>  (4383) 
1.987474

>  <inspiration_score>  (4383) 
None

$$$$
DEWMYFPCIWLVLQ-UHFFFAOYSA-N-P439-P87-P439-601505
     RDKit          3D

 30 32  0  0  0  0  0  0  0  0999 V2000
    9.0607   12.5611   22.8166 C   0  0  0  0  0  0  0  0  0  0  0  0
    7.6653   12.7286   22.4868 O   0  0  0  0  0  0  0  0  0  0  0  0
    7.1250   13.9068   22.0625 C   0  0  0  0  0  0  0  0  0  0  0  0
    6.1021   13.8681   21.3877 O   0  0  0  0  0  0  0  0  0  0  0  0
    7.8027   15.1922   22.5700 C   0  0  1  0  0  0  0  0  0  0  0  0
    6.9676   16.4351   22.2727 C   0  0  0  0  0  0  0  0  0  0  0  0
    7.7989   14.8896   24.0339 O   0  0  0  0  0  0  0  0  0  0  0  0
    6.5626   14.6651   24.5901 C   0  0  0  0  0  0  0  0  0  0  0  0
    5.5213   15.1594   24.1711 O   0  0  0  0  0  0  0  0  0  0  0  0
    6.5005   13.6915   25.7615 C   0  0  0  0  0  0  0  0  0  0  0  0
    7.2022   12.3547   25.6250 C   0  0  0  0  0  0  0  0  0  0  0  0
    8.6464   12.2852   26.0975 C   0  0  0  0  0  0  0  0  0  0  0  0
    9.2126   13.4679   26.7791 N   0  0  0  0  0  0  0  0  0  0  0  0
   10.7167   14.0574   26.2933 S   0  0  0  0  0  0  0  0  0  0  0  0
   10.5944   14.4104   24.9103 O   0  0  0  0  0  0  0  0  0  0  0  0
   11.0813   15.0665   27.2491 O   0  0  0  0  0  0  0  0  0  0  0  0
   11.8116   12.7542   26.4022 N   0  0  0  0  0  0  0  0  0  0  0  0
   12.9069   12.8787   27.4164 C   0  0  0  0  0  0  0  0  0  0  0  0
   14.3165   12.7175   26.8558 C   0  0  0  0  0  0  0  0  0  0  0  0
   14.4830   11.4129   26.1456 C   0  0  0  0  0  0  0  0  0  0  0  0
   13.3399   11.2103   25.1867 C   0  0  0  0  0  0  0  0  0  0  0  0
   12.3040   12.3270   25.0790 C   0  0  0  0  0  0  0  0  0  0  0  0
    8.3175   14.6003   27.1682 C   0  0  0  0  0  0  0  0  0  0  0  0
    6.8451   14.3149   27.0857 C   0  0  0  0  0  0  0  0  0  0  0  0
    9.1768   15.3238   21.8457 C   0  0  0  0  0  0  0  0  0  0  0  0
    9.2726   15.0547   20.4678 C   0  0  0  0  0  0  0  0  0  0  0  0
   10.4897   14.9314   19.7979 C   0  0  0  0  0  0  0  0  0  0  0  0
   11.6585   15.0650   20.5198 C   0  0  0  0  0  0  0  0  0  0  0  0
   11.6024   15.4513   21.8517 C   0  0  0  0  0  0  0  0  0  0  0  0
   10.3699   15.6348   22.4806 C   0  0  0  0  0  0  0  0  0  0  0  0
  1  2  1  0
  2  3  1  0
  3  4  2  0
  3  5  1  0
  5  6  1  1
  5  7  1  0
  7  8  1  0
  8  9  2  0
  8 10  1  0
 10 11  1  0
 11 12  1  0
 12 13  1  0
 13 14  1  0
 14 15  2  0
 14 16  2  0
 14 17  1  0
 17 18  1  0
 18 19  1  0
 19 20  1  0
 20 21  1  0
 21 22  1  0
 13 23  1  0
 23 24  1  0
  5 25  1  0
 25 26  2  0
 26 27  1  0
 27 28  2  0
 28 29  1  0
 29 30  2  0
 24 10  1  0
 30 25  1  0
 22 17  1  0
M  END
>  <energy_score>  (4384) 
-4.315599

>  <inchikey>  (4384) 
DEWMYFPCIWLVLQ-UHFFFAOYSA-N

>  <smiles>  (4384) 
COC(=O)C(C)(OC(=O)C1CCN(S(=O)(=O)N2CCCCC2)CC1)c1ccccc1

>  <ref_pdb>  (4384) 
A0875a

>  <alias>  (4384) 
DEWMYFPCIWLVLQ-UHFFFAOYSA-N-P439-P87-P439-601505

>  <HIPPO Pose ID>  (4384) 
508715

>  <name>  (4384) 
DEWMYFPCIWLVLQ-UHFFFAOYSA-N-P439-P87-P439-601505

>  <HIPPO Compound ID>  (4384) 
314894

>  <ref_mols>  (4384) 
A4706a,A0875a

>  <distance_score>  (4384) 
1.90319

>  <inspiration_score>  (4384) 
None

$$$$
FOGGRGANSBDVIF-UHFFFAOYSA-N-P439-P87-P439-601505
     RDKit          3D

 30 32  0  0  0  0  0  0  0  0999 V2000
    7.8359   19.4221   19.3015 C   0  0  0  0  0  0  0  0  0  0  0  0
    8.2020   18.1221   19.7341 O   0  0  0  0  0  0  0  0  0  0  0  0
    8.2818   17.9891   21.0869 C   0  0  0  0  0  0  0  0  0  0  0  0
    8.4405   18.9600   21.8008 O   0  0  0  0  0  0  0  0  0  0  0  0
    8.1932   16.4825   21.5239 C   0  0  2  0  0  0  0  0  0  0  0  0
    7.6224   16.0172   22.7802 O   0  0  0  0  0  0  0  0  0  0  0  0
    7.1037   14.7491   22.8014 C   0  0  0  0  0  0  0  0  0  0  0  0
    7.0191   14.0161   21.8147 O   0  0  0  0  0  0  0  0  0  0  0  0
    6.5547   14.2727   24.1754 C   0  0  0  0  0  0  0  0  0  0  0  0
    6.9419   12.7727   24.4052 C   0  0  0  0  0  0  0  0  0  0  0  0
    7.6617   12.3481   25.6919 C   0  0  0  0  0  0  0  0  0  0  0  0
    8.2859   13.4918   26.3822 N   0  0  0  0  0  0  0  0  0  0  0  0
    9.6810   14.1162   25.6515 S   0  0  0  0  0  0  0  0  0  0  0  0
    9.9408   15.3924   26.2705 O   0  0  0  0  0  0  0  0  0  0  0  0
    9.4823   13.9959   24.2311 O   0  0  0  0  0  0  0  0  0  0  0  0
   10.9208   13.0139   26.1321 N   0  0  0  0  0  0  0  0  0  0  0  0
   11.7875   13.6306   27.1846 C   0  0  0  0  0  0  0  0  0  0  0  0
   13.0568   12.8266   27.4942 C   0  0  0  0  0  0  0  0  0  0  0  0
   13.8167   12.3294   26.2869 C   0  0  0  0  0  0  0  0  0  0  0  0
   12.8636   11.7078   25.3044 C   0  0  0  0  0  0  0  0  0  0  0  0
   11.7336   12.6517   24.9444 C   0  0  0  0  0  0  0  0  0  0  0  0
    7.2311   14.5088   26.6500 C   0  0  0  0  0  0  0  0  0  0  0  0
    6.8156   15.2108   25.3626 C   0  0  0  0  0  0  0  0  0  0  0  0
    9.5746   15.9422   21.3213 C   0  0  0  0  0  0  0  0  0  0  0  0
   10.0189   15.4944   20.0775 C   0  0  0  0  0  0  0  0  0  0  0  0
   11.2106   14.8208   20.0332 C   0  0  0  0  0  0  0  0  0  0  0  0
   11.8068   14.5987   21.2703 C   0  0  0  0  0  0  0  0  0  0  0  0
   11.8119   13.1786   21.6982 C   0  0  0  0  0  0  0  0  0  0  0  0
   11.6460   15.3571   22.3569 N   0  0  0  0  0  0  0  0  0  0  0  0
   10.4586   15.9304   22.3833 C   0  0  0  0  0  0  0  0  0  0  0  0
  1  2  1  0
  2  3  1  0
  3  4  2  0
  3  5  1  0
  5  6  1  1
  6  7  1  0
  7  8  2  0
  7  9  1  0
  9 10  1  0
 10 11  1  0
 11 12  1  0
 12 13  1  0
 13 14  2  0
 13 15  2  0
 13 16  1  0
 16 17  1  0
 17 18  1  0
 18 19  1  0
 19 20  1  0
 20 21  1  0
 12 22  1  0
 22 23  1  0
  5 24  1  0
 24 25  2  0
 25 26  1  0
 26 27  2  0
 27 28  1  0
 27 29  1  0
 29 30  2  0
 23  9  1  0
 30 24  1  0
 21 16  1  0
M  END
>  <energy_score>  (4385) 
-13.603528

>  <inchikey>  (4385) 
FOGGRGANSBDVIF-UHFFFAOYSA-N

>  <smiles>  (4385) 
COC(=O)C(OC(=O)C1CCN(S(=O)(=O)N2CCCCC2)CC1)c1ccc(C)nc1

>  <ref_pdb>  (4385) 
A0875a

>  <alias>  (4385) 
FOGGRGANSBDVIF-UHFFFAOYSA-N-P439-P87-P439-601505

>  <HIPPO Pose ID>  (4385) 
508721

>  <name>  (4385) 
FOGGRGANSBDVIF-UHFFFAOYSA-N-P439-P87-P439-601505

>  <HIPPO Compound ID>  (4385) 
314897

>  <ref_mols>  (4385) 
A4706a,A0875a

>  <distance_score>  (4385) 
1.625036

>  <inspiration_score>  (4385) 
None

$$$$
VNCJTYYWTUPAKB-UHFFFAOYSA-N-P439-P87-P439-601505
     RDKit          3D

 31 33  0  0  0  0  0  0  0  0999 V2000
    7.9757   19.1206   19.8861 C   0  0  0  0  0  0  0  0  0  0  0  0
    7.6523   17.8520   20.4575 O   0  0  0  0  0  0  0  0  0  0  0  0
    8.6465   17.2498   21.0965 C   0  0  0  0  0  0  0  0  0  0  0  0
    9.7540   17.7742   21.1661 O   0  0  0  0  0  0  0  0  0  0  0  0
    8.3376   15.7893   21.6461 C   0  0  2  0  0  0  0  0  0  0  0  0
    7.2450   14.8160   21.2001 C   0  0  0  0  0  0  0  0  0  0  0  0
    8.3452   15.6940   23.0729 O   0  0  0  0  0  0  0  0  0  0  0  0
    7.2011   15.4401   23.7773 C   0  0  0  0  0  0  0  0  0  0  0  0
    6.0629   15.7974   23.5463 O   0  0  0  0  0  0  0  0  0  0  0  0
    7.6409   14.5231   24.8641 C   0  0  0  0  0  0  0  0  0  0  0  0
    8.0280   13.1388   24.2869 C   0  0  0  0  0  0  0  0  0  0  0  0
    8.4932   12.1710   25.3639 C   0  0  0  0  0  0  0  0  0  0  0  0
    8.9538   12.9381   26.5265 N   0  0  0  0  0  0  0  0  0  0  0  0
   10.4224   13.8178   26.4276 S   0  0  0  0  0  0  0  0  0  0  0  0
   10.4899   14.5542   27.6630 O   0  0  0  0  0  0  0  0  0  0  0  0
   10.5303   14.5025   25.1631 O   0  0  0  0  0  0  0  0  0  0  0  0
   11.6790   12.6481   26.4485 N   0  0  0  0  0  0  0  0  0  0  0  0
   12.8393   12.9969   27.3416 C   0  0  0  0  0  0  0  0  0  0  0  0
   14.2198   12.7908   26.7196 C   0  0  0  0  0  0  0  0  0  0  0  0
   14.3672   11.4177   26.1614 C   0  0  0  0  0  0  0  0  0  0  0  0
   13.2364   11.1776   25.1960 C   0  0  0  0  0  0  0  0  0  0  0  0
   12.1278   12.2375   25.1064 C   0  0  0  0  0  0  0  0  0  0  0  0
    7.7535   13.6981   27.1427 C   0  0  0  0  0  0  0  0  0  0  0  0
    6.8131   14.3177   26.0957 C   0  0  0  0  0  0  0  0  0  0  0  0
    9.6252   15.1272   21.1225 C   0  0  0  0  0  0  0  0  0  0  0  0
    9.7754   15.0236   19.7164 C   0  0  0  0  0  0  0  0  0  0  0  0
   10.9746   14.7377   19.1449 C   0  0  0  0  0  0  0  0  0  0  0  0
   12.0365   14.6472   19.9945 C   0  0  0  0  0  0  0  0  0  0  0  0
   13.2005   14.4633   19.4117 F   0  0  0  0  0  0  0  0  0  0  0  0
   11.9560   14.8236   21.3720 C   0  0  0  0  0  0  0  0  0  0  0  0
   10.7359   15.0241   21.9511 C   0  0  0  0  0  0  0  0  0  0  0  0
  1  2  1  0
  2  3  1  0
  3  4  2  0
  3  5  1  0
  5  6  1  6
  5  7  1  0
  7  8  1  0
  8  9  2  0
  8 10  1  0
 10 11  1  0
 11 12  1  0
 12 13  1  0
 13 14  1  0
 14 15  2  0
 14 16  2  0
 14 17  1  0
 17 18  1  0
 18 19  1  0
 19 20  1  0
 20 21  1  0
 21 22  1  0
 13 23  1  0
 23 24  1  0
  5 25  1  0
 25 26  2  0
 26 27  1  0
 27 28  2  0
 28 29  1  0
 28 30  1  0
 30 31  2  0
 24 10  1  0
 31 25  1  0
 22 17  1  0
M  END
>  <energy_score>  (4386) 
-6.484764

>  <inchikey>  (4386) 
VNCJTYYWTUPAKB-UHFFFAOYSA-N

>  <smiles>  (4386) 
COC(=O)C(C)(OC(=O)C1CCN(S(=O)(=O)N2CCCCC2)CC1)c1ccc(F)cc1

>  <ref_pdb>  (4386) 
A0875a

>  <alias>  (4386) 
VNCJTYYWTUPAKB-UHFFFAOYSA-N-P439-P87-P439-601505

>  <HIPPO Pose ID>  (4386) 
508747

>  <name>  (4386) 
VNCJTYYWTUPAKB-UHFFFAOYSA-N-P439-P87-P439-601505

>  <HIPPO Compound ID>  (4386) 
314910

>  <ref_mols>  (4386) 
A4706a,A0875a

>  <distance_score>  (4386) 
1.759697

>  <inspiration_score>  (4386) 
None

$$$$
AUPZGZNEFLCXSJ-UHFFFAOYSA-N-P439-P87-P439-601505
     RDKit          3D

 31 33  0  0  0  0  0  0  0  0999 V2000
    7.8347   19.4456   19.2876 C   0  0  0  0  0  0  0  0  0  0  0  0
    8.2228   18.1459   19.6956 O   0  0  0  0  0  0  0  0  0  0  0  0
    8.3557   17.9967   21.0421 C   0  0  0  0  0  0  0  0  0  0  0  0
    8.5114   18.9629   21.7629 O   0  0  0  0  0  0  0  0  0  0  0  0
    8.2662   16.4930   21.4619 C   0  0  2  0  0  0  0  0  0  0  0  0
    7.7145   16.1603   22.7682 O   0  0  0  0  0  0  0  0  0  0  0  0
    6.8544   15.1105   22.8912 C   0  0  0  0  0  0  0  0  0  0  0  0
    6.5981   14.3165   21.9896 O   0  0  0  0  0  0  0  0  0  0  0  0
    6.1324   15.0749   24.2627 C   0  0  0  0  0  0  0  0  0  0  0  0
    5.5914   13.6679   24.6331 C   0  0  0  0  0  0  0  0  0  0  0  0
    6.1240   13.1414   25.9734 C   0  0  0  0  0  0  0  0  0  0  0  0
    7.5949   13.3636   26.0623 N   0  0  0  0  0  0  0  0  0  0  0  0
    8.4427   12.4957   24.9025 S   0  0  0  0  0  0  0  0  0  0  0  0
    8.7943   13.3652   23.8141 O   0  0  0  0  0  0  0  0  0  0  0  0
    7.6586   11.3106   24.6503 O   0  0  0  0  0  0  0  0  0  0  0  0
    9.8701   11.9446   25.6475 N   0  0  0  0  0  0  0  0  0  0  0  0
   10.3624   10.8524   24.7586 C   0  0  0  0  0  0  0  0  0  0  0  0
   11.6485   10.2518   25.2561 C   0  0  0  0  0  0  0  0  0  0  0  0
   12.7426   11.2987   25.4982 C   0  0  0  0  0  0  0  0  0  0  0  0
   12.2585   12.4635   26.3361 C   0  0  0  0  0  0  0  0  0  0  0  0
   10.8751   12.9901   25.9630 C   0  0  0  0  0  0  0  0  0  0  0  0
    7.8975   14.8068   26.1650 C   0  0  0  0  0  0  0  0  0  0  0  0
    6.8565   15.6894   25.4683 C   0  0  0  0  0  0  0  0  0  0  0  0
    9.5565   15.7972   21.0643 C   0  0  0  0  0  0  0  0  0  0  0  0
    9.8639   15.6229   19.6922 C   0  0  0  0  0  0  0  0  0  0  0  0
   10.9772   14.9282   19.2582 C   0  0  0  0  0  0  0  0  0  0  0  0
   11.7362   14.2873   20.2070 C   0  0  0  0  0  0  0  0  0  0  0  0
   11.4121   14.4107   21.5520 C   0  0  0  0  0  0  0  0  0  0  0  0
   11.9908   13.3032   22.7043 Cl  0  0  0  0  0  0  0  0  0  0  0  0
   10.4467   15.2904   21.9820 C   0  0  0  0  0  0  0  0  0  0  0  0
   10.4468   15.6842   23.6413 Cl  0  0  0  0  0  0  0  0  0  0  0  0
  1  2  1  0
  2  3  1  0
  3  4  2  0
  3  5  1  0
  5  6  1  1
  6  7  1  0
  7  8  2  0
  7  9  1  0
  9 10  1  0
 10 11  1  0
 11 12  1  0
 12 13  1  0
 13 14  2  0
 13 15  2  0
 13 16  1  0
 16 17  1  0
 17 18  1  0
 18 19  1  0
 19 20  1  0
 20 21  1  0
 12 22  1  0
 22 23  1  0
  5 24  1  0
 24 25  2  0
 25 26  1  0
 26 27  2  0
 27 28  1  0
 28 29  1  0
 28 30  2  0
 30 31  1  0
 23  9  1  0
 30 24  1  0
 21 16  1  0
M  END
>  <energy_score>  (4387) 
-33.130783

>  <inchikey>  (4387) 
AUPZGZNEFLCXSJ-UHFFFAOYSA-N

>  <smiles>  (4387) 
COC(=O)C(OC(=O)C1CCN(S(=O)(=O)N2CCCCC2)CC1)c1cccc(Cl)c1Cl

>  <ref_pdb>  (4387) 
A0875a

>  <alias>  (4387) 
AUPZGZNEFLCXSJ-UHFFFAOYSA-N-P439-P87-P439-601505

>  <HIPPO Pose ID>  (4387) 
508753

>  <name>  (4387) 
AUPZGZNEFLCXSJ-UHFFFAOYSA-N-P439-P87-P439-601505

>  <HIPPO Compound ID>  (4387) 
314913

>  <ref_mols>  (4387) 
A4706a,A0875a

>  <distance_score>  (4387) 
1.772542

>  <inspiration_score>  (4387) 
None

$$$$
OFPBKUPPXCGZBC-UHFFFAOYSA-N-P439-P87-P439-601505
     RDKit          3D

 31 33  0  0  0  0  0  0  0  0999 V2000
    4.4472   13.7323   20.9293 C   0  0  0  0  0  0  0  0  0  0  0  0
    5.8119   14.1191   21.1486 O   0  0  0  0  0  0  0  0  0  0  0  0
    5.9522   15.2495   21.8875 C   0  0  0  0  0  0  0  0  0  0  0  0
    4.9920   15.9745   22.1559 O   0  0  0  0  0  0  0  0  0  0  0  0
    7.3664   15.5022   22.4599 C   0  0  1  0  0  0  0  0  0  0  0  0
    7.2176   15.1675   23.8552 O   0  0  0  0  0  0  0  0  0  0  0  0
    6.6252   13.9664   24.1051 C   0  0  0  0  0  0  0  0  0  0  0  0
    6.5801   13.0246   23.3220 O   0  0  0  0  0  0  0  0  0  0  0  0
    5.9225   13.9676   25.4478 C   0  0  0  0  0  0  0  0  0  0  0  0
    5.8634   12.5379   25.9956 C   0  0  0  0  0  0  0  0  0  0  0  0
    6.9196   12.2805   27.0509 C   0  0  0  0  0  0  0  0  0  0  0  0
    8.1644   13.0558   26.7937 N   0  0  0  0  0  0  0  0  0  0  0  0
    9.1607   12.4442   25.6058 S   0  0  0  0  0  0  0  0  0  0  0  0
    9.1350   13.3150   24.4702 O   0  0  0  0  0  0  0  0  0  0  0  0
    8.8358   11.0518   25.4578 O   0  0  0  0  0  0  0  0  0  0  0  0
   10.7380   12.4425   26.1842 N   0  0  0  0  0  0  0  0  0  0  0  0
   11.3693   13.6011   26.8167 C   0  0  0  0  0  0  0  0  0  0  0  0
   12.7377   13.1837   27.3980 C   0  0  0  0  0  0  0  0  0  0  0  0
   13.6564   12.4494   26.4408 C   0  0  0  0  0  0  0  0  0  0  0  0
   13.0016   12.2630   25.1054 C   0  0  0  0  0  0  0  0  0  0  0  0
   11.5816   11.7627   25.1731 C   0  0  0  0  0  0  0  0  0  0  0  0
    7.9595   14.5120   26.8921 C   0  0  0  0  0  0  0  0  0  0  0  0
    6.5481   14.9203   26.4696 C   0  0  0  0  0  0  0  0  0  0  0  0
    8.7055   15.1558   21.7537 C   0  0  0  0  0  0  0  0  0  0  0  0
    8.6981   14.9127   20.3852 C   0  0  0  0  0  0  0  0  0  0  0  0
    9.8069   14.9666   19.5249 C   0  0  0  0  0  0  0  0  0  0  0  0
   11.0429   15.0982   20.0615 C   0  0  0  0  0  0  0  0  0  0  0  0
   11.1176   15.2612   21.4266 C   0  0  0  0  0  0  0  0  0  0  0  0
   12.6692   15.5315   22.0211 Cl  0  0  0  0  0  0  0  0  0  0  0  0
    9.9949   15.3117   22.2843 C   0  0  0  0  0  0  0  0  0  0  0  0
   10.3068   15.5100   23.7265 C   0  0  0  0  0  0  0  0  0  0  0  0
  1  2  1  0
  2  3  1  0
  3  4  2  0
  3  5  1  0
  5  6  1  1
  6  7  1  0
  7  8  2  0
  7  9  1  0
  9 10  1  0
 10 11  1  0
 11 12  1  0
 12 13  1  0
 13 14  2  0
 13 15  2  0
 13 16  1  0
 16 17  1  0
 17 18  1  0
 18 19  1  0
 19 20  1  0
 20 21  1  0
 12 22  1  0
 22 23  1  0
  5 24  1  0
 24 25  2  0
 25 26  1  0
 26 27  2  0
 27 28  1  0
 28 29  1  0
 28 30  2  0
 30 31  1  0
 23  9  1  0
 30 24  1  0
 21 16  1  0
M  END
>  <energy_score>  (4388) 
-24.768544

>  <inchikey>  (4388) 
OFPBKUPPXCGZBC-UHFFFAOYSA-N

>  <smiles>  (4388) 
COC(=O)C(OC(=O)C1CCN(S(=O)(=O)N2CCCCC2)CC1)c1cccc(Cl)c1C

>  <ref_pdb>  (4388) 
A0875a

>  <alias>  (4388) 
OFPBKUPPXCGZBC-UHFFFAOYSA-N-P439-P87-P439-601505

>  <HIPPO Pose ID>  (4388) 
508791

>  <name>  (4388) 
OFPBKUPPXCGZBC-UHFFFAOYSA-N-P439-P87-P439-601505

>  <HIPPO Compound ID>  (4388) 
314932

>  <ref_mols>  (4388) 
A4706a,A0875a

>  <distance_score>  (4388) 
1.949042

>  <inspiration_score>  (4388) 
None

$$$$
WBPJSKAMZLILML-UHFFFAOYSA-M-P87-P87-P439-601505
     RDKit          3D

 31 34  0  0  0  0  0  0  0  0999 V2000
   12.7282   12.8211   22.4490 O   0  0  0  0  0  0  0  0  0  0  0  0
   12.7803   14.0356   22.0957 C   0  0  0  0  0  0  0  0  0  0  0  0
   13.2571   14.9775   22.7686 O   0  0  0  0  0  0  0  0  0  0  0  0
   12.3455   14.4318   20.7253 C   0  0  0  0  0  0  0  0  0  0  0  0
   10.9776   14.6819   20.9839 N   0  0  0  0  0  0  0  0  0  0  0  0
   10.4036   15.8044   21.4629 C   0  0  0  0  0  0  0  0  0  0  0  0
    9.0848   15.4456   21.4818 C   0  0  0  0  0  0  0  0  0  0  0  0
    7.9226   16.1438   22.1777 C   0  0  0  0  0  0  0  0  0  0  0  0
    6.7105   15.3082   22.2154 O   0  0  0  0  0  0  0  0  0  0  0  0
    6.2033   14.9083   23.4193 C   0  0  0  0  0  0  0  0  0  0  0  0
    5.3791   15.5109   24.0963 O   0  0  0  0  0  0  0  0  0  0  0  0
    6.6551   13.5485   23.8553 C   0  0  0  0  0  0  0  0  0  0  0  0
    7.9693   13.1738   23.2949 C   0  0  0  0  0  0  0  0  0  0  0  0
    8.6055   12.0089   23.9602 C   0  0  0  0  0  0  0  0  0  0  0  0
    8.8982   12.4470   25.3148 N   0  0  0  0  0  0  0  0  0  0  0  0
   10.2785   13.4329   25.4428 S   0  0  0  0  0  0  0  0  0  0  0  0
   10.5468   14.0683   24.1915 O   0  0  0  0  0  0  0  0  0  0  0  0
   10.2479   14.2129   26.6609 O   0  0  0  0  0  0  0  0  0  0  0  0
   11.4331   12.1888   25.6860 N   0  0  0  0  0  0  0  0  0  0  0  0
   12.7779   12.7973   25.7570 C   0  0  0  0  0  0  0  0  0  0  0  0
   13.8778   11.7986   26.0590 C   0  0  0  0  0  0  0  0  0  0  0  0
   13.8625   10.6656   25.0491 C   0  0  0  0  0  0  0  0  0  0  0  0
   12.4585   10.0462   24.8905 C   0  0  0  0  0  0  0  0  0  0  0  0
   11.3766   11.0960   24.6843 C   0  0  0  0  0  0  0  0  0  0  0  0
    7.6659   12.6185   26.0867 C   0  0  0  0  0  0  0  0  0  0  0  0
    6.4443   13.1427   25.3181 C   0  0  0  0  0  0  0  0  0  0  0  0
    7.9358   17.6259   21.7195 C   0  0  0  0  0  0  0  0  0  0  0  0
    8.7880   17.9598   22.8555 O   0  0  0  0  0  0  0  0  0  0  0  0
    8.3911   16.7374   23.4710 C   0  0  0  0  0  0  0  0  0  0  0  0
    8.9017   14.2399   20.9422 N   0  0  0  0  0  0  0  0  0  0  0  0
   10.0870   13.7173   20.7980 N   0  0  0  0  0  0  0  0  0  0  0  0
  1  2  2  0
  2  3  1  0
  2  4  1  0
  4  5  1  0
  5  6  1  0
  6  7  2  0
  7  8  1  0
  8  9  1  0
  9 10  1  0
 10 11  2  0
 10 12  1  0
 12 13  1  0
 13 14  1  0
 14 15  1  0
 15 16  1  0
 16 17  2  0
 16 18  2  0
 16 19  1  0
 19 20  1  0
 20 21  1  0
 21 22  1  0
 22 23  1  0
 23 24  1  0
 15 25  1  0
 25 26  1  0
  8 27  1  0
 27 28  1  0
 28 29  1  0
  7 30  1  0
 30 31  2  0
 31  5  1  0
 29  8  1  0
 26 12  1  0
 24 19  1  0
M  CHG  1   3  -1
M  END
>  <energy_score>  (4389) 
-18.963707

>  <inchikey>  (4389) 
WBPJSKAMZLILML-UHFFFAOYSA-M

>  <smiles>  (4389) 
O=C([O-])Cn1cc(C2(OC(=O)C3CCN(S(=O)(=O)N4CCCCC4)CC3)COC2)nn1

>  <ref_pdb>  (4389) 
A0875a

>  <alias>  (4389) 
WBPJSKAMZLILML-UHFFFAOYSA-M-P87-P87-P439-601505

>  <HIPPO Pose ID>  (4389) 
508792

>  <name>  (4389) 
WBPJSKAMZLILML-UHFFFAOYSA-M-P87-P87-P439-601505

>  <HIPPO Compound ID>  (4389) 
314933

>  <ref_mols>  (4389) 
A4706a,A0875a

>  <distance_score>  (4389) 
1.920958

>  <inspiration_score>  (4389) 
None

$$$$
DFRRHUHJZYDKSI-UHFFFAOYSA-N-P439-P87-P439-601505
     RDKit          3D

 31 33  0  0  0  0  0  0  0  0999 V2000
    9.2695   10.1185   23.5210 C   0  0  0  0  0  0  0  0  0  0  0  0
    8.7001   11.4107   23.2745 O   0  0  0  0  0  0  0  0  0  0  0  0
    9.5732   12.3709   22.8717 C   0  0  0  0  0  0  0  0  0  0  0  0
   10.7600   12.1478   22.7123 O   0  0  0  0  0  0  0  0  0  0  0  0
    8.9484   13.7517   22.7503 C   0  0  2  0  0  0  0  0  0  0  0  0
   10.0692   14.8130   22.9011 C   0  0  0  0  0  0  0  0  0  0  0  0
   10.5764   15.1331   21.5395 C   0  0  0  0  0  0  0  0  0  0  0  0
   11.7375   14.5470   21.0998 C   0  0  0  0  0  0  0  0  0  0  0  0
   12.0217   14.5208   19.7507 C   0  0  0  0  0  0  0  0  0  0  0  0
   11.1377   15.0316   18.8268 C   0  0  0  0  0  0  0  0  0  0  0  0
   10.0016   15.6701   19.2785 C   0  0  0  0  0  0  0  0  0  0  0  0
    9.7713   15.7938   20.6344 C   0  0  0  0  0  0  0  0  0  0  0  0
    8.3534   16.8162   21.2923 Br  0  0  0  0  0  0  0  0  0  0  0  0
    7.9908   13.9644   23.7885 O   0  0  0  0  0  0  0  0  0  0  0  0
    6.7504   13.4770   23.5844 C   0  0  0  0  0  0  0  0  0  0  0  0
    6.3424   13.0445   22.5151 O   0  0  0  0  0  0  0  0  0  0  0  0
    5.9671   13.4365   24.8791 C   0  0  0  0  0  0  0  0  0  0  0  0
    6.3617   12.1534   25.6181 C   0  0  0  0  0  0  0  0  0  0  0  0
    7.7641   12.2280   26.2163 C   0  0  0  0  0  0  0  0  0  0  0  0
    8.0333   13.4948   26.8959 N   0  0  0  0  0  0  0  0  0  0  0  0
    9.4959   14.3183   26.8183 S   0  0  0  0  0  0  0  0  0  0  0  0
    9.5561   15.0671   28.0475 O   0  0  0  0  0  0  0  0  0  0  0  0
    9.6069   15.0127   25.5656 O   0  0  0  0  0  0  0  0  0  0  0  0
   10.7575   13.1519   26.8908 N   0  0  0  0  0  0  0  0  0  0  0  0
   11.9660   13.7505   27.5400 C   0  0  0  0  0  0  0  0  0  0  0  0
   13.1915   12.8289   27.4574 C   0  0  0  0  0  0  0  0  0  0  0  0
   13.5451   12.3817   26.0495 C   0  0  0  0  0  0  0  0  0  0  0  0
   12.4680   12.8063   25.0833 C   0  0  0  0  0  0  0  0  0  0  0  0
   11.0850   12.4882   25.6136 C   0  0  0  0  0  0  0  0  0  0  0  0
    6.8430   14.3619   27.0855 C   0  0  0  0  0  0  0  0  0  0  0  0
    6.1724   14.6806   25.7524 C   0  0  0  0  0  0  0  0  0  0  0  0
  1  2  1  0
  2  3  1  0
  3  4  2  0
  3  5  1  0
  5  6  1  1
  6  7  1  0
  7  8  2  0
  8  9  1  0
  9 10  2  0
 10 11  1  0
 11 12  2  0
 12 13  1  0
  5 14  1  0
 14 15  1  0
 15 16  2  0
 15 17  1  0
 17 18  1  0
 18 19  1  0
 19 20  1  0
 20 21  1  0
 21 22  2  0
 21 23  2  0
 21 24  1  0
 24 25  1  0
 25 26  1  0
 26 27  1  0
 27 28  1  0
 28 29  1  0
 20 30  1  0
 30 31  1  0
 12  7  1  0
 31 17  1  0
 29 24  1  0
M  END
>  <energy_score>  (4390) 
-51.838555

>  <inchikey>  (4390) 
DFRRHUHJZYDKSI-UHFFFAOYSA-N

>  <smiles>  (4390) 
COC(=O)C(Cc1ccccc1Br)OC(=O)C1CCN(S(=O)(=O)N2CCCCC2)CC1

>  <ref_pdb>  (4390) 
A0875a

>  <alias>  (4390) 
DFRRHUHJZYDKSI-UHFFFAOYSA-N-P439-P87-P439-601505

>  <HIPPO Pose ID>  (4390) 
508799

>  <name>  (4390) 
DFRRHUHJZYDKSI-UHFFFAOYSA-N-P439-P87-P439-601505

>  <HIPPO Compound ID>  (4390) 
314936

>  <ref_mols>  (4390) 
A4706a,A0875a

>  <distance_score>  (4390) 
1.651331

>  <inspiration_score>  (4390) 
None

$$$$
NQUBPLOWYTYIAZ-UHFFFAOYSA-N-P439-P87-P439-601505
     RDKit          3D

 31 33  0  0  0  0  0  0  0  0999 V2000
    9.3138   17.7896   20.0554 C   0  0  0  0  0  0  0  0  0  0  0  0
    8.1255   18.0651   20.8885 C   0  0  0  0  0  0  0  0  0  0  0  0
    8.1070   17.0366   21.8663 O   0  0  0  0  0  0  0  0  0  0  0  0
    7.0972   16.1543   21.9731 C   0  0  0  0  0  0  0  0  0  0  0  0
    5.9068   16.3965   22.1420 O   0  0  0  0  0  0  0  0  0  0  0  0
    7.6352   14.7515   21.9656 C   0  0  2  0  0  0  0  0  0  0  0  0
    7.5093   14.3926   23.3470 O   0  0  0  0  0  0  0  0  0  0  0  0
    6.5277   13.5060   23.5927 C   0  0  0  0  0  0  0  0  0  0  0  0
    6.0019   12.8352   22.7144 O   0  0  0  0  0  0  0  0  0  0  0  0
    6.1243   13.3741   25.0520 C   0  0  0  0  0  0  0  0  0  0  0  0
    6.4135   11.9588   25.5693 C   0  0  0  0  0  0  0  0  0  0  0  0
    7.8472   11.6930   26.0095 C   0  0  0  0  0  0  0  0  0  0  0  0
    8.4915   12.9032   26.5734 N   0  0  0  0  0  0  0  0  0  0  0  0
    9.7053   13.5777   25.6469 S   0  0  0  0  0  0  0  0  0  0  0  0
    9.8717   14.9520   26.0593 O   0  0  0  0  0  0  0  0  0  0  0  0
    9.4347   13.2196   24.2796 O   0  0  0  0  0  0  0  0  0  0  0  0
   11.1273   12.7504   26.0719 N   0  0  0  0  0  0  0  0  0  0  0  0
   11.8959   13.4619   27.1283 C   0  0  0  0  0  0  0  0  0  0  0  0
   13.1843   12.7189   27.4979 C   0  0  0  0  0  0  0  0  0  0  0  0
   14.0102   12.2327   26.3203 C   0  0  0  0  0  0  0  0  0  0  0  0
   13.1312   11.6012   25.2690 C   0  0  0  0  0  0  0  0  0  0  0  0
   12.0043   12.5396   24.8826 C   0  0  0  0  0  0  0  0  0  0  0  0
    7.4998   13.8726   27.1194 C   0  0  0  0  0  0  0  0  0  0  0  0
    6.6411   14.4569   26.0052 C   0  0  0  0  0  0  0  0  0  0  0  0
    9.0406   14.6710   21.4243 C   0  0  0  0  0  0  0  0  0  0  0  0
    9.2869   14.4132   20.1529 N   0  0  0  0  0  0  0  0  0  0  0  0
   10.6167   14.6118   19.9123 C   0  0  0  0  0  0  0  0  0  0  0  0
   11.1846   15.0229   21.0693 C   0  0  0  0  0  0  0  0  0  0  0  0
   12.6914   15.6417   21.4230 Cl  0  0  0  0  0  0  0  0  0  0  0  0
   10.2162   15.0507   22.0156 N   0  0  0  0  0  0  0  0  0  0  0  0
   10.4299   15.6099   23.3053 C   0  0  0  0  0  0  0  0  0  0  0  0
  1  2  1  0
  2  3  1  0
  3  4  1  0
  4  5  2  0
  4  6  1  0
  6  7  1  1
  7  8  1  0
  8  9  2  0
  8 10  1  0
 10 11  1  0
 11 12  1  0
 12 13  1  0
 13 14  1  0
 14 15  2  0
 14 16  2  0
 14 17  1  0
 17 18  1  0
 18 19  1  0
 19 20  1  0
 20 21  1  0
 21 22  1  0
 13 23  1  0
 23 24  1  0
  6 25  1  0
 25 26  2  0
 26 27  1  0
 27 28  2  0
 28 29  1  0
 28 30  1  0
 30 31  1  0
 24 10  1  0
 30 25  1  0
 22 17  1  0
M  END
>  <energy_score>  (4391) 
-26.75306

>  <inchikey>  (4391) 
NQUBPLOWYTYIAZ-UHFFFAOYSA-N

>  <smiles>  (4391) 
CCOC(=O)C(OC(=O)C1CCN(S(=O)(=O)N2CCCCC2)CC1)c1ncc(Cl)n1C

>  <ref_pdb>  (4391) 
A0875a

>  <alias>  (4391) 
NQUBPLOWYTYIAZ-UHFFFAOYSA-N-P439-P87-P439-601505

>  <HIPPO Pose ID>  (4391) 
508815

>  <name>  (4391) 
NQUBPLOWYTYIAZ-UHFFFAOYSA-N-P439-P87-P439-601505

>  <HIPPO Compound ID>  (4391) 
314944

>  <ref_mols>  (4391) 
A4706a,A0875a

>  <distance_score>  (4391) 
1.630744

>  <inspiration_score>  (4391) 
None

$$$$
QUADFPICCGWDFF-UHFFFAOYSA-N-P439-P87-P439-601505
     RDKit          3D

 31 33  0  0  0  0  0  0  0  0999 V2000
    5.1116   15.0119   21.8088 C   0  0  0  0  0  0  0  0  0  0  0  0
    5.8152   16.2033   22.1831 O   0  0  0  0  0  0  0  0  0  0  0  0
    7.1603   16.3000   21.9924 C   0  0  0  0  0  0  0  0  0  0  0  0
    7.6849   17.2240   21.3751 O   0  0  0  0  0  0  0  0  0  0  0  0
    8.0492   15.2557   22.6474 C   0  0  1  0  0  0  0  0  0  0  0  0
    7.4322   14.0250   23.0236 O   0  0  0  0  0  0  0  0  0  0  0  0
    6.7829   14.1711   24.2184 C   0  0  0  0  0  0  0  0  0  0  0  0
    6.5414   15.2482   24.7520 O   0  0  0  0  0  0  0  0  0  0  0  0
    6.3326   12.8566   24.8143 C   0  0  0  0  0  0  0  0  0  0  0  0
    7.3830   11.7445   24.7217 C   0  0  0  0  0  0  0  0  0  0  0  0
    8.1866   11.5545   25.9902 C   0  0  0  0  0  0  0  0  0  0  0  0
    8.4431   12.8388   26.6297 N   0  0  0  0  0  0  0  0  0  0  0  0
    9.6824   13.8097   26.0621 S   0  0  0  0  0  0  0  0  0  0  0  0
    9.7466   14.9551   26.9323 O   0  0  0  0  0  0  0  0  0  0  0  0
    9.5206   13.9578   24.6461 O   0  0  0  0  0  0  0  0  0  0  0  0
   11.0746   12.8590   26.2889 N   0  0  0  0  0  0  0  0  0  0  0  0
   11.5804   12.2213   25.0495 C   0  0  0  0  0  0  0  0  0  0  0  0
   12.7313   11.2597   25.3824 C   0  0  0  0  0  0  0  0  0  0  0  0
   13.5601   11.6271   26.5939 C   0  0  0  0  0  0  0  0  0  0  0  0
   13.5535   13.1002   26.6901 C   0  0  0  0  0  0  0  0  0  0  0  0
   12.1417   13.6250   26.9859 C   0  0  0  0  0  0  0  0  0  0  0  0
    7.1986   13.5425   27.0831 C   0  0  0  0  0  0  0  0  0  0  0  0
    5.9720   13.0953   26.2831 C   0  0  0  0  0  0  0  0  0  0  0  0
    9.3198   15.0598   21.8167 C   0  0  0  0  0  0  0  0  0  0  0  0
    9.2545   14.8101   20.4474 C   0  0  0  0  0  0  0  0  0  0  0  0
   10.3969   14.7232   19.6572 C   0  0  0  0  0  0  0  0  0  0  0  0
   11.6264   14.8424   20.2642 C   0  0  0  0  0  0  0  0  0  0  0  0
   12.7122   14.6341   19.5212 F   0  0  0  0  0  0  0  0  0  0  0  0
   11.7159   15.1710   21.6071 C   0  0  0  0  0  0  0  0  0  0  0  0
   12.8883   15.4231   22.1883 F   0  0  0  0  0  0  0  0  0  0  0  0
   10.5773   15.2981   22.3744 C   0  0  0  0  0  0  0  0  0  0  0  0
  1  2  1  0
  2  3  1  0
  3  4  2  0
  3  5  1  0
  5  6  1  6
  6  7  1  0
  7  8  2  0
  7  9  1  0
  9 10  1  0
 10 11  1  0
 11 12  1  0
 12 13  1  0
 13 14  2  0
 13 15  2  0
 13 16  1  0
 16 17  1  0
 17 18  1  0
 18 19  1  0
 19 20  1  0
 20 21  1  0
 12 22  1  0
 22 23  1  0
  5 24  1  0
 24 25  2  0
 25 26  1  0
 26 27  2  0
 27 28  1  0
 27 29  1  0
 29 30  1  0
 29 31  2  0
 23  9  1  0
 31 24  1  0
 21 16  1  0
M  END
>  <energy_score>  (4392) 
-35.478709

>  <inchikey>  (4392) 
QUADFPICCGWDFF-UHFFFAOYSA-N

>  <smiles>  (4392) 
COC(=O)C(OC(=O)C1CCN(S(=O)(=O)N2CCCCC2)CC1)c1ccc(F)c(F)c1

>  <ref_pdb>  (4392) 
A0875a

>  <alias>  (4392) 
QUADFPICCGWDFF-UHFFFAOYSA-N-P439-P87-P439-601505

>  <HIPPO Pose ID>  (4392) 
508833

>  <name>  (4392) 
QUADFPICCGWDFF-UHFFFAOYSA-N-P439-P87-P439-601505

>  <HIPPO Compound ID>  (4392) 
314953

>  <ref_mols>  (4392) 
A4706a,A0875a

>  <distance_score>  (4392) 
1.746734

>  <inspiration_score>  (4392) 
None

$$$$
KTPHXWKBJKZNLH-UHFFFAOYSA-N-P439-P87-P439-601505
     RDKit          3D

 31 33  0  0  0  0  0  0  0  0999 V2000
    7.9160   19.2149   19.8025 C   0  0  0  0  0  0  0  0  0  0  0  0
    8.4749   18.5866   21.0533 C   0  0  0  0  0  0  0  0  0  0  0  0
    8.3840   17.1754   21.0170 O   0  0  0  0  0  0  0  0  0  0  0  0
    7.6261   16.4836   21.9038 C   0  0  0  0  0  0  0  0  0  0  0  0
    6.6322   16.8302   22.5275 O   0  0  0  0  0  0  0  0  0  0  0  0
    8.2422   15.1314   22.1586 C   0  0  1  0  0  0  0  0  0  0  0  0
    7.3263   14.0581   21.8897 O   0  0  0  0  0  0  0  0  0  0  0  0
    6.3314   13.7924   22.7821 C   0  0  0  0  0  0  0  0  0  0  0  0
    5.2012   13.5326   22.3989 O   0  0  0  0  0  0  0  0  0  0  0  0
    6.7418   13.7336   24.2332 C   0  0  0  0  0  0  0  0  0  0  0  0
    6.4913   12.4021   24.9407 C   0  0  0  0  0  0  0  0  0  0  0  0
    7.2317   12.3625   26.2865 C   0  0  0  0  0  0  0  0  0  0  0  0
    7.6526   13.7142   26.7096 N   0  0  0  0  0  0  0  0  0  0  0  0
    9.1775   14.3929   26.4947 S   0  0  0  0  0  0  0  0  0  0  0  0
    9.2205   15.1895   25.2916 O   0  0  0  0  0  0  0  0  0  0  0  0
    9.5102   15.0068   27.7532 O   0  0  0  0  0  0  0  0  0  0  0  0
   10.2632   13.1352   26.2396 N   0  0  0  0  0  0  0  0  0  0  0  0
   11.6683   13.6138   26.4535 C   0  0  0  0  0  0  0  0  0  0  0  0
   12.6534   12.4564   26.4254 C   0  0  0  0  0  0  0  0  0  0  0  0
   12.4005   11.5287   25.2524 C   0  0  0  0  0  0  0  0  0  0  0  0
   10.9110   11.2106   25.0094 C   0  0  0  0  0  0  0  0  0  0  0  0
   10.1727   12.5084   24.9033 C   0  0  0  0  0  0  0  0  0  0  0  0
    6.5319   14.6833   26.5738 C   0  0  0  0  0  0  0  0  0  0  0  0
    6.2131   14.8870   25.0881 C   0  0  0  0  0  0  0  0  0  0  0  0
    9.5550   14.9449   21.4460 C   0  0  0  0  0  0  0  0  0  0  0  0
    9.5691   14.8724   20.0522 C   0  0  0  0  0  0  0  0  0  0  0  0
   10.7361   14.7578   19.3427 C   0  0  0  0  0  0  0  0  0  0  0  0
   11.9003   14.7667   20.0621 C   0  0  0  0  0  0  0  0  0  0  0  0
   13.0199   14.5792   19.3832 F   0  0  0  0  0  0  0  0  0  0  0  0
   11.9376   14.9896   21.4354 C   0  0  0  0  0  0  0  0  0  0  0  0
   10.7582   15.0662   22.1381 C   0  0  0  0  0  0  0  0  0  0  0  0
  1  2  1  0
  2  3  1  0
  3  4  1  0
  4  5  2  0
  4  6  1  0
  6  7  1  6
  7  8  1  0
  8  9  2  0
  8 10  1  0
 10 11  1  0
 11 12  1  0
 12 13  1  0
 13 14  1  0
 14 15  2  0
 14 16  2  0
 14 17  1  0
 17 18  1  0
 18 19  1  0
 19 20  1  0
 20 21  1  0
 21 22  1  0
 13 23  1  0
 23 24  1  0
  6 25  1  0
 25 26  2  0
 26 27  1  0
 27 28  2  0
 28 29  1  0
 28 30  1  0
 30 31  2  0
 24 10  1  0
 31 25  1  0
 22 17  1  0
M  END
>  <energy_score>  (4393) 
-35.509276

>  <inchikey>  (4393) 
KTPHXWKBJKZNLH-UHFFFAOYSA-N

>  <smiles>  (4393) 
CCOC(=O)C(OC(=O)C1CCN(S(=O)(=O)N2CCCCC2)CC1)c1ccc(F)cc1

>  <ref_pdb>  (4393) 
A0875a

>  <alias>  (4393) 
KTPHXWKBJKZNLH-UHFFFAOYSA-N-P439-P87-P439-601505

>  <HIPPO Pose ID>  (4393) 
508839

>  <name>  (4393) 
KTPHXWKBJKZNLH-UHFFFAOYSA-N-P439-P87-P439-601505

>  <HIPPO Compound ID>  (4393) 
314956

>  <ref_mols>  (4393) 
A4706a,A0875a

>  <distance_score>  (4393) 
1.510303

>  <inspiration_score>  (4393) 
None

$$$$
YYGRANIUQYXKDJ-UHFFFAOYSA-N-P439-P87-P439-601505
     RDKit          3D

 31 33  0  0  0  0  0  0  0  0999 V2000
    3.2684   14.2683   22.2133 C   0  0  0  0  0  0  0  0  0  0  0  0
    4.5101   14.7822   22.7044 O   0  0  0  0  0  0  0  0  0  0  0  0
    5.5985   14.5272   21.8913 C   0  0  0  0  0  0  0  0  0  0  0  0
    5.4880   13.9084   20.8473 O   0  0  0  0  0  0  0  0  0  0  0  0
    6.9082   15.1146   22.5404 C   0  0  1  0  0  0  0  0  0  0  0  0
    6.5880   16.6045   22.6836 C   0  0  0  0  0  0  0  0  0  0  0  0
    7.0041   14.6772   23.9102 O   0  0  0  0  0  0  0  0  0  0  0  0
    6.5086   13.4529   24.1856 C   0  0  0  0  0  0  0  0  0  0  0  0
    6.4205   12.5450   23.3738 O   0  0  0  0  0  0  0  0  0  0  0  0
    5.9695   13.3629   25.5965 C   0  0  0  0  0  0  0  0  0  0  0  0
    6.3032   11.9895   26.1716 C   0  0  0  0  0  0  0  0  0  0  0  0
    7.8062   11.7618   26.2132 C   0  0  0  0  0  0  0  0  0  0  0  0
    8.5399   13.0234   26.5046 N   0  0  0  0  0  0  0  0  0  0  0  0
    9.6538   13.5306   25.3588 S   0  0  0  0  0  0  0  0  0  0  0  0
    9.8433   14.9554   25.4790 O   0  0  0  0  0  0  0  0  0  0  0  0
    9.2859   12.8978   24.1199 O   0  0  0  0  0  0  0  0  0  0  0  0
   11.0845   12.7831   25.8965 N   0  0  0  0  0  0  0  0  0  0  0  0
   11.7607   13.5128   26.9993 C   0  0  0  0  0  0  0  0  0  0  0  0
   13.0565   12.8036   27.4342 C   0  0  0  0  0  0  0  0  0  0  0  0
   13.9435   12.2828   26.3153 C   0  0  0  0  0  0  0  0  0  0  0  0
   13.1123   11.6390   25.2326 C   0  0  0  0  0  0  0  0  0  0  0  0
   12.0385   12.6102   24.7749 C   0  0  0  0  0  0  0  0  0  0  0  0
    7.7710   14.0546   27.2408 C   0  0  0  0  0  0  0  0  0  0  0  0
    6.4989   14.4639   26.5188 C   0  0  0  0  0  0  0  0  0  0  0  0
    8.2731   15.0221   21.8047 C   0  0  0  0  0  0  0  0  0  0  0  0
    8.3829   14.7851   20.4501 C   0  0  0  0  0  0  0  0  0  0  0  0
    9.5256   15.0124   19.6540 C   0  0  0  0  0  0  0  0  0  0  0  0
   10.7097   15.2139   20.2689 C   0  0  0  0  0  0  0  0  0  0  0  0
   10.6693   15.3200   21.6362 C   0  0  0  0  0  0  0  0  0  0  0  0
   12.2993   15.3448   22.4506 Br  0  0  0  0  0  0  0  0  0  0  0  0
    9.4879   15.3455   22.3810 C   0  0  0  0  0  0  0  0  0  0  0  0
  1  2  1  0
  2  3  1  0
  3  4  2  0
  3  5  1  0
  5  6  1  1
  5  7  1  0
  7  8  1  0
  8  9  2  0
  8 10  1  0
 10 11  1  0
 11 12  1  0
 12 13  1  0
 13 14  1  0
 14 15  2  0
 14 16  2  0
 14 17  1  0
 17 18  1  0
 18 19  1  0
 19 20  1  0
 20 21  1  0
 21 22  1  0
 13 23  1  0
 23 24  1  0
  5 25  1  0
 25 26  2  0
 26 27  1  0
 27 28  2  0
 28 29  1  0
 29 30  1  0
 29 31  2  0
 24 10  1  0
 31 25  1  0
 22 17  1  0
M  END
>  <energy_score>  (4394) 
-46.95697

>  <inchikey>  (4394) 
YYGRANIUQYXKDJ-UHFFFAOYSA-N

>  <smiles>  (4394) 
COC(=O)C(C)(OC(=O)C1CCN(S(=O)(=O)N2CCCCC2)CC1)c1cccc(Br)c1

>  <ref_pdb>  (4394) 
A0875a

>  <alias>  (4394) 
YYGRANIUQYXKDJ-UHFFFAOYSA-N-P439-P87-P439-601505

>  <HIPPO Pose ID>  (4394) 
508841

>  <name>  (4394) 
YYGRANIUQYXKDJ-UHFFFAOYSA-N-P439-P87-P439-601505

>  <HIPPO Compound ID>  (4394) 
314957

>  <ref_mols>  (4394) 
A4706a,A0875a

>  <distance_score>  (4394) 
1.906858

>  <inspiration_score>  (4394) 
None

$$$$
KCFBIEGMIVAYEL-UHFFFAOYSA-N-P87-P87-P439-601505
     RDKit          3D

 31 33  0  0  0  0  0  0  0  0999 V2000
   19.7768   13.2326   27.3632 C   0  0  0  0  0  0  0  0  0  0  0  0
   18.4851   13.8932   26.9226 C   0  0  0  0  0  0  0  0  0  0  0  0
   17.3962   13.2287   27.5751 O   0  0  0  0  0  0  0  0  0  0  0  0
   16.4160   12.6978   26.7963 C   0  0  0  0  0  0  0  0  0  0  0  0
   16.2931   12.8056   25.5845 O   0  0  0  0  0  0  0  0  0  0  0  0
   15.4107   11.9498   27.6537 C   0  0  1  0  0  0  0  0  0  0  0  0
   14.1387   11.7775   26.9475 O   0  0  0  0  0  0  0  0  0  0  0  0
   14.0211   11.1258   25.7640 C   0  0  0  0  0  0  0  0  0  0  0  0
   14.7104   10.1683   25.4426 O   0  0  0  0  0  0  0  0  0  0  0  0
   12.8677   11.6314   24.9098 C   0  0  0  0  0  0  0  0  0  0  0  0
   12.3741   12.9881   25.3490 C   0  0  0  0  0  0  0  0  0  0  0  0
   10.9004   12.9804   25.5234 C   0  0  0  0  0  0  0  0  0  0  0  0
   10.2424   12.6073   24.2806 N   0  0  0  0  0  0  0  0  0  0  0  0
    8.6694   13.1096   24.1740 S   0  0  0  0  0  0  0  0  0  0  0  0
    7.9549   12.2304   23.3037 O   0  0  0  0  0  0  0  0  0  0  0  0
    8.2533   13.2983   25.5442 O   0  0  0  0  0  0  0  0  0  0  0  0
    8.8229   14.5186   23.3520 N   0  0  0  0  0  0  0  0  0  0  0  0
    9.9362   15.3947   23.6063 C   0  0  0  0  0  0  0  0  0  0  0  0
   11.1377   15.0510   22.7330 C   0  0  0  0  0  0  0  0  0  0  0  0
   10.7744   15.3173   21.3196 C   0  0  0  0  0  0  0  0  0  0  0  0
    9.5433   14.5054   21.0141 C   0  0  0  0  0  0  0  0  0  0  0  0
    8.3710   14.6857   21.9647 C   0  0  0  0  0  0  0  0  0  0  0  0
   10.6617   11.3488   23.6520 C   0  0  0  0  0  0  0  0  0  0  0  0
   11.6625   10.6607   24.5909 C   0  0  0  0  0  0  0  0  0  0  0  0
   16.0127   10.6596   28.2622 C   0  0  1  0  0  0  0  0  0  0  0  0
   16.8356    9.9067   27.3054 N   0  0  0  0  0  0  0  0  0  0  0  0
   16.8614   10.9520   29.5209 C   0  0  0  0  0  0  0  0  0  0  0  0
   16.9745    9.7141   30.4217 C   0  0  0  0  0  0  0  0  0  0  0  0
   17.6761    9.9597   31.7838 C   0  0  0  0  0  0  0  0  0  0  0  0
   16.2821   10.1253   32.4168 C   0  0  0  0  0  0  0  0  0  0  0  0
   15.7145    9.3133   31.2381 C   0  0  0  0  0  0  0  0  0  0  0  0
  1  2  1  0
  2  3  1  0
  3  4  1  0
  4  5  2  0
  4  6  1  0
  6  7  1  6
  7  8  1  0
  8  9  2  0
  8 10  1  0
 10 11  1  0
 11 12  1  0
 12 13  1  0
 13 14  1  0
 14 15  2  0
 14 16  2  0
 14 17  1  0
 17 18  1  0
 18 19  1  0
 19 20  1  0
 20 21  1  0
 21 22  1  0
 13 23  1  0
 23 24  1  0
  6 25  1  0
 25 26  1  6
 25 27  1  0
 27 28  1  0
 28 29  1  0
 29 30  1  0
 30 31  1  0
 24 10  1  0
 31 28  1  0
 22 17  1  0
M  END
>  <energy_score>  (4395) 
-48.546435

>  <inchikey>  (4395) 
KCFBIEGMIVAYEL-UHFFFAOYSA-N

>  <smiles>  (4395) 
CCOC(=O)C(OC(=O)C1CCN(S(=O)(=O)N2CCCCC2)CC1)C(N)CC1CCC1

>  <ref_pdb>  (4395) 
A0875a

>  <alias>  (4395) 
KCFBIEGMIVAYEL-UHFFFAOYSA-N-P87-P87-P439-601505

>  <HIPPO Pose ID>  (4395) 
508844

>  <name>  (4395) 
KCFBIEGMIVAYEL-UHFFFAOYSA-N-P87-P87-P439-601505

>  <HIPPO Compound ID>  (4395) 
314959

>  <ref_mols>  (4395) 
A4706a,A0875a

>  <distance_score>  (4395) 
1.434407

>  <inspiration_score>  (4395) 
None

$$$$
KCFBIEGMIVAYEL-UHFFFAOYSA-N-P439-P87-P439-601505
     RDKit          3D

 31 33  0  0  0  0  0  0  0  0999 V2000
   19.8240    9.0108   28.6287 C   0  0  0  0  0  0  0  0  0  0  0  0
   19.4270   10.1895   27.7618 C   0  0  0  0  0  0  0  0  0  0  0  0
   18.3306   10.8761   28.3832 O   0  0  0  0  0  0  0  0  0  0  0  0
   17.0785   10.5648   27.9387 C   0  0  0  0  0  0  0  0  0  0  0  0
   16.8222    9.7584   27.0548 O   0  0  0  0  0  0  0  0  0  0  0  0
   16.0358   11.3997   28.6997 C   0  0  1  0  0  0  0  0  0  0  0  0
   14.7720   11.4839   27.9838 O   0  0  0  0  0  0  0  0  0  0  0  0
   14.8637   12.2314   26.8577 C   0  0  0  0  0  0  0  0  0  0  0  0
   15.9267   12.6245   26.4112 O   0  0  0  0  0  0  0  0  0  0  0  0
   13.5544   12.6495   26.2384 C   0  0  0  0  0  0  0  0  0  0  0  0
   12.6212   13.1707   27.3050 C   0  0  0  0  0  0  0  0  0  0  0  0
   11.2004   13.4094   26.8248 C   0  0  0  0  0  0  0  0  0  0  0  0
   11.1553   13.5116   25.3622 N   0  0  0  0  0  0  0  0  0  0  0  0
    9.6640   14.0998   24.8081 S   0  0  0  0  0  0  0  0  0  0  0  0
    8.7075   13.0252   24.8599 O   0  0  0  0  0  0  0  0  0  0  0  0
    9.4244   15.3361   25.5066 O   0  0  0  0  0  0  0  0  0  0  0  0
   10.0130   14.3955   23.2010 N   0  0  0  0  0  0  0  0  0  0  0  0
   11.1933   15.2426   22.9269 C   0  0  0  0  0  0  0  0  0  0  0  0
   11.5733   15.1569   21.4637 C   0  0  0  0  0  0  0  0  0  0  0  0
   10.4031   15.5587   20.5850 C   0  0  0  0  0  0  0  0  0  0  0  0
    9.1969   14.7065   20.9273 C   0  0  0  0  0  0  0  0  0  0  0  0
    8.8390   14.8124   22.3957 C   0  0  0  0  0  0  0  0  0  0  0  0
   11.6195   12.3010   24.6632 C   0  0  0  0  0  0  0  0  0  0  0  0
   12.8473   11.6697   25.3418 C   0  0  0  0  0  0  0  0  0  0  0  0
   15.7601   10.8627   30.1368 C   0  0  1  0  0  0  0  0  0  0  0  0
   16.9490   10.4482   30.8936 N   0  0  0  0  0  0  0  0  0  0  0  0
   15.0402   11.9692   30.9518 C   0  0  0  0  0  0  0  0  0  0  0  0
   14.6350   11.5066   32.3580 C   0  0  0  0  0  0  0  0  0  0  0  0
   13.8880   12.5694   33.2072 C   0  0  0  0  0  0  0  0  0  0  0  0
   12.5656   11.9225   32.7648 C   0  0  0  0  0  0  0  0  0  0  0  0
   13.3600   10.6342   32.4726 C   0  0  0  0  0  0  0  0  0  0  0  0
  1  2  1  0
  2  3  1  0
  3  4  1  0
  4  5  2  0
  4  6  1  0
  6  7  1  6
  7  8  1  0
  8  9  2  0
  8 10  1  0
 10 11  1  0
 11 12  1  0
 12 13  1  0
 13 14  1  0
 14 15  2  0
 14 16  2  0
 14 17  1  0
 17 18  1  0
 18 19  1  0
 19 20  1  0
 20 21  1  0
 21 22  1  0
 13 23  1  0
 23 24  1  0
  6 25  1  0
 25 26  1  1
 25 27  1  0
 27 28  1  0
 28 29  1  0
 29 30  1  0
 30 31  1  0
 24 10  1  0
 31 28  1  0
 22 17  1  0
M  END
>  <energy_score>  (4396) 
-82.451364

>  <inchikey>  (4396) 
KCFBIEGMIVAYEL-UHFFFAOYSA-N

>  <smiles>  (4396) 
CCOC(=O)C(OC(=O)C1CCN(S(=O)(=O)N2CCCCC2)CC1)C(N)CC1CCC1

>  <ref_pdb>  (4396) 
A0875a

>  <alias>  (4396) 
KCFBIEGMIVAYEL-UHFFFAOYSA-N-P439-P87-P439-601505

>  <HIPPO Pose ID>  (4396) 
508845

>  <name>  (4396) 
KCFBIEGMIVAYEL-UHFFFAOYSA-N-P439-P87-P439-601505

>  <HIPPO Compound ID>  (4396) 
314959

>  <ref_mols>  (4396) 
A4706a,A0875a

>  <distance_score>  (4396) 
1.912946

>  <inspiration_score>  (4396) 
None

$$$$
VGEKHXAHLXDZIR-UHFFFAOYSA-N-P439-P87-P439-601505
     RDKit          3D

 32 34  0  0  0  0  0  0  0  0999 V2000
    8.6387   19.2117   21.0251 C   0  0  0  0  0  0  0  0  0  0  0  0
    8.3679   17.8522   20.5360 C   0  0  0  0  0  0  0  0  0  0  0  0
    8.5246   16.9109   21.5890 O   0  0  0  0  0  0  0  0  0  0  0  0
    7.4984   16.0617   21.8503 C   0  0  0  0  0  0  0  0  0  0  0  0
    6.3960   16.3792   22.2819 O   0  0  0  0  0  0  0  0  0  0  0  0
    7.9123   14.6024   21.6337 C   0  0  2  0  0  0  0  0  0  0  0  0
    7.6279   13.9616   22.9052 O   0  0  0  0  0  0  0  0  0  0  0  0
    6.3413   13.5715   23.0600 C   0  0  0  0  0  0  0  0  0  0  0  0
    5.6370   13.2539   22.1107 O   0  0  0  0  0  0  0  0  0  0  0  0
    5.8933   13.4596   24.5111 C   0  0  0  0  0  0  0  0  0  0  0  0
    6.3748   12.1516   25.1451 C   0  0  0  0  0  0  0  0  0  0  0  0
    7.8113   12.2350   25.6073 C   0  0  0  0  0  0  0  0  0  0  0  0
    8.0449   13.3756   26.4992 N   0  0  0  0  0  0  0  0  0  0  0  0
    9.4918   14.2188   26.3794 S   0  0  0  0  0  0  0  0  0  0  0  0
    9.5693   15.0289   27.5693 O   0  0  0  0  0  0  0  0  0  0  0  0
    9.5753   14.8554   25.0922 O   0  0  0  0  0  0  0  0  0  0  0  0
   10.6933   13.0094   26.5080 N   0  0  0  0  0  0  0  0  0  0  0  0
   11.8897   13.5651   27.2250 C   0  0  0  0  0  0  0  0  0  0  0  0
   13.1158   12.6450   27.1718 C   0  0  0  0  0  0  0  0  0  0  0  0
   13.4858   12.1896   25.7678 C   0  0  0  0  0  0  0  0  0  0  0  0
   12.4253   12.6649   24.8062 C   0  0  0  0  0  0  0  0  0  0  0  0
   11.0435   12.2699   25.2678 C   0  0  0  0  0  0  0  0  0  0  0  0
    6.8607   14.2588   26.7048 C   0  0  0  0  0  0  0  0  0  0  0  0
    6.2672   14.6758   25.3648 C   0  0  0  0  0  0  0  0  0  0  0  0
    9.3780   14.5036   21.2405 C   0  0  0  0  0  0  0  0  0  0  0  0
    9.8345   14.8856   19.9627 C   0  0  0  0  0  0  0  0  0  0  0  0
   11.1720   15.1648   19.7419 C   0  0  0  0  0  0  0  0  0  0  0  0
   12.0028   15.1943   20.8471 C   0  0  0  0  0  0  0  0  0  0  0  0
   13.1896   15.7841   20.8132 F   0  0  0  0  0  0  0  0  0  0  0  0
   11.5888   14.7535   22.0724 C   0  0  0  0  0  0  0  0  0  0  0  0
   12.4110   14.8565   23.1113 F   0  0  0  0  0  0  0  0  0  0  0  0
   10.3072   14.3259   22.2491 C   0  0  0  0  0  0  0  0  0  0  0  0
  1  2  1  0
  2  3  1  0
  3  4  1  0
  4  5  2  0
  4  6  1  0
  6  7  1  1
  7  8  1  0
  8  9  2  0
  8 10  1  0
 10 11  1  0
 11 12  1  0
 12 13  1  0
 13 14  1  0
 14 15  2  0
 14 16  2  0
 14 17  1  0
 17 18  1  0
 18 19  1  0
 19 20  1  0
 20 21  1  0
 21 22  1  0
 13 23  1  0
 23 24  1  0
  6 25  1  0
 25 26  2  0
 26 27  1  0
 27 28  2  0
 28 29  1  0
 28 30  1  0
 30 31  1  0
 30 32  2  0
 24 10  1  0
 32 25  1  0
 22 17  1  0
M  END
>  <energy_score>  (4397) 
-3.931709

>  <inchikey>  (4397) 
VGEKHXAHLXDZIR-UHFFFAOYSA-N

>  <smiles>  (4397) 
CCOC(=O)C(OC(=O)C1CCN(S(=O)(=O)N2CCCCC2)CC1)c1ccc(F)c(F)c1

>  <ref_pdb>  (4397) 
A0875a

>  <alias>  (4397) 
VGEKHXAHLXDZIR-UHFFFAOYSA-N-P439-P87-P439-601505

>  <HIPPO Pose ID>  (4397) 
508855

>  <name>  (4397) 
VGEKHXAHLXDZIR-UHFFFAOYSA-N-P439-P87-P439-601505

>  <HIPPO Compound ID>  (4397) 
314964

>  <ref_mols>  (4397) 
A4706a,A0875a

>  <distance_score>  (4397) 
1.603377

>  <inspiration_score>  (4397) 
None

$$$$
OYDKVWWAFLOGQD-UHFFFAOYSA-N-P87-P87-P439-601505
     RDKit          3D

 32 35  0  0  0  0  0  0  0  0999 V2000
   19.9778   10.1680   27.3890 C   0  0  0  0  0  0  0  0  0  0  0  0
   18.7618   10.6641   27.9501 O   0  0  0  0  0  0  0  0  0  0  0  0
   17.6272   10.2682   27.3000 C   0  0  0  0  0  0  0  0  0  0  0  0
   17.6129    9.5729   26.2899 O   0  0  0  0  0  0  0  0  0  0  0  0
   16.3836   10.8076   28.0055 C   0  0  1  0  0  0  0  0  0  0  0  0
   15.2827   10.7598   27.0359 O   0  0  0  0  0  0  0  0  0  0  0  0
   14.4060   11.7825   27.1664 C   0  0  0  0  0  0  0  0  0  0  0  0
   14.2987   12.4536   28.1836 O   0  0  0  0  0  0  0  0  0  0  0  0
   13.6308   12.1064   25.8925 C   0  0  0  0  0  0  0  0  0  0  0  0
   12.7207   13.2814   26.0952 C   0  0  0  0  0  0  0  0  0  0  0  0
   11.2789   13.0597   26.0182 C   0  0  0  0  0  0  0  0  0  0  0  0
   11.0111   12.6874   24.6503 N   0  0  0  0  0  0  0  0  0  0  0  0
    9.5832   13.3654   24.1698 S   0  0  0  0  0  0  0  0  0  0  0  0
    9.7290   14.7515   24.5028 O   0  0  0  0  0  0  0  0  0  0  0  0
    8.5125   12.5890   24.7457 O   0  0  0  0  0  0  0  0  0  0  0  0
    9.5533   13.3363   22.5047 N   0  0  0  0  0  0  0  0  0  0  0  0
   10.8672   13.5686   21.8229 C   0  0  0  0  0  0  0  0  0  0  0  0
   11.4607   14.9314   22.0907 C   0  0  0  0  0  0  0  0  0  0  0  0
   10.4207   16.0151   21.8907 C   0  0  0  0  0  0  0  0  0  0  0  0
    9.1610   15.5027   21.2429 C   0  0  0  0  0  0  0  0  0  0  0  0
    8.5303   14.3302   21.9834 C   0  0  0  0  0  0  0  0  0  0  0  0
   11.3946   11.2958   24.4938 C   0  0  0  0  0  0  0  0  0  0  0  0
   12.9545   11.1549   24.9012 C   0  0  0  0  0  0  0  0  0  0  0  0
   16.0935   10.0891   29.3126 C   0  0  0  0  0  0  0  0  0  0  0  0
   15.3029   10.6037   30.3296 C   0  0  0  0  0  0  0  0  0  0  0  0
   15.2412    9.7026   31.3526 N   0  0  0  0  0  0  0  0  0  0  0  0
   16.0127    8.6065   31.0632 C   0  0  0  0  0  0  0  0  0  0  0  0
   16.2411    7.4561   31.8292 C   0  0  0  0  0  0  0  0  0  0  0  0
   17.0664    6.4677   31.2931 C   0  0  0  0  0  0  0  0  0  0  0  0
   17.6396    6.6272   30.0380 C   0  0  0  0  0  0  0  0  0  0  0  0
   17.4045    7.7866   29.2879 C   0  0  0  0  0  0  0  0  0  0  0  0
   16.5726    8.8120   29.7990 C   0  0  0  0  0  0  0  0  0  0  0  0
  1  2  1  0
  2  3  1  0
  3  4  2  0
  3  5  1  0
  5  6  1  6
  6  7  1  0
  7  8  2  0
  7  9  1  0
  9 10  1  0
 10 11  1  0
 11 12  1  0
 12 13  1  0
 13 14  2  0
 13 15  2  0
 13 16  1  0
 16 17  1  0
 17 18  1  0
 18 19  1  0
 19 20  1  0
 20 21  1  0
 12 22  1  0
 22 23  1  0
  5 24  1  0
 24 25  2  0
 25 26  1  0
 26 27  1  0
 27 28  2  0
 28 29  1  0
 29 30  2  0
 30 31  1  0
 31 32  2  0
 23  9  1  0
 32 24  1  0
 21 16  1  0
 32 27  1  0
M  END
>  <energy_score>  (4398) 
-5.790695

>  <inchikey>  (4398) 
OYDKVWWAFLOGQD-UHFFFAOYSA-N

>  <smiles>  (4398) 
COC(=O)C(OC(=O)C1CCN(S(=O)(=O)N2CCCCC2)CC1)c1c[nH]c2ccccc12

>  <ref_pdb>  (4398) 
A0875a

>  <alias>  (4398) 
OYDKVWWAFLOGQD-UHFFFAOYSA-N-P87-P87-P439-601505

>  <HIPPO Pose ID>  (4398) 
508882

>  <name>  (4398) 
OYDKVWWAFLOGQD-UHFFFAOYSA-N-P87-P87-P439-601505

>  <HIPPO Compound ID>  (4398) 
314978

>  <ref_mols>  (4398) 
A4706a,A0875a

>  <distance_score>  (4398) 
1.85462

>  <inspiration_score>  (4398) 
None

$$$$
IPLKVGUOXHVFJH-UHFFFAOYSA-N-P87-P87-P439-601505
     RDKit          3D

 32 34  0  0  0  0  0  0  0  0999 V2000
    7.7943   18.3371   20.5721 C   0  0  0  0  0  0  0  0  0  0  0  0
    8.5457   17.1918   20.8180 O   0  0  0  0  0  0  0  0  0  0  0  0
    8.5933   16.8251   22.1167 C   0  0  0  0  0  0  0  0  0  0  0  0
    8.1412   17.4019   23.0969 O   0  0  0  0  0  0  0  0  0  0  0  0
    9.3459   15.5361   22.1903 C   0  0  1  0  0  0  0  0  0  0  0  0
    8.4859   14.5361   21.5949 O   0  0  0  0  0  0  0  0  0  0  0  0
    7.5894   13.8513   22.3328 C   0  0  0  0  0  0  0  0  0  0  0  0
    6.4644   13.6061   21.9280 O   0  0  0  0  0  0  0  0  0  0  0  0
    8.0968   13.3181   23.6309 C   0  0  0  0  0  0  0  0  0  0  0  0
    9.1108   12.1719   23.3817 C   0  0  0  0  0  0  0  0  0  0  0  0
    9.4280   11.3582   24.6094 C   0  0  0  0  0  0  0  0  0  0  0  0
    9.3429   12.2873   25.7124 N   0  0  0  0  0  0  0  0  0  0  0  0
   10.4909   13.5781   25.7059 S   0  0  0  0  0  0  0  0  0  0  0  0
   10.2847   14.3827   26.8875 O   0  0  0  0  0  0  0  0  0  0  0  0
   10.6410   14.1855   24.4165 O   0  0  0  0  0  0  0  0  0  0  0  0
   11.9230   12.6761   25.9222 N   0  0  0  0  0  0  0  0  0  0  0  0
   12.8058   13.3138   26.9151 C   0  0  0  0  0  0  0  0  0  0  0  0
   14.1047   12.5415   27.1438 C   0  0  0  0  0  0  0  0  0  0  0  0
   14.7909   12.0358   25.8871 C   0  0  0  0  0  0  0  0  0  0  0  0
   13.8001   11.4720   24.8992 C   0  0  0  0  0  0  0  0  0  0  0  0
   12.6563   12.4361   24.6424 C   0  0  0  0  0  0  0  0  0  0  0  0
    7.8836   12.5680   25.9688 C   0  0  0  0  0  0  0  0  0  0  0  0
    7.1102   12.8900   24.6919 C   0  0  0  0  0  0  0  0  0  0  0  0
   10.7056   15.5532   21.5425 C   0  0  0  0  0  0  0  0  0  0  0  0
   11.2732   14.4077   21.0141 C   0  0  0  0  0  0  0  0  0  0  0  0
   12.4433   14.4964   20.2625 C   0  0  0  0  0  0  0  0  0  0  0  0
   13.1334   15.7003   20.1523 C   0  0  0  0  0  0  0  0  0  0  0  0
   14.1494   15.8307   19.2930 F   0  0  0  0  0  0  0  0  0  0  0  0
   12.6622   16.8103   20.7934 C   0  0  0  0  0  0  0  0  0  0  0  0
   13.2818   17.9940   20.6608 F   0  0  0  0  0  0  0  0  0  0  0  0
   11.4272   16.7391   21.4008 C   0  0  0  0  0  0  0  0  0  0  0  0
   10.8217   17.9045   21.6538 F   0  0  0  0  0  0  0  0  0  0  0  0
  1  2  1  0
  2  3  1  0
  3  4  2  0
  3  5  1  0
  5  6  1  6
  6  7  1  0
  7  8  2  0
  7  9  1  0
  9 10  1  0
 10 11  1  0
 11 12  1  0
 12 13  1  0
 13 14  2  0
 13 15  2  0
 13 16  1  0
 16 17  1  0
 17 18  1  0
 18 19  1  0
 19 20  1  0
 20 21  1  0
 12 22  1  0
 22 23  1  0
  5 24  1  0
 24 25  2  0
 25 26  1  0
 26 27  2  0
 27 28  1  0
 27 29  1  0
 29 30  1  0
 29 31  2  0
 31 32  1  0
 23  9  1  0
 31 24  1  0
 21 16  1  0
M  END
>  <energy_score>  (4399) 
-29.62853

>  <inchikey>  (4399) 
IPLKVGUOXHVFJH-UHFFFAOYSA-N

>  <smiles>  (4399) 
COC(=O)C(OC(=O)C1CCN(S(=O)(=O)N2CCCCC2)CC1)c1ccc(F)c(F)c1F

>  <ref_pdb>  (4399) 
A0875a

>  <alias>  (4399) 
IPLKVGUOXHVFJH-UHFFFAOYSA-N-P87-P87-P439-601505

>  <HIPPO Pose ID>  (4399) 
508884

>  <name>  (4399) 
IPLKVGUOXHVFJH-UHFFFAOYSA-N-P87-P87-P439-601505

>  <HIPPO Compound ID>  (4399) 
314979

>  <ref_mols>  (4399) 
A4706a,A0875a

>  <distance_score>  (4399) 
1.959698

>  <inspiration_score>  (4399) 
None

$$$$
IPLKVGUOXHVFJH-UHFFFAOYSA-N-P439-P87-P439-601505
     RDKit          3D

 32 34  0  0  0  0  0  0  0  0999 V2000
    8.7551   18.0299   20.8175 C   0  0  0  0  0  0  0  0  0  0  0  0
    7.8568   17.4682   21.7826 O   0  0  0  0  0  0  0  0  0  0  0  0
    7.4326   16.2462   22.1069 C   0  0  0  0  0  0  0  0  0  0  0  0
    6.6049   16.1256   23.0144 O   0  0  0  0  0  0  0  0  0  0  0  0
    7.9541   15.0177   21.3717 C   0  0  2  0  0  0  0  0  0  0  0  0
    7.9636   13.8101   22.1491 O   0  0  0  0  0  0  0  0  0  0  0  0
    6.7893   13.5218   22.7683 C   0  0  0  0  0  0  0  0  0  0  0  0
    5.7393   13.3388   22.1842 O   0  0  0  0  0  0  0  0  0  0  0  0
    7.0795   13.3832   24.2249 C   0  0  0  0  0  0  0  0  0  0  0  0
    7.6238   12.0099   24.5837 C   0  0  0  0  0  0  0  0  0  0  0  0
    8.0325   11.9504   26.0414 C   0  0  0  0  0  0  0  0  0  0  0  0
    7.9908   13.2796   26.6585 N   0  0  0  0  0  0  0  0  0  0  0  0
    9.2982   14.3367   26.6615 S   0  0  0  0  0  0  0  0  0  0  0  0
    9.3685   14.8372   28.0098 O   0  0  0  0  0  0  0  0  0  0  0  0
    9.2165   15.2601   25.5575 O   0  0  0  0  0  0  0  0  0  0  0  0
   10.6474   13.3310   26.3938 N   0  0  0  0  0  0  0  0  0  0  0  0
   11.0709   13.3609   24.9781 C   0  0  0  0  0  0  0  0  0  0  0  0
   12.1382   12.3236   24.7756 C   0  0  0  0  0  0  0  0  0  0  0  0
   13.3660   12.5213   25.6279 C   0  0  0  0  0  0  0  0  0  0  0  0
   12.9715   12.7562   27.0688 C   0  0  0  0  0  0  0  0  0  0  0  0
   11.8017   13.7318   27.2295 C   0  0  0  0  0  0  0  0  0  0  0  0
    6.6421   13.9241   26.6154 C   0  0  0  0  0  0  0  0  0  0  0  0
    6.0130   13.8022   25.2186 C   0  0  0  0  0  0  0  0  0  0  0  0
    9.3574   15.1218   20.8702 C   0  0  0  0  0  0  0  0  0  0  0  0
    9.6586   15.1554   19.5037 C   0  0  0  0  0  0  0  0  0  0  0  0
   10.9472   14.9717   19.0791 C   0  0  0  0  0  0  0  0  0  0  0  0
   11.9260   14.8270   20.0335 C   0  0  0  0  0  0  0  0  0  0  0  0
   13.1229   14.5364   19.5635 F   0  0  0  0  0  0  0  0  0  0  0  0
   11.6835   14.9775   21.3888 C   0  0  0  0  0  0  0  0  0  0  0  0
   12.6477   14.9607   22.3107 F   0  0  0  0  0  0  0  0  0  0  0  0
   10.3915   15.1292   21.7965 C   0  0  0  0  0  0  0  0  0  0  0  0
   10.1177   15.2526   23.0962 F   0  0  0  0  0  0  0  0  0  0  0  0
  1  2  1  0
  2  3  1  0
  3  4  2  0
  3  5  1  0
  5  6  1  1
  6  7  1  0
  7  8  2  0
  7  9  1  0
  9 10  1  0
 10 11  1  0
 11 12  1  0
 12 13  1  0
 13 14  2  0
 13 15  2  0
 13 16  1  0
 16 17  1  0
 17 18  1  0
 18 19  1  0
 19 20  1  0
 20 21  1  0
 12 22  1  0
 22 23  1  0
  5 24  1  0
 24 25  2  0
 25 26  1  0
 26 27  2  0
 27 28  1  0
 27 29  1  0
 29 30  1  0
 29 31  2  0
 31 32  1  0
 23  9  1  0
 31 24  1  0
 21 16  1  0
M  END
>  <energy_score>  (4400) 
-39.787277

>  <inchikey>  (4400) 
IPLKVGUOXHVFJH-UHFFFAOYSA-N

>  <smiles>  (4400) 
COC(=O)C(OC(=O)C1CCN(S(=O)(=O)N2CCCCC2)CC1)c1ccc(F)c(F)c1F

>  <ref_pdb>  (4400) 
A0875a

>  <alias>  (4400) 
IPLKVGUOXHVFJH-UHFFFAOYSA-N-P439-P87-P439-601505

>  <HIPPO Pose ID>  (4400) 
508885

>  <name>  (4400) 
IPLKVGUOXHVFJH-UHFFFAOYSA-N-P439-P87-P439-601505

>  <HIPPO Compound ID>  (4400) 
314979

>  <ref_mols>  (4400) 
A4706a,A0875a

>  <distance_score>  (4400) 
1.676123

>  <inspiration_score>  (4400) 
None

$$$$
NNQRCJLIWJWFEK-UHFFFAOYSA-N-P87-P87-P439-601505
     RDKit          3D

 32 35  0  0  0  0  0  0  0  0999 V2000
   10.4107    9.5386   32.6411 C   0  0  0  0  0  0  0  0  0  0  0  0
   11.5356   10.3754   33.2217 C   0  0  0  0  0  0  0  0  0  0  0  0
   12.6275   10.4489   32.2969 O   0  0  0  0  0  0  0  0  0  0  0  0
   13.5174    9.4158   32.3671 C   0  0  0  0  0  0  0  0  0  0  0  0
   13.4440    8.5031   33.1832 O   0  0  0  0  0  0  0  0  0  0  0  0
   14.5785    9.4882   31.3869 C   0  0  0  0  0  0  0  0  0  0  0  0
   15.5927    8.5162   31.1989 C   0  0  0  0  0  0  0  0  0  0  0  0
   16.4272    8.8191   30.2014 N   0  0  0  0  0  0  0  0  0  0  0  0
   15.9341    9.9771   29.7414 N   0  0  0  0  0  0  0  0  0  0  0  0
   14.8573   10.4556   30.4366 C   0  0  0  0  0  0  0  0  0  0  0  0
   14.2581   11.6064   30.1162 O   0  0  0  0  0  0  0  0  0  0  0  0
   15.0057   12.4798   29.2527 C   0  0  0  0  0  0  0  0  0  0  0  0
   15.6234   11.7372   28.0568 C   0  0  2  0  0  0  0  0  0  0  0  0
   14.5360   11.3012   27.1840 O   0  0  0  0  0  0  0  0  0  0  0  0
   14.9052   10.8088   25.9773 C   0  0  0  0  0  0  0  0  0  0  0  0
   16.0380   10.4419   25.7018 O   0  0  0  0  0  0  0  0  0  0  0  0
   13.7856   10.8550   24.9366 C   0  0  0  0  0  0  0  0  0  0  0  0
   13.5194   12.3079   24.6585 C   0  0  0  0  0  0  0  0  0  0  0  0
   12.3992   12.7891   25.5251 C   0  0  0  0  0  0  0  0  0  0  0  0
   11.1384   12.1173   25.2266 N   0  0  0  0  0  0  0  0  0  0  0  0
    9.7993   13.1010   25.1175 S   0  0  0  0  0  0  0  0  0  0  0  0
   10.1358   14.2500   25.9118 O   0  0  0  0  0  0  0  0  0  0  0  0
    8.6357   12.3154   25.4418 O   0  0  0  0  0  0  0  0  0  0  0  0
    9.7309   13.5471   23.4863 N   0  0  0  0  0  0  0  0  0  0  0  0
    8.5127   14.3826   23.2594 C   0  0  0  0  0  0  0  0  0  0  0  0
    8.3796   14.7683   21.8176 C   0  0  0  0  0  0  0  0  0  0  0  0
    9.5936   15.5500   21.3799 C   0  0  0  0  0  0  0  0  0  0  0  0
   10.8382   14.7236   21.5746 C   0  0  0  0  0  0  0  0  0  0  0  0
   10.9408   14.2808   23.0092 C   0  0  0  0  0  0  0  0  0  0  0  0
   11.1533   10.8445   24.5320 C   0  0  0  0  0  0  0  0  0  0  0  0
   12.4356   10.0405   24.8918 C   0  0  0  0  0  0  0  0  0  0  0  0
   16.5227   10.6152   28.5833 C   0  0  0  0  0  0  0  0  0  0  0  0
  1  2  1  0
  2  3  1  0
  3  4  1  0
  4  5  2  0
  4  6  1  0
  6  7  1  0
  7  8  2  0
  8  9  1  0
  9 10  1  0
 10 11  1  0
 11 12  1  0
 12 13  1  0
 13 14  1  6
 14 15  1  0
 15 16  2  0
 15 17  1  0
 17 18  1  0
 18 19  1  0
 19 20  1  0
 20 21  1  0
 21 22  2  0
 21 23  2  0
 21 24  1  0
 24 25  1  0
 25 26  1  0
 26 27  1  0
 27 28  1  0
 28 29  1  0
 20 30  1  0
 30 31  1  0
 13 32  1  0
 10  6  2  0
 31 17  1  0
 32  9  1  0
 29 24  1  0
M  END
>  <energy_score>  (4401) 
-56.878336

>  <inchikey>  (4401) 
NNQRCJLIWJWFEK-UHFFFAOYSA-N

>  <smiles>  (4401) 
CCOC(=O)c1cnn2c1OCC(OC(=O)C1CCN(S(=O)(=O)N3CCCCC3)CC1)C2

>  <ref_pdb>  (4401) 
A0875a

>  <alias>  (4401) 
NNQRCJLIWJWFEK-UHFFFAOYSA-N-P87-P87-P439-601505

>  <HIPPO Pose ID>  (4401) 
508902

>  <name>  (4401) 
NNQRCJLIWJWFEK-UHFFFAOYSA-N-P87-P87-P439-601505

>  <HIPPO Compound ID>  (4401) 
314988

>  <ref_mols>  (4401) 
A4706a,A0875a

>  <distance_score>  (4401) 
1.751639

>  <inspiration_score>  (4401) 
None

$$$$
QZHYSEGOCXAYTO-UHFFFAOYSA-N-P87-P87-P439-601505
     RDKit          3D

 33 37  0  0  0  0  0  0  0  0999 V2000
   14.8487   12.1220   26.7119 O   0  0  0  0  0  0  0  0  0  0  0  0
   14.6907   11.1229   26.0262 C   0  0  0  0  0  0  0  0  0  0  0  0
   15.4520   10.0011   26.1251 O   0  0  0  0  0  0  0  0  0  0  0  0
   16.7014   10.1935   26.8359 C   0  0  2  0  0  0  0  0  0  0  0  0
   17.5820    8.9419   26.7094 C   0  0  0  0  0  0  0  0  0  0  0  0
   18.3646    8.8705   27.9408 N   0  0  0  0  0  0  0  0  0  0  0  0
   17.4441    9.3134   28.9874 C   0  0  0  0  0  0  0  0  0  0  0  0
   16.6447   10.4646   28.3637 C   0  0  2  0  0  0  0  0  0  0  0  0
   15.3114   10.5199   28.8662 O   0  0  0  0  0  0  0  0  0  0  0  0
   15.2031   11.0263   30.1297 C   0  0  0  0  0  0  0  0  0  0  0  0
   14.5742   10.2055   31.0718 C   0  0  0  0  0  0  0  0  0  0  0  0
   14.3778   10.6379   32.3916 C   0  0  0  0  0  0  0  0  0  0  0  0
   14.7955   11.9068   32.7868 C   0  0  0  0  0  0  0  0  0  0  0  0
   15.3866   12.7277   31.8399 C   0  0  0  0  0  0  0  0  0  0  0  0
   15.5842   12.3034   30.5154 C   0  0  0  0  0  0  0  0  0  0  0  0
   16.2287   13.4043   29.7255 C   0  0  0  0  0  0  0  0  0  0  0  0
   15.9681   14.6282   30.6101 C   0  0  0  0  0  0  0  0  0  0  0  0
   15.9158   14.1128   32.0500 C   0  0  0  0  0  0  0  0  0  0  0  0
   13.6738   11.0293   24.8708 C   0  0  0  0  0  0  0  0  0  0  0  0
   13.2594   12.4655   24.5902 C   0  0  0  0  0  0  0  0  0  0  0  0
   12.2141   12.7732   25.6370 C   0  0  0  0  0  0  0  0  0  0  0  0
   10.9089   12.1891   25.2156 N   0  0  0  0  0  0  0  0  0  0  0  0
    9.9249   13.4721   24.7767 S   0  0  0  0  0  0  0  0  0  0  0  0
   10.6348   14.2251   23.7697 O   0  0  0  0  0  0  0  0  0  0  0  0
    9.6337   14.0280   26.0733 O   0  0  0  0  0  0  0  0  0  0  0  0
    8.4939   12.9396   24.0914 N   0  0  0  0  0  0  0  0  0  0  0  0
    7.5437   12.2355   24.9690 C   0  0  0  0  0  0  0  0  0  0  0  0
    6.2860   12.9916   25.3733 C   0  0  0  0  0  0  0  0  0  0  0  0
    5.6590   13.9222   24.3344 C   0  0  0  0  0  0  0  0  0  0  0  0
    6.4338   14.0161   23.0335 C   0  0  0  0  0  0  0  0  0  0  0  0
    7.9299   14.0298   23.2113 C   0  0  0  0  0  0  0  0  0  0  0  0
   11.0319   10.9587   24.4309 C   0  0  0  0  0  0  0  0  0  0  0  0
   12.3393   10.1604   24.8410 C   0  0  0  0  0  0  0  0  0  0  0  0
  1  2  2  0
  2  3  1  0
  4  3  1  1
  4  5  1  0
  5  6  1  0
  6  7  1  0
  7  8  1  0
  8  9  1  1
  9 10  1  0
 10 11  2  0
 11 12  1  0
 12 13  2  0
 13 14  1  0
 14 15  2  0
 15 16  1  0
 16 17  1  0
 17 18  1  0
  2 19  1  0
 19 20  1  0
 20 21  1  0
 21 22  1  0
 22 23  1  0
 23 24  2  0
 23 25  2  0
 23 26  1  0
 26 27  1  0
 27 28  1  0
 28 29  1  0
 29 30  1  0
 30 31  1  0
 22 32  1  0
 32 33  1  0
  8  4  1  0
 15 10  1  0
 33 19  1  0
 18 14  1  0
 31 26  1  0
M  END
>  <energy_score>  (4402) 
-56.312849

>  <inchikey>  (4402) 
QZHYSEGOCXAYTO-UHFFFAOYSA-N

>  <smiles>  (4402) 
O=C(OC1CNCC1Oc1cccc2c1CCC2)C1CCN(S(=O)(=O)N2CCCCC2)CC1

>  <ref_pdb>  (4402) 
A0875a

>  <alias>  (4402) 
QZHYSEGOCXAYTO-UHFFFAOYSA-N-P87-P87-P439-601505

>  <HIPPO Pose ID>  (4402) 
508966

>  <name>  (4402) 
QZHYSEGOCXAYTO-UHFFFAOYSA-N-P87-P87-P439-601505

>  <HIPPO Compound ID>  (4402) 
315020

>  <ref_mols>  (4402) 
A4706a,A0875a

>  <distance_score>  (4402) 
1.694056

>  <inspiration_score>  (4402) 
None

$$$$
LXXSKQDJXBUTGS-UHFFFAOYSA-N-P439-P87-P439-601505
     RDKit          3D

 33 35  0  0  0  0  0  0  0  0999 V2000
    4.6367   13.9087   21.0198 C   0  0  0  0  0  0  0  0  0  0  0  0
    6.0447   14.1779   21.1292 O   0  0  0  0  0  0  0  0  0  0  0  0
    6.3366   15.2712   21.8784 C   0  0  0  0  0  0  0  0  0  0  0  0
    5.4635   16.0653   22.2294 O   0  0  0  0  0  0  0  0  0  0  0  0
    7.7966   15.3841   22.3459 C   0  0  1  0  0  0  0  0  0  0  0  0
    7.6313   14.8367   23.6776 O   0  0  0  0  0  0  0  0  0  0  0  0
    7.1281   13.5774   23.7575 C   0  0  0  0  0  0  0  0  0  0  0  0
    7.2281   12.7321   22.8754 O   0  0  0  0  0  0  0  0  0  0  0  0
    6.3177   13.3353   25.0190 C   0  0  0  0  0  0  0  0  0  0  0  0
    6.4904   11.8755   25.4528 C   0  0  0  0  0  0  0  0  0  0  0  0
    7.9041   11.5529   25.9180 C   0  0  0  0  0  0  0  0  0  0  0  0
    8.4953   12.7029   26.6268 N   0  0  0  0  0  0  0  0  0  0  0  0
    9.7739   13.5047   25.9045 S   0  0  0  0  0  0  0  0  0  0  0  0
    9.8680   14.7836   26.5673 O   0  0  0  0  0  0  0  0  0  0  0  0
    9.6063   13.3719   24.4813 O   0  0  0  0  0  0  0  0  0  0  0  0
   11.1662   12.5960   26.3011 N   0  0  0  0  0  0  0  0  0  0  0  0
   12.2247   13.4491   26.8949 C   0  0  0  0  0  0  0  0  0  0  0  0
   13.6529   13.0279   26.5620 C   0  0  0  0  0  0  0  0  0  0  0  0
   13.8147   11.5583   26.5362 C   0  0  0  0  0  0  0  0  0  0  0  0
   12.9851   11.0774   25.3782 C   0  0  0  0  0  0  0  0  0  0  0  0
   11.6216   11.7523   25.1756 C   0  0  0  0  0  0  0  0  0  0  0  0
    7.4626   13.5927   27.2476 C   0  0  0  0  0  0  0  0  0  0  0  0
    6.6211   14.2790   26.1845 C   0  0  0  0  0  0  0  0  0  0  0  0
    9.0807   15.0370   21.5480 C   0  0  0  0  0  0  0  0  0  0  0  0
    9.0279   14.9185   20.1729 C   0  0  0  0  0  0  0  0  0  0  0  0
   10.1391   14.8532   19.3070 C   0  0  0  0  0  0  0  0  0  0  0  0
   11.4059   14.8001   19.8164 C   0  0  0  0  0  0  0  0  0  0  0  0
   11.5349   14.9083   21.1787 C   0  0  0  0  0  0  0  0  0  0  0  0
   10.4042   15.0790   22.0240 C   0  0  0  0  0  0  0  0  0  0  0  0
   10.8158   15.5121   23.3728 C   0  0  0  0  0  0  0  0  0  0  0  0
   11.5041   16.6718   23.2580 F   0  0  0  0  0  0  0  0  0  0  0  0
   11.6940   14.6685   23.9902 F   0  0  0  0  0  0  0  0  0  0  0  0
    9.8276   15.7733   24.2436 F   0  0  0  0  0  0  0  0  0  0  0  0
  1  2  1  0
  2  3  1  0
  3  4  2  0
  3  5  1  0
  5  6  1  1
  6  7  1  0
  7  8  2  0
  7  9  1  0
  9 10  1  0
 10 11  1  0
 11 12  1  0
 12 13  1  0
 13 14  2  0
 13 15  2  0
 13 16  1  0
 16 17  1  0
 17 18  1  0
 18 19  1  0
 19 20  1  0
 20 21  1  0
 12 22  1  0
 22 23  1  0
  5 24  1  0
 24 25  2  0
 25 26  1  0
 26 27  2  0
 27 28  1  0
 28 29  2  0
 29 30  1  0
 30 31  1  0
 30 32  1  0
 30 33  1  0
 23  9  1  0
 29 24  1  0
 21 16  1  0
M  END
>  <energy_score>  (4403) 
-6.359293

>  <inchikey>  (4403) 
LXXSKQDJXBUTGS-UHFFFAOYSA-N

>  <smiles>  (4403) 
COC(=O)C(OC(=O)C1CCN(S(=O)(=O)N2CCCCC2)CC1)c1ccccc1C(F)(F)F

>  <ref_pdb>  (4403) 
A0875a

>  <alias>  (4403) 
LXXSKQDJXBUTGS-UHFFFAOYSA-N-P439-P87-P439-601505

>  <HIPPO Pose ID>  (4403) 
508989

>  <name>  (4403) 
LXXSKQDJXBUTGS-UHFFFAOYSA-N-P439-P87-P439-601505

>  <HIPPO Compound ID>  (4403) 
315031

>  <ref_mols>  (4403) 
A4706a,A0875a

>  <distance_score>  (4403) 
1.623156

>  <inspiration_score>  (4403) 
None

$$$$
OAZIUWAMLYAFKS-UHFFFAOYSA-N-P87-P87-P445-601506
     RDKit          3D

 24 27  0  0  0  0  0  0  0  0999 V2000
   22.2260    9.3377   26.2761 C   0  0  0  0  0  0  0  0  0  0  0  0
   20.9298    9.8470   26.8275 C   0  0  0  0  0  0  0  0  0  0  0  0
   20.9006   10.7616   27.8730 C   0  0  0  0  0  0  0  0  0  0  0  0
   19.6748   11.2319   28.3592 C   0  0  0  0  0  0  0  0  0  0  0  0
   18.4263   10.8084   27.8439 C   0  0  0  0  0  0  0  0  0  0  0  0
   17.0465   11.4275   28.3775 C   0  0  1  0  0  0  0  0  0  0  0  0
   17.0528   12.8743   28.8756 C   0  0  0  0  0  0  0  0  0  0  0  0
   16.8017   13.1549   27.4128 C   0  0  0  0  0  0  0  0  0  0  0  0
   15.8953   11.9008   27.4408 N   0  0  0  0  0  0  0  0  0  0  0  0
   15.5134   11.4569   26.0349 C   0  0  0  0  0  0  0  0  0  0  0  0
   16.0502   10.7063   25.2993 O   0  0  0  0  0  0  0  0  0  0  0  0
   14.2370   12.2280   25.6084 C   0  0  2  0  0  0  0  0  0  0  0  0
   13.4135   12.6803   26.7602 C   0  0  0  0  0  0  0  0  0  0  0  0
   12.0886   13.3170   26.4059 C   0  0  0  0  0  0  0  0  0  0  0  0
   11.6278   14.1977   27.1265 O   0  0  0  0  0  0  0  0  0  0  0  0
   11.3715   12.8405   25.3460 N   0  0  0  0  0  0  0  0  0  0  0  0
   10.1083   13.5131   24.9889 C   0  0  0  0  0  0  0  0  0  0  0  0
    9.1528   12.6366   24.1857 C   0  0  0  0  0  0  0  0  0  0  0  0
    9.3997   11.1774   24.5081 C   0  0  0  0  0  0  0  0  0  0  0  0
   10.8370   10.7948   24.1333 C   0  0  0  0  0  0  0  0  0  0  0  0
   11.9111   11.9112   24.3918 C   0  0  2  0  0  0  0  0  0  0  0  0
   13.3288   11.3582   24.7684 C   0  0  0  0  0  0  0  0  0  0  0  0
   18.4960    9.8097   26.8656 C   0  0  0  0  0  0  0  0  0  0  0  0
   19.7163    9.3696   26.3390 C   0  0  0  0  0  0  0  0  0  0  0  0
  1  2  1  0
  2  3  2  0
  3  4  1  0
  4  5  2  0
  6  5  1  6
  6  7  1  0
  7  8  1  0
  8  9  1  0
  9 10  1  0
 10 11  2  0
 12 10  1  1
 12 13  1  0
 13 14  1  0
 14 15  2  0
 14 16  1  0
 16 17  1  0
 17 18  1  0
 18 19  1  0
 19 20  1  0
 21 20  1  1
 21 22  1  0
  5 23  1  0
 23 24  2  0
 24  2  1  0
  9  6  1  0
 22 12  1  0
 21 16  1  0
M  END
>  <energy_score>  (4404) 
-0.620134

>  <inchikey>  (4404) 
OAZIUWAMLYAFKS-UHFFFAOYSA-N

>  <smiles>  (4404) 
Cc1ccc(C2CCN2C(=O)C2CC(=O)N3CCCCC3C2)cc1

>  <ref_pdb>  (4404) 
A2629a

>  <alias>  (4404) 
OAZIUWAMLYAFKS-UHFFFAOYSA-N-P87-P87-P445-601506

>  <HIPPO Pose ID>  (4404) 
510852

>  <name>  (4404) 
OAZIUWAMLYAFKS-UHFFFAOYSA-N-P87-P87-P445-601506

>  <HIPPO Compound ID>  (4404) 
290537

>  <ref_mols>  (4404) 
A4715a,A0875a

>  <distance_score>  (4404) 
1.682697

>  <inspiration_score>  (4404) 
None

$$$$
DHXQJUCHOJSZHD-UHFFFAOYSA-N-P445-P87-P445-601506
     RDKit          3D

 24 26  0  0  0  0  0  0  0  0999 V2000
   14.9597   11.7590   25.5699 C   0  0  0  0  0  0  0  0  0  0  0  0
   14.0320   11.9249   24.4864 O   0  0  0  0  0  0  0  0  0  0  0  0
   13.0182   12.8288   24.6302 C   0  0  0  0  0  0  0  0  0  0  0  0
   12.7176   13.4470   25.8028 C   0  0  0  0  0  0  0  0  0  0  0  0
   11.6911   14.3824   25.8699 C   0  0  0  0  0  0  0  0  0  0  0  0
   10.8773   14.5860   24.7754 C   0  0  0  0  0  0  0  0  0  0  0  0
   11.1454   14.0552   23.5312 C   0  0  0  0  0  0  0  0  0  0  0  0
   10.3764   14.3448   22.1725 C   0  0  2  0  0  0  0  0  0  0  0  0
   11.1739   15.2472   21.2568 C   0  0  0  0  0  0  0  0  0  0  0  0
    9.8547   15.5190   20.6300 C   0  0  0  0  0  0  0  0  0  0  0  0
    9.1329   15.3552   21.9404 N   0  0  0  0  0  0  0  0  0  0  0  0
    7.7929   14.6815   22.2659 C   0  0  0  0  0  0  0  0  0  0  0  0
    7.0573   14.0665   21.5718 O   0  0  0  0  0  0  0  0  0  0  0  0
    7.4308   15.0195   23.7203 C   0  0  0  0  0  0  0  0  0  0  0  0
    6.4037   14.1321   24.4153 C   0  0  0  0  0  0  0  0  0  0  0  0
    6.9255   13.3205   25.5973 C   0  0  0  0  0  0  0  0  0  0  0  0
    7.4663   12.0504   25.1551 N   0  0  0  0  0  0  0  0  0  0  0  0
    8.7067   12.0677   24.4184 C   0  0  0  0  0  0  0  0  0  0  0  0
    8.8732   10.9616   23.4290 C   0  0  0  0  0  0  0  0  0  0  0  0
    8.5612    9.6321   24.0371 C   0  0  0  0  0  0  0  0  0  0  0  0
    7.3015    9.6508   24.8741 C   0  0  0  0  0  0  0  0  0  0  0  0
    6.9862   10.8759   25.6835 C   0  0  0  0  0  0  0  0  0  0  0  0
    6.2593   10.8139   26.6729 O   0  0  0  0  0  0  0  0  0  0  0  0
   12.2561   13.1872   23.5131 C   0  0  0  0  0  0  0  0  0  0  0  0
  1  2  1  0
  2  3  1  0
  3  4  2  0
  4  5  1  0
  5  6  2  0
  6  7  1  0
  8  7  1  1
  8  9  1  0
  9 10  1  0
 10 11  1  0
 11 12  1  0
 12 13  2  0
 12 14  1  0
 14 15  1  0
 15 16  1  0
 16 17  1  0
 17 18  1  0
 18 19  1  0
 19 20  1  0
 20 21  1  0
 21 22  1  0
 22 23  2  0
  7 24  2  0
 24  3  1  0
 11  8  1  0
 22 17  1  0
M  END
>  <energy_score>  (4405) 
-1.379196

>  <inchikey>  (4405) 
DHXQJUCHOJSZHD-UHFFFAOYSA-N

>  <smiles>  (4405) 
COc1cccc(C2CCN2C(=O)CCCN2CCCCC2=O)c1

>  <ref_pdb>  (4405) 
A2629a

>  <alias>  (4405) 
DHXQJUCHOJSZHD-UHFFFAOYSA-N-P445-P87-P445-601506

>  <HIPPO Pose ID>  (4405) 
510871

>  <name>  (4405) 
DHXQJUCHOJSZHD-UHFFFAOYSA-N-P445-P87-P445-601506

>  <HIPPO Compound ID>  (4405) 
290546

>  <ref_mols>  (4405) 
A4715a,A0875a

>  <distance_score>  (4405) 
1.958454

>  <inspiration_score>  (4405) 
None

$$$$
FARSFNFYTOPKIW-UHFFFAOYSA-N-P445-P87-P445-601506
     RDKit          3D

 25 27  0  0  0  0  0  0  0  0999 V2000
   12.2915   15.0239   28.2987 C   0  0  0  0  0  0  0  0  0  0  0  0
   11.6000   15.0552   27.0626 O   0  0  0  0  0  0  0  0  0  0  0  0
   11.9507   14.2822   25.9852 C   0  0  0  0  0  0  0  0  0  0  0  0
   11.0942   14.5632   24.8967 C   0  0  0  0  0  0  0  0  0  0  0  0
   11.2527   14.0564   23.6185 C   0  0  0  0  0  0  0  0  0  0  0  0
   10.4794   14.3755   22.2609 C   0  0  2  0  0  0  0  0  0  0  0  0
   11.2484   15.3031   21.3492 C   0  0  0  0  0  0  0  0  0  0  0  0
    9.9181   15.5022   20.7130 C   0  0  0  0  0  0  0  0  0  0  0  0
    9.2140   15.3229   22.0354 N   0  0  0  0  0  0  0  0  0  0  0  0
    7.9080   14.6044   22.3795 C   0  0  0  0  0  0  0  0  0  0  0  0
    7.1899   13.9562   21.6993 O   0  0  0  0  0  0  0  0  0  0  0  0
    7.5728   14.9524   23.8250 C   0  0  0  0  0  0  0  0  0  0  0  0
    6.7381   13.9625   24.6223 C   0  0  0  0  0  0  0  0  0  0  0  0
    7.5758   13.1605   25.6018 C   0  0  0  0  0  0  0  0  0  0  0  0
    7.8902   11.8285   25.1202 N   0  0  0  0  0  0  0  0  0  0  0  0
    8.4954   11.7061   23.8057 C   0  0  0  0  0  0  0  0  0  0  0  0
    9.1908   10.4043   23.5331 C   0  0  0  0  0  0  0  0  0  0  0  0
    8.3186    9.2384   23.8953 C   0  0  0  0  0  0  0  0  0  0  0  0
    7.1851    9.5299   24.8567 C   0  0  0  0  0  0  0  0  0  0  0  0
    7.1673   10.7890   25.6497 C   0  0  0  0  0  0  0  0  0  0  0  0
    6.4987   10.8673   26.6793 O   0  0  0  0  0  0  0  0  0  0  0  0
   12.2779   13.1225   23.5392 C   0  0  0  0  0  0  0  0  0  0  0  0
   13.0258   12.6592   24.6219 C   0  0  0  0  0  0  0  0  0  0  0  0
   12.9085   13.2575   25.8483 C   0  0  0  0  0  0  0  0  0  0  0  0
   14.1088   12.5178   27.1941 Br  0  0  0  0  0  0  0  0  0  0  0  0
  1  2  1  0
  2  3  1  0
  3  4  2  0
  4  5  1  0
  6  5  1  1
  6  7  1  0
  7  8  1  0
  8  9  1  0
  9 10  1  0
 10 11  2  0
 10 12  1  0
 12 13  1  0
 13 14  1  0
 14 15  1  0
 15 16  1  0
 16 17  1  0
 17 18  1  0
 18 19  1  0
 19 20  1  0
 20 21  2  0
  5 22  2  0
 22 23  1  0
 23 24  2  0
 24 25  1  0
 24  3  1  0
  9  6  1  0
 20 15  1  0
M  END
>  <energy_score>  (4406) 
-11.581549

>  <inchikey>  (4406) 
FARSFNFYTOPKIW-UHFFFAOYSA-N

>  <smiles>  (4406) 
COc1cc(C2CCN2C(=O)CCCN2CCCCC2=O)ccc1Br

>  <ref_pdb>  (4406) 
A2629a

>  <alias>  (4406) 
FARSFNFYTOPKIW-UHFFFAOYSA-N-P445-P87-P445-601506

>  <HIPPO Pose ID>  (4406) 
510919

>  <name>  (4406) 
FARSFNFYTOPKIW-UHFFFAOYSA-N-P445-P87-P445-601506

>  <HIPPO Compound ID>  (4406) 
290570

>  <ref_mols>  (4406) 
A4715a,A0875a

>  <distance_score>  (4406) 
1.85793

>  <inspiration_score>  (4406) 
None

$$$$
CWGIDFNUSCDTNL-UHFFFAOYSA-N-P87-P87-P445-601506
     RDKit          3D

 25 28  0  0  0  0  0  0  0  0999 V2000
   18.6394   12.9398   27.4331 C   0  0  0  0  0  0  0  0  0  0  0  0
   17.7562   13.2517   28.6141 C   0  0  0  0  0  0  0  0  0  0  0  0
   18.1365   14.3996   29.3445 C   0  0  0  0  0  0  0  0  0  0  0  0
   17.4288   14.8157   30.4601 C   0  0  0  0  0  0  0  0  0  0  0  0
   16.3346   14.0794   30.8751 C   0  0  0  0  0  0  0  0  0  0  0  0
   15.9339   12.9290   30.1701 C   0  0  0  0  0  0  0  0  0  0  0  0
   14.7422   12.1814   30.7181 C   0  0  0  0  0  0  0  0  0  0  0  0
   16.6079   12.4901   28.9813 C   0  0  0  0  0  0  0  0  0  0  0  0
   16.0467   11.2188   28.1777 C   0  0  2  0  0  0  0  0  0  0  0  0
   16.9315    9.9475   27.9865 C   0  0  0  0  0  0  0  0  0  0  0  0
   16.4741    9.8816   26.4899 C   0  0  0  0  0  0  0  0  0  0  0  0
   15.9739   11.1927   26.7359 N   0  0  0  0  0  0  0  0  0  0  0  0
   15.5539   12.1371   25.8714 C   0  0  0  0  0  0  0  0  0  0  0  0
   16.3678   12.9413   25.4358 O   0  0  0  0  0  0  0  0  0  0  0  0
   14.0966   12.3261   25.4990 C   0  0  2  0  0  0  0  0  0  0  0  0
   13.3468   12.7198   26.7197 C   0  0  0  0  0  0  0  0  0  0  0  0
   12.0005   13.3060   26.3729 C   0  0  0  0  0  0  0  0  0  0  0  0
   11.5173   14.1970   27.0646 O   0  0  0  0  0  0  0  0  0  0  0  0
   11.2965   12.7460   25.3329 N   0  0  0  0  0  0  0  0  0  0  0  0
   10.0341   13.3946   24.9374 C   0  0  0  0  0  0  0  0  0  0  0  0
    9.1133   12.4889   24.1284 C   0  0  0  0  0  0  0  0  0  0  0  0
    9.3622   11.0398   24.4968 C   0  0  0  0  0  0  0  0  0  0  0  0
   10.8096   10.6493   24.1703 C   0  0  0  0  0  0  0  0  0  0  0  0
   11.8663   11.7799   24.4092 C   0  0  2  0  0  0  0  0  0  0  0  0
   13.2949   11.2508   24.8440 C   0  0  0  0  0  0  0  0  0  0  0  0
  1  2  1  0
  2  3  2  0
  3  4  1  0
  4  5  2  0
  5  6  1  0
  6  7  1  0
  6  8  2  0
  9  8  1  6
  9 10  1  0
 10 11  1  0
 11 12  1  0
 12 13  1  0
 13 14  2  0
 15 13  1  1
 15 16  1  0
 16 17  1  0
 17 18  2  0
 17 19  1  0
 19 20  1  0
 20 21  1  0
 21 22  1  0
 22 23  1  0
 24 23  1  1
 24 25  1  0
  8  2  1  0
 12  9  1  0
 25 15  1  0
 24 19  1  0
M  END
>  <energy_score>  (4407) 
-15.673786

>  <inchikey>  (4407) 
CWGIDFNUSCDTNL-UHFFFAOYSA-N

>  <smiles>  (4407) 
Cc1cccc(C)c1C1CCN1C(=O)C1CC(=O)N2CCCCC2C1

>  <ref_pdb>  (4407) 
A2629a

>  <alias>  (4407) 
CWGIDFNUSCDTNL-UHFFFAOYSA-N-P87-P87-P445-601506

>  <HIPPO Pose ID>  (4407) 
510964

>  <name>  (4407) 
CWGIDFNUSCDTNL-UHFFFAOYSA-N-P87-P87-P445-601506

>  <HIPPO Compound ID>  (4407) 
290593

>  <ref_mols>  (4407) 
A4715a,A0875a

>  <distance_score>  (4407) 
1.644271

>  <inspiration_score>  (4407) 
None

$$$$
ILHVWNALJHCAPJ-UHFFFAOYSA-N-P445-P87-P445-601506
     RDKit          3D

 26 30  0  0  0  0  0  0  0  0999 V2000
    9.4787   12.6136   25.1172 O   0  0  0  0  0  0  0  0  0  0  0  0
    8.8465   13.2991   24.3976 C   0  0  0  0  0  0  0  0  0  0  0  0
    7.3303   13.2723   24.4873 C   0  0  2  0  0  0  0  0  0  0  0  0
    6.9932   14.4513   25.4079 C   0  0  0  0  0  0  0  0  0  0  0  0
    5.7219   14.2827   26.2104 C   0  0  0  0  0  0  0  0  0  0  0  0
    5.7583   13.0228   26.9665 N   0  0  0  0  0  0  0  0  0  0  0  0
    4.6471   13.0118   27.9348 C   0  0  0  0  0  0  0  0  0  0  0  0
    3.9710   11.6592   28.1441 C   0  0  0  0  0  0  0  0  0  0  0  0
    4.9711   10.5251   28.0534 C   0  0  0  0  0  0  0  0  0  0  0  0
    5.7297   10.5377   26.7368 C   0  0  0  0  0  0  0  0  0  0  0  0
    5.7320   11.8950   26.0225 C   0  0  2  0  0  0  0  0  0  0  0  0
    6.9345   11.9041   25.0751 C   0  0  0  0  0  0  0  0  0  0  0  0
    9.2932   14.3404   23.3973 N   0  0  0  0  0  0  0  0  0  0  0  0
    9.5312   13.7057   21.9701 C   0  0  0  0  0  0  0  0  0  0  0  0
   10.5033   14.7469   21.6551 C   0  0  0  0  0  0  0  0  0  0  0  0
   11.7422   14.6217   20.8067 C   0  0  0  0  0  0  0  0  0  0  0  0
   10.9375   15.2848   19.6789 C   0  0  0  0  0  0  0  0  0  0  0  0
   10.0161   15.8834   20.7793 C   0  0  0  0  0  0  0  0  0  0  0  0
   10.6724   14.8872   23.0906 C   0  0  2  0  0  0  0  0  0  0  0  0
   11.6720   14.1648   24.0442 C   0  0  0  0  0  0  0  0  0  0  0  0
   11.7385   14.4993   25.3996 C   0  0  0  0  0  0  0  0  0  0  0  0
   12.6048   13.8483   26.2648 C   0  0  0  0  0  0  0  0  0  0  0  0
   13.3945   12.7982   25.8356 C   0  0  0  0  0  0  0  0  0  0  0  0
   14.7830   12.0261   26.8544 Br  0  0  0  0  0  0  0  0  0  0  0  0
   13.2324   12.3802   24.5587 C   0  0  0  0  0  0  0  0  0  0  0  0
   12.4230   13.0766   23.6635 C   0  0  0  0  0  0  0  0  0  0  0  0
  1  2  2  0
  3  2  1  1
  3  4  1  0
  4  5  1  0
  5  6  1  0
  6  7  1  0
  7  8  1  0
  8  9  1  0
  9 10  1  0
 11 10  1  1
 11 12  1  0
  2 13  1  0
 13 14  1  0
 14 15  1  0
 15 16  1  0
 16 17  1  0
 17 18  1  0
 15 19  1  0
 19 20  1  1
 20 21  2  0
 21 22  1  0
 22 23  2  0
 23 24  1  0
 23 25  1  0
 25 26  2  0
 12  3  1  0
 19 13  1  0
 26 20  1  0
 11  6  1  0
 18 15  1  0
M  END
>  <energy_score>  (4408) 
-6.701773

>  <inchikey>  (4408) 
ILHVWNALJHCAPJ-UHFFFAOYSA-N

>  <smiles>  (4408) 
O=C(C1CCN2CCCCC2C1)N1CC2(CCC2)C1c1ccc(Br)cc1

>  <ref_pdb>  (4408) 
A2629a

>  <alias>  (4408) 
ILHVWNALJHCAPJ-UHFFFAOYSA-N-P445-P87-P445-601506

>  <HIPPO Pose ID>  (4408) 
510977

>  <name>  (4408) 
ILHVWNALJHCAPJ-UHFFFAOYSA-N-P445-P87-P445-601506

>  <HIPPO Compound ID>  (4408) 
290599

>  <ref_mols>  (4408) 
A4715a,A0875a

>  <distance_score>  (4408) 
1.753734

>  <inspiration_score>  (4408) 
None

$$$$
OAQFZICZDVATMG-UHFFFAOYSA-N-P87-P87-P445-601506
     RDKit          3D

 31 33  0  0  0  0  0  0  0  0999 V2000
   10.2967    9.2033   23.7579 C   0  0  0  0  0  0  0  0  0  0  0  0
   11.2660    9.7133   24.6657 O   0  0  0  0  0  0  0  0  0  0  0  0
   11.5841   11.0318   24.5022 C   0  0  0  0  0  0  0  0  0  0  0  0
   12.8645   11.3637   24.9517 C   0  0  0  0  0  0  0  0  0  0  0  0
   13.4272   12.5474   24.5693 C   0  0  0  0  0  0  0  0  0  0  0  0
   12.6557   13.4279   23.8256 C   0  0  0  0  0  0  0  0  0  0  0  0
   11.3010   13.2384   23.5217 C   0  0  0  0  0  0  0  0  0  0  0  0
   10.5015   14.4750   22.9582 C   0  0  1  0  0  0  0  0  0  0  0  0
   10.2335   14.6933   21.5046 C   0  0  0  0  0  0  0  0  0  0  0  0
    9.1910   15.6526   22.0440 C   0  0  0  0  0  0  0  0  0  0  0  0
    8.9679   14.7399   23.2299 N   0  0  0  0  0  0  0  0  0  0  0  0
    8.1990   13.4560   23.3465 C   0  0  0  0  0  0  0  0  0  0  0  0
    7.6544   12.8180   22.5223 O   0  0  0  0  0  0  0  0  0  0  0  0
    8.1223   13.0277   24.8115 C   0  0  0  0  0  0  0  0  0  0  0  0
    6.6619   12.9103   25.2199 C   0  0  0  0  0  0  0  0  0  0  0  0
    6.4875   12.4462   26.6563 C   0  0  0  0  0  0  0  0  0  0  0  0
    5.1277   12.4830   27.2150 N   0  0  0  0  0  0  0  0  0  0  0  0
    4.5142   13.8132   27.2231 C   0  0  0  0  0  0  0  0  0  0  0  0
    3.0588   13.7625   27.6991 C   0  0  0  0  0  0  0  0  0  0  0  0
    2.8765   12.9800   29.0022 C   0  0  0  0  0  0  0  0  0  0  0  0
    1.9989   11.8448   28.8140 N   0  0  0  0  0  0  0  0  0  0  0  0
    0.8260   11.3576   29.6418 C   0  0  0  0  0  0  0  0  0  0  0  0
    0.3168   11.8245   30.5701 O   0  0  0  0  0  0  0  0  0  0  0  0
    0.4489   10.1982   29.0369 O   0  0  0  0  0  0  0  0  0  0  0  0
   -0.6833    9.4402   29.5410 C   0  0  0  0  0  0  0  0  0  0  0  0
   -0.4275    8.9357   30.9656 C   0  0  0  0  0  0  0  0  0  0  0  0
   -1.9836   10.2456   29.4396 C   0  0  0  0  0  0  0  0  0  0  0  0
   -0.7873    8.2275   28.6041 C   0  0  0  0  0  0  0  0  0  0  0  0
    4.2098   12.5277   29.5852 C   0  0  0  0  0  0  0  0  0  0  0  0
    5.0863   11.8323   28.5380 C   0  0  0  0  0  0  0  0  0  0  0  0
   10.8338   11.9523   23.7721 C   0  0  0  0  0  0  0  0  0  0  0  0
  1  2  1  0
  2  3  1  0
  3  4  2  0
  4  5  1  0
  5  6  2  0
  6  7  1  0
  8  7  1  6
  8  9  1  0
  9 10  1  0
 10 11  1  0
 11 12  1  0
 12 13  2  0
 12 14  1  0
 14 15  1  0
 15 16  1  0
 16 17  1  0
 17 18  1  0
 18 19  1  0
 19 20  1  0
 20 21  1  0
 21 22  1  0
 22 23  2  0
 22 24  1  0
 24 25  1  0
 25 26  1  0
 25 27  1  0
 25 28  1  0
 20 29  1  0
 29 30  1  0
  7 31  2  0
 31  3  1  0
 11  8  1  0
 30 17  1  0
M  END
>  <energy_score>  (4409) 
-10.428178

>  <inchikey>  (4409) 
OAQFZICZDVATMG-UHFFFAOYSA-N

>  <smiles>  (4409) 
COc1cccc(C2CCN2C(=O)CCCN2CCC(NC(=O)OC(C)(C)C)CC2)c1

>  <ref_pdb>  (4409) 
A2629a

>  <alias>  (4409) 
OAQFZICZDVATMG-UHFFFAOYSA-N-P87-P87-P445-601506

>  <HIPPO Pose ID>  (4409) 
511192

>  <name>  (4409) 
OAQFZICZDVATMG-UHFFFAOYSA-N-P87-P87-P445-601506

>  <HIPPO Compound ID>  (4409) 
290707

>  <ref_mols>  (4409) 
A4715a,A0875a

>  <distance_score>  (4409) 
1.700657

>  <inspiration_score>  (4409) 
None

$$$$
RKMVHOOVYOWIQH-UHFFFAOYSA-N-P363-P95-P363-601507
     RDKit          3D

 23 25  0  0  0  0  0  0  0  0999 V2000
    7.1093    9.9920   25.8251 O   0  0  0  0  0  0  0  0  0  0  0  0
    7.9816   10.5359   25.1632 C   0  0  0  0  0  0  0  0  0  0  0  0
    7.7156   11.8999   24.6129 C   0  0  0  0  0  0  0  0  0  0  0  0
    8.8957   12.2959   23.7540 C   0  0  0  0  0  0  0  0  0  0  0  0
   10.1260   12.2696   24.6564 C   0  0  1  0  0  0  0  0  0  0  0  0
    9.8020   12.8088   25.9587 O   0  0  0  0  0  0  0  0  0  0  0  0
   10.5791   13.9317   26.4151 C   0  0  0  0  0  0  0  0  0  0  0  0
   10.4112   15.1550   25.5210 C   0  0  0  0  0  0  0  0  0  0  0  0
   11.2415   15.9457   25.3137 O   0  0  0  0  0  0  0  0  0  0  0  0
    8.9888   15.0127   24.9241 N   0  0  0  0  0  0  0  0  0  0  0  0
    8.3438   15.7471   23.8956 C   0  0  0  0  0  0  0  0  0  0  0  0
    9.2754   15.7780   22.6365 C   0  0  0  0  0  0  0  0  0  0  0  0
   10.3224   14.8965   22.6343 N   0  0  0  0  0  0  0  0  0  0  0  0
   11.0006   14.7138   21.4907 C   0  0  0  0  0  0  0  0  0  0  0  0
   10.6763   15.3648   20.3381 C   0  0  0  0  0  0  0  0  0  0  0  0
   11.4164   14.9209   18.6959 Br  0  0  0  0  0  0  0  0  0  0  0  0
    9.6869   16.3001   20.4464 C   0  0  0  0  0  0  0  0  0  0  0  0
    8.9459   16.5000   21.5586 N   0  0  0  0  0  0  0  0  0  0  0  0
    6.9182   15.2385   23.5722 C   0  0  0  0  0  0  0  0  0  0  0  0
    7.1311   16.6129   24.1027 C   0  0  0  0  0  0  0  0  0  0  0  0
   10.3679   10.7783   24.8602 C   0  0  0  0  0  0  0  0  0  0  0  0
   11.4990   10.3286   25.0487 O   0  0  0  0  0  0  0  0  0  0  0  0
    9.2288   10.0030   24.9288 N   0  0  0  0  0  0  0  0  0  0  0  0
  1  2  2  0
  2  3  1  0
  3  4  1  0
  4  5  1  0
  5  6  1  1
  6  7  1  0
  7  8  1  0
  8  9  2  0
  8 10  1  0
 10 11  1  0
 11 12  1  0
 12 13  2  0
 13 14  1  0
 14 15  2  0
 15 16  1  0
 15 17  1  0
 17 18  2  0
 11 19  1  0
 19 20  1  0
  5 21  1  0
 21 22  2  0
 21 23  1  0
 23  2  1  0
 20 11  1  0
 18 12  1  0
M  END
>  <energy_score>  (4410) 
-9.569669

>  <inchikey>  (4410) 
RKMVHOOVYOWIQH-UHFFFAOYSA-N

>  <smiles>  (4410) 
O=C1CCC(OCC(=O)NC2(c3ncc(Br)cn3)CC2)C(=O)N1

>  <ref_pdb>  (4410) 
A1778a

>  <alias>  (4410) 
RKMVHOOVYOWIQH-UHFFFAOYSA-N-P363-P95-P363-601507

>  <HIPPO Pose ID>  (4410) 
511673

>  <name>  (4410) 
RKMVHOOVYOWIQH-UHFFFAOYSA-N-P363-P95-P363-601507

>  <HIPPO Compound ID>  (4410) 
310127

>  <ref_mols>  (4410) 
A4445a,A1068a

>  <distance_score>  (4410) 
1.660996

>  <inspiration_score>  (4410) 
None

$$$$
VWLJPBLSQUOCPE-UHFFFAOYSA-N-P363-P95-P363-601507
     RDKit          3D

 25 27  0  0  0  0  0  0  0  0999 V2000
    6.8900   10.3931   25.7349 O   0  0  0  0  0  0  0  0  0  0  0  0
    7.9445   10.8698   25.3358 C   0  0  0  0  0  0  0  0  0  0  0  0
    8.8753   10.1865   24.3699 C   0  0  0  0  0  0  0  0  0  0  0  0
    9.7187   11.2402   23.6825 C   0  0  0  0  0  0  0  0  0  0  0  0
   10.6180   11.8588   24.7589 C   0  0  1  0  0  0  0  0  0  0  0  0
   11.7491   12.5033   24.1842 O   0  0  0  0  0  0  0  0  0  0  0  0
   12.1933   13.7053   24.8278 C   0  0  0  0  0  0  0  0  0  0  0  0
   11.3525   14.9219   24.4262 C   0  0  0  0  0  0  0  0  0  0  0  0
   11.2157   15.8822   25.0725 O   0  0  0  0  0  0  0  0  0  0  0  0
   10.6979   14.5144   23.0836 N   0  0  0  0  0  0  0  0  0  0  0  0
    9.6602   15.1683   22.3024 C   0  0  0  0  0  0  0  0  0  0  0  0
    8.3946   15.3135   23.1523 C   0  0  0  0  0  0  0  0  0  0  0  0
    8.3836   14.7933   24.4033 N   0  0  0  0  0  0  0  0  0  0  0  0
    7.2997   15.0518   25.1556 C   0  0  0  0  0  0  0  0  0  0  0  0
    6.1801   15.6925   24.6786 C   0  0  0  0  0  0  0  0  0  0  0  0
    4.6773   16.0074   25.7573 Br  0  0  0  0  0  0  0  0  0  0  0  0
    6.2335   16.0763   23.3623 C   0  0  0  0  0  0  0  0  0  0  0  0
    7.3152   15.8769   22.5816 N   0  0  0  0  0  0  0  0  0  0  0  0
    9.3068   14.2810   21.1122 C   0  0  0  0  0  0  0  0  0  0  0  0
    9.9672   14.8802   19.8781 C   0  0  0  0  0  0  0  0  0  0  0  0
   10.9097   15.9210   20.3891 C   0  0  0  0  0  0  0  0  0  0  0  0
   10.2132   16.4318   21.6368 C   0  0  0  0  0  0  0  0  0  0  0  0
    9.6813   12.5283   25.7868 C   0  0  0  0  0  0  0  0  0  0  0  0
   10.0742   13.3473   26.6139 O   0  0  0  0  0  0  0  0  0  0  0  0
    8.3961   12.0504   25.8523 N   0  0  0  0  0  0  0  0  0  0  0  0
  1  2  2  0
  2  3  1  0
  3  4  1  0
  4  5  1  0
  5  6  1  6
  6  7  1  0
  7  8  1  0
  8  9  2  0
  8 10  1  0
 10 11  1  0
 11 12  1  0
 12 13  2  0
 13 14  1  0
 14 15  2  0
 15 16  1  0
 15 17  1  0
 17 18  2  0
 11 19  1  0
 19 20  1  0
 20 21  1  0
 21 22  1  0
  5 23  1  0
 23 24  2  0
 23 25  1  0
 25  2  1  0
 22 11  1  0
 18 12  1  0
M  END
>  <energy_score>  (4411) 
-38.156692

>  <inchikey>  (4411) 
VWLJPBLSQUOCPE-UHFFFAOYSA-N

>  <smiles>  (4411) 
O=C1CCC(OCC(=O)NC2(c3ncc(Br)cn3)CCCC2)C(=O)N1

>  <ref_pdb>  (4411) 
A1778a

>  <alias>  (4411) 
VWLJPBLSQUOCPE-UHFFFAOYSA-N-P363-P95-P363-601507

>  <HIPPO Pose ID>  (4411) 
511687

>  <name>  (4411) 
VWLJPBLSQUOCPE-UHFFFAOYSA-N-P363-P95-P363-601507

>  <HIPPO Compound ID>  (4411) 
310134

>  <ref_mols>  (4411) 
A4445a,A1068a

>  <distance_score>  (4411) 
1.978873

>  <inspiration_score>  (4411) 
None

$$$$
NHFRILFLWZGTIB-UHFFFAOYSA-N-P363-P95-P363-601507
     RDKit          3D

 26 28  0  0  0  0  0  0  0  0999 V2000
    6.8938   10.4091   25.6520 O   0  0  0  0  0  0  0  0  0  0  0  0
    7.9938   10.8507   25.3475 C   0  0  0  0  0  0  0  0  0  0  0  0
    8.9297   10.2229   24.3465 C   0  0  0  0  0  0  0  0  0  0  0  0
    9.7957   11.3169   23.7392 C   0  0  0  0  0  0  0  0  0  0  0  0
   10.6738   11.8694   24.8724 C   0  0  1  0  0  0  0  0  0  0  0  0
   11.9145   12.4402   24.4873 O   0  0  0  0  0  0  0  0  0  0  0  0
   12.1616   13.8479   24.6178 C   0  0  0  0  0  0  0  0  0  0  0  0
   11.7204   14.5760   23.3504 C   0  0  0  0  0  0  0  0  0  0  0  0
   12.4356   14.9459   22.5170 O   0  0  0  0  0  0  0  0  0  0  0  0
   10.1937   14.5863   23.4229 N   0  0  0  0  0  0  0  0  0  0  0  0
    9.2048   14.9719   22.4333 C   0  0  0  0  0  0  0  0  0  0  0  0
    7.8658   14.6001   23.1382 C   0  0  0  0  0  0  0  0  0  0  0  0
    7.8925   14.6395   24.4986 N   0  0  0  0  0  0  0  0  0  0  0  0
    6.7241   14.4868   25.1401 C   0  0  0  0  0  0  0  0  0  0  0  0
    5.5428   14.2196   24.4938 C   0  0  0  0  0  0  0  0  0  0  0  0
    3.9216   14.0823   25.4277 Br  0  0  0  0  0  0  0  0  0  0  0  0
    5.6300   14.0809   23.1281 C   0  0  0  0  0  0  0  0  0  0  0  0
    6.7797   14.2386   22.4300 N   0  0  0  0  0  0  0  0  0  0  0  0
    9.3871   14.1528   21.1754 C   0  0  0  0  0  0  0  0  0  0  0  0
   10.4236   14.6298   20.1603 C   0  0  0  0  0  0  0  0  0  0  0  0
   10.2145   16.0718   19.8057 C   0  0  0  0  0  0  0  0  0  0  0  0
   10.1960   16.9123   21.0571 C   0  0  0  0  0  0  0  0  0  0  0  0
    9.2007   16.4472   22.1097 C   0  0  0  0  0  0  0  0  0  0  0  0
    9.7085   12.5328   25.8676 C   0  0  0  0  0  0  0  0  0  0  0  0
   10.0097   13.4988   26.5626 O   0  0  0  0  0  0  0  0  0  0  0  0
    8.4721   11.9551   25.9945 N   0  0  0  0  0  0  0  0  0  0  0  0
  1  2  2  0
  2  3  1  0
  3  4  1  0
  4  5  1  0
  5  6  1  6
  6  7  1  0
  7  8  1  0
  8  9  2  0
  8 10  1  0
 10 11  1  0
 11 12  1  0
 12 13  2  0
 13 14  1  0
 14 15  2  0
 15 16  1  0
 15 17  1  0
 17 18  2  0
 11 19  1  0
 19 20  1  0
 20 21  1  0
 21 22  1  0
 22 23  1  0
  5 24  1  0
 24 25  2  0
 24 26  1  0
 26  2  1  0
 23 11  1  0
 18 12  1  0
M  END
>  <energy_score>  (4412) 
-22.648446

>  <inchikey>  (4412) 
NHFRILFLWZGTIB-UHFFFAOYSA-N

>  <smiles>  (4412) 
O=C1CCC(OCC(=O)NC2(c3ncc(Br)cn3)CCCCC2)C(=O)N1

>  <ref_pdb>  (4412) 
A1778a

>  <alias>  (4412) 
NHFRILFLWZGTIB-UHFFFAOYSA-N-P363-P95-P363-601507

>  <HIPPO Pose ID>  (4412) 
511691

>  <name>  (4412) 
NHFRILFLWZGTIB-UHFFFAOYSA-N-P363-P95-P363-601507

>  <HIPPO Compound ID>  (4412) 
310136

>  <ref_mols>  (4412) 
A4445a,A1068a

>  <distance_score>  (4412) 
1.711349

>  <inspiration_score>  (4412) 
None

$$$$
MEEPDPSHXKPNHF-UHFFFAOYSA-N-P248-P28-P248-601507
     RDKit          3D

 23 26  0  0  0  0  0  0  0  0999 V2000
   11.6175   15.1559   18.4514 C   0  0  0  0  0  0  0  0  0  0  0  0
   10.8671   15.3093   19.6556 N   0  0  0  0  0  0  0  0  0  0  0  0
   11.2861   15.1576   20.9413 C   0  0  0  0  0  0  0  0  0  0  0  0
   10.1408   15.1653   21.6956 C   0  0  0  0  0  0  0  0  0  0  0  0
    9.9807   14.9664   23.0442 N   0  0  0  0  0  0  0  0  0  0  0  0
    8.7016   14.7751   23.6530 C   0  0  0  0  0  0  0  0  0  0  0  0
    9.0305   14.3396   25.0546 C   0  0  2  0  0  0  0  0  0  0  0  0
    7.8308   14.6769   25.8922 C   0  0  0  0  0  0  0  0  0  0  0  0
    7.8219   15.5211   26.7748 O   0  0  0  0  0  0  0  0  0  0  0  0
    6.7280   13.9400   25.5310 O   0  0  0  0  0  0  0  0  0  0  0  0
    6.8195   12.6101   26.0128 C   0  0  1  0  0  0  0  0  0  0  0  0
    5.4866   11.9062   26.4218 C   0  0  0  0  0  0  0  0  0  0  0  0
    5.8788   10.3814   26.4808 C   0  0  0  0  0  0  0  0  0  0  0  0
    6.9517   10.3502   25.4775 C   0  0  0  0  0  0  0  0  0  0  0  0
    7.5901    9.4270   24.7312 N   0  0  0  0  0  0  0  0  0  0  0  0
    8.4456   10.0021   23.8688 N   0  0  0  0  0  0  0  0  0  0  0  0
    8.3247   11.3134   24.0957 C   0  0  0  0  0  0  0  0  0  0  0  0
    7.4413   11.5773   25.1431 C   0  0  0  0  0  0  0  0  0  0  0  0
   10.3685   14.9923   25.3407 C   0  0  0  0  0  0  0  0  0  0  0  0
   10.9949   15.0849   23.9768 C   0  0  0  0  0  0  0  0  0  0  0  0
   12.1876   15.2630   23.8149 O   0  0  0  0  0  0  0  0  0  0  0  0
    9.1135   15.4291   20.7799 C   0  0  0  0  0  0  0  0  0  0  0  0
    9.5638   15.5435   19.5376 N   0  0  0  0  0  0  0  0  0  0  0  0
  1  2  1  0
  2  3  1  0
  3  4  2  0
  4  5  1  0
  5  6  1  0
  6  7  1  0
  7  8  1  1
  8  9  2  0
  8 10  1  0
 11 10  1  6
 11 12  1  0
 12 13  1  0
 13 14  1  0
 14 15  1  0
 15 16  1  0
 16 17  2  0
 17 18  1  0
  7 19  1  0
 19 20  1  0
 20 21  2  0
  4 22  1  0
 22 23  2  0
 23  2  1  0
 20  5  1  0
 18 11  1  0
 18 14  2  0
M  END
>  <energy_score>  (4413) 
-11.864282

>  <inchikey>  (4413) 
MEEPDPSHXKPNHF-UHFFFAOYSA-N

>  <smiles>  (4413) 
Cn1cc(N2CC(C(=O)OC3CCc4[nH]ncc43)CC2=O)cn1

>  <ref_pdb>  (4413) 
A1778a

>  <alias>  (4413) 
MEEPDPSHXKPNHF-UHFFFAOYSA-N-P248-P28-P248-601507

>  <HIPPO Pose ID>  (4413) 
512875

>  <name>  (4413) 
MEEPDPSHXKPNHF-UHFFFAOYSA-N-P248-P28-P248-601507

>  <HIPPO Compound ID>  (4413) 
307058

>  <ref_mols>  (4413) 
A3956a,A0556a

>  <distance_score>  (4413) 
1.344046

>  <inspiration_score>  (4413) 
None

$$$$
ONXDADPROMNZBR-UHFFFAOYSA-N-P248-P28-P248-601507
     RDKit          3D

 26 29  0  0  0  0  0  0  0  0999 V2000
    8.1972   19.7608   19.5607 C   0  0  0  0  0  0  0  0  0  0  0  0
    8.3176   18.3857   19.3150 O   0  0  0  0  0  0  0  0  0  0  0  0
    9.5359   17.8380   19.7798 C   0  0  0  0  0  0  0  0  0  0  0  0
    9.7274   16.3374   19.5519 C   0  0  0  0  0  0  0  0  0  0  0  0
   10.9551   15.8416   20.1159 N   0  0  0  0  0  0  0  0  0  0  0  0
   11.3454   16.1773   21.3715 C   0  0  0  0  0  0  0  0  0  0  0  0
   11.7017   15.0142   21.9572 C   0  0  0  0  0  0  0  0  0  0  0  0
   11.7204   14.8479   23.3340 N   0  0  0  0  0  0  0  0  0  0  0  0
   10.5185   15.2346   24.0411 C   0  0  0  0  0  0  0  0  0  0  0  0
    9.8968   13.9618   24.5482 C   0  0  1  0  0  0  0  0  0  0  0  0
    8.4456   13.9276   24.2201 C   0  0  0  0  0  0  0  0  0  0  0  0
    7.9712   13.8264   23.0993 O   0  0  0  0  0  0  0  0  0  0  0  0
    7.7505   13.9327   25.3883 O   0  0  0  0  0  0  0  0  0  0  0  0
    6.5878   13.1278   25.2897 C   0  0  2  0  0  0  0  0  0  0  0  0
    5.8245   13.1574   26.6707 C   0  0  0  0  0  0  0  0  0  0  0  0
    5.4580   11.6868   27.0574 C   0  0  0  0  0  0  0  0  0  0  0  0
    6.2942   10.9505   26.1153 C   0  0  0  0  0  0  0  0  0  0  0  0
    6.5510    9.6625   25.8468 N   0  0  0  0  0  0  0  0  0  0  0  0
    7.4527    9.5316   24.8520 N   0  0  0  0  0  0  0  0  0  0  0  0
    7.6760   10.7859   24.4312 C   0  0  0  0  0  0  0  0  0  0  0  0
    6.9331   11.6955   25.1786 C   0  0  0  0  0  0  0  0  0  0  0  0
   10.6577   12.8805   23.8235 C   0  0  0  0  0  0  0  0  0  0  0  0
   11.9741   13.5618   23.7583 C   0  0  0  0  0  0  0  0  0  0  0  0
   13.0229   13.1608   24.2234 O   0  0  0  0  0  0  0  0  0  0  0  0
   11.8888   14.1517   20.8700 C   0  0  0  0  0  0  0  0  0  0  0  0
   11.4690   14.6777   19.7140 N   0  0  0  0  0  0  0  0  0  0  0  0
  1  2  1  0
  2  3  1  0
  3  4  1  0
  4  5  1  0
  5  6  1  0
  6  7  2  0
  7  8  1  0
  8  9  1  0
  9 10  1  0
 10 11  1  6
 11 12  2  0
 11 13  1  0
 14 13  1  1
 14 15  1  0
 15 16  1  0
 16 17  1  0
 17 18  1  0
 18 19  1  0
 19 20  2  0
 20 21  1  0
 10 22  1  0
 22 23  1  0
 23 24  2  0
  7 25  1  0
 25 26  2  0
 26  5  1  0
 23  8  1  0
 21 14  1  0
 21 17  2  0
M  END
>  <energy_score>  (4414) 
-0.903304

>  <inchikey>  (4414) 
ONXDADPROMNZBR-UHFFFAOYSA-N

>  <smiles>  (4414) 
COCCn1cc(N2CC(C(=O)OC3CCc4[nH]ncc43)CC2=O)cn1

>  <ref_pdb>  (4414) 
A1778a

>  <alias>  (4414) 
ONXDADPROMNZBR-UHFFFAOYSA-N-P248-P28-P248-601507

>  <HIPPO Pose ID>  (4414) 
512877

>  <name>  (4414) 
ONXDADPROMNZBR-UHFFFAOYSA-N-P248-P28-P248-601507

>  <HIPPO Compound ID>  (4414) 
307059

>  <ref_mols>  (4414) 
A3956a,A0556a

>  <distance_score>  (4414) 
1.839897

>  <inspiration_score>  (4414) 
None

$$$$
VVFXDUKLDNMDNQ-UHFFFAOYSA-N-P87-P87-P115-601507
     RDKit          3D

 21 23  0  0  0  0  0  0  0  0999 V2000
    8.5100   10.1480   24.8318 C   0  0  0  0  0  0  0  0  0  0  0  0
    7.8783   11.3801   25.1790 N   0  0  0  0  0  0  0  0  0  0  0  0
    6.7704   11.4610   25.9773 C   0  0  0  0  0  0  0  0  0  0  0  0
    6.2404   12.6890   25.7317 C   0  0  0  0  0  0  0  0  0  0  0  0
    6.9951   13.3299   24.8024 N   0  0  0  0  0  0  0  0  0  0  0  0
    8.0390   12.5767   24.5251 C   0  0  0  0  0  0  0  0  0  0  0  0
    8.9745   12.9057   23.4573 C   0  0  0  0  0  0  0  0  0  0  0  0
    8.5887   13.2880   22.3548 O   0  0  0  0  0  0  0  0  0  0  0  0
   10.3234   12.6804   23.6708 N   0  0  0  0  0  0  0  0  0  0  0  0
   11.2476   13.6974   24.1458 C   0  0  0  0  0  0  0  0  0  0  0  0
   12.7194   13.1967   23.9473 C   0  0  0  0  0  0  0  0  0  0  0  0
   13.0786   11.9710   24.8487 C   0  0  0  0  0  0  0  0  0  0  0  0
   11.8155   11.0687   24.6746 C   0  0  0  0  0  0  0  0  0  0  0  0
   10.9206   11.4035   23.4347 C   0  0  0  0  0  0  0  0  0  0  0  0
   13.3109   12.4180   26.3183 C   0  0  0  0  0  0  0  0  0  0  0  0
   14.7944   12.6906   26.4384 C   0  0  0  0  0  0  0  0  0  0  0  0
   15.3926   13.0664   27.4272 O   0  0  0  0  0  0  0  0  0  0  0  0
   15.3662   12.3607   25.2260 N   0  0  0  0  0  0  0  0  0  0  0  0
   14.5269   11.3810   24.6027 C   0  0  1  0  0  0  0  0  0  0  0  0
   14.9568   10.0262   25.1842 C   0  0  0  0  0  0  0  0  0  0  0  0
   15.1390   10.0719   26.5814 O   0  0  0  0  0  0  0  0  0  0  0  0
  1  2  1  0
  2  3  1  0
  3  4  2  0
  4  5  1  0
  5  6  2  0
  6  7  1  0
  7  8  2  0
  7  9  1  0
  9 10  1  0
 10 11  1  0
 11 12  1  0
 12 13  1  0
 13 14  1  0
 12 15  1  0
 15 16  1  0
 16 17  2  0
 16 18  1  0
 18 19  1  0
 19 20  1  1
 20 21  1  0
  6  2  1  0
 14  9  1  0
 19 12  1  0
M  END
>  <energy_score>  (4415) 
-24.319139

>  <inchikey>  (4415) 
VVFXDUKLDNMDNQ-UHFFFAOYSA-N

>  <smiles>  (4415) 
Cn1ccnc1C(=O)N1CCC2(CC1)CC(=O)NC2CO

>  <ref_pdb>  (4415) 
A1778a

>  <alias>  (4415) 
VVFXDUKLDNMDNQ-UHFFFAOYSA-N-P87-P87-P115-601507

>  <HIPPO Pose ID>  (4415) 
512970

>  <name>  (4415) 
VVFXDUKLDNMDNQ-UHFFFAOYSA-N-P87-P87-P115-601507

>  <HIPPO Compound ID>  (4415) 
311408

>  <ref_mols>  (4415) 
A1209a,A0875a

>  <distance_score>  (4415) 
1.591776

>  <inspiration_score>  (4415) 
None

$$$$
UAXFHCGUPXVFOL-UHFFFAOYSA-N-P87-P87-P115-601507
     RDKit          3D

 21 23  0  0  0  0  0  0  0  0999 V2000
    6.3929   11.8079   26.1832 C   0  0  0  0  0  0  0  0  0  0  0  0
    7.7180   11.7174   25.5408 C   0  0  0  0  0  0  0  0  0  0  0  0
    8.4059   10.6673   24.9895 C   0  0  0  0  0  0  0  0  0  0  0  0
    9.6027   11.1792   24.5675 N   0  0  0  0  0  0  0  0  0  0  0  0
    9.6341   12.5049   24.9012 C   0  0  0  0  0  0  0  0  0  0  0  0
   10.7203   13.4521   24.7075 C   0  0  0  0  0  0  0  0  0  0  0  0
   10.5440   14.5988   24.3117 O   0  0  0  0  0  0  0  0  0  0  0  0
   11.9996   13.0326   25.0957 N   0  0  0  0  0  0  0  0  0  0  0  0
   12.4459   13.1728   26.4532 C   0  0  0  0  0  0  0  0  0  0  0  0
   13.8161   12.5673   26.8834 C   0  0  0  0  0  0  0  0  0  0  0  0
   14.6294   11.7777   25.8563 C   0  0  0  0  0  0  0  0  0  0  0  0
   13.6880   11.3129   24.7639 C   0  0  0  0  0  0  0  0  0  0  0  0
   12.8780   12.4601   24.1472 C   0  0  0  0  0  0  0  0  0  0  0  0
   15.7714   12.5745   25.2280 C   0  0  0  0  0  0  0  0  0  0  0  0
   16.8541   12.5777   26.2721 C   0  0  0  0  0  0  0  0  0  0  0  0
   17.7403   13.3787   26.4784 O   0  0  0  0  0  0  0  0  0  0  0  0
   16.6951   11.4002   26.9469 N   0  0  0  0  0  0  0  0  0  0  0  0
   15.5150   10.6920   26.5427 C   0  0  2  0  0  0  0  0  0  0  0  0
   15.8905    9.5228   25.6282 C   0  0  0  0  0  0  0  0  0  0  0  0
   16.8620    8.7020   26.2540 O   0  0  0  0  0  0  0  0  0  0  0  0
    8.4941   12.8339   25.4823 N   0  0  0  0  0  0  0  0  0  0  0  0
  1  2  1  0
  2  3  2  0
  3  4  1  0
  4  5  1  0
  5  6  1  0
  6  7  2  0
  6  8  1  0
  8  9  1  0
  9 10  1  0
 10 11  1  0
 11 12  1  0
 12 13  1  0
 11 14  1  0
 14 15  1  0
 15 16  2  0
 15 17  1  0
 17 18  1  0
 18 19  1  6
 19 20  1  0
  5 21  2  0
 21  2  1  0
 13  8  1  0
 18 11  1  0
M  END
>  <energy_score>  (4416) 
-13.816465

>  <inchikey>  (4416) 
UAXFHCGUPXVFOL-UHFFFAOYSA-N

>  <smiles>  (4416) 
Cc1c[nH]c(C(=O)N2CCC3(CC2)CC(=O)NC3CO)n1

>  <ref_pdb>  (4416) 
A1778a

>  <alias>  (4416) 
UAXFHCGUPXVFOL-UHFFFAOYSA-N-P87-P87-P115-601507

>  <HIPPO Pose ID>  (4416) 
512972

>  <name>  (4416) 
UAXFHCGUPXVFOL-UHFFFAOYSA-N-P87-P87-P115-601507

>  <HIPPO Compound ID>  (4416) 
311409

>  <ref_mols>  (4416) 
A1209a,A0875a

>  <distance_score>  (4416) 
1.946772

>  <inspiration_score>  (4416) 
None

$$$$
TUWABAYSQIITAE-UHFFFAOYSA-N-P87-P87-P115-601507
     RDKit          3D

 21 23  0  0  0  0  0  0  0  0999 V2000
   14.0775   13.0498   27.8412 O   0  0  0  0  0  0  0  0  0  0  0  0
   13.5787   12.4181   26.9318 C   0  0  0  0  0  0  0  0  0  0  0  0
   12.3969   12.7983   26.0962 C   0  0  0  0  0  0  0  0  0  0  0  0
   12.4983   11.9575   24.7964 C   0  0  0  0  0  0  0  0  0  0  0  0
   12.3449   12.9856   23.6568 C   0  0  0  0  0  0  0  0  0  0  0  0
   10.9024   13.5914   23.6694 C   0  0  0  0  0  0  0  0  0  0  0  0
    9.8797   12.5595   23.5780 N   0  0  0  0  0  0  0  0  0  0  0  0
    8.5278   12.8262   23.5401 C   0  0  0  0  0  0  0  0  0  0  0  0
    7.9860   12.9963   22.4461 O   0  0  0  0  0  0  0  0  0  0  0  0
    7.6993   12.8038   24.7375 C   0  0  0  0  0  0  0  0  0  0  0  0
    7.9788   12.5704   26.0164 N   0  0  0  0  0  0  0  0  0  0  0  0
    6.7608   12.7047   26.6769 C   0  0  0  0  0  0  0  0  0  0  0  0
    6.4250   12.8624   28.5405 Br  0  0  0  0  0  0  0  0  0  0  0  0
    5.7484   12.9438   25.7997 C   0  0  0  0  0  0  0  0  0  0  0  0
    6.3422   12.9732   24.5835 N   0  0  0  0  0  0  0  0  0  0  0  0
   10.3099   11.1888   23.5242 C   0  0  0  0  0  0  0  0  0  0  0  0
   11.2694   10.9508   24.6842 C   0  0  0  0  0  0  0  0  0  0  0  0
   13.8469   11.1595   25.0570 C   0  0  1  0  0  0  0  0  0  0  0  0
   15.2188   11.6199   24.5519 C   0  0  0  0  0  0  0  0  0  0  0  0
   16.2190   11.0222   25.3938 O   0  0  0  0  0  0  0  0  0  0  0  0
   14.0054   11.1961   26.4896 N   0  0  0  0  0  0  0  0  0  0  0  0
  1  2  2  0
  2  3  1  0
  3  4  1  0
  4  5  1  0
  5  6  1  0
  6  7  1  0
  7  8  1  0
  8  9  2  0
  8 10  1  0
 10 11  2  0
 11 12  1  0
 12 13  1  0
 12 14  2  0
 14 15  1  0
  7 16  1  0
 16 17  1  0
  4 18  1  0
 18 19  1  6
 19 20  1  0
 18 21  1  0
 21  2  1  0
 17  4  1  0
 15 10  1  0
M  END
>  <energy_score>  (4417) 
-14.206707

>  <inchikey>  (4417) 
TUWABAYSQIITAE-UHFFFAOYSA-N

>  <smiles>  (4417) 
O=C1CC2(CCN(C(=O)c3nc(Br)c[nH]3)CC2)C(CO)N1

>  <ref_pdb>  (4417) 
A1778a

>  <alias>  (4417) 
TUWABAYSQIITAE-UHFFFAOYSA-N-P87-P87-P115-601507

>  <HIPPO Pose ID>  (4417) 
512974

>  <name>  (4417) 
TUWABAYSQIITAE-UHFFFAOYSA-N-P87-P87-P115-601507

>  <HIPPO Compound ID>  (4417) 
311410

>  <ref_mols>  (4417) 
A1209a,A0875a

>  <distance_score>  (4417) 
1.948981

>  <inspiration_score>  (4417) 
None

$$$$
PRNQCEXLANFOFT-UHFFFAOYSA-N-P87-P87-P115-601507
     RDKit          3D

 25 28  0  0  0  0  0  0  0  0999 V2000
   16.3835    9.3436   25.1819 O   0  0  0  0  0  0  0  0  0  0  0  0
   15.5446   10.1897   25.3786 C   0  0  0  0  0  0  0  0  0  0  0  0
   14.9244   11.1902   24.4456 C   0  0  0  0  0  0  0  0  0  0  0  0
   13.5234   11.4553   25.0897 C   0  0  0  0  0  0  0  0  0  0  0  0
   12.8051   12.6612   24.4836 C   0  0  0  0  0  0  0  0  0  0  0  0
   11.3916   12.8764   25.0414 C   0  0  0  0  0  0  0  0  0  0  0  0
   10.5019   11.8148   24.6001 N   0  0  0  0  0  0  0  0  0  0  0  0
    9.1503   12.0645   24.3038 C   0  0  0  0  0  0  0  0  0  0  0  0
    8.8358   12.3761   23.1563 O   0  0  0  0  0  0  0  0  0  0  0  0
    8.1445   11.9533   25.3583 C   0  0  0  0  0  0  0  0  0  0  0  0
    7.7542   12.9662   26.1100 N   0  0  0  0  0  0  0  0  0  0  0  0
    6.6272   12.5591   26.7971 C   0  0  0  0  0  0  0  0  0  0  0  0
    5.8062   13.2431   27.7196 C   0  0  0  0  0  0  0  0  0  0  0  0
    4.8243   12.5461   28.4206 C   0  0  0  0  0  0  0  0  0  0  0  0
    4.0128   13.1713   29.3208 O   0  0  0  0  0  0  0  0  0  0  0  0
    4.6478   11.1906   28.2370 C   0  0  0  0  0  0  0  0  0  0  0  0
    5.4028   10.5113   27.2797 C   0  0  0  0  0  0  0  0  0  0  0  0
    6.3732   11.2242   26.5485 C   0  0  0  0  0  0  0  0  0  0  0  0
    7.3084   10.8820   25.5870 N   0  0  0  0  0  0  0  0  0  0  0  0
   11.0146   10.4735   24.4617 C   0  0  0  0  0  0  0  0  0  0  0  0
   12.4922   10.2278   24.9055 C   0  0  0  0  0  0  0  0  0  0  0  0
   14.1262   11.5838   26.5312 C   0  0  2  0  0  0  0  0  0  0  0  0
   15.0679   12.7131   26.9596 C   0  0  0  0  0  0  0  0  0  0  0  0
   14.3306   13.6055   27.7962 O   0  0  0  0  0  0  0  0  0  0  0  0
   14.9448   10.4055   26.5844 N   0  0  0  0  0  0  0  0  0  0  0  0
  1  2  2  0
  2  3  1  0
  3  4  1  0
  4  5  1  0
  5  6  1  0
  6  7  1  0
  7  8  1  0
  8  9  2  0
  8 10  1  0
 10 11  2  0
 11 12  1  0
 12 13  2  0
 13 14  1  0
 14 15  1  0
 14 16  2  0
 16 17  1  0
 17 18  2  0
 18 19  1  0
  7 20  1  0
 20 21  1  0
  4 22  1  0
 22 23  1  6
 23 24  1  0
 22 25  1  0
 25  2  1  0
 21  4  1  0
 19 10  1  0
 18 12  1  0
M  END
>  <energy_score>  (4418) 
-16.253305

>  <inchikey>  (4418) 
PRNQCEXLANFOFT-UHFFFAOYSA-N

>  <smiles>  (4418) 
O=C1CC2(CCN(C(=O)c3nc4cc(O)ccc4[nH]3)CC2)C(CO)N1

>  <ref_pdb>  (4418) 
A1778a

>  <alias>  (4418) 
PRNQCEXLANFOFT-UHFFFAOYSA-N-P87-P87-P115-601507

>  <HIPPO Pose ID>  (4418) 
513008

>  <name>  (4418) 
PRNQCEXLANFOFT-UHFFFAOYSA-N-P87-P87-P115-601507

>  <HIPPO Compound ID>  (4418) 
311427

>  <ref_mols>  (4418) 
A1209a,A0875a

>  <distance_score>  (4418) 
1.680459

>  <inspiration_score>  (4418) 
None

$$$$
WQIGYGWQDNSUOM-UHFFFAOYSA-N-P87-P87-P115-601507
     RDKit          3D

 25 27  0  0  0  0  0  0  0  0999 V2000
    9.7039   10.3307   23.9818 C   0  0  0  0  0  0  0  0  0  0  0  0
    8.9969   11.2456   24.8320 N   0  0  0  0  0  0  0  0  0  0  0  0
    7.7713   10.9612   25.3707 C   0  0  0  0  0  0  0  0  0  0  0  0
    7.3097   12.1099   25.9561 C   0  0  0  0  0  0  0  0  0  0  0  0
    6.0515   12.3731   26.7305 C   0  0  0  0  0  0  0  0  0  0  0  0
    5.1608   13.1451   26.0629 F   0  0  0  0  0  0  0  0  0  0  0  0
    5.4134   11.2212   27.0718 F   0  0  0  0  0  0  0  0  0  0  0  0
    6.3126   13.0085   27.9081 F   0  0  0  0  0  0  0  0  0  0  0  0
    8.3017   13.0528   25.8292 N   0  0  0  0  0  0  0  0  0  0  0  0
    9.3215   12.5393   25.1586 C   0  0  0  0  0  0  0  0  0  0  0  0
   10.4871   13.3629   24.8185 C   0  0  0  0  0  0  0  0  0  0  0  0
   10.3808   14.4548   24.2632 O   0  0  0  0  0  0  0  0  0  0  0  0
   11.7691   12.9431   25.2057 N   0  0  0  0  0  0  0  0  0  0  0  0
   12.3519   13.2344   26.5003 C   0  0  0  0  0  0  0  0  0  0  0  0
   13.6788   12.5291   26.9281 C   0  0  0  0  0  0  0  0  0  0  0  0
   14.4219   11.7431   25.8845 C   0  0  0  0  0  0  0  0  0  0  0  0
   13.3602   11.1315   24.9606 C   0  0  0  0  0  0  0  0  0  0  0  0
   12.5193   12.1945   24.2642 C   0  0  0  0  0  0  0  0  0  0  0  0
   15.3904   12.5944   25.0940 C   0  0  0  0  0  0  0  0  0  0  0  0
   15.9808   11.4597   24.3611 C   0  0  0  0  0  0  0  0  0  0  0  0
   15.8731   11.2658   23.1708 O   0  0  0  0  0  0  0  0  0  0  0  0
   16.3499   10.5171   25.2705 N   0  0  0  0  0  0  0  0  0  0  0  0
   15.4701   10.6718   26.3700 C   0  0  1  0  0  0  0  0  0  0  0  0
   16.2203   10.9577   27.6520 C   0  0  0  0  0  0  0  0  0  0  0  0
   15.3630   10.7865   28.7722 O   0  0  0  0  0  0  0  0  0  0  0  0
  1  2  1  0
  2  3  1  0
  3  4  2  0
  4  5  1  0
  5  6  1  0
  5  7  1  0
  5  8  1  0
  4  9  1  0
  9 10  2  0
 10 11  1  0
 11 12  2  0
 11 13  1  0
 13 14  1  0
 14 15  1  0
 15 16  1  0
 16 17  1  0
 17 18  1  0
 16 19  1  0
 19 20  1  0
 20 21  2  0
 20 22  1  0
 22 23  1  0
 23 24  1  1
 24 25  1  0
 10  2  1  0
 18 13  1  0
 23 16  1  0
M  END
>  <energy_score>  (4419) 
-0.715312

>  <inchikey>  (4419) 
WQIGYGWQDNSUOM-UHFFFAOYSA-N

>  <smiles>  (4419) 
Cn1cc(C(F)(F)F)nc1C(=O)N1CCC2(CC1)CC(=O)NC2CO

>  <ref_pdb>  (4419) 
A1778a

>  <alias>  (4419) 
WQIGYGWQDNSUOM-UHFFFAOYSA-N-P87-P87-P115-601507

>  <HIPPO Pose ID>  (4419) 
513014

>  <name>  (4419) 
WQIGYGWQDNSUOM-UHFFFAOYSA-N-P87-P87-P115-601507

>  <HIPPO Compound ID>  (4419) 
311430

>  <ref_mols>  (4419) 
A1209a,A0875a

>  <distance_score>  (4419) 
1.808123

>  <inspiration_score>  (4419) 
None

$$$$
SQTHMIZLLCRPCO-UHFFFAOYSA-N-P255-P7-P255-601508
     RDKit          3D

 27 29  0  0  0  0  0  0  0  0999 V2000
   11.7348   15.1234   19.8921 C   0  0  0  0  0  0  0  0  0  0  0  0
   10.9850   15.7458   21.0590 C   0  0  2  0  0  0  0  0  0  0  0  0
   11.8106   15.7503   22.3285 C   0  0  0  0  0  0  0  0  0  0  0  0
   10.9038   16.2233   23.4475 C   0  0  0  0  0  0  0  0  0  0  0  0
    9.4396   15.9010   23.1048 C   0  0  0  0  0  0  0  0  0  0  0  0
    9.3138   14.4527   22.6902 N   0  0  0  0  0  0  0  0  0  0  0  0
    8.0979   13.8966   23.1982 C   0  0  0  0  0  0  0  0  0  0  0  0
    6.9998   13.8366   22.7069 O   0  0  0  0  0  0  0  0  0  0  0  0
    8.3914   13.2085   24.5575 C   0  0  0  0  0  0  0  0  0  0  0  0
    7.5716   13.6215   25.7158 N   0  0  0  0  0  0  0  0  0  0  0  0
    6.1337   13.7506   25.4358 C   0  0  0  0  0  0  0  0  0  0  0  0
    5.3233   14.0177   26.7246 C   0  0  0  0  0  0  0  0  0  0  0  0
    5.8088   15.1983   27.4869 N   0  0  0  0  0  0  0  0  0  0  0  0
    5.0420   15.2888   28.7583 C   0  0  0  0  0  0  0  0  0  0  0  0
    5.2499   16.6358   29.4882 C   0  0  0  0  0  0  0  0  0  0  0  0
    5.0268   16.7048   30.6628 O   0  0  0  0  0  0  0  0  0  0  0  0
    5.6502   17.6436   28.5510 N   0  0  0  0  0  0  0  0  0  0  0  0
    6.0008   19.0321   28.7444 C   0  0  1  0  0  0  0  0  0  0  0  0
    6.9499   19.2139   29.9368 C   0  0  0  0  0  0  0  0  0  0  0  0
    7.3701   20.6708   29.9042 C   0  0  0  0  0  0  0  0  0  0  0  0
    7.6415   21.0173   28.1820 S   0  0  0  0  0  0  0  0  0  0  0  0
    6.9842   22.2655   27.8613 O   0  0  0  0  0  0  0  0  0  0  0  0
    9.0487   20.7893   27.9114 O   0  0  0  0  0  0  0  0  0  0  0  0
    6.6984   19.6448   27.5315 C   0  0  0  0  0  0  0  0  0  0  0  0
    7.2598   15.0192   27.7444 C   0  0  0  0  0  0  0  0  0  0  0  0
    8.0534   14.8055   26.4304 C   0  0  0  0  0  0  0  0  0  0  0  0
    9.6394   15.0399   21.3362 C   0  0  0  0  0  0  0  0  0  0  0  0
  2  1  1  6
  2  3  1  0
  3  4  1  0
  4  5  1  0
  5  6  1  0
  6  7  1  0
  7  8  2  0
  7  9  1  0
  9 10  1  0
 10 11  1  0
 11 12  1  0
 12 13  1  0
 13 14  1  0
 14 15  1  0
 15 16  2  0
 15 17  1  0
 18 17  1  6
 18 19  1  0
 19 20  1  0
 20 21  1  0
 21 22  2  0
 21 23  2  0
 21 24  1  0
 13 25  1  0
 25 26  1  0
  6 27  1  0
 27  2  1  0
 26 10  1  0
 24 18  1  0
M  END
>  <energy_score>  (4420) 
-5.773265

>  <inchikey>  (4420) 
SQTHMIZLLCRPCO-UHFFFAOYSA-N

>  <smiles>  (4420) 
CC1CCCN(C(=O)CN2CCN(CC(=O)NC3CCS(=O)(=O)C3)CC2)C1

>  <ref_pdb>  (4420) 
A0875a

>  <alias>  (4420) 
SQTHMIZLLCRPCO-UHFFFAOYSA-N-P255-P7-P255-601508

>  <HIPPO Pose ID>  (4420) 
513257

>  <name>  (4420) 
SQTHMIZLLCRPCO-UHFFFAOYSA-N-P255-P7-P255-601508

>  <HIPPO Compound ID>  (4420) 
312210

>  <ref_mols>  (4420) 
A3982a,A0469a

>  <distance_score>  (4420) 
1.257088

>  <inspiration_score>  (4420) 
None

$$$$
DPZQXZKXUFIMQK-UHFFFAOYSA-N-P198-P128-P198-601508
     RDKit          3D

 23 26  0  0  0  0  0  0  0  0999 V2000
    7.5292   13.2612   22.0754 O   0  0  0  0  0  0  0  0  0  0  0  0
    7.9158   13.8526   23.0017 C   0  0  0  0  0  0  0  0  0  0  0  0
    7.6828   13.6131   24.5115 N   0  0  0  0  0  0  0  0  0  0  0  0
    7.0442   12.6037   25.1547 C   0  0  0  0  0  0  0  0  0  0  0  0
    6.9645   11.2539   24.7644 C   0  0  0  0  0  0  0  0  0  0  0  0
    6.2554   10.5206   25.6253 N   0  0  0  0  0  0  0  0  0  0  0  0
    5.8010   11.4337   26.5020 N   0  0  0  0  0  0  0  0  0  0  0  0
    4.9903   11.0197   27.6137 C   0  0  0  0  0  0  0  0  0  0  0  0
    3.6217   11.6364   27.6121 C   0  0  0  0  0  0  0  0  0  0  0  0
    3.6240   12.9499   27.2957 F   0  0  0  0  0  0  0  0  0  0  0  0
    2.7803   11.0136   26.7738 F   0  0  0  0  0  0  0  0  0  0  0  0
    3.0801   11.5426   28.8542 F   0  0  0  0  0  0  0  0  0  0  0  0
    6.3535   12.6765   26.3307 C   0  0  0  0  0  0  0  0  0  0  0  0
    8.9099   15.0371   22.8881 C   0  0  2  0  0  0  0  0  0  0  0  0
    8.8753   15.7351   21.5177 C   0  0  1  0  0  0  0  0  0  0  0  0
    9.8104   16.9301   21.4323 C   0  0  0  0  0  0  0  0  0  0  0  0
   11.2364   16.4674   21.7844 C   0  0  1  0  0  0  0  0  0  0  0  0
   11.2805   15.7259   23.1382 C   0  0  0  0  0  0  0  0  0  0  0  0
   10.3493   14.5258   23.1193 C   0  0  2  0  0  0  0  0  0  0  0  0
   10.8276   13.6465   21.9622 C   0  0  0  0  0  0  0  0  0  0  0  0
   10.7732   14.3687   20.6890 N   0  0  0  0  0  0  0  0  0  0  0  0
   11.6830   15.5017   20.6803 C   0  0  0  0  0  0  0  0  0  0  0  0
    9.4101   14.8214   20.4332 C   0  0  0  0  0  0  0  0  0  0  0  0
  1  2  2  0
  2  3  1  0
  3  4  1  0
  4  5  1  0
  5  6  2  0
  6  7  1  0
  7  8  1  0
  8  9  1  0
  9 10  1  0
  9 11  1  0
  9 12  1  0
  7 13  1  0
 14  2  1  6
 14 15  1  0
 15 16  1  1
 17 16  1  6
 17 18  1  0
 19 18  1  6
 19 20  1  0
 20 21  1  0
 21 22  1  0
 21 23  1  0
 13  4  2  0
 19 14  1  0
 23 15  1  0
 22 17  1  0
M  END
>  <energy_score>  (4421) 
-3.865571

>  <inchikey>  (4421) 
DPZQXZKXUFIMQK-UHFFFAOYSA-N

>  <smiles>  (4421) 
O=C(Nc1cnn(CC(F)(F)F)c1)C1C2CC3CC1CN(C3)C2

>  <ref_pdb>  (4421) 
A0875a

>  <alias>  (4421) 
DPZQXZKXUFIMQK-UHFFFAOYSA-N-P198-P128-P198-601508

>  <HIPPO Pose ID>  (4421) 
513263

>  <name>  (4421) 
DPZQXZKXUFIMQK-UHFFFAOYSA-N-P198-P128-P198-601508

>  <HIPPO Compound ID>  (4421) 
310876

>  <ref_mols>  (4421) 
A2304a,A3618a

>  <distance_score>  (4421) 
1.910431

>  <inspiration_score>  (4421) 
None

$$$$
YZIBLZXKEWCTFV-UHFFFAOYSA-N-P198-P128-P198-601508
     RDKit          3D

 24 27  0  0  0  0  0  0  0  0999 V2000
    6.0966   13.6821   27.2092 C   0  0  0  0  0  0  0  0  0  0  0  0
    6.3699   12.5615   26.2769 C   0  0  0  0  0  0  0  0  0  0  0  0
    7.1051   12.5342   25.1161 C   0  0  0  0  0  0  0  0  0  0  0  0
    7.7308   13.5640   24.4917 N   0  0  0  0  0  0  0  0  0  0  0  0
    7.9306   13.8521   22.9859 C   0  0  0  0  0  0  0  0  0  0  0  0
    7.5229   13.2911   22.0496 O   0  0  0  0  0  0  0  0  0  0  0  0
    8.9220   15.0371   22.8841 C   0  0  2  0  0  0  0  0  0  0  0  0
    8.8881   15.7366   21.5135 C   0  0  1  0  0  0  0  0  0  0  0  0
    9.8202   16.9330   21.4305 C   0  0  0  0  0  0  0  0  0  0  0  0
   11.2462   16.4719   21.7838 C   0  0  1  0  0  0  0  0  0  0  0  0
   11.2901   15.7291   23.1366 C   0  0  0  0  0  0  0  0  0  0  0  0
   10.3617   14.5275   23.1155 C   0  0  2  0  0  0  0  0  0  0  0  0
   10.8421   13.6499   21.9580 C   0  0  0  0  0  0  0  0  0  0  0  0
   10.7899   14.3734   20.6854 N   0  0  0  0  0  0  0  0  0  0  0  0
   11.6967   15.5083   20.6796 C   0  0  0  0  0  0  0  0  0  0  0  0
    9.4266   14.8245   20.4280 C   0  0  0  0  0  0  0  0  0  0  0  0
    7.0887   11.1994   24.6843 C   0  0  0  0  0  0  0  0  0  0  0  0
    6.3627   10.4270   25.4862 N   0  0  0  0  0  0  0  0  0  0  0  0
    5.8050   11.3037   26.3482 N   0  0  0  0  0  0  0  0  0  0  0  0
    4.8047   10.7743   27.2362 C   0  0  0  0  0  0  0  0  0  0  0  0
    3.6376   11.6736   27.5217 C   0  0  0  0  0  0  0  0  0  0  0  0
    3.2122   12.3848   26.4595 F   0  0  0  0  0  0  0  0  0  0  0  0
    2.5881   10.9382   27.9555 F   0  0  0  0  0  0  0  0  0  0  0  0
    3.9198   12.5495   28.5155 F   0  0  0  0  0  0  0  0  0  0  0  0
  1  2  1  0
  2  3  2  0
  3  4  1  0
  4  5  1  0
  5  6  2  0
  7  5  1  6
  7  8  1  0
  8  9  1  1
 10  9  1  6
 10 11  1  0
 12 11  1  6
 12 13  1  0
 13 14  1  0
 14 15  1  0
 14 16  1  0
  3 17  1  0
 17 18  2  0
 18 19  1  0
 19 20  1  0
 20 21  1  0
 21 22  1  0
 21 23  1  0
 21 24  1  0
 19  2  1  0
 12  7  1  0
 16  8  1  0
 15 10  1  0
M  END
>  <energy_score>  (4422) 
-25.100298

>  <inchikey>  (4422) 
YZIBLZXKEWCTFV-UHFFFAOYSA-N

>  <smiles>  (4422) 
Cc1c(NC(=O)C2C3CC4CC2CN(C4)C3)cnn1CC(F)(F)F

>  <ref_pdb>  (4422) 
A0875a

>  <alias>  (4422) 
YZIBLZXKEWCTFV-UHFFFAOYSA-N-P198-P128-P198-601508

>  <HIPPO Pose ID>  (4422) 
513269

>  <name>  (4422) 
YZIBLZXKEWCTFV-UHFFFAOYSA-N-P198-P128-P198-601508

>  <HIPPO Compound ID>  (4422) 
310879

>  <ref_mols>  (4422) 
A2304a,A3618a

>  <distance_score>  (4422) 
1.883318

>  <inspiration_score>  (4422) 
None

$$$$
FUFLWJDFQZLSMX-UHFFFAOYSA-N-P198-P128-P198-601508
     RDKit          3D

 26 29  0  0  0  0  0  0  0  0999 V2000
    7.8699   14.8775   24.4877 O   0  0  0  0  0  0  0  0  0  0  0  0
    8.5948   14.0392   24.1186 C   0  0  0  0  0  0  0  0  0  0  0  0
    8.4647   12.4913   24.1910 N   0  0  0  0  0  0  0  0  0  0  0  0
    7.5205   11.7125   24.7798 C   0  0  0  0  0  0  0  0  0  0  0  0
    7.4963   10.3128   24.7975 C   0  0  0  0  0  0  0  0  0  0  0  0
    6.4386    9.8465   25.4556 N   0  0  0  0  0  0  0  0  0  0  0  0
    5.7979   10.9562   25.8819 N   0  0  0  0  0  0  0  0  0  0  0  0
    4.6253   10.7467   26.6887 C   0  0  0  0  0  0  0  0  0  0  0  0
    4.1110   11.8693   27.5550 C   0  0  0  0  0  0  0  0  0  0  0  0
    3.4768   11.2837   28.6209 F   0  0  0  0  0  0  0  0  0  0  0  0
    5.1465   12.5662   28.0984 F   0  0  0  0  0  0  0  0  0  0  0  0
    3.1185   12.7818   26.8501 C   0  0  0  0  0  0  0  0  0  0  0  0
    2.6250   13.7314   27.6785 F   0  0  0  0  0  0  0  0  0  0  0  0
    3.6518   13.4098   25.7825 F   0  0  0  0  0  0  0  0  0  0  0  0
    2.0454   12.0811   26.4013 F   0  0  0  0  0  0  0  0  0  0  0  0
    6.3990   12.1064   25.4664 C   0  0  0  0  0  0  0  0  0  0  0  0
    9.9633   14.3290   23.4643 C   0  0  2  0  0  0  0  0  0  0  0  0
   10.1361   15.8225   23.1140 C   0  0  1  0  0  0  0  0  0  0  0  0
   11.5790   16.0493   22.6600 C   0  0  0  0  0  0  0  0  0  0  0  0
   11.8738   15.2905   21.3825 C   0  0  1  0  0  0  0  0  0  0  0  0
   11.7152   13.8284   21.7693 C   0  0  0  0  0  0  0  0  0  0  0  0
   10.2681   13.5603   22.1800 C   0  0  2  0  0  0  0  0  0  0  0  0
    9.3252   14.0758   21.0991 C   0  0  0  0  0  0  0  0  0  0  0  0
    9.4980   15.4695   20.7494 N   0  0  0  0  0  0  0  0  0  0  0  0
   10.8748   15.6546   20.2762 C   0  0  0  0  0  0  0  0  0  0  0  0
    9.2351   16.2795   21.9401 C   0  0  0  0  0  0  0  0  0  0  0  0
  1  2  2  0
  2  3  1  0
  3  4  1  0
  4  5  1  0
  5  6  2  0
  6  7  1  0
  7  8  1  0
  8  9  1  0
  9 10  1  0
  9 11  1  0
  9 12  1  0
 12 13  1  0
 12 14  1  0
 12 15  1  0
  7 16  1  0
 17  2  1  6
 17 18  1  0
 18 19  1  6
 20 19  1  1
 20 21  1  0
 22 21  1  6
 22 23  1  0
 23 24  1  0
 24 25  1  0
 24 26  1  0
 16  4  2  0
 22 17  1  0
 26 18  1  0
 25 20  1  0
M  END
>  <energy_score>  (4423) 
-24.524412

>  <inchikey>  (4423) 
FUFLWJDFQZLSMX-UHFFFAOYSA-N

>  <smiles>  (4423) 
O=C(Nc1cnn(CC(F)(F)C(F)(F)F)c1)C1C2CC3CC1CN(C3)C2

>  <ref_pdb>  (4423) 
A0875a

>  <alias>  (4423) 
FUFLWJDFQZLSMX-UHFFFAOYSA-N-P198-P128-P198-601508

>  <HIPPO Pose ID>  (4423) 
513299

>  <name>  (4423) 
FUFLWJDFQZLSMX-UHFFFAOYSA-N-P198-P128-P198-601508

>  <HIPPO Compound ID>  (4423) 
310894

>  <ref_mols>  (4423) 
A2304a,A3618a

>  <distance_score>  (4423) 
1.510587

>  <inspiration_score>  (4423) 
None

$$$$
NQCOFXUJQNDTLK-UHFFFAOYSA-N-P198-P128-P198-601508
     RDKit          3D

 27 29  0  0  0  0  0  0  0  0999 V2000
    7.1918   10.1018   25.9995 O   0  0  0  0  0  0  0  0  0  0  0  0
    7.0374   11.0340   25.2684 C   0  0  0  0  0  0  0  0  0  0  0  0
    8.1392   11.3203   24.2611 C   0  0  0  0  0  0  0  0  0  0  0  0
    8.6968   12.7407   24.3062 C   0  0  0  0  0  0  0  0  0  0  0  0
    8.1570   13.5353   23.1263 C   0  0  0  0  0  0  0  0  0  0  0  0
    7.0665   13.2828   22.6855 O   0  0  0  0  0  0  0  0  0  0  0  0
    9.1170   14.4995   22.7203 N   0  0  0  0  0  0  0  0  0  0  0  0
   10.0576   13.8976   21.7038 C   0  0  0  0  0  0  0  0  0  0  0  0
   11.4949   14.3761   21.8449 C   0  0  0  0  0  0  0  0  0  0  0  0
   11.5077   15.8784   21.9236 C   0  0  0  0  0  0  0  0  0  0  0  0
   12.6642   16.3988   21.3068 O   0  0  0  0  0  0  0  0  0  0  0  0
   10.2725   16.3861   21.2225 C   0  0  0  0  0  0  0  0  0  0  0  0
    9.0371   15.5973   21.6762 C   0  0  0  0  0  0  0  0  0  0  0  0
    6.0054   12.0123   25.2141 N   0  0  0  0  0  0  0  0  0  0  0  0
    4.9387   12.2307   26.0304 C   0  0  0  0  0  0  0  0  0  0  0  0
    4.4687   11.4571   27.1106 C   0  0  0  0  0  0  0  0  0  0  0  0
    3.4169   12.0235   27.7124 N   0  0  0  0  0  0  0  0  0  0  0  0
    3.1688   13.1103   26.9578 N   0  0  0  0  0  0  0  0  0  0  0  0
    2.0395   13.9371   27.2890 C   0  0  0  0  0  0  0  0  0  0  0  0
    0.7371   13.2715   26.9471 C   0  0  0  0  0  0  0  0  0  0  0  0
   -0.2683   14.1832   27.0430 F   0  0  0  0  0  0  0  0  0  0  0  0
    0.6938   12.8037   25.6770 F   0  0  0  0  0  0  0  0  0  0  0  0
    0.4071   12.2597   27.7740 F   0  0  0  0  0  0  0  0  0  0  0  0
    4.0988   13.3132   25.9772 C   0  0  0  0  0  0  0  0  0  0  0  0
    4.1993   14.4881   24.9690 C   0  0  0  0  0  0  0  0  0  0  0  0
    5.4946   15.2595   24.8864 C   0  0  0  0  0  0  0  0  0  0  0  0
    4.2775   15.9072   25.4696 C   0  0  0  0  0  0  0  0  0  0  0  0
  1  2  2  0
  2  3  1  0
  3  4  1  0
  4  5  1  0
  5  6  2  0
  5  7  1  0
  7  8  1  0
  8  9  1  0
  9 10  1  0
 10 11  1  0
 10 12  1  0
 12 13  1  0
  2 14  1  0
 14 15  1  0
 15 16  1  0
 16 17  2  0
 17 18  1  0
 18 19  1  0
 19 20  1  0
 20 21  1  0
 20 22  1  0
 20 23  1  0
 18 24  1  0
 24 25  1  0
 25 26  1  0
 26 27  1  0
 13  7  1  0
 24 15  2  0
 27 25  1  0
M  END
>  <energy_score>  (4424) 
-5.677098

>  <inchikey>  (4424) 
NQCOFXUJQNDTLK-UHFFFAOYSA-N

>  <smiles>  (4424) 
O=C(CCC(=O)N1CCC(O)CC1)Nc1cnn(CC(F)(F)F)c1C1CC1

>  <ref_pdb>  (4424) 
A0875a

>  <alias>  (4424) 
NQCOFXUJQNDTLK-UHFFFAOYSA-N-P198-P128-P198-601508

>  <HIPPO Pose ID>  (4424) 
513307

>  <name>  (4424) 
NQCOFXUJQNDTLK-UHFFFAOYSA-N-P198-P128-P198-601508

>  <HIPPO Compound ID>  (4424) 
310898

>  <ref_mols>  (4424) 
A2304a,A3618a

>  <distance_score>  (4424) 
1.982191

>  <inspiration_score>  (4424) 
None

$$$$
RRRLDDYBWRXELM-UHFFFAOYSA-N-P106-P106-P296-601508
     RDKit          3D

 19 22  0  0  0  0  0  0  0  0999 V2000
   15.8077   12.8206   27.3256 C   0  0  0  0  0  0  0  0  0  0  0  0
   16.5245   11.5081   27.1090 C   0  0  0  0  0  0  0  0  0  0  0  0
   15.7708   10.9559   25.9181 C   0  0  0  0  0  0  0  0  0  0  0  0
   14.3432   11.3248   26.1448 N   0  0  0  0  0  0  0  0  0  0  0  0
   13.6906   11.4876   24.8470 C   0  0  1  0  0  0  0  0  0  0  0  0
   12.4083   10.5505   24.8290 C   0  0  0  0  0  0  0  0  0  0  0  0
   11.5484   11.8161   24.9153 C   0  0  2  0  0  0  0  0  0  0  0  0
   10.4972   11.7729   23.9665 N   0  0  0  0  0  0  0  0  0  0  0  0
    9.2854   12.2214   24.3443 C   0  0  0  0  0  0  0  0  0  0  0  0
    8.8537   12.2983   25.5843 N   0  0  0  0  0  0  0  0  0  0  0  0
    7.5613   12.8020   25.5678 C   0  0  0  0  0  0  0  0  0  0  0  0
    6.8164   13.0580   26.8367 C   0  0  0  0  0  0  0  0  0  0  0  0
    6.0131   11.9629   27.4399 C   0  0  0  0  0  0  0  0  0  0  0  0
    5.6618   10.6855   26.7341 C   0  0  0  0  0  0  0  0  0  0  0  0
    4.6552   11.7870   26.8543 C   0  0  0  0  0  0  0  0  0  0  0  0
    7.0348   13.1758   24.4063 N   0  0  0  0  0  0  0  0  0  0  0  0
    8.1794   12.9208   23.2530 S   0  0  0  0  0  0  0  0  0  0  0  0
   12.7521   12.6740   24.5616 C   0  0  0  0  0  0  0  0  0  0  0  0
   14.3584   12.4303   27.1061 C   0  0  0  0  0  0  0  0  0  0  0  0
  1  2  1  0
  2  3  1  0
  3  4  1  0
  5  4  1  1
  5  6  1  0
  6  7  1  0
  7  8  1  6
  8  9  1  0
  9 10  2  0
 10 11  1  0
 11 12  1  0
 12 13  1  0
 13 14  1  0
 14 15  1  0
 11 16  2  0
 16 17  1  0
  7 18  1  0
  4 19  1  0
 19  1  1  0
 18  5  1  0
 17  9  1  0
 15 13  1  0
M  END
>  <energy_score>  (4425) 
-60.596901

>  <inchikey>  (4425) 
RRRLDDYBWRXELM-UHFFFAOYSA-N

>  <smiles>  (4425) 
C1CCN(C2CC(Nc3nc(CC4CC4)ns3)C2)C1

>  <ref_pdb>  (4425) 
A0875a

>  <alias>  (4425) 
RRRLDDYBWRXELM-UHFFFAOYSA-N-P106-P106-P296-601508

>  <HIPPO Pose ID>  (4425) 
513554

>  <name>  (4425) 
RRRLDDYBWRXELM-UHFFFAOYSA-N-P106-P106-P296-601508

>  <HIPPO Compound ID>  (4425) 
289922

>  <ref_mols>  (4425) 
A4311a,A1140a

>  <distance_score>  (4425) 
1.829063

>  <inspiration_score>  (4425) 
None

$$$$
OZAZPXQSXICTGU-UHFFFAOYSA-N-P106-P106-P296-601508
     RDKit          3D

 20 22  0  0  0  0  0  0  0  0999 V2000
   10.1751   13.9015   21.4957 C   0  0  0  0  0  0  0  0  0  0  0  0
    9.5038   14.7386   22.5853 C   0  0  0  0  0  0  0  0  0  0  0  0
   10.4617   14.8501   23.7520 C   0  0  0  0  0  0  0  0  0  0  0  0
    9.2930   16.1409   21.9603 C   0  0  0  0  0  0  0  0  0  0  0  0
    8.0958   14.1763   22.9607 C   0  0  0  0  0  0  0  0  0  0  0  0
    8.0307   12.9648   23.8090 C   0  0  0  0  0  0  0  0  0  0  0  0
    7.0544   12.6934   24.6846 N   0  0  0  0  0  0  0  0  0  0  0  0
    7.4528   11.1939   25.3453 S   0  0  0  0  0  0  0  0  0  0  0  0
    8.9916   11.2104   24.6016 C   0  0  0  0  0  0  0  0  0  0  0  0
   10.1119   10.5839   24.9828 N   0  0  0  0  0  0  0  0  0  0  0  0
   11.3288   11.0510   24.3883 C   0  0  2  0  0  0  0  0  0  0  0  0
   12.4786   10.1453   24.7646 C   0  0  0  0  0  0  0  0  0  0  0  0
   13.3963   11.4171   24.9323 C   0  0  2  0  0  0  0  0  0  0  0  0
   14.2254   11.2777   26.1239 N   0  0  0  0  0  0  0  0  0  0  0  0
   15.5633   10.7431   25.7467 C   0  0  0  0  0  0  0  0  0  0  0  0
   16.4707   11.1419   26.9070 C   0  0  0  0  0  0  0  0  0  0  0  0
   15.7176   12.2471   27.6286 C   0  0  0  0  0  0  0  0  0  0  0  0
   14.5893   12.5895   26.6778 C   0  0  0  0  0  0  0  0  0  0  0  0
   12.0912   12.2167   25.0914 C   0  0  0  0  0  0  0  0  0  0  0  0
    9.0204   12.0626   23.6233 N   0  0  0  0  0  0  0  0  0  0  0  0
  1  2  1  0
  2  3  1  0
  2  4  1  0
  2  5  1  0
  5  6  1  0
  6  7  2  0
  7  8  1  0
  8  9  1  0
  9 10  1  0
 11 10  1  1
 11 12  1  0
 12 13  1  0
 13 14  1  1
 14 15  1  0
 15 16  1  0
 16 17  1  0
 17 18  1  0
 13 19  1  0
  9 20  2  0
 20  6  1  0
 19 11  1  0
 18 14  1  0
M  END
>  <energy_score>  (4426) 
-38.564094

>  <inchikey>  (4426) 
OZAZPXQSXICTGU-UHFFFAOYSA-N

>  <smiles>  (4426) 
CC(C)(C)Cc1nsc(NC2CC(N3CCCC3)C2)n1

>  <ref_pdb>  (4426) 
A0875a

>  <alias>  (4426) 
OZAZPXQSXICTGU-UHFFFAOYSA-N-P106-P106-P296-601508

>  <HIPPO Pose ID>  (4426) 
513556

>  <name>  (4426) 
OZAZPXQSXICTGU-UHFFFAOYSA-N-P106-P106-P296-601508

>  <HIPPO Compound ID>  (4426) 
289923

>  <ref_mols>  (4426) 
A4311a,A1140a

>  <distance_score>  (4426) 
1.733633

>  <inspiration_score>  (4426) 
None

$$$$
IDOMHXRDGLVGBU-UHFFFAOYSA-N-P106-P106-P296-601508
     RDKit          3D

 20 22  0  0  0  0  0  0  0  0999 V2000
   10.6695   14.1651   26.2090 N   0  0  0  0  0  0  0  0  0  0  0  0
   10.4742   13.4138   25.3447 C   0  0  0  0  0  0  0  0  0  0  0  0
   10.3546   12.5372   24.1722 C   0  0  2  0  0  0  0  0  0  0  0  0
   10.2718   13.3573   22.9058 C   0  0  0  0  0  0  0  0  0  0  0  0
    8.9751   14.1152   22.6309 C   0  0  0  0  0  0  0  0  0  0  0  0
    9.0400   15.1166   21.5515 N   0  0  0  0  0  0  0  0  0  0  0  0
    9.5740   16.4097   21.9638 C   0  0  0  0  0  0  0  0  0  0  0  0
   11.0651   16.3744   21.6536 C   0  0  0  0  0  0  0  0  0  0  0  0
   11.2321   15.3692   20.5453 C   0  0  0  0  0  0  0  0  0  0  0  0
    9.8533   14.7624   20.3944 C   0  0  0  0  0  0  0  0  0  0  0  0
    9.4049   11.4563   24.1874 N   0  0  0  0  0  0  0  0  0  0  0  0
    8.2416   11.5586   24.8305 C   0  0  0  0  0  0  0  0  0  0  0  0
    7.5787   12.6304   25.1737 N   0  0  0  0  0  0  0  0  0  0  0  0
    6.3891   12.2310   25.7800 C   0  0  0  0  0  0  0  0  0  0  0  0
    5.3130   13.1988   26.0742 C   0  0  0  0  0  0  0  0  0  0  0  0
    5.2862   13.8641   27.4211 C   0  0  0  0  0  0  0  0  0  0  0  0
    5.2415   13.0246   28.6720 C   0  0  0  0  0  0  0  0  0  0  0  0
    6.4438   13.8796   28.3906 C   0  0  0  0  0  0  0  0  0  0  0  0
    6.2002   10.9437   26.0561 N   0  0  0  0  0  0  0  0  0  0  0  0
    7.4501   10.1735   25.3188 S   0  0  0  0  0  0  0  0  0  0  0  0
  1  2  3  0
  3  2  1  1
  3  4  1  0
  4  5  1  0
  5  6  1  0
  6  7  1  0
  7  8  1  0
  8  9  1  0
  9 10  1  0
  3 11  1  0
 11 12  1  0
 12 13  2  0
 13 14  1  0
 14 15  1  0
 15 16  1  0
 16 17  1  0
 17 18  1  0
 14 19  2  0
 19 20  1  0
 10  6  1  0
 20 12  1  0
 18 16  1  0
M  END
>  <energy_score>  (4427) 
-41.947196

>  <inchikey>  (4427) 
IDOMHXRDGLVGBU-UHFFFAOYSA-N

>  <smiles>  (4427) 
N#CC(CCN1CCCC1)Nc1nc(CC2CC2)ns1

>  <ref_pdb>  (4427) 
A0875a

>  <alias>  (4427) 
IDOMHXRDGLVGBU-UHFFFAOYSA-N-P106-P106-P296-601508

>  <HIPPO Pose ID>  (4427) 
513558

>  <name>  (4427) 
IDOMHXRDGLVGBU-UHFFFAOYSA-N-P106-P106-P296-601508

>  <HIPPO Compound ID>  (4427) 
289924

>  <ref_mols>  (4427) 
A4311a,A1140a

>  <distance_score>  (4427) 
1.83896

>  <inspiration_score>  (4427) 
None

$$$$
IDOMHXRDGLVGBU-UHFFFAOYSA-N-P296-P106-P296-601508
     RDKit          3D

 20 22  0  0  0  0  0  0  0  0999 V2000
   11.5108   12.9745   25.1079 N   0  0  0  0  0  0  0  0  0  0  0  0
   10.5707   12.6144   24.5253 C   0  0  0  0  0  0  0  0  0  0  0  0
    9.4115   12.1620   23.7209 C   0  0  2  0  0  0  0  0  0  0  0  0
    8.3927   13.3039   23.5176 C   0  0  0  0  0  0  0  0  0  0  0  0
    8.6802   14.1290   22.2633 C   0  0  0  0  0  0  0  0  0  0  0  0
    9.1244   15.5142   22.4614 N   0  0  0  0  0  0  0  0  0  0  0  0
   10.3549   15.6692   23.2424 C   0  0  0  0  0  0  0  0  0  0  0  0
   11.4817   15.2485   22.3203 C   0  0  0  0  0  0  0  0  0  0  0  0
   10.9602   15.5705   20.9297 C   0  0  0  0  0  0  0  0  0  0  0  0
    9.5287   16.0593   21.1423 C   0  0  0  0  0  0  0  0  0  0  0  0
    8.8389   10.9023   24.2113 N   0  0  0  0  0  0  0  0  0  0  0  0
    7.8699   10.8928   25.1360 C   0  0  0  0  0  0  0  0  0  0  0  0
    7.3093   11.9672   25.6075 N   0  0  0  0  0  0  0  0  0  0  0  0
    6.2053   11.6354   26.3499 C   0  0  0  0  0  0  0  0  0  0  0  0
    5.2026   12.6906   26.6239 C   0  0  0  0  0  0  0  0  0  0  0  0
    5.6235   13.9903   27.2498 C   0  0  0  0  0  0  0  0  0  0  0  0
    6.3338   13.9836   28.5748 C   0  0  0  0  0  0  0  0  0  0  0  0
    7.0393   14.5082   27.3530 C   0  0  0  0  0  0  0  0  0  0  0  0
    5.9972   10.3555   26.6614 N   0  0  0  0  0  0  0  0  0  0  0  0
    7.1257    9.5038   25.7795 S   0  0  0  0  0  0  0  0  0  0  0  0
  1  2  3  0
  3  2  1  1
  3  4  1  0
  4  5  1  0
  5  6  1  0
  6  7  1  0
  7  8  1  0
  8  9  1  0
  9 10  1  0
  3 11  1  0
 11 12  1  0
 12 13  2  0
 13 14  1  0
 14 15  1  0
 15 16  1  0
 16 17  1  0
 17 18  1  0
 14 19  2  0
 19 20  1  0
 10  6  1  0
 20 12  1  0
 18 16  1  0
M  END
>  <energy_score>  (4428) 
-39.056888

>  <inchikey>  (4428) 
IDOMHXRDGLVGBU-UHFFFAOYSA-N

>  <smiles>  (4428) 
N#CC(CCN1CCCC1)Nc1nc(CC2CC2)ns1

>  <ref_pdb>  (4428) 
A0875a

>  <alias>  (4428) 
IDOMHXRDGLVGBU-UHFFFAOYSA-N-P296-P106-P296-601508

>  <HIPPO Pose ID>  (4428) 
513559

>  <name>  (4428) 
IDOMHXRDGLVGBU-UHFFFAOYSA-N-P296-P106-P296-601508

>  <HIPPO Compound ID>  (4428) 
289924

>  <ref_mols>  (4428) 
A4311a,A1140a

>  <distance_score>  (4428) 
1.290568

>  <inspiration_score>  (4428) 
None

$$$$
YTOJLNPWANFHBH-UHFFFAOYSA-N-P296-P106-P296-601508
     RDKit          3D

 22 25  0  0  0  0  0  0  0  0999 V2000
    9.6197   12.7474   25.7219 O   0  0  0  0  0  0  0  0  0  0  0  0
    9.2610   11.7761   25.0747 C   0  0  0  0  0  0  0  0  0  0  0  0
    9.8353   11.3927   23.7568 C   0  0  0  0  0  0  0  0  0  0  0  0
    9.7680    9.8707   23.8200 C   0  0  0  0  0  0  0  0  0  0  0  0
    8.4668    9.6691   24.5048 C   0  0  0  0  0  0  0  0  0  0  0  0
    8.3205   10.7646   25.4288 N   0  0  0  0  0  0  0  0  0  0  0  0
    6.9416   11.1546   25.6873 C   0  0  1  0  0  0  0  0  0  0  0  0
    6.5687   11.4591   27.1288 C   0  0  0  0  0  0  0  0  0  0  0  0
    5.4056   12.4367   27.2284 C   0  0  0  0  0  0  0  0  0  0  0  0
    5.7306   13.7773   26.5470 C   0  0  0  0  0  0  0  0  0  0  0  0
    6.7579   13.6394   25.4107 C   0  0  2  0  0  0  0  0  0  0  0  0
    6.5554   14.6238   24.3843 N   0  0  0  0  0  0  0  0  0  0  0  0
    7.5278   14.9329   23.5046 C   0  0  0  0  0  0  0  0  0  0  0  0
    8.6317   14.2822   23.2024 N   0  0  0  0  0  0  0  0  0  0  0  0
    9.4342   15.1333   22.4266 C   0  0  0  0  0  0  0  0  0  0  0  0
   10.7098   14.6835   21.7758 C   0  0  0  0  0  0  0  0  0  0  0  0
   11.1105   15.4756   20.5558 C   0  0  0  0  0  0  0  0  0  0  0  0
   11.1082   14.9253   19.1478 C   0  0  0  0  0  0  0  0  0  0  0  0
   10.0564   15.8970   19.5496 C   0  0  0  0  0  0  0  0  0  0  0  0
    8.9818   16.3608   22.1712 N   0  0  0  0  0  0  0  0  0  0  0  0
    7.3865   16.3663   22.5839 S   0  0  0  0  0  0  0  0  0  0  0  0
    6.5580   12.2903   24.7662 C   0  0  0  0  0  0  0  0  0  0  0  0
  1  2  2  0
  2  3  1  0
  3  4  1  0
  4  5  1  0
  5  6  1  0
  7  6  1  1
  7  8  1  0
  8  9  1  0
  9 10  1  0
 10 11  1  0
 11 12  1  6
 12 13  1  0
 13 14  2  0
 14 15  1  0
 15 16  1  0
 16 17  1  0
 17 18  1  0
 18 19  1  0
 15 20  2  0
 20 21  1  0
 11 22  1  0
  6  2  1  0
 22  7  1  0
 21 13  1  0
 19 17  1  0
M  END
>  <energy_score>  (4429) 
-23.69953

>  <inchikey>  (4429) 
YTOJLNPWANFHBH-UHFFFAOYSA-N

>  <smiles>  (4429) 
O=C1CCCN1C1CCCC(Nc2nc(CC3CC3)ns2)C1

>  <ref_pdb>  (4429) 
A0875a

>  <alias>  (4429) 
YTOJLNPWANFHBH-UHFFFAOYSA-N-P296-P106-P296-601508

>  <HIPPO Pose ID>  (4429) 
513561

>  <name>  (4429) 
YTOJLNPWANFHBH-UHFFFAOYSA-N-P296-P106-P296-601508

>  <HIPPO Compound ID>  (4429) 
289925

>  <ref_mols>  (4429) 
A4311a,A1140a

>  <distance_score>  (4429) 
1.84439

>  <inspiration_score>  (4429) 
None

$$$$
NADHDOIVPLWKIN-UHFFFAOYSA-N-P328-P87-P328-601508
     RDKit          3D

 24 26  0  0  0  0  0  0  0  0999 V2000
   12.0815   15.2327   19.9656 C   0  0  0  0  0  0  0  0  0  0  0  0
   11.0392   15.7875   20.9217 C   0  0  0  0  0  0  0  0  0  0  0  0
   11.3708   15.4038   22.3562 C   0  0  0  0  0  0  0  0  0  0  0  0
   10.2193   15.6834   23.3208 C   0  0  0  0  0  0  0  0  0  0  0  0
    8.9160   15.1572   22.8757 N   0  0  0  0  0  0  0  0  0  0  0  0
    7.8440   15.5269   23.8116 C   0  0  0  0  0  0  0  0  0  0  0  0
    7.7342   14.5405   24.9869 C   0  0  1  0  0  0  0  0  0  0  0  0
    7.4825   15.2064   26.2239 O   0  0  0  0  0  0  0  0  0  0  0  0
    6.6572   13.4596   24.7384 C   0  0  0  0  0  0  0  0  0  0  0  0
    7.3700   12.2251   24.6228 N   0  0  0  0  0  0  0  0  0  0  0  0
    7.0261   10.8190   25.1450 C   0  0  0  0  0  0  0  0  0  0  0  0
    6.0718   10.4269   25.6851 O   0  0  0  0  0  0  0  0  0  0  0  0
    8.2632    9.9300   24.9358 C   0  0  1  0  0  0  0  0  0  0  0  0
    8.6668    9.3386   23.6334 C   0  0  0  0  0  0  0  0  0  0  0  0
    9.1812   10.4324   22.7546 C   0  0  0  0  0  0  0  0  0  0  0  0
   10.0421   11.5286   23.2733 C   0  0  0  0  0  0  0  0  0  0  0  0
   10.4049   12.4344   22.5396 O   0  0  0  0  0  0  0  0  0  0  0  0
   10.2811   11.5062   24.6137 N   0  0  0  0  0  0  0  0  0  0  0  0
   11.1632   12.4507   25.2718 C   0  0  0  0  0  0  0  0  0  0  0  0
   12.5899   12.0809   25.6436 C   0  0  0  0  0  0  0  0  0  0  0  0
   12.3307   13.1378   24.6332 C   0  0  0  0  0  0  0  0  0  0  0  0
    9.5068   10.6235   25.4491 C   0  0  0  0  0  0  0  0  0  0  0  0
    8.6045   15.6681   21.5336 C   0  0  0  0  0  0  0  0  0  0  0  0
    9.6717   15.2495   20.5368 C   0  0  0  0  0  0  0  0  0  0  0  0
  1  2  1  0
  2  3  1  0
  3  4  1  0
  4  5  1  0
  5  6  1  0
  6  7  1  0
  7  8  1  1
  7  9  1  0
  9 10  1  0
 10 11  1  0
 11 12  2  0
 13 11  1  6
 13 14  1  0
 14 15  1  0
 15 16  1  0
 16 17  2  0
 16 18  1  0
 18 19  1  0
 19 20  1  0
 20 21  1  0
 18 22  1  0
  5 23  1  0
 23 24  1  0
 24  2  1  0
 22 13  1  0
 21 19  1  0
M  END
>  <energy_score>  (4430) 
-4.402455

>  <inchikey>  (4430) 
NADHDOIVPLWKIN-UHFFFAOYSA-N

>  <smiles>  (4430) 
CC1CCN(CC(O)CNC(=O)C2CCC(=O)N(C3CC3)C2)CC1

>  <ref_pdb>  (4430) 
A0875a

>  <alias>  (4430) 
NADHDOIVPLWKIN-UHFFFAOYSA-N-P328-P87-P328-601508

>  <HIPPO Pose ID>  (4430) 
513901

>  <name>  (4430) 
NADHDOIVPLWKIN-UHFFFAOYSA-N-P328-P87-P328-601508

>  <HIPPO Compound ID>  (4430) 
313046

>  <ref_mols>  (4430) 
A4374a,A0875a

>  <distance_score>  (4430) 
1.981731

>  <inspiration_score>  (4430) 
None

$$$$
CWONUZCUTWZKGJ-UHFFFAOYSA-N-P38-P38-P51-601508
     RDKit          3D

 24 27  0  0  0  0  0  0  0  0999 V2000
   14.2712    8.5622   -1.8403 C   0  0  0  0  0  0  0  0  0  0  0  0
   13.9813    9.7695   -1.1449 O   0  0  0  0  0  0  0  0  0  0  0  0
   15.0444   10.4548   -0.6283 C   0  0  0  0  0  0  0  0  0  0  0  0
   16.3872   10.1498   -0.8057 C   0  0  0  0  0  0  0  0  0  0  0  0
   17.3738   10.9422   -0.2073 C   0  0  0  0  0  0  0  0  0  0  0  0
   17.0454   12.0729    0.5665 C   0  0  0  0  0  0  0  0  0  0  0  0
   15.6845   12.3472    0.7770 C   0  0  0  0  0  0  0  0  0  0  0  0
   14.7029   11.5538    0.1576 C   0  0  0  0  0  0  0  0  0  0  0  0
   15.2266   13.5019    1.6248 C   0  0  0  0  0  0  0  0  0  0  0  0
   16.2850   13.9391    2.6271 C   0  0  0  0  0  0  0  0  0  0  0  0
   17.6034   14.1895    1.9076 C   0  0  0  0  0  0  0  0  0  0  0  0
   18.1381   12.9085    1.2318 C   0  0  1  0  0  0  0  0  0  0  0  0
   18.6870   12.0938    2.2792 O   0  0  0  0  0  0  0  0  0  0  0  0
   19.2626   13.2994    0.2372 C   0  0  0  0  0  0  0  0  0  0  0  0
   20.5329   13.6380    0.8367 N   0  0  0  0  0  0  0  0  0  0  0  0
   21.9611   13.6167    0.2427 C   0  0  0  0  0  0  0  0  0  0  0  0
   22.3414   13.2499   -0.7964 O   0  0  0  0  0  0  0  0  0  0  0  0
   22.9059   14.2234    1.3046 C   0  0  1  0  0  0  0  0  0  0  0  0
   24.3669   14.2587    0.7982 C   0  0  0  0  0  0  0  0  0  0  0  0
   24.5969   15.7682    0.5861 C   0  0  1  0  0  0  0  0  0  0  0  0
   23.2233   16.3433    0.2845 C   0  0  0  0  0  0  0  0  0  0  0  0
   22.6221   15.7257    1.5352 C   0  0  2  0  0  0  0  0  0  0  0  0
   23.5993   16.2724    2.5797 C   0  0  0  0  0  0  0  0  0  0  0  0
   24.8618   16.3297    1.8880 O   0  0  0  0  0  0  0  0  0  0  0  0
  1  2  1  0
  2  3  1  0
  3  4  2  0
  4  5  1  0
  5  6  2  0
  6  7  1  0
  7  8  2  0
  7  9  1  0
  9 10  1  0
 10 11  1  0
 11 12  1  0
 12 13  1  1
 12 14  1  0
 14 15  1  0
 15 16  1  0
 16 17  2  0
 18 16  1  6
 18 19  1  0
 20 19  1  1
 20 21  1  0
 21 22  1  0
 22 23  1  1
 23 24  1  0
  8  3  1  0
 22 18  1  0
 12  6  1  0
 24 20  1  0
M  END
>  <energy_score>  (4431) 
-33.463296

>  <inchikey>  (4431) 
CWONUZCUTWZKGJ-UHFFFAOYSA-N

>  <smiles>  (4431) 
COc1ccc2c(c1)CCCC2(O)CNC(=O)C1CC2CC1CO2

>  <ref_pdb>  (4431) 
A0875a

>  <alias>  (4431) 
CWONUZCUTWZKGJ-UHFFFAOYSA-N-P38-P38-P51-601508

>  <HIPPO Pose ID>  (4431) 
514030

>  <name>  (4431) 
CWONUZCUTWZKGJ-UHFFFAOYSA-N-P38-P38-P51-601508

>  <HIPPO Compound ID>  (4431) 
290290

>  <ref_mols>  (4431) 
A0239a,A0608a

>  <distance_score>  (4431) 
1.621406

>  <inspiration_score>  (4431) 
None

$$$$
CWONUZCUTWZKGJ-UHFFFAOYSA-N-P51-P38-P51-601508
     RDKit          3D

 24 27  0  0  0  0  0  0  0  0999 V2000
   14.9964    8.6420   -2.2915 C   0  0  0  0  0  0  0  0  0  0  0  0
   14.5245    9.8554   -1.7162 O   0  0  0  0  0  0  0  0  0  0  0  0
   15.4515   10.5954   -1.0357 C   0  0  0  0  0  0  0  0  0  0  0  0
   16.8316   10.4939   -1.1647 C   0  0  0  0  0  0  0  0  0  0  0  0
   17.6686   11.3116   -0.3972 C   0  0  0  0  0  0  0  0  0  0  0  0
   17.1471   12.2473    0.5188 C   0  0  0  0  0  0  0  0  0  0  0  0
   15.7516   12.3670    0.6190 C   0  0  0  0  0  0  0  0  0  0  0  0
   14.9212   11.5386   -0.1568 C   0  0  0  0  0  0  0  0  0  0  0  0
   15.0932   13.3159    1.5826 C   0  0  0  0  0  0  0  0  0  0  0  0
   16.0308   14.3736    2.1509 C   0  0  0  0  0  0  0  0  0  0  0  0
   17.3565   13.7476    2.5588 C   0  0  0  0  0  0  0  0  0  0  0  0
   18.0761   13.1126    1.3553 C   0  0  1  0  0  0  0  0  0  0  0  0
   19.0803   12.2411    1.9000 O   0  0  0  0  0  0  0  0  0  0  0  0
   18.7732   14.2089    0.4949 C   0  0  0  0  0  0  0  0  0  0  0  0
   20.0886   14.5298    1.0142 N   0  0  0  0  0  0  0  0  0  0  0  0
   21.4770   13.9411    0.6664 C   0  0  0  0  0  0  0  0  0  0  0  0
   21.7852   13.1635   -0.1444 O   0  0  0  0  0  0  0  0  0  0  0  0
   22.4881   14.5815    1.6409 C   0  0  1  0  0  0  0  0  0  0  0  0
   23.9369   14.1003    1.3776 C   0  0  0  0  0  0  0  0  0  0  0  0
   24.6157   15.3935    0.8947 C   0  0  1  0  0  0  0  0  0  0  0  0
   23.5092   16.1651    0.1997 C   0  0  0  0  0  0  0  0  0  0  0  0
   22.6117   16.1053    1.4213 C   0  0  2  0  0  0  0  0  0  0  0  0
   23.5602   16.6886    2.4662 C   0  0  0  0  0  0  0  0  0  0  0  0
   24.8548   16.2060    2.0646 O   0  0  0  0  0  0  0  0  0  0  0  0
  1  2  1  0
  2  3  1  0
  3  4  2  0
  4  5  1  0
  5  6  2  0
  6  7  1  0
  7  8  2  0
  7  9  1  0
  9 10  1  0
 10 11  1  0
 11 12  1  0
 12 13  1  1
 12 14  1  0
 14 15  1  0
 15 16  1  0
 16 17  2  0
 18 16  1  6
 18 19  1  0
 20 19  1  1
 20 21  1  0
 21 22  1  0
 22 23  1  1
 23 24  1  0
  8  3  1  0
 22 18  1  0
 12  6  1  0
 24 20  1  0
M  END
>  <energy_score>  (4432) 
-33.40383

>  <inchikey>  (4432) 
CWONUZCUTWZKGJ-UHFFFAOYSA-N

>  <smiles>  (4432) 
COc1ccc2c(c1)CCCC2(O)CNC(=O)C1CC2CC1CO2

>  <ref_pdb>  (4432) 
A0875a

>  <alias>  (4432) 
CWONUZCUTWZKGJ-UHFFFAOYSA-N-P51-P38-P51-601508

>  <HIPPO Pose ID>  (4432) 
514031

>  <name>  (4432) 
CWONUZCUTWZKGJ-UHFFFAOYSA-N-P51-P38-P51-601508

>  <HIPPO Compound ID>  (4432) 
290290

>  <ref_mols>  (4432) 
A0239a,A0608a

>  <distance_score>  (4432) 
1.832308

>  <inspiration_score>  (4432) 
None

$$$$
BOCYLHIKGKUYBN-UHFFFAOYSA-N-P38-P38-P51-601508
     RDKit          3D

 24 27  0  0  0  0  0  0  0  0999 V2000
   14.6457    9.4408   -1.4094 C   0  0  0  0  0  0  0  0  0  0  0  0
   14.9252   10.5154   -0.5199 O   0  0  0  0  0  0  0  0  0  0  0  0
   16.2327   10.9191   -0.4080 C   0  0  0  0  0  0  0  0  0  0  0  0
   17.2800   10.4103   -1.1740 C   0  0  0  0  0  0  0  0  0  0  0  0
   18.5631   10.9212   -1.0199 C   0  0  0  0  0  0  0  0  0  0  0  0
   18.8093   11.9301   -0.0893 C   0  0  0  0  0  0  0  0  0  0  0  0
   17.7914   12.4535    0.7199 C   0  0  0  0  0  0  0  0  0  0  0  0
   16.4843   11.9355    0.5461 C   0  0  0  0  0  0  0  0  0  0  0  0
   15.3143   12.5148    1.3045 C   0  0  0  0  0  0  0  0  0  0  0  0
   15.7284   13.2286    2.5779 C   0  0  0  0  0  0  0  0  0  0  0  0
   16.8303   14.2225    2.2806 C   0  0  0  0  0  0  0  0  0  0  0  0
   18.1090   13.5284    1.7594 C   0  0  1  0  0  0  0  0  0  0  0  0
   18.7523   12.8537    2.8595 O   0  0  0  0  0  0  0  0  0  0  0  0
   19.0345   14.6692    1.2457 C   0  0  0  0  0  0  0  0  0  0  0  0
   20.4401   14.5155    1.5318 N   0  0  0  0  0  0  0  0  0  0  0  0
   21.6330   14.2436    0.5866 C   0  0  0  0  0  0  0  0  0  0  0  0
   21.6549   14.0256   -0.5577 O   0  0  0  0  0  0  0  0  0  0  0  0
   22.8985   14.4213    1.4455 C   0  0  1  0  0  0  0  0  0  0  0  0
   24.1881   14.2253    0.6227 C   0  0  0  0  0  0  0  0  0  0  0  0
   24.7264   15.6663    0.5284 C   0  0  1  0  0  0  0  0  0  0  0  0
   23.4973   16.5567    0.5873 C   0  0  0  0  0  0  0  0  0  0  0  0
   23.0179   15.9069    1.8752 C   0  0  2  0  0  0  0  0  0  0  0  0
   24.2663   16.0897    2.7348 C   0  0  0  0  0  0  0  0  0  0  0  0
   25.3525   15.9536    1.7966 O   0  0  0  0  0  0  0  0  0  0  0  0
  1  2  1  0
  2  3  1  0
  3  4  2  0
  4  5  1  0
  5  6  2  0
  6  7  1  0
  7  8  2  0
  8  9  1  0
  9 10  1  0
 10 11  1  0
 11 12  1  0
 12 13  1  1
 12 14  1  0
 14 15  1  0
 15 16  1  0
 16 17  2  0
 18 16  1  6
 18 19  1  0
 20 19  1  1
 20 21  1  0
 21 22  1  0
 22 23  1  1
 23 24  1  0
  8  3  1  0
 22 18  1  0
 12  7  1  0
 24 20  1  0
M  END
>  <energy_score>  (4433) 
-16.047236

>  <inchikey>  (4433) 
BOCYLHIKGKUYBN-UHFFFAOYSA-N

>  <smiles>  (4433) 
COc1cccc2c1CCCC2(O)CNC(=O)C1CC2CC1CO2

>  <ref_pdb>  (4433) 
A0875a

>  <alias>  (4433) 
BOCYLHIKGKUYBN-UHFFFAOYSA-N-P38-P38-P51-601508

>  <HIPPO Pose ID>  (4433) 
514032

>  <name>  (4433) 
BOCYLHIKGKUYBN-UHFFFAOYSA-N-P38-P38-P51-601508

>  <HIPPO Compound ID>  (4433) 
290291

>  <ref_mols>  (4433) 
A0239a,A0608a

>  <distance_score>  (4433) 
1.734606

>  <inspiration_score>  (4433) 
None

$$$$
BOCYLHIKGKUYBN-UHFFFAOYSA-N-P51-P38-P51-601508
     RDKit          3D

 24 27  0  0  0  0  0  0  0  0999 V2000
   14.5450   10.1827   -1.9979 C   0  0  0  0  0  0  0  0  0  0  0  0
   14.8481   11.3705   -1.2749 O   0  0  0  0  0  0  0  0  0  0  0  0
   16.0621   11.4150   -0.6418 C   0  0  0  0  0  0  0  0  0  0  0  0
   17.1091   10.5308   -0.8851 C   0  0  0  0  0  0  0  0  0  0  0  0
   18.2999   10.6506   -0.1750 C   0  0  0  0  0  0  0  0  0  0  0  0
   18.4407   11.6267    0.8120 C   0  0  0  0  0  0  0  0  0  0  0  0
   17.4207   12.5259    1.0850 C   0  0  0  0  0  0  0  0  0  0  0  0
   16.2387   12.4439    0.3029 C   0  0  0  0  0  0  0  0  0  0  0  0
   15.1532   13.4650    0.5507 C   0  0  0  0  0  0  0  0  0  0  0  0
   15.7155   14.8656    0.8181 C   0  0  0  0  0  0  0  0  0  0  0  0
   17.0561   14.9264    1.5678 C   0  0  0  0  0  0  0  0  0  0  0  0
   17.4753   13.5858    2.1767 C   0  0  1  0  0  0  0  0  0  0  0  0
   16.4095   13.2415    3.1183 O   0  0  0  0  0  0  0  0  0  0  0  0
   18.6959   13.7679    3.1232 C   0  0  0  0  0  0  0  0  0  0  0  0
   20.0686   13.9490    2.7189 N   0  0  0  0  0  0  0  0  0  0  0  0
   20.6779   14.2239    1.3211 C   0  0  0  0  0  0  0  0  0  0  0  0
   20.1715   14.2694    0.2728 O   0  0  0  0  0  0  0  0  0  0  0  0
   22.1851   14.4541    1.5700 C   0  0  1  0  0  0  0  0  0  0  0  0
   23.0265   14.4657    0.2803 C   0  0  0  0  0  0  0  0  0  0  0  0
   23.5107   15.9246    0.2293 C   0  0  1  0  0  0  0  0  0  0  0  0
   22.3838   16.7181    0.8644 C   0  0  0  0  0  0  0  0  0  0  0  0
   22.4223   15.8760    2.1301 C   0  0  2  0  0  0  0  0  0  0  0  0
   23.8997   16.0290    2.4922 C   0  0  0  0  0  0  0  0  0  0  0  0
   24.5653   16.0476    1.2105 O   0  0  0  0  0  0  0  0  0  0  0  0
  1  2  1  0
  2  3  1  0
  3  4  2  0
  4  5  1  0
  5  6  2  0
  6  7  1  0
  7  8  2  0
  8  9  1  0
  9 10  1  0
 10 11  1  0
 11 12  1  0
 12 13  1  1
 12 14  1  0
 14 15  1  0
 15 16  1  0
 16 17  2  0
 18 16  1  6
 18 19  1  0
 20 19  1  1
 20 21  1  0
 21 22  1  0
 22 23  1  6
 23 24  1  0
  8  3  1  0
 22 18  1  0
 12  7  1  0
 24 20  1  0
M  END
>  <energy_score>  (4434) 
-7.687077

>  <inchikey>  (4434) 
BOCYLHIKGKUYBN-UHFFFAOYSA-N

>  <smiles>  (4434) 
COc1cccc2c1CCCC2(O)CNC(=O)C1CC2CC1CO2

>  <ref_pdb>  (4434) 
A0875a

>  <alias>  (4434) 
BOCYLHIKGKUYBN-UHFFFAOYSA-N-P51-P38-P51-601508

>  <HIPPO Pose ID>  (4434) 
514033

>  <name>  (4434) 
BOCYLHIKGKUYBN-UHFFFAOYSA-N-P51-P38-P51-601508

>  <HIPPO Compound ID>  (4434) 
290291

>  <ref_mols>  (4434) 
A0239a,A0608a

>  <distance_score>  (4434) 
1.733258

>  <inspiration_score>  (4434) 
None

$$$$
VHKHGPRIIBCJMA-UHFFFAOYSA-N-P51-P38-P51-601508
     RDKit          3D

 24 27  0  0  0  0  0  0  0  0999 V2000
   13.9036   17.5462    4.2310 C   0  0  0  0  0  0  0  0  0  0  0  0
   15.1836   16.9755    3.9934 O   0  0  0  0  0  0  0  0  0  0  0  0
   15.2182   15.8085    3.2832 C   0  0  0  0  0  0  0  0  0  0  0  0
   14.1216   15.0514    2.8955 C   0  0  0  0  0  0  0  0  0  0  0  0
   14.3081   13.8706    2.1743 C   0  0  0  0  0  0  0  0  0  0  0  0
   15.5953   13.4277    1.8305 C   0  0  0  0  0  0  0  0  0  0  0  0
   16.7199   14.1661    2.2396 C   0  0  0  0  0  0  0  0  0  0  0  0
   16.4979   15.3737    2.9361 C   0  0  0  0  0  0  0  0  0  0  0  0
   18.1432   13.7569    1.8489 C   0  0  1  0  0  0  0  0  0  0  0  0
   18.5093   14.7050    0.8381 O   0  0  0  0  0  0  0  0  0  0  0  0
   19.1047   13.8656    3.0748 C   0  0  0  0  0  0  0  0  0  0  0  0
   20.5127   14.1125    2.8379 N   0  0  0  0  0  0  0  0  0  0  0  0
   21.3633   13.9337    1.5565 C   0  0  0  0  0  0  0  0  0  0  0  0
   21.0461   13.6337    0.4751 O   0  0  0  0  0  0  0  0  0  0  0  0
   22.7945   14.3464    1.9410 C   0  0  1  0  0  0  0  0  0  0  0  0
   23.7933   14.1756    0.7782 C   0  0  0  0  0  0  0  0  0  0  0  0
   24.1372   15.6374    0.4385 C   0  0  1  0  0  0  0  0  0  0  0  0
   22.8762   16.4169    0.7665 C   0  0  0  0  0  0  0  0  0  0  0  0
   22.8412   15.8751    2.1871 C   0  0  2  0  0  0  0  0  0  0  0  0
   24.2446   16.2645    2.6455 C   0  0  0  0  0  0  0  0  0  0  0  0
   25.0513   16.0961    1.4600 O   0  0  0  0  0  0  0  0  0  0  0  0
   18.1957   12.3283    1.2592 C   0  0  0  0  0  0  0  0  0  0  0  0
   17.0517   12.0734    0.2866 C   0  0  0  0  0  0  0  0  0  0  0  0
   15.7241   12.1611    1.0235 C   0  0  0  0  0  0  0  0  0  0  0  0
  1  2  1  0
  2  3  1  0
  3  4  2  0
  4  5  1  0
  5  6  2  0
  6  7  1  0
  7  8  2  0
  7  9  1  0
  9 10  1  6
  9 11  1  0
 11 12  1  0
 12 13  1  0
 13 14  2  0
 15 13  1  6
 15 16  1  0
 17 16  1  1
 17 18  1  0
 18 19  1  0
 19 20  1  1
 20 21  1  0
  9 22  1  0
 22 23  1  0
 23 24  1  0
  8  3  1  0
 19 15  1  0
 24  6  1  0
 21 17  1  0
M  END
>  <energy_score>  (4435) 
-29.595617

>  <inchikey>  (4435) 
VHKHGPRIIBCJMA-UHFFFAOYSA-N

>  <smiles>  (4435) 
COc1ccc2c(c1)C(O)(CNC(=O)C1CC3CC1CO3)CCC2

>  <ref_pdb>  (4435) 
A0875a

>  <alias>  (4435) 
VHKHGPRIIBCJMA-UHFFFAOYSA-N-P51-P38-P51-601508

>  <HIPPO Pose ID>  (4435) 
514035

>  <name>  (4435) 
VHKHGPRIIBCJMA-UHFFFAOYSA-N-P51-P38-P51-601508

>  <HIPPO Compound ID>  (4435) 
290292

>  <ref_mols>  (4435) 
A0239a,A0608a

>  <distance_score>  (4435) 
1.565209

>  <inspiration_score>  (4435) 
None

$$$$
LUWCWHLJXZQXGV-UHFFFAOYSA-N-P38-P38-P51-601508
     RDKit          3D

 25 28  0  0  0  0  0  0  0  0999 V2000
   15.9273   17.9282    4.0085 C   0  0  0  0  0  0  0  0  0  0  0  0
   14.9862   16.8595    3.9610 O   0  0  0  0  0  0  0  0  0  0  0  0
   15.3621   15.7470    3.2597 C   0  0  0  0  0  0  0  0  0  0  0  0
   14.3665   14.7893    3.1048 C   0  0  0  0  0  0  0  0  0  0  0  0
   14.6196   13.6033    2.4159 C   0  0  0  0  0  0  0  0  0  0  0  0
   15.8877   13.3425    1.8823 C   0  0  0  0  0  0  0  0  0  0  0  0
   16.8976   14.3118    1.9981 C   0  0  0  0  0  0  0  0  0  0  0  0
   16.6142   15.5100    2.6978 C   0  0  0  0  0  0  0  0  0  0  0  0
   18.2756   14.1263    1.3554 C   0  0  1  0  0  0  0  0  0  0  0  0
   18.4404   15.2960    0.5388 O   0  0  0  0  0  0  0  0  0  0  0  0
   19.3529   14.1225    2.4758 C   0  0  0  0  0  0  0  0  0  0  0  0
   20.7572   14.2112    2.1103 N   0  0  0  0  0  0  0  0  0  0  0  0
   21.4306   14.7030    0.7946 C   0  0  0  0  0  0  0  0  0  0  0  0
   20.9547   15.0378   -0.2210 O   0  0  0  0  0  0  0  0  0  0  0  0
   22.9620   14.8103    1.0376 C   0  0  1  0  0  0  0  0  0  0  0  0
   23.6184   13.1767    1.3337 Cl  0  0  0  0  0  0  0  0  0  0  0  0
   23.7132   15.4831   -0.1359 C   0  0  0  0  0  0  0  0  0  0  0  0
   24.2168   16.7768    0.5079 C   0  0  1  0  0  0  0  0  0  0  0  0
   23.0666   17.7185    0.8692 C   0  0  0  0  0  0  0  0  0  0  0  0
   22.5083   17.0702    2.1335 C   0  0  0  0  0  0  0  0  0  0  0  0
   23.3121   15.7692    2.1976 C   0  0  2  0  0  0  0  0  0  0  0  0
   24.6113   16.2849    1.8040 O   0  0  0  0  0  0  0  0  0  0  0  0
   18.3549   12.8828    0.4494 C   0  0  0  0  0  0  0  0  0  0  0  0
   17.5792   11.7006    1.0105 C   0  0  0  0  0  0  0  0  0  0  0  0
   16.1033   12.0590    1.1244 C   0  0  0  0  0  0  0  0  0  0  0  0
  1  2  1  0
  2  3  1  0
  3  4  2  0
  4  5  1  0
  5  6  2  0
  6  7  1  0
  7  8  2  0
  7  9  1  0
  9 10  1  6
  9 11  1  0
 11 12  1  0
 12 13  1  0
 13 14  2  0
 13 15  1  0
 15 16  1  1
 15 17  1  0
 18 17  1  6
 18 19  1  0
 19 20  1  0
 21 20  1  6
 21 22  1  0
  9 23  1  0
 23 24  1  0
 24 25  1  0
  8  3  1  0
 21 15  1  0
 25  6  1  0
 22 18  1  0
M  END
>  <energy_score>  (4436) 
-33.682276

>  <inchikey>  (4436) 
LUWCWHLJXZQXGV-UHFFFAOYSA-N

>  <smiles>  (4436) 
COc1ccc2c(c1)C(O)(CNC(=O)C1(Cl)CC3CCC1O3)CCC2

>  <ref_pdb>  (4436) 
A0875a

>  <alias>  (4436) 
LUWCWHLJXZQXGV-UHFFFAOYSA-N-P38-P38-P51-601508

>  <HIPPO Pose ID>  (4436) 
514058

>  <name>  (4436) 
LUWCWHLJXZQXGV-UHFFFAOYSA-N-P38-P38-P51-601508

>  <HIPPO Compound ID>  (4436) 
290304

>  <ref_mols>  (4436) 
A0239a,A0608a

>  <distance_score>  (4436) 
1.542551

>  <inspiration_score>  (4436) 
None

$$$$
LUWCWHLJXZQXGV-UHFFFAOYSA-N-P51-P38-P51-601508
     RDKit          3D

 25 28  0  0  0  0  0  0  0  0999 V2000
   15.6092   17.4990    4.4501 C   0  0  0  0  0  0  0  0  0  0  0  0
   14.8853   16.2709    4.5501 O   0  0  0  0  0  0  0  0  0  0  0  0
   15.2208   15.3762    3.5697 C   0  0  0  0  0  0  0  0  0  0  0  0
   14.1668   14.7776    2.8927 C   0  0  0  0  0  0  0  0  0  0  0  0
   14.4212   13.8565    1.8839 C   0  0  0  0  0  0  0  0  0  0  0  0
   15.7413   13.5340    1.5474 C   0  0  0  0  0  0  0  0  0  0  0  0
   16.8270   14.1183    2.2360 C   0  0  0  0  0  0  0  0  0  0  0  0
   16.5393   15.0357    3.2619 C   0  0  0  0  0  0  0  0  0  0  0  0
   18.2427   13.8727    1.7045 C   0  0  1  0  0  0  0  0  0  0  0  0
   18.2974   14.7756    0.5916 O   0  0  0  0  0  0  0  0  0  0  0  0
   19.3578   14.2343    2.7389 C   0  0  0  0  0  0  0  0  0  0  0  0
   20.7491   14.2998    2.3266 N   0  0  0  0  0  0  0  0  0  0  0  0
   21.3805   14.7039    0.9638 C   0  0  0  0  0  0  0  0  0  0  0  0
   20.8740   14.9704   -0.0559 O   0  0  0  0  0  0  0  0  0  0  0  0
   22.9156   14.8247    1.1635 C   0  0  1  0  0  0  0  0  0  0  0  0
   23.5869   13.1942    1.4376 Cl  0  0  0  0  0  0  0  0  0  0  0  0
   23.6301   15.5013   -0.0297 C   0  0  0  0  0  0  0  0  0  0  0  0
   24.1620   16.7884    0.6048 C   0  0  1  0  0  0  0  0  0  0  0  0
   23.0281   17.7381    0.9945 C   0  0  0  0  0  0  0  0  0  0  0  0
   22.4915   17.0892    2.2680 C   0  0  0  0  0  0  0  0  0  0  0  0
   23.2915   15.7853    2.3158 C   0  0  2  0  0  0  0  0  0  0  0  0
   24.5843   16.2931    1.8913 O   0  0  0  0  0  0  0  0  0  0  0  0
   18.4259   12.4236    1.2025 C   0  0  0  0  0  0  0  0  0  0  0  0
   17.1802   11.7266    0.6421 C   0  0  0  0  0  0  0  0  0  0  0  0
   16.0144   12.6547    0.3568 C   0  0  0  0  0  0  0  0  0  0  0  0
  1  2  1  0
  2  3  1  0
  3  4  2  0
  4  5  1  0
  5  6  2  0
  6  7  1  0
  7  8  2  0
  7  9  1  0
  9 10  1  6
  9 11  1  0
 11 12  1  0
 12 13  1  0
 13 14  2  0
 13 15  1  0
 15 16  1  1
 15 17  1  0
 18 17  1  6
 18 19  1  0
 19 20  1  0
 21 20  1  6
 21 22  1  0
  9 23  1  0
 23 24  1  0
 24 25  1  0
  8  3  1  0
 21 15  1  0
 25  6  1  0
 22 18  1  0
M  END
>  <energy_score>  (4437) 
-25.291765

>  <inchikey>  (4437) 
LUWCWHLJXZQXGV-UHFFFAOYSA-N

>  <smiles>  (4437) 
COc1ccc2c(c1)C(O)(CNC(=O)C1(Cl)CC3CCC1O3)CCC2

>  <ref_pdb>  (4437) 
A0875a

>  <alias>  (4437) 
LUWCWHLJXZQXGV-UHFFFAOYSA-N-P51-P38-P51-601508

>  <HIPPO Pose ID>  (4437) 
514059

>  <name>  (4437) 
LUWCWHLJXZQXGV-UHFFFAOYSA-N-P51-P38-P51-601508

>  <HIPPO Compound ID>  (4437) 
290304

>  <ref_mols>  (4437) 
A0239a,A0608a

>  <distance_score>  (4437) 
1.497194

>  <inspiration_score>  (4437) 
None

$$$$
XAROSNGDCXVAEE-UHFFFAOYSA-N-P38-P38-P51-601508
     RDKit          3D

 25 27  0  0  0  0  0  0  0  0999 V2000
   28.8300   11.5885    2.9135 C   0  0  0  0  0  0  0  0  0  0  0  0
   27.4633   11.9591    3.0562 O   0  0  0  0  0  0  0  0  0  0  0  0
   26.7358   12.0593    1.9037 C   0  0  0  0  0  0  0  0  0  0  0  0
   25.3660   12.2063    2.0790 C   0  0  0  0  0  0  0  0  0  0  0  0
   24.5182   12.3256    0.9742 C   0  0  0  0  0  0  0  0  0  0  0  0
   25.0160   12.3194   -0.3311 C   0  0  0  0  0  0  0  0  0  0  0  0
   26.4061   12.1827   -0.5002 C   0  0  0  0  0  0  0  0  0  0  0  0
   27.2528   12.0572    0.6112 C   0  0  0  0  0  0  0  0  0  0  0  0
   26.9986   12.2872   -1.8818 C   0  0  0  0  0  0  0  0  0  0  0  0
   26.1746   11.5468   -2.9290 C   0  0  0  0  0  0  0  0  0  0  0  0
   24.6623   11.5436   -2.6794 C   0  0  0  0  0  0  0  0  0  0  0  0
   24.1734   12.5183   -1.5851 C   0  0  2  0  0  0  0  0  0  0  0  0
   24.3996   13.8625   -2.0536 O   0  0  0  0  0  0  0  0  0  0  0  0
   22.6473   12.3242   -1.4562 C   0  0  0  0  0  0  0  0  0  0  0  0
   22.0285   13.3087   -0.6135 N   0  0  0  0  0  0  0  0  0  0  0  0
   20.6607   13.3033    0.0925 C   0  0  0  0  0  0  0  0  0  0  0  0
   19.7874   12.5343    0.0408 O   0  0  0  0  0  0  0  0  0  0  0  0
   20.5770   14.5845    0.9119 C   0  0  2  0  0  0  0  0  0  0  0  0
   20.3947   15.7252   -0.0649 C   0  0  0  0  0  0  0  0  0  0  0  0
   21.6831   14.6909    1.9867 C   0  0  0  0  0  0  0  0  0  0  0  0
   22.8776   15.6286    1.8127 C   0  0  2  0  0  0  0  0  0  0  0  0
   22.5837   17.1010    2.0420 C   0  0  0  0  0  0  0  0  0  0  0  0
   23.7695   17.7493    1.3806 C   0  0  0  0  0  0  0  0  0  0  0  0
   24.0378   16.8356    0.2040 C   0  0  0  0  0  0  0  0  0  0  0  0
   23.4675   15.5464    0.5075 O   0  0  0  0  0  0  0  0  0  0  0  0
  1  2  1  0
  2  3  1  0
  3  4  2  0
  4  5  1  0
  5  6  2  0
  6  7  1  0
  7  8  2  0
  7  9  1  0
  9 10  1  0
 10 11  1  0
 11 12  1  0
 12 13  1  6
 12 14  1  0
 14 15  1  0
 15 16  1  0
 16 17  2  0
 16 18  1  0
 18 19  1  6
 18 20  1  0
 21 20  1  6
 21 22  1  0
 22 23  1  0
 23 24  1  0
 24 25  1  0
  8  3  1  0
 25 21  1  0
 12  6  1  0
M  END
>  <energy_score>  (4438) 
-29.126889

>  <inchikey>  (4438) 
XAROSNGDCXVAEE-UHFFFAOYSA-N

>  <smiles>  (4438) 
COc1ccc2c(c1)CCCC2(O)CNC(=O)C(C)CC1CCCO1

>  <ref_pdb>  (4438) 
A0875a

>  <alias>  (4438) 
XAROSNGDCXVAEE-UHFFFAOYSA-N-P38-P38-P51-601508

>  <HIPPO Pose ID>  (4438) 
514060

>  <name>  (4438) 
XAROSNGDCXVAEE-UHFFFAOYSA-N-P38-P38-P51-601508

>  <HIPPO Compound ID>  (4438) 
290307

>  <ref_mols>  (4438) 
A0239a,A0608a

>  <distance_score>  (4438) 
1.981361

>  <inspiration_score>  (4438) 
None

$$$$
DWDKQKXNLLSXFO-UHFFFAOYSA-N-P38-P38-P51-601508
     RDKit          3D

 25 28  0  0  0  0  0  0  0  0999 V2000
   16.0378   17.7310    4.2487 C   0  0  0  0  0  0  0  0  0  0  0  0
   15.0083   16.7419    4.2380 O   0  0  0  0  0  0  0  0  0  0  0  0
   15.2657   15.6454    3.4622 C   0  0  0  0  0  0  0  0  0  0  0  0
   14.1500   15.0182    2.9226 C   0  0  0  0  0  0  0  0  0  0  0  0
   14.3014   13.8900    2.1205 C   0  0  0  0  0  0  0  0  0  0  0  0
   15.5767   13.3773    1.8385 C   0  0  0  0  0  0  0  0  0  0  0  0
   16.7199   14.0236    2.3447 C   0  0  0  0  0  0  0  0  0  0  0  0
   16.5360   15.1300    3.2022 C   0  0  0  0  0  0  0  0  0  0  0  0
   18.1312   13.5487    1.9861 C   0  0  2  0  0  0  0  0  0  0  0  0
   18.7461   12.9835    3.1568 O   0  0  0  0  0  0  0  0  0  0  0  0
   19.0050   14.7393    1.5084 C   0  0  0  0  0  0  0  0  0  0  0  0
   20.4182   14.5330    1.6804 N   0  0  0  0  0  0  0  0  0  0  0  0
   21.5221   14.2384    0.6418 C   0  0  0  0  0  0  0  0  0  0  0  0
   21.4473   14.0410   -0.5035 O   0  0  0  0  0  0  0  0  0  0  0  0
   22.8519   14.3588    1.4119 C   0  0  1  0  0  0  0  0  0  0  0  0
   24.0767   14.1110    0.5096 C   0  0  0  0  0  0  0  0  0  0  0  0
   24.6787   15.5300    0.3954 C   0  0  1  0  0  0  0  0  0  0  0  0
   25.5821   15.7471   -0.7939 C   0  0  0  0  0  0  0  0  0  0  0  0
   23.4920   16.4745    0.5234 C   0  0  0  0  0  0  0  0  0  0  0  0
   23.0594   15.8393    1.8350 C   0  0  2  0  0  0  0  0  0  0  0  0
   24.3582   15.9638    2.6268 C   0  0  0  0  0  0  0  0  0  0  0  0
   25.3851   15.7808    1.6308 O   0  0  0  0  0  0  0  0  0  0  0  0
   18.1414   12.4605    0.8912 C   0  0  0  0  0  0  0  0  0  0  0  0
   17.0131   11.4567    1.0805 C   0  0  0  0  0  0  0  0  0  0  0  0
   15.6752   12.1682    0.9422 C   0  0  0  0  0  0  0  0  0  0  0  0
  1  2  1  0
  2  3  1  0
  3  4  2  0
  4  5  1  0
  5  6  2  0
  6  7  1  0
  7  8  2  0
  7  9  1  0
  9 10  1  1
  9 11  1  0
 11 12  1  0
 12 13  1  0
 13 14  2  0
 15 13  1  6
 15 16  1  0
 16 17  1  0
 17 18  1  6
 17 19  1  0
 19 20  1  0
 20 21  1  1
 21 22  1  0
  9 23  1  0
 23 24  1  0
 24 25  1  0
  8  3  1  0
 20 15  1  0
 25  6  1  0
 22 17  1  0
M  END
>  <energy_score>  (4439) 
-35.403687

>  <inchikey>  (4439) 
DWDKQKXNLLSXFO-UHFFFAOYSA-N

>  <smiles>  (4439) 
COc1ccc2c(c1)C(O)(CNC(=O)C1CC3(C)CC1CO3)CCC2

>  <ref_pdb>  (4439) 
A0875a

>  <alias>  (4439) 
DWDKQKXNLLSXFO-UHFFFAOYSA-N-P38-P38-P51-601508

>  <HIPPO Pose ID>  (4439) 
514062

>  <name>  (4439) 
DWDKQKXNLLSXFO-UHFFFAOYSA-N-P38-P38-P51-601508

>  <HIPPO Compound ID>  (4439) 
290313

>  <ref_mols>  (4439) 
A0239a,A0608a

>  <distance_score>  (4439) 
1.650614

>  <inspiration_score>  (4439) 
None

$$$$
DWDKQKXNLLSXFO-UHFFFAOYSA-N-P51-P38-P51-601508
     RDKit          3D

 25 28  0  0  0  0  0  0  0  0999 V2000
   17.7674   18.7267    1.6894 C   0  0  0  0  0  0  0  0  0  0  0  0
   16.5551   18.2561    1.1056 O   0  0  0  0  0  0  0  0  0  0  0  0
   16.4677   16.9013    0.9305 C   0  0  0  0  0  0  0  0  0  0  0  0
   15.6028   16.4929   -0.0830 C   0  0  0  0  0  0  0  0  0  0  0  0
   15.4121   15.1383   -0.3429 C   0  0  0  0  0  0  0  0  0  0  0  0
   16.0938   14.1777    0.4111 C   0  0  0  0  0  0  0  0  0  0  0  0
   16.9689   14.5763    1.4463 C   0  0  0  0  0  0  0  0  0  0  0  0
   17.1279   15.9449    1.7082 C   0  0  0  0  0  0  0  0  0  0  0  0
   17.5913   13.4752    2.2852 C   0  0  2  0  0  0  0  0  0  0  0  0
   16.5025   12.9386    3.0743 O   0  0  0  0  0  0  0  0  0  0  0  0
   18.6714   13.8878    3.3129 C   0  0  0  0  0  0  0  0  0  0  0  0
   19.9928   14.2570    2.8570 N   0  0  0  0  0  0  0  0  0  0  0  0
   20.6275   15.6493    2.6423 C   0  0  0  0  0  0  0  0  0  0  0  0
   20.1595   16.7137    2.7257 O   0  0  0  0  0  0  0  0  0  0  0  0
   22.1231   15.3905    2.3787 C   0  0  1  0  0  0  0  0  0  0  0  0
   22.4116   14.6101    1.0795 C   0  0  0  0  0  0  0  0  0  0  0  0
   23.2312   15.6398    0.2782 C   0  0  1  0  0  0  0  0  0  0  0  0
   23.3282   15.3618   -1.2019 C   0  0  0  0  0  0  0  0  0  0  0  0
   22.6193   16.9729    0.6760 C   0  0  0  0  0  0  0  0  0  0  0  0
   22.8757   16.7172    2.1524 C   0  0  2  0  0  0  0  0  0  0  0  0
   24.3722   16.4288    2.1158 C   0  0  0  0  0  0  0  0  0  0  0  0
   24.5438   15.6984    0.8820 O   0  0  0  0  0  0  0  0  0  0  0  0
   18.1043   12.3576    1.3614 C   0  0  0  0  0  0  0  0  0  0  0  0
   17.0673   11.8403    0.3557 C   0  0  0  0  0  0  0  0  0  0  0  0
   15.8230   12.7107    0.1887 C   0  0  0  0  0  0  0  0  0  0  0  0
  1  2  1  0
  2  3  1  0
  3  4  2  0
  4  5  1  0
  5  6  2  0
  6  7  1  0
  7  8  2  0
  7  9  1  0
  9 10  1  1
  9 11  1  0
 11 12  1  0
 12 13  1  0
 13 14  2  0
 15 13  1  6
 15 16  1  0
 16 17  1  0
 17 18  1  6
 17 19  1  0
 19 20  1  0
 20 21  1  6
 21 22  1  0
  9 23  1  0
 23 24  1  0
 24 25  1  0
  8  3  1  0
 20 15  1  0
 25  6  1  0
 22 17  1  0
M  END
>  <energy_score>  (4440) 
-35.662393

>  <inchikey>  (4440) 
DWDKQKXNLLSXFO-UHFFFAOYSA-N

>  <smiles>  (4440) 
COc1ccc2c(c1)C(O)(CNC(=O)C1CC3(C)CC1CO3)CCC2

>  <ref_pdb>  (4440) 
A0875a

>  <alias>  (4440) 
DWDKQKXNLLSXFO-UHFFFAOYSA-N-P51-P38-P51-601508

>  <HIPPO Pose ID>  (4440) 
514063

>  <name>  (4440) 
DWDKQKXNLLSXFO-UHFFFAOYSA-N-P51-P38-P51-601508

>  <HIPPO Compound ID>  (4440) 
290313

>  <ref_mols>  (4440) 
A0239a,A0608a

>  <distance_score>  (4440) 
1.745561

>  <inspiration_score>  (4440) 
None

$$$$
CVXUSMXTXWMCFG-UHFFFAOYSA-N-P38-P38-P51-601508
     RDKit          3D

 25 28  0  0  0  0  0  0  0  0999 V2000
   18.6927    9.4427   -3.2056 C   0  0  0  0  0  0  0  0  0  0  0  0
   17.8377    9.4754   -2.0680 O   0  0  0  0  0  0  0  0  0  0  0  0
   18.0118   10.5165   -1.2032 C   0  0  0  0  0  0  0  0  0  0  0  0
   19.1190   11.3476   -1.1468 C   0  0  0  0  0  0  0  0  0  0  0  0
   19.1606   12.4027   -0.2258 C   0  0  0  0  0  0  0  0  0  0  0  0
   18.1010   12.6738    0.6552 C   0  0  0  0  0  0  0  0  0  0  0  0
   16.9677   11.8372    0.5637 C   0  0  0  0  0  0  0  0  0  0  0  0
   16.9573   10.7433   -0.3238 C   0  0  0  0  0  0  0  0  0  0  0  0
   15.7236   12.0918    1.3719 C   0  0  0  0  0  0  0  0  0  0  0  0
   15.5828   13.5588    1.7398 C   0  0  0  0  0  0  0  0  0  0  0  0
   16.8498   14.0081    2.4457 C   0  0  0  0  0  0  0  0  0  0  0  0
   18.1092   13.9245    1.5348 C   0  0  2  0  0  0  0  0  0  0  0  0
   18.0139   15.0651    0.6678 O   0  0  0  0  0  0  0  0  0  0  0  0
   19.2969   14.1271    2.5265 C   0  0  0  0  0  0  0  0  0  0  0  0
   20.6645   14.2503    2.0732 N   0  0  0  0  0  0  0  0  0  0  0  0
   21.2492   14.9429    0.8174 C   0  0  0  0  0  0  0  0  0  0  0  0
   20.7113   15.4534   -0.0836 O   0  0  0  0  0  0  0  0  0  0  0  0
   22.7977   14.9464    0.9593 C   0  0  1  0  0  0  0  0  0  0  0  0
   23.3883   13.5245    1.0342 C   0  0  0  0  0  0  0  0  0  0  0  0
   23.4750   15.7269   -0.2064 C   0  0  0  0  0  0  0  0  0  0  0  0
   24.1145   16.9097    0.5215 C   0  0  1  0  0  0  0  0  0  0  0  0
   23.0549   17.8806    1.0389 C   0  0  0  0  0  0  0  0  0  0  0  0
   22.5154   17.1404    2.2581 C   0  0  0  0  0  0  0  0  0  0  0  0
   23.2466   15.7996    2.1678 C   0  0  2  0  0  0  0  0  0  0  0  0
   24.5500   16.2645    1.7367 O   0  0  0  0  0  0  0  0  0  0  0  0
  1  2  1  0
  2  3  1  0
  3  4  2  0
  4  5  1  0
  5  6  2  0
  6  7  1  0
  7  8  2  0
  7  9  1  0
  9 10  1  0
 10 11  1  0
 11 12  1  0
 12 13  1  6
 12 14  1  0
 14 15  1  0
 15 16  1  0
 16 17  2  0
 16 18  1  0
 18 19  1  1
 18 20  1  0
 21 20  1  6
 21 22  1  0
 22 23  1  0
 24 23  1  6
 24 25  1  0
  8  3  1  0
 24 18  1  0
 12  6  1  0
 25 21  1  0
M  END
>  <energy_score>  (4441) 
-31.801659

>  <inchikey>  (4441) 
CVXUSMXTXWMCFG-UHFFFAOYSA-N

>  <smiles>  (4441) 
COc1ccc2c(c1)CCCC2(O)CNC(=O)C1(C)CC2CCC1O2

>  <ref_pdb>  (4441) 
A0875a

>  <alias>  (4441) 
CVXUSMXTXWMCFG-UHFFFAOYSA-N-P38-P38-P51-601508

>  <HIPPO Pose ID>  (4441) 
514064

>  <name>  (4441) 
CVXUSMXTXWMCFG-UHFFFAOYSA-N-P38-P38-P51-601508

>  <HIPPO Compound ID>  (4441) 
290316

>  <ref_mols>  (4441) 
A0239a,A0608a

>  <distance_score>  (4441) 
1.433959

>  <inspiration_score>  (4441) 
None

$$$$
CVXUSMXTXWMCFG-UHFFFAOYSA-N-P51-P38-P51-601508
     RDKit          3D

 25 28  0  0  0  0  0  0  0  0999 V2000
   16.5747    9.4442   -2.5719 C   0  0  0  0  0  0  0  0  0  0  0  0
   17.8460    9.7120   -1.9840 O   0  0  0  0  0  0  0  0  0  0  0  0
   17.8466   10.6740   -1.0140 C   0  0  0  0  0  0  0  0  0  0  0  0
   19.0642   11.2958   -0.7830 C   0  0  0  0  0  0  0  0  0  0  0  0
   19.1733   12.3195    0.1657 C   0  0  0  0  0  0  0  0  0  0  0  0
   18.0701   12.7601    0.9117 C   0  0  0  0  0  0  0  0  0  0  0  0
   16.8340   12.1210    0.6623 C   0  0  0  0  0  0  0  0  0  0  0  0
   16.7439   11.0645   -0.2655 C   0  0  0  0  0  0  0  0  0  0  0  0
   15.5642   12.5130    1.3705 C   0  0  0  0  0  0  0  0  0  0  0  0
   15.6158   13.9154    1.9454 C   0  0  0  0  0  0  0  0  0  0  0  0
   16.9000   14.0843    2.7401 C   0  0  0  0  0  0  0  0  0  0  0  0
   18.1615   13.9717    1.8414 C   0  0  2  0  0  0  0  0  0  0  0  0
   18.1370   15.1555    1.0302 O   0  0  0  0  0  0  0  0  0  0  0  0
   19.3587   14.0577    2.8417 C   0  0  0  0  0  0  0  0  0  0  0  0
   20.7223   14.2070    2.3708 N   0  0  0  0  0  0  0  0  0  0  0  0
   21.2766   14.8762    1.0854 C   0  0  0  0  0  0  0  0  0  0  0  0
   20.7158   15.3408    0.1727 O   0  0  0  0  0  0  0  0  0  0  0  0
   22.8226   14.9314    1.2077 C   0  0  1  0  0  0  0  0  0  0  0  0
   23.4453   13.5265    1.2994 C   0  0  0  0  0  0  0  0  0  0  0  0
   23.4633   15.7044    0.0167 C   0  0  0  0  0  0  0  0  0  0  0  0
   24.0761   16.9206    0.7105 C   0  0  1  0  0  0  0  0  0  0  0  0
   22.9951   17.8708    1.2231 C   0  0  0  0  0  0  0  0  0  0  0  0
   22.4921   17.1404    2.4648 C   0  0  0  0  0  0  0  0  0  0  0  0
   23.2625   15.8215    2.3923 C   0  0  2  0  0  0  0  0  0  0  0  0
   24.5460   16.3136    1.9328 O   0  0  0  0  0  0  0  0  0  0  0  0
  1  2  1  0
  2  3  1  0
  3  4  2  0
  4  5  1  0
  5  6  2  0
  6  7  1  0
  7  8  2  0
  7  9  1  0
  9 10  1  0
 10 11  1  0
 11 12  1  0
 12 13  1  6
 12 14  1  0
 14 15  1  0
 15 16  1  0
 16 17  2  0
 16 18  1  0
 18 19  1  1
 18 20  1  0
 21 20  1  6
 21 22  1  0
 22 23  1  0
 24 23  1  6
 24 25  1  0
  8  3  1  0
 24 18  1  0
 12  6  1  0
 25 21  1  0
M  END
>  <energy_score>  (4442) 
-32.82097

>  <inchikey>  (4442) 
CVXUSMXTXWMCFG-UHFFFAOYSA-N

>  <smiles>  (4442) 
COc1ccc2c(c1)CCCC2(O)CNC(=O)C1(C)CC2CCC1O2

>  <ref_pdb>  (4442) 
A0875a

>  <alias>  (4442) 
CVXUSMXTXWMCFG-UHFFFAOYSA-N-P51-P38-P51-601508

>  <HIPPO Pose ID>  (4442) 
514065

>  <name>  (4442) 
CVXUSMXTXWMCFG-UHFFFAOYSA-N-P51-P38-P51-601508

>  <HIPPO Compound ID>  (4442) 
290316

>  <ref_mols>  (4442) 
A0239a,A0608a

>  <distance_score>  (4442) 
1.383171

>  <inspiration_score>  (4442) 
None

$$$$
AQPVHQZSSDZUJW-UHFFFAOYSA-N-P51-P38-P51-601508
     RDKit          3D

 25 28  0  0  0  0  0  0  0  0999 V2000
   18.1345    9.9098   -3.0925 C   0  0  0  0  0  0  0  0  0  0  0  0
   19.0884    9.9974   -2.0331 O   0  0  0  0  0  0  0  0  0  0  0  0
   18.7286   10.9257   -1.0966 C   0  0  0  0  0  0  0  0  0  0  0  0
   19.6671   11.8971   -0.7812 C   0  0  0  0  0  0  0  0  0  0  0  0
   19.3795   12.8505    0.1961 C   0  0  0  0  0  0  0  0  0  0  0  0
   18.1580   12.8483    0.8902 C   0  0  0  0  0  0  0  0  0  0  0  0
   17.1872   11.8984    0.5079 C   0  0  0  0  0  0  0  0  0  0  0  0
   17.4996   10.9120   -0.4449 C   0  0  0  0  0  0  0  0  0  0  0  0
   15.7954   11.9125    1.0831 C   0  0  0  0  0  0  0  0  0  0  0  0
   15.4207   13.2876    1.6158 C   0  0  0  0  0  0  0  0  0  0  0  0
   16.4827   13.7397    2.6022 C   0  0  0  0  0  0  0  0  0  0  0  0
   17.8746   13.9132    1.9431 C   0  0  2  0  0  0  0  0  0  0  0  0
   17.8032   15.1792    1.2749 O   0  0  0  0  0  0  0  0  0  0  0  0
   18.8722   13.9502    3.1426 C   0  0  0  0  0  0  0  0  0  0  0  0
   20.2503   14.3136    2.9106 N   0  0  0  0  0  0  0  0  0  0  0  0
   20.8565   15.5606    2.2422 C   0  0  0  0  0  0  0  0  0  0  0  0
   20.3400   16.4544    1.7051 O   0  0  0  0  0  0  0  0  0  0  0  0
   22.3804   15.4461    2.4186 C   0  0  1  0  0  0  0  0  0  0  0  0
   23.0180   14.3212    1.5719 C   0  0  0  0  0  0  0  0  0  0  0  0
   23.9343   15.1255    0.6308 C   0  0  1  0  0  0  0  0  0  0  0  0
   24.3975   14.3772   -0.5952 C   0  0  0  0  0  0  0  0  0  0  0  0
   23.1613   16.4109    0.3871 C   0  0  0  0  0  0  0  0  0  0  0  0
   23.0752   16.7108    1.8749 C   0  0  2  0  0  0  0  0  0  0  0  0
   24.5525   16.6492    2.2417 C   0  0  0  0  0  0  0  0  0  0  0  0
   25.0578   15.5772    1.4204 O   0  0  0  0  0  0  0  0  0  0  0  0
  1  2  1  0
  2  3  1  0
  3  4  2  0
  4  5  1  0
  5  6  2  0
  6  7  1  0
  7  8  2  0
  7  9  1  0
  9 10  1  0
 10 11  1  0
 11 12  1  0
 12 13  1  6
 12 14  1  0
 14 15  1  0
 15 16  1  0
 16 17  2  0
 18 16  1  6
 18 19  1  0
 19 20  1  0
 20 21  1  6
 20 22  1  0
 22 23  1  0
 23 24  1  1
 24 25  1  0
  8  3  1  0
 23 18  1  0
 12  6  1  0
 25 20  1  0
M  END
>  <energy_score>  (4443) 
-40.370223

>  <inchikey>  (4443) 
AQPVHQZSSDZUJW-UHFFFAOYSA-N

>  <smiles>  (4443) 
COc1ccc2c(c1)CCCC2(O)CNC(=O)C1CC2(C)CC1CO2

>  <ref_pdb>  (4443) 
A0875a

>  <alias>  (4443) 
AQPVHQZSSDZUJW-UHFFFAOYSA-N-P51-P38-P51-601508

>  <HIPPO Pose ID>  (4443) 
514067

>  <name>  (4443) 
AQPVHQZSSDZUJW-UHFFFAOYSA-N-P51-P38-P51-601508

>  <HIPPO Compound ID>  (4443) 
290317

>  <ref_mols>  (4443) 
A0239a,A0608a

>  <distance_score>  (4443) 
1.898284

>  <inspiration_score>  (4443) 
None

$$$$
IMUYXSJFCIUBEL-UHFFFAOYSA-N-P38-P38-P51-601508
     RDKit          3D

 25 28  0  0  0  0  0  0  0  0999 V2000
   16.2755   17.6681    4.3066 C   0  0  0  0  0  0  0  0  0  0  0  0
   15.2280   16.7041    4.2237 O   0  0  0  0  0  0  0  0  0  0  0  0
   15.4843   15.6024    3.4563 C   0  0  0  0  0  0  0  0  0  0  0  0
   14.3584   14.9201    3.0113 C   0  0  0  0  0  0  0  0  0  0  0  0
   14.4947   13.7826    2.2204 C   0  0  0  0  0  0  0  0  0  0  0  0
   15.7652   13.3127    1.8558 C   0  0  0  0  0  0  0  0  0  0  0  0
   16.9171   14.0112    2.2656 C   0  0  0  0  0  0  0  0  0  0  0  0
   16.7514   15.1316    3.1091 C   0  0  0  0  0  0  0  0  0  0  0  0
   18.3206   13.5755    1.8229 C   0  0  2  0  0  0  0  0  0  0  0  0
   19.0309   13.0568    2.9631 O   0  0  0  0  0  0  0  0  0  0  0  0
   19.1178   14.7776    1.2456 C   0  0  0  0  0  0  0  0  0  0  0  0
   20.5543   14.6435    1.2378 N   0  0  0  0  0  0  0  0  0  0  0  0
   21.6009   15.0948    0.1884 C   0  0  0  0  0  0  0  0  0  0  0  0
   21.4562   15.5748   -0.8655 O   0  0  0  0  0  0  0  0  0  0  0  0
   23.0162   14.9128    0.8026 C   0  0  1  0  0  0  0  0  0  0  0  0
   23.3673   13.4368    1.0237 C   0  0  0  0  0  0  0  0  0  0  0  0
   24.0993   15.5970   -0.0840 C   0  0  0  0  0  0  0  0  0  0  0  0
   24.5624   16.7515    0.8040 C   0  0  1  0  0  0  0  0  0  0  0  0
   23.4639   17.7969    1.0085 C   0  0  0  0  0  0  0  0  0  0  0  0
   22.5643   17.1204    2.0385 C   0  0  0  0  0  0  0  0  0  0  0  0
   23.1792   15.7231    2.1140 C   0  0  2  0  0  0  0  0  0  0  0  0
   24.5822   16.0852    2.0825 O   0  0  0  0  0  0  0  0  0  0  0  0
   18.2870   12.4676    0.7492 C   0  0  0  0  0  0  0  0  0  0  0  0
   17.2123   11.4299    1.0366 C   0  0  0  0  0  0  0  0  0  0  0  0
   15.8432   12.0901    0.9771 C   0  0  0  0  0  0  0  0  0  0  0  0
  1  2  1  0
  2  3  1  0
  3  4  2  0
  4  5  1  0
  5  6  2  0
  6  7  1  0
  7  8  2  0
  7  9  1  0
  9 10  1  1
  9 11  1  0
 11 12  1  0
 12 13  1  0
 13 14  2  0
 13 15  1  0
 15 16  1  1
 15 17  1  0
 18 17  1  6
 18 19  1  0
 19 20  1  0
 21 20  1  6
 21 22  1  0
  9 23  1  0
 23 24  1  0
 24 25  1  0
  8  3  1  0
 21 15  1  0
 25  6  1  0
 22 18  1  0
M  END
>  <energy_score>  (4444) 
-38.727157

>  <inchikey>  (4444) 
IMUYXSJFCIUBEL-UHFFFAOYSA-N

>  <smiles>  (4444) 
COc1ccc2c(c1)C(O)(CNC(=O)C1(C)CC3CCC1O3)CCC2

>  <ref_pdb>  (4444) 
A0875a

>  <alias>  (4444) 
IMUYXSJFCIUBEL-UHFFFAOYSA-N-P38-P38-P51-601508

>  <HIPPO Pose ID>  (4444) 
514068

>  <name>  (4444) 
IMUYXSJFCIUBEL-UHFFFAOYSA-N-P38-P38-P51-601508

>  <HIPPO Compound ID>  (4444) 
290320

>  <ref_mols>  (4444) 
A0239a,A0608a

>  <distance_score>  (4444) 
1.614046

>  <inspiration_score>  (4444) 
None

$$$$
IMUYXSJFCIUBEL-UHFFFAOYSA-N-P51-P38-P51-601508
     RDKit          3D

 25 28  0  0  0  0  0  0  0  0999 V2000
   17.9012   18.7985    2.4427 C   0  0  0  0  0  0  0  0  0  0  0  0
   16.6621   18.3629    1.8929 O   0  0  0  0  0  0  0  0  0  0  0  0
   16.6051   17.0418    1.5391 C   0  0  0  0  0  0  0  0  0  0  0  0
   15.7209   16.7391    0.5104 C   0  0  0  0  0  0  0  0  0  0  0  0
   15.5810   15.4242    0.0750 C   0  0  0  0  0  0  0  0  0  0  0  0
   16.3113   14.3860    0.6769 C   0  0  0  0  0  0  0  0  0  0  0  0
   17.2098   14.6767    1.7281 C   0  0  0  0  0  0  0  0  0  0  0  0
   17.3236   16.0150    2.1584 C   0  0  0  0  0  0  0  0  0  0  0  0
   17.9203   13.5452    2.4479 C   0  0  2  0  0  0  0  0  0  0  0  0
   16.9227   13.2074    3.4528 O   0  0  0  0  0  0  0  0  0  0  0  0
   19.2341   13.8785    3.2164 C   0  0  0  0  0  0  0  0  0  0  0  0
   20.5184   14.0748    2.5884 N   0  0  0  0  0  0  0  0  0  0  0  0
   20.8774   14.5729    1.1641 C   0  0  0  0  0  0  0  0  0  0  0  0
   20.1895   14.8266    0.2568 O   0  0  0  0  0  0  0  0  0  0  0  0
   22.4217   14.7979    1.1305 C   0  0  1  0  0  0  0  0  0  0  0  0
   23.1927   13.4670    1.2176 C   0  0  0  0  0  0  0  0  0  0  0  0
   22.8725   15.5707   -0.1430 C   0  0  0  0  0  0  0  0  0  0  0  0
   23.5263   16.8262    0.4438 C   0  0  1  0  0  0  0  0  0  0  0  0
   22.4731   17.7701    1.0178 C   0  0  0  0  0  0  0  0  0  0  0  0
   22.0745   17.0537    2.3041 C   0  0  0  0  0  0  0  0  0  0  0  0
   22.9060   15.7726    2.2305 C   0  0  2  0  0  0  0  0  0  0  0  0
   24.1250   16.2943    1.6434 O   0  0  0  0  0  0  0  0  0  0  0  0
   18.0971   12.3164    1.5364 C   0  0  0  0  0  0  0  0  0  0  0  0
   16.7634   11.8810    0.9384 C   0  0  0  0  0  0  0  0  0  0  0  0
   16.1510   12.9966    0.1045 C   0  0  0  0  0  0  0  0  0  0  0  0
  1  2  1  0
  2  3  1  0
  3  4  2  0
  4  5  1  0
  5  6  2  0
  6  7  1  0
  7  8  2  0
  7  9  1  0
  9 10  1  1
  9 11  1  0
 11 12  1  0
 12 13  1  0
 13 14  2  0
 13 15  1  0
 15 16  1  1
 15 17  1  0
 18 17  1  1
 18 19  1  0
 19 20  1  0
 21 20  1  6
 21 22  1  0
  9 23  1  0
 23 24  1  0
 24 25  1  0
  8  3  1  0
 21 15  1  0
 25  6  1  0
 22 18  1  0
M  END
>  <energy_score>  (4445) 
-26.479172

>  <inchikey>  (4445) 
IMUYXSJFCIUBEL-UHFFFAOYSA-N

>  <smiles>  (4445) 
COc1ccc2c(c1)C(O)(CNC(=O)C1(C)CC3CCC1O3)CCC2

>  <ref_pdb>  (4445) 
A0875a

>  <alias>  (4445) 
IMUYXSJFCIUBEL-UHFFFAOYSA-N-P51-P38-P51-601508

>  <HIPPO Pose ID>  (4445) 
514069

>  <name>  (4445) 
IMUYXSJFCIUBEL-UHFFFAOYSA-N-P51-P38-P51-601508

>  <HIPPO Compound ID>  (4445) 
290320

>  <ref_mols>  (4445) 
A0239a,A0608a

>  <distance_score>  (4445) 
1.344159

>  <inspiration_score>  (4445) 
None

$$$$
YOQRBUNELOEMKK-UHFFFAOYSA-N-P38-P38-P51-601508
     RDKit          3D

 25 28  0  0  0  0  0  0  0  0999 V2000
   14.9443    9.5157   -1.3882 C   0  0  0  0  0  0  0  0  0  0  0  0
   15.2266   10.3750   -0.2907 O   0  0  0  0  0  0  0  0  0  0  0  0
   16.4758   10.9408   -0.2490 C   0  0  0  0  0  0  0  0  0  0  0  0
   17.5770   10.4563   -0.9481 C   0  0  0  0  0  0  0  0  0  0  0  0
   18.7977   11.1144   -0.8522 C   0  0  0  0  0  0  0  0  0  0  0  0
   18.9375   12.2332   -0.0264 C   0  0  0  0  0  0  0  0  0  0  0  0
   17.8647   12.7258    0.7297 C   0  0  0  0  0  0  0  0  0  0  0  0
   16.6085   12.0820    0.5767 C   0  0  0  0  0  0  0  0  0  0  0  0
   15.3713   12.5830    1.2878 C   0  0  0  0  0  0  0  0  0  0  0  0
   15.4860   14.0128    1.7775 C   0  0  0  0  0  0  0  0  0  0  0  0
   16.7970   14.1805    2.5190 C   0  0  0  0  0  0  0  0  0  0  0  0
   18.0176   13.9854    1.5795 C   0  0  2  0  0  0  0  0  0  0  0  0
   17.9993   15.1228    0.7072 O   0  0  0  0  0  0  0  0  0  0  0  0
   19.2428   14.0799    2.5384 C   0  0  0  0  0  0  0  0  0  0  0  0
   20.6028   14.2158    2.0566 N   0  0  0  0  0  0  0  0  0  0  0  0
   21.1590   14.9269    0.7907 C   0  0  0  0  0  0  0  0  0  0  0  0
   20.5979   15.4437   -0.0952 O   0  0  0  0  0  0  0  0  0  0  0  0
   22.7104   14.9626    0.9063 C   0  0  1  0  0  0  0  0  0  0  0  0
   23.3338   13.2879    1.0448 Cl  0  0  0  0  0  0  0  0  0  0  0  0
   23.3995   15.6932   -0.2671 C   0  0  0  0  0  0  0  0  0  0  0  0
   24.0254   16.9011    0.4344 C   0  0  1  0  0  0  0  0  0  0  0  0
   22.9579   17.8703    0.9438 C   0  0  0  0  0  0  0  0  0  0  0  0
   22.4431   17.1517    2.1883 C   0  0  0  0  0  0  0  0  0  0  0  0
   23.1807   15.8139    2.1063 C   0  0  2  0  0  0  0  0  0  0  0  0
   24.4774   16.2928    1.6617 O   0  0  0  0  0  0  0  0  0  0  0  0
  1  2  1  0
  2  3  1  0
  3  4  2  0
  4  5  1  0
  5  6  2  0
  6  7  1  0
  7  8  2  0
  8  9  1  0
  9 10  1  0
 10 11  1  0
 11 12  1  0
 12 13  1  6
 12 14  1  0
 14 15  1  0
 15 16  1  0
 16 17  2  0
 16 18  1  0
 18 19  1  1
 18 20  1  0
 21 20  1  6
 21 22  1  0
 22 23  1  0
 24 23  1  6
 24 25  1  0
  8  3  1  0
 24 18  1  0
 12  7  1  0
 25 21  1  0
M  END
>  <energy_score>  (4446) 
-32.036152

>  <inchikey>  (4446) 
YOQRBUNELOEMKK-UHFFFAOYSA-N

>  <smiles>  (4446) 
COc1cccc2c1CCCC2(O)CNC(=O)C1(Cl)CC2CCC1O2

>  <ref_pdb>  (4446) 
A0875a

>  <alias>  (4446) 
YOQRBUNELOEMKK-UHFFFAOYSA-N-P38-P38-P51-601508

>  <HIPPO Pose ID>  (4446) 
514074

>  <name>  (4446) 
YOQRBUNELOEMKK-UHFFFAOYSA-N-P38-P38-P51-601508

>  <HIPPO Compound ID>  (4446) 
290326

>  <ref_mols>  (4446) 
A0239a,A0608a

>  <distance_score>  (4446) 
1.515812

>  <inspiration_score>  (4446) 
None

$$$$
YOQRBUNELOEMKK-UHFFFAOYSA-N-P51-P38-P51-601508
     RDKit          3D

 25 28  0  0  0  0  0  0  0  0999 V2000
   15.2916    9.5664   -1.5956 C   0  0  0  0  0  0  0  0  0  0  0  0
   15.4251   10.6043   -0.6332 O   0  0  0  0  0  0  0  0  0  0  0  0
   16.6808   11.1152   -0.4176 C   0  0  0  0  0  0  0  0  0  0  0  0
   17.8306   10.6722   -1.0658 C   0  0  0  0  0  0  0  0  0  0  0  0
   19.0518   11.2738   -0.7912 C   0  0  0  0  0  0  0  0  0  0  0  0
   19.1384   12.3039    0.1483 C   0  0  0  0  0  0  0  0  0  0  0  0
   18.0111   12.7698    0.8406 C   0  0  0  0  0  0  0  0  0  0  0  0
   16.7618   12.1714    0.5242 C   0  0  0  0  0  0  0  0  0  0  0  0
   15.4800   12.6100    1.1978 C   0  0  0  0  0  0  0  0  0  0  0  0
   15.5682   13.9565    1.8904 C   0  0  0  0  0  0  0  0  0  0  0  0
   16.8469   14.0340    2.7040 C   0  0  0  0  0  0  0  0  0  0  0  0
   18.1023   13.9597    1.7990 C   0  0  2  0  0  0  0  0  0  0  0  0
   18.0700   15.1664    1.0224 O   0  0  0  0  0  0  0  0  0  0  0  0
   19.3076   14.0317    2.7922 C   0  0  0  0  0  0  0  0  0  0  0  0
   20.6647   14.2073    2.3059 N   0  0  0  0  0  0  0  0  0  0  0  0
   21.1994   14.9566    1.0503 C   0  0  0  0  0  0  0  0  0  0  0  0
   20.6223   15.4791    0.1774 O   0  0  0  0  0  0  0  0  0  0  0  0
   22.7467   15.0238    1.1586 C   0  0  1  0  0  0  0  0  0  0  0  0
   23.3953   13.3527    1.2598 Cl  0  0  0  0  0  0  0  0  0  0  0  0
   23.4140   15.7770   -0.0131 C   0  0  0  0  0  0  0  0  0  0  0  0
   24.0243   16.9861    0.6969 C   0  0  1  0  0  0  0  0  0  0  0  0
   22.9434   17.9313    1.2223 C   0  0  0  0  0  0  0  0  0  0  0  0
   22.4470   17.1907    2.4625 C   0  0  0  0  0  0  0  0  0  0  0  0
   23.2075   15.8673    2.3647 C   0  0  2  0  0  0  0  0  0  0  0  0
   24.4933   16.3709    1.9151 O   0  0  0  0  0  0  0  0  0  0  0  0
  1  2  1  0
  2  3  1  0
  3  4  2  0
  4  5  1  0
  5  6  2  0
  6  7  1  0
  7  8  2  0
  8  9  1  0
  9 10  1  0
 10 11  1  0
 11 12  1  0
 12 13  1  6
 12 14  1  0
 14 15  1  0
 15 16  1  0
 16 17  2  0
 16 18  1  0
 18 19  1  1
 18 20  1  0
 21 20  1  6
 21 22  1  0
 22 23  1  0
 24 23  1  6
 24 25  1  0
  8  3  1  0
 24 18  1  0
 12  7  1  0
 25 21  1  0
M  END
>  <energy_score>  (4447) 
-32.624384

>  <inchikey>  (4447) 
YOQRBUNELOEMKK-UHFFFAOYSA-N

>  <smiles>  (4447) 
COc1cccc2c1CCCC2(O)CNC(=O)C1(Cl)CC2CCC1O2

>  <ref_pdb>  (4447) 
A0875a

>  <alias>  (4447) 
YOQRBUNELOEMKK-UHFFFAOYSA-N-P51-P38-P51-601508

>  <HIPPO Pose ID>  (4447) 
514075

>  <name>  (4447) 
YOQRBUNELOEMKK-UHFFFAOYSA-N-P51-P38-P51-601508

>  <HIPPO Compound ID>  (4447) 
290326

>  <ref_mols>  (4447) 
A0239a,A0608a

>  <distance_score>  (4447) 
1.507951

>  <inspiration_score>  (4447) 
None

$$$$
BTQAGCPDPVVRDC-UHFFFAOYSA-N-P38-P38-P51-601508
     RDKit          3D

 25 28  0  0  0  0  0  0  0  0999 V2000
   16.3908    9.4007   -2.9454 C   0  0  0  0  0  0  0  0  0  0  0  0
   17.6793    9.7975   -2.4914 O   0  0  0  0  0  0  0  0  0  0  0  0
   17.7167   10.6954   -1.4627 C   0  0  0  0  0  0  0  0  0  0  0  0
   18.9578   11.2755   -1.2327 C   0  0  0  0  0  0  0  0  0  0  0  0
   19.1283   12.2138   -0.2100 C   0  0  0  0  0  0  0  0  0  0  0  0
   18.0654   12.5977    0.6222 C   0  0  0  0  0  0  0  0  0  0  0  0
   16.8082   11.9996    0.3888 C   0  0  0  0  0  0  0  0  0  0  0  0
   16.6471   11.0572   -0.6497 C   0  0  0  0  0  0  0  0  0  0  0  0
   15.5769   12.3951    1.1607 C   0  0  0  0  0  0  0  0  0  0  0  0
   15.8988   13.0685    2.4821 C   0  0  0  0  0  0  0  0  0  0  0  0
   16.9349   14.1587    2.2854 C   0  0  0  0  0  0  0  0  0  0  0  0
   18.2799   13.6146    1.7406 C   0  0  1  0  0  0  0  0  0  0  0  0
   18.9761   12.9390    2.8037 O   0  0  0  0  0  0  0  0  0  0  0  0
   19.0938   14.8668    1.3116 C   0  0  0  0  0  0  0  0  0  0  0  0
   20.5312   14.7468    1.2506 N   0  0  0  0  0  0  0  0  0  0  0  0
   21.5533   15.3607    0.2536 C   0  0  0  0  0  0  0  0  0  0  0  0
   21.3805   15.9931   -0.7141 O   0  0  0  0  0  0  0  0  0  0  0  0
   22.9844   15.1041    0.7943 C   0  0  1  0  0  0  0  0  0  0  0  0
   23.2759   13.3457    0.9257 Cl  0  0  0  0  0  0  0  0  0  0  0  0
   24.0759   15.7705   -0.0740 C   0  0  0  0  0  0  0  0  0  0  0  0
   24.5846   16.8708    0.8568 C   0  0  1  0  0  0  0  0  0  0  0  0
   23.5141   17.9269    1.1463 C   0  0  0  0  0  0  0  0  0  0  0  0
   22.6359   17.2202    2.1772 C   0  0  0  0  0  0  0  0  0  0  0  0
   23.2143   15.8046    2.1521 C   0  0  2  0  0  0  0  0  0  0  0  0
   24.6244   16.1451    2.1033 O   0  0  0  0  0  0  0  0  0  0  0  0
  1  2  1  0
  2  3  1  0
  3  4  2  0
  4  5  1  0
  5  6  2  0
  6  7  1  0
  7  8  2  0
  7  9  1  0
  9 10  1  0
 10 11  1  0
 11 12  1  0
 12 13  1  1
 12 14  1  0
 14 15  1  0
 15 16  1  0
 16 17  2  0
 16 18  1  0
 18 19  1  1
 18 20  1  0
 21 20  1  6
 21 22  1  0
 22 23  1  0
 24 23  1  6
 24 25  1  0
  8  3  1  0
 24 18  1  0
 12  6  1  0
 25 21  1  0
M  END
>  <energy_score>  (4448) 
-24.129315

>  <inchikey>  (4448) 
BTQAGCPDPVVRDC-UHFFFAOYSA-N

>  <smiles>  (4448) 
COc1ccc2c(c1)CCCC2(O)CNC(=O)C1(Cl)CC2CCC1O2

>  <ref_pdb>  (4448) 
A0875a

>  <alias>  (4448) 
BTQAGCPDPVVRDC-UHFFFAOYSA-N-P38-P38-P51-601508

>  <HIPPO Pose ID>  (4448) 
514076

>  <name>  (4448) 
BTQAGCPDPVVRDC-UHFFFAOYSA-N-P38-P38-P51-601508

>  <HIPPO Compound ID>  (4448) 
290327

>  <ref_mols>  (4448) 
A0239a,A0608a

>  <distance_score>  (4448) 
1.772788

>  <inspiration_score>  (4448) 
None

$$$$
BTQAGCPDPVVRDC-UHFFFAOYSA-N-P51-P38-P51-601508
     RDKit          3D

 25 28  0  0  0  0  0  0  0  0999 V2000
   16.6590    9.7427   -3.0620 C   0  0  0  0  0  0  0  0  0  0  0  0
   17.8799   10.0943   -2.4212 O   0  0  0  0  0  0  0  0  0  0  0  0
   17.7934   10.9685   -1.3746 C   0  0  0  0  0  0  0  0  0  0  0  0
   19.0084   11.2803   -0.7705 C   0  0  0  0  0  0  0  0  0  0  0  0
   19.0706   12.1443    0.3301 C   0  0  0  0  0  0  0  0  0  0  0  0
   17.9191   12.7284    0.8473 C   0  0  0  0  0  0  0  0  0  0  0  0
   16.6963   12.4677    0.1807 C   0  0  0  0  0  0  0  0  0  0  0  0
   16.6338   11.5670   -0.8954 C   0  0  0  0  0  0  0  0  0  0  0  0
   15.4427   13.1671    0.6445 C   0  0  0  0  0  0  0  0  0  0  0  0
   15.7028   14.6221    1.0556 C   0  0  0  0  0  0  0  0  0  0  0  0
   17.1068   14.9237    1.6166 C   0  0  0  0  0  0  0  0  0  0  0  0
   17.8712   13.6649    2.0492 C   0  0  1  0  0  0  0  0  0  0  0  0
   17.0062   13.0383    3.0359 O   0  0  0  0  0  0  0  0  0  0  0  0
   19.1440   14.0257    2.8771 C   0  0  0  0  0  0  0  0  0  0  0  0
   20.4400   14.2449    2.2795 N   0  0  0  0  0  0  0  0  0  0  0  0
   20.8539   15.1106    1.0580 C   0  0  0  0  0  0  0  0  0  0  0  0
   20.1995   15.7159    0.3034 O   0  0  0  0  0  0  0  0  0  0  0  0
   22.4104   15.1481    1.0362 C   0  0  1  0  0  0  0  0  0  0  0  0
   23.0473   13.4600    1.0196 Cl  0  0  0  0  0  0  0  0  0  0  0  0
   23.0046   15.9458   -0.1418 C   0  0  0  0  0  0  0  0  0  0  0  0
   23.7416   17.0753    0.5813 C   0  0  1  0  0  0  0  0  0  0  0  0
   22.7576   18.0454    1.2339 C   0  0  0  0  0  0  0  0  0  0  0  0
   22.2994   17.2578    2.4594 C   0  0  0  0  0  0  0  0  0  0  0  0
   22.9880   15.9100    2.2466 C   0  0  2  0  0  0  0  0  0  0  0  0
   24.2641   16.3756    1.7306 O   0  0  0  0  0  0  0  0  0  0  0  0
  1  2  1  0
  2  3  1  0
  3  4  2  0
  4  5  1  0
  5  6  2  0
  6  7  1  0
  7  8  2  0
  7  9  1  0
  9 10  1  0
 10 11  1  0
 11 12  1  0
 12 13  1  1
 12 14  1  0
 14 15  1  0
 15 16  1  0
 16 17  2  0
 16 18  1  0
 18 19  1  6
 18 20  1  0
 21 20  1  6
 21 22  1  0
 22 23  1  0
 24 23  1  6
 24 25  1  0
  8  3  1  0
 24 18  1  0
 12  6  1  0
 25 21  1  0
M  END
>  <energy_score>  (4449) 
-15.566216

>  <inchikey>  (4449) 
BTQAGCPDPVVRDC-UHFFFAOYSA-N

>  <smiles>  (4449) 
COc1ccc2c(c1)CCCC2(O)CNC(=O)C1(Cl)CC2CCC1O2

>  <ref_pdb>  (4449) 
A0875a

>  <alias>  (4449) 
BTQAGCPDPVVRDC-UHFFFAOYSA-N-P51-P38-P51-601508

>  <HIPPO Pose ID>  (4449) 
514077

>  <name>  (4449) 
BTQAGCPDPVVRDC-UHFFFAOYSA-N-P51-P38-P51-601508

>  <HIPPO Compound ID>  (4449) 
290327

>  <ref_mols>  (4449) 
A0239a,A0608a

>  <distance_score>  (4449) 
1.60711

>  <inspiration_score>  (4449) 
None

$$$$
UURGVZUIMYLALW-UHFFFAOYSA-N-P38-P38-P51-601508
     RDKit          3D

 25 28  0  0  0  0  0  0  0  0999 V2000
   27.6074   11.4232    3.0753 C   0  0  0  0  0  0  0  0  0  0  0  0
   27.7684   11.4318    1.6659 O   0  0  0  0  0  0  0  0  0  0  0  0
   26.6665   11.7564    0.9309 C   0  0  0  0  0  0  0  0  0  0  0  0
   25.3724   11.9249    1.4018 C   0  0  0  0  0  0  0  0  0  0  0  0
   24.3372   12.2242    0.5048 C   0  0  0  0  0  0  0  0  0  0  0  0
   24.5686   12.4017   -0.8611 C   0  0  0  0  0  0  0  0  0  0  0  0
   25.8839   12.2242   -1.3237 C   0  0  0  0  0  0  0  0  0  0  0  0
   26.9142   11.9086   -0.4303 C   0  0  0  0  0  0  0  0  0  0  0  0
   26.1935   12.4594   -2.7792 C   0  0  0  0  0  0  0  0  0  0  0  0
   25.1207   11.8790   -3.6971 C   0  0  0  0  0  0  0  0  0  0  0  0
   23.6869   11.9564   -3.1533 C   0  0  0  0  0  0  0  0  0  0  0  0
   23.5155   12.8203   -1.8854 C   0  0  2  0  0  0  0  0  0  0  0  0
   23.7783   14.1905   -2.2528 O   0  0  0  0  0  0  0  0  0  0  0  0
   22.0241   12.7477   -1.4664 C   0  0  0  0  0  0  0  0  0  0  0  0
   21.7228   13.6492   -0.3848 N   0  0  0  0  0  0  0  0  0  0  0  0
   20.6132   13.5975    0.6813 C   0  0  0  0  0  0  0  0  0  0  0  0
   19.7180   12.8571    0.8076 O   0  0  0  0  0  0  0  0  0  0  0  0
   20.9096   14.6969    1.7414 C   0  0  1  0  0  0  0  0  0  0  0  0
   22.3248   14.7210    2.3661 C   0  0  0  0  0  0  0  0  0  0  0  0
   22.6122   16.0501    1.6558 C   0  0  1  0  0  0  0  0  0  0  0  0
   23.1041   17.2161    2.4905 C   0  0  0  0  0  0  0  0  0  0  0  0
   23.7105   18.1154    1.4313 C   0  0  0  0  0  0  0  0  0  0  0  0
   24.3753   17.1234    0.4951 C   0  0  0  0  0  0  0  0  0  0  0  0
   23.5257   15.9639    0.5283 O   0  0  0  0  0  0  0  0  0  0  0  0
   21.1206   16.1387    1.2581 C   0  0  0  0  0  0  0  0  0  0  0  0
  1  2  1  0
  2  3  1  0
  3  4  2  0
  4  5  1  0
  5  6  2  0
  6  7  1  0
  7  8  2  0
  7  9  1  0
  9 10  1  0
 10 11  1  0
 11 12  1  0
 12 13  1  6
 12 14  1  0
 14 15  1  0
 15 16  1  0
 16 17  2  0
 18 16  1  6
 18 19  1  0
 20 19  1  1
 20 21  1  0
 21 22  1  0
 22 23  1  0
 23 24  1  0
 20 25  1  0
  8  3  1  0
 25 18  1  0
 12  6  1  0
 24 20  1  0
M  END
>  <energy_score>  (4450) 
-36.37821

>  <inchikey>  (4450) 
UURGVZUIMYLALW-UHFFFAOYSA-N

>  <smiles>  (4450) 
COc1ccc2c(c1)CCCC2(O)CNC(=O)C1CC2(CCCO2)C1

>  <ref_pdb>  (4450) 
A0875a

>  <alias>  (4450) 
UURGVZUIMYLALW-UHFFFAOYSA-N-P38-P38-P51-601508

>  <HIPPO Pose ID>  (4450) 
514078

>  <name>  (4450) 
UURGVZUIMYLALW-UHFFFAOYSA-N-P38-P38-P51-601508

>  <HIPPO Compound ID>  (4450) 
290331

>  <ref_mols>  (4450) 
A0239a,A0608a

>  <distance_score>  (4450) 
1.836306

>  <inspiration_score>  (4450) 
None

$$$$
UURGVZUIMYLALW-UHFFFAOYSA-N-P51-P38-P51-601508
     RDKit          3D

 25 28  0  0  0  0  0  0  0  0999 V2000
   27.3536   11.8499    3.0915 C   0  0  0  0  0  0  0  0  0  0  0  0
   27.5148   11.6400    1.6991 O   0  0  0  0  0  0  0  0  0  0  0  0
   26.3955   11.7865    0.9337 C   0  0  0  0  0  0  0  0  0  0  0  0
   25.1394   12.2020    1.3559 C   0  0  0  0  0  0  0  0  0  0  0  0
   24.0793   12.2764    0.4369 C   0  0  0  0  0  0  0  0  0  0  0  0
   24.2425   11.9347   -0.9141 C   0  0  0  0  0  0  0  0  0  0  0  0
   25.5311   11.5377   -1.3250 C   0  0  0  0  0  0  0  0  0  0  0  0
   26.5878   11.4785   -0.4086 C   0  0  0  0  0  0  0  0  0  0  0  0
   25.7917   11.2496   -2.7800 C   0  0  0  0  0  0  0  0  0  0  0  0
   24.6787   10.4216   -3.4133 C   0  0  0  0  0  0  0  0  0  0  0  0
   23.2762   10.6954   -2.8584 C   0  0  0  0  0  0  0  0  0  0  0  0
   23.1522   11.9710   -1.9900 C   0  0  2  0  0  0  0  0  0  0  0  0
   23.4279   13.1241   -2.8155 O   0  0  0  0  0  0  0  0  0  0  0  0
   21.6642   12.0832   -1.5546 C   0  0  0  0  0  0  0  0  0  0  0  0
   21.4624   13.2907   -0.8135 N   0  0  0  0  0  0  0  0  0  0  0  0
   20.6353   13.5588    0.4560 C   0  0  0  0  0  0  0  0  0  0  0  0
   19.9225   12.8552    1.0586 O   0  0  0  0  0  0  0  0  0  0  0  0
   20.9662   14.9942    0.9662 C   0  0  1  0  0  0  0  0  0  0  0  0
   21.6963   15.0238    2.3447 C   0  0  0  0  0  0  0  0  0  0  0  0
   22.4899   16.2499    1.8593 C   0  0  1  0  0  0  0  0  0  0  0  0
   21.9608   17.6286    2.2054 C   0  0  0  0  0  0  0  0  0  0  0  0
   23.1597   18.4978    1.8712 C   0  0  0  0  0  0  0  0  0  0  0  0
   24.3437   17.6465    2.3035 C   0  0  0  0  0  0  0  0  0  0  0  0
   23.9021   16.2900    2.1656 O   0  0  0  0  0  0  0  0  0  0  0  0
   22.1814   15.7934    0.4201 C   0  0  0  0  0  0  0  0  0  0  0  0
  1  2  1  0
  2  3  1  0
  3  4  2  0
  4  5  1  0
  5  6  2  0
  6  7  1  0
  7  8  2  0
  7  9  1  0
  9 10  1  0
 10 11  1  0
 11 12  1  0
 12 13  1  6
 12 14  1  0
 14 15  1  0
 15 16  1  0
 16 17  2  0
 18 16  1  6
 18 19  1  0
 20 19  1  1
 20 21  1  0
 21 22  1  0
 22 23  1  0
 23 24  1  0
 20 25  1  0
  8  3  1  0
 25 18  1  0
 12  6  1  0
 24 20  1  0
M  END
>  <energy_score>  (4451) 
-30.242693

>  <inchikey>  (4451) 
UURGVZUIMYLALW-UHFFFAOYSA-N

>  <smiles>  (4451) 
COc1ccc2c(c1)CCCC2(O)CNC(=O)C1CC2(CCCO2)C1

>  <ref_pdb>  (4451) 
A0875a

>  <alias>  (4451) 
UURGVZUIMYLALW-UHFFFAOYSA-N-P51-P38-P51-601508

>  <HIPPO Pose ID>  (4451) 
514079

>  <name>  (4451) 
UURGVZUIMYLALW-UHFFFAOYSA-N-P51-P38-P51-601508

>  <HIPPO Compound ID>  (4451) 
290331

>  <ref_mols>  (4451) 
A0239a,A0608a

>  <distance_score>  (4451) 
1.905685

>  <inspiration_score>  (4451) 
None

$$$$
SLYIICNVYREAHT-UHFFFAOYSA-N-P51-P38-P51-601508
     RDKit          3D

 26 28  0  0  0  0  0  0  0  0999 V2000
   29.0616    8.7488   -3.2715 C   0  0  0  0  0  0  0  0  0  0  0  0
   28.8272    8.9814   -1.8883 O   0  0  0  0  0  0  0  0  0  0  0  0
   27.8706    9.9081   -1.5773 C   0  0  0  0  0  0  0  0  0  0  0  0
   26.9839   10.4951   -2.4741 C   0  0  0  0  0  0  0  0  0  0  0  0
   26.0646   11.4463   -2.0252 C   0  0  0  0  0  0  0  0  0  0  0  0
   26.0106   11.8274   -0.6732 C   0  0  0  0  0  0  0  0  0  0  0  0
   26.8910   11.2210    0.2401 C   0  0  0  0  0  0  0  0  0  0  0  0
   27.8130   10.2682   -0.2286 C   0  0  0  0  0  0  0  0  0  0  0  0
   26.9422   11.5966    1.7047 C   0  0  0  0  0  0  0  0  0  0  0  0
   25.8605   12.5636    2.1736 C   0  0  0  0  0  0  0  0  0  0  0  0
   25.5024   13.5504    1.0745 C   0  0  0  0  0  0  0  0  0  0  0  0
   24.9904   12.8444   -0.1982 C   0  0  1  0  0  0  0  0  0  0  0  0
   24.7552   13.8320   -1.2179 O   0  0  0  0  0  0  0  0  0  0  0  0
   23.6569   12.1136   -0.0007 C   0  0  0  0  0  0  0  0  0  0  0  0
   22.6141   13.0561    0.2680 N   0  0  0  0  0  0  0  0  0  0  0  0
   22.1627   13.7056    1.6031 C   0  0  0  0  0  0  0  0  0  0  0  0
   22.5210   13.5130    2.6963 O   0  0  0  0  0  0  0  0  0  0  0  0
   21.1762   14.7827    1.2051 C   0  0  0  0  0  0  0  0  0  0  0  0
   20.3319   15.1698    2.1879 F   0  0  0  0  0  0  0  0  0  0  0  0
   20.4037   14.3574    0.1617 F   0  0  0  0  0  0  0  0  0  0  0  0
   22.0163   15.9488    0.7280 C   0  0  0  0  0  0  0  0  0  0  0  0
   22.9455   16.5148    1.8012 C   0  0  2  0  0  0  0  0  0  0  0  0
   22.3260   17.6690    2.5662 C   0  0  0  0  0  0  0  0  0  0  0  0
   22.7515   18.8650    1.7546 C   0  0  0  0  0  0  0  0  0  0  0  0
   24.1377   18.4586    1.3086 C   0  0  0  0  0  0  0  0  0  0  0  0
   24.0950   17.0428    1.1060 O   0  0  0  0  0  0  0  0  0  0  0  0
  1  2  1  0
  2  3  1  0
  3  4  2  0
  4  5  1  0
  5  6  2  0
  6  7  1  0
  7  8  2  0
  7  9  1  0
  9 10  1  0
 10 11  1  0
 11 12  1  0
 12 13  1  6
 12 14  1  0
 14 15  1  0
 15 16  1  0
 16 17  2  0
 16 18  1  0
 18 19  1  0
 18 20  1  0
 18 21  1  0
 22 21  1  6
 22 23  1  0
 23 24  1  0
 24 25  1  0
 25 26  1  0
  8  3  1  0
 26 22  1  0
 12  6  1  0
M  END
>  <energy_score>  (4452) 
-30.154557

>  <inchikey>  (4452) 
SLYIICNVYREAHT-UHFFFAOYSA-N

>  <smiles>  (4452) 
COc1ccc2c(c1)CCCC2(O)CNC(=O)C(F)(F)CC1CCCO1

>  <ref_pdb>  (4452) 
A0875a

>  <alias>  (4452) 
SLYIICNVYREAHT-UHFFFAOYSA-N-P51-P38-P51-601508

>  <HIPPO Pose ID>  (4452) 
514099

>  <name>  (4452) 
SLYIICNVYREAHT-UHFFFAOYSA-N-P51-P38-P51-601508

>  <HIPPO Compound ID>  (4452) 
290346

>  <ref_mols>  (4452) 
A0239a,A0608a

>  <distance_score>  (4452) 
1.978025

>  <inspiration_score>  (4452) 
None

$$$$
WLNUZXIHIMSZOP-UHFFFAOYSA-N-P38-P38-P51-601508
     RDKit          3D

 28 31  0  0  0  0  0  0  0  0999 V2000
   14.9786    9.7921   -0.9398 C   0  0  0  0  0  0  0  0  0  0  0  0
   15.4994   10.4952    0.1863 O   0  0  0  0  0  0  0  0  0  0  0  0
   16.7445   11.0469    0.0192 C   0  0  0  0  0  0  0  0  0  0  0  0
   17.7059   10.5126   -0.8353 C   0  0  0  0  0  0  0  0  0  0  0  0
   18.9226   11.1608   -0.9916 C   0  0  0  0  0  0  0  0  0  0  0  0
   19.2003   12.3164   -0.2593 C   0  0  0  0  0  0  0  0  0  0  0  0
   18.2920   12.8438    0.6722 C   0  0  0  0  0  0  0  0  0  0  0  0
   17.0248   12.2122    0.7711 C   0  0  0  0  0  0  0  0  0  0  0  0
   15.9360   12.7740    1.6564 C   0  0  0  0  0  0  0  0  0  0  0  0
   16.1087   14.2604    1.9159 C   0  0  0  0  0  0  0  0  0  0  0  0
   17.5151   14.5253    2.4249 C   0  0  0  0  0  0  0  0  0  0  0  0
   18.6041   14.1698    1.3792 C   0  0  2  0  0  0  0  0  0  0  0  0
   18.5633   15.2008    0.3714 O   0  0  0  0  0  0  0  0  0  0  0  0
   19.9635   14.3392    2.1423 C   0  0  0  0  0  0  0  0  0  0  0  0
   21.2123   14.1592    1.4352 N   0  0  0  0  0  0  0  0  0  0  0  0
   22.6540   13.9108    1.9751 C   0  0  0  0  0  0  0  0  0  0  0  0
   23.0334   13.7382    3.0659 O   0  0  0  0  0  0  0  0  0  0  0  0
   23.6218   13.8684    0.7570 C   0  0  2  0  0  0  0  0  0  0  0  0
   23.1275   12.9704   -0.3769 C   0  0  0  0  0  0  0  0  0  0  0  0
   24.1615   12.1181   -1.0809 C   0  0  0  0  0  0  0  0  0  0  0  0
   25.5021   12.7971   -1.2903 C   0  0  0  0  0  0  0  0  0  0  0  0
   25.9573   13.7197   -0.1598 C   0  0  0  0  0  0  0  0  0  0  0  0
   25.1204   13.6435    1.1297 C   0  0  2  0  0  0  0  0  0  0  0  0
   25.4866   12.4097    1.9841 C   0  0  2  0  0  0  0  0  0  0  0  0
   26.7385   12.6689    2.8171 C   0  0  0  0  0  0  0  0  0  0  0  0
   27.2264   11.2724    3.0871 C   0  0  0  0  0  0  0  0  0  0  0  0
   26.9479   10.5962    1.7685 C   0  0  0  0  0  0  0  0  0  0  0  0
   25.8040   11.2470    1.1994 O   0  0  0  0  0  0  0  0  0  0  0  0
  1  2  1  0
  2  3  1  0
  3  4  2  0
  4  5  1  0
  5  6  2  0
  6  7  1  0
  7  8  2  0
  8  9  1  0
  9 10  1  0
 10 11  1  0
 11 12  1  0
 12 13  1  6
 12 14  1  0
 14 15  1  0
 15 16  1  0
 16 17  2  0
 18 16  1  1
 18 19  1  0
 19 20  1  0
 20 21  1  0
 21 22  1  0
 23 22  1  6
 23 24  1  0
 24 25  1  6
 25 26  1  0
 26 27  1  0
 27 28  1  0
  8  3  1  0
 23 18  1  0
 28 24  1  0
 12  7  1  0
M  END
>  <energy_score>  (4453) 
-50.705415

>  <inchikey>  (4453) 
WLNUZXIHIMSZOP-UHFFFAOYSA-N

>  <smiles>  (4453) 
COc1cccc2c1CCCC2(O)CNC(=O)C1CCCCC1C1CCCO1

>  <ref_pdb>  (4453) 
A0875a

>  <alias>  (4453) 
WLNUZXIHIMSZOP-UHFFFAOYSA-N-P38-P38-P51-601508

>  <HIPPO Pose ID>  (4453) 
514124

>  <name>  (4453) 
WLNUZXIHIMSZOP-UHFFFAOYSA-N-P38-P38-P51-601508

>  <HIPPO Compound ID>  (4453) 
290376

>  <ref_mols>  (4453) 
A0239a,A0608a

>  <distance_score>  (4453) 
1.700976

>  <inspiration_score>  (4453) 
None

$$$$
WLNUZXIHIMSZOP-UHFFFAOYSA-N-P51-P38-P51-601508
     RDKit          3D

 28 31  0  0  0  0  0  0  0  0999 V2000
   16.2906    9.7183   -1.7318 C   0  0  0  0  0  0  0  0  0  0  0  0
   16.5219   10.6139   -0.6533 O   0  0  0  0  0  0  0  0  0  0  0  0
   17.5615   11.4982   -0.7679 C   0  0  0  0  0  0  0  0  0  0  0  0
   18.4609   11.5256   -1.8343 C   0  0  0  0  0  0  0  0  0  0  0  0
   19.4723   12.4806   -1.8712 C   0  0  0  0  0  0  0  0  0  0  0  0
   19.5932   13.4119   -0.8429 C   0  0  0  0  0  0  0  0  0  0  0  0
   18.7271   13.3898    0.2644 C   0  0  0  0  0  0  0  0  0  0  0  0
   17.6853   12.4289    0.2888 C   0  0  0  0  0  0  0  0  0  0  0  0
   16.7084   12.3441    1.4428 C   0  0  0  0  0  0  0  0  0  0  0  0
   16.7697   13.5027    2.4296 C   0  0  0  0  0  0  0  0  0  0  0  0
   18.2055   13.9714    2.6598 C   0  0  0  0  0  0  0  0  0  0  0  0
   18.8293   14.4644    1.3438 C   0  0  2  0  0  0  0  0  0  0  0  0
   17.9894   15.5622    0.9056 O   0  0  0  0  0  0  0  0  0  0  0  0
   20.2335   15.1166    1.6001 C   0  0  0  0  0  0  0  0  0  0  0  0
   21.4314   14.3062    1.5248 N   0  0  0  0  0  0  0  0  0  0  0  0
   22.9057   14.7064    1.2100 C   0  0  0  0  0  0  0  0  0  0  0  0
   23.3586   15.7350    0.8894 O   0  0  0  0  0  0  0  0  0  0  0  0
   23.7624   13.4151    1.3210 C   0  0  1  0  0  0  0  0  0  0  0  0
   23.3920   12.4512    0.1940 C   0  0  0  0  0  0  0  0  0  0  0  0
   23.9212   12.8661   -1.1636 C   0  0  0  0  0  0  0  0  0  0  0  0
   25.4309   12.9822   -1.1278 C   0  0  0  0  0  0  0  0  0  0  0  0
   25.8744   13.9612   -0.0482 C   0  0  0  0  0  0  0  0  0  0  0  0
   25.2949   13.7020    1.3624 C   0  0  2  0  0  0  0  0  0  0  0  0
   26.0615   12.6090    2.1365 C   0  0  2  0  0  0  0  0  0  0  0  0
   27.4817   13.0116    2.5277 C   0  0  0  0  0  0  0  0  0  0  0  0
   28.1526   11.6700    2.6537 C   0  0  0  0  0  0  0  0  0  0  0  0
   27.5286   10.9166    1.5021 C   0  0  0  0  0  0  0  0  0  0  0  0
   26.1804   11.3910    1.3824 O   0  0  0  0  0  0  0  0  0  0  0  0
  1  2  1  0
  2  3  1  0
  3  4  2  0
  4  5  1  0
  5  6  2  0
  6  7  1  0
  7  8  2  0
  8  9  1  0
  9 10  1  0
 10 11  1  0
 11 12  1  0
 12 13  1  6
 12 14  1  0
 14 15  1  0
 15 16  1  0
 16 17  2  0
 18 16  1  6
 18 19  1  0
 19 20  1  0
 20 21  1  0
 21 22  1  0
 23 22  1  6
 23 24  1  0
 24 25  1  6
 25 26  1  0
 26 27  1  0
 27 28  1  0
  8  3  1  0
 23 18  1  0
 28 24  1  0
 12  7  1  0
M  END
>  <energy_score>  (4454) 
-60.790437

>  <inchikey>  (4454) 
WLNUZXIHIMSZOP-UHFFFAOYSA-N

>  <smiles>  (4454) 
COc1cccc2c1CCCC2(O)CNC(=O)C1CCCCC1C1CCCO1

>  <ref_pdb>  (4454) 
A0875a

>  <alias>  (4454) 
WLNUZXIHIMSZOP-UHFFFAOYSA-N-P51-P38-P51-601508

>  <HIPPO Pose ID>  (4454) 
514125

>  <name>  (4454) 
WLNUZXIHIMSZOP-UHFFFAOYSA-N-P51-P38-P51-601508

>  <HIPPO Compound ID>  (4454) 
290376

>  <ref_mols>  (4454) 
A0239a,A0608a

>  <distance_score>  (4454) 
1.941982

>  <inspiration_score>  (4454) 
None

$$$$
OSDSSPLCWWJAKL-UHFFFAOYSA-N-P51-P38-P51-601508
     RDKit          3D

 28 31  0  0  0  0  0  0  0  0999 V2000
   15.7489    9.0604   -2.1028 C   0  0  0  0  0  0  0  0  0  0  0  0
   17.1187    9.4394   -2.0412 O   0  0  0  0  0  0  0  0  0  0  0  0
   17.4445   10.4421   -1.1732 C   0  0  0  0  0  0  0  0  0  0  0  0
   18.7849   10.8069   -1.1830 C   0  0  0  0  0  0  0  0  0  0  0  0
   19.2378   11.8447   -0.3680 C   0  0  0  0  0  0  0  0  0  0  0  0
   18.3748   12.5611    0.4672 C   0  0  0  0  0  0  0  0  0  0  0  0
   17.0270   12.1525    0.5182 C   0  0  0  0  0  0  0  0  0  0  0  0
   16.5737   11.1048   -0.3110 C   0  0  0  0  0  0  0  0  0  0  0  0
   16.0162   12.8409    1.3974 C   0  0  0  0  0  0  0  0  0  0  0  0
   16.6610   13.6834    2.4872 C   0  0  0  0  0  0  0  0  0  0  0  0
   17.7560   14.5593    1.8928 C   0  0  0  0  0  0  0  0  0  0  0  0
   18.9209   13.7310    1.2831 C   0  0  1  0  0  0  0  0  0  0  0  0
   19.6322   13.1720    2.3879 O   0  0  0  0  0  0  0  0  0  0  0  0
   19.7893   14.7439    0.4259 C   0  0  0  0  0  0  0  0  0  0  0  0
   21.2325   14.5927    0.2272 N   0  0  0  0  0  0  0  0  0  0  0  0
   22.3413   14.1361    1.2092 C   0  0  0  0  0  0  0  0  0  0  0  0
   22.2643   13.7371    2.3022 O   0  0  0  0  0  0  0  0  0  0  0  0
   23.7344   14.3981    0.5289 C   0  0  1  0  0  0  0  0  0  0  0  0
   24.7462   14.7929    1.6478 C   0  0  0  0  0  0  0  0  0  0  0  0
   25.7492   13.7053    2.0543 C   0  0  0  0  0  0  0  0  0  0  0  0
   25.2343   12.3042    1.8034 C   0  0  0  0  0  0  0  0  0  0  0  0
   24.8631   12.0810    0.3409 C   0  0  0  0  0  0  0  0  0  0  0  0
   24.4161   13.3571   -0.3887 C   0  0  1  0  0  0  0  0  0  0  0  0
   23.7839   13.1090   -1.7694 C   0  0  2  0  0  0  0  0  0  0  0  0
   22.4987   12.3063   -1.8335 C   0  0  0  0  0  0  0  0  0  0  0  0
   22.6444   11.5090   -3.1064 C   0  0  0  0  0  0  0  0  0  0  0  0
   24.1245   11.2294   -3.1277 C   0  0  0  0  0  0  0  0  0  0  0  0
   24.7438   12.4027   -2.5898 O   0  0  0  0  0  0  0  0  0  0  0  0
  1  2  1  0
  2  3  1  0
  3  4  2  0
  4  5  1  0
  5  6  2  0
  6  7  1  0
  7  8  2  0
  7  9  1  0
  9 10  1  0
 10 11  1  0
 11 12  1  0
 12 13  1  1
 12 14  1  0
 14 15  1  0
 15 16  1  0
 16 17  2  0
 18 16  1  1
 18 19  1  0
 19 20  1  0
 20 21  1  0
 21 22  1  0
 23 22  1  1
 23 24  1  0
 24 25  1  1
 25 26  1  0
 26 27  1  0
 27 28  1  0
  8  3  1  0
 23 18  1  0
 28 24  1  0
 12  6  1  0
M  END
>  <energy_score>  (4455) 
-26.550565

>  <inchikey>  (4455) 
OSDSSPLCWWJAKL-UHFFFAOYSA-N

>  <smiles>  (4455) 
COc1ccc2c(c1)CCCC2(O)CNC(=O)C1CCCCC1C1CCCO1

>  <ref_pdb>  (4455) 
A0875a

>  <alias>  (4455) 
OSDSSPLCWWJAKL-UHFFFAOYSA-N-P51-P38-P51-601508

>  <HIPPO Pose ID>  (4455) 
514127

>  <name>  (4455) 
OSDSSPLCWWJAKL-UHFFFAOYSA-N-P51-P38-P51-601508

>  <HIPPO Compound ID>  (4455) 
290377

>  <ref_mols>  (4455) 
A0239a,A0608a

>  <distance_score>  (4455) 
1.835925

>  <inspiration_score>  (4455) 
None

$$$$
WBWUXRNBKBEWRQ-UHFFFAOYSA-N-P38-P38-P51-601508
     RDKit          3D

 28 30  0  0  0  0  0  0  0  0999 V2000
   18.7662    9.3714   -3.4238 C   0  0  0  0  0  0  0  0  0  0  0  0
   17.8071    9.4395   -2.3751 O   0  0  0  0  0  0  0  0  0  0  0  0
   17.8822   10.5163   -1.5379 C   0  0  0  0  0  0  0  0  0  0  0  0
   18.9060   11.4551   -1.5080 C   0  0  0  0  0  0  0  0  0  0  0  0
   18.8525   12.5176   -0.6008 C   0  0  0  0  0  0  0  0  0  0  0  0
   17.7866   12.6621    0.3062 C   0  0  0  0  0  0  0  0  0  0  0  0
   16.7237   11.7480    0.2225 C   0  0  0  0  0  0  0  0  0  0  0  0
   16.8025   10.6609   -0.6648 C   0  0  0  0  0  0  0  0  0  0  0  0
   15.4802   11.9336    1.0473 C   0  0  0  0  0  0  0  0  0  0  0  0
   15.2474   13.4086    1.3552 C   0  0  0  0  0  0  0  0  0  0  0  0
   16.4507   13.9578    2.1012 C   0  0  0  0  0  0  0  0  0  0  0  0
   17.7731   13.8125    1.3068 C   0  0  2  0  0  0  0  0  0  0  0  0
   17.9658   15.0288    0.5752 O   0  0  0  0  0  0  0  0  0  0  0  0
   18.8784   13.6274    2.3697 C   0  0  0  0  0  0  0  0  0  0  0  0
   20.2374   13.8585    1.9330 N   0  0  0  0  0  0  0  0  0  0  0  0
   21.1158   15.1160    2.0260 C   0  0  0  0  0  0  0  0  0  0  0  0
   20.9121   16.1432    2.5378 O   0  0  0  0  0  0  0  0  0  0  0  0
   22.4558   14.9244    1.2630 C   0  0  1  0  0  0  0  0  0  0  0  0
   23.4582   15.9320    1.8529 C   0  0  0  0  0  0  0  0  0  0  0  0
   23.2191   17.3154    1.2397 C   0  0  1  0  0  0  0  0  0  0  0  0
   23.9497   18.4174    1.9720 C   0  0  0  0  0  0  0  0  0  0  0  0
   25.3502   18.2737    1.4379 C   0  0  0  0  0  0  0  0  0  0  0  0
   25.1270   17.8132    0.0122 C   0  0  0  0  0  0  0  0  0  0  0  0
   23.7953   17.2867   -0.0779 O   0  0  0  0  0  0  0  0  0  0  0  0
   23.1026   13.5619    1.2386 C   0  0  0  0  0  0  0  0  0  0  0  0
   23.4853   13.1128    2.4454 F   0  0  0  0  0  0  0  0  0  0  0  0
   24.1967   13.5431    0.4389 F   0  0  0  0  0  0  0  0  0  0  0  0
   22.2277   12.6916    0.6836 F   0  0  0  0  0  0  0  0  0  0  0  0
  1  2  1  0
  2  3  1  0
  3  4  2  0
  4  5  1  0
  5  6  2  0
  6  7  1  0
  7  8  2  0
  7  9  1  0
  9 10  1  0
 10 11  1  0
 11 12  1  0
 12 13  1  6
 12 14  1  0
 14 15  1  0
 15 16  1  0
 16 17  2  0
 16 18  1  0
 18 19  1  1
 20 19  1  1
 20 21  1  0
 21 22  1  0
 22 23  1  0
 23 24  1  0
 18 25  1  0
 25 26  1  0
 25 27  1  0
 25 28  1  0
  8  3  1  0
 24 20  1  0
 12  6  1  0
M  END
>  <energy_score>  (4456) 
-22.819151

>  <inchikey>  (4456) 
WBWUXRNBKBEWRQ-UHFFFAOYSA-N

>  <smiles>  (4456) 
COc1ccc2c(c1)CCCC2(O)CNC(=O)C(CC1CCCO1)C(F)(F)F

>  <ref_pdb>  (4456) 
A0875a

>  <alias>  (4456) 
WBWUXRNBKBEWRQ-UHFFFAOYSA-N-P38-P38-P51-601508

>  <HIPPO Pose ID>  (4456) 
514134

>  <name>  (4456) 
WBWUXRNBKBEWRQ-UHFFFAOYSA-N-P38-P38-P51-601508

>  <HIPPO Compound ID>  (4456) 
290384

>  <ref_mols>  (4456) 
A0239a,A0608a

>  <distance_score>  (4456) 
1.61688

>  <inspiration_score>  (4456) 
None

$$$$
WBWUXRNBKBEWRQ-UHFFFAOYSA-N-P51-P38-P51-601508
     RDKit          3D

 28 30  0  0  0  0  0  0  0  0999 V2000
   18.0774    9.8788   -3.2316 C   0  0  0  0  0  0  0  0  0  0  0  0
   17.4709    9.6302   -1.9638 O   0  0  0  0  0  0  0  0  0  0  0  0
   17.7391   10.5990   -1.0399 C   0  0  0  0  0  0  0  0  0  0  0  0
   18.9985   11.1305   -0.8268 C   0  0  0  0  0  0  0  0  0  0  0  0
   19.1767   12.1460    0.1199 C   0  0  0  0  0  0  0  0  0  0  0  0
   18.1153   12.6737    0.8704 C   0  0  0  0  0  0  0  0  0  0  0  0
   16.8399   12.1032    0.6500 C   0  0  0  0  0  0  0  0  0  0  0  0
   16.6756   11.0482   -0.2697 C   0  0  0  0  0  0  0  0  0  0  0  0
   15.6084   12.5744    1.3765 C   0  0  0  0  0  0  0  0  0  0  0  0
   15.7450   13.9869    1.9134 C   0  0  0  0  0  0  0  0  0  0  0  0
   17.0556   14.1169    2.6738 C   0  0  0  0  0  0  0  0  0  0  0  0
   18.2910   13.9141    1.7538 C   0  0  2  0  0  0  0  0  0  0  0  0
   18.3061   15.0633    0.8913 O   0  0  0  0  0  0  0  0  0  0  0  0
   19.5199   14.0098    2.7217 C   0  0  0  0  0  0  0  0  0  0  0  0
   20.8819   14.0509    2.2111 N   0  0  0  0  0  0  0  0  0  0  0  0
   21.4294   14.5245    0.8396 C   0  0  0  0  0  0  0  0  0  0  0  0
   20.8640   14.8818   -0.1185 O   0  0  0  0  0  0  0  0  0  0  0  0
   22.9540   14.5858    0.8917 C   0  0  1  0  0  0  0  0  0  0  0  0
   23.4453   15.5465    1.9848 C   0  0  0  0  0  0  0  0  0  0  0  0
   22.8826   16.9565    1.7655 C   0  0  1  0  0  0  0  0  0  0  0  0
   23.4534   17.9810    2.7208 C   0  0  0  0  0  0  0  0  0  0  0  0
   24.7768   18.3184    2.0812 C   0  0  0  0  0  0  0  0  0  0  0  0
   24.4974   18.1612    0.6029 C   0  0  0  0  0  0  0  0  0  0  0  0
   23.2932   17.3978    0.4651 O   0  0  0  0  0  0  0  0  0  0  0  0
   23.6034   13.2311    0.9784 C   0  0  0  0  0  0  0  0  0  0  0  0
   23.6798   12.7957    2.2512 F   0  0  0  0  0  0  0  0  0  0  0  0
   24.8688   13.2773    0.5022 F   0  0  0  0  0  0  0  0  0  0  0  0
   22.9427   12.3178    0.2369 F   0  0  0  0  0  0  0  0  0  0  0  0
  1  2  1  0
  2  3  1  0
  3  4  2  0
  4  5  1  0
  5  6  2  0
  6  7  1  0
  7  8  2  0
  7  9  1  0
  9 10  1  0
 10 11  1  0
 11 12  1  0
 12 13  1  6
 12 14  1  0
 14 15  1  0
 15 16  1  0
 16 17  2  0
 16 18  1  0
 18 19  1  1
 20 19  1  1
 20 21  1  0
 21 22  1  0
 22 23  1  0
 23 24  1  0
 18 25  1  0
 25 26  1  0
 25 27  1  0
 25 28  1  0
  8  3  1  0
 24 20  1  0
 12  6  1  0
M  END
>  <energy_score>  (4457) 
-21.455466

>  <inchikey>  (4457) 
WBWUXRNBKBEWRQ-UHFFFAOYSA-N

>  <smiles>  (4457) 
COc1ccc2c(c1)CCCC2(O)CNC(=O)C(CC1CCCO1)C(F)(F)F

>  <ref_pdb>  (4457) 
A0875a

>  <alias>  (4457) 
WBWUXRNBKBEWRQ-UHFFFAOYSA-N-P51-P38-P51-601508

>  <HIPPO Pose ID>  (4457) 
514135

>  <name>  (4457) 
WBWUXRNBKBEWRQ-UHFFFAOYSA-N-P51-P38-P51-601508

>  <HIPPO Compound ID>  (4457) 
290384

>  <ref_mols>  (4457) 
A0239a,A0608a

>  <distance_score>  (4457) 
1.378131

>  <inspiration_score>  (4457) 
None

$$$$
GMZSVXPQZFTMBL-UHFFFAOYSA-N-P38-P38-P51-601508
     RDKit          3D

 28 30  0  0  0  0  0  0  0  0999 V2000
   14.7690    9.5534   -1.1891 C   0  0  0  0  0  0  0  0  0  0  0  0
   15.1208   10.4382   -0.1302 O   0  0  0  0  0  0  0  0  0  0  0  0
   16.4060   10.9195   -0.1303 C   0  0  0  0  0  0  0  0  0  0  0  0
   17.4588   10.3132   -0.8079 C   0  0  0  0  0  0  0  0  0  0  0  0
   18.7207   10.8890   -0.7731 C   0  0  0  0  0  0  0  0  0  0  0  0
   18.9478   12.0482   -0.0268 C   0  0  0  0  0  0  0  0  0  0  0  0
   17.9306   12.6667    0.7109 C   0  0  0  0  0  0  0  0  0  0  0  0
   16.6303   12.1017    0.6162 C   0  0  0  0  0  0  0  0  0  0  0  0
   15.4411   12.7465    1.2914 C   0  0  0  0  0  0  0  0  0  0  0  0
   15.6590   14.2169    1.5885 C   0  0  0  0  0  0  0  0  0  0  0  0
   16.9717   14.3819    2.3270 C   0  0  0  0  0  0  0  0  0  0  0  0
   18.1952   13.9777    1.4552 C   0  0  2  0  0  0  0  0  0  0  0  0
   18.3366   15.0283    0.4909 O   0  0  0  0  0  0  0  0  0  0  0  0
   19.3883   14.0349    2.4626 C   0  0  0  0  0  0  0  0  0  0  0  0
   20.7886   14.0659    2.0770 N   0  0  0  0  0  0  0  0  0  0  0  0
   21.4532   14.4279    0.7218 C   0  0  0  0  0  0  0  0  0  0  0  0
   20.9728   14.6814   -0.3130 O   0  0  0  0  0  0  0  0  0  0  0  0
   22.9772   14.5338    0.9150 C   0  0  1  0  0  0  0  0  0  0  0  0
   23.3091   15.6255    1.9460 C   0  0  0  0  0  0  0  0  0  0  0  0
   22.8706   17.0035    1.4566 C   0  0  1  0  0  0  0  0  0  0  0  0
   23.2599   18.1016    2.4379 C   0  0  0  0  0  0  0  0  0  0  0  0
   24.2036   18.9817    1.6530 C   0  0  0  0  0  0  0  0  0  0  0  0
   24.7145   18.0640    0.5742 C   0  0  0  0  0  0  0  0  0  0  0  0
   23.5799   17.2672    0.2351 O   0  0  0  0  0  0  0  0  0  0  0  0
   23.6245   13.2399    1.3096 C   0  0  0  0  0  0  0  0  0  0  0  0
   23.1881   12.8689    2.5292 F   0  0  0  0  0  0  0  0  0  0  0  0
   24.9697   13.3609    1.3988 F   0  0  0  0  0  0  0  0  0  0  0  0
   23.3704   12.2678    0.4157 F   0  0  0  0  0  0  0  0  0  0  0  0
  1  2  1  0
  2  3  1  0
  3  4  2  0
  4  5  1  0
  5  6  2  0
  6  7  1  0
  7  8  2  0
  8  9  1  0
  9 10  1  0
 10 11  1  0
 11 12  1  0
 12 13  1  6
 12 14  1  0
 14 15  1  0
 15 16  1  0
 16 17  2  0
 16 18  1  0
 18 19  1  1
 20 19  1  1
 20 21  1  0
 21 22  1  0
 22 23  1  0
 23 24  1  0
 18 25  1  0
 25 26  1  0
 25 27  1  0
 25 28  1  0
  8  3  1  0
 24 20  1  0
 12  7  1  0
M  END
>  <energy_score>  (4458) 
-30.669655

>  <inchikey>  (4458) 
GMZSVXPQZFTMBL-UHFFFAOYSA-N

>  <smiles>  (4458) 
COc1cccc2c1CCCC2(O)CNC(=O)C(CC1CCCO1)C(F)(F)F

>  <ref_pdb>  (4458) 
A0875a

>  <alias>  (4458) 
GMZSVXPQZFTMBL-UHFFFAOYSA-N-P38-P38-P51-601508

>  <HIPPO Pose ID>  (4458) 
514136

>  <name>  (4458) 
GMZSVXPQZFTMBL-UHFFFAOYSA-N-P38-P38-P51-601508

>  <HIPPO Compound ID>  (4458) 
290385

>  <ref_mols>  (4458) 
A0239a,A0608a

>  <distance_score>  (4458) 
1.383452

>  <inspiration_score>  (4458) 
None

$$$$
GMZSVXPQZFTMBL-UHFFFAOYSA-N-P51-P38-P51-601508
     RDKit          3D

 28 30  0  0  0  0  0  0  0  0999 V2000
   14.8161    9.7391   -1.3061 C   0  0  0  0  0  0  0  0  0  0  0  0
   15.1082   10.7306   -0.3286 O   0  0  0  0  0  0  0  0  0  0  0  0
   16.4197   11.1151   -0.1926 C   0  0  0  0  0  0  0  0  0  0  0  0
   17.4909   10.4761   -0.8102 C   0  0  0  0  0  0  0  0  0  0  0  0
   18.7808   10.9500   -0.6154 C   0  0  0  0  0  0  0  0  0  0  0  0
   19.0125   12.0476    0.2172 C   0  0  0  0  0  0  0  0  0  0  0  0
   17.9703   12.7124    0.8761 C   0  0  0  0  0  0  0  0  0  0  0  0
   16.6507   12.2399    0.6380 C   0  0  0  0  0  0  0  0  0  0  0  0
   15.4459   12.9004    1.2701 C   0  0  0  0  0  0  0  0  0  0  0  0
   15.7150   14.3015    1.7813 C   0  0  0  0  0  0  0  0  0  0  0  0
   17.0014   14.3127    2.5847 C   0  0  0  0  0  0  0  0  0  0  0  0
   18.2349   13.9743    1.7047 C   0  0  2  0  0  0  0  0  0  0  0  0
   18.3833   15.0856    0.8110 O   0  0  0  0  0  0  0  0  0  0  0  0
   19.4315   13.9749    2.7127 C   0  0  0  0  0  0  0  0  0  0  0  0
   20.8229   14.0538    2.2882 N   0  0  0  0  0  0  0  0  0  0  0  0
   21.4383   14.4264    0.9102 C   0  0  0  0  0  0  0  0  0  0  0  0
   20.9211   14.6512   -0.1142 O   0  0  0  0  0  0  0  0  0  0  0  0
   22.9582   14.5910    1.0575 C   0  0  1  0  0  0  0  0  0  0  0  0
   23.2793   15.7044    2.0671 C   0  0  0  0  0  0  0  0  0  0  0  0
   22.8336   17.0658    1.5353 C   0  0  1  0  0  0  0  0  0  0  0  0
   23.2322   18.1961    2.4740 C   0  0  0  0  0  0  0  0  0  0  0  0
   24.2268   19.0109    1.6793 C   0  0  0  0  0  0  0  0  0  0  0  0
   24.6930   18.0585    0.6102 C   0  0  0  0  0  0  0  0  0  0  0  0
   23.5290   17.2937    0.2987 O   0  0  0  0  0  0  0  0  0  0  0  0
   23.6523   13.3161    1.4329 C   0  0  0  0  0  0  0  0  0  0  0  0
   23.2831   12.9544    2.6767 F   0  0  0  0  0  0  0  0  0  0  0  0
   24.9969   13.4625    1.4531 F   0  0  0  0  0  0  0  0  0  0  0  0
   23.3726   12.3244    0.5671 F   0  0  0  0  0  0  0  0  0  0  0  0
  1  2  1  0
  2  3  1  0
  3  4  2  0
  4  5  1  0
  5  6  2  0
  6  7  1  0
  7  8  2  0
  8  9  1  0
  9 10  1  0
 10 11  1  0
 11 12  1  0
 12 13  1  6
 12 14  1  0
 14 15  1  0
 15 16  1  0
 16 17  2  0
 16 18  1  0
 18 19  1  1
 20 19  1  1
 20 21  1  0
 21 22  1  0
 22 23  1  0
 23 24  1  0
 18 25  1  0
 25 26  1  0
 25 27  1  0
 25 28  1  0
  8  3  1  0
 24 20  1  0
 12  7  1  0
M  END
>  <energy_score>  (4459) 
-31.371832

>  <inchikey>  (4459) 
GMZSVXPQZFTMBL-UHFFFAOYSA-N

>  <smiles>  (4459) 
COc1cccc2c1CCCC2(O)CNC(=O)C(CC1CCCO1)C(F)(F)F

>  <ref_pdb>  (4459) 
A0875a

>  <alias>  (4459) 
GMZSVXPQZFTMBL-UHFFFAOYSA-N-P51-P38-P51-601508

>  <HIPPO Pose ID>  (4459) 
514137

>  <name>  (4459) 
GMZSVXPQZFTMBL-UHFFFAOYSA-N-P51-P38-P51-601508

>  <HIPPO Compound ID>  (4459) 
290385

>  <ref_mols>  (4459) 
A0239a,A0608a

>  <distance_score>  (4459) 
1.358471

>  <inspiration_score>  (4459) 
None

$$$$
KZRFYIJWXVJPFT-UHFFFAOYSA-N-P51-P38-P51-601508
     RDKit          3D

 32 35  0  0  0  0  0  0  0  0999 V2000
   13.7591   16.0065    2.9233 C   0  0  0  0  0  0  0  0  0  0  0  0
   13.9039   15.4566    1.6142 O   0  0  0  0  0  0  0  0  0  0  0  0
   15.0081   14.6441    1.5627 C   0  0  0  0  0  0  0  0  0  0  0  0
   14.7998   13.2713    1.6945 C   0  0  0  0  0  0  0  0  0  0  0  0
   15.8796   12.4015    1.6276 C   0  0  0  0  0  0  0  0  0  0  0  0
   17.1639   12.9119    1.4530 C   0  0  0  0  0  0  0  0  0  0  0  0
   17.3954   14.2982    1.3110 C   0  0  0  0  0  0  0  0  0  0  0  0
   16.2871   15.1688    1.3016 C   0  0  0  0  0  0  0  0  0  0  0  0
   16.4656   16.6348    0.9901 C   0  0  0  0  0  0  0  0  0  0  0  0
   17.7124   16.8881    0.1478 C   0  0  0  0  0  0  0  0  0  0  0  0
   18.9304   16.3190    0.8630 C   0  0  0  0  0  0  0  0  0  0  0  0
   18.8214   14.7934    1.0678 C   0  0  2  0  0  0  0  0  0  0  0  0
   19.2745   14.1600   -0.1439 O   0  0  0  0  0  0  0  0  0  0  0  0
   19.7638   14.3697    2.2299 C   0  0  0  0  0  0  0  0  0  0  0  0
   21.1638   14.4398    1.8842 N   0  0  0  0  0  0  0  0  0  0  0  0
   22.1384   15.4676    2.1099 C   0  0  0  0  0  0  0  0  0  0  0  0
   22.0614   16.4980    2.7123 O   0  0  0  0  0  0  0  0  0  0  0  0
   23.4319   15.0970    1.3005 C   0  0  1  0  0  0  0  0  0  0  0  0
   24.6880   15.8906    1.6026 C   0  0  0  0  0  0  0  0  0  0  0  0
   25.3161   14.9552    2.5584 C   0  0  2  0  0  0  0  0  0  0  0  0
   26.6274   14.5730    2.1553 O   0  0  0  0  0  0  0  0  0  0  0  0
   26.6981   13.1430    2.1520 C   0  0  0  0  0  0  0  0  0  0  0  0
   25.3670   12.6140    2.6458 C   0  0  0  0  0  0  0  0  0  0  0  0
   24.3897   13.7655    2.4371 C   0  0  2  0  0  0  0  0  0  0  0  0
   23.6404   13.5956    1.1189 N   0  0  0  0  0  0  0  0  0  0  0  0
   24.1110   13.3241   -0.1799 C   0  0  0  0  0  0  0  0  0  0  0  0
   25.2272   13.2442   -0.6030 O   0  0  0  0  0  0  0  0  0  0  0  0
   22.9989   13.1298   -0.9412 O   0  0  0  0  0  0  0  0  0  0  0  0
   23.0928   12.7703   -2.3424 C   0  0  0  0  0  0  0  0  0  0  0  0
   23.7713   13.8763   -3.1572 C   0  0  0  0  0  0  0  0  0  0  0  0
   21.6332   12.6439   -2.8056 C   0  0  0  0  0  0  0  0  0  0  0  0
   23.7827   11.4141   -2.5243 C   0  0  0  0  0  0  0  0  0  0  0  0
  1  2  1  0
  2  3  1  0
  3  4  2  0
  4  5  1  0
  5  6  2  0
  6  7  1  0
  7  8  2  0
  8  9  1  0
  9 10  1  0
 10 11  1  0
 11 12  1  0
 12 13  1  6
 12 14  1  0
 14 15  1  0
 15 16  1  0
 16 17  2  0
 18 16  1  1
 18 19  1  0
 20 19  1  6
 20 21  1  0
 21 22  1  0
 22 23  1  0
 24 23  1  6
 24 25  1  0
 25 26  1  0
 26 27  2  0
 26 28  1  0
 28 29  1  0
 29 30  1  0
 29 31  1  0
 29 32  1  0
  8  3  1  0
 25 18  1  0
 12  7  1  0
 24 20  1  0
M  END
>  <energy_score>  (4460) 
-1.73504

>  <inchikey>  (4460) 
KZRFYIJWXVJPFT-UHFFFAOYSA-N

>  <smiles>  (4460) 
COc1cccc2c1CCCC2(O)CNC(=O)C1CC2OCCC2N1C(=O)OC(C)(C)C

>  <ref_pdb>  (4460) 
A0875a

>  <alias>  (4460) 
KZRFYIJWXVJPFT-UHFFFAOYSA-N-P51-P38-P51-601508

>  <HIPPO Pose ID>  (4460) 
514165

>  <name>  (4460) 
KZRFYIJWXVJPFT-UHFFFAOYSA-N-P51-P38-P51-601508

>  <HIPPO Compound ID>  (4460) 
290400

>  <ref_mols>  (4460) 
A0239a,A0608a

>  <distance_score>  (4460) 
1.763772

>  <inspiration_score>  (4460) 
None

$$$$
NOZRMKTWAIBZES-UHFFFAOYSA-N-P87-P87-P303-601508
     RDKit          3D

 25 26  0  0  0  0  0  0  0  0999 V2000
    2.7542   12.1946   28.7291 C   0  0  0  0  0  0  0  0  0  0  0  0
    4.1599   12.4002   28.6903 O   0  0  0  0  0  0  0  0  0  0  0  0
    4.6171   12.2136   27.3236 N   0  0  0  0  0  0  0  0  0  0  0  0
    5.7904   11.3511   27.4194 C   0  0  0  0  0  0  0  0  0  0  0  0
    6.6891   11.3829   26.1720 C   0  0  0  0  0  0  0  0  0  0  0  0
    7.0145   12.8193   25.8325 C   0  0  0  0  0  0  0  0  0  0  0  0
    8.1701   12.9510   24.8578 C   0  0  0  0  0  0  0  0  0  0  0  0
    7.8665   13.4547   23.4696 C   0  0  0  0  0  0  0  0  0  0  0  0
    7.1760   12.8489   22.7631 O   0  0  0  0  0  0  0  0  0  0  0  0
    8.6736   14.7293   23.2144 N   0  0  0  0  0  0  0  0  0  0  0  0
    8.7281   15.5762   22.0706 C   0  0  1  0  0  0  0  0  0  0  0  0
    8.3987   17.0155   22.4315 C   0  0  0  0  0  0  0  0  0  0  0  0
    9.9908   15.3859   21.1996 C   0  0  0  0  0  0  0  0  0  0  0  0
   10.4592   13.9776   20.8390 C   0  0  0  0  0  0  0  0  0  0  0  0
   11.9551   13.7097   21.0909 C   0  0  0  0  0  0  0  0  0  0  0  0
   12.2461   13.8869   22.5007 N   0  0  0  0  0  0  0  0  0  0  0  0
   11.4516   12.9440   23.3167 C   0  0  0  0  0  0  0  0  0  0  0  0
   11.8563   12.5610   24.7386 C   0  0  0  0  0  0  0  0  0  0  0  0
   12.8640   11.6588   24.7663 F   0  0  0  0  0  0  0  0  0  0  0  0
   10.7879   11.9859   25.3513 F   0  0  0  0  0  0  0  0  0  0  0  0
   12.1930   13.5890   25.5299 F   0  0  0  0  0  0  0  0  0  0  0  0
   11.9483   15.2929   22.7151 C   0  0  0  0  0  0  0  0  0  0  0  0
   11.2291   16.1168   21.6404 C   0  0  0  0  0  0  0  0  0  0  0  0
    5.6842   13.5045   25.5203 C   0  0  0  0  0  0  0  0  0  0  0  0
    4.8701   13.5573   26.8064 C   0  0  0  0  0  0  0  0  0  0  0  0
  1  2  1  0
  2  3  1  0
  3  4  1  0
  4  5  1  0
  5  6  1  0
  6  7  1  0
  7  8  1  0
  8  9  2  0
  8 10  1  0
 10 11  1  0
 11 12  1  1
 11 13  1  0
 13 14  1  0
 14 15  1  0
 15 16  1  0
 16 17  1  0
 17 18  1  0
 18 19  1  0
 18 20  1  0
 18 21  1  0
 16 22  1  0
 22 23  1  0
  6 24  1  0
 24 25  1  0
 25  3  1  0
 23 13  1  0
M  END
>  <energy_score>  (4461) 
-7.59504

>  <inchikey>  (4461) 
NOZRMKTWAIBZES-UHFFFAOYSA-N

>  <smiles>  (4461) 
CON1CCC(CC(=O)NC(C)C2CCN(CC(F)(F)F)CC2)CC1

>  <ref_pdb>  (4461) 
A0875a

>  <alias>  (4461) 
NOZRMKTWAIBZES-UHFFFAOYSA-N-P87-P87-P303-601508

>  <HIPPO Pose ID>  (4461) 
514244

>  <name>  (4461) 
NOZRMKTWAIBZES-UHFFFAOYSA-N-P87-P87-P303-601508

>  <HIPPO Compound ID>  (4461) 
315068

>  <ref_mols>  (4461) 
A4320a,A0875a

>  <distance_score>  (4461) 
1.627812

>  <inspiration_score>  (4461) 
None

$$$$
GDNQLSPHYOMLJQ-UHFFFAOYSA-N-P87-P87-P303-601508
     RDKit          3D

 25 26  0  0  0  0  0  0  0  0999 V2000
    8.0099   16.6187   22.2481 C   0  0  0  0  0  0  0  0  0  0  0  0
    9.1603   15.7167   22.5837 C   0  0  1  0  0  0  0  0  0  0  0  0
    8.7340   14.6961   23.5153 N   0  0  0  0  0  0  0  0  0  0  0  0
    7.5939   13.6525   23.4121 C   0  0  0  0  0  0  0  0  0  0  0  0
    6.8730   13.4050   22.5282 O   0  0  0  0  0  0  0  0  0  0  0  0
    7.6091   12.8432   24.7210 C   0  0  1  0  0  0  0  0  0  0  0  0
    8.4501   13.3337   25.6784 F   0  0  0  0  0  0  0  0  0  0  0  0
    6.2691   12.5424   25.4182 C   0  0  0  0  0  0  0  0  0  0  0  0
    6.4805   11.2558   26.1990 C   0  0  0  0  0  0  0  0  0  0  0  0
    5.5396   10.9571   27.3713 C   0  0  0  0  0  0  0  0  0  0  0  0
    5.1078   12.1204   28.1326 N   0  0  0  0  0  0  0  0  0  0  0  0
    4.0973   11.7463   29.1140 C   0  0  0  0  0  0  0  0  0  0  0  0
    4.6046   13.1895   27.2752 C   0  0  0  0  0  0  0  0  0  0  0  0
    5.7273   13.6009   26.3540 C   0  0  0  0  0  0  0  0  0  0  0  0
    9.9823   15.3228   21.3385 C   0  0  0  0  0  0  0  0  0  0  0  0
   10.0531   13.8497   21.0594 C   0  0  0  0  0  0  0  0  0  0  0  0
   11.0934   13.0638   21.8519 C   0  0  0  0  0  0  0  0  0  0  0  0
   11.5030   13.8195   22.9824 N   0  0  0  0  0  0  0  0  0  0  0  0
   12.1248   13.1055   24.0731 C   0  0  0  0  0  0  0  0  0  0  0  0
   11.3036   13.2145   25.3538 C   0  0  0  0  0  0  0  0  0  0  0  0
   10.5756   12.0917   25.5393 F   0  0  0  0  0  0  0  0  0  0  0  0
   10.4658   14.2647   25.3670 F   0  0  0  0  0  0  0  0  0  0  0  0
   12.0975   13.3671   26.4290 F   0  0  0  0  0  0  0  0  0  0  0  0
   12.1128   15.0601   22.5655 C   0  0  0  0  0  0  0  0  0  0  0  0
   11.4479   15.7605   21.3982 C   0  0  0  0  0  0  0  0  0  0  0  0
  2  1  1  6
  2  3  1  0
  3  4  1  0
  4  5  2  0
  4  6  1  0
  6  7  1  1
  6  8  1  0
  8  9  1  0
  9 10  1  0
 10 11  1  0
 11 12  1  0
 11 13  1  0
 13 14  1  0
  2 15  1  0
 15 16  1  0
 16 17  1  0
 17 18  1  0
 18 19  1  0
 19 20  1  0
 20 21  1  0
 20 22  1  0
 20 23  1  0
 18 24  1  0
 24 25  1  0
 14  8  1  0
 25 15  1  0
M  END
>  <energy_score>  (4462) 
-7.740444

>  <inchikey>  (4462) 
GDNQLSPHYOMLJQ-UHFFFAOYSA-N

>  <smiles>  (4462) 
CC(NC(=O)C(F)C1CCN(C)CC1)C1CCN(CC(F)(F)F)CC1

>  <ref_pdb>  (4462) 
A0875a

>  <alias>  (4462) 
GDNQLSPHYOMLJQ-UHFFFAOYSA-N-P87-P87-P303-601508

>  <HIPPO Pose ID>  (4462) 
514252

>  <name>  (4462) 
GDNQLSPHYOMLJQ-UHFFFAOYSA-N-P87-P87-P303-601508

>  <HIPPO Compound ID>  (4462) 
315072

>  <ref_mols>  (4462) 
A4320a,A0875a

>  <distance_score>  (4462) 
1.61108

>  <inspiration_score>  (4462) 
None

$$$$
LMRRJVAHFOGNLQ-UHFFFAOYSA-N-P303-P87-P303-601508
     RDKit          3D

 26 27  0  0  0  0  0  0  0  0999 V2000
    3.7205   13.2348   29.2915 C   0  0  0  0  0  0  0  0  0  0  0  0
    4.3153   12.1474   28.4159 C   0  0  0  0  0  0  0  0  0  0  0  0
    5.5833   12.5065   27.7508 N   0  0  0  0  0  0  0  0  0  0  0  0
    5.9622   11.3698   26.9037 C   0  0  0  0  0  0  0  0  0  0  0  0
    7.1352   11.6319   25.9806 C   0  0  0  0  0  0  0  0  0  0  0  0
    6.9623   12.9185   25.1620 C   0  0  0  0  0  0  0  0  0  0  0  0
    8.1024   13.2294   24.1779 C   0  0  1  0  0  0  0  0  0  0  0  0
    8.9299   11.9854   23.8651 C   0  0  0  0  0  0  0  0  0  0  0  0
    7.6416   13.8111   22.8163 C   0  0  0  0  0  0  0  0  0  0  0  0
    6.7052   13.4178   22.2424 O   0  0  0  0  0  0  0  0  0  0  0  0
    8.7022   14.8642   22.4053 N   0  0  0  0  0  0  0  0  0  0  0  0
    8.8810   15.5791   21.1645 C   0  0  1  0  0  0  0  0  0  0  0  0
    8.3941   17.0089   21.1823 C   0  0  0  0  0  0  0  0  0  0  0  0
   10.3113   15.4708   20.6268 C   0  0  0  0  0  0  0  0  0  0  0  0
   10.6816   14.0315   20.5032 C   0  0  0  0  0  0  0  0  0  0  0  0
   11.4053   13.4197   21.7203 C   0  0  0  0  0  0  0  0  0  0  0  0
   11.2443   14.1852   22.9545 N   0  0  0  0  0  0  0  0  0  0  0  0
   11.8709   13.5927   24.1469 C   0  0  0  0  0  0  0  0  0  0  0  0
   11.4650   14.2506   25.4794 C   0  0  0  0  0  0  0  0  0  0  0  0
   11.3139   15.5821   25.4549 F   0  0  0  0  0  0  0  0  0  0  0  0
   12.4270   14.0702   26.3976 F   0  0  0  0  0  0  0  0  0  0  0  0
   10.3222   13.7349   25.9592 F   0  0  0  0  0  0  0  0  0  0  0  0
   11.8575   15.4600   22.6926 C   0  0  0  0  0  0  0  0  0  0  0  0
   11.4614   16.0769   21.3952 C   0  0  0  0  0  0  0  0  0  0  0  0
    6.6989   14.0661   26.1337 C   0  0  0  0  0  0  0  0  0  0  0  0
    5.4531   13.7511   26.9683 C   0  0  0  0  0  0  0  0  0  0  0  0
  1  2  1  0
  2  3  1  0
  3  4  1  0
  4  5  1  0
  5  6  1  0
  6  7  1  0
  7  8  1  6
  7  9  1  0
  9 10  2  0
  9 11  1  0
 11 12  1  0
 12 13  1  1
 12 14  1  0
 14 15  1  0
 15 16  1  0
 16 17  1  0
 17 18  1  0
 18 19  1  0
 19 20  1  0
 19 21  1  0
 19 22  1  0
 17 23  1  0
 23 24  1  0
  6 25  1  0
 25 26  1  0
 26  3  1  0
 24 14  1  0
M  END
>  <energy_score>  (4463) 
-15.954777

>  <inchikey>  (4463) 
LMRRJVAHFOGNLQ-UHFFFAOYSA-N

>  <smiles>  (4463) 
CCN1CCC(C(C)C(=O)NC(C)C2CCN(CC(F)(F)F)CC2)CC1

>  <ref_pdb>  (4463) 
A0875a

>  <alias>  (4463) 
LMRRJVAHFOGNLQ-UHFFFAOYSA-N-P303-P87-P303-601508

>  <HIPPO Pose ID>  (4463) 
514261

>  <name>  (4463) 
LMRRJVAHFOGNLQ-UHFFFAOYSA-N-P303-P87-P303-601508

>  <HIPPO Compound ID>  (4463) 
315076

>  <ref_mols>  (4463) 
A4320a,A0875a

>  <distance_score>  (4463) 
1.524563

>  <inspiration_score>  (4463) 
None

$$$$
WAZRDHBNEBHXJQ-UHFFFAOYSA-N-P303-P87-P303-601508
     RDKit          3D

 27 28  0  0  0  0  0  0  0  0999 V2000
    7.6959   16.1363   21.3040 C   0  0  0  0  0  0  0  0  0  0  0  0
    9.0262   15.6865   21.7561 C   0  0  1  0  0  0  0  0  0  0  0  0
    8.8128   14.6693   22.7457 N   0  0  0  0  0  0  0  0  0  0  0  0
    7.8256   13.4902   22.7702 C   0  0  0  0  0  0  0  0  0  0  0  0
    6.9764   13.2010   22.0278 O   0  0  0  0  0  0  0  0  0  0  0  0
    8.1880   12.5996   23.9397 C   0  0  0  0  0  0  0  0  0  0  0  0
    7.1642   12.6362   25.0532 C   0  0  0  0  0  0  0  0  0  0  0  0
    7.2481   11.3504   25.8676 C   0  0  0  0  0  0  0  0  0  0  0  0
    6.1120   11.2746   26.8637 C   0  0  0  0  0  0  0  0  0  0  0  0
    6.1031   12.4693   27.7413 N   0  0  0  0  0  0  0  0  0  0  0  0
    4.8599   12.3708   28.9146 S   0  0  0  0  0  0  0  0  0  0  0  0
    4.9042   11.0567   29.5183 O   0  0  0  0  0  0  0  0  0  0  0  0
    4.8756   13.5768   29.7099 O   0  0  0  0  0  0  0  0  0  0  0  0
    3.5018   12.4143   28.0873 F   0  0  0  0  0  0  0  0  0  0  0  0
    6.0686   13.7598   26.9844 C   0  0  0  0  0  0  0  0  0  0  0  0
    7.2269   13.8391   25.9864 C   0  0  0  0  0  0  0  0  0  0  0  0
   10.1791   15.4621   20.7868 C   0  0  0  0  0  0  0  0  0  0  0  0
   10.4164   14.0189   20.5328 C   0  0  0  0  0  0  0  0  0  0  0  0
   11.2224   13.2935   21.6445 C   0  0  0  0  0  0  0  0  0  0  0  0
   11.3580   14.0547   22.8554 N   0  0  0  0  0  0  0  0  0  0  0  0
   11.7804   13.3924   24.0632 C   0  0  0  0  0  0  0  0  0  0  0  0
   11.0126   13.9567   25.2569 C   0  0  0  0  0  0  0  0  0  0  0  0
   10.4123   12.9431   25.8868 F   0  0  0  0  0  0  0  0  0  0  0  0
   11.8014   14.6095   26.1206 F   0  0  0  0  0  0  0  0  0  0  0  0
    9.9990   14.7815   24.9489 F   0  0  0  0  0  0  0  0  0  0  0  0
   11.9672   15.3222   22.6369 C   0  0  0  0  0  0  0  0  0  0  0  0
   11.5237   15.9426   21.3488 C   0  0  0  0  0  0  0  0  0  0  0  0
  2  1  1  6
  2  3  1  0
  3  4  1  0
  4  5  2  0
  4  6  1  0
  6  7  1  0
  7  8  1  0
  8  9  1  0
  9 10  1  0
 10 11  1  0
 11 12  2  0
 11 13  2  0
 11 14  1  0
 10 15  1  0
 15 16  1  0
  2 17  1  0
 17 18  1  0
 18 19  1  0
 19 20  1  0
 20 21  1  0
 21 22  1  0
 22 23  1  0
 22 24  1  0
 22 25  1  0
 20 26  1  0
 26 27  1  0
 16  7  1  0
 27 17  1  0
M  END
>  <energy_score>  (4464) 
-14.293555

>  <inchikey>  (4464) 
WAZRDHBNEBHXJQ-UHFFFAOYSA-N

>  <smiles>  (4464) 
CC(NC(=O)CC1CCN(S(=O)(=O)F)CC1)C1CCN(CC(F)(F)F)CC1

>  <ref_pdb>  (4464) 
A0875a

>  <alias>  (4464) 
WAZRDHBNEBHXJQ-UHFFFAOYSA-N-P303-P87-P303-601508

>  <HIPPO Pose ID>  (4464) 
514269

>  <name>  (4464) 
WAZRDHBNEBHXJQ-UHFFFAOYSA-N-P303-P87-P303-601508

>  <HIPPO Compound ID>  (4464) 
315080

>  <ref_mols>  (4464) 
A4320a,A0875a

>  <distance_score>  (4464) 
1.451149

>  <inspiration_score>  (4464) 
None

$$$$
LDANAZMIPXGLEK-UHFFFAOYSA-N-P87-P87-P303-601508
     RDKit          3D

 27 28  0  0  0  0  0  0  0  0999 V2000
    8.6092   17.3261   22.2957 C   0  0  0  0  0  0  0  0  0  0  0  0
    8.7320   15.8554   21.9945 C   0  0  2  0  0  0  0  0  0  0  0  0
    8.4646   15.0067   23.0890 N   0  0  0  0  0  0  0  0  0  0  0  0
    7.6698   13.7013   23.1634 C   0  0  0  0  0  0  0  0  0  0  0  0
    7.0428   13.1535   22.3529 O   0  0  0  0  0  0  0  0  0  0  0  0
    7.8958   13.1011   24.5033 C   0  0  0  0  0  0  0  0  0  0  0  0
    6.6082   12.6550   25.1521 C   0  0  0  0  0  0  0  0  0  0  0  0
    6.9680   11.9578   26.4272 C   0  0  0  0  0  0  0  0  0  0  0  0
    5.7650   11.6751   27.2823 C   0  0  0  0  0  0  0  0  0  0  0  0
    5.2461   12.9860   27.6590 N   0  0  0  0  0  0  0  0  0  0  0  0
    4.4827   13.1029   29.1527 S   0  0  0  0  0  0  0  0  0  0  0  0
    2.9032   12.3457   28.8486 C   0  0  0  0  0  0  0  0  0  0  0  0
    4.2737   14.5085   29.4254 O   0  0  0  0  0  0  0  0  0  0  0  0
    5.2099   12.2700   30.0874 O   0  0  0  0  0  0  0  0  0  0  0  0
    4.6682   13.7648   26.5433 C   0  0  0  0  0  0  0  0  0  0  0  0
    5.4562   13.6679   25.2373 C   0  0  0  0  0  0  0  0  0  0  0  0
    9.9459   15.4181   21.1653 C   0  0  0  0  0  0  0  0  0  0  0  0
   10.0719   13.9298   20.9144 C   0  0  0  0  0  0  0  0  0  0  0  0
   11.0601   13.1495   21.7697 C   0  0  0  0  0  0  0  0  0  0  0  0
   11.1813   13.8005   23.0252 N   0  0  0  0  0  0  0  0  0  0  0  0
   11.8257   13.0354   24.0804 C   0  0  0  0  0  0  0  0  0  0  0  0
   11.1293   13.2514   25.4173 C   0  0  0  0  0  0  0  0  0  0  0  0
   12.0016   13.2124   26.4393 F   0  0  0  0  0  0  0  0  0  0  0  0
   10.4766   14.4272   25.4952 F   0  0  0  0  0  0  0  0  0  0  0  0
   10.2263   12.2741   25.6376 F   0  0  0  0  0  0  0  0  0  0  0  0
   11.7572   15.1095   22.8016 C   0  0  0  0  0  0  0  0  0  0  0  0
   11.3282   15.8699   21.5612 C   0  0  0  0  0  0  0  0  0  0  0  0
  2  1  1  1
  2  3  1  0
  3  4  1  0
  4  5  2  0
  4  6  1  0
  6  7  1  0
  7  8  1  0
  8  9  1  0
  9 10  1  0
 10 11  1  0
 11 12  1  0
 11 13  2  0
 11 14  2  0
 10 15  1  0
 15 16  1  0
  2 17  1  0
 17 18  1  0
 18 19  1  0
 19 20  1  0
 20 21  1  0
 21 22  1  0
 22 23  1  0
 22 24  1  0
 22 25  1  0
 20 26  1  0
 26 27  1  0
 16  7  1  0
 27 17  1  0
M  END
>  <energy_score>  (4465) 
-14.527461

>  <inchikey>  (4465) 
LDANAZMIPXGLEK-UHFFFAOYSA-N

>  <smiles>  (4465) 
CC(NC(=O)CC1CCN(S(C)(=O)=O)CC1)C1CCN(CC(F)(F)F)CC1

>  <ref_pdb>  (4465) 
A0875a

>  <alias>  (4465) 
LDANAZMIPXGLEK-UHFFFAOYSA-N-P87-P87-P303-601508

>  <HIPPO Pose ID>  (4465) 
514270

>  <name>  (4465) 
LDANAZMIPXGLEK-UHFFFAOYSA-N-P87-P87-P303-601508

>  <HIPPO Compound ID>  (4465) 
315081

>  <ref_mols>  (4465) 
A4320a,A0875a

>  <distance_score>  (4465) 
1.645145

>  <inspiration_score>  (4465) 
None

$$$$
LDANAZMIPXGLEK-UHFFFAOYSA-N-P303-P87-P303-601508
     RDKit          3D

 27 28  0  0  0  0  0  0  0  0999 V2000
    8.6669   17.0741   20.7191 C   0  0  0  0  0  0  0  0  0  0  0  0
    9.1389   15.6310   20.8183 C   0  0  2  0  0  0  0  0  0  0  0  0
    8.8034   15.0596   22.0898 N   0  0  0  0  0  0  0  0  0  0  0  0
    7.5534   14.2433   22.5332 C   0  0  0  0  0  0  0  0  0  0  0  0
    6.5769   13.9809   21.9512 O   0  0  0  0  0  0  0  0  0  0  0  0
    7.8913   13.8227   23.9632 C   0  0  0  0  0  0  0  0  0  0  0  0
    6.8021   13.3234   24.9013 C   0  0  0  0  0  0  0  0  0  0  0  0
    7.1408   11.9451   25.4966 C   0  0  0  0  0  0  0  0  0  0  0  0
    6.5313   11.6852   26.8677 C   0  0  0  0  0  0  0  0  0  0  0  0
    5.2493   12.3942   27.0596 N   0  0  0  0  0  0  0  0  0  0  0  0
    4.4484   11.9081   28.4814 S   0  0  0  0  0  0  0  0  0  0  0  0
    2.8836   12.7401   28.3402 C   0  0  0  0  0  0  0  0  0  0  0  0
    5.1786   12.4602   29.6031 O   0  0  0  0  0  0  0  0  0  0  0  0
    4.2057   10.4835   28.3905 O   0  0  0  0  0  0  0  0  0  0  0  0
    5.3557   13.8735   26.8730 C   0  0  0  0  0  0  0  0  0  0  0  0
    6.5711   14.2957   26.0562 C   0  0  0  0  0  0  0  0  0  0  0  0
   10.6332   15.5531   20.4640 C   0  0  0  0  0  0  0  0  0  0  0  0
   11.1243   14.1760   20.2060 C   0  0  0  0  0  0  0  0  0  0  0  0
   11.1914   13.3597   21.5020 C   0  0  0  0  0  0  0  0  0  0  0  0
   11.1983   14.0754   22.7514 N   0  0  0  0  0  0  0  0  0  0  0  0
   11.5235   13.2339   23.8910 C   0  0  0  0  0  0  0  0  0  0  0  0
   10.9567   13.8021   25.1724 C   0  0  0  0  0  0  0  0  0  0  0  0
   11.9095   14.1508   26.0449 F   0  0  0  0  0  0  0  0  0  0  0  0
   10.2175   14.8991   24.9925 F   0  0  0  0  0  0  0  0  0  0  0  0
   10.1354   12.9080   25.7344 F   0  0  0  0  0  0  0  0  0  0  0  0
   11.9332   15.2932   22.6949 C   0  0  0  0  0  0  0  0  0  0  0  0
   11.6698   16.0858   21.4502 C   0  0  0  0  0  0  0  0  0  0  0  0
  2  1  1  1
  2  3  1  0
  3  4  1  0
  4  5  2  0
  4  6  1  0
  6  7  1  0
  7  8  1  0
  8  9  1  0
  9 10  1  0
 10 11  1  0
 11 12  1  0
 11 13  2  0
 11 14  2  0
 10 15  1  0
 15 16  1  0
  2 17  1  0
 17 18  1  0
 18 19  1  0
 19 20  1  0
 20 21  1  0
 21 22  1  0
 22 23  1  0
 22 24  1  0
 22 25  1  0
 20 26  1  0
 26 27  1  0
 16  7  1  0
 27 17  1  0
M  END
>  <energy_score>  (4466) 
-17.633149

>  <inchikey>  (4466) 
LDANAZMIPXGLEK-UHFFFAOYSA-N

>  <smiles>  (4466) 
CC(NC(=O)CC1CCN(S(C)(=O)=O)CC1)C1CCN(CC(F)(F)F)CC1

>  <ref_pdb>  (4466) 
A0875a

>  <alias>  (4466) 
LDANAZMIPXGLEK-UHFFFAOYSA-N-P303-P87-P303-601508

>  <HIPPO Pose ID>  (4466) 
514271

>  <name>  (4466) 
LDANAZMIPXGLEK-UHFFFAOYSA-N-P303-P87-P303-601508

>  <HIPPO Compound ID>  (4466) 
315081

>  <ref_mols>  (4466) 
A4320a,A0875a

>  <distance_score>  (4466) 
1.507372

>  <inspiration_score>  (4466) 
None

$$$$
BUUIOJGRKCCHJF-UHFFFAOYSA-N-P198-P198-P220-601508
     RDKit          3D

 18 18  0  0  0  0  0  0  0  0999 V2000
    7.8303    9.4947   24.4908 C   0  0  0  0  0  0  0  0  0  0  0  0
    7.6632   10.8599   25.1322 C   0  0  1  0  0  0  0  0  0  0  0  0
    8.0989   12.0069   24.2490 C   0  0  0  0  0  0  0  0  0  0  0  0
    9.3330   11.5974   23.4511 C   0  0  0  0  0  0  0  0  0  0  0  0
   10.2103   12.6788   23.2152 N   0  0  0  0  0  0  0  0  0  0  0  0
   10.0134   13.9582   22.4024 C   0  0  0  0  0  0  0  0  0  0  0  0
    9.0739   14.3665   21.8589 O   0  0  0  0  0  0  0  0  0  0  0  0
   11.3630   14.6076   22.4165 C   0  0  0  0  0  0  0  0  0  0  0  0
   12.2452   14.1314   23.3141 F   0  0  0  0  0  0  0  0  0  0  0  0
   11.7615   15.5666   21.5945 C   0  0  0  0  0  0  0  0  0  0  0  0
   10.9278   16.1724   20.6644 C   0  0  0  0  0  0  0  0  0  0  0  0
   10.6969   15.8482   19.3592 C   0  0  0  0  0  0  0  0  0  0  0  0
    9.8673   16.8137   18.8815 O   0  0  0  0  0  0  0  0  0  0  0  0
    9.6238   17.6254   19.9589 C   0  0  0  0  0  0  0  0  0  0  0  0
   10.2407   17.2732   21.0530 N   0  0  0  0  0  0  0  0  0  0  0  0
    6.1493   10.9834   26.0946 S   0  0  0  0  0  0  0  0  0  0  0  0
    5.7377   12.7098   25.9316 C   0  0  0  0  0  0  0  0  0  0  0  0
    4.9861   10.0680   25.3972 O   0  0  0  0  0  0  0  0  0  0  0  0
  2  1  1  6
  2  3  1  0
  3  4  1  0
  4  5  1  0
  5  6  1  0
  6  7  2  0
  6  8  1  0
  8  9  1  0
  8 10  2  3
 10 11  1  0
 11 12  2  0
 12 13  1  0
 13 14  1  0
 14 15  2  0
  2 16  1  0
 16 17  1  6
 16 18  1  0
 15 11  1  0
M  CHG  2  16   1  18  -1
M  END
>  <energy_score>  (4467) 
-12.554361

>  <inchikey>  (4467) 
BUUIOJGRKCCHJF-UHFFFAOYSA-N

>  <smiles>  (4467) 
CC(CCNC(=O)C(F)=Cc1cocn1)[S+](C)[O-]

>  <ref_pdb>  (4467) 
A0875a

>  <alias>  (4467) 
BUUIOJGRKCCHJF-UHFFFAOYSA-N-P198-P198-P220-601508

>  <HIPPO Pose ID>  (4467) 
514308

>  <name>  (4467) 
BUUIOJGRKCCHJF-UHFFFAOYSA-N-P198-P198-P220-601508

>  <HIPPO Compound ID>  (4467) 
294296

>  <ref_mols>  (4467) 
A3568a,A3618a

>  <distance_score>  (4467) 
1.282807

>  <inspiration_score>  (4467) 
None

$$$$
BUUIOJGRKCCHJF-UHFFFAOYSA-N-P220-P198-P220-601508
     RDKit          3D

 18 18  0  0  0  0  0  0  0  0999 V2000
    7.0542   10.1899   24.3332 C   0  0  0  0  0  0  0  0  0  0  0  0
    7.7958   10.9345   25.3865 C   0  0  1  0  0  0  0  0  0  0  0  0
    8.7541   11.9119   24.7245 C   0  0  0  0  0  0  0  0  0  0  0  0
    9.6417   11.2614   23.6487 C   0  0  0  0  0  0  0  0  0  0  0  0
   10.3024   12.3011   22.9379 N   0  0  0  0  0  0  0  0  0  0  0  0
   11.2345   13.4295   23.4430 C   0  0  0  0  0  0  0  0  0  0  0  0
   11.6658   13.6339   24.5072 O   0  0  0  0  0  0  0  0  0  0  0  0
   11.4199   14.3278   22.2793 C   0  0  0  0  0  0  0  0  0  0  0  0
   12.6235   14.8385   21.9932 F   0  0  0  0  0  0  0  0  0  0  0  0
   10.2711   14.7985   21.7912 C   0  0  0  0  0  0  0  0  0  0  0  0
   10.0760   15.7546   20.8052 C   0  0  0  0  0  0  0  0  0  0  0  0
   10.4828   15.7847   19.5054 C   0  0  0  0  0  0  0  0  0  0  0  0
    9.9161   16.8979   18.9715 O   0  0  0  0  0  0  0  0  0  0  0  0
    9.2118   17.4617   19.9899 C   0  0  0  0  0  0  0  0  0  0  0  0
    9.2290   16.7744   21.0987 N   0  0  0  0  0  0  0  0  0  0  0  0
    6.6310   11.6628   26.5867 S   0  0  0  0  0  0  0  0  0  0  0  0
    6.0823   13.1089   25.6919 C   0  0  0  0  0  0  0  0  0  0  0  0
    5.3114   10.6703   26.7241 O   0  0  0  0  0  0  0  0  0  0  0  0
  2  1  1  6
  2  3  1  0
  3  4  1  0
  4  5  1  0
  5  6  1  0
  6  7  2  0
  6  8  1  0
  8  9  1  0
  8 10  2  3
 10 11  1  0
 11 12  2  0
 12 13  1  0
 13 14  1  0
 14 15  2  0
  2 16  1  0
 16 17  1  6
 16 18  1  0
 15 11  1  0
M  CHG  2  16   1  18  -1
M  END
>  <energy_score>  (4468) 
-11.160853

>  <inchikey>  (4468) 
BUUIOJGRKCCHJF-UHFFFAOYSA-N

>  <smiles>  (4468) 
CC(CCNC(=O)C(F)=Cc1cocn1)[S+](C)[O-]

>  <ref_pdb>  (4468) 
A0875a

>  <alias>  (4468) 
BUUIOJGRKCCHJF-UHFFFAOYSA-N-P220-P198-P220-601508

>  <HIPPO Pose ID>  (4468) 
514309

>  <name>  (4468) 
BUUIOJGRKCCHJF-UHFFFAOYSA-N-P220-P198-P220-601508

>  <HIPPO Compound ID>  (4468) 
294296

>  <ref_mols>  (4468) 
A3568a,A3618a

>  <distance_score>  (4468) 
1.610456

>  <inspiration_score>  (4468) 
None

$$$$
REPSIAZRRLACJT-UHFFFAOYSA-N-P144-P144-P198-601508
     RDKit          3D

 20 23  0  0  0  0  0  0  0  0999 V2000
   10.9728   11.9467   23.8475 O   0  0  0  0  0  0  0  0  0  0  0  0
   10.0103   12.5755   23.6601 C   0  0  0  0  0  0  0  0  0  0  0  0
    9.8349   13.9686   23.0206 N   0  0  0  0  0  0  0  0  0  0  0  0
   10.7991   14.9024   22.5728 C   0  0  1  0  0  0  0  0  0  0  0  0
   11.8606   14.7604   21.4877 C   0  0  0  0  0  0  0  0  0  0  0  0
   10.6220   15.4730   21.2314 C   0  0  0  0  0  0  0  0  0  0  0  0
    9.6407   15.3298   20.1589 C   0  0  0  0  0  0  0  0  0  0  0  0
    9.9991   16.6903   20.7275 C   0  0  0  0  0  0  0  0  0  0  0  0
    8.6726   12.0869   24.1720 C   0  0  0  0  0  0  0  0  0  0  0  0
    8.4903   10.8236   24.7468 C   0  0  0  0  0  0  0  0  0  0  0  0
    7.4036   10.6023   25.6205 C   0  0  0  0  0  0  0  0  0  0  0  0
    6.5785   11.6705   25.8840 C   0  0  0  0  0  0  0  0  0  0  0  0
    6.7316   12.8027   25.1288 C   0  0  0  0  0  0  0  0  0  0  0  0
    7.7429   13.0564   24.2656 N   0  0  0  0  0  0  0  0  0  0  0  0
    5.5807   13.7110   25.2395 C   0  0  0  0  0  0  0  0  0  0  0  0
    5.3819   14.6550   24.5093 O   0  0  0  0  0  0  0  0  0  0  0  0
    4.6971   13.2381   26.2265 N   0  0  0  0  0  0  0  0  0  0  0  0
    5.3202   11.9507   27.0554 S   0  0  0  0  0  0  0  0  0  0  0  0
    5.9254   12.4864   28.2462 O   0  0  0  0  0  0  0  0  0  0  0  0
    4.3758   10.8708   27.1220 O   0  0  0  0  0  0  0  0  0  0  0  0
  1  2  2  0
  2  3  1  0
  4  3  1  6
  4  5  1  0
  5  6  1  0
  6  7  1  0
  7  8  1  0
  2  9  1  0
  9 10  2  0
 10 11  1  0
 11 12  2  0
 12 13  1  0
 13 14  2  0
 13 15  1  0
 15 16  2  0
 15 17  1  0
 17 18  1  0
 18 19  2  0
 18 20  2  0
  6  4  1  0
 14  9  1  0
  8  6  1  0
 18 12  1  0
M  END
>  <energy_score>  (4469) 
-4.197698

>  <inchikey>  (4469) 
REPSIAZRRLACJT-UHFFFAOYSA-N

>  <smiles>  (4469) 
O=C(NC1CC12CC2)c1ccc2c(n1)C(=O)NS2(=O)=O

>  <ref_pdb>  (4469) 
A0875a

>  <alias>  (4469) 
REPSIAZRRLACJT-UHFFFAOYSA-N-P144-P144-P198-601508

>  <HIPPO Pose ID>  (4469) 
514344

>  <name>  (4469) 
REPSIAZRRLACJT-UHFFFAOYSA-N-P144-P144-P198-601508

>  <HIPPO Compound ID>  (4469) 
293888

>  <ref_mols>  (4469) 
A3181a,A3618a

>  <distance_score>  (4469) 
1.90079

>  <inspiration_score>  (4469) 
None

$$$$
REPSIAZRRLACJT-UHFFFAOYSA-N-P198-P144-P198-601508
     RDKit          3D

 20 23  0  0  0  0  0  0  0  0999 V2000
   10.4329   11.6323   23.4215 O   0  0  0  0  0  0  0  0  0  0  0  0
    9.5386   12.3677   23.5252 C   0  0  0  0  0  0  0  0  0  0  0  0
    9.4603   13.8861   23.2752 N   0  0  0  0  0  0  0  0  0  0  0  0
   10.4711   14.8142   22.9431 C   0  0  1  0  0  0  0  0  0  0  0  0
   11.6389   14.6242   21.9788 C   0  0  0  0  0  0  0  0  0  0  0  0
   10.4660   15.3819   21.5943 C   0  0  0  0  0  0  0  0  0  0  0  0
    9.6210   15.3280   20.4093 C   0  0  0  0  0  0  0  0  0  0  0  0
    9.9745   16.6489   21.0847 C   0  0  0  0  0  0  0  0  0  0  0  0
    8.2242   11.8911   24.0737 C   0  0  0  0  0  0  0  0  0  0  0  0
    8.0123   10.5984   24.5616 C   0  0  0  0  0  0  0  0  0  0  0  0
    6.8885   10.3405   25.3740 C   0  0  0  0  0  0  0  0  0  0  0  0
    6.0479   11.3946   25.6486 C   0  0  0  0  0  0  0  0  0  0  0  0
    6.2729   12.5823   25.0140 C   0  0  0  0  0  0  0  0  0  0  0  0
    7.3319   12.8819   24.2383 N   0  0  0  0  0  0  0  0  0  0  0  0
    5.2957   13.6137   25.3491 C   0  0  0  0  0  0  0  0  0  0  0  0
    5.4383   14.7910   25.1055 O   0  0  0  0  0  0  0  0  0  0  0  0
    4.2556   13.0606   26.1202 N   0  0  0  0  0  0  0  0  0  0  0  0
    4.7086   11.5800   26.7436 S   0  0  0  0  0  0  0  0  0  0  0  0
    5.2107   11.8634   28.0627 O   0  0  0  0  0  0  0  0  0  0  0  0
    3.6731   10.6241   26.4812 O   0  0  0  0  0  0  0  0  0  0  0  0
  1  2  2  0
  2  3  1  0
  4  3  1  6
  4  5  1  0
  5  6  1  0
  6  7  1  0
  7  8  1  0
  2  9  1  0
  9 10  2  0
 10 11  1  0
 11 12  2  0
 12 13  1  0
 13 14  2  0
 13 15  1  0
 15 16  2  0
 15 17  1  0
 17 18  1  0
 18 19  2  0
 18 20  2  0
  6  4  1  0
 14  9  1  0
  8  6  1  0
 18 12  1  0
M  END
>  <energy_score>  (4470) 
-10.94

>  <inchikey>  (4470) 
REPSIAZRRLACJT-UHFFFAOYSA-N

>  <smiles>  (4470) 
O=C(NC1CC12CC2)c1ccc2c(n1)C(=O)NS2(=O)=O

>  <ref_pdb>  (4470) 
A0875a

>  <alias>  (4470) 
REPSIAZRRLACJT-UHFFFAOYSA-N-P198-P144-P198-601508

>  <HIPPO Pose ID>  (4470) 
514345

>  <name>  (4470) 
REPSIAZRRLACJT-UHFFFAOYSA-N-P198-P144-P198-601508

>  <HIPPO Compound ID>  (4470) 
293888

>  <ref_mols>  (4470) 
A3181a,A3618a

>  <distance_score>  (4470) 
1.997303

>  <inspiration_score>  (4470) 
None

$$$$
UUWBOPJCTCLVMT-UHFFFAOYSA-N-P144-P144-P198-601508
     RDKit          3D

 20 23  0  0  0  0  0  0  0  0999 V2000
    6.5886    8.9542   25.1048 O   0  0  0  0  0  0  0  0  0  0  0  0
    7.5288    9.5635   24.6097 C   0  0  0  0  0  0  0  0  0  0  0  0
    8.3518    8.9860   23.6949 N   0  0  0  0  0  0  0  0  0  0  0  0
    9.6556    9.4948   23.3675 C   0  0  0  0  0  0  0  0  0  0  0  0
    9.7390   11.0184   23.3698 C   0  0  0  0  0  0  0  0  0  0  0  0
    8.9050   11.6665   24.3800 N   0  0  0  0  0  0  0  0  0  0  0  0
    7.7847   11.0020   24.8950 C   0  0  0  0  0  0  0  0  0  0  0  0
    6.8207   11.6001   25.6001 C   0  0  0  0  0  0  0  0  0  0  0  0
    6.9276   13.0395   25.7950 C   0  0  0  0  0  0  0  0  0  0  0  0
    6.0492   13.6219   26.4077 O   0  0  0  0  0  0  0  0  0  0  0  0
    8.1196   13.7506   25.3068 C   0  0  0  0  0  0  0  0  0  0  0  0
    9.0430   13.0301   24.6575 C   0  0  0  0  0  0  0  0  0  0  0  0
   10.3116   13.8029   24.4031 C   0  0  0  0  0  0  0  0  0  0  0  0
   11.0778   13.9997   25.2598 O   0  0  0  0  0  0  0  0  0  0  0  0
   10.2929   14.3024   22.9453 N   0  0  0  0  0  0  0  0  0  0  0  0
   11.1437   15.2066   22.2754 C   0  0  1  0  0  0  0  0  0  0  0  0
   12.0125   14.9604   21.0506 C   0  0  0  0  0  0  0  0  0  0  0  0
   10.7504   15.6722   20.9432 C   0  0  0  0  0  0  0  0  0  0  0  0
    9.6003   15.4685   20.0687 C   0  0  0  0  0  0  0  0  0  0  0  0
   10.0581   16.8612   20.4617 C   0  0  0  0  0  0  0  0  0  0  0  0
  1  2  2  0
  2  3  1  0
  3  4  1  0
  4  5  1  0
  5  6  1  0
  6  7  1  0
  7  8  2  0
  8  9  1  0
  9 10  2  0
  9 11  1  0
 11 12  2  0
 12 13  1  0
 13 14  2  0
 13 15  1  0
 16 15  1  6
 16 17  1  0
 17 18  1  0
 18 19  1  0
 19 20  1  0
  7  2  1  0
 18 16  1  0
 12  6  1  0
 20 18  1  0
M  END
>  <energy_score>  (4471) 
-59.661969

>  <inchikey>  (4471) 
UUWBOPJCTCLVMT-UHFFFAOYSA-N

>  <smiles>  (4471) 
O=C1NCCn2c1cc(=O)cc2C(=O)NC1CC12CC2

>  <ref_pdb>  (4471) 
A0875a

>  <alias>  (4471) 
UUWBOPJCTCLVMT-UHFFFAOYSA-N-P144-P144-P198-601508

>  <HIPPO Pose ID>  (4471) 
514362

>  <name>  (4471) 
UUWBOPJCTCLVMT-UHFFFAOYSA-N-P144-P144-P198-601508

>  <HIPPO Compound ID>  (4471) 
293897

>  <ref_mols>  (4471) 
A3181a,A3618a

>  <distance_score>  (4471) 
1.579939

>  <inspiration_score>  (4471) 
None

$$$$
UUWBOPJCTCLVMT-UHFFFAOYSA-N-P198-P144-P198-601508
     RDKit          3D

 20 23  0  0  0  0  0  0  0  0999 V2000
    6.7638    9.0252   25.0976 O   0  0  0  0  0  0  0  0  0  0  0  0
    7.5824    9.7337   24.5279 C   0  0  0  0  0  0  0  0  0  0  0  0
    8.4618    9.2401   23.6228 N   0  0  0  0  0  0  0  0  0  0  0  0
    9.6931    9.8870   23.2817 C   0  0  0  0  0  0  0  0  0  0  0  0
    9.6959   11.4225   23.3758 C   0  0  0  0  0  0  0  0  0  0  0  0
    8.6521   12.0017   24.2269 N   0  0  0  0  0  0  0  0  0  0  0  0
    7.6057   11.2048   24.7114 C   0  0  0  0  0  0  0  0  0  0  0  0
    6.5186   11.6763   25.3286 C   0  0  0  0  0  0  0  0  0  0  0  0
    6.4232   13.1159   25.5037 C   0  0  0  0  0  0  0  0  0  0  0  0
    5.4162   13.5865   26.0023 O   0  0  0  0  0  0  0  0  0  0  0  0
    7.5676   13.9600   25.1377 C   0  0  0  0  0  0  0  0  0  0  0  0
    8.6191   13.3660   24.5563 C   0  0  0  0  0  0  0  0  0  0  0  0
    9.7964   14.3049   24.4700 C   0  0  0  0  0  0  0  0  0  0  0  0
   10.2676   14.7626   25.4315 O   0  0  0  0  0  0  0  0  0  0  0  0
   10.1069   14.5639   22.9893 N   0  0  0  0  0  0  0  0  0  0  0  0
   10.9787   15.4908   22.3858 C   0  0  1  0  0  0  0  0  0  0  0  0
   11.9907   15.2255   21.2794 C   0  0  0  0  0  0  0  0  0  0  0  0
   10.7161   15.8446   20.9913 C   0  0  0  0  0  0  0  0  0  0  0  0
    9.6799   15.4907   20.0343 C   0  0  0  0  0  0  0  0  0  0  0  0
    9.9719   16.9417   20.4014 C   0  0  0  0  0  0  0  0  0  0  0  0
  1  2  2  0
  2  3  1  0
  3  4  1  0
  4  5  1  0
  5  6  1  0
  6  7  1  0
  7  8  2  0
  8  9  1  0
  9 10  2  0
  9 11  1  0
 11 12  2  0
 12 13  1  0
 13 14  2  0
 13 15  1  0
 16 15  1  6
 16 17  1  0
 17 18  1  0
 18 19  1  0
 19 20  1  0
  7  2  1  0
 18 16  1  0
 12  6  1  0
 20 18  1  0
M  END
>  <energy_score>  (4472) 
-56.564476

>  <inchikey>  (4472) 
UUWBOPJCTCLVMT-UHFFFAOYSA-N

>  <smiles>  (4472) 
O=C1NCCn2c1cc(=O)cc2C(=O)NC1CC12CC2

>  <ref_pdb>  (4472) 
A0875a

>  <alias>  (4472) 
UUWBOPJCTCLVMT-UHFFFAOYSA-N-P198-P144-P198-601508

>  <HIPPO Pose ID>  (4472) 
514363

>  <name>  (4472) 
UUWBOPJCTCLVMT-UHFFFAOYSA-N-P198-P144-P198-601508

>  <HIPPO Compound ID>  (4472) 
293897

>  <ref_mols>  (4472) 
A3181a,A3618a

>  <distance_score>  (4472) 
1.671059

>  <inspiration_score>  (4472) 
None

$$$$
HMXIRPLTZUMXEI-UHFFFAOYSA-N-P144-P144-P198-601508
     RDKit          3D

 21 24  0  0  0  0  0  0  0  0999 V2000
    6.6107    8.9555   25.1131 O   0  0  0  0  0  0  0  0  0  0  0  0
    7.5300    9.5910   24.6121 C   0  0  0  0  0  0  0  0  0  0  0  0
    8.3610    9.0319   23.6945 N   0  0  0  0  0  0  0  0  0  0  0  0
    9.6605    9.5580   23.3861 C   0  0  0  0  0  0  0  0  0  0  0  0
    9.7398   11.0843   23.4027 C   0  0  0  0  0  0  0  0  0  0  0  0
    8.8380   11.7400   24.3543 N   0  0  0  0  0  0  0  0  0  0  0  0
    7.7517   11.0366   24.8939 C   0  0  0  0  0  0  0  0  0  0  0  0
    6.7860   11.6005   25.6245 C   0  0  0  0  0  0  0  0  0  0  0  0
    6.8517   13.0402   25.8311 C   0  0  0  0  0  0  0  0  0  0  0  0
    5.9685   13.5890   26.4672 O   0  0  0  0  0  0  0  0  0  0  0  0
    8.0065   13.7946   25.3220 C   0  0  0  0  0  0  0  0  0  0  0  0
    8.9341   13.1132   24.6393 C   0  0  0  0  0  0  0  0  0  0  0  0
   10.1613   13.9343   24.3349 C   0  0  0  0  0  0  0  0  0  0  0  0
   10.8932   14.2699   25.1801 O   0  0  0  0  0  0  0  0  0  0  0  0
   10.2239   14.1600   22.8082 N   0  0  0  0  0  0  0  0  0  0  0  0
   11.2374   14.7572   22.0003 C   0  0  0  0  0  0  0  0  0  0  0  0
   10.7758   15.8674   21.0503 C   0  0  0  0  0  0  0  0  0  0  0  0
    9.4042   15.9282   20.4504 C   0  0  0  0  0  0  0  0  0  0  0  0
   10.5756   15.6371   19.5677 C   0  0  0  0  0  0  0  0  0  0  0  0
   12.3121   13.8206   21.5080 C   0  0  0  0  0  0  0  0  0  0  0  0
   12.6574   14.8371   22.5263 C   0  0  0  0  0  0  0  0  0  0  0  0
  1  2  2  0
  2  3  1  0
  3  4  1  0
  4  5  1  0
  5  6  1  0
  6  7  1  0
  7  8  2  0
  8  9  1  0
  9 10  2  0
  9 11  1  0
 11 12  2  0
 12 13  1  0
 13 14  2  0
 13 15  1  0
 15 16  1  0
 16 17  1  0
 17 18  1  0
 18 19  1  0
 16 20  1  0
 20 21  1  0
  7  2  1  0
 21 16  1  0
 12  6  1  0
 19 17  1  0
M  END
>  <energy_score>  (4473) 
-50.580088

>  <inchikey>  (4473) 
HMXIRPLTZUMXEI-UHFFFAOYSA-N

>  <smiles>  (4473) 
O=C1NCCn2c1cc(=O)cc2C(=O)NC1(C2CC2)CC1

>  <ref_pdb>  (4473) 
A0875a

>  <alias>  (4473) 
HMXIRPLTZUMXEI-UHFFFAOYSA-N-P144-P144-P198-601508

>  <HIPPO Pose ID>  (4473) 
514440

>  <name>  (4473) 
HMXIRPLTZUMXEI-UHFFFAOYSA-N-P144-P144-P198-601508

>  <HIPPO Compound ID>  (4473) 
293938

>  <ref_mols>  (4473) 
A3181a,A3618a

>  <distance_score>  (4473) 
1.588258

>  <inspiration_score>  (4473) 
None

$$$$
HMXIRPLTZUMXEI-UHFFFAOYSA-N-P198-P144-P198-601508
     RDKit          3D

 21 24  0  0  0  0  0  0  0  0999 V2000
    6.6933    9.0037   25.1314 O   0  0  0  0  0  0  0  0  0  0  0  0
    7.5382    9.6463   24.5245 C   0  0  0  0  0  0  0  0  0  0  0  0
    8.4061    9.0672   23.6606 N   0  0  0  0  0  0  0  0  0  0  0  0
    9.6376    9.6468   23.2188 C   0  0  0  0  0  0  0  0  0  0  0  0
    9.7063   11.1715   23.2700 C   0  0  0  0  0  0  0  0  0  0  0  0
    8.6053   11.8464   23.9558 N   0  0  0  0  0  0  0  0  0  0  0  0
    7.5962   11.1224   24.5965 C   0  0  0  0  0  0  0  0  0  0  0  0
    6.5654   11.6739   25.2448 C   0  0  0  0  0  0  0  0  0  0  0  0
    6.5165   13.1274   25.3059 C   0  0  0  0  0  0  0  0  0  0  0  0
    5.5804   13.6684   25.8677 O   0  0  0  0  0  0  0  0  0  0  0  0
    7.6393   13.9065   24.7664 C   0  0  0  0  0  0  0  0  0  0  0  0
    8.6209   13.2287   24.1579 C   0  0  0  0  0  0  0  0  0  0  0  0
    9.8642   14.0481   23.9979 C   0  0  0  0  0  0  0  0  0  0  0  0
   10.3880   14.4869   24.9457 O   0  0  0  0  0  0  0  0  0  0  0  0
   10.2073   14.2082   22.4982 N   0  0  0  0  0  0  0  0  0  0  0  0
   11.1964   15.0082   21.8554 C   0  0  0  0  0  0  0  0  0  0  0  0
   11.3777   14.9113   20.3395 C   0  0  0  0  0  0  0  0  0  0  0  0
   11.0545   16.0911   19.4372 C   0  0  0  0  0  0  0  0  0  0  0  0
   10.2415   14.8821   19.3836 C   0  0  0  0  0  0  0  0  0  0  0  0
   12.4440   15.3421   22.6258 C   0  0  0  0  0  0  0  0  0  0  0  0
   11.3663   16.3551   22.5090 C   0  0  0  0  0  0  0  0  0  0  0  0
  1  2  2  0
  2  3  1  0
  3  4  1  0
  4  5  1  0
  5  6  1  0
  6  7  1  0
  7  8  2  0
  8  9  1  0
  9 10  2  0
  9 11  1  0
 11 12  2  0
 12 13  1  0
 13 14  2  0
 13 15  1  0
 15 16  1  0
 16 17  1  0
 17 18  1  0
 18 19  1  0
 16 20  1  0
 20 21  1  0
  7  2  1  0
 21 16  1  0
 12  6  1  0
 19 17  1  0
M  END
>  <energy_score>  (4474) 
-39.255335

>  <inchikey>  (4474) 
HMXIRPLTZUMXEI-UHFFFAOYSA-N

>  <smiles>  (4474) 
O=C1NCCn2c1cc(=O)cc2C(=O)NC1(C2CC2)CC1

>  <ref_pdb>  (4474) 
A0875a

>  <alias>  (4474) 
HMXIRPLTZUMXEI-UHFFFAOYSA-N-P198-P144-P198-601508

>  <HIPPO Pose ID>  (4474) 
514441

>  <name>  (4474) 
HMXIRPLTZUMXEI-UHFFFAOYSA-N-P198-P144-P198-601508

>  <HIPPO Compound ID>  (4474) 
293938

>  <ref_mols>  (4474) 
A3181a,A3618a

>  <distance_score>  (4474) 
1.574243

>  <inspiration_score>  (4474) 
None

$$$$
NIMMAWQOMIGURD-UHFFFAOYSA-N-P198-P144-P198-601508
     RDKit          3D

 22 24  0  0  0  0  0  0  0  0999 V2000
    0.6033   12.6926   28.0459 C   0  0  0  0  0  0  0  0  0  0  0  0
    1.7252   11.7058   28.3432 C   0  0  0  0  0  0  0  0  0  0  0  0
    2.8322   12.0138   27.4862 N   0  0  0  0  0  0  0  0  0  0  0  0
    4.3563   11.9405   27.7472 C   0  0  0  0  0  0  0  0  0  0  0  0
    4.9448   11.6922   28.7229 O   0  0  0  0  0  0  0  0  0  0  0  0
    5.0669   12.3670   26.4963 C   0  0  0  0  0  0  0  0  0  0  0  0
    4.5903   13.5409   25.8988 C   0  0  0  0  0  0  0  0  0  0  0  0
    5.1048   13.9390   24.6844 C   0  0  0  0  0  0  0  0  0  0  0  0
    6.1086   13.1795   24.1340 C   0  0  0  0  0  0  0  0  0  0  0  0
    6.6005   12.0847   24.8515 C   0  0  0  0  0  0  0  0  0  0  0  0
    7.9862   11.7057   24.4484 C   0  0  0  0  0  0  0  0  0  0  0  0
    8.3060   10.6348   24.1340 O   0  0  0  0  0  0  0  0  0  0  0  0
    8.7814   13.0219   24.4549 N   0  0  0  0  0  0  0  0  0  0  0  0
   10.0858   13.3084   23.9945 C   0  0  1  0  0  0  0  0  0  0  0  0
   10.2619   13.4785   22.4878 C   0  0  0  0  0  0  0  0  0  0  0  0
   11.5280   14.3598   22.4001 C   0  0  1  0  0  0  0  0  0  0  0  0
   11.7453   15.0504   21.0571 C   0  0  0  0  0  0  0  0  0  0  0  0
   10.6050   15.8069   20.6698 O   0  0  0  0  0  0  0  0  0  0  0  0
   11.3569   15.3202   23.5604 C   0  0  2  0  0  0  0  0  0  0  0  0
   11.7693   14.9775   24.9786 C   0  0  0  0  0  0  0  0  0  0  0  0
   10.4060   14.6760   24.5117 C   0  0  2  0  0  0  0  0  0  0  0  0
    6.1030   11.6347   26.0275 N   0  0  0  0  0  0  0  0  0  0  0  0
  1  2  1  0
  2  3  1  0
  3  4  1  0
  4  5  2  0
  4  6  1  0
  6  7  2  0
  7  8  1  0
  8  9  2  0
  9 10  1  0
 10 11  1  0
 11 12  2  0
 11 13  1  0
 14 13  1  6
 14 15  1  0
 15 16  1  0
 16 17  1  6
 17 18  1  0
 16 19  1  0
 19 20  1  1
 21 20  1  1
 10 22  2  0
 22  6  1  0
 21 14  1  0
 21 19  1  0
M  END
>  <energy_score>  (4475) 
-9.944331

>  <inchikey>  (4475) 
NIMMAWQOMIGURD-UHFFFAOYSA-N

>  <smiles>  (4475) 
CCNC(=O)c1cccc(C(=O)NC2CC(CO)C3CC23)n1

>  <ref_pdb>  (4475) 
A0875a

>  <alias>  (4475) 
NIMMAWQOMIGURD-UHFFFAOYSA-N-P198-P144-P198-601508

>  <HIPPO Pose ID>  (4475) 
514511

>  <name>  (4475) 
NIMMAWQOMIGURD-UHFFFAOYSA-N-P198-P144-P198-601508

>  <HIPPO Compound ID>  (4475) 
293973

>  <ref_mols>  (4475) 
A3181a,A3618a

>  <distance_score>  (4475) 
1.814681

>  <inspiration_score>  (4475) 
None

$$$$
BSQMCQZJYSVXRV-UHFFFAOYSA-N-P144-P144-P198-601508
     RDKit          3D

 22 23  0  0  0  0  0  0  0  0999 V2000
    9.5252    8.9637   23.1912 C   0  0  0  0  0  0  0  0  0  0  0  0
    8.9240   10.0351   23.9274 N   0  0  0  0  0  0  0  0  0  0  0  0
    7.6720   10.0548   24.8184 C   0  0  0  0  0  0  0  0  0  0  0  0
    6.9749    9.1886   25.1572 O   0  0  0  0  0  0  0  0  0  0  0  0
    7.3911   11.4806   25.2444 C   0  0  0  0  0  0  0  0  0  0  0  0
    8.2759   12.3936   24.7311 N   0  0  0  0  0  0  0  0  0  0  0  0
    8.0717   13.6809   25.1273 C   0  0  0  0  0  0  0  0  0  0  0  0
    9.1740   14.6399   24.8634 C   0  0  0  0  0  0  0  0  0  0  0  0
    9.2908   15.5870   25.5264 O   0  0  0  0  0  0  0  0  0  0  0  0
   10.0223   14.1357   23.6998 N   0  0  0  0  0  0  0  0  0  0  0  0
   11.1406   14.7318   23.0385 C   0  0  0  0  0  0  0  0  0  0  0  0
   11.0539   14.7129   21.5049 C   0  0  1  0  0  0  0  0  0  0  0  0
    9.8140   15.3499   20.9279 C   0  0  0  0  0  0  0  0  0  0  0  0
    9.8552   15.9912   19.5520 C   0  0  0  0  0  0  0  0  0  0  0  0
    9.5844   16.8311   20.7651 C   0  0  0  0  0  0  0  0  0  0  0  0
   12.1954   15.2543   20.7924 N   0  0  0  0  0  0  0  0  0  0  0  0
   12.6444   14.3574   19.7654 C   0  0  0  0  0  0  0  0  0  0  0  0
   13.2368   15.8074   21.5998 C   0  0  0  0  0  0  0  0  0  0  0  0
    7.0031   14.1253   25.8804 C   0  0  0  0  0  0  0  0  0  0  0  0
    6.1303   13.1779   26.3762 C   0  0  0  0  0  0  0  0  0  0  0  0
    6.3511   11.8301   26.1124 C   0  0  0  0  0  0  0  0  0  0  0  0
    5.3979   10.7378   27.0252 Cl  0  0  0  0  0  0  0  0  0  0  0  0
  1  2  1  0
  2  3  1  0
  3  4  2  0
  3  5  1  0
  5  6  2  0
  6  7  1  0
  7  8  1  0
  8  9  2  0
  8 10  1  0
 10 11  1  0
 12 11  1  1
 12 13  1  0
 13 14  1  0
 14 15  1  0
 12 16  1  0
 16 17  1  0
 16 18  1  0
  7 19  2  0
 19 20  1  0
 20 21  2  0
 21 22  1  0
 21  5  1  0
 15 13  1  0
M  END
>  <energy_score>  (4476) 
-11.737518

>  <inchikey>  (4476) 
BSQMCQZJYSVXRV-UHFFFAOYSA-N

>  <smiles>  (4476) 
CNC(=O)c1nc(C(=O)NCC(C2CC2)N(C)C)ccc1Cl

>  <ref_pdb>  (4476) 
A0875a

>  <alias>  (4476) 
BSQMCQZJYSVXRV-UHFFFAOYSA-N-P144-P144-P198-601508

>  <HIPPO Pose ID>  (4476) 
514558

>  <name>  (4476) 
BSQMCQZJYSVXRV-UHFFFAOYSA-N-P144-P144-P198-601508

>  <HIPPO Compound ID>  (4476) 
293997

>  <ref_mols>  (4476) 
A3181a,A3618a

>  <distance_score>  (4476) 
1.835576

>  <inspiration_score>  (4476) 
None

$$$$
BSQMCQZJYSVXRV-UHFFFAOYSA-N-P198-P144-P198-601508
     RDKit          3D

 22 23  0  0  0  0  0  0  0  0999 V2000
    9.5452    9.0654   23.1781 C   0  0  0  0  0  0  0  0  0  0  0  0
    8.7694   10.1528   23.7004 N   0  0  0  0  0  0  0  0  0  0  0  0
    7.5812   10.1535   24.6772 C   0  0  0  0  0  0  0  0  0  0  0  0
    6.9960    9.2689   25.1518 O   0  0  0  0  0  0  0  0  0  0  0  0
    7.2032   11.5762   25.0072 C   0  0  0  0  0  0  0  0  0  0  0  0
    8.1489   12.4882   24.6185 N   0  0  0  0  0  0  0  0  0  0  0  0
    7.8838   13.7888   24.9366 C   0  0  0  0  0  0  0  0  0  0  0  0
    8.9649   14.7723   24.6413 C   0  0  0  0  0  0  0  0  0  0  0  0
    8.8669   15.8866   24.9508 O   0  0  0  0  0  0  0  0  0  0  0  0
   10.0654   14.0535   23.8674 N   0  0  0  0  0  0  0  0  0  0  0  0
   11.2342   14.5642   23.2266 C   0  0  0  0  0  0  0  0  0  0  0  0
   11.1360   14.3841   21.6943 C   0  0  1  0  0  0  0  0  0  0  0  0
    9.8563   14.9301   21.1184 C   0  0  0  0  0  0  0  0  0  0  0  0
    9.8261   15.9898   20.0422 C   0  0  0  0  0  0  0  0  0  0  0  0
    9.2771   16.2923   21.3999 C   0  0  0  0  0  0  0  0  0  0  0  0
   12.3181   14.8270   21.0026 N   0  0  0  0  0  0  0  0  0  0  0  0
   12.3809   14.5102   19.5951 C   0  0  0  0  0  0  0  0  0  0  0  0
   12.8130   16.1121   21.4039 C   0  0  0  0  0  0  0  0  0  0  0  0
    6.7267   14.2299   25.5444 C   0  0  0  0  0  0  0  0  0  0  0  0
    5.7906   13.2796   25.9170 C   0  0  0  0  0  0  0  0  0  0  0  0
    6.0296   11.9280   25.6796 C   0  0  0  0  0  0  0  0  0  0  0  0
    4.8549   10.8398   26.2940 Cl  0  0  0  0  0  0  0  0  0  0  0  0
  1  2  1  0
  2  3  1  0
  3  4  2  0
  3  5  1  0
  5  6  2  0
  6  7  1  0
  7  8  1  0
  8  9  2  0
  8 10  1  0
 10 11  1  0
 12 11  1  1
 12 13  1  0
 13 14  1  0
 14 15  1  0
 12 16  1  0
 16 17  1  0
 16 18  1  0
  7 19  2  0
 19 20  1  0
 20 21  2  0
 21 22  1  0
 21  5  1  0
 15 13  1  0
M  END
>  <energy_score>  (4477) 
-12.144152

>  <inchikey>  (4477) 
BSQMCQZJYSVXRV-UHFFFAOYSA-N

>  <smiles>  (4477) 
CNC(=O)c1nc(C(=O)NCC(C2CC2)N(C)C)ccc1Cl

>  <ref_pdb>  (4477) 
A0875a

>  <alias>  (4477) 
BSQMCQZJYSVXRV-UHFFFAOYSA-N-P198-P144-P198-601508

>  <HIPPO Pose ID>  (4477) 
514559

>  <name>  (4477) 
BSQMCQZJYSVXRV-UHFFFAOYSA-N-P198-P144-P198-601508

>  <HIPPO Compound ID>  (4477) 
293997

>  <ref_mols>  (4477) 
A3181a,A3618a

>  <distance_score>  (4477) 
1.840598

>  <inspiration_score>  (4477) 
None

$$$$
VRCGBSZUTBKSSW-UHFFFAOYSA-N-P144-P144-P198-601508
     RDKit          3D

 22 25  0  0  0  0  0  0  0  0999 V2000
   10.9626   11.9483   23.8302 O   0  0  0  0  0  0  0  0  0  0  0  0
    9.9978   12.5741   23.6493 C   0  0  0  0  0  0  0  0  0  0  0  0
    9.8171   13.9771   23.0361 N   0  0  0  0  0  0  0  0  0  0  0  0
   10.7814   14.9291   22.6103 C   0  0  1  0  0  0  0  0  0  0  0  0
   11.9100   14.8822   21.6000 C   0  0  0  0  0  0  0  0  0  0  0  0
   12.3542   13.6755   21.1302 F   0  0  0  0  0  0  0  0  0  0  0  0
   13.0215   15.6639   21.8238 F   0  0  0  0  0  0  0  0  0  0  0  0
   10.6476   15.4763   21.2426 C   0  0  0  0  0  0  0  0  0  0  0  0
    9.7147   15.2970   20.1346 C   0  0  0  0  0  0  0  0  0  0  0  0
    9.9699   16.6694   20.7372 C   0  0  0  0  0  0  0  0  0  0  0  0
    8.6590   12.0660   24.1447 C   0  0  0  0  0  0  0  0  0  0  0  0
    8.4989   10.8099   24.7393 C   0  0  0  0  0  0  0  0  0  0  0  0
    7.4225   10.5895   25.6251 C   0  0  0  0  0  0  0  0  0  0  0  0
    6.5910   11.6525   25.8862 C   0  0  0  0  0  0  0  0  0  0  0  0
    6.7015   12.7562   25.0873 C   0  0  0  0  0  0  0  0  0  0  0  0
    7.7079   13.0166   24.2175 N   0  0  0  0  0  0  0  0  0  0  0  0
    5.5858   13.6930   25.2706 C   0  0  0  0  0  0  0  0  0  0  0  0
    5.5351   14.7997   24.7843 O   0  0  0  0  0  0  0  0  0  0  0  0
    4.6350   13.1487   26.1663 N   0  0  0  0  0  0  0  0  0  0  0  0
    5.3206   11.9205   27.0490 S   0  0  0  0  0  0  0  0  0  0  0  0
    5.8841   12.5492   28.2148 O   0  0  0  0  0  0  0  0  0  0  0  0
    4.4385   10.7920   27.1605 O   0  0  0  0  0  0  0  0  0  0  0  0
  1  2  2  0
  2  3  1  0
  4  3  1  6
  4  5  1  0
  5  6  1  0
  5  7  1  0
  5  8  1  0
  8  9  1  0
  9 10  1  0
  2 11  1  0
 11 12  2  0
 12 13  1  0
 13 14  2  0
 14 15  1  0
 15 16  2  0
 15 17  1  0
 17 18  2  0
 17 19  1  0
 19 20  1  0
 20 21  2  0
 20 22  2  0
  8  4  1  0
 16 11  1  0
 10  8  1  0
 20 14  1  0
M  END
>  <energy_score>  (4478) 
-1.55513

>  <inchikey>  (4478) 
VRCGBSZUTBKSSW-UHFFFAOYSA-N

>  <smiles>  (4478) 
O=C(NC1C(F)(F)C12CC2)c1ccc2c(n1)C(=O)NS2(=O)=O

>  <ref_pdb>  (4478) 
A0875a

>  <alias>  (4478) 
VRCGBSZUTBKSSW-UHFFFAOYSA-N-P144-P144-P198-601508

>  <HIPPO Pose ID>  (4478) 
514590

>  <name>  (4478) 
VRCGBSZUTBKSSW-UHFFFAOYSA-N-P144-P144-P198-601508

>  <HIPPO Compound ID>  (4478) 
294013

>  <ref_mols>  (4478) 
A3181a,A3618a

>  <distance_score>  (4478) 
1.937896

>  <inspiration_score>  (4478) 
None

$$$$
CNNQMYHQBHKRGB-UHFFFAOYSA-N-P198-P144-P198-601508
     RDKit          3D

 22 25  0  0  0  0  0  0  0  0999 V2000
   10.5577   12.0245   23.4637 O   0  0  0  0  0  0  0  0  0  0  0  0
    9.5537   12.6096   23.4039 C   0  0  0  0  0  0  0  0  0  0  0  0
    9.2553   14.0334   22.8901 N   0  0  0  0  0  0  0  0  0  0  0  0
   10.1525   15.0757   22.4275 C   0  0  1  0  0  0  0  0  0  0  0  0
   11.3837   14.7500   21.5575 C   0  0  0  0  0  0  0  0  0  0  0  0
   10.8561   15.6735   20.4946 C   0  0  2  0  0  0  0  0  0  0  0  0
   10.9630   15.2048   19.0752 C   0  0  0  0  0  0  0  0  0  0  0  0
   10.0308   15.8751   18.2370 O   0  0  0  0  0  0  0  0  0  0  0  0
   10.2217   17.0255   20.7520 C   0  0  0  0  0  0  0  0  0  0  0  0
    9.5767   15.7931   21.2647 C   0  0  2  0  0  0  0  0  0  0  0  0
    8.2821   12.0288   23.9758 C   0  0  0  0  0  0  0  0  0  0  0  0
    8.1592   10.7350   24.4874 C   0  0  0  0  0  0  0  0  0  0  0  0
    7.0527   10.4135   25.3052 C   0  0  0  0  0  0  0  0  0  0  0  0
    6.1462   11.4138   25.5737 C   0  0  0  0  0  0  0  0  0  0  0  0
    6.2811   12.5962   24.9068 C   0  0  0  0  0  0  0  0  0  0  0  0
    7.3050   12.9433   24.1027 N   0  0  0  0  0  0  0  0  0  0  0  0
    5.2358   13.5657   25.2259 C   0  0  0  0  0  0  0  0  0  0  0  0
    5.2848   14.7417   24.9433 O   0  0  0  0  0  0  0  0  0  0  0  0
    4.2462   12.9640   26.0266 N   0  0  0  0  0  0  0  0  0  0  0  0
    4.8046   11.5326   26.6766 S   0  0  0  0  0  0  0  0  0  0  0  0
    3.8359   10.5027   26.4410 O   0  0  0  0  0  0  0  0  0  0  0  0
    5.2939   11.8800   27.9855 O   0  0  0  0  0  0  0  0  0  0  0  0
  1  2  2  0
  2  3  1  0
  4  3  1  6
  4  5  1  0
  5  6  1  0
  6  7  1  6
  7  8  1  0
  6  9  1  0
 10  9  1  1
  2 11  1  0
 11 12  2  0
 12 13  1  0
 13 14  2  0
 14 15  1  0
 15 16  2  0
 15 17  1  0
 17 18  2  0
 17 19  1  0
 19 20  1  0
 20 21  2  0
 20 22  2  0
 10  4  1  0
 16 11  1  0
 10  6  1  0
 20 14  1  0
M  END
>  <energy_score>  (4479) 
-13.870781

>  <inchikey>  (4479) 
CNNQMYHQBHKRGB-UHFFFAOYSA-N

>  <smiles>  (4479) 
O=C(NC1CC2(CO)CC12)c1ccc2c(n1)C(=O)NS2(=O)=O

>  <ref_pdb>  (4479) 
A0875a

>  <alias>  (4479) 
CNNQMYHQBHKRGB-UHFFFAOYSA-N-P198-P144-P198-601508

>  <HIPPO Pose ID>  (4479) 
514597

>  <name>  (4479) 
CNNQMYHQBHKRGB-UHFFFAOYSA-N-P198-P144-P198-601508

>  <HIPPO Compound ID>  (4479) 
294016

>  <ref_mols>  (4479) 
A3181a,A3618a

>  <distance_score>  (4479) 
1.86499

>  <inspiration_score>  (4479) 
None

$$$$
AJSWZFZJIDPAEX-UHFFFAOYSA-N-P144-P144-P198-601508
     RDKit          3D

 22 23  0  0  0  0  0  0  0  0999 V2000
    9.4842    8.7769   23.3922 C   0  0  0  0  0  0  0  0  0  0  0  0
    8.7139    9.9054   23.8112 N   0  0  0  0  0  0  0  0  0  0  0  0
    7.6419   10.0318   24.9061 C   0  0  0  0  0  0  0  0  0  0  0  0
    7.1625    9.2224   25.5866 O   0  0  0  0  0  0  0  0  0  0  0  0
    7.2519   11.4810   25.0417 C   0  0  0  0  0  0  0  0  0  0  0  0
    7.9448   12.2775   24.1790 N   0  0  0  0  0  0  0  0  0  0  0  0
    7.5762   13.5820   24.1466 C   0  0  0  0  0  0  0  0  0  0  0  0
    8.4404   14.4411   23.3019 C   0  0  0  0  0  0  0  0  0  0  0  0
    8.1590   15.5440   23.0728 O   0  0  0  0  0  0  0  0  0  0  0  0
    9.6985   13.6419   22.9450 N   0  0  0  0  0  0  0  0  0  0  0  0
   10.9204   14.0572   22.3115 C   0  0  1  0  0  0  0  0  0  0  0  0
   10.6016   15.1511   21.3119 C   0  0  0  0  0  0  0  0  0  0  0  0
   11.7443   15.3479   20.4203 N   0  0  0  0  0  0  0  0  0  0  0  0
   11.6584   14.9233   19.2637 O   0  0  0  0  0  0  0  0  0  0  0  0
   12.6934   15.9616   20.9125 O   0  0  0  0  0  0  0  0  0  0  0  0
   11.9054   14.4204   23.4135 C   0  0  0  0  0  0  0  0  0  0  0  0
   12.2664   13.3779   24.4500 C   0  0  0  0  0  0  0  0  0  0  0  0
   11.5294   14.6132   24.8728 C   0  0  0  0  0  0  0  0  0  0  0  0
    6.6084   14.1512   24.9465 C   0  0  0  0  0  0  0  0  0  0  0  0
    5.9714   13.3269   25.8624 C   0  0  0  0  0  0  0  0  0  0  0  0
    6.2898   11.9698   25.9273 C   0  0  0  0  0  0  0  0  0  0  0  0
    5.4603   11.0447   27.1095 Cl  0  0  0  0  0  0  0  0  0  0  0  0
  1  2  1  0
  2  3  1  0
  3  4  2  0
  3  5  1  0
  5  6  2  0
  6  7  1  0
  7  8  1  0
  8  9  2  0
  8 10  1  0
 10 11  1  0
 11 12  1  6
 12 13  1  0
 13 14  2  0
 13 15  1  0
 11 16  1  0
 16 17  1  0
 17 18  1  0
  7 19  2  0
 19 20  1  0
 20 21  2  0
 21 22  1  0
 21  5  1  0
 18 16  1  0
M  CHG  2  13   1  15  -1
M  END
>  <energy_score>  (4480) 
-12.890717

>  <inchikey>  (4480) 
AJSWZFZJIDPAEX-UHFFFAOYSA-N

>  <smiles>  (4480) 
CNC(=O)c1nc(C(=O)NC(C[N+](=O)[O-])C2CC2)ccc1Cl

>  <ref_pdb>  (4480) 
A0875a

>  <alias>  (4480) 
AJSWZFZJIDPAEX-UHFFFAOYSA-N-P144-P144-P198-601508

>  <HIPPO Pose ID>  (4480) 
514600

>  <name>  (4480) 
AJSWZFZJIDPAEX-UHFFFAOYSA-N-P144-P144-P198-601508

>  <HIPPO Compound ID>  (4480) 
294018

>  <ref_mols>  (4480) 
A3181a,A3618a

>  <distance_score>  (4480) 
1.843986

>  <inspiration_score>  (4480) 
None

$$$$
AJSWZFZJIDPAEX-UHFFFAOYSA-N-P198-P144-P198-601508
     RDKit          3D

 22 23  0  0  0  0  0  0  0  0999 V2000
    9.7089    9.0963   23.1944 C   0  0  0  0  0  0  0  0  0  0  0  0
    8.8875   10.2150   23.5391 N   0  0  0  0  0  0  0  0  0  0  0  0
    7.7362   10.3330   24.5443 C   0  0  0  0  0  0  0  0  0  0  0  0
    7.2211    9.5226   25.1968 O   0  0  0  0  0  0  0  0  0  0  0  0
    7.2312   11.7592   24.5608 C   0  0  0  0  0  0  0  0  0  0  0  0
    7.9796   12.6355   23.7914 N   0  0  0  0  0  0  0  0  0  0  0  0
    7.5072   13.9168   23.7498 C   0  0  0  0  0  0  0  0  0  0  0  0
    8.4626   15.0048   23.3480 C   0  0  0  0  0  0  0  0  0  0  0  0
    8.1491   16.1073   23.5362 O   0  0  0  0  0  0  0  0  0  0  0  0
    9.7769   14.4231   22.8274 N   0  0  0  0  0  0  0  0  0  0  0  0
   11.0294   15.0687   22.5142 C   0  0  2  0  0  0  0  0  0  0  0  0
   11.6173   14.8612   21.1330 C   0  0  0  0  0  0  0  0  0  0  0  0
   10.7954   15.5828   20.1266 N   0  0  0  0  0  0  0  0  0  0  0  0
   10.6727   15.0436   19.0256 O   0  0  0  0  0  0  0  0  0  0  0  0
   10.3324   16.6861   20.4388 O   0  0  0  0  0  0  0  0  0  0  0  0
   12.0034   14.6364   23.5902 C   0  0  0  0  0  0  0  0  0  0  0  0
   11.5088   14.5536   25.0145 C   0  0  0  0  0  0  0  0  0  0  0  0
   11.9595   13.3077   24.3024 C   0  0  0  0  0  0  0  0  0  0  0  0
    6.3374   14.3323   24.3708 C   0  0  0  0  0  0  0  0  0  0  0  0
    5.6298   13.4280   25.1460 C   0  0  0  0  0  0  0  0  0  0  0  0
    6.0832   12.1239   25.2775 C   0  0  0  0  0  0  0  0  0  0  0  0
    5.1646   11.1148   26.3261 Cl  0  0  0  0  0  0  0  0  0  0  0  0
  1  2  1  0
  2  3  1  0
  3  4  2  0
  3  5  1  0
  5  6  2  0
  6  7  1  0
  7  8  1  0
  8  9  2  0
  8 10  1  0
 10 11  1  0
 11 12  1  6
 12 13  1  0
 13 14  2  0
 13 15  1  0
 11 16  1  0
 16 17  1  0
 17 18  1  0
  7 19  2  0
 19 20  1  0
 20 21  2  0
 21 22  1  0
 21  5  1  0
 18 16  1  0
M  CHG  2  13   1  15  -1
M  END
>  <energy_score>  (4481) 
-5.315492

>  <inchikey>  (4481) 
AJSWZFZJIDPAEX-UHFFFAOYSA-N

>  <smiles>  (4481) 
CNC(=O)c1nc(C(=O)NC(C[N+](=O)[O-])C2CC2)ccc1Cl

>  <ref_pdb>  (4481) 
A0875a

>  <alias>  (4481) 
AJSWZFZJIDPAEX-UHFFFAOYSA-N-P198-P144-P198-601508

>  <HIPPO Pose ID>  (4481) 
514601

>  <name>  (4481) 
AJSWZFZJIDPAEX-UHFFFAOYSA-N-P198-P144-P198-601508

>  <HIPPO Compound ID>  (4481) 
294018

>  <ref_mols>  (4481) 
A3181a,A3618a

>  <distance_score>  (4481) 
1.847401

>  <inspiration_score>  (4481) 
None

$$$$
DNSIRLJDEHELAK-UHFFFAOYSA-N-P144-P144-P198-601508
     RDKit          3D

 22 24  0  0  0  0  0  0  0  0999 V2000
    2.0386   13.2544   27.3876 C   0  0  0  0  0  0  0  0  0  0  0  0
    3.1053   12.2585   27.8515 C   0  0  1  0  0  0  0  0  0  0  0  0
    4.2165   12.2853   26.9281 N   0  0  0  0  0  0  0  0  0  0  0  0
    5.5514   11.4911   26.9331 C   0  0  0  0  0  0  0  0  0  0  0  0
    5.9225   10.6390   27.6411 O   0  0  0  0  0  0  0  0  0  0  0  0
    6.4645   12.0758   25.8609 C   0  0  0  0  0  0  0  0  0  0  0  0
    6.5025   13.4184   25.8295 C   0  0  0  0  0  0  0  0  0  0  0  0
    7.3796   14.0736   24.8590 C   0  0  0  0  0  0  0  0  0  0  0  0
    7.3511   15.2841   24.7065 O   0  0  0  0  0  0  0  0  0  0  0  0
    8.3443   13.2655   24.1332 C   0  0  0  0  0  0  0  0  0  0  0  0
    8.2963   11.9450   24.3113 C   0  0  0  0  0  0  0  0  0  0  0  0
    7.3205   11.2819   25.0616 N   0  0  0  0  0  0  0  0  0  0  0  0
    7.3787    9.8187   25.1721 C   0  0  0  0  0  0  0  0  0  0  0  0
    8.2934    9.1592   24.1192 C   0  0  0  0  0  0  0  0  0  0  0  0
    9.4811    9.8984   23.8126 N   0  0  0  0  0  0  0  0  0  0  0  0
    9.4822   11.2520   23.7357 C   0  0  0  0  0  0  0  0  0  0  0  0
   10.4396   11.8778   23.3070 O   0  0  0  0  0  0  0  0  0  0  0  0
    3.5800   12.5989   29.2282 C   0  0  2  0  0  0  0  0  0  0  0  0
    4.1153   11.5279   30.1621 C   0  0  0  0  0  0  0  0  0  0  0  0
    2.7822   12.1312   30.3886 C   0  0  0  0  0  0  0  0  0  0  0  0
    2.5651   12.9619   31.4615 F   0  0  0  0  0  0  0  0  0  0  0  0
    1.6398   11.3869   30.2025 F   0  0  0  0  0  0  0  0  0  0  0  0
  2  1  1  6
  2  3  1  0
  3  4  1  0
  4  5  2  0
  4  6  1  0
  6  7  2  0
  7  8  1  0
  8  9  2  0
  8 10  1  0
 10 11  2  0
 11 12  1  0
 12 13  1  0
 13 14  1  0
 14 15  1  0
 15 16  1  0
 16 17  2  0
  2 18  1  0
 18 19  1  1
 19 20  1  0
 20 21  1  0
 20 22  1  0
 12  6  1  0
 20 18  1  0
 16 11  1  0
M  END
>  <energy_score>  (4482) 
-46.986128

>  <inchikey>  (4482) 
DNSIRLJDEHELAK-UHFFFAOYSA-N

>  <smiles>  (4482) 
CC(NC(=O)c1cc(=O)cc2n1CCNC2=O)C1CC1(F)F

>  <ref_pdb>  (4482) 
A0875a

>  <alias>  (4482) 
DNSIRLJDEHELAK-UHFFFAOYSA-N-P144-P144-P198-601508

>  <HIPPO Pose ID>  (4482) 
514626

>  <name>  (4482) 
DNSIRLJDEHELAK-UHFFFAOYSA-N-P144-P144-P198-601508

>  <HIPPO Compound ID>  (4482) 
294031

>  <ref_mols>  (4482) 
A3181a,A3618a

>  <distance_score>  (4482) 
1.561732

>  <inspiration_score>  (4482) 
None

$$$$
DNSIRLJDEHELAK-UHFFFAOYSA-N-P198-P144-P198-601508
     RDKit          3D

 22 24  0  0  0  0  0  0  0  0999 V2000
    1.5334   12.9749   26.8829 C   0  0  0  0  0  0  0  0  0  0  0  0
    2.6050   11.9567   27.2971 C   0  0  1  0  0  0  0  0  0  0  0  0
    3.7705   12.0752   26.4450 N   0  0  0  0  0  0  0  0  0  0  0  0
    5.1562   11.3825   26.5313 C   0  0  0  0  0  0  0  0  0  0  0  0
    5.5437   10.5536   27.2567 O   0  0  0  0  0  0  0  0  0  0  0  0
    6.0912   12.0301   25.5173 C   0  0  0  0  0  0  0  0  0  0  0  0
    6.0664   13.3726   25.5266 C   0  0  0  0  0  0  0  0  0  0  0  0
    7.0345   14.0953   24.6983 C   0  0  0  0  0  0  0  0  0  0  0  0
    7.0157   15.3143   24.6278 O   0  0  0  0  0  0  0  0  0  0  0  0
    8.0725   13.3425   24.0115 C   0  0  0  0  0  0  0  0  0  0  0  0
    8.0531   12.0139   24.1231 C   0  0  0  0  0  0  0  0  0  0  0  0
    7.0496   11.2947   24.7799 N   0  0  0  0  0  0  0  0  0  0  0  0
    7.2292    9.8496   24.9739 C   0  0  0  0  0  0  0  0  0  0  0  0
    8.2217    9.2013   23.9850 C   0  0  0  0  0  0  0  0  0  0  0  0
    9.3313   10.0232   23.5993 N   0  0  0  0  0  0  0  0  0  0  0  0
    9.2822   11.3759   23.5666 C   0  0  0  0  0  0  0  0  0  0  0  0
   10.2334   12.0450   23.1876 O   0  0  0  0  0  0  0  0  0  0  0  0
    3.0008   12.1691   28.7249 C   0  0  2  0  0  0  0  0  0  0  0  0
    3.3948   10.9929   29.6017 C   0  0  0  0  0  0  0  0  0  0  0  0
    2.0982   11.6771   29.7972 C   0  0  0  0  0  0  0  0  0  0  0  0
    1.8710   12.4549   30.9077 F   0  0  0  0  0  0  0  0  0  0  0  0
    0.9114   11.0608   29.4744 F   0  0  0  0  0  0  0  0  0  0  0  0
  2  1  1  6
  2  3  1  0
  3  4  1  0
  4  5  2  0
  4  6  1  0
  6  7  2  0
  7  8  1  0
  8  9  2  0
  8 10  1  0
 10 11  2  0
 11 12  1  0
 12 13  1  0
 13 14  1  0
 14 15  1  0
 15 16  1  0
 16 17  2  0
  2 18  1  0
 18 19  1  6
 19 20  1  0
 20 21  1  0
 20 22  1  0
 12  6  1  0
 20 18  1  0
 16 11  1  0
M  END
>  <energy_score>  (4483) 
-47.46273

>  <inchikey>  (4483) 
DNSIRLJDEHELAK-UHFFFAOYSA-N

>  <smiles>  (4483) 
CC(NC(=O)c1cc(=O)cc2n1CCNC2=O)C1CC1(F)F

>  <ref_pdb>  (4483) 
A0875a

>  <alias>  (4483) 
DNSIRLJDEHELAK-UHFFFAOYSA-N-P198-P144-P198-601508

>  <HIPPO Pose ID>  (4483) 
514627

>  <name>  (4483) 
DNSIRLJDEHELAK-UHFFFAOYSA-N-P198-P144-P198-601508

>  <HIPPO Compound ID>  (4483) 
294031

>  <ref_mols>  (4483) 
A3181a,A3618a

>  <distance_score>  (4483) 
1.50953

>  <inspiration_score>  (4483) 
None

$$$$
BCPFDJMAEZNOFT-UHFFFAOYSA-N-P144-P144-P198-601508
     RDKit          3D

 22 25  0  0  0  0  0  0  0  0999 V2000
   11.6048   15.1324   19.2909 C   0  0  0  0  0  0  0  0  0  0  0  0
   10.6997   15.3339   20.4886 C   0  0  0  0  0  0  0  0  0  0  0  0
   11.1110   14.6114   21.8292 C   0  0  0  0  0  0  0  0  0  0  0  0
   10.0702   14.0818   22.6566 N   0  0  0  0  0  0  0  0  0  0  0  0
    9.9454   14.0188   24.1974 C   0  0  0  0  0  0  0  0  0  0  0  0
   10.6355   14.4581   25.0317 O   0  0  0  0  0  0  0  0  0  0  0  0
    8.7662   13.1531   24.5448 C   0  0  0  0  0  0  0  0  0  0  0  0
    7.8375   13.8053   25.2535 C   0  0  0  0  0  0  0  0  0  0  0  0
    6.7464   13.0090   25.8303 C   0  0  0  0  0  0  0  0  0  0  0  0
    5.8753   13.5269   26.5076 O   0  0  0  0  0  0  0  0  0  0  0  0
    6.7334   11.5663   25.6409 C   0  0  0  0  0  0  0  0  0  0  0  0
    7.6948   11.0319   24.8828 C   0  0  0  0  0  0  0  0  0  0  0  0
    8.7333   11.7680   24.2961 N   0  0  0  0  0  0  0  0  0  0  0  0
    9.7070   11.1071   23.4165 C   0  0  0  0  0  0  0  0  0  0  0  0
    9.6403    9.5789   23.3983 C   0  0  0  0  0  0  0  0  0  0  0  0
    8.3486    9.0345   23.7000 N   0  0  0  0  0  0  0  0  0  0  0  0
    7.5092    9.5800   24.6168 C   0  0  0  0  0  0  0  0  0  0  0  0
    6.6017    8.9316   25.1219 O   0  0  0  0  0  0  0  0  0  0  0  0
   12.3434   13.7360   21.8676 C   0  0  0  0  0  0  0  0  0  0  0  0
   12.3987   15.0891   22.4691 C   0  0  0  0  0  0  0  0  0  0  0  0
   10.0035   16.6814   20.5577 C   0  0  0  0  0  0  0  0  0  0  0  0
    9.2538   15.4821   20.1062 C   0  0  0  0  0  0  0  0  0  0  0  0
  1  2  1  0
  2  3  1  0
  3  4  1  0
  4  5  1  0
  5  6  2  0
  5  7  1  0
  7  8  2  0
  8  9  1  0
  9 10  2  0
  9 11  1  0
 11 12  2  0
 12 13  1  0
 13 14  1  0
 14 15  1  0
 15 16  1  0
 16 17  1  0
 17 18  2  0
  3 19  1  0
 19 20  1  0
  2 21  1  0
 21 22  1  0
 22  2  1  0
 20  3  1  0
 13  7  1  0
 17 12  1  0
M  END
>  <energy_score>  (4484) 
-41.087196

>  <inchikey>  (4484) 
BCPFDJMAEZNOFT-UHFFFAOYSA-N

>  <smiles>  (4484) 
CC1(C2(NC(=O)c3cc(=O)cc4n3CCNC4=O)CC2)CC1

>  <ref_pdb>  (4484) 
A0875a

>  <alias>  (4484) 
BCPFDJMAEZNOFT-UHFFFAOYSA-N-P144-P144-P198-601508

>  <HIPPO Pose ID>  (4484) 
514628

>  <name>  (4484) 
BCPFDJMAEZNOFT-UHFFFAOYSA-N-P144-P144-P198-601508

>  <HIPPO Compound ID>  (4484) 
294032

>  <ref_mols>  (4484) 
A3181a,A3618a

>  <distance_score>  (4484) 
1.614573

>  <inspiration_score>  (4484) 
None

$$$$
BCPFDJMAEZNOFT-UHFFFAOYSA-N-P198-P144-P198-601508
     RDKit          3D

 22 25  0  0  0  0  0  0  0  0999 V2000
   11.9955   14.9378   19.7844 C   0  0  0  0  0  0  0  0  0  0  0  0
   10.8182   15.3403   20.6257 C   0  0  0  0  0  0  0  0  0  0  0  0
   10.9334   15.0361   22.1475 C   0  0  0  0  0  0  0  0  0  0  0  0
    9.8857   14.3213   22.7792 N   0  0  0  0  0  0  0  0  0  0  0  0
    9.5420   14.1606   24.2747 C   0  0  0  0  0  0  0  0  0  0  0  0
   10.0207   14.6533   25.2184 O   0  0  0  0  0  0  0  0  0  0  0  0
    8.3917   13.2330   24.4082 C   0  0  0  0  0  0  0  0  0  0  0  0
    7.3513   13.8177   25.0131 C   0  0  0  0  0  0  0  0  0  0  0  0
    6.2745   12.9420   25.4812 C   0  0  0  0  0  0  0  0  0  0  0  0
    5.2844   13.3926   26.0298 O   0  0  0  0  0  0  0  0  0  0  0  0
    6.4282   11.5025   25.3489 C   0  0  0  0  0  0  0  0  0  0  0  0
    7.5091   11.0538   24.7007 C   0  0  0  0  0  0  0  0  0  0  0  0
    8.4957   11.8665   24.1434 N   0  0  0  0  0  0  0  0  0  0  0  0
    9.6104   11.2942   23.3727 C   0  0  0  0  0  0  0  0  0  0  0  0
    9.6490    9.7658   23.2962 C   0  0  0  0  0  0  0  0  0  0  0  0
    8.4288    9.1046   23.6443 N   0  0  0  0  0  0  0  0  0  0  0  0
    7.5320    9.5883   24.5372 C   0  0  0  0  0  0  0  0  0  0  0  0
    6.7106    8.8820   25.1021 O   0  0  0  0  0  0  0  0  0  0  0  0
   12.2812   14.9875   22.8258 C   0  0  0  0  0  0  0  0  0  0  0  0
   11.4447   16.2015   22.9535 C   0  0  0  0  0  0  0  0  0  0  0  0
   10.1174   16.6601   20.2832 C   0  0  0  0  0  0  0  0  0  0  0  0
    9.5124   15.3693   19.9004 C   0  0  0  0  0  0  0  0  0  0  0  0
  1  2  1  0
  2  3  1  0
  3  4  1  0
  4  5  1  0
  5  6  2  0
  5  7  1  0
  7  8  2  0
  8  9  1  0
  9 10  2  0
  9 11  1  0
 11 12  2  0
 12 13  1  0
 13 14  1  0
 14 15  1  0
 15 16  1  0
 16 17  1  0
 17 18  2  0
  3 19  1  0
 19 20  1  0
  2 21  1  0
 21 22  1  0
 22  2  1  0
 20  3  1  0
 13  7  1  0
 17 12  1  0
M  END
>  <energy_score>  (4485) 
-35.054678

>  <inchikey>  (4485) 
BCPFDJMAEZNOFT-UHFFFAOYSA-N

>  <smiles>  (4485) 
CC1(C2(NC(=O)c3cc(=O)cc4n3CCNC4=O)CC2)CC1

>  <ref_pdb>  (4485) 
A0875a

>  <alias>  (4485) 
BCPFDJMAEZNOFT-UHFFFAOYSA-N-P198-P144-P198-601508

>  <HIPPO Pose ID>  (4485) 
514629

>  <name>  (4485) 
BCPFDJMAEZNOFT-UHFFFAOYSA-N-P198-P144-P198-601508

>  <HIPPO Compound ID>  (4485) 
294032

>  <ref_mols>  (4485) 
A3181a,A3618a

>  <distance_score>  (4485) 
1.618543

>  <inspiration_score>  (4485) 
None

$$$$
UFIXVGPYIOPAHB-UHFFFAOYSA-N-P144-P144-P198-601508
     RDKit          3D

 22 25  0  0  0  0  0  0  0  0999 V2000
    6.6090    8.9335   25.0911 O   0  0  0  0  0  0  0  0  0  0  0  0
    7.5413    9.5555   24.5972 C   0  0  0  0  0  0  0  0  0  0  0  0
    8.3687    8.9954   23.6762 N   0  0  0  0  0  0  0  0  0  0  0  0
    9.6700    9.5181   23.3602 C   0  0  0  0  0  0  0  0  0  0  0  0
    9.7467   11.0438   23.3785 C   0  0  0  0  0  0  0  0  0  0  0  0
    8.8894   11.6784   24.3785 N   0  0  0  0  0  0  0  0  0  0  0  0
    7.7797   10.9942   24.8912 C   0  0  0  0  0  0  0  0  0  0  0  0
    6.8076   11.5711   25.6031 C   0  0  0  0  0  0  0  0  0  0  0  0
    6.8904   13.0099   25.8072 C   0  0  0  0  0  0  0  0  0  0  0  0
    6.0008   13.5764   26.4186 O   0  0  0  0  0  0  0  0  0  0  0  0
    8.0729   13.7404   25.3276 C   0  0  0  0  0  0  0  0  0  0  0  0
    9.0072   13.0394   24.6717 C   0  0  0  0  0  0  0  0  0  0  0  0
   10.2598   13.8419   24.4415 C   0  0  0  0  0  0  0  0  0  0  0  0
   10.9884   14.0721   25.3215 O   0  0  0  0  0  0  0  0  0  0  0  0
   10.2810   14.3181   22.9774 N   0  0  0  0  0  0  0  0  0  0  0  0
   11.1351   15.2386   22.3216 C   0  0  1  0  0  0  0  0  0  0  0  0
   12.0964   15.0899   21.1678 C   0  0  0  0  0  0  0  0  0  0  0  0
   13.2384   15.8560   21.1824 F   0  0  0  0  0  0  0  0  0  0  0  0
   12.4470   13.8381   20.7346 F   0  0  0  0  0  0  0  0  0  0  0  0
   10.7942   15.6725   20.9545 C   0  0  0  0  0  0  0  0  0  0  0  0
    9.7083   15.4072   20.0173 C   0  0  0  0  0  0  0  0  0  0  0  0
   10.0345   16.8228   20.4666 C   0  0  0  0  0  0  0  0  0  0  0  0
  1  2  2  0
  2  3  1  0
  3  4  1  0
  4  5  1  0
  5  6  1  0
  6  7  1  0
  7  8  2  0
  8  9  1  0
  9 10  2  0
  9 11  1  0
 11 12  2  0
 12 13  1  0
 13 14  2  0
 13 15  1  0
 16 15  1  6
 16 17  1  0
 17 18  1  0
 17 19  1  0
 17 20  1  0
 20 21  1  0
 21 22  1  0
  7  2  1  0
 20 16  1  0
 12  6  1  0
 22 20  1  0
M  END
>  <energy_score>  (4486) 
-32.180509

>  <inchikey>  (4486) 
UFIXVGPYIOPAHB-UHFFFAOYSA-N

>  <smiles>  (4486) 
O=C1NCCn2c1cc(=O)cc2C(=O)NC1C(F)(F)C12CC2

>  <ref_pdb>  (4486) 
A0875a

>  <alias>  (4486) 
UFIXVGPYIOPAHB-UHFFFAOYSA-N-P144-P144-P198-601508

>  <HIPPO Pose ID>  (4486) 
514632

>  <name>  (4486) 
UFIXVGPYIOPAHB-UHFFFAOYSA-N-P144-P144-P198-601508

>  <HIPPO Compound ID>  (4486) 
294034

>  <ref_mols>  (4486) 
A3181a,A3618a

>  <distance_score>  (4486) 
1.567202

>  <inspiration_score>  (4486) 
None

$$$$
UFIXVGPYIOPAHB-UHFFFAOYSA-N-P198-P144-P198-601508
     RDKit          3D

 22 25  0  0  0  0  0  0  0  0999 V2000
    6.7739    9.0049   25.0922 O   0  0  0  0  0  0  0  0  0  0  0  0
    7.5841    9.7275   24.5287 C   0  0  0  0  0  0  0  0  0  0  0  0
    8.4681    9.2533   23.6181 N   0  0  0  0  0  0  0  0  0  0  0  0
    9.6908    9.9194   23.2823 C   0  0  0  0  0  0  0  0  0  0  0  0
    9.6758   11.4550   23.3910 C   0  0  0  0  0  0  0  0  0  0  0  0
    8.6244   12.0117   24.2519 N   0  0  0  0  0  0  0  0  0  0  0  0
    7.5881   11.1962   24.7265 C   0  0  0  0  0  0  0  0  0  0  0  0
    6.4926   11.6464   25.3454 C   0  0  0  0  0  0  0  0  0  0  0  0
    6.3731   13.0829   25.5291 C   0  0  0  0  0  0  0  0  0  0  0  0
    5.3539   13.5365   26.0186 O   0  0  0  0  0  0  0  0  0  0  0  0
    7.5067   13.9464   25.1775 C   0  0  0  0  0  0  0  0  0  0  0  0
    8.5674   13.3714   24.5947 C   0  0  0  0  0  0  0  0  0  0  0  0
    9.7281   14.3259   24.5160 C   0  0  0  0  0  0  0  0  0  0  0  0
   10.2157   14.7616   25.4780 O   0  0  0  0  0  0  0  0  0  0  0  0
    9.9996   14.6304   23.0393 N   0  0  0  0  0  0  0  0  0  0  0  0
   10.8483   15.5886   22.4404 C   0  0  1  0  0  0  0  0  0  0  0  0
   11.9013   15.3560   21.3842 C   0  0  0  0  0  0  0  0  0  0  0  0
   13.0483   16.1053   21.3920 F   0  0  0  0  0  0  0  0  0  0  0  0
   12.2174   14.0650   21.0412 F   0  0  0  0  0  0  0  0  0  0  0  0
   10.6327   15.9223   21.0255 C   0  0  0  0  0  0  0  0  0  0  0  0
    9.6385   15.5439   20.0349 C   0  0  0  0  0  0  0  0  0  0  0  0
    9.8819   17.0058   20.4156 C   0  0  0  0  0  0  0  0  0  0  0  0
  1  2  2  0
  2  3  1  0
  3  4  1  0
  4  5  1  0
  5  6  1  0
  6  7  1  0
  7  8  2  0
  8  9  1  0
  9 10  2  0
  9 11  1  0
 11 12  2  0
 12 13  1  0
 13 14  2  0
 13 15  1  0
 16 15  1  6
 16 17  1  0
 17 18  1  0
 17 19  1  0
 17 20  1  0
 20 21  1  0
 21 22  1  0
  7  2  1  0
 20 16  1  0
 12  6  1  0
 22 20  1  0
M  END
>  <energy_score>  (4487) 
-31.043311

>  <inchikey>  (4487) 
UFIXVGPYIOPAHB-UHFFFAOYSA-N

>  <smiles>  (4487) 
O=C1NCCn2c1cc(=O)cc2C(=O)NC1C(F)(F)C12CC2

>  <ref_pdb>  (4487) 
A0875a

>  <alias>  (4487) 
UFIXVGPYIOPAHB-UHFFFAOYSA-N-P198-P144-P198-601508

>  <HIPPO Pose ID>  (4487) 
514633

>  <name>  (4487) 
UFIXVGPYIOPAHB-UHFFFAOYSA-N-P198-P144-P198-601508

>  <HIPPO Compound ID>  (4487) 
294034

>  <ref_mols>  (4487) 
A3181a,A3618a

>  <distance_score>  (4487) 
1.70655

>  <inspiration_score>  (4487) 
None

$$$$
JYLOKFJNYQROQI-UHFFFAOYSA-N-P144-P144-P198-601508
     RDKit          3D

 22 25  0  0  0  0  0  0  0  0999 V2000
    6.4685    9.5660   25.8726 O   0  0  0  0  0  0  0  0  0  0  0  0
    7.3905    9.9747   25.1851 C   0  0  0  0  0  0  0  0  0  0  0  0
    8.0620    9.1841   24.3002 N   0  0  0  0  0  0  0  0  0  0  0  0
    9.2968    9.5634   23.6601 C   0  0  0  0  0  0  0  0  0  0  0  0
    9.3478   11.0444   23.3376 C   0  0  0  0  0  0  0  0  0  0  0  0
    8.7524   11.9185   24.3617 N   0  0  0  0  0  0  0  0  0  0  0  0
    7.8043   11.3922   25.2486 C   0  0  0  0  0  0  0  0  0  0  0  0
    7.1121   12.1213   26.1315 C   0  0  0  0  0  0  0  0  0  0  0  0
    7.3724   13.5642   26.1387 C   0  0  0  0  0  0  0  0  0  0  0  0
    7.0559   14.2631   27.0938 O   0  0  0  0  0  0  0  0  0  0  0  0
    8.0105   14.1476   24.9478 C   0  0  0  0  0  0  0  0  0  0  0  0
    8.6420   13.2997   24.1302 C   0  0  0  0  0  0  0  0  0  0  0  0
    8.9803   13.8716   22.7918 C   0  0  0  0  0  0  0  0  0  0  0  0
    8.1635   14.0188   21.9734 O   0  0  0  0  0  0  0  0  0  0  0  0
   10.5055   14.0849   22.7312 N   0  0  0  0  0  0  0  0  0  0  0  0
   11.3370   14.4244   21.6508 C   0  0  2  0  0  0  0  0  0  0  0  0
   12.2885   15.5919   21.5770 C   0  0  0  0  0  0  0  0  0  0  0  0
   11.0273   15.5776   20.8236 C   0  0  2  0  0  0  0  0  0  0  0  0
   10.0974   16.7045   20.6920 C   0  0  0  0  0  0  0  0  0  0  0  0
   10.5302   15.8725   19.5061 C   0  0  0  0  0  0  0  0  0  0  0  0
    9.4735   15.3186   18.8541 F   0  0  0  0  0  0  0  0  0  0  0  0
   11.4079   16.2525   18.5328 F   0  0  0  0  0  0  0  0  0  0  0  0
  1  2  2  0
  2  3  1  0
  3  4  1  0
  4  5  1  0
  5  6  1  0
  6  7  1  0
  7  8  2  0
  8  9  1  0
  9 10  2  0
  9 11  1  0
 11 12  2  0
 12 13  1  0
 13 14  2  0
 13 15  1  0
 16 15  1  1
 16 17  1  0
 18 17  1  6
 18 19  1  0
 19 20  1  0
 20 21  1  0
 20 22  1  0
  7  2  1  0
 18 16  1  0
 12  6  1  0
 20 18  1  0
M  END
>  <energy_score>  (4488) 
-26.788291

>  <inchikey>  (4488) 
JYLOKFJNYQROQI-UHFFFAOYSA-N

>  <smiles>  (4488) 
O=C1NCCn2c1cc(=O)cc2C(=O)NC1CC12CC2(F)F

>  <ref_pdb>  (4488) 
A0875a

>  <alias>  (4488) 
JYLOKFJNYQROQI-UHFFFAOYSA-N-P144-P144-P198-601508

>  <HIPPO Pose ID>  (4488) 
514634

>  <name>  (4488) 
JYLOKFJNYQROQI-UHFFFAOYSA-N-P144-P144-P198-601508

>  <HIPPO Compound ID>  (4488) 
294035

>  <ref_mols>  (4488) 
A3181a,A3618a

>  <distance_score>  (4488) 
1.841281

>  <inspiration_score>  (4488) 
None

$$$$
ZCTDCXUPPAGHPD-UHFFFAOYSA-N-P144-P144-P198-601508
     RDKit          3D

 22 25  0  0  0  0  0  0  0  0999 V2000
    6.6211    8.8937   25.1091 O   0  0  0  0  0  0  0  0  0  0  0  0
    7.5312    9.5247   24.5875 C   0  0  0  0  0  0  0  0  0  0  0  0
    8.3666    8.9598   23.6795 N   0  0  0  0  0  0  0  0  0  0  0  0
    9.6638    9.4871   23.3746 C   0  0  0  0  0  0  0  0  0  0  0  0
    9.7428   11.0130   23.3659 C   0  0  0  0  0  0  0  0  0  0  0  0
    8.7427   11.7009   24.1843 N   0  0  0  0  0  0  0  0  0  0  0  0
    7.7185   10.9799   24.8137 C   0  0  0  0  0  0  0  0  0  0  0  0
    6.7639   11.5275   25.5713 C   0  0  0  0  0  0  0  0  0  0  0  0
    6.7635   12.9745   25.7107 C   0  0  0  0  0  0  0  0  0  0  0  0
    5.9061   13.5053   26.3958 O   0  0  0  0  0  0  0  0  0  0  0  0
    7.8348   13.7550   25.0814 C   0  0  0  0  0  0  0  0  0  0  0  0
    8.7686   13.0880   24.3880 C   0  0  0  0  0  0  0  0  0  0  0  0
    9.9477   13.9686   24.0821 C   0  0  0  0  0  0  0  0  0  0  0  0
   10.5090   14.4963   24.9627 O   0  0  0  0  0  0  0  0  0  0  0  0
   10.1943   14.0310   22.5514 N   0  0  0  0  0  0  0  0  0  0  0  0
   11.1121   14.8216   21.7900 C   0  0  1  0  0  0  0  0  0  0  0  0
   12.3358   15.1872   22.5659 C   0  0  0  0  0  0  0  0  0  0  0  0
   12.8972   14.0037   23.1406 O   0  0  0  0  0  0  0  0  0  0  0  0
   11.3631   14.7177   20.2704 C   0  0  0  0  0  0  0  0  0  0  0  0
   10.5193   15.7535   20.8314 C   0  0  0  0  0  0  0  0  0  0  0  0
    9.0694   15.9076   20.5906 C   0  0  0  0  0  0  0  0  0  0  0  0
   10.0197   17.0693   20.4865 C   0  0  0  0  0  0  0  0  0  0  0  0
  1  2  2  0
  2  3  1  0
  3  4  1  0
  4  5  1  0
  5  6  1  0
  6  7  1  0
  7  8  2  0
  8  9  1  0
  9 10  2  0
  9 11  1  0
 11 12  2  0
 12 13  1  0
 13 14  2  0
 13 15  1  0
 15 16  1  0
 16 17  1  1
 17 18  1  0
 16 19  1  0
 19 20  1  0
 20 21  1  0
 21 22  1  0
  7  2  1  0
 20 16  1  0
 12  6  1  0
 22 20  1  0
M  END
>  <energy_score>  (4489) 
-61.991719

>  <inchikey>  (4489) 
ZCTDCXUPPAGHPD-UHFFFAOYSA-N

>  <smiles>  (4489) 
O=C1NCCn2c1cc(=O)cc2C(=O)NC1(CO)CC12CC2

>  <ref_pdb>  (4489) 
A0875a

>  <alias>  (4489) 
ZCTDCXUPPAGHPD-UHFFFAOYSA-N-P144-P144-P198-601508

>  <HIPPO Pose ID>  (4489) 
514636

>  <name>  (4489) 
ZCTDCXUPPAGHPD-UHFFFAOYSA-N-P144-P144-P198-601508

>  <HIPPO Compound ID>  (4489) 
294036

>  <ref_mols>  (4489) 
A3181a,A3618a

>  <distance_score>  (4489) 
1.737367

>  <inspiration_score>  (4489) 
None

$$$$
ZCTDCXUPPAGHPD-UHFFFAOYSA-N-P198-P144-P198-601508
     RDKit          3D

 22 25  0  0  0  0  0  0  0  0999 V2000
    6.6204    8.9008   25.1098 O   0  0  0  0  0  0  0  0  0  0  0  0
    7.4715    9.5958   24.5749 C   0  0  0  0  0  0  0  0  0  0  0  0
    8.3636    9.1043   23.6798 N   0  0  0  0  0  0  0  0  0  0  0  0
    9.5998    9.7426   23.3427 C   0  0  0  0  0  0  0  0  0  0  0  0
    9.5675   11.2688   23.4069 C   0  0  0  0  0  0  0  0  0  0  0  0
    8.5032   11.8538   24.2414 N   0  0  0  0  0  0  0  0  0  0  0  0
    7.4913   11.0578   24.7750 C   0  0  0  0  0  0  0  0  0  0  0  0
    6.4226   11.5250   25.4294 C   0  0  0  0  0  0  0  0  0  0  0  0
    6.3116   12.9660   25.5936 C   0  0  0  0  0  0  0  0  0  0  0  0
    5.3322   13.4294   26.1504 O   0  0  0  0  0  0  0  0  0  0  0  0
    7.4088   13.8245   25.1376 C   0  0  0  0  0  0  0  0  0  0  0  0
    8.4311   13.2226   24.5206 C   0  0  0  0  0  0  0  0  0  0  0  0
    9.5805   14.1369   24.2985 C   0  0  0  0  0  0  0  0  0  0  0  0
   10.1527   14.6328   25.1839 O   0  0  0  0  0  0  0  0  0  0  0  0
    9.8438   14.1936   22.7854 N   0  0  0  0  0  0  0  0  0  0  0  0
   10.7976   14.9390   22.0419 C   0  0  1  0  0  0  0  0  0  0  0  0
   11.6955   15.7840   22.8751 C   0  0  0  0  0  0  0  0  0  0  0  0
   12.4288   14.9075   23.7435 O   0  0  0  0  0  0  0  0  0  0  0  0
   11.5428   14.3963   20.9096 C   0  0  0  0  0  0  0  0  0  0  0  0
   10.3183   15.2438   20.6341 C   0  0  0  0  0  0  0  0  0  0  0  0
   10.4742   15.9872   19.3447 C   0  0  0  0  0  0  0  0  0  0  0  0
   10.0152   16.7332   20.5277 C   0  0  0  0  0  0  0  0  0  0  0  0
  1  2  2  0
  2  3  1  0
  3  4  1  0
  4  5  1  0
  5  6  1  0
  6  7  1  0
  7  8  2  0
  8  9  1  0
  9 10  2  0
  9 11  1  0
 11 12  2  0
 12 13  1  0
 13 14  2  0
 13 15  1  0
 15 16  1  0
 16 17  1  1
 17 18  1  0
 16 19  1  0
 19 20  1  0
 20 21  1  0
 21 22  1  0
  7  2  1  0
 20 16  1  0
 12  6  1  0
 22 20  1  0
M  END
>  <energy_score>  (4490) 
-58.263934

>  <inchikey>  (4490) 
ZCTDCXUPPAGHPD-UHFFFAOYSA-N

>  <smiles>  (4490) 
O=C1NCCn2c1cc(=O)cc2C(=O)NC1(CO)CC12CC2

>  <ref_pdb>  (4490) 
A0875a

>  <alias>  (4490) 
ZCTDCXUPPAGHPD-UHFFFAOYSA-N-P198-P144-P198-601508

>  <HIPPO Pose ID>  (4490) 
514637

>  <name>  (4490) 
ZCTDCXUPPAGHPD-UHFFFAOYSA-N-P198-P144-P198-601508

>  <HIPPO Compound ID>  (4490) 
294036

>  <ref_mols>  (4490) 
A3181a,A3618a

>  <distance_score>  (4490) 
1.530977

>  <inspiration_score>  (4490) 
None

$$$$
PZTFTELIPQMCIC-UHFFFAOYSA-N-P144-P144-P198-601508
     RDKit          3D

 22 26  0  0  0  0  0  0  0  0999 V2000
    6.6137    8.7702   25.1568 O   0  0  0  0  0  0  0  0  0  0  0  0
    7.5322    9.4055   24.6600 C   0  0  0  0  0  0  0  0  0  0  0  0
    8.3646    8.8732   23.7298 N   0  0  0  0  0  0  0  0  0  0  0  0
    9.5987    9.4755   23.3108 C   0  0  0  0  0  0  0  0  0  0  0  0
    9.6068   11.0059   23.3287 C   0  0  0  0  0  0  0  0  0  0  0  0
    8.5155   11.6135   24.0947 N   0  0  0  0  0  0  0  0  0  0  0  0
    7.6962   10.8466   24.9208 C   0  0  0  0  0  0  0  0  0  0  0  0
    6.8269   11.3512   25.8024 C   0  0  0  0  0  0  0  0  0  0  0  0
    6.7368   12.8041   25.8603 C   0  0  0  0  0  0  0  0  0  0  0  0
    6.2206   13.3333   26.8286 O   0  0  0  0  0  0  0  0  0  0  0  0
    7.2809   13.5851   24.7443 C   0  0  0  0  0  0  0  0  0  0  0  0
    8.1248   12.9374   23.9316 C   0  0  0  0  0  0  0  0  0  0  0  0
    8.5244   13.7637   22.7695 C   0  0  0  0  0  0  0  0  0  0  0  0
    7.8219   13.9573   21.8618 O   0  0  0  0  0  0  0  0  0  0  0  0
    9.9179   14.3305   23.0914 N   0  0  0  0  0  0  0  0  0  0  0  0
   10.6798   15.3012   22.4303 C   0  0  1  0  0  0  0  0  0  0  0  0
   11.6679   15.1510   21.3602 C   0  0  1  0  0  0  0  0  0  0  0  0
   13.0968   15.3564   21.4652 C   0  0  0  0  0  0  0  0  0  0  0  0
   12.4978   14.1213   20.7918 C   0  0  0  0  0  0  0  0  0  0  0  0
   10.4581   15.8122   21.0571 C   0  0  1  0  0  0  0  0  0  0  0  0
    9.5643   15.6295   19.9254 C   0  0  0  0  0  0  0  0  0  0  0  0
    9.8175   17.0058   20.5290 C   0  0  0  0  0  0  0  0  0  0  0  0
  1  2  2  0
  2  3  1  0
  3  4  1  0
  4  5  1  0
  5  6  1  0
  6  7  1  0
  7  8  2  0
  8  9  1  0
  9 10  2  0
  9 11  1  0
 11 12  2  0
 12 13  1  0
 13 14  2  0
 13 15  1  0
 16 15  1  6
 16 17  1  0
 17 18  1  1
 18 19  1  0
 17 20  1  0
 20 21  1  6
 21 22  1  0
  7  2  1  0
 20 16  1  0
 12  6  1  0
 19 17  1  0
 22 20  1  0
M  END
>  <energy_score>  (4491) 
-28.456214

>  <inchikey>  (4491) 
PZTFTELIPQMCIC-UHFFFAOYSA-N

>  <smiles>  (4491) 
O=C1NCCn2c1cc(=O)cc2C(=O)NC1C2(CC2)C12CC2

>  <ref_pdb>  (4491) 
A0875a

>  <alias>  (4491) 
PZTFTELIPQMCIC-UHFFFAOYSA-N-P144-P144-P198-601508

>  <HIPPO Pose ID>  (4491) 
514638

>  <name>  (4491) 
PZTFTELIPQMCIC-UHFFFAOYSA-N-P144-P144-P198-601508

>  <HIPPO Compound ID>  (4491) 
294037

>  <ref_mols>  (4491) 
A3181a,A3618a

>  <distance_score>  (4491) 
1.734583

>  <inspiration_score>  (4491) 
None

$$$$
PZTFTELIPQMCIC-UHFFFAOYSA-N-P198-P144-P198-601508
     RDKit          3D

 22 26  0  0  0  0  0  0  0  0999 V2000
    6.7360    8.8126   25.1256 O   0  0  0  0  0  0  0  0  0  0  0  0
    7.5641    9.5301   24.5893 C   0  0  0  0  0  0  0  0  0  0  0  0
    8.4477    9.0726   23.6682 N   0  0  0  0  0  0  0  0  0  0  0  0
    9.6118    9.7854   23.2318 C   0  0  0  0  0  0  0  0  0  0  0  0
    9.5193   11.3126   23.3179 C   0  0  0  0  0  0  0  0  0  0  0  0
    8.3406   11.8166   24.0344 N   0  0  0  0  0  0  0  0  0  0  0  0
    7.5470   10.9831   24.8118 C   0  0  0  0  0  0  0  0  0  0  0  0
    6.5847   11.4076   25.6382 C   0  0  0  0  0  0  0  0  0  0  0  0
    6.3885   12.8483   25.7222 C   0  0  0  0  0  0  0  0  0  0  0  0
    5.7670   13.3137   26.6602 O   0  0  0  0  0  0  0  0  0  0  0  0
    6.9619   13.6993   24.6754 C   0  0  0  0  0  0  0  0  0  0  0  0
    7.8898   13.1236   23.9050 C   0  0  0  0  0  0  0  0  0  0  0  0
    8.3431   13.9731   22.7916 C   0  0  0  0  0  0  0  0  0  0  0  0
    7.8547   13.9514   21.7361 O   0  0  0  0  0  0  0  0  0  0  0  0
    9.5314   14.7905   23.3239 N   0  0  0  0  0  0  0  0  0  0  0  0
   10.2887   15.7952   22.7139 C   0  0  1  0  0  0  0  0  0  0  0  0
   11.3719   15.5334   21.7680 C   0  0  1  0  0  0  0  0  0  0  0  0
   12.7918   15.6418   21.6996 C   0  0  0  0  0  0  0  0  0  0  0  0
   12.0635   14.3307   21.3510 C   0  0  0  0  0  0  0  0  0  0  0  0
   10.2160   16.1681   21.2845 C   0  0  1  0  0  0  0  0  0  0  0  0
    9.5828   15.8444   20.0237 C   0  0  0  0  0  0  0  0  0  0  0  0
    9.6131   17.2737   20.5835 C   0  0  0  0  0  0  0  0  0  0  0  0
  1  2  2  0
  2  3  1  0
  3  4  1  0
  4  5  1  0
  5  6  1  0
  6  7  1  0
  7  8  2  0
  8  9  1  0
  9 10  2  0
  9 11  1  0
 11 12  2  0
 12 13  1  0
 13 14  2  0
 13 15  1  0
 16 15  1  6
 16 17  1  0
 17 18  1  1
 18 19  1  0
 17 20  1  0
 20 21  1  6
 21 22  1  0
  7  2  1  0
 20 16  1  0
 12  6  1  0
 19 17  1  0
 22 20  1  0
M  END
>  <energy_score>  (4492) 
-29.412633

>  <inchikey>  (4492) 
PZTFTELIPQMCIC-UHFFFAOYSA-N

>  <smiles>  (4492) 
O=C1NCCn2c1cc(=O)cc2C(=O)NC1C2(CC2)C12CC2

>  <ref_pdb>  (4492) 
A0875a

>  <alias>  (4492) 
PZTFTELIPQMCIC-UHFFFAOYSA-N-P198-P144-P198-601508

>  <HIPPO Pose ID>  (4492) 
514639

>  <name>  (4492) 
PZTFTELIPQMCIC-UHFFFAOYSA-N-P198-P144-P198-601508

>  <HIPPO Compound ID>  (4492) 
294037

>  <ref_mols>  (4492) 
A3181a,A3618a

>  <distance_score>  (4492) 
1.914855

>  <inspiration_score>  (4492) 
None

$$$$
XOJFDBJVBBDPSV-UHFFFAOYSA-N-P198-P144-P198-601508
     RDKit          3D

 23 26  0  0  0  0  0  0  0  0999 V2000
    6.4813   10.0352   26.2881 O   0  0  0  0  0  0  0  0  0  0  0  0
    7.1383   10.0635   25.2588 C   0  0  0  0  0  0  0  0  0  0  0  0
    7.8004    8.9972   24.7485 N   0  0  0  0  0  0  0  0  0  0  0  0
    8.6696    8.9961   23.5946 C   0  0  0  0  0  0  0  0  0  0  0  0
    9.3391   10.3335   23.3456 C   0  0  0  0  0  0  0  0  0  0  0  0
    8.4884   11.4778   23.7312 N   0  0  0  0  0  0  0  0  0  0  0  0
    7.3666   11.3160   24.5488 C   0  0  0  0  0  0  0  0  0  0  0  0
    6.4901   12.2668   24.8835 C   0  0  0  0  0  0  0  0  0  0  0  0
    6.7865   13.6152   24.4181 C   0  0  0  0  0  0  0  0  0  0  0  0
    6.0130   14.5459   24.5993 O   0  0  0  0  0  0  0  0  0  0  0  0
    8.1140   13.8457   23.8347 C   0  0  0  0  0  0  0  0  0  0  0  0
    8.8827   12.7866   23.5246 C   0  0  0  0  0  0  0  0  0  0  0  0
   10.3125   13.1629   23.3415 C   0  0  0  0  0  0  0  0  0  0  0  0
   11.1600   12.7436   24.0197 O   0  0  0  0  0  0  0  0  0  0  0  0
   10.3597   14.2143   22.2260 N   0  0  0  0  0  0  0  0  0  0  0  0
   11.4141   15.0237   21.7815 C   0  0  0  0  0  0  0  0  0  0  0  0
   11.4941   15.4450   20.3292 C   0  0  1  0  0  0  0  0  0  0  0  0
   10.9880   14.9666   19.0084 C   0  0  0  0  0  0  0  0  0  0  0  0
   10.1752   15.8994   19.7873 C   0  0  0  0  0  0  0  0  0  0  0  0
   10.0457   17.2408   19.5582 F   0  0  0  0  0  0  0  0  0  0  0  0
    9.0308   15.4753   20.4398 F   0  0  0  0  0  0  0  0  0  0  0  0
   12.5886   15.2637   22.6745 C   0  0  0  0  0  0  0  0  0  0  0  0
   11.4718   16.2299   22.7195 C   0  0  0  0  0  0  0  0  0  0  0  0
  1  2  2  0
  2  3  1  0
  3  4  1  0
  4  5  1  0
  5  6  1  0
  6  7  1  0
  7  8  2  0
  8  9  1  0
  9 10  2  0
  9 11  1  0
 11 12  2  0
 12 13  1  0
 13 14  2  0
 13 15  1  0
 15 16  1  0
 17 16  1  1
 17 18  1  0
 18 19  1  0
 19 20  1  0
 19 21  1  0
 16 22  1  0
 22 23  1  0
  7  2  1  0
 23 16  1  0
 12  6  1  0
 19 17  1  0
M  END
>  <energy_score>  (4493) 
-16.958906

>  <inchikey>  (4493) 
XOJFDBJVBBDPSV-UHFFFAOYSA-N

>  <smiles>  (4493) 
O=C1NCCn2c1cc(=O)cc2C(=O)NC1(C2CC2(F)F)CC1

>  <ref_pdb>  (4493) 
A0875a

>  <alias>  (4493) 
XOJFDBJVBBDPSV-UHFFFAOYSA-N-P198-P144-P198-601508

>  <HIPPO Pose ID>  (4493) 
514661

>  <name>  (4493) 
XOJFDBJVBBDPSV-UHFFFAOYSA-N-P198-P144-P198-601508

>  <HIPPO Compound ID>  (4493) 
294048

>  <ref_mols>  (4493) 
A3181a,A3618a

>  <distance_score>  (4493) 
1.811781

>  <inspiration_score>  (4493) 
None

$$$$
ZTRSQZBCTDDJOV-UHFFFAOYSA-N-P144-P144-P198-601508
     RDKit          3D

 23 26  0  0  0  0  0  0  0  0999 V2000
    9.8293   17.5379   20.6966 C   0  0  0  0  0  0  0  0  0  0  0  0
   10.0190   16.1068   21.1716 C   0  0  0  0  0  0  0  0  0  0  0  0
    8.6391   15.5724   21.6104 C   0  0  0  0  0  0  0  0  0  0  0  0
   11.3421   15.8619   22.0427 C   0  0  0  0  0  0  0  0  0  0  0  0
   11.3596   14.4231   21.4719 C   0  0  1  0  0  0  0  0  0  0  0  0
   10.4776   13.6744   22.3750 N   0  0  0  0  0  0  0  0  0  0  0  0
   10.5882   13.4082   23.8927 C   0  0  0  0  0  0  0  0  0  0  0  0
   11.4372   13.6762   24.6483 O   0  0  0  0  0  0  0  0  0  0  0  0
    9.3058   12.7877   24.3812 C   0  0  0  0  0  0  0  0  0  0  0  0
    8.6229   13.6428   25.1529 C   0  0  0  0  0  0  0  0  0  0  0  0
    7.4297   13.1550   25.8578 C   0  0  0  0  0  0  0  0  0  0  0  0
    6.8262   13.8945   26.6230 O   0  0  0  0  0  0  0  0  0  0  0  0
    7.0464   11.7474   25.6831 C   0  0  0  0  0  0  0  0  0  0  0  0
    7.8019   10.9939   24.8695 C   0  0  0  0  0  0  0  0  0  0  0  0
    8.9099   11.4752   24.1578 N   0  0  0  0  0  0  0  0  0  0  0  0
    9.7162   10.6042   23.3130 C   0  0  0  0  0  0  0  0  0  0  0  0
    9.3611    9.1357   23.3111 C   0  0  0  0  0  0  0  0  0  0  0  0
    8.0494    8.8480   23.7989 N   0  0  0  0  0  0  0  0  0  0  0  0
    7.3548    9.5852   24.7022 C   0  0  0  0  0  0  0  0  0  0  0  0
    6.3753    9.1235   25.2741 O   0  0  0  0  0  0  0  0  0  0  0  0
   10.7641   15.1502   20.2870 C   0  0  0  0  0  0  0  0  0  0  0  0
   10.4841   14.7969   18.8820 C   0  0  0  0  0  0  0  0  0  0  0  0
   11.6650   15.6102   19.1487 C   0  0  0  0  0  0  0  0  0  0  0  0
  1  2  1  0
  2  3  1  0
  2  4  1  0
  4  5  1  0
  5  6  1  1
  6  7  1  0
  7  8  2  0
  7  9  1  0
  9 10  2  0
 10 11  1  0
 11 12  2  0
 11 13  1  0
 13 14  2  0
 14 15  1  0
 15 16  1  0
 16 17  1  0
 17 18  1  0
 18 19  1  0
 19 20  2  0
  5 21  1  0
 21 22  1  0
 22 23  1  0
 21  2  1  0
 15  9  1  0
 23 21  1  0
 19 14  1  0
M  END
>  <energy_score>  (4494) 
-16.364603

>  <inchikey>  (4494) 
ZTRSQZBCTDDJOV-UHFFFAOYSA-N

>  <smiles>  (4494) 
CC1(C)CC(NC(=O)c2cc(=O)cc3n2CCNC3=O)C12CC2

>  <ref_pdb>  (4494) 
A0875a

>  <alias>  (4494) 
ZTRSQZBCTDDJOV-UHFFFAOYSA-N-P144-P144-P198-601508

>  <HIPPO Pose ID>  (4494) 
514670

>  <name>  (4494) 
ZTRSQZBCTDDJOV-UHFFFAOYSA-N-P144-P144-P198-601508

>  <HIPPO Compound ID>  (4494) 
294053

>  <ref_mols>  (4494) 
A3181a,A3618a

>  <distance_score>  (4494) 
1.708178

>  <inspiration_score>  (4494) 
None

$$$$
ZTRSQZBCTDDJOV-UHFFFAOYSA-N-P198-P144-P198-601508
     RDKit          3D

 23 26  0  0  0  0  0  0  0  0999 V2000
    9.8096   17.8360   20.6955 C   0  0  0  0  0  0  0  0  0  0  0  0
    9.9267   16.4023   21.1689 C   0  0  0  0  0  0  0  0  0  0  0  0
    8.5560   15.9386   21.6953 C   0  0  0  0  0  0  0  0  0  0  0  0
   11.1962   16.1387   22.0762 C   0  0  0  0  0  0  0  0  0  0  0  0
   11.2386   14.7022   21.4719 C   0  0  1  0  0  0  0  0  0  0  0  0
   10.3458   13.9070   22.2866 N   0  0  0  0  0  0  0  0  0  0  0  0
   10.5293   13.3331   23.6939 C   0  0  0  0  0  0  0  0  0  0  0  0
   11.4556   13.3402   24.3961 O   0  0  0  0  0  0  0  0  0  0  0  0
    9.1998   12.7986   24.1236 C   0  0  0  0  0  0  0  0  0  0  0  0
    8.5172   13.7342   24.7968 C   0  0  0  0  0  0  0  0  0  0  0  0
    7.2733   13.3461   25.4729 C   0  0  0  0  0  0  0  0  0  0  0  0
    6.6519   14.1651   26.1351 O   0  0  0  0  0  0  0  0  0  0  0  0
    6.8735   11.9356   25.4182 C   0  0  0  0  0  0  0  0  0  0  0  0
    7.6548   11.0987   24.7181 C   0  0  0  0  0  0  0  0  0  0  0  0
    8.7796   11.4865   23.9770 N   0  0  0  0  0  0  0  0  0  0  0  0
    9.6336   10.5122   23.2892 C   0  0  0  0  0  0  0  0  0  0  0  0
    9.1769    9.0762   23.2927 C   0  0  0  0  0  0  0  0  0  0  0  0
    7.9435    8.8346   23.9761 N   0  0  0  0  0  0  0  0  0  0  0  0
    7.2118    9.6914   24.7246 C   0  0  0  0  0  0  0  0  0  0  0  0
    6.1841    9.3235   25.2811 O   0  0  0  0  0  0  0  0  0  0  0  0
   10.6405   15.4034   20.2960 C   0  0  0  0  0  0  0  0  0  0  0  0
   11.5130   15.7492   19.1101 C   0  0  0  0  0  0  0  0  0  0  0  0
   10.3051   14.9481   18.9300 C   0  0  0  0  0  0  0  0  0  0  0  0
  1  2  1  0
  2  3  1  0
  2  4  1  0
  4  5  1  0
  5  6  1  1
  6  7  1  0
  7  8  2  0
  7  9  1  0
  9 10  2  0
 10 11  1  0
 11 12  2  0
 11 13  1  0
 13 14  2  0
 14 15  1  0
 15 16  1  0
 16 17  1  0
 17 18  1  0
 18 19  1  0
 19 20  2  0
  5 21  1  0
 21 22  1  0
 22 23  1  0
 21  2  1  0
 15  9  1  0
 23 21  1  0
 19 14  1  0
M  END
>  <energy_score>  (4495) 
-18.710381

>  <inchikey>  (4495) 
ZTRSQZBCTDDJOV-UHFFFAOYSA-N

>  <smiles>  (4495) 
CC1(C)CC(NC(=O)c2cc(=O)cc3n2CCNC3=O)C12CC2

>  <ref_pdb>  (4495) 
A0875a

>  <alias>  (4495) 
ZTRSQZBCTDDJOV-UHFFFAOYSA-N-P198-P144-P198-601508

>  <HIPPO Pose ID>  (4495) 
514671

>  <name>  (4495) 
ZTRSQZBCTDDJOV-UHFFFAOYSA-N-P198-P144-P198-601508

>  <HIPPO Compound ID>  (4495) 
294053

>  <ref_mols>  (4495) 
A3181a,A3618a

>  <distance_score>  (4495) 
1.653422

>  <inspiration_score>  (4495) 
None

$$$$
FMKXBNFHOAFPGE-UHFFFAOYSA-N-P144-P144-P198-601508
     RDKit          3D

 23 26  0  0  0  0  0  0  0  0999 V2000
    6.6204    8.7555   25.2071 O   0  0  0  0  0  0  0  0  0  0  0  0
    7.5147    9.4110   24.6930 C   0  0  0  0  0  0  0  0  0  0  0  0
    8.4376    8.8411   23.8856 N   0  0  0  0  0  0  0  0  0  0  0  0
    9.4780    9.5211   23.1695 C   0  0  0  0  0  0  0  0  0  0  0  0
    9.5256   11.0407   23.3382 C   0  0  0  0  0  0  0  0  0  0  0  0
    8.3234   11.6338   23.9507 N   0  0  0  0  0  0  0  0  0  0  0  0
    7.5500   10.8740   24.8236 C   0  0  0  0  0  0  0  0  0  0  0  0
    6.6397   11.3638   25.6704 C   0  0  0  0  0  0  0  0  0  0  0  0
    6.4106   12.7990   25.6303 C   0  0  0  0  0  0  0  0  0  0  0  0
    5.7827   13.3231   26.5342 O   0  0  0  0  0  0  0  0  0  0  0  0
    7.0013   13.5828   24.5414 C   0  0  0  0  0  0  0  0  0  0  0  0
    7.9245   12.9673   23.7884 C   0  0  0  0  0  0  0  0  0  0  0  0
    8.7358   13.9887   23.0872 C   0  0  0  0  0  0  0  0  0  0  0  0
    8.3798   14.6982   22.2438 O   0  0  0  0  0  0  0  0  0  0  0  0
   10.0720   13.9178   23.8244 N   0  0  0  0  0  0  0  0  0  0  0  0
   11.2215   14.7643   23.7476 C   0  0  2  0  0  0  0  0  0  0  0  0
   12.1502   14.4484   22.5625 C   0  0  0  0  0  0  0  0  0  0  0  0
   11.9053   15.3768   21.3912 C   0  0  0  0  0  0  0  0  0  0  0  0
   12.0459   14.8986   19.9670 C   0  0  0  0  0  0  0  0  0  0  0  0
   10.6926   15.2073   20.5171 C   0  0  0  0  0  0  0  0  0  0  0  0
   11.7712   14.6020   25.1660 C   0  0  0  0  0  0  0  0  0  0  0  0
   12.0356   15.6648   26.2229 C   0  0  0  0  0  0  0  0  0  0  0  0
   10.7456   14.9572   26.2660 C   0  0  0  0  0  0  0  0  0  0  0  0
  1  2  2  0
  2  3  1  0
  3  4  1  0
  4  5  1  0
  5  6  1  0
  6  7  1  0
  7  8  2  0
  8  9  1  0
  9 10  2  0
  9 11  1  0
 11 12  2  0
 12 13  1  0
 13 14  2  0
 13 15  1  0
 15 16  1  0
 16 17  1  6
 17 18  1  0
 18 19  1  0
 19 20  1  0
 16 21  1  0
 21 22  1  0
 22 23  1  0
  7  2  1  0
 20 18  1  0
 23 21  1  0
 12  6  1  0
M  END
>  <energy_score>  (4496) 
-27.210314

>  <inchikey>  (4496) 
FMKXBNFHOAFPGE-UHFFFAOYSA-N

>  <smiles>  (4496) 
O=C1NCCn2c1cc(=O)cc2C(=O)NC(CC1CC1)C1CC1

>  <ref_pdb>  (4496) 
A0875a

>  <alias>  (4496) 
FMKXBNFHOAFPGE-UHFFFAOYSA-N-P144-P144-P198-601508

>  <HIPPO Pose ID>  (4496) 
514672

>  <name>  (4496) 
FMKXBNFHOAFPGE-UHFFFAOYSA-N-P144-P144-P198-601508

>  <HIPPO Compound ID>  (4496) 
294054

>  <ref_mols>  (4496) 
A3181a,A3618a

>  <distance_score>  (4496) 
1.758744

>  <inspiration_score>  (4496) 
None

$$$$
FMKXBNFHOAFPGE-UHFFFAOYSA-N-P198-P144-P198-601508
     RDKit          3D

 23 26  0  0  0  0  0  0  0  0999 V2000
    6.6711    9.0785   25.4042 O   0  0  0  0  0  0  0  0  0  0  0  0
    7.4459    9.7322   24.7223 C   0  0  0  0  0  0  0  0  0  0  0  0
    8.5151    9.1510   24.1410 N   0  0  0  0  0  0  0  0  0  0  0  0
    9.4355    9.7864   23.2599 C   0  0  0  0  0  0  0  0  0  0  0  0
    9.4066   11.3122   23.2910 C   0  0  0  0  0  0  0  0  0  0  0  0
    8.1391   11.9441   23.7096 N   0  0  0  0  0  0  0  0  0  0  0  0
    7.2561   11.1834   24.4984 C   0  0  0  0  0  0  0  0  0  0  0  0
    6.1665   11.6574   25.1079 C   0  0  0  0  0  0  0  0  0  0  0  0
    5.8515   13.0625   24.9330 C   0  0  0  0  0  0  0  0  0  0  0  0
    4.8544   13.5122   25.4707 O   0  0  0  0  0  0  0  0  0  0  0  0
    6.7995   13.9228   24.2204 C   0  0  0  0  0  0  0  0  0  0  0  0
    7.9150   13.3546   23.7352 C   0  0  0  0  0  0  0  0  0  0  0  0
    9.0442   14.3501   23.8572 C   0  0  0  0  0  0  0  0  0  0  0  0
    9.1251   14.9956   24.8222 O   0  0  0  0  0  0  0  0  0  0  0  0
    9.9794   14.2458   22.6536 N   0  0  0  0  0  0  0  0  0  0  0  0
   11.2566   14.8362   22.4182 C   0  0  2  0  0  0  0  0  0  0  0  0
   11.7772   14.9623   20.9909 C   0  0  0  0  0  0  0  0  0  0  0  0
   11.0575   15.8514   20.0597 C   0  0  0  0  0  0  0  0  0  0  0  0
    9.6404   15.5855   19.7351 C   0  0  0  0  0  0  0  0  0  0  0  0
   10.0046   16.8499   20.4629 C   0  0  0  0  0  0  0  0  0  0  0  0
   12.1732   13.8902   23.1501 C   0  0  0  0  0  0  0  0  0  0  0  0
   12.7266   14.3097   24.4722 C   0  0  0  0  0  0  0  0  0  0  0  0
   11.8575   13.1429   24.4242 C   0  0  0  0  0  0  0  0  0  0  0  0
  1  2  2  0
  2  3  1  0
  3  4  1  0
  4  5  1  0
  5  6  1  0
  6  7  1  0
  7  8  2  0
  8  9  1  0
  9 10  2  0
  9 11  1  0
 11 12  2  0
 12 13  1  0
 13 14  2  0
 13 15  1  0
 15 16  1  0
 16 17  1  6
 17 18  1  0
 18 19  1  0
 19 20  1  0
 16 21  1  0
 21 22  1  0
 22 23  1  0
  7  2  1  0
 20 18  1  0
 23 21  1  0
 12  6  1  0
M  END
>  <energy_score>  (4497) 
-14.794037

>  <inchikey>  (4497) 
FMKXBNFHOAFPGE-UHFFFAOYSA-N

>  <smiles>  (4497) 
O=C1NCCn2c1cc(=O)cc2C(=O)NC(CC1CC1)C1CC1

>  <ref_pdb>  (4497) 
A0875a

>  <alias>  (4497) 
FMKXBNFHOAFPGE-UHFFFAOYSA-N-P198-P144-P198-601508

>  <HIPPO Pose ID>  (4497) 
514673

>  <name>  (4497) 
FMKXBNFHOAFPGE-UHFFFAOYSA-N-P198-P144-P198-601508

>  <HIPPO Compound ID>  (4497) 
294054

>  <ref_mols>  (4497) 
A3181a,A3618a

>  <distance_score>  (4497) 
1.630275

>  <inspiration_score>  (4497) 
None

$$$$
FLSXWLVYTWNUTH-UHFFFAOYSA-N-P144-P144-P198-601508
     RDKit          3D

 23 26  0  0  0  0  0  0  0  0999 V2000
    6.5032    9.1622   25.2447 O   0  0  0  0  0  0  0  0  0  0  0  0
    7.4663    9.7237   24.7373 C   0  0  0  0  0  0  0  0  0  0  0  0
    8.2498    9.0746   23.8304 N   0  0  0  0  0  0  0  0  0  0  0  0
    9.5546    9.5286   23.4223 C   0  0  0  0  0  0  0  0  0  0  0  0
    9.6555   11.0446   23.3515 C   0  0  0  0  0  0  0  0  0  0  0  0
    8.9682   11.7321   24.4450 N   0  0  0  0  0  0  0  0  0  0  0  0
    7.8213   11.1534   25.0193 C   0  0  0  0  0  0  0  0  0  0  0  0
    6.9647   11.8269   25.8013 C   0  0  0  0  0  0  0  0  0  0  0  0
    7.2438   13.2496   26.0533 C   0  0  0  0  0  0  0  0  0  0  0  0
    6.5434   13.9175   26.8006 O   0  0  0  0  0  0  0  0  0  0  0  0
    8.4316   13.8593   25.4376 C   0  0  0  0  0  0  0  0  0  0  0  0
    9.2269   13.0807   24.6987 C   0  0  0  0  0  0  0  0  0  0  0  0
   10.4993   13.7739   24.2809 C   0  0  0  0  0  0  0  0  0  0  0  0
   11.4091   13.8541   25.0016 O   0  0  0  0  0  0  0  0  0  0  0  0
   10.2806   14.3709   22.8848 N   0  0  0  0  0  0  0  0  0  0  0  0
   11.1020   15.2794   22.1100 C   0  0  1  0  0  0  0  0  0  0  0  0
   12.4936   14.7430   21.7747 C   0  0  0  0  0  0  0  0  0  0  0  0
   12.4778   14.4527   20.3692 N   0  0  0  0  0  0  0  0  0  0  0  0
   11.3966   14.9755   19.7245 C   0  0  0  0  0  0  0  0  0  0  0  0
   11.1955   14.9748   18.5264 O   0  0  0  0  0  0  0  0  0  0  0  0
   10.5231   15.5883   20.7572 C   0  0  0  0  0  0  0  0  0  0  0  0
    9.0366   15.7205   20.5936 C   0  0  0  0  0  0  0  0  0  0  0  0
    9.8945   16.9344   20.4485 C   0  0  0  0  0  0  0  0  0  0  0  0
  1  2  2  0
  2  3  1  0
  3  4  1  0
  4  5  1  0
  5  6  1  0
  6  7  1  0
  7  8  2  0
  8  9  1  0
  9 10  2  0
  9 11  1  0
 11 12  2  0
 12 13  1  0
 13 14  2  0
 13 15  1  0
 16 15  1  6
 16 17  1  0
 17 18  1  0
 18 19  1  0
 19 20  2  0
 19 21  1  0
 21 22  1  0
 22 23  1  0
  7  2  1  0
 21 16  1  0
 12  6  1  0
 23 21  1  0
M  END
>  <energy_score>  (4498) 
-54.101613

>  <inchikey>  (4498) 
FLSXWLVYTWNUTH-UHFFFAOYSA-N

>  <smiles>  (4498) 
O=C1NCCn2c1cc(=O)cc2C(=O)NC1CNC(=O)C12CC2

>  <ref_pdb>  (4498) 
A0875a

>  <alias>  (4498) 
FLSXWLVYTWNUTH-UHFFFAOYSA-N-P144-P144-P198-601508

>  <HIPPO Pose ID>  (4498) 
514674

>  <name>  (4498) 
FLSXWLVYTWNUTH-UHFFFAOYSA-N-P144-P144-P198-601508

>  <HIPPO Compound ID>  (4498) 
294055

>  <ref_mols>  (4498) 
A3181a,A3618a

>  <distance_score>  (4498) 
1.724723

>  <inspiration_score>  (4498) 
None

$$$$
FLSXWLVYTWNUTH-UHFFFAOYSA-N-P198-P144-P198-601508
     RDKit          3D

 23 26  0  0  0  0  0  0  0  0999 V2000
    6.6124    9.3489   25.1826 O   0  0  0  0  0  0  0  0  0  0  0  0
    7.4824   10.0132   24.6319 C   0  0  0  0  0  0  0  0  0  0  0  0
    8.3268    9.4548   23.7254 N   0  0  0  0  0  0  0  0  0  0  0  0
    9.5846   10.0270   23.3293 C   0  0  0  0  0  0  0  0  0  0  0  0
    9.6636   11.5608   23.3931 C   0  0  0  0  0  0  0  0  0  0  0  0
    8.7523   12.1888   24.3558 N   0  0  0  0  0  0  0  0  0  0  0  0
    7.6457   11.4800   24.8655 C   0  0  0  0  0  0  0  0  0  0  0  0
    6.6683   12.0410   25.5926 C   0  0  0  0  0  0  0  0  0  0  0  0
    6.7799   13.4734   25.8921 C   0  0  0  0  0  0  0  0  0  0  0  0
    5.9646   14.0420   26.6026 O   0  0  0  0  0  0  0  0  0  0  0  0
    7.9475   14.2104   25.3983 C   0  0  0  0  0  0  0  0  0  0  0  0
    8.8754   13.5424   24.7058 C   0  0  0  0  0  0  0  0  0  0  0  0
   10.0922   14.4122   24.4746 C   0  0  0  0  0  0  0  0  0  0  0  0
   10.7878   14.7346   25.3451 O   0  0  0  0  0  0  0  0  0  0  0  0
   10.1062   14.8018   23.0040 N   0  0  0  0  0  0  0  0  0  0  0  0
   10.9323   15.7608   22.2878 C   0  0  1  0  0  0  0  0  0  0  0  0
   12.2456   15.1576   21.8210 C   0  0  0  0  0  0  0  0  0  0  0  0
   11.9889   14.6718   20.4890 N   0  0  0  0  0  0  0  0  0  0  0  0
   10.9304   15.3124   19.9130 C   0  0  0  0  0  0  0  0  0  0  0  0
   10.6024   15.2854   18.7439 O   0  0  0  0  0  0  0  0  0  0  0  0
   10.2698   16.0933   20.9904 C   0  0  0  0  0  0  0  0  0  0  0  0
    9.6351   17.4130   20.6274 C   0  0  0  0  0  0  0  0  0  0  0  0
    8.7889   16.2719   21.1050 C   0  0  0  0  0  0  0  0  0  0  0  0
  1  2  2  0
  2  3  1  0
  3  4  1  0
  4  5  1  0
  5  6  1  0
  6  7  1  0
  7  8  2  0
  8  9  1  0
  9 10  2  0
  9 11  1  0
 11 12  2  0
 12 13  1  0
 13 14  2  0
 13 15  1  0
 16 15  1  6
 16 17  1  0
 17 18  1  0
 18 19  1  0
 19 20  2  0
 19 21  1  0
 21 22  1  0
 22 23  1  0
  7  2  1  0
 21 16  1  0
 12  6  1  0
 23 21  1  0
M  END
>  <energy_score>  (4499) 
-47.900893

>  <inchikey>  (4499) 
FLSXWLVYTWNUTH-UHFFFAOYSA-N

>  <smiles>  (4499) 
O=C1NCCn2c1cc(=O)cc2C(=O)NC1CNC(=O)C12CC2

>  <ref_pdb>  (4499) 
A0875a

>  <alias>  (4499) 
FLSXWLVYTWNUTH-UHFFFAOYSA-N-P198-P144-P198-601508

>  <HIPPO Pose ID>  (4499) 
514675

>  <name>  (4499) 
FLSXWLVYTWNUTH-UHFFFAOYSA-N-P198-P144-P198-601508

>  <HIPPO Compound ID>  (4499) 
294055

>  <ref_mols>  (4499) 
A3181a,A3618a

>  <distance_score>  (4499) 
1.780295

>  <inspiration_score>  (4499) 
None

$$$$
OUXQLGIECWUUHA-UHFFFAOYSA-N-P144-P144-P198-601508
     RDKit          3D

 23 25  0  0  0  0  0  0  0  0999 V2000
    9.6609   17.0110   19.8447 C   0  0  0  0  0  0  0  0  0  0  0  0
    9.9164   16.4314   21.1535 N   0  0  0  0  0  0  0  0  0  0  0  0
    8.7090   15.7754   21.5989 C   0  0  0  0  0  0  0  0  0  0  0  0
   11.1786   15.6962   21.2511 C   0  0  1  0  0  0  0  0  0  0  0  0
   11.5468   15.0085   22.5977 C   0  0  0  0  0  0  0  0  0  0  0  0
   10.5666   14.1399   23.2035 N   0  0  0  0  0  0  0  0  0  0  0  0
   10.2496   13.8725   24.6781 C   0  0  0  0  0  0  0  0  0  0  0  0
   10.7777   14.2502   25.6441 O   0  0  0  0  0  0  0  0  0  0  0  0
    8.9814   13.0602   24.7793 C   0  0  0  0  0  0  0  0  0  0  0  0
    8.0134   13.7401   25.4100 C   0  0  0  0  0  0  0  0  0  0  0  0
    6.8145   12.9978   25.8191 C   0  0  0  0  0  0  0  0  0  0  0  0
    5.8824   13.5497   26.3781 O   0  0  0  0  0  0  0  0  0  0  0  0
    6.7645   11.5592   25.6103 C   0  0  0  0  0  0  0  0  0  0  0  0
    7.7609   11.0028   24.9162 C   0  0  0  0  0  0  0  0  0  0  0  0
    8.8774   11.7040   24.4382 N   0  0  0  0  0  0  0  0  0  0  0  0
    9.7408   11.0914   23.4272 C   0  0  0  0  0  0  0  0  0  0  0  0
    9.6747    9.5639   23.3820 C   0  0  0  0  0  0  0  0  0  0  0  0
    8.3775    9.0238   23.6807 N   0  0  0  0  0  0  0  0  0  0  0  0
    7.5405    9.5650   24.6039 C   0  0  0  0  0  0  0  0  0  0  0  0
    6.6133    8.9259   25.0856 O   0  0  0  0  0  0  0  0  0  0  0  0
   11.2519   14.7089   20.1511 C   0  0  0  0  0  0  0  0  0  0  0  0
   12.6217   14.3172   19.7164 C   0  0  0  0  0  0  0  0  0  0  0  0
   11.7050   14.9808   18.7371 C   0  0  0  0  0  0  0  0  0  0  0  0
  1  2  1  0
  2  3  1  0
  2  4  1  0
  4  5  1  1
  5  6  1  0
  6  7  1  0
  7  8  2  0
  7  9  1  0
  9 10  2  0
 10 11  1  0
 11 12  2  0
 11 13  1  0
 13 14  2  0
 14 15  1  0
 15 16  1  0
 16 17  1  0
 17 18  1  0
 18 19  1  0
 19 20  2  0
  4 21  1  0
 21 22  1  0
 22 23  1  0
 15  9  1  0
 23 21  1  0
 19 14  1  0
M  END
>  <energy_score>  (4500) 
-63.810716

>  <inchikey>  (4500) 
OUXQLGIECWUUHA-UHFFFAOYSA-N

>  <smiles>  (4500) 
CN(C)C(CNC(=O)c1cc(=O)cc2n1CCNC2=O)C1CC1

>  <ref_pdb>  (4500) 
A0875a

>  <alias>  (4500) 
OUXQLGIECWUUHA-UHFFFAOYSA-N-P144-P144-P198-601508

>  <HIPPO Pose ID>  (4500) 
514678

>  <name>  (4500) 
OUXQLGIECWUUHA-UHFFFAOYSA-N-P144-P144-P198-601508

>  <HIPPO Compound ID>  (4500) 
294057

>  <ref_mols>  (4500) 
A3181a,A3618a

>  <distance_score>  (4500) 
1.777599

>  <inspiration_score>  (4500) 
None

$$$$
OUXQLGIECWUUHA-UHFFFAOYSA-N-P198-P144-P198-601508
     RDKit          3D

 23 25  0  0  0  0  0  0  0  0999 V2000
    8.9636   15.1107   21.0366 C   0  0  0  0  0  0  0  0  0  0  0  0
   10.1072   15.9516   21.2860 N   0  0  0  0  0  0  0  0  0  0  0  0
    9.8868   17.3112   20.8523 C   0  0  0  0  0  0  0  0  0  0  0  0
   11.4264   15.3891   21.0220 C   0  0  1  0  0  0  0  0  0  0  0  0
   11.8168   14.4273   22.1943 C   0  0  0  0  0  0  0  0  0  0  0  0
   10.7041   13.7986   22.8576 N   0  0  0  0  0  0  0  0  0  0  0  0
   10.1453   13.9977   24.2674 C   0  0  0  0  0  0  0  0  0  0  0  0
   10.5384   14.6456   25.1502 O   0  0  0  0  0  0  0  0  0  0  0  0
    8.8490   13.2020   24.4069 C   0  0  0  0  0  0  0  0  0  0  0  0
    7.8748   13.9411   24.9590 C   0  0  0  0  0  0  0  0  0  0  0  0
    6.6404   13.2597   25.3718 C   0  0  0  0  0  0  0  0  0  0  0  0
    5.6833   13.8754   25.8070 O   0  0  0  0  0  0  0  0  0  0  0  0
    6.5753   11.8078   25.3160 C   0  0  0  0  0  0  0  0  0  0  0  0
    7.5907   11.1764   24.7217 C   0  0  0  0  0  0  0  0  0  0  0  0
    8.7009   11.8186   24.1565 N   0  0  0  0  0  0  0  0  0  0  0  0
    9.6493   11.0476   23.3526 C   0  0  0  0  0  0  0  0  0  0  0  0
    9.5217    9.5352   23.3718 C   0  0  0  0  0  0  0  0  0  0  0  0
    8.2325    9.0633   23.7697 N   0  0  0  0  0  0  0  0  0  0  0  0
    7.3987    9.7083   24.6215 C   0  0  0  0  0  0  0  0  0  0  0  0
    6.4751    9.1301   25.1797 O   0  0  0  0  0  0  0  0  0  0  0  0
   11.6036   14.7498   19.6612 C   0  0  0  0  0  0  0  0  0  0  0  0
   11.7763   15.6107   18.4392 C   0  0  0  0  0  0  0  0  0  0  0  0
   10.6067   14.7461   18.5153 C   0  0  0  0  0  0  0  0  0  0  0  0
  1  2  1  0
  2  3  1  0
  2  4  1  0
  4  5  1  1
  5  6  1  0
  6  7  1  0
  7  8  2  0
  7  9  1  0
  9 10  2  0
 10 11  1  0
 11 12  2  0
 11 13  1  0
 13 14  2  0
 14 15  1  0
 15 16  1  0
 16 17  1  0
 17 18  1  0
 18 19  1  0
 19 20  2  0
  4 21  1  0
 21 22  1  0
 22 23  1  0
 15  9  1  0
 23 21  1  0
 19 14  1  0
M  END
>  <energy_score>  (4501) 
-47.235188

>  <inchikey>  (4501) 
OUXQLGIECWUUHA-UHFFFAOYSA-N

>  <smiles>  (4501) 
CN(C)C(CNC(=O)c1cc(=O)cc2n1CCNC2=O)C1CC1

>  <ref_pdb>  (4501) 
A0875a

>  <alias>  (4501) 
OUXQLGIECWUUHA-UHFFFAOYSA-N-P198-P144-P198-601508

>  <HIPPO Pose ID>  (4501) 
514679

>  <name>  (4501) 
OUXQLGIECWUUHA-UHFFFAOYSA-N-P198-P144-P198-601508

>  <HIPPO Compound ID>  (4501) 
294057

>  <ref_mols>  (4501) 
A3181a,A3618a

>  <distance_score>  (4501) 
1.825636

>  <inspiration_score>  (4501) 
None

$$$$
OKTJZZWERRCJSU-UHFFFAOYSA-N-P144-P144-P198-601508
     RDKit          3D

 23 25  0  0  0  0  0  0  0  0999 V2000
    6.6592    8.8721   25.2819 O   0  0  0  0  0  0  0  0  0  0  0  0
    7.5398    9.5600   24.7849 C   0  0  0  0  0  0  0  0  0  0  0  0
    8.6296    8.9933   24.2259 N   0  0  0  0  0  0  0  0  0  0  0  0
    9.4685    9.6648   23.2903 C   0  0  0  0  0  0  0  0  0  0  0  0
    9.5472   11.1822   23.4702 C   0  0  0  0  0  0  0  0  0  0  0  0
    8.3208   11.8297   23.9566 N   0  0  0  0  0  0  0  0  0  0  0  0
    7.4686   11.0407   24.7599 C   0  0  0  0  0  0  0  0  0  0  0  0
    6.4906   11.4990   25.5431 C   0  0  0  0  0  0  0  0  0  0  0  0
    6.1876   12.9115   25.4699 C   0  0  0  0  0  0  0  0  0  0  0  0
    5.3047   13.3604   26.1816 O   0  0  0  0  0  0  0  0  0  0  0  0
    7.0131   13.7698   24.6203 C   0  0  0  0  0  0  0  0  0  0  0  0
    8.0981   13.2377   24.0220 C   0  0  0  0  0  0  0  0  0  0  0  0
    9.1547   14.3452   23.9686 C   0  0  0  0  0  0  0  0  0  0  0  0
    9.0968   15.1688   24.7912 O   0  0  0  0  0  0  0  0  0  0  0  0
   10.1925   14.1140   22.8672 N   0  0  0  0  0  0  0  0  0  0  0  0
   11.4386   14.7903   22.5956 C   0  0  2  0  0  0  0  0  0  0  0  0
   12.0172   14.7161   21.1937 C   0  0  0  0  0  0  0  0  0  0  0  0
   11.0962   15.3569   20.2088 N   0  0  0  0  0  0  0  0  0  0  0  0
   11.0933   14.8795   19.0693 O   0  0  0  0  0  0  0  0  0  0  0  0
   10.4397   16.3412   20.5675 O   0  0  0  0  0  0  0  0  0  0  0  0
   12.4658   14.3769   23.6385 C   0  0  0  0  0  0  0  0  0  0  0  0
   12.0379   14.1336   25.0803 C   0  0  0  0  0  0  0  0  0  0  0  0
   12.6400   13.0313   24.2798 C   0  0  0  0  0  0  0  0  0  0  0  0
  1  2  2  0
  2  3  1  0
  3  4  1  0
  4  5  1  0
  5  6  1  0
  6  7  1  0
  7  8  2  0
  8  9  1  0
  9 10  2  0
  9 11  1  0
 11 12  2  0
 12 13  1  0
 13 14  2  0
 13 15  1  0
 15 16  1  0
 16 17  1  6
 17 18  1  0
 18 19  2  0
 18 20  1  0
 16 21  1  0
 21 22  1  0
 22 23  1  0
  7  2  1  0
 23 21  1  0
 12  6  1  0
M  CHG  2  18   1  20  -1
M  END
>  <energy_score>  (4502) 
-17.376147

>  <inchikey>  (4502) 
OKTJZZWERRCJSU-UHFFFAOYSA-N

>  <smiles>  (4502) 
O=C1NCCn2c1cc(=O)cc2C(=O)NC(C[N+](=O)[O-])C1CC1

>  <ref_pdb>  (4502) 
A0875a

>  <alias>  (4502) 
OKTJZZWERRCJSU-UHFFFAOYSA-N-P144-P144-P198-601508

>  <HIPPO Pose ID>  (4502) 
514682

>  <name>  (4502) 
OKTJZZWERRCJSU-UHFFFAOYSA-N-P144-P144-P198-601508

>  <HIPPO Compound ID>  (4502) 
294059

>  <ref_mols>  (4502) 
A3181a,A3618a

>  <distance_score>  (4502) 
1.502122

>  <inspiration_score>  (4502) 
None

$$$$
OKTJZZWERRCJSU-UHFFFAOYSA-N-P198-P144-P198-601508
     RDKit          3D

 23 25  0  0  0  0  0  0  0  0999 V2000
    6.7452    9.0262   25.3292 O   0  0  0  0  0  0  0  0  0  0  0  0
    7.5136    9.7272   24.6879 C   0  0  0  0  0  0  0  0  0  0  0  0
    8.6072    9.2046   24.1042 N   0  0  0  0  0  0  0  0  0  0  0  0
    9.5209    9.9112   23.2765 C   0  0  0  0  0  0  0  0  0  0  0  0
    9.4367   11.4404   23.3495 C   0  0  0  0  0  0  0  0  0  0  0  0
    8.1348   12.0031   23.7413 N   0  0  0  0  0  0  0  0  0  0  0  0
    7.2832   11.1800   24.5120 C   0  0  0  0  0  0  0  0  0  0  0  0
    6.1710   11.5753   25.1353 C   0  0  0  0  0  0  0  0  0  0  0  0
    5.7724   12.9548   24.9808 C   0  0  0  0  0  0  0  0  0  0  0  0
    4.7784   13.3493   25.5655 O   0  0  0  0  0  0  0  0  0  0  0  0
    6.6304   13.8552   24.2136 C   0  0  0  0  0  0  0  0  0  0  0  0
    7.7973   13.3910   23.7265 C   0  0  0  0  0  0  0  0  0  0  0  0
    8.7614   14.5783   23.6637 C   0  0  0  0  0  0  0  0  0  0  0  0
    8.5938   15.4493   24.4187 O   0  0  0  0  0  0  0  0  0  0  0  0
    9.8769   14.3527   22.6415 N   0  0  0  0  0  0  0  0  0  0  0  0
   11.0822   15.1019   22.3898 C   0  0  2  0  0  0  0  0  0  0  0  0
   11.7370   14.9278   21.0322 C   0  0  0  0  0  0  0  0  0  0  0  0
   10.8754   15.5245   19.9806 N   0  0  0  0  0  0  0  0  0  0  0  0
   10.8165   14.9141   18.9112 O   0  0  0  0  0  0  0  0  0  0  0  0
   10.3092   16.5942   20.2276 O   0  0  0  0  0  0  0  0  0  0  0  0
   12.0856   14.8292   23.4883 C   0  0  0  0  0  0  0  0  0  0  0  0
   11.6011   14.6837   24.9180 C   0  0  0  0  0  0  0  0  0  0  0  0
   12.3695   13.5751   24.2771 C   0  0  0  0  0  0  0  0  0  0  0  0
  1  2  2  0
  2  3  1  0
  3  4  1  0
  4  5  1  0
  5  6  1  0
  6  7  1  0
  7  8  2  0
  8  9  1  0
  9 10  2  0
  9 11  1  0
 11 12  2  0
 12 13  1  0
 13 14  2  0
 13 15  1  0
 15 16  1  0
 16 17  1  6
 17 18  1  0
 18 19  2  0
 18 20  1  0
 16 21  1  0
 21 22  1  0
 22 23  1  0
  7  2  1  0
 23 21  1  0
 12  6  1  0
M  CHG  2  18   1  20  -1
M  END
>  <energy_score>  (4503) 
-18.953477

>  <inchikey>  (4503) 
OKTJZZWERRCJSU-UHFFFAOYSA-N

>  <smiles>  (4503) 
O=C1NCCn2c1cc(=O)cc2C(=O)NC(C[N+](=O)[O-])C1CC1

>  <ref_pdb>  (4503) 
A0875a

>  <alias>  (4503) 
OKTJZZWERRCJSU-UHFFFAOYSA-N-P198-P144-P198-601508

>  <HIPPO Pose ID>  (4503) 
514683

>  <name>  (4503) 
OKTJZZWERRCJSU-UHFFFAOYSA-N-P198-P144-P198-601508

>  <HIPPO Compound ID>  (4503) 
294059

>  <ref_mols>  (4503) 
A3181a,A3618a

>  <distance_score>  (4503) 
1.696518

>  <inspiration_score>  (4503) 
None

$$$$
SQIJYXPTRNBMPB-UHFFFAOYSA-N-P198-P144-P198-601508
     RDKit          3D

 23 27  0  0  0  0  0  0  0  0999 V2000
    9.3237   14.5103   25.2964 O   0  0  0  0  0  0  0  0  0  0  0  0
    9.0480   13.9564   24.3097 C   0  0  0  0  0  0  0  0  0  0  0  0
    9.2987   14.3463   22.8455 N   0  0  0  0  0  0  0  0  0  0  0  0
   10.0180   15.4428   22.2903 C   0  0  1  0  0  0  0  0  0  0  0  0
   11.3590   14.9612   21.7724 C   0  0  2  0  0  0  0  0  0  0  0  0
   12.3783   15.9793   21.3894 C   0  0  0  0  0  0  0  0  0  0  0  0
   11.5072   15.3802   20.3211 C   0  0  2  0  0  0  0  0  0  0  0  0
   10.1942   16.0412   19.8913 C   0  0  2  0  0  0  0  0  0  0  0  0
    9.6948   17.3352   20.4921 C   0  0  0  0  0  0  0  0  0  0  0  0
    9.2760   16.0285   21.1066 C   0  0  2  0  0  0  0  0  0  0  0  0
    8.3566   12.6352   24.3977 C   0  0  0  0  0  0  0  0  0  0  0  0
    8.9191   11.5133   23.8085 C   0  0  0  0  0  0  0  0  0  0  0  0
    8.3488   10.2759   24.0834 C   0  0  0  0  0  0  0  0  0  0  0  0
    7.2203   10.2144   24.8924 C   0  0  0  0  0  0  0  0  0  0  0  0
    6.6789   11.3977   25.3741 C   0  0  0  0  0  0  0  0  0  0  0  0
    5.3915   11.3375   26.1298 C   0  0  0  0  0  0  0  0  0  0  0  0
    4.7781   10.2789   26.2214 O   0  0  0  0  0  0  0  0  0  0  0  0
    4.8689   12.5041   26.6247 N   0  0  0  0  0  0  0  0  0  0  0  0
    5.0887   12.9725   27.9704 C   0  0  0  0  0  0  0  0  0  0  0  0
    4.1585   14.1764   28.1005 C   0  0  0  0  0  0  0  0  0  0  0  0
    3.1674   14.0238   26.9491 C   0  0  0  0  0  0  0  0  0  0  0  0
    4.0374   13.4061   25.8673 C   0  0  0  0  0  0  0  0  0  0  0  0
    7.2459   12.6067   25.1610 N   0  0  0  0  0  0  0  0  0  0  0  0
  1  2  2  0
  2  3  1  0
  4  3  1  6
  4  5  1  0
  5  6  1  1
  7  6  1  1
  7  8  1  0
  8  9  1  1
 10  9  1  1
  2 11  1  0
 11 12  2  0
 12 13  1  0
 13 14  2  0
 14 15  1  0
 15 16  1  0
 16 17  2  0
 16 18  1  0
 18 19  1  0
 19 20  1  0
 20 21  1  0
 21 22  1  0
 15 23  2  0
 10  4  1  0
 23 11  1  0
  7  5  1  0
 10  8  1  0
 22 18  1  0
M  END
>  <energy_score>  (4504) 
-47.235726

>  <inchikey>  (4504) 
SQIJYXPTRNBMPB-UHFFFAOYSA-N

>  <smiles>  (4504) 
O=C(NC1C2CC2C2CC21)c1cccc(C(=O)N2CCCC2)n1

>  <ref_pdb>  (4504) 
A0875a

>  <alias>  (4504) 
SQIJYXPTRNBMPB-UHFFFAOYSA-N-P198-P144-P198-601508

>  <HIPPO Pose ID>  (4504) 
514715

>  <name>  (4504) 
SQIJYXPTRNBMPB-UHFFFAOYSA-N-P198-P144-P198-601508

>  <HIPPO Compound ID>  (4504) 
294075

>  <ref_mols>  (4504) 
A3181a,A3618a

>  <distance_score>  (4504) 
1.837411

>  <inspiration_score>  (4504) 
None

$$$$
ASYLSKASVXZOTM-UHFFFAOYSA-N-P198-P144-P198-601508
     RDKit          3D

 23 24  0  0  0  0  0  0  0  0999 V2000
   10.3113   15.5673   18.9011 C   0  0  0  0  0  0  0  0  0  0  0  0
   10.2178   16.4596   19.8908 C   0  0  0  0  0  0  0  0  0  0  0  0
   10.7430   16.2785   21.2754 C   0  0  0  0  0  0  0  0  0  0  0  0
   11.3047   14.8888   21.5781 C   0  0  0  0  0  0  0  0  0  0  0  0
   11.8461   14.7483   23.0053 C   0  0  0  0  0  0  0  0  0  0  0  0
   10.8769   15.2511   24.0810 C   0  0  1  0  0  0  0  0  0  0  0  0
    9.6538   14.5106   24.0477 N   0  0  0  0  0  0  0  0  0  0  0  0
    8.2143   14.9827   23.8796 C   0  0  0  0  0  0  0  0  0  0  0  0
    7.7898   16.0403   23.6638 O   0  0  0  0  0  0  0  0  0  0  0  0
    7.3003   13.8369   24.1488 C   0  0  0  0  0  0  0  0  0  0  0  0
    6.0752   14.1701   24.6981 C   0  0  0  0  0  0  0  0  0  0  0  0
    5.3761   13.1886   25.3759 C   0  0  0  0  0  0  0  0  0  0  0  0
    5.8868   11.8987   25.4517 C   0  0  0  0  0  0  0  0  0  0  0  0
    4.9719   10.7919   26.3934 Cl  0  0  0  0  0  0  0  0  0  0  0  0
    7.0850   11.6247   24.7809 C   0  0  0  0  0  0  0  0  0  0  0  0
    7.6395   10.2281   24.6512 C   0  0  0  0  0  0  0  0  0  0  0  0
    7.1568    9.3588   25.2511 O   0  0  0  0  0  0  0  0  0  0  0  0
    8.7887   10.2167   23.6333 N   0  0  0  0  0  0  0  0  0  0  0  0
    9.6476    9.1491   23.2101 C   0  0  0  0  0  0  0  0  0  0  0  0
    7.8426   12.5844   24.1555 N   0  0  0  0  0  0  0  0  0  0  0  0
   11.3397   15.1401   25.5189 C   0  0  0  0  0  0  0  0  0  0  0  0
   10.3096   15.5141   26.5955 C   0  0  0  0  0  0  0  0  0  0  0  0
   11.5681   16.2832   26.4941 C   0  0  0  0  0  0  0  0  0  0  0  0
  1  2  2  0
  2  3  1  0
  3  4  1  0
  4  5  1  0
  6  5  1  6
  6  7  1  0
  7  8  1  0
  8  9  2  0
  8 10  1  0
 10 11  2  0
 11 12  1  0
 12 13  2  0
 13 14  1  0
 13 15  1  0
 15 16  1  0
 16 17  2  0
 16 18  1  0
 18 19  1  0
 15 20  2  0
  6 21  1  0
 21 22  1  0
 22 23  1  0
 20 10  1  0
 23 21  1  0
M  END
>  <energy_score>  (4505) 
-7.392704

>  <inchikey>  (4505) 
ASYLSKASVXZOTM-UHFFFAOYSA-N

>  <smiles>  (4505) 
C=CCCCC(NC(=O)c1ccc(Cl)c(C(=O)NC)n1)C1CC1

>  <ref_pdb>  (4505) 
A0875a

>  <alias>  (4505) 
ASYLSKASVXZOTM-UHFFFAOYSA-N-P198-P144-P198-601508

>  <HIPPO Pose ID>  (4505) 
514725

>  <name>  (4505) 
ASYLSKASVXZOTM-UHFFFAOYSA-N-P198-P144-P198-601508

>  <HIPPO Compound ID>  (4505) 
294080

>  <ref_mols>  (4505) 
A3181a,A3618a

>  <distance_score>  (4505) 
1.927408

>  <inspiration_score>  (4505) 
None

$$$$
MODNVCCDWYUJID-UHFFFAOYSA-N-P144-P144-P198-601509
     RDKit          3D

 23 27  0  0  0  0  0  0  0  0999 V2000
   10.7245   11.8656   23.7563 O   0  0  0  0  0  0  0  0  0  0  0  0
    9.7811   12.5467   23.7931 C   0  0  0  0  0  0  0  0  0  0  0  0
    9.6162   14.0460   23.4644 N   0  0  0  0  0  0  0  0  0  0  0  0
   10.5366   14.9741   22.9439 C   0  0  2  0  0  0  0  0  0  0  0  0
   10.2831   15.5114   21.5462 C   0  0  1  0  0  0  0  0  0  0  0  0
    9.3956   14.9692   20.5005 C   0  0  0  0  0  0  0  0  0  0  0  0
    9.9748   16.1235   19.6615 C   0  0  0  0  0  0  0  0  0  0  0  0
   10.0995   16.8659   21.0043 C   0  0  0  0  0  0  0  0  0  0  0  0
   11.5226   14.8559   21.8881 C   0  0  2  0  0  0  0  0  0  0  0  0
   12.3901   13.8980   21.2528 C   0  0  0  0  0  0  0  0  0  0  0  0
   12.9349   15.1996   21.8190 C   0  0  0  0  0  0  0  0  0  0  0  0
    8.4613   12.0388   24.3171 C   0  0  0  0  0  0  0  0  0  0  0  0
    8.2899   10.7769   24.8898 C   0  0  0  0  0  0  0  0  0  0  0  0
    7.2086   10.5619   25.7729 C   0  0  0  0  0  0  0  0  0  0  0  0
    6.3896   11.6340   26.0494 C   0  0  0  0  0  0  0  0  0  0  0  0
    6.5363   12.7634   25.2921 C   0  0  0  0  0  0  0  0  0  0  0  0
    7.5341   13.0089   24.4216 N   0  0  0  0  0  0  0  0  0  0  0  0
    5.3919   13.6772   25.3981 C   0  0  0  0  0  0  0  0  0  0  0  0
    5.2045   14.6289   24.6743 O   0  0  0  0  0  0  0  0  0  0  0  0
    4.5074   13.2022   26.3790 N   0  0  0  0  0  0  0  0  0  0  0  0
    5.1297   11.9195   27.2166 S   0  0  0  0  0  0  0  0  0  0  0  0
    4.1772   10.8458   27.2820 O   0  0  0  0  0  0  0  0  0  0  0  0
    5.7335   12.4628   28.4039 O   0  0  0  0  0  0  0  0  0  0  0  0
  1  2  2  0
  2  3  1  0
  4  3  1  6
  4  5  1  0
  5  6  1  6
  6  7  1  0
  7  8  1  0
  5  9  1  0
  9 10  1  6
 10 11  1  0
  2 12  1  0
 12 13  2  0
 13 14  1  0
 14 15  2  0
 15 16  1  0
 16 17  2  0
 16 18  1  0
 18 19  2  0
 18 20  1  0
 20 21  1  0
 21 22  2  0
 21 23  2  0
  9  4  1  0
 17 12  1  0
  8  5  1  0
 11  9  1  0
 21 15  1  0
M  END
>  <energy_score>  (4506) 
-35.180951

>  <inchikey>  (4506) 
MODNVCCDWYUJID-UHFFFAOYSA-N

>  <smiles>  (4506) 
O=C(NC1C2(CCC2)C12CC2)c1ccc2c(n1)C(=O)NS2(=O)=O

>  <ref_pdb>  (4506) 
A3181a

>  <alias>  (4506) 
MODNVCCDWYUJID-UHFFFAOYSA-N-P144-P144-P198-601509

>  <HIPPO Pose ID>  (4506) 
514874

>  <name>  (4506) 
MODNVCCDWYUJID-UHFFFAOYSA-N-P144-P144-P198-601509

>  <HIPPO Compound ID>  (4506) 
294155

>  <ref_mols>  (4506) 
A3181a,A3618a

>  <distance_score>  (4506) 
1.959514

>  <inspiration_score>  (4506) 
None

$$$$
MMIVGPJWZYAWFU-UHFFFAOYSA-N-P144-P144-P198-601509
     RDKit          3D

 24 26  0  0  0  0  0  0  0  0999 V2000
   10.4465   15.6186   18.7881 C   0  0  0  0  0  0  0  0  0  0  0  0
    9.9783   16.2221   20.0861 C   0  0  0  0  0  0  0  0  0  0  0  0
   10.9429   15.9836   21.2289 C   0  0  0  0  0  0  0  0  0  0  0  0
   11.2775   14.5173   21.4482 C   0  0  0  0  0  0  0  0  0  0  0  0
   11.8872   14.2357   22.8205 C   0  0  0  0  0  0  0  0  0  0  0  0
   10.9026   14.4886   23.9652 C   0  0  1  0  0  0  0  0  0  0  0  0
    9.7556   13.6221   24.0301 N   0  0  0  0  0  0  0  0  0  0  0  0
    9.6518   12.0932   23.9167 C   0  0  0  0  0  0  0  0  0  0  0  0
   10.4644   11.2994   23.6764 O   0  0  0  0  0  0  0  0  0  0  0  0
    8.2527   11.6960   24.2896 C   0  0  0  0  0  0  0  0  0  0  0  0
    8.0015   10.4583   24.8915 C   0  0  0  0  0  0  0  0  0  0  0  0
    6.9379   10.3458   25.8104 C   0  0  0  0  0  0  0  0  0  0  0  0
    6.2131   11.4840   26.0824 C   0  0  0  0  0  0  0  0  0  0  0  0
    6.4293   12.5872   25.3036 C   0  0  0  0  0  0  0  0  0  0  0  0
    7.4295   12.7525   24.4175 N   0  0  0  0  0  0  0  0  0  0  0  0
    5.4464   13.6483   25.5272 C   0  0  0  0  0  0  0  0  0  0  0  0
    5.5432   14.7726   25.0885 O   0  0  0  0  0  0  0  0  0  0  0  0
    4.4472   13.1948   26.4183 N   0  0  0  0  0  0  0  0  0  0  0  0
    5.0030   11.8785   27.2728 S   0  0  0  0  0  0  0  0  0  0  0  0
    3.9842   10.8706   27.3870 O   0  0  0  0  0  0  0  0  0  0  0  0
    5.6643   12.4182   28.4310 O   0  0  0  0  0  0  0  0  0  0  0  0
   11.4934   14.4029   25.3512 C   0  0  0  0  0  0  0  0  0  0  0  0
   11.9404   15.5272   26.2639 C   0  0  0  0  0  0  0  0  0  0  0  0
   10.5957   14.9420   26.4697 C   0  0  0  0  0  0  0  0  0  0  0  0
  1  2  1  0
  2  3  1  0
  3  4  1  0
  4  5  1  0
  6  5  1  6
  6  7  1  0
  7  8  1  0
  8  9  2  0
  8 10  1  0
 10 11  2  0
 11 12  1  0
 12 13  2  0
 13 14  1  0
 14 15  2  0
 14 16  1  0
 16 17  2  0
 16 18  1  0
 18 19  1  0
 19 20  2  0
 19 21  2  0
  6 22  1  0
 22 23  1  0
 23 24  1  0
 15 10  1  0
 24 22  1  0
 19 13  1  0
M  END
>  <energy_score>  (4507) 
-18.802694

>  <inchikey>  (4507) 
MMIVGPJWZYAWFU-UHFFFAOYSA-N

>  <smiles>  (4507) 
CCCCCC(NC(=O)c1ccc2c(n1)C(=O)NS2(=O)=O)C1CC1

>  <ref_pdb>  (4507) 
A3181a

>  <alias>  (4507) 
MMIVGPJWZYAWFU-UHFFFAOYSA-N-P144-P144-P198-601509

>  <HIPPO Pose ID>  (4507) 
514946

>  <name>  (4507) 
MMIVGPJWZYAWFU-UHFFFAOYSA-N-P144-P144-P198-601509

>  <HIPPO Compound ID>  (4507) 
294191

>  <ref_mols>  (4507) 
A3181a,A3618a

>  <distance_score>  (4507) 
1.999058

>  <inspiration_score>  (4507) 
None

$$$$
YHSNYZGUCJZJKR-UHFFFAOYSA-N-P198-P144-P198-601509
     RDKit          3D

 24 25  0  0  0  0  0  0  0  0999 V2000
    9.5062    8.9474   23.0745 C   0  0  0  0  0  0  0  0  0  0  0  0
    8.9304   10.1081   23.6872 N   0  0  0  0  0  0  0  0  0  0  0  0
    7.7053   10.2484   24.6104 C   0  0  0  0  0  0  0  0  0  0  0  0
    7.0181    9.4356   25.0796 O   0  0  0  0  0  0  0  0  0  0  0  0
    7.4739   11.7127   24.9005 C   0  0  0  0  0  0  0  0  0  0  0  0
    8.5569   12.4939   24.5854 N   0  0  0  0  0  0  0  0  0  0  0  0
    8.4842   13.8069   24.9395 C   0  0  0  0  0  0  0  0  0  0  0  0
    9.7756   14.5757   24.8675 C   0  0  0  0  0  0  0  0  0  0  0  0
    9.8767   15.6323   25.3434 O   0  0  0  0  0  0  0  0  0  0  0  0
   10.7856   13.7452   24.0687 N   0  0  0  0  0  0  0  0  0  0  0  0
   12.1006   14.0734   23.6038 C   0  0  0  0  0  0  0  0  0  0  0  0
   12.0728   15.0486   22.4160 C   0  0  0  0  0  0  0  0  0  0  0  0
   11.1324   14.5922   21.3887 N   0  0  0  0  0  0  0  0  0  0  0  0
   11.7606   14.5107   20.0854 C   0  0  0  0  0  0  0  0  0  0  0  0
    9.8656   15.3075   21.4805 C   0  0  2  0  0  0  0  0  0  0  0  0
    8.6447   14.3972   21.4465 C   0  0  0  0  0  0  0  0  0  0  0  0
    9.6873   16.5042   20.6097 C   0  0  0  0  0  0  0  0  0  0  0  0
    9.8829   16.4137   19.1470 C   0  0  0  0  0  0  0  0  0  0  0  0
   10.1818   17.7875   21.1418 C   0  0  0  0  0  0  0  0  0  0  0  0
    8.7264   17.5196   21.1840 C   0  0  0  0  0  0  0  0  0  0  0  0
    7.3500   14.4029   25.4532 C   0  0  0  0  0  0  0  0  0  0  0  0
    6.2537   13.5905   25.7259 C   0  0  0  0  0  0  0  0  0  0  0  0
    6.3185   12.2153   25.5002 C   0  0  0  0  0  0  0  0  0  0  0  0
    4.9915   11.2817   26.0659 Cl  0  0  0  0  0  0  0  0  0  0  0  0
  1  2  1  0
  2  3  1  0
  3  4  2  0
  3  5  1  0
  5  6  2  0
  6  7  1  0
  7  8  1  0
  8  9  2  0
  8 10  1  0
 10 11  1  0
 11 12  1  0
 12 13  1  0
 13 14  1  0
 13 15  1  0
 15 16  1  6
 15 17  1  0
 17 18  1  0
 17 19  1  0
 19 20  1  0
  7 21  2  0
 21 22  1  0
 22 23  2  0
 23 24  1  0
 23  5  1  0
 20 17  1  0
M  END
>  <energy_score>  (4508) 
-4.036711

>  <inchikey>  (4508) 
YHSNYZGUCJZJKR-UHFFFAOYSA-N

>  <smiles>  (4508) 
CNC(=O)c1nc(C(=O)NCCN(C)C(C)C2(C)CC2)ccc1Cl

>  <ref_pdb>  (4508) 
A3181a

>  <alias>  (4508) 
YHSNYZGUCJZJKR-UHFFFAOYSA-N-P198-P144-P198-601509

>  <HIPPO Pose ID>  (4508) 
515041

>  <name>  (4508) 
YHSNYZGUCJZJKR-UHFFFAOYSA-N-P198-P144-P198-601509

>  <HIPPO Compound ID>  (4508) 
294238

>  <ref_mols>  (4508) 
A3181a,A3618a

>  <distance_score>  (4508) 
1.729592

>  <inspiration_score>  (4508) 
None

$$$$
UFTVCNKEZCUIJN-UHFFFAOYSA-N-P239-P120-P239-601509
     RDKit          3D

 21 24  0  0  0  0  0  0  0  0999 V2000
    7.8635   15.0789   26.2249 O   0  0  0  0  0  0  0  0  0  0  0  0
    8.6036   14.5254   25.5123 C   0  0  0  0  0  0  0  0  0  0  0  0
    9.7737   15.2376   24.9258 C   0  0  0  0  0  0  0  0  0  0  0  0
   10.0825   15.2791   23.6177 C   0  0  0  0  0  0  0  0  0  0  0  0
   11.3132   15.9872   23.0926 C   0  0  2  0  0  0  0  0  0  0  0  0
   10.9645   16.9385   21.9369 C   0  0  0  0  0  0  0  0  0  0  0  0
   10.2586   16.2254   20.7903 C   0  0  1  0  0  0  0  0  0  0  0  0
   11.1990   15.1610   20.2365 C   0  0  0  0  0  0  0  0  0  0  0  0
   11.5661   14.1984   21.3680 C   0  0  1  0  0  0  0  0  0  0  0  0
   12.2617   14.9370   22.5224 C   0  0  0  0  0  0  0  0  0  0  0  0
   10.2674   13.5800   21.9108 C   0  0  0  0  0  0  0  0  0  0  0  0
    9.3239   14.6203   22.4993 C   0  0  2  0  0  0  0  0  0  0  0  0
    8.9799   15.6259   21.3959 C   0  0  0  0  0  0  0  0  0  0  0  0
    8.6195   13.0506   25.0265 N   0  0  0  0  0  0  0  0  0  0  0  0
    7.8085   11.9690   25.3827 C   0  0  0  0  0  0  0  0  0  0  0  0
    8.1553   10.6727   25.0337 C   0  0  0  0  0  0  0  0  0  0  0  0
    7.4521    9.5730   25.4092 N   0  0  0  0  0  0  0  0  0  0  0  0
    6.3363    9.7743   26.1419 C   0  0  0  0  0  0  0  0  0  0  0  0
    5.8803   11.0164   26.5005 C   0  0  0  0  0  0  0  0  0  0  0  0
    6.6251   12.1088   26.0937 C   0  0  0  0  0  0  0  0  0  0  0  0
    6.1299   13.3110   26.3750 F   0  0  0  0  0  0  0  0  0  0  0  0
  1  2  2  0
  2  3  1  0
  3  4  2  3
  4  5  1  0
  5  6  1  6
  7  6  1  1
  7  8  1  0
  9  8  1  6
  9 10  1  0
  9 11  1  0
 12 11  1  6
 12 13  1  0
  2 14  1  0
 14 15  1  0
 15 16  2  0
 16 17  1  0
 17 18  2  0
 18 19  1  0
 19 20  2  0
 20 21  1  0
 12  4  1  0
 20 15  1  0
 10  5  1  0
 13  7  1  0
M  END
>  <energy_score>  (4509) 
-12.709852

>  <inchikey>  (4509) 
UFTVCNKEZCUIJN-UHFFFAOYSA-N

>  <smiles>  (4509) 
O=C(C=C1C2CC3CC(C2)CC1C3)Nc1cnccc1F

>  <ref_pdb>  (4509) 
A3181a

>  <alias>  (4509) 
UFTVCNKEZCUIJN-UHFFFAOYSA-N-P239-P120-P239-601509

>  <HIPPO Pose ID>  (4509) 
515169

>  <name>  (4509) 
UFTVCNKEZCUIJN-UHFFFAOYSA-N-P239-P120-P239-601509

>  <HIPPO Compound ID>  (4509) 
293585

>  <ref_mols>  (4509) 
A1445a,A3920a

>  <distance_score>  (4509) 
1.631021

>  <inspiration_score>  (4509) 
None

$$$$
LNZBSQNIVZPJEF-UHFFFAOYSA-N-P239-P120-P239-601509
     RDKit          3D

 22 25  0  0  0  0  0  0  0  0999 V2000
    9.5895   10.2545   22.9469 O   0  0  0  0  0  0  0  0  0  0  0  0
    9.4467   11.3290   23.3602 C   0  0  0  0  0  0  0  0  0  0  0  0
   10.2461   12.4166   22.7857 C   0  0  0  0  0  0  0  0  0  0  0  0
   10.1827   13.7130   22.4904 C   0  0  0  0  0  0  0  0  0  0  0  0
   11.4007   14.2975   21.7646 C   0  0  2  0  0  0  0  0  0  0  0  0
   11.9786   15.3613   22.6750 C   0  0  0  0  0  0  0  0  0  0  0  0
   10.8835   16.3899   22.9438 C   0  0  1  0  0  0  0  0  0  0  0  0
   10.4539   17.0160   21.6078 C   0  0  0  0  0  0  0  0  0  0  0  0
    9.8835   15.9506   20.6719 C   0  0  1  0  0  0  0  0  0  0  0  0
   10.9735   14.9122   20.4291 C   0  0  0  0  0  0  0  0  0  0  0  0
    8.6655   15.3330   21.3951 C   0  0  0  0  0  0  0  0  0  0  0  0
    9.0743   14.6950   22.7275 C   0  0  2  0  0  0  0  0  0  0  0  0
    9.6630   15.7643   23.6323 C   0  0  0  0  0  0  0  0  0  0  0  0
    8.4942   11.8598   24.4188 N   0  0  0  0  0  0  0  0  0  0  0  0
    7.6102   11.1998   25.2351 C   0  0  0  0  0  0  0  0  0  0  0  0
    7.5748    9.8187   25.2253 C   0  0  0  0  0  0  0  0  0  0  0  0
    6.6386    9.1062   25.8740 N   0  0  0  0  0  0  0  0  0  0  0  0
    5.7262    9.7931   26.5890 C   0  0  0  0  0  0  0  0  0  0  0  0
    5.6912   11.1737   26.6549 C   0  0  0  0  0  0  0  0  0  0  0  0
    4.3009   12.0224   27.5923 Br  0  0  0  0  0  0  0  0  0  0  0  0
    6.6637   11.8882   25.9701 C   0  0  0  0  0  0  0  0  0  0  0  0
    6.6899   13.2523   25.9250 O   0  0  0  0  0  0  0  0  0  0  0  0
  1  2  2  0
  2  3  1  0
  3  4  2  3
  4  5  1  0
  5  6  1  1
  7  6  1  6
  7  8  1  0
  9  8  1  1
  9 10  1  0
  9 11  1  0
 12 11  1  6
 12 13  1  0
  2 14  1  0
 14 15  1  0
 15 16  2  0
 16 17  1  0
 17 18  2  0
 18 19  1  0
 19 20  1  0
 19 21  2  0
 21 22  1  0
 12  4  1  0
 21 15  1  0
 10  5  1  0
 13  7  1  0
M  END
>  <energy_score>  (4510) 
-11.864812

>  <inchikey>  (4510) 
LNZBSQNIVZPJEF-UHFFFAOYSA-N

>  <smiles>  (4510) 
O=C(C=C1C2CC3CC(C2)CC1C3)Nc1cncc(Br)c1O

>  <ref_pdb>  (4510) 
A3181a

>  <alias>  (4510) 
LNZBSQNIVZPJEF-UHFFFAOYSA-N-P239-P120-P239-601509

>  <HIPPO Pose ID>  (4510) 
515209

>  <name>  (4510) 
LNZBSQNIVZPJEF-UHFFFAOYSA-N-P239-P120-P239-601509

>  <HIPPO Compound ID>  (4510) 
293605

>  <ref_mols>  (4510) 
A1445a,A3920a

>  <distance_score>  (4510) 
1.989732

>  <inspiration_score>  (4510) 
None

$$$$
LSLMHDPWRQLVIY-UHFFFAOYSA-N-P339-P198-P339-601509
     RDKit          3D

 19 21  0  0  0  0  0  0  0  0999 V2000
    9.5176   15.9908   20.7749 C   0  0  0  0  0  0  0  0  0  0  0  0
    9.9838   15.1063   21.9294 C   0  0  1  0  0  0  0  0  0  0  0  0
   10.9704   14.2412   21.3647 O   0  0  0  0  0  0  0  0  0  0  0  0
   10.7254   16.0304   22.9279 C   0  0  0  0  0  0  0  0  0  0  0  0
   11.8282   15.3528   23.5414 O   0  0  0  0  0  0  0  0  0  0  0  0
    8.6353   14.4497   22.5165 C   0  0  0  0  0  0  0  0  0  0  0  0
    7.7975   14.0399   21.7875 O   0  0  0  0  0  0  0  0  0  0  0  0
    8.6464   14.5718   24.0448 N   0  0  0  0  0  0  0  0  0  0  0  0
    7.5436   14.2993   25.0767 C   0  0  0  0  0  0  0  0  0  0  0  0
    6.1287   13.8763   24.7041 C   0  0  0  0  0  0  0  0  0  0  0  0
    6.3912   15.2995   25.0052 C   0  0  0  0  0  0  0  0  0  0  0  0
    9.2488   13.2139   24.7464 C   0  0  2  0  0  0  0  0  0  0  0  0
   10.6396   12.7879   24.1337 C   0  0  0  0  0  0  0  0  0  0  0  0
   10.9073   11.3304   24.1869 N   0  0  0  0  0  0  0  0  0  0  0  0
   10.5282   10.8745   25.5041 C   0  0  0  0  0  0  0  0  0  0  0  0
    9.0357   10.9972   25.7824 C   0  0  0  0  0  0  0  0  0  0  0  0
    8.4195   11.8776   24.7494 C   0  0  0  0  0  0  0  0  0  0  0  0
    8.6087   11.0800   23.5037 C   0  0  0  0  0  0  0  0  0  0  0  0
   10.0290   10.6530   23.2365 C   0  0  0  0  0  0  0  0  0  0  0  0
  2  1  1  6
  2  3  1  0
  2  4  1  0
  4  5  1  0
  2  6  1  0
  6  7  2  0
  6  8  1  0
  8  9  1  0
  9 10  1  0
 10 11  1  0
 12  8  1  6
 12 13  1  0
 13 14  1  0
 14 15  1  0
 15 16  1  0
 16 17  1  0
 17 18  1  0
 18 19  1  0
 11  9  1  0
 17 12  1  0
 19 14  1  0
M  END
>  <energy_score>  (4511) 
-7.693214

>  <inchikey>  (4511) 
LSLMHDPWRQLVIY-UHFFFAOYSA-N

>  <smiles>  (4511) 
CC(O)(CO)C(=O)N(C1CC1)C1CN2CCC1CC2

>  <ref_pdb>  (4511) 
A3181a

>  <alias>  (4511) 
LSLMHDPWRQLVIY-UHFFFAOYSA-N-P339-P198-P339-601509

>  <HIPPO Pose ID>  (4511) 
515579

>  <name>  (4511) 
LSLMHDPWRQLVIY-UHFFFAOYSA-N-P339-P198-P339-601509

>  <HIPPO Compound ID>  (4511) 
303163

>  <ref_mols>  (4511) 
A4237b,A3618a

>  <distance_score>  (4511) 
1.975822

>  <inspiration_score>  (4511) 
None

$$$$
UTNXUQBZEWJYRP-UHFFFAOYSA-N-P339-P198-P339-601509
     RDKit          3D

 23 25  0  0  0  0  0  0  0  0999 V2000
   10.5690    9.8467   24.5554 C   0  0  0  0  0  0  0  0  0  0  0  0
   10.7150   11.2956   24.6015 N   0  0  0  0  0  0  0  0  0  0  0  0
    9.6475   12.0963   24.0395 C   0  0  0  0  0  0  0  0  0  0  0  0
    9.2308   13.1800   25.0843 C   0  0  2  0  0  0  0  0  0  0  0  0
    8.0445   14.0910   24.6272 N   0  0  0  0  0  0  0  0  0  0  0  0
    7.9276   14.0628   23.2035 C   0  0  0  0  0  0  0  0  0  0  0  0
    7.2820   13.3463   22.4868 O   0  0  0  0  0  0  0  0  0  0  0  0
    8.6820   15.2016   22.5481 C   0  0  1  0  0  0  0  0  0  0  0  0
    9.7328   14.9160   21.5192 C   0  0  0  0  0  0  0  0  0  0  0  0
    7.9783   16.5476   22.4917 C   0  0  0  0  0  0  0  0  0  0  0  0
    9.0408   16.2985   23.4138 O   0  0  0  0  0  0  0  0  0  0  0  0
    7.2881   13.2869   25.7243 C   0  0  2  0  0  0  0  0  0  0  0  0
    7.0105   11.7678   25.5900 C   0  0  0  0  0  0  0  0  0  0  0  0
    6.0121   11.2443   26.6128 C   0  0  0  0  0  0  0  0  0  0  0  0
    4.7856   12.0775   26.8730 C   0  0  0  0  0  0  0  0  0  0  0  0
    3.7867   11.5673   27.3812 O   0  0  0  0  0  0  0  0  0  0  0  0
    4.9153   13.4379   26.6625 N   0  0  0  0  0  0  0  0  0  0  0  0
    3.7252   14.2427   26.8695 C   0  0  0  0  0  0  0  0  0  0  0  0
    5.8604   13.9356   25.6753 C   0  0  0  0  0  0  0  0  0  0  0  0
   10.4847   14.0816   25.3334 C   0  0  0  0  0  0  0  0  0  0  0  0
   11.8205   13.4552   24.9251 C   0  0  0  0  0  0  0  0  0  0  0  0
   11.8665   11.9408   25.0212 C   0  0  0  0  0  0  0  0  0  0  0  0
   12.8910   11.3531   25.3615 O   0  0  0  0  0  0  0  0  0  0  0  0
  1  2  1  0
  2  3  1  0
  3  4  1  0
  4  5  1  6
  5  6  1  0
  6  7  2  0
  6  8  1  0
  8  9  1  6
  8 10  1  0
 10 11  1  0
 12  5  1  6
 12 13  1  0
 13 14  1  0
 14 15  1  0
 15 16  2  0
 15 17  1  0
 17 18  1  0
 17 19  1  0
  4 20  1  0
 20 21  1  0
 21 22  1  0
 22 23  2  0
 22  2  1  0
 11  8  1  0
 19 12  1  0
M  END
>  <energy_score>  (4512) 
-6.765761

>  <inchikey>  (4512) 
UTNXUQBZEWJYRP-UHFFFAOYSA-N

>  <smiles>  (4512) 
CN1CC(N(C(=O)C2(C)CO2)C2CCC(=O)N(C)C2)CCC1=O

>  <ref_pdb>  (4512) 
A3181a

>  <alias>  (4512) 
UTNXUQBZEWJYRP-UHFFFAOYSA-N-P339-P198-P339-601509

>  <HIPPO Pose ID>  (4512) 
515611

>  <name>  (4512) 
UTNXUQBZEWJYRP-UHFFFAOYSA-N-P339-P198-P339-601509

>  <HIPPO Compound ID>  (4512) 
303194

>  <ref_mols>  (4512) 
A4237b,A3618a

>  <distance_score>  (4512) 
1.951748

>  <inspiration_score>  (4512) 
None

$$$$
KSLQTJAMFMHYJK-UHFFFAOYSA-N-P12-P12-P103-601509
     RDKit          3D

 24 27  0  0  0  0  0  0  0  0999 V2000
   19.5160   -9.4660   17.5807 C   0  0  0  0  0  0  0  0  0  0  0  0
   19.9307   -8.0491   17.3245 C   0  0  0  0  0  0  0  0  0  0  0  0
   20.1232   -7.6152   16.0249 C   0  0  0  0  0  0  0  0  0  0  0  0
   20.7051   -6.3759   15.8343 C   0  0  0  0  0  0  0  0  0  0  0  0
   21.0323   -5.5992   16.9409 C   0  0  0  0  0  0  0  0  0  0  0  0
   20.7133   -6.0351   18.2261 C   0  0  0  0  0  0  0  0  0  0  0  0
   20.8993   -5.2126   19.3402 N   0  0  0  0  0  0  0  0  0  0  0  0
   20.6383   -3.7662   19.2191 C   0  0  0  0  0  0  0  0  0  0  0  0
   19.8223   -3.3902   20.4594 C   0  0  0  0  0  0  0  0  0  0  0  0
   19.1756   -4.7018   20.9025 C   0  0  1  0  0  0  0  0  0  0  0  0
   17.8818   -5.0889   20.3076 N   0  0  0  0  0  0  0  0  0  0  0  0
   17.6283   -4.6436   18.9360 C   0  0  0  0  0  0  0  0  0  0  0  0
   16.2695   -5.0396   18.4193 C   0  0  0  0  0  0  0  0  0  0  0  0
   15.2408   -4.0692   18.2137 C   0  0  0  0  0  0  0  0  0  0  0  0
   13.9968   -4.3421   17.5715 C   0  0  0  0  0  0  0  0  0  0  0  0
   13.6323   -5.6140   17.0936 C   0  0  0  0  0  0  0  0  0  0  0  0
   14.5733   -6.6170   17.3522 C   0  0  0  0  0  0  0  0  0  0  0  0
   14.5286   -7.9288   17.0593 N   0  0  0  0  0  0  0  0  0  0  0  0
   15.6559   -8.4279   17.5993 N   0  0  0  0  0  0  0  0  0  0  0  0
   15.8538   -9.8560   17.5914 C   0  0  0  0  0  0  0  0  0  0  0  0
   16.4968   -7.4907   18.1211 C   0  0  0  0  0  0  0  0  0  0  0  0
   15.8311   -6.3041   17.9884 C   0  0  0  0  0  0  0  0  0  0  0  0
   20.3222   -5.6939   20.6011 C   0  0  0  0  0  0  0  0  0  0  0  0
   20.2145   -7.2830   18.4053 N   0  0  0  0  0  0  0  0  0  0  0  0
  1  2  1  0
  2  3  2  0
  3  4  1  0
  4  5  2  0
  5  6  1  0
  6  7  1  0
  7  8  1  0
  8  9  1  0
  9 10  1  0
 10 11  1  6
 11 12  1  0
 12 13  1  0
 13 14  2  0
 14 15  1  0
 15 16  2  0
 16 17  1  0
 17 18  2  0
 18 19  1  0
 19 20  1  0
 19 21  1  0
 21 22  2  0
 10 23  1  0
  6 24  2  0
 24  2  1  0
 23  7  1  0
 22 13  1  0
 22 17  1  0
M  END
>  <energy_score>  (4513) 
-38.96577

>  <inchikey>  (4513) 
KSLQTJAMFMHYJK-UHFFFAOYSA-N

>  <smiles>  (4513) 
Cc1cccc(N2CCC(NCc3cccc4nn(C)cc34)C2)n1

>  <ref_pdb>  (4513) 
A3181a

>  <alias>  (4513) 
KSLQTJAMFMHYJK-UHFFFAOYSA-N-P12-P12-P103-601509

>  <HIPPO Pose ID>  (4513) 
516030

>  <name>  (4513) 
KSLQTJAMFMHYJK-UHFFFAOYSA-N-P12-P12-P103-601509

>  <HIPPO Compound ID>  (4513) 
293401

>  <ref_mols>  (4513) 
A0497a,A1105b

>  <distance_score>  (4513) 
1.542358

>  <inspiration_score>  (4513) 
None

$$$$
KSLQTJAMFMHYJK-UHFFFAOYSA-N-P103-P12-P103-601509
     RDKit          3D

 24 27  0  0  0  0  0  0  0  0999 V2000
   19.7399   -9.2681   17.6780 C   0  0  0  0  0  0  0  0  0  0  0  0
   20.0092   -7.8644   17.2292 C   0  0  0  0  0  0  0  0  0  0  0  0
   20.0334   -7.5624   15.8805 C   0  0  0  0  0  0  0  0  0  0  0  0
   20.4608   -6.3018   15.5056 C   0  0  0  0  0  0  0  0  0  0  0  0
   20.8071   -5.3749   16.4828 C   0  0  0  0  0  0  0  0  0  0  0  0
   20.6716   -5.6988   17.8312 C   0  0  0  0  0  0  0  0  0  0  0  0
   20.8647   -4.7497   18.8366 N   0  0  0  0  0  0  0  0  0  0  0  0
   20.5221   -3.3370   18.5813 C   0  0  0  0  0  0  0  0  0  0  0  0
   19.7652   -2.8775   19.8348 C   0  0  0  0  0  0  0  0  0  0  0  0
   19.1987   -4.1660   20.4317 C   0  0  1  0  0  0  0  0  0  0  0  0
   17.9050   -4.6572   19.9151 N   0  0  0  0  0  0  0  0  0  0  0  0
   17.6113   -4.3573   18.5128 C   0  0  0  0  0  0  0  0  0  0  0  0
   16.2772   -4.8647   18.0691 C   0  0  0  0  0  0  0  0  0  0  0  0
   15.2137   -3.9688   17.7971 C   0  0  0  0  0  0  0  0  0  0  0  0
   13.9606   -4.3583   17.2577 C   0  0  0  0  0  0  0  0  0  0  0  0
   13.6364   -5.6922   16.9579 C   0  0  0  0  0  0  0  0  0  0  0  0
   14.6259   -6.6239   17.2824 C   0  0  0  0  0  0  0  0  0  0  0  0
   14.6247   -7.9617   17.1436 N   0  0  0  0  0  0  0  0  0  0  0  0
   15.7906   -8.3484   17.6940 N   0  0  0  0  0  0  0  0  0  0  0  0
   16.0516   -9.7574   17.8500 C   0  0  0  0  0  0  0  0  0  0  0  0
   16.6086   -7.3224   18.0637 C   0  0  0  0  0  0  0  0  0  0  0  0
   15.8881   -6.1872   17.8142 C   0  0  0  0  0  0  0  0  0  0  0  0
   20.3816   -5.1257   20.1722 C   0  0  0  0  0  0  0  0  0  0  0  0
   20.3232   -6.9604   18.1870 N   0  0  0  0  0  0  0  0  0  0  0  0
  1  2  1  0
  2  3  2  0
  3  4  1  0
  4  5  2  0
  5  6  1  0
  6  7  1  0
  7  8  1  0
  8  9  1  0
  9 10  1  0
 10 11  1  6
 11 12  1  0
 12 13  1  0
 13 14  2  0
 14 15  1  0
 15 16  2  0
 16 17  1  0
 17 18  2  0
 18 19  1  0
 19 20  1  0
 19 21  1  0
 21 22  2  0
 10 23  1  0
  6 24  2  0
 24  2  1  0
 23  7  1  0
 22 13  1  0
 22 17  1  0
M  END
>  <energy_score>  (4514) 
-38.016751

>  <inchikey>  (4514) 
KSLQTJAMFMHYJK-UHFFFAOYSA-N

>  <smiles>  (4514) 
Cc1cccc(N2CCC(NCc3cccc4nn(C)cc34)C2)n1

>  <ref_pdb>  (4514) 
A3181a

>  <alias>  (4514) 
KSLQTJAMFMHYJK-UHFFFAOYSA-N-P103-P12-P103-601509

>  <HIPPO Pose ID>  (4514) 
516031

>  <name>  (4514) 
KSLQTJAMFMHYJK-UHFFFAOYSA-N-P103-P12-P103-601509

>  <HIPPO Compound ID>  (4514) 
293401

>  <ref_mols>  (4514) 
A0497a,A1105b

>  <distance_score>  (4514) 
1.478558

>  <inspiration_score>  (4514) 
None

$$$$
OYQGUJFHEKXXLS-UHFFFAOYSA-N-P12-P12-P103-601509
     RDKit          3D

 24 27  0  0  0  0  0  0  0  0999 V2000
   16.3209   -7.8201   18.3505 C   0  0  0  0  0  0  0  0  0  0  0  0
   17.3318   -7.7408   17.3245 N   0  0  0  0  0  0  0  0  0  0  0  0
   18.6631   -7.4861   17.5050 C   0  0  0  0  0  0  0  0  0  0  0  0
   19.2066   -7.4348   16.2460 C   0  0  0  0  0  0  0  0  0  0  0  0
   20.5393   -7.1761   15.8616 C   0  0  0  0  0  0  0  0  0  0  0  0
   21.8483   -6.9828   16.5950 C   0  0  0  0  0  0  0  0  0  0  0  0
   21.8707   -7.2358   18.0218 N   0  0  0  0  0  0  0  0  0  0  0  0
   21.6165   -6.0768   18.8722 C   0  0  1  0  0  0  0  0  0  0  0  0
   22.9008   -5.4225   19.3704 C   0  0  0  0  0  0  0  0  0  0  0  0
   22.4044   -4.1333   20.0376 C   0  0  0  0  0  0  0  0  0  0  0  0
   21.1085   -3.7957   19.4031 N   0  0  0  0  0  0  0  0  0  0  0  0
   20.0045   -3.8888   20.2930 C   0  0  0  0  0  0  0  0  0  0  0  0
   20.0239   -4.8650   21.2347 N   0  0  0  0  0  0  0  0  0  0  0  0
   18.9268   -5.0623   21.9856 C   0  0  0  0  0  0  0  0  0  0  0  0
   17.7633   -4.3475   21.8295 C   0  0  0  0  0  0  0  0  0  0  0  0
   17.7327   -3.3547   20.8648 C   0  0  0  0  0  0  0  0  0  0  0  0
   18.8702   -3.0919   20.1163 C   0  0  0  0  0  0  0  0  0  0  0  0
   18.8535   -1.6978   19.1360 Cl  0  0  0  0  0  0  0  0  0  0  0  0
   20.8598   -4.8265   18.3619 C   0  0  0  0  0  0  0  0  0  0  0  0
   20.6298   -7.1655   14.4351 C   0  0  0  0  0  0  0  0  0  0  0  0
   19.5659   -7.4381   13.5307 C   0  0  0  0  0  0  0  0  0  0  0  0
   18.2659   -7.7445   13.9542 C   0  0  0  0  0  0  0  0  0  0  0  0
   18.0969   -7.7192   15.3462 C   0  0  0  0  0  0  0  0  0  0  0  0
   16.9754   -7.9494   16.0473 N   0  0  0  0  0  0  0  0  0  0  0  0
  1  2  1  0
  2  3  1  0
  3  4  2  0
  4  5  1  0
  5  6  1  0
  6  7  1  0
  8  7  1  6
  8  9  1  0
  9 10  1  0
 10 11  1  0
 11 12  1  0
 12 13  2  0
 13 14  1  0
 14 15  2  0
 15 16  1  0
 16 17  2  0
 17 18  1  0
 11 19  1  0
  5 20  2  0
 20 21  1  0
 21 22  2  0
 22 23  1  0
 23 24  2  0
 24  2  1  0
 23  4  1  0
 19  8  1  0
 17 12  1  0
M  END
>  <energy_score>  (4515) 
-34.784594

>  <inchikey>  (4515) 
OYQGUJFHEKXXLS-UHFFFAOYSA-N

>  <smiles>  (4515) 
Cn1cc2c(CNC3CCN(c4ncccc4Cl)C3)cccc2n1

>  <ref_pdb>  (4515) 
A3181a

>  <alias>  (4515) 
OYQGUJFHEKXXLS-UHFFFAOYSA-N-P12-P12-P103-601509

>  <HIPPO Pose ID>  (4515) 
516032

>  <name>  (4515) 
OYQGUJFHEKXXLS-UHFFFAOYSA-N-P12-P12-P103-601509

>  <HIPPO Compound ID>  (4515) 
293402

>  <ref_mols>  (4515) 
A0497a,A1105b

>  <distance_score>  (4515) 
1.649931

>  <inspiration_score>  (4515) 
None

$$$$
OYQGUJFHEKXXLS-UHFFFAOYSA-N-P103-P12-P103-601509
     RDKit          3D

 24 27  0  0  0  0  0  0  0  0999 V2000
   15.5869   -7.4604   17.7768 C   0  0  0  0  0  0  0  0  0  0  0  0
   16.8207   -7.5680   17.0340 N   0  0  0  0  0  0  0  0  0  0  0  0
   17.9557   -6.8419   17.2542 C   0  0  0  0  0  0  0  0  0  0  0  0
   18.8073   -7.1960   16.2407 C   0  0  0  0  0  0  0  0  0  0  0  0
   20.0815   -6.6656   15.9823 C   0  0  0  0  0  0  0  0  0  0  0  0
   20.7767   -5.5641   16.7207 C   0  0  0  0  0  0  0  0  0  0  0  0
   22.2031   -5.8336   16.9587 N   0  0  0  0  0  0  0  0  0  0  0  0
   22.8847   -4.8289   17.8113 C   0  0  1  0  0  0  0  0  0  0  0  0
   22.8911   -3.3953   17.2683 C   0  0  0  0  0  0  0  0  0  0  0  0
   21.6265   -2.7440   17.8429 C   0  0  0  0  0  0  0  0  0  0  0  0
   21.3002   -3.5444   19.0151 N   0  0  0  0  0  0  0  0  0  0  0  0
   20.1380   -3.6091   19.7356 C   0  0  0  0  0  0  0  0  0  0  0  0
   20.3004   -4.0626   21.0078 N   0  0  0  0  0  0  0  0  0  0  0  0
   19.2310   -4.1995   21.8149 C   0  0  0  0  0  0  0  0  0  0  0  0
   17.9454   -3.9181   21.4244 C   0  0  0  0  0  0  0  0  0  0  0  0
   17.7512   -3.4753   20.1292 C   0  0  0  0  0  0  0  0  0  0  0  0
   18.8457   -3.3183   19.2774 C   0  0  0  0  0  0  0  0  0  0  0  0
   18.4405   -2.8968   17.6748 Cl  0  0  0  0  0  0  0  0  0  0  0  0
   22.2751   -4.6182   19.2162 C   0  0  0  0  0  0  0  0  0  0  0  0
   20.6220   -7.2263   14.7974 C   0  0  0  0  0  0  0  0  0  0  0  0
   19.9685   -8.2120   14.0005 C   0  0  0  0  0  0  0  0  0  0  0  0
   18.6929   -8.7319   14.3012 C   0  0  0  0  0  0  0  0  0  0  0  0
   18.1087   -8.1855   15.4552 C   0  0  0  0  0  0  0  0  0  0  0  0
   16.9068   -8.4367   16.0048 N   0  0  0  0  0  0  0  0  0  0  0  0
  1  2  1  0
  2  3  1  0
  3  4  2  0
  4  5  1  0
  5  6  1  0
  6  7  1  0
  8  7  1  6
  8  9  1  0
  9 10  1  0
 10 11  1  0
 11 12  1  0
 12 13  2  0
 13 14  1  0
 14 15  2  0
 15 16  1  0
 16 17  2  0
 17 18  1  0
 11 19  1  0
  5 20  2  0
 20 21  1  0
 21 22  2  0
 22 23  1  0
 23 24  2  0
 24  2  1  0
 23  4  1  0
 19  8  1  0
 17 12  1  0
M  END
>  <energy_score>  (4516) 
-38.398553

>  <inchikey>  (4516) 
OYQGUJFHEKXXLS-UHFFFAOYSA-N

>  <smiles>  (4516) 
Cn1cc2c(CNC3CCN(c4ncccc4Cl)C3)cccc2n1

>  <ref_pdb>  (4516) 
A3181a

>  <alias>  (4516) 
OYQGUJFHEKXXLS-UHFFFAOYSA-N-P103-P12-P103-601509

>  <HIPPO Pose ID>  (4516) 
516033

>  <name>  (4516) 
OYQGUJFHEKXXLS-UHFFFAOYSA-N-P103-P12-P103-601509

>  <HIPPO Compound ID>  (4516) 
293402

>  <ref_mols>  (4516) 
A0497a,A1105b

>  <distance_score>  (4516) 
1.29606

>  <inspiration_score>  (4516) 
None

$$$$
AXUXFPFYRSBSAT-UHFFFAOYSA-N-P12-P12-P103-601509
     RDKit          3D

 24 27  0  0  0  0  0  0  0  0999 V2000
   15.4985   -7.6270   17.8361 C   0  0  0  0  0  0  0  0  0  0  0  0
   16.7305   -7.6366   17.0831 N   0  0  0  0  0  0  0  0  0  0  0  0
   17.9092   -7.0633   17.4652 C   0  0  0  0  0  0  0  0  0  0  0  0
   18.7625   -7.2731   16.4134 C   0  0  0  0  0  0  0  0  0  0  0  0
   20.0879   -6.8298   16.3028 C   0  0  0  0  0  0  0  0  0  0  0  0
   20.8618   -5.9841   17.2682 C   0  0  0  0  0  0  0  0  0  0  0  0
   22.1743   -6.5551   17.5927 N   0  0  0  0  0  0  0  0  0  0  0  0
   22.9919   -5.7489   18.5281 C   0  0  1  0  0  0  0  0  0  0  0  0
   23.4591   -4.3979   17.9821 C   0  0  0  0  0  0  0  0  0  0  0  0
   22.3863   -3.4006   18.4205 C   0  0  0  0  0  0  0  0  0  0  0  0
   21.7734   -3.9955   19.6126 N   0  0  0  0  0  0  0  0  0  0  0  0
   20.4289   -3.8110   19.9127 C   0  0  0  0  0  0  0  0  0  0  0  0
   19.9001   -4.6201   20.8677 N   0  0  0  0  0  0  0  0  0  0  0  0
   18.5953   -4.5023   21.1818 C   0  0  0  0  0  0  0  0  0  0  0  0
   17.7407   -3.6174   20.5645 C   0  0  0  0  0  0  0  0  0  0  0  0
   18.2595   -2.7805   19.5956 C   0  0  0  0  0  0  0  0  0  0  0  0
   19.6159   -2.8489   19.3035 C   0  0  0  0  0  0  0  0  0  0  0  0
   20.1242   -1.9469   18.4524 F   0  0  0  0  0  0  0  0  0  0  0  0
   22.3289   -5.3345   19.8631 C   0  0  0  0  0  0  0  0  0  0  0  0
   20.6257   -7.1887   15.0385 C   0  0  0  0  0  0  0  0  0  0  0  0
   19.9190   -7.9160   14.0349 C   0  0  0  0  0  0  0  0  0  0  0  0
   18.5877   -8.3518   14.1884 C   0  0  0  0  0  0  0  0  0  0  0  0
   18.0094   -8.0006   15.4189 C   0  0  0  0  0  0  0  0  0  0  0  0
   16.7652   -8.2316   15.8734 N   0  0  0  0  0  0  0  0  0  0  0  0
  1  2  1  0
  2  3  1  0
  3  4  2  0
  4  5  1  0
  5  6  1  0
  6  7  1  0
  8  7  1  6
  8  9  1  0
  9 10  1  0
 10 11  1  0
 11 12  1  0
 12 13  2  0
 13 14  1  0
 14 15  2  0
 15 16  1  0
 16 17  2  0
 17 18  1  0
 11 19  1  0
  5 20  2  0
 20 21  1  0
 21 22  2  0
 22 23  1  0
 23 24  2  0
 24  2  1  0
 23  4  1  0
 19  8  1  0
 17 12  1  0
M  END
>  <energy_score>  (4517) 
-34.736408

>  <inchikey>  (4517) 
AXUXFPFYRSBSAT-UHFFFAOYSA-N

>  <smiles>  (4517) 
Cn1cc2c(CNC3CCN(c4ncccc4F)C3)cccc2n1

>  <ref_pdb>  (4517) 
A3181a

>  <alias>  (4517) 
AXUXFPFYRSBSAT-UHFFFAOYSA-N-P12-P12-P103-601509

>  <HIPPO Pose ID>  (4517) 
516034

>  <name>  (4517) 
AXUXFPFYRSBSAT-UHFFFAOYSA-N-P12-P12-P103-601509

>  <HIPPO Compound ID>  (4517) 
293403

>  <ref_mols>  (4517) 
A0497a,A1105b

>  <distance_score>  (4517) 
1.331522

>  <inspiration_score>  (4517) 
None

$$$$
AXUXFPFYRSBSAT-UHFFFAOYSA-N-P103-P12-P103-601509
     RDKit          3D

 24 27  0  0  0  0  0  0  0  0999 V2000
   15.5457   -7.3631   17.7870 C   0  0  0  0  0  0  0  0  0  0  0  0
   16.7905   -7.4987   17.0676 N   0  0  0  0  0  0  0  0  0  0  0  0
   17.9102   -6.7383   17.2473 C   0  0  0  0  0  0  0  0  0  0  0  0
   18.7809   -7.1523   16.2736 C   0  0  0  0  0  0  0  0  0  0  0  0
   20.0476   -6.6183   15.9916 C   0  0  0  0  0  0  0  0  0  0  0  0
   20.7056   -5.4366   16.6348 C   0  0  0  0  0  0  0  0  0  0  0  0
   22.1390   -5.6364   16.8839 N   0  0  0  0  0  0  0  0  0  0  0  0
   22.8162   -4.4942   17.5433 C   0  0  1  0  0  0  0  0  0  0  0  0
   22.7030   -3.1416   16.8360 C   0  0  0  0  0  0  0  0  0  0  0  0
   21.4436   -2.4943   17.4190 C   0  0  0  0  0  0  0  0  0  0  0  0
   21.3006   -3.0950   18.7470 N   0  0  0  0  0  0  0  0  0  0  0  0
   20.1015   -3.2667   19.4099 C   0  0  0  0  0  0  0  0  0  0  0  0
   20.1883   -3.8285   20.6458 N   0  0  0  0  0  0  0  0  0  0  0  0
   19.0659   -4.0250   21.3624 C   0  0  0  0  0  0  0  0  0  0  0  0
   17.8082   -3.7045   20.9052 C   0  0  0  0  0  0  0  0  0  0  0  0
   17.6910   -3.1607   19.6367 C   0  0  0  0  0  0  0  0  0  0  0  0
   18.8443   -2.9183   18.8994 C   0  0  0  0  0  0  0  0  0  0  0  0
   18.6949   -2.3580   17.6945 F   0  0  0  0  0  0  0  0  0  0  0  0
   22.3085   -4.1416   18.9603 C   0  0  0  0  0  0  0  0  0  0  0  0
   20.6113   -7.2531   14.8548 C   0  0  0  0  0  0  0  0  0  0  0  0
   19.9835   -8.3015   14.1205 C   0  0  0  0  0  0  0  0  0  0  0  0
   18.7120   -8.8183   14.4416 C   0  0  0  0  0  0  0  0  0  0  0  0
   18.1067   -8.2037   15.5495 C   0  0  0  0  0  0  0  0  0  0  0  0
   16.9005   -8.4326   16.0993 N   0  0  0  0  0  0  0  0  0  0  0  0
  1  2  1  0
  2  3  1  0
  3  4  2  0
  4  5  1  0
  5  6  1  0
  6  7  1  0
  8  7  1  6
  8  9  1  0
  9 10  1  0
 10 11  1  0
 11 12  1  0
 12 13  2  0
 13 14  1  0
 14 15  2  0
 15 16  1  0
 16 17  2  0
 17 18  1  0
 11 19  1  0
  5 20  2  0
 20 21  1  0
 21 22  2  0
 22 23  1  0
 23 24  2  0
 24  2  1  0
 23  4  1  0
 19  8  1  0
 17 12  1  0
M  END
>  <energy_score>  (4518) 
-32.916175

>  <inchikey>  (4518) 
AXUXFPFYRSBSAT-UHFFFAOYSA-N

>  <smiles>  (4518) 
Cn1cc2c(CNC3CCN(c4ncccc4F)C3)cccc2n1

>  <ref_pdb>  (4518) 
A3181a

>  <alias>  (4518) 
AXUXFPFYRSBSAT-UHFFFAOYSA-N-P103-P12-P103-601509

>  <HIPPO Pose ID>  (4518) 
516035

>  <name>  (4518) 
AXUXFPFYRSBSAT-UHFFFAOYSA-N-P103-P12-P103-601509

>  <HIPPO Compound ID>  (4518) 
293403

>  <ref_mols>  (4518) 
A0497a,A1105b

>  <distance_score>  (4518) 
1.124089

>  <inspiration_score>  (4518) 
None

$$$$
PUWSDQLCNKPPNX-UHFFFAOYSA-N-P12-P12-P103-601509
     RDKit          3D

 24 27  0  0  0  0  0  0  0  0999 V2000
   18.4764   -7.7945   16.6521 C   0  0  0  0  0  0  0  0  0  0  0  0
   19.5889   -6.8178   16.7854 C   0  0  0  0  0  0  0  0  0  0  0  0
   20.3543   -6.5335   15.6657 C   0  0  0  0  0  0  0  0  0  0  0  0
   21.3810   -5.6169   15.7869 C   0  0  0  0  0  0  0  0  0  0  0  0
   21.5888   -4.9987   17.0115 C   0  0  0  0  0  0  0  0  0  0  0  0
   20.7717   -5.3123   18.0961 C   0  0  0  0  0  0  0  0  0  0  0  0
   20.9824   -4.6164   19.3069 N   0  0  0  0  0  0  0  0  0  0  0  0
   20.7868   -5.4736   20.4900 C   0  0  0  0  0  0  0  0  0  0  0  0
   19.8107   -4.7336   21.3973 C   0  0  0  0  0  0  0  0  0  0  0  0
   18.9628   -3.9390   20.4230 C   0  0  2  0  0  0  0  0  0  0  0  0
   17.9410   -4.8254   19.8228 N   0  0  0  0  0  0  0  0  0  0  0  0
   16.9942   -4.0116   19.0704 C   0  0  0  0  0  0  0  0  0  0  0  0
   15.8566   -4.7524   18.3857 C   0  0  0  0  0  0  0  0  0  0  0  0
   14.8324   -3.9154   17.8999 C   0  0  0  0  0  0  0  0  0  0  0  0
   13.7568   -4.4110   17.1863 C   0  0  0  0  0  0  0  0  0  0  0  0
   13.6067   -5.7712   16.9482 C   0  0  0  0  0  0  0  0  0  0  0  0
   14.5631   -6.6236   17.4958 C   0  0  0  0  0  0  0  0  0  0  0  0
   15.6760   -6.1524   18.1909 C   0  0  0  0  0  0  0  0  0  0  0  0
   16.3008   -7.3413   18.6435 C   0  0  0  0  0  0  0  0  0  0  0  0
   15.7032   -8.4601   18.2191 N   0  0  0  0  0  0  0  0  0  0  0  0
   14.6401   -7.9924   17.5430 N   0  0  0  0  0  0  0  0  0  0  0  0
   13.6756   -8.9216   17.0075 C   0  0  0  0  0  0  0  0  0  0  0  0
   20.0644   -3.4687   19.4419 C   0  0  0  0  0  0  0  0  0  0  0  0
   19.7857   -6.2321   17.9924 N   0  0  0  0  0  0  0  0  0  0  0  0
  1  2  1  0
  2  3  2  0
  3  4  1  0
  4  5  2  0
  5  6  1  0
  6  7  1  0
  7  8  1  0
  8  9  1  0
  9 10  1  0
 10 11  1  6
 11 12  1  0
 12 13  1  0
 13 14  2  0
 14 15  1  0
 15 16  2  0
 16 17  1  0
 17 18  2  0
 18 19  1  0
 19 20  2  0
 20 21  1  0
 21 22  1  0
 10 23  1  0
  6 24  2  0
 24  2  1  0
 23  7  1  0
 18 13  1  0
 21 17  1  0
M  END
>  <energy_score>  (4519) 
-38.759492

>  <inchikey>  (4519) 
PUWSDQLCNKPPNX-UHFFFAOYSA-N

>  <smiles>  (4519) 
Cc1cccc(N2CCC(NCc3cccc4c3cnn4C)C2)n1

>  <ref_pdb>  (4519) 
A3181a

>  <alias>  (4519) 
PUWSDQLCNKPPNX-UHFFFAOYSA-N-P12-P12-P103-601509

>  <HIPPO Pose ID>  (4519) 
516036

>  <name>  (4519) 
PUWSDQLCNKPPNX-UHFFFAOYSA-N-P12-P12-P103-601509

>  <HIPPO Compound ID>  (4519) 
293404

>  <ref_mols>  (4519) 
A0497a,A1105b

>  <distance_score>  (4519) 
1.815042

>  <inspiration_score>  (4519) 
None

$$$$
PUWSDQLCNKPPNX-UHFFFAOYSA-N-P103-P12-P103-601509
     RDKit          3D

 24 27  0  0  0  0  0  0  0  0999 V2000
   18.7132   -8.2996   17.0436 C   0  0  0  0  0  0  0  0  0  0  0  0
   19.5426   -7.0800   16.8591 C   0  0  0  0  0  0  0  0  0  0  0  0
   19.9703   -6.7469   15.5869 C   0  0  0  0  0  0  0  0  0  0  0  0
   20.8144   -5.6618   15.4456 C   0  0  0  0  0  0  0  0  0  0  0  0
   21.1622   -4.9227   16.5679 C   0  0  0  0  0  0  0  0  0  0  0  0
   20.6582   -5.2771   17.8178 C   0  0  0  0  0  0  0  0  0  0  0  0
   20.9379   -4.4734   18.9408 N   0  0  0  0  0  0  0  0  0  0  0  0
   20.4160   -3.0978   18.7951 C   0  0  0  0  0  0  0  0  0  0  0  0
   19.5175   -2.8798   20.0159 C   0  0  0  0  0  0  0  0  0  0  0  0
   19.0898   -4.2912   20.4394 C   0  0  1  0  0  0  0  0  0  0  0  0
   18.0162   -4.9800   19.6871 N   0  0  0  0  0  0  0  0  0  0  0  0
   17.2589   -4.1278   18.7779 C   0  0  0  0  0  0  0  0  0  0  0  0
   16.0438   -4.7696   18.1378 C   0  0  0  0  0  0  0  0  0  0  0  0
   15.0852   -3.8618   17.6482 C   0  0  0  0  0  0  0  0  0  0  0  0
   13.9199   -4.2785   17.0338 C   0  0  0  0  0  0  0  0  0  0  0  0
   13.6425   -5.6304   16.8885 C   0  0  0  0  0  0  0  0  0  0  0  0
   14.5502   -6.5486   17.4096 C   0  0  0  0  0  0  0  0  0  0  0  0
   15.7294   -6.1490   18.0310 C   0  0  0  0  0  0  0  0  0  0  0  0
   16.2478   -7.3624   18.5377 C   0  0  0  0  0  0  0  0  0  0  0  0
   15.5636   -8.4466   18.1592 N   0  0  0  0  0  0  0  0  0  0  0  0
   14.5136   -7.9162   17.5083 N   0  0  0  0  0  0  0  0  0  0  0  0
   13.4561   -8.7894   17.0635 C   0  0  0  0  0  0  0  0  0  0  0  0
   20.4427   -5.0143   20.2249 C   0  0  0  0  0  0  0  0  0  0  0  0
   19.8811   -6.3742   17.9622 N   0  0  0  0  0  0  0  0  0  0  0  0
  1  2  1  0
  2  3  2  0
  3  4  1  0
  4  5  2  0
  5  6  1  0
  6  7  1  0
  7  8  1  0
  8  9  1  0
  9 10  1  0
 10 11  1  6
 11 12  1  0
 12 13  1  0
 13 14  2  0
 14 15  1  0
 15 16  2  0
 16 17  1  0
 17 18  2  0
 18 19  1  0
 19 20  2  0
 20 21  1  0
 21 22  1  0
 10 23  1  0
  6 24  2  0
 24  2  1  0
 23  7  1  0
 18 13  1  0
 21 17  1  0
M  END
>  <energy_score>  (4520) 
-33.842688

>  <inchikey>  (4520) 
PUWSDQLCNKPPNX-UHFFFAOYSA-N

>  <smiles>  (4520) 
Cc1cccc(N2CCC(NCc3cccc4c3cnn4C)C2)n1

>  <ref_pdb>  (4520) 
A3181a

>  <alias>  (4520) 
PUWSDQLCNKPPNX-UHFFFAOYSA-N-P103-P12-P103-601509

>  <HIPPO Pose ID>  (4520) 
516037

>  <name>  (4520) 
PUWSDQLCNKPPNX-UHFFFAOYSA-N-P103-P12-P103-601509

>  <HIPPO Compound ID>  (4520) 
293404

>  <ref_mols>  (4520) 
A0497a,A1105b

>  <distance_score>  (4520) 
1.544878

>  <inspiration_score>  (4520) 
None

$$$$
ZFVFCTQGOZKKBS-UHFFFAOYSA-N-P12-P12-P103-601509
     RDKit          3D

 25 29  0  0  0  0  0  0  0  0999 V2000
   15.4613   -7.2165   17.6642 C   0  0  0  0  0  0  0  0  0  0  0  0
   16.7442   -7.3842   17.0222 N   0  0  0  0  0  0  0  0  0  0  0  0
   17.9328   -6.8702   17.4556 C   0  0  0  0  0  0  0  0  0  0  0  0
   18.8515   -7.2266   16.5033 C   0  0  0  0  0  0  0  0  0  0  0  0
   20.2208   -6.9129   16.4769 C   0  0  0  0  0  0  0  0  0  0  0  0
   21.0590   -6.1628   17.4795 C   0  0  0  0  0  0  0  0  0  0  0  0
   21.6854   -7.0503   18.4806 N   0  0  0  0  0  0  0  0  0  0  0  0
   20.7584   -7.2989   19.6201 C   0  0  0  0  0  0  0  0  0  0  0  0
   21.5130   -6.7292   20.8454 C   0  0  1  0  0  0  0  0  0  0  0  0
   22.9234   -7.1909   20.4719 C   0  0  0  0  0  0  0  0  0  0  0  0
   22.8836   -6.4303   19.1477 C   0  0  2  0  0  0  0  0  0  0  0  0
   22.6559   -4.9952   19.7105 C   0  0  0  0  0  0  0  0  0  0  0  0
   21.6344   -5.2319   20.7737 N   0  0  0  0  0  0  0  0  0  0  0  0
   20.4592   -4.4931   20.6073 C   0  0  0  0  0  0  0  0  0  0  0  0
   19.2907   -4.8195   21.2849 C   0  0  0  0  0  0  0  0  0  0  0  0
   18.0898   -4.2420   20.8872 C   0  0  0  0  0  0  0  0  0  0  0  0
   18.0774   -3.3848   19.8039 C   0  0  0  0  0  0  0  0  0  0  0  0
   16.4731   -2.8768   18.9973 Br  0  0  0  0  0  0  0  0  0  0  0  0
   19.2841   -2.9744   19.3000 C   0  0  0  0  0  0  0  0  0  0  0  0
   20.4613   -3.4789   19.7182 N   0  0  0  0  0  0  0  0  0  0  0  0
   20.8091   -7.4038   15.2787 C   0  0  0  0  0  0  0  0  0  0  0  0
   20.1090   -8.1088   14.2537 C   0  0  0  0  0  0  0  0  0  0  0  0
   18.7372   -8.4149   14.3252 C   0  0  0  0  0  0  0  0  0  0  0  0
   18.1098   -7.9502   15.4916 C   0  0  0  0  0  0  0  0  0  0  0  0
   16.8232   -8.0688   15.8643 N   0  0  0  0  0  0  0  0  0  0  0  0
  1  2  1  0
  2  3  1  0
  3  4  2  0
  4  5  1  0
  5  6  1  0
  6  7  1  0
  7  8  1  0
  9  8  1  6
  9 10  1  0
 10 11  1  0
 11 12  1  1
 12 13  1  0
 13 14  1  0
 14 15  2  0
 15 16  1  0
 16 17  2  0
 17 18  1  0
 17 19  1  0
 19 20  2  0
  5 21  2  0
 21 22  1  0
 22 23  2  0
 23 24  1  0
 24 25  2  0
 25  2  1  0
 24  4  1  0
 11  7  1  0
 20 14  1  0
 13  9  1  0
M  END
>  <energy_score>  (4521) 
-33.780325

>  <inchikey>  (4521) 
ZFVFCTQGOZKKBS-UHFFFAOYSA-N

>  <smiles>  (4521) 
Cn1cc2c(CN3CC4CC3CN4c3ccc(Br)cn3)cccc2n1

>  <ref_pdb>  (4521) 
A3181a

>  <alias>  (4521) 
ZFVFCTQGOZKKBS-UHFFFAOYSA-N-P12-P12-P103-601509

>  <HIPPO Pose ID>  (4521) 
516042

>  <name>  (4521) 
ZFVFCTQGOZKKBS-UHFFFAOYSA-N-P12-P12-P103-601509

>  <HIPPO Compound ID>  (4521) 
293407

>  <ref_mols>  (4521) 
A0497a,A1105b

>  <distance_score>  (4521) 
1.389431

>  <inspiration_score>  (4521) 
None

$$$$
ZFVFCTQGOZKKBS-UHFFFAOYSA-N-P103-P12-P103-601509
     RDKit          3D

 25 29  0  0  0  0  0  0  0  0999 V2000
   15.6374   -8.1609   18.1508 C   0  0  0  0  0  0  0  0  0  0  0  0
   16.8302   -8.2543   17.3422 N   0  0  0  0  0  0  0  0  0  0  0  0
   18.1111   -8.4048   17.7897 C   0  0  0  0  0  0  0  0  0  0  0  0
   18.8935   -8.3315   16.6676 C   0  0  0  0  0  0  0  0  0  0  0  0
   20.2953   -8.3840   16.6024 C   0  0  0  0  0  0  0  0  0  0  0  0
   21.2811   -8.7660   17.6697 C   0  0  0  0  0  0  0  0  0  0  0  0
   21.8261   -7.7476   18.5515 N   0  0  0  0  0  0  0  0  0  0  0  0
   21.2197   -7.7166   19.9027 C   0  0  0  0  0  0  0  0  0  0  0  0
   21.0996   -6.2034   20.1790 C   0  0  1  0  0  0  0  0  0  0  0  0
   22.3230   -5.6894   19.4149 C   0  0  0  0  0  0  0  0  0  0  0  0
   21.8594   -6.3315   18.1049 C   0  0  2  0  0  0  0  0  0  0  0  0
   20.4831   -5.6083   17.9911 C   0  0  0  0  0  0  0  0  0  0  0  0
   19.9317   -5.7531   19.3730 N   0  0  0  0  0  0  0  0  0  0  0  0
   19.3212   -4.5632   19.7554 C   0  0  0  0  0  0  0  0  0  0  0  0
   18.0969   -4.2330   19.1682 C   0  0  0  0  0  0  0  0  0  0  0  0
   17.5670   -2.9645   19.3586 C   0  0  0  0  0  0  0  0  0  0  0  0
   18.2917   -2.0656   20.1228 C   0  0  0  0  0  0  0  0  0  0  0  0
   17.7545   -0.2815   20.3792 Br  0  0  0  0  0  0  0  0  0  0  0  0
   19.4663   -2.4887   20.7168 C   0  0  0  0  0  0  0  0  0  0  0  0
   19.9814   -3.7214   20.5705 N   0  0  0  0  0  0  0  0  0  0  0  0
   20.7352   -8.1268   15.2724 C   0  0  0  0  0  0  0  0  0  0  0  0
   19.8716   -7.9532   14.1526 C   0  0  0  0  0  0  0  0  0  0  0  0
   18.4691   -8.0117   14.2498 C   0  0  0  0  0  0  0  0  0  0  0  0
   17.9867   -8.1627   15.5582 C   0  0  0  0  0  0  0  0  0  0  0  0
   16.7190   -8.2094   16.0014 N   0  0  0  0  0  0  0  0  0  0  0  0
  1  2  1  0
  2  3  1  0
  3  4  2  0
  4  5  1  0
  5  6  1  0
  6  7  1  0
  7  8  1  0
  9  8  1  6
  9 10  1  0
 10 11  1  0
 11 12  1  1
 12 13  1  0
 13 14  1  0
 14 15  2  0
 15 16  1  0
 16 17  2  0
 17 18  1  0
 17 19  1  0
 19 20  2  0
  5 21  2  0
 21 22  1  0
 22 23  2  0
 23 24  1  0
 24 25  2  0
 25  2  1  0
 24  4  1  0
 11  7  1  0
 20 14  1  0
 13  9  1  0
M  END
>  <energy_score>  (4522) 
-31.562745

>  <inchikey>  (4522) 
ZFVFCTQGOZKKBS-UHFFFAOYSA-N

>  <smiles>  (4522) 
Cn1cc2c(CN3CC4CC3CN4c3ccc(Br)cn3)cccc2n1

>  <ref_pdb>  (4522) 
A3181a

>  <alias>  (4522) 
ZFVFCTQGOZKKBS-UHFFFAOYSA-N-P103-P12-P103-601509

>  <HIPPO Pose ID>  (4522) 
516043

>  <name>  (4522) 
ZFVFCTQGOZKKBS-UHFFFAOYSA-N-P103-P12-P103-601509

>  <HIPPO Compound ID>  (4522) 
293407

>  <ref_mols>  (4522) 
A0497a,A1105b

>  <distance_score>  (4522) 
1.667488

>  <inspiration_score>  (4522) 
None

$$$$
CSTLTWRVXCQWET-UHFFFAOYSA-N-P12-P12-P103-601509
     RDKit          3D

 25 28  0  0  0  0  0  0  0  0999 V2000
   18.4468   -8.7464   19.2440 C   0  0  0  0  0  0  0  0  0  0  0  0
   19.4220   -7.7987   18.6322 C   0  0  0  0  0  0  0  0  0  0  0  0
   19.9210   -7.9436   17.3441 C   0  0  0  0  0  0  0  0  0  0  0  0
   20.7673   -6.9592   16.8484 C   0  0  0  0  0  0  0  0  0  0  0  0
   21.1347   -5.9006   17.6732 C   0  0  0  0  0  0  0  0  0  0  0  0
   20.6389   -5.8442   18.9760 C   0  0  0  0  0  0  0  0  0  0  0  0
   21.0154   -4.7797   19.8276 N   0  0  0  0  0  0  0  0  0  0  0  0
   20.8263   -5.0875   21.2596 C   0  0  0  0  0  0  0  0  0  0  0  0
   19.6443   -4.2566   21.7662 C   0  0  0  0  0  0  0  0  0  0  0  0
   18.9408   -3.7563   20.5150 C   0  0  2  0  0  0  0  0  0  0  0  0
   17.8682   -4.7029   20.1109 N   0  0  0  0  0  0  0  0  0  0  0  0
   17.4624   -4.4530   18.7339 C   0  0  2  0  0  0  0  0  0  0  0  0
   17.5237   -3.0583   18.4722 O   0  0  0  0  0  0  0  0  0  0  0  0
   16.0774   -4.9247   18.3462 C   0  0  0  0  0  0  0  0  0  0  0  0
   14.9927   -4.0001   18.2898 C   0  0  0  0  0  0  0  0  0  0  0  0
   13.7354   -4.2586   17.6877 C   0  0  0  0  0  0  0  0  0  0  0  0
   13.3912   -5.4807   17.1027 C   0  0  0  0  0  0  0  0  0  0  0  0
   14.3848   -6.4493   17.1724 C   0  0  0  0  0  0  0  0  0  0  0  0
   14.3889   -7.6823   16.6338 N   0  0  0  0  0  0  0  0  0  0  0  0
   15.6606   -8.0838   16.7574 N   0  0  0  0  0  0  0  0  0  0  0  0
   16.0506   -9.3494   16.1872 C   0  0  0  0  0  0  0  0  0  0  0  0
   16.4759   -7.1420   17.3026 C   0  0  0  0  0  0  0  0  0  0  0  0
   15.6689   -6.1421   17.7575 C   0  0  0  0  0  0  0  0  0  0  0  0
   20.1676   -3.5989   19.5699 C   0  0  0  0  0  0  0  0  0  0  0  0
   19.7588   -6.7678   19.4233 N   0  0  0  0  0  0  0  0  0  0  0  0
  1  2  1  0
  2  3  2  0
  3  4  1  0
  4  5  2  0
  5  6  1  0
  6  7  1  0
  7  8  1  0
  8  9  1  0
  9 10  1  0
 10 11  1  6
 11 12  1  0
 12 13  1  1
 12 14  1  0
 14 15  2  0
 15 16  1  0
 16 17  2  0
 17 18  1  0
 18 19  2  0
 19 20  1  0
 20 21  1  0
 20 22  1  0
 22 23  2  0
 10 24  1  0
  6 25  2  0
 25  2  1  0
 24  7  1  0
 23 14  1  0
 23 18  1  0
M  END
>  <energy_score>  (4523) 
-29.920595

>  <inchikey>  (4523) 
CSTLTWRVXCQWET-UHFFFAOYSA-N

>  <smiles>  (4523) 
Cc1cccc(N2CCC(NC(O)c3cccc4nn(C)cc34)C2)n1

>  <ref_pdb>  (4523) 
A3181a

>  <alias>  (4523) 
CSTLTWRVXCQWET-UHFFFAOYSA-N-P12-P12-P103-601509

>  <HIPPO Pose ID>  (4523) 
516050

>  <name>  (4523) 
CSTLTWRVXCQWET-UHFFFAOYSA-N-P12-P12-P103-601509

>  <HIPPO Compound ID>  (4523) 
293411

>  <ref_mols>  (4523) 
A0497a,A1105b

>  <distance_score>  (4523) 
1.769765

>  <inspiration_score>  (4523) 
None

$$$$
CSTLTWRVXCQWET-UHFFFAOYSA-N-P103-P12-P103-601509
     RDKit          3D

 25 28  0  0  0  0  0  0  0  0999 V2000
   18.9533   -8.9444   18.2774 C   0  0  0  0  0  0  0  0  0  0  0  0
   19.7372   -7.8210   17.6962 C   0  0  0  0  0  0  0  0  0  0  0  0
   19.8814   -7.6817   16.3257 C   0  0  0  0  0  0  0  0  0  0  0  0
   20.7176   -6.6820   15.8540 C   0  0  0  0  0  0  0  0  0  0  0  0
   21.3524   -5.8406   16.7611 C   0  0  0  0  0  0  0  0  0  0  0  0
   21.1089   -5.9886   18.1322 C   0  0  0  0  0  0  0  0  0  0  0  0
   21.4428   -4.8806   18.9941 N   0  0  0  0  0  0  0  0  0  0  0  0
   21.3369   -5.1554   20.4606 C   0  0  0  0  0  0  0  0  0  0  0  0
   20.0407   -4.4683   20.9812 C   0  0  0  0  0  0  0  0  0  0  0  0
   19.2369   -4.4450   19.7061 C   0  0  1  0  0  0  0  0  0  0  0  0
   17.9301   -3.8330   19.5652 N   0  0  0  0  0  0  0  0  0  0  0  0
   17.5374   -4.1547   18.1890 C   0  0  2  0  0  0  0  0  0  0  0  0
   17.8462   -3.0306   17.3907 O   0  0  0  0  0  0  0  0  0  0  0  0
   16.1255   -4.5793   17.9796 C   0  0  0  0  0  0  0  0  0  0  0  0
   15.1061   -3.6488   17.7242 C   0  0  0  0  0  0  0  0  0  0  0  0
   13.8510   -3.9907   17.1728 C   0  0  0  0  0  0  0  0  0  0  0  0
   13.4545   -5.3052   16.8992 C   0  0  0  0  0  0  0  0  0  0  0  0
   14.3643   -6.2764   17.2991 C   0  0  0  0  0  0  0  0  0  0  0  0
   14.2746   -7.6155   17.2494 N   0  0  0  0  0  0  0  0  0  0  0  0
   15.3536   -8.0330   17.9348 N   0  0  0  0  0  0  0  0  0  0  0  0
   15.4153   -9.4131   18.3482 C   0  0  0  0  0  0  0  0  0  0  0  0
   16.2500   -7.0427   18.2151 C   0  0  0  0  0  0  0  0  0  0  0  0
   15.6423   -5.8866   17.8179 C   0  0  0  0  0  0  0  0  0  0  0  0
   20.3455   -3.9188   18.7452 C   0  0  0  0  0  0  0  0  0  0  0  0
   20.3404   -7.0063   18.5871 N   0  0  0  0  0  0  0  0  0  0  0  0
  1  2  1  0
  2  3  2  0
  3  4  1  0
  4  5  2  0
  5  6  1  0
  6  7  1  0
  7  8  1  0
  8  9  1  0
  9 10  1  0
 10 11  1  1
 11 12  1  0
 12 13  1  6
 12 14  1  0
 14 15  2  0
 15 16  1  0
 16 17  2  0
 17 18  1  0
 18 19  2  0
 19 20  1  0
 20 21  1  0
 20 22  1  0
 22 23  2  0
 10 24  1  0
  6 25  2  0
 25  2  1  0
 24  7  1  0
 23 14  1  0
 23 18  1  0
M  END
>  <energy_score>  (4524) 
-17.620207

>  <inchikey>  (4524) 
CSTLTWRVXCQWET-UHFFFAOYSA-N

>  <smiles>  (4524) 
Cc1cccc(N2CCC(NC(O)c3cccc4nn(C)cc34)C2)n1

>  <ref_pdb>  (4524) 
A3181a

>  <alias>  (4524) 
CSTLTWRVXCQWET-UHFFFAOYSA-N-P103-P12-P103-601509

>  <HIPPO Pose ID>  (4524) 
516051

>  <name>  (4524) 
CSTLTWRVXCQWET-UHFFFAOYSA-N-P103-P12-P103-601509

>  <HIPPO Compound ID>  (4524) 
293411

>  <ref_mols>  (4524) 
A0497a,A1105b

>  <distance_score>  (4524) 
1.819096

>  <inspiration_score>  (4524) 
None

$$$$
WIRFXZOXDHSFCT-UHFFFAOYSA-N-P12-P12-P103-601509
     RDKit          3D

 25 28  0  0  0  0  0  0  0  0999 V2000
   16.0418   -7.8698   18.1926 C   0  0  0  0  0  0  0  0  0  0  0  0
   17.1803   -7.7596   17.3135 N   0  0  0  0  0  0  0  0  0  0  0  0
   18.4853   -7.6162   17.6827 C   0  0  0  0  0  0  0  0  0  0  0  0
   19.1920   -7.5350   16.5118 C   0  0  0  0  0  0  0  0  0  0  0  0
   20.5842   -7.4023   16.3543 C   0  0  0  0  0  0  0  0  0  0  0  0
   21.7146   -7.4455   17.3641 C   0  0  2  0  0  0  0  0  0  0  0  0
   21.3116   -7.7543   18.6766 O   0  0  0  0  0  0  0  0  0  0  0  0
   22.5943   -6.2762   17.3802 N   0  0  0  0  0  0  0  0  0  0  0  0
   21.9170   -5.0712   17.8683 C   0  0  2  0  0  0  0  0  0  0  0  0
   22.5151   -3.7837   17.2935 C   0  0  0  0  0  0  0  0  0  0  0  0
   21.9539   -2.6858   18.2149 C   0  0  0  0  0  0  0  0  0  0  0  0
   21.5547   -3.3721   19.4736 N   0  0  0  0  0  0  0  0  0  0  0  0
   20.1420   -3.3863   19.6604 C   0  0  0  0  0  0  0  0  0  0  0  0
   19.5523   -4.5623   19.9764 N   0  0  0  0  0  0  0  0  0  0  0  0
   18.2118   -4.6442   19.9546 C   0  0  0  0  0  0  0  0  0  0  0  0
   17.3830   -3.5760   19.6947 C   0  0  0  0  0  0  0  0  0  0  0  0
   17.9694   -2.3403   19.5121 C   0  0  0  0  0  0  0  0  0  0  0  0
   19.3536   -2.2418   19.5063 C   0  0  0  0  0  0  0  0  0  0  0  0
   19.9088   -1.0300   19.3403 F   0  0  0  0  0  0  0  0  0  0  0  0
   22.0786   -4.7561   19.3699 C   0  0  0  0  0  0  0  0  0  0  0  0
   20.8946   -7.3270   14.9603 C   0  0  0  0  0  0  0  0  0  0  0  0
   19.9499   -7.4141   13.8940 C   0  0  0  0  0  0  0  0  0  0  0  0
   18.5734   -7.5963   14.1024 C   0  0  0  0  0  0  0  0  0  0  0  0
   18.2047   -7.6472   15.4550 C   0  0  0  0  0  0  0  0  0  0  0  0
   16.9815   -7.8227   15.9838 N   0  0  0  0  0  0  0  0  0  0  0  0
  1  2  1  0
  2  3  1  0
  3  4  2  0
  4  5  1  0
  5  6  1  0
  6  7  1  1
  6  8  1  0
  9  8  1  6
  9 10  1  0
 10 11  1  0
 11 12  1  0
 12 13  1  0
 13 14  2  0
 14 15  1  0
 15 16  2  0
 16 17  1  0
 17 18  2  0
 18 19  1  0
 12 20  1  0
  5 21  2  0
 21 22  1  0
 22 23  2  0
 23 24  1  0
 24 25  2  0
 25  2  1  0
 24  4  1  0
 20  9  1  0
 18 13  1  0
M  END
>  <energy_score>  (4525) 
-51.966951

>  <inchikey>  (4525) 
WIRFXZOXDHSFCT-UHFFFAOYSA-N

>  <smiles>  (4525) 
Cn1cc2c(C(O)NC3CCN(c4ncccc4F)C3)cccc2n1

>  <ref_pdb>  (4525) 
A3181a

>  <alias>  (4525) 
WIRFXZOXDHSFCT-UHFFFAOYSA-N-P12-P12-P103-601509

>  <HIPPO Pose ID>  (4525) 
516054

>  <name>  (4525) 
WIRFXZOXDHSFCT-UHFFFAOYSA-N-P12-P12-P103-601509

>  <HIPPO Compound ID>  (4525) 
293413

>  <ref_mols>  (4525) 
A0497a,A1105b

>  <distance_score>  (4525) 
1.571605

>  <inspiration_score>  (4525) 
None

$$$$
WIRFXZOXDHSFCT-UHFFFAOYSA-N-P103-P12-P103-601509
     RDKit          3D

 25 28  0  0  0  0  0  0  0  0999 V2000
   16.0384   -7.6329   18.3113 C   0  0  0  0  0  0  0  0  0  0  0  0
   17.1437   -7.7057   17.3878 N   0  0  0  0  0  0  0  0  0  0  0  0
   18.4558   -7.4512   17.6654 C   0  0  0  0  0  0  0  0  0  0  0  0
   19.1176   -7.6249   16.4780 C   0  0  0  0  0  0  0  0  0  0  0  0
   20.4959   -7.5008   16.2333 C   0  0  0  0  0  0  0  0  0  0  0  0
   21.6650   -7.2834   17.1647 C   0  0  2  0  0  0  0  0  0  0  0  0
   21.3526   -7.4284   18.5300 O   0  0  0  0  0  0  0  0  0  0  0  0
   22.3862   -6.0358   16.9419 N   0  0  0  0  0  0  0  0  0  0  0  0
   21.6089   -4.8652   17.3590 C   0  0  2  0  0  0  0  0  0  0  0  0
   21.9685   -3.6088   16.5717 C   0  0  0  0  0  0  0  0  0  0  0  0
   21.4535   -2.4661   17.4526 C   0  0  0  0  0  0  0  0  0  0  0  0
   21.3155   -3.0254   18.8107 N   0  0  0  0  0  0  0  0  0  0  0  0
   20.0533   -3.1239   19.4114 C   0  0  0  0  0  0  0  0  0  0  0  0
   20.0962   -3.3072   20.7577 N   0  0  0  0  0  0  0  0  0  0  0  0
   18.9466   -3.5207   21.4205 C   0  0  0  0  0  0  0  0  0  0  0  0
   17.7153   -3.5737   20.8062 C   0  0  0  0  0  0  0  0  0  0  0  0
   17.6490   -3.3980   19.4329 C   0  0  0  0  0  0  0  0  0  0  0  0
   18.8253   -3.1649   18.7340 C   0  0  0  0  0  0  0  0  0  0  0  0
   18.7387   -3.0351   17.4064 F   0  0  0  0  0  0  0  0  0  0  0  0
   21.8948   -4.3817   18.7889 C   0  0  0  0  0  0  0  0  0  0  0  0
   20.7545   -7.6998   14.8419 C   0  0  0  0  0  0  0  0  0  0  0  0
   19.7772   -8.0303   13.8595 C   0  0  0  0  0  0  0  0  0  0  0  0
   18.4183   -8.2088   14.1636 C   0  0  0  0  0  0  0  0  0  0  0  0
   18.0996   -7.9835   15.5111 C   0  0  0  0  0  0  0  0  0  0  0  0
   16.9059   -8.0818   16.1181 N   0  0  0  0  0  0  0  0  0  0  0  0
  1  2  1  0
  2  3  1  0
  3  4  2  0
  4  5  1  0
  5  6  1  0
  6  7  1  1
  6  8  1  0
  9  8  1  6
  9 10  1  0
 10 11  1  0
 11 12  1  0
 12 13  1  0
 13 14  2  0
 14 15  1  0
 15 16  2  0
 16 17  1  0
 17 18  2  0
 18 19  1  0
 12 20  1  0
  5 21  2  0
 21 22  1  0
 22 23  2  0
 23 24  1  0
 24 25  2  0
 25  2  1  0
 24  4  1  0
 20  9  1  0
 18 13  1  0
M  END
>  <energy_score>  (4526) 
-49.877174

>  <inchikey>  (4526) 
WIRFXZOXDHSFCT-UHFFFAOYSA-N

>  <smiles>  (4526) 
Cn1cc2c(C(O)NC3CCN(c4ncccc4F)C3)cccc2n1

>  <ref_pdb>  (4526) 
A3181a

>  <alias>  (4526) 
WIRFXZOXDHSFCT-UHFFFAOYSA-N-P103-P12-P103-601509

>  <HIPPO Pose ID>  (4526) 
516055

>  <name>  (4526) 
WIRFXZOXDHSFCT-UHFFFAOYSA-N-P103-P12-P103-601509

>  <HIPPO Compound ID>  (4526) 
293413

>  <ref_mols>  (4526) 
A0497a,A1105b

>  <distance_score>  (4526) 
1.17796

>  <inspiration_score>  (4526) 
None

$$$$
UWWXWMSBYDUWLD-UHFFFAOYSA-N-P12-P12-P103-601509
     RDKit          3D

 25 28  0  0  0  0  0  0  0  0999 V2000
   15.4701   -7.8318   17.8746 C   0  0  0  0  0  0  0  0  0  0  0  0
   16.6993   -7.7405   17.1223 N   0  0  0  0  0  0  0  0  0  0  0  0
   17.8777   -7.2101   17.5613 C   0  0  0  0  0  0  0  0  0  0  0  0
   18.7300   -7.2998   16.4916 C   0  0  0  0  0  0  0  0  0  0  0  0
   20.0559   -6.8448   16.4362 C   0  0  0  0  0  0  0  0  0  0  0  0
   20.8133   -6.1255   17.5141 C   0  0  0  0  0  0  0  0  0  0  0  0
   22.1807   -6.6174   17.7100 N   0  0  0  0  0  0  0  0  0  0  0  0
   22.9808   -5.8897   18.7221 C   0  0  1  0  0  0  0  0  0  0  0  0
   23.5622   -4.5616   18.2260 C   0  0  0  0  0  0  0  0  0  0  0  0
   22.5016   -3.5178   18.5776 C   0  0  0  0  0  0  0  0  0  0  0  0
   21.7888   -4.0773   19.7273 N   0  0  0  0  0  0  0  0  0  0  0  0
   20.4393   -3.8363   19.9524 C   0  0  0  0  0  0  0  0  0  0  0  0
   19.8402   -4.5879   20.9125 N   0  0  0  0  0  0  0  0  0  0  0  0
   18.5228   -4.4310   21.1457 C   0  0  0  0  0  0  0  0  0  0  0  0
   17.7241   -3.5605   20.4399 C   0  0  0  0  0  0  0  0  0  0  0  0
   18.3183   -2.7733   19.4731 C   0  0  0  0  0  0  0  0  0  0  0  0
   19.6862   -2.8834   19.2581 C   0  0  0  0  0  0  0  0  0  0  0  0
   20.2571   -2.0480   18.3772 F   0  0  0  0  0  0  0  0  0  0  0  0
   22.2721   -5.4378   20.0217 C   0  0  0  0  0  0  0  0  0  0  0  0
   20.5726   -7.0192   15.1235 C   0  0  0  0  0  0  0  0  0  0  0  0
   19.8510   -7.6200   14.0470 C   0  0  0  0  0  0  0  0  0  0  0  0
   20.7157   -7.7562   12.3592 Br  0  0  0  0  0  0  0  0  0  0  0  0
   18.5328   -8.0981   14.1505 C   0  0  0  0  0  0  0  0  0  0  0  0
   17.9711   -7.9020   15.4200 C   0  0  0  0  0  0  0  0  0  0  0  0
   16.7300   -8.1877   15.8505 N   0  0  0  0  0  0  0  0  0  0  0  0
  1  2  1  0
  2  3  1  0
  3  4  2  0
  4  5  1  0
  5  6  1  0
  6  7  1  0
  8  7  1  6
  8  9  1  0
  9 10  1  0
 10 11  1  0
 11 12  1  0
 12 13  2  0
 13 14  1  0
 14 15  2  0
 15 16  1  0
 16 17  2  0
 17 18  1  0
 11 19  1  0
  5 20  2  0
 20 21  1  0
 21 22  1  0
 21 23  2  0
 23 24  1  0
 24 25  2  0
 25  2  1  0
 24  4  1  0
 19  8  1  0
 17 12  1  0
M  END
>  <energy_score>  (4527) 
-49.59371

>  <inchikey>  (4527) 
UWWXWMSBYDUWLD-UHFFFAOYSA-N

>  <smiles>  (4527) 
Cn1cc2c(CNC3CCN(c4ncccc4F)C3)cc(Br)cc2n1

>  <ref_pdb>  (4527) 
A3181a

>  <alias>  (4527) 
UWWXWMSBYDUWLD-UHFFFAOYSA-N-P12-P12-P103-601509

>  <HIPPO Pose ID>  (4527) 
516056

>  <name>  (4527) 
UWWXWMSBYDUWLD-UHFFFAOYSA-N-P12-P12-P103-601509

>  <HIPPO Compound ID>  (4527) 
293414

>  <ref_mols>  (4527) 
A0497a,A1105b

>  <distance_score>  (4527) 
1.398765

>  <inspiration_score>  (4527) 
None

$$$$
UWWXWMSBYDUWLD-UHFFFAOYSA-N-P103-P12-P103-601509
     RDKit          3D

 25 28  0  0  0  0  0  0  0  0999 V2000
   15.4355   -7.4088   17.8218 C   0  0  0  0  0  0  0  0  0  0  0  0
   16.6952   -7.5059   17.1219 N   0  0  0  0  0  0  0  0  0  0  0  0
   17.7436   -6.6393   17.2272 C   0  0  0  0  0  0  0  0  0  0  0  0
   18.6580   -7.0737   16.3057 C   0  0  0  0  0  0  0  0  0  0  0  0
   19.8696   -6.4565   15.9716 C   0  0  0  0  0  0  0  0  0  0  0  0
   20.4050   -5.1456   16.4486 C   0  0  0  0  0  0  0  0  0  0  0  0
   21.4694   -5.2859   17.4355 N   0  0  0  0  0  0  0  0  0  0  0  0
   22.2728   -4.0523   17.5564 C   0  0  2  0  0  0  0  0  0  0  0  0
   23.0378   -4.0855   18.8934 C   0  0  0  0  0  0  0  0  0  0  0  0
   22.5987   -2.8304   19.6567 C   0  0  0  0  0  0  0  0  0  0  0  0
   21.3301   -2.4255   19.0340 N   0  0  0  0  0  0  0  0  0  0  0  0
   20.1765   -2.9744   19.6278 C   0  0  0  0  0  0  0  0  0  0  0  0
   20.3089   -3.5425   20.8538 N   0  0  0  0  0  0  0  0  0  0  0  0
   19.2105   -3.9777   21.5000 C   0  0  0  0  0  0  0  0  0  0  0  0
   17.9350   -3.8804   20.9905 C   0  0  0  0  0  0  0  0  0  0  0  0
   17.7744   -3.3375   19.7266 C   0  0  0  0  0  0  0  0  0  0  0  0
   18.8973   -2.8692   19.0533 C   0  0  0  0  0  0  0  0  0  0  0  0
   18.6995   -2.2724   17.8712 F   0  0  0  0  0  0  0  0  0  0  0  0
   21.5103   -2.7000   17.6073 C   0  0  0  0  0  0  0  0  0  0  0  0
   20.5324   -7.1800   14.9472 C   0  0  0  0  0  0  0  0  0  0  0  0
   20.0042   -8.3521   14.3320 C   0  0  0  0  0  0  0  0  0  0  0  0
   21.0213   -9.1695   12.9494 Br  0  0  0  0  0  0  0  0  0  0  0  0
   18.7687   -8.9336   14.6729 C   0  0  0  0  0  0  0  0  0  0  0  0
   18.0916   -8.2514   15.6949 C   0  0  0  0  0  0  0  0  0  0  0  0
   16.8923   -8.5129   16.2440 N   0  0  0  0  0  0  0  0  0  0  0  0
  1  2  1  0
  2  3  1  0
  3  4  2  0
  4  5  1  0
  5  6  1  0
  6  7  1  0
  8  7  1  1
  8  9  1  0
  9 10  1  0
 10 11  1  0
 11 12  1  0
 12 13  2  0
 13 14  1  0
 14 15  2  0
 15 16  1  0
 16 17  2  0
 17 18  1  0
 11 19  1  0
  5 20  2  0
 20 21  1  0
 21 22  1  0
 21 23  2  0
 23 24  1  0
 24 25  2  0
 25  2  1  0
 24  4  1  0
 19  8  1  0
 17 12  1  0
M  END
>  <energy_score>  (4528) 
-45.635815

>  <inchikey>  (4528) 
UWWXWMSBYDUWLD-UHFFFAOYSA-N

>  <smiles>  (4528) 
Cn1cc2c(CNC3CCN(c4ncccc4F)C3)cc(Br)cc2n1

>  <ref_pdb>  (4528) 
A3181a

>  <alias>  (4528) 
UWWXWMSBYDUWLD-UHFFFAOYSA-N-P103-P12-P103-601509

>  <HIPPO Pose ID>  (4528) 
516057

>  <name>  (4528) 
UWWXWMSBYDUWLD-UHFFFAOYSA-N-P103-P12-P103-601509

>  <HIPPO Compound ID>  (4528) 
293414

>  <ref_mols>  (4528) 
A0497a,A1105b

>  <distance_score>  (4528) 
1.120434

>  <inspiration_score>  (4528) 
None

$$$$
AQVAQSIXJRTWFK-UHFFFAOYSA-N-P12-P12-P103-601509
     RDKit          3D

 25 28  0  0  0  0  0  0  0  0999 V2000
   12.8879   -7.1802   15.6992 C   0  0  0  0  0  0  0  0  0  0  0  0
   13.5869   -6.3667   16.6651 N   0  0  0  0  0  0  0  0  0  0  0  0
   13.4187   -5.0422   16.7354 N   0  0  0  0  0  0  0  0  0  0  0  0
   14.4222   -4.6397   17.5260 C   0  0  0  0  0  0  0  0  0  0  0  0
   15.3108   -5.6958   17.8631 C   0  0  0  0  0  0  0  0  0  0  0  0
   16.5869   -5.8584   18.4686 C   0  0  0  0  0  0  0  0  0  0  0  0
   17.6106   -4.7888   18.8657 C   0  0  1  0  0  0  0  0  0  0  0  0
   17.2090   -3.4947   18.4773 O   0  0  0  0  0  0  0  0  0  0  0  0
   17.8286   -4.7436   20.3019 N   0  0  0  0  0  0  0  0  0  0  0  0
   19.2023   -4.5917   20.8021 C   0  0  2  0  0  0  0  0  0  0  0  0
   19.9295   -3.3223   20.3858 C   0  0  0  0  0  0  0  0  0  0  0  0
   20.7427   -3.7230   19.1587 C   0  0  0  0  0  0  0  0  0  0  0  0
   20.9621   -5.1829   19.2517 N   0  0  0  0  0  0  0  0  0  0  0  0
   20.8035   -5.9396   18.0758 C   0  0  0  0  0  0  0  0  0  0  0  0
   20.0970   -7.0959   18.1798 N   0  0  0  0  0  0  0  0  0  0  0  0
   19.7105   -7.7555   17.0649 C   0  0  0  0  0  0  0  0  0  0  0  0
   20.0458   -7.3618   15.7934 C   0  0  0  0  0  0  0  0  0  0  0  0
   20.8789   -6.2626   15.6695 C   0  0  0  0  0  0  0  0  0  0  0  0
   21.2800   -5.5545   16.8076 C   0  0  0  0  0  0  0  0  0  0  0  0
   22.3710   -4.2342   16.5507 Cl  0  0  0  0  0  0  0  0  0  0  0  0
   20.2433   -5.6798   20.4442 C   0  0  0  0  0  0  0  0  0  0  0  0
   16.9522   -7.2018   18.7425 C   0  0  0  0  0  0  0  0  0  0  0  0
   16.1984   -8.3038   18.3582 C   0  0  0  0  0  0  0  0  0  0  0  0
   15.0335   -8.1326   17.6433 C   0  0  0  0  0  0  0  0  0  0  0  0
   14.6314   -6.8237   17.4105 C   0  0  0  0  0  0  0  0  0  0  0  0
  1  2  1  0
  2  3  1  0
  3  4  2  0
  4  5  1  0
  5  6  2  0
  6  7  1  0
  7  8  1  1
  7  9  1  0
 10  9  1  6
 10 11  1  0
 11 12  1  0
 12 13  1  0
 13 14  1  0
 14 15  2  0
 15 16  1  0
 16 17  2  0
 17 18  1  0
 18 19  2  0
 19 20  1  0
 13 21  1  0
  6 22  1  0
 22 23  2  0
 23 24  1  0
 24 25  2  0
 25  2  1  0
 25  5  1  0
 21 10  1  0
 19 14  1  0
M  END
>  <energy_score>  (4529) 
-36.038737

>  <inchikey>  (4529) 
AQVAQSIXJRTWFK-UHFFFAOYSA-N

>  <smiles>  (4529) 
Cn1ncc2c(C(O)NC3CCN(c4ncccc4Cl)C3)cccc21

>  <ref_pdb>  (4529) 
A3181a

>  <alias>  (4529) 
AQVAQSIXJRTWFK-UHFFFAOYSA-N-P12-P12-P103-601509

>  <HIPPO Pose ID>  (4529) 
516060

>  <name>  (4529) 
AQVAQSIXJRTWFK-UHFFFAOYSA-N-P12-P12-P103-601509

>  <HIPPO Compound ID>  (4529) 
293416

>  <ref_mols>  (4529) 
A0497a,A1105b

>  <distance_score>  (4529) 
1.951462

>  <inspiration_score>  (4529) 
None

$$$$
AQVAQSIXJRTWFK-UHFFFAOYSA-N-P103-P12-P103-601509
     RDKit          3D

 25 28  0  0  0  0  0  0  0  0999 V2000
   13.3972   -3.7746   16.5754 C   0  0  0  0  0  0  0  0  0  0  0  0
   14.2776   -3.9888   17.6648 N   0  0  0  0  0  0  0  0  0  0  0  0
   14.8720   -2.9333   18.2367 N   0  0  0  0  0  0  0  0  0  0  0  0
   16.0778   -3.3884   18.5120 C   0  0  0  0  0  0  0  0  0  0  0  0
   16.1843   -4.7553   18.2059 C   0  0  0  0  0  0  0  0  0  0  0  0
   17.2052   -5.6837   18.3201 C   0  0  0  0  0  0  0  0  0  0  0  0
   18.5491   -5.2198   18.7549 C   0  0  1  0  0  0  0  0  0  0  0  0
   18.8257   -3.9636   18.1575 O   0  0  0  0  0  0  0  0  0  0  0  0
   18.6511   -5.1110   20.1938 N   0  0  0  0  0  0  0  0  0  0  0  0
   20.0336   -5.0701   20.7131 C   0  0  2  0  0  0  0  0  0  0  0  0
   20.8295   -3.8220   20.3490 C   0  0  0  0  0  0  0  0  0  0  0  0
   21.6030   -4.1966   19.0809 C   0  0  0  0  0  0  0  0  0  0  0  0
   21.7268   -5.6773   19.0748 N   0  0  0  0  0  0  0  0  0  0  0  0
   21.4507   -6.3628   17.8728 C   0  0  0  0  0  0  0  0  0  0  0  0
   20.7774   -7.5458   17.9841 N   0  0  0  0  0  0  0  0  0  0  0  0
   20.1572   -8.0740   16.9045 C   0  0  0  0  0  0  0  0  0  0  0  0
   20.2106   -7.5135   15.6513 C   0  0  0  0  0  0  0  0  0  0  0  0
   21.0346   -6.4109   15.4843 C   0  0  0  0  0  0  0  0  0  0  0  0
   21.6977   -5.8528   16.5833 C   0  0  0  0  0  0  0  0  0  0  0  0
   22.8130   -4.5704   16.2458 Cl  0  0  0  0  0  0  0  0  0  0  0  0
   21.0224   -6.1903   20.2791 C   0  0  0  0  0  0  0  0  0  0  0  0
   16.8961   -7.0306   18.0419 C   0  0  0  0  0  0  0  0  0  0  0  0
   15.6312   -7.4197   17.5965 C   0  0  0  0  0  0  0  0  0  0  0  0
   14.6248   -6.4781   17.4181 C   0  0  0  0  0  0  0  0  0  0  0  0
   14.9499   -5.1633   17.7605 C   0  0  0  0  0  0  0  0  0  0  0  0
  1  2  1  0
  2  3  1  0
  3  4  2  0
  4  5  1  0
  5  6  2  0
  6  7  1  0
  7  8  1  6
  7  9  1  0
 10  9  1  6
 10 11  1  0
 11 12  1  0
 12 13  1  0
 13 14  1  0
 14 15  2  0
 15 16  1  0
 16 17  2  0
 17 18  1  0
 18 19  2  0
 19 20  1  0
 13 21  1  0
  6 22  1  0
 22 23  2  0
 23 24  1  0
 24 25  2  0
 25  2  1  0
 25  5  1  0
 21 10  1  0
 19 14  1  0
M  END
>  <energy_score>  (4530) 
-25.10862

>  <inchikey>  (4530) 
AQVAQSIXJRTWFK-UHFFFAOYSA-N

>  <smiles>  (4530) 
Cn1ncc2c(C(O)NC3CCN(c4ncccc4Cl)C3)cccc21

>  <ref_pdb>  (4530) 
A3181a

>  <alias>  (4530) 
AQVAQSIXJRTWFK-UHFFFAOYSA-N-P103-P12-P103-601509

>  <HIPPO Pose ID>  (4530) 
516061

>  <name>  (4530) 
AQVAQSIXJRTWFK-UHFFFAOYSA-N-P103-P12-P103-601509

>  <HIPPO Compound ID>  (4530) 
293416

>  <ref_mols>  (4530) 
A0497a,A1105b

>  <distance_score>  (4530) 
1.927569

>  <inspiration_score>  (4530) 
None

$$$$
GHGCNKDIIQLDRF-UHFFFAOYSA-N-P12-P12-P103-601509
     RDKit          3D

 25 28  0  0  0  0  0  0  0  0999 V2000
   19.2199   -9.6061   17.2114 C   0  0  0  0  0  0  0  0  0  0  0  0
   19.7581   -8.2136   17.0533 C   0  0  0  0  0  0  0  0  0  0  0  0
   19.9661   -7.7011   15.7857 C   0  0  0  0  0  0  0  0  0  0  0  0
   20.6347   -6.4959   15.6723 C   0  0  0  0  0  0  0  0  0  0  0  0
   21.0330   -5.8253   16.8238 C   0  0  0  0  0  0  0  0  0  0  0  0
   20.7006   -6.3292   18.0808 C   0  0  0  0  0  0  0  0  0  0  0  0
   20.9514   -5.6058   19.2494 N   0  0  0  0  0  0  0  0  0  0  0  0
   20.8859   -4.1291   19.2041 C   0  0  0  0  0  0  0  0  0  0  0  0
   20.1669   -3.7109   20.4872 C   0  0  0  0  0  0  0  0  0  0  0  0
   19.3078   -4.9183   20.8529 C   0  0  1  0  0  0  0  0  0  0  0  0
   17.9420   -5.0427   20.3049 N   0  0  0  0  0  0  0  0  0  0  0  0
   17.7272   -4.6580   18.9181 C   0  0  2  0  0  0  0  0  0  0  0  0
   17.9152   -3.2653   18.7625 O   0  0  0  0  0  0  0  0  0  0  0  0
   16.3280   -5.0166   18.4221 C   0  0  0  0  0  0  0  0  0  0  0  0
   15.3233   -4.0202   18.2636 C   0  0  0  0  0  0  0  0  0  0  0  0
   14.0955   -4.2963   17.6621 C   0  0  0  0  0  0  0  0  0  0  0  0
   13.7815   -5.5802   17.2267 C   0  0  0  0  0  0  0  0  0  0  0  0
   14.7167   -6.5882   17.4679 C   0  0  0  0  0  0  0  0  0  0  0  0
   15.9598   -6.3367   18.0429 C   0  0  0  0  0  0  0  0  0  0  0  0
   16.5569   -7.6120   18.1260 C   0  0  0  0  0  0  0  0  0  0  0  0
   15.7966   -8.5908   17.6296 N   0  0  0  0  0  0  0  0  0  0  0  0
   14.6766   -7.9431   17.2550 N   0  0  0  0  0  0  0  0  0  0  0  0
   13.5610   -8.6919   16.7296 C   0  0  0  0  0  0  0  0  0  0  0  0
   20.2636   -6.0750   20.4610 C   0  0  0  0  0  0  0  0  0  0  0  0
   20.1074   -7.5434   18.1795 N   0  0  0  0  0  0  0  0  0  0  0  0
  1  2  1  0
  2  3  2  0
  3  4  1  0
  4  5  2  0
  5  6  1  0
  6  7  1  0
  7  8  1  0
  8  9  1  0
  9 10  1  0
 10 11  1  6
 11 12  1  0
 12 13  1  1
 12 14  1  0
 14 15  2  0
 15 16  1  0
 16 17  2  0
 17 18  1  0
 18 19  2  0
 19 20  1  0
 20 21  2  0
 21 22  1  0
 22 23  1  0
 10 24  1  0
  6 25  2  0
 25  2  1  0
 24  7  1  0
 19 14  1  0
 22 18  1  0
M  END
>  <energy_score>  (4531) 
-24.604079

>  <inchikey>  (4531) 
GHGCNKDIIQLDRF-UHFFFAOYSA-N

>  <smiles>  (4531) 
Cc1cccc(N2CCC(NC(O)c3cccc4c3cnn4C)C2)n1

>  <ref_pdb>  (4531) 
A3181a

>  <alias>  (4531) 
GHGCNKDIIQLDRF-UHFFFAOYSA-N-P12-P12-P103-601509

>  <HIPPO Pose ID>  (4531) 
516062

>  <name>  (4531) 
GHGCNKDIIQLDRF-UHFFFAOYSA-N-P12-P12-P103-601509

>  <HIPPO Compound ID>  (4531) 
293417

>  <ref_mols>  (4531) 
A0497a,A1105b

>  <distance_score>  (4531) 
1.356362

>  <inspiration_score>  (4531) 
None

$$$$
GHGCNKDIIQLDRF-UHFFFAOYSA-N-P103-P12-P103-601509
     RDKit          3D

 25 28  0  0  0  0  0  0  0  0999 V2000
   19.2725   -9.5541   17.3278 C   0  0  0  0  0  0  0  0  0  0  0  0
   19.7708   -8.1691   17.0373 C   0  0  0  0  0  0  0  0  0  0  0  0
   19.9094   -7.7456   15.7288 C   0  0  0  0  0  0  0  0  0  0  0  0
   20.5076   -6.5191   15.5005 C   0  0  0  0  0  0  0  0  0  0  0  0
   20.9008   -5.7364   16.5805 C   0  0  0  0  0  0  0  0  0  0  0  0
   20.6351   -6.1597   17.8821 C   0  0  0  0  0  0  0  0  0  0  0  0
   20.8053   -5.3258   18.9883 N   0  0  0  0  0  0  0  0  0  0  0  0
   20.8547   -3.8634   18.8105 C   0  0  0  0  0  0  0  0  0  0  0  0
   20.1201   -3.2781   20.0151 C   0  0  0  0  0  0  0  0  0  0  0  0
   19.1417   -4.3688   20.4383 C   0  0  1  0  0  0  0  0  0  0  0  0
   17.7961   -4.2887   19.8437 N   0  0  0  0  0  0  0  0  0  0  0  0
   17.6993   -4.4833   18.4089 C   0  0  2  0  0  0  0  0  0  0  0  0
   18.0537   -3.2797   17.7573 O   0  0  0  0  0  0  0  0  0  0  0  0
   16.3012   -4.8736   17.9941 C   0  0  0  0  0  0  0  0  0  0  0  0
   15.3139   -3.8911   17.7788 C   0  0  0  0  0  0  0  0  0  0  0  0
   14.0583   -4.2175   17.2858 C   0  0  0  0  0  0  0  0  0  0  0  0
   13.7162   -5.5411   17.0310 C   0  0  0  0  0  0  0  0  0  0  0  0
   14.6451   -6.5317   17.3464 C   0  0  0  0  0  0  0  0  0  0  0  0
   15.9146   -6.2245   17.8176 C   0  0  0  0  0  0  0  0  0  0  0  0
   16.5091   -7.4856   18.0402 C   0  0  0  0  0  0  0  0  0  0  0  0
   15.7275   -8.5110   17.6902 N   0  0  0  0  0  0  0  0  0  0  0  0
   14.5852   -7.9017   17.3149 N   0  0  0  0  0  0  0  0  0  0  0  0
   13.4376   -8.7060   16.9757 C   0  0  0  0  0  0  0  0  0  0  0  0
   19.9623   -5.6503   20.1564 C   0  0  0  0  0  0  0  0  0  0  0  0
   20.1318   -7.4004   18.0923 N   0  0  0  0  0  0  0  0  0  0  0  0
  1  2  1  0
  2  3  2  0
  3  4  1  0
  4  5  2  0
  5  6  1  0
  6  7  1  0
  7  8  1  0
  8  9  1  0
  9 10  1  0
 10 11  1  6
 11 12  1  0
 12 13  1  6
 12 14  1  0
 14 15  2  0
 15 16  1  0
 16 17  2  0
 17 18  1  0
 18 19  2  0
 19 20  1  0
 20 21  2  0
 21 22  1  0
 22 23  1  0
 10 24  1  0
  6 25  2  0
 25  2  1  0
 24  7  1  0
 19 14  1  0
 22 18  1  0
M  END
>  <energy_score>  (4532) 
-28.81279

>  <inchikey>  (4532) 
GHGCNKDIIQLDRF-UHFFFAOYSA-N

>  <smiles>  (4532) 
Cc1cccc(N2CCC(NC(O)c3cccc4c3cnn4C)C2)n1

>  <ref_pdb>  (4532) 
A3181a

>  <alias>  (4532) 
GHGCNKDIIQLDRF-UHFFFAOYSA-N-P103-P12-P103-601509

>  <HIPPO Pose ID>  (4532) 
516063

>  <name>  (4532) 
GHGCNKDIIQLDRF-UHFFFAOYSA-N-P103-P12-P103-601509

>  <HIPPO Compound ID>  (4532) 
293417

>  <ref_mols>  (4532) 
A0497a,A1105b

>  <distance_score>  (4532) 
1.280106

>  <inspiration_score>  (4532) 
None

$$$$
AAMBYPLNGUUZQW-UHFFFAOYSA-N-P12-P12-P103-601509
     RDKit          3D

 26 29  0  0  0  0  0  0  0  0999 V2000
   18.1614   -2.0801   19.9183 C   0  0  0  0  0  0  0  0  0  0  0  0
   17.8823   -2.9734   18.8625 O   0  0  0  0  0  0  0  0  0  0  0  0
   17.4633   -4.2556   19.2903 C   0  0  2  0  0  0  0  0  0  0  0  0
   18.5136   -5.2211   19.0987 N   0  0  0  0  0  0  0  0  0  0  0  0
   19.7222   -5.1062   19.9141 C   0  0  2  0  0  0  0  0  0  0  0  0
   20.7932   -4.1832   19.3312 C   0  0  0  0  0  0  0  0  0  0  0  0
   21.4301   -4.9973   18.1927 C   0  0  0  0  0  0  0  0  0  0  0  0
   21.2064   -6.4180   18.5405 N   0  0  0  0  0  0  0  0  0  0  0  0
   20.5611   -7.1809   17.5395 C   0  0  0  0  0  0  0  0  0  0  0  0
   19.6746   -8.1286   17.9283 N   0  0  0  0  0  0  0  0  0  0  0  0
   18.9129   -8.7376   16.9916 C   0  0  0  0  0  0  0  0  0  0  0  0
   18.9922   -8.4745   15.6419 C   0  0  0  0  0  0  0  0  0  0  0  0
   19.9761   -7.6019   15.2203 C   0  0  0  0  0  0  0  0  0  0  0  0
   20.7871   -6.9905   16.1654 C   0  0  0  0  0  0  0  0  0  0  0  0
   21.7851   -6.2274   15.7055 F   0  0  0  0  0  0  0  0  0  0  0  0
   20.5145   -6.4440   19.8537 C   0  0  0  0  0  0  0  0  0  0  0  0
   16.2063   -4.6949   18.5065 C   0  0  0  0  0  0  0  0  0  0  0  0
   15.2137   -3.7327   18.1969 C   0  0  0  0  0  0  0  0  0  0  0  0
   14.0392   -4.0678   17.5209 C   0  0  0  0  0  0  0  0  0  0  0  0
   13.7586   -5.3737   17.1406 C   0  0  0  0  0  0  0  0  0  0  0  0
   14.6870   -6.3492   17.4909 C   0  0  0  0  0  0  0  0  0  0  0  0
   15.8813   -6.0489   18.1462 C   0  0  0  0  0  0  0  0  0  0  0  0
   16.4498   -7.3271   18.3709 C   0  0  0  0  0  0  0  0  0  0  0  0
   15.7360   -8.3372   17.8621 N   0  0  0  0  0  0  0  0  0  0  0  0
   14.6635   -7.7130   17.3475 N   0  0  0  0  0  0  0  0  0  0  0  0
   13.5947   -8.4955   16.7764 C   0  0  0  0  0  0  0  0  0  0  0  0
  1  2  1  0
  2  3  1  0
  3  4  1  6
  5  4  1  6
  5  6  1  0
  6  7  1  0
  7  8  1  0
  8  9  1  0
  9 10  2  0
 10 11  1  0
 11 12  2  0
 12 13  1  0
 13 14  2  0
 14 15  1  0
  8 16  1  0
  3 17  1  0
 17 18  2  0
 18 19  1  0
 19 20  2  0
 20 21  1  0
 21 22  2  0
 22 23  1  0
 23 24  2  0
 24 25  1  0
 25 26  1  0
 16  5  1  0
 22 17  1  0
 14  9  1  0
 25 21  1  0
M  END
>  <energy_score>  (4533) 
-34.421688

>  <inchikey>  (4533) 
AAMBYPLNGUUZQW-UHFFFAOYSA-N

>  <smiles>  (4533) 
COC(NC1CCN(c2ncccc2F)C1)c1cccc2c1cnn2C

>  <ref_pdb>  (4533) 
A3181a

>  <alias>  (4533) 
AAMBYPLNGUUZQW-UHFFFAOYSA-N-P12-P12-P103-601509

>  <HIPPO Pose ID>  (4533) 
516064

>  <name>  (4533) 
AAMBYPLNGUUZQW-UHFFFAOYSA-N-P12-P12-P103-601509

>  <HIPPO Compound ID>  (4533) 
293418

>  <ref_mols>  (4533) 
A0497a,A1105b

>  <distance_score>  (4533) 
1.431928

>  <inspiration_score>  (4533) 
None

$$$$
AAMBYPLNGUUZQW-UHFFFAOYSA-N-P103-P12-P103-601509
     RDKit          3D

 26 29  0  0  0  0  0  0  0  0999 V2000
   18.7474   -2.8462   17.8067 C   0  0  0  0  0  0  0  0  0  0  0  0
   18.6508   -4.2409   17.9899 O   0  0  0  0  0  0  0  0  0  0  0  0
   17.6995   -4.6434   18.9462 C   0  0  2  0  0  0  0  0  0  0  0  0
   18.2383   -5.7934   19.6510 N   0  0  0  0  0  0  0  0  0  0  0  0
   19.4826   -5.6592   20.4311 C   0  0  2  0  0  0  0  0  0  0  0  0
   20.5500   -4.6224   20.0722 C   0  0  0  0  0  0  0  0  0  0  0  0
   21.3250   -5.2245   18.8844 C   0  0  0  0  0  0  0  0  0  0  0  0
   21.0867   -6.6863   18.9488 N   0  0  0  0  0  0  0  0  0  0  0  0
   20.4825   -7.2083   17.7788 C   0  0  0  0  0  0  0  0  0  0  0  0
   19.4334   -8.0541   17.9235 N   0  0  0  0  0  0  0  0  0  0  0  0
   18.7622   -8.4563   16.8167 C   0  0  0  0  0  0  0  0  0  0  0  0
   19.0503   -8.0366   15.5376 C   0  0  0  0  0  0  0  0  0  0  0  0
   20.1628   -7.2379   15.3678 C   0  0  0  0  0  0  0  0  0  0  0  0
   20.9030   -6.8647   16.4809 C   0  0  0  0  0  0  0  0  0  0  0  0
   22.0332   -6.1863   16.2568 F   0  0  0  0  0  0  0  0  0  0  0  0
   20.3469   -6.9451   20.2120 C   0  0  0  0  0  0  0  0  0  0  0  0
   16.3728   -4.9800   18.2326 C   0  0  0  0  0  0  0  0  0  0  0  0
   15.5281   -3.8974   17.8827 C   0  0  0  0  0  0  0  0  0  0  0  0
   14.2823   -4.0748   17.2869 C   0  0  0  0  0  0  0  0  0  0  0  0
   13.8031   -5.3439   17.0034 C   0  0  0  0  0  0  0  0  0  0  0  0
   14.5961   -6.4326   17.3600 C   0  0  0  0  0  0  0  0  0  0  0  0
   15.8383   -6.2821   17.9794 C   0  0  0  0  0  0  0  0  0  0  0  0
   16.1764   -7.6175   18.3159 C   0  0  0  0  0  0  0  0  0  0  0  0
   15.3522   -8.5352   17.8041 N   0  0  0  0  0  0  0  0  0  0  0  0
   14.3796   -7.7846   17.2634 N   0  0  0  0  0  0  0  0  0  0  0  0
   13.2369   -8.4511   16.6909 C   0  0  0  0  0  0  0  0  0  0  0  0
  1  2  1  0
  2  3  1  0
  3  4  1  6
  5  4  1  6
  5  6  1  0
  6  7  1  0
  7  8  1  0
  8  9  1  0
  9 10  2  0
 10 11  1  0
 11 12  2  0
 12 13  1  0
 13 14  2  0
 14 15  1  0
  8 16  1  0
  3 17  1  0
 17 18  2  0
 18 19  1  0
 19 20  2  0
 20 21  1  0
 21 22  2  0
 22 23  1  0
 23 24  2  0
 24 25  1  0
 25 26  1  0
 16  5  1  0
 22 17  1  0
 14  9  1  0
 25 21  1  0
M  END
>  <energy_score>  (4534) 
-29.209581

>  <inchikey>  (4534) 
AAMBYPLNGUUZQW-UHFFFAOYSA-N

>  <smiles>  (4534) 
COC(NC1CCN(c2ncccc2F)C1)c1cccc2c1cnn2C

>  <ref_pdb>  (4534) 
A3181a

>  <alias>  (4534) 
AAMBYPLNGUUZQW-UHFFFAOYSA-N-P103-P12-P103-601509

>  <HIPPO Pose ID>  (4534) 
516065

>  <name>  (4534) 
AAMBYPLNGUUZQW-UHFFFAOYSA-N-P103-P12-P103-601509

>  <HIPPO Compound ID>  (4534) 
293418

>  <ref_mols>  (4534) 
A0497a,A1105b

>  <distance_score>  (4534) 
1.343185

>  <inspiration_score>  (4534) 
None

$$$$
OEGQYPFNSDGLSN-UHFFFAOYSA-N-P12-P12-P103-601509
     RDKit          3D

 26 29  0  0  0  0  0  0  0  0999 V2000
   18.6455   -1.8579   19.6830 C   0  0  0  0  0  0  0  0  0  0  0  0
   18.0842   -2.8476   18.8429 O   0  0  0  0  0  0  0  0  0  0  0  0
   17.3205   -3.8142   19.5352 C   0  0  2  0  0  0  0  0  0  0  0  0
   18.1492   -4.6191   20.4277 N   0  0  0  0  0  0  0  0  0  0  0  0
   19.2355   -5.3109   19.7642 C   0  0  2  0  0  0  0  0  0  0  0  0
   19.9638   -6.2134   20.7538 C   0  0  0  0  0  0  0  0  0  0  0  0
   21.2437   -6.6488   20.0211 C   0  0  0  0  0  0  0  0  0  0  0  0
   21.3860   -5.7569   18.8482 N   0  0  0  0  0  0  0  0  0  0  0  0
   20.9035   -6.3985   17.6569 C   0  0  0  0  0  0  0  0  0  0  0  0
   21.3059   -5.8838   16.4283 C   0  0  0  0  0  0  0  0  0  0  0  0
   20.6824   -6.3303   15.2723 C   0  0  0  0  0  0  0  0  0  0  0  0
   19.6656   -7.2681   15.3660 C   0  0  0  0  0  0  0  0  0  0  0  0
   19.3435   -7.7695   16.6150 C   0  0  0  0  0  0  0  0  0  0  0  0
   18.3074   -8.8258   16.7537 C   0  0  0  0  0  0  0  0  0  0  0  0
   19.9636   -7.3738   17.7424 N   0  0  0  0  0  0  0  0  0  0  0  0
   20.4472   -4.6202   19.1086 C   0  0  0  0  0  0  0  0  0  0  0  0
   16.2611   -4.4897   18.6121 C   0  0  0  0  0  0  0  0  0  0  0  0
   15.2530   -3.5937   18.1451 C   0  0  0  0  0  0  0  0  0  0  0  0
   14.1191   -4.0036   17.4438 C   0  0  0  0  0  0  0  0  0  0  0  0
   13.8861   -5.3387   17.1735 C   0  0  0  0  0  0  0  0  0  0  0  0
   14.8248   -6.2521   17.6457 C   0  0  0  0  0  0  0  0  0  0  0  0
   16.0005   -5.8785   18.3177 C   0  0  0  0  0  0  0  0  0  0  0  0
   16.5339   -7.1397   18.7011 C   0  0  0  0  0  0  0  0  0  0  0  0
   15.7922   -8.1885   18.3314 N   0  0  0  0  0  0  0  0  0  0  0  0
   14.7813   -7.6228   17.6631 N   0  0  0  0  0  0  0  0  0  0  0  0
   13.7188   -8.4559   17.1543 C   0  0  0  0  0  0  0  0  0  0  0  0
  1  2  1  0
  2  3  1  0
  3  4  1  6
  5  4  1  1
  5  6  1  0
  6  7  1  0
  7  8  1  0
  8  9  1  0
  9 10  2  0
 10 11  1  0
 11 12  2  0
 12 13  1  0
 13 14  1  0
 13 15  2  0
  8 16  1  0
  3 17  1  0
 17 18  2  0
 18 19  1  0
 19 20  2  0
 20 21  1  0
 21 22  2  0
 22 23  1  0
 23 24  2  0
 24 25  1  0
 25 26  1  0
 16  5  1  0
 22 17  1  0
 15  9  1  0
 25 21  1  0
M  END
>  <energy_score>  (4535) 
-14.064573

>  <inchikey>  (4535) 
OEGQYPFNSDGLSN-UHFFFAOYSA-N

>  <smiles>  (4535) 
COC(NC1CCN(c2cccc(C)n2)C1)c1cccc2c1cnn2C

>  <ref_pdb>  (4535) 
A3181a

>  <alias>  (4535) 
OEGQYPFNSDGLSN-UHFFFAOYSA-N-P12-P12-P103-601509

>  <HIPPO Pose ID>  (4535) 
516066

>  <name>  (4535) 
OEGQYPFNSDGLSN-UHFFFAOYSA-N-P12-P12-P103-601509

>  <HIPPO Compound ID>  (4535) 
293419

>  <ref_mols>  (4535) 
A0497a,A1105b

>  <distance_score>  (4535) 
1.899495

>  <inspiration_score>  (4535) 
None

$$$$
OEGQYPFNSDGLSN-UHFFFAOYSA-N-P103-P12-P103-601509
     RDKit          3D

 26 29  0  0  0  0  0  0  0  0999 V2000
   18.2009   -2.0174   19.3574 C   0  0  0  0  0  0  0  0  0  0  0  0
   18.2524   -3.2134   18.5944 O   0  0  0  0  0  0  0  0  0  0  0  0
   17.4968   -4.2468   19.1982 C   0  0  2  0  0  0  0  0  0  0  0  0
   18.3361   -5.3722   19.5071 N   0  0  0  0  0  0  0  0  0  0  0  0
   19.4303   -5.3095   20.4707 C   0  0  2  0  0  0  0  0  0  0  0  0
   20.5159   -4.2417   20.3453 C   0  0  0  0  0  0  0  0  0  0  0  0
   21.3110   -4.6550   19.1113 C   0  0  0  0  0  0  0  0  0  0  0  0
   21.2083   -6.1349   19.0646 N   0  0  0  0  0  0  0  0  0  0  0  0
   20.7552   -6.5574   17.7901 C   0  0  0  0  0  0  0  0  0  0  0  0
   21.4427   -6.1447   16.6462 C   0  0  0  0  0  0  0  0  0  0  0  0
   20.9081   -6.3923   15.3917 C   0  0  0  0  0  0  0  0  0  0  0  0
   19.7260   -7.1007   15.2956 C   0  0  0  0  0  0  0  0  0  0  0  0
   19.1323   -7.5549   16.4591 C   0  0  0  0  0  0  0  0  0  0  0  0
   17.9233   -8.4131   16.3688 C   0  0  0  0  0  0  0  0  0  0  0  0
   19.6167   -7.2824   17.6888 N   0  0  0  0  0  0  0  0  0  0  0  0
   20.3397   -6.5514   20.1996 C   0  0  0  0  0  0  0  0  0  0  0  0
   16.3094   -4.6959   18.3036 C   0  0  0  0  0  0  0  0  0  0  0  0
   15.4314   -3.7028   17.8210 C   0  0  0  0  0  0  0  0  0  0  0  0
   14.2302   -3.9970   17.1780 C   0  0  0  0  0  0  0  0  0  0  0  0
   13.8138   -5.3068   17.0020 C   0  0  0  0  0  0  0  0  0  0  0  0
   14.6330   -6.3147   17.5014 C   0  0  0  0  0  0  0  0  0  0  0  0
   15.8494   -6.0451   18.1320 C   0  0  0  0  0  0  0  0  0  0  0  0
   16.2439   -7.3261   18.6098 C   0  0  0  0  0  0  0  0  0  0  0  0
   15.4222   -8.3175   18.2507 N   0  0  0  0  0  0  0  0  0  0  0  0
   14.4504   -7.6723   17.5873 N   0  0  0  0  0  0  0  0  0  0  0  0
   13.3302   -8.4391   17.1038 C   0  0  0  0  0  0  0  0  0  0  0  0
  1  2  1  0
  2  3  1  0
  3  4  1  6
  5  4  1  6
  5  6  1  0
  6  7  1  0
  7  8  1  0
  8  9  1  0
  9 10  2  0
 10 11  1  0
 11 12  2  0
 12 13  1  0
 13 14  1  0
 13 15  2  0
  8 16  1  0
  3 17  1  0
 17 18  2  0
 18 19  1  0
 19 20  2  0
 20 21  1  0
 21 22  2  0
 22 23  1  0
 23 24  2  0
 24 25  1  0
 25 26  1  0
 16  5  1  0
 22 17  1  0
 15  9  1  0
 25 21  1  0
M  END
>  <energy_score>  (4536) 
-18.384964

>  <inchikey>  (4536) 
OEGQYPFNSDGLSN-UHFFFAOYSA-N

>  <smiles>  (4536) 
COC(NC1CCN(c2cccc(C)n2)C1)c1cccc2c1cnn2C

>  <ref_pdb>  (4536) 
A3181a

>  <alias>  (4536) 
OEGQYPFNSDGLSN-UHFFFAOYSA-N-P103-P12-P103-601509

>  <HIPPO Pose ID>  (4536) 
516067

>  <name>  (4536) 
OEGQYPFNSDGLSN-UHFFFAOYSA-N-P103-P12-P103-601509

>  <HIPPO Compound ID>  (4536) 
293419

>  <ref_mols>  (4536) 
A0497a,A1105b

>  <distance_score>  (4536) 
1.772148

>  <inspiration_score>  (4536) 
None

$$$$
KYTDHKHMLGSTQT-UHFFFAOYSA-N-P12-P12-P103-601509
     RDKit          3D

 26 29  0  0  0  0  0  0  0  0999 V2000
   18.2365   -2.1881   19.9116 C   0  0  0  0  0  0  0  0  0  0  0  0
   17.8575   -3.0308   18.8446 O   0  0  0  0  0  0  0  0  0  0  0  0
   17.4130   -4.3109   19.2521 C   0  0  2  0  0  0  0  0  0  0  0  0
   18.4138   -5.3089   18.9982 N   0  0  0  0  0  0  0  0  0  0  0  0
   19.6586   -5.2994   19.7566 C   0  0  2  0  0  0  0  0  0  0  0  0
   20.7491   -4.4140   19.1585 C   0  0  0  0  0  0  0  0  0  0  0  0
   21.2767   -5.2099   17.9518 C   0  0  0  0  0  0  0  0  0  0  0  0
   20.9749   -6.6337   18.2298 N   0  0  0  0  0  0  0  0  0  0  0  0
   20.2175   -7.2891   17.2276 C   0  0  0  0  0  0  0  0  0  0  0  0
   19.1968   -8.0872   17.6352 N   0  0  0  0  0  0  0  0  0  0  0  0
   18.3782   -8.6486   16.7222 C   0  0  0  0  0  0  0  0  0  0  0  0
   18.4749   -8.4335   15.3716 C   0  0  0  0  0  0  0  0  0  0  0  0
   19.5551   -7.7000   14.9269 C   0  0  0  0  0  0  0  0  0  0  0  0
   20.4663   -7.1776   15.8449 C   0  0  0  0  0  0  0  0  0  0  0  0
   21.9003   -6.5412   15.1446 Cl  0  0  0  0  0  0  0  0  0  0  0  0
   20.3642   -6.6781   19.5852 C   0  0  0  0  0  0  0  0  0  0  0  0
   16.1264   -4.7049   18.4868 C   0  0  0  0  0  0  0  0  0  0  0  0
   15.1836   -3.7088   18.1455 C   0  0  0  0  0  0  0  0  0  0  0  0
   14.0109   -4.0101   17.4514 C   0  0  0  0  0  0  0  0  0  0  0  0
   13.6761   -5.3086   17.0932 C   0  0  0  0  0  0  0  0  0  0  0  0
   14.5376   -6.3179   17.5016 C   0  0  0  0  0  0  0  0  0  0  0  0
   15.7321   -6.0535   18.1704 C   0  0  0  0  0  0  0  0  0  0  0  0
   16.2132   -7.3505   18.4793 C   0  0  0  0  0  0  0  0  0  0  0  0
   15.4458   -8.3413   18.0119 N   0  0  0  0  0  0  0  0  0  0  0  0
   14.4351   -7.6826   17.4230 N   0  0  0  0  0  0  0  0  0  0  0  0
   13.3427   -8.4389   16.8622 C   0  0  0  0  0  0  0  0  0  0  0  0
  1  2  1  0
  2  3  1  0
  3  4  1  6
  5  4  1  6
  5  6  1  0
  6  7  1  0
  7  8  1  0
  8  9  1  0
  9 10  2  0
 10 11  1  0
 11 12  2  0
 12 13  1  0
 13 14  2  0
 14 15  1  0
  8 16  1  0
  3 17  1  0
 17 18  2  0
 18 19  1  0
 19 20  2  0
 20 21  1  0
 21 22  2  0
 22 23  1  0
 23 24  2  0
 24 25  1  0
 25 26  1  0
 16  5  1  0
 22 17  1  0
 14  9  1  0
 25 21  1  0
M  END
>  <energy_score>  (4537) 
-27.165665

>  <inchikey>  (4537) 
KYTDHKHMLGSTQT-UHFFFAOYSA-N

>  <smiles>  (4537) 
COC(NC1CCN(c2ncccc2Cl)C1)c1cccc2c1cnn2C

>  <ref_pdb>  (4537) 
A3181a

>  <alias>  (4537) 
KYTDHKHMLGSTQT-UHFFFAOYSA-N-P12-P12-P103-601509

>  <HIPPO Pose ID>  (4537) 
516068

>  <name>  (4537) 
KYTDHKHMLGSTQT-UHFFFAOYSA-N-P12-P12-P103-601509

>  <HIPPO Compound ID>  (4537) 
293420

>  <ref_mols>  (4537) 
A0497a,A1105b

>  <distance_score>  (4537) 
1.862634

>  <inspiration_score>  (4537) 
None

$$$$
KYTDHKHMLGSTQT-UHFFFAOYSA-N-P103-P12-P103-601509
     RDKit          3D

 26 29  0  0  0  0  0  0  0  0999 V2000
   18.8008   -2.9091   17.7961 C   0  0  0  0  0  0  0  0  0  0  0  0
   18.1707   -3.2588   19.0124 O   0  0  0  0  0  0  0  0  0  0  0  0
   17.6842   -4.5935   19.0737 C   0  0  2  0  0  0  0  0  0  0  0  0
   18.7171   -5.5396   18.8092 N   0  0  0  0  0  0  0  0  0  0  0  0
   19.7415   -5.8160   19.8022 C   0  0  2  0  0  0  0  0  0  0  0  0
   21.0008   -5.0230   19.4785 C   0  0  0  0  0  0  0  0  0  0  0  0
   21.5440   -5.7262   18.2128 C   0  0  0  0  0  0  0  0  0  0  0  0
   21.0587   -7.1404   18.2823 N   0  0  0  0  0  0  0  0  0  0  0  0
   20.2761   -7.5158   17.1510 C   0  0  0  0  0  0  0  0  0  0  0  0
   19.0417   -8.0516   17.3797 N   0  0  0  0  0  0  0  0  0  0  0  0
   18.2322   -8.3216   16.3327 C   0  0  0  0  0  0  0  0  0  0  0  0
   18.5450   -8.0390   15.0288 C   0  0  0  0  0  0  0  0  0  0  0  0
   19.8101   -7.5523   14.7713 C   0  0  0  0  0  0  0  0  0  0  0  0
   20.7014   -7.3401   15.8212 C   0  0  0  0  0  0  0  0  0  0  0  0
   22.3098   -6.9753   15.3507 Cl  0  0  0  0  0  0  0  0  0  0  0  0
   20.3201   -7.2462   19.5709 C   0  0  0  0  0  0  0  0  0  0  0  0
   16.3996   -4.8883   18.2723 C   0  0  0  0  0  0  0  0  0  0  0  0
   15.5578   -3.8258   17.8787 C   0  0  0  0  0  0  0  0  0  0  0  0
   14.3225   -4.0305   17.2639 C   0  0  0  0  0  0  0  0  0  0  0  0
   13.8392   -5.3092   17.0268 C   0  0  0  0  0  0  0  0  0  0  0  0
   14.6129   -6.3803   17.4658 C   0  0  0  0  0  0  0  0  0  0  0  0
   15.8466   -6.1992   18.0914 C   0  0  0  0  0  0  0  0  0  0  0  0
   16.1675   -7.5098   18.5385 C   0  0  0  0  0  0  0  0  0  0  0  0
   15.3203   -8.4484   18.1110 N   0  0  0  0  0  0  0  0  0  0  0  0
   14.3753   -7.7318   17.4797 N   0  0  0  0  0  0  0  0  0  0  0  0
   13.2360   -8.4312   16.9412 C   0  0  0  0  0  0  0  0  0  0  0  0
  1  2  1  0
  2  3  1  0
  3  4  1  6
  5  4  1  6
  5  6  1  0
  6  7  1  0
  7  8  1  0
  8  9  1  0
  9 10  2  0
 10 11  1  0
 11 12  2  0
 12 13  1  0
 13 14  2  0
 14 15  1  0
  8 16  1  0
  3 17  1  0
 17 18  2  0
 18 19  1  0
 19 20  2  0
 20 21  1  0
 21 22  2  0
 22 23  1  0
 23 24  2  0
 24 25  1  0
 25 26  1  0
 16  5  1  0
 22 17  1  0
 14  9  1  0
 25 21  1  0
M  END
>  <energy_score>  (4538) 
-21.848495

>  <inchikey>  (4538) 
KYTDHKHMLGSTQT-UHFFFAOYSA-N

>  <smiles>  (4538) 
COC(NC1CCN(c2ncccc2Cl)C1)c1cccc2c1cnn2C

>  <ref_pdb>  (4538) 
A3181a

>  <alias>  (4538) 
KYTDHKHMLGSTQT-UHFFFAOYSA-N-P103-P12-P103-601509

>  <HIPPO Pose ID>  (4538) 
516069

>  <name>  (4538) 
KYTDHKHMLGSTQT-UHFFFAOYSA-N-P103-P12-P103-601509

>  <HIPPO Compound ID>  (4538) 
293420

>  <ref_mols>  (4538) 
A0497a,A1105b

>  <distance_score>  (4538) 
1.917998

>  <inspiration_score>  (4538) 
None

$$$$
XWPHPOWQSIIOMB-UHFFFAOYSA-N-P12-P12-P103-601509
     RDKit          3D

 26 29  0  0  0  0  0  0  0  0999 V2000
   18.3195   -2.3768   19.2374 C   0  0  0  0  0  0  0  0  0  0  0  0
   17.4683   -3.3963   19.7257 O   0  0  0  0  0  0  0  0  0  0  0  0
   17.5794   -4.6379   19.0385 C   0  0  1  0  0  0  0  0  0  0  0  0
   18.1188   -5.6303   19.9662 N   0  0  0  0  0  0  0  0  0  0  0  0
   19.4311   -5.2344   20.5197 C   0  0  1  0  0  0  0  0  0  0  0  0
   19.9488   -6.3904   21.3623 C   0  0  0  0  0  0  0  0  0  0  0  0
   20.4932   -7.3866   20.3251 C   0  0  0  0  0  0  0  0  0  0  0  0
   20.9137   -6.5587   19.1766 N   0  0  0  0  0  0  0  0  0  0  0  0
   20.3868   -6.8968   17.9078 C   0  0  0  0  0  0  0  0  0  0  0  0
   19.3078   -7.7165   17.8145 N   0  0  0  0  0  0  0  0  0  0  0  0
   18.7862   -7.9289   16.5831 C   0  0  0  0  0  0  0  0  0  0  0  0
   19.2697   -7.3639   15.4199 C   0  0  0  0  0  0  0  0  0  0  0  0
   20.3832   -6.5467   15.5089 C   0  0  0  0  0  0  0  0  0  0  0  0
   20.9436   -6.3136   16.7536 C   0  0  0  0  0  0  0  0  0  0  0  0
   22.0042   -5.4935   16.8398 F   0  0  0  0  0  0  0  0  0  0  0  0
   20.5963   -5.1486   19.4993 C   0  0  0  0  0  0  0  0  0  0  0  0
   16.2197   -5.0305   18.4506 C   0  0  0  0  0  0  0  0  0  0  0  0
   15.2397   -4.0199   18.1566 C   0  0  0  0  0  0  0  0  0  0  0  0
   14.0087   -4.2387   17.4718 C   0  0  0  0  0  0  0  0  0  0  0  0
   13.5938   -5.4939   17.0104 C   0  0  0  0  0  0  0  0  0  0  0  0
   14.4507   -6.5403   17.3582 C   0  0  0  0  0  0  0  0  0  0  0  0
   14.3051   -7.8554   17.1150 N   0  0  0  0  0  0  0  0  0  0  0  0
   15.2973   -8.4259   17.8133 N   0  0  0  0  0  0  0  0  0  0  0  0
   15.3442   -9.8636   17.9207 C   0  0  0  0  0  0  0  0  0  0  0  0
   16.1726   -7.5404   18.3690 C   0  0  0  0  0  0  0  0  0  0  0  0
   15.7024   -6.2919   18.0538 C   0  0  0  0  0  0  0  0  0  0  0  0
  1  2  1  0
  2  3  1  0
  3  4  1  1
  5  4  1  6
  5  6  1  0
  6  7  1  0
  7  8  1  0
  8  9  1  0
  9 10  2  0
 10 11  1  0
 11 12  2  0
 12 13  1  0
 13 14  2  0
 14 15  1  0
  8 16  1  0
  3 17  1  0
 17 18  2  0
 18 19  1  0
 19 20  2  0
 20 21  1  0
 21 22  2  0
 22 23  1  0
 23 24  1  0
 23 25  1  0
 25 26  2  0
 16  5  1  0
 26 17  1  0
 14  9  1  0
 26 21  1  0
M  END
>  <energy_score>  (4539) 
-55.118068

>  <inchikey>  (4539) 
XWPHPOWQSIIOMB-UHFFFAOYSA-N

>  <smiles>  (4539) 
COC(NC1CCN(c2ncccc2F)C1)c1cccc2nn(C)cc12

>  <ref_pdb>  (4539) 
A3181a

>  <alias>  (4539) 
XWPHPOWQSIIOMB-UHFFFAOYSA-N-P12-P12-P103-601509

>  <HIPPO Pose ID>  (4539) 
516070

>  <name>  (4539) 
XWPHPOWQSIIOMB-UHFFFAOYSA-N-P12-P12-P103-601509

>  <HIPPO Compound ID>  (4539) 
293421

>  <ref_mols>  (4539) 
A0497a,A1105b

>  <distance_score>  (4539) 
1.619488

>  <inspiration_score>  (4539) 
None

$$$$
XWPHPOWQSIIOMB-UHFFFAOYSA-N-P103-P12-P103-601509
     RDKit          3D

 26 29  0  0  0  0  0  0  0  0999 V2000
   18.7450   -3.1392   17.4859 C   0  0  0  0  0  0  0  0  0  0  0  0
   18.3131   -3.0518   18.8202 O   0  0  0  0  0  0  0  0  0  0  0  0
   17.5421   -4.1607   19.2565 C   0  0  2  0  0  0  0  0  0  0  0  0
   18.3615   -5.2327   19.7887 N   0  0  0  0  0  0  0  0  0  0  0  0
   19.6182   -4.8519   20.4354 C   0  0  1  0  0  0  0  0  0  0  0  0
   20.0457   -5.9803   21.3683 C   0  0  0  0  0  0  0  0  0  0  0  0
   20.5736   -7.0704   20.4164 C   0  0  0  0  0  0  0  0  0  0  0  0
   21.0859   -6.3430   19.2382 N   0  0  0  0  0  0  0  0  0  0  0  0
   20.5651   -6.7607   17.9819 C   0  0  0  0  0  0  0  0  0  0  0  0
   19.6465   -7.7623   17.9107 N   0  0  0  0  0  0  0  0  0  0  0  0
   19.0923   -8.0356   16.7066 C   0  0  0  0  0  0  0  0  0  0  0  0
   19.4123   -7.3847   15.5335 C   0  0  0  0  0  0  0  0  0  0  0  0
   20.4067   -6.4245   15.5800 C   0  0  0  0  0  0  0  0  0  0  0  0
   20.9961   -6.1263   16.7993 C   0  0  0  0  0  0  0  0  0  0  0  0
   21.9611   -5.1911   16.8262 F   0  0  0  0  0  0  0  0  0  0  0  0
   20.8368   -4.8943   19.4796 C   0  0  0  0  0  0  0  0  0  0  0  0
   16.4017   -4.6437   18.3472 C   0  0  0  0  0  0  0  0  0  0  0  0
   15.4117   -3.7042   17.9358 C   0  0  0  0  0  0  0  0  0  0  0  0
   14.1894   -4.0209   17.2709 C   0  0  0  0  0  0  0  0  0  0  0  0
   13.7976   -5.3265   16.9564 C   0  0  0  0  0  0  0  0  0  0  0  0
   14.7167   -6.3037   17.3409 C   0  0  0  0  0  0  0  0  0  0  0  0
   14.6220   -7.6379   17.1992 N   0  0  0  0  0  0  0  0  0  0  0  0
   15.6676   -8.1118   17.8927 N   0  0  0  0  0  0  0  0  0  0  0  0
   15.7904   -9.5348   18.0923 C   0  0  0  0  0  0  0  0  0  0  0  0
   16.5062   -7.1488   18.3696 C   0  0  0  0  0  0  0  0  0  0  0  0
   15.9616   -5.9471   18.0007 C   0  0  0  0  0  0  0  0  0  0  0  0
  1  2  1  0
  2  3  1  0
  3  4  1  6
  5  4  1  6
  5  6  1  0
  6  7  1  0
  7  8  1  0
  8  9  1  0
  9 10  2  0
 10 11  1  0
 11 12  2  0
 12 13  1  0
 13 14  2  0
 14 15  1  0
  8 16  1  0
  3 17  1  0
 17 18  2  0
 18 19  1  0
 19 20  2  0
 20 21  1  0
 21 22  2  0
 22 23  1  0
 23 24  1  0
 23 25  1  0
 25 26  2  0
 16  5  1  0
 26 17  1  0
 14  9  1  0
 26 21  1  0
M  END
>  <energy_score>  (4540) 
-47.089436

>  <inchikey>  (4540) 
XWPHPOWQSIIOMB-UHFFFAOYSA-N

>  <smiles>  (4540) 
COC(NC1CCN(c2ncccc2F)C1)c1cccc2nn(C)cc12

>  <ref_pdb>  (4540) 
A3181a

>  <alias>  (4540) 
XWPHPOWQSIIOMB-UHFFFAOYSA-N-P103-P12-P103-601509

>  <HIPPO Pose ID>  (4540) 
516071

>  <name>  (4540) 
XWPHPOWQSIIOMB-UHFFFAOYSA-N-P103-P12-P103-601509

>  <HIPPO Compound ID>  (4540) 
293421

>  <ref_mols>  (4540) 
A0497a,A1105b

>  <distance_score>  (4540) 
1.64263

>  <inspiration_score>  (4540) 
None

$$$$
AGROORDYIMHXLJ-UHFFFAOYSA-N-P12-P12-P103-601509
     RDKit          3D

 26 29  0  0  0  0  0  0  0  0999 V2000
   13.0544   -4.0851   17.2002 C   0  0  0  0  0  0  0  0  0  0  0  0
   14.2893   -4.1582   17.8780 N   0  0  0  0  0  0  0  0  0  0  0  0
   14.8202   -3.0411   18.3777 N   0  0  0  0  0  0  0  0  0  0  0  0
   16.0254   -3.4163   18.7520 C   0  0  0  0  0  0  0  0  0  0  0  0
   16.2341   -4.7813   18.4763 C   0  0  0  0  0  0  0  0  0  0  0  0
   17.3110   -5.6420   18.6268 C   0  0  0  0  0  0  0  0  0  0  0  0
   18.6264   -5.1241   19.1067 C   0  0  1  0  0  0  0  0  0  0  0  0
   18.7478   -3.7316   18.8984 O   0  0  0  0  0  0  0  0  0  0  0  0
   18.8406   -5.4305   20.5037 N   0  0  0  0  0  0  0  0  0  0  0  0
   20.2510   -5.3191   20.9401 C   0  0  2  0  0  0  0  0  0  0  0  0
   21.0328   -4.0627   20.5558 C   0  0  0  0  0  0  0  0  0  0  0  0
   21.6726   -4.3926   19.2000 C   0  0  0  0  0  0  0  0  0  0  0  0
   21.7800   -5.8771   19.1509 N   0  0  0  0  0  0  0  0  0  0  0  0
   21.3684   -6.5090   17.9598 C   0  0  0  0  0  0  0  0  0  0  0  0
   20.6687   -7.6739   18.0590 N   0  0  0  0  0  0  0  0  0  0  0  0
   20.0454   -8.1633   16.9598 C   0  0  0  0  0  0  0  0  0  0  0  0
   20.0863   -7.5634   15.7197 C   0  0  0  0  0  0  0  0  0  0  0  0
   20.8739   -6.4320   15.5829 C   0  0  0  0  0  0  0  0  0  0  0  0
   21.5330   -5.9174   16.6948 C   0  0  0  0  0  0  0  0  0  0  0  0
   22.2615   -4.8001   16.5362 F   0  0  0  0  0  0  0  0  0  0  0  0
   21.2090   -6.4203   20.4008 C   0  0  0  0  0  0  0  0  0  0  0  0
   17.1009   -7.0023   18.3086 C   0  0  0  0  0  0  0  0  0  0  0  0
   15.8932   -7.4618   17.7845 C   0  0  0  0  0  0  0  0  0  0  0  0
   15.7033   -9.2933   17.3552 Br  0  0  0  0  0  0  0  0  0  0  0  0
   14.8326   -6.5960   17.5694 C   0  0  0  0  0  0  0  0  0  0  0  0
   15.0547   -5.2664   17.9411 C   0  0  0  0  0  0  0  0  0  0  0  0
  1  2  1  0
  2  3  1  0
  3  4  2  0
  4  5  1  0
  5  6  2  0
  6  7  1  0
  7  8  1  1
  7  9  1  0
 10  9  1  6
 10 11  1  0
 11 12  1  0
 12 13  1  0
 13 14  1  0
 14 15  2  0
 15 16  1  0
 16 17  2  0
 17 18  1  0
 18 19  2  0
 19 20  1  0
 13 21  1  0
  6 22  1  0
 22 23  2  0
 23 24  1  0
 23 25  1  0
 25 26  2  0
 26  2  1  0
 26  5  1  0
 21 10  1  0
 19 14  1  0
M  END
>  <energy_score>  (4541) 
-8.938503

>  <inchikey>  (4541) 
AGROORDYIMHXLJ-UHFFFAOYSA-N

>  <smiles>  (4541) 
Cn1ncc2c(C(O)NC3CCN(c4ncccc4F)C3)cc(Br)cc21

>  <ref_pdb>  (4541) 
A3181a

>  <alias>  (4541) 
AGROORDYIMHXLJ-UHFFFAOYSA-N-P12-P12-P103-601509

>  <HIPPO Pose ID>  (4541) 
516072

>  <name>  (4541) 
AGROORDYIMHXLJ-UHFFFAOYSA-N-P12-P12-P103-601509

>  <HIPPO Compound ID>  (4541) 
293422

>  <ref_mols>  (4541) 
A0497a,A1105b

>  <distance_score>  (4541) 
1.915105

>  <inspiration_score>  (4541) 
None

$$$$
AGROORDYIMHXLJ-UHFFFAOYSA-N-P103-P12-P103-601509
     RDKit          3D

 26 29  0  0  0  0  0  0  0  0999 V2000
   13.1675   -4.0877   16.9706 C   0  0  0  0  0  0  0  0  0  0  0  0
   14.4666   -4.1217   17.5247 N   0  0  0  0  0  0  0  0  0  0  0  0
   14.9810   -2.9827   17.9898 N   0  0  0  0  0  0  0  0  0  0  0  0
   16.1673   -3.3435   18.4294 C   0  0  0  0  0  0  0  0  0  0  0  0
   16.3560   -4.7294   18.2950 C   0  0  0  0  0  0  0  0  0  0  0  0
   17.3373   -5.5956   18.7756 C   0  0  0  0  0  0  0  0  0  0  0  0
   18.4264   -4.9783   19.6103 C   0  0  2  0  0  0  0  0  0  0  0  0
   18.8779   -3.8605   18.8759 O   0  0  0  0  0  0  0  0  0  0  0  0
   19.4867   -5.9031   19.8755 N   0  0  0  0  0  0  0  0  0  0  0  0
   20.7222   -5.3766   20.4834 C   0  0  2  0  0  0  0  0  0  0  0  0
   21.1551   -3.9220   20.2797 C   0  0  0  0  0  0  0  0  0  0  0  0
   21.7711   -3.8779   18.8723 C   0  0  0  0  0  0  0  0  0  0  0  0
   22.1838   -5.2722   18.5534 N   0  0  0  0  0  0  0  0  0  0  0  0
   21.4996   -5.8537   17.4528 C   0  0  0  0  0  0  0  0  0  0  0  0
   20.2331   -5.4597   17.1751 N   0  0  0  0  0  0  0  0  0  0  0  0
   19.4992   -6.1684   16.2778 C   0  0  0  0  0  0  0  0  0  0  0  0
   19.9650   -7.2710   15.6039 C   0  0  0  0  0  0  0  0  0  0  0  0
   21.2724   -7.6557   15.8509 C   0  0  0  0  0  0  0  0  0  0  0  0
   22.0395   -6.9510   16.7763 C   0  0  0  0  0  0  0  0  0  0  0  0
   23.2782   -7.3893   17.0524 F   0  0  0  0  0  0  0  0  0  0  0  0
   21.9399   -6.0720   19.7878 C   0  0  0  0  0  0  0  0  0  0  0  0
   17.1402   -6.9732   18.5291 C   0  0  0  0  0  0  0  0  0  0  0  0
   16.0154   -7.4415   17.8409 C   0  0  0  0  0  0  0  0  0  0  0  0
   15.8270   -9.2990   17.5311 Br  0  0  0  0  0  0  0  0  0  0  0  0
   15.0141   -6.5786   17.4096 C   0  0  0  0  0  0  0  0  0  0  0  0
   15.2271   -5.2265   17.6806 C   0  0  0  0  0  0  0  0  0  0  0  0
  1  2  1  0
  2  3  1  0
  3  4  2  0
  4  5  1  0
  5  6  2  0
  6  7  1  0
  7  8  1  6
  7  9  1  0
 10  9  1  6
 10 11  1  0
 11 12  1  0
 12 13  1  0
 13 14  1  0
 14 15  2  0
 15 16  1  0
 16 17  2  0
 17 18  1  0
 18 19  2  0
 19 20  1  0
 13 21  1  0
  6 22  1  0
 22 23  2  0
 23 24  1  0
 23 25  1  0
 25 26  2  0
 26  2  1  0
 26  5  1  0
 21 10  1  0
 19 14  1  0
M  END
>  <energy_score>  (4542) 
-11.369249

>  <inchikey>  (4542) 
AGROORDYIMHXLJ-UHFFFAOYSA-N

>  <smiles>  (4542) 
Cn1ncc2c(C(O)NC3CCN(c4ncccc4F)C3)cc(Br)cc21

>  <ref_pdb>  (4542) 
A3181a

>  <alias>  (4542) 
AGROORDYIMHXLJ-UHFFFAOYSA-N-P103-P12-P103-601509

>  <HIPPO Pose ID>  (4542) 
516073

>  <name>  (4542) 
AGROORDYIMHXLJ-UHFFFAOYSA-N-P103-P12-P103-601509

>  <HIPPO Compound ID>  (4542) 
293422

>  <ref_mols>  (4542) 
A0497a,A1105b

>  <distance_score>  (4542) 
1.904481

>  <inspiration_score>  (4542) 
None

$$$$
NUOHSAYQSNLZAF-UHFFFAOYSA-N-P12-P12-P103-601509
     RDKit          3D

 26 29  0  0  0  0  0  0  0  0999 V2000
   17.8414   -1.6829   19.7131 C   0  0  0  0  0  0  0  0  0  0  0  0
   17.7686   -2.7521   18.7969 O   0  0  0  0  0  0  0  0  0  0  0  0
   17.3371   -3.9702   19.3718 C   0  0  2  0  0  0  0  0  0  0  0  0
   18.4364   -4.8829   19.5510 N   0  0  0  0  0  0  0  0  0  0  0  0
   19.5508   -4.4378   20.3907 C   0  0  2  0  0  0  0  0  0  0  0  0
   20.5674   -3.5963   19.6158 C   0  0  0  0  0  0  0  0  0  0  0  0
   21.2998   -4.6239   18.7487 C   0  0  0  0  0  0  0  0  0  0  0  0
   21.2528   -5.8924   19.5189 N   0  0  0  0  0  0  0  0  0  0  0  0
   20.6621   -6.9302   18.7613 C   0  0  0  0  0  0  0  0  0  0  0  0
   21.1664   -7.2684   17.5050 C   0  0  0  0  0  0  0  0  0  0  0  0
   20.5821   -8.3114   16.7989 C   0  0  0  0  0  0  0  0  0  0  0  0
   19.5148   -9.0022   17.3634 C   0  0  0  0  0  0  0  0  0  0  0  0
   19.0258   -8.5851   18.5902 C   0  0  0  0  0  0  0  0  0  0  0  0
   17.8181   -9.1683   19.2407 C   0  0  0  0  0  0  0  0  0  0  0  0
   19.6026   -7.5934   19.2807 N   0  0  0  0  0  0  0  0  0  0  0  0
   20.4987   -5.6079   20.7641 C   0  0  0  0  0  0  0  0  0  0  0  0
   16.1744   -4.5323   18.5486 C   0  0  0  0  0  0  0  0  0  0  0  0
   15.0243   -3.7172   18.3432 C   0  0  0  0  0  0  0  0  0  0  0  0
   13.8127   -4.1333   17.7162 C   0  0  0  0  0  0  0  0  0  0  0  0
   13.5820   -5.4197   17.2210 C   0  0  0  0  0  0  0  0  0  0  0  0
   14.6948   -6.2449   17.3210 C   0  0  0  0  0  0  0  0  0  0  0  0
   14.8696   -7.4559   16.7683 N   0  0  0  0  0  0  0  0  0  0  0  0
   16.2039   -7.5792   16.7215 N   0  0  0  0  0  0  0  0  0  0  0  0
   16.7583   -8.4521   15.7158 C   0  0  0  0  0  0  0  0  0  0  0  0
   16.8720   -6.6566   17.4751 C   0  0  0  0  0  0  0  0  0  0  0  0
   15.9234   -5.7938   17.9524 C   0  0  0  0  0  0  0  0  0  0  0  0
  1  2  1  0
  2  3  1  0
  3  4  1  6
  5  4  1  6
  5  6  1  0
  6  7  1  0
  7  8  1  0
  8  9  1  0
  9 10  2  0
 10 11  1  0
 11 12  2  0
 12 13  1  0
 13 14  1  0
 13 15  2  0
  8 16  1  0
  3 17  1  0
 17 18  2  0
 18 19  1  0
 19 20  2  0
 20 21  1  0
 21 22  2  0
 22 23  1  0
 23 24  1  0
 23 25  1  0
 25 26  2  0
 16  5  1  0
 26 17  1  0
 15  9  1  0
 26 21  1  0
M  END
>  <energy_score>  (4543) 
-13.430327

>  <inchikey>  (4543) 
NUOHSAYQSNLZAF-UHFFFAOYSA-N

>  <smiles>  (4543) 
COC(NC1CCN(c2cccc(C)n2)C1)c1cccc2nn(C)cc12

>  <ref_pdb>  (4543) 
A3181a

>  <alias>  (4543) 
NUOHSAYQSNLZAF-UHFFFAOYSA-N-P12-P12-P103-601509

>  <HIPPO Pose ID>  (4543) 
516074

>  <name>  (4543) 
NUOHSAYQSNLZAF-UHFFFAOYSA-N-P12-P12-P103-601509

>  <HIPPO Compound ID>  (4543) 
293423

>  <ref_mols>  (4543) 
A0497a,A1105b

>  <distance_score>  (4543) 
1.926596

>  <inspiration_score>  (4543) 
None

$$$$
NUOHSAYQSNLZAF-UHFFFAOYSA-N-P103-P12-P103-601509
     RDKit          3D

 26 29  0  0  0  0  0  0  0  0999 V2000
   18.6900   -3.1379   17.5009 C   0  0  0  0  0  0  0  0  0  0  0  0
   18.2150   -2.9957   18.8166 O   0  0  0  0  0  0  0  0  0  0  0  0
   17.4218   -4.0790   19.2787 C   0  0  2  0  0  0  0  0  0  0  0  0
   18.2269   -5.1360   19.8690 N   0  0  0  0  0  0  0  0  0  0  0  0
   19.3862   -4.6658   20.6414 C   0  0  1  0  0  0  0  0  0  0  0  0
   19.8048   -5.8025   21.5631 C   0  0  0  0  0  0  0  0  0  0  0  0
   20.5796   -6.7668   20.6503 C   0  0  0  0  0  0  0  0  0  0  0  0
   21.1322   -5.9296   19.5608 N   0  0  0  0  0  0  0  0  0  0  0  0
   20.7371   -6.3071   18.2532 C   0  0  0  0  0  0  0  0  0  0  0  0
   21.4223   -5.7553   17.1677 C   0  0  0  0  0  0  0  0  0  0  0  0
   20.9687   -5.9744   15.8747 C   0  0  0  0  0  0  0  0  0  0  0  0
   19.8594   -6.7755   15.6822 C   0  0  0  0  0  0  0  0  0  0  0  0
   19.2529   -7.3391   16.7915 C   0  0  0  0  0  0  0  0  0  0  0  0
   18.1362   -8.2987   16.5895 C   0  0  0  0  0  0  0  0  0  0  0  0
   19.6551   -7.1000   18.0612 N   0  0  0  0  0  0  0  0  0  0  0  0
   20.7057   -4.5314   19.8381 C   0  0  0  0  0  0  0  0  0  0  0  0
   16.3019   -4.5895   18.3536 C   0  0  0  0  0  0  0  0  0  0  0  0
   15.3537   -3.6491   17.8616 C   0  0  0  0  0  0  0  0  0  0  0  0
   14.1493   -3.9625   17.1657 C   0  0  0  0  0  0  0  0  0  0  0  0
   13.7258   -5.2686   16.9082 C   0  0  0  0  0  0  0  0  0  0  0  0
   14.5850   -6.2494   17.3988 C   0  0  0  0  0  0  0  0  0  0  0  0
   14.4234   -7.5838   17.3684 N   0  0  0  0  0  0  0  0  0  0  0  0
   15.3590   -8.0324   18.2191 N   0  0  0  0  0  0  0  0  0  0  0  0
   15.3197   -9.4102   18.6428 C   0  0  0  0  0  0  0  0  0  0  0  0
   16.2614   -7.0842   18.6086 C   0  0  0  0  0  0  0  0  0  0  0  0
   15.8201   -5.8969   18.0795 C   0  0  0  0  0  0  0  0  0  0  0  0
  1  2  1  0
  2  3  1  0
  3  4  1  6
  5  4  1  6
  5  6  1  0
  6  7  1  0
  7  8  1  0
  8  9  1  0
  9 10  2  0
 10 11  1  0
 11 12  2  0
 12 13  1  0
 13 14  1  0
 13 15  2  0
  8 16  1  0
  3 17  1  0
 17 18  2  0
 18 19  1  0
 19 20  2  0
 20 21  1  0
 21 22  2  0
 22 23  1  0
 23 24  1  0
 23 25  1  0
 25 26  2  0
 16  5  1  0
 26 17  1  0
 15  9  1  0
 26 21  1  0
M  END
>  <energy_score>  (4544) 
-26.471863

>  <inchikey>  (4544) 
NUOHSAYQSNLZAF-UHFFFAOYSA-N

>  <smiles>  (4544) 
COC(NC1CCN(c2cccc(C)n2)C1)c1cccc2nn(C)cc12

>  <ref_pdb>  (4544) 
A3181a

>  <alias>  (4544) 
NUOHSAYQSNLZAF-UHFFFAOYSA-N-P103-P12-P103-601509

>  <HIPPO Pose ID>  (4544) 
516075

>  <name>  (4544) 
NUOHSAYQSNLZAF-UHFFFAOYSA-N-P103-P12-P103-601509

>  <HIPPO Compound ID>  (4544) 
293423

>  <ref_mols>  (4544) 
A0497a,A1105b

>  <distance_score>  (4544) 
1.930572

>  <inspiration_score>  (4544) 
None

$$$$
NDTCCOLYYWFLRU-UHFFFAOYSA-N-P12-P12-P103-601509
     RDKit          3D

 26 29  0  0  0  0  0  0  0  0999 V2000
   18.3417   -2.4730   19.2260 C   0  0  0  0  0  0  0  0  0  0  0  0
   17.5680   -3.5413   19.7458 O   0  0  0  0  0  0  0  0  0  0  0  0
   17.6403   -4.7395   18.9804 C   0  0  1  0  0  0  0  0  0  0  0  0
   18.3210   -5.7596   19.7832 N   0  0  0  0  0  0  0  0  0  0  0  0
   19.7253   -5.3523   20.0482 C   0  0  1  0  0  0  0  0  0  0  0  0
   20.4302   -6.4121   20.8776 C   0  0  0  0  0  0  0  0  0  0  0  0
   20.9252   -7.4532   19.8603 C   0  0  0  0  0  0  0  0  0  0  0  0
   20.9907   -6.7589   18.5507 N   0  0  0  0  0  0  0  0  0  0  0  0
   20.2140   -7.3176   17.5130 C   0  0  0  0  0  0  0  0  0  0  0  0
   19.3522   -8.3110   17.8413 N   0  0  0  0  0  0  0  0  0  0  0  0
   18.5344   -8.8075   16.8890 C   0  0  0  0  0  0  0  0  0  0  0  0
   18.4614   -8.3327   15.6016 C   0  0  0  0  0  0  0  0  0  0  0  0
   19.3646   -7.3570   15.2366 C   0  0  0  0  0  0  0  0  0  0  0  0
   20.2765   -6.8760   16.1739 C   0  0  0  0  0  0  0  0  0  0  0  0
   21.4770   -5.8271   15.5423 Cl  0  0  0  0  0  0  0  0  0  0  0  0
   20.6689   -5.3378   18.8093 C   0  0  0  0  0  0  0  0  0  0  0  0
   16.2545   -5.1091   18.4523 C   0  0  0  0  0  0  0  0  0  0  0  0
   15.2903   -4.0747   18.1758 C   0  0  0  0  0  0  0  0  0  0  0  0
   14.0488   -4.2601   17.4989 C   0  0  0  0  0  0  0  0  0  0  0  0
   13.6049   -5.5031   17.0329 C   0  0  0  0  0  0  0  0  0  0  0  0
   14.4363   -6.5693   17.3827 C   0  0  0  0  0  0  0  0  0  0  0  0
   14.2495   -7.8831   17.1648 N   0  0  0  0  0  0  0  0  0  0  0  0
   15.2069   -8.4690   17.8988 N   0  0  0  0  0  0  0  0  0  0  0  0
   15.1437   -9.8938   18.1152 C   0  0  0  0  0  0  0  0  0  0  0  0
   16.1309   -7.6050   18.4095 C   0  0  0  0  0  0  0  0  0  0  0  0
   15.7009   -6.3512   18.0643 C   0  0  0  0  0  0  0  0  0  0  0  0
  1  2  1  0
  2  3  1  0
  3  4  1  1
  5  4  1  6
  5  6  1  0
  6  7  1  0
  7  8  1  0
  8  9  1  0
  9 10  2  0
 10 11  1  0
 11 12  2  0
 12 13  1  0
 13 14  2  0
 14 15  1  0
  8 16  1  0
  3 17  1  0
 17 18  2  0
 18 19  1  0
 19 20  2  0
 20 21  1  0
 21 22  2  0
 22 23  1  0
 23 24  1  0
 23 25  1  0
 25 26  2  0
 16  5  1  0
 26 17  1  0
 14  9  1  0
 26 21  1  0
M  END
>  <energy_score>  (4545) 
-52.739285

>  <inchikey>  (4545) 
NDTCCOLYYWFLRU-UHFFFAOYSA-N

>  <smiles>  (4545) 
COC(NC1CCN(c2ncccc2Cl)C1)c1cccc2nn(C)cc12

>  <ref_pdb>  (4545) 
A3181a

>  <alias>  (4545) 
NDTCCOLYYWFLRU-UHFFFAOYSA-N-P12-P12-P103-601509

>  <HIPPO Pose ID>  (4545) 
516076

>  <name>  (4545) 
NDTCCOLYYWFLRU-UHFFFAOYSA-N-P12-P12-P103-601509

>  <HIPPO Compound ID>  (4545) 
293424

>  <ref_mols>  (4545) 
A0497a,A1105b

>  <distance_score>  (4545) 
1.618724

>  <inspiration_score>  (4545) 
None

$$$$
NDTCCOLYYWFLRU-UHFFFAOYSA-N-P103-P12-P103-601509
     RDKit          3D

 26 29  0  0  0  0  0  0  0  0999 V2000
   18.6779   -2.4493   18.4781 C   0  0  0  0  0  0  0  0  0  0  0  0
   17.8165   -3.3646   19.1274 O   0  0  0  0  0  0  0  0  0  0  0  0
   17.8134   -4.6615   18.5328 C   0  0  1  0  0  0  0  0  0  0  0  0
   18.4452   -5.5897   19.4718 N   0  0  0  0  0  0  0  0  0  0  0  0
   19.8462   -5.1984   19.7510 C   0  0  1  0  0  0  0  0  0  0  0  0
   20.5110   -6.2229   20.6583 C   0  0  0  0  0  0  0  0  0  0  0  0
   21.1532   -7.2613   19.7208 C   0  0  0  0  0  0  0  0  0  0  0  0
   21.1438   -6.6744   18.3590 N   0  0  0  0  0  0  0  0  0  0  0  0
   20.2996   -7.3166   17.4264 C   0  0  0  0  0  0  0  0  0  0  0  0
   19.4523   -8.2639   17.9013 N   0  0  0  0  0  0  0  0  0  0  0  0
   18.5772   -8.8436   17.0531 C   0  0  0  0  0  0  0  0  0  0  0  0
   18.4307   -8.4915   15.7334 C   0  0  0  0  0  0  0  0  0  0  0  0
   19.3092   -7.5566   15.2261 C   0  0  0  0  0  0  0  0  0  0  0  0
   20.2749   -6.9908   16.0543 C   0  0  0  0  0  0  0  0  0  0  0  0
   21.4110   -5.9788   15.2620 Cl  0  0  0  0  0  0  0  0  0  0  0  0
   20.8145   -5.2450   18.5329 C   0  0  0  0  0  0  0  0  0  0  0  0
   16.3918   -5.0164   18.1255 C   0  0  0  0  0  0  0  0  0  0  0  0
   15.4820   -3.9772   17.7543 C   0  0  0  0  0  0  0  0  0  0  0  0
   14.1844   -4.1602   17.2027 C   0  0  0  0  0  0  0  0  0  0  0  0
   13.6444   -5.4220   16.9466 C   0  0  0  0  0  0  0  0  0  0  0  0
   14.4473   -6.4882   17.3551 C   0  0  0  0  0  0  0  0  0  0  0  0
   14.1914   -7.8068   17.2872 N   0  0  0  0  0  0  0  0  0  0  0  0
   15.1671   -8.3574   18.0256 N   0  0  0  0  0  0  0  0  0  0  0  0
   15.0623   -9.7476   18.3948 C   0  0  0  0  0  0  0  0  0  0  0  0
   16.1534   -7.4883   18.3898 C   0  0  0  0  0  0  0  0  0  0  0  0
   15.7590   -6.2606   17.9286 C   0  0  0  0  0  0  0  0  0  0  0  0
  1  2  1  0
  2  3  1  0
  3  4  1  1
  5  4  1  6
  5  6  1  0
  6  7  1  0
  7  8  1  0
  8  9  1  0
  9 10  2  0
 10 11  1  0
 11 12  2  0
 12 13  1  0
 13 14  2  0
 14 15  1  0
  8 16  1  0
  3 17  1  0
 17 18  2  0
 18 19  1  0
 19 20  2  0
 20 21  1  0
 21 22  2  0
 22 23  1  0
 23 24  1  0
 23 25  1  0
 25 26  2  0
 16  5  1  0
 26 17  1  0
 14  9  1  0
 26 21  1  0
M  END
>  <energy_score>  (4546) 
-53.003762

>  <inchikey>  (4546) 
NDTCCOLYYWFLRU-UHFFFAOYSA-N

>  <smiles>  (4546) 
COC(NC1CCN(c2ncccc2Cl)C1)c1cccc2nn(C)cc12

>  <ref_pdb>  (4546) 
A3181a

>  <alias>  (4546) 
NDTCCOLYYWFLRU-UHFFFAOYSA-N-P103-P12-P103-601509

>  <HIPPO Pose ID>  (4546) 
516077

>  <name>  (4546) 
NDTCCOLYYWFLRU-UHFFFAOYSA-N-P103-P12-P103-601509

>  <HIPPO Compound ID>  (4546) 
293424

>  <ref_mols>  (4546) 
A0497a,A1105b

>  <distance_score>  (4546) 
1.704667

>  <inspiration_score>  (4546) 
None

$$$$
NCLPXJIIMRHRDX-UHFFFAOYSA-N-P12-P12-P103-601509
     RDKit          3D

 26 29  0  0  0  0  0  0  0  0999 V2000
   17.8529   -8.7059   18.9149 C   0  0  0  0  0  0  0  0  0  0  0  0
   17.8872   -8.5013   17.4501 C   0  0  0  0  0  0  0  0  0  0  0  0
   18.8374   -7.9833   16.5940 C   0  0  0  0  0  0  0  0  0  0  0  0
   20.1593   -7.5726   16.8820 C   0  0  0  0  0  0  0  0  0  0  0  0
   20.9873   -7.6780   18.1401 C   0  0  2  0  0  0  0  0  0  0  0  0
   21.3212   -9.0474   18.3006 O   0  0  0  0  0  0  0  0  0  0  0  0
   20.4000   -7.2251   19.3856 N   0  0  0  0  0  0  0  0  0  0  0  0
   20.4439   -5.7695   19.5793 C   0  0  2  0  0  0  0  0  0  0  0  0
   19.9478   -5.4169   20.9871 C   0  0  0  0  0  0  0  0  0  0  0  0
   18.4458   -5.2367   20.8036 C   0  0  0  0  0  0  0  0  0  0  0  0
   18.3496   -4.5597   19.5218 N   0  0  0  0  0  0  0  0  0  0  0  0
   17.1141   -4.6362   18.8560 C   0  0  0  0  0  0  0  0  0  0  0  0
   16.6472   -5.8180   18.3708 N   0  0  0  0  0  0  0  0  0  0  0  0
   15.3867   -5.8821   17.8541 C   0  0  0  0  0  0  0  0  0  0  0  0
   14.5281   -4.8081   17.7926 C   0  0  0  0  0  0  0  0  0  0  0  0
   15.0050   -3.6029   18.2898 C   0  0  0  0  0  0  0  0  0  0  0  0
   16.2999   -3.5003   18.8155 C   0  0  0  0  0  0  0  0  0  0  0  0
   16.8480   -2.0092   19.5140 Cl  0  0  0  0  0  0  0  0  0  0  0  0
   19.4967   -4.9320   18.6877 C   0  0  0  0  0  0  0  0  0  0  0  0
   20.7833   -7.0849   15.6878 C   0  0  0  0  0  0  0  0  0  0  0  0
   20.1796   -7.0332   14.3974 C   0  0  0  0  0  0  0  0  0  0  0  0
   18.8709   -7.4716   14.1503 C   0  0  0  0  0  0  0  0  0  0  0  0
   18.2025   -7.9512   15.2866 C   0  0  0  0  0  0  0  0  0  0  0  0
   16.9624   -8.4587   15.3582 N   0  0  0  0  0  0  0  0  0  0  0  0
   16.8265   -8.8288   16.6427 N   0  0  0  0  0  0  0  0  0  0  0  0
   15.6505   -9.5870   17.0092 C   0  0  0  0  0  0  0  0  0  0  0  0
  1  2  1  0
  2  3  2  0
  3  4  1  0
  4  5  1  0
  5  6  1  1
  5  7  1  0
  8  7  1  6
  8  9  1  0
  9 10  1  0
 10 11  1  0
 11 12  1  0
 12 13  2  0
 13 14  1  0
 14 15  2  0
 15 16  1  0
 16 17  2  0
 17 18  1  0
 11 19  1  0
  4 20  2  0
 20 21  1  0
 21 22  2  0
 22 23  1  0
 23 24  2  0
 24 25  1  0
 25 26  1  0
 25  2  1  0
 23  3  1  0
 19  8  1  0
 17 12  1  0
M  END
>  <energy_score>  (4547) 
-36.874653

>  <inchikey>  (4547) 
NCLPXJIIMRHRDX-UHFFFAOYSA-N

>  <smiles>  (4547) 
Cc1c2c(C(O)NC3CCN(c4ncccc4Cl)C3)cccc2nn1C

>  <ref_pdb>  (4547) 
A3181a

>  <alias>  (4547) 
NCLPXJIIMRHRDX-UHFFFAOYSA-N-P12-P12-P103-601509

>  <HIPPO Pose ID>  (4547) 
516078

>  <name>  (4547) 
NCLPXJIIMRHRDX-UHFFFAOYSA-N-P12-P12-P103-601509

>  <HIPPO Compound ID>  (4547) 
293425

>  <ref_mols>  (4547) 
A0497a,A1105b

>  <distance_score>  (4547) 
1.754394

>  <inspiration_score>  (4547) 
None

$$$$
NCLPXJIIMRHRDX-UHFFFAOYSA-N-P103-P12-P103-601509
     RDKit          3D

 26 29  0  0  0  0  0  0  0  0999 V2000
   18.0430   -8.2728   18.7102 C   0  0  0  0  0  0  0  0  0  0  0  0
   17.9632   -8.2292   17.2305 C   0  0  0  0  0  0  0  0  0  0  0  0
   18.7440   -7.7681   16.1771 C   0  0  0  0  0  0  0  0  0  0  0  0
   19.9033   -6.9381   16.1219 C   0  0  0  0  0  0  0  0  0  0  0  0
   20.4633   -5.8698   17.0406 C   0  0  1  0  0  0  0  0  0  0  0  0
   19.6292   -4.7454   17.0147 O   0  0  0  0  0  0  0  0  0  0  0  0
   20.8729   -6.3053   18.3525 N   0  0  0  0  0  0  0  0  0  0  0  0
   20.7133   -5.4102   19.5007 C   0  0  1  0  0  0  0  0  0  0  0  0
   21.0373   -3.9267   19.3319 C   0  0  0  0  0  0  0  0  0  0  0  0
   19.6884   -3.1987   19.2907 C   0  0  0  0  0  0  0  0  0  0  0  0
   18.6721   -4.1482   19.7939 N   0  0  0  0  0  0  0  0  0  0  0  0
   17.5080   -4.2448   18.9987 C   0  0  0  0  0  0  0  0  0  0  0  0
   17.1332   -5.4218   18.4359 N   0  0  0  0  0  0  0  0  0  0  0  0
   15.9435   -5.5156   17.7759 C   0  0  0  0  0  0  0  0  0  0  0  0
   15.0342   -4.4944   17.6782 C   0  0  0  0  0  0  0  0  0  0  0  0
   15.4026   -3.2981   18.2637 C   0  0  0  0  0  0  0  0  0  0  0  0
   16.6376   -3.1550   18.9116 C   0  0  0  0  0  0  0  0  0  0  0  0
   16.9913   -1.6710   19.7537 Cl  0  0  0  0  0  0  0  0  0  0  0  0
   19.3394   -5.3762   20.1981 C   0  0  0  0  0  0  0  0  0  0  0  0
   20.4877   -6.9729   14.8098 C   0  0  0  0  0  0  0  0  0  0  0  0
   19.9869   -7.6871   13.6935 C   0  0  0  0  0  0  0  0  0  0  0  0
   18.7964   -8.4146   13.7451 C   0  0  0  0  0  0  0  0  0  0  0  0
   18.1785   -8.4398   15.0046 C   0  0  0  0  0  0  0  0  0  0  0  0
   17.0279   -9.0472   15.3151 N   0  0  0  0  0  0  0  0  0  0  0  0
   16.8969   -8.8645   16.6307 N   0  0  0  0  0  0  0  0  0  0  0  0
   15.7407   -9.4511   17.2768 C   0  0  0  0  0  0  0  0  0  0  0  0
  1  2  1  0
  2  3  2  0
  3  4  1  0
  4  5  1  0
  5  6  1  1
  5  7  1  0
  8  7  1  6
  8  9  1  0
  9 10  1  0
 10 11  1  0
 11 12  1  0
 12 13  2  0
 13 14  1  0
 14 15  2  0
 15 16  1  0
 16 17  2  0
 17 18  1  0
 11 19  1  0
  4 20  2  0
 20 21  1  0
 21 22  2  0
 22 23  1  0
 23 24  2  0
 24 25  1  0
 25 26  1  0
 25  2  1  0
 23  3  1  0
 19  8  1  0
 17 12  1  0
M  END
>  <energy_score>  (4548) 
-16.667129

>  <inchikey>  (4548) 
NCLPXJIIMRHRDX-UHFFFAOYSA-N

>  <smiles>  (4548) 
Cc1c2c(C(O)NC3CCN(c4ncccc4Cl)C3)cccc2nn1C

>  <ref_pdb>  (4548) 
A3181a

>  <alias>  (4548) 
NCLPXJIIMRHRDX-UHFFFAOYSA-N-P103-P12-P103-601509

>  <HIPPO Pose ID>  (4548) 
516079

>  <name>  (4548) 
NCLPXJIIMRHRDX-UHFFFAOYSA-N-P103-P12-P103-601509

>  <HIPPO Compound ID>  (4548) 
293425

>  <ref_mols>  (4548) 
A0497a,A1105b

>  <distance_score>  (4548) 
1.879842

>  <inspiration_score>  (4548) 
None

$$$$
IUGNENPJFVKWOS-UHFFFAOYSA-N-P12-P12-P103-601509
     RDKit          3D

 26 29  0  0  0  0  0  0  0  0999 V2000
   19.0976   -8.8780   16.6415 C   0  0  0  0  0  0  0  0  0  0  0  0
   19.8787   -7.6003   16.6343 C   0  0  0  0  0  0  0  0  0  0  0  0
   20.2230   -7.0386   15.4197 C   0  0  0  0  0  0  0  0  0  0  0  0
   21.0797   -5.9531   15.4241 C   0  0  0  0  0  0  0  0  0  0  0  0
   21.5075   -5.4242   16.6364 C   0  0  0  0  0  0  0  0  0  0  0  0
   21.0411   -5.9581   17.8361 C   0  0  0  0  0  0  0  0  0  0  0  0
   21.3312   -5.3190   19.0634 N   0  0  0  0  0  0  0  0  0  0  0  0
   21.0679   -3.8525   19.0577 C   0  0  0  0  0  0  0  0  0  0  0  0
   20.1986   -3.5859   20.2863 C   0  0  0  0  0  0  0  0  0  0  0  0
   19.4353   -4.8939   20.4705 C   0  0  1  0  0  0  0  0  0  0  0  0
   18.3848   -5.2027   19.5010 N   0  0  0  0  0  0  0  0  0  0  0  0
   17.3338   -4.2617   19.2975 C   0  0  1  0  0  0  0  0  0  0  0  0
   17.8299   -3.1038   18.6675 O   0  0  0  0  0  0  0  0  0  0  0  0
   16.1653   -4.8363   18.4962 C   0  0  0  0  0  0  0  0  0  0  0  0
   15.1316   -3.9064   18.1322 C   0  0  0  0  0  0  0  0  0  0  0  0
   13.9599   -4.2224   17.3982 C   0  0  0  0  0  0  0  0  0  0  0  0
   13.6655   -5.5102   16.9438 C   0  0  0  0  0  0  0  0  0  0  0  0
   14.5916   -6.4872   17.3244 C   0  0  0  0  0  0  0  0  0  0  0  0
   14.5424   -7.7977   17.0552 N   0  0  0  0  0  0  0  0  0  0  0  0
   15.5277   -8.3238   17.7909 N   0  0  0  0  0  0  0  0  0  0  0  0
   15.6169   -9.7661   17.8474 C   0  0  0  0  0  0  0  0  0  0  0  0
   16.2787   -7.4057   18.4908 C   0  0  0  0  0  0  0  0  0  0  0  0
   17.2514   -7.8577   19.5221 C   0  0  0  0  0  0  0  0  0  0  0  0
   15.7916   -6.1651   18.0957 C   0  0  0  0  0  0  0  0  0  0  0  0
   20.6163   -5.8800   20.2382 C   0  0  0  0  0  0  0  0  0  0  0  0
   20.2787   -7.0772   17.8200 N   0  0  0  0  0  0  0  0  0  0  0  0
  1  2  1  0
  2  3  2  0
  3  4  1  0
  4  5  2  0
  5  6  1  0
  6  7  1  0
  7  8  1  0
  8  9  1  0
  9 10  1  0
 10 11  1  6
 11 12  1  0
 12 13  1  6
 12 14  1  0
 14 15  2  0
 15 16  1  0
 16 17  2  0
 17 18  1  0
 18 19  2  0
 19 20  1  0
 20 21  1  0
 20 22  1  0
 22 23  1  0
 22 24  2  0
 10 25  1  0
  6 26  2  0
 26  2  1  0
 25  7  1  0
 24 14  1  0
 24 18  1  0
M  END
>  <energy_score>  (4549) 
-32.280664

>  <inchikey>  (4549) 
IUGNENPJFVKWOS-UHFFFAOYSA-N

>  <smiles>  (4549) 
Cc1cccc(N2CCC(NC(O)c3cccc4nn(C)c(C)c34)C2)n1

>  <ref_pdb>  (4549) 
A3181a

>  <alias>  (4549) 
IUGNENPJFVKWOS-UHFFFAOYSA-N-P12-P12-P103-601509

>  <HIPPO Pose ID>  (4549) 
516080

>  <name>  (4549) 
IUGNENPJFVKWOS-UHFFFAOYSA-N-P12-P12-P103-601509

>  <HIPPO Compound ID>  (4549) 
293426

>  <ref_mols>  (4549) 
A0497a,A1105b

>  <distance_score>  (4549) 
1.686823

>  <inspiration_score>  (4549) 
None

$$$$
IUGNENPJFVKWOS-UHFFFAOYSA-N-P103-P12-P103-601509
     RDKit          3D

 26 29  0  0  0  0  0  0  0  0999 V2000
   19.2396   -8.9934   16.8323 C   0  0  0  0  0  0  0  0  0  0  0  0
   19.8489   -7.6321   16.6821 C   0  0  0  0  0  0  0  0  0  0  0  0
   20.0031   -7.1099   15.4126 C   0  0  0  0  0  0  0  0  0  0  0  0
   20.7329   -5.9443   15.2743 C   0  0  0  0  0  0  0  0  0  0  0  0
   21.2291   -5.3068   16.4045 C   0  0  0  0  0  0  0  0  0  0  0  0
   20.9462   -5.8098   17.6725 C   0  0  0  0  0  0  0  0  0  0  0  0
   21.2970   -5.0826   18.8329 N   0  0  0  0  0  0  0  0  0  0  0  0
   20.9662   -3.6312   18.7626 C   0  0  0  0  0  0  0  0  0  0  0  0
   20.0491   -3.3536   19.9583 C   0  0  0  0  0  0  0  0  0  0  0  0
   19.4347   -4.7126   20.2898 C   0  0  1  0  0  0  0  0  0  0  0  0
   18.3531   -5.2348   19.4441 N   0  0  0  0  0  0  0  0  0  0  0  0
   17.4532   -4.3071   18.8300 C   0  0  1  0  0  0  0  0  0  0  0  0
   18.1272   -3.5461   17.8487 O   0  0  0  0  0  0  0  0  0  0  0  0
   16.2374   -4.9448   18.1869 C   0  0  0  0  0  0  0  0  0  0  0  0
   15.2442   -4.0077   17.7492 C   0  0  0  0  0  0  0  0  0  0  0  0
   14.0209   -4.3316   17.1277 C   0  0  0  0  0  0  0  0  0  0  0  0
   13.6557   -5.6493   16.8565 C   0  0  0  0  0  0  0  0  0  0  0  0
   14.5612   -6.6277   17.2797 C   0  0  0  0  0  0  0  0  0  0  0  0
   14.4465   -7.9538   17.1376 N   0  0  0  0  0  0  0  0  0  0  0  0
   15.4552   -8.4491   17.8630 N   0  0  0  0  0  0  0  0  0  0  0  0
   15.5193   -9.8848   18.0243 C   0  0  0  0  0  0  0  0  0  0  0  0
   16.2646   -7.5001   18.4489 C   0  0  0  0  0  0  0  0  0  0  0  0
   17.2521   -7.8977   19.4889 C   0  0  0  0  0  0  0  0  0  0  0  0
   15.8058   -6.2847   17.9539 C   0  0  0  0  0  0  0  0  0  0  0  0
   20.6996   -5.5966   20.0887 C   0  0  0  0  0  0  0  0  0  0  0  0
   20.2993   -6.9965   17.7942 N   0  0  0  0  0  0  0  0  0  0  0  0
  1  2  1  0
  2  3  2  0
  3  4  1  0
  4  5  2  0
  5  6  1  0
  6  7  1  0
  7  8  1  0
  8  9  1  0
  9 10  1  0
 10 11  1  6
 11 12  1  0
 12 13  1  6
 12 14  1  0
 14 15  2  0
 15 16  1  0
 16 17  2  0
 17 18  1  0
 18 19  2  0
 19 20  1  0
 20 21  1  0
 20 22  1  0
 22 23  1  0
 22 24  2  0
 10 25  1  0
  6 26  2  0
 26  2  1  0
 25  7  1  0
 24 14  1  0
 24 18  1  0
M  END
>  <energy_score>  (4550) 
-29.867587

>  <inchikey>  (4550) 
IUGNENPJFVKWOS-UHFFFAOYSA-N

>  <smiles>  (4550) 
Cc1cccc(N2CCC(NC(O)c3cccc4nn(C)c(C)c34)C2)n1

>  <ref_pdb>  (4550) 
A3181a

>  <alias>  (4550) 
IUGNENPJFVKWOS-UHFFFAOYSA-N-P103-P12-P103-601509

>  <HIPPO Pose ID>  (4550) 
516081

>  <name>  (4550) 
IUGNENPJFVKWOS-UHFFFAOYSA-N-P103-P12-P103-601509

>  <HIPPO Compound ID>  (4550) 
293426

>  <ref_mols>  (4550) 
A0497a,A1105b

>  <distance_score>  (4550) 
1.490506

>  <inspiration_score>  (4550) 
None

$$$$
SPCOKEYOJIRPQK-UHFFFAOYSA-N-P12-P12-P103-601509
     RDKit          3D

 26 29  0  0  0  0  0  0  0  0999 V2000
   15.4778   -7.8124   17.7155 C   0  0  0  0  0  0  0  0  0  0  0  0
   16.7647   -7.7914   17.0607 N   0  0  0  0  0  0  0  0  0  0  0  0
   17.9865   -7.8097   17.6651 C   0  0  0  0  0  0  0  0  0  0  0  0
   18.9025   -7.6905   16.6517 C   0  0  0  0  0  0  0  0  0  0  0  0
   20.3080   -7.6721   16.7738 C   0  0  0  0  0  0  0  0  0  0  0  0
   21.1277   -7.9703   18.0096 C   0  0  2  0  0  0  0  0  0  0  0  0
   20.4247   -8.8568   18.8740 O   0  0  0  0  0  0  0  0  0  0  0  0
   21.5679   -6.7745   18.7076 N   0  0  0  0  0  0  0  0  0  0  0  0
   21.8988   -7.0369   20.1246 C   0  0  1  0  0  0  0  0  0  0  0  0
   22.8887   -6.0067   20.6634 C   0  0  0  0  0  0  0  0  0  0  0  0
   22.0299   -4.7745   20.9374 C   0  0  0  0  0  0  0  0  0  0  0  0
   20.6633   -5.2944   21.1922 N   0  0  0  0  0  0  0  0  0  0  0  0
   19.6756   -4.5093   20.5900 C   0  0  0  0  0  0  0  0  0  0  0  0
   19.9769   -3.1938   20.4188 N   0  0  0  0  0  0  0  0  0  0  0  0
   19.1244   -2.4024   19.7365 C   0  0  0  0  0  0  0  0  0  0  0  0
   17.9350   -2.8437   19.2087 C   0  0  0  0  0  0  0  0  0  0  0  0
   17.5943   -4.1661   19.4012 C   0  0  0  0  0  0  0  0  0  0  0  0
   18.4367   -4.9868   20.1428 C   0  0  0  0  0  0  0  0  0  0  0  0
   18.0062   -6.2298   20.4038 F   0  0  0  0  0  0  0  0  0  0  0  0
   20.6940   -6.7622   21.0542 C   0  0  0  0  0  0  0  0  0  0  0  0
   20.8835   -7.4183   15.4912 C   0  0  0  0  0  0  0  0  0  0  0  0
   22.7794   -7.2278   15.2960 Br  0  0  0  0  0  0  0  0  0  0  0  0
   20.1440   -7.3191   14.2655 C   0  0  0  0  0  0  0  0  0  0  0  0
   18.7454   -7.4537   14.1876 C   0  0  0  0  0  0  0  0  0  0  0  0
   18.1269   -7.6193   15.4335 C   0  0  0  0  0  0  0  0  0  0  0  0
   16.8211   -7.7655   15.7164 N   0  0  0  0  0  0  0  0  0  0  0  0
  1  2  1  0
  2  3  1  0
  3  4  2  0
  4  5  1  0
  5  6  1  0
  6  7  1  1
  6  8  1  0
  9  8  1  6
  9 10  1  0
 10 11  1  0
 11 12  1  0
 12 13  1  0
 13 14  2  0
 14 15  1  0
 15 16  2  0
 16 17  1  0
 17 18  2  0
 18 19  1  0
 12 20  1  0
  5 21  2  0
 21 22  1  0
 21 23  1  0
 23 24  2  0
 24 25  1  0
 25 26  2  0
 26  2  1  0
 25  4  1  0
 20  9  1  0
 18 13  1  0
M  END
>  <energy_score>  (4551) 
-59.183205

>  <inchikey>  (4551) 
SPCOKEYOJIRPQK-UHFFFAOYSA-N

>  <smiles>  (4551) 
Cn1cc2c(C(O)NC3CCN(c4ncccc4F)C3)c(Br)ccc2n1

>  <ref_pdb>  (4551) 
A3181a

>  <alias>  (4551) 
SPCOKEYOJIRPQK-UHFFFAOYSA-N-P12-P12-P103-601509

>  <HIPPO Pose ID>  (4551) 
516084

>  <name>  (4551) 
SPCOKEYOJIRPQK-UHFFFAOYSA-N-P12-P12-P103-601509

>  <HIPPO Compound ID>  (4551) 
293428

>  <ref_mols>  (4551) 
A0497a,A1105b

>  <distance_score>  (4551) 
0.956004

>  <inspiration_score>  (4551) 
None

$$$$
SPCOKEYOJIRPQK-UHFFFAOYSA-N-P103-P12-P103-601509
     RDKit          3D

 26 29  0  0  0  0  0  0  0  0999 V2000
   15.4394   -7.9401   17.8836 C   0  0  0  0  0  0  0  0  0  0  0  0
   16.7457   -7.8953   17.2690 N   0  0  0  0  0  0  0  0  0  0  0  0
   17.9308   -7.6469   17.8969 C   0  0  0  0  0  0  0  0  0  0  0  0
   18.8771   -7.6120   16.9028 C   0  0  0  0  0  0  0  0  0  0  0  0
   20.2641   -7.3758   17.0487 C   0  0  0  0  0  0  0  0  0  0  0  0
   21.0536   -7.3057   18.3384 C   0  0  2  0  0  0  0  0  0  0  0  0
   21.2594   -8.6348   18.7711 O   0  0  0  0  0  0  0  0  0  0  0  0
   20.3466   -6.5911   19.3759 N   0  0  0  0  0  0  0  0  0  0  0  0
   21.0462   -6.4666   20.6677 C   0  0  1  0  0  0  0  0  0  0  0  0
   22.2244   -5.4768   20.6587 C   0  0  0  0  0  0  0  0  0  0  0  0
   21.7283   -4.1981   21.3534 C   0  0  0  0  0  0  0  0  0  0  0  0
   20.2741   -4.3595   21.5326 N   0  0  0  0  0  0  0  0  0  0  0  0
   19.5171   -3.8717   20.4346 C   0  0  0  0  0  0  0  0  0  0  0  0
   20.1738   -3.5164   19.3006 N   0  0  0  0  0  0  0  0  0  0  0  0
   19.4530   -3.2219   18.1945 C   0  0  0  0  0  0  0  0  0  0  0  0
   18.0774   -3.2603   18.1463 C   0  0  0  0  0  0  0  0  0  0  0  0
   17.3963   -3.5694   19.3108 C   0  0  0  0  0  0  0  0  0  0  0  0
   18.1180   -3.8780   20.4616 C   0  0  0  0  0  0  0  0  0  0  0  0
   17.4583   -4.2215   21.5787 F   0  0  0  0  0  0  0  0  0  0  0  0
   20.0777   -5.8181   21.6942 C   0  0  0  0  0  0  0  0  0  0  0  0
   20.8727   -7.3720   15.7537 C   0  0  0  0  0  0  0  0  0  0  0  0
   22.7528   -7.0555   15.5513 Br  0  0  0  0  0  0  0  0  0  0  0  0
   20.1845   -7.6242   14.5190 C   0  0  0  0  0  0  0  0  0  0  0  0
   18.8127   -7.9217   14.4398 C   0  0  0  0  0  0  0  0  0  0  0  0
   18.1583   -7.8908   15.6772 C   0  0  0  0  0  0  0  0  0  0  0  0
   16.8631   -8.1238   15.9491 N   0  0  0  0  0  0  0  0  0  0  0  0
  1  2  1  0
  2  3  1  0
  3  4  2  0
  4  5  1  0
  5  6  1  0
  6  7  1  1
  6  8  1  0
  9  8  1  6
  9 10  1  0
 10 11  1  0
 11 12  1  0
 12 13  1  0
 13 14  2  0
 14 15  1  0
 15 16  2  0
 16 17  1  0
 17 18  2  0
 18 19  1  0
 12 20  1  0
  5 21  2  0
 21 22  1  0
 21 23  1  0
 23 24  2  0
 24 25  1  0
 25 26  2  0
 26  2  1  0
 25  4  1  0
 20  9  1  0
 18 13  1  0
M  END
>  <energy_score>  (4552) 
-60.51043

>  <inchikey>  (4552) 
SPCOKEYOJIRPQK-UHFFFAOYSA-N

>  <smiles>  (4552) 
Cn1cc2c(C(O)NC3CCN(c4ncccc4F)C3)c(Br)ccc2n1

>  <ref_pdb>  (4552) 
A3181a

>  <alias>  (4552) 
SPCOKEYOJIRPQK-UHFFFAOYSA-N-P103-P12-P103-601509

>  <HIPPO Pose ID>  (4552) 
516085

>  <name>  (4552) 
SPCOKEYOJIRPQK-UHFFFAOYSA-N-P103-P12-P103-601509

>  <HIPPO Compound ID>  (4552) 
293428

>  <ref_mols>  (4552) 
A0497a,A1105b

>  <distance_score>  (4552) 
1.02753

>  <inspiration_score>  (4552) 
None

$$$$
KXHFCMGWBBJIKW-UHFFFAOYSA-N-P12-P12-P103-601509
     RDKit          3D

 26 29  0  0  0  0  0  0  0  0999 V2000
   15.1199   -7.8167   17.6868 C   0  0  0  0  0  0  0  0  0  0  0  0
   16.4112   -7.7421   17.0428 N   0  0  0  0  0  0  0  0  0  0  0  0
   17.5581   -7.2400   17.5875 C   0  0  0  0  0  0  0  0  0  0  0  0
   18.5017   -7.3381   16.5955 C   0  0  0  0  0  0  0  0  0  0  0  0
   19.8452   -6.9250   16.6702 C   0  0  0  0  0  0  0  0  0  0  0  0
   20.4764   -6.2710   17.8637 C   0  0  2  0  0  0  0  0  0  0  0  0
   20.9364   -5.0034   17.4603 O   0  0  0  0  0  0  0  0  0  0  0  0
   21.5560   -7.0639   18.4262 N   0  0  0  0  0  0  0  0  0  0  0  0
   21.9564   -6.7205   19.8001 C   0  0  1  0  0  0  0  0  0  0  0  0
   22.7857   -5.4387   19.9468 C   0  0  0  0  0  0  0  0  0  0  0  0
   22.3502   -4.8593   21.2902 C   0  0  0  0  0  0  0  0  0  0  0  0
   20.9434   -5.2643   21.4629 N   0  0  0  0  0  0  0  0  0  0  0  0
   20.0081   -4.3797   20.8734 C   0  0  0  0  0  0  0  0  0  0  0  0
   20.4664   -3.4260   20.0287 N   0  0  0  0  0  0  0  0  0  0  0  0
   19.5861   -2.6525   19.3609 C   0  0  0  0  0  0  0  0  0  0  0  0
   18.2233   -2.7469   19.5099 C   0  0  0  0  0  0  0  0  0  0  0  0
   17.7461   -3.6580   20.4360 C   0  0  0  0  0  0  0  0  0  0  0  0
   18.6323   -4.4844   21.1298 C   0  0  0  0  0  0  0  0  0  0  0  0
   18.0007   -5.5566   22.3319 Cl  0  0  0  0  0  0  0  0  0  0  0  0
   20.8474   -6.6233   20.8863 C   0  0  0  0  0  0  0  0  0  0  0  0
   20.4893   -7.1696   15.4190 C   0  0  0  0  0  0  0  0  0  0  0  0
   22.3357   -6.7312   15.1499 Br  0  0  0  0  0  0  0  0  0  0  0  0
   19.8504   -7.7533   14.2743 C   0  0  0  0  0  0  0  0  0  0  0  0
   18.5012   -8.1542   14.2538 C   0  0  0  0  0  0  0  0  0  0  0  0
   17.8282   -7.9253   15.4611 C   0  0  0  0  0  0  0  0  0  0  0  0
   16.5453   -8.1723   15.7738 N   0  0  0  0  0  0  0  0  0  0  0  0
  1  2  1  0
  2  3  1  0
  3  4  2  0
  4  5  1  0
  5  6  1  0
  6  7  1  6
  6  8  1  0
  9  8  1  6
  9 10  1  0
 10 11  1  0
 11 12  1  0
 12 13  1  0
 13 14  2  0
 14 15  1  0
 15 16  2  0
 16 17  1  0
 17 18  2  0
 18 19  1  0
 12 20  1  0
  5 21  2  0
 21 22  1  0
 21 23  1  0
 23 24  2  0
 24 25  1  0
 25 26  2  0
 26  2  1  0
 25  4  1  0
 20  9  1  0
 18 13  1  0
M  END
>  <energy_score>  (4553) 
-59.025128

>  <inchikey>  (4553) 
KXHFCMGWBBJIKW-UHFFFAOYSA-N

>  <smiles>  (4553) 
Cn1cc2c(C(O)NC3CCN(c4ncccc4Cl)C3)c(Br)ccc2n1

>  <ref_pdb>  (4553) 
A3181a

>  <alias>  (4553) 
KXHFCMGWBBJIKW-UHFFFAOYSA-N-P12-P12-P103-601509

>  <HIPPO Pose ID>  (4553) 
516086

>  <name>  (4553) 
KXHFCMGWBBJIKW-UHFFFAOYSA-N-P12-P12-P103-601509

>  <HIPPO Compound ID>  (4553) 
293429

>  <ref_mols>  (4553) 
A0497a,A1105b

>  <distance_score>  (4553) 
1.164965

>  <inspiration_score>  (4553) 
None

$$$$
KXHFCMGWBBJIKW-UHFFFAOYSA-N-P103-P12-P103-601509
     RDKit          3D

 26 29  0  0  0  0  0  0  0  0999 V2000
   15.5337   -7.5630   17.9430 C   0  0  0  0  0  0  0  0  0  0  0  0
   16.7576   -7.5878   17.1760 N   0  0  0  0  0  0  0  0  0  0  0  0
   17.9291   -6.9688   17.5108 C   0  0  0  0  0  0  0  0  0  0  0  0
   18.7813   -7.2151   16.4635 C   0  0  0  0  0  0  0  0  0  0  0  0
   20.1136   -6.7723   16.3320 C   0  0  0  0  0  0  0  0  0  0  0  0
   20.8772   -5.9865   17.3623 C   0  0  2  0  0  0  0  0  0  0  0  0
   21.4996   -4.8634   16.7715 O   0  0  0  0  0  0  0  0  0  0  0  0
   21.8851   -6.8187   18.0018 N   0  0  0  0  0  0  0  0  0  0  0  0
   22.2114   -6.4716   19.3915 C   0  0  1  0  0  0  0  0  0  0  0  0
   22.9290   -5.1354   19.5930 C   0  0  0  0  0  0  0  0  0  0  0  0
   22.4529   -4.6627   20.9616 C   0  0  0  0  0  0  0  0  0  0  0  0
   21.0846   -5.1847   21.1269 N   0  0  0  0  0  0  0  0  0  0  0  0
   20.0829   -4.3356   20.5946 C   0  0  0  0  0  0  0  0  0  0  0  0
   20.4183   -3.4899   19.5917 N   0  0  0  0  0  0  0  0  0  0  0  0
   19.4509   -2.7984   18.9571 C   0  0  0  0  0  0  0  0  0  0  0  0
   18.1273   -2.8515   19.3193 C   0  0  0  0  0  0  0  0  0  0  0  0
   17.7913   -3.6392   20.4071 C   0  0  0  0  0  0  0  0  0  0  0  0
   18.7582   -4.4162   21.0394 C   0  0  0  0  0  0  0  0  0  0  0  0
   18.2849   -5.4174   22.3655 Cl  0  0  0  0  0  0  0  0  0  0  0  0
   21.0485   -6.4872   20.4229 C   0  0  0  0  0  0  0  0  0  0  0  0
   20.6436   -7.2260   15.0855 C   0  0  0  0  0  0  0  0  0  0  0  0
   22.4535   -6.8520   14.5715 Br  0  0  0  0  0  0  0  0  0  0  0  0
   19.9171   -8.0055   14.1253 C   0  0  0  0  0  0  0  0  0  0  0  0
   18.5900   -8.4338   14.3106 C   0  0  0  0  0  0  0  0  0  0  0  0
   18.0288   -8.0157   15.5235 C   0  0  0  0  0  0  0  0  0  0  0  0
   16.8022   -8.2622   16.0119 N   0  0  0  0  0  0  0  0  0  0  0  0
  1  2  1  0
  2  3  1  0
  3  4  2  0
  4  5  1  0
  5  6  1  0
  6  7  1  6
  6  8  1  0
  9  8  1  6
  9 10  1  0
 10 11  1  0
 11 12  1  0
 12 13  1  0
 13 14  2  0
 14 15  1  0
 15 16  2  0
 16 17  1  0
 17 18  2  0
 18 19  1  0
 12 20  1  0
  5 21  2  0
 21 22  1  0
 21 23  1  0
 23 24  2  0
 24 25  1  0
 25 26  2  0
 26  2  1  0
 25  4  1  0
 20  9  1  0
 18 13  1  0
M  END
>  <energy_score>  (4554) 
-60.534001

>  <inchikey>  (4554) 
KXHFCMGWBBJIKW-UHFFFAOYSA-N

>  <smiles>  (4554) 
Cn1cc2c(C(O)NC3CCN(c4ncccc4Cl)C3)c(Br)ccc2n1

>  <ref_pdb>  (4554) 
A3181a

>  <alias>  (4554) 
KXHFCMGWBBJIKW-UHFFFAOYSA-N-P103-P12-P103-601509

>  <HIPPO Pose ID>  (4554) 
516087

>  <name>  (4554) 
KXHFCMGWBBJIKW-UHFFFAOYSA-N-P103-P12-P103-601509

>  <HIPPO Compound ID>  (4554) 
293429

>  <ref_mols>  (4554) 
A0497a,A1105b

>  <distance_score>  (4554) 
1.205973

>  <inspiration_score>  (4554) 
None

$$$$
TURKHCRTUPZTLB-UHFFFAOYSA-N-P12-P12-P103-601509
     RDKit          3D

 26 29  0  0  0  0  0  0  0  0999 V2000
   19.3262   -9.5474   16.4848 C   0  0  0  0  0  0  0  0  0  0  0  0
   19.8859   -8.1602   16.5587 C   0  0  0  0  0  0  0  0  0  0  0  0
   20.1134   -7.4595   15.3892 C   0  0  0  0  0  0  0  0  0  0  0  0
   20.8079   -6.2674   15.4707 C   0  0  0  0  0  0  0  0  0  0  0  0
   21.1874   -5.7835   16.7167 C   0  0  0  0  0  0  0  0  0  0  0  0
   20.8219   -6.4669   17.8749 C   0  0  0  0  0  0  0  0  0  0  0  0
   21.0049   -5.9050   19.1427 N   0  0  0  0  0  0  0  0  0  0  0  0
   20.9217   -4.4355   19.2760 C   0  0  0  0  0  0  0  0  0  0  0  0
   20.1863   -4.1812   20.5907 C   0  0  0  0  0  0  0  0  0  0  0  0
   19.3302   -5.4300   20.8048 C   0  0  1  0  0  0  0  0  0  0  0  0
   17.9388   -5.3900   20.3053 N   0  0  0  0  0  0  0  0  0  0  0  0
   17.7684   -5.1795   18.8737 C   0  0  2  0  0  0  0  0  0  0  0  0
   18.0072   -3.8067   18.6963 O   0  0  0  0  0  0  0  0  0  0  0  0
   16.4128   -5.6385   18.3474 C   0  0  0  0  0  0  0  0  0  0  0  0
   15.2629   -4.8257   18.0735 C   0  0  0  0  0  0  0  0  0  0  0  0
   15.3233   -2.9799   18.4173 Br  0  0  0  0  0  0  0  0  0  0  0  0
   14.0273   -5.2556   17.4762 C   0  0  0  0  0  0  0  0  0  0  0  0
   13.7700   -6.5856   17.1263 C   0  0  0  0  0  0  0  0  0  0  0  0
   14.8135   -7.4486   17.4683 C   0  0  0  0  0  0  0  0  0  0  0  0
   14.8690   -8.7851   17.3431 N   0  0  0  0  0  0  0  0  0  0  0  0
   16.0247   -9.1286   17.9366 N   0  0  0  0  0  0  0  0  0  0  0  0
   16.3156  -10.5279   18.1352 C   0  0  0  0  0  0  0  0  0  0  0  0
   16.7939   -8.0739   18.3254 C   0  0  0  0  0  0  0  0  0  0  0  0
   16.0511   -6.9606   18.0442 C   0  0  0  0  0  0  0  0  0  0  0  0
   20.2482   -6.5378   20.2387 C   0  0  0  0  0  0  0  0  0  0  0  0
   20.2364   -7.6848   17.7768 N   0  0  0  0  0  0  0  0  0  0  0  0
  1  2  1  0
  2  3  2  0
  3  4  1  0
  4  5  2  0
  5  6  1  0
  6  7  1  0
  7  8  1  0
  8  9  1  0
  9 10  1  0
 10 11  1  6
 11 12  1  0
 12 13  1  1
 12 14  1  0
 14 15  2  0
 15 16  1  0
 15 17  1  0
 17 18  2  0
 18 19  1  0
 19 20  2  0
 20 21  1  0
 21 22  1  0
 21 23  1  0
 23 24  2  0
 10 25  1  0
  6 26  2  0
 26  2  1  0
 25  7  1  0
 24 14  1  0
 24 19  1  0
M  END
>  <energy_score>  (4555) 
-36.393521

>  <inchikey>  (4555) 
TURKHCRTUPZTLB-UHFFFAOYSA-N

>  <smiles>  (4555) 
Cc1cccc(N2CCC(NC(O)c3c(Br)ccc4nn(C)cc34)C2)n1

>  <ref_pdb>  (4555) 
A3181a

>  <alias>  (4555) 
TURKHCRTUPZTLB-UHFFFAOYSA-N-P12-P12-P103-601509

>  <HIPPO Pose ID>  (4555) 
516088

>  <name>  (4555) 
TURKHCRTUPZTLB-UHFFFAOYSA-N-P12-P12-P103-601509

>  <HIPPO Compound ID>  (4555) 
293430

>  <ref_mols>  (4555) 
A0497a,A1105b

>  <distance_score>  (4555) 
1.436355

>  <inspiration_score>  (4555) 
None

$$$$
TURKHCRTUPZTLB-UHFFFAOYSA-N-P103-P12-P103-601509
     RDKit          3D

 26 29  0  0  0  0  0  0  0  0999 V2000
   21.0709   -5.6838   14.3859 C   0  0  0  0  0  0  0  0  0  0  0  0
   20.8079   -6.3471   15.7019 C   0  0  0  0  0  0  0  0  0  0  0  0
   20.5435   -7.7027   15.7420 C   0  0  0  0  0  0  0  0  0  0  0  0
   20.6150   -8.3276   16.9672 C   0  0  0  0  0  0  0  0  0  0  0  0
   20.8738   -7.5670   18.1024 C   0  0  0  0  0  0  0  0  0  0  0  0
   20.9951   -6.1832   18.0199 C   0  0  0  0  0  0  0  0  0  0  0  0
   21.0213   -5.3876   19.1705 N   0  0  0  0  0  0  0  0  0  0  0  0
   20.9243   -3.9284   18.9310 C   0  0  0  0  0  0  0  0  0  0  0  0
   20.0305   -3.3882   20.0440 C   0  0  0  0  0  0  0  0  0  0  0  0
   19.1495   -4.5667   20.4397 C   0  0  1  0  0  0  0  0  0  0  0  0
   17.8431   -4.6683   19.7746 N   0  0  0  0  0  0  0  0  0  0  0  0
   17.8253   -4.9418   18.3439 C   0  0  2  0  0  0  0  0  0  0  0  0
   18.1178   -3.7396   17.6659 O   0  0  0  0  0  0  0  0  0  0  0  0
   16.4916   -5.5044   17.9123 C   0  0  0  0  0  0  0  0  0  0  0  0
   15.2924   -4.7562   17.7783 C   0  0  0  0  0  0  0  0  0  0  0  0
   15.2808   -2.9690   18.3412 Br  0  0  0  0  0  0  0  0  0  0  0  0
   14.0293   -5.2525   17.3220 C   0  0  0  0  0  0  0  0  0  0  0  0
   13.8115   -6.5986   16.9959 C   0  0  0  0  0  0  0  0  0  0  0  0
   14.9359   -7.4041   17.1923 C   0  0  0  0  0  0  0  0  0  0  0  0
   15.0675   -8.7284   17.0049 N   0  0  0  0  0  0  0  0  0  0  0  0
   16.3257   -8.9987   17.3919 N   0  0  0  0  0  0  0  0  0  0  0  0
   16.7875  -10.3651   17.3666 C   0  0  0  0  0  0  0  0  0  0  0  0
   17.0446   -7.9066   17.7733 C   0  0  0  0  0  0  0  0  0  0  0  0
   16.1942   -6.8450   17.6325 C   0  0  0  0  0  0  0  0  0  0  0  0
   20.1037   -5.7634   20.2600 C   0  0  0  0  0  0  0  0  0  0  0  0
   21.0330   -5.6021   16.8090 N   0  0  0  0  0  0  0  0  0  0  0  0
  1  2  1  0
  2  3  2  0
  3  4  1  0
  4  5  2  0
  5  6  1  0
  6  7  1  0
  7  8  1  0
  8  9  1  0
  9 10  1  0
 10 11  1  6
 11 12  1  0
 12 13  1  6
 12 14  1  0
 14 15  2  0
 15 16  1  0
 15 17  1  0
 17 18  2  0
 18 19  1  0
 19 20  2  0
 20 21  1  0
 21 22  1  0
 21 23  1  0
 23 24  2  0
 10 25  1  0
  6 26  2  0
 26  2  1  0
 25  7  1  0
 24 14  1  0
 24 19  1  0
M  END
>  <energy_score>  (4556) 
-40.409961

>  <inchikey>  (4556) 
TURKHCRTUPZTLB-UHFFFAOYSA-N

>  <smiles>  (4556) 
Cc1cccc(N2CCC(NC(O)c3c(Br)ccc4nn(C)cc34)C2)n1

>  <ref_pdb>  (4556) 
A3181a

>  <alias>  (4556) 
TURKHCRTUPZTLB-UHFFFAOYSA-N-P103-P12-P103-601509

>  <HIPPO Pose ID>  (4556) 
516089

>  <name>  (4556) 
TURKHCRTUPZTLB-UHFFFAOYSA-N-P103-P12-P103-601509

>  <HIPPO Compound ID>  (4556) 
293430

>  <ref_mols>  (4556) 
A0497a,A1105b

>  <distance_score>  (4556) 
1.639395

>  <inspiration_score>  (4556) 
None

$$$$
UWUYRHHVQIKSGI-UHFFFAOYSA-N-P12-P12-P103-601509
     RDKit          3D

 26 30  0  0  0  0  0  0  0  0999 V2000
   16.1029   -7.5451   18.2057 C   0  0  0  0  0  0  0  0  0  0  0  0
   17.2086   -7.6111   17.2818 N   0  0  0  0  0  0  0  0  0  0  0  0
   18.5251   -7.3829   17.5683 C   0  0  0  0  0  0  0  0  0  0  0  0
   19.1826   -7.5432   16.3766 C   0  0  0  0  0  0  0  0  0  0  0  0
   20.5600   -7.4049   16.1382 C   0  0  0  0  0  0  0  0  0  0  0  0
   21.6788   -7.0635   17.0998 C   0  0  0  0  0  0  0  0  0  0  0  0
   22.4287   -5.8825   16.6435 N   0  0  0  0  0  0  0  0  0  0  0  0
   21.5257   -4.7027   16.6036 C   0  0  0  0  0  0  0  0  0  0  0  0
   22.2453   -3.6388   17.4447 C   0  0  2  0  0  0  0  0  0  0  0  0
   23.6926   -3.9780   17.0721 C   0  0  0  0  0  0  0  0  0  0  0  0
   23.5418   -5.4309   17.5327 C   0  0  1  0  0  0  0  0  0  0  0  0
   23.1342   -5.1694   19.0118 C   0  0  0  0  0  0  0  0  0  0  0  0
   22.1987   -4.0195   18.8777 N   0  0  0  0  0  0  0  0  0  0  0  0
   21.0393   -4.1159   19.6182 C   0  0  0  0  0  0  0  0  0  0  0  0
   19.8449   -3.4595   19.3236 C   0  0  0  0  0  0  0  0  0  0  0  0
   18.7204   -3.6353   20.1433 C   0  0  0  0  0  0  0  0  0  0  0  0
   18.8511   -4.4150   21.2790 C   0  0  0  0  0  0  0  0  0  0  0  0
   17.5434   -4.5840   22.5983 Br  0  0  0  0  0  0  0  0  0  0  0  0
   20.0581   -5.0194   21.5221 C   0  0  0  0  0  0  0  0  0  0  0  0
   21.1247   -4.8841   20.7239 N   0  0  0  0  0  0  0  0  0  0  0  0
   20.8326   -7.5829   14.7537 C   0  0  0  0  0  0  0  0  0  0  0  0
   19.8471   -7.8734   13.7654 C   0  0  0  0  0  0  0  0  0  0  0  0
   20.4139   -8.0520   11.9600 Br  0  0  0  0  0  0  0  0  0  0  0  0
   18.4802   -8.0365   14.0436 C   0  0  0  0  0  0  0  0  0  0  0  0
   18.1631   -7.8545   15.3965 C   0  0  0  0  0  0  0  0  0  0  0  0
   16.9641   -7.9296   15.9965 N   0  0  0  0  0  0  0  0  0  0  0  0
  1  2  1  0
  2  3  1  0
  3  4  2  0
  4  5  1  0
  5  6  1  0
  6  7  1  0
  7  8  1  0
  9  8  1  6
  9 10  1  0
 10 11  1  0
 11 12  1  1
 12 13  1  0
 13 14  1  0
 14 15  2  0
 15 16  1  0
 16 17  2  0
 17 18  1  0
 17 19  1  0
 19 20  2  0
  5 21  2  0
 21 22  1  0
 22 23  1  0
 22 24  2  0
 24 25  1  0
 25 26  2  0
 26  2  1  0
 25  4  1  0
 11  7  1  0
 20 14  1  0
 13  9  1  0
M  END
>  <energy_score>  (4557) 
-44.806366

>  <inchikey>  (4557) 
UWUYRHHVQIKSGI-UHFFFAOYSA-N

>  <smiles>  (4557) 
Cn1cc2c(CN3CC4CC3CN4c3ccc(Br)cn3)cc(Br)cc2n1

>  <ref_pdb>  (4557) 
A3181a

>  <alias>  (4557) 
UWUYRHHVQIKSGI-UHFFFAOYSA-N-P12-P12-P103-601509

>  <HIPPO Pose ID>  (4557) 
516090

>  <name>  (4557) 
UWUYRHHVQIKSGI-UHFFFAOYSA-N-P12-P12-P103-601509

>  <HIPPO Compound ID>  (4557) 
293431

>  <ref_mols>  (4557) 
A0497a,A1105b

>  <distance_score>  (4557) 
1.643671

>  <inspiration_score>  (4557) 
None

$$$$
UWUYRHHVQIKSGI-UHFFFAOYSA-N-P103-P12-P103-601509
     RDKit          3D

 26 30  0  0  0  0  0  0  0  0999 V2000
   16.0437   -7.5515   18.2266 C   0  0  0  0  0  0  0  0  0  0  0  0
   17.1724   -7.6058   17.3289 N   0  0  0  0  0  0  0  0  0  0  0  0
   18.4277   -7.1213   17.5722 C   0  0  0  0  0  0  0  0  0  0  0  0
   19.1327   -7.3647   16.4225 C   0  0  0  0  0  0  0  0  0  0  0  0
   20.4714   -7.0338   16.1576 C   0  0  0  0  0  0  0  0  0  0  0  0
   21.4916   -6.3517   17.0384 C   0  0  0  0  0  0  0  0  0  0  0  0
   22.0241   -5.1460   16.3904 N   0  0  0  0  0  0  0  0  0  0  0  0
   20.9577   -4.1084   16.2895 C   0  0  0  0  0  0  0  0  0  0  0  0
   21.5389   -2.9021   17.0353 C   0  0  2  0  0  0  0  0  0  0  0  0
   22.9969   -3.0236   16.5730 C   0  0  0  0  0  0  0  0  0  0  0  0
   23.1242   -4.4444   17.1243 C   0  0  1  0  0  0  0  0  0  0  0  0
   22.8088   -4.1379   18.6093 C   0  0  0  0  0  0  0  0  0  0  0  0
   21.6646   -3.1951   18.4854 N   0  0  0  0  0  0  0  0  0  0  0  0
   20.6347   -3.4614   19.3519 C   0  0  0  0  0  0  0  0  0  0  0  0
   19.2795   -3.2678   19.0875 C   0  0  0  0  0  0  0  0  0  0  0  0
   18.3256   -3.6461   20.0466 C   0  0  0  0  0  0  0  0  0  0  0  0
   18.7679   -4.1717   21.2532 C   0  0  0  0  0  0  0  0  0  0  0  0
   17.6809   -4.6554   22.6932 Br  0  0  0  0  0  0  0  0  0  0  0  0
   20.1176   -4.3006   21.4558 C   0  0  0  0  0  0  0  0  0  0  0  0
   21.0312   -3.9542   20.5455 N   0  0  0  0  0  0  0  0  0  0  0  0
   20.8086   -7.4011   14.8257 C   0  0  0  0  0  0  0  0  0  0  0  0
   19.9149   -8.0264   13.9081 C   0  0  0  0  0  0  0  0  0  0  0  0
   20.5532   -8.4167   12.1607 Br  0  0  0  0  0  0  0  0  0  0  0  0
   18.5888   -8.3721   14.2156 C   0  0  0  0  0  0  0  0  0  0  0  0
   18.2079   -8.0125   15.5156 C   0  0  0  0  0  0  0  0  0  0  0  0
   17.0240   -8.1900   16.1249 N   0  0  0  0  0  0  0  0  0  0  0  0
  1  2  1  0
  2  3  1  0
  3  4  2  0
  4  5  1  0
  5  6  1  0
  6  7  1  0
  7  8  1  0
  9  8  1  6
  9 10  1  0
 10 11  1  0
 11 12  1  1
 12 13  1  0
 13 14  1  0
 14 15  2  0
 15 16  1  0
 16 17  2  0
 17 18  1  0
 17 19  1  0
 19 20  2  0
  5 21  2  0
 21 22  1  0
 22 23  1  0
 22 24  2  0
 24 25  1  0
 25 26  2  0
 26  2  1  0
 25  4  1  0
 11  7  1  0
 20 14  1  0
 13  9  1  0
M  END
>  <energy_score>  (4558) 
-42.389629

>  <inchikey>  (4558) 
UWUYRHHVQIKSGI-UHFFFAOYSA-N

>  <smiles>  (4558) 
Cn1cc2c(CN3CC4CC3CN4c3ccc(Br)cn3)cc(Br)cc2n1

>  <ref_pdb>  (4558) 
A3181a

>  <alias>  (4558) 
UWUYRHHVQIKSGI-UHFFFAOYSA-N-P103-P12-P103-601509

>  <HIPPO Pose ID>  (4558) 
516091

>  <name>  (4558) 
UWUYRHHVQIKSGI-UHFFFAOYSA-N-P103-P12-P103-601509

>  <HIPPO Compound ID>  (4558) 
293431

>  <ref_mols>  (4558) 
A0497a,A1105b

>  <distance_score>  (4558) 
1.342804

>  <inspiration_score>  (4558) 
None

$$$$
DZPUMAFRPFGSDQ-UHFFFAOYSA-N-P12-P12-P103-601509
     RDKit          3D

 26 29  0  0  0  0  0  0  0  0999 V2000
   13.1298   -4.0642   17.1467 C   0  0  0  0  0  0  0  0  0  0  0  0
   14.4003   -4.1342   17.7642 N   0  0  0  0  0  0  0  0  0  0  0  0
   15.0139   -3.0036   18.1209 N   0  0  0  0  0  0  0  0  0  0  0  0
   16.1893   -3.4094   18.5557 C   0  0  0  0  0  0  0  0  0  0  0  0
   16.2994   -4.8138   18.4787 C   0  0  0  0  0  0  0  0  0  0  0  0
   17.2995   -5.7146   18.8446 C   0  0  0  0  0  0  0  0  0  0  0  0
   18.5786   -5.1423   19.3680 C   0  0  1  0  0  0  0  0  0  0  0  0
   18.2858   -4.0838   20.2515 O   0  0  0  0  0  0  0  0  0  0  0  0
   19.4045   -6.0496   20.1167 N   0  0  0  0  0  0  0  0  0  0  0  0
   20.8037   -5.5703   20.3098 C   0  0  2  0  0  0  0  0  0  0  0  0
   21.2601   -4.2363   19.6974 C   0  0  0  0  0  0  0  0  0  0  0  0
   21.5975   -4.5647   18.2323 C   0  0  0  0  0  0  0  0  0  0  0  0
   21.7902   -6.0371   18.1739 N   0  0  0  0  0  0  0  0  0  0  0  0
   20.9084   -6.7424   17.3245 C   0  0  0  0  0  0  0  0  0  0  0  0
   20.2561   -7.8092   17.8703 N   0  0  0  0  0  0  0  0  0  0  0  0
   19.3588   -8.4973   17.1265 C   0  0  0  0  0  0  0  0  0  0  0  0
   19.0069   -8.1634   15.8427 C   0  0  0  0  0  0  0  0  0  0  0  0
   19.6867   -7.1140   15.2571 C   0  0  0  0  0  0  0  0  0  0  0  0
   20.6667   -6.4201   15.9732 C   0  0  0  0  0  0  0  0  0  0  0  0
   21.5296   -5.2442   15.0581 Cl  0  0  0  0  0  0  0  0  0  0  0  0
   21.8161   -6.5066   19.5801 C   0  0  0  0  0  0  0  0  0  0  0  0
   16.9881   -7.0811   18.6802 C   0  0  0  0  0  0  0  0  0  0  0  0
   15.7903   -7.5147   18.0988 C   0  0  0  0  0  0  0  0  0  0  0  0
   15.4695   -9.3698   17.9035 Br  0  0  0  0  0  0  0  0  0  0  0  0
   14.8161   -6.6150   17.6942 C   0  0  0  0  0  0  0  0  0  0  0  0
   15.1071   -5.2726   17.9424 C   0  0  0  0  0  0  0  0  0  0  0  0
  1  2  1  0
  2  3  1  0
  3  4  2  0
  4  5  1  0
  5  6  2  0
  6  7  1  0
  7  8  1  1
  7  9  1  0
 10  9  1  6
 10 11  1  0
 11 12  1  0
 12 13  1  0
 13 14  1  0
 14 15  2  0
 15 16  1  0
 16 17  2  0
 17 18  1  0
 18 19  2  0
 19 20  1  0
 13 21  1  0
  6 22  1  0
 22 23  2  0
 23 24  1  0
 23 25  1  0
 25 26  2  0
 26  2  1  0
 26  5  1  0
 21 10  1  0
 19 14  1  0
M  END
>  <energy_score>  (4559) 
-20.614761

>  <inchikey>  (4559) 
DZPUMAFRPFGSDQ-UHFFFAOYSA-N

>  <smiles>  (4559) 
Cn1ncc2c(C(O)NC3CCN(c4ncccc4Cl)C3)cc(Br)cc21

>  <ref_pdb>  (4559) 
A3181a

>  <alias>  (4559) 
DZPUMAFRPFGSDQ-UHFFFAOYSA-N-P12-P12-P103-601509

>  <HIPPO Pose ID>  (4559) 
516092

>  <name>  (4559) 
DZPUMAFRPFGSDQ-UHFFFAOYSA-N-P12-P12-P103-601509

>  <HIPPO Compound ID>  (4559) 
293432

>  <ref_mols>  (4559) 
A0497a,A1105b

>  <distance_score>  (4559) 
1.891137

>  <inspiration_score>  (4559) 
None

$$$$
DZPUMAFRPFGSDQ-UHFFFAOYSA-N-P103-P12-P103-601509
     RDKit          3D

 26 29  0  0  0  0  0  0  0  0999 V2000
   13.1357   -4.1117   16.9976 C   0  0  0  0  0  0  0  0  0  0  0  0
   14.4676   -4.1927   17.4572 N   0  0  0  0  0  0  0  0  0  0  0  0
   15.1000   -3.0552   17.7409 N   0  0  0  0  0  0  0  0  0  0  0  0
   16.3012   -3.4609   18.0957 C   0  0  0  0  0  0  0  0  0  0  0  0
   16.3667   -4.8616   18.1428 C   0  0  0  0  0  0  0  0  0  0  0  0
   17.3146   -5.7329   18.6729 C   0  0  0  0  0  0  0  0  0  0  0  0
   18.5364   -5.0879   19.2353 C   0  0  1  0  0  0  0  0  0  0  0  0
   18.1562   -4.0559   20.1185 O   0  0  0  0  0  0  0  0  0  0  0  0
   19.4388   -5.9143   19.9810 N   0  0  0  0  0  0  0  0  0  0  0  0
   20.8099   -5.3286   20.0895 C   0  0  2  0  0  0  0  0  0  0  0  0
   21.1402   -4.0003   19.3817 C   0  0  0  0  0  0  0  0  0  0  0  0
   21.4160   -4.3862   17.9123 C   0  0  0  0  0  0  0  0  0  0  0  0
   21.7206   -5.8436   17.9335 N   0  0  0  0  0  0  0  0  0  0  0  0
   20.8479   -6.6652   17.1859 C   0  0  0  0  0  0  0  0  0  0  0  0
   20.2798   -7.7162   17.8466 N   0  0  0  0  0  0  0  0  0  0  0  0
   19.3917   -8.5103   17.2060 C   0  0  0  0  0  0  0  0  0  0  0  0
   18.9794   -8.3091   15.9137 C   0  0  0  0  0  0  0  0  0  0  0  0
   19.5781   -7.2792   15.2151 C   0  0  0  0  0  0  0  0  0  0  0  0
   20.5342   -6.4664   15.8286 C   0  0  0  0  0  0  0  0  0  0  0  0
   21.2814   -5.3125   14.7955 Cl  0  0  0  0  0  0  0  0  0  0  0  0
   21.8564   -6.2242   19.3608 C   0  0  0  0  0  0  0  0  0  0  0  0
   16.9763   -7.0970   18.6612 C   0  0  0  0  0  0  0  0  0  0  0  0
   15.7810   -7.5570   18.0904 C   0  0  0  0  0  0  0  0  0  0  0  0
   15.4144   -9.4150   18.0899 Br  0  0  0  0  0  0  0  0  0  0  0  0
   14.8327   -6.6819   17.5719 C   0  0  0  0  0  0  0  0  0  0  0  0
   15.1601   -5.3308   17.6726 C   0  0  0  0  0  0  0  0  0  0  0  0
  1  2  1  0
  2  3  1  0
  3  4  2  0
  4  5  1  0
  5  6  2  0
  6  7  1  0
  7  8  1  1
  7  9  1  0
 10  9  1  6
 10 11  1  0
 11 12  1  0
 12 13  1  0
 13 14  1  0
 14 15  2  0
 15 16  1  0
 16 17  2  0
 17 18  1  0
 18 19  2  0
 19 20  1  0
 13 21  1  0
  6 22  1  0
 22 23  2  0
 23 24  1  0
 23 25  1  0
 25 26  2  0
 26  2  1  0
 26  5  1  0
 21 10  1  0
 19 14  1  0
M  END
>  <energy_score>  (4560) 
-16.936306

>  <inchikey>  (4560) 
DZPUMAFRPFGSDQ-UHFFFAOYSA-N

>  <smiles>  (4560) 
Cn1ncc2c(C(O)NC3CCN(c4ncccc4Cl)C3)cc(Br)cc21

>  <ref_pdb>  (4560) 
A3181a

>  <alias>  (4560) 
DZPUMAFRPFGSDQ-UHFFFAOYSA-N-P103-P12-P103-601509

>  <HIPPO Pose ID>  (4560) 
516093

>  <name>  (4560) 
DZPUMAFRPFGSDQ-UHFFFAOYSA-N-P103-P12-P103-601509

>  <HIPPO Compound ID>  (4560) 
293432

>  <ref_mols>  (4560) 
A0497a,A1105b

>  <distance_score>  (4560) 
1.859549

>  <inspiration_score>  (4560) 
None

$$$$
XWQOIWUKYFRPTL-UHFFFAOYSA-N-P12-P12-P103-601509
     RDKit          3D

 26 29  0  0  0  0  0  0  0  0999 V2000
   16.2171   -7.4359   18.3128 C   0  0  0  0  0  0  0  0  0  0  0  0
   17.2674   -7.4828   17.3274 N   0  0  0  0  0  0  0  0  0  0  0  0
   18.5709   -7.1203   17.5110 C   0  0  0  0  0  0  0  0  0  0  0  0
   19.1760   -7.2999   16.2942 C   0  0  0  0  0  0  0  0  0  0  0  0
   20.5180   -7.0593   15.9441 C   0  0  0  0  0  0  0  0  0  0  0  0
   21.7411   -6.6262   16.7195 C   0  0  2  0  0  0  0  0  0  0  0  0
   22.7610   -7.5734   16.4564 O   0  0  0  0  0  0  0  0  0  0  0  0
   21.5734   -6.5317   18.1404 N   0  0  0  0  0  0  0  0  0  0  0  0
   22.7030   -6.0119   18.9296 C   0  0  1  0  0  0  0  0  0  0  0  0
   23.3966   -4.7606   18.3831 C   0  0  0  0  0  0  0  0  0  0  0  0
   22.3540   -3.6746   18.6276 C   0  0  0  0  0  0  0  0  0  0  0  0
   21.7218   -4.0597   19.8992 N   0  0  0  0  0  0  0  0  0  0  0  0
   20.3435   -3.8391   20.0294 C   0  0  0  0  0  0  0  0  0  0  0  0
   19.6942   -4.5487   20.9896 N   0  0  0  0  0  0  0  0  0  0  0  0
   18.3671   -4.3799   21.1372 C   0  0  0  0  0  0  0  0  0  0  0  0
   17.6145   -3.5388   20.3494 C   0  0  0  0  0  0  0  0  0  0  0  0
   18.2622   -2.7817   19.3961 C   0  0  0  0  0  0  0  0  0  0  0  0
   19.6363   -2.9012   19.2643 C   0  0  0  0  0  0  0  0  0  0  0  0
   20.2638   -2.0783   18.4082 F   0  0  0  0  0  0  0  0  0  0  0  0
   22.1628   -5.4266   20.2600 C   0  0  0  0  0  0  0  0  0  0  0  0
   20.6776   -7.2789   14.5412 C   0  0  0  0  0  0  0  0  0  0  0  0
   19.6610   -7.7196   13.6550 C   0  0  0  0  0  0  0  0  0  0  0  0
   19.9844   -7.8833   12.3623 F   0  0  0  0  0  0  0  0  0  0  0  0
   18.3511   -8.0002   14.0453 C   0  0  0  0  0  0  0  0  0  0  0  0
   18.1213   -7.7654   15.4053 C   0  0  0  0  0  0  0  0  0  0  0  0
   16.9764   -7.9183   16.0891 N   0  0  0  0  0  0  0  0  0  0  0  0
  1  2  1  0
  2  3  1  0
  3  4  2  0
  4  5  1  0
  5  6  1  0
  6  7  1  1
  6  8  1  0
  9  8  1  6
  9 10  1  0
 10 11  1  0
 11 12  1  0
 12 13  1  0
 13 14  2  0
 14 15  1  0
 15 16  2  0
 16 17  1  0
 17 18  2  0
 18 19  1  0
 12 20  1  0
  5 21  2  0
 21 22  1  0
 22 23  1  0
 22 24  2  0
 24 25  1  0
 25 26  2  0
 26  2  1  0
 25  4  1  0
 20  9  1  0
 18 13  1  0
M  END
>  <energy_score>  (4561) 
-49.661255

>  <inchikey>  (4561) 
XWQOIWUKYFRPTL-UHFFFAOYSA-N

>  <smiles>  (4561) 
Cn1cc2c(C(O)NC3CCN(c4ncccc4F)C3)cc(F)cc2n1

>  <ref_pdb>  (4561) 
A3181a

>  <alias>  (4561) 
XWQOIWUKYFRPTL-UHFFFAOYSA-N-P12-P12-P103-601509

>  <HIPPO Pose ID>  (4561) 
516094

>  <name>  (4561) 
XWQOIWUKYFRPTL-UHFFFAOYSA-N-P12-P12-P103-601509

>  <HIPPO Compound ID>  (4561) 
293433

>  <ref_mols>  (4561) 
A0497a,A1105b

>  <distance_score>  (4561) 
1.452034

>  <inspiration_score>  (4561) 
None

$$$$
XWQOIWUKYFRPTL-UHFFFAOYSA-N-P103-P12-P103-601509
     RDKit          3D

 26 29  0  0  0  0  0  0  0  0999 V2000
   16.0605   -6.6446   17.7507 C   0  0  0  0  0  0  0  0  0  0  0  0
   17.2220   -7.0597   17.0013 N   0  0  0  0  0  0  0  0  0  0  0  0
   18.3540   -6.3269   16.7786 C   0  0  0  0  0  0  0  0  0  0  0  0
   19.1182   -7.0771   15.9235 C   0  0  0  0  0  0  0  0  0  0  0  0
   20.3417   -6.7285   15.3123 C   0  0  0  0  0  0  0  0  0  0  0  0
   21.1138   -5.4338   15.3402 C   0  0  2  0  0  0  0  0  0  0  0  0
   21.8727   -5.2933   14.1511 O   0  0  0  0  0  0  0  0  0  0  0  0
   22.0281   -5.3241   16.4660 N   0  0  0  0  0  0  0  0  0  0  0  0
   21.5186   -4.3180   17.3915 C   0  0  2  0  0  0  0  0  0  0  0  0
   21.8578   -2.8785   16.9887 C   0  0  0  0  0  0  0  0  0  0  0  0
   21.7293   -2.0763   18.2915 C   0  0  0  0  0  0  0  0  0  0  0  0
   21.5416   -3.0640   19.3658 N   0  0  0  0  0  0  0  0  0  0  0  0
   20.2418   -3.2336   19.8780 C   0  0  0  0  0  0  0  0  0  0  0  0
   20.1975   -3.7985   21.1075 N   0  0  0  0  0  0  0  0  0  0  0  0
   18.9974   -4.0121   21.6771 C   0  0  0  0  0  0  0  0  0  0  0  0
   17.7981   -3.7213   21.0625 C   0  0  0  0  0  0  0  0  0  0  0  0
   17.8178   -3.1960   19.7810 C   0  0  0  0  0  0  0  0  0  0  0  0
   19.0472   -2.9383   19.1920 C   0  0  0  0  0  0  0  0  0  0  0  0
   19.0490   -2.4481   17.9445 F   0  0  0  0  0  0  0  0  0  0  0  0
   22.0212   -4.3586   18.8404 C   0  0  0  0  0  0  0  0  0  0  0  0
   20.7888   -7.8019   14.4977 C   0  0  0  0  0  0  0  0  0  0  0  0
   20.0739   -9.0065   14.2805 C   0  0  0  0  0  0  0  0  0  0  0  0
   20.6183   -9.9162   13.4566 F   0  0  0  0  0  0  0  0  0  0  0  0
   18.8378   -9.3064   14.8609 C   0  0  0  0  0  0  0  0  0  0  0  0
   18.3668   -8.3004   15.7100 C   0  0  0  0  0  0  0  0  0  0  0  0
   17.2229   -8.2699   16.4126 N   0  0  0  0  0  0  0  0  0  0  0  0
  1  2  1  0
  2  3  1  0
  3  4  2  0
  4  5  1  0
  5  6  1  0
  6  7  1  6
  6  8  1  0
  9  8  1  6
  9 10  1  0
 10 11  1  0
 11 12  1  0
 12 13  1  0
 13 14  2  0
 14 15  1  0
 15 16  2  0
 16 17  1  0
 17 18  2  0
 18 19  1  0
 12 20  1  0
  5 21  2  0
 21 22  1  0
 22 23  1  0
 22 24  2  0
 24 25  1  0
 25 26  2  0
 26  2  1  0
 25  4  1  0
 20  9  1  0
 18 13  1  0
M  END
>  <energy_score>  (4562) 
-44.158684

>  <inchikey>  (4562) 
XWQOIWUKYFRPTL-UHFFFAOYSA-N

>  <smiles>  (4562) 
Cn1cc2c(C(O)NC3CCN(c4ncccc4F)C3)cc(F)cc2n1

>  <ref_pdb>  (4562) 
A3181a

>  <alias>  (4562) 
XWQOIWUKYFRPTL-UHFFFAOYSA-N-P103-P12-P103-601509

>  <HIPPO Pose ID>  (4562) 
516095

>  <name>  (4562) 
XWQOIWUKYFRPTL-UHFFFAOYSA-N-P103-P12-P103-601509

>  <HIPPO Compound ID>  (4562) 
293433

>  <ref_mols>  (4562) 
A0497a,A1105b

>  <distance_score>  (4562) 
1.515221

>  <inspiration_score>  (4562) 
None

$$$$
KJALHRPIUROKDD-UHFFFAOYSA-N-P12-P12-P103-601509
     RDKit          3D

 26 29  0  0  0  0  0  0  0  0999 V2000
   18.0083   -8.8389   19.5372 C   0  0  0  0  0  0  0  0  0  0  0  0
   19.2386   -8.1423   19.0618 C   0  0  0  0  0  0  0  0  0  0  0  0
   19.9843   -8.5849   17.9814 C   0  0  0  0  0  0  0  0  0  0  0  0
   21.0354   -7.7939   17.5290 C   0  0  0  0  0  0  0  0  0  0  0  0
   21.3431   -6.6177   18.2048 C   0  0  0  0  0  0  0  0  0  0  0  0
   20.5973   -6.2573   19.3298 C   0  0  0  0  0  0  0  0  0  0  0  0
   20.9125   -5.0800   20.0567 N   0  0  0  0  0  0  0  0  0  0  0  0
   20.8637   -3.8673   19.1931 C   0  0  0  0  0  0  0  0  0  0  0  0
   19.8615   -2.9214   19.8631 C   0  0  0  0  0  0  0  0  0  0  0  0
   18.8978   -3.8774   20.5584 C   0  0  1  0  0  0  0  0  0  0  0  0
   18.0631   -4.5976   19.5976 N   0  0  0  0  0  0  0  0  0  0  0  0
   16.8889   -3.9501   19.1082 C   0  0  1  0  0  0  0  0  0  0  0  0
   17.2477   -2.8764   18.2945 O   0  0  0  0  0  0  0  0  0  0  0  0
   15.9526   -4.8818   18.3529 C   0  0  0  0  0  0  0  0  0  0  0  0
   14.6142   -4.4853   18.0723 C   0  0  0  0  0  0  0  0  0  0  0  0
   13.6445   -5.2884   17.3827 C   0  0  0  0  0  0  0  0  0  0  0  0
   13.8807   -6.5955   16.8934 C   0  0  0  0  0  0  0  0  0  0  0  0
   12.9148   -7.4188   16.1218 C   0  0  0  0  0  0  0  0  0  0  0  0
   15.2179   -6.9647   17.0501 C   0  0  0  0  0  0  0  0  0  0  0  0
   15.8445   -8.0098   16.4792 N   0  0  0  0  0  0  0  0  0  0  0  0
   17.1258   -7.6269   16.4697 N   0  0  0  0  0  0  0  0  0  0  0  0
   17.9970   -8.1772   15.4599 C   0  0  0  0  0  0  0  0  0  0  0  0
   17.3913   -6.5830   17.3038 C   0  0  0  0  0  0  0  0  0  0  0  0
   16.1734   -6.1322   17.7405 C   0  0  0  0  0  0  0  0  0  0  0  0
   19.9584   -4.8326   21.1706 C   0  0  0  0  0  0  0  0  0  0  0  0
   19.5579   -7.0270   19.7379 N   0  0  0  0  0  0  0  0  0  0  0  0
  1  2  1  0
  2  3  2  0
  3  4  1  0
  4  5  2  0
  5  6  1  0
  6  7  1  0
  7  8  1  0
  8  9  1  0
  9 10  1  0
 10 11  1  6
 11 12  1  0
 12 13  1  6
 12 14  1  0
 14 15  2  0
 15 16  1  0
 16 17  2  0
 17 18  1  0
 17 19  1  0
 19 20  2  0
 20 21  1  0
 21 22  1  0
 21 23  1  0
 23 24  2  0
 10 25  1  0
  6 26  2  0
 26  2  1  0
 25  7  1  0
 24 14  1  0
 24 19  1  0
M  END
>  <energy_score>  (4563) 
-34.674676

>  <inchikey>  (4563) 
KJALHRPIUROKDD-UHFFFAOYSA-N

>  <smiles>  (4563) 
Cc1cccc(N2CCC(NC(O)c3ccc(C)c4nn(C)cc34)C2)n1

>  <ref_pdb>  (4563) 
A3181a

>  <alias>  (4563) 
KJALHRPIUROKDD-UHFFFAOYSA-N-P12-P12-P103-601509

>  <HIPPO Pose ID>  (4563) 
516096

>  <name>  (4563) 
KJALHRPIUROKDD-UHFFFAOYSA-N-P12-P12-P103-601509

>  <HIPPO Compound ID>  (4563) 
293434

>  <ref_mols>  (4563) 
A0497a,A1105b

>  <distance_score>  (4563) 
1.860889

>  <inspiration_score>  (4563) 
None

$$$$
KJALHRPIUROKDD-UHFFFAOYSA-N-P103-P12-P103-601509
     RDKit          3D

 26 29  0  0  0  0  0  0  0  0999 V2000
   18.7515   -8.3996   17.1121 C   0  0  0  0  0  0  0  0  0  0  0  0
   19.5260   -7.1523   16.8841 C   0  0  0  0  0  0  0  0  0  0  0  0
   19.9569   -6.8542   15.6045 C   0  0  0  0  0  0  0  0  0  0  0  0
   20.8088   -5.7795   15.4378 C   0  0  0  0  0  0  0  0  0  0  0  0
   21.1689   -5.0214   16.5437 C   0  0  0  0  0  0  0  0  0  0  0  0
   20.6428   -5.3229   17.8008 C   0  0  0  0  0  0  0  0  0  0  0  0
   20.9374   -4.4758   18.8985 N   0  0  0  0  0  0  0  0  0  0  0  0
   20.4631   -3.0875   18.6520 C   0  0  0  0  0  0  0  0  0  0  0  0
   19.4841   -2.7689   19.7860 C   0  0  0  0  0  0  0  0  0  0  0  0
   19.0086   -4.1291   20.2852 C   0  0  1  0  0  0  0  0  0  0  0  0
   18.0023   -4.8707   19.5246 N   0  0  0  0  0  0  0  0  0  0  0  0
   17.0183   -4.1739   18.7334 C   0  0  1  0  0  0  0  0  0  0  0  0
   17.6436   -3.4448   17.7029 O   0  0  0  0  0  0  0  0  0  0  0  0
   16.0016   -5.1342   18.1269 C   0  0  0  0  0  0  0  0  0  0  0  0
   14.8439   -4.6178   17.4826 C   0  0  0  0  0  0  0  0  0  0  0  0
   13.8226   -5.4177   16.8732 C   0  0  0  0  0  0  0  0  0  0  0  0
   13.8549   -6.8321   16.7980 C   0  0  0  0  0  0  0  0  0  0  0  0
   12.9263   -7.7020   16.0283 C   0  0  0  0  0  0  0  0  0  0  0  0
   14.8827   -7.3716   17.5749 C   0  0  0  0  0  0  0  0  0  0  0  0
   15.0974   -8.6698   17.8615 N   0  0  0  0  0  0  0  0  0  0  0  0
   16.0390   -8.6368   18.8085 N   0  0  0  0  0  0  0  0  0  0  0  0
   16.3828   -9.8541   19.5011 C   0  0  0  0  0  0  0  0  0  0  0  0
   16.5967   -7.4078   18.9937 C   0  0  0  0  0  0  0  0  0  0  0  0
   15.8901   -6.5434   18.1929 C   0  0  0  0  0  0  0  0  0  0  0  0
   20.3551   -4.9025   20.1927 C   0  0  0  0  0  0  0  0  0  0  0  0
   19.8324   -6.3996   17.9654 N   0  0  0  0  0  0  0  0  0  0  0  0
  1  2  1  0
  2  3  2  0
  3  4  1  0
  4  5  2  0
  5  6  1  0
  6  7  1  0
  7  8  1  0
  8  9  1  0
  9 10  1  0
 10 11  1  6
 11 12  1  0
 12 13  1  6
 12 14  1  0
 14 15  2  0
 15 16  1  0
 16 17  2  0
 17 18  1  0
 17 19  1  0
 19 20  2  0
 20 21  1  0
 21 22  1  0
 21 23  1  0
 23 24  2  0
 10 25  1  0
  6 26  2  0
 26  2  1  0
 25  7  1  0
 24 14  1  0
 24 19  1  0
M  END
>  <energy_score>  (4564) 
-41.409445

>  <inchikey>  (4564) 
KJALHRPIUROKDD-UHFFFAOYSA-N

>  <smiles>  (4564) 
Cc1cccc(N2CCC(NC(O)c3ccc(C)c4nn(C)cc34)C2)n1

>  <ref_pdb>  (4564) 
A3181a

>  <alias>  (4564) 
KJALHRPIUROKDD-UHFFFAOYSA-N-P103-P12-P103-601509

>  <HIPPO Pose ID>  (4564) 
516097

>  <name>  (4564) 
KJALHRPIUROKDD-UHFFFAOYSA-N-P103-P12-P103-601509

>  <HIPPO Compound ID>  (4564) 
293434

>  <ref_mols>  (4564) 
A0497a,A1105b

>  <distance_score>  (4564) 
1.686585

>  <inspiration_score>  (4564) 
None

$$$$
ZPIXWYUIFFQNQU-UHFFFAOYSA-N-P12-P12-P103-601509
     RDKit          3D

 26 29  0  0  0  0  0  0  0  0999 V2000
   17.8392   -9.5859   13.2065 C   0  0  0  0  0  0  0  0  0  0  0  0
   18.5775   -8.7106   14.1640 C   0  0  0  0  0  0  0  0  0  0  0  0
   19.9348   -8.3597   13.9495 C   0  0  0  0  0  0  0  0  0  0  0  0
   20.6935   -7.5304   14.8263 C   0  0  0  0  0  0  0  0  0  0  0  0
   20.1821   -6.9406   16.0068 C   0  0  0  0  0  0  0  0  0  0  0  0
   20.9875   -6.0000   16.8481 C   0  0  2  0  0  0  0  0  0  0  0  0
   21.8603   -5.1999   16.0694 O   0  0  0  0  0  0  0  0  0  0  0  0
   21.7758   -6.6704   17.8845 N   0  0  0  0  0  0  0  0  0  0  0  0
   21.6028   -5.9004   19.1157 C   0  0  1  0  0  0  0  0  0  0  0  0
   22.3220   -6.3631   20.3759 C   0  0  0  0  0  0  0  0  0  0  0  0
   22.2048   -5.1344   21.3165 C   0  0  0  0  0  0  0  0  0  0  0  0
   21.7954   -3.9771   20.4678 N   0  0  0  0  0  0  0  0  0  0  0  0
   20.3946   -3.6705   20.5289 C   0  0  0  0  0  0  0  0  0  0  0  0
   19.5773   -4.5331   21.1794 N   0  0  0  0  0  0  0  0  0  0  0  0
   18.2468   -4.3883   21.0425 C   0  0  0  0  0  0  0  0  0  0  0  0
   17.6569   -3.4391   20.2361 C   0  0  0  0  0  0  0  0  0  0  0  0
   18.4769   -2.5088   19.6222 C   0  0  0  0  0  0  0  0  0  0  0  0
   19.8546   -2.5879   19.8083 C   0  0  0  0  0  0  0  0  0  0  0  0
   20.8557   -1.3154   19.1986 Cl  0  0  0  0  0  0  0  0  0  0  0  0
   22.0675   -4.4259   19.0800 C   0  0  0  0  0  0  0  0  0  0  0  0
   18.8488   -7.3300   16.2139 C   0  0  0  0  0  0  0  0  0  0  0  0
   18.0411   -6.9639   17.2603 C   0  0  0  0  0  0  0  0  0  0  0  0
   16.8314   -7.5354   16.9892 N   0  0  0  0  0  0  0  0  0  0  0  0
   15.6193   -7.3711   17.7569 C   0  0  0  0  0  0  0  0  0  0  0  0
   16.8122   -8.2888   15.8738 N   0  0  0  0  0  0  0  0  0  0  0  0
   18.0463   -8.1664   15.3523 C   0  0  0  0  0  0  0  0  0  0  0  0
  1  2  1  0
  2  3  2  0
  3  4  1  0
  4  5  2  0
  5  6  1  0
  6  7  1  6
  6  8  1  0
  9  8  1  6
  9 10  1  0
 10 11  1  0
 11 12  1  0
 12 13  1  0
 13 14  2  0
 14 15  1  0
 15 16  2  0
 16 17  1  0
 17 18  2  0
 18 19  1  0
 12 20  1  0
  5 21  1  0
 21 22  2  0
 22 23  1  0
 23 24  1  0
 23 25  1  0
 25 26  2  0
 26  2  1  0
 20  9  1  0
 26 21  1  0
 18 13  1  0
M  END
>  <energy_score>  (4565) 
-32.127383

>  <inchikey>  (4565) 
ZPIXWYUIFFQNQU-UHFFFAOYSA-N

>  <smiles>  (4565) 
Cc1ccc(C(O)NC2CCN(c3ncccc3Cl)C2)c2cn(C)nc12

>  <ref_pdb>  (4565) 
A3181a

>  <alias>  (4565) 
ZPIXWYUIFFQNQU-UHFFFAOYSA-N-P12-P12-P103-601509

>  <HIPPO Pose ID>  (4565) 
516098

>  <name>  (4565) 
ZPIXWYUIFFQNQU-UHFFFAOYSA-N-P12-P12-P103-601509

>  <HIPPO Compound ID>  (4565) 
293435

>  <ref_mols>  (4565) 
A0497a,A1105b

>  <distance_score>  (4565) 
1.575596

>  <inspiration_score>  (4565) 
None

$$$$
ZPIXWYUIFFQNQU-UHFFFAOYSA-N-P103-P12-P103-601509
     RDKit          3D

 26 29  0  0  0  0  0  0  0  0999 V2000
   18.4095   -9.7899   13.4344 C   0  0  0  0  0  0  0  0  0  0  0  0
   18.8708   -8.7210   14.3676 C   0  0  0  0  0  0  0  0  0  0  0  0
   20.1248   -8.0783   14.1954 C   0  0  0  0  0  0  0  0  0  0  0  0
   20.6158   -7.0409   15.0444 C   0  0  0  0  0  0  0  0  0  0  0  0
   19.9181   -6.5331   16.1660 C   0  0  0  0  0  0  0  0  0  0  0  0
   20.3854   -5.3572   16.9545 C   0  0  2  0  0  0  0  0  0  0  0  0
   20.2083   -4.1990   16.1783 O   0  0  0  0  0  0  0  0  0  0  0  0
   21.7881   -5.3683   17.3679 N   0  0  0  0  0  0  0  0  0  0  0  0
   21.8426   -4.5960   18.6120 C   0  0  1  0  0  0  0  0  0  0  0  0
   23.1679   -4.4236   19.3350 C   0  0  0  0  0  0  0  0  0  0  0  0
   22.8098   -3.3747   20.4204 C   0  0  0  0  0  0  0  0  0  0  0  0
   21.5919   -2.6521   19.9449 N   0  0  0  0  0  0  0  0  0  0  0  0
   20.3751   -3.0268   20.6050 C   0  0  0  0  0  0  0  0  0  0  0  0
   20.3506   -4.1842   21.3107 N   0  0  0  0  0  0  0  0  0  0  0  0
   19.1711   -4.6468   21.7654 C   0  0  0  0  0  0  0  0  0  0  0  0
   17.9694   -4.0181   21.5344 C   0  0  0  0  0  0  0  0  0  0  0  0
   17.9749   -2.8358   20.8135 C   0  0  0  0  0  0  0  0  0  0  0  0
   19.1877   -2.3015   20.3929 C   0  0  0  0  0  0  0  0  0  0  0  0
   19.1772   -0.7043   19.7475 Cl  0  0  0  0  0  0  0  0  0  0  0  0
   21.4049   -3.1054   18.5465 C   0  0  0  0  0  0  0  0  0  0  0  0
   18.6817   -7.1841   16.3116 C   0  0  0  0  0  0  0  0  0  0  0  0
   17.7208   -6.9073   17.2509 C   0  0  0  0  0  0  0  0  0  0  0  0
   16.6859   -7.7455   16.9570 N   0  0  0  0  0  0  0  0  0  0  0  0
   15.4086   -7.7922   17.6299 C   0  0  0  0  0  0  0  0  0  0  0  0
   16.9217   -8.5761   15.9224 N   0  0  0  0  0  0  0  0  0  0  0  0
   18.1431   -8.2280   15.4722 C   0  0  0  0  0  0  0  0  0  0  0  0
  1  2  1  0
  2  3  2  0
  3  4  1  0
  4  5  2  0
  5  6  1  0
  6  7  1  6
  6  8  1  0
  9  8  1  6
  9 10  1  0
 10 11  1  0
 11 12  1  0
 12 13  1  0
 13 14  2  0
 14 15  1  0
 15 16  2  0
 16 17  1  0
 17 18  2  0
 18 19  1  0
 12 20  1  0
  5 21  1  0
 21 22  2  0
 22 23  1  0
 23 24  1  0
 23 25  1  0
 25 26  2  0
 26  2  1  0
 20  9  1  0
 26 21  1  0
 18 13  1  0
M  END
>  <energy_score>  (4566) 
-32.30939

>  <inchikey>  (4566) 
ZPIXWYUIFFQNQU-UHFFFAOYSA-N

>  <smiles>  (4566) 
Cc1ccc(C(O)NC2CCN(c3ncccc3Cl)C2)c2cn(C)nc12

>  <ref_pdb>  (4566) 
A3181a

>  <alias>  (4566) 
ZPIXWYUIFFQNQU-UHFFFAOYSA-N-P103-P12-P103-601509

>  <HIPPO Pose ID>  (4566) 
516099

>  <name>  (4566) 
ZPIXWYUIFFQNQU-UHFFFAOYSA-N-P103-P12-P103-601509

>  <HIPPO Compound ID>  (4566) 
293435

>  <ref_mols>  (4566) 
A0497a,A1105b

>  <distance_score>  (4566) 
1.610357

>  <inspiration_score>  (4566) 
None

$$$$
ZBPIGDSFBAOGHD-UHFFFAOYSA-N-P103-P12-P103-601509
     RDKit          3D

 26 29  0  0  0  0  0  0  0  0999 V2000
   17.7851   -8.7069   13.1198 C   0  0  0  0  0  0  0  0  0  0  0  0
   18.6526   -8.2182   14.2308 C   0  0  0  0  0  0  0  0  0  0  0  0
   20.0429   -8.0346   14.0561 C   0  0  0  0  0  0  0  0  0  0  0  0
   20.9343   -7.6769   15.1111 C   0  0  0  0  0  0  0  0  0  0  0  0
   20.5570   -7.4484   16.4648 C   0  0  0  0  0  0  0  0  0  0  0  0
   21.6209   -7.2760   17.5145 C   0  0  2  0  0  0  0  0  0  0  0  0
   21.4586   -8.2934   18.4798 O   0  0  0  0  0  0  0  0  0  0  0  0
   21.6047   -6.0437   18.2487 N   0  0  0  0  0  0  0  0  0  0  0  0
   22.4173   -4.9472   17.6982 C   0  0  1  0  0  0  0  0  0  0  0  0
   21.9391   -4.3500   16.3747 C   0  0  0  0  0  0  0  0  0  0  0  0
   20.6932   -3.5615   16.7741 C   0  0  0  0  0  0  0  0  0  0  0  0
   20.9549   -3.1260   18.1645 N   0  0  0  0  0  0  0  0  0  0  0  0
   19.8716   -3.2987   19.0440 C   0  0  0  0  0  0  0  0  0  0  0  0
   20.1274   -3.7286   20.3058 N   0  0  0  0  0  0  0  0  0  0  0  0
   19.0987   -3.9068   21.1577 C   0  0  0  0  0  0  0  0  0  0  0  0
   17.7824   -3.6820   20.8199 C   0  0  0  0  0  0  0  0  0  0  0  0
   17.4989   -3.2508   19.5333 C   0  0  0  0  0  0  0  0  0  0  0  0
   18.5496   -3.0394   18.6536 C   0  0  0  0  0  0  0  0  0  0  0  0
   18.2654   -2.5732   17.4317 F   0  0  0  0  0  0  0  0  0  0  0  0
   22.2444   -3.6993   18.5998 C   0  0  0  0  0  0  0  0  0  0  0  0
   19.1613   -7.5616   16.5879 C   0  0  0  0  0  0  0  0  0  0  0  0
   18.4141   -7.3867   17.7241 C   0  0  0  0  0  0  0  0  0  0  0  0
   17.1271   -7.6458   17.3484 N   0  0  0  0  0  0  0  0  0  0  0  0
   15.9547   -7.5657   18.1856 C   0  0  0  0  0  0  0  0  0  0  0  0
   16.9883   -8.0374   16.0697 N   0  0  0  0  0  0  0  0  0  0  0  0
   18.2246   -7.9487   15.5481 C   0  0  0  0  0  0  0  0  0  0  0  0
  1  2  1  0
  2  3  2  0
  3  4  1  0
  4  5  2  0
  5  6  1  0
  6  7  1  1
  6  8  1  0
  9  8  1  1
  9 10  1  0
 10 11  1  0
 11 12  1  0
 12 13  1  0
 13 14  2  0
 14 15  1  0
 15 16  2  0
 16 17  1  0
 17 18  2  0
 18 19  1  0
 12 20  1  0
  5 21  1  0
 21 22  2  0
 22 23  1  0
 23 24  1  0
 23 25  1  0
 25 26  2  0
 26  2  1  0
 20  9  1  0
 26 21  1  0
 18 13  1  0
M  END
>  <energy_score>  (4567) 
-42.068398

>  <inchikey>  (4567) 
ZBPIGDSFBAOGHD-UHFFFAOYSA-N

>  <smiles>  (4567) 
Cc1ccc(C(O)NC2CCN(c3ncccc3F)C2)c2cn(C)nc12

>  <ref_pdb>  (4567) 
A3181a

>  <alias>  (4567) 
ZBPIGDSFBAOGHD-UHFFFAOYSA-N-P103-P12-P103-601509

>  <HIPPO Pose ID>  (4567) 
516101

>  <name>  (4567) 
ZBPIGDSFBAOGHD-UHFFFAOYSA-N-P103-P12-P103-601509

>  <HIPPO Compound ID>  (4567) 
293436

>  <ref_mols>  (4567) 
A0497a,A1105b

>  <distance_score>  (4567) 
1.152473

>  <inspiration_score>  (4567) 
None

$$$$
RISGRMLRLHPKSX-UHFFFAOYSA-N-P12-P12-P103-601509
     RDKit          3D

 26 30  0  0  0  0  0  0  0  0999 V2000
   15.9671   -8.4111   17.9375 C   0  0  0  0  0  0  0  0  0  0  0  0
   17.1396   -8.1542   17.1357 N   0  0  0  0  0  0  0  0  0  0  0  0
   18.4287   -8.0789   17.5751 C   0  0  0  0  0  0  0  0  0  0  0  0
   19.1751   -7.7742   16.4677 C   0  0  0  0  0  0  0  0  0  0  0  0
   20.5687   -7.5860   16.4044 C   0  0  0  0  0  0  0  0  0  0  0  0
   21.6182   -7.6859   17.4936 C   0  0  2  0  0  0  0  0  0  0  0  0
   21.5369   -9.0028   18.0161 O   0  0  0  0  0  0  0  0  0  0  0  0
   21.4324   -6.7204   18.5464 N   0  0  0  0  0  0  0  0  0  0  0  0
   21.4296   -5.3089   18.0715 C   0  0  0  0  0  0  0  0  0  0  0  0
   22.0223   -4.5611   19.2959 C   0  0  2  0  0  0  0  0  0  0  0  0
   23.2336   -5.4756   19.5056 C   0  0  0  0  0  0  0  0  0  0  0  0
   22.3543   -6.7073   19.7091 C   0  0  1  0  0  0  0  0  0  0  0  0
   21.5354   -6.1967   20.9368 C   0  0  0  0  0  0  0  0  0  0  0  0
   21.2090   -4.7951   20.5541 N   0  0  0  0  0  0  0  0  0  0  0  0
   19.8757   -4.4388   20.2830 C   0  0  0  0  0  0  0  0  0  0  0  0
   18.9017   -5.3929   19.9794 C   0  0  0  0  0  0  0  0  0  0  0  0
   17.7335   -5.0110   19.3438 C   0  0  0  0  0  0  0  0  0  0  0  0
   17.4718   -3.6732   19.1585 C   0  0  0  0  0  0  0  0  0  0  0  0
   15.8182   -3.1913   18.4153 Br  0  0  0  0  0  0  0  0  0  0  0  0
   18.4323   -2.7662   19.5562 C   0  0  0  0  0  0  0  0  0  0  0  0
   19.6270   -3.1211   20.0990 N   0  0  0  0  0  0  0  0  0  0  0  0
   20.9489   -7.2919   15.0619 C   0  0  0  0  0  0  0  0  0  0  0  0
   20.0572   -7.2466   13.9470 C   0  0  0  0  0  0  0  0  0  0  0  0
   18.6745   -7.4812   14.0546 C   0  0  0  0  0  0  0  0  0  0  0  0
   18.2401   -7.7360   15.3640 C   0  0  0  0  0  0  0  0  0  0  0  0
   16.9966   -7.9931   15.8069 N   0  0  0  0  0  0  0  0  0  0  0  0
  1  2  1  0
  2  3  1  0
  3  4  2  0
  4  5  1  0
  5  6  1  0
  6  7  1  1
  6  8  1  0
  8  9  1  0
 10  9  1  6
 10 11  1  0
 11 12  1  0
 12 13  1  1
 13 14  1  0
 14 15  1  0
 15 16  2  0
 16 17  1  0
 17 18  2  0
 18 19  1  0
 18 20  1  0
 20 21  2  0
  5 22  2  0
 22 23  1  0
 23 24  2  0
 24 25  1  0
 25 26  2  0
 26  2  1  0
 25  4  1  0
 12  8  1  0
 21 15  1  0
 14 10  1  0
M  END
>  <energy_score>  (4568) 
-24.338044

>  <inchikey>  (4568) 
RISGRMLRLHPKSX-UHFFFAOYSA-N

>  <smiles>  (4568) 
Cn1cc2c(C(O)N3CC4CC3CN4c3ccc(Br)cn3)cccc2n1

>  <ref_pdb>  (4568) 
A3181a

>  <alias>  (4568) 
RISGRMLRLHPKSX-UHFFFAOYSA-N-P12-P12-P103-601509

>  <HIPPO Pose ID>  (4568) 
516102

>  <name>  (4568) 
RISGRMLRLHPKSX-UHFFFAOYSA-N-P12-P12-P103-601509

>  <HIPPO Compound ID>  (4568) 
293437

>  <ref_mols>  (4568) 
A0497a,A1105b

>  <distance_score>  (4568) 
1.185253

>  <inspiration_score>  (4568) 
None

$$$$
RISGRMLRLHPKSX-UHFFFAOYSA-N-P103-P12-P103-601509
     RDKit          3D

 26 30  0  0  0  0  0  0  0  0999 V2000
   16.0784   -7.0842   17.3820 C   0  0  0  0  0  0  0  0  0  0  0  0
   17.3329   -7.3195   16.7089 N   0  0  0  0  0  0  0  0  0  0  0  0
   18.4106   -6.4822   16.6478 C   0  0  0  0  0  0  0  0  0  0  0  0
   19.3273   -7.1077   15.8451 C   0  0  0  0  0  0  0  0  0  0  0  0
   20.5860   -6.6216   15.4242 C   0  0  0  0  0  0  0  0  0  0  0  0
   21.2435   -5.2844   15.6942 C   0  0  2  0  0  0  0  0  0  0  0  0
   22.4389   -5.1044   14.9450 O   0  0  0  0  0  0  0  0  0  0  0  0
   21.4832   -5.0495   17.0837 N   0  0  0  0  0  0  0  0  0  0  0  0
   21.6070   -3.6401   17.4776 C   0  0  0  0  0  0  0  0  0  0  0  0
   22.4106   -3.7771   18.8036 C   0  0  2  0  0  0  0  0  0  0  0  0
   23.5347   -4.6570   18.2369 C   0  0  0  0  0  0  0  0  0  0  0  0
   22.5614   -5.7533   17.8061 C   0  0  1  0  0  0  0  0  0  0  0  0
   21.9674   -6.0787   19.2060 C   0  0  0  0  0  0  0  0  0  0  0  0
   21.7341   -4.7118   19.8012 N   0  0  0  0  0  0  0  0  0  0  0  0
   20.3897   -4.3307   20.0120 C   0  0  0  0  0  0  0  0  0  0  0  0
   19.3910   -5.2857   20.1448 C   0  0  0  0  0  0  0  0  0  0  0  0
   18.1133   -4.9650   19.7231 C   0  0  0  0  0  0  0  0  0  0  0  0
   17.8198   -3.6690   19.3447 C   0  0  0  0  0  0  0  0  0  0  0  0
   16.1810   -3.2733   18.5257 Br  0  0  0  0  0  0  0  0  0  0  0  0
   18.7941   -2.7156   19.5265 C   0  0  0  0  0  0  0  0  0  0  0  0
   20.0644   -3.0209   19.8806 N   0  0  0  0  0  0  0  0  0  0  0  0
   21.1776   -7.5589   14.5352 C   0  0  0  0  0  0  0  0  0  0  0  0
   20.5831   -8.7856   14.1163 C   0  0  0  0  0  0  0  0  0  0  0  0
   19.3212   -9.2243   14.5508 C   0  0  0  0  0  0  0  0  0  0  0  0
   18.6937   -8.3458   15.4419 C   0  0  0  0  0  0  0  0  0  0  0  0
   17.4900   -8.4673   16.0247 N   0  0  0  0  0  0  0  0  0  0  0  0
  1  2  1  0
  2  3  1  0
  3  4  2  0
  4  5  1  0
  5  6  1  0
  6  7  1  6
  6  8  1  0
  8  9  1  0
 10  9  1  6
 10 11  1  0
 11 12  1  0
 12 13  1  1
 13 14  1  0
 14 15  1  0
 15 16  2  0
 16 17  1  0
 17 18  2  0
 18 19  1  0
 18 20  1  0
 20 21  2  0
  5 22  2  0
 22 23  1  0
 23 24  2  0
 24 25  1  0
 25 26  2  0
 26  2  1  0
 25  4  1  0
 12  8  1  0
 21 15  1  0
 14 10  1  0
M  END
>  <energy_score>  (4569) 
-20.206153

>  <inchikey>  (4569) 
RISGRMLRLHPKSX-UHFFFAOYSA-N

>  <smiles>  (4569) 
Cn1cc2c(C(O)N3CC4CC3CN4c3ccc(Br)cn3)cccc2n1

>  <ref_pdb>  (4569) 
A3181a

>  <alias>  (4569) 
RISGRMLRLHPKSX-UHFFFAOYSA-N-P103-P12-P103-601509

>  <HIPPO Pose ID>  (4569) 
516103

>  <name>  (4569) 
RISGRMLRLHPKSX-UHFFFAOYSA-N-P103-P12-P103-601509

>  <HIPPO Compound ID>  (4569) 
293437

>  <ref_mols>  (4569) 
A0497a,A1105b

>  <distance_score>  (4569) 
1.423987

>  <inspiration_score>  (4569) 
None

$$$$
AXXZJBBLOABIGM-UHFFFAOYSA-N-P12-P12-P103-601509
     RDKit          3D

 26 29  0  0  0  0  0  0  0  0999 V2000
   15.2192   -7.9339   17.5768 C   0  0  0  0  0  0  0  0  0  0  0  0
   16.5247   -7.7818   16.9779 N   0  0  0  0  0  0  0  0  0  0  0  0
   17.6562   -7.3438   17.6014 C   0  0  0  0  0  0  0  0  0  0  0  0
   18.6133   -7.3111   16.6205 C   0  0  0  0  0  0  0  0  0  0  0  0
   19.9469   -6.9011   16.7696 C   0  0  0  0  0  0  0  0  0  0  0  0
   20.6101   -6.4777   18.0492 C   0  0  2  0  0  0  0  0  0  0  0  0
   21.5967   -5.5068   17.7833 O   0  0  0  0  0  0  0  0  0  0  0  0
   21.2391   -7.6194   18.6802 N   0  0  0  0  0  0  0  0  0  0  0  0
   21.5299   -7.5412   20.1174 C   0  0  1  0  0  0  0  0  0  0  0  0
   22.7744   -6.7501   20.5092 C   0  0  0  0  0  0  0  0  0  0  0  0
   22.2716   -5.3694   20.9222 C   0  0  0  0  0  0  0  0  0  0  0  0
   20.8493   -5.5359   21.2734 N   0  0  0  0  0  0  0  0  0  0  0  0
   19.9545   -4.5783   20.7736 C   0  0  0  0  0  0  0  0  0  0  0  0
   20.4096   -3.7332   19.8126 N   0  0  0  0  0  0  0  0  0  0  0  0
   19.5455   -2.8762   19.2240 C   0  0  0  0  0  0  0  0  0  0  0  0
   18.2076   -2.8067   19.5315 C   0  0  0  0  0  0  0  0  0  0  0  0
   17.7460   -3.6226   20.5491 C   0  0  0  0  0  0  0  0  0  0  0  0
   18.6148   -4.5073   21.1895 C   0  0  0  0  0  0  0  0  0  0  0  0
   17.9988   -5.4255   22.5228 Cl  0  0  0  0  0  0  0  0  0  0  0  0
   20.4519   -6.9393   21.0427 C   0  0  0  0  0  0  0  0  0  0  0  0
   20.6195   -6.9701   15.5191 C   0  0  0  0  0  0  0  0  0  0  0  0
   20.0100   -7.4059   14.3022 C   0  0  0  0  0  0  0  0  0  0  0  0
   21.0685   -7.4074   12.7230 Br  0  0  0  0  0  0  0  0  0  0  0  0
   18.6721   -7.8313   14.1971 C   0  0  0  0  0  0  0  0  0  0  0  0
   17.9714   -7.7638   15.4102 C   0  0  0  0  0  0  0  0  0  0  0  0
   16.6879   -8.0714   15.6706 N   0  0  0  0  0  0  0  0  0  0  0  0
  1  2  1  0
  2  3  1  0
  3  4  2  0
  4  5  1  0
  5  6  1  0
  6  7  1  6
  6  8  1  0
  9  8  1  6
  9 10  1  0
 10 11  1  0
 11 12  1  0
 12 13  1  0
 13 14  2  0
 14 15  1  0
 15 16  2  0
 16 17  1  0
 17 18  2  0
 18 19  1  0
 12 20  1  0
  5 21  2  0
 21 22  1  0
 22 23  1  0
 22 24  2  0
 24 25  1  0
 25 26  2  0
 26  2  1  0
 25  4  1  0
 20  9  1  0
 18 13  1  0
M  END
>  <energy_score>  (4570) 
-53.284883

>  <inchikey>  (4570) 
AXXZJBBLOABIGM-UHFFFAOYSA-N

>  <smiles>  (4570) 
Cn1cc2c(C(O)NC3CCN(c4ncccc4Cl)C3)cc(Br)cc2n1

>  <ref_pdb>  (4570) 
A3181a

>  <alias>  (4570) 
AXXZJBBLOABIGM-UHFFFAOYSA-N-P12-P12-P103-601509

>  <HIPPO Pose ID>  (4570) 
516104

>  <name>  (4570) 
AXXZJBBLOABIGM-UHFFFAOYSA-N-P12-P12-P103-601509

>  <HIPPO Compound ID>  (4570) 
293438

>  <ref_mols>  (4570) 
A0497a,A1105b

>  <distance_score>  (4570) 
1.210391

>  <inspiration_score>  (4570) 
None

$$$$
AXXZJBBLOABIGM-UHFFFAOYSA-N-P103-P12-P103-601509
     RDKit          3D

 26 29  0  0  0  0  0  0  0  0999 V2000
   15.3427   -7.9698   17.7533 C   0  0  0  0  0  0  0  0  0  0  0  0
   16.6431   -7.8937   17.1293 N   0  0  0  0  0  0  0  0  0  0  0  0
   17.7842   -7.4051   17.6958 C   0  0  0  0  0  0  0  0  0  0  0  0
   18.7316   -7.4776   16.7078 C   0  0  0  0  0  0  0  0  0  0  0  0
   20.0710   -7.0699   16.8052 C   0  0  0  0  0  0  0  0  0  0  0  0
   20.7443   -6.5158   18.0269 C   0  0  2  0  0  0  0  0  0  0  0  0
   21.7731   -5.6319   17.6457 O   0  0  0  0  0  0  0  0  0  0  0  0
   21.3138   -7.5589   18.8530 N   0  0  0  0  0  0  0  0  0  0  0  0
   21.6239   -7.2039   20.2499 C   0  0  1  0  0  0  0  0  0  0  0  0
   22.8448   -6.3150   20.4755 C   0  0  0  0  0  0  0  0  0  0  0  0
   22.3099   -4.9078   20.7453 C   0  0  0  0  0  0  0  0  0  0  0  0
   20.8827   -5.0509   21.0855 N   0  0  0  0  0  0  0  0  0  0  0  0
   19.9757   -4.2543   20.3622 C   0  0  0  0  0  0  0  0  0  0  0  0
   20.4158   -3.6792   19.2119 N   0  0  0  0  0  0  0  0  0  0  0  0
   19.5162   -3.1334   18.3600 C   0  0  0  0  0  0  0  0  0  0  0  0
   18.1652   -3.1048   18.6041 C   0  0  0  0  0  0  0  0  0  0  0  0
   17.7218   -3.5690   19.8306 C   0  0  0  0  0  0  0  0  0  0  0  0
   18.6236   -4.1462   20.7262 C   0  0  0  0  0  0  0  0  0  0  0  0
   18.0378   -4.6885   22.2609 Cl  0  0  0  0  0  0  0  0  0  0  0  0
   20.5331   -6.4895   21.0796 C   0  0  0  0  0  0  0  0  0  0  0  0
   20.7232   -7.2446   15.5549 C   0  0  0  0  0  0  0  0  0  0  0  0
   20.0946   -7.7798   14.3884 C   0  0  0  0  0  0  0  0  0  0  0  0
   21.1303   -7.9207   12.8000 Br  0  0  0  0  0  0  0  0  0  0  0  0
   18.7563   -8.2141   14.3411 C   0  0  0  0  0  0  0  0  0  0  0  0
   18.0724   -8.0371   15.5526 C   0  0  0  0  0  0  0  0  0  0  0  0
   16.7969   -8.3315   15.8629 N   0  0  0  0  0  0  0  0  0  0  0  0
  1  2  1  0
  2  3  1  0
  3  4  2  0
  4  5  1  0
  5  6  1  0
  6  7  1  6
  6  8  1  0
  9  8  1  6
  9 10  1  0
 10 11  1  0
 11 12  1  0
 12 13  1  0
 13 14  2  0
 14 15  1  0
 15 16  2  0
 16 17  1  0
 17 18  2  0
 18 19  1  0
 12 20  1  0
  5 21  2  0
 21 22  1  0
 22 23  1  0
 22 24  2  0
 24 25  1  0
 25 26  2  0
 26  2  1  0
 25  4  1  0
 20  9  1  0
 18 13  1  0
M  END
>  <energy_score>  (4571) 
-50.336964

>  <inchikey>  (4571) 
AXXZJBBLOABIGM-UHFFFAOYSA-N

>  <smiles>  (4571) 
Cn1cc2c(C(O)NC3CCN(c4ncccc4Cl)C3)cc(Br)cc2n1

>  <ref_pdb>  (4571) 
A3181a

>  <alias>  (4571) 
AXXZJBBLOABIGM-UHFFFAOYSA-N-P103-P12-P103-601509

>  <HIPPO Pose ID>  (4571) 
516105

>  <name>  (4571) 
AXXZJBBLOABIGM-UHFFFAOYSA-N-P103-P12-P103-601509

>  <HIPPO Compound ID>  (4571) 
293438

>  <ref_mols>  (4571) 
A0497a,A1105b

>  <distance_score>  (4571) 
1.098602

>  <inspiration_score>  (4571) 
None

$$$$
GHAWEEQFOZLMGU-UHFFFAOYSA-N-P12-P12-P103-601509
     RDKit          3D

 26 29  0  0  0  0  0  0  0  0999 V2000
   19.2763   -8.6842   17.1647 C   0  0  0  0  0  0  0  0  0  0  0  0
   20.0394   -7.4204   16.9638 C   0  0  0  0  0  0  0  0  0  0  0  0
   20.2286   -6.9300   15.6868 C   0  0  0  0  0  0  0  0  0  0  0  0
   21.0828   -5.8524   15.5281 C   0  0  0  0  0  0  0  0  0  0  0  0
   21.6654   -5.2650   16.6478 C   0  0  0  0  0  0  0  0  0  0  0  0
   21.3679   -5.7478   17.9193 C   0  0  0  0  0  0  0  0  0  0  0  0
   21.8143   -5.0611   19.0747 N   0  0  0  0  0  0  0  0  0  0  0  0
   21.3151   -3.6559   19.1140 C   0  0  0  0  0  0  0  0  0  0  0  0
   20.5518   -3.5232   20.4360 C   0  0  0  0  0  0  0  0  0  0  0  0
   20.0761   -4.9440   20.7396 C   0  0  1  0  0  0  0  0  0  0  0  0
   18.9713   -5.5308   19.9723 N   0  0  0  0  0  0  0  0  0  0  0  0
   17.8892   -4.6961   19.5575 C   0  0  1  0  0  0  0  0  0  0  0  0
   18.3173   -3.5651   18.8395 O   0  0  0  0  0  0  0  0  0  0  0  0
   16.8589   -5.4498   18.7422 C   0  0  0  0  0  0  0  0  0  0  0  0
   15.7581   -4.6952   18.2964 C   0  0  0  0  0  0  0  0  0  0  0  0
   14.6207   -5.2421   17.6539 C   0  0  0  0  0  0  0  0  0  0  0  0
   13.3775   -3.9841   17.1877 Br  0  0  0  0  0  0  0  0  0  0  0  0
   14.3838   -6.5854   17.3633 C   0  0  0  0  0  0  0  0  0  0  0  0
   15.3832   -7.3852   17.9023 C   0  0  0  0  0  0  0  0  0  0  0  0
   15.4307   -8.7263   17.9666 N   0  0  0  0  0  0  0  0  0  0  0  0
   16.4411   -8.9777   18.8108 N   0  0  0  0  0  0  0  0  0  0  0  0
   16.6899  -10.3390   19.2199 C   0  0  0  0  0  0  0  0  0  0  0  0
   17.1372   -7.8716   19.2029 C   0  0  0  0  0  0  0  0  0  0  0  0
   16.5507   -6.8140   18.5637 C   0  0  0  0  0  0  0  0  0  0  0  0
   21.3888   -5.6934   20.3545 C   0  0  0  0  0  0  0  0  0  0  0  0
   20.5970   -6.8508   18.0583 N   0  0  0  0  0  0  0  0  0  0  0  0
  1  2  1  0
  2  3  2  0
  3  4  1  0
  4  5  2  0
  5  6  1  0
  6  7  1  0
  7  8  1  0
  8  9  1  0
  9 10  1  0
 10 11  1  6
 11 12  1  0
 12 13  1  6
 12 14  1  0
 14 15  2  0
 15 16  1  0
 16 17  1  0
 16 18  2  0
 18 19  1  0
 19 20  2  0
 20 21  1  0
 21 22  1  0
 21 23  1  0
 23 24  2  0
 10 25  1  0
  6 26  2  0
 26  2  1  0
 25  7  1  0
 24 14  1  0
 24 19  1  0
M  END
>  <energy_score>  (4572) 
-26.448312

>  <inchikey>  (4572) 
GHAWEEQFOZLMGU-UHFFFAOYSA-N

>  <smiles>  (4572) 
Cc1cccc(N2CCC(NC(O)c3cc(Br)cc4nn(C)cc34)C2)n1

>  <ref_pdb>  (4572) 
A3181a

>  <alias>  (4572) 
GHAWEEQFOZLMGU-UHFFFAOYSA-N-P12-P12-P103-601509

>  <HIPPO Pose ID>  (4572) 
516106

>  <name>  (4572) 
GHAWEEQFOZLMGU-UHFFFAOYSA-N-P12-P12-P103-601509

>  <HIPPO Compound ID>  (4572) 
293439

>  <ref_mols>  (4572) 
A0497a,A1105b

>  <distance_score>  (4572) 
1.796497

>  <inspiration_score>  (4572) 
None

$$$$
GHAWEEQFOZLMGU-UHFFFAOYSA-N-P103-P12-P103-601509
     RDKit          3D

 26 29  0  0  0  0  0  0  0  0999 V2000
   19.2151   -8.8342   17.4392 C   0  0  0  0  0  0  0  0  0  0  0  0
   19.8634   -7.5227   17.1512 C   0  0  0  0  0  0  0  0  0  0  0  0
   19.9155   -7.0417   15.8579 C   0  0  0  0  0  0  0  0  0  0  0  0
   20.6844   -5.9159   15.6188 C   0  0  0  0  0  0  0  0  0  0  0  0
   21.3276   -5.2808   16.6781 C   0  0  0  0  0  0  0  0  0  0  0  0
   21.1571   -5.7501   17.9785 C   0  0  0  0  0  0  0  0  0  0  0  0
   21.6417   -5.0254   19.0941 N   0  0  0  0  0  0  0  0  0  0  0  0
   21.2482   -3.5891   19.0883 C   0  0  0  0  0  0  0  0  0  0  0  0
   20.2936   -3.3999   20.2795 C   0  0  0  0  0  0  0  0  0  0  0  0
   19.8395   -4.8116   20.6652 C   0  0  1  0  0  0  0  0  0  0  0  0
   18.7331   -5.4670   19.9385 N   0  0  0  0  0  0  0  0  0  0  0  0
   17.8819   -4.6337   19.1356 C   0  0  1  0  0  0  0  0  0  0  0  0
   18.5881   -3.9240   18.1397 O   0  0  0  0  0  0  0  0  0  0  0  0
   16.7660   -5.3747   18.4491 C   0  0  0  0  0  0  0  0  0  0  0  0
   15.8119   -4.5479   17.8471 C   0  0  0  0  0  0  0  0  0  0  0  0
   14.6128   -5.0067   17.2735 C   0  0  0  0  0  0  0  0  0  0  0  0
   13.6139   -3.6353   16.5749 Br  0  0  0  0  0  0  0  0  0  0  0  0
   14.1979   -6.3337   17.1563 C   0  0  0  0  0  0  0  0  0  0  0  0
   15.1083   -7.2004   17.7542 C   0  0  0  0  0  0  0  0  0  0  0  0
   15.0332   -8.5352   17.8882 N   0  0  0  0  0  0  0  0  0  0  0  0
   16.0293   -8.8348   18.7358 N   0  0  0  0  0  0  0  0  0  0  0  0
   16.1492  -10.1869   19.2247 C   0  0  0  0  0  0  0  0  0  0  0  0
   16.8288   -7.7791   19.0640 C   0  0  0  0  0  0  0  0  0  0  0  0
   16.3282   -6.7080   18.3784 C   0  0  0  0  0  0  0  0  0  0  0  0
   21.1765   -5.5671   20.3957 C   0  0  0  0  0  0  0  0  0  0  0  0
   20.4700   -6.8994   18.1897 N   0  0  0  0  0  0  0  0  0  0  0  0
  1  2  1  0
  2  3  2  0
  3  4  1  0
  4  5  2  0
  5  6  1  0
  6  7  1  0
  7  8  1  0
  8  9  1  0
  9 10  1  0
 10 11  1  6
 11 12  1  0
 12 13  1  6
 12 14  1  0
 14 15  2  0
 15 16  1  0
 16 17  1  0
 16 18  2  0
 18 19  1  0
 19 20  2  0
 20 21  1  0
 21 22  1  0
 21 23  1  0
 23 24  2  0
 10 25  1  0
  6 26  2  0
 26  2  1  0
 25  7  1  0
 24 14  1  0
 24 19  1  0
M  END
>  <energy_score>  (4573) 
-25.021342

>  <inchikey>  (4573) 
GHAWEEQFOZLMGU-UHFFFAOYSA-N

>  <smiles>  (4573) 
Cc1cccc(N2CCC(NC(O)c3cc(Br)cc4nn(C)cc34)C2)n1

>  <ref_pdb>  (4573) 
A3181a

>  <alias>  (4573) 
GHAWEEQFOZLMGU-UHFFFAOYSA-N-P103-P12-P103-601509

>  <HIPPO Pose ID>  (4573) 
516107

>  <name>  (4573) 
GHAWEEQFOZLMGU-UHFFFAOYSA-N-P103-P12-P103-601509

>  <HIPPO Compound ID>  (4573) 
293439

>  <ref_mols>  (4573) 
A0497a,A1105b

>  <distance_score>  (4573) 
1.614494

>  <inspiration_score>  (4573) 
None

$$$$
JODFJVHYVCFDBX-UHFFFAOYSA-N-P12-P12-P103-601509
     RDKit          3D

 26 29  0  0  0  0  0  0  0  0999 V2000
   15.3825   -7.8365   17.7434 C   0  0  0  0  0  0  0  0  0  0  0  0
   16.6562   -7.7382   17.0697 N   0  0  0  0  0  0  0  0  0  0  0  0
   17.8468   -7.3881   17.6357 C   0  0  0  0  0  0  0  0  0  0  0  0
   18.7496   -7.3753   16.6054 C   0  0  0  0  0  0  0  0  0  0  0  0
   20.1157   -7.0532   16.6893 C   0  0  0  0  0  0  0  0  0  0  0  0
   20.8985   -6.7413   17.9443 C   0  0  2  0  0  0  0  0  0  0  0  0
   22.2074   -6.3062   17.6336 O   0  0  0  0  0  0  0  0  0  0  0  0
   21.0121   -7.9236   18.7803 N   0  0  0  0  0  0  0  0  0  0  0  0
   21.2637   -7.7300   20.2182 C   0  0  1  0  0  0  0  0  0  0  0  0
   22.5153   -6.9619   20.6344 C   0  0  0  0  0  0  0  0  0  0  0  0
   22.0529   -5.5130   20.7729 C   0  0  0  0  0  0  0  0  0  0  0  0
   20.6236   -5.5951   21.1276 N   0  0  0  0  0  0  0  0  0  0  0  0
   19.8252   -4.5625   20.6209 C   0  0  0  0  0  0  0  0  0  0  0  0
   20.4536   -3.4844   20.0934 N   0  0  0  0  0  0  0  0  0  0  0  0
   19.7242   -2.5508   19.4473 C   0  0  0  0  0  0  0  0  0  0  0  0
   18.3525   -2.5923   19.3364 C   0  0  0  0  0  0  0  0  0  0  0  0
   17.6885   -3.6416   19.9421 C   0  0  0  0  0  0  0  0  0  0  0  0
   18.4251   -4.6167   20.6078 C   0  0  0  0  0  0  0  0  0  0  0  0
   17.7667   -5.6111   21.2255 F   0  0  0  0  0  0  0  0  0  0  0  0
   20.1538   -6.9799   20.9868 C   0  0  0  0  0  0  0  0  0  0  0  0
   20.6757   -7.0448   15.3785 C   0  0  0  0  0  0  0  0  0  0  0  0
   19.9613   -7.3809   14.1854 C   0  0  0  0  0  0  0  0  0  0  0  0
   20.8965   -7.3030   12.5315 Br  0  0  0  0  0  0  0  0  0  0  0  0
   18.6093   -7.7599   14.1564 C   0  0  0  0  0  0  0  0  0  0  0  0
   18.0025   -7.7276   15.4188 C   0  0  0  0  0  0  0  0  0  0  0  0
   16.7254   -7.9913   15.7477 N   0  0  0  0  0  0  0  0  0  0  0  0
  1  2  1  0
  2  3  1  0
  3  4  2  0
  4  5  1  0
  5  6  1  0
  6  7  1  6
  6  8  1  0
  9  8  1  6
  9 10  1  0
 10 11  1  0
 11 12  1  0
 12 13  1  0
 13 14  2  0
 14 15  1  0
 15 16  2  0
 16 17  1  0
 17 18  2  0
 18 19  1  0
 12 20  1  0
  5 21  2  0
 21 22  1  0
 22 23  1  0
 22 24  2  0
 24 25  1  0
 25 26  2  0
 26  2  1  0
 25  4  1  0
 20  9  1  0
 18 13  1  0
M  END
>  <energy_score>  (4574) 
-51.145928

>  <inchikey>  (4574) 
JODFJVHYVCFDBX-UHFFFAOYSA-N

>  <smiles>  (4574) 
Cn1cc2c(C(O)NC3CCN(c4ncccc4F)C3)cc(Br)cc2n1

>  <ref_pdb>  (4574) 
A3181a

>  <alias>  (4574) 
JODFJVHYVCFDBX-UHFFFAOYSA-N-P12-P12-P103-601509

>  <HIPPO Pose ID>  (4574) 
516108

>  <name>  (4574) 
JODFJVHYVCFDBX-UHFFFAOYSA-N-P12-P12-P103-601509

>  <HIPPO Compound ID>  (4574) 
293440

>  <ref_mols>  (4574) 
A0497a,A1105b

>  <distance_score>  (4574) 
1.012701

>  <inspiration_score>  (4574) 
None

$$$$
JODFJVHYVCFDBX-UHFFFAOYSA-N-P103-P12-P103-601509
     RDKit          3D

 26 29  0  0  0  0  0  0  0  0999 V2000
   15.4119   -7.7591   17.9542 C   0  0  0  0  0  0  0  0  0  0  0  0
   16.7071   -7.7340   17.3151 N   0  0  0  0  0  0  0  0  0  0  0  0
   17.8786   -7.3213   17.8806 C   0  0  0  0  0  0  0  0  0  0  0  0
   18.8169   -7.3979   16.8841 C   0  0  0  0  0  0  0  0  0  0  0  0
   20.1826   -7.0693   16.9626 C   0  0  0  0  0  0  0  0  0  0  0  0
   21.0615   -6.6807   18.1417 C   0  0  2  0  0  0  0  0  0  0  0  0
   22.2634   -7.4352   18.0783 O   0  0  0  0  0  0  0  0  0  0  0  0
   20.4575   -6.9475   19.4229 N   0  0  0  0  0  0  0  0  0  0  0  0
   21.2171   -6.5936   20.6352 C   0  0  1  0  0  0  0  0  0  0  0  0
   22.3355   -5.5289   20.5871 C   0  0  0  0  0  0  0  0  0  0  0  0
   21.8371   -4.3382   21.4156 C   0  0  0  0  0  0  0  0  0  0  0  0
   20.3867   -4.5341   21.5646 N   0  0  0  0  0  0  0  0  0  0  0  0
   19.6511   -4.0154   20.4613 C   0  0  0  0  0  0  0  0  0  0  0  0
   20.3203   -3.4424   19.4323 N   0  0  0  0  0  0  0  0  0  0  0  0
   19.6295   -3.0850   18.3262 C   0  0  0  0  0  0  0  0  0  0  0  0
   18.2649   -3.2267   18.1929 C   0  0  0  0  0  0  0  0  0  0  0  0
   17.5588   -3.7227   19.2747 C   0  0  0  0  0  0  0  0  0  0  0  0
   18.2556   -4.1189   20.4146 C   0  0  0  0  0  0  0  0  0  0  0  0
   17.5781   -4.6116   21.4637 F   0  0  0  0  0  0  0  0  0  0  0  0
   20.2242   -5.9994   21.6718 C   0  0  0  0  0  0  0  0  0  0  0  0
   20.7583   -7.1493   15.6552 C   0  0  0  0  0  0  0  0  0  0  0  0
   20.0751   -7.5936   14.4826 C   0  0  0  0  0  0  0  0  0  0  0  0
   21.0424   -7.6473   12.8475 Br  0  0  0  0  0  0  0  0  0  0  0  0
   18.7342   -8.0058   14.4698 C   0  0  0  0  0  0  0  0  0  0  0  0
   18.1013   -7.8693   15.7130 C   0  0  0  0  0  0  0  0  0  0  0  0
   16.8267   -8.1452   16.0393 N   0  0  0  0  0  0  0  0  0  0  0  0
  1  2  1  0
  2  3  1  0
  3  4  2  0
  4  5  1  0
  5  6  1  0
  6  7  1  1
  6  8  1  0
  9  8  1  6
  9 10  1  0
 10 11  1  0
 11 12  1  0
 12 13  1  0
 13 14  2  0
 14 15  1  0
 15 16  2  0
 16 17  1  0
 17 18  2  0
 18 19  1  0
 12 20  1  0
  5 21  2  0
 21 22  1  0
 22 23  1  0
 22 24  2  0
 24 25  1  0
 25 26  2  0
 26  2  1  0
 25  4  1  0
 20  9  1  0
 18 13  1  0
M  END
>  <energy_score>  (4575) 
-44.548259

>  <inchikey>  (4575) 
JODFJVHYVCFDBX-UHFFFAOYSA-N

>  <smiles>  (4575) 
Cn1cc2c(C(O)NC3CCN(c4ncccc4F)C3)cc(Br)cc2n1

>  <ref_pdb>  (4575) 
A3181a

>  <alias>  (4575) 
JODFJVHYVCFDBX-UHFFFAOYSA-N-P103-P12-P103-601509

>  <HIPPO Pose ID>  (4575) 
516109

>  <name>  (4575) 
JODFJVHYVCFDBX-UHFFFAOYSA-N-P103-P12-P103-601509

>  <HIPPO Compound ID>  (4575) 
293440

>  <ref_mols>  (4575) 
A0497a,A1105b

>  <distance_score>  (4575) 
0.881868

>  <inspiration_score>  (4575) 
None

$$$$
PIQUSVZGLQEALW-UHFFFAOYSA-N-P12-P12-P103-601509
     RDKit          3D

 26 29  0  0  0  0  0  0  0  0999 V2000
   20.2576   -9.6886   17.4476 C   0  0  0  0  0  0  0  0  0  0  0  0
   20.4745   -8.2322   17.1556 C   0  0  0  0  0  0  0  0  0  0  0  0
   20.2280   -7.7404   15.8864 C   0  0  0  0  0  0  0  0  0  0  0  0
   20.6521   -6.4576   15.5997 C   0  0  0  0  0  0  0  0  0  0  0  0
   21.2538   -5.6970   16.5984 C   0  0  0  0  0  0  0  0  0  0  0  0
   21.3495   -6.1875   17.9023 C   0  0  0  0  0  0  0  0  0  0  0  0
   21.8080   -5.3710   18.9669 N   0  0  0  0  0  0  0  0  0  0  0  0
   21.4018   -3.9386   18.8965 C   0  0  0  0  0  0  0  0  0  0  0  0
   20.7267   -3.6335   20.2346 C   0  0  0  0  0  0  0  0  0  0  0  0
   20.1329   -4.9790   20.6359 C   0  0  1  0  0  0  0  0  0  0  0  0
   19.0088   -5.5077   19.8618 N   0  0  0  0  0  0  0  0  0  0  0  0
   17.9126   -4.6711   19.5109 C   0  0  1  0  0  0  0  0  0  0  0  0
   18.3051   -3.4917   18.8518 O   0  0  0  0  0  0  0  0  0  0  0  0
   16.8703   -5.3956   18.6621 C   0  0  0  0  0  0  0  0  0  0  0  0
   15.7580   -4.6042   18.3506 C   0  0  0  0  0  0  0  0  0  0  0  0
   14.6473   -5.1478   17.7384 C   0  0  0  0  0  0  0  0  0  0  0  0
   13.2909   -3.9806   17.4111 Br  0  0  0  0  0  0  0  0  0  0  0  0
   14.5225   -6.4750   17.3773 C   0  0  0  0  0  0  0  0  0  0  0  0
   15.6098   -7.2722   17.6979 C   0  0  0  0  0  0  0  0  0  0  0  0
   16.7601   -6.7778   18.3253 C   0  0  0  0  0  0  0  0  0  0  0  0
   17.5224   -7.9480   18.5344 C   0  0  0  0  0  0  0  0  0  0  0  0
   16.9452   -9.0639   18.0811 N   0  0  0  0  0  0  0  0  0  0  0  0
   15.7994   -8.6219   17.5514 N   0  0  0  0  0  0  0  0  0  0  0  0
   14.8751   -9.5648   16.9687 C   0  0  0  0  0  0  0  0  0  0  0  0
   21.3703   -5.8663   20.2993 C   0  0  0  0  0  0  0  0  0  0  0  0
   21.0244   -7.4809   18.1445 N   0  0  0  0  0  0  0  0  0  0  0  0
  1  2  1  0
  2  3  2  0
  3  4  1  0
  4  5  2  0
  5  6  1  0
  6  7  1  0
  7  8  1  0
  8  9  1  0
  9 10  1  0
 10 11  1  6
 11 12  1  0
 12 13  1  6
 12 14  1  0
 14 15  2  0
 15 16  1  0
 16 17  1  0
 16 18  2  0
 18 19  1  0
 19 20  2  0
 20 21  1  0
 21 22  2  0
 22 23  1  0
 23 24  1  0
 10 25  1  0
  6 26  2  0
 26  2  1  0
 25  7  1  0
 20 14  1  0
 23 19  1  0
M  END
>  <energy_score>  (4576) 
-31.446209

>  <inchikey>  (4576) 
PIQUSVZGLQEALW-UHFFFAOYSA-N

>  <smiles>  (4576) 
Cc1cccc(N2CCC(NC(O)c3cc(Br)cc4c3cnn4C)C2)n1

>  <ref_pdb>  (4576) 
A3181a

>  <alias>  (4576) 
PIQUSVZGLQEALW-UHFFFAOYSA-N-P12-P12-P103-601509

>  <HIPPO Pose ID>  (4576) 
516110

>  <name>  (4576) 
PIQUSVZGLQEALW-UHFFFAOYSA-N-P12-P12-P103-601509

>  <HIPPO Compound ID>  (4576) 
293441

>  <ref_mols>  (4576) 
A0497a,A1105b

>  <distance_score>  (4576) 
1.618636

>  <inspiration_score>  (4576) 
None

$$$$
PIQUSVZGLQEALW-UHFFFAOYSA-N-P103-P12-P103-601509
     RDKit          3D

 26 29  0  0  0  0  0  0  0  0999 V2000
   19.8432   -9.5427   17.3365 C   0  0  0  0  0  0  0  0  0  0  0  0
   20.1445   -8.0963   17.0729 C   0  0  0  0  0  0  0  0  0  0  0  0
   19.9235   -7.5667   15.8157 C   0  0  0  0  0  0  0  0  0  0  0  0
   20.4197   -6.3044   15.5533 C   0  0  0  0  0  0  0  0  0  0  0  0
   21.0627   -5.5937   16.5625 C   0  0  0  0  0  0  0  0  0  0  0  0
   21.1401   -6.1163   17.8541 C   0  0  0  0  0  0  0  0  0  0  0  0
   21.6507   -5.3609   18.9358 N   0  0  0  0  0  0  0  0  0  0  0  0
   21.3858   -3.8985   18.9174 C   0  0  0  0  0  0  0  0  0  0  0  0
   20.5277   -3.6013   20.1548 C   0  0  0  0  0  0  0  0  0  0  0  0
   19.9412   -4.9524   20.5606 C   0  0  1  0  0  0  0  0  0  0  0  0
   18.7767   -5.4868   19.8513 N   0  0  0  0  0  0  0  0  0  0  0  0
   17.9383   -4.6059   19.0994 C   0  0  1  0  0  0  0  0  0  0  0  0
   18.6296   -3.8699   18.1160 O   0  0  0  0  0  0  0  0  0  0  0  0
   16.8046   -5.3266   18.4017 C   0  0  0  0  0  0  0  0  0  0  0  0
   15.8367   -4.4619   17.9036 C   0  0  0  0  0  0  0  0  0  0  0  0
   14.6727   -4.9462   17.3591 C   0  0  0  0  0  0  0  0  0  0  0  0
   13.5931   -3.6570   16.6437 Br  0  0  0  0  0  0  0  0  0  0  0  0
   14.3617   -6.2905   17.2569 C   0  0  0  0  0  0  0  0  0  0  0  0
   15.3408   -7.1606   17.7229 C   0  0  0  0  0  0  0  0  0  0  0  0
   16.5476   -6.7174   18.2719 C   0  0  0  0  0  0  0  0  0  0  0  0
   17.1949   -7.9169   18.6398 C   0  0  0  0  0  0  0  0  0  0  0  0
   16.4987   -9.0170   18.3404 N   0  0  0  0  0  0  0  0  0  0  0  0
   15.3693   -8.5286   17.8060 N   0  0  0  0  0  0  0  0  0  0  0  0
   14.3138   -9.4324   17.4174 C   0  0  0  0  0  0  0  0  0  0  0  0
   21.1684   -5.8544   20.2484 C   0  0  0  0  0  0  0  0  0  0  0  0
   20.7444   -7.3960   18.0688 N   0  0  0  0  0  0  0  0  0  0  0  0
  1  2  1  0
  2  3  2  0
  3  4  1  0
  4  5  2  0
  5  6  1  0
  6  7  1  0
  7  8  1  0
  8  9  1  0
  9 10  1  0
 10 11  1  6
 11 12  1  0
 12 13  1  6
 12 14  1  0
 14 15  2  0
 15 16  1  0
 16 17  1  0
 16 18  2  0
 18 19  1  0
 19 20  2  0
 20 21  1  0
 21 22  2  0
 22 23  1  0
 23 24  1  0
 10 25  1  0
  6 26  2  0
 26  2  1  0
 25  7  1  0
 20 14  1  0
 23 19  1  0
M  END
>  <energy_score>  (4577) 
-29.873973

>  <inchikey>  (4577) 
PIQUSVZGLQEALW-UHFFFAOYSA-N

>  <smiles>  (4577) 
Cc1cccc(N2CCC(NC(O)c3cc(Br)cc4c3cnn4C)C2)n1

>  <ref_pdb>  (4577) 
A3181a

>  <alias>  (4577) 
PIQUSVZGLQEALW-UHFFFAOYSA-N-P103-P12-P103-601509

>  <HIPPO Pose ID>  (4577) 
516111

>  <name>  (4577) 
PIQUSVZGLQEALW-UHFFFAOYSA-N-P103-P12-P103-601509

>  <HIPPO Compound ID>  (4577) 
293441

>  <ref_mols>  (4577) 
A0497a,A1105b

>  <distance_score>  (4577) 
1.473275

>  <inspiration_score>  (4577) 
None

$$$$
QKRMFYOIFVKIIQ-UHFFFAOYSA-N-P12-P12-P103-601509
     RDKit          3D

 26 29  0  0  0  0  0  0  0  0999 V2000
   16.4938   -6.9749   18.0667 C   0  0  0  0  0  0  0  0  0  0  0  0
   17.5352   -7.2993   17.1250 N   0  0  0  0  0  0  0  0  0  0  0  0
   18.7534   -6.6911   17.0236 C   0  0  0  0  0  0  0  0  0  0  0  0
   19.3567   -7.2434   15.9247 C   0  0  0  0  0  0  0  0  0  0  0  0
   20.5949   -6.8980   15.3349 C   0  0  0  0  0  0  0  0  0  0  0  0
   21.5224   -5.7373   15.6047 C   0  0  2  0  0  0  0  0  0  0  0  0
   22.5520   -5.6467   14.6290 O   0  0  0  0  0  0  0  0  0  0  0  0
   22.1938   -5.7883   16.8867 N   0  0  0  0  0  0  0  0  0  0  0  0
   21.7943   -4.6418   17.6854 C   0  0  2  0  0  0  0  0  0  0  0  0
   22.3375   -3.2832   17.2416 C   0  0  0  0  0  0  0  0  0  0  0  0
   21.8231   -2.3676   18.3614 C   0  0  0  0  0  0  0  0  0  0  0  0
   21.6526   -3.2408   19.5531 N   0  0  0  0  0  0  0  0  0  0  0  0
   20.3058   -3.3341   20.0076 C   0  0  0  0  0  0  0  0  0  0  0  0
   19.8509   -4.5783   20.3137 N   0  0  0  0  0  0  0  0  0  0  0  0
   18.6057   -4.7533   20.7854 C   0  0  0  0  0  0  0  0  0  0  0  0
   17.7195   -3.7221   20.9534 C   0  0  0  0  0  0  0  0  0  0  0  0
   18.1420   -2.4467   20.6311 C   0  0  0  0  0  0  0  0  0  0  0  0
   19.4552   -2.2332   20.2063 C   0  0  0  0  0  0  0  0  0  0  0  0
   19.9655   -0.5775   20.1330 Cl  0  0  0  0  0  0  0  0  0  0  0  0
   22.1931   -4.5792   19.1680 C   0  0  0  0  0  0  0  0  0  0  0  0
   20.8246   -7.7415   14.2139 C   0  0  0  0  0  0  0  0  0  0  0  0
   19.9349   -8.7433   13.7457 C   0  0  0  0  0  0  0  0  0  0  0  0
   20.2978   -9.4398   12.6566 F   0  0  0  0  0  0  0  0  0  0  0  0
   18.7010   -9.0389   14.3291 C   0  0  0  0  0  0  0  0  0  0  0  0
   18.4232   -8.2541   15.4513 C   0  0  0  0  0  0  0  0  0  0  0  0
   17.3229   -8.2702   16.2211 N   0  0  0  0  0  0  0  0  0  0  0  0
  1  2  1  0
  2  3  1  0
  3  4  2  0
  4  5  1  0
  5  6  1  0
  6  7  1  6
  6  8  1  0
  9  8  1  6
  9 10  1  0
 10 11  1  0
 11 12  1  0
 12 13  1  0
 13 14  2  0
 14 15  1  0
 15 16  2  0
 16 17  1  0
 17 18  2  0
 18 19  1  0
 12 20  1  0
  5 21  2  0
 21 22  1  0
 22 23  1  0
 22 24  2  0
 24 25  1  0
 25 26  2  0
 26  2  1  0
 25  4  1  0
 20  9  1  0
 18 13  1  0
M  END
>  <energy_score>  (4578) 
-41.192004

>  <inchikey>  (4578) 
QKRMFYOIFVKIIQ-UHFFFAOYSA-N

>  <smiles>  (4578) 
Cn1cc2c(C(O)NC3CCN(c4ncccc4Cl)C3)cc(F)cc2n1

>  <ref_pdb>  (4578) 
A3181a

>  <alias>  (4578) 
QKRMFYOIFVKIIQ-UHFFFAOYSA-N-P12-P12-P103-601509

>  <HIPPO Pose ID>  (4578) 
516112

>  <name>  (4578) 
QKRMFYOIFVKIIQ-UHFFFAOYSA-N-P12-P12-P103-601509

>  <HIPPO Compound ID>  (4578) 
293442

>  <ref_mols>  (4578) 
A0497a,A1105b

>  <distance_score>  (4578) 
1.860774

>  <inspiration_score>  (4578) 
None

$$$$
QKRMFYOIFVKIIQ-UHFFFAOYSA-N-P103-P12-P103-601509
     RDKit          3D

 26 29  0  0  0  0  0  0  0  0999 V2000
   16.1165   -7.9321   18.4624 C   0  0  0  0  0  0  0  0  0  0  0  0
   17.2325   -7.9305   17.5467 N   0  0  0  0  0  0  0  0  0  0  0  0
   18.5606   -7.8561   17.8693 C   0  0  0  0  0  0  0  0  0  0  0  0
   19.2335   -7.8546   16.6731 C   0  0  0  0  0  0  0  0  0  0  0  0
   20.6254   -7.8032   16.4415 C   0  0  0  0  0  0  0  0  0  0  0  0
   21.8386   -7.9520   17.3348 C   0  0  2  0  0  0  0  0  0  0  0  0
   22.1548   -9.3272   17.3759 O   0  0  0  0  0  0  0  0  0  0  0  0
   21.7570   -7.5349   18.7157 N   0  0  0  0  0  0  0  0  0  0  0  0
   21.5512   -6.0965   18.8301 C   0  0  2  0  0  0  0  0  0  0  0  0
   22.7597   -5.2078   18.5150 C   0  0  0  0  0  0  0  0  0  0  0  0
   22.4668   -3.8876   19.2563 C   0  0  0  0  0  0  0  0  0  0  0  0
   21.2818   -4.1371   20.0851 N   0  0  0  0  0  0  0  0  0  0  0  0
   20.0030   -3.6762   19.7466 C   0  0  0  0  0  0  0  0  0  0  0  0
   19.1631   -3.7039   20.8164 N   0  0  0  0  0  0  0  0  0  0  0  0
   17.8487   -3.4947   20.6290 C   0  0  0  0  0  0  0  0  0  0  0  0
   17.2785   -3.3029   19.3909 C   0  0  0  0  0  0  0  0  0  0  0  0
   18.1183   -3.2493   18.2937 C   0  0  0  0  0  0  0  0  0  0  0  0
   19.4972   -3.3882   18.4610 C   0  0  0  0  0  0  0  0  0  0  0  0
   20.4312   -3.2538   17.0113 Cl  0  0  0  0  0  0  0  0  0  0  0  0
   21.1938   -5.6039   20.2409 C   0  0  0  0  0  0  0  0  0  0  0  0
   20.8642   -7.7507   15.0328 C   0  0  0  0  0  0  0  0  0  0  0  0
   19.8663   -7.8209   14.0263 C   0  0  0  0  0  0  0  0  0  0  0  0
   20.2647   -7.7894   12.7445 F   0  0  0  0  0  0  0  0  0  0  0  0
   18.5036   -7.9596   14.2893 C   0  0  0  0  0  0  0  0  0  0  0  0
   18.1970   -7.9450   15.6539 C   0  0  0  0  0  0  0  0  0  0  0  0
   16.9897   -8.0418   16.2322 N   0  0  0  0  0  0  0  0  0  0  0  0
  1  2  1  0
  2  3  1  0
  3  4  2  0
  4  5  1  0
  5  6  1  0
  6  7  1  1
  6  8  1  0
  9  8  1  1
  9 10  1  0
 10 11  1  0
 11 12  1  0
 12 13  1  0
 13 14  2  0
 14 15  1  0
 15 16  2  0
 16 17  1  0
 17 18  2  0
 18 19  1  0
 12 20  1  0
  5 21  2  0
 21 22  1  0
 22 23  1  0
 22 24  2  0
 24 25  1  0
 25 26  2  0
 26  2  1  0
 25  4  1  0
 20  9  1  0
 18 13  1  0
M  END
>  <energy_score>  (4579) 
-39.78785

>  <inchikey>  (4579) 
QKRMFYOIFVKIIQ-UHFFFAOYSA-N

>  <smiles>  (4579) 
Cn1cc2c(C(O)NC3CCN(c4ncccc4Cl)C3)cc(F)cc2n1

>  <ref_pdb>  (4579) 
A3181a

>  <alias>  (4579) 
QKRMFYOIFVKIIQ-UHFFFAOYSA-N-P103-P12-P103-601509

>  <HIPPO Pose ID>  (4579) 
516113

>  <name>  (4579) 
QKRMFYOIFVKIIQ-UHFFFAOYSA-N-P103-P12-P103-601509

>  <HIPPO Compound ID>  (4579) 
293442

>  <ref_mols>  (4579) 
A0497a,A1105b

>  <distance_score>  (4579) 
1.40029

>  <inspiration_score>  (4579) 
None

$$$$
HLBZOISBSIQPMN-UHFFFAOYSA-N-P12-P12-P103-601509
     RDKit          3D

 26 29  0  0  0  0  0  0  0  0999 V2000
   19.9855   -9.7200   17.9351 C   0  0  0  0  0  0  0  0  0  0  0  0
   20.2045   -8.2866   17.5588 C   0  0  0  0  0  0  0  0  0  0  0  0
   20.1396   -7.8893   16.2346 C   0  0  0  0  0  0  0  0  0  0  0  0
   20.5845   -6.6194   15.9195 C   0  0  0  0  0  0  0  0  0  0  0  0
   21.0441   -5.7866   16.9359 C   0  0  0  0  0  0  0  0  0  0  0  0
   20.9650   -6.1866   18.2718 C   0  0  0  0  0  0  0  0  0  0  0  0
   21.2958   -5.3195   19.3371 N   0  0  0  0  0  0  0  0  0  0  0  0
   21.0485   -3.8693   19.1146 C   0  0  0  0  0  0  0  0  0  0  0  0
   20.2273   -3.4039   20.3167 C   0  0  0  0  0  0  0  0  0  0  0  0
   19.4352   -4.6524   20.6863 C   0  0  1  0  0  0  0  0  0  0  0  0
   18.3989   -5.0847   19.7415 N   0  0  0  0  0  0  0  0  0  0  0  0
   17.3735   -4.1623   19.3642 C   0  0  1  0  0  0  0  0  0  0  0  0
   17.8882   -3.0502   18.6789 O   0  0  0  0  0  0  0  0  0  0  0  0
   16.2683   -4.7879   18.5291 C   0  0  0  0  0  0  0  0  0  0  0  0
   15.1394   -3.9708   18.2369 C   0  0  0  0  0  0  0  0  0  0  0  0
   13.9681   -4.4191   17.5828 C   0  0  0  0  0  0  0  0  0  0  0  0
   13.0055   -3.5219   17.4098 F   0  0  0  0  0  0  0  0  0  0  0  0
   13.7499   -5.7132   17.1131 C   0  0  0  0  0  0  0  0  0  0  0  0
   14.8167   -6.5684   17.3773 C   0  0  0  0  0  0  0  0  0  0  0  0
   14.9291   -7.8691   17.0679 N   0  0  0  0  0  0  0  0  0  0  0  0
   16.1050   -8.2366   17.5937 N   0  0  0  0  0  0  0  0  0  0  0  0
   16.4832   -9.6260   17.5355 C   0  0  0  0  0  0  0  0  0  0  0  0
   16.8174   -7.2156   18.1532 C   0  0  0  0  0  0  0  0  0  0  0  0
   16.0227   -6.1044   18.0531 C   0  0  0  0  0  0  0  0  0  0  0  0
   20.6035   -5.6782   20.6028 C   0  0  0  0  0  0  0  0  0  0  0  0
   20.5984   -7.4602   18.5576 N   0  0  0  0  0  0  0  0  0  0  0  0
  1  2  1  0
  2  3  2  0
  3  4  1  0
  4  5  2  0
  5  6  1  0
  6  7  1  0
  7  8  1  0
  8  9  1  0
  9 10  1  0
 10 11  1  6
 11 12  1  0
 12 13  1  6
 12 14  1  0
 14 15  2  0
 15 16  1  0
 16 17  1  0
 16 18  2  0
 18 19  1  0
 19 20  2  0
 20 21  1  0
 21 22  1  0
 21 23  1  0
 23 24  2  0
 10 25  1  0
  6 26  2  0
 26  2  1  0
 25  7  1  0
 24 14  1  0
 24 19  1  0
M  END
>  <energy_score>  (4580) 
-28.581961

>  <inchikey>  (4580) 
HLBZOISBSIQPMN-UHFFFAOYSA-N

>  <smiles>  (4580) 
Cc1cccc(N2CCC(NC(O)c3cc(F)cc4nn(C)cc34)C2)n1

>  <ref_pdb>  (4580) 
A3181a

>  <alias>  (4580) 
HLBZOISBSIQPMN-UHFFFAOYSA-N-P12-P12-P103-601509

>  <HIPPO Pose ID>  (4580) 
516114

>  <name>  (4580) 
HLBZOISBSIQPMN-UHFFFAOYSA-N-P12-P12-P103-601509

>  <HIPPO Compound ID>  (4580) 
293443

>  <ref_mols>  (4580) 
A0497a,A1105b

>  <distance_score>  (4580) 
1.320642

>  <inspiration_score>  (4580) 
None

$$$$
HLBZOISBSIQPMN-UHFFFAOYSA-N-P103-P12-P103-601509
     RDKit          3D

 26 29  0  0  0  0  0  0  0  0999 V2000
   19.7692   -9.5364   17.6641 C   0  0  0  0  0  0  0  0  0  0  0  0
   20.0335   -8.1121   17.2845 C   0  0  0  0  0  0  0  0  0  0  0  0
   19.8945   -7.7034   15.9710 C   0  0  0  0  0  0  0  0  0  0  0  0
   20.3465   -6.4412   15.6377 C   0  0  0  0  0  0  0  0  0  0  0  0
   20.8781   -5.6194   16.6269 C   0  0  0  0  0  0  0  0  0  0  0  0
   20.8834   -6.0322   17.9606 C   0  0  0  0  0  0  0  0  0  0  0  0
   21.2893   -5.1800   19.0132 N   0  0  0  0  0  0  0  0  0  0  0  0
   21.0528   -3.7236   18.8261 C   0  0  0  0  0  0  0  0  0  0  0  0
   20.1546   -3.2897   19.9887 C   0  0  0  0  0  0  0  0  0  0  0  0
   19.4456   -4.5737   20.4089 C   0  0  1  0  0  0  0  0  0  0  0  0
   18.3666   -5.0865   19.5597 N   0  0  0  0  0  0  0  0  0  0  0  0
   17.5235   -4.1592   18.8629 C   0  0  1  0  0  0  0  0  0  0  0  0
   18.2344   -3.4455   17.8762 O   0  0  0  0  0  0  0  0  0  0  0  0
   16.3341   -4.7991   18.1942 C   0  0  0  0  0  0  0  0  0  0  0  0
   15.2797   -3.9353   17.8094 C   0  0  0  0  0  0  0  0  0  0  0  0
   14.0758   -4.3583   17.2132 C   0  0  0  0  0  0  0  0  0  0  0  0
   13.2384   -3.3999   16.8243 F   0  0  0  0  0  0  0  0  0  0  0  0
   13.7447   -5.6872   16.9501 C   0  0  0  0  0  0  0  0  0  0  0  0
   14.7443   -6.5887   17.3119 C   0  0  0  0  0  0  0  0  0  0  0  0
   14.7557   -7.9253   17.1794 N   0  0  0  0  0  0  0  0  0  0  0  0
   15.9086   -8.3048   17.7534 N   0  0  0  0  0  0  0  0  0  0  0  0
   16.1678   -9.7130   17.9210 C   0  0  0  0  0  0  0  0  0  0  0  0
   16.7072   -7.2721   18.1488 C   0  0  0  0  0  0  0  0  0  0  0  0
   15.9907   -6.1331   17.8954 C   0  0  0  0  0  0  0  0  0  0  0  0
   20.6534   -5.5454   20.3046 C   0  0  0  0  0  0  0  0  0  0  0  0
   20.5215   -7.3061   18.2576 N   0  0  0  0  0  0  0  0  0  0  0  0
  1  2  1  0
  2  3  2  0
  3  4  1  0
  4  5  2  0
  5  6  1  0
  6  7  1  0
  7  8  1  0
  8  9  1  0
  9 10  1  0
 10 11  1  6
 11 12  1  0
 12 13  1  6
 12 14  1  0
 14 15  2  0
 15 16  1  0
 16 17  1  0
 16 18  2  0
 18 19  1  0
 19 20  2  0
 20 21  1  0
 21 22  1  0
 21 23  1  0
 23 24  2  0
 10 25  1  0
  6 26  2  0
 26  2  1  0
 25  7  1  0
 24 14  1  0
 24 19  1  0
M  END
>  <energy_score>  (4581) 
-25.963092

>  <inchikey>  (4581) 
HLBZOISBSIQPMN-UHFFFAOYSA-N

>  <smiles>  (4581) 
Cc1cccc(N2CCC(NC(O)c3cc(F)cc4nn(C)cc34)C2)n1

>  <ref_pdb>  (4581) 
A3181a

>  <alias>  (4581) 
HLBZOISBSIQPMN-UHFFFAOYSA-N-P103-P12-P103-601509

>  <HIPPO Pose ID>  (4581) 
516115

>  <name>  (4581) 
HLBZOISBSIQPMN-UHFFFAOYSA-N-P103-P12-P103-601509

>  <HIPPO Compound ID>  (4581) 
293443

>  <ref_mols>  (4581) 
A0497a,A1105b

>  <distance_score>  (4581) 
1.237945

>  <inspiration_score>  (4581) 
None

$$$$
CSALEVFQSJIMIB-UHFFFAOYSA-N-P12-P12-P103-601509
     RDKit          3D

 27 30  0  0  0  0  0  0  0  0999 V2000
   18.4299   -7.8446   16.5923 C   0  0  0  0  0  0  0  0  0  0  0  0
   19.6121   -6.9572   16.7346 C   0  0  0  0  0  0  0  0  0  0  0  0
   20.3278   -6.5966   15.6086 C   0  0  0  0  0  0  0  0  0  0  0  0
   21.4190   -5.7630   15.7690 C   0  0  0  0  0  0  0  0  0  0  0  0
   21.7345   -5.2944   17.0388 C   0  0  0  0  0  0  0  0  0  0  0  0
   20.9510   -5.6611   18.1316 C   0  0  0  0  0  0  0  0  0  0  0  0
   21.1942   -5.0738   19.3965 N   0  0  0  0  0  0  0  0  0  0  0  0
   20.8640   -3.6218   19.3654 C   0  0  0  0  0  0  0  0  0  0  0  0
   19.9135   -3.3934   20.5394 C   0  0  0  0  0  0  0  0  0  0  0  0
   19.1849   -4.7275   20.6874 C   0  0  1  0  0  0  0  0  0  0  0  0
   18.1595   -5.0884   19.7028 N   0  0  0  0  0  0  0  0  0  0  0  0
   17.1996   -4.0928   19.3209 C   0  0  1  0  0  0  0  0  0  0  0  0
   17.8114   -3.0301   18.6347 O   0  0  0  0  0  0  0  0  0  0  0  0
   16.0499   -4.6546   18.4925 C   0  0  0  0  0  0  0  0  0  0  0  0
   15.0376   -3.7547   18.0529 C   0  0  0  0  0  0  0  0  0  0  0  0
   13.8866   -4.1247   17.3032 C   0  0  0  0  0  0  0  0  0  0  0  0
   13.5819   -5.4415   16.9311 C   0  0  0  0  0  0  0  0  0  0  0  0
   14.4920   -6.3856   17.4065 C   0  0  0  0  0  0  0  0  0  0  0  0
   14.4466   -7.7239   17.2871 N   0  0  0  0  0  0  0  0  0  0  0  0
   15.4434   -8.1590   18.0924 N   0  0  0  0  0  0  0  0  0  0  0  0
   15.5685   -9.5773   18.4053 C   0  0  0  0  0  0  0  0  0  0  0  0
   16.4266  -10.1993   17.5511 F   0  0  0  0  0  0  0  0  0  0  0  0
   16.0618   -9.7742   19.6606 F   0  0  0  0  0  0  0  0  0  0  0  0
   16.2385   -7.1530   18.5734 C   0  0  0  0  0  0  0  0  0  0  0  0
   15.6752   -5.9802   18.1420 C   0  0  0  0  0  0  0  0  0  0  0  0
   20.4048   -5.6744   20.5044 C   0  0  0  0  0  0  0  0  0  0  0  0
   19.9166   -6.5147   17.9759 N   0  0  0  0  0  0  0  0  0  0  0  0
  1  2  1  0
  2  3  2  0
  3  4  1  0
  4  5  2  0
  5  6  1  0
  6  7  1  0
  7  8  1  0
  8  9  1  0
  9 10  1  0
 10 11  1  6
 11 12  1  0
 12 13  1  6
 12 14  1  0
 14 15  2  0
 15 16  1  0
 16 17  2  0
 17 18  1  0
 18 19  2  0
 19 20  1  0
 20 21  1  0
 21 22  1  0
 21 23  1  0
 20 24  1  0
 24 25  2  0
 10 26  1  0
  6 27  2  0
 27  2  1  0
 26  7  1  0
 25 14  1  0
 25 18  1  0
M  END
>  <energy_score>  (4582) 
-28.782936

>  <inchikey>  (4582) 
CSALEVFQSJIMIB-UHFFFAOYSA-N

>  <smiles>  (4582) 
Cc1cccc(N2CCC(NC(O)c3cccc4nn(C(F)F)cc34)C2)n1

>  <ref_pdb>  (4582) 
A3181a

>  <alias>  (4582) 
CSALEVFQSJIMIB-UHFFFAOYSA-N-P12-P12-P103-601509

>  <HIPPO Pose ID>  (4582) 
516118

>  <name>  (4582) 
CSALEVFQSJIMIB-UHFFFAOYSA-N-P12-P12-P103-601509

>  <HIPPO Compound ID>  (4582) 
293445

>  <ref_mols>  (4582) 
A0497a,A1105b

>  <distance_score>  (4582) 
1.814268

>  <inspiration_score>  (4582) 
None

$$$$
CSALEVFQSJIMIB-UHFFFAOYSA-N-P103-P12-P103-601509
     RDKit          3D

 27 30  0  0  0  0  0  0  0  0999 V2000
   18.6335   -8.2913   16.9876 C   0  0  0  0  0  0  0  0  0  0  0  0
   19.5631   -7.1366   16.8847 C   0  0  0  0  0  0  0  0  0  0  0  0
   19.9949   -6.7233   15.6394 C   0  0  0  0  0  0  0  0  0  0  0  0
   20.9333   -5.7100   15.5807 C   0  0  0  0  0  0  0  0  0  0  0  0
   21.3755   -5.1217   16.7597 C   0  0  0  0  0  0  0  0  0  0  0  0
   20.8504   -5.5307   17.9846 C   0  0  0  0  0  0  0  0  0  0  0  0
   21.1807   -4.8391   19.1746 N   0  0  0  0  0  0  0  0  0  0  0  0
   20.8568   -3.3905   19.0778 C   0  0  0  0  0  0  0  0  0  0  0  0
   19.8260   -3.1148   20.1779 C   0  0  0  0  0  0  0  0  0  0  0  0
   19.2037   -4.4774   20.4906 C   0  0  1  0  0  0  0  0  0  0  0  0
   18.1505   -5.0231   19.6149 N   0  0  0  0  0  0  0  0  0  0  0  0
   17.3648   -4.0837   18.8532 C   0  0  1  0  0  0  0  0  0  0  0  0
   18.1512   -3.4496   17.8687 O   0  0  0  0  0  0  0  0  0  0  0  0
   16.1528   -4.6848   18.1798 C   0  0  0  0  0  0  0  0  0  0  0  0
   15.1633   -3.7822   17.7068 C   0  0  0  0  0  0  0  0  0  0  0  0
   13.9552   -4.1503   17.0690 C   0  0  0  0  0  0  0  0  0  0  0  0
   13.5855   -5.4819   16.8539 C   0  0  0  0  0  0  0  0  0  0  0  0
   14.4859   -6.4250   17.3484 C   0  0  0  0  0  0  0  0  0  0  0  0
   14.3850   -7.7655   17.3453 N   0  0  0  0  0  0  0  0  0  0  0  0
   15.3995   -8.1662   18.1482 N   0  0  0  0  0  0  0  0  0  0  0  0
   15.4870   -9.5536   18.5854 C   0  0  0  0  0  0  0  0  0  0  0  0
   16.2277  -10.2963   17.7165 F   0  0  0  0  0  0  0  0  0  0  0  0
   16.0961   -9.6655   19.7995 F   0  0  0  0  0  0  0  0  0  0  0  0
   16.2478   -7.1528   18.5054 C   0  0  0  0  0  0  0  0  0  0  0  0
   15.7177   -6.0083   17.9765 C   0  0  0  0  0  0  0  0  0  0  0  0
   20.4862   -5.3507   20.3814 C   0  0  0  0  0  0  0  0  0  0  0  0
   19.9790   -6.5645   18.0376 N   0  0  0  0  0  0  0  0  0  0  0  0
  1  2  1  0
  2  3  2  0
  3  4  1  0
  4  5  2  0
  5  6  1  0
  6  7  1  0
  7  8  1  0
  8  9  1  0
  9 10  1  0
 10 11  1  6
 11 12  1  0
 12 13  1  6
 12 14  1  0
 14 15  2  0
 15 16  1  0
 16 17  2  0
 17 18  1  0
 18 19  2  0
 19 20  1  0
 20 21  1  0
 21 22  1  0
 21 23  1  0
 20 24  1  0
 24 25  2  0
 10 26  1  0
  6 27  2  0
 27  2  1  0
 26  7  1  0
 25 14  1  0
 25 18  1  0
M  END
>  <energy_score>  (4583) 
-26.29005

>  <inchikey>  (4583) 
CSALEVFQSJIMIB-UHFFFAOYSA-N

>  <smiles>  (4583) 
Cc1cccc(N2CCC(NC(O)c3cccc4nn(C(F)F)cc34)C2)n1

>  <ref_pdb>  (4583) 
A3181a

>  <alias>  (4583) 
CSALEVFQSJIMIB-UHFFFAOYSA-N-P103-P12-P103-601509

>  <HIPPO Pose ID>  (4583) 
516119

>  <name>  (4583) 
CSALEVFQSJIMIB-UHFFFAOYSA-N-P103-P12-P103-601509

>  <HIPPO Compound ID>  (4583) 
293445

>  <ref_mols>  (4583) 
A0497a,A1105b

>  <distance_score>  (4583) 
1.692872

>  <inspiration_score>  (4583) 
None

$$$$
KWONQQLDDDJRAU-UHFFFAOYSA-N-P12-P12-P103-601509
     RDKit          3D

 27 30  0  0  0  0  0  0  0  0999 V2000
   14.6322   -9.0844   17.9505 O   0  0  0  0  0  0  0  0  0  0  0  0
   15.8195   -8.3329   17.7911 C   0  0  1  0  0  0  0  0  0  0  0  0
   16.3856   -8.8105   16.5562 N   0  0  0  0  0  0  0  0  0  0  0  0
   17.8054   -8.5684   16.2988 C   0  0  2  0  0  0  0  0  0  0  0  0
   18.8174   -8.9436   17.3788 C   0  0  0  0  0  0  0  0  0  0  0  0
   20.0722   -8.1270   17.0508 C   0  0  0  0  0  0  0  0  0  0  0  0
   19.7355   -7.2885   15.8923 N   0  0  0  0  0  0  0  0  0  0  0  0
   20.2621   -7.7728   14.6816 C   0  0  0  0  0  0  0  0  0  0  0  0
   19.4084   -8.1421   13.6948 N   0  0  0  0  0  0  0  0  0  0  0  0
   19.9268   -8.5927   12.5360 C   0  0  0  0  0  0  0  0  0  0  0  0
   21.2840   -8.6963   12.2811 C   0  0  0  0  0  0  0  0  0  0  0  0
   22.1646   -8.3122   13.2817 C   0  0  0  0  0  0  0  0  0  0  0  0
   21.6505   -7.8473   14.4862 C   0  0  0  0  0  0  0  0  0  0  0  0
   22.5081   -7.4815   15.4525 F   0  0  0  0  0  0  0  0  0  0  0  0
   18.2798   -7.1826   15.8447 C   0  0  0  0  0  0  0  0  0  0  0  0
   15.4842   -6.8733   17.8005 C   0  0  0  0  0  0  0  0  0  0  0  0
   14.2552   -6.3501   17.3053 C   0  0  0  0  0  0  0  0  0  0  0  0
   13.8620   -4.9795   17.3853 C   0  0  0  0  0  0  0  0  0  0  0  0
   14.6505   -3.9811   17.9804 C   0  0  0  0  0  0  0  0  0  0  0  0
   15.8876   -4.4331   18.4514 C   0  0  0  0  0  0  0  0  0  0  0  0
   16.8794   -3.7449   19.0404 N   0  0  0  0  0  0  0  0  0  0  0  0
   17.8648   -4.6557   19.2388 N   0  0  0  0  0  0  0  0  0  0  0  0
   19.1840   -4.2423   19.7067 C   0  0  0  0  0  0  0  0  0  0  0  0
   19.1187   -3.5502   20.8753 F   0  0  0  0  0  0  0  0  0  0  0  0
   19.9844   -5.3201   19.9546 F   0  0  0  0  0  0  0  0  0  0  0  0
   17.4853   -5.9416   18.9407 C   0  0  0  0  0  0  0  0  0  0  0  0
   16.2606   -5.8329   18.3338 C   0  0  0  0  0  0  0  0  0  0  0  0
  2  1  1  6
  2  3  1  0
  4  3  1  1
  4  5  1  0
  5  6  1  0
  6  7  1  0
  7  8  1  0
  8  9  2  0
  9 10  1  0
 10 11  2  0
 11 12  1  0
 12 13  2  0
 13 14  1  0
  7 15  1  0
  2 16  1  0
 16 17  2  0
 17 18  1  0
 18 19  2  0
 19 20  1  0
 20 21  2  0
 21 22  1  0
 22 23  1  0
 23 24  1  0
 23 25  1  0
 22 26  1  0
 26 27  2  0
 15  4  1  0
 27 16  1  0
 13  8  1  0
 27 20  1  0
M  END
>  <energy_score>  (4584) 
-44.309375

>  <inchikey>  (4584) 
KWONQQLDDDJRAU-UHFFFAOYSA-N

>  <smiles>  (4584) 
OC(NC1CCN(c2ncccc2F)C1)c1cccc2nn(C(F)F)cc12

>  <ref_pdb>  (4584) 
A3181a

>  <alias>  (4584) 
KWONQQLDDDJRAU-UHFFFAOYSA-N-P12-P12-P103-601509

>  <HIPPO Pose ID>  (4584) 
516120

>  <name>  (4584) 
KWONQQLDDDJRAU-UHFFFAOYSA-N-P12-P12-P103-601509

>  <HIPPO Compound ID>  (4584) 
293446

>  <ref_mols>  (4584) 
A0497a,A1105b

>  <distance_score>  (4584) 
1.90907

>  <inspiration_score>  (4584) 
None

$$$$
DYFVACPTKCZATH-UHFFFAOYSA-N-P12-P12-P103-601509
     RDKit          3D

 27 30  0  0  0  0  0  0  0  0999 V2000
   16.7544   -9.0005   13.2693 C   0  0  0  0  0  0  0  0  0  0  0  0
   18.0817   -8.5459   13.0349 O   0  0  0  0  0  0  0  0  0  0  0  0
   18.6988   -7.9487   14.1186 C   0  0  0  0  0  0  0  0  0  0  0  0
   20.0220   -7.5088   13.9166 C   0  0  0  0  0  0  0  0  0  0  0  0
   20.8029   -6.8677   14.9229 C   0  0  0  0  0  0  0  0  0  0  0  0
   20.3539   -6.5760   16.2416 C   0  0  0  0  0  0  0  0  0  0  0  0
   21.2632   -5.9278   17.2594 C   0  0  1  0  0  0  0  0  0  0  0  0
   22.3427   -6.8169   17.5091 O   0  0  0  0  0  0  0  0  0  0  0  0
   21.7948   -4.6464   16.8194 N   0  0  0  0  0  0  0  0  0  0  0  0
   22.7721   -4.0545   17.7613 C   0  0  1  0  0  0  0  0  0  0  0  0
   22.8076   -2.5433   17.5193 C   0  0  0  0  0  0  0  0  0  0  0  0
   21.5671   -2.0509   18.2733 C   0  0  0  0  0  0  0  0  0  0  0  0
   21.4338   -2.9700   19.4065 N   0  0  0  0  0  0  0  0  0  0  0  0
   20.1853   -3.3347   19.8945 C   0  0  0  0  0  0  0  0  0  0  0  0
   20.1681   -4.3679   20.7795 N   0  0  0  0  0  0  0  0  0  0  0  0
   19.0177   -4.6889   21.4012 C   0  0  0  0  0  0  0  0  0  0  0  0
   17.8222   -4.0514   21.1647 C   0  0  0  0  0  0  0  0  0  0  0  0
   17.7989   -3.0460   20.2155 C   0  0  0  0  0  0  0  0  0  0  0  0
   18.9907   -2.6581   19.6152 C   0  0  0  0  0  0  0  0  0  0  0  0
   18.9561   -1.5562   18.8563 F   0  0  0  0  0  0  0  0  0  0  0  0
   22.4157   -4.0570   19.2689 C   0  0  0  0  0  0  0  0  0  0  0  0
   19.0353   -7.0368   16.4126 C   0  0  0  0  0  0  0  0  0  0  0  0
   18.2738   -6.9258   17.5476 C   0  0  0  0  0  0  0  0  0  0  0  0
   17.0692   -7.4758   17.2226 N   0  0  0  0  0  0  0  0  0  0  0  0
   15.9025   -7.5403   18.0695 C   0  0  0  0  0  0  0  0  0  0  0  0
   17.0057   -7.9876   15.9813 N   0  0  0  0  0  0  0  0  0  0  0  0
   18.1996   -7.7019   15.4225 C   0  0  0  0  0  0  0  0  0  0  0  0
  1  2  1  0
  2  3  1  0
  3  4  2  0
  4  5  1  0
  5  6  2  0
  6  7  1  0
  7  8  1  6
  7  9  1  0
 10  9  1  6
 10 11  1  0
 11 12  1  0
 12 13  1  0
 13 14  1  0
 14 15  2  0
 15 16  1  0
 16 17  2  0
 17 18  1  0
 18 19  2  0
 19 20  1  0
 13 21  1  0
  6 22  1  0
 22 23  2  0
 23 24  1  0
 24 25  1  0
 24 26  1  0
 26 27  2  0
 27  3  1  0
 21 10  1  0
 27 22  1  0
 19 14  1  0
M  END
>  <energy_score>  (4585) 
-65.172335

>  <inchikey>  (4585) 
DYFVACPTKCZATH-UHFFFAOYSA-N

>  <smiles>  (4585) 
COc1ccc(C(O)NC2CCN(c3ncccc3F)C2)c2cn(C)nc12

>  <ref_pdb>  (4585) 
A3181a

>  <alias>  (4585) 
DYFVACPTKCZATH-UHFFFAOYSA-N-P12-P12-P103-601509

>  <HIPPO Pose ID>  (4585) 
516124

>  <name>  (4585) 
DYFVACPTKCZATH-UHFFFAOYSA-N-P12-P12-P103-601509

>  <HIPPO Compound ID>  (4585) 
293448

>  <ref_mols>  (4585) 
A0497a,A1105b

>  <distance_score>  (4585) 
1.28959

>  <inspiration_score>  (4585) 
None

$$$$
DYFVACPTKCZATH-UHFFFAOYSA-N-P103-P12-P103-601509
     RDKit          3D

 27 30  0  0  0  0  0  0  0  0999 V2000
   18.5823   -9.1232   12.1101 C   0  0  0  0  0  0  0  0  0  0  0  0
   17.9016   -8.6197   13.2495 O   0  0  0  0  0  0  0  0  0  0  0  0
   18.6877   -8.1438   14.2602 C   0  0  0  0  0  0  0  0  0  0  0  0
   20.0644   -7.8437   14.1859 C   0  0  0  0  0  0  0  0  0  0  0  0
   20.8328   -7.3650   15.2947 C   0  0  0  0  0  0  0  0  0  0  0  0
   20.3219   -7.0971   16.5932 C   0  0  0  0  0  0  0  0  0  0  0  0
   21.1884   -6.7140   17.7654 C   0  0  1  0  0  0  0  0  0  0  0  0
   21.4105   -7.8794   18.5566 O   0  0  0  0  0  0  0  0  0  0  0  0
   22.5238   -6.2594   17.4195 N   0  0  0  0  0  0  0  0  0  0  0  0
   22.7623   -4.8036   17.4026 C   0  0  1  0  0  0  0  0  0  0  0  0
   22.1339   -4.0521   16.2325 C   0  0  0  0  0  0  0  0  0  0  0  0
   20.7884   -3.5773   16.7631 C   0  0  0  0  0  0  0  0  0  0  0  0
   21.0050   -3.3898   18.2003 N   0  0  0  0  0  0  0  0  0  0  0  0
   19.9157   -3.4686   19.0589 C   0  0  0  0  0  0  0  0  0  0  0  0
   20.1541   -3.8572   20.3384 N   0  0  0  0  0  0  0  0  0  0  0  0
   19.1184   -3.9668   21.1934 C   0  0  0  0  0  0  0  0  0  0  0  0
   17.8109   -3.7097   20.8437 C   0  0  0  0  0  0  0  0  0  0  0  0
   17.5467   -3.3118   19.5425 C   0  0  0  0  0  0  0  0  0  0  0  0
   18.6057   -3.1698   18.6574 C   0  0  0  0  0  0  0  0  0  0  0  0
   18.3329   -2.7192   17.4268 F   0  0  0  0  0  0  0  0  0  0  0  0
   22.2771   -3.9851   18.6235 C   0  0  0  0  0  0  0  0  0  0  0  0
   18.9442   -7.3668   16.6175 C   0  0  0  0  0  0  0  0  0  0  0  0
   18.1080   -7.2052   17.6921 C   0  0  0  0  0  0  0  0  0  0  0  0
   16.8786   -7.5923   17.2424 N   0  0  0  0  0  0  0  0  0  0  0  0
   15.6396   -7.5346   17.9817 C   0  0  0  0  0  0  0  0  0  0  0  0
   16.8756   -8.0819   15.9906 N   0  0  0  0  0  0  0  0  0  0  0  0
   18.1297   -7.8854   15.5361 C   0  0  0  0  0  0  0  0  0  0  0  0
  1  2  1  0
  2  3  1  0
  3  4  2  0
  4  5  1  0
  5  6  2  0
  6  7  1  0
  7  8  1  1
  7  9  1  0
 10  9  1  1
 10 11  1  0
 11 12  1  0
 12 13  1  0
 13 14  1  0
 14 15  2  0
 15 16  1  0
 16 17  2  0
 17 18  1  0
 18 19  2  0
 19 20  1  0
 13 21  1  0
  6 22  1  0
 22 23  2  0
 23 24  1  0
 24 25  1  0
 24 26  1  0
 26 27  2  0
 27  3  1  0
 21 10  1  0
 27 22  1  0
 19 14  1  0
M  END
>  <energy_score>  (4586) 
-59.693574

>  <inchikey>  (4586) 
DYFVACPTKCZATH-UHFFFAOYSA-N

>  <smiles>  (4586) 
COc1ccc(C(O)NC2CCN(c3ncccc3F)C2)c2cn(C)nc12

>  <ref_pdb>  (4586) 
A3181a

>  <alias>  (4586) 
DYFVACPTKCZATH-UHFFFAOYSA-N-P103-P12-P103-601509

>  <HIPPO Pose ID>  (4586) 
516125

>  <name>  (4586) 
DYFVACPTKCZATH-UHFFFAOYSA-N-P103-P12-P103-601509

>  <HIPPO Compound ID>  (4586) 
293448

>  <ref_mols>  (4586) 
A0497a,A1105b

>  <distance_score>  (4586) 
1.016785

>  <inspiration_score>  (4586) 
None

$$$$
OFLBHDHQDOWIQT-UHFFFAOYSA-N-P12-P12-P103-601509
     RDKit          3D

 27 30  0  0  0  0  0  0  0  0999 V2000
   17.3390   -8.3471   12.7249 C   0  0  0  0  0  0  0  0  0  0  0  0
   18.5844   -7.7197   13.0069 O   0  0  0  0  0  0  0  0  0  0  0  0
   18.8523   -7.5463   14.3521 C   0  0  0  0  0  0  0  0  0  0  0  0
   20.1768   -7.1927   14.6927 C   0  0  0  0  0  0  0  0  0  0  0  0
   20.6245   -6.9937   16.0374 C   0  0  0  0  0  0  0  0  0  0  0  0
   19.7950   -7.1017   17.1857 C   0  0  0  0  0  0  0  0  0  0  0  0
   20.2865   -7.0651   18.6049 C   0  0  1  0  0  0  0  0  0  0  0  0
   20.5576   -8.4071   18.9720 O   0  0  0  0  0  0  0  0  0  0  0  0
   21.4774   -6.2649   18.8332 N   0  0  0  0  0  0  0  0  0  0  0  0
   22.0381   -6.4619   20.1944 C   0  0  1  0  0  0  0  0  0  0  0  0
   23.0468   -5.3469   20.5131 C   0  0  0  0  0  0  0  0  0  0  0  0
   22.3735   -4.4367   21.5497 C   0  0  0  0  0  0  0  0  0  0  0  0
   20.9999   -4.9419   21.7390 N   0  0  0  0  0  0  0  0  0  0  0  0
   20.0313   -4.2620   20.9628 C   0  0  0  0  0  0  0  0  0  0  0  0
   20.4722   -3.5097   19.9245 N   0  0  0  0  0  0  0  0  0  0  0  0
   19.5704   -2.8472   19.1708 C   0  0  0  0  0  0  0  0  0  0  0  0
   18.2112   -2.9030   19.3739 C   0  0  0  0  0  0  0  0  0  0  0  0
   17.7537   -3.6618   20.4355 C   0  0  0  0  0  0  0  0  0  0  0  0
   18.6571   -4.3563   21.2402 C   0  0  0  0  0  0  0  0  0  0  0  0
   18.0379   -5.2496   22.5858 Cl  0  0  0  0  0  0  0  0  0  0  0  0
   21.0617   -6.3737   21.3958 C   0  0  0  0  0  0  0  0  0  0  0  0
   18.4790   -7.4028   16.8017 C   0  0  0  0  0  0  0  0  0  0  0  0
   17.4167   -7.5451   17.6560 C   0  0  0  0  0  0  0  0  0  0  0  0
   16.3548   -7.8270   16.8535 N   0  0  0  0  0  0  0  0  0  0  0  0
   14.9841   -8.0001   17.2752 C   0  0  0  0  0  0  0  0  0  0  0  0
   16.6622   -7.9449   15.5470 N   0  0  0  0  0  0  0  0  0  0  0  0
   17.9762   -7.6410   15.4639 C   0  0  0  0  0  0  0  0  0  0  0  0
  1  2  1  0
  2  3  1  0
  3  4  2  0
  4  5  1  0
  5  6  2  0
  6  7  1  0
  7  8  1  6
  7  9  1  0
 10  9  1  6
 10 11  1  0
 11 12  1  0
 12 13  1  0
 13 14  1  0
 14 15  2  0
 15 16  1  0
 16 17  2  0
 17 18  1  0
 18 19  2  0
 19 20  1  0
 13 21  1  0
  6 22  1  0
 22 23  2  0
 23 24  1  0
 24 25  1  0
 24 26  1  0
 26 27  2  0
 27  3  1  0
 21 10  1  0
 27 22  1  0
 19 14  1  0
M  END
>  <energy_score>  (4587) 
-47.458092

>  <inchikey>  (4587) 
OFLBHDHQDOWIQT-UHFFFAOYSA-N

>  <smiles>  (4587) 
COc1ccc(C(O)NC2CCN(c3ncccc3Cl)C2)c2cn(C)nc12

>  <ref_pdb>  (4587) 
A3181a

>  <alias>  (4587) 
OFLBHDHQDOWIQT-UHFFFAOYSA-N-P12-P12-P103-601509

>  <HIPPO Pose ID>  (4587) 
516126

>  <name>  (4587) 
OFLBHDHQDOWIQT-UHFFFAOYSA-N-P12-P12-P103-601509

>  <HIPPO Compound ID>  (4587) 
293449

>  <ref_mols>  (4587) 
A0497a,A1105b

>  <distance_score>  (4587) 
1.241492

>  <inspiration_score>  (4587) 
None

$$$$
OFLBHDHQDOWIQT-UHFFFAOYSA-N-P103-P12-P103-601509
     RDKit          3D

 27 30  0  0  0  0  0  0  0  0999 V2000
   17.5649   -9.1620   13.0679 C   0  0  0  0  0  0  0  0  0  0  0  0
   18.7075   -8.3231   13.1914 O   0  0  0  0  0  0  0  0  0  0  0  0
   18.9974   -7.9522   14.4918 C   0  0  0  0  0  0  0  0  0  0  0  0
   20.3169   -7.5229   14.7522 C   0  0  0  0  0  0  0  0  0  0  0  0
   20.7936   -7.1742   16.0559 C   0  0  0  0  0  0  0  0  0  0  0  0
   19.9985   -7.1843   17.2335 C   0  0  0  0  0  0  0  0  0  0  0  0
   20.5418   -7.0335   18.6281 C   0  0  1  0  0  0  0  0  0  0  0  0
   20.9340   -8.3222   19.0586 O   0  0  0  0  0  0  0  0  0  0  0  0
   21.6842   -6.1467   18.7617 N   0  0  0  0  0  0  0  0  0  0  0  0
   22.1410   -6.0372   20.1722 C   0  0  1  0  0  0  0  0  0  0  0  0
   23.1255   -4.8717   20.3092 C   0  0  0  0  0  0  0  0  0  0  0  0
   22.2737   -3.6521   20.6907 C   0  0  0  0  0  0  0  0  0  0  0  0
   20.9431   -4.1666   21.0935 N   0  0  0  0  0  0  0  0  0  0  0  0
   19.9153   -3.8665   20.1650 C   0  0  0  0  0  0  0  0  0  0  0  0
   20.2796   -3.6221   18.8817 N   0  0  0  0  0  0  0  0  0  0  0  0
   19.3215   -3.3914   17.9576 C   0  0  0  0  0  0  0  0  0  0  0  0
   17.9774   -3.3840   18.2412 C   0  0  0  0  0  0  0  0  0  0  0  0
   17.5960   -3.6057   19.5539 C   0  0  0  0  0  0  0  0  0  0  0  0
   18.5603   -3.8753   20.5279 C   0  0  0  0  0  0  0  0  0  0  0  0
   18.0473   -4.1877   22.1470 Cl  0  0  0  0  0  0  0  0  0  0  0  0
   21.0916   -5.6292   21.2395 C   0  0  0  0  0  0  0  0  0  0  0  0
   18.6726   -7.5205   16.9150 C   0  0  0  0  0  0  0  0  0  0  0  0
   17.6268   -7.5618   17.7998 C   0  0  0  0  0  0  0  0  0  0  0  0
   16.5505   -7.9374   17.0561 N   0  0  0  0  0  0  0  0  0  0  0  0
   15.1877   -8.0506   17.5213 C   0  0  0  0  0  0  0  0  0  0  0  0
   16.8392   -8.2335   15.7741 N   0  0  0  0  0  0  0  0  0  0  0  0
   18.1440   -7.9171   15.6244 C   0  0  0  0  0  0  0  0  0  0  0  0
  1  2  1  0
  2  3  1  0
  3  4  2  0
  4  5  1  0
  5  6  2  0
  6  7  1  0
  7  8  1  6
  7  9  1  0
 10  9  1  6
 10 11  1  0
 11 12  1  0
 12 13  1  0
 13 14  1  0
 14 15  2  0
 15 16  1  0
 16 17  2  0
 17 18  1  0
 18 19  2  0
 19 20  1  0
 13 21  1  0
  6 22  1  0
 22 23  2  0
 23 24  1  0
 24 25  1  0
 24 26  1  0
 26 27  2  0
 27  3  1  0
 21 10  1  0
 27 22  1  0
 19 14  1  0
M  END
>  <energy_score>  (4588) 
-49.496349

>  <inchikey>  (4588) 
OFLBHDHQDOWIQT-UHFFFAOYSA-N

>  <smiles>  (4588) 
COc1ccc(C(O)NC2CCN(c3ncccc3Cl)C2)c2cn(C)nc12

>  <ref_pdb>  (4588) 
A3181a

>  <alias>  (4588) 
OFLBHDHQDOWIQT-UHFFFAOYSA-N-P103-P12-P103-601509

>  <HIPPO Pose ID>  (4588) 
516127

>  <name>  (4588) 
OFLBHDHQDOWIQT-UHFFFAOYSA-N-P103-P12-P103-601509

>  <HIPPO Compound ID>  (4588) 
293449

>  <ref_mols>  (4588) 
A0497a,A1105b

>  <distance_score>  (4588) 
1.142713

>  <inspiration_score>  (4588) 
None

$$$$
RHVZBRBIXLFAST-UHFFFAOYSA-N-P12-P12-P103-601509
     RDKit          3D

 27 30  0  0  0  0  0  0  0  0999 V2000
   17.0319   -8.0708   12.7765 C   0  0  0  0  0  0  0  0  0  0  0  0
   18.1765   -7.2517   13.0010 O   0  0  0  0  0  0  0  0  0  0  0  0
   18.7159   -7.4028   14.2645 C   0  0  0  0  0  0  0  0  0  0  0  0
   20.0987   -7.1973   14.4025 C   0  0  0  0  0  0  0  0  0  0  0  0
   20.8021   -7.4041   15.6286 C   0  0  0  0  0  0  0  0  0  0  0  0
   20.2135   -7.8258   16.8616 C   0  0  0  0  0  0  0  0  0  0  0  0
   21.0662   -8.3830   17.9912 C   0  0  1  0  0  0  0  0  0  0  0  0
   22.3991   -7.9085   17.9974 O   0  0  0  0  0  0  0  0  0  0  0  0
   20.5384   -8.3163   19.3431 N   0  0  0  0  0  0  0  0  0  0  0  0
   20.5323   -6.9587   19.8991 C   0  0  2  0  0  0  0  0  0  0  0  0
   21.8054   -6.5695   20.6663 C   0  0  0  0  0  0  0  0  0  0  0  0
   21.3364   -5.6913   21.8394 C   0  0  0  0  0  0  0  0  0  0  0  0
   19.8629   -5.6007   21.7460 N   0  0  0  0  0  0  0  0  0  0  0  0
   19.4505   -4.4518   21.0097 C   0  0  0  0  0  0  0  0  0  0  0  0
   18.0905   -4.1879   20.8919 C   0  0  0  0  0  0  0  0  0  0  0  0
   17.6518   -3.2330   19.9850 C   0  0  0  0  0  0  0  0  0  0  0  0
   18.5906   -2.4986   19.2812 C   0  0  0  0  0  0  0  0  0  0  0  0
   19.9349   -2.7399   19.5145 C   0  0  0  0  0  0  0  0  0  0  0  0
   20.9938   -1.9316   18.8303 C   0  0  0  0  0  0  0  0  0  0  0  0
   20.3622   -3.7028   20.3609 N   0  0  0  0  0  0  0  0  0  0  0  0
   19.4536   -6.8030   20.9888 C   0  0  0  0  0  0  0  0  0  0  0  0
   18.8132   -7.8781   16.7085 C   0  0  0  0  0  0  0  0  0  0  0  0
   17.8902   -8.1537   17.6835 C   0  0  0  0  0  0  0  0  0  0  0  0
   16.6765   -8.0517   17.0747 N   0  0  0  0  0  0  0  0  0  0  0  0
   15.3828   -8.1268   17.7119 C   0  0  0  0  0  0  0  0  0  0  0  0
   16.7419   -7.8953   15.7413 N   0  0  0  0  0  0  0  0  0  0  0  0
   18.0513   -7.6963   15.4804 C   0  0  0  0  0  0  0  0  0  0  0  0
  1  2  1  0
  2  3  1  0
  3  4  2  0
  4  5  1  0
  5  6  2  0
  6  7  1  0
  7  8  1  1
  7  9  1  0
 10  9  1  1
 10 11  1  0
 11 12  1  0
 12 13  1  0
 13 14  1  0
 14 15  2  0
 15 16  1  0
 16 17  2  0
 17 18  1  0
 18 19  1  0
 18 20  2  0
 13 21  1  0
  6 22  1  0
 22 23  2  0
 23 24  1  0
 24 25  1  0
 24 26  1  0
 26 27  2  0
 27  3  1  0
 21 10  1  0
 27 22  1  0
 20 14  1  0
M  END
>  <energy_score>  (4589) 
-33.814376

>  <inchikey>  (4589) 
RHVZBRBIXLFAST-UHFFFAOYSA-N

>  <smiles>  (4589) 
COc1ccc(C(O)NC2CCN(c3cccc(C)n3)C2)c2cn(C)nc12

>  <ref_pdb>  (4589) 
A3181a

>  <alias>  (4589) 
RHVZBRBIXLFAST-UHFFFAOYSA-N-P12-P12-P103-601509

>  <HIPPO Pose ID>  (4589) 
516128

>  <name>  (4589) 
RHVZBRBIXLFAST-UHFFFAOYSA-N-P12-P12-P103-601509

>  <HIPPO Compound ID>  (4589) 
293450

>  <ref_mols>  (4589) 
A0497a,A1105b

>  <distance_score>  (4589) 
1.312646

>  <inspiration_score>  (4589) 
None

$$$$
RHVZBRBIXLFAST-UHFFFAOYSA-N-P103-P12-P103-601509
     RDKit          3D

 27 30  0  0  0  0  0  0  0  0999 V2000
   17.2842   -9.0656   13.1203 C   0  0  0  0  0  0  0  0  0  0  0  0
   18.3108   -8.0831   13.2258 O   0  0  0  0  0  0  0  0  0  0  0  0
   18.8028   -7.9643   14.5113 C   0  0  0  0  0  0  0  0  0  0  0  0
   20.1751   -7.7053   14.6635 C   0  0  0  0  0  0  0  0  0  0  0  0
   20.8361   -7.7234   15.9318 C   0  0  0  0  0  0  0  0  0  0  0  0
   20.2079   -7.9859   17.1904 C   0  0  0  0  0  0  0  0  0  0  0  0
   21.0153   -8.4323   18.4045 C   0  0  1  0  0  0  0  0  0  0  0  0
   22.3710   -8.0266   18.3677 O   0  0  0  0  0  0  0  0  0  0  0  0
   20.4852   -8.1672   19.7345 N   0  0  0  0  0  0  0  0  0  0  0  0
   20.4842   -6.7405   20.0668 C   0  0  2  0  0  0  0  0  0  0  0  0
   21.7244   -6.2310   20.8090 C   0  0  0  0  0  0  0  0  0  0  0  0
   21.2386   -5.0126   21.6190 C   0  0  0  0  0  0  0  0  0  0  0  0
   19.7552   -4.9944   21.5378 N   0  0  0  0  0  0  0  0  0  0  0  0
   19.3160   -4.1041   20.5048 C   0  0  0  0  0  0  0  0  0  0  0  0
   17.9631   -3.7977   20.4251 C   0  0  0  0  0  0  0  0  0  0  0  0
   17.4512   -3.3013   19.2309 C   0  0  0  0  0  0  0  0  0  0  0  0
   18.3116   -3.0916   18.1629 C   0  0  0  0  0  0  0  0  0  0  0  0
   19.6664   -3.3026   18.3505 C   0  0  0  0  0  0  0  0  0  0  0  0
   20.6338   -3.1380   17.2178 C   0  0  0  0  0  0  0  0  0  0  0  0
   20.1669   -3.7777   19.5119 N   0  0  0  0  0  0  0  0  0  0  0  0
   19.3810   -6.3569   21.0750 C   0  0  0  0  0  0  0  0  0  0  0  0
   18.8136   -8.0472   17.0001 C   0  0  0  0  0  0  0  0  0  0  0  0
   17.8590   -8.1696   17.9750 C   0  0  0  0  0  0  0  0  0  0  0  0
   16.6664   -8.1557   17.3170 N   0  0  0  0  0  0  0  0  0  0  0  0
   15.3528   -8.1148   17.9158 C   0  0  0  0  0  0  0  0  0  0  0  0
   16.7785   -8.2278   15.9789 N   0  0  0  0  0  0  0  0  0  0  0  0
   18.0944   -8.0574   15.7335 C   0  0  0  0  0  0  0  0  0  0  0  0
  1  2  1  0
  2  3  1  0
  3  4  2  0
  4  5  1  0
  5  6  2  0
  6  7  1  0
  7  8  1  1
  7  9  1  0
 10  9  1  1
 10 11  1  0
 11 12  1  0
 12 13  1  0
 13 14  1  0
 14 15  2  0
 15 16  1  0
 16 17  2  0
 17 18  1  0
 18 19  1  0
 18 20  2  0
 13 21  1  0
  6 22  1  0
 22 23  2  0
 23 24  1  0
 24 25  1  0
 24 26  1  0
 26 27  2  0
 27  3  1  0
 21 10  1  0
 27 22  1  0
 20 14  1  0
M  END
>  <energy_score>  (4590) 
-29.719653

>  <inchikey>  (4590) 
RHVZBRBIXLFAST-UHFFFAOYSA-N

>  <smiles>  (4590) 
COc1ccc(C(O)NC2CCN(c3cccc(C)n3)C2)c2cn(C)nc12

>  <ref_pdb>  (4590) 
A3181a

>  <alias>  (4590) 
RHVZBRBIXLFAST-UHFFFAOYSA-N-P103-P12-P103-601509

>  <HIPPO Pose ID>  (4590) 
516129

>  <name>  (4590) 
RHVZBRBIXLFAST-UHFFFAOYSA-N-P103-P12-P103-601509

>  <HIPPO Compound ID>  (4590) 
293450

>  <ref_mols>  (4590) 
A0497a,A1105b

>  <distance_score>  (4590) 
1.237015

>  <inspiration_score>  (4590) 
None

$$$$
FVMATBAWBRYLBY-UHFFFAOYSA-N-P12-P12-P103-601509
     RDKit          3D

 27 30  0  0  0  0  0  0  0  0999 V2000
   18.3168   -8.4247   16.7842 C   0  0  0  0  0  0  0  0  0  0  0  0
   19.3465   -7.3551   16.8427 C   0  0  0  0  0  0  0  0  0  0  0  0
   20.0070   -6.9870   15.6836 C   0  0  0  0  0  0  0  0  0  0  0  0
   21.0526   -6.0879   15.7830 C   0  0  0  0  0  0  0  0  0  0  0  0
   21.3833   -5.5715   17.0289 C   0  0  0  0  0  0  0  0  0  0  0  0
   20.6369   -5.9283   18.1532 C   0  0  0  0  0  0  0  0  0  0  0  0
   20.9132   -5.3169   19.3986 N   0  0  0  0  0  0  0  0  0  0  0  0
   20.7550   -3.8386   19.3386 C   0  0  0  0  0  0  0  0  0  0  0  0
   19.8211   -3.4833   20.4943 C   0  0  0  0  0  0  0  0  0  0  0  0
   18.9678   -4.7365   20.6713 C   0  0  1  0  0  0  0  0  0  0  0  0
   17.9622   -5.0373   19.6571 N   0  0  0  0  0  0  0  0  0  0  0  0
   17.0413   -4.0145   19.2735 C   0  0  1  0  0  0  0  0  0  0  0  0
   17.6889   -2.9716   18.5915 O   0  0  0  0  0  0  0  0  0  0  0  0
   15.8885   -4.5871   18.4390 C   0  0  0  0  0  0  0  0  0  0  0  0
   14.9314   -3.6648   17.9853 C   0  0  0  0  0  0  0  0  0  0  0  0
   13.8322   -4.0559   17.2347 C   0  0  0  0  0  0  0  0  0  0  0  0
   13.5921   -5.3864   16.9182 C   0  0  0  0  0  0  0  0  0  0  0  0
   14.4848   -6.3281   17.4147 C   0  0  0  0  0  0  0  0  0  0  0  0
   15.6121   -5.9671   18.1509 C   0  0  0  0  0  0  0  0  0  0  0  0
   16.1493   -7.2196   18.5408 C   0  0  0  0  0  0  0  0  0  0  0  0
   15.4861   -8.2738   18.0545 N   0  0  0  0  0  0  0  0  0  0  0  0
   14.4888   -7.7002   17.3426 N   0  0  0  0  0  0  0  0  0  0  0  0
   13.5832   -8.5298   16.5612 C   0  0  0  0  0  0  0  0  0  0  0  0
   13.7674   -8.3320   15.2241 F   0  0  0  0  0  0  0  0  0  0  0  0
   12.2761   -8.2534   16.8130 F   0  0  0  0  0  0  0  0  0  0  0  0
   20.0775   -5.8033   20.5275 C   0  0  0  0  0  0  0  0  0  0  0  0
   19.6250   -6.8246   18.0524 N   0  0  0  0  0  0  0  0  0  0  0  0
  1  2  1  0
  2  3  2  0
  3  4  1  0
  4  5  2  0
  5  6  1  0
  6  7  1  0
  7  8  1  0
  8  9  1  0
  9 10  1  0
 10 11  1  6
 11 12  1  0
 12 13  1  6
 12 14  1  0
 14 15  2  0
 15 16  1  0
 16 17  2  0
 17 18  1  0
 18 19  2  0
 19 20  1  0
 20 21  2  0
 21 22  1  0
 22 23  1  0
 23 24  1  0
 23 25  1  0
 10 26  1  0
  6 27  2  0
 27  2  1  0
 26  7  1  0
 19 14  1  0
 22 18  1  0
M  END
>  <energy_score>  (4591) 
-41.085123

>  <inchikey>  (4591) 
FVMATBAWBRYLBY-UHFFFAOYSA-N

>  <smiles>  (4591) 
Cc1cccc(N2CCC(NC(O)c3cccc4c3cnn4C(F)F)C2)n1

>  <ref_pdb>  (4591) 
A3181a

>  <alias>  (4591) 
FVMATBAWBRYLBY-UHFFFAOYSA-N-P12-P12-P103-601509

>  <HIPPO Pose ID>  (4591) 
516130

>  <name>  (4591) 
FVMATBAWBRYLBY-UHFFFAOYSA-N-P12-P12-P103-601509

>  <HIPPO Compound ID>  (4591) 
293451

>  <ref_mols>  (4591) 
A0497a,A1105b

>  <distance_score>  (4591) 
1.865254

>  <inspiration_score>  (4591) 
None

$$$$
FVMATBAWBRYLBY-UHFFFAOYSA-N-P103-P12-P103-601509
     RDKit          3D

 27 30  0  0  0  0  0  0  0  0999 V2000
   18.5643   -8.7560   17.2529 C   0  0  0  0  0  0  0  0  0  0  0  0
   19.3267   -7.4961   17.0392 C   0  0  0  0  0  0  0  0  0  0  0  0
   19.7282   -7.1441   15.7640 C   0  0  0  0  0  0  0  0  0  0  0  0
   20.6168   -6.0928   15.6277 C   0  0  0  0  0  0  0  0  0  0  0  0
   21.0585   -5.4225   16.7619 C   0  0  0  0  0  0  0  0  0  0  0  0
   20.5574   -5.7694   18.0165 C   0  0  0  0  0  0  0  0  0  0  0  0
   20.9233   -5.0361   19.1686 N   0  0  0  0  0  0  0  0  0  0  0  0
   20.7344   -3.5700   19.0098 C   0  0  0  0  0  0  0  0  0  0  0  0
   19.7431   -3.1582   20.1033 C   0  0  0  0  0  0  0  0  0  0  0  0
   19.0082   -4.4475   20.4720 C   0  0  1  0  0  0  0  0  0  0  0  0
   17.9530   -4.9606   19.5907 N   0  0  0  0  0  0  0  0  0  0  0  0
   17.2056   -4.0109   18.8095 C   0  0  1  0  0  0  0  0  0  0  0  0
   18.0241   -3.4187   17.8265 O   0  0  0  0  0  0  0  0  0  0  0  0
   15.9976   -4.6402   18.1318 C   0  0  0  0  0  0  0  0  0  0  0  0
   15.0365   -3.7335   17.6592 C   0  0  0  0  0  0  0  0  0  0  0  0
   13.8831   -4.1487   17.0242 C   0  0  0  0  0  0  0  0  0  0  0  0
   13.6140   -5.4982   16.8451 C   0  0  0  0  0  0  0  0  0  0  0  0
   14.5249   -6.4224   17.3441 C   0  0  0  0  0  0  0  0  0  0  0  0
   15.6895   -6.0226   17.9927 C   0  0  0  0  0  0  0  0  0  0  0  0
   16.2100   -7.2400   18.4849 C   0  0  0  0  0  0  0  0  0  0  0  0
   15.5414   -8.3235   18.0814 N   0  0  0  0  0  0  0  0  0  0  0  0
   14.5239   -7.7972   17.3621 N   0  0  0  0  0  0  0  0  0  0  0  0
   13.6120   -8.6904   16.6622 C   0  0  0  0  0  0  0  0  0  0  0  0
   13.9844   -8.8456   15.3586 F   0  0  0  0  0  0  0  0  0  0  0  0
   12.3341   -8.2283   16.6323 F   0  0  0  0  0  0  0  0  0  0  0  0
   20.2004   -5.4313   20.4040 C   0  0  0  0  0  0  0  0  0  0  0  0
   19.6932   -6.8083   18.1412 N   0  0  0  0  0  0  0  0  0  0  0  0
  1  2  1  0
  2  3  2  0
  3  4  1  0
  4  5  2  0
  5  6  1  0
  6  7  1  0
  7  8  1  0
  8  9  1  0
  9 10  1  0
 10 11  1  6
 11 12  1  0
 12 13  1  6
 12 14  1  0
 14 15  2  0
 15 16  1  0
 16 17  2  0
 17 18  1  0
 18 19  2  0
 19 20  1  0
 20 21  2  0
 21 22  1  0
 22 23  1  0
 23 24  1  0
 23 25  1  0
 10 26  1  0
  6 27  2  0
 27  2  1  0
 26  7  1  0
 19 14  1  0
 22 18  1  0
M  END
>  <energy_score>  (4592) 
-38.421525

>  <inchikey>  (4592) 
FVMATBAWBRYLBY-UHFFFAOYSA-N

>  <smiles>  (4592) 
Cc1cccc(N2CCC(NC(O)c3cccc4c3cnn4C(F)F)C2)n1

>  <ref_pdb>  (4592) 
A3181a

>  <alias>  (4592) 
FVMATBAWBRYLBY-UHFFFAOYSA-N-P103-P12-P103-601509

>  <HIPPO Pose ID>  (4592) 
516131

>  <name>  (4592) 
FVMATBAWBRYLBY-UHFFFAOYSA-N-P103-P12-P103-601509

>  <HIPPO Compound ID>  (4592) 
293451

>  <ref_mols>  (4592) 
A0497a,A1105b

>  <distance_score>  (4592) 
1.777955

>  <inspiration_score>  (4592) 
None

$$$$
WJDCBQYPIPMXHT-UHFFFAOYSA-N-P12-P12-P103-601509
     RDKit          3D

 27 30  0  0  0  0  0  0  0  0999 V2000
   17.8304   -3.3460   18.7865 O   0  0  0  0  0  0  0  0  0  0  0  0
   17.6356   -4.7442   18.8766 C   0  0  1  0  0  0  0  0  0  0  0  0
   17.8974   -5.2108   20.2293 N   0  0  0  0  0  0  0  0  0  0  0  0
   19.2809   -5.1565   20.7304 C   0  0  2  0  0  0  0  0  0  0  0  0
   20.1434   -3.9403   20.4246 C   0  0  0  0  0  0  0  0  0  0  0  0
   20.8318   -4.2837   19.1045 C   0  0  0  0  0  0  0  0  0  0  0  0
   20.8719   -5.7668   19.0315 N   0  0  0  0  0  0  0  0  0  0  0  0
   20.5138   -6.3409   17.7964 C   0  0  0  0  0  0  0  0  0  0  0  0
   19.5450   -7.3059   17.7977 N   0  0  0  0  0  0  0  0  0  0  0  0
   19.1322   -7.8269   16.6203 C   0  0  0  0  0  0  0  0  0  0  0  0
   19.6176   -7.4366   15.3957 C   0  0  0  0  0  0  0  0  0  0  0  0
   20.6341   -6.4971   15.3774 C   0  0  0  0  0  0  0  0  0  0  0  0
   21.1044   -5.9559   16.5747 C   0  0  0  0  0  0  0  0  0  0  0  0
   22.4362   -4.8555   16.4535 Cl  0  0  0  0  0  0  0  0  0  0  0  0
   20.1973   -6.2999   20.2246 C   0  0  0  0  0  0  0  0  0  0  0  0
   16.2248   -5.0922   18.3934 C   0  0  0  0  0  0  0  0  0  0  0  0
   15.2467   -4.0758   18.2059 C   0  0  0  0  0  0  0  0  0  0  0  0
   14.0304   -4.3300   17.5757 C   0  0  0  0  0  0  0  0  0  0  0  0
   13.7076   -5.6066   17.1266 C   0  0  0  0  0  0  0  0  0  0  0  0
   14.6040   -6.6378   17.4117 C   0  0  0  0  0  0  0  0  0  0  0  0
   15.8235   -6.4140   18.0463 C   0  0  0  0  0  0  0  0  0  0  0  0
   16.3540   -7.7116   18.2186 C   0  0  0  0  0  0  0  0  0  0  0  0
   15.6201   -8.6714   17.6521 N   0  0  0  0  0  0  0  0  0  0  0  0
   14.5481   -7.9909   17.1691 N   0  0  0  0  0  0  0  0  0  0  0  0
   13.5106   -8.6918   16.4244 C   0  0  0  0  0  0  0  0  0  0  0  0
   12.2666   -8.4417   16.9117 F   0  0  0  0  0  0  0  0  0  0  0  0
   13.5004   -8.3071   15.1163 F   0  0  0  0  0  0  0  0  0  0  0  0
  2  1  1  1
  2  3  1  0
  4  3  1  6
  4  5  1  0
  5  6  1  0
  6  7  1  0
  7  8  1  0
  8  9  2  0
  9 10  1  0
 10 11  2  0
 11 12  1  0
 12 13  2  0
 13 14  1  0
  7 15  1  0
  2 16  1  0
 16 17  2  0
 17 18  1  0
 18 19  2  0
 19 20  1  0
 20 21  2  0
 21 22  1  0
 22 23  2  0
 23 24  1  0
 24 25  1  0
 25 26  1  0
 25 27  1  0
 15  4  1  0
 21 16  1  0
 13  8  1  0
 24 20  1  0
M  END
>  <energy_score>  (4593) 
-30.525457

>  <inchikey>  (4593) 
WJDCBQYPIPMXHT-UHFFFAOYSA-N

>  <smiles>  (4593) 
OC(NC1CCN(c2ncccc2Cl)C1)c1cccc2c1cnn2C(F)F

>  <ref_pdb>  (4593) 
A3181a

>  <alias>  (4593) 
WJDCBQYPIPMXHT-UHFFFAOYSA-N-P12-P12-P103-601509

>  <HIPPO Pose ID>  (4593) 
516132

>  <name>  (4593) 
WJDCBQYPIPMXHT-UHFFFAOYSA-N-P12-P12-P103-601509

>  <HIPPO Compound ID>  (4593) 
293452

>  <ref_mols>  (4593) 
A0497a,A1105b

>  <distance_score>  (4593) 
1.525278

>  <inspiration_score>  (4593) 
None

$$$$
WJDCBQYPIPMXHT-UHFFFAOYSA-N-P103-P12-P103-601509
     RDKit          3D

 27 30  0  0  0  0  0  0  0  0999 V2000
   17.7184   -3.0778   18.6754 O   0  0  0  0  0  0  0  0  0  0  0  0
   17.6657   -4.4841   18.5987 C   0  0  1  0  0  0  0  0  0  0  0  0
   17.9717   -4.9860   19.9297 N   0  0  0  0  0  0  0  0  0  0  0  0
   19.3564   -4.8558   20.4260 C   0  0  2  0  0  0  0  0  0  0  0  0
   20.1886   -3.6362   20.0456 C   0  0  0  0  0  0  0  0  0  0  0  0
   20.8196   -4.0165   18.7054 C   0  0  0  0  0  0  0  0  0  0  0  0
   20.9296   -5.5006   18.7287 N   0  0  0  0  0  0  0  0  0  0  0  0
   20.5313   -6.1418   17.5383 C   0  0  0  0  0  0  0  0  0  0  0  0
   19.5333   -7.0723   17.6118 N   0  0  0  0  0  0  0  0  0  0  0  0
   19.0965   -7.6506   16.4709 C   0  0  0  0  0  0  0  0  0  0  0  0
   19.5866   -7.3522   15.2225 C   0  0  0  0  0  0  0  0  0  0  0  0
   20.6281   -6.4437   15.1377 C   0  0  0  0  0  0  0  0  0  0  0  0
   21.1242   -5.8465   16.2944 C   0  0  0  0  0  0  0  0  0  0  0  0
   22.5027   -4.8138   16.1135 Cl  0  0  0  0  0  0  0  0  0  0  0  0
   20.3056   -5.9909   19.9660 C   0  0  0  0  0  0  0  0  0  0  0  0
   16.2899   -4.9300   18.1046 C   0  0  0  0  0  0  0  0  0  0  0  0
   15.3109   -3.9653   17.7671 C   0  0  0  0  0  0  0  0  0  0  0  0
   14.0758   -4.3088   17.2319 C   0  0  0  0  0  0  0  0  0  0  0  0
   13.7493   -5.6384   17.0030 C   0  0  0  0  0  0  0  0  0  0  0  0
   14.6709   -6.6134   17.3816 C   0  0  0  0  0  0  0  0  0  0  0  0
   15.9070   -6.2925   17.9367 C   0  0  0  0  0  0  0  0  0  0  0  0
   16.4583   -7.5573   18.2528 C   0  0  0  0  0  0  0  0  0  0  0  0
   15.7245   -8.5894   17.8323 N   0  0  0  0  0  0  0  0  0  0  0  0
   14.6226   -7.9871   17.3211 N   0  0  0  0  0  0  0  0  0  0  0  0
   13.5657   -8.7927   16.7260 C   0  0  0  0  0  0  0  0  0  0  0  0
   12.4169   -8.7466   17.4485 F   0  0  0  0  0  0  0  0  0  0  0  0
   13.2553   -8.3627   15.4686 F   0  0  0  0  0  0  0  0  0  0  0  0
  2  1  1  1
  2  3  1  0
  4  3  1  6
  4  5  1  0
  5  6  1  0
  6  7  1  0
  7  8  1  0
  8  9  2  0
  9 10  1  0
 10 11  2  0
 11 12  1  0
 12 13  2  0
 13 14  1  0
  7 15  1  0
  2 16  1  0
 16 17  2  0
 17 18  1  0
 18 19  2  0
 19 20  1  0
 20 21  2  0
 21 22  1  0
 22 23  2  0
 23 24  1  0
 24 25  1  0
 25 26  1  0
 25 27  1  0
 15  4  1  0
 21 16  1  0
 13  8  1  0
 24 20  1  0
M  END
>  <energy_score>  (4594) 
-35.622027

>  <inchikey>  (4594) 
WJDCBQYPIPMXHT-UHFFFAOYSA-N

>  <smiles>  (4594) 
OC(NC1CCN(c2ncccc2Cl)C1)c1cccc2c1cnn2C(F)F

>  <ref_pdb>  (4594) 
A3181a

>  <alias>  (4594) 
WJDCBQYPIPMXHT-UHFFFAOYSA-N-P103-P12-P103-601509

>  <HIPPO Pose ID>  (4594) 
516133

>  <name>  (4594) 
WJDCBQYPIPMXHT-UHFFFAOYSA-N-P103-P12-P103-601509

>  <HIPPO Compound ID>  (4594) 
293452

>  <ref_mols>  (4594) 
A0497a,A1105b

>  <distance_score>  (4594) 
1.517195

>  <inspiration_score>  (4594) 
None

$$$$
VYNRLKHWSRQBHG-UHFFFAOYSA-N-P12-P12-P103-601509
     RDKit          3D

 27 30  0  0  0  0  0  0  0  0999 V2000
   18.1155   -2.2588   20.0859 C   0  0  0  0  0  0  0  0  0  0  0  0
   17.8776   -3.0743   18.9606 O   0  0  0  0  0  0  0  0  0  0  0  0
   17.6088   -4.4302   19.2778 C   0  0  2  0  0  0  0  0  0  0  0  0
   18.7329   -5.2349   18.8859 N   0  0  0  0  0  0  0  0  0  0  0  0
   19.9746   -5.0807   19.6449 C   0  0  2  0  0  0  0  0  0  0  0  0
   20.9133   -4.0088   19.0909 C   0  0  0  0  0  0  0  0  0  0  0  0
   21.6218   -4.6715   17.8914 C   0  0  0  0  0  0  0  0  0  0  0  0
   21.4470   -6.1283   18.0582 N   0  0  0  0  0  0  0  0  0  0  0  0
   20.6936   -6.8130   17.0762 C   0  0  0  0  0  0  0  0  0  0  0  0
   20.0308   -7.9304   17.4751 N   0  0  0  0  0  0  0  0  0  0  0  0
   19.1302   -8.4994   16.6451 C   0  0  0  0  0  0  0  0  0  0  0  0
   18.8827   -8.0693   15.3648 C   0  0  0  0  0  0  0  0  0  0  0  0
   19.6575   -7.0301   14.8922 C   0  0  0  0  0  0  0  0  0  0  0  0
   20.5752   -6.4128   15.7346 C   0  0  0  0  0  0  0  0  0  0  0  0
   21.2871   -5.4142   15.1939 F   0  0  0  0  0  0  0  0  0  0  0  0
   20.8901   -6.3186   19.4228 C   0  0  0  0  0  0  0  0  0  0  0  0
   16.3516   -4.8964   18.5372 C   0  0  0  0  0  0  0  0  0  0  0  0
   15.3153   -3.9521   18.2160 C   0  0  0  0  0  0  0  0  0  0  0  0
   14.1108   -4.2561   17.5150 C   0  0  0  0  0  0  0  0  0  0  0  0
   13.7877   -5.5412   17.0598 C   0  0  0  0  0  0  0  0  0  0  0  0
   14.7122   -6.5285   17.4229 C   0  0  0  0  0  0  0  0  0  0  0  0
   14.6495   -7.8464   17.1822 N   0  0  0  0  0  0  0  0  0  0  0  0
   15.6402   -8.3661   17.9219 N   0  0  0  0  0  0  0  0  0  0  0  0
   15.7147   -9.8064   18.0157 C   0  0  0  0  0  0  0  0  0  0  0  0
   16.3902   -7.4395   18.6081 C   0  0  0  0  0  0  0  0  0  0  0  0
   17.3336   -7.8551   19.6796 C   0  0  0  0  0  0  0  0  0  0  0  0
   15.9300   -6.2107   18.1593 C   0  0  0  0  0  0  0  0  0  0  0  0
  1  2  1  0
  2  3  1  0
  3  4  1  6
  5  4  1  6
  5  6  1  0
  6  7  1  0
  7  8  1  0
  8  9  1  0
  9 10  2  0
 10 11  1  0
 11 12  2  0
 12 13  1  0
 13 14  2  0
 14 15  1  0
  8 16  1  0
  3 17  1  0
 17 18  2  0
 18 19  1  0
 19 20  2  0
 20 21  1  0
 21 22  2  0
 22 23  1  0
 23 24  1  0
 23 25  1  0
 25 26  1  0
 25 27  2  0
 16  5  1  0
 27 17  1  0
 14  9  1  0
 27 21  1  0
M  END
>  <energy_score>  (4595) 
-31.982153

>  <inchikey>  (4595) 
VYNRLKHWSRQBHG-UHFFFAOYSA-N

>  <smiles>  (4595) 
COC(NC1CCN(c2ncccc2F)C1)c1cccc2nn(C)c(C)c12

>  <ref_pdb>  (4595) 
A3181a

>  <alias>  (4595) 
VYNRLKHWSRQBHG-UHFFFAOYSA-N-P12-P12-P103-601509

>  <HIPPO Pose ID>  (4595) 
516138

>  <name>  (4595) 
VYNRLKHWSRQBHG-UHFFFAOYSA-N-P12-P12-P103-601509

>  <HIPPO Compound ID>  (4595) 
293455

>  <ref_mols>  (4595) 
A0497a,A1105b

>  <distance_score>  (4595) 
1.644039

>  <inspiration_score>  (4595) 
None

$$$$
VYNRLKHWSRQBHG-UHFFFAOYSA-N-P103-P12-P103-601509
     RDKit          3D

 27 30  0  0  0  0  0  0  0  0999 V2000
   18.6818   -2.8602   17.6856 C   0  0  0  0  0  0  0  0  0  0  0  0
   18.6954   -4.2392   17.9793 O   0  0  0  0  0  0  0  0  0  0  0  0
   17.7979   -4.6351   18.9875 C   0  0  2  0  0  0  0  0  0  0  0  0
   18.4227   -5.6009   19.8596 N   0  0  0  0  0  0  0  0  0  0  0  0
   19.7764   -5.4101   20.3967 C   0  0  2  0  0  0  0  0  0  0  0  0
   20.6912   -4.2657   19.9563 C   0  0  0  0  0  0  0  0  0  0  0  0
   21.4293   -4.7701   18.6987 C   0  0  0  0  0  0  0  0  0  0  0  0
   21.2951   -6.2374   18.7046 N   0  0  0  0  0  0  0  0  0  0  0  0
   20.6488   -6.8439   17.6064 C   0  0  0  0  0  0  0  0  0  0  0  0
   20.0618   -8.0507   17.8304 N   0  0  0  0  0  0  0  0  0  0  0  0
   19.2859   -8.5993   16.8677 C   0  0  0  0  0  0  0  0  0  0  0  0
   19.1090   -8.0618   15.6165 C   0  0  0  0  0  0  0  0  0  0  0  0
   19.8261   -6.9224   15.3211 C   0  0  0  0  0  0  0  0  0  0  0  0
   20.6053   -6.3193   16.3004 C   0  0  0  0  0  0  0  0  0  0  0  0
   21.2894   -5.2364   15.9056 F   0  0  0  0  0  0  0  0  0  0  0  0
   20.7030   -6.6057   20.0131 C   0  0  0  0  0  0  0  0  0  0  0  0
   16.4940   -5.0966   18.3190 C   0  0  0  0  0  0  0  0  0  0  0  0
   15.5800   -4.0409   17.9542 C   0  0  0  0  0  0  0  0  0  0  0  0
   14.3144   -4.1913   17.3320 C   0  0  0  0  0  0  0  0  0  0  0  0
   13.8087   -5.4346   16.9688 C   0  0  0  0  0  0  0  0  0  0  0  0
   14.6253   -6.5210   17.3002 C   0  0  0  0  0  0  0  0  0  0  0  0
   14.3731   -7.8132   17.0570 N   0  0  0  0  0  0  0  0  0  0  0  0
   15.3430   -8.4635   17.7053 N   0  0  0  0  0  0  0  0  0  0  0  0
   15.2883   -9.9085   17.7146 C   0  0  0  0  0  0  0  0  0  0  0  0
   16.2254   -7.6532   18.3839 C   0  0  0  0  0  0  0  0  0  0  0  0
   17.1428   -8.2388   19.3903 C   0  0  0  0  0  0  0  0  0  0  0  0
   15.9118   -6.3595   17.9847 C   0  0  0  0  0  0  0  0  0  0  0  0
  1  2  1  0
  2  3  1  0
  3  4  1  6
  5  4  1  6
  5  6  1  0
  6  7  1  0
  7  8  1  0
  8  9  1  0
  9 10  2  0
 10 11  1  0
 11 12  2  0
 12 13  1  0
 13 14  2  0
 14 15  1  0
  8 16  1  0
  3 17  1  0
 17 18  2  0
 18 19  1  0
 19 20  2  0
 20 21  1  0
 21 22  2  0
 22 23  1  0
 23 24  1  0
 23 25  1  0
 25 26  1  0
 25 27  2  0
 16  5  1  0
 27 17  1  0
 14  9  1  0
 27 21  1  0
M  END
>  <energy_score>  (4596) 
-12.168621

>  <inchikey>  (4596) 
VYNRLKHWSRQBHG-UHFFFAOYSA-N

>  <smiles>  (4596) 
COC(NC1CCN(c2ncccc2F)C1)c1cccc2nn(C)c(C)c12

>  <ref_pdb>  (4596) 
A3181a

>  <alias>  (4596) 
VYNRLKHWSRQBHG-UHFFFAOYSA-N-P103-P12-P103-601509

>  <HIPPO Pose ID>  (4596) 
516139

>  <name>  (4596) 
VYNRLKHWSRQBHG-UHFFFAOYSA-N-P103-P12-P103-601509

>  <HIPPO Compound ID>  (4596) 
293455

>  <ref_mols>  (4596) 
A0497a,A1105b

>  <distance_score>  (4596) 
1.622754

>  <inspiration_score>  (4596) 
None

$$$$
AABLCWSLERZKHU-UHFFFAOYSA-N-P12-P12-P103-601509
     RDKit          3D

 27 30  0  0  0  0  0  0  0  0999 V2000
   18.0953   -2.0066   19.5660 C   0  0  0  0  0  0  0  0  0  0  0  0
   18.1391   -3.2218   18.8515 O   0  0  0  0  0  0  0  0  0  0  0  0
   17.4918   -4.3105   19.4805 C   0  0  2  0  0  0  0  0  0  0  0  0
   18.4370   -5.2830   20.0041 N   0  0  0  0  0  0  0  0  0  0  0  0
   19.7665   -4.7571   20.3341 C   0  0  1  0  0  0  0  0  0  0  0  0
   20.5633   -5.7900   21.1178 C   0  0  0  0  0  0  0  0  0  0  0  0
   21.1457   -6.7183   20.0491 C   0  0  0  0  0  0  0  0  0  0  0  0
   21.3438   -5.8769   18.8592 N   0  0  0  0  0  0  0  0  0  0  0  0
   20.7984   -6.3874   17.6511 C   0  0  0  0  0  0  0  0  0  0  0  0
   19.8384   -7.3403   17.7025 N   0  0  0  0  0  0  0  0  0  0  0  0
   19.2032   -7.6888   16.5646 C   0  0  0  0  0  0  0  0  0  0  0  0
   19.5309   -7.2012   15.3216 C   0  0  0  0  0  0  0  0  0  0  0  0
   20.5821   -6.3022   15.2413 C   0  0  0  0  0  0  0  0  0  0  0  0
   21.2156   -5.8776   16.4069 C   0  0  0  0  0  0  0  0  0  0  0  0
   22.5023   -4.7286   16.2576 Cl  0  0  0  0  0  0  0  0  0  0  0  0
   20.7276   -4.5515   19.1361 C   0  0  0  0  0  0  0  0  0  0  0  0
   16.3675   -4.8834   18.5912 C   0  0  0  0  0  0  0  0  0  0  0  0
   15.3327   -3.9363   18.2280 C   0  0  0  0  0  0  0  0  0  0  0  0
   14.1415   -4.2213   17.5038 C   0  0  0  0  0  0  0  0  0  0  0  0
   13.8282   -5.4950   17.0319 C   0  0  0  0  0  0  0  0  0  0  0  0
   14.7567   -6.4847   17.3769 C   0  0  0  0  0  0  0  0  0  0  0  0
   14.6881   -7.7848   17.0651 N   0  0  0  0  0  0  0  0  0  0  0  0
   15.6720   -8.3457   17.7713 N   0  0  0  0  0  0  0  0  0  0  0  0
   15.7869   -9.7870   17.7247 C   0  0  0  0  0  0  0  0  0  0  0  0
   16.3968   -7.4679   18.5481 C   0  0  0  0  0  0  0  0  0  0  0  0
   17.2993   -7.9892   19.6070 C   0  0  0  0  0  0  0  0  0  0  0  0
   15.9699   -6.2005   18.1607 C   0  0  0  0  0  0  0  0  0  0  0  0
  1  2  1  0
  2  3  1  0
  3  4  1  6
  5  4  1  6
  5  6  1  0
  6  7  1  0
  7  8  1  0
  8  9  1  0
  9 10  2  0
 10 11  1  0
 11 12  2  0
 12 13  1  0
 13 14  2  0
 14 15  1  0
  8 16  1  0
  3 17  1  0
 17 18  2  0
 18 19  1  0
 19 20  2  0
 20 21  1  0
 21 22  2  0
 22 23  1  0
 23 24  1  0
 23 25  1  0
 25 26  1  0
 25 27  2  0
 16  5  1  0
 27 17  1  0
 14  9  1  0
 27 21  1  0
M  END
>  <energy_score>  (4597) 
-36.954205

>  <inchikey>  (4597) 
AABLCWSLERZKHU-UHFFFAOYSA-N

>  <smiles>  (4597) 
COC(NC1CCN(c2ncccc2Cl)C1)c1cccc2nn(C)c(C)c12

>  <ref_pdb>  (4597) 
A3181a

>  <alias>  (4597) 
AABLCWSLERZKHU-UHFFFAOYSA-N-P12-P12-P103-601509

>  <HIPPO Pose ID>  (4597) 
516142

>  <name>  (4597) 
AABLCWSLERZKHU-UHFFFAOYSA-N-P12-P12-P103-601509

>  <HIPPO Compound ID>  (4597) 
293457

>  <ref_mols>  (4597) 
A0497a,A1105b

>  <distance_score>  (4597) 
1.44585

>  <inspiration_score>  (4597) 
None

$$$$
AABLCWSLERZKHU-UHFFFAOYSA-N-P103-P12-P103-601509
     RDKit          3D

 27 30  0  0  0  0  0  0  0  0999 V2000
   18.8263   -2.8305   17.7917 C   0  0  0  0  0  0  0  0  0  0  0  0
   18.6019   -4.2147   17.9311 O   0  0  0  0  0  0  0  0  0  0  0  0
   17.6807   -4.5455   18.9432 C   0  0  2  0  0  0  0  0  0  0  0  0
   18.3149   -5.4767   19.8493 N   0  0  0  0  0  0  0  0  0  0  0  0
   19.5254   -4.9582   20.5178 C   0  0  1  0  0  0  0  0  0  0  0  0
   20.0233   -6.0710   21.4332 C   0  0  0  0  0  0  0  0  0  0  0  0
   20.8084   -7.0129   20.4967 C   0  0  0  0  0  0  0  0  0  0  0  0
   21.2854   -6.1672   19.3781 N   0  0  0  0  0  0  0  0  0  0  0  0
   20.8105   -6.5224   18.0825 C   0  0  0  0  0  0  0  0  0  0  0  0
   19.6862   -7.2778   17.9869 N   0  0  0  0  0  0  0  0  0  0  0  0
   19.1299   -7.4590   16.7657 C   0  0  0  0  0  0  0  0  0  0  0  0
   19.6478   -6.9478   15.5987 C   0  0  0  0  0  0  0  0  0  0  0  0
   20.8206   -6.2145   15.6769 C   0  0  0  0  0  0  0  0  0  0  0  0
   21.4157   -6.0020   16.9188 C   0  0  0  0  0  0  0  0  0  0  0  0
   22.8835   -5.0827   16.9667 Cl  0  0  0  0  0  0  0  0  0  0  0  0
   20.8271   -4.7884   19.6815 C   0  0  0  0  0  0  0  0  0  0  0  0
   16.4007   -5.0560   18.2809 C   0  0  0  0  0  0  0  0  0  0  0  0
   15.4865   -4.0259   17.8609 C   0  0  0  0  0  0  0  0  0  0  0  0
   14.2298   -4.2198   17.2383 C   0  0  0  0  0  0  0  0  0  0  0  0
   13.7508   -5.4859   16.9164 C   0  0  0  0  0  0  0  0  0  0  0  0
   14.5810   -6.5494   17.2869 C   0  0  0  0  0  0  0  0  0  0  0  0
   14.3675   -7.8521   17.0594 N   0  0  0  0  0  0  0  0  0  0  0  0
   15.3388   -8.4639   17.7416 N   0  0  0  0  0  0  0  0  0  0  0  0
   15.3510   -9.9101   17.7470 C   0  0  0  0  0  0  0  0  0  0  0  0
   16.1560   -7.6187   18.4594 C   0  0  0  0  0  0  0  0  0  0  0  0
   16.9936   -8.1892   19.5494 C   0  0  0  0  0  0  0  0  0  0  0  0
   15.8482   -6.3444   17.9923 C   0  0  0  0  0  0  0  0  0  0  0  0
  1  2  1  0
  2  3  1  0
  3  4  1  1
  5  4  1  6
  5  6  1  0
  6  7  1  0
  7  8  1  0
  8  9  1  0
  9 10  2  0
 10 11  1  0
 11 12  2  0
 12 13  1  0
 13 14  2  0
 14 15  1  0
  8 16  1  0
  3 17  1  0
 17 18  2  0
 18 19  1  0
 19 20  2  0
 20 21  1  0
 21 22  2  0
 22 23  1  0
 23 24  1  0
 23 25  1  0
 25 26  1  0
 25 27  2  0
 16  5  1  0
 27 17  1  0
 14  9  1  0
 27 21  1  0
M  END
>  <energy_score>  (4598) 
-45.465936

>  <inchikey>  (4598) 
AABLCWSLERZKHU-UHFFFAOYSA-N

>  <smiles>  (4598) 
COC(NC1CCN(c2ncccc2Cl)C1)c1cccc2nn(C)c(C)c12

>  <ref_pdb>  (4598) 
A3181a

>  <alias>  (4598) 
AABLCWSLERZKHU-UHFFFAOYSA-N-P103-P12-P103-601509

>  <HIPPO Pose ID>  (4598) 
516143

>  <name>  (4598) 
AABLCWSLERZKHU-UHFFFAOYSA-N-P103-P12-P103-601509

>  <HIPPO Compound ID>  (4598) 
293457

>  <ref_mols>  (4598) 
A0497a,A1105b

>  <distance_score>  (4598) 
1.409355

>  <inspiration_score>  (4598) 
None

$$$$
KAAHOEOQBPSWDD-UHFFFAOYSA-N-P12-P12-P103-601509
     RDKit          3D

 27 30  0  0  0  0  0  0  0  0999 V2000
   17.8004   -1.9610   19.8311 C   0  0  0  0  0  0  0  0  0  0  0  0
   17.9349   -3.0078   18.8961 O   0  0  0  0  0  0  0  0  0  0  0  0
   17.5297   -4.2736   19.3851 C   0  0  2  0  0  0  0  0  0  0  0  0
   18.6528   -5.1657   19.3427 N   0  0  0  0  0  0  0  0  0  0  0  0
   19.7741   -4.9390   20.2555 C   0  0  2  0  0  0  0  0  0  0  0  0
   20.6847   -3.7402   19.9848 C   0  0  0  0  0  0  0  0  0  0  0  0
   21.5383   -4.1623   18.7887 C   0  0  0  0  0  0  0  0  0  0  0  0
   21.6098   -5.6412   18.8484 N   0  0  0  0  0  0  0  0  0  0  0  0
   21.1497   -6.2426   17.6517 C   0  0  0  0  0  0  0  0  0  0  0  0
   21.6084   -5.7988   16.4116 C   0  0  0  0  0  0  0  0  0  0  0  0
   20.9840   -6.2296   15.2478 C   0  0  0  0  0  0  0  0  0  0  0  0
   19.9339   -7.1248   15.3347 C   0  0  0  0  0  0  0  0  0  0  0  0
   19.5974   -7.6113   16.5831 C   0  0  0  0  0  0  0  0  0  0  0  0
   18.5394   -8.6491   16.7056 C   0  0  0  0  0  0  0  0  0  0  0  0
   20.2114   -7.2084   17.7154 N   0  0  0  0  0  0  0  0  0  0  0  0
   20.8399   -6.0586   20.0505 C   0  0  0  0  0  0  0  0  0  0  0  0
   16.3407   -4.8098   18.5673 C   0  0  0  0  0  0  0  0  0  0  0  0
   15.3033   -3.8863   18.1829 C   0  0  0  0  0  0  0  0  0  0  0  0
   14.1142   -4.2151   17.4681 C   0  0  0  0  0  0  0  0  0  0  0  0
   13.7983   -5.5142   17.0603 C   0  0  0  0  0  0  0  0  0  0  0  0
   14.7102   -6.4852   17.4890 C   0  0  0  0  0  0  0  0  0  0  0  0
   14.6178   -7.8118   17.3287 N   0  0  0  0  0  0  0  0  0  0  0  0
   15.5546   -8.3080   18.1467 N   0  0  0  0  0  0  0  0  0  0  0  0
   15.5471   -9.7356   18.3765 C   0  0  0  0  0  0  0  0  0  0  0  0
   16.3584   -7.3616   18.7458 C   0  0  0  0  0  0  0  0  0  0  0  0
   17.3225   -7.7414   19.8179 C   0  0  0  0  0  0  0  0  0  0  0  0
   15.9262   -6.1442   18.2293 C   0  0  0  0  0  0  0  0  0  0  0  0
  1  2  1  0
  2  3  1  0
  3  4  1  6
  5  4  1  6
  5  6  1  0
  6  7  1  0
  7  8  1  0
  8  9  1  0
  9 10  2  0
 10 11  1  0
 11 12  2  0
 12 13  1  0
 13 14  1  0
 13 15  2  0
  8 16  1  0
  3 17  1  0
 17 18  2  0
 18 19  1  0
 19 20  2  0
 20 21  1  0
 21 22  2  0
 22 23  1  0
 23 24  1  0
 23 25  1  0
 25 26  1  0
 25 27  2  0
 16  5  1  0
 27 17  1  0
 15  9  1  0
 27 21  1  0
M  END
>  <energy_score>  (4599) 
-38.184605

>  <inchikey>  (4599) 
KAAHOEOQBPSWDD-UHFFFAOYSA-N

>  <smiles>  (4599) 
COC(NC1CCN(c2cccc(C)n2)C1)c1cccc2nn(C)c(C)c12

>  <ref_pdb>  (4599) 
A3181a

>  <alias>  (4599) 
KAAHOEOQBPSWDD-UHFFFAOYSA-N-P12-P12-P103-601509

>  <HIPPO Pose ID>  (4599) 
516144

>  <name>  (4599) 
KAAHOEOQBPSWDD-UHFFFAOYSA-N-P12-P12-P103-601509

>  <HIPPO Compound ID>  (4599) 
293458

>  <ref_mols>  (4599) 
A0497a,A1105b

>  <distance_score>  (4599) 
1.751285

>  <inspiration_score>  (4599) 
None

$$$$
KAAHOEOQBPSWDD-UHFFFAOYSA-N-P103-P12-P103-601509
     RDKit          3D

 27 30  0  0  0  0  0  0  0  0999 V2000
   18.7945   -3.0113   17.6522 C   0  0  0  0  0  0  0  0  0  0  0  0
   18.2437   -3.4488   18.8732 O   0  0  0  0  0  0  0  0  0  0  0  0
   17.9377   -4.8379   18.9128 C   0  0  1  0  0  0  0  0  0  0  0  0
   18.0735   -5.2405   20.3134 N   0  0  0  0  0  0  0  0  0  0  0  0
   19.4151   -5.2267   20.9322 C   0  0  2  0  0  0  0  0  0  0  0  0
   20.3140   -3.9987   20.7950 C   0  0  0  0  0  0  0  0  0  0  0  0
   21.2869   -4.3212   19.6543 C   0  0  0  0  0  0  0  0  0  0  0  0
   21.2532   -5.7869   19.4718 N   0  0  0  0  0  0  0  0  0  0  0  0
   20.9813   -6.2533   18.1776 C   0  0  0  0  0  0  0  0  0  0  0  0
   21.5036   -5.6251   17.0473 C   0  0  0  0  0  0  0  0  0  0  0  0
   21.0164   -5.9411   15.7827 C   0  0  0  0  0  0  0  0  0  0  0  0
   20.0504   -6.9210   15.6558 C   0  0  0  0  0  0  0  0  0  0  0  0
   19.6665   -7.6007   16.7950 C   0  0  0  0  0  0  0  0  0  0  0  0
   18.7031   -8.7298   16.6888 C   0  0  0  0  0  0  0  0  0  0  0  0
   20.1373   -7.2965   18.0269 N   0  0  0  0  0  0  0  0  0  0  0  0
   20.4062   -6.3526   20.5350 C   0  0  0  0  0  0  0  0  0  0  0  0
   16.5430   -5.1202   18.3258 C   0  0  0  0  0  0  0  0  0  0  0  0
   15.6741   -4.0251   17.9955 C   0  0  0  0  0  0  0  0  0  0  0  0
   14.3935   -4.1186   17.3843 C   0  0  0  0  0  0  0  0  0  0  0  0
   13.8205   -5.3321   17.0138 C   0  0  0  0  0  0  0  0  0  0  0  0
   14.5780   -6.4544   17.3574 C   0  0  0  0  0  0  0  0  0  0  0  0
   14.2617   -7.7381   17.1442 N   0  0  0  0  0  0  0  0  0  0  0  0
   15.1687   -8.4200   17.8489 N   0  0  0  0  0  0  0  0  0  0  0  0
   14.9905   -9.8504   17.9683 C   0  0  0  0  0  0  0  0  0  0  0  0
   16.1384   -7.6446   18.4472 C   0  0  0  0  0  0  0  0  0  0  0  0
   17.0750   -8.2539   19.4221 C   0  0  0  0  0  0  0  0  0  0  0  0
   15.8774   -6.3487   18.0210 C   0  0  0  0  0  0  0  0  0  0  0  0
  1  2  1  0
  2  3  1  0
  3  4  1  1
  5  4  1  6
  5  6  1  0
  6  7  1  0
  7  8  1  0
  8  9  1  0
  9 10  2  0
 10 11  1  0
 11 12  2  0
 12 13  1  0
 13 14  1  0
 13 15  2  0
  8 16  1  0
  3 17  1  0
 17 18  2  0
 18 19  1  0
 19 20  2  0
 20 21  1  0
 21 22  2  0
 22 23  1  0
 23 24  1  0
 23 25  1  0
 25 26  1  0
 25 27  2  0
 16  5  1  0
 27 17  1  0
 15  9  1  0
 27 21  1  0
M  END
>  <energy_score>  (4600) 
-32.567743

>  <inchikey>  (4600) 
KAAHOEOQBPSWDD-UHFFFAOYSA-N

>  <smiles>  (4600) 
COC(NC1CCN(c2cccc(C)n2)C1)c1cccc2nn(C)c(C)c12

>  <ref_pdb>  (4600) 
A3181a

>  <alias>  (4600) 
KAAHOEOQBPSWDD-UHFFFAOYSA-N-P103-P12-P103-601509

>  <HIPPO Pose ID>  (4600) 
516145

>  <name>  (4600) 
KAAHOEOQBPSWDD-UHFFFAOYSA-N-P103-P12-P103-601509

>  <HIPPO Compound ID>  (4600) 
293458

>  <ref_mols>  (4600) 
A0497a,A1105b

>  <distance_score>  (4600) 
1.761927

>  <inspiration_score>  (4600) 
None

$$$$
CMXGTJVXJMBYQJ-UHFFFAOYSA-N-P12-P12-P103-601509
     RDKit          3D

 27 30  0  0  0  0  0  0  0  0999 V2000
   17.3625   -3.4442   19.6367 O   0  0  0  0  0  0  0  0  0  0  0  0
   17.4616   -4.6869   18.9771 C   0  0  1  0  0  0  0  0  0  0  0  0
   18.0118   -5.6471   19.9160 N   0  0  0  0  0  0  0  0  0  0  0  0
   19.3841   -5.3808   20.4227 C   0  0  2  0  0  0  0  0  0  0  0  0
   20.2348   -4.2316   19.8657 C   0  0  0  0  0  0  0  0  0  0  0  0
   20.8771   -4.7850   18.5899 C   0  0  0  0  0  0  0  0  0  0  0  0
   20.7795   -6.2559   18.6909 N   0  0  0  0  0  0  0  0  0  0  0  0
   20.0959   -6.8883   17.6331 C   0  0  0  0  0  0  0  0  0  0  0  0
   19.1808   -7.8446   17.9435 N   0  0  0  0  0  0  0  0  0  0  0  0
   18.5579   -8.4967   16.9329 C   0  0  0  0  0  0  0  0  0  0  0  0
   18.7142   -8.2003   15.5977 C   0  0  0  0  0  0  0  0  0  0  0  0
   19.6336   -7.2281   15.2667 C   0  0  0  0  0  0  0  0  0  0  0  0
   20.3457   -6.5976   16.2765 C   0  0  0  0  0  0  0  0  0  0  0  0
   21.2743   -5.7222   15.8799 F   0  0  0  0  0  0  0  0  0  0  0  0
   20.3230   -6.5700   20.0585 C   0  0  0  0  0  0  0  0  0  0  0  0
   16.0842   -5.0666   18.3978 C   0  0  0  0  0  0  0  0  0  0  0  0
   15.1649   -4.0188   18.0979 C   0  0  0  0  0  0  0  0  0  0  0  0
   13.9726   -4.2422   17.4168 C   0  0  0  0  0  0  0  0  0  0  0  0
   13.6189   -5.5144   16.9908 C   0  0  0  0  0  0  0  0  0  0  0  0
   14.4467   -6.5713   17.3618 C   0  0  0  0  0  0  0  0  0  0  0  0
   15.6287   -6.3842   18.0793 C   0  0  0  0  0  0  0  0  0  0  0  0
   16.0117   -7.7092   18.3957 C   0  0  0  0  0  0  0  0  0  0  0  0
   15.2884   -8.6494   17.7827 N   0  0  0  0  0  0  0  0  0  0  0  0
   14.3384   -7.9253   17.1444 N   0  0  0  0  0  0  0  0  0  0  0  0
   13.3696   -8.5903   16.2843 C   0  0  0  0  0  0  0  0  0  0  0  0
   12.0877   -8.3325   16.6521 F   0  0  0  0  0  0  0  0  0  0  0  0
   13.4942   -8.1772   14.9905 F   0  0  0  0  0  0  0  0  0  0  0  0
  2  1  1  1
  2  3  1  0
  4  3  1  6
  4  5  1  0
  5  6  1  0
  6  7  1  0
  7  8  1  0
  8  9  2  0
  9 10  1  0
 10 11  2  0
 11 12  1  0
 12 13  2  0
 13 14  1  0
  7 15  1  0
  2 16  1  0
 16 17  2  0
 17 18  1  0
 18 19  2  0
 19 20  1  0
 20 21  2  0
 21 22  1  0
 22 23  2  0
 23 24  1  0
 24 25  1  0
 25 26  1  0
 25 27  1  0
 15  4  1  0
 21 16  1  0
 13  8  1  0
 24 20  1  0
M  END
>  <energy_score>  (4601) 
-33.704107

>  <inchikey>  (4601) 
CMXGTJVXJMBYQJ-UHFFFAOYSA-N

>  <smiles>  (4601) 
OC(NC1CCN(c2ncccc2F)C1)c1cccc2c1cnn2C(F)F

>  <ref_pdb>  (4601) 
A3181a

>  <alias>  (4601) 
CMXGTJVXJMBYQJ-UHFFFAOYSA-N-P12-P12-P103-601509

>  <HIPPO Pose ID>  (4601) 
516146

>  <name>  (4601) 
CMXGTJVXJMBYQJ-UHFFFAOYSA-N-P12-P12-P103-601509

>  <HIPPO Compound ID>  (4601) 
293459

>  <ref_mols>  (4601) 
A0497a,A1105b

>  <distance_score>  (4601) 
1.643509

>  <inspiration_score>  (4601) 
None

$$$$
CMXGTJVXJMBYQJ-UHFFFAOYSA-N-P103-P12-P103-601509
     RDKit          3D

 27 30  0  0  0  0  0  0  0  0999 V2000
   17.3101   -3.1317   19.2790 O   0  0  0  0  0  0  0  0  0  0  0  0
   17.4937   -4.3522   18.5975 C   0  0  1  0  0  0  0  0  0  0  0  0
   18.1960   -5.2353   19.5044 N   0  0  0  0  0  0  0  0  0  0  0  0
   19.5607   -4.7982   19.9006 C   0  0  2  0  0  0  0  0  0  0  0  0
   20.2591   -3.6722   19.1254 C   0  0  0  0  0  0  0  0  0  0  0  0
   20.7455   -4.3370   17.8307 C   0  0  0  0  0  0  0  0  0  0  0  0
   20.8657   -5.7776   18.1577 N   0  0  0  0  0  0  0  0  0  0  0  0
   20.1679   -6.6355   17.2844 C   0  0  0  0  0  0  0  0  0  0  0  0
   19.3548   -7.5819   17.8257 N   0  0  0  0  0  0  0  0  0  0  0  0
   18.7123   -8.4366   16.9968 C   0  0  0  0  0  0  0  0  0  0  0  0
   18.7597   -8.3669   15.6236 C   0  0  0  0  0  0  0  0  0  0  0  0
   19.5767   -7.4070   15.0621 C   0  0  0  0  0  0  0  0  0  0  0  0
   20.2967   -6.5575   15.8874 C   0  0  0  0  0  0  0  0  0  0  0  0
   21.1098   -5.6845   15.2848 F   0  0  0  0  0  0  0  0  0  0  0  0
   20.5770   -5.9362   19.5999 C   0  0  0  0  0  0  0  0  0  0  0  0
   16.1461   -4.8757   18.1092 C   0  0  0  0  0  0  0  0  0  0  0  0
   15.1997   -3.9145   17.6876 C   0  0  0  0  0  0  0  0  0  0  0  0
   13.9898   -4.2608   17.1102 C   0  0  0  0  0  0  0  0  0  0  0  0
   13.6642   -5.5933   16.9041 C   0  0  0  0  0  0  0  0  0  0  0  0
   14.5473   -6.5680   17.3625 C   0  0  0  0  0  0  0  0  0  0  0  0
   15.7461   -6.2386   17.9920 C   0  0  0  0  0  0  0  0  0  0  0  0
   16.2069   -7.4919   18.4602 C   0  0  0  0  0  0  0  0  0  0  0  0
   15.5041   -8.5348   18.0123 N   0  0  0  0  0  0  0  0  0  0  0  0
   14.4930   -7.9427   17.3324 N   0  0  0  0  0  0  0  0  0  0  0  0
   13.5441   -8.7741   16.6049 C   0  0  0  0  0  0  0  0  0  0  0  0
   12.2918   -8.2485   16.5699 F   0  0  0  0  0  0  0  0  0  0  0  0
   13.9263   -8.9235   15.3035 F   0  0  0  0  0  0  0  0  0  0  0  0
  2  1  1  1
  2  3  1  0
  4  3  1  6
  4  5  1  0
  5  6  1  0
  6  7  1  0
  7  8  1  0
  8  9  2  0
  9 10  1  0
 10 11  2  0
 11 12  1  0
 12 13  2  0
 13 14  1  0
  7 15  1  0
  2 16  1  0
 16 17  2  0
 17 18  1  0
 18 19  2  0
 19 20  1  0
 20 21  2  0
 21 22  1  0
 22 23  2  0
 23 24  1  0
 24 25  1  0
 25 26  1  0
 25 27  1  0
 15  4  1  0
 21 16  1  0
 13  8  1  0
 24 20  1  0
M  END
>  <energy_score>  (4602) 
-35.810378

>  <inchikey>  (4602) 
CMXGTJVXJMBYQJ-UHFFFAOYSA-N

>  <smiles>  (4602) 
OC(NC1CCN(c2ncccc2F)C1)c1cccc2c1cnn2C(F)F

>  <ref_pdb>  (4602) 
A3181a

>  <alias>  (4602) 
CMXGTJVXJMBYQJ-UHFFFAOYSA-N-P103-P12-P103-601509

>  <HIPPO Pose ID>  (4602) 
516147

>  <name>  (4602) 
CMXGTJVXJMBYQJ-UHFFFAOYSA-N-P103-P12-P103-601509

>  <HIPPO Compound ID>  (4602) 
293459

>  <ref_mols>  (4602) 
A0497a,A1105b

>  <distance_score>  (4602) 
1.636481

>  <inspiration_score>  (4602) 
None

$$$$
UUGZLHFXGKUBRX-UHFFFAOYSA-N-P12-P12-P103-601509
     RDKit          3D

 27 31  0  0  0  0  0  0  0  0999 V2000
   15.7232   -7.3763   17.8149 C   0  0  0  0  0  0  0  0  0  0  0  0
   16.9746   -7.4463   17.0980 N   0  0  0  0  0  0  0  0  0  0  0  0
   18.2221   -7.2608   17.6222 C   0  0  0  0  0  0  0  0  0  0  0  0
   19.0914   -7.4373   16.5730 C   0  0  0  0  0  0  0  0  0  0  0  0
   20.5072   -7.4158   16.6297 C   0  0  0  0  0  0  0  0  0  0  0  0
   21.2994   -7.2313   17.8990 C   0  0  1  0  0  0  0  0  0  0  0  0
   21.5737   -8.5379   18.3786 O   0  0  0  0  0  0  0  0  0  0  0  0
   22.5809   -6.5189   17.8797 N   0  0  0  0  0  0  0  0  0  0  0  0
   22.9276   -6.0874   19.2792 C   0  0  0  0  0  0  0  0  0  0  0  0
   23.0634   -4.5456   19.1791 C   0  0  1  0  0  0  0  0  0  0  0  0
   23.7540   -4.4798   17.8154 C   0  0  0  0  0  0  0  0  0  0  0  0
   22.6042   -5.2232   17.1325 C   0  0  2  0  0  0  0  0  0  0  0  0
   21.4431   -4.2712   17.4937 C   0  0  0  0  0  0  0  0  0  0  0  0
   21.7512   -3.8849   18.8782 N   0  0  0  0  0  0  0  0  0  0  0  0
   20.7348   -4.0027   19.8125 C   0  0  0  0  0  0  0  0  0  0  0  0
   19.3979   -3.6991   19.5329 C   0  0  0  0  0  0  0  0  0  0  0  0
   18.3931   -4.0004   20.4566 C   0  0  0  0  0  0  0  0  0  0  0  0
   18.7669   -4.5592   21.6647 C   0  0  0  0  0  0  0  0  0  0  0  0
   17.5656   -5.0470   23.0143 Br  0  0  0  0  0  0  0  0  0  0  0  0
   20.1086   -4.7420   21.9120 C   0  0  0  0  0  0  0  0  0  0  0  0
   21.0811   -4.4610   21.0274 N   0  0  0  0  0  0  0  0  0  0  0  0
   21.0202   -7.7590   15.3435 C   0  0  0  0  0  0  0  0  0  0  0  0
   22.8812   -8.1420   15.0746 Br  0  0  0  0  0  0  0  0  0  0  0  0
   20.2195   -7.9715   14.1675 C   0  0  0  0  0  0  0  0  0  0  0  0
   18.8139   -7.9515   14.1608 C   0  0  0  0  0  0  0  0  0  0  0  0
   18.2582   -7.7127   15.4219 C   0  0  0  0  0  0  0  0  0  0  0  0
   16.9647   -7.7261   15.7823 N   0  0  0  0  0  0  0  0  0  0  0  0
  1  2  1  0
  2  3  1  0
  3  4  2  0
  4  5  1  0
  5  6  1  0
  6  7  1  6
  6  8  1  0
  8  9  1  0
 10  9  1  6
 10 11  1  0
 11 12  1  0
 12 13  1  1
 13 14  1  0
 14 15  1  0
 15 16  2  0
 16 17  1  0
 17 18  2  0
 18 19  1  0
 18 20  1  0
 20 21  2  0
  5 22  2  0
 22 23  1  0
 22 24  1  0
 24 25  2  0
 25 26  1  0
 26 27  2  0
 27  2  1  0
 26  4  1  0
 12  8  1  0
 21 15  1  0
 14 10  1  0
M  END
>  <energy_score>  (4603) 
-45.240014

>  <inchikey>  (4603) 
UUGZLHFXGKUBRX-UHFFFAOYSA-N

>  <smiles>  (4603) 
Cn1cc2c(C(O)N3CC4CC3CN4c3ccc(Br)cn3)c(Br)ccc2n1

>  <ref_pdb>  (4603) 
A3181a

>  <alias>  (4603) 
UUGZLHFXGKUBRX-UHFFFAOYSA-N-P12-P12-P103-601509

>  <HIPPO Pose ID>  (4603) 
516148

>  <name>  (4603) 
UUGZLHFXGKUBRX-UHFFFAOYSA-N-P12-P12-P103-601509

>  <HIPPO Compound ID>  (4603) 
293460

>  <ref_mols>  (4603) 
A0497a,A1105b

>  <distance_score>  (4603) 
1.470864

>  <inspiration_score>  (4603) 
None

$$$$
UUGZLHFXGKUBRX-UHFFFAOYSA-N-P103-P12-P103-601509
     RDKit          3D

 27 31  0  0  0  0  0  0  0  0999 V2000
   15.7182   -7.4240   17.9147 C   0  0  0  0  0  0  0  0  0  0  0  0
   16.9333   -7.4959   17.1375 N   0  0  0  0  0  0  0  0  0  0  0  0
   18.1558   -7.0077   17.5039 C   0  0  0  0  0  0  0  0  0  0  0  0
   18.9846   -7.2622   16.4386 C   0  0  0  0  0  0  0  0  0  0  0  0
   20.3633   -6.9628   16.3421 C   0  0  0  0  0  0  0  0  0  0  0  0
   21.1890   -6.3708   17.4492 C   0  0  1  0  0  0  0  0  0  0  0  0
   21.8852   -7.4605   18.0356 O   0  0  0  0  0  0  0  0  0  0  0  0
   22.1881   -5.3614   17.1072 N   0  0  0  0  0  0  0  0  0  0  0  0
   22.6677   -4.6884   18.3564 C   0  0  0  0  0  0  0  0  0  0  0  0
   22.3420   -3.1959   18.1231 C   0  0  1  0  0  0  0  0  0  0  0  0
   22.7026   -3.1277   16.6377 C   0  0  0  0  0  0  0  0  0  0  0  0
   21.6885   -4.2158   16.2777 C   0  0  2  0  0  0  0  0  0  0  0  0
   20.4009   -3.5364   16.8137 C   0  0  0  0  0  0  0  0  0  0  0  0
   20.8705   -2.9326   18.0777 N   0  0  0  0  0  0  0  0  0  0  0  0
   20.1130   -3.2213   19.2002 C   0  0  0  0  0  0  0  0  0  0  0  0
   18.7170   -3.2057   19.1582 C   0  0  0  0  0  0  0  0  0  0  0  0
   17.9863   -3.6457   20.2605 C   0  0  0  0  0  0  0  0  0  0  0  0
   18.6713   -4.0934   21.3781 C   0  0  0  0  0  0  0  0  0  0  0  0
   17.8374   -4.7778   22.9129 Br  0  0  0  0  0  0  0  0  0  0  0  0
   20.0450   -4.0069   21.3749 C   0  0  0  0  0  0  0  0  0  0  0  0
   20.7630   -3.5551   20.3306 N   0  0  0  0  0  0  0  0  0  0  0  0
   20.8584   -7.4390   15.0907 C   0  0  0  0  0  0  0  0  0  0  0  0
   22.7278   -7.3849   14.6590 Br  0  0  0  0  0  0  0  0  0  0  0  0
   20.0556   -8.0644   14.0776 C   0  0  0  0  0  0  0  0  0  0  0  0
   18.6838   -8.3366   14.2224 C   0  0  0  0  0  0  0  0  0  0  0  0
   18.1612   -7.9310   15.4554 C   0  0  0  0  0  0  0  0  0  0  0  0
   16.9170   -8.0939   15.9328 N   0  0  0  0  0  0  0  0  0  0  0  0
  1  2  1  0
  2  3  1  0
  3  4  2  0
  4  5  1  0
  5  6  1  0
  6  7  1  6
  6  8  1  0
  8  9  1  0
 10  9  1  6
 10 11  1  0
 11 12  1  0
 12 13  1  1
 13 14  1  0
 14 15  1  0
 15 16  2  0
 16 17  1  0
 17 18  2  0
 18 19  1  0
 18 20  1  0
 20 21  2  0
  5 22  2  0
 22 23  1  0
 22 24  1  0
 24 25  2  0
 25 26  1  0
 26 27  2  0
 27  2  1  0
 26  4  1  0
 12  8  1  0
 21 15  1  0
 14 10  1  0
M  END
>  <energy_score>  (4604) 
-47.405621

>  <inchikey>  (4604) 
UUGZLHFXGKUBRX-UHFFFAOYSA-N

>  <smiles>  (4604) 
Cn1cc2c(C(O)N3CC4CC3CN4c3ccc(Br)cn3)c(Br)ccc2n1

>  <ref_pdb>  (4604) 
A3181a

>  <alias>  (4604) 
UUGZLHFXGKUBRX-UHFFFAOYSA-N-P103-P12-P103-601509

>  <HIPPO Pose ID>  (4604) 
516149

>  <name>  (4604) 
UUGZLHFXGKUBRX-UHFFFAOYSA-N-P103-P12-P103-601509

>  <HIPPO Compound ID>  (4604) 
293460

>  <ref_mols>  (4604) 
A0497a,A1105b

>  <distance_score>  (4604) 
1.235783

>  <inspiration_score>  (4604) 
None

$$$$
SDBJKBDMWVYHHZ-UHFFFAOYSA-N-P12-P12-P103-601509
     RDKit          3D

 27 31  0  0  0  0  0  0  0  0999 V2000
   17.5687   -9.4835   13.0527 C   0  0  0  0  0  0  0  0  0  0  0  0
   18.4310   -8.7080   13.9917 C   0  0  0  0  0  0  0  0  0  0  0  0
   19.7891   -8.4479   13.7043 C   0  0  0  0  0  0  0  0  0  0  0  0
   20.6583   -7.7218   14.5691 C   0  0  0  0  0  0  0  0  0  0  0  0
   20.2961   -7.1623   15.8269 C   0  0  0  0  0  0  0  0  0  0  0  0
   21.3337   -6.3952   16.6153 C   0  0  2  0  0  0  0  0  0  0  0  0
   22.6096   -6.9948   16.4291 O   0  0  0  0  0  0  0  0  0  0  0  0
   21.0590   -6.2641   18.0162 N   0  0  0  0  0  0  0  0  0  0  0  0
   21.7941   -5.1895   18.7071 C   0  0  0  0  0  0  0  0  0  0  0  0
   21.9098   -5.7767   20.1416 C   0  0  2  0  0  0  0  0  0  0  0  0
   22.4099   -7.1718   19.7512 C   0  0  0  0  0  0  0  0  0  0  0  0
   21.1771   -7.4512   18.8967 C   0  0  1  0  0  0  0  0  0  0  0  0
   20.0977   -7.2928   20.0118 C   0  0  0  0  0  0  0  0  0  0  0  0
   20.5380   -6.0583   20.7234 N   0  0  0  0  0  0  0  0  0  0  0  0
   19.7600   -4.8944   20.6815 C   0  0  0  0  0  0  0  0  0  0  0  0
   18.4165   -4.8732   20.3079 C   0  0  0  0  0  0  0  0  0  0  0  0
   17.7699   -3.6571   20.0672 C   0  0  0  0  0  0  0  0  0  0  0  0
   18.4614   -2.4838   20.2916 C   0  0  0  0  0  0  0  0  0  0  0  0
   17.6621   -0.7965   20.1314 Br  0  0  0  0  0  0  0  0  0  0  0  0
   19.7598   -2.5693   20.7376 C   0  0  0  0  0  0  0  0  0  0  0  0
   20.4055   -3.7336   20.9455 N   0  0  0  0  0  0  0  0  0  0  0  0
   18.9257   -7.3886   16.0504 C   0  0  0  0  0  0  0  0  0  0  0  0
   18.1523   -6.8795   17.0580 C   0  0  0  0  0  0  0  0  0  0  0  0
   16.9016   -7.3792   16.8604 N   0  0  0  0  0  0  0  0  0  0  0  0
   15.7307   -7.1036   17.6584 C   0  0  0  0  0  0  0  0  0  0  0  0
   16.7876   -8.1583   15.7716 N   0  0  0  0  0  0  0  0  0  0  0  0
   18.0104   -8.1356   15.2085 C   0  0  0  0  0  0  0  0  0  0  0  0
  1  2  1  0
  2  3  2  0
  3  4  1  0
  4  5  2  0
  5  6  1  0
  6  7  1  1
  6  8  1  0
  8  9  1  0
 10  9  1  6
 10 11  1  0
 11 12  1  0
 12 13  1  1
 13 14  1  0
 14 15  1  0
 15 16  2  0
 16 17  1  0
 17 18  2  0
 18 19  1  0
 18 20  1  0
 20 21  2  0
  5 22  1  0
 22 23  2  0
 23 24  1  0
 24 25  1  0
 24 26  1  0
 26 27  2  0
 27  2  1  0
 12  8  1  0
 21 15  1  0
 27 22  1  0
 14 10  1  0
M  END
>  <energy_score>  (4605) 
-28.878947

>  <inchikey>  (4605) 
SDBJKBDMWVYHHZ-UHFFFAOYSA-N

>  <smiles>  (4605) 
Cc1ccc(C(O)N2CC3CC2CN3c2ccc(Br)cn2)c2cn(C)nc12

>  <ref_pdb>  (4605) 
A3181a

>  <alias>  (4605) 
SDBJKBDMWVYHHZ-UHFFFAOYSA-N-P12-P12-P103-601509

>  <HIPPO Pose ID>  (4605) 
516150

>  <name>  (4605) 
SDBJKBDMWVYHHZ-UHFFFAOYSA-N-P12-P12-P103-601509

>  <HIPPO Compound ID>  (4605) 
293461

>  <ref_mols>  (4605) 
A0497a,A1105b

>  <distance_score>  (4605) 
1.352575

>  <inspiration_score>  (4605) 
None

$$$$
SDBJKBDMWVYHHZ-UHFFFAOYSA-N-P103-P12-P103-601509
     RDKit          3D

 27 31  0  0  0  0  0  0  0  0999 V2000
   18.7466  -10.5264   14.0540 C   0  0  0  0  0  0  0  0  0  0  0  0
   19.3135   -9.2326   14.5354 C   0  0  0  0  0  0  0  0  0  0  0  0
   20.5823   -8.7777   14.1108 C   0  0  0  0  0  0  0  0  0  0  0  0
   21.1770   -7.5525   14.5342 C   0  0  0  0  0  0  0  0  0  0  0  0
   20.5850   -6.6202   15.4240 C   0  0  0  0  0  0  0  0  0  0  0  0
   21.2415   -5.2833   15.6982 C   0  0  2  0  0  0  0  0  0  0  0  0
   22.4363   -5.0996   14.9485 O   0  0  0  0  0  0  0  0  0  0  0  0
   21.4823   -5.0520   17.0882 N   0  0  0  0  0  0  0  0  0  0  0  0
   21.6100   -3.6433   17.4840 C   0  0  0  0  0  0  0  0  0  0  0  0
   22.4142   -3.7842   18.8092 C   0  0  2  0  0  0  0  0  0  0  0  0
   23.5359   -4.6656   18.2401 C   0  0  0  0  0  0  0  0  0  0  0  0
   22.5600   -5.7591   17.8083 C   0  0  1  0  0  0  0  0  0  0  0  0
   21.9666   -6.0855   19.2081 C   0  0  0  0  0  0  0  0  0  0  0  0
   21.7363   -4.7191   19.8058 N   0  0  0  0  0  0  0  0  0  0  0  0
   20.3926   -4.3356   20.0174 C   0  0  0  0  0  0  0  0  0  0  0  0
   19.3923   -5.2891   20.1488 C   0  0  0  0  0  0  0  0  0  0  0  0
   18.1153   -4.9658   19.7268 C   0  0  0  0  0  0  0  0  0  0  0  0
   17.8242   -3.6690   19.3497 C   0  0  0  0  0  0  0  0  0  0  0  0
   16.1867   -3.2695   18.5303 Br  0  0  0  0  0  0  0  0  0  0  0  0
   18.7999   -2.7173   19.5333 C   0  0  0  0  0  0  0  0  0  0  0  0
   20.0695   -3.0251   19.8876 N   0  0  0  0  0  0  0  0  0  0  0  0
   19.3273   -7.1096   15.8411 C   0  0  0  0  0  0  0  0  0  0  0  0
   18.4150   -6.4821   16.6475 C   0  0  0  0  0  0  0  0  0  0  0  0
   17.3351   -7.3146   16.7087 N   0  0  0  0  0  0  0  0  0  0  0  0
   16.0821   -7.0760   17.3832 C   0  0  0  0  0  0  0  0  0  0  0  0
   17.4868   -8.4613   16.0243 N   0  0  0  0  0  0  0  0  0  0  0  0
   18.6899   -8.3475   15.4345 C   0  0  0  0  0  0  0  0  0  0  0  0
  1  2  1  0
  2  3  2  0
  3  4  1  0
  4  5  2  0
  5  6  1  0
  6  7  1  6
  6  8  1  0
  8  9  1  0
 10  9  1  6
 10 11  1  0
 11 12  1  0
 12 13  1  1
 13 14  1  0
 14 15  1  0
 15 16  2  0
 16 17  1  0
 17 18  2  0
 18 19  1  0
 18 20  1  0
 20 21  2  0
  5 22  1  0
 22 23  2  0
 23 24  1  0
 24 25  1  0
 24 26  1  0
 26 27  2  0
 27  2  1  0
 12  8  1  0
 21 15  1  0
 27 22  1  0
 14 10  1  0
M  END
>  <energy_score>  (4606) 
-20.031243

>  <inchikey>  (4606) 
SDBJKBDMWVYHHZ-UHFFFAOYSA-N

>  <smiles>  (4606) 
Cc1ccc(C(O)N2CC3CC2CN3c2ccc(Br)cn2)c2cn(C)nc12

>  <ref_pdb>  (4606) 
A3181a

>  <alias>  (4606) 
SDBJKBDMWVYHHZ-UHFFFAOYSA-N-P103-P12-P103-601509

>  <HIPPO Pose ID>  (4606) 
516151

>  <name>  (4606) 
SDBJKBDMWVYHHZ-UHFFFAOYSA-N-P103-P12-P103-601509

>  <HIPPO Compound ID>  (4606) 
293461

>  <ref_mols>  (4606) 
A0497a,A1105b

>  <distance_score>  (4606) 
1.424967

>  <inspiration_score>  (4606) 
None

$$$$
IVURZZFCMMQIGD-UHFFFAOYSA-N-P12-P12-P103-601509
     RDKit          3D

 28 31  0  0  0  0  0  0  0  0999 V2000
   17.9652   -1.9181   19.8435 C   0  0  0  0  0  0  0  0  0  0  0  0
   17.9189   -2.9389   18.8708 O   0  0  0  0  0  0  0  0  0  0  0  0
   17.4269   -4.1675   19.3658 C   0  0  2  0  0  0  0  0  0  0  0  0
   18.4686   -5.1563   19.3531 N   0  0  0  0  0  0  0  0  0  0  0  0
   19.5902   -5.0259   20.2850 C   0  0  2  0  0  0  0  0  0  0  0  0
   20.6529   -3.9847   19.9294 C   0  0  0  0  0  0  0  0  0  0  0  0
   21.4021   -4.5980   18.7437 C   0  0  0  0  0  0  0  0  0  0  0  0
   21.2499   -6.0591   18.8949 N   0  0  0  0  0  0  0  0  0  0  0  0
   20.7560   -6.7667   17.7830 C   0  0  0  0  0  0  0  0  0  0  0  0
   20.9654   -6.3276   16.4747 C   0  0  0  0  0  0  0  0  0  0  0  0
   20.3091   -6.9471   15.4174 C   0  0  0  0  0  0  0  0  0  0  0  0
   19.5143   -8.0518   15.6652 C   0  0  0  0  0  0  0  0  0  0  0  0
   19.4374   -8.5215   16.9637 C   0  0  0  0  0  0  0  0  0  0  0  0
   18.7613   -9.8289   17.2524 C   0  0  0  0  0  0  0  0  0  0  0  0
   20.0476   -7.8987   18.0001 N   0  0  0  0  0  0  0  0  0  0  0  0
   20.4797   -6.2971   20.1435 C   0  0  0  0  0  0  0  0  0  0  0  0
   16.2215   -4.6525   18.5263 C   0  0  0  0  0  0  0  0  0  0  0  0
   15.2045   -3.7200   18.2088 C   0  0  0  0  0  0  0  0  0  0  0  0
   14.0447   -4.0885   17.5304 C   0  0  0  0  0  0  0  0  0  0  0  0
   13.8073   -5.4033   17.1529 C   0  0  0  0  0  0  0  0  0  0  0  0
   14.7681   -6.3598   17.4884 C   0  0  0  0  0  0  0  0  0  0  0  0
   15.9551   -6.0155   18.1424 C   0  0  0  0  0  0  0  0  0  0  0  0
   16.5950   -7.2617   18.3263 C   0  0  0  0  0  0  0  0  0  0  0  0
   15.9127   -8.2985   17.8424 N   0  0  0  0  0  0  0  0  0  0  0  0
   14.7864   -7.7410   17.3162 N   0  0  0  0  0  0  0  0  0  0  0  0
   13.8224   -8.5680   16.6821 C   0  0  0  0  0  0  0  0  0  0  0  0
   12.8552   -8.0314   16.1452 O   0  0  0  0  0  0  0  0  0  0  0  0
   14.1045  -10.2924   16.6885 Cl  0  0  0  0  0  0  0  0  0  0  0  0
  1  2  1  0
  2  3  1  0
  3  4  1  6
  5  4  1  6
  5  6  1  0
  6  7  1  0
  7  8  1  0
  8  9  1  0
  9 10  2  0
 10 11  1  0
 11 12  2  0
 12 13  1  0
 13 14  1  0
 13 15  2  0
  8 16  1  0
  3 17  1  0
 17 18  2  0
 18 19  1  0
 19 20  2  0
 20 21  1  0
 21 22  2  0
 22 23  1  0
 23 24  2  0
 24 25  1  0
 25 26  1  0
 26 27  2  0
 26 28  1  0
 16  5  1  0
 22 17  1  0
 15  9  1  0
 25 21  1  0
M  END
>  <energy_score>  (4607) 
-41.260288

>  <inchikey>  (4607) 
IVURZZFCMMQIGD-UHFFFAOYSA-N

>  <smiles>  (4607) 
COC(NC1CCN(c2cccc(C)n2)C1)c1cccc2c1cnn2C(=O)Cl

>  <ref_pdb>  (4607) 
A3181a

>  <alias>  (4607) 
IVURZZFCMMQIGD-UHFFFAOYSA-N-P12-P12-P103-601509

>  <HIPPO Pose ID>  (4607) 
516154

>  <name>  (4607) 
IVURZZFCMMQIGD-UHFFFAOYSA-N-P12-P12-P103-601509

>  <HIPPO Compound ID>  (4607) 
293463

>  <ref_mols>  (4607) 
A0497a,A1105b

>  <distance_score>  (4607) 
1.30354

>  <inspiration_score>  (4607) 
None

$$$$
IVURZZFCMMQIGD-UHFFFAOYSA-N-P103-P12-P103-601509
     RDKit          3D

 28 31  0  0  0  0  0  0  0  0999 V2000
   18.8356   -2.2752   18.5925 C   0  0  0  0  0  0  0  0  0  0  0  0
   17.8139   -3.0880   19.1283 O   0  0  0  0  0  0  0  0  0  0  0  0
   17.8710   -4.4378   18.6925 C   0  0  1  0  0  0  0  0  0  0  0  0
   18.2856   -5.2212   19.8538 N   0  0  0  0  0  0  0  0  0  0  0  0
   19.6657   -4.9405   20.3032 C   0  0  1  0  0  0  0  0  0  0  0  0
   20.1075   -6.0535   21.2405 C   0  0  0  0  0  0  0  0  0  0  0  0
   20.5338   -7.1777   20.2809 C   0  0  0  0  0  0  0  0  0  0  0  0
   21.0299   -6.4832   19.0698 N   0  0  0  0  0  0  0  0  0  0  0  0
   20.5679   -7.0108   17.8522 C   0  0  0  0  0  0  0  0  0  0  0  0
   20.7576   -6.3207   16.6522 C   0  0  0  0  0  0  0  0  0  0  0  0
   20.1429   -6.7617   15.4886 C   0  0  0  0  0  0  0  0  0  0  0  0
   19.3968   -7.9254   15.5187 C   0  0  0  0  0  0  0  0  0  0  0  0
   19.3390   -8.6341   16.7060 C   0  0  0  0  0  0  0  0  0  0  0  0
   18.6701   -9.9758   16.7498 C   0  0  0  0  0  0  0  0  0  0  0  0
   19.9292   -8.2002   17.8457 N   0  0  0  0  0  0  0  0  0  0  0  0
   20.8048   -5.0420   19.2592 C   0  0  0  0  0  0  0  0  0  0  0  0
   16.4914   -4.8595   18.1702 C   0  0  0  0  0  0  0  0  0  0  0  0
   15.5190   -3.8816   17.8495 C   0  0  0  0  0  0  0  0  0  0  0  0
   14.2693   -4.2035   17.3280 C   0  0  0  0  0  0  0  0  0  0  0  0
   13.9186   -5.5259   17.0971 C   0  0  0  0  0  0  0  0  0  0  0  0
   14.8403   -6.5196   17.4429 C   0  0  0  0  0  0  0  0  0  0  0  0
   16.0955   -6.2096   17.9669 C   0  0  0  0  0  0  0  0  0  0  0  0
   16.6604   -7.4677   18.2499 C   0  0  0  0  0  0  0  0  0  0  0  0
   15.8851   -8.4952   17.9066 N   0  0  0  0  0  0  0  0  0  0  0  0
   14.7613   -7.9087   17.4015 N   0  0  0  0  0  0  0  0  0  0  0  0
   13.7175   -8.7191   16.8862 C   0  0  0  0  0  0  0  0  0  0  0  0
   12.7887   -8.1683   16.2976 O   0  0  0  0  0  0  0  0  0  0  0  0
   13.8583  -10.4487   17.0862 Cl  0  0  0  0  0  0  0  0  0  0  0  0
  1  2  1  0
  2  3  1  0
  3  4  1  1
  5  4  1  6
  5  6  1  0
  6  7  1  0
  7  8  1  0
  8  9  1  0
  9 10  2  0
 10 11  1  0
 11 12  2  0
 12 13  1  0
 13 14  1  0
 13 15  2  0
  8 16  1  0
  3 17  1  0
 17 18  2  0
 18 19  1  0
 19 20  2  0
 20 21  1  0
 21 22  2  0
 22 23  1  0
 23 24  2  0
 24 25  1  0
 25 26  1  0
 26 27  2  0
 26 28  1  0
 16  5  1  0
 22 17  1  0
 15  9  1  0
 25 21  1  0
M  END
>  <energy_score>  (4608) 
-45.947966

>  <inchikey>  (4608) 
IVURZZFCMMQIGD-UHFFFAOYSA-N

>  <smiles>  (4608) 
COC(NC1CCN(c2cccc(C)n2)C1)c1cccc2c1cnn2C(=O)Cl

>  <ref_pdb>  (4608) 
A3181a

>  <alias>  (4608) 
IVURZZFCMMQIGD-UHFFFAOYSA-N-P103-P12-P103-601509

>  <HIPPO Pose ID>  (4608) 
516155

>  <name>  (4608) 
IVURZZFCMMQIGD-UHFFFAOYSA-N-P103-P12-P103-601509

>  <HIPPO Compound ID>  (4608) 
293463

>  <ref_mols>  (4608) 
A0497a,A1105b

>  <distance_score>  (4608) 
1.366282

>  <inspiration_score>  (4608) 
None

$$$$
NOUZYTUJXWYOMS-UHFFFAOYSA-N-P12-P12-P103-601509
     RDKit          3D

 28 31  0  0  0  0  0  0  0  0999 V2000
   18.4026   -2.4095   19.2021 C   0  0  0  0  0  0  0  0  0  0  0  0
   17.5494   -3.4260   19.6993 O   0  0  0  0  0  0  0  0  0  0  0  0
   17.6432   -4.6625   18.9986 C   0  0  1  0  0  0  0  0  0  0  0  0
   18.2512   -5.6595   19.8829 N   0  0  0  0  0  0  0  0  0  0  0  0
   19.6104   -5.2416   20.3138 C   0  0  1  0  0  0  0  0  0  0  0  0
   20.2008   -6.3203   21.2081 C   0  0  0  0  0  0  0  0  0  0  0  0
   20.7232   -7.3821   20.2286 C   0  0  0  0  0  0  0  0  0  0  0  0
   21.0340   -6.6527   18.9792 N   0  0  0  0  0  0  0  0  0  0  0  0
   20.4372   -7.1427   17.7980 C   0  0  0  0  0  0  0  0  0  0  0  0
   19.4153   -8.0236   17.8947 N   0  0  0  0  0  0  0  0  0  0  0  0
   18.7930   -8.4127   16.7562 C   0  0  0  0  0  0  0  0  0  0  0  0
   19.0906   -7.9250   15.5009 C   0  0  0  0  0  0  0  0  0  0  0  0
   20.1528   -7.0474   15.3894 C   0  0  0  0  0  0  0  0  0  0  0  0
   20.8466   -6.6831   16.5334 C   0  0  0  0  0  0  0  0  0  0  0  0
   21.9263   -5.9062   16.3852 F   0  0  0  0  0  0  0  0  0  0  0  0
   20.6978   -5.2283   19.1981 C   0  0  0  0  0  0  0  0  0  0  0  0
   16.2554   -5.0614   18.4445 C   0  0  0  0  0  0  0  0  0  0  0  0
   15.3012   -4.0328   18.1905 C   0  0  0  0  0  0  0  0  0  0  0  0
   14.0895   -4.2783   17.5538 C   0  0  0  0  0  0  0  0  0  0  0  0
   13.7550   -5.5554   17.1214 C   0  0  0  0  0  0  0  0  0  0  0  0
   14.6310   -6.6079   17.4147 C   0  0  0  0  0  0  0  0  0  0  0  0
   15.8277   -6.3855   18.1095 C   0  0  0  0  0  0  0  0  0  0  0  0
   16.2634   -7.6897   18.4163 C   0  0  0  0  0  0  0  0  0  0  0  0
   15.5356   -8.6509   17.8579 N   0  0  0  0  0  0  0  0  0  0  0  0
   14.5647   -7.9828   17.1696 N   0  0  0  0  0  0  0  0  0  0  0  0
   13.7219   -8.7358   16.3045 C   0  0  0  0  0  0  0  0  0  0  0  0
   13.7108   -9.9598   16.4273 O   0  0  0  0  0  0  0  0  0  0  0  0
   12.8458   -7.8979   15.0571 Cl  0  0  0  0  0  0  0  0  0  0  0  0
  1  2  1  0
  2  3  1  0
  3  4  1  1
  5  4  1  6
  5  6  1  0
  6  7  1  0
  7  8  1  0
  8  9  1  0
  9 10  2  0
 10 11  1  0
 11 12  2  0
 12 13  1  0
 13 14  2  0
 14 15  1  0
  8 16  1  0
  3 17  1  0
 17 18  2  0
 18 19  1  0
 19 20  2  0
 20 21  1  0
 21 22  2  0
 22 23  1  0
 23 24  2  0
 24 25  1  0
 25 26  1  0
 26 27  2  0
 26 28  1  0
 16  5  1  0
 22 17  1  0
 14  9  1  0
 25 21  1  0
M  END
>  <energy_score>  (4609) 
-32.705757

>  <inchikey>  (4609) 
NOUZYTUJXWYOMS-UHFFFAOYSA-N

>  <smiles>  (4609) 
COC(NC1CCN(c2ncccc2F)C1)c1cccc2c1cnn2C(=O)Cl

>  <ref_pdb>  (4609) 
A3181a

>  <alias>  (4609) 
NOUZYTUJXWYOMS-UHFFFAOYSA-N-P12-P12-P103-601509

>  <HIPPO Pose ID>  (4609) 
516156

>  <name>  (4609) 
NOUZYTUJXWYOMS-UHFFFAOYSA-N-P12-P12-P103-601509

>  <HIPPO Compound ID>  (4609) 
293464

>  <ref_mols>  (4609) 
A0497a,A1105b

>  <distance_score>  (4609) 
1.656004

>  <inspiration_score>  (4609) 
None

$$$$
NOUZYTUJXWYOMS-UHFFFAOYSA-N-P103-P12-P103-601509
     RDKit          3D

 28 31  0  0  0  0  0  0  0  0999 V2000
   18.4296   -2.3189   19.0046 C   0  0  0  0  0  0  0  0  0  0  0  0
   17.6528   -3.2915   19.6821 O   0  0  0  0  0  0  0  0  0  0  0  0
   17.7273   -4.6146   19.1612 C   0  0  2  0  0  0  0  0  0  0  0  0
   19.0104   -4.9328   18.5978 N   0  0  0  0  0  0  0  0  0  0  0  0
   20.0411   -5.2126   19.6191 C   0  0  2  0  0  0  0  0  0  0  0  0
   21.3305   -4.4825   19.2497 C   0  0  0  0  0  0  0  0  0  0  0  0
   21.9025   -5.3130   18.0919 C   0  0  0  0  0  0  0  0  0  0  0  0
   21.3777   -6.6903   18.2962 N   0  0  0  0  0  0  0  0  0  0  0  0
   20.6865   -7.1831   17.1640 C   0  0  0  0  0  0  0  0  0  0  0  0
   19.4795   -7.7738   17.3524 N   0  0  0  0  0  0  0  0  0  0  0  0
   18.7554   -8.1375   16.2701 C   0  0  0  0  0  0  0  0  0  0  0  0
   19.1505   -7.9162   14.9715 C   0  0  0  0  0  0  0  0  0  0  0  0
   20.4005   -7.3616   14.7673 C   0  0  0  0  0  0  0  0  0  0  0  0
   21.1834   -7.0311   15.8623 C   0  0  0  0  0  0  0  0  0  0  0  0
   22.4136   -6.5544   15.6322 F   0  0  0  0  0  0  0  0  0  0  0  0
   20.5705   -6.6679   19.5385 C   0  0  0  0  0  0  0  0  0  0  0  0
   16.5210   -4.9712   18.2797 C   0  0  0  0  0  0  0  0  0  0  0  0
   15.6197   -3.9776   17.8432 C   0  0  0  0  0  0  0  0  0  0  0  0
   14.3915   -4.2892   17.2638 C   0  0  0  0  0  0  0  0  0  0  0  0
   14.0059   -5.6135   17.0677 C   0  0  0  0  0  0  0  0  0  0  0  0
   14.8770   -6.6311   17.4823 C   0  0  0  0  0  0  0  0  0  0  0  0
   16.0968   -6.3205   18.0935 C   0  0  0  0  0  0  0  0  0  0  0  0
   16.5735   -7.5646   18.5502 C   0  0  0  0  0  0  0  0  0  0  0  0
   15.8091   -8.5904   18.1982 N   0  0  0  0  0  0  0  0  0  0  0  0
   14.7736   -8.0275   17.5031 N   0  0  0  0  0  0  0  0  0  0  0  0
   13.8345   -8.9080   16.8953 C   0  0  0  0  0  0  0  0  0  0  0  0
   13.8475  -10.0914   17.2320 O   0  0  0  0  0  0  0  0  0  0  0  0
   12.7966   -8.2961   15.6443 Cl  0  0  0  0  0  0  0  0  0  0  0  0
  1  2  1  0
  2  3  1  0
  3  4  1  6
  5  4  1  6
  5  6  1  0
  6  7  1  0
  7  8  1  0
  8  9  1  0
  9 10  2  0
 10 11  1  0
 11 12  2  0
 12 13  1  0
 13 14  2  0
 14 15  1  0
  8 16  1  0
  3 17  1  0
 17 18  2  0
 18 19  1  0
 19 20  2  0
 20 21  1  0
 21 22  2  0
 22 23  1  0
 23 24  2  0
 24 25  1  0
 25 26  1  0
 26 27  2  0
 26 28  1  0
 16  5  1  0
 22 17  1  0
 14  9  1  0
 25 21  1  0
M  END
>  <energy_score>  (4610) 
-30.832622

>  <inchikey>  (4610) 
NOUZYTUJXWYOMS-UHFFFAOYSA-N

>  <smiles>  (4610) 
COC(NC1CCN(c2ncccc2F)C1)c1cccc2c1cnn2C(=O)Cl

>  <ref_pdb>  (4610) 
A3181a

>  <alias>  (4610) 
NOUZYTUJXWYOMS-UHFFFAOYSA-N-P103-P12-P103-601509

>  <HIPPO Pose ID>  (4610) 
516157

>  <name>  (4610) 
NOUZYTUJXWYOMS-UHFFFAOYSA-N-P103-P12-P103-601509

>  <HIPPO Compound ID>  (4610) 
293464

>  <ref_mols>  (4610) 
A0497a,A1105b

>  <distance_score>  (4610) 
1.726683

>  <inspiration_score>  (4610) 
None

$$$$
USBMRBBRSGIEJG-UHFFFAOYSA-N-P103-P12-P103-601509
     RDKit          3D

 28 32  0  0  0  0  0  0  0  0999 V2000
   17.6654   -2.6300   18.7346 O   0  0  0  0  0  0  0  0  0  0  0  0
   17.3607   -3.9616   19.1013 C   0  0  1  0  0  0  0  0  0  0  0  0
   16.2244   -4.5266   18.2574 C   0  0  0  0  0  0  0  0  0  0  0  0
   15.1818   -3.6657   17.8200 C   0  0  0  0  0  0  0  0  0  0  0  0
   13.9965   -4.0727   17.1505 C   0  0  0  0  0  0  0  0  0  0  0  0
   13.6815   -5.4101   16.8923 C   0  0  0  0  0  0  0  0  0  0  0  0
   14.6290   -6.3186   17.3607 C   0  0  0  0  0  0  0  0  0  0  0  0
   14.5753   -7.6610   17.3458 N   0  0  0  0  0  0  0  0  0  0  0  0
   15.5993   -8.0324   18.1501 N   0  0  0  0  0  0  0  0  0  0  0  0
   15.6527   -9.3911   18.6780 C   0  0  0  0  0  0  0  0  0  0  0  0
   16.2543  -10.2432   17.8032 F   0  0  0  0  0  0  0  0  0  0  0  0
   16.3651   -9.4605   19.8377 F   0  0  0  0  0  0  0  0  0  0  0  0
   16.4388   -7.0006   18.4775 C   0  0  0  0  0  0  0  0  0  0  0  0
   15.8477   -5.8639   17.9953 C   0  0  0  0  0  0  0  0  0  0  0  0
   18.5350   -4.7743   19.0559 N   0  0  0  0  0  0  0  0  0  0  0  0
   19.4416   -4.4524   17.9377 C   0  0  0  0  0  0  0  0  0  0  0  0
   20.8259   -4.6875   18.5758 C   0  0  1  0  0  0  0  0  0  0  0  0
   20.5844   -3.9604   19.8995 C   0  0  0  0  0  0  0  0  0  0  0  0
   19.4067   -4.8536   20.2459 C   0  0  2  0  0  0  0  0  0  0  0  0
   20.1345   -6.2452   20.2027 C   0  0  0  0  0  0  0  0  0  0  0  0
   20.9933   -6.1381   18.9795 N   0  0  0  0  0  0  0  0  0  0  0  0
   20.5957   -6.9903   17.9105 C   0  0  0  0  0  0  0  0  0  0  0  0
   21.1471   -6.7749   16.6367 C   0  0  0  0  0  0  0  0  0  0  0  0
   20.4935   -7.2694   15.5116 C   0  0  0  0  0  0  0  0  0  0  0  0
   19.3565   -8.0359   15.6873 C   0  0  0  0  0  0  0  0  0  0  0  0
   18.3432   -8.6450   14.2290 Br  0  0  0  0  0  0  0  0  0  0  0  0
   18.9771   -8.3530   16.9717 C   0  0  0  0  0  0  0  0  0  0  0  0
   19.5697   -7.8567   18.0773 N   0  0  0  0  0  0  0  0  0  0  0  0
  2  1  1  6
  2  3  1  0
  3  4  2  0
  4  5  1  0
  5  6  2  0
  6  7  1  0
  7  8  2  0
  8  9  1  0
  9 10  1  0
 10 11  1  0
 10 12  1  0
  9 13  1  0
 13 14  2  0
  2 15  1  0
 15 16  1  0
 17 16  1  6
 17 18  1  0
 18 19  1  0
 19 20  1  6
 20 21  1  0
 21 22  1  0
 22 23  2  0
 23 24  1  0
 24 25  2  0
 25 26  1  0
 25 27  1  0
 27 28  2  0
 14  3  1  0
 19 15  1  0
 28 22  1  0
 14  7  1  0
 21 17  1  0
M  END
>  <energy_score>  (4611) 
-23.809961

>  <inchikey>  (4611) 
USBMRBBRSGIEJG-UHFFFAOYSA-N

>  <smiles>  (4611) 
OC(c1cccc2nn(C(F)F)cc12)N1CC2CC1CN2c1ccc(Br)cn1

>  <ref_pdb>  (4611) 
A3181a

>  <alias>  (4611) 
USBMRBBRSGIEJG-UHFFFAOYSA-N-P103-P12-P103-601509

>  <HIPPO Pose ID>  (4611) 
516159

>  <name>  (4611) 
USBMRBBRSGIEJG-UHFFFAOYSA-N-P103-P12-P103-601509

>  <HIPPO Compound ID>  (4611) 
293465

>  <ref_mols>  (4611) 
A0497a,A1105b

>  <distance_score>  (4611) 
1.895685

>  <inspiration_score>  (4611) 
None

$$$$
PMIISQRXOHXPCD-UHFFFAOYSA-N-P12-P12-P103-601509
     RDKit          3D

 28 32  0  0  0  0  0  0  0  0999 V2000
   16.3459   -8.6991   13.2003 C   0  0  0  0  0  0  0  0  0  0  0  0
   17.6297   -8.1625   12.8990 O   0  0  0  0  0  0  0  0  0  0  0  0
   18.4478   -7.9784   13.9986 C   0  0  0  0  0  0  0  0  0  0  0  0
   19.8222   -7.8394   13.7404 C   0  0  0  0  0  0  0  0  0  0  0  0
   20.7917   -7.6377   14.7620 C   0  0  0  0  0  0  0  0  0  0  0  0
   20.5147   -7.5299   16.1586 C   0  0  0  0  0  0  0  0  0  0  0  0
   21.6823   -7.2472   17.1008 C   0  0  2  0  0  0  0  0  0  0  0  0
   21.3019   -7.3569   18.4521 O   0  0  0  0  0  0  0  0  0  0  0  0
   22.3172   -5.9803   16.7700 N   0  0  0  0  0  0  0  0  0  0  0  0
   21.3785   -4.8484   16.6896 C   0  0  0  0  0  0  0  0  0  0  0  0
   22.1324   -3.7112   17.3945 C   0  0  2  0  0  0  0  0  0  0  0  0
   23.5654   -4.0655   16.9722 C   0  0  0  0  0  0  0  0  0  0  0  0
   23.4661   -5.4783   17.5622 C   0  0  1  0  0  0  0  0  0  0  0  0
   23.1558   -5.0742   19.0334 C   0  0  0  0  0  0  0  0  0  0  0  0
   22.1642   -3.9688   18.8543 N   0  0  0  0  0  0  0  0  0  0  0  0
   21.0143   -4.0603   19.6154 C   0  0  0  0  0  0  0  0  0  0  0  0
   19.8191   -3.3958   19.3416 C   0  0  0  0  0  0  0  0  0  0  0  0
   18.7000   -3.5883   20.1660 C   0  0  0  0  0  0  0  0  0  0  0  0
   18.8350   -4.3965   21.2816 C   0  0  0  0  0  0  0  0  0  0  0  0
   17.5393   -4.5886   22.6093 Br  0  0  0  0  0  0  0  0  0  0  0  0
   20.0392   -5.0143   21.4983 C   0  0  0  0  0  0  0  0  0  0  0  0
   21.0988   -4.8605   20.6942 N   0  0  0  0  0  0  0  0  0  0  0  0
   19.1248   -7.6306   16.3775 C   0  0  0  0  0  0  0  0  0  0  0  0
   18.4562   -7.5142   17.5694 C   0  0  0  0  0  0  0  0  0  0  0  0
   17.1378   -7.6827   17.2661 N   0  0  0  0  0  0  0  0  0  0  0  0
   16.0299   -7.6450   18.1898 C   0  0  0  0  0  0  0  0  0  0  0  0
   16.8901   -7.9107   15.9664 N   0  0  0  0  0  0  0  0  0  0  0  0
   18.0959   -7.8567   15.3663 C   0  0  0  0  0  0  0  0  0  0  0  0
  1  2  1  0
  2  3  1  0
  3  4  2  0
  4  5  1  0
  5  6  2  0
  6  7  1  0
  7  8  1  1
  7  9  1  0
  9 10  1  0
 11 10  1  6
 11 12  1  0
 12 13  1  0
 13 14  1  1
 14 15  1  0
 15 16  1  0
 16 17  2  0
 17 18  1  0
 18 19  2  0
 19 20  1  0
 19 21  1  0
 21 22  2  0
  6 23  1  0
 23 24  2  0
 24 25  1  0
 25 26  1  0
 25 27  1  0
 27 28  2  0
 28  3  1  0
 13  9  1  0
 22 16  1  0
 28 23  1  0
 15 11  1  0
M  END
>  <energy_score>  (4612) 
-38.117437

>  <inchikey>  (4612) 
PMIISQRXOHXPCD-UHFFFAOYSA-N

>  <smiles>  (4612) 
COc1ccc(C(O)N2CC3CC2CN3c2ccc(Br)cn2)c2cn(C)nc12

>  <ref_pdb>  (4612) 
A3181a

>  <alias>  (4612) 
PMIISQRXOHXPCD-UHFFFAOYSA-N-P12-P12-P103-601509

>  <HIPPO Pose ID>  (4612) 
516160

>  <name>  (4612) 
PMIISQRXOHXPCD-UHFFFAOYSA-N-P12-P12-P103-601509

>  <HIPPO Compound ID>  (4612) 
293466

>  <ref_mols>  (4612) 
A0497a,A1105b

>  <distance_score>  (4612) 
1.657474

>  <inspiration_score>  (4612) 
None

$$$$
PMIISQRXOHXPCD-UHFFFAOYSA-N-P103-P12-P103-601509
     RDKit          3D

 28 32  0  0  0  0  0  0  0  0999 V2000
   16.6471   -9.6767   13.5214 C   0  0  0  0  0  0  0  0  0  0  0  0
   17.7700   -8.9092   13.0996 O   0  0  0  0  0  0  0  0  0  0  0  0
   18.5318   -8.4067   14.1383 C   0  0  0  0  0  0  0  0  0  0  0  0
   19.8730   -8.1041   13.8469 C   0  0  0  0  0  0  0  0  0  0  0  0
   20.7808   -7.5827   14.8096 C   0  0  0  0  0  0  0  0  0  0  0  0
   20.4632   -7.2810   16.1681 C   0  0  0  0  0  0  0  0  0  0  0  0
   21.5541   -6.6710   17.0366 C   0  0  2  0  0  0  0  0  0  0  0  0
   21.1802   -6.6382   18.3931 O   0  0  0  0  0  0  0  0  0  0  0  0
   21.9657   -5.3818   16.5118 N   0  0  0  0  0  0  0  0  0  0  0  0
   20.8681   -4.4139   16.3161 C   0  0  0  0  0  0  0  0  0  0  0  0
   21.4528   -3.1137   16.8774 C   0  0  2  0  0  0  0  0  0  0  0  0
   22.9104   -3.2856   16.4153 C   0  0  0  0  0  0  0  0  0  0  0  0
   23.0658   -4.6194   17.1519 C   0  0  1  0  0  0  0  0  0  0  0  0
   22.7752   -4.1014   18.5825 C   0  0  0  0  0  0  0  0  0  0  0  0
   21.6034   -3.2026   18.3503 N   0  0  0  0  0  0  0  0  0  0  0  0
   20.5869   -3.3705   19.2588 C   0  0  0  0  0  0  0  0  0  0  0  0
   19.2248   -3.2670   18.9803 C   0  0  0  0  0  0  0  0  0  0  0  0
   18.2890   -3.6438   19.9581 C   0  0  0  0  0  0  0  0  0  0  0  0
   18.7527   -4.0722   21.1950 C   0  0  0  0  0  0  0  0  0  0  0  0
   17.6879   -4.6095   22.6326 Br  0  0  0  0  0  0  0  0  0  0  0  0
   20.1050   -4.0781   21.4184 C   0  0  0  0  0  0  0  0  0  0  0  0
   21.0011   -3.7274   20.4911 N   0  0  0  0  0  0  0  0  0  0  0  0
   19.1000   -7.5476   16.4125 C   0  0  0  0  0  0  0  0  0  0  0  0
   18.3994   -7.3270   17.5711 C   0  0  0  0  0  0  0  0  0  0  0  0
   17.1236   -7.7328   17.3084 N   0  0  0  0  0  0  0  0  0  0  0  0
   16.0029   -7.6861   18.2173 C   0  0  0  0  0  0  0  0  0  0  0  0
   16.9413   -8.2282   16.0738 N   0  0  0  0  0  0  0  0  0  0  0  0
   18.1366   -8.0982   15.4645 C   0  0  0  0  0  0  0  0  0  0  0  0
  1  2  1  0
  2  3  1  0
  3  4  2  0
  4  5  1  0
  5  6  2  0
  6  7  1  0
  7  8  1  1
  7  9  1  0
  9 10  1  0
 11 10  1  6
 11 12  1  0
 12 13  1  0
 13 14  1  1
 14 15  1  0
 15 16  1  0
 16 17  2  0
 17 18  1  0
 18 19  2  0
 19 20  1  0
 19 21  1  0
 21 22  2  0
  6 23  1  0
 23 24  2  0
 24 25  1  0
 25 26  1  0
 25 27  1  0
 27 28  2  0
 28  3  1  0
 13  9  1  0
 22 16  1  0
 28 23  1  0
 15 11  1  0
M  END
>  <energy_score>  (4613) 
-34.417523

>  <inchikey>  (4613) 
PMIISQRXOHXPCD-UHFFFAOYSA-N

>  <smiles>  (4613) 
COc1ccc(C(O)N2CC3CC2CN3c2ccc(Br)cn2)c2cn(C)nc12

>  <ref_pdb>  (4613) 
A3181a

>  <alias>  (4613) 
PMIISQRXOHXPCD-UHFFFAOYSA-N-P103-P12-P103-601509

>  <HIPPO Pose ID>  (4613) 
516161

>  <name>  (4613) 
PMIISQRXOHXPCD-UHFFFAOYSA-N-P103-P12-P103-601509

>  <HIPPO Compound ID>  (4613) 
293466

>  <ref_mols>  (4613) 
A0497a,A1105b

>  <distance_score>  (4613) 
1.343139

>  <inspiration_score>  (4613) 
None

$$$$
ZXEKVQHRXWQLPM-UHFFFAOYSA-N-P12-P12-P103-601509
     RDKit          3D

 28 31  0  0  0  0  0  0  0  0999 V2000
   18.1890   -2.4145   19.1078 C   0  0  0  0  0  0  0  0  0  0  0  0
   17.6407   -3.5172   19.8111 O   0  0  0  0  0  0  0  0  0  0  0  0
   17.7222   -4.7451   19.0997 C   0  0  1  0  0  0  0  0  0  0  0  0
   18.1650   -5.8029   20.0064 N   0  0  0  0  0  0  0  0  0  0  0  0
   19.3936   -5.6387   20.8137 C   0  0  2  0  0  0  0  0  0  0  0  0
   20.3212   -4.4324   20.6953 C   0  0  0  0  0  0  0  0  0  0  0  0
   21.1176   -4.6839   19.4135 C   0  0  0  0  0  0  0  0  0  0  0  0
   21.1420   -6.1568   19.2455 N   0  0  0  0  0  0  0  0  0  0  0  0
   20.6803   -6.5835   17.9795 C   0  0  0  0  0  0  0  0  0  0  0  0
   19.6461   -7.4673   17.9531 N   0  0  0  0  0  0  0  0  0  0  0  0
   19.1462   -7.8570   16.7572 C   0  0  0  0  0  0  0  0  0  0  0  0
   19.5900   -7.3837   15.5452 C   0  0  0  0  0  0  0  0  0  0  0  0
   20.6647   -6.5111   15.5524 C   0  0  0  0  0  0  0  0  0  0  0  0
   21.2365   -6.1250   16.7652 C   0  0  0  0  0  0  0  0  0  0  0  0
   22.6406   -5.1142   16.6775 Cl  0  0  0  0  0  0  0  0  0  0  0  0
   20.4356   -6.7346   20.4141 C   0  0  0  0  0  0  0  0  0  0  0  0
   16.3437   -5.1048   18.4617 C   0  0  0  0  0  0  0  0  0  0  0  0
   15.3763   -4.0763   18.2520 C   0  0  0  0  0  0  0  0  0  0  0  0
   14.1586   -4.3030   17.6154 C   0  0  0  0  0  0  0  0  0  0  0  0
   13.8225   -5.5650   17.1433 C   0  0  0  0  0  0  0  0  0  0  0  0
   14.7096   -6.6222   17.3844 C   0  0  0  0  0  0  0  0  0  0  0  0
   15.9147   -6.4198   18.0742 C   0  0  0  0  0  0  0  0  0  0  0  0
   16.3606   -7.7364   18.3165 C   0  0  0  0  0  0  0  0  0  0  0  0
   15.6372   -8.6766   17.7208 N   0  0  0  0  0  0  0  0  0  0  0  0
   14.6441   -7.9883   17.0869 N   0  0  0  0  0  0  0  0  0  0  0  0
   13.7815   -8.7155   16.2185 C   0  0  0  0  0  0  0  0  0  0  0  0
   13.7803   -9.9431   16.2989 O   0  0  0  0  0  0  0  0  0  0  0  0
   12.8645   -7.8419   15.0275 Cl  0  0  0  0  0  0  0  0  0  0  0  0
  1  2  1  0
  2  3  1  0
  3  4  1  1
  5  4  1  6
  5  6  1  0
  6  7  1  0
  7  8  1  0
  8  9  1  0
  9 10  2  0
 10 11  1  0
 11 12  2  0
 12 13  1  0
 13 14  2  0
 14 15  1  0
  8 16  1  0
  3 17  1  0
 17 18  2  0
 18 19  1  0
 19 20  2  0
 20 21  1  0
 21 22  2  0
 22 23  1  0
 23 24  2  0
 24 25  1  0
 25 26  1  0
 26 27  2  0
 26 28  1  0
 16  5  1  0
 22 17  1  0
 14  9  1  0
 25 21  1  0
M  END
>  <energy_score>  (4614) 
-21.230867

>  <inchikey>  (4614) 
ZXEKVQHRXWQLPM-UHFFFAOYSA-N

>  <smiles>  (4614) 
COC(NC1CCN(c2ncccc2Cl)C1)c1cccc2c1cnn2C(=O)Cl

>  <ref_pdb>  (4614) 
A3181a

>  <alias>  (4614) 
ZXEKVQHRXWQLPM-UHFFFAOYSA-N-P12-P12-P103-601509

>  <HIPPO Pose ID>  (4614) 
516162

>  <name>  (4614) 
ZXEKVQHRXWQLPM-UHFFFAOYSA-N-P12-P12-P103-601509

>  <HIPPO Compound ID>  (4614) 
293467

>  <ref_mols>  (4614) 
A0497a,A1105b

>  <distance_score>  (4614) 
1.203743

>  <inspiration_score>  (4614) 
None

$$$$
ZXEKVQHRXWQLPM-UHFFFAOYSA-N-P103-P12-P103-601509
     RDKit          3D

 28 31  0  0  0  0  0  0  0  0999 V2000
   17.8743   -2.1822   19.4982 C   0  0  0  0  0  0  0  0  0  0  0  0
   17.4773   -3.5076   19.7834 O   0  0  0  0  0  0  0  0  0  0  0  0
   17.7742   -4.4702   18.7869 C   0  0  1  0  0  0  0  0  0  0  0  0
   18.5128   -5.5451   19.4175 N   0  0  0  0  0  0  0  0  0  0  0  0
   19.7545   -5.2434   20.1472 C   0  0  2  0  0  0  0  0  0  0  0  0
   20.6333   -4.0626   19.7373 C   0  0  0  0  0  0  0  0  0  0  0  0
   21.3366   -4.5198   18.4626 C   0  0  0  0  0  0  0  0  0  0  0  0
   21.4033   -5.9964   18.5551 N   0  0  0  0  0  0  0  0  0  0  0  0
   20.8375   -6.6026   17.4074 C   0  0  0  0  0  0  0  0  0  0  0  0
   19.7470   -7.3942   17.5867 N   0  0  0  0  0  0  0  0  0  0  0  0
   19.1022   -7.8842   16.5051 C   0  0  0  0  0  0  0  0  0  0  0  0
   19.4662   -7.6027   15.2106 C   0  0  0  0  0  0  0  0  0  0  0  0
   20.6034   -6.8355   15.0117 C   0  0  0  0  0  0  0  0  0  0  0  0
   21.3178   -6.3539   16.1068 C   0  0  0  0  0  0  0  0  0  0  0  0
   22.7807   -5.4869   15.7805 Cl  0  0  0  0  0  0  0  0  0  0  0  0
   20.7858   -6.3795   19.8554 C   0  0  0  0  0  0  0  0  0  0  0  0
   16.4463   -4.9733   18.1733 C   0  0  0  0  0  0  0  0  0  0  0  0
   15.5012   -4.0020   17.7660 C   0  0  0  0  0  0  0  0  0  0  0  0
   14.2615   -4.3354   17.2348 C   0  0  0  0  0  0  0  0  0  0  0  0
   13.9078   -5.6662   17.0446 C   0  0  0  0  0  0  0  0  0  0  0  0
   14.8062   -6.6668   17.4403 C   0  0  0  0  0  0  0  0  0  0  0  0
   16.0319   -6.3360   18.0342 C   0  0  0  0  0  0  0  0  0  0  0  0
   16.5227   -7.5848   18.4739 C   0  0  0  0  0  0  0  0  0  0  0  0
   15.7934   -8.6225   18.0831 N   0  0  0  0  0  0  0  0  0  0  0  0
   14.7324   -8.0657   17.4298 N   0  0  0  0  0  0  0  0  0  0  0  0
   13.8062   -8.9529   16.8114 C   0  0  0  0  0  0  0  0  0  0  0  0
   13.8450  -10.1426   17.1234 O   0  0  0  0  0  0  0  0  0  0  0  0
   12.7484   -8.3391   15.5774 Cl  0  0  0  0  0  0  0  0  0  0  0  0
  1  2  1  0
  2  3  1  0
  3  4  1  1
  5  4  1  6
  5  6  1  0
  6  7  1  0
  7  8  1  0
  8  9  1  0
  9 10  2  0
 10 11  1  0
 11 12  2  0
 12 13  1  0
 13 14  2  0
 14 15  1  0
  8 16  1  0
  3 17  1  0
 17 18  2  0
 18 19  1  0
 19 20  2  0
 20 21  1  0
 21 22  2  0
 22 23  1  0
 23 24  2  0
 24 25  1  0
 25 26  1  0
 26 27  2  0
 26 28  1  0
 16  5  1  0
 22 17  1  0
 14  9  1  0
 25 21  1  0
M  END
>  <energy_score>  (4615) 
-24.512673

>  <inchikey>  (4615) 
ZXEKVQHRXWQLPM-UHFFFAOYSA-N

>  <smiles>  (4615) 
COC(NC1CCN(c2ncccc2Cl)C1)c1cccc2c1cnn2C(=O)Cl

>  <ref_pdb>  (4615) 
A3181a

>  <alias>  (4615) 
ZXEKVQHRXWQLPM-UHFFFAOYSA-N-P103-P12-P103-601509

>  <HIPPO Pose ID>  (4615) 
516163

>  <name>  (4615) 
ZXEKVQHRXWQLPM-UHFFFAOYSA-N-P103-P12-P103-601509

>  <HIPPO Compound ID>  (4615) 
293467

>  <ref_mols>  (4615) 
A0497a,A1105b

>  <distance_score>  (4615) 
1.311695

>  <inspiration_score>  (4615) 
None

$$$$
JCKJALLACQXPRS-UHFFFAOYSA-N-P12-P12-P103-601509
     RDKit          3D

 28 32  0  0  0  0  0  0  0  0999 V2000
   17.6133   -2.9937   18.4942 O   0  0  0  0  0  0  0  0  0  0  0  0
   17.5230   -4.3689   18.8637 C   0  0  2  0  0  0  0  0  0  0  0  0
   16.1177   -4.8509   18.4472 C   0  0  0  0  0  0  0  0  0  0  0  0
   15.1049   -3.8763   18.2334 C   0  0  0  0  0  0  0  0  0  0  0  0
   13.9164   -4.1634   17.5706 C   0  0  0  0  0  0  0  0  0  0  0  0
   13.6431   -5.4354   17.0957 C   0  0  0  0  0  0  0  0  0  0  0  0
   14.5641   -6.4364   17.3847 C   0  0  0  0  0  0  0  0  0  0  0  0
   15.7628   -6.1884   18.0591 C   0  0  0  0  0  0  0  0  0  0  0  0
   16.3023   -7.4869   18.1961 C   0  0  0  0  0  0  0  0  0  0  0  0
   15.6124   -8.4493   17.5816 N   0  0  0  0  0  0  0  0  0  0  0  0
   14.5467   -7.7795   17.0883 N   0  0  0  0  0  0  0  0  0  0  0  0
   13.5518   -8.4744   16.2829 C   0  0  0  0  0  0  0  0  0  0  0  0
   12.2989   -8.3558   16.7979 F   0  0  0  0  0  0  0  0  0  0  0  0
   13.5006   -7.9699   15.0167 F   0  0  0  0  0  0  0  0  0  0  0  0
   17.9557   -4.4420   20.2668 N   0  0  0  0  0  0  0  0  0  0  0  0
   18.3814   -5.8086   20.6486 C   0  0  0  0  0  0  0  0  0  0  0  0
   19.9107   -5.7311   20.8136 C   0  0  2  0  0  0  0  0  0  0  0  0
   19.9426   -4.4024   21.5750 C   0  0  0  0  0  0  0  0  0  0  0  0
   19.2633   -3.6662   20.4335 C   0  0  1  0  0  0  0  0  0  0  0  0
   20.3569   -3.9495   19.3464 C   0  0  0  0  0  0  0  0  0  0  0  0
   20.6269   -5.4006   19.5380 N   0  0  0  0  0  0  0  0  0  0  0  0
   20.4193   -6.2196   18.4189 C   0  0  0  0  0  0  0  0  0  0  0  0
   20.8746   -5.8206   17.1545 C   0  0  0  0  0  0  0  0  0  0  0  0
   20.4258   -6.4679   16.0027 C   0  0  0  0  0  0  0  0  0  0  0  0
   19.5846   -7.5533   16.1351 C   0  0  0  0  0  0  0  0  0  0  0  0
   18.7787   -8.3669   14.6439 Br  0  0  0  0  0  0  0  0  0  0  0  0
   19.3262   -8.0086   17.4080 C   0  0  0  0  0  0  0  0  0  0  0  0
   19.7086   -7.3650   18.5404 N   0  0  0  0  0  0  0  0  0  0  0  0
  2  1  1  1
  2  3  1  0
  3  4  2  0
  4  5  1  0
  5  6  2  0
  6  7  1  0
  7  8  2  0
  8  9  1  0
  9 10  2  0
 10 11  1  0
 11 12  1  0
 12 13  1  0
 12 14  1  0
  2 15  1  0
 15 16  1  0
 17 16  1  6
 17 18  1  0
 18 19  1  0
 19 20  1  6
 20 21  1  0
 21 22  1  0
 22 23  2  0
 23 24  1  0
 24 25  2  0
 25 26  1  0
 25 27  1  0
 27 28  2  0
  8  3  1  0
 19 15  1  0
 28 22  1  0
 11  7  1  0
 21 17  1  0
M  END
>  <energy_score>  (4616) 
-14.842087

>  <inchikey>  (4616) 
JCKJALLACQXPRS-UHFFFAOYSA-N

>  <smiles>  (4616) 
OC(c1cccc2c1cnn2C(F)F)N1CC2CC1CN2c1ccc(Br)cn1

>  <ref_pdb>  (4616) 
A3181a

>  <alias>  (4616) 
JCKJALLACQXPRS-UHFFFAOYSA-N-P12-P12-P103-601509

>  <HIPPO Pose ID>  (4616) 
516164

>  <name>  (4616) 
JCKJALLACQXPRS-UHFFFAOYSA-N-P12-P12-P103-601509

>  <HIPPO Compound ID>  (4616) 
293468

>  <ref_mols>  (4616) 
A0497a,A1105b

>  <distance_score>  (4616) 
1.854334

>  <inspiration_score>  (4616) 
None

$$$$
JCKJALLACQXPRS-UHFFFAOYSA-N-P103-P12-P103-601509
     RDKit          3D

 28 32  0  0  0  0  0  0  0  0999 V2000
   17.7990   -3.1351   17.3803 O   0  0  0  0  0  0  0  0  0  0  0  0
   17.6506   -4.3238   18.1512 C   0  0  2  0  0  0  0  0  0  0  0  0
   16.2171   -4.7970   17.9841 C   0  0  0  0  0  0  0  0  0  0  0  0
   15.2025   -3.8343   17.8158 C   0  0  0  0  0  0  0  0  0  0  0  0
   13.9537   -4.1710   17.3196 C   0  0  0  0  0  0  0  0  0  0  0  0
   13.6402   -5.4874   17.0112 C   0  0  0  0  0  0  0  0  0  0  0  0
   14.5716   -6.4724   17.3235 C   0  0  0  0  0  0  0  0  0  0  0  0
   15.8287   -6.1572   17.8309 C   0  0  0  0  0  0  0  0  0  0  0  0
   16.3922   -7.4242   18.0844 C   0  0  0  0  0  0  0  0  0  0  0  0
   15.6550   -8.4514   17.6618 N   0  0  0  0  0  0  0  0  0  0  0  0
   14.5327   -7.8431   17.2073 N   0  0  0  0  0  0  0  0  0  0  0  0
   13.4703   -8.6413   16.6123 C   0  0  0  0  0  0  0  0  0  0  0  0
   12.3913   -8.7506   17.4291 F   0  0  0  0  0  0  0  0  0  0  0  0
   13.0251   -8.1000   15.4413 F   0  0  0  0  0  0  0  0  0  0  0  0
   18.1055   -4.0573   19.5233 N   0  0  0  0  0  0  0  0  0  0  0  0
   18.5926   -5.3063   20.1660 C   0  0  0  0  0  0  0  0  0  0  0  0
   20.1237   -5.1388   20.2387 C   0  0  2  0  0  0  0  0  0  0  0  0
   20.1181   -3.6881   20.7352 C   0  0  0  0  0  0  0  0  0  0  0  0
   19.3701   -3.2072   19.4994 C   0  0  1  0  0  0  0  0  0  0  0  0
   20.4375   -3.6369   18.4395 C   0  0  0  0  0  0  0  0  0  0  0  0
   20.7799   -5.0198   18.8871 N   0  0  0  0  0  0  0  0  0  0  0  0
   20.5483   -6.0229   17.9334 C   0  0  0  0  0  0  0  0  0  0  0  0
   20.8746   -5.7976   16.5880 C   0  0  0  0  0  0  0  0  0  0  0  0
   20.3384   -6.6074   15.5902 C   0  0  0  0  0  0  0  0  0  0  0  0
   19.5616   -7.6873   15.9558 C   0  0  0  0  0  0  0  0  0  0  0  0
   18.6457   -8.7093   14.6718 Br  0  0  0  0  0  0  0  0  0  0  0  0
   19.4488   -7.9715   17.2985 C   0  0  0  0  0  0  0  0  0  0  0  0
   19.9015   -7.1591   18.2862 N   0  0  0  0  0  0  0  0  0  0  0  0
  2  1  1  6
  2  3  1  0
  3  4  2  0
  4  5  1  0
  5  6  2  0
  6  7  1  0
  7  8  2  0
  8  9  1  0
  9 10  2  0
 10 11  1  0
 11 12  1  0
 12 13  1  0
 12 14  1  0
  2 15  1  0
 15 16  1  0
 17 16  1  6
 17 18  1  0
 18 19  1  0
 19 20  1  6
 20 21  1  0
 21 22  1  0
 22 23  2  0
 23 24  1  0
 24 25  2  0
 25 26  1  0
 25 27  1  0
 27 28  2  0
  8  3  1  0
 19 15  1  0
 28 22  1  0
 11  7  1  0
 21 17  1  0
M  END
>  <energy_score>  (4617) 
-17.134676

>  <inchikey>  (4617) 
JCKJALLACQXPRS-UHFFFAOYSA-N

>  <smiles>  (4617) 
OC(c1cccc2c1cnn2C(F)F)N1CC2CC1CN2c1ccc(Br)cn1

>  <ref_pdb>  (4617) 
A3181a

>  <alias>  (4617) 
JCKJALLACQXPRS-UHFFFAOYSA-N-P103-P12-P103-601509

>  <HIPPO Pose ID>  (4617) 
516165

>  <name>  (4617) 
JCKJALLACQXPRS-UHFFFAOYSA-N-P103-P12-P103-601509

>  <HIPPO Compound ID>  (4617) 
293468

>  <ref_mols>  (4617) 
A0497a,A1105b

>  <distance_score>  (4617) 
1.739764

>  <inspiration_score>  (4617) 
None

$$$$
WZJAAVIAOMZYKB-UHFFFAOYSA-N-P12-P12-P103-601509
     RDKit          3D

 28 31  0  0  0  0  0  0  0  0999 V2000
   15.8136   -7.4522   17.8539 C   0  0  0  0  0  0  0  0  0  0  0  0
   17.0900   -7.4180   17.1796 N   0  0  0  0  0  0  0  0  0  0  0  0
   18.1879   -6.7061   17.5735 C   0  0  0  0  0  0  0  0  0  0  0  0
   19.1236   -6.9074   16.5928 C   0  0  0  0  0  0  0  0  0  0  0  0
   20.4086   -6.3355   16.5156 C   0  0  0  0  0  0  0  0  0  0  0  0
   21.0656   -5.3807   17.4914 C   0  0  0  0  0  0  0  0  0  0  0  0
   21.9811   -4.4248   16.8401 N   0  0  0  0  0  0  0  0  0  0  0  0
   22.4079   -3.2714   17.6565 C   0  0  2  0  0  0  0  0  0  0  0  0
   23.2727   -3.6181   18.8747 C   0  0  0  0  0  0  0  0  0  0  0  0
   22.8617   -2.5894   19.9326 C   0  0  0  0  0  0  0  0  0  0  0  0
   21.4406   -2.2860   19.6625 N   0  0  0  0  0  0  0  0  0  0  0  0
   20.5308   -3.2144   20.2166 C   0  0  0  0  0  0  0  0  0  0  0  0
   21.0664   -4.3284   20.7620 N   0  0  0  0  0  0  0  0  0  0  0  0
   20.2683   -5.2908   21.2452 C   0  0  0  0  0  0  0  0  0  0  0  0
   18.8954   -5.2220   21.2437 C   0  0  0  0  0  0  0  0  0  0  0  0
   18.1486   -6.3642   21.8348 C   0  0  0  0  0  0  0  0  0  0  0  0
   18.9328   -7.2793   22.4702 F   0  0  0  0  0  0  0  0  0  0  0  0
   17.4572   -7.0717   20.9002 F   0  0  0  0  0  0  0  0  0  0  0  0
   17.2296   -5.9813   22.7624 F   0  0  0  0  0  0  0  0  0  0  0  0
   18.3150   -4.0692   20.7059 C   0  0  0  0  0  0  0  0  0  0  0  0
   19.1330   -3.0472   20.2023 C   0  0  0  0  0  0  0  0  0  0  0  0
   18.3655   -1.5832   19.7007 Cl  0  0  0  0  0  0  0  0  0  0  0  0
   21.3333   -2.2805   18.1951 C   0  0  0  0  0  0  0  0  0  0  0  0
   21.0638   -6.8042   15.3425 C   0  0  0  0  0  0  0  0  0  0  0  0
   20.4841   -7.6807   14.3709 C   0  0  0  0  0  0  0  0  0  0  0  0
   19.1820   -8.2054   14.4760 C   0  0  0  0  0  0  0  0  0  0  0  0
   18.5010   -7.7963   15.6319 C   0  0  0  0  0  0  0  0  0  0  0  0
   17.2581   -8.1116   16.0374 N   0  0  0  0  0  0  0  0  0  0  0  0
  1  2  1  0
  2  3  1  0
  3  4  2  0
  4  5  1  0
  5  6  1  0
  6  7  1  0
  8  7  1  1
  8  9  1  0
  9 10  1  0
 10 11  1  0
 11 12  1  0
 12 13  2  0
 13 14  1  0
 14 15  2  0
 15 16  1  0
 16 17  1  0
 16 18  1  0
 16 19  1  0
 15 20  1  0
 20 21  2  0
 21 22  1  0
 11 23  1  0
  5 24  2  0
 24 25  1  0
 25 26  2  0
 26 27  1  0
 27 28  2  0
 28  2  1  0
 27  4  1  0
 23  8  1  0
 21 12  1  0
M  END
>  <energy_score>  (4618) 
-41.390527

>  <inchikey>  (4618) 
WZJAAVIAOMZYKB-UHFFFAOYSA-N

>  <smiles>  (4618) 
Cn1cc2c(CNC3CCN(c4ncc(C(F)(F)F)cc4Cl)C3)cccc2n1

>  <ref_pdb>  (4618) 
A3181a

>  <alias>  (4618) 
WZJAAVIAOMZYKB-UHFFFAOYSA-N-P12-P12-P103-601509

>  <HIPPO Pose ID>  (4618) 
516166

>  <name>  (4618) 
WZJAAVIAOMZYKB-UHFFFAOYSA-N-P12-P12-P103-601509

>  <HIPPO Compound ID>  (4618) 
293469

>  <ref_mols>  (4618) 
A0497a,A1105b

>  <distance_score>  (4618) 
1.435183

>  <inspiration_score>  (4618) 
None

$$$$
WZJAAVIAOMZYKB-UHFFFAOYSA-N-P103-P12-P103-601509
     RDKit          3D

 28 31  0  0  0  0  0  0  0  0999 V2000
   15.4726   -7.3184   17.7673 C   0  0  0  0  0  0  0  0  0  0  0  0
   16.7448   -7.4324   17.0927 N   0  0  0  0  0  0  0  0  0  0  0  0
   17.8589   -6.6825   17.3433 C   0  0  0  0  0  0  0  0  0  0  0  0
   18.7708   -7.0729   16.3974 C   0  0  0  0  0  0  0  0  0  0  0  0
   20.0589   -6.5509   16.2000 C   0  0  0  0  0  0  0  0  0  0  0  0
   20.7344   -5.4482   16.9683 C   0  0  0  0  0  0  0  0  0  0  0  0
   21.4137   -4.5103   16.0684 N   0  0  0  0  0  0  0  0  0  0  0  0
   21.7732   -3.1989   16.6312 C   0  0  2  0  0  0  0  0  0  0  0  0
   23.0692   -3.1918   17.4307 C   0  0  0  0  0  0  0  0  0  0  0  0
   22.6162   -3.4362   18.8611 C   0  0  0  0  0  0  0  0  0  0  0  0
   21.2522   -2.8700   18.9482 N   0  0  0  0  0  0  0  0  0  0  0  0
   20.3529   -3.5489   19.7639 C   0  0  0  0  0  0  0  0  0  0  0  0
   20.8036   -4.7096   20.2922 N   0  0  0  0  0  0  0  0  0  0  0  0
   20.0563   -5.3978   21.1639 C   0  0  0  0  0  0  0  0  0  0  0  0
   18.8159   -4.9892   21.5842 C   0  0  0  0  0  0  0  0  0  0  0  0
   18.1942   -5.7559   22.6958 C   0  0  0  0  0  0  0  0  0  0  0  0
   19.0570   -6.0389   23.7091 F   0  0  0  0  0  0  0  0  0  0  0  0
   17.7039   -6.9588   22.2844 F   0  0  0  0  0  0  0  0  0  0  0  0
   17.1402   -5.1284   23.2757 F   0  0  0  0  0  0  0  0  0  0  0  0
   18.2891   -3.8379   20.9994 C   0  0  0  0  0  0  0  0  0  0  0  0
   19.0685   -3.0934   20.1019 C   0  0  0  0  0  0  0  0  0  0  0  0
   18.4501   -1.5511   19.6371 Cl  0  0  0  0  0  0  0  0  0  0  0  0
   20.7903   -2.5129   17.6013 C   0  0  0  0  0  0  0  0  0  0  0  0
   20.6926   -7.2076   15.1109 C   0  0  0  0  0  0  0  0  0  0  0  0
   20.0876   -8.2234   14.3122 C   0  0  0  0  0  0  0  0  0  0  0  0
   18.7835   -8.7082   14.5338 C   0  0  0  0  0  0  0  0  0  0  0  0
   18.1258   -8.1041   15.6170 C   0  0  0  0  0  0  0  0  0  0  0  0
   16.8927   -8.3355   16.1012 N   0  0  0  0  0  0  0  0  0  0  0  0
  1  2  1  0
  2  3  1  0
  3  4  2  0
  4  5  1  0
  5  6  1  0
  6  7  1  0
  8  7  1  1
  8  9  1  0
  9 10  1  0
 10 11  1  0
 11 12  1  0
 12 13  2  0
 13 14  1  0
 14 15  2  0
 15 16  1  0
 16 17  1  0
 16 18  1  0
 16 19  1  0
 15 20  1  0
 20 21  2  0
 21 22  1  0
 11 23  1  0
  5 24  2  0
 24 25  1  0
 25 26  2  0
 26 27  1  0
 27 28  2  0
 28  2  1  0
 27  4  1  0
 23  8  1  0
 21 12  1  0
M  END
>  <energy_score>  (4619) 
-41.906897

>  <inchikey>  (4619) 
WZJAAVIAOMZYKB-UHFFFAOYSA-N

>  <smiles>  (4619) 
Cn1cc2c(CNC3CCN(c4ncc(C(F)(F)F)cc4Cl)C3)cccc2n1

>  <ref_pdb>  (4619) 
A3181a

>  <alias>  (4619) 
WZJAAVIAOMZYKB-UHFFFAOYSA-N-P103-P12-P103-601509

>  <HIPPO Pose ID>  (4619) 
516167

>  <name>  (4619) 
WZJAAVIAOMZYKB-UHFFFAOYSA-N-P103-P12-P103-601509

>  <HIPPO Compound ID>  (4619) 
293469

>  <ref_mols>  (4619) 
A0497a,A1105b

>  <distance_score>  (4619) 
1.524595

>  <inspiration_score>  (4619) 
None

$$$$
LCEJLSKQLVDPJT-UHFFFAOYSA-N-P12-P12-P103-601509
     RDKit          3D

 29 33  0  0  0  0  0  0  0  0999 V2000
   17.9744   -8.9481   11.4617 C   0  0  0  0  0  0  0  0  0  0  0  0
   18.0301   -8.6459   12.9035 C   0  0  0  0  0  0  0  0  0  0  0  0
   17.1015   -9.0836   13.7613 N   0  0  0  0  0  0  0  0  0  0  0  0
   17.5414   -8.5786   14.9876 O   0  0  0  0  0  0  0  0  0  0  0  0
   18.7008   -7.8928   14.7358 C   0  0  0  0  0  0  0  0  0  0  0  0
   19.3580   -7.2716   15.8662 C   0  0  0  0  0  0  0  0  0  0  0  0
   20.3854   -6.3488   15.7059 C   0  0  0  0  0  0  0  0  0  0  0  0
   20.9233   -5.7064   16.8223 C   0  0  0  0  0  0  0  0  0  0  0  0
   20.4232   -5.9874   18.0938 C   0  0  0  0  0  0  0  0  0  0  0  0
   20.8826   -5.2308   19.1909 N   0  0  0  0  0  0  0  0  0  0  0  0
   20.7097   -5.8807   20.5049 C   0  0  0  0  0  0  0  0  0  0  0  0
   19.9216   -4.9019   21.3755 C   0  0  0  0  0  0  0  0  0  0  0  0
   19.1310   -4.0907   20.3670 C   0  0  2  0  0  0  0  0  0  0  0  0
   17.9612   -4.8822   19.9266 N   0  0  0  0  0  0  0  0  0  0  0  0
   17.0798   -4.0381   19.1298 C   0  0  0  0  0  0  0  0  0  0  0  0
   15.9263   -4.7238   18.4334 C   0  0  0  0  0  0  0  0  0  0  0  0
   14.8909   -3.8703   17.9657 C   0  0  0  0  0  0  0  0  0  0  0  0
   13.7700   -4.2923   17.2121 C   0  0  0  0  0  0  0  0  0  0  0  0
   13.5264   -5.6257   16.8554 C   0  0  0  0  0  0  0  0  0  0  0  0
   14.4680   -6.5274   17.3539 C   0  0  0  0  0  0  0  0  0  0  0  0
   14.4920   -7.8656   17.2377 N   0  0  0  0  0  0  0  0  0  0  0  0
   15.5039   -8.2423   18.0338 N   0  0  0  0  0  0  0  0  0  0  0  0
   15.7190   -9.6486   18.2708 C   0  0  0  0  0  0  0  0  0  0  0  0
   16.2286   -7.2081   18.5486 C   0  0  0  0  0  0  0  0  0  0  0  0
   15.6208   -6.0651   18.1018 C   0  0  0  0  0  0  0  0  0  0  0  0
   20.2245   -3.9116   19.2847 C   0  0  0  0  0  0  0  0  0  0  0  0
   19.4854   -6.9483   18.2674 N   0  0  0  0  0  0  0  0  0  0  0  0
   19.0005   -7.5669   17.1656 C   0  0  0  0  0  0  0  0  0  0  0  0
   19.0315   -7.8965   13.4623 N   0  0  0  0  0  0  0  0  0  0  0  0
  1  2  1  0
  2  3  2  0
  3  4  1  0
  4  5  1  0
  5  6  1  0
  6  7  2  0
  7  8  1  0
  8  9  2  0
  9 10  1  0
 10 11  1  0
 11 12  1  0
 12 13  1  0
 13 14  1  6
 14 15  1  0
 15 16  1  0
 16 17  2  0
 17 18  1  0
 18 19  2  0
 19 20  1  0
 20 21  2  0
 21 22  1  0
 22 23  1  0
 22 24  1  0
 24 25  2  0
 13 26  1  0
  9 27  1  0
 27 28  2  0
  5 29  2  0
 29  2  1  0
 28  6  1  0
 26 10  1  0
 25 16  1  0
 25 20  1  0
M  END
>  <energy_score>  (4620) 
-51.531652

>  <inchikey>  (4620) 
LCEJLSKQLVDPJT-UHFFFAOYSA-N

>  <smiles>  (4620) 
Cc1noc(-c2ccc(N3CCC(NCc4cccc5nn(C)cc45)C3)nc2)n1

>  <ref_pdb>  (4620) 
A3181a

>  <alias>  (4620) 
LCEJLSKQLVDPJT-UHFFFAOYSA-N-P12-P12-P103-601509

>  <HIPPO Pose ID>  (4620) 
516168

>  <name>  (4620) 
LCEJLSKQLVDPJT-UHFFFAOYSA-N-P12-P12-P103-601509

>  <HIPPO Compound ID>  (4620) 
293470

>  <ref_mols>  (4620) 
A0497a,A1105b

>  <distance_score>  (4620) 
1.810016

>  <inspiration_score>  (4620) 
None

$$$$
LCEJLSKQLVDPJT-UHFFFAOYSA-N-P103-P12-P103-601509
     RDKit          3D

 29 33  0  0  0  0  0  0  0  0999 V2000
   17.9334   -9.5938   11.6412 C   0  0  0  0  0  0  0  0  0  0  0  0
   18.0243   -9.1327   13.0384 C   0  0  0  0  0  0  0  0  0  0  0  0
   17.1427   -9.5075   13.9721 N   0  0  0  0  0  0  0  0  0  0  0  0
   17.6037   -8.8560   15.1206 O   0  0  0  0  0  0  0  0  0  0  0  0
   18.7241   -8.1594   14.7510 C   0  0  0  0  0  0  0  0  0  0  0  0
   19.3872   -7.3918   15.7817 C   0  0  0  0  0  0  0  0  0  0  0  0
   20.1909   -6.3011   15.4797 C   0  0  0  0  0  0  0  0  0  0  0  0
   20.6887   -5.5003   16.5065 C   0  0  0  0  0  0  0  0  0  0  0  0
   20.3763   -5.7939   17.8354 C   0  0  0  0  0  0  0  0  0  0  0  0
   20.6736   -4.8577   18.8407 N   0  0  0  0  0  0  0  0  0  0  0  0
   20.3591   -5.2725   20.2213 C   0  0  0  0  0  0  0  0  0  0  0  0
   19.7630   -4.0344   20.8957 C   0  0  0  0  0  0  0  0  0  0  0  0
   19.0008   -3.3898   19.7489 C   0  0  2  0  0  0  0  0  0  0  0  0
   17.7230   -4.1205   19.5949 N   0  0  0  0  0  0  0  0  0  0  0  0
   17.3049   -4.1859   18.1995 C   0  0  0  0  0  0  0  0  0  0  0  0
   16.0386   -4.9399   17.9639 C   0  0  0  0  0  0  0  0  0  0  0  0
   14.8782   -4.2766   17.5142 C   0  0  0  0  0  0  0  0  0  0  0  0
   13.7263   -4.9498   17.0336 C   0  0  0  0  0  0  0  0  0  0  0  0
   13.5978   -6.3517   16.9680 C   0  0  0  0  0  0  0  0  0  0  0  0
   14.6689   -7.0396   17.5345 C   0  0  0  0  0  0  0  0  0  0  0  0
   14.8314   -8.3603   17.7270 N   0  0  0  0  0  0  0  0  0  0  0  0
   15.9581   -8.4446   18.4571 N   0  0  0  0  0  0  0  0  0  0  0  0
   16.3613   -9.7277   18.9766 C   0  0  0  0  0  0  0  0  0  0  0  0
   16.6022   -7.2576   18.6321 C   0  0  0  0  0  0  0  0  0  0  0  0
   15.8230   -6.3257   18.0062 C   0  0  0  0  0  0  0  0  0  0  0  0
   20.0773   -3.5234   18.6293 C   0  0  0  0  0  0  0  0  0  0  0  0
   19.7406   -6.9489   18.1361 N   0  0  0  0  0  0  0  0  0  0  0  0
   19.2607   -7.7029   17.1189 C   0  0  0  0  0  0  0  0  0  0  0  0
   19.0091   -8.2857   13.4724 N   0  0  0  0  0  0  0  0  0  0  0  0
  1  2  1  0
  2  3  2  0
  3  4  1  0
  4  5  1  0
  5  6  1  0
  6  7  2  0
  7  8  1  0
  8  9  2  0
  9 10  1  0
 10 11  1  0
 11 12  1  0
 12 13  1  0
 13 14  1  6
 14 15  1  0
 15 16  1  0
 16 17  2  0
 17 18  1  0
 18 19  2  0
 19 20  1  0
 20 21  2  0
 21 22  1  0
 22 23  1  0
 22 24  1  0
 24 25  2  0
 13 26  1  0
  9 27  1  0
 27 28  2  0
  5 29  2  0
 29  2  1  0
 28  6  1  0
 26 10  1  0
 25 16  1  0
 25 20  1  0
M  END
>  <energy_score>  (4621) 
-45.904374

>  <inchikey>  (4621) 
LCEJLSKQLVDPJT-UHFFFAOYSA-N

>  <smiles>  (4621) 
Cc1noc(-c2ccc(N3CCC(NCc4cccc5nn(C)cc45)C3)nc2)n1

>  <ref_pdb>  (4621) 
A3181a

>  <alias>  (4621) 
LCEJLSKQLVDPJT-UHFFFAOYSA-N-P103-P12-P103-601509

>  <HIPPO Pose ID>  (4621) 
516169

>  <name>  (4621) 
LCEJLSKQLVDPJT-UHFFFAOYSA-N-P103-P12-P103-601509

>  <HIPPO Compound ID>  (4621) 
293470

>  <ref_mols>  (4621) 
A0497a,A1105b

>  <distance_score>  (4621) 
1.769905

>  <inspiration_score>  (4621) 
None

$$$$
HRCWNRFWMXKAKC-UHFFFAOYSA-N-P12-P12-P103-601509
     RDKit          3D

 29 33  0  0  0  0  0  0  0  0999 V2000
   17.7937   -8.7222   11.2904 C   0  0  0  0  0  0  0  0  0  0  0  0
   17.8605   -8.5189   12.7491 C   0  0  0  0  0  0  0  0  0  0  0  0
   16.8671   -8.8855   13.5677 N   0  0  0  0  0  0  0  0  0  0  0  0
   17.3557   -8.5339   14.8311 O   0  0  0  0  0  0  0  0  0  0  0  0
   18.5916   -7.9757   14.6314 C   0  0  0  0  0  0  0  0  0  0  0  0
   19.2806   -7.4743   15.7989 C   0  0  0  0  0  0  0  0  0  0  0  0
   20.2776   -6.5099   15.7074 C   0  0  0  0  0  0  0  0  0  0  0  0
   20.7899   -5.9268   16.8682 C   0  0  0  0  0  0  0  0  0  0  0  0
   20.2793   -6.2927   18.1132 C   0  0  0  0  0  0  0  0  0  0  0  0
   20.5562   -5.5511   19.2647 N   0  0  0  0  0  0  0  0  0  0  0  0
   20.6527   -4.0873   19.1507 C   0  0  0  0  0  0  0  0  0  0  0  0
   20.0038   -3.5258   20.4149 C   0  0  0  0  0  0  0  0  0  0  0  0
   19.0343   -4.6109   20.8715 C   0  0  1  0  0  0  0  0  0  0  0  0
   17.6503   -4.5008   20.3835 N   0  0  0  0  0  0  0  0  0  0  0  0
   17.4766   -4.3979   18.9365 C   0  0  0  0  0  0  0  0  0  0  0  0
   16.1050   -4.8102   18.4328 C   0  0  0  0  0  0  0  0  0  0  0  0
   15.1412   -3.8244   18.1365 C   0  0  0  0  0  0  0  0  0  0  0  0
   13.9585   -4.1491   17.4754 C   0  0  0  0  0  0  0  0  0  0  0  0
   13.6612   -5.4573   17.1005 C   0  0  0  0  0  0  0  0  0  0  0  0
   14.5554   -6.4524   17.4874 C   0  0  0  0  0  0  0  0  0  0  0  0
   15.7428   -6.1607   18.1512 C   0  0  0  0  0  0  0  0  0  0  0  0
   16.2615   -7.4338   18.4730 C   0  0  0  0  0  0  0  0  0  0  0  0
   15.5566   -8.4458   17.9609 N   0  0  0  0  0  0  0  0  0  0  0  0
   14.5185   -7.8193   17.3745 N   0  0  0  0  0  0  0  0  0  0  0  0
   13.4749   -8.6067   16.7659 C   0  0  0  0  0  0  0  0  0  0  0  0
   19.7866   -5.9010   20.4712 C   0  0  0  0  0  0  0  0  0  0  0  0
   19.4462   -7.3550   18.2031 N   0  0  0  0  0  0  0  0  0  0  0  0
   18.9698   -7.9121   17.0667 C   0  0  0  0  0  0  0  0  0  0  0  0
   18.9330   -7.9269   13.3617 N   0  0  0  0  0  0  0  0  0  0  0  0
  1  2  1  0
  2  3  2  0
  3  4  1  0
  4  5  1  0
  5  6  1  0
  6  7  2  0
  7  8  1  0
  8  9  2  0
  9 10  1  0
 10 11  1  0
 11 12  1  0
 12 13  1  0
 13 14  1  6
 14 15  1  0
 15 16  1  0
 16 17  2  0
 17 18  1  0
 18 19  2  0
 19 20  1  0
 20 21  2  0
 21 22  1  0
 22 23  2  0
 23 24  1  0
 24 25  1  0
 13 26  1  0
  9 27  1  0
 27 28  2  0
  5 29  2  0
 29  2  1  0
 28  6  1  0
 26 10  1  0
 21 16  1  0
 24 20  1  0
M  END
>  <energy_score>  (4622) 
-38.340665

>  <inchikey>  (4622) 
HRCWNRFWMXKAKC-UHFFFAOYSA-N

>  <smiles>  (4622) 
Cc1noc(-c2ccc(N3CCC(NCc4cccc5c4cnn5C)C3)nc2)n1

>  <ref_pdb>  (4622) 
A3181a

>  <alias>  (4622) 
HRCWNRFWMXKAKC-UHFFFAOYSA-N-P12-P12-P103-601509

>  <HIPPO Pose ID>  (4622) 
516170

>  <name>  (4622) 
HRCWNRFWMXKAKC-UHFFFAOYSA-N-P12-P12-P103-601509

>  <HIPPO Compound ID>  (4622) 
293471

>  <ref_mols>  (4622) 
A0497a,A1105b

>  <distance_score>  (4622) 
1.668802

>  <inspiration_score>  (4622) 
None

$$$$
HRCWNRFWMXKAKC-UHFFFAOYSA-N-P103-P12-P103-601509
     RDKit          3D

 29 33  0  0  0  0  0  0  0  0999 V2000
   17.7277   -9.6413   11.5833 C   0  0  0  0  0  0  0  0  0  0  0  0
   17.8005   -9.1233   12.9617 C   0  0  0  0  0  0  0  0  0  0  0  0
   16.8317   -9.3419   13.8589 N   0  0  0  0  0  0  0  0  0  0  0  0
   17.3189   -8.7059   15.0071 O   0  0  0  0  0  0  0  0  0  0  0  0
   18.5264   -8.1546   14.6668 C   0  0  0  0  0  0  0  0  0  0  0  0
   19.2196   -7.4047   15.6910 C   0  0  0  0  0  0  0  0  0  0  0  0
   20.1621   -6.4326   15.3748 C   0  0  0  0  0  0  0  0  0  0  0  0
   20.7381   -5.6629   16.3838 C   0  0  0  0  0  0  0  0  0  0  0  0
   20.3578   -5.8631   17.7099 C   0  0  0  0  0  0  0  0  0  0  0  0
   20.8387   -5.0015   18.7147 N   0  0  0  0  0  0  0  0  0  0  0  0
   20.5169   -3.5746   18.4790 C   0  0  0  0  0  0  0  0  0  0  0  0
   19.7444   -3.1226   19.7247 C   0  0  0  0  0  0  0  0  0  0  0  0
   19.1871   -4.4176   20.3263 C   0  0  1  0  0  0  0  0  0  0  0  0
   17.9919   -5.0341   19.7124 N   0  0  0  0  0  0  0  0  0  0  0  0
   17.2712   -4.1965   18.7616 C   0  0  0  0  0  0  0  0  0  0  0  0
   16.0439   -4.8423   18.1452 C   0  0  0  0  0  0  0  0  0  0  0  0
   15.0773   -3.9405   17.6579 C   0  0  0  0  0  0  0  0  0  0  0  0
   13.9153   -4.3698   17.0444 C   0  0  0  0  0  0  0  0  0  0  0  0
   13.6587   -5.7253   16.8821 C   0  0  0  0  0  0  0  0  0  0  0  0
   14.5800   -6.6368   17.3924 C   0  0  0  0  0  0  0  0  0  0  0  0
   15.7454   -6.2288   18.0338 C   0  0  0  0  0  0  0  0  0  0  0  0
   16.2710   -7.4455   18.5343 C   0  0  0  0  0  0  0  0  0  0  0  0
   15.6156   -8.5319   18.1185 N   0  0  0  0  0  0  0  0  0  0  0  0
   14.5763   -8.0080   17.4457 N   0  0  0  0  0  0  0  0  0  0  0  0
   13.5675   -8.8913   16.9155 C   0  0  0  0  0  0  0  0  0  0  0  0
   20.4153   -5.3338   20.0913 C   0  0  0  0  0  0  0  0  0  0  0  0
   19.5099   -6.8715   18.0336 N   0  0  0  0  0  0  0  0  0  0  0  0
   18.9864   -7.6192   17.0323 C   0  0  0  0  0  0  0  0  0  0  0  0
   18.8522   -8.3694   13.4098 N   0  0  0  0  0  0  0  0  0  0  0  0
  1  2  1  0
  2  3  2  0
  3  4  1  0
  4  5  1  0
  5  6  1  0
  6  7  2  0
  7  8  1  0
  8  9  2  0
  9 10  1  0
 10 11  1  0
 11 12  1  0
 12 13  1  0
 13 14  1  6
 14 15  1  0
 15 16  1  0
 16 17  2  0
 17 18  1  0
 18 19  2  0
 19 20  1  0
 20 21  2  0
 21 22  1  0
 22 23  2  0
 23 24  1  0
 24 25  1  0
 13 26  1  0
  9 27  1  0
 27 28  2  0
  5 29  2  0
 29  2  1  0
 28  6  1  0
 26 10  1  0
 21 16  1  0
 24 20  1  0
M  END
>  <energy_score>  (4623) 
-40.092025

>  <inchikey>  (4623) 
HRCWNRFWMXKAKC-UHFFFAOYSA-N

>  <smiles>  (4623) 
Cc1noc(-c2ccc(N3CCC(NCc4cccc5c4cnn5C)C3)nc2)n1

>  <ref_pdb>  (4623) 
A3181a

>  <alias>  (4623) 
HRCWNRFWMXKAKC-UHFFFAOYSA-N-P103-P12-P103-601509

>  <HIPPO Pose ID>  (4623) 
516171

>  <name>  (4623) 
HRCWNRFWMXKAKC-UHFFFAOYSA-N-P103-P12-P103-601509

>  <HIPPO Compound ID>  (4623) 
293471

>  <ref_mols>  (4623) 
A0497a,A1105b

>  <distance_score>  (4623) 
1.580077

>  <inspiration_score>  (4623) 
None

$$$$
ZCHQNVIKJDEJOV-UHFFFAOYSA-N-P12-P12-P103-601509
     RDKit          3D

 29 32  0  0  0  0  0  0  0  0999 V2000
   15.9784   -7.4036   17.5166 C   0  0  0  0  0  0  0  0  0  0  0  0
   17.3035   -7.4630   16.9459 N   0  0  0  0  0  0  0  0  0  0  0  0
   18.3494   -6.6291   17.2181 C   0  0  0  0  0  0  0  0  0  0  0  0
   19.3569   -6.9947   16.3648 C   0  0  0  0  0  0  0  0  0  0  0  0
   20.6158   -6.3708   16.1987 C   0  0  0  0  0  0  0  0  0  0  0  0
   21.1115   -5.0843   16.8179 C   0  0  2  0  0  0  0  0  0  0  0  0
   21.2868   -4.1254   15.7807 O   0  0  0  0  0  0  0  0  0  0  0  0
   22.3224   -5.1378   17.6126 N   0  0  0  0  0  0  0  0  0  0  0  0
   22.8126   -3.7854   18.0108 C   0  0  2  0  0  0  0  0  0  0  0  0
   23.6249   -3.8867   19.3140 C   0  0  0  0  0  0  0  0  0  0  0  0
   23.0196   -2.8498   20.2750 C   0  0  0  0  0  0  0  0  0  0  0  0
   21.6608   -2.5552   19.7754 N   0  0  0  0  0  0  0  0  0  0  0  0
   20.6787   -3.4806   20.2037 C   0  0  0  0  0  0  0  0  0  0  0  0
   21.1248   -4.5802   20.8471 N   0  0  0  0  0  0  0  0  0  0  0  0
   20.2789   -5.5875   21.1078 C   0  0  0  0  0  0  0  0  0  0  0  0
   18.9411   -5.5747   20.7872 C   0  0  0  0  0  0  0  0  0  0  0  0
   18.1542   -6.8015   21.0917 C   0  0  0  0  0  0  0  0  0  0  0  0
   18.9119   -7.9231   21.2460 F   0  0  0  0  0  0  0  0  0  0  0  0
   17.4423   -6.6904   22.2493 F   0  0  0  0  0  0  0  0  0  0  0  0
   17.2484   -7.1087   20.1279 F   0  0  0  0  0  0  0  0  0  0  0  0
   18.4348   -4.3956   20.2327 C   0  0  0  0  0  0  0  0  0  0  0  0
   19.3028   -3.3303   19.9547 C   0  0  0  0  0  0  0  0  0  0  0  0
   18.6106   -1.8453   19.4168 Cl  0  0  0  0  0  0  0  0  0  0  0  0
   21.8078   -2.6207   18.3093 C   0  0  0  0  0  0  0  0  0  0  0  0
   21.3354   -7.0322   15.1651 C   0  0  0  0  0  0  0  0  0  0  0  0
   20.8442   -8.1375   14.4007 C   0  0  0  0  0  0  0  0  0  0  0  0
   19.5718   -8.7108   14.5853 C   0  0  0  0  0  0  0  0  0  0  0  0
   18.8212   -8.1042   15.6012 C   0  0  0  0  0  0  0  0  0  0  0  0
   17.5710   -8.3891   16.0067 N   0  0  0  0  0  0  0  0  0  0  0  0
  1  2  1  0
  2  3  1  0
  3  4  2  0
  4  5  1  0
  5  6  1  0
  6  7  1  6
  6  8  1  0
  9  8  1  1
  9 10  1  0
 10 11  1  0
 11 12  1  0
 12 13  1  0
 13 14  2  0
 14 15  1  0
 15 16  2  0
 16 17  1  0
 17 18  1  0
 17 19  1  0
 17 20  1  0
 16 21  1  0
 21 22  2  0
 22 23  1  0
 12 24  1  0
  5 25  2  0
 25 26  1  0
 26 27  2  0
 27 28  1  0
 28 29  2  0
 29  2  1  0
 28  4  1  0
 24  9  1  0
 22 13  1  0
M  END
>  <energy_score>  (4624) 
-46.243757

>  <inchikey>  (4624) 
ZCHQNVIKJDEJOV-UHFFFAOYSA-N

>  <smiles>  (4624) 
Cn1cc2c(C(O)NC3CCN(c4ncc(C(F)(F)F)cc4Cl)C3)cccc2n1

>  <ref_pdb>  (4624) 
A3181a

>  <alias>  (4624) 
ZCHQNVIKJDEJOV-UHFFFAOYSA-N-P12-P12-P103-601509

>  <HIPPO Pose ID>  (4624) 
516172

>  <name>  (4624) 
ZCHQNVIKJDEJOV-UHFFFAOYSA-N-P12-P12-P103-601509

>  <HIPPO Compound ID>  (4624) 
293472

>  <ref_mols>  (4624) 
A0497a,A1105b

>  <distance_score>  (4624) 
1.448576

>  <inspiration_score>  (4624) 
None

$$$$
ZCHQNVIKJDEJOV-UHFFFAOYSA-N-P103-P12-P103-601509
     RDKit          3D

 29 32  0  0  0  0  0  0  0  0999 V2000
   16.0209   -6.9221   17.5791 C   0  0  0  0  0  0  0  0  0  0  0  0
   17.2291   -7.2544   16.8627 N   0  0  0  0  0  0  0  0  0  0  0  0
   18.3898   -6.5383   16.8281 C   0  0  0  0  0  0  0  0  0  0  0  0
   19.2006   -7.1679   15.9276 C   0  0  0  0  0  0  0  0  0  0  0  0
   20.4665   -6.7509   15.4767 C   0  0  0  0  0  0  0  0  0  0  0  0
   21.3054   -5.5226   15.7792 C   0  0  2  0  0  0  0  0  0  0  0  0
   22.6544   -5.7726   15.3933 O   0  0  0  0  0  0  0  0  0  0  0  0
   21.3843   -5.1105   17.1708 N   0  0  0  0  0  0  0  0  0  0  0  0
   21.8233   -3.6898   17.2259 C   0  0  2  0  0  0  0  0  0  0  0  0
   22.6661   -3.3529   18.4712 C   0  0  0  0  0  0  0  0  0  0  0  0
   21.9680   -2.1395   19.1029 C   0  0  0  0  0  0  0  0  0  0  0  0
   20.5444   -2.3065   18.7453 N   0  0  0  0  0  0  0  0  0  0  0  0
   19.8920   -3.2506   19.5793 C   0  0  0  0  0  0  0  0  0  0  0  0
   20.5697   -3.7019   20.6699 N   0  0  0  0  0  0  0  0  0  0  0  0
   20.1187   -4.7758   21.3528 C   0  0  0  0  0  0  0  0  0  0  0  0
   18.9986   -5.4851   20.9988 C   0  0  0  0  0  0  0  0  0  0  0  0
   18.6077   -6.7207   21.7339 C   0  0  0  0  0  0  0  0  0  0  0  0
   19.6494   -7.3544   22.3368 F   0  0  0  0  0  0  0  0  0  0  0  0
   17.7020   -6.4689   22.7240 F   0  0  0  0  0  0  0  0  0  0  0  0
   18.0138   -7.6490   20.9349 F   0  0  0  0  0  0  0  0  0  0  0  0
   18.2511   -4.9606   19.9562 C   0  0  0  0  0  0  0  0  0  0  0  0
   18.6364   -3.7922   19.3024 C   0  0  0  0  0  0  0  0  0  0  0  0
   17.4822   -3.1321   18.2197 Cl  0  0  0  0  0  0  0  0  0  0  0  0
   20.6105   -2.7350   17.3228 C   0  0  0  0  0  0  0  0  0  0  0  0
   20.8593   -7.6069   14.3992 C   0  0  0  0  0  0  0  0  0  0  0  0
   20.1308   -8.7291   13.9068 C   0  0  0  0  0  0  0  0  0  0  0  0
   18.8886   -9.1221   14.4217 C   0  0  0  0  0  0  0  0  0  0  0  0
   18.4190   -8.2917   15.4455 C   0  0  0  0  0  0  0  0  0  0  0  0
   17.2464   -8.3606   16.0966 N   0  0  0  0  0  0  0  0  0  0  0  0
  1  2  1  0
  2  3  1  0
  3  4  2  0
  4  5  1  0
  5  6  1  0
  6  7  1  1
  6  8  1  0
  9  8  1  1
  9 10  1  0
 10 11  1  0
 11 12  1  0
 12 13  1  0
 13 14  2  0
 14 15  1  0
 15 16  2  0
 16 17  1  0
 17 18  1  0
 17 19  1  0
 17 20  1  0
 16 21  1  0
 21 22  2  0
 22 23  1  0
 12 24  1  0
  5 25  2  0
 25 26  1  0
 26 27  2  0
 27 28  1  0
 28 29  2  0
 29  2  1  0
 28  4  1  0
 24  9  1  0
 22 13  1  0
M  END
>  <energy_score>  (4625) 
-41.649101

>  <inchikey>  (4625) 
ZCHQNVIKJDEJOV-UHFFFAOYSA-N

>  <smiles>  (4625) 
Cn1cc2c(C(O)NC3CCN(c4ncc(C(F)(F)F)cc4Cl)C3)cccc2n1

>  <ref_pdb>  (4625) 
A3181a

>  <alias>  (4625) 
ZCHQNVIKJDEJOV-UHFFFAOYSA-N-P103-P12-P103-601509

>  <HIPPO Pose ID>  (4625) 
516173

>  <name>  (4625) 
ZCHQNVIKJDEJOV-UHFFFAOYSA-N-P103-P12-P103-601509

>  <HIPPO Compound ID>  (4625) 
293472

>  <ref_mols>  (4625) 
A0497a,A1105b

>  <distance_score>  (4625) 
1.32097

>  <inspiration_score>  (4625) 
None

$$$$
HAHALMRTUCKWGI-UHFFFAOYSA-N-P103-P12-P103-601509
     RDKit          3D

 29 32  0  0  0  0  0  0  0  0999 V2000
   15.6844   -7.0686   17.7993 C   0  0  0  0  0  0  0  0  0  0  0  0
   16.9633   -7.2038   17.1435 N   0  0  0  0  0  0  0  0  0  0  0  0
   17.9968   -6.3121   17.1880 C   0  0  0  0  0  0  0  0  0  0  0  0
   18.9426   -6.8149   16.3337 C   0  0  0  0  0  0  0  0  0  0  0  0
   20.1572   -6.2150   15.9633 C   0  0  0  0  0  0  0  0  0  0  0  0
   20.6912   -4.8504   16.3006 C   0  0  0  0  0  0  0  0  0  0  0  0
   21.9276   -4.8993   17.0764 N   0  0  0  0  0  0  0  0  0  0  0  0
   22.5976   -3.5890   17.2852 C   0  0  1  0  0  0  0  0  0  0  0  0
   21.9057   -2.2959   16.8429 C   0  0  0  0  0  0  0  0  0  0  0  0
   20.9460   -1.9489   17.9822 C   0  0  0  0  0  0  0  0  0  0  0  0
   21.4383   -2.6618   19.1737 N   0  0  0  0  0  0  0  0  0  0  0  0
   20.5113   -3.5739   19.7046 C   0  0  0  0  0  0  0  0  0  0  0  0
   20.9477   -4.8481   19.8337 N   0  0  0  0  0  0  0  0  0  0  0  0
   20.1749   -5.7809   20.4074 C   0  0  0  0  0  0  0  0  0  0  0  0
   18.9244   -5.5277   20.9100 C   0  0  0  0  0  0  0  0  0  0  0  0
   18.2392   -6.6359   21.6285 C   0  0  0  0  0  0  0  0  0  0  0  0
   17.3819   -7.3219   20.8288 F   0  0  0  0  0  0  0  0  0  0  0  0
   17.4974   -6.2005   22.6863 F   0  0  0  0  0  0  0  0  0  0  0  0
   19.0864   -7.5663   22.1481 F   0  0  0  0  0  0  0  0  0  0  0  0
   18.4219   -4.2350   20.7417 C   0  0  0  0  0  0  0  0  0  0  0  0
   19.2187   -3.2430   20.1466 C   0  0  0  0  0  0  0  0  0  0  0  0
   18.5871   -1.6319   20.1377 Cl  0  0  0  0  0  0  0  0  0  0  0  0
   22.7494   -3.2514   18.7940 C   0  0  0  0  0  0  0  0  0  0  0  0
   20.8360   -7.0264   15.0159 C   0  0  0  0  0  0  0  0  0  0  0  0
   20.3273   -8.2526   14.4965 C   0  0  0  0  0  0  0  0  0  0  0  0
   21.3735   -9.1795   13.2078 Br  0  0  0  0  0  0  0  0  0  0  0  0
   19.0925   -8.8137   14.8681 C   0  0  0  0  0  0  0  0  0  0  0  0
   18.3969   -8.0520   15.8176 C   0  0  0  0  0  0  0  0  0  0  0  0
   17.1924   -8.2831   16.3688 N   0  0  0  0  0  0  0  0  0  0  0  0
  1  2  1  0
  2  3  1  0
  3  4  2  0
  4  5  1  0
  5  6  1  0
  6  7  1  0
  8  7  1  1
  8  9  1  0
  9 10  1  0
 10 11  1  0
 11 12  1  0
 12 13  2  0
 13 14  1  0
 14 15  2  0
 15 16  1  0
 16 17  1  0
 16 18  1  0
 16 19  1  0
 15 20  1  0
 20 21  2  0
 21 22  1  0
 11 23  1  0
  5 24  2  0
 24 25  1  0
 25 26  1  0
 25 27  2  0
 27 28  1  0
 28 29  2  0
 29  2  1  0
 28  4  1  0
 23  8  1  0
 21 12  1  0
M  END
>  <energy_score>  (4626) 
-49.88944

>  <inchikey>  (4626) 
HAHALMRTUCKWGI-UHFFFAOYSA-N

>  <smiles>  (4626) 
Cn1cc2c(CNC3CCN(c4ncc(C(F)(F)F)cc4Cl)C3)cc(Br)cc2n1

>  <ref_pdb>  (4626) 
A3181a

>  <alias>  (4626) 
HAHALMRTUCKWGI-UHFFFAOYSA-N-P103-P12-P103-601509

>  <HIPPO Pose ID>  (4626) 
516175

>  <name>  (4626) 
HAHALMRTUCKWGI-UHFFFAOYSA-N-P103-P12-P103-601509

>  <HIPPO Compound ID>  (4626) 
293473

>  <ref_mols>  (4626) 
A0497a,A1105b

>  <distance_score>  (4626) 
1.88778

>  <inspiration_score>  (4626) 
None

$$$$
BCRCXKZYYHZFTP-UHFFFAOYSA-N-P12-P12-P103-601509
     RDKit          3D

 29 32  0  0  0  0  0  0  0  0999 V2000
   15.6704   -7.7733   17.8776 C   0  0  0  0  0  0  0  0  0  0  0  0
   16.9180   -7.7668   17.1494 N   0  0  0  0  0  0  0  0  0  0  0  0
   18.1757   -7.7552   17.6809 C   0  0  0  0  0  0  0  0  0  0  0  0
   19.0344   -7.6989   16.6120 C   0  0  0  0  0  0  0  0  0  0  0  0
   20.4442   -7.6764   16.6235 C   0  0  0  0  0  0  0  0  0  0  0  0
   21.4983   -7.9002   17.6915 C   0  0  2  0  0  0  0  0  0  0  0  0
   22.1445   -9.1195   17.3804 O   0  0  0  0  0  0  0  0  0  0  0  0
   21.0812   -8.0578   19.0676 N   0  0  0  0  0  0  0  0  0  0  0  0
   20.9242   -6.7620   19.7214 C   0  0  2  0  0  0  0  0  0  0  0  0
   22.2417   -6.1864   20.2638 C   0  0  0  0  0  0  0  0  0  0  0  0
   21.8438   -5.3435   21.4913 C   0  0  0  0  0  0  0  0  0  0  0  0
   20.3738   -5.4672   21.6215 N   0  0  0  0  0  0  0  0  0  0  0  0
   19.6810   -4.4273   20.9253 C   0  0  0  0  0  0  0  0  0  0  0  0
   20.3903   -3.5440   20.1831 N   0  0  0  0  0  0  0  0  0  0  0  0
   19.7186   -2.6941   19.3783 C   0  0  0  0  0  0  0  0  0  0  0  0
   18.3439   -2.6557   19.2820 C   0  0  0  0  0  0  0  0  0  0  0  0
   17.6102   -3.5231   20.0698 C   0  0  0  0  0  0  0  0  0  0  0  0
   18.2807   -4.3998   20.9123 C   0  0  0  0  0  0  0  0  0  0  0  0
   17.5778   -5.2499   21.6774 F   0  0  0  0  0  0  0  0  0  0  0  0
   20.0523   -6.7661   20.9923 C   0  0  0  0  0  0  0  0  0  0  0  0
   20.9197   -7.5157   15.2851 C   0  0  0  0  0  0  0  0  0  0  0  0
   20.1121   -7.4682   14.1154 C   0  0  0  0  0  0  0  0  0  0  0  0
   18.7024   -7.5770   14.1309 C   0  0  0  0  0  0  0  0  0  0  0  0
   17.9208   -7.5600   12.8636 C   0  0  0  0  0  0  0  0  0  0  0  0
   16.5710   -7.6790   12.9867 F   0  0  0  0  0  0  0  0  0  0  0  0
   18.3008   -8.5526   12.0066 F   0  0  0  0  0  0  0  0  0  0  0  0
   18.1131   -6.3977   12.1638 F   0  0  0  0  0  0  0  0  0  0  0  0
   18.1747   -7.6743   15.4295 C   0  0  0  0  0  0  0  0  0  0  0  0
   16.8902   -7.7818   15.8093 N   0  0  0  0  0  0  0  0  0  0  0  0
  1  2  1  0
  2  3  1  0
  3  4  2  0
  4  5  1  0
  5  6  1  0
  6  7  1  6
  6  8  1  0
  9  8  1  1
  9 10  1  0
 10 11  1  0
 11 12  1  0
 12 13  1  0
 13 14  2  0
 14 15  1  0
 15 16  2  0
 16 17  1  0
 17 18  2  0
 18 19  1  0
 12 20  1  0
  5 21  2  0
 21 22  1  0
 22 23  2  0
 23 24  1  0
 24 25  1  0
 24 26  1  0
 24 27  1  0
 23 28  1  0
 28 29  2  0
 29  2  1  0
 28  4  1  0
 20  9  1  0
 18 13  1  0
M  END
>  <energy_score>  (4627) 
-47.187297

>  <inchikey>  (4627) 
BCRCXKZYYHZFTP-UHFFFAOYSA-N

>  <smiles>  (4627) 
Cn1cc2c(C(O)NC3CCN(c4ncccc4F)C3)ccc(C(F)(F)F)c2n1

>  <ref_pdb>  (4627) 
A3181a

>  <alias>  (4627) 
BCRCXKZYYHZFTP-UHFFFAOYSA-N-P12-P12-P103-601509

>  <HIPPO Pose ID>  (4627) 
516178

>  <name>  (4627) 
BCRCXKZYYHZFTP-UHFFFAOYSA-N-P12-P12-P103-601509

>  <HIPPO Compound ID>  (4627) 
293475

>  <ref_mols>  (4627) 
A0497a,A1105b

>  <distance_score>  (4627) 
1.207001

>  <inspiration_score>  (4627) 
None

$$$$
BCRCXKZYYHZFTP-UHFFFAOYSA-N-P103-P12-P103-601509
     RDKit          3D

 29 32  0  0  0  0  0  0  0  0999 V2000
   15.7304   -7.7493   18.1195 C   0  0  0  0  0  0  0  0  0  0  0  0
   16.9621   -7.8312   17.3691 N   0  0  0  0  0  0  0  0  0  0  0  0
   18.2280   -7.6636   17.8543 C   0  0  0  0  0  0  0  0  0  0  0  0
   19.0633   -7.7812   16.7724 C   0  0  0  0  0  0  0  0  0  0  0  0
   20.4711   -7.7111   16.7435 C   0  0  0  0  0  0  0  0  0  0  0  0
   21.5574   -7.7234   17.8070 C   0  0  2  0  0  0  0  0  0  0  0  0
   22.2970   -8.9166   17.6266 O   0  0  0  0  0  0  0  0  0  0  0  0
   21.1771   -7.7537   19.2074 N   0  0  0  0  0  0  0  0  0  0  0  0
   20.9737   -6.3973   19.7062 C   0  0  2  0  0  0  0  0  0  0  0  0
   22.2621   -5.6856   20.1467 C   0  0  0  0  0  0  0  0  0  0  0  0
   21.8064   -4.6297   21.1783 C   0  0  0  0  0  0  0  0  0  0  0  0
   20.3447   -4.8200   21.3581 N   0  0  0  0  0  0  0  0  0  0  0  0
   19.5953   -4.0054   20.4408 C   0  0  0  0  0  0  0  0  0  0  0  0
   20.2536   -3.3906   19.4294 N   0  0  0  0  0  0  0  0  0  0  0  0
   19.5436   -2.9688   18.3615 C   0  0  0  0  0  0  0  0  0  0  0  0
   18.1739   -3.0861   18.2628 C   0  0  0  0  0  0  0  0  0  0  0  0
   17.4809   -3.5845   19.3535 C   0  0  0  0  0  0  0  0  0  0  0  0
   18.1967   -4.0420   20.4555 C   0  0  0  0  0  0  0  0  0  0  0  0
   17.5488   -4.6076   21.4850 F   0  0  0  0  0  0  0  0  0  0  0  0
   20.1134   -6.2375   20.9782 C   0  0  0  0  0  0  0  0  0  0  0  0
   20.9075   -7.7650   15.3824 C   0  0  0  0  0  0  0  0  0  0  0  0
   20.0755   -7.9892   14.2480 C   0  0  0  0  0  0  0  0  0  0  0  0
   18.6771   -8.1852   14.3278 C   0  0  0  0  0  0  0  0  0  0  0  0
   17.8774   -8.5758   13.1332 C   0  0  0  0  0  0  0  0  0  0  0  0
   18.0721   -7.7332   12.0717 F   0  0  0  0  0  0  0  0  0  0  0  0
   16.5275   -8.6227   13.2988 F   0  0  0  0  0  0  0  0  0  0  0  0
   18.2291   -9.8102   12.6647 F   0  0  0  0  0  0  0  0  0  0  0  0
   18.1810   -8.0296   15.6322 C   0  0  0  0  0  0  0  0  0  0  0  0
   16.9124   -8.1222   16.0627 N   0  0  0  0  0  0  0  0  0  0  0  0
  1  2  1  0
  2  3  1  0
  3  4  2  0
  4  5  1  0
  5  6  1  0
  6  7  1  6
  6  8  1  0
  9  8  1  1
  9 10  1  0
 10 11  1  0
 11 12  1  0
 12 13  1  0
 13 14  2  0
 14 15  1  0
 15 16  2  0
 16 17  1  0
 17 18  2  0
 18 19  1  0
 12 20  1  0
  5 21  2  0
 21 22  1  0
 22 23  2  0
 23 24  1  0
 24 25  1  0
 24 26  1  0
 24 27  1  0
 23 28  1  0
 28 29  2  0
 29  2  1  0
 28  4  1  0
 20  9  1  0
 18 13  1  0
M  END
>  <energy_score>  (4628) 
-42.00283

>  <inchikey>  (4628) 
BCRCXKZYYHZFTP-UHFFFAOYSA-N

>  <smiles>  (4628) 
Cn1cc2c(C(O)NC3CCN(c4ncccc4F)C3)ccc(C(F)(F)F)c2n1

>  <ref_pdb>  (4628) 
A3181a

>  <alias>  (4628) 
BCRCXKZYYHZFTP-UHFFFAOYSA-N-P103-P12-P103-601509

>  <HIPPO Pose ID>  (4628) 
516179

>  <name>  (4628) 
BCRCXKZYYHZFTP-UHFFFAOYSA-N-P103-P12-P103-601509

>  <HIPPO Compound ID>  (4628) 
293475

>  <ref_mols>  (4628) 
A0497a,A1105b

>  <distance_score>  (4628) 
1.105688

>  <inspiration_score>  (4628) 
None

$$$$
VKXGRUCRUCHMSZ-UHFFFAOYSA-N-P12-P12-P103-601509
     RDKit          3D

 29 32  0  0  0  0  0  0  0  0999 V2000
   19.4880   -8.9920   18.3235 C   0  0  0  0  0  0  0  0  0  0  0  0
   20.0648   -7.6588   18.0067 C   0  0  0  0  0  0  0  0  0  0  0  0
   20.3933   -7.3426   16.6977 C   0  0  0  0  0  0  0  0  0  0  0  0
   21.0781   -6.1640   16.4708 C   0  0  0  0  0  0  0  0  0  0  0  0
   21.3475   -5.3228   17.5471 C   0  0  0  0  0  0  0  0  0  0  0  0
   20.8802   -5.6420   18.8298 C   0  0  0  0  0  0  0  0  0  0  0  0
   20.9244   -4.6928   19.8809 N   0  0  0  0  0  0  0  0  0  0  0  0
   20.4070   -3.3621   19.4867 C   0  0  0  0  0  0  0  0  0  0  0  0
   19.1848   -3.0924   20.3660 C   0  0  0  0  0  0  0  0  0  0  0  0
   18.7534   -4.4557   20.9095 C   0  0  1  0  0  0  0  0  0  0  0  0
   17.8228   -5.3314   20.1591 N   0  0  0  0  0  0  0  0  0  0  0  0
   17.2421   -4.8238   18.9298 C   0  0  1  0  0  0  0  0  0  0  0  0
   18.2133   -5.0965   17.9893 O   0  0  0  0  0  0  0  0  0  0  0  0
   16.0439   -5.5742   18.3587 C   0  0  0  0  0  0  0  0  0  0  0  0
   14.9003   -4.8967   17.8194 C   0  0  0  0  0  0  0  0  0  0  0  0
   13.8698   -5.5234   17.0348 C   0  0  0  0  0  0  0  0  0  0  0  0
   13.8509   -6.9095   16.7259 C   0  0  0  0  0  0  0  0  0  0  0  0
   12.9572   -7.5993   15.7624 C   0  0  0  0  0  0  0  0  0  0  0  0
   11.9172   -8.2583   16.3407 F   0  0  0  0  0  0  0  0  0  0  0  0
   12.4048   -6.7487   14.8507 F   0  0  0  0  0  0  0  0  0  0  0  0
   13.5975   -8.5251   14.9867 F   0  0  0  0  0  0  0  0  0  0  0  0
   14.8224   -7.6168   17.4342 C   0  0  0  0  0  0  0  0  0  0  0  0
   14.9868   -8.9488   17.5188 N   0  0  0  0  0  0  0  0  0  0  0  0
   15.9596   -9.1087   18.4240 N   0  0  0  0  0  0  0  0  0  0  0  0
   16.2694  -10.4394   18.8872 C   0  0  0  0  0  0  0  0  0  0  0  0
   16.5297   -7.9457   18.8362 C   0  0  0  0  0  0  0  0  0  0  0  0
   15.8486   -6.9514   18.1930 C   0  0  0  0  0  0  0  0  0  0  0  0
   20.1613   -5.1045   21.0838 C   0  0  0  0  0  0  0  0  0  0  0  0
   20.3234   -6.8503   19.0620 N   0  0  0  0  0  0  0  0  0  0  0  0
  1  2  1  0
  2  3  2  0
  3  4  1  0
  4  5  2  0
  5  6  1  0
  6  7  1  0
  7  8  1  0
  8  9  1  0
  9 10  1  0
 10 11  1  6
 11 12  1  0
 12 13  1  6
 12 14  1  0
 14 15  2  0
 15 16  1  0
 16 17  2  0
 17 18  1  0
 18 19  1  0
 18 20  1  0
 18 21  1  0
 17 22  1  0
 22 23  2  0
 23 24  1  0
 24 25  1  0
 24 26  1  0
 26 27  2  0
 10 28  1  0
  6 29  2  0
 29  2  1  0
 28  7  1  0
 27 14  1  0
 27 22  1  0
M  END
>  <energy_score>  (4629) 
-17.939775

>  <inchikey>  (4629) 
VKXGRUCRUCHMSZ-UHFFFAOYSA-N

>  <smiles>  (4629) 
Cc1cccc(N2CCC(NC(O)c3ccc(C(F)(F)F)c4nn(C)cc34)C2)n1

>  <ref_pdb>  (4629) 
A3181a

>  <alias>  (4629) 
VKXGRUCRUCHMSZ-UHFFFAOYSA-N-P12-P12-P103-601509

>  <HIPPO Pose ID>  (4629) 
516182

>  <name>  (4629) 
VKXGRUCRUCHMSZ-UHFFFAOYSA-N-P12-P12-P103-601509

>  <HIPPO Compound ID>  (4629) 
293477

>  <ref_mols>  (4629) 
A0497a,A1105b

>  <distance_score>  (4629) 
1.902527

>  <inspiration_score>  (4629) 
None

$$$$
VKXGRUCRUCHMSZ-UHFFFAOYSA-N-P103-P12-P103-601509
     RDKit          3D

 29 32  0  0  0  0  0  0  0  0999 V2000
   18.3808   -8.4904   19.5502 C   0  0  0  0  0  0  0  0  0  0  0  0
   19.5045   -7.7120   18.9500 C   0  0  0  0  0  0  0  0  0  0  0  0
   20.2376   -8.1755   17.8695 C   0  0  0  0  0  0  0  0  0  0  0  0
   21.2070   -7.3443   17.3196 C   0  0  0  0  0  0  0  0  0  0  0  0
   21.4468   -6.1009   17.8966 C   0  0  0  0  0  0  0  0  0  0  0  0
   20.7218   -5.7178   19.0251 C   0  0  0  0  0  0  0  0  0  0  0  0
   20.9291   -4.4677   19.6391 N   0  0  0  0  0  0  0  0  0  0  0  0
   20.7491   -3.3180   18.7160 C   0  0  0  0  0  0  0  0  0  0  0  0
   19.6513   -2.4604   19.3471 C   0  0  0  0  0  0  0  0  0  0  0  0
   18.8311   -3.4416   20.1792 C   0  0  1  0  0  0  0  0  0  0  0  0
   17.8200   -4.3147   19.5453 N   0  0  0  0  0  0  0  0  0  0  0  0
   17.7329   -4.3822   18.0886 C   0  0  2  0  0  0  0  0  0  0  0  0
   17.5608   -3.1220   17.4960 O   0  0  0  0  0  0  0  0  0  0  0  0
   16.5660   -5.2432   17.6952 C   0  0  0  0  0  0  0  0  0  0  0  0
   15.2176   -4.8739   17.9022 C   0  0  0  0  0  0  0  0  0  0  0  0
   14.1122   -5.7727   17.7504 C   0  0  0  0  0  0  0  0  0  0  0  0
   14.2350   -7.1475   17.4030 C   0  0  0  0  0  0  0  0  0  0  0  0
   13.1604   -8.1663   17.4470 C   0  0  0  0  0  0  0  0  0  0  0  0
   12.4596   -8.1449   18.6142 F   0  0  0  0  0  0  0  0  0  0  0  0
   12.2542   -8.0105   16.4420 F   0  0  0  0  0  0  0  0  0  0  0  0
   13.5770   -9.4630   17.3392 F   0  0  0  0  0  0  0  0  0  0  0  0
   15.5288   -7.4602   17.0001 C   0  0  0  0  0  0  0  0  0  0  0  0
   15.9916   -8.5872   16.4296 N   0  0  0  0  0  0  0  0  0  0  0  0
   17.2444   -8.2921   16.0665 N   0  0  0  0  0  0  0  0  0  0  0  0
   17.9753   -9.2266   15.2463 C   0  0  0  0  0  0  0  0  0  0  0  0
   17.6650   -7.0692   16.4812 C   0  0  0  0  0  0  0  0  0  0  0  0
   16.6042   -6.5224   17.1437 C   0  0  0  0  0  0  0  0  0  0  0  0
   20.0194   -4.2354   20.7881 C   0  0  0  0  0  0  0  0  0  0  0  0
   19.7704   -6.5306   19.5369 N   0  0  0  0  0  0  0  0  0  0  0  0
  1  2  1  0
  2  3  2  0
  3  4  1  0
  4  5  2  0
  5  6  1  0
  6  7  1  0
  7  8  1  0
  8  9  1  0
  9 10  1  0
 10 11  1  6
 11 12  1  0
 12 13  1  6
 12 14  1  0
 14 15  2  0
 15 16  1  0
 16 17  2  0
 17 18  1  0
 18 19  1  0
 18 20  1  0
 18 21  1  0
 17 22  1  0
 22 23  2  0
 23 24  1  0
 24 25  1  0
 24 26  1  0
 26 27  2  0
 10 28  1  0
  6 29  2  0
 29  2  1  0
 28  7  1  0
 27 14  1  0
 27 22  1  0
M  END
>  <energy_score>  (4630) 
-28.810087

>  <inchikey>  (4630) 
VKXGRUCRUCHMSZ-UHFFFAOYSA-N

>  <smiles>  (4630) 
Cc1cccc(N2CCC(NC(O)c3ccc(C(F)(F)F)c4nn(C)cc34)C2)n1

>  <ref_pdb>  (4630) 
A3181a

>  <alias>  (4630) 
VKXGRUCRUCHMSZ-UHFFFAOYSA-N-P103-P12-P103-601509

>  <HIPPO Pose ID>  (4630) 
516183

>  <name>  (4630) 
VKXGRUCRUCHMSZ-UHFFFAOYSA-N-P103-P12-P103-601509

>  <HIPPO Compound ID>  (4630) 
293477

>  <ref_mols>  (4630) 
A0497a,A1105b

>  <distance_score>  (4630) 
1.898499

>  <inspiration_score>  (4630) 
None

$$$$
XOLWKGIRIPIXTM-UHFFFAOYSA-N-P12-P12-P103-601509
     RDKit          3D

 30 34  0  0  0  0  0  0  0  0999 V2000
   15.6104   -7.8928   17.7688 C   0  0  0  0  0  0  0  0  0  0  0  0
   16.8288   -7.8766   16.9938 N   0  0  0  0  0  0  0  0  0  0  0  0
   17.9561   -7.1660   17.2745 C   0  0  0  0  0  0  0  0  0  0  0  0
   18.8276   -7.4281   16.2467 C   0  0  0  0  0  0  0  0  0  0  0  0
   20.1123   -6.8818   16.0418 C   0  0  0  0  0  0  0  0  0  0  0  0
   20.7725   -5.7026   16.7061 C   0  0  1  0  0  0  0  0  0  0  0  0
   19.9538   -5.2374   17.7441 O   0  0  0  0  0  0  0  0  0  0  0  0
   22.1663   -5.8803   17.1257 N   0  0  0  0  0  0  0  0  0  0  0  0
   22.2875   -6.2760   18.5632 C   0  0  0  0  0  0  0  0  0  0  0  0
   23.0833   -5.1005   19.2056 C   0  0  1  0  0  0  0  0  0  0  0  0
   24.0599   -4.8376   18.0585 C   0  0  0  0  0  0  0  0  0  0  0  0
   22.9195   -4.5730   17.0814 C   0  0  2  0  0  0  0  0  0  0  0  0
   22.2333   -3.3817   17.8310 C   0  0  0  0  0  0  0  0  0  0  0  0
   22.2741   -3.8263   19.2292 N   0  0  0  0  0  0  0  0  0  0  0  0
   21.1205   -3.9165   19.9974 C   0  0  0  0  0  0  0  0  0  0  0  0
   19.9264   -3.2264   19.7478 C   0  0  0  0  0  0  0  0  0  0  0  0
   18.7850   -3.4964   20.5168 C   0  0  0  0  0  0  0  0  0  0  0  0
   18.8975   -4.3929   21.5646 C   0  0  0  0  0  0  0  0  0  0  0  0
   17.5348   -4.7578   22.7863 Br  0  0  0  0  0  0  0  0  0  0  0  0
   20.1147   -4.9860   21.7934 C   0  0  0  0  0  0  0  0  0  0  0  0
   21.2055   -4.7572   21.0496 N   0  0  0  0  0  0  0  0  0  0  0  0
   20.6935   -7.4251   14.8663 C   0  0  0  0  0  0  0  0  0  0  0  0
   20.0528   -8.3606   14.0053 C   0  0  0  0  0  0  0  0  0  0  0  0
   18.7413   -8.8616   14.2142 C   0  0  0  0  0  0  0  0  0  0  0  0
   18.0741   -9.8096   13.2795 C   0  0  0  0  0  0  0  0  0  0  0  0
   18.8849  -10.1731   12.2386 F   0  0  0  0  0  0  0  0  0  0  0  0
   16.9606   -9.2899   12.6898 F   0  0  0  0  0  0  0  0  0  0  0  0
   17.6957  -10.9822   13.8583 F   0  0  0  0  0  0  0  0  0  0  0  0
   18.1376   -8.3617   15.3797 C   0  0  0  0  0  0  0  0  0  0  0  0
   16.9057   -8.6001   15.8627 N   0  0  0  0  0  0  0  0  0  0  0  0
  1  2  1  0
  2  3  1  0
  3  4  2  0
  4  5  1  0
  5  6  1  0
  6  7  1  1
  6  8  1  0
  8  9  1  0
 10  9  1  6
 10 11  1  0
 11 12  1  0
 12 13  1  1
 13 14  1  0
 14 15  1  0
 15 16  2  0
 16 17  1  0
 17 18  2  0
 18 19  1  0
 18 20  1  0
 20 21  2  0
  5 22  2  0
 22 23  1  0
 23 24  2  0
 24 25  1  0
 25 26  1  0
 25 27  1  0
 25 28  1  0
 24 29  1  0
 29 30  2  0
 30  2  1  0
 29  4  1  0
 12  8  1  0
 21 15  1  0
 14 10  1  0
M  END
>  <energy_score>  (4631) 
-35.447851

>  <inchikey>  (4631) 
XOLWKGIRIPIXTM-UHFFFAOYSA-N

>  <smiles>  (4631) 
Cn1cc2c(C(O)N3CC4CC3CN4c3ccc(Br)cn3)ccc(C(F)(F)F)c2n1

>  <ref_pdb>  (4631) 
A3181a

>  <alias>  (4631) 
XOLWKGIRIPIXTM-UHFFFAOYSA-N-P12-P12-P103-601509

>  <HIPPO Pose ID>  (4631) 
516184

>  <name>  (4631) 
XOLWKGIRIPIXTM-UHFFFAOYSA-N-P12-P12-P103-601509

>  <HIPPO Compound ID>  (4631) 
293478

>  <ref_mols>  (4631) 
A0497a,A1105b

>  <distance_score>  (4631) 
1.659966

>  <inspiration_score>  (4631) 
None

$$$$
XOLWKGIRIPIXTM-UHFFFAOYSA-N-P103-P12-P103-601509
     RDKit          3D

 30 34  0  0  0  0  0  0  0  0999 V2000
   15.6616   -7.5899   17.8657 C   0  0  0  0  0  0  0  0  0  0  0  0
   16.8982   -7.5994   17.1189 N   0  0  0  0  0  0  0  0  0  0  0  0
   18.0958   -7.0934   17.5340 C   0  0  0  0  0  0  0  0  0  0  0  0
   18.9515   -7.2901   16.4806 C   0  0  0  0  0  0  0  0  0  0  0  0
   20.3091   -6.9334   16.4302 C   0  0  0  0  0  0  0  0  0  0  0  0
   21.1339   -6.3474   17.5406 C   0  0  1  0  0  0  0  0  0  0  0  0
   21.7570   -7.4606   18.1634 O   0  0  0  0  0  0  0  0  0  0  0  0
   22.2096   -5.4292   17.1520 N   0  0  0  0  0  0  0  0  0  0  0  0
   22.7043   -4.7268   18.3851 C   0  0  0  0  0  0  0  0  0  0  0  0
   22.4062   -3.2338   18.1176 C   0  0  1  0  0  0  0  0  0  0  0  0
   22.7989   -3.2080   16.6393 C   0  0  0  0  0  0  0  0  0  0  0  0
   21.7658   -4.2800   16.2833 C   0  0  2  0  0  0  0  0  0  0  0  0
   20.4842   -3.5495   16.7714 C   0  0  0  0  0  0  0  0  0  0  0  0
   20.9403   -2.9458   18.0393 N   0  0  0  0  0  0  0  0  0  0  0  0
   20.1595   -3.2097   19.1540 C   0  0  0  0  0  0  0  0  0  0  0  0
   18.7636   -3.1908   19.0911 C   0  0  0  0  0  0  0  0  0  0  0  0
   18.0130   -3.6245   20.1845 C   0  0  0  0  0  0  0  0  0  0  0  0
   18.6802   -4.0608   21.3172 C   0  0  0  0  0  0  0  0  0  0  0  0
   17.8274   -4.7313   22.8472 Br  0  0  0  0  0  0  0  0  0  0  0  0
   20.0539   -3.9749   21.3351 C   0  0  0  0  0  0  0  0  0  0  0  0
   20.7905   -3.5381   20.2974 N   0  0  0  0  0  0  0  0  0  0  0  0
   20.8597   -7.3016   15.1758 C   0  0  0  0  0  0  0  0  0  0  0  0
   20.1287   -7.9247   14.1220 C   0  0  0  0  0  0  0  0  0  0  0  0
   18.7590   -8.2899   14.2125 C   0  0  0  0  0  0  0  0  0  0  0  0
   18.0254   -8.9257   13.0854 C   0  0  0  0  0  0  0  0  0  0  0  0
   18.8703   -9.4930   12.1701 F   0  0  0  0  0  0  0  0  0  0  0  0
   17.2867   -8.0306   12.3646 F   0  0  0  0  0  0  0  0  0  0  0  0
   17.1731   -9.9231   13.4442 F   0  0  0  0  0  0  0  0  0  0  0  0
   18.1808   -7.9464   15.4459 C   0  0  0  0  0  0  0  0  0  0  0  0
   16.9273   -8.1462   15.8881 N   0  0  0  0  0  0  0  0  0  0  0  0
  1  2  1  0
  2  3  1  0
  3  4  2  0
  4  5  1  0
  5  6  1  0
  6  7  1  6
  6  8  1  0
  8  9  1  0
 10  9  1  6
 10 11  1  0
 11 12  1  0
 12 13  1  1
 13 14  1  0
 14 15  1  0
 15 16  2  0
 16 17  1  0
 17 18  2  0
 18 19  1  0
 18 20  1  0
 20 21  2  0
  5 22  2  0
 22 23  1  0
 23 24  2  0
 24 25  1  0
 25 26  1  0
 25 27  1  0
 25 28  1  0
 24 29  1  0
 29 30  2  0
 30  2  1  0
 29  4  1  0
 12  8  1  0
 21 15  1  0
 14 10  1  0
M  END
>  <energy_score>  (4632) 
-55.21973

>  <inchikey>  (4632) 
XOLWKGIRIPIXTM-UHFFFAOYSA-N

>  <smiles>  (4632) 
Cn1cc2c(C(O)N3CC4CC3CN4c3ccc(Br)cn3)ccc(C(F)(F)F)c2n1

>  <ref_pdb>  (4632) 
A3181a

>  <alias>  (4632) 
XOLWKGIRIPIXTM-UHFFFAOYSA-N-P103-P12-P103-601509

>  <HIPPO Pose ID>  (4632) 
516185

>  <name>  (4632) 
XOLWKGIRIPIXTM-UHFFFAOYSA-N-P103-P12-P103-601509

>  <HIPPO Compound ID>  (4632) 
293478

>  <ref_mols>  (4632) 
A0497a,A1105b

>  <distance_score>  (4632) 
1.200064

>  <inspiration_score>  (4632) 
None

$$$$
BPQXYJQSJJLSLU-UHFFFAOYSA-N-P12-P12-P103-601509
     RDKit          3D

 30 33  0  0  0  0  0  0  0  0999 V2000
   15.8205   -7.9149   18.0554 C   0  0  0  0  0  0  0  0  0  0  0  0
   17.0021   -7.8298   17.2296 N   0  0  0  0  0  0  0  0  0  0  0  0
   18.2968   -7.7309   17.6579 C   0  0  0  0  0  0  0  0  0  0  0  0
   19.0428   -7.6061   16.5142 C   0  0  0  0  0  0  0  0  0  0  0  0
   20.4368   -7.4611   16.4214 C   0  0  0  0  0  0  0  0  0  0  0  0
   21.4659   -7.5940   17.5131 C   0  0  1  0  0  0  0  0  0  0  0  0
   22.1419   -8.8358   17.3812 O   0  0  0  0  0  0  0  0  0  0  0  0
   22.4992   -6.5698   17.4689 N   0  0  0  0  0  0  0  0  0  0  0  0
   22.1657   -5.4664   18.3720 C   0  0  1  0  0  0  0  0  0  0  0  0
   23.2214   -4.3703   18.4465 C   0  0  0  0  0  0  0  0  0  0  0  0
   22.4656   -3.1962   19.0962 C   0  0  0  0  0  0  0  0  0  0  0  0
   21.0232   -3.3921   18.7961 N   0  0  0  0  0  0  0  0  0  0  0  0
   20.2478   -3.6785   19.9518 C   0  0  0  0  0  0  0  0  0  0  0  0
   20.8102   -4.4948   20.8740 N   0  0  0  0  0  0  0  0  0  0  0  0
   20.0682   -4.9433   21.8985 C   0  0  0  0  0  0  0  0  0  0  0  0
   18.7376   -4.6386   22.0799 C   0  0  0  0  0  0  0  0  0  0  0  0
   18.0722   -5.1374   23.3206 C   0  0  0  0  0  0  0  0  0  0  0  0
   18.0942   -4.2378   24.3345 F   0  0  0  0  0  0  0  0  0  0  0  0
   18.6666   -6.2630   23.8171 F   0  0  0  0  0  0  0  0  0  0  0  0
   16.7798   -5.4957   23.1269 F   0  0  0  0  0  0  0  0  0  0  0  0
   18.1480   -3.7854   21.1473 C   0  0  0  0  0  0  0  0  0  0  0  0
   18.9106   -3.2781   20.0880 C   0  0  0  0  0  0  0  0  0  0  0  0
   18.1813   -2.0810   19.1072 Cl  0  0  0  0  0  0  0  0  0  0  0  0
   20.9489   -4.6200   17.9618 C   0  0  0  0  0  0  0  0  0  0  0  0
   20.8154   -7.2780   15.0606 C   0  0  0  0  0  0  0  0  0  0  0  0
   19.9092   -7.3015   13.9594 C   0  0  0  0  0  0  0  0  0  0  0  0
   20.6113   -7.0346   12.2139 Br  0  0  0  0  0  0  0  0  0  0  0  0
   18.5279   -7.5236   14.0858 C   0  0  0  0  0  0  0  0  0  0  0  0
   18.1041   -7.6564   15.4154 C   0  0  0  0  0  0  0  0  0  0  0  0
   16.8647   -7.8615   15.8908 N   0  0  0  0  0  0  0  0  0  0  0  0
  1  2  1  0
  2  3  1  0
  3  4  2  0
  4  5  1  0
  5  6  1  0
  6  7  1  6
  6  8  1  0
  9  8  1  6
  9 10  1  0
 10 11  1  0
 11 12  1  0
 12 13  1  0
 13 14  2  0
 14 15  1  0
 15 16  2  0
 16 17  1  0
 17 18  1  0
 17 19  1  0
 17 20  1  0
 16 21  1  0
 21 22  2  0
 22 23  1  0
 12 24  1  0
  5 25  2  0
 25 26  1  0
 26 27  1  0
 26 28  2  0
 28 29  1  0
 29 30  2  0
 30  2  1  0
 29  4  1  0
 24  9  1  0
 22 13  1  0
M  END
>  <energy_score>  (4633) 
-37.609434

>  <inchikey>  (4633) 
BPQXYJQSJJLSLU-UHFFFAOYSA-N

>  <smiles>  (4633) 
Cn1cc2c(C(O)NC3CCN(c4ncc(C(F)(F)F)cc4Cl)C3)cc(Br)cc2n1

>  <ref_pdb>  (4633) 
A3181a

>  <alias>  (4633) 
BPQXYJQSJJLSLU-UHFFFAOYSA-N-P12-P12-P103-601509

>  <HIPPO Pose ID>  (4633) 
516188

>  <name>  (4633) 
BPQXYJQSJJLSLU-UHFFFAOYSA-N-P12-P12-P103-601509

>  <HIPPO Compound ID>  (4633) 
293480

>  <ref_mols>  (4633) 
A0497a,A1105b

>  <distance_score>  (4633) 
1.66166

>  <inspiration_score>  (4633) 
None

$$$$
BPQXYJQSJJLSLU-UHFFFAOYSA-N-P103-P12-P103-601509
     RDKit          3D

 30 33  0  0  0  0  0  0  0  0999 V2000
   16.0653   -7.6528   18.2641 C   0  0  0  0  0  0  0  0  0  0  0  0
   17.1723   -7.7081   17.3398 N   0  0  0  0  0  0  0  0  0  0  0  0
   18.4738   -7.3783   17.6011 C   0  0  0  0  0  0  0  0  0  0  0  0
   19.1247   -7.5119   16.4012 C   0  0  0  0  0  0  0  0  0  0  0  0
   20.4831   -7.2695   16.1322 C   0  0  0  0  0  0  0  0  0  0  0  0
   21.5961   -6.9306   17.0809 C   0  0  1  0  0  0  0  0  0  0  0  0
   22.5745   -7.9441   16.9740 O   0  0  0  0  0  0  0  0  0  0  0  0
   22.2989   -5.6924   16.7779 N   0  0  0  0  0  0  0  0  0  0  0  0
   21.7653   -4.5844   17.5653 C   0  0  1  0  0  0  0  0  0  0  0  0
   22.5539   -3.2866   17.4114 C   0  0  0  0  0  0  0  0  0  0  0  0
   21.5980   -2.2175   17.9708 C   0  0  0  0  0  0  0  0  0  0  0  0
   20.2406   -2.8168   17.9577 N   0  0  0  0  0  0  0  0  0  0  0  0
   19.7304   -3.1368   19.2403 C   0  0  0  0  0  0  0  0  0  0  0  0
   20.6173   -3.3308   20.2483 N   0  0  0  0  0  0  0  0  0  0  0  0
   20.1773   -3.7870   21.4378 C   0  0  0  0  0  0  0  0  0  0  0  0
   18.8542   -4.0337   21.7251 C   0  0  0  0  0  0  0  0  0  0  0  0
   18.4909   -4.5473   23.0798 C   0  0  0  0  0  0  0  0  0  0  0  0
   19.3765   -5.4854   23.5261 F   0  0  0  0  0  0  0  0  0  0  0  0
   17.2798   -5.1715   23.1140 F   0  0  0  0  0  0  0  0  0  0  0  0
   18.4709   -3.5830   24.0321 F   0  0  0  0  0  0  0  0  0  0  0  0
   17.9349   -3.7551   20.7207 C   0  0  0  0  0  0  0  0  0  0  0  0
   18.3646   -3.3716   19.4517 C   0  0  0  0  0  0  0  0  0  0  0  0
   17.1727   -3.3154   18.2152 Cl  0  0  0  0  0  0  0  0  0  0  0  0
   20.3558   -4.0801   17.2036 C   0  0  0  0  0  0  0  0  0  0  0  0
   20.7470   -7.4884   14.7493 C   0  0  0  0  0  0  0  0  0  0  0  0
   19.7807   -7.9234   13.7970 C   0  0  0  0  0  0  0  0  0  0  0  0
   20.3409   -8.1630   11.9966 Br  0  0  0  0  0  0  0  0  0  0  0  0
   18.4421   -8.2024   14.1120 C   0  0  0  0  0  0  0  0  0  0  0  0
   18.1269   -7.9703   15.4572 C   0  0  0  0  0  0  0  0  0  0  0  0
   16.9515   -8.1361   16.0842 N   0  0  0  0  0  0  0  0  0  0  0  0
  1  2  1  0
  2  3  1  0
  3  4  2  0
  4  5  1  0
  5  6  1  0
  6  7  1  6
  6  8  1  0
  9  8  1  6
  9 10  1  0
 10 11  1  0
 11 12  1  0
 12 13  1  0
 13 14  2  0
 14 15  1  0
 15 16  2  0
 16 17  1  0
 17 18  1  0
 17 19  1  0
 17 20  1  0
 16 21  1  0
 21 22  2  0
 22 23  1  0
 12 24  1  0
  5 25  2  0
 25 26  1  0
 26 27  1  0
 26 28  2  0
 28 29  1  0
 29 30  2  0
 30  2  1  0
 29  4  1  0
 24  9  1  0
 22 13  1  0
M  END
>  <energy_score>  (4634) 
-39.056466

>  <inchikey>  (4634) 
BPQXYJQSJJLSLU-UHFFFAOYSA-N

>  <smiles>  (4634) 
Cn1cc2c(C(O)NC3CCN(c4ncc(C(F)(F)F)cc4Cl)C3)cc(Br)cc2n1

>  <ref_pdb>  (4634) 
A3181a

>  <alias>  (4634) 
BPQXYJQSJJLSLU-UHFFFAOYSA-N-P103-P12-P103-601509

>  <HIPPO Pose ID>  (4634) 
516189

>  <name>  (4634) 
BPQXYJQSJJLSLU-UHFFFAOYSA-N-P103-P12-P103-601509

>  <HIPPO Compound ID>  (4634) 
293480

>  <ref_mols>  (4634) 
A0497a,A1105b

>  <distance_score>  (4634) 
1.463032

>  <inspiration_score>  (4634) 
None

$$$$
MBMJZUQNYIXZQB-UHFFFAOYSA-N-P12-P12-P103-601509
     RDKit          3D

 30 33  0  0  0  0  0  0  0  0999 V2000
   16.2376   -7.5693   18.2159 C   0  0  0  0  0  0  0  0  0  0  0  0
   17.3410   -7.4561   17.2933 N   0  0  0  0  0  0  0  0  0  0  0  0
   18.5223   -6.8072   17.5169 C   0  0  0  0  0  0  0  0  0  0  0  0
   19.2256   -6.9211   16.3460 C   0  0  0  0  0  0  0  0  0  0  0  0
   20.4930   -6.3809   16.0546 C   0  0  0  0  0  0  0  0  0  0  0  0
   21.4319   -5.5969   16.9425 C   0  0  1  0  0  0  0  0  0  0  0  0
   22.6667   -6.2968   16.9949 O   0  0  0  0  0  0  0  0  0  0  0  0
   21.6706   -4.2425   16.4661 N   0  0  0  0  0  0  0  0  0  0  0  0
   22.6643   -3.4847   17.2640 C   0  0  1  0  0  0  0  0  0  0  0  0
   22.3301   -1.9971   17.1632 C   0  0  0  0  0  0  0  0  0  0  0  0
   21.2281   -1.8177   18.2119 C   0  0  0  0  0  0  0  0  0  0  0  0
   21.4996   -2.8102   19.2506 N   0  0  0  0  0  0  0  0  0  0  0  0
   20.4633   -3.4848   19.8818 C   0  0  0  0  0  0  0  0  0  0  0  0
   20.8285   -4.6862   20.3992 N   0  0  0  0  0  0  0  0  0  0  0  0
   19.9965   -5.3950   21.1728 C   0  0  0  0  0  0  0  0  0  0  0  0
   18.7288   -4.9866   21.4919 C   0  0  0  0  0  0  0  0  0  0  0  0
   17.9888   -5.7869   22.5014 C   0  0  0  0  0  0  0  0  0  0  0  0
   16.9088   -5.1577   23.0214 F   0  0  0  0  0  0  0  0  0  0  0  0
   18.7529   -6.1530   23.5668 F   0  0  0  0  0  0  0  0  0  0  0  0
   17.5118   -6.9559   21.9829 F   0  0  0  0  0  0  0  0  0  0  0  0
   18.2805   -3.8033   20.9104 C   0  0  0  0  0  0  0  0  0  0  0  0
   19.1577   -3.0203   20.1347 C   0  0  0  0  0  0  0  0  0  0  0  0
   18.5631   -1.4409   19.7499 Cl  0  0  0  0  0  0  0  0  0  0  0  0
   22.6517   -3.6264   18.8060 C   0  0  0  0  0  0  0  0  0  0  0  0
   20.8495   -6.7080   14.7162 C   0  0  0  0  0  0  0  0  0  0  0  0
   20.0373   -7.4586   13.8206 C   0  0  0  0  0  0  0  0  0  0  0  0
   20.5129   -7.6794   12.5847 F   0  0  0  0  0  0  0  0  0  0  0  0
   18.7793   -7.9836   14.1421 C   0  0  0  0  0  0  0  0  0  0  0  0
   18.3796   -7.6887   15.4507 C   0  0  0  0  0  0  0  0  0  0  0  0
   17.2410   -8.0285   16.0781 N   0  0  0  0  0  0  0  0  0  0  0  0
  1  2  1  0
  2  3  1  0
  3  4  2  0
  4  5  1  0
  5  6  1  0
  6  7  1  6
  6  8  1  0
  9  8  1  6
  9 10  1  0
 10 11  1  0
 11 12  1  0
 12 13  1  0
 13 14  2  0
 14 15  1  0
 15 16  2  0
 16 17  1  0
 17 18  1  0
 17 19  1  0
 17 20  1  0
 16 21  1  0
 21 22  2  0
 22 23  1  0
 12 24  1  0
  5 25  2  0
 25 26  1  0
 26 27  1  0
 26 28  2  0
 28 29  1  0
 29 30  2  0
 30  2  1  0
 29  4  1  0
 24  9  1  0
 22 13  1  0
M  END
>  <energy_score>  (4635) 
-63.123182

>  <inchikey>  (4635) 
MBMJZUQNYIXZQB-UHFFFAOYSA-N

>  <smiles>  (4635) 
Cn1cc2c(C(O)NC3CCN(c4ncc(C(F)(F)F)cc4Cl)C3)cc(F)cc2n1

>  <ref_pdb>  (4635) 
A3181a

>  <alias>  (4635) 
MBMJZUQNYIXZQB-UHFFFAOYSA-N-P12-P12-P103-601509

>  <HIPPO Pose ID>  (4635) 
516192

>  <name>  (4635) 
MBMJZUQNYIXZQB-UHFFFAOYSA-N-P12-P12-P103-601509

>  <HIPPO Compound ID>  (4635) 
293482

>  <ref_mols>  (4635) 
A0497a,A1105b

>  <distance_score>  (4635) 
1.568615

>  <inspiration_score>  (4635) 
None

$$$$
MBMJZUQNYIXZQB-UHFFFAOYSA-N-P103-P12-P103-601509
     RDKit          3D

 30 33  0  0  0  0  0  0  0  0999 V2000
   16.0922   -7.7383   18.1408 C   0  0  0  0  0  0  0  0  0  0  0  0
   17.2212   -7.6608   17.2443 N   0  0  0  0  0  0  0  0  0  0  0  0
   18.4290   -7.0748   17.5020 C   0  0  0  0  0  0  0  0  0  0  0  0
   19.1381   -7.1689   16.3344 C   0  0  0  0  0  0  0  0  0  0  0  0
   20.4312   -6.6788   16.0743 C   0  0  0  0  0  0  0  0  0  0  0  0
   21.3895   -5.9396   16.9749 C   0  0  1  0  0  0  0  0  0  0  0  0
   22.5973   -6.6811   16.9887 O   0  0  0  0  0  0  0  0  0  0  0  0
   21.6423   -4.5953   16.5053 N   0  0  0  0  0  0  0  0  0  0  0  0
   22.7043   -3.8312   17.1839 C   0  0  1  0  0  0  0  0  0  0  0  0
   22.5518   -2.3541   16.8289 C   0  0  0  0  0  0  0  0  0  0  0  0
   21.3647   -1.9226   17.6950 C   0  0  0  0  0  0  0  0  0  0  0  0
   21.4847   -2.7271   18.9131 N   0  0  0  0  0  0  0  0  0  0  0  0
   20.4683   -3.2813   19.6572 C   0  0  0  0  0  0  0  0  0  0  0  0
   20.9194   -3.7078   20.8700 N   0  0  0  0  0  0  0  0  0  0  0  0
   20.1813   -4.5376   21.6224 C   0  0  0  0  0  0  0  0  0  0  0  0
   18.9565   -5.0136   21.2360 C   0  0  0  0  0  0  0  0  0  0  0  0
   18.3247   -6.0842   22.0503 C   0  0  0  0  0  0  0  0  0  0  0  0
   17.4167   -5.6148   22.9460 F   0  0  0  0  0  0  0  0  0  0  0  0
   19.2136   -6.8157   22.7782 F   0  0  0  0  0  0  0  0  0  0  0  0
   17.6544   -6.9919   21.2880 F   0  0  0  0  0  0  0  0  0  0  0  0
   18.4160   -4.4671   20.0751 C   0  0  0  0  0  0  0  0  0  0  0  0
   19.1556   -3.5791   19.2819 C   0  0  0  0  0  0  0  0  0  0  0  0
   18.3433   -3.0688   17.8657 Cl  0  0  0  0  0  0  0  0  0  0  0  0
   22.5780   -3.7041   18.7153 C   0  0  0  0  0  0  0  0  0  0  0  0
   20.8006   -7.0130   14.7395 C   0  0  0  0  0  0  0  0  0  0  0  0
   19.9860   -7.7366   13.8262 C   0  0  0  0  0  0  0  0  0  0  0  0
   20.4800   -7.9716   12.5996 F   0  0  0  0  0  0  0  0  0  0  0  0
   18.7070   -8.2219   14.1219 C   0  0  0  0  0  0  0  0  0  0  0  0
   18.2880   -7.9102   15.4205 C   0  0  0  0  0  0  0  0  0  0  0  0
   17.1292   -8.2238   16.0250 N   0  0  0  0  0  0  0  0  0  0  0  0
  1  2  1  0
  2  3  1  0
  3  4  2  0
  4  5  1  0
  5  6  1  0
  6  7  1  6
  6  8  1  0
  9  8  1  6
  9 10  1  0
 10 11  1  0
 11 12  1  0
 12 13  1  0
 13 14  2  0
 14 15  1  0
 15 16  2  0
 16 17  1  0
 17 18  1  0
 17 19  1  0
 17 20  1  0
 16 21  1  0
 21 22  2  0
 22 23  1  0
 12 24  1  0
  5 25  2  0
 25 26  1  0
 26 27  1  0
 26 28  2  0
 28 29  1  0
 29 30  2  0
 30  2  1  0
 29  4  1  0
 24  9  1  0
 22 13  1  0
M  END
>  <energy_score>  (4636) 
-51.277467

>  <inchikey>  (4636) 
MBMJZUQNYIXZQB-UHFFFAOYSA-N

>  <smiles>  (4636) 
Cn1cc2c(C(O)NC3CCN(c4ncc(C(F)(F)F)cc4Cl)C3)cc(F)cc2n1

>  <ref_pdb>  (4636) 
A3181a

>  <alias>  (4636) 
MBMJZUQNYIXZQB-UHFFFAOYSA-N-P103-P12-P103-601509

>  <HIPPO Pose ID>  (4636) 
516193

>  <name>  (4636) 
MBMJZUQNYIXZQB-UHFFFAOYSA-N-P103-P12-P103-601509

>  <HIPPO Compound ID>  (4636) 
293482

>  <ref_mols>  (4636) 
A0497a,A1105b

>  <distance_score>  (4636) 
1.283497

>  <inspiration_score>  (4636) 
None

$$$$
MYGKKZXDZGSEJX-UHFFFAOYSA-N-P12-P12-P103-601509
     RDKit          3D

 30 33  0  0  0  0  0  0  0  0999 V2000
   18.3078   -2.3648   19.2015 C   0  0  0  0  0  0  0  0  0  0  0  0
   17.7172   -3.3672   20.0087 O   0  0  0  0  0  0  0  0  0  0  0  0
   17.6824   -4.6723   19.4423 C   0  0  2  0  0  0  0  0  0  0  0  0
   18.9338   -5.0496   18.8632 N   0  0  0  0  0  0  0  0  0  0  0  0
   19.9442   -5.5545   19.7910 C   0  0  2  0  0  0  0  0  0  0  0  0
   21.2219   -4.7467   19.6039 C   0  0  0  0  0  0  0  0  0  0  0  0
   21.7609   -5.2541   18.2572 C   0  0  0  0  0  0  0  0  0  0  0  0
   21.2889   -6.6662   18.1382 N   0  0  0  0  0  0  0  0  0  0  0  0
   20.6212   -6.9203   16.9142 C   0  0  0  0  0  0  0  0  0  0  0  0
   19.3616   -7.4371   16.9666 N   0  0  0  0  0  0  0  0  0  0  0  0
   18.6478   -7.6087   15.8320 C   0  0  0  0  0  0  0  0  0  0  0  0
   19.1249   -7.3112   14.5857 C   0  0  0  0  0  0  0  0  0  0  0  0
   18.3052   -7.5371   13.3604 C   0  0  0  0  0  0  0  0  0  0  0  0
   18.7189   -8.6257   12.6539 F   0  0  0  0  0  0  0  0  0  0  0  0
   16.9816   -7.7395   13.6072 F   0  0  0  0  0  0  0  0  0  0  0  0
   18.3571   -6.4907   12.4851 F   0  0  0  0  0  0  0  0  0  0  0  0
   20.4350   -6.8474   14.5119 C   0  0  0  0  0  0  0  0  0  0  0  0
   21.1981   -6.6644   15.6666 C   0  0  0  0  0  0  0  0  0  0  0  0
   22.8498   -6.1995   15.4442 Cl  0  0  0  0  0  0  0  0  0  0  0  0
   20.4840   -6.9421   19.3532 C   0  0  0  0  0  0  0  0  0  0  0  0
   16.4622   -4.9535   18.5710 C   0  0  0  0  0  0  0  0  0  0  0  0
   15.4435   -3.9820   18.2963 C   0  0  0  0  0  0  0  0  0  0  0  0
   14.2140   -4.2484   17.6063 C   0  0  0  0  0  0  0  0  0  0  0  0
   13.8396   -5.5207   17.1394 C   0  0  0  0  0  0  0  0  0  0  0  0
   14.7588   -6.5272   17.4572 C   0  0  0  0  0  0  0  0  0  0  0  0
   14.6851   -7.8504   17.2249 N   0  0  0  0  0  0  0  0  0  0  0  0
   15.7287   -8.3660   17.8968 N   0  0  0  0  0  0  0  0  0  0  0  0
   15.8864   -9.7988   17.9568 C   0  0  0  0  0  0  0  0  0  0  0  0
   16.5614   -7.4343   18.4421 C   0  0  0  0  0  0  0  0  0  0  0  0
   16.0020   -6.2210   18.1386 C   0  0  0  0  0  0  0  0  0  0  0  0
  1  2  1  0
  2  3  1  0
  3  4  1  6
  5  4  1  6
  5  6  1  0
  6  7  1  0
  7  8  1  0
  8  9  1  0
  9 10  2  0
 10 11  1  0
 11 12  2  0
 12 13  1  0
 13 14  1  0
 13 15  1  0
 13 16  1  0
 12 17  1  0
 17 18  2  0
 18 19  1  0
  8 20  1  0
  3 21  1  0
 21 22  2  0
 22 23  1  0
 23 24  2  0
 24 25  1  0
 25 26  2  0
 26 27  1  0
 27 28  1  0
 27 29  1  0
 29 30  2  0
 20  5  1  0
 30 21  1  0
 18  9  1  0
 30 25  1  0
M  END
>  <energy_score>  (4637) 
-41.613846

>  <inchikey>  (4637) 
MYGKKZXDZGSEJX-UHFFFAOYSA-N

>  <smiles>  (4637) 
COC(NC1CCN(c2ncc(C(F)(F)F)cc2Cl)C1)c1cccc2nn(C)cc12

>  <ref_pdb>  (4637) 
A3181a

>  <alias>  (4637) 
MYGKKZXDZGSEJX-UHFFFAOYSA-N-P12-P12-P103-601509

>  <HIPPO Pose ID>  (4637) 
516198

>  <name>  (4637) 
MYGKKZXDZGSEJX-UHFFFAOYSA-N-P12-P12-P103-601509

>  <HIPPO Compound ID>  (4637) 
293485

>  <ref_mols>  (4637) 
A0497a,A1105b

>  <distance_score>  (4637) 
1.862745

>  <inspiration_score>  (4637) 
None

$$$$
MYGKKZXDZGSEJX-UHFFFAOYSA-N-P103-P12-P103-601509
     RDKit          3D

 30 33  0  0  0  0  0  0  0  0999 V2000
   18.7617   -2.9790   17.5826 C   0  0  0  0  0  0  0  0  0  0  0  0
   18.3109   -2.9858   18.9147 O   0  0  0  0  0  0  0  0  0  0  0  0
   17.5185   -4.0914   19.3086 C   0  0  2  0  0  0  0  0  0  0  0  0
   18.2590   -4.9614   20.2364 N   0  0  0  0  0  0  0  0  0  0  0  0
   19.4911   -5.5710   19.7362 C   0  0  2  0  0  0  0  0  0  0  0  0
   20.7882   -4.7495   19.6822 C   0  0  0  0  0  0  0  0  0  0  0  0
   21.6692   -5.5794   18.7143 C   0  0  0  0  0  0  0  0  0  0  0  0
   20.7100   -5.9939   17.7112 N   0  0  0  0  0  0  0  0  0  0  0  0
   20.7704   -6.9081   16.6766 C   0  0  0  0  0  0  0  0  0  0  0  0
   19.9375   -6.5866   15.6507 N   0  0  0  0  0  0  0  0  0  0  0  0
   19.3268   -7.5546   14.9458 C   0  0  0  0  0  0  0  0  0  0  0  0
   19.5466   -8.8889   15.1635 C   0  0  0  0  0  0  0  0  0  0  0  0
   18.7811   -9.9277   14.4124 C   0  0  0  0  0  0  0  0  0  0  0  0
   19.5862  -10.8935   13.8882 F   0  0  0  0  0  0  0  0  0  0  0  0
   17.8888  -10.5823   15.2069 F   0  0  0  0  0  0  0  0  0  0  0  0
   18.0620   -9.4369   13.3653 F   0  0  0  0  0  0  0  0  0  0  0  0
   20.5306   -9.2201   16.0938 C   0  0  0  0  0  0  0  0  0  0  0  0
   21.1760   -8.2312   16.8417 C   0  0  0  0  0  0  0  0  0  0  0  0
   22.2763   -8.7726   18.0548 Cl  0  0  0  0  0  0  0  0  0  0  0  0
   19.4247   -6.2401   18.3659 C   0  0  0  0  0  0  0  0  0  0  0  0
   16.4304   -4.6714   18.3804 C   0  0  0  0  0  0  0  0  0  0  0  0
   15.4360   -3.7564   17.9035 C   0  0  0  0  0  0  0  0  0  0  0  0
   14.2267   -4.0980   17.2291 C   0  0  0  0  0  0  0  0  0  0  0  0
   13.8618   -5.4153   16.9382 C   0  0  0  0  0  0  0  0  0  0  0  0
   14.7879   -6.3714   17.3621 C   0  0  0  0  0  0  0  0  0  0  0  0
   14.7159   -7.7080   17.2318 N   0  0  0  0  0  0  0  0  0  0  0  0
   15.7282   -8.1620   17.9826 N   0  0  0  0  0  0  0  0  0  0  0  0
   15.8762   -9.5839   18.1726 C   0  0  0  0  0  0  0  0  0  0  0  0
   16.4981   -7.1829   18.5357 C   0  0  0  0  0  0  0  0  0  0  0  0
   16.0070   -5.9905   18.0637 C   0  0  0  0  0  0  0  0  0  0  0  0
  1  2  1  0
  2  3  1  0
  3  4  1  6
  5  4  1  6
  5  6  1  0
  6  7  1  0
  7  8  1  0
  8  9  1  0
  9 10  2  0
 10 11  1  0
 11 12  2  0
 12 13  1  0
 13 14  1  0
 13 15  1  0
 13 16  1  0
 12 17  1  0
 17 18  2  0
 18 19  1  0
  8 20  1  0
  3 21  1  0
 21 22  2  0
 22 23  1  0
 23 24  2  0
 24 25  1  0
 25 26  2  0
 26 27  1  0
 27 28  1  0
 27 29  1  0
 29 30  2  0
 20  5  1  0
 30 21  1  0
 18  9  1  0
 30 25  1  0
M  END
>  <energy_score>  (4638) 
-4.612109

>  <inchikey>  (4638) 
MYGKKZXDZGSEJX-UHFFFAOYSA-N

>  <smiles>  (4638) 
COC(NC1CCN(c2ncc(C(F)(F)F)cc2Cl)C1)c1cccc2nn(C)cc12

>  <ref_pdb>  (4638) 
A3181a

>  <alias>  (4638) 
MYGKKZXDZGSEJX-UHFFFAOYSA-N-P103-P12-P103-601509

>  <HIPPO Pose ID>  (4638) 
516199

>  <name>  (4638) 
MYGKKZXDZGSEJX-UHFFFAOYSA-N-P103-P12-P103-601509

>  <HIPPO Compound ID>  (4638) 
293485

>  <ref_mols>  (4638) 
A0497a,A1105b

>  <distance_score>  (4638) 
1.864954

>  <inspiration_score>  (4638) 
None

$$$$
FVGRZGDYANFRHP-UHFFFAOYSA-N-P12-P12-P103-601509
     RDKit          3D

 30 33  0  0  0  0  0  0  0  0999 V2000
   16.6046   -8.4143   13.1055 C   0  0  0  0  0  0  0  0  0  0  0  0
   17.8089   -7.6765   12.9210 O   0  0  0  0  0  0  0  0  0  0  0  0
   18.5869   -7.5765   14.0593 C   0  0  0  0  0  0  0  0  0  0  0  0
   19.9625   -7.3503   13.8689 C   0  0  0  0  0  0  0  0  0  0  0  0
   20.8984   -7.2629   14.9408 C   0  0  0  0  0  0  0  0  0  0  0  0
   20.5716   -7.3587   16.3240 C   0  0  0  0  0  0  0  0  0  0  0  0
   21.6471   -7.4511   17.3751 C   0  0  1  0  0  0  0  0  0  0  0  0
   22.4076   -8.6095   17.0962 O   0  0  0  0  0  0  0  0  0  0  0  0
   22.6165   -6.3637   17.3989 N   0  0  0  0  0  0  0  0  0  0  0  0
   22.2350   -5.3348   18.3658 C   0  0  1  0  0  0  0  0  0  0  0  0
   23.2853   -4.2487   18.5675 C   0  0  0  0  0  0  0  0  0  0  0  0
   22.5031   -3.1424   19.2971 C   0  0  0  0  0  0  0  0  0  0  0  0
   21.0795   -3.2893   18.8940 N   0  0  0  0  0  0  0  0  0  0  0  0
   20.2285   -3.6430   19.9740 C   0  0  0  0  0  0  0  0  0  0  0  0
   20.6984   -4.5695   20.8416 N   0  0  0  0  0  0  0  0  0  0  0  0
   19.8765   -5.1259   21.7538 C   0  0  0  0  0  0  0  0  0  0  0  0
   20.5100   -6.1537   22.6500 C   0  0  0  0  0  0  0  0  0  0  0  0
   18.5373   -4.7796   21.8461 C   0  0  0  0  0  0  0  0  0  0  0  0
   17.7160   -5.4210   22.8200 C   0  0  0  0  0  0  0  0  0  0  0  0
   17.0993   -6.0577   23.5695 N   0  0  0  0  0  0  0  0  0  0  0  0
   18.0461   -3.7986   20.9883 C   0  0  0  0  0  0  0  0  0  0  0  0
   18.9022   -3.2046   20.0593 C   0  0  0  0  0  0  0  0  0  0  0  0
   18.2960   -1.8780   19.1643 Cl  0  0  0  0  0  0  0  0  0  0  0  0
   21.0374   -4.4557   17.9727 C   0  0  0  0  0  0  0  0  0  0  0  0
   19.1790   -7.5050   16.4781 C   0  0  0  0  0  0  0  0  0  0  0  0
   18.4871   -7.5834   17.6601 C   0  0  0  0  0  0  0  0  0  0  0  0
   17.1791   -7.7328   17.2992 N   0  0  0  0  0  0  0  0  0  0  0  0
   16.0433   -7.8284   18.1851 C   0  0  0  0  0  0  0  0  0  0  0  0
   16.9738   -7.8157   15.9743 N   0  0  0  0  0  0  0  0  0  0  0  0
   18.1886   -7.6322   15.4183 C   0  0  0  0  0  0  0  0  0  0  0  0
  1  2  1  0
  2  3  1  0
  3  4  2  0
  4  5  1  0
  5  6  2  0
  6  7  1  0
  7  8  1  6
  7  9  1  0
 10  9  1  6
 10 11  1  0
 11 12  1  0
 12 13  1  0
 13 14  1  0
 14 15  2  0
 15 16  1  0
 16 17  1  0
 16 18  2  0
 18 19  1  0
 19 20  3  0
 18 21  1  0
 21 22  2  0
 22 23  1  0
 13 24  1  0
  6 25  1  0
 25 26  2  0
 26 27  1  0
 27 28  1  0
 27 29  1  0
 29 30  2  0
 30  3  1  0
 24 10  1  0
 30 25  1  0
 22 14  1  0
M  END
>  <energy_score>  (4639) 
-48.010184

>  <inchikey>  (4639) 
FVGRZGDYANFRHP-UHFFFAOYSA-N

>  <smiles>  (4639) 
COc1ccc(C(O)NC2CCN(c3nc(C)c(C#N)cc3Cl)C2)c2cn(C)nc12

>  <ref_pdb>  (4639) 
A3181a

>  <alias>  (4639) 
FVGRZGDYANFRHP-UHFFFAOYSA-N-P12-P12-P103-601509

>  <HIPPO Pose ID>  (4639) 
516200

>  <name>  (4639) 
FVGRZGDYANFRHP-UHFFFAOYSA-N-P12-P12-P103-601509

>  <HIPPO Compound ID>  (4639) 
293486

>  <ref_mols>  (4639) 
A0497a,A1105b

>  <distance_score>  (4639) 
1.590684

>  <inspiration_score>  (4639) 
None

$$$$
FVGRZGDYANFRHP-UHFFFAOYSA-N-P103-P12-P103-601509
     RDKit          3D

 30 33  0  0  0  0  0  0  0  0999 V2000
   16.6638   -9.5295   13.4373 C   0  0  0  0  0  0  0  0  0  0  0  0
   17.7058   -8.6544   13.0154 O   0  0  0  0  0  0  0  0  0  0  0  0
   18.5097   -8.2171   14.0515 C   0  0  0  0  0  0  0  0  0  0  0  0
   19.8462   -7.9120   13.7362 C   0  0  0  0  0  0  0  0  0  0  0  0
   20.7990   -7.4859   14.7042 C   0  0  0  0  0  0  0  0  0  0  0  0
   20.5279   -7.2881   16.0879 C   0  0  0  0  0  0  0  0  0  0  0  0
   21.6431   -6.9900   17.0510 C   0  0  1  0  0  0  0  0  0  0  0  0
   22.5858   -8.0389   16.9544 O   0  0  0  0  0  0  0  0  0  0  0  0
   22.3998   -5.7785   16.7691 N   0  0  0  0  0  0  0  0  0  0  0  0
   21.8825   -4.6519   17.5389 C   0  0  1  0  0  0  0  0  0  0  0  0
   22.7420   -3.3948   17.4567 C   0  0  0  0  0  0  0  0  0  0  0  0
   21.8125   -2.3001   18.0103 C   0  0  0  0  0  0  0  0  0  0  0  0
   20.4292   -2.8234   17.8918 N   0  0  0  0  0  0  0  0  0  0  0  0
   19.7946   -3.1409   19.1159 C   0  0  0  0  0  0  0  0  0  0  0  0
   20.5646   -3.3688   20.2109 N   0  0  0  0  0  0  0  0  0  0  0  0
   20.0060   -3.8635   21.3452 C   0  0  0  0  0  0  0  0  0  0  0  0
   20.9623   -4.1836   22.4588 C   0  0  0  0  0  0  0  0  0  0  0  0
   18.6425   -4.0756   21.4624 C   0  0  0  0  0  0  0  0  0  0  0  0
   18.0720   -4.7200   22.6025 C   0  0  0  0  0  0  0  0  0  0  0  0
   17.6079   -5.3540   23.4572 N   0  0  0  0  0  0  0  0  0  0  0  0
   17.8423   -3.7272   20.3857 C   0  0  0  0  0  0  0  0  0  0  0  0
   18.4126   -3.3420   19.1833 C   0  0  0  0  0  0  0  0  0  0  0  0
   17.3514   -3.2918   17.8392 Cl  0  0  0  0  0  0  0  0  0  0  0  0
   20.5270   -4.0687   17.1009 C   0  0  0  0  0  0  0  0  0  0  0  0
   19.1652   -7.5247   16.3523 C   0  0  0  0  0  0  0  0  0  0  0  0
   18.5212   -7.3828   17.5552 C   0  0  0  0  0  0  0  0  0  0  0  0
   17.2187   -7.7066   17.3014 N   0  0  0  0  0  0  0  0  0  0  0  0
   16.1174   -7.6430   18.2325 C   0  0  0  0  0  0  0  0  0  0  0  0
   16.9884   -8.1421   16.0516 N   0  0  0  0  0  0  0  0  0  0  0  0
   18.1604   -7.9851   15.4052 C   0  0  0  0  0  0  0  0  0  0  0  0
  1  2  1  0
  2  3  1  0
  3  4  2  0
  4  5  1  0
  5  6  2  0
  6  7  1  0
  7  8  1  6
  7  9  1  0
 10  9  1  6
 10 11  1  0
 11 12  1  0
 12 13  1  0
 13 14  1  0
 14 15  2  0
 15 16  1  0
 16 17  1  0
 16 18  2  0
 18 19  1  0
 19 20  3  0
 18 21  1  0
 21 22  2  0
 22 23  1  0
 13 24  1  0
  6 25  1  0
 25 26  2  0
 26 27  1  0
 27 28  1  0
 27 29  1  0
 29 30  2  0
 30  3  1  0
 24 10  1  0
 30 25  1  0
 22 14  1  0
M  END
>  <energy_score>  (4640) 
-47.33311

>  <inchikey>  (4640) 
FVGRZGDYANFRHP-UHFFFAOYSA-N

>  <smiles>  (4640) 
COc1ccc(C(O)NC2CCN(c3nc(C)c(C#N)cc3Cl)C2)c2cn(C)nc12

>  <ref_pdb>  (4640) 
A3181a

>  <alias>  (4640) 
FVGRZGDYANFRHP-UHFFFAOYSA-N-P103-P12-P103-601509

>  <HIPPO Pose ID>  (4640) 
516201

>  <name>  (4640) 
FVGRZGDYANFRHP-UHFFFAOYSA-N-P103-P12-P103-601509

>  <HIPPO Compound ID>  (4640) 
293486

>  <ref_mols>  (4640) 
A0497a,A1105b

>  <distance_score>  (4640) 
1.349331

>  <inspiration_score>  (4640) 
None

$$$$
PYBMSLFSJHCZHU-UHFFFAOYSA-N-P12-P12-P103-601509
     RDKit          3D

 30 33  0  0  0  0  0  0  0  0999 V2000
   18.0090   -2.5621   20.0989 C   0  0  0  0  0  0  0  0  0  0  0  0
   18.0783   -3.3185   18.9183 O   0  0  0  0  0  0  0  0  0  0  0  0
   17.8021   -4.7198   18.9408 C   0  0  1  0  0  0  0  0  0  0  0  0
   18.1564   -5.3703   20.2047 N   0  0  0  0  0  0  0  0  0  0  0  0
   19.5978   -5.6555   20.3681 C   0  0  2  0  0  0  0  0  0  0  0  0
   20.6458   -4.7025   19.7507 C   0  0  0  0  0  0  0  0  0  0  0  0
   21.7278   -5.6358   19.2110 C   0  0  0  0  0  0  0  0  0  0  0  0
   20.9973   -6.8244   18.7729 N   0  0  0  0  0  0  0  0  0  0  0  0
   20.4546   -7.0379   17.5066 C   0  0  0  0  0  0  0  0  0  0  0  0
   19.6185   -8.1160   17.4372 N   0  0  0  0  0  0  0  0  0  0  0  0
   18.9059   -8.3987   16.3263 C   0  0  0  0  0  0  0  0  0  0  0  0
   18.9762   -7.6469   15.1896 C   0  0  0  0  0  0  0  0  0  0  0  0
   18.1214   -7.9635   14.0108 C   0  0  0  0  0  0  0  0  0  0  0  0
   18.2684   -7.0823   12.9771 F   0  0  0  0  0  0  0  0  0  0  0  0
   18.3908   -9.1898   13.4813 F   0  0  0  0  0  0  0  0  0  0  0  0
   16.7878   -7.9659   14.2901 F   0  0  0  0  0  0  0  0  0  0  0  0
   19.9268   -6.6331   15.1877 C   0  0  0  0  0  0  0  0  0  0  0  0
   20.6786   -6.3185   16.3313 C   0  0  0  0  0  0  0  0  0  0  0  0
   21.8211   -5.0450   16.1052 Cl  0  0  0  0  0  0  0  0  0  0  0  0
   20.0293   -7.0704   19.8655 C   0  0  0  0  0  0  0  0  0  0  0  0
   16.3724   -5.0148   18.4646 C   0  0  0  0  0  0  0  0  0  0  0  0
   15.4216   -3.9699   18.2830 C   0  0  0  0  0  0  0  0  0  0  0  0
   14.1776   -4.1892   17.6871 C   0  0  0  0  0  0  0  0  0  0  0  0
   13.7982   -5.4523   17.2507 C   0  0  0  0  0  0  0  0  0  0  0  0
   14.6808   -6.5040   17.4923 C   0  0  0  0  0  0  0  0  0  0  0  0
   15.9283   -6.3191   18.0879 C   0  0  0  0  0  0  0  0  0  0  0  0
   16.4337   -7.6330   18.1954 C   0  0  0  0  0  0  0  0  0  0  0  0
   15.6394   -8.5641   17.6607 N   0  0  0  0  0  0  0  0  0  0  0  0
   14.5738   -7.8511   17.2550 N   0  0  0  0  0  0  0  0  0  0  0  0
   13.4447   -8.5331   16.6712 C   0  0  0  0  0  0  0  0  0  0  0  0
  1  2  1  0
  2  3  1  0
  3  4  1  1
  5  4  1  6
  5  6  1  0
  6  7  1  0
  7  8  1  0
  8  9  1  0
  9 10  2  0
 10 11  1  0
 11 12  2  0
 12 13  1  0
 13 14  1  0
 13 15  1  0
 13 16  1  0
 12 17  1  0
 17 18  2  0
 18 19  1  0
  8 20  1  0
  3 21  1  0
 21 22  2  0
 22 23  1  0
 23 24  2  0
 24 25  1  0
 25 26  2  0
 26 27  1  0
 27 28  2  0
 28 29  1  0
 29 30  1  0
 20  5  1  0
 26 21  1  0
 18  9  1  0
 29 25  1  0
M  END
>  <energy_score>  (4641) 
-24.14827

>  <inchikey>  (4641) 
PYBMSLFSJHCZHU-UHFFFAOYSA-N

>  <smiles>  (4641) 
COC(NC1CCN(c2ncc(C(F)(F)F)cc2Cl)C1)c1cccc2c1cnn2C

>  <ref_pdb>  (4641) 
A3181a

>  <alias>  (4641) 
PYBMSLFSJHCZHU-UHFFFAOYSA-N-P12-P12-P103-601509

>  <HIPPO Pose ID>  (4641) 
516202

>  <name>  (4641) 
PYBMSLFSJHCZHU-UHFFFAOYSA-N-P12-P12-P103-601509

>  <HIPPO Compound ID>  (4641) 
293487

>  <ref_mols>  (4641) 
A0497a,A1105b

>  <distance_score>  (4641) 
1.762359

>  <inspiration_score>  (4641) 
None

$$$$
PYBMSLFSJHCZHU-UHFFFAOYSA-N-P103-P12-P103-601509
     RDKit          3D

 30 33  0  0  0  0  0  0  0  0999 V2000
   18.8386   -2.9045   17.6849 C   0  0  0  0  0  0  0  0  0  0  0  0
   18.2712   -3.4569   18.8526 O   0  0  0  0  0  0  0  0  0  0  0  0
   17.9343   -4.8296   18.7255 C   0  0  1  0  0  0  0  0  0  0  0  0
   18.0864   -5.3628   20.0776 N   0  0  0  0  0  0  0  0  0  0  0  0
   19.4436   -5.7592   20.5004 C   0  0  2  0  0  0  0  0  0  0  0  0
   20.5871   -4.7658   20.3098 C   0  0  0  0  0  0  0  0  0  0  0  0
   21.2465   -5.1542   18.9794 C   0  0  0  0  0  0  0  0  0  0  0  0
   20.8389   -6.5390   18.6972 N   0  0  0  0  0  0  0  0  0  0  0  0
   20.4357   -6.9393   17.4220 C   0  0  0  0  0  0  0  0  0  0  0  0
   19.5241   -7.9474   17.3788 N   0  0  0  0  0  0  0  0  0  0  0  0
   18.9698   -8.3539   16.2186 C   0  0  0  0  0  0  0  0  0  0  0  0
   19.2799   -7.7955   15.0105 C   0  0  0  0  0  0  0  0  0  0  0  0
   18.6528   -8.3230   13.7633 C   0  0  0  0  0  0  0  0  0  0  0  0
   18.8651   -9.6606   13.6016 F   0  0  0  0  0  0  0  0  0  0  0  0
   19.1287   -7.7471   12.6206 F   0  0  0  0  0  0  0  0  0  0  0  0
   17.3013   -8.1616   13.7169 F   0  0  0  0  0  0  0  0  0  0  0  0
   20.2635   -6.8091   15.0159 C   0  0  0  0  0  0  0  0  0  0  0  0
   20.8749   -6.3997   16.2091 C   0  0  0  0  0  0  0  0  0  0  0  0
   22.2076   -5.3093   16.0387 Cl  0  0  0  0  0  0  0  0  0  0  0  0
   20.0343   -7.0262   19.8348 C   0  0  0  0  0  0  0  0  0  0  0  0
   16.5183   -5.0425   18.1881 C   0  0  0  0  0  0  0  0  0  0  0  0
   15.6416   -3.9579   17.9503 C   0  0  0  0  0  0  0  0  0  0  0  0
   14.3640   -4.1314   17.4190 C   0  0  0  0  0  0  0  0  0  0  0  0
   13.8838   -5.3963   17.1073 C   0  0  0  0  0  0  0  0  0  0  0  0
   14.7089   -6.4855   17.3861 C   0  0  0  0  0  0  0  0  0  0  0  0
   15.9878   -6.3352   17.9189 C   0  0  0  0  0  0  0  0  0  0  0  0
   16.4160   -7.6664   18.1239 C   0  0  0  0  0  0  0  0  0  0  0  0
   15.5584   -8.5835   17.6693 N   0  0  0  0  0  0  0  0  0  0  0  0
   14.5112   -7.8387   17.2699 N   0  0  0  0  0  0  0  0  0  0  0  0
   13.3194   -8.5065   16.8093 C   0  0  0  0  0  0  0  0  0  0  0  0
  1  2  1  0
  2  3  1  0
  3  4  1  1
  5  4  1  6
  5  6  1  0
  6  7  1  0
  7  8  1  0
  8  9  1  0
  9 10  2  0
 10 11  1  0
 11 12  2  0
 12 13  1  0
 13 14  1  0
 13 15  1  0
 13 16  1  0
 12 17  1  0
 17 18  2  0
 18 19  1  0
  8 20  1  0
  3 21  1  0
 21 22  2  0
 22 23  1  0
 23 24  2  0
 24 25  1  0
 25 26  2  0
 26 27  1  0
 27 28  2  0
 28 29  1  0
 29 30  1  0
 20  5  1  0
 26 21  1  0
 18  9  1  0
 29 25  1  0
M  END
>  <energy_score>  (4642) 
-39.834863

>  <inchikey>  (4642) 
PYBMSLFSJHCZHU-UHFFFAOYSA-N

>  <smiles>  (4642) 
COC(NC1CCN(c2ncc(C(F)(F)F)cc2Cl)C1)c1cccc2c1cnn2C

>  <ref_pdb>  (4642) 
A3181a

>  <alias>  (4642) 
PYBMSLFSJHCZHU-UHFFFAOYSA-N-P103-P12-P103-601509

>  <HIPPO Pose ID>  (4642) 
516203

>  <name>  (4642) 
PYBMSLFSJHCZHU-UHFFFAOYSA-N-P103-P12-P103-601509

>  <HIPPO Compound ID>  (4642) 
293487

>  <ref_mols>  (4642) 
A0497a,A1105b

>  <distance_score>  (4642) 
1.691934

>  <inspiration_score>  (4642) 
None

$$$$
OJLCZGRPBZWCAE-UHFFFAOYSA-N-P12-P12-P103-601509
     RDKit          3D

 30 34  0  0  0  0  0  0  0  0999 V2000
   16.2262  -10.0036   13.3587 C   0  0  0  0  0  0  0  0  0  0  0  0
   17.2606   -9.0443   13.7847 C   0  0  0  0  0  0  0  0  0  0  0  0
   17.7542   -8.1088   12.9637 N   0  0  0  0  0  0  0  0  0  0  0  0
   18.6868   -7.4479   13.7699 O   0  0  0  0  0  0  0  0  0  0  0  0
   18.6403   -8.0459   14.9996 C   0  0  0  0  0  0  0  0  0  0  0  0
   19.4859   -7.4828   16.0323 C   0  0  0  0  0  0  0  0  0  0  0  0
   20.3981   -6.4597   15.8054 C   0  0  0  0  0  0  0  0  0  0  0  0
   21.0548   -5.8617   16.8823 C   0  0  0  0  0  0  0  0  0  0  0  0
   20.7510   -6.2456   18.1914 C   0  0  0  0  0  0  0  0  0  0  0  0
   21.1794   -5.4646   19.2962 N   0  0  0  0  0  0  0  0  0  0  0  0
   21.0309   -3.9945   19.0820 C   0  0  0  0  0  0  0  0  0  0  0  0
   20.2006   -3.4789   20.2565 C   0  0  0  0  0  0  0  0  0  0  0  0
   19.3322   -4.6758   20.6202 C   0  0  1  0  0  0  0  0  0  0  0  0
   18.2646   -5.0427   19.6815 N   0  0  0  0  0  0  0  0  0  0  0  0
   17.2608   -4.0779   19.3401 C   0  0  1  0  0  0  0  0  0  0  0  0
   17.8226   -2.9833   18.6614 O   0  0  0  0  0  0  0  0  0  0  0  0
   16.1052   -4.6538   18.4995 C   0  0  0  0  0  0  0  0  0  0  0  0
   15.0868   -3.7380   18.1324 C   0  0  0  0  0  0  0  0  0  0  0  0
   13.9510   -4.1250   17.4282 C   0  0  0  0  0  0  0  0  0  0  0  0
   13.7377   -5.4475   17.0669 C   0  0  0  0  0  0  0  0  0  0  0  0
   14.7009   -6.3782   17.4502 C   0  0  0  0  0  0  0  0  0  0  0  0
   15.8654   -6.0236   18.1369 C   0  0  0  0  0  0  0  0  0  0  0  0
   16.4753   -7.2794   18.3785 C   0  0  0  0  0  0  0  0  0  0  0  0
   15.8080   -8.3191   17.8763 N   0  0  0  0  0  0  0  0  0  0  0  0
   14.7411   -7.7422   17.3051 N   0  0  0  0  0  0  0  0  0  0  0  0
   13.7412   -8.5681   16.6739 C   0  0  0  0  0  0  0  0  0  0  0  0
   20.4371   -5.7759   20.5470 C   0  0  0  0  0  0  0  0  0  0  0  0
   20.0168   -7.3626   18.3981 N   0  0  0  0  0  0  0  0  0  0  0  0
   19.4029   -7.9411   17.3324 C   0  0  0  0  0  0  0  0  0  0  0  0
   17.7791   -9.0390   15.0504 N   0  0  0  0  0  0  0  0  0  0  0  0
  1  2  1  0
  2  3  2  0
  3  4  1  0
  4  5  1  0
  5  6  1  0
  6  7  2  0
  7  8  1  0
  8  9  2  0
  9 10  1  0
 10 11  1  0
 11 12  1  0
 12 13  1  0
 13 14  1  6
 14 15  1  0
 15 16  1  6
 15 17  1  0
 17 18  2  0
 18 19  1  0
 19 20  2  0
 20 21  1  0
 21 22  2  0
 22 23  1  0
 23 24  2  0
 24 25  1  0
 25 26  1  0
 13 27  1  0
  9 28  1  0
 28 29  2  0
  5 30  2  0
 30  2  1  0
 29  6  1  0
 27 10  1  0
 22 17  1  0
 25 21  1  0
M  END
>  <energy_score>  (4643) 
-26.18524

>  <inchikey>  (4643) 
OJLCZGRPBZWCAE-UHFFFAOYSA-N

>  <smiles>  (4643) 
Cc1noc(-c2ccc(N3CCC(NC(O)c4cccc5c4cnn5C)C3)nc2)n1

>  <ref_pdb>  (4643) 
A3181a

>  <alias>  (4643) 
OJLCZGRPBZWCAE-UHFFFAOYSA-N-P12-P12-P103-601509

>  <HIPPO Pose ID>  (4643) 
516204

>  <name>  (4643) 
OJLCZGRPBZWCAE-UHFFFAOYSA-N-P12-P12-P103-601509

>  <HIPPO Compound ID>  (4643) 
293488

>  <ref_mols>  (4643) 
A0497a,A1105b

>  <distance_score>  (4643) 
1.440039

>  <inspiration_score>  (4643) 
None

$$$$
LWWUVBOYZPHRRG-UHFFFAOYSA-N-P12-P12-P103-601509
     RDKit          3D

 30 33  0  0  0  0  0  0  0  0999 V2000
   17.3328   -8.9693   18.7302 C   0  0  0  0  0  0  0  0  0  0  0  0
   17.5675   -8.5720   17.3183 C   0  0  0  0  0  0  0  0  0  0  0  0
   18.6316   -8.0096   16.6315 C   0  0  0  0  0  0  0  0  0  0  0  0
   19.9261   -7.6791   17.1064 C   0  0  0  0  0  0  0  0  0  0  0  0
   20.5219   -7.9374   18.4722 C   0  0  1  0  0  0  0  0  0  0  0  0
   21.8980   -7.6261   18.5512 O   0  0  0  0  0  0  0  0  0  0  0  0
   19.8238   -7.3459   19.6006 N   0  0  0  0  0  0  0  0  0  0  0  0
   20.1582   -5.9646   19.9568 C   0  0  2  0  0  0  0  0  0  0  0  0
   19.2842   -5.6148   21.1784 C   0  0  0  0  0  0  0  0  0  0  0  0
   18.8539   -4.1806   20.9554 C   0  0  0  0  0  0  0  0  0  0  0  0
   18.7627   -4.0592   19.5057 N   0  0  0  0  0  0  0  0  0  0  0  0
   17.4730   -4.3061   18.9875 C   0  0  0  0  0  0  0  0  0  0  0  0
   17.1089   -5.5520   18.5722 N   0  0  0  0  0  0  0  0  0  0  0  0
   15.8478   -5.7382   18.0973 C   0  0  0  0  0  0  0  0  0  0  0  0
   14.8936   -4.7451   18.0339 C   0  0  0  0  0  0  0  0  0  0  0  0
   13.5209   -5.0431   17.5656 C   0  0  0  0  0  0  0  0  0  0  0  0
   13.1861   -6.3576   17.6966 F   0  0  0  0  0  0  0  0  0  0  0  0
   12.5853   -4.3131   18.2158 F   0  0  0  0  0  0  0  0  0  0  0  0
   13.3774   -4.7711   16.2472 F   0  0  0  0  0  0  0  0  0  0  0  0
   15.2718   -3.4733   18.4537 C   0  0  0  0  0  0  0  0  0  0  0  0
   16.5544   -3.2502   18.9528 C   0  0  0  0  0  0  0  0  0  0  0  0
   16.9658   -1.7005   19.6198 Cl  0  0  0  0  0  0  0  0  0  0  0  0
   19.8129   -4.8870   18.9095 C   0  0  0  0  0  0  0  0  0  0  0  0
   20.7158   -7.1432   16.0416 C   0  0  0  0  0  0  0  0  0  0  0  0
   20.2833   -6.9789   14.6934 C   0  0  0  0  0  0  0  0  0  0  0  0
   18.9997   -7.3338   14.2551 C   0  0  0  0  0  0  0  0  0  0  0  0
   18.1719   -7.8494   15.2623 C   0  0  0  0  0  0  0  0  0  0  0  0
   16.9080   -8.2790   15.1483 N   0  0  0  0  0  0  0  0  0  0  0  0
   16.5860   -8.7325   16.3656 N   0  0  0  0  0  0  0  0  0  0  0  0
   15.2855   -9.3475   16.5319 C   0  0  0  0  0  0  0  0  0  0  0  0
  1  2  1  0
  2  3  2  0
  3  4  1  0
  4  5  1  0
  5  6  1  6
  5  7  1  0
  8  7  1  6
  8  9  1  0
  9 10  1  0
 10 11  1  0
 11 12  1  0
 12 13  2  0
 13 14  1  0
 14 15  2  0
 15 16  1  0
 16 17  1  0
 16 18  1  0
 16 19  1  0
 15 20  1  0
 20 21  2  0
 21 22  1  0
 11 23  1  0
  4 24  2  0
 24 25  1  0
 25 26  2  0
 26 27  1  0
 27 28  2  0
 28 29  1  0
 29 30  1  0
 29  2  1  0
 27  3  1  0
 23  8  1  0
 21 12  1  0
M  END
>  <energy_score>  (4644) 
-51.292371

>  <inchikey>  (4644) 
LWWUVBOYZPHRRG-UHFFFAOYSA-N

>  <smiles>  (4644) 
Cc1c2c(C(O)NC3CCN(c4ncc(C(F)(F)F)cc4Cl)C3)cccc2nn1C

>  <ref_pdb>  (4644) 
A3181a

>  <alias>  (4644) 
LWWUVBOYZPHRRG-UHFFFAOYSA-N-P12-P12-P103-601509

>  <HIPPO Pose ID>  (4644) 
516206

>  <name>  (4644) 
LWWUVBOYZPHRRG-UHFFFAOYSA-N-P12-P12-P103-601509

>  <HIPPO Compound ID>  (4644) 
293489

>  <ref_mols>  (4644) 
A0497a,A1105b

>  <distance_score>  (4644) 
1.994879

>  <inspiration_score>  (4644) 
None

$$$$
LWWUVBOYZPHRRG-UHFFFAOYSA-N-P103-P12-P103-601509
     RDKit          3D

 30 33  0  0  0  0  0  0  0  0999 V2000
   18.5493   -8.6259   19.2090 C   0  0  0  0  0  0  0  0  0  0  0  0
   18.5866   -8.7095   17.7230 C   0  0  0  0  0  0  0  0  0  0  0  0
   19.2963   -8.0574   16.7247 C   0  0  0  0  0  0  0  0  0  0  0  0
   20.3629   -7.1289   16.8437 C   0  0  0  0  0  0  0  0  0  0  0  0
   21.0481   -6.6463   18.1037 C   0  0  1  0  0  0  0  0  0  0  0  0
   22.1939   -5.8516   17.8585 O   0  0  0  0  0  0  0  0  0  0  0  0
   20.1658   -6.0054   19.0614 N   0  0  0  0  0  0  0  0  0  0  0  0
   19.9392   -4.5672   18.9658 C   0  0  2  0  0  0  0  0  0  0  0  0
   19.0832   -4.2044   20.1953 C   0  0  0  0  0  0  0  0  0  0  0  0
   17.9646   -3.3309   19.6653 C   0  0  0  0  0  0  0  0  0  0  0  0
   17.7884   -3.7538   18.2799 N   0  0  0  0  0  0  0  0  0  0  0  0
   16.7485   -4.6551   18.0130 C   0  0  0  0  0  0  0  0  0  0  0  0
   17.0051   -5.9355   17.7252 N   0  0  0  0  0  0  0  0  0  0  0  0
   15.9604   -6.7312   17.3812 C   0  0  0  0  0  0  0  0  0  0  0  0
   14.6305   -6.3787   17.3533 C   0  0  0  0  0  0  0  0  0  0  0  0
   13.6212   -7.4269   17.0345 C   0  0  0  0  0  0  0  0  0  0  0  0
   12.8429   -7.7657   18.0938 F   0  0  0  0  0  0  0  0  0  0  0  0
   12.7860   -7.0621   16.0293 F   0  0  0  0  0  0  0  0  0  0  0  0
   14.1750   -8.6057   16.6198 F   0  0  0  0  0  0  0  0  0  0  0  0
   14.3517   -5.0624   17.6621 C   0  0  0  0  0  0  0  0  0  0  0  0
   15.4176   -4.2228   18.0019 C   0  0  0  0  0  0  0  0  0  0  0  0
   15.0845   -2.6413   18.4693 Cl  0  0  0  0  0  0  0  0  0  0  0  0
   19.1041   -4.1052   17.7504 C   0  0  0  0  0  0  0  0  0  0  0  0
   20.8171   -6.7392   15.5453 C   0  0  0  0  0  0  0  0  0  0  0  0
   20.2653   -7.1831   14.3087 C   0  0  0  0  0  0  0  0  0  0  0  0
   19.1901   -8.0781   14.2268 C   0  0  0  0  0  0  0  0  0  0  0  0
   18.7209   -8.5200   15.4706 C   0  0  0  0  0  0  0  0  0  0  0  0
   17.7402   -9.4001   15.7119 N   0  0  0  0  0  0  0  0  0  0  0  0
   17.7488   -9.5674   17.0424 N   0  0  0  0  0  0  0  0  0  0  0  0
   16.8447  -10.5462   17.6092 C   0  0  0  0  0  0  0  0  0  0  0  0
  1  2  1  0
  2  3  2  0
  3  4  1  0
  4  5  1  0
  5  6  1  6
  5  7  1  0
  8  7  1  6
  8  9  1  0
  9 10  1  0
 10 11  1  0
 11 12  1  0
 12 13  2  0
 13 14  1  0
 14 15  2  0
 15 16  1  0
 16 17  1  0
 16 18  1  0
 16 19  1  0
 15 20  1  0
 20 21  2  0
 21 22  1  0
 11 23  1  0
  4 24  2  0
 24 25  1  0
 25 26  2  0
 26 27  1  0
 27 28  2  0
 28 29  1  0
 29 30  1  0
 29  2  1  0
 27  3  1  0
 23  8  1  0
 21 12  1  0
M  END
>  <energy_score>  (4645) 
-38.944318

>  <inchikey>  (4645) 
LWWUVBOYZPHRRG-UHFFFAOYSA-N

>  <smiles>  (4645) 
Cc1c2c(C(O)NC3CCN(c4ncc(C(F)(F)F)cc4Cl)C3)cccc2nn1C

>  <ref_pdb>  (4645) 
A3181a

>  <alias>  (4645) 
LWWUVBOYZPHRRG-UHFFFAOYSA-N-P103-P12-P103-601509

>  <HIPPO Pose ID>  (4645) 
516207

>  <name>  (4645) 
LWWUVBOYZPHRRG-UHFFFAOYSA-N-P103-P12-P103-601509

>  <HIPPO Compound ID>  (4645) 
293489

>  <ref_mols>  (4645) 
A0497a,A1105b

>  <distance_score>  (4645) 
1.770227

>  <inspiration_score>  (4645) 
None

$$$$
RTELVHUAVIDMGR-UHFFFAOYSA-N-P103-P12-P103-601509
     RDKit          3D

 30 34  0  0  0  0  0  0  0  0999 V2000
   19.2860  -11.2095   12.2533 C   0  0  0  0  0  0  0  0  0  0  0  0
   18.9409  -10.1986   13.2694 C   0  0  0  0  0  0  0  0  0  0  0  0
   17.7286  -10.1364   13.8332 N   0  0  0  0  0  0  0  0  0  0  0  0
   17.8445   -9.0556   14.7114 O   0  0  0  0  0  0  0  0  0  0  0  0
   19.1249   -8.5809   14.5813 C   0  0  0  0  0  0  0  0  0  0  0  0
   19.4937   -7.4479   15.3961 C   0  0  0  0  0  0  0  0  0  0  0  0
   20.7925   -6.9475   15.4682 C   0  0  0  0  0  0  0  0  0  0  0  0
   21.0664   -5.7971   16.2207 C   0  0  0  0  0  0  0  0  0  0  0  0
   20.0429   -5.1729   16.9212 C   0  0  0  0  0  0  0  0  0  0  0  0
   20.2427   -3.9947   17.6391 N   0  0  0  0  0  0  0  0  0  0  0  0
   21.2318   -4.0124   18.7072 C   0  0  0  0  0  0  0  0  0  0  0  0
   20.4442   -4.2587   19.9913 C   0  0  0  0  0  0  0  0  0  0  0  0
   19.0144   -3.7838   19.6955 C   0  0  2  0  0  0  0  0  0  0  0  0
   17.9988   -4.7109   20.2212 N   0  0  0  0  0  0  0  0  0  0  0  0
   17.9244   -6.0176   19.5490 C   0  0  0  0  0  0  0  0  0  0  0  0
   16.7231   -6.2417   18.6638 C   0  0  0  0  0  0  0  0  0  0  0  0
   15.9241   -5.1967   18.1325 C   0  0  0  0  0  0  0  0  0  0  0  0
   14.6996   -5.3916   17.4393 C   0  0  0  0  0  0  0  0  0  0  0  0
   13.7976   -3.8408   16.9277 Br  0  0  0  0  0  0  0  0  0  0  0  0
   14.1423   -6.6373   17.1235 C   0  0  0  0  0  0  0  0  0  0  0  0
   14.9348   -7.6997   17.5647 C   0  0  0  0  0  0  0  0  0  0  0  0
   14.7556   -9.0217   17.3954 N   0  0  0  0  0  0  0  0  0  0  0  0
   15.8024   -9.5931   18.0200 N   0  0  0  0  0  0  0  0  0  0  0  0
   15.9214  -11.0310   18.0071 C   0  0  0  0  0  0  0  0  0  0  0  0
   16.6702   -8.7107   18.5944 C   0  0  0  0  0  0  0  0  0  0  0  0
   16.1561   -7.4736   18.3073 C   0  0  0  0  0  0  0  0  0  0  0  0
   19.0262   -3.3906   18.1958 C   0  0  0  0  0  0  0  0  0  0  0  0
   18.8062   -5.6910   16.8641 N   0  0  0  0  0  0  0  0  0  0  0  0
   18.5438   -6.7660   16.1050 C   0  0  0  0  0  0  0  0  0  0  0  0
   19.8348   -9.2560   13.7058 N   0  0  0  0  0  0  0  0  0  0  0  0
  1  2  1  0
  2  3  2  0
  3  4  1  0
  4  5  1  0
  5  6  1  0
  6  7  2  0
  7  8  1  0
  8  9  2  0
  9 10  1  0
 10 11  1  0
 11 12  1  0
 12 13  1  0
 13 14  1  6
 14 15  1  0
 15 16  1  0
 16 17  2  0
 17 18  1  0
 18 19  1  0
 18 20  2  0
 20 21  1  0
 21 22  2  0
 22 23  1  0
 23 24  1  0
 23 25  1  0
 25 26  2  0
 13 27  1  0
  9 28  1  0
 28 29  2  0
  5 30  2  0
 30  2  1  0
 29  6  1  0
 27 10  1  0
 26 16  1  0
 26 21  1  0
M  END
>  <energy_score>  (4646) 
-29.195965

>  <inchikey>  (4646) 
RTELVHUAVIDMGR-UHFFFAOYSA-N

>  <smiles>  (4646) 
Cc1noc(-c2ccc(N3CCC(NCc4cc(Br)cc5nn(C)cc45)C3)nc2)n1

>  <ref_pdb>  (4646) 
A3181a

>  <alias>  (4646) 
RTELVHUAVIDMGR-UHFFFAOYSA-N-P103-P12-P103-601509

>  <HIPPO Pose ID>  (4646) 
516209

>  <name>  (4646) 
RTELVHUAVIDMGR-UHFFFAOYSA-N-P103-P12-P103-601509

>  <HIPPO Compound ID>  (4646) 
293490

>  <ref_mols>  (4646) 
A0497a,A1105b

>  <distance_score>  (4646) 
1.853736

>  <inspiration_score>  (4646) 
None

$$$$
NEYSWYAWJRGTPM-UHFFFAOYSA-N-P12-P12-P103-601509
     RDKit          3D

 30 34  0  0  0  0  0  0  0  0999 V2000
   15.8460   -9.6105   13.0001 C   0  0  0  0  0  0  0  0  0  0  0  0
   17.0031   -8.8208   13.4596 C   0  0  0  0  0  0  0  0  0  0  0  0
   17.6722   -7.9885   12.6505 N   0  0  0  0  0  0  0  0  0  0  0  0
   18.6524   -7.4524   13.4927 O   0  0  0  0  0  0  0  0  0  0  0  0
   18.4562   -8.0087   14.7233 C   0  0  0  0  0  0  0  0  0  0  0  0
   19.2908   -7.5355   15.8039 C   0  0  0  0  0  0  0  0  0  0  0  0
   20.2726   -6.5620   15.6734 C   0  0  0  0  0  0  0  0  0  0  0  0
   20.9017   -6.0588   16.8131 C   0  0  0  0  0  0  0  0  0  0  0  0
   20.5014   -6.4907   18.0800 C   0  0  0  0  0  0  0  0  0  0  0  0
   20.9210   -5.8149   19.2365 N   0  0  0  0  0  0  0  0  0  0  0  0
   20.8811   -4.3289   19.1663 C   0  0  0  0  0  0  0  0  0  0  0  0
   20.1669   -3.8674   20.4375 C   0  0  0  0  0  0  0  0  0  0  0  0
   19.2858   -5.0504   20.8272 C   0  0  1  0  0  0  0  0  0  0  0  0
   17.9245   -5.1858   20.2742 N   0  0  0  0  0  0  0  0  0  0  0  0
   17.6745   -4.7509   18.9095 C   0  0  2  0  0  0  0  0  0  0  0  0
   17.8952   -3.3593   18.7875 O   0  0  0  0  0  0  0  0  0  0  0  0
   16.2675   -5.0609   18.4252 C   0  0  0  0  0  0  0  0  0  0  0  0
   15.2823   -4.0409   18.2132 C   0  0  0  0  0  0  0  0  0  0  0  0
   14.0297   -4.2430   17.5598 C   0  0  0  0  0  0  0  0  0  0  0  0
   13.6004   -5.4863   17.0714 C   0  0  0  0  0  0  0  0  0  0  0  0
   14.4656   -6.5417   17.3685 C   0  0  0  0  0  0  0  0  0  0  0  0
   14.3271   -7.8521   17.1014 N   0  0  0  0  0  0  0  0  0  0  0  0
   15.3765   -8.4262   17.7143 N   0  0  0  0  0  0  0  0  0  0  0  0
   15.4819   -9.8648   17.7164 C   0  0  0  0  0  0  0  0  0  0  0  0
   16.2409   -7.5443   18.2943 C   0  0  0  0  0  0  0  0  0  0  0  0
   15.7315   -6.3038   18.0273 C   0  0  0  0  0  0  0  0  0  0  0  0
   20.2420   -6.2226   20.4801 C   0  0  0  0  0  0  0  0  0  0  0  0
   19.6450   -7.5337   18.1955 N   0  0  0  0  0  0  0  0  0  0  0  0
   19.0898   -8.0364   17.0720 C   0  0  0  0  0  0  0  0  0  0  0  0
   17.4633   -8.8726   14.7487 N   0  0  0  0  0  0  0  0  0  0  0  0
  1  2  1  0
  2  3  2  0
  3  4  1  0
  4  5  1  0
  5  6  1  0
  6  7  2  0
  7  8  1  0
  8  9  2  0
  9 10  1  0
 10 11  1  0
 11 12  1  0
 12 13  1  0
 13 14  1  6
 14 15  1  0
 15 16  1  1
 15 17  1  0
 17 18  2  0
 18 19  1  0
 19 20  2  0
 20 21  1  0
 21 22  2  0
 22 23  1  0
 23 24  1  0
 23 25  1  0
 25 26  2  0
 13 27  1  0
  9 28  1  0
 28 29  2  0
  5 30  2  0
 30  2  1  0
 29  6  1  0
 27 10  1  0
 26 17  1  0
 26 21  1  0
M  END
>  <energy_score>  (4647) 
-35.014929

>  <inchikey>  (4647) 
NEYSWYAWJRGTPM-UHFFFAOYSA-N

>  <smiles>  (4647) 
Cc1noc(-c2ccc(N3CCC(NC(O)c4cccc5nn(C)cc45)C3)nc2)n1

>  <ref_pdb>  (4647) 
A3181a

>  <alias>  (4647) 
NEYSWYAWJRGTPM-UHFFFAOYSA-N-P12-P12-P103-601509

>  <HIPPO Pose ID>  (4647) 
516212

>  <name>  (4647) 
NEYSWYAWJRGTPM-UHFFFAOYSA-N-P12-P12-P103-601509

>  <HIPPO Compound ID>  (4647) 
293492

>  <ref_mols>  (4647) 
A0497a,A1105b

>  <distance_score>  (4647) 
1.425135

>  <inspiration_score>  (4647) 
None

$$$$
NEYSWYAWJRGTPM-UHFFFAOYSA-N-P103-P12-P103-601509
     RDKit          3D

 30 34  0  0  0  0  0  0  0  0999 V2000
   15.8917  -10.2347   13.2833 C   0  0  0  0  0  0  0  0  0  0  0  0
   17.0339   -9.3642   13.6170 C   0  0  0  0  0  0  0  0  0  0  0  0
   17.7308   -8.7039   12.6827 N   0  0  0  0  0  0  0  0  0  0  0  0
   18.6868   -8.0126   13.4354 O   0  0  0  0  0  0  0  0  0  0  0  0
   18.4432   -8.3099   14.7447 C   0  0  0  0  0  0  0  0  0  0  0  0
   19.2712   -7.6623   15.7368 C   0  0  0  0  0  0  0  0  0  0  0  0
   20.1792   -6.6469   15.4607 C   0  0  0  0  0  0  0  0  0  0  0  0
   20.8333   -5.9962   16.5075 C   0  0  0  0  0  0  0  0  0  0  0  0
   20.5253   -6.3219   17.8299 C   0  0  0  0  0  0  0  0  0  0  0  0
   20.9454   -5.5102   18.8935 N   0  0  0  0  0  0  0  0  0  0  0  0
   20.9133   -4.0403   18.6596 C   0  0  0  0  0  0  0  0  0  0  0  0
   20.2045   -3.4365   19.8748 C   0  0  0  0  0  0  0  0  0  0  0  0
   19.3309   -4.5668   20.4041 C   0  0  1  0  0  0  0  0  0  0  0  0
   17.9626   -4.7287   19.8765 N   0  0  0  0  0  0  0  0  0  0  0  0
   17.7372   -4.5755   18.4475 C   0  0  2  0  0  0  0  0  0  0  0  0
   18.0476   -3.2672   18.0025 O   0  0  0  0  0  0  0  0  0  0  0  0
   16.3191   -4.8965   18.0528 C   0  0  0  0  0  0  0  0  0  0  0  0
   15.3546   -3.8859   17.7982 C   0  0  0  0  0  0  0  0  0  0  0  0
   14.0631   -4.1193   17.2559 C   0  0  0  0  0  0  0  0  0  0  0  0
   13.5835   -5.3975   16.9443 C   0  0  0  0  0  0  0  0  0  0  0  0
   14.4442   -6.4406   17.2874 C   0  0  0  0  0  0  0  0  0  0  0  0
   14.2718   -7.7680   17.1613 N   0  0  0  0  0  0  0  0  0  0  0  0
   15.3505   -8.2954   17.7686 N   0  0  0  0  0  0  0  0  0  0  0  0
   15.4366   -9.7266   17.9217 C   0  0  0  0  0  0  0  0  0  0  0  0
   16.2618   -7.3741   18.1949 C   0  0  0  0  0  0  0  0  0  0  0  0
   15.7476   -6.1607   17.8314 C   0  0  0  0  0  0  0  0  0  0  0  0
   20.2770   -5.7748   20.1807 C   0  0  0  0  0  0  0  0  0  0  0  0
   19.7335   -7.3914   18.0921 N   0  0  0  0  0  0  0  0  0  0  0  0
   19.1528   -8.0365   17.0578 C   0  0  0  0  0  0  0  0  0  0  0  0
   17.4468   -9.1552   14.9062 N   0  0  0  0  0  0  0  0  0  0  0  0
  1  2  1  0
  2  3  2  0
  3  4  1  0
  4  5  1  0
  5  6  1  0
  6  7  2  0
  7  8  1  0
  8  9  2  0
  9 10  1  0
 10 11  1  0
 11 12  1  0
 12 13  1  0
 13 14  1  6
 14 15  1  0
 15 16  1  1
 15 17  1  0
 17 18  2  0
 18 19  1  0
 19 20  2  0
 20 21  1  0
 21 22  2  0
 22 23  1  0
 23 24  1  0
 23 25  1  0
 25 26  2  0
 13 27  1  0
  9 28  1  0
 28 29  2  0
  5 30  2  0
 30  2  1  0
 29  6  1  0
 27 10  1  0
 26 17  1  0
 26 21  1  0
M  END
>  <energy_score>  (4648) 
-36.706838

>  <inchikey>  (4648) 
NEYSWYAWJRGTPM-UHFFFAOYSA-N

>  <smiles>  (4648) 
Cc1noc(-c2ccc(N3CCC(NC(O)c4cccc5nn(C)cc45)C3)nc2)n1

>  <ref_pdb>  (4648) 
A3181a

>  <alias>  (4648) 
NEYSWYAWJRGTPM-UHFFFAOYSA-N-P103-P12-P103-601509

>  <HIPPO Pose ID>  (4648) 
516213

>  <name>  (4648) 
NEYSWYAWJRGTPM-UHFFFAOYSA-N-P103-P12-P103-601509

>  <HIPPO Compound ID>  (4648) 
293492

>  <ref_mols>  (4648) 
A0497a,A1105b

>  <distance_score>  (4648) 
1.430732

>  <inspiration_score>  (4648) 
None

$$$$
SYARBZXOHCWRIQ-UHFFFAOYSA-N-P12-P12-P103-601509
     RDKit          3D

 31 35  0  0  0  0  0  0  0  0999 V2000
   17.6014   -8.3713   11.2609 C   0  0  0  0  0  0  0  0  0  0  0  0
   17.8353   -8.3122   12.7153 C   0  0  0  0  0  0  0  0  0  0  0  0
   16.9936   -8.8634   13.5973 N   0  0  0  0  0  0  0  0  0  0  0  0
   17.5939   -8.5794   14.8270 O   0  0  0  0  0  0  0  0  0  0  0  0
   18.7434   -7.8868   14.5497 C   0  0  0  0  0  0  0  0  0  0  0  0
   19.5371   -7.4609   15.6803 C   0  0  0  0  0  0  0  0  0  0  0  0
   20.4313   -6.4026   15.5996 C   0  0  0  0  0  0  0  0  0  0  0  0
   21.0444   -5.9226   16.7578 C   0  0  0  0  0  0  0  0  0  0  0  0
   20.7292   -6.4863   17.9946 C   0  0  0  0  0  0  0  0  0  0  0  0
   21.0512   -5.8307   19.1950 N   0  0  0  0  0  0  0  0  0  0  0  0
   20.7707   -4.3654   19.2004 C   0  0  0  0  0  0  0  0  0  0  0  0
   19.9976   -4.0979   20.4928 C   0  0  0  0  0  0  0  0  0  0  0  0
   19.2919   -5.4215   20.7905 C   0  0  1  0  0  0  0  0  0  0  0  0
   17.9568   -5.7350   20.2188 N   0  0  0  0  0  0  0  0  0  0  0  0
   17.6486   -5.2705   18.8696 C   0  0  2  0  0  0  0  0  0  0  0  0
   17.6951   -3.8716   18.9331 O   0  0  0  0  0  0  0  0  0  0  0  0
   16.3135   -5.8168   18.3271 C   0  0  0  0  0  0  0  0  0  0  0  0
   15.1515   -5.0471   17.9638 C   0  0  0  0  0  0  0  0  0  0  0  0
   15.1000   -3.1845   18.2367 Br  0  0  0  0  0  0  0  0  0  0  0  0
   13.9452   -5.5312   17.3504 C   0  0  0  0  0  0  0  0  0  0  0  0
   13.7227   -6.8776   17.0620 C   0  0  0  0  0  0  0  0  0  0  0  0
   14.7674   -7.7001   17.4856 C   0  0  0  0  0  0  0  0  0  0  0  0
   14.8362   -9.0400   17.4278 N   0  0  0  0  0  0  0  0  0  0  0  0
   15.9918   -9.3480   18.0304 N   0  0  0  0  0  0  0  0  0  0  0  0
   16.3609  -10.7363   18.1692 C   0  0  0  0  0  0  0  0  0  0  0  0
   16.7053   -8.2660   18.4573 C   0  0  0  0  0  0  0  0  0  0  0  0
   15.9803   -7.1653   18.0849 C   0  0  0  0  0  0  0  0  0  0  0  0
   20.4239   -6.4104   20.3974 C   0  0  0  0  0  0  0  0  0  0  0  0
   20.0224   -7.6379   18.0451 N   0  0  0  0  0  0  0  0  0  0  0  0
   19.4488   -8.0873   16.9046 C   0  0  0  0  0  0  0  0  0  0  0  0
   18.9207   -7.6811   13.2633 N   0  0  0  0  0  0  0  0  0  0  0  0
  1  2  1  0
  2  3  2  0
  3  4  1  0
  4  5  1  0
  5  6  1  0
  6  7  2  0
  7  8  1  0
  8  9  2  0
  9 10  1  0
 10 11  1  0
 11 12  1  0
 12 13  1  0
 13 14  1  6
 14 15  1  0
 15 16  1  1
 15 17  1  0
 17 18  2  0
 18 19  1  0
 18 20  1  0
 20 21  2  0
 21 22  1  0
 22 23  2  0
 23 24  1  0
 24 25  1  0
 24 26  1  0
 26 27  2  0
 13 28  1  0
  9 29  1  0
 29 30  2  0
  5 31  2  0
 31  2  1  0
 30  6  1  0
 28 10  1  0
 27 17  1  0
 27 22  1  0
M  END
>  <energy_score>  (4649) 
-69.710149

>  <inchikey>  (4649) 
SYARBZXOHCWRIQ-UHFFFAOYSA-N

>  <smiles>  (4649) 
Cc1noc(-c2ccc(N3CCC(NC(O)c4c(Br)ccc5nn(C)cc45)C3)nc2)n1

>  <ref_pdb>  (4649) 
A3181a

>  <alias>  (4649) 
SYARBZXOHCWRIQ-UHFFFAOYSA-N-P12-P12-P103-601509

>  <HIPPO Pose ID>  (4649) 
516214

>  <name>  (4649) 
SYARBZXOHCWRIQ-UHFFFAOYSA-N-P12-P12-P103-601509

>  <HIPPO Compound ID>  (4649) 
293493

>  <ref_mols>  (4649) 
A0497a,A1105b

>  <distance_score>  (4649) 
1.640823

>  <inspiration_score>  (4649) 
None

$$$$
SYARBZXOHCWRIQ-UHFFFAOYSA-N-P103-P12-P103-601509
     RDKit          3D

 31 35  0  0  0  0  0  0  0  0999 V2000
   17.6227   -9.5313   11.5472 C   0  0  0  0  0  0  0  0  0  0  0  0
   17.8042   -9.0557   12.9311 C   0  0  0  0  0  0  0  0  0  0  0  0
   16.9143   -9.3110   13.8969 N   0  0  0  0  0  0  0  0  0  0  0  0
   17.4810   -8.6978   15.0193 O   0  0  0  0  0  0  0  0  0  0  0  0
   18.6552   -8.1302   14.6013 C   0  0  0  0  0  0  0  0  0  0  0  0
   19.4280   -7.4139   15.5915 C   0  0  0  0  0  0  0  0  0  0  0  0
   20.3084   -6.3987   15.2393 C   0  0  0  0  0  0  0  0  0  0  0  0
   20.9531   -5.6595   16.2287 C   0  0  0  0  0  0  0  0  0  0  0  0
   20.7002   -5.9345   17.5718 C   0  0  0  0  0  0  0  0  0  0  0  0
   21.1468   -5.0429   18.5696 N   0  0  0  0  0  0  0  0  0  0  0  0
   20.6299   -3.6630   18.3437 C   0  0  0  0  0  0  0  0  0  0  0  0
   19.8618   -3.3034   19.6146 C   0  0  0  0  0  0  0  0  0  0  0  0
   19.4433   -4.6518   20.2093 C   0  0  1  0  0  0  0  0  0  0  0  0
   18.2784   -5.4173   19.6883 N   0  0  0  0  0  0  0  0  0  0  0  0
   17.4665   -4.8500   18.6208 C   0  0  2  0  0  0  0  0  0  0  0  0
   17.0507   -3.5988   19.1051 O   0  0  0  0  0  0  0  0  0  0  0  0
   16.2847   -5.7422   18.1890 C   0  0  0  0  0  0  0  0  0  0  0  0
   15.0661   -5.2490   17.6200 C   0  0  0  0  0  0  0  0  0  0  0  0
   14.6308   -3.4315   17.6206 Br  0  0  0  0  0  0  0  0  0  0  0  0
   13.9721   -6.0141   17.0896 C   0  0  0  0  0  0  0  0  0  0  0  0
   13.9305   -7.4028   17.0899 C   0  0  0  0  0  0  0  0  0  0  0  0
   15.0293   -7.9602   17.7396 C   0  0  0  0  0  0  0  0  0  0  0  0
   15.2447   -9.2606   17.9980 N   0  0  0  0  0  0  0  0  0  0  0  0
   16.3368   -9.2730   18.7685 N   0  0  0  0  0  0  0  0  0  0  0  0
   16.8018  -10.5283   19.3069 C   0  0  0  0  0  0  0  0  0  0  0  0
   16.8984   -8.0446   18.9595 C   0  0  0  0  0  0  0  0  0  0  0  0
   16.1289   -7.1497   18.2583 C   0  0  0  0  0  0  0  0  0  0  0  0
   20.7697   -5.4267   19.9473 C   0  0  0  0  0  0  0  0  0  0  0  0
   19.9559   -7.0092   17.9218 N   0  0  0  0  0  0  0  0  0  0  0  0
   19.3481   -7.7130   16.9347 C   0  0  0  0  0  0  0  0  0  0  0  0
   18.8839   -8.3069   13.3180 N   0  0  0  0  0  0  0  0  0  0  0  0
  1  2  1  0
  2  3  2  0
  3  4  1  0
  4  5  1  0
  5  6  1  0
  6  7  2  0
  7  8  1  0
  8  9  2  0
  9 10  1  0
 10 11  1  0
 11 12  1  0
 12 13  1  0
 13 14  1  6
 14 15  1  0
 15 16  1  1
 15 17  1  0
 17 18  2  0
 18 19  1  0
 18 20  1  0
 20 21  2  0
 21 22  1  0
 22 23  2  0
 23 24  1  0
 24 25  1  0
 24 26  1  0
 26 27  2  0
 13 28  1  0
  9 29  1  0
 29 30  2  0
  5 31  2  0
 31  2  1  0
 30  6  1  0
 28 10  1  0
 27 17  1  0
 27 22  1  0
M  END
>  <energy_score>  (4650) 
-68.181891

>  <inchikey>  (4650) 
SYARBZXOHCWRIQ-UHFFFAOYSA-N

>  <smiles>  (4650) 
Cc1noc(-c2ccc(N3CCC(NC(O)c4c(Br)ccc5nn(C)cc45)C3)nc2)n1

>  <ref_pdb>  (4650) 
A3181a

>  <alias>  (4650) 
SYARBZXOHCWRIQ-UHFFFAOYSA-N-P103-P12-P103-601509

>  <HIPPO Pose ID>  (4650) 
516215

>  <name>  (4650) 
SYARBZXOHCWRIQ-UHFFFAOYSA-N-P103-P12-P103-601509

>  <HIPPO Compound ID>  (4650) 
293493

>  <ref_mols>  (4650) 
A0497a,A1105b

>  <distance_score>  (4650) 
1.604323

>  <inspiration_score>  (4650) 
None

$$$$
CHPCQAOFIQMZCM-UHFFFAOYSA-N-P103-P12-P103-601509
     RDKit          3D

 31 34  0  0  0  0  0  0  0  0999 V2000
   18.0027   -3.3396   17.8903 O   0  0  0  0  0  0  0  0  0  0  0  0
   17.3659   -4.0681   18.9085 C   0  0  2  0  0  0  0  0  0  0  0  0
   18.2878   -4.9097   19.6308 N   0  0  0  0  0  0  0  0  0  0  0  0
   19.4878   -4.3105   20.2288 C   0  0  2  0  0  0  0  0  0  0  0  0
   20.1553   -3.0914   19.5992 C   0  0  0  0  0  0  0  0  0  0  0  0
   20.9471   -3.6394   18.4058 C   0  0  0  0  0  0  0  0  0  0  0  0
   21.2091   -5.0712   18.7022 N   0  0  0  0  0  0  0  0  0  0  0  0
   20.6016   -5.9842   17.7891 C   0  0  0  0  0  0  0  0  0  0  0  0
   19.5635   -5.5745   17.0273 N   0  0  0  0  0  0  0  0  0  0  0  0
   18.7642   -6.4958   16.4564 C   0  0  0  0  0  0  0  0  0  0  0  0
   18.9658   -7.8456   16.5454 C   0  0  0  0  0  0  0  0  0  0  0  0
   17.9928   -8.7818   15.9453 C   0  0  0  0  0  0  0  0  0  0  0  0
   16.8898   -8.2056   15.4030 F   0  0  0  0  0  0  0  0  0  0  0  0
   18.5520   -9.5040   14.9296 F   0  0  0  0  0  0  0  0  0  0  0  0
   17.5366   -9.7167   16.8261 F   0  0  0  0  0  0  0  0  0  0  0  0
   20.1129   -8.2751   17.1979 C   0  0  0  0  0  0  0  0  0  0  0  0
   20.9434   -7.3442   17.8190 C   0  0  0  0  0  0  0  0  0  0  0  0
   22.3238   -7.9432   18.6744 Cl  0  0  0  0  0  0  0  0  0  0  0  0
   20.6599   -5.3179   20.0686 C   0  0  0  0  0  0  0  0  0  0  0  0
   16.2187   -4.8069   18.2422 C   0  0  0  0  0  0  0  0  0  0  0  0
   15.1626   -4.0188   17.6990 C   0  0  0  0  0  0  0  0  0  0  0  0
   13.9904   -4.5257   17.0795 C   0  0  0  0  0  0  0  0  0  0  0  0
   13.7285   -5.8973   16.9451 C   0  0  0  0  0  0  0  0  0  0  0  0
   14.6923   -6.7275   17.5226 C   0  0  0  0  0  0  0  0  0  0  0  0
   14.6860   -8.0673   17.6368 N   0  0  0  0  0  0  0  0  0  0  0  0
   15.7146   -8.3300   18.4745 N   0  0  0  0  0  0  0  0  0  0  0  0
   15.8687   -9.6519   19.0752 C   0  0  0  0  0  0  0  0  0  0  0  0
   17.1750   -9.9106   19.3739 F   0  0  0  0  0  0  0  0  0  0  0  0
   15.1942   -9.7416   20.2542 F   0  0  0  0  0  0  0  0  0  0  0  0
   16.5364   -7.2512   18.6841 C   0  0  0  0  0  0  0  0  0  0  0  0
   15.8901   -6.1769   18.1249 C   0  0  0  0  0  0  0  0  0  0  0  0
  2  1  1  6
  2  3  1  0
  4  3  1  6
  4  5  1  0
  5  6  1  0
  6  7  1  0
  7  8  1  0
  8  9  2  0
  9 10  1  0
 10 11  2  0
 11 12  1  0
 12 13  1  0
 12 14  1  0
 12 15  1  0
 11 16  1  0
 16 17  2  0
 17 18  1  0
  7 19  1  0
  2 20  1  0
 20 21  2  0
 21 22  1  0
 22 23  2  0
 23 24  1  0
 24 25  2  0
 25 26  1  0
 26 27  1  0
 27 28  1  0
 27 29  1  0
 26 30  1  0
 30 31  2  0
 19  4  1  0
 31 20  1  0
 17  8  1  0
 31 24  1  0
M  END
>  <energy_score>  (4651) 
-43.536017

>  <inchikey>  (4651) 
CHPCQAOFIQMZCM-UHFFFAOYSA-N

>  <smiles>  (4651) 
OC(NC1CCN(c2ncc(C(F)(F)F)cc2Cl)C1)c1cccc2nn(C(F)F)cc12

>  <ref_pdb>  (4651) 
A3181a

>  <alias>  (4651) 
CHPCQAOFIQMZCM-UHFFFAOYSA-N-P103-P12-P103-601509

>  <HIPPO Pose ID>  (4651) 
516217

>  <name>  (4651) 
CHPCQAOFIQMZCM-UHFFFAOYSA-N-P103-P12-P103-601509

>  <HIPPO Compound ID>  (4651) 
293494

>  <ref_mols>  (4651) 
A0497a,A1105b

>  <distance_score>  (4651) 
1.941901

>  <inspiration_score>  (4651) 
None

$$$$
PGJXLCXCFXVMKK-UHFFFAOYSA-N-P12-P12-P103-601509
     RDKit          3D

 31 35  0  0  0  0  0  0  0  0999 V2000
   18.6076   -2.3351   19.2384 C   0  0  0  0  0  0  0  0  0  0  0  0
   18.5503   -3.7068   18.9006 O   0  0  0  0  0  0  0  0  0  0  0  0
   17.5107   -4.4141   19.5125 C   0  0  2  0  0  0  0  0  0  0  0  0
   17.9751   -5.3702   20.5310 N   0  0  0  0  0  0  0  0  0  0  0  0
   19.3682   -5.8311   20.6036 C   0  0  2  0  0  0  0  0  0  0  0  0
   20.5474   -4.8769   20.4168 C   0  0  0  0  0  0  0  0  0  0  0  0
   21.0409   -5.1288   18.9883 C   0  0  0  0  0  0  0  0  0  0  0  0
   20.6070   -6.4916   18.6499 N   0  0  0  0  0  0  0  0  0  0  0  0
   20.1809   -6.7223   17.3389 C   0  0  0  0  0  0  0  0  0  0  0  0
   20.9053   -6.1597   16.2897 C   0  0  0  0  0  0  0  0  0  0  0  0
   20.5381   -6.3732   14.9653 C   0  0  0  0  0  0  0  0  0  0  0  0
   19.4235   -7.1444   14.6785 C   0  0  0  0  0  0  0  0  0  0  0  0
   18.9622   -7.3119   13.3136 C   0  0  0  0  0  0  0  0  0  0  0  0
   19.4502   -6.8273   12.1889 N   0  0  0  0  0  0  0  0  0  0  0  0
   18.5899   -7.3397   11.2538 C   0  0  0  0  0  0  0  0  0  0  0  0
   18.7525   -7.0990    9.8085 C   0  0  0  0  0  0  0  0  0  0  0  0
   17.5842   -8.0704   11.7479 N   0  0  0  0  0  0  0  0  0  0  0  0
   17.8326   -8.0613   13.1227 O   0  0  0  0  0  0  0  0  0  0  0  0
   18.7803   -7.7137   15.7642 C   0  0  0  0  0  0  0  0  0  0  0  0
   19.1592   -7.5598   17.0613 N   0  0  0  0  0  0  0  0  0  0  0  0
   19.7963   -7.0278   19.7327 C   0  0  0  0  0  0  0  0  0  0  0  0
   16.3646   -4.8534   18.5819 C   0  0  0  0  0  0  0  0  0  0  0  0
   15.3602   -3.8742   18.2402 C   0  0  0  0  0  0  0  0  0  0  0  0
   14.1472   -4.1298   17.5231 C   0  0  0  0  0  0  0  0  0  0  0  0
   13.7761   -5.3924   17.0474 C   0  0  0  0  0  0  0  0  0  0  0  0
   14.6894   -6.3990   17.3678 C   0  0  0  0  0  0  0  0  0  0  0  0
   14.6091   -7.7104   17.0771 N   0  0  0  0  0  0  0  0  0  0  0  0
   15.6397   -8.2509   17.7427 N   0  0  0  0  0  0  0  0  0  0  0  0
   15.8146   -9.6819   17.7317 C   0  0  0  0  0  0  0  0  0  0  0  0
   16.4141   -7.3469   18.4004 C   0  0  0  0  0  0  0  0  0  0  0  0
   15.9158   -6.1117   18.1067 C   0  0  0  0  0  0  0  0  0  0  0  0
  1  2  1  0
  2  3  1  0
  3  4  1  6
  5  4  1  6
  5  6  1  0
  6  7  1  0
  7  8  1  0
  8  9  1  0
  9 10  2  0
 10 11  1  0
 11 12  2  0
 12 13  1  0
 13 14  2  0
 14 15  1  0
 15 16  1  0
 15 17  2  0
 17 18  1  0
 12 19  1  0
 19 20  2  0
  8 21  1  0
  3 22  1  0
 22 23  2  0
 23 24  1  0
 24 25  2  0
 25 26  1  0
 26 27  2  0
 27 28  1  0
 28 29  1  0
 28 30  1  0
 30 31  2  0
 21  5  1  0
 31 22  1  0
 20  9  1  0
 31 26  1  0
 18 13  1  0
M  END
>  <energy_score>  (4652) 
-17.52794

>  <inchikey>  (4652) 
PGJXLCXCFXVMKK-UHFFFAOYSA-N

>  <smiles>  (4652) 
COC(NC1CCN(c2ccc(-c3nc(C)no3)cn2)C1)c1cccc2nn(C)cc12

>  <ref_pdb>  (4652) 
A3181a

>  <alias>  (4652) 
PGJXLCXCFXVMKK-UHFFFAOYSA-N-P12-P12-P103-601509

>  <HIPPO Pose ID>  (4652) 
516218

>  <name>  (4652) 
PGJXLCXCFXVMKK-UHFFFAOYSA-N-P12-P12-P103-601509

>  <HIPPO Compound ID>  (4652) 
293495

>  <ref_mols>  (4652) 
A0497a,A1105b

>  <distance_score>  (4652) 
1.736704

>  <inspiration_score>  (4652) 
None

$$$$
MCRXBMAILDIDDA-UHFFFAOYSA-N-P12-P12-P103-601509
     RDKit          3D

 31 35  0  0  0  0  0  0  0  0999 V2000
   18.5119   -1.8269   19.7051 C   0  0  0  0  0  0  0  0  0  0  0  0
   18.1925   -2.9543   18.9203 O   0  0  0  0  0  0  0  0  0  0  0  0
   17.3836   -3.9062   19.5740 C   0  0  2  0  0  0  0  0  0  0  0  0
   18.1338   -4.8805   20.3706 N   0  0  0  0  0  0  0  0  0  0  0  0
   19.5960   -4.8851   20.2127 C   0  0  1  0  0  0  0  0  0  0  0  0
   20.1350   -6.1919   20.7734 C   0  0  0  0  0  0  0  0  0  0  0  0
   21.4569   -6.4076   20.0484 C   0  0  0  0  0  0  0  0  0  0  0  0
   21.2989   -5.8182   18.7158 N   0  0  0  0  0  0  0  0  0  0  0  0
   20.9021   -6.7261   17.6957 C   0  0  0  0  0  0  0  0  0  0  0  0
   21.0021   -6.2699   16.3774 C   0  0  0  0  0  0  0  0  0  0  0  0
   20.1888   -6.8311   15.4032 C   0  0  0  0  0  0  0  0  0  0  0  0
   19.3054   -7.8504   15.7459 C   0  0  0  0  0  0  0  0  0  0  0  0
   18.3398   -8.3301   14.7795 C   0  0  0  0  0  0  0  0  0  0  0  0
   18.2699   -8.1037   13.4835 N   0  0  0  0  0  0  0  0  0  0  0  0
   17.1456   -8.7992   13.1272 C   0  0  0  0  0  0  0  0  0  0  0  0
   16.6603   -8.8619   11.7366 C   0  0  0  0  0  0  0  0  0  0  0  0
   16.5090   -9.4082   14.1342 N   0  0  0  0  0  0  0  0  0  0  0  0
   17.3104   -9.1035   15.2406 O   0  0  0  0  0  0  0  0  0  0  0  0
   19.3977   -8.3478   17.0376 C   0  0  0  0  0  0  0  0  0  0  0  0
   20.1901   -7.8264   18.0105 N   0  0  0  0  0  0  0  0  0  0  0  0
   20.1803   -4.8347   18.7863 C   0  0  0  0  0  0  0  0  0  0  0  0
   16.3303   -4.5160   18.6275 C   0  0  0  0  0  0  0  0  0  0  0  0
   15.2630   -3.6663   18.2248 C   0  0  0  0  0  0  0  0  0  0  0  0
   14.1393   -4.1362   17.5402 C   0  0  0  0  0  0  0  0  0  0  0  0
   14.0015   -5.4807   17.2160 C   0  0  0  0  0  0  0  0  0  0  0  0
   15.0414   -6.3353   17.5895 C   0  0  0  0  0  0  0  0  0  0  0  0
   16.1898   -5.8919   18.2554 C   0  0  0  0  0  0  0  0  0  0  0  0
   16.8980   -7.0886   18.5054 C   0  0  0  0  0  0  0  0  0  0  0  0
   16.2967   -8.1836   18.0345 N   0  0  0  0  0  0  0  0  0  0  0  0
   15.1796   -7.6960   17.4700 N   0  0  0  0  0  0  0  0  0  0  0  0
   14.2329   -8.6024   16.8669 C   0  0  0  0  0  0  0  0  0  0  0  0
  1  2  1  0
  2  3  1  0
  3  4  1  6
  5  4  1  6
  5  6  1  0
  6  7  1  0
  7  8  1  0
  8  9  1  0
  9 10  2  0
 10 11  1  0
 11 12  2  0
 12 13  1  0
 13 14  2  0
 14 15  1  0
 15 16  1  0
 15 17  2  0
 17 18  1  0
 12 19  1  0
 19 20  2  0
  8 21  1  0
  3 22  1  0
 22 23  2  0
 23 24  1  0
 24 25  2  0
 25 26  1  0
 26 27  2  0
 27 28  1  0
 28 29  2  0
 29 30  1  0
 30 31  1  0
 21  5  1  0
 27 22  1  0
 20  9  1  0
 30 26  1  0
 18 13  1  0
M  END
>  <energy_score>  (4653) 
-41.806939

>  <inchikey>  (4653) 
MCRXBMAILDIDDA-UHFFFAOYSA-N

>  <smiles>  (4653) 
COC(NC1CCN(c2ccc(-c3nc(C)no3)cn2)C1)c1cccc2c1cnn2C

>  <ref_pdb>  (4653) 
A3181a

>  <alias>  (4653) 
MCRXBMAILDIDDA-UHFFFAOYSA-N-P12-P12-P103-601509

>  <HIPPO Pose ID>  (4653) 
516220

>  <name>  (4653) 
MCRXBMAILDIDDA-UHFFFAOYSA-N-P12-P12-P103-601509

>  <HIPPO Compound ID>  (4653) 
293496

>  <ref_mols>  (4653) 
A0497a,A1105b

>  <distance_score>  (4653) 
1.319549

>  <inspiration_score>  (4653) 
None

$$$$
MCRXBMAILDIDDA-UHFFFAOYSA-N-P103-P12-P103-601509
     RDKit          3D

 31 35  0  0  0  0  0  0  0  0999 V2000
   19.0675   -2.4527   18.4439 C   0  0  0  0  0  0  0  0  0  0  0  0
   18.5939   -3.7352   18.0855 O   0  0  0  0  0  0  0  0  0  0  0  0
   17.7160   -4.2990   19.0335 C   0  0  2  0  0  0  0  0  0  0  0  0
   18.3719   -5.3269   19.8368 N   0  0  0  0  0  0  0  0  0  0  0  0
   19.6711   -4.9534   20.4130 C   0  0  1  0  0  0  0  0  0  0  0  0
   20.1210   -6.0267   21.3975 C   0  0  0  0  0  0  0  0  0  0  0  0
   20.7225   -7.1347   20.5138 C   0  0  0  0  0  0  0  0  0  0  0  0
   21.1745   -6.4576   19.2758 N   0  0  0  0  0  0  0  0  0  0  0  0
   20.6187   -6.9879   18.0884 C   0  0  0  0  0  0  0  0  0  0  0  0
   20.7727   -6.3278   16.8632 C   0  0  0  0  0  0  0  0  0  0  0  0
   20.0520   -6.7412   15.7433 C   0  0  0  0  0  0  0  0  0  0  0  0
   19.2072   -7.8374   15.8379 C   0  0  0  0  0  0  0  0  0  0  0  0
   18.4067   -8.2829   14.7202 C   0  0  0  0  0  0  0  0  0  0  0  0
   18.6554   -8.2344   13.4281 N   0  0  0  0  0  0  0  0  0  0  0  0
   17.5657   -8.8716   12.8988 C   0  0  0  0  0  0  0  0  0  0  0  0
   17.4056   -9.0928   11.4500 C   0  0  0  0  0  0  0  0  0  0  0  0
   16.6443   -9.2631   13.7872 N   0  0  0  0  0  0  0  0  0  0  0  0
   17.2098   -8.8815   15.0114 O   0  0  0  0  0  0  0  0  0  0  0  0
   19.2173   -8.5190   17.0407 C   0  0  0  0  0  0  0  0  0  0  0  0
   19.9204   -8.1413   18.1376 N   0  0  0  0  0  0  0  0  0  0  0  0
   20.8886   -5.0163   19.4509 C   0  0  0  0  0  0  0  0  0  0  0  0
   16.4741   -4.8003   18.2829 C   0  0  0  0  0  0  0  0  0  0  0  0
   15.5197   -3.8297   17.8861 C   0  0  0  0  0  0  0  0  0  0  0  0
   14.2989   -4.1635   17.3017 C   0  0  0  0  0  0  0  0  0  0  0  0
   13.9614   -5.4908   17.0728 C   0  0  0  0  0  0  0  0  0  0  0  0
   14.8835   -6.4667   17.4557 C   0  0  0  0  0  0  0  0  0  0  0  0
   16.1095   -6.1547   18.0453 C   0  0  0  0  0  0  0  0  0  0  0  0
   16.6373   -7.4225   18.3822 C   0  0  0  0  0  0  0  0  0  0  0  0
   15.8821   -8.4483   17.9828 N   0  0  0  0  0  0  0  0  0  0  0  0
   14.8250   -7.8382   17.4192 N   0  0  0  0  0  0  0  0  0  0  0  0
   13.7417   -8.6421   16.9096 C   0  0  0  0  0  0  0  0  0  0  0  0
  1  2  1  0
  2  3  1  0
  3  4  1  6
  5  4  1  6
  5  6  1  0
  6  7  1  0
  7  8  1  0
  8  9  1  0
  9 10  2  0
 10 11  1  0
 11 12  2  0
 12 13  1  0
 13 14  2  0
 14 15  1  0
 15 16  1  0
 15 17  2  0
 17 18  1  0
 12 19  1  0
 19 20  2  0
  8 21  1  0
  3 22  1  0
 22 23  2  0
 23 24  1  0
 24 25  2  0
 25 26  1  0
 26 27  2  0
 27 28  1  0
 28 29  2  0
 29 30  1  0
 30 31  1  0
 21  5  1  0
 27 22  1  0
 20  9  1  0
 30 26  1  0
 18 13  1  0
M  END
>  <energy_score>  (4654) 
-43.895336

>  <inchikey>  (4654) 
MCRXBMAILDIDDA-UHFFFAOYSA-N

>  <smiles>  (4654) 
COC(NC1CCN(c2ccc(-c3nc(C)no3)cn2)C1)c1cccc2c1cnn2C

>  <ref_pdb>  (4654) 
A3181a

>  <alias>  (4654) 
MCRXBMAILDIDDA-UHFFFAOYSA-N-P103-P12-P103-601509

>  <HIPPO Pose ID>  (4654) 
516221

>  <name>  (4654) 
MCRXBMAILDIDDA-UHFFFAOYSA-N-P103-P12-P103-601509

>  <HIPPO Compound ID>  (4654) 
293496

>  <ref_mols>  (4654) 
A0497a,A1105b

>  <distance_score>  (4654) 
1.207042

>  <inspiration_score>  (4654) 
None

$$$$
KYJVAOQBBIASTO-UHFFFAOYSA-N-P12-P12-P103-601509
     RDKit          3D

 31 35  0  0  0  0  0  0  0  0999 V2000
   17.9608   -8.6572   10.9780 C   0  0  0  0  0  0  0  0  0  0  0  0
   18.7816   -7.8552   11.9039 C   0  0  0  0  0  0  0  0  0  0  0  0
   19.5070   -6.8071   11.4938 N   0  0  0  0  0  0  0  0  0  0  0  0
   20.1121   -6.3633   12.6724 O   0  0  0  0  0  0  0  0  0  0  0  0
   19.6673   -7.1812   13.6767 C   0  0  0  0  0  0  0  0  0  0  0  0
   20.1018   -6.8687   15.0223 C   0  0  0  0  0  0  0  0  0  0  0  0
   21.0618   -5.9095   15.3013 C   0  0  0  0  0  0  0  0  0  0  0  0
   21.3255   -5.5647   16.6239 C   0  0  0  0  0  0  0  0  0  0  0  0
   20.6414   -6.1679   17.6758 C   0  0  0  0  0  0  0  0  0  0  0  0
   20.8523   -5.6845   18.9775 N   0  0  0  0  0  0  0  0  0  0  0  0
   20.7904   -4.2137   19.1351 C   0  0  0  0  0  0  0  0  0  0  0  0
   20.1103   -3.9617   20.4759 C   0  0  0  0  0  0  0  0  0  0  0  0
   19.2450   -5.1969   20.7034 C   0  0  1  0  0  0  0  0  0  0  0  0
   17.8460   -5.0889   20.2686 N   0  0  0  0  0  0  0  0  0  0  0  0
   17.6018   -4.8881   18.8528 C   0  0  2  0  0  0  0  0  0  0  0  0
   17.5613   -3.4884   18.6525 O   0  0  0  0  0  0  0  0  0  0  0  0
   16.3295   -5.5381   18.3470 C   0  0  0  0  0  0  0  0  0  0  0  0
   15.1281   -4.8323   18.0056 C   0  0  0  0  0  0  0  0  0  0  0  0
   14.0192   -5.4031   17.2909 C   0  0  0  0  0  0  0  0  0  0  0  0
   13.9803   -6.7536   16.8614 C   0  0  0  0  0  0  0  0  0  0  0  0
   12.9352   -7.3462   15.9916 C   0  0  0  0  0  0  0  0  0  0  0  0
   15.0601   -7.5090   17.3411 C   0  0  0  0  0  0  0  0  0  0  0  0
   15.2895   -8.8297   17.1987 N   0  0  0  0  0  0  0  0  0  0  0  0
   16.4286   -9.0466   17.8713 N   0  0  0  0  0  0  0  0  0  0  0  0
   16.9591  -10.3851   17.9502 C   0  0  0  0  0  0  0  0  0  0  0  0
   16.9776   -7.9234   18.4044 C   0  0  0  0  0  0  0  0  0  0  0  0
   16.1500   -6.8965   18.0496 C   0  0  0  0  0  0  0  0  0  0  0  0
   20.1127   -6.3153   20.0761 C   0  0  0  0  0  0  0  0  0  0  0  0
   19.7993   -7.1895   17.4157 N   0  0  0  0  0  0  0  0  0  0  0  0
   19.5287   -7.4944   16.1165 C   0  0  0  0  0  0  0  0  0  0  0  0
   18.8471   -8.1165   13.2475 N   0  0  0  0  0  0  0  0  0  0  0  0
  1  2  1  0
  2  3  2  0
  3  4  1  0
  4  5  1  0
  5  6  1  0
  6  7  2  0
  7  8  1  0
  8  9  2  0
  9 10  1  0
 10 11  1  0
 11 12  1  0
 12 13  1  0
 13 14  1  6
 14 15  1  0
 15 16  1  1
 15 17  1  0
 17 18  2  0
 18 19  1  0
 19 20  2  0
 20 21  1  0
 20 22  1  0
 22 23  2  0
 23 24  1  0
 24 25  1  0
 24 26  1  0
 26 27  2  0
 13 28  1  0
  9 29  1  0
 29 30  2  0
  5 31  2  0
 31  2  1  0
 30  6  1  0
 28 10  1  0
 27 17  1  0
 27 22  1  0
M  END
>  <energy_score>  (4655) 
-51.450357

>  <inchikey>  (4655) 
KYJVAOQBBIASTO-UHFFFAOYSA-N

>  <smiles>  (4655) 
Cc1noc(-c2ccc(N3CCC(NC(O)c4ccc(C)c5nn(C)cc45)C3)nc2)n1

>  <ref_pdb>  (4655) 
A3181a

>  <alias>  (4655) 
KYJVAOQBBIASTO-UHFFFAOYSA-N-P12-P12-P103-601509

>  <HIPPO Pose ID>  (4655) 
516224

>  <name>  (4655) 
KYJVAOQBBIASTO-UHFFFAOYSA-N-P12-P12-P103-601509

>  <HIPPO Compound ID>  (4655) 
293498

>  <ref_mols>  (4655) 
A0497a,A1105b

>  <distance_score>  (4655) 
1.908474

>  <inspiration_score>  (4655) 
None

$$$$
KYJVAOQBBIASTO-UHFFFAOYSA-N-P103-P12-P103-601509
     RDKit          3D

 31 35  0  0  0  0  0  0  0  0999 V2000
   18.4239  -10.0731   11.5266 C   0  0  0  0  0  0  0  0  0  0  0  0
   19.0994   -8.9661   12.2280 C   0  0  0  0  0  0  0  0  0  0  0  0
   19.7872   -8.0201   11.5770 N   0  0  0  0  0  0  0  0  0  0  0  0
   20.2452   -7.1976   12.6085 O   0  0  0  0  0  0  0  0  0  0  0  0
   19.7631   -7.7243   13.7770 C   0  0  0  0  0  0  0  0  0  0  0  0
   20.0771   -7.0158   14.9990 C   0  0  0  0  0  0  0  0  0  0  0  0
   20.8266   -5.8530   15.0240 C   0  0  0  0  0  0  0  0  0  0  0  0
   21.0445   -5.1993   16.2325 C   0  0  0  0  0  0  0  0  0  0  0  0
   20.5296   -5.6927   17.4284 C   0  0  0  0  0  0  0  0  0  0  0  0
   20.8278   -5.0208   18.6213 N   0  0  0  0  0  0  0  0  0  0  0  0
   20.7912   -3.5446   18.6113 C   0  0  0  0  0  0  0  0  0  0  0  0
   19.9685   -3.1151   19.8304 C   0  0  0  0  0  0  0  0  0  0  0  0
   19.2305   -4.3685   20.2830 C   0  0  1  0  0  0  0  0  0  0  0  0
   17.8064   -4.5017   19.9629 N   0  0  0  0  0  0  0  0  0  0  0  0
   17.2469   -4.1064   18.6677 C   0  0  1  0  0  0  0  0  0  0  0  0
   18.1896   -3.7455   17.6995 O   0  0  0  0  0  0  0  0  0  0  0  0
   16.2094   -5.0627   18.1159 C   0  0  0  0  0  0  0  0  0  0  0  0
   14.9728   -4.5793   17.5940 C   0  0  0  0  0  0  0  0  0  0  0  0
   13.9422   -5.4017   17.0257 C   0  0  0  0  0  0  0  0  0  0  0  0
   14.0414   -6.8082   16.8812 C   0  0  0  0  0  0  0  0  0  0  0  0
   13.0483   -7.6852   16.2065 C   0  0  0  0  0  0  0  0  0  0  0  0
   15.2089   -7.3236   17.4594 C   0  0  0  0  0  0  0  0  0  0  0  0
   15.5855   -8.6142   17.5597 N   0  0  0  0  0  0  0  0  0  0  0  0
   16.7220   -8.5723   18.2670 N   0  0  0  0  0  0  0  0  0  0  0  0
   17.3918   -9.8032   18.6053 C   0  0  0  0  0  0  0  0  0  0  0  0
   17.1178   -7.3166   18.5972 C   0  0  0  0  0  0  0  0  0  0  0  0
   16.2114   -6.4645   18.0373 C   0  0  0  0  0  0  0  0  0  0  0  0
   20.1834   -5.4980   19.8370 C   0  0  0  0  0  0  0  0  0  0  0  0
   19.8524   -6.8607   17.4158 N   0  0  0  0  0  0  0  0  0  0  0  0
   19.6194   -7.4712   16.2221 C   0  0  0  0  0  0  0  0  0  0  0  0
   19.0624   -8.8232   13.5905 N   0  0  0  0  0  0  0  0  0  0  0  0
  1  2  1  0
  2  3  2  0
  3  4  1  0
  4  5  1  0
  5  6  1  0
  6  7  2  0
  7  8  1  0
  8  9  2  0
  9 10  1  0
 10 11  1  0
 11 12  1  0
 12 13  1  0
 13 14  1  6
 14 15  1  0
 15 16  1  6
 15 17  1  0
 17 18  2  0
 18 19  1  0
 19 20  2  0
 20 21  1  0
 20 22  1  0
 22 23  2  0
 23 24  1  0
 24 25  1  0
 24 26  1  0
 26 27  2  0
 13 28  1  0
  9 29  1  0
 29 30  2  0
  5 31  2  0
 31  2  1  0
 30  6  1  0
 28 10  1  0
 27 17  1  0
 27 22  1  0
M  END
>  <energy_score>  (4656) 
-39.284041

>  <inchikey>  (4656) 
KYJVAOQBBIASTO-UHFFFAOYSA-N

>  <smiles>  (4656) 
Cc1noc(-c2ccc(N3CCC(NC(O)c4ccc(C)c5nn(C)cc45)C3)nc2)n1

>  <ref_pdb>  (4656) 
A3181a

>  <alias>  (4656) 
KYJVAOQBBIASTO-UHFFFAOYSA-N-P103-P12-P103-601509

>  <HIPPO Pose ID>  (4656) 
516225

>  <name>  (4656) 
KYJVAOQBBIASTO-UHFFFAOYSA-N-P103-P12-P103-601509

>  <HIPPO Compound ID>  (4656) 
293498

>  <ref_mols>  (4656) 
A0497a,A1105b

>  <distance_score>  (4656) 
1.918946

>  <inspiration_score>  (4656) 
None

$$$$
UKPRCQBBXOMNMH-UHFFFAOYSA-N-P12-P12-P103-601509
     RDKit          3D

 31 35  0  0  0  0  0  0  0  0999 V2000
   18.2376  -10.3915   12.1066 C   0  0  0  0  0  0  0  0  0  0  0  0
   18.2977   -9.4353   13.2272 C   0  0  0  0  0  0  0  0  0  0  0  0
   17.2096   -8.8119   13.6939 N   0  0  0  0  0  0  0  0  0  0  0  0
   17.7159   -8.0361   14.7399 O   0  0  0  0  0  0  0  0  0  0  0  0
   19.0700   -8.2507   14.7690 C   0  0  0  0  0  0  0  0  0  0  0  0
   19.8392   -7.5247   15.7578 C   0  0  0  0  0  0  0  0  0  0  0  0
   21.1897   -7.7583   15.9980 C   0  0  0  0  0  0  0  0  0  0  0  0
   21.8724   -7.0373   16.9916 C   0  0  0  0  0  0  0  0  0  0  0  0
   21.1993   -6.0783   17.7356 C   0  0  0  0  0  0  0  0  0  0  0  0
   21.8420   -5.4254   18.8175 N   0  0  0  0  0  0  0  0  0  0  0  0
   21.4513   -3.9859   18.8841 C   0  0  0  0  0  0  0  0  0  0  0  0
   20.8125   -3.7612   20.2541 C   0  0  0  0  0  0  0  0  0  0  0  0
   20.2389   -5.1145   20.6501 C   0  0  1  0  0  0  0  0  0  0  0  0
   18.9654   -5.6061   20.1479 N   0  0  0  0  0  0  0  0  0  0  0  0
   17.9591   -4.7443   19.6092 C   0  0  1  0  0  0  0  0  0  0  0  0
   18.4450   -3.6516   18.8771 O   0  0  0  0  0  0  0  0  0  0  0  0
   16.9337   -5.4962   18.7780 C   0  0  0  0  0  0  0  0  0  0  0  0
   15.8123   -4.7509   18.3528 C   0  0  0  0  0  0  0  0  0  0  0  0
   14.6771   -5.3087   17.7132 C   0  0  0  0  0  0  0  0  0  0  0  0
   13.3754   -4.0806   17.2908 Br  0  0  0  0  0  0  0  0  0  0  0  0
   14.4880   -6.6535   17.3860 C   0  0  0  0  0  0  0  0  0  0  0  0
   15.5663   -7.4369   17.7925 C   0  0  0  0  0  0  0  0  0  0  0  0
   15.7347   -8.7633   17.6587 N   0  0  0  0  0  0  0  0  0  0  0  0
   16.9225   -9.0169   18.2282 N   0  0  0  0  0  0  0  0  0  0  0  0
   17.4362  -10.3649   18.2068 C   0  0  0  0  0  0  0  0  0  0  0  0
   17.5333   -7.9220   18.7608 C   0  0  0  0  0  0  0  0  0  0  0  0
   16.7196   -6.8587   18.4701 C   0  0  0  0  0  0  0  0  0  0  0  0
   21.3711   -6.0344   20.0946 C   0  0  0  0  0  0  0  0  0  0  0  0
   19.9161   -5.8257   17.4677 N   0  0  0  0  0  0  0  0  0  0  0  0
   19.2726   -6.5354   16.5154 C   0  0  0  0  0  0  0  0  0  0  0  0
   19.4691   -9.1150   13.8626 N   0  0  0  0  0  0  0  0  0  0  0  0
  1  2  1  0
  2  3  2  0
  3  4  1  0
  4  5  1  0
  5  6  1  0
  6  7  2  0
  7  8  1  0
  8  9  2  0
  9 10  1  0
 10 11  1  0
 11 12  1  0
 12 13  1  0
 13 14  1  6
 14 15  1  0
 15 16  1  6
 15 17  1  0
 17 18  2  0
 18 19  1  0
 19 20  1  0
 19 21  2  0
 21 22  1  0
 22 23  2  0
 23 24  1  0
 24 25  1  0
 24 26  1  0
 26 27  2  0
 13 28  1  0
  9 29  1  0
 29 30  2  0
  5 31  2  0
 31  2  1  0
 30  6  1  0
 28 10  1  0
 27 17  1  0
 27 22  1  0
M  END
>  <energy_score>  (4657) 
-50.810761

>  <inchikey>  (4657) 
UKPRCQBBXOMNMH-UHFFFAOYSA-N

>  <smiles>  (4657) 
Cc1noc(-c2ccc(N3CCC(NC(O)c4cc(Br)cc5nn(C)cc45)C3)nc2)n1

>  <ref_pdb>  (4657) 
A3181a

>  <alias>  (4657) 
UKPRCQBBXOMNMH-UHFFFAOYSA-N-P12-P12-P103-601509

>  <HIPPO Pose ID>  (4657) 
516226

>  <name>  (4657) 
UKPRCQBBXOMNMH-UHFFFAOYSA-N-P12-P12-P103-601509

>  <HIPPO Compound ID>  (4657) 
293499

>  <ref_mols>  (4657) 
A0497a,A1105b

>  <distance_score>  (4657) 
1.768178

>  <inspiration_score>  (4657) 
None

$$$$
UKPRCQBBXOMNMH-UHFFFAOYSA-N-P103-P12-P103-601509
     RDKit          3D

 31 35  0  0  0  0  0  0  0  0999 V2000
   18.0715  -10.7829   12.6795 C   0  0  0  0  0  0  0  0  0  0  0  0
   18.1433   -9.6547   13.6256 C   0  0  0  0  0  0  0  0  0  0  0  0
   17.0678   -8.9338   13.9606 N   0  0  0  0  0  0  0  0  0  0  0  0
   17.5832   -8.0063   14.8735 O   0  0  0  0  0  0  0  0  0  0  0  0
   18.9264   -8.2485   14.9624 C   0  0  0  0  0  0  0  0  0  0  0  0
   19.7096   -7.4063   15.8426 C   0  0  0  0  0  0  0  0  0  0  0  0
   20.9998   -7.7524   16.2307 C   0  0  0  0  0  0  0  0  0  0  0  0
   21.7111   -6.9444   17.1248 C   0  0  0  0  0  0  0  0  0  0  0  0
   21.1385   -5.7760   17.6144 C   0  0  0  0  0  0  0  0  0  0  0  0
   21.7807   -5.0781   18.6686 N   0  0  0  0  0  0  0  0  0  0  0  0
   21.4079   -3.6388   18.7346 C   0  0  0  0  0  0  0  0  0  0  0  0
   20.6831   -3.4319   20.0705 C   0  0  0  0  0  0  0  0  0  0  0  0
   20.1789   -4.8123   20.4824 C   0  0  1  0  0  0  0  0  0  0  0  0
   18.9408   -5.3729   19.9494 N   0  0  0  0  0  0  0  0  0  0  0  0
   17.9561   -4.5293   19.3423 C   0  0  1  0  0  0  0  0  0  0  0  0
   18.4825   -3.5783   18.4515 O   0  0  0  0  0  0  0  0  0  0  0  0
   16.9131   -5.3034   18.5724 C   0  0  0  0  0  0  0  0  0  0  0  0
   15.8733   -4.5360   18.0234 C   0  0  0  0  0  0  0  0  0  0  0  0
   14.7243   -5.0778   17.4156 C   0  0  0  0  0  0  0  0  0  0  0  0
   13.5923   -3.7923   16.7409 Br  0  0  0  0  0  0  0  0  0  0  0  0
   14.4422   -6.4356   17.2397 C   0  0  0  0  0  0  0  0  0  0  0  0
   15.4783   -7.2426   17.7108 C   0  0  0  0  0  0  0  0  0  0  0  0
   15.5898   -8.5812   17.6699 N   0  0  0  0  0  0  0  0  0  0  0  0
   16.7769   -8.8427   18.2396 N   0  0  0  0  0  0  0  0  0  0  0  0
   17.2350  -10.2092   18.3035 C   0  0  0  0  0  0  0  0  0  0  0  0
   17.4423   -7.7399   18.6863 C   0  0  0  0  0  0  0  0  0  0  0  0
   16.6555   -6.6713   18.3483 C   0  0  0  0  0  0  0  0  0  0  0  0
   21.3682   -5.6754   19.9674 C   0  0  0  0  0  0  0  0  0  0  0  0
   19.9348   -5.3881   17.1653 N   0  0  0  0  0  0  0  0  0  0  0  0
   19.2425   -6.2115   16.3355 C   0  0  0  0  0  0  0  0  0  0  0  0
   19.3125   -9.2663   14.2235 N   0  0  0  0  0  0  0  0  0  0  0  0
  1  2  1  0
  2  3  2  0
  3  4  1  0
  4  5  1  0
  5  6  1  0
  6  7  2  0
  7  8  1  0
  8  9  2  0
  9 10  1  0
 10 11  1  0
 11 12  1  0
 12 13  1  0
 13 14  1  6
 14 15  1  0
 15 16  1  6
 15 17  1  0
 17 18  2  0
 18 19  1  0
 19 20  1  0
 19 21  2  0
 21 22  1  0
 22 23  2  0
 23 24  1  0
 24 25  1  0
 24 26  1  0
 26 27  2  0
 13 28  1  0
  9 29  1  0
 29 30  2  0
  5 31  2  0
 31  2  1  0
 30  6  1  0
 28 10  1  0
 27 17  1  0
 27 22  1  0
M  END
>  <energy_score>  (4658) 
-56.876321

>  <inchikey>  (4658) 
UKPRCQBBXOMNMH-UHFFFAOYSA-N

>  <smiles>  (4658) 
Cc1noc(-c2ccc(N3CCC(NC(O)c4cc(Br)cc5nn(C)cc45)C3)nc2)n1

>  <ref_pdb>  (4658) 
A3181a

>  <alias>  (4658) 
UKPRCQBBXOMNMH-UHFFFAOYSA-N-P103-P12-P103-601509

>  <HIPPO Pose ID>  (4658) 
516227

>  <name>  (4658) 
UKPRCQBBXOMNMH-UHFFFAOYSA-N-P103-P12-P103-601509

>  <HIPPO Compound ID>  (4658) 
293499

>  <ref_mols>  (4658) 
A0497a,A1105b

>  <distance_score>  (4658) 
1.669494

>  <inspiration_score>  (4658) 
None

$$$$
XEPDZTJRPVZLAW-UHFFFAOYSA-N-P103-P12-P103-601509
     RDKit          3D

 31 34  0  0  0  0  0  0  0  0999 V2000
   18.0215   -3.2949   17.8352 O   0  0  0  0  0  0  0  0  0  0  0  0
   17.3678   -3.9677   18.8784 C   0  0  2  0  0  0  0  0  0  0  0  0
   18.2631   -4.8247   19.6224 N   0  0  0  0  0  0  0  0  0  0  0  0
   19.4974   -4.2496   20.1774 C   0  0  2  0  0  0  0  0  0  0  0  0
   20.1950   -3.0710   19.5049 C   0  0  0  0  0  0  0  0  0  0  0  0
   20.9442   -3.6774   18.3126 C   0  0  0  0  0  0  0  0  0  0  0  0
   21.1742   -5.1043   18.6533 N   0  0  0  0  0  0  0  0  0  0  0  0
   20.5551   -6.0341   17.7681 C   0  0  0  0  0  0  0  0  0  0  0  0
   19.5171   -5.6390   16.9976 N   0  0  0  0  0  0  0  0  0  0  0  0
   18.7294   -6.5709   16.4265 C   0  0  0  0  0  0  0  0  0  0  0  0
   18.9240   -7.9201   16.5515 C   0  0  0  0  0  0  0  0  0  0  0  0
   17.9608   -8.8687   15.9502 C   0  0  0  0  0  0  0  0  0  0  0  0
   18.4489   -9.3879   14.7822 F   0  0  0  0  0  0  0  0  0  0  0  0
   17.7039   -9.9575   16.7280 F   0  0  0  0  0  0  0  0  0  0  0  0
   16.7507   -8.3451   15.6113 F   0  0  0  0  0  0  0  0  0  0  0  0
   20.0652   -8.3365   17.2224 C   0  0  0  0  0  0  0  0  0  0  0  0
   20.8932   -7.3941   17.8291 C   0  0  0  0  0  0  0  0  0  0  0  0
   22.2672   -7.9784   18.7054 Cl  0  0  0  0  0  0  0  0  0  0  0  0
   20.6308   -5.3009   20.0278 C   0  0  0  0  0  0  0  0  0  0  0  0
   16.1898   -4.6968   18.2367 C   0  0  0  0  0  0  0  0  0  0  0  0
   15.1563   -3.8806   17.7262 C   0  0  0  0  0  0  0  0  0  0  0  0
   14.0145   -4.4021   17.1348 C   0  0  0  0  0  0  0  0  0  0  0  0
   13.8283   -5.7760   17.0395 C   0  0  0  0  0  0  0  0  0  0  0  0
   14.8054   -6.6022   17.5951 C   0  0  0  0  0  0  0  0  0  0  0  0
   15.9706   -6.1013   18.1717 C   0  0  0  0  0  0  0  0  0  0  0  0
   16.6206   -7.2595   18.6701 C   0  0  0  0  0  0  0  0  0  0  0  0
   15.9684   -8.3932   18.4142 N   0  0  0  0  0  0  0  0  0  0  0  0
   14.8565   -7.9674   17.7592 N   0  0  0  0  0  0  0  0  0  0  0  0
   13.8707   -8.9281   17.2828 C   0  0  0  0  0  0  0  0  0  0  0  0
   12.6837   -8.8077   17.9366 F   0  0  0  0  0  0  0  0  0  0  0  0
   13.5998   -8.7517   15.9572 F   0  0  0  0  0  0  0  0  0  0  0  0
  2  1  1  6
  2  3  1  0
  4  3  1  6
  4  5  1  0
  5  6  1  0
  6  7  1  0
  7  8  1  0
  8  9  2  0
  9 10  1  0
 10 11  2  0
 11 12  1  0
 12 13  1  0
 12 14  1  0
 12 15  1  0
 11 16  1  0
 16 17  2  0
 17 18  1  0
  7 19  1  0
  2 20  1  0
 20 21  2  0
 21 22  1  0
 22 23  2  0
 23 24  1  0
 24 25  2  0
 25 26  1  0
 26 27  2  0
 27 28  1  0
 28 29  1  0
 29 30  1  0
 29 31  1  0
 19  4  1  0
 25 20  1  0
 17  8  1  0
 28 24  1  0
M  END
>  <energy_score>  (4659) 
-47.55476

>  <inchikey>  (4659) 
XEPDZTJRPVZLAW-UHFFFAOYSA-N

>  <smiles>  (4659) 
OC(NC1CCN(c2ncc(C(F)(F)F)cc2Cl)C1)c1cccc2c1cnn2C(F)F

>  <ref_pdb>  (4659) 
A3181a

>  <alias>  (4659) 
XEPDZTJRPVZLAW-UHFFFAOYSA-N-P103-P12-P103-601509

>  <HIPPO Pose ID>  (4659) 
516229

>  <name>  (4659) 
XEPDZTJRPVZLAW-UHFFFAOYSA-N-P103-P12-P103-601509

>  <HIPPO Compound ID>  (4659) 
293500

>  <ref_mols>  (4659) 
A0497a,A1105b

>  <distance_score>  (4659) 
1.921507

>  <inspiration_score>  (4659) 
None

$$$$
LWCGQZUDNWYOQC-UHFFFAOYSA-N-P12-P12-P103-601509
     RDKit          3D

 31 35  0  0  0  0  0  0  0  0999 V2000
   15.9695   -9.1270   17.6578 C   0  0  0  0  0  0  0  0  0  0  0  0
   17.1190   -8.6322   16.9381 N   0  0  0  0  0  0  0  0  0  0  0  0
   18.3723   -8.4241   17.4443 C   0  0  0  0  0  0  0  0  0  0  0  0
   19.0907   -7.8893   16.4077 C   0  0  0  0  0  0  0  0  0  0  0  0
   20.4382   -7.5009   16.4377 C   0  0  0  0  0  0  0  0  0  0  0  0
   21.4099   -7.6948   17.5686 C   0  0  0  0  0  0  0  0  0  0  0  0
   22.6293   -6.8851   17.4576 N   0  0  0  0  0  0  0  0  0  0  0  0
   22.5597   -5.6631   18.2750 C   0  0  0  0  0  0  0  0  0  0  0  0
   23.0354   -5.9235   19.7070 C   0  0  0  0  0  0  0  0  0  0  0  0
   22.9294   -4.6525   20.5578 C   0  0  0  0  0  0  0  0  0  0  0  0
   22.8096   -3.4264   19.7520 N   0  0  0  0  0  0  0  0  0  0  0  0
   22.7619   -2.2079   20.5874 C   0  0  1  0  0  0  0  0  0  0  0  0
   22.4873   -0.9175   19.8030 C   0  0  0  0  0  0  0  0  0  0  0  0
   20.9939   -1.0082   19.4994 C   0  0  0  0  0  0  0  0  0  0  0  0
   20.3947   -1.6462   20.6961 N   0  0  0  0  0  0  0  0  0  0  0  0
   19.4664   -2.6370   20.2940 C   0  0  0  0  0  0  0  0  0  0  0  0
   18.3205   -2.2376   19.5990 C   0  0  0  0  0  0  0  0  0  0  0  0
   17.4591   -3.1896   19.0655 C   0  0  0  0  0  0  0  0  0  0  0  0
   17.7883   -4.5224   19.1938 C   0  0  0  0  0  0  0  0  0  0  0  0
   16.8740   -5.7033   18.3666 Cl  0  0  0  0  0  0  0  0  0  0  0  0
   18.8844   -4.8526   19.9632 C   0  0  0  0  0  0  0  0  0  0  0  0
   19.6946   -3.9419   20.5503 N   0  0  0  0  0  0  0  0  0  0  0  0
   21.5153   -2.1456   21.5299 C   0  0  0  0  0  0  0  0  0  0  0  0
   23.7766   -3.4410   18.6575 C   0  0  0  0  0  0  0  0  0  0  0  0
   23.4494   -4.5697   17.6595 C   0  0  0  0  0  0  0  0  0  0  0  0
   20.8306   -7.0431   15.1489 C   0  0  0  0  0  0  0  0  0  0  0  0
   19.9764   -7.0117   14.0046 C   0  0  0  0  0  0  0  0  0  0  0  0
   20.7014   -6.3821   12.3619 Br  0  0  0  0  0  0  0  0  0  0  0  0
   18.6357   -7.4332   14.0120 C   0  0  0  0  0  0  0  0  0  0  0  0
   18.2004   -7.8717   15.2690 C   0  0  0  0  0  0  0  0  0  0  0  0
   16.9972   -8.3529   15.6264 N   0  0  0  0  0  0  0  0  0  0  0  0
  1  2  1  0
  2  3  1  0
  3  4  2  0
  4  5  1  0
  5  6  1  0
  6  7  1  0
  7  8  1  0
  8  9  1  0
  9 10  1  0
 10 11  1  0
 12 11  1  6
 12 13  1  0
 13 14  1  0
 14 15  1  0
 15 16  1  0
 16 17  2  0
 17 18  1  0
 18 19  2  0
 19 20  1  0
 19 21  1  0
 21 22  2  0
 15 23  1  0
 11 24  1  0
 24 25  1  0
  5 26  2  0
 26 27  1  0
 27 28  1  0
 27 29  2  0
 29 30  1  0
 30 31  2  0
 31  2  1  0
 30  4  1  0
 25  8  1  0
 23 12  1  0
 22 16  1  0
M  END
>  <energy_score>  (4660) 
-69.104079

>  <inchikey>  (4660) 
LWCGQZUDNWYOQC-UHFFFAOYSA-N

>  <smiles>  (4660) 
Cn1cc2c(CNC3CCN(C4CCN(c5ccc(Cl)cn5)C4)CC3)cc(Br)cc2n1

>  <ref_pdb>  (4660) 
A3181a

>  <alias>  (4660) 
LWCGQZUDNWYOQC-UHFFFAOYSA-N-P12-P12-P103-601509

>  <HIPPO Pose ID>  (4660) 
516230

>  <name>  (4660) 
LWCGQZUDNWYOQC-UHFFFAOYSA-N-P12-P12-P103-601509

>  <HIPPO Compound ID>  (4660) 
293501

>  <ref_mols>  (4660) 
A0497a,A1105b

>  <distance_score>  (4660) 
1.596047

>  <inspiration_score>  (4660) 
None

$$$$
LWCGQZUDNWYOQC-UHFFFAOYSA-N-P103-P12-P103-601509
     RDKit          3D

 31 35  0  0  0  0  0  0  0  0999 V2000
   15.7043   -9.0782   17.6417 C   0  0  0  0  0  0  0  0  0  0  0  0
   16.9616   -8.7215   17.0277 N   0  0  0  0  0  0  0  0  0  0  0  0
   18.1549   -8.5259   17.6656 C   0  0  0  0  0  0  0  0  0  0  0  0
   19.0202   -8.1228   16.6829 C   0  0  0  0  0  0  0  0  0  0  0  0
   20.3760   -7.8034   16.8474 C   0  0  0  0  0  0  0  0  0  0  0  0
   21.1884   -8.0157   18.0934 C   0  0  0  0  0  0  0  0  0  0  0  0
   22.4887   -7.3344   18.1000 N   0  0  0  0  0  0  0  0  0  0  0  0
   22.4662   -6.1374   18.9529 C   0  0  0  0  0  0  0  0  0  0  0  0
   22.6349   -6.4833   20.4371 C   0  0  0  0  0  0  0  0  0  0  0  0
   22.5056   -5.2169   21.2915 C   0  0  0  0  0  0  0  0  0  0  0  0
   22.7364   -3.9904   20.5146 N   0  0  0  0  0  0  0  0  0  0  0  0
   22.6189   -2.7634   21.3238 C   0  0  1  0  0  0  0  0  0  0  0  0
   22.7184   -1.4647   20.5103 C   0  0  0  0  0  0  0  0  0  0  0  0
   21.3788   -1.4161   19.7768 C   0  0  0  0  0  0  0  0  0  0  0  0
   20.4040   -1.9968   20.7308 N   0  0  0  0  0  0  0  0  0  0  0  0
   19.5070   -2.8901   20.1065 C   0  0  0  0  0  0  0  0  0  0  0  0
   18.8070   -2.4616   18.9769 C   0  0  0  0  0  0  0  0  0  0  0  0
   17.9519   -3.3174   18.2958 C   0  0  0  0  0  0  0  0  0  0  0  0
   17.7670   -4.5894   18.7788 C   0  0  0  0  0  0  0  0  0  0  0  0
   16.6570   -5.6113   17.9790 Cl  0  0  0  0  0  0  0  0  0  0  0  0
   18.4567   -4.9534   19.9206 C   0  0  0  0  0  0  0  0  0  0  0  0
   19.2980   -4.1306   20.5990 N   0  0  0  0  0  0  0  0  0  0  0  0
   21.1703   -2.5489   21.8706 C   0  0  0  0  0  0  0  0  0  0  0  0
   23.8991   -4.1348   19.6478 C   0  0  0  0  0  0  0  0  0  0  0  0
   23.6068   -5.1829   18.5547 C   0  0  0  0  0  0  0  0  0  0  0  0
   20.9389   -7.4397   15.5934 C   0  0  0  0  0  0  0  0  0  0  0  0
   20.2296   -7.4600   14.3536 C   0  0  0  0  0  0  0  0  0  0  0  0
   21.1765   -6.9784   12.7753 Br  0  0  0  0  0  0  0  0  0  0  0  0
   18.8850   -7.8511   14.2248 C   0  0  0  0  0  0  0  0  0  0  0  0
   18.2761   -8.1646   15.4463 C   0  0  0  0  0  0  0  0  0  0  0  0
   17.0199   -8.5783   15.6895 N   0  0  0  0  0  0  0  0  0  0  0  0
  1  2  1  0
  2  3  1  0
  3  4  2  0
  4  5  1  0
  5  6  1  0
  6  7  1  0
  7  8  1  0
  8  9  1  0
  9 10  1  0
 10 11  1  0
 12 11  1  6
 12 13  1  0
 13 14  1  0
 14 15  1  0
 15 16  1  0
 16 17  2  0
 17 18  1  0
 18 19  2  0
 19 20  1  0
 19 21  1  0
 21 22  2  0
 15 23  1  0
 11 24  1  0
 24 25  1  0
  5 26  2  0
 26 27  1  0
 27 28  1  0
 27 29  2  0
 29 30  1  0
 30 31  2  0
 31  2  1  0
 30  4  1  0
 25  8  1  0
 23 12  1  0
 22 16  1  0
M  END
>  <energy_score>  (4661) 
-69.024232

>  <inchikey>  (4661) 
LWCGQZUDNWYOQC-UHFFFAOYSA-N

>  <smiles>  (4661) 
Cn1cc2c(CNC3CCN(C4CCN(c5ccc(Cl)cn5)C4)CC3)cc(Br)cc2n1

>  <ref_pdb>  (4661) 
A3181a

>  <alias>  (4661) 
LWCGQZUDNWYOQC-UHFFFAOYSA-N-P103-P12-P103-601509

>  <HIPPO Pose ID>  (4661) 
516231

>  <name>  (4661) 
LWCGQZUDNWYOQC-UHFFFAOYSA-N-P103-P12-P103-601509

>  <HIPPO Compound ID>  (4661) 
293501

>  <ref_mols>  (4661) 
A0497a,A1105b

>  <distance_score>  (4661) 
1.434483

>  <inspiration_score>  (4661) 
None

$$$$
AHRPZNQDJBAHLN-UHFFFAOYSA-N-P12-P12-P103-601509
     RDKit          3D

 31 34  0  0  0  0  0  0  0  0999 V2000
   18.5587   -2.2418   19.3828 C   0  0  0  0  0  0  0  0  0  0  0  0
   18.4830   -3.5580   18.8744 O   0  0  0  0  0  0  0  0  0  0  0  0
   17.5903   -4.4003   19.5523 C   0  0  2  0  0  0  0  0  0  0  0  0
   18.2955   -5.2217   20.5381 N   0  0  0  0  0  0  0  0  0  0  0  0
   19.6329   -5.7380   20.1797 C   0  0  2  0  0  0  0  0  0  0  0  0
   20.8197   -4.8145   19.8790 C   0  0  0  0  0  0  0  0  0  0  0  0
   21.2332   -5.1395   18.4352 C   0  0  0  0  0  0  0  0  0  0  0  0
   20.8786   -6.5588   18.2598 N   0  0  0  0  0  0  0  0  0  0  0  0
   20.6294   -6.9476   16.9125 C   0  0  0  0  0  0  0  0  0  0  0  0
   20.9029   -6.0769   15.9199 N   0  0  0  0  0  0  0  0  0  0  0  0
   20.3800   -6.2976   14.6970 C   0  0  0  0  0  0  0  0  0  0  0  0
   19.5376   -7.3481   14.3944 C   0  0  0  0  0  0  0  0  0  0  0  0
   18.9396   -7.4677   13.0323 C   0  0  0  0  0  0  0  0  0  0  0  0
   17.7696   -8.1669   13.0190 F   0  0  0  0  0  0  0  0  0  0  0  0
   18.6528   -6.2686   12.4474 F   0  0  0  0  0  0  0  0  0  0  0  0
   19.7627   -8.1133   12.1598 F   0  0  0  0  0  0  0  0  0  0  0  0
   19.3951   -8.3345   15.3570 C   0  0  0  0  0  0  0  0  0  0  0  0
   20.0072   -8.1724   16.5951 C   0  0  0  0  0  0  0  0  0  0  0  0
   19.9955   -9.5610   17.6320 Cl  0  0  0  0  0  0  0  0  0  0  0  0
   19.6624   -6.7710   19.0549 C   0  0  0  0  0  0  0  0  0  0  0  0
   16.4753   -4.9795   18.6415 C   0  0  0  0  0  0  0  0  0  0  0  0
   15.4643   -3.9927   18.2749 C   0  0  0  0  0  0  0  0  0  0  0  0
   14.2605   -4.2246   17.5496 C   0  0  0  0  0  0  0  0  0  0  0  0
   13.9169   -5.4760   17.0453 C   0  0  0  0  0  0  0  0  0  0  0  0
   14.8245   -6.4953   17.3617 C   0  0  0  0  0  0  0  0  0  0  0  0
   14.7350   -7.7797   16.9926 N   0  0  0  0  0  0  0  0  0  0  0  0
   15.6868   -8.3876   17.7016 N   0  0  0  0  0  0  0  0  0  0  0  0
   15.7883   -9.8267   17.6015 C   0  0  0  0  0  0  0  0  0  0  0  0
   16.3425   -7.5639   18.5895 C   0  0  0  0  0  0  0  0  0  0  0  0
   16.9982   -8.1814   19.7693 C   0  0  0  0  0  0  0  0  0  0  0  0
   16.0360   -6.2700   18.1790 C   0  0  0  0  0  0  0  0  0  0  0  0
  1  2  1  0
  2  3  1  0
  3  4  1  6
  5  4  1  6
  5  6  1  0
  6  7  1  0
  7  8  1  0
  8  9  1  0
  9 10  2  0
 10 11  1  0
 11 12  2  0
 12 13  1  0
 13 14  1  0
 13 15  1  0
 13 16  1  0
 12 17  1  0
 17 18  2  0
 18 19  1  0
  8 20  1  0
  3 21  1  0
 21 22  2  0
 22 23  1  0
 23 24  2  0
 24 25  1  0
 25 26  2  0
 26 27  1  0
 27 28  1  0
 27 29  1  0
 29 30  1  0
 29 31  2  0
 20  5  1  0
 31 21  1  0
 18  9  1  0
 31 25  1  0
M  END
>  <energy_score>  (4662) 
-4.33715

>  <inchikey>  (4662) 
AHRPZNQDJBAHLN-UHFFFAOYSA-N

>  <smiles>  (4662) 
COC(NC1CCN(c2ncc(C(F)(F)F)cc2Cl)C1)c1cccc2nn(C)c(C)c12

>  <ref_pdb>  (4662) 
A3181a

>  <alias>  (4662) 
AHRPZNQDJBAHLN-UHFFFAOYSA-N-P12-P12-P103-601509

>  <HIPPO Pose ID>  (4662) 
516232

>  <name>  (4662) 
AHRPZNQDJBAHLN-UHFFFAOYSA-N-P12-P12-P103-601509

>  <HIPPO Compound ID>  (4662) 
293502

>  <ref_mols>  (4662) 
A0497a,A1105b

>  <distance_score>  (4662) 
1.961577

>  <inspiration_score>  (4662) 
None

$$$$
AHRPZNQDJBAHLN-UHFFFAOYSA-N-P103-P12-P103-601509
     RDKit          3D

 31 34  0  0  0  0  0  0  0  0999 V2000
   18.1604   -2.1685   19.6368 C   0  0  0  0  0  0  0  0  0  0  0  0
   18.0240   -3.0820   18.5624 O   0  0  0  0  0  0  0  0  0  0  0  0
   17.7095   -4.3957   18.9981 C   0  0  2  0  0  0  0  0  0  0  0  0
   18.8297   -5.2639   18.7817 N   0  0  0  0  0  0  0  0  0  0  0  0
   20.1262   -4.8890   19.3436 C   0  0  2  0  0  0  0  0  0  0  0  0
   20.9067   -3.8261   18.5696 C   0  0  0  0  0  0  0  0  0  0  0  0
   21.4410   -4.5533   17.3258 C   0  0  0  0  0  0  0  0  0  0  0  0
   21.5371   -5.9846   17.7052 N   0  0  0  0  0  0  0  0  0  0  0  0
   20.7325   -6.8487   16.9136 C   0  0  0  0  0  0  0  0  0  0  0  0
   19.6520   -6.3473   16.2741 N   0  0  0  0  0  0  0  0  0  0  0  0
   18.7473   -7.1862   15.7225 C   0  0  0  0  0  0  0  0  0  0  0  0
   18.8700   -8.5516   15.7140 C   0  0  0  0  0  0  0  0  0  0  0  0
   17.8684   -9.4191   15.0269 C   0  0  0  0  0  0  0  0  0  0  0  0
   16.8699   -8.7432   14.3975 F   0  0  0  0  0  0  0  0  0  0  0  0
   18.4420  -10.1981   14.0648 F   0  0  0  0  0  0  0  0  0  0  0  0
   17.2613  -10.2901   15.8800 F   0  0  0  0  0  0  0  0  0  0  0  0
   20.0045   -9.0759   16.3261 C   0  0  0  0  0  0  0  0  0  0  0  0
   20.9411   -8.2305   16.9270 C   0  0  0  0  0  0  0  0  0  0  0  0
   22.3101   -8.9627   17.6911 Cl  0  0  0  0  0  0  0  0  0  0  0  0
   21.1048   -6.0771   19.1296 C   0  0  0  0  0  0  0  0  0  0  0  0
   16.4696   -4.9053   18.2633 C   0  0  0  0  0  0  0  0  0  0  0  0
   15.4780   -3.9584   17.8466 C   0  0  0  0  0  0  0  0  0  0  0  0
   14.2317   -4.2651   17.2367 C   0  0  0  0  0  0  0  0  0  0  0  0
   13.8301   -5.5746   16.9651 C   0  0  0  0  0  0  0  0  0  0  0  0
   14.7306   -6.5611   17.3817 C   0  0  0  0  0  0  0  0  0  0  0  0
   14.5961   -7.8896   17.2738 N   0  0  0  0  0  0  0  0  0  0  0  0
   15.5984   -8.3862   18.0094 N   0  0  0  0  0  0  0  0  0  0  0  0
   15.6029   -9.8097   18.2645 C   0  0  0  0  0  0  0  0  0  0  0  0
   16.4679   -7.4426   18.5077 C   0  0  0  0  0  0  0  0  0  0  0  0
   17.5557   -7.8254   19.4445 C   0  0  0  0  0  0  0  0  0  0  0  0
   15.9930   -6.2298   18.0282 C   0  0  0  0  0  0  0  0  0  0  0  0
  1  2  1  0
  2  3  1  0
  3  4  1  6
  5  4  1  6
  5  6  1  0
  6  7  1  0
  7  8  1  0
  8  9  1  0
  9 10  2  0
 10 11  1  0
 11 12  2  0
 12 13  1  0
 13 14  1  0
 13 15  1  0
 13 16  1  0
 12 17  1  0
 17 18  2  0
 18 19  1  0
  8 20  1  0
  3 21  1  0
 21 22  2  0
 22 23  1  0
 23 24  2  0
 24 25  1  0
 25 26  2  0
 26 27  1  0
 27 28  1  0
 27 29  1  0
 29 30  1  0
 29 31  2  0
 20  5  1  0
 31 21  1  0
 18  9  1  0
 31 25  1  0
M  END
>  <energy_score>  (4663) 
-40.849201

>  <inchikey>  (4663) 
AHRPZNQDJBAHLN-UHFFFAOYSA-N

>  <smiles>  (4663) 
COC(NC1CCN(c2ncc(C(F)(F)F)cc2Cl)C1)c1cccc2nn(C)c(C)c12

>  <ref_pdb>  (4663) 
A3181a

>  <alias>  (4663) 
AHRPZNQDJBAHLN-UHFFFAOYSA-N-P103-P12-P103-601509

>  <HIPPO Pose ID>  (4663) 
516233

>  <name>  (4663) 
AHRPZNQDJBAHLN-UHFFFAOYSA-N-P103-P12-P103-601509

>  <HIPPO Compound ID>  (4663) 
293502

>  <ref_mols>  (4663) 
A0497a,A1105b

>  <distance_score>  (4663) 
1.747225

>  <inspiration_score>  (4663) 
None

$$$$
HZSRUMMGEKPYAY-UHFFFAOYSA-N-P12-P12-P103-601509
     RDKit          3D

 31 35  0  0  0  0  0  0  0  0999 V2000
   15.7606   -7.9905   18.0075 C   0  0  0  0  0  0  0  0  0  0  0  0
   16.9423   -7.8356   17.1920 N   0  0  0  0  0  0  0  0  0  0  0  0
   18.2242   -7.6716   17.6325 C   0  0  0  0  0  0  0  0  0  0  0  0
   18.9773   -7.5009   16.5012 C   0  0  0  0  0  0  0  0  0  0  0  0
   20.3685   -7.3032   16.4398 C   0  0  0  0  0  0  0  0  0  0  0  0
   21.3402   -7.3869   17.5955 C   0  0  1  0  0  0  0  0  0  0  0  0
   21.6072   -8.7618   17.8411 O   0  0  0  0  0  0  0  0  0  0  0  0
   22.6285   -6.7470   17.3999 N   0  0  0  0  0  0  0  0  0  0  0  0
   22.6291   -5.3073   17.6447 C   0  0  0  0  0  0  0  0  0  0  0  0
   23.7511   -4.6047   16.8678 C   0  0  0  0  0  0  0  0  0  0  0  0
   23.7773   -3.0996   17.1962 C   0  0  0  0  0  0  0  0  0  0  0  0
   23.7170   -2.7771   18.6354 N   0  0  0  0  0  0  0  0  0  0  0  0
   22.6769   -1.7838   18.9769 C   0  0  2  0  0  0  0  0  0  0  0  0
   22.5125   -1.4370   20.4613 C   0  0  0  0  0  0  0  0  0  0  0  0
   21.1411   -0.7730   20.5112 C   0  0  0  0  0  0  0  0  0  0  0  0
   20.3074   -1.5039   19.5437 N   0  0  0  0  0  0  0  0  0  0  0  0
   19.6114   -2.6092   20.0950 C   0  0  0  0  0  0  0  0  0  0  0  0
   18.5795   -3.1892   19.3544 C   0  0  0  0  0  0  0  0  0  0  0  0
   18.0843   -4.4450   19.7067 C   0  0  0  0  0  0  0  0  0  0  0  0
   18.5850   -5.0589   20.8428 C   0  0  0  0  0  0  0  0  0  0  0  0
   18.1164   -6.6370   21.3271 Cl  0  0  0  0  0  0  0  0  0  0  0  0
   19.5238   -4.3731   21.5887 C   0  0  0  0  0  0  0  0  0  0  0  0
   20.0431   -3.1744   21.2395 N   0  0  0  0  0  0  0  0  0  0  0  0
   21.2231   -2.0357   18.4982 C   0  0  0  0  0  0  0  0  0  0  0  0
   23.8081   -3.9705   19.4738 C   0  0  0  0  0  0  0  0  0  0  0  0
   22.7763   -5.0501   19.1559 C   0  0  0  0  0  0  0  0  0  0  0  0
   20.7673   -7.2020   15.0750 C   0  0  0  0  0  0  0  0  0  0  0  0
   19.8919   -7.3131   13.9502 C   0  0  0  0  0  0  0  0  0  0  0  0
   18.5114   -7.5517   14.0656 C   0  0  0  0  0  0  0  0  0  0  0  0
   18.0623   -7.6371   15.3910 C   0  0  0  0  0  0  0  0  0  0  0  0
   16.8215   -7.8717   15.8514 N   0  0  0  0  0  0  0  0  0  0  0  0
  1  2  1  0
  2  3  1  0
  3  4  2  0
  4  5  1  0
  5  6  1  0
  6  7  1  6
  6  8  1  0
  8  9  1  0
  9 10  1  0
 10 11  1  0
 11 12  1  0
 13 12  1  1
 13 14  1  0
 14 15  1  0
 15 16  1  0
 16 17  1  0
 17 18  2  0
 18 19  1  0
 19 20  2  0
 20 21  1  0
 20 22  1  0
 22 23  2  0
 16 24  1  0
 12 25  1  0
 25 26  1  0
  5 27  2  0
 27 28  1  0
 28 29  2  0
 29 30  1  0
 30 31  2  0
 31  2  1  0
 30  4  1  0
 26  9  1  0
 24 13  1  0
 23 17  1  0
M  END
>  <energy_score>  (4664) 
-63.301575

>  <inchikey>  (4664) 
HZSRUMMGEKPYAY-UHFFFAOYSA-N

>  <smiles>  (4664) 
Cn1cc2c(C(O)NC3CCN(C4CCN(c5ccc(Cl)cn5)C4)CC3)cccc2n1

>  <ref_pdb>  (4664) 
A3181a

>  <alias>  (4664) 
HZSRUMMGEKPYAY-UHFFFAOYSA-N-P12-P12-P103-601509

>  <HIPPO Pose ID>  (4664) 
516234

>  <name>  (4664) 
HZSRUMMGEKPYAY-UHFFFAOYSA-N-P12-P12-P103-601509

>  <HIPPO Compound ID>  (4664) 
293503

>  <ref_mols>  (4664) 
A0497a,A1105b

>  <distance_score>  (4664) 
1.065752

>  <inspiration_score>  (4664) 
None

$$$$
HZSRUMMGEKPYAY-UHFFFAOYSA-N-P103-P12-P103-601509
     RDKit          3D

 31 35  0  0  0  0  0  0  0  0999 V2000
   15.1486   -7.9144   18.0920 C   0  0  0  0  0  0  0  0  0  0  0  0
   16.4867   -8.1428   17.5987 N   0  0  0  0  0  0  0  0  0  0  0  0
   17.5372   -8.6679   18.2927 C   0  0  0  0  0  0  0  0  0  0  0  0
   18.5908   -8.6760   17.4155 C   0  0  0  0  0  0  0  0  0  0  0  0
   19.8960   -9.1406   17.6542 C   0  0  0  0  0  0  0  0  0  0  0  0
   20.4714   -9.8334   18.8689 C   0  0  2  0  0  0  0  0  0  0  0  0
   19.5965   -9.9260   19.9673 O   0  0  0  0  0  0  0  0  0  0  0  0
   21.7435   -9.3298   19.3723 N   0  0  0  0  0  0  0  0  0  0  0  0
   21.8422   -7.8733   19.5728 C   0  0  0  0  0  0  0  0  0  0  0  0
   20.8075   -7.2747   20.5270 C   0  0  0  0  0  0  0  0  0  0  0  0
   21.0471   -5.7741   20.6906 C   0  0  0  0  0  0  0  0  0  0  0  0
   22.3935   -5.4856   21.2156 N   0  0  0  0  0  0  0  0  0  0  0  0
   22.6329   -4.0356   21.4390 C   0  0  2  0  0  0  0  0  0  0  0  0
   21.7598   -3.4227   22.5514 C   0  0  0  0  0  0  0  0  0  0  0  0
   21.4216   -2.0220   22.0507 C   0  0  0  0  0  0  0  0  0  0  0  0
   21.3999   -2.1271   20.5851 N   0  0  0  0  0  0  0  0  0  0  0  0
   20.1581   -2.4962   20.0308 C   0  0  0  0  0  0  0  0  0  0  0  0
   20.0272   -2.5779   18.6414 C   0  0  0  0  0  0  0  0  0  0  0  0
   18.8310   -3.0104   18.0722 C   0  0  0  0  0  0  0  0  0  0  0  0
   17.7662   -3.3188   18.8943 C   0  0  0  0  0  0  0  0  0  0  0  0
   16.2721   -3.8183   18.2227 Cl  0  0  0  0  0  0  0  0  0  0  0  0
   17.9482   -3.1781   20.2571 C   0  0  0  0  0  0  0  0  0  0  0  0
   19.1101   -2.7781   20.8348 N   0  0  0  0  0  0  0  0  0  0  0  0
   22.4748   -3.0713   20.2265 C   0  0  0  0  0  0  0  0  0  0  0  0
   23.4278   -6.0580   20.3386 C   0  0  0  0  0  0  0  0  0  0  0  0
   23.2414   -7.5622   20.1261 C   0  0  0  0  0  0  0  0  0  0  0  0
   20.6801   -8.9672   16.4691 C   0  0  0  0  0  0  0  0  0  0  0  0
   20.2159   -8.3992   15.2427 C   0  0  0  0  0  0  0  0  0  0  0  0
   18.8941   -7.9647   15.0530 C   0  0  0  0  0  0  0  0  0  0  0  0
   18.0750   -8.1228   16.1804 C   0  0  0  0  0  0  0  0  0  0  0  0
   16.7679   -7.8512   16.3174 N   0  0  0  0  0  0  0  0  0  0  0  0
  1  2  1  0
  2  3  1  0
  3  4  2  0
  4  5  1  0
  5  6  1  0
  6  7  1  1
  6  8  1  0
  8  9  1  0
  9 10  1  0
 10 11  1  0
 11 12  1  0
 13 12  1  6
 13 14  1  0
 14 15  1  0
 15 16  1  0
 16 17  1  0
 17 18  2  0
 18 19  1  0
 19 20  2  0
 20 21  1  0
 20 22  1  0
 22 23  2  0
 16 24  1  0
 12 25  1  0
 25 26  1  0
  5 27  2  0
 27 28  1  0
 28 29  2  0
 29 30  1  0
 30 31  2  0
 31  2  1  0
 30  4  1  0
 26  9  1  0
 24 13  1  0
 23 17  1  0
M  END
>  <energy_score>  (4665) 
-59.687186

>  <inchikey>  (4665) 
HZSRUMMGEKPYAY-UHFFFAOYSA-N

>  <smiles>  (4665) 
Cn1cc2c(C(O)NC3CCN(C4CCN(c5ccc(Cl)cn5)C4)CC3)cccc2n1

>  <ref_pdb>  (4665) 
A3181a

>  <alias>  (4665) 
HZSRUMMGEKPYAY-UHFFFAOYSA-N-P103-P12-P103-601509

>  <HIPPO Pose ID>  (4665) 
516235

>  <name>  (4665) 
HZSRUMMGEKPYAY-UHFFFAOYSA-N-P103-P12-P103-601509

>  <HIPPO Compound ID>  (4665) 
293503

>  <ref_mols>  (4665) 
A0497a,A1105b

>  <distance_score>  (4665) 
1.981789

>  <inspiration_score>  (4665) 
None

$$$$
QLOLLZMCJQCKKZ-UHFFFAOYSA-N-P103-P12-P103-601509
     RDKit          3D

 31 35  0  0  0  0  0  0  0  0999 V2000
   19.4637   -9.2103   10.5997 C   0  0  0  0  0  0  0  0  0  0  0  0
   19.6596   -9.2155   12.0609 C   0  0  0  0  0  0  0  0  0  0  0  0
   19.7317  -10.3486   12.7697 N   0  0  0  0  0  0  0  0  0  0  0  0
   19.9319   -9.8923   14.0744 O   0  0  0  0  0  0  0  0  0  0  0  0
   19.9554   -8.5251   14.0140 C   0  0  0  0  0  0  0  0  0  0  0  0
   20.1614   -7.8162   15.2624 C   0  0  0  0  0  0  0  0  0  0  0  0
   20.3993   -8.4477   16.4776 C   0  0  0  0  0  0  0  0  0  0  0  0
   20.6020   -7.6948   17.6381 C   0  0  0  0  0  0  0  0  0  0  0  0
   20.5470   -6.3077   17.5960 C   0  0  0  0  0  0  0  0  0  0  0  0
   20.7673   -5.5550   18.7509 N   0  0  0  0  0  0  0  0  0  0  0  0
   20.8171   -4.0868   18.6055 C   0  0  0  0  0  0  0  0  0  0  0  0
   20.1203   -3.5270   19.8464 C   0  0  0  0  0  0  0  0  0  0  0  0
   19.1742   -4.6353   20.3001 C   0  0  1  0  0  0  0  0  0  0  0  0
   17.7998   -4.5656   19.7867 N   0  0  0  0  0  0  0  0  0  0  0  0
   17.6390   -4.7650   18.3576 C   0  0  2  0  0  0  0  0  0  0  0  0
   18.0329   -3.5713   17.7083 O   0  0  0  0  0  0  0  0  0  0  0  0
   16.2125   -5.0490   17.9839 C   0  0  0  0  0  0  0  0  0  0  0  0
   15.3090   -3.9684   17.7761 C   0  0  0  0  0  0  0  0  0  0  0  0
   14.0110   -4.1021   17.2412 C   0  0  0  0  0  0  0  0  0  0  0  0
   13.4688   -5.3364   16.8848 C   0  0  0  0  0  0  0  0  0  0  0  0
   14.2656   -6.4476   17.1596 C   0  0  0  0  0  0  0  0  0  0  0  0
   14.0007   -7.7416   16.9316 N   0  0  0  0  0  0  0  0  0  0  0  0
   15.0514   -8.3904   17.4531 N   0  0  0  0  0  0  0  0  0  0  0  0
   15.0385   -9.8355   17.4320 C   0  0  0  0  0  0  0  0  0  0  0  0
   16.0228   -7.5723   17.9806 C   0  0  0  0  0  0  0  0  0  0  0  0
   17.1701   -8.1084   18.7354 C   0  0  0  0  0  0  0  0  0  0  0  0
   15.5883   -6.2904   17.7134 C   0  0  0  0  0  0  0  0  0  0  0  0
   19.9727   -5.9034   19.9383 C   0  0  0  0  0  0  0  0  0  0  0  0
   20.3222   -5.6969   16.4187 N   0  0  0  0  0  0  0  0  0  0  0  0
   20.1450   -6.4404   15.2981 C   0  0  0  0  0  0  0  0  0  0  0  0
   19.7820   -8.0636   12.7932 N   0  0  0  0  0  0  0  0  0  0  0  0
  1  2  1  0
  2  3  2  0
  3  4  1  0
  4  5  1  0
  5  6  1  0
  6  7  2  0
  7  8  1  0
  8  9  2  0
  9 10  1  0
 10 11  1  0
 11 12  1  0
 12 13  1  0
 13 14  1  6
 14 15  1  0
 15 16  1  6
 15 17  1  0
 17 18  2  0
 18 19  1  0
 19 20  2  0
 20 21  1  0
 21 22  2  0
 22 23  1  0
 23 24  1  0
 23 25  1  0
 25 26  1  0
 25 27  2  0
 13 28  1  0
  9 29  1  0
 29 30  2  0
  5 31  2  0
 31  2  1  0
 30  6  1  0
 28 10  1  0
 27 17  1  0
 27 21  1  0
M  END
>  <energy_score>  (4666) 
-48.9068

>  <inchikey>  (4666) 
QLOLLZMCJQCKKZ-UHFFFAOYSA-N

>  <smiles>  (4666) 
Cc1noc(-c2ccc(N3CCC(NC(O)c4cccc5nn(C)c(C)c45)C3)nc2)n1

>  <ref_pdb>  (4666) 
A3181a

>  <alias>  (4666) 
QLOLLZMCJQCKKZ-UHFFFAOYSA-N-P103-P12-P103-601509

>  <HIPPO Pose ID>  (4666) 
516237

>  <name>  (4666) 
QLOLLZMCJQCKKZ-UHFFFAOYSA-N-P103-P12-P103-601509

>  <HIPPO Compound ID>  (4666) 
293504

>  <ref_mols>  (4666) 
A0497a,A1105b

>  <distance_score>  (4666) 
1.877554

>  <inspiration_score>  (4666) 
None

$$$$
HUUUHJMWNHAQRQ-UHFFFAOYSA-N-P12-P12-P103-601509
     RDKit          3D

 31 34  0  0  0  0  0  0  0  0999 V2000
   16.4567   -8.7082   13.5289 C   0  0  0  0  0  0  0  0  0  0  0  0
   17.6283   -8.0942   13.0032 O   0  0  0  0  0  0  0  0  0  0  0  0
   18.5691   -7.7357   13.9505 C   0  0  0  0  0  0  0  0  0  0  0  0
   19.8536   -7.4266   13.4701 C   0  0  0  0  0  0  0  0  0  0  0  0
   20.9415   -7.0575   14.3124 C   0  0  0  0  0  0  0  0  0  0  0  0
   20.8862   -6.9407   15.7314 C   0  0  0  0  0  0  0  0  0  0  0  0
   22.1913   -6.6719   16.4721 C   0  0  2  0  0  0  0  0  0  0  0  0
   22.1914   -7.1328   17.8072 O   0  0  0  0  0  0  0  0  0  0  0  0
   22.7086   -5.3061   16.3604 N   0  0  0  0  0  0  0  0  0  0  0  0
   22.0066   -4.3882   17.2439 C   0  0  2  0  0  0  0  0  0  0  0  0
   22.1198   -2.9130   16.8497 C   0  0  0  0  0  0  0  0  0  0  0  0
   21.4558   -2.2194   18.0571 C   0  0  0  0  0  0  0  0  0  0  0  0
   21.6673   -3.1309   19.2003 N   0  0  0  0  0  0  0  0  0  0  0  0
   20.5137   -3.6197   19.8499 C   0  0  0  0  0  0  0  0  0  0  0  0
   20.5836   -4.9236   20.2170 N   0  0  0  0  0  0  0  0  0  0  0  0
   19.6920   -5.4703   21.0461 C   0  0  0  0  0  0  0  0  0  0  0  0
   18.6200   -4.7841   21.5408 C   0  0  0  0  0  0  0  0  0  0  0  0
   17.8680   -5.4210   22.6511 C   0  0  0  0  0  0  0  0  0  0  0  0
   16.7099   -4.8029   22.9427 F   0  0  0  0  0  0  0  0  0  0  0  0
   18.5749   -5.4783   23.8112 F   0  0  0  0  0  0  0  0  0  0  0  0
   17.5226   -6.7146   22.3728 F   0  0  0  0  0  0  0  0  0  0  0  0
   18.4278   -3.4825   21.0788 C   0  0  0  0  0  0  0  0  0  0  0  0
   19.3995   -2.8718   20.2634 C   0  0  0  0  0  0  0  0  0  0  0  0
   19.2265   -1.1634   20.0451 Cl  0  0  0  0  0  0  0  0  0  0  0  0
   22.5235   -4.2428   18.6870 C   0  0  0  0  0  0  0  0  0  0  0  0
   19.5670   -7.1840   16.1724 C   0  0  0  0  0  0  0  0  0  0  0  0
   19.0834   -7.0776   17.4503 C   0  0  0  0  0  0  0  0  0  0  0  0
   17.7572   -7.3847   17.3659 N   0  0  0  0  0  0  0  0  0  0  0  0
   16.7917   -7.3393   18.4353 C   0  0  0  0  0  0  0  0  0  0  0  0
   17.3528   -7.7735   16.1459 N   0  0  0  0  0  0  0  0  0  0  0  0
   18.4253   -7.5867   15.3514 C   0  0  0  0  0  0  0  0  0  0  0  0
  1  2  1  0
  2  3  1  0
  3  4  2  0
  4  5  1  0
  5  6  2  0
  6  7  1  0
  7  8  1  1
  7  9  1  0
 10  9  1  6
 10 11  1  0
 11 12  1  0
 12 13  1  0
 13 14  1  0
 14 15  2  0
 15 16  1  0
 16 17  2  0
 17 18  1  0
 18 19  1  0
 18 20  1  0
 18 21  1  0
 17 22  1  0
 22 23  2  0
 23 24  1  0
 13 25  1  0
  6 26  1  0
 26 27  2  0
 27 28  1  0
 28 29  1  0
 28 30  1  0
 30 31  2  0
 31  3  1  0
 25 10  1  0
 31 26  1  0
 23 14  1  0
M  END
>  <energy_score>  (4667) 
-36.768692

>  <inchikey>  (4667) 
HUUUHJMWNHAQRQ-UHFFFAOYSA-N

>  <smiles>  (4667) 
COc1ccc(C(O)NC2CCN(c3ncc(C(F)(F)F)cc3Cl)C2)c2cn(C)nc12

>  <ref_pdb>  (4667) 
A3181a

>  <alias>  (4667) 
HUUUHJMWNHAQRQ-UHFFFAOYSA-N-P12-P12-P103-601509

>  <HIPPO Pose ID>  (4667) 
516238

>  <name>  (4667) 
HUUUHJMWNHAQRQ-UHFFFAOYSA-N-P12-P12-P103-601509

>  <HIPPO Compound ID>  (4667) 
293505

>  <ref_mols>  (4667) 
A0497a,A1105b

>  <distance_score>  (4667) 
1.851977

>  <inspiration_score>  (4667) 
None

$$$$
OCNNHGNAZQPDFQ-UHFFFAOYSA-N-P12-P12-P103-601509
     RDKit          3D

 31 35  0  0  0  0  0  0  0  0999 V2000
   17.6953   -8.6536   11.4855 C   0  0  0  0  0  0  0  0  0  0  0  0
   17.9395   -8.5446   12.9353 C   0  0  0  0  0  0  0  0  0  0  0  0
   17.1803   -9.1774   13.8373 N   0  0  0  0  0  0  0  0  0  0  0  0
   17.7539   -8.8001   15.0527 O   0  0  0  0  0  0  0  0  0  0  0  0
   18.8151   -7.9884   14.7510 C   0  0  0  0  0  0  0  0  0  0  0  0
   19.5760   -7.4658   15.8658 C   0  0  0  0  0  0  0  0  0  0  0  0
   20.4558   -6.4012   15.7237 C   0  0  0  0  0  0  0  0  0  0  0  0
   21.0563   -5.8377   16.8524 C   0  0  0  0  0  0  0  0  0  0  0  0
   20.7360   -6.3143   18.1245 C   0  0  0  0  0  0  0  0  0  0  0  0
   21.0640   -5.5964   19.2824 N   0  0  0  0  0  0  0  0  0  0  0  0
   20.9136   -4.1192   19.2106 C   0  0  0  0  0  0  0  0  0  0  0  0
   20.1493   -3.7131   20.4723 C   0  0  0  0  0  0  0  0  0  0  0  0
   19.3516   -4.9574   20.8536 C   0  0  1  0  0  0  0  0  0  0  0  0
   18.0024   -5.1794   20.2936 N   0  0  0  0  0  0  0  0  0  0  0  0
   17.7544   -4.7939   18.9147 C   0  0  2  0  0  0  0  0  0  0  0  0
   17.8808   -3.3941   18.7679 O   0  0  0  0  0  0  0  0  0  0  0  0
   16.3789   -5.2010   18.4270 C   0  0  0  0  0  0  0  0  0  0  0  0
   15.3177   -4.2586   18.2333 C   0  0  0  0  0  0  0  0  0  0  0  0
   14.0685   -4.5689   17.6293 C   0  0  0  0  0  0  0  0  0  0  0  0
   13.2008   -3.5703   17.4625 F   0  0  0  0  0  0  0  0  0  0  0  0
   13.7028   -5.8350   17.1626 C   0  0  0  0  0  0  0  0  0  0  0  0
   14.6543   -6.8148   17.4419 C   0  0  0  0  0  0  0  0  0  0  0  0
   14.6010   -8.1367   17.2076 N   0  0  0  0  0  0  0  0  0  0  0  0
   15.7102   -8.6264   17.7852 N   0  0  0  0  0  0  0  0  0  0  0  0
   15.9096  -10.0552   17.8111 C   0  0  0  0  0  0  0  0  0  0  0  0
   16.5349   -7.6748   18.3112 C   0  0  0  0  0  0  0  0  0  0  0  0
   15.9227   -6.4796   18.0538 C   0  0  0  0  0  0  0  0  0  0  0  0
   20.3942   -6.0568   20.5148 C   0  0  0  0  0  0  0  0  0  0  0  0
   20.0259   -7.4577   18.2454 N   0  0  0  0  0  0  0  0  0  0  0  0
   19.4748   -7.9990   17.1336 C   0  0  0  0  0  0  0  0  0  0  0  0
   18.9545   -7.7870   13.4589 N   0  0  0  0  0  0  0  0  0  0  0  0
  1  2  1  0
  2  3  2  0
  3  4  1  0
  4  5  1  0
  5  6  1  0
  6  7  2  0
  7  8  1  0
  8  9  2  0
  9 10  1  0
 10 11  1  0
 11 12  1  0
 12 13  1  0
 13 14  1  6
 14 15  1  0
 15 16  1  1
 15 17  1  0
 17 18  2  0
 18 19  1  0
 19 20  1  0
 19 21  2  0
 21 22  1  0
 22 23  2  0
 23 24  1  0
 24 25  1  0
 24 26  1  0
 26 27  2  0
 13 28  1  0
  9 29  1  0
 29 30  2  0
  5 31  2  0
 31  2  1  0
 30  6  1  0
 28 10  1  0
 27 17  1  0
 27 22  1  0
M  END
>  <energy_score>  (4668) 
-48.912818

>  <inchikey>  (4668) 
OCNNHGNAZQPDFQ-UHFFFAOYSA-N

>  <smiles>  (4668) 
Cc1noc(-c2ccc(N3CCC(NC(O)c4cc(F)cc5nn(C)cc45)C3)nc2)n1

>  <ref_pdb>  (4668) 
A3181a

>  <alias>  (4668) 
OCNNHGNAZQPDFQ-UHFFFAOYSA-N-P12-P12-P103-601509

>  <HIPPO Pose ID>  (4668) 
516240

>  <name>  (4668) 
OCNNHGNAZQPDFQ-UHFFFAOYSA-N-P12-P12-P103-601509

>  <HIPPO Compound ID>  (4668) 
293506

>  <ref_mols>  (4668) 
A0497a,A1105b

>  <distance_score>  (4668) 
1.103685

>  <inspiration_score>  (4668) 
None

$$$$
OCNNHGNAZQPDFQ-UHFFFAOYSA-N-P103-P12-P103-601509
     RDKit          3D

 31 35  0  0  0  0  0  0  0  0999 V2000
   17.6929   -9.4124   11.6314 C   0  0  0  0  0  0  0  0  0  0  0  0
   17.9122   -9.0441   13.0420 C   0  0  0  0  0  0  0  0  0  0  0  0
   17.1048   -9.4629   14.0235 N   0  0  0  0  0  0  0  0  0  0  0  0
   17.6728   -8.8909   15.1641 O   0  0  0  0  0  0  0  0  0  0  0  0
   18.7745   -8.1932   14.7456 C   0  0  0  0  0  0  0  0  0  0  0  0
   19.5439   -7.5179   15.7677 C   0  0  0  0  0  0  0  0  0  0  0  0
   20.3541   -6.4269   15.4804 C   0  0  0  0  0  0  0  0  0  0  0  0
   20.9865   -5.7336   16.5149 C   0  0  0  0  0  0  0  0  0  0  0  0
   20.7655   -6.1089   17.8407 C   0  0  0  0  0  0  0  0  0  0  0  0
   21.0982   -5.2704   18.9118 N   0  0  0  0  0  0  0  0  0  0  0  0
   20.9603   -3.8057   18.6951 C   0  0  0  0  0  0  0  0  0  0  0  0
   20.1926   -3.2697   19.9073 C   0  0  0  0  0  0  0  0  0  0  0  0
   19.4058   -4.4674   20.4260 C   0  0  1  0  0  0  0  0  0  0  0  0
   18.0449   -4.7082   19.9035 N   0  0  0  0  0  0  0  0  0  0  0  0
   17.8325   -4.6170   18.4679 C   0  0  2  0  0  0  0  0  0  0  0  0
   18.0693   -3.3090   17.9825 O   0  0  0  0  0  0  0  0  0  0  0  0
   16.4406   -5.0279   18.0764 C   0  0  0  0  0  0  0  0  0  0  0  0
   15.4253   -4.0810   17.7925 C   0  0  0  0  0  0  0  0  0  0  0  0
   14.1518   -4.4139   17.2740 C   0  0  0  0  0  0  0  0  0  0  0  0
   13.3486   -3.4042   16.9355 F   0  0  0  0  0  0  0  0  0  0  0  0
   13.7187   -5.7163   17.0139 C   0  0  0  0  0  0  0  0  0  0  0  0
   14.6417   -6.6929   17.3818 C   0  0  0  0  0  0  0  0  0  0  0  0
   14.5433   -8.0306   17.3071 N   0  0  0  0  0  0  0  0  0  0  0  0
   15.6678   -8.4818   17.8895 N   0  0  0  0  0  0  0  0  0  0  0  0
   15.8407   -9.9033   18.0651 C   0  0  0  0  0  0  0  0  0  0  0  0
   16.5402   -7.5000   18.2609 C   0  0  0  0  0  0  0  0  0  0  0  0
   15.9386   -6.3271   17.8962 C   0  0  0  0  0  0  0  0  0  0  0  0
   20.4379   -5.6008   20.1901 C   0  0  0  0  0  0  0  0  0  0  0  0
   20.1187   -7.2685   18.1047 N   0  0  0  0  0  0  0  0  0  0  0  0
   19.5302   -7.9337   17.0829 C   0  0  0  0  0  0  0  0  0  0  0  0
   18.9496   -8.2438   13.4431 N   0  0  0  0  0  0  0  0  0  0  0  0
  1  2  1  0
  2  3  2  0
  3  4  1  0
  4  5  1  0
  5  6  1  0
  6  7  2  0
  7  8  1  0
  8  9  2  0
  9 10  1  0
 10 11  1  0
 11 12  1  0
 12 13  1  0
 13 14  1  6
 14 15  1  0
 15 16  1  1
 15 17  1  0
 17 18  2  0
 18 19  1  0
 19 20  1  0
 19 21  2  0
 21 22  1  0
 22 23  2  0
 23 24  1  0
 24 25  1  0
 24 26  1  0
 26 27  2  0
 13 28  1  0
  9 29  1  0
 29 30  2  0
  5 31  2  0
 31  2  1  0
 30  6  1  0
 28 10  1  0
 27 17  1  0
 27 22  1  0
M  END
>  <energy_score>  (4669) 
-49.675689

>  <inchikey>  (4669) 
OCNNHGNAZQPDFQ-UHFFFAOYSA-N

>  <smiles>  (4669) 
Cc1noc(-c2ccc(N3CCC(NC(O)c4cc(F)cc5nn(C)cc45)C3)nc2)n1

>  <ref_pdb>  (4669) 
A3181a

>  <alias>  (4669) 
OCNNHGNAZQPDFQ-UHFFFAOYSA-N-P103-P12-P103-601509

>  <HIPPO Pose ID>  (4669) 
516241

>  <name>  (4669) 
OCNNHGNAZQPDFQ-UHFFFAOYSA-N-P103-P12-P103-601509

>  <HIPPO Compound ID>  (4669) 
293506

>  <ref_mols>  (4669) 
A0497a,A1105b

>  <distance_score>  (4669) 
1.082887

>  <inspiration_score>  (4669) 
None

$$$$
VOUYSJXOJLZLEG-UHFFFAOYSA-N-P12-P12-P103-601509
     RDKit          3D

 31 35  0  0  0  0  0  0  0  0999 V2000
   17.1527   -8.5559   11.4947 C   0  0  0  0  0  0  0  0  0  0  0  0
   17.5003   -8.3476   12.9124 C   0  0  0  0  0  0  0  0  0  0  0  0
   16.6906   -8.7233   13.9100 N   0  0  0  0  0  0  0  0  0  0  0  0
   17.4113   -8.3611   15.0519 O   0  0  0  0  0  0  0  0  0  0  0  0
   18.5778   -7.7874   14.6156 C   0  0  0  0  0  0  0  0  0  0  0  0
   19.4857   -7.2931   15.6280 C   0  0  0  0  0  0  0  0  0  0  0  0
   20.4892   -6.3718   15.3440 C   0  0  0  0  0  0  0  0  0  0  0  0
   21.2787   -5.8468   16.3725 C   0  0  0  0  0  0  0  0  0  0  0  0
   21.0428   -6.2297   17.6910 C   0  0  0  0  0  0  0  0  0  0  0  0
   21.6874   -5.5628   18.7598 N   0  0  0  0  0  0  0  0  0  0  0  0
   21.4018   -4.0975   18.7691 C   0  0  0  0  0  0  0  0  0  0  0  0
   20.8084   -3.7925   20.1491 C   0  0  0  0  0  0  0  0  0  0  0  0
   20.1897   -5.1154   20.5927 C   0  0  1  0  0  0  0  0  0  0  0  0
   18.9644   -5.5998   19.9599 N   0  0  0  0  0  0  0  0  0  0  0  0
   17.9175   -4.7125   19.5742 C   0  0  1  0  0  0  0  0  0  0  0  0
   18.3647   -3.5862   18.8620 O   0  0  0  0  0  0  0  0  0  0  0  0
   16.8613   -5.4628   18.7620 C   0  0  0  0  0  0  0  0  0  0  0  0
   15.7947   -4.6727   18.3192 C   0  0  0  0  0  0  0  0  0  0  0  0
   14.6931   -5.2385   17.7030 C   0  0  0  0  0  0  0  0  0  0  0  0
   13.3872   -4.0597   17.2006 Br  0  0  0  0  0  0  0  0  0  0  0  0
   14.5488   -6.5944   17.4606 C   0  0  0  0  0  0  0  0  0  0  0  0
   15.5490   -7.3977   17.9959 C   0  0  0  0  0  0  0  0  0  0  0  0
   16.6600   -6.8768   18.6663 C   0  0  0  0  0  0  0  0  0  0  0  0
   17.2618   -8.0333   19.2340 C   0  0  0  0  0  0  0  0  0  0  0  0
   16.6806   -9.1752   18.8591 N   0  0  0  0  0  0  0  0  0  0  0  0
   15.6628   -8.7633   18.0834 N   0  0  0  0  0  0  0  0  0  0  0  0
   14.7693   -9.7416   17.5105 C   0  0  0  0  0  0  0  0  0  0  0  0
   21.3420   -6.0617   20.1201 C   0  0  0  0  0  0  0  0  0  0  0  0
   20.1322   -7.1996   17.9543 N   0  0  0  0  0  0  0  0  0  0  0  0
   19.4093   -7.7190   16.9334 C   0  0  0  0  0  0  0  0  0  0  0  0
   18.6634   -7.7380   13.3040 N   0  0  0  0  0  0  0  0  0  0  0  0
  1  2  1  0
  2  3  2  0
  3  4  1  0
  4  5  1  0
  5  6  1  0
  6  7  2  0
  7  8  1  0
  8  9  2  0
  9 10  1  0
 10 11  1  0
 11 12  1  0
 12 13  1  0
 13 14  1  6
 14 15  1  0
 15 16  1  6
 15 17  1  0
 17 18  2  0
 18 19  1  0
 19 20  1  0
 19 21  2  0
 21 22  1  0
 22 23  2  0
 23 24  1  0
 24 25  2  0
 25 26  1  0
 26 27  1  0
 13 28  1  0
  9 29  1  0
 29 30  2  0
  5 31  2  0
 31  2  1  0
 30  6  1  0
 28 10  1  0
 23 17  1  0
 26 22  1  0
M  END
>  <energy_score>  (4670) 
-35.515304

>  <inchikey>  (4670) 
VOUYSJXOJLZLEG-UHFFFAOYSA-N

>  <smiles>  (4670) 
Cc1noc(-c2ccc(N3CCC(NC(O)c4cc(Br)cc5c4cnn5C)C3)nc2)n1

>  <ref_pdb>  (4670) 
A3181a

>  <alias>  (4670) 
VOUYSJXOJLZLEG-UHFFFAOYSA-N-P12-P12-P103-601509

>  <HIPPO Pose ID>  (4670) 
516242

>  <name>  (4670) 
VOUYSJXOJLZLEG-UHFFFAOYSA-N-P12-P12-P103-601509

>  <HIPPO Compound ID>  (4670) 
293507

>  <ref_mols>  (4670) 
A0497a,A1105b

>  <distance_score>  (4670) 
1.696213

>  <inspiration_score>  (4670) 
None

$$$$
VOUYSJXOJLZLEG-UHFFFAOYSA-N-P103-P12-P103-601509
     RDKit          3D

 31 35  0  0  0  0  0  0  0  0999 V2000
   17.4540   -9.4063   11.6137 C   0  0  0  0  0  0  0  0  0  0  0  0
   17.6579   -8.9585   13.0036 C   0  0  0  0  0  0  0  0  0  0  0  0
   16.7681   -9.2068   13.9722 N   0  0  0  0  0  0  0  0  0  0  0  0
   17.3656   -8.6344   15.1008 O   0  0  0  0  0  0  0  0  0  0  0  0
   18.5507   -8.0877   14.6821 C   0  0  0  0  0  0  0  0  0  0  0  0
   19.3695   -7.4468   15.6880 C   0  0  0  0  0  0  0  0  0  0  0  0
   20.3076   -6.4690   15.3732 C   0  0  0  0  0  0  0  0  0  0  0  0
   21.0692   -5.8692   16.3807 C   0  0  0  0  0  0  0  0  0  0  0  0
   20.8681   -6.2272   17.7128 C   0  0  0  0  0  0  0  0  0  0  0  0
   21.5379   -5.5438   18.7544 N   0  0  0  0  0  0  0  0  0  0  0  0
   21.3544   -4.0637   18.7145 C   0  0  0  0  0  0  0  0  0  0  0  0
   20.5772   -3.6940   19.9916 C   0  0  0  0  0  0  0  0  0  0  0  0
   19.9728   -5.0086   20.4903 C   0  0  1  0  0  0  0  0  0  0  0  0
   18.7385   -5.5425   19.8915 N   0  0  0  0  0  0  0  0  0  0  0  0
   17.9040   -4.6634   19.1231 C   0  0  1  0  0  0  0  0  0  0  0  0
   18.5993   -3.9630   18.1141 O   0  0  0  0  0  0  0  0  0  0  0  0
   16.7587   -5.4024   18.4551 C   0  0  0  0  0  0  0  0  0  0  0  0
   15.8411   -4.5427   17.8617 C   0  0  0  0  0  0  0  0  0  0  0  0
   14.6693   -5.0176   17.3277 C   0  0  0  0  0  0  0  0  0  0  0  0
   13.6061   -3.7063   16.6177 Br  0  0  0  0  0  0  0  0  0  0  0  0
   14.3300   -6.3594   17.2762 C   0  0  0  0  0  0  0  0  0  0  0  0
   15.2398   -7.2292   17.8741 C   0  0  0  0  0  0  0  0  0  0  0  0
   16.4182   -6.7863   18.4821 C   0  0  0  0  0  0  0  0  0  0  0  0
   16.9177   -7.9575   19.1101 C   0  0  0  0  0  0  0  0  0  0  0  0
   16.2194   -9.0573   18.8202 N   0  0  0  0  0  0  0  0  0  0  0  0
   15.1968   -8.5850   18.0853 N   0  0  0  0  0  0  0  0  0  0  0  0
   14.1561   -9.4869   17.6545 C   0  0  0  0  0  0  0  0  0  0  0  0
   21.1507   -5.9637   20.1231 C   0  0  0  0  0  0  0  0  0  0  0  0
   19.9941   -7.2242   18.0135 N   0  0  0  0  0  0  0  0  0  0  0  0
   19.2977   -7.8157   17.0126 C   0  0  0  0  0  0  0  0  0  0  0  0
   18.7591   -8.2426   13.3921 N   0  0  0  0  0  0  0  0  0  0  0  0
  1  2  1  0
  2  3  2  0
  3  4  1  0
  4  5  1  0
  5  6  1  0
  6  7  2  0
  7  8  1  0
  8  9  2  0
  9 10  1  0
 10 11  1  0
 11 12  1  0
 12 13  1  0
 13 14  1  6
 14 15  1  0
 15 16  1  6
 15 17  1  0
 17 18  2  0
 18 19  1  0
 19 20  1  0
 19 21  2  0
 21 22  1  0
 22 23  2  0
 23 24  1  0
 24 25  2  0
 25 26  1  0
 26 27  1  0
 13 28  1  0
  9 29  1  0
 29 30  2  0
  5 31  2  0
 31  2  1  0
 30  6  1  0
 28 10  1  0
 23 17  1  0
 26 22  1  0
M  END
>  <energy_score>  (4671) 
-34.652967

>  <inchikey>  (4671) 
VOUYSJXOJLZLEG-UHFFFAOYSA-N

>  <smiles>  (4671) 
Cc1noc(-c2ccc(N3CCC(NC(O)c4cc(Br)cc5c4cnn5C)C3)nc2)n1

>  <ref_pdb>  (4671) 
A3181a

>  <alias>  (4671) 
VOUYSJXOJLZLEG-UHFFFAOYSA-N-P103-P12-P103-601509

>  <HIPPO Pose ID>  (4671) 
516243

>  <name>  (4671) 
VOUYSJXOJLZLEG-UHFFFAOYSA-N-P103-P12-P103-601509

>  <HIPPO Compound ID>  (4671) 
293507

>  <ref_mols>  (4671) 
A0497a,A1105b

>  <distance_score>  (4671) 
1.574228

>  <inspiration_score>  (4671) 
None

$$$$
PDNMTZGGSCHKKQ-UHFFFAOYSA-N-P12-P12-P103-601509
     RDKit          3D

 32 36  0  0  0  0  0  0  0  0999 V2000
   16.4878   -9.1161   18.1328 C   0  0  0  0  0  0  0  0  0  0  0  0
   17.4326   -8.5587   17.1945 N   0  0  0  0  0  0  0  0  0  0  0  0
   18.6284   -7.9674   17.4927 C   0  0  0  0  0  0  0  0  0  0  0  0
   19.1491   -7.5803   16.2868 C   0  0  0  0  0  0  0  0  0  0  0  0
   20.3671   -6.9162   16.0719 C   0  0  0  0  0  0  0  0  0  0  0  0
   21.3195   -6.3821   17.1081 C   0  0  1  0  0  0  0  0  0  0  0  0
   22.1603   -7.4431   17.4953 O   0  0  0  0  0  0  0  0  0  0  0  0
   22.1814   -5.3114   16.6105 N   0  0  0  0  0  0  0  0  0  0  0  0
   22.5308   -4.3312   17.6557 C   0  0  0  0  0  0  0  0  0  0  0  0
   23.4889   -4.8805   18.7279 C   0  0  0  0  0  0  0  0  0  0  0  0
   24.2160   -3.7700   19.5183 C   0  0  0  0  0  0  0  0  0  0  0  0
   23.5522   -2.4523   19.4816 N   0  0  0  0  0  0  0  0  0  0  0  0
   22.2564   -2.5016   20.1872 C   0  0  1  0  0  0  0  0  0  0  0  0
   22.3578   -2.2438   21.6886 C   0  0  0  0  0  0  0  0  0  0  0  0
   20.8868   -2.0920   22.1112 C   0  0  0  0  0  0  0  0  0  0  0  0
   20.1384   -1.6456   20.9060 N   0  0  0  0  0  0  0  0  0  0  0  0
   19.2150   -2.6244   20.4353 C   0  0  0  0  0  0  0  0  0  0  0  0
   18.1109   -2.1750   19.7107 C   0  0  0  0  0  0  0  0  0  0  0  0
   17.2749   -3.0929   19.0869 C   0  0  0  0  0  0  0  0  0  0  0  0
   17.5903   -4.4344   19.1559 C   0  0  0  0  0  0  0  0  0  0  0  0
   16.6533   -5.5604   18.2730 Cl  0  0  0  0  0  0  0  0  0  0  0  0
   18.6706   -4.8146   19.9282 C   0  0  0  0  0  0  0  0  0  0  0  0
   19.4752   -3.9426   20.5798 N   0  0  0  0  0  0  0  0  0  0  0  0
   21.1507   -1.4808   19.8310 C   0  0  0  0  0  0  0  0  0  0  0  0
   23.4828   -2.0026   18.0792 C   0  0  0  0  0  0  0  0  0  0  0  0
   23.1392   -3.0741   17.0294 C   0  0  0  0  0  0  0  0  0  0  0  0
   20.6110   -6.8249   14.6710 C   0  0  0  0  0  0  0  0  0  0  0  0
   19.7124   -7.2759   13.6573 C   0  0  0  0  0  0  0  0  0  0  0  0
   20.2034   -7.0007   11.8411 Br  0  0  0  0  0  0  0  0  0  0  0  0
   18.4802   -7.8960   13.9170 C   0  0  0  0  0  0  0  0  0  0  0  0
   18.2207   -8.0526   15.2838 C   0  0  0  0  0  0  0  0  0  0  0  0
   17.1634   -8.6303   15.8774 N   0  0  0  0  0  0  0  0  0  0  0  0
  1  2  1  0
  2  3  1  0
  3  4  2  0
  4  5  1  0
  5  6  1  0
  6  7  1  6
  6  8  1  0
  8  9  1  0
  9 10  1  0
 10 11  1  0
 11 12  1  0
 13 12  1  6
 13 14  1  0
 14 15  1  0
 15 16  1  0
 16 17  1  0
 17 18  2  0
 18 19  1  0
 19 20  2  0
 20 21  1  0
 20 22  1  0
 22 23  2  0
 16 24  1  0
 12 25  1  0
 25 26  1  0
  5 27  2  0
 27 28  1  0
 28 29  1  0
 28 30  2  0
 30 31  1  0
 31 32  2  0
 32  2  1  0
 31  4  1  0
 26  9  1  0
 24 13  1  0
 23 17  1  0
M  END
>  <energy_score>  (4672) 
-56.311891

>  <inchikey>  (4672) 
PDNMTZGGSCHKKQ-UHFFFAOYSA-N

>  <smiles>  (4672) 
Cn1cc2c(C(O)NC3CCN(C4CCN(c5ccc(Cl)cn5)C4)CC3)cc(Br)cc2n1

>  <ref_pdb>  (4672) 
A3181a

>  <alias>  (4672) 
PDNMTZGGSCHKKQ-UHFFFAOYSA-N-P12-P12-P103-601509

>  <HIPPO Pose ID>  (4672) 
516246

>  <name>  (4672) 
PDNMTZGGSCHKKQ-UHFFFAOYSA-N-P12-P12-P103-601509

>  <HIPPO Compound ID>  (4672) 
293509

>  <ref_mols>  (4672) 
A0497a,A1105b

>  <distance_score>  (4672) 
1.423773

>  <inspiration_score>  (4672) 
None

$$$$
PDNMTZGGSCHKKQ-UHFFFAOYSA-N-P103-P12-P103-601509
     RDKit          3D

 32 36  0  0  0  0  0  0  0  0999 V2000
   15.7343   -8.1199   18.0354 C   0  0  0  0  0  0  0  0  0  0  0  0
   16.9489   -8.0495   17.2564 N   0  0  0  0  0  0  0  0  0  0  0  0
   18.2204   -7.9073   17.7321 C   0  0  0  0  0  0  0  0  0  0  0  0
   19.0151   -7.7921   16.6233 C   0  0  0  0  0  0  0  0  0  0  0  0
   20.4125   -7.6356   16.6090 C   0  0  0  0  0  0  0  0  0  0  0  0
   21.3293   -7.6876   17.8070 C   0  0  1  0  0  0  0  0  0  0  0  0
   21.5108   -9.0579   18.1428 O   0  0  0  0  0  0  0  0  0  0  0  0
   22.6586   -7.1344   17.6616 N   0  0  0  0  0  0  0  0  0  0  0  0
   22.7874   -5.6943   17.8420 C   0  0  0  0  0  0  0  0  0  0  0  0
   24.2246   -5.3476   18.2519 C   0  0  0  0  0  0  0  0  0  0  0  0
   24.3819   -3.8478   18.5768 C   0  0  0  0  0  0  0  0  0  0  0  0
   23.4757   -2.9409   17.8445 N   0  0  0  0  0  0  0  0  0  0  0  0
   22.2993   -2.5810   18.6536 C   0  0  1  0  0  0  0  0  0  0  0  0
   22.5558   -1.4440   19.6523 C   0  0  0  0  0  0  0  0  0  0  0  0
   21.1531   -0.8978   19.9940 C   0  0  0  0  0  0  0  0  0  0  0  0
   20.2004   -1.5621   19.0710 N   0  0  0  0  0  0  0  0  0  0  0  0
   19.5340   -2.6765   19.6429 C   0  0  0  0  0  0  0  0  0  0  0  0
   18.6110   -3.4048   18.8832 C   0  0  0  0  0  0  0  0  0  0  0  0
   18.1419   -4.6337   19.3547 C   0  0  0  0  0  0  0  0  0  0  0  0
   18.5819   -5.0901   20.5895 C   0  0  0  0  0  0  0  0  0  0  0  0
   18.1679   -6.6319   21.2187 Cl  0  0  0  0  0  0  0  0  0  0  0  0
   19.4207   -4.2763   21.3202 C   0  0  0  0  0  0  0  0  0  0  0  0
   19.8950   -3.0948   20.8756 N   0  0  0  0  0  0  0  0  0  0  0  0
   21.0442   -2.0297   17.9422 C   0  0  0  0  0  0  0  0  0  0  0  0
   23.1287   -3.5204   16.5416 C   0  0  0  0  0  0  0  0  0  0  0  0
   22.4097   -4.8766   16.5998 C   0  0  0  0  0  0  0  0  0  0  0  0
   20.8653   -7.6333   15.2594 C   0  0  0  0  0  0  0  0  0  0  0  0
   20.0221   -7.7766   14.1140 C   0  0  0  0  0  0  0  0  0  0  0  0
   20.8354   -7.7405   12.3957 Br  0  0  0  0  0  0  0  0  0  0  0  0
   18.6348   -7.9782   14.1808 C   0  0  0  0  0  0  0  0  0  0  0  0
   18.1389   -7.9729   15.4896 C   0  0  0  0  0  0  0  0  0  0  0  0
   16.8804   -8.1681   15.9183 N   0  0  0  0  0  0  0  0  0  0  0  0
  1  2  1  0
  2  3  1  0
  3  4  2  0
  4  5  1  0
  5  6  1  0
  6  7  1  6
  6  8  1  0
  8  9  1  0
  9 10  1  0
 10 11  1  0
 11 12  1  0
 13 12  1  6
 13 14  1  0
 14 15  1  0
 15 16  1  0
 16 17  1  0
 17 18  2  0
 18 19  1  0
 19 20  2  0
 20 21  1  0
 20 22  1  0
 22 23  2  0
 16 24  1  0
 12 25  1  0
 25 26  1  0
  5 27  2  0
 27 28  1  0
 28 29  1  0
 28 30  2  0
 30 31  1  0
 31 32  2  0
 32  2  1  0
 31  4  1  0
 26  9  1  0
 24 13  1  0
 23 17  1  0
M  END
>  <energy_score>  (4673) 
-51.405146

>  <inchikey>  (4673) 
PDNMTZGGSCHKKQ-UHFFFAOYSA-N

>  <smiles>  (4673) 
Cn1cc2c(C(O)NC3CCN(C4CCN(c5ccc(Cl)cn5)C4)CC3)cc(Br)cc2n1

>  <ref_pdb>  (4673) 
A3181a

>  <alias>  (4673) 
PDNMTZGGSCHKKQ-UHFFFAOYSA-N-P103-P12-P103-601509

>  <HIPPO Pose ID>  (4673) 
516247

>  <name>  (4673) 
PDNMTZGGSCHKKQ-UHFFFAOYSA-N-P103-P12-P103-601509

>  <HIPPO Compound ID>  (4673) 
293509

>  <ref_mols>  (4673) 
A0497a,A1105b

>  <distance_score>  (4673) 
1.046629

>  <inspiration_score>  (4673) 
None

$$$$
PNQXJTGKMWLHIQ-UHFFFAOYSA-N-P12-P12-P103-601509
     RDKit          3D

 32 36  0  0  0  0  0  0  0  0999 V2000
   15.7427   -7.9994   18.0642 C   0  0  0  0  0  0  0  0  0  0  0  0
   16.9278   -7.9775   17.2398 N   0  0  0  0  0  0  0  0  0  0  0  0
   18.2058   -8.2532   17.6300 C   0  0  0  0  0  0  0  0  0  0  0  0
   18.9829   -8.0725   16.5133 C   0  0  0  0  0  0  0  0  0  0  0  0
   20.3716   -8.2945   16.3788 C   0  0  0  0  0  0  0  0  0  0  0  0
   21.2816   -9.0961   17.2898 C   0  0  2  0  0  0  0  0  0  0  0  0
   20.6385   -9.6476   18.4193 O   0  0  0  0  0  0  0  0  0  0  0  0
   22.5232   -8.4645   17.7100 N   0  0  0  0  0  0  0  0  0  0  0  0
   22.3592   -7.4052   18.7085 C   0  0  0  0  0  0  0  0  0  0  0  0
   23.2959   -6.2200   18.3907 C   0  0  0  0  0  0  0  0  0  0  0  0
   23.6163   -5.3760   19.6344 C   0  0  0  0  0  0  0  0  0  0  0  0
   22.5142   -5.4816   20.5902 N   0  0  0  0  0  0  0  0  0  0  0  0
   22.4811   -4.4336   21.6263 C   0  0  1  0  0  0  0  0  0  0  0  0
   22.4735   -3.0011   21.0343 C   0  0  0  0  0  0  0  0  0  0  0  0
   21.3746   -2.2561   21.7878 C   0  0  0  0  0  0  0  0  0  0  0  0
   20.3973   -3.3130   22.0711 N   0  0  0  0  0  0  0  0  0  0  0  0
   19.4441   -3.4421   21.0588 C   0  0  0  0  0  0  0  0  0  0  0  0
   19.0367   -4.6590   20.5038 C   0  0  0  0  0  0  0  0  0  0  0  0
   18.0118   -4.6976   19.5541 C   0  0  0  0  0  0  0  0  0  0  0  0
   17.3690   -3.5243   19.2143 C   0  0  0  0  0  0  0  0  0  0  0  0
   15.9250   -3.5395   18.2925 Cl  0  0  0  0  0  0  0  0  0  0  0  0
   17.8520   -2.3539   19.7526 C   0  0  0  0  0  0  0  0  0  0  0  0
   18.8647   -2.2928   20.6477 N   0  0  0  0  0  0  0  0  0  0  0  0
   21.1926   -4.4603   22.5030 C   0  0  0  0  0  0  0  0  0  0  0  0
   22.4557   -6.8424   21.1516 C   0  0  0  0  0  0  0  0  0  0  0  0
   22.7144   -7.9289   20.1029 C   0  0  0  0  0  0  0  0  0  0  0  0
   20.7812   -7.8941   15.0618 C   0  0  0  0  0  0  0  0  0  0  0  0
   22.6131   -8.0372   14.5046 Br  0  0  0  0  0  0  0  0  0  0  0  0
   19.9037   -7.4469   14.0247 C   0  0  0  0  0  0  0  0  0  0  0  0
   18.5129   -7.3692   14.1780 C   0  0  0  0  0  0  0  0  0  0  0  0
   18.0648   -7.6672   15.4704 C   0  0  0  0  0  0  0  0  0  0  0  0
   16.8055   -7.6888   15.9344 N   0  0  0  0  0  0  0  0  0  0  0  0
  1  2  1  0
  2  3  1  0
  3  4  2  0
  4  5  1  0
  5  6  1  0
  6  7  1  1
  6  8  1  0
  8  9  1  0
  9 10  1  0
 10 11  1  0
 11 12  1  0
 13 12  1  6
 13 14  1  0
 14 15  1  0
 15 16  1  0
 16 17  1  0
 17 18  2  0
 18 19  1  0
 19 20  2  0
 20 21  1  0
 20 22  1  0
 22 23  2  0
 16 24  1  0
 12 25  1  0
 25 26  1  0
  5 27  2  0
 27 28  1  0
 27 29  1  0
 29 30  2  0
 30 31  1  0
 31 32  2  0
 32  2  1  0
 31  4  1  0
 26  9  1  0
 24 13  1  0
 23 17  1  0
M  END
>  <energy_score>  (4674) 
-69.930982

>  <inchikey>  (4674) 
PNQXJTGKMWLHIQ-UHFFFAOYSA-N

>  <smiles>  (4674) 
Cn1cc2c(C(O)NC3CCN(C4CCN(c5ccc(Cl)cn5)C4)CC3)c(Br)ccc2n1

>  <ref_pdb>  (4674) 
A3181a

>  <alias>  (4674) 
PNQXJTGKMWLHIQ-UHFFFAOYSA-N-P12-P12-P103-601509

>  <HIPPO Pose ID>  (4674) 
516248

>  <name>  (4674) 
PNQXJTGKMWLHIQ-UHFFFAOYSA-N-P12-P12-P103-601509

>  <HIPPO Compound ID>  (4674) 
293510

>  <ref_mols>  (4674) 
A0497a,A1105b

>  <distance_score>  (4674) 
1.416053

>  <inspiration_score>  (4674) 
None

$$$$
PNQXJTGKMWLHIQ-UHFFFAOYSA-N-P103-P12-P103-601509
     RDKit          3D

 32 36  0  0  0  0  0  0  0  0999 V2000
   15.8372   -8.1923   18.2199 C   0  0  0  0  0  0  0  0  0  0  0  0
   17.0296   -8.1117   17.4096 N   0  0  0  0  0  0  0  0  0  0  0  0
   18.3220   -8.0727   17.8479 C   0  0  0  0  0  0  0  0  0  0  0  0
   19.0991   -7.9161   16.7274 C   0  0  0  0  0  0  0  0  0  0  0  0
   20.5143   -7.8445   16.6547 C   0  0  0  0  0  0  0  0  0  0  0  0
   21.4976   -8.2002   17.7579 C   0  0  2  0  0  0  0  0  0  0  0  0
   20.9430   -8.2067   19.0577 O   0  0  0  0  0  0  0  0  0  0  0  0
   22.7850   -7.5266   17.8048 N   0  0  0  0  0  0  0  0  0  0  0  0
   22.8923   -6.2871   18.5695 C   0  0  0  0  0  0  0  0  0  0  0  0
   22.0058   -5.1385   18.0860 C   0  0  0  0  0  0  0  0  0  0  0  0
   22.6005   -3.7533   18.3843 C   0  0  0  0  0  0  0  0  0  0  0  0
   23.5037   -3.6374   19.5326 N   0  0  0  0  0  0  0  0  0  0  0  0
   22.9102   -3.2827   20.8345 C   0  0  1  0  0  0  0  0  0  0  0  0
   22.2474   -1.8969   20.8760 C   0  0  0  0  0  0  0  0  0  0  0  0
   21.1446   -2.0532   21.9184 C   0  0  0  0  0  0  0  0  0  0  0  0
   20.6763   -3.4437   21.7872 N   0  0  0  0  0  0  0  0  0  0  0  0
   19.6781   -3.6205   20.8031 C   0  0  0  0  0  0  0  0  0  0  0  0
   19.0384   -4.8559   20.6963 C   0  0  0  0  0  0  0  0  0  0  0  0
   18.1128   -5.0662   19.6802 C   0  0  0  0  0  0  0  0  0  0  0  0
   17.8022   -4.0349   18.8156 C   0  0  0  0  0  0  0  0  0  0  0  0
   16.5592   -4.2274   17.6602 Cl  0  0  0  0  0  0  0  0  0  0  0  0
   18.4745   -2.8444   18.9770 C   0  0  0  0  0  0  0  0  0  0  0  0
   19.3878   -2.6170   19.9513 N   0  0  0  0  0  0  0  0  0  0  0  0
   21.8690   -4.2501   21.4615 C   0  0  0  0  0  0  0  0  0  0  0  0
   24.5056   -4.7053   19.6216 C   0  0  0  0  0  0  0  0  0  0  0  0
   24.3526   -5.8274   18.5900 C   0  0  0  0  0  0  0  0  0  0  0  0
   20.8861   -7.7167   15.2698 C   0  0  0  0  0  0  0  0  0  0  0  0
   22.7218   -7.6666   14.7019 Br  0  0  0  0  0  0  0  0  0  0  0  0
   19.9763   -7.7125   14.1606 C   0  0  0  0  0  0  0  0  0  0  0  0
   18.5914   -7.8704   14.2953 C   0  0  0  0  0  0  0  0  0  0  0  0
   18.1615   -7.9495   15.6213 C   0  0  0  0  0  0  0  0  0  0  0  0
   16.9102   -8.1228   16.0743 N   0  0  0  0  0  0  0  0  0  0  0  0
  1  2  1  0
  2  3  1  0
  3  4  2  0
  4  5  1  0
  5  6  1  0
  6  7  1  1
  6  8  1  0
  8  9  1  0
  9 10  1  0
 10 11  1  0
 11 12  1  0
 13 12  1  6
 13 14  1  0
 14 15  1  0
 15 16  1  0
 16 17  1  0
 17 18  2  0
 18 19  1  0
 19 20  2  0
 20 21  1  0
 20 22  1  0
 22 23  2  0
 16 24  1  0
 12 25  1  0
 25 26  1  0
  5 27  2  0
 27 28  1  0
 27 29  1  0
 29 30  2  0
 30 31  1  0
 31 32  2  0
 32  2  1  0
 31  4  1  0
 26  9  1  0
 24 13  1  0
 23 17  1  0
M  END
>  <energy_score>  (4675) 
-68.457889

>  <inchikey>  (4675) 
PNQXJTGKMWLHIQ-UHFFFAOYSA-N

>  <smiles>  (4675) 
Cn1cc2c(C(O)NC3CCN(C4CCN(c5ccc(Cl)cn5)C4)CC3)c(Br)ccc2n1

>  <ref_pdb>  (4675) 
A3181a

>  <alias>  (4675) 
PNQXJTGKMWLHIQ-UHFFFAOYSA-N-P103-P12-P103-601509

>  <HIPPO Pose ID>  (4675) 
516249

>  <name>  (4675) 
PNQXJTGKMWLHIQ-UHFFFAOYSA-N-P103-P12-P103-601509

>  <HIPPO Compound ID>  (4675) 
293510

>  <ref_mols>  (4675) 
A0497a,A1105b

>  <distance_score>  (4675) 
1.294788

>  <inspiration_score>  (4675) 
None

$$$$
NZIZJEJFFUIYDW-UHFFFAOYSA-N-P12-P12-P103-601509
     RDKit          3D

 32 36  0  0  0  0  0  0  0  0999 V2000
   15.8070   -8.0217   17.9454 C   0  0  0  0  0  0  0  0  0  0  0  0
   17.0146   -7.8572   17.1717 N   0  0  0  0  0  0  0  0  0  0  0  0
   18.2848   -7.7537   17.6543 C   0  0  0  0  0  0  0  0  0  0  0  0
   19.0814   -7.5133   16.5670 C   0  0  0  0  0  0  0  0  0  0  0  0
   20.4798   -7.3259   16.5605 C   0  0  0  0  0  0  0  0  0  0  0  0
   21.4576   -7.5257   17.6988 C   0  0  2  0  0  0  0  0  0  0  0  0
   20.9064   -7.2411   18.9649 O   0  0  0  0  0  0  0  0  0  0  0  0
   22.7790   -6.9144   17.6114 N   0  0  0  0  0  0  0  0  0  0  0  0
   22.8942   -5.4914   17.9558 C   0  0  0  0  0  0  0  0  0  0  0  0
   24.3494   -5.1679   18.3221 C   0  0  0  0  0  0  0  0  0  0  0  0
   24.5020   -3.7186   18.8316 C   0  0  0  0  0  0  0  0  0  0  0  0
   23.5595   -2.7355   18.2588 N   0  0  0  0  0  0  0  0  0  0  0  0
   22.4288   -2.4722   19.1698 C   0  0  1  0  0  0  0  0  0  0  0  0
   22.7627   -1.5204   20.3272 C   0  0  0  0  0  0  0  0  0  0  0  0
   21.3957   -0.9885   20.8105 C   0  0  0  0  0  0  0  0  0  0  0  0
   20.3848   -1.4353   19.8196 N   0  0  0  0  0  0  0  0  0  0  0  0
   19.6832   -2.6070   20.2258 C   0  0  0  0  0  0  0  0  0  0  0  0
   18.6540   -3.1194   19.4298 C   0  0  0  0  0  0  0  0  0  0  0  0
   18.1285   -4.3899   19.6920 C   0  0  0  0  0  0  0  0  0  0  0  0
   18.6031   -5.0930   20.7876 C   0  0  0  0  0  0  0  0  0  0  0  0
   18.0741   -6.6723   21.1988 Cl  0  0  0  0  0  0  0  0  0  0  0  0
   19.5580   -4.4873   21.5769 C   0  0  0  0  0  0  0  0  0  0  0  0
   20.1008   -3.2777   21.3201 N   0  0  0  0  0  0  0  0  0  0  0  0
   21.1768   -1.7648   18.6094 C   0  0  0  0  0  0  0  0  0  0  0  0
   23.1484   -3.1652   16.9137 C   0  0  0  0  0  0  0  0  0  0  0  0
   22.4369   -4.5288   16.8530 C   0  0  0  0  0  0  0  0  0  0  0  0
   20.9039   -7.1723   15.2073 C   0  0  0  0  0  0  0  0  0  0  0  0
   20.0493   -7.2026   14.0659 C   0  0  0  0  0  0  0  0  0  0  0  0
   20.6175   -7.0467   12.8594 F   0  0  0  0  0  0  0  0  0  0  0  0
   18.6699   -7.4199   14.1169 C   0  0  0  0  0  0  0  0  0  0  0  0
   18.1922   -7.5734   15.4220 C   0  0  0  0  0  0  0  0  0  0  0  0
   16.9345   -7.8218   15.8286 N   0  0  0  0  0  0  0  0  0  0  0  0
  1  2  1  0
  2  3  1  0
  3  4  2  0
  4  5  1  0
  5  6  1  0
  6  7  1  1
  6  8  1  0
  8  9  1  0
  9 10  1  0
 10 11  1  0
 11 12  1  0
 13 12  1  6
 13 14  1  0
 14 15  1  0
 15 16  1  0
 16 17  1  0
 17 18  2  0
 18 19  1  0
 19 20  2  0
 20 21  1  0
 20 22  1  0
 22 23  2  0
 16 24  1  0
 12 25  1  0
 25 26  1  0
  5 27  2  0
 27 28  1  0
 28 29  1  0
 28 30  2  0
 30 31  1  0
 31 32  2  0
 32  2  1  0
 31  4  1  0
 26  9  1  0
 24 13  1  0
 23 17  1  0
M  END
>  <energy_score>  (4676) 
-47.402948

>  <inchikey>  (4676) 
NZIZJEJFFUIYDW-UHFFFAOYSA-N

>  <smiles>  (4676) 
Cn1cc2c(C(O)NC3CCN(C4CCN(c5ccc(Cl)cn5)C4)CC3)cc(F)cc2n1

>  <ref_pdb>  (4676) 
A3181a

>  <alias>  (4676) 
NZIZJEJFFUIYDW-UHFFFAOYSA-N-P12-P12-P103-601509

>  <HIPPO Pose ID>  (4676) 
516250

>  <name>  (4676) 
NZIZJEJFFUIYDW-UHFFFAOYSA-N-P12-P12-P103-601509

>  <HIPPO Compound ID>  (4676) 
293511

>  <ref_mols>  (4676) 
A0497a,A1105b

>  <distance_score>  (4676) 
1.113821

>  <inspiration_score>  (4676) 
None

$$$$
NZIZJEJFFUIYDW-UHFFFAOYSA-N-P103-P12-P103-601509
     RDKit          3D

 32 36  0  0  0  0  0  0  0  0999 V2000
   15.3262   -7.5205   17.6977 C   0  0  0  0  0  0  0  0  0  0  0  0
   16.5906   -7.6996   17.0208 N   0  0  0  0  0  0  0  0  0  0  0  0
   17.7819   -7.1400   17.3858 C   0  0  0  0  0  0  0  0  0  0  0  0
   18.6699   -7.5267   16.4171 C   0  0  0  0  0  0  0  0  0  0  0  0
   20.0276   -7.1746   16.3479 C   0  0  0  0  0  0  0  0  0  0  0  0
   20.7817   -6.3337   17.3422 C   0  0  1  0  0  0  0  0  0  0  0  0
   20.8113   -6.9781   18.6077 O   0  0  0  0  0  0  0  0  0  0  0  0
   22.1756   -6.0973   16.9840 N   0  0  0  0  0  0  0  0  0  0  0  0
   22.6246   -4.7864   17.4815 C   0  0  0  0  0  0  0  0  0  0  0  0
   24.1461   -4.6943   17.6238 C   0  0  0  0  0  0  0  0  0  0  0  0
   24.5751   -3.3311   18.2165 C   0  0  0  0  0  0  0  0  0  0  0  0
   23.6665   -2.1947   17.9462 N   0  0  0  0  0  0  0  0  0  0  0  0
   22.7246   -1.9754   19.0593 C   0  0  1  0  0  0  0  0  0  0  0  0
   23.2966   -1.1290   20.2012 C   0  0  0  0  0  0  0  0  0  0  0  0
   22.0571   -0.6753   21.0008 C   0  0  0  0  0  0  0  0  0  0  0  0
   20.8673   -0.9730   20.1601 N   0  0  0  0  0  0  0  0  0  0  0  0
   20.1736   -2.1510   20.5614 C   0  0  0  0  0  0  0  0  0  0  0  0
   18.9838   -2.4969   19.9089 C   0  0  0  0  0  0  0  0  0  0  0  0
   18.3898   -3.7388   20.1483 C   0  0  0  0  0  0  0  0  0  0  0  0
   18.9854   -4.6016   21.0551 C   0  0  0  0  0  0  0  0  0  0  0  0
   18.3595   -6.1673   21.3651 Cl  0  0  0  0  0  0  0  0  0  0  0  0
   20.1269   -4.1729   21.7035 C   0  0  0  0  0  0  0  0  0  0  0  0
   20.7198   -2.9765   21.4807 N   0  0  0  0  0  0  0  0  0  0  0  0
   21.4134   -1.1992   18.7976 C   0  0  0  0  0  0  0  0  0  0  0  0
   23.0069   -2.3967   16.6463 C   0  0  0  0  0  0  0  0  0  0  0  0
   22.1421   -3.6620   16.5524 C   0  0  0  0  0  0  0  0  0  0  0  0
   20.5924   -7.7167   15.1622 C   0  0  0  0  0  0  0  0  0  0  0  0
   19.8803   -8.5131   14.2177 C   0  0  0  0  0  0  0  0  0  0  0  0
   20.5530   -8.9563   13.1435 F   0  0  0  0  0  0  0  0  0  0  0  0
   18.5296   -8.8711   14.3384 C   0  0  0  0  0  0  0  0  0  0  0  0
   17.9248   -8.3422   15.4849 C   0  0  0  0  0  0  0  0  0  0  0  0
   16.6602   -8.4781   15.9208 N   0  0  0  0  0  0  0  0  0  0  0  0
  1  2  1  0
  2  3  1  0
  3  4  2  0
  4  5  1  0
  5  6  1  0
  6  7  1  1
  6  8  1  0
  8  9  1  0
  9 10  1  0
 10 11  1  0
 11 12  1  0
 13 12  1  6
 13 14  1  0
 14 15  1  0
 15 16  1  0
 16 17  1  0
 17 18  2  0
 18 19  1  0
 19 20  2  0
 20 21  1  0
 20 22  1  0
 22 23  2  0
 16 24  1  0
 12 25  1  0
 25 26  1  0
  5 27  2  0
 27 28  1  0
 28 29  1  0
 28 30  2  0
 30 31  1  0
 31 32  2  0
 32  2  1  0
 31  4  1  0
 26  9  1  0
 24 13  1  0
 23 17  1  0
M  END
>  <energy_score>  (4677) 
-63.49895

>  <inchikey>  (4677) 
NZIZJEJFFUIYDW-UHFFFAOYSA-N

>  <smiles>  (4677) 
Cn1cc2c(C(O)NC3CCN(C4CCN(c5ccc(Cl)cn5)C4)CC3)cc(F)cc2n1

>  <ref_pdb>  (4677) 
A3181a

>  <alias>  (4677) 
NZIZJEJFFUIYDW-UHFFFAOYSA-N-P103-P12-P103-601509

>  <HIPPO Pose ID>  (4677) 
516251

>  <name>  (4677) 
NZIZJEJFFUIYDW-UHFFFAOYSA-N-P103-P12-P103-601509

>  <HIPPO Compound ID>  (4677) 
293511

>  <ref_mols>  (4677) 
A0497a,A1105b

>  <distance_score>  (4677) 
1.400568

>  <inspiration_score>  (4677) 
None

$$$$
MEEREEIYMSDWSU-UHFFFAOYSA-N-P12-P12-P103-601509
     RDKit          3D

 32 36  0  0  0  0  0  0  0  0999 V2000
   19.5542   -9.4023   13.9690 C   0  0  0  0  0  0  0  0  0  0  0  0
   19.2099   -8.5128   15.1154 C   0  0  0  0  0  0  0  0  0  0  0  0
   20.0762   -7.4777   15.5383 C   0  0  0  0  0  0  0  0  0  0  0  0
   19.7733   -6.5803   16.6128 C   0  0  0  0  0  0  0  0  0  0  0  0
   18.5740   -6.6005   17.3918 C   0  0  0  0  0  0  0  0  0  0  0  0
   18.1760   -5.4497   18.2771 C   0  0  1  0  0  0  0  0  0  0  0  0
   16.8401   -5.0712   18.0085 O   0  0  0  0  0  0  0  0  0  0  0  0
   18.3237   -5.5853   19.7123 N   0  0  0  0  0  0  0  0  0  0  0  0
   18.0378   -4.2704   20.3694 C   0  0  0  0  0  0  0  0  0  0  0  0
   18.5480   -4.3268   21.8055 C   0  0  0  0  0  0  0  0  0  0  0  0
   20.0616   -4.1458   21.8596 C   0  0  0  0  0  0  0  0  0  0  0  0
   20.5657   -2.9480   21.1806 N   0  0  0  0  0  0  0  0  0  0  0  0
   20.6211   -1.7426   22.0226 C   0  0  2  0  0  0  0  0  0  0  0  0
   19.4378   -0.7708   22.0535 C   0  0  0  0  0  0  0  0  0  0  0  0
   20.0216    0.4316   22.7975 C   0  0  0  0  0  0  0  0  0  0  0  0
   21.4037    0.4899   22.3288 N   0  0  0  0  0  0  0  0  0  0  0  0
   22.3659    1.2941   22.8879 C   0  0  0  0  0  0  0  0  0  0  0  0
   22.0470    2.3202   23.7802 C   0  0  0  0  0  0  0  0  0  0  0  0
   23.0509    3.1300   24.3185 C   0  0  0  0  0  0  0  0  0  0  0  0
   24.3649    2.9062   23.9525 C   0  0  0  0  0  0  0  0  0  0  0  0
   25.6323    3.8770   24.5765 Cl  0  0  0  0  0  0  0  0  0  0  0  0
   24.6175    1.8840   23.0600 C   0  0  0  0  0  0  0  0  0  0  0  0
   23.6545    1.0964   22.5211 N   0  0  0  0  0  0  0  0  0  0  0  0
   21.7943   -0.7764   21.6886 C   0  0  0  0  0  0  0  0  0  0  0  0
   20.0367   -2.7859   19.8240 C   0  0  0  0  0  0  0  0  0  0  0  0
   18.5265   -2.9534   19.7385 C   0  0  0  0  0  0  0  0  0  0  0  0
   17.7819   -7.6681   16.9780 C   0  0  0  0  0  0  0  0  0  0  0  0
   16.5670   -8.0078   17.5073 C   0  0  0  0  0  0  0  0  0  0  0  0
   16.1244   -9.0334   16.7342 N   0  0  0  0  0  0  0  0  0  0  0  0
   14.8614   -9.7194   16.8624 C   0  0  0  0  0  0  0  0  0  0  0  0
   16.9801   -9.4158   15.7693 N   0  0  0  0  0  0  0  0  0  0  0  0
   18.0309   -8.5828   15.8874 C   0  0  0  0  0  0  0  0  0  0  0  0
  1  2  1  0
  2  3  2  0
  3  4  1  0
  4  5  2  0
  5  6  1  0
  6  7  1  1
  6  8  1  0
  8  9  1  0
  9 10  1  0
 10 11  1  0
 11 12  1  0
 13 12  1  6
 13 14  1  0
 14 15  1  0
 15 16  1  0
 16 17  1  0
 17 18  2  0
 18 19  1  0
 19 20  2  0
 20 21  1  0
 20 22  1  0
 22 23  2  0
 16 24  1  0
 12 25  1  0
 25 26  1  0
  5 27  1  0
 27 28  2  0
 28 29  1  0
 29 30  1  0
 29 31  1  0
 31 32  2  0
 32  2  1  0
 26  9  1  0
 32 27  1  0
 24 13  1  0
 23 17  1  0
M  END
>  <energy_score>  (4678) 
-41.462379

>  <inchikey>  (4678) 
MEEREEIYMSDWSU-UHFFFAOYSA-N

>  <smiles>  (4678) 
Cc1ccc(C(O)NC2CCN(C3CCN(c4ccc(Cl)cn4)C3)CC2)c2cn(C)nc12

>  <ref_pdb>  (4678) 
A3181a

>  <alias>  (4678) 
MEEREEIYMSDWSU-UHFFFAOYSA-N-P12-P12-P103-601509

>  <HIPPO Pose ID>  (4678) 
516252

>  <name>  (4678) 
MEEREEIYMSDWSU-UHFFFAOYSA-N-P12-P12-P103-601509

>  <HIPPO Compound ID>  (4678) 
293512

>  <ref_mols>  (4678) 
A0497a,A1105b

>  <distance_score>  (4678) 
1.726217

>  <inspiration_score>  (4678) 
None

$$$$
MEEREEIYMSDWSU-UHFFFAOYSA-N-P103-P12-P103-601509
     RDKit          3D

 32 36  0  0  0  0  0  0  0  0999 V2000
   19.2972   -9.6932   13.9632 C   0  0  0  0  0  0  0  0  0  0  0  0
   19.1325   -8.5503   14.9070 C   0  0  0  0  0  0  0  0  0  0  0  0
   20.0971   -7.5123   14.9938 C   0  0  0  0  0  0  0  0  0  0  0  0
   19.9781   -6.3821   15.8649 C   0  0  0  0  0  0  0  0  0  0  0  0
   18.8846   -6.1594   16.7460 C   0  0  0  0  0  0  0  0  0  0  0  0
   18.6848   -4.8808   17.5039 C   0  0  1  0  0  0  0  0  0  0  0  0
   17.4554   -4.2984   17.1106 O   0  0  0  0  0  0  0  0  0  0  0  0
   18.6838   -5.0799   18.9440 N   0  0  0  0  0  0  0  0  0  0  0  0
   18.1187   -3.9213   19.6556 C   0  0  0  0  0  0  0  0  0  0  0  0
   18.3101   -4.1086   21.1616 C   0  0  0  0  0  0  0  0  0  0  0  0
   19.7699   -3.9459   21.5750 C   0  0  0  0  0  0  0  0  0  0  0  0
   20.4298   -2.7343   21.0826 N   0  0  0  0  0  0  0  0  0  0  0  0
   20.4132   -1.5909   22.0033 C   0  0  2  0  0  0  0  0  0  0  0  0
   19.2888   -0.5577   21.9009 C   0  0  0  0  0  0  0  0  0  0  0  0
   19.8095    0.5826   22.7787 C   0  0  0  0  0  0  0  0  0  0  0  0
   21.2448    0.5848   22.5144 N   0  0  0  0  0  0  0  0  0  0  0  0
   22.1598    1.3577   23.1812 C   0  0  0  0  0  0  0  0  0  0  0  0
   21.7764    2.3849   24.0440 C   0  0  0  0  0  0  0  0  0  0  0  0
   22.7418    3.1515   24.7027 C   0  0  0  0  0  0  0  0  0  0  0  0
   24.0807    2.8887   24.4808 C   0  0  0  0  0  0  0  0  0  0  0  0
   25.3008    3.8077   25.2589 Cl  0  0  0  0  0  0  0  0  0  0  0  0
   24.3976    1.8692   23.6069 C   0  0  0  0  0  0  0  0  0  0  0  0
   23.4747    1.1184   22.9577 N   0  0  0  0  0  0  0  0  0  0  0  0
   21.6735   -0.6840   21.9111 C   0  0  0  0  0  0  0  0  0  0  0  0
   20.1709   -2.4414   19.6730 C   0  0  0  0  0  0  0  0  0  0  0  0
   18.7052   -2.5583   19.2706 C   0  0  0  0  0  0  0  0  0  0  0  0
   17.9831   -7.2195   16.6593 C   0  0  0  0  0  0  0  0  0  0  0  0
   16.8165   -7.3188   17.3662 C   0  0  0  0  0  0  0  0  0  0  0  0
   16.2385   -8.4641   16.9266 N   0  0  0  0  0  0  0  0  0  0  0  0
   14.9691   -8.9966   17.3583 C   0  0  0  0  0  0  0  0  0  0  0  0
   16.9453   -9.1196   15.9806 N   0  0  0  0  0  0  0  0  0  0  0  0
   18.0465   -8.3652   15.7906 C   0  0  0  0  0  0  0  0  0  0  0  0
  1  2  1  0
  2  3  2  0
  3  4  1  0
  4  5  2  0
  5  6  1  0
  6  7  1  6
  6  8  1  0
  8  9  1  0
  9 10  1  0
 10 11  1  0
 11 12  1  0
 13 12  1  6
 13 14  1  0
 14 15  1  0
 15 16  1  0
 16 17  1  0
 17 18  2  0
 18 19  1  0
 19 20  2  0
 20 21  1  0
 20 22  1  0
 22 23  2  0
 16 24  1  0
 12 25  1  0
 25 26  1  0
  5 27  1  0
 27 28  2  0
 28 29  1  0
 29 30  1  0
 29 31  1  0
 31 32  2  0
 32  2  1  0
 26  9  1  0
 32 27  1  0
 24 13  1  0
 23 17  1  0
M  END
>  <energy_score>  (4679) 
-45.236783

>  <inchikey>  (4679) 
MEEREEIYMSDWSU-UHFFFAOYSA-N

>  <smiles>  (4679) 
Cc1ccc(C(O)NC2CCN(C3CCN(c4ccc(Cl)cn4)C3)CC2)c2cn(C)nc12

>  <ref_pdb>  (4679) 
A3181a

>  <alias>  (4679) 
MEEREEIYMSDWSU-UHFFFAOYSA-N-P103-P12-P103-601509

>  <HIPPO Pose ID>  (4679) 
516253

>  <name>  (4679) 
MEEREEIYMSDWSU-UHFFFAOYSA-N-P103-P12-P103-601509

>  <HIPPO Compound ID>  (4679) 
293512

>  <ref_mols>  (4679) 
A0497a,A1105b

>  <distance_score>  (4679) 
1.501185

>  <inspiration_score>  (4679) 
None

$$$$
UIVNITJLGWPWRT-UHFFFAOYSA-N-P12-P12-P103-601509
     RDKit          3D

 32 36  0  0  0  0  0  0  0  0999 V2000
   15.8103   -9.5351   12.9676 C   0  0  0  0  0  0  0  0  0  0  0  0
   16.9800   -8.7713   13.4385 C   0  0  0  0  0  0  0  0  0  0  0  0
   17.7043   -7.9922   12.6246 N   0  0  0  0  0  0  0  0  0  0  0  0
   18.6855   -7.4745   13.4768 O   0  0  0  0  0  0  0  0  0  0  0  0
   18.4333   -7.9837   14.7180 C   0  0  0  0  0  0  0  0  0  0  0  0
   19.2706   -7.5233   15.8026 C   0  0  0  0  0  0  0  0  0  0  0  0
   20.2673   -6.5641   15.6728 C   0  0  0  0  0  0  0  0  0  0  0  0
   20.9017   -6.0677   16.8123 C   0  0  0  0  0  0  0  0  0  0  0  0
   20.4931   -6.4919   18.0789 C   0  0  0  0  0  0  0  0  0  0  0  0
   20.9220   -5.8192   19.2346 N   0  0  0  0  0  0  0  0  0  0  0  0
   20.8803   -4.3330   19.1651 C   0  0  0  0  0  0  0  0  0  0  0  0
   20.1661   -3.8724   20.4365 C   0  0  0  0  0  0  0  0  0  0  0  0
   19.2868   -5.0566   20.8264 C   0  0  1  0  0  0  0  0  0  0  0  0
   17.9262   -5.1963   20.2721 N   0  0  0  0  0  0  0  0  0  0  0  0
   17.6749   -4.7567   18.9091 C   0  0  2  0  0  0  0  0  0  0  0  0
   17.8937   -3.3649   18.7916 O   0  0  0  0  0  0  0  0  0  0  0  0
   16.2679   -5.0683   18.4239 C   0  0  0  0  0  0  0  0  0  0  0  0
   15.2866   -4.0458   18.2029 C   0  0  0  0  0  0  0  0  0  0  0  0
   14.0351   -4.2473   17.5485 C   0  0  0  0  0  0  0  0  0  0  0  0
   13.5993   -5.4938   17.0749 C   0  0  0  0  0  0  0  0  0  0  0  0
   14.4531   -6.5520   17.3946 C   0  0  0  0  0  0  0  0  0  0  0  0
   14.2900   -7.8670   17.1657 N   0  0  0  0  0  0  0  0  0  0  0  0
   15.3230   -8.4484   17.8219 N   0  0  0  0  0  0  0  0  0  0  0  0
   15.3844   -9.8977   17.9655 C   0  0  0  0  0  0  0  0  0  0  0  0
   15.3404  -10.2628   19.2773 F   0  0  0  0  0  0  0  0  0  0  0  0
   16.5510  -10.3965   17.4719 F   0  0  0  0  0  0  0  0  0  0  0  0
   16.2193   -7.5525   18.3442 C   0  0  0  0  0  0  0  0  0  0  0  0
   15.7238   -6.3139   18.0449 C   0  0  0  0  0  0  0  0  0  0  0  0
   20.2460   -6.2270   20.4800 C   0  0  0  0  0  0  0  0  0  0  0  0
   19.6198   -7.5207   18.1947 N   0  0  0  0  0  0  0  0  0  0  0  0
   19.0602   -8.0194   17.0710 C   0  0  0  0  0  0  0  0  0  0  0  0
   17.3956   -8.7935   14.7430 N   0  0  0  0  0  0  0  0  0  0  0  0
  1  2  1  0
  2  3  2  0
  3  4  1  0
  4  5  1  0
  5  6  1  0
  6  7  2  0
  7  8  1  0
  8  9  2  0
  9 10  1  0
 10 11  1  0
 11 12  1  0
 12 13  1  0
 13 14  1  6
 14 15  1  0
 15 16  1  1
 15 17  1  0
 17 18  2  0
 18 19  1  0
 19 20  2  0
 20 21  1  0
 21 22  2  0
 22 23  1  0
 23 24  1  0
 24 25  1  0
 24 26  1  0
 23 27  1  0
 27 28  2  0
 13 29  1  0
  9 30  1  0
 30 31  2  0
  5 32  2  0
 32  2  1  0
 31  6  1  0
 29 10  1  0
 28 17  1  0
 28 21  1  0
M  END
>  <energy_score>  (4680) 
-43.988147

>  <inchikey>  (4680) 
UIVNITJLGWPWRT-UHFFFAOYSA-N

>  <smiles>  (4680) 
Cc1noc(-c2ccc(N3CCC(NC(O)c4cccc5nn(C(F)F)cc45)C3)nc2)n1

>  <ref_pdb>  (4680) 
A3181a

>  <alias>  (4680) 
UIVNITJLGWPWRT-UHFFFAOYSA-N-P12-P12-P103-601509

>  <HIPPO Pose ID>  (4680) 
516254

>  <name>  (4680) 
UIVNITJLGWPWRT-UHFFFAOYSA-N-P12-P12-P103-601509

>  <HIPPO Compound ID>  (4680) 
293513

>  <ref_mols>  (4680) 
A0497a,A1105b

>  <distance_score>  (4680) 
1.413694

>  <inspiration_score>  (4680) 
None

$$$$
UIVNITJLGWPWRT-UHFFFAOYSA-N-P103-P12-P103-601509
     RDKit          3D

 32 36  0  0  0  0  0  0  0  0999 V2000
   17.1721   -9.3119   11.5366 C   0  0  0  0  0  0  0  0  0  0  0  0
   17.5238   -9.1005   12.9523 C   0  0  0  0  0  0  0  0  0  0  0  0
   16.9408   -9.7818   13.9437 N   0  0  0  0  0  0  0  0  0  0  0  0
   17.5744   -9.2794   15.0805 O   0  0  0  0  0  0  0  0  0  0  0  0
   18.4687   -8.3380   14.6591 C   0  0  0  0  0  0  0  0  0  0  0  0
   19.2453   -7.6782   15.6880 C   0  0  0  0  0  0  0  0  0  0  0  0
   20.1371   -6.6515   15.4011 C   0  0  0  0  0  0  0  0  0  0  0  0
   20.7934   -5.9836   16.4369 C   0  0  0  0  0  0  0  0  0  0  0  0
   20.5051   -6.3051   17.7642 C   0  0  0  0  0  0  0  0  0  0  0  0
   20.9394   -5.4948   18.8223 N   0  0  0  0  0  0  0  0  0  0  0  0
   20.9099   -4.0249   18.5957 C   0  0  0  0  0  0  0  0  0  0  0  0
   20.2227   -3.4234   19.8251 C   0  0  0  0  0  0  0  0  0  0  0  0
   19.3566   -4.5535   20.3679 C   0  0  1  0  0  0  0  0  0  0  0  0
   17.9777   -4.7084   19.8639 N   0  0  0  0  0  0  0  0  0  0  0  0
   17.7399   -4.5636   18.4363 C   0  0  2  0  0  0  0  0  0  0  0  0
   18.0423   -3.2573   17.9820 O   0  0  0  0  0  0  0  0  0  0  0  0
   16.3227   -4.8960   18.0507 C   0  0  0  0  0  0  0  0  0  0  0  0
   15.3557   -3.8928   17.7782 C   0  0  0  0  0  0  0  0  0  0  0  0
   14.0662   -4.1386   17.2383 C   0  0  0  0  0  0  0  0  0  0  0  0
   13.5899   -5.4244   16.9534 C   0  0  0  0  0  0  0  0  0  0  0  0
   14.4474   -6.4588   17.3304 C   0  0  0  0  0  0  0  0  0  0  0  0
   14.2649   -7.7887   17.2568 N   0  0  0  0  0  0  0  0  0  0  0  0
   15.3320   -8.3041   17.9146 N   0  0  0  0  0  0  0  0  0  0  0  0
   15.4077   -9.7300   18.2049 C   0  0  0  0  0  0  0  0  0  0  0  0
   15.4778   -9.9563   19.5462 F   0  0  0  0  0  0  0  0  0  0  0  0
   16.5364  -10.2755   17.6709 F   0  0  0  0  0  0  0  0  0  0  0  0
   16.2710   -7.3670   18.2597 C   0  0  0  0  0  0  0  0  0  0  0  0
   15.7534   -6.1661   17.8616 C   0  0  0  0  0  0  0  0  0  0  0  0
   20.2948   -5.7632   20.1212 C   0  0  0  0  0  0  0  0  0  0  0  0
   19.7201   -7.3758   18.0393 N   0  0  0  0  0  0  0  0  0  0  0  0
   19.1401   -8.0395   17.0157 C   0  0  0  0  0  0  0  0  0  0  0  0
   18.4593   -8.1840   13.3537 N   0  0  0  0  0  0  0  0  0  0  0  0
  1  2  1  0
  2  3  2  0
  3  4  1  0
  4  5  1  0
  5  6  1  0
  6  7  2  0
  7  8  1  0
  8  9  2  0
  9 10  1  0
 10 11  1  0
 11 12  1  0
 12 13  1  0
 13 14  1  6
 14 15  1  0
 15 16  1  1
 15 17  1  0
 17 18  2  0
 18 19  1  0
 19 20  2  0
 20 21  1  0
 21 22  2  0
 22 23  1  0
 23 24  1  0
 24 25  1  0
 24 26  1  0
 23 27  1  0
 27 28  2  0
 13 29  1  0
  9 30  1  0
 30 31  2  0
  5 32  2  0
 32  2  1  0
 31  6  1  0
 29 10  1  0
 28 17  1  0
 28 21  1  0
M  END
>  <energy_score>  (4681) 
-46.292015

>  <inchikey>  (4681) 
UIVNITJLGWPWRT-UHFFFAOYSA-N

>  <smiles>  (4681) 
Cc1noc(-c2ccc(N3CCC(NC(O)c4cccc5nn(C(F)F)cc45)C3)nc2)n1

>  <ref_pdb>  (4681) 
A3181a

>  <alias>  (4681) 
UIVNITJLGWPWRT-UHFFFAOYSA-N-P103-P12-P103-601509

>  <HIPPO Pose ID>  (4681) 
516255

>  <name>  (4681) 
UIVNITJLGWPWRT-UHFFFAOYSA-N-P103-P12-P103-601509

>  <HIPPO Compound ID>  (4681) 
293513

>  <ref_mols>  (4681) 
A0497a,A1105b

>  <distance_score>  (4681) 
1.591859

>  <inspiration_score>  (4681) 
None

$$$$
MWUWKTZGOFIRIC-UHFFFAOYSA-N-P12-P12-P103-601509
     RDKit          3D

 32 36  0  0  0  0  0  0  0  0999 V2000
   21.3315   -7.7451   19.5602 C   0  0  0  0  0  0  0  0  0  0  0  0
   21.0822   -6.4939   18.9385 O   0  0  0  0  0  0  0  0  0  0  0  0
   19.6942   -6.2709   18.6772 C   0  0  1  0  0  0  0  0  0  0  0  0
   19.4457   -4.8350   18.7596 N   0  0  0  0  0  0  0  0  0  0  0  0
   18.3900   -4.4687   19.7119 C   0  0  0  0  0  0  0  0  0  0  0  0
   17.9251   -3.0223   19.5028 C   0  0  0  0  0  0  0  0  0  0  0  0
   19.0159   -2.0284   19.9017 C   0  0  0  0  0  0  0  0  0  0  0  0
   19.5919   -2.2487   21.2481 N   0  0  0  0  0  0  0  0  0  0  0  0
   21.0592   -2.4288   21.1869 C   0  0  1  0  0  0  0  0  0  0  0  0
   21.8034   -1.1910   20.6628 C   0  0  0  0  0  0  0  0  0  0  0  0
   23.2516   -1.4790   21.0496 C   0  0  0  0  0  0  0  0  0  0  0  0
   23.1342   -2.1363   22.3386 N   0  0  0  0  0  0  0  0  0  0  0  0
   24.1730   -2.5950   23.1012 C   0  0  0  0  0  0  0  0  0  0  0  0
   25.5024   -2.2909   22.8006 C   0  0  0  0  0  0  0  0  0  0  0  0
   26.5400   -2.7650   23.6084 C   0  0  0  0  0  0  0  0  0  0  0  0
   26.2304   -3.5354   24.7146 C   0  0  0  0  0  0  0  0  0  0  0  0
   27.4637   -4.1418   25.7398 Cl  0  0  0  0  0  0  0  0  0  0  0  0
   24.8978   -3.7961   24.9644 C   0  0  0  0  0  0  0  0  0  0  0  0
   23.8808   -3.3437   24.1902 N   0  0  0  0  0  0  0  0  0  0  0  0
   21.7784   -2.6497   22.5482 C   0  0  0  0  0  0  0  0  0  0  0  0
   18.9130   -3.3459   21.9526 C   0  0  0  0  0  0  0  0  0  0  0  0
   18.8614   -4.6594   21.1664 C   0  0  0  0  0  0  0  0  0  0  0  0
   19.3247   -6.8289   17.3236 C   0  0  0  0  0  0  0  0  0  0  0  0
   20.2257   -6.8409   16.2200 C   0  0  0  0  0  0  0  0  0  0  0  0
   19.9206   -7.3500   14.9185 C   0  0  0  0  0  0  0  0  0  0  0  0
   18.6659   -7.8903   14.5740 C   0  0  0  0  0  0  0  0  0  0  0  0
   17.7339   -7.8704   15.6240 C   0  0  0  0  0  0  0  0  0  0  0  0
   16.4504   -8.2737   15.6342 N   0  0  0  0  0  0  0  0  0  0  0  0
   16.0103   -7.9797   16.8750 N   0  0  0  0  0  0  0  0  0  0  0  0
   14.6221   -8.2045   17.2042 C   0  0  0  0  0  0  0  0  0  0  0  0
   16.9656   -7.4675   17.7040 C   0  0  0  0  0  0  0  0  0  0  0  0
   18.0889   -7.3578   16.9284 C   0  0  0  0  0  0  0  0  0  0  0  0
  1  2  1  0
  2  3  1  0
  3  4  1  6
  4  5  1  0
  5  6  1  0
  6  7  1  0
  7  8  1  0
  9  8  1  1
  9 10  1  0
 10 11  1  0
 11 12  1  0
 12 13  1  0
 13 14  2  0
 14 15  1  0
 15 16  2  0
 16 17  1  0
 16 18  1  0
 18 19  2  0
 12 20  1  0
  8 21  1  0
 21 22  1  0
  3 23  1  0
 23 24  2  0
 24 25  1  0
 25 26  2  0
 26 27  1  0
 27 28  2  0
 28 29  1  0
 29 30  1  0
 29 31  1  0
 31 32  2  0
 22  5  1  0
 32 23  1  0
 20  9  1  0
 32 27  1  0
 19 13  1  0
M  END
>  <energy_score>  (4682) 
-52.496354

>  <inchikey>  (4682) 
MWUWKTZGOFIRIC-UHFFFAOYSA-N

>  <smiles>  (4682) 
COC(NC1CCN(C2CCN(c3ccc(Cl)cn3)C2)CC1)c1cccc2nn(C)cc12

>  <ref_pdb>  (4682) 
A3181a

>  <alias>  (4682) 
MWUWKTZGOFIRIC-UHFFFAOYSA-N-P12-P12-P103-601509

>  <HIPPO Pose ID>  (4682) 
516256

>  <name>  (4682) 
MWUWKTZGOFIRIC-UHFFFAOYSA-N-P12-P12-P103-601509

>  <HIPPO Compound ID>  (4682) 
293514

>  <ref_mols>  (4682) 
A0497a,A1105b

>  <distance_score>  (4682) 
1.235735

>  <inspiration_score>  (4682) 
None

$$$$
MWUWKTZGOFIRIC-UHFFFAOYSA-N-P103-P12-P103-601509
     RDKit          3D

 32 36  0  0  0  0  0  0  0  0999 V2000
   21.0510   -8.6647   19.4862 C   0  0  0  0  0  0  0  0  0  0  0  0
   21.2431   -7.3604   18.9549 O   0  0  0  0  0  0  0  0  0  0  0  0
   20.0149   -6.7152   18.6016 C   0  0  1  0  0  0  0  0  0  0  0  0
   20.2986   -5.2918   18.5345 N   0  0  0  0  0  0  0  0  0  0  0  0
   19.1111   -4.4232   18.5348 C   0  0  0  0  0  0  0  0  0  0  0  0
   19.5283   -3.0007   18.1506 C   0  0  0  0  0  0  0  0  0  0  0  0
   20.3179   -2.2994   19.2579 C   0  0  0  0  0  0  0  0  0  0  0  0
   19.5851   -2.2666   20.5391 N   0  0  0  0  0  0  0  0  0  0  0  0
   20.3612   -1.5760   21.5917 C   0  0  1  0  0  0  0  0  0  0  0  0
   20.6387   -0.0983   21.2870 C   0  0  0  0  0  0  0  0  0  0  0  0
   21.0899    0.4494   22.6381 C   0  0  0  0  0  0  0  0  0  0  0  0
   20.2740   -0.2743   23.6005 N   0  0  0  0  0  0  0  0  0  0  0  0
   20.4624   -0.2211   24.9597 C   0  0  0  0  0  0  0  0  0  0  0  0
   21.1751    0.8192   25.5617 C   0  0  0  0  0  0  0  0  0  0  0  0
   21.3564    0.8494   26.9476 C   0  0  0  0  0  0  0  0  0  0  0  0
   20.8189   -0.1666   27.7168 C   0  0  0  0  0  0  0  0  0  0  0  0
   21.0170   -0.1842   29.4193 Cl  0  0  0  0  0  0  0  0  0  0  0  0
   20.1151   -1.1608   27.0672 C   0  0  0  0  0  0  0  0  0  0  0  0
   19.9177   -1.1950   25.7259 N   0  0  0  0  0  0  0  0  0  0  0  0
   19.6777   -1.4663   22.9848 C   0  0  0  0  0  0  0  0  0  0  0  0
   19.2024   -3.6236   20.9582 C   0  0  0  0  0  0  0  0  0  0  0  0
   18.3877   -4.3471   19.8854 C   0  0  0  0  0  0  0  0  0  0  0  0
   19.4982   -7.2562   17.2968 C   0  0  0  0  0  0  0  0  0  0  0  0
   20.3088   -7.3612   16.1321 C   0  0  0  0  0  0  0  0  0  0  0  0
   19.8713   -7.8952   14.8801 C   0  0  0  0  0  0  0  0  0  0  0  0
   18.5663   -8.3804   14.6591 C   0  0  0  0  0  0  0  0  0  0  0  0
   17.7220   -8.2666   15.7756 C   0  0  0  0  0  0  0  0  0  0  0  0
   16.4293   -8.6156   15.9123 N   0  0  0  0  0  0  0  0  0  0  0  0
   16.0951   -8.2008   17.1523 N   0  0  0  0  0  0  0  0  0  0  0  0
   14.7205   -8.2958   17.5854 C   0  0  0  0  0  0  0  0  0  0  0  0
   17.1392   -7.7093   17.8811 C   0  0  0  0  0  0  0  0  0  0  0  0
   18.2052   -7.7180   17.0212 C   0  0  0  0  0  0  0  0  0  0  0  0
  1  2  1  0
  2  3  1  0
  3  4  1  6
  4  5  1  0
  5  6  1  0
  6  7  1  0
  7  8  1  0
  9  8  1  6
  9 10  1  0
 10 11  1  0
 11 12  1  0
 12 13  1  0
 13 14  2  0
 14 15  1  0
 15 16  2  0
 16 17  1  0
 16 18  1  0
 18 19  2  0
 12 20  1  0
  8 21  1  0
 21 22  1  0
  3 23  1  0
 23 24  2  0
 24 25  1  0
 25 26  2  0
 26 27  1  0
 27 28  2  0
 28 29  1  0
 29 30  1  0
 29 31  1  0
 31 32  2  0
 22  5  1  0
 32 23  1  0
 20  9  1  0
 32 27  1  0
 19 13  1  0
M  END
>  <energy_score>  (4683) 
-65.662687

>  <inchikey>  (4683) 
MWUWKTZGOFIRIC-UHFFFAOYSA-N

>  <smiles>  (4683) 
COC(NC1CCN(C2CCN(c3ccc(Cl)cn3)C2)CC1)c1cccc2nn(C)cc12

>  <ref_pdb>  (4683) 
A3181a

>  <alias>  (4683) 
MWUWKTZGOFIRIC-UHFFFAOYSA-N-P103-P12-P103-601509

>  <HIPPO Pose ID>  (4683) 
516257

>  <name>  (4683) 
MWUWKTZGOFIRIC-UHFFFAOYSA-N-P103-P12-P103-601509

>  <HIPPO Compound ID>  (4683) 
293514

>  <ref_mols>  (4683) 
A0497a,A1105b

>  <distance_score>  (4683) 
1.231277

>  <inspiration_score>  (4683) 
None

$$$$
BDJUSQRVMADRGT-UHFFFAOYSA-N-P12-P12-P103-601509
     RDKit          3D

 32 36  0  0  0  0  0  0  0  0999 V2000
   16.3439   -8.7683   12.7551 C   0  0  0  0  0  0  0  0  0  0  0  0
   17.6965   -8.3490   12.6189 O   0  0  0  0  0  0  0  0  0  0  0  0
   18.3369   -8.0354   13.8037 C   0  0  0  0  0  0  0  0  0  0  0  0
   19.7165   -7.7635   13.7127 C   0  0  0  0  0  0  0  0  0  0  0  0
   20.5262   -7.4149   14.8314 C   0  0  0  0  0  0  0  0  0  0  0  0
   20.0573   -7.3001   16.1669 C   0  0  0  0  0  0  0  0  0  0  0  0
   20.9596   -6.8953   17.3030 C   0  0  2  0  0  0  0  0  0  0  0  0
   22.3029   -6.7890   16.8858 O   0  0  0  0  0  0  0  0  0  0  0  0
   20.9536   -7.8660   18.3907 N   0  0  0  0  0  0  0  0  0  0  0  0
   21.4929   -7.3204   19.6672 C   0  0  2  0  0  0  0  0  0  0  0  0
   20.7581   -8.0008   20.8465 C   0  0  0  0  0  0  0  0  0  0  0  0
   19.5107   -7.1175   21.1050 C   0  0  0  0  0  0  0  0  0  0  0  0
   19.6631   -6.0115   20.1543 N   0  0  0  0  0  0  0  0  0  0  0  0
   19.0947   -4.7861   20.4693 C   0  0  0  0  0  0  0  0  0  0  0  0
   18.2840   -4.1703   19.5175 C   0  0  0  0  0  0  0  0  0  0  0  0
   17.9282   -2.8285   19.6642 C   0  0  0  0  0  0  0  0  0  0  0  0
   18.3971   -2.1230   20.7653 C   0  0  0  0  0  0  0  0  0  0  0  0
   18.1758   -0.6987   20.9757 C   0  0  0  0  0  0  0  0  0  0  0  0
   17.6794    0.2415   20.1985 N   0  0  0  0  0  0  0  0  0  0  0  0
   17.7952    1.3662   20.9860 C   0  0  0  0  0  0  0  0  0  0  0  0
   17.3719    2.7096   20.5447 C   0  0  0  0  0  0  0  0  0  0  0  0
   18.3231    1.1563   22.1956 N   0  0  0  0  0  0  0  0  0  0  0  0
   18.5799   -0.2094   22.1932 O   0  0  0  0  0  0  0  0  0  0  0  0
   19.1477   -2.8473   21.6869 C   0  0  0  0  0  0  0  0  0  0  0  0
   19.4958   -4.1470   21.5741 N   0  0  0  0  0  0  0  0  0  0  0  0
   21.1194   -5.8607   19.9769 C   0  0  0  0  0  0  0  0  0  0  0  0
   18.6676   -7.5294   16.2150 C   0  0  0  0  0  0  0  0  0  0  0  0
   17.8540   -7.4064   17.3124 C   0  0  0  0  0  0  0  0  0  0  0  0
   16.6021   -7.7110   16.8715 N   0  0  0  0  0  0  0  0  0  0  0  0
   15.3860   -7.6770   17.6507 C   0  0  0  0  0  0  0  0  0  0  0  0
   16.5425   -8.0476   15.5719 N   0  0  0  0  0  0  0  0  0  0  0  0
   17.8019   -7.8989   15.1096 C   0  0  0  0  0  0  0  0  0  0  0  0
  1  2  1  0
  2  3  1  0
  3  4  2  0
  4  5  1  0
  5  6  2  0
  6  7  1  0
  7  8  1  6
  7  9  1  0
 10  9  1  6
 10 11  1  0
 11 12  1  0
 12 13  1  0
 13 14  1  0
 14 15  2  0
 15 16  1  0
 16 17  2  0
 17 18  1  0
 18 19  2  0
 19 20  1  0
 20 21  1  0
 20 22  2  0
 22 23  1  0
 17 24  1  0
 24 25  2  0
 13 26  1  0
  6 27  1  0
 27 28  2  0
 28 29  1  0
 29 30  1  0
 29 31  1  0
 31 32  2  0
 32  3  1  0
 26 10  1  0
 32 27  1  0
 25 14  1  0
 23 18  1  0
M  END
>  <energy_score>  (4684) 
-53.636523

>  <inchikey>  (4684) 
BDJUSQRVMADRGT-UHFFFAOYSA-N

>  <smiles>  (4684) 
COc1ccc(C(O)NC2CCN(c3ccc(-c4nc(C)no4)cn3)C2)c2cn(C)nc12

>  <ref_pdb>  (4684) 
A3181a

>  <alias>  (4684) 
BDJUSQRVMADRGT-UHFFFAOYSA-N-P12-P12-P103-601509

>  <HIPPO Pose ID>  (4684) 
516260

>  <name>  (4684) 
BDJUSQRVMADRGT-UHFFFAOYSA-N-P12-P12-P103-601509

>  <HIPPO Compound ID>  (4684) 
293516

>  <ref_mols>  (4684) 
A0497a,A1105b

>  <distance_score>  (4684) 
1.497049

>  <inspiration_score>  (4684) 
None

$$$$
UAIBBKLQMNIIGR-UHFFFAOYSA-N-P12-P12-P103-601509
     RDKit          3D

 32 36  0  0  0  0  0  0  0  0999 V2000
   18.2302   -2.3110   19.0980 C   0  0  0  0  0  0  0  0  0  0  0  0
   17.6839   -3.2879   19.9658 O   0  0  0  0  0  0  0  0  0  0  0  0
   17.6815   -4.6335   19.4827 C   0  0  2  0  0  0  0  0  0  0  0  0
   18.9433   -5.0179   18.9292 N   0  0  0  0  0  0  0  0  0  0  0  0
   20.1184   -4.8560   19.7880 C   0  0  1  0  0  0  0  0  0  0  0  0
   20.3507   -5.9632   20.8042 C   0  0  0  0  0  0  0  0  0  0  0  0
   21.1407   -7.0600   20.0648 C   0  0  0  0  0  0  0  0  0  0  0  0
   21.5684   -6.4776   18.7717 N   0  0  0  0  0  0  0  0  0  0  0  0
   20.8392   -6.9559   17.6543 C   0  0  0  0  0  0  0  0  0  0  0  0
   21.1468   -6.4847   16.3758 C   0  0  0  0  0  0  0  0  0  0  0  0
   20.2961   -6.7680   15.3080 C   0  0  0  0  0  0  0  0  0  0  0  0
   19.1743   -7.5622   15.5134 C   0  0  0  0  0  0  0  0  0  0  0  0
   18.2064   -7.8968   14.4965 C   0  0  0  0  0  0  0  0  0  0  0  0
   17.1401   -8.6634   14.5752 N   0  0  0  0  0  0  0  0  0  0  0  0
   16.6064   -8.5469   13.3206 C   0  0  0  0  0  0  0  0  0  0  0  0
   15.3484   -9.2106   12.9330 C   0  0  0  0  0  0  0  0  0  0  0  0
   17.3039   -7.7748   12.4759 N   0  0  0  0  0  0  0  0  0  0  0  0
   18.3847   -7.3506   13.2593 O   0  0  0  0  0  0  0  0  0  0  0  0
   18.9985   -8.0668   16.7828 C   0  0  0  0  0  0  0  0  0  0  0  0
   19.7785   -7.7749   17.8451 N   0  0  0  0  0  0  0  0  0  0  0  0
   21.3900   -5.0090   18.9178 C   0  0  0  0  0  0  0  0  0  0  0  0
   16.4662   -4.9855   18.6028 C   0  0  0  0  0  0  0  0  0  0  0  0
   15.4690   -3.9848   18.3035 C   0  0  0  0  0  0  0  0  0  0  0  0
   14.2505   -4.1965   17.5881 C   0  0  0  0  0  0  0  0  0  0  0  0
   13.8594   -5.4409   17.0902 C   0  0  0  0  0  0  0  0  0  0  0  0
   14.7270   -6.4838   17.4303 C   0  0  0  0  0  0  0  0  0  0  0  0
   14.5651   -7.7865   17.1680 N   0  0  0  0  0  0  0  0  0  0  0  0
   15.4921   -8.3913   17.9175 N   0  0  0  0  0  0  0  0  0  0  0  0
   15.4579   -9.8348   18.0043 C   0  0  0  0  0  0  0  0  0  0  0  0
   16.3270   -7.5357   18.6059 C   0  0  0  0  0  0  0  0  0  0  0  0
   17.2408   -8.0721   19.6476 C   0  0  0  0  0  0  0  0  0  0  0  0
   15.9686   -6.2636   18.1783 C   0  0  0  0  0  0  0  0  0  0  0  0
  1  2  1  0
  2  3  1  0
  3  4  1  6
  5  4  1  6
  5  6  1  0
  6  7  1  0
  7  8  1  0
  8  9  1  0
  9 10  2  0
 10 11  1  0
 11 12  2  0
 12 13  1  0
 13 14  2  0
 14 15  1  0
 15 16  1  0
 15 17  2  0
 17 18  1  0
 12 19  1  0
 19 20  2  0
  8 21  1  0
  3 22  1  0
 22 23  2  0
 23 24  1  0
 24 25  2  0
 25 26  1  0
 26 27  2  0
 27 28  1  0
 28 29  1  0
 28 30  1  0
 30 31  1  0
 30 32  2  0
 21  5  1  0
 32 22  1  0
 20  9  1  0
 32 26  1  0
 18 13  1  0
M  END
>  <energy_score>  (4685) 
-49.60092

>  <inchikey>  (4685) 
UAIBBKLQMNIIGR-UHFFFAOYSA-N

>  <smiles>  (4685) 
COC(NC1CCN(c2ccc(-c3nc(C)no3)cn2)C1)c1cccc2nn(C)c(C)c12

>  <ref_pdb>  (4685) 
A3181a

>  <alias>  (4685) 
UAIBBKLQMNIIGR-UHFFFAOYSA-N-P12-P12-P103-601509

>  <HIPPO Pose ID>  (4685) 
516262

>  <name>  (4685) 
UAIBBKLQMNIIGR-UHFFFAOYSA-N-P12-P12-P103-601509

>  <HIPPO Compound ID>  (4685) 
293517

>  <ref_mols>  (4685) 
A0497a,A1105b

>  <distance_score>  (4685) 
1.738045

>  <inspiration_score>  (4685) 
None

$$$$
UAIBBKLQMNIIGR-UHFFFAOYSA-N-P103-P12-P103-601509
     RDKit          3D

 32 36  0  0  0  0  0  0  0  0999 V2000
   18.6935   -3.1700   17.5265 C   0  0  0  0  0  0  0  0  0  0  0  0
   18.2154   -3.1543   18.8489 O   0  0  0  0  0  0  0  0  0  0  0  0
   17.5915   -4.3564   19.2799 C   0  0  2  0  0  0  0  0  0  0  0  0
   18.5322   -5.3952   19.5644 N   0  0  0  0  0  0  0  0  0  0  0  0
   19.6943   -5.1927   20.4220 C   0  0  2  0  0  0  0  0  0  0  0  0
   20.7019   -4.0952   20.0760 C   0  0  0  0  0  0  0  0  0  0  0  0
   21.5150   -4.6492   18.8944 C   0  0  0  0  0  0  0  0  0  0  0  0
   21.3593   -6.1224   18.9475 N   0  0  0  0  0  0  0  0  0  0  0  0
   20.7493   -6.6782   17.8030 C   0  0  0  0  0  0  0  0  0  0  0  0
   21.1598   -6.3432   16.5130 C   0  0  0  0  0  0  0  0  0  0  0  0
   20.4228   -6.7840   15.4069 C   0  0  0  0  0  0  0  0  0  0  0  0
   19.3086   -7.5978   15.5906 C   0  0  0  0  0  0  0  0  0  0  0  0
   18.4874   -8.1400   14.5319 C   0  0  0  0  0  0  0  0  0  0  0  0
   17.4056   -8.8873   14.6072 N   0  0  0  0  0  0  0  0  0  0  0  0
   17.1080   -9.1012   13.2885 C   0  0  0  0  0  0  0  0  0  0  0  0
   15.9372   -9.8880   12.8599 C   0  0  0  0  0  0  0  0  0  0  0  0
   17.9472   -8.5273   12.4163 N   0  0  0  0  0  0  0  0  0  0  0  0
   18.8878   -7.9076   13.2484 O   0  0  0  0  0  0  0  0  0  0  0  0
   19.0105   -7.9374   16.8879 C   0  0  0  0  0  0  0  0  0  0  0  0
   19.6904   -7.5011   17.9683 N   0  0  0  0  0  0  0  0  0  0  0  0
   20.6455   -6.4167   20.2246 C   0  0  0  0  0  0  0  0  0  0  0  0
   16.4143   -4.8368   18.4019 C   0  0  0  0  0  0  0  0  0  0  0  0
   15.4944   -3.8276   17.9634 C   0  0  0  0  0  0  0  0  0  0  0  0
   14.2729   -4.0480   17.2749 C   0  0  0  0  0  0  0  0  0  0  0  0
   13.8216   -5.3178   16.9267 C   0  0  0  0  0  0  0  0  0  0  0  0
   14.6562   -6.3653   17.3242 C   0  0  0  0  0  0  0  0  0  0  0  0
   14.4562   -7.6715   17.1113 N   0  0  0  0  0  0  0  0  0  0  0  0
   15.3876   -8.2674   17.8605 N   0  0  0  0  0  0  0  0  0  0  0  0
   15.3751   -9.7121   17.9232 C   0  0  0  0  0  0  0  0  0  0  0  0
   16.1830   -7.4037   18.5834 C   0  0  0  0  0  0  0  0  0  0  0  0
   16.9766   -7.9444   19.7252 C   0  0  0  0  0  0  0  0  0  0  0  0
   15.8945   -6.1386   18.0741 C   0  0  0  0  0  0  0  0  0  0  0  0
  1  2  1  0
  2  3  1  0
  3  4  1  6
  5  4  1  6
  5  6  1  0
  6  7  1  0
  7  8  1  0
  8  9  1  0
  9 10  2  0
 10 11  1  0
 11 12  2  0
 12 13  1  0
 13 14  2  0
 14 15  1  0
 15 16  1  0
 15 17  2  0
 17 18  1  0
 12 19  1  0
 19 20  2  0
  8 21  1  0
  3 22  1  0
 22 23  2  0
 23 24  1  0
 24 25  2  0
 25 26  1  0
 26 27  2  0
 27 28  1  0
 28 29  1  0
 28 30  1  0
 30 31  1  0
 30 32  2  0
 21  5  1  0
 32 22  1  0
 20  9  1  0
 32 26  1  0
 18 13  1  0
M  END
>  <energy_score>  (4686) 
-41.5812

>  <inchikey>  (4686) 
UAIBBKLQMNIIGR-UHFFFAOYSA-N

>  <smiles>  (4686) 
COC(NC1CCN(c2ccc(-c3nc(C)no3)cn2)C1)c1cccc2nn(C)c(C)c12

>  <ref_pdb>  (4686) 
A3181a

>  <alias>  (4686) 
UAIBBKLQMNIIGR-UHFFFAOYSA-N-P103-P12-P103-601509

>  <HIPPO Pose ID>  (4686) 
516263

>  <name>  (4686) 
UAIBBKLQMNIIGR-UHFFFAOYSA-N-P103-P12-P103-601509

>  <HIPPO Compound ID>  (4686) 
293517

>  <ref_mols>  (4686) 
A0497a,A1105b

>  <distance_score>  (4686) 
1.588561

>  <inspiration_score>  (4686) 
None

$$$$
PKWPBIHMEWIFKN-UHFFFAOYSA-N-P12-P12-P103-601509
     RDKit          3D

 32 36  0  0  0  0  0  0  0  0999 V2000
   21.3518   -8.1338   19.0345 C   0  0  0  0  0  0  0  0  0  0  0  0
   20.2612   -7.2280   19.1114 O   0  0  0  0  0  0  0  0  0  0  0  0
   20.2872   -6.2334   18.0926 C   0  0  2  0  0  0  0  0  0  0  0  0
   19.7284   -4.9545   18.5206 N   0  0  0  0  0  0  0  0  0  0  0  0
   18.4817   -4.9125   19.2988 C   0  0  0  0  0  0  0  0  0  0  0  0
   18.0495   -3.4380   19.4536 C   0  0  0  0  0  0  0  0  0  0  0  0
   19.0127   -2.6431   20.3418 C   0  0  0  0  0  0  0  0  0  0  0  0
   19.1008   -3.2731   21.6625 N   0  0  0  0  0  0  0  0  0  0  0  0
   19.8218   -2.5225   22.6940 C   0  0  1  0  0  0  0  0  0  0  0  0
   21.3373   -2.3550   22.5498 C   0  0  0  0  0  0  0  0  0  0  0  0
   21.6581   -1.4031   23.7082 C   0  0  0  0  0  0  0  0  0  0  0  0
   20.4944   -0.5342   23.7838 N   0  0  0  0  0  0  0  0  0  0  0  0
   20.2192    0.3624   24.7829 C   0  0  0  0  0  0  0  0  0  0  0  0
   21.1330    0.6561   25.7942 C   0  0  0  0  0  0  0  0  0  0  0  0
   20.7990    1.5626   26.8058 C   0  0  0  0  0  0  0  0  0  0  0  0
   19.5692    2.2001   26.7645 C   0  0  0  0  0  0  0  0  0  0  0  0
   19.1041    3.2892   28.0092 Cl  0  0  0  0  0  0  0  0  0  0  0  0
   18.7321    1.9107   25.7071 C   0  0  0  0  0  0  0  0  0  0  0  0
   19.0184    0.9814   24.7610 N   0  0  0  0  0  0  0  0  0  0  0  0
   19.3827   -1.0659   22.9832 C   0  0  0  0  0  0  0  0  0  0  0  0
   19.5684   -4.6603   21.5630 C   0  0  0  0  0  0  0  0  0  0  0  0
   18.6005   -5.4778   20.7178 C   0  0  0  0  0  0  0  0  0  0  0  0
   19.6949   -6.7727   16.8006 C   0  0  0  0  0  0  0  0  0  0  0  0
   20.4167   -6.6180   15.5913 C   0  0  0  0  0  0  0  0  0  0  0  0
   19.9470   -7.1214   14.3774 C   0  0  0  0  0  0  0  0  0  0  0  0
   18.7243   -7.7872   14.3037 C   0  0  0  0  0  0  0  0  0  0  0  0
   17.9990   -7.9289   15.4930 C   0  0  0  0  0  0  0  0  0  0  0  0
   18.4588   -7.4523   16.7192 C   0  0  0  0  0  0  0  0  0  0  0  0
   17.4605   -7.8472   17.6399 C   0  0  0  0  0  0  0  0  0  0  0  0
   16.4348   -8.4755   17.0634 N   0  0  0  0  0  0  0  0  0  0  0  0
   16.7824   -8.5057   15.7653 N   0  0  0  0  0  0  0  0  0  0  0  0
   15.8997   -9.1366   14.8142 C   0  0  0  0  0  0  0  0  0  0  0  0
  1  2  1  0
  2  3  1  0
  3  4  1  1
  4  5  1  0
  5  6  1  0
  6  7  1  0
  7  8  1  0
  9  8  1  6
  9 10  1  0
 10 11  1  0
 11 12  1  0
 12 13  1  0
 13 14  2  0
 14 15  1  0
 15 16  2  0
 16 17  1  0
 16 18  1  0
 18 19  2  0
 12 20  1  0
  8 21  1  0
 21 22  1  0
  3 23  1  0
 23 24  2  0
 24 25  1  0
 25 26  2  0
 26 27  1  0
 27 28  2  0
 28 29  1  0
 29 30  2  0
 30 31  1  0
 31 32  1  0
 22  5  1  0
 28 23  1  0
 20  9  1  0
 31 27  1  0
 19 13  1  0
M  END
>  <energy_score>  (4687) 
-61.196113

>  <inchikey>  (4687) 
PKWPBIHMEWIFKN-UHFFFAOYSA-N

>  <smiles>  (4687) 
COC(NC1CCN(C2CCN(c3ccc(Cl)cn3)C2)CC1)c1cccc2c1cnn2C

>  <ref_pdb>  (4687) 
A3181a

>  <alias>  (4687) 
PKWPBIHMEWIFKN-UHFFFAOYSA-N-P12-P12-P103-601509

>  <HIPPO Pose ID>  (4687) 
516264

>  <name>  (4687) 
PKWPBIHMEWIFKN-UHFFFAOYSA-N-P12-P12-P103-601509

>  <HIPPO Compound ID>  (4687) 
293518

>  <ref_mols>  (4687) 
A0497a,A1105b

>  <distance_score>  (4687) 
1.068916

>  <inspiration_score>  (4687) 
None

$$$$
PKWPBIHMEWIFKN-UHFFFAOYSA-N-P103-P12-P103-601509
     RDKit          3D

 32 36  0  0  0  0  0  0  0  0999 V2000
   21.2398   -8.6093   18.7351 C   0  0  0  0  0  0  0  0  0  0  0  0
   20.1952   -7.6505   18.6582 O   0  0  0  0  0  0  0  0  0  0  0  0
   20.3536   -6.7428   17.5703 C   0  0  2  0  0  0  0  0  0  0  0  0
   19.8347   -5.4068   17.8613 N   0  0  0  0  0  0  0  0  0  0  0  0
   18.6218   -5.3436   18.6901 C   0  0  0  0  0  0  0  0  0  0  0  0
   17.8794   -4.0251   18.4258 C   0  0  0  0  0  0  0  0  0  0  0  0
   18.6216   -2.8139   18.9869 C   0  0  0  0  0  0  0  0  0  0  0  0
   18.8565   -2.9534   20.4347 N   0  0  0  0  0  0  0  0  0  0  0  0
   19.5066   -1.7476   20.9901 C   0  0  1  0  0  0  0  0  0  0  0  0
   18.7063   -0.4559   20.7885 C   0  0  0  0  0  0  0  0  0  0  0  0
   19.3051    0.5116   21.8072 C   0  0  0  0  0  0  0  0  0  0  0  0
   19.8257   -0.3476   22.8815 N   0  0  0  0  0  0  0  0  0  0  0  0
   19.6778    0.0815   24.1828 C   0  0  0  0  0  0  0  0  0  0  0  0
   20.0257   -0.7129   25.2747 C   0  0  0  0  0  0  0  0  0  0  0  0
   19.8716   -0.2265   26.5780 C   0  0  0  0  0  0  0  0  0  0  0  0
   19.3732    1.0539   26.7687 C   0  0  0  0  0  0  0  0  0  0  0  0
   19.1573    1.6850   28.3490 Cl  0  0  0  0  0  0  0  0  0  0  0  0
   19.0555    1.7925   25.6495 C   0  0  0  0  0  0  0  0  0  0  0  0
   19.2111    1.3255   24.3903 N   0  0  0  0  0  0  0  0  0  0  0  0
   19.6580   -1.7546   22.5305 C   0  0  0  0  0  0  0  0  0  0  0  0
   19.6549   -4.1609   20.6956 C   0  0  0  0  0  0  0  0  0  0  0  0
   18.9380   -5.4121   20.1917 C   0  0  0  0  0  0  0  0  0  0  0  0
   19.7780   -7.3298   16.2890 C   0  0  0  0  0  0  0  0  0  0  0  0
   20.4597   -7.0922   15.0710 C   0  0  0  0  0  0  0  0  0  0  0  0
   20.0259   -7.6348   13.8622 C   0  0  0  0  0  0  0  0  0  0  0  0
   18.8744   -8.4188   13.8012 C   0  0  0  0  0  0  0  0  0  0  0  0
   18.1771   -8.6308   14.9966 C   0  0  0  0  0  0  0  0  0  0  0  0
   18.6011   -8.1140   16.2199 C   0  0  0  0  0  0  0  0  0  0  0  0
   17.6423   -8.5929   17.1459 C   0  0  0  0  0  0  0  0  0  0  0  0
   16.6861   -9.3304   16.5771 N   0  0  0  0  0  0  0  0  0  0  0  0
   17.0260   -9.3264   15.2769 N   0  0  0  0  0  0  0  0  0  0  0  0
   16.2060  -10.0459   14.3326 C   0  0  0  0  0  0  0  0  0  0  0  0
  1  2  1  0
  2  3  1  0
  3  4  1  1
  4  5  1  0
  5  6  1  0
  6  7  1  0
  7  8  1  0
  9  8  1  1
  9 10  1  0
 10 11  1  0
 11 12  1  0
 12 13  1  0
 13 14  2  0
 14 15  1  0
 15 16  2  0
 16 17  1  0
 16 18  1  0
 18 19  2  0
 12 20  1  0
  8 21  1  0
 21 22  1  0
  3 23  1  0
 23 24  2  0
 24 25  1  0
 25 26  2  0
 26 27  1  0
 27 28  2  0
 28 29  1  0
 29 30  2  0
 30 31  1  0
 31 32  1  0
 22  5  1  0
 28 23  1  0
 20  9  1  0
 31 27  1  0
 19 13  1  0
M  END
>  <energy_score>  (4688) 
-70.262701

>  <inchikey>  (4688) 
PKWPBIHMEWIFKN-UHFFFAOYSA-N

>  <smiles>  (4688) 
COC(NC1CCN(C2CCN(c3ccc(Cl)cn3)C2)CC1)c1cccc2c1cnn2C

>  <ref_pdb>  (4688) 
A3181a

>  <alias>  (4688) 
PKWPBIHMEWIFKN-UHFFFAOYSA-N-P103-P12-P103-601509

>  <HIPPO Pose ID>  (4688) 
516265

>  <name>  (4688) 
PKWPBIHMEWIFKN-UHFFFAOYSA-N-P103-P12-P103-601509

>  <HIPPO Compound ID>  (4688) 
293518

>  <ref_mols>  (4688) 
A0497a,A1105b

>  <distance_score>  (4688) 
1.417322

>  <inspiration_score>  (4688) 
None

$$$$
CAJQSUOWCUNKRL-UHFFFAOYSA-N-P12-P12-P103-601509
     RDKit          3D

 32 36  0  0  0  0  0  0  0  0999 V2000
   18.5283   -8.2165   18.9749 C   0  0  0  0  0  0  0  0  0  0  0  0
   18.4281   -8.3847   17.5044 C   0  0  0  0  0  0  0  0  0  0  0  0
   19.2864   -8.1620   16.4410 C   0  0  0  0  0  0  0  0  0  0  0  0
   20.6799   -7.8795   16.4431 C   0  0  0  0  0  0  0  0  0  0  0  0
   21.7034   -8.0013   17.5631 C   0  0  1  0  0  0  0  0  0  0  0  0
   22.6792   -8.9542   17.1517 O   0  0  0  0  0  0  0  0  0  0  0  0
   22.4295   -6.7832   17.9297 N   0  0  0  0  0  0  0  0  0  0  0  0
   21.6367   -5.8663   18.7467 C   0  0  0  0  0  0  0  0  0  0  0  0
   22.4129   -4.6759   19.3514 C   0  0  0  0  0  0  0  0  0  0  0  0
   21.4579   -3.7425   20.1621 C   0  0  0  0  0  0  0  0  0  0  0  0
   20.2427   -3.3704   19.4327 N   0  0  0  0  0  0  0  0  0  0  0  0
   19.3108   -2.4652   20.1318 C   0  0  2  0  0  0  0  0  0  0  0  0
   18.7223   -2.9704   21.4479 C   0  0  0  0  0  0  0  0  0  0  0  0
   17.5065   -3.7778   21.0190 C   0  0  0  0  0  0  0  0  0  0  0  0
   16.9639   -3.0743   19.8494 N   0  0  0  0  0  0  0  0  0  0  0  0
   16.2716   -3.8412   18.8883 C   0  0  0  0  0  0  0  0  0  0  0  0
   15.1124   -3.2970   18.3479 C   0  0  0  0  0  0  0  0  0  0  0  0
   14.1811   -4.0832   17.6477 C   0  0  0  0  0  0  0  0  0  0  0  0
   14.4368   -5.4265   17.4750 C   0  0  0  0  0  0  0  0  0  0  0  0
   13.3796   -6.4838   16.6490 Cl  0  0  0  0  0  0  0  0  0  0  0  0
   15.6360   -5.8935   17.9623 C   0  0  0  0  0  0  0  0  0  0  0  0
   16.5521   -5.1429   18.6435 N   0  0  0  0  0  0  0  0  0  0  0  0
   17.9972   -2.1459   19.3381 C   0  0  0  0  0  0  0  0  0  0  0  0
   19.6057   -4.5561   18.9043 C   0  0  0  0  0  0  0  0  0  0  0  0
   20.5224   -5.2422   17.9398 C   0  0  0  0  0  0  0  0  0  0  0  0
   21.1058   -7.5045   15.1311 C   0  0  0  0  0  0  0  0  0  0  0  0
   20.2730   -7.4584   13.9761 C   0  0  0  0  0  0  0  0  0  0  0  0
   18.9137   -7.8076   13.9965 C   0  0  0  0  0  0  0  0  0  0  0  0
   18.4309   -8.1677   15.2631 C   0  0  0  0  0  0  0  0  0  0  0  0
   17.1995   -8.5835   15.5929 N   0  0  0  0  0  0  0  0  0  0  0  0
   17.2717   -8.8361   16.9087 N   0  0  0  0  0  0  0  0  0  0  0  0
   16.1741   -9.5536   17.5215 C   0  0  0  0  0  0  0  0  0  0  0  0
  1  2  1  0
  2  3  2  0
  3  4  1  0
  4  5  1  0
  5  6  1  6
  5  7  1  0
  7  8  1  0
  8  9  1  0
  9 10  1  0
 10 11  1  0
 12 11  1  6
 12 13  1  0
 13 14  1  0
 14 15  1  0
 15 16  1  0
 16 17  2  0
 17 18  1  0
 18 19  2  0
 19 20  1  0
 19 21  1  0
 21 22  2  0
 15 23  1  0
 11 24  1  0
 24 25  1  0
  4 26  2  0
 26 27  1  0
 27 28  2  0
 28 29  1  0
 29 30  2  0
 30 31  1  0
 31 32  1  0
 31  2  1  0
 29  3  1  0
 25  8  1  0
 23 12  1  0
 22 16  1  0
M  END
>  <energy_score>  (4689) 
-61.20357

>  <inchikey>  (4689) 
CAJQSUOWCUNKRL-UHFFFAOYSA-N

>  <smiles>  (4689) 
Cc1c2c(C(O)NC3CCN(C4CCN(c5ccc(Cl)cn5)C4)CC3)cccc2nn1C

>  <ref_pdb>  (4689) 
A3181a

>  <alias>  (4689) 
CAJQSUOWCUNKRL-UHFFFAOYSA-N-P12-P12-P103-601509

>  <HIPPO Pose ID>  (4689) 
516266

>  <name>  (4689) 
CAJQSUOWCUNKRL-UHFFFAOYSA-N-P12-P12-P103-601509

>  <HIPPO Compound ID>  (4689) 
293519

>  <ref_mols>  (4689) 
A0497a,A1105b

>  <distance_score>  (4689) 
1.900415

>  <inspiration_score>  (4689) 
None

$$$$
CAJQSUOWCUNKRL-UHFFFAOYSA-N-P103-P12-P103-601509
     RDKit          3D

 32 36  0  0  0  0  0  0  0  0999 V2000
   18.6483   -8.0199   18.8455 C   0  0  0  0  0  0  0  0  0  0  0  0
   18.4004   -8.3568   17.4235 C   0  0  0  0  0  0  0  0  0  0  0  0
   19.1088   -8.1646   16.2506 C   0  0  0  0  0  0  0  0  0  0  0  0
   20.4598   -7.7836   16.0551 C   0  0  0  0  0  0  0  0  0  0  0  0
   21.6002   -7.7151   17.0399 C   0  0  1  0  0  0  0  0  0  0  0  0
   22.5732   -8.6685   16.6532 O   0  0  0  0  0  0  0  0  0  0  0  0
   22.3162   -6.4452   17.0809 N   0  0  0  0  0  0  0  0  0  0  0  0
   21.4687   -5.3881   17.6319 C   0  0  0  0  0  0  0  0  0  0  0  0
   21.3364   -5.5286   19.1410 C   0  0  0  0  0  0  0  0  0  0  0  0
   20.2405   -4.5782   19.5759 C   0  0  0  0  0  0  0  0  0  0  0  0
   20.5635   -3.1888   19.2949 N   0  0  0  0  0  0  0  0  0  0  0  0
   19.5232   -2.2374   19.7298 C   0  0  2  0  0  0  0  0  0  0  0  0
   18.9071   -2.5086   21.1091 C   0  0  0  0  0  0  0  0  0  0  0  0
   17.6964   -3.3871   20.7961 C   0  0  0  0  0  0  0  0  0  0  0  0
   17.1565   -2.8236   19.5569 N   0  0  0  0  0  0  0  0  0  0  0  0
   16.4494   -3.7051   18.7151 C   0  0  0  0  0  0  0  0  0  0  0  0
   15.1886   -3.2908   18.2844 C   0  0  0  0  0  0  0  0  0  0  0  0
   14.2936   -4.1663   17.6610 C   0  0  0  0  0  0  0  0  0  0  0  0
   14.7009   -5.4611   17.4478 C   0  0  0  0  0  0  0  0  0  0  0  0
   13.6603   -6.6719   16.8359 Cl  0  0  0  0  0  0  0  0  0  0  0  0
   16.0012   -5.7688   17.7925 C   0  0  0  0  0  0  0  0  0  0  0  0
   16.8741   -4.9482   18.4433 N   0  0  0  0  0  0  0  0  0  0  0  0
   18.2455   -2.1147   18.8672 C   0  0  0  0  0  0  0  0  0  0  0  0
   21.0019   -2.9545   17.9012 C   0  0  0  0  0  0  0  0  0  0  0  0
   22.0187   -3.9820   17.3769 C   0  0  0  0  0  0  0  0  0  0  0  0
   20.7305   -7.6050   14.6637 C   0  0  0  0  0  0  0  0  0  0  0  0
   19.8019   -7.8238   13.6116 C   0  0  0  0  0  0  0  0  0  0  0  0
   18.4887   -8.2618   13.8338 C   0  0  0  0  0  0  0  0  0  0  0  0
   18.1560   -8.4322   15.1851 C   0  0  0  0  0  0  0  0  0  0  0  0
   17.0006   -8.8778   15.6988 N   0  0  0  0  0  0  0  0  0  0  0  0
   17.2303   -8.9618   17.0175 N   0  0  0  0  0  0  0  0  0  0  0  0
   16.2391   -9.6109   17.8490 C   0  0  0  0  0  0  0  0  0  0  0  0
  1  2  1  0
  2  3  2  0
  3  4  1  0
  4  5  1  0
  5  6  1  6
  5  7  1  0
  7  8  1  0
  8  9  1  0
  9 10  1  0
 10 11  1  0
 12 11  1  6
 12 13  1  0
 13 14  1  0
 14 15  1  0
 15 16  1  0
 16 17  2  0
 17 18  1  0
 18 19  2  0
 19 20  1  0
 19 21  1  0
 21 22  2  0
 15 23  1  0
 11 24  1  0
 24 25  1  0
  4 26  2  0
 26 27  1  0
 27 28  2  0
 28 29  1  0
 29 30  2  0
 30 31  1  0
 31 32  1  0
 31  2  1  0
 29  3  1  0
 25  8  1  0
 23 12  1  0
 22 16  1  0
M  END
>  <energy_score>  (4690) 
-74.18314

>  <inchikey>  (4690) 
CAJQSUOWCUNKRL-UHFFFAOYSA-N

>  <smiles>  (4690) 
Cc1c2c(C(O)NC3CCN(C4CCN(c5ccc(Cl)cn5)C4)CC3)cccc2nn1C

>  <ref_pdb>  (4690) 
A3181a

>  <alias>  (4690) 
CAJQSUOWCUNKRL-UHFFFAOYSA-N-P103-P12-P103-601509

>  <HIPPO Pose ID>  (4690) 
516267

>  <name>  (4690) 
CAJQSUOWCUNKRL-UHFFFAOYSA-N-P103-P12-P103-601509

>  <HIPPO Compound ID>  (4690) 
293519

>  <ref_mols>  (4690) 
A0497a,A1105b

>  <distance_score>  (4690) 
1.904712

>  <inspiration_score>  (4690) 
None

$$$$
XBKNRNAEMQQHMT-UHFFFAOYSA-N-P127-P127-P536-601509
     RDKit          3D

 30 33  0  0  0  0  0  0  0  0999 V2000
   10.2313    9.4875   22.3696 C   0  0  0  0  0  0  0  0  0  0  0  0
    9.9162   10.2094   23.5669 N   0  0  0  0  0  0  0  0  0  0  0  0
    8.9210    9.6384   24.3150 C   0  0  0  0  0  0  0  0  0  0  0  0
    8.5895    8.4766   24.3248 O   0  0  0  0  0  0  0  0  0  0  0  0
    8.3067   10.6732   25.1045 C   0  0  0  0  0  0  0  0  0  0  0  0
    7.2476   10.5292   25.9778 C   0  0  0  0  0  0  0  0  0  0  0  0
    6.8605   11.6572   26.6800 C   0  0  0  0  0  0  0  0  0  0  0  0
    7.5548   12.8629   26.5035 C   0  0  0  0  0  0  0  0  0  0  0  0
    8.6282   12.9701   25.6051 C   0  0  0  0  0  0  0  0  0  0  0  0
    8.9812   11.8632   24.8579 C   0  0  0  0  0  0  0  0  0  0  0  0
    9.9935   11.6628   23.7418 C   0  0  1  0  0  0  0  0  0  0  0  0
   11.3791   12.2232   24.1193 C   0  0  0  0  0  0  0  0  0  0  0  0
   11.9885   13.2260   23.1834 C   0  0  0  0  0  0  0  0  0  0  0  0
   13.0812   13.1792   22.8018 O   0  0  0  0  0  0  0  0  0  0  0  0
   10.8791   14.2169   22.8767 N   0  0  0  0  0  0  0  0  0  0  0  0
   10.8950   15.4197   22.1084 C   0  0  1  0  0  0  0  0  0  0  0  0
   11.3062   15.2485   20.6671 C   0  0  0  0  0  0  0  0  0  0  0  0
   10.0844   14.9760   19.8298 C   0  0  0  0  0  0  0  0  0  0  0  0
    9.0035   14.2875   20.6680 C   0  0  0  0  0  0  0  0  0  0  0  0
    8.4363   15.1079   21.7202 N   0  0  0  0  0  0  0  0  0  0  0  0
    7.6085   14.4034   22.7020 C   0  0  0  0  0  0  0  0  0  0  0  0
    6.1657   14.9213   22.7833 C   0  0  0  0  0  0  0  0  0  0  0  0
    5.5655   14.4618   23.9992 O   0  0  0  0  0  0  0  0  0  0  0  0
    4.4380   15.2327   24.4055 C   0  0  1  0  0  0  0  0  0  0  0  0
    3.1663   14.8870   23.6359 C   0  0  0  0  0  0  0  0  0  0  0  0
    1.9281   15.0510   24.5037 C   0  0  0  0  0  0  0  0  0  0  0  0
    2.0463   14.3006   25.8283 C   0  0  0  0  0  0  0  0  0  0  0  0
    3.4919   14.0429   26.2305 C   0  0  0  0  0  0  0  0  0  0  0  0
    4.3023   15.1293   25.8357 O   0  0  0  0  0  0  0  0  0  0  0  0
    9.4667   15.9867   22.2525 C   0  0  0  0  0  0  0  0  0  0  0  0
  1  2  1  0
  2  3  1  0
  3  4  2  0
  3  5  1  0
  5  6  2  0
  6  7  1  0
  7  8  2  0
  8  9  1  0
  9 10  2  0
 10 11  1  0
 11 12  1  1
 12 13  1  0
 13 14  2  0
 13 15  1  0
 16 15  1  1
 16 17  1  0
 17 18  1  0
 18 19  1  0
 19 20  1  0
 20 21  1  0
 21 22  1  0
 22 23  1  0
 24 23  1  6
 24 25  1  0
 25 26  1  0
 26 27  1  0
 27 28  1  0
 28 29  1  0
 20 30  1  0
 11  2  1  0
 30 16  1  0
 10  5  1  0
 29 24  1  0
M  END
>  <energy_score>  (4691) 
-21.216941

>  <inchikey>  (4691) 
XBKNRNAEMQQHMT-UHFFFAOYSA-N

>  <smiles>  (4691) 
CN1C(=O)c2ccccc2C1CC(=O)NC1CCCN(CCOC2CCCCO2)C1

>  <ref_pdb>  (4691) 
A3181a

>  <alias>  (4691) 
XBKNRNAEMQQHMT-UHFFFAOYSA-N-P127-P127-P536-601509

>  <HIPPO Pose ID>  (4691) 
516618

>  <name>  (4691) 
XBKNRNAEMQQHMT-UHFFFAOYSA-N-P127-P127-P536-601509

>  <HIPPO Compound ID>  (4691) 
291896

>  <ref_mols>  (4691) 
A4943b,A2293a

>  <distance_score>  (4691) 
1.571558

>  <inspiration_score>  (4691) 
None

$$$$
XBKNRNAEMQQHMT-UHFFFAOYSA-N-P536-P127-P536-601509
     RDKit          3D

 30 33  0  0  0  0  0  0  0  0999 V2000
    9.8550    9.5739   22.6229 C   0  0  0  0  0  0  0  0  0  0  0  0
    9.1219   10.3610   23.5585 N   0  0  0  0  0  0  0  0  0  0  0  0
    8.2741    9.6935   24.3926 C   0  0  0  0  0  0  0  0  0  0  0  0
    8.1007    8.4966   24.4637 O   0  0  0  0  0  0  0  0  0  0  0  0
    7.5895   10.7032   25.1692 C   0  0  0  0  0  0  0  0  0  0  0  0
    6.5714   10.4950   26.0735 C   0  0  0  0  0  0  0  0  0  0  0  0
    6.0269   11.6169   26.6801 C   0  0  0  0  0  0  0  0  0  0  0  0
    6.5137   12.8929   26.3659 C   0  0  0  0  0  0  0  0  0  0  0  0
    7.5481   13.0703   25.4387 C   0  0  0  0  0  0  0  0  0  0  0  0
    8.0936   11.9582   24.8281 C   0  0  0  0  0  0  0  0  0  0  0  0
    9.1247   11.8253   23.7450 C   0  0  1  0  0  0  0  0  0  0  0  0
   10.5105   12.3700   24.0205 C   0  0  0  0  0  0  0  0  0  0  0  0
   10.6500   13.8460   24.2551 C   0  0  0  0  0  0  0  0  0  0  0  0
   10.4295   14.3645   25.2736 O   0  0  0  0  0  0  0  0  0  0  0  0
   11.0966   14.4427   22.9070 N   0  0  0  0  0  0  0  0  0  0  0  0
   11.2731   15.8075   22.5056 C   0  0  1  0  0  0  0  0  0  0  0  0
   11.7086   15.8723   21.0500 C   0  0  0  0  0  0  0  0  0  0  0  0
   10.5194   15.8438   20.0913 C   0  0  0  0  0  0  0  0  0  0  0  0
    9.2669   15.2570   20.7394 C   0  0  0  0  0  0  0  0  0  0  0  0
    8.8216   16.0037   21.9131 N   0  0  0  0  0  0  0  0  0  0  0  0
    7.8558   15.2866   22.7470 C   0  0  0  0  0  0  0  0  0  0  0  0
    6.5381   14.9344   22.0508 C   0  0  0  0  0  0  0  0  0  0  0  0
    5.6305   14.2529   22.9145 O   0  0  0  0  0  0  0  0  0  0  0  0
    4.7939   15.1470   23.6526 C   0  0  1  0  0  0  0  0  0  0  0  0
    3.5911   14.3589   24.1712 C   0  0  0  0  0  0  0  0  0  0  0  0
    2.6831   15.2483   25.0120 C   0  0  0  0  0  0  0  0  0  0  0  0
    3.4891   15.9695   26.0865 C   0  0  0  0  0  0  0  0  0  0  0  0
    4.7122   16.6473   25.4824 C   0  0  0  0  0  0  0  0  0  0  0  0
    5.5026   15.7090   24.7580 O   0  0  0  0  0  0  0  0  0  0  0  0
    9.9458   16.5546   22.6859 C   0  0  0  0  0  0  0  0  0  0  0  0
  1  2  1  0
  2  3  1  0
  3  4  2  0
  3  5  1  0
  5  6  2  0
  6  7  1  0
  7  8  2  0
  8  9  1  0
  9 10  2  0
 10 11  1  0
 11 12  1  1
 12 13  1  0
 13 14  2  0
 13 15  1  0
 16 15  1  6
 16 17  1  0
 17 18  1  0
 18 19  1  0
 19 20  1  0
 20 21  1  0
 21 22  1  0
 22 23  1  0
 24 23  1  1
 24 25  1  0
 25 26  1  0
 26 27  1  0
 27 28  1  0
 28 29  1  0
 20 30  1  0
 11  2  1  0
 30 16  1  0
 10  5  1  0
 29 24  1  0
M  END
>  <energy_score>  (4692) 
-45.942345

>  <inchikey>  (4692) 
XBKNRNAEMQQHMT-UHFFFAOYSA-N

>  <smiles>  (4692) 
CN1C(=O)c2ccccc2C1CC(=O)NC1CCCN(CCOC2CCCCO2)C1

>  <ref_pdb>  (4692) 
A3181a

>  <alias>  (4692) 
XBKNRNAEMQQHMT-UHFFFAOYSA-N-P536-P127-P536-601509

>  <HIPPO Pose ID>  (4692) 
516619

>  <name>  (4692) 
XBKNRNAEMQQHMT-UHFFFAOYSA-N-P536-P127-P536-601509

>  <HIPPO Compound ID>  (4692) 
291896

>  <ref_mols>  (4692) 
A4943b,A2293a

>  <distance_score>  (4692) 
1.676947

>  <inspiration_score>  (4692) 
None

$$$$
INBQVZWLGXIAKV-UHFFFAOYSA-N-P115-P20-P115-601510
     RDKit          3D

 25 27  0  0  0  0  0  0  0  0999 V2000
   12.9037   23.2293   24.7260 C   0  0  0  0  0  0  0  0  0  0  0  0
   12.4292   23.3307   26.0724 O   0  0  0  0  0  0  0  0  0  0  0  0
   11.0906   23.0550   26.2628 C   0  0  0  0  0  0  0  0  0  0  0  0
   10.1175   23.7283   25.4204 C   0  0  0  0  0  0  0  0  0  0  0  0
    8.8030   23.4869   25.5631 C   0  0  0  0  0  0  0  0  0  0  0  0
    8.3441   22.5115   26.4972 C   0  0  0  0  0  0  0  0  0  0  0  0
    7.1229   22.1126   26.7634 N   0  0  0  0  0  0  0  0  0  0  0  0
    7.2580   21.0593   27.6206 C   0  0  0  0  0  0  0  0  0  0  0  0
    8.5768   20.8338   27.9776 C   0  0  0  0  0  0  0  0  0  0  0  0
    9.0784   19.7959   28.9446 C   0  0  0  0  0  0  0  0  0  0  0  0
    9.3221   18.4183   28.4369 N   0  0  0  0  0  0  0  0  0  0  0  0
    8.1838   17.4743   28.2920 C   0  0  0  0  0  0  0  0  0  0  0  0
    8.7184   16.1397   27.6475 C   0  0  0  0  0  0  0  0  0  0  0  0
    7.7056   15.0033   27.3261 C   0  0  0  0  0  0  0  0  0  0  0  0
    8.0963   14.0904   26.0857 C   0  0  0  0  0  0  0  0  0  0  0  0
    7.5878   12.6760   26.0181 N   0  0  0  0  0  0  0  0  0  0  0  0
    8.1763   11.7054   25.1513 C   0  0  0  0  0  0  0  0  0  0  0  0
    9.2941   12.0503   24.2049 C   0  0  0  0  0  0  0  0  0  0  0  0
    7.7178   10.4393   25.1352 C   0  0  0  0  0  0  0  0  0  0  0  0
    6.6115   10.0442   25.9470 C   0  0  0  0  0  0  0  0  0  0  0  0
    5.9786   10.9369   26.7025 C   0  0  0  0  0  0  0  0  0  0  0  0
    6.4241   12.3494   26.7338 C   0  0  0  0  0  0  0  0  0  0  0  0
    5.7603   13.1166   27.4278 O   0  0  0  0  0  0  0  0  0  0  0  0
    9.2877   21.8555   27.2953 N   0  0  0  0  0  0  0  0  0  0  0  0
   10.6453   22.2350   27.2444 C   0  0  0  0  0  0  0  0  0  0  0  0
  1  2  1  0
  2  3  1  0
  3  4  1  0
  4  5  2  0
  5  6  1  0
  6  7  2  0
  7  8  1  0
  8  9  2  0
  9 10  1  0
 10 11  1  0
 11 12  1  0
 12 13  1  0
 13 14  1  0
 14 15  1  0
 15 16  1  0
 16 17  1  0
 17 18  1  0
 17 19  2  0
 19 20  1  0
 20 21  2  0
 21 22  1  0
 22 23  2  0
  9 24  1  0
 24 25  1  0
 25  3  2  0
 24  6  1  0
 22 16  1  0
M  END
>  <energy_score>  (4693) 
-14.262334

>  <inchikey>  (4693) 
INBQVZWLGXIAKV-UHFFFAOYSA-N

>  <smiles>  (4693) 
COc1ccc2ncc(CNCCCCn3c(C)cccc3=O)n2c1

>  <ref_pdb>  (4693) 
A0525a

>  <alias>  (4693) 
INBQVZWLGXIAKV-UHFFFAOYSA-N-P115-P20-P115-601510

>  <HIPPO Pose ID>  (4693) 
517161

>  <name>  (4693) 
INBQVZWLGXIAKV-UHFFFAOYSA-N-P115-P20-P115-601510

>  <HIPPO Compound ID>  (4693) 
309727

>  <ref_mols>  (4693) 
A1209a,A0525a

>  <distance_score>  (4693) 
1.760724

>  <inspiration_score>  (4693) 
None

$$$$
ZWZJJEFNLBFOQE-UHFFFAOYSA-N-P115-P20-P115-601510
     RDKit          3D

 25 27  0  0  0  0  0  0  0  0999 V2000
   11.3801   22.0759   29.0219 C   0  0  0  0  0  0  0  0  0  0  0  0
   10.6771   22.3520   27.7164 C   0  0  0  0  0  0  0  0  0  0  0  0
   11.3002   23.0756   26.7634 C   0  0  0  0  0  0  0  0  0  0  0  0
   10.6071   23.5170   25.5858 C   0  0  0  0  0  0  0  0  0  0  0  0
    9.2913   23.3149   25.4838 C   0  0  0  0  0  0  0  0  0  0  0  0
    8.5693   22.5525   26.5403 C   0  0  0  0  0  0  0  0  0  0  0  0
    7.3431   22.5050   26.4938 O   0  0  0  0  0  0  0  0  0  0  0  0
    9.3384   21.9457   27.5422 N   0  0  0  0  0  0  0  0  0  0  0  0
    8.6384   21.1021   28.5493 C   0  0  0  0  0  0  0  0  0  0  0  0
    7.6351   20.0294   28.0144 C   0  0  0  0  0  0  0  0  0  0  0  0
    7.9126   18.5756   28.4930 C   0  0  0  0  0  0  0  0  0  0  0  0
    6.7876   17.5734   28.0882 C   0  0  0  0  0  0  0  0  0  0  0  0
    7.1411   16.1160   28.0663 N   0  0  0  0  0  0  0  0  0  0  0  0
    7.8504   15.7890   26.8405 C   0  0  1  0  0  0  0  0  0  0  0  0
    9.2084   16.1349   27.0809 O   0  0  0  0  0  0  0  0  0  0  0  0
    7.7910   14.3541   26.3457 C   0  0  0  0  0  0  0  0  0  0  0  0
    8.5409   13.8980   25.2679 C   0  0  0  0  0  0  0  0  0  0  0  0
    8.2521   12.5798   25.1333 N   0  0  0  0  0  0  0  0  0  0  0  0
    8.8126   11.6176   24.3332 C   0  0  0  0  0  0  0  0  0  0  0  0
    8.4042   10.3488   24.4917 C   0  0  0  0  0  0  0  0  0  0  0  0
    9.2639    9.0116   23.5152 Br  0  0  0  0  0  0  0  0  0  0  0  0
    7.3969    9.9674   25.3742 N   0  0  0  0  0  0  0  0  0  0  0  0
    6.8514   10.9050   26.1125 C   0  0  0  0  0  0  0  0  0  0  0  0
    7.2935   12.2776   26.0599 C   0  0  0  0  0  0  0  0  0  0  0  0
    6.9969   13.3143   26.8329 N   0  0  0  0  0  0  0  0  0  0  0  0
  1  2  1  0
  2  3  2  0
  3  4  1  0
  4  5  2  0
  5  6  1  0
  6  7  2  0
  6  8  1  0
  8  9  1  0
  9 10  1  0
 10 11  1  0
 11 12  1  0
 12 13  1  0
 13 14  1  0
 14 15  1  1
 14 16  1  0
 16 17  2  0
 17 18  1  0
 18 19  1  0
 19 20  2  0
 20 21  1  0
 20 22  1  0
 22 23  2  0
 23 24  1  0
 24 25  2  0
  8  2  1  0
 25 16  1  0
 24 18  1  0
M  END
>  <energy_score>  (4694) 
-27.992336

>  <inchikey>  (4694) 
ZWZJJEFNLBFOQE-UHFFFAOYSA-N

>  <smiles>  (4694) 
Cc1cccc(=O)n1CCCCNC(O)c1cn2cc(Br)ncc2n1

>  <ref_pdb>  (4694) 
A0525a

>  <alias>  (4694) 
ZWZJJEFNLBFOQE-UHFFFAOYSA-N-P115-P20-P115-601510

>  <HIPPO Pose ID>  (4694) 
517171

>  <name>  (4694) 
ZWZJJEFNLBFOQE-UHFFFAOYSA-N-P115-P20-P115-601510

>  <HIPPO Compound ID>  (4694) 
309732

>  <ref_mols>  (4694) 
A1209a,A0525a

>  <distance_score>  (4694) 
1.995881

>  <inspiration_score>  (4694) 
None

$$$$
OQSCUPHJAYACPE-UHFFFAOYSA-N-P115-P20-P115-601510
     RDKit          3D

 26 28  0  0  0  0  0  0  0  0999 V2000
   13.1473   23.3989   25.2365 C   0  0  0  0  0  0  0  0  0  0  0  0
   12.2892   22.8363   26.2307 O   0  0  0  0  0  0  0  0  0  0  0  0
   10.9409   23.1153   26.1775 C   0  0  0  0  0  0  0  0  0  0  0  0
   10.3678   24.0120   25.3406 C   0  0  0  0  0  0  0  0  0  0  0  0
    8.9328   24.2045   25.2795 C   0  0  0  0  0  0  0  0  0  0  0  0
    8.1426   23.4013   26.0049 C   0  0  0  0  0  0  0  0  0  0  0  0
    8.7105   22.4385   26.8305 N   0  0  0  0  0  0  0  0  0  0  0  0
    8.0701   21.4510   27.5476 C   0  0  0  0  0  0  0  0  0  0  0  0
    9.0652   20.7087   28.1510 C   0  0  0  0  0  0  0  0  0  0  0  0
    8.9746   19.3546   28.8681 C   0  0  1  0  0  0  0  0  0  0  0  0
    8.2931   19.4705   30.1018 O   0  0  0  0  0  0  0  0  0  0  0  0
    8.2564   18.3783   28.0356 N   0  0  0  0  0  0  0  0  0  0  0  0
    8.5520   16.9607   28.3090 C   0  0  0  0  0  0  0  0  0  0  0  0
    7.7629   16.0132   27.3490 C   0  0  0  0  0  0  0  0  0  0  0  0
    8.4356   14.6440   27.0764 C   0  0  0  0  0  0  0  0  0  0  0  0
    7.9484   13.9435   25.7561 C   0  0  0  0  0  0  0  0  0  0  0  0
    7.6261   12.5040   25.8635 N   0  0  0  0  0  0  0  0  0  0  0  0
    8.1743   11.4971   25.0315 C   0  0  0  0  0  0  0  0  0  0  0  0
    9.2735   11.7795   24.0449 C   0  0  0  0  0  0  0  0  0  0  0  0
    7.6985   10.2401   25.1026 C   0  0  0  0  0  0  0  0  0  0  0  0
    6.5971    9.9169   25.9558 C   0  0  0  0  0  0  0  0  0  0  0  0
    6.0408   10.8368   26.7384 C   0  0  0  0  0  0  0  0  0  0  0  0
    6.5437   12.2235   26.7145 C   0  0  0  0  0  0  0  0  0  0  0  0
    5.9946   13.0421   27.4507 O   0  0  0  0  0  0  0  0  0  0  0  0
   10.2828   21.3750   27.9724 N   0  0  0  0  0  0  0  0  0  0  0  0
   10.0830   22.3095   27.0421 C   0  0  0  0  0  0  0  0  0  0  0  0
  1  2  1  0
  2  3  1  0
  3  4  2  0
  4  5  1  0
  5  6  2  0
  6  7  1  0
  7  8  1  0
  8  9  2  0
  9 10  1  0
 10 11  1  1
 10 12  1  0
 12 13  1  0
 13 14  1  0
 14 15  1  0
 15 16  1  0
 16 17  1  0
 17 18  1  0
 18 19  1  0
 18 20  2  0
 20 21  1  0
 21 22  2  0
 22 23  1  0
 23 24  2  0
  9 25  1  0
 25 26  2  0
 26  3  1  0
 26  7  1  0
 23 17  1  0
M  END
>  <energy_score>  (4695) 
-33.660067

>  <inchikey>  (4695) 
OQSCUPHJAYACPE-UHFFFAOYSA-N

>  <smiles>  (4695) 
COc1cccn2cc(C(O)NCCCCn3c(C)cccc3=O)nc12

>  <ref_pdb>  (4695) 
A0525a

>  <alias>  (4695) 
OQSCUPHJAYACPE-UHFFFAOYSA-N-P115-P20-P115-601510

>  <HIPPO Pose ID>  (4695) 
517411

>  <name>  (4695) 
OQSCUPHJAYACPE-UHFFFAOYSA-N-P115-P20-P115-601510

>  <HIPPO Compound ID>  (4695) 
309852

>  <ref_mols>  (4695) 
A1209a,A0525a

>  <distance_score>  (4695) 
1.727319

>  <inspiration_score>  (4695) 
None

$$$$
WTMMUMYRWRAEIA-UHFFFAOYSA-N-P115-P20-P115-601510
     RDKit          3D

 26 28  0  0  0  0  0  0  0  0999 V2000
    5.6633   21.2173   28.1191 C   0  0  0  0  0  0  0  0  0  0  0  0
    6.9657   21.7060   27.6043 C   0  0  0  0  0  0  0  0  0  0  0  0
    6.9839   22.7848   26.7554 N   0  0  0  0  0  0  0  0  0  0  0  0
    8.2359   22.9456   26.4008 C   0  0  0  0  0  0  0  0  0  0  0  0
    8.8120   23.8338   25.4464 C   0  0  0  0  0  0  0  0  0  0  0  0
   10.1438   23.8653   25.2706 C   0  0  0  0  0  0  0  0  0  0  0  0
   11.0185   23.0533   26.0872 C   0  0  0  0  0  0  0  0  0  0  0  0
   12.3427   23.1481   25.7398 O   0  0  0  0  0  0  0  0  0  0  0  0
   10.4833   22.2664   27.0490 C   0  0  0  0  0  0  0  0  0  0  0  0
    9.0830   22.1063   27.1256 N   0  0  0  0  0  0  0  0  0  0  0  0
    8.2390   21.1655   27.7685 C   0  0  0  0  0  0  0  0  0  0  0  0
    8.6448   19.8522   28.3956 C   0  0  1  0  0  0  0  0  0  0  0  0
    8.6233   20.0461   29.7864 O   0  0  0  0  0  0  0  0  0  0  0  0
    7.7187   18.7457   28.0878 N   0  0  0  0  0  0  0  0  0  0  0  0
    8.2667   17.3686   28.1873 C   0  0  0  0  0  0  0  0  0  0  0  0
    7.4724   16.2720   27.3758 C   0  0  0  0  0  0  0  0  0  0  0  0
    8.2644   14.9459   27.0812 C   0  0  0  0  0  0  0  0  0  0  0  0
    7.7957   14.1522   25.7959 C   0  0  0  0  0  0  0  0  0  0  0  0
    7.5722   12.6878   25.9378 N   0  0  0  0  0  0  0  0  0  0  0  0
    8.1409   11.7012   25.0871 C   0  0  0  0  0  0  0  0  0  0  0  0
    9.2221   12.0195   24.0923 C   0  0  0  0  0  0  0  0  0  0  0  0
    7.7141   10.4254   25.1553 C   0  0  0  0  0  0  0  0  0  0  0  0
    6.6453   10.0475   26.0265 C   0  0  0  0  0  0  0  0  0  0  0  0
    6.0750   10.9417   26.8301 C   0  0  0  0  0  0  0  0  0  0  0  0
    6.5266   12.3502   26.8138 C   0  0  0  0  0  0  0  0  0  0  0  0
    5.9682   13.1395   27.5747 O   0  0  0  0  0  0  0  0  0  0  0  0
  1  2  1  0
  2  3  1  0
  3  4  2  0
  4  5  1  0
  5  6  2  0
  6  7  1  0
  7  8  1  0
  7  9  2  0
  9 10  1  0
 10 11  1  0
 11 12  1  0
 12 13  1  1
 12 14  1  0
 14 15  1  0
 15 16  1  0
 16 17  1  0
 17 18  1  0
 18 19  1  0
 19 20  1  0
 20 21  1  0
 20 22  2  0
 22 23  1  0
 23 24  2  0
 24 25  1  0
 25 26  2  0
 11  2  2  0
 25 19  1  0
 10  4  1  0
M  END
>  <energy_score>  (4696) 
-32.190168

>  <inchikey>  (4696) 
WTMMUMYRWRAEIA-UHFFFAOYSA-N

>  <smiles>  (4696) 
Cc1nc2ccc(O)cn2c1C(O)NCCCCn1c(C)cccc1=O

>  <ref_pdb>  (4696) 
A0525a

>  <alias>  (4696) 
WTMMUMYRWRAEIA-UHFFFAOYSA-N-P115-P20-P115-601510

>  <HIPPO Pose ID>  (4696) 
517437

>  <name>  (4696) 
WTMMUMYRWRAEIA-UHFFFAOYSA-N-P115-P20-P115-601510

>  <HIPPO Compound ID>  (4696) 
309865

>  <ref_mols>  (4696) 
A1209a,A0525a

>  <distance_score>  (4696) 
1.75964

>  <inspiration_score>  (4696) 
None

$$$$
HZQPFYLANKCBPS-UHFFFAOYSA-N-P115-P20-P115-601510
     RDKit          3D

 28 30  0  0  0  0  0  0  0  0999 V2000
    4.7240   15.8549   25.6688 C   0  0  0  0  0  0  0  0  0  0  0  0
    5.2645   16.6069   26.8724 C   0  0  0  0  0  0  0  0  0  0  0  0
    6.6788   16.7470   26.8079 O   0  0  0  0  0  0  0  0  0  0  0  0
    7.4192   15.7926   27.5392 C   0  0  2  0  0  0  0  0  0  0  0  0
    8.7810   16.3347   27.7838 N   0  0  0  0  0  0  0  0  0  0  0  0
    8.8209   17.4182   28.8005 C   0  0  0  0  0  0  0  0  0  0  0  0
    8.3373   18.8523   28.4348 C   0  0  0  0  0  0  0  0  0  0  0  0
    9.2119   19.9453   29.0999 C   0  0  0  0  0  0  0  0  0  0  0  0
    8.8497   21.4210   28.7816 C   0  0  0  0  0  0  0  0  0  0  0  0
    9.5357   22.0757   27.6395 N   0  0  0  0  0  0  0  0  0  0  0  0
   10.8800   22.4919   27.7043 C   0  0  0  0  0  0  0  0  0  0  0  0
   11.6660   22.3144   28.9779 C   0  0  0  0  0  0  0  0  0  0  0  0
   11.4505   23.1262   26.6596 C   0  0  0  0  0  0  0  0  0  0  0  0
   10.6967   23.4756   25.4894 C   0  0  0  0  0  0  0  0  0  0  0  0
    9.3901   23.2073   25.4411 C   0  0  0  0  0  0  0  0  0  0  0  0
    8.7319   22.4725   26.5578 C   0  0  0  0  0  0  0  0  0  0  0  0
    7.5191   22.2850   26.4944 O   0  0  0  0  0  0  0  0  0  0  0  0
    7.5397   14.4566   26.7798 C   0  0  0  0  0  0  0  0  0  0  0  0
    8.2645   14.1386   25.6381 C   0  0  0  0  0  0  0  0  0  0  0  0
    8.0550   12.8067   25.3977 N   0  0  0  0  0  0  0  0  0  0  0  0
    8.6531   11.9200   24.5255 C   0  0  0  0  0  0  0  0  0  0  0  0
    8.3202   10.6173   24.6113 C   0  0  0  0  0  0  0  0  0  0  0  0
    9.2417    9.3451   23.5956 Br  0  0  0  0  0  0  0  0  0  0  0  0
    7.3448   10.1252   25.4702 N   0  0  0  0  0  0  0  0  0  0  0  0
    6.7764   10.9817   26.2770 C   0  0  0  0  0  0  0  0  0  0  0  0
    5.4501   10.3504   27.4835 Br  0  0  0  0  0  0  0  0  0  0  0  0
    7.1468   12.3732   26.3231 C   0  0  0  0  0  0  0  0  0  0  0  0
    6.8490   13.3153   27.2024 N   0  0  0  0  0  0  0  0  0  0  0  0
  1  2  1  0
  2  3  1  0
  3  4  1  0
  4  5  1  6
  5  6  1  0
  6  7  1  0
  7  8  1  0
  8  9  1  0
  9 10  1  0
 10 11  1  0
 11 12  1  0
 11 13  2  0
 13 14  1  0
 14 15  2  0
 15 16  1  0
 16 17  2  0
  4 18  1  0
 18 19  2  0
 19 20  1  0
 20 21  1  0
 21 22  2  0
 22 23  1  0
 22 24  1  0
 24 25  2  0
 25 26  1  0
 25 27  1  0
 27 28  2  0
 16 10  1  0
 28 18  1  0
 27 20  1  0
M  END
>  <energy_score>  (4697) 
-20.099434

>  <inchikey>  (4697) 
HZQPFYLANKCBPS-UHFFFAOYSA-N

>  <smiles>  (4697) 
CCOC(NCCCCn1c(C)cccc1=O)c1cn2cc(Br)nc(Br)c2n1

>  <ref_pdb>  (4697) 
A0525a

>  <alias>  (4697) 
HZQPFYLANKCBPS-UHFFFAOYSA-N-P115-P20-P115-601510

>  <HIPPO Pose ID>  (4697) 
517831

>  <name>  (4697) 
HZQPFYLANKCBPS-UHFFFAOYSA-N-P115-P20-P115-601510

>  <HIPPO Compound ID>  (4697) 
310062

>  <ref_mols>  (4697) 
A1209a,A0525a

>  <distance_score>  (4697) 
1.8652

>  <inspiration_score>  (4697) 
None

$$$$
NSCYGGQXHXHAGT-UHFFFAOYSA-N-P22-P22-P123-601510
     RDKit          3D

 16 16  0  0  0  0  0  0  0  0999 V2000
    9.7059   15.6035   20.2289 C   0  0  0  0  0  0  0  0  0  0  0  0
    9.8094   16.3047   21.3628 C   0  0  0  0  0  0  0  0  0  0  0  0
   11.0322   16.5422   22.2035 C   0  0  0  0  0  0  0  0  0  0  0  0
   12.3823   15.9804   21.7526 C   0  0  1  0  0  0  0  0  0  0  0  0
   13.6062   16.2617   23.0194 Cl  0  0  0  0  0  0  0  0  0  0  0  0
   12.3784   14.4787   21.5224 C   0  0  0  0  0  0  0  0  0  0  0  0
   12.6610   14.0079   20.4902 O   0  0  0  0  0  0  0  0  0  0  0  0
   11.9424   13.8023   22.8521 N   0  0  0  0  0  0  0  0  0  0  0  0
   11.6788   12.4399   23.1494 C   0  0  0  0  0  0  0  0  0  0  0  0
   10.2276   12.0179   23.3332 C   0  0  1  0  0  0  0  0  0  0  0  0
   10.0630   10.4985   23.3049 C   0  0  0  0  0  0  0  0  0  0  0  0
    8.8778   10.2278   24.1892 C   0  0  0  0  0  0  0  0  0  0  0  0
    8.7020   11.4512   25.0168 C   0  0  0  0  0  0  0  0  0  0  0  0
    7.8480   11.5770   25.8784 O   0  0  0  0  0  0  0  0  0  0  0  0
    9.6338   12.3888   24.5994 N   0  0  0  0  0  0  0  0  0  0  0  0
    9.4795   13.7684   24.9763 C   0  0  0  0  0  0  0  0  0  0  0  0
  1  2  2  0
  2  3  1  0
  3  4  1  0
  4  5  1  1
  4  6  1  0
  6  7  2  0
  6  8  1  0
  8  9  1  0
 10  9  1  1
 10 11  1  0
 11 12  1  0
 12 13  1  0
 13 14  2  0
 13 15  1  0
 15 16  1  0
 15 10  1  0
M  END
>  <energy_score>  (4698) 
-40.209714

>  <inchikey>  (4698) 
NSCYGGQXHXHAGT-UHFFFAOYSA-N

>  <smiles>  (4698) 
C=CCC(Cl)C(=O)NCC1CCC(=O)N1C

>  <ref_pdb>  (4698) 
A0525a

>  <alias>  (4698) 
NSCYGGQXHXHAGT-UHFFFAOYSA-N-P22-P22-P123-601510

>  <HIPPO Pose ID>  (4698) 
517946

>  <name>  (4698) 
NSCYGGQXHXHAGT-UHFFFAOYSA-N-P22-P22-P123-601510

>  <HIPPO Compound ID>  (4698) 
300686

>  <ref_mols>  (4698) 
A1776a,A0528a

>  <distance_score>  (4698) 
1.857581

>  <inspiration_score>  (4698) 
None

$$$$
NSCYGGQXHXHAGT-UHFFFAOYSA-N-P123-P22-P123-601510
     RDKit          3D

 16 16  0  0  0  0  0  0  0  0999 V2000
    7.9617   14.7961   23.0612 C   0  0  0  0  0  0  0  0  0  0  0  0
    9.1535   15.0489   22.5078 C   0  0  0  0  0  0  0  0  0  0  0  0
   10.0069   14.0560   21.7669 C   0  0  0  0  0  0  0  0  0  0  0  0
   11.5226   14.3246   21.8561 C   0  0  2  0  0  0  0  0  0  0  0  0
   12.2329   15.1758   20.4930 Cl  0  0  0  0  0  0  0  0  0  0  0  0
   12.1938   12.9648   22.0385 C   0  0  0  0  0  0  0  0  0  0  0  0
   12.9564   12.4680   21.3223 O   0  0  0  0  0  0  0  0  0  0  0  0
   11.5315   12.4282   23.3078 N   0  0  0  0  0  0  0  0  0  0  0  0
   11.5928   11.1613   23.8994 C   0  0  0  0  0  0  0  0  0  0  0  0
   10.1840   10.6784   23.8758 C   0  0  1  0  0  0  0  0  0  0  0  0
   10.1035    9.1976   23.6944 C   0  0  0  0  0  0  0  0  0  0  0  0
    8.6975    8.9703   24.1572 C   0  0  0  0  0  0  0  0  0  0  0  0
    8.3671   10.0886   25.1013 C   0  0  0  0  0  0  0  0  0  0  0  0
    7.3449   10.2185   25.7490 O   0  0  0  0  0  0  0  0  0  0  0  0
    9.4290   10.9714   25.0634 N   0  0  0  0  0  0  0  0  0  0  0  0
    9.2227   12.3067   25.5519 C   0  0  0  0  0  0  0  0  0  0  0  0
  1  2  2  0
  2  3  1  0
  3  4  1  0
  4  5  1  6
  4  6  1  0
  6  7  2  0
  6  8  1  0
  8  9  1  0
 10  9  1  1
 10 11  1  0
 11 12  1  0
 12 13  1  0
 13 14  2  0
 13 15  1  0
 15 16  1  0
 15 10  1  0
M  END
>  <energy_score>  (4699) 
-21.868311

>  <inchikey>  (4699) 
NSCYGGQXHXHAGT-UHFFFAOYSA-N

>  <smiles>  (4699) 
C=CCC(Cl)C(=O)NCC1CCC(=O)N1C

>  <ref_pdb>  (4699) 
A0525a

>  <alias>  (4699) 
NSCYGGQXHXHAGT-UHFFFAOYSA-N-P123-P22-P123-601510

>  <HIPPO Pose ID>  (4699) 
517947

>  <name>  (4699) 
NSCYGGQXHXHAGT-UHFFFAOYSA-N-P123-P22-P123-601510

>  <HIPPO Compound ID>  (4699) 
300686

>  <ref_mols>  (4699) 
A1776a,A0528a

>  <distance_score>  (4699) 
1.837502

>  <inspiration_score>  (4699) 
None

$$$$
HNYJAXSKRSRLHO-UHFFFAOYSA-N-P123-P22-P123-601510
     RDKit          3D

 17 18  0  0  0  0  0  0  0  0999 V2000
   13.3064   11.4059   21.3597 C   0  0  0  0  0  0  0  0  0  0  0  0
   12.2883   10.3355   21.7641 C   0  0  0  0  0  0  0  0  0  0  0  0
   11.1742   10.7507   22.7563 C   0  0  1  0  0  0  0  0  0  0  0  0
   10.8101   12.2596   22.6953 C   0  0  0  0  0  0  0  0  0  0  0  0
    9.6451   12.4766   23.4918 N   0  0  0  0  0  0  0  0  0  0  0  0
    9.4792   12.5470   25.0018 C   0  0  0  0  0  0  0  0  0  0  0  0
   10.2709   12.5173   25.8462 O   0  0  0  0  0  0  0  0  0  0  0  0
    7.9432   12.5616   25.3146 C   0  0  0  0  0  0  0  0  0  0  0  0
    7.0693   13.6679   24.1837 Cl  0  0  0  0  0  0  0  0  0  0  0  0
    7.5066   12.6623   26.8023 C   0  0  0  0  0  0  0  0  0  0  0  0
    6.6252   11.4174   26.5979 C   0  0  0  0  0  0  0  0  0  0  0  0
    7.5229   11.0390   25.4264 C   0  0  0  0  0  0  0  0  0  0  0  0
    9.9962    9.7513   22.6659 C   0  0  0  0  0  0  0  0  0  0  0  0
   10.3251    8.5691   23.5473 C   0  0  0  0  0  0  0  0  0  0  0  0
   11.5598    9.0523   24.1902 C   0  0  0  0  0  0  0  0  0  0  0  0
   12.4535    8.3626   24.6305 O   0  0  0  0  0  0  0  0  0  0  0  0
   11.6205   10.4213   24.0820 N   0  0  0  0  0  0  0  0  0  0  0  0
  1  2  1  0
  3  2  1  6
  3  4  1  0
  4  5  1  0
  5  6  1  0
  6  7  2  0
  6  8  1  0
  8  9  1  0
  8 10  1  0
 10 11  1  0
 11 12  1  0
  3 13  1  0
 13 14  1  0
 14 15  1  0
 15 16  2  0
 15 17  1  0
 17  3  1  0
 12  8  1  0
M  END
>  <energy_score>  (4700) 
-39.212959

>  <inchikey>  (4700) 
HNYJAXSKRSRLHO-UHFFFAOYSA-N

>  <smiles>  (4700) 
CCC1(CNC(=O)C2(Cl)CCC2)CCC(=O)N1

>  <ref_pdb>  (4700) 
A0525a

>  <alias>  (4700) 
HNYJAXSKRSRLHO-UHFFFAOYSA-N-P123-P22-P123-601510

>  <HIPPO Pose ID>  (4700) 
518021

>  <name>  (4700) 
HNYJAXSKRSRLHO-UHFFFAOYSA-N-P123-P22-P123-601510

>  <HIPPO Compound ID>  (4700) 
300731

>  <ref_mols>  (4700) 
A1776a,A0528a

>  <distance_score>  (4700) 
1.797412

>  <inspiration_score>  (4700) 
None

$$$$
MVPVQTFGMRJTHJ-UHFFFAOYSA-N-P22-P22-P123-601510
     RDKit          3D

 18 18  0  0  0  0  0  0  0  0999 V2000
    9.3217   13.6522   24.9182 C   0  0  0  0  0  0  0  0  0  0  0  0
    9.3973   12.2970   24.4469 N   0  0  0  0  0  0  0  0  0  0  0  0
    8.5073   11.3270   24.8469 C   0  0  0  0  0  0  0  0  0  0  0  0
    7.5600   11.4484   25.6043 O   0  0  0  0  0  0  0  0  0  0  0  0
    8.9055   10.0488   24.2049 C   0  0  0  0  0  0  0  0  0  0  0  0
   10.1684   10.3215   23.4405 C   0  0  0  0  0  0  0  0  0  0  0  0
   10.5205   11.7890   23.7000 C   0  0  1  0  0  0  0  0  0  0  0  0
   10.8295   12.4834   22.4051 C   0  0  0  0  0  0  0  0  0  0  0  0
   11.4694   13.7382   22.4566 N   0  0  0  0  0  0  0  0  0  0  0  0
   12.2537   14.5172   21.3617 C   0  0  0  0  0  0  0  0  0  0  0  0
   12.5534   14.2024   20.2773 O   0  0  0  0  0  0  0  0  0  0  0  0
   12.5131   15.9193   21.9206 C   0  0  1  0  0  0  0  0  0  0  0  0
   13.6647   15.8495   22.9110 C   0  0  0  0  0  0  0  0  0  0  0  0
   12.9612   17.0111   20.5572 Cl  0  0  0  0  0  0  0  0  0  0  0  0
   11.2245   16.4372   22.5724 C   0  0  0  0  0  0  0  0  0  0  0  0
    9.9682   16.4577   21.7151 C   0  0  0  0  0  0  0  0  0  0  0  0
   11.4327   17.6846   23.0588 F   0  0  0  0  0  0  0  0  0  0  0  0
   10.9593   15.7189   23.7048 F   0  0  0  0  0  0  0  0  0  0  0  0
  1  2  1  0
  2  3  1  0
  3  4  2  0
  3  5  1  0
  5  6  1  0
  6  7  1  0
  7  8  1  6
  8  9  1  0
  9 10  1  0
 10 11  2  0
 10 12  1  0
 12 13  1  1
 12 14  1  0
 12 15  1  0
 15 16  1  0
 15 17  1  0
 15 18  1  0
  7  2  1  0
M  END
>  <energy_score>  (4701) 
-2.732838

>  <inchikey>  (4701) 
MVPVQTFGMRJTHJ-UHFFFAOYSA-N

>  <smiles>  (4701) 
CN1C(=O)CCC1CNC(=O)C(C)(Cl)C(C)(F)F

>  <ref_pdb>  (4701) 
A0525a

>  <alias>  (4701) 
MVPVQTFGMRJTHJ-UHFFFAOYSA-N-P22-P22-P123-601510

>  <HIPPO Pose ID>  (4701) 
518050

>  <name>  (4701) 
MVPVQTFGMRJTHJ-UHFFFAOYSA-N-P22-P22-P123-601510

>  <HIPPO Compound ID>  (4701) 
300750

>  <ref_mols>  (4701) 
A1776a,A0528a

>  <distance_score>  (4701) 
1.886011

>  <inspiration_score>  (4701) 
None

$$$$
LIBQNSWFPFLCNH-UHFFFAOYSA-N-P123-P22-P123-601510
     RDKit          3D

 18 19  0  0  0  0  0  0  0  0999 V2000
   13.6986   10.3752   20.7502 O   0  0  0  0  0  0  0  0  0  0  0  0
   12.8419   10.7076   21.5533 C   0  0  0  0  0  0  0  0  0  0  0  0
   12.7187   12.0346   21.9384 N   0  0  0  0  0  0  0  0  0  0  0  0
   11.6481   12.1991   22.8600 C   0  0  1  0  0  0  0  0  0  0  0  0
   10.7340   13.3741   22.5175 C   0  0  0  0  0  0  0  0  0  0  0  0
    9.6264   13.4429   23.4254 N   0  0  0  0  0  0  0  0  0  0  0  0
    8.1428   13.2344   23.1888 C   0  0  0  0  0  0  0  0  0  0  0  0
    7.5577   13.0473   22.2068 O   0  0  0  0  0  0  0  0  0  0  0  0
    7.3535   13.2562   24.4666 C   0  0  2  0  0  0  0  0  0  0  0  0
    5.8246   14.1780   24.2602 Cl  0  0  0  0  0  0  0  0  0  0  0  0
    7.8372   13.3177   25.8966 C   0  0  0  0  0  0  0  0  0  0  0  0
    7.4222   11.9903   25.3520 C   0  0  2  0  0  0  0  0  0  0  0  0
    8.5200   10.9826   25.3968 C   0  0  0  0  0  0  0  0  0  0  0  0
    8.3182    9.5967   24.3604 Cl  0  0  0  0  0  0  0  0  0  0  0  0
   10.9512   10.8604   22.9719 C   0  0  0  0  0  0  0  0  0  0  0  0
   11.7769    9.8543   22.2385 C   0  0  0  0  0  0  0  0  0  0  0  0
   12.1855    8.9371   23.1464 F   0  0  0  0  0  0  0  0  0  0  0  0
   10.9805    9.1705   21.3849 F   0  0  0  0  0  0  0  0  0  0  0  0
  1  2  2  0
  2  3  1  0
  3  4  1  0
  4  5  1  6
  5  6  1  0
  6  7  1  0
  7  8  2  0
  7  9  1  0
  9 10  1  6
  9 11  1  0
 11 12  1  0
 12 13  1  6
 13 14  1  0
  4 15  1  0
 15 16  1  0
 16 17  1  0
 16 18  1  0
 16  2  1  0
 12  9  1  0
M  END
>  <energy_score>  (4702) 
-13.361453

>  <inchikey>  (4702) 
LIBQNSWFPFLCNH-UHFFFAOYSA-N

>  <smiles>  (4702) 
O=C1NC(CNC(=O)C2(Cl)CC2CCl)CC1(F)F

>  <ref_pdb>  (4702) 
A0525a

>  <alias>  (4702) 
LIBQNSWFPFLCNH-UHFFFAOYSA-N-P123-P22-P123-601510

>  <HIPPO Pose ID>  (4702) 
518081

>  <name>  (4702) 
LIBQNSWFPFLCNH-UHFFFAOYSA-N-P123-P22-P123-601510

>  <HIPPO Compound ID>  (4702) 
300769

>  <ref_mols>  (4702) 
A1776a,A0528a

>  <distance_score>  (4702) 
1.947533

>  <inspiration_score>  (4702) 
None

$$$$
MNJKBSZGDZLJLX-UHFFFAOYSA-N-P22-P22-P123-601510
     RDKit          3D

 18 19  0  0  0  0  0  0  0  0999 V2000
   12.9246   12.9881   23.8615 C   0  0  0  0  0  0  0  0  0  0  0  0
   12.6001   13.4999   22.6728 C   0  0  0  0  0  0  0  0  0  0  0  0
   12.9683   14.8935   22.2666 C   0  0  0  0  0  0  0  0  0  0  0  0
   12.0695   15.4384   21.1620 C   0  0  2  0  0  0  0  0  0  0  0  0
   12.4069   17.1660   20.9115 Cl  0  0  0  0  0  0  0  0  0  0  0  0
   10.5388   15.2899   21.3091 C   0  0  0  0  0  0  0  0  0  0  0  0
    9.8821   15.0961   20.3613 O   0  0  0  0  0  0  0  0  0  0  0  0
   10.1315   15.4555   22.7976 N   0  0  0  0  0  0  0  0  0  0  0  0
    8.8467   15.3221   23.4364 C   0  0  0  0  0  0  0  0  0  0  0  0
    8.5299   13.8842   23.8777 C   0  0  2  0  0  0  0  0  0  0  0  0
    7.0552   13.8072   24.3367 C   0  0  0  0  0  0  0  0  0  0  0  0
    6.7825   12.7340   25.4030 C   0  0  0  0  0  0  0  0  0  0  0  0
    7.6656   11.5054   25.2562 C   0  0  0  0  0  0  0  0  0  0  0  0
    9.0961   11.8699   24.8943 C   0  0  2  0  0  0  0  0  0  0  0  0
    9.3942   13.3684   25.0157 C   0  0  0  0  0  0  0  0  0  0  0  0
    9.3346   11.7324   23.4259 C   0  0  0  0  0  0  0  0  0  0  0  0
    9.9196   10.8150   22.8859 O   0  0  0  0  0  0  0  0  0  0  0  0
    8.8128   12.8918   22.8494 N   0  0  0  0  0  0  0  0  0  0  0  0
  1  2  2  0
  2  3  1  0
  3  4  1  0
  4  5  1  1
  4  6  1  0
  6  7  2  0
  6  8  1  0
  8  9  1  0
 10  9  1  6
 10 11  1  0
 11 12  1  0
 12 13  1  0
 14 13  1  6
 14 15  1  0
 14 16  1  0
 16 17  2  0
 16 18  1  0
 15 10  1  0
 18 10  1  0
M  END
>  <energy_score>  (4703) 
-11.561973

>  <inchikey>  (4703) 
MNJKBSZGDZLJLX-UHFFFAOYSA-N

>  <smiles>  (4703) 
C=CCC(Cl)C(=O)NCC12CCCC(C1)C(=O)N2

>  <ref_pdb>  (4703) 
A0525a

>  <alias>  (4703) 
MNJKBSZGDZLJLX-UHFFFAOYSA-N-P22-P22-P123-601510

>  <HIPPO Pose ID>  (4703) 
518088

>  <name>  (4703) 
MNJKBSZGDZLJLX-UHFFFAOYSA-N-P22-P22-P123-601510

>  <HIPPO Compound ID>  (4703) 
300774

>  <ref_mols>  (4703) 
A1776a,A0528a

>  <distance_score>  (4703) 
1.802343

>  <inspiration_score>  (4703) 
None

$$$$
AJPUZAJBCHRKRZ-UHFFFAOYSA-N-P22-P22-P123-601510
     RDKit          3D

 18 18  0  0  0  0  0  0  0  0999 V2000
    9.6171   16.9414   21.3924 C   0  0  0  0  0  0  0  0  0  0  0  0
   10.4296   15.7606   21.8154 C   0  0  0  0  0  0  0  0  0  0  0  0
   10.2506   15.5973   23.1659 F   0  0  0  0  0  0  0  0  0  0  0  0
    9.8429   14.6683   21.2394 F   0  0  0  0  0  0  0  0  0  0  0  0
   11.9394   15.7959   21.5015 C   0  0  1  0  0  0  0  0  0  0  0  0
   12.9195   16.5559   22.7681 Cl  0  0  0  0  0  0  0  0  0  0  0  0
   12.3189   14.3388   21.4403 C   0  0  0  0  0  0  0  0  0  0  0  0
   12.8189   13.8329   20.5135 O   0  0  0  0  0  0  0  0  0  0  0  0
   11.8121   13.7208   22.7740 N   0  0  0  0  0  0  0  0  0  0  0  0
   11.7326   12.3769   23.1865 C   0  0  0  0  0  0  0  0  0  0  0  0
   10.2797   12.0943   23.5302 C   0  0  1  0  0  0  0  0  0  0  0  0
    9.8304   10.6455   23.5489 C   0  0  0  0  0  0  0  0  0  0  0  0
    8.5951   10.7541   24.4161 C   0  0  0  0  0  0  0  0  0  0  0  0
    8.2931    9.5766   24.9944 F   0  0  0  0  0  0  0  0  0  0  0  0
    7.5489   11.1533   23.6892 F   0  0  0  0  0  0  0  0  0  0  0  0
    8.8407   11.9095   25.3301 C   0  0  0  0  0  0  0  0  0  0  0  0
    8.1304   12.2557   26.2600 O   0  0  0  0  0  0  0  0  0  0  0  0
    9.9417   12.5957   24.8364 N   0  0  0  0  0  0  0  0  0  0  0  0
  1  2  1  0
  2  3  1  0
  2  4  1  0
  2  5  1  0
  5  6  1  1
  5  7  1  0
  7  8  2  0
  7  9  1  0
  9 10  1  0
 11 10  1  1
 11 12  1  0
 12 13  1  0
 13 14  1  0
 13 15  1  0
 13 16  1  0
 16 17  2  0
 16 18  1  0
 18 11  1  0
M  END
>  <energy_score>  (4704) 
-0.355557

>  <inchikey>  (4704) 
AJPUZAJBCHRKRZ-UHFFFAOYSA-N

>  <smiles>  (4704) 
CC(F)(F)C(Cl)C(=O)NCC1CC(F)(F)C(=O)N1

>  <ref_pdb>  (4704) 
A0525a

>  <alias>  (4704) 
AJPUZAJBCHRKRZ-UHFFFAOYSA-N-P22-P22-P123-601510

>  <HIPPO Pose ID>  (4704) 
518110

>  <name>  (4704) 
AJPUZAJBCHRKRZ-UHFFFAOYSA-N-P22-P22-P123-601510

>  <HIPPO Compound ID>  (4704) 
300785

>  <ref_mols>  (4704) 
A1776a,A0528a

>  <distance_score>  (4704) 
1.671005

>  <inspiration_score>  (4704) 
None

$$$$
XBVJJMJYEKWHEY-UHFFFAOYSA-N-P22-P22-P123-601510
     RDKit          3D

 19 19  0  0  0  0  0  0  0  0999 V2000
    9.7967   16.1480   21.4709 C   0  0  0  0  0  0  0  0  0  0  0  0
   11.0006   16.1765   22.3880 C   0  0  0  0  0  0  0  0  0  0  0  0
   10.6817   15.3890   23.4551 F   0  0  0  0  0  0  0  0  0  0  0  0
   11.1083   17.4121   22.9331 F   0  0  0  0  0  0  0  0  0  0  0  0
   12.3712   15.7866   21.8084 C   0  0  2  0  0  0  0  0  0  0  0  0
   13.5119   16.0289   22.7960 C   0  0  0  0  0  0  0  0  0  0  0  0
   12.7041   16.7481   20.3207 Cl  0  0  0  0  0  0  0  0  0  0  0  0
   12.3481   14.2931   21.4723 C   0  0  0  0  0  0  0  0  0  0  0  0
   12.6049   13.8585   20.4181 O   0  0  0  0  0  0  0  0  0  0  0  0
   11.8457   13.5787   22.7640 N   0  0  0  0  0  0  0  0  0  0  0  0
   11.4775   12.2354   22.9825 C   0  0  0  0  0  0  0  0  0  0  0  0
   10.0459   12.1015   23.4454 C   0  0  1  0  0  0  0  0  0  0  0  0
    9.6036   10.6590   23.6122 C   0  0  0  0  0  0  0  0  0  0  0  0
    8.4545   10.8118   24.5789 C   0  0  0  0  0  0  0  0  0  0  0  0
    7.3197   11.0840   23.9354 F   0  0  0  0  0  0  0  0  0  0  0  0
    8.2703    9.6834   25.2883 F   0  0  0  0  0  0  0  0  0  0  0  0
    8.7628   12.0469   25.3622 C   0  0  0  0  0  0  0  0  0  0  0  0
    8.1218   12.4655   26.3118 O   0  0  0  0  0  0  0  0  0  0  0  0
    9.8331   12.6823   24.7456 N   0  0  0  0  0  0  0  0  0  0  0  0
  1  2  1  0
  2  3  1  0
  2  4  1  0
  2  5  1  0
  5  6  1  1
  5  7  1  0
  5  8  1  0
  8  9  2  0
  8 10  1  0
 10 11  1  0
 12 11  1  1
 12 13  1  0
 13 14  1  0
 14 15  1  0
 14 16  1  0
 14 17  1  0
 17 18  2  0
 17 19  1  0
 19 12  1  0
M  END
>  <energy_score>  (4705) 
-13.605154

>  <inchikey>  (4705) 
XBVJJMJYEKWHEY-UHFFFAOYSA-N

>  <smiles>  (4705) 
CC(F)(F)C(C)(Cl)C(=O)NCC1CC(F)(F)C(=O)N1

>  <ref_pdb>  (4705) 
A0525a

>  <alias>  (4705) 
XBVJJMJYEKWHEY-UHFFFAOYSA-N-P22-P22-P123-601510

>  <HIPPO Pose ID>  (4705) 
518122

>  <name>  (4705) 
XBVJJMJYEKWHEY-UHFFFAOYSA-N-P22-P22-P123-601510

>  <HIPPO Compound ID>  (4705) 
300793

>  <ref_mols>  (4705) 
A1776a,A0528a

>  <distance_score>  (4705) 
1.810225

>  <inspiration_score>  (4705) 
None

$$$$
WODQJBWPGNUODR-UHFFFAOYSA-N-P22-P22-P123-601510
     RDKit          3D

 19 22  0  0  0  0  0  0  0  0999 V2000
   14.5931   16.2390   23.0706 O   0  0  0  0  0  0  0  0  0  0  0  0
   13.7139   15.8767   22.3181 C   0  0  0  0  0  0  0  0  0  0  0  0
   13.2494   16.5523   21.1989 N   0  0  0  0  0  0  0  0  0  0  0  0
   12.0387   15.9184   20.7443 C   0  0  1  0  0  0  0  0  0  0  0  0
   12.3774   14.4691   21.0339 C   0  0  0  0  0  0  0  0  0  0  0  0
   12.7826   14.6994   22.4870 C   0  0  2  0  0  0  0  0  0  0  0  0
   11.5593   15.2572   23.2450 C   0  0  0  0  0  0  0  0  0  0  0  0
   10.2298   15.1906   22.4758 N   0  0  0  0  0  0  0  0  0  0  0  0
    9.1464   15.1895   23.3787 C   0  0  0  0  0  0  0  0  0  0  0  0
    8.5128   16.0945   23.8353 O   0  0  0  0  0  0  0  0  0  0  0  0
    8.6811   13.8151   23.7184 C   0  0  1  0  0  0  0  0  0  0  0  0
    7.3088   13.4091   22.6828 Cl  0  0  0  0  0  0  0  0  0  0  0  0
    9.5512   12.6627   24.1699 C   0  0  2  0  0  0  0  0  0  0  0  0
    9.0789   11.2399   24.1519 C   0  0  0  0  0  0  0  0  0  0  0  0
    7.8884   11.1367   25.1063 C   0  0  0  0  0  0  0  0  0  0  0  0
    7.8038   12.4663   25.7988 C   0  0  0  0  0  0  0  0  0  0  0  0
    7.1431   12.7128   26.7946 O   0  0  0  0  0  0  0  0  0  0  0  0
    8.7247   13.4257   25.1722 C   0  0  2  0  0  0  0  0  0  0  0  0
   10.8703   16.3205   21.7039 C   0  0  0  0  0  0  0  0  0  0  0  0
  1  2  2  0
  2  3  1  0
  3  4  1  0
  4  5  1  0
  5  6  1  0
  6  7  1  1
  7  8  1  0
  8  9  1  0
  9 10  2  0
  9 11  1  0
 11 12  1  6
 11 13  1  0
 13 14  1  6
 14 15  1  0
 15 16  1  0
 16 17  2  0
 18 16  1  6
  8 19  1  0
  6  2  1  0
 18 11  1  0
  4 19  1  1
 18 13  1  0
M  END
>  <energy_score>  (4706) 
-26.835471

>  <inchikey>  (4706) 
WODQJBWPGNUODR-UHFFFAOYSA-N

>  <smiles>  (4706) 
O=C1NC2CC1CN(C(=O)C1(Cl)C3CCC(=O)C31)C2

>  <ref_pdb>  (4706) 
A0525a

>  <alias>  (4706) 
WODQJBWPGNUODR-UHFFFAOYSA-N-P22-P22-P123-601510

>  <HIPPO Pose ID>  (4706) 
518128

>  <name>  (4706) 
WODQJBWPGNUODR-UHFFFAOYSA-N-P22-P22-P123-601510

>  <HIPPO Compound ID>  (4706) 
300796

>  <ref_mols>  (4706) 
A1776a,A0528a

>  <distance_score>  (4706) 
1.676874

>  <inspiration_score>  (4706) 
None

$$$$
DGDMZKKFSUUOAY-UHFFFAOYSA-N-P22-P22-P123-601510
     RDKit          3D

 19 20  0  0  0  0  0  0  0  0999 V2000
    9.5144   10.3334   23.6339 C   0  0  0  0  0  0  0  0  0  0  0  0
    8.6273   10.1881   24.6266 C   0  0  0  0  0  0  0  0  0  0  0  0
    7.3879   10.9901   24.9403 C   0  0  0  0  0  0  0  0  0  0  0  0
    7.2078   11.8918   26.1712 C   0  0  2  0  0  0  0  0  0  0  0  0
    5.5212   12.5222   26.2503 Cl  0  0  0  0  0  0  0  0  0  0  0  0
    8.1174   13.1145   26.3510 C   0  0  0  0  0  0  0  0  0  0  0  0
    8.1501   13.6931   27.3657 O   0  0  0  0  0  0  0  0  0  0  0  0
    8.9539   13.3008   25.0636 N   0  0  0  0  0  0  0  0  0  0  0  0
   10.0579   14.1656   24.7912 C   0  0  1  0  0  0  0  0  0  0  0  0
   11.1636   13.4501   24.0082 C   0  0  0  0  0  0  0  0  0  0  0  0
   11.1863   14.0745   22.6195 C   0  0  2  0  0  0  0  0  0  0  0  0
   12.5190   14.8045   22.3195 C   0  0  0  0  0  0  0  0  0  0  0  0
   12.3639   15.7754   21.2130 N   0  0  0  0  0  0  0  0  0  0  0  0
   13.6239   16.4244   20.9081 C   0  0  0  0  0  0  0  0  0  0  0  0
   11.3240   16.7485   21.5911 C   0  0  0  0  0  0  0  0  0  0  0  0
    9.9825   16.0090   21.5888 C   0  0  0  0  0  0  0  0  0  0  0  0
   10.0443   14.9665   22.5940 N   0  0  0  0  0  0  0  0  0  0  0  0
    9.4521   15.1457   23.8237 C   0  0  0  0  0  0  0  0  0  0  0  0
    8.5142   15.8928   24.0519 O   0  0  0  0  0  0  0  0  0  0  0  0
  1  2  2  0
  2  3  1  0
  3  4  1  0
  4  5  1  6
  4  6  1  0
  6  7  2  0
  6  8  1  0
  9  8  1  6
  9 10  1  0
 11 10  1  1
 11 12  1  0
 12 13  1  0
 13 14  1  0
 13 15  1  0
 15 16  1  0
 16 17  1  0
 17 18  1  0
 18 19  2  0
 18  9  1  0
 17 11  1  0
M  END
>  <energy_score>  (4707) 
-15.020162

>  <inchikey>  (4707) 
DGDMZKKFSUUOAY-UHFFFAOYSA-N

>  <smiles>  (4707) 
C=CCC(Cl)C(=O)NC1CC2CN(C)CCN2C1=O

>  <ref_pdb>  (4707) 
A0525a

>  <alias>  (4707) 
DGDMZKKFSUUOAY-UHFFFAOYSA-N-P22-P22-P123-601510

>  <HIPPO Pose ID>  (4707) 
518150

>  <name>  (4707) 
DGDMZKKFSUUOAY-UHFFFAOYSA-N-P22-P22-P123-601510

>  <HIPPO Compound ID>  (4707) 
300810

>  <ref_mols>  (4707) 
A1776a,A0528a

>  <distance_score>  (4707) 
1.807411

>  <inspiration_score>  (4707) 
None

$$$$
IAKOHPNHMKNJDV-UHFFFAOYSA-N-P22-P22-P123-601510
     RDKit          3D

 19 20  0  0  0  0  0  0  0  0999 V2000
   13.4969   14.1988   23.1808 C   0  0  0  0  0  0  0  0  0  0  0  0
   13.3995   15.2571   22.3958 C   0  0  0  0  0  0  0  0  0  0  0  0
   12.9519   15.0801   20.9859 C   0  0  0  0  0  0  0  0  0  0  0  0
   11.6665   15.8000   20.6294 C   0  0  2  0  0  0  0  0  0  0  0  0
   11.7503   17.5101   21.1189 Cl  0  0  0  0  0  0  0  0  0  0  0  0
   10.3389   15.2132   21.1551 C   0  0  0  0  0  0  0  0  0  0  0  0
    9.5235   14.8383   20.4083 O   0  0  0  0  0  0  0  0  0  0  0  0
   10.3067   15.3324   22.6979 N   0  0  0  0  0  0  0  0  0  0  0  0
    9.2368   15.1058   23.6287 C   0  0  0  0  0  0  0  0  0  0  0  0
    9.2023   13.7328   24.3469 C   0  0  1  0  0  0  0  0  0  0  0  0
    8.1036   13.8449   25.4285 C   0  0  0  0  0  0  0  0  0  0  0  0
    7.6741   12.5545   26.1245 C   0  0  0  0  0  0  0  0  0  0  0  0
    8.2336   11.3031   25.4827 C   0  0  0  0  0  0  0  0  0  0  0  0
    8.1779   11.4167   23.9988 C   0  0  0  0  0  0  0  0  0  0  0  0
    8.9731   12.5609   23.3802 C   0  0  2  0  0  0  0  0  0  0  0  0
   10.3679   12.0701   22.9964 C   0  0  0  0  0  0  0  0  0  0  0  0
   11.1885   12.5003   24.1563 C   0  0  0  0  0  0  0  0  0  0  0  0
   12.3293   12.1475   24.3928 O   0  0  0  0  0  0  0  0  0  0  0  0
   10.4838   13.3968   24.9177 N   0  0  0  0  0  0  0  0  0  0  0  0
  1  2  2  0
  2  3  1  0
  3  4  1  0
  4  5  1  1
  4  6  1  0
  6  7  2  0
  6  8  1  0
  8  9  1  0
 10  9  1  6
 10 11  1  0
 11 12  1  0
 12 13  1  0
 13 14  1  0
 15 14  1  1
 15 16  1  0
 16 17  1  0
 17 18  2  0
 17 19  1  0
 15 10  1  0
 19 10  1  0
M  END
>  <energy_score>  (4708) 
-14.707236

>  <inchikey>  (4708) 
IAKOHPNHMKNJDV-UHFFFAOYSA-N

>  <smiles>  (4708) 
C=CCC(Cl)C(=O)NCC12CCCCC1CC(=O)N2

>  <ref_pdb>  (4708) 
A0525a

>  <alias>  (4708) 
IAKOHPNHMKNJDV-UHFFFAOYSA-N-P22-P22-P123-601510

>  <HIPPO Pose ID>  (4708) 
518152

>  <name>  (4708) 
IAKOHPNHMKNJDV-UHFFFAOYSA-N-P22-P22-P123-601510

>  <HIPPO Compound ID>  (4708) 
300811

>  <ref_mols>  (4708) 
A1776a,A0528a

>  <distance_score>  (4708) 
1.730554

>  <inspiration_score>  (4708) 
None

$$$$
OWPNAXOJHDYLAX-UHFFFAOYSA-N-P22-P22-P123-601510
     RDKit          3D

 19 20  0  0  0  0  0  0  0  0999 V2000
   13.3311   13.5146   23.6982 C   0  0  0  0  0  0  0  0  0  0  0  0
   13.0494   14.4419   22.5232 C   0  0  0  0  0  0  0  0  0  0  0  0
   12.0974   13.7627   21.5614 C   0  0  0  0  0  0  0  0  0  0  0  0
   12.6975   15.8357   23.0421 C   0  0  0  0  0  0  0  0  0  0  0  0
   11.6792   16.6734   22.2734 C   0  0  1  0  0  0  0  0  0  0  0  0
   12.3340   17.0651   20.6602 Cl  0  0  0  0  0  0  0  0  0  0  0  0
   10.2528   16.0588   22.1779 C   0  0  0  0  0  0  0  0  0  0  0  0
    9.6979   15.8829   21.1629 O   0  0  0  0  0  0  0  0  0  0  0  0
    9.8084   15.7414   23.6422 N   0  0  0  0  0  0  0  0  0  0  0  0
    8.5602   15.2346   24.1509 C   0  0  0  0  0  0  0  0  0  0  0  0
    8.6120   13.7300   24.4862 C   0  0  1  0  0  0  0  0  0  0  0  0
    7.7545   13.4169   25.7280 C   0  0  0  0  0  0  0  0  0  0  0  0
    7.2403   11.9753   25.7801 C   0  0  0  0  0  0  0  0  0  0  0  0
    8.0922   10.9687   25.0128 C   0  0  0  0  0  0  0  0  0  0  0  0
    8.7042   11.5177   23.7258 C   0  0  1  0  0  0  0  0  0  0  0  0
    8.1379   12.8754   23.3183 C   0  0  0  0  0  0  0  0  0  0  0  0
   10.0855   11.9931   24.0059 C   0  0  0  0  0  0  0  0  0  0  0  0
   11.1079   11.4430   23.6597 O   0  0  0  0  0  0  0  0  0  0  0  0
    9.9497   13.1973   24.6769 N   0  0  0  0  0  0  0  0  0  0  0  0
  1  2  1  0
  2  3  1  0
  2  4  1  0
  4  5  1  0
  5  6  1  6
  5  7  1  0
  7  8  2  0
  7  9  1  0
  9 10  1  0
 11 10  1  6
 11 12  1  0
 12 13  1  0
 13 14  1  0
 15 14  1  1
 15 16  1  0
 15 17  1  0
 17 18  2  0
 17 19  1  0
 16 11  1  0
 19 11  1  0
M  END
>  <energy_score>  (4709) 
-2.762665

>  <inchikey>  (4709) 
OWPNAXOJHDYLAX-UHFFFAOYSA-N

>  <smiles>  (4709) 
CC(C)CC(Cl)C(=O)NCC12CCCC(C1)C(=O)N2

>  <ref_pdb>  (4709) 
A0525a

>  <alias>  (4709) 
OWPNAXOJHDYLAX-UHFFFAOYSA-N-P22-P22-P123-601510

>  <HIPPO Pose ID>  (4709) 
518156

>  <name>  (4709) 
OWPNAXOJHDYLAX-UHFFFAOYSA-N-P22-P22-P123-601510

>  <HIPPO Compound ID>  (4709) 
300813

>  <ref_mols>  (4709) 
A1776a,A0528a

>  <distance_score>  (4709) 
1.500129

>  <inspiration_score>  (4709) 
None

$$$$
AEARFKMNVTYZKM-UHFFFAOYSA-N-P22-P22-P123-601510
     RDKit          3D

 19 20  0  0  0  0  0  0  0  0999 V2000
   12.6498   13.5156   22.3139 C   0  0  0  0  0  0  0  0  0  0  0  0
   12.7443   15.0153   22.2614 C   0  0  0  0  0  0  0  0  0  0  0  0
   12.5728   15.5211   23.5154 F   0  0  0  0  0  0  0  0  0  0  0  0
   13.9941   15.3794   21.8856 F   0  0  0  0  0  0  0  0  0  0  0  0
   11.7306   15.6139   21.3057 C   0  0  2  0  0  0  0  0  0  0  0  0
   11.8819   17.3807   21.2400 Cl  0  0  0  0  0  0  0  0  0  0  0  0
   10.2715   15.2852   21.6553 C   0  0  0  0  0  0  0  0  0  0  0  0
    9.5236   14.9384   20.8258 O   0  0  0  0  0  0  0  0  0  0  0  0
   10.0608   15.4806   23.1834 N   0  0  0  0  0  0  0  0  0  0  0  0
    8.9156   15.1981   24.0151 C   0  0  0  0  0  0  0  0  0  0  0  0
    8.8162   13.7173   24.4276 C   0  0  1  0  0  0  0  0  0  0  0  0
    7.9722   13.5620   25.7089 C   0  0  0  0  0  0  0  0  0  0  0  0
    7.3207   12.1806   25.8634 C   0  0  0  0  0  0  0  0  0  0  0  0
    8.0223   11.0509   25.1132 C   0  0  0  0  0  0  0  0  0  0  0  0
    8.6520   11.4718   23.7932 C   0  0  1  0  0  0  0  0  0  0  0  0
    8.1919   12.8511   23.3359 C   0  0  0  0  0  0  0  0  0  0  0  0
   10.0838   11.8288   23.9858 C   0  0  0  0  0  0  0  0  0  0  0  0
   11.0299   11.1818   23.5934 O   0  0  0  0  0  0  0  0  0  0  0  0
   10.1084   13.0678   24.5986 N   0  0  0  0  0  0  0  0  0  0  0  0
  1  2  1  0
  2  3  1  0
  2  4  1  0
  2  5  1  0
  5  6  1  1
  5  7  1  0
  7  8  2  0
  7  9  1  0
  9 10  1  0
 11 10  1  6
 11 12  1  0
 12 13  1  0
 13 14  1  0
 15 14  1  1
 15 16  1  0
 15 17  1  0
 17 18  2  0
 17 19  1  0
 16 11  1  0
 19 11  1  0
M  END
>  <energy_score>  (4710) 
-13.324518

>  <inchikey>  (4710) 
AEARFKMNVTYZKM-UHFFFAOYSA-N

>  <smiles>  (4710) 
CC(F)(F)C(Cl)C(=O)NCC12CCCC(C1)C(=O)N2

>  <ref_pdb>  (4710) 
A0525a

>  <alias>  (4710) 
AEARFKMNVTYZKM-UHFFFAOYSA-N-P22-P22-P123-601510

>  <HIPPO Pose ID>  (4710) 
518198

>  <name>  (4710) 
AEARFKMNVTYZKM-UHFFFAOYSA-N-P22-P22-P123-601510

>  <HIPPO Compound ID>  (4710) 
300842

>  <ref_mols>  (4710) 
A1776a,A0528a

>  <distance_score>  (4710) 
1.516246

>  <inspiration_score>  (4710) 
None

$$$$
ZJKSCXPPOFOGHE-UHFFFAOYSA-N-P22-P22-P123-601510
     RDKit          3D

 20 21  0  0  0  0  0  0  0  0999 V2000
   12.5024   13.8077   22.9980 C   0  0  0  0  0  0  0  0  0  0  0  0
   12.9888   14.7727   21.9424 C   0  0  0  0  0  0  0  0  0  0  0  0
   13.1528   14.0704   20.7854 F   0  0  0  0  0  0  0  0  0  0  0  0
   14.2318   15.1872   22.3163 F   0  0  0  0  0  0  0  0  0  0  0  0
   12.1689   16.0286   21.6545 C   0  0  2  0  0  0  0  0  0  0  0  0
   12.7552   16.7292   20.4249 C   0  0  0  0  0  0  0  0  0  0  0  0
   12.2981   17.2048   23.0099 Cl  0  0  0  0  0  0  0  0  0  0  0  0
   10.6690   15.7029   21.4665 C   0  0  0  0  0  0  0  0  0  0  0  0
   10.1833   15.5907   20.4076 O   0  0  0  0  0  0  0  0  0  0  0  0
   10.0465   15.5297   22.8874 N   0  0  0  0  0  0  0  0  0  0  0  0
    8.6877   15.2787   23.2871 C   0  0  0  0  0  0  0  0  0  0  0  0
    8.4609   13.8606   23.8281 C   0  0  2  0  0  0  0  0  0  0  0  0
    6.9922   13.7577   24.2995 C   0  0  0  0  0  0  0  0  0  0  0  0
    6.7453   12.7052   25.3913 C   0  0  0  0  0  0  0  0  0  0  0  0
    7.6565   11.4961   25.2741 C   0  0  0  0  0  0  0  0  0  0  0  0
    9.0766   11.8912   24.9060 C   0  0  2  0  0  0  0  0  0  0  0  0
    9.3387   13.4038   24.9839 C   0  0  0  0  0  0  0  0  0  0  0  0
    9.3176   11.7138   23.4432 C   0  0  0  0  0  0  0  0  0  0  0  0
    9.9247   10.7971   22.9277 O   0  0  0  0  0  0  0  0  0  0  0  0
    8.7826   12.8486   22.8304 N   0  0  0  0  0  0  0  0  0  0  0  0
  1  2  1  0
  2  3  1  0
  2  4  1  0
  2  5  1  0
  5  6  1  6
  5  7  1  0
  5  8  1  0
  8  9  2  0
  8 10  1  0
 10 11  1  0
 12 11  1  6
 12 13  1  0
 13 14  1  0
 14 15  1  0
 16 15  1  6
 16 17  1  0
 16 18  1  0
 18 19  2  0
 18 20  1  0
 17 12  1  0
 20 12  1  0
M  END
>  <energy_score>  (4711) 
-6.006542

>  <inchikey>  (4711) 
ZJKSCXPPOFOGHE-UHFFFAOYSA-N

>  <smiles>  (4711) 
CC(F)(F)C(C)(Cl)C(=O)NCC12CCCC(C1)C(=O)N2

>  <ref_pdb>  (4711) 
A0525a

>  <alias>  (4711) 
ZJKSCXPPOFOGHE-UHFFFAOYSA-N-P22-P22-P123-601510

>  <HIPPO Pose ID>  (4711) 
518264

>  <name>  (4711) 
ZJKSCXPPOFOGHE-UHFFFAOYSA-N-P22-P22-P123-601510

>  <HIPPO Compound ID>  (4711) 
300894

>  <ref_mols>  (4711) 
A1776a,A0528a

>  <distance_score>  (4711) 
1.809941

>  <inspiration_score>  (4711) 
None

$$$$
SBRWAXQZQUWWJC-UHFFFAOYSA-N-P22-P22-P123-601510
     RDKit          3D

 21 23  0  0  0  0  0  0  0  0999 V2000
   13.3916   12.6028   19.8953 O   0  0  0  0  0  0  0  0  0  0  0  0
   13.0368   13.4138   20.7337 C   0  0  0  0  0  0  0  0  0  0  0  0
   12.1972   13.1954   21.9690 C   0  0  0  0  0  0  0  0  0  0  0  0
   12.7270   14.2805   22.8817 C   0  0  0  0  0  0  0  0  0  0  0  0
   12.9948   15.4171   21.9065 C   0  0  2  0  0  0  0  0  0  0  0  0
   11.7492   16.1691   21.4748 C   0  0  2  0  0  0  0  0  0  0  0  0
   12.2500   17.6245   20.6328 Cl  0  0  0  0  0  0  0  0  0  0  0  0
   10.9231   16.4685   22.6950 C   0  0  0  0  0  0  0  0  0  0  0  0
   11.2569   17.2304   23.5152 O   0  0  0  0  0  0  0  0  0  0  0  0
    9.6899   15.5153   22.6438 N   0  0  0  0  0  0  0  0  0  0  0  0
    8.5744   15.3796   23.5465 C   0  0  0  0  0  0  0  0  0  0  0  0
    8.3364   13.9221   23.9962 C   0  0  2  0  0  0  0  0  0  0  0  0
    6.9137   13.8058   24.5856 C   0  0  0  0  0  0  0  0  0  0  0  0
    6.7321   12.6605   25.5927 C   0  0  0  0  0  0  0  0  0  0  0  0
    7.6494   11.4758   25.3393 C   0  0  0  0  0  0  0  0  0  0  0  0
    9.0513   11.9057   24.9274 C   0  0  2  0  0  0  0  0  0  0  0  0
    9.3099   13.4123   25.0481 C   0  0  0  0  0  0  0  0  0  0  0  0
    9.1867   11.8015   23.4484 C   0  0  0  0  0  0  0  0  0  0  0  0
    9.7694   10.9206   22.8504 O   0  0  0  0  0  0  0  0  0  0  0  0
    8.5543   12.9393   22.9348 N   0  0  0  0  0  0  0  0  0  0  0  0
   13.4570   14.7234   20.7408 N   0  0  0  0  0  0  0  0  0  0  0  0
  1  2  2  0
  2  3  1  0
  3  4  1  0
  5  4  1  1
  5  6  1  0
  6  7  1  1
  6  8  1  0
  8  9  2  0
  8 10  1  0
 10 11  1  0
 12 11  1  6
 12 13  1  0
 13 14  1  0
 14 15  1  0
 16 15  1  6
 16 17  1  0
 16 18  1  0
 18 19  2  0
 18 20  1  0
  5 21  1  0
 21  2  1  0
 17 12  1  0
 20 12  1  0
M  END
>  <energy_score>  (4712) 
-21.466324

>  <inchikey>  (4712) 
SBRWAXQZQUWWJC-UHFFFAOYSA-N

>  <smiles>  (4712) 
O=C1CCC(C(Cl)C(=O)NCC23CCCC(C2)C(=O)N3)N1

>  <ref_pdb>  (4712) 
A0525a

>  <alias>  (4712) 
SBRWAXQZQUWWJC-UHFFFAOYSA-N-P22-P22-P123-601510

>  <HIPPO Pose ID>  (4712) 
518282

>  <name>  (4712) 
SBRWAXQZQUWWJC-UHFFFAOYSA-N-P22-P22-P123-601510

>  <HIPPO Compound ID>  (4712) 
300907

>  <ref_mols>  (4712) 
A1776a,A0528a

>  <distance_score>  (4712) 
1.914924

>  <inspiration_score>  (4712) 
None

$$$$
MQCAMKPRFAGBRA-UHFFFAOYSA-N-P22-P22-P123-601510
     RDKit          3D

 22 23  0  0  0  0  0  0  0  0999 V2000
   13.3203   16.3210   20.4734 C   0  0  0  0  0  0  0  0  0  0  0  0
   12.5753   15.0698   20.5722 N   0  0  0  0  0  0  0  0  0  0  0  0
   12.7636   14.3738   21.8444 C   0  0  0  0  0  0  0  0  0  0  0  0
   11.4803   14.1765   22.6587 C   0  0  0  0  0  0  0  0  0  0  0  0
   10.6371   15.4614   22.7072 C   0  0  0  0  0  0  0  0  0  0  0  0
   11.6059   16.6882   23.5725 Cl  0  0  0  0  0  0  0  0  0  0  0  0
    9.2724   15.3371   23.4738 C   0  0  0  0  0  0  0  0  0  0  0  0
    8.2771   15.6792   22.9692 O   0  0  0  0  0  0  0  0  0  0  0  0
    9.5190   14.6374   24.8350 N   0  0  0  0  0  0  0  0  0  0  0  0
    8.5826   14.1289   25.8121 C   0  0  0  0  0  0  0  0  0  0  0  0
    8.0345   12.7055   25.4348 C   0  0  2  0  0  0  0  0  0  0  0  0
    7.1101   12.2602   26.5778 C   0  0  0  0  0  0  0  0  0  0  0  0
    5.9764   12.9832   26.6600 F   0  0  0  0  0  0  0  0  0  0  0  0
    6.7553   10.9612   26.4617 F   0  0  0  0  0  0  0  0  0  0  0  0
    7.7441   12.3992   27.7667 F   0  0  0  0  0  0  0  0  0  0  0  0
    9.1703   11.6882   25.1453 C   0  0  0  0  0  0  0  0  0  0  0  0
    9.2094   11.3813   23.6725 C   0  0  0  0  0  0  0  0  0  0  0  0
    8.2988   12.4399   23.1880 C   0  0  0  0  0  0  0  0  0  0  0  0
    8.3040   12.9484   22.0891 O   0  0  0  0  0  0  0  0  0  0  0  0
    7.3941   12.7650   24.1500 N   0  0  0  0  0  0  0  0  0  0  0  0
   10.3681   15.9778   21.2729 C   0  0  0  0  0  0  0  0  0  0  0  0
   11.1697   15.2108   20.2294 C   0  0  0  0  0  0  0  0  0  0  0  0
  1  2  1  0
  2  3  1  0
  3  4  1  0
  4  5  1  0
  5  6  1  0
  5  7  1  0
  7  8  2  0
  7  9  1  0
  9 10  1  0
 11 10  1  1
 11 12  1  0
 12 13  1  0
 12 14  1  0
 12 15  1  0
 11 16  1  0
 16 17  1  0
 17 18  1  0
 18 19  2  0
 18 20  1  0
  5 21  1  0
 21 22  1  0
 22  2  1  0
 20 11  1  0
M  END
>  <energy_score>  (4713) 
-32.8921

>  <inchikey>  (4713) 
MQCAMKPRFAGBRA-UHFFFAOYSA-N

>  <smiles>  (4713) 
CN1CCC(Cl)(C(=O)NCC2(C(F)(F)F)CCC(=O)N2)CC1

>  <ref_pdb>  (4713) 
A0525a

>  <alias>  (4713) 
MQCAMKPRFAGBRA-UHFFFAOYSA-N-P22-P22-P123-601510

>  <HIPPO Pose ID>  (4713) 
518354

>  <name>  (4713) 
MQCAMKPRFAGBRA-UHFFFAOYSA-N-P22-P22-P123-601510

>  <HIPPO Compound ID>  (4713) 
300958

>  <ref_mols>  (4713) 
A1776a,A0528a

>  <distance_score>  (4713) 
1.910616

>  <inspiration_score>  (4713) 
None

$$$$
YJUHYQRSXWLENN-UHFFFAOYSA-N-P36-P36-P51-601511
     RDKit          3D

 19 19  0  0  0  0  0  0  0  0999 V2000
   24.0656   17.1410    1.9240 C   0  0  0  0  0  0  0  0  0  0  0  0
   22.7550   16.5442    1.8121 N   0  0  0  0  0  0  0  0  0  0  0  0
   21.6255   17.2475    1.4901 C   0  0  0  0  0  0  0  0  0  0  0  0
   20.6072   16.3304    1.5146 C   0  0  0  0  0  0  0  0  0  0  0  0
   21.0779   15.0973    1.8625 N   0  0  0  0  0  0  0  0  0  0  0  0
   22.3854   15.2294    2.0170 C   0  0  0  0  0  0  0  0  0  0  0  0
   23.2865   14.1109    2.4279 C   0  0  0  0  0  0  0  0  0  0  0  0
   24.5658   14.1175    1.6056 C   0  0  0  0  0  0  0  0  0  0  0  0
   24.5792   13.8767    0.4623 O   0  0  0  0  0  0  0  0  0  0  0  0
   25.7178   14.5496    2.5576 N   0  0  0  0  0  0  0  0  0  0  0  0
   27.0947   14.8634    2.2763 C   0  0  0  0  0  0  0  0  0  0  0  0
   27.7905   13.6547    1.6808 C   0  0  0  0  0  0  0  0  0  0  0  0
   28.0546   12.4344    2.9900 S   0  0  0  0  0  0  0  0  0  0  0  0
   29.4820   12.8293    3.7394 O   0  0  0  0  0  0  0  0  0  0  0  0
   28.3430   11.0579    1.8890 C   0  0  0  0  0  0  0  0  0  0  0  0
   27.0654   10.5515    1.2649 C   0  0  0  0  0  0  0  0  0  0  0  0
   26.9729    9.2059    1.3777 F   0  0  0  0  0  0  0  0  0  0  0  0
   27.0534   10.8310   -0.0617 F   0  0  0  0  0  0  0  0  0  0  0  0
   25.9523   11.0923    1.7956 F   0  0  0  0  0  0  0  0  0  0  0  0
  1  2  1  0
  2  3  1  0
  3  4  2  0
  4  5  1  0
  5  6  2  0
  6  7  1  0
  7  8  1  0
  8  9  2  0
  8 10  1  0
 10 11  1  0
 11 12  1  0
 12 13  1  0
 13 14  1  6
 13 15  1  0
 15 16  1  0
 16 17  1  0
 16 18  1  0
 16 19  1  0
  6  2  1  0
M  CHG  2  13   1  14  -1
M  END
>  <energy_score>  (4714) 
-5.92243

>  <inchikey>  (4714) 
YJUHYQRSXWLENN-UHFFFAOYSA-N

>  <smiles>  (4714) 
Cn1ccnc1CC(=O)NCC[S+]([O-])CC(F)(F)F

>  <ref_pdb>  (4714) 
A0528a

>  <alias>  (4714) 
YJUHYQRSXWLENN-UHFFFAOYSA-N-P36-P36-P51-601511

>  <HIPPO Pose ID>  (4714) 
518514

>  <name>  (4714) 
YJUHYQRSXWLENN-UHFFFAOYSA-N-P36-P36-P51-601511

>  <HIPPO Compound ID>  (4714) 
301933

>  <ref_mols>  (4714) 
A0239a,A0309a

>  <distance_score>  (4714) 
1.522507

>  <inspiration_score>  (4714) 
None

$$$$
YJUHYQRSXWLENN-UHFFFAOYSA-N-P51-P36-P51-601511
     RDKit          3D

 19 19  0  0  0  0  0  0  0  0999 V2000
   24.3555   17.4413    1.5366 C   0  0  0  0  0  0  0  0  0  0  0  0
   23.0816   16.7604    1.5136 N   0  0  0  0  0  0  0  0  0  0  0  0
   22.0364   17.0530    0.6855 C   0  0  0  0  0  0  0  0  0  0  0  0
   21.0677   16.1254    0.9831 C   0  0  0  0  0  0  0  0  0  0  0  0
   21.4882   15.2856    1.9768 N   0  0  0  0  0  0  0  0  0  0  0  0
   22.6929   15.7115    2.3100 C   0  0  0  0  0  0  0  0  0  0  0  0
   23.5126   15.1759    3.4231 C   0  0  0  0  0  0  0  0  0  0  0  0
   24.7959   14.5681    2.9032 C   0  0  0  0  0  0  0  0  0  0  0  0
   25.8462   15.0274    3.1138 O   0  0  0  0  0  0  0  0  0  0  0  0
   24.3932   13.3291    2.0719 N   0  0  0  0  0  0  0  0  0  0  0  0
   25.2009   12.3518    1.4112 C   0  0  0  0  0  0  0  0  0  0  0  0
   26.5309   12.8815    0.8883 C   0  0  0  0  0  0  0  0  0  0  0  0
   27.9099   12.7628    2.0617 S   0  0  0  0  0  0  0  0  0  0  0  0
   29.2911   13.1881    1.2464 O   0  0  0  0  0  0  0  0  0  0  0  0
   27.9668   10.9910    2.3458 C   0  0  0  0  0  0  0  0  0  0  0  0
   27.7658   10.1261    1.1365 C   0  0  0  0  0  0  0  0  0  0  0  0
   28.6280   10.3797    0.1352 F   0  0  0  0  0  0  0  0  0  0  0  0
   27.9132    8.8128    1.4574 F   0  0  0  0  0  0  0  0  0  0  0  0
   26.5134   10.2474    0.6464 F   0  0  0  0  0  0  0  0  0  0  0  0
  1  2  1  0
  2  3  1  0
  3  4  2  0
  4  5  1  0
  5  6  2  0
  6  7  1  0
  7  8  1  0
  8  9  2  0
  8 10  1  0
 10 11  1  0
 11 12  1  0
 12 13  1  0
 13 14  1  6
 13 15  1  0
 15 16  1  0
 16 17  1  0
 16 18  1  0
 16 19  1  0
  6  2  1  0
M  CHG  2  13   1  14  -1
M  END
>  <energy_score>  (4715) 
-7.797105

>  <inchikey>  (4715) 
YJUHYQRSXWLENN-UHFFFAOYSA-N

>  <smiles>  (4715) 
Cn1ccnc1CC(=O)NCC[S+]([O-])CC(F)(F)F

>  <ref_pdb>  (4715) 
A0528a

>  <alias>  (4715) 
YJUHYQRSXWLENN-UHFFFAOYSA-N-P51-P36-P51-601511

>  <HIPPO Pose ID>  (4715) 
518515

>  <name>  (4715) 
YJUHYQRSXWLENN-UHFFFAOYSA-N-P51-P36-P51-601511

>  <HIPPO Compound ID>  (4715) 
301933

>  <ref_mols>  (4715) 
A0239a,A0309a

>  <distance_score>  (4715) 
1.746925

>  <inspiration_score>  (4715) 
None

$$$$
SCEKOBNOHVGBSG-UHFFFAOYSA-N-P36-P36-P51-601511
     RDKit          3D

 19 19  0  0  0  0  0  0  0  0999 V2000
   19.2046   16.9691    2.1115 C   0  0  0  0  0  0  0  0  0  0  0  0
   20.5801   16.5214    1.8048 C   0  0  0  0  0  0  0  0  0  0  0  0
   21.7258   17.2764    1.6937 C   0  0  0  0  0  0  0  0  0  0  0  0
   22.7001   16.3989    1.3158 N   0  0  0  0  0  0  0  0  0  0  0  0
   22.1253   15.1512    1.2177 C   0  0  0  0  0  0  0  0  0  0  0  0
   22.8650   13.9535    0.7369 C   0  0  0  0  0  0  0  0  0  0  0  0
   24.3151   14.0761    1.1754 C   0  0  0  0  0  0  0  0  0  0  0  0
   25.0743   14.7540    0.6028 O   0  0  0  0  0  0  0  0  0  0  0  0
   24.4837   13.2627    2.4828 N   0  0  0  0  0  0  0  0  0  0  0  0
   25.5883   13.1915    3.4039 C   0  0  0  0  0  0  0  0  0  0  0  0
   26.9758   13.2122    2.7780 C   0  0  0  0  0  0  0  0  0  0  0  0
   27.6151   11.5770    2.3228 S   0  0  0  0  0  0  0  0  0  0  0  0
   29.0410   11.8643    1.5387 O   0  0  0  0  0  0  0  0  0  0  0  0
   26.3789   11.2442    1.0732 C   0  0  0  0  0  0  0  0  0  0  0  0
   26.7176   10.1101    0.1658 C   0  0  0  0  0  0  0  0  0  0  0  0
   27.6818   10.4215   -0.7211 F   0  0  0  0  0  0  0  0  0  0  0  0
   25.6272    9.7959   -0.5842 F   0  0  0  0  0  0  0  0  0  0  0  0
   27.0636    8.9897    0.8329 F   0  0  0  0  0  0  0  0  0  0  0  0
   20.8505   15.1987    1.5467 N   0  0  0  0  0  0  0  0  0  0  0  0
  1  2  1  0
  2  3  2  0
  3  4  1  0
  4  5  1  0
  5  6  1  0
  6  7  1  0
  7  8  2  0
  7  9  1  0
  9 10  1  0
 10 11  1  0
 11 12  1  0
 12 13  1  6
 12 14  1  0
 14 15  1  0
 15 16  1  0
 15 17  1  0
 15 18  1  0
  5 19  2  0
 19  2  1  0
M  CHG  2  12   1  13  -1
M  END
>  <energy_score>  (4716) 
-6.939827

>  <inchikey>  (4716) 
SCEKOBNOHVGBSG-UHFFFAOYSA-N

>  <smiles>  (4716) 
Cc1c[nH]c(CC(=O)NCC[S+]([O-])CC(F)(F)F)n1

>  <ref_pdb>  (4716) 
A0528a

>  <alias>  (4716) 
SCEKOBNOHVGBSG-UHFFFAOYSA-N-P36-P36-P51-601511

>  <HIPPO Pose ID>  (4716) 
518516

>  <name>  (4716) 
SCEKOBNOHVGBSG-UHFFFAOYSA-N-P36-P36-P51-601511

>  <HIPPO Compound ID>  (4716) 
301934

>  <ref_mols>  (4716) 
A0239a,A0309a

>  <distance_score>  (4716) 
1.595099

>  <inspiration_score>  (4716) 
None

$$$$
SCEKOBNOHVGBSG-UHFFFAOYSA-N-P51-P36-P51-601511
     RDKit          3D

 19 19  0  0  0  0  0  0  0  0999 V2000
   19.3937   16.9742    2.0224 C   0  0  0  0  0  0  0  0  0  0  0  0
   20.7906   16.4925    1.9816 C   0  0  0  0  0  0  0  0  0  0  0  0
   21.9526   17.2194    1.8590 C   0  0  0  0  0  0  0  0  0  0  0  0
   22.9582   16.2946    1.8499 N   0  0  0  0  0  0  0  0  0  0  0  0
   22.3854   15.0495    1.9618 C   0  0  0  0  0  0  0  0  0  0  0  0
   23.1498   13.7738    1.9871 C   0  0  0  0  0  0  0  0  0  0  0  0
   24.5242   13.9464    1.3596 C   0  0  0  0  0  0  0  0  0  0  0  0
   24.6724   14.0492    0.2059 O   0  0  0  0  0  0  0  0  0  0  0  0
   25.5619   13.9776    2.5130 N   0  0  0  0  0  0  0  0  0  0  0  0
   26.9786   14.2359    2.4893 C   0  0  0  0  0  0  0  0  0  0  0  0
   27.7005   13.1705    1.6792 C   0  0  0  0  0  0  0  0  0  0  0  0
   28.1018   11.7355    2.7218 S   0  0  0  0  0  0  0  0  0  0  0  0
   29.5048   12.1329    3.5203 O   0  0  0  0  0  0  0  0  0  0  0  0
   28.5687   10.6485    1.3582 C   0  0  0  0  0  0  0  0  0  0  0  0
   27.3813    9.8941    0.8278 C   0  0  0  0  0  0  0  0  0  0  0  0
   26.3169   10.6756    0.5737 F   0  0  0  0  0  0  0  0  0  0  0  0
   27.0025    8.9116    1.6743 F   0  0  0  0  0  0  0  0  0  0  0  0
   27.7178    9.2825   -0.3363 F   0  0  0  0  0  0  0  0  0  0  0  0
   21.0742   15.1515    2.0582 N   0  0  0  0  0  0  0  0  0  0  0  0
  1  2  1  0
  2  3  2  0
  3  4  1  0
  4  5  1  0
  5  6  1  0
  6  7  1  0
  7  8  2  0
  7  9  1  0
  9 10  1  0
 10 11  1  0
 11 12  1  0
 12 13  1  1
 12 14  1  0
 14 15  1  0
 15 16  1  0
 15 17  1  0
 15 18  1  0
  5 19  2  0
 19  2  1  0
M  CHG  2  12   1  13  -1
M  END
>  <energy_score>  (4717) 
-9.233699

>  <inchikey>  (4717) 
SCEKOBNOHVGBSG-UHFFFAOYSA-N

>  <smiles>  (4717) 
Cc1c[nH]c(CC(=O)NCC[S+]([O-])CC(F)(F)F)n1

>  <ref_pdb>  (4717) 
A0528a

>  <alias>  (4717) 
SCEKOBNOHVGBSG-UHFFFAOYSA-N-P51-P36-P51-601511

>  <HIPPO Pose ID>  (4717) 
518517

>  <name>  (4717) 
SCEKOBNOHVGBSG-UHFFFAOYSA-N-P51-P36-P51-601511

>  <HIPPO Compound ID>  (4717) 
301934

>  <ref_mols>  (4717) 
A0239a,A0309a

>  <distance_score>  (4717) 
1.41841

>  <inspiration_score>  (4717) 
None

$$$$
HAHXKHRJFHFLPQ-UHFFFAOYSA-N-P51-P36-P51-601511
     RDKit          3D

 20 20  0  0  0  0  0  0  0  0999 V2000
   23.8594   13.4714    2.4447 C   0  0  0  0  0  0  0  0  0  0  0  0
   23.4902   14.2205    1.1560 C   0  0  0  0  0  0  0  0  0  0  0  0
   22.3557   13.4561    0.4336 C   0  0  0  0  0  0  0  0  0  0  0  0
   24.7171   14.2466    0.1893 C   0  0  0  0  0  0  0  0  0  0  0  0
   24.6346   13.8468   -0.9070 O   0  0  0  0  0  0  0  0  0  0  0  0
   25.9480   14.7631    0.9809 N   0  0  0  0  0  0  0  0  0  0  0  0
   27.3355   14.8043    0.6218 C   0  0  0  0  0  0  0  0  0  0  0  0
   27.8867   13.3767    0.5954 C   0  0  0  0  0  0  0  0  0  0  0  0
   28.2561   12.7676    2.2611 S   0  0  0  0  0  0  0  0  0  0  0  0
   26.9147   12.8979    3.2089 O   0  0  0  0  0  0  0  0  0  0  0  0
   28.5164   11.0362    1.8535 C   0  0  0  0  0  0  0  0  0  0  0  0
   27.3504   10.3573    1.1834 C   0  0  0  0  0  0  0  0  0  0  0  0
   26.1465   10.8563    1.5000 F   0  0  0  0  0  0  0  0  0  0  0  0
   27.4838   10.4395   -0.1657 F   0  0  0  0  0  0  0  0  0  0  0  0
   27.3505    9.0300    1.4748 F   0  0  0  0  0  0  0  0  0  0  0  0
   22.9916   15.5973    1.4904 C   0  0  0  0  0  0  0  0  0  0  0  0
   23.5197   16.7613    1.1773 N   0  0  0  0  0  0  0  0  0  0  0  0
   22.6508   17.7084    1.6504 C   0  0  0  0  0  0  0  0  0  0  0  0
   21.5829   17.1207    2.2802 C   0  0  0  0  0  0  0  0  0  0  0  0
   21.8325   15.7826    2.2151 N   0  0  0  0  0  0  0  0  0  0  0  0
  1  2  1  0
  2  3  1  0
  2  4  1  0
  4  5  2  0
  4  6  1  0
  6  7  1  0
  7  8  1  0
  8  9  1  0
  9 10  1  1
  9 11  1  0
 11 12  1  0
 12 13  1  0
 12 14  1  0
 12 15  1  0
  2 16  1  0
 16 17  2  0
 17 18  1  0
 18 19  2  0
 19 20  1  0
 20 16  1  0
M  CHG  2   9   1  10  -1
M  END
>  <energy_score>  (4718) 
-13.575986

>  <inchikey>  (4718) 
HAHXKHRJFHFLPQ-UHFFFAOYSA-N

>  <smiles>  (4718) 
CC(C)(C(=O)NCC[S+]([O-])CC(F)(F)F)c1ncc[nH]1

>  <ref_pdb>  (4718) 
A0528a

>  <alias>  (4718) 
HAHXKHRJFHFLPQ-UHFFFAOYSA-N-P51-P36-P51-601511

>  <HIPPO Pose ID>  (4718) 
518521

>  <name>  (4718) 
HAHXKHRJFHFLPQ-UHFFFAOYSA-N-P51-P36-P51-601511

>  <HIPPO Compound ID>  (4718) 
301936

>  <ref_mols>  (4718) 
A0239a,A0309a

>  <distance_score>  (4718) 
1.733031

>  <inspiration_score>  (4718) 
None

$$$$
TXKDYNLFGYNEOT-UHFFFAOYSA-N-P51-P36-P51-601511
     RDKit          3D

 20 20  0  0  0  0  0  0  0  0999 V2000
   22.7695   14.3127    3.1101 C   0  0  0  0  0  0  0  0  0  0  0  0
   22.9287   14.7827    1.6718 C   0  0  2  0  0  0  0  0  0  0  0  0
   24.3505   14.7200    1.0675 C   0  0  0  0  0  0  0  0  0  0  0  0
   24.4378   14.5399   -0.1143 O   0  0  0  0  0  0  0  0  0  0  0  0
   25.3703   14.8362    2.0769 N   0  0  0  0  0  0  0  0  0  0  0  0
   26.8012   14.6774    1.9979 C   0  0  0  0  0  0  0  0  0  0  0  0
   27.1088   13.1908    1.9908 C   0  0  0  0  0  0  0  0  0  0  0  0
   28.8603   12.8624    1.7104 S   0  0  0  0  0  0  0  0  0  0  0  0
   29.7163   13.6442    2.8972 O   0  0  0  0  0  0  0  0  0  0  0  0
   28.8193   11.0998    2.1456 C   0  0  0  0  0  0  0  0  0  0  0  0
   27.8817   10.3053    1.2718 C   0  0  0  0  0  0  0  0  0  0  0  0
   28.1221    8.9751    1.3875 F   0  0  0  0  0  0  0  0  0  0  0  0
   26.5896   10.4953    1.6124 F   0  0  0  0  0  0  0  0  0  0  0  0
   28.0127   10.6177   -0.0349 F   0  0  0  0  0  0  0  0  0  0  0  0
   22.2480   16.1044    1.4627 C   0  0  0  0  0  0  0  0  0  0  0  0
   20.9517   16.2037    1.2099 N   0  0  0  0  0  0  0  0  0  0  0  0
   20.6765   17.5370    1.1161 C   0  0  0  0  0  0  0  0  0  0  0  0
   21.8061   18.2769    1.3489 C   0  0  0  0  0  0  0  0  0  0  0  0
   22.8004   17.3625    1.5796 N   0  0  0  0  0  0  0  0  0  0  0  0
   24.1571   17.7241    1.9116 C   0  0  0  0  0  0  0  0  0  0  0  0
  2  1  1  1
  2  3  1  0
  3  4  2  0
  3  5  1  0
  5  6  1  0
  6  7  1  0
  7  8  1  0
  8  9  1  1
  8 10  1  0
 10 11  1  0
 11 12  1  0
 11 13  1  0
 11 14  1  0
  2 15  1  0
 15 16  2  0
 16 17  1  0
 17 18  2  0
 18 19  1  0
 19 20  1  0
 19 15  1  0
M  CHG  2   8   1   9  -1
M  END
>  <energy_score>  (4719) 
-14.034722

>  <inchikey>  (4719) 
TXKDYNLFGYNEOT-UHFFFAOYSA-N

>  <smiles>  (4719) 
CC(C(=O)NCC[S+]([O-])CC(F)(F)F)c1nccn1C

>  <ref_pdb>  (4719) 
A0528a

>  <alias>  (4719) 
TXKDYNLFGYNEOT-UHFFFAOYSA-N-P51-P36-P51-601511

>  <HIPPO Pose ID>  (4719) 
518523

>  <name>  (4719) 
TXKDYNLFGYNEOT-UHFFFAOYSA-N-P51-P36-P51-601511

>  <HIPPO Compound ID>  (4719) 
301937

>  <ref_mols>  (4719) 
A0239a,A0309a

>  <distance_score>  (4719) 
1.935826

>  <inspiration_score>  (4719) 
None

$$$$
BBIBDPVCWNOPJN-UHFFFAOYSA-N-P36-P36-P51-601511
     RDKit          3D

 20 20  0  0  0  0  0  0  0  0999 V2000
   18.8090   17.3758    2.5759 C   0  0  0  0  0  0  0  0  0  0  0  0
   19.7120   17.6225    1.3779 C   0  0  0  0  0  0  0  0  0  0  0  0
   20.9136   16.7519    1.4186 C   0  0  0  0  0  0  0  0  0  0  0  0
   22.1561   16.9019    1.9902 C   0  0  0  0  0  0  0  0  0  0  0  0
   22.9314   15.7942    1.7634 N   0  0  0  0  0  0  0  0  0  0  0  0
   22.2051   14.9940    1.0078 C   0  0  0  0  0  0  0  0  0  0  0  0
   22.5404   13.6405    0.4894 C   0  0  0  0  0  0  0  0  0  0  0  0
   23.9983   13.4281    0.0996 C   0  0  0  0  0  0  0  0  0  0  0  0
   24.2913   12.8810   -0.8898 O   0  0  0  0  0  0  0  0  0  0  0  0
   24.8825   13.9519    1.2545 N   0  0  0  0  0  0  0  0  0  0  0  0
   26.3125   13.9966    1.3888 C   0  0  0  0  0  0  0  0  0  0  0  0
   26.6712   13.3669    2.7206 C   0  0  0  0  0  0  0  0  0  0  0  0
   28.3164   12.6575    2.8034 S   0  0  0  0  0  0  0  0  0  0  0  0
   29.3850   13.7563    2.1702 O   0  0  0  0  0  0  0  0  0  0  0  0
   28.1413   11.3020    1.6322 C   0  0  0  0  0  0  0  0  0  0  0  0
   26.9008   10.4777    1.8125 C   0  0  0  0  0  0  0  0  0  0  0  0
   26.5585   10.3692    3.1087 F   0  0  0  0  0  0  0  0  0  0  0  0
   25.8509   10.9988    1.1485 F   0  0  0  0  0  0  0  0  0  0  0  0
   27.0897    9.2242    1.3323 F   0  0  0  0  0  0  0  0  0  0  0  0
   20.9619   15.5313    0.8004 N   0  0  0  0  0  0  0  0  0  0  0  0
  1  2  1  0
  2  3  1  0
  3  4  2  0
  4  5  1  0
  5  6  2  0
  6  7  1  0
  7  8  1  0
  8  9  2  0
  8 10  1  0
 10 11  1  0
 11 12  1  0
 12 13  1  0
 13 14  1  6
 13 15  1  0
 15 16  1  0
 16 17  1  0
 16 18  1  0
 16 19  1  0
  6 20  1  0
 20  3  1  0
M  CHG  2  13   1  14  -1
M  END
>  <energy_score>  (4720) 
-8.793029

>  <inchikey>  (4720) 
BBIBDPVCWNOPJN-UHFFFAOYSA-N

>  <smiles>  (4720) 
CCc1cnc(CC(=O)NCC[S+]([O-])CC(F)(F)F)[nH]1

>  <ref_pdb>  (4720) 
A0528a

>  <alias>  (4720) 
BBIBDPVCWNOPJN-UHFFFAOYSA-N-P36-P36-P51-601511

>  <HIPPO Pose ID>  (4720) 
518524

>  <name>  (4720) 
BBIBDPVCWNOPJN-UHFFFAOYSA-N-P36-P36-P51-601511

>  <HIPPO Compound ID>  (4720) 
301938

>  <ref_mols>  (4720) 
A0239a,A0309a

>  <distance_score>  (4720) 
1.772112

>  <inspiration_score>  (4720) 
None

$$$$
BBIBDPVCWNOPJN-UHFFFAOYSA-N-P51-P36-P51-601511
     RDKit          3D

 20 20  0  0  0  0  0  0  0  0999 V2000
   18.5943   16.4752    2.5794 C   0  0  0  0  0  0  0  0  0  0  0  0
   19.4432   16.5143    1.3197 C   0  0  0  0  0  0  0  0  0  0  0  0
   20.8863   16.3856    1.6375 C   0  0  0  0  0  0  0  0  0  0  0  0
   21.8563   17.3148    1.9397 C   0  0  0  0  0  0  0  0  0  0  0  0
   23.0702   16.7118    2.1332 N   0  0  0  0  0  0  0  0  0  0  0  0
   22.8610   15.4233    1.9565 C   0  0  0  0  0  0  0  0  0  0  0  0
   23.8774   14.3424    2.0648 C   0  0  0  0  0  0  0  0  0  0  0  0
   23.6935   13.2955    0.9576 C   0  0  0  0  0  0  0  0  0  0  0  0
   22.6472   12.9763    0.5450 O   0  0  0  0  0  0  0  0  0  0  0  0
   25.1108   12.7456    0.6399 N   0  0  0  0  0  0  0  0  0  0  0  0
   25.5374   11.7585   -0.3175 C   0  0  0  0  0  0  0  0  0  0  0  0
   26.9486   11.2444   -0.0850 C   0  0  0  0  0  0  0  0  0  0  0  0
   27.1020   10.3330    1.4786 S   0  0  0  0  0  0  0  0  0  0  0  0
   27.6748    8.8091    1.1354 O   0  0  0  0  0  0  0  0  0  0  0  0
   28.4677   11.2792    2.1591 C   0  0  0  0  0  0  0  0  0  0  0  0
   27.9424   12.5850    2.6685 C   0  0  0  0  0  0  0  0  0  0  0  0
   26.8658   12.4389    3.4645 F   0  0  0  0  0  0  0  0  0  0  0  0
   28.8948   13.2386    3.3698 F   0  0  0  0  0  0  0  0  0  0  0  0
   27.5696   13.4087    1.6602 F   0  0  0  0  0  0  0  0  0  0  0  0
   21.5409   15.1833    1.6627 N   0  0  0  0  0  0  0  0  0  0  0  0
  1  2  1  0
  2  3  1  0
  3  4  2  0
  4  5  1  0
  5  6  2  0
  6  7  1  0
  7  8  1  0
  8  9  2  0
  8 10  1  0
 10 11  1  0
 11 12  1  0
 12 13  1  0
 13 14  1  6
 13 15  1  0
 15 16  1  0
 16 17  1  0
 16 18  1  0
 16 19  1  0
  6 20  1  0
 20  3  1  0
M  CHG  2  13   1  14  -1
M  END
>  <energy_score>  (4721) 
-11.389674

>  <inchikey>  (4721) 
BBIBDPVCWNOPJN-UHFFFAOYSA-N

>  <smiles>  (4721) 
CCc1cnc(CC(=O)NCC[S+]([O-])CC(F)(F)F)[nH]1

>  <ref_pdb>  (4721) 
A0528a

>  <alias>  (4721) 
BBIBDPVCWNOPJN-UHFFFAOYSA-N-P51-P36-P51-601511

>  <HIPPO Pose ID>  (4721) 
518525

>  <name>  (4721) 
BBIBDPVCWNOPJN-UHFFFAOYSA-N-P51-P36-P51-601511

>  <HIPPO Compound ID>  (4721) 
301938

>  <ref_mols>  (4721) 
A0239a,A0309a

>  <distance_score>  (4721) 
1.712588

>  <inspiration_score>  (4721) 
None

$$$$
FBIHRDMUWFCKBC-UHFFFAOYSA-N-P51-P36-P51-601511
     RDKit          3D

 20 20  0  0  0  0  0  0  0  0999 V2000
   24.3060   17.0285    2.0499 C   0  0  0  0  0  0  0  0  0  0  0  0
   22.9735   16.4711    2.0293 N   0  0  0  0  0  0  0  0  0  0  0  0
   21.8391   17.1958    1.7807 C   0  0  0  0  0  0  0  0  0  0  0  0
   20.8113   16.2979    1.9035 C   0  0  0  0  0  0  0  0  0  0  0  0
   18.9841   16.6912    1.7317 Br  0  0  0  0  0  0  0  0  0  0  0  0
   21.2771   15.0544    2.2098 N   0  0  0  0  0  0  0  0  0  0  0  0
   22.5921   15.1693    2.2822 C   0  0  0  0  0  0  0  0  0  0  0  0
   23.4977   14.0501    2.6701 C   0  0  0  0  0  0  0  0  0  0  0  0
   24.7427   14.0117    1.7985 C   0  0  0  0  0  0  0  0  0  0  0  0
   24.6938   13.9175    0.6355 O   0  0  0  0  0  0  0  0  0  0  0  0
   25.9659   14.1490    2.7462 N   0  0  0  0  0  0  0  0  0  0  0  0
   27.3652   14.2932    2.4489 C   0  0  0  0  0  0  0  0  0  0  0  0
   27.8650   13.1191    1.6249 C   0  0  0  0  0  0  0  0  0  0  0  0
   28.1974   11.6923    2.7005 S   0  0  0  0  0  0  0  0  0  0  0  0
   29.6102   12.0461    3.5028 O   0  0  0  0  0  0  0  0  0  0  0  0
   28.6199   10.5630    1.3576 C   0  0  0  0  0  0  0  0  0  0  0  0
   27.4050    9.8497    0.8325 C   0  0  0  0  0  0  0  0  0  0  0  0
   27.7260    9.2035   -0.3177 F   0  0  0  0  0  0  0  0  0  0  0  0
   26.3766   10.6685    0.5547 F   0  0  0  0  0  0  0  0  0  0  0  0
   26.9822    8.8988    1.6933 F   0  0  0  0  0  0  0  0  0  0  0  0
  1  2  1  0
  2  3  1  0
  3  4  2  0
  4  5  1  0
  4  6  1  0
  6  7  2  0
  7  8  1  0
  8  9  1  0
  9 10  2  0
  9 11  1  0
 11 12  1  0
 12 13  1  0
 13 14  1  0
 14 15  1  1
 14 16  1  0
 16 17  1  0
 17 18  1  0
 17 19  1  0
 17 20  1  0
  7  2  1  0
M  CHG  2  14   1  15  -1
M  END
>  <energy_score>  (4722) 
-17.919872

>  <inchikey>  (4722) 
FBIHRDMUWFCKBC-UHFFFAOYSA-N

>  <smiles>  (4722) 
Cn1cc(Br)nc1CC(=O)NCC[S+]([O-])CC(F)(F)F

>  <ref_pdb>  (4722) 
A0528a

>  <alias>  (4722) 
FBIHRDMUWFCKBC-UHFFFAOYSA-N-P51-P36-P51-601511

>  <HIPPO Pose ID>  (4722) 
518529

>  <name>  (4722) 
FBIHRDMUWFCKBC-UHFFFAOYSA-N-P51-P36-P51-601511

>  <HIPPO Compound ID>  (4722) 
301940

>  <ref_mols>  (4722) 
A0239a,A0309a

>  <distance_score>  (4722) 
1.462277

>  <inspiration_score>  (4722) 
None

$$$$
UFXIKSFMTJMSLB-UHFFFAOYSA-N-P36-P36-P51-601511
     RDKit          3D

 21 22  0  0  0  0  0  0  0  0999 V2000
   26.0886   14.7522    0.3591 O   0  0  0  0  0  0  0  0  0  0  0  0
   25.2131   14.2991    0.9889 C   0  0  0  0  0  0  0  0  0  0  0  0
   25.2423   13.4712    2.3009 N   0  0  0  0  0  0  0  0  0  0  0  0
   26.3547   12.9511    3.0548 C   0  0  0  0  0  0  0  0  0  0  0  0
   27.6751   12.6824    2.3483 C   0  0  0  0  0  0  0  0  0  0  0  0
   27.7248   11.2421    1.2591 S   0  0  0  0  0  0  0  0  0  0  0  0
   26.4801   10.2191    1.6224 O   0  0  0  0  0  0  0  0  0  0  0  0
   27.3188   12.0720   -0.2949 C   0  0  0  0  0  0  0  0  0  0  0  0
   27.7053   11.2398   -1.4883 C   0  0  0  0  0  0  0  0  0  0  0  0
   29.0450   11.0846   -1.5827 F   0  0  0  0  0  0  0  0  0  0  0  0
   27.1443   10.0128   -1.4859 F   0  0  0  0  0  0  0  0  0  0  0  0
   27.3026   11.8512   -2.6308 F   0  0  0  0  0  0  0  0  0  0  0  0
   23.7515   14.4324    0.5099 C   0  0  1  0  0  0  0  0  0  0  0  0
   22.9858   13.1075    0.3719 C   0  0  0  0  0  0  0  0  0  0  0  0
   21.5207   13.3805    0.0044 C   0  0  0  0  0  0  0  0  0  0  0  0
   20.8343   14.1850    1.1096 C   0  0  0  0  0  0  0  0  0  0  0  0
   21.6275   15.3343    1.4910 N   0  0  0  0  0  0  0  0  0  0  0  0
   21.1652   16.5064    2.0073 C   0  0  0  0  0  0  0  0  0  0  0  0
   22.2900   17.2786    2.1755 C   0  0  0  0  0  0  0  0  0  0  0  0
   23.4075   16.6106    1.7495 N   0  0  0  0  0  0  0  0  0  0  0  0
   22.9861   15.4447    1.3069 C   0  0  0  0  0  0  0  0  0  0  0  0
  1  2  2  0
  2  3  1  0
  3  4  1  0
  4  5  1  0
  5  6  1  0
  6  7  1  1
  6  8  1  0
  8  9  1  0
  9 10  1  0
  9 11  1  0
  9 12  1  0
 13  2  1  1
 13 14  1  0
 14 15  1  0
 15 16  1  0
 16 17  1  0
 17 18  1  0
 18 19  2  0
 19 20  1  0
 20 21  2  0
 21 13  1  0
 21 17  1  0
M  CHG  2   6   1   7  -1
M  END
>  <energy_score>  (4723) 
-7.799054

>  <inchikey>  (4723) 
UFXIKSFMTJMSLB-UHFFFAOYSA-N

>  <smiles>  (4723) 
O=C(NCC[S+]([O-])CC(F)(F)F)C1CCCn2ccnc21

>  <ref_pdb>  (4723) 
A0528a

>  <alias>  (4723) 
UFXIKSFMTJMSLB-UHFFFAOYSA-N-P36-P36-P51-601511

>  <HIPPO Pose ID>  (4723) 
518532

>  <name>  (4723) 
UFXIKSFMTJMSLB-UHFFFAOYSA-N-P36-P36-P51-601511

>  <HIPPO Compound ID>  (4723) 
301942

>  <ref_mols>  (4723) 
A0239a,A0309a

>  <distance_score>  (4723) 
1.821795

>  <inspiration_score>  (4723) 
None

$$$$
UFXIKSFMTJMSLB-UHFFFAOYSA-N-P51-P36-P51-601511
     RDKit          3D

 21 22  0  0  0  0  0  0  0  0999 V2000
   26.2475   14.5308   -0.3291 O   0  0  0  0  0  0  0  0  0  0  0  0
   25.5319   14.2509    0.5537 C   0  0  0  0  0  0  0  0  0  0  0  0
   25.8496   13.6981    1.9689 N   0  0  0  0  0  0  0  0  0  0  0  0
   27.1118   13.4669    2.6200 C   0  0  0  0  0  0  0  0  0  0  0  0
   27.4875   12.0085    2.8690 C   0  0  0  0  0  0  0  0  0  0  0  0
   27.7143   10.9413    1.4231 S   0  0  0  0  0  0  0  0  0  0  0  0
   26.2559   10.7642    0.6689 O   0  0  0  0  0  0  0  0  0  0  0  0
   28.7729   12.0099    0.4234 C   0  0  0  0  0  0  0  0  0  0  0  0
   29.2696   11.2848   -0.8016 C   0  0  0  0  0  0  0  0  0  0  0  0
   29.8970   10.1298   -0.4845 F   0  0  0  0  0  0  0  0  0  0  0  0
   28.2912   10.9932   -1.6817 F   0  0  0  0  0  0  0  0  0  0  0  0
   30.1780   12.0505   -1.4569 F   0  0  0  0  0  0  0  0  0  0  0  0
   24.0051   14.3665    0.3715 C   0  0  1  0  0  0  0  0  0  0  0  0
   23.2548   13.0328    0.4306 C   0  0  0  0  0  0  0  0  0  0  0  0
   21.7674   13.2974    0.1427 C   0  0  0  0  0  0  0  0  0  0  0  0
   21.1469   14.1898    1.2201 C   0  0  0  0  0  0  0  0  0  0  0  0
   22.0161   15.2894    1.5823 N   0  0  0  0  0  0  0  0  0  0  0  0
   21.6576   16.4049    2.2751 C   0  0  0  0  0  0  0  0  0  0  0  0
   22.8215   17.1253    2.3951 C   0  0  0  0  0  0  0  0  0  0  0  0
   23.8633   16.4798    1.7788 N   0  0  0  0  0  0  0  0  0  0  0  0
   23.3570   15.3727    1.2791 C   0  0  0  0  0  0  0  0  0  0  0  0
  1  2  2  0
  2  3  1  0
  3  4  1  0
  4  5  1  0
  5  6  1  0
  6  7  1  6
  6  8  1  0
  8  9  1  0
  9 10  1  0
  9 11  1  0
  9 12  1  0
 13  2  1  1
 13 14  1  0
 14 15  1  0
 15 16  1  0
 16 17  1  0
 17 18  1  0
 18 19  2  0
 19 20  1  0
 20 21  2  0
 21 13  1  0
 21 17  1  0
M  CHG  2   6   1   7  -1
M  END
>  <energy_score>  (4724) 
-8.618298

>  <inchikey>  (4724) 
UFXIKSFMTJMSLB-UHFFFAOYSA-N

>  <smiles>  (4724) 
O=C(NCC[S+]([O-])CC(F)(F)F)C1CCCn2ccnc21

>  <ref_pdb>  (4724) 
A0528a

>  <alias>  (4724) 
UFXIKSFMTJMSLB-UHFFFAOYSA-N-P51-P36-P51-601511

>  <HIPPO Pose ID>  (4724) 
518533

>  <name>  (4724) 
UFXIKSFMTJMSLB-UHFFFAOYSA-N-P51-P36-P51-601511

>  <HIPPO Compound ID>  (4724) 
301942

>  <ref_mols>  (4724) 
A0239a,A0309a

>  <distance_score>  (4724) 
1.866045

>  <inspiration_score>  (4724) 
None

$$$$
JYDQHVBWLNGWED-UHFFFAOYSA-N-P36-P36-P51-601511
     RDKit          3D

 21 22  0  0  0  0  0  0  0  0999 V2000
   23.9514   13.0563    0.3704 O   0  0  0  0  0  0  0  0  0  0  0  0
   23.9305   13.5132    1.4491 C   0  0  0  0  0  0  0  0  0  0  0  0
   25.0768   13.6916    2.4936 N   0  0  0  0  0  0  0  0  0  0  0  0
   26.4969   13.4308    2.3843 C   0  0  0  0  0  0  0  0  0  0  0  0
   26.8385   12.0079    2.8176 C   0  0  0  0  0  0  0  0  0  0  0  0
   27.4316   10.9211    1.5068 S   0  0  0  0  0  0  0  0  0  0  0  0
   28.7082   11.6782    0.8034 O   0  0  0  0  0  0  0  0  0  0  0  0
   26.0709   11.0582    0.3388 C   0  0  0  0  0  0  0  0  0  0  0  0
   26.1957   10.0166   -0.7442 C   0  0  0  0  0  0  0  0  0  0  0  0
   26.3505    8.7716   -0.2326 F   0  0  0  0  0  0  0  0  0  0  0  0
   25.0716    9.9850   -1.5010 F   0  0  0  0  0  0  0  0  0  0  0  0
   27.2299   10.2425   -1.5807 F   0  0  0  0  0  0  0  0  0  0  0  0
   22.6153   13.9716    2.1341 C   0  0  2  0  0  0  0  0  0  0  0  0
   21.4890   13.3367    1.5000 O   0  0  0  0  0  0  0  0  0  0  0  0
   20.2338   13.8871    1.8949 C   0  0  0  0  0  0  0  0  0  0  0  0
   20.1031   15.2814    1.3277 C   0  0  0  0  0  0  0  0  0  0  0  0
   21.2939   16.0329    1.6539 N   0  0  0  0  0  0  0  0  0  0  0  0
   21.4345   17.3825    1.6850 C   0  0  0  0  0  0  0  0  0  0  0  0
   22.7380   17.5828    2.0733 C   0  0  0  0  0  0  0  0  0  0  0  0
   23.3707   16.3869    2.3012 N   0  0  0  0  0  0  0  0  0  0  0  0
   22.4863   15.4546    2.0071 C   0  0  0  0  0  0  0  0  0  0  0  0
  1  2  2  0
  2  3  1  0
  3  4  1  0
  4  5  1  0
  5  6  1  0
  6  7  1  6
  6  8  1  0
  8  9  1  0
  9 10  1  0
  9 11  1  0
  9 12  1  0
 13  2  1  6
 13 14  1  0
 14 15  1  0
 15 16  1  0
 16 17  1  0
 17 18  1  0
 18 19  2  0
 19 20  1  0
 20 21  2  0
 21 13  1  0
 21 17  1  0
M  CHG  2   6   1   7  -1
M  END
>  <energy_score>  (4725) 
-17.538272

>  <inchikey>  (4725) 
JYDQHVBWLNGWED-UHFFFAOYSA-N

>  <smiles>  (4725) 
O=C(NCC[S+]([O-])CC(F)(F)F)C1OCCn2ccnc21

>  <ref_pdb>  (4725) 
A0528a

>  <alias>  (4725) 
JYDQHVBWLNGWED-UHFFFAOYSA-N-P36-P36-P51-601511

>  <HIPPO Pose ID>  (4725) 
518534

>  <name>  (4725) 
JYDQHVBWLNGWED-UHFFFAOYSA-N-P36-P36-P51-601511

>  <HIPPO Compound ID>  (4725) 
301943

>  <ref_mols>  (4725) 
A0239a,A0309a

>  <distance_score>  (4725) 
1.767531

>  <inspiration_score>  (4725) 
None

$$$$
JYDQHVBWLNGWED-UHFFFAOYSA-N-P51-P36-P51-601511
     RDKit          3D

 21 22  0  0  0  0  0  0  0  0999 V2000
   25.5932   15.2344    0.8077 O   0  0  0  0  0  0  0  0  0  0  0  0
   24.8830   14.4976    1.3693 C   0  0  0  0  0  0  0  0  0  0  0  0
   24.9599   12.9556    1.5334 N   0  0  0  0  0  0  0  0  0  0  0  0
   25.9683   12.0273    1.1237 C   0  0  0  0  0  0  0  0  0  0  0  0
   27.1152   12.0535    2.1183 C   0  0  0  0  0  0  0  0  0  0  0  0
   28.4571   11.0016    1.5245 S   0  0  0  0  0  0  0  0  0  0  0  0
   27.8231    9.4721    1.4227 O   0  0  0  0  0  0  0  0  0  0  0  0
   29.4538   11.2199    3.0246 C   0  0  0  0  0  0  0  0  0  0  0  0
   30.7750   10.5139    2.9328 C   0  0  0  0  0  0  0  0  0  0  0  0
   30.6544    9.1910    2.7365 F   0  0  0  0  0  0  0  0  0  0  0  0
   31.5194   11.0523    1.9402 F   0  0  0  0  0  0  0  0  0  0  0  0
   31.4662   10.6986    4.0866 F   0  0  0  0  0  0  0  0  0  0  0  0
   23.6656   14.9312    2.2305 C   0  0  2  0  0  0  0  0  0  0  0  0
   22.8652   13.7898    2.6455 O   0  0  0  0  0  0  0  0  0  0  0  0
   21.6395   14.2341    3.2295 C   0  0  0  0  0  0  0  0  0  0  0  0
   20.7244   14.7034    2.1219 C   0  0  0  0  0  0  0  0  0  0  0  0
   21.4299   15.7731    1.4475 N   0  0  0  0  0  0  0  0  0  0  0  0
   20.8909   16.8757    0.8683 C   0  0  0  0  0  0  0  0  0  0  0  0
   21.9721   17.6775    0.5923 C   0  0  0  0  0  0  0  0  0  0  0  0
   23.1377   17.0900    1.0063 N   0  0  0  0  0  0  0  0  0  0  0  0
   22.7991   15.9165    1.4994 C   0  0  0  0  0  0  0  0  0  0  0  0
  1  2  2  0
  2  3  1  0
  3  4  1  0
  4  5  1  0
  5  6  1  0
  6  7  1  1
  6  8  1  0
  8  9  1  0
  9 10  1  0
  9 11  1  0
  9 12  1  0
 13  2  1  6
 13 14  1  0
 14 15  1  0
 15 16  1  0
 16 17  1  0
 17 18  1  0
 18 19  2  0
 19 20  1  0
 20 21  2  0
 21 13  1  0
 21 17  1  0
M  CHG  2   6   1   7  -1
M  END
>  <energy_score>  (4726) 
-18.307371

>  <inchikey>  (4726) 
JYDQHVBWLNGWED-UHFFFAOYSA-N

>  <smiles>  (4726) 
O=C(NCC[S+]([O-])CC(F)(F)F)C1OCCn2ccnc21

>  <ref_pdb>  (4726) 
A0528a

>  <alias>  (4726) 
JYDQHVBWLNGWED-UHFFFAOYSA-N-P51-P36-P51-601511

>  <HIPPO Pose ID>  (4726) 
518535

>  <name>  (4726) 
JYDQHVBWLNGWED-UHFFFAOYSA-N-P51-P36-P51-601511

>  <HIPPO Compound ID>  (4726) 
301943

>  <ref_mols>  (4726) 
A0239a,A0309a

>  <distance_score>  (4726) 
1.315291

>  <inspiration_score>  (4726) 
None

$$$$
OHLAPRWCDSTPRD-UHFFFAOYSA-N-P36-P36-P51-601511
     RDKit          3D

 21 21  0  0  0  0  0  0  0  0999 V2000
   24.4700   17.2643    2.2354 C   0  0  0  0  0  0  0  0  0  0  0  0
   23.1177   16.8531    1.9380 N   0  0  0  0  0  0  0  0  0  0  0  0
   22.0345   17.6867    2.0437 C   0  0  0  0  0  0  0  0  0  0  0  0
   20.9483   16.9177    1.7182 C   0  0  0  0  0  0  0  0  0  0  0  0
   21.3335   15.6433    1.4252 N   0  0  0  0  0  0  0  0  0  0  0  0
   22.6569   15.6230    1.5156 C   0  0  0  0  0  0  0  0  0  0  0  0
   23.5090   14.3812    1.2939 C   0  0  0  0  0  0  0  0  0  0  0  0
   23.8121   13.8075    2.6858 C   0  0  0  0  0  0  0  0  0  0  0  0
   22.6855   13.3560    0.4886 C   0  0  0  0  0  0  0  0  0  0  0  0
   24.7631   14.7340    0.4031 C   0  0  0  0  0  0  0  0  0  0  0  0
   24.8189   15.7198   -0.2226 O   0  0  0  0  0  0  0  0  0  0  0  0
   25.7400   13.5293    0.4704 N   0  0  0  0  0  0  0  0  0  0  0  0
   27.0206   13.3354   -0.1408 C   0  0  0  0  0  0  0  0  0  0  0  0
   28.2386   13.2507    0.7770 C   0  0  0  0  0  0  0  0  0  0  0  0
   28.0839   12.7970    2.5034 S   0  0  0  0  0  0  0  0  0  0  0  0
   26.7423   13.4764    3.1616 O   0  0  0  0  0  0  0  0  0  0  0  0
   27.9156   11.0243    2.4538 C   0  0  0  0  0  0  0  0  0  0  0  0
   26.8336   10.4998    1.5666 C   0  0  0  0  0  0  0  0  0  0  0  0
   26.6437    9.1749    1.7576 F   0  0  0  0  0  0  0  0  0  0  0  0
   27.1713   10.6353    0.2665 F   0  0  0  0  0  0  0  0  0  0  0  0
   25.6563   11.1221    1.7423 F   0  0  0  0  0  0  0  0  0  0  0  0
  1  2  1  0
  2  3  1  0
  3  4  2  0
  4  5  1  0
  5  6  2  0
  6  7  1  0
  7  8  1  0
  7  9  1  0
  7 10  1  0
 10 11  2  0
 10 12  1  0
 12 13  1  0
 13 14  1  0
 14 15  1  0
 15 16  1  6
 15 17  1  0
 17 18  1  0
 18 19  1  0
 18 20  1  0
 18 21  1  0
  6  2  1  0
M  CHG  2  15   1  16  -1
M  END
>  <energy_score>  (4727) 
-15.397388

>  <inchikey>  (4727) 
OHLAPRWCDSTPRD-UHFFFAOYSA-N

>  <smiles>  (4727) 
Cn1ccnc1C(C)(C)C(=O)NCC[S+]([O-])CC(F)(F)F

>  <ref_pdb>  (4727) 
A0528a

>  <alias>  (4727) 
OHLAPRWCDSTPRD-UHFFFAOYSA-N-P36-P36-P51-601511

>  <HIPPO Pose ID>  (4727) 
518536

>  <name>  (4727) 
OHLAPRWCDSTPRD-UHFFFAOYSA-N-P36-P36-P51-601511

>  <HIPPO Compound ID>  (4727) 
301944

>  <ref_mols>  (4727) 
A0239a,A0309a

>  <distance_score>  (4727) 
1.732669

>  <inspiration_score>  (4727) 
None

$$$$
OHLAPRWCDSTPRD-UHFFFAOYSA-N-P51-P36-P51-601511
     RDKit          3D

 21 21  0  0  0  0  0  0  0  0999 V2000
   24.4810   17.5273    1.3300 C   0  0  0  0  0  0  0  0  0  0  0  0
   23.3068   16.7891    1.7268 N   0  0  0  0  0  0  0  0  0  0  0  0
   22.1824   17.3748    2.2467 C   0  0  0  0  0  0  0  0  0  0  0  0
   21.2882   16.3530    2.4258 C   0  0  0  0  0  0  0  0  0  0  0  0
   21.8428   15.1636    2.0599 N   0  0  0  0  0  0  0  0  0  0  0  0
   23.0573   15.4384    1.6054 C   0  0  0  0  0  0  0  0  0  0  0  0
   23.9122   14.4108    0.9020 C   0  0  0  0  0  0  0  0  0  0  0  0
   23.7704   13.0394    1.5672 C   0  0  0  0  0  0  0  0  0  0  0  0
   23.3576   14.2774   -0.5300 C   0  0  0  0  0  0  0  0  0  0  0  0
   25.4229   14.7425    0.8711 C   0  0  0  0  0  0  0  0  0  0  0  0
   25.9962   14.9103   -0.1332 O   0  0  0  0  0  0  0  0  0  0  0  0
   25.9478   14.6899    2.3329 N   0  0  0  0  0  0  0  0  0  0  0  0
   27.2936   14.7379    2.8459 C   0  0  0  0  0  0  0  0  0  0  0  0
   27.8689   13.3280    2.9283 C   0  0  0  0  0  0  0  0  0  0  0  0
   28.4483   12.7471    1.3204 S   0  0  0  0  0  0  0  0  0  0  0  0
   30.0437   13.1872    1.1898 O   0  0  0  0  0  0  0  0  0  0  0  0
   28.3996   10.9810    1.6723 C   0  0  0  0  0  0  0  0  0  0  0  0
   27.0060   10.4664    1.4564 C   0  0  0  0  0  0  0  0  0  0  0  0
   26.9919    9.1147    1.5578 F   0  0  0  0  0  0  0  0  0  0  0  0
   26.5334   10.7837    0.2316 F   0  0  0  0  0  0  0  0  0  0  0  0
   26.1373   10.9600    2.3577 F   0  0  0  0  0  0  0  0  0  0  0  0
  1  2  1  0
  2  3  1  0
  3  4  2  0
  4  5  1  0
  5  6  2  0
  6  7  1  0
  7  8  1  0
  7  9  1  0
  7 10  1  0
 10 11  2  0
 10 12  1  0
 12 13  1  0
 13 14  1  0
 14 15  1  0
 15 16  1  1
 15 17  1  0
 17 18  1  0
 18 19  1  0
 18 20  1  0
 18 21  1  0
  6  2  1  0
M  CHG  2  15   1  16  -1
M  END
>  <energy_score>  (4728) 
-30.264557

>  <inchikey>  (4728) 
OHLAPRWCDSTPRD-UHFFFAOYSA-N

>  <smiles>  (4728) 
Cn1ccnc1C(C)(C)C(=O)NCC[S+]([O-])CC(F)(F)F

>  <ref_pdb>  (4728) 
A0528a

>  <alias>  (4728) 
OHLAPRWCDSTPRD-UHFFFAOYSA-N-P51-P36-P51-601511

>  <HIPPO Pose ID>  (4728) 
518537

>  <name>  (4728) 
OHLAPRWCDSTPRD-UHFFFAOYSA-N-P51-P36-P51-601511

>  <HIPPO Compound ID>  (4728) 
301944

>  <ref_mols>  (4728) 
A0239a,A0309a

>  <distance_score>  (4728) 
1.957149

>  <inspiration_score>  (4728) 
None

$$$$
BQQUMOBZCJEWMK-UHFFFAOYSA-N-P36-P36-P51-601511
     RDKit          3D

 21 22  0  0  0  0  0  0  0  0999 V2000
   19.0717   16.6613    1.4775 C   0  0  0  0  0  0  0  0  0  0  0  0
   20.5310   16.4885    1.6462 C   0  0  0  0  0  0  0  0  0  0  0  0
   21.4948   17.4515    1.9151 C   0  0  0  0  0  0  0  0  0  0  0  0
   22.6391   16.7509    1.9416 N   0  0  0  0  0  0  0  0  0  0  0  0
   22.3763   15.4390    1.7012 C   0  0  0  0  0  0  0  0  0  0  0  0
   21.0942   15.2244    1.5545 N   0  0  0  0  0  0  0  0  0  0  0  0
   23.6059   14.6319    1.8045 C   0  0  1  0  0  0  0  0  0  0  0  0
   24.2512   14.3984    0.4304 C   0  0  0  0  0  0  0  0  0  0  0  0
   23.8997   14.8625   -0.5797 O   0  0  0  0  0  0  0  0  0  0  0  0
   25.4775   13.5104    0.7531 N   0  0  0  0  0  0  0  0  0  0  0  0
   26.5630   13.0941   -0.0735 C   0  0  0  0  0  0  0  0  0  0  0  0
   27.9066   13.0839    0.6571 C   0  0  0  0  0  0  0  0  0  0  0  0
   27.9353   12.6926    2.4252 S   0  0  0  0  0  0  0  0  0  0  0  0
   26.5470   13.2174    3.1534 O   0  0  0  0  0  0  0  0  0  0  0  0
   27.9229   10.9100    2.4112 C   0  0  0  0  0  0  0  0  0  0  0  0
   26.8993   10.2720    1.5235 C   0  0  0  0  0  0  0  0  0  0  0  0
   26.7970    8.9440    1.7596 F   0  0  0  0  0  0  0  0  0  0  0  0
   27.2671   10.3706    0.2241 F   0  0  0  0  0  0  0  0  0  0  0  0
   25.6808   10.8145    1.6660 F   0  0  0  0  0  0  0  0  0  0  0  0
   24.5216   15.5923    2.6237 C   0  0  0  0  0  0  0  0  0  0  0  0
   24.0210   17.0075    2.2826 C   0  0  0  0  0  0  0  0  0  0  0  0
  1  2  1  0
  2  3  2  0
  3  4  1  0
  4  5  1  0
  5  6  2  0
  5  7  1  0
  7  8  1  6
  8  9  2  0
  8 10  1  0
 10 11  1  0
 11 12  1  0
 12 13  1  0
 13 14  1  1
 13 15  1  0
 15 16  1  0
 16 17  1  0
 16 18  1  0
 16 19  1  0
  7 20  1  0
 20 21  1  0
  6  2  1  0
 21  4  1  0
M  CHG  2  13   1  14  -1
M  END
>  <energy_score>  (4729) 
-17.813923

>  <inchikey>  (4729) 
BQQUMOBZCJEWMK-UHFFFAOYSA-N

>  <smiles>  (4729) 
Cc1cn2c(n1)C(C(=O)NCC[S+]([O-])CC(F)(F)F)CC2

>  <ref_pdb>  (4729) 
A0528a

>  <alias>  (4729) 
BQQUMOBZCJEWMK-UHFFFAOYSA-N-P36-P36-P51-601511

>  <HIPPO Pose ID>  (4729) 
518540

>  <name>  (4729) 
BQQUMOBZCJEWMK-UHFFFAOYSA-N-P36-P36-P51-601511

>  <HIPPO Compound ID>  (4729) 
301946

>  <ref_mols>  (4729) 
A0239a,A0309a

>  <distance_score>  (4729) 
1.615192

>  <inspiration_score>  (4729) 
None

$$$$
BQQUMOBZCJEWMK-UHFFFAOYSA-N-P51-P36-P51-601511
     RDKit          3D

 21 22  0  0  0  0  0  0  0  0999 V2000
   19.1335   16.6633    1.8402 C   0  0  0  0  0  0  0  0  0  0  0  0
   20.5813   16.3998    1.9875 C   0  0  0  0  0  0  0  0  0  0  0  0
   21.6123   17.3063    2.2013 C   0  0  0  0  0  0  0  0  0  0  0  0
   22.7068   16.5313    2.2416 N   0  0  0  0  0  0  0  0  0  0  0  0
   22.3534   15.2339    2.0429 C   0  0  0  0  0  0  0  0  0  0  0  0
   21.0585   15.0985    1.9220 N   0  0  0  0  0  0  0  0  0  0  0  0
   23.5374   14.3551    2.0797 C   0  0  1  0  0  0  0  0  0  0  0  0
   24.0531   14.0816    0.6609 C   0  0  0  0  0  0  0  0  0  0  0  0
   23.6115   14.5382   -0.3164 O   0  0  0  0  0  0  0  0  0  0  0  0
   25.2960   13.1865    0.8761 N   0  0  0  0  0  0  0  0  0  0  0  0
   26.1861   12.5983   -0.0666 C   0  0  0  0  0  0  0  0  0  0  0  0
   27.6357   12.8910    0.2923 C   0  0  0  0  0  0  0  0  0  0  0  0
   28.1621   12.5124    1.9867 S   0  0  0  0  0  0  0  0  0  0  0  0
   26.8798   12.6274    3.0231 O   0  0  0  0  0  0  0  0  0  0  0  0
   28.6386   10.7968    1.7712 C   0  0  0  0  0  0  0  0  0  0  0  0
   27.5295    9.9150    1.2783 C   0  0  0  0  0  0  0  0  0  0  0  0
   27.8058    8.6088    1.5318 F   0  0  0  0  0  0  0  0  0  0  0  0
   27.4249   10.0014   -0.0698 F   0  0  0  0  0  0  0  0  0  0  0  0
   26.3378   10.1992    1.8243 F   0  0  0  0  0  0  0  0  0  0  0  0
   24.5622   15.2696    2.8193 C   0  0  0  0  0  0  0  0  0  0  0  0
   24.1195   16.7106    2.4953 C   0  0  0  0  0  0  0  0  0  0  0  0
  1  2  1  0
  2  3  2  0
  3  4  1  0
  4  5  1  0
  5  6  2  0
  5  7  1  0
  7  8  1  6
  8  9  2  0
  8 10  1  0
 10 11  1  0
 11 12  1  0
 12 13  1  0
 13 14  1  1
 13 15  1  0
 15 16  1  0
 16 17  1  0
 16 18  1  0
 16 19  1  0
  7 20  1  0
 20 21  1  0
  6  2  1  0
 21  4  1  0
M  CHG  2  13   1  14  -1
M  END
>  <energy_score>  (4730) 
-21.19613

>  <inchikey>  (4730) 
BQQUMOBZCJEWMK-UHFFFAOYSA-N

>  <smiles>  (4730) 
Cc1cn2c(n1)C(C(=O)NCC[S+]([O-])CC(F)(F)F)CC2

>  <ref_pdb>  (4730) 
A0528a

>  <alias>  (4730) 
BQQUMOBZCJEWMK-UHFFFAOYSA-N-P51-P36-P51-601511

>  <HIPPO Pose ID>  (4730) 
518541

>  <name>  (4730) 
BQQUMOBZCJEWMK-UHFFFAOYSA-N-P51-P36-P51-601511

>  <HIPPO Compound ID>  (4730) 
301946

>  <ref_mols>  (4730) 
A0239a,A0309a

>  <distance_score>  (4730) 
1.493608

>  <inspiration_score>  (4730) 
None

$$$$
UTJUVTFJLDXFRR-UHFFFAOYSA-N-P51-P36-P51-601511
     RDKit          3D

 21 22  0  0  0  0  0  0  0  0999 V2000
   21.7750   18.5795    0.4474 C   0  0  0  0  0  0  0  0  0  0  0  0
   21.6709   17.2520    1.0837 C   0  0  0  0  0  0  0  0  0  0  0  0
   20.6140   16.3653    1.2347 C   0  0  0  0  0  0  0  0  0  0  0  0
   20.9802   15.2375    1.9443 N   0  0  0  0  0  0  0  0  0  0  0  0
   22.2537   15.4202    2.1758 C   0  0  0  0  0  0  0  0  0  0  0  0
   22.6964   16.6061    1.6751 N   0  0  0  0  0  0  0  0  0  0  0  0
   24.0610   16.9122    2.0498 C   0  0  0  0  0  0  0  0  0  0  0  0
   24.2740   15.9494    3.2344 C   0  0  0  0  0  0  0  0  0  0  0  0
   23.2999   14.7599    2.9735 C   0  0  2  0  0  0  0  0  0  0  0  0
   24.0717   13.7244    2.1755 C   0  0  0  0  0  0  0  0  0  0  0  0
   23.9925   13.5751    1.0213 O   0  0  0  0  0  0  0  0  0  0  0  0
   25.0036   13.0455    3.2158 N   0  0  0  0  0  0  0  0  0  0  0  0
   26.0790   12.1258    3.0343 C   0  0  0  0  0  0  0  0  0  0  0  0
   27.1607   12.7998    2.2109 C   0  0  0  0  0  0  0  0  0  0  0  0
   28.6682   11.8434    2.0311 S   0  0  0  0  0  0  0  0  0  0  0  0
   29.3199   11.5984    3.5316 O   0  0  0  0  0  0  0  0  0  0  0  0
   27.9639   10.3014    1.4417 C   0  0  0  0  0  0  0  0  0  0  0  0
   27.1951   10.4393    0.1641 C   0  0  0  0  0  0  0  0  0  0  0  0
   26.9303    9.2114   -0.3439 F   0  0  0  0  0  0  0  0  0  0  0  0
   27.8806   11.1235   -0.7738 F   0  0  0  0  0  0  0  0  0  0  0  0
   26.0153   11.0533    0.3698 F   0  0  0  0  0  0  0  0  0  0  0  0
  1  2  1  0
  2  3  2  0
  3  4  1  0
  4  5  2  0
  5  6  1  0
  6  7  1  0
  7  8  1  0
  8  9  1  0
  9 10  1  6
 10 11  2  0
 10 12  1  0
 12 13  1  0
 13 14  1  0
 14 15  1  0
 15 16  1  1
 15 17  1  0
 17 18  1  0
 18 19  1  0
 18 20  1  0
 18 21  1  0
  6  2  1  0
  9  5  1  0
M  CHG  2  15   1  16  -1
M  END
>  <energy_score>  (4731) 
-6.264531

>  <inchikey>  (4731) 
UTJUVTFJLDXFRR-UHFFFAOYSA-N

>  <smiles>  (4731) 
Cc1cnc2n1CCC2C(=O)NCC[S+]([O-])CC(F)(F)F

>  <ref_pdb>  (4731) 
A0528a

>  <alias>  (4731) 
UTJUVTFJLDXFRR-UHFFFAOYSA-N-P51-P36-P51-601511

>  <HIPPO Pose ID>  (4731) 
518543

>  <name>  (4731) 
UTJUVTFJLDXFRR-UHFFFAOYSA-N-P51-P36-P51-601511

>  <HIPPO Compound ID>  (4731) 
301947

>  <ref_mols>  (4731) 
A0239a,A0309a

>  <distance_score>  (4731) 
1.320661

>  <inspiration_score>  (4731) 
None

$$$$
DUIMDQLGTMSRNI-UHFFFAOYSA-N-P36-P36-P51-601511
     RDKit          3D

 22 23  0  0  0  0  0  0  0  0999 V2000
   20.4006   18.3760    1.3618 C   0  0  0  0  0  0  0  0  0  0  0  0
   21.4527   17.3924    1.7013 C   0  0  0  0  0  0  0  0  0  0  0  0
   22.7660   17.5645    2.0823 C   0  0  0  0  0  0  0  0  0  0  0  0
   23.3808   16.3597    2.3014 N   0  0  0  0  0  0  0  0  0  0  0  0
   22.4814   15.4423    2.0109 C   0  0  0  0  0  0  0  0  0  0  0  0
   21.2896   16.0367    1.6749 N   0  0  0  0  0  0  0  0  0  0  0  0
   20.0908   15.2898    1.3601 C   0  0  0  0  0  0  0  0  0  0  0  0
   20.2197   13.8895    1.9120 C   0  0  0  0  0  0  0  0  0  0  0  0
   21.4660   13.3351    1.4976 O   0  0  0  0  0  0  0  0  0  0  0  0
   22.5996   13.9573    2.1308 C   0  0  1  0  0  0  0  0  0  0  0  0
   23.9118   13.4872    1.4463 C   0  0  0  0  0  0  0  0  0  0  0  0
   23.9250   12.9985    0.3813 O   0  0  0  0  0  0  0  0  0  0  0  0
   25.0675   13.7041    2.4737 N   0  0  0  0  0  0  0  0  0  0  0  0
   26.4887   13.4494    2.3576 C   0  0  0  0  0  0  0  0  0  0  0  0
   26.8462   12.0367    2.8122 C   0  0  0  0  0  0  0  0  0  0  0  0
   27.4485   10.9381    1.5143 S   0  0  0  0  0  0  0  0  0  0  0  0
   28.7073   11.7024    0.7871 O   0  0  0  0  0  0  0  0  0  0  0  0
   26.0777   11.0414    0.3554 C   0  0  0  0  0  0  0  0  0  0  0  0
   26.2066    9.9868   -0.7137 C   0  0  0  0  0  0  0  0  0  0  0  0
   27.2243   10.2156   -1.5685 F   0  0  0  0  0  0  0  0  0  0  0  0
   26.3839    8.7514   -0.1879 F   0  0  0  0  0  0  0  0  0  0  0  0
   25.0726    9.9242   -1.4566 F   0  0  0  0  0  0  0  0  0  0  0  0
  1  2  1  0
  2  3  2  0
  3  4  1  0
  4  5  2  0
  5  6  1  0
  6  7  1  0
  7  8  1  0
  8  9  1  0
  9 10  1  0
 10 11  1  6
 11 12  2  0
 11 13  1  0
 13 14  1  0
 14 15  1  0
 15 16  1  0
 16 17  1  6
 16 18  1  0
 18 19  1  0
 19 20  1  0
 19 21  1  0
 19 22  1  0
  6  2  1  0
 10  5  1  0
M  CHG  2  16   1  17  -1
M  END
>  <energy_score>  (4732) 
-8.471906

>  <inchikey>  (4732) 
DUIMDQLGTMSRNI-UHFFFAOYSA-N

>  <smiles>  (4732) 
Cc1cnc2n1CCOC2C(=O)NCC[S+]([O-])CC(F)(F)F

>  <ref_pdb>  (4732) 
A0528a

>  <alias>  (4732) 
DUIMDQLGTMSRNI-UHFFFAOYSA-N-P36-P36-P51-601511

>  <HIPPO Pose ID>  (4732) 
518544

>  <name>  (4732) 
DUIMDQLGTMSRNI-UHFFFAOYSA-N-P36-P36-P51-601511

>  <HIPPO Compound ID>  (4732) 
301948

>  <ref_mols>  (4732) 
A0239a,A0309a

>  <distance_score>  (4732) 
1.679199

>  <inspiration_score>  (4732) 
None

$$$$
DUIMDQLGTMSRNI-UHFFFAOYSA-N-P51-P36-P51-601511
     RDKit          3D

 22 23  0  0  0  0  0  0  0  0999 V2000
   20.1625   17.4652    0.6986 C   0  0  0  0  0  0  0  0  0  0  0  0
   21.3252   16.9756    1.4702 C   0  0  0  0  0  0  0  0  0  0  0  0
   22.2259   17.6371    2.2761 C   0  0  0  0  0  0  0  0  0  0  0  0
   23.1442   16.7717    2.8097 N   0  0  0  0  0  0  0  0  0  0  0  0
   22.8545   15.5852    2.3169 C   0  0  0  0  0  0  0  0  0  0  0  0
   21.7530   15.6788    1.4975 N   0  0  0  0  0  0  0  0  0  0  0  0
   21.2114   14.5374    0.7924 C   0  0  0  0  0  0  0  0  0  0  0  0
   22.3235   13.5137    0.6612 C   0  0  0  0  0  0  0  0  0  0  0  0
   22.7741   13.1922    1.9780 O   0  0  0  0  0  0  0  0  0  0  0  0
   23.4875   14.2637    2.6291 C   0  0  1  0  0  0  0  0  0  0  0  0
   24.9933   14.1452    2.2722 C   0  0  0  0  0  0  0  0  0  0  0  0
   25.6276   14.9606    1.7222 O   0  0  0  0  0  0  0  0  0  0  0  0
   25.3985   12.7223    2.7881 N   0  0  0  0  0  0  0  0  0  0  0  0
   26.6819   12.0669    2.8122 C   0  0  0  0  0  0  0  0  0  0  0  0
   27.4008   12.1484    1.4824 C   0  0  0  0  0  0  0  0  0  0  0  0
   28.4459   10.7192    1.1194 S   0  0  0  0  0  0  0  0  0  0  0  0
   27.5173    9.3600    1.3216 O   0  0  0  0  0  0  0  0  0  0  0  0
   29.6551   10.8508    2.4615 C   0  0  0  0  0  0  0  0  0  0  0  0
   30.6619   11.9414    2.2017 C   0  0  0  0  0  0  0  0  0  0  0  0
   31.6686   11.8930    3.1028 F   0  0  0  0  0  0  0  0  0  0  0  0
   31.2083   11.8551    0.9701 F   0  0  0  0  0  0  0  0  0  0  0  0
   30.0970   13.1650    2.3114 F   0  0  0  0  0  0  0  0  0  0  0  0
  1  2  1  0
  2  3  2  0
  3  4  1  0
  4  5  2  0
  5  6  1  0
  6  7  1  0
  7  8  1  0
  8  9  1  0
  9 10  1  0
 10 11  1  6
 11 12  2  0
 11 13  1  0
 13 14  1  0
 14 15  1  0
 15 16  1  0
 16 17  1  1
 16 18  1  0
 18 19  1  0
 19 20  1  0
 19 21  1  0
 19 22  1  0
  6  2  1  0
 10  5  1  0
M  CHG  2  16   1  17  -1
M  END
>  <energy_score>  (4733) 
-8.214698

>  <inchikey>  (4733) 
DUIMDQLGTMSRNI-UHFFFAOYSA-N

>  <smiles>  (4733) 
Cc1cnc2n1CCOC2C(=O)NCC[S+]([O-])CC(F)(F)F

>  <ref_pdb>  (4733) 
A0528a

>  <alias>  (4733) 
DUIMDQLGTMSRNI-UHFFFAOYSA-N-P51-P36-P51-601511

>  <HIPPO Pose ID>  (4733) 
518545

>  <name>  (4733) 
DUIMDQLGTMSRNI-UHFFFAOYSA-N-P51-P36-P51-601511

>  <HIPPO Compound ID>  (4733) 
301948

>  <ref_mols>  (4733) 
A0239a,A0309a

>  <distance_score>  (4733) 
1.673108

>  <inspiration_score>  (4733) 
None

$$$$
PXDRKMGFYYPKSI-UHFFFAOYSA-N-P36-P36-P51-601511
     RDKit          3D

 22 23  0  0  0  0  0  0  0  0999 V2000
   25.3391   13.9368   -0.0506 O   0  0  0  0  0  0  0  0  0  0  0  0
   24.8701   13.7690    1.0070 C   0  0  0  0  0  0  0  0  0  0  0  0
   25.5494   13.6061    2.3951 N   0  0  0  0  0  0  0  0  0  0  0  0
   26.9261   13.7105    2.7741 C   0  0  0  0  0  0  0  0  0  0  0  0
   27.5774   12.3775    3.1102 C   0  0  0  0  0  0  0  0  0  0  0  0
   28.0940   11.3080    1.7661 S   0  0  0  0  0  0  0  0  0  0  0  0
   26.7756   10.7933    0.9080 O   0  0  0  0  0  0  0  0  0  0  0  0
   29.0754   12.4493    0.7660 C   0  0  0  0  0  0  0  0  0  0  0  0
   30.1853   13.1320    1.5338 C   0  0  0  0  0  0  0  0  0  0  0  0
   29.7328   14.2563    2.1408 F   0  0  0  0  0  0  0  0  0  0  0  0
   30.7267   12.3687    2.5035 F   0  0  0  0  0  0  0  0  0  0  0  0
   31.1806   13.5182    0.7017 F   0  0  0  0  0  0  0  0  0  0  0  0
   23.3533   13.6399    1.2480 C   0  0  2  0  0  0  0  0  0  0  0  0
   22.6491   13.0618    0.0077 C   0  0  0  0  0  0  0  0  0  0  0  0
   21.1329   13.3369   -0.0900 C   0  0  0  0  0  0  0  0  0  0  0  0
   20.5305   14.0535    1.1172 C   0  0  0  0  0  0  0  0  0  0  0  0
   21.3979   15.1286    1.5332 N   0  0  0  0  0  0  0  0  0  0  0  0
   21.0928   16.4102    1.8550 C   0  0  0  0  0  0  0  0  0  0  0  0
   19.3810   17.2062    1.9749 Br  0  0  0  0  0  0  0  0  0  0  0  0
   22.3049   17.0130    2.0890 C   0  0  0  0  0  0  0  0  0  0  0  0
   23.3327   16.1076    1.9472 N   0  0  0  0  0  0  0  0  0  0  0  0
   22.7624   14.9763    1.5873 C   0  0  0  0  0  0  0  0  0  0  0  0
  1  2  2  0
  2  3  1  0
  3  4  1  0
  4  5  1  0
  5  6  1  0
  6  7  1  6
  6  8  1  0
  8  9  1  0
  9 10  1  0
  9 11  1  0
  9 12  1  0
 13  2  1  6
 13 14  1  0
 14 15  1  0
 15 16  1  0
 16 17  1  0
 17 18  1  0
 18 19  1  0
 18 20  2  0
 20 21  1  0
 21 22  2  0
 22 13  1  0
 22 17  1  0
M  CHG  2   6   1   7  -1
M  END
>  <energy_score>  (4734) 
-19.528655

>  <inchikey>  (4734) 
PXDRKMGFYYPKSI-UHFFFAOYSA-N

>  <smiles>  (4734) 
O=C(NCC[S+]([O-])CC(F)(F)F)C1CCCn2c(Br)cnc21

>  <ref_pdb>  (4734) 
A0528a

>  <alias>  (4734) 
PXDRKMGFYYPKSI-UHFFFAOYSA-N-P36-P36-P51-601511

>  <HIPPO Pose ID>  (4734) 
518546

>  <name>  (4734) 
PXDRKMGFYYPKSI-UHFFFAOYSA-N-P36-P36-P51-601511

>  <HIPPO Compound ID>  (4734) 
301949

>  <ref_mols>  (4734) 
A0239a,A0309a

>  <distance_score>  (4734) 
1.428838

>  <inspiration_score>  (4734) 
None

$$$$
PXDRKMGFYYPKSI-UHFFFAOYSA-N-P51-P36-P51-601511
     RDKit          3D

 22 23  0  0  0  0  0  0  0  0999 V2000
   25.8941   15.4558    0.9956 O   0  0  0  0  0  0  0  0  0  0  0  0
   25.5858   14.5998    1.7313 C   0  0  0  0  0  0  0  0  0  0  0  0
   26.4651   13.5638    2.5035 N   0  0  0  0  0  0  0  0  0  0  0  0
   27.8945   13.4387    2.5964 C   0  0  0  0  0  0  0  0  0  0  0  0
   28.3895   12.0020    2.7029 C   0  0  0  0  0  0  0  0  0  0  0  0
   28.0148   10.9002    1.3122 S   0  0  0  0  0  0  0  0  0  0  0  0
   26.3766   10.6815    1.2401 O   0  0  0  0  0  0  0  0  0  0  0  0
   28.4874   11.9286   -0.0984 C   0  0  0  0  0  0  0  0  0  0  0  0
   29.9789   12.0631   -0.2325 C   0  0  0  0  0  0  0  0  0  0  0  0
   30.5294   12.6897    0.8277 F   0  0  0  0  0  0  0  0  0  0  0  0
   30.5736   10.8592   -0.3710 F   0  0  0  0  0  0  0  0  0  0  0  0
   30.2882   12.7884   -1.3326 F   0  0  0  0  0  0  0  0  0  0  0  0
   24.1236   14.2159    2.0411 C   0  0  2  0  0  0  0  0  0  0  0  0
   23.6944   13.1100    1.0622 C   0  0  0  0  0  0  0  0  0  0  0  0
   22.4538   13.4183    0.2171 C   0  0  0  0  0  0  0  0  0  0  0  0
   21.3551   14.0989    1.0262 C   0  0  0  0  0  0  0  0  0  0  0  0
   21.8852   15.2819    1.6594 N   0  0  0  0  0  0  0  0  0  0  0  0
   21.2434   16.4457    1.9454 C   0  0  0  0  0  0  0  0  0  0  0  0
   19.4091   16.8640    1.7352 Br  0  0  0  0  0  0  0  0  0  0  0  0
   22.2167   17.2703    2.4493 C   0  0  0  0  0  0  0  0  0  0  0  0
   23.4129   16.6023    2.5470 N   0  0  0  0  0  0  0  0  0  0  0  0
   23.1960   15.3957    2.0628 C   0  0  0  0  0  0  0  0  0  0  0  0
  1  2  2  0
  2  3  1  0
  3  4  1  0
  4  5  1  0
  5  6  1  0
  6  7  1  6
  6  8  1  0
  8  9  1  0
  9 10  1  0
  9 11  1  0
  9 12  1  0
 13  2  1  6
 13 14  1  0
 14 15  1  0
 15 16  1  0
 16 17  1  0
 17 18  1  0
 18 19  1  0
 18 20  2  0
 20 21  1  0
 21 22  2  0
 22 13  1  0
 22 17  1  0
M  CHG  2   6   1   7  -1
M  END
>  <energy_score>  (4735) 
-23.524449

>  <inchikey>  (4735) 
PXDRKMGFYYPKSI-UHFFFAOYSA-N

>  <smiles>  (4735) 
O=C(NCC[S+]([O-])CC(F)(F)F)C1CCCn2c(Br)cnc21

>  <ref_pdb>  (4735) 
A0528a

>  <alias>  (4735) 
PXDRKMGFYYPKSI-UHFFFAOYSA-N-P51-P36-P51-601511

>  <HIPPO Pose ID>  (4735) 
518547

>  <name>  (4735) 
PXDRKMGFYYPKSI-UHFFFAOYSA-N-P51-P36-P51-601511

>  <HIPPO Compound ID>  (4735) 
301949

>  <ref_mols>  (4735) 
A0239a,A0309a

>  <distance_score>  (4735) 
1.531829

>  <inspiration_score>  (4735) 
None

$$$$
QADPRVGEUYSBIC-UHFFFAOYSA-N-P51-P36-P51-601511
     RDKit          3D

 22 23  0  0  0  0  0  0  0  0999 V2000
   20.0714   17.2517    1.7798 C   0  0  0  0  0  0  0  0  0  0  0  0
   21.4020   16.6266    1.9318 C   0  0  0  0  0  0  0  0  0  0  0  0
   22.6096   17.1490    2.3475 C   0  0  0  0  0  0  0  0  0  0  0  0
   23.5946   16.1942    2.3455 N   0  0  0  0  0  0  0  0  0  0  0  0
   23.0252   15.0979    1.9016 C   0  0  0  0  0  0  0  0  0  0  0  0
   21.6906   15.3213    1.6552 N   0  0  0  0  0  0  0  0  0  0  0  0
   20.8283   14.2720    1.1608 C   0  0  0  0  0  0  0  0  0  0  0  0
   21.5447   13.4511    0.0853 C   0  0  0  0  0  0  0  0  0  0  0  0
   23.0319   13.1464    0.3733 C   0  0  0  0  0  0  0  0  0  0  0  0
   23.5716   13.7205    1.6912 C   0  0  1  0  0  0  0  0  0  0  0  0
   25.1160   13.6778    1.6650 C   0  0  0  0  0  0  0  0  0  0  0  0
   25.7645   14.3556    0.9659 O   0  0  0  0  0  0  0  0  0  0  0  0
   25.5405   12.5482    2.6539 N   0  0  0  0  0  0  0  0  0  0  0  0
   26.8492   12.0945    3.0487 C   0  0  0  0  0  0  0  0  0  0  0  0
   27.8800   11.9323    1.9543 C   0  0  0  0  0  0  0  0  0  0  0  0
   27.3682   10.7380    0.7003 S   0  0  0  0  0  0  0  0  0  0  0  0
   27.2850    9.2405    1.3943 O   0  0  0  0  0  0  0  0  0  0  0  0
   28.8982   10.8311   -0.2659 C   0  0  0  0  0  0  0  0  0  0  0  0
   28.7473   10.1164   -1.5829 C   0  0  0  0  0  0  0  0  0  0  0  0
   28.5056    8.7969   -1.4465 F   0  0  0  0  0  0  0  0  0  0  0  0
   29.8927   10.2336   -2.3011 F   0  0  0  0  0  0  0  0  0  0  0  0
   27.7580   10.6496   -2.3336 F   0  0  0  0  0  0  0  0  0  0  0  0
  1  2  1  0
  2  3  2  0
  3  4  1  0
  4  5  2  0
  5  6  1  0
  6  7  1  0
  7  8  1  0
  8  9  1  0
  9 10  1  0
 10 11  1  6
 11 12  2  0
 11 13  1  0
 13 14  1  0
 14 15  1  0
 15 16  1  0
 16 17  1  1
 16 18  1  0
 18 19  1  0
 19 20  1  0
 19 21  1  0
 19 22  1  0
  6  2  1  0
 10  5  1  0
M  CHG  2  16   1  17  -1
M  END
>  <energy_score>  (4736) 
-34.343583

>  <inchikey>  (4736) 
QADPRVGEUYSBIC-UHFFFAOYSA-N

>  <smiles>  (4736) 
Cc1cnc2n1CCCC2C(=O)NCC[S+]([O-])CC(F)(F)F

>  <ref_pdb>  (4736) 
A0528a

>  <alias>  (4736) 
QADPRVGEUYSBIC-UHFFFAOYSA-N-P51-P36-P51-601511

>  <HIPPO Pose ID>  (4736) 
518551

>  <name>  (4736) 
QADPRVGEUYSBIC-UHFFFAOYSA-N-P51-P36-P51-601511

>  <HIPPO Compound ID>  (4736) 
301951

>  <ref_mols>  (4736) 
A0239a,A0309a

>  <distance_score>  (4736) 
1.546131

>  <inspiration_score>  (4736) 
None

$$$$
USZPFBBYRJBRNI-UHFFFAOYSA-N-P36-P36-P51-601511
     RDKit          3D

 22 22  0  0  0  0  0  0  0  0999 V2000
   24.5652   16.8819    2.4005 C   0  0  0  0  0  0  0  0  0  0  0  0
   23.1932   16.6134    2.0322 N   0  0  0  0  0  0  0  0  0  0  0  0
   22.1439   17.4823    2.1302 C   0  0  0  0  0  0  0  0  0  0  0  0
   22.3358   19.0774    2.6787 Cl  0  0  0  0  0  0  0  0  0  0  0  0
   21.0292   16.8042    1.7277 C   0  0  0  0  0  0  0  0  0  0  0  0
   21.3638   15.5294    1.3655 N   0  0  0  0  0  0  0  0  0  0  0  0
   22.6836   15.4388    1.5038 C   0  0  0  0  0  0  0  0  0  0  0  0
   23.5143   14.2386    1.1697 C   0  0  0  0  0  0  0  0  0  0  0  0
   24.0506   13.6985    2.3123 F   0  0  0  0  0  0  0  0  0  0  0  0
   22.7415   13.2491    0.6293 F   0  0  0  0  0  0  0  0  0  0  0  0
   24.6844   14.5909    0.1905 C   0  0  0  0  0  0  0  0  0  0  0  0
   24.7519   15.5554   -0.4693 O   0  0  0  0  0  0  0  0  0  0  0  0
   25.7096   13.4290    0.3914 N   0  0  0  0  0  0  0  0  0  0  0  0
   27.0470   13.2727   -0.1009 C   0  0  0  0  0  0  0  0  0  0  0  0
   28.0915   13.6785    0.9279 C   0  0  0  0  0  0  0  0  0  0  0  0
   27.9811   12.8996    2.5655 S   0  0  0  0  0  0  0  0  0  0  0  0
   29.3253   13.3845    3.4091 O   0  0  0  0  0  0  0  0  0  0  0  0
   28.2421   11.1951    2.0408 C   0  0  0  0  0  0  0  0  0  0  0  0
   26.9232   10.4834    2.0992 C   0  0  0  0  0  0  0  0  0  0  0  0
   26.4872   10.4062    3.3664 F   0  0  0  0  0  0  0  0  0  0  0  0
   27.0271    9.2343    1.5903 F   0  0  0  0  0  0  0  0  0  0  0  0
   25.9675   11.1141    1.3832 F   0  0  0  0  0  0  0  0  0  0  0  0
  1  2  1  0
  2  3  1  0
  3  4  1  0
  3  5  2  0
  5  6  1  0
  6  7  2  0
  7  8  1  0
  8  9  1  0
  8 10  1  0
  8 11  1  0
 11 12  2  0
 11 13  1  0
 13 14  1  0
 14 15  1  0
 15 16  1  0
 16 17  1  1
 16 18  1  0
 18 19  1  0
 19 20  1  0
 19 21  1  0
 19 22  1  0
  7  2  1  0
M  CHG  2  16   1  17  -1
M  END
>  <energy_score>  (4737) 
-13.724546

>  <inchikey>  (4737) 
USZPFBBYRJBRNI-UHFFFAOYSA-N

>  <smiles>  (4737) 
Cn1c(Cl)cnc1C(F)(F)C(=O)NCC[S+]([O-])CC(F)(F)F

>  <ref_pdb>  (4737) 
A0528a

>  <alias>  (4737) 
USZPFBBYRJBRNI-UHFFFAOYSA-N-P36-P36-P51-601511

>  <HIPPO Pose ID>  (4737) 
518552

>  <name>  (4737) 
USZPFBBYRJBRNI-UHFFFAOYSA-N-P36-P36-P51-601511

>  <HIPPO Compound ID>  (4737) 
301952

>  <ref_mols>  (4737) 
A0239a,A0309a

>  <distance_score>  (4737) 
1.796315

>  <inspiration_score>  (4737) 
None

$$$$
USZPFBBYRJBRNI-UHFFFAOYSA-N-P51-P36-P51-601511
     RDKit          3D

 22 22  0  0  0  0  0  0  0  0999 V2000
   24.3766   17.0751    2.0175 C   0  0  0  0  0  0  0  0  0  0  0  0
   23.0407   16.5240    2.0086 N   0  0  0  0  0  0  0  0  0  0  0  0
   21.8715   17.1980    2.2171 C   0  0  0  0  0  0  0  0  0  0  0  0
   21.8194   18.8525    2.5952 Cl  0  0  0  0  0  0  0  0  0  0  0  0
   20.8611   16.2907    2.0729 C   0  0  0  0  0  0  0  0  0  0  0  0
   21.3766   15.0558    1.7948 N   0  0  0  0  0  0  0  0  0  0  0  0
   22.6983   15.1986    1.7795 C   0  0  0  0  0  0  0  0  0  0  0  0
   23.6958   14.1135    1.4803 C   0  0  0  0  0  0  0  0  0  0  0  0
   24.4197   14.4578    0.3629 F   0  0  0  0  0  0  0  0  0  0  0  0
   23.0628   12.9606    1.1295 F   0  0  0  0  0  0  0  0  0  0  0  0
   24.6871   13.9455    2.6761 C   0  0  0  0  0  0  0  0  0  0  0  0
   24.3724   13.7782    3.7914 O   0  0  0  0  0  0  0  0  0  0  0  0
   26.1075   14.1566    2.0423 N   0  0  0  0  0  0  0  0  0  0  0  0
   27.3943   14.2967    2.6652 C   0  0  0  0  0  0  0  0  0  0  0  0
   28.4235   13.3457    2.0883 C   0  0  0  0  0  0  0  0  0  0  0  0
   28.3216   11.7067    2.8431 S   0  0  0  0  0  0  0  0  0  0  0  0
   29.8569   11.3442    3.3645 O   0  0  0  0  0  0  0  0  0  0  0  0
   28.0387   10.7523    1.3373 C   0  0  0  0  0  0  0  0  0  0  0  0
   26.6857   11.0275    0.7435 C   0  0  0  0  0  0  0  0  0  0  0  0
   26.3201   10.0181   -0.0819 F   0  0  0  0  0  0  0  0  0  0  0  0
   26.6962   12.1554   -0.0069 F   0  0  0  0  0  0  0  0  0  0  0  0
   25.7246   11.1730    1.6708 F   0  0  0  0  0  0  0  0  0  0  0  0
  1  2  1  0
  2  3  1  0
  3  4  1  0
  3  5  2  0
  5  6  1  0
  6  7  2  0
  7  8  1  0
  8  9  1  0
  8 10  1  0
  8 11  1  0
 11 12  2  0
 11 13  1  0
 13 14  1  0
 14 15  1  0
 15 16  1  0
 16 17  1  6
 16 18  1  0
 18 19  1  0
 19 20  1  0
 19 21  1  0
 19 22  1  0
  7  2  1  0
M  CHG  2  16   1  17  -1
M  END
>  <energy_score>  (4738) 
-13.020981

>  <inchikey>  (4738) 
USZPFBBYRJBRNI-UHFFFAOYSA-N

>  <smiles>  (4738) 
Cn1c(Cl)cnc1C(F)(F)C(=O)NCC[S+]([O-])CC(F)(F)F

>  <ref_pdb>  (4738) 
A0528a

>  <alias>  (4738) 
USZPFBBYRJBRNI-UHFFFAOYSA-N-P51-P36-P51-601511

>  <HIPPO Pose ID>  (4738) 
518553

>  <name>  (4738) 
USZPFBBYRJBRNI-UHFFFAOYSA-N-P51-P36-P51-601511

>  <HIPPO Compound ID>  (4738) 
301952

>  <ref_mols>  (4738) 
A0239a,A0309a

>  <distance_score>  (4738) 
1.672208

>  <inspiration_score>  (4738) 
None

$$$$
NKRZYZSOUQGGOU-UHFFFAOYSA-N-P51-P36-P51-601511
     RDKit          3D

 22 23  0  0  0  0  0  0  0  0999 V2000
   22.9597   18.8355    3.1841 C   0  0  0  0  0  0  0  0  0  0  0  0
   22.4603   17.5714    2.6019 C   0  0  0  0  0  0  0  0  0  0  0  0
   21.2220   17.2816    2.0728 C   0  0  0  0  0  0  0  0  0  0  0  0
   21.3106   15.9853    1.6680 N   0  0  0  0  0  0  0  0  0  0  0  0
   22.5791   15.5332    1.9337 C   0  0  0  0  0  0  0  0  0  0  0  0
   23.2745   16.4673    2.5446 N   0  0  0  0  0  0  0  0  0  0  0  0
   22.9870   14.1309    1.6335 C   0  0  2  0  0  0  0  0  0  0  0  0
   24.4055   14.0458    1.0455 C   0  0  0  0  0  0  0  0  0  0  0  0
   24.8860   14.8722    0.3737 O   0  0  0  0  0  0  0  0  0  0  0  0
   24.9407   12.6414    1.4549 N   0  0  0  0  0  0  0  0  0  0  0  0
   26.1211   11.9411    1.0458 C   0  0  0  0  0  0  0  0  0  0  0  0
   27.2366   11.9293    2.0839 C   0  0  0  0  0  0  0  0  0  0  0  0
   28.5449   10.8519    1.4186 S   0  0  0  0  0  0  0  0  0  0  0  0
   27.8724    9.3338    1.3295 O   0  0  0  0  0  0  0  0  0  0  0  0
   29.6869   10.9419    2.8215 C   0  0  0  0  0  0  0  0  0  0  0  0
   30.5803   12.1501    2.7203 C   0  0  0  0  0  0  0  0  0  0  0  0
   31.4935   12.1518    3.7192 F   0  0  0  0  0  0  0  0  0  0  0  0
   31.2548   12.1943    1.5521 F   0  0  0  0  0  0  0  0  0  0  0  0
   29.8757   13.2982    2.8304 F   0  0  0  0  0  0  0  0  0  0  0  0
   22.0444   13.5028    0.5954 C   0  0  0  0  0  0  0  0  0  0  0  0
   20.5771   13.7454    0.9497 C   0  0  0  0  0  0  0  0  0  0  0  0
   20.2716   15.2339    0.9990 C   0  0  0  0  0  0  0  0  0  0  0  0
  1  2  1  0
  2  3  2  0
  3  4  1  0
  4  5  1  0
  5  6  2  0
  5  7  1  0
  7  8  1  6
  8  9  2  0
  8 10  1  0
 10 11  1  0
 11 12  1  0
 12 13  1  0
 13 14  1  1
 13 15  1  0
 15 16  1  0
 16 17  1  0
 16 18  1  0
 16 19  1  0
  7 20  1  0
 20 21  1  0
 21 22  1  0
  6  2  1  0
 22  4  1  0
M  CHG  2  13   1  14  -1
M  END
>  <energy_score>  (4739) 
-16.912453

>  <inchikey>  (4739) 
NKRZYZSOUQGGOU-UHFFFAOYSA-N

>  <smiles>  (4739) 
Cc1cn2c(n1)C(C(=O)NCC[S+]([O-])CC(F)(F)F)CCC2

>  <ref_pdb>  (4739) 
A0528a

>  <alias>  (4739) 
NKRZYZSOUQGGOU-UHFFFAOYSA-N-P51-P36-P51-601511

>  <HIPPO Pose ID>  (4739) 
518555

>  <name>  (4739) 
NKRZYZSOUQGGOU-UHFFFAOYSA-N-P51-P36-P51-601511

>  <HIPPO Compound ID>  (4739) 
301953

>  <ref_mols>  (4739) 
A0239a,A0309a

>  <distance_score>  (4739) 
1.712581

>  <inspiration_score>  (4739) 
None

$$$$
MDWDRCCQKMGRLB-UHFFFAOYSA-N-P36-P36-P51-601511
     RDKit          3D

 22 23  0  0  0  0  0  0  0  0999 V2000
   24.1765   14.5565   -0.9518 C   0  0  0  0  0  0  0  0  0  0  0  0
   24.0293   14.6566    0.5560 C   0  0  2  0  0  0  0  0  0  0  0  0
   25.3044   15.2078    1.2973 C   0  0  0  0  0  0  0  0  0  0  0  0
   25.2860   16.1953    1.9211 O   0  0  0  0  0  0  0  0  0  0  0  0
   26.4375   14.1604    1.1031 N   0  0  0  0  0  0  0  0  0  0  0  0
   27.7348   14.0683    1.7097 C   0  0  0  0  0  0  0  0  0  0  0  0
   27.6112   13.1984    2.9650 C   0  0  0  0  0  0  0  0  0  0  0  0
   27.9617   11.4520    2.6857 S   0  0  0  0  0  0  0  0  0  0  0  0
   27.7148   11.0523    1.1020 O   0  0  0  0  0  0  0  0  0  0  0  0
   29.7070   11.4298    3.1619 C   0  0  0  0  0  0  0  0  0  0  0  0
   30.5990   12.5077    2.5891 C   0  0  0  0  0  0  0  0  0  0  0  0
   30.3359   13.7058    3.1723 F   0  0  0  0  0  0  0  0  0  0  0  0
   30.4777   12.6875    1.2626 F   0  0  0  0  0  0  0  0  0  0  0  0
   31.9000   12.2519    2.8707 F   0  0  0  0  0  0  0  0  0  0  0  0
   23.7260   13.2431    1.1303 C   0  0  0  0  0  0  0  0  0  0  0  0
   23.2469   13.4041    2.5616 C   0  0  0  0  0  0  0  0  0  0  0  0
   21.8477   13.9922    2.4856 C   0  0  0  0  0  0  0  0  0  0  0  0
   21.8860   15.2538    1.7795 N   0  0  0  0  0  0  0  0  0  0  0  0
   20.9864   16.2715    1.8406 C   0  0  0  0  0  0  0  0  0  0  0  0
   21.4864   17.2240    0.9858 C   0  0  0  0  0  0  0  0  0  0  0  0
   22.6252   16.7786    0.3680 N   0  0  0  0  0  0  0  0  0  0  0  0
   22.8654   15.5857    0.8735 C   0  0  0  0  0  0  0  0  0  0  0  0
  2  1  1  6
  2  3  1  0
  3  4  2  0
  3  5  1  0
  5  6  1  0
  6  7  1  0
  7  8  1  0
  8  9  1  6
  8 10  1  0
 10 11  1  0
 11 12  1  0
 11 13  1  0
 11 14  1  0
  2 15  1  0
 15 16  1  0
 16 17  1  0
 17 18  1  0
 18 19  1  0
 19 20  2  0
 20 21  1  0
 21 22  2  0
 22  2  1  0
 22 18  1  0
M  CHG  2   8   1   9  -1
M  END
>  <energy_score>  (4740) 
-26.311983

>  <inchikey>  (4740) 
MDWDRCCQKMGRLB-UHFFFAOYSA-N

>  <smiles>  (4740) 
CC1(C(=O)NCC[S+]([O-])CC(F)(F)F)CCCn2ccnc21

>  <ref_pdb>  (4740) 
A0528a

>  <alias>  (4740) 
MDWDRCCQKMGRLB-UHFFFAOYSA-N-P36-P36-P51-601511

>  <HIPPO Pose ID>  (4740) 
518556

>  <name>  (4740) 
MDWDRCCQKMGRLB-UHFFFAOYSA-N-P36-P36-P51-601511

>  <HIPPO Compound ID>  (4740) 
301954

>  <ref_mols>  (4740) 
A0239a,A0309a

>  <distance_score>  (4740) 
1.943385

>  <inspiration_score>  (4740) 
None

$$$$
JPMWHRRPTINHBY-UHFFFAOYSA-N-P36-P36-P51-601511
     RDKit          3D

 23 23  0  0  0  0  0  0  0  0999 V2000
   26.5433   17.1904    3.3064 C   0  0  0  0  0  0  0  0  0  0  0  0
   25.1317   16.6263    3.2296 C   0  0  0  0  0  0  0  0  0  0  0  0
   24.4454   17.0956    1.9520 C   0  0  0  0  0  0  0  0  0  0  0  0
   23.0499   16.7092    1.8486 N   0  0  0  0  0  0  0  0  0  0  0  0
   22.0167   17.5901    2.0554 C   0  0  0  0  0  0  0  0  0  0  0  0
   20.8706   16.8788    1.8203 C   0  0  0  0  0  0  0  0  0  0  0  0
   21.1683   15.5923    1.4892 N   0  0  0  0  0  0  0  0  0  0  0  0
   22.4946   15.4989    1.4779 C   0  0  0  0  0  0  0  0  0  0  0  0
   23.2586   14.2384    1.1844 C   0  0  0  0  0  0  0  0  0  0  0  0
   23.7733   13.7465    2.3536 F   0  0  0  0  0  0  0  0  0  0  0  0
   22.4189   13.2722    0.7078 F   0  0  0  0  0  0  0  0  0  0  0  0
   24.4127   14.4883    0.1634 C   0  0  0  0  0  0  0  0  0  0  0  0
   24.3193   15.1204   -0.8180 O   0  0  0  0  0  0  0  0  0  0  0  0
   25.6490   13.7696    0.7887 N   0  0  0  0  0  0  0  0  0  0  0  0
   27.0234   13.7644    0.3858 C   0  0  0  0  0  0  0  0  0  0  0  0
   27.9757   13.6928    1.5709 C   0  0  0  0  0  0  0  0  0  0  0  0
   27.6982   12.3276    2.7286 S   0  0  0  0  0  0  0  0  0  0  0  0
   26.1082   12.3597    3.1659 O   0  0  0  0  0  0  0  0  0  0  0  0
   28.0058   10.9871    1.5906 C   0  0  0  0  0  0  0  0  0  0  0  0
   26.7840   10.2483    1.1151 C   0  0  0  0  0  0  0  0  0  0  0  0
   27.1226    9.4951    0.0315 F   0  0  0  0  0  0  0  0  0  0  0  0
   26.3327    9.3823    2.0349 F   0  0  0  0  0  0  0  0  0  0  0  0
   25.7795   11.0391    0.7063 F   0  0  0  0  0  0  0  0  0  0  0  0
  1  2  1  0
  2  3  1  0
  3  4  1  0
  4  5  1  0
  5  6  2  0
  6  7  1  0
  7  8  2  0
  8  9  1  0
  9 10  1  0
  9 11  1  0
  9 12  1  0
 12 13  2  0
 12 14  1  0
 14 15  1  0
 15 16  1  0
 16 17  1  0
 17 18  1  6
 17 19  1  0
 19 20  1  0
 20 21  1  0
 20 22  1  0
 20 23  1  0
  8  4  1  0
M  CHG  2  17   1  18  -1
M  END
>  <energy_score>  (4741) 
-1.961824

>  <inchikey>  (4741) 
JPMWHRRPTINHBY-UHFFFAOYSA-N

>  <smiles>  (4741) 
CCCn1ccnc1C(F)(F)C(=O)NCC[S+]([O-])CC(F)(F)F

>  <ref_pdb>  (4741) 
A0528a

>  <alias>  (4741) 
JPMWHRRPTINHBY-UHFFFAOYSA-N-P36-P36-P51-601511

>  <HIPPO Pose ID>  (4741) 
518558

>  <name>  (4741) 
JPMWHRRPTINHBY-UHFFFAOYSA-N-P36-P36-P51-601511

>  <HIPPO Compound ID>  (4741) 
301955

>  <ref_mols>  (4741) 
A0239a,A0309a

>  <distance_score>  (4741) 
1.766656

>  <inspiration_score>  (4741) 
None

$$$$
JPMWHRRPTINHBY-UHFFFAOYSA-N-P51-P36-P51-601511
     RDKit          3D

 23 23  0  0  0  0  0  0  0  0999 V2000
   26.8028   16.5838    3.3595 C   0  0  0  0  0  0  0  0  0  0  0  0
   25.2912   16.4111    3.3721 C   0  0  0  0  0  0  0  0  0  0  0  0
   24.6959   16.7944    2.0214 C   0  0  0  0  0  0  0  0  0  0  0  0
   23.2577   16.6137    1.9480 N   0  0  0  0  0  0  0  0  0  0  0  0
   22.3503   17.6181    2.1676 C   0  0  0  0  0  0  0  0  0  0  0  0
   21.1188   17.0520    1.9628 C   0  0  0  0  0  0  0  0  0  0  0  0
   21.2457   15.7372    1.6293 N   0  0  0  0  0  0  0  0  0  0  0  0
   22.5486   15.4814    1.6047 C   0  0  0  0  0  0  0  0  0  0  0  0
   23.1573   14.1422    1.3314 C   0  0  0  0  0  0  0  0  0  0  0  0
   23.8125   13.6989    2.4482 F   0  0  0  0  0  0  0  0  0  0  0  0
   22.1771   13.2236    1.0844 F   0  0  0  0  0  0  0  0  0  0  0  0
   24.1434   14.1701    0.1270 C   0  0  0  0  0  0  0  0  0  0  0  0
   24.0640   14.8866   -0.7960 O   0  0  0  0  0  0  0  0  0  0  0  0
   25.1838   13.0509    0.4522 N   0  0  0  0  0  0  0  0  0  0  0  0
   26.3721   12.6604   -0.2385 C   0  0  0  0  0  0  0  0  0  0  0  0
   27.6393   13.1047    0.4791 C   0  0  0  0  0  0  0  0  0  0  0  0
   27.8441   12.5756    2.1946 S   0  0  0  0  0  0  0  0  0  0  0  0
   26.3705   12.4096    2.9135 O   0  0  0  0  0  0  0  0  0  0  0  0
   28.6057   10.9724    1.9472 C   0  0  0  0  0  0  0  0  0  0  0  0
   27.7732    9.9847    1.1834 C   0  0  0  0  0  0  0  0  0  0  0  0
   28.1572    8.7116    1.4599 F   0  0  0  0  0  0  0  0  0  0  0  0
   26.4599   10.0564    1.4233 F   0  0  0  0  0  0  0  0  0  0  0  0
   27.9696   10.1463   -0.1492 F   0  0  0  0  0  0  0  0  0  0  0  0
  1  2  1  0
  2  3  1  0
  3  4  1  0
  4  5  1  0
  5  6  2  0
  6  7  1  0
  7  8  2  0
  8  9  1  0
  9 10  1  0
  9 11  1  0
  9 12  1  0
 12 13  2  0
 12 14  1  0
 14 15  1  0
 15 16  1  0
 16 17  1  0
 17 18  1  6
 17 19  1  0
 19 20  1  0
 20 21  1  0
 20 22  1  0
 20 23  1  0
  8  4  1  0
M  CHG  2  17   1  18  -1
M  END
>  <energy_score>  (4742) 
-6.793158

>  <inchikey>  (4742) 
JPMWHRRPTINHBY-UHFFFAOYSA-N

>  <smiles>  (4742) 
CCCn1ccnc1C(F)(F)C(=O)NCC[S+]([O-])CC(F)(F)F

>  <ref_pdb>  (4742) 
A0528a

>  <alias>  (4742) 
JPMWHRRPTINHBY-UHFFFAOYSA-N-P51-P36-P51-601511

>  <HIPPO Pose ID>  (4742) 
518559

>  <name>  (4742) 
JPMWHRRPTINHBY-UHFFFAOYSA-N-P51-P36-P51-601511

>  <HIPPO Compound ID>  (4742) 
301955

>  <ref_mols>  (4742) 
A0239a,A0309a

>  <distance_score>  (4742) 
1.638181

>  <inspiration_score>  (4742) 
None

$$$$
OUTWHBATCLUFIY-UHFFFAOYSA-N-P36-P36-P51-601511
     RDKit          3D

 25 26  0  0  0  0  0  0  0  0999 V2000
   23.3669   13.4132    2.7803 O   0  0  0  0  0  0  0  0  0  0  0  0
   24.1062   13.8620    1.9961 C   0  0  0  0  0  0  0  0  0  0  0  0
   25.6557   13.8702    1.9670 N   0  0  0  0  0  0  0  0  0  0  0  0
   26.6064   13.4149    2.9368 C   0  0  0  0  0  0  0  0  0  0  0  0
   26.8101   11.9076    2.9682 C   0  0  0  0  0  0  0  0  0  0  0  0
   27.7749   11.1685    1.6466 S   0  0  0  0  0  0  0  0  0  0  0  0
   26.9283   11.2980    0.2331 O   0  0  0  0  0  0  0  0  0  0  0  0
   29.1989   12.2814    1.5941 C   0  0  0  0  0  0  0  0  0  0  0  0
   30.0123   12.2509    2.8672 C   0  0  0  0  0  0  0  0  0  0  0  0
   29.3836   12.9326    3.8560 F   0  0  0  0  0  0  0  0  0  0  0  0
   31.2084   12.8578    2.6887 F   0  0  0  0  0  0  0  0  0  0  0  0
   30.2374   11.0062    3.3297 F   0  0  0  0  0  0  0  0  0  0  0  0
   23.6117   14.6456    0.7707 C   0  0  1  0  0  0  0  0  0  0  0  0
   22.7585   13.7714   -0.1472 C   0  0  0  0  0  0  0  0  0  0  0  0
   21.3626   13.4671    0.4163 C   0  0  2  0  0  0  0  0  0  0  0  0
   20.4974   12.7826   -0.6196 C   0  0  0  0  0  0  0  0  0  0  0  0
   21.0790   11.6707   -1.1130 F   0  0  0  0  0  0  0  0  0  0  0  0
   20.2363   13.6020   -1.6615 F   0  0  0  0  0  0  0  0  0  0  0  0
   19.3105   12.4201   -0.0810 F   0  0  0  0  0  0  0  0  0  0  0  0
   20.6095   14.6832    0.9585 C   0  0  0  0  0  0  0  0  0  0  0  0
   21.4640   15.7527    1.4183 N   0  0  0  0  0  0  0  0  0  0  0  0
   21.0441   16.9517    1.9124 C   0  0  0  0  0  0  0  0  0  0  0  0
   22.1944   17.6894    2.0627 C   0  0  0  0  0  0  0  0  0  0  0  0
   23.2901   16.9732    1.6595 N   0  0  0  0  0  0  0  0  0  0  0  0
   22.8254   15.7997    1.2869 C   0  0  0  0  0  0  0  0  0  0  0  0
  1  2  2  0
  2  3  1  0
  3  4  1  0
  4  5  1  0
  5  6  1  0
  6  7  1  6
  6  8  1  0
  8  9  1  0
  9 10  1  0
  9 11  1  0
  9 12  1  0
 13  2  1  1
 13 14  1  0
 14 15  1  0
 15 16  1  6
 16 17  1  0
 16 18  1  0
 16 19  1  0
 15 20  1  0
 20 21  1  0
 21 22  1  0
 22 23  2  0
 23 24  1  0
 24 25  2  0
 25 13  1  0
 25 21  1  0
M  CHG  2   6   1   7  -1
M  END
>  <energy_score>  (4743) 
-11.563789

>  <inchikey>  (4743) 
OUTWHBATCLUFIY-UHFFFAOYSA-N

>  <smiles>  (4743) 
O=C(NCC[S+]([O-])CC(F)(F)F)C1CC(C(F)(F)F)Cn2ccnc21

>  <ref_pdb>  (4743) 
A0528a

>  <alias>  (4743) 
OUTWHBATCLUFIY-UHFFFAOYSA-N-P36-P36-P51-601511

>  <HIPPO Pose ID>  (4743) 
518562

>  <name>  (4743) 
OUTWHBATCLUFIY-UHFFFAOYSA-N-P36-P36-P51-601511

>  <HIPPO Compound ID>  (4743) 
301957

>  <ref_mols>  (4743) 
A0239a,A0309a

>  <distance_score>  (4743) 
1.837323

>  <inspiration_score>  (4743) 
None

$$$$
OUTWHBATCLUFIY-UHFFFAOYSA-N-P51-P36-P51-601511
     RDKit          3D

 25 26  0  0  0  0  0  0  0  0999 V2000
   23.6847   13.8143    3.5408 O   0  0  0  0  0  0  0  0  0  0  0  0
   24.3361   13.7444    2.5739 C   0  0  0  0  0  0  0  0  0  0  0  0
   25.5153   12.7943    2.2204 N   0  0  0  0  0  0  0  0  0  0  0  0
   26.1922   11.8023    3.0222 C   0  0  0  0  0  0  0  0  0  0  0  0
   27.7049   11.8109    2.8467 C   0  0  0  0  0  0  0  0  0  0  0  0
   28.1463   10.8461    1.3597 S   0  0  0  0  0  0  0  0  0  0  0  0
   27.0845   11.2959    0.1726 O   0  0  0  0  0  0  0  0  0  0  0  0
   29.7468   11.6423    1.0561 C   0  0  0  0  0  0  0  0  0  0  0  0
   30.2454   11.3643   -0.3410 C   0  0  0  0  0  0  0  0  0  0  0  0
   29.5746   12.0789   -1.2706 F   0  0  0  0  0  0  0  0  0  0  0  0
   30.1655   10.0607   -0.6793 F   0  0  0  0  0  0  0  0  0  0  0  0
   31.5491   11.7239   -0.4473 F   0  0  0  0  0  0  0  0  0  0  0  0
   24.0934   14.6336    1.3319 C   0  0  1  0  0  0  0  0  0  0  0  0
   23.5019   13.8407    0.1607 C   0  0  0  0  0  0  0  0  0  0  0  0
   22.0667   13.3823    0.4568 C   0  0  2  0  0  0  0  0  0  0  0  0
   21.4523   12.6812   -0.7339 C   0  0  0  0  0  0  0  0  0  0  0  0
   20.2132   12.2299   -0.4312 F   0  0  0  0  0  0  0  0  0  0  0  0
   22.1851   11.6198   -1.1270 F   0  0  0  0  0  0  0  0  0  0  0  0
   21.3331   13.5145   -1.7892 F   0  0  0  0  0  0  0  0  0  0  0  0
   21.1225   14.4939    0.9275 C   0  0  0  0  0  0  0  0  0  0  0  0
   21.7962   15.6065    1.5556 N   0  0  0  0  0  0  0  0  0  0  0  0
   21.2115   16.7720    1.9522 C   0  0  0  0  0  0  0  0  0  0  0  0
   22.2641   17.5937    2.2781 C   0  0  0  0  0  0  0  0  0  0  0  0
   23.4619   16.9573    2.0824 N   0  0  0  0  0  0  0  0  0  0  0  0
   23.1543   15.7412    1.6852 C   0  0  0  0  0  0  0  0  0  0  0  0
  1  2  2  0
  2  3  1  0
  3  4  1  0
  4  5  1  0
  5  6  1  0
  6  7  1  6
  6  8  1  0
  8  9  1  0
  9 10  1  0
  9 11  1  0
  9 12  1  0
 13  2  1  1
 13 14  1  0
 14 15  1  0
 15 16  1  6
 16 17  1  0
 16 18  1  0
 16 19  1  0
 15 20  1  0
 20 21  1  0
 21 22  1  0
 22 23  2  0
 23 24  1  0
 24 25  2  0
 25 13  1  0
 25 21  1  0
M  CHG  2   6   1   7  -1
M  END
>  <energy_score>  (4744) 
-8.970604

>  <inchikey>  (4744) 
OUTWHBATCLUFIY-UHFFFAOYSA-N

>  <smiles>  (4744) 
O=C(NCC[S+]([O-])CC(F)(F)F)C1CC(C(F)(F)F)Cn2ccnc21

>  <ref_pdb>  (4744) 
A0528a

>  <alias>  (4744) 
OUTWHBATCLUFIY-UHFFFAOYSA-N-P51-P36-P51-601511

>  <HIPPO Pose ID>  (4744) 
518563

>  <name>  (4744) 
OUTWHBATCLUFIY-UHFFFAOYSA-N-P51-P36-P51-601511

>  <HIPPO Compound ID>  (4744) 
301957

>  <ref_mols>  (4744) 
A0239a,A0309a

>  <distance_score>  (4744) 
1.743715

>  <inspiration_score>  (4744) 
None

$$$$
UHVIIGDMCPNPGL-UHFFFAOYSA-N-P36-P36-P51-601511
     RDKit          3D

 25 26  0  0  0  0  0  0  0  0999 V2000
   24.4450   16.8506    2.3905 C   0  0  0  0  0  0  0  0  0  0  0  0
   23.0735   16.6073    2.0040 N   0  0  0  0  0  0  0  0  0  0  0  0
   22.5649   15.4509    1.4425 C   0  0  0  0  0  0  0  0  0  0  0  0
   23.3848   14.2385    1.1129 C   0  0  0  0  0  0  0  0  0  0  0  0
   23.9453   13.7377    2.2586 F   0  0  0  0  0  0  0  0  0  0  0  0
   22.5869   13.2425    0.6258 F   0  0  0  0  0  0  0  0  0  0  0  0
   24.5054   14.5950    0.0763 C   0  0  0  0  0  0  0  0  0  0  0  0
   24.3151   14.8755   -1.0444 O   0  0  0  0  0  0  0  0  0  0  0  0
   25.8439   14.4278    0.8636 N   0  0  0  0  0  0  0  0  0  0  0  0
   27.2084   14.4787    0.4082 C   0  0  0  0  0  0  0  0  0  0  0  0
   27.8426   13.1056    0.6265 C   0  0  0  0  0  0  0  0  0  0  0  0
   27.9829   12.7326    2.4005 S   0  0  0  0  0  0  0  0  0  0  0  0
   26.6583   13.3465    3.1809 O   0  0  0  0  0  0  0  0  0  0  0  0
   27.8427   10.9469    2.3857 C   0  0  0  0  0  0  0  0  0  0  0  0
   26.8192   10.3453    1.4627 C   0  0  0  0  0  0  0  0  0  0  0  0
   26.5809    9.0552    1.7942 F   0  0  0  0  0  0  0  0  0  0  0  0
   25.6468   10.9998    1.4491 F   0  0  0  0  0  0  0  0  0  0  0  0
   27.2816   10.3035    0.1880 F   0  0  0  0  0  0  0  0  0  0  0  0
   21.2493   15.5492    1.3066 N   0  0  0  0  0  0  0  0  0  0  0  0
   20.9124   16.7990    1.7389 C   0  0  0  0  0  0  0  0  0  0  0  0
   19.6503   17.4093    1.7919 C   0  0  0  0  0  0  0  0  0  0  0  0
   19.5513   18.7135    2.2885 C   0  0  0  0  0  0  0  0  0  0  0  0
   20.6881   19.3958    2.7227 C   0  0  0  0  0  0  0  0  0  0  0  0
   21.9553   18.8018    2.6749 C   0  0  0  0  0  0  0  0  0  0  0  0
   22.0336   17.4948    2.1750 C   0  0  0  0  0  0  0  0  0  0  0  0
  1  2  1  0
  2  3  1  0
  3  4  1  0
  4  5  1  0
  4  6  1  0
  4  7  1  0
  7  8  2  0
  7  9  1  0
  9 10  1  0
 10 11  1  0
 11 12  1  0
 12 13  1  1
 12 14  1  0
 14 15  1  0
 15 16  1  0
 15 17  1  0
 15 18  1  0
  3 19  2  0
 19 20  1  0
 20 21  2  0
 21 22  1  0
 22 23  2  0
 23 24  1  0
 24 25  2  0
 25  2  1  0
 25 20  1  0
M  CHG  2  12   1  13  -1
M  END
>  <energy_score>  (4745) 
-8.845325

>  <inchikey>  (4745) 
UHVIIGDMCPNPGL-UHFFFAOYSA-N

>  <smiles>  (4745) 
Cn1c(C(F)(F)C(=O)NCC[S+]([O-])CC(F)(F)F)nc2ccccc21

>  <ref_pdb>  (4745) 
A0528a

>  <alias>  (4745) 
UHVIIGDMCPNPGL-UHFFFAOYSA-N-P36-P36-P51-601511

>  <HIPPO Pose ID>  (4745) 
518568

>  <name>  (4745) 
UHVIIGDMCPNPGL-UHFFFAOYSA-N-P36-P36-P51-601511

>  <HIPPO Compound ID>  (4745) 
301960

>  <ref_mols>  (4745) 
A0239a,A0309a

>  <distance_score>  (4745) 
1.827792

>  <inspiration_score>  (4745) 
None

$$$$
UHVIIGDMCPNPGL-UHFFFAOYSA-N-P51-P36-P51-601511
     RDKit          3D

 25 26  0  0  0  0  0  0  0  0999 V2000
   24.5782   16.7317    2.3266 C   0  0  0  0  0  0  0  0  0  0  0  0
   23.1594   16.5618    2.1111 N   0  0  0  0  0  0  0  0  0  0  0  0
   22.5213   15.4268    1.6549 C   0  0  0  0  0  0  0  0  0  0  0  0
   23.2198   14.1440    1.3405 C   0  0  0  0  0  0  0  0  0  0  0  0
   23.8146   13.6547    2.4712 F   0  0  0  0  0  0  0  0  0  0  0  0
   22.3141   13.1966    0.9548 F   0  0  0  0  0  0  0  0  0  0  0  0
   24.2955   14.3119    0.2261 C   0  0  0  0  0  0  0  0  0  0  0  0
   24.3083   15.1600   -0.5812 O   0  0  0  0  0  0  0  0  0  0  0  0
   25.2666   13.1078    0.4434 N   0  0  0  0  0  0  0  0  0  0  0  0
   26.4842   12.7667   -0.2220 C   0  0  0  0  0  0  0  0  0  0  0  0
   27.7165   13.1811    0.5675 C   0  0  0  0  0  0  0  0  0  0  0  0
   27.8672   12.5545    2.2541 S   0  0  0  0  0  0  0  0  0  0  0  0
   26.3748   12.3657    2.9265 O   0  0  0  0  0  0  0  0  0  0  0  0
   28.6180   10.9603    1.9344 C   0  0  0  0  0  0  0  0  0  0  0  0
   27.7721    9.9985    1.1508 C   0  0  0  0  0  0  0  0  0  0  0  0
   28.0113   10.1547   -0.1763 F   0  0  0  0  0  0  0  0  0  0  0  0
   28.1091    8.7148    1.4388 F   0  0  0  0  0  0  0  0  0  0  0  0
   26.4543   10.1130    1.3478 F   0  0  0  0  0  0  0  0  0  0  0  0
   21.2106   15.6204    1.6067 N   0  0  0  0  0  0  0  0  0  0  0  0
   21.0034   16.9061    2.0170 C   0  0  0  0  0  0  0  0  0  0  0  0
   19.7996   17.6153    2.1448 C   0  0  0  0  0  0  0  0  0  0  0  0
   19.8405   18.9391    2.5966 C   0  0  0  0  0  0  0  0  0  0  0  0
   21.0573   19.5445    2.9135 C   0  0  0  0  0  0  0  0  0  0  0  0
   22.2681   18.8521    2.7895 C   0  0  0  0  0  0  0  0  0  0  0  0
   22.2048   17.5275    2.3373 C   0  0  0  0  0  0  0  0  0  0  0  0
  1  2  1  0
  2  3  1  0
  3  4  1  0
  4  5  1  0
  4  6  1  0
  4  7  1  0
  7  8  2  0
  7  9  1  0
  9 10  1  0
 10 11  1  0
 11 12  1  0
 12 13  1  6
 12 14  1  0
 14 15  1  0
 15 16  1  0
 15 17  1  0
 15 18  1  0
  3 19  2  0
 19 20  1  0
 20 21  2  0
 21 22  1  0
 22 23  2  0
 23 24  1  0
 24 25  2  0
 25  2  1  0
 25 20  1  0
M  CHG  2  12   1  13  -1
M  END
>  <energy_score>  (4746) 
-8.513698

>  <inchikey>  (4746) 
UHVIIGDMCPNPGL-UHFFFAOYSA-N

>  <smiles>  (4746) 
Cn1c(C(F)(F)C(=O)NCC[S+]([O-])CC(F)(F)F)nc2ccccc21

>  <ref_pdb>  (4746) 
A0528a

>  <alias>  (4746) 
UHVIIGDMCPNPGL-UHFFFAOYSA-N-P51-P36-P51-601511

>  <HIPPO Pose ID>  (4746) 
518569

>  <name>  (4746) 
UHVIIGDMCPNPGL-UHFFFAOYSA-N-P51-P36-P51-601511

>  <HIPPO Compound ID>  (4746) 
301960

>  <ref_mols>  (4746) 
A0239a,A0309a

>  <distance_score>  (4746) 
1.658253

>  <inspiration_score>  (4746) 
None

$$$$
HTZMEYITDHGYEK-UHFFFAOYSA-N-P2-P2-P124-601511
     RDKit          3D

 24 27  0  0  0  0  0  0  0  0999 V2000
   11.7519   14.4449   21.0110 C   0  0  0  0  0  0  0  0  0  0  0  0
   11.2293   15.8439   21.1433 C   0  0  2  0  0  0  0  0  0  0  0  0
   10.4418   16.1569   22.7417 S   0  0  0  0  0  0  0  0  0  0  0  0
   10.2874   14.6493   23.4574 C   0  0  0  0  0  0  0  0  0  0  0  0
   11.2832   14.0960   24.1008 N   0  0  0  0  0  0  0  0  0  0  0  0
   10.9291   12.8156   24.3497 N   0  0  0  0  0  0  0  0  0  0  0  0
    9.6857   12.6555   23.9435 C   0  0  0  0  0  0  0  0  0  0  0  0
    8.8899   11.4938   24.1803 C   0  0  0  0  0  0  0  0  0  0  0  0
    9.1894   10.2916   23.5639 C   0  0  0  0  0  0  0  0  0  0  0  0
    8.4641    9.1995   23.9582 C   0  0  0  0  0  0  0  0  0  0  0  0
    7.4581    9.2564   24.8670 N   0  0  0  0  0  0  0  0  0  0  0  0
    7.1766   10.4422   25.4249 C   0  0  0  0  0  0  0  0  0  0  0  0
    7.8708   11.5829   25.1277 C   0  0  0  0  0  0  0  0  0  0  0  0
    9.2172   13.8153   23.3900 N   0  0  0  0  0  0  0  0  0  0  0  0
    7.7976   14.0151   22.9585 C   0  0  0  0  0  0  0  0  0  0  0  0
    7.3231   14.7789   21.7620 C   0  0  0  0  0  0  0  0  0  0  0  0
    7.0443   15.3055   23.1441 C   0  0  0  0  0  0  0  0  0  0  0  0
   10.3017   16.1781   19.9846 C   0  0  0  0  0  0  0  0  0  0  0  0
   10.2332   15.4570   18.9890 O   0  0  0  0  0  0  0  0  0  0  0  0
    9.6021   17.4372   20.0946 C   0  0  0  0  0  0  0  0  0  0  0  0
    8.7730   18.0199   21.0233 C   0  0  0  0  0  0  0  0  0  0  0  0
    8.6519   19.3572   20.6533 C   0  0  0  0  0  0  0  0  0  0  0  0
    8.9603   19.4052   19.3486 C   0  0  0  0  0  0  0  0  0  0  0  0
    9.6509   18.2877   19.0475 O   0  0  0  0  0  0  0  0  0  0  0  0
  2  1  1  1
  2  3  1  0
  3  4  1  0
  4  5  2  0
  5  6  1  0
  6  7  2  0
  7  8  1  0
  8  9  2  0
  9 10  1  0
 10 11  2  0
 11 12  1  0
 12 13  2  0
  7 14  1  0
 14 15  1  0
 15 16  1  0
 16 17  1  0
  2 18  1  0
 18 19  2  0
 18 20  1  0
 20 21  2  0
 21 22  1  0
 22 23  2  0
 23 24  1  0
 14  4  1  0
 17 15  1  0
 24 20  1  0
 13  8  1  0
M  END
>  <energy_score>  (4747) 
-8.650933

>  <inchikey>  (4747) 
HTZMEYITDHGYEK-UHFFFAOYSA-N

>  <smiles>  (4747) 
CC(Sc1nnc(-c2ccncc2)n1C1CC1)C(=O)c1ccco1

>  <ref_pdb>  (4747) 
A0528a

>  <alias>  (4747) 
HTZMEYITDHGYEK-UHFFFAOYSA-N-P2-P2-P124-601511

>  <HIPPO Pose ID>  (4747) 
518578

>  <name>  (4747) 
HTZMEYITDHGYEK-UHFFFAOYSA-N-P2-P2-P124-601511

>  <HIPPO Compound ID>  (4747) 
290815

>  <ref_mols>  (4747) 
A4298a,A1778a

>  <distance_score>  (4747) 
1.93271

>  <inspiration_score>  (4747) 
None

$$$$
RMGQLDUIKGNTAI-UHFFFAOYSA-N-P2-P2-P124-601511
     RDKit          3D

 25 27  0  0  0  0  0  0  0  0999 V2000
    5.3808   14.5070   25.4563 C   0  0  0  0  0  0  0  0  0  0  0  0
    6.3925   15.0710   24.7742 C   0  0  0  0  0  0  0  0  0  0  0  0
    6.8365   16.4792   25.0672 C   0  0  0  0  0  0  0  0  0  0  0  0
    7.0806   14.3626   23.6260 C   0  0  0  0  0  0  0  0  0  0  0  0
    8.5133   14.2726   23.8035 N   0  0  0  0  0  0  0  0  0  0  0  0
    9.4789   14.7839   23.0005 C   0  0  0  0  0  0  0  0  0  0  0  0
    9.2868   14.6709   21.2995 S   0  0  0  0  0  0  0  0  0  0  0  0
   10.8162   15.4947   20.7923 C   0  0  1  0  0  0  0  0  0  0  0  0
   11.9566   14.5605   20.5444 C   0  0  0  0  0  0  0  0  0  0  0  0
   10.4350   16.2822   19.5663 C   0  0  0  0  0  0  0  0  0  0  0  0
   10.6903   15.9021   18.4295 O   0  0  0  0  0  0  0  0  0  0  0  0
    9.7242   17.4909   19.9105 C   0  0  0  0  0  0  0  0  0  0  0  0
    9.2351   17.9350   21.1033 C   0  0  0  0  0  0  0  0  0  0  0  0
    8.7612   19.2314   20.8920 C   0  0  0  0  0  0  0  0  0  0  0  0
    8.7464   19.4397   19.5543 C   0  0  0  0  0  0  0  0  0  0  0  0
    9.4034   18.4138   18.9805 O   0  0  0  0  0  0  0  0  0  0  0  0
   10.6225   14.7442   23.6441 N   0  0  0  0  0  0  0  0  0  0  0  0
   10.4803   13.7327   24.5616 N   0  0  0  0  0  0  0  0  0  0  0  0
    9.2294   13.3093   24.4617 C   0  0  0  0  0  0  0  0  0  0  0  0
    8.7419   11.9617   24.5741 C   0  0  0  0  0  0  0  0  0  0  0  0
    9.2429   10.9749   23.7219 C   0  0  0  0  0  0  0  0  0  0  0  0
    8.7306    9.7038   23.8432 C   0  0  0  0  0  0  0  0  0  0  0  0
    7.7202    9.4058   24.6912 N   0  0  0  0  0  0  0  0  0  0  0  0
    7.2258   10.3882   25.4609 C   0  0  0  0  0  0  0  0  0  0  0  0
    7.7099   11.6711   25.4495 C   0  0  0  0  0  0  0  0  0  0  0  0
  1  2  2  0
  2  3  1  0
  2  4  1  0
  4  5  1  0
  5  6  1  0
  6  7  1  0
  7  8  1  0
  8  9  1  6
  8 10  1  0
 10 11  2  0
 10 12  1  0
 12 13  2  0
 13 14  1  0
 14 15  2  0
 15 16  1  0
  6 17  2  0
 17 18  1  0
 18 19  2  0
 19 20  1  0
 20 21  2  0
 21 22  1  0
 22 23  2  0
 23 24  1  0
 24 25  2  0
 19  5  1  0
 25 20  1  0
 16 12  1  0
M  END
>  <energy_score>  (4748) 
-2.235608

>  <inchikey>  (4748) 
RMGQLDUIKGNTAI-UHFFFAOYSA-N

>  <smiles>  (4748) 
C=C(C)Cn1c(SC(C)C(=O)c2ccco2)nnc1-c1ccncc1

>  <ref_pdb>  (4748) 
A0528a

>  <alias>  (4748) 
RMGQLDUIKGNTAI-UHFFFAOYSA-N-P2-P2-P124-601511

>  <HIPPO Pose ID>  (4748) 
518584

>  <name>  (4748) 
RMGQLDUIKGNTAI-UHFFFAOYSA-N-P2-P2-P124-601511

>  <HIPPO Compound ID>  (4748) 
290818

>  <ref_mols>  (4748) 
A4298a,A1778a

>  <distance_score>  (4748) 
1.965099

>  <inspiration_score>  (4748) 
None

$$$$
HNMYZSIGHOQIKX-UHFFFAOYSA-N-P2-P2-P124-601511
     RDKit          3D

 27 30  0  0  0  0  0  0  0  0999 V2000
   11.6515   15.8991   21.2215 C   0  0  0  0  0  0  0  0  0  0  0  0
   10.2358   15.7299   20.6918 C   0  0  1  0  0  0  0  0  0  0  0  0
    8.8963   16.0279   21.8972 S   0  0  0  0  0  0  0  0  0  0  0  0
    9.2695   14.8916   23.0812 C   0  0  0  0  0  0  0  0  0  0  0  0
   10.4399   14.6643   23.6156 N   0  0  0  0  0  0  0  0  0  0  0  0
   10.3911   13.4144   24.1471 N   0  0  0  0  0  0  0  0  0  0  0  0
    9.1576   12.9717   23.9970 C   0  0  0  0  0  0  0  0  0  0  0  0
    8.6986   11.6474   24.2843 C   0  0  0  0  0  0  0  0  0  0  0  0
    9.1746   10.5717   23.5439 C   0  0  0  0  0  0  0  0  0  0  0  0
    8.6644    9.3310   23.8355 C   0  0  0  0  0  0  0  0  0  0  0  0
    7.6927    9.1366   24.7580 N   0  0  0  0  0  0  0  0  0  0  0  0
    7.2588   10.1934   25.4582 C   0  0  0  0  0  0  0  0  0  0  0  0
    7.7572   11.4557   25.2867 C   0  0  0  0  0  0  0  0  0  0  0  0
    8.3668   13.9658   23.4737 N   0  0  0  0  0  0  0  0  0  0  0  0
    6.9396   14.1503   23.6751 C   0  0  0  0  0  0  0  0  0  0  0  0
    6.0787   14.5014   22.5235 C   0  0  0  0  0  0  0  0  0  0  0  0
    5.3436   15.6322   22.2199 C   0  0  0  0  0  0  0  0  0  0  0  0
    4.4645   15.2638   21.1757 C   0  0  0  0  0  0  0  0  0  0  0  0
    4.7518   13.9571   20.8740 C   0  0  0  0  0  0  0  0  0  0  0  0
    5.7526   13.4941   21.6688 O   0  0  0  0  0  0  0  0  0  0  0  0
    9.9789   16.6296   19.4858 C   0  0  0  0  0  0  0  0  0  0  0  0
   10.1382   16.1642   18.3568 O   0  0  0  0  0  0  0  0  0  0  0  0
    9.5182   18.0071   19.7246 C   0  0  0  0  0  0  0  0  0  0  0  0
    8.6938   18.9299   19.0773 C   0  0  0  0  0  0  0  0  0  0  0  0
    8.4576   20.0280   19.8554 C   0  0  0  0  0  0  0  0  0  0  0  0
    9.1651   19.7261   20.9547 C   0  0  0  0  0  0  0  0  0  0  0  0
    9.8379   18.5714   20.8960 O   0  0  0  0  0  0  0  0  0  0  0  0
  2  1  1  1
  2  3  1  0
  3  4  1  0
  4  5  2  0
  5  6  1  0
  6  7  2  0
  7  8  1  0
  8  9  2  0
  9 10  1  0
 10 11  2  0
 11 12  1  0
 12 13  2  0
  7 14  1  0
 14 15  1  0
 15 16  1  0
 16 17  2  0
 17 18  1  0
 18 19  2  0
 19 20  1  0
  2 21  1  0
 21 22  2  0
 21 23  1  0
 23 24  2  0
 24 25  1  0
 25 26  2  0
 26 27  1  0
 14  4  1  0
 20 16  1  0
 27 23  1  0
 13  8  1  0
M  END
>  <energy_score>  (4749) 
-19.683366

>  <inchikey>  (4749) 
HNMYZSIGHOQIKX-UHFFFAOYSA-N

>  <smiles>  (4749) 
CC(Sc1nnc(-c2ccncc2)n1Cc1ccco1)C(=O)c1ccco1

>  <ref_pdb>  (4749) 
A0528a

>  <alias>  (4749) 
HNMYZSIGHOQIKX-UHFFFAOYSA-N-P2-P2-P124-601511

>  <HIPPO Pose ID>  (4749) 
518590

>  <name>  (4749) 
HNMYZSIGHOQIKX-UHFFFAOYSA-N-P2-P2-P124-601511

>  <HIPPO Compound ID>  (4749) 
290821

>  <ref_mols>  (4749) 
A4298a,A1778a

>  <distance_score>  (4749) 
1.909675

>  <inspiration_score>  (4749) 
None

$$$$
XKSBMYJGNSZVCU-UHFFFAOYSA-N-P20-P20-P564-601511
     RDKit          3D

 25 28  0  0  0  0  0  0  0  0999 V2000
   20.5917   24.5463   25.5551 O   0  0  0  0  0  0  0  0  0  0  0  0
   19.5823   23.8653   25.7125 C   0  0  0  0  0  0  0  0  0  0  0  0
   19.4465   22.8107   26.8193 C   0  0  0  0  0  0  0  0  0  0  0  0
   18.4086   21.8424   26.7092 O   0  0  0  0  0  0  0  0  0  0  0  0
   17.1560   22.3804   26.2316 C   0  0  0  0  0  0  0  0  0  0  0  0
   16.5433   23.3511   27.2792 C   0  0  0  0  0  0  0  0  0  0  0  0
   15.0427   23.1425   27.4917 C   0  0  0  0  0  0  0  0  0  0  0  0
   14.3966   22.7811   26.2439 N   0  0  0  0  0  0  0  0  0  0  0  0
   13.3974   23.5323   25.6901 C   0  0  0  0  0  0  0  0  0  0  0  0
   13.7061   24.4319   24.9033 O   0  0  0  0  0  0  0  0  0  0  0  0
   11.9299   23.2045   25.9368 C   0  0  0  0  0  0  0  0  0  0  0  0
   11.0281   23.8242   24.9643 C   0  0  0  0  0  0  0  0  0  0  0  0
    9.7040   23.6861   25.0206 C   0  0  0  0  0  0  0  0  0  0  0  0
    9.0923   22.8410   26.0548 C   0  0  0  0  0  0  0  0  0  0  0  0
    7.8743   22.6825   26.0420 O   0  0  0  0  0  0  0  0  0  0  0  0
    9.9642   22.3401   27.0098 N   0  0  0  0  0  0  0  0  0  0  0  0
   11.3694   22.4872   26.9487 C   0  0  0  0  0  0  0  0  0  0  0  0
   12.1703   21.9224   28.1161 C   0  0  0  0  0  0  0  0  0  0  0  0
   11.4629   21.1075   29.0593 O   0  0  0  0  0  0  0  0  0  0  0  0
   10.1866   21.6466   29.3639 C   0  0  0  0  0  0  0  0  0  0  0  0
    9.3507   21.5946   28.1047 C   0  0  0  0  0  0  0  0  0  0  0  0
   14.8392   21.5744   25.5704 C   0  0  0  0  0  0  0  0  0  0  0  0
   16.2339   21.1610   26.0222 C   0  0  0  0  0  0  0  0  0  0  0  0
   17.4141   23.0792   24.8713 C   0  0  0  0  0  0  0  0  0  0  0  0
   18.4699   24.0677   24.9386 N   0  0  0  0  0  0  0  0  0  0  0  0
  1  2  2  0
  2  3  1  0
  3  4  1  0
  4  5  1  0
  5  6  1  0
  6  7  1  0
  7  8  1  0
  8  9  1  0
  9 10  2  0
  9 11  1  0
 11 12  1  0
 12 13  2  0
 13 14  1  0
 14 15  2  0
 14 16  1  0
 16 17  1  0
 17 18  1  0
 18 19  1  0
 19 20  1  0
 20 21  1  0
  8 22  1  0
 22 23  1  0
  5 24  1  0
 24 25  1  0
 25  2  1  0
 23  5  1  0
 17 11  2  0
 21 16  1  0
M  END
>  <energy_score>  (4750) 
-27.327617

>  <inchikey>  (4750) 
XKSBMYJGNSZVCU-UHFFFAOYSA-N

>  <smiles>  (4750) 
O=C1COC2(CCN(C(=O)c3ccc(=O)n4c3COCC4)CC2)CN1

>  <ref_pdb>  (4750) 
A0528a

>  <alias>  (4750) 
XKSBMYJGNSZVCU-UHFFFAOYSA-N-P20-P20-P564-601511

>  <HIPPO Pose ID>  (4750) 
518704

>  <name>  (4750) 
XKSBMYJGNSZVCU-UHFFFAOYSA-N-P20-P20-P564-601511

>  <HIPPO Compound ID>  (4750) 
308198

>  <ref_mols>  (4750) 
A0525a,A5091a

>  <distance_score>  (4750) 
1.431437

>  <inspiration_score>  (4750) 
None

$$$$
FRDWYKFKOTULFY-UHFFFAOYSA-N-P20-P20-P564-601511
     RDKit          3D

 26 29  0  0  0  0  0  0  0  0999 V2000
   20.4656   23.9555   27.6171 O   0  0  0  0  0  0  0  0  0  0  0  0
   19.3243   24.3528   27.4003 C   0  0  0  0  0  0  0  0  0  0  0  0
   18.7260   25.5927   28.0783 C   0  0  0  0  0  0  0  0  0  0  0  0
   17.5618   26.1796   27.5056 O   0  0  0  0  0  0  0  0  0  0  0  0
   16.5845   25.2141   27.0591 C   0  0  0  0  0  0  0  0  0  0  0  0
   15.4886   26.0302   26.3522 C   0  0  0  0  0  0  0  0  0  0  0  0
   14.3594   25.1467   25.8367 C   0  0  0  0  0  0  0  0  0  0  0  0
   14.1024   24.0215   26.7184 N   0  0  0  0  0  0  0  0  0  0  0  0
   13.5134   22.8711   26.2283 C   0  0  0  0  0  0  0  0  0  0  0  0
   14.1781   21.9442   25.7779 O   0  0  0  0  0  0  0  0  0  0  0  0
   12.0164   22.8675   26.1812 C   0  0  0  0  0  0  0  0  0  0  0  0
   11.3131   23.5144   25.0875 C   0  0  0  0  0  0  0  0  0  0  0  0
   12.0851   24.1511   24.1402 O   0  0  0  0  0  0  0  0  0  0  0  0
    9.9789   23.5150   25.0293 C   0  0  0  0  0  0  0  0  0  0  0  0
    9.1862   22.8032   26.0510 C   0  0  0  0  0  0  0  0  0  0  0  0
    7.9635   22.7733   25.9305 O   0  0  0  0  0  0  0  0  0  0  0  0
    9.9019   22.2632   27.1085 N   0  0  0  0  0  0  0  0  0  0  0  0
   11.3074   22.2650   27.1656 C   0  0  0  0  0  0  0  0  0  0  0  0
   11.9675   21.6676   28.4020 C   0  0  0  0  0  0  0  0  0  0  0  0
   11.1415   20.7634   29.1457 O   0  0  0  0  0  0  0  0  0  0  0  0
    9.8781   21.3552   29.4244 C   0  0  0  0  0  0  0  0  0  0  0  0
    9.1275   21.5492   28.1213 C   0  0  0  0  0  0  0  0  0  0  0  0
   14.4811   24.1488   28.1090 C   0  0  0  0  0  0  0  0  0  0  0  0
   15.9712   24.4634   28.2666 C   0  0  0  0  0  0  0  0  0  0  0  0
   17.2721   24.2560   26.0519 C   0  0  0  0  0  0  0  0  0  0  0  0
   18.4775   23.6527   26.5820 N   0  0  0  0  0  0  0  0  0  0  0  0
  1  2  2  0
  2  3  1  0
  3  4  1  0
  4  5  1  0
  5  6  1  0
  6  7  1  0
  7  8  1  0
  8  9  1  0
  9 10  2  0
  9 11  1  0
 11 12  1  0
 12 13  1  0
 12 14  2  0
 14 15  1  0
 15 16  2  0
 15 17  1  0
 17 18  1  0
 18 19  1  0
 19 20  1  0
 20 21  1  0
 21 22  1  0
  8 23  1  0
 23 24  1  0
  5 25  1  0
 25 26  1  0
 26  2  1  0
 24  5  1  0
 18 11  2  0
 22 17  1  0
M  END
>  <energy_score>  (4751) 
-80.921462

>  <inchikey>  (4751) 
FRDWYKFKOTULFY-UHFFFAOYSA-N

>  <smiles>  (4751) 
O=C1COC2(CCN(C(=O)c3c(O)cc(=O)n4c3COCC4)CC2)CN1

>  <ref_pdb>  (4751) 
A0528a

>  <alias>  (4751) 
FRDWYKFKOTULFY-UHFFFAOYSA-N-P20-P20-P564-601511

>  <HIPPO Pose ID>  (4751) 
518786

>  <name>  (4751) 
FRDWYKFKOTULFY-UHFFFAOYSA-N-P20-P20-P564-601511

>  <HIPPO Compound ID>  (4751) 
308240

>  <ref_mols>  (4751) 
A0525a,A5091a

>  <distance_score>  (4751) 
1.920512

>  <inspiration_score>  (4751) 
None

$$$$
VDGRKPHOAZUDBW-UHFFFAOYSA-N-P338-P124-P338-601511
     RDKit          3D

 23 25  0  0  0  0  0  0  0  0999 V2000
    9.7623   10.2505   23.7500 C   0  0  0  0  0  0  0  0  0  0  0  0
    9.4635   11.5874   23.3620 O   0  0  0  0  0  0  0  0  0  0  0  0
   10.3212   12.5880   23.9162 C   0  0  0  0  0  0  0  0  0  0  0  0
   10.1611   14.0029   23.2706 C   0  0  1  0  0  0  0  0  0  0  0  0
   11.3457   14.8416   23.7760 C   0  0  0  0  0  0  0  0  0  0  0  0
   10.9045   16.1816   23.2987 C   0  0  0  0  0  0  0  0  0  0  0  0
    9.5754   15.8020   22.6744 C   0  0  1  0  0  0  0  0  0  0  0  0
    9.7535   15.2202   21.2979 C   0  0  0  0  0  0  0  0  0  0  0  0
   10.2417   13.8916   21.7357 C   0  0  0  0  0  0  0  0  0  0  0  0
    8.8801   14.8435   23.6146 N   0  0  0  0  0  0  0  0  0  0  0  0
    7.6051   14.0158   23.4311 C   0  0  0  0  0  0  0  0  0  0  0  0
    6.9138   13.8752   22.4797 O   0  0  0  0  0  0  0  0  0  0  0  0
    7.1489   13.3643   24.7746 C   0  0  1  0  0  0  0  0  0  0  0  0
    7.1116   11.8516   24.8419 C   0  0  0  0  0  0  0  0  0  0  0  0
    7.9848   13.8929   26.2865 S   0  0  0  0  0  0  0  0  0  0  0  0
    7.5584   15.5965   26.4128 C   0  0  0  0  0  0  0  0  0  0  0  0
    8.4192   16.3965   27.1504 C   0  0  0  0  0  0  0  0  0  0  0  0
    8.0423   17.6985   27.4326 C   0  0  0  0  0  0  0  0  0  0  0  0
    6.8129   18.1606   26.9770 C   0  0  0  0  0  0  0  0  0  0  0  0
    6.3137   19.9017   27.5038 Br  0  0  0  0  0  0  0  0  0  0  0  0
    6.0179   17.2962   26.2284 C   0  0  0  0  0  0  0  0  0  0  0  0
    4.2711   17.7716   25.6710 Br  0  0  0  0  0  0  0  0  0  0  0  0
    6.3757   16.0202   25.9436 N   0  0  0  0  0  0  0  0  0  0  0  0
  1  2  1  0
  2  3  1  0
  4  3  1  1
  4  5  1  0
  5  6  1  0
  7  6  1  1
  7  8  1  0
  8  9  1  0
  7 10  1  0
 10 11  1  0
 11 12  2  0
 11 13  1  0
 13 14  1  6
 13 15  1  0
 15 16  1  0
 16 17  2  0
 17 18  1  0
 18 19  2  0
 19 20  1  0
 19 21  1  0
 21 22  1  0
 21 23  2  0
  9  4  1  0
 23 16  1  0
 10  4  1  0
M  END
>  <energy_score>  (4752) 
-4.826884

>  <inchikey>  (4752) 
VDGRKPHOAZUDBW-UHFFFAOYSA-N

>  <smiles>  (4752) 
COCC12CCC(CC1)N2C(=O)C(C)Sc1ccc(Br)c(Br)n1

>  <ref_pdb>  (4752) 
A0528a

>  <alias>  (4752) 
VDGRKPHOAZUDBW-UHFFFAOYSA-N-P338-P124-P338-601511

>  <HIPPO Pose ID>  (4752) 
519729

>  <name>  (4752) 
VDGRKPHOAZUDBW-UHFFFAOYSA-N-P338-P124-P338-601511

>  <HIPPO Compound ID>  (4752) 
291534

>  <ref_mols>  (4752) 
A4237a,A1778a

>  <distance_score>  (4752) 
1.506857

>  <inspiration_score>  (4752) 
None

$$$$
DBOKYLOKRAXMAB-UHFFFAOYSA-N-P338-P124-P338-601511
     RDKit          3D

 23 24  0  0  0  0  0  0  0  0999 V2000
   10.3095    9.7304   24.2962 C   0  0  0  0  0  0  0  0  0  0  0  0
   10.9667   11.0007   24.4621 O   0  0  0  0  0  0  0  0  0  0  0  0
   10.0007   12.0391   24.5341 C   0  0  0  0  0  0  0  0  0  0  0  0
   10.4077   13.4964   24.1533 C   0  0  1  0  0  0  0  0  0  0  0  0
   10.8449   13.5073   22.6935 C   0  0  0  0  0  0  0  0  0  0  0  0
   10.6926   14.9508   22.3588 C   0  0  0  0  0  0  0  0  0  0  0  0
    9.7981   15.1770   21.1390 C   0  0  0  0  0  0  0  0  0  0  0  0
   12.0225   15.6606   22.1108 C   0  0  0  0  0  0  0  0  0  0  0  0
   10.0899   15.3990   23.6815 C   0  0  0  0  0  0  0  0  0  0  0  0
    9.1864   14.4513   24.4273 N   0  0  0  0  0  0  0  0  0  0  0  0
    7.8621   13.7951   24.0079 C   0  0  0  0  0  0  0  0  0  0  0  0
    7.2918   13.8208   22.9763 O   0  0  0  0  0  0  0  0  0  0  0  0
    7.2940   13.1229   25.2888 C   0  0  2  0  0  0  0  0  0  0  0  0
    6.9777   11.6437   25.0973 C   0  0  0  0  0  0  0  0  0  0  0  0
    5.7750   13.9705   25.7952 S   0  0  0  0  0  0  0  0  0  0  0  0
    6.3560   15.5782   26.2491 C   0  0  0  0  0  0  0  0  0  0  0  0
    7.5274   15.8074   26.9590 C   0  0  0  0  0  0  0  0  0  0  0  0
    7.8047   17.0958   27.4042 C   0  0  0  0  0  0  0  0  0  0  0  0
    6.8879   18.1142   27.1617 C   0  0  0  0  0  0  0  0  0  0  0  0
    7.2395   19.8020   27.9299 Br  0  0  0  0  0  0  0  0  0  0  0  0
    5.7392   17.8062   26.4444 C   0  0  0  0  0  0  0  0  0  0  0  0
    4.3263   19.0582   26.2231 Br  0  0  0  0  0  0  0  0  0  0  0  0
    5.4779   16.5622   25.9832 N   0  0  0  0  0  0  0  0  0  0  0  0
  1  2  1  0
  2  3  1  0
  4  3  1  6
  4  5  1  0
  5  6  1  0
  6  7  1  0
  6  8  1  0
  6  9  1  0
  9 10  1  0
 10 11  1  0
 11 12  2  0
 11 13  1  0
 13 14  1  6
 13 15  1  0
 15 16  1  0
 16 17  2  0
 17 18  1  0
 18 19  2  0
 19 20  1  0
 19 21  1  0
 21 22  1  0
 21 23  2  0
 10  4  1  0
 23 16  1  0
M  END
>  <energy_score>  (4753) 
-86.035016

>  <inchikey>  (4753) 
DBOKYLOKRAXMAB-UHFFFAOYSA-N

>  <smiles>  (4753) 
COCC1CC(C)(C)CN1C(=O)C(C)Sc1ccc(Br)c(Br)n1

>  <ref_pdb>  (4753) 
A0528a

>  <alias>  (4753) 
DBOKYLOKRAXMAB-UHFFFAOYSA-N-P338-P124-P338-601511

>  <HIPPO Pose ID>  (4753) 
519735

>  <name>  (4753) 
DBOKYLOKRAXMAB-UHFFFAOYSA-N-P338-P124-P338-601511

>  <HIPPO Compound ID>  (4753) 
291537

>  <ref_mols>  (4753) 
A4237a,A1778a

>  <distance_score>  (4753) 
1.709921

>  <inspiration_score>  (4753) 
None

$$$$
SAKFRBDFRWFMPD-UHFFFAOYSA-N-P338-P124-P338-601511
     RDKit          3D

 24 26  0  0  0  0  0  0  0  0999 V2000
    6.8697   11.6183   26.1922 C   0  0  0  0  0  0  0  0  0  0  0  0
    8.0996   11.1871   25.3812 C   0  0  0  0  0  0  0  0  0  0  0  0
    9.0348   12.2823   25.2992 O   0  0  0  0  0  0  0  0  0  0  0  0
    9.7492   12.3764   24.1396 C   0  0  0  0  0  0  0  0  0  0  0  0
    9.7889   11.5228   23.2684 O   0  0  0  0  0  0  0  0  0  0  0  0
   10.5370   13.6912   24.0520 C   0  0  1  0  0  0  0  0  0  0  0  0
   11.9706   13.4474   24.5840 C   0  0  0  0  0  0  0  0  0  0  0  0
   11.7162   13.8253   23.1515 C   0  0  2  0  0  0  0  0  0  0  0  0
   11.7100   15.2299   22.7845 C   0  0  0  0  0  0  0  0  0  0  0  0
   10.9360   15.7510   23.9820 C   0  0  0  0  0  0  0  0  0  0  0  0
    9.5695   15.1134   24.1948 N   0  0  0  0  0  0  0  0  0  0  0  0
    8.3527   15.0475   23.2787 C   0  0  0  0  0  0  0  0  0  0  0  0
    8.2177   15.4052   22.1658 O   0  0  0  0  0  0  0  0  0  0  0  0
    7.2771   14.3023   24.0306 C   0  0  2  0  0  0  0  0  0  0  0  0
    6.8700   13.1882   23.1027 C   0  0  0  0  0  0  0  0  0  0  0  0
    5.7821   15.1658   24.4655 S   0  0  0  0  0  0  0  0  0  0  0  0
    6.3185   16.3432   25.6480 C   0  0  0  0  0  0  0  0  0  0  0  0
    7.4542   16.2568   26.4397 C   0  0  0  0  0  0  0  0  0  0  0  0
    7.7793   17.3312   27.2588 C   0  0  0  0  0  0  0  0  0  0  0  0
    6.9393   18.4404   27.2918 C   0  0  0  0  0  0  0  0  0  0  0  0
    7.4617   19.9010   28.3583 Br  0  0  0  0  0  0  0  0  0  0  0  0
    5.7726   18.4088   26.5422 C   0  0  0  0  0  0  0  0  0  0  0  0
    4.4303   19.7520   26.6900 Br  0  0  0  0  0  0  0  0  0  0  0  0
    5.4639   17.3768   25.7360 N   0  0  0  0  0  0  0  0  0  0  0  0
  1  2  1  0
  2  3  1  0
  3  4  1  0
  4  5  2  0
  6  4  1  6
  6  7  1  0
  8  7  1  1
  8  9  1  0
  9 10  1  0
 10 11  1  0
 11 12  1  0
 12 13  2  0
 12 14  1  0
 14 15  1  6
 14 16  1  0
 16 17  1  0
 17 18  2  0
 18 19  1  0
 19 20  2  0
 20 21  1  0
 20 22  1  0
 22 23  1  0
 22 24  2  0
  8  6  1  0
 24 17  1  0
 11  6  1  0
M  END
>  <energy_score>  (4754) 
-6.625058

>  <inchikey>  (4754) 
SAKFRBDFRWFMPD-UHFFFAOYSA-N

>  <smiles>  (4754) 
CCOC(=O)C12CC1CCN2C(=O)C(C)Sc1ccc(Br)c(Br)n1

>  <ref_pdb>  (4754) 
A0528a

>  <alias>  (4754) 
SAKFRBDFRWFMPD-UHFFFAOYSA-N-P338-P124-P338-601511

>  <HIPPO Pose ID>  (4754) 
519817

>  <name>  (4754) 
SAKFRBDFRWFMPD-UHFFFAOYSA-N-P338-P124-P338-601511

>  <HIPPO Compound ID>  (4754) 
291581

>  <ref_mols>  (4754) 
A4237a,A1778a

>  <distance_score>  (4754) 
1.835822

>  <inspiration_score>  (4754) 
None

$$$$
CBPLCNSZQNSFLL-UHFFFAOYSA-N-P338-P124-P338-601511
     RDKit          3D

 25 27  0  0  0  0  0  0  0  0999 V2000
    9.9662   15.5094   19.2517 C   0  0  0  0  0  0  0  0  0  0  0  0
    9.3740   15.4336   20.5544 O   0  0  0  0  0  0  0  0  0  0  0  0
   10.2629   15.0775   21.5168 C   0  0  0  0  0  0  0  0  0  0  0  0
   11.4057   14.6914   21.2895 O   0  0  0  0  0  0  0  0  0  0  0  0
    9.6975   15.3236   22.9529 C   0  0  2  0  0  0  0  0  0  0  0  0
   10.8470   15.8872   23.7584 C   0  0  0  0  0  0  0  0  0  0  0  0
   11.4769   14.6215   24.2507 C   0  0  0  0  0  0  0  0  0  0  0  0
   10.3961   13.5908   23.9555 C   0  0  0  0  0  0  0  0  0  0  0  0
   10.5360   12.5121   22.8496 C   0  0  0  0  0  0  0  0  0  0  0  0
   10.0866   11.4237   23.8310 C   0  0  0  0  0  0  0  0  0  0  0  0
   10.5094   12.3749   24.9531 C   0  0  0  0  0  0  0  0  0  0  0  0
    8.9051   14.3689   23.9813 N   0  0  0  0  0  0  0  0  0  0  0  0
    7.7636   13.3870   23.7452 C   0  0  0  0  0  0  0  0  0  0  0  0
    7.2505   13.0411   22.7415 O   0  0  0  0  0  0  0  0  0  0  0  0
    7.3055   12.9730   25.1628 C   0  0  2  0  0  0  0  0  0  0  0  0
    7.0658   11.4766   25.2968 C   0  0  0  0  0  0  0  0  0  0  0  0
    5.7863   13.8637   25.5884 S   0  0  0  0  0  0  0  0  0  0  0  0
    6.3738   15.4586   26.0944 C   0  0  0  0  0  0  0  0  0  0  0  0
    7.5334   15.6737   26.8299 C   0  0  0  0  0  0  0  0  0  0  0  0
    7.8049   16.9517   27.3122 C   0  0  0  0  0  0  0  0  0  0  0  0
    6.8922   17.9763   27.0855 C   0  0  0  0  0  0  0  0  0  0  0  0
    7.2335   19.6459   27.8980 Br  0  0  0  0  0  0  0  0  0  0  0  0
    5.7540   17.6844   26.3458 C   0  0  0  0  0  0  0  0  0  0  0  0
    4.3418   18.9399   26.1447 Br  0  0  0  0  0  0  0  0  0  0  0  0
    5.5021   16.4532   25.8425 N   0  0  0  0  0  0  0  0  0  0  0  0
  1  2  1  0
  2  3  1  0
  3  4  2  0
  5  3  1  6
  5  6  1  0
  6  7  1  0
  7  8  1  0
  8  9  1  0
  9 10  1  0
 10 11  1  0
  8 12  1  0
 12 13  1  0
 13 14  2  0
 13 15  1  0
 15 16  1  6
 15 17  1  0
 17 18  1  0
 18 19  2  0
 19 20  1  0
 20 21  2  0
 21 22  1  0
 21 23  1  0
 23 24  1  0
 23 25  2  0
 12  5  1  0
 25 18  1  0
 11  8  1  0
M  END
>  <energy_score>  (4755) 
-3.68695

>  <inchikey>  (4755) 
CBPLCNSZQNSFLL-UHFFFAOYSA-N

>  <smiles>  (4755) 
COC(=O)C1CCC2(CCC2)N1C(=O)C(C)Sc1ccc(Br)c(Br)n1

>  <ref_pdb>  (4755) 
A0528a

>  <alias>  (4755) 
CBPLCNSZQNSFLL-UHFFFAOYSA-N-P338-P124-P338-601511

>  <HIPPO Pose ID>  (4755) 
519835

>  <name>  (4755) 
CBPLCNSZQNSFLL-UHFFFAOYSA-N-P338-P124-P338-601511

>  <HIPPO Compound ID>  (4755) 
291594

>  <ref_mols>  (4755) 
A4237a,A1778a

>  <distance_score>  (4755) 
1.810445

>  <inspiration_score>  (4755) 
None

$$$$
HZSXOYVWKSYWHG-UHFFFAOYSA-N-P338-P124-P338-601511
     RDKit          3D

 27 29  0  0  0  0  0  0  0  0999 V2000
   10.0483   15.4404   18.8907 C   0  0  0  0  0  0  0  0  0  0  0  0
   10.2484   15.5486   20.2944 O   0  0  0  0  0  0  0  0  0  0  0  0
    9.4176   14.8542   21.1340 C   0  0  0  0  0  0  0  0  0  0  0  0
    8.3245   14.3856   20.8592 O   0  0  0  0  0  0  0  0  0  0  0  0
   10.1214   14.7696   22.4998 C   0  0  1  0  0  0  0  0  0  0  0  0
   11.5626   14.3511   22.2250 C   0  0  0  0  0  0  0  0  0  0  0  0
   11.9839   14.0553   23.6056 C   0  0  0  0  0  0  0  0  0  0  0  0
   10.6799   14.3223   24.3474 C   0  0  1  0  0  0  0  0  0  0  0  0
   10.8801   13.6630   25.7048 C   0  0  0  0  0  0  0  0  0  0  0  0
    9.7385   13.7091   26.4072 F   0  0  0  0  0  0  0  0  0  0  0  0
   11.2095   12.3536   25.5943 F   0  0  0  0  0  0  0  0  0  0  0  0
   10.4188   15.8137   24.5357 C   0  0  0  0  0  0  0  0  0  0  0  0
   10.0529   16.1608   23.1249 C   0  0  0  0  0  0  0  0  0  0  0  0
    9.4639   13.8411   23.5446 N   0  0  0  0  0  0  0  0  0  0  0  0
    9.3399   12.3334   23.5847 C   0  0  0  0  0  0  0  0  0  0  0  0
    9.7859   11.5138   22.8676 O   0  0  0  0  0  0  0  0  0  0  0  0
    8.4191   11.9307   24.7834 C   0  0  2  0  0  0  0  0  0  0  0  0
    8.2387   10.4187   24.7818 C   0  0  0  0  0  0  0  0  0  0  0  0
    6.7625   12.6948   24.7764 S   0  0  0  0  0  0  0  0  0  0  0  0
    6.9473   14.2746   25.5478 C   0  0  0  0  0  0  0  0  0  0  0  0
    7.2212   14.4665   26.8950 C   0  0  0  0  0  0  0  0  0  0  0  0
    7.2332   15.7663   27.4176 C   0  0  0  0  0  0  0  0  0  0  0  0
    6.9064   16.8391   26.5936 C   0  0  0  0  0  0  0  0  0  0  0  0
    6.9154   18.5816   27.3305 Br  0  0  0  0  0  0  0  0  0  0  0  0
    6.5866   16.5463   25.2764 C   0  0  0  0  0  0  0  0  0  0  0  0
    6.0039   17.8209   24.0377 Br  0  0  0  0  0  0  0  0  0  0  0  0
    6.6285   15.3034   24.7544 N   0  0  0  0  0  0  0  0  0  0  0  0
  1  2  1  0
  2  3  1  0
  3  4  2  0
  5  3  1  6
  5  6  1  0
  6  7  1  0
  7  8  1  0
  8  9  1  1
  9 10  1  0
  9 11  1  0
  8 12  1  0
 12 13  1  0
  8 14  1  0
 14 15  1  0
 15 16  2  0
 15 17  1  0
 17 18  1  6
 17 19  1  0
 19 20  1  0
 20 21  2  0
 21 22  1  0
 22 23  2  0
 23 24  1  0
 23 25  1  0
 25 26  1  0
 25 27  2  0
 13  5  1  0
 27 20  1  0
 14  5  1  0
M  END
>  <energy_score>  (4756) 
-20.97664

>  <inchikey>  (4756) 
HZSXOYVWKSYWHG-UHFFFAOYSA-N

>  <smiles>  (4756) 
COC(=O)C12CCC(C(F)F)(CC1)N2C(=O)C(C)Sc1ccc(Br)c(Br)n1

>  <ref_pdb>  (4756) 
A0528a

>  <alias>  (4756) 
HZSXOYVWKSYWHG-UHFFFAOYSA-N-P338-P124-P338-601511

>  <HIPPO Pose ID>  (4756) 
519935

>  <name>  (4756) 
HZSXOYVWKSYWHG-UHFFFAOYSA-N-P338-P124-P338-601511

>  <HIPPO Compound ID>  (4756) 
291669

>  <ref_mols>  (4756) 
A4237a,A1778a

>  <distance_score>  (4756) 
1.743208

>  <inspiration_score>  (4756) 
None

$$$$
DKGSHVCPMJGPIM-UHFFFAOYSA-N-P344-P134-P344-601512
     RDKit          3D

 24 26  0  0  0  0  0  0  0  0999 V2000
   12.5114   14.3614   24.5625 C   0  0  0  0  0  0  0  0  0  0  0  0
   11.1663   14.9694   24.1331 C   0  0  0  0  0  0  0  0  0  0  0  0
   10.8327   16.0699   25.1334 C   0  0  0  0  0  0  0  0  0  0  0  0
   10.1338   13.9965   24.3814 O   0  0  0  0  0  0  0  0  0  0  0  0
   10.0780   12.8707   23.6349 C   0  0  0  0  0  0  0  0  0  0  0  0
   10.8888   12.4651   22.8381 O   0  0  0  0  0  0  0  0  0  0  0  0
    8.8676   12.1672   24.0573 C   0  0  0  0  0  0  0  0  0  0  0  0
    8.8912   10.7663   24.1555 C   0  0  0  0  0  0  0  0  0  0  0  0
    7.9274   10.1142   24.9207 C   0  0  0  0  0  0  0  0  0  0  0  0
    6.9999   10.8895   25.5985 C   0  0  0  0  0  0  0  0  0  0  0  0
    6.9689   12.2827   25.4076 C   0  0  0  0  0  0  0  0  0  0  0  0
    7.8237   12.9299   24.5704 C   0  0  0  0  0  0  0  0  0  0  0  0
    6.0335   12.9766   26.2178 N   0  0  0  0  0  0  0  0  0  0  0  0
    5.9242   11.9671   27.5787 S   0  0  0  0  0  0  0  0  0  0  0  0
    7.1867   12.1676   28.2674 O   0  0  0  0  0  0  0  0  0  0  0  0
    4.6422   12.1323   28.2166 O   0  0  0  0  0  0  0  0  0  0  0  0
    6.0380   10.4296   26.6500 C   0  0  0  0  0  0  0  0  0  0  0  0
   11.0653   15.4371   22.6929 C   0  0  0  0  0  0  0  0  0  0  0  0
   12.1556   15.4140   21.8410 C   0  0  0  0  0  0  0  0  0  0  0  0
   11.9626   15.3640   20.4690 C   0  0  0  0  0  0  0  0  0  0  0  0
   10.6935   15.4934   19.9540 C   0  0  0  0  0  0  0  0  0  0  0  0
   10.4739   15.2496   18.6157 N   0  0  0  0  0  0  0  0  0  0  0  0
    9.6326   15.7221   20.7367 N   0  0  0  0  0  0  0  0  0  0  0  0
    9.8365   15.6812   22.0767 C   0  0  0  0  0  0  0  0  0  0  0  0
  1  2  1  0
  2  3  1  0
  2  4  1  0
  4  5  1  0
  5  6  2  0
  5  7  1  0
  7  8  2  0
  8  9  1  0
  9 10  2  0
 10 11  1  0
 11 12  2  0
 11 13  1  0
 13 14  1  0
 14 15  2  0
 14 16  2  0
 14 17  1  0
  2 18  1  0
 18 19  2  0
 19 20  1  0
 20 21  2  0
 21 22  1  0
 21 23  1  0
 23 24  2  0
 12  7  1  0
 24 18  1  0
 17 10  1  0
M  END
>  <energy_score>  (4757) 
-33.483125

>  <inchikey>  (4757) 
DKGSHVCPMJGPIM-UHFFFAOYSA-N

>  <smiles>  (4757) 
CC(C)(OC(=O)c1ccc2c(c1)NS(=O)(=O)C2)c1ccc(N)nc1

>  <ref_pdb>  (4757) 
A2513a

>  <alias>  (4757) 
DKGSHVCPMJGPIM-UHFFFAOYSA-N-P344-P134-P344-601512

>  <HIPPO Pose ID>  (4757) 
520205

>  <name>  (4757) 
DKGSHVCPMJGPIM-UHFFFAOYSA-N-P344-P134-P344-601512

>  <HIPPO Compound ID>  (4757) 
290115

>  <ref_mols>  (4757) 
A4274b,A2513a

>  <distance_score>  (4757) 
1.925111

>  <inspiration_score>  (4757) 
None

$$$$
DNDVSEOECXYBJN-UHFFFAOYSA-N-P134-P134-P344-601512
     RDKit          3D

 26 29  0  0  0  0  0  0  0  0999 V2000
    1.8441   13.9759   19.5446 C   0  0  0  0  0  0  0  0  0  0  0  0
    2.5357   14.2300   20.8489 C   0  0  0  0  0  0  0  0  0  0  0  0
    1.8006   14.3769   22.0174 C   0  0  0  0  0  0  0  0  0  0  0  0
    2.4777   14.5702   23.2226 C   0  0  0  0  0  0  0  0  0  0  0  0
    3.8796   14.5918   23.2588 C   0  0  0  0  0  0  0  0  0  0  0  0
    4.6899   14.6617   24.5568 C   0  0  2  0  0  0  0  0  0  0  0  0
    6.0140   14.0949   24.2616 O   0  0  0  0  0  0  0  0  0  0  0  0
    6.8771   13.7356   25.2247 C   0  0  0  0  0  0  0  0  0  0  0  0
    6.7469   13.8256   26.4359 O   0  0  0  0  0  0  0  0  0  0  0  0
    8.1281   13.2068   24.6462 C   0  0  0  0  0  0  0  0  0  0  0  0
    8.8392   13.9551   23.6921 C   0  0  0  0  0  0  0  0  0  0  0  0
   10.1963   13.7042   23.4799 C   0  0  0  0  0  0  0  0  0  0  0  0
   10.8115   12.7138   24.2372 C   0  0  0  0  0  0  0  0  0  0  0  0
   10.0595   11.8887   25.0708 C   0  0  0  0  0  0  0  0  0  0  0  0
    8.7117   12.0984   25.2707 C   0  0  0  0  0  0  0  0  0  0  0  0
   10.7945   10.8427   25.6881 N   0  0  0  0  0  0  0  0  0  0  0  0
   12.4250   11.3294   25.6919 S   0  0  0  0  0  0  0  0  0  0  0  0
   13.2258   10.1823   25.3220 O   0  0  0  0  0  0  0  0  0  0  0  0
   12.6577   12.0115   26.9485 O   0  0  0  0  0  0  0  0  0  0  0  0
   12.2881   12.5625   24.3796 C   0  0  0  0  0  0  0  0  0  0  0  0
    3.9907   13.9527   25.7465 C   0  0  0  0  0  0  0  0  0  0  0  0
    3.8630   15.0148   26.8326 C   0  0  0  0  0  0  0  0  0  0  0  0
    4.8803   16.0221   26.5381 N   0  0  0  0  0  0  0  0  0  0  0  0
    4.8709   16.1105   25.0603 C   0  0  0  0  0  0  0  0  0  0  0  0
    4.5112   14.5019   22.0175 C   0  0  0  0  0  0  0  0  0  0  0  0
    3.8810   14.3098   20.8307 N   0  0  0  0  0  0  0  0  0  0  0  0
  1  2  1  0
  2  3  2  0
  3  4  1  0
  4  5  2  0
  5  6  1  0
  6  7  1  6
  7  8  1  0
  8  9  2  0
  8 10  1  0
 10 11  2  0
 11 12  1  0
 12 13  2  0
 13 14  1  0
 14 15  2  0
 14 16  1  0
 16 17  1  0
 17 18  2  0
 17 19  2  0
 17 20  1  0
  6 21  1  0
 21 22  1  0
 22 23  1  0
 23 24  1  0
  5 25  1  0
 25 26  2  0
 26  2  1  0
 24  6  1  0
 15 10  1  0
 20 13  1  0
M  END
>  <energy_score>  (4758) 
-28.976453

>  <inchikey>  (4758) 
DNDVSEOECXYBJN-UHFFFAOYSA-N

>  <smiles>  (4758) 
Cc1ccc(C2(OC(=O)c3ccc4c(c3)NS(=O)(=O)C4)CCNC2)cn1

>  <ref_pdb>  (4758) 
A2513a

>  <alias>  (4758) 
DNDVSEOECXYBJN-UHFFFAOYSA-N-P134-P134-P344-601512

>  <HIPPO Pose ID>  (4758) 
520264

>  <name>  (4758) 
DNDVSEOECXYBJN-UHFFFAOYSA-N-P134-P134-P344-601512

>  <HIPPO Compound ID>  (4758) 
290145

>  <ref_mols>  (4758) 
A4274b,A2513a

>  <distance_score>  (4758) 
1.542133

>  <inspiration_score>  (4758) 
None

$$$$
VNQGPMZFHAOWHH-UHFFFAOYSA-N-P487-P28-P487-601512
     RDKit          3D

 24 26  0  0  0  0  0  0  0  0999 V2000
    6.2604   14.0376   22.1287 C   0  0  0  0  0  0  0  0  0  0  0  0
    7.3361   13.2041   22.8114 C   0  0  1  0  0  0  0  0  0  0  0  0
    8.6087   13.7411   22.5621 N   0  0  0  0  0  0  0  0  0  0  0  0
    9.0967   15.1722   22.5985 C   0  0  0  0  0  0  0  0  0  0  0  0
    8.5529   16.1425   22.9142 O   0  0  0  0  0  0  0  0  0  0  0  0
   10.4850   15.1632   22.0832 C   0  0  0  0  0  0  0  0  0  0  0  0
   10.5977   15.1367   20.5389 C   0  0  0  0  0  0  0  0  0  0  0  0
   11.7256   14.6759   19.8505 C   0  0  0  0  0  0  0  0  0  0  0  0
   11.3847   14.7698   18.5402 C   0  0  0  0  0  0  0  0  0  0  0  0
   10.1469   15.3169   18.5067 N   0  0  0  0  0  0  0  0  0  0  0  0
    9.6498   15.5839   19.7180 N   0  0  0  0  0  0  0  0  0  0  0  0
   11.5412   15.9347   22.7657 C   0  0  0  0  0  0  0  0  0  0  0  0
   11.4996   14.4566   22.9756 C   0  0  0  0  0  0  0  0  0  0  0  0
    6.9423   12.7849   24.2082 C   0  0  0  0  0  0  0  0  0  0  0  0
    7.6775   11.5437   24.7097 C   0  0  0  0  0  0  0  0  0  0  0  0
    6.8302   10.9634   25.8358 C   0  0  0  0  0  0  0  0  0  0  0  0
    6.5202   11.9049   26.9211 N   0  0  0  0  0  0  0  0  0  0  0  0
    5.3942   11.4258   27.7881 C   0  0  0  0  0  0  0  0  0  0  0  0
    5.1538    9.9255   28.0247 C   0  0  0  0  0  0  0  0  0  0  0  0
    6.1663    9.3591   28.7044 F   0  0  0  0  0  0  0  0  0  0  0  0
    4.0331    9.7587   28.7611 F   0  0  0  0  0  0  0  0  0  0  0  0
    4.9494    9.2748   26.8609 F   0  0  0  0  0  0  0  0  0  0  0  0
    6.2091   13.2880   26.4961 C   0  0  0  0  0  0  0  0  0  0  0  0
    7.0141   13.8243   25.3093 C   0  0  0  0  0  0  0  0  0  0  0  0
  2  1  1  1
  2  3  1  0
  3  4  1  0
  4  5  2  0
  4  6  1  0
  6  7  1  0
  7  8  1  0
  8  9  2  0
  9 10  1  0
 10 11  1  0
  6 12  1  0
 12 13  1  0
  2 14  1  0
 14 15  1  0
 15 16  1  0
 16 17  1  0
 17 18  1  0
 18 19  1  0
 19 20  1  0
 19 21  1  0
 19 22  1  0
 17 23  1  0
 23 24  1  0
 13  6  1  0
 24 14  1  0
 11  7  2  0
M  END
>  <energy_score>  (4759) 
-37.291231

>  <inchikey>  (4759) 
VNQGPMZFHAOWHH-UHFFFAOYSA-N

>  <smiles>  (4759) 
CC(NC(=O)C1(c2cc[nH]n2)CC1)C1CCN(CC(F)(F)F)CC1

>  <ref_pdb>  (4759) 
A2513a

>  <alias>  (4759) 
VNQGPMZFHAOWHH-UHFFFAOYSA-N-P487-P28-P487-601512

>  <HIPPO Pose ID>  (4759) 
520329

>  <name>  (4759) 
VNQGPMZFHAOWHH-UHFFFAOYSA-N-P487-P28-P487-601512

>  <HIPPO Compound ID>  (4759) 
307166

>  <ref_mols>  (4759) 
A0556a,A4846a

>  <distance_score>  (4759) 
1.209885

>  <inspiration_score>  (4759) 
None

$$$$
IGAYEIJJUOGZDJ-UHFFFAOYSA-N-P487-P28-P487-601512
     RDKit          3D

 25 27  0  0  0  0  0  0  0  0999 V2000
    5.4678   14.4552   21.9384 C   0  0  0  0  0  0  0  0  0  0  0  0
    6.2420   15.0225   23.1155 C   0  0  2  0  0  0  0  0  0  0  0  0
    7.6579   15.1348   22.7916 N   0  0  0  0  0  0  0  0  0  0  0  0
    8.7095   14.0441   22.5100 C   0  0  0  0  0  0  0  0  0  0  0  0
    8.5925   12.8907   22.4170 O   0  0  0  0  0  0  0  0  0  0  0  0
   10.0923   14.6208   22.4533 C   0  0  0  0  0  0  0  0  0  0  0  0
   10.4749   15.1383   21.0543 C   0  0  0  0  0  0  0  0  0  0  0  0
   11.3560   14.5915   20.1578 C   0  0  0  0  0  0  0  0  0  0  0  0
   11.1528   15.3240   18.9783 C   0  0  0  0  0  0  0  0  0  0  0  0
   10.2557   16.2993   19.1441 N   0  0  0  0  0  0  0  0  0  0  0  0
    9.9435   16.2211   20.4385 N   0  0  0  0  0  0  0  0  0  0  0  0
    9.2137   17.2908   21.0497 C   0  0  0  0  0  0  0  0  0  0  0  0
   11.1939   14.0332   23.3142 C   0  0  0  0  0  0  0  0  0  0  0  0
   10.6133   15.3659   23.6557 C   0  0  0  0  0  0  0  0  0  0  0  0
    6.2446   14.0386   24.2711 C   0  0  0  0  0  0  0  0  0  0  0  0
    7.0581   14.4944   25.4517 C   0  0  0  0  0  0  0  0  0  0  0  0
    7.6025   13.2329   26.0821 C   0  0  0  0  0  0  0  0  0  0  0  0
    6.7629   12.0256   26.0586 N   0  0  0  0  0  0  0  0  0  0  0  0
    7.0300   11.0371   24.9389 C   0  0  0  0  0  0  0  0  0  0  0  0
    8.4072   10.5717   24.4610 C   0  0  0  0  0  0  0  0  0  0  0  0
    8.6698    9.3873   25.0399 F   0  0  0  0  0  0  0  0  0  0  0  0
    8.4401   10.3680   23.1380 F   0  0  0  0  0  0  0  0  0  0  0  0
    9.3804   11.4461   24.7532 F   0  0  0  0  0  0  0  0  0  0  0  0
    5.3600   12.4867   26.0515 C   0  0  0  0  0  0  0  0  0  0  0  0
    4.9886   13.4211   24.8567 C   0  0  0  0  0  0  0  0  0  0  0  0
  2  1  1  6
  2  3  1  0
  3  4  1  0
  4  5  2  0
  4  6  1  0
  6  7  1  0
  7  8  2  0
  8  9  1  0
  9 10  2  0
 10 11  1  0
 11 12  1  0
  6 13  1  0
 13 14  1  0
  2 15  1  0
 15 16  1  0
 16 17  1  0
 17 18  1  0
 18 19  1  0
 19 20  1  0
 20 21  1  0
 20 22  1  0
 20 23  1  0
 18 24  1  0
 24 25  1  0
 14  6  1  0
 25 15  1  0
 11  7  1  0
M  END
>  <energy_score>  (4760) 
-0.287296

>  <inchikey>  (4760) 
IGAYEIJJUOGZDJ-UHFFFAOYSA-N

>  <smiles>  (4760) 
CC(NC(=O)C1(c2ccnn2C)CC1)C1CCN(CC(F)(F)F)CC1

>  <ref_pdb>  (4760) 
A2513a

>  <alias>  (4760) 
IGAYEIJJUOGZDJ-UHFFFAOYSA-N-P487-P28-P487-601512

>  <HIPPO Pose ID>  (4760) 
520371

>  <name>  (4760) 
IGAYEIJJUOGZDJ-UHFFFAOYSA-N-P487-P28-P487-601512

>  <HIPPO Compound ID>  (4760) 
307187

>  <ref_mols>  (4760) 
A0556a,A4846a

>  <distance_score>  (4760) 
1.958641

>  <inspiration_score>  (4760) 
None

$$$$
KRYBSYUSRMXLBQ-UHFFFAOYSA-N-P487-P28-P487-601512
     RDKit          3D

 26 27  0  0  0  0  0  0  0  0999 V2000
    5.7033   14.6904   22.2994 C   0  0  0  0  0  0  0  0  0  0  0  0
    6.4676   14.6011   23.6176 C   0  0  2  0  0  0  0  0  0  0  0  0
    7.8280   15.0056   23.3760 N   0  0  0  0  0  0  0  0  0  0  0  0
    8.9423   15.4128   24.3612 C   0  0  0  0  0  0  0  0  0  0  0  0
    8.9120   15.5596   25.5189 O   0  0  0  0  0  0  0  0  0  0  0  0
   10.2787   15.5233   23.6128 C   0  0  0  0  0  0  0  0  0  0  0  0
   10.3136   15.5141   22.1209 C   0  0  0  0  0  0  0  0  0  0  0  0
   11.0554   14.6976   21.2846 C   0  0  0  0  0  0  0  0  0  0  0  0
   10.8621   15.2406   20.0070 C   0  0  0  0  0  0  0  0  0  0  0  0
   11.5094   14.9451   18.7818 N   0  0  0  0  0  0  0  0  0  0  0  0
   11.8166   15.8926   18.0665 O   0  0  0  0  0  0  0  0  0  0  0  0
   11.7703   13.7628   18.5848 O   0  0  0  0  0  0  0  0  0  0  0  0
    9.9542   16.2138   19.9957 N   0  0  0  0  0  0  0  0  0  0  0  0
    9.6970   16.4192   21.2856 N   0  0  0  0  0  0  0  0  0  0  0  0
    8.8234   17.5157   21.5748 C   0  0  0  0  0  0  0  0  0  0  0  0
    6.4846   13.1352   24.0823 C   0  0  0  0  0  0  0  0  0  0  0  0
    7.7067   12.4046   23.5132 C   0  0  0  0  0  0  0  0  0  0  0  0
    8.7162   12.0962   24.5923 C   0  0  0  0  0  0  0  0  0  0  0  0
    8.1304   11.0711   25.4496 N   0  0  0  0  0  0  0  0  0  0  0  0
    8.0882    9.7643   24.7294 C   0  0  0  0  0  0  0  0  0  0  0  0
    9.0866    9.4062   23.6139 C   0  0  0  0  0  0  0  0  0  0  0  0
    8.7024    8.2802   23.0101 F   0  0  0  0  0  0  0  0  0  0  0  0
   10.3108    9.2131   24.0999 F   0  0  0  0  0  0  0  0  0  0  0  0
    9.1798   10.3369   22.6424 F   0  0  0  0  0  0  0  0  0  0  0  0
    6.8046   11.4962   25.9755 C   0  0  0  0  0  0  0  0  0  0  0  0
    6.4069   12.9401   25.6029 C   0  0  0  0  0  0  0  0  0  0  0  0
  2  1  1  6
  2  3  1  0
  3  4  1  0
  4  5  2  0
  4  6  1  0
  6  7  1  0
  7  8  2  0
  8  9  1  0
  9 10  1  0
 10 11  2  0
 10 12  1  0
  9 13  2  0
 13 14  1  0
 14 15  1  0
  2 16  1  0
 16 17  1  0
 17 18  1  0
 18 19  1  0
 19 20  1  0
 20 21  1  0
 21 22  1  0
 21 23  1  0
 21 24  1  0
 19 25  1  0
 25 26  1  0
 14  7  1  0
 26 16  1  0
M  CHG  2  10   1  12  -1
M  END
>  <energy_score>  (4761) 
-20.085877

>  <inchikey>  (4761) 
KRYBSYUSRMXLBQ-UHFFFAOYSA-N

>  <smiles>  (4761) 
CC(NC(=O)Cc1cc([N+](=O)[O-])nn1C)C1CCN(CC(F)(F)F)CC1

>  <ref_pdb>  (4761) 
A2513a

>  <alias>  (4761) 
KRYBSYUSRMXLBQ-UHFFFAOYSA-N-P487-P28-P487-601512

>  <HIPPO Pose ID>  (4761) 
520389

>  <name>  (4761) 
KRYBSYUSRMXLBQ-UHFFFAOYSA-N-P487-P28-P487-601512

>  <HIPPO Compound ID>  (4761) 
307196

>  <ref_mols>  (4761) 
A0556a,A4846a

>  <distance_score>  (4761) 
1.708352

>  <inspiration_score>  (4761) 
None

$$$$
NCLYFUHOMVQGOO-UHFFFAOYSA-N-P487-P28-P487-601512
     RDKit          3D

 26 28  0  0  0  0  0  0  0  0999 V2000
    6.7968   13.9081   22.9028 C   0  0  0  0  0  0  0  0  0  0  0  0
    7.7228   12.9394   23.6307 C   0  0  1  0  0  0  0  0  0  0  0  0
    9.0001   13.5538   23.8417 N   0  0  0  0  0  0  0  0  0  0  0  0
    9.4488   14.6177   24.8833 C   0  0  0  0  0  0  0  0  0  0  0  0
    8.8651   15.0971   25.7760 O   0  0  0  0  0  0  0  0  0  0  0  0
   10.8557   15.0469   24.5024 C   0  0  0  0  0  0  0  0  0  0  0  0
   10.9270   15.3651   23.0473 C   0  0  0  0  0  0  0  0  0  0  0  0
    9.9527   16.0434   22.2941 C   0  0  0  0  0  0  0  0  0  0  0  0
   10.2353   15.7370   20.9993 C   0  0  0  0  0  0  0  0  0  0  0  0
    9.5109   15.9244   19.8783 N   0  0  0  0  0  0  0  0  0  0  0  0
   10.0205   15.4560   18.7896 C   0  0  0  0  0  0  0  0  0  0  0  0
   11.3349   14.8171   18.6535 C   0  0  0  0  0  0  0  0  0  0  0  0
   11.9850   14.6420   19.8042 C   0  0  0  0  0  0  0  0  0  0  0  0
   11.4404   15.0592   21.0018 N   0  0  0  0  0  0  0  0  0  0  0  0
   11.8589   14.7985   22.2735 N   0  0  0  0  0  0  0  0  0  0  0  0
    7.2243   12.3522   24.9643 C   0  0  0  0  0  0  0  0  0  0  0  0
    7.4046   10.8402   24.9026 C   0  0  0  0  0  0  0  0  0  0  0  0
    6.6352   10.0499   25.9413 C   0  0  0  0  0  0  0  0  0  0  0  0
    5.3156   10.5657   26.2814 N   0  0  0  0  0  0  0  0  0  0  0  0
    4.5870    9.7181   27.2751 C   0  0  0  0  0  0  0  0  0  0  0  0
    5.0435    9.6777   28.7303 C   0  0  0  0  0  0  0  0  0  0  0  0
    6.3828    9.6349   28.8412 F   0  0  0  0  0  0  0  0  0  0  0  0
    4.5522    8.6031   29.3796 F   0  0  0  0  0  0  0  0  0  0  0  0
    4.6266   10.7814   29.3968 F   0  0  0  0  0  0  0  0  0  0  0  0
    5.3801   11.9815   26.6448 C   0  0  0  0  0  0  0  0  0  0  0  0
    5.8319   12.7817   25.4205 C   0  0  0  0  0  0  0  0  0  0  0  0
  2  1  1  1
  2  3  1  0
  3  4  1  0
  4  5  2  0
  4  6  1  0
  6  7  1  0
  7  8  1  0
  8  9  2  0
  9 10  1  0
 10 11  2  0
 11 12  1  0
 12 13  2  0
 13 14  1  0
 14 15  1  0
  2 16  1  0
 16 17  1  0
 17 18  1  0
 18 19  1  0
 19 20  1  0
 20 21  1  0
 21 22  1  0
 21 23  1  0
 21 24  1  0
 19 25  1  0
 25 26  1  0
 15  7  2  0
 26 16  1  0
 14  9  1  0
M  END
>  <energy_score>  (4762) 
-32.970289

>  <inchikey>  (4762) 
NCLYFUHOMVQGOO-UHFFFAOYSA-N

>  <smiles>  (4762) 
CC(NC(=O)Cc1cc2ncccn2n1)C1CCN(CC(F)(F)F)CC1

>  <ref_pdb>  (4762) 
A2513a

>  <alias>  (4762) 
NCLYFUHOMVQGOO-UHFFFAOYSA-N-P487-P28-P487-601512

>  <HIPPO Pose ID>  (4762) 
520397

>  <name>  (4762) 
NCLYFUHOMVQGOO-UHFFFAOYSA-N-P487-P28-P487-601512

>  <HIPPO Compound ID>  (4762) 
307200

>  <ref_mols>  (4762) 
A0556a,A4846a

>  <distance_score>  (4762) 
1.451671

>  <inspiration_score>  (4762) 
None

$$$$
IVGDUZQZCUKPHK-UHFFFAOYSA-N-P487-P28-P487-601512
     RDKit          3D

 26 28  0  0  0  0  0  0  0  0999 V2000
    5.7570   14.7423   23.6203 C   0  0  0  0  0  0  0  0  0  0  0  0
    6.7073   13.5437   23.6488 C   0  0  1  0  0  0  0  0  0  0  0  0
    8.0926   13.9304   23.6008 N   0  0  0  0  0  0  0  0  0  0  0  0
    8.9380   14.7632   24.5922 C   0  0  0  0  0  0  0  0  0  0  0  0
    8.6630   15.2006   25.6408 O   0  0  0  0  0  0  0  0  0  0  0  0
   10.3121   15.0807   23.9988 C   0  0  0  0  0  0  0  0  0  0  0  0
   10.6570   14.6812   22.6099 C   0  0  0  0  0  0  0  0  0  0  0  0
   11.6346   13.7865   22.2246 C   0  0  0  0  0  0  0  0  0  0  0  0
   11.7748   13.9609   20.8419 C   0  0  0  0  0  0  0  0  0  0  0  0
   10.9014   14.8139   20.3583 N   0  0  0  0  0  0  0  0  0  0  0  0
   10.2005   15.2032   21.4242 N   0  0  0  0  0  0  0  0  0  0  0  0
    9.1228   16.0925   21.0669 C   0  0  0  0  0  0  0  0  0  0  0  0
    8.1550   16.7456   22.0175 C   0  0  0  0  0  0  0  0  0  0  0  0
    8.4855   18.1057   21.3516 C   0  0  0  0  0  0  0  0  0  0  0  0
    9.7381   17.4740   20.8164 C   0  0  0  0  0  0  0  0  0  0  0  0
    6.3382   12.5682   24.7667 C   0  0  0  0  0  0  0  0  0  0  0  0
    7.2362   11.3326   24.8889 C   0  0  0  0  0  0  0  0  0  0  0  0
    6.6008   10.2970   25.8406 C   0  0  0  0  0  0  0  0  0  0  0  0
    5.3789   10.7919   26.4872 N   0  0  0  0  0  0  0  0  0  0  0  0
    4.6536    9.8020   27.3319 C   0  0  0  0  0  0  0  0  0  0  0  0
    5.1013    9.5678   28.7707 C   0  0  0  0  0  0  0  0  0  0  0  0
    6.4430    9.5724   28.8677 F   0  0  0  0  0  0  0  0  0  0  0  0
    4.6640    8.3878   29.2503 F   0  0  0  0  0  0  0  0  0  0  0  0
    4.6413   10.5407   29.5905 F   0  0  0  0  0  0  0  0  0  0  0  0
    5.6026   12.0843   27.1447 C   0  0  0  0  0  0  0  0  0  0  0  0
    6.1370   13.1505   26.1694 C   0  0  0  0  0  0  0  0  0  0  0  0
  2  1  1  1
  2  3  1  0
  3  4  1  0
  4  5  2  0
  4  6  1  0
  6  7  1  0
  7  8  2  0
  8  9  1  0
  9 10  2  0
 10 11  1  0
 11 12  1  0
 12 13  1  0
 13 14  1  0
 14 15  1  0
  2 16  1  0
 16 17  1  0
 17 18  1  0
 18 19  1  0
 19 20  1  0
 20 21  1  0
 21 22  1  0
 21 23  1  0
 21 24  1  0
 19 25  1  0
 25 26  1  0
 11  7  1  0
 15 12  1  0
 26 16  1  0
M  END
>  <energy_score>  (4763) 
-9.833213

>  <inchikey>  (4763) 
IVGDUZQZCUKPHK-UHFFFAOYSA-N

>  <smiles>  (4763) 
CC(NC(=O)Cc1ccnn1C1CCC1)C1CCN(CC(F)(F)F)CC1

>  <ref_pdb>  (4763) 
A2513a

>  <alias>  (4763) 
IVGDUZQZCUKPHK-UHFFFAOYSA-N-P487-P28-P487-601512

>  <HIPPO Pose ID>  (4763) 
520405

>  <name>  (4763) 
IVGDUZQZCUKPHK-UHFFFAOYSA-N-P487-P28-P487-601512

>  <HIPPO Compound ID>  (4763) 
307204

>  <ref_mols>  (4763) 
A0556a,A4846a

>  <distance_score>  (4763) 
1.376916

>  <inspiration_score>  (4763) 
None

$$$$
OESLURPRBATEFH-UHFFFAOYSA-N-P487-P28-P487-601512
     RDKit          3D

 27 29  0  0  0  0  0  0  0  0999 V2000
    7.4270   16.6537   22.2331 C   0  0  0  0  0  0  0  0  0  0  0  0
    8.6655   15.8054   22.4520 C   0  0  1  0  0  0  0  0  0  0  0  0
    8.2743   14.7534   23.3196 N   0  0  0  0  0  0  0  0  0  0  0  0
    7.2863   13.5905   23.1018 C   0  0  0  0  0  0  0  0  0  0  0  0
    6.6955   13.2680   22.1476 O   0  0  0  0  0  0  0  0  0  0  0  0
    7.0622   12.8726   24.4930 C   0  0  0  0  0  0  0  0  0  0  0  0
    7.6924   11.4959   24.3401 C   0  0  0  0  0  0  0  0  0  0  0  0
    8.7850   11.1537   23.4914 C   0  0  0  0  0  0  0  0  0  0  0  0
    9.0175    9.8246   23.6924 C   0  0  0  0  0  0  0  0  0  0  0  0
    8.1060    9.4323   24.6134 N   0  0  0  0  0  0  0  0  0  0  0  0
    7.3085   10.4264   25.0569 N   0  0  0  0  0  0  0  0  0  0  0  0
    7.5774   13.5796   25.7558 C   0  0  0  0  0  0  0  0  0  0  0  0
    6.9991   12.9852   27.0356 C   0  0  0  0  0  0  0  0  0  0  0  0
    5.6046   13.1690   27.0758 O   0  0  0  0  0  0  0  0  0  0  0  0
    4.9982   12.4865   26.0000 C   0  0  0  0  0  0  0  0  0  0  0  0
    5.5357   12.9656   24.6652 C   0  0  0  0  0  0  0  0  0  0  0  0
    9.4385   15.6035   21.1303 C   0  0  0  0  0  0  0  0  0  0  0  0
   10.5942   16.5770   21.1643 C   0  0  0  0  0  0  0  0  0  0  0  0
   11.6505   16.0968   22.1663 C   0  0  0  0  0  0  0  0  0  0  0  0
   11.9652   14.6817   22.1176 N   0  0  0  0  0  0  0  0  0  0  0  0
   11.3944   13.7919   23.1171 C   0  0  0  0  0  0  0  0  0  0  0  0
   11.5008   14.0128   24.6002 C   0  0  0  0  0  0  0  0  0  0  0  0
   11.1537   15.2401   25.0265 F   0  0  0  0  0  0  0  0  0  0  0  0
   12.7151   13.6907   25.0847 F   0  0  0  0  0  0  0  0  0  0  0  0
   10.6031   13.1648   25.1628 F   0  0  0  0  0  0  0  0  0  0  0  0
   11.5794   14.1968   20.7983 C   0  0  0  0  0  0  0  0  0  0  0  0
   10.0509   14.2980   20.6338 C   0  0  0  0  0  0  0  0  0  0  0  0
  2  1  1  6
  2  3  1  0
  3  4  1  0
  4  5  2  0
  4  6  1  0
  6  7  1  0
  7  8  1  0
  8  9  2  0
  9 10  1  0
 10 11  1  0
  6 12  1  0
 12 13  1  0
 13 14  1  0
 14 15  1  0
 15 16  1  0
  2 17  1  0
 17 18  1  0
 18 19  1  0
 19 20  1  0
 20 21  1  0
 21 22  1  0
 22 23  1  0
 22 24  1  0
 22 25  1  0
 20 26  1  0
 26 27  1  0
 16  6  1  0
 27 17  1  0
 11  7  2  0
M  END
>  <energy_score>  (4764) 
-2.846768

>  <inchikey>  (4764) 
OESLURPRBATEFH-UHFFFAOYSA-N

>  <smiles>  (4764) 
CC(NC(=O)C1(c2cc[nH]n2)CCOCC1)C1CCN(CC(F)(F)F)CC1

>  <ref_pdb>  (4764) 
A2513a

>  <alias>  (4764) 
OESLURPRBATEFH-UHFFFAOYSA-N-P487-P28-P487-601512

>  <HIPPO Pose ID>  (4764) 
520423

>  <name>  (4764) 
OESLURPRBATEFH-UHFFFAOYSA-N-P487-P28-P487-601512

>  <HIPPO Compound ID>  (4764) 
307213

>  <ref_mols>  (4764) 
A0556a,A4846a

>  <distance_score>  (4764) 
1.82895

>  <inspiration_score>  (4764) 
None

$$$$
KTFXTYPKRWHXOC-UHFFFAOYSA-N-P168-P168-P303-601512
     RDKit          3D

 25 26  0  0  0  0  0  0  0  0999 V2000
   12.5985   13.1362   21.8278 N   0  0  0  0  0  0  0  0  0  0  0  0
   12.3345   13.7671   20.8789 C   0  0  0  0  0  0  0  0  0  0  0  0
   11.7856   14.5907   19.7434 C   0  0  0  0  0  0  0  0  0  0  0  0
   10.9275   15.7444   20.1448 N   0  0  0  0  0  0  0  0  0  0  0  0
   10.1199   16.3473   19.0623 C   0  0  0  0  0  0  0  0  0  0  0  0
    9.4520   17.6134   19.4466 C   0  0  0  0  0  0  0  0  0  0  0  0
    8.9313   18.6024   19.7596 N   0  0  0  0  0  0  0  0  0  0  0  0
   10.2937   15.5057   21.3709 C   0  0  0  0  0  0  0  0  0  0  0  0
   11.0963   15.4876   22.5254 C   0  0  0  0  0  0  0  0  0  0  0  0
   10.6730   14.8743   23.6972 C   0  0  0  0  0  0  0  0  0  0  0  0
    9.3701   14.4286   23.7634 C   0  0  0  0  0  0  0  0  0  0  0  0
    8.9214   13.7509   24.8750 N   0  0  0  0  0  0  0  0  0  0  0  0
    7.5062   13.2915   25.2597 C   0  0  0  0  0  0  0  0  0  0  0  0
    6.4873   13.4790   24.7380 O   0  0  0  0  0  0  0  0  0  0  0  0
    7.6475   12.4289   26.5020 C   0  0  0  0  0  0  0  0  0  0  0  0
    6.3569   11.7106   26.8970 C   0  0  0  0  0  0  0  0  0  0  0  0
    5.3786   12.5886   27.6952 C   0  0  1  0  0  0  0  0  0  0  0  0
    4.9949   13.9059   27.0195 C   0  0  0  0  0  0  0  0  0  0  0  0
    3.9370   14.6296   27.8284 C   0  0  0  0  0  0  0  0  0  0  0  0
    2.6986   13.7615   27.9139 C   0  0  0  0  0  0  0  0  0  0  0  0
    3.0078   12.3680   28.4043 C   0  0  0  0  0  0  0  0  0  0  0  0
    2.1904   11.6986   29.0283 O   0  0  0  0  0  0  0  0  0  0  0  0
    4.1971   11.8088   28.0317 N   0  0  0  0  0  0  0  0  0  0  0  0
    8.4977   14.6226   22.6906 C   0  0  0  0  0  0  0  0  0  0  0  0
    8.9609   15.1400   21.4899 C   0  0  0  0  0  0  0  0  0  0  0  0
  1  2  3  0
  2  3  1  0
  3  4  1  0
  4  5  1  0
  5  6  1  0
  6  7  3  0
  4  8  1  0
  8  9  2  0
  9 10  1  0
 10 11  2  0
 11 12  1  0
 12 13  1  0
 13 14  2  0
 13 15  1  0
 15 16  1  0
 17 16  1  6
 17 18  1  0
 18 19  1  0
 19 20  1  0
 20 21  1  0
 21 22  2  0
 21 23  1  0
 11 24  1  0
 24 25  2  0
 25  8  1  0
 23 17  1  0
M  END
>  <energy_score>  (4765) 
-4.752668

>  <inchikey>  (4765) 
KTFXTYPKRWHXOC-UHFFFAOYSA-N

>  <smiles>  (4765) 
N#CCN(CC#N)c1ccc(NC(=O)CCC2CCCC(=O)N2)cc1

>  <ref_pdb>  (4765) 
A2513a

>  <alias>  (4765) 
KTFXTYPKRWHXOC-UHFFFAOYSA-N-P168-P168-P303-601512

>  <HIPPO Pose ID>  (4765) 
520566

>  <name>  (4765) 
KTFXTYPKRWHXOC-UHFFFAOYSA-N-P168-P168-P303-601512

>  <HIPPO Compound ID>  (4765) 
290433

>  <ref_mols>  (4765) 
A3306a,A4320a

>  <distance_score>  (4765) 
1.661349

>  <inspiration_score>  (4765) 
None

$$$$
IOYSKSMWFZRZEZ-UHFFFAOYSA-N-P437-P122-P437-601512
     RDKit          3D

 16 17  0  0  0  0  0  0  0  0999 V2000
    7.9602   10.5684   24.3615 C   0  0  0  0  0  0  0  0  0  0  0  0
    8.5348   11.3487   25.5343 C   0  0  1  0  0  0  0  0  0  0  0  0
    9.9561   11.2527   25.4968 O   0  0  0  0  0  0  0  0  0  0  0  0
    8.0153   12.8122   25.5657 C   0  0  0  0  0  0  0  0  0  0  0  0
    7.3281   13.2355   26.4249 O   0  0  0  0  0  0  0  0  0  0  0  0
    8.5369   13.4790   24.3117 N   0  0  0  0  0  0  0  0  0  0  0  0
    9.9284   14.1785   24.5657 C   0  0  0  0  0  0  0  0  0  0  0  0
    9.6552   14.7910   23.2491 C   0  0  0  0  0  0  0  0  0  0  0  0
   10.2919   14.9951   22.1019 C   0  0  0  0  0  0  0  0  0  0  0  0
    9.7747   15.4793   20.7980 C   0  0  0  0  0  0  0  0  0  0  0  0
   10.9039   15.0640   19.8988 C   0  0  0  0  0  0  0  0  0  0  0  0
   10.8561   14.9982   18.6834 O   0  0  0  0  0  0  0  0  0  0  0  0
   11.9863   14.7428   20.6528 N   0  0  0  0  0  0  0  0  0  0  0  0
   11.6315   14.4180   21.9213 C   0  0  0  0  0  0  0  0  0  0  0  0
   12.1889   13.6843   22.7216 O   0  0  0  0  0  0  0  0  0  0  0  0
    8.2519   14.8657   23.7248 C   0  0  0  0  0  0  0  0  0  0  0  0
  2  1  1  6
  2  3  1  0
  2  4  1  0
  4  5  2  0
  4  6  1  0
  6  7  1  0
  7  8  1  0
  8  9  2  3
  9 10  1  0
 10 11  1  0
 11 12  2  0
 11 13  1  0
 13 14  1  0
 14 15  2  0
  8 16  1  0
 16  6  1  0
 14  9  1  0
M  END
>  <energy_score>  (4766) 
-4.845956

>  <inchikey>  (4766) 
IOYSKSMWFZRZEZ-UHFFFAOYSA-N

>  <smiles>  (4766) 
CC(O)C(=O)N1CC(=C2CC(=O)NC2=O)C1

>  <ref_pdb>  (4766) 
A2513a

>  <alias>  (4766) 
IOYSKSMWFZRZEZ-UHFFFAOYSA-N-P437-P122-P437-601512

>  <HIPPO Pose ID>  (4766) 
521635

>  <name>  (4766) 
IOYSKSMWFZRZEZ-UHFFFAOYSA-N-P437-P122-P437-601512

>  <HIPPO Compound ID>  (4766) 
313563

>  <ref_mols>  (4766) 
A1775a,A4701a

>  <distance_score>  (4766) 
1.970804

>  <inspiration_score>  (4766) 
None

$$$$
QWDUEDSSKYHFHU-UHFFFAOYSA-N-P437-P122-P437-601512
     RDKit          3D

 16 17  0  0  0  0  0  0  0  0999 V2000
   12.3725   13.3835   25.3804 C   0  0  0  0  0  0  0  0  0  0  0  0
   11.4369   14.0115   24.6657 C   0  0  0  0  0  0  0  0  0  0  0  0
   11.5688   14.9587   23.5627 C   0  0  0  0  0  0  0  0  0  0  0  0
   10.3615   14.4130   22.7835 C   0  0  1  0  0  0  0  0  0  0  0  0
   10.9076   14.3191   21.3475 C   0  0  0  0  0  0  0  0  0  0  0  0
   11.9222   13.7004   21.0490 O   0  0  0  0  0  0  0  0  0  0  0  0
   10.1798   15.0830   20.4861 O   0  0  0  0  0  0  0  0  0  0  0  0
   10.7288   15.1458   19.1626 C   0  0  0  0  0  0  0  0  0  0  0  0
    9.8853   12.9929   23.2420 N   0  0  0  0  0  0  0  0  0  0  0  0
    8.5633   12.3208   23.1060 C   0  0  0  0  0  0  0  0  0  0  0  0
    7.5447   12.7272   22.6940 O   0  0  0  0  0  0  0  0  0  0  0  0
    8.6506   10.8754   23.4849 C   0  0  1  0  0  0  0  0  0  0  0  0
    9.3700   10.2761   24.6590 C   0  0  0  0  0  0  0  0  0  0  0  0
    7.8667   10.3081   24.6406 C   0  0  1  0  0  0  0  0  0  0  0  0
    7.0299   11.3967   25.9597 Br  0  0  0  0  0  0  0  0  0  0  0  0
   10.0186   13.6538   24.5627 C   0  0  0  0  0  0  0  0  0  0  0  0
  1  2  2  0
  2  3  1  0
  3  4  1  0
  4  5  1  6
  5  6  2  0
  5  7  1  0
  7  8  1  0
  4  9  1  0
  9 10  1  0
 10 11  2  0
 12 10  1  1
 12 13  1  0
 13 14  1  0
 14 15  1  1
  9 16  1  0
 16  2  1  0
 14 12  1  0
M  END
>  <energy_score>  (4767) 
-2.96808

>  <inchikey>  (4767) 
QWDUEDSSKYHFHU-UHFFFAOYSA-N

>  <smiles>  (4767) 
C=C1CC(C(=O)OC)N(C(=O)C2CC2Br)C1

>  <ref_pdb>  (4767) 
A2513a

>  <alias>  (4767) 
QWDUEDSSKYHFHU-UHFFFAOYSA-N-P437-P122-P437-601512

>  <HIPPO Pose ID>  (4767) 
521695

>  <name>  (4767) 
QWDUEDSSKYHFHU-UHFFFAOYSA-N-P437-P122-P437-601512

>  <HIPPO Compound ID>  (4767) 
313593

>  <ref_mols>  (4767) 
A1775a,A4701a

>  <distance_score>  (4767) 
1.651174

>  <inspiration_score>  (4767) 
None

$$$$
YIHGDMWNOSKHSZ-UHFFFAOYSA-N-P437-P122-P437-601512
     RDKit          3D

 17 18  0  0  0  0  0  0  0  0999 V2000
    9.0711    9.2342   24.1046 C   0  0  0  0  0  0  0  0  0  0  0  0
    8.6305   10.3929   24.9933 C   0  0  2  0  0  0  0  0  0  0  0  0
    6.8441   10.2777   25.2979 S   0  0  0  0  0  0  0  0  0  0  0  0
    8.9873   11.6925   24.3261 C   0  0  0  0  0  0  0  0  0  0  0  0
    8.7778   12.9590   25.1484 C   0  0  0  0  0  0  0  0  0  0  0  0
    8.2953   13.0843   26.2093 O   0  0  0  0  0  0  0  0  0  0  0  0
    9.2694   13.9914   24.1780 N   0  0  0  0  0  0  0  0  0  0  0  0
   10.7942   14.3300   24.4166 C   0  0  0  0  0  0  0  0  0  0  0  0
   10.4364   15.3312   23.3832 C   0  0  0  0  0  0  0  0  0  0  0  0
   10.7329   15.4970   22.0920 C   0  0  0  0  0  0  0  0  0  0  0  0
    9.9143   16.1197   21.0200 C   0  0  0  0  0  0  0  0  0  0  0  0
   10.4916   15.4447   19.8017 C   0  0  0  0  0  0  0  0  0  0  0  0
   10.0313   15.5088   18.6749 O   0  0  0  0  0  0  0  0  0  0  0  0
   11.5854   14.7237   20.1459 N   0  0  0  0  0  0  0  0  0  0  0  0
   11.6307   14.4967   21.4775 C   0  0  0  0  0  0  0  0  0  0  0  0
   12.1373   13.5563   22.0648 O   0  0  0  0  0  0  0  0  0  0  0  0
    9.2021   15.5075   24.2254 C   0  0  0  0  0  0  0  0  0  0  0  0
  2  1  1  6
  2  3  1  0
  2  4  1  0
  4  5  1  0
  5  6  2  0
  5  7  1  0
  7  8  1  0
  8  9  1  0
  9 10  2  3
 10 11  1  0
 11 12  1  0
 12 13  2  0
 12 14  1  0
 14 15  1  0
 15 16  2  0
  9 17  1  0
 17  7  1  0
 15 10  1  0
M  END
>  <energy_score>  (4768) 
-7.56611

>  <inchikey>  (4768) 
YIHGDMWNOSKHSZ-UHFFFAOYSA-N

>  <smiles>  (4768) 
CC(S)CC(=O)N1CC(=C2CC(=O)NC2=O)C1

>  <ref_pdb>  (4768) 
A2513a

>  <alias>  (4768) 
YIHGDMWNOSKHSZ-UHFFFAOYSA-N-P437-P122-P437-601512

>  <HIPPO Pose ID>  (4768) 
521727

>  <name>  (4768) 
YIHGDMWNOSKHSZ-UHFFFAOYSA-N-P437-P122-P437-601512

>  <HIPPO Compound ID>  (4768) 
313609

>  <ref_mols>  (4768) 
A1775a,A4701a

>  <distance_score>  (4768) 
1.829196

>  <inspiration_score>  (4768) 
None

$$$$
TWHKTLLEDDYTGG-UHFFFAOYSA-N-P437-P122-P437-601512
     RDKit          3D

 17 18  0  0  0  0  0  0  0  0999 V2000
    8.9350   10.6379   23.3551 C   0  0  0  0  0  0  0  0  0  0  0  0
    8.5679   10.4442   24.8106 C   0  0  2  0  0  0  0  0  0  0  0  0
    6.8255   10.1504   24.9768 Cl  0  0  0  0  0  0  0  0  0  0  0  0
    8.9907   11.5516   25.7588 C   0  0  0  0  0  0  0  0  0  0  0  0
    8.2820   12.9000   25.6569 C   0  0  0  0  0  0  0  0  0  0  0  0
    7.5983   13.3322   26.5108 O   0  0  0  0  0  0  0  0  0  0  0  0
    8.7262   13.5171   24.3619 N   0  0  0  0  0  0  0  0  0  0  0  0
   10.0761   14.3006   24.5322 C   0  0  0  0  0  0  0  0  0  0  0  0
    9.7381   14.8318   23.1988 C   0  0  0  0  0  0  0  0  0  0  0  0
   10.3442   15.0169   22.0337 C   0  0  0  0  0  0  0  0  0  0  0  0
    9.8005   15.4414   20.7220 C   0  0  0  0  0  0  0  0  0  0  0  0
   10.9359   15.0296   19.8280 C   0  0  0  0  0  0  0  0  0  0  0  0
   10.8788   14.9116   18.6169 O   0  0  0  0  0  0  0  0  0  0  0  0
   12.0350   14.7713   20.5818 N   0  0  0  0  0  0  0  0  0  0  0  0
   11.6930   14.4635   21.8565 C   0  0  0  0  0  0  0  0  0  0  0  0
   12.2594   13.7462   22.6649 O   0  0  0  0  0  0  0  0  0  0  0  0
    8.3465   14.8542   23.7060 C   0  0  0  0  0  0  0  0  0  0  0  0
  2  1  1  6
  2  3  1  0
  2  4  1  0
  4  5  1  0
  5  6  2  0
  5  7  1  0
  7  8  1  0
  8  9  1  0
  9 10  2  3
 10 11  1  0
 11 12  1  0
 12 13  2  0
 12 14  1  0
 14 15  1  0
 15 16  2  0
  9 17  1  0
 17  7  1  0
 15 10  1  0
M  END
>  <energy_score>  (4769) 
-1.602898

>  <inchikey>  (4769) 
TWHKTLLEDDYTGG-UHFFFAOYSA-N

>  <smiles>  (4769) 
CC(Cl)CC(=O)N1CC(=C2CC(=O)NC2=O)C1

>  <ref_pdb>  (4769) 
A2513a

>  <alias>  (4769) 
TWHKTLLEDDYTGG-UHFFFAOYSA-N-P437-P122-P437-601512

>  <HIPPO Pose ID>  (4769) 
521731

>  <name>  (4769) 
TWHKTLLEDDYTGG-UHFFFAOYSA-N-P437-P122-P437-601512

>  <HIPPO Compound ID>  (4769) 
313611

>  <ref_mols>  (4769) 
A1775a,A4701a

>  <distance_score>  (4769) 
1.878086

>  <inspiration_score>  (4769) 
None

$$$$
XAKVKVDJCPBJFZ-UHFFFAOYSA-N-P437-P122-P437-601512
     RDKit          3D

 17 19  0  0  0  0  0  0  0  0999 V2000
    9.4275   10.1830   23.4429 C   0  0  0  0  0  0  0  0  0  0  0  0
    8.4922   10.5436   24.2908 C   0  0  0  0  0  0  0  0  0  0  0  0
    7.9184   10.2585   25.5368 C   0  0  0  0  0  0  0  0  0  0  0  0
    7.3696   11.3576   24.5705 C   0  0  1  0  0  0  0  0  0  0  0  0
    7.4635   12.7700   25.0239 C   0  0  0  0  0  0  0  0  0  0  0  0
    6.9387   13.0878   26.0259 O   0  0  0  0  0  0  0  0  0  0  0  0
    8.1768   13.5920   24.0056 N   0  0  0  0  0  0  0  0  0  0  0  0
    9.7280   13.7118   24.3365 C   0  0  0  0  0  0  0  0  0  0  0  0
    9.6771   14.7680   23.3056 C   0  0  0  0  0  0  0  0  0  0  0  0
   10.3649   15.0757   22.2118 C   0  0  0  0  0  0  0  0  0  0  0  0
    9.9322   15.8595   21.0299 C   0  0  0  0  0  0  0  0  0  0  0  0
   10.7838   15.2012   19.9777 C   0  0  0  0  0  0  0  0  0  0  0  0
   10.5777   15.2212   18.7768 O   0  0  0  0  0  0  0  0  0  0  0  0
   11.8120   14.5490   20.5782 N   0  0  0  0  0  0  0  0  0  0  0  0
   11.5463   14.2706   21.8785 C   0  0  0  0  0  0  0  0  0  0  0  0
   12.0769   13.4694   22.6285 O   0  0  0  0  0  0  0  0  0  0  0  0
    8.3588   15.0993   23.8949 C   0  0  0  0  0  0  0  0  0  0  0  0
  1  2  2  0
  2  3  1  0
  3  4  1  0
  4  5  1  1
  5  6  2  0
  5  7  1  0
  7  8  1  0
  8  9  1  0
  9 10  2  3
 10 11  1  0
 11 12  1  0
 12 13  2  0
 12 14  1  0
 14 15  1  0
 15 16  2  0
  9 17  1  0
  4  2  1  0
 17  7  1  0
 15 10  1  0
M  END
>  <energy_score>  (4770) 
-9.807564

>  <inchikey>  (4770) 
XAKVKVDJCPBJFZ-UHFFFAOYSA-N

>  <smiles>  (4770) 
C=C1CC1C(=O)N1CC(=C2CC(=O)NC2=O)C1

>  <ref_pdb>  (4770) 
A2513a

>  <alias>  (4770) 
XAKVKVDJCPBJFZ-UHFFFAOYSA-N-P437-P122-P437-601512

>  <HIPPO Pose ID>  (4770) 
521735

>  <name>  (4770) 
XAKVKVDJCPBJFZ-UHFFFAOYSA-N-P437-P122-P437-601512

>  <HIPPO Compound ID>  (4770) 
313613

>  <ref_mols>  (4770) 
A1775a,A4701a

>  <distance_score>  (4770) 
1.96399

>  <inspiration_score>  (4770) 
None

$$$$
HZNCJSQVFAVKMJ-UHFFFAOYSA-N-P437-P122-P437-601512
     RDKit          3D

 17 18  0  0  0  0  0  0  0  0999 V2000
   10.8696   15.0504   18.7227 O   0  0  0  0  0  0  0  0  0  0  0  0
   10.8918   15.0568   19.9412 C   0  0  0  0  0  0  0  0  0  0  0  0
    9.7333   15.3867   20.8398 C   0  0  0  0  0  0  0  0  0  0  0  0
   10.2456   14.8480   22.1234 C   0  0  0  0  0  0  0  0  0  0  0  0
    9.6008   14.5464   23.2438 C   0  0  0  0  0  0  0  0  0  0  0  0
    9.8939   13.8760   24.5233 C   0  0  0  0  0  0  0  0  0  0  0  0
    8.4978   13.1794   24.2927 N   0  0  0  0  0  0  0  0  0  0  0  0
    8.0049   12.5059   25.5450 C   0  0  0  0  0  0  0  0  0  0  0  0
    7.3366   12.9216   26.4213 O   0  0  0  0  0  0  0  0  0  0  0  0
    8.6214   11.1206   25.5876 C   0  0  0  0  0  0  0  0  0  0  0  0
    8.2342   10.2554   24.4205 C   0  0  0  0  0  0  0  0  0  0  0  0
    8.8170   10.6490   23.2675 F   0  0  0  0  0  0  0  0  0  0  0  0
    6.8942   10.3019   24.2434 F   0  0  0  0  0  0  0  0  0  0  0  0
    8.2012   14.5717   23.7225 C   0  0  0  0  0  0  0  0  0  0  0  0
   11.6254   14.3759   21.9546 C   0  0  0  0  0  0  0  0  0  0  0  0
   12.2341   13.6942   22.7627 O   0  0  0  0  0  0  0  0  0  0  0  0
   11.9775   14.7537   20.6996 N   0  0  0  0  0  0  0  0  0  0  0  0
  1  2  2  0
  2  3  1  0
  3  4  1  0
  4  5  2  3
  5  6  1  0
  6  7  1  0
  7  8  1  0
  8  9  2  0
  8 10  1  0
 10 11  1  0
 11 12  1  0
 11 13  1  0
  7 14  1  0
  4 15  1  0
 15 16  2  0
 15 17  1  0
 17  2  1  0
 14  5  1  0
M  END
>  <energy_score>  (4771) 
-9.379084

>  <inchikey>  (4771) 
HZNCJSQVFAVKMJ-UHFFFAOYSA-N

>  <smiles>  (4771) 
O=C1CC(=C2CN(C(=O)CC(F)F)C2)C(=O)N1

>  <ref_pdb>  (4771) 
A2513a

>  <alias>  (4771) 
HZNCJSQVFAVKMJ-UHFFFAOYSA-N-P437-P122-P437-601512

>  <HIPPO Pose ID>  (4771) 
521757

>  <name>  (4771) 
HZNCJSQVFAVKMJ-UHFFFAOYSA-N-P437-P122-P437-601512

>  <HIPPO Compound ID>  (4771) 
313624

>  <ref_mols>  (4771) 
A1775a,A4701a

>  <distance_score>  (4771) 
1.991675

>  <inspiration_score>  (4771) 
None

$$$$
AUULVAKKBMJVDP-UHFFFAOYSA-N-P437-P122-P437-601512
     RDKit          3D

 17 18  0  0  0  0  0  0  0  0999 V2000
    6.6696   10.9872   26.7795 N   0  0  0  0  0  0  0  0  0  0  0  0
    7.0006   10.1328   25.6451 O   0  0  0  0  0  0  0  0  0  0  0  0
    8.1842   10.6242   25.0126 C   0  0  0  0  0  0  0  0  0  0  0  0
    7.7557   11.4784   23.8473 C   0  0  0  0  0  0  0  0  0  0  0  0
    7.3769   12.8883   24.2855 C   0  0  0  0  0  0  0  0  0  0  0  0
    6.5807   13.1672   25.1030 O   0  0  0  0  0  0  0  0  0  0  0  0
    8.1972   13.7674   23.3910 N   0  0  0  0  0  0  0  0  0  0  0  0
    9.5849   14.1536   24.0672 C   0  0  0  0  0  0  0  0  0  0  0  0
    9.6231   15.0536   22.8977 C   0  0  0  0  0  0  0  0  0  0  0  0
   10.4113   15.2260   21.8442 C   0  0  0  0  0  0  0  0  0  0  0  0
   10.0134   15.7172   20.5007 C   0  0  0  0  0  0  0  0  0  0  0  0
   11.0821   15.0731   19.6725 C   0  0  0  0  0  0  0  0  0  0  0  0
   11.0487   14.9070   18.4672 O   0  0  0  0  0  0  0  0  0  0  0  0
   12.0848   14.6493   20.4786 N   0  0  0  0  0  0  0  0  0  0  0  0
   11.6551   14.4473   21.7486 C   0  0  0  0  0  0  0  0  0  0  0  0
   12.0899   13.6924   22.6035 O   0  0  0  0  0  0  0  0  0  0  0  0
    8.1800   15.2756   23.1943 C   0  0  0  0  0  0  0  0  0  0  0  0
  1  2  1  0
  2  3  1  0
  3  4  1  0
  4  5  1  0
  5  6  2  0
  5  7  1  0
  7  8  1  0
  8  9  1  0
  9 10  2  3
 10 11  1  0
 11 12  1  0
 12 13  2  0
 12 14  1  0
 14 15  1  0
 15 16  2  0
  9 17  1  0
 17  7  1  0
 15 10  1  0
M  END
>  <energy_score>  (4772) 
-13.916291

>  <inchikey>  (4772) 
AUULVAKKBMJVDP-UHFFFAOYSA-N

>  <smiles>  (4772) 
NOCCC(=O)N1CC(=C2CC(=O)NC2=O)C1

>  <ref_pdb>  (4772) 
A2513a

>  <alias>  (4772) 
AUULVAKKBMJVDP-UHFFFAOYSA-N-P437-P122-P437-601512

>  <HIPPO Pose ID>  (4772) 
521759

>  <name>  (4772) 
AUULVAKKBMJVDP-UHFFFAOYSA-N-P437-P122-P437-601512

>  <HIPPO Compound ID>  (4772) 
313625

>  <ref_mols>  (4772) 
A1775a,A4701a

>  <distance_score>  (4772) 
1.760789

>  <inspiration_score>  (4772) 
None

$$$$
MQRSNEJKUGEBOQ-UHFFFAOYSA-N-P437-P122-P437-601512
     RDKit          3D

 17 18  0  0  0  0  0  0  0  0999 V2000
    9.4239   11.1868   23.2291 C   0  0  0  0  0  0  0  0  0  0  0  0
    8.5540   11.3329   24.2490 C   0  0  0  0  0  0  0  0  0  0  0  0
    7.8860   10.1703   24.8921 C   0  0  0  0  0  0  0  0  0  0  0  0
    8.2886    8.9603   24.2658 O   0  0  0  0  0  0  0  0  0  0  0  0
    8.1549   12.6679   24.8476 C   0  0  0  0  0  0  0  0  0  0  0  0
    7.4440   12.7749   25.7761 O   0  0  0  0  0  0  0  0  0  0  0  0
    8.7572   13.7101   23.9684 N   0  0  0  0  0  0  0  0  0  0  0  0
   10.1647   14.1873   24.5147 C   0  0  0  0  0  0  0  0  0  0  0  0
    9.9631   15.1480   23.4007 C   0  0  0  0  0  0  0  0  0  0  0  0
   10.5360   15.3744   22.2167 C   0  0  0  0  0  0  0  0  0  0  0  0
    9.9123   15.9328   20.9873 C   0  0  0  0  0  0  0  0  0  0  0  0
   10.7428   15.2549   19.9311 C   0  0  0  0  0  0  0  0  0  0  0  0
   10.4642   15.1857   18.7467 O   0  0  0  0  0  0  0  0  0  0  0  0
   11.8415   14.7023   20.5027 N   0  0  0  0  0  0  0  0  0  0  0  0
   11.6725   14.5113   21.8335 C   0  0  0  0  0  0  0  0  0  0  0  0
   12.2024   13.6818   22.5547 O   0  0  0  0  0  0  0  0  0  0  0  0
    8.5599   15.2207   23.9364 C   0  0  0  0  0  0  0  0  0  0  0  0
  1  2  2  0
  2  3  1  0
  3  4  1  0
  2  5  1  0
  5  6  2  0
  5  7  1  0
  7  8  1  0
  8  9  1  0
  9 10  2  3
 10 11  1  0
 11 12  1  0
 12 13  2  0
 12 14  1  0
 14 15  1  0
 15 16  2  0
  9 17  1  0
 17  7  1  0
 15 10  1  0
M  END
>  <energy_score>  (4773) 
-3.734131

>  <inchikey>  (4773) 
MQRSNEJKUGEBOQ-UHFFFAOYSA-N

>  <smiles>  (4773) 
C=C(CO)C(=O)N1CC(=C2CC(=O)NC2=O)C1

>  <ref_pdb>  (4773) 
A2513a

>  <alias>  (4773) 
MQRSNEJKUGEBOQ-UHFFFAOYSA-N-P437-P122-P437-601512

>  <HIPPO Pose ID>  (4773) 
521795

>  <name>  (4773) 
MQRSNEJKUGEBOQ-UHFFFAOYSA-N-P437-P122-P437-601512

>  <HIPPO Compound ID>  (4773) 
313643

>  <ref_mols>  (4773) 
A1775a,A4701a

>  <distance_score>  (4773) 
1.87475

>  <inspiration_score>  (4773) 
None

$$$$
LPNKNLFUSXKKMV-UHFFFAOYSA-N-P77-P77-P183-601513
     RDKit          3D

 26 28  0  0  0  0  0  0  0  0999 V2000
    9.3038   14.0507   20.9355 O   0  0  0  0  0  0  0  0  0  0  0  0
   10.4404   14.3060   20.9356 C   0  0  0  0  0  0  0  0  0  0  0  0
   11.5662   13.8411   21.8748 N   0  0  0  0  0  0  0  0  0  0  0  0
   11.5169   13.0576   23.0417 C   0  0  0  0  0  0  0  0  0  0  0  0
   10.3460   12.0394   22.9033 C   0  0  0  0  0  0  0  0  0  0  0  0
   10.0232   11.3474   24.1173 N   0  0  0  0  0  0  0  0  0  0  0  0
    8.8041   10.5268   24.1340 C   0  0  0  0  0  0  0  0  0  0  0  0
    7.6294   11.1554   24.9335 C   0  0  0  0  0  0  0  0  0  0  0  0
    7.5417   12.6572   24.6529 C   0  0  0  0  0  0  0  0  0  0  0  0
    6.4366   13.2489   25.4116 N   0  0  0  0  0  0  0  0  0  0  0  0
    5.9292   14.7737   24.8925 S   0  0  0  0  0  0  0  0  0  0  0  0
    4.6213   14.9673   25.4799 O   0  0  0  0  0  0  0  0  0  0  0  0
    7.0196   15.6786   25.1819 O   0  0  0  0  0  0  0  0  0  0  0  0
    5.7109   14.6174   23.1129 C   0  0  0  0  0  0  0  0  0  0  0  0
    6.8540   15.0864   22.2547 C   0  0  0  0  0  0  0  0  0  0  0  0
    5.6302   15.9293   22.4319 C   0  0  0  0  0  0  0  0  0  0  0  0
    8.8325   13.3717   24.9987 C   0  0  0  0  0  0  0  0  0  0  0  0
    9.9174   12.3428   25.1318 C   0  0  0  0  0  0  0  0  0  0  0  0
   11.0554   15.1942   19.8803 C   0  0  1  0  0  0  0  0  0  0  0  0
   11.1164   14.5898   18.6598 F   0  0  0  0  0  0  0  0  0  0  0  0
   10.2478   16.3873   19.9141 N   0  0  0  0  0  0  0  0  0  0  0  0
    9.7275   17.0826   18.8804 C   0  0  0  0  0  0  0  0  0  0  0  0
    9.1066   18.1555   19.4655 C   0  0  0  0  0  0  0  0  0  0  0  0
    8.0302   19.4680   18.7013 Br  0  0  0  0  0  0  0  0  0  0  0  0
    9.2292   17.9886   20.8375 C   0  0  0  0  0  0  0  0  0  0  0  0
   10.0087   16.9502   21.1240 N   0  0  0  0  0  0  0  0  0  0  0  0
  1  2  2  0
  2  3  1  0
  3  4  1  0
  4  5  1  0
  5  6  1  0
  6  7  1  0
  7  8  1  0
  8  9  1  0
  9 10  1  0
 10 11  1  0
 11 12  2  0
 11 13  2  0
 11 14  1  0
 14 15  1  0
 15 16  1  0
  9 17  1  0
 17 18  1  0
  2 19  1  0
 19 20  1  6
 19 21  1  0
 21 22  1  0
 22 23  2  0
 23 24  1  0
 23 25  1  0
 25 26  2  0
 18  6  1  0
 26 21  1  0
 16 14  1  0
M  END
>  <energy_score>  (4774) 
-12.573728

>  <inchikey>  (4774) 
LPNKNLFUSXKKMV-UHFFFAOYSA-N

>  <smiles>  (4774) 
O=C(NCCN1CCC(NS(=O)(=O)C2CC2)CC1)C(F)n1cc(Br)cn1

>  <ref_pdb>  (4774) 
A1068a

>  <alias>  (4774) 
LPNKNLFUSXKKMV-UHFFFAOYSA-N-P77-P77-P183-601513

>  <HIPPO Pose ID>  (4774) 
523088

>  <name>  (4774) 
LPNKNLFUSXKKMV-UHFFFAOYSA-N-P77-P77-P183-601513

>  <HIPPO Compound ID>  (4774) 
289510

>  <ref_mols>  (4774) 
A0719a,A3436a

>  <distance_score>  (4774) 
1.640438

>  <inspiration_score>  (4774) 
None

$$$$
IXWFLSHHECQBJH-UHFFFAOYSA-N-P37-P37-P120-601513
     RDKit          3D

 22 24  0  0  0  0  0  0  0  0999 V2000
   10.4978    9.7727   22.1956 O   0  0  0  0  0  0  0  0  0  0  0  0
   10.0739   10.6653   22.9287 C   0  0  0  0  0  0  0  0  0  0  0  0
   10.5282   12.0928   22.8276 C   0  0  0  0  0  0  0  0  0  0  0  0
   10.3136   12.9872   24.0191 C   0  0  0  0  0  0  0  0  0  0  0  0
    8.8487   13.3343   24.2010 C   0  0  0  0  0  0  0  0  0  0  0  0
    8.0731   12.2596   24.8915 C   0  0  0  0  0  0  0  0  0  0  0  0
    7.0540   12.6653   25.7937 C   0  0  0  0  0  0  0  0  0  0  0  0
    6.2992   11.7231   26.4797 C   0  0  0  0  0  0  0  0  0  0  0  0
    5.2910   12.0542   27.3689 N   0  0  0  0  0  0  0  0  0  0  0  0
    4.3689   11.1593   28.2091 C   0  0  0  0  0  0  0  0  0  0  0  0
    4.3595   10.0039   28.3470 O   0  0  0  0  0  0  0  0  0  0  0  0
    3.2831   11.9290   28.8459 C   0  0  2  0  0  0  0  0  0  0  0  0
    3.3470   12.6616   30.1548 C   0  0  0  0  0  0  0  0  0  0  0  0
    2.7641   11.2705   30.1175 C   0  0  1  0  0  0  0  0  0  0  0  0
    1.3454   10.8740   30.1312 C   0  0  0  0  0  0  0  0  0  0  0  0
    0.9005   10.7761   31.3989 F   0  0  0  0  0  0  0  0  0  0  0  0
    1.1808    9.6744   29.5294 F   0  0  0  0  0  0  0  0  0  0  0  0
    0.5787   11.7697   29.4721 F   0  0  0  0  0  0  0  0  0  0  0  0
    6.5244   10.3834   26.2426 C   0  0  0  0  0  0  0  0  0  0  0  0
    7.4795    9.9937   25.3326 C   0  0  0  0  0  0  0  0  0  0  0  0
    8.2657   10.8988   24.6574 C   0  0  0  0  0  0  0  0  0  0  0  0
    9.1350   10.2628   23.7867 N   0  0  0  0  0  0  0  0  0  0  0  0
  1  2  2  0
  2  3  1  0
  3  4  1  0
  4  5  1  0
  5  6  1  0
  6  7  2  0
  7  8  1  0
  8  9  1  0
  9 10  1  0
 10 11  2  0
 12 10  1  1
 12 13  1  0
 13 14  1  0
 14 15  1  6
 15 16  1  0
 15 17  1  0
 15 18  1  0
  8 19  2  0
 19 20  1  0
 20 21  2  0
 21 22  1  0
 22  2  1  0
 21  6  1  0
 14 12  1  0
M  END
>  <energy_score>  (4775) 
-20.088351

>  <inchikey>  (4775) 
IXWFLSHHECQBJH-UHFFFAOYSA-N

>  <smiles>  (4775) 
O=C1CCCc2cc(NC(=O)C3CC3C(F)(F)F)ccc2N1

>  <ref_pdb>  (4775) 
A1068a

>  <alias>  (4775) 
IXWFLSHHECQBJH-UHFFFAOYSA-N-P37-P37-P120-601513

>  <HIPPO Pose ID>  (4775) 
523106

>  <name>  (4775) 
IXWFLSHHECQBJH-UHFFFAOYSA-N-P37-P37-P120-601513

>  <HIPPO Compound ID>  (4775) 
301712

>  <ref_mols>  (4775) 
A1445a,A0310a

>  <distance_score>  (4775) 
1.55032

>  <inspiration_score>  (4775) 
None

$$$$
WLVNSVUQEKNCRR-UHFFFAOYSA-N-P37-P37-P120-601513
     RDKit          3D

 23 24  0  0  0  0  0  0  0  0999 V2000
    3.0088   12.7561   28.1603 C   0  0  0  0  0  0  0  0  0  0  0  0
    3.2625   12.1959   29.5556 C   0  0  0  0  0  0  0  0  0  0  0  0
    3.2897   10.6462   29.6809 C   0  0  2  0  0  0  0  0  0  0  0  0
    4.1300    9.8530   28.6349 C   0  0  0  0  0  0  0  0  0  0  0  0
    5.4573   10.5316   28.3144 C   0  0  0  0  0  0  0  0  0  0  0  0
    5.8998   11.3523   29.0214 O   0  0  0  0  0  0  0  0  0  0  0  0
    5.9584   10.0128   26.9306 N   0  0  0  0  0  0  0  0  0  0  0  0
    7.0050   10.4488   26.1312 C   0  0  0  0  0  0  0  0  0  0  0  0
    7.6163    9.7278   25.1077 C   0  0  0  0  0  0  0  0  0  0  0  0
    8.5918   10.2828   24.2773 C   0  0  0  0  0  0  0  0  0  0  0  0
    8.7930   11.6417   24.3701 C   0  0  0  0  0  0  0  0  0  0  0  0
    8.2358   12.3660   25.4231 C   0  0  0  0  0  0  0  0  0  0  0  0
    7.3736   11.7575   26.3155 C   0  0  0  0  0  0  0  0  0  0  0  0
    8.4537   13.8371   25.5748 C   0  0  0  0  0  0  0  0  0  0  0  0
    7.4754   14.5219   24.6585 C   0  0  0  0  0  0  0  0  0  0  0  0
    7.6121   14.0603   23.2176 C   0  0  0  0  0  0  0  0  0  0  0  0
    8.9498   13.4565   22.7682 C   0  0  0  0  0  0  0  0  0  0  0  0
    9.5422   13.8816   21.7836 O   0  0  0  0  0  0  0  0  0  0  0  0
    9.4350   12.3122   23.3405 N   0  0  0  0  0  0  0  0  0  0  0  0
    1.8510   10.1448   29.7015 C   0  0  0  0  0  0  0  0  0  0  0  0
    1.1944   10.6047   30.7881 F   0  0  0  0  0  0  0  0  0  0  0  0
    1.7998    8.7978   29.7355 F   0  0  0  0  0  0  0  0  0  0  0  0
    1.1661   10.5418   28.6057 F   0  0  0  0  0  0  0  0  0  0  0  0
  1  2  1  0
  3  2  1  6
  3  4  1  0
  4  5  1  0
  5  6  2  0
  5  7  1  0
  7  8  1  0
  8  9  2  0
  9 10  1  0
 10 11  2  0
 11 12  1  0
 12 13  2  0
 12 14  1  0
 14 15  1  0
 15 16  1  0
 16 17  1  0
 17 18  2  0
 17 19  1  0
  3 20  1  0
 20 21  1  0
 20 22  1  0
 20 23  1  0
 13  8  1  0
 19 11  1  0
M  END
>  <energy_score>  (4776) 
-2.708391

>  <inchikey>  (4776) 
WLVNSVUQEKNCRR-UHFFFAOYSA-N

>  <smiles>  (4776) 
CCC(CC(=O)Nc1ccc2c(c1)CCCC(=O)N2)C(F)(F)F

>  <ref_pdb>  (4776) 
A1068a

>  <alias>  (4776) 
WLVNSVUQEKNCRR-UHFFFAOYSA-N-P37-P37-P120-601513

>  <HIPPO Pose ID>  (4776) 
523108

>  <name>  (4776) 
WLVNSVUQEKNCRR-UHFFFAOYSA-N-P37-P37-P120-601513

>  <HIPPO Compound ID>  (4776) 
301713

>  <ref_mols>  (4776) 
A1445a,A0310a

>  <distance_score>  (4776) 
1.672035

>  <inspiration_score>  (4776) 
None

$$$$
WLVNSVUQEKNCRR-UHFFFAOYSA-N-P120-P37-P120-601513
     RDKit          3D

 23 24  0  0  0  0  0  0  0  0999 V2000
    2.3484   13.1262   28.9540 C   0  0  0  0  0  0  0  0  0  0  0  0
    3.0269   12.2379   29.9902 C   0  0  0  0  0  0  0  0  0  0  0  0
    3.0175   10.7173   29.6984 C   0  0  2  0  0  0  0  0  0  0  0  0
    3.5670   10.2175   28.3419 C   0  0  0  0  0  0  0  0  0  0  0  0
    4.7789   10.9548   27.8003 C   0  0  0  0  0  0  0  0  0  0  0  0
    5.1291   11.9746   28.2476 O   0  0  0  0  0  0  0  0  0  0  0  0
    5.3049   10.1606   26.5716 N   0  0  0  0  0  0  0  0  0  0  0  0
    6.2613   10.4928   25.6329 C   0  0  0  0  0  0  0  0  0  0  0  0
    7.0753    9.6092   24.9591 C   0  0  0  0  0  0  0  0  0  0  0  0
    8.1113   10.0679   24.1473 C   0  0  0  0  0  0  0  0  0  0  0  0
    8.3187   11.4409   24.0084 C   0  0  0  0  0  0  0  0  0  0  0  0
    7.3951   12.3270   24.5422 C   0  0  0  0  0  0  0  0  0  0  0  0
    6.4094   11.8392   25.3903 C   0  0  0  0  0  0  0  0  0  0  0  0
    7.3520   13.7940   24.2840 C   0  0  0  0  0  0  0  0  0  0  0  0
    8.5687   14.4584   24.8565 C   0  0  0  0  0  0  0  0  0  0  0  0
    9.7276   14.2836   23.9143 C   0  0  0  0  0  0  0  0  0  0  0  0
   10.2907   12.8934   23.7772 C   0  0  0  0  0  0  0  0  0  0  0  0
   11.4952   12.6759   23.9049 O   0  0  0  0  0  0  0  0  0  0  0  0
    9.5335   11.8215   23.4365 N   0  0  0  0  0  0  0  0  0  0  0  0
    1.5975   10.1914   29.8503 C   0  0  0  0  0  0  0  0  0  0  0  0
    1.1204   10.4277   31.0891 F   0  0  0  0  0  0  0  0  0  0  0  0
    1.5528    8.8556   29.6436 F   0  0  0  0  0  0  0  0  0  0  0  0
    0.7551   10.7550   28.9586 F   0  0  0  0  0  0  0  0  0  0  0  0
  1  2  1  0
  3  2  1  6
  3  4  1  0
  4  5  1  0
  5  6  2  0
  5  7  1  0
  7  8  1  0
  8  9  2  0
  9 10  1  0
 10 11  2  0
 11 12  1  0
 12 13  2  0
 12 14  1  0
 14 15  1  0
 15 16  1  0
 16 17  1  0
 17 18  2  0
 17 19  1  0
  3 20  1  0
 20 21  1  0
 20 22  1  0
 20 23  1  0
 13  8  1  0
 19 11  1  0
M  END
>  <energy_score>  (4777) 
-2.934118

>  <inchikey>  (4777) 
WLVNSVUQEKNCRR-UHFFFAOYSA-N

>  <smiles>  (4777) 
CCC(CC(=O)Nc1ccc2c(c1)CCCC(=O)N2)C(F)(F)F

>  <ref_pdb>  (4777) 
A1068a

>  <alias>  (4777) 
WLVNSVUQEKNCRR-UHFFFAOYSA-N-P120-P37-P120-601513

>  <HIPPO Pose ID>  (4777) 
523109

>  <name>  (4777) 
WLVNSVUQEKNCRR-UHFFFAOYSA-N-P120-P37-P120-601513

>  <HIPPO Compound ID>  (4777) 
301713

>  <ref_mols>  (4777) 
A1445a,A0310a

>  <distance_score>  (4777) 
1.687028

>  <inspiration_score>  (4777) 
None

$$$$
LXYJOOHZKJMTLL-UHFFFAOYSA-N-P120-P37-P120-601513
     RDKit          3D

 23 24  0  0  0  0  0  0  0  0999 V2000
    3.8948   11.0665   30.3708 C   0  0  0  0  0  0  0  0  0  0  0  0
    2.6987   11.2226   29.4399 C   0  0  1  0  0  0  0  0  0  0  0  0
    2.9714   10.6507   28.0499 C   0  0  1  0  0  0  0  0  0  0  0  0
    1.8215   10.7791   27.3255 F   0  0  0  0  0  0  0  0  0  0  0  0
    4.0855   11.4479   27.3754 C   0  0  0  0  0  0  0  0  0  0  0  0
    4.2035   12.5978   27.5736 O   0  0  0  0  0  0  0  0  0  0  0  0
    4.9375   10.4799   26.4905 N   0  0  0  0  0  0  0  0  0  0  0  0
    5.9963   10.7402   25.6390 C   0  0  0  0  0  0  0  0  0  0  0  0
    6.8221    9.7676   25.1141 C   0  0  0  0  0  0  0  0  0  0  0  0
    7.9327   10.1001   24.3367 C   0  0  0  0  0  0  0  0  0  0  0  0
    8.2319   11.4439   24.1085 C   0  0  0  0  0  0  0  0  0  0  0  0
    7.3320   12.4236   24.5178 C   0  0  0  0  0  0  0  0  0  0  0  0
    6.2432   12.0494   25.3057 C   0  0  0  0  0  0  0  0  0  0  0  0
    7.3173   13.8789   24.1584 C   0  0  0  0  0  0  0  0  0  0  0  0
    8.5882   14.4654   23.6205 C   0  0  0  0  0  0  0  0  0  0  0  0
    9.7608   14.0275   24.4530 C   0  0  0  0  0  0  0  0  0  0  0  0
   10.3108   12.7407   23.9052 C   0  0  0  0  0  0  0  0  0  0  0  0
   11.5215   12.5511   23.8245 O   0  0  0  0  0  0  0  0  0  0  0  0
    9.4938   11.7037   23.5743 N   0  0  0  0  0  0  0  0  0  0  0  0
    1.4717   10.5314   29.9754 C   0  0  0  0  0  0  0  0  0  0  0  0
    1.2674   10.8339   31.2747 F   0  0  0  0  0  0  0  0  0  0  0  0
    1.5820    9.1872   29.8812 F   0  0  0  0  0  0  0  0  0  0  0  0
    0.3696   10.9042   29.2950 F   0  0  0  0  0  0  0  0  0  0  0  0
  2  1  1  1
  2  3  1  0
  3  4  1  6
  3  5  1  0
  5  6  2  0
  5  7  1  0
  7  8  1  0
  8  9  2  0
  9 10  1  0
 10 11  2  0
 11 12  1  0
 12 13  2  0
 12 14  1  0
 14 15  1  0
 15 16  1  0
 16 17  1  0
 17 18  2  0
 17 19  1  0
  2 20  1  0
 20 21  1  0
 20 22  1  0
 20 23  1  0
 13  8  1  0
 19 11  1  0
M  END
>  <energy_score>  (4778) 
-0.823363

>  <inchikey>  (4778) 
LXYJOOHZKJMTLL-UHFFFAOYSA-N

>  <smiles>  (4778) 
CC(C(F)C(=O)Nc1ccc2c(c1)CCCC(=O)N2)C(F)(F)F

>  <ref_pdb>  (4778) 
A1068a

>  <alias>  (4778) 
LXYJOOHZKJMTLL-UHFFFAOYSA-N-P120-P37-P120-601513

>  <HIPPO Pose ID>  (4778) 
523111

>  <name>  (4778) 
LXYJOOHZKJMTLL-UHFFFAOYSA-N-P120-P37-P120-601513

>  <HIPPO Compound ID>  (4778) 
301714

>  <ref_mols>  (4778) 
A1445a,A0310a

>  <distance_score>  (4778) 
1.840719

>  <inspiration_score>  (4778) 
None

$$$$
CZDFWKHSYJDYHV-UHFFFAOYSA-N-P120-P37-P120-601513
     RDKit          3D

 23 25  0  0  0  0  0  0  0  0999 V2000
    3.5563   11.7969   30.0998 C   0  0  0  0  0  0  0  0  0  0  0  0
    3.0285   10.4855   29.5615 C   0  0  2  0  0  0  0  0  0  0  0  0
    1.5819   10.2753   29.8784 C   0  0  0  0  0  0  0  0  0  0  0  0
    1.3563   10.3803   31.2055 F   0  0  0  0  0  0  0  0  0  0  0  0
    1.1708    9.0456   29.4844 F   0  0  0  0  0  0  0  0  0  0  0  0
    0.8140   11.1851   29.2389 F   0  0  0  0  0  0  0  0  0  0  0  0
    4.0227    9.3399   29.4878 C   0  0  0  0  0  0  0  0  0  0  0  0
    3.4852    9.9208   28.2073 C   0  0  2  0  0  0  0  0  0  0  0  0
    4.2764   10.7932   27.3042 C   0  0  0  0  0  0  0  0  0  0  0  0
    4.0885   11.9417   27.3590 O   0  0  0  0  0  0  0  0  0  0  0  0
    5.3126    9.9879   26.4966 N   0  0  0  0  0  0  0  0  0  0  0  0
    6.2389   10.4041   25.5500 C   0  0  0  0  0  0  0  0  0  0  0  0
    7.1640    9.5672   24.9557 C   0  0  0  0  0  0  0  0  0  0  0  0
    8.1944   10.0662   24.1632 C   0  0  0  0  0  0  0  0  0  0  0  0
    8.3367   11.4441   24.0176 C   0  0  0  0  0  0  0  0  0  0  0  0
    7.3400   12.2909   24.4905 C   0  0  0  0  0  0  0  0  0  0  0  0
    6.3026   11.7450   25.2508 C   0  0  0  0  0  0  0  0  0  0  0  0
    7.1880   13.7639   24.2554 C   0  0  0  0  0  0  0  0  0  0  0  0
    8.3889   14.5151   23.7552 C   0  0  0  0  0  0  0  0  0  0  0  0
    9.6217   14.1353   24.5325 C   0  0  0  0  0  0  0  0  0  0  0  0
   10.2829   12.9353   23.9106 C   0  0  0  0  0  0  0  0  0  0  0  0
   11.5052   12.8366   23.8345 O   0  0  0  0  0  0  0  0  0  0  0  0
    9.5597   11.8635   23.4988 N   0  0  0  0  0  0  0  0  0  0  0  0
  2  1  1  6
  2  3  1  0
  3  4  1  0
  3  5  1  0
  3  6  1  0
  2  7  1  0
  7  8  1  0
  8  9  1  6
  9 10  2  0
  9 11  1  0
 11 12  1  0
 12 13  2  0
 13 14  1  0
 14 15  2  0
 15 16  1  0
 16 17  2  0
 16 18  1  0
 18 19  1  0
 19 20  1  0
 20 21  1  0
 21 22  2  0
 21 23  1  0
  8  2  1  0
 17 12  1  0
 23 15  1  0
M  END
>  <energy_score>  (4779) 
-37.131741

>  <inchikey>  (4779) 
CZDFWKHSYJDYHV-UHFFFAOYSA-N

>  <smiles>  (4779) 
CC1(C(F)(F)F)CC1C(=O)Nc1ccc2c(c1)CCCC(=O)N2

>  <ref_pdb>  (4779) 
A1068a

>  <alias>  (4779) 
CZDFWKHSYJDYHV-UHFFFAOYSA-N-P120-P37-P120-601513

>  <HIPPO Pose ID>  (4779) 
523113

>  <name>  (4779) 
CZDFWKHSYJDYHV-UHFFFAOYSA-N-P120-P37-P120-601513

>  <HIPPO Compound ID>  (4779) 
301715

>  <ref_mols>  (4779) 
A1445a,A0310a

>  <distance_score>  (4779) 
1.72829

>  <inspiration_score>  (4779) 
None

$$$$
JTNWEYXLAOZKDY-UHFFFAOYSA-N-P37-P37-P120-601513
     RDKit          3D

 23 25  0  0  0  0  0  0  0  0999 V2000
   10.4830    9.8137   22.3140 O   0  0  0  0  0  0  0  0  0  0  0  0
   10.0117   10.6887   23.0368 C   0  0  0  0  0  0  0  0  0  0  0  0
   10.3941   12.1296   22.9018 C   0  0  0  0  0  0  0  0  0  0  0  0
   10.2657   12.9810   24.1353 C   0  0  0  0  0  0  0  0  0  0  0  0
    8.8210   13.3329   24.4418 C   0  0  0  0  0  0  0  0  0  0  0  0
    8.0116   12.2323   25.0520 C   0  0  0  0  0  0  0  0  0  0  0  0
    6.9447   12.6154   25.9165 C   0  0  0  0  0  0  0  0  0  0  0  0
    6.0906   11.6681   26.4728 C   0  0  0  0  0  0  0  0  0  0  0  0
    4.9614   11.9545   27.2255 N   0  0  0  0  0  0  0  0  0  0  0  0
    4.5269   13.2608   27.9260 C   0  0  0  0  0  0  0  0  0  0  0  0
    5.0130   14.3235   27.9157 O   0  0  0  0  0  0  0  0  0  0  0  0
    3.1658   12.9341   28.6524 C   0  0  2  0  0  0  0  0  0  0  0  0
    2.7186   13.9025   29.7797 C   0  0  0  0  0  0  0  0  0  0  0  0
    3.2490   12.8886   30.8019 C   0  0  0  0  0  0  0  0  0  0  0  0
    3.1372   11.7883   29.7261 C   0  0  1  0  0  0  0  0  0  0  0  0
    1.8842   10.9396   29.7671 C   0  0  0  0  0  0  0  0  0  0  0  0
    1.7220   10.3836   30.9855 F   0  0  0  0  0  0  0  0  0  0  0  0
    1.9696    9.9395   28.8583 F   0  0  0  0  0  0  0  0  0  0  0  0
    0.7830   11.6599   29.4727 F   0  0  0  0  0  0  0  0  0  0  0  0
    6.3059   10.3356   26.1987 C   0  0  0  0  0  0  0  0  0  0  0  0
    7.3408    9.9701   25.3592 C   0  0  0  0  0  0  0  0  0  0  0  0
    8.1900   10.8821   24.7649 C   0  0  0  0  0  0  0  0  0  0  0  0
    9.0864   10.2636   23.9030 N   0  0  0  0  0  0  0  0  0  0  0  0
  1  2  2  0
  2  3  1  0
  3  4  1  0
  4  5  1  0
  5  6  1  0
  6  7  2  0
  7  8  1  0
  8  9  1  0
  9 10  1  0
 10 11  2  0
 12 10  1  1
 12 13  1  0
 13 14  1  0
 14 15  1  0
 15 16  1  1
 16 17  1  0
 16 18  1  0
 16 19  1  0
  8 20  2  0
 20 21  1  0
 21 22  2  0
 22 23  1  0
 23  2  1  0
 22  6  1  0
 15 12  1  0
M  END
>  <energy_score>  (4780) 
-30.215805

>  <inchikey>  (4780) 
JTNWEYXLAOZKDY-UHFFFAOYSA-N

>  <smiles>  (4780) 
O=C1CCCc2cc(NC(=O)C3CCC3C(F)(F)F)ccc2N1

>  <ref_pdb>  (4780) 
A1068a

>  <alias>  (4780) 
JTNWEYXLAOZKDY-UHFFFAOYSA-N-P37-P37-P120-601513

>  <HIPPO Pose ID>  (4780) 
523114

>  <name>  (4780) 
JTNWEYXLAOZKDY-UHFFFAOYSA-N-P37-P37-P120-601513

>  <HIPPO Compound ID>  (4780) 
301716

>  <ref_mols>  (4780) 
A1445a,A0310a

>  <distance_score>  (4780) 
1.918105

>  <inspiration_score>  (4780) 
None

$$$$
LGQHBCWYTJUKPD-UHFFFAOYSA-N-P120-P37-P120-601513
     RDKit          3D

 23 25  0  0  0  0  0  0  0  0999 V2000
    9.9346    9.7482   22.6626 O   0  0  0  0  0  0  0  0  0  0  0  0
    9.4383   10.6461   23.3430 C   0  0  0  0  0  0  0  0  0  0  0  0
   10.0729   12.0201   23.4829 C   0  0  0  0  0  0  0  0  0  0  0  0
    9.4420   13.1182   24.3034 C   0  0  0  0  0  0  0  0  0  0  0  0
    7.9524   13.2823   24.1620 C   0  0  0  0  0  0  0  0  0  0  0  0
    7.2014   12.2444   24.9238 C   0  0  0  0  0  0  0  0  0  0  0  0
    6.2334   12.6703   25.8491 C   0  0  0  0  0  0  0  0  0  0  0  0
    5.5756   11.7280   26.6164 C   0  0  0  0  0  0  0  0  0  0  0  0
    4.7562   12.0546   27.6642 N   0  0  0  0  0  0  0  0  0  0  0  0
    4.5095   11.3384   28.9949 C   0  0  0  0  0  0  0  0  0  0  0  0
    5.0189   10.3959   29.4512 O   0  0  0  0  0  0  0  0  0  0  0  0
    3.3525   11.9740   29.6934 C   0  0  2  0  0  0  0  0  0  0  0  0
    2.6813   13.0109   28.9292 O   0  0  0  0  0  0  0  0  0  0  0  0
    3.1864   12.1424   31.1735 C   0  0  0  0  0  0  0  0  0  0  0  0
    2.5517   10.9602   30.4819 C   0  0  1  0  0  0  0  0  0  0  0  0
    1.1434   10.7274   30.1723 C   0  0  0  0  0  0  0  0  0  0  0  0
    0.4636   10.4861   31.3077 F   0  0  0  0  0  0  0  0  0  0  0  0
    1.0104    9.6545   29.3591 F   0  0  0  0  0  0  0  0  0  0  0  0
    0.5796   11.7873   29.5494 F   0  0  0  0  0  0  0  0  0  0  0  0
    5.7391   10.3763   26.3751 C   0  0  0  0  0  0  0  0  0  0  0  0
    6.6206    9.9624   25.4144 C   0  0  0  0  0  0  0  0  0  0  0  0
    7.3931   10.8763   24.7327 C   0  0  0  0  0  0  0  0  0  0  0  0
    8.3072   10.2602   23.9153 N   0  0  0  0  0  0  0  0  0  0  0  0
  1  2  2  0
  2  3  1  0
  3  4  1  0
  4  5  1  0
  5  6  1  0
  6  7  2  0
  7  8  1  0
  8  9  1  0
  9 10  1  0
 10 11  2  0
 10 12  1  0
 12 13  1  6
 12 14  1  0
 14 15  1  0
 15 16  1  6
 16 17  1  0
 16 18  1  0
 16 19  1  0
  8 20  2  0
 20 21  1  0
 21 22  2  0
 22 23  1  0
 23  2  1  0
 22  6  1  0
 15 12  1  0
M  END
>  <energy_score>  (4781) 
-29.365389

>  <inchikey>  (4781) 
LGQHBCWYTJUKPD-UHFFFAOYSA-N

>  <smiles>  (4781) 
O=C1CCCc2cc(NC(=O)C3(O)CC3C(F)(F)F)ccc2N1

>  <ref_pdb>  (4781) 
A1068a

>  <alias>  (4781) 
LGQHBCWYTJUKPD-UHFFFAOYSA-N-P120-P37-P120-601513

>  <HIPPO Pose ID>  (4781) 
523117

>  <name>  (4781) 
LGQHBCWYTJUKPD-UHFFFAOYSA-N-P120-P37-P120-601513

>  <HIPPO Compound ID>  (4781) 
301717

>  <ref_mols>  (4781) 
A1445a,A0310a

>  <distance_score>  (4781) 
1.811407

>  <inspiration_score>  (4781) 
None

$$$$
KXKXRYUGSFYBKG-UHFFFAOYSA-N-P37-P37-P120-601513
     RDKit          3D

 23 24  0  0  0  0  0  0  0  0999 V2000
    3.5055   11.9092   30.5455 C   0  0  0  0  0  0  0  0  0  0  0  0
    3.0592   11.1116   29.3039 C   0  0  0  0  0  0  0  0  0  0  0  0
    2.7228   12.1237   28.1901 C   0  0  0  0  0  0  0  0  0  0  0  0
    4.1302   10.0625   28.8232 C   0  0  0  0  0  0  0  0  0  0  0  0
    5.4220   10.7502   28.3779 C   0  0  0  0  0  0  0  0  0  0  0  0
    5.8233   11.6660   28.9875 O   0  0  0  0  0  0  0  0  0  0  0  0
    5.9406   10.1144   27.0487 N   0  0  0  0  0  0  0  0  0  0  0  0
    6.9558   10.5209   26.1907 C   0  0  0  0  0  0  0  0  0  0  0  0
    7.5403    9.7691   25.1748 C   0  0  0  0  0  0  0  0  0  0  0  0
    8.5190   10.2832   24.3184 C   0  0  0  0  0  0  0  0  0  0  0  0
    8.7485   11.6386   24.3712 C   0  0  0  0  0  0  0  0  0  0  0  0
    8.2135   12.3980   25.4095 C   0  0  0  0  0  0  0  0  0  0  0  0
    7.3489   11.8278   26.3254 C   0  0  0  0  0  0  0  0  0  0  0  0
    8.4443   13.8698   25.5246 C   0  0  0  0  0  0  0  0  0  0  0  0
    7.4614   14.5267   24.5925 C   0  0  0  0  0  0  0  0  0  0  0  0
    7.6396   14.0656   23.1559 C   0  0  0  0  0  0  0  0  0  0  0  0
    8.9839   13.4393   22.7560 C   0  0  0  0  0  0  0  0  0  0  0  0
    9.6489   13.8880   21.8306 O   0  0  0  0  0  0  0  0  0  0  0  0
    9.4031   12.2676   23.3240 N   0  0  0  0  0  0  0  0  0  0  0  0
    1.7677   10.3808   29.6756 C   0  0  0  0  0  0  0  0  0  0  0  0
    1.9081    9.6628   30.8081 F   0  0  0  0  0  0  0  0  0  0  0  0
    1.3826    9.5328   28.6954 F   0  0  0  0  0  0  0  0  0  0  0  0
    0.7516   11.2503   29.8668 F   0  0  0  0  0  0  0  0  0  0  0  0
  1  2  1  0
  2  3  1  0
  2  4  1  0
  4  5  1  0
  5  6  2  0
  5  7  1  0
  7  8  1  0
  8  9  2  0
  9 10  1  0
 10 11  2  0
 11 12  1  0
 12 13  2  0
 12 14  1  0
 14 15  1  0
 15 16  1  0
 16 17  1  0
 17 18  2  0
 17 19  1  0
  2 20  1  0
 20 21  1  0
 20 22  1  0
 20 23  1  0
 13  8  1  0
 19 11  1  0
M  END
>  <energy_score>  (4782) 
-2.38944

>  <inchikey>  (4782) 
KXKXRYUGSFYBKG-UHFFFAOYSA-N

>  <smiles>  (4782) 
CC(C)(CC(=O)Nc1ccc2c(c1)CCCC(=O)N2)C(F)(F)F

>  <ref_pdb>  (4782) 
A1068a

>  <alias>  (4782) 
KXKXRYUGSFYBKG-UHFFFAOYSA-N-P37-P37-P120-601513

>  <HIPPO Pose ID>  (4782) 
523120

>  <name>  (4782) 
KXKXRYUGSFYBKG-UHFFFAOYSA-N-P37-P37-P120-601513

>  <HIPPO Compound ID>  (4782) 
301719

>  <ref_mols>  (4782) 
A1445a,A0310a

>  <distance_score>  (4782) 
1.706232

>  <inspiration_score>  (4782) 
None

$$$$
KXKXRYUGSFYBKG-UHFFFAOYSA-N-P120-P37-P120-601513
     RDKit          3D

 23 24  0  0  0  0  0  0  0  0999 V2000
    3.1823   12.1758   30.1146 C   0  0  0  0  0  0  0  0  0  0  0  0
    2.7312   11.1186   29.0841 C   0  0  0  0  0  0  0  0  0  0  0  0
    2.1608   11.8390   27.8448 C   0  0  0  0  0  0  0  0  0  0  0  0
    3.8700   10.1364   28.6631 C   0  0  0  0  0  0  0  0  0  0  0  0
    5.0009   10.8816   27.9633 C   0  0  0  0  0  0  0  0  0  0  0  0
    5.3374   11.9299   28.3566 O   0  0  0  0  0  0  0  0  0  0  0  0
    5.4567   10.0824   26.7099 N   0  0  0  0  0  0  0  0  0  0  0  0
    6.3110   10.4368   25.6810 C   0  0  0  0  0  0  0  0  0  0  0  0
    7.1139    9.5736   24.9674 C   0  0  0  0  0  0  0  0  0  0  0  0
    8.1232   10.0569   24.1360 C   0  0  0  0  0  0  0  0  0  0  0  0
    8.3213   11.4331   24.0277 C   0  0  0  0  0  0  0  0  0  0  0  0
    7.3878   12.3045   24.5773 C   0  0  0  0  0  0  0  0  0  0  0  0
    6.4154   11.7847   25.4271 C   0  0  0  0  0  0  0  0  0  0  0  0
    7.2447   13.7758   24.3406 C   0  0  0  0  0  0  0  0  0  0  0  0
    8.4281   14.4898   23.7579 C   0  0  0  0  0  0  0  0  0  0  0  0
    9.6852   14.1067   24.4922 C   0  0  0  0  0  0  0  0  0  0  0  0
   10.3028   12.8810   23.8752 C   0  0  0  0  0  0  0  0  0  0  0  0
   11.5219   12.7570   23.7853 O   0  0  0  0  0  0  0  0  0  0  0  0
    9.5451   11.8234   23.4845 N   0  0  0  0  0  0  0  0  0  0  0  0
    1.5984   10.3230   29.7238 C   0  0  0  0  0  0  0  0  0  0  0  0
    1.9522    9.8282   30.9280 F   0  0  0  0  0  0  0  0  0  0  0  0
    1.2229    9.2813   28.9493 F   0  0  0  0  0  0  0  0  0  0  0  0
    0.5091   11.1006   29.9042 F   0  0  0  0  0  0  0  0  0  0  0  0
  1  2  1  0
  2  3  1  0
  2  4  1  0
  4  5  1  0
  5  6  2  0
  5  7  1  0
  7  8  1  0
  8  9  2  0
  9 10  1  0
 10 11  2  0
 11 12  1  0
 12 13  2  0
 12 14  1  0
 14 15  1  0
 15 16  1  0
 16 17  1  0
 17 18  2  0
 17 19  1  0
  2 20  1  0
 20 21  1  0
 20 22  1  0
 20 23  1  0
 13  8  1  0
 19 11  1  0
M  END
>  <energy_score>  (4783) 
-5.227356

>  <inchikey>  (4783) 
KXKXRYUGSFYBKG-UHFFFAOYSA-N

>  <smiles>  (4783) 
CC(C)(CC(=O)Nc1ccc2c(c1)CCCC(=O)N2)C(F)(F)F

>  <ref_pdb>  (4783) 
A1068a

>  <alias>  (4783) 
KXKXRYUGSFYBKG-UHFFFAOYSA-N-P120-P37-P120-601513

>  <HIPPO Pose ID>  (4783) 
523121

>  <name>  (4783) 
KXKXRYUGSFYBKG-UHFFFAOYSA-N-P120-P37-P120-601513

>  <HIPPO Compound ID>  (4783) 
301719

>  <ref_mols>  (4783) 
A1445a,A0310a

>  <distance_score>  (4783) 
1.712306

>  <inspiration_score>  (4783) 
None

$$$$
URWXLUZXOXJXLX-UHFFFAOYSA-N-P120-P37-P120-601513
     RDKit          3D

 23 25  0  0  0  0  0  0  0  0999 V2000
    5.5497   11.2281   29.0213 O   0  0  0  0  0  0  0  0  0  0  0  0
    4.9956   10.4805   28.3100 C   0  0  0  0  0  0  0  0  0  0  0  0
    3.7129    9.8075   28.7549 C   0  0  0  0  0  0  0  0  0  0  0  0
    2.5603   10.8044   28.9081 C   0  0  0  0  0  0  0  0  0  0  0  0
    1.4251   10.2454   29.7047 C   0  0  0  0  0  0  0  0  0  0  0  0
    1.7148   10.2321   31.0228 F   0  0  0  0  0  0  0  0  0  0  0  0
    1.1561    8.9793   29.3145 F   0  0  0  0  0  0  0  0  0  0  0  0
    0.3052   10.9796   29.5254 F   0  0  0  0  0  0  0  0  0  0  0  0
    2.7758   12.3152   29.0119 C   0  0  0  0  0  0  0  0  0  0  0  0
    2.2500   11.7285   27.7332 C   0  0  0  0  0  0  0  0  0  0  0  0
    5.2952   10.0815   26.8344 N   0  0  0  0  0  0  0  0  0  0  0  0
    6.2338   10.5688   25.9478 C   0  0  0  0  0  0  0  0  0  0  0  0
    6.9391    9.8039   25.0341 C   0  0  0  0  0  0  0  0  0  0  0  0
    7.9297   10.3738   24.2343 C   0  0  0  0  0  0  0  0  0  0  0  0
    8.1653   11.7407   24.3336 C   0  0  0  0  0  0  0  0  0  0  0  0
    7.4887   12.5084   25.2825 C   0  0  0  0  0  0  0  0  0  0  0  0
    6.5109   11.9139   26.0622 C   0  0  0  0  0  0  0  0  0  0  0  0
    7.8972   13.9092   25.6537 C   0  0  0  0  0  0  0  0  0  0  0  0
    7.5375   14.9279   24.6247 C   0  0  0  0  0  0  0  0  0  0  0  0
    8.0331   14.5342   23.2621 C   0  0  0  0  0  0  0  0  0  0  0  0
    9.2615   13.6193   23.1884 C   0  0  0  0  0  0  0  0  0  0  0  0
   10.3332   13.9657   22.7083 O   0  0  0  0  0  0  0  0  0  0  0  0
    9.1549   12.3117   23.5524 N   0  0  0  0  0  0  0  0  0  0  0  0
  1  2  2  0
  2  3  1  0
  3  4  1  0
  4  5  1  0
  5  6  1  0
  5  7  1  0
  5  8  1  0
  4  9  1  0
  9 10  1  0
  2 11  1  0
 11 12  1  0
 12 13  2  0
 13 14  1  0
 14 15  2  0
 15 16  1  0
 16 17  2  0
 16 18  1  0
 18 19  1  0
 19 20  1  0
 20 21  1  0
 21 22  2  0
 21 23  1  0
 10  4  1  0
 17 12  1  0
 23 15  1  0
M  END
>  <energy_score>  (4784) 
-13.067576

>  <inchikey>  (4784) 
URWXLUZXOXJXLX-UHFFFAOYSA-N

>  <smiles>  (4784) 
O=C(CC1(C(F)(F)F)CC1)Nc1ccc2c(c1)CCCC(=O)N2

>  <ref_pdb>  (4784) 
A1068a

>  <alias>  (4784) 
URWXLUZXOXJXLX-UHFFFAOYSA-N-P120-P37-P120-601513

>  <HIPPO Pose ID>  (4784) 
523123

>  <name>  (4784) 
URWXLUZXOXJXLX-UHFFFAOYSA-N-P120-P37-P120-601513

>  <HIPPO Compound ID>  (4784) 
301720

>  <ref_mols>  (4784) 
A1445a,A0310a

>  <distance_score>  (4784) 
1.75085

>  <inspiration_score>  (4784) 
None

$$$$
AFXQMDZTAVSMCG-UHFFFAOYSA-N-P120-P37-P120-601513
     RDKit          3D

 23 24  0  0  0  0  0  0  0  0999 V2000
    3.1538   12.0964   30.0801 C   0  0  0  0  0  0  0  0  0  0  0  0
    2.6251   11.0932   29.0341 C   0  0  1  0  0  0  0  0  0  0  0  0
    2.0012   11.8458   27.9596 O   0  0  0  0  0  0  0  0  0  0  0  0
    3.7159   10.1772   28.4176 C   0  0  0  0  0  0  0  0  0  0  0  0
    4.6623   11.0155   27.5764 C   0  0  0  0  0  0  0  0  0  0  0  0
    4.7313   12.1693   27.7558 O   0  0  0  0  0  0  0  0  0  0  0  0
    5.4238   10.1054   26.5725 N   0  0  0  0  0  0  0  0  0  0  0  0
    6.3172   10.4297   25.5635 C   0  0  0  0  0  0  0  0  0  0  0  0
    7.1831    9.5588   24.9390 C   0  0  0  0  0  0  0  0  0  0  0  0
    8.2133   10.0327   24.1266 C   0  0  0  0  0  0  0  0  0  0  0  0
    8.3887   11.4088   23.9729 C   0  0  0  0  0  0  0  0  0  0  0  0
    7.4157   12.2814   24.4399 C   0  0  0  0  0  0  0  0  0  0  0  0
    6.3973   11.7650   25.2351 C   0  0  0  0  0  0  0  0  0  0  0  0
    7.2757   13.7492   24.1713 C   0  0  0  0  0  0  0  0  0  0  0  0
    8.4973   14.4821   23.6960 C   0  0  0  0  0  0  0  0  0  0  0  0
    9.7061   14.0808   24.4988 C   0  0  0  0  0  0  0  0  0  0  0  0
   10.3571   12.8704   23.8845 C   0  0  0  0  0  0  0  0  0  0  0  0
   11.5790   12.7595   23.8245 O   0  0  0  0  0  0  0  0  0  0  0  0
    9.6219   11.8083   23.4619 N   0  0  0  0  0  0  0  0  0  0  0  0
    1.5564   10.2412   29.7354 C   0  0  0  0  0  0  0  0  0  0  0  0
    2.0102    9.7485   30.9105 F   0  0  0  0  0  0  0  0  0  0  0  0
    1.1691    9.1888   28.9817 F   0  0  0  0  0  0  0  0  0  0  0  0
    0.4569   10.9785   30.0062 F   0  0  0  0  0  0  0  0  0  0  0  0
  2  1  1  1
  2  3  1  0
  2  4  1  0
  4  5  1  0
  5  6  2  0
  5  7  1  0
  7  8  1  0
  8  9  2  0
  9 10  1  0
 10 11  2  0
 11 12  1  0
 12 13  2  0
 12 14  1  0
 14 15  1  0
 15 16  1  0
 16 17  1  0
 17 18  2  0
 17 19  1  0
  2 20  1  0
 20 21  1  0
 20 22  1  0
 20 23  1  0
 13  8  1  0
 19 11  1  0
M  END
>  <energy_score>  (4785) 
-19.006751

>  <inchikey>  (4785) 
AFXQMDZTAVSMCG-UHFFFAOYSA-N

>  <smiles>  (4785) 
CC(O)(CC(=O)Nc1ccc2c(c1)CCCC(=O)N2)C(F)(F)F

>  <ref_pdb>  (4785) 
A1068a

>  <alias>  (4785) 
AFXQMDZTAVSMCG-UHFFFAOYSA-N-P120-P37-P120-601513

>  <HIPPO Pose ID>  (4785) 
523125

>  <name>  (4785) 
AFXQMDZTAVSMCG-UHFFFAOYSA-N-P120-P37-P120-601513

>  <HIPPO Compound ID>  (4785) 
301721

>  <ref_mols>  (4785) 
A1445a,A0310a

>  <distance_score>  (4785) 
1.733312

>  <inspiration_score>  (4785) 
None

$$$$
VODVPRWFBACHJW-UHFFFAOYSA-N-P37-P37-P120-601513
     RDKit          3D

 24 26  0  0  0  0  0  0  0  0999 V2000
    8.6627    9.5891   24.3031 C   0  0  0  0  0  0  0  0  0  0  0  0
    7.9240   10.7390   24.9287 C   0  0  0  0  0  0  0  0  0  0  0  0
    7.0510   10.4811   25.9913 C   0  0  0  0  0  0  0  0  0  0  0  0
    6.1730   11.4385   26.4959 C   0  0  0  0  0  0  0  0  0  0  0  0
    5.2462   11.0655   27.4576 N   0  0  0  0  0  0  0  0  0  0  0  0
    5.3019    9.9576   28.5210 C   0  0  0  0  0  0  0  0  0  0  0  0
    6.1643    9.2324   28.8101 O   0  0  0  0  0  0  0  0  0  0  0  0
    3.9860    9.7679   29.1858 C   0  0  1  0  0  0  0  0  0  0  0  0
    3.9296    9.7631   30.6981 C   0  0  0  0  0  0  0  0  0  0  0  0
    3.1854   10.8283   29.9188 C   0  0  1  0  0  0  0  0  0  0  0  0
    3.6942   12.2385   30.0467 C   0  0  0  0  0  0  0  0  0  0  0  0
    1.6866   10.7301   29.8527 C   0  0  0  0  0  0  0  0  0  0  0  0
    1.1369   11.0819   31.0333 F   0  0  0  0  0  0  0  0  0  0  0  0
    1.2762    9.4744   29.5592 F   0  0  0  0  0  0  0  0  0  0  0  0
    1.2019   11.5455   28.8889 F   0  0  0  0  0  0  0  0  0  0  0  0
    6.1603   12.7018   25.9450 C   0  0  0  0  0  0  0  0  0  0  0  0
    7.0738   13.0063   24.9363 C   0  0  0  0  0  0  0  0  0  0  0  0
    7.9649   12.0379   24.4227 C   0  0  0  0  0  0  0  0  0  0  0  0
    8.8677   12.3909   23.4015 N   0  0  0  0  0  0  0  0  0  0  0  0
   10.2086   11.8864   23.3281 C   0  0  0  0  0  0  0  0  0  0  0  0
   11.0154   13.0778   22.8877 C   0  0  0  0  0  0  0  0  0  0  0  0
   10.0556   13.8442   22.0065 C   0  0  0  0  0  0  0  0  0  0  0  0
    8.7070   13.4768   22.5534 C   0  0  0  0  0  0  0  0  0  0  0  0
    7.6700   14.0292   22.2205 O   0  0  0  0  0  0  0  0  0  0  0  0
  1  2  1  0
  2  3  2  0
  3  4  1  0
  4  5  1  0
  5  6  1  0
  6  7  2  0
  8  6  1  1
  8  9  1  0
  9 10  1  0
 10 11  1  1
 10 12  1  0
 12 13  1  0
 12 14  1  0
 12 15  1  0
  4 16  2  0
 16 17  1  0
 17 18  2  0
 18 19  1  0
 19 20  1  0
 20 21  1  0
 21 22  1  0
 22 23  1  0
 23 24  2  0
 18  2  1  0
 23 19  1  0
 10  8  1  0
M  END
>  <energy_score>  (4786) 
-43.722185

>  <inchikey>  (4786) 
VODVPRWFBACHJW-UHFFFAOYSA-N

>  <smiles>  (4786) 
Cc1cc(NC(=O)C2CC2(C)C(F)(F)F)ccc1N1CCCC1=O

>  <ref_pdb>  (4786) 
A1068a

>  <alias>  (4786) 
VODVPRWFBACHJW-UHFFFAOYSA-N-P37-P37-P120-601513

>  <HIPPO Pose ID>  (4786) 
523136

>  <name>  (4786) 
VODVPRWFBACHJW-UHFFFAOYSA-N-P37-P37-P120-601513

>  <HIPPO Compound ID>  (4786) 
301727

>  <ref_mols>  (4786) 
A1445a,A0310a

>  <distance_score>  (4786) 
1.962362

>  <inspiration_score>  (4786) 
None

$$$$
VODVPRWFBACHJW-UHFFFAOYSA-N-P120-P37-P120-601513
     RDKit          3D

 24 26  0  0  0  0  0  0  0  0999 V2000
    8.5054    9.5382   23.6177 C   0  0  0  0  0  0  0  0  0  0  0  0
    7.6895   10.5257   24.4021 C   0  0  0  0  0  0  0  0  0  0  0  0
    6.7336    9.9959   25.2755 C   0  0  0  0  0  0  0  0  0  0  0  0
    6.0225   10.8094   26.1419 C   0  0  0  0  0  0  0  0  0  0  0  0
    5.2479   10.2682   27.1431 N   0  0  0  0  0  0  0  0  0  0  0  0
    4.9494   10.7786   28.5573 C   0  0  0  0  0  0  0  0  0  0  0  0
    5.3703   11.6983   29.1314 O   0  0  0  0  0  0  0  0  0  0  0  0
    3.8699    9.9729   29.2005 C   0  0  1  0  0  0  0  0  0  0  0  0
    3.8082    9.7583   30.6918 C   0  0  0  0  0  0  0  0  0  0  0  0
    2.8160   10.7086   30.0388 C   0  0  1  0  0  0  0  0  0  0  0  0
    2.9549   12.1811   30.3583 C   0  0  0  0  0  0  0  0  0  0  0  0
    1.3905   10.3069   29.8597 C   0  0  0  0  0  0  0  0  0  0  0  0
    0.7405   10.3838   31.0401 F   0  0  0  0  0  0  0  0  0  0  0  0
    1.2754    9.0379   29.4028 F   0  0  0  0  0  0  0  0  0  0  0  0
    0.7688   11.1168   28.9736 F   0  0  0  0  0  0  0  0  0  0  0  0
    6.1659   12.1824   26.0910 C   0  0  0  0  0  0  0  0  0  0  0  0
    7.0325   12.7374   25.1730 C   0  0  0  0  0  0  0  0  0  0  0  0
    7.8325   11.9211   24.3534 C   0  0  0  0  0  0  0  0  0  0  0  0
    8.8072   12.5460   23.5484 N   0  0  0  0  0  0  0  0  0  0  0  0
   10.1908   12.2501   23.7611 C   0  0  0  0  0  0  0  0  0  0  0  0
   10.9255   13.1922   22.8534 C   0  0  0  0  0  0  0  0  0  0  0  0
   10.0763   14.4366   22.9423 C   0  0  0  0  0  0  0  0  0  0  0  0
    8.6993   13.8868   23.1647 C   0  0  0  0  0  0  0  0  0  0  0  0
    7.6815   14.5429   23.0103 O   0  0  0  0  0  0  0  0  0  0  0  0
  1  2  1  0
  2  3  2  0
  3  4  1  0
  4  5  1  0
  5  6  1  0
  6  7  2  0
  8  6  1  1
  8  9  1  0
  9 10  1  0
 10 11  1  1
 10 12  1  0
 12 13  1  0
 12 14  1  0
 12 15  1  0
  4 16  2  0
 16 17  1  0
 17 18  2  0
 18 19  1  0
 19 20  1  0
 20 21  1  0
 21 22  1  0
 22 23  1  0
 23 24  2  0
 18  2  1  0
 23 19  1  0
 10  8  1  0
M  END
>  <energy_score>  (4787) 
-36.331163

>  <inchikey>  (4787) 
VODVPRWFBACHJW-UHFFFAOYSA-N

>  <smiles>  (4787) 
Cc1cc(NC(=O)C2CC2(C)C(F)(F)F)ccc1N1CCCC1=O

>  <ref_pdb>  (4787) 
A1068a

>  <alias>  (4787) 
VODVPRWFBACHJW-UHFFFAOYSA-N-P120-P37-P120-601513

>  <HIPPO Pose ID>  (4787) 
523137

>  <name>  (4787) 
VODVPRWFBACHJW-UHFFFAOYSA-N-P120-P37-P120-601513

>  <HIPPO Compound ID>  (4787) 
301727

>  <ref_mols>  (4787) 
A1445a,A0310a

>  <distance_score>  (4787) 
1.942775

>  <inspiration_score>  (4787) 
None

$$$$
SCAPTORWVIUXCO-UHFFFAOYSA-N-P37-P37-P120-601513
     RDKit          3D

 24 26  0  0  0  0  0  0  0  0999 V2000
   10.9507    9.8336   23.4802 O   0  0  0  0  0  0  0  0  0  0  0  0
   10.2752   10.8390   23.3406 C   0  0  0  0  0  0  0  0  0  0  0  0
   10.8072   12.2314   23.0887 C   0  0  0  0  0  0  0  0  0  0  0  0
   10.3251   13.2997   24.0664 C   0  0  0  0  0  0  0  0  0  0  0  0
    8.8119   13.5700   24.0977 C   0  0  0  0  0  0  0  0  0  0  0  0
    8.0456   12.4922   24.8182 C   0  0  0  0  0  0  0  0  0  0  0  0
    7.0894   12.8034   25.7934 C   0  0  0  0  0  0  0  0  0  0  0  0
    6.4230   11.7801   26.4682 C   0  0  0  0  0  0  0  0  0  0  0  0
    5.4017   12.0779   27.3554 N   0  0  0  0  0  0  0  0  0  0  0  0
    4.5511   11.1462   28.2652 C   0  0  0  0  0  0  0  0  0  0  0  0
    4.6348    9.9970   28.4613 O   0  0  0  0  0  0  0  0  0  0  0  0
    3.4338   12.0214   28.8315 C   0  0  2  0  0  0  0  0  0  0  0  0
    3.8347   13.3825   29.0413 O   0  0  0  0  0  0  0  0  0  0  0  0
    3.0189   13.8729   30.1091 C   0  0  0  0  0  0  0  0  0  0  0  0
    2.8899   12.7056   31.0581 C   0  0  0  0  0  0  0  0  0  0  0  0
    2.9409   11.4802   30.1628 C   0  0  1  0  0  0  0  0  0  0  0  0
    1.6092   10.7982   29.9797 C   0  0  0  0  0  0  0  0  0  0  0  0
    1.1207   10.3902   31.1690 F   0  0  0  0  0  0  0  0  0  0  0  0
    1.6968    9.7204   29.1761 F   0  0  0  0  0  0  0  0  0  0  0  0
    0.7082   11.6399   29.4284 F   0  0  0  0  0  0  0  0  0  0  0  0
    6.7353   10.4515   26.2035 C   0  0  0  0  0  0  0  0  0  0  0  0
    7.6628   10.1335   25.2282 C   0  0  0  0  0  0  0  0  0  0  0  0
    8.2660   11.1471   24.5195 C   0  0  0  0  0  0  0  0  0  0  0  0
    8.9168   10.7783   23.3375 N   0  0  0  0  0  0  0  0  0  0  0  0
  1  2  2  0
  2  3  1  0
  3  4  1  0
  4  5  1  0
  5  6  1  0
  6  7  2  0
  7  8  1  0
  8  9  1  0
  9 10  1  0
 10 11  2  0
 12 10  1  1
 12 13  1  0
 13 14  1  0
 14 15  1  0
 15 16  1  0
 16 17  1  6
 17 18  1  0
 17 19  1  0
 17 20  1  0
  8 21  2  0
 21 22  1  0
 22 23  2  0
 23 24  1  0
 24  2  1  0
 23  6  1  0
 16 12  1  0
M  END
>  <energy_score>  (4788) 
-28.470606

>  <inchikey>  (4788) 
SCAPTORWVIUXCO-UHFFFAOYSA-N

>  <smiles>  (4788) 
O=C1CCCc2cc(NC(=O)C3OCCC3C(F)(F)F)ccc2N1

>  <ref_pdb>  (4788) 
A1068a

>  <alias>  (4788) 
SCAPTORWVIUXCO-UHFFFAOYSA-N-P37-P37-P120-601513

>  <HIPPO Pose ID>  (4788) 
523142

>  <name>  (4788) 
SCAPTORWVIUXCO-UHFFFAOYSA-N-P37-P37-P120-601513

>  <HIPPO Compound ID>  (4788) 
301730

>  <ref_mols>  (4788) 
A1445a,A0310a

>  <distance_score>  (4788) 
1.899525

>  <inspiration_score>  (4788) 
None

$$$$
APZPJZKYBNDGEF-UHFFFAOYSA-N-P37-P37-P120-601513
     RDKit          3D

 24 25  0  0  0  0  0  0  0  0999 V2000
    3.7138    9.6297   31.8084 C   0  0  0  0  0  0  0  0  0  0  0  0
    3.7071   10.9061   30.9756 C   0  0  0  0  0  0  0  0  0  0  0  0
    3.1508   10.7511   29.5495 C   0  0  1  0  0  0  0  0  0  0  0  0
    4.0670    9.8958   28.6213 C   0  0  0  0  0  0  0  0  0  0  0  0
    5.2409   10.7578   28.1752 C   0  0  0  0  0  0  0  0  0  0  0  0
    5.4206   11.8004   28.6777 O   0  0  0  0  0  0  0  0  0  0  0  0
    5.9738   10.0723   26.9793 N   0  0  0  0  0  0  0  0  0  0  0  0
    6.9689   10.5524   26.1376 C   0  0  0  0  0  0  0  0  0  0  0  0
    7.6422    9.8347   25.1557 C   0  0  0  0  0  0  0  0  0  0  0  0
    8.5666   10.4436   24.2974 C   0  0  0  0  0  0  0  0  0  0  0  0
    8.7102   11.8228   24.3517 C   0  0  0  0  0  0  0  0  0  0  0  0
    8.1107   12.5264   25.3929 C   0  0  0  0  0  0  0  0  0  0  0  0
    7.2596   11.8874   26.2733 C   0  0  0  0  0  0  0  0  0  0  0  0
    8.2490   14.0068   25.5487 C   0  0  0  0  0  0  0  0  0  0  0  0
    7.2416   14.6367   24.6188 C   0  0  0  0  0  0  0  0  0  0  0  0
    7.4125   14.1515   23.1894 C   0  0  0  0  0  0  0  0  0  0  0  0
    8.8301   13.7236   22.7891 C   0  0  0  0  0  0  0  0  0  0  0  0
    9.4413   14.3912   21.9543 O   0  0  0  0  0  0  0  0  0  0  0  0
    9.3488   12.5414   23.3229 N   0  0  0  0  0  0  0  0  0  0  0  0
   10.6536   12.0767   22.8904 C   0  0  0  0  0  0  0  0  0  0  0  0
    1.7183   10.2613   29.5388 C   0  0  0  0  0  0  0  0  0  0  0  0
    0.9905   10.8330   30.5199 F   0  0  0  0  0  0  0  0  0  0  0  0
    1.6395    8.9246   29.6849 F   0  0  0  0  0  0  0  0  0  0  0  0
    1.1313   10.5762   28.3588 F   0  0  0  0  0  0  0  0  0  0  0  0
  1  2  1  0
  3  2  1  1
  3  4  1  0
  4  5  1  0
  5  6  2  0
  5  7  1  0
  7  8  1  0
  8  9  2  0
  9 10  1  0
 10 11  2  0
 11 12  1  0
 12 13  2  0
 12 14  1  0
 14 15  1  0
 15 16  1  0
 16 17  1  0
 17 18  2  0
 17 19  1  0
 19 20  1  0
  3 21  1  0
 21 22  1  0
 21 23  1  0
 21 24  1  0
 13  8  1  0
 19 11  1  0
M  END
>  <energy_score>  (4789) 
-26.162088

>  <inchikey>  (4789) 
APZPJZKYBNDGEF-UHFFFAOYSA-N

>  <smiles>  (4789) 
CCC(CC(=O)Nc1ccc2c(c1)CCCC(=O)N2C)C(F)(F)F

>  <ref_pdb>  (4789) 
A1068a

>  <alias>  (4789) 
APZPJZKYBNDGEF-UHFFFAOYSA-N-P37-P37-P120-601513

>  <HIPPO Pose ID>  (4789) 
523144

>  <name>  (4789) 
APZPJZKYBNDGEF-UHFFFAOYSA-N-P37-P37-P120-601513

>  <HIPPO Compound ID>  (4789) 
301731

>  <ref_mols>  (4789) 
A1445a,A0310a

>  <distance_score>  (4789) 
1.663992

>  <inspiration_score>  (4789) 
None

$$$$
APZPJZKYBNDGEF-UHFFFAOYSA-N-P120-P37-P120-601513
     RDKit          3D

 24 25  0  0  0  0  0  0  0  0999 V2000
    4.4443   11.2605   31.1196 C   0  0  0  0  0  0  0  0  0  0  0  0
    3.3679   11.8839   30.2407 C   0  0  0  0  0  0  0  0  0  0  0  0
    2.7301   10.9323   29.1928 C   0  0  1  0  0  0  0  0  0  0  0  0
    3.7281   10.0501   28.3933 C   0  0  0  0  0  0  0  0  0  0  0  0
    4.4710   10.9717   27.4368 C   0  0  0  0  0  0  0  0  0  0  0  0
    4.3324   12.1292   27.5357 O   0  0  0  0  0  0  0  0  0  0  0  0
    5.4083   10.1448   26.5111 N   0  0  0  0  0  0  0  0  0  0  0  0
    6.2604   10.5544   25.4957 C   0  0  0  0  0  0  0  0  0  0  0  0
    7.3063    9.8515   24.9285 C   0  0  0  0  0  0  0  0  0  0  0  0
    8.3231   10.5633   24.2495 C   0  0  0  0  0  0  0  0  0  0  0  0
    8.2511   11.9645   24.1337 C   0  0  0  0  0  0  0  0  0  0  0  0
    7.0252   12.5540   24.3717 C   0  0  0  0  0  0  0  0  0  0  0  0
    6.0883   11.8721   25.1215 C   0  0  0  0  0  0  0  0  0  0  0  0
    6.6813   13.9309   23.8910 C   0  0  0  0  0  0  0  0  0  0  0  0
    7.1347   14.9772   24.8663 C   0  0  0  0  0  0  0  0  0  0  0  0
    8.5025   14.6725   25.4154 C   0  0  0  0  0  0  0  0  0  0  0  0
    9.5203   14.1078   24.4294 C   0  0  0  0  0  0  0  0  0  0  0  0
   10.5453   14.7705   24.2247 O   0  0  0  0  0  0  0  0  0  0  0  0
    9.3537   12.8262   23.8699 N   0  0  0  0  0  0  0  0  0  0  0  0
   10.5137   12.3417   23.1773 C   0  0  0  0  0  0  0  0  0  0  0  0
    1.5988   10.1502   29.8143 C   0  0  0  0  0  0  0  0  0  0  0  0
    1.9446    9.5728   30.9783 F   0  0  0  0  0  0  0  0  0  0  0  0
    1.1538    9.1817   28.9868 F   0  0  0  0  0  0  0  0  0  0  0  0
    0.5581   10.9790   30.0543 F   0  0  0  0  0  0  0  0  0  0  0  0
  1  2  1  0
  3  2  1  1
  3  4  1  0
  4  5  1  0
  5  6  2  0
  5  7  1  0
  7  8  1  0
  8  9  2  0
  9 10  1  0
 10 11  2  0
 11 12  1  0
 12 13  2  0
 12 14  1  0
 14 15  1  0
 15 16  1  0
 16 17  1  0
 17 18  2  0
 17 19  1  0
 19 20  1  0
  3 21  1  0
 21 22  1  0
 21 23  1  0
 21 24  1  0
 13  8  1  0
 19 11  1  0
M  END
>  <energy_score>  (4790) 
-15.654611

>  <inchikey>  (4790) 
APZPJZKYBNDGEF-UHFFFAOYSA-N

>  <smiles>  (4790) 
CCC(CC(=O)Nc1ccc2c(c1)CCCC(=O)N2C)C(F)(F)F

>  <ref_pdb>  (4790) 
A1068a

>  <alias>  (4790) 
APZPJZKYBNDGEF-UHFFFAOYSA-N-P120-P37-P120-601513

>  <HIPPO Pose ID>  (4790) 
523145

>  <name>  (4790) 
APZPJZKYBNDGEF-UHFFFAOYSA-N-P120-P37-P120-601513

>  <HIPPO Compound ID>  (4790) 
301731

>  <ref_mols>  (4790) 
A1445a,A0310a

>  <distance_score>  (4790) 
1.617739

>  <inspiration_score>  (4790) 
None

$$$$
YCZYXBLKVSOEFT-UHFFFAOYSA-N-P37-P37-P120-601513
     RDKit          3D

 24 25  0  0  0  0  0  0  0  0999 V2000
    3.9155   11.1615   30.6410 C   0  0  0  0  0  0  0  0  0  0  0  0
    3.3148    9.9935   29.8449 C   0  0  2  0  0  0  0  0  0  0  0  0
    4.1986    9.4941   28.6854 C   0  0  1  0  0  0  0  0  0  0  0  0
    3.5338    8.5745   27.9364 F   0  0  0  0  0  0  0  0  0  0  0  0
    4.8253   10.5895   27.8227 C   0  0  0  0  0  0  0  0  0  0  0  0
    4.5416   11.7168   27.9729 O   0  0  0  0  0  0  0  0  0  0  0  0
    5.8940    9.9273   26.8835 N   0  0  0  0  0  0  0  0  0  0  0  0
    6.8462   10.5062   26.0526 C   0  0  0  0  0  0  0  0  0  0  0  0
    7.6526    9.8150   25.1504 C   0  0  0  0  0  0  0  0  0  0  0  0
    8.5771   10.4648   24.3261 C   0  0  0  0  0  0  0  0  0  0  0  0
    8.6409   11.8490   24.3658 C   0  0  0  0  0  0  0  0  0  0  0  0
    7.9362   12.5257   25.3635 C   0  0  0  0  0  0  0  0  0  0  0  0
    7.0299   11.8597   26.1732 C   0  0  0  0  0  0  0  0  0  0  0  0
    8.0535   14.0037   25.5538 C   0  0  0  0  0  0  0  0  0  0  0  0
    7.1221   14.6579   24.5676 C   0  0  0  0  0  0  0  0  0  0  0  0
    7.3727   14.1820   23.1485 C   0  0  0  0  0  0  0  0  0  0  0  0
    8.8065   13.7585   22.8104 C   0  0  0  0  0  0  0  0  0  0  0  0
    9.4402   14.4199   21.9865 O   0  0  0  0  0  0  0  0  0  0  0  0
    9.3213   12.5892   23.3754 N   0  0  0  0  0  0  0  0  0  0  0  0
   10.6123   12.1010   22.9207 C   0  0  0  0  0  0  0  0  0  0  0  0
    1.8913   10.3131   29.4461 C   0  0  0  0  0  0  0  0  0  0  0  0
    1.1828   10.6661   30.5481 F   0  0  0  0  0  0  0  0  0  0  0  0
    1.2773    9.2339   28.9194 F   0  0  0  0  0  0  0  0  0  0  0  0
    1.7854   11.3166   28.5580 F   0  0  0  0  0  0  0  0  0  0  0  0
  2  1  1  6
  2  3  1  0
  3  4  1  6
  3  5  1  0
  5  6  2  0
  5  7  1  0
  7  8  1  0
  8  9  2  0
  9 10  1  0
 10 11  2  0
 11 12  1  0
 12 13  2  0
 12 14  1  0
 14 15  1  0
 15 16  1  0
 16 17  1  0
 17 18  2  0
 17 19  1  0
 19 20  1  0
  2 21  1  0
 21 22  1  0
 21 23  1  0
 21 24  1  0
 13  8  1  0
 19 11  1  0
M  END
>  <energy_score>  (4791) 
-9.334633

>  <inchikey>  (4791) 
YCZYXBLKVSOEFT-UHFFFAOYSA-N

>  <smiles>  (4791) 
CC(C(F)C(=O)Nc1ccc2c(c1)CCCC(=O)N2C)C(F)(F)F

>  <ref_pdb>  (4791) 
A1068a

>  <alias>  (4791) 
YCZYXBLKVSOEFT-UHFFFAOYSA-N-P37-P37-P120-601513

>  <HIPPO Pose ID>  (4791) 
523150

>  <name>  (4791) 
YCZYXBLKVSOEFT-UHFFFAOYSA-N-P37-P37-P120-601513

>  <HIPPO Compound ID>  (4791) 
301734

>  <ref_mols>  (4791) 
A1445a,A0310a

>  <distance_score>  (4791) 
1.604857

>  <inspiration_score>  (4791) 
None

$$$$
YCZYXBLKVSOEFT-UHFFFAOYSA-N-P120-P37-P120-601513
     RDKit          3D

 24 25  0  0  0  0  0  0  0  0999 V2000
    3.4657   11.9572   29.8359 C   0  0  0  0  0  0  0  0  0  0  0  0
    3.0144   10.5017   29.6696 C   0  0  2  0  0  0  0  0  0  0  0  0
    3.2317    9.9771   28.2572 C   0  0  1  0  0  0  0  0  0  0  0  0
    2.5171   10.7766   27.4016 F   0  0  0  0  0  0  0  0  0  0  0  0
    4.7170    9.9673   27.9032 C   0  0  0  0  0  0  0  0  0  0  0  0
    5.5747    9.6872   28.6456 O   0  0  0  0  0  0  0  0  0  0  0  0
    4.7811   10.4930   26.4447 N   0  0  0  0  0  0  0  0  0  0  0  0
    5.8630   10.8551   25.6702 C   0  0  0  0  0  0  0  0  0  0  0  0
    6.9487   10.0726   25.3187 C   0  0  0  0  0  0  0  0  0  0  0  0
    8.0318   10.6340   24.6118 C   0  0  0  0  0  0  0  0  0  0  0  0
    8.0389   12.0065   24.3343 C   0  0  0  0  0  0  0  0  0  0  0  0
    6.8393   12.6970   24.4758 C   0  0  0  0  0  0  0  0  0  0  0  0
    5.7895   12.1403   25.1907 C   0  0  0  0  0  0  0  0  0  0  0  0
    6.6368   14.0620   23.8918 C   0  0  0  0  0  0  0  0  0  0  0  0
    7.1484   15.1130   24.8364 C   0  0  0  0  0  0  0  0  0  0  0  0
    8.4667   14.7182   25.4550 C   0  0  0  0  0  0  0  0  0  0  0  0
    9.4580   14.0515   24.5040 C   0  0  0  0  0  0  0  0  0  0  0  0
   10.5161   14.6433   24.2621 O   0  0  0  0  0  0  0  0  0  0  0  0
    9.2048   12.7568   24.0152 N   0  0  0  0  0  0  0  0  0  0  0  0
   10.3193   12.1453   23.3417 C   0  0  0  0  0  0  0  0  0  0  0  0
    1.5416   10.3777   29.9699 C   0  0  0  0  0  0  0  0  0  0  0  0
    1.2901   10.6760   31.2618 F   0  0  0  0  0  0  0  0  0  0  0  0
    1.1234    9.1086   29.7576 F   0  0  0  0  0  0  0  0  0  0  0  0
    0.7882   11.1901   29.2021 F   0  0  0  0  0  0  0  0  0  0  0  0
  2  1  1  6
  2  3  1  0
  3  4  1  6
  3  5  1  0
  5  6  2  0
  5  7  1  0
  7  8  1  0
  8  9  2  0
  9 10  1  0
 10 11  2  0
 11 12  1  0
 12 13  2  0
 12 14  1  0
 14 15  1  0
 15 16  1  0
 16 17  1  0
 17 18  2  0
 17 19  1  0
 19 20  1  0
  2 21  1  0
 21 22  1  0
 21 23  1  0
 21 24  1  0
 13  8  1  0
 19 11  1  0
M  END
>  <energy_score>  (4792) 
-1.496792

>  <inchikey>  (4792) 
YCZYXBLKVSOEFT-UHFFFAOYSA-N

>  <smiles>  (4792) 
CC(C(F)C(=O)Nc1ccc2c(c1)CCCC(=O)N2C)C(F)(F)F

>  <ref_pdb>  (4792) 
A1068a

>  <alias>  (4792) 
YCZYXBLKVSOEFT-UHFFFAOYSA-N-P120-P37-P120-601513

>  <HIPPO Pose ID>  (4792) 
523151

>  <name>  (4792) 
YCZYXBLKVSOEFT-UHFFFAOYSA-N-P120-P37-P120-601513

>  <HIPPO Compound ID>  (4792) 
301734

>  <ref_mols>  (4792) 
A1445a,A0310a

>  <distance_score>  (4792) 
1.700578

>  <inspiration_score>  (4792) 
None

$$$$
XQXXMKFQWKVGCX-UHFFFAOYSA-N-P37-P37-P120-601513
     RDKit          3D

 24 25  0  0  0  0  0  0  0  0999 V2000
    3.4474   11.9640   29.8024 C   0  0  0  0  0  0  0  0  0  0  0  0
    3.4140   10.4121   29.8012 C   0  0  0  0  0  0  0  0  0  0  0  0
    3.8960    9.9044   31.1729 C   0  0  0  0  0  0  0  0  0  0  0  0
    4.2366    9.7347   28.6353 C   0  0  2  0  0  0  0  0  0  0  0  0
    4.5450    8.3740   28.9415 O   0  0  0  0  0  0  0  0  0  0  0  0
    5.5380   10.5057   28.2654 C   0  0  0  0  0  0  0  0  0  0  0  0
    5.9313   11.3850   28.9311 O   0  0  0  0  0  0  0  0  0  0  0  0
    6.0614    9.9601   26.8941 N   0  0  0  0  0  0  0  0  0  0  0  0
    7.0675   10.4301   26.0645 C   0  0  0  0  0  0  0  0  0  0  0  0
    7.7010    9.7107   25.0526 C   0  0  0  0  0  0  0  0  0  0  0  0
    8.6535   10.2890   24.2114 C   0  0  0  0  0  0  0  0  0  0  0  0
    8.8249   11.6536   24.2981 C   0  0  0  0  0  0  0  0  0  0  0  0
    8.2582   12.3689   25.3511 C   0  0  0  0  0  0  0  0  0  0  0  0
    7.4003   11.7489   26.2374 C   0  0  0  0  0  0  0  0  0  0  0  0
    8.4605   13.8406   25.5135 C   0  0  0  0  0  0  0  0  0  0  0  0
    7.4683   14.5175   24.6073 C   0  0  0  0  0  0  0  0  0  0  0  0
    7.6170   14.0756   23.1615 C   0  0  0  0  0  0  0  0  0  0  0  0
    8.9614   13.4853   22.7102 C   0  0  0  0  0  0  0  0  0  0  0  0
    9.5560   13.9313   21.7364 O   0  0  0  0  0  0  0  0  0  0  0  0
    9.4520   12.3358   23.2674 N   0  0  0  0  0  0  0  0  0  0  0  0
    1.9332   10.0604   29.6287 C   0  0  0  0  0  0  0  0  0  0  0  0
    1.1975   10.5012   30.6759 F   0  0  0  0  0  0  0  0  0  0  0  0
    1.7162    8.7382   29.5109 F   0  0  0  0  0  0  0  0  0  0  0  0
    1.4282   10.6494   28.5130 F   0  0  0  0  0  0  0  0  0  0  0  0
  1  2  1  0
  2  3  1  0
  2  4  1  0
  4  5  1  1
  4  6  1  0
  6  7  2  0
  6  8  1  0
  8  9  1  0
  9 10  2  0
 10 11  1  0
 11 12  2  0
 12 13  1  0
 13 14  2  0
 13 15  1  0
 15 16  1  0
 16 17  1  0
 17 18  1  0
 18 19  2  0
 18 20  1  0
  2 21  1  0
 21 22  1  0
 21 23  1  0
 21 24  1  0
 14  9  1  0
 20 12  1  0
M  END
>  <energy_score>  (4793) 
-126.300537

>  <inchikey>  (4793) 
XQXXMKFQWKVGCX-UHFFFAOYSA-N

>  <smiles>  (4793) 
CC(C)(C(O)C(=O)Nc1ccc2c(c1)CCCC(=O)N2)C(F)(F)F

>  <ref_pdb>  (4793) 
A1068a

>  <alias>  (4793) 
XQXXMKFQWKVGCX-UHFFFAOYSA-N-P37-P37-P120-601513

>  <HIPPO Pose ID>  (4793) 
523158

>  <name>  (4793) 
XQXXMKFQWKVGCX-UHFFFAOYSA-N-P37-P37-P120-601513

>  <HIPPO Compound ID>  (4793) 
301738

>  <ref_mols>  (4793) 
A1445a,A0310a

>  <distance_score>  (4793) 
1.649675

>  <inspiration_score>  (4793) 
None

$$$$
XQXXMKFQWKVGCX-UHFFFAOYSA-N-P120-P37-P120-601513
     RDKit          3D

 24 25  0  0  0  0  0  0  0  0999 V2000
    3.4684   11.9652   29.9362 C   0  0  0  0  0  0  0  0  0  0  0  0
    3.0826   10.5171   29.5658 C   0  0  0  0  0  0  0  0  0  0  0  0
    4.0251    9.5676   30.3280 C   0  0  0  0  0  0  0  0  0  0  0  0
    3.0728   10.2119   28.0423 C   0  0  2  0  0  0  0  0  0  0  0  0
    3.2770    8.8219   27.8073 O   0  0  0  0  0  0  0  0  0  0  0  0
    4.0034   11.1181   27.2126 C   0  0  0  0  0  0  0  0  0  0  0  0
    3.8360   12.2768   27.1761 O   0  0  0  0  0  0  0  0  0  0  0  0
    5.0983   10.2335   26.5398 N   0  0  0  0  0  0  0  0  0  0  0  0
    6.1068   10.5716   25.6484 C   0  0  0  0  0  0  0  0  0  0  0  0
    6.9918    9.6652   25.1002 C   0  0  0  0  0  0  0  0  0  0  0  0
    8.0542   10.0714   24.2934 C   0  0  0  0  0  0  0  0  0  0  0  0
    8.2684   11.4309   24.0830 C   0  0  0  0  0  0  0  0  0  0  0  0
    7.3157   12.3472   24.5166 C   0  0  0  0  0  0  0  0  0  0  0  0
    6.2510   11.8931   25.2998 C   0  0  0  0  0  0  0  0  0  0  0  0
    7.2302   13.8096   24.2006 C   0  0  0  0  0  0  0  0  0  0  0  0
    8.4713   14.4787   23.6860 C   0  0  0  0  0  0  0  0  0  0  0  0
    9.6734   14.0697   24.4936 C   0  0  0  0  0  0  0  0  0  0  0  0
   10.2810   12.8253   23.9061 C   0  0  0  0  0  0  0  0  0  0  0  0
   11.4980   12.6871   23.8178 O   0  0  0  0  0  0  0  0  0  0  0  0
    9.5080   11.7680   23.5419 N   0  0  0  0  0  0  0  0  0  0  0  0
    1.6424   10.3040   30.0278 C   0  0  0  0  0  0  0  0  0  0  0  0
    1.5108   10.4891   31.3584 F   0  0  0  0  0  0  0  0  0  0  0  0
    1.2012    9.0589   29.7430 F   0  0  0  0  0  0  0  0  0  0  0  0
    0.8031   11.1712   29.4123 F   0  0  0  0  0  0  0  0  0  0  0  0
  1  2  1  0
  2  3  1  0
  2  4  1  0
  4  5  1  1
  4  6  1  0
  6  7  2  0
  6  8  1  0
  8  9  1  0
  9 10  2  0
 10 11  1  0
 11 12  2  0
 12 13  1  0
 13 14  2  0
 13 15  1  0
 15 16  1  0
 16 17  1  0
 17 18  1  0
 18 19  2  0
 18 20  1  0
  2 21  1  0
 21 22  1  0
 21 23  1  0
 21 24  1  0
 14  9  1  0
 20 12  1  0
M  END
>  <energy_score>  (4794) 
-142.088779

>  <inchikey>  (4794) 
XQXXMKFQWKVGCX-UHFFFAOYSA-N

>  <smiles>  (4794) 
CC(C)(C(O)C(=O)Nc1ccc2c(c1)CCCC(=O)N2)C(F)(F)F

>  <ref_pdb>  (4794) 
A1068a

>  <alias>  (4794) 
XQXXMKFQWKVGCX-UHFFFAOYSA-N-P120-P37-P120-601513

>  <HIPPO Pose ID>  (4794) 
523159

>  <name>  (4794) 
XQXXMKFQWKVGCX-UHFFFAOYSA-N-P120-P37-P120-601513

>  <HIPPO Compound ID>  (4794) 
301738

>  <ref_mols>  (4794) 
A1445a,A0310a

>  <distance_score>  (4794) 
1.754872

>  <inspiration_score>  (4794) 
None

$$$$
MJLDTMXYOWQKIH-UHFFFAOYSA-N-P37-P37-P120-601513
     RDKit          3D

 24 26  0  0  0  0  0  0  0  0999 V2000
   10.4983    9.8802   22.3759 O   0  0  0  0  0  0  0  0  0  0  0  0
    9.9983   10.7144   23.1218 C   0  0  0  0  0  0  0  0  0  0  0  0
   10.4874   12.1194   23.2320 C   0  0  0  0  0  0  0  0  0  0  0  0
    9.3705   13.1362   23.1742 C   0  0  0  0  0  0  0  0  0  0  0  0
    8.7393   13.3725   24.5337 C   0  0  0  0  0  0  0  0  0  0  0  0
    7.9406   12.2379   25.1049 C   0  0  0  0  0  0  0  0  0  0  0  0
    6.9104   12.5900   26.0305 C   0  0  0  0  0  0  0  0  0  0  0  0
    6.0717   11.6254   26.5813 C   0  0  0  0  0  0  0  0  0  0  0  0
    4.9713   11.8637   27.3906 N   0  0  0  0  0  0  0  0  0  0  0  0
    4.4553   13.1656   28.0121 C   0  0  0  0  0  0  0  0  0  0  0  0
    4.9115   14.2352   28.0096 O   0  0  0  0  0  0  0  0  0  0  0  0
    3.1216   12.9061   28.6647 C   0  0  2  0  0  0  0  0  0  0  0  0
    1.9357   13.1718   27.7703 C   0  0  0  0  0  0  0  0  0  0  0  0
    1.6305   11.9939   27.1517 F   0  0  0  0  0  0  0  0  0  0  0  0
    2.9925   13.2000   30.1532 C   0  0  0  0  0  0  0  0  0  0  0  0
    3.0243   11.7641   29.7030 C   0  0  1  0  0  0  0  0  0  0  0  0
    1.8306   10.8834   29.8503 C   0  0  0  0  0  0  0  0  0  0  0  0
    1.7437   10.4317   31.1199 F   0  0  0  0  0  0  0  0  0  0  0  0
    1.9308    9.8092   29.0340 F   0  0  0  0  0  0  0  0  0  0  0  0
    0.6807   11.5231   29.5587 F   0  0  0  0  0  0  0  0  0  0  0  0
    6.2763   10.3043   26.2532 C   0  0  0  0  0  0  0  0  0  0  0  0
    7.2853    9.9649   25.3747 C   0  0  0  0  0  0  0  0  0  0  0  0
    8.1238   10.8912   24.7897 C   0  0  0  0  0  0  0  0  0  0  0  0
    9.0055   10.2788   23.9060 N   0  0  0  0  0  0  0  0  0  0  0  0
  1  2  2  0
  2  3  1  0
  3  4  1  0
  4  5  1  0
  5  6  1  0
  6  7  2  0
  7  8  1  0
  8  9  1  0
  9 10  1  0
 10 11  2  0
 10 12  1  0
 12 13  1  6
 13 14  1  0
 12 15  1  0
 15 16  1  0
 16 17  1  6
 17 18  1  0
 17 19  1  0
 17 20  1  0
  8 21  2  0
 21 22  1  0
 22 23  2  0
 23 24  1  0
 24  2  1  0
 23  6  1  0
 16 12  1  0
M  END
>  <energy_score>  (4795) 
-23.073008

>  <inchikey>  (4795) 
MJLDTMXYOWQKIH-UHFFFAOYSA-N

>  <smiles>  (4795) 
O=C1CCCc2cc(NC(=O)C3(CF)CC3C(F)(F)F)ccc2N1

>  <ref_pdb>  (4795) 
A1068a

>  <alias>  (4795) 
MJLDTMXYOWQKIH-UHFFFAOYSA-N-P37-P37-P120-601513

>  <HIPPO Pose ID>  (4795) 
523160

>  <name>  (4795) 
MJLDTMXYOWQKIH-UHFFFAOYSA-N-P37-P37-P120-601513

>  <HIPPO Compound ID>  (4795) 
301739

>  <ref_mols>  (4795) 
A1445a,A0310a

>  <distance_score>  (4795) 
1.752937

>  <inspiration_score>  (4795) 
None

$$$$
MJLDTMXYOWQKIH-UHFFFAOYSA-N-P120-P37-P120-601513
     RDKit          3D

 24 26  0  0  0  0  0  0  0  0999 V2000
    9.9331    9.8006   22.6998 O   0  0  0  0  0  0  0  0  0  0  0  0
    9.4271   10.6762   23.3991 C   0  0  0  0  0  0  0  0  0  0  0  0
   10.0157   12.0678   23.5100 C   0  0  0  0  0  0  0  0  0  0  0  0
    9.3899   13.1132   24.3963 C   0  0  0  0  0  0  0  0  0  0  0  0
    7.8965   13.2715   24.2806 C   0  0  0  0  0  0  0  0  0  0  0  0
    7.1296   12.1976   24.9820 C   0  0  0  0  0  0  0  0  0  0  0  0
    6.0454   12.5787   25.7988 C   0  0  0  0  0  0  0  0  0  0  0  0
    5.1890   11.6200   26.3293 C   0  0  0  0  0  0  0  0  0  0  0  0
    4.0894   11.9152   27.1075 N   0  0  0  0  0  0  0  0  0  0  0  0
    3.7333   13.1850   27.8874 C   0  0  0  0  0  0  0  0  0  0  0  0
    4.2713   14.2147   27.9383 O   0  0  0  0  0  0  0  0  0  0  0  0
    2.5138   12.9170   28.7119 C   0  0  2  0  0  0  0  0  0  0  0  0
    1.2200   13.2406   28.0151 C   0  0  0  0  0  0  0  0  0  0  0  0
    0.9283   12.1930   27.1944 F   0  0  0  0  0  0  0  0  0  0  0  0
    2.5909   13.1146   30.2193 C   0  0  0  0  0  0  0  0  0  0  0  0
    2.6119   11.7110   29.6752 C   0  0  1  0  0  0  0  0  0  0  0  0
    1.5011   10.7546   29.8961 C   0  0  0  0  0  0  0  0  0  0  0  0
    1.5222   10.3126   31.1716 F   0  0  0  0  0  0  0  0  0  0  0  0
    1.6285    9.6809   29.0839 F   0  0  0  0  0  0  0  0  0  0  0  0
    0.2975   11.3100   29.6655 F   0  0  0  0  0  0  0  0  0  0  0  0
    5.4140   10.2804   26.0852 C   0  0  0  0  0  0  0  0  0  0  0  0
    6.5089    9.9087   25.3437 C   0  0  0  0  0  0  0  0  0  0  0  0
    7.3561   10.8414   24.7783 C   0  0  0  0  0  0  0  0  0  0  0  0
    8.3328   10.2506   24.0132 N   0  0  0  0  0  0  0  0  0  0  0  0
  1  2  2  0
  2  3  1  0
  3  4  1  0
  4  5  1  0
  5  6  1  0
  6  7  2  0
  7  8  1  0
  8  9  1  0
  9 10  1  0
 10 11  2  0
 10 12  1  0
 12 13  1  6
 13 14  1  0
 12 15  1  0
 15 16  1  0
 16 17  1  1
 17 18  1  0
 17 19  1  0
 17 20  1  0
  8 21  2  0
 21 22  1  0
 22 23  2  0
 23 24  1  0
 24  2  1  0
 23  6  1  0
 16 12  1  0
M  END
>  <energy_score>  (4796) 
-18.246058

>  <inchikey>  (4796) 
MJLDTMXYOWQKIH-UHFFFAOYSA-N

>  <smiles>  (4796) 
O=C1CCCc2cc(NC(=O)C3(CF)CC3C(F)(F)F)ccc2N1

>  <ref_pdb>  (4796) 
A1068a

>  <alias>  (4796) 
MJLDTMXYOWQKIH-UHFFFAOYSA-N-P120-P37-P120-601513

>  <HIPPO Pose ID>  (4796) 
523161

>  <name>  (4796) 
MJLDTMXYOWQKIH-UHFFFAOYSA-N-P120-P37-P120-601513

>  <HIPPO Compound ID>  (4796) 
301739

>  <ref_mols>  (4796) 
A1445a,A0310a

>  <distance_score>  (4796) 
1.977589

>  <inspiration_score>  (4796) 
None

$$$$
JCKVWHZHBBUIDP-UHFFFAOYSA-N-P37-P37-P120-601513
     RDKit          3D

 24 25  0  0  0  0  0  0  0  0999 V2000
    3.6696   11.2218   30.9131 C   0  0  0  0  0  0  0  0  0  0  0  0
    2.5691   11.4218   29.8760 C   0  0  1  0  0  0  0  0  0  0  0  0
    2.1516   12.8112   29.9236 O   0  0  0  0  0  0  0  0  0  0  0  0
    3.0342   11.0857   28.4537 C   0  0  1  0  0  0  0  0  0  0  0  0
    2.0626   11.5837   27.5220 O   0  0  0  0  0  0  0  0  0  0  0  0
    4.3925   11.7283   28.1162 C   0  0  0  0  0  0  0  0  0  0  0  0
    4.6631   12.8126   28.4684 O   0  0  0  0  0  0  0  0  0  0  0  0
    5.1869   10.7288   27.2092 N   0  0  0  0  0  0  0  0  0  0  0  0
    6.3710   10.8955   26.5124 C   0  0  0  0  0  0  0  0  0  0  0  0
    6.8412    9.9769   25.5825 C   0  0  0  0  0  0  0  0  0  0  0  0
    7.9820   10.2014   24.8013 C   0  0  0  0  0  0  0  0  0  0  0  0
    8.4690   11.4871   24.7880 C   0  0  0  0  0  0  0  0  0  0  0  0
    8.0323   12.4079   25.7437 C   0  0  0  0  0  0  0  0  0  0  0  0
    7.0378   12.0791   26.6491 C   0  0  0  0  0  0  0  0  0  0  0  0
    8.4717   13.8371   25.7349 C   0  0  0  0  0  0  0  0  0  0  0  0
    7.6140   14.5104   24.6980 C   0  0  0  0  0  0  0  0  0  0  0  0
    7.8167   13.9131   23.3158 C   0  0  0  0  0  0  0  0  0  0  0  0
    9.0918   13.0928   23.0757 C   0  0  0  0  0  0  0  0  0  0  0  0
    9.9061   13.4048   22.2164 O   0  0  0  0  0  0  0  0  0  0  0  0
    9.2736   11.9089   23.7399 N   0  0  0  0  0  0  0  0  0  0  0  0
    1.3777   10.5012   30.1744 C   0  0  0  0  0  0  0  0  0  0  0  0
    0.9708   10.6627   31.4541 F   0  0  0  0  0  0  0  0  0  0  0  0
    1.6930    9.1988   30.0056 F   0  0  0  0  0  0  0  0  0  0  0  0
    0.3242   10.7784   29.3796 F   0  0  0  0  0  0  0  0  0  0  0  0
  2  1  1  1
  2  3  1  0
  2  4  1  0
  4  5  1  6
  4  6  1  0
  6  7  2  0
  6  8  1  0
  8  9  1  0
  9 10  2  0
 10 11  1  0
 11 12  2  0
 12 13  1  0
 13 14  2  0
 13 15  1  0
 15 16  1  0
 16 17  1  0
 17 18  1  0
 18 19  2  0
 18 20  1  0
  2 21  1  0
 21 22  1  0
 21 23  1  0
 21 24  1  0
 14  9  1  0
 20 12  1  0
M  END
>  <energy_score>  (4797) 
-147.050904

>  <inchikey>  (4797) 
JCKVWHZHBBUIDP-UHFFFAOYSA-N

>  <smiles>  (4797) 
CC(O)(C(O)C(=O)Nc1ccc2c(c1)CCCC(=O)N2)C(F)(F)F

>  <ref_pdb>  (4797) 
A1068a

>  <alias>  (4797) 
JCKVWHZHBBUIDP-UHFFFAOYSA-N-P37-P37-P120-601513

>  <HIPPO Pose ID>  (4797) 
523162

>  <name>  (4797) 
JCKVWHZHBBUIDP-UHFFFAOYSA-N-P37-P37-P120-601513

>  <HIPPO Compound ID>  (4797) 
301740

>  <ref_mols>  (4797) 
A1445a,A0310a

>  <distance_score>  (4797) 
1.875548

>  <inspiration_score>  (4797) 
None

$$$$
WYWRZZTUGPHIDK-UHFFFAOYSA-N-P37-P37-P120-601513
     RDKit          3D

 24 26  0  0  0  0  0  0  0  0999 V2000
   10.4526    9.8891   22.2555 O   0  0  0  0  0  0  0  0  0  0  0  0
   10.0369   10.7410   23.0342 C   0  0  0  0  0  0  0  0  0  0  0  0
   10.5940   12.1196   23.1495 C   0  0  0  0  0  0  0  0  0  0  0  0
    9.5237   13.1816   23.0505 C   0  0  0  0  0  0  0  0  0  0  0  0
    8.8886   13.4709   24.3937 C   0  0  0  0  0  0  0  0  0  0  0  0
    8.0698   12.3629   24.9937 C   0  0  0  0  0  0  0  0  0  0  0  0
    7.0944   12.7659   25.9427 C   0  0  0  0  0  0  0  0  0  0  0  0
    6.3128   11.8355   26.6217 C   0  0  0  0  0  0  0  0  0  0  0  0
    5.4014   12.2247   27.5865 N   0  0  0  0  0  0  0  0  0  0  0  0
    4.6002   11.3787   28.6196 C   0  0  0  0  0  0  0  0  0  0  0  0
    4.6476   10.2365   28.8619 O   0  0  0  0  0  0  0  0  0  0  0  0
    3.6451   12.3132   29.3267 C   0  0  2  0  0  0  0  0  0  0  0  0
    4.3757   13.3629   30.1486 C   0  0  0  0  0  0  0  0  0  0  0  0
    3.6064   13.5941   31.3339 O   0  0  0  0  0  0  0  0  0  0  0  0
    2.4632   12.7315   31.2971 C   0  0  0  0  0  0  0  0  0  0  0  0
    2.8399   11.5867   30.3919 C   0  0  1  0  0  0  0  0  0  0  0  0
    1.6258   10.8459   29.9033 C   0  0  0  0  0  0  0  0  0  0  0  0
    0.9107   10.3920   30.9550 F   0  0  0  0  0  0  0  0  0  0  0  0
    1.9255    9.7873   29.1287 F   0  0  0  0  0  0  0  0  0  0  0  0
    0.8253   11.6563   29.1766 F   0  0  0  0  0  0  0  0  0  0  0  0
    6.4570   10.4956   26.3382 C   0  0  0  0  0  0  0  0  0  0  0  0
    7.3844   10.1025   25.3964 C   0  0  0  0  0  0  0  0  0  0  0  0
    8.2096   10.9984   24.7350 C   0  0  0  0  0  0  0  0  0  0  0  0
    9.0504   10.3420   23.8456 N   0  0  0  0  0  0  0  0  0  0  0  0
  1  2  2  0
  2  3  1  0
  3  4  1  0
  4  5  1  0
  5  6  1  0
  6  7  2  0
  7  8  1  0
  8  9  1  0
  9 10  1  0
 10 11  2  0
 12 10  1  1
 12 13  1  0
 13 14  1  0
 14 15  1  0
 15 16  1  0
 16 17  1  6
 17 18  1  0
 17 19  1  0
 17 20  1  0
  8 21  2  0
 21 22  1  0
 22 23  2  0
 23 24  1  0
 24  2  1  0
 23  6  1  0
 16 12  1  0
M  END
>  <energy_score>  (4798) 
-44.025904

>  <inchikey>  (4798) 
WYWRZZTUGPHIDK-UHFFFAOYSA-N

>  <smiles>  (4798) 
O=C1CCCc2cc(NC(=O)C3COCC3C(F)(F)F)ccc2N1

>  <ref_pdb>  (4798) 
A1068a

>  <alias>  (4798) 
WYWRZZTUGPHIDK-UHFFFAOYSA-N-P37-P37-P120-601513

>  <HIPPO Pose ID>  (4798) 
523164

>  <name>  (4798) 
WYWRZZTUGPHIDK-UHFFFAOYSA-N-P37-P37-P120-601513

>  <HIPPO Compound ID>  (4798) 
301741

>  <ref_mols>  (4798) 
A1445a,A0310a

>  <distance_score>  (4798) 
1.876023

>  <inspiration_score>  (4798) 
None

$$$$
DPANDSUZTQUWHP-UHFFFAOYSA-N-P120-P37-P120-601513
     RDKit          3D

 24 26  0  0  0  0  0  0  0  0999 V2000
    4.0431   11.6389   27.6581 O   0  0  0  0  0  0  0  0  0  0  0  0
    4.3227   10.5110   27.5144 C   0  0  0  0  0  0  0  0  0  0  0  0
    3.7908    9.4261   28.4388 C   0  0  0  0  0  0  0  0  0  0  0  0
    3.1850    9.9839   29.7470 C   0  0  0  0  0  0  0  0  0  0  0  0
    1.7200   10.3545   29.5973 C   0  0  0  0  0  0  0  0  0  0  0  0
    1.1789   10.7132   30.7846 F   0  0  0  0  0  0  0  0  0  0  0  0
    1.0327    9.2752   29.1513 F   0  0  0  0  0  0  0  0  0  0  0  0
    1.5094   11.3610   28.7266 F   0  0  0  0  0  0  0  0  0  0  0  0
    4.0595   11.0307   30.5120 C   0  0  0  0  0  0  0  0  0  0  0  0
    3.8003   10.2539   31.8138 C   0  0  0  0  0  0  0  0  0  0  0  0
    3.4280    9.0281   30.9619 C   0  0  0  0  0  0  0  0  0  0  0  0
    5.3123    9.8332   26.5124 N   0  0  0  0  0  0  0  0  0  0  0  0
    6.1896   10.3956   25.5901 C   0  0  0  0  0  0  0  0  0  0  0  0
    7.1834    9.6709   24.9366 C   0  0  0  0  0  0  0  0  0  0  0  0
    8.1606   10.3094   24.1674 C   0  0  0  0  0  0  0  0  0  0  0  0
    8.1370   11.6952   24.0657 C   0  0  0  0  0  0  0  0  0  0  0  0
    7.1228   12.4330   24.6711 C   0  0  0  0  0  0  0  0  0  0  0  0
    6.1491   11.7594   25.4091 C   0  0  0  0  0  0  0  0  0  0  0  0
    6.9700   13.9242   24.6607 C   0  0  0  0  0  0  0  0  0  0  0  0
    8.1567   14.7775   24.2633 C   0  0  0  0  0  0  0  0  0  0  0  0
    9.4887   14.3059   24.8270 C   0  0  0  0  0  0  0  0  0  0  0  0
   10.0480   13.0385   24.1903 C   0  0  0  0  0  0  0  0  0  0  0  0
   11.1838   12.6321   24.3975 O   0  0  0  0  0  0  0  0  0  0  0  0
    9.1852   12.3396   23.3825 N   0  0  0  0  0  0  0  0  0  0  0  0
  1  2  2  0
  2  3  1  0
  3  4  1  0
  4  5  1  0
  5  6  1  0
  5  7  1  0
  5  8  1  0
  4  9  1  0
  9 10  1  0
 10 11  1  0
  2 12  1  0
 12 13  1  0
 13 14  2  0
 14 15  1  0
 15 16  2  0
 16 17  1  0
 17 18  2  0
 17 19  1  0
 19 20  1  0
 20 21  1  0
 21 22  1  0
 22 23  2  0
 22 24  1  0
 11  4  1  0
 18 13  1  0
 24 16  1  0
M  END
>  <energy_score>  (4799) 
-8.810533

>  <inchikey>  (4799) 
DPANDSUZTQUWHP-UHFFFAOYSA-N

>  <smiles>  (4799) 
O=C(CC1(C(F)(F)F)CCC1)Nc1ccc2c(c1)CCCC(=O)N2

>  <ref_pdb>  (4799) 
A1068a

>  <alias>  (4799) 
DPANDSUZTQUWHP-UHFFFAOYSA-N-P120-P37-P120-601513

>  <HIPPO Pose ID>  (4799) 
523175

>  <name>  (4799) 
DPANDSUZTQUWHP-UHFFFAOYSA-N-P120-P37-P120-601513

>  <HIPPO Compound ID>  (4799) 
301746

>  <ref_mols>  (4799) 
A1445a,A0310a

>  <distance_score>  (4799) 
1.813482

>  <inspiration_score>  (4799) 
None

$$$$
IUQRJLJQUQXUPV-UHFFFAOYSA-N-P37-P37-P120-601513
     RDKit          3D

 24 26  0  0  0  0  0  0  0  0999 V2000
   10.4328    9.8155   22.2862 O   0  0  0  0  0  0  0  0  0  0  0  0
    9.9911   10.6929   23.0268 C   0  0  0  0  0  0  0  0  0  0  0  0
   10.3865   12.1316   22.8998 C   0  0  0  0  0  0  0  0  0  0  0  0
   10.2708   12.9800   24.1376 C   0  0  0  0  0  0  0  0  0  0  0  0
    8.8314   13.3395   24.4624 C   0  0  0  0  0  0  0  0  0  0  0  0
    8.0212   12.2396   25.0768 C   0  0  0  0  0  0  0  0  0  0  0  0
    6.9769   12.6209   25.9719 C   0  0  0  0  0  0  0  0  0  0  0  0
    6.1169   11.6747   26.5213 C   0  0  0  0  0  0  0  0  0  0  0  0
    5.0306   11.9445   27.3409 N   0  0  0  0  0  0  0  0  0  0  0  0
    4.6895   13.1929   28.1668 C   0  0  0  0  0  0  0  0  0  0  0  0
    5.2251   14.2238   28.2321 O   0  0  0  0  0  0  0  0  0  0  0  0
    3.4120   12.9541   28.9576 C   0  0  2  0  0  0  0  0  0  0  0  0
    2.2311   13.7688   28.4531 C   0  0  0  0  0  0  0  0  0  0  0  0
    1.1158   13.6512   29.3250 O   0  0  0  0  0  0  0  0  0  0  0  0
    3.5418   12.7789   30.4640 C   0  0  0  0  0  0  0  0  0  0  0  0
    3.2104   11.5650   29.6305 C   0  0  1  0  0  0  0  0  0  0  0  0
    1.8905   10.8689   29.6848 C   0  0  0  0  0  0  0  0  0  0  0  0
    1.2162   11.1107   30.8248 F   0  0  0  0  0  0  0  0  0  0  0  0
    2.0937    9.5260   29.6174 F   0  0  0  0  0  0  0  0  0  0  0  0
    1.1187   11.1671   28.6140 F   0  0  0  0  0  0  0  0  0  0  0  0
    6.3004   10.3461   26.2043 C   0  0  0  0  0  0  0  0  0  0  0  0
    7.3238    9.9800   25.3526 C   0  0  0  0  0  0  0  0  0  0  0  0
    8.1824   10.8909   24.7696 C   0  0  0  0  0  0  0  0  0  0  0  0
    9.0697   10.2710   23.8991 N   0  0  0  0  0  0  0  0  0  0  0  0
  1  2  2  0
  2  3  1  0
  3  4  1  0
  4  5  1  0
  5  6  1  0
  6  7  2  0
  7  8  1  0
  8  9  1  0
  9 10  1  0
 10 11  2  0
 10 12  1  0
 12 13  1  1
 13 14  1  0
 12 15  1  0
 15 16  1  0
 16 17  1  1
 17 18  1  0
 17 19  1  0
 17 20  1  0
  8 21  2  0
 21 22  1  0
 22 23  2  0
 23 24  1  0
 24  2  1  0
 23  6  1  0
 16 12  1  0
M  END
>  <energy_score>  (4800) 
-43.19932

>  <inchikey>  (4800) 
IUQRJLJQUQXUPV-UHFFFAOYSA-N

>  <smiles>  (4800) 
O=C1CCCc2cc(NC(=O)C3(CO)CC3C(F)(F)F)ccc2N1

>  <ref_pdb>  (4800) 
A1068a

>  <alias>  (4800) 
IUQRJLJQUQXUPV-UHFFFAOYSA-N-P37-P37-P120-601513

>  <HIPPO Pose ID>  (4800) 
523176

>  <name>  (4800) 
IUQRJLJQUQXUPV-UHFFFAOYSA-N-P37-P37-P120-601513

>  <HIPPO Compound ID>  (4800) 
301747

>  <ref_mols>  (4800) 
A1445a,A0310a

>  <distance_score>  (4800) 
1.758326

>  <inspiration_score>  (4800) 
None

$$$$
RPDFXHQKVQXNAU-UHFFFAOYSA-N-P37-P37-P120-601513
     RDKit          3D

 24 26  0  0  0  0  0  0  0  0999 V2000
   10.4760    9.8184   22.3112 O   0  0  0  0  0  0  0  0  0  0  0  0
   10.0066   10.6961   23.0323 C   0  0  0  0  0  0  0  0  0  0  0  0
   10.3952   12.1359   22.8998 C   0  0  0  0  0  0  0  0  0  0  0  0
   10.2504   12.9945   24.1269 C   0  0  0  0  0  0  0  0  0  0  0  0
    8.8012   13.3404   24.4205 C   0  0  0  0  0  0  0  0  0  0  0  0
    8.0021   12.2391   25.0455 C   0  0  0  0  0  0  0  0  0  0  0  0
    6.9482   12.6176   25.9280 C   0  0  0  0  0  0  0  0  0  0  0  0
    6.1095   11.6661   26.5020 C   0  0  0  0  0  0  0  0  0  0  0  0
    5.0174   11.9390   27.3118 N   0  0  0  0  0  0  0  0  0  0  0  0
    4.5355   13.2685   27.9325 C   0  0  0  0  0  0  0  0  0  0  0  0
    5.0245   14.3295   27.9233 O   0  0  0  0  0  0  0  0  0  0  0  0
    3.1585   12.9705   28.6365 C   0  0  2  0  0  0  0  0  0  0  0  0
    2.7067   14.0110   29.7119 C   0  0  0  0  0  0  0  0  0  0  0  0
    3.0632   12.9524   30.7640 C   0  0  0  0  0  0  0  0  0  0  0  0
    3.2628   12.9841   31.9589 O   0  0  0  0  0  0  0  0  0  0  0  0
    3.1153   11.8343   29.7319 C   0  0  1  0  0  0  0  0  0  0  0  0
    1.8996   10.9560   29.7560 C   0  0  0  0  0  0  0  0  0  0  0  0
    1.7204   10.3805   30.9601 F   0  0  0  0  0  0  0  0  0  0  0  0
    2.0257    9.9688   28.8366 F   0  0  0  0  0  0  0  0  0  0  0  0
    0.7887   11.6535   29.4389 F   0  0  0  0  0  0  0  0  0  0  0  0
    6.3195   10.3353   26.2164 C   0  0  0  0  0  0  0  0  0  0  0  0
    7.3413    9.9740   25.3598 C   0  0  0  0  0  0  0  0  0  0  0  0
    8.1824   10.8890   24.7584 C   0  0  0  0  0  0  0  0  0  0  0  0
    9.0771   10.2723   23.8942 N   0  0  0  0  0  0  0  0  0  0  0  0
  1  2  2  0
  2  3  1  0
  3  4  1  0
  4  5  1  0
  5  6  1  0
  6  7  2  0
  7  8  1  0
  8  9  1  0
  9 10  1  0
 10 11  2  0
 12 10  1  1
 12 13  1  0
 13 14  1  0
 14 15  2  0
 14 16  1  0
 16 17  1  6
 17 18  1  0
 17 19  1  0
 17 20  1  0
  8 21  2  0
 21 22  1  0
 22 23  2  0
 23 24  1  0
 24  2  1  0
 23  6  1  0
 16 12  1  0
M  END
>  <energy_score>  (4801) 
-34.982903

>  <inchikey>  (4801) 
RPDFXHQKVQXNAU-UHFFFAOYSA-N

>  <smiles>  (4801) 
O=C1CCCc2cc(NC(=O)C3CC(=O)C3C(F)(F)F)ccc2N1

>  <ref_pdb>  (4801) 
A1068a

>  <alias>  (4801) 
RPDFXHQKVQXNAU-UHFFFAOYSA-N-P37-P37-P120-601513

>  <HIPPO Pose ID>  (4801) 
523178

>  <name>  (4801) 
RPDFXHQKVQXNAU-UHFFFAOYSA-N-P37-P37-P120-601513

>  <HIPPO Compound ID>  (4801) 
301748

>  <ref_mols>  (4801) 
A1445a,A0310a

>  <distance_score>  (4801) 
1.833338

>  <inspiration_score>  (4801) 
None

$$$$
RPDFXHQKVQXNAU-UHFFFAOYSA-N-P120-P37-P120-601513
     RDKit          3D

 24 26  0  0  0  0  0  0  0  0999 V2000
    8.9660    8.2596   22.4130 O   0  0  0  0  0  0  0  0  0  0  0  0
    8.6651    9.1638   23.1799 C   0  0  0  0  0  0  0  0  0  0  0  0
    9.6561    9.9764   23.8570 C   0  0  0  0  0  0  0  0  0  0  0  0
    9.6573   11.4876   23.7072 C   0  0  0  0  0  0  0  0  0  0  0  0
    8.3973   12.2181   24.1640 C   0  0  0  0  0  0  0  0  0  0  0  0
    7.3492   11.4834   24.9623 C   0  0  0  0  0  0  0  0  0  0  0  0
    6.6497   12.2112   25.9815 C   0  0  0  0  0  0  0  0  0  0  0  0
    5.5100   11.6828   26.5755 C   0  0  0  0  0  0  0  0  0  0  0  0
    4.6955   12.2294   27.5472 N   0  0  0  0  0  0  0  0  0  0  0  0
    4.9967   13.2748   28.6291 C   0  0  0  0  0  0  0  0  0  0  0  0
    5.9591   13.9009   28.8275 O   0  0  0  0  0  0  0  0  0  0  0  0
    3.7012   13.2803   29.5371 C   0  0  2  0  0  0  0  0  0  0  0  0
    3.8128   14.0001   30.9057 C   0  0  0  0  0  0  0  0  0  0  0  0
    3.2250   12.7436   31.5454 C   0  0  0  0  0  0  0  0  0  0  0  0
    2.8315   12.4971   32.6657 O   0  0  0  0  0  0  0  0  0  0  0  0
    3.3529   11.9151   30.2760 C   0  0  1  0  0  0  0  0  0  0  0  0
    2.0970   11.1692   29.9180 C   0  0  0  0  0  0  0  0  0  0  0  0
    1.6483   10.4168   30.9420 F   0  0  0  0  0  0  0  0  0  0  0  0
    2.3284   10.3323   28.8769 F   0  0  0  0  0  0  0  0  0  0  0  0
    1.1137   12.0097   29.5325 F   0  0  0  0  0  0  0  0  0  0  0  0
    5.0383   10.4763   26.1388 C   0  0  0  0  0  0  0  0  0  0  0  0
    5.6675    9.8119   25.1226 C   0  0  0  0  0  0  0  0  0  0  0  0
    6.8657   10.2257   24.5759 C   0  0  0  0  0  0  0  0  0  0  0  0
    7.4063    9.3321   23.6383 N   0  0  0  0  0  0  0  0  0  0  0  0
  1  2  2  0
  2  3  1  0
  3  4  1  0
  4  5  1  0
  5  6  1  0
  6  7  2  0
  7  8  1  0
  8  9  1  0
  9 10  1  0
 10 11  2  0
 12 10  1  1
 12 13  1  0
 13 14  1  0
 14 15  2  0
 14 16  1  0
 16 17  1  6
 17 18  1  0
 17 19  1  0
 17 20  1  0
  8 21  2  0
 21 22  1  0
 22 23  2  0
 23 24  1  0
 24  2  1  0
 23  6  1  0
 16 12  1  0
M  END
>  <energy_score>  (4802) 
-13.768552

>  <inchikey>  (4802) 
RPDFXHQKVQXNAU-UHFFFAOYSA-N

>  <smiles>  (4802) 
O=C1CCCc2cc(NC(=O)C3CC(=O)C3C(F)(F)F)ccc2N1

>  <ref_pdb>  (4802) 
A1068a

>  <alias>  (4802) 
RPDFXHQKVQXNAU-UHFFFAOYSA-N-P120-P37-P120-601513

>  <HIPPO Pose ID>  (4802) 
523179

>  <name>  (4802) 
RPDFXHQKVQXNAU-UHFFFAOYSA-N-P120-P37-P120-601513

>  <HIPPO Compound ID>  (4802) 
301748

>  <ref_mols>  (4802) 
A1445a,A0310a

>  <distance_score>  (4802) 
1.893638

>  <inspiration_score>  (4802) 
None

$$$$
SMNZPGBYIXIJLJ-UHFFFAOYSA-N-P37-P37-P120-601513
     RDKit          3D

 25 26  0  0  0  0  0  0  0  0999 V2000
    2.8372   12.9381   30.7947 C   0  0  0  0  0  0  0  0  0  0  0  0
    3.4126   12.1779   29.6826 N   0  0  0  0  0  0  0  0  0  0  0  0
    2.9460   12.7483   28.4175 C   0  0  0  0  0  0  0  0  0  0  0  0
    3.3006   10.6737   29.7954 C   0  0  2  0  0  0  0  0  0  0  0  0
    3.8679   10.1991   31.1613 C   0  0  0  0  0  0  0  0  0  0  0  0
    4.1404    9.9108   28.6877 C   0  0  0  0  0  0  0  0  0  0  0  0
    5.4914   10.5626   28.3715 C   0  0  0  0  0  0  0  0  0  0  0  0
    5.9785   11.3512   29.0859 O   0  0  0  0  0  0  0  0  0  0  0  0
    5.9461   10.0545   26.9635 N   0  0  0  0  0  0  0  0  0  0  0  0
    6.9917   10.4690   26.1521 C   0  0  0  0  0  0  0  0  0  0  0  0
    7.5846    9.7413   25.1236 C   0  0  0  0  0  0  0  0  0  0  0  0
    8.5629   10.2834   24.2871 C   0  0  0  0  0  0  0  0  0  0  0  0
    8.7779   11.6404   24.3733 C   0  0  0  0  0  0  0  0  0  0  0  0
    8.2344   12.3729   25.4278 C   0  0  0  0  0  0  0  0  0  0  0  0
    7.3773   11.7734   26.3315 C   0  0  0  0  0  0  0  0  0  0  0  0
    8.4596   13.8437   25.5713 C   0  0  0  0  0  0  0  0  0  0  0  0
    7.4784   14.5263   24.6558 C   0  0  0  0  0  0  0  0  0  0  0  0
    7.6152   14.0636   23.2151 C   0  0  0  0  0  0  0  0  0  0  0  0
    8.9527   13.4549   22.7706 C   0  0  0  0  0  0  0  0  0  0  0  0
    9.5607   13.8908   21.8006 O   0  0  0  0  0  0  0  0  0  0  0  0
    9.4202   12.3004   23.3370 N   0  0  0  0  0  0  0  0  0  0  0  0
    1.8290   10.1552   29.7060 C   0  0  0  0  0  0  0  0  0  0  0  0
    1.0826   10.5631   30.7567 F   0  0  0  0  0  0  0  0  0  0  0  0
    1.7822    8.8043   29.6811 F   0  0  0  0  0  0  0  0  0  0  0  0
    1.2126   10.5845   28.5764 F   0  0  0  0  0  0  0  0  0  0  0  0
  1  2  1  0
  2  3  1  0
  2  4  1  0
  4  5  1  1
  4  6  1  0
  6  7  1  0
  7  8  2  0
  7  9  1  0
  9 10  1  0
 10 11  2  0
 11 12  1  0
 12 13  2  0
 13 14  1  0
 14 15  2  0
 14 16  1  0
 16 17  1  0
 17 18  1  0
 18 19  1  0
 19 20  2  0
 19 21  1  0
  4 22  1  0
 22 23  1  0
 22 24  1  0
 22 25  1  0
 15 10  1  0
 21 13  1  0
M  END
>  <energy_score>  (4803) 
-7.53638

>  <inchikey>  (4803) 
SMNZPGBYIXIJLJ-UHFFFAOYSA-N

>  <smiles>  (4803) 
CN(C)C(C)(CC(=O)Nc1ccc2c(c1)CCCC(=O)N2)C(F)(F)F

>  <ref_pdb>  (4803) 
A1068a

>  <alias>  (4803) 
SMNZPGBYIXIJLJ-UHFFFAOYSA-N-P37-P37-P120-601513

>  <HIPPO Pose ID>  (4803) 
523188

>  <name>  (4803) 
SMNZPGBYIXIJLJ-UHFFFAOYSA-N-P37-P37-P120-601513

>  <HIPPO Compound ID>  (4803) 
301753

>  <ref_mols>  (4803) 
A1445a,A0310a

>  <distance_score>  (4803) 
1.680394

>  <inspiration_score>  (4803) 
None

$$$$
SMNZPGBYIXIJLJ-UHFFFAOYSA-N-P120-P37-P120-601513
     RDKit          3D

 25 26  0  0  0  0  0  0  0  0999 V2000
    4.8137   12.4455   29.9005 C   0  0  0  0  0  0  0  0  0  0  0  0
    3.3864   12.2091   29.6524 N   0  0  0  0  0  0  0  0  0  0  0  0
    2.6171   13.1421   30.4879 C   0  0  0  0  0  0  0  0  0  0  0  0
    2.9328   10.7647   29.7838 C   0  0  2  0  0  0  0  0  0  0  0  0
    3.6550   10.0025   30.9203 C   0  0  0  0  0  0  0  0  0  0  0  0
    3.1049   10.0621   28.4144 C   0  0  0  0  0  0  0  0  0  0  0  0
    4.5296    9.8968   27.9486 C   0  0  0  0  0  0  0  0  0  0  0  0
    5.3012    9.2280   28.5142 O   0  0  0  0  0  0  0  0  0  0  0  0
    4.6695   10.6929   26.6256 N   0  0  0  0  0  0  0  0  0  0  0  0
    5.7658   10.8961   25.8149 C   0  0  0  0  0  0  0  0  0  0  0  0
    6.6360    9.8984   25.4254 C   0  0  0  0  0  0  0  0  0  0  0  0
    7.7235   10.1653   24.5949 C   0  0  0  0  0  0  0  0  0  0  0  0
    7.9952   11.4838   24.2336 C   0  0  0  0  0  0  0  0  0  0  0  0
    7.0773   12.4791   24.5634 C   0  0  0  0  0  0  0  0  0  0  0  0
    5.9543   12.1632   25.3311 C   0  0  0  0  0  0  0  0  0  0  0  0
    7.1869   13.9119   24.1724 C   0  0  0  0  0  0  0  0  0  0  0  0
    8.4335   14.4890   24.7770 C   0  0  0  0  0  0  0  0  0  0  0  0
    9.5983   14.1966   23.8746 C   0  0  0  0  0  0  0  0  0  0  0  0
   10.0648   12.7692   23.7762 C   0  0  0  0  0  0  0  0  0  0  0  0
   11.2703   12.5160   23.7613 O   0  0  0  0  0  0  0  0  0  0  0  0
    9.2401   11.7032   23.6449 N   0  0  0  0  0  0  0  0  0  0  0  0
    1.3970   10.5638   30.0491 C   0  0  0  0  0  0  0  0  0  0  0  0
    1.0364   10.9855   31.2800 F   0  0  0  0  0  0  0  0  0  0  0  0
    1.0466    9.2569   29.9574 F   0  0  0  0  0  0  0  0  0  0  0  0
    0.6457   11.2307   29.1398 F   0  0  0  0  0  0  0  0  0  0  0  0
  1  2  1  0
  2  3  1  0
  2  4  1  0
  4  5  1  1
  4  6  1  0
  6  7  1  0
  7  8  2  0
  7  9  1  0
  9 10  1  0
 10 11  2  0
 11 12  1  0
 12 13  2  0
 13 14  1  0
 14 15  2  0
 14 16  1  0
 16 17  1  0
 17 18  1  0
 18 19  1  0
 19 20  2  0
 19 21  1  0
  4 22  1  0
 22 23  1  0
 22 24  1  0
 22 25  1  0
 15 10  1  0
 21 13  1  0
M  END
>  <energy_score>  (4804) 
-14.007482

>  <inchikey>  (4804) 
SMNZPGBYIXIJLJ-UHFFFAOYSA-N

>  <smiles>  (4804) 
CN(C)C(C)(CC(=O)Nc1ccc2c(c1)CCCC(=O)N2)C(F)(F)F

>  <ref_pdb>  (4804) 
A1068a

>  <alias>  (4804) 
SMNZPGBYIXIJLJ-UHFFFAOYSA-N-P120-P37-P120-601513

>  <HIPPO Pose ID>  (4804) 
523189

>  <name>  (4804) 
SMNZPGBYIXIJLJ-UHFFFAOYSA-N-P120-P37-P120-601513

>  <HIPPO Compound ID>  (4804) 
301753

>  <ref_mols>  (4804) 
A1445a,A0310a

>  <distance_score>  (4804) 
1.870005

>  <inspiration_score>  (4804) 
None

$$$$
AMUDLGAFUNQBFB-UHFFFAOYSA-N-P37-P37-P120-601513
     RDKit          3D

 25 26  0  0  0  0  0  0  0  0999 V2000
    6.3675   10.2162   30.6962 C   0  0  0  0  0  0  0  0  0  0  0  0
    5.2564   10.9798   31.2327 N   0  0  0  0  0  0  0  0  0  0  0  0
    5.4177   12.4142   31.0238 C   0  0  0  0  0  0  0  0  0  0  0  0
    3.9107   10.4805   30.9254 C   0  0  0  0  0  0  0  0  0  0  0  0
    3.2961   10.6713   29.5333 C   0  0  1  0  0  0  0  0  0  0  0  0
    4.0258    9.8646   28.4151 C   0  0  0  0  0  0  0  0  0  0  0  0
    4.8628   10.8161   27.5755 C   0  0  0  0  0  0  0  0  0  0  0  0
    4.6852   11.9708   27.6572 O   0  0  0  0  0  0  0  0  0  0  0  0
    5.9178   10.0106   26.7512 N   0  0  0  0  0  0  0  0  0  0  0  0
    6.9787   10.4510   25.9720 C   0  0  0  0  0  0  0  0  0  0  0  0
    7.7216    9.6965   25.0655 C   0  0  0  0  0  0  0  0  0  0  0  0
    8.6977   10.2673   24.2428 C   0  0  0  0  0  0  0  0  0  0  0  0
    8.8420   11.6377   24.2881 C   0  0  0  0  0  0  0  0  0  0  0  0
    8.2221   12.3728   25.2931 C   0  0  0  0  0  0  0  0  0  0  0  0
    7.2917   11.7771   26.1170 C   0  0  0  0  0  0  0  0  0  0  0  0
    8.4219   13.8436   25.4567 C   0  0  0  0  0  0  0  0  0  0  0  0
    7.4642   14.5081   24.5074 C   0  0  0  0  0  0  0  0  0  0  0  0
    7.6971   14.0690   23.0715 C   0  0  0  0  0  0  0  0  0  0  0  0
    9.0624   13.4653   22.6986 C   0  0  0  0  0  0  0  0  0  0  0  0
    9.7322   13.9262   21.7820 O   0  0  0  0  0  0  0  0  0  0  0  0
    9.5045   12.3023   23.2684 N   0  0  0  0  0  0  0  0  0  0  0  0
    1.8261   10.2955   29.5739 C   0  0  0  0  0  0  0  0  0  0  0  0
    1.1871   10.8679   30.6152 F   0  0  0  0  0  0  0  0  0  0  0  0
    1.6568    8.9607   29.6705 F   0  0  0  0  0  0  0  0  0  0  0  0
    1.2012   10.7020   28.4430 F   0  0  0  0  0  0  0  0  0  0  0  0
  1  2  1  0
  2  3  1  0
  2  4  1  0
  5  4  1  1
  5  6  1  0
  6  7  1  0
  7  8  2  0
  7  9  1  0
  9 10  1  0
 10 11  2  0
 11 12  1  0
 12 13  2  0
 13 14  1  0
 14 15  2  0
 14 16  1  0
 16 17  1  0
 17 18  1  0
 18 19  1  0
 19 20  2  0
 19 21  1  0
  5 22  1  0
 22 23  1  0
 22 24  1  0
 22 25  1  0
 15 10  1  0
 21 13  1  0
M  END
>  <energy_score>  (4805) 
-53.998149

>  <inchikey>  (4805) 
AMUDLGAFUNQBFB-UHFFFAOYSA-N

>  <smiles>  (4805) 
CN(C)CC(CC(=O)Nc1ccc2c(c1)CCCC(=O)N2)C(F)(F)F

>  <ref_pdb>  (4805) 
A1068a

>  <alias>  (4805) 
AMUDLGAFUNQBFB-UHFFFAOYSA-N-P37-P37-P120-601513

>  <HIPPO Pose ID>  (4805) 
523194

>  <name>  (4805) 
AMUDLGAFUNQBFB-UHFFFAOYSA-N-P37-P37-P120-601513

>  <HIPPO Compound ID>  (4805) 
301756

>  <ref_mols>  (4805) 
A1445a,A0310a

>  <distance_score>  (4805) 
1.719902

>  <inspiration_score>  (4805) 
None

$$$$
VUVJMSXHLUTATD-UHFFFAOYSA-N-P37-P37-P120-601513
     RDKit          3D

 25 27  0  0  0  0  0  0  0  0999 V2000
   10.4946    9.9267   22.1629 O   0  0  0  0  0  0  0  0  0  0  0  0
   10.0851   10.8175   22.9061 C   0  0  0  0  0  0  0  0  0  0  0  0
   10.5311   12.2441   22.8107 C   0  0  0  0  0  0  0  0  0  0  0  0
   10.2666   13.1343   23.9980 C   0  0  0  0  0  0  0  0  0  0  0  0
    8.7875   13.4497   24.1510 C   0  0  0  0  0  0  0  0  0  0  0  0
    8.0373   12.3573   24.8524 C   0  0  0  0  0  0  0  0  0  0  0  0
    7.0181   12.7349   25.7671 C   0  0  0  0  0  0  0  0  0  0  0  0
    6.3655   11.7692   26.5185 C   0  0  0  0  0  0  0  0  0  0  0  0
    5.4159   12.0250   27.4875 N   0  0  0  0  0  0  0  0  0  0  0  0
    4.9440   11.1603   28.6918 C   0  0  0  0  0  0  0  0  0  0  0  0
    5.3420   10.1346   29.0906 O   0  0  0  0  0  0  0  0  0  0  0  0
    3.6961   11.8193   29.3093 C   0  0  2  0  0  0  0  0  0  0  0  0
    4.0400   12.7349   30.3548 N   0  0  0  0  0  0  0  0  0  0  0  0
    3.9442   12.1631   31.6023 C   0  0  0  0  0  0  0  0  0  0  0  0
    4.3080   12.6949   32.6349 O   0  0  0  0  0  0  0  0  0  0  0  0
    3.3747   10.7761   31.4622 C   0  0  0  0  0  0  0  0  0  0  0  0
    2.9186   10.7015   30.0048 C   0  0  1  0  0  0  0  0  0  0  0  0
    1.4353   10.8466   29.8574 C   0  0  0  0  0  0  0  0  0  0  0  0
    0.9411   11.8103   30.6493 F   0  0  0  0  0  0  0  0  0  0  0  0
    0.8235    9.6849   30.1741 F   0  0  0  0  0  0  0  0  0  0  0  0
    1.1023   11.1310   28.5782 F   0  0  0  0  0  0  0  0  0  0  0  0
    6.6345   10.4324   26.2927 C   0  0  0  0  0  0  0  0  0  0  0  0
    7.5570   10.0636   25.3457 C   0  0  0  0  0  0  0  0  0  0  0  0
    8.2840   10.9987   24.6407 C   0  0  0  0  0  0  0  0  0  0  0  0
    9.1664   10.3904   23.7690 N   0  0  0  0  0  0  0  0  0  0  0  0
  1  2  2  0
  2  3  1  0
  3  4  1  0
  4  5  1  0
  5  6  1  0
  6  7  2  0
  7  8  1  0
  8  9  1  0
  9 10  1  0
 10 11  2  0
 12 10  1  1
 12 13  1  0
 13 14  1  0
 14 15  2  0
 14 16  1  0
 16 17  1  0
 17 18  1  1
 18 19  1  0
 18 20  1  0
 18 21  1  0
  8 22  2  0
 22 23  1  0
 23 24  2  0
 24 25  1  0
 25  2  1  0
 24  6  1  0
 17 12  1  0
M  END
>  <energy_score>  (4806) 
-30.541083

>  <inchikey>  (4806) 
VUVJMSXHLUTATD-UHFFFAOYSA-N

>  <smiles>  (4806) 
O=C1CCCc2cc(NC(=O)C3NC(=O)CC3C(F)(F)F)ccc2N1

>  <ref_pdb>  (4806) 
A1068a

>  <alias>  (4806) 
VUVJMSXHLUTATD-UHFFFAOYSA-N-P37-P37-P120-601513

>  <HIPPO Pose ID>  (4806) 
523200

>  <name>  (4806) 
VUVJMSXHLUTATD-UHFFFAOYSA-N-P37-P37-P120-601513

>  <HIPPO Compound ID>  (4806) 
301759

>  <ref_mols>  (4806) 
A1445a,A0310a

>  <distance_score>  (4806) 
1.600292

>  <inspiration_score>  (4806) 
None

$$$$
VTGVNOXCFGMYGQ-UHFFFAOYSA-N-P120-P37-P120-601513
     RDKit          3D

 25 27  0  0  0  0  0  0  0  0999 V2000
    9.9831    9.9632   22.9025 O   0  0  0  0  0  0  0  0  0  0  0  0
    9.3781   10.8814   23.4463 C   0  0  0  0  0  0  0  0  0  0  0  0
    9.9564   12.2558   23.6382 C   0  0  0  0  0  0  0  0  0  0  0  0
    8.9376   13.3697   23.6890 C   0  0  0  0  0  0  0  0  0  0  0  0
    8.1759   13.4839   24.9907 C   0  0  0  0  0  0  0  0  0  0  0  0
    7.3008   12.3158   25.3641 C   0  0  0  0  0  0  0  0  0  0  0  0
    6.4457   12.4805   26.4827 C   0  0  0  0  0  0  0  0  0  0  0  0
    5.5989   11.4530   26.8941 C   0  0  0  0  0  0  0  0  0  0  0  0
    4.9275   11.3935   28.0974 N   0  0  0  0  0  0  0  0  0  0  0  0
    4.8742   12.4094   29.2767 C   0  0  0  0  0  0  0  0  0  0  0  0
    5.4508   13.4114   29.4380 O   0  0  0  0  0  0  0  0  0  0  0  0
    3.8314   11.8042   30.2305 C   0  0  1  0  0  0  0  0  0  0  0  0
    3.9378   12.3513   31.6619 C   0  0  0  0  0  0  0  0  0  0  0  0
    3.0462   13.5101   31.9715 C   0  0  0  0  0  0  0  0  0  0  0  0
    2.1243   13.9770   31.1235 C   0  0  0  0  0  0  0  0  0  0  0  0
    1.8786   13.3790   29.7781 C   0  0  0  0  0  0  0  0  0  0  0  0
    2.4450   11.9699   29.5723 C   0  0  2  0  0  0  0  0  0  0  0  0
    1.4834   10.8852   30.0068 C   0  0  0  0  0  0  0  0  0  0  0  0
    1.2774   10.8525   31.3324 F   0  0  0  0  0  0  0  0  0  0  0  0
    1.9531    9.6682   29.6337 F   0  0  0  0  0  0  0  0  0  0  0  0
    0.2966   11.0418   29.3835 F   0  0  0  0  0  0  0  0  0  0  0  0
    5.4529   10.3260   26.1159 C   0  0  0  0  0  0  0  0  0  0  0  0
    6.2884   10.1538   25.0485 C   0  0  0  0  0  0  0  0  0  0  0  0
    7.2653   11.0806   24.7260 C   0  0  0  0  0  0  0  0  0  0  0  0
    8.1571   10.5370   23.8275 N   0  0  0  0  0  0  0  0  0  0  0  0
  1  2  2  0
  2  3  1  0
  3  4  1  0
  4  5  1  0
  5  6  1  0
  6  7  2  0
  7  8  1  0
  8  9  1  0
  9 10  1  0
 10 11  2  0
 12 10  1  6
 12 13  1  0
 13 14  1  0
 14 15  2  0
 15 16  1  0
 16 17  1  0
 17 18  1  1
 18 19  1  0
 18 20  1  0
 18 21  1  0
  8 22  2  0
 22 23  1  0
 23 24  2  0
 24 25  1  0
 25  2  1  0
 24  6  1  0
 17 12  1  0
M  END
>  <energy_score>  (4807) 
-24.969213

>  <inchikey>  (4807) 
VTGVNOXCFGMYGQ-UHFFFAOYSA-N

>  <smiles>  (4807) 
O=C1CCCc2cc(NC(=O)C3CC=CCC3C(F)(F)F)ccc2N1

>  <ref_pdb>  (4807) 
A1068a

>  <alias>  (4807) 
VTGVNOXCFGMYGQ-UHFFFAOYSA-N-P120-P37-P120-601513

>  <HIPPO Pose ID>  (4807) 
523205

>  <name>  (4807) 
VTGVNOXCFGMYGQ-UHFFFAOYSA-N-P120-P37-P120-601513

>  <HIPPO Compound ID>  (4807) 
301761

>  <ref_mols>  (4807) 
A1445a,A0310a

>  <distance_score>  (4807) 
1.969083

>  <inspiration_score>  (4807) 
None

$$$$
XHYUVLDZDZJICG-UHFFFAOYSA-N-P37-P37-P120-601513
     RDKit          3D

 25 26  0  0  0  0  0  0  0  0999 V2000
    3.4040   12.1338   30.8094 C   0  0  0  0  0  0  0  0  0  0  0  0
    3.1658   10.7395   30.1887 C   0  0  1  0  0  0  0  0  0  0  0  0
    1.6707   10.4385   30.3551 C   0  0  0  0  0  0  0  0  0  0  0  0
    1.2874   10.5931   31.6392 F   0  0  0  0  0  0  0  0  0  0  0  0
    1.3592    9.1737   30.0035 F   0  0  0  0  0  0  0  0  0  0  0  0
    0.9095   11.2607   29.5994 F   0  0  0  0  0  0  0  0  0  0  0  0
    3.6532   10.5776   28.6988 C   0  0  0  0  0  0  0  0  0  0  0  0
    3.2445    9.1717   28.1917 C   0  0  0  0  0  0  0  0  0  0  0  0
    3.0257   11.7328   27.8686 C   0  0  0  0  0  0  0  0  0  0  0  0
    5.1949   10.7978   28.5615 C   0  0  0  0  0  0  0  0  0  0  0  0
    5.8313   11.2088   29.4543 O   0  0  0  0  0  0  0  0  0  0  0  0
    5.6059   10.4830   27.0853 N   0  0  0  0  0  0  0  0  0  0  0  0
    6.7941   10.6915   26.4266 C   0  0  0  0  0  0  0  0  0  0  0  0
    7.2474    9.9408   25.3519 C   0  0  0  0  0  0  0  0  0  0  0  0
    8.2748   10.3815   24.5176 C   0  0  0  0  0  0  0  0  0  0  0  0
    8.6186   11.7162   24.6068 C   0  0  0  0  0  0  0  0  0  0  0  0
    8.1673   12.4757   25.7008 C   0  0  0  0  0  0  0  0  0  0  0  0
    7.3452   11.9199   26.6644 C   0  0  0  0  0  0  0  0  0  0  0  0
    8.3979   13.9539   25.8160 C   0  0  0  0  0  0  0  0  0  0  0  0
    7.3752   14.6261   24.9215 C   0  0  0  0  0  0  0  0  0  0  0  0
    7.4537   14.1005   23.4988 C   0  0  0  0  0  0  0  0  0  0  0  0
    8.8596   13.6366   23.1281 C   0  0  0  0  0  0  0  0  0  0  0  0
    9.6173   14.3859   22.5244 O   0  0  0  0  0  0  0  0  0  0  0  0
    9.2378   12.3570   23.5161 N   0  0  0  0  0  0  0  0  0  0  0  0
   10.5208   11.8487   23.0671 C   0  0  0  0  0  0  0  0  0  0  0  0
  2  1  1  6
  2  3  1  0
  3  4  1  0
  3  5  1  0
  3  6  1  0
  2  7  1  0
  7  8  1  0
  7  9  1  0
  7 10  1  0
 10 11  2  0
 10 12  1  0
 12 13  1  0
 13 14  2  0
 14 15  1  0
 15 16  2  0
 16 17  1  0
 17 18  2  0
 17 19  1  0
 19 20  1  0
 20 21  1  0
 21 22  1  0
 22 23  2  0
 22 24  1  0
 24 25  1  0
 18 13  1  0
 24 16  1  0
M  END
>  <energy_score>  (4808) 
-10.701323

>  <inchikey>  (4808) 
XHYUVLDZDZJICG-UHFFFAOYSA-N

>  <smiles>  (4808) 
CC(C(F)(F)F)C(C)(C)C(=O)Nc1ccc2c(c1)CCCC(=O)N2C

>  <ref_pdb>  (4808) 
A1068a

>  <alias>  (4808) 
XHYUVLDZDZJICG-UHFFFAOYSA-N-P37-P37-P120-601513

>  <HIPPO Pose ID>  (4808) 
523232

>  <name>  (4808) 
XHYUVLDZDZJICG-UHFFFAOYSA-N-P37-P37-P120-601513

>  <HIPPO Compound ID>  (4808) 
301775

>  <ref_mols>  (4808) 
A1445a,A0310a

>  <distance_score>  (4808) 
1.665824

>  <inspiration_score>  (4808) 
None

$$$$
XHYUVLDZDZJICG-UHFFFAOYSA-N-P120-P37-P120-601513
     RDKit          3D

 25 26  0  0  0  0  0  0  0  0999 V2000
    3.2693   12.0299   30.5741 C   0  0  0  0  0  0  0  0  0  0  0  0
    2.9398   10.5873   30.1219 C   0  0  1  0  0  0  0  0  0  0  0  0
    1.4313   10.4152   30.3399 C   0  0  0  0  0  0  0  0  0  0  0  0
    1.1315   10.5166   31.6524 F   0  0  0  0  0  0  0  0  0  0  0  0
    0.9837    9.2134   29.9241 F   0  0  0  0  0  0  0  0  0  0  0  0
    0.7137   11.3558   29.6870 F   0  0  0  0  0  0  0  0  0  0  0  0
    3.3782   10.1962   28.6535 C   0  0  0  0  0  0  0  0  0  0  0  0
    3.3792    8.6620   28.5180 C   0  0  0  0  0  0  0  0  0  0  0  0
    2.4121   10.8984   27.6743 C   0  0  0  0  0  0  0  0  0  0  0  0
    4.7832   10.7395   28.2869 C   0  0  0  0  0  0  0  0  0  0  0  0
    5.3539   11.4280   29.0425 O   0  0  0  0  0  0  0  0  0  0  0  0
    5.1545   10.3097   26.8301 N   0  0  0  0  0  0  0  0  0  0  0  0
    6.2002   10.6997   26.0227 C   0  0  0  0  0  0  0  0  0  0  0  0
    6.8528    9.9895   25.0352 C   0  0  0  0  0  0  0  0  0  0  0  0
    7.8240   10.6164   24.2320 C   0  0  0  0  0  0  0  0  0  0  0  0
    8.0685   11.9907   24.3733 C   0  0  0  0  0  0  0  0  0  0  0  0
    7.4287   12.6791   25.4086 C   0  0  0  0  0  0  0  0  0  0  0  0
    6.5163   12.0248   26.2088 C   0  0  0  0  0  0  0  0  0  0  0  0
    7.6720   14.1203   25.7717 C   0  0  0  0  0  0  0  0  0  0  0  0
    7.0025   15.0270   24.7707 C   0  0  0  0  0  0  0  0  0  0  0  0
    7.4155   14.6606   23.3657 C   0  0  0  0  0  0  0  0  0  0  0  0
    8.8286   14.0913   23.3560 C   0  0  0  0  0  0  0  0  0  0  0  0
    9.8078   14.8274   23.2759 O   0  0  0  0  0  0  0  0  0  0  0  0
    8.9408   12.7062   23.5073 N   0  0  0  0  0  0  0  0  0  0  0  0
   10.2683   12.1695   23.3146 C   0  0  0  0  0  0  0  0  0  0  0  0
  2  1  1  6
  2  3  1  0
  3  4  1  0
  3  5  1  0
  3  6  1  0
  2  7  1  0
  7  8  1  0
  7  9  1  0
  7 10  1  0
 10 11  2  0
 10 12  1  0
 12 13  1  0
 13 14  2  0
 14 15  1  0
 15 16  2  0
 16 17  1  0
 17 18  2  0
 17 19  1  0
 19 20  1  0
 20 21  1  0
 21 22  1  0
 22 23  2  0
 22 24  1  0
 24 25  1  0
 18 13  1  0
 24 16  1  0
M  END
>  <energy_score>  (4809) 
-14.752397

>  <inchikey>  (4809) 
XHYUVLDZDZJICG-UHFFFAOYSA-N

>  <smiles>  (4809) 
CC(C(F)(F)F)C(C)(C)C(=O)Nc1ccc2c(c1)CCCC(=O)N2C

>  <ref_pdb>  (4809) 
A1068a

>  <alias>  (4809) 
XHYUVLDZDZJICG-UHFFFAOYSA-N-P120-P37-P120-601513

>  <HIPPO Pose ID>  (4809) 
523233

>  <name>  (4809) 
XHYUVLDZDZJICG-UHFFFAOYSA-N-P120-P37-P120-601513

>  <HIPPO Compound ID>  (4809) 
301775

>  <ref_mols>  (4809) 
A1445a,A0310a

>  <distance_score>  (4809) 
1.727469

>  <inspiration_score>  (4809) 
None

$$$$
LVBRGQUBSPURMD-UHFFFAOYSA-N-P37-P37-P120-601513
     RDKit          3D

 26 29  0  0  0  0  0  0  0  0999 V2000
   10.4554    9.8036   22.3969 O   0  0  0  0  0  0  0  0  0  0  0  0
    9.9546   10.6858   23.0908 C   0  0  0  0  0  0  0  0  0  0  0  0
   10.3285   12.1263   22.9355 C   0  0  0  0  0  0  0  0  0  0  0  0
   10.1976   12.9922   24.1580 C   0  0  0  0  0  0  0  0  0  0  0  0
    8.7521   13.3416   24.4683 C   0  0  0  0  0  0  0  0  0  0  0  0
    7.9452   12.2443   25.0916 C   0  0  0  0  0  0  0  0  0  0  0  0
    6.8963   12.6276   25.9805 C   0  0  0  0  0  0  0  0  0  0  0  0
    6.0464   11.6877   26.5680 C   0  0  0  0  0  0  0  0  0  0  0  0
    4.9830   12.0066   27.4072 N   0  0  0  0  0  0  0  0  0  0  0  0
    4.5455   13.3717   28.0072 C   0  0  0  0  0  0  0  0  0  0  0  0
    5.0553   14.4212   27.9506 O   0  0  0  0  0  0  0  0  0  0  0  0
    3.1644   13.1522   28.6784 C   0  0  2  0  0  0  0  0  0  0  0  0
    2.8136   14.4266   29.4744 C   0  0  1  0  0  0  0  0  0  0  0  0
    1.3377   14.4398   29.8801 C   0  0  0  0  0  0  0  0  0  0  0  0
    1.3169   13.4605   31.0512 C   0  0  0  0  0  0  0  0  0  0  0  0
    2.7428   12.9165   31.0284 C   0  0  2  0  0  0  0  0  0  0  0  0
    3.4589   14.1357   30.7428 O   0  0  0  0  0  0  0  0  0  0  0  0
    3.0968   12.0785   29.7967 C   0  0  1  0  0  0  0  0  0  0  0  0
    2.0868   10.9763   29.5631 C   0  0  0  0  0  0  0  0  0  0  0  0
    1.8536   10.2828   30.6958 F   0  0  0  0  0  0  0  0  0  0  0  0
    2.5369   10.1033   28.6342 F   0  0  0  0  0  0  0  0  0  0  0  0
    0.9104   11.4474   29.1058 F   0  0  0  0  0  0  0  0  0  0  0  0
    6.2385   10.3572   26.2755 C   0  0  0  0  0  0  0  0  0  0  0  0
    7.2538    9.9929   25.4047 C   0  0  0  0  0  0  0  0  0  0  0  0
    8.1111   10.8955   24.8018 C   0  0  0  0  0  0  0  0  0  0  0  0
    9.0082   10.2707   23.9420 N   0  0  0  0  0  0  0  0  0  0  0  0
  1  2  2  0
  2  3  1  0
  3  4  1  0
  4  5  1  0
  5  6  1  0
  6  7  2  0
  7  8  1  0
  8  9  1  0
  9 10  1  0
 10 11  2  0
 12 10  1  1
 12 13  1  0
 13 14  1  1
 14 15  1  0
 16 15  1  6
 16 17  1  0
 16 18  1  0
 18 19  1  6
 19 20  1  0
 19 21  1  0
 19 22  1  0
  8 23  2  0
 23 24  1  0
 24 25  2  0
 25 26  1  0
 26  2  1  0
 25  6  1  0
 18 12  1  0
 17 13  1  0
M  END
>  <energy_score>  (4810) 
-147.644682

>  <inchikey>  (4810) 
LVBRGQUBSPURMD-UHFFFAOYSA-N

>  <smiles>  (4810) 
O=C1CCCc2cc(NC(=O)C3C4CCC(O4)C3C(F)(F)F)ccc2N1

>  <ref_pdb>  (4810) 
A1068a

>  <alias>  (4810) 
LVBRGQUBSPURMD-UHFFFAOYSA-N-P37-P37-P120-601513

>  <HIPPO Pose ID>  (4810) 
523252

>  <name>  (4810) 
LVBRGQUBSPURMD-UHFFFAOYSA-N-P37-P37-P120-601513

>  <HIPPO Compound ID>  (4810) 
301785

>  <ref_mols>  (4810) 
A1445a,A0310a

>  <distance_score>  (4810) 
1.873788

>  <inspiration_score>  (4810) 
None

$$$$
JIUQNLYUUFKPGX-UHFFFAOYSA-N-P37-P37-P120-601513
     RDKit          3D

 26 29  0  0  0  0  0  0  0  0999 V2000
   10.4123    9.8647   22.3465 O   0  0  0  0  0  0  0  0  0  0  0  0
    9.9298   10.6933   23.1118 C   0  0  0  0  0  0  0  0  0  0  0  0
   10.4484   12.0863   23.2495 C   0  0  0  0  0  0  0  0  0  0  0  0
    9.3445   13.1206   23.2247 C   0  0  0  0  0  0  0  0  0  0  0  0
    8.7500   13.3571   24.6027 C   0  0  0  0  0  0  0  0  0  0  0  0
    7.9920   12.2175   25.2203 C   0  0  0  0  0  0  0  0  0  0  0  0
    7.1349   12.5400   26.3220 C   0  0  0  0  0  0  0  0  0  0  0  0
    6.3711   11.5618   26.9583 C   0  0  0  0  0  0  0  0  0  0  0  0
    5.6948   11.7543   28.1607 N   0  0  0  0  0  0  0  0  0  0  0  0
    4.9846   10.7288   29.0986 C   0  0  0  0  0  0  0  0  0  0  0  0
    4.9280    9.5595   29.0405 O   0  0  0  0  0  0  0  0  0  0  0  0
    4.3449   11.3939   30.3064 C   0  0  1  0  0  0  0  0  0  0  0  0
    5.0610   12.5289   31.0312 C   0  0  0  0  0  0  0  0  0  0  0  0
    3.9574   13.4820   31.3446 N   0  0  0  0  0  0  0  0  0  0  0  0
    3.5994   14.2111   30.0996 C   0  0  0  0  0  0  0  0  0  0  0  0
    2.8630   13.1664   29.2632 C   0  0  0  0  0  0  0  0  0  0  0  0
    2.9160   11.9246   30.1612 C   0  0  1  0  0  0  0  0  0  0  0  0
    1.8501   10.9067   29.8484 C   0  0  0  0  0  0  0  0  0  0  0  0
    0.6496   11.3295   30.2981 F   0  0  0  0  0  0  0  0  0  0  0  0
    2.0730    9.7035   30.4044 F   0  0  0  0  0  0  0  0  0  0  0  0
    1.7317   10.7308   28.5132 F   0  0  0  0  0  0  0  0  0  0  0  0
    2.7781   12.5793   31.5287 C   0  0  0  0  0  0  0  0  0  0  0  0
    6.3650   10.2955   26.4232 C   0  0  0  0  0  0  0  0  0  0  0  0
    7.2182    9.9789   25.3854 C   0  0  0  0  0  0  0  0  0  0  0  0
    8.0811   10.8871   24.8114 C   0  0  0  0  0  0  0  0  0  0  0  0
    8.9092   10.2760   23.8739 N   0  0  0  0  0  0  0  0  0  0  0  0
  1  2  2  0
  2  3  1  0
  3  4  1  0
  4  5  1  0
  5  6  1  0
  6  7  2  0
  7  8  1  0
  8  9  1  0
  9 10  1  0
 10 11  2  0
 12 10  1  6
 12 13  1  0
 13 14  1  0
 14 15  1  0
 15 16  1  0
 16 17  1  0
 17 18  1  6
 18 19  1  0
 18 20  1  0
 18 21  1  0
 17 22  1  0
  8 23  2  0
 23 24  1  0
 24 25  2  0
 25 26  1  0
 26  2  1  0
 25  6  1  0
 17 12  1  0
 22 14  1  0
M  END
>  <energy_score>  (4811) 
-25.26355

>  <inchikey>  (4811) 
JIUQNLYUUFKPGX-UHFFFAOYSA-N

>  <smiles>  (4811) 
O=C1CCCc2cc(NC(=O)C3CN4CCC3(C(F)(F)F)C4)ccc2N1

>  <ref_pdb>  (4811) 
A1068a

>  <alias>  (4811) 
JIUQNLYUUFKPGX-UHFFFAOYSA-N-P37-P37-P120-601513

>  <HIPPO Pose ID>  (4811) 
523254

>  <name>  (4811) 
JIUQNLYUUFKPGX-UHFFFAOYSA-N-P37-P37-P120-601513

>  <HIPPO Compound ID>  (4811) 
301786

>  <ref_mols>  (4811) 
A1445a,A0310a

>  <distance_score>  (4811) 
1.779506

>  <inspiration_score>  (4811) 
None

$$$$
JIUQNLYUUFKPGX-UHFFFAOYSA-N-P120-P37-P120-601513
     RDKit          3D

 26 29  0  0  0  0  0  0  0  0999 V2000
    9.8987    9.5800   22.6365 O   0  0  0  0  0  0  0  0  0  0  0  0
    9.4680   10.4934   23.3370 C   0  0  0  0  0  0  0  0  0  0  0  0
   10.0931   11.8703   23.4052 C   0  0  0  0  0  0  0  0  0  0  0  0
    9.0997   12.9965   23.4431 C   0  0  0  0  0  0  0  0  0  0  0  0
    8.5170   13.2412   24.7975 C   0  0  0  0  0  0  0  0  0  0  0  0
    7.5000   12.2139   25.2062 C   0  0  0  0  0  0  0  0  0  0  0  0
    6.5047   12.6628   26.1014 C   0  0  0  0  0  0  0  0  0  0  0  0
    5.6016   11.7693   26.6595 C   0  0  0  0  0  0  0  0  0  0  0  0
    4.7959   12.1376   27.7136 N   0  0  0  0  0  0  0  0  0  0  0  0
    4.0697   11.2714   28.7761 C   0  0  0  0  0  0  0  0  0  0  0  0
    3.9810   10.1134   28.8738 O   0  0  0  0  0  0  0  0  0  0  0  0
    3.5020   12.2267   29.7949 C   0  0  2  0  0  0  0  0  0  0  0  0
    4.6185   12.5982   30.7828 C   0  0  0  0  0  0  0  0  0  0  0  0
    4.0754   12.2220   32.1174 N   0  0  0  0  0  0  0  0  0  0  0  0
    2.9995   13.1866   32.4624 C   0  0  0  0  0  0  0  0  0  0  0  0
    1.8619   12.8104   31.5159 C   0  0  0  0  0  0  0  0  0  0  0  0
    2.4567   11.6158   30.7378 C   0  0  1  0  0  0  0  0  0  0  0  0
    1.3744   10.7470   30.1505 C   0  0  0  0  0  0  0  0  0  0  0  0
    0.4734   10.4417   31.1129 F   0  0  0  0  0  0  0  0  0  0  0  0
    1.7696    9.5753   29.6318 F   0  0  0  0  0  0  0  0  0  0  0  0
    0.7165   11.4215   29.1778 F   0  0  0  0  0  0  0  0  0  0  0  0
    3.3055   10.9760   31.8151 C   0  0  0  0  0  0  0  0  0  0  0  0
    5.5831   10.4540   26.2499 C   0  0  0  0  0  0  0  0  0  0  0  0
    6.5263   10.0222   25.3518 C   0  0  0  0  0  0  0  0  0  0  0  0
    7.5037   10.8621   24.8469 C   0  0  0  0  0  0  0  0  0  0  0  0
    8.3772   10.1702   24.0290 N   0  0  0  0  0  0  0  0  0  0  0  0
  1  2  2  0
  2  3  1  0
  3  4  1  0
  4  5  1  0
  5  6  1  0
  6  7  2  0
  7  8  1  0
  8  9  1  0
  9 10  1  0
 10 11  2  0
 12 10  1  6
 12 13  1  0
 13 14  1  0
 14 15  1  0
 15 16  1  0
 16 17  1  0
 17 18  1  6
 18 19  1  0
 18 20  1  0
 18 21  1  0
 17 22  1  0
  8 23  2  0
 23 24  1  0
 24 25  2  0
 25 26  1  0
 26  2  1  0
 25  6  1  0
 17 12  1  0
 22 14  1  0
M  END
>  <energy_score>  (4812) 
-31.212429

>  <inchikey>  (4812) 
JIUQNLYUUFKPGX-UHFFFAOYSA-N

>  <smiles>  (4812) 
O=C1CCCc2cc(NC(=O)C3CN4CCC3(C(F)(F)F)C4)ccc2N1

>  <ref_pdb>  (4812) 
A1068a

>  <alias>  (4812) 
JIUQNLYUUFKPGX-UHFFFAOYSA-N-P120-P37-P120-601513

>  <HIPPO Pose ID>  (4812) 
523255

>  <name>  (4812) 
JIUQNLYUUFKPGX-UHFFFAOYSA-N-P120-P37-P120-601513

>  <HIPPO Compound ID>  (4812) 
301786

>  <ref_mols>  (4812) 
A1445a,A0310a

>  <distance_score>  (4812) 
1.827296

>  <inspiration_score>  (4812) 
None

$$$$
AQBMOMLUWTYQCT-UHFFFAOYSA-N-P37-P37-P120-601513
     RDKit          3D

 26 27  0  0  0  0  0  0  0  0999 V2000
   10.5198    9.8433   22.1961 O   0  0  0  0  0  0  0  0  0  0  0  0
   10.0879   10.7192   22.9419 C   0  0  0  0  0  0  0  0  0  0  0  0
   10.5050   12.1562   22.8399 C   0  0  0  0  0  0  0  0  0  0  0  0
   10.2218   13.0513   24.0180 C   0  0  0  0  0  0  0  0  0  0  0  0
    8.7379   13.3403   24.1658 C   0  0  0  0  0  0  0  0  0  0  0  0
    7.9902   12.2441   24.8546 C   0  0  0  0  0  0  0  0  0  0  0  0
    6.8975   12.6076   25.6901 C   0  0  0  0  0  0  0  0  0  0  0  0
    6.1813   11.6355   26.3765 C   0  0  0  0  0  0  0  0  0  0  0  0
    5.0632   11.8822   27.1532 N   0  0  0  0  0  0  0  0  0  0  0  0
    4.2755   10.9462   28.1169 C   0  0  0  0  0  0  0  0  0  0  0  0
    4.4983    9.8484   28.4590 O   0  0  0  0  0  0  0  0  0  0  0  0
    2.9790   11.6205   28.5540 C   0  0  1  0  0  0  0  0  0  0  0  0
    1.9611   11.0180   27.7382 O   0  0  0  0  0  0  0  0  0  0  0  0
    2.7846   11.3188   30.0325 C   0  0  0  0  0  0  0  0  0  0  0  0
    3.1305   12.5440   30.7994 C   0  0  0  0  0  0  0  0  0  0  0  0
    2.3279   13.5840   30.5061 F   0  0  0  0  0  0  0  0  0  0  0  0
    3.0929   12.3437   32.1300 F   0  0  0  0  0  0  0  0  0  0  0  0
    4.3966   12.9270   30.4961 F   0  0  0  0  0  0  0  0  0  0  0  0
    1.3959   10.9032   30.3438 C   0  0  0  0  0  0  0  0  0  0  0  0
    1.2185   10.7018   31.6617 F   0  0  0  0  0  0  0  0  0  0  0  0
    1.1265    9.7207   29.7307 F   0  0  0  0  0  0  0  0  0  0  0  0
    0.4870   11.7982   29.9218 F   0  0  0  0  0  0  0  0  0  0  0  0
    6.5293   10.3126   26.2174 C   0  0  0  0  0  0  0  0  0  0  0  0
    7.5379    9.9594   25.3539 C   0  0  0  0  0  0  0  0  0  0  0  0
    8.2770   10.8923   24.6692 C   0  0  0  0  0  0  0  0  0  0  0  0
    9.1890   10.2848   23.8242 N   0  0  0  0  0  0  0  0  0  0  0  0
  1  2  2  0
  2  3  1  0
  3  4  1  0
  4  5  1  0
  5  6  1  0
  6  7  2  0
  7  8  1  0
  8  9  1  0
  9 10  1  0
 10 11  2  0
 10 12  1  0
 12 13  1  6
 12 14  1  0
 14 15  1  0
 15 16  1  0
 15 17  1  0
 15 18  1  0
 14 19  1  0
 19 20  1  0
 19 21  1  0
 19 22  1  0
  8 23  2  0
 23 24  1  0
 24 25  2  0
 25 26  1  0
 26  2  1  0
 25  6  1  0
M  END
>  <energy_score>  (4813) 
-25.295203

>  <inchikey>  (4813) 
AQBMOMLUWTYQCT-UHFFFAOYSA-N

>  <smiles>  (4813) 
O=C1CCCc2cc(NC(=O)C(O)C(C(F)(F)F)C(F)(F)F)ccc2N1

>  <ref_pdb>  (4813) 
A1068a

>  <alias>  (4813) 
AQBMOMLUWTYQCT-UHFFFAOYSA-N-P37-P37-P120-601513

>  <HIPPO Pose ID>  (4813) 
523256

>  <name>  (4813) 
AQBMOMLUWTYQCT-UHFFFAOYSA-N-P37-P37-P120-601513

>  <HIPPO Compound ID>  (4813) 
301787

>  <ref_mols>  (4813) 
A1445a,A0310a

>  <distance_score>  (4813) 
1.550654

>  <inspiration_score>  (4813) 
None

$$$$
AQBMOMLUWTYQCT-UHFFFAOYSA-N-P120-P37-P120-601513
     RDKit          3D

 26 27  0  0  0  0  0  0  0  0999 V2000
    9.9591    9.7269   22.6717 O   0  0  0  0  0  0  0  0  0  0  0  0
    9.4592   10.6276   23.3429 C   0  0  0  0  0  0  0  0  0  0  0  0
   10.0934   12.0024   23.4803 C   0  0  0  0  0  0  0  0  0  0  0  0
    9.4680   13.0982   24.3055 C   0  0  0  0  0  0  0  0  0  0  0  0
    7.9828   13.2696   24.1541 C   0  0  0  0  0  0  0  0  0  0  0  0
    7.2183   12.2278   24.8957 C   0  0  0  0  0  0  0  0  0  0  0  0
    6.2490   12.6517   25.8135 C   0  0  0  0  0  0  0  0  0  0  0  0
    5.5417   11.7114   26.5439 C   0  0  0  0  0  0  0  0  0  0  0  0
    4.7763   12.0927   27.6143 N   0  0  0  0  0  0  0  0  0  0  0  0
    4.2684   11.2772   28.8271 C   0  0  0  0  0  0  0  0  0  0  0  0
    4.4865   10.1756   29.1422 O   0  0  0  0  0  0  0  0  0  0  0  0
    3.4485   12.2559   29.6445 C   0  0  1  0  0  0  0  0  0  0  0  0
    2.7404   13.1834   28.8312 O   0  0  0  0  0  0  0  0  0  0  0  0
    2.6111   11.4907   30.6438 C   0  0  0  0  0  0  0  0  0  0  0  0
    2.0574   12.4689   31.6157 C   0  0  0  0  0  0  0  0  0  0  0  0
    1.1902   13.3386   31.0671 F   0  0  0  0  0  0  0  0  0  0  0  0
    1.4254   11.8477   32.6350 F   0  0  0  0  0  0  0  0  0  0  0  0
    3.0563   13.1909   32.1802 F   0  0  0  0  0  0  0  0  0  0  0  0
    1.4596   10.7600   30.0368 C   0  0  0  0  0  0  0  0  0  0  0  0
    0.6655   10.2227   30.9803 F   0  0  0  0  0  0  0  0  0  0  0  0
    1.8514    9.7381   29.2464 F   0  0  0  0  0  0  0  0  0  0  0  0
    0.7080   11.5662   29.2556 F   0  0  0  0  0  0  0  0  0  0  0  0
    5.6707   10.3631   26.2819 C   0  0  0  0  0  0  0  0  0  0  0  0
    6.5900    9.9515   25.3546 C   0  0  0  0  0  0  0  0  0  0  0  0
    7.3946   10.8610   24.7006 C   0  0  0  0  0  0  0  0  0  0  0  0
    8.3220   10.2434   23.9027 N   0  0  0  0  0  0  0  0  0  0  0  0
  1  2  2  0
  2  3  1  0
  3  4  1  0
  4  5  1  0
  5  6  1  0
  6  7  2  0
  7  8  1  0
  8  9  1  0
  9 10  1  0
 10 11  2  0
 10 12  1  0
 12 13  1  6
 12 14  1  0
 14 15  1  0
 15 16  1  0
 15 17  1  0
 15 18  1  0
 14 19  1  0
 19 20  1  0
 19 21  1  0
 19 22  1  0
  8 23  2  0
 23 24  1  0
 24 25  2  0
 25 26  1  0
 26  2  1  0
 25  6  1  0
M  END
>  <energy_score>  (4814) 
-28.589687

>  <inchikey>  (4814) 
AQBMOMLUWTYQCT-UHFFFAOYSA-N

>  <smiles>  (4814) 
O=C1CCCc2cc(NC(=O)C(O)C(C(F)(F)F)C(F)(F)F)ccc2N1

>  <ref_pdb>  (4814) 
A1068a

>  <alias>  (4814) 
AQBMOMLUWTYQCT-UHFFFAOYSA-N-P120-P37-P120-601513

>  <HIPPO Pose ID>  (4814) 
523257

>  <name>  (4814) 
AQBMOMLUWTYQCT-UHFFFAOYSA-N-P120-P37-P120-601513

>  <HIPPO Compound ID>  (4814) 
301787

>  <ref_mols>  (4814) 
A1445a,A0310a

>  <distance_score>  (4814) 
1.840155

>  <inspiration_score>  (4814) 
None

$$$$
AXQVERQQVMAZMJ-UHFFFAOYSA-N-P37-P37-P120-601513
     RDKit          3D

 26 28  0  0  0  0  0  0  0  0999 V2000
   10.4935    9.8020   22.3498 O   0  0  0  0  0  0  0  0  0  0  0  0
   10.0166   10.6446   23.1014 C   0  0  0  0  0  0  0  0  0  0  0  0
   10.5199   12.0439   23.2060 C   0  0  0  0  0  0  0  0  0  0  0  0
    9.4096   13.0652   23.1410 C   0  0  0  0  0  0  0  0  0  0  0  0
    8.7909   13.3280   24.5013 C   0  0  0  0  0  0  0  0  0  0  0  0
    7.9821   12.2069   25.0851 C   0  0  0  0  0  0  0  0  0  0  0  0
    6.9507   12.5776   26.0032 C   0  0  0  0  0  0  0  0  0  0  0  0
    6.0965   11.6248   26.5474 C   0  0  0  0  0  0  0  0  0  0  0  0
    4.9723   11.8713   27.3205 N   0  0  0  0  0  0  0  0  0  0  0  0
    4.3955   13.2062   27.8634 C   0  0  0  0  0  0  0  0  0  0  0  0
    4.8200   14.2902   27.8076 O   0  0  0  0  0  0  0  0  0  0  0  0
    3.0159   12.8385   28.4418 C   0  0  2  0  0  0  0  0  0  0  0  0
    2.2336   14.0873   28.8757 C   0  0  0  0  0  0  0  0  0  0  0  0
    2.5048   14.2635   30.6279 S   0  0  0  0  0  0  0  0  0  0  0  0
    3.4050   15.3662   30.8768 O   0  0  0  0  0  0  0  0  0  0  0  0
    1.2383   14.1249   31.3121 O   0  0  0  0  0  0  0  0  0  0  0  0
    3.4038   12.7521   30.8611 C   0  0  0  0  0  0  0  0  0  0  0  0
    3.1130   11.8743   29.6518 C   0  0  1  0  0  0  0  0  0  0  0  0
    1.8456   11.0442   29.8031 C   0  0  0  0  0  0  0  0  0  0  0  0
    1.8247   10.3849   30.9743 F   0  0  0  0  0  0  0  0  0  0  0  0
    1.7962   10.1167   28.8132 F   0  0  0  0  0  0  0  0  0  0  0  0
    0.7356   11.7867   29.6977 F   0  0  0  0  0  0  0  0  0  0  0  0
    6.2937   10.2990   26.2337 C   0  0  0  0  0  0  0  0  0  0  0  0
    7.3044    9.9439   25.3656 C   0  0  0  0  0  0  0  0  0  0  0  0
    8.1537   10.8564   24.7784 C   0  0  0  0  0  0  0  0  0  0  0  0
    9.0265   10.2258   23.8984 N   0  0  0  0  0  0  0  0  0  0  0  0
  1  2  2  0
  2  3  1  0
  3  4  1  0
  4  5  1  0
  5  6  1  0
  6  7  2  0
  7  8  1  0
  8  9  1  0
  9 10  1  0
 10 11  2  0
 12 10  1  1
 12 13  1  0
 13 14  1  0
 14 15  2  0
 14 16  2  0
 14 17  1  0
 17 18  1  0
 18 19  1  1
 19 20  1  0
 19 21  1  0
 19 22  1  0
  8 23  2  0
 23 24  1  0
 24 25  2  0
 25 26  1  0
 26  2  1  0
 25  6  1  0
 18 12  1  0
M  END
>  <energy_score>  (4815) 
-48.070776

>  <inchikey>  (4815) 
AXQVERQQVMAZMJ-UHFFFAOYSA-N

>  <smiles>  (4815) 
O=C1CCCc2cc(NC(=O)C3CS(=O)(=O)CC3C(F)(F)F)ccc2N1

>  <ref_pdb>  (4815) 
A1068a

>  <alias>  (4815) 
AXQVERQQVMAZMJ-UHFFFAOYSA-N-P37-P37-P120-601513

>  <HIPPO Pose ID>  (4815) 
523258

>  <name>  (4815) 
AXQVERQQVMAZMJ-UHFFFAOYSA-N-P37-P37-P120-601513

>  <HIPPO Compound ID>  (4815) 
301788

>  <ref_mols>  (4815) 
A1445a,A0310a

>  <distance_score>  (4815) 
1.890324

>  <inspiration_score>  (4815) 
None

$$$$
AXQVERQQVMAZMJ-UHFFFAOYSA-N-P120-P37-P120-601513
     RDKit          3D

 26 28  0  0  0  0  0  0  0  0999 V2000
   10.3485    9.7265   23.5680 O   0  0  0  0  0  0  0  0  0  0  0  0
    9.6736   10.7514   23.5531 C   0  0  0  0  0  0  0  0  0  0  0  0
   10.2484   12.1481   23.6015 C   0  0  0  0  0  0  0  0  0  0  0  0
    9.2790   13.2989   23.5476 C   0  0  0  0  0  0  0  0  0  0  0  0
    8.3130   13.4220   24.7042 C   0  0  0  0  0  0  0  0  0  0  0  0
    7.3868   12.2810   25.0083 C   0  0  0  0  0  0  0  0  0  0  0  0
    6.3246   12.5436   25.9055 C   0  0  0  0  0  0  0  0  0  0  0  0
    5.4152   11.5470   26.2568 C   0  0  0  0  0  0  0  0  0  0  0  0
    4.2992   11.7543   27.0427 N   0  0  0  0  0  0  0  0  0  0  0  0
    3.8381   13.0118   27.8256 C   0  0  0  0  0  0  0  0  0  0  0  0
    4.3687   14.0369   27.9880 O   0  0  0  0  0  0  0  0  0  0  0  0
    2.5078   12.6251   28.4626 C   0  0  2  0  0  0  0  0  0  0  0  0
    1.7638   13.8575   28.9970 C   0  0  0  0  0  0  0  0  0  0  0  0
    2.1890   13.9946   30.7231 S   0  0  0  0  0  0  0  0  0  0  0  0
    3.0518   15.1352   30.9302 O   0  0  0  0  0  0  0  0  0  0  0  0
    0.9967   13.7756   31.5126 O   0  0  0  0  0  0  0  0  0  0  0  0
    3.1701   12.5195   30.8212 C   0  0  0  0  0  0  0  0  0  0  0  0
    2.7691   11.6495   29.6350 C   0  0  1  0  0  0  0  0  0  0  0  0
    1.5462   10.7947   29.8995 C   0  0  0  0  0  0  0  0  0  0  0  0
    1.6363   10.1607   31.0809 F   0  0  0  0  0  0  0  0  0  0  0  0
    1.4376    9.8478   28.9363 F   0  0  0  0  0  0  0  0  0  0  0  0
    0.4176   11.5164   29.8698 F   0  0  0  0  0  0  0  0  0  0  0  0
    5.5893   10.2594   25.7924 C   0  0  0  0  0  0  0  0  0  0  0  0
    6.6295    9.9956   24.9365 C   0  0  0  0  0  0  0  0  0  0  0  0
    7.4833   10.9925   24.4937 C   0  0  0  0  0  0  0  0  0  0  0  0
    8.3587   10.5319   23.5172 N   0  0  0  0  0  0  0  0  0  0  0  0
  1  2  2  0
  2  3  1  0
  3  4  1  0
  4  5  1  0
  5  6  1  0
  6  7  2  0
  7  8  1  0
  8  9  1  0
  9 10  1  0
 10 11  2  0
 12 10  1  1
 12 13  1  0
 13 14  1  0
 14 15  2  0
 14 16  2  0
 14 17  1  0
 17 18  1  0
 18 19  1  1
 19 20  1  0
 19 21  1  0
 19 22  1  0
  8 23  2  0
 23 24  1  0
 24 25  2  0
 25 26  1  0
 26  2  1  0
 25  6  1  0
 18 12  1  0
M  END
>  <energy_score>  (4816) 
-39.598467

>  <inchikey>  (4816) 
AXQVERQQVMAZMJ-UHFFFAOYSA-N

>  <smiles>  (4816) 
O=C1CCCc2cc(NC(=O)C3CS(=O)(=O)CC3C(F)(F)F)ccc2N1

>  <ref_pdb>  (4816) 
A1068a

>  <alias>  (4816) 
AXQVERQQVMAZMJ-UHFFFAOYSA-N-P120-P37-P120-601513

>  <HIPPO Pose ID>  (4816) 
523259

>  <name>  (4816) 
AXQVERQQVMAZMJ-UHFFFAOYSA-N-P120-P37-P120-601513

>  <HIPPO Compound ID>  (4816) 
301788

>  <ref_mols>  (4816) 
A1445a,A0310a

>  <distance_score>  (4816) 
1.966349

>  <inspiration_score>  (4816) 
None

$$$$
NTFRXGKJJBNZFY-UHFFFAOYSA-N-P37-P37-P120-601513
     RDKit          3D

 26 28  0  0  0  0  0  0  0  0999 V2000
   10.4196    9.8208   22.3003 O   0  0  0  0  0  0  0  0  0  0  0  0
    9.9890   10.6996   23.0460 C   0  0  0  0  0  0  0  0  0  0  0  0
   10.3827   12.1373   22.9043 C   0  0  0  0  0  0  0  0  0  0  0  0
   10.2388   13.0043   24.1261 C   0  0  0  0  0  0  0  0  0  0  0  0
    8.7897   13.3600   24.4140 C   0  0  0  0  0  0  0  0  0  0  0  0
    7.9780   12.2664   25.0356 C   0  0  0  0  0  0  0  0  0  0  0  0
    6.8872   12.6589   25.8701 C   0  0  0  0  0  0  0  0  0  0  0  0
    6.0487   11.7136   26.4530 C   0  0  0  0  0  0  0  0  0  0  0  0
    4.8898   11.9821   27.1708 N   0  0  0  0  0  0  0  0  0  0  0  0
    4.3642   13.2977   27.7602 C   0  0  0  0  0  0  0  0  0  0  0  0
    4.7777   14.3808   27.6743 O   0  0  0  0  0  0  0  0  0  0  0  0
    3.0618   13.0355   28.4550 C   0  0  2  0  0  0  0  0  0  0  0  0
    2.7744   13.5862   29.8312 C   0  0  0  0  0  0  0  0  0  0  0  0
    2.9563   12.0838   29.6556 C   0  0  0  0  0  0  0  0  0  0  0  0
    4.1510   11.4408   30.2275 C   0  0  0  0  0  0  0  0  0  0  0  0
    5.1952   12.2946   30.3209 F   0  0  0  0  0  0  0  0  0  0  0  0
    4.5466   10.4165   29.4344 F   0  0  0  0  0  0  0  0  0  0  0  0
    3.9244   10.9464   31.4613 F   0  0  0  0  0  0  0  0  0  0  0  0
    1.8009   11.1603   29.7396 C   0  0  0  0  0  0  0  0  0  0  0  0
    1.4411   10.9127   31.0144 F   0  0  0  0  0  0  0  0  0  0  0  0
    2.0604    9.9768   29.1339 F   0  0  0  0  0  0  0  0  0  0  0  0
    0.7256   11.6796   29.1020 F   0  0  0  0  0  0  0  0  0  0  0  0
    6.3069   10.3758   26.2360 C   0  0  0  0  0  0  0  0  0  0  0  0
    7.3505   10.0036   25.4107 C   0  0  0  0  0  0  0  0  0  0  0  0
    8.1846   10.9115   24.7910 C   0  0  0  0  0  0  0  0  0  0  0  0
    9.0901   10.2816   23.9445 N   0  0  0  0  0  0  0  0  0  0  0  0
  1  2  2  0
  2  3  1  0
  3  4  1  0
  4  5  1  0
  5  6  1  0
  6  7  2  0
  7  8  1  0
  8  9  1  0
  9 10  1  0
 10 11  2  0
 12 10  1  1
 12 13  1  0
 13 14  1  0
 14 15  1  0
 15 16  1  0
 15 17  1  0
 15 18  1  0
 14 19  1  0
 19 20  1  0
 19 21  1  0
 19 22  1  0
  8 23  2  0
 23 24  1  0
 24 25  2  0
 25 26  1  0
 26  2  1  0
 25  6  1  0
 14 12  1  0
M  END
>  <energy_score>  (4817) 
-134.68701

>  <inchikey>  (4817) 
NTFRXGKJJBNZFY-UHFFFAOYSA-N

>  <smiles>  (4817) 
O=C1CCCc2cc(NC(=O)C3CC3(C(F)(F)F)C(F)(F)F)ccc2N1

>  <ref_pdb>  (4817) 
A1068a

>  <alias>  (4817) 
NTFRXGKJJBNZFY-UHFFFAOYSA-N-P37-P37-P120-601513

>  <HIPPO Pose ID>  (4817) 
523260

>  <name>  (4817) 
NTFRXGKJJBNZFY-UHFFFAOYSA-N-P37-P37-P120-601513

>  <HIPPO Compound ID>  (4817) 
301789

>  <ref_mols>  (4817) 
A1445a,A0310a

>  <distance_score>  (4817) 
1.9273

>  <inspiration_score>  (4817) 
None

$$$$
RWQWZGXFXSXGCR-UHFFFAOYSA-N-P120-P37-P120-601513
     RDKit          3D

 26 28  0  0  0  0  0  0  0  0999 V2000
    8.2812    9.5598   24.1927 C   0  0  0  0  0  0  0  0  0  0  0  0
    7.5458   10.7534   24.7204 C   0  0  0  0  0  0  0  0  0  0  0  0
    6.4165   10.5120   25.5297 C   0  0  0  0  0  0  0  0  0  0  0  0
    5.5586   11.5513   25.8705 C   0  0  0  0  0  0  0  0  0  0  0  0
    4.5233   11.4534   26.7616 N   0  0  0  0  0  0  0  0  0  0  0  0
    4.4109   10.6645   28.0909 C   0  0  0  0  0  0  0  0  0  0  0  0
    5.1535    9.9166   28.5913 O   0  0  0  0  0  0  0  0  0  0  0  0
    3.1080   11.1620   28.7041 C   0  0  2  0  0  0  0  0  0  0  0  0
    3.2085   12.6662   29.0423 C   0  0  1  0  0  0  0  0  0  0  0  0
    2.1766   13.5370   28.3373 C   0  0  0  0  0  0  0  0  0  0  0  0
    3.0165   12.8041   30.4558 O   0  0  0  0  0  0  0  0  0  0  0  0
    3.2954   11.5387   31.0427 C   0  0  0  0  0  0  0  0  0  0  0  0
    2.8369   10.5065   30.0434 C   0  0  1  0  0  0  0  0  0  0  0  0
    1.3621   10.2385   30.1542 C   0  0  0  0  0  0  0  0  0  0  0  0
    1.0268    9.8758   31.4060 F   0  0  0  0  0  0  0  0  0  0  0  0
    1.0256    9.2205   29.3263 F   0  0  0  0  0  0  0  0  0  0  0  0
    0.6093   11.2975   29.8004 F   0  0  0  0  0  0  0  0  0  0  0  0
    5.7416   12.8197   25.3692 C   0  0  0  0  0  0  0  0  0  0  0  0
    6.8940   13.0849   24.6799 C   0  0  0  0  0  0  0  0  0  0  0  0
    7.8603   12.0907   24.4387 C   0  0  0  0  0  0  0  0  0  0  0  0
    9.0874   12.5822   23.9671 N   0  0  0  0  0  0  0  0  0  0  0  0
   10.1625   11.8938   23.3545 C   0  0  0  0  0  0  0  0  0  0  0  0
   10.8311   13.0036   22.5759 C   0  0  0  0  0  0  0  0  0  0  0  0
   10.8376   14.1080   23.6049 C   0  0  0  0  0  0  0  0  0  0  0  0
    9.5661   13.8530   24.3520 C   0  0  0  0  0  0  0  0  0  0  0  0
    9.1230   14.6436   25.1724 O   0  0  0  0  0  0  0  0  0  0  0  0
  1  2  1  0
  2  3  2  0
  3  4  1  0
  4  5  1  0
  5  6  1  0
  6  7  2  0
  8  6  1  1
  8  9  1  0
  9 10  1  6
  9 11  1  0
 11 12  1  0
 12 13  1  0
 13 14  1  1
 14 15  1  0
 14 16  1  0
 14 17  1  0
  4 18  2  0
 18 19  1  0
 19 20  2  0
 20 21  1  0
 21 22  1  0
 22 23  1  0
 23 24  1  0
 24 25  1  0
 25 26  2  0
 20  2  1  0
 25 21  1  0
 13  8  1  0
M  END
>  <energy_score>  (4818) 
-40.485891

>  <inchikey>  (4818) 
RWQWZGXFXSXGCR-UHFFFAOYSA-N

>  <smiles>  (4818) 
Cc1cc(NC(=O)C2C(C)OCC2C(F)(F)F)ccc1N1CCCC1=O

>  <ref_pdb>  (4818) 
A1068a

>  <alias>  (4818) 
RWQWZGXFXSXGCR-UHFFFAOYSA-N-P120-P37-P120-601513

>  <HIPPO Pose ID>  (4818) 
523273

>  <name>  (4818) 
RWQWZGXFXSXGCR-UHFFFAOYSA-N-P120-P37-P120-601513

>  <HIPPO Compound ID>  (4818) 
301796

>  <ref_mols>  (4818) 
A1445a,A0310a

>  <distance_score>  (4818) 
1.97387

>  <inspiration_score>  (4818) 
None

$$$$
GEPWCJVXNIHJIN-UHFFFAOYSA-N-P37-P37-P120-601513
     RDKit          3D

 26 28  0  0  0  0  0  0  0  0999 V2000
    6.4389   10.1787   30.1107 C   0  0  0  0  0  0  0  0  0  0  0  0
    4.9234   10.0639   30.1445 C   0  0  1  0  0  0  0  0  0  0  0  0
    4.4350   11.0425   31.0802 O   0  0  0  0  0  0  0  0  0  0  0  0
    3.4377   11.8549   30.4470 C   0  0  0  0  0  0  0  0  0  0  0  0
    2.9398   11.0609   29.2572 C   0  0  2  0  0  0  0  0  0  0  0  0
    1.7449   10.2481   29.6702 C   0  0  0  0  0  0  0  0  0  0  0  0
    1.9168    9.5939   30.8303 F   0  0  0  0  0  0  0  0  0  0  0  0
    1.4384    9.3388   28.7185 F   0  0  0  0  0  0  0  0  0  0  0  0
    0.6698   11.0575   29.8011 F   0  0  0  0  0  0  0  0  0  0  0  0
    4.1795   10.2596   28.8232 C   0  0  1  0  0  0  0  0  0  0  0  0
    4.9480   11.1423   27.8334 C   0  0  0  0  0  0  0  0  0  0  0  0
    4.7926   12.3031   27.8804 O   0  0  0  0  0  0  0  0  0  0  0  0
    5.8781   10.2816   26.9170 N   0  0  0  0  0  0  0  0  0  0  0  0
    6.6949   10.6552   25.8583 C   0  0  0  0  0  0  0  0  0  0  0  0
    7.6994    9.9119   25.2567 C   0  0  0  0  0  0  0  0  0  0  0  0
    8.6709   10.5107   24.4429 C   0  0  0  0  0  0  0  0  0  0  0  0
    8.5796   11.8740   24.2173 C   0  0  0  0  0  0  0  0  0  0  0  0
    7.3911   12.5160   24.5215 C   0  0  0  0  0  0  0  0  0  0  0  0
    6.5048   11.9344   25.4055 C   0  0  0  0  0  0  0  0  0  0  0  0
    7.1129   13.9145   24.0782 C   0  0  0  0  0  0  0  0  0  0  0  0
    7.6125   14.8080   25.1783 C   0  0  0  0  0  0  0  0  0  0  0  0
    9.0041   14.4127   25.6395 C   0  0  0  0  0  0  0  0  0  0  0  0
    9.9865   13.8424   24.5872 C   0  0  0  0  0  0  0  0  0  0  0  0
   11.0904   14.3914   24.4762 O   0  0  0  0  0  0  0  0  0  0  0  0
    9.6861   12.6736   23.8725 N   0  0  0  0  0  0  0  0  0  0  0  0
   10.7309   12.1353   23.0281 C   0  0  0  0  0  0  0  0  0  0  0  0
  2  1  1  6
  2  3  1  0
  3  4  1  0
  4  5  1  0
  5  6  1  1
  6  7  1  0
  6  8  1  0
  6  9  1  0
  5 10  1  0
 10 11  1  6
 11 12  2  0
 11 13  1  0
 13 14  1  0
 14 15  2  0
 15 16  1  0
 16 17  2  0
 17 18  1  0
 18 19  2  0
 18 20  1  0
 20 21  1  0
 21 22  1  0
 22 23  1  0
 23 24  2  0
 23 25  1  0
 25 26  1  0
 10  2  1  0
 19 14  1  0
 25 17  1  0
M  END
>  <energy_score>  (4819) 
-26.32102

>  <inchikey>  (4819) 
GEPWCJVXNIHJIN-UHFFFAOYSA-N

>  <smiles>  (4819) 
CC1OCC(C(F)(F)F)C1C(=O)Nc1ccc2c(c1)CCCC(=O)N2C

>  <ref_pdb>  (4819) 
A1068a

>  <alias>  (4819) 
GEPWCJVXNIHJIN-UHFFFAOYSA-N-P37-P37-P120-601513

>  <HIPPO Pose ID>  (4819) 
523274

>  <name>  (4819) 
GEPWCJVXNIHJIN-UHFFFAOYSA-N-P37-P37-P120-601513

>  <HIPPO Compound ID>  (4819) 
301797

>  <ref_mols>  (4819) 
A1445a,A0310a

>  <distance_score>  (4819) 
1.601839

>  <inspiration_score>  (4819) 
None

$$$$
GCDRQBQNKKCEFZ-UHFFFAOYSA-N-P37-P37-P120-601513
     RDKit          3D

 26 29  0  0  0  0  0  0  0  0999 V2000
    7.2996   14.1845   22.7360 C   0  0  0  0  0  0  0  0  0  0  0  0
    7.6028   13.3127   23.9095 C   0  0  0  0  0  0  0  0  0  0  0  0
    6.6097   13.3144   24.9077 C   0  0  0  0  0  0  0  0  0  0  0  0
    6.4827   12.2744   25.8142 C   0  0  0  0  0  0  0  0  0  0  0  0
    5.4164   12.3606   26.7006 N   0  0  0  0  0  0  0  0  0  0  0  0
    5.0293   11.4600   27.8995 C   0  0  0  0  0  0  0  0  0  0  0  0
    5.5032   10.4618   28.2809 O   0  0  0  0  0  0  0  0  0  0  0  0
    3.8066   12.1872   28.5782 C   0  0  2  0  0  0  0  0  0  0  0  0
    4.1566   13.2798   29.6631 C   0  0  2  0  0  0  0  0  0  0  0  0
    4.9504   12.5664   30.7565 C   0  0  0  0  0  0  0  0  0  0  0  0
    4.0954   11.3018   30.8965 C   0  0  0  0  0  0  0  0  0  0  0  0
    3.0482   11.5908   29.8220 C   0  0  2  0  0  0  0  0  0  0  0  0
    1.9003   10.6481   29.6856 C   0  0  0  0  0  0  0  0  0  0  0  0
    1.2476   10.5279   30.8625 F   0  0  0  0  0  0  0  0  0  0  0  0
    2.2874    9.4216   29.2874 F   0  0  0  0  0  0  0  0  0  0  0  0
    1.0248   11.1207   28.7670 F   0  0  0  0  0  0  0  0  0  0  0  0
    2.6775   13.0940   30.1002 C   0  0  0  0  0  0  0  0  0  0  0  0
    7.3512   11.2056   25.7089 C   0  0  0  0  0  0  0  0  0  0  0  0
    8.4225   11.2718   24.7909 C   0  0  0  0  0  0  0  0  0  0  0  0
    8.6373   12.3832   23.9408 C   0  0  0  0  0  0  0  0  0  0  0  0
    9.8585   12.5605   23.2127 N   0  0  0  0  0  0  0  0  0  0  0  0
   10.9291   11.6316   23.2889 C   0  0  0  0  0  0  0  0  0  0  0  0
   12.0695   12.5083   23.7692 C   0  0  0  0  0  0  0  0  0  0  0  0
   11.9468   13.6441   22.7928 C   0  0  0  0  0  0  0  0  0  0  0  0
   10.4469   13.7714   22.7440 C   0  0  0  0  0  0  0  0  0  0  0  0
    9.9474   14.8160   22.3833 O   0  0  0  0  0  0  0  0  0  0  0  0
  1  2  1  0
  2  3  2  0
  3  4  1  0
  4  5  1  0
  5  6  1  0
  6  7  2  0
  8  6  1  1
  8  9  1  0
  9 10  1  1
 10 11  1  0
 11 12  1  0
 12 13  1  6
 13 14  1  0
 13 15  1  0
 13 16  1  0
 12 17  1  0
  4 18  2  0
 18 19  1  0
 19 20  2  0
 20 21  1  0
 21 22  1  0
 22 23  1  0
 23 24  1  0
 24 25  1  0
 25 26  2  0
 20  2  1  0
 25 21  1  0
 12  8  1  0
 17  9  1  0
M  END
>  <energy_score>  (4820) 
-25.320506

>  <inchikey>  (4820) 
GCDRQBQNKKCEFZ-UHFFFAOYSA-N

>  <smiles>  (4820) 
Cc1cc(NC(=O)C2C3CCC2(C(F)(F)F)C3)ccc1N1CCCC1=O

>  <ref_pdb>  (4820) 
A1068a

>  <alias>  (4820) 
GCDRQBQNKKCEFZ-UHFFFAOYSA-N-P37-P37-P120-601513

>  <HIPPO Pose ID>  (4820) 
523282

>  <name>  (4820) 
GCDRQBQNKKCEFZ-UHFFFAOYSA-N-P37-P37-P120-601513

>  <HIPPO Compound ID>  (4820) 
301801

>  <ref_mols>  (4820) 
A1445a,A0310a

>  <distance_score>  (4820) 
1.50878

>  <inspiration_score>  (4820) 
None

$$$$
GCDRQBQNKKCEFZ-UHFFFAOYSA-N-P120-P37-P120-601513
     RDKit          3D

 26 29  0  0  0  0  0  0  0  0999 V2000
    7.4983   15.1694   23.6363 C   0  0  0  0  0  0  0  0  0  0  0  0
    7.4783   13.8141   24.2630 C   0  0  0  0  0  0  0  0  0  0  0  0
    6.3217   13.4952   24.9768 C   0  0  0  0  0  0  0  0  0  0  0  0
    6.1349   12.2499   25.5564 C   0  0  0  0  0  0  0  0  0  0  0  0
    5.0133   12.1737   26.3667 N   0  0  0  0  0  0  0  0  0  0  0  0
    4.6663   11.1958   27.5111 C   0  0  0  0  0  0  0  0  0  0  0  0
    5.2354   10.2539   27.8997 O   0  0  0  0  0  0  0  0  0  0  0  0
    3.3641   11.8262   28.1523 C   0  0  2  0  0  0  0  0  0  0  0  0
    3.6445   13.1542   28.9861 C   0  0  2  0  0  0  0  0  0  0  0  0
    4.6151   12.7619   30.1016 C   0  0  0  0  0  0  0  0  0  0  0  0
    3.9628   11.4463   30.5441 C   0  0  0  0  0  0  0  0  0  0  0  0
    2.7991   11.4087   29.5552 C   0  0  2  0  0  0  0  0  0  0  0  0
    1.7451   10.3700   29.7144 C   0  0  0  0  0  0  0  0  0  0  0  0
    1.2995   10.3431   30.9903 F   0  0  0  0  0  0  0  0  0  0  0  0
    2.1709    9.1370   29.3871 F   0  0  0  0  0  0  0  0  0  0  0  0
    0.6928   10.6687   28.9162 F   0  0  0  0  0  0  0  0  0  0  0  0
    2.2523   12.8831   29.5982 C   0  0  0  0  0  0  0  0  0  0  0  0
    7.0578   11.2500   25.3057 C   0  0  0  0  0  0  0  0  0  0  0  0
    8.2181   11.5624   24.5594 C   0  0  0  0  0  0  0  0  0  0  0  0
    8.5086   12.8837   24.1534 C   0  0  0  0  0  0  0  0  0  0  0  0
    9.7476   13.2718   23.5832 N   0  0  0  0  0  0  0  0  0  0  0  0
   10.7571   12.3542   23.2217 C   0  0  0  0  0  0  0  0  0  0  0  0
   11.8819   13.1811   22.6280 C   0  0  0  0  0  0  0  0  0  0  0  0
   11.3162   14.5520   22.4471 C   0  0  0  0  0  0  0  0  0  0  0  0
   10.3699   14.5343   23.5956 C   0  0  0  0  0  0  0  0  0  0  0  0
   10.2854   15.4269   24.4162 O   0  0  0  0  0  0  0  0  0  0  0  0
  1  2  1  0
  2  3  2  0
  3  4  1  0
  4  5  1  0
  5  6  1  0
  6  7  2  0
  8  6  1  1
  8  9  1  0
  9 10  1  1
 10 11  1  0
 11 12  1  0
 12 13  1  6
 13 14  1  0
 13 15  1  0
 13 16  1  0
 12 17  1  0
  4 18  2  0
 18 19  1  0
 19 20  2  0
 20 21  1  0
 21 22  1  0
 22 23  1  0
 23 24  1  0
 24 25  1  0
 25 26  2  0
 20  2  1  0
 25 21  1  0
 12  8  1  0
 17  9  1  0
M  END
>  <energy_score>  (4821) 
-24.487267

>  <inchikey>  (4821) 
GCDRQBQNKKCEFZ-UHFFFAOYSA-N

>  <smiles>  (4821) 
Cc1cc(NC(=O)C2C3CCC2(C(F)(F)F)C3)ccc1N1CCCC1=O

>  <ref_pdb>  (4821) 
A1068a

>  <alias>  (4821) 
GCDRQBQNKKCEFZ-UHFFFAOYSA-N-P120-P37-P120-601513

>  <HIPPO Pose ID>  (4821) 
523283

>  <name>  (4821) 
GCDRQBQNKKCEFZ-UHFFFAOYSA-N-P120-P37-P120-601513

>  <HIPPO Compound ID>  (4821) 
301801

>  <ref_mols>  (4821) 
A1445a,A0310a

>  <distance_score>  (4821) 
1.575478

>  <inspiration_score>  (4821) 
None

$$$$
PGMMYDKTKXWBFT-UHFFFAOYSA-N-P37-P37-P120-601513
     RDKit          3D

 26 28  0  0  0  0  0  0  0  0999 V2000
    1.7460   14.6587   28.0020 C   0  0  0  0  0  0  0  0  0  0  0  0
    2.6822   13.6231   28.4186 N   0  0  0  0  0  0  0  0  0  0  0  0
    2.8718   12.5792   27.3936 C   0  0  0  0  0  0  0  0  0  0  0  0
    3.1862   11.2850   28.2023 C   0  0  1  0  0  0  0  0  0  0  0  0
    4.7041   11.3976   28.4038 C   0  0  0  0  0  0  0  0  0  0  0  0
    5.2173   11.8728   29.3446 O   0  0  0  0  0  0  0  0  0  0  0  0
    5.3328   10.8506   27.0661 N   0  0  0  0  0  0  0  0  0  0  0  0
    6.6409   10.8724   26.6145 C   0  0  0  0  0  0  0  0  0  0  0  0
    7.0681   10.0698   25.5550 C   0  0  0  0  0  0  0  0  0  0  0  0
    8.1209   10.4362   24.7035 C   0  0  0  0  0  0  0  0  0  0  0  0
    8.5199   11.7593   24.7463 C   0  0  0  0  0  0  0  0  0  0  0  0
    8.1264   12.5495   25.8391 C   0  0  0  0  0  0  0  0  0  0  0  0
    7.2912   12.0568   26.8401 C   0  0  0  0  0  0  0  0  0  0  0  0
    8.4332   14.0168   25.8819 C   0  0  0  0  0  0  0  0  0  0  0  0
    7.3857   14.7057   25.0339 C   0  0  0  0  0  0  0  0  0  0  0  0
    7.2844   14.1111   23.6402 C   0  0  0  0  0  0  0  0  0  0  0  0
    8.5944   13.5642   23.0724 C   0  0  0  0  0  0  0  0  0  0  0  0
    9.1207   14.1362   22.1175 O   0  0  0  0  0  0  0  0  0  0  0  0
    9.1043   12.3798   23.6164 N   0  0  0  0  0  0  0  0  0  0  0  0
   10.2746   11.7687   23.0125 C   0  0  0  0  0  0  0  0  0  0  0  0
    2.1427   11.5165   29.2654 C   0  0  1  0  0  0  0  0  0  0  0  0
    1.9809   10.5302   30.3581 C   0  0  0  0  0  0  0  0  0  0  0  0
    2.9582   10.5423   31.2660 F   0  0  0  0  0  0  0  0  0  0  0  0
    1.8814    9.2837   29.8396 F   0  0  0  0  0  0  0  0  0  0  0  0
    0.8125   10.7905   30.9847 F   0  0  0  0  0  0  0  0  0  0  0  0
    2.3024   12.9596   29.6780 C   0  0  0  0  0  0  0  0  0  0  0  0
  1  2  1  0
  2  3  1  0
  3  4  1  0
  4  5  1  1
  5  6  2  0
  5  7  1  0
  7  8  1  0
  8  9  2  0
  9 10  1  0
 10 11  2  0
 11 12  1  0
 12 13  2  0
 12 14  1  0
 14 15  1  0
 15 16  1  0
 16 17  1  0
 17 18  2  0
 17 19  1  0
 19 20  1  0
  4 21  1  0
 21 22  1  1
 22 23  1  0
 22 24  1  0
 22 25  1  0
 21 26  1  0
 26  2  1  0
 13  8  1  0
 19 11  1  0
M  END
>  <energy_score>  (4822) 
-15.025528

>  <inchikey>  (4822) 
PGMMYDKTKXWBFT-UHFFFAOYSA-N

>  <smiles>  (4822) 
CN1CC(C(=O)Nc2ccc3c(c2)CCCC(=O)N3C)C(C(F)(F)F)C1

>  <ref_pdb>  (4822) 
A1068a

>  <alias>  (4822) 
PGMMYDKTKXWBFT-UHFFFAOYSA-N-P37-P37-P120-601513

>  <HIPPO Pose ID>  (4822) 
523292

>  <name>  (4822) 
PGMMYDKTKXWBFT-UHFFFAOYSA-N-P37-P37-P120-601513

>  <HIPPO Compound ID>  (4822) 
301806

>  <ref_mols>  (4822) 
A1445a,A0310a

>  <distance_score>  (4822) 
1.791181

>  <inspiration_score>  (4822) 
None

$$$$
PGMMYDKTKXWBFT-UHFFFAOYSA-N-P120-P37-P120-601513
     RDKit          3D

 26 28  0  0  0  0  0  0  0  0999 V2000
    0.5662   14.1251   27.5468 C   0  0  0  0  0  0  0  0  0  0  0  0
    1.7103   13.3034   27.9158 N   0  0  0  0  0  0  0  0  0  0  0  0
    1.9427   12.1851   26.9798 C   0  0  0  0  0  0  0  0  0  0  0  0
    2.4772   11.0184   27.8440 C   0  0  1  0  0  0  0  0  0  0  0  0
    3.9727   11.2895   27.9319 C   0  0  0  0  0  0  0  0  0  0  0  0
    4.4611   11.8596   28.8319 O   0  0  0  0  0  0  0  0  0  0  0  0
    4.6079   10.7665   26.5950 N   0  0  0  0  0  0  0  0  0  0  0  0
    5.8883   10.9217   26.0872 C   0  0  0  0  0  0  0  0  0  0  0  0
    6.4675   10.1541   25.0872 C   0  0  0  0  0  0  0  0  0  0  0  0
    7.5713   10.6273   24.3438 C   0  0  0  0  0  0  0  0  0  0  0  0
    7.9724   11.9586   24.4990 C   0  0  0  0  0  0  0  0  0  0  0  0
    7.4135   12.7001   25.5462 C   0  0  0  0  0  0  0  0  0  0  0  0
    6.4392   12.1487   26.3704 C   0  0  0  0  0  0  0  0  0  0  0  0
    7.7750   14.1348   25.8281 C   0  0  0  0  0  0  0  0  0  0  0  0
    7.0847   15.0316   24.8297 C   0  0  0  0  0  0  0  0  0  0  0  0
    7.3610   14.5885   23.4114 C   0  0  0  0  0  0  0  0  0  0  0  0
    8.7484   13.9710   23.2816 C   0  0  0  0  0  0  0  0  0  0  0  0
    9.7042   14.6487   22.9085 O   0  0  0  0  0  0  0  0  0  0  0  0
    8.8552   12.6054   23.5874 N   0  0  0  0  0  0  0  0  0  0  0  0
   10.1579   12.0166   23.3807 C   0  0  0  0  0  0  0  0  0  0  0  0
    1.5909   11.2551   29.0417 C   0  0  1  0  0  0  0  0  0  0  0  0
    1.7875   10.4251   30.2517 C   0  0  0  0  0  0  0  0  0  0  0  0
    2.9166   10.6569   30.9230 F   0  0  0  0  0  0  0  0  0  0  0  0
    1.7416    9.1148   29.9155 F   0  0  0  0  0  0  0  0  0  0  0  0
    0.7523   10.6610   31.0851 F   0  0  0  0  0  0  0  0  0  0  0  0
    1.6168   12.7481   29.2767 C   0  0  0  0  0  0  0  0  0  0  0  0
  1  2  1  0
  2  3  1  0
  3  4  1  0
  4  5  1  1
  5  6  2  0
  5  7  1  0
  7  8  1  0
  8  9  2  0
  9 10  1  0
 10 11  2  0
 11 12  1  0
 12 13  2  0
 12 14  1  0
 14 15  1  0
 15 16  1  0
 16 17  1  0
 17 18  2  0
 17 19  1  0
 19 20  1  0
  4 21  1  0
 21 22  1  1
 22 23  1  0
 22 24  1  0
 22 25  1  0
 21 26  1  0
 26  2  1  0
 13  8  1  0
 19 11  1  0
M  END
>  <energy_score>  (4823) 
-29.645504

>  <inchikey>  (4823) 
PGMMYDKTKXWBFT-UHFFFAOYSA-N

>  <smiles>  (4823) 
CN1CC(C(=O)Nc2ccc3c(c2)CCCC(=O)N3C)C(C(F)(F)F)C1

>  <ref_pdb>  (4823) 
A1068a

>  <alias>  (4823) 
PGMMYDKTKXWBFT-UHFFFAOYSA-N-P120-P37-P120-601513

>  <HIPPO Pose ID>  (4823) 
523293

>  <name>  (4823) 
PGMMYDKTKXWBFT-UHFFFAOYSA-N-P120-P37-P120-601513

>  <HIPPO Compound ID>  (4823) 
301806

>  <ref_mols>  (4823) 
A1445a,A0310a

>  <distance_score>  (4823) 
1.983842

>  <inspiration_score>  (4823) 
None

$$$$
LLUMFYGETKWBAR-UHFFFAOYSA-N-P37-P37-P120-601513
     RDKit          3D

 26 28  0  0  0  0  0  0  0  0999 V2000
    8.8576   14.5278   25.4568 C   0  0  0  0  0  0  0  0  0  0  0  0
    8.3237   13.1409   25.3513 C   0  0  0  0  0  0  0  0  0  0  0  0
    7.3229   12.8197   26.2926 C   0  0  0  0  0  0  0  0  0  0  0  0
    6.7098   11.5825   26.2882 C   0  0  0  0  0  0  0  0  0  0  0  0
    5.4333   11.5235   26.8281 N   0  0  0  0  0  0  0  0  0  0  0  0
    4.8547   12.1497   28.1496 C   0  0  0  0  0  0  0  0  0  0  0  0
    5.3920   12.7382   29.0083 O   0  0  0  0  0  0  0  0  0  0  0  0
    3.3179   11.9338   28.0739 C   0  0  2  0  0  0  0  0  0  0  0  0
    2.8389   13.0715   27.1096 C   0  0  0  0  0  0  0  0  0  0  0  0
    2.3967   14.3696   27.8206 C   0  0  0  0  0  0  0  0  0  0  0  0
    2.9084   14.5195   29.2537 C   0  0  0  0  0  0  0  0  0  0  0  0
    2.6549   13.2778   30.1218 C   0  0  0  0  0  0  0  0  0  0  0  0
    2.3781   12.0396   29.2741 C   0  0  2  0  0  0  0  0  0  0  0  0
    2.1333   10.7772   30.0629 C   0  0  0  0  0  0  0  0  0  0  0  0
    3.1055   10.4854   30.9335 F   0  0  0  0  0  0  0  0  0  0  0  0
    1.9554    9.7155   29.2425 F   0  0  0  0  0  0  0  0  0  0  0  0
    0.9796   10.9207   30.7541 F   0  0  0  0  0  0  0  0  0  0  0  0
    7.1890   10.6072   25.4252 C   0  0  0  0  0  0  0  0  0  0  0  0
    8.2372   10.8969   24.5288 C   0  0  0  0  0  0  0  0  0  0  0  0
    8.7620   12.1937   24.4110 C   0  0  0  0  0  0  0  0  0  0  0  0
    9.7443   12.4699   23.4154 N   0  0  0  0  0  0  0  0  0  0  0  0
   10.8613   11.6042   23.2505 C   0  0  0  0  0  0  0  0  0  0  0  0
   12.0097   12.5556   23.5488 C   0  0  0  0  0  0  0  0  0  0  0  0
   11.6232   13.7385   22.6972 C   0  0  0  0  0  0  0  0  0  0  0  0
   10.1325   13.7132   22.8872 C   0  0  0  0  0  0  0  0  0  0  0  0
    9.4267   14.6566   22.5987 O   0  0  0  0  0  0  0  0  0  0  0  0
  1  2  1  0
  2  3  2  0
  3  4  1  0
  4  5  1  0
  5  6  1  0
  6  7  2  0
  8  6  1  1
  8  9  1  0
  9 10  1  0
 10 11  1  0
 11 12  1  0
 12 13  1  0
 13 14  1  1
 14 15  1  0
 14 16  1  0
 14 17  1  0
  4 18  2  0
 18 19  1  0
 19 20  2  0
 20 21  1  0
 21 22  1  0
 22 23  1  0
 23 24  1  0
 24 25  1  0
 25 26  2  0
 20  2  1  0
 25 21  1  0
 13  8  1  0
M  END
>  <energy_score>  (4824) 
-13.08121

>  <inchikey>  (4824) 
LLUMFYGETKWBAR-UHFFFAOYSA-N

>  <smiles>  (4824) 
Cc1cc(NC(=O)C2CCCCC2C(F)(F)F)ccc1N1CCCC1=O

>  <ref_pdb>  (4824) 
A1068a

>  <alias>  (4824) 
LLUMFYGETKWBAR-UHFFFAOYSA-N-P37-P37-P120-601513

>  <HIPPO Pose ID>  (4824) 
523294

>  <name>  (4824) 
LLUMFYGETKWBAR-UHFFFAOYSA-N-P37-P37-P120-601513

>  <HIPPO Compound ID>  (4824) 
301807

>  <ref_mols>  (4824) 
A1445a,A0310a

>  <distance_score>  (4824) 
1.582921

>  <inspiration_score>  (4824) 
None

$$$$
LLUMFYGETKWBAR-UHFFFAOYSA-N-P120-P37-P120-601513
     RDKit          3D

 26 28  0  0  0  0  0  0  0  0999 V2000
    8.3463   14.9911   25.5675 C   0  0  0  0  0  0  0  0  0  0  0  0
    7.8794   13.6213   25.2020 C   0  0  0  0  0  0  0  0  0  0  0  0
    6.7535   13.1483   25.9078 C   0  0  0  0  0  0  0  0  0  0  0  0
    6.2372   11.8738   25.7152 C   0  0  0  0  0  0  0  0  0  0  0  0
    4.9742   11.6361   26.2509 N   0  0  0  0  0  0  0  0  0  0  0  0
    4.3288   12.1286   27.5955 C   0  0  0  0  0  0  0  0  0  0  0  0
    4.7935   12.7400   28.4808 O   0  0  0  0  0  0  0  0  0  0  0  0
    2.8288   11.7533   27.5456 C   0  0  2  0  0  0  0  0  0  0  0  0
    2.1858   12.8055   26.5830 C   0  0  0  0  0  0  0  0  0  0  0  0
    1.5912   14.0510   27.2698 C   0  0  0  0  0  0  0  0  0  0  0  0
    2.1928   14.3508   28.6374 C   0  0  0  0  0  0  0  0  0  0  0  0
    2.1331   13.1437   29.5803 C   0  0  0  0  0  0  0  0  0  0  0  0
    1.9807   11.8168   28.8246 C   0  0  2  0  0  0  0  0  0  0  0  0
    2.0123   10.6259   29.7465 C   0  0  0  0  0  0  0  0  0  0  0  0
    3.1175   10.5408   30.4957 F   0  0  0  0  0  0  0  0  0  0  0  0
    1.8549    9.4706   29.0641 F   0  0  0  0  0  0  0  0  0  0  0  0
    0.9556   10.7197   30.5876 F   0  0  0  0  0  0  0  0  0  0  0  0
    6.8938   11.0221   24.8398 C   0  0  0  0  0  0  0  0  0  0  0  0
    8.0525   11.4726   24.1618 C   0  0  0  0  0  0  0  0  0  0  0  0
    8.5262   12.8021   24.2761 C   0  0  0  0  0  0  0  0  0  0  0  0
    9.6586   13.2441   23.5326 N   0  0  0  0  0  0  0  0  0  0  0  0
   10.7363   12.3597   23.2877 C   0  0  0  0  0  0  0  0  0  0  0  0
   11.9360   13.2560   23.1755 C   0  0  0  0  0  0  0  0  0  0  0  0
   11.3819   14.4131   22.4051 C   0  0  0  0  0  0  0  0  0  0  0  0
   10.0345   14.5206   23.0589 C   0  0  0  0  0  0  0  0  0  0  0  0
    9.4422   15.5789   23.0990 O   0  0  0  0  0  0  0  0  0  0  0  0
  1  2  1  0
  2  3  2  0
  3  4  1  0
  4  5  1  0
  5  6  1  0
  6  7  2  0
  8  6  1  1
  8  9  1  0
  9 10  1  0
 10 11  1  0
 11 12  1  0
 12 13  1  0
 13 14  1  1
 14 15  1  0
 14 16  1  0
 14 17  1  0
  4 18  2  0
 18 19  1  0
 19 20  2  0
 20 21  1  0
 21 22  1  0
 22 23  1  0
 23 24  1  0
 24 25  1  0
 25 26  2  0
 20  2  1  0
 25 21  1  0
 13  8  1  0
M  END
>  <energy_score>  (4825) 
-27.815103

>  <inchikey>  (4825) 
LLUMFYGETKWBAR-UHFFFAOYSA-N

>  <smiles>  (4825) 
Cc1cc(NC(=O)C2CCCCC2C(F)(F)F)ccc1N1CCCC1=O

>  <ref_pdb>  (4825) 
A1068a

>  <alias>  (4825) 
LLUMFYGETKWBAR-UHFFFAOYSA-N-P120-P37-P120-601513

>  <HIPPO Pose ID>  (4825) 
523295

>  <name>  (4825) 
LLUMFYGETKWBAR-UHFFFAOYSA-N-P120-P37-P120-601513

>  <HIPPO Compound ID>  (4825) 
301807

>  <ref_mols>  (4825) 
A1445a,A0310a

>  <distance_score>  (4825) 
1.640111

>  <inspiration_score>  (4825) 
None

$$$$
RYPAYSNBNAHMSV-UHFFFAOYSA-N-P37-P37-P120-601513
     RDKit          3D

 26 28  0  0  0  0  0  0  0  0999 V2000
    7.9572   14.5443   24.7383 C   0  0  0  0  0  0  0  0  0  0  0  0
    8.0494   13.0859   25.0127 C   0  0  0  0  0  0  0  0  0  0  0  0
    7.0140   12.5258   25.7698 C   0  0  0  0  0  0  0  0  0  0  0  0
    6.8953   11.1560   25.9394 C   0  0  0  0  0  0  0  0  0  0  0  0
    5.9023   10.6825   26.7935 N   0  0  0  0  0  0  0  0  0  0  0  0
    4.9082   11.4528   27.7133 C   0  0  0  0  0  0  0  0  0  0  0  0
    4.7222   12.6016   27.8337 O   0  0  0  0  0  0  0  0  0  0  0  0
    4.1384   10.4441   28.5766 C   0  0  0  0  0  0  0  0  0  0  0  0
    3.0384   11.2076   29.3565 C   0  0  2  0  0  0  0  0  0  0  0  0
    3.5354   11.8299   30.6765 C   0  0  0  0  0  0  0  0  0  0  0  0
    4.9025   12.5737   30.8006 C   0  0  0  0  0  0  0  0  0  0  0  0
    4.9341   12.1124   32.2715 C   0  0  0  0  0  0  0  0  0  0  0  0
    4.0536   10.9233   31.8365 C   0  0  0  0  0  0  0  0  0  0  0  0
    1.7909   10.3872   29.6327 C   0  0  0  0  0  0  0  0  0  0  0  0
    1.9290    9.5689   30.6911 F   0  0  0  0  0  0  0  0  0  0  0  0
    1.4481    9.6304   28.5677 F   0  0  0  0  0  0  0  0  0  0  0  0
    0.7448   11.2075   29.8803 F   0  0  0  0  0  0  0  0  0  0  0  0
    7.7741   10.3344   25.2541 C   0  0  0  0  0  0  0  0  0  0  0  0
    8.8391   10.8920   24.5186 C   0  0  0  0  0  0  0  0  0  0  0  0
    9.0496   12.2814   24.4698 C   0  0  0  0  0  0  0  0  0  0  0  0
   10.2043   12.8406   23.8550 N   0  0  0  0  0  0  0  0  0  0  0  0
   10.8971   12.1428   22.8269 C   0  0  0  0  0  0  0  0  0  0  0  0
   11.7061   13.2248   22.1500 C   0  0  0  0  0  0  0  0  0  0  0  0
   12.1455   14.0851   23.3006 C   0  0  0  0  0  0  0  0  0  0  0  0
   10.9782   13.9603   24.2454 C   0  0  0  0  0  0  0  0  0  0  0  0
   10.8590   14.7135   25.2003 O   0  0  0  0  0  0  0  0  0  0  0  0
  1  2  1  0
  2  3  2  0
  3  4  1  0
  4  5  1  0
  5  6  1  0
  6  7  2  0
  6  8  1  0
  9  8  1  1
  9 10  1  0
 10 11  1  0
 11 12  1  0
 12 13  1  0
  9 14  1  0
 14 15  1  0
 14 16  1  0
 14 17  1  0
  4 18  2  0
 18 19  1  0
 19 20  2  0
 20 21  1  0
 21 22  1  0
 22 23  1  0
 23 24  1  0
 24 25  1  0
 25 26  2  0
 20  2  1  0
 25 21  1  0
 13 10  1  0
M  END
>  <energy_score>  (4826) 
-43.427709

>  <inchikey>  (4826) 
RYPAYSNBNAHMSV-UHFFFAOYSA-N

>  <smiles>  (4826) 
Cc1cc(NC(=O)CC(C2CCC2)C(F)(F)F)ccc1N1CCCC1=O

>  <ref_pdb>  (4826) 
A1068a

>  <alias>  (4826) 
RYPAYSNBNAHMSV-UHFFFAOYSA-N-P37-P37-P120-601513

>  <HIPPO Pose ID>  (4826) 
523302

>  <name>  (4826) 
RYPAYSNBNAHMSV-UHFFFAOYSA-N-P37-P37-P120-601513

>  <HIPPO Compound ID>  (4826) 
301811

>  <ref_mols>  (4826) 
A1445a,A0310a

>  <distance_score>  (4826) 
1.482701

>  <inspiration_score>  (4826) 
None

$$$$
RYPAYSNBNAHMSV-UHFFFAOYSA-N-P120-P37-P120-601513
     RDKit          3D

 26 28  0  0  0  0  0  0  0  0999 V2000
    7.6581   14.9235   24.9070 C   0  0  0  0  0  0  0  0  0  0  0  0
    7.6042   13.4391   24.7697 C   0  0  0  0  0  0  0  0  0  0  0  0
    6.5512   12.8013   25.4582 C   0  0  0  0  0  0  0  0  0  0  0  0
    6.4263   11.4175   25.5455 C   0  0  0  0  0  0  0  0  0  0  0  0
    5.4601   10.8906   26.4010 N   0  0  0  0  0  0  0  0  0  0  0  0
    4.3939   11.6046   27.2830 C   0  0  0  0  0  0  0  0  0  0  0  0
    4.1147   12.7377   27.3659 O   0  0  0  0  0  0  0  0  0  0  0  0
    3.7520   10.5606   28.2020 C   0  0  0  0  0  0  0  0  0  0  0  0
    2.7677   11.2732   29.1609 C   0  0  2  0  0  0  0  0  0  0  0  0
    3.5434   12.0219   30.2642 C   0  0  0  0  0  0  0  0  0  0  0  0
    4.4765   11.2593   31.2504 C   0  0  0  0  0  0  0  0  0  0  0  0
    4.1244   12.3347   32.2996 C   0  0  0  0  0  0  0  0  0  0  0  0
    2.8096   12.5669   31.5254 C   0  0  0  0  0  0  0  0  0  0  0  0
    1.6838   10.3694   29.7083 C   0  0  0  0  0  0  0  0  0  0  0  0
    2.0499    9.7048   30.8181 F   0  0  0  0  0  0  0  0  0  0  0  0
    1.2837    9.4520   28.8023 F   0  0  0  0  0  0  0  0  0  0  0  0
    0.5943   11.1111   30.0135 F   0  0  0  0  0  0  0  0  0  0  0  0
    7.3205   10.6357   24.8428 C   0  0  0  0  0  0  0  0  0  0  0  0
    8.3568   11.2644   24.1195 C   0  0  0  0  0  0  0  0  0  0  0  0
    8.5464   12.6761   24.0871 C   0  0  0  0  0  0  0  0  0  0  0  0
    9.7028   13.2292   23.4490 N   0  0  0  0  0  0  0  0  0  0  0  0
   10.8335   12.4024   23.2547 C   0  0  0  0  0  0  0  0  0  0  0  0
   11.9946   13.3349   23.1263 C   0  0  0  0  0  0  0  0  0  0  0  0
   11.4039   14.4584   22.3437 C   0  0  0  0  0  0  0  0  0  0  0  0
   10.0474   14.5214   22.9855 C   0  0  0  0  0  0  0  0  0  0  0  0
    9.4461   15.5744   23.0148 O   0  0  0  0  0  0  0  0  0  0  0  0
  1  2  1  0
  2  3  2  0
  3  4  1  0
  4  5  1  0
  5  6  1  0
  6  7  2  0
  6  8  1  0
  9  8  1  1
  9 10  1  0
 10 11  1  0
 11 12  1  0
 12 13  1  0
  9 14  1  0
 14 15  1  0
 14 16  1  0
 14 17  1  0
  4 18  2  0
 18 19  1  0
 19 20  2  0
 20 21  1  0
 21 22  1  0
 22 23  1  0
 23 24  1  0
 24 25  1  0
 25 26  2  0
 20  2  1  0
 25 21  1  0
 13 10  1  0
M  END
>  <energy_score>  (4827) 
-40.026691

>  <inchikey>  (4827) 
RYPAYSNBNAHMSV-UHFFFAOYSA-N

>  <smiles>  (4827) 
Cc1cc(NC(=O)CC(C2CCC2)C(F)(F)F)ccc1N1CCCC1=O

>  <ref_pdb>  (4827) 
A1068a

>  <alias>  (4827) 
RYPAYSNBNAHMSV-UHFFFAOYSA-N-P120-P37-P120-601513

>  <HIPPO Pose ID>  (4827) 
523303

>  <name>  (4827) 
RYPAYSNBNAHMSV-UHFFFAOYSA-N-P120-P37-P120-601513

>  <HIPPO Compound ID>  (4827) 
301811

>  <ref_mols>  (4827) 
A1445a,A0310a

>  <distance_score>  (4827) 
1.456703

>  <inspiration_score>  (4827) 
None

$$$$
YPYBHFCFHLHCPV-UHFFFAOYSA-N-P37-P37-P120-601513
     RDKit          3D

 26 27  0  0  0  0  0  0  0  0999 V2000
    4.7946   14.1111   29.2045 C   0  0  0  0  0  0  0  0  0  0  0  0
    4.0923   13.0122   28.5304 N   0  0  0  0  0  0  0  0  0  0  0  0
    3.2183   13.5713   27.4933 C   0  0  0  0  0  0  0  0  0  0  0  0
    3.3413   12.2061   29.5108 C   0  0  0  0  0  0  0  0  0  0  0  0
    3.0914   10.7637   29.0093 C   0  0  1  0  0  0  0  0  0  0  0  0
    4.2640    9.7749   29.2332 C   0  0  0  0  0  0  0  0  0  0  0  0
    5.5830   10.3919   28.7969 C   0  0  0  0  0  0  0  0  0  0  0  0
    6.1917   11.0683   29.5356 O   0  0  0  0  0  0  0  0  0  0  0  0
    5.8384   10.0499   27.2945 N   0  0  0  0  0  0  0  0  0  0  0  0
    6.7967   10.5263   26.4143 C   0  0  0  0  0  0  0  0  0  0  0  0
    7.2983    9.8439   25.3147 C   0  0  0  0  0  0  0  0  0  0  0  0
    8.2755   10.3767   24.4737 C   0  0  0  0  0  0  0  0  0  0  0  0
    8.5482   11.7227   24.5875 C   0  0  0  0  0  0  0  0  0  0  0  0
    8.0248   12.4376   25.6791 C   0  0  0  0  0  0  0  0  0  0  0  0
    7.2095   11.8164   26.6145 C   0  0  0  0  0  0  0  0  0  0  0  0
    8.2234   13.9134   25.8523 C   0  0  0  0  0  0  0  0  0  0  0  0
    7.2626   14.6187   24.9188 C   0  0  0  0  0  0  0  0  0  0  0  0
    7.4139   14.1311   23.4898 C   0  0  0  0  0  0  0  0  0  0  0  0
    8.8346   13.6799   23.1664 C   0  0  0  0  0  0  0  0  0  0  0  0
    9.6112   14.4392   22.5994 O   0  0  0  0  0  0  0  0  0  0  0  0
    9.2052   12.3980   23.5407 N   0  0  0  0  0  0  0  0  0  0  0  0
   10.4786   11.8801   23.0700 C   0  0  0  0  0  0  0  0  0  0  0  0
    1.8290   10.2657   29.6802 C   0  0  0  0  0  0  0  0  0  0  0  0
    1.9191   10.2756   31.0236 F   0  0  0  0  0  0  0  0  0  0  0  0
    1.5403    9.0070   29.2854 F   0  0  0  0  0  0  0  0  0  0  0  0
    0.7769   11.0398   29.3262 F   0  0  0  0  0  0  0  0  0  0  0  0
  1  2  1  0
  2  3  1  0
  2  4  1  0
  5  4  1  1
  5  6  1  0
  6  7  1  0
  7  8  2  0
  7  9  1  0
  9 10  1  0
 10 11  2  0
 11 12  1  0
 12 13  2  0
 13 14  1  0
 14 15  2  0
 14 16  1  0
 16 17  1  0
 17 18  1  0
 18 19  1  0
 19 20  2  0
 19 21  1  0
 21 22  1  0
  5 23  1  0
 23 24  1  0
 23 25  1  0
 23 26  1  0
 15 10  1  0
 21 13  1  0
M  END
>  <energy_score>  (4828) 
-44.579249

>  <inchikey>  (4828) 
YPYBHFCFHLHCPV-UHFFFAOYSA-N

>  <smiles>  (4828) 
CN(C)CC(CC(=O)Nc1ccc2c(c1)CCCC(=O)N2C)C(F)(F)F

>  <ref_pdb>  (4828) 
A1068a

>  <alias>  (4828) 
YPYBHFCFHLHCPV-UHFFFAOYSA-N-P37-P37-P120-601513

>  <HIPPO Pose ID>  (4828) 
523308

>  <name>  (4828) 
YPYBHFCFHLHCPV-UHFFFAOYSA-N-P37-P37-P120-601513

>  <HIPPO Compound ID>  (4828) 
301814

>  <ref_mols>  (4828) 
A1445a,A0310a

>  <distance_score>  (4828) 
1.663086

>  <inspiration_score>  (4828) 
None

$$$$
YPYBHFCFHLHCPV-UHFFFAOYSA-N-P120-P37-P120-601513
     RDKit          3D

 26 27  0  0  0  0  0  0  0  0999 V2000
    4.7368    9.0944   31.3730 C   0  0  0  0  0  0  0  0  0  0  0  0
    3.9414   10.2613   31.7330 N   0  0  0  0  0  0  0  0  0  0  0  0
    4.5359   10.9219   32.9022 C   0  0  0  0  0  0  0  0  0  0  0  0
    3.7692   11.2376   30.6428 C   0  0  0  0  0  0  0  0  0  0  0  0
    2.8564   10.8505   29.4708 C   0  0  1  0  0  0  0  0  0  0  0  0
    3.5529   10.0220   28.3625 C   0  0  0  0  0  0  0  0  0  0  0  0
    4.3712   10.9676   27.5090 C   0  0  0  0  0  0  0  0  0  0  0  0
    4.2852   12.1242   27.6682 O   0  0  0  0  0  0  0  0  0  0  0  0
    5.2749   10.1467   26.5415 N   0  0  0  0  0  0  0  0  0  0  0  0
    6.1468   10.5684   25.5521 C   0  0  0  0  0  0  0  0  0  0  0  0
    7.1855    9.8499   24.9873 C   0  0  0  0  0  0  0  0  0  0  0  0
    8.2103   10.5403   24.3064 C   0  0  0  0  0  0  0  0  0  0  0  0
    8.1453   11.9374   24.1768 C   0  0  0  0  0  0  0  0  0  0  0  0
    6.9262   12.5451   24.4157 C   0  0  0  0  0  0  0  0  0  0  0  0
    5.9897   11.8881   25.1861 C   0  0  0  0  0  0  0  0  0  0  0  0
    6.5919   13.9160   23.9074 C   0  0  0  0  0  0  0  0  0  0  0  0
    7.0541   14.9810   24.8575 C   0  0  0  0  0  0  0  0  0  0  0  0
    8.3955   14.6456   25.4479 C   0  0  0  0  0  0  0  0  0  0  0  0
    9.4180   14.0597   24.4798 C   0  0  0  0  0  0  0  0  0  0  0  0
   10.4493   14.7112   24.2896 O   0  0  0  0  0  0  0  0  0  0  0  0
    9.2551   12.7838   23.9158 N   0  0  0  0  0  0  0  0  0  0  0  0
   10.4222   12.2841   23.2395 C   0  0  0  0  0  0  0  0  0  0  0  0
    1.5457   10.2356   29.8769 C   0  0  0  0  0  0  0  0  0  0  0  0
    1.0199   10.8076   30.9760 F   0  0  0  0  0  0  0  0  0  0  0  0
    1.6358    8.9058   30.0746 F   0  0  0  0  0  0  0  0  0  0  0  0
    0.6532   10.4205   28.8697 F   0  0  0  0  0  0  0  0  0  0  0  0
  1  2  1  0
  2  3  1  0
  2  4  1  0
  5  4  1  1
  5  6  1  0
  6  7  1  0
  7  8  2  0
  7  9  1  0
  9 10  1  0
 10 11  2  0
 11 12  1  0
 12 13  2  0
 13 14  1  0
 14 15  2  0
 14 16  1  0
 16 17  1  0
 17 18  1  0
 18 19  1  0
 19 20  2  0
 19 21  1  0
 21 22  1  0
  5 23  1  0
 23 24  1  0
 23 25  1  0
 23 26  1  0
 15 10  1  0
 21 13  1  0
M  END
>  <energy_score>  (4829) 
-35.763144

>  <inchikey>  (4829) 
YPYBHFCFHLHCPV-UHFFFAOYSA-N

>  <smiles>  (4829) 
CN(C)CC(CC(=O)Nc1ccc2c(c1)CCCC(=O)N2C)C(F)(F)F

>  <ref_pdb>  (4829) 
A1068a

>  <alias>  (4829) 
YPYBHFCFHLHCPV-UHFFFAOYSA-N-P120-P37-P120-601513

>  <HIPPO Pose ID>  (4829) 
523309

>  <name>  (4829) 
YPYBHFCFHLHCPV-UHFFFAOYSA-N-P120-P37-P120-601513

>  <HIPPO Compound ID>  (4829) 
301814

>  <ref_mols>  (4829) 
A1445a,A0310a

>  <distance_score>  (4829) 
1.62431

>  <inspiration_score>  (4829) 
None

$$$$
DOUVHQCBCHTYIS-UHFFFAOYSA-N-P120-P37-P120-601513
     RDKit          3D

 27 30  0  0  0  0  0  0  0  0999 V2000
    7.8919   15.0420   24.9374 C   0  0  0  0  0  0  0  0  0  0  0  0
    7.8656   13.5486   24.9127 C   0  0  0  0  0  0  0  0  0  0  0  0
    6.7755   12.9410   25.5853 C   0  0  0  0  0  0  0  0  0  0  0  0
    6.5501   11.5723   25.5548 C   0  0  0  0  0  0  0  0  0  0  0  0
    5.5297   11.0139   26.3373 N   0  0  0  0  0  0  0  0  0  0  0  0
    4.6038   11.6699   27.4240 C   0  0  0  0  0  0  0  0  0  0  0  0
    4.5084   12.7888   27.7659 O   0  0  0  0  0  0  0  0  0  0  0  0
    3.7563   10.5699   28.1103 C   0  0  1  0  0  0  0  0  0  0  0  0
    4.6173    9.4444   28.6747 C   0  0  2  0  0  0  0  0  0  0  0  0
    3.7610    8.2796   29.1875 C   0  0  0  0  0  0  0  0  0  0  0  0
    3.3287    8.7845   30.5619 C   0  0  0  0  0  0  0  0  0  0  0  0
    3.7875   10.2388   30.5026 C   0  0  1  0  0  0  0  0  0  0  0  0
    5.0927   10.0383   29.9084 O   0  0  0  0  0  0  0  0  0  0  0  0
    3.0929   11.0751   29.4251 C   0  0  2  0  0  0  0  0  0  0  0  0
    1.5955   10.9274   29.4568 C   0  0  0  0  0  0  0  0  0  0  0  0
    1.1258   11.1328   30.7068 F   0  0  0  0  0  0  0  0  0  0  0  0
    1.1880    9.6995   29.0656 F   0  0  0  0  0  0  0  0  0  0  0  0
    0.9984   11.8136   28.6358 F   0  0  0  0  0  0  0  0  0  0  0  0
    7.4033   10.7982   24.7778 C   0  0  0  0  0  0  0  0  0  0  0  0
    8.5162   11.3973   24.1275 C   0  0  0  0  0  0  0  0  0  0  0  0
    8.8161   12.7760   24.2363 C   0  0  0  0  0  0  0  0  0  0  0  0
    9.9866   13.3500   23.6275 N   0  0  0  0  0  0  0  0  0  0  0  0
   10.4878   12.8608   22.3847 C   0  0  0  0  0  0  0  0  0  0  0  0
   11.7790   13.5834   22.1521 C   0  0  0  0  0  0  0  0  0  0  0  0
   11.3738   14.9500   22.5947 C   0  0  0  0  0  0  0  0  0  0  0  0
   10.6627   14.5739   23.8737 C   0  0  0  0  0  0  0  0  0  0  0  0
   10.7512   15.2326   24.8951 O   0  0  0  0  0  0  0  0  0  0  0  0
  1  2  1  0
  2  3  2  0
  3  4  1  0
  4  5  1  0
  5  6  1  0
  6  7  2  0
  8  6  1  1
  8  9  1  0
  9 10  1  1
 10 11  1  0
 12 11  1  6
 12 13  1  0
 12 14  1  0
 14 15  1  6
 15 16  1  0
 15 17  1  0
 15 18  1  0
  4 19  2  0
 19 20  1  0
 20 21  2  0
 21 22  1  0
 22 23  1  0
 23 24  1  0
 24 25  1  0
 25 26  1  0
 26 27  2  0
 21  2  1  0
 26 22  1  0
 14  8  1  0
 13  9  1  0
M  END
>  <energy_score>  (4830) 
-13.51874

>  <inchikey>  (4830) 
DOUVHQCBCHTYIS-UHFFFAOYSA-N

>  <smiles>  (4830) 
Cc1cc(NC(=O)C2C3CCC(O3)C2C(F)(F)F)ccc1N1CCCC1=O

>  <ref_pdb>  (4830) 
A1068a

>  <alias>  (4830) 
DOUVHQCBCHTYIS-UHFFFAOYSA-N-P120-P37-P120-601513

>  <HIPPO Pose ID>  (4830) 
523317

>  <name>  (4830) 
DOUVHQCBCHTYIS-UHFFFAOYSA-N-P120-P37-P120-601513

>  <HIPPO Compound ID>  (4830) 
301818

>  <ref_mols>  (4830) 
A1445a,A0310a

>  <distance_score>  (4830) 
1.559882

>  <inspiration_score>  (4830) 
None

$$$$
HCSZTDKFCNQJJM-UHFFFAOYSA-N-P37-P37-P120-601513
     RDKit          3D

 27 29  0  0  0  0  0  0  0  0999 V2000
    7.6744   14.6168   24.4653 C   0  0  0  0  0  0  0  0  0  0  0  0
    7.7264   13.2231   24.9806 C   0  0  0  0  0  0  0  0  0  0  0  0
    6.6327   12.7882   25.7537 C   0  0  0  0  0  0  0  0  0  0  0  0
    6.5703   11.4843   26.2001 C   0  0  0  0  0  0  0  0  0  0  0  0
    5.5535   11.1129   27.0683 N   0  0  0  0  0  0  0  0  0  0  0  0
    5.5503   10.0915   28.2420 C   0  0  0  0  0  0  0  0  0  0  0  0
    6.4235    9.4658   28.7039 O   0  0  0  0  0  0  0  0  0  0  0  0
    4.1070    9.8877   28.7214 C   0  0  0  0  0  0  0  0  0  0  0  0
    3.2736   11.1254   29.0802 C   0  0  2  0  0  0  0  0  0  0  0  0
    4.0375   12.0352   30.0509 C   0  0  0  0  0  0  0  0  0  0  0  0
    4.5576   11.5007   31.4177 C   0  0  0  0  0  0  0  0  0  0  0  0
    4.3797   12.9352   31.9590 C   0  0  0  0  0  0  0  0  0  0  0  0
    3.3037   13.1370   30.8708 C   0  0  0  0  0  0  0  0  0  0  0  0
    1.9023   10.6974   29.5996 C   0  0  0  0  0  0  0  0  0  0  0  0
    1.9259   10.2309   30.8596 F   0  0  0  0  0  0  0  0  0  0  0  0
    1.3792    9.7267   28.8131 F   0  0  0  0  0  0  0  0  0  0  0  0
    1.0371   11.7338   29.5491 F   0  0  0  0  0  0  0  0  0  0  0  0
    7.5092   10.5783   25.7348 C   0  0  0  0  0  0  0  0  0  0  0  0
    8.5829   10.9982   24.9366 C   0  0  0  0  0  0  0  0  0  0  0  0
    8.7743   12.3534   24.6449 C   0  0  0  0  0  0  0  0  0  0  0  0
    9.9570   12.8104   23.9899 N   0  0  0  0  0  0  0  0  0  0  0  0
   10.7394   13.9033   24.3132 C   0  0  0  0  0  0  0  0  0  0  0  0
   10.6384   14.7047   25.2336 O   0  0  0  0  0  0  0  0  0  0  0  0
   11.9183   13.9576   23.3959 C   0  0  0  0  0  0  0  0  0  0  0  0
   11.5168   13.0306   22.2930 C   0  0  0  0  0  0  0  0  0  0  0  0
   10.4852   12.1401   22.9233 C   0  0  0  0  0  0  0  0  0  0  0  0
   10.1109   11.0575   22.5070 O   0  0  0  0  0  0  0  0  0  0  0  0
  1  2  1  0
  2  3  2  0
  3  4  1  0
  4  5  1  0
  5  6  1  0
  6  7  2  0
  6  8  1  0
  9  8  1  1
  9 10  1  0
 10 11  1  0
 11 12  1  0
 12 13  1  0
  9 14  1  0
 14 15  1  0
 14 16  1  0
 14 17  1  0
  4 18  2  0
 18 19  1  0
 19 20  2  0
 20 21  1  0
 21 22  1  0
 22 23  2  0
 22 24  1  0
 24 25  1  0
 25 26  1  0
 26 27  2  0
 20  2  1  0
 26 21  1  0
 13 10  1  0
M  END
>  <energy_score>  (4831) 
-14.355893

>  <inchikey>  (4831) 
HCSZTDKFCNQJJM-UHFFFAOYSA-N

>  <smiles>  (4831) 
Cc1cc(NC(=O)CC(C2CCC2)C(F)(F)F)ccc1N1C(=O)CCC1=O

>  <ref_pdb>  (4831) 
A1068a

>  <alias>  (4831) 
HCSZTDKFCNQJJM-UHFFFAOYSA-N-P37-P37-P120-601513

>  <HIPPO Pose ID>  (4831) 
523318

>  <name>  (4831) 
HCSZTDKFCNQJJM-UHFFFAOYSA-N-P37-P37-P120-601513

>  <HIPPO Compound ID>  (4831) 
301819

>  <ref_mols>  (4831) 
A1445a,A0310a

>  <distance_score>  (4831) 
1.475986

>  <inspiration_score>  (4831) 
None

$$$$
HCSZTDKFCNQJJM-UHFFFAOYSA-N-P120-P37-P120-601513
     RDKit          3D

 27 29  0  0  0  0  0  0  0  0999 V2000
    7.5725   15.1017   24.8769 C   0  0  0  0  0  0  0  0  0  0  0  0
    7.5175   13.6132   24.9966 C   0  0  0  0  0  0  0  0  0  0  0  0
    6.4169   13.0842   25.7117 C   0  0  0  0  0  0  0  0  0  0  0  0
    6.1740   11.7186   25.7920 C   0  0  0  0  0  0  0  0  0  0  0  0
    5.1219   11.2170   26.5413 N   0  0  0  0  0  0  0  0  0  0  0  0
    4.1254   11.9388   27.4915 C   0  0  0  0  0  0  0  0  0  0  0  0
    4.0885   13.0522   27.8462 O   0  0  0  0  0  0  0  0  0  0  0  0
    3.1517   10.8918   28.0069 C   0  0  0  0  0  0  0  0  0  0  0  0
    2.8345   11.1349   29.4913 C   0  0  2  0  0  0  0  0  0  0  0  0
    3.9164   10.5111   30.3720 C   0  0  0  0  0  0  0  0  0  0  0  0
    3.8897   10.8465   31.8924 C   0  0  0  0  0  0  0  0  0  0  0  0
    5.4292   10.7785   31.8603 C   0  0  0  0  0  0  0  0  0  0  0  0
    5.3357   11.1489   30.3677 C   0  0  0  0  0  0  0  0  0  0  0  0
    1.4822   10.5286   29.8034 C   0  0  0  0  0  0  0  0  0  0  0  0
    1.1640   10.6573   31.1067 F   0  0  0  0  0  0  0  0  0  0  0  0
    1.4394    9.2152   29.4897 F   0  0  0  0  0  0  0  0  0  0  0  0
    0.5185   11.1471   29.0846 F   0  0  0  0  0  0  0  0  0  0  0  0
    7.0152   10.8549   25.1285 C   0  0  0  0  0  0  0  0  0  0  0  0
    8.1350   11.3732   24.4652 C   0  0  0  0  0  0  0  0  0  0  0  0
    8.4604   12.7580   24.4203 C   0  0  0  0  0  0  0  0  0  0  0  0
    9.6364   13.2561   23.7540 N   0  0  0  0  0  0  0  0  0  0  0  0
   10.3072   14.4577   23.8635 C   0  0  0  0  0  0  0  0  0  0  0  0
   10.4377   15.2161   24.8114 O   0  0  0  0  0  0  0  0  0  0  0  0
   11.1253   14.6176   22.6258 C   0  0  0  0  0  0  0  0  0  0  0  0
   11.6465   13.2226   22.5574 C   0  0  0  0  0  0  0  0  0  0  0  0
   10.4596   12.4489   23.0428 C   0  0  0  0  0  0  0  0  0  0  0  0
   10.3028   11.2541   22.8861 O   0  0  0  0  0  0  0  0  0  0  0  0
  1  2  1  0
  2  3  2  0
  3  4  1  0
  4  5  1  0
  5  6  1  0
  6  7  2  0
  6  8  1  0
  9  8  1  6
  9 10  1  0
 10 11  1  0
 11 12  1  0
 12 13  1  0
  9 14  1  0
 14 15  1  0
 14 16  1  0
 14 17  1  0
  4 18  2  0
 18 19  1  0
 19 20  2  0
 20 21  1  0
 21 22  1  0
 22 23  2  0
 22 24  1  0
 24 25  1  0
 25 26  1  0
 26 27  2  0
 20  2  1  0
 26 21  1  0
 13 10  1  0
M  END
>  <energy_score>  (4832) 
-24.799275

>  <inchikey>  (4832) 
HCSZTDKFCNQJJM-UHFFFAOYSA-N

>  <smiles>  (4832) 
Cc1cc(NC(=O)CC(C2CCC2)C(F)(F)F)ccc1N1C(=O)CCC1=O

>  <ref_pdb>  (4832) 
A1068a

>  <alias>  (4832) 
HCSZTDKFCNQJJM-UHFFFAOYSA-N-P120-P37-P120-601513

>  <HIPPO Pose ID>  (4832) 
523319

>  <name>  (4832) 
HCSZTDKFCNQJJM-UHFFFAOYSA-N-P120-P37-P120-601513

>  <HIPPO Compound ID>  (4832) 
301819

>  <ref_mols>  (4832) 
A1445a,A0310a

>  <distance_score>  (4832) 
1.518746

>  <inspiration_score>  (4832) 
None

$$$$
VPQVEMKRFYLUKN-UHFFFAOYSA-N-P37-P37-P120-601513
     RDKit          3D

 27 29  0  0  0  0  0  0  0  0999 V2000
    8.8555   14.6110   25.6369 C   0  0  0  0  0  0  0  0  0  0  0  0
    8.3328   13.2226   25.4580 C   0  0  0  0  0  0  0  0  0  0  0  0
    7.2808   12.8816   26.3283 C   0  0  0  0  0  0  0  0  0  0  0  0
    6.6891   11.6364   26.2818 C   0  0  0  0  0  0  0  0  0  0  0  0
    5.4123   11.5503   26.8168 N   0  0  0  0  0  0  0  0  0  0  0  0
    4.8134   12.1698   28.1340 C   0  0  0  0  0  0  0  0  0  0  0  0
    5.3337   12.7748   28.9923 O   0  0  0  0  0  0  0  0  0  0  0  0
    3.2824   11.9236   28.0622 C   0  0  2  0  0  0  0  0  0  0  0  0
    2.7823   13.0494   27.0938 C   0  0  0  0  0  0  0  0  0  0  0  0
    2.3187   14.3441   27.7973 C   0  0  0  0  0  0  0  0  0  0  0  0
    2.8302   14.5129   29.2280 C   0  0  0  0  0  0  0  0  0  0  0  0
    2.6016   13.2722   30.1038 C   0  0  0  0  0  0  0  0  0  0  0  0
    2.3441   12.0237   29.2646 C   0  0  2  0  0  0  0  0  0  0  0  0
    2.1230   10.7645   30.0645 C   0  0  0  0  0  0  0  0  0  0  0  0
    3.1054   10.4937   30.9302 F   0  0  0  0  0  0  0  0  0  0  0  0
    1.9548    9.6949   29.2527 F   0  0  0  0  0  0  0  0  0  0  0  0
    0.9723   10.8976   30.7624 F   0  0  0  0  0  0  0  0  0  0  0  0
    7.2167   10.6822   25.4217 C   0  0  0  0  0  0  0  0  0  0  0  0
    8.3177   10.9921   24.5902 C   0  0  0  0  0  0  0  0  0  0  0  0
    8.8533   12.2895   24.5350 C   0  0  0  0  0  0  0  0  0  0  0  0
    9.9706   12.6425   23.7198 N   0  0  0  0  0  0  0  0  0  0  0  0
   10.9177   11.7974   23.2549 C   0  0  0  0  0  0  0  0  0  0  0  0
   10.8755   10.5788   23.2519 O   0  0  0  0  0  0  0  0  0  0  0  0
   12.1022   12.6340   22.8217 C   0  0  0  0  0  0  0  0  0  0  0  0
   11.5963   14.0337   22.7505 C   0  0  0  0  0  0  0  0  0  0  0  0
   10.1677   13.8310   23.0867 C   0  0  0  0  0  0  0  0  0  0  0  0
    9.3204   14.6319   22.7439 O   0  0  0  0  0  0  0  0  0  0  0  0
  1  2  1  0
  2  3  2  0
  3  4  1  0
  4  5  1  0
  5  6  1  0
  6  7  2  0
  8  6  1  1
  8  9  1  0
  9 10  1  0
 10 11  1  0
 11 12  1  0
 12 13  1  0
 13 14  1  1
 14 15  1  0
 14 16  1  0
 14 17  1  0
  4 18  2  0
 18 19  1  0
 19 20  2  0
 20 21  1  0
 21 22  1  0
 22 23  2  0
 22 24  1  0
 24 25  1  0
 25 26  1  0
 26 27  2  0
 20  2  1  0
 26 21  1  0
 13  8  1  0
M  END
>  <energy_score>  (4833) 
-1.678564

>  <inchikey>  (4833) 
VPQVEMKRFYLUKN-UHFFFAOYSA-N

>  <smiles>  (4833) 
Cc1cc(NC(=O)C2CCCCC2C(F)(F)F)ccc1N1C(=O)CCC1=O

>  <ref_pdb>  (4833) 
A1068a

>  <alias>  (4833) 
VPQVEMKRFYLUKN-UHFFFAOYSA-N-P37-P37-P120-601513

>  <HIPPO Pose ID>  (4833) 
523326

>  <name>  (4833) 
VPQVEMKRFYLUKN-UHFFFAOYSA-N-P37-P37-P120-601513

>  <HIPPO Compound ID>  (4833) 
301823

>  <ref_mols>  (4833) 
A1445a,A0310a

>  <distance_score>  (4833) 
1.662656

>  <inspiration_score>  (4833) 
None

$$$$
VPQVEMKRFYLUKN-UHFFFAOYSA-N-P120-P37-P120-601513
     RDKit          3D

 27 29  0  0  0  0  0  0  0  0999 V2000
    7.8624   15.1664   25.2897 C   0  0  0  0  0  0  0  0  0  0  0  0
    7.6508   13.6891   25.2607 C   0  0  0  0  0  0  0  0  0  0  0  0
    6.5336   13.2301   25.9955 C   0  0  0  0  0  0  0  0  0  0  0  0
    6.0461   11.9334   25.8836 C   0  0  0  0  0  0  0  0  0  0  0  0
    4.7800   11.7049   26.4052 N   0  0  0  0  0  0  0  0  0  0  0  0
    4.1089   12.2435   27.7075 C   0  0  0  0  0  0  0  0  0  0  0  0
    4.5495   12.8963   28.5722 O   0  0  0  0  0  0  0  0  0  0  0  0
    2.6060   11.8545   27.6595 C   0  0  2  0  0  0  0  0  0  0  0  0
    1.9425   12.9491   26.7746 C   0  0  0  0  0  0  0  0  0  0  0  0
    1.3468   14.1325   27.5676 C   0  0  0  0  0  0  0  0  0  0  0  0
    1.9915   14.3738   28.9364 C   0  0  0  0  0  0  0  0  0  0  0  0
    2.0460   13.1121   29.8164 C   0  0  0  0  0  0  0  0  0  0  0  0
    1.8288   11.8466   28.9894 C   0  0  2  0  0  0  0  0  0  0  0  0
    1.9305   10.5467   29.7396 C   0  0  0  0  0  0  0  0  0  0  0  0
    1.3905   10.6294   30.9720 F   0  0  0  0  0  0  0  0  0  0  0  0
    3.1767   10.0766   29.8483 F   0  0  0  0  0  0  0  0  0  0  0  0
    1.2102    9.6270   29.0526 F   0  0  0  0  0  0  0  0  0  0  0  0
    6.7276   11.0454   25.0828 C   0  0  0  0  0  0  0  0  0  0  0  0
    7.9225   11.4653   24.4553 C   0  0  0  0  0  0  0  0  0  0  0  0
    8.4406   12.7933   24.5341 C   0  0  0  0  0  0  0  0  0  0  0  0
    9.6395   13.2105   23.8414 N   0  0  0  0  0  0  0  0  0  0  0  0
   10.4279   12.3388   23.1596 C   0  0  0  0  0  0  0  0  0  0  0  0
   10.2650   11.1339   23.0826 O   0  0  0  0  0  0  0  0  0  0  0  0
   11.6236   13.0717   22.6195 C   0  0  0  0  0  0  0  0  0  0  0  0
   11.1561   14.4837   22.6475 C   0  0  0  0  0  0  0  0  0  0  0  0
   10.3707   14.3861   23.9082 C   0  0  0  0  0  0  0  0  0  0  0  0
   10.5725   15.1689   24.8240 O   0  0  0  0  0  0  0  0  0  0  0  0
  1  2  1  0
  2  3  2  0
  3  4  1  0
  4  5  1  0
  5  6  1  0
  6  7  2  0
  8  6  1  1
  8  9  1  0
  9 10  1  0
 10 11  1  0
 11 12  1  0
 12 13  1  0
 13 14  1  1
 14 15  1  0
 14 16  1  0
 14 17  1  0
  4 18  2  0
 18 19  1  0
 19 20  2  0
 20 21  1  0
 21 22  1  0
 22 23  2  0
 22 24  1  0
 24 25  1  0
 25 26  1  0
 26 27  2  0
 20  2  1  0
 26 21  1  0
 13  8  1  0
M  END
>  <energy_score>  (4834) 
-3.609103

>  <inchikey>  (4834) 
VPQVEMKRFYLUKN-UHFFFAOYSA-N

>  <smiles>  (4834) 
Cc1cc(NC(=O)C2CCCCC2C(F)(F)F)ccc1N1C(=O)CCC1=O

>  <ref_pdb>  (4834) 
A1068a

>  <alias>  (4834) 
VPQVEMKRFYLUKN-UHFFFAOYSA-N-P120-P37-P120-601513

>  <HIPPO Pose ID>  (4834) 
523327

>  <name>  (4834) 
VPQVEMKRFYLUKN-UHFFFAOYSA-N-P120-P37-P120-601513

>  <HIPPO Compound ID>  (4834) 
301823

>  <ref_mols>  (4834) 
A1445a,A0310a

>  <distance_score>  (4834) 
1.726528

>  <inspiration_score>  (4834) 
None

$$$$
POWLVKFCKVTVEY-UHFFFAOYSA-N-P37-P37-P120-601513
     RDKit          3D

 27 29  0  0  0  0  0  0  0  0999 V2000
    8.5264    9.6180   24.5400 C   0  0  0  0  0  0  0  0  0  0  0  0
    7.8107   10.8205   25.0563 C   0  0  0  0  0  0  0  0  0  0  0  0
    6.7903   10.6016   25.9985 C   0  0  0  0  0  0  0  0  0  0  0  0
    5.9813   11.6326   26.4599 C   0  0  0  0  0  0  0  0  0  0  0  0
    4.8815   11.3726   27.2511 N   0  0  0  0  0  0  0  0  0  0  0  0
    4.5327   10.1300   28.1166 C   0  0  0  0  0  0  0  0  0  0  0  0
    5.1577    9.1726   28.3522 O   0  0  0  0  0  0  0  0  0  0  0  0
    3.1046   10.3091   28.5677 C   0  0  0  0  0  0  0  0  0  0  0  0
    2.9750   10.7386   30.0142 C   0  0  1  0  0  0  0  0  0  0  0  0
    3.4540   12.1455   30.2262 C   0  0  0  0  0  0  0  0  0  0  0  0
    2.7443   13.3720   30.1745 C   0  0  0  0  0  0  0  0  0  0  0  0
    3.6932   14.3264   30.4293 C   0  0  0  0  0  0  0  0  0  0  0  0
    4.8951   13.7306   30.6077 O   0  0  0  0  0  0  0  0  0  0  0  0
    4.7524   12.3627   30.4780 N   0  0  0  0  0  0  0  0  0  0  0  0
    1.5102   10.5597   30.3629 C   0  0  0  0  0  0  0  0  0  0  0  0
    1.2504   10.8821   31.6434 F   0  0  0  0  0  0  0  0  0  0  0  0
    1.1197    9.2793   30.1738 F   0  0  0  0  0  0  0  0  0  0  0  0
    0.7244   11.3288   29.5690 F   0  0  0  0  0  0  0  0  0  0  0  0
    6.1635   12.9118   25.9846 C   0  0  0  0  0  0  0  0  0  0  0  0
    7.2067   13.1560   25.1060 C   0  0  0  0  0  0  0  0  0  0  0  0
    8.0731   12.1306   24.6563 C   0  0  0  0  0  0  0  0  0  0  0  0
    9.2037   12.5216   23.9034 N   0  0  0  0  0  0  0  0  0  0  0  0
    9.6769   13.8786   24.0009 C   0  0  0  0  0  0  0  0  0  0  0  0
   11.1481   13.7519   23.7671 C   0  0  0  0  0  0  0  0  0  0  0  0
   11.1724   12.7209   22.6752 C   0  0  0  0  0  0  0  0  0  0  0  0
   10.0702   11.7737   23.0788 C   0  0  0  0  0  0  0  0  0  0  0  0
    9.9977   10.6290   22.6673 O   0  0  0  0  0  0  0  0  0  0  0  0
  1  2  1  0
  2  3  2  0
  3  4  1  0
  4  5  1  0
  5  6  1  0
  6  7  2  0
  6  8  1  0
  9  8  1  6
  9 10  1  0
 10 11  1  0
 11 12  2  0
 12 13  1  0
 13 14  1  0
  9 15  1  0
 15 16  1  0
 15 17  1  0
 15 18  1  0
  4 19  2  0
 19 20  1  0
 20 21  2  0
 21 22  1  0
 22 23  1  0
 23 24  1  0
 24 25  1  0
 25 26  1  0
 26 27  2  0
 21  2  1  0
 26 22  1  0
 14 10  2  0
M  END
>  <energy_score>  (4835) 
-45.199981

>  <inchikey>  (4835) 
POWLVKFCKVTVEY-UHFFFAOYSA-N

>  <smiles>  (4835) 
Cc1cc(NC(=O)CC(c2ccon2)C(F)(F)F)ccc1N1CCCC1=O

>  <ref_pdb>  (4835) 
A1068a

>  <alias>  (4835) 
POWLVKFCKVTVEY-UHFFFAOYSA-N-P37-P37-P120-601513

>  <HIPPO Pose ID>  (4835) 
523330

>  <name>  (4835) 
POWLVKFCKVTVEY-UHFFFAOYSA-N-P37-P37-P120-601513

>  <HIPPO Compound ID>  (4835) 
301825

>  <ref_mols>  (4835) 
A1445a,A0310a

>  <distance_score>  (4835) 
1.801041

>  <inspiration_score>  (4835) 
None

$$$$
CWYAHPMEJYYTJC-UHFFFAOYSA-N-P37-P37-P120-601513
     RDKit          3D

 27 28  0  0  0  0  0  0  0  0999 V2000
    5.1450   14.0315   30.6815 C   0  0  0  0  0  0  0  0  0  0  0  0
    4.2879   13.3943   29.6694 N   0  0  0  0  0  0  0  0  0  0  0  0
    3.5338   14.4525   28.9843 C   0  0  0  0  0  0  0  0  0  0  0  0
    3.4084   12.3908   30.3022 C   0  0  0  0  0  0  0  0  0  0  0  0
    3.1313   11.0969   29.4826 C   0  0  1  0  0  0  0  0  0  0  0  0
    2.6986   11.4169   28.0588 C   0  0  0  0  0  0  0  0  0  0  0  0
    4.3132   10.0682   29.4683 C   0  0  0  0  0  0  0  0  0  0  0  0
    5.6399   10.6423   28.9637 C   0  0  0  0  0  0  0  0  0  0  0  0
    6.2969   11.3093   29.6677 O   0  0  0  0  0  0  0  0  0  0  0  0
    5.8253   10.2733   27.4552 N   0  0  0  0  0  0  0  0  0  0  0  0
    6.7642   10.7112   26.5288 C   0  0  0  0  0  0  0  0  0  0  0  0
    7.2072    9.9907   25.4272 C   0  0  0  0  0  0  0  0  0  0  0  0
    8.1783   10.4812   24.5429 C   0  0  0  0  0  0  0  0  0  0  0  0
    8.4917   11.8251   24.6092 C   0  0  0  0  0  0  0  0  0  0  0  0
    8.0275   12.5708   25.6994 C   0  0  0  0  0  0  0  0  0  0  0  0
    7.2277   11.9938   26.6825 C   0  0  0  0  0  0  0  0  0  0  0  0
    8.2763   14.0425   25.7968 C   0  0  0  0  0  0  0  0  0  0  0  0
    7.2603   14.7226   24.9072 C   0  0  0  0  0  0  0  0  0  0  0  0
    7.2673   14.1800   23.4884 C   0  0  0  0  0  0  0  0  0  0  0  0
    8.6142   13.6648   22.9797 C   0  0  0  0  0  0  0  0  0  0  0  0
    9.1743   14.2574   22.0573 O   0  0  0  0  0  0  0  0  0  0  0  0
    9.1149   12.4798   23.5235 N   0  0  0  0  0  0  0  0  0  0  0  0
   10.3425   11.9122   22.9897 C   0  0  0  0  0  0  0  0  0  0  0  0
    1.9137   10.4289   30.1315 C   0  0  0  0  0  0  0  0  0  0  0  0
    2.1014   10.1883   31.4425 F   0  0  0  0  0  0  0  0  0  0  0  0
    1.6267    9.2494   29.5334 F   0  0  0  0  0  0  0  0  0  0  0  0
    0.8148   11.2093   30.0098 F   0  0  0  0  0  0  0  0  0  0  0  0
  1  2  1  0
  2  3  1  0
  2  4  1  0
  4  5  1  0
  5  6  1  6
  5  7  1  0
  7  8  1  0
  8  9  2  0
  8 10  1  0
 10 11  1  0
 11 12  2  0
 12 13  1  0
 13 14  2  0
 14 15  1  0
 15 16  2  0
 15 17  1  0
 17 18  1  0
 18 19  1  0
 19 20  1  0
 20 21  2  0
 20 22  1  0
 22 23  1  0
  5 24  1  0
 24 25  1  0
 24 26  1  0
 24 27  1  0
 16 11  1  0
 22 14  1  0
M  END
>  <energy_score>  (4836) 
-43.154816

>  <inchikey>  (4836) 
CWYAHPMEJYYTJC-UHFFFAOYSA-N

>  <smiles>  (4836) 
CN(C)CC(C)(CC(=O)Nc1ccc2c(c1)CCCC(=O)N2C)C(F)(F)F

>  <ref_pdb>  (4836) 
A1068a

>  <alias>  (4836) 
CWYAHPMEJYYTJC-UHFFFAOYSA-N-P37-P37-P120-601513

>  <HIPPO Pose ID>  (4836) 
523340

>  <name>  (4836) 
CWYAHPMEJYYTJC-UHFFFAOYSA-N-P37-P37-P120-601513

>  <HIPPO Compound ID>  (4836) 
301830

>  <ref_mols>  (4836) 
A1445a,A0310a

>  <distance_score>  (4836) 
1.719251

>  <inspiration_score>  (4836) 
None

$$$$
CWYAHPMEJYYTJC-UHFFFAOYSA-N-P120-P37-P120-601513
     RDKit          3D

 27 28  0  0  0  0  0  0  0  0999 V2000
    5.7132   13.0309   29.9836 C   0  0  0  0  0  0  0  0  0  0  0  0
    4.5561   12.7993   29.1060 N   0  0  0  0  0  0  0  0  0  0  0  0
    4.0666   14.1063   28.6487 C   0  0  0  0  0  0  0  0  0  0  0  0
    3.5149   12.0281   29.8178 C   0  0  0  0  0  0  0  0  0  0  0  0
    2.7506   10.9722   28.9627 C   0  0  1  0  0  0  0  0  0  0  0  0
    2.1636   11.5981   27.6867 C   0  0  0  0  0  0  0  0  0  0  0  0
    3.5636    9.6840   28.6293 C   0  0  0  0  0  0  0  0  0  0  0  0
    4.9728    9.9478   28.1454 C   0  0  0  0  0  0  0  0  0  0  0  0
    5.8641   10.0104   28.9020 O   0  0  0  0  0  0  0  0  0  0  0  0
    4.9340   10.1981   26.6087 N   0  0  0  0  0  0  0  0  0  0  0  0
    5.9191   10.6489   25.7463 C   0  0  0  0  0  0  0  0  0  0  0  0
    7.0043    9.9276   25.2784 C   0  0  0  0  0  0  0  0  0  0  0  0
    8.0409   10.5600   24.5626 C   0  0  0  0  0  0  0  0  0  0  0  0
    7.9942   11.9412   24.3506 C   0  0  0  0  0  0  0  0  0  0  0  0
    6.7745   12.5759   24.5850 C   0  0  0  0  0  0  0  0  0  0  0  0
    5.7793   11.9523   25.3346 C   0  0  0  0  0  0  0  0  0  0  0  0
    6.4758   13.9328   24.0193 C   0  0  0  0  0  0  0  0  0  0  0  0
    7.0218   15.0250   24.8926 C   0  0  0  0  0  0  0  0  0  0  0  0
    8.3833   14.6877   25.4380 C   0  0  0  0  0  0  0  0  0  0  0  0
    9.3460   14.0442   24.4477 C   0  0  0  0  0  0  0  0  0  0  0  0
   10.3726   14.6687   24.1545 O   0  0  0  0  0  0  0  0  0  0  0  0
    9.1209   12.7358   23.9818 N   0  0  0  0  0  0  0  0  0  0  0  0
   10.2657   12.1488   23.3306 C   0  0  0  0  0  0  0  0  0  0  0  0
    1.5574   10.5179   29.8044 C   0  0  0  0  0  0  0  0  0  0  0  0
    1.9215   10.1025   31.0338 F   0  0  0  0  0  0  0  0  0  0  0  0
    0.9122    9.4916   29.2026 F   0  0  0  0  0  0  0  0  0  0  0  0
    0.6647   11.5191   29.9580 F   0  0  0  0  0  0  0  0  0  0  0  0
  1  2  1  0
  2  3  1  0
  2  4  1  0
  4  5  1  0
  5  6  1  6
  5  7  1  0
  7  8  1  0
  8  9  2  0
  8 10  1  0
 10 11  1  0
 11 12  2  0
 12 13  1  0
 13 14  2  0
 14 15  1  0
 15 16  2  0
 15 17  1  0
 17 18  1  0
 18 19  1  0
 19 20  1  0
 20 21  2  0
 20 22  1  0
 22 23  1  0
  5 24  1  0
 24 25  1  0
 24 26  1  0
 24 27  1  0
 16 11  1  0
 22 14  1  0
M  END
>  <energy_score>  (4837) 
-31.779724

>  <inchikey>  (4837) 
CWYAHPMEJYYTJC-UHFFFAOYSA-N

>  <smiles>  (4837) 
CN(C)CC(C)(CC(=O)Nc1ccc2c(c1)CCCC(=O)N2C)C(F)(F)F

>  <ref_pdb>  (4837) 
A1068a

>  <alias>  (4837) 
CWYAHPMEJYYTJC-UHFFFAOYSA-N-P120-P37-P120-601513

>  <HIPPO Pose ID>  (4837) 
523341

>  <name>  (4837) 
CWYAHPMEJYYTJC-UHFFFAOYSA-N-P120-P37-P120-601513

>  <HIPPO Compound ID>  (4837) 
301830

>  <ref_mols>  (4837) 
A1445a,A0310a

>  <distance_score>  (4837) 
1.66287

>  <inspiration_score>  (4837) 
None

$$$$
DWMXBYMYNVGNHH-UHFFFAOYSA-N-P37-P37-P120-601513
     RDKit          3D

 27 30  0  0  0  0  0  0  0  0999 V2000
    7.3354   14.1855   22.5891 C   0  0  0  0  0  0  0  0  0  0  0  0
    7.6880   13.3504   23.7679 C   0  0  0  0  0  0  0  0  0  0  0  0
    6.6745   13.2427   24.7449 C   0  0  0  0  0  0  0  0  0  0  0  0
    6.6458   12.2115   25.6728 C   0  0  0  0  0  0  0  0  0  0  0  0
    5.5831   12.2084   26.5697 N   0  0  0  0  0  0  0  0  0  0  0  0
    5.3053   11.2994   27.8097 C   0  0  0  0  0  0  0  0  0  0  0  0
    5.8896   10.3703   28.2139 O   0  0  0  0  0  0  0  0  0  0  0  0
    4.0686   11.9219   28.4918 C   0  0  2  0  0  0  0  0  0  0  0  0
    4.3808   13.3512   29.0302 C   0  0  2  0  0  0  0  0  0  0  0  0
    5.5934   13.3280   29.9813 C   0  0  0  0  0  0  0  0  0  0  0  0
    5.0491   12.5881   31.2091 C   0  0  0  0  0  0  0  0  0  0  0  0
    3.5822   12.3180   30.8247 C   0  0  1  0  0  0  0  0  0  0  0  0
    3.2421   13.5718   30.0211 C   0  0  0  0  0  0  0  0  0  0  0  0
    3.5497   11.1898   29.7619 C   0  0  1  0  0  0  0  0  0  0  0  0
    2.1412   10.6235   29.6023 C   0  0  0  0  0  0  0  0  0  0  0  0
    1.6600   10.1963   30.7914 F   0  0  0  0  0  0  0  0  0  0  0  0
    2.1149    9.5756   28.7537 F   0  0  0  0  0  0  0  0  0  0  0  0
    1.2729   11.5385   29.1200 F   0  0  0  0  0  0  0  0  0  0  0  0
    7.6247   11.2450   25.5906 C   0  0  0  0  0  0  0  0  0  0  0  0
    8.7086   11.4410   24.7079 C   0  0  0  0  0  0  0  0  0  0  0  0
    8.8360   12.5808   23.8741 C   0  0  0  0  0  0  0  0  0  0  0  0
   10.1086   12.9182   23.2913 N   0  0  0  0  0  0  0  0  0  0  0  0
   11.2702   12.2870   23.8168 C   0  0  0  0  0  0  0  0  0  0  0  0
   12.4425   13.1871   23.5417 C   0  0  0  0  0  0  0  0  0  0  0  0
   12.0402   13.8745   22.2759 C   0  0  0  0  0  0  0  0  0  0  0  0
   10.5457   13.9680   22.4584 C   0  0  0  0  0  0  0  0  0  0  0  0
    9.9274   14.8715   21.9320 O   0  0  0  0  0  0  0  0  0  0  0  0
  1  2  1  0
  2  3  2  0
  3  4  1  0
  4  5  1  0
  5  6  1  0
  6  7  2  0
  8  6  1  1
  8  9  1  0
  9 10  1  1
 10 11  1  0
 12 11  1  6
 12 13  1  0
 12 14  1  0
 14 15  1  6
 15 16  1  0
 15 17  1  0
 15 18  1  0
  4 19  2  0
 19 20  1  0
 20 21  2  0
 21 22  1  0
 22 23  1  0
 23 24  1  0
 24 25  1  0
 25 26  1  0
 26 27  2  0
 21  2  1  0
 26 22  1  0
 14  8  1  0
 13  9  1  0
M  END
>  <energy_score>  (4838) 
-31.53513

>  <inchikey>  (4838) 
DWMXBYMYNVGNHH-UHFFFAOYSA-N

>  <smiles>  (4838) 
Cc1cc(NC(=O)C2C3CCC(C3)C2C(F)(F)F)ccc1N1CCCC1=O

>  <ref_pdb>  (4838) 
A1068a

>  <alias>  (4838) 
DWMXBYMYNVGNHH-UHFFFAOYSA-N-P37-P37-P120-601513

>  <HIPPO Pose ID>  (4838) 
523344

>  <name>  (4838) 
DWMXBYMYNVGNHH-UHFFFAOYSA-N-P37-P37-P120-601513

>  <HIPPO Compound ID>  (4838) 
301832

>  <ref_mols>  (4838) 
A1445a,A0310a

>  <distance_score>  (4838) 
1.592534

>  <inspiration_score>  (4838) 
None

$$$$
DWMXBYMYNVGNHH-UHFFFAOYSA-N-P120-P37-P120-601513
     RDKit          3D

 27 30  0  0  0  0  0  0  0  0999 V2000
    8.3825   14.9870   25.4677 C   0  0  0  0  0  0  0  0  0  0  0  0
    7.9321   13.6125   25.1057 C   0  0  0  0  0  0  0  0  0  0  0  0
    6.8423   13.1116   25.8312 C   0  0  0  0  0  0  0  0  0  0  0  0
    6.3518   11.8229   25.6511 C   0  0  0  0  0  0  0  0  0  0  0  0
    5.1694   11.5631   26.3201 N   0  0  0  0  0  0  0  0  0  0  0  0
    4.7404   11.8946   27.7810 C   0  0  0  0  0  0  0  0  0  0  0  0
    5.3499   12.3673   28.6613 O   0  0  0  0  0  0  0  0  0  0  0  0
    3.2443   11.5910   27.9102 C   0  0  2  0  0  0  0  0  0  0  0  0
    2.4842   12.8063   27.2575 C   0  0  2  0  0  0  0  0  0  0  0  0
    3.0284   14.1674   27.7523 C   0  0  0  0  0  0  0  0  0  0  0  0
    2.6555   14.1582   29.2417 C   0  0  0  0  0  0  0  0  0  0  0  0
    1.8069   12.8797   29.3740 C   0  0  1  0  0  0  0  0  0  0  0  0
    1.1490   12.8132   27.9904 C   0  0  0  0  0  0  0  0  0  0  0  0
    2.7261   11.6331   29.3731 C   0  0  1  0  0  0  0  0  0  0  0  0
    1.9337   10.3964   29.7664 C   0  0  0  0  0  0  0  0  0  0  0  0
    1.5573   10.4665   31.0628 F   0  0  0  0  0  0  0  0  0  0  0  0
    2.6496    9.2665   29.6141 F   0  0  0  0  0  0  0  0  0  0  0  0
    0.8142   10.2517   29.0298 F   0  0  0  0  0  0  0  0  0  0  0  0
    6.9753   10.9853   24.7494 C   0  0  0  0  0  0  0  0  0  0  0  0
    8.1059   11.4635   24.0527 C   0  0  0  0  0  0  0  0  0  0  0  0
    8.5631   12.8025   24.1682 C   0  0  0  0  0  0  0  0  0  0  0  0
    9.6853   13.2530   23.4242 N   0  0  0  0  0  0  0  0  0  0  0  0
   10.7766   12.3758   23.2326 C   0  0  0  0  0  0  0  0  0  0  0  0
   11.9712   13.2791   23.1697 C   0  0  0  0  0  0  0  0  0  0  0  0
   11.4437   14.4266   22.3651 C   0  0  0  0  0  0  0  0  0  0  0  0
   10.0725   14.5322   22.9678 C   0  0  0  0  0  0  0  0  0  0  0  0
    9.4772   15.5895   22.9940 O   0  0  0  0  0  0  0  0  0  0  0  0
  1  2  1  0
  2  3  2  0
  3  4  1  0
  4  5  1  0
  5  6  1  0
  6  7  2  0
  8  6  1  1
  8  9  1  0
  9 10  1  1
 10 11  1  0
 12 11  1  6
 12 13  1  0
 12 14  1  0
 14 15  1  6
 15 16  1  0
 15 17  1  0
 15 18  1  0
  4 19  2  0
 19 20  1  0
 20 21  2  0
 21 22  1  0
 22 23  1  0
 23 24  1  0
 24 25  1  0
 25 26  1  0
 26 27  2  0
 21  2  1  0
 26 22  1  0
 14  8  1  0
 13  9  1  0
M  END
>  <energy_score>  (4839) 
-24.733843

>  <inchikey>  (4839) 
DWMXBYMYNVGNHH-UHFFFAOYSA-N

>  <smiles>  (4839) 
Cc1cc(NC(=O)C2C3CCC(C3)C2C(F)(F)F)ccc1N1CCCC1=O

>  <ref_pdb>  (4839) 
A1068a

>  <alias>  (4839) 
DWMXBYMYNVGNHH-UHFFFAOYSA-N-P120-P37-P120-601513

>  <HIPPO Pose ID>  (4839) 
523345

>  <name>  (4839) 
DWMXBYMYNVGNHH-UHFFFAOYSA-N-P120-P37-P120-601513

>  <HIPPO Compound ID>  (4839) 
301832

>  <ref_mols>  (4839) 
A1445a,A0310a

>  <distance_score>  (4839) 
1.527475

>  <inspiration_score>  (4839) 
None

$$$$
BIICXUPOIUOACI-UHFFFAOYSA-N-P37-P37-P120-601513
     RDKit          3D

 28 31  0  0  0  0  0  0  0  0999 V2000
    9.2705   10.4206   23.6591 C   0  0  0  0  0  0  0  0  0  0  0  0
    8.4090   11.2657   24.5344 C   0  0  0  0  0  0  0  0  0  0  0  0
    7.5081   10.6134   25.3942 C   0  0  0  0  0  0  0  0  0  0  0  0
    6.5935   11.3323   26.1603 C   0  0  0  0  0  0  0  0  0  0  0  0
    5.8635   10.6521   27.1315 N   0  0  0  0  0  0  0  0  0  0  0  0
    4.7025   11.1414   28.0541 C   0  0  0  0  0  0  0  0  0  0  0  0
    4.1368   12.1633   28.0808 O   0  0  0  0  0  0  0  0  0  0  0  0
    4.4619   10.0151   29.0806 C   0  0  1  0  0  0  0  0  0  0  0  0
    5.7223    9.9966   30.0274 C   0  0  2  0  0  0  0  0  0  0  0  0
    5.4890    9.0217   31.2017 C   0  0  0  0  0  0  0  0  0  0  0  0
    4.3879    9.5730   32.1235 C   0  0  0  0  0  0  0  0  0  0  0  0
    3.6262   10.7020   31.3881 C   0  0  1  0  0  0  0  0  0  0  0  0
    4.5929   11.8880   31.2450 C   0  0  0  0  0  0  0  0  0  0  0  0
    5.9203   11.4036   30.6430 C   0  0  0  0  0  0  0  0  0  0  0  0
    3.2171   10.1205   30.0072 C   0  0  1  0  0  0  0  0  0  0  0  0
    1.9075   10.6761   29.4848 C   0  0  0  0  0  0  0  0  0  0  0  0
    0.9457   10.4564   30.4204 F   0  0  0  0  0  0  0  0  0  0  0  0
    1.5265   10.0041   28.3737 F   0  0  0  0  0  0  0  0  0  0  0  0
    1.8909   11.9851   29.2199 F   0  0  0  0  0  0  0  0  0  0  0  0
    6.5358   12.7144   26.0252 C   0  0  0  0  0  0  0  0  0  0  0  0
    7.4618   13.3808   25.2112 C   0  0  0  0  0  0  0  0  0  0  0  0
    8.4404   12.6666   24.5086 C   0  0  0  0  0  0  0  0  0  0  0  0
    9.4130   13.3880   23.7817 N   0  0  0  0  0  0  0  0  0  0  0  0
   10.8127   13.4176   24.1397 C   0  0  0  0  0  0  0  0  0  0  0  0
   11.5587   13.4534   22.8239 C   0  0  0  0  0  0  0  0  0  0  0  0
   10.5742   14.1081   21.8772 C   0  0  0  0  0  0  0  0  0  0  0  0
    9.2339   13.6966   22.4346 C   0  0  0  0  0  0  0  0  0  0  0  0
    8.1854   13.6666   21.8075 O   0  0  0  0  0  0  0  0  0  0  0  0
  1  2  1  0
  2  3  2  0
  3  4  1  0
  4  5  1  0
  5  6  1  0
  6  7  2  0
  8  6  1  6
  8  9  1  0
  9 10  1  1
 10 11  1  0
 12 11  1  1
 12 13  1  0
 13 14  1  0
 12 15  1  0
 15 16  1  6
 16 17  1  0
 16 18  1  0
 16 19  1  0
  4 20  2  0
 20 21  1  0
 21 22  2  0
 22 23  1  0
 23 24  1  0
 24 25  1  0
 25 26  1  0
 26 27  1  0
 27 28  2  0
 22  2  1  0
 27 23  1  0
 15  8  1  0
 14  9  1  0
M  END
>  <energy_score>  (4840) 
-16.624263

>  <inchikey>  (4840) 
BIICXUPOIUOACI-UHFFFAOYSA-N

>  <smiles>  (4840) 
Cc1cc(NC(=O)C2C3CCC(CC3)C2C(F)(F)F)ccc1N1CCCC1=O

>  <ref_pdb>  (4840) 
A1068a

>  <alias>  (4840) 
BIICXUPOIUOACI-UHFFFAOYSA-N-P37-P37-P120-601513

>  <HIPPO Pose ID>  (4840) 
523346

>  <name>  (4840) 
BIICXUPOIUOACI-UHFFFAOYSA-N-P37-P37-P120-601513

>  <HIPPO Compound ID>  (4840) 
301833

>  <ref_mols>  (4840) 
A1445a,A0310a

>  <distance_score>  (4840) 
1.692876

>  <inspiration_score>  (4840) 
None

$$$$
UVNCFIJAHCWXRC-UHFFFAOYSA-N-P37-P37-P120-601513
     RDKit          3D

 28 30  0  0  0  0  0  0  0  0999 V2000
    8.4320   14.4631   25.2052 C   0  0  0  0  0  0  0  0  0  0  0  0
    8.2561   12.9903   25.0507 C   0  0  0  0  0  0  0  0  0  0  0  0
    7.3169   12.3957   25.9128 C   0  0  0  0  0  0  0  0  0  0  0  0
    7.0946   11.0276   25.9203 C   0  0  0  0  0  0  0  0  0  0  0  0
    6.1175   10.5358   26.7799 N   0  0  0  0  0  0  0  0  0  0  0  0
    5.5849   11.0985   28.1374 C   0  0  0  0  0  0  0  0  0  0  0  0
    5.9429   12.0154   28.7700 O   0  0  0  0  0  0  0  0  0  0  0  0
    4.3472   10.2826   28.5281 C   0  0  0  0  0  0  0  0  0  0  0  0
    3.4558   10.9715   29.6047 C   0  0  1  0  0  0  0  0  0  0  0  0
    3.2500   12.4793   29.4511 C   0  0  0  0  0  0  0  0  0  0  0  0
    2.9395   13.0689   28.2148 C   0  0  0  0  0  0  0  0  0  0  0  0
    2.7424   14.4472   28.1115 C   0  0  0  0  0  0  0  0  0  0  0  0
    2.8442   15.2545   29.2413 C   0  0  0  0  0  0  0  0  0  0  0  0
    3.1424   14.6850   30.4763 C   0  0  0  0  0  0  0  0  0  0  0  0
    3.3427   13.3074   30.5822 C   0  0  0  0  0  0  0  0  0  0  0  0
    2.0677   10.3232   29.6673 C   0  0  0  0  0  0  0  0  0  0  0  0
    1.3978   10.6877   30.7838 F   0  0  0  0  0  0  0  0  0  0  0  0
    2.1574    8.9747   29.6834 F   0  0  0  0  0  0  0  0  0  0  0  0
    1.3054   10.6511   28.5960 F   0  0  0  0  0  0  0  0  0  0  0  0
    7.8152   10.2375   25.0414 C   0  0  0  0  0  0  0  0  0  0  0  0
    8.7927   10.8141   24.2047 C   0  0  0  0  0  0  0  0  0  0  0  0
    9.0114   12.2023   24.1709 C   0  0  0  0  0  0  0  0  0  0  0  0
   10.0489   12.7558   23.3730 N   0  0  0  0  0  0  0  0  0  0  0  0
   11.2451   12.0555   23.0978 C   0  0  0  0  0  0  0  0  0  0  0  0
   12.2378   13.1297   22.7264 C   0  0  0  0  0  0  0  0  0  0  0  0
   11.4044   14.1350   21.9915 C   0  0  0  0  0  0  0  0  0  0  0  0
   10.0565   13.9267   22.6185 C   0  0  0  0  0  0  0  0  0  0  0  0
    9.1301   14.6804   22.4045 O   0  0  0  0  0  0  0  0  0  0  0  0
  1  2  1  0
  2  3  2  0
  3  4  1  0
  4  5  1  0
  5  6  1  0
  6  7  2  0
  6  8  1  0
  9  8  1  6
  9 10  1  0
 10 11  2  0
 11 12  1  0
 12 13  2  0
 13 14  1  0
 14 15  2  0
  9 16  1  0
 16 17  1  0
 16 18  1  0
 16 19  1  0
  4 20  2  0
 20 21  1  0
 21 22  2  0
 22 23  1  0
 23 24  1  0
 24 25  1  0
 25 26  1  0
 26 27  1  0
 27 28  2  0
 22  2  1  0
 27 23  1  0
 15 10  1  0
M  END
>  <energy_score>  (4841) 
-28.097709

>  <inchikey>  (4841) 
UVNCFIJAHCWXRC-UHFFFAOYSA-N

>  <smiles>  (4841) 
Cc1cc(NC(=O)CC(c2ccccc2)C(F)(F)F)ccc1N1CCCC1=O

>  <ref_pdb>  (4841) 
A1068a

>  <alias>  (4841) 
UVNCFIJAHCWXRC-UHFFFAOYSA-N-P37-P37-P120-601513

>  <HIPPO Pose ID>  (4841) 
523348

>  <name>  (4841) 
UVNCFIJAHCWXRC-UHFFFAOYSA-N-P37-P37-P120-601513

>  <HIPPO Compound ID>  (4841) 
301834

>  <ref_mols>  (4841) 
A1445a,A0310a

>  <distance_score>  (4841) 
1.524609

>  <inspiration_score>  (4841) 
None

$$$$
UVNCFIJAHCWXRC-UHFFFAOYSA-N-P120-P37-P120-601513
     RDKit          3D

 28 30  0  0  0  0  0  0  0  0999 V2000
    8.3531   14.8231   25.2463 C   0  0  0  0  0  0  0  0  0  0  0  0
    8.1208   13.3858   24.9155 C   0  0  0  0  0  0  0  0  0  0  0  0
    7.0695   12.7493   25.5987 C   0  0  0  0  0  0  0  0  0  0  0  0
    6.7916   11.3938   25.4516 C   0  0  0  0  0  0  0  0  0  0  0  0
    5.7501   10.8905   26.2301 N   0  0  0  0  0  0  0  0  0  0  0  0
    5.2136   11.3491   27.6242 C   0  0  0  0  0  0  0  0  0  0  0  0
    5.6155   12.1666   28.3594 O   0  0  0  0  0  0  0  0  0  0  0  0
    3.9065   10.5990   27.9028 C   0  0  0  0  0  0  0  0  0  0  0  0
    3.2631   11.0064   29.2596 C   0  0  1  0  0  0  0  0  0  0  0  0
    3.0484   12.5103   29.4524 C   0  0  0  0  0  0  0  0  0  0  0  0
    2.4680   13.3118   28.4553 C   0  0  0  0  0  0  0  0  0  0  0  0
    2.2633   14.6764   28.6687 C   0  0  0  0  0  0  0  0  0  0  0  0
    2.6302   15.2579   29.8797 C   0  0  0  0  0  0  0  0  0  0  0  0
    3.2015   14.4757   30.8801 C   0  0  0  0  0  0  0  0  0  0  0  0
    3.4080   13.1112   30.6701 C   0  0  0  0  0  0  0  0  0  0  0  0
    1.9164   10.3137   29.4729 C   0  0  0  0  0  0  0  0  0  0  0  0
    1.4583   10.4982   30.7337 F   0  0  0  0  0  0  0  0  0  0  0  0
    2.0047    8.9778   29.2837 F   0  0  0  0  0  0  0  0  0  0  0  0
    0.9690   10.7663   28.6190 F   0  0  0  0  0  0  0  0  0  0  0  0
    7.5658   10.6533   24.5722 C   0  0  0  0  0  0  0  0  0  0  0  0
    8.6432   11.2832   23.8924 C   0  0  0  0  0  0  0  0  0  0  0  0
    8.9159   12.6622   24.0245 C   0  0  0  0  0  0  0  0  0  0  0  0
    9.8437   13.2979   23.1432 N   0  0  0  0  0  0  0  0  0  0  0  0
    9.5250   14.5342   22.4742 C   0  0  0  0  0  0  0  0  0  0  0  0
   10.6137   14.6735   21.4478 C   0  0  0  0  0  0  0  0  0  0  0  0
   11.8229   14.1449   22.1821 C   0  0  0  0  0  0  0  0  0  0  0  0
   11.2388   13.3864   23.3519 C   0  0  0  0  0  0  0  0  0  0  0  0
   11.9043   13.0362   24.3112 O   0  0  0  0  0  0  0  0  0  0  0  0
  1  2  1  0
  2  3  2  0
  3  4  1  0
  4  5  1  0
  5  6  1  0
  6  7  2  0
  6  8  1  0
  9  8  1  6
  9 10  1  0
 10 11  2  0
 11 12  1  0
 12 13  2  0
 13 14  1  0
 14 15  2  0
  9 16  1  0
 16 17  1  0
 16 18  1  0
 16 19  1  0
  4 20  2  0
 20 21  1  0
 21 22  2  0
 22 23  1  0
 23 24  1  0
 24 25  1  0
 25 26  1  0
 26 27  1  0
 27 28  2  0
 22  2  1  0
 27 23  1  0
 15 10  1  0
M  END
>  <energy_score>  (4842) 
-15.533785

>  <inchikey>  (4842) 
UVNCFIJAHCWXRC-UHFFFAOYSA-N

>  <smiles>  (4842) 
Cc1cc(NC(=O)CC(c2ccccc2)C(F)(F)F)ccc1N1CCCC1=O

>  <ref_pdb>  (4842) 
A1068a

>  <alias>  (4842) 
UVNCFIJAHCWXRC-UHFFFAOYSA-N-P120-P37-P120-601513

>  <HIPPO Pose ID>  (4842) 
523349

>  <name>  (4842) 
UVNCFIJAHCWXRC-UHFFFAOYSA-N-P120-P37-P120-601513

>  <HIPPO Compound ID>  (4842) 
301834

>  <ref_mols>  (4842) 
A1445a,A0310a

>  <distance_score>  (4842) 
1.701472

>  <inspiration_score>  (4842) 
None

$$$$
SSCUSTRUHCVCGF-UHFFFAOYSA-N-P37-P37-P120-601513
     RDKit          3D

 28 31  0  0  0  0  0  0  0  0999 V2000
    7.8253   14.5052   24.6499 C   0  0  0  0  0  0  0  0  0  0  0  0
    7.9336   13.0542   24.9732 C   0  0  0  0  0  0  0  0  0  0  0  0
    6.9025   12.5201   25.7714 C   0  0  0  0  0  0  0  0  0  0  0  0
    6.7864   11.1570   25.9707 C   0  0  0  0  0  0  0  0  0  0  0  0
    5.8279   10.6397   26.8328 N   0  0  0  0  0  0  0  0  0  0  0  0
    4.8637   11.3619   27.8270 C   0  0  0  0  0  0  0  0  0  0  0  0
    4.6802   12.5029   28.0106 O   0  0  0  0  0  0  0  0  0  0  0  0
    4.1540   10.2868   28.6593 C   0  0  1  0  0  0  0  0  0  0  0  0
    5.1599    9.5347   29.5422 C   0  0  2  0  0  0  0  0  0  0  0  0
    4.5088    8.2957   30.1621 C   0  0  0  0  0  0  0  0  0  0  0  0
    3.6496    8.9015   31.2714 C   0  0  0  0  0  0  0  0  0  0  0  0
    3.8428   10.3964   31.0349 C   0  0  1  0  0  0  0  0  0  0  0  0
    5.2527   10.4038   30.6950 O   0  0  0  0  0  0  0  0  0  0  0  0
    3.2324   10.9143   29.7376 C   0  0  2  0  0  0  0  0  0  0  0  0
    1.7753   10.5901   29.5705 C   0  0  0  0  0  0  0  0  0  0  0  0
    1.0775   10.9405   30.6706 F   0  0  0  0  0  0  0  0  0  0  0  0
    1.5679    9.2744   29.3522 F   0  0  0  0  0  0  0  0  0  0  0  0
    1.2504   11.2465   28.5133 F   0  0  0  0  0  0  0  0  0  0  0  0
    7.6682   10.3211   25.3147 C   0  0  0  0  0  0  0  0  0  0  0  0
    8.7373   10.8489   24.5804 C   0  0  0  0  0  0  0  0  0  0  0  0
    8.9431   12.2324   24.4491 C   0  0  0  0  0  0  0  0  0  0  0  0
   10.0973   12.7663   23.7849 N   0  0  0  0  0  0  0  0  0  0  0  0
   10.7674   13.9399   24.0745 C   0  0  0  0  0  0  0  0  0  0  0  0
   10.7348   14.6505   25.0698 O   0  0  0  0  0  0  0  0  0  0  0  0
   11.7138   14.2293   22.9600 C   0  0  0  0  0  0  0  0  0  0  0  0
   12.0993   12.8355   22.5921 C   0  0  0  0  0  0  0  0  0  0  0  0
   10.8659   12.0336   22.9237 C   0  0  0  0  0  0  0  0  0  0  0  0
   10.6529   10.8872   22.5641 O   0  0  0  0  0  0  0  0  0  0  0  0
  1  2  1  0
  2  3  2  0
  3  4  1  0
  4  5  1  0
  5  6  1  0
  6  7  2  0
  8  6  1  1
  8  9  1  0
  9 10  1  1
 10 11  1  0
 12 11  1  6
 12 13  1  0
 12 14  1  0
 14 15  1  6
 15 16  1  0
 15 17  1  0
 15 18  1  0
  4 19  2  0
 19 20  1  0
 20 21  2  0
 21 22  1  0
 22 23  1  0
 23 24  2  0
 23 25  1  0
 25 26  1  0
 26 27  1  0
 27 28  2  0
 21  2  1  0
 27 22  1  0
 14  8  1  0
 13  9  1  0
M  END
>  <energy_score>  (4843) 
-38.659307

>  <inchikey>  (4843) 
SSCUSTRUHCVCGF-UHFFFAOYSA-N

>  <smiles>  (4843) 
Cc1cc(NC(=O)C2C3CCC(O3)C2C(F)(F)F)ccc1N1C(=O)CCC1=O

>  <ref_pdb>  (4843) 
A1068a

>  <alias>  (4843) 
SSCUSTRUHCVCGF-UHFFFAOYSA-N-P37-P37-P120-601513

>  <HIPPO Pose ID>  (4843) 
523360

>  <name>  (4843) 
SSCUSTRUHCVCGF-UHFFFAOYSA-N-P37-P37-P120-601513

>  <HIPPO Compound ID>  (4843) 
301840

>  <ref_mols>  (4843) 
A1445a,A0310a

>  <distance_score>  (4843) 
1.420608

>  <inspiration_score>  (4843) 
None

$$$$
SSCUSTRUHCVCGF-UHFFFAOYSA-N-P120-P37-P120-601513
     RDKit          3D

 28 31  0  0  0  0  0  0  0  0999 V2000
    7.9053   14.8221   24.3596 C   0  0  0  0  0  0  0  0  0  0  0  0
    7.8111   13.3340   24.4915 C   0  0  0  0  0  0  0  0  0  0  0  0
    6.7160   12.8100   25.2274 C   0  0  0  0  0  0  0  0  0  0  0  0
    6.5055   11.4404   25.3715 C   0  0  0  0  0  0  0  0  0  0  0  0
    5.4999   10.9395   26.2118 N   0  0  0  0  0  0  0  0  0  0  0  0
    4.6040   11.6691   27.2759 C   0  0  0  0  0  0  0  0  0  0  0  0
    4.5232   12.8076   27.5486 O   0  0  0  0  0  0  0  0  0  0  0  0
    3.7668   10.6071   28.0405 C   0  0  1  0  0  0  0  0  0  0  0  0
    4.6371    9.5031   28.6358 C   0  0  2  0  0  0  0  0  0  0  0  0
    3.7888    8.3632   29.2143 C   0  0  0  0  0  0  0  0  0  0  0  0
    3.3924    8.9251   30.5774 C   0  0  0  0  0  0  0  0  0  0  0  0
    3.8469   10.3763   30.4439 C   0  0  1  0  0  0  0  0  0  0  0  0
    5.1391   10.1494   29.8317 O   0  0  0  0  0  0  0  0  0  0  0  0
    3.1259   11.1636   29.3449 C   0  0  2  0  0  0  0  0  0  0  0  0
    1.6294   10.9974   29.4163 C   0  0  0  0  0  0  0  0  0  0  0  0
    1.1846   11.2313   30.6707 F   0  0  0  0  0  0  0  0  0  0  0  0
    1.2273    9.7540   29.0696 F   0  0  0  0  0  0  0  0  0  0  0  0
    1.0015   11.8522   28.5853 F   0  0  0  0  0  0  0  0  0  0  0  0
    7.3682   10.5726   24.7073 C   0  0  0  0  0  0  0  0  0  0  0  0
    8.4800   11.0807   24.0005 C   0  0  0  0  0  0  0  0  0  0  0  0
    8.7365   12.4643   23.9017 C   0  0  0  0  0  0  0  0  0  0  0  0
   10.0199   12.8585   23.3986 N   0  0  0  0  0  0  0  0  0  0  0  0
   10.2719   13.7539   22.3903 C   0  0  0  0  0  0  0  0  0  0  0  0
    9.4913   14.4368   21.7535 O   0  0  0  0  0  0  0  0  0  0  0  0
   11.7537   13.9708   22.2720 C   0  0  0  0  0  0  0  0  0  0  0  0
   12.2235   13.3972   23.5724 C   0  0  0  0  0  0  0  0  0  0  0  0
   10.9315   13.3340   24.2827 C   0  0  0  0  0  0  0  0  0  0  0  0
   10.7517   13.8405   25.3778 O   0  0  0  0  0  0  0  0  0  0  0  0
  1  2  1  0
  2  3  2  0
  3  4  1  0
  4  5  1  0
  5  6  1  0
  6  7  2  0
  8  6  1  1
  8  9  1  0
  9 10  1  1
 10 11  1  0
 12 11  1  6
 12 13  1  0
 12 14  1  0
 14 15  1  6
 15 16  1  0
 15 17  1  0
 15 18  1  0
  4 19  2  0
 19 20  1  0
 20 21  2  0
 21 22  1  0
 22 23  1  0
 23 24  2  0
 23 25  1  0
 25 26  1  0
 26 27  1  0
 27 28  2  0
 21  2  1  0
 27 22  1  0
 14  8  1  0
 13  9  1  0
M  END
>  <energy_score>  (4844) 
-11.910871

>  <inchikey>  (4844) 
SSCUSTRUHCVCGF-UHFFFAOYSA-N

>  <smiles>  (4844) 
Cc1cc(NC(=O)C2C3CCC(O3)C2C(F)(F)F)ccc1N1C(=O)CCC1=O

>  <ref_pdb>  (4844) 
A1068a

>  <alias>  (4844) 
SSCUSTRUHCVCGF-UHFFFAOYSA-N-P120-P37-P120-601513

>  <HIPPO Pose ID>  (4844) 
523361

>  <name>  (4844) 
SSCUSTRUHCVCGF-UHFFFAOYSA-N-P120-P37-P120-601513

>  <HIPPO Compound ID>  (4844) 
301840

>  <ref_mols>  (4844) 
A1445a,A0310a

>  <distance_score>  (4844) 
1.560234

>  <inspiration_score>  (4844) 
None

$$$$
OHBLLOIRDOXICK-UHFFFAOYSA-N-P37-P37-P120-601513
     RDKit          3D

 29 31  0  0  0  0  0  0  0  0999 V2000
    7.9842   14.5552   24.8443 C   0  0  0  0  0  0  0  0  0  0  0  0
    8.0764   13.0898   25.0794 C   0  0  0  0  0  0  0  0  0  0  0  0
    7.0687   12.5183   25.8646 C   0  0  0  0  0  0  0  0  0  0  0  0
    6.9402   11.1451   25.9993 C   0  0  0  0  0  0  0  0  0  0  0  0
    5.9948   10.6614   26.8996 N   0  0  0  0  0  0  0  0  0  0  0  0
    5.0588   11.4202   27.8884 C   0  0  0  0  0  0  0  0  0  0  0  0
    4.9964   12.5587   28.1496 O   0  0  0  0  0  0  0  0  0  0  0  0
    4.1488   10.4092   28.5948 C   0  0  0  0  0  0  0  0  0  0  0  0
    3.0283   11.1962   29.3330 C   0  0  2  0  0  0  0  0  0  0  0  0
    3.5257   11.8922   30.6018 C   0  0  0  0  0  0  0  0  0  0  0  0
    3.3930   13.2848   30.7333 C   0  0  0  0  0  0  0  0  0  0  0  0
    3.8403   13.9409   31.8828 C   0  0  0  0  0  0  0  0  0  0  0  0
    4.4197   13.2102   32.9152 C   0  0  0  0  0  0  0  0  0  0  0  0
    4.9741   14.0153   34.3308 Cl  0  0  0  0  0  0  0  0  0  0  0  0
    4.5542   11.8285   32.8084 C   0  0  0  0  0  0  0  0  0  0  0  0
    4.1102   11.1721   31.6573 C   0  0  0  0  0  0  0  0  0  0  0  0
    1.7781   10.3753   29.6224 C   0  0  0  0  0  0  0  0  0  0  0  0
    1.8977    9.5855   30.7065 F   0  0  0  0  0  0  0  0  0  0  0  0
    1.4628    9.5803   28.5734 F   0  0  0  0  0  0  0  0  0  0  0  0
    0.7162   11.1909   29.8173 F   0  0  0  0  0  0  0  0  0  0  0  0
    7.7749   10.3343   25.2497 C   0  0  0  0  0  0  0  0  0  0  0  0
    8.8238   10.9027   24.4985 C   0  0  0  0  0  0  0  0  0  0  0  0
    9.0507   12.2913   24.4837 C   0  0  0  0  0  0  0  0  0  0  0  0
   10.2002   12.8540   23.8601 N   0  0  0  0  0  0  0  0  0  0  0  0
   10.8800   12.1597   22.8194 C   0  0  0  0  0  0  0  0  0  0  0  0
   11.6936   13.2392   22.1444 C   0  0  0  0  0  0  0  0  0  0  0  0
   12.1458   14.0893   23.2971 C   0  0  0  0  0  0  0  0  0  0  0  0
   10.9846   13.9671   24.2497 C   0  0  0  0  0  0  0  0  0  0  0  0
   10.8794   14.7181   25.2079 O   0  0  0  0  0  0  0  0  0  0  0  0
  1  2  1  0
  2  3  2  0
  3  4  1  0
  4  5  1  0
  5  6  1  0
  6  7  2  0
  6  8  1  0
  9  8  1  1
  9 10  1  0
 10 11  2  0
 11 12  1  0
 12 13  2  0
 13 14  1  0
 13 15  1  0
 15 16  2  0
  9 17  1  0
 17 18  1  0
 17 19  1  0
 17 20  1  0
  4 21  2  0
 21 22  1  0
 22 23  2  0
 23 24  1  0
 24 25  1  0
 25 26  1  0
 26 27  1  0
 27 28  1  0
 28 29  2  0
 23  2  1  0
 28 24  1  0
 16 10  1  0
M  END
>  <energy_score>  (4845) 
-21.363157

>  <inchikey>  (4845) 
OHBLLOIRDOXICK-UHFFFAOYSA-N

>  <smiles>  (4845) 
Cc1cc(NC(=O)CC(c2ccc(Cl)cc2)C(F)(F)F)ccc1N1CCCC1=O

>  <ref_pdb>  (4845) 
A1068a

>  <alias>  (4845) 
OHBLLOIRDOXICK-UHFFFAOYSA-N-P37-P37-P120-601513

>  <HIPPO Pose ID>  (4845) 
523368

>  <name>  (4845) 
OHBLLOIRDOXICK-UHFFFAOYSA-N-P37-P37-P120-601513

>  <HIPPO Compound ID>  (4845) 
301844

>  <ref_mols>  (4845) 
A1445a,A0310a

>  <distance_score>  (4845) 
1.468155

>  <inspiration_score>  (4845) 
None

$$$$
OHBLLOIRDOXICK-UHFFFAOYSA-N-P120-P37-P120-601513
     RDKit          3D

 29 31  0  0  0  0  0  0  0  0999 V2000
    7.8621   14.8287   25.2864 C   0  0  0  0  0  0  0  0  0  0  0  0
    7.6819   13.3718   25.0144 C   0  0  0  0  0  0  0  0  0  0  0  0
    6.7043   12.7112   25.7939 C   0  0  0  0  0  0  0  0  0  0  0  0
    6.4827   11.3386   25.7211 C   0  0  0  0  0  0  0  0  0  0  0  0
    5.6453   10.7554   26.6703 N   0  0  0  0  0  0  0  0  0  0  0  0
    5.3213   11.1847   28.1334 C   0  0  0  0  0  0  0  0  0  0  0  0
    5.7675   12.0478   28.7869 O   0  0  0  0  0  0  0  0  0  0  0  0
    4.1784   10.3348   28.6865 C   0  0  0  0  0  0  0  0  0  0  0  0
    2.8619   11.1367   28.7064 C   0  0  2  0  0  0  0  0  0  0  0  0
    2.9725   12.5433   29.2962 C   0  0  0  0  0  0  0  0  0  0  0  0
    2.7108   13.6581   28.4803 C   0  0  0  0  0  0  0  0  0  0  0  0
    2.8133   14.9545   28.9904 C   0  0  0  0  0  0  0  0  0  0  0  0
    3.1776   15.1490   30.3196 C   0  0  0  0  0  0  0  0  0  0  0  0
    3.3114   16.7460   30.9457 Cl  0  0  0  0  0  0  0  0  0  0  0  0
    3.4383   14.0581   31.1440 C   0  0  0  0  0  0  0  0  0  0  0  0
    3.3379   12.7606   30.6352 C   0  0  0  0  0  0  0  0  0  0  0  0
    1.7382   10.3736   29.4050 C   0  0  0  0  0  0  0  0  0  0  0  0
    1.9537   10.1996   30.7265 F   0  0  0  0  0  0  0  0  0  0  0  0
    1.5699    9.1455   28.8629 F   0  0  0  0  0  0  0  0  0  0  0  0
    0.5618   11.0261   29.2572 F   0  0  0  0  0  0  0  0  0  0  0  0
    7.1953   10.6031   24.7946 C   0  0  0  0  0  0  0  0  0  0  0  0
    8.2061   11.2459   24.0452 C   0  0  0  0  0  0  0  0  0  0  0  0
    8.4805   12.6382   24.1373 C   0  0  0  0  0  0  0  0  0  0  0  0
    9.6050   13.1929   23.4458 N   0  0  0  0  0  0  0  0  0  0  0  0
   10.7474   12.3765   23.2368 C   0  0  0  0  0  0  0  0  0  0  0  0
   11.9063   13.3256   23.1697 C   0  0  0  0  0  0  0  0  0  0  0  0
   11.3136   14.4669   22.4082 C   0  0  0  0  0  0  0  0  0  0  0  0
    9.9478   14.5013   23.0356 C   0  0  0  0  0  0  0  0  0  0  0  0
    9.3314   15.5441   23.1023 O   0  0  0  0  0  0  0  0  0  0  0  0
  1  2  1  0
  2  3  2  0
  3  4  1  0
  4  5  1  0
  5  6  1  0
  6  7  2  0
  6  8  1  0
  9  8  1  1
  9 10  1  0
 10 11  2  0
 11 12  1  0
 12 13  2  0
 13 14  1  0
 13 15  1  0
 15 16  2  0
  9 17  1  0
 17 18  1  0
 17 19  1  0
 17 20  1  0
  4 21  2  0
 21 22  1  0
 22 23  2  0
 23 24  1  0
 24 25  1  0
 25 26  1  0
 26 27  1  0
 27 28  1  0
 28 29  2  0
 23  2  1  0
 28 24  1  0
 16 10  1  0
M  END
>  <energy_score>  (4846) 
-11.48448

>  <inchikey>  (4846) 
OHBLLOIRDOXICK-UHFFFAOYSA-N

>  <smiles>  (4846) 
Cc1cc(NC(=O)CC(c2ccc(Cl)cc2)C(F)(F)F)ccc1N1CCCC1=O

>  <ref_pdb>  (4846) 
A1068a

>  <alias>  (4846) 
OHBLLOIRDOXICK-UHFFFAOYSA-N-P120-P37-P120-601513

>  <HIPPO Pose ID>  (4846) 
523369

>  <name>  (4846) 
OHBLLOIRDOXICK-UHFFFAOYSA-N-P120-P37-P120-601513

>  <HIPPO Compound ID>  (4846) 
301844

>  <ref_mols>  (4846) 
A1445a,A0310a

>  <distance_score>  (4846) 
1.376856

>  <inspiration_score>  (4846) 
None

$$$$
DNQMWYNHRTYPKU-UHFFFAOYSA-N-P37-P37-P120-601513
     RDKit          3D

 29 31  0  0  0  0  0  0  0  0999 V2000
    4.2559   15.5803   30.7667 C   0  0  0  0  0  0  0  0  0  0  0  0
    4.4488   14.1166   30.7387 C   0  0  0  0  0  0  0  0  0  0  0  0
    5.2350   13.2480   31.4624 C   0  0  0  0  0  0  0  0  0  0  0  0
    4.9680   11.9521   30.9585 C   0  0  0  0  0  0  0  0  0  0  0  0
    4.0346   12.1068   29.9526 C   0  0  0  0  0  0  0  0  0  0  0  0
    3.3222   11.1685   29.0266 C   0  0  1  0  0  0  0  0  0  0  0  0
    3.1044   11.9070   27.7913 O   0  0  0  0  0  0  0  0  0  0  0  0
    4.1361    9.9216   28.6862 C   0  0  0  0  0  0  0  0  0  0  0  0
    5.5670   10.1031   28.1690 C   0  0  0  0  0  0  0  0  0  0  0  0
    6.4468    9.4865   28.6324 O   0  0  0  0  0  0  0  0  0  0  0  0
    5.5507   11.0857   26.9649 N   0  0  0  0  0  0  0  0  0  0  0  0
    6.5528   11.4239   26.0618 C   0  0  0  0  0  0  0  0  0  0  0  0
    7.4723   10.5087   25.5905 C   0  0  0  0  0  0  0  0  0  0  0  0
    8.4461   10.8777   24.6413 C   0  0  0  0  0  0  0  0  0  0  0  0
    8.5962   12.2007   24.1809 C   0  0  0  0  0  0  0  0  0  0  0  0
    9.7458   12.5601   23.3917 N   0  0  0  0  0  0  0  0  0  0  0  0
   10.8740   11.6974   23.2605 C   0  0  0  0  0  0  0  0  0  0  0  0
   12.0215   12.6370   23.5648 C   0  0  0  0  0  0  0  0  0  0  0  0
   11.6589   13.7940   22.6773 C   0  0  0  0  0  0  0  0  0  0  0  0
   10.1540   13.7723   22.7893 C   0  0  0  0  0  0  0  0  0  0  0  0
    9.5026   14.7034   22.3641 O   0  0  0  0  0  0  0  0  0  0  0  0
    7.6172   13.1005   24.6417 C   0  0  0  0  0  0  0  0  0  0  0  0
    7.5803   14.5425   24.2900 C   0  0  0  0  0  0  0  0  0  0  0  0
    6.5911   12.6960   25.5368 C   0  0  0  0  0  0  0  0  0  0  0  0
    1.9596   10.7373   29.6398 C   0  0  0  0  0  0  0  0  0  0  0  0
    2.0695   10.2909   30.9101 F   0  0  0  0  0  0  0  0  0  0  0  0
    1.3874    9.7423   28.9160 F   0  0  0  0  0  0  0  0  0  0  0  0
    1.0802   11.7678   29.6398 F   0  0  0  0  0  0  0  0  0  0  0  0
    3.7155   13.4297   29.8212 O   0  0  0  0  0  0  0  0  0  0  0  0
  1  2  1  0
  2  3  2  0
  3  4  1  0
  4  5  2  0
  5  6  1  0
  6  7  1  6
  6  8  1  0
  8  9  1  0
  9 10  2  0
  9 11  1  0
 11 12  1  0
 12 13  2  0
 13 14  1  0
 14 15  2  0
 15 16  1  0
 16 17  1  0
 17 18  1  0
 18 19  1  0
 19 20  1  0
 20 21  2  0
 15 22  1  0
 22 23  1  0
 22 24  2  0
  6 25  1  0
 25 26  1  0
 25 27  1  0
 25 28  1  0
  5 29  1  0
 29  2  1  0
 24 12  1  0
 20 16  1  0
M  END
>  <energy_score>  (4847) 
-26.782277

>  <inchikey>  (4847) 
DNQMWYNHRTYPKU-UHFFFAOYSA-N

>  <smiles>  (4847) 
Cc1ccc(C(O)(CC(=O)Nc2ccc(N3CCCC3=O)c(C)c2)C(F)(F)F)o1

>  <ref_pdb>  (4847) 
A1068a

>  <alias>  (4847) 
DNQMWYNHRTYPKU-UHFFFAOYSA-N-P37-P37-P120-601513

>  <HIPPO Pose ID>  (4847) 
523370

>  <name>  (4847) 
DNQMWYNHRTYPKU-UHFFFAOYSA-N-P37-P37-P120-601513

>  <HIPPO Compound ID>  (4847) 
301845

>  <ref_mols>  (4847) 
A1445a,A0310a

>  <distance_score>  (4847) 
1.433644

>  <inspiration_score>  (4847) 
None

$$$$
DNQMWYNHRTYPKU-UHFFFAOYSA-N-P120-P37-P120-601513
     RDKit          3D

 29 31  0  0  0  0  0  0  0  0999 V2000
    4.9322   12.5799   33.0966 C   0  0  0  0  0  0  0  0  0  0  0  0
    4.0667   12.8774   31.9394 C   0  0  0  0  0  0  0  0  0  0  0  0
    3.4045   14.0079   31.5166 C   0  0  0  0  0  0  0  0  0  0  0  0
    2.7353   13.6536   30.3211 C   0  0  0  0  0  0  0  0  0  0  0  0
    3.0251   12.3228   30.0849 C   0  0  0  0  0  0  0  0  0  0  0  0
    2.6313   11.3341   29.0175 C   0  0  1  0  0  0  0  0  0  0  0  0
    1.9030   12.0645   27.9843 O   0  0  0  0  0  0  0  0  0  0  0  0
    3.8315   10.6484   28.3351 C   0  0  0  0  0  0  0  0  0  0  0  0
    4.7499   11.6830   27.6776 C   0  0  0  0  0  0  0  0  0  0  0  0
    4.7939   12.7881   28.0592 O   0  0  0  0  0  0  0  0  0  0  0  0
    5.5593   10.9707   26.5487 N   0  0  0  0  0  0  0  0  0  0  0  0
    6.4802   11.4817   25.6369 C   0  0  0  0  0  0  0  0  0  0  0  0
    7.2686   10.6904   24.8267 C   0  0  0  0  0  0  0  0  0  0  0  0
    8.2917   11.3020   24.0711 C   0  0  0  0  0  0  0  0  0  0  0  0
    8.5364   12.7057   24.0782 C   0  0  0  0  0  0  0  0  0  0  0  0
    9.6770   13.2377   23.4027 N   0  0  0  0  0  0  0  0  0  0  0  0
   10.8082   12.4036   23.2330 C   0  0  0  0  0  0  0  0  0  0  0  0
   11.9748   13.3365   23.1579 C   0  0  0  0  0  0  0  0  0  0  0  0
   11.4133   14.4595   22.3489 C   0  0  0  0  0  0  0  0  0  0  0  0
   10.0347   14.5273   22.9437 C   0  0  0  0  0  0  0  0  0  0  0  0
    9.4260   15.5769   22.9479 O   0  0  0  0  0  0  0  0  0  0  0  0
    7.6837   13.4827   24.8541 C   0  0  0  0  0  0  0  0  0  0  0  0
    7.8199   14.9561   25.0411 C   0  0  0  0  0  0  0  0  0  0  0  0
    6.6658   12.8614   25.6021 C   0  0  0  0  0  0  0  0  0  0  0  0
    1.6627   10.3140   29.6505 C   0  0  0  0  0  0  0  0  0  0  0  0
    2.0725    9.8114   30.8314 F   0  0  0  0  0  0  0  0  0  0  0  0
    1.4126    9.2663   28.8314 F   0  0  0  0  0  0  0  0  0  0  0  0
    0.4653   10.9264   29.8617 F   0  0  0  0  0  0  0  0  0  0  0  0
    3.8456   11.8518   31.0725 O   0  0  0  0  0  0  0  0  0  0  0  0
  1  2  1  0
  2  3  2  0
  3  4  1  0
  4  5  2  0
  5  6  1  0
  6  7  1  6
  6  8  1  0
  8  9  1  0
  9 10  2  0
  9 11  1  0
 11 12  1  0
 12 13  2  0
 13 14  1  0
 14 15  2  0
 15 16  1  0
 16 17  1  0
 17 18  1  0
 18 19  1  0
 19 20  1  0
 20 21  2  0
 15 22  1  0
 22 23  1  0
 22 24  2  0
  6 25  1  0
 25 26  1  0
 25 27  1  0
 25 28  1  0
  5 29  1  0
 29  2  1  0
 24 12  1  0
 20 16  1  0
M  END
>  <energy_score>  (4848) 
-25.238828

>  <inchikey>  (4848) 
DNQMWYNHRTYPKU-UHFFFAOYSA-N

>  <smiles>  (4848) 
Cc1ccc(C(O)(CC(=O)Nc2ccc(N3CCCC3=O)c(C)c2)C(F)(F)F)o1

>  <ref_pdb>  (4848) 
A1068a

>  <alias>  (4848) 
DNQMWYNHRTYPKU-UHFFFAOYSA-N-P120-P37-P120-601513

>  <HIPPO Pose ID>  (4848) 
523371

>  <name>  (4848) 
DNQMWYNHRTYPKU-UHFFFAOYSA-N-P120-P37-P120-601513

>  <HIPPO Compound ID>  (4848) 
301845

>  <ref_mols>  (4848) 
A1445a,A0310a

>  <distance_score>  (4848) 
1.489866

>  <inspiration_score>  (4848) 
None

$$$$
FCXFXKJTQINMBT-UHFFFAOYSA-N-P37-P37-P120-601513
     RDKit          3D

 29 31  0  0  0  0  0  0  0  0999 V2000
    7.3411   12.0109   32.3126 C   0  0  0  0  0  0  0  0  0  0  0  0
    6.0076   12.0827   31.6646 C   0  0  0  0  0  0  0  0  0  0  0  0
    5.1635   13.1738   31.6366 C   0  0  0  0  0  0  0  0  0  0  0  0
    3.7324   12.7920   30.7843 S   0  0  0  0  0  0  0  0  0  0  0  0
    4.3345   11.2109   30.4821 C   0  0  0  0  0  0  0  0  0  0  0  0
    3.5818   10.1299   29.7162 C   0  0  2  0  0  0  0  0  0  0  0  0
    3.6802    8.9506   30.5959 O   0  0  0  0  0  0  0  0  0  0  0  0
    4.3367    9.6933   28.4320 C   0  0  0  0  0  0  0  0  0  0  0  0
    4.8687   10.8467   27.5942 C   0  0  0  0  0  0  0  0  0  0  0  0
    4.4778   11.9421   27.7223 O   0  0  0  0  0  0  0  0  0  0  0  0
    6.0191   10.2800   26.6983 N   0  0  0  0  0  0  0  0  0  0  0  0
    6.9425   10.9393   25.8863 C   0  0  0  0  0  0  0  0  0  0  0  0
    7.8549   10.2182   25.1307 C   0  0  0  0  0  0  0  0  0  0  0  0
    8.8816   10.8686   24.4285 C   0  0  0  0  0  0  0  0  0  0  0  0
    9.0416   12.2631   24.4790 C   0  0  0  0  0  0  0  0  0  0  0  0
   10.1738   12.8786   23.8628 N   0  0  0  0  0  0  0  0  0  0  0  0
   10.8818   12.2122   22.8180 C   0  0  0  0  0  0  0  0  0  0  0  0
   11.6700   13.3133   22.1524 C   0  0  0  0  0  0  0  0  0  0  0  0
   12.0970   14.1591   23.3187 C   0  0  0  0  0  0  0  0  0  0  0  0
   10.9364   13.9979   24.2711 C   0  0  0  0  0  0  0  0  0  0  0  0
   10.8178   14.7297   25.2425 O   0  0  0  0  0  0  0  0  0  0  0  0
    8.0295   12.9858   25.1244 C   0  0  0  0  0  0  0  0  0  0  0  0
    7.9208   14.4696   25.0264 C   0  0  0  0  0  0  0  0  0  0  0  0
    7.0109   12.3225   25.8456 C   0  0  0  0  0  0  0  0  0  0  0  0
    2.0861   10.4288   29.4774 C   0  0  0  0  0  0  0  0  0  0  0  0
    1.4311   10.6955   30.6354 F   0  0  0  0  0  0  0  0  0  0  0  0
    1.4649    9.3505   28.9272 F   0  0  0  0  0  0  0  0  0  0  0  0
    1.8506   11.4551   28.6333 F   0  0  0  0  0  0  0  0  0  0  0  0
    5.5222   10.9582   31.0155 N   0  0  0  0  0  0  0  0  0  0  0  0
  1  2  1  0
  2  3  2  0
  3  4  1  0
  4  5  1  0
  5  6  1  0
  6  7  1  1
  6  8  1  0
  8  9  1  0
  9 10  2  0
  9 11  1  0
 11 12  1  0
 12 13  2  0
 13 14  1  0
 14 15  2  0
 15 16  1  0
 16 17  1  0
 17 18  1  0
 18 19  1  0
 19 20  1  0
 20 21  2  0
 15 22  1  0
 22 23  1  0
 22 24  2  0
  6 25  1  0
 25 26  1  0
 25 27  1  0
 25 28  1  0
  5 29  2  0
 29  2  1  0
 24 12  1  0
 20 16  1  0
M  END
>  <energy_score>  (4849) 
-49.599336

>  <inchikey>  (4849) 
FCXFXKJTQINMBT-UHFFFAOYSA-N

>  <smiles>  (4849) 
Cc1csc(C(O)(CC(=O)Nc2ccc(N3CCCC3=O)c(C)c2)C(F)(F)F)n1

>  <ref_pdb>  (4849) 
A1068a

>  <alias>  (4849) 
FCXFXKJTQINMBT-UHFFFAOYSA-N-P37-P37-P120-601513

>  <HIPPO Pose ID>  (4849) 
523378

>  <name>  (4849) 
FCXFXKJTQINMBT-UHFFFAOYSA-N-P37-P37-P120-601513

>  <HIPPO Compound ID>  (4849) 
301849

>  <ref_mols>  (4849) 
A1445a,A0310a

>  <distance_score>  (4849) 
1.457857

>  <inspiration_score>  (4849) 
None

$$$$
FCXFXKJTQINMBT-UHFFFAOYSA-N-P120-P37-P120-601513
     RDKit          3D

 29 31  0  0  0  0  0  0  0  0999 V2000
    3.9080   14.6941   32.4606 C   0  0  0  0  0  0  0  0  0  0  0  0
    3.4242   14.0654   31.2056 C   0  0  0  0  0  0  0  0  0  0  0  0
    2.7216   14.6832   30.1901 C   0  0  0  0  0  0  0  0  0  0  0  0
    2.3712   13.5645   28.9437 S   0  0  0  0  0  0  0  0  0  0  0  0
    3.1967   12.3365   29.8285 C   0  0  0  0  0  0  0  0  0  0  0  0
    3.3128   10.8973   29.3420 C   0  0  2  0  0  0  0  0  0  0  0  0
    4.2602   10.2348   30.2390 O   0  0  0  0  0  0  0  0  0  0  0  0
    3.8518   10.6798   27.9080 C   0  0  0  0  0  0  0  0  0  0  0  0
    5.0678   11.5423   27.5618 C   0  0  0  0  0  0  0  0  0  0  0  0
    5.3206   12.5040   28.1779 O   0  0  0  0  0  0  0  0  0  0  0  0
    5.7363   10.9605   26.2753 N   0  0  0  0  0  0  0  0  0  0  0  0
    6.7489   11.4788   25.4689 C   0  0  0  0  0  0  0  0  0  0  0  0
    7.5595   10.7288   24.6359 C   0  0  0  0  0  0  0  0  0  0  0  0
    8.6589   11.3578   23.9908 C   0  0  0  0  0  0  0  0  0  0  0  0
    8.9507   12.7387   24.1333 C   0  0  0  0  0  0  0  0  0  0  0  0
   10.1012   13.3420   23.5224 N   0  0  0  0  0  0  0  0  0  0  0  0
   10.5518   12.9300   22.2352 C   0  0  0  0  0  0  0  0  0  0  0  0
   11.8139   13.6927   21.9852 C   0  0  0  0  0  0  0  0  0  0  0  0
   11.4140   15.0248   22.5229 C   0  0  0  0  0  0  0  0  0  0  0  0
   10.7529   14.5714   23.8029 C   0  0  0  0  0  0  0  0  0  0  0  0
   10.8393   15.1943   24.8473 O   0  0  0  0  0  0  0  0  0  0  0  0
    8.0145   13.4898   24.8450 C   0  0  0  0  0  0  0  0  0  0  0  0
    8.0062   14.9821   24.8997 C   0  0  0  0  0  0  0  0  0  0  0  0
    6.9665   12.8502   25.5343 C   0  0  0  0  0  0  0  0  0  0  0  0
    1.9047   10.2708   29.4923 C   0  0  0  0  0  0  0  0  0  0  0  0
    1.4392   10.3595   30.7623 F   0  0  0  0  0  0  0  0  0  0  0  0
    1.8852    8.9589   29.1573 F   0  0  0  0  0  0  0  0  0  0  0  0
    0.9917   10.8748   28.6899 F   0  0  0  0  0  0  0  0  0  0  0  0
    3.6793   12.7194   30.9992 N   0  0  0  0  0  0  0  0  0  0  0  0
  1  2  1  0
  2  3  2  0
  3  4  1  0
  4  5  1  0
  5  6  1  0
  6  7  1  1
  6  8  1  0
  8  9  1  0
  9 10  2  0
  9 11  1  0
 11 12  1  0
 12 13  2  0
 13 14  1  0
 14 15  2  0
 15 16  1  0
 16 17  1  0
 17 18  1  0
 18 19  1  0
 19 20  1  0
 20 21  2  0
 15 22  1  0
 22 23  1  0
 22 24  2  0
  6 25  1  0
 25 26  1  0
 25 27  1  0
 25 28  1  0
  5 29  2  0
 29  2  1  0
 24 12  1  0
 20 16  1  0
M  END
>  <energy_score>  (4850) 
-34.730342

>  <inchikey>  (4850) 
FCXFXKJTQINMBT-UHFFFAOYSA-N

>  <smiles>  (4850) 
Cc1csc(C(O)(CC(=O)Nc2ccc(N3CCCC3=O)c(C)c2)C(F)(F)F)n1

>  <ref_pdb>  (4850) 
A1068a

>  <alias>  (4850) 
FCXFXKJTQINMBT-UHFFFAOYSA-N-P120-P37-P120-601513

>  <HIPPO Pose ID>  (4850) 
523379

>  <name>  (4850) 
FCXFXKJTQINMBT-UHFFFAOYSA-N-P120-P37-P120-601513

>  <HIPPO Compound ID>  (4850) 
301849

>  <ref_mols>  (4850) 
A1445a,A0310a

>  <distance_score>  (4850) 
1.540864

>  <inspiration_score>  (4850) 
None

$$$$
LCTZQUCRLZLOMB-UHFFFAOYSA-N-P37-P37-P120-601513
     RDKit          3D

 29 31  0  0  0  0  0  0  0  0999 V2000
    5.2259    9.7468   33.6371 C   0  0  0  0  0  0  0  0  0  0  0  0
    4.8004   10.7040   32.6040 C   0  0  0  0  0  0  0  0  0  0  0  0
    4.7992   12.0734   32.4924 C   0  0  0  0  0  0  0  0  0  0  0  0
    4.2646   12.4428   31.2859 N   0  0  0  0  0  0  0  0  0  0  0  0
    3.9389   11.2982   30.7143 C   0  0  0  0  0  0  0  0  0  0  0  0
    3.3127   11.0562   29.3761 C   0  0  1  0  0  0  0  0  0  0  0  0
    2.9993   12.3519   28.7878 O   0  0  0  0  0  0  0  0  0  0  0  0
    4.2825   10.2834   28.4332 C   0  0  0  0  0  0  0  0  0  0  0  0
    5.3913   11.2062   27.9249 C   0  0  0  0  0  0  0  0  0  0  0  0
    5.5274   12.2769   28.3803 O   0  0  0  0  0  0  0  0  0  0  0  0
    6.1256   10.5131   26.7319 N   0  0  0  0  0  0  0  0  0  0  0  0
    7.0692   11.0143   25.8368 C   0  0  0  0  0  0  0  0  0  0  0  0
    7.8715   10.2243   25.0323 C   0  0  0  0  0  0  0  0  0  0  0  0
    8.8466   10.8161   24.2003 C   0  0  0  0  0  0  0  0  0  0  0  0
    9.0022   12.2124   24.1091 C   0  0  0  0  0  0  0  0  0  0  0  0
   10.0575   12.7794   23.3407 N   0  0  0  0  0  0  0  0  0  0  0  0
   11.2823   12.1024   23.1384 C   0  0  0  0  0  0  0  0  0  0  0  0
   12.2729   13.1874   22.8038 C   0  0  0  0  0  0  0  0  0  0  0  0
   11.4605   14.1571   22.0018 C   0  0  0  0  0  0  0  0  0  0  0  0
   10.0857   13.9432   22.5704 C   0  0  0  0  0  0  0  0  0  0  0  0
    9.1656   14.6871   22.3002 O   0  0  0  0  0  0  0  0  0  0  0  0
    8.1615   12.9948   24.9091 C   0  0  0  0  0  0  0  0  0  0  0  0
    8.2501   14.4783   25.0133 C   0  0  0  0  0  0  0  0  0  0  0  0
    7.2076   12.3904   25.7463 C   0  0  0  0  0  0  0  0  0  0  0  0
    1.9831   10.3079   29.5687 C   0  0  0  0  0  0  0  0  0  0  0  0
    1.2698   10.7506   30.6300 F   0  0  0  0  0  0  0  0  0  0  0  0
    2.1596    8.9766   29.7302 F   0  0  0  0  0  0  0  0  0  0  0  0
    1.1890   10.4545   28.4727 F   0  0  0  0  0  0  0  0  0  0  0  0
    4.2629   10.1908   31.4572 O   0  0  0  0  0  0  0  0  0  0  0  0
  1  2  1  0
  2  3  2  0
  3  4  1  0
  4  5  2  0
  5  6  1  0
  6  7  1  6
  6  8  1  0
  8  9  1  0
  9 10  2  0
  9 11  1  0
 11 12  1  0
 12 13  2  0
 13 14  1  0
 14 15  2  0
 15 16  1  0
 16 17  1  0
 17 18  1  0
 18 19  1  0
 19 20  1  0
 20 21  2  0
 15 22  1  0
 22 23  1  0
 22 24  2  0
  6 25  1  0
 25 26  1  0
 25 27  1  0
 25 28  1  0
  5 29  1  0
 29  2  1  0
 24 12  1  0
 20 16  1  0
M  END
>  <energy_score>  (4851) 
-55.479289

>  <inchikey>  (4851) 
LCTZQUCRLZLOMB-UHFFFAOYSA-N

>  <smiles>  (4851) 
Cc1cnc(C(O)(CC(=O)Nc2ccc(N3CCCC3=O)c(C)c2)C(F)(F)F)o1

>  <ref_pdb>  (4851) 
A1068a

>  <alias>  (4851) 
LCTZQUCRLZLOMB-UHFFFAOYSA-N-P37-P37-P120-601513

>  <HIPPO Pose ID>  (4851) 
523380

>  <name>  (4851) 
LCTZQUCRLZLOMB-UHFFFAOYSA-N-P37-P37-P120-601513

>  <HIPPO Compound ID>  (4851) 
301850

>  <ref_mols>  (4851) 
A1445a,A0310a

>  <distance_score>  (4851) 
1.482783

>  <inspiration_score>  (4851) 
None

$$$$
LCTZQUCRLZLOMB-UHFFFAOYSA-N-P120-P37-P120-601513
     RDKit          3D

 29 31  0  0  0  0  0  0  0  0999 V2000
    4.6909   13.3266   32.7951 C   0  0  0  0  0  0  0  0  0  0  0  0
    3.8386   13.2754   31.5975 C   0  0  0  0  0  0  0  0  0  0  0  0
    2.9983   14.1624   30.9668 C   0  0  0  0  0  0  0  0  0  0  0  0
    2.4387   13.5751   29.8610 N   0  0  0  0  0  0  0  0  0  0  0  0
    2.9715   12.3656   29.8485 C   0  0  0  0  0  0  0  0  0  0  0  0
    2.7073   11.2657   28.8597 C   0  0  1  0  0  0  0  0  0  0  0  0
    2.0811   11.8753   27.6842 O   0  0  0  0  0  0  0  0  0  0  0  0
    3.9603   10.5188   28.3630 C   0  0  0  0  0  0  0  0  0  0  0  0
    4.9588   11.5085   27.7589 C   0  0  0  0  0  0  0  0  0  0  0  0
    5.0986   12.5692   28.2320 O   0  0  0  0  0  0  0  0  0  0  0  0
    5.6653   10.8474   26.5369 N   0  0  0  0  0  0  0  0  0  0  0  0
    6.5810   11.3733   25.6299 C   0  0  0  0  0  0  0  0  0  0  0  0
    7.4293   10.6071   24.8554 C   0  0  0  0  0  0  0  0  0  0  0  0
    8.4735   11.2503   24.1506 C   0  0  0  0  0  0  0  0  0  0  0  0
    8.6627   12.6577   24.1661 C   0  0  0  0  0  0  0  0  0  0  0  0
    9.7864   13.2716   23.5316 N   0  0  0  0  0  0  0  0  0  0  0  0
   10.8647   12.4967   23.0321 C   0  0  0  0  0  0  0  0  0  0  0  0
   11.8925   13.4598   22.4808 C   0  0  0  0  0  0  0  0  0  0  0  0
   11.1767   14.7707   22.4356 C   0  0  0  0  0  0  0  0  0  0  0  0
   10.3261   14.5692   23.6468 C   0  0  0  0  0  0  0  0  0  0  0  0
   10.2981   15.3513   24.5778 O   0  0  0  0  0  0  0  0  0  0  0  0
    7.6583   13.4071   24.7733 C   0  0  0  0  0  0  0  0  0  0  0  0
    7.5341   14.8924   24.6703 C   0  0  0  0  0  0  0  0  0  0  0  0
    6.6772   12.7592   25.5450 C   0  0  0  0  0  0  0  0  0  0  0  0
    1.7018   10.3296   29.5432 C   0  0  0  0  0  0  0  0  0  0  0  0
    2.0965    9.9298   30.7739 F   0  0  0  0  0  0  0  0  0  0  0  0
    1.4775    9.2051   28.8225 F   0  0  0  0  0  0  0  0  0  0  0  0
    0.5005   10.9420   29.6881 F   0  0  0  0  0  0  0  0  0  0  0  0
    3.8245   12.1068   30.8883 O   0  0  0  0  0  0  0  0  0  0  0  0
  1  2  1  0
  2  3  2  0
  3  4  1  0
  4  5  2  0
  5  6  1  0
  6  7  1  6
  6  8  1  0
  8  9  1  0
  9 10  2  0
  9 11  1  0
 11 12  1  0
 12 13  2  0
 13 14  1  0
 14 15  2  0
 15 16  1  0
 16 17  1  0
 17 18  1  0
 18 19  1  0
 19 20  1  0
 20 21  2  0
 15 22  1  0
 22 23  1  0
 22 24  2  0
  6 25  1  0
 25 26  1  0
 25 27  1  0
 25 28  1  0
  5 29  1  0
 29  2  1  0
 24 12  1  0
 20 16  1  0
M  END
>  <energy_score>  (4852) 
-42.423736

>  <inchikey>  (4852) 
LCTZQUCRLZLOMB-UHFFFAOYSA-N

>  <smiles>  (4852) 
Cc1cnc(C(O)(CC(=O)Nc2ccc(N3CCCC3=O)c(C)c2)C(F)(F)F)o1

>  <ref_pdb>  (4852) 
A1068a

>  <alias>  (4852) 
LCTZQUCRLZLOMB-UHFFFAOYSA-N-P120-P37-P120-601513

>  <HIPPO Pose ID>  (4852) 
523381

>  <name>  (4852) 
LCTZQUCRLZLOMB-UHFFFAOYSA-N-P120-P37-P120-601513

>  <HIPPO Compound ID>  (4852) 
301850

>  <ref_mols>  (4852) 
A1445a,A0310a

>  <distance_score>  (4852) 
1.422532

>  <inspiration_score>  (4852) 
None

$$$$
RWRUCVBUNDSZTI-UHFFFAOYSA-N-P37-P37-P120-601513
     RDKit          3D

 29 32  0  0  0  0  0  0  0  0999 V2000
    8.8786   10.3829   24.1074 C   0  0  0  0  0  0  0  0  0  0  0  0
    8.3288   11.4962   24.9393 C   0  0  0  0  0  0  0  0  0  0  0  0
    7.3339   11.1878   25.8971 C   0  0  0  0  0  0  0  0  0  0  0  0
    6.7717   12.1959   26.6746 C   0  0  0  0  0  0  0  0  0  0  0  0
    5.8611   11.9470   27.7048 N   0  0  0  0  0  0  0  0  0  0  0  0
    5.5883   10.6497   28.5212 C   0  0  0  0  0  0  0  0  0  0  0  0
    6.0302    9.5730   28.4029 O   0  0  0  0  0  0  0  0  0  0  0  0
    4.6420   10.9640   29.7187 C   0  0  1  0  0  0  0  0  0  0  0  0
    5.3943   11.6750   30.8820 C   0  0  1  0  0  0  0  0  0  0  0  0
    5.6512   13.1682   30.5982 C   0  0  0  0  0  0  0  0  0  0  0  0
    4.3435   13.8633   30.1943 C   0  0  0  0  0  0  0  0  0  0  0  0
    3.1580   12.8982   30.3931 C   0  0  2  0  0  0  0  0  0  0  0  0
    3.2082   12.4442   31.8690 C   0  0  0  0  0  0  0  0  0  0  0  0
    4.4755   11.6139   32.1227 C   0  0  0  0  0  0  0  0  0  0  0  0
    3.3106   11.6932   29.4148 C   0  0  2  0  0  0  0  0  0  0  0  0
    2.0929   10.7609   29.4945 C   0  0  0  0  0  0  0  0  0  0  0  0
    1.9101   10.2376   30.7217 F   0  0  0  0  0  0  0  0  0  0  0  0
    2.1904    9.7345   28.6257 F   0  0  0  0  0  0  0  0  0  0  0  0
    0.9703   11.4421   29.1672 F   0  0  0  0  0  0  0  0  0  0  0  0
    7.1751   13.5157   26.4675 C   0  0  0  0  0  0  0  0  0  0  0  0
    8.2126   13.8245   25.5776 C   0  0  0  0  0  0  0  0  0  0  0  0
    8.8235   12.8194   24.8224 C   0  0  0  0  0  0  0  0  0  0  0  0
    9.8084   13.1412   23.8435 N   0  0  0  0  0  0  0  0  0  0  0  0
    9.3552   13.3155   22.5655 C   0  0  0  0  0  0  0  0  0  0  0  0
    8.2218   13.0669   22.1747 O   0  0  0  0  0  0  0  0  0  0  0  0
   10.3881   14.0387   21.7586 C   0  0  0  0  0  0  0  0  0  0  0  0
   11.6042   14.0070   22.6432 C   0  0  0  0  0  0  0  0  0  0  0  0
   10.9767   13.8608   23.9980 C   0  0  0  0  0  0  0  0  0  0  0  0
   11.4802   14.3497   24.9985 O   0  0  0  0  0  0  0  0  0  0  0  0
  1  2  1  0
  2  3  2  0
  3  4  1  0
  4  5  1  0
  5  6  1  0
  6  7  2  0
  8  6  1  6
  8  9  1  0
  9 10  1  6
 10 11  1  0
 12 11  1  1
 12 13  1  0
 13 14  1  0
 12 15  1  0
 15 16  1  1
 16 17  1  0
 16 18  1  0
 16 19  1  0
  4 20  2  0
 20 21  1  0
 21 22  2  0
 22 23  1  0
 23 24  1  0
 24 25  2  0
 24 26  1  0
 26 27  1  0
 27 28  1  0
 28 29  2  0
 22  2  1  0
 28 23  1  0
 15  8  1  0
 14  9  1  0
M  END
>  <energy_score>  (4853) 
-42.750834

>  <inchikey>  (4853) 
RWRUCVBUNDSZTI-UHFFFAOYSA-N

>  <smiles>  (4853) 
Cc1cc(NC(=O)C2C3CCC(CC3)C2C(F)(F)F)ccc1N1C(=O)CCC1=O

>  <ref_pdb>  (4853) 
A1068a

>  <alias>  (4853) 
RWRUCVBUNDSZTI-UHFFFAOYSA-N-P37-P37-P120-601513

>  <HIPPO Pose ID>  (4853) 
523392

>  <name>  (4853) 
RWRUCVBUNDSZTI-UHFFFAOYSA-N-P37-P37-P120-601513

>  <HIPPO Compound ID>  (4853) 
301856

>  <ref_mols>  (4853) 
A1445a,A0310a

>  <distance_score>  (4853) 
1.81593

>  <inspiration_score>  (4853) 
None

$$$$
RWRUCVBUNDSZTI-UHFFFAOYSA-N-P120-P37-P120-601513
     RDKit          3D

 29 32  0  0  0  0  0  0  0  0999 V2000
    8.3076   10.2648   23.8276 C   0  0  0  0  0  0  0  0  0  0  0  0
    7.8121   11.4790   24.5465 C   0  0  0  0  0  0  0  0  0  0  0  0
    6.7444   11.1237   25.3964 C   0  0  0  0  0  0  0  0  0  0  0  0
    6.0988   12.0524   26.1849 C   0  0  0  0  0  0  0  0  0  0  0  0
    5.2127   11.5367   27.1175 N   0  0  0  0  0  0  0  0  0  0  0  0
    4.4637   12.2303   28.2876 C   0  0  0  0  0  0  0  0  0  0  0  0
    4.4193   13.3554   28.5959 O   0  0  0  0  0  0  0  0  0  0  0  0
    3.8232   11.0807   29.0934 C   0  0  1  0  0  0  0  0  0  0  0  0
    4.9365   10.3359   29.8995 C   0  0  1  0  0  0  0  0  0  0  0  0
    5.6334   11.3179   30.8640 C   0  0  0  0  0  0  0  0  0  0  0  0
    4.5820   12.0169   31.7344 C   0  0  0  0  0  0  0  0  0  0  0  0
    3.2080   11.3478   31.5334 C   0  0  2  0  0  0  0  0  0  0  0  0
    3.3697    9.8457   31.8136 C   0  0  0  0  0  0  0  0  0  0  0  0
    4.2906    9.2281   30.7574 C   0  0  0  0  0  0  0  0  0  0  0  0
    2.7420   11.5814   30.0768 C   0  0  2  0  0  0  0  0  0  0  0  0
    1.4076   10.9155   29.7752 C   0  0  0  0  0  0  0  0  0  0  0  0
    0.5246   11.1528   30.7653 F   0  0  0  0  0  0  0  0  0  0  0  0
    1.5052    9.5758   29.6310 F   0  0  0  0  0  0  0  0  0  0  0  0
    0.8865   11.3964   28.6258 F   0  0  0  0  0  0  0  0  0  0  0  0
    6.4563   13.3828   26.0743 C   0  0  0  0  0  0  0  0  0  0  0  0
    7.5315   13.7626   25.2412 C   0  0  0  0  0  0  0  0  0  0  0  0
    8.2928   12.8252   24.5075 C   0  0  0  0  0  0  0  0  0  0  0  0
    9.4403   13.2980   23.7555 N   0  0  0  0  0  0  0  0  0  0  0  0
   10.4324   12.5034   23.2838 C   0  0  0  0  0  0  0  0  0  0  0  0
   10.5716   11.3176   23.5048 O   0  0  0  0  0  0  0  0  0  0  0  0
   11.5150   13.3187   22.6334 C   0  0  0  0  0  0  0  0  0  0  0  0
   10.8895   14.6714   22.5902 C   0  0  0  0  0  0  0  0  0  0  0  0
   10.0630   14.5223   23.8223 C   0  0  0  0  0  0  0  0  0  0  0  0
   10.2024   15.2736   24.7720 O   0  0  0  0  0  0  0  0  0  0  0  0
  1  2  1  0
  2  3  2  0
  3  4  1  0
  4  5  1  0
  5  6  1  0
  6  7  2  0
  8  6  1  1
  8  9  1  0
  9 10  1  1
 10 11  1  0
 12 11  1  6
 12 13  1  0
 13 14  1  0
 12 15  1  0
 15 16  1  6
 16 17  1  0
 16 18  1  0
 16 19  1  0
  4 20  2  0
 20 21  1  0
 21 22  2  0
 22 23  1  0
 23 24  1  0
 24 25  2  0
 24 26  1  0
 26 27  1  0
 27 28  1  0
 28 29  2  0
 22  2  1  0
 28 23  1  0
 15  8  1  0
 14  9  1  0
M  END
>  <energy_score>  (4854) 
-40.366451

>  <inchikey>  (4854) 
RWRUCVBUNDSZTI-UHFFFAOYSA-N

>  <smiles>  (4854) 
Cc1cc(NC(=O)C2C3CCC(CC3)C2C(F)(F)F)ccc1N1C(=O)CCC1=O

>  <ref_pdb>  (4854) 
A1068a

>  <alias>  (4854) 
RWRUCVBUNDSZTI-UHFFFAOYSA-N-P120-P37-P120-601513

>  <HIPPO Pose ID>  (4854) 
523393

>  <name>  (4854) 
RWRUCVBUNDSZTI-UHFFFAOYSA-N-P120-P37-P120-601513

>  <HIPPO Compound ID>  (4854) 
301856

>  <ref_mols>  (4854) 
A1445a,A0310a

>  <distance_score>  (4854) 
1.592028

>  <inspiration_score>  (4854) 
None

$$$$
LRLHWDJXBOPSGQ-UHFFFAOYSA-N-P37-P37-P120-601513
     RDKit          3D

 30 32  0  0  0  0  0  0  0  0999 V2000
    4.7673   15.2773   30.7795 C   0  0  0  0  0  0  0  0  0  0  0  0
    4.3218   14.1889   29.8945 C   0  0  0  0  0  0  0  0  0  0  0  0
    3.9658   14.0990   28.5703 C   0  0  0  0  0  0  0  0  0  0  0  0
    3.6286   12.8031   28.2632 N   0  0  0  0  0  0  0  0  0  0  0  0
    3.7533   12.1635   29.4140 C   0  0  0  0  0  0  0  0  0  0  0  0
    3.5096   10.7120   29.6898 C   0  0  2  0  0  0  0  0  0  0  0  0
    4.2281   10.3214   30.8839 O   0  0  0  0  0  0  0  0  0  0  0  0
    3.9692    9.8295   28.5302 C   0  0  0  0  0  0  0  0  0  0  0  0
    5.4270    9.9928   28.1065 C   0  0  0  0  0  0  0  0  0  0  0  0
    6.2589    9.2973   28.5433 O   0  0  0  0  0  0  0  0  0  0  0  0
    5.5064   11.0918   27.0079 N   0  0  0  0  0  0  0  0  0  0  0  0
    6.5619   11.4752   26.1911 C   0  0  0  0  0  0  0  0  0  0  0  0
    7.5019   10.5707   25.7229 C   0  0  0  0  0  0  0  0  0  0  0  0
    8.5852   10.9946   24.9365 C   0  0  0  0  0  0  0  0  0  0  0  0
    8.7860   12.3516   24.6571 C   0  0  0  0  0  0  0  0  0  0  0  0
    9.9699   12.8079   24.0012 N   0  0  0  0  0  0  0  0  0  0  0  0
   10.7520   13.9022   24.3212 C   0  0  0  0  0  0  0  0  0  0  0  0
   10.6534   14.7047   25.2412 O   0  0  0  0  0  0  0  0  0  0  0  0
   11.9263   13.9591   23.3983 C   0  0  0  0  0  0  0  0  0  0  0  0
   11.5174   13.0397   22.2921 C   0  0  0  0  0  0  0  0  0  0  0  0
   10.4855   12.1486   22.9208 C   0  0  0  0  0  0  0  0  0  0  0  0
   10.1015   11.0753   22.4896 O   0  0  0  0  0  0  0  0  0  0  0  0
    7.7433   13.2236   25.0025 C   0  0  0  0  0  0  0  0  0  0  0  0
    7.6945   14.6208   24.4963 C   0  0  0  0  0  0  0  0  0  0  0  0
    6.6434   12.7855   25.7657 C   0  0  0  0  0  0  0  0  0  0  0  0
    1.9832   10.5240   29.8604 C   0  0  0  0  0  0  0  0  0  0  0  0
    1.5072   11.1071   30.9831 F   0  0  0  0  0  0  0  0  0  0  0  0
    1.6459    9.2115   29.9169 F   0  0  0  0  0  0  0  0  0  0  0  0
    1.2887   11.0394   28.8121 F   0  0  0  0  0  0  0  0  0  0  0  0
    4.2021   12.9444   30.4449 O   0  0  0  0  0  0  0  0  0  0  0  0
  1  2  1  0
  2  3  2  0
  3  4  1  0
  4  5  2  0
  5  6  1  0
  6  7  1  1
  6  8  1  0
  8  9  1  0
  9 10  2  0
  9 11  1  0
 11 12  1  0
 12 13  2  0
 13 14  1  0
 14 15  2  0
 15 16  1  0
 16 17  1  0
 17 18  2  0
 17 19  1  0
 19 20  1  0
 20 21  1  0
 21 22  2  0
 15 23  1  0
 23 24  1  0
 23 25  2  0
  6 26  1  0
 26 27  1  0
 26 28  1  0
 26 29  1  0
  5 30  1  0
 30  2  1  0
 25 12  1  0
 21 16  1  0
M  END
>  <energy_score>  (4855) 
-36.679718

>  <inchikey>  (4855) 
LRLHWDJXBOPSGQ-UHFFFAOYSA-N

>  <smiles>  (4855) 
Cc1cnc(C(O)(CC(=O)Nc2ccc(N3C(=O)CCC3=O)c(C)c2)C(F)(F)F)o1

>  <ref_pdb>  (4855) 
A1068a

>  <alias>  (4855) 
LRLHWDJXBOPSGQ-UHFFFAOYSA-N-P37-P37-P120-601513

>  <HIPPO Pose ID>  (4855) 
523396

>  <name>  (4855) 
LRLHWDJXBOPSGQ-UHFFFAOYSA-N-P37-P37-P120-601513

>  <HIPPO Compound ID>  (4855) 
301858

>  <ref_mols>  (4855) 
A1445a,A0310a

>  <distance_score>  (4855) 
1.466041

>  <inspiration_score>  (4855) 
None

$$$$
LRLHWDJXBOPSGQ-UHFFFAOYSA-N-P120-P37-P120-601513
     RDKit          3D

 30 32  0  0  0  0  0  0  0  0999 V2000
    4.8292   13.4026   33.1901 C   0  0  0  0  0  0  0  0  0  0  0  0
    4.4800   13.1083   31.7914 C   0  0  0  0  0  0  0  0  0  0  0  0
    4.5572   13.7946   30.6039 C   0  0  0  0  0  0  0  0  0  0  0  0
    4.0733   13.0178   29.5812 N   0  0  0  0  0  0  0  0  0  0  0  0
    3.7129   11.8940   30.1780 C   0  0  0  0  0  0  0  0  0  0  0  0
    3.1148   10.6634   29.5679 C   0  0  2  0  0  0  0  0  0  0  0  0
    3.7887    9.4997   30.1132 O   0  0  0  0  0  0  0  0  0  0  0  0
    3.2369   10.7077   28.0372 C   0  0  0  0  0  0  0  0  0  0  0  0
    4.6903   10.6835   27.6068 C   0  0  0  0  0  0  0  0  0  0  0  0
    5.4393    9.9179   28.0746 O   0  0  0  0  0  0  0  0  0  0  0  0
    4.8872   11.7110   26.4614 N   0  0  0  0  0  0  0  0  0  0  0  0
    6.0234   12.0584   25.7515 C   0  0  0  0  0  0  0  0  0  0  0  0
    6.9748   11.1133   25.4235 C   0  0  0  0  0  0  0  0  0  0  0  0
    8.1141   11.5050   24.7095 C   0  0  0  0  0  0  0  0  0  0  0  0
    8.3937   12.8550   24.3914 C   0  0  0  0  0  0  0  0  0  0  0  0
    9.6074   13.2601   23.7480 N   0  0  0  0  0  0  0  0  0  0  0  0
   10.2893   14.4573   23.8166 C   0  0  0  0  0  0  0  0  0  0  0  0
   10.3557   15.2755   24.7194 O   0  0  0  0  0  0  0  0  0  0  0  0
   11.1768   14.5318   22.6222 C   0  0  0  0  0  0  0  0  0  0  0  0
   11.6469   13.1160   22.6303 C   0  0  0  0  0  0  0  0  0  0  0  0
   10.4209   12.3903   23.1009 C   0  0  0  0  0  0  0  0  0  0  0  0
   10.2139   11.1991   22.9632 O   0  0  0  0  0  0  0  0  0  0  0  0
    7.3709   13.7736   24.6580 C   0  0  0  0  0  0  0  0  0  0  0  0
    7.4295   15.2017   24.2213 C   0  0  0  0  0  0  0  0  0  0  0  0
    6.1956   13.3660   25.3277 C   0  0  0  0  0  0  0  0  0  0  0  0
    1.6164   10.6136   29.8989 C   0  0  0  0  0  0  0  0  0  0  0  0
    1.3565   10.6111   31.2237 F   0  0  0  0  0  0  0  0  0  0  0  0
    1.0487    9.4933   29.3764 F   0  0  0  0  0  0  0  0  0  0  0  0
    0.9480   11.6605   29.3522 F   0  0  0  0  0  0  0  0  0  0  0  0
    3.9429   11.8812   31.5287 O   0  0  0  0  0  0  0  0  0  0  0  0
  1  2  1  0
  2  3  2  0
  3  4  1  0
  4  5  2  0
  5  6  1  0
  6  7  1  1
  6  8  1  0
  8  9  1  0
  9 10  2  0
  9 11  1  0
 11 12  1  0
 12 13  2  0
 13 14  1  0
 14 15  2  0
 15 16  1  0
 16 17  1  0
 17 18  2  0
 17 19  1  0
 19 20  1  0
 20 21  1  0
 21 22  2  0
 15 23  1  0
 23 24  1  0
 23 25  2  0
  6 26  1  0
 26 27  1  0
 26 28  1  0
 26 29  1  0
  5 30  1  0
 30  2  1  0
 25 12  1  0
 21 16  1  0
M  END
>  <energy_score>  (4856) 
-36.113597

>  <inchikey>  (4856) 
LRLHWDJXBOPSGQ-UHFFFAOYSA-N

>  <smiles>  (4856) 
Cc1cnc(C(O)(CC(=O)Nc2ccc(N3C(=O)CCC3=O)c(C)c2)C(F)(F)F)o1

>  <ref_pdb>  (4856) 
A1068a

>  <alias>  (4856) 
LRLHWDJXBOPSGQ-UHFFFAOYSA-N-P120-P37-P120-601513

>  <HIPPO Pose ID>  (4856) 
523397

>  <name>  (4856) 
LRLHWDJXBOPSGQ-UHFFFAOYSA-N-P120-P37-P120-601513

>  <HIPPO Compound ID>  (4856) 
301858

>  <ref_mols>  (4856) 
A1445a,A0310a

>  <distance_score>  (4856) 
1.520942

>  <inspiration_score>  (4856) 
None

$$$$
XXPLDWIZENICAD-UHFFFAOYSA-N-P37-P37-P120-601513
     RDKit          3D

 30 32  0  0  0  0  0  0  0  0999 V2000
    3.0092   15.4983   31.8981 C   0  0  0  0  0  0  0  0  0  0  0  0
    2.8580   14.5383   30.7756 C   0  0  0  0  0  0  0  0  0  0  0  0
    2.4274   14.8260   29.4956 C   0  0  0  0  0  0  0  0  0  0  0  0
    2.4076   13.4057   28.5420 S   0  0  0  0  0  0  0  0  0  0  0  0
    2.9947   12.5043   29.8911 C   0  0  0  0  0  0  0  0  0  0  0  0
    3.2461   11.0038   29.8406 C   0  0  2  0  0  0  0  0  0  0  0  0
    3.9759   10.6607   31.0565 O   0  0  0  0  0  0  0  0  0  0  0  0
    4.0914   10.4729   28.6664 C   0  0  0  0  0  0  0  0  0  0  0  0
    5.2554   11.3697   28.2567 C   0  0  0  0  0  0  0  0  0  0  0  0
    5.4786   12.3892   28.7818 O   0  0  0  0  0  0  0  0  0  0  0  0
    5.9288   10.7031   27.0171 N   0  0  0  0  0  0  0  0  0  0  0  0
    6.9056   11.1829   26.1572 C   0  0  0  0  0  0  0  0  0  0  0  0
    7.6402   10.3559   25.3338 C   0  0  0  0  0  0  0  0  0  0  0  0
    8.7064   10.8805   24.5841 C   0  0  0  0  0  0  0  0  0  0  0  0
    9.0209   12.2550   24.5742 C   0  0  0  0  0  0  0  0  0  0  0  0
   10.1721   12.7725   23.8844 N   0  0  0  0  0  0  0  0  0  0  0  0
   10.7437   12.1171   22.8300 C   0  0  0  0  0  0  0  0  0  0  0  0
   10.4984   10.9803   22.4635 O   0  0  0  0  0  0  0  0  0  0  0  0
   11.6892   13.0749   22.1629 C   0  0  0  0  0  0  0  0  0  0  0  0
   12.1005   13.9834   23.2709 C   0  0  0  0  0  0  0  0  0  0  0  0
   10.9516   13.8711   24.2185 C   0  0  0  0  0  0  0  0  0  0  0  0
   10.8854   14.6441   25.1659 O   0  0  0  0  0  0  0  0  0  0  0  0
    8.1205   13.0867   25.2524 C   0  0  0  0  0  0  0  0  0  0  0  0
    8.0626   14.5619   25.0527 C   0  0  0  0  0  0  0  0  0  0  0  0
    7.1354   12.5466   26.0970 C   0  0  0  0  0  0  0  0  0  0  0  0
    1.8583   10.3198   29.8276 C   0  0  0  0  0  0  0  0  0  0  0  0
    1.1410   10.5938   30.9404 F   0  0  0  0  0  0  0  0  0  0  0  0
    1.9628    8.9738   29.7355 F   0  0  0  0  0  0  0  0  0  0  0  0
    1.1173   10.7114   28.7584 F   0  0  0  0  0  0  0  0  0  0  0  0
    3.1668   13.2060   30.9985 N   0  0  0  0  0  0  0  0  0  0  0  0
  1  2  1  0
  2  3  2  0
  3  4  1  0
  4  5  1  0
  5  6  1  0
  6  7  1  1
  6  8  1  0
  8  9  1  0
  9 10  2  0
  9 11  1  0
 11 12  1  0
 12 13  2  0
 13 14  1  0
 14 15  2  0
 15 16  1  0
 16 17  1  0
 17 18  2  0
 17 19  1  0
 19 20  1  0
 20 21  1  0
 21 22  2  0
 15 23  1  0
 23 24  1  0
 23 25  2  0
  6 26  1  0
 26 27  1  0
 26 28  1  0
 26 29  1  0
  5 30  2  0
 30  2  1  0
 25 12  1  0
 21 16  1  0
M  END
>  <energy_score>  (4857) 
-87.450893

>  <inchikey>  (4857) 
XXPLDWIZENICAD-UHFFFAOYSA-N

>  <smiles>  (4857) 
Cc1csc(C(O)(CC(=O)Nc2ccc(N3C(=O)CCC3=O)c(C)c2)C(F)(F)F)n1

>  <ref_pdb>  (4857) 
A1068a

>  <alias>  (4857) 
XXPLDWIZENICAD-UHFFFAOYSA-N-P37-P37-P120-601513

>  <HIPPO Pose ID>  (4857) 
523398

>  <name>  (4857) 
XXPLDWIZENICAD-UHFFFAOYSA-N-P37-P37-P120-601513

>  <HIPPO Compound ID>  (4857) 
301859

>  <ref_mols>  (4857) 
A1445a,A0310a

>  <distance_score>  (4857) 
1.452954

>  <inspiration_score>  (4857) 
None

$$$$
XXPLDWIZENICAD-UHFFFAOYSA-N-P120-P37-P120-601513
     RDKit          3D

 30 32  0  0  0  0  0  0  0  0999 V2000
    7.0730   10.6850   32.0915 C   0  0  0  0  0  0  0  0  0  0  0  0
    5.7996   11.2307   31.5548 C   0  0  0  0  0  0  0  0  0  0  0  0
    5.1555   12.3732   31.9848 C   0  0  0  0  0  0  0  0  0  0  0  0
    3.7012   12.5969   31.1134 S   0  0  0  0  0  0  0  0  0  0  0  0
    4.0273   11.1677   30.2132 C   0  0  0  0  0  0  0  0  0  0  0  0
    3.0690   10.6213   29.1759 C   0  0  2  0  0  0  0  0  0  0  0  0
    3.8151    9.6288   28.4182 O   0  0  0  0  0  0  0  0  0  0  0  0
    2.5479   11.6261   28.1525 C   0  0  0  0  0  0  0  0  0  0  0  0
    3.6246   12.5033   27.5427 C   0  0  0  0  0  0  0  0  0  0  0  0
    3.5515   13.6880   27.7177 O   0  0  0  0  0  0  0  0  0  0  0  0
    4.5938   11.7161   26.8266 N   0  0  0  0  0  0  0  0  0  0  0  0
    5.6816   12.0959   26.0491 C   0  0  0  0  0  0  0  0  0  0  0  0
    6.5394   11.1305   25.5493 C   0  0  0  0  0  0  0  0  0  0  0  0
    7.6859   11.5181   24.8398 C   0  0  0  0  0  0  0  0  0  0  0  0
    8.0056   12.8736   24.6017 C   0  0  0  0  0  0  0  0  0  0  0  0
    9.2241   13.2486   23.9543 N   0  0  0  0  0  0  0  0  0  0  0  0
   10.1037   12.3964   23.3446 C   0  0  0  0  0  0  0  0  0  0  0  0
   10.0285   11.1815   23.2565 O   0  0  0  0  0  0  0  0  0  0  0  0
   11.2820   13.1870   22.8381 C   0  0  0  0  0  0  0  0  0  0  0  0
   10.7881   14.5998   22.9441 C   0  0  0  0  0  0  0  0  0  0  0  0
    9.8822   14.4426   24.1172 C   0  0  0  0  0  0  0  0  0  0  0  0
    9.8869   15.1948   25.0791 O   0  0  0  0  0  0  0  0  0  0  0  0
    7.0442   13.8304   24.9890 C   0  0  0  0  0  0  0  0  0  0  0  0
    7.0698   15.2840   24.5968 C   0  0  0  0  0  0  0  0  0  0  0  0
    5.9292   13.4318   25.7555 C   0  0  0  0  0  0  0  0  0  0  0  0
    1.8590    9.9777   29.8789 C   0  0  0  0  0  0  0  0  0  0  0  0
    2.2278    9.0956   30.8355 F   0  0  0  0  0  0  0  0  0  0  0  0
    1.0882    9.3003   28.9912 F   0  0  0  0  0  0  0  0  0  0  0  0
    1.0578   10.9007   30.4604 F   0  0  0  0  0  0  0  0  0  0  0  0
    5.1530   10.5503   30.5350 N   0  0  0  0  0  0  0  0  0  0  0  0
  1  2  1  0
  2  3  2  0
  3  4  1  0
  4  5  1  0
  5  6  1  0
  6  7  1  6
  6  8  1  0
  8  9  1  0
  9 10  2  0
  9 11  1  0
 11 12  1  0
 12 13  2  0
 13 14  1  0
 14 15  2  0
 15 16  1  0
 16 17  1  0
 17 18  2  0
 17 19  1  0
 19 20  1  0
 20 21  1  0
 21 22  2  0
 15 23  1  0
 23 24  1  0
 23 25  2  0
  6 26  1  0
 26 27  1  0
 26 28  1  0
 26 29  1  0
  5 30  2  0
 30  2  1  0
 25 12  1  0
 21 16  1  0
M  END
>  <energy_score>  (4858) 
-89.399364

>  <inchikey>  (4858) 
XXPLDWIZENICAD-UHFFFAOYSA-N

>  <smiles>  (4858) 
Cc1csc(C(O)(CC(=O)Nc2ccc(N3C(=O)CCC3=O)c(C)c2)C(F)(F)F)n1

>  <ref_pdb>  (4858) 
A1068a

>  <alias>  (4858) 
XXPLDWIZENICAD-UHFFFAOYSA-N-P120-P37-P120-601513

>  <HIPPO Pose ID>  (4858) 
523399

>  <name>  (4858) 
XXPLDWIZENICAD-UHFFFAOYSA-N-P120-P37-P120-601513

>  <HIPPO Compound ID>  (4858) 
301859

>  <ref_mols>  (4858) 
A1445a,A0310a

>  <distance_score>  (4858) 
1.904979

>  <inspiration_score>  (4858) 
None

$$$$
RIRDFNLMPIXOPJ-UHFFFAOYSA-N-P37-P37-P120-601513
     RDKit          3D

 30 32  0  0  0  0  0  0  0  0999 V2000
    3.3929   14.7559   26.9435 C   0  0  0  0  0  0  0  0  0  0  0  0
    3.7519   14.0125   28.1696 C   0  0  0  0  0  0  0  0  0  0  0  0
    4.3106   14.3890   29.3708 C   0  0  0  0  0  0  0  0  0  0  0  0
    4.3664   13.2224   30.1701 C   0  0  0  0  0  0  0  0  0  0  0  0
    3.8402   12.1977   29.4093 C   0  0  0  0  0  0  0  0  0  0  0  0
    3.5755   10.7427   29.6601 C   0  0  2  0  0  0  0  0  0  0  0  0
    4.3099   10.3805   30.8517 O   0  0  0  0  0  0  0  0  0  0  0  0
    4.0311    9.8525   28.5026 C   0  0  0  0  0  0  0  0  0  0  0  0
    5.4829   10.0341   28.0632 C   0  0  0  0  0  0  0  0  0  0  0  0
    6.3415    9.4047   28.5474 O   0  0  0  0  0  0  0  0  0  0  0  0
    5.5186   11.0488   26.8839 N   0  0  0  0  0  0  0  0  0  0  0  0
    6.5571   11.4082   26.0350 C   0  0  0  0  0  0  0  0  0  0  0  0
    7.5110   10.5152   25.6000 C   0  0  0  0  0  0  0  0  0  0  0  0
    8.5334   10.9165   24.7178 C   0  0  0  0  0  0  0  0  0  0  0  0
    8.6857   12.2454   24.2725 C   0  0  0  0  0  0  0  0  0  0  0  0
    9.8980   12.6695   23.6059 N   0  0  0  0  0  0  0  0  0  0  0  0
   10.9406   11.8483   23.3097 C   0  0  0  0  0  0  0  0  0  0  0  0
   10.9436   10.6283   23.2871 O   0  0  0  0  0  0  0  0  0  0  0  0
   12.1580   12.6805   22.9878 C   0  0  0  0  0  0  0  0  0  0  0  0
   11.6943   14.0830   23.1528 C   0  0  0  0  0  0  0  0  0  0  0  0
   10.2286   13.8673   23.0368 C   0  0  0  0  0  0  0  0  0  0  0  0
    9.5431   14.6572   22.4173 O   0  0  0  0  0  0  0  0  0  0  0  0
    7.6620   13.1217   24.6917 C   0  0  0  0  0  0  0  0  0  0  0  0
    7.6062   14.5709   24.3646 C   0  0  0  0  0  0  0  0  0  0  0  0
    6.5992   12.6854   25.5247 C   0  0  0  0  0  0  0  0  0  0  0  0
    2.0414   10.5288   29.8534 C   0  0  0  0  0  0  0  0  0  0  0  0
    1.5719   11.1112   30.9797 F   0  0  0  0  0  0  0  0  0  0  0  0
    1.7302    9.2111   29.9220 F   0  0  0  0  0  0  0  0  0  0  0  0
    1.3275   11.0284   28.8102 F   0  0  0  0  0  0  0  0  0  0  0  0
    3.4816   12.6775   28.1782 O   0  0  0  0  0  0  0  0  0  0  0  0
  1  2  1  0
  2  3  2  0
  3  4  1  0
  4  5  2  0
  5  6  1  0
  6  7  1  1
  6  8  1  0
  8  9  1  0
  9 10  2  0
  9 11  1  0
 11 12  1  0
 12 13  2  0
 13 14  1  0
 14 15  2  0
 15 16  1  0
 16 17  1  0
 17 18  2  0
 17 19  1  0
 19 20  1  0
 20 21  1  0
 21 22  2  0
 15 23  1  0
 23 24  1  0
 23 25  2  0
  6 26  1  0
 26 27  1  0
 26 28  1  0
 26 29  1  0
  5 30  1  0
 30  2  1  0
 25 12  1  0
 21 16  1  0
M  END
>  <energy_score>  (4859) 
-19.304376

>  <inchikey>  (4859) 
RIRDFNLMPIXOPJ-UHFFFAOYSA-N

>  <smiles>  (4859) 
Cc1ccc(C(O)(CC(=O)Nc2ccc(N3C(=O)CCC3=O)c(C)c2)C(F)(F)F)o1

>  <ref_pdb>  (4859) 
A1068a

>  <alias>  (4859) 
RIRDFNLMPIXOPJ-UHFFFAOYSA-N-P37-P37-P120-601513

>  <HIPPO Pose ID>  (4859) 
523400

>  <name>  (4859) 
RIRDFNLMPIXOPJ-UHFFFAOYSA-N-P37-P37-P120-601513

>  <HIPPO Compound ID>  (4859) 
301860

>  <ref_mols>  (4859) 
A1445a,A0310a

>  <distance_score>  (4859) 
1.466807

>  <inspiration_score>  (4859) 
None

$$$$
RIRDFNLMPIXOPJ-UHFFFAOYSA-N-P120-P37-P120-601513
     RDKit          3D

 30 32  0  0  0  0  0  0  0  0999 V2000
    5.2706   15.0122   30.2906 C   0  0  0  0  0  0  0  0  0  0  0  0
    4.9938   13.5956   30.5988 C   0  0  0  0  0  0  0  0  0  0  0  0
    5.3149   12.7742   31.6564 C   0  0  0  0  0  0  0  0  0  0  0  0
    4.7495   11.5111   31.3643 C   0  0  0  0  0  0  0  0  0  0  0  0
    4.1134   11.6342   30.1441 C   0  0  0  0  0  0  0  0  0  0  0  0
    3.3384   10.6744   29.2868 C   0  0  2  0  0  0  0  0  0  0  0  0
    3.8483    9.3509   29.5907 O   0  0  0  0  0  0  0  0  0  0  0  0
    3.4840   11.0206   27.7857 C   0  0  0  0  0  0  0  0  0  0  0  0
    4.9013   10.7878   27.2787 C   0  0  0  0  0  0  0  0  0  0  0  0
    5.5475    9.9143   27.7038 O   0  0  0  0  0  0  0  0  0  0  0  0
    5.2132   11.8163   26.1626 N   0  0  0  0  0  0  0  0  0  0  0  0
    6.3782   12.0323   25.4331 C   0  0  0  0  0  0  0  0  0  0  0  0
    7.2635   11.0153   25.0958 C   0  0  0  0  0  0  0  0  0  0  0  0
    8.4521   11.3255   24.4062 C   0  0  0  0  0  0  0  0  0  0  0  0
    8.8332   12.6581   24.1607 C   0  0  0  0  0  0  0  0  0  0  0  0
   10.1336   12.9128   23.6238 N   0  0  0  0  0  0  0  0  0  0  0  0
   10.2592   13.4705   22.3838 C   0  0  0  0  0  0  0  0  0  0  0  0
    9.3514   13.8127   21.6488 O   0  0  0  0  0  0  0  0  0  0  0  0
   11.6769   13.8599   22.1192 C   0  0  0  0  0  0  0  0  0  0  0  0
   12.3070   13.5023   23.4216 C   0  0  0  0  0  0  0  0  0  0  0  0
   11.1118   13.6133   24.2842 C   0  0  0  0  0  0  0  0  0  0  0  0
   11.0829   14.3371   25.2659 O   0  0  0  0  0  0  0  0  0  0  0  0
    7.9021   13.6617   24.4503 C   0  0  0  0  0  0  0  0  0  0  0  0
    8.1071   15.0967   24.0944 C   0  0  0  0  0  0  0  0  0  0  0  0
    6.6665   13.3311   25.0416 C   0  0  0  0  0  0  0  0  0  0  0  0
    1.8321   10.7141   29.6456 C   0  0  0  0  0  0  0  0  0  0  0  0
    1.5994   10.5675   30.9705 F   0  0  0  0  0  0  0  0  0  0  0  0
    1.1588    9.7151   29.0133 F   0  0  0  0  0  0  0  0  0  0  0  0
    1.2457   11.8711   29.2529 F   0  0  0  0  0  0  0  0  0  0  0  0
    4.2653   12.9095   29.6763 O   0  0  0  0  0  0  0  0  0  0  0  0
  1  2  1  0
  2  3  2  0
  3  4  1  0
  4  5  2  0
  5  6  1  0
  6  7  1  6
  6  8  1  0
  8  9  1  0
  9 10  2  0
  9 11  1  0
 11 12  1  0
 12 13  2  0
 13 14  1  0
 14 15  2  0
 15 16  1  0
 16 17  1  0
 17 18  2  0
 17 19  1  0
 19 20  1  0
 20 21  1  0
 21 22  2  0
 15 23  1  0
 23 24  1  0
 23 25  2  0
  6 26  1  0
 26 27  1  0
 26 28  1  0
 26 29  1  0
  5 30  1  0
 30  2  1  0
 25 12  1  0
 21 16  1  0
M  END
>  <energy_score>  (4860) 
-12.411209

>  <inchikey>  (4860) 
RIRDFNLMPIXOPJ-UHFFFAOYSA-N

>  <smiles>  (4860) 
Cc1ccc(C(O)(CC(=O)Nc2ccc(N3C(=O)CCC3=O)c(C)c2)C(F)(F)F)o1

>  <ref_pdb>  (4860) 
A1068a

>  <alias>  (4860) 
RIRDFNLMPIXOPJ-UHFFFAOYSA-N-P120-P37-P120-601513

>  <HIPPO Pose ID>  (4860) 
523401

>  <name>  (4860) 
RIRDFNLMPIXOPJ-UHFFFAOYSA-N-P120-P37-P120-601513

>  <HIPPO Compound ID>  (4860) 
301860

>  <ref_mols>  (4860) 
A1445a,A0310a

>  <distance_score>  (4860) 
1.590406

>  <inspiration_score>  (4860) 
None

$$$$
VKCFNYYFZRZGHE-UHFFFAOYSA-N-P37-P37-P120-601513
     RDKit          3D

 30 32  0  0  0  0  0  0  0  0999 V2000
    8.0810   14.5539   24.9858 C   0  0  0  0  0  0  0  0  0  0  0  0
    7.9570   13.0691   24.9582 C   0  0  0  0  0  0  0  0  0  0  0  0
    6.9708   12.5460   25.8203 C   0  0  0  0  0  0  0  0  0  0  0  0
    6.7941   11.1850   25.9999 C   0  0  0  0  0  0  0  0  0  0  0  0
    5.8846   10.7301   26.9461 N   0  0  0  0  0  0  0  0  0  0  0  0
    5.0193   11.5151   27.9748 C   0  0  0  0  0  0  0  0  0  0  0  0
    4.9986   12.6549   28.2331 O   0  0  0  0  0  0  0  0  0  0  0  0
    4.1053   10.5180   28.6930 C   0  0  0  0  0  0  0  0  0  0  0  0
    2.9595   11.3020   29.3815 C   0  0  2  0  0  0  0  0  0  0  0  0
    3.4148   12.0448   30.6384 C   0  0  0  0  0  0  0  0  0  0  0  0
    3.2478   13.4374   30.7251 C   0  0  0  0  0  0  0  0  0  0  0  0
    3.6567   14.1377   31.8628 C   0  0  0  0  0  0  0  0  0  0  0  0
    4.2318   13.4518   32.9279 C   0  0  0  0  0  0  0  0  0  0  0  0
    4.7406   14.3121   34.3280 Cl  0  0  0  0  0  0  0  0  0  0  0  0
    4.3992   12.0711   32.8658 C   0  0  0  0  0  0  0  0  0  0  0  0
    3.9933   11.3704   31.7268 C   0  0  0  0  0  0  0  0  0  0  0  0
    1.7290   10.4502   29.6679 C   0  0  0  0  0  0  0  0  0  0  0  0
    1.8656    9.6714   30.7582 F   0  0  0  0  0  0  0  0  0  0  0  0
    1.4439    9.6381   28.6230 F   0  0  0  0  0  0  0  0  0  0  0  0
    0.6445   11.2372   29.8492 F   0  0  0  0  0  0  0  0  0  0  0  0
    7.5528   10.3277   25.2368 C   0  0  0  0  0  0  0  0  0  0  0  0
    8.5191   10.8348   24.3537 C   0  0  0  0  0  0  0  0  0  0  0  0
    8.7754   12.2137   24.2034 C   0  0  0  0  0  0  0  0  0  0  0  0
    9.9229   12.6887   23.4848 N   0  0  0  0  0  0  0  0  0  0  0  0
   10.9820   11.9091   23.1775 C   0  0  0  0  0  0  0  0  0  0  0  0
   11.0177   10.6939   23.2483 O   0  0  0  0  0  0  0  0  0  0  0  0
   12.1557   12.7683   22.7925 C   0  0  0  0  0  0  0  0  0  0  0  0
   11.6117   14.1544   22.7738 C   0  0  0  0  0  0  0  0  0  0  0  0
   10.1517   13.8940   22.8948 C   0  0  0  0  0  0  0  0  0  0  0  0
    9.3430   14.6758   22.4341 O   0  0  0  0  0  0  0  0  0  0  0  0
  1  2  1  0
  2  3  2  0
  3  4  1  0
  4  5  1  0
  5  6  1  0
  6  7  2  0
  6  8  1  0
  9  8  1  1
  9 10  1  0
 10 11  2  0
 11 12  1  0
 12 13  2  0
 13 14  1  0
 13 15  1  0
 15 16  2  0
  9 17  1  0
 17 18  1  0
 17 19  1  0
 17 20  1  0
  4 21  2  0
 21 22  1  0
 22 23  2  0
 23 24  1  0
 24 25  1  0
 25 26  2  0
 25 27  1  0
 27 28  1  0
 28 29  1  0
 29 30  2  0
 23  2  1  0
 29 24  1  0
 16 10  1  0
M  END
>  <energy_score>  (4861) 
-12.966298

>  <inchikey>  (4861) 
VKCFNYYFZRZGHE-UHFFFAOYSA-N

>  <smiles>  (4861) 
Cc1cc(NC(=O)CC(c2ccc(Cl)cc2)C(F)(F)F)ccc1N1C(=O)CCC1=O

>  <ref_pdb>  (4861) 
A1068a

>  <alias>  (4861) 
VKCFNYYFZRZGHE-UHFFFAOYSA-N-P37-P37-P120-601513

>  <HIPPO Pose ID>  (4861) 
523412

>  <name>  (4861) 
VKCFNYYFZRZGHE-UHFFFAOYSA-N-P37-P37-P120-601513

>  <HIPPO Compound ID>  (4861) 
301866

>  <ref_mols>  (4861) 
A1445a,A0310a

>  <distance_score>  (4861) 
1.443571

>  <inspiration_score>  (4861) 
None

$$$$
VKCFNYYFZRZGHE-UHFFFAOYSA-N-P120-P37-P120-601513
     RDKit          3D

 30 32  0  0  0  0  0  0  0  0999 V2000
    7.6234   14.9984   25.3113 C   0  0  0  0  0  0  0  0  0  0  0  0
    7.5341   13.5108   25.2330 C   0  0  0  0  0  0  0  0  0  0  0  0
    6.5909   12.8957   26.0953 C   0  0  0  0  0  0  0  0  0  0  0  0
    6.3114   11.5343   26.0431 C   0  0  0  0  0  0  0  0  0  0  0  0
    5.5225   10.9437   27.0208 N   0  0  0  0  0  0  0  0  0  0  0  0
    5.2847   11.3453   28.5060 C   0  0  0  0  0  0  0  0  0  0  0  0
    5.7766   12.1884   29.1512 O   0  0  0  0  0  0  0  0  0  0  0  0
    4.1546   10.4945   29.0682 C   0  0  0  0  0  0  0  0  0  0  0  0
    2.8050   11.1789   28.8194 C   0  0  2  0  0  0  0  0  0  0  0  0
    2.7872   12.6551   29.2134 C   0  0  0  0  0  0  0  0  0  0  0  0
    2.6165   13.6331   28.2176 C   0  0  0  0  0  0  0  0  0  0  0  0
    2.6127   14.9909   28.5454 C   0  0  0  0  0  0  0  0  0  0  0  0
    2.7803   15.3837   29.8701 C   0  0  0  0  0  0  0  0  0  0  0  0
    2.7836   17.0565   30.2721 Cl  0  0  0  0  0  0  0  0  0  0  0  0
    2.9502   14.4302   30.8700 C   0  0  0  0  0  0  0  0  0  0  0  0
    2.9555   13.0714   30.5440 C   0  0  0  0  0  0  0  0  0  0  0  0
    1.6644   10.4245   29.4937 C   0  0  0  0  0  0  0  0  0  0  0  0
    1.7932   10.3633   30.8359 F   0  0  0  0  0  0  0  0  0  0  0  0
    1.5911    9.1521   29.0379 F   0  0  0  0  0  0  0  0  0  0  0  0
    0.4777   11.0072   29.2109 F   0  0  0  0  0  0  0  0  0  0  0  0
    6.9023   10.7795   25.0581 C   0  0  0  0  0  0  0  0  0  0  0  0
    7.9067   11.3703   24.2712 C   0  0  0  0  0  0  0  0  0  0  0  0
    8.3326   12.7248   24.4011 C   0  0  0  0  0  0  0  0  0  0  0  0
    9.4881   13.2395   23.6946 N   0  0  0  0  0  0  0  0  0  0  0  0
   10.3790   12.3946   23.1078 C   0  0  0  0  0  0  0  0  0  0  0  0
   10.3050   11.1789   23.1118 O   0  0  0  0  0  0  0  0  0  0  0  0
   11.5650   13.1635   22.5991 C   0  0  0  0  0  0  0  0  0  0  0  0
   11.0344   14.5557   22.5911 C   0  0  0  0  0  0  0  0  0  0  0  0
   10.1811   14.4310   23.8073 C   0  0  0  0  0  0  0  0  0  0  0  0
   10.3307   15.1991   24.7448 O   0  0  0  0  0  0  0  0  0  0  0  0
  1  2  1  0
  2  3  2  0
  3  4  1  0
  4  5  1  0
  5  6  1  0
  6  7  2  0
  6  8  1  0
  9  8  1  1
  9 10  1  0
 10 11  2  0
 11 12  1  0
 12 13  2  0
 13 14  1  0
 13 15  1  0
 15 16  2  0
  9 17  1  0
 17 18  1  0
 17 19  1  0
 17 20  1  0
  4 21  2  0
 21 22  1  0
 22 23  2  0
 23 24  1  0
 24 25  1  0
 25 26  2  0
 25 27  1  0
 27 28  1  0
 28 29  1  0
 29 30  2  0
 23  2  1  0
 29 24  1  0
 16 10  1  0
M  END
>  <energy_score>  (4862) 
-1.752424

>  <inchikey>  (4862) 
VKCFNYYFZRZGHE-UHFFFAOYSA-N

>  <smiles>  (4862) 
Cc1cc(NC(=O)CC(c2ccc(Cl)cc2)C(F)(F)F)ccc1N1C(=O)CCC1=O

>  <ref_pdb>  (4862) 
A1068a

>  <alias>  (4862) 
VKCFNYYFZRZGHE-UHFFFAOYSA-N-P120-P37-P120-601513

>  <HIPPO Pose ID>  (4862) 
523413

>  <name>  (4862) 
VKCFNYYFZRZGHE-UHFFFAOYSA-N-P120-P37-P120-601513

>  <HIPPO Compound ID>  (4862) 
301866

>  <ref_mols>  (4862) 
A1445a,A0310a

>  <distance_score>  (4862) 
1.446089

>  <inspiration_score>  (4862) 
None

$$$$
ZKDUHLYSUUVHBP-UHFFFAOYSA-N-P37-P37-P120-601513
     RDKit          3D

 30 32  0  0  0  0  0  0  0  0999 V2000
    7.6014   14.5368   24.2837 C   0  0  0  0  0  0  0  0  0  0  0  0
    7.6379   13.0918   24.6232 C   0  0  0  0  0  0  0  0  0  0  0  0
    6.6112   12.6799   25.5120 C   0  0  0  0  0  0  0  0  0  0  0  0
    6.5769   11.4052   26.0318 C   0  0  0  0  0  0  0  0  0  0  0  0
    5.5760   11.0680   26.9353 N   0  0  0  0  0  0  0  0  0  0  0  0
    5.5971   10.0955   28.1499 C   0  0  0  0  0  0  0  0  0  0  0  0
    6.4804    9.4902   28.6204 O   0  0  0  0  0  0  0  0  0  0  0  0
    4.1659    9.8995   28.6755 C   0  0  0  0  0  0  0  0  0  0  0  0
    3.3118   11.1356   28.9884 C   0  0  2  0  0  0  0  0  0  0  0  0
    4.0368   12.1929   29.8074 C   0  0  0  0  0  0  0  0  0  0  0  0
    3.9532   13.5449   29.4300 C   0  0  0  0  0  0  0  0  0  0  0  0
    4.6313   14.5339   30.1511 C   0  0  0  0  0  0  0  0  0  0  0  0
    5.3979   14.1846   31.2609 C   0  0  0  0  0  0  0  0  0  0  0  0
    6.2416   15.4072   32.1289 Cl  0  0  0  0  0  0  0  0  0  0  0  0
    5.4745   12.8516   31.6513 C   0  0  0  0  0  0  0  0  0  0  0  0
    6.2056   12.4899   32.7159 F   0  0  0  0  0  0  0  0  0  0  0  0
    4.7985   11.8607   30.9391 C   0  0  0  0  0  0  0  0  0  0  0  0
    1.9789   10.7173   29.6270 C   0  0  0  0  0  0  0  0  0  0  0  0
    2.1073   10.3066   30.9027 F   0  0  0  0  0  0  0  0  0  0  0  0
    1.4154    9.7076   28.9229 F   0  0  0  0  0  0  0  0  0  0  0  0
    1.1010   11.7450   29.5997 F   0  0  0  0  0  0  0  0  0  0  0  0
    7.5015   10.4951   25.5631 C   0  0  0  0  0  0  0  0  0  0  0  0
    8.4764   10.8718   24.6187 C   0  0  0  0  0  0  0  0  0  0  0  0
    8.6212   12.1971   24.1625 C   0  0  0  0  0  0  0  0  0  0  0  0
    9.7711   12.5655   23.3795 N   0  0  0  0  0  0  0  0  0  0  0  0
   10.9069   11.7136   23.2554 C   0  0  0  0  0  0  0  0  0  0  0  0
   12.0476   12.6589   23.5626 C   0  0  0  0  0  0  0  0  0  0  0  0
   11.6790   13.8154   22.6760 C   0  0  0  0  0  0  0  0  0  0  0  0
   10.1731   13.7809   22.7790 C   0  0  0  0  0  0  0  0  0  0  0  0
    9.5114   14.7007   22.3451 O   0  0  0  0  0  0  0  0  0  0  0  0
  1  2  1  0
  2  3  2  0
  3  4  1  0
  4  5  1  0
  5  6  1  0
  6  7  2  0
  6  8  1  0
  9  8  1  1
  9 10  1  0
 10 11  2  0
 11 12  1  0
 12 13  2  0
 13 14  1  0
 13 15  1  0
 15 16  1  0
 15 17  2  0
  9 18  1  0
 18 19  1  0
 18 20  1  0
 18 21  1  0
  4 22  2  0
 22 23  1  0
 23 24  2  0
 24 25  1  0
 25 26  1  0
 26 27  1  0
 27 28  1  0
 28 29  1  0
 29 30  2  0
 24  2  1  0
 29 25  1  0
 17 10  1  0
M  END
>  <energy_score>  (4863) 
-23.513461

>  <inchikey>  (4863) 
ZKDUHLYSUUVHBP-UHFFFAOYSA-N

>  <smiles>  (4863) 
Cc1cc(NC(=O)CC(c2ccc(Cl)c(F)c2)C(F)(F)F)ccc1N1CCCC1=O

>  <ref_pdb>  (4863) 
A1068a

>  <alias>  (4863) 
ZKDUHLYSUUVHBP-UHFFFAOYSA-N-P37-P37-P120-601513

>  <HIPPO Pose ID>  (4863) 
523426

>  <name>  (4863) 
ZKDUHLYSUUVHBP-UHFFFAOYSA-N-P37-P37-P120-601513

>  <HIPPO Compound ID>  (4863) 
301873

>  <ref_mols>  (4863) 
A1445a,A0310a

>  <distance_score>  (4863) 
1.355226

>  <inspiration_score>  (4863) 
None

$$$$
ZKDUHLYSUUVHBP-UHFFFAOYSA-N-P120-P37-P120-601513
     RDKit          3D

 30 32  0  0  0  0  0  0  0  0999 V2000
    7.7084   14.9323   24.9539 C   0  0  0  0  0  0  0  0  0  0  0  0
    7.6270   13.4515   24.7934 C   0  0  0  0  0  0  0  0  0  0  0  0
    6.5950   12.8136   25.5101 C   0  0  0  0  0  0  0  0  0  0  0  0
    6.4580   11.4293   25.5758 C   0  0  0  0  0  0  0  0  0  0  0  0
    5.5326   10.9005   26.4725 N   0  0  0  0  0  0  0  0  0  0  0  0
    4.6305   11.6063   27.5271 C   0  0  0  0  0  0  0  0  0  0  0  0
    4.5841   12.7283   27.8552 O   0  0  0  0  0  0  0  0  0  0  0  0
    3.7923   10.5406   28.2342 C   0  0  0  0  0  0  0  0  0  0  0  0
    2.8706   11.2406   29.2642 C   0  0  2  0  0  0  0  0  0  0  0  0
    3.6384   11.7901   30.4697 C   0  0  0  0  0  0  0  0  0  0  0  0
    3.4809   13.1346   30.8484 C   0  0  0  0  0  0  0  0  0  0  0  0
    4.1916   13.6636   31.9315 C   0  0  0  0  0  0  0  0  0  0  0  0
    5.0681   12.8536   32.6500 C   0  0  0  0  0  0  0  0  0  0  0  0
    5.9553   13.5170   33.9667 Cl  0  0  0  0  0  0  0  0  0  0  0  0
    5.2221   11.5183   32.2907 C   0  0  0  0  0  0  0  0  0  0  0  0
    6.0645   10.7181   32.9618 F   0  0  0  0  0  0  0  0  0  0  0  0
    4.5121   10.9831   31.2170 C   0  0  0  0  0  0  0  0  0  0  0  0
    1.6795   10.3984   29.7042 C   0  0  0  0  0  0  0  0  0  0  0  0
    1.9191    9.6800   30.8192 F   0  0  0  0  0  0  0  0  0  0  0  0
    1.2854    9.5318   28.7468 F   0  0  0  0  0  0  0  0  0  0  0  0
    0.6224   11.2055   29.9569 F   0  0  0  0  0  0  0  0  0  0  0  0
    7.3079   10.6485   24.8196 C   0  0  0  0  0  0  0  0  0  0  0  0
    8.3323   11.2776   24.0816 C   0  0  0  0  0  0  0  0  0  0  0  0
    8.5361   12.6877   24.0692 C   0  0  0  0  0  0  0  0  0  0  0  0
    9.6838   13.2384   23.4179 N   0  0  0  0  0  0  0  0  0  0  0  0
   10.8205   12.4131   23.2400 C   0  0  0  0  0  0  0  0  0  0  0  0
   11.9806   13.3508   23.1412 C   0  0  0  0  0  0  0  0  0  0  0  0
   11.4010   14.4719   22.3444 C   0  0  0  0  0  0  0  0  0  0  0  0
   10.0300   14.5304   22.9571 C   0  0  0  0  0  0  0  0  0  0  0  0
    9.4179   15.5778   22.9693 O   0  0  0  0  0  0  0  0  0  0  0  0
  1  2  1  0
  2  3  2  0
  3  4  1  0
  4  5  1  0
  5  6  1  0
  6  7  2  0
  6  8  1  0
  9  8  1  1
  9 10  1  0
 10 11  2  0
 11 12  1  0
 12 13  2  0
 13 14  1  0
 13 15  1  0
 15 16  1  0
 15 17  2  0
  9 18  1  0
 18 19  1  0
 18 20  1  0
 18 21  1  0
  4 22  2  0
 22 23  1  0
 23 24  2  0
 24 25  1  0
 25 26  1  0
 26 27  1  0
 27 28  1  0
 28 29  1  0
 29 30  2  0
 24  2  1  0
 29 25  1  0
 17 10  1  0
M  END
>  <energy_score>  (4864) 
-34.410245

>  <inchikey>  (4864) 
ZKDUHLYSUUVHBP-UHFFFAOYSA-N

>  <smiles>  (4864) 
Cc1cc(NC(=O)CC(c2ccc(Cl)c(F)c2)C(F)(F)F)ccc1N1CCCC1=O

>  <ref_pdb>  (4864) 
A1068a

>  <alias>  (4864) 
ZKDUHLYSUUVHBP-UHFFFAOYSA-N-P120-P37-P120-601513

>  <HIPPO Pose ID>  (4864) 
523427

>  <name>  (4864) 
ZKDUHLYSUUVHBP-UHFFFAOYSA-N-P120-P37-P120-601513

>  <HIPPO Compound ID>  (4864) 
301873

>  <ref_mols>  (4864) 
A1445a,A0310a

>  <distance_score>  (4864) 
1.419239

>  <inspiration_score>  (4864) 
None

$$$$
AUFMNQUERHGBNY-UHFFFAOYSA-N-P37-P37-P120-601513
     RDKit          3D

 31 33  0  0  0  0  0  0  0  0999 V2000
    7.5066   14.5919   24.3366 C   0  0  0  0  0  0  0  0  0  0  0  0
    7.5729   13.1520   24.7016 C   0  0  0  0  0  0  0  0  0  0  0  0
    6.5199   12.7207   25.5508 C   0  0  0  0  0  0  0  0  0  0  0  0
    6.4991   11.4497   26.0811 C   0  0  0  0  0  0  0  0  0  0  0  0
    5.5033   11.0949   26.9795 N   0  0  0  0  0  0  0  0  0  0  0  0
    5.5317   10.1051   28.1806 C   0  0  0  0  0  0  0  0  0  0  0  0
    6.4192    9.4980   28.6414 O   0  0  0  0  0  0  0  0  0  0  0  0
    4.1032    9.8955   28.7031 C   0  0  0  0  0  0  0  0  0  0  0  0
    3.2433   11.1276   29.0138 C   0  0  2  0  0  0  0  0  0  0  0  0
    3.9599   12.1927   29.8306 C   0  0  0  0  0  0  0  0  0  0  0  0
    3.8490   13.5449   29.4606 C   0  0  0  0  0  0  0  0  0  0  0  0
    4.5174   14.5422   30.1793 C   0  0  0  0  0  0  0  0  0  0  0  0
    5.3015   14.2010   31.2793 C   0  0  0  0  0  0  0  0  0  0  0  0
    6.1337   15.4341   32.1437 Cl  0  0  0  0  0  0  0  0  0  0  0  0
    5.4049   12.8679   31.6628 C   0  0  0  0  0  0  0  0  0  0  0  0
    6.1530   12.5142   32.7183 F   0  0  0  0  0  0  0  0  0  0  0  0
    4.7385   11.8686   30.9532 C   0  0  0  0  0  0  0  0  0  0  0  0
    1.9150   10.7019   29.6527 C   0  0  0  0  0  0  0  0  0  0  0  0
    2.0476   10.2899   30.9275 F   0  0  0  0  0  0  0  0  0  0  0  0
    1.3546    9.6899   28.9480 F   0  0  0  0  0  0  0  0  0  0  0  0
    1.0315   11.7248   29.6279 F   0  0  0  0  0  0  0  0  0  0  0  0
    7.4561   10.5572   25.6547 C   0  0  0  0  0  0  0  0  0  0  0  0
    8.4691   10.9547   24.7661 C   0  0  0  0  0  0  0  0  0  0  0  0
    8.6031   12.2781   24.2976 C   0  0  0  0  0  0  0  0  0  0  0  0
    9.8133   12.6956   23.6308 N   0  0  0  0  0  0  0  0  0  0  0  0
   10.1689   13.8833   23.0628 C   0  0  0  0  0  0  0  0  0  0  0  0
    9.5031   14.6833   22.4362 O   0  0  0  0  0  0  0  0  0  0  0  0
   11.6408   14.0595   23.1718 C   0  0  0  0  0  0  0  0  0  0  0  0
   12.0651   12.6442   22.9970 C   0  0  0  0  0  0  0  0  0  0  0  0
   10.8106   11.8498   23.2669 C   0  0  0  0  0  0  0  0  0  0  0  0
   10.7300   10.6406   23.1392 O   0  0  0  0  0  0  0  0  0  0  0  0
  1  2  1  0
  2  3  2  0
  3  4  1  0
  4  5  1  0
  5  6  1  0
  6  7  2  0
  6  8  1  0
  9  8  1  1
  9 10  1  0
 10 11  2  0
 11 12  1  0
 12 13  2  0
 13 14  1  0
 13 15  1  0
 15 16  1  0
 15 17  2  0
  9 18  1  0
 18 19  1  0
 18 20  1  0
 18 21  1  0
  4 22  2  0
 22 23  1  0
 23 24  2  0
 24 25  1  0
 25 26  1  0
 26 27  2  0
 26 28  1  0
 28 29  1  0
 29 30  1  0
 30 31  2  0
 24  2  1  0
 30 25  1  0
 17 10  1  0
M  END
>  <energy_score>  (4865) 
-24.036745

>  <inchikey>  (4865) 
AUFMNQUERHGBNY-UHFFFAOYSA-N

>  <smiles>  (4865) 
Cc1cc(NC(=O)CC(c2ccc(Cl)c(F)c2)C(F)(F)F)ccc1N1C(=O)CCC1=O

>  <ref_pdb>  (4865) 
A1068a

>  <alias>  (4865) 
AUFMNQUERHGBNY-UHFFFAOYSA-N-P37-P37-P120-601513

>  <HIPPO Pose ID>  (4865) 
523456

>  <name>  (4865) 
AUFMNQUERHGBNY-UHFFFAOYSA-N-P37-P37-P120-601513

>  <HIPPO Compound ID>  (4865) 
301888

>  <ref_mols>  (4865) 
A1445a,A0310a

>  <distance_score>  (4865) 
1.428182

>  <inspiration_score>  (4865) 
None

$$$$
AUFMNQUERHGBNY-UHFFFAOYSA-N-P120-P37-P120-601513
     RDKit          3D

 31 33  0  0  0  0  0  0  0  0999 V2000
    8.6041   14.6123   25.1699 C   0  0  0  0  0  0  0  0  0  0  0  0
    8.3334   13.1496   24.9765 C   0  0  0  0  0  0  0  0  0  0  0  0
    7.1640   12.6424   25.5784 C   0  0  0  0  0  0  0  0  0  0  0  0
    6.7996   11.3032   25.4851 C   0  0  0  0  0  0  0  0  0  0  0  0
    5.7306   10.8469   26.2618 N   0  0  0  0  0  0  0  0  0  0  0  0
    4.9094   11.5674   27.3814 C   0  0  0  0  0  0  0  0  0  0  0  0
    5.0569   12.6219   27.8716 O   0  0  0  0  0  0  0  0  0  0  0  0
    3.7825   10.6383   27.8311 C   0  0  0  0  0  0  0  0  0  0  0  0
    3.2425   11.0517   29.2231 C   0  0  2  0  0  0  0  0  0  0  0  0
    4.2115   10.6541   30.3297 C   0  0  0  0  0  0  0  0  0  0  0  0
    5.0660   11.6177   30.8946 C   0  0  0  0  0  0  0  0  0  0  0  0
    5.9800   11.2727   31.8952 C   0  0  0  0  0  0  0  0  0  0  0  0
    6.0472    9.9579   32.3483 C   0  0  0  0  0  0  0  0  0  0  0  0
    7.1977    9.5324   33.5545 Cl  0  0  0  0  0  0  0  0  0  0  0  0
    5.2000    8.9984   31.8035 C   0  0  0  0  0  0  0  0  0  0  0  0
    5.2520    7.7237   32.2191 F   0  0  0  0  0  0  0  0  0  0  0  0
    4.2973    9.3329   30.7948 C   0  0  0  0  0  0  0  0  0  0  0  0
    1.8170   10.5447   29.4434 C   0  0  0  0  0  0  0  0  0  0  0  0
    1.3943   10.7768   30.7070 F   0  0  0  0  0  0  0  0  0  0  0  0
    1.6913    9.2210   29.2048 F   0  0  0  0  0  0  0  0  0  0  0  0
    0.9561   11.1808   28.6140 F   0  0  0  0  0  0  0  0  0  0  0  0
    7.5551   10.4697   24.6688 C   0  0  0  0  0  0  0  0  0  0  0  0
    8.6991   10.9783   24.0070 C   0  0  0  0  0  0  0  0  0  0  0  0
    9.1339   12.3106   24.1842 C   0  0  0  0  0  0  0  0  0  0  0  0
   10.1561   12.8373   23.3226 N   0  0  0  0  0  0  0  0  0  0  0  0
   11.3716   13.3721   23.6721 C   0  0  0  0  0  0  0  0  0  0  0  0
   11.8895   13.5419   24.7632 O   0  0  0  0  0  0  0  0  0  0  0  0
   11.9845   13.9106   22.4179 C   0  0  0  0  0  0  0  0  0  0  0  0
   10.7855   14.5071   21.7596 C   0  0  0  0  0  0  0  0  0  0  0  0
    9.6964   13.7330   22.4102 C   0  0  0  0  0  0  0  0  0  0  0  0
    8.5118   13.9777   22.2537 O   0  0  0  0  0  0  0  0  0  0  0  0
  1  2  1  0
  2  3  2  0
  3  4  1  0
  4  5  1  0
  5  6  1  0
  6  7  2  0
  6  8  1  0
  9  8  1  6
  9 10  1  0
 10 11  2  0
 11 12  1  0
 12 13  2  0
 13 14  1  0
 13 15  1  0
 15 16  1  0
 15 17  2  0
  9 18  1  0
 18 19  1  0
 18 20  1  0
 18 21  1  0
  4 22  2  0
 22 23  1  0
 23 24  2  0
 24 25  1  0
 25 26  1  0
 26 27  2  0
 26 28  1  0
 28 29  1  0
 29 30  1  0
 30 31  2  0
 24  2  1  0
 30 25  1  0
 17 10  1  0
M  END
>  <energy_score>  (4866) 
-26.293374

>  <inchikey>  (4866) 
AUFMNQUERHGBNY-UHFFFAOYSA-N

>  <smiles>  (4866) 
Cc1cc(NC(=O)CC(c2ccc(Cl)c(F)c2)C(F)(F)F)ccc1N1C(=O)CCC1=O

>  <ref_pdb>  (4866) 
A1068a

>  <alias>  (4866) 
AUFMNQUERHGBNY-UHFFFAOYSA-N-P120-P37-P120-601513

>  <HIPPO Pose ID>  (4866) 
523457

>  <name>  (4866) 
AUFMNQUERHGBNY-UHFFFAOYSA-N-P120-P37-P120-601513

>  <HIPPO Compound ID>  (4866) 
301888

>  <ref_mols>  (4866) 
A1445a,A0310a

>  <distance_score>  (4866) 
1.675315

>  <inspiration_score>  (4866) 
None

$$$$
UHBJOEILNAYTGK-UHFFFAOYSA-N-P37-P37-P198-601513
     RDKit          3D

 20 22  0  0  0  0  0  0  0  0999 V2000
    1.4350   14.0734   26.6667 C   0  0  0  0  0  0  0  0  0  0  0  0
    2.5349   13.8437   27.6974 C   0  0  1  0  0  0  0  0  0  0  0  0
    3.7221   13.3013   27.0743 N   0  0  0  0  0  0  0  0  0  0  0  0
    4.5823   12.0867   27.4542 C   0  0  0  0  0  0  0  0  0  0  0  0
    4.4299   11.2836   28.2830 O   0  0  0  0  0  0  0  0  0  0  0  0
    5.7647   11.9993   26.5280 C   0  0  0  0  0  0  0  0  0  0  0  0
    6.3653   10.7721   26.2994 C   0  0  0  0  0  0  0  0  0  0  0  0
    7.3993   10.7251   25.3733 C   0  0  0  0  0  0  0  0  0  0  0  0
    7.8262   11.8817   24.7380 C   0  0  0  0  0  0  0  0  0  0  0  0
    7.1749   13.0684   25.0430 C   0  0  0  0  0  0  0  0  0  0  0  0
    6.1440   13.1589   25.9195 N   0  0  0  0  0  0  0  0  0  0  0  0
    8.8856   11.8242   23.8326 N   0  0  0  0  0  0  0  0  0  0  0  0
    9.4618   10.6381   23.4740 C   0  0  0  0  0  0  0  0  0  0  0  0
   10.4095   10.5796   22.7057 O   0  0  0  0  0  0  0  0  0  0  0  0
    8.8218    9.4010   24.0260 C   0  0  0  0  0  0  0  0  0  0  0  0
    7.9701    9.5128   25.1513 O   0  0  0  0  0  0  0  0  0  0  0  0
    2.9095   15.1204   28.4193 C   0  0  0  0  0  0  0  0  0  0  0  0
    3.5986   16.0996   27.6178 O   0  0  0  0  0  0  0  0  0  0  0  0
    3.3438   15.0693   29.8620 C   0  0  0  0  0  0  0  0  0  0  0  0
    2.0194   15.6795   29.4960 C   0  0  0  0  0  0  0  0  0  0  0  0
  2  1  1  6
  2  3  1  0
  3  4  1  0
  4  5  2  0
  4  6  1  0
  6  7  2  0
  7  8  1  0
  8  9  2  0
  9 10  1  0
 10 11  2  0
  9 12  1  0
 12 13  1  0
 13 14  2  0
 13 15  1  0
 15 16  1  0
  2 17  1  0
 17 18  1  0
 17 19  1  0
 19 20  1  0
 11  6  1  0
 20 17  1  0
 16  8  1  0
M  END
>  <energy_score>  (4867) 
-15.844087

>  <inchikey>  (4867) 
UHBJOEILNAYTGK-UHFFFAOYSA-N

>  <smiles>  (4867) 
CC(NC(=O)c1cc2c(cn1)NC(=O)CO2)C1(O)CC1

>  <ref_pdb>  (4867) 
A1068a

>  <alias>  (4867) 
UHBJOEILNAYTGK-UHFFFAOYSA-N-P37-P37-P198-601513

>  <HIPPO Pose ID>  (4867) 
523496

>  <name>  (4867) 
UHBJOEILNAYTGK-UHFFFAOYSA-N-P37-P37-P198-601513

>  <HIPPO Compound ID>  (4867) 
302206

>  <ref_mols>  (4867) 
A0310a,A3618a

>  <distance_score>  (4867) 
1.855417

>  <inspiration_score>  (4867) 
None

$$$$
YBVLTUOSBQQSQG-UHFFFAOYSA-N-P37-P37-P198-601513
     RDKit          3D

 20 22  0  0  0  0  0  0  0  0999 V2000
    1.4413   15.7796   26.3184 N   0  0  0  0  0  0  0  0  0  0  0  0
    1.8864   14.9191   26.9600 C   0  0  0  0  0  0  0  0  0  0  0  0
    2.4891   13.8277   27.7509 C   0  0  2  0  0  0  0  0  0  0  0  0
    3.7464   13.3743   27.1930 N   0  0  0  0  0  0  0  0  0  0  0  0
    4.5994   12.1388   27.5259 C   0  0  0  0  0  0  0  0  0  0  0  0
    4.4665   11.3304   28.3537 O   0  0  0  0  0  0  0  0  0  0  0  0
    5.7477   12.0295   26.5555 C   0  0  0  0  0  0  0  0  0  0  0  0
    6.3665   10.8055   26.3503 C   0  0  0  0  0  0  0  0  0  0  0  0
    7.3905   10.7485   25.4117 C   0  0  0  0  0  0  0  0  0  0  0  0
    7.7882   11.8938   24.7369 C   0  0  0  0  0  0  0  0  0  0  0  0
    7.1145   13.0752   25.0128 C   0  0  0  0  0  0  0  0  0  0  0  0
    6.0908   13.1708   25.8985 N   0  0  0  0  0  0  0  0  0  0  0  0
    8.8419   11.8307   23.8241 N   0  0  0  0  0  0  0  0  0  0  0  0
    9.4318   10.6441   23.4881 C   0  0  0  0  0  0  0  0  0  0  0  0
   10.3713   10.5748   22.7107 O   0  0  0  0  0  0  0  0  0  0  0  0
    8.8089    9.4148   24.0757 C   0  0  0  0  0  0  0  0  0  0  0  0
    7.9954    9.5441   25.2289 O   0  0  0  0  0  0  0  0  0  0  0  0
    1.4498   12.7455   27.6843 C   0  0  0  0  0  0  0  0  0  0  0  0
    1.3686   11.6708   28.7453 C   0  0  0  0  0  0  0  0  0  0  0  0
    0.2974   12.7186   28.6650 C   0  0  0  0  0  0  0  0  0  0  0  0
  1  2  3  0
  3  2  1  6
  3  4  1  0
  4  5  1  0
  5  6  2  0
  5  7  1  0
  7  8  2  0
  8  9  1  0
  9 10  2  0
 10 11  1  0
 11 12  2  0
 10 13  1  0
 13 14  1  0
 14 15  2  0
 14 16  1  0
 16 17  1  0
  3 18  1  0
 18 19  1  0
 19 20  1  0
 12  7  1  0
 20 18  1  0
 17  9  1  0
M  END
>  <energy_score>  (4868) 
-7.748566

>  <inchikey>  (4868) 
YBVLTUOSBQQSQG-UHFFFAOYSA-N

>  <smiles>  (4868) 
N#CC(NC(=O)c1cc2c(cn1)NC(=O)CO2)C1CC1

>  <ref_pdb>  (4868) 
A1068a

>  <alias>  (4868) 
YBVLTUOSBQQSQG-UHFFFAOYSA-N-P37-P37-P198-601513

>  <HIPPO Pose ID>  (4868) 
523498

>  <name>  (4868) 
YBVLTUOSBQQSQG-UHFFFAOYSA-N-P37-P37-P198-601513

>  <HIPPO Compound ID>  (4868) 
302207

>  <ref_mols>  (4868) 
A0310a,A3618a

>  <distance_score>  (4868) 
1.574002

>  <inspiration_score>  (4868) 
None

$$$$
YBVLTUOSBQQSQG-UHFFFAOYSA-N-P198-P37-P198-601513
     RDKit          3D

 20 22  0  0  0  0  0  0  0  0999 V2000
   -0.1004   12.7915   25.9260 N   0  0  0  0  0  0  0  0  0  0  0  0
    0.7662   13.1012   26.6395 C   0  0  0  0  0  0  0  0  0  0  0  0
    1.9109   13.4171   27.5143 C   0  0  2  0  0  0  0  0  0  0  0  0
    3.1255   12.8910   26.9546 N   0  0  0  0  0  0  0  0  0  0  0  0
    4.4733   13.5665   26.6904 C   0  0  0  0  0  0  0  0  0  0  0  0
    4.7965   14.6765   26.8112 O   0  0  0  0  0  0  0  0  0  0  0  0
    5.4314   12.5407   26.1485 C   0  0  0  0  0  0  0  0  0  0  0  0
    6.6378   12.9285   25.6095 C   0  0  0  0  0  0  0  0  0  0  0  0
    7.4515   11.9521   25.0537 C   0  0  0  0  0  0  0  0  0  0  0  0
    7.0615   10.6254   25.0471 C   0  0  0  0  0  0  0  0  0  0  0  0
    5.8566   10.3246   25.6574 C   0  0  0  0  0  0  0  0  0  0  0  0
    5.0260   11.2477   26.2040 N   0  0  0  0  0  0  0  0  0  0  0  0
    7.8636    9.6632   24.4302 N   0  0  0  0  0  0  0  0  0  0  0  0
    8.9457   10.0175   23.6632 C   0  0  0  0  0  0  0  0  0  0  0  0
    9.5935    9.1881   23.0338 O   0  0  0  0  0  0  0  0  0  0  0  0
    9.1961   11.5258   23.5803 C   0  0  0  0  0  0  0  0  0  0  0  0
    8.6684   12.3671   24.5952 O   0  0  0  0  0  0  0  0  0  0  0  0
    1.7075   12.8026   28.8761 C   0  0  0  0  0  0  0  0  0  0  0  0
    0.3751   12.3993   29.4748 C   0  0  0  0  0  0  0  0  0  0  0  0
    1.3686   11.3400   29.0760 C   0  0  0  0  0  0  0  0  0  0  0  0
  1  2  3  0
  3  2  1  6
  3  4  1  0
  4  5  1  0
  5  6  2  0
  5  7  1  0
  7  8  2  0
  8  9  1  0
  9 10  2  0
 10 11  1  0
 11 12  2  0
 10 13  1  0
 13 14  1  0
 14 15  2  0
 14 16  1  0
 16 17  1  0
  3 18  1  0
 18 19  1  0
 19 20  1  0
 12  7  1  0
 20 18  1  0
 17  9  1  0
M  END
>  <energy_score>  (4869) 
-6.781032

>  <inchikey>  (4869) 
YBVLTUOSBQQSQG-UHFFFAOYSA-N

>  <smiles>  (4869) 
N#CC(NC(=O)c1cc2c(cn1)NC(=O)CO2)C1CC1

>  <ref_pdb>  (4869) 
A1068a

>  <alias>  (4869) 
YBVLTUOSBQQSQG-UHFFFAOYSA-N-P198-P37-P198-601513

>  <HIPPO Pose ID>  (4869) 
523499

>  <name>  (4869) 
YBVLTUOSBQQSQG-UHFFFAOYSA-N-P198-P37-P198-601513

>  <HIPPO Compound ID>  (4869) 
302207

>  <ref_mols>  (4869) 
A0310a,A3618a

>  <distance_score>  (4869) 
1.953736

>  <inspiration_score>  (4869) 
None

$$$$
RQPHSNWYTUPFAW-UHFFFAOYSA-N-P37-P37-P198-601513
     RDKit          3D

 20 22  0  0  0  0  0  0  0  0999 V2000
    1.5675   15.3683   26.9798 C   0  0  0  0  0  0  0  0  0  0  0  0
    1.6160   14.0291   26.9449 C   0  0  0  0  0  0  0  0  0  0  0  0
    2.3698   13.1722   27.9398 C   0  0  2  0  0  0  0  0  0  0  0  0
    3.5830   12.7768   27.2599 N   0  0  0  0  0  0  0  0  0  0  0  0
    4.7838   11.9475   27.7555 C   0  0  0  0  0  0  0  0  0  0  0  0
    4.9505   11.3872   28.7644 O   0  0  0  0  0  0  0  0  0  0  0  0
    5.8291   11.8713   26.6843 C   0  0  0  0  0  0  0  0  0  0  0  0
    6.4383   10.6570   26.4151 C   0  0  0  0  0  0  0  0  0  0  0  0
    7.4108   10.6265   25.4223 C   0  0  0  0  0  0  0  0  0  0  0  0
    7.7735   11.7948   24.7679 C   0  0  0  0  0  0  0  0  0  0  0  0
    7.0925   12.9607   25.0926 C   0  0  0  0  0  0  0  0  0  0  0  0
    6.1064   13.0245   26.0217 N   0  0  0  0  0  0  0  0  0  0  0  0
    8.8049   11.7716   23.8296 N   0  0  0  0  0  0  0  0  0  0  0  0
    9.4130   10.6057   23.4582 C   0  0  0  0  0  0  0  0  0  0  0  0
   10.3380   10.5759   22.6615 O   0  0  0  0  0  0  0  0  0  0  0  0
    8.8257    9.3483   24.0219 C   0  0  0  0  0  0  0  0  0  0  0  0
    7.9998    9.4253   25.1696 O   0  0  0  0  0  0  0  0  0  0  0  0
    1.5034   12.0385   28.4538 C   0  0  0  0  0  0  0  0  0  0  0  0
    1.8616   11.3881   29.7726 C   0  0  0  0  0  0  0  0  0  0  0  0
    1.8537   10.5653   28.5197 C   0  0  0  0  0  0  0  0  0  0  0  0
  1  2  2  0
  2  3  1  0
  3  4  1  6
  4  5  1  0
  5  6  2  0
  5  7  1  0
  7  8  2  0
  8  9  1  0
  9 10  2  0
 10 11  1  0
 11 12  2  0
 10 13  1  0
 13 14  1  0
 14 15  2  0
 14 16  1  0
 16 17  1  0
  3 18  1  0
 18 19  1  0
 19 20  1  0
 12  7  1  0
 20 18  1  0
 17  9  1  0
M  END
>  <energy_score>  (4870) 
-5.248101

>  <inchikey>  (4870) 
RQPHSNWYTUPFAW-UHFFFAOYSA-N

>  <smiles>  (4870) 
C=CC(NC(=O)c1cc2c(cn1)NC(=O)CO2)C1CC1

>  <ref_pdb>  (4870) 
A1068a

>  <alias>  (4870) 
RQPHSNWYTUPFAW-UHFFFAOYSA-N-P37-P37-P198-601513

>  <HIPPO Pose ID>  (4870) 
523500

>  <name>  (4870) 
RQPHSNWYTUPFAW-UHFFFAOYSA-N-P37-P37-P198-601513

>  <HIPPO Compound ID>  (4870) 
302208

>  <ref_mols>  (4870) 
A0310a,A3618a

>  <distance_score>  (4870) 
1.773025

>  <inspiration_score>  (4870) 
None

$$$$
RQPHSNWYTUPFAW-UHFFFAOYSA-N-P198-P37-P198-601513
     RDKit          3D

 20 22  0  0  0  0  0  0  0  0999 V2000
    0.5863   14.6523   26.4895 C   0  0  0  0  0  0  0  0  0  0  0  0
    0.9730   13.4366   26.9003 C   0  0  0  0  0  0  0  0  0  0  0  0
    2.0193   13.1805   27.9530 C   0  0  2  0  0  0  0  0  0  0  0  0
    3.1855   12.7207   27.2585 N   0  0  0  0  0  0  0  0  0  0  0  0
    4.4257   13.4867   26.7747 C   0  0  0  0  0  0  0  0  0  0  0  0
    4.6644   14.6262   26.7945 O   0  0  0  0  0  0  0  0  0  0  0  0
    5.3980   12.5159   26.1589 C   0  0  0  0  0  0  0  0  0  0  0  0
    6.5650   12.9645   25.5748 C   0  0  0  0  0  0  0  0  0  0  0  0
    7.4209   12.0333   24.9992 C   0  0  0  0  0  0  0  0  0  0  0  0
    7.0994   10.6885   25.0135 C   0  0  0  0  0  0  0  0  0  0  0  0
    5.9257   10.3278   25.6526 C   0  0  0  0  0  0  0  0  0  0  0  0
    5.0654   11.2036   26.2251 N   0  0  0  0  0  0  0  0  0  0  0  0
    7.9276    9.7561   24.3904 N   0  0  0  0  0  0  0  0  0  0  0  0
    8.9967   10.1433   23.6275 C   0  0  0  0  0  0  0  0  0  0  0  0
    9.6568    9.3289   22.9908 O   0  0  0  0  0  0  0  0  0  0  0  0
    9.2364   11.6577   23.5741 C   0  0  0  0  0  0  0  0  0  0  0  0
    8.5942   12.5220   24.4990 O   0  0  0  0  0  0  0  0  0  0  0  0
    1.5618   12.2210   29.0220 C   0  0  0  0  0  0  0  0  0  0  0  0
    2.5322   11.3806   29.8201 C   0  0  0  0  0  0  0  0  0  0  0  0
    1.5768   10.7158   28.8653 C   0  0  0  0  0  0  0  0  0  0  0  0
  1  2  2  0
  2  3  1  0
  3  4  1  6
  4  5  1  0
  5  6  2  0
  5  7  1  0
  7  8  2  0
  8  9  1  0
  9 10  2  0
 10 11  1  0
 11 12  2  0
 10 13  1  0
 13 14  1  0
 14 15  2  0
 14 16  1  0
 16 17  1  0
  3 18  1  0
 18 19  1  0
 19 20  1  0
 12  7  1  0
 20 18  1  0
 17  9  1  0
M  END
>  <energy_score>  (4871) 
-15.44815

>  <inchikey>  (4871) 
RQPHSNWYTUPFAW-UHFFFAOYSA-N

>  <smiles>  (4871) 
C=CC(NC(=O)c1cc2c(cn1)NC(=O)CO2)C1CC1

>  <ref_pdb>  (4871) 
A1068a

>  <alias>  (4871) 
RQPHSNWYTUPFAW-UHFFFAOYSA-N-P198-P37-P198-601513

>  <HIPPO Pose ID>  (4871) 
523501

>  <name>  (4871) 
RQPHSNWYTUPFAW-UHFFFAOYSA-N-P198-P37-P198-601513

>  <HIPPO Compound ID>  (4871) 
302208

>  <ref_mols>  (4871) 
A0310a,A3618a

>  <distance_score>  (4871) 
1.957648

>  <inspiration_score>  (4871) 
None

$$$$
FEQAOEDYHVWQHA-UHFFFAOYSA-N-P37-P37-P198-601513
     RDKit          3D

 20 22  0  0  0  0  0  0  0  0999 V2000
   10.3738   10.4409   22.6904 O   0  0  0  0  0  0  0  0  0  0  0  0
    9.4531   10.5300   23.4882 C   0  0  0  0  0  0  0  0  0  0  0  0
    8.7717    9.3153   24.0392 C   0  0  0  0  0  0  0  0  0  0  0  0
    7.9002    9.4428   25.1490 O   0  0  0  0  0  0  0  0  0  0  0  0
    7.3706   10.6778   25.3721 C   0  0  0  0  0  0  0  0  0  0  0  0
    6.2979   10.7630   26.2562 C   0  0  0  0  0  0  0  0  0  0  0  0
    5.7373   12.0143   26.4764 C   0  0  0  0  0  0  0  0  0  0  0  0
    4.4985   12.1561   27.3338 C   0  0  0  0  0  0  0  0  0  0  0  0
    4.1472   11.2715   28.0072 O   0  0  0  0  0  0  0  0  0  0  0  0
    3.9033   13.5654   27.1448 N   0  0  0  0  0  0  0  0  0  0  0  0
    2.6889   14.1543   27.6756 C   0  0  1  0  0  0  0  0  0  0  0  0
    1.4072   13.8407   26.8664 C   0  0  0  0  0  0  0  0  0  0  0  0
    0.9609   12.4883   26.9673 O   0  0  0  0  0  0  0  0  0  0  0  0
    2.5402   13.8215   29.1341 C   0  0  0  0  0  0  0  0  0  0  0  0
    3.4241   14.4786   30.1665 C   0  0  0  0  0  0  0  0  0  0  0  0
    1.9623   14.8239   30.1033 C   0  0  0  0  0  0  0  0  0  0  0  0
    6.2110   13.1631   25.9112 N   0  0  0  0  0  0  0  0  0  0  0  0
    7.2669   13.0347   25.0719 C   0  0  0  0  0  0  0  0  0  0  0  0
    7.8688   11.8229   24.7666 C   0  0  0  0  0  0  0  0  0  0  0  0
    8.9400   11.7337   23.8780 N   0  0  0  0  0  0  0  0  0  0  0  0
  1  2  2  0
  2  3  1  0
  3  4  1  0
  4  5  1  0
  5  6  2  0
  6  7  1  0
  7  8  1  0
  8  9  2  0
  8 10  1  0
 10 11  1  0
 11 12  1  6
 12 13  1  0
 11 14  1  0
 14 15  1  0
 15 16  1  0
  7 17  2  0
 17 18  1  0
 18 19  2  0
 19 20  1  0
 20  2  1  0
 19  5  1  0
 16 14  1  0
M  END
>  <energy_score>  (4872) 
-12.295077

>  <inchikey>  (4872) 
FEQAOEDYHVWQHA-UHFFFAOYSA-N

>  <smiles>  (4872) 
O=C1COc2cc(C(=O)NC(CO)C3CC3)ncc2N1

>  <ref_pdb>  (4872) 
A1068a

>  <alias>  (4872) 
FEQAOEDYHVWQHA-UHFFFAOYSA-N-P37-P37-P198-601513

>  <HIPPO Pose ID>  (4872) 
523514

>  <name>  (4872) 
FEQAOEDYHVWQHA-UHFFFAOYSA-N-P37-P37-P198-601513

>  <HIPPO Compound ID>  (4872) 
302215

>  <ref_mols>  (4872) 
A0310a,A3618a

>  <distance_score>  (4872) 
1.613721

>  <inspiration_score>  (4872) 
None

$$$$
BMTDYDBPJGCXGY-UHFFFAOYSA-N-P37-P37-P198-601513
     RDKit          3D

 20 22  0  0  0  0  0  0  0  0999 V2000
    1.4336   13.9917   26.9068 C   0  0  0  0  0  0  0  0  0  0  0  0
    2.3889   14.7295   25.9511 C   0  0  0  0  0  0  0  0  0  0  0  0
    1.7471   14.7087   24.5504 C   0  0  0  0  0  0  0  0  0  0  0  0
    3.6654   14.0261   25.8572 N   0  0  0  0  0  0  0  0  0  0  0  0
    4.5872   13.4693   26.9632 C   0  0  0  0  0  0  0  0  0  0  0  0
    4.5105   13.5523   28.1242 O   0  0  0  0  0  0  0  0  0  0  0  0
    5.6725   12.6222   26.3756 C   0  0  0  0  0  0  0  0  0  0  0  0
    6.5564   13.0832   25.4174 C   0  0  0  0  0  0  0  0  0  0  0  0
    7.4846   12.1840   24.8878 C   0  0  0  0  0  0  0  0  0  0  0  0
    7.4845   10.8625   25.2986 C   0  0  0  0  0  0  0  0  0  0  0  0
    6.5630   10.5057   26.2609 C   0  0  0  0  0  0  0  0  0  0  0  0
    5.6662   11.3459   26.8109 N   0  0  0  0  0  0  0  0  0  0  0  0
    8.3267    9.9276   24.6973 N   0  0  0  0  0  0  0  0  0  0  0  0
    9.2485   10.3012   23.7548 C   0  0  0  0  0  0  0  0  0  0  0  0
    9.8949    9.4763   23.1215 O   0  0  0  0  0  0  0  0  0  0  0  0
    9.4372   11.8122   23.6335 C   0  0  0  0  0  0  0  0  0  0  0  0
    8.3114   12.6487   23.9013 O   0  0  0  0  0  0  0  0  0  0  0  0
    2.5511   16.1753   26.3952 C   0  0  0  0  0  0  0  0  0  0  0  0
    3.2004   16.5667   27.7042 C   0  0  0  0  0  0  0  0  0  0  0  0
    3.8759   16.9066   26.4074 C   0  0  0  0  0  0  0  0  0  0  0  0
  1  2  1  0
  2  3  1  0
  2  4  1  0
  4  5  1  0
  5  6  2  0
  5  7  1  0
  7  8  2  0
  8  9  1  0
  9 10  2  0
 10 11  1  0
 11 12  2  0
 10 13  1  0
 13 14  1  0
 14 15  2  0
 14 16  1  0
 16 17  1  0
  2 18  1  0
 18 19  1  0
 19 20  1  0
 12  7  1  0
 20 18  1  0
 17  9  1  0
M  END
>  <energy_score>  (4873) 
-6.523046

>  <inchikey>  (4873) 
BMTDYDBPJGCXGY-UHFFFAOYSA-N

>  <smiles>  (4873) 
CC(C)(NC(=O)c1cc2c(cn1)NC(=O)CO2)C1CC1

>  <ref_pdb>  (4873) 
A1068a

>  <alias>  (4873) 
BMTDYDBPJGCXGY-UHFFFAOYSA-N-P37-P37-P198-601513

>  <HIPPO Pose ID>  (4873) 
523516

>  <name>  (4873) 
BMTDYDBPJGCXGY-UHFFFAOYSA-N-P37-P37-P198-601513

>  <HIPPO Compound ID>  (4873) 
302216

>  <ref_mols>  (4873) 
A0310a,A3618a

>  <distance_score>  (4873) 
1.924763

>  <inspiration_score>  (4873) 
None

$$$$
BMTDYDBPJGCXGY-UHFFFAOYSA-N-P198-P37-P198-601513
     RDKit          3D

 20 22  0  0  0  0  0  0  0  0999 V2000
    1.2802   14.1850   26.3213 C   0  0  0  0  0  0  0  0  0  0  0  0
    2.2524   14.6923   25.2392 C   0  0  0  0  0  0  0  0  0  0  0  0
    1.5707   14.5544   23.8631 C   0  0  0  0  0  0  0  0  0  0  0  0
    3.4596   13.8767   25.2274 N   0  0  0  0  0  0  0  0  0  0  0  0
    4.3354   13.3637   26.3921 C   0  0  0  0  0  0  0  0  0  0  0  0
    4.2715   13.5775   27.5372 O   0  0  0  0  0  0  0  0  0  0  0  0
    5.3999   12.4568   25.8775 C   0  0  0  0  0  0  0  0  0  0  0  0
    6.3548   12.9199   24.9932 C   0  0  0  0  0  0  0  0  0  0  0  0
    7.2932   12.0163   24.5089 C   0  0  0  0  0  0  0  0  0  0  0  0
    7.2373   10.6872   24.8914 C   0  0  0  0  0  0  0  0  0  0  0  0
    6.2342   10.3218   25.7679 C   0  0  0  0  0  0  0  0  0  0  0  0
    5.3295   11.1763   26.2874 N   0  0  0  0  0  0  0  0  0  0  0  0
    8.1141    9.7571   24.3399 N   0  0  0  0  0  0  0  0  0  0  0  0
    9.1180   10.1358   23.4913 C   0  0  0  0  0  0  0  0  0  0  0  0
    9.8042    9.3062   22.9069 O   0  0  0  0  0  0  0  0  0  0  0  0
    9.3158   11.6527   23.3809 C   0  0  0  0  0  0  0  0  0  0  0  0
    8.1839   12.4929   23.5867 O   0  0  0  0  0  0  0  0  0  0  0  0
    2.5573   16.1661   25.4634 C   0  0  0  0  0  0  0  0  0  0  0  0
    3.5180   16.6861   26.5073 C   0  0  0  0  0  0  0  0  0  0  0  0
    3.8698   16.7960   25.0496 C   0  0  0  0  0  0  0  0  0  0  0  0
  1  2  1  0
  2  3  1  0
  2  4  1  0
  4  5  1  0
  5  6  2  0
  5  7  1  0
  7  8  2  0
  8  9  1  0
  9 10  2  0
 10 11  1  0
 11 12  2  0
 10 13  1  0
 13 14  1  0
 14 15  2  0
 14 16  1  0
 16 17  1  0
  2 18  1  0
 18 19  1  0
 19 20  1  0
 12  7  1  0
 20 18  1  0
 17  9  1  0
M  END
>  <energy_score>  (4874) 
-7.921113

>  <inchikey>  (4874) 
BMTDYDBPJGCXGY-UHFFFAOYSA-N

>  <smiles>  (4874) 
CC(C)(NC(=O)c1cc2c(cn1)NC(=O)CO2)C1CC1

>  <ref_pdb>  (4874) 
A1068a

>  <alias>  (4874) 
BMTDYDBPJGCXGY-UHFFFAOYSA-N-P198-P37-P198-601513

>  <HIPPO Pose ID>  (4874) 
523517

>  <name>  (4874) 
BMTDYDBPJGCXGY-UHFFFAOYSA-N-P198-P37-P198-601513

>  <HIPPO Compound ID>  (4874) 
302216

>  <ref_mols>  (4874) 
A0310a,A3618a

>  <distance_score>  (4874) 
1.953282

>  <inspiration_score>  (4874) 
None

$$$$
AVMXAQCSXKWKQT-UHFFFAOYSA-N-P37-P37-P198-601513
     RDKit          3D

 20 22  0  0  0  0  0  0  0  0999 V2000
    0.7819   13.3287   27.1957 C   0  0  0  0  0  0  0  0  0  0  0  0
    1.8497   13.8656   27.3073 C   0  0  0  0  0  0  0  0  0  0  0  0
    3.1220   14.5607   27.5335 C   0  0  2  0  0  0  0  0  0  0  0  0
    4.2496   13.8597   26.9976 N   0  0  0  0  0  0  0  0  0  0  0  0
    4.7194   12.4107   27.2111 C   0  0  0  0  0  0  0  0  0  0  0  0
    4.3080   11.5795   27.9163 O   0  0  0  0  0  0  0  0  0  0  0  0
    5.9300   12.1555   26.3485 C   0  0  0  0  0  0  0  0  0  0  0  0
    6.4098   10.8668   26.1690 C   0  0  0  0  0  0  0  0  0  0  0  0
    7.4725   10.6957   25.2878 C   0  0  0  0  0  0  0  0  0  0  0  0
    8.0363   11.7917   24.6468 C   0  0  0  0  0  0  0  0  0  0  0  0
    7.5102   13.0450   24.9138 C   0  0  0  0  0  0  0  0  0  0  0  0
    6.4695   13.2575   25.7505 N   0  0  0  0  0  0  0  0  0  0  0  0
    9.0936   11.6150   23.7561 N   0  0  0  0  0  0  0  0  0  0  0  0
    9.5192   10.3725   23.3883 C   0  0  0  0  0  0  0  0  0  0  0  0
   10.4020   10.2006   22.5628 O   0  0  0  0  0  0  0  0  0  0  0  0
    8.7816    9.2199   23.9927 C   0  0  0  0  0  0  0  0  0  0  0  0
    7.9258    9.4255   25.1019 O   0  0  0  0  0  0  0  0  0  0  0  0
    3.2471   14.6719   29.0248 C   0  0  0  0  0  0  0  0  0  0  0  0
    4.1529   15.7161   29.6371 C   0  0  0  0  0  0  0  0  0  0  0  0
    2.6621   15.8481   29.7726 C   0  0  0  0  0  0  0  0  0  0  0  0
  1  2  3  0
  3  2  1  1
  3  4  1  0
  4  5  1  0
  5  6  2  0
  5  7  1  0
  7  8  2  0
  8  9  1  0
  9 10  2  0
 10 11  1  0
 11 12  2  0
 10 13  1  0
 13 14  1  0
 14 15  2  0
 14 16  1  0
 16 17  1  0
  3 18  1  0
 18 19  1  0
 19 20  1  0
 12  7  1  0
 20 18  1  0
 17  9  1  0
M  END
>  <energy_score>  (4875) 
-12.721105

>  <inchikey>  (4875) 
AVMXAQCSXKWKQT-UHFFFAOYSA-N

>  <smiles>  (4875) 
C#CC(NC(=O)c1cc2c(cn1)NC(=O)CO2)C1CC1

>  <ref_pdb>  (4875) 
A1068a

>  <alias>  (4875) 
AVMXAQCSXKWKQT-UHFFFAOYSA-N-P37-P37-P198-601513

>  <HIPPO Pose ID>  (4875) 
523520

>  <name>  (4875) 
AVMXAQCSXKWKQT-UHFFFAOYSA-N-P37-P37-P198-601513

>  <HIPPO Compound ID>  (4875) 
302218

>  <ref_mols>  (4875) 
A0310a,A3618a

>  <distance_score>  (4875) 
1.776447

>  <inspiration_score>  (4875) 
None

$$$$
AVMXAQCSXKWKQT-UHFFFAOYSA-N-P198-P37-P198-601513
     RDKit          3D

 20 22  0  0  0  0  0  0  0  0999 V2000
    0.1065   13.6645   25.8409 C   0  0  0  0  0  0  0  0  0  0  0  0
    0.9725   13.4011   26.6317 C   0  0  0  0  0  0  0  0  0  0  0  0
    2.0455   13.1069   27.5924 C   0  0  2  0  0  0  0  0  0  0  0  0
    3.2278   12.6849   26.9092 N   0  0  0  0  0  0  0  0  0  0  0  0
    4.3398   13.5060   26.2383 C   0  0  0  0  0  0  0  0  0  0  0  0
    4.4322   14.6539   26.0677 O   0  0  0  0  0  0  0  0  0  0  0  0
    5.4183   12.5682   25.7619 C   0  0  0  0  0  0  0  0  0  0  0  0
    6.4074   12.9974   24.8970 C   0  0  0  0  0  0  0  0  0  0  0  0
    7.3415   12.0713   24.4455 C   0  0  0  0  0  0  0  0  0  0  0  0
    7.2594   10.7507   24.8565 C   0  0  0  0  0  0  0  0  0  0  0  0
    6.2377   10.4148   25.7265 C   0  0  0  0  0  0  0  0  0  0  0  0
    5.3277   11.2902   26.2089 N   0  0  0  0  0  0  0  0  0  0  0  0
    8.1267    9.7952   24.3335 N   0  0  0  0  0  0  0  0  0  0  0  0
    9.1389   10.1398   23.4791 C   0  0  0  0  0  0  0  0  0  0  0  0
    9.8048    9.2839   22.9090 O   0  0  0  0  0  0  0  0  0  0  0  0
    9.3694   11.6505   23.3459 C   0  0  0  0  0  0  0  0  0  0  0  0
    8.2496   12.5146   23.5191 O   0  0  0  0  0  0  0  0  0  0  0  0
    1.5061   11.9738   28.4164 C   0  0  0  0  0  0  0  0  0  0  0  0
    2.0800   11.6988   29.7865 C   0  0  0  0  0  0  0  0  0  0  0  0
    0.6799   12.2293   29.6550 C   0  0  0  0  0  0  0  0  0  0  0  0
  1  2  3  0
  3  2  1  6
  3  4  1  0
  4  5  1  0
  5  6  2  0
  5  7  1  0
  7  8  2  0
  8  9  1  0
  9 10  2  0
 10 11  1  0
 11 12  2  0
 10 13  1  0
 13 14  1  0
 14 15  2  0
 14 16  1  0
 16 17  1  0
  3 18  1  0
 18 19  1  0
 19 20  1  0
 12  7  1  0
 20 18  1  0
 17  9  1  0
M  END
>  <energy_score>  (4876) 
-15.398144

>  <inchikey>  (4876) 
AVMXAQCSXKWKQT-UHFFFAOYSA-N

>  <smiles>  (4876) 
C#CC(NC(=O)c1cc2c(cn1)NC(=O)CO2)C1CC1

>  <ref_pdb>  (4876) 
A1068a

>  <alias>  (4876) 
AVMXAQCSXKWKQT-UHFFFAOYSA-N-P198-P37-P198-601513

>  <HIPPO Pose ID>  (4876) 
523521

>  <name>  (4876) 
AVMXAQCSXKWKQT-UHFFFAOYSA-N-P198-P37-P198-601513

>  <HIPPO Compound ID>  (4876) 
302218

>  <ref_mols>  (4876) 
A0310a,A3618a

>  <distance_score>  (4876) 
1.979566

>  <inspiration_score>  (4876) 
None

$$$$
OTZMOCRNMXTGLL-UHFFFAOYSA-N-P37-P37-P198-601513
     RDKit          3D

 20 22  0  0  0  0  0  0  0  0999 V2000
    1.4382   13.9325   26.4360 C   0  0  0  0  0  0  0  0  0  0  0  0
    2.5750   13.8522   27.4720 C   0  0  0  0  0  0  0  0  0  0  0  0
    2.1540   12.8674   28.5738 C   0  0  0  0  0  0  0  0  0  0  0  0
    3.7969   13.3987   26.8120 N   0  0  0  0  0  0  0  0  0  0  0  0
    5.0071   12.6054   27.3689 C   0  0  0  0  0  0  0  0  0  0  0  0
    5.2486   12.2593   28.4581 O   0  0  0  0  0  0  0  0  0  0  0  0
    6.0376   12.3598   26.3040 C   0  0  0  0  0  0  0  0  0  0  0  0
    6.5522   13.4409   25.5952 C   0  0  0  0  0  0  0  0  0  0  0  0
    7.5872   13.2095   24.6912 C   0  0  0  0  0  0  0  0  0  0  0  0
    8.0630   11.9151   24.5305 C   0  0  0  0  0  0  0  0  0  0  0  0
    7.4836   10.8939   25.2792 C   0  0  0  0  0  0  0  0  0  0  0  0
    6.4857   11.0870   26.1658 N   0  0  0  0  0  0  0  0  0  0  0  0
    7.9376    9.6114   25.2099 O   0  0  0  0  0  0  0  0  0  0  0  0
    8.7381    9.2984   24.0878 C   0  0  0  0  0  0  0  0  0  0  0  0
    9.5043   10.3708   23.3773 C   0  0  0  0  0  0  0  0  0  0  0  0
   10.3759   10.1058   22.5640 O   0  0  0  0  0  0  0  0  0  0  0  0
    9.1048   11.6491   23.6410 N   0  0  0  0  0  0  0  0  0  0  0  0
    2.7665   15.2369   28.0741 C   0  0  0  0  0  0  0  0  0  0  0  0
    3.5807   16.3118   27.3880 C   0  0  0  0  0  0  0  0  0  0  0  0
    4.0661   15.7138   28.6807 C   0  0  0  0  0  0  0  0  0  0  0  0
  1  2  1  0
  2  3  1  0
  2  4  1  0
  4  5  1  0
  5  6  2  0
  5  7  1  0
  7  8  2  0
  8  9  1  0
  9 10  2  0
 10 11  1  0
 11 12  2  0
 11 13  1  0
 13 14  1  0
 14 15  1  0
 15 16  2  0
 15 17  1  0
  2 18  1  0
 18 19  1  0
 19 20  1  0
 12  7  1  0
 20 18  1  0
 17 10  1  0
M  END
>  <energy_score>  (4877) 
-5.91878

>  <inchikey>  (4877) 
OTZMOCRNMXTGLL-UHFFFAOYSA-N

>  <smiles>  (4877) 
CC(C)(NC(=O)c1ccc2c(n1)OCC(=O)N2)C1CC1

>  <ref_pdb>  (4877) 
A1068a

>  <alias>  (4877) 
OTZMOCRNMXTGLL-UHFFFAOYSA-N-P37-P37-P198-601513

>  <HIPPO Pose ID>  (4877) 
523522

>  <name>  (4877) 
OTZMOCRNMXTGLL-UHFFFAOYSA-N-P37-P37-P198-601513

>  <HIPPO Compound ID>  (4877) 
302219

>  <ref_mols>  (4877) 
A0310a,A3618a

>  <distance_score>  (4877) 
1.666785

>  <inspiration_score>  (4877) 
None

$$$$
GQDZPBQFKKVNJT-UHFFFAOYSA-N-P37-P37-P198-601513
     RDKit          3D

 20 22  0  0  0  0  0  0  0  0999 V2000
    1.4717   14.1018   26.7441 C   0  0  0  0  0  0  0  0  0  0  0  0
    2.3713   13.4696   27.8063 C   0  0  2  0  0  0  0  0  0  0  0  0
    3.6520   13.1015   27.2258 N   0  0  0  0  0  0  0  0  0  0  0  0
    4.6494   11.9959   27.6214 C   0  0  0  0  0  0  0  0  0  0  0  0
    4.6387   11.2556   28.5216 O   0  0  0  0  0  0  0  0  0  0  0  0
    5.7670   11.9337   26.6179 C   0  0  0  0  0  0  0  0  0  0  0  0
    6.4009   10.7251   26.3807 C   0  0  0  0  0  0  0  0  0  0  0  0
    7.4059   10.7003   25.4223 C   0  0  0  0  0  0  0  0  0  0  0  0
    7.7712   11.8626   24.7593 C   0  0  0  0  0  0  0  0  0  0  0  0
    7.0788   13.0269   25.0625 C   0  0  0  0  0  0  0  0  0  0  0  0
    6.0702   13.0913   25.9682 N   0  0  0  0  0  0  0  0  0  0  0  0
    8.8167   11.8325   23.8354 N   0  0  0  0  0  0  0  0  0  0  0  0
    9.4314   10.6628   23.4841 C   0  0  0  0  0  0  0  0  0  0  0  0
   10.3746   10.6253   22.7091 O   0  0  0  0  0  0  0  0  0  0  0  0
    8.8337    9.4117   24.0515 C   0  0  0  0  0  0  0  0  0  0  0  0
    8.0290    9.5102   25.2127 O   0  0  0  0  0  0  0  0  0  0  0  0
    1.6713   12.2749   28.4165 C   0  0  0  0  0  0  0  0  0  0  0  0
    1.4229   11.2079   27.5545 F   0  0  0  0  0  0  0  0  0  0  0  0
    0.6045   12.4888   29.4635 C   0  0  0  0  0  0  0  0  0  0  0  0
    1.9234   11.8886   29.8520 C   0  0  0  0  0  0  0  0  0  0  0  0
  2  1  1  6
  2  3  1  0
  3  4  1  0
  4  5  2  0
  4  6  1  0
  6  7  2  0
  7  8  1  0
  8  9  2  0
  9 10  1  0
 10 11  2  0
  9 12  1  0
 12 13  1  0
 13 14  2  0
 13 15  1  0
 15 16  1  0
  2 17  1  0
 17 18  1  0
 17 19  1  0
 19 20  1  0
 11  6  1  0
 20 17  1  0
 16  8  1  0
M  END
>  <energy_score>  (4878) 
-0.574475

>  <inchikey>  (4878) 
GQDZPBQFKKVNJT-UHFFFAOYSA-N

>  <smiles>  (4878) 
CC(NC(=O)c1cc2c(cn1)NC(=O)CO2)C1(F)CC1

>  <ref_pdb>  (4878) 
A1068a

>  <alias>  (4878) 
GQDZPBQFKKVNJT-UHFFFAOYSA-N-P37-P37-P198-601513

>  <HIPPO Pose ID>  (4878) 
523540

>  <name>  (4878) 
GQDZPBQFKKVNJT-UHFFFAOYSA-N-P37-P37-P198-601513

>  <HIPPO Compound ID>  (4878) 
302228

>  <ref_mols>  (4878) 
A0310a,A3618a

>  <distance_score>  (4878) 
1.541224

>  <inspiration_score>  (4878) 
None

$$$$
GQDZPBQFKKVNJT-UHFFFAOYSA-N-P198-P37-P198-601513
     RDKit          3D

 20 22  0  0  0  0  0  0  0  0999 V2000
    0.9858   13.7662   26.9595 C   0  0  0  0  0  0  0  0  0  0  0  0
    1.9852   13.2079   27.9677 C   0  0  2  0  0  0  0  0  0  0  0  0
    3.1561   12.7175   27.2843 N   0  0  0  0  0  0  0  0  0  0  0  0
    4.4085   13.4589   26.7926 C   0  0  0  0  0  0  0  0  0  0  0  0
    4.6612   14.5954   26.7919 O   0  0  0  0  0  0  0  0  0  0  0  0
    5.3705   12.4680   26.1925 C   0  0  0  0  0  0  0  0  0  0  0  0
    6.5610   12.8901   25.6389 C   0  0  0  0  0  0  0  0  0  0  0  0
    7.3978   11.9393   25.0694 C   0  0  0  0  0  0  0  0  0  0  0  0
    7.0396   10.6042   25.0547 C   0  0  0  0  0  0  0  0  0  0  0  0
    5.8460   10.2704   25.6692 C   0  0  0  0  0  0  0  0  0  0  0  0
    5.0020   11.1657   26.2381 N   0  0  0  0  0  0  0  0  0  0  0  0
    7.8601    9.6638   24.4288 N   0  0  0  0  0  0  0  0  0  0  0  0
    8.9344   10.0450   23.6654 C   0  0  0  0  0  0  0  0  0  0  0  0
    9.5977    9.2332   23.0290 O   0  0  0  0  0  0  0  0  0  0  0  0
    9.1582   11.5586   23.5968 C   0  0  0  0  0  0  0  0  0  0  0  0
    8.6045   12.3850   24.6108 O   0  0  0  0  0  0  0  0  0  0  0  0
    1.3688   12.0950   28.7751 C   0  0  0  0  0  0  0  0  0  0  0  0
    0.8505   11.0334   28.0392 F   0  0  0  0  0  0  0  0  0  0  0  0
    0.6395   12.3960   30.0588 C   0  0  0  0  0  0  0  0  0  0  0  0
    1.9736   11.7050   30.0994 C   0  0  0  0  0  0  0  0  0  0  0  0
  2  1  1  6
  2  3  1  0
  3  4  1  0
  4  5  2  0
  4  6  1  0
  6  7  2  0
  7  8  1  0
  8  9  2  0
  9 10  1  0
 10 11  2  0
  9 12  1  0
 12 13  1  0
 13 14  2  0
 13 15  1  0
 15 16  1  0
  2 17  1  0
 17 18  1  0
 17 19  1  0
 19 20  1  0
 11  6  1  0
 20 17  1  0
 16  8  1  0
M  END
>  <energy_score>  (4879) 
-7.942403

>  <inchikey>  (4879) 
GQDZPBQFKKVNJT-UHFFFAOYSA-N

>  <smiles>  (4879) 
CC(NC(=O)c1cc2c(cn1)NC(=O)CO2)C1(F)CC1

>  <ref_pdb>  (4879) 
A1068a

>  <alias>  (4879) 
GQDZPBQFKKVNJT-UHFFFAOYSA-N-P198-P37-P198-601513

>  <HIPPO Pose ID>  (4879) 
523541

>  <name>  (4879) 
GQDZPBQFKKVNJT-UHFFFAOYSA-N-P198-P37-P198-601513

>  <HIPPO Compound ID>  (4879) 
302228

>  <ref_mols>  (4879) 
A0310a,A3618a

>  <distance_score>  (4879) 
1.940007

>  <inspiration_score>  (4879) 
None

$$$$
JTAWIUYHQLVRHJ-UHFFFAOYSA-N-P37-P37-P198-601513
     RDKit          3D

 20 22  0  0  0  0  0  0  0  0999 V2000
    1.4938   14.3276   24.9168 C   0  0  0  0  0  0  0  0  0  0  0  0
    1.5711   14.5105   26.4261 C   0  0  0  0  0  0  0  0  0  0  0  0
    2.8473   15.2382   26.8946 C   0  0  1  0  0  0  0  0  0  0  0  0
    4.0014   14.4047   26.6640 N   0  0  0  0  0  0  0  0  0  0  0  0
    4.5455   13.2194   27.4603 C   0  0  0  0  0  0  0  0  0  0  0  0
    4.1971   12.7682   28.4751 O   0  0  0  0  0  0  0  0  0  0  0  0
    5.6404   12.5016   26.7228 C   0  0  0  0  0  0  0  0  0  0  0  0
    5.7990   11.1731   27.0552 C   0  0  0  0  0  0  0  0  0  0  0  0
    6.7023   10.4201   26.3379 C   0  0  0  0  0  0  0  0  0  0  0  0
    7.4661   10.9893   25.3486 C   0  0  0  0  0  0  0  0  0  0  0  0
    7.2689   12.3361   25.0835 C   0  0  0  0  0  0  0  0  0  0  0  0
    6.3417   13.1027   25.7279 N   0  0  0  0  0  0  0  0  0  0  0  0
    7.9756   12.9666   24.0847 O   0  0  0  0  0  0  0  0  0  0  0  0
    9.1718   12.2876   23.6903 C   0  0  0  0  0  0  0  0  0  0  0  0
    9.1988   10.7544   23.7075 C   0  0  0  0  0  0  0  0  0  0  0  0
    9.9283   10.0553   23.0160 O   0  0  0  0  0  0  0  0  0  0  0  0
    8.3646   10.2019   24.6350 N   0  0  0  0  0  0  0  0  0  0  0  0
    3.0328   16.5909   26.2874 C   0  0  0  0  0  0  0  0  0  0  0  0
    2.1403   17.7363   26.7013 C   0  0  0  0  0  0  0  0  0  0  0  0
    3.5847   17.7270   27.1125 C   0  0  0  0  0  0  0  0  0  0  0  0
  1  2  1  0
  3  2  1  6
  3  4  1  0
  4  5  1  0
  5  6  2  0
  5  7  1  0
  7  8  2  0
  8  9  1  0
  9 10  2  0
 10 11  1  0
 11 12  2  0
 11 13  1  0
 13 14  1  0
 14 15  1  0
 15 16  2  0
 15 17  1  0
  3 18  1  0
 18 19  1  0
 19 20  1  0
 12  7  1  0
 20 18  1  0
 17 10  1  0
M  END
>  <energy_score>  (4880) 
-18.852217

>  <inchikey>  (4880) 
JTAWIUYHQLVRHJ-UHFFFAOYSA-N

>  <smiles>  (4880) 
CCC(NC(=O)c1ccc2c(n1)OCC(=O)N2)C1CC1

>  <ref_pdb>  (4880) 
A1068a

>  <alias>  (4880) 
JTAWIUYHQLVRHJ-UHFFFAOYSA-N-P37-P37-P198-601513

>  <HIPPO Pose ID>  (4880) 
523560

>  <name>  (4880) 
JTAWIUYHQLVRHJ-UHFFFAOYSA-N-P37-P37-P198-601513

>  <HIPPO Compound ID>  (4880) 
302238

>  <ref_mols>  (4880) 
A0310a,A3618a

>  <distance_score>  (4880) 
1.982035

>  <inspiration_score>  (4880) 
None

$$$$
JTAWIUYHQLVRHJ-UHFFFAOYSA-N-P198-P37-P198-601513
     RDKit          3D

 20 22  0  0  0  0  0  0  0  0999 V2000
    0.7829   13.3701   27.0169 C   0  0  0  0  0  0  0  0  0  0  0  0
    1.2247   14.5446   26.1561 C   0  0  0  0  0  0  0  0  0  0  0  0
    2.6368   15.0686   26.4798 C   0  0  1  0  0  0  0  0  0  0  0  0
    3.6442   14.0834   26.1880 N   0  0  0  0  0  0  0  0  0  0  0  0
    4.1784   12.9251   27.0354 C   0  0  0  0  0  0  0  0  0  0  0  0
    3.8376   12.5319   28.0767 O   0  0  0  0  0  0  0  0  0  0  0  0
    5.2403   12.1717   26.2977 C   0  0  0  0  0  0  0  0  0  0  0  0
    5.2984   10.8105   26.5081 C   0  0  0  0  0  0  0  0  0  0  0  0
    6.2415   10.0855   25.8065 C   0  0  0  0  0  0  0  0  0  0  0  0
    7.1284   10.7205   24.9701 C   0  0  0  0  0  0  0  0  0  0  0  0
    6.9956   12.0896   24.8010 C   0  0  0  0  0  0  0  0  0  0  0  0
    6.0495   12.8305   25.4286 N   0  0  0  0  0  0  0  0  0  0  0  0
    7.7830   12.7781   23.9096 O   0  0  0  0  0  0  0  0  0  0  0  0
    8.9996   12.1106   23.5746 C   0  0  0  0  0  0  0  0  0  0  0  0
    9.0009   10.5768   23.4898 C   0  0  0  0  0  0  0  0  0  0  0  0
    9.7658    9.9080   22.8089 O   0  0  0  0  0  0  0  0  0  0  0  0
    8.0804    9.9737   24.2904 N   0  0  0  0  0  0  0  0  0  0  0  0
    2.9455   16.3197   25.7090 C   0  0  0  0  0  0  0  0  0  0  0  0
    2.6356   17.6728   26.3002 C   0  0  0  0  0  0  0  0  0  0  0  0
    4.0643   17.2257   26.1616 C   0  0  0  0  0  0  0  0  0  0  0  0
  1  2  1  0
  3  2  1  6
  3  4  1  0
  4  5  1  0
  5  6  2  0
  5  7  1  0
  7  8  2  0
  8  9  1  0
  9 10  2  0
 10 11  1  0
 11 12  2  0
 11 13  1  0
 13 14  1  0
 14 15  1  0
 15 16  2  0
 15 17  1  0
  3 18  1  0
 18 19  1  0
 19 20  1  0
 12  7  1  0
 20 18  1  0
 17 10  1  0
M  END
>  <energy_score>  (4881) 
-19.648218

>  <inchikey>  (4881) 
JTAWIUYHQLVRHJ-UHFFFAOYSA-N

>  <smiles>  (4881) 
CCC(NC(=O)c1ccc2c(n1)OCC(=O)N2)C1CC1

>  <ref_pdb>  (4881) 
A1068a

>  <alias>  (4881) 
JTAWIUYHQLVRHJ-UHFFFAOYSA-N-P198-P37-P198-601513

>  <HIPPO Pose ID>  (4881) 
523561

>  <name>  (4881) 
JTAWIUYHQLVRHJ-UHFFFAOYSA-N-P198-P37-P198-601513

>  <HIPPO Compound ID>  (4881) 
302238

>  <ref_mols>  (4881) 
A0310a,A3618a

>  <distance_score>  (4881) 
1.888241

>  <inspiration_score>  (4881) 
None

$$$$
DYHZPXCHUGKQMD-UHFFFAOYSA-N-P37-P37-P198-601513
     RDKit          3D

 20 22  0  0  0  0  0  0  0  0999 V2000
    1.8678   15.2375   26.2455 C   0  0  0  0  0  0  0  0  0  0  0  0
    3.1475   15.5325   27.0321 C   0  0  1  0  0  0  0  0  0  0  0  0
    4.1414   14.5380   26.7118 N   0  0  0  0  0  0  0  0  0  0  0  0
    4.2165   13.0584   27.0746 C   0  0  0  0  0  0  0  0  0  0  0  0
    3.4516   12.3768   27.6271 O   0  0  0  0  0  0  0  0  0  0  0  0
    5.4710   12.4155   26.5446 C   0  0  0  0  0  0  0  0  0  0  0  0
    5.6828   11.1098   26.9280 C   0  0  0  0  0  0  0  0  0  0  0  0
    6.6899   10.4032   26.3090 C   0  0  0  0  0  0  0  0  0  0  0  0
    7.4806   10.9895   25.3507 C   0  0  0  0  0  0  0  0  0  0  0  0
    7.2590   12.3284   25.0700 C   0  0  0  0  0  0  0  0  0  0  0  0
    6.2649   13.0606   25.6495 N   0  0  0  0  0  0  0  0  0  0  0  0
    7.9916   12.9802   24.1050 O   0  0  0  0  0  0  0  0  0  0  0  0
    9.1852   12.3043   23.7006 C   0  0  0  0  0  0  0  0  0  0  0  0
    9.2283   10.7721   23.7245 C   0  0  0  0  0  0  0  0  0  0  0  0
    9.9570   10.0770   23.0281 O   0  0  0  0  0  0  0  0  0  0  0  0
    8.4110   10.2158   24.6637 N   0  0  0  0  0  0  0  0  0  0  0  0
    3.7222   16.9255   26.8350 C   0  0  0  0  0  0  0  0  0  0  0  0
    5.0124   16.9734   26.1887 O   0  0  0  0  0  0  0  0  0  0  0  0
    3.6040   17.9065   27.9826 C   0  0  0  0  0  0  0  0  0  0  0  0
    2.8690   18.1660   26.7058 C   0  0  0  0  0  0  0  0  0  0  0  0
  2  1  1  6
  2  3  1  0
  3  4  1  0
  4  5  2  0
  4  6  1  0
  6  7  2  0
  7  8  1  0
  8  9  2  0
  9 10  1  0
 10 11  2  0
 10 12  1  0
 12 13  1  0
 13 14  1  0
 14 15  2  0
 14 16  1  0
  2 17  1  0
 17 18  1  0
 17 19  1  0
 19 20  1  0
 11  6  1  0
 20 17  1  0
 16  9  1  0
M  END
>  <energy_score>  (4882) 
-11.395334

>  <inchikey>  (4882) 
DYHZPXCHUGKQMD-UHFFFAOYSA-N

>  <smiles>  (4882) 
CC(NC(=O)c1ccc2c(n1)OCC(=O)N2)C1(O)CC1

>  <ref_pdb>  (4882) 
A1068a

>  <alias>  (4882) 
DYHZPXCHUGKQMD-UHFFFAOYSA-N-P37-P37-P198-601513

>  <HIPPO Pose ID>  (4882) 
523562

>  <name>  (4882) 
DYHZPXCHUGKQMD-UHFFFAOYSA-N-P37-P37-P198-601513

>  <HIPPO Compound ID>  (4882) 
302239

>  <ref_mols>  (4882) 
A0310a,A3618a

>  <distance_score>  (4882) 
1.991652

>  <inspiration_score>  (4882) 
None

$$$$
DYHZPXCHUGKQMD-UHFFFAOYSA-N-P198-P37-P198-601513
     RDKit          3D

 20 22  0  0  0  0  0  0  0  0999 V2000
    1.2750   14.1818   25.8409 C   0  0  0  0  0  0  0  0  0  0  0  0
    2.4365   14.7686   25.0292 C   0  0  1  0  0  0  0  0  0  0  0  0
    3.6393   13.9808   25.1662 N   0  0  0  0  0  0  0  0  0  0  0  0
    4.2404   13.2860   26.3927 C   0  0  0  0  0  0  0  0  0  0  0  0
    3.9057   13.2992   27.5070 O   0  0  0  0  0  0  0  0  0  0  0  0
    5.3670   12.4124   25.9526 C   0  0  0  0  0  0  0  0  0  0  0  0
    5.3912   11.1178   26.4252 C   0  0  0  0  0  0  0  0  0  0  0  0
    6.3120   10.2464   25.8661 C   0  0  0  0  0  0  0  0  0  0  0  0
    7.2180   10.6999   24.9278 C   0  0  0  0  0  0  0  0  0  0  0  0
    7.1349   12.0271   24.5302 C   0  0  0  0  0  0  0  0  0  0  0  0
    6.1996   12.8822   24.9900 N   0  0  0  0  0  0  0  0  0  0  0  0
    7.9389   12.5295   23.5329 O   0  0  0  0  0  0  0  0  0  0  0  0
    9.1719   11.8207   23.4194 C   0  0  0  0  0  0  0  0  0  0  0  0
    9.0864   10.2895   23.4808 C   0  0  0  0  0  0  0  0  0  0  0  0
    9.8107    9.5195   22.8655 O   0  0  0  0  0  0  0  0  0  0  0  0
    8.1335    9.8283   24.3467 N   0  0  0  0  0  0  0  0  0  0  0  0
    2.0923   14.8393   23.5527 C   0  0  0  0  0  0  0  0  0  0  0  0
    1.9527   13.5644   22.8900 O   0  0  0  0  0  0  0  0  0  0  0  0
    2.6790   15.9317   22.6959 C   0  0  0  0  0  0  0  0  0  0  0  0
    1.2117   15.9389   23.0240 C   0  0  0  0  0  0  0  0  0  0  0  0
  2  1  1  1
  2  3  1  0
  3  4  1  0
  4  5  2  0
  4  6  1  0
  6  7  2  0
  7  8  1  0
  8  9  2  0
  9 10  1  0
 10 11  2  0
 10 12  1  0
 12 13  1  0
 13 14  1  0
 14 15  2  0
 14 16  1  0
  2 17  1  0
 17 18  1  0
 17 19  1  0
 19 20  1  0
 11  6  1  0
 20 17  1  0
 16  9  1  0
M  END
>  <energy_score>  (4883) 
-10.373461

>  <inchikey>  (4883) 
DYHZPXCHUGKQMD-UHFFFAOYSA-N

>  <smiles>  (4883) 
CC(NC(=O)c1ccc2c(n1)OCC(=O)N2)C1(O)CC1

>  <ref_pdb>  (4883) 
A1068a

>  <alias>  (4883) 
DYHZPXCHUGKQMD-UHFFFAOYSA-N-P198-P37-P198-601513

>  <HIPPO Pose ID>  (4883) 
523563

>  <name>  (4883) 
DYHZPXCHUGKQMD-UHFFFAOYSA-N-P198-P37-P198-601513

>  <HIPPO Compound ID>  (4883) 
302239

>  <ref_mols>  (4883) 
A0310a,A3618a

>  <distance_score>  (4883) 
1.987014

>  <inspiration_score>  (4883) 
None

$$$$
CZUYWEGJAVCDKC-UHFFFAOYSA-N-P198-P37-P198-601513
     RDKit          3D

 20 22  0  0  0  0  0  0  0  0999 V2000
    9.7532    9.8880   22.8050 O   0  0  0  0  0  0  0  0  0  0  0  0
    8.9990   10.5642   23.4905 C   0  0  0  0  0  0  0  0  0  0  0  0
    9.0046   12.0982   23.5699 C   0  0  0  0  0  0  0  0  0  0  0  0
    7.7838   12.7685   23.8882 O   0  0  0  0  0  0  0  0  0  0  0  0
    6.9940   12.0902   24.7860 C   0  0  0  0  0  0  0  0  0  0  0  0
    6.0437   12.8378   25.4000 N   0  0  0  0  0  0  0  0  0  0  0  0
    5.2281   12.1859   26.2699 C   0  0  0  0  0  0  0  0  0  0  0  0
    4.1673   12.9513   26.9972 C   0  0  0  0  0  0  0  0  0  0  0  0
    3.8099   12.5661   28.0352 O   0  0  0  0  0  0  0  0  0  0  0  0
    3.6770   14.1301   26.1538 N   0  0  0  0  0  0  0  0  0  0  0  0
    2.5739   15.0368   26.3613 C   0  0  2  0  0  0  0  0  0  0  0  0
    1.2484   14.4352   25.8671 C   0  0  0  0  0  0  0  0  0  0  0  0
    0.9769   13.2554   26.4880 F   0  0  0  0  0  0  0  0  0  0  0  0
    2.8791   16.3443   25.6895 C   0  0  0  0  0  0  0  0  0  0  0  0
    3.8800   17.2917   26.3046 C   0  0  0  0  0  0  0  0  0  0  0  0
    2.4185   17.6437   26.3025 C   0  0  0  0  0  0  0  0  0  0  0  0
    5.2879   10.8277   26.4981 C   0  0  0  0  0  0  0  0  0  0  0  0
    6.2370   10.0960   25.8112 C   0  0  0  0  0  0  0  0  0  0  0  0
    7.1268   10.7227   24.9707 C   0  0  0  0  0  0  0  0  0  0  0  0
    8.0794    9.9692   24.2990 N   0  0  0  0  0  0  0  0  0  0  0  0
  1  2  2  0
  2  3  1  0
  3  4  1  0
  4  5  1  0
  5  6  2  0
  6  7  1  0
  7  8  1  0
  8  9  2  0
  8 10  1  0
 10 11  1  0
 11 12  1  6
 12 13  1  0
 11 14  1  0
 14 15  1  0
 15 16  1  0
  7 17  2  0
 17 18  1  0
 18 19  2  0
 19 20  1  0
 20  2  1  0
 19  5  1  0
 16 14  1  0
M  END
>  <energy_score>  (4884) 
-5.430562

>  <inchikey>  (4884) 
CZUYWEGJAVCDKC-UHFFFAOYSA-N

>  <smiles>  (4884) 
O=C1COc2nc(C(=O)NC(CF)C3CC3)ccc2N1

>  <ref_pdb>  (4884) 
A1068a

>  <alias>  (4884) 
CZUYWEGJAVCDKC-UHFFFAOYSA-N-P198-P37-P198-601513

>  <HIPPO Pose ID>  (4884) 
523577

>  <name>  (4884) 
CZUYWEGJAVCDKC-UHFFFAOYSA-N-P198-P37-P198-601513

>  <HIPPO Compound ID>  (4884) 
302246

>  <ref_mols>  (4884) 
A0310a,A3618a

>  <distance_score>  (4884) 
1.876625

>  <inspiration_score>  (4884) 
None

$$$$
CPNZWUGAAPJDBU-UHFFFAOYSA-N-P37-P37-P198-601513
     RDKit          3D

 20 22  0  0  0  0  0  0  0  0999 V2000
    0.7041   13.7960   26.7944 C   0  0  0  0  0  0  0  0  0  0  0  0
    1.6709   14.4078   26.4287 C   0  0  0  0  0  0  0  0  0  0  0  0
    2.8554   15.1897   26.0322 C   0  0  2  0  0  0  0  0  0  0  0  0
    4.0173   14.3538   25.9816 N   0  0  0  0  0  0  0  0  0  0  0  0
    4.6985   13.5286   27.0778 C   0  0  0  0  0  0  0  0  0  0  0  0
    4.4721   13.4539   28.2176 O   0  0  0  0  0  0  0  0  0  0  0  0
    5.7429   12.6381   26.4919 C   0  0  0  0  0  0  0  0  0  0  0  0
    5.8091   11.3583   26.9988 C   0  0  0  0  0  0  0  0  0  0  0  0
    6.6659   10.4612   26.3890 C   0  0  0  0  0  0  0  0  0  0  0  0
    7.4744   10.8655   25.3456 C   0  0  0  0  0  0  0  0  0  0  0  0
    7.3678   12.1831   24.9228 C   0  0  0  0  0  0  0  0  0  0  0  0
    6.4876   13.0706   25.4465 N   0  0  0  0  0  0  0  0  0  0  0  0
    8.1003   12.6439   23.8550 O   0  0  0  0  0  0  0  0  0  0  0  0
    9.3013   11.9025   23.6334 C   0  0  0  0  0  0  0  0  0  0  0  0
    9.1994   10.3810   23.7402 C   0  0  0  0  0  0  0  0  0  0  0  0
    9.8676    9.5922   23.0854 O   0  0  0  0  0  0  0  0  0  0  0  0
    8.3221    9.9610   24.7063 N   0  0  0  0  0  0  0  0  0  0  0  0
    2.9959   16.2235   27.1119 C   0  0  0  0  0  0  0  0  0  0  0  0
    3.8292   17.4594   26.8800 C   0  0  0  0  0  0  0  0  0  0  0  0
    2.3353   17.5774   26.9919 C   0  0  0  0  0  0  0  0  0  0  0  0
  1  2  3  0
  3  2  1  1
  3  4  1  0
  4  5  1  0
  5  6  2  0
  5  7  1  0
  7  8  2  0
  8  9  1  0
  9 10  2  0
 10 11  1  0
 11 12  2  0
 11 13  1  0
 13 14  1  0
 14 15  1  0
 15 16  2  0
 15 17  1  0
  3 18  1  0
 18 19  1  0
 19 20  1  0
 12  7  1  0
 20 18  1  0
 17 10  1  0
M  END
>  <energy_score>  (4885) 
-4.074855

>  <inchikey>  (4885) 
CPNZWUGAAPJDBU-UHFFFAOYSA-N

>  <smiles>  (4885) 
C#CC(NC(=O)c1ccc2c(n1)OCC(=O)N2)C1CC1

>  <ref_pdb>  (4885) 
A1068a

>  <alias>  (4885) 
CPNZWUGAAPJDBU-UHFFFAOYSA-N-P37-P37-P198-601513

>  <HIPPO Pose ID>  (4885) 
523578

>  <name>  (4885) 
CPNZWUGAAPJDBU-UHFFFAOYSA-N-P37-P37-P198-601513

>  <HIPPO Compound ID>  (4885) 
302247

>  <ref_mols>  (4885) 
A0310a,A3618a

>  <distance_score>  (4885) 
1.996278

>  <inspiration_score>  (4885) 
None

$$$$
HQVOAMNTBWHKGB-UHFFFAOYSA-N-P198-P37-P198-601513
     RDKit          3D

 21 23  0  0  0  0  0  0  0  0999 V2000
    1.3555   14.3467   26.9828 C   0  0  0  0  0  0  0  0  0  0  0  0
    2.7688   14.9644   27.0380 C   0  0  1  0  0  0  0  0  0  0  0  0
    3.0533   15.3964   28.5045 C   0  0  0  0  0  0  0  0  0  0  0  0
    4.4197   15.7877   28.6782 O   0  0  0  0  0  0  0  0  0  0  0  0
    3.7380   13.9595   26.6242 N   0  0  0  0  0  0  0  0  0  0  0  0
    4.0289   12.5686   27.1873 C   0  0  0  0  0  0  0  0  0  0  0  0
    3.4915   11.9666   28.0243 O   0  0  0  0  0  0  0  0  0  0  0  0
    5.1370   11.9168   26.4145 C   0  0  0  0  0  0  0  0  0  0  0  0
    5.2181   10.5455   26.4688 C   0  0  0  0  0  0  0  0  0  0  0  0
    6.2076    9.9318   25.7303 C   0  0  0  0  0  0  0  0  0  0  0  0
    7.1036   10.6661   24.9965 C   0  0  0  0  0  0  0  0  0  0  0  0
    6.9497   12.0380   24.9785 C   0  0  0  0  0  0  0  0  0  0  0  0
    5.9758   12.6873   25.6691 N   0  0  0  0  0  0  0  0  0  0  0  0
    7.7499   12.8365   24.2054 O   0  0  0  0  0  0  0  0  0  0  0  0
    8.9148   12.2087   23.6700 C   0  0  0  0  0  0  0  0  0  0  0  0
    8.9745   10.6824   23.5141 C   0  0  0  0  0  0  0  0  0  0  0  0
    9.7579   10.0766   22.7961 O   0  0  0  0  0  0  0  0  0  0  0  0
    8.0798   10.0015   24.2730 N   0  0  0  0  0  0  0  0  0  0  0  0
    2.9582   16.1419   26.1052 C   0  0  0  0  0  0  0  0  0  0  0  0
    2.6138   16.0284   24.6405 C   0  0  0  0  0  0  0  0  0  0  0  0
    1.8353   16.9652   25.5269 C   0  0  0  0  0  0  0  0  0  0  0  0
  2  1  1  1
  2  3  1  0
  3  4  1  0
  2  5  1  0
  5  6  1  0
  6  7  2  0
  6  8  1  0
  8  9  2  0
  9 10  1  0
 10 11  2  0
 11 12  1  0
 12 13  2  0
 12 14  1  0
 14 15  1  0
 15 16  1  0
 16 17  2  0
 16 18  1  0
  2 19  1  0
 19 20  1  0
 20 21  1  0
 13  8  1  0
 21 19  1  0
 18 11  1  0
M  END
>  <energy_score>  (4886) 
-28.720508

>  <inchikey>  (4886) 
HQVOAMNTBWHKGB-UHFFFAOYSA-N

>  <smiles>  (4886) 
CC(CO)(NC(=O)c1ccc2c(n1)OCC(=O)N2)C1CC1

>  <ref_pdb>  (4886) 
A1068a

>  <alias>  (4886) 
HQVOAMNTBWHKGB-UHFFFAOYSA-N-P198-P37-P198-601513

>  <HIPPO Pose ID>  (4886) 
523587

>  <name>  (4886) 
HQVOAMNTBWHKGB-UHFFFAOYSA-N-P198-P37-P198-601513

>  <HIPPO Compound ID>  (4886) 
302251

>  <ref_mols>  (4886) 
A0310a,A3618a

>  <distance_score>  (4886) 
1.856499

>  <inspiration_score>  (4886) 
None

$$$$
UWJGEIKPYJKAOT-UHFFFAOYSA-N-P198-P37-P198-601513
     RDKit          3D

 21 23  0  0  0  0  0  0  0  0999 V2000
   10.0175    9.5479   22.6156 O   0  0  0  0  0  0  0  0  0  0  0  0
    9.1618    9.9875   23.3689 C   0  0  0  0  0  0  0  0  0  0  0  0
    8.1609    9.0896   24.0245 C   0  0  0  0  0  0  0  0  0  0  0  0
    7.1881    9.5568   24.9386 O   0  0  0  0  0  0  0  0  0  0  0  0
    7.0304   10.9073   24.9971 C   0  0  0  0  0  0  0  0  0  0  0  0
    5.9627   11.3031   25.7275 N   0  0  0  0  0  0  0  0  0  0  0  0
    5.7766   12.6484   25.8260 C   0  0  0  0  0  0  0  0  0  0  0  0
    4.5939   13.1372   26.6204 C   0  0  0  0  0  0  0  0  0  0  0  0
    4.5445   14.2589   26.9333 O   0  0  0  0  0  0  0  0  0  0  0  0
    3.5966   11.9916   26.8574 N   0  0  0  0  0  0  0  0  0  0  0  0
    2.3670   11.9595   27.6138 C   0  0  2  0  0  0  0  0  0  0  0  0
    1.2341   12.8320   27.0422 C   0  0  0  0  0  0  0  0  0  0  0  0
    1.4595   14.3339   27.0096 C   0  0  0  0  0  0  0  0  0  0  0  0
    0.2333   14.9534   26.6156 O   0  0  0  0  0  0  0  0  0  0  0  0
    2.6646   12.2524   29.0583 C   0  0  0  0  0  0  0  0  0  0  0  0
    1.8097   11.6638   30.1530 C   0  0  0  0  0  0  0  0  0  0  0  0
    3.2151   11.1686   29.9534 C   0  0  0  0  0  0  0  0  0  0  0  0
    6.6138   13.5907   25.2382 C   0  0  0  0  0  0  0  0  0  0  0  0
    7.6990   13.1487   24.4900 C   0  0  0  0  0  0  0  0  0  0  0  0
    7.9102   11.7849   24.3607 C   0  0  0  0  0  0  0  0  0  0  0  0
    8.9785   11.3197   23.5926 N   0  0  0  0  0  0  0  0  0  0  0  0
  1  2  2  0
  2  3  1  0
  3  4  1  0
  4  5  1  0
  5  6  2  0
  6  7  1  0
  7  8  1  0
  8  9  2  0
  8 10  1  0
 10 11  1  0
 11 12  1  6
 12 13  1  0
 13 14  1  0
 11 15  1  0
 15 16  1  0
 16 17  1  0
  7 18  2  0
 18 19  1  0
 19 20  2  0
 20 21  1  0
 21  2  1  0
 20  5  1  0
 17 15  1  0
M  END
>  <energy_score>  (4887) 
-15.142138

>  <inchikey>  (4887) 
UWJGEIKPYJKAOT-UHFFFAOYSA-N

>  <smiles>  (4887) 
O=C1COc2nc(C(=O)NC(CCO)C3CC3)ccc2N1

>  <ref_pdb>  (4887) 
A1068a

>  <alias>  (4887) 
UWJGEIKPYJKAOT-UHFFFAOYSA-N-P198-P37-P198-601513

>  <HIPPO Pose ID>  (4887) 
523589

>  <name>  (4887) 
UWJGEIKPYJKAOT-UHFFFAOYSA-N-P198-P37-P198-601513

>  <HIPPO Compound ID>  (4887) 
302252

>  <ref_mols>  (4887) 
A0310a,A3618a

>  <distance_score>  (4887) 
1.885545

>  <inspiration_score>  (4887) 
None

$$$$
MYVHMOBHFUXSHG-UHFFFAOYSA-N-P198-P37-P198-601513
     RDKit          3D

 21 24  0  0  0  0  0  0  0  0999 V2000
    9.7861    9.5530   22.8635 O   0  0  0  0  0  0  0  0  0  0  0  0
    9.0645   10.3210   23.4848 C   0  0  0  0  0  0  0  0  0  0  0  0
    9.1541   11.8528   23.4380 C   0  0  0  0  0  0  0  0  0  0  0  0
    7.9258   12.5682   23.5673 O   0  0  0  0  0  0  0  0  0  0  0  0
    7.1163   12.0548   24.5548 C   0  0  0  0  0  0  0  0  0  0  0  0
    6.1964   12.9145   25.0415 N   0  0  0  0  0  0  0  0  0  0  0  0
    5.3579   12.4325   25.9923 C   0  0  0  0  0  0  0  0  0  0  0  0
    4.3135   13.3464   26.5450 C   0  0  0  0  0  0  0  0  0  0  0  0
    4.0086   13.2584   27.6651 O   0  0  0  0  0  0  0  0  0  0  0  0
    3.7643   14.2472   25.4334 N   0  0  0  0  0  0  0  0  0  0  0  0
    2.6588   15.1661   25.4362 C   0  0  0  0  0  0  0  0  0  0  0  0
    1.3787   14.3636   25.4727 C   0  0  0  0  0  0  0  0  0  0  0  0
    0.8508   13.8084   26.7753 C   0  0  0  0  0  0  0  0  0  0  0  0
    0.1274   14.9355   26.0964 C   0  0  0  0  0  0  0  0  0  0  0  0
    2.8138   16.0992   24.2652 C   0  0  0  0  0  0  0  0  0  0  0  0
    1.6719   16.5426   23.3793 C   0  0  0  0  0  0  0  0  0  0  0  0
    2.7200   15.6109   22.8365 C   0  0  0  0  0  0  0  0  0  0  0  0
    5.3659   11.1237   26.4292 C   0  0  0  0  0  0  0  0  0  0  0  0
    6.2788   10.2537   25.8546 C   0  0  0  0  0  0  0  0  0  0  0  0
    7.1900   10.7192   24.9279 C   0  0  0  0  0  0  0  0  0  0  0  0
    8.1067    9.8527   24.3411 N   0  0  0  0  0  0  0  0  0  0  0  0
  1  2  2  0
  2  3  1  0
  3  4  1  0
  4  5  1  0
  5  6  2  0
  6  7  1  0
  7  8  1  0
  8  9  2  0
  8 10  1  0
 10 11  1  0
 11 12  1  0
 12 13  1  0
 13 14  1  0
 11 15  1  0
 15 16  1  0
 16 17  1  0
  7 18  2  0
 18 19  1  0
 19 20  2  0
 20 21  1  0
 21  2  1  0
 20  5  1  0
 14 12  1  0
 17 15  1  0
M  END
>  <energy_score>  (4888) 
-15.610207

>  <inchikey>  (4888) 
MYVHMOBHFUXSHG-UHFFFAOYSA-N

>  <smiles>  (4888) 
O=C1COc2nc(C(=O)NC(C3CC3)C3CC3)ccc2N1

>  <ref_pdb>  (4888) 
A1068a

>  <alias>  (4888) 
MYVHMOBHFUXSHG-UHFFFAOYSA-N-P198-P37-P198-601513

>  <HIPPO Pose ID>  (4888) 
523591

>  <name>  (4888) 
MYVHMOBHFUXSHG-UHFFFAOYSA-N-P198-P37-P198-601513

>  <HIPPO Compound ID>  (4888) 
302253

>  <ref_mols>  (4888) 
A0310a,A3618a

>  <distance_score>  (4888) 
1.997875

>  <inspiration_score>  (4888) 
None

$$$$
FUZUMGSSEGGXNG-UHFFFAOYSA-N-P37-P37-P198-601513
     RDKit          3D

 21 23  0  0  0  0  0  0  0  0999 V2000
    1.8738   15.1750   26.3594 C   0  0  0  0  0  0  0  0  0  0  0  0
    3.1585   15.5494   27.1157 C   0  0  2  0  0  0  0  0  0  0  0  0
    3.6093   16.9249   26.7908 C   0  0  0  0  0  0  0  0  0  0  0  0
    3.9912   18.0066   26.6007 N   0  0  0  0  0  0  0  0  0  0  0  0
    4.1872   14.5640   26.8311 N   0  0  0  0  0  0  0  0  0  0  0  0
    4.2216   13.0606   27.0950 C   0  0  0  0  0  0  0  0  0  0  0  0
    3.4646   12.3746   27.6530 O   0  0  0  0  0  0  0  0  0  0  0  0
    5.4612   12.4163   26.5370 C   0  0  0  0  0  0  0  0  0  0  0  0
    5.6737   11.1047   26.9021 C   0  0  0  0  0  0  0  0  0  0  0  0
    6.6886   10.4102   26.2829 C   0  0  0  0  0  0  0  0  0  0  0  0
    7.4817   11.0124   25.3375 C   0  0  0  0  0  0  0  0  0  0  0  0
    7.2556   12.3542   25.0721 C   0  0  0  0  0  0  0  0  0  0  0  0
    6.2571   13.0788   25.6587 N   0  0  0  0  0  0  0  0  0  0  0  0
    7.9918   13.0206   24.1206 O   0  0  0  0  0  0  0  0  0  0  0  0
    9.1816   12.3482   23.6972 C   0  0  0  0  0  0  0  0  0  0  0  0
    9.2350   10.8157   23.7160 C   0  0  0  0  0  0  0  0  0  0  0  0
    9.9681   10.1259   23.0191 O   0  0  0  0  0  0  0  0  0  0  0  0
    8.4194   10.2496   24.6497 N   0  0  0  0  0  0  0  0  0  0  0  0
    3.0054   15.6177   28.6319 C   0  0  0  0  0  0  0  0  0  0  0  0
    1.7803   16.1834   29.3220 C   0  0  0  0  0  0  0  0  0  0  0  0
    2.0775   14.7132   29.4164 C   0  0  0  0  0  0  0  0  0  0  0  0
  2  1  1  6
  2  3  1  0
  3  4  3  0
  2  5  1  0
  5  6  1  0
  6  7  2  0
  6  8  1  0
  8  9  2  0
  9 10  1  0
 10 11  2  0
 11 12  1  0
 12 13  2  0
 12 14  1  0
 14 15  1  0
 15 16  1  0
 16 17  2  0
 16 18  1  0
  2 19  1  0
 19 20  1  0
 20 21  1  0
 13  8  1  0
 21 19  1  0
 18 11  1  0
M  END
>  <energy_score>  (4889) 
-31.954676

>  <inchikey>  (4889) 
FUZUMGSSEGGXNG-UHFFFAOYSA-N

>  <smiles>  (4889) 
CC(C#N)(NC(=O)c1ccc2c(n1)OCC(=O)N2)C1CC1

>  <ref_pdb>  (4889) 
A1068a

>  <alias>  (4889) 
FUZUMGSSEGGXNG-UHFFFAOYSA-N-P37-P37-P198-601513

>  <HIPPO Pose ID>  (4889) 
523592

>  <name>  (4889) 
FUZUMGSSEGGXNG-UHFFFAOYSA-N-P37-P37-P198-601513

>  <HIPPO Compound ID>  (4889) 
302254

>  <ref_mols>  (4889) 
A0310a,A3618a

>  <distance_score>  (4889) 
1.995234

>  <inspiration_score>  (4889) 
None

$$$$
FUZUMGSSEGGXNG-UHFFFAOYSA-N-P198-P37-P198-601513
     RDKit          3D

 21 23  0  0  0  0  0  0  0  0999 V2000
    1.1634   14.0008   26.1743 C   0  0  0  0  0  0  0  0  0  0  0  0
    2.4172   14.3507   26.9840 C   0  0  2  0  0  0  0  0  0  0  0  0
    2.6003   15.8243   26.9897 C   0  0  0  0  0  0  0  0  0  0  0  0
    2.6983   16.9823   26.9728 N   0  0  0  0  0  0  0  0  0  0  0  0
    3.5664   13.6632   26.4180 N   0  0  0  0  0  0  0  0  0  0  0  0
    5.0135   13.5502   26.9269 C   0  0  0  0  0  0  0  0  0  0  0  0
    5.5342   14.0527   27.8390 O   0  0  0  0  0  0  0  0  0  0  0  0
    5.7641   12.5497   26.1225 C   0  0  0  0  0  0  0  0  0  0  0  0
    5.5374   11.2142   26.3933 C   0  0  0  0  0  0  0  0  0  0  0  0
    6.3202   10.2798   25.7304 C   0  0  0  0  0  0  0  0  0  0  0  0
    7.3024   10.7037   24.8519 C   0  0  0  0  0  0  0  0  0  0  0  0
    7.4143   12.0635   24.6022 C   0  0  0  0  0  0  0  0  0  0  0  0
    6.6572   12.9940   25.2160 N   0  0  0  0  0  0  0  0  0  0  0  0
    8.2613   12.5573   23.6432 O   0  0  0  0  0  0  0  0  0  0  0  0
    9.3716   11.7114   23.3696 C   0  0  0  0  0  0  0  0  0  0  0  0
    9.1541   10.1909   23.4097 C   0  0  0  0  0  0  0  0  0  0  0  0
    9.8307    9.3720   22.8011 O   0  0  0  0  0  0  0  0  0  0  0  0
    8.1290    9.7839   24.2176 N   0  0  0  0  0  0  0  0  0  0  0  0
    2.3224   13.9788   28.4560 C   0  0  0  0  0  0  0  0  0  0  0  0
    1.0268   13.7209   29.1981 C   0  0  0  0  0  0  0  0  0  0  0  0
    1.9532   12.5760   28.8974 C   0  0  0  0  0  0  0  0  0  0  0  0
  2  1  1  6
  2  3  1  0
  3  4  3  0
  2  5  1  0
  5  6  1  0
  6  7  2  0
  6  8  1  0
  8  9  2  0
  9 10  1  0
 10 11  2  0
 11 12  1  0
 12 13  2  0
 12 14  1  0
 14 15  1  0
 15 16  1  0
 16 17  2  0
 16 18  1  0
  2 19  1  0
 19 20  1  0
 20 21  1  0
 13  8  1  0
 21 19  1  0
 18 11  1  0
M  END
>  <energy_score>  (4890) 
-15.654215

>  <inchikey>  (4890) 
FUZUMGSSEGGXNG-UHFFFAOYSA-N

>  <smiles>  (4890) 
CC(C#N)(NC(=O)c1ccc2c(n1)OCC(=O)N2)C1CC1

>  <ref_pdb>  (4890) 
A1068a

>  <alias>  (4890) 
FUZUMGSSEGGXNG-UHFFFAOYSA-N-P198-P37-P198-601513

>  <HIPPO Pose ID>  (4890) 
523593

>  <name>  (4890) 
FUZUMGSSEGGXNG-UHFFFAOYSA-N-P198-P37-P198-601513

>  <HIPPO Compound ID>  (4890) 
302254

>  <ref_mols>  (4890) 
A0310a,A3618a

>  <distance_score>  (4890) 
1.979207

>  <inspiration_score>  (4890) 
None

$$$$
GJDDNJWYIOWQAM-UHFFFAOYSA-N-P37-P37-P198-601513
     RDKit          3D

 21 23  0  0  0  0  0  0  0  0999 V2000
    1.4971   13.6518   26.2265 C   0  0  0  0  0  0  0  0  0  0  0  0
    1.7591   14.6815   27.2823 C   0  0  0  0  0  0  0  0  0  0  0  0
    0.8433   15.4183   27.6619 O   0  0  0  0  0  0  0  0  0  0  0  0
    3.1800   14.7938   27.8770 C   0  0  2  0  0  0  0  0  0  0  0  0
    4.2047   14.0478   27.1627 N   0  0  0  0  0  0  0  0  0  0  0  0
    4.5682   12.5516   27.2085 C   0  0  0  0  0  0  0  0  0  0  0  0
    4.0554   11.6664   27.7669 O   0  0  0  0  0  0  0  0  0  0  0  0
    5.8024   12.3060   26.3683 C   0  0  0  0  0  0  0  0  0  0  0  0
    6.2930   11.0194   26.1904 C   0  0  0  0  0  0  0  0  0  0  0  0
    7.3723   10.8538   25.3267 C   0  0  0  0  0  0  0  0  0  0  0  0
    7.9382   11.9498   24.6913 C   0  0  0  0  0  0  0  0  0  0  0  0
    7.4030   13.2004   24.9584 C   0  0  0  0  0  0  0  0  0  0  0  0
    6.3533   13.4103   25.7891 N   0  0  0  0  0  0  0  0  0  0  0  0
    9.0091   11.7764   23.8139 N   0  0  0  0  0  0  0  0  0  0  0  0
    9.4693   10.5365   23.4750 C   0  0  0  0  0  0  0  0  0  0  0  0
   10.3902   10.3709   22.6892 O   0  0  0  0  0  0  0  0  0  0  0  0
    8.7339    9.3781   24.0765 C   0  0  0  0  0  0  0  0  0  0  0  0
    7.8351    9.5881   25.1516 O   0  0  0  0  0  0  0  0  0  0  0  0
    3.3223   14.4988   29.3513 C   0  0  0  0  0  0  0  0  0  0  0  0
    2.2709   14.8384   30.3819 C   0  0  0  0  0  0  0  0  0  0  0  0
    2.5398   13.4004   30.0309 C   0  0  0  0  0  0  0  0  0  0  0  0
  1  2  1  0
  2  3  2  0
  2  4  1  0
  4  5  1  6
  5  6  1  0
  6  7  2  0
  6  8  1  0
  8  9  2  0
  9 10  1  0
 10 11  2  0
 11 12  1  0
 12 13  2  0
 11 14  1  0
 14 15  1  0
 15 16  2  0
 15 17  1  0
 17 18  1  0
  4 19  1  0
 19 20  1  0
 20 21  1  0
 13  8  1  0
 21 19  1  0
 18 10  1  0
M  END
>  <energy_score>  (4891) 
-1.494265

>  <inchikey>  (4891) 
GJDDNJWYIOWQAM-UHFFFAOYSA-N

>  <smiles>  (4891) 
CC(=O)C(NC(=O)c1cc2c(cn1)NC(=O)CO2)C1CC1

>  <ref_pdb>  (4891) 
A1068a

>  <alias>  (4891) 
GJDDNJWYIOWQAM-UHFFFAOYSA-N-P37-P37-P198-601513

>  <HIPPO Pose ID>  (4891) 
523680

>  <name>  (4891) 
GJDDNJWYIOWQAM-UHFFFAOYSA-N-P37-P37-P198-601513

>  <HIPPO Compound ID>  (4891) 
302298

>  <ref_mols>  (4891) 
A0310a,A3618a

>  <distance_score>  (4891) 
1.654666

>  <inspiration_score>  (4891) 
None

$$$$
GJDDNJWYIOWQAM-UHFFFAOYSA-N-P198-P37-P198-601513
     RDKit          3D

 21 23  0  0  0  0  0  0  0  0999 V2000
   -0.0116   14.7368   26.7182 C   0  0  0  0  0  0  0  0  0  0  0  0
    0.7830   13.4556   26.7393 C   0  0  0  0  0  0  0  0  0  0  0  0
    0.4904   12.5253   25.9798 O   0  0  0  0  0  0  0  0  0  0  0  0
    1.9220   13.3870   27.7668 C   0  0  2  0  0  0  0  0  0  0  0  0
    3.0989   12.8617   27.1265 N   0  0  0  0  0  0  0  0  0  0  0  0
    4.3752   13.5684   26.6523 C   0  0  0  0  0  0  0  0  0  0  0  0
    4.6487   14.6995   26.6333 O   0  0  0  0  0  0  0  0  0  0  0  0
    5.3443   12.5511   26.1085 C   0  0  0  0  0  0  0  0  0  0  0  0
    6.5338   12.9584   25.5413 C   0  0  0  0  0  0  0  0  0  0  0  0
    7.3793   11.9945   25.0091 C   0  0  0  0  0  0  0  0  0  0  0  0
    7.0326   10.6574   25.0491 C   0  0  0  0  0  0  0  0  0  0  0  0
    5.8421   10.3379   25.6804 C   0  0  0  0  0  0  0  0  0  0  0  0
    4.9879   11.2486   26.2125 N   0  0  0  0  0  0  0  0  0  0  0  0
    7.8552    9.6996   24.4532 N   0  0  0  0  0  0  0  0  0  0  0  0
    8.9306   10.0572   23.6804 C   0  0  0  0  0  0  0  0  0  0  0  0
    9.5884    9.2268   23.0621 O   0  0  0  0  0  0  0  0  0  0  0  0
    9.1748   11.5663   23.5846 C   0  0  0  0  0  0  0  0  0  0  0  0
    8.5702   12.4449   24.5195 O   0  0  0  0  0  0  0  0  0  0  0  0
    1.6466   12.5939   29.0140 C   0  0  0  0  0  0  0  0  0  0  0  0
    0.2643   12.1561   29.4415 C   0  0  0  0  0  0  0  0  0  0  0  0
    1.2584   11.1358   28.9592 C   0  0  0  0  0  0  0  0  0  0  0  0
  1  2  1  0
  2  3  2  0
  2  4  1  0
  4  5  1  6
  5  6  1  0
  6  7  2  0
  6  8  1  0
  8  9  2  0
  9 10  1  0
 10 11  2  0
 11 12  1  0
 12 13  2  0
 11 14  1  0
 14 15  1  0
 15 16  2  0
 15 17  1  0
 17 18  1  0
  4 19  1  0
 19 20  1  0
 20 21  1  0
 13  8  1  0
 21 19  1  0
 18 10  1  0
M  END
>  <energy_score>  (4892) 
-5.406699

>  <inchikey>  (4892) 
GJDDNJWYIOWQAM-UHFFFAOYSA-N

>  <smiles>  (4892) 
CC(=O)C(NC(=O)c1cc2c(cn1)NC(=O)CO2)C1CC1

>  <ref_pdb>  (4892) 
A1068a

>  <alias>  (4892) 
GJDDNJWYIOWQAM-UHFFFAOYSA-N-P198-P37-P198-601513

>  <HIPPO Pose ID>  (4892) 
523681

>  <name>  (4892) 
GJDDNJWYIOWQAM-UHFFFAOYSA-N-P198-P37-P198-601513

>  <HIPPO Compound ID>  (4892) 
302298

>  <ref_mols>  (4892) 
A0310a,A3618a

>  <distance_score>  (4892) 
1.957728

>  <inspiration_score>  (4892) 
None

$$$$
PTMOZOOOXNSBSV-UHFFFAOYSA-N-P37-P37-P198-601513
     RDKit          3D

 21 23  0  0  0  0  0  0  0  0999 V2000
    1.4572   13.8493   27.0380 C   0  0  0  0  0  0  0  0  0  0  0  0
    2.5521   13.4251   28.0176 C   0  0  2  0  0  0  0  0  0  0  0  0
    3.7330   12.9853   27.2982 N   0  0  0  0  0  0  0  0  0  0  0  0
    4.9209   12.1171   27.7587 C   0  0  0  0  0  0  0  0  0  0  0  0
    5.1010   11.5546   28.7642 O   0  0  0  0  0  0  0  0  0  0  0  0
    5.9216   12.0008   26.6541 C   0  0  0  0  0  0  0  0  0  0  0  0
    6.4991   10.7712   26.3941 C   0  0  0  0  0  0  0  0  0  0  0  0
    7.4514   10.7121   25.3868 C   0  0  0  0  0  0  0  0  0  0  0  0
    7.8214   11.8607   24.7030 C   0  0  0  0  0  0  0  0  0  0  0  0
    7.1616   13.0415   25.0134 C   0  0  0  0  0  0  0  0  0  0  0  0
    6.1977   13.1372   25.9621 N   0  0  0  0  0  0  0  0  0  0  0  0
    8.8457   11.8025   23.7578 N   0  0  0  0  0  0  0  0  0  0  0  0
    9.4447   10.6212   23.4203 C   0  0  0  0  0  0  0  0  0  0  0  0
   10.3786   10.5603   22.6359 O   0  0  0  0  0  0  0  0  0  0  0  0
    8.8408    9.3843   24.0103 C   0  0  0  0  0  0  0  0  0  0  0  0
    8.0193    9.5009   25.1559 O   0  0  0  0  0  0  0  0  0  0  0  0
    2.0907   12.4726   29.0867 C   0  0  2  0  0  0  0  0  0  0  0  0
    2.2505   10.9567   29.0376 C   0  0  0  0  0  0  0  0  0  0  0  0
    0.9148   11.5745   28.9267 C   0  0  0  0  0  0  0  0  0  0  0  0
    0.2406   11.4013   27.7428 F   0  0  0  0  0  0  0  0  0  0  0  0
    0.0069   11.4100   29.9449 F   0  0  0  0  0  0  0  0  0  0  0  0
  2  1  1  6
  2  3  1  0
  3  4  1  0
  4  5  2  0
  4  6  1  0
  6  7  2  0
  7  8  1  0
  8  9  2  0
  9 10  1  0
 10 11  2  0
  9 12  1  0
 12 13  1  0
 13 14  2  0
 13 15  1  0
 15 16  1  0
  2 17  1  0
 17 18  1  6
 18 19  1  0
 19 20  1  0
 19 21  1  0
 11  6  1  0
 19 17  1  0
 16  8  1  0
M  END
>  <energy_score>  (4893) 
-2.325414

>  <inchikey>  (4893) 
PTMOZOOOXNSBSV-UHFFFAOYSA-N

>  <smiles>  (4893) 
CC(NC(=O)c1cc2c(cn1)NC(=O)CO2)C1CC1(F)F

>  <ref_pdb>  (4893) 
A1068a

>  <alias>  (4893) 
PTMOZOOOXNSBSV-UHFFFAOYSA-N-P37-P37-P198-601513

>  <HIPPO Pose ID>  (4893) 
523684

>  <name>  (4893) 
PTMOZOOOXNSBSV-UHFFFAOYSA-N-P37-P37-P198-601513

>  <HIPPO Compound ID>  (4893) 
302300

>  <ref_mols>  (4893) 
A0310a,A3618a

>  <distance_score>  (4893) 
1.914611

>  <inspiration_score>  (4893) 
None

$$$$
PTMOZOOOXNSBSV-UHFFFAOYSA-N-P198-P37-P198-601513
     RDKit          3D

 21 23  0  0  0  0  0  0  0  0999 V2000
    0.9230   13.4786   27.0195 C   0  0  0  0  0  0  0  0  0  0  0  0
    2.0616   13.2801   28.0115 C   0  0  2  0  0  0  0  0  0  0  0  0
    3.2229   12.7821   27.3171 N   0  0  0  0  0  0  0  0  0  0  0  0
    4.4289   13.5282   26.7267 C   0  0  0  0  0  0  0  0  0  0  0  0
    4.6410   14.6694   26.6387 O   0  0  0  0  0  0  0  0  0  0  0  0
    5.3943   12.5282   26.1479 C   0  0  0  0  0  0  0  0  0  0  0  0
    6.5617   12.9512   25.5492 C   0  0  0  0  0  0  0  0  0  0  0  0
    7.4052   11.9977   24.9951 C   0  0  0  0  0  0  0  0  0  0  0  0
    7.0714   10.6574   25.0358 C   0  0  0  0  0  0  0  0  0  0  0  0
    5.8969   10.3232   25.6879 C   0  0  0  0  0  0  0  0  0  0  0  0
    5.0500   11.2208   26.2502 N   0  0  0  0  0  0  0  0  0  0  0  0
    7.8905    9.7076   24.4248 N   0  0  0  0  0  0  0  0  0  0  0  0
    8.9627   10.0722   23.6530 C   0  0  0  0  0  0  0  0  0  0  0  0
    9.6169    9.2446   23.0274 O   0  0  0  0  0  0  0  0  0  0  0  0
    9.2125   11.5818   23.5731 C   0  0  0  0  0  0  0  0  0  0  0  0
    8.5803   12.4643   24.4852 O   0  0  0  0  0  0  0  0  0  0  0  0
    1.7928   12.3922   29.1869 C   0  0  2  0  0  0  0  0  0  0  0  0
    1.4252   10.9274   29.0226 C   0  0  0  0  0  0  0  0  0  0  0  0
    0.4462   11.8972   29.5739 C   0  0  0  0  0  0  0  0  0  0  0  0
   -0.6944   12.1791   28.8616 F   0  0  0  0  0  0  0  0  0  0  0  0
    0.0879   11.8241   30.8994 F   0  0  0  0  0  0  0  0  0  0  0  0
  2  1  1  6
  2  3  1  0
  3  4  1  0
  4  5  2  0
  4  6  1  0
  6  7  2  0
  7  8  1  0
  8  9  2  0
  9 10  1  0
 10 11  2  0
  9 12  1  0
 12 13  1  0
 13 14  2  0
 13 15  1  0
 15 16  1  0
  2 17  1  0
 17 18  1  6
 18 19  1  0
 19 20  1  0
 19 21  1  0
 11  6  1  0
 19 17  1  0
 16  8  1  0
M  END
>  <energy_score>  (4894) 
-12.91324

>  <inchikey>  (4894) 
PTMOZOOOXNSBSV-UHFFFAOYSA-N

>  <smiles>  (4894) 
CC(NC(=O)c1cc2c(cn1)NC(=O)CO2)C1CC1(F)F

>  <ref_pdb>  (4894) 
A1068a

>  <alias>  (4894) 
PTMOZOOOXNSBSV-UHFFFAOYSA-N-P198-P37-P198-601513

>  <HIPPO Pose ID>  (4894) 
523685

>  <name>  (4894) 
PTMOZOOOXNSBSV-UHFFFAOYSA-N-P198-P37-P198-601513

>  <HIPPO Compound ID>  (4894) 
302300

>  <ref_mols>  (4894) 
A0310a,A3618a

>  <distance_score>  (4894) 
1.950035

>  <inspiration_score>  (4894) 
None

$$$$
QFWSZRTWZPOBFW-UHFFFAOYSA-N-P198-P37-P198-601513
     RDKit          3D

 21 23  0  0  0  0  0  0  0  0999 V2000
    0.0943   15.1898   25.0673 C   0  0  0  0  0  0  0  0  0  0  0  0
    1.2247   14.7361   25.9786 C   0  0  0  0  0  0  0  0  0  0  0  0
    0.8245   13.5019   26.7892 C   0  0  0  0  0  0  0  0  0  0  0  0
    1.8838   13.0664   27.8157 C   0  0  2  0  0  0  0  0  0  0  0  0
    3.0951   12.6205   27.1785 N   0  0  0  0  0  0  0  0  0  0  0  0
    4.3393   13.4086   26.7349 C   0  0  0  0  0  0  0  0  0  0  0  0
    4.5506   14.5540   26.7444 O   0  0  0  0  0  0  0  0  0  0  0  0
    5.3456   12.4502   26.1557 C   0  0  0  0  0  0  0  0  0  0  0  0
    6.5134   12.9091   25.5836 C   0  0  0  0  0  0  0  0  0  0  0  0
    7.3795   11.9836   25.0129 C   0  0  0  0  0  0  0  0  0  0  0  0
    7.0719   10.6365   25.0262 C   0  0  0  0  0  0  0  0  0  0  0  0
    5.8980   10.2669   25.6573 C   0  0  0  0  0  0  0  0  0  0  0  0
    5.0251   11.1358   26.2189 N   0  0  0  0  0  0  0  0  0  0  0  0
    7.9095    9.7120   24.4039 N   0  0  0  0  0  0  0  0  0  0  0  0
    8.9745   10.1079   23.6392 C   0  0  0  0  0  0  0  0  0  0  0  0
    9.6359    9.2994   22.9965 O   0  0  0  0  0  0  0  0  0  0  0  0
    9.2010   11.6235   23.5872 C   0  0  0  0  0  0  0  0  0  0  0  0
    8.5454   12.4809   24.5097 O   0  0  0  0  0  0  0  0  0  0  0  0
    1.3604   11.9311   28.6558 C   0  0  0  0  0  0  0  0  0  0  0  0
    1.9526   11.6596   30.0159 C   0  0  0  0  0  0  0  0  0  0  0  0
    0.5547   12.2018   29.9014 C   0  0  0  0  0  0  0  0  0  0  0  0
  1  2  1  0
  2  3  1  0
  4  3  1  6
  4  5  1  0
  5  6  1  0
  6  7  2  0
  6  8  1  0
  8  9  2  0
  9 10  1  0
 10 11  2  0
 11 12  1  0
 12 13  2  0
 11 14  1  0
 14 15  1  0
 15 16  2  0
 15 17  1  0
 17 18  1  0
  4 19  1  0
 19 20  1  0
 20 21  1  0
 13  8  1  0
 21 19  1  0
 18 10  1  0
M  END
>  <energy_score>  (4895) 
-15.421166

>  <inchikey>  (4895) 
QFWSZRTWZPOBFW-UHFFFAOYSA-N

>  <smiles>  (4895) 
CCCC(NC(=O)c1cc2c(cn1)NC(=O)CO2)C1CC1

>  <ref_pdb>  (4895) 
A1068a

>  <alias>  (4895) 
QFWSZRTWZPOBFW-UHFFFAOYSA-N-P198-P37-P198-601513

>  <HIPPO Pose ID>  (4895) 
523691

>  <name>  (4895) 
QFWSZRTWZPOBFW-UHFFFAOYSA-N-P198-P37-P198-601513

>  <HIPPO Compound ID>  (4895) 
302303

>  <ref_mols>  (4895) 
A0310a,A3618a

>  <distance_score>  (4895) 
1.924488

>  <inspiration_score>  (4895) 
None

$$$$
MWYICUHDZHAABN-UHFFFAOYSA-N-P37-P37-P198-601513
     RDKit          3D

 21 23  0  0  0  0  0  0  0  0999 V2000
    0.4000   14.3920   27.7398 C   0  0  0  0  0  0  0  0  0  0  0  0
    1.6909   13.8611   27.1282 C   0  0  0  0  0  0  0  0  0  0  0  0
    3.0088   14.3869   27.7718 C   0  0  1  0  0  0  0  0  0  0  0  0
    3.0473   14.0989   29.2839 C   0  0  0  0  0  0  0  0  0  0  0  0
    4.1276   13.6976   27.1314 N   0  0  0  0  0  0  0  0  0  0  0  0
    4.6202   12.2461   27.2718 C   0  0  0  0  0  0  0  0  0  0  0  0
    4.1673   11.3483   27.8609 O   0  0  0  0  0  0  0  0  0  0  0  0
    5.8653   12.0605   26.4367 C   0  0  0  0  0  0  0  0  0  0  0  0
    6.3697   10.7885   26.2087 C   0  0  0  0  0  0  0  0  0  0  0  0
    7.4380   10.6665   25.3262 C   0  0  0  0  0  0  0  0  0  0  0  0
    7.9814   11.7938   24.7256 C   0  0  0  0  0  0  0  0  0  0  0  0
    7.4348   13.0280   25.0418 C   0  0  0  0  0  0  0  0  0  0  0  0
    6.3911   13.1931   25.8876 N   0  0  0  0  0  0  0  0  0  0  0  0
    9.0414   11.6656   23.8300 N   0  0  0  0  0  0  0  0  0  0  0  0
    9.4998   10.4441   23.4307 C   0  0  0  0  0  0  0  0  0  0  0  0
   10.3985   10.3192   22.6137 O   0  0  0  0  0  0  0  0  0  0  0  0
    8.7866    9.2550   23.9942 C   0  0  0  0  0  0  0  0  0  0  0  0
    7.9123    9.4112   25.0970 O   0  0  0  0  0  0  0  0  0  0  0  0
    3.1244   15.8973   27.5703 C   0  0  0  0  0  0  0  0  0  0  0  0
    3.6150   16.5312   26.2894 C   0  0  0  0  0  0  0  0  0  0  0  0
    4.4495   16.6287   27.5394 C   0  0  0  0  0  0  0  0  0  0  0  0
  1  2  1  0
  2  3  1  0
  3  4  1  1
  3  5  1  0
  5  6  1  0
  6  7  2  0
  6  8  1  0
  8  9  2  0
  9 10  1  0
 10 11  2  0
 11 12  1  0
 12 13  2  0
 11 14  1  0
 14 15  1  0
 15 16  2  0
 15 17  1  0
 17 18  1  0
  3 19  1  0
 19 20  1  0
 20 21  1  0
 13  8  1  0
 21 19  1  0
 18 10  1  0
M  END
>  <energy_score>  (4896) 
-42.135413

>  <inchikey>  (4896) 
MWYICUHDZHAABN-UHFFFAOYSA-N

>  <smiles>  (4896) 
CCC(C)(NC(=O)c1cc2c(cn1)NC(=O)CO2)C1CC1

>  <ref_pdb>  (4896) 
A1068a

>  <alias>  (4896) 
MWYICUHDZHAABN-UHFFFAOYSA-N-P37-P37-P198-601513

>  <HIPPO Pose ID>  (4896) 
523696

>  <name>  (4896) 
MWYICUHDZHAABN-UHFFFAOYSA-N-P37-P37-P198-601513

>  <HIPPO Compound ID>  (4896) 
302306

>  <ref_mols>  (4896) 
A0310a,A3618a

>  <distance_score>  (4896) 
1.666245

>  <inspiration_score>  (4896) 
None

$$$$
AJUHCQCUFFYGQR-UHFFFAOYSA-N-P198-P37-P198-601513
     RDKit          3D

 21 23  0  0  0  0  0  0  0  0999 V2000
    0.5700   12.9114   27.0620 C   0  0  0  0  0  0  0  0  0  0  0  0
    1.1522   14.2920   26.7567 C   0  0  0  0  0  0  0  0  0  0  0  0
    1.1787   14.5184   25.2409 C   0  0  0  0  0  0  0  0  0  0  0  0
    2.5295   14.4990   27.4390 C   0  0  1  0  0  0  0  0  0  0  0  0
    3.5925   13.7522   26.8142 N   0  0  0  0  0  0  0  0  0  0  0  0
    4.0246   12.2884   26.9953 C   0  0  0  0  0  0  0  0  0  0  0  0
    3.5442   11.4317   27.6198 O   0  0  0  0  0  0  0  0  0  0  0  0
    5.2736   12.0372   26.1866 C   0  0  0  0  0  0  0  0  0  0  0  0
    5.7308   10.7441   25.9898 C   0  0  0  0  0  0  0  0  0  0  0  0
    6.8557   10.5775   25.1910 C   0  0  0  0  0  0  0  0  0  0  0  0
    7.4942   11.6782   24.6340 C   0  0  0  0  0  0  0  0  0  0  0  0
    6.9806   12.9349   24.9068 C   0  0  0  0  0  0  0  0  0  0  0  0
    5.8869   13.1465   25.6732 N   0  0  0  0  0  0  0  0  0  0  0  0
    8.6082   11.5047   23.8146 N   0  0  0  0  0  0  0  0  0  0  0  0
    9.0215   10.2624   23.4304 C   0  0  0  0  0  0  0  0  0  0  0  0
    9.9140   10.1015   22.6117 O   0  0  0  0  0  0  0  0  0  0  0  0
    8.2452    9.1065   23.9782 C   0  0  0  0  0  0  0  0  0  0  0  0
    7.2895    9.3028   25.0054 O   0  0  0  0  0  0  0  0  0  0  0  0
    2.9265   15.9542   27.4696 C   0  0  0  0  0  0  0  0  0  0  0  0
    3.8970   16.4515   28.5133 C   0  0  0  0  0  0  0  0  0  0  0  0
    2.4504   16.8545   28.5823 C   0  0  0  0  0  0  0  0  0  0  0  0
  1  2  1  0
  2  3  1  0
  2  4  1  0
  4  5  1  6
  5  6  1  0
  6  7  2  0
  6  8  1  0
  8  9  2  0
  9 10  1  0
 10 11  2  0
 11 12  1  0
 12 13  2  0
 11 14  1  0
 14 15  1  0
 15 16  2  0
 15 17  1  0
 17 18  1  0
  4 19  1  0
 19 20  1  0
 20 21  1  0
 13  8  1  0
 21 19  1  0
 18 10  1  0
M  END
>  <energy_score>  (4897) 
-14.448886

>  <inchikey>  (4897) 
AJUHCQCUFFYGQR-UHFFFAOYSA-N

>  <smiles>  (4897) 
CC(C)C(NC(=O)c1cc2c(cn1)NC(=O)CO2)C1CC1

>  <ref_pdb>  (4897) 
A1068a

>  <alias>  (4897) 
AJUHCQCUFFYGQR-UHFFFAOYSA-N-P198-P37-P198-601513

>  <HIPPO Pose ID>  (4897) 
523699

>  <name>  (4897) 
AJUHCQCUFFYGQR-UHFFFAOYSA-N-P198-P37-P198-601513

>  <HIPPO Compound ID>  (4897) 
302307

>  <ref_mols>  (4897) 
A0310a,A3618a

>  <distance_score>  (4897) 
1.95481

>  <inspiration_score>  (4897) 
None

$$$$
BSINKGDLNCJQIJ-UHFFFAOYSA-N-P198-P37-P198-601513
     RDKit          3D

 21 23  0  0  0  0  0  0  0  0999 V2000
   -0.3546   15.6790   26.9264 C   0  0  0  0  0  0  0  0  0  0  0  0
   -0.0052   14.5193   27.4984 C   0  0  0  0  0  0  0  0  0  0  0  0
    1.0276   13.5796   26.9284 C   0  0  0  0  0  0  0  0  0  0  0  0
    2.2256   13.3385   27.8690 C   0  0  2  0  0  0  0  0  0  0  0  0
    3.3559   12.8363   27.1184 N   0  0  0  0  0  0  0  0  0  0  0  0
    4.3748   13.5736   26.2343 C   0  0  0  0  0  0  0  0  0  0  0  0
    4.4219   14.6902   25.9074 O   0  0  0  0  0  0  0  0  0  0  0  0
    5.4249   12.5970   25.7718 C   0  0  0  0  0  0  0  0  0  0  0  0
    6.4089   12.9880   24.8855 C   0  0  0  0  0  0  0  0  0  0  0  0
    7.3270   12.0394   24.4530 C   0  0  0  0  0  0  0  0  0  0  0  0
    7.2309   10.7295   24.8896 C   0  0  0  0  0  0  0  0  0  0  0  0
    6.2118   10.4295   25.7762 C   0  0  0  0  0  0  0  0  0  0  0  0
    5.3232   11.3321   26.2532 N   0  0  0  0  0  0  0  0  0  0  0  0
    8.0860    9.7554   24.3775 N   0  0  0  0  0  0  0  0  0  0  0  0
    9.1047   10.0753   23.5189 C   0  0  0  0  0  0  0  0  0  0  0  0
    9.7746    9.2086   22.9696 O   0  0  0  0  0  0  0  0  0  0  0  0
    9.3448   11.5794   23.3533 C   0  0  0  0  0  0  0  0  0  0  0  0
    8.2360   12.4549   23.5195 O   0  0  0  0  0  0  0  0  0  0  0  0
    1.9933   12.4122   29.0409 C   0  0  0  0  0  0  0  0  0  0  0  0
    1.7763   10.9270   28.8351 C   0  0  0  0  0  0  0  0  0  0  0  0
    0.6743   11.7660   29.4091 C   0  0  0  0  0  0  0  0  0  0  0  0
  1  2  2  0
  2  3  1  0
  4  3  1  6
  4  5  1  0
  5  6  1  0
  6  7  2  0
  6  8  1  0
  8  9  2  0
  9 10  1  0
 10 11  2  0
 11 12  1  0
 12 13  2  0
 11 14  1  0
 14 15  1  0
 15 16  2  0
 15 17  1  0
 17 18  1  0
  4 19  1  0
 19 20  1  0
 20 21  1  0
 13  8  1  0
 21 19  1  0
 18 10  1  0
M  END
>  <energy_score>  (4898) 
-11.65672

>  <inchikey>  (4898) 
BSINKGDLNCJQIJ-UHFFFAOYSA-N

>  <smiles>  (4898) 
C=CCC(NC(=O)c1cc2c(cn1)NC(=O)CO2)C1CC1

>  <ref_pdb>  (4898) 
A1068a

>  <alias>  (4898) 
BSINKGDLNCJQIJ-UHFFFAOYSA-N-P198-P37-P198-601513

>  <HIPPO Pose ID>  (4898) 
523711

>  <name>  (4898) 
BSINKGDLNCJQIJ-UHFFFAOYSA-N-P198-P37-P198-601513

>  <HIPPO Compound ID>  (4898) 
302313

>  <ref_mols>  (4898) 
A0310a,A3618a

>  <distance_score>  (4898) 
1.969558

>  <inspiration_score>  (4898) 
None

$$$$
OJRYYWZTIYUPJF-UHFFFAOYSA-N-P37-P37-P198-601513
     RDKit          3D

 21 23  0  0  0  0  0  0  0  0999 V2000
    0.8764   14.6486   26.1861 C   0  0  0  0  0  0  0  0  0  0  0  0
    1.6193   14.1871   27.0105 C   0  0  0  0  0  0  0  0  0  0  0  0
    2.5630   13.6375   28.0066 C   0  0  2  0  0  0  0  0  0  0  0  0
    3.0537   14.7374   28.9533 C   0  0  0  0  0  0  0  0  0  0  0  0
    3.6978   13.1075   27.2775 N   0  0  0  0  0  0  0  0  0  0  0  0
    4.7184   12.0234   27.6665 C   0  0  0  0  0  0  0  0  0  0  0  0
    4.7643   11.3298   28.6018 O   0  0  0  0  0  0  0  0  0  0  0  0
    5.7901   11.9371   26.6191 C   0  0  0  0  0  0  0  0  0  0  0  0
    6.4047   10.7234   26.3675 C   0  0  0  0  0  0  0  0  0  0  0  0
    7.3990   10.6951   25.3981 C   0  0  0  0  0  0  0  0  0  0  0  0
    7.7762   11.8584   24.7441 C   0  0  0  0  0  0  0  0  0  0  0  0
    7.0969   13.0268   25.0574 C   0  0  0  0  0  0  0  0  0  0  0  0
    6.0959   13.0940   25.9703 N   0  0  0  0  0  0  0  0  0  0  0  0
    8.8180   11.8244   23.8172 N   0  0  0  0  0  0  0  0  0  0  0  0
    9.4235   10.6530   23.4580 C   0  0  0  0  0  0  0  0  0  0  0  0
   10.3552   10.6127   22.6699 O   0  0  0  0  0  0  0  0  0  0  0  0
    8.8292    9.4021   24.0277 C   0  0  0  0  0  0  0  0  0  0  0  0
    7.9926    9.4963   25.1651 O   0  0  0  0  0  0  0  0  0  0  0  0
    1.8346   12.5555   28.7873 C   0  0  0  0  0  0  0  0  0  0  0  0
    0.5638   12.8587   29.5617 C   0  0  0  0  0  0  0  0  0  0  0  0
    0.5226   11.8854   28.4201 C   0  0  0  0  0  0  0  0  0  0  0  0
  1  2  3  0
  2  3  1  0
  3  4  1  1
  3  5  1  0
  5  6  1  0
  6  7  2  0
  6  8  1  0
  8  9  2  0
  9 10  1  0
 10 11  2  0
 11 12  1  0
 12 13  2  0
 11 14  1  0
 14 15  1  0
 15 16  2  0
 15 17  1  0
 17 18  1  0
  3 19  1  0
 19 20  1  0
 20 21  1  0
 13  8  1  0
 21 19  1  0
 18 10  1  0
M  END
>  <energy_score>  (4899) 
-24.292581

>  <inchikey>  (4899) 
OJRYYWZTIYUPJF-UHFFFAOYSA-N

>  <smiles>  (4899) 
C#CC(C)(NC(=O)c1cc2c(cn1)NC(=O)CO2)C1CC1

>  <ref_pdb>  (4899) 
A1068a

>  <alias>  (4899) 
OJRYYWZTIYUPJF-UHFFFAOYSA-N-P37-P37-P198-601513

>  <HIPPO Pose ID>  (4899) 
523712

>  <name>  (4899) 
OJRYYWZTIYUPJF-UHFFFAOYSA-N-P37-P37-P198-601513

>  <HIPPO Compound ID>  (4899) 
302314

>  <ref_mols>  (4899) 
A0310a,A3618a

>  <distance_score>  (4899) 
1.640015

>  <inspiration_score>  (4899) 
None

$$$$
OJRYYWZTIYUPJF-UHFFFAOYSA-N-P198-P37-P198-601513
     RDKit          3D

 21 23  0  0  0  0  0  0  0  0999 V2000
    0.1502   13.5944   26.1690 C   0  0  0  0  0  0  0  0  0  0  0  0
    1.0827   13.5129   26.9239 C   0  0  0  0  0  0  0  0  0  0  0  0
    2.2525   13.4591   27.8255 C   0  0  2  0  0  0  0  0  0  0  0  0
    2.5397   14.8507   28.3988 C   0  0  0  0  0  0  0  0  0  0  0  0
    3.3724   12.9301   27.0888 N   0  0  0  0  0  0  0  0  0  0  0  0
    4.4012   13.6368   26.1909 C   0  0  0  0  0  0  0  0  0  0  0  0
    4.4627   14.7463   25.8418 O   0  0  0  0  0  0  0  0  0  0  0  0
    5.4395   12.6393   25.7474 C   0  0  0  0  0  0  0  0  0  0  0  0
    6.4243   13.0043   24.8505 C   0  0  0  0  0  0  0  0  0  0  0  0
    7.3342   12.0409   24.4348 C   0  0  0  0  0  0  0  0  0  0  0  0
    7.2279   10.7401   24.8952 C   0  0  0  0  0  0  0  0  0  0  0  0
    6.2091   10.4657   25.7916 C   0  0  0  0  0  0  0  0  0  0  0  0
    5.3308   11.3859   26.2575 N   0  0  0  0  0  0  0  0  0  0  0  0
    8.0727    9.7504   24.3951 N   0  0  0  0  0  0  0  0  0  0  0  0
    9.0925   10.0480   23.5283 C   0  0  0  0  0  0  0  0  0  0  0  0
    9.7484    9.1670   22.9846 O   0  0  0  0  0  0  0  0  0  0  0  0
    9.3484   11.5469   23.3440 C   0  0  0  0  0  0  0  0  0  0  0  0
    8.2443   12.4323   23.4918 O   0  0  0  0  0  0  0  0  0  0  0  0
    1.9527   12.4927   28.9615 C   0  0  0  0  0  0  0  0  0  0  0  0
    0.5714   12.0997   29.4473 C   0  0  0  0  0  0  0  0  0  0  0  0
    1.4312   11.0906   28.7340 C   0  0  0  0  0  0  0  0  0  0  0  0
  1  2  3  0
  2  3  1  0
  3  4  1  1
  3  5  1  0
  5  6  1  0
  6  7  2  0
  6  8  1  0
  8  9  2  0
  9 10  1  0
 10 11  2  0
 11 12  1  0
 12 13  2  0
 11 14  1  0
 14 15  1  0
 15 16  2  0
 15 17  1  0
 17 18  1  0
  3 19  1  0
 19 20  1  0
 20 21  1  0
 13  8  1  0
 21 19  1  0
 18 10  1  0
M  END
>  <energy_score>  (4900) 
-28.383756

>  <inchikey>  (4900) 
OJRYYWZTIYUPJF-UHFFFAOYSA-N

>  <smiles>  (4900) 
C#CC(C)(NC(=O)c1cc2c(cn1)NC(=O)CO2)C1CC1

>  <ref_pdb>  (4900) 
A1068a

>  <alias>  (4900) 
OJRYYWZTIYUPJF-UHFFFAOYSA-N-P198-P37-P198-601513

>  <HIPPO Pose ID>  (4900) 
523713

>  <name>  (4900) 
OJRYYWZTIYUPJF-UHFFFAOYSA-N-P198-P37-P198-601513

>  <HIPPO Compound ID>  (4900) 
302314

>  <ref_mols>  (4900) 
A0310a,A3618a

>  <distance_score>  (4900) 
1.986864

>  <inspiration_score>  (4900) 
None

$$$$
YUBAPSKVAOMBDG-UHFFFAOYSA-N-P198-P37-P198-601513
     RDKit          3D

 21 23  0  0  0  0  0  0  0  0999 V2000
   -1.0211   14.7818   26.6614 C   0  0  0  0  0  0  0  0  0  0  0  0
   -0.0593   14.2406   27.5572 O   0  0  0  0  0  0  0  0  0  0  0  0
    1.0237   13.6205   26.8553 C   0  0  0  0  0  0  0  0  0  0  0  0
    2.1342   13.1903   27.8375 C   0  0  2  0  0  0  0  0  0  0  0  0
    3.2945   12.7311   27.1064 N   0  0  0  0  0  0  0  0  0  0  0  0
    4.3172   13.5106   26.2646 C   0  0  0  0  0  0  0  0  0  0  0  0
    4.3458   14.6345   25.9623 O   0  0  0  0  0  0  0  0  0  0  0  0
    5.3926   12.5625   25.7994 C   0  0  0  0  0  0  0  0  0  0  0  0
    6.3731   12.9778   24.9200 C   0  0  0  0  0  0  0  0  0  0  0  0
    7.3036   12.0454   24.4765 C   0  0  0  0  0  0  0  0  0  0  0  0
    7.2235   10.7291   24.8974 C   0  0  0  0  0  0  0  0  0  0  0  0
    6.2081   10.4060   25.7791 C   0  0  0  0  0  0  0  0  0  0  0  0
    5.3075   11.2907   26.2647 N   0  0  0  0  0  0  0  0  0  0  0  0
    8.0889    9.7703   24.3745 N   0  0  0  0  0  0  0  0  0  0  0  0
    9.1016   10.1107   23.5174 C   0  0  0  0  0  0  0  0  0  0  0  0
    9.7777    9.2564   22.9565 O   0  0  0  0  0  0  0  0  0  0  0  0
    9.3262   11.6195   23.3701 C   0  0  0  0  0  0  0  0  0  0  0  0
    8.2079   12.4815   23.5475 O   0  0  0  0  0  0  0  0  0  0  0  0
    1.6308   12.1654   28.8298 C   0  0  0  0  0  0  0  0  0  0  0  0
    2.5776   11.3388   29.6700 C   0  0  0  0  0  0  0  0  0  0  0  0
    1.7162   10.6689   28.6326 C   0  0  0  0  0  0  0  0  0  0  0  0
  1  2  1  0
  2  3  1  0
  4  3  1  6
  4  5  1  0
  5  6  1  0
  6  7  2  0
  6  8  1  0
  8  9  2  0
  9 10  1  0
 10 11  2  0
 11 12  1  0
 12 13  2  0
 11 14  1  0
 14 15  1  0
 15 16  2  0
 15 17  1  0
 17 18  1  0
  4 19  1  0
 19 20  1  0
 20 21  1  0
 13  8  1  0
 21 19  1  0
 18 10  1  0
M  END
>  <energy_score>  (4901) 
-18.359973

>  <inchikey>  (4901) 
YUBAPSKVAOMBDG-UHFFFAOYSA-N

>  <smiles>  (4901) 
COCC(NC(=O)c1cc2c(cn1)NC(=O)CO2)C1CC1

>  <ref_pdb>  (4901) 
A1068a

>  <alias>  (4901) 
YUBAPSKVAOMBDG-UHFFFAOYSA-N-P198-P37-P198-601513

>  <HIPPO Pose ID>  (4901) 
523717

>  <name>  (4901) 
YUBAPSKVAOMBDG-UHFFFAOYSA-N-P198-P37-P198-601513

>  <HIPPO Compound ID>  (4901) 
302316

>  <ref_mols>  (4901) 
A0310a,A3618a

>  <distance_score>  (4901) 
1.956901

>  <inspiration_score>  (4901) 
None

$$$$
MEGIMQODKINYSQ-UHFFFAOYSA-N-P198-P37-P198-601513
     RDKit          3D

 21 23  0  0  0  0  0  0  0  0999 V2000
    0.8915   13.4793   26.9931 C   0  0  0  0  0  0  0  0  0  0  0  0
    2.0648   13.3936   27.9847 C   0  0  2  0  0  0  0  0  0  0  0  0
    2.2942   14.8324   28.5456 C   0  0  0  0  0  0  0  0  0  0  0  0
    3.4783   14.9387   29.3380 O   0  0  0  0  0  0  0  0  0  0  0  0
    3.2151   12.8695   27.2554 N   0  0  0  0  0  0  0  0  0  0  0  0
    4.4733   13.5786   26.7333 C   0  0  0  0  0  0  0  0  0  0  0  0
    4.7586   14.7078   26.7337 O   0  0  0  0  0  0  0  0  0  0  0  0
    5.4114   12.5596   26.1422 C   0  0  0  0  0  0  0  0  0  0  0  0
    6.5878   12.9635   25.5480 C   0  0  0  0  0  0  0  0  0  0  0  0
    7.4167   11.9973   24.9951 C   0  0  0  0  0  0  0  0  0  0  0  0
    7.0639   10.6619   25.0369 C   0  0  0  0  0  0  0  0  0  0  0  0
    5.8814   10.3464   25.6849 C   0  0  0  0  0  0  0  0  0  0  0  0
    5.0447   11.2589   26.2403 N   0  0  0  0  0  0  0  0  0  0  0  0
    7.8744    9.7006   24.4319 N   0  0  0  0  0  0  0  0  0  0  0  0
    8.9526   10.0508   23.6606 C   0  0  0  0  0  0  0  0  0  0  0  0
    9.6012    9.2151   23.0398 O   0  0  0  0  0  0  0  0  0  0  0  0
    9.2140   11.5574   23.5713 C   0  0  0  0  0  0  0  0  0  0  0  0
    8.5991   12.4474   24.4875 O   0  0  0  0  0  0  0  0  0  0  0  0
    1.8224   12.4362   29.1455 C   0  0  0  0  0  0  0  0  0  0  0  0
    1.4193   10.9943   28.9307 C   0  0  0  0  0  0  0  0  0  0  0  0
    0.4558   11.9504   29.5763 C   0  0  0  0  0  0  0  0  0  0  0  0
  2  1  1  6
  2  3  1  0
  3  4  1  0
  2  5  1  0
  5  6  1  0
  6  7  2  0
  6  8  1  0
  8  9  2  0
  9 10  1  0
 10 11  2  0
 11 12  1  0
 12 13  2  0
 11 14  1  0
 14 15  1  0
 15 16  2  0
 15 17  1  0
 17 18  1  0
  2 19  1  0
 19 20  1  0
 20 21  1  0
 13  8  1  0
 21 19  1  0
 18 10  1  0
M  END
>  <energy_score>  (4902) 
-28.436144

>  <inchikey>  (4902) 
MEGIMQODKINYSQ-UHFFFAOYSA-N

>  <smiles>  (4902) 
CC(CO)(NC(=O)c1cc2c(cn1)NC(=O)CO2)C1CC1

>  <ref_pdb>  (4902) 
A1068a

>  <alias>  (4902) 
MEGIMQODKINYSQ-UHFFFAOYSA-N-P198-P37-P198-601513

>  <HIPPO Pose ID>  (4902) 
523721

>  <name>  (4902) 
MEGIMQODKINYSQ-UHFFFAOYSA-N-P198-P37-P198-601513

>  <HIPPO Compound ID>  (4902) 
302318

>  <ref_mols>  (4902) 
A0310a,A3618a

>  <distance_score>  (4902) 
1.956874

>  <inspiration_score>  (4902) 
None

$$$$
OXNYUNDTAGZFLZ-UHFFFAOYSA-N-P37-P37-P198-601513
     RDKit          3D

 21 24  0  0  0  0  0  0  0  0999 V2000
    9.8577    9.8286   23.0657 O   0  0  0  0  0  0  0  0  0  0  0  0
    9.1616   10.5699   23.7475 C   0  0  0  0  0  0  0  0  0  0  0  0
    9.2100   12.1001   23.7021 C   0  0  0  0  0  0  0  0  0  0  0  0
    8.0232   12.8252   24.0324 O   0  0  0  0  0  0  0  0  0  0  0  0
    7.2945   12.2642   25.0563 C   0  0  0  0  0  0  0  0  0  0  0  0
    6.4126   13.0954   25.6736 N   0  0  0  0  0  0  0  0  0  0  0  0
    5.7036   12.5717   26.7023 C   0  0  0  0  0  0  0  0  0  0  0  0
    4.7389   13.4023   27.4784 C   0  0  0  0  0  0  0  0  0  0  0  0
    4.7411   13.3057   28.6408 O   0  0  0  0  0  0  0  0  0  0  0  0
    3.8115   14.1977   26.5466 N   0  0  0  0  0  0  0  0  0  0  0  0
    2.6416   14.9615   26.8344 C   0  0  2  0  0  0  0  0  0  0  0  0
    1.3668   14.1669   27.0734 C   0  0  0  0  0  0  0  0  0  0  0  0
    1.1203   13.2578   26.0011 O   0  0  0  0  0  0  0  0  0  0  0  0
    2.5350   16.3648   26.2089 C   0  0  0  0  0  0  0  0  0  0  0  0
    2.7773   16.1911   27.6318 C   0  0  0  0  0  0  0  0  0  0  0  0
    3.7341   16.7345   28.5927 C   0  0  0  0  0  0  0  0  0  0  0  0
    2.2260   16.7402   28.8667 C   0  0  0  0  0  0  0  0  0  0  0  0
    5.7871   11.2536   27.0896 C   0  0  0  0  0  0  0  0  0  0  0  0
    6.6422   10.4253   26.3922 C   0  0  0  0  0  0  0  0  0  0  0  0
    7.4306   10.9211   25.3762 C   0  0  0  0  0  0  0  0  0  0  0  0
    8.2985   10.0767   24.6869 N   0  0  0  0  0  0  0  0  0  0  0  0
  1  2  2  0
  2  3  1  0
  3  4  1  0
  4  5  1  0
  5  6  2  0
  6  7  1  0
  7  8  1  0
  8  9  2  0
  8 10  1  0
 10 11  1  0
 11 12  1  1
 12 13  1  0
 11 14  1  0
 14 15  1  0
 15 16  1  0
 16 17  1  0
  7 18  2  0
 18 19  1  0
 19 20  2  0
 20 21  1  0
 21  2  1  0
 20  5  1  0
 15 11  1  0
 17 15  1  0
M  END
>  <energy_score>  (4903) 
-18.666845

>  <inchikey>  (4903) 
OXNYUNDTAGZFLZ-UHFFFAOYSA-N

>  <smiles>  (4903) 
O=C1COc2nc(C(=O)NC3(CO)CC34CC4)ccc2N1

>  <ref_pdb>  (4903) 
A1068a

>  <alias>  (4903) 
OXNYUNDTAGZFLZ-UHFFFAOYSA-N-P37-P37-P198-601513

>  <HIPPO Pose ID>  (4903) 
523732

>  <name>  (4903) 
OXNYUNDTAGZFLZ-UHFFFAOYSA-N-P37-P37-P198-601513

>  <HIPPO Compound ID>  (4903) 
302324

>  <ref_mols>  (4903) 
A0310a,A3618a

>  <distance_score>  (4903) 
1.981834

>  <inspiration_score>  (4903) 
None

$$$$
OXNYUNDTAGZFLZ-UHFFFAOYSA-N-P198-P37-P198-601513
     RDKit          3D

 21 24  0  0  0  0  0  0  0  0999 V2000
    9.7799    9.8592   22.8037 O   0  0  0  0  0  0  0  0  0  0  0  0
    9.0291   10.5415   23.4856 C   0  0  0  0  0  0  0  0  0  0  0  0
    9.0035   12.0756   23.5277 C   0  0  0  0  0  0  0  0  0  0  0  0
    7.7390   12.7058   23.7487 O   0  0  0  0  0  0  0  0  0  0  0  0
    6.9572   12.0521   24.6735 C   0  0  0  0  0  0  0  0  0  0  0  0
    5.9251   12.7735   25.1745 N   0  0  0  0  0  0  0  0  0  0  0  0
    5.1020   12.1349   26.0459 C   0  0  0  0  0  0  0  0  0  0  0  0
    3.8484   12.8085   26.5068 C   0  0  0  0  0  0  0  0  0  0  0  0
    3.3664   12.4812   27.5165 O   0  0  0  0  0  0  0  0  0  0  0  0
    3.3555   13.8007   25.4439 N   0  0  0  0  0  0  0  0  0  0  0  0
    2.2205   14.6666   25.4385 C   0  0  2  0  0  0  0  0  0  0  0  0
    1.0239   14.2185   26.2766 C   0  0  0  0  0  0  0  0  0  0  0  0
    0.7803   12.8156   26.1197 O   0  0  0  0  0  0  0  0  0  0  0  0
    1.9223   15.4670   24.1491 C   0  0  0  0  0  0  0  0  0  0  0  0
    2.4477   16.1144   25.3428 C   0  0  0  0  0  0  0  0  0  0  0  0
    3.5606   17.0167   25.6316 C   0  0  0  0  0  0  0  0  0  0  0  0
    2.1432   17.2929   26.1470 C   0  0  0  0  0  0  0  0  0  0  0  0
    5.2603   10.8169   26.4172 C   0  0  0  0  0  0  0  0  0  0  0  0
    6.2861   10.1015   25.8328 C   0  0  0  0  0  0  0  0  0  0  0  0
    7.1580   10.7113   24.9626 C   0  0  0  0  0  0  0  0  0  0  0  0
    8.1420    9.9570   24.3382 N   0  0  0  0  0  0  0  0  0  0  0  0
  1  2  2  0
  2  3  1  0
  3  4  1  0
  4  5  1  0
  5  6  2  0
  6  7  1  0
  7  8  1  0
  8  9  2  0
  8 10  1  0
 10 11  1  0
 11 12  1  1
 12 13  1  0
 11 14  1  0
 14 15  1  0
 15 16  1  0
 16 17  1  0
  7 18  2  0
 18 19  1  0
 19 20  2  0
 20 21  1  0
 21  2  1  0
 20  5  1  0
 15 11  1  0
 17 15  1  0
M  END
>  <energy_score>  (4904) 
-24.984519

>  <inchikey>  (4904) 
OXNYUNDTAGZFLZ-UHFFFAOYSA-N

>  <smiles>  (4904) 
O=C1COc2nc(C(=O)NC3(CO)CC34CC4)ccc2N1

>  <ref_pdb>  (4904) 
A1068a

>  <alias>  (4904) 
OXNYUNDTAGZFLZ-UHFFFAOYSA-N-P198-P37-P198-601513

>  <HIPPO Pose ID>  (4904) 
523733

>  <name>  (4904) 
OXNYUNDTAGZFLZ-UHFFFAOYSA-N-P198-P37-P198-601513

>  <HIPPO Compound ID>  (4904) 
302324

>  <ref_mols>  (4904) 
A0310a,A3618a

>  <distance_score>  (4904) 
1.877295

>  <inspiration_score>  (4904) 
None

$$$$
HQAHIBWHTSVMNY-UHFFFAOYSA-N-P37-P37-P198-601513
     RDKit          3D

 21 23  0  0  0  0  0  0  0  0999 V2000
   -0.5998   15.9310   25.8684 C   0  0  0  0  0  0  0  0  0  0  0  0
    0.4268   15.3557   26.1084 C   0  0  0  0  0  0  0  0  0  0  0  0
    1.6842   14.6696   26.4592 C   0  0  0  0  0  0  0  0  0  0  0  0
    2.9198   15.3223   25.7924 C   0  0  2  0  0  0  0  0  0  0  0  0
    4.0725   14.4404   25.8286 N   0  0  0  0  0  0  0  0  0  0  0  0
    4.5661   13.4907   26.9259 C   0  0  0  0  0  0  0  0  0  0  0  0
    4.1725   13.3180   28.0082 O   0  0  0  0  0  0  0  0  0  0  0  0
    5.6688   12.6170   26.4123 C   0  0  0  0  0  0  0  0  0  0  0  0
    5.7619   11.3499   26.9475 C   0  0  0  0  0  0  0  0  0  0  0  0
    6.6589   10.4651   26.3761 C   0  0  0  0  0  0  0  0  0  0  0  0
    7.4762   10.8690   25.3391 C   0  0  0  0  0  0  0  0  0  0  0  0
    7.3541   12.1787   24.8983 C   0  0  0  0  0  0  0  0  0  0  0  0
    6.4426   13.0521   25.3886 N   0  0  0  0  0  0  0  0  0  0  0  0
    8.0924   12.6404   23.8354 O   0  0  0  0  0  0  0  0  0  0  0  0
    9.3025   11.9114   23.6299 C   0  0  0  0  0  0  0  0  0  0  0  0
    9.2153   10.3901   23.7468 C   0  0  0  0  0  0  0  0  0  0  0  0
    9.8955    9.6053   23.0993 O   0  0  0  0  0  0  0  0  0  0  0  0
    8.3405    9.9687   24.7150 N   0  0  0  0  0  0  0  0  0  0  0  0
    3.3777   16.6540   26.3412 C   0  0  0  0  0  0  0  0  0  0  0  0
    3.7621   16.8266   27.7938 C   0  0  0  0  0  0  0  0  0  0  0  0
    2.5704   17.5581   27.2453 C   0  0  0  0  0  0  0  0  0  0  0  0
  1  2  3  0
  2  3  1  0
  4  3  1  1
  4  5  1  0
  5  6  1  0
  6  7  2  0
  6  8  1  0
  8  9  2  0
  9 10  1  0
 10 11  2  0
 11 12  1  0
 12 13  2  0
 12 14  1  0
 14 15  1  0
 15 16  1  0
 16 17  2  0
 16 18  1  0
  4 19  1  0
 19 20  1  0
 20 21  1  0
 13  8  1  0
 21 19  1  0
 18 11  1  0
M  END
>  <energy_score>  (4905) 
-2.418156

>  <inchikey>  (4905) 
HQAHIBWHTSVMNY-UHFFFAOYSA-N

>  <smiles>  (4905) 
C#CCC(NC(=O)c1ccc2c(n1)OCC(=O)N2)C1CC1

>  <ref_pdb>  (4905) 
A1068a

>  <alias>  (4905) 
HQAHIBWHTSVMNY-UHFFFAOYSA-N-P37-P37-P198-601513

>  <HIPPO Pose ID>  (4905) 
523738

>  <name>  (4905) 
HQAHIBWHTSVMNY-UHFFFAOYSA-N-P37-P37-P198-601513

>  <HIPPO Compound ID>  (4905) 
302327

>  <ref_mols>  (4905) 
A0310a,A3618a

>  <distance_score>  (4905) 
1.981596

>  <inspiration_score>  (4905) 
None

$$$$
HQAHIBWHTSVMNY-UHFFFAOYSA-N-P198-P37-P198-601513
     RDKit          3D

 21 23  0  0  0  0  0  0  0  0999 V2000
   -1.1136   15.2147   25.0926 C   0  0  0  0  0  0  0  0  0  0  0  0
   -0.0616   14.8208   25.5171 C   0  0  0  0  0  0  0  0  0  0  0  0
    1.2301   14.3350   26.0402 C   0  0  0  0  0  0  0  0  0  0  0  0
    2.4322   14.9669   25.2979 C   0  0  2  0  0  0  0  0  0  0  0  0
    3.5960   14.1067   25.3686 N   0  0  0  0  0  0  0  0  0  0  0  0
    4.0938   13.1939   26.4964 C   0  0  0  0  0  0  0  0  0  0  0  0
    3.6921   13.0436   27.5789 O   0  0  0  0  0  0  0  0  0  0  0  0
    5.2229   12.3445   26.0057 C   0  0  0  0  0  0  0  0  0  0  0  0
    5.2818   11.0398   26.4493 C   0  0  0  0  0  0  0  0  0  0  0  0
    6.2362   10.2065   25.8893 C   0  0  0  0  0  0  0  0  0  0  0  0
    7.1376   10.6996   24.9703 C   0  0  0  0  0  0  0  0  0  0  0  0
    7.0206   12.0316   24.6004 C   0  0  0  0  0  0  0  0  0  0  0  0
    6.0619   12.8580   25.0723 N   0  0  0  0  0  0  0  0  0  0  0  0
    7.8184   12.5699   23.6200 O   0  0  0  0  0  0  0  0  0  0  0  0
    9.0670   11.8927   23.4877 C   0  0  0  0  0  0  0  0  0  0  0  0
    9.0221   10.3599   23.5252 C   0  0  0  0  0  0  0  0  0  0  0  0
    9.7697    9.6190   22.9020 O   0  0  0  0  0  0  0  0  0  0  0  0
    8.0802    9.8613   24.3820 N   0  0  0  0  0  0  0  0  0  0  0  0
    2.8604   16.3441   25.7423 C   0  0  0  0  0  0  0  0  0  0  0  0
    3.2044   16.6478   27.1819 C   0  0  0  0  0  0  0  0  0  0  0  0
    2.0053   17.2959   26.5465 C   0  0  0  0  0  0  0  0  0  0  0  0
  1  2  3  0
  2  3  1  0
  4  3  1  1
  4  5  1  0
  5  6  1  0
  6  7  2  0
  6  8  1  0
  8  9  2  0
  9 10  1  0
 10 11  2  0
 11 12  1  0
 12 13  2  0
 12 14  1  0
 14 15  1  0
 15 16  1  0
 16 17  2  0
 16 18  1  0
  4 19  1  0
 19 20  1  0
 20 21  1  0
 13  8  1  0
 21 19  1  0
 18 11  1  0
M  END
>  <energy_score>  (4906) 
-2.258975

>  <inchikey>  (4906) 
HQAHIBWHTSVMNY-UHFFFAOYSA-N

>  <smiles>  (4906) 
C#CCC(NC(=O)c1ccc2c(n1)OCC(=O)N2)C1CC1

>  <ref_pdb>  (4906) 
A1068a

>  <alias>  (4906) 
HQAHIBWHTSVMNY-UHFFFAOYSA-N-P198-P37-P198-601513

>  <HIPPO Pose ID>  (4906) 
523739

>  <name>  (4906) 
HQAHIBWHTSVMNY-UHFFFAOYSA-N-P198-P37-P198-601513

>  <HIPPO Compound ID>  (4906) 
302327

>  <ref_mols>  (4906) 
A0310a,A3618a

>  <distance_score>  (4906) 
1.943292

>  <inspiration_score>  (4906) 
None

$$$$
DPXJALSUYJGHHJ-UHFFFAOYSA-N-P198-P37-P198-601513
     RDKit          3D

 21 23  0  0  0  0  0  0  0  0999 V2000
   -0.7825   13.2768   25.9181 C   0  0  0  0  0  0  0  0  0  0  0  0
    0.5270   13.4718   25.3941 O   0  0  0  0  0  0  0  0  0  0  0  0
    1.1965   14.5314   26.1077 C   0  0  0  0  0  0  0  0  0  0  0  0
    2.4313   15.0377   25.3227 C   0  0  2  0  0  0  0  0  0  0  0  0
    3.5382   14.1039   25.3465 N   0  0  0  0  0  0  0  0  0  0  0  0
    4.0879   13.2377   26.4880 C   0  0  0  0  0  0  0  0  0  0  0  0
    3.7885   13.1918   27.6128 O   0  0  0  0  0  0  0  0  0  0  0  0
    5.1785   12.3517   25.9796 C   0  0  0  0  0  0  0  0  0  0  0  0
    5.2308   11.0541   26.4406 C   0  0  0  0  0  0  0  0  0  0  0  0
    6.1911   10.2128   25.8992 C   0  0  0  0  0  0  0  0  0  0  0  0
    7.1014   10.6931   24.9800 C   0  0  0  0  0  0  0  0  0  0  0  0
    6.9887   12.0204   24.5933 C   0  0  0  0  0  0  0  0  0  0  0  0
    6.0288   12.8524   25.0490 N   0  0  0  0  0  0  0  0  0  0  0  0
    7.7946   12.5490   23.6145 O   0  0  0  0  0  0  0  0  0  0  0  0
    9.0435   11.8712   23.5001 C   0  0  0  0  0  0  0  0  0  0  0  0
    8.9984   10.3392   23.5517 C   0  0  0  0  0  0  0  0  0  0  0  0
    9.7537    9.5949   22.9414 O   0  0  0  0  0  0  0  0  0  0  0  0
    8.0495    9.8488   24.4071 N   0  0  0  0  0  0  0  0  0  0  0  0
    2.9883   16.3732   25.7587 C   0  0  0  0  0  0  0  0  0  0  0  0
    3.2180   16.7027   27.2145 C   0  0  0  0  0  0  0  0  0  0  0  0
    2.1937   17.4727   26.4257 C   0  0  0  0  0  0  0  0  0  0  0  0
  1  2  1  0
  2  3  1  0
  4  3  1  1
  4  5  1  0
  5  6  1  0
  6  7  2  0
  6  8  1  0
  8  9  2  0
  9 10  1  0
 10 11  2  0
 11 12  1  0
 12 13  2  0
 12 14  1  0
 14 15  1  0
 15 16  1  0
 16 17  2  0
 16 18  1  0
  4 19  1  0
 19 20  1  0
 20 21  1  0
 13  8  1  0
 21 19  1  0
 18 11  1  0
M  END
>  <energy_score>  (4907) 
-6.179308

>  <inchikey>  (4907) 
DPXJALSUYJGHHJ-UHFFFAOYSA-N

>  <smiles>  (4907) 
COCC(NC(=O)c1ccc2c(n1)OCC(=O)N2)C1CC1

>  <ref_pdb>  (4907) 
A1068a

>  <alias>  (4907) 
DPXJALSUYJGHHJ-UHFFFAOYSA-N-P198-P37-P198-601513

>  <HIPPO Pose ID>  (4907) 
523741

>  <name>  (4907) 
DPXJALSUYJGHHJ-UHFFFAOYSA-N-P198-P37-P198-601513

>  <HIPPO Compound ID>  (4907) 
302328

>  <ref_mols>  (4907) 
A0310a,A3618a

>  <distance_score>  (4907) 
1.995747

>  <inspiration_score>  (4907) 
None

$$$$
LXKIJFRTEUOQDX-UHFFFAOYSA-N-P37-P37-P198-601513
     RDKit          3D

 21 23  0  0  0  0  0  0  0  0999 V2000
   10.3665   10.1020   22.6239 O   0  0  0  0  0  0  0  0  0  0  0  0
    9.4890   10.3558   23.4346 C   0  0  0  0  0  0  0  0  0  0  0  0
    8.6786    9.2762   24.0837 C   0  0  0  0  0  0  0  0  0  0  0  0
    7.7723    9.5632   25.1310 O   0  0  0  0  0  0  0  0  0  0  0  0
    7.3907   10.8661   25.2630 C   0  0  0  0  0  0  0  0  0  0  0  0
    6.3296   11.0634   26.0777 N   0  0  0  0  0  0  0  0  0  0  0  0
    5.9182   12.3471   26.2576 C   0  0  0  0  0  0  0  0  0  0  0  0
    4.7607   12.5610   27.2144 C   0  0  0  0  0  0  0  0  0  0  0  0
    4.7673   11.9574   28.2132 O   0  0  0  0  0  0  0  0  0  0  0  0
    3.7920   13.6602   26.7130 N   0  0  0  0  0  0  0  0  0  0  0  0
    2.5651   14.1809   27.3025 C   0  0  2  0  0  0  0  0  0  0  0  0
    1.3125   13.6904   26.5448 C   0  0  0  0  0  0  0  0  0  0  0  0
    0.1109   14.0265   27.2407 O   0  0  0  0  0  0  0  0  0  0  0  0
    2.5725   15.7037   27.4056 C   0  0  0  0  0  0  0  0  0  0  0  0
    1.4308   16.2562   28.0954 O   0  0  0  0  0  0  0  0  0  0  0  0
    3.8523   16.4692   27.6485 C   0  0  0  0  0  0  0  0  0  0  0  0
    3.1432   16.5939   26.3281 C   0  0  0  0  0  0  0  0  0  0  0  0
    6.5547   13.4356   25.6677 C   0  0  0  0  0  0  0  0  0  0  0  0
    7.6414   13.2008   24.8255 C   0  0  0  0  0  0  0  0  0  0  0  0
    8.0626   11.8956   24.6121 C   0  0  0  0  0  0  0  0  0  0  0  0
    9.1310   11.6321   23.7553 N   0  0  0  0  0  0  0  0  0  0  0  0
  1  2  2  0
  2  3  1  0
  3  4  1  0
  4  5  1  0
  5  6  2  0
  6  7  1  0
  7  8  1  0
  8  9  2  0
  8 10  1  0
 10 11  1  0
 11 12  1  6
 12 13  1  0
 11 14  1  0
 14 15  1  0
 14 16  1  0
 16 17  1  0
  7 18  2  0
 18 19  1  0
 19 20  2  0
 20 21  1  0
 21  2  1  0
 20  5  1  0
 17 14  1  0
M  END
>  <energy_score>  (4908) 
-1.770742

>  <inchikey>  (4908) 
LXKIJFRTEUOQDX-UHFFFAOYSA-N

>  <smiles>  (4908) 
O=C1COc2nc(C(=O)NC(CO)C3(O)CC3)ccc2N1

>  <ref_pdb>  (4908) 
A1068a

>  <alias>  (4908) 
LXKIJFRTEUOQDX-UHFFFAOYSA-N-P37-P37-P198-601513

>  <HIPPO Pose ID>  (4908) 
523748

>  <name>  (4908) 
LXKIJFRTEUOQDX-UHFFFAOYSA-N-P37-P37-P198-601513

>  <HIPPO Compound ID>  (4908) 
302332

>  <ref_mols>  (4908) 
A0310a,A3618a

>  <distance_score>  (4908) 
1.705153

>  <inspiration_score>  (4908) 
None

$$$$
LXKIJFRTEUOQDX-UHFFFAOYSA-N-P198-P37-P198-601513
     RDKit          3D

 21 23  0  0  0  0  0  0  0  0999 V2000
    9.7565    9.9082   22.8089 O   0  0  0  0  0  0  0  0  0  0  0  0
    8.9903   10.5743   23.4914 C   0  0  0  0  0  0  0  0  0  0  0  0
    8.9970   12.1077   23.5868 C   0  0  0  0  0  0  0  0  0  0  0  0
    7.7956   12.7849   23.9547 O   0  0  0  0  0  0  0  0  0  0  0  0
    7.0063   12.0875   24.8365 C   0  0  0  0  0  0  0  0  0  0  0  0
    6.0866   12.8305   25.4992 N   0  0  0  0  0  0  0  0  0  0  0  0
    5.2870   12.1652   26.3721 C   0  0  0  0  0  0  0  0  0  0  0  0
    4.2998   12.9321   27.1896 C   0  0  0  0  0  0  0  0  0  0  0  0
    4.1209   12.6179   28.2951 O   0  0  0  0  0  0  0  0  0  0  0  0
    3.6020   13.9894   26.3342 N   0  0  0  0  0  0  0  0  0  0  0  0
    2.4648   14.8284   26.6237 C   0  0  2  0  0  0  0  0  0  0  0  0
    1.1388   14.0547   26.4439 C   0  0  0  0  0  0  0  0  0  0  0  0
    0.9833   13.5171   25.1231 O   0  0  0  0  0  0  0  0  0  0  0  0
    2.5284   16.0693   25.7705 C   0  0  0  0  0  0  0  0  0  0  0  0
    2.4762   15.8309   24.3502 O   0  0  0  0  0  0  0  0  0  0  0  0
    1.8867   17.3498   26.2344 C   0  0  0  0  0  0  0  0  0  0  0  0
    3.3843   17.2275   26.2154 C   0  0  0  0  0  0  0  0  0  0  0  0
    5.3128   10.7991   26.5433 C   0  0  0  0  0  0  0  0  0  0  0  0
    6.2273   10.0743   25.8041 C   0  0  0  0  0  0  0  0  0  0  0  0
    7.1183   10.7135   24.9740 C   0  0  0  0  0  0  0  0  0  0  0  0
    8.0603    9.9685   24.2787 N   0  0  0  0  0  0  0  0  0  0  0  0
  1  2  2  0
  2  3  1  0
  3  4  1  0
  4  5  1  0
  5  6  2  0
  6  7  1  0
  7  8  1  0
  8  9  2  0
  8 10  1  0
 10 11  1  0
 11 12  1  6
 12 13  1  0
 11 14  1  0
 14 15  1  0
 14 16  1  0
 16 17  1  0
  7 18  2  0
 18 19  1  0
 19 20  2  0
 20 21  1  0
 21  2  1  0
 20  5  1  0
 17 14  1  0
M  END
>  <energy_score>  (4909) 
-22.260846

>  <inchikey>  (4909) 
LXKIJFRTEUOQDX-UHFFFAOYSA-N

>  <smiles>  (4909) 
O=C1COc2nc(C(=O)NC(CO)C3(O)CC3)ccc2N1

>  <ref_pdb>  (4909) 
A1068a

>  <alias>  (4909) 
LXKIJFRTEUOQDX-UHFFFAOYSA-N-P198-P37-P198-601513

>  <HIPPO Pose ID>  (4909) 
523749

>  <name>  (4909) 
LXKIJFRTEUOQDX-UHFFFAOYSA-N-P198-P37-P198-601513

>  <HIPPO Compound ID>  (4909) 
302332

>  <ref_mols>  (4909) 
A0310a,A3618a

>  <distance_score>  (4909) 
1.869746

>  <inspiration_score>  (4909) 
None

$$$$
CGBUVNJUWHPQMH-UHFFFAOYSA-N-P198-P37-P198-601513
     RDKit          3D

 21 23  0  0  0  0  0  0  0  0999 V2000
    1.8515   15.8111   26.3480 C   0  0  0  0  0  0  0  0  0  0  0  0
    1.1557   14.4886   26.6935 C   0  0  0  0  0  0  0  0  0  0  0  0
    0.7165   13.7962   25.4012 C   0  0  0  0  0  0  0  0  0  0  0  0
    2.0522   13.6283   27.6103 C   0  0  2  0  0  0  0  0  0  0  0  0
    3.2227   13.1119   26.9461 N   0  0  0  0  0  0  0  0  0  0  0  0
    4.7173   13.2161   27.3220 C   0  0  0  0  0  0  0  0  0  0  0  0
    5.2404   13.8006   28.1847 O   0  0  0  0  0  0  0  0  0  0  0  0
    5.5360   12.3176   26.4443 C   0  0  0  0  0  0  0  0  0  0  0  0
    5.1952   10.9799   26.3757 C   0  0  0  0  0  0  0  0  0  0  0  0
    6.0119   10.1321   25.6407 C   0  0  0  0  0  0  0  0  0  0  0  0
    7.1349   10.6284   25.0057 C   0  0  0  0  0  0  0  0  0  0  0  0
    7.3988   11.9821   25.1261 C   0  0  0  0  0  0  0  0  0  0  0  0
    6.6270   12.8305   25.8377 N   0  0  0  0  0  0  0  0  0  0  0  0
    8.5426   12.5471   24.6302 O   0  0  0  0  0  0  0  0  0  0  0  0
    9.1647   11.7981   23.5969 C   0  0  0  0  0  0  0  0  0  0  0  0
    9.0202   10.2701   23.5604 C   0  0  0  0  0  0  0  0  0  0  0  0
    9.7133    9.5265   22.8767 O   0  0  0  0  0  0  0  0  0  0  0  0
    7.9763    9.7808   24.2926 N   0  0  0  0  0  0  0  0  0  0  0  0
    1.3072   12.4501   28.1917 C   0  0  0  0  0  0  0  0  0  0  0  0
    1.7649   11.8359   29.4920 C   0  0  0  0  0  0  0  0  0  0  0  0
    0.4754   12.6073   29.4396 C   0  0  0  0  0  0  0  0  0  0  0  0
  1  2  1  0
  2  3  1  0
  2  4  1  0
  4  5  1  6
  5  6  1  0
  6  7  2  0
  6  8  1  0
  8  9  2  0
  9 10  1  0
 10 11  2  0
 11 12  1  0
 12 13  2  0
 12 14  1  0
 14 15  1  0
 15 16  1  0
 16 17  2  0
 16 18  1  0
  4 19  1  0
 19 20  1  0
 20 21  1  0
 13  8  1  0
 21 19  1  0
 18 11  1  0
M  END
>  <energy_score>  (4910) 
-5.836658

>  <inchikey>  (4910) 
CGBUVNJUWHPQMH-UHFFFAOYSA-N

>  <smiles>  (4910) 
CC(C)C(NC(=O)c1ccc2c(n1)OCC(=O)N2)C1CC1

>  <ref_pdb>  (4910) 
A1068a

>  <alias>  (4910) 
CGBUVNJUWHPQMH-UHFFFAOYSA-N-P198-P37-P198-601513

>  <HIPPO Pose ID>  (4910) 
523753

>  <name>  (4910) 
CGBUVNJUWHPQMH-UHFFFAOYSA-N-P198-P37-P198-601513

>  <HIPPO Compound ID>  (4910) 
302334

>  <ref_mols>  (4910) 
A0310a,A3618a

>  <distance_score>  (4910) 
1.961831

>  <inspiration_score>  (4910) 
None

$$$$
QBAIPWFYCTXYJN-UHFFFAOYSA-N-P198-P37-P198-601513
     RDKit          3D

 22 24  0  0  0  0  0  0  0  0999 V2000
   -0.3802   13.4417   24.8828 C   0  0  0  0  0  0  0  0  0  0  0  0
    0.9548   13.3689   25.3686 O   0  0  0  0  0  0  0  0  0  0  0  0
    1.0509   13.8234   26.7280 C   0  0  0  0  0  0  0  0  0  0  0  0
    2.4383   14.4546   27.0508 C   0  0  1  0  0  0  0  0  0  0  0  0
    2.5171   14.5876   28.5857 C   0  0  0  0  0  0  0  0  0  0  0  0
    3.5116   13.6027   26.5582 N   0  0  0  0  0  0  0  0  0  0  0  0
    5.0132   13.5764   26.9126 C   0  0  0  0  0  0  0  0  0  0  0  0
    5.6123   14.1804   27.7106 O   0  0  0  0  0  0  0  0  0  0  0  0
    5.7318   12.5498   26.1059 C   0  0  0  0  0  0  0  0  0  0  0  0
    5.4651   11.2163   26.3431 C   0  0  0  0  0  0  0  0  0  0  0  0
    6.2591   10.2752   25.6985 C   0  0  0  0  0  0  0  0  0  0  0  0
    7.2793   10.6884   24.8559 C   0  0  0  0  0  0  0  0  0  0  0  0
    7.4321   12.0473   24.6356 C   0  0  0  0  0  0  0  0  0  0  0  0
    6.6846   12.9819   25.2513 N   0  0  0  0  0  0  0  0  0  0  0  0
    8.3151   12.5474   23.7157 O   0  0  0  0  0  0  0  0  0  0  0  0
    9.3815   11.6695   23.3874 C   0  0  0  0  0  0  0  0  0  0  0  0
    9.1422   10.1529   23.4320 C   0  0  0  0  0  0  0  0  0  0  0  0
    9.8166    9.3267   22.8297 O   0  0  0  0  0  0  0  0  0  0  0  0
    8.1013    9.7599   24.2267 N   0  0  0  0  0  0  0  0  0  0  0  0
    2.6820   15.8244   26.4357 C   0  0  0  0  0  0  0  0  0  0  0  0
    2.6234   16.0363   24.9415 C   0  0  0  0  0  0  0  0  0  0  0  0
    1.6263   16.7229   25.8340 C   0  0  0  0  0  0  0  0  0  0  0  0
  1  2  1  0
  2  3  1  0
  3  4  1  0
  4  5  1  1
  4  6  1  0
  6  7  1  0
  7  8  2  0
  7  9  1  0
  9 10  2  0
 10 11  1  0
 11 12  2  0
 12 13  1  0
 13 14  2  0
 13 15  1  0
 15 16  1  0
 16 17  1  0
 17 18  2  0
 17 19  1  0
  4 20  1  0
 20 21  1  0
 21 22  1  0
 14  9  1  0
 22 20  1  0
 19 12  1  0
M  END
>  <energy_score>  (4911) 
-22.558712

>  <inchikey>  (4911) 
QBAIPWFYCTXYJN-UHFFFAOYSA-N

>  <smiles>  (4911) 
COCC(C)(NC(=O)c1ccc2c(n1)OCC(=O)N2)C1CC1

>  <ref_pdb>  (4911) 
A1068a

>  <alias>  (4911) 
QBAIPWFYCTXYJN-UHFFFAOYSA-N-P198-P37-P198-601513

>  <HIPPO Pose ID>  (4911) 
523781

>  <name>  (4911) 
QBAIPWFYCTXYJN-UHFFFAOYSA-N-P198-P37-P198-601513

>  <HIPPO Compound ID>  (4911) 
302348

>  <ref_mols>  (4911) 
A0310a,A3618a

>  <distance_score>  (4911) 
1.993644

>  <inspiration_score>  (4911) 
None

$$$$
ATQHBSSLIDOZDR-UHFFFAOYSA-N-P198-P37-P198-601513
     RDKit          3D

 22 24  0  0  0  0  0  0  0  0999 V2000
    1.5512   14.4404   24.1447 C   0  0  0  0  0  0  0  0  0  0  0  0
    1.0893   15.3954   25.0871 O   0  0  0  0  0  0  0  0  0  0  0  0
    1.3323   15.0236   26.4542 C   0  0  0  0  0  0  0  0  0  0  0  0
    2.7657   15.3977   26.9700 C   0  0  2  0  0  0  0  0  0  0  0  0
    3.1640   16.7926   26.4543 C   0  0  0  0  0  0  0  0  0  0  0  0
    3.7536   14.4242   26.5101 N   0  0  0  0  0  0  0  0  0  0  0  0
    3.6835   12.8856   26.4333 C   0  0  0  0  0  0  0  0  0  0  0  0
    2.7985   12.1572   26.6526 O   0  0  0  0  0  0  0  0  0  0  0  0
    4.9860   12.2525   25.9744 C   0  0  0  0  0  0  0  0  0  0  0  0
    5.8915   12.8296   25.0982 C   0  0  0  0  0  0  0  0  0  0  0  0
    6.9688   12.0609   24.6406 C   0  0  0  0  0  0  0  0  0  0  0  0
    7.0864   10.7346   25.0139 C   0  0  0  0  0  0  0  0  0  0  0  0
    6.1480   10.2541   25.8929 C   0  0  0  0  0  0  0  0  0  0  0  0
    5.1490   10.9885   26.4136 N   0  0  0  0  0  0  0  0  0  0  0  0
    8.0493    9.9075   24.4414 N   0  0  0  0  0  0  0  0  0  0  0  0
    8.9827   10.4038   23.5754 C   0  0  0  0  0  0  0  0  0  0  0  0
    9.7290    9.6646   22.9464 O   0  0  0  0  0  0  0  0  0  0  0  0
    9.0344   11.9356   23.5339 C   0  0  0  0  0  0  0  0  0  0  0  0
    7.8089   12.6437   23.7271 O   0  0  0  0  0  0  0  0  0  0  0  0
    2.8970   15.3940   28.4919 C   0  0  0  0  0  0  0  0  0  0  0  0
    1.8237   15.8759   29.4409 C   0  0  0  0  0  0  0  0  0  0  0  0
    2.1607   14.4103   29.3712 C   0  0  0  0  0  0  0  0  0  0  0  0
  1  2  1  0
  2  3  1  0
  3  4  1  0
  4  5  1  6
  4  6  1  0
  6  7  1  0
  7  8  2  0
  7  9  1  0
  9 10  2  0
 10 11  1  0
 11 12  2  0
 12 13  1  0
 13 14  2  0
 12 15  1  0
 15 16  1  0
 16 17  2  0
 16 18  1  0
 18 19  1  0
  4 20  1  0
 20 21  1  0
 21 22  1  0
 14  9  1  0
 22 20  1  0
 19 11  1  0
M  END
>  <energy_score>  (4912) 
-14.997997

>  <inchikey>  (4912) 
ATQHBSSLIDOZDR-UHFFFAOYSA-N

>  <smiles>  (4912) 
COCC(C)(NC(=O)c1cc2c(cn1)NC(=O)CO2)C1CC1

>  <ref_pdb>  (4912) 
A1068a

>  <alias>  (4912) 
ATQHBSSLIDOZDR-UHFFFAOYSA-N-P198-P37-P198-601513

>  <HIPPO Pose ID>  (4912) 
523819

>  <name>  (4912) 
ATQHBSSLIDOZDR-UHFFFAOYSA-N-P198-P37-P198-601513

>  <HIPPO Compound ID>  (4912) 
302367

>  <ref_mols>  (4912) 
A0310a,A3618a

>  <distance_score>  (4912) 
1.887083

>  <inspiration_score>  (4912) 
None

$$$$
OMLOCEFKJSBTOK-UHFFFAOYSA-N-P198-P37-P198-601513
     RDKit          3D

 22 24  0  0  0  0  0  0  0  0999 V2000
    9.6394    9.3261   22.9951 O   0  0  0  0  0  0  0  0  0  0  0  0
    8.9713   10.1280   23.6392 C   0  0  0  0  0  0  0  0  0  0  0  0
    9.1863   11.6455   23.5921 C   0  0  0  0  0  0  0  0  0  0  0  0
    8.5250   12.4944   24.5191 O   0  0  0  0  0  0  0  0  0  0  0  0
    7.3620   11.9872   25.0201 C   0  0  0  0  0  0  0  0  0  0  0  0
    6.4885   12.9036   25.5958 C   0  0  0  0  0  0  0  0  0  0  0  0
    5.3296   12.4305   26.1743 C   0  0  0  0  0  0  0  0  0  0  0  0
    4.3181   13.3690   26.7793 C   0  0  0  0  0  0  0  0  0  0  0  0
    4.4967   14.5185   26.7752 O   0  0  0  0  0  0  0  0  0  0  0  0
    3.1350   12.5475   27.3106 N   0  0  0  0  0  0  0  0  0  0  0  0
    1.8640   12.9757   27.8704 C   0  0  2  0  0  0  0  0  0  0  0  0
    1.3045   11.8159   28.6606 C   0  0  0  0  0  0  0  0  0  0  0  0
    1.8759   11.4736   30.0152 C   0  0  0  0  0  0  0  0  0  0  0  0
    0.4897   12.0461   29.9090 C   0  0  0  0  0  0  0  0  0  0  0  0
    0.8579   13.4851   26.8110 C   0  0  0  0  0  0  0  0  0  0  0  0
   -0.2991   13.8903   27.3893 F   0  0  0  0  0  0  0  0  0  0  0  0
    0.5302   12.5048   25.9264 F   0  0  0  0  0  0  0  0  0  0  0  0
    1.3364   14.5264   26.0986 F   0  0  0  0  0  0  0  0  0  0  0  0
    5.0223   11.1128   26.2360 N   0  0  0  0  0  0  0  0  0  0  0  0
    5.8981   10.2548   25.6626 C   0  0  0  0  0  0  0  0  0  0  0  0
    7.0662   10.6372   25.0291 C   0  0  0  0  0  0  0  0  0  0  0  0
    7.9100    9.7214   24.4028 N   0  0  0  0  0  0  0  0  0  0  0  0
  1  2  2  0
  2  3  1  0
  3  4  1  0
  4  5  1  0
  5  6  2  0
  6  7  1  0
  7  8  1  0
  8  9  2  0
  8 10  1  0
 11 10  1  6
 11 12  1  0
 12 13  1  0
 13 14  1  0
 11 15  1  0
 15 16  1  0
 15 17  1  0
 15 18  1  0
  7 19  2  0
 19 20  1  0
 20 21  2  0
 21 22  1  0
 22  2  1  0
 21  5  1  0
 14 12  1  0
M  END
>  <energy_score>  (4913) 
-22.074134

>  <inchikey>  (4913) 
OMLOCEFKJSBTOK-UHFFFAOYSA-N

>  <smiles>  (4913) 
O=C1COc2cc(C(=O)NC(C3CC3)C(F)(F)F)ncc2N1

>  <ref_pdb>  (4913) 
A1068a

>  <alias>  (4913) 
OMLOCEFKJSBTOK-UHFFFAOYSA-N-P198-P37-P198-601513

>  <HIPPO Pose ID>  (4913) 
523823

>  <name>  (4913) 
OMLOCEFKJSBTOK-UHFFFAOYSA-N-P198-P37-P198-601513

>  <HIPPO Compound ID>  (4913) 
302369

>  <ref_mols>  (4913) 
A0310a,A3618a

>  <distance_score>  (4913) 
1.928009

>  <inspiration_score>  (4913) 
None

$$$$
KMLQQHWXDGKTCT-UHFFFAOYSA-N-P37-P37-P198-601513
     RDKit          3D

 22 25  0  0  0  0  0  0  0  0999 V2000
   10.3879   10.6585   22.7247 O   0  0  0  0  0  0  0  0  0  0  0  0
    9.4404   10.6757   23.4952 C   0  0  0  0  0  0  0  0  0  0  0  0
    8.8447    9.4096   24.0313 C   0  0  0  0  0  0  0  0  0  0  0  0
    8.0247    9.4803   25.1833 O   0  0  0  0  0  0  0  0  0  0  0  0
    7.4028   10.6658   25.4194 C   0  0  0  0  0  0  0  0  0  0  0  0
    6.3866   10.6644   26.3659 C   0  0  0  0  0  0  0  0  0  0  0  0
    5.7518   11.8653   26.6347 C   0  0  0  0  0  0  0  0  0  0  0  0
    4.6031   11.8901   27.6094 C   0  0  0  0  0  0  0  0  0  0  0  0
    4.4655   11.0180   28.3689 O   0  0  0  0  0  0  0  0  0  0  0  0
    3.7410   13.1375   27.3576 N   0  0  0  0  0  0  0  0  0  0  0  0
    2.5733   13.6278   28.0534 C   0  0  1  0  0  0  0  0  0  0  0  0
    2.1952   15.0074   27.5234 C   0  0  0  0  0  0  0  0  0  0  0  0
    2.1186   15.3135   25.9990 C   0  0  0  0  0  0  0  0  0  0  0  0
    2.6444   16.7260   26.3319 C   0  0  0  0  0  0  0  0  0  0  0  0
    3.2597   16.1360   27.6140 C   0  0  0  0  0  0  0  0  0  0  0  0
    1.4340   12.6687   27.8589 C   0  0  0  0  0  0  0  0  0  0  0  0
    1.2540   11.4895   28.7853 C   0  0  0  0  0  0  0  0  0  0  0  0
    0.2916   12.6404   28.8456 C   0  0  0  0  0  0  0  0  0  0  0  0
    6.0737   13.0444   26.0314 N   0  0  0  0  0  0  0  0  0  0  0  0
    7.0867   13.0028   25.1284 C   0  0  0  0  0  0  0  0  0  0  0  0
    7.7749   11.8450   24.7922 C   0  0  0  0  0  0  0  0  0  0  0  0
    8.8231   11.8364   23.8714 N   0  0  0  0  0  0  0  0  0  0  0  0
  1  2  2  0
  2  3  1  0
  3  4  1  0
  4  5  1  0
  5  6  2  0
  6  7  1  0
  7  8  1  0
  8  9  2  0
  8 10  1  0
 11 10  1  6
 11 12  1  0
 12 13  1  0
 13 14  1  0
 14 15  1  0
 11 16  1  0
 16 17  1  0
 17 18  1  0
  7 19  2  0
 19 20  1  0
 20 21  2  0
 21 22  1  0
 22  2  1  0
 21  5  1  0
 15 12  1  0
 18 16  1  0
M  END
>  <energy_score>  (4914) 
-18.734751

>  <inchikey>  (4914) 
KMLQQHWXDGKTCT-UHFFFAOYSA-N

>  <smiles>  (4914) 
O=C1COc2cc(C(=O)NC(C3CCC3)C3CC3)ncc2N1

>  <ref_pdb>  (4914) 
A1068a

>  <alias>  (4914) 
KMLQQHWXDGKTCT-UHFFFAOYSA-N-P37-P37-P198-601513

>  <HIPPO Pose ID>  (4914) 
523824

>  <name>  (4914) 
KMLQQHWXDGKTCT-UHFFFAOYSA-N-P37-P37-P198-601513

>  <HIPPO Compound ID>  (4914) 
302370

>  <ref_mols>  (4914) 
A0310a,A3618a

>  <distance_score>  (4914) 
1.903621

>  <inspiration_score>  (4914) 
None

$$$$
KMLQQHWXDGKTCT-UHFFFAOYSA-N-P198-P37-P198-601513
     RDKit          3D

 22 25  0  0  0  0  0  0  0  0999 V2000
    9.5687    9.2594   23.0419 O   0  0  0  0  0  0  0  0  0  0  0  0
    8.8989   10.0663   23.6778 C   0  0  0  0  0  0  0  0  0  0  0  0
    9.1187   11.5805   23.6184 C   0  0  0  0  0  0  0  0  0  0  0  0
    8.5787   12.3906   24.6538 O   0  0  0  0  0  0  0  0  0  0  0  0
    7.3703   11.9461   25.1118 C   0  0  0  0  0  0  0  0  0  0  0  0
    6.5548   12.8869   25.7292 C   0  0  0  0  0  0  0  0  0  0  0  0
    5.3625   12.4652   26.2820 C   0  0  0  0  0  0  0  0  0  0  0  0
    4.4674   13.4378   27.0067 C   0  0  0  0  0  0  0  0  0  0  0  0
    4.8253   14.5307   27.1951 O   0  0  0  0  0  0  0  0  0  0  0  0
    3.1497   12.7397   27.3885 N   0  0  0  0  0  0  0  0  0  0  0  0
    2.0332   13.2102   28.1653 C   0  0  1  0  0  0  0  0  0  0  0  0
    1.0688   14.0187   27.2964 C   0  0  0  0  0  0  0  0  0  0  0  0
    0.4258   13.4117   26.0203 C   0  0  0  0  0  0  0  0  0  0  0  0
    0.3737   14.8465   25.4545 C   0  0  0  0  0  0  0  0  0  0  0  0
    1.5663   15.1743   26.3779 C   0  0  0  0  0  0  0  0  0  0  0  0
    1.3418   12.0199   28.7711 C   0  0  0  0  0  0  0  0  0  0  0  0
    1.8994   11.3717   30.0133 C   0  0  0  0  0  0  0  0  0  0  0  0
    0.6084   12.1396   30.0829 C   0  0  0  0  0  0  0  0  0  0  0  0
    4.9603   11.1723   26.2577 N   0  0  0  0  0  0  0  0  0  0  0  0
    5.7943   10.2828   25.6621 C   0  0  0  0  0  0  0  0  0  0  0  0
    6.9969   10.6162   25.0631 C   0  0  0  0  0  0  0  0  0  0  0  0
    7.8169    9.6799   24.4285 N   0  0  0  0  0  0  0  0  0  0  0  0
  1  2  2  0
  2  3  1  0
  3  4  1  0
  4  5  1  0
  5  6  2  0
  6  7  1  0
  7  8  1  0
  8  9  2  0
  8 10  1  0
 11 10  1  6
 11 12  1  0
 12 13  1  0
 13 14  1  0
 14 15  1  0
 11 16  1  0
 16 17  1  0
 17 18  1  0
  7 19  2  0
 19 20  1  0
 20 21  2  0
 21 22  1  0
 22  2  1  0
 21  5  1  0
 15 12  1  0
 18 16  1  0
M  END
>  <energy_score>  (4915) 
-20.338588

>  <inchikey>  (4915) 
KMLQQHWXDGKTCT-UHFFFAOYSA-N

>  <smiles>  (4915) 
O=C1COc2cc(C(=O)NC(C3CCC3)C3CC3)ncc2N1

>  <ref_pdb>  (4915) 
A1068a

>  <alias>  (4915) 
KMLQQHWXDGKTCT-UHFFFAOYSA-N-P198-P37-P198-601513

>  <HIPPO Pose ID>  (4915) 
523825

>  <name>  (4915) 
KMLQQHWXDGKTCT-UHFFFAOYSA-N-P198-P37-P198-601513

>  <HIPPO Compound ID>  (4915) 
302370

>  <ref_mols>  (4915) 
A0310a,A3618a

>  <distance_score>  (4915) 
1.992131

>  <inspiration_score>  (4915) 
None

$$$$
HNSNCWQDIVQWSL-UHFFFAOYSA-N-P37-P37-P198-601513
     RDKit          3D

 22 24  0  0  0  0  0  0  0  0999 V2000
    1.5037   14.5637   25.5530 C   0  0  0  0  0  0  0  0  0  0  0  0
    1.3303   14.0105   26.9750 C   0  0  0  0  0  0  0  0  0  0  0  0
    0.1875   14.7761   27.6639 C   0  0  0  0  0  0  0  0  0  0  0  0
    0.9315   12.6332   26.8539 O   0  0  0  0  0  0  0  0  0  0  0  0
    2.6691   14.1741   27.7873 C   0  0  2  0  0  0  0  0  0  0  0  0
    3.8313   13.5699   27.1522 N   0  0  0  0  0  0  0  0  0  0  0  0
    4.4538   12.1709   27.3270 C   0  0  0  0  0  0  0  0  0  0  0  0
    4.0901   11.2542   27.9494 O   0  0  0  0  0  0  0  0  0  0  0  0
    5.7049   12.0643   26.4855 C   0  0  0  0  0  0  0  0  0  0  0  0
    6.2843   10.8233   26.2630 C   0  0  0  0  0  0  0  0  0  0  0  0
    7.3554   10.7574   25.3782 C   0  0  0  0  0  0  0  0  0  0  0  0
    7.8357   11.9072   24.7703 C   0  0  0  0  0  0  0  0  0  0  0  0
    7.2174   13.1097   25.0808 C   0  0  0  0  0  0  0  0  0  0  0  0
    6.1620   13.2216   25.9255 N   0  0  0  0  0  0  0  0  0  0  0  0
    8.9043   11.8282   23.8764 N   0  0  0  0  0  0  0  0  0  0  0  0
    9.4371   10.6297   23.4939 C   0  0  0  0  0  0  0  0  0  0  0  0
   10.3596   10.5477   22.6969 O   0  0  0  0  0  0  0  0  0  0  0  0
    8.7796    9.4069   24.0565 C   0  0  0  0  0  0  0  0  0  0  0  0
    7.8979    9.5316   25.1570 O   0  0  0  0  0  0  0  0  0  0  0  0
    2.5656   13.6819   29.2099 C   0  0  0  0  0  0  0  0  0  0  0  0
    2.2500   14.6250   30.3477 C   0  0  0  0  0  0  0  0  0  0  0  0
    3.6283   14.0439   30.2226 C   0  0  0  0  0  0  0  0  0  0  0  0
  1  2  1  0
  2  3  1  0
  2  4  1  0
  2  5  1  0
  5  6  1  6
  6  7  1  0
  7  8  2  0
  7  9  1  0
  9 10  2  0
 10 11  1  0
 11 12  2  0
 12 13  1  0
 13 14  2  0
 12 15  1  0
 15 16  1  0
 16 17  2  0
 16 18  1  0
 18 19  1  0
  5 20  1  0
 20 21  1  0
 21 22  1  0
 14  9  1  0
 22 20  1  0
 19 11  1  0
M  END
>  <energy_score>  (4916) 
-24.738308

>  <inchikey>  (4916) 
HNSNCWQDIVQWSL-UHFFFAOYSA-N

>  <smiles>  (4916) 
CC(C)(O)C(NC(=O)c1cc2c(cn1)NC(=O)CO2)C1CC1

>  <ref_pdb>  (4916) 
A1068a

>  <alias>  (4916) 
HNSNCWQDIVQWSL-UHFFFAOYSA-N-P37-P37-P198-601513

>  <HIPPO Pose ID>  (4916) 
523826

>  <name>  (4916) 
HNSNCWQDIVQWSL-UHFFFAOYSA-N-P37-P37-P198-601513

>  <HIPPO Compound ID>  (4916) 
302371

>  <ref_mols>  (4916) 
A0310a,A3618a

>  <distance_score>  (4916) 
1.912235

>  <inspiration_score>  (4916) 
None

$$$$
HNSNCWQDIVQWSL-UHFFFAOYSA-N-P198-P37-P198-601513
     RDKit          3D

 22 24  0  0  0  0  0  0  0  0999 V2000
    1.3767   14.8553   25.7879 C   0  0  0  0  0  0  0  0  0  0  0  0
    0.7474   13.6982   26.5803 C   0  0  0  0  0  0  0  0  0  0  0  0
   -0.5241   14.2065   27.2743 C   0  0  0  0  0  0  0  0  0  0  0  0
    0.3287   12.6914   25.6289 O   0  0  0  0  0  0  0  0  0  0  0  0
    1.7594   13.1110   27.6262 C   0  0  2  0  0  0  0  0  0  0  0  0
    2.9918   12.6540   27.0245 N   0  0  0  0  0  0  0  0  0  0  0  0
    4.2898   13.4139   26.7060 C   0  0  0  0  0  0  0  0  0  0  0  0
    4.5463   14.5457   26.8068 O   0  0  0  0  0  0  0  0  0  0  0  0
    5.3006   12.4523   26.1394 C   0  0  0  0  0  0  0  0  0  0  0  0
    6.4840   12.9078   25.5963 C   0  0  0  0  0  0  0  0  0  0  0  0
    7.3543   11.9810   25.0345 C   0  0  0  0  0  0  0  0  0  0  0  0
    7.0410   10.6345   25.0359 C   0  0  0  0  0  0  0  0  0  0  0  0
    5.8558   10.2675   25.6467 C   0  0  0  0  0  0  0  0  0  0  0  0
    4.9749   11.1396   26.1909 N   0  0  0  0  0  0  0  0  0  0  0  0
    7.8862    9.7107   24.4204 N   0  0  0  0  0  0  0  0  0  0  0  0
    8.9526   10.1112   23.6591 C   0  0  0  0  0  0  0  0  0  0  0  0
    9.6291    9.3087   23.0246 O   0  0  0  0  0  0  0  0  0  0  0  0
    9.1606   11.6286   23.5974 C   0  0  0  0  0  0  0  0  0  0  0  0
    8.5334   12.4713   24.5527 O   0  0  0  0  0  0  0  0  0  0  0  0
    1.1956   11.9499   28.4080 C   0  0  0  0  0  0  0  0  0  0  0  0
    0.5434   12.1458   29.7555 C   0  0  0  0  0  0  0  0  0  0  0  0
    1.8870   11.4811   29.6671 C   0  0  0  0  0  0  0  0  0  0  0  0
  1  2  1  0
  2  3  1  0
  2  4  1  0
  2  5  1  0
  5  6  1  6
  6  7  1  0
  7  8  2  0
  7  9  1  0
  9 10  2  0
 10 11  1  0
 11 12  2  0
 12 13  1  0
 13 14  2  0
 12 15  1  0
 15 16  1  0
 16 17  2  0
 16 18  1  0
 18 19  1  0
  5 20  1  0
 20 21  1  0
 21 22  1  0
 14  9  1  0
 22 20  1  0
 19 11  1  0
M  END
>  <energy_score>  (4917) 
-32.581045

>  <inchikey>  (4917) 
HNSNCWQDIVQWSL-UHFFFAOYSA-N

>  <smiles>  (4917) 
CC(C)(O)C(NC(=O)c1cc2c(cn1)NC(=O)CO2)C1CC1

>  <ref_pdb>  (4917) 
A1068a

>  <alias>  (4917) 
HNSNCWQDIVQWSL-UHFFFAOYSA-N-P198-P37-P198-601513

>  <HIPPO Pose ID>  (4917) 
523827

>  <name>  (4917) 
HNSNCWQDIVQWSL-UHFFFAOYSA-N-P198-P37-P198-601513

>  <HIPPO Compound ID>  (4917) 
302371

>  <ref_mols>  (4917) 
A0310a,A3618a

>  <distance_score>  (4917) 
1.921969

>  <inspiration_score>  (4917) 
None

$$$$
NYEJLTXBVDKXGA-UHFFFAOYSA-N-P37-P37-P198-601513
     RDKit          3D

 22 24  0  0  0  0  0  0  0  0999 V2000
    0.5365   15.1305   29.3142 C   0  0  0  0  0  0  0  0  0  0  0  0
    0.2998   14.1084   28.2987 N   0  0  0  0  0  0  0  0  0  0  0  0
   -0.2572   12.9001   28.9031 C   0  0  0  0  0  0  0  0  0  0  0  0
    1.4521   13.8178   27.4234 C   0  0  2  0  0  0  0  0  0  0  0  0
    2.7889   13.5684   28.1660 C   0  0  0  0  0  0  0  0  0  0  0  0
    3.8741   13.1084   27.3269 N   0  0  0  0  0  0  0  0  0  0  0  0
    5.0648   12.1798   27.6475 C   0  0  0  0  0  0  0  0  0  0  0  0
    5.3153   11.5791   28.6150 O   0  0  0  0  0  0  0  0  0  0  0  0
    6.0327   12.0903   26.4973 C   0  0  0  0  0  0  0  0  0  0  0  0
    6.4720   13.2374   25.8438 C   0  0  0  0  0  0  0  0  0  0  0  0
    7.4769   13.1097   24.8831 C   0  0  0  0  0  0  0  0  0  0  0  0
    8.0008   11.8505   24.6181 C   0  0  0  0  0  0  0  0  0  0  0  0
    7.4871   10.7595   25.3086 C   0  0  0  0  0  0  0  0  0  0  0  0
    6.5161   10.8525   26.2349 N   0  0  0  0  0  0  0  0  0  0  0  0
    7.9825    9.5036   25.1469 O   0  0  0  0  0  0  0  0  0  0  0  0
    8.7966    9.2903   24.0138 C   0  0  0  0  0  0  0  0  0  0  0  0
    9.5037   10.4433   23.3726 C   0  0  0  0  0  0  0  0  0  0  0  0
   10.3975   10.2696   22.5599 O   0  0  0  0  0  0  0  0  0  0  0  0
    9.0344   11.6839   23.6973 N   0  0  0  0  0  0  0  0  0  0  0  0
    1.5943   14.9666   26.4415 C   0  0  0  0  0  0  0  0  0  0  0  0
    0.4046   15.4278   25.6352 C   0  0  0  0  0  0  0  0  0  0  0  0
    1.5379   14.7193   24.9525 C   0  0  0  0  0  0  0  0  0  0  0  0
  1  2  1  0
  2  3  1  0
  2  4  1  0
  4  5  1  1
  5  6  1  0
  6  7  1  0
  7  8  2  0
  7  9  1  0
  9 10  2  0
 10 11  1  0
 11 12  2  0
 12 13  1  0
 13 14  2  0
 13 15  1  0
 15 16  1  0
 16 17  1  0
 17 18  2  0
 17 19  1  0
  4 20  1  0
 20 21  1  0
 21 22  1  0
 14  9  1  0
 22 20  1  0
 19 12  1  0
M  END
>  <energy_score>  (4918) 
-44.792368

>  <inchikey>  (4918) 
NYEJLTXBVDKXGA-UHFFFAOYSA-N

>  <smiles>  (4918) 
CN(C)C(CNC(=O)c1ccc2c(n1)OCC(=O)N2)C1CC1

>  <ref_pdb>  (4918) 
A1068a

>  <alias>  (4918) 
NYEJLTXBVDKXGA-UHFFFAOYSA-N-P37-P37-P198-601513

>  <HIPPO Pose ID>  (4918) 
523832

>  <name>  (4918) 
NYEJLTXBVDKXGA-UHFFFAOYSA-N-P37-P37-P198-601513

>  <HIPPO Compound ID>  (4918) 
302375

>  <ref_mols>  (4918) 
A0310a,A3618a

>  <distance_score>  (4918) 
1.641579

>  <inspiration_score>  (4918) 
None

$$$$
NYEJLTXBVDKXGA-UHFFFAOYSA-N-P198-P37-P198-601513
     RDKit          3D

 22 24  0  0  0  0  0  0  0  0999 V2000
    1.9465   14.1798   29.1251 C   0  0  0  0  0  0  0  0  0  0  0  0
    1.6503   13.2588   28.0286 N   0  0  0  0  0  0  0  0  0  0  0  0
    0.7509   12.2061   28.4729 C   0  0  0  0  0  0  0  0  0  0  0  0
    1.2514   13.9061   26.7614 C   0  0  2  0  0  0  0  0  0  0  0  0
    2.4174   14.7073   26.0970 C   0  0  0  0  0  0  0  0  0  0  0  0
    3.5942   13.8938   25.8881 N   0  0  0  0  0  0  0  0  0  0  0  0
    4.7576   13.5521   26.8408 C   0  0  0  0  0  0  0  0  0  0  0  0
    4.9897   13.9341   27.9174 O   0  0  0  0  0  0  0  0  0  0  0  0
    5.6053   12.4940   26.2357 C   0  0  0  0  0  0  0  0  0  0  0  0
    5.1687   11.1840   26.2822 C   0  0  0  0  0  0  0  0  0  0  0  0
    5.9526   10.2134   25.6650 C   0  0  0  0  0  0  0  0  0  0  0  0
    7.1271   10.5801   25.0289 C   0  0  0  0  0  0  0  0  0  0  0  0
    7.4855   11.9181   25.0650 C   0  0  0  0  0  0  0  0  0  0  0  0
    6.7484   12.8814   25.6420 N   0  0  0  0  0  0  0  0  0  0  0  0
    8.7001   12.3477   24.6136 O   0  0  0  0  0  0  0  0  0  0  0  0
    9.2094   11.5535   23.5574 C   0  0  0  0  0  0  0  0  0  0  0  0
    8.9968   10.0372   23.6086 C   0  0  0  0  0  0  0  0  0  0  0  0
    9.6525    9.2321   22.9580 O   0  0  0  0  0  0  0  0  0  0  0  0
    7.9275    9.6447   24.3733 N   0  0  0  0  0  0  0  0  0  0  0  0
    0.0259   14.7805   26.8881 C   0  0  0  0  0  0  0  0  0  0  0  0
   -1.3688   14.2091   26.7799 C   0  0  0  0  0  0  0  0  0  0  0  0
   -0.8281   15.0675   25.6741 C   0  0  0  0  0  0  0  0  0  0  0  0
  1  2  1  0
  2  3  1  0
  2  4  1  0
  4  5  1  1
  5  6  1  0
  6  7  1  0
  7  8  2  0
  7  9  1  0
  9 10  2  0
 10 11  1  0
 11 12  2  0
 12 13  1  0
 13 14  2  0
 13 15  1  0
 15 16  1  0
 16 17  1  0
 17 18  2  0
 17 19  1  0
  4 20  1  0
 20 21  1  0
 21 22  1  0
 14  9  1  0
 22 20  1  0
 19 12  1  0
M  END
>  <energy_score>  (4919) 
-46.055848

>  <inchikey>  (4919) 
NYEJLTXBVDKXGA-UHFFFAOYSA-N

>  <smiles>  (4919) 
CN(C)C(CNC(=O)c1ccc2c(n1)OCC(=O)N2)C1CC1

>  <ref_pdb>  (4919) 
A1068a

>  <alias>  (4919) 
NYEJLTXBVDKXGA-UHFFFAOYSA-N-P198-P37-P198-601513

>  <HIPPO Pose ID>  (4919) 
523833

>  <name>  (4919) 
NYEJLTXBVDKXGA-UHFFFAOYSA-N-P198-P37-P198-601513

>  <HIPPO Compound ID>  (4919) 
302375

>  <ref_mols>  (4919) 
A0310a,A3618a

>  <distance_score>  (4919) 
1.96776

>  <inspiration_score>  (4919) 
None

$$$$
WQSNSLLJHVBKEF-UHFFFAOYSA-N-P37-P37-P198-601513
     RDKit          3D

 22 24  0  0  0  0  0  0  0  0999 V2000
   10.3685   10.6277   22.7465 O   0  0  0  0  0  0  0  0  0  0  0  0
    9.4158   10.6894   23.5089 C   0  0  0  0  0  0  0  0  0  0  0  0
    8.7912    9.4539   24.0823 C   0  0  0  0  0  0  0  0  0  0  0  0
    7.9402    9.5710   25.2086 O   0  0  0  0  0  0  0  0  0  0  0  0
    7.3474   10.7777   25.4073 C   0  0  0  0  0  0  0  0  0  0  0  0
    6.3136   10.8274   26.3360 C   0  0  0  0  0  0  0  0  0  0  0  0
    5.6893   12.0490   26.5399 C   0  0  0  0  0  0  0  0  0  0  0  0
    4.5202   12.1443   27.4850 C   0  0  0  0  0  0  0  0  0  0  0  0
    4.4413   11.4030   28.3812 O   0  0  0  0  0  0  0  0  0  0  0  0
    3.5742   13.2772   27.0389 N   0  0  0  0  0  0  0  0  0  0  0  0
    2.3702   13.8023   27.6620 C   0  0  1  0  0  0  0  0  0  0  0  0
    1.8657   15.1183   27.0757 C   0  0  0  0  0  0  0  0  0  0  0  0
    1.4276   14.9598   25.6562 N   0  0  0  0  0  0  0  0  0  0  0  0
    2.2918   14.6547   24.8246 O   0  0  0  0  0  0  0  0  0  0  0  0
    0.2386   15.1853   25.4003 O   0  0  0  0  0  0  0  0  0  0  0  0
    1.2902   12.7547   27.6800 C   0  0  0  0  0  0  0  0  0  0  0  0
    1.2458   11.6871   28.7465 C   0  0  0  0  0  0  0  0  0  0  0  0
    0.2231   12.7867   28.7479 C   0  0  0  0  0  0  0  0  0  0  0  0
    6.0447   13.1980   25.9029 N   0  0  0  0  0  0  0  0  0  0  0  0
    7.0788   13.1081   25.0281 C   0  0  0  0  0  0  0  0  0  0  0  0
    7.7546   11.9283   24.7479 C   0  0  0  0  0  0  0  0  0  0  0  0
    8.8171   11.8718   23.8441 N   0  0  0  0  0  0  0  0  0  0  0  0
  1  2  2  0
  2  3  1  0
  3  4  1  0
  4  5  1  0
  5  6  2  0
  6  7  1  0
  7  8  1  0
  8  9  2  0
  8 10  1  0
 10 11  1  0
 11 12  1  6
 12 13  1  0
 13 14  2  0
 13 15  1  0
 11 16  1  0
 16 17  1  0
 17 18  1  0
  7 19  2  0
 19 20  1  0
 20 21  2  0
 21 22  1  0
 22  2  1  0
 21  5  1  0
 18 16  1  0
M  CHG  2  13   1  15  -1
M  END
>  <energy_score>  (4920) 
-18.021864

>  <inchikey>  (4920) 
WQSNSLLJHVBKEF-UHFFFAOYSA-N

>  <smiles>  (4920) 
O=C1COc2cc(C(=O)NC(C[N+](=O)[O-])C3CC3)ncc2N1

>  <ref_pdb>  (4920) 
A1068a

>  <alias>  (4920) 
WQSNSLLJHVBKEF-UHFFFAOYSA-N-P37-P37-P198-601513

>  <HIPPO Pose ID>  (4920) 
523846

>  <name>  (4920) 
WQSNSLLJHVBKEF-UHFFFAOYSA-N-P37-P37-P198-601513

>  <HIPPO Compound ID>  (4920) 
302383

>  <ref_mols>  (4920) 
A0310a,A3618a

>  <distance_score>  (4920) 
1.573397

>  <inspiration_score>  (4920) 
None

$$$$
WQSNSLLJHVBKEF-UHFFFAOYSA-N-P198-P37-P198-601513
     RDKit          3D

 22 24  0  0  0  0  0  0  0  0999 V2000
    9.6065    9.2998   23.0512 O   0  0  0  0  0  0  0  0  0  0  0  0
    8.9291   10.1075   23.6782 C   0  0  0  0  0  0  0  0  0  0  0  0
    9.1379   11.6237   23.6018 C   0  0  0  0  0  0  0  0  0  0  0  0
    8.4953   12.4803   24.5338 O   0  0  0  0  0  0  0  0  0  0  0  0
    7.3180   11.9903   25.0199 C   0  0  0  0  0  0  0  0  0  0  0  0
    6.4380   12.9218   25.5580 C   0  0  0  0  0  0  0  0  0  0  0  0
    5.2630   12.4687   26.1227 C   0  0  0  0  0  0  0  0  0  0  0  0
    4.2578   13.4355   26.6951 C   0  0  0  0  0  0  0  0  0  0  0  0
    4.4591   14.5817   26.6538 O   0  0  0  0  0  0  0  0  0  0  0  0
    3.0598   12.6536   27.2597 N   0  0  0  0  0  0  0  0  0  0  0  0
    1.8954   13.1126   27.9803 C   0  0  1  0  0  0  0  0  0  0  0  0
    0.9834   14.0214   27.1538 C   0  0  0  0  0  0  0  0  0  0  0  0
   -0.0411   13.2295   26.4145 N   0  0  0  0  0  0  0  0  0  0  0  0
   -1.1857   13.2024   26.8870 O   0  0  0  0  0  0  0  0  0  0  0  0
    0.3066   12.6411   25.3820 O   0  0  0  0  0  0  0  0  0  0  0  0
    1.2286   11.9364   28.6404 C   0  0  0  0  0  0  0  0  0  0  0  0
    1.6962   11.4569   29.9923 C   0  0  0  0  0  0  0  0  0  0  0  0
    0.3561   12.1245   29.8556 C   0  0  0  0  0  0  0  0  0  0  0  0
    4.9532   11.1545   26.2175 N   0  0  0  0  0  0  0  0  0  0  0  0
    5.8359   10.2790   25.6765 C   0  0  0  0  0  0  0  0  0  0  0  0
    7.0153   10.6422   25.0498 C   0  0  0  0  0  0  0  0  0  0  0  0
    7.8649    9.7137   24.4469 N   0  0  0  0  0  0  0  0  0  0  0  0
  1  2  2  0
  2  3  1  0
  3  4  1  0
  4  5  1  0
  5  6  2  0
  6  7  1  0
  7  8  1  0
  8  9  2  0
  8 10  1  0
 10 11  1  0
 11 12  1  6
 12 13  1  0
 13 14  2  0
 13 15  1  0
 11 16  1  0
 16 17  1  0
 17 18  1  0
  7 19  2  0
 19 20  1  0
 20 21  2  0
 21 22  1  0
 22  2  1  0
 21  5  1  0
 18 16  1  0
M  CHG  2  13   1  15  -1
M  END
>  <energy_score>  (4921) 
-23.155633

>  <inchikey>  (4921) 
WQSNSLLJHVBKEF-UHFFFAOYSA-N

>  <smiles>  (4921) 
O=C1COc2cc(C(=O)NC(C[N+](=O)[O-])C3CC3)ncc2N1

>  <ref_pdb>  (4921) 
A1068a

>  <alias>  (4921) 
WQSNSLLJHVBKEF-UHFFFAOYSA-N-P198-P37-P198-601513

>  <HIPPO Pose ID>  (4921) 
523847

>  <name>  (4921) 
WQSNSLLJHVBKEF-UHFFFAOYSA-N-P198-P37-P198-601513

>  <HIPPO Compound ID>  (4921) 
302383

>  <ref_mols>  (4921) 
A0310a,A3618a

>  <distance_score>  (4921) 
1.944944

>  <inspiration_score>  (4921) 
None

$$$$
NUPZSZZBCDLIDT-UHFFFAOYSA-N-P37-P37-P198-601513
     RDKit          3D

 22 24  0  0  0  0  0  0  0  0999 V2000
    1.2084   12.7062   27.9970 C   0  0  0  0  0  0  0  0  0  0  0  0
    1.4984   13.8176   27.0106 C   0  0  0  0  0  0  0  0  0  0  0  0
    1.4413   13.3101   25.7488 F   0  0  0  0  0  0  0  0  0  0  0  0
    0.4765   14.7178   27.1007 F   0  0  0  0  0  0  0  0  0  0  0  0
    2.8507   14.5562   27.2337 C   0  0  1  0  0  0  0  0  0  0  0  0
    4.0516   13.8676   26.7761 N   0  0  0  0  0  0  0  0  0  0  0  0
    4.6327   12.5005   27.1743 C   0  0  0  0  0  0  0  0  0  0  0  0
    4.2868   11.7409   27.9863 O   0  0  0  0  0  0  0  0  0  0  0  0
    5.8611   12.2267   26.3347 C   0  0  0  0  0  0  0  0  0  0  0  0
    6.3604   10.9391   26.1955 C   0  0  0  0  0  0  0  0  0  0  0  0
    7.4273   10.7557   25.3183 C   0  0  0  0  0  0  0  0  0  0  0  0
    7.9825   11.8413   24.6515 C   0  0  0  0  0  0  0  0  0  0  0  0
    7.4389   13.0943   24.8824 C   0  0  0  0  0  0  0  0  0  0  0  0
    6.3874   13.3151   25.7039 N   0  0  0  0  0  0  0  0  0  0  0  0
    9.0470   11.6559   23.7701 N   0  0  0  0  0  0  0  0  0  0  0  0
    9.4873   10.4102   23.4298 C   0  0  0  0  0  0  0  0  0  0  0  0
   10.3809   10.2297   22.6173 O   0  0  0  0  0  0  0  0  0  0  0  0
    8.7491    9.2654   24.0502 C   0  0  0  0  0  0  0  0  0  0  0  0
    7.8944    9.4858   25.1597 O   0  0  0  0  0  0  0  0  0  0  0  0
    2.8364   15.8936   26.5189 C   0  0  0  0  0  0  0  0  0  0  0  0
    3.8520   16.9590   26.8548 C   0  0  0  0  0  0  0  0  0  0  0  0
    2.4118   17.1519   27.2364 C   0  0  0  0  0  0  0  0  0  0  0  0
  1  2  1  0
  2  3  1  0
  2  4  1  0
  2  5  1  0
  5  6  1  6
  6  7  1  0
  7  8  2  0
  7  9  1  0
  9 10  2  0
 10 11  1  0
 11 12  2  0
 12 13  1  0
 13 14  2  0
 12 15  1  0
 15 16  1  0
 16 17  2  0
 16 18  1  0
 18 19  1  0
  5 20  1  0
 20 21  1  0
 21 22  1  0
 14  9  1  0
 22 20  1  0
 19 11  1  0
M  END
>  <energy_score>  (4922) 
-15.93833

>  <inchikey>  (4922) 
NUPZSZZBCDLIDT-UHFFFAOYSA-N

>  <smiles>  (4922) 
CC(F)(F)C(NC(=O)c1cc2c(cn1)NC(=O)CO2)C1CC1

>  <ref_pdb>  (4922) 
A1068a

>  <alias>  (4922) 
NUPZSZZBCDLIDT-UHFFFAOYSA-N-P37-P37-P198-601513

>  <HIPPO Pose ID>  (4922) 
523850

>  <name>  (4922) 
NUPZSZZBCDLIDT-UHFFFAOYSA-N-P37-P37-P198-601513

>  <HIPPO Compound ID>  (4922) 
302385

>  <ref_mols>  (4922) 
A0310a,A3618a

>  <distance_score>  (4922) 
1.811895

>  <inspiration_score>  (4922) 
None

$$$$
VECZJVHWMMAGEN-UHFFFAOYSA-N-P37-P37-P198-601513
     RDKit          3D

 22 24  0  0  0  0  0  0  0  0999 V2000
    1.9668   16.4801   26.6536 C   0  0  0  0  0  0  0  0  0  0  0  0
    1.5721   15.0738   26.5874 N   0  0  0  0  0  0  0  0  0  0  0  0
    2.0641   14.4625   25.3625 C   0  0  0  0  0  0  0  0  0  0  0  0
    1.8925   14.3519   27.8365 C   0  0  2  0  0  0  0  0  0  0  0  0
    3.3609   14.4021   28.3689 C   0  0  0  0  0  0  0  0  0  0  0  0
    4.3831   13.7354   27.5957 N   0  0  0  0  0  0  0  0  0  0  0  0
    4.7392   12.2422   27.4859 C   0  0  0  0  0  0  0  0  0  0  0  0
    4.3156   11.3205   28.0593 O   0  0  0  0  0  0  0  0  0  0  0  0
    5.8641   12.0583   26.4946 C   0  0  0  0  0  0  0  0  0  0  0  0
    6.3725   10.7914   26.2442 C   0  0  0  0  0  0  0  0  0  0  0  0
    7.4147   10.6798   25.3301 C   0  0  0  0  0  0  0  0  0  0  0  0
    7.9211   11.8122   24.7074 C   0  0  0  0  0  0  0  0  0  0  0  0
    7.3517   13.0379   25.0208 C   0  0  0  0  0  0  0  0  0  0  0  0
    6.3366   13.1929   25.9050 N   0  0  0  0  0  0  0  0  0  0  0  0
    8.9758   11.6976   23.8031 N   0  0  0  0  0  0  0  0  0  0  0  0
    9.4734   10.4828   23.4294 C   0  0  0  0  0  0  0  0  0  0  0  0
   10.3859   10.3679   22.6264 O   0  0  0  0  0  0  0  0  0  0  0  0
    8.7847    9.2836   24.0033 C   0  0  0  0  0  0  0  0  0  0  0  0
    7.9122    9.4318   25.1088 O   0  0  0  0  0  0  0  0  0  0  0  0
    1.3559   12.9398   27.8492 C   0  0  0  0  0  0  0  0  0  0  0  0
    0.9989   12.2871   29.1671 C   0  0  0  0  0  0  0  0  0  0  0  0
   -0.0843   12.6565   28.1987 C   0  0  0  0  0  0  0  0  0  0  0  0
  1  2  1  0
  2  3  1  0
  2  4  1  0
  4  5  1  6
  5  6  1  0
  6  7  1  0
  7  8  2  0
  7  9  1  0
  9 10  2  0
 10 11  1  0
 11 12  2  0
 12 13  1  0
 13 14  2  0
 12 15  1  0
 15 16  1  0
 16 17  2  0
 16 18  1  0
 18 19  1  0
  4 20  1  0
 20 21  1  0
 21 22  1  0
 14  9  1  0
 22 20  1  0
 19 11  1  0
M  END
>  <energy_score>  (4923) 
-26.377539

>  <inchikey>  (4923) 
VECZJVHWMMAGEN-UHFFFAOYSA-N

>  <smiles>  (4923) 
CN(C)C(CNC(=O)c1cc2c(cn1)NC(=O)CO2)C1CC1

>  <ref_pdb>  (4923) 
A1068a

>  <alias>  (4923) 
VECZJVHWMMAGEN-UHFFFAOYSA-N-P37-P37-P198-601513

>  <HIPPO Pose ID>  (4923) 
523858

>  <name>  (4923) 
VECZJVHWMMAGEN-UHFFFAOYSA-N-P37-P37-P198-601513

>  <HIPPO Compound ID>  (4923) 
302389

>  <ref_mols>  (4923) 
A0310a,A3618a

>  <distance_score>  (4923) 
1.712073

>  <inspiration_score>  (4923) 
None

$$$$
VECZJVHWMMAGEN-UHFFFAOYSA-N-P198-P37-P198-601513
     RDKit          3D

 22 24  0  0  0  0  0  0  0  0999 V2000
    2.4686   16.4830   25.8452 C   0  0  0  0  0  0  0  0  0  0  0  0
    1.6620   15.2686   25.7315 N   0  0  0  0  0  0  0  0  0  0  0  0
    2.1767   14.4134   24.6681 C   0  0  0  0  0  0  0  0  0  0  0  0
    1.4642   14.6150   27.0453 C   0  0  2  0  0  0  0  0  0  0  0  0
    2.7104   14.3118   27.9319 C   0  0  0  0  0  0  0  0  0  0  0  0
    3.7811   13.5852   27.2976 N   0  0  0  0  0  0  0  0  0  0  0  0
    3.9752   12.0762   27.0867 C   0  0  0  0  0  0  0  0  0  0  0  0
    3.3403   11.1750   27.4585 O   0  0  0  0  0  0  0  0  0  0  0  0
    5.2254   11.8544   26.2642 C   0  0  0  0  0  0  0  0  0  0  0  0
    5.6742   10.5712   25.9942 C   0  0  0  0  0  0  0  0  0  0  0  0
    6.8120   10.4400   25.2047 C   0  0  0  0  0  0  0  0  0  0  0  0
    7.4566   11.5682   24.7104 C   0  0  0  0  0  0  0  0  0  0  0  0
    6.9472   12.8114   25.0471 C   0  0  0  0  0  0  0  0  0  0  0  0
    5.8551   12.9873   25.8242 N   0  0  0  0  0  0  0  0  0  0  0  0
    8.5732   11.4398   23.8878 N   0  0  0  0  0  0  0  0  0  0  0  0
    9.0002   10.2201   23.4535 C   0  0  0  0  0  0  0  0  0  0  0  0
    9.8947   10.1038   22.6296 O   0  0  0  0  0  0  0  0  0  0  0  0
    8.2397    9.0336   23.9578 C   0  0  0  0  0  0  0  0  0  0  0  0
    7.2465    9.1717   24.9612 O   0  0  0  0  0  0  0  0  0  0  0  0
    0.5490   13.4154   26.9460 C   0  0  0  0  0  0  0  0  0  0  0  0
   -0.5496   13.2449   27.9706 C   0  0  0  0  0  0  0  0  0  0  0  0
   -0.8997   13.5652   26.5450 C   0  0  0  0  0  0  0  0  0  0  0  0
  1  2  1  0
  2  3  1  0
  2  4  1  0
  4  5  1  6
  5  6  1  0
  6  7  1  0
  7  8  2  0
  7  9  1  0
  9 10  2  0
 10 11  1  0
 11 12  2  0
 12 13  1  0
 13 14  2  0
 12 15  1  0
 15 16  1  0
 16 17  2  0
 16 18  1  0
 18 19  1  0
  4 20  1  0
 20 21  1  0
 21 22  1  0
 14  9  1  0
 22 20  1  0
 19 11  1  0
M  END
>  <energy_score>  (4924) 
-27.040276

>  <inchikey>  (4924) 
VECZJVHWMMAGEN-UHFFFAOYSA-N

>  <smiles>  (4924) 
CN(C)C(CNC(=O)c1cc2c(cn1)NC(=O)CO2)C1CC1

>  <ref_pdb>  (4924) 
A1068a

>  <alias>  (4924) 
VECZJVHWMMAGEN-UHFFFAOYSA-N-P198-P37-P198-601513

>  <HIPPO Pose ID>  (4924) 
523859

>  <name>  (4924) 
VECZJVHWMMAGEN-UHFFFAOYSA-N-P198-P37-P198-601513

>  <HIPPO Compound ID>  (4924) 
302389

>  <ref_mols>  (4924) 
A0310a,A3618a

>  <distance_score>  (4924) 
1.620266

>  <inspiration_score>  (4924) 
None

$$$$
BCZVAKRIIVFKQO-UHFFFAOYSA-N-P37-P37-P198-601513
     RDKit          3D

 22 24  0  0  0  0  0  0  0  0999 V2000
   -1.0087   14.6090   29.5149 C   0  0  0  0  0  0  0  0  0  0  0  0
   -0.6652   14.1882   28.2910 C   0  0  0  0  0  0  0  0  0  0  0  0
    0.2574   14.9360   27.3714 C   0  0  0  0  0  0  0  0  0  0  0  0
    1.5441   14.1475   27.1099 C   0  0  0  0  0  0  0  0  0  0  0  0
    2.5970   14.9544   26.3274 C   0  0  2  0  0  0  0  0  0  0  0  0
    3.7707   14.1393   26.0831 N   0  0  0  0  0  0  0  0  0  0  0  0
    4.8859   13.6752   27.0430 C   0  0  0  0  0  0  0  0  0  0  0  0
    5.0775   13.9385   28.1629 O   0  0  0  0  0  0  0  0  0  0  0  0
    5.8031   12.7143   26.3698 C   0  0  0  0  0  0  0  0  0  0  0  0
    6.7128   13.1298   25.4175 C   0  0  0  0  0  0  0  0  0  0  0  0
    7.5739   12.1789   24.8740 C   0  0  0  0  0  0  0  0  0  0  0  0
    7.4878   10.8557   25.2699 C   0  0  0  0  0  0  0  0  0  0  0  0
    6.5272   10.5422   26.2129 C   0  0  0  0  0  0  0  0  0  0  0  0
    5.6854   11.4339   26.7747 N   0  0  0  0  0  0  0  0  0  0  0  0
    8.2934    9.8835   24.6770 N   0  0  0  0  0  0  0  0  0  0  0  0
    9.2446   10.2138   23.7466 C   0  0  0  0  0  0  0  0  0  0  0  0
    9.8560    9.3612   23.1146 O   0  0  0  0  0  0  0  0  0  0  0  0
    9.5075   11.7133   23.6229 C   0  0  0  0  0  0  0  0  0  0  0  0
    8.4367   12.6106   23.9058 O   0  0  0  0  0  0  0  0  0  0  0  0
    3.0338   16.1862   27.0770 C   0  0  0  0  0  0  0  0  0  0  0  0
    3.9394   17.1997   26.4248 C   0  0  0  0  0  0  0  0  0  0  0  0
    2.5105   17.5557   26.7187 C   0  0  0  0  0  0  0  0  0  0  0  0
  1  2  2  0
  2  3  1  0
  3  4  1  0
  5  4  1  1
  5  6  1  0
  6  7  1  0
  7  8  2  0
  7  9  1  0
  9 10  2  0
 10 11  1  0
 11 12  2  0
 12 13  1  0
 13 14  2  0
 12 15  1  0
 15 16  1  0
 16 17  2  0
 16 18  1  0
 18 19  1  0
  5 20  1  0
 20 21  1  0
 21 22  1  0
 14  9  1  0
 22 20  1  0
 19 11  1  0
M  END
>  <energy_score>  (4925) 
-12.361173

>  <inchikey>  (4925) 
BCZVAKRIIVFKQO-UHFFFAOYSA-N

>  <smiles>  (4925) 
C=CCCC(NC(=O)c1cc2c(cn1)NC(=O)CO2)C1CC1

>  <ref_pdb>  (4925) 
A1068a

>  <alias>  (4925) 
BCZVAKRIIVFKQO-UHFFFAOYSA-N-P37-P37-P198-601513

>  <HIPPO Pose ID>  (4925) 
523862

>  <name>  (4925) 
BCZVAKRIIVFKQO-UHFFFAOYSA-N-P37-P37-P198-601513

>  <HIPPO Compound ID>  (4925) 
302391

>  <ref_mols>  (4925) 
A0310a,A3618a

>  <distance_score>  (4925) 
1.970479

>  <inspiration_score>  (4925) 
None

$$$$
BCZVAKRIIVFKQO-UHFFFAOYSA-N-P198-P37-P198-601513
     RDKit          3D

 22 24  0  0  0  0  0  0  0  0999 V2000
   -1.1035   14.7704   24.8773 C   0  0  0  0  0  0  0  0  0  0  0  0
    0.1278   15.2499   25.0963 C   0  0  0  0  0  0  0  0  0  0  0  0
    1.1795   14.7124   26.0337 C   0  0  0  0  0  0  0  0  0  0  0  0
    0.7908   13.4692   26.8403 C   0  0  0  0  0  0  0  0  0  0  0  0
    1.8731   13.0257   27.8382 C   0  0  2  0  0  0  0  0  0  0  0  0
    3.0723   12.5935   27.1681 N   0  0  0  0  0  0  0  0  0  0  0  0
    4.3249   13.3833   26.7530 C   0  0  0  0  0  0  0  0  0  0  0  0
    4.5544   14.5233   26.8178 O   0  0  0  0  0  0  0  0  0  0  0  0
    5.3331   12.4305   26.1691 C   0  0  0  0  0  0  0  0  0  0  0  0
    6.5086   12.8921   25.6153 C   0  0  0  0  0  0  0  0  0  0  0  0
    7.3760   11.9688   25.0438 C   0  0  0  0  0  0  0  0  0  0  0  0
    7.0620   10.6225   25.0359 C   0  0  0  0  0  0  0  0  0  0  0  0
    5.8831   10.2500   25.6548 C   0  0  0  0  0  0  0  0  0  0  0  0
    5.0104   11.1162   26.2203 N   0  0  0  0  0  0  0  0  0  0  0  0
    7.9026    9.7036   24.4080 N   0  0  0  0  0  0  0  0  0  0  0  0
    8.9665   10.1097   23.6463 C   0  0  0  0  0  0  0  0  0  0  0  0
    9.6396    9.3106   23.0042 O   0  0  0  0  0  0  0  0  0  0  0  0
    9.1731   11.6278   23.5939 C   0  0  0  0  0  0  0  0  0  0  0  0
    8.5574   12.4592   24.5673 O   0  0  0  0  0  0  0  0  0  0  0  0
    1.3721   11.8780   28.6755 C   0  0  0  0  0  0  0  0  0  0  0  0
    1.9974   11.5896   30.0173 C   0  0  0  0  0  0  0  0  0  0  0  0
    0.5961   12.1303   29.9435 C   0  0  0  0  0  0  0  0  0  0  0  0
  1  2  2  0
  2  3  1  0
  3  4  1  0
  5  4  1  6
  5  6  1  0
  6  7  1  0
  7  8  2  0
  7  9  1  0
  9 10  2  0
 10 11  1  0
 11 12  2  0
 12 13  1  0
 13 14  2  0
 12 15  1  0
 15 16  1  0
 16 17  2  0
 16 18  1  0
 18 19  1  0
  5 20  1  0
 20 21  1  0
 21 22  1  0
 14  9  1  0
 22 20  1  0
 19 11  1  0
M  END
>  <energy_score>  (4926) 
-28.746994

>  <inchikey>  (4926) 
BCZVAKRIIVFKQO-UHFFFAOYSA-N

>  <smiles>  (4926) 
C=CCCC(NC(=O)c1cc2c(cn1)NC(=O)CO2)C1CC1

>  <ref_pdb>  (4926) 
A1068a

>  <alias>  (4926) 
BCZVAKRIIVFKQO-UHFFFAOYSA-N-P198-P37-P198-601513

>  <HIPPO Pose ID>  (4926) 
523863

>  <name>  (4926) 
BCZVAKRIIVFKQO-UHFFFAOYSA-N-P198-P37-P198-601513

>  <HIPPO Compound ID>  (4926) 
302391

>  <ref_mols>  (4926) 
A0310a,A3618a

>  <distance_score>  (4926) 
1.92685

>  <inspiration_score>  (4926) 
None

$$$$
QDGBTEBKCLVZPI-UHFFFAOYSA-N-P37-P37-P198-601513
     RDKit          3D

 22 25  0  0  0  0  0  0  0  0999 V2000
   10.4017   10.1828   22.5736 O   0  0  0  0  0  0  0  0  0  0  0  0
    9.5215   10.3680   23.3991 C   0  0  0  0  0  0  0  0  0  0  0  0
    8.7704    9.2264   24.0082 C   0  0  0  0  0  0  0  0  0  0  0  0
    7.9112    9.4453   25.1129 O   0  0  0  0  0  0  0  0  0  0  0  0
    7.4664   10.7205   25.2864 C   0  0  0  0  0  0  0  0  0  0  0  0
    6.3896   10.9059   26.1481 C   0  0  0  0  0  0  0  0  0  0  0  0
    5.9087   12.1983   26.3007 C   0  0  0  0  0  0  0  0  0  0  0  0
    4.6518   12.4619   27.0949 C   0  0  0  0  0  0  0  0  0  0  0  0
    4.2026   11.6378   27.7857 O   0  0  0  0  0  0  0  0  0  0  0  0
    4.1600   13.8892   26.7947 N   0  0  0  0  0  0  0  0  0  0  0  0
    3.0597   14.6412   27.3556 C   0  0  1  0  0  0  0  0  0  0  0  0
    1.7193   13.8829   27.2620 C   0  0  0  0  0  0  0  0  0  0  0  0
    0.5466   14.7549   27.6195 C   0  0  0  0  0  0  0  0  0  0  0  0
   -0.7514   14.1234   28.0497 C   0  0  0  0  0  0  0  0  0  0  0  0
    0.0768   14.8767   29.0483 C   0  0  0  0  0  0  0  0  0  0  0  0
    3.4303   14.9967   28.7724 C   0  0  0  0  0  0  0  0  0  0  0  0
    3.1238   16.3623   29.3388 C   0  0  0  0  0  0  0  0  0  0  0  0
    4.5454   15.9806   29.0432 C   0  0  0  0  0  0  0  0  0  0  0  0
    6.4704   13.2915   25.7081 N   0  0  0  0  0  0  0  0  0  0  0  0
    7.5271   13.0664   24.8955 C   0  0  0  0  0  0  0  0  0  0  0  0
    8.0469   11.8074   24.6445 C   0  0  0  0  0  0  0  0  0  0  0  0
    9.1099   11.6163   23.7633 N   0  0  0  0  0  0  0  0  0  0  0  0
  1  2  2  0
  2  3  1  0
  3  4  1  0
  4  5  1  0
  5  6  2  0
  6  7  1  0
  7  8  1  0
  8  9  2  0
  8 10  1  0
 10 11  1  0
 11 12  1  1
 12 13  1  0
 13 14  1  0
 14 15  1  0
 11 16  1  0
 16 17  1  0
 17 18  1  0
  7 19  2  0
 19 20  1  0
 20 21  2  0
 21 22  1  0
 22  2  1  0
 21  5  1  0
 15 13  1  0
 18 16  1  0
M  END
>  <energy_score>  (4927) 
-15.405692

>  <inchikey>  (4927) 
QDGBTEBKCLVZPI-UHFFFAOYSA-N

>  <smiles>  (4927) 
O=C1COc2cc(C(=O)NC(CC3CC3)C3CC3)ncc2N1

>  <ref_pdb>  (4927) 
A1068a

>  <alias>  (4927) 
QDGBTEBKCLVZPI-UHFFFAOYSA-N-P37-P37-P198-601513

>  <HIPPO Pose ID>  (4927) 
523870

>  <name>  (4927) 
QDGBTEBKCLVZPI-UHFFFAOYSA-N-P37-P37-P198-601513

>  <HIPPO Compound ID>  (4927) 
302395

>  <ref_mols>  (4927) 
A0310a,A3618a

>  <distance_score>  (4927) 
1.770918

>  <inspiration_score>  (4927) 
None

$$$$
QDGBTEBKCLVZPI-UHFFFAOYSA-N-P198-P37-P198-601513
     RDKit          3D

 22 25  0  0  0  0  0  0  0  0999 V2000
    9.7937    9.2671   22.9156 O   0  0  0  0  0  0  0  0  0  0  0  0
    9.1328   10.1307   23.4802 C   0  0  0  0  0  0  0  0  0  0  0  0
    9.3803   11.6386   23.3438 C   0  0  0  0  0  0  0  0  0  0  0  0
    8.2761   12.5196   23.5271 O   0  0  0  0  0  0  0  0  0  0  0  0
    7.3618   12.0854   24.4513 C   0  0  0  0  0  0  0  0  0  0  0  0
    6.4529   13.0283   24.9195 C   0  0  0  0  0  0  0  0  0  0  0  0
    5.4604   12.6151   25.7882 C   0  0  0  0  0  0  0  0  0  0  0  0
    4.4349   13.5873   26.3153 C   0  0  0  0  0  0  0  0  0  0  0  0
    4.5609   14.7329   26.1448 O   0  0  0  0  0  0  0  0  0  0  0  0
    3.3110   12.8002   27.0121 N   0  0  0  0  0  0  0  0  0  0  0  0
    2.1507   13.2627   27.7301 C   0  0  1  0  0  0  0  0  0  0  0  0
    1.2658   14.2379   26.9295 C   0  0  0  0  0  0  0  0  0  0  0  0
    0.8050   13.7428   25.5835 C   0  0  0  0  0  0  0  0  0  0  0  0
    0.1060   14.7062   24.6558 C   0  0  0  0  0  0  0  0  0  0  0  0
    1.4824   14.2106   24.3192 C   0  0  0  0  0  0  0  0  0  0  0  0
    1.3836   12.0620   28.2214 C   0  0  0  0  0  0  0  0  0  0  0  0
    0.5870   12.1221   29.5006 C   0  0  0  0  0  0  0  0  0  0  0  0
    1.8512   11.3102   29.4434 C   0  0  0  0  0  0  0  0  0  0  0  0
    5.3342   11.3310   26.2091 N   0  0  0  0  0  0  0  0  0  0  0  0
    6.2251   10.4404   25.7173 C   0  0  0  0  0  0  0  0  0  0  0  0
    7.2550   10.7636   24.8517 C   0  0  0  0  0  0  0  0  0  0  0  0
    8.1105    9.7977   24.3277 N   0  0  0  0  0  0  0  0  0  0  0  0
  1  2  2  0
  2  3  1  0
  3  4  1  0
  4  5  1  0
  5  6  2  0
  6  7  1  0
  7  8  1  0
  8  9  2  0
  8 10  1  0
 10 11  1  0
 11 12  1  6
 12 13  1  0
 13 14  1  0
 14 15  1  0
 11 16  1  0
 16 17  1  0
 17 18  1  0
  7 19  2  0
 19 20  1  0
 20 21  2  0
 21 22  1  0
 22  2  1  0
 21  5  1  0
 15 13  1  0
 18 16  1  0
M  END
>  <energy_score>  (4928) 
-16.021351

>  <inchikey>  (4928) 
QDGBTEBKCLVZPI-UHFFFAOYSA-N

>  <smiles>  (4928) 
O=C1COc2cc(C(=O)NC(CC3CC3)C3CC3)ncc2N1

>  <ref_pdb>  (4928) 
A1068a

>  <alias>  (4928) 
QDGBTEBKCLVZPI-UHFFFAOYSA-N-P198-P37-P198-601513

>  <HIPPO Pose ID>  (4928) 
523871

>  <name>  (4928) 
QDGBTEBKCLVZPI-UHFFFAOYSA-N-P198-P37-P198-601513

>  <HIPPO Compound ID>  (4928) 
302395

>  <ref_mols>  (4928) 
A0310a,A3618a

>  <distance_score>  (4928) 
1.996035

>  <inspiration_score>  (4928) 
None

$$$$
WLZMSESRZLSCPO-UHFFFAOYSA-N-P37-P37-P198-601513
     RDKit          3D

 22 25  0  0  0  0  0  0  0  0999 V2000
    1.6472   13.6269   27.1117 C   0  0  0  0  0  0  0  0  0  0  0  0
    2.8810   14.1924   27.8531 C   0  0  0  0  0  0  0  0  0  0  0  0
    4.0861   13.5853   27.3088 N   0  0  0  0  0  0  0  0  0  0  0  0
    4.5838   12.1302   27.3612 C   0  0  0  0  0  0  0  0  0  0  0  0
    4.1469   11.2017   27.9139 O   0  0  0  0  0  0  0  0  0  0  0  0
    5.8233   11.9909   26.5076 C   0  0  0  0  0  0  0  0  0  0  0  0
    6.3492   10.7336   26.2471 C   0  0  0  0  0  0  0  0  0  0  0  0
    7.4124   10.6470   25.3540 C   0  0  0  0  0  0  0  0  0  0  0  0
    7.9285   11.7947   24.7700 C   0  0  0  0  0  0  0  0  0  0  0  0
    7.3585   13.0120   25.1124 C   0  0  0  0  0  0  0  0  0  0  0  0
    6.3203   13.1427   25.9730 N   0  0  0  0  0  0  0  0  0  0  0  0
    8.9881   11.7025   23.8692 N   0  0  0  0  0  0  0  0  0  0  0  0
    9.4796   10.4976   23.4579 C   0  0  0  0  0  0  0  0  0  0  0  0
   10.3913   10.4065   22.6508 O   0  0  0  0  0  0  0  0  0  0  0  0
    8.7906    9.2832   23.9989 C   0  0  0  0  0  0  0  0  0  0  0  0
    7.9101    9.4052   25.1012 O   0  0  0  0  0  0  0  0  0  0  0  0
    3.0533   15.6969   27.6591 C   0  0  0  0  0  0  0  0  0  0  0  0
    3.0064   16.3369   26.2906 C   0  0  0  0  0  0  0  0  0  0  0  0
    1.9318   16.6454   27.2956 C   0  0  0  0  0  0  0  0  0  0  0  0
    2.7767   13.7846   29.3200 C   0  0  0  0  0  0  0  0  0  0  0  0
    3.7113   14.2947   30.3950 C   0  0  0  0  0  0  0  0  0  0  0  0
    2.2635   14.7067   30.4029 C   0  0  0  0  0  0  0  0  0  0  0  0
  1  2  1  0
  2  3  1  0
  3  4  1  0
  4  5  2  0
  4  6  1  0
  6  7  2  0
  7  8  1  0
  8  9  2  0
  9 10  1  0
 10 11  2  0
  9 12  1  0
 12 13  1  0
 13 14  2  0
 13 15  1  0
 15 16  1  0
  2 17  1  0
 17 18  1  0
 18 19  1  0
  2 20  1  0
 20 21  1  0
 21 22  1  0
 11  6  1  0
 19 17  1  0
 22 20  1  0
 16  8  1  0
M  END
>  <energy_score>  (4929) 
-30.627767

>  <inchikey>  (4929) 
WLZMSESRZLSCPO-UHFFFAOYSA-N

>  <smiles>  (4929) 
CC(NC(=O)c1cc2c(cn1)NC(=O)CO2)(C1CC1)C1CC1

>  <ref_pdb>  (4929) 
A1068a

>  <alias>  (4929) 
WLZMSESRZLSCPO-UHFFFAOYSA-N-P37-P37-P198-601513

>  <HIPPO Pose ID>  (4929) 
523872

>  <name>  (4929) 
WLZMSESRZLSCPO-UHFFFAOYSA-N-P37-P37-P198-601513

>  <HIPPO Compound ID>  (4929) 
302396

>  <ref_mols>  (4929) 
A0310a,A3618a

>  <distance_score>  (4929) 
1.611887

>  <inspiration_score>  (4929) 
None

$$$$
WLZMSESRZLSCPO-UHFFFAOYSA-N-P198-P37-P198-601513
     RDKit          3D

 22 25  0  0  0  0  0  0  0  0999 V2000
    1.4184   14.9228   26.8551 C   0  0  0  0  0  0  0  0  0  0  0  0
    2.8214   15.1871   27.4563 C   0  0  0  0  0  0  0  0  0  0  0  0
    3.7787   14.2635   26.8765 N   0  0  0  0  0  0  0  0  0  0  0  0
    3.6485   12.7675   26.5437 C   0  0  0  0  0  0  0  0  0  0  0  0
    2.7275   12.0560   26.6105 O   0  0  0  0  0  0  0  0  0  0  0  0
    4.9511   12.1750   26.0556 C   0  0  0  0  0  0  0  0  0  0  0  0
    5.8330   12.8158   25.1978 C   0  0  0  0  0  0  0  0  0  0  0  0
    6.9231   12.0936   24.6956 C   0  0  0  0  0  0  0  0  0  0  0  0
    7.0723   10.7560   25.0182 C   0  0  0  0  0  0  0  0  0  0  0  0
    6.1521   10.2169   25.8828 C   0  0  0  0  0  0  0  0  0  0  0  0
    5.1416   10.9010   26.4438 N   0  0  0  0  0  0  0  0  0  0  0  0
    8.0507    9.9689   24.4188 N   0  0  0  0  0  0  0  0  0  0  0  0
    8.9655   10.5116   23.5643 C   0  0  0  0  0  0  0  0  0  0  0  0
    9.7271    9.8052   22.9164 O   0  0  0  0  0  0  0  0  0  0  0  0
    8.9790   12.0459   23.5622 C   0  0  0  0  0  0  0  0  0  0  0  0
    7.7456   12.7297   23.7992 O   0  0  0  0  0  0  0  0  0  0  0  0
    3.3536   16.5834   27.1546 C   0  0  0  0  0  0  0  0  0  0  0  0
    3.4528   17.0888   25.7333 C   0  0  0  0  0  0  0  0  0  0  0  0
    2.5028   17.7470   26.6939 C   0  0  0  0  0  0  0  0  0  0  0  0
    2.7521   14.8602   28.9439 C   0  0  0  0  0  0  0  0  0  0  0  0
    3.8346   15.2148   29.9399 C   0  0  0  0  0  0  0  0  0  0  0  0
    2.5000   15.9096   30.0015 C   0  0  0  0  0  0  0  0  0  0  0  0
  1  2  1  0
  2  3  1  0
  3  4  1  0
  4  5  2  0
  4  6  1  0
  6  7  2  0
  7  8  1  0
  8  9  2  0
  9 10  1  0
 10 11  2  0
  9 12  1  0
 12 13  1  0
 13 14  2  0
 13 15  1  0
 15 16  1  0
  2 17  1  0
 17 18  1  0
 18 19  1  0
  2 20  1  0
 20 21  1  0
 21 22  1  0
 11  6  1  0
 19 17  1  0
 22 20  1  0
 16  8  1  0
M  END
>  <energy_score>  (4930) 
-15.308799

>  <inchikey>  (4930) 
WLZMSESRZLSCPO-UHFFFAOYSA-N

>  <smiles>  (4930) 
CC(NC(=O)c1cc2c(cn1)NC(=O)CO2)(C1CC1)C1CC1

>  <ref_pdb>  (4930) 
A1068a

>  <alias>  (4930) 
WLZMSESRZLSCPO-UHFFFAOYSA-N-P198-P37-P198-601513

>  <HIPPO Pose ID>  (4930) 
523873

>  <name>  (4930) 
WLZMSESRZLSCPO-UHFFFAOYSA-N-P198-P37-P198-601513

>  <HIPPO Compound ID>  (4930) 
302396

>  <ref_mols>  (4930) 
A0310a,A3618a

>  <distance_score>  (4930) 
1.878557

>  <inspiration_score>  (4930) 
None

$$$$
QVYZFRJZNAYCOR-UHFFFAOYSA-N-P198-P37-P198-601513
     RDKit          3D

 22 24  0  0  0  0  0  0  0  0999 V2000
    9.7226   10.0792   22.8622 O   0  0  0  0  0  0  0  0  0  0  0  0
    8.9230   10.6851   23.5630 C   0  0  0  0  0  0  0  0  0  0  0  0
    8.8574   12.2123   23.7034 C   0  0  0  0  0  0  0  0  0  0  0  0
    7.6962   12.8471   24.2362 O   0  0  0  0  0  0  0  0  0  0  0  0
    6.8804   12.0528   24.9974 C   0  0  0  0  0  0  0  0  0  0  0  0
    5.9002   12.7105   25.6735 N   0  0  0  0  0  0  0  0  0  0  0  0
    5.0434   11.9487   26.4086 C   0  0  0  0  0  0  0  0  0  0  0  0
    3.9539   12.6174   27.2026 C   0  0  0  0  0  0  0  0  0  0  0  0
    3.4136   12.0173   28.0384 O   0  0  0  0  0  0  0  0  0  0  0  0
    3.7420   14.0500   26.7172 N   0  0  0  0  0  0  0  0  0  0  0  0
    2.7535   15.0282   27.0909 C   0  0  2  0  0  0  0  0  0  0  0  0
    1.2933   14.6080   26.9094 C   0  0  0  0  0  0  0  0  0  0  0  0
    1.0114   13.9985   25.5758 N   0  0  0  0  0  0  0  0  0  0  0  0
    0.6258   12.8185   25.5638 O   0  0  0  0  0  0  0  0  0  0  0  0
    1.0917   14.7171   24.5743 O   0  0  0  0  0  0  0  0  0  0  0  0
    3.1972   16.3922   26.6471 C   0  0  0  0  0  0  0  0  0  0  0  0
    2.3664   17.3722   25.8580 C   0  0  0  0  0  0  0  0  0  0  0  0
    3.5354   16.6820   25.2081 C   0  0  0  0  0  0  0  0  0  0  0  0
    5.1167   10.5766   26.4646 C   0  0  0  0  0  0  0  0  0  0  0  0
    6.1178    9.9536   25.7463 C   0  0  0  0  0  0  0  0  0  0  0  0
    7.0300   10.6800   25.0228 C   0  0  0  0  0  0  0  0  0  0  0  0
    8.0174   10.0099   24.3162 N   0  0  0  0  0  0  0  0  0  0  0  0
  1  2  2  0
  2  3  1  0
  3  4  1  0
  4  5  1  0
  5  6  2  0
  6  7  1  0
  7  8  1  0
  8  9  2  0
  8 10  1  0
 10 11  1  0
 11 12  1  6
 12 13  1  0
 13 14  2  0
 13 15  1  0
 11 16  1  0
 16 17  1  0
 17 18  1  0
  7 19  2  0
 19 20  1  0
 20 21  2  0
 21 22  1  0
 22  2  1  0
 21  5  1  0
 18 16  1  0
M  CHG  2  13   1  15  -1
M  END
>  <energy_score>  (4931) 
-26.422344

>  <inchikey>  (4931) 
QVYZFRJZNAYCOR-UHFFFAOYSA-N

>  <smiles>  (4931) 
O=C1COc2nc(C(=O)NC(C[N+](=O)[O-])C3CC3)ccc2N1

>  <ref_pdb>  (4931) 
A1068a

>  <alias>  (4931) 
QVYZFRJZNAYCOR-UHFFFAOYSA-N-P198-P37-P198-601513

>  <HIPPO Pose ID>  (4931) 
523887

>  <name>  (4931) 
QVYZFRJZNAYCOR-UHFFFAOYSA-N-P198-P37-P198-601513

>  <HIPPO Compound ID>  (4931) 
302404

>  <ref_mols>  (4931) 
A0310a,A3618a

>  <distance_score>  (4931) 
1.878848

>  <inspiration_score>  (4931) 
None

$$$$
PQUPONIEIYLOQS-UHFFFAOYSA-N-P198-P37-P198-601513
     RDKit          3D

 22 24  0  0  0  0  0  0  0  0999 V2000
    9.7786    9.7643   22.8524 O   0  0  0  0  0  0  0  0  0  0  0  0
    9.0206   10.4653   23.5077 C   0  0  0  0  0  0  0  0  0  0  0  0
    9.0261   11.9995   23.5273 C   0  0  0  0  0  0  0  0  0  0  0  0
    7.7767   12.6569   23.7380 O   0  0  0  0  0  0  0  0  0  0  0  0
    6.9856   12.0410   24.6765 C   0  0  0  0  0  0  0  0  0  0  0  0
    5.9979   12.8117   25.1903 N   0  0  0  0  0  0  0  0  0  0  0  0
    5.1565   12.2137   26.0715 C   0  0  0  0  0  0  0  0  0  0  0  0
    3.9802   12.9839   26.5924 C   0  0  0  0  0  0  0  0  0  0  0  0
    3.4502   12.6139   27.5604 O   0  0  0  0  0  0  0  0  0  0  0  0
    3.6212   14.1261   25.6395 N   0  0  0  0  0  0  0  0  0  0  0  0
    2.5784   15.1287   25.7218 C   0  0  1  0  0  0  0  0  0  0  0  0
    1.2147   14.4865   26.1178 C   0  0  1  0  0  0  0  0  0  0  0  0
    1.1368   14.0850   27.4979 O   0  0  0  0  0  0  0  0  0  0  0  0
    0.0393   15.4335   25.8641 C   0  0  0  0  0  0  0  0  0  0  0  0
   -1.1756   14.7494   26.1873 O   0  0  0  0  0  0  0  0  0  0  0  0
    3.0289   16.1975   26.6803 C   0  0  0  0  0  0  0  0  0  0  0  0
    2.7051   17.6511   26.4368 C   0  0  0  0  0  0  0  0  0  0  0  0
    4.1179   17.1645   26.2804 C   0  0  0  0  0  0  0  0  0  0  0  0
    5.2528   10.8864   26.4333 C   0  0  0  0  0  0  0  0  0  0  0  0
    6.2435   10.1235   25.8437 C   0  0  0  0  0  0  0  0  0  0  0  0
    7.1376   10.6947   24.9687 C   0  0  0  0  0  0  0  0  0  0  0  0
    8.1017    9.9092   24.3486 N   0  0  0  0  0  0  0  0  0  0  0  0
  1  2  2  0
  2  3  1  0
  3  4  1  0
  4  5  1  0
  5  6  2  0
  6  7  1  0
  7  8  1  0
  8  9  2  0
  8 10  1  0
 11 10  1  1
 11 12  1  0
 12 13  1  1
 12 14  1  0
 14 15  1  0
 11 16  1  0
 16 17  1  0
 17 18  1  0
  7 19  2  0
 19 20  1  0
 20 21  2  0
 21 22  1  0
 22  2  1  0
 21  5  1  0
 18 16  1  0
M  END
>  <energy_score>  (4932) 
-28.470482

>  <inchikey>  (4932) 
PQUPONIEIYLOQS-UHFFFAOYSA-N

>  <smiles>  (4932) 
O=C1COc2nc(C(=O)NC(C(O)CO)C3CC3)ccc2N1

>  <ref_pdb>  (4932) 
A1068a

>  <alias>  (4932) 
PQUPONIEIYLOQS-UHFFFAOYSA-N-P198-P37-P198-601513

>  <HIPPO Pose ID>  (4932) 
523907

>  <name>  (4932) 
PQUPONIEIYLOQS-UHFFFAOYSA-N-P198-P37-P198-601513

>  <HIPPO Compound ID>  (4932) 
302415

>  <ref_mols>  (4932) 
A0310a,A3618a

>  <distance_score>  (4932) 
1.90555

>  <inspiration_score>  (4932) 
None

$$$$
MYEXUEVYWZEEMG-UHFFFAOYSA-N-P198-P37-P198-601513
     RDKit          3D

 22 25  0  0  0  0  0  0  0  0999 V2000
    9.7639    9.8490   22.8437 O   0  0  0  0  0  0  0  0  0  0  0  0
    9.0086   10.5379   23.5159 C   0  0  0  0  0  0  0  0  0  0  0  0
    9.0345   12.0723   23.5782 C   0  0  0  0  0  0  0  0  0  0  0  0
    7.8435   12.7745   23.9267 O   0  0  0  0  0  0  0  0  0  0  0  0
    7.0150   12.0982   24.7870 C   0  0  0  0  0  0  0  0  0  0  0  0
    6.0519   12.8579   25.3626 N   0  0  0  0  0  0  0  0  0  0  0  0
    5.1523   12.2133   26.1540 C   0  0  0  0  0  0  0  0  0  0  0  0
    4.0366   13.0056   26.7767 C   0  0  0  0  0  0  0  0  0  0  0  0
    3.3645   12.5020   27.5823 O   0  0  0  0  0  0  0  0  0  0  0  0
    3.9740   14.4090   26.1675 N   0  0  0  0  0  0  0  0  0  0  0  0
    3.1291   15.5298   26.4856 C   0  0  2  0  0  0  0  0  0  0  0  0
    1.7118   15.1167   26.0746 C   0  0  0  0  0  0  0  0  0  0  0  0
    1.3713   14.8348   24.5808 C   0  0  0  0  0  0  0  0  0  0  0  0
   -0.0370   15.3915   24.8756 C   0  0  0  0  0  0  0  0  0  0  0  0
    0.5992   16.2031   26.0236 C   0  0  0  0  0  0  0  0  0  0  0  0
    3.6597   16.7585   25.8139 C   0  0  0  0  0  0  0  0  0  0  0  0
    4.9028   17.4316   26.3459 C   0  0  0  0  0  0  0  0  0  0  0  0
    3.5670   18.1013   26.4972 C   0  0  0  0  0  0  0  0  0  0  0  0
    5.1896   10.8550   26.3893 C   0  0  0  0  0  0  0  0  0  0  0  0
    6.1823   10.1138   25.7737 C   0  0  0  0  0  0  0  0  0  0  0  0
    7.1169   10.7285   24.9708 C   0  0  0  0  0  0  0  0  0  0  0  0
    8.0754    9.9610   24.3223 N   0  0  0  0  0  0  0  0  0  0  0  0
  1  2  2  0
  2  3  1  0
  3  4  1  0
  4  5  1  0
  5  6  2  0
  6  7  1  0
  7  8  1  0
  8  9  2  0
  8 10  1  0
 11 10  1  6
 11 12  1  0
 12 13  1  0
 13 14  1  0
 14 15  1  0
 11 16  1  0
 16 17  1  0
 17 18  1  0
  7 19  2  0
 19 20  1  0
 20 21  2  0
 21 22  1  0
 22  2  1  0
 21  5  1  0
 15 12  1  0
 18 16  1  0
M  END
>  <energy_score>  (4933) 
-19.728371

>  <inchikey>  (4933) 
MYEXUEVYWZEEMG-UHFFFAOYSA-N

>  <smiles>  (4933) 
O=C1COc2nc(C(=O)NC(C3CCC3)C3CC3)ccc2N1

>  <ref_pdb>  (4933) 
A1068a

>  <alias>  (4933) 
MYEXUEVYWZEEMG-UHFFFAOYSA-N-P198-P37-P198-601513

>  <HIPPO Pose ID>  (4933) 
523963

>  <name>  (4933) 
MYEXUEVYWZEEMG-UHFFFAOYSA-N-P198-P37-P198-601513

>  <HIPPO Compound ID>  (4933) 
302443

>  <ref_mols>  (4933) 
A0310a,A3618a

>  <distance_score>  (4933) 
1.970452

>  <inspiration_score>  (4933) 
None

$$$$
OAOCCRSSGQUMNN-UHFFFAOYSA-N-P37-P37-P198-601513
     RDKit          3D

 23 25  0  0  0  0  0  0  0  0999 V2000
   10.4154   10.4461   22.6691 O   0  0  0  0  0  0  0  0  0  0  0  0
    9.4866   10.5562   23.4547 C   0  0  0  0  0  0  0  0  0  0  0  0
    8.7954    9.3542   24.0208 C   0  0  0  0  0  0  0  0  0  0  0  0
    7.9257    9.5072   25.1270 O   0  0  0  0  0  0  0  0  0  0  0  0
    7.4116   10.7466   25.3376 C   0  0  0  0  0  0  0  0  0  0  0  0
    6.3509   10.8435   26.2304 C   0  0  0  0  0  0  0  0  0  0  0  0
    5.8082   12.1002   26.4480 C   0  0  0  0  0  0  0  0  0  0  0  0
    4.5786   12.2526   27.3102 C   0  0  0  0  0  0  0  0  0  0  0  0
    4.1665   11.3417   27.9076 O   0  0  0  0  0  0  0  0  0  0  0  0
    4.0423   13.6877   27.1858 N   0  0  0  0  0  0  0  0  0  0  0  0
    2.8178   14.2893   27.7002 C   0  0  2  0  0  0  0  0  0  0  0  0
    2.7791   14.0589   29.1918 C   0  0  0  0  0  0  0  0  0  0  0  0
    3.7623   14.7648   30.0967 C   0  0  0  0  0  0  0  0  0  0  0  0
    2.3084   15.1384   30.1369 C   0  0  0  0  0  0  0  0  0  0  0  0
    1.5347   13.7923   26.9783 C   0  0  0  0  0  0  0  0  0  0  0  0
    1.3861   12.4434   27.1026 F   0  0  0  0  0  0  0  0  0  0  0  0
    1.6690   14.0227   25.6345 F   0  0  0  0  0  0  0  0  0  0  0  0
    0.2579   14.4969   27.4439 C   0  0  0  0  0  0  0  0  0  0  0  0
    0.3520   15.9232   27.3591 O   0  0  0  0  0  0  0  0  0  0  0  0
    6.2825   13.2406   25.8687 N   0  0  0  0  0  0  0  0  0  0  0  0
    7.3251   13.0988   25.0152 C   0  0  0  0  0  0  0  0  0  0  0  0
    7.9136   11.8801   24.7151 C   0  0  0  0  0  0  0  0  0  0  0  0
    8.9783   11.7697   23.8210 N   0  0  0  0  0  0  0  0  0  0  0  0
  1  2  2  0
  2  3  1  0
  3  4  1  0
  4  5  1  0
  5  6  2  0
  6  7  1  0
  7  8  1  0
  8  9  2  0
  8 10  1  0
 11 10  1  6
 11 12  1  0
 12 13  1  0
 13 14  1  0
 11 15  1  0
 15 16  1  0
 15 17  1  0
 15 18  1  0
 18 19  1  0
  7 20  2  0
 20 21  1  0
 21 22  2  0
 22 23  1  0
 23  2  1  0
 22  5  1  0
 14 12  1  0
M  END
>  <energy_score>  (4934) 
-17.843402

>  <inchikey>  (4934) 
OAOCCRSSGQUMNN-UHFFFAOYSA-N

>  <smiles>  (4934) 
O=C1COc2cc(C(=O)NC(C3CC3)C(F)(F)CO)ncc2N1

>  <ref_pdb>  (4934) 
A1068a

>  <alias>  (4934) 
OAOCCRSSGQUMNN-UHFFFAOYSA-N-P37-P37-P198-601513

>  <HIPPO Pose ID>  (4934) 
523994

>  <name>  (4934) 
OAOCCRSSGQUMNN-UHFFFAOYSA-N-P37-P37-P198-601513

>  <HIPPO Compound ID>  (4934) 
302462

>  <ref_mols>  (4934) 
A0310a,A3618a

>  <distance_score>  (4934) 
1.954955

>  <inspiration_score>  (4934) 
None

$$$$
OAOCCRSSGQUMNN-UHFFFAOYSA-N-P198-P37-P198-601513
     RDKit          3D

 23 25  0  0  0  0  0  0  0  0999 V2000
    9.9037   10.2126   22.6507 O   0  0  0  0  0  0  0  0  0  0  0  0
    9.0033   10.3179   23.4697 C   0  0  0  0  0  0  0  0  0  0  0  0
    8.2529    9.1220   23.9686 C   0  0  0  0  0  0  0  0  0  0  0  0
    7.2784    9.2645   24.9868 O   0  0  0  0  0  0  0  0  0  0  0  0
    6.8083   10.5206   25.2045 C   0  0  0  0  0  0  0  0  0  0  0  0
    5.6440   10.6297   25.9536 C   0  0  0  0  0  0  0  0  0  0  0  0
    5.1453   11.9026   26.1785 C   0  0  0  0  0  0  0  0  0  0  0  0
    3.8019   12.0801   26.8431 C   0  0  0  0  0  0  0  0  0  0  0  0
    3.1852   11.1502   27.1714 O   0  0  0  0  0  0  0  0  0  0  0  0
    3.4733   13.5767   26.9395 N   0  0  0  0  0  0  0  0  0  0  0  0
    2.2634   14.2513   27.3781 C   0  0  2  0  0  0  0  0  0  0  0  0
    1.9369   13.7813   28.7762 C   0  0  0  0  0  0  0  0  0  0  0  0
    2.7583   14.2506   29.9535 C   0  0  0  0  0  0  0  0  0  0  0  0
    1.3419   14.7267   29.7910 C   0  0  0  0  0  0  0  0  0  0  0  0
    1.0686   14.0564   26.4120 C   0  0  0  0  0  0  0  0  0  0  0  0
   -0.0122   14.7530   26.8704 F   0  0  0  0  0  0  0  0  0  0  0  0
    0.6693   12.7526   26.3604 F   0  0  0  0  0  0  0  0  0  0  0  0
    1.3688   14.5156   24.9786 C   0  0  0  0  0  0  0  0  0  0  0  0
    1.9880   15.8017   24.9118 O   0  0  0  0  0  0  0  0  0  0  0  0
    5.7685   13.0475   25.7645 N   0  0  0  0  0  0  0  0  0  0  0  0
    6.8957   12.8901   25.0322 C   0  0  0  0  0  0  0  0  0  0  0  0
    7.4387   11.6557   24.7141 C   0  0  0  0  0  0  0  0  0  0  0  0
    8.5668   11.5355   23.9052 N   0  0  0  0  0  0  0  0  0  0  0  0
  1  2  2  0
  2  3  1  0
  3  4  1  0
  4  5  1  0
  5  6  2  0
  6  7  1  0
  7  8  1  0
  8  9  2  0
  8 10  1  0
 11 10  1  6
 11 12  1  0
 12 13  1  0
 13 14  1  0
 11 15  1  0
 15 16  1  0
 15 17  1  0
 15 18  1  0
 18 19  1  0
  7 20  2  0
 20 21  1  0
 21 22  2  0
 22 23  1  0
 23  2  1  0
 22  5  1  0
 14 12  1  0
M  END
>  <energy_score>  (4935) 
-15.66049

>  <inchikey>  (4935) 
OAOCCRSSGQUMNN-UHFFFAOYSA-N

>  <smiles>  (4935) 
O=C1COc2cc(C(=O)NC(C3CC3)C(F)(F)CO)ncc2N1

>  <ref_pdb>  (4935) 
A1068a

>  <alias>  (4935) 
OAOCCRSSGQUMNN-UHFFFAOYSA-N-P198-P37-P198-601513

>  <HIPPO Pose ID>  (4935) 
523995

>  <name>  (4935) 
OAOCCRSSGQUMNN-UHFFFAOYSA-N-P198-P37-P198-601513

>  <HIPPO Compound ID>  (4935) 
302462

>  <ref_mols>  (4935) 
A0310a,A3618a

>  <distance_score>  (4935) 
1.945989

>  <inspiration_score>  (4935) 
None

$$$$
WCVFKOBJWHBGSV-UHFFFAOYSA-N-P37-P37-P198-601513
     RDKit          3D

 23 26  0  0  0  0  0  0  0  0999 V2000
    0.9526   12.8886   26.8977 N   0  0  0  0  0  0  0  0  0  0  0  0
    1.8334   13.4478   27.4101 C   0  0  0  0  0  0  0  0  0  0  0  0
    3.0422   14.0747   27.9932 C   0  0  0  0  0  0  0  0  0  0  0  0
    4.2209   13.4845   27.4060 N   0  0  0  0  0  0  0  0  0  0  0  0
    4.7267   12.0324   27.4271 C   0  0  0  0  0  0  0  0  0  0  0  0
    4.2976   11.0988   27.9551 O   0  0  0  0  0  0  0  0  0  0  0  0
    5.9343   11.9187   26.5356 C   0  0  0  0  0  0  0  0  0  0  0  0
    6.4473   10.6661   26.2455 C   0  0  0  0  0  0  0  0  0  0  0  0
    7.4832   10.5904   25.3248 C   0  0  0  0  0  0  0  0  0  0  0  0
    7.9829   11.7450   24.7403 C   0  0  0  0  0  0  0  0  0  0  0  0
    7.4180   12.9588   25.1045 C   0  0  0  0  0  0  0  0  0  0  0  0
    6.4033   13.0795   25.9943 N   0  0  0  0  0  0  0  0  0  0  0  0
    9.0251   11.6607   23.8204 N   0  0  0  0  0  0  0  0  0  0  0  0
    9.5128   10.4583   23.3976 C   0  0  0  0  0  0  0  0  0  0  0  0
   10.4113   10.3736   22.5762 O   0  0  0  0  0  0  0  0  0  0  0  0
    8.8372    9.2375   23.9389 C   0  0  0  0  0  0  0  0  0  0  0  0
    7.9728    9.3507   25.0528 O   0  0  0  0  0  0  0  0  0  0  0  0
    3.0676   13.8603   29.4953 C   0  0  0  0  0  0  0  0  0  0  0  0
    2.5729   12.6178   30.2049 C   0  0  0  0  0  0  0  0  0  0  0  0
    1.8305   13.9177   30.3690 C   0  0  0  0  0  0  0  0  0  0  0  0
    3.0475   15.5588   27.6834 C   0  0  0  0  0  0  0  0  0  0  0  0
    1.8055   16.4092   27.5098 C   0  0  0  0  0  0  0  0  0  0  0  0
    2.6956   16.1274   26.3274 C   0  0  0  0  0  0  0  0  0  0  0  0
  1  2  3  0
  2  3  1  0
  3  4  1  0
  4  5  1  0
  5  6  2  0
  5  7  1  0
  7  8  2  0
  8  9  1  0
  9 10  2  0
 10 11  1  0
 11 12  2  0
 10 13  1  0
 13 14  1  0
 14 15  2  0
 14 16  1  0
 16 17  1  0
  3 18  1  0
 18 19  1  0
 19 20  1  0
  3 21  1  0
 21 22  1  0
 22 23  1  0
 12  7  1  0
 20 18  1  0
 23 21  1  0
 17  9  1  0
M  END
>  <energy_score>  (4936) 
-22.685404

>  <inchikey>  (4936) 
WCVFKOBJWHBGSV-UHFFFAOYSA-N

>  <smiles>  (4936) 
N#CC(NC(=O)c1cc2c(cn1)NC(=O)CO2)(C1CC1)C1CC1

>  <ref_pdb>  (4936) 
A1068a

>  <alias>  (4936) 
WCVFKOBJWHBGSV-UHFFFAOYSA-N-P37-P37-P198-601513

>  <HIPPO Pose ID>  (4936) 
524002

>  <name>  (4936) 
WCVFKOBJWHBGSV-UHFFFAOYSA-N-P37-P37-P198-601513

>  <HIPPO Compound ID>  (4936) 
302466

>  <ref_mols>  (4936) 
A0310a,A3618a

>  <distance_score>  (4936) 
1.79548

>  <inspiration_score>  (4936) 
None

$$$$
CAKCTTJLQIWSFR-UHFFFAOYSA-N-P37-P37-P198-601513
     RDKit          3D

 23 27  0  0  0  0  0  0  0  0999 V2000
   10.3635   10.4892   22.6835 O   0  0  0  0  0  0  0  0  0  0  0  0
    9.4274   10.5541   23.4659 C   0  0  0  0  0  0  0  0  0  0  0  0
    8.7813    9.3205   24.0184 C   0  0  0  0  0  0  0  0  0  0  0  0
    7.9085    9.4202   25.1291 O   0  0  0  0  0  0  0  0  0  0  0  0
    7.3918   10.6505   25.4017 C   0  0  0  0  0  0  0  0  0  0  0  0
    6.4065   10.7218   26.3848 C   0  0  0  0  0  0  0  0  0  0  0  0
    5.8960   11.9710   26.7179 C   0  0  0  0  0  0  0  0  0  0  0  0
    4.8953   12.0930   27.8497 C   0  0  0  0  0  0  0  0  0  0  0  0
    4.7289   11.1635   28.5581 O   0  0  0  0  0  0  0  0  0  0  0  0
    4.2963   13.4845   27.9012 N   0  0  0  0  0  0  0  0  0  0  0  0
    3.3866   14.1326   28.9282 C   0  0  0  0  0  0  0  0  0  0  0  0
    2.1259   13.6040   28.3138 C   0  0  2  0  0  0  0  0  0  0  0  0
    1.4819   12.3419   28.8631 C   0  0  0  0  0  0  0  0  0  0  0  0
    0.0532   11.9555   28.5899 C   0  0  0  0  0  0  0  0  0  0  0  0
    0.4627   12.3816   29.9716 C   0  0  0  0  0  0  0  0  0  0  0  0
    2.9640   13.5668   27.0750 C   0  0  1  0  0  0  0  0  0  0  0  0
    3.0314   14.6607   26.0439 C   0  0  0  0  0  0  0  0  0  0  0  0
    2.4799   16.0517   26.1686 C   0  0  0  0  0  0  0  0  0  0  0  0
    1.8098   15.0595   25.2585 C   0  0  0  0  0  0  0  0  0  0  0  0
    6.2975   13.1137   26.1029 N   0  0  0  0  0  0  0  0  0  0  0  0
    7.2525   13.0057   25.1487 C   0  0  0  0  0  0  0  0  0  0  0  0
    7.8395   11.8059   24.7804 C   0  0  0  0  0  0  0  0  0  0  0  0
    8.8706   11.7422   23.8435 N   0  0  0  0  0  0  0  0  0  0  0  0
  1  2  2  0
  2  3  1  0
  3  4  1  0
  4  5  1  0
  5  6  2  0
  6  7  1  0
  7  8  1  0
  8  9  2  0
  8 10  1  0
 10 11  1  0
 11 12  1  0
 12 13  1  1
 13 14  1  0
 14 15  1  0
 12 16  1  0
 16 17  1  1
 17 18  1  0
 18 19  1  0
  7 20  2  0
 20 21  1  0
 21 22  2  0
 22 23  1  0
 23  2  1  0
 22  5  1  0
 16 10  1  0
 19 17  1  0
 15 13  1  0
M  END
>  <energy_score>  (4937) 
-24.609113

>  <inchikey>  (4937) 
CAKCTTJLQIWSFR-UHFFFAOYSA-N

>  <smiles>  (4937) 
O=C1COc2cc(C(=O)N3CC(C4CC4)C3C3CC3)ncc2N1

>  <ref_pdb>  (4937) 
A1068a

>  <alias>  (4937) 
CAKCTTJLQIWSFR-UHFFFAOYSA-N-P37-P37-P198-601513

>  <HIPPO Pose ID>  (4937) 
524012

>  <name>  (4937) 
CAKCTTJLQIWSFR-UHFFFAOYSA-N-P37-P37-P198-601513

>  <HIPPO Compound ID>  (4937) 
302471

>  <ref_mols>  (4937) 
A0310a,A3618a

>  <distance_score>  (4937) 
1.807268

>  <inspiration_score>  (4937) 
None

$$$$
CAKCTTJLQIWSFR-UHFFFAOYSA-N-P198-P37-P198-601513
     RDKit          3D

 23 27  0  0  0  0  0  0  0  0999 V2000
    9.6362    9.5255   22.9608 O   0  0  0  0  0  0  0  0  0  0  0  0
    8.9418   10.2935   23.6184 C   0  0  0  0  0  0  0  0  0  0  0  0
    9.1181   11.8182   23.6136 C   0  0  0  0  0  0  0  0  0  0  0  0
    8.4399   12.6317   24.5617 O   0  0  0  0  0  0  0  0  0  0  0  0
    7.3207   12.0666   25.1073 C   0  0  0  0  0  0  0  0  0  0  0  0
    6.4873   12.9208   25.8300 C   0  0  0  0  0  0  0  0  0  0  0  0
    5.4203   12.3717   26.5127 C   0  0  0  0  0  0  0  0  0  0  0  0
    4.5893   13.1892   27.4480 C   0  0  0  0  0  0  0  0  0  0  0  0
    4.5173   12.8682   28.5795 O   0  0  0  0  0  0  0  0  0  0  0  0
    3.8926   14.3018   26.7021 N   0  0  0  0  0  0  0  0  0  0  0  0
    2.9717   15.4014   27.1990 C   0  0  0  0  0  0  0  0  0  0  0  0
    1.7115   14.6089   27.0555 C   0  0  2  0  0  0  0  0  0  0  0  0
    0.9576   13.9909   28.2219 C   0  0  0  0  0  0  0  0  0  0  0  0
    1.5087   13.8094   29.6098 C   0  0  0  0  0  0  0  0  0  0  0  0
    1.1773   12.6073   28.7740 C   0  0  0  0  0  0  0  0  0  0  0  0
    2.5207   13.8135   26.0849 C   0  0  1  0  0  0  0  0  0  0  0  0
    2.5412   14.0703   24.5924 C   0  0  0  0  0  0  0  0  0  0  0  0
    2.1251   15.3347   23.9020 C   0  0  0  0  0  0  0  0  0  0  0  0
    1.2971   14.0919   23.7422 C   0  0  0  0  0  0  0  0  0  0  0  0
    5.1203   11.0581   26.4651 N   0  0  0  0  0  0  0  0  0  0  0  0
    5.9349   10.2654   25.7357 C   0  0  0  0  0  0  0  0  0  0  0  0
    7.0521   10.7105   25.0557 C   0  0  0  0  0  0  0  0  0  0  0  0
    7.8912    9.8389   24.3645 N   0  0  0  0  0  0  0  0  0  0  0  0
  1  2  2  0
  2  3  1  0
  3  4  1  0
  4  5  1  0
  5  6  2  0
  6  7  1  0
  7  8  1  0
  8  9  2  0
  8 10  1  0
 10 11  1  0
 11 12  1  0
 12 13  1  1
 13 14  1  0
 14 15  1  0
 12 16  1  0
 16 17  1  6
 17 18  1  0
 18 19  1  0
  7 20  2  0
 20 21  1  0
 21 22  2  0
 22 23  1  0
 23  2  1  0
 22  5  1  0
 16 10  1  0
 19 17  1  0
 15 13  1  0
M  END
>  <energy_score>  (4938) 
-14.839679

>  <inchikey>  (4938) 
CAKCTTJLQIWSFR-UHFFFAOYSA-N

>  <smiles>  (4938) 
O=C1COc2cc(C(=O)N3CC(C4CC4)C3C3CC3)ncc2N1

>  <ref_pdb>  (4938) 
A1068a

>  <alias>  (4938) 
CAKCTTJLQIWSFR-UHFFFAOYSA-N-P198-P37-P198-601513

>  <HIPPO Pose ID>  (4938) 
524013

>  <name>  (4938) 
CAKCTTJLQIWSFR-UHFFFAOYSA-N-P198-P37-P198-601513

>  <HIPPO Compound ID>  (4938) 
302471

>  <ref_mols>  (4938) 
A0310a,A3618a

>  <distance_score>  (4938) 
1.962734

>  <inspiration_score>  (4938) 
None

$$$$
SPLLZAJJOZMJDA-UHFFFAOYSA-N-P37-P37-P198-601513
     RDKit          3D

 23 26  0  0  0  0  0  0  0  0999 V2000
    1.6229   15.0295   25.6743 C   0  0  0  0  0  0  0  0  0  0  0  0
    1.6144   14.9725   27.1973 C   0  0  0  0  0  0  0  0  0  0  0  0
    2.9709   15.3664   27.8762 C   0  0  0  0  0  0  0  0  0  0  0  0
    4.0287   14.4714   27.4300 N   0  0  0  0  0  0  0  0  0  0  0  0
    4.0082   12.9599   27.1566 C   0  0  0  0  0  0  0  0  0  0  0  0
    3.1617   12.1741   27.3179 O   0  0  0  0  0  0  0  0  0  0  0  0
    5.3171   12.4147   26.6163 C   0  0  0  0  0  0  0  0  0  0  0  0
    6.1325   13.0194   25.6700 C   0  0  0  0  0  0  0  0  0  0  0  0
    7.1882   12.2722   25.1105 C   0  0  0  0  0  0  0  0  0  0  0  0
    7.3608   10.9464   25.4667 C   0  0  0  0  0  0  0  0  0  0  0  0
    6.5268   10.4547   26.4407 C   0  0  0  0  0  0  0  0  0  0  0  0
    5.5510   11.1560   27.0389 N   0  0  0  0  0  0  0  0  0  0  0  0
    8.2754   10.1239   24.8112 N   0  0  0  0  0  0  0  0  0  0  0  0
    9.1112   10.6168   23.8484 C   0  0  0  0  0  0  0  0  0  0  0  0
    9.8130    9.8776   23.1687 O   0  0  0  0  0  0  0  0  0  0  0  0
    9.1288   12.1453   23.7680 C   0  0  0  0  0  0  0  0  0  0  0  0
    7.9509   12.8715   24.1390 O   0  0  0  0  0  0  0  0  0  0  0  0
    2.7802   15.2636   29.3949 C   0  0  0  0  0  0  0  0  0  0  0  0
    3.9340   15.0223   30.3448 C   0  0  0  0  0  0  0  0  0  0  0  0
    2.8612   13.9798   30.1902 C   0  0  0  0  0  0  0  0  0  0  0  0
    3.3071   16.8239   27.5809 C   0  0  0  0  0  0  0  0  0  0  0  0
    4.6788   17.4032   27.8629 C   0  0  0  0  0  0  0  0  0  0  0  0
    4.1841   17.2937   26.4481 C   0  0  0  0  0  0  0  0  0  0  0  0
  1  2  1  0
  2  3  1  0
  3  4  1  0
  4  5  1  0
  5  6  2  0
  5  7  1  0
  7  8  2  0
  8  9  1  0
  9 10  2  0
 10 11  1  0
 11 12  2  0
 10 13  1  0
 13 14  1  0
 14 15  2  0
 14 16  1  0
 16 17  1  0
  3 18  1  0
 18 19  1  0
 19 20  1  0
  3 21  1  0
 21 22  1  0
 22 23  1  0
 12  7  1  0
 20 18  1  0
 23 21  1  0
 17  9  1  0
M  END
>  <energy_score>  (4939) 
-12.294202

>  <inchikey>  (4939) 
SPLLZAJJOZMJDA-UHFFFAOYSA-N

>  <smiles>  (4939) 
CCC(NC(=O)c1cc2c(cn1)NC(=O)CO2)(C1CC1)C1CC1

>  <ref_pdb>  (4939) 
A1068a

>  <alias>  (4939) 
SPLLZAJJOZMJDA-UHFFFAOYSA-N-P37-P37-P198-601513

>  <HIPPO Pose ID>  (4939) 
524014

>  <name>  (4939) 
SPLLZAJJOZMJDA-UHFFFAOYSA-N-P37-P37-P198-601513

>  <HIPPO Compound ID>  (4939) 
302472

>  <ref_mols>  (4939) 
A0310a,A3618a

>  <distance_score>  (4939) 
1.980842

>  <inspiration_score>  (4939) 
None

$$$$
JGTWXNYWKYGJEY-UHFFFAOYSA-N-P198-P37-P198-601513
     RDKit          3D

 23 25  0  0  0  0  0  0  0  0999 V2000
    0.9903   14.4106   23.5152 C   0  0  0  0  0  0  0  0  0  0  0  0
    0.2443   13.9745   24.7613 C   0  0  0  0  0  0  0  0  0  0  0  0
    1.1964   13.4354   25.6852 O   0  0  0  0  0  0  0  0  0  0  0  0
    0.6929   13.0985   26.9077 C   0  0  0  0  0  0  0  0  0  0  0  0
   -0.5019   13.1445   27.1854 O   0  0  0  0  0  0  0  0  0  0  0  0
    1.8046   12.7036   27.9065 C   0  0  2  0  0  0  0  0  0  0  0  0
    3.0433   12.3546   27.2493 N   0  0  0  0  0  0  0  0  0  0  0  0
    4.2291   13.2333   26.8232 C   0  0  0  0  0  0  0  0  0  0  0  0
    4.3652   14.3884   26.8640 O   0  0  0  0  0  0  0  0  0  0  0  0
    5.2827   12.3479   26.2093 C   0  0  0  0  0  0  0  0  0  0  0  0
    6.4288   12.8659   25.6430 C   0  0  0  0  0  0  0  0  0  0  0  0
    7.3272   11.9850   25.0466 C   0  0  0  0  0  0  0  0  0  0  0  0
    7.0687   10.6271   25.0296 C   0  0  0  0  0  0  0  0  0  0  0  0
    5.9135   10.2006   25.6542 C   0  0  0  0  0  0  0  0  0  0  0  0
    5.0154   11.0209   26.2414 N   0  0  0  0  0  0  0  0  0  0  0  0
    7.9332    9.7433   24.3873 N   0  0  0  0  0  0  0  0  0  0  0  0
    8.9805   10.1893   23.6292 C   0  0  0  0  0  0  0  0  0  0  0  0
    9.6698    9.4144   22.9750 O   0  0  0  0  0  0  0  0  0  0  0  0
    9.1546   11.7132   23.6046 C   0  0  0  0  0  0  0  0  0  0  0  0
    8.4763   12.5293   24.5501 O   0  0  0  0  0  0  0  0  0  0  0  0
    1.3957   11.5424   28.7741 C   0  0  0  0  0  0  0  0  0  0  0  0
    2.0896   11.2945   30.0918 C   0  0  0  0  0  0  0  0  0  0  0  0
    0.6614   11.7638   30.0732 C   0  0  0  0  0  0  0  0  0  0  0  0
  1  2  1  0
  2  3  1  0
  3  4  1  0
  4  5  2  0
  4  6  1  0
  6  7  1  6
  7  8  1  0
  8  9  2  0
  8 10  1  0
 10 11  2  0
 11 12  1  0
 12 13  2  0
 13 14  1  0
 14 15  2  0
 13 16  1  0
 16 17  1  0
 17 18  2  0
 17 19  1  0
 19 20  1  0
  6 21  1  0
 21 22  1  0
 22 23  1  0
 15 10  1  0
 23 21  1  0
 20 12  1  0
M  END
>  <energy_score>  (4940) 
-82.274269

>  <inchikey>  (4940) 
JGTWXNYWKYGJEY-UHFFFAOYSA-N

>  <smiles>  (4940) 
CCOC(=O)C(NC(=O)c1cc2c(cn1)NC(=O)CO2)C1CC1

>  <ref_pdb>  (4940) 
A1068a

>  <alias>  (4940) 
JGTWXNYWKYGJEY-UHFFFAOYSA-N-P198-P37-P198-601513

>  <HIPPO Pose ID>  (4940) 
524017

>  <name>  (4940) 
JGTWXNYWKYGJEY-UHFFFAOYSA-N-P198-P37-P198-601513

>  <HIPPO Compound ID>  (4940) 
302474

>  <ref_mols>  (4940) 
A0310a,A3618a

>  <distance_score>  (4940) 
1.917056

>  <inspiration_score>  (4940) 
None

$$$$
ZCCYXVHPLAUXSH-UHFFFAOYSA-N-P37-P37-P198-601513
     RDKit          3D

 23 25  0  0  0  0  0  0  0  0999 V2000
    1.4731   14.2024   25.3556 C   0  0  0  0  0  0  0  0  0  0  0  0
    1.6746   14.8274   26.7516 C   0  0  0  0  0  0  0  0  0  0  0  0
    2.5010   16.1264   26.5656 C   0  0  0  0  0  0  0  0  0  0  0  0
    0.2883   15.2155   27.3243 C   0  0  0  0  0  0  0  0  0  0  0  0
   -0.3710   16.1670   26.4895 O   0  0  0  0  0  0  0  0  0  0  0  0
    2.4558   13.8713   27.7337 C   0  0  2  0  0  0  0  0  0  0  0  0
    3.6885   13.3670   27.1241 N   0  0  0  0  0  0  0  0  0  0  0  0
    4.5310   12.1150   27.4527 C   0  0  0  0  0  0  0  0  0  0  0  0
    4.3342   11.2480   28.2085 O   0  0  0  0  0  0  0  0  0  0  0  0
    5.7258   12.0396   26.5368 C   0  0  0  0  0  0  0  0  0  0  0  0
    6.3383   10.8143   26.3162 C   0  0  0  0  0  0  0  0  0  0  0  0
    7.3740   10.7641   25.3913 C   0  0  0  0  0  0  0  0  0  0  0  0
    7.7944   11.9176   24.7469 C   0  0  0  0  0  0  0  0  0  0  0  0
    7.1328   13.1018   25.0424 C   0  0  0  0  0  0  0  0  0  0  0  0
    6.0967   13.1922   25.9146 N   0  0  0  0  0  0  0  0  0  0  0  0
    8.8538   11.8586   23.8402 N   0  0  0  0  0  0  0  0  0  0  0  0
    9.4359   10.6726   23.4890 C   0  0  0  0  0  0  0  0  0  0  0  0
   10.3792   10.6079   22.7151 O   0  0  0  0  0  0  0  0  0  0  0  0
    8.8056    9.4374   24.0571 C   0  0  0  0  0  0  0  0  0  0  0  0
    7.9504    9.5522   25.1793 O   0  0  0  0  0  0  0  0  0  0  0  0
    1.6052   12.7249   28.2275 C   0  0  0  0  0  0  0  0  0  0  0  0
    0.6822   12.8880   29.4192 C   0  0  0  0  0  0  0  0  0  0  0  0
    1.9050   12.0376   29.5419 C   0  0  0  0  0  0  0  0  0  0  0  0
  1  2  1  0
  2  3  1  0
  2  4  1  0
  4  5  1  0
  2  6  1  0
  6  7  1  6
  7  8  1  0
  8  9  2  0
  8 10  1  0
 10 11  2  0
 11 12  1  0
 12 13  2  0
 13 14  1  0
 14 15  2  0
 13 16  1  0
 16 17  1  0
 17 18  2  0
 17 19  1  0
 19 20  1  0
  6 21  1  0
 21 22  1  0
 22 23  1  0
 15 10  1  0
 23 21  1  0
 20 12  1  0
M  END
>  <energy_score>  (4941) 
-23.807504

>  <inchikey>  (4941) 
ZCCYXVHPLAUXSH-UHFFFAOYSA-N

>  <smiles>  (4941) 
CC(C)(CO)C(NC(=O)c1cc2c(cn1)NC(=O)CO2)C1CC1

>  <ref_pdb>  (4941) 
A1068a

>  <alias>  (4941) 
ZCCYXVHPLAUXSH-UHFFFAOYSA-N-P37-P37-P198-601513

>  <HIPPO Pose ID>  (4941) 
524018

>  <name>  (4941) 
ZCCYXVHPLAUXSH-UHFFFAOYSA-N-P37-P37-P198-601513

>  <HIPPO Compound ID>  (4941) 
302475

>  <ref_mols>  (4941) 
A0310a,A3618a

>  <distance_score>  (4941) 
1.869262

>  <inspiration_score>  (4941) 
None

$$$$
ZCCYXVHPLAUXSH-UHFFFAOYSA-N-P198-P37-P198-601513
     RDKit          3D

 23 25  0  0  0  0  0  0  0  0999 V2000
    1.6241   15.2879   24.7222 C   0  0  0  0  0  0  0  0  0  0  0  0
    1.2558   15.0173   26.2055 C   0  0  0  0  0  0  0  0  0  0  0  0
    0.2493   16.1244   26.6121 C   0  0  0  0  0  0  0  0  0  0  0  0
    0.5123   13.6670   26.2454 C   0  0  0  0  0  0  0  0  0  0  0  0
    0.3540   13.1411   27.5498 O   0  0  0  0  0  0  0  0  0  0  0  0
    2.5677   15.1490   27.0671 C   0  0  2  0  0  0  0  0  0  0  0  0
    3.6254   14.2341   26.6776 N   0  0  0  0  0  0  0  0  0  0  0  0
    3.6333   12.6972   26.5794 C   0  0  0  0  0  0  0  0  0  0  0  0
    2.8156   11.9168   26.8694 O   0  0  0  0  0  0  0  0  0  0  0  0
    4.9476   12.1373   26.0609 C   0  0  0  0  0  0  0  0  0  0  0  0
    5.8259   12.7777   25.2003 C   0  0  0  0  0  0  0  0  0  0  0  0
    6.9234   12.0599   24.7019 C   0  0  0  0  0  0  0  0  0  0  0  0
    7.0825   10.7244   25.0203 C   0  0  0  0  0  0  0  0  0  0  0  0
    6.1670   10.1829   25.8829 C   0  0  0  0  0  0  0  0  0  0  0  0
    5.1557   10.8636   26.4436 N   0  0  0  0  0  0  0  0  0  0  0  0
    8.0628    9.9429   24.4177 N   0  0  0  0  0  0  0  0  0  0  0  0
    8.9731   10.4907   23.5621 C   0  0  0  0  0  0  0  0  0  0  0  0
    9.7329    9.7885   22.9079 O   0  0  0  0  0  0  0  0  0  0  0  0
    8.9812   12.0243   23.5653 C   0  0  0  0  0  0  0  0  0  0  0  0
    7.7456   12.7005   23.8114 O   0  0  0  0  0  0  0  0  0  0  0  0
    2.3679   15.1540   28.5736 C   0  0  0  0  0  0  0  0  0  0  0  0
    3.5565   15.3573   29.4910 C   0  0  0  0  0  0  0  0  0  0  0  0
    2.8008   14.0613   29.5284 C   0  0  0  0  0  0  0  0  0  0  0  0
  1  2  1  0
  2  3  1  0
  2  4  1  0
  4  5  1  0
  2  6  1  0
  6  7  1  1
  7  8  1  0
  8  9  2  0
  8 10  1  0
 10 11  2  0
 11 12  1  0
 12 13  2  0
 13 14  1  0
 14 15  2  0
 13 16  1  0
 16 17  1  0
 17 18  2  0
 17 19  1  0
 19 20  1  0
  6 21  1  0
 21 22  1  0
 22 23  1  0
 15 10  1  0
 23 21  1  0
 20 12  1  0
M  END
>  <energy_score>  (4942) 
-7.764846

>  <inchikey>  (4942) 
ZCCYXVHPLAUXSH-UHFFFAOYSA-N

>  <smiles>  (4942) 
CC(C)(CO)C(NC(=O)c1cc2c(cn1)NC(=O)CO2)C1CC1

>  <ref_pdb>  (4942) 
A1068a

>  <alias>  (4942) 
ZCCYXVHPLAUXSH-UHFFFAOYSA-N-P198-P37-P198-601513

>  <HIPPO Pose ID>  (4942) 
524019

>  <name>  (4942) 
ZCCYXVHPLAUXSH-UHFFFAOYSA-N-P198-P37-P198-601513

>  <HIPPO Compound ID>  (4942) 
302475

>  <ref_mols>  (4942) 
A0310a,A3618a

>  <distance_score>  (4942) 
1.850399

>  <inspiration_score>  (4942) 
None

$$$$
MQTDRGQGAIPBRE-UHFFFAOYSA-N-P37-P37-P198-601513
     RDKit          3D

 23 25  0  0  0  0  0  0  0  0999 V2000
   13.1946   15.1892   21.7963 C   0  0  0  0  0  0  0  0  0  0  0  0
   12.5723   14.0097   21.8501 C   0  0  0  0  0  0  0  0  0  0  0  0
   11.6514   13.8039   22.9835 C   0  0  0  0  0  0  0  0  0  0  0  0
   11.5296   14.6079   23.8183 O   0  0  0  0  0  0  0  0  0  0  0  0
   10.9004   12.4779   22.7571 N   0  0  0  0  0  0  0  0  0  0  0  0
    9.8293   11.9345   23.4236 C   0  0  0  0  0  0  0  0  0  0  0  0
    8.9856   12.8650   24.0238 C   0  0  0  0  0  0  0  0  0  0  0  0
    7.9681   12.4385   24.8266 C   0  0  0  0  0  0  0  0  0  0  0  0
    7.8868   11.0763   25.0625 C   0  0  0  0  0  0  0  0  0  0  0  0
    6.8381   10.6670   26.0188 C   0  0  0  0  0  0  0  0  0  0  0  0
    6.0967    9.8269   25.7098 O   0  0  0  0  0  0  0  0  0  0  0  0
    6.8738   11.5547   27.2808 N   0  0  0  0  0  0  0  0  0  0  0  0
    5.9430   11.6565   28.3850 C   0  0  1  0  0  0  0  0  0  0  0  0
    6.1478   13.0192   29.0632 C   0  0  0  0  0  0  0  0  0  0  0  0
    6.1826   14.0454   28.0499 O   0  0  0  0  0  0  0  0  0  0  0  0
    4.9326   14.1999   27.3533 C   0  0  0  0  0  0  0  0  0  0  0  0
    4.2991   12.8954   26.9589 C   0  0  1  0  0  0  0  0  0  0  0  0
    4.6335   11.6025   27.6926 C   0  0  2  0  0  0  0  0  0  0  0  0
    3.3721   12.3125   27.9513 C   0  0  0  0  0  0  0  0  0  0  0  0
    2.2023   11.7042   27.5689 F   0  0  0  0  0  0  0  0  0  0  0  0
    3.1134   12.9808   29.1106 F   0  0  0  0  0  0  0  0  0  0  0  0
    8.6330   10.1272   24.4400 N   0  0  0  0  0  0  0  0  0  0  0  0
    9.5838   10.5811   23.5903 C   0  0  0  0  0  0  0  0  0  0  0  0
  1  2  2  0
  2  3  1  0
  3  4  2  0
  3  5  1  0
  5  6  1  0
  6  7  2  0
  7  8  1  0
  8  9  2  0
  9 10  1  0
 10 11  2  0
 10 12  1  0
 13 12  1  6
 13 14  1  0
 14 15  1  0
 15 16  1  0
 17 16  1  1
 17 18  1  0
 18 19  1  1
 19 20  1  0
 19 21  1  0
  9 22  1  0
 22 23  2  0
 23  6  1  0
 18 13  1  0
 19 17  1  0
M  END
>  <energy_score>  (4943) 
-25.259742

>  <inchikey>  (4943) 
MQTDRGQGAIPBRE-UHFFFAOYSA-N

>  <smiles>  (4943) 
C=CC(=O)Nc1ccc(C(=O)NC2COCC3C2C3(F)F)nc1

>  <ref_pdb>  (4943) 
A1068a

>  <alias>  (4943) 
MQTDRGQGAIPBRE-UHFFFAOYSA-N-P37-P37-P198-601513

>  <HIPPO Pose ID>  (4943) 
524024

>  <name>  (4943) 
MQTDRGQGAIPBRE-UHFFFAOYSA-N-P37-P37-P198-601513

>  <HIPPO Compound ID>  (4943) 
302478

>  <ref_mols>  (4943) 
A0310a,A3618a

>  <distance_score>  (4943) 
1.57881

>  <inspiration_score>  (4943) 
None

$$$$
YXKPYDAIJQJLKZ-UHFFFAOYSA-N-P198-P37-P198-601513
     RDKit          3D

 23 25  0  0  0  0  0  0  0  0999 V2000
   -1.6485   15.2446   24.4879 C   0  0  0  0  0  0  0  0  0  0  0  0
   -0.4185   15.4544   23.6252 C   0  0  0  0  0  0  0  0  0  0  0  0
    0.7135   15.7740   24.4470 O   0  0  0  0  0  0  0  0  0  0  0  0
    1.4174   14.7146   24.9442 C   0  0  0  0  0  0  0  0  0  0  0  0
    1.1058   13.5399   24.7637 O   0  0  0  0  0  0  0  0  0  0  0  0
    2.5969   15.1940   25.8195 C   0  0  1  0  0  0  0  0  0  0  0  0
    3.6802   14.2411   25.7695 N   0  0  0  0  0  0  0  0  0  0  0  0
    3.9862   13.0378   26.6603 C   0  0  0  0  0  0  0  0  0  0  0  0
    3.4596   12.6613   27.6263 O   0  0  0  0  0  0  0  0  0  0  0  0
    5.1231   12.2415   26.0877 C   0  0  0  0  0  0  0  0  0  0  0  0
    5.2084   10.9078   26.4275 C   0  0  0  0  0  0  0  0  0  0  0  0
    6.2026   10.1480   25.8367 C   0  0  0  0  0  0  0  0  0  0  0  0
    7.1052   10.7286   24.9738 C   0  0  0  0  0  0  0  0  0  0  0  0
    6.9608   12.0797   24.6963 C   0  0  0  0  0  0  0  0  0  0  0  0
    5.9769   12.8480   25.2208 N   0  0  0  0  0  0  0  0  0  0  0  0
    7.7624   12.7102   23.7740 O   0  0  0  0  0  0  0  0  0  0  0  0
    9.0036   12.0429   23.5480 C   0  0  0  0  0  0  0  0  0  0  0  0
    8.9975   10.5080   23.5229 C   0  0  0  0  0  0  0  0  0  0  0  0
    9.7616    9.8103   22.8705 O   0  0  0  0  0  0  0  0  0  0  0  0
    8.0738    9.9471   24.3548 N   0  0  0  0  0  0  0  0  0  0  0  0
    3.1441   16.5480   25.4682 C   0  0  0  0  0  0  0  0  0  0  0  0
    4.0822   17.2633   26.4127 C   0  0  0  0  0  0  0  0  0  0  0  0
    2.6842   17.7768   26.2176 C   0  0  0  0  0  0  0  0  0  0  0  0
  1  2  1  0
  2  3  1  0
  3  4  1  0
  4  5  2  0
  4  6  1  0
  6  7  1  6
  7  8  1  0
  8  9  2  0
  8 10  1  0
 10 11  2  0
 11 12  1  0
 12 13  2  0
 13 14  1  0
 14 15  2  0
 14 16  1  0
 16 17  1  0
 17 18  1  0
 18 19  2  0
 18 20  1  0
  6 21  1  0
 21 22  1  0
 22 23  1  0
 15 10  1  0
 23 21  1  0
 20 13  1  0
M  END
>  <energy_score>  (4944) 
-22.244329

>  <inchikey>  (4944) 
YXKPYDAIJQJLKZ-UHFFFAOYSA-N

>  <smiles>  (4944) 
CCOC(=O)C(NC(=O)c1ccc2c(n1)OCC(=O)N2)C1CC1

>  <ref_pdb>  (4944) 
A1068a

>  <alias>  (4944) 
YXKPYDAIJQJLKZ-UHFFFAOYSA-N-P198-P37-P198-601513

>  <HIPPO Pose ID>  (4944) 
524041

>  <name>  (4944) 
YXKPYDAIJQJLKZ-UHFFFAOYSA-N-P198-P37-P198-601513

>  <HIPPO Compound ID>  (4944) 
302486

>  <ref_mols>  (4944) 
A0310a,A3618a

>  <distance_score>  (4944) 
1.977299

>  <inspiration_score>  (4944) 
None

$$$$
SWNIDOCCSLHRSH-UHFFFAOYSA-N-P198-P37-P198-601513
     RDKit          3D

 23 25  0  0  0  0  0  0  0  0999 V2000
    0.3653   16.1679   26.5332 C   0  0  0  0  0  0  0  0  0  0  0  0
    1.2150   14.9674   26.0453 C   0  0  0  0  0  0  0  0  0  0  0  0
    0.9200   13.7794   26.9757 C   0  0  0  0  0  0  0  0  0  0  0  0
    0.7040   14.6410   24.6179 C   0  0  0  0  0  0  0  0  0  0  0  0
    1.2754   13.4604   24.0795 O   0  0  0  0  0  0  0  0  0  0  0  0
    2.7368   15.3833   25.9815 C   0  0  2  0  0  0  0  0  0  0  0  0
    3.6772   14.2975   25.7701 N   0  0  0  0  0  0  0  0  0  0  0  0
    4.0977   13.1446   26.6978 C   0  0  0  0  0  0  0  0  0  0  0  0
    3.7002   12.8379   27.7501 O   0  0  0  0  0  0  0  0  0  0  0  0
    5.1680   12.3085   26.0667 C   0  0  0  0  0  0  0  0  0  0  0  0
    5.2332   10.9772   26.4263 C   0  0  0  0  0  0  0  0  0  0  0  0
    6.2043   10.1873   25.8363 C   0  0  0  0  0  0  0  0  0  0  0  0
    7.1082   10.7417   24.9573 C   0  0  0  0  0  0  0  0  0  0  0  0
    6.9777   12.0906   24.6536 C   0  0  0  0  0  0  0  0  0  0  0  0
    6.0096   12.8852   25.1706 N   0  0  0  0  0  0  0  0  0  0  0  0
    7.7835   12.6904   23.7131 O   0  0  0  0  0  0  0  0  0  0  0  0
    9.0276   12.0142   23.5246 C   0  0  0  0  0  0  0  0  0  0  0  0
    9.0017   10.4793   23.5132 C   0  0  0  0  0  0  0  0  0  0  0  0
    9.7535    9.7643   22.8655 O   0  0  0  0  0  0  0  0  0  0  0  0
    8.0680    9.9400   24.3498 N   0  0  0  0  0  0  0  0  0  0  0  0
    3.2149   16.1396   27.2021 C   0  0  0  0  0  0  0  0  0  0  0  0
    3.2393   17.6505   27.2288 C   0  0  0  0  0  0  0  0  0  0  0  0
    4.5294   16.8871   27.1628 C   0  0  0  0  0  0  0  0  0  0  0  0
  1  2  1  0
  2  3  1  0
  2  4  1  0
  4  5  1  0
  2  6  1  0
  6  7  1  1
  7  8  1  0
  8  9  2  0
  8 10  1  0
 10 11  2  0
 11 12  1  0
 12 13  2  0
 13 14  1  0
 14 15  2  0
 14 16  1  0
 16 17  1  0
 17 18  1  0
 18 19  2  0
 18 20  1  0
  6 21  1  0
 21 22  1  0
 22 23  1  0
 15 10  1  0
 23 21  1  0
 20 13  1  0
M  END
>  <energy_score>  (4945) 
-25.963798

>  <inchikey>  (4945) 
SWNIDOCCSLHRSH-UHFFFAOYSA-N

>  <smiles>  (4945) 
CC(C)(CO)C(NC(=O)c1ccc2c(n1)OCC(=O)N2)C1CC1

>  <ref_pdb>  (4945) 
A1068a

>  <alias>  (4945) 
SWNIDOCCSLHRSH-UHFFFAOYSA-N-P198-P37-P198-601513

>  <HIPPO Pose ID>  (4945) 
524043

>  <name>  (4945) 
SWNIDOCCSLHRSH-UHFFFAOYSA-N-P198-P37-P198-601513

>  <HIPPO Compound ID>  (4945) 
302487

>  <ref_mols>  (4945) 
A0310a,A3618a

>  <distance_score>  (4945) 
1.94559

>  <inspiration_score>  (4945) 
None

$$$$
DGMLZWBGVLVFKP-UHFFFAOYSA-N-P37-P37-P198-601513
     RDKit          3D

 23 26  0  0  0  0  0  0  0  0999 V2000
    1.6337   14.6351   25.3498 C   0  0  0  0  0  0  0  0  0  0  0  0
    1.5157   13.9000   26.6842 C   0  0  0  0  0  0  0  0  0  0  0  0
    2.7830   13.9050   27.6031 C   0  0  0  0  0  0  0  0  0  0  0  0
    3.9163   13.2996   26.9073 N   0  0  0  0  0  0  0  0  0  0  0  0
    5.2418   12.7234   27.4583 C   0  0  0  0  0  0  0  0  0  0  0  0
    5.6016   12.5724   28.5585 O   0  0  0  0  0  0  0  0  0  0  0  0
    6.1908   12.4193   26.3443 C   0  0  0  0  0  0  0  0  0  0  0  0
    6.6903   13.4794   25.5964 C   0  0  0  0  0  0  0  0  0  0  0  0
    7.6796   13.2118   24.6542 C   0  0  0  0  0  0  0  0  0  0  0  0
    8.1206   11.9044   24.4962 C   0  0  0  0  0  0  0  0  0  0  0  0
    7.5380   10.9034   25.2715 C   0  0  0  0  0  0  0  0  0  0  0  0
    6.5808   11.1300   26.1947 N   0  0  0  0  0  0  0  0  0  0  0  0
    7.9496    9.6077   25.1962 O   0  0  0  0  0  0  0  0  0  0  0  0
    8.7421    9.2722   24.0753 C   0  0  0  0  0  0  0  0  0  0  0  0
    9.5130   10.3211   23.3363 C   0  0  0  0  0  0  0  0  0  0  0  0
   10.3644   10.0288   22.5111 O   0  0  0  0  0  0  0  0  0  0  0  0
    9.1367   11.6084   23.5871 N   0  0  0  0  0  0  0  0  0  0  0  0
    3.1847   15.3563   27.8792 C   0  0  0  0  0  0  0  0  0  0  0  0
    4.0389   15.8084   29.0444 C   0  0  0  0  0  0  0  0  0  0  0  0
    2.5744   16.1546   29.0073 C   0  0  0  0  0  0  0  0  0  0  0  0
    2.5469   13.0885   28.8804 C   0  0  0  0  0  0  0  0  0  0  0  0
    1.1885   12.6753   29.4106 C   0  0  0  0  0  0  0  0  0  0  0  0
    2.1179   11.6375   28.8494 C   0  0  0  0  0  0  0  0  0  0  0  0
  1  2  1  0
  2  3  1  0
  3  4  1  0
  4  5  1  0
  5  6  2  0
  5  7  1  0
  7  8  2  0
  8  9  1  0
  9 10  2  0
 10 11  1  0
 11 12  2  0
 11 13  1  0
 13 14  1  0
 14 15  1  0
 15 16  2  0
 15 17  1  0
  3 18  1  0
 18 19  1  0
 19 20  1  0
  3 21  1  0
 21 22  1  0
 22 23  1  0
 12  7  1  0
 20 18  1  0
 23 21  1  0
 17 10  1  0
M  END
>  <energy_score>  (4946) 
-17.992723

>  <inchikey>  (4946) 
DGMLZWBGVLVFKP-UHFFFAOYSA-N

>  <smiles>  (4946) 
CCC(NC(=O)c1ccc2c(n1)OCC(=O)N2)(C1CC1)C1CC1

>  <ref_pdb>  (4946) 
A1068a

>  <alias>  (4946) 
DGMLZWBGVLVFKP-UHFFFAOYSA-N-P37-P37-P198-601513

>  <HIPPO Pose ID>  (4946) 
524046

>  <name>  (4946) 
DGMLZWBGVLVFKP-UHFFFAOYSA-N-P37-P37-P198-601513

>  <HIPPO Compound ID>  (4946) 
302489

>  <ref_mols>  (4946) 
A0310a,A3618a

>  <distance_score>  (4946) 
1.737494

>  <inspiration_score>  (4946) 
None

$$$$
FAWFVBUYLJLGEK-UHFFFAOYSA-N-P37-P37-P198-601514
     RDKit          3D

 24 27  0  0  0  0  0  0  0  0999 V2000
   10.4007   10.1976   22.5623 O   0  0  0  0  0  0  0  0  0  0  0  0
    9.5241   10.3724   23.3939 C   0  0  0  0  0  0  0  0  0  0  0  0
    8.7784    9.2220   23.9928 C   0  0  0  0  0  0  0  0  0  0  0  0
    7.9114    9.4276   25.0933 O   0  0  0  0  0  0  0  0  0  0  0  0
    7.4775   10.7023   25.2923 C   0  0  0  0  0  0  0  0  0  0  0  0
    6.4079   10.8778   26.1638 C   0  0  0  0  0  0  0  0  0  0  0  0
    5.9404   12.1704   26.3517 C   0  0  0  0  0  0  0  0  0  0  0  0
    4.6808   12.4190   27.1460 C   0  0  0  0  0  0  0  0  0  0  0  0
    4.1634   11.5452   27.7181 O   0  0  0  0  0  0  0  0  0  0  0  0
    4.2418   13.8819   26.9500 N   0  0  0  0  0  0  0  0  0  0  0  0
    3.1180   14.6057   27.4970 C   0  0  1  0  0  0  0  0  0  0  0  0
    1.8380   13.9614   27.0230 C   0  0  0  0  0  0  0  0  0  0  0  0
    0.5937   14.7885   26.8128 C   0  0  0  0  0  0  0  0  0  0  0  0
    1.3323   14.2356   25.6269 C   0  0  0  0  0  0  0  0  0  0  0  0
    3.1554   14.8358   29.0216 C   0  0  2  0  0  0  0  0  0  0  0  0
    4.3241   15.7591   29.4226 C   0  0  0  0  0  0  0  0  0  0  0  0
    4.7022   15.6041   30.8959 C   0  0  0  0  0  0  0  0  0  0  0  0
    3.5128   15.1343   31.7176 C   0  0  0  0  0  0  0  0  0  0  0  0
    2.9982   13.8764   31.2823 O   0  0  0  0  0  0  0  0  0  0  0  0
    3.1892   13.5789   29.8915 C   0  0  0  0  0  0  0  0  0  0  0  0
    6.5046   13.2722   25.7785 N   0  0  0  0  0  0  0  0  0  0  0  0
    7.5510   13.0552   24.9493 C   0  0  0  0  0  0  0  0  0  0  0  0
    8.0597   11.7976   24.6675 C   0  0  0  0  0  0  0  0  0  0  0  0
    9.1151   11.6162   23.7756 N   0  0  0  0  0  0  0  0  0  0  0  0
  1  2  2  0
  2  3  1  0
  3  4  1  0
  4  5  1  0
  5  6  2  0
  6  7  1  0
  7  8  1  0
  8  9  2  0
  8 10  1  0
 11 10  1  1
 11 12  1  0
 12 13  1  0
 13 14  1  0
 11 15  1  0
 15 16  1  6
 16 17  1  0
 17 18  1  0
 18 19  1  0
 19 20  1  0
  7 21  2  0
 21 22  1  0
 22 23  2  0
 23 24  1  0
 24  2  1  0
 23  5  1  0
 14 12  1  0
 20 15  1  0
M  END
>  <energy_score>  (4947) 
-17.831514

>  <inchikey>  (4947) 
FAWFVBUYLJLGEK-UHFFFAOYSA-N

>  <smiles>  (4947) 
O=C1COc2cc(C(=O)NC(C3CC3)C3CCCOC3)ncc2N1

>  <ref_pdb>  (4947) 
A0310a

>  <alias>  (4947) 
FAWFVBUYLJLGEK-UHFFFAOYSA-N-P37-P37-P198-601514

>  <HIPPO Pose ID>  (4947) 
524384

>  <name>  (4947) 
FAWFVBUYLJLGEK-UHFFFAOYSA-N-P37-P37-P198-601514

>  <HIPPO Compound ID>  (4947) 
302665

>  <ref_mols>  (4947) 
A0310a,A3618a

>  <distance_score>  (4947) 
1.831689

>  <inspiration_score>  (4947) 
None

$$$$
NLAOJTILPJEWHD-UHFFFAOYSA-N-P198-P37-P198-601514
     RDKit          3D

 24 26  0  0  0  0  0  0  0  0999 V2000
   -2.6878   13.8642   24.4986 C   0  0  0  0  0  0  0  0  0  0  0  0
   -1.4139   14.4128   24.8410 O   0  0  0  0  0  0  0  0  0  0  0  0
   -0.4150   13.4937   24.9201 C   0  0  0  0  0  0  0  0  0  0  0  0
   -0.5467   12.2876   24.7459 O   0  0  0  0  0  0  0  0  0  0  0  0
    0.8849   14.1544   25.2911 C   0  0  0  0  0  0  0  0  0  0  0  0
    1.1235   14.0372   26.7925 C   0  0  0  0  0  0  0  0  0  0  0  0
    2.4839   14.6163   27.2034 C   0  0  2  0  0  0  0  0  0  0  0  0
    3.5803   13.8579   26.6553 N   0  0  0  0  0  0  0  0  0  0  0  0
    3.9149   12.3601   26.7681 C   0  0  0  0  0  0  0  0  0  0  0  0
    3.3176   11.4882   27.2568 O   0  0  0  0  0  0  0  0  0  0  0  0
    5.2318   12.0922   26.0793 C   0  0  0  0  0  0  0  0  0  0  0  0
    5.6842   10.7920   25.9160 C   0  0  0  0  0  0  0  0  0  0  0  0
    6.8416   10.6063   25.1694 C   0  0  0  0  0  0  0  0  0  0  0  0
    7.5135   11.6952   24.6284 C   0  0  0  0  0  0  0  0  0  0  0  0
    7.0139   12.9610   24.8855 C   0  0  0  0  0  0  0  0  0  0  0  0
    5.8934   13.1923   25.6064 N   0  0  0  0  0  0  0  0  0  0  0  0
    8.6395   11.5010   23.8298 N   0  0  0  0  0  0  0  0  0  0  0  0
    9.0305   10.2512   23.4458 C   0  0  0  0  0  0  0  0  0  0  0  0
    9.9248   10.0728   22.6327 O   0  0  0  0  0  0  0  0  0  0  0  0
    8.2298    9.1103   23.9901 C   0  0  0  0  0  0  0  0  0  0  0  0
    7.2663    9.3252   25.0064 O   0  0  0  0  0  0  0  0  0  0  0  0
    2.6286   14.6483   28.6992 C   0  0  0  0  0  0  0  0  0  0  0  0
    2.1463   15.8367   29.4935 C   0  0  0  0  0  0  0  0  0  0  0  0
    3.6209   15.5788   29.3525 C   0  0  0  0  0  0  0  0  0  0  0  0
  1  2  1  0
  2  3  1  0
  3  4  2  0
  3  5  1  0
  5  6  1  0
  7  6  1  1
  7  8  1  0
  8  9  1  0
  9 10  2  0
  9 11  1  0
 11 12  2  0
 12 13  1  0
 13 14  2  0
 14 15  1  0
 15 16  2  0
 14 17  1  0
 17 18  1  0
 18 19  2  0
 18 20  1  0
 20 21  1  0
  7 22  1  0
 22 23  1  0
 23 24  1  0
 16 11  1  0
 24 22  1  0
 21 13  1  0
M  END
>  <energy_score>  (4948) 
-17.902064

>  <inchikey>  (4948) 
NLAOJTILPJEWHD-UHFFFAOYSA-N

>  <smiles>  (4948) 
COC(=O)CCC(NC(=O)c1cc2c(cn1)NC(=O)CO2)C1CC1

>  <ref_pdb>  (4948) 
A0310a

>  <alias>  (4948) 
NLAOJTILPJEWHD-UHFFFAOYSA-N-P198-P37-P198-601514

>  <HIPPO Pose ID>  (4948) 
524395

>  <name>  (4948) 
NLAOJTILPJEWHD-UHFFFAOYSA-N-P198-P37-P198-601514

>  <HIPPO Compound ID>  (4948) 
302672

>  <ref_mols>  (4948) 
A0310a,A3618a

>  <distance_score>  (4948) 
1.573456

>  <inspiration_score>  (4948) 
None

$$$$
JZQAZXMCOBUPNU-UHFFFAOYSA-N-P37-P37-P198-601514
     RDKit          3D

 24 27  0  0  0  0  0  0  0  0999 V2000
   10.3862   10.7722   22.7612 O   0  0  0  0  0  0  0  0  0  0  0  0
    9.4291   10.7491   23.5201 C   0  0  0  0  0  0  0  0  0  0  0  0
    8.8628    9.4546   24.0219 C   0  0  0  0  0  0  0  0  0  0  0  0
    8.0286    9.4783   25.1645 O   0  0  0  0  0  0  0  0  0  0  0  0
    7.3850   10.6457   25.4291 C   0  0  0  0  0  0  0  0  0  0  0  0
    6.3650   10.5974   26.3677 C   0  0  0  0  0  0  0  0  0  0  0  0
    5.7085   11.7755   26.6843 C   0  0  0  0  0  0  0  0  0  0  0  0
    4.5610   11.7205   27.6603 C   0  0  0  0  0  0  0  0  0  0  0  0
    4.3598   10.7318   28.2416 O   0  0  0  0  0  0  0  0  0  0  0  0
    3.8002   13.0536   27.6712 N   0  0  0  0  0  0  0  0  0  0  0  0
    2.6779   13.4899   28.4757 C   0  0  1  0  0  0  0  0  0  0  0  0
    3.1379   14.1932   29.7420 C   0  0  0  0  0  0  0  0  0  0  0  0
    4.4842   14.8700   29.8848 C   0  0  0  0  0  0  0  0  0  0  0  0
    4.2026   13.5981   30.6354 C   0  0  0  0  0  0  0  0  0  0  0  0
    1.6529   14.3495   27.6723 C   0  0  2  0  0  0  0  0  0  0  0  0
    0.9544   13.5213   26.5903 C   0  0  0  0  0  0  0  0  0  0  0  0
    0.2933   12.3888   27.1527 O   0  0  0  0  0  0  0  0  0  0  0  0
    2.2876   15.6437   27.1803 C   0  0  0  0  0  0  0  0  0  0  0  0
    1.5825   16.5694   26.2235 C   0  0  0  0  0  0  0  0  0  0  0  0
    2.8175   15.8291   25.7806 C   0  0  0  0  0  0  0  0  0  0  0  0
    6.0177   12.9826   26.1341 N   0  0  0  0  0  0  0  0  0  0  0  0
    7.0264   12.9850   25.2210 C   0  0  0  0  0  0  0  0  0  0  0  0
    7.7339   11.8500   24.8410 C   0  0  0  0  0  0  0  0  0  0  0  0
    8.7813   11.8863   23.9193 N   0  0  0  0  0  0  0  0  0  0  0  0
  1  2  2  0
  2  3  1  0
  3  4  1  0
  4  5  1  0
  5  6  2  0
  6  7  1  0
  7  8  1  0
  8  9  2  0
  8 10  1  0
 11 10  1  6
 11 12  1  0
 12 13  1  0
 13 14  1  0
 11 15  1  0
 15 16  1  6
 16 17  1  0
 15 18  1  0
 18 19  1  0
 19 20  1  0
  7 21  2  0
 21 22  1  0
 22 23  2  0
 23 24  1  0
 24  2  1  0
 23  5  1  0
 14 12  1  0
 20 18  1  0
M  END
>  <energy_score>  (4949) 
-36.602912

>  <inchikey>  (4949) 
JZQAZXMCOBUPNU-UHFFFAOYSA-N

>  <smiles>  (4949) 
O=C1COc2cc(C(=O)NC(C3CC3)C(CO)C3CC3)ncc2N1

>  <ref_pdb>  (4949) 
A0310a

>  <alias>  (4949) 
JZQAZXMCOBUPNU-UHFFFAOYSA-N-P37-P37-P198-601514

>  <HIPPO Pose ID>  (4949) 
524406

>  <name>  (4949) 
JZQAZXMCOBUPNU-UHFFFAOYSA-N-P37-P37-P198-601514

>  <HIPPO Compound ID>  (4949) 
302678

>  <ref_mols>  (4949) 
A0310a,A3618a

>  <distance_score>  (4949) 
1.57502

>  <inspiration_score>  (4949) 
None

$$$$
OILAYTCVSGPZKX-UHFFFAOYSA-N-P37-P37-P198-601514
     RDKit          3D

 24 27  0  0  0  0  0  0  0  0999 V2000
   10.3725   10.1759   22.6398 O   0  0  0  0  0  0  0  0  0  0  0  0
    9.4800   10.4168   23.4380 C   0  0  0  0  0  0  0  0  0  0  0  0
    8.7117    9.3250   24.1189 C   0  0  0  0  0  0  0  0  0  0  0  0
    7.8809    9.6118   25.2278 O   0  0  0  0  0  0  0  0  0  0  0  0
    7.4267   10.8956   25.3165 C   0  0  0  0  0  0  0  0  0  0  0  0
    6.4048   11.0777   26.1797 N   0  0  0  0  0  0  0  0  0  0  0  0
    5.8862   12.3334   26.3183 C   0  0  0  0  0  0  0  0  0  0  0  0
    4.6790   12.4186   27.2721 C   0  0  0  0  0  0  0  0  0  0  0  0
    4.2193   11.3953   27.5988 O   0  0  0  0  0  0  0  0  0  0  0  0
    4.2707   13.8660   27.6438 N   0  0  0  0  0  0  0  0  0  0  0  0
    3.1458   14.3600   28.4242 C   0  0  2  0  0  0  0  0  0  0  0  0
    3.1135   13.6298   29.7471 C   0  0  0  0  0  0  0  0  0  0  0  0
    2.9494   14.3826   31.0475 C   0  0  0  0  0  0  0  0  0  0  0  0
    4.2691   13.7502   30.7150 C   0  0  0  0  0  0  0  0  0  0  0  0
    1.7752   14.3852   27.6690 C   0  0  1  0  0  0  0  0  0  0  0  0
    1.4391   13.1413   26.8386 C   0  0  0  0  0  0  0  0  0  0  0  0
    1.4668   11.8901   27.5143 O   0  0  0  0  0  0  0  0  0  0  0  0
    0.6717   14.8938   28.5871 C   0  0  0  0  0  0  0  0  0  0  0  0
   -0.7777   14.9550   28.1695 C   0  0  0  0  0  0  0  0  0  0  0  0
   -0.3432   13.9874   29.2372 C   0  0  0  0  0  0  0  0  0  0  0  0
    6.4032   13.4120   25.6058 C   0  0  0  0  0  0  0  0  0  0  0  0
    7.4892   13.2048   24.7465 C   0  0  0  0  0  0  0  0  0  0  0  0
    8.0037   11.9269   24.5912 C   0  0  0  0  0  0  0  0  0  0  0  0
    9.0617   11.6866   23.7144 N   0  0  0  0  0  0  0  0  0  0  0  0
  1  2  2  0
  2  3  1  0
  3  4  1  0
  4  5  1  0
  5  6  2  0
  6  7  1  0
  7  8  1  0
  8  9  2  0
  8 10  1  0
 11 10  1  6
 11 12  1  0
 12 13  1  0
 13 14  1  0
 11 15  1  0
 15 16  1  1
 16 17  1  0
 15 18  1  0
 18 19  1  0
 19 20  1  0
  7 21  2  0
 21 22  1  0
 22 23  2  0
 23 24  1  0
 24  2  1  0
 23  5  1  0
 14 12  1  0
 20 18  1  0
M  END
>  <energy_score>  (4950) 
-22.890694

>  <inchikey>  (4950) 
OILAYTCVSGPZKX-UHFFFAOYSA-N

>  <smiles>  (4950) 
O=C1COc2nc(C(=O)NC(C3CC3)C(CO)C3CC3)ccc2N1

>  <ref_pdb>  (4950) 
A0310a

>  <alias>  (4950) 
OILAYTCVSGPZKX-UHFFFAOYSA-N-P37-P37-P198-601514

>  <HIPPO Pose ID>  (4950) 
524416

>  <name>  (4950) 
OILAYTCVSGPZKX-UHFFFAOYSA-N-P37-P37-P198-601514

>  <HIPPO Compound ID>  (4950) 
302685

>  <ref_mols>  (4950) 
A0310a,A3618a

>  <distance_score>  (4950) 
1.867991

>  <inspiration_score>  (4950) 
None

$$$$
GMINESFOVTZJJV-UHFFFAOYSA-N-P37-P37-P198-601514
     RDKit          3D

 25 27  0  0  0  0  0  0  0  0999 V2000
   12.5409   14.4285   21.2615 C   0  0  0  0  0  0  0  0  0  0  0  0
   12.8803   14.3230   22.5469 C   0  0  0  0  0  0  0  0  0  0  0  0
   11.8679   14.0121   23.5651 C   0  0  0  0  0  0  0  0  0  0  0  0
   11.6929   14.7498   24.4535 O   0  0  0  0  0  0  0  0  0  0  0  0
   11.1168   12.7128   23.1749 N   0  0  0  0  0  0  0  0  0  0  0  0
    9.9869   12.1324   23.7189 C   0  0  0  0  0  0  0  0  0  0  0  0
    9.1431   13.0035   24.3882 C   0  0  0  0  0  0  0  0  0  0  0  0
    8.0658   12.5171   25.0790 C   0  0  0  0  0  0  0  0  0  0  0  0
    7.8967   11.1403   25.1573 C   0  0  0  0  0  0  0  0  0  0  0  0
    6.6833   10.6679   25.9007 C   0  0  0  0  0  0  0  0  0  0  0  0
    6.0687    9.7828   25.4659 O   0  0  0  0  0  0  0  0  0  0  0  0
    6.4132   11.5656   27.1255 N   0  0  0  0  0  0  0  0  0  0  0  0
    5.2958   11.6199   28.0008 C   0  0  0  0  0  0  0  0  0  0  0  0
    4.3678   12.8573   27.5742 C   0  0  0  0  0  0  0  0  0  0  0  0
    3.0068   12.9734   28.1917 C   0  0  0  0  0  0  0  0  0  0  0  0
    2.8368   13.2925   29.3584 O   0  0  0  0  0  0  0  0  0  0  0  0
    2.0349   12.7716   27.2591 O   0  0  0  0  0  0  0  0  0  0  0  0
    0.8878   13.6132   27.4119 C   0  0  0  0  0  0  0  0  0  0  0  0
   -0.1651   12.9153   28.2227 C   0  0  0  0  0  0  0  0  0  0  0  0
    4.4803   13.4144   26.1372 C   0  0  0  0  0  0  0  0  0  0  0  0
    5.0623   14.1966   27.2666 C   0  0  0  0  0  0  0  0  0  0  0  0
    4.7264   10.3330   28.5523 C   0  0  0  0  0  0  0  0  0  0  0  0
    5.5027   11.2480   29.4521 C   0  0  0  0  0  0  0  0  0  0  0  0
    8.6427   10.2603   24.4406 N   0  0  0  0  0  0  0  0  0  0  0  0
    9.6627   10.7813   23.7014 C   0  0  0  0  0  0  0  0  0  0  0  0
  1  2  2  0
  2  3  1  0
  3  4  2  0
  3  5  1  0
  5  6  1  0
  6  7  2  0
  7  8  1  0
  8  9  2  0
  9 10  1  0
 10 11  2  0
 10 12  1  0
 12 13  1  0
 13 14  1  0
 14 15  1  0
 15 16  2  0
 15 17  1  0
 17 18  1  0
 18 19  1  0
 14 20  1  0
 20 21  1  0
 13 22  1  0
 22 23  1  0
  9 24  1  0
 24 25  2  0
 25  6  1  0
 23 13  1  0
 21 14  1  0
M  END
>  <energy_score>  (4951) 
-20.848199

>  <inchikey>  (4951) 
GMINESFOVTZJJV-UHFFFAOYSA-N

>  <smiles>  (4951) 
C=CC(=O)Nc1ccc(C(=O)NC2(C3(C(=O)OCC)CC3)CC2)nc1

>  <ref_pdb>  (4951) 
A0310a

>  <alias>  (4951) 
GMINESFOVTZJJV-UHFFFAOYSA-N-P37-P37-P198-601514

>  <HIPPO Pose ID>  (4951) 
524520

>  <name>  (4951) 
GMINESFOVTZJJV-UHFFFAOYSA-N-P37-P37-P198-601514

>  <HIPPO Compound ID>  (4951) 
302750

>  <ref_mols>  (4951) 
A0310a,A3618a

>  <distance_score>  (4951) 
1.853629

>  <inspiration_score>  (4951) 
None

$$$$
GMINESFOVTZJJV-UHFFFAOYSA-N-P198-P37-P198-601514
     RDKit          3D

 25 27  0  0  0  0  0  0  0  0999 V2000
   12.2392   15.6243   21.6655 C   0  0  0  0  0  0  0  0  0  0  0  0
   11.6474   14.4271   21.7280 C   0  0  0  0  0  0  0  0  0  0  0  0
   10.5280   14.2472   22.6804 C   0  0  0  0  0  0  0  0  0  0  0  0
   10.0307   15.1593   23.2144 O   0  0  0  0  0  0  0  0  0  0  0  0
   10.2302   12.7285   22.7975 N   0  0  0  0  0  0  0  0  0  0  0  0
    9.2363   12.0565   23.4960 C   0  0  0  0  0  0  0  0  0  0  0  0
    8.3077   12.8348   24.1661 C   0  0  0  0  0  0  0  0  0  0  0  0
    7.3056   12.2349   24.8895 C   0  0  0  0  0  0  0  0  0  0  0  0
    7.2824   10.8474   24.9922 C   0  0  0  0  0  0  0  0  0  0  0  0
    6.0953   10.2465   25.6946 C   0  0  0  0  0  0  0  0  0  0  0  0
    5.5431    9.3376   25.2171 O   0  0  0  0  0  0  0  0  0  0  0  0
    5.7572   11.0750   26.9605 N   0  0  0  0  0  0  0  0  0  0  0  0
    4.6308   11.0150   27.8327 C   0  0  0  0  0  0  0  0  0  0  0  0
    3.6225   12.2100   27.4745 C   0  0  0  0  0  0  0  0  0  0  0  0
    2.2329   12.1510   28.0401 C   0  0  0  0  0  0  0  0  0  0  0  0
    1.4258   11.2852   27.7362 O   0  0  0  0  0  0  0  0  0  0  0  0
    1.9707   13.2214   28.8400 O   0  0  0  0  0  0  0  0  0  0  0  0
    0.5781   13.5377   28.9368 C   0  0  0  0  0  0  0  0  0  0  0  0
    0.1055   14.1540   27.6241 C   0  0  0  0  0  0  0  0  0  0  0  0
    3.6611   12.8207   26.0609 C   0  0  0  0  0  0  0  0  0  0  0  0
    4.2386   13.6007   27.1932 C   0  0  0  0  0  0  0  0  0  0  0  0
    4.1717    9.6891   28.3838 C   0  0  0  0  0  0  0  0  0  0  0  0
    4.8742   10.6536   29.2874 C   0  0  0  0  0  0  0  0  0  0  0  0
    8.1530   10.0521   24.3296 N   0  0  0  0  0  0  0  0  0  0  0  0
    9.1071   10.6712   23.5797 C   0  0  0  0  0  0  0  0  0  0  0  0
  1  2  2  0
  2  3  1  0
  3  4  2  0
  3  5  1  0
  5  6  1  0
  6  7  2  0
  7  8  1  0
  8  9  2  0
  9 10  1  0
 10 11  2  0
 10 12  1  0
 12 13  1  0
 13 14  1  0
 14 15  1  0
 15 16  2  0
 15 17  1  0
 17 18  1  0
 18 19  1  0
 14 20  1  0
 20 21  1  0
 13 22  1  0
 22 23  1  0
  9 24  1  0
 24 25  2  0
 25  6  1  0
 23 13  1  0
 21 14  1  0
M  END
>  <energy_score>  (4952) 
-27.749994

>  <inchikey>  (4952) 
GMINESFOVTZJJV-UHFFFAOYSA-N

>  <smiles>  (4952) 
C=CC(=O)Nc1ccc(C(=O)NC2(C3(C(=O)OCC)CC3)CC2)nc1

>  <ref_pdb>  (4952) 
A0310a

>  <alias>  (4952) 
GMINESFOVTZJJV-UHFFFAOYSA-N-P198-P37-P198-601514

>  <HIPPO Pose ID>  (4952) 
524521

>  <name>  (4952) 
GMINESFOVTZJJV-UHFFFAOYSA-N-P198-P37-P198-601514

>  <HIPPO Compound ID>  (4952) 
302750

>  <ref_mols>  (4952) 
A0310a,A3618a

>  <distance_score>  (4952) 
1.706569

>  <inspiration_score>  (4952) 
None

$$$$
NJEWFJRJIPGVJF-UHFFFAOYSA-N-P198-P37-P198-601514
     RDKit          3D

 26 28  0  0  0  0  0  0  0  0999 V2000
    0.6702   13.1091   26.2677 O   0  0  0  0  0  0  0  0  0  0  0  0
    1.5471   12.8962   27.0859 C   0  0  0  0  0  0  0  0  0  0  0  0
    1.3588   12.6249   28.3950 N   0  0  0  0  0  0  0  0  0  0  0  0
    2.5416   12.3325   28.9981 C   0  0  0  0  0  0  0  0  0  0  0  0
    2.6602   12.0484   30.1808 O   0  0  0  0  0  0  0  0  0  0  0  0
    3.6597   12.4678   27.9692 C   0  0  1  0  0  0  0  0  0  0  0  0
    4.4952   11.2433   27.6602 C   0  0  0  0  0  0  0  0  0  0  0  0
    5.4804   11.4624   26.6587 N   0  0  0  0  0  0  0  0  0  0  0  0
    6.0324   10.5141   25.5681 C   0  0  0  0  0  0  0  0  0  0  0  0
    5.7105    9.4335   25.2736 O   0  0  0  0  0  0  0  0  0  0  0  0
    7.0761   11.1951   24.7584 C   0  0  0  0  0  0  0  0  0  0  0  0
    6.9263   12.5333   24.4194 C   0  0  0  0  0  0  0  0  0  0  0  0
    7.9388   13.1360   23.7063 C   0  0  0  0  0  0  0  0  0  0  0  0
    9.0402   12.3849   23.3275 C   0  0  0  0  0  0  0  0  0  0  0  0
   10.1089   13.0108   22.7229 N   0  0  0  0  0  0  0  0  0  0  0  0
   10.3509   14.5303   22.3988 C   0  0  0  0  0  0  0  0  0  0  0  0
    9.6428   15.4570   22.5293 O   0  0  0  0  0  0  0  0  0  0  0  0
   11.8103   14.5900   21.9477 C   0  0  0  0  0  0  0  0  0  0  0  0
   12.4165   15.7638   22.2308 F   0  0  0  0  0  0  0  0  0  0  0  0
   12.5058   13.6316   22.6328 F   0  0  0  0  0  0  0  0  0  0  0  0
   11.9702   14.3234   20.6325 F   0  0  0  0  0  0  0  0  0  0  0  0
    9.0668   11.0277   23.6249 C   0  0  0  0  0  0  0  0  0  0  0  0
    8.1185   10.4278   24.3642 N   0  0  0  0  0  0  0  0  0  0  0  0
    4.8956   10.3238   28.7807 C   0  0  0  0  0  0  0  0  0  0  0  0
    3.8667    9.8744   27.7841 C   0  0  0  0  0  0  0  0  0  0  0  0
    2.8909   12.8669   26.8142 N   0  0  0  0  0  0  0  0  0  0  0  0
  1  2  2  0
  2  3  1  0
  3  4  1  0
  4  5  2  0
  4  6  1  0
  6  7  1  6
  7  8  1  0
  8  9  1  0
  9 10  2  0
  9 11  1  0
 11 12  2  0
 12 13  1  0
 13 14  2  0
 14 15  1  0
 15 16  1  0
 16 17  2  0
 16 18  1  0
 18 19  1  0
 18 20  1  0
 18 21  1  0
 14 22  1  0
 22 23  2  0
  7 24  1  0
 24 25  1  0
  6 26  1  0
 26  2  1  0
 25  7  1  0
 23 11  1  0
M  END
>  <energy_score>  (4953) 
-15.055591

>  <inchikey>  (4953) 
NJEWFJRJIPGVJF-UHFFFAOYSA-N

>  <smiles>  (4953) 
O=C1NC(=O)C(C2(NC(=O)c3ccc(NC(=O)C(F)(F)F)cn3)CC2)N1

>  <ref_pdb>  (4953) 
A0310a

>  <alias>  (4953) 
NJEWFJRJIPGVJF-UHFFFAOYSA-N-P198-P37-P198-601514

>  <HIPPO Pose ID>  (4953) 
524811

>  <name>  (4953) 
NJEWFJRJIPGVJF-UHFFFAOYSA-N-P198-P37-P198-601514

>  <HIPPO Compound ID>  (4953) 
302905

>  <ref_mols>  (4953) 
A0310a,A3618a

>  <distance_score>  (4953) 
1.748837

>  <inspiration_score>  (4953) 
None

$$$$
DXBGHVASUGUZDJ-UHFFFAOYSA-N-P141-P77-P141-601514
     RDKit          3D

 23 25  0  0  0  0  0  0  0  0999 V2000
   11.1413   15.3480   18.7401 C   0  0  0  0  0  0  0  0  0  0  0  0
   11.0369   15.2698   20.1586 O   0  0  0  0  0  0  0  0  0  0  0  0
   11.8853   14.3710   20.7305 C   0  0  0  0  0  0  0  0  0  0  0  0
   12.6995   13.6916   20.1260 O   0  0  0  0  0  0  0  0  0  0  0  0
   11.6393   14.3072   22.2080 C   0  0  2  0  0  0  0  0  0  0  0  0
   10.4822   13.6151   22.6036 N   0  0  0  0  0  0  0  0  0  0  0  0
    9.0999   14.1356   23.0053 C   0  0  0  0  0  0  0  0  0  0  0  0
    8.6707   15.2154   23.0001 O   0  0  0  0  0  0  0  0  0  0  0  0
    8.3434   13.0073   23.5415 C   0  0  0  0  0  0  0  0  0  0  0  0
    8.5517   11.6527   23.4322 C   0  0  0  0  0  0  0  0  0  0  0  0
    7.8370   10.8860   24.3926 C   0  0  0  0  0  0  0  0  0  0  0  0
    7.9433    9.5459   24.5562 O   0  0  0  0  0  0  0  0  0  0  0  0
    8.9341    8.9264   23.7260 C   0  0  0  0  0  0  0  0  0  0  0  0
    7.0038   11.6758   25.1600 C   0  0  0  0  0  0  0  0  0  0  0  0
    5.8643   11.4500   26.4813 S   0  0  0  0  0  0  0  0  0  0  0  0
    6.4249   12.3825   27.7711 N   0  0  0  0  0  0  0  0  0  0  0  0
    4.6168   12.1056   26.1720 O   0  0  0  0  0  0  0  0  0  0  0  0
    5.9314   10.0837   26.9250 O   0  0  0  0  0  0  0  0  0  0  0  0
    7.1749   13.3267   24.7251 S   0  0  0  0  0  0  0  0  0  0  0  0
   12.2850   15.5663   22.8556 C   0  0  0  0  0  0  0  0  0  0  0  0
   12.5174   14.2791   23.4356 C   0  0  0  0  0  0  0  0  0  0  0  0
   13.1934   13.4730   24.4529 C   0  0  0  0  0  0  0  0  0  0  0  0
   11.9045   14.0627   24.8575 C   0  0  0  0  0  0  0  0  0  0  0  0
  1  2  1  0
  2  3  1  0
  3  4  2  0
  3  5  1  0
  5  6  1  6
  6  7  1  0
  7  8  2  0
  7  9  1  0
  9 10  2  0
 10 11  1  0
 11 12  1  0
 12 13  1  0
 11 14  2  0
 14 15  1  0
 15 16  1  0
 15 17  2  0
 15 18  2  0
 14 19  1  0
  5 20  1  0
 20 21  1  0
 21 22  1  0
 22 23  1  0
 21  5  1  0
 19  9  1  0
 23 21  1  0
M  END
>  <energy_score>  (4954) 
-6.903086

>  <inchikey>  (4954) 
DXBGHVASUGUZDJ-UHFFFAOYSA-N

>  <smiles>  (4954) 
COC(=O)C1(NC(=O)c2cc(OC)c(S(N)(=O)=O)s2)CC12CC2

>  <ref_pdb>  (4954) 
A0310a

>  <alias>  (4954) 
DXBGHVASUGUZDJ-UHFFFAOYSA-N-P141-P77-P141-601514

>  <HIPPO Pose ID>  (4954) 
525099

>  <name>  (4954) 
DXBGHVASUGUZDJ-UHFFFAOYSA-N-P141-P77-P141-601514

>  <HIPPO Compound ID>  (4954) 
306919

>  <ref_mols>  (4954) 
A0719a,A3176a

>  <distance_score>  (4954) 
1.956319

>  <inspiration_score>  (4954) 
None

$$$$
CONJOSKQYFQQRH-UHFFFAOYSA-N-P141-P77-P141-601514
     RDKit          3D

 24 26  0  0  0  0  0  0  0  0999 V2000
   10.3021   16.7149   18.4616 C   0  0  0  0  0  0  0  0  0  0  0  0
   11.0962   15.4708   18.8130 C   0  0  0  0  0  0  0  0  0  0  0  0
   10.9263   15.2265   20.2098 O   0  0  0  0  0  0  0  0  0  0  0  0
   11.8315   14.3745   20.7619 C   0  0  0  0  0  0  0  0  0  0  0  0
   12.6935   13.7634   20.1508 O   0  0  0  0  0  0  0  0  0  0  0  0
   11.6120   14.3056   22.2423 C   0  0  2  0  0  0  0  0  0  0  0  0
   10.4374   13.6516   22.6484 N   0  0  0  0  0  0  0  0  0  0  0  0
    9.0188   14.1892   22.8525 C   0  0  0  0  0  0  0  0  0  0  0  0
    8.5751   15.2425   22.6440 O   0  0  0  0  0  0  0  0  0  0  0  0
    8.2651   13.1191   23.4934 C   0  0  0  0  0  0  0  0  0  0  0  0
    8.4549   11.7575   23.4453 C   0  0  0  0  0  0  0  0  0  0  0  0
    7.7602   11.0526   24.4606 C   0  0  0  0  0  0  0  0  0  0  0  0
    7.8316    9.7157   24.6768 O   0  0  0  0  0  0  0  0  0  0  0  0
    8.7813    9.0369   23.8403 C   0  0  0  0  0  0  0  0  0  0  0  0
    6.9869   11.9027   25.2278 C   0  0  0  0  0  0  0  0  0  0  0  0
    5.9280   11.7504   26.6228 S   0  0  0  0  0  0  0  0  0  0  0  0
    5.8263   10.1395   27.0119 N   0  0  0  0  0  0  0  0  0  0  0  0
    4.5913   12.1470   26.2570 O   0  0  0  0  0  0  0  0  0  0  0  0
    6.6105   12.3954   27.7227 O   0  0  0  0  0  0  0  0  0  0  0  0
    7.1467   13.5234   24.6963 S   0  0  0  0  0  0  0  0  0  0  0  0
   12.2961   15.5537   22.8778 C   0  0  0  0  0  0  0  0  0  0  0  0
   12.5031   14.2622   23.4573 C   0  0  0  0  0  0  0  0  0  0  0  0
   13.1796   13.4478   24.4670 C   0  0  0  0  0  0  0  0  0  0  0  0
   11.9009   14.0555   24.8825 C   0  0  0  0  0  0  0  0  0  0  0  0
  1  2  1  0
  2  3  1  0
  3  4  1  0
  4  5  2  0
  4  6  1  0
  6  7  1  6
  7  8  1  0
  8  9  2  0
  8 10  1  0
 10 11  2  0
 11 12  1  0
 12 13  1  0
 13 14  1  0
 12 15  2  0
 15 16  1  0
 16 17  1  0
 16 18  2  0
 16 19  2  0
 15 20  1  0
  6 21  1  0
 21 22  1  0
 22 23  1  0
 23 24  1  0
 22  6  1  0
 20 10  1  0
 24 22  1  0
M  END
>  <energy_score>  (4955) 
-21.183179

>  <inchikey>  (4955) 
CONJOSKQYFQQRH-UHFFFAOYSA-N

>  <smiles>  (4955) 
CCOC(=O)C1(NC(=O)c2cc(OC)c(S(N)(=O)=O)s2)CC12CC2

>  <ref_pdb>  (4955) 
A0310a

>  <alias>  (4955) 
CONJOSKQYFQQRH-UHFFFAOYSA-N-P141-P77-P141-601514

>  <HIPPO Pose ID>  (4955) 
525109

>  <name>  (4955) 
CONJOSKQYFQQRH-UHFFFAOYSA-N-P141-P77-P141-601514

>  <HIPPO Compound ID>  (4955) 
306924

>  <ref_mols>  (4955) 
A0719a,A3176a

>  <distance_score>  (4955) 
1.946757

>  <inspiration_score>  (4955) 
None

$$$$
YQWZRJDFHUWINL-UHFFFAOYSA-N-P248-P124-P248-601515
     RDKit          3D

 17 18  0  0  0  0  0  0  0  0999 V2000
    9.2426   15.2065   26.2776 O   0  0  0  0  0  0  0  0  0  0  0  0
    9.2549   14.2221   25.5658 C   0  0  0  0  0  0  0  0  0  0  0  0
    8.1074   13.2993   25.2172 C   0  0  0  0  0  0  0  0  0  0  0  0
    8.8048   12.2325   24.4192 C   0  0  0  0  0  0  0  0  0  0  0  0
    8.0003   11.3189   23.5768 C   0  0  0  0  0  0  0  0  0  0  0  0
    8.6478   10.7431   24.7603 C   0  0  0  0  0  0  0  0  0  0  0  0
   10.0739   12.8356   23.8854 C   0  0  1  0  0  0  0  0  0  0  0  0
    9.9072   13.6915   22.6000 C   0  0  0  0  0  0  0  0  0  0  0  0
    8.8843   13.8655   22.0601 O   0  0  0  0  0  0  0  0  0  0  0  0
   11.3215   14.2764   22.2978 N   0  0  0  0  0  0  0  0  0  0  0  0
   11.7403   15.2648   21.3310 C   0  0  0  0  0  0  0  0  0  0  0  0
   10.9725   15.2270   20.0156 C   0  0  0  0  0  0  0  0  0  0  0  0
   10.1313   16.4185   19.8977 C   0  0  0  0  0  0  0  0  0  0  0  0
    9.5018   17.4435   19.8744 C   0  0  0  0  0  0  0  0  0  0  0  0
    8.6895   18.6745   19.8491 C   0  0  0  0  0  0  0  0  0  0  0  0
    8.6803   19.2638   21.1244 O   0  0  0  0  0  0  0  0  0  0  0  0
   10.3981   13.7710   24.9302 N   0  0  0  0  0  0  0  0  0  0  0  0
  1  2  2  0
  2  3  1  0
  3  4  1  0
  4  5  1  0
  5  6  1  0
  4  7  1  0
  7  8  1  6
  8  9  2  0
  8 10  1  0
 10 11  1  0
 11 12  1  0
 12 13  1  0
 13 14  3  0
 14 15  1  0
 15 16  1  0
  7 17  1  0
 17  2  1  0
  6  4  1  0
M  END
>  <energy_score>  (4956) 
-1.152745

>  <inchikey>  (4956) 
YQWZRJDFHUWINL-UHFFFAOYSA-N

>  <smiles>  (4956) 
O=C1CC2(CC2)C(C(=O)NCCC#CCO)N1

>  <ref_pdb>  (4956) 
A1778a

>  <alias>  (4956) 
YQWZRJDFHUWINL-UHFFFAOYSA-N-P248-P124-P248-601515

>  <HIPPO Pose ID>  (4956) 
526984

>  <name>  (4956) 
YQWZRJDFHUWINL-UHFFFAOYSA-N-P248-P124-P248-601515

>  <HIPPO Compound ID>  (4956) 
299566

>  <ref_mols>  (4956) 
A3956a,A1778a

>  <distance_score>  (4956) 
1.629558

>  <inspiration_score>  (4956) 
None

$$$$
XPUYKSIAVXSTRP-UHFFFAOYSA-N-P248-P124-P248-601515
     RDKit          3D

 19 19  0  0  0  0  0  0  0  0999 V2000
    6.7856    9.0658   25.0830 O   0  0  0  0  0  0  0  0  0  0  0  0
    7.0309   10.2220   25.3493 C   0  0  0  0  0  0  0  0  0  0  0  0
    6.1614   11.1320   26.1342 C   0  0  0  0  0  0  0  0  0  0  0  0
    6.5775   12.4799   25.5870 C   0  0  1  0  0  0  0  0  0  0  0  0
    6.5014   13.5179   26.6348 C   0  0  0  0  0  0  0  0  0  0  0  0
    5.2244   13.8863   26.8322 F   0  0  0  0  0  0  0  0  0  0  0  0
    7.2112   14.5873   26.2212 F   0  0  0  0  0  0  0  0  0  0  0  0
    6.9848   13.1354   27.8276 F   0  0  0  0  0  0  0  0  0  0  0  0
    7.9752   12.3317   25.0286 C   0  0  2  0  0  0  0  0  0  0  0  0
    8.1052   12.8232   23.5703 C   0  0  0  0  0  0  0  0  0  0  0  0
    8.4867   12.0826   22.7561 O   0  0  0  0  0  0  0  0  0  0  0  0
    7.5809   14.2700   23.4403 N   0  0  0  0  0  0  0  0  0  0  0  0
    7.5056   15.1449   22.2846 C   0  0  0  0  0  0  0  0  0  0  0  0
    8.5516   14.8881   21.1997 C   0  0  0  0  0  0  0  0  0  0  0  0
    9.9149   15.1005   21.6396 C   0  0  0  0  0  0  0  0  0  0  0  0
   10.9760   15.3264   22.1357 C   0  0  0  0  0  0  0  0  0  0  0  0
   12.1207   15.6217   22.9477 C   0  0  0  0  0  0  0  0  0  0  0  0
   12.0397   14.8658   24.1523 O   0  0  0  0  0  0  0  0  0  0  0  0
    8.1706   10.8981   25.0014 N   0  0  0  0  0  0  0  0  0  0  0  0
  1  2  2  0
  2  3  1  0
  3  4  1  0
  4  5  1  1
  5  6  1  0
  5  7  1  0
  5  8  1  0
  4  9  1  0
  9 10  1  6
 10 11  2  0
 10 12  1  0
 12 13  1  0
 13 14  1  0
 14 15  1  0
 15 16  3  0
 16 17  1  0
 17 18  1  0
  9 19  1  0
 19  2  1  0
M  END
>  <energy_score>  (4957) 
-0.022312

>  <inchikey>  (4957) 
XPUYKSIAVXSTRP-UHFFFAOYSA-N

>  <smiles>  (4957) 
O=C1CC(C(F)(F)F)C(C(=O)NCCC#CCO)N1

>  <ref_pdb>  (4957) 
A1778a

>  <alias>  (4957) 
XPUYKSIAVXSTRP-UHFFFAOYSA-N-P248-P124-P248-601515

>  <HIPPO Pose ID>  (4957) 
527082

>  <name>  (4957) 
XPUYKSIAVXSTRP-UHFFFAOYSA-N-P248-P124-P248-601515

>  <HIPPO Compound ID>  (4957) 
299634

>  <ref_mols>  (4957) 
A3956a,A1778a

>  <distance_score>  (4957) 
1.581194

>  <inspiration_score>  (4957) 
None

$$$$
XDJXZDSCOQLLSD-UHFFFAOYSA-N-P248-P124-P248-601515
     RDKit          3D

 22 23  0  0  0  0  0  0  0  0999 V2000
    4.5806   13.6647   26.7037 C   0  0  0  0  0  0  0  0  0  0  0  0
    5.6732   12.7777   27.3091 C   0  0  0  0  0  0  0  0  0  0  0  0
    5.1115   12.1008   28.5646 C   0  0  0  0  0  0  0  0  0  0  0  0
    6.1718   11.7148   26.3202 C   0  0  0  0  0  0  0  0  0  0  0  0
    7.2737   12.1311   25.4743 N   0  0  0  0  0  0  0  0  0  0  0  0
    7.2696   13.3792   24.7458 C   0  0  0  0  0  0  0  0  0  0  0  0
    8.5790   13.3268   24.0005 C   0  0  2  0  0  0  0  0  0  0  0  0
    8.6459   14.2886   22.8178 C   0  0  0  0  0  0  0  0  0  0  0  0
    7.8843   15.1437   22.6162 O   0  0  0  0  0  0  0  0  0  0  0  0
    9.9519   13.9193   22.0840 N   0  0  0  0  0  0  0  0  0  0  0  0
   10.6455   14.5890   21.0008 C   0  0  2  0  0  0  0  0  0  0  0  0
   12.0702   14.8040   21.4481 C   0  0  0  0  0  0  0  0  0  0  0  0
   12.3780   15.3458   22.8107 C   0  0  0  0  0  0  0  0  0  0  0  0
   11.4529   15.6375   23.9626 C   0  0  0  0  0  0  0  0  0  0  0  0
   12.3153   14.4229   24.0212 C   0  0  0  0  0  0  0  0  0  0  0  0
   10.1220   15.7715   20.2339 C   0  0  0  0  0  0  0  0  0  0  0  0
   10.1237   16.9136   20.9364 F   0  0  0  0  0  0  0  0  0  0  0  0
    8.8823   15.5039   19.8237 F   0  0  0  0  0  0  0  0  0  0  0  0
   10.8671   15.9504   19.1126 F   0  0  0  0  0  0  0  0  0  0  0  0
    8.7837   11.8569   23.7020 C   0  0  0  0  0  0  0  0  0  0  0  0
    7.9892   11.1703   24.7640 C   0  0  0  0  0  0  0  0  0  0  0  0
    7.9743    9.9648   24.9362 O   0  0  0  0  0  0  0  0  0  0  0  0
  1  2  1  0
  2  3  1  0
  2  4  1  0
  4  5  1  0
  5  6  1  0
  6  7  1  0
  7  8  1  6
  8  9  2  0
  8 10  1  0
 10 11  1  0
 11 12  1  1
 12 13  1  0
 13 14  1  0
 14 15  1  0
 11 16  1  0
 16 17  1  0
 16 18  1  0
 16 19  1  0
  7 20  1  0
 20 21  1  0
 21 22  2  0
 21  5  1  0
 15 13  1  0
M  END
>  <energy_score>  (4958) 
-2.216563

>  <inchikey>  (4958) 
XDJXZDSCOQLLSD-UHFFFAOYSA-N

>  <smiles>  (4958) 
CC(C)CN1CC(C(=O)NC(CC2CC2)C(F)(F)F)CC1=O

>  <ref_pdb>  (4958) 
A1778a

>  <alias>  (4958) 
XDJXZDSCOQLLSD-UHFFFAOYSA-N-P248-P124-P248-601515

>  <HIPPO Pose ID>  (4958) 
527268

>  <name>  (4958) 
XDJXZDSCOQLLSD-UHFFFAOYSA-N-P248-P124-P248-601515

>  <HIPPO Compound ID>  (4958) 
298923

>  <ref_mols>  (4958) 
A3956a,A1778a

>  <distance_score>  (4958) 
1.297809

>  <inspiration_score>  (4958) 
None

$$$$
VRDFFLXYQCQXHS-UHFFFAOYSA-N-P248-P124-P248-601515
     RDKit          3D

 23 26  0  0  0  0  0  0  0  0999 V2000
    5.3164   13.8394   26.9640 C   0  0  0  0  0  0  0  0  0  0  0  0
    5.7456   12.5121   26.3147 C   0  0  2  0  0  0  0  0  0  0  0  0
    5.8398   11.5138   27.4201 C   0  0  0  0  0  0  0  0  0  0  0  0
    5.4150   10.0875   27.2474 C   0  0  0  0  0  0  0  0  0  0  0  0
    4.5300   11.0285   28.0060 C   0  0  0  0  0  0  0  0  0  0  0  0
    6.9575   12.6706   25.5152 N   0  0  0  0  0  0  0  0  0  0  0  0
    7.0679   13.8727   24.7248 C   0  0  0  0  0  0  0  0  0  0  0  0
    7.8509   13.5087   23.4906 C   0  0  1  0  0  0  0  0  0  0  0  0
    8.8786   14.5646   23.2078 C   0  0  0  0  0  0  0  0  0  0  0  0
    9.2191   15.3436   24.0051 O   0  0  0  0  0  0  0  0  0  0  0  0
    9.3958   14.3075   21.7721 N   0  0  0  0  0  0  0  0  0  0  0  0
   10.4866   14.8847   21.0671 C   0  0  2  0  0  0  0  0  0  0  0  0
   10.2474   15.8158   19.8938 C   0  0  0  0  0  0  0  0  0  0  0  0
    9.4541   15.2567   18.9684 F   0  0  0  0  0  0  0  0  0  0  0  0
    9.6725   16.9709   20.2965 F   0  0  0  0  0  0  0  0  0  0  0  0
   11.3834   16.1201   19.2405 F   0  0  0  0  0  0  0  0  0  0  0  0
   11.7519   14.0040   20.9720 C   0  0  0  0  0  0  0  0  0  0  0  0
   11.6776   15.1226   21.8688 C   0  0  0  0  0  0  0  0  0  0  0  0
   12.5295   16.2463   22.0762 C   0  0  0  0  0  0  0  0  0  0  0  0
   12.1044   15.3505   23.2409 C   0  0  0  0  0  0  0  0  0  0  0  0
    8.5736   12.2242   23.8720 C   0  0  0  0  0  0  0  0  0  0  0  0
    7.7160   11.6437   24.9593 C   0  0  0  0  0  0  0  0  0  0  0  0
    7.7547   10.4656   25.2713 O   0  0  0  0  0  0  0  0  0  0  0  0
  2  1  1  1
  2  3  1  0
  3  4  1  0
  4  5  1  0
  2  6  1  0
  6  7  1  0
  7  8  1  0
  8  9  1  1
  9 10  2  0
  9 11  1  0
 12 11  1  1
 12 13  1  0
 13 14  1  0
 13 15  1  0
 13 16  1  0
 12 17  1  0
 17 18  1  0
 18 19  1  0
 19 20  1  0
  8 21  1  0
 21 22  1  0
 22 23  2  0
  5  3  1  0
 22  6  1  0
 18 12  1  0
 20 18  1  0
M  END
>  <energy_score>  (4959) 
-0.377488

>  <inchikey>  (4959) 
VRDFFLXYQCQXHS-UHFFFAOYSA-N

>  <smiles>  (4959) 
CC(C1CC1)N1CC(C(=O)NC2(C(F)(F)F)CC23CC3)CC1=O

>  <ref_pdb>  (4959) 
A1778a

>  <alias>  (4959) 
VRDFFLXYQCQXHS-UHFFFAOYSA-N-P248-P124-P248-601515

>  <HIPPO Pose ID>  (4959) 
527304

>  <name>  (4959) 
VRDFFLXYQCQXHS-UHFFFAOYSA-N-P248-P124-P248-601515

>  <HIPPO Compound ID>  (4959) 
298955

>  <ref_mols>  (4959) 
A3956a,A1778a

>  <distance_score>  (4959) 
1.639631

>  <inspiration_score>  (4959) 
None

$$$$
FTKBPLXFCAUMGN-UHFFFAOYSA-N-P124-P124-P248-601515
     RDKit          3D

 24 25  0  0  0  0  0  0  0  0999 V2000
   12.8871   12.1203   21.6909 C   0  0  0  0  0  0  0  0  0  0  0  0
   11.7612   12.0002   22.5569 O   0  0  0  0  0  0  0  0  0  0  0  0
   11.1353   10.8036   22.5144 C   0  0  0  0  0  0  0  0  0  0  0  0
   11.5837    9.7706   22.0311 O   0  0  0  0  0  0  0  0  0  0  0  0
    9.7595   10.8683   23.1450 C   0  0  1  0  0  0  0  0  0  0  0  0
    9.8020   10.3788   24.5455 C   0  0  0  0  0  0  0  0  0  0  0  0
    9.9375   11.6639   25.3062 C   0  0  0  0  0  0  0  0  0  0  0  0
    9.0612   12.7066   24.6533 C   0  0  1  0  0  0  0  0  0  0  0  0
    7.7579   12.7817   25.3478 N   0  0  0  0  0  0  0  0  0  0  0  0
    7.4107   13.2394   26.7853 C   0  0  0  0  0  0  0  0  0  0  0  0
    8.1059   13.5536   27.6657 O   0  0  0  0  0  0  0  0  0  0  0  0
    5.8950   13.1891   27.0300 C   0  0  2  0  0  0  0  0  0  0  0  0
    5.6240   14.0928   28.2485 C   0  0  0  0  0  0  0  0  0  0  0  0
    5.8860   13.1542   29.4208 C   0  0  0  0  0  0  0  0  0  0  0  0
    5.9324   13.4531   30.6001 O   0  0  0  0  0  0  0  0  0  0  0  0
    5.9529   11.8520   28.9262 N   0  0  0  0  0  0  0  0  0  0  0  0
    5.4317   11.8277   27.5801 C   0  0  0  0  0  0  0  0  0  0  0  0
    3.8949   11.7947   27.7207 C   0  0  0  0  0  0  0  0  0  0  0  0
    5.9437   10.6549   26.7553 C   0  0  0  0  0  0  0  0  0  0  0  0
    9.7308   14.0669   24.7332 C   0  0  0  0  0  0  0  0  0  0  0  0
    8.8956   15.0158   24.2786 F   0  0  0  0  0  0  0  0  0  0  0  0
   10.1432   14.3705   25.9710 F   0  0  0  0  0  0  0  0  0  0  0  0
   10.8109   14.0464   23.9340 F   0  0  0  0  0  0  0  0  0  0  0  0
    9.0517   12.2414   23.2047 C   0  0  0  0  0  0  0  0  0  0  0  0
  1  2  1  0
  2  3  1  0
  3  4  2  0
  5  3  1  1
  5  6  1  0
  6  7  1  0
  7  8  1  0
  8  9  1  1
  9 10  1  0
 10 11  2  0
 12 10  1  1
 12 13  1  0
 13 14  1  0
 14 15  2  0
 14 16  1  0
 16 17  1  0
 17 18  1  0
 17 19  1  0
  8 20  1  0
 20 21  1  0
 20 22  1  0
 20 23  1  0
  8 24  1  0
 24  5  1  0
 17 12  1  0
M  END
>  <energy_score>  (4960) 
-16.347115

>  <inchikey>  (4960) 
FTKBPLXFCAUMGN-UHFFFAOYSA-N

>  <smiles>  (4960) 
COC(=O)C1CCC(NC(=O)C2CC(=O)NC2(C)C)(C(F)(F)F)C1

>  <ref_pdb>  (4960) 
A1778a

>  <alias>  (4960) 
FTKBPLXFCAUMGN-UHFFFAOYSA-N-P124-P124-P248-601515

>  <HIPPO Pose ID>  (4960) 
527441

>  <name>  (4960) 
FTKBPLXFCAUMGN-UHFFFAOYSA-N-P124-P124-P248-601515

>  <HIPPO Compound ID>  (4960) 
299080

>  <ref_mols>  (4960) 
A3956a,A1778a

>  <distance_score>  (4960) 
1.993633

>  <inspiration_score>  (4960) 
None

$$$$
FKHOVOXVMKZONG-UHFFFAOYSA-N-P303-P183-P303-601515
     RDKit          3D

 16 17  0  0  0  0  0  0  0  0999 V2000
   10.0196   11.5373   23.6926 C   0  0  0  0  0  0  0  0  0  0  0  0
    9.1401   11.7313   24.8551 N   0  0  0  0  0  0  0  0  0  0  0  0
    8.1769   10.6464   24.8617 C   0  0  0  0  0  0  0  0  0  0  0  0
    7.1360   10.7536   25.9525 C   0  0  0  0  0  0  0  0  0  0  0  0
    6.5002   12.1092   26.1188 C   0  0  0  0  0  0  0  0  0  0  0  0
    7.4762   13.2396   25.9405 C   0  0  0  0  0  0  0  0  0  0  0  0
    8.4433   13.0233   24.7723 C   0  0  1  0  0  0  0  0  0  0  0  0
    9.4275   14.1912   24.7788 C   0  0  0  0  0  0  0  0  0  0  0  0
    9.7225   14.6067   23.4385 N   0  0  0  0  0  0  0  0  0  0  0  0
   11.0489   14.6116   22.6646 C   0  0  0  0  0  0  0  0  0  0  0  0
   12.1268   14.3518   23.0149 O   0  0  0  0  0  0  0  0  0  0  0  0
   10.7318   14.9398   21.2445 C   0  0  0  0  0  0  0  0  0  0  0  0
   11.6201   14.7263   20.2665 C   0  0  0  0  0  0  0  0  0  0  0  0
   11.0380   14.9594   18.9214 C   0  0  0  0  0  0  0  0  0  0  0  0
    9.7984   15.7645   19.2504 C   0  0  0  0  0  0  0  0  0  0  0  0
    9.4349   15.4294   20.6875 C   0  0  0  0  0  0  0  0  0  0  0  0
  1  2  1  0
  2  3  1  0
  3  4  1  0
  4  5  1  0
  5  6  1  0
  6  7  1  0
  7  8  1  1
  8  9  1  0
  9 10  1  0
 10 11  2  0
 10 12  1  0
 12 13  2  0
 13 14  1  0
 14 15  1  0
 15 16  1  0
  7  2  1  0
 16 12  1  0
M  END
>  <energy_score>  (4961) 
-12.956343

>  <inchikey>  (4961) 
FKHOVOXVMKZONG-UHFFFAOYSA-N

>  <smiles>  (4961) 
CN1CCCCC1CNC(=O)C1=CCCC1

>  <ref_pdb>  (4961) 
A1778a

>  <alias>  (4961) 
FKHOVOXVMKZONG-UHFFFAOYSA-N-P303-P183-P303-601515

>  <HIPPO Pose ID>  (4961) 
527458

>  <name>  (4961) 
FKHOVOXVMKZONG-UHFFFAOYSA-N-P303-P183-P303-601515

>  <HIPPO Compound ID>  (4961) 
293170

>  <ref_mols>  (4961) 
A4320a,A3436a

>  <distance_score>  (4961) 
1.909226

>  <inspiration_score>  (4961) 
None

$$$$
KDULNANLJRXQLY-UHFFFAOYSA-N-P183-P183-P303-601515
     RDKit          3D

 17 18  0  0  0  0  0  0  0  0999 V2000
    9.9889   11.7131   22.9401 C   0  0  0  0  0  0  0  0  0  0  0  0
    8.7369   11.6386   23.6858 N   0  0  0  0  0  0  0  0  0  0  0  0
    8.6140   10.2452   24.1538 C   0  0  0  0  0  0  0  0  0  0  0  0
    7.6240   10.0247   25.2879 C   0  0  0  0  0  0  0  0  0  0  0  0
    6.8341   11.1774   25.8573 C   0  0  0  0  0  0  0  0  0  0  0  0
    7.2970   12.5463   25.4271 C   0  0  0  0  0  0  0  0  0  0  0  0
    8.6993   12.5803   24.8193 C   0  0  2  0  0  0  0  0  0  0  0  0
    9.0452   14.0857   24.6729 C   0  0  0  0  0  0  0  0  0  0  0  0
    9.4429   14.5245   23.3808 N   0  0  0  0  0  0  0  0  0  0  0  0
   10.8388   14.8159   22.8126 C   0  0  0  0  0  0  0  0  0  0  0  0
   11.8785   14.8175   23.3322 O   0  0  0  0  0  0  0  0  0  0  0  0
   10.6806   15.0951   21.3691 C   0  0  0  0  0  0  0  0  0  0  0  0
   11.6408   14.6609   20.5548 C   0  0  0  0  0  0  0  0  0  0  0  0
   11.1643   14.9582   19.2122 C   0  0  0  0  0  0  0  0  0  0  0  0
   11.7210   14.5136   18.2239 O   0  0  0  0  0  0  0  0  0  0  0  0
    9.9562   15.8404   19.2400 C   0  0  0  0  0  0  0  0  0  0  0  0
    9.5329   15.7753   20.6974 C   0  0  0  0  0  0  0  0  0  0  0  0
  1  2  1  0
  2  3  1  0
  3  4  1  0
  4  5  1  0
  5  6  1  0
  6  7  1  0
  7  8  1  6
  8  9  1  0
  9 10  1  0
 10 11  2  0
 10 12  1  0
 12 13  2  0
 13 14  1  0
 14 15  2  0
 14 16  1  0
 16 17  1  0
  7  2  1  0
 17 12  1  0
M  END
>  <energy_score>  (4962) 
-6.212005

>  <inchikey>  (4962) 
KDULNANLJRXQLY-UHFFFAOYSA-N

>  <smiles>  (4962) 
CN1CCCCC1CNC(=O)C1=CC(=O)CC1

>  <ref_pdb>  (4962) 
A1778a

>  <alias>  (4962) 
KDULNANLJRXQLY-UHFFFAOYSA-N-P183-P183-P303-601515

>  <HIPPO Pose ID>  (4962) 
527481

>  <name>  (4962) 
KDULNANLJRXQLY-UHFFFAOYSA-N-P183-P183-P303-601515

>  <HIPPO Compound ID>  (4962) 
293190

>  <ref_mols>  (4962) 
A4320a,A3436a

>  <distance_score>  (4962) 
1.60536

>  <inspiration_score>  (4962) 
None

$$$$
KDULNANLJRXQLY-UHFFFAOYSA-N-P303-P183-P303-601515
     RDKit          3D

 17 18  0  0  0  0  0  0  0  0999 V2000
    9.7114   10.2253   23.3554 C   0  0  0  0  0  0  0  0  0  0  0  0
    8.7938   11.1251   24.0282 N   0  0  0  0  0  0  0  0  0  0  0  0
    8.1243   10.4267   25.1132 C   0  0  0  0  0  0  0  0  0  0  0  0
    7.0276   11.2404   25.7784 C   0  0  0  0  0  0  0  0  0  0  0  0
    7.1863   12.7630   25.7368 C   0  0  0  0  0  0  0  0  0  0  0  0
    8.1989   13.3026   24.7200 C   0  0  0  0  0  0  0  0  0  0  0  0
    9.3647   12.3304   24.6359 C   0  0  2  0  0  0  0  0  0  0  0  0
   10.6955   12.8794   24.1700 C   0  0  0  0  0  0  0  0  0  0  0  0
   10.6711   13.5197   22.9230 N   0  0  0  0  0  0  0  0  0  0  0  0
   11.1372   14.8974   22.5181 C   0  0  0  0  0  0  0  0  0  0  0  0
   11.6876   15.7075   23.1233 O   0  0  0  0  0  0  0  0  0  0  0  0
   10.8094   15.0430   21.1244 C   0  0  0  0  0  0  0  0  0  0  0  0
   11.7339   14.6702   20.2523 C   0  0  0  0  0  0  0  0  0  0  0  0
   11.0986   14.9042   18.9786 C   0  0  0  0  0  0  0  0  0  0  0  0
   11.5999   14.4741   17.9578 O   0  0  0  0  0  0  0  0  0  0  0  0
    9.8483   15.7144   19.1381 C   0  0  0  0  0  0  0  0  0  0  0  0
    9.5227   15.5542   20.6092 C   0  0  0  0  0  0  0  0  0  0  0  0
  1  2  1  0
  2  3  1  0
  3  4  1  0
  4  5  1  0
  5  6  1  0
  6  7  1  0
  7  8  1  6
  8  9  1  0
  9 10  1  0
 10 11  2  0
 10 12  1  0
 12 13  2  0
 13 14  1  0
 14 15  2  0
 14 16  1  0
 16 17  1  0
  7  2  1  0
 17 12  1  0
M  END
>  <energy_score>  (4963) 
-10.827611

>  <inchikey>  (4963) 
KDULNANLJRXQLY-UHFFFAOYSA-N

>  <smiles>  (4963) 
CN1CCCCC1CNC(=O)C1=CC(=O)CC1

>  <ref_pdb>  (4963) 
A1778a

>  <alias>  (4963) 
KDULNANLJRXQLY-UHFFFAOYSA-N-P303-P183-P303-601515

>  <HIPPO Pose ID>  (4963) 
527482

>  <name>  (4963) 
KDULNANLJRXQLY-UHFFFAOYSA-N-P303-P183-P303-601515

>  <HIPPO Compound ID>  (4963) 
293190

>  <ref_mols>  (4963) 
A4320a,A3436a

>  <distance_score>  (4963) 
1.964005

>  <inspiration_score>  (4963) 
None

$$$$
OSPVCXNPSZGZLR-UHFFFAOYSA-N-P183-P183-P303-601515
     RDKit          3D

 17 18  0  0  0  0  0  0  0  0999 V2000
    9.7496   10.3798   23.1528 C   0  0  0  0  0  0  0  0  0  0  0  0
    8.6312   10.9283   23.9030 N   0  0  0  0  0  0  0  0  0  0  0  0
    8.1015    9.8546   24.7451 C   0  0  0  0  0  0  0  0  0  0  0  0
    6.9406   10.2879   25.6462 C   0  0  0  0  0  0  0  0  0  0  0  0
    6.7836   11.7844   25.9482 C   0  0  0  0  0  0  0  0  0  0  0  0
    7.6299   12.7255   25.0901 C   0  0  0  0  0  0  0  0  0  0  0  0
    8.9527   12.0317   24.8190 C   0  0  2  0  0  0  0  0  0  0  0  0
   10.1367   12.9565   24.6081 C   0  0  0  0  0  0  0  0  0  0  0  0
   10.1736   13.5759   23.3551 N   0  0  0  0  0  0  0  0  0  0  0  0
   11.2529   14.4308   22.7056 C   0  0  0  0  0  0  0  0  0  0  0  0
   12.2551   14.8256   23.1304 O   0  0  0  0  0  0  0  0  0  0  0  0
   10.7161   14.7719   21.3828 C   0  0  0  0  0  0  0  0  0  0  0  0
   11.5261   14.7225   20.3201 C   0  0  0  0  0  0  0  0  0  0  0  0
   11.0027   15.1159   18.9868 C   0  0  0  0  0  0  0  0  0  0  0  0
    9.8937   16.1694   19.0764 C   0  0  0  0  0  0  0  0  0  0  0  0
    9.3027   16.4885   20.4383 C   0  0  0  0  0  0  0  0  0  0  0  0
    9.2991   15.2442   21.2732 C   0  0  0  0  0  0  0  0  0  0  0  0
  1  2  1  0
  2  3  1  0
  3  4  1  0
  4  5  1  0
  5  6  1  0
  6  7  1  0
  7  8  1  6
  8  9  1  0
  9 10  1  0
 10 11  2  0
 10 12  1  0
 12 13  2  0
 13 14  1  0
 14 15  1  0
 15 16  1  0
 16 17  1  0
  7  2  1  0
 17 12  1  0
M  END
>  <energy_score>  (4964) 
-7.270349

>  <inchikey>  (4964) 
OSPVCXNPSZGZLR-UHFFFAOYSA-N

>  <smiles>  (4964) 
CN1CCCCC1CNC(=O)C1=CCCCC1

>  <ref_pdb>  (4964) 
A1778a

>  <alias>  (4964) 
OSPVCXNPSZGZLR-UHFFFAOYSA-N-P183-P183-P303-601515

>  <HIPPO Pose ID>  (4964) 
527495

>  <name>  (4964) 
OSPVCXNPSZGZLR-UHFFFAOYSA-N-P183-P183-P303-601515

>  <HIPPO Compound ID>  (4964) 
293200

>  <ref_mols>  (4964) 
A4320a,A3436a

>  <distance_score>  (4964) 
1.779239

>  <inspiration_score>  (4964) 
None

$$$$
OSPVCXNPSZGZLR-UHFFFAOYSA-N-P303-P183-P303-601515
     RDKit          3D

 17 18  0  0  0  0  0  0  0  0999 V2000
    9.7263   10.2662   23.3727 C   0  0  0  0  0  0  0  0  0  0  0  0
    8.7847   11.1197   24.0776 N   0  0  0  0  0  0  0  0  0  0  0  0
    8.1105   10.3449   25.1049 C   0  0  0  0  0  0  0  0  0  0  0  0
    7.0019   11.1038   25.8158 C   0  0  0  0  0  0  0  0  0  0  0  0
    7.1144   12.6323   25.8317 C   0  0  0  0  0  0  0  0  0  0  0  0
    8.1635   13.2396   24.8927 C   0  0  0  0  0  0  0  0  0  0  0  0
    9.3370   12.2767   24.7904 C   0  0  2  0  0  0  0  0  0  0  0  0
   10.6797   12.8643   24.4109 C   0  0  0  0  0  0  0  0  0  0  0  0
   10.6466   13.4079   23.1311 N   0  0  0  0  0  0  0  0  0  0  0  0
   11.5300   14.4469   22.4825 C   0  0  0  0  0  0  0  0  0  0  0  0
   12.4793   14.9712   22.8735 O   0  0  0  0  0  0  0  0  0  0  0  0
   10.8510   14.7429   21.2315 C   0  0  0  0  0  0  0  0  0  0  0  0
   11.5355   14.7535   20.0889 C   0  0  0  0  0  0  0  0  0  0  0  0
   10.8391   15.1875   18.8596 C   0  0  0  0  0  0  0  0  0  0  0  0
    9.7392   16.2166   19.1512 C   0  0  0  0  0  0  0  0  0  0  0  0
    9.2425   16.4085   20.5701 C   0  0  0  0  0  0  0  0  0  0  0  0
    9.4097   15.1392   21.3342 C   0  0  0  0  0  0  0  0  0  0  0  0
  1  2  1  0
  2  3  1  0
  3  4  1  0
  4  5  1  0
  5  6  1  0
  6  7  1  0
  7  8  1  6
  8  9  1  0
  9 10  1  0
 10 11  2  0
 10 12  1  0
 12 13  2  0
 13 14  1  0
 14 15  1  0
 15 16  1  0
 16 17  1  0
  7  2  1  0
 17 12  1  0
M  END
>  <energy_score>  (4965) 
-4.609326

>  <inchikey>  (4965) 
OSPVCXNPSZGZLR-UHFFFAOYSA-N

>  <smiles>  (4965) 
CN1CCCCC1CNC(=O)C1=CCCCC1

>  <ref_pdb>  (4965) 
A1778a

>  <alias>  (4965) 
OSPVCXNPSZGZLR-UHFFFAOYSA-N-P303-P183-P303-601515

>  <HIPPO Pose ID>  (4965) 
527496

>  <name>  (4965) 
OSPVCXNPSZGZLR-UHFFFAOYSA-N-P303-P183-P303-601515

>  <HIPPO Compound ID>  (4965) 
293200

>  <ref_mols>  (4965) 
A4320a,A3436a

>  <distance_score>  (4965) 
1.995112

>  <inspiration_score>  (4965) 
None

$$$$
MXFAZUNXOBXRMG-UHFFFAOYSA-N-P183-P183-P303-601515
     RDKit          3D

 17 18  0  0  0  0  0  0  0  0999 V2000
    9.5775   11.4878   23.2670 C   0  0  0  0  0  0  0  0  0  0  0  0
    8.2935   11.5509   23.9672 N   0  0  0  0  0  0  0  0  0  0  0  0
    8.2604   10.5240   24.9873 C   0  0  0  0  0  0  0  0  0  0  0  0
    6.9612   10.3878   25.7449 C   0  0  0  0  0  0  0  0  0  0  0  0
    6.3533   11.6984   26.1846 C   0  0  1  0  0  0  0  0  0  0  0  0
    6.2367   11.6985   27.6196 O   0  0  0  0  0  0  0  0  0  0  0  0
    7.1409   12.9246   25.7901 C   0  0  0  0  0  0  0  0  0  0  0  0
    7.8883   12.8894   24.4460 C   0  0  1  0  0  0  0  0  0  0  0  0
    8.9832   13.9826   24.5658 C   0  0  0  0  0  0  0  0  0  0  0  0
    9.4017   14.4745   23.2914 N   0  0  0  0  0  0  0  0  0  0  0  0
   10.8123   14.6246   22.6907 C   0  0  0  0  0  0  0  0  0  0  0  0
   11.8588   14.4433   23.1679 O   0  0  0  0  0  0  0  0  0  0  0  0
   10.6348   15.0066   21.2597 C   0  0  0  0  0  0  0  0  0  0  0  0
   11.5784   14.7515   20.3450 C   0  0  0  0  0  0  0  0  0  0  0  0
   11.0935   15.0242   18.9648 C   0  0  0  0  0  0  0  0  0  0  0  0
    9.8657   15.8831   19.2113 C   0  0  0  0  0  0  0  0  0  0  0  0
    9.4068   15.5748   20.6251 C   0  0  0  0  0  0  0  0  0  0  0  0
  1  2  1  0
  2  3  1  0
  3  4  1  0
  4  5  1  0
  5  6  1  1
  5  7  1  0
  7  8  1  0
  8  9  1  1
  9 10  1  0
 10 11  1  0
 11 12  2  0
 11 13  1  0
 13 14  2  0
 14 15  1  0
 15 16  1  0
 16 17  1  0
  8  2  1  0
 17 13  1  0
M  END
>  <energy_score>  (4966) 
-19.584371

>  <inchikey>  (4966) 
MXFAZUNXOBXRMG-UHFFFAOYSA-N

>  <smiles>  (4966) 
CN1CCC(O)CC1CNC(=O)C1=CCCC1

>  <ref_pdb>  (4966) 
A1778a

>  <alias>  (4966) 
MXFAZUNXOBXRMG-UHFFFAOYSA-N-P183-P183-P303-601515

>  <HIPPO Pose ID>  (4966) 
527521

>  <name>  (4966) 
MXFAZUNXOBXRMG-UHFFFAOYSA-N-P183-P183-P303-601515

>  <HIPPO Compound ID>  (4966) 
293224

>  <ref_mols>  (4966) 
A4320a,A3436a

>  <distance_score>  (4966) 
1.828532

>  <inspiration_score>  (4966) 
None

$$$$
MXFAZUNXOBXRMG-UHFFFAOYSA-N-P303-P183-P303-601515
     RDKit          3D

 17 18  0  0  0  0  0  0  0  0999 V2000
    9.5831   10.0643   23.2751 C   0  0  0  0  0  0  0  0  0  0  0  0
    8.6560   10.9887   23.9102 N   0  0  0  0  0  0  0  0  0  0  0  0
    8.2417   10.5157   25.2025 C   0  0  0  0  0  0  0  0  0  0  0  0
    7.0768   11.2592   25.8125 C   0  0  0  0  0  0  0  0  0  0  0  0
    7.0283   12.7197   25.4020 C   0  0  1  0  0  0  0  0  0  0  0  0
    6.5362   13.4867   26.5040 O   0  0  0  0  0  0  0  0  0  0  0  0
    8.3877   13.2449   24.9979 C   0  0  0  0  0  0  0  0  0  0  0  0
    9.0312   12.3990   23.8916 C   0  0  1  0  0  0  0  0  0  0  0  0
   10.5380   12.7021   23.8482 C   0  0  0  0  0  0  0  0  0  0  0  0
   10.7541   13.4992   22.6991 N   0  0  0  0  0  0  0  0  0  0  0  0
   11.2492   14.9172   22.5690 C   0  0  0  0  0  0  0  0  0  0  0  0
   11.6363   15.6485   23.3677 O   0  0  0  0  0  0  0  0  0  0  0  0
   11.0537   15.2794   21.1718 C   0  0  0  0  0  0  0  0  0  0  0  0
   11.6027   14.7140   20.0963 C   0  0  0  0  0  0  0  0  0  0  0  0
   10.8601   15.1031   18.8705 C   0  0  0  0  0  0  0  0  0  0  0  0
    9.6110   15.7533   19.4531 C   0  0  0  0  0  0  0  0  0  0  0  0
    9.8988   16.1662   20.8733 C   0  0  0  0  0  0  0  0  0  0  0  0
  1  2  1  0
  2  3  1  0
  3  4  1  0
  4  5  1  0
  5  6  1  1
  5  7  1  0
  7  8  1  0
  8  9  1  1
  9 10  1  0
 10 11  1  0
 11 12  2  0
 11 13  1  0
 13 14  2  0
 14 15  1  0
 15 16  1  0
 16 17  1  0
  8  2  1  0
 17 13  1  0
M  END
>  <energy_score>  (4967) 
-18.431239

>  <inchikey>  (4967) 
MXFAZUNXOBXRMG-UHFFFAOYSA-N

>  <smiles>  (4967) 
CN1CCC(O)CC1CNC(=O)C1=CCCC1

>  <ref_pdb>  (4967) 
A1778a

>  <alias>  (4967) 
MXFAZUNXOBXRMG-UHFFFAOYSA-N-P303-P183-P303-601515

>  <HIPPO Pose ID>  (4967) 
527522

>  <name>  (4967) 
MXFAZUNXOBXRMG-UHFFFAOYSA-N-P303-P183-P303-601515

>  <HIPPO Compound ID>  (4967) 
293224

>  <ref_mols>  (4967) 
A4320a,A3436a

>  <distance_score>  (4967) 
1.952787

>  <inspiration_score>  (4967) 
None

$$$$
PHFIBHLIJDMNBZ-UHFFFAOYSA-N-P183-P183-P303-601515
     RDKit          3D

 18 19  0  0  0  0  0  0  0  0999 V2000
    9.9665   11.7659   23.7794 C   0  0  0  0  0  0  0  0  0  0  0  0
    8.9604   11.7930   24.8597 N   0  0  0  0  0  0  0  0  0  0  0  0
    8.1862   10.5681   24.7256 C   0  0  0  0  0  0  0  0  0  0  0  0
    7.1112   10.4412   25.7724 C   0  0  0  0  0  0  0  0  0  0  0  0
    6.3069   11.6759   26.1457 C   0  0  0  0  0  0  0  0  0  0  0  0
    6.9358   13.0605   25.8492 C   0  0  0  0  0  0  0  0  0  0  0  0
    5.8311   14.0329   25.3203 C   0  0  0  0  0  0  0  0  0  0  0  0
    7.3299   13.6885   27.2163 C   0  0  0  0  0  0  0  0  0  0  0  0
    8.0677   12.9741   24.7475 C   0  0  1  0  0  0  0  0  0  0  0  0
    8.8743   14.2901   24.6897 C   0  0  0  0  0  0  0  0  0  0  0  0
    9.2956   14.6271   23.3551 N   0  0  0  0  0  0  0  0  0  0  0  0
   10.7106   14.7499   22.7517 C   0  0  0  0  0  0  0  0  0  0  0  0
   11.7567   14.6728   23.2587 O   0  0  0  0  0  0  0  0  0  0  0  0
   10.5485   15.0144   21.2961 C   0  0  0  0  0  0  0  0  0  0  0  0
   11.5178   14.7482   20.4121 C   0  0  0  0  0  0  0  0  0  0  0  0
   11.0713   15.0064   19.0166 C   0  0  0  0  0  0  0  0  0  0  0  0
    9.8415   15.8744   19.2237 C   0  0  0  0  0  0  0  0  0  0  0  0
    9.3381   15.5751   20.6257 C   0  0  0  0  0  0  0  0  0  0  0  0
  1  2  1  0
  2  3  1  0
  3  4  1  0
  4  5  1  0
  5  6  1  0
  6  7  1  0
  6  8  1  0
  6  9  1  0
  9 10  1  1
 10 11  1  0
 11 12  1  0
 12 13  2  0
 12 14  1  0
 14 15  2  0
 15 16  1  0
 16 17  1  0
 17 18  1  0
  9  2  1  0
 18 14  1  0
M  END
>  <energy_score>  (4968) 
-20.836171

>  <inchikey>  (4968) 
PHFIBHLIJDMNBZ-UHFFFAOYSA-N

>  <smiles>  (4968) 
CN1CCCC(C)(C)C1CNC(=O)C1=CCCC1

>  <ref_pdb>  (4968) 
A1778a

>  <alias>  (4968) 
PHFIBHLIJDMNBZ-UHFFFAOYSA-N-P183-P183-P303-601515

>  <HIPPO Pose ID>  (4968) 
527533

>  <name>  (4968) 
PHFIBHLIJDMNBZ-UHFFFAOYSA-N-P183-P183-P303-601515

>  <HIPPO Compound ID>  (4968) 
293230

>  <ref_mols>  (4968) 
A4320a,A3436a

>  <distance_score>  (4968) 
1.96558

>  <inspiration_score>  (4968) 
None

$$$$
PXSFIPXTCKGYIC-UHFFFAOYSA-N-P183-P183-P303-601515
     RDKit          3D

 18 19  0  0  0  0  0  0  0  0999 V2000
    9.2013   10.3008   23.8145 C   0  0  0  0  0  0  0  0  0  0  0  0
    7.9883   10.7977   24.6224 C   0  0  0  0  0  0  0  0  0  0  0  0
    7.4002    9.6463   25.3974 C   0  0  0  0  0  0  0  0  0  0  0  0
    8.0677   12.0545   25.4233 N   0  0  0  0  0  0  0  0  0  0  0  0
    6.8580   12.2431   26.2759 C   0  0  0  0  0  0  0  0  0  0  0  0
    6.7772   13.6065   26.9576 C   0  0  0  0  0  0  0  0  0  0  0  0
    6.9262   14.7612   25.9852 C   0  0  0  0  0  0  0  0  0  0  0  0
    7.1542   14.2742   24.5697 C   0  0  0  0  0  0  0  0  0  0  0  0
    8.2370   13.1844   24.4768 C   0  0  1  0  0  0  0  0  0  0  0  0
    9.6513   13.7762   24.5790 C   0  0  0  0  0  0  0  0  0  0  0  0
    9.9565   14.3642   23.3050 N   0  0  0  0  0  0  0  0  0  0  0  0
   11.2798   14.4476   22.5389 C   0  0  0  0  0  0  0  0  0  0  0  0
   12.3510   14.1223   22.8487 O   0  0  0  0  0  0  0  0  0  0  0  0
   10.9453   14.9644   21.1736 C   0  0  0  0  0  0  0  0  0  0  0  0
   11.7674   14.7319   20.1435 C   0  0  0  0  0  0  0  0  0  0  0  0
   11.1348   15.0517   18.8370 C   0  0  0  0  0  0  0  0  0  0  0  0
    9.9257   15.8758   19.2399 C   0  0  0  0  0  0  0  0  0  0  0  0
    9.6483   15.5435   20.6963 C   0  0  0  0  0  0  0  0  0  0  0  0
  1  2  1  0
  2  3  1  0
  2  4  1  0
  4  5  1  0
  5  6  1  0
  6  7  1  0
  7  8  1  0
  8  9  1  0
  9 10  1  1
 10 11  1  0
 11 12  1  0
 12 13  2  0
 12 14  1  0
 14 15  2  0
 15 16  1  0
 16 17  1  0
 17 18  1  0
  9  4  1  0
 18 14  1  0
M  END
>  <energy_score>  (4969) 
-10.316488

>  <inchikey>  (4969) 
PXSFIPXTCKGYIC-UHFFFAOYSA-N

>  <smiles>  (4969) 
CC(C)N1CCCCC1CNC(=O)C1=CCCC1

>  <ref_pdb>  (4969) 
A1778a

>  <alias>  (4969) 
PXSFIPXTCKGYIC-UHFFFAOYSA-N-P183-P183-P303-601515

>  <HIPPO Pose ID>  (4969) 
527535

>  <name>  (4969) 
PXSFIPXTCKGYIC-UHFFFAOYSA-N-P183-P183-P303-601515

>  <HIPPO Compound ID>  (4969) 
293231

>  <ref_mols>  (4969) 
A4320a,A3436a

>  <distance_score>  (4969) 
1.920592

>  <inspiration_score>  (4969) 
None

$$$$
MGPDVVPYOMMEBD-UHFFFAOYSA-N-P303-P183-P303-601515
     RDKit          3D

 18 19  0  0  0  0  0  0  0  0999 V2000
   11.7959   12.7486   24.4696 C   0  0  0  0  0  0  0  0  0  0  0  0
   10.5116   12.1338   23.9103 C   0  0  0  0  0  0  0  0  0  0  0  0
    9.3915   12.1994   24.8475 N   0  0  0  0  0  0  0  0  0  0  0  0
    8.4774   11.0869   24.6005 C   0  0  0  0  0  0  0  0  0  0  0  0
    7.4134   11.0205   25.6727 C   0  0  0  0  0  0  0  0  0  0  0  0
    6.6817   12.3291   25.8682 C   0  0  0  0  0  0  0  0  0  0  0  0
    7.6252   13.5051   25.9886 C   0  0  0  0  0  0  0  0  0  0  0  0
    8.7188   13.5189   24.9051 C   0  0  2  0  0  0  0  0  0  0  0  0
    8.1047   14.0981   23.5995 C   0  0  0  0  0  0  0  0  0  0  0  0
    9.0718   14.5147   22.6201 N   0  0  0  0  0  0  0  0  0  0  0  0
   10.5016   15.0706   22.7959 C   0  0  0  0  0  0  0  0  0  0  0  0
   11.0898   15.3497   23.7623 O   0  0  0  0  0  0  0  0  0  0  0  0
   11.1302   15.1196   21.4771 C   0  0  0  0  0  0  0  0  0  0  0  0
   12.3631   14.3646   21.3453 C   0  0  0  0  0  0  0  0  0  0  0  0
   10.5442   15.6877   20.4434 C   0  0  0  0  0  0  0  0  0  0  0  0
   10.7276   15.3443   18.9677 C   0  0  0  0  0  0  0  0  0  0  0  0
    9.2419   15.6351   19.0005 C   0  0  0  0  0  0  0  0  0  0  0  0
    9.3817   16.6071   20.1739 C   0  0  0  0  0  0  0  0  0  0  0  0
  1  2  1  0
  2  3  1  0
  3  4  1  0
  4  5  1  0
  5  6  1  0
  6  7  1  0
  7  8  1  0
  8  9  1  6
  9 10  1  0
 10 11  1  0
 11 12  2  0
 11 13  1  0
 13 14  1  0
 13 15  2  3
 15 16  1  0
 16 17  1  0
 17 18  1  0
  8  3  1  0
 18 15  1  0
M  END
>  <energy_score>  (4970) 
-1.593451

>  <inchikey>  (4970) 
MGPDVVPYOMMEBD-UHFFFAOYSA-N

>  <smiles>  (4970) 
CCN1CCCCC1CNC(=O)C(C)=C1CCC1

>  <ref_pdb>  (4970) 
A1778a

>  <alias>  (4970) 
MGPDVVPYOMMEBD-UHFFFAOYSA-N-P303-P183-P303-601515

>  <HIPPO Pose ID>  (4970) 
527560

>  <name>  (4970) 
MGPDVVPYOMMEBD-UHFFFAOYSA-N-P303-P183-P303-601515

>  <HIPPO Compound ID>  (4970) 
293252

>  <ref_mols>  (4970) 
A4320a,A3436a

>  <distance_score>  (4970) 
1.936807

>  <inspiration_score>  (4970) 
None

$$$$
SXCDMKSZIKMHBJ-UHFFFAOYSA-N-P183-P183-P303-601515
     RDKit          3D

 18 20  0  0  0  0  0  0  0  0999 V2000
   11.0559   14.2958   19.3990 C   0  0  0  0  0  0  0  0  0  0  0  0
   10.1853   14.0769   20.5952 N   0  0  0  0  0  0  0  0  0  0  0  0
    9.2984   15.1961   20.7884 C   0  0  0  0  0  0  0  0  0  0  0  0
   10.1202   16.4419   20.9706 C   0  0  0  0  0  0  0  0  0  0  0  0
   11.5101   16.1181   21.5927 C   0  0  0  0  0  0  0  0  0  0  0  0
   11.4338   14.9990   22.5867 C   0  0  0  0  0  0  0  0  0  0  0  0
   10.9575   13.7605   21.8384 C   0  0  1  0  0  0  0  0  0  0  0  0
   10.2664   12.7750   22.8213 C   0  0  0  0  0  0  0  0  0  0  0  0
    9.1636   13.2569   23.6298 N   0  0  0  0  0  0  0  0  0  0  0  0
    9.1571   13.9208   25.0097 C   0  0  0  0  0  0  0  0  0  0  0  0
   10.0397   14.2588   25.6885 O   0  0  0  0  0  0  0  0  0  0  0  0
    7.7540   14.0074   25.4834 C   0  0  0  0  0  0  0  0  0  0  0  0
    6.5898   14.5074   25.0199 C   0  0  0  0  0  0  0  0  0  0  0  0
    5.8794   14.2263   26.3557 C   0  0  1  0  0  0  0  0  0  0  0  0
    4.6908   13.2670   26.4417 C   0  0  0  0  0  0  0  0  0  0  0  0
    5.2527   11.9653   27.0143 C   0  0  0  0  0  0  0  0  0  0  0  0
    6.6485   11.9079   26.4466 C   0  0  0  0  0  0  0  0  0  0  0  0
    7.1062   13.3451   26.6578 C   0  0  1  0  0  0  0  0  0  0  0  0
  1  2  1  0
  2  3  1  0
  3  4  1  0
  4  5  1  0
  5  6  1  0
  6  7  1  0
  7  8  1  1
  8  9  1  0
  9 10  1  0
 10 11  2  0
 10 12  1  0
 12 13  2  0
 13 14  1  0
 14 15  1  6
 15 16  1  0
 16 17  1  0
 18 17  1  6
  7  2  1  0
 18 12  1  0
 18 14  1  0
M  END
>  <energy_score>  (4971) 
-9.277481

>  <inchikey>  (4971) 
SXCDMKSZIKMHBJ-UHFFFAOYSA-N

>  <smiles>  (4971) 
CN1CCCCC1CNC(=O)C1=CC2CCCC12

>  <ref_pdb>  (4971) 
A1778a

>  <alias>  (4971) 
SXCDMKSZIKMHBJ-UHFFFAOYSA-N-P183-P183-P303-601515

>  <HIPPO Pose ID>  (4971) 
527565

>  <name>  (4971) 
SXCDMKSZIKMHBJ-UHFFFAOYSA-N-P183-P183-P303-601515

>  <HIPPO Compound ID>  (4971) 
293256

>  <ref_mols>  (4971) 
A4320a,A3436a

>  <distance_score>  (4971) 
1.895642

>  <inspiration_score>  (4971) 
None

$$$$
BRXJJHOFUMHIEB-UHFFFAOYSA-N-P303-P183-P303-601516
     RDKit          3D

 18 19  0  0  0  0  0  0  0  0999 V2000
    5.5560   12.1842   26.7961 C   0  0  0  0  0  0  0  0  0  0  0  0
    6.9963   11.9882   26.3318 C   0  0  1  0  0  0  0  0  0  0  0  0
    7.2472   10.6315   25.6836 C   0  0  0  0  0  0  0  0  0  0  0  0
    8.4171   10.4900   24.6955 C   0  0  0  0  0  0  0  0  0  0  0  0
    8.7203   11.7228   23.9552 N   0  0  0  0  0  0  0  0  0  0  0  0
    9.9412   11.5291   23.1826 C   0  0  0  0  0  0  0  0  0  0  0  0
    8.8614   12.7821   24.9624 C   0  0  1  0  0  0  0  0  0  0  0  0
    9.6769   14.0309   24.7273 C   0  0  0  0  0  0  0  0  0  0  0  0
    9.6283   14.5131   23.4045 N   0  0  0  0  0  0  0  0  0  0  0  0
   10.7017   15.1730   22.5533 C   0  0  0  0  0  0  0  0  0  0  0  0
   11.8230   15.3601   22.7714 O   0  0  0  0  0  0  0  0  0  0  0  0
   10.0713   15.4773   21.2714 C   0  0  0  0  0  0  0  0  0  0  0  0
   10.6515   15.1200   20.1333 C   0  0  0  0  0  0  0  0  0  0  0  0
   12.1131   14.3348   19.9416 Cl  0  0  0  0  0  0  0  0  0  0  0  0
   10.0299   15.7549   18.9674 C   0  0  0  0  0  0  0  0  0  0  0  0
    9.2565   16.8788   19.6413 C   0  0  0  0  0  0  0  0  0  0  0  0
    8.9045   16.3641   21.0249 C   0  0  0  0  0  0  0  0  0  0  0  0
    7.4579   13.1266   25.4443 C   0  0  0  0  0  0  0  0  0  0  0  0
  2  1  1  6
  2  3  1  0
  3  4  1  0
  4  5  1  0
  5  6  1  0
  5  7  1  0
  7  8  1  6
  8  9  1  0
  9 10  1  0
 10 11  2  0
 10 12  1  0
 12 13  2  0
 13 14  1  0
 13 15  1  0
 15 16  1  0
 16 17  1  0
  7 18  1  0
 18  2  1  0
 17 12  1  0
M  END
>  <energy_score>  (4972) 
-7.713296

>  <inchikey>  (4972) 
BRXJJHOFUMHIEB-UHFFFAOYSA-N

>  <smiles>  (4972) 
CC1CCN(C)C(CNC(=O)C2=C(Cl)CCC2)C1

>  <ref_pdb>  (4972) 
A3436a

>  <alias>  (4972) 
BRXJJHOFUMHIEB-UHFFFAOYSA-N-P303-P183-P303-601516

>  <HIPPO Pose ID>  (4972) 
527598

>  <name>  (4972) 
BRXJJHOFUMHIEB-UHFFFAOYSA-N-P303-P183-P303-601516

>  <HIPPO Compound ID>  (4972) 
293277

>  <ref_mols>  (4972) 
A4320a,A3436a

>  <distance_score>  (4972) 
1.894415

>  <inspiration_score>  (4972) 
None

$$$$
YWIWCCMNRZHOHK-UHFFFAOYSA-N-P183-P183-P303-601516
     RDKit          3D

 18 19  0  0  0  0  0  0  0  0999 V2000
    9.5826    9.4498   23.0290 C   0  0  0  0  0  0  0  0  0  0  0  0
    9.4298   10.9308   23.3914 C   0  0  0  0  0  0  0  0  0  0  0  0
    8.2022   11.2656   24.1371 N   0  0  0  0  0  0  0  0  0  0  0  0
    8.0072   10.3776   25.2610 C   0  0  0  0  0  0  0  0  0  0  0  0
    6.7331   10.6062   26.0356 C   0  0  0  0  0  0  0  0  0  0  0  0
    6.5968   12.0336   26.5024 C   0  0  0  0  0  0  0  0  0  0  0  0
    6.8975   13.0469   25.4220 C   0  0  0  0  0  0  0  0  0  0  0  0
    8.0710   12.7003   24.4918 C   0  0  1  0  0  0  0  0  0  0  0  0
    9.3414   13.4374   24.9890 C   0  0  0  0  0  0  0  0  0  0  0  0
    9.9759   13.9872   23.8434 N   0  0  0  0  0  0  0  0  0  0  0  0
   11.4245   13.8927   23.3695 C   0  0  0  0  0  0  0  0  0  0  0  0
   12.3536   13.4147   23.8772 O   0  0  0  0  0  0  0  0  0  0  0  0
   11.3470   14.4854   22.0241 C   0  0  0  0  0  0  0  0  0  0  0  0
   10.3943   14.2616   21.1051 C   0  0  0  0  0  0  0  0  0  0  0  0
   10.9149   15.2823   20.1269 C   0  0  0  0  0  0  0  0  0  0  0  0
    9.8131   16.2976   19.8259 C   0  0  0  0  0  0  0  0  0  0  0  0
   11.4831   14.6993   18.8381 C   0  0  0  0  0  0  0  0  0  0  0  0
   12.0071   15.5548   21.2483 C   0  0  0  0  0  0  0  0  0  0  0  0
  1  2  1  0
  2  3  1  0
  3  4  1  0
  4  5  1  0
  5  6  1  0
  6  7  1  0
  7  8  1  0
  8  9  1  1
  9 10  1  0
 10 11  1  0
 11 12  2  0
 11 13  1  0
 13 14  2  0
 14 15  1  0
 15 16  1  0
 15 17  1  0
 15 18  1  0
  8  3  1  0
 18 13  1  0
M  END
>  <energy_score>  (4973) 
-15.251553

>  <inchikey>  (4973) 
YWIWCCMNRZHOHK-UHFFFAOYSA-N

>  <smiles>  (4973) 
CCN1CCCCC1CNC(=O)C1=CC(C)(C)C1

>  <ref_pdb>  (4973) 
A3436a

>  <alias>  (4973) 
YWIWCCMNRZHOHK-UHFFFAOYSA-N-P183-P183-P303-601516

>  <HIPPO Pose ID>  (4973) 
527607

>  <name>  (4973) 
YWIWCCMNRZHOHK-UHFFFAOYSA-N-P183-P183-P303-601516

>  <HIPPO Compound ID>  (4973) 
293284

>  <ref_mols>  (4973) 
A4320a,A3436a

>  <distance_score>  (4973) 
1.951177

>  <inspiration_score>  (4973) 
None

$$$$
RNMXMMSXLLJTPS-UHFFFAOYSA-N-P183-P183-P303-601516
     RDKit          3D

 18 19  0  0  0  0  0  0  0  0999 V2000
    6.4495   11.5178   27.0492 C   0  0  0  0  0  0  0  0  0  0  0  0
    6.8377   11.2092   25.5984 C   0  0  2  0  0  0  0  0  0  0  0  0
    7.6708    9.9533   25.3651 C   0  0  0  0  0  0  0  0  0  0  0  0
    8.7098    9.9801   24.2306 C   0  0  0  0  0  0  0  0  0  0  0  0
    9.5181   11.1980   24.1963 N   0  0  0  0  0  0  0  0  0  0  0  0
    9.9045   11.5657   22.8620 C   0  0  0  0  0  0  0  0  0  0  0  0
    8.9780   12.2839   25.0101 C   0  0  1  0  0  0  0  0  0  0  0  0
    9.7490   13.6106   25.1337 C   0  0  0  0  0  0  0  0  0  0  0  0
    9.8474   14.2452   23.8823 N   0  0  0  0  0  0  0  0  0  0  0  0
    8.7690   14.7096   22.9265 C   0  0  0  0  0  0  0  0  0  0  0  0
    7.6169   14.7182   23.0405 O   0  0  0  0  0  0  0  0  0  0  0  0
    9.4981   15.0763   21.7256 C   0  0  0  0  0  0  0  0  0  0  0  0
    9.0781   14.7635   20.5002 C   0  0  0  0  0  0  0  0  0  0  0  0
   10.1733   15.5852   19.8516 C   0  0  0  0  0  0  0  0  0  0  0  0
    9.5627   16.9201   19.4586 C   0  0  0  0  0  0  0  0  0  0  0  0
   11.0182   14.9148   18.7771 C   0  0  0  0  0  0  0  0  0  0  0  0
   10.8573   15.4920   21.2587 C   0  0  0  0  0  0  0  0  0  0  0  0
    7.4644   12.4223   24.9186 C   0  0  0  0  0  0  0  0  0  0  0  0
  2  1  1  1
  2  3  1  0
  3  4  1  0
  4  5  1  0
  5  6  1  0
  5  7  1  0
  7  8  1  6
  8  9  1  0
  9 10  1  0
 10 11  2  0
 10 12  1  0
 12 13  2  0
 13 14  1  0
 14 15  1  0
 14 16  1  0
 14 17  1  0
  7 18  1  0
 18  2  1  0
 17 12  1  0
M  END
>  <energy_score>  (4974) 
-6.276791

>  <inchikey>  (4974) 
RNMXMMSXLLJTPS-UHFFFAOYSA-N

>  <smiles>  (4974) 
CC1CCN(C)C(CNC(=O)C2=CC(C)(C)C2)C1

>  <ref_pdb>  (4974) 
A3436a

>  <alias>  (4974) 
RNMXMMSXLLJTPS-UHFFFAOYSA-N-P183-P183-P303-601516

>  <HIPPO Pose ID>  (4974) 
527609

>  <name>  (4974) 
RNMXMMSXLLJTPS-UHFFFAOYSA-N-P183-P183-P303-601516

>  <HIPPO Compound ID>  (4974) 
293286

>  <ref_mols>  (4974) 
A4320a,A3436a

>  <distance_score>  (4974) 
1.889181

>  <inspiration_score>  (4974) 
None

$$$$
CYYWVPKUEORMRM-UHFFFAOYSA-N-P183-P183-P303-601516
     RDKit          3D

 18 19  0  0  0  0  0  0  0  0999 V2000
    9.5038   11.2474   23.2643 C   0  0  0  0  0  0  0  0  0  0  0  0
    8.2630   11.4320   24.0180 N   0  0  0  0  0  0  0  0  0  0  0  0
    8.1537   10.3860   25.0128 C   0  0  0  0  0  0  0  0  0  0  0  0
    6.8837   10.4419   25.8201 C   0  0  0  0  0  0  0  0  0  0  0  0
    6.6369   11.7981   26.4338 C   0  0  2  0  0  0  0  0  0  0  0  0
    5.2949   11.8563   26.9219 O   0  0  0  0  0  0  0  0  0  0  0  0
    6.8851   12.9673   25.5133 C   0  0  0  0  0  0  0  0  0  0  0  0
    8.0468   12.7964   24.5389 C   0  0  1  0  0  0  0  0  0  0  0  0
    9.2860   13.5988   25.0165 C   0  0  0  0  0  0  0  0  0  0  0  0
    9.8238   14.1605   23.8278 N   0  0  0  0  0  0  0  0  0  0  0  0
   11.2476   14.1591   23.2879 C   0  0  0  0  0  0  0  0  0  0  0  0
   12.2317   13.7659   23.7609 O   0  0  0  0  0  0  0  0  0  0  0  0
   11.0252   14.7101   21.9421 C   0  0  0  0  0  0  0  0  0  0  0  0
   11.7537   15.4826   21.1399 C   0  0  0  0  0  0  0  0  0  0  0  0
   10.7510   15.3573   19.9705 C   0  0  0  0  0  0  0  0  0  0  0  0
    9.8300   16.5088   19.5865 C   0  0  0  0  0  0  0  0  0  0  0  0
   11.3733   14.6854   18.7574 C   0  0  0  0  0  0  0  0  0  0  0  0
    9.9229   14.5058   20.9427 C   0  0  0  0  0  0  0  0  0  0  0  0
  1  2  1  0
  2  3  1  0
  3  4  1  0
  4  5  1  0
  5  6  1  6
  5  7  1  0
  7  8  1  0
  8  9  1  1
  9 10  1  0
 10 11  1  0
 11 12  2  0
 11 13  1  0
 13 14  2  0
 14 15  1  0
 15 16  1  0
 15 17  1  0
 15 18  1  0
  8  2  1  0
 18 13  1  0
M  END
>  <energy_score>  (4975) 
-6.646666

>  <inchikey>  (4975) 
CYYWVPKUEORMRM-UHFFFAOYSA-N

>  <smiles>  (4975) 
CN1CCC(O)CC1CNC(=O)C1=CC(C)(C)C1

>  <ref_pdb>  (4975) 
A3436a

>  <alias>  (4975) 
CYYWVPKUEORMRM-UHFFFAOYSA-N-P183-P183-P303-601516

>  <HIPPO Pose ID>  (4975) 
527617

>  <name>  (4975) 
CYYWVPKUEORMRM-UHFFFAOYSA-N-P183-P183-P303-601516

>  <HIPPO Compound ID>  (4975) 
293292

>  <ref_mols>  (4975) 
A4320a,A3436a

>  <distance_score>  (4975) 
1.816586

>  <inspiration_score>  (4975) 
None

$$$$
WWJHQCHORMQQGD-UHFFFAOYSA-N-P183-P183-P303-601516
     RDKit          3D

 18 19  0  0  0  0  0  0  0  0999 V2000
    9.2386   15.7663   19.0941 C   0  0  0  0  0  0  0  0  0  0  0  0
   10.6897   15.6981   19.3969 C   0  0  1  0  0  0  0  0  0  0  0  0
   10.8632   15.8870   20.8890 C   0  0  0  0  0  0  0  0  0  0  0  0
   11.2298   14.6099   21.0629 C   0  0  0  0  0  0  0  0  0  0  0  0
   11.5525   13.9666   22.3489 C   0  0  0  0  0  0  0  0  0  0  0  0
   12.5316   13.3790   22.5460 O   0  0  0  0  0  0  0  0  0  0  0  0
   10.3690   14.2578   23.2716 N   0  0  0  0  0  0  0  0  0  0  0  0
   10.0978   13.8123   24.5919 C   0  0  0  0  0  0  0  0  0  0  0  0
    8.9982   12.7445   24.7933 C   0  0  2  0  0  0  0  0  0  0  0  0
    8.7551   11.6521   23.8198 N   0  0  0  0  0  0  0  0  0  0  0  0
    9.9244   11.3110   23.0383 C   0  0  0  0  0  0  0  0  0  0  0  0
    8.3488   10.4468   24.5417 C   0  0  0  0  0  0  0  0  0  0  0  0
    7.2084   10.6763   25.5195 C   0  0  0  0  0  0  0  0  0  0  0  0
    6.8517   12.1163   25.9125 C   0  0  0  0  0  0  0  0  0  0  0  0
    7.6167   13.2897   25.2343 C   0  0  0  0  0  0  0  0  0  0  0  0
    6.8652   13.8980   24.0323 C   0  0  0  0  0  0  0  0  0  0  0  0
    7.6737   14.4431   26.2725 C   0  0  0  0  0  0  0  0  0  0  0  0
   11.4720   14.4043   19.5889 C   0  0  0  0  0  0  0  0  0  0  0  0
  2  1  1  1
  2  3  1  0
  3  4  2  0
  4  5  1  0
  5  6  2  0
  5  7  1  0
  7  8  1  0
  9  8  1  6
  9 10  1  0
 10 11  1  0
 10 12  1  0
 12 13  1  0
 13 14  1  0
 14 15  1  0
 15 16  1  0
 15 17  1  0
  4 18  1  0
 18  2  1  0
 15  9  1  0
M  END
>  <energy_score>  (4976) 
-7.93809

>  <inchikey>  (4976) 
WWJHQCHORMQQGD-UHFFFAOYSA-N

>  <smiles>  (4976) 
CC1C=C(C(=O)NCC2N(C)CCCC2(C)C)C1

>  <ref_pdb>  (4976) 
A3436a

>  <alias>  (4976) 
WWJHQCHORMQQGD-UHFFFAOYSA-N-P183-P183-P303-601516

>  <HIPPO Pose ID>  (4976) 
527661

>  <name>  (4976) 
WWJHQCHORMQQGD-UHFFFAOYSA-N-P183-P183-P303-601516

>  <HIPPO Compound ID>  (4976) 
293339

>  <ref_mols>  (4976) 
A4320a,A3436a

>  <distance_score>  (4976) 
1.848301

>  <inspiration_score>  (4976) 
None

$$$$
PQVZWKNCMRZUIS-UHFFFAOYSA-N-P183-P183-P303-601516
     RDKit          3D

 18 19  0  0  0  0  0  0  0  0999 V2000
    6.0842   15.2938   21.9309 C   0  0  0  0  0  0  0  0  0  0  0  0
    6.6473   14.5094   23.0810 C   0  0  0  0  0  0  0  0  0  0  0  0
    7.7839   13.5567   22.6404 C   0  0  0  0  0  0  0  0  0  0  0  0
    7.9528   12.4173   23.5670 N   0  0  0  0  0  0  0  0  0  0  0  0
    8.8863   11.2824   23.3737 C   0  0  0  0  0  0  0  0  0  0  0  0
    8.5681   10.1093   24.2929 C   0  0  0  0  0  0  0  0  0  0  0  0
    7.5762   10.3965   25.4139 C   0  0  0  0  0  0  0  0  0  0  0  0
    7.3389   11.8457   25.8047 C   0  0  0  0  0  0  0  0  0  0  0  0
    8.0434   12.8877   24.9528 C   0  0  1  0  0  0  0  0  0  0  0  0
    9.4736   13.2743   25.3342 C   0  0  0  0  0  0  0  0  0  0  0  0
   10.2340   13.6902   24.2080 N   0  0  0  0  0  0  0  0  0  0  0  0
   11.2398   14.7741   24.0666 C   0  0  0  0  0  0  0  0  0  0  0  0
   11.6915   15.4778   24.8521 O   0  0  0  0  0  0  0  0  0  0  0  0
   11.4682   14.8075   22.5795 C   0  0  0  0  0  0  0  0  0  0  0  0
   11.7575   15.8229   21.7566 C   0  0  0  0  0  0  0  0  0  0  0  0
   11.3959   15.0674   20.4914 C   0  0  2  0  0  0  0  0  0  0  0  0
   10.1121   15.5232   19.7946 C   0  0  0  0  0  0  0  0  0  0  0  0
   11.3078   13.8559   21.4293 C   0  0  0  0  0  0  0  0  0  0  0  0
  1  2  1  0
  2  3  1  0
  3  4  1  0
  4  5  1  0
  5  6  1  0
  6  7  1  0
  7  8  1  0
  8  9  1  0
  9 10  1  1
 10 11  1  0
 11 12  1  0
 12 13  2  0
 12 14  1  0
 14 15  2  0
 15 16  1  0
 16 17  1  1
 16 18  1  0
  9  4  1  0
 18 14  1  0
M  END
>  <energy_score>  (4977) 
-0.021969

>  <inchikey>  (4977) 
PQVZWKNCMRZUIS-UHFFFAOYSA-N

>  <smiles>  (4977) 
CCCN1CCCCC1CNC(=O)C1=CC(C)C1

>  <ref_pdb>  (4977) 
A3436a

>  <alias>  (4977) 
PQVZWKNCMRZUIS-UHFFFAOYSA-N-P183-P183-P303-601516

>  <HIPPO Pose ID>  (4977) 
527669

>  <name>  (4977) 
PQVZWKNCMRZUIS-UHFFFAOYSA-N-P183-P183-P303-601516

>  <HIPPO Compound ID>  (4977) 
293343

>  <ref_mols>  (4977) 
A4320a,A3436a

>  <distance_score>  (4977) 
1.968392

>  <inspiration_score>  (4977) 
None

$$$$
PQVZWKNCMRZUIS-UHFFFAOYSA-N-P303-P183-P303-601516
     RDKit          3D

 18 19  0  0  0  0  0  0  0  0999 V2000
    5.4549   14.5594   22.6352 C   0  0  0  0  0  0  0  0  0  0  0  0
    6.9272   14.9023   22.5277 C   0  0  0  0  0  0  0  0  0  0  0  0
    7.8733   13.6907   22.4356 C   0  0  0  0  0  0  0  0  0  0  0  0
    7.9681   12.7675   23.5707 N   0  0  0  0  0  0  0  0  0  0  0  0
    8.9666   11.6846   23.4958 C   0  0  0  0  0  0  0  0  0  0  0  0
    8.6425   10.5906   24.4948 C   0  0  0  0  0  0  0  0  0  0  0  0
    7.6511   10.9685   25.5867 C   0  0  0  0  0  0  0  0  0  0  0  0
    7.4606   12.4565   25.8816 C   0  0  0  0  0  0  0  0  0  0  0  0
    8.1050   13.4241   24.8868 C   0  0  1  0  0  0  0  0  0  0  0  0
    9.5350   13.9366   25.2930 C   0  0  0  0  0  0  0  0  0  0  0  0
   10.2537   14.3552   24.1178 N   0  0  0  0  0  0  0  0  0  0  0  0
   11.6818   14.0481   23.6635 C   0  0  0  0  0  0  0  0  0  0  0  0
   12.5361   13.4711   24.2009 O   0  0  0  0  0  0  0  0  0  0  0  0
   11.7223   14.5825   22.2791 C   0  0  0  0  0  0  0  0  0  0  0  0
   11.6195   15.7888   21.7084 C   0  0  0  0  0  0  0  0  0  0  0  0
   11.2735   15.2273   20.3347 C   0  0  2  0  0  0  0  0  0  0  0  0
    9.9299   15.6393   19.7474 C   0  0  0  0  0  0  0  0  0  0  0  0
   11.3863   13.8768   21.0127 C   0  0  0  0  0  0  0  0  0  0  0  0
  1  2  1  0
  2  3  1  0
  3  4  1  0
  4  5  1  0
  5  6  1  0
  6  7  1  0
  7  8  1  0
  8  9  1  0
  9 10  1  1
 10 11  1  0
 11 12  1  0
 12 13  2  0
 12 14  1  0
 14 15  2  0
 15 16  1  0
 16 17  1  1
 16 18  1  0
  9  4  1  0
 18 14  1  0
M  END
>  <energy_score>  (4978) 
-7.829152

>  <inchikey>  (4978) 
PQVZWKNCMRZUIS-UHFFFAOYSA-N

>  <smiles>  (4978) 
CCCN1CCCCC1CNC(=O)C1=CC(C)C1

>  <ref_pdb>  (4978) 
A3436a

>  <alias>  (4978) 
PQVZWKNCMRZUIS-UHFFFAOYSA-N-P303-P183-P303-601516

>  <HIPPO Pose ID>  (4978) 
527670

>  <name>  (4978) 
PQVZWKNCMRZUIS-UHFFFAOYSA-N-P303-P183-P303-601516

>  <HIPPO Compound ID>  (4978) 
293343

>  <ref_mols>  (4978) 
A4320a,A3436a

>  <distance_score>  (4978) 
1.99562

>  <inspiration_score>  (4978) 
None

$$$$
CRHWWOKWNWURGP-UHFFFAOYSA-N-P183-P183-P303-601516
     RDKit          3D

 18 19  0  0  0  0  0  0  0  0999 V2000
    9.4959   16.2330   19.8088 C   0  0  0  0  0  0  0  0  0  0  0  0
   10.8599   15.6198   20.0136 C   0  0  1  0  0  0  0  0  0  0  0  0
   11.5193   15.8401   21.3732 C   0  0  0  0  0  0  0  0  0  0  0  0
   11.4355   14.5519   21.7077 C   0  0  0  0  0  0  0  0  0  0  0  0
   11.5968   13.9306   23.0337 C   0  0  0  0  0  0  0  0  0  0  0  0
   12.5055   13.3055   23.3985 O   0  0  0  0  0  0  0  0  0  0  0  0
   10.2618   14.2331   23.7180 N   0  0  0  0  0  0  0  0  0  0  0  0
    9.7203   13.7550   24.9557 C   0  0  0  0  0  0  0  0  0  0  0  0
    8.3624   13.0653   24.7022 C   0  0  2  0  0  0  0  0  0  0  0  0
    7.2058   13.9585   25.1725 C   0  0  0  0  0  0  0  0  0  0  0  0
    6.9622   13.8531   26.6602 C   0  0  0  0  0  0  0  0  0  0  0  0
    6.6789   12.4122   27.0451 C   0  0  0  0  0  0  0  0  0  0  0  0
    7.1411   11.3800   26.0037 C   0  0  0  0  0  0  0  0  0  0  0  0
    8.3838   11.6766   25.2565 N   0  0  0  0  0  0  0  0  0  0  0  0
    8.5506   10.7296   24.1190 C   0  0  0  0  0  0  0  0  0  0  0  0
    9.7464   10.9545   23.2123 C   0  0  0  0  0  0  0  0  0  0  0  0
    8.5140    9.2415   24.3694 C   0  0  0  0  0  0  0  0  0  0  0  0
   10.9247   14.1625   20.3658 C   0  0  0  0  0  0  0  0  0  0  0  0
  2  1  1  1
  2  3  1  0
  3  4  2  0
  4  5  1  0
  5  6  2  0
  5  7  1  0
  7  8  1  0
  9  8  1  1
  9 10  1  0
 10 11  1  0
 11 12  1  0
 12 13  1  0
 13 14  1  0
 14 15  1  0
 15 16  1  0
 15 17  1  0
  4 18  1  0
 18  2  1  0
 14  9  1  0
M  END
>  <energy_score>  (4979) 
-6.237601

>  <inchikey>  (4979) 
CRHWWOKWNWURGP-UHFFFAOYSA-N

>  <smiles>  (4979) 
CC1C=C(C(=O)NCC2CCCCN2C(C)C)C1

>  <ref_pdb>  (4979) 
A3436a

>  <alias>  (4979) 
CRHWWOKWNWURGP-UHFFFAOYSA-N-P183-P183-P303-601516

>  <HIPPO Pose ID>  (4979) 
527675

>  <name>  (4979) 
CRHWWOKWNWURGP-UHFFFAOYSA-N-P183-P183-P303-601516

>  <HIPPO Compound ID>  (4979) 
293347

>  <ref_mols>  (4979) 
A4320a,A3436a

>  <distance_score>  (4979) 
1.913551

>  <inspiration_score>  (4979) 
None

$$$$
WABYLDYSNJGREF-UHFFFAOYSA-N-P303-P183-P303-601516
     RDKit          3D

 18 18  0  0  0  0  0  0  0  0999 V2000
   10.7617   14.3834   22.5770 C   0  0  0  0  0  0  0  0  0  0  0  0
    9.2675   14.1198   22.4614 C   0  0  0  0  0  0  0  0  0  0  0  0
    8.6368   14.0385   23.8086 C   0  0  0  0  0  0  0  0  0  0  0  0
    8.3767   13.0384   24.6697 C   0  0  0  0  0  0  0  0  0  0  0  0
    8.5729   11.5549   24.5538 C   0  0  0  0  0  0  0  0  0  0  0  0
    9.6350   11.0382   23.6014 C   0  0  0  0  0  0  0  0  0  0  0  0
    9.6959    9.5260   23.6054 C   0  0  0  0  0  0  0  0  0  0  0  0
    8.0132   13.5867   26.0396 C   0  0  0  0  0  0  0  0  0  0  0  0
    8.5328   14.5471   26.4471 O   0  0  0  0  0  0  0  0  0  0  0  0
    7.0107   12.6347   26.7116 N   0  0  0  0  0  0  0  0  0  0  0  0
    6.5088   12.6076   28.0526 C   0  0  0  0  0  0  0  0  0  0  0  0
    5.1053   13.1935   28.1531 C   0  0  1  0  0  0  0  0  0  0  0  0
    4.8861   14.3825   27.2131 C   0  0  0  0  0  0  0  0  0  0  0  0
    3.4744   14.9072   27.4016 C   0  0  0  0  0  0  0  0  0  0  0  0
    2.4570   13.8082   27.1358 C   0  0  0  0  0  0  0  0  0  0  0  0
    2.7831   12.5050   27.8320 C   0  0  0  0  0  0  0  0  0  0  0  0
    1.9328   11.6939   28.1861 O   0  0  0  0  0  0  0  0  0  0  0  0
    4.1013   12.1665   27.9453 N   0  0  0  0  0  0  0  0  0  0  0  0
  1  2  1  0
  2  3  1  0
  3  4  2  3
  4  5  1  0
  5  6  1  0
  6  7  1  0
  4  8  1  0
  8  9  2  0
  8 10  1  0
 10 11  1  0
 12 11  1  6
 12 13  1  0
 13 14  1  0
 14 15  1  0
 15 16  1  0
 16 17  2  0
 16 18  1  0
 18 12  1  0
M  END
>  <energy_score>  (4980) 
-0.679956

>  <inchikey>  (4980) 
WABYLDYSNJGREF-UHFFFAOYSA-N

>  <smiles>  (4980) 
CCC=C(CCC)C(=O)NCC1CCCC(=O)N1

>  <ref_pdb>  (4980) 
A3436a

>  <alias>  (4980) 
WABYLDYSNJGREF-UHFFFAOYSA-N-P303-P183-P303-601516

>  <HIPPO Pose ID>  (4980) 
527678

>  <name>  (4980) 
WABYLDYSNJGREF-UHFFFAOYSA-N-P303-P183-P303-601516

>  <HIPPO Compound ID>  (4980) 
293348

>  <ref_mols>  (4980) 
A4320a,A3436a

>  <distance_score>  (4980) 
1.512697

>  <inspiration_score>  (4980) 
None

$$$$
WGPRVIAOCSIDMR-UHFFFAOYSA-N-P183-P183-P303-601516
     RDKit          3D

 18 19  0  0  0  0  0  0  0  0999 V2000
   10.7445   15.2162   18.9193 C   0  0  0  0  0  0  0  0  0  0  0  0
   10.6520   15.3398   20.4387 C   0  0  2  0  0  0  0  0  0  0  0  0
   11.7580   14.5185   21.0825 C   0  0  0  0  0  0  0  0  0  0  0  0
   11.4093   13.9555   22.4461 C   0  0  0  0  0  0  0  0  0  0  0  0
   10.0428   13.4043   22.4779 N   0  0  0  0  0  0  0  0  0  0  0  0
    9.8732   12.5742   23.6543 C   0  0  0  0  0  0  0  0  0  0  0  0
    9.0829   14.5103   22.3247 C   0  0  2  0  0  0  0  0  0  0  0  0
    7.5530   14.2930   22.4844 C   0  0  0  0  0  0  0  0  0  0  0  0
    7.0707   13.8168   23.7458 N   0  0  0  0  0  0  0  0  0  0  0  0
    7.5393   14.1267   25.1735 C   0  0  0  0  0  0  0  0  0  0  0  0
    8.3410   14.8763   25.5582 O   0  0  0  0  0  0  0  0  0  0  0  0
    6.7556   13.2404   26.0612 C   0  0  0  0  0  0  0  0  0  0  0  0
    5.8585   13.8469   26.8488 C   0  0  0  0  0  0  0  0  0  0  0  0
    5.0053   13.0880   27.8087 C   0  0  0  0  0  0  0  0  0  0  0  0
    5.5525   11.6896   28.0965 C   0  0  0  0  0  0  0  0  0  0  0  0
    5.9547   10.9758   26.8126 C   0  0  0  0  0  0  0  0  0  0  0  0
    6.9831   11.7593   26.0008 C   0  0  0  0  0  0  0  0  0  0  0  0
    9.2346   15.0486   20.8969 C   0  0  0  0  0  0  0  0  0  0  0  0
  2  1  1  6
  2  3  1  0
  3  4  1  0
  4  5  1  0
  5  6  1  0
  5  7  1  0
  7  8  1  6
  8  9  1  0
  9 10  1  0
 10 11  2  0
 10 12  1  0
 12 13  2  0
 13 14  1  0
 14 15  1  0
 15 16  1  0
 16 17  1  0
  7 18  1  0
 18  2  1  0
 17 12  1  0
M  END
>  <energy_score>  (4981) 
-17.802903

>  <inchikey>  (4981) 
WGPRVIAOCSIDMR-UHFFFAOYSA-N

>  <smiles>  (4981) 
CC1CCN(C)C(CNC(=O)C2=CCCCC2)C1

>  <ref_pdb>  (4981) 
A3436a

>  <alias>  (4981) 
WGPRVIAOCSIDMR-UHFFFAOYSA-N-P183-P183-P303-601516

>  <HIPPO Pose ID>  (4981) 
527681

>  <name>  (4981) 
WGPRVIAOCSIDMR-UHFFFAOYSA-N-P183-P183-P303-601516

>  <HIPPO Compound ID>  (4981) 
293352

>  <ref_mols>  (4981) 
A4320a,A3436a

>  <distance_score>  (4981) 
1.992816

>  <inspiration_score>  (4981) 
None

$$$$
WGPRVIAOCSIDMR-UHFFFAOYSA-N-P303-P183-P303-601516
     RDKit          3D

 18 19  0  0  0  0  0  0  0  0999 V2000
   10.7080   15.0846   18.8362 C   0  0  0  0  0  0  0  0  0  0  0  0
   10.6485   15.2540   20.3511 C   0  0  2  0  0  0  0  0  0  0  0  0
   11.8380   14.5862   21.0109 C   0  0  0  0  0  0  0  0  0  0  0  0
   11.6180   14.2932   22.4856 C   0  0  0  0  0  0  0  0  0  0  0  0
   10.3413   13.5984   22.7364 N   0  0  0  0  0  0  0  0  0  0  0  0
   10.3227   13.1011   24.0990 C   0  0  0  0  0  0  0  0  0  0  0  0
    9.2346   14.5048   22.3742 C   0  0  2  0  0  0  0  0  0  0  0  0
    7.7344   14.1503   22.5725 C   0  0  0  0  0  0  0  0  0  0  0  0
    7.2627   13.6605   23.8279 N   0  0  0  0  0  0  0  0  0  0  0  0
    7.5410   14.1456   25.2536 C   0  0  0  0  0  0  0  0  0  0  0  0
    8.2589   14.9734   25.6416 O   0  0  0  0  0  0  0  0  0  0  0  0
    6.7266   13.2898   26.1439 C   0  0  0  0  0  0  0  0  0  0  0  0
    5.8016   13.9247   26.8748 C   0  0  0  0  0  0  0  0  0  0  0  0
    4.9528   13.2085   27.8699 C   0  0  0  0  0  0  0  0  0  0  0  0
    5.5528   11.8628   28.2763 C   0  0  0  0  0  0  0  0  0  0  0  0
    5.9869   11.0625   27.0572 C   0  0  0  0  0  0  0  0  0  0  0  0
    6.9889   11.8130   26.1839 C   0  0  0  0  0  0  0  0  0  0  0  0
    9.3346   14.7241   20.8635 C   0  0  0  0  0  0  0  0  0  0  0  0
  2  1  1  6
  2  3  1  0
  3  4  1  0
  4  5  1  0
  5  6  1  0
  5  7  1  0
  7  8  1  6
  8  9  1  0
  9 10  1  0
 10 11  2  0
 10 12  1  0
 12 13  2  0
 13 14  1  0
 14 15  1  0
 15 16  1  0
 16 17  1  0
  7 18  1  0
 18  2  1  0
 17 12  1  0
M  END
>  <energy_score>  (4982) 
-18.74492

>  <inchikey>  (4982) 
WGPRVIAOCSIDMR-UHFFFAOYSA-N

>  <smiles>  (4982) 
CC1CCN(C)C(CNC(=O)C2=CCCCC2)C1

>  <ref_pdb>  (4982) 
A3436a

>  <alias>  (4982) 
WGPRVIAOCSIDMR-UHFFFAOYSA-N-P303-P183-P303-601516

>  <HIPPO Pose ID>  (4982) 
527682

>  <name>  (4982) 
WGPRVIAOCSIDMR-UHFFFAOYSA-N-P303-P183-P303-601516

>  <HIPPO Compound ID>  (4982) 
293352

>  <ref_mols>  (4982) 
A4320a,A3436a

>  <distance_score>  (4982) 
1.977073

>  <inspiration_score>  (4982) 
None

$$$$
JSFQZWAUQWSKHT-UHFFFAOYSA-N-P115-P8-P115-601518
     RDKit          3D

 24 26  0  0  0  0  0  0  0  0999 V2000
    0.6248   14.3769   21.7652 C   0  0  0  0  0  0  0  0  0  0  0  0
    0.5709   14.2363   20.3096 C   0  0  0  0  0  0  0  0  0  0  0  0
   -0.5111   14.7415   19.6213 N   0  0  0  0  0  0  0  0  0  0  0  0
   -0.3256   14.3023   18.4090 C   0  0  0  0  0  0  0  0  0  0  0  0
   -1.2953   14.2930   16.9636 S   0  0  0  0  0  0  0  0  0  0  0  0
   -0.1084   13.2116   16.2342 C   0  0  0  0  0  0  0  0  0  0  0  0
    0.9247   12.9264   17.0501 C   0  0  0  0  0  0  0  0  0  0  0  0
    0.8018   13.5405   18.2765 N   0  0  0  0  0  0  0  0  0  0  0  0
    1.4593   13.5431   19.4950 C   0  0  0  0  0  0  0  0  0  0  0  0
    2.6570   12.7302   19.8716 C   0  0  0  0  0  0  0  0  0  0  0  0
    3.7849   13.4512   20.4610 N   0  0  0  0  0  0  0  0  0  0  0  0
    4.0486   13.8948   21.9494 C   0  0  0  0  0  0  0  0  0  0  0  0
    3.3635   13.8132   22.8987 O   0  0  0  0  0  0  0  0  0  0  0  0
    5.5264   14.4490   22.0344 C   0  0  0  0  0  0  0  0  0  0  0  0
    6.4821   14.1788   23.2696 C   0  0  1  0  0  0  0  0  0  0  0  0
    5.8532   14.3792   24.6600 C   0  0  0  0  0  0  0  0  0  0  0  0
    6.1596   13.2844   25.6793 C   0  0  0  0  0  0  0  0  0  0  0  0
    7.6017   12.8544   25.5953 C   0  0  0  0  0  0  0  0  0  0  0  0
    8.0798   12.4898   24.1879 C   0  0  1  0  0  0  0  0  0  0  0  0
    8.3810   10.9603   24.1287 C   0  0  0  0  0  0  0  0  0  0  0  0
    8.8746   10.6032   22.9276 F   0  0  0  0  0  0  0  0  0  0  0  0
    7.3136   10.1917   24.4351 F   0  0  0  0  0  0  0  0  0  0  0  0
    9.3313   10.6149   25.0120 F   0  0  0  0  0  0  0  0  0  0  0  0
    7.2194   12.9399   23.1040 O   0  0  0  0  0  0  0  0  0  0  0  0
  1  2  1  0
  2  3  1  0
  3  4  2  0
  4  5  1  0
  5  6  1  0
  6  7  2  0
  7  8  1  0
  8  9  1  0
  9 10  1  0
 10 11  1  0
 11 12  1  0
 12 13  2  0
 12 14  1  0
 15 14  1  6
 15 16  1  0
 16 17  1  0
 17 18  1  0
 18 19  1  0
 19 20  1  1
 20 21  1  0
 20 22  1  0
 20 23  1  0
 19 24  1  0
  9  2  2  0
 24 15  1  0
  8  4  1  0
M  END
>  <energy_score>  (4983) 
-4.477968

>  <inchikey>  (4983) 
JSFQZWAUQWSKHT-UHFFFAOYSA-N

>  <smiles>  (4983) 
Cc1nc2sccn2c1CNC(=O)CC1CCCC(C(F)(F)F)O1

>  <ref_pdb>  (4983) 
A0309a

>  <alias>  (4983) 
JSFQZWAUQWSKHT-UHFFFAOYSA-N-P115-P8-P115-601518

>  <HIPPO Pose ID>  (4983) 
533056

>  <name>  (4983) 
JSFQZWAUQWSKHT-UHFFFAOYSA-N-P115-P8-P115-601518

>  <HIPPO Compound ID>  (4983) 
307659

>  <ref_mols>  (4983) 
A0473a,A1209a

>  <distance_score>  (4983) 
1.917967

>  <inspiration_score>  (4983) 
None

$$$$
XTFWGFBMMJSIAC-UHFFFAOYSA-N-P8-P8-P115-601518
     RDKit          3D

 24 26  0  0  0  0  0  0  0  0999 V2000
    3.4861   15.2861   23.8033 O   0  0  0  0  0  0  0  0  0  0  0  0
    3.8304   14.6835   22.8624 C   0  0  0  0  0  0  0  0  0  0  0  0
    5.3295   14.3936   22.6184 C   0  0  0  0  0  0  0  0  0  0  0  0
    6.1963   14.0739   23.8855 C   0  0  1  0  0  0  0  0  0  0  0  0
    5.4310   13.9402   25.2162 C   0  0  0  0  0  0  0  0  0  0  0  0
    6.3049   13.4580   26.3570 C   0  0  0  0  0  0  0  0  0  0  0  0
    7.0410   12.2145   25.9558 C   0  0  0  0  0  0  0  0  0  0  0  0
    7.8442   12.4400   24.6719 C   0  0  1  0  0  0  0  0  0  0  0  0
    8.6068   11.1261   24.4189 C   0  0  0  0  0  0  0  0  0  0  0  0
    9.7120   11.2052   25.1758 F   0  0  0  0  0  0  0  0  0  0  0  0
    7.9398   10.0354   24.8543 F   0  0  0  0  0  0  0  0  0  0  0  0
    9.0180   10.8952   23.1676 F   0  0  0  0  0  0  0  0  0  0  0  0
    7.0456   12.9250   23.5839 O   0  0  0  0  0  0  0  0  0  0  0  0
    2.9988   14.0791   21.6923 N   0  0  0  0  0  0  0  0  0  0  0  0
    1.5726   14.0130   21.4952 C   0  0  0  0  0  0  0  0  0  0  0  0
    1.0718   13.8276   20.0979 C   0  0  0  0  0  0  0  0  0  0  0  0
    0.7105   12.6459   19.4801 C   0  0  0  0  0  0  0  0  0  0  0  0
    0.0107   13.0115   18.3635 N   0  0  0  0  0  0  0  0  0  0  0  0
    0.0057   14.3778   18.2819 C   0  0  0  0  0  0  0  0  0  0  0  0
    0.6534   14.8973   19.3149 N   0  0  0  0  0  0  0  0  0  0  0  0
   -0.6804   15.0634   17.1374 C   0  0  0  0  0  0  0  0  0  0  0  0
   -1.7180   14.2167   16.5919 O   0  0  0  0  0  0  0  0  0  0  0  0
   -1.1974   12.9314   16.2373 C   0  0  0  0  0  0  0  0  0  0  0  0
   -0.8072   12.1823   17.5001 C   0  0  0  0  0  0  0  0  0  0  0  0
  1  2  2  0
  2  3  1  0
  4  3  1  6
  4  5  1  0
  5  6  1  0
  6  7  1  0
  7  8  1  0
  8  9  1  6
  9 10  1  0
  9 11  1  0
  9 12  1  0
  8 13  1  0
  2 14  1  0
 14 15  1  0
 15 16  1  0
 16 17  2  0
 17 18  1  0
 18 19  1  0
 19 20  2  0
 19 21  1  0
 21 22  1  0
 22 23  1  0
 23 24  1  0
 13  4  1  0
 20 16  1  0
 24 18  1  0
M  END
>  <energy_score>  (4984) 
-28.698282

>  <inchikey>  (4984) 
XTFWGFBMMJSIAC-UHFFFAOYSA-N

>  <smiles>  (4984) 
O=C(CC1CCCC(C(F)(F)F)O1)NCc1cn2c(n1)COCC2

>  <ref_pdb>  (4984) 
A0309a

>  <alias>  (4984) 
XTFWGFBMMJSIAC-UHFFFAOYSA-N-P8-P8-P115-601518

>  <HIPPO Pose ID>  (4984) 
533063

>  <name>  (4984) 
XTFWGFBMMJSIAC-UHFFFAOYSA-N-P8-P8-P115-601518

>  <HIPPO Compound ID>  (4984) 
307663

>  <ref_mols>  (4984) 
A0473a,A1209a

>  <distance_score>  (4984) 
1.790069

>  <inspiration_score>  (4984) 
None

$$$$
GBZFDPQUJWRCOD-UHFFFAOYSA-N-P8-P8-P115-601518
     RDKit          3D

 24 26  0  0  0  0  0  0  0  0999 V2000
    2.9424   14.4325   23.7376 O   0  0  0  0  0  0  0  0  0  0  0  0
    3.5565   14.2551   22.7570 C   0  0  0  0  0  0  0  0  0  0  0  0
    5.0955   14.5064   22.6960 C   0  0  0  0  0  0  0  0  0  0  0  0
    5.9909   14.1315   23.9330 C   0  0  1  0  0  0  0  0  0  0  0  0
    5.2557   13.7645   25.2402 C   0  0  0  0  0  0  0  0  0  0  0  0
    6.0443   12.8465   26.1637 C   0  0  0  0  0  0  0  0  0  0  0  0
    7.5193   13.0914   25.9777 C   0  0  0  0  0  0  0  0  0  0  0  0
    7.9614   12.7688   24.5425 C   0  0  1  0  0  0  0  0  0  0  0  0
    8.4487   11.2982   24.5015 C   0  0  0  0  0  0  0  0  0  0  0  0
    9.5093   11.2089   25.3263 F   0  0  0  0  0  0  0  0  0  0  0  0
    8.8866   10.8601   23.3104 F   0  0  0  0  0  0  0  0  0  0  0  0
    7.5377   10.4261   24.9826 F   0  0  0  0  0  0  0  0  0  0  0  0
    6.9748   13.1194   23.5478 O   0  0  0  0  0  0  0  0  0  0  0  0
    3.1020   13.7204   21.3631 N   0  0  0  0  0  0  0  0  0  0  0  0
    1.8217   13.2074   20.9261 C   0  0  0  0  0  0  0  0  0  0  0  0
    1.1379   14.0040   19.8498 C   0  0  0  0  0  0  0  0  0  0  0  0
    0.9906   15.3798   19.9357 N   0  0  0  0  0  0  0  0  0  0  0  0
    0.2830   15.7306   18.8781 C   0  0  0  0  0  0  0  0  0  0  0  0
   -0.0774   14.6616   18.1078 N   0  0  0  0  0  0  0  0  0  0  0  0
   -0.8463   14.6180   16.9459 C   0  0  0  0  0  0  0  0  0  0  0  0
   -1.1399   13.4337   16.3894 C   0  0  0  0  0  0  0  0  0  0  0  0
   -0.6333   12.2405   17.0330 C   0  0  0  0  0  0  0  0  0  0  0  0
    0.1574   12.2901   18.1280 C   0  0  0  0  0  0  0  0  0  0  0  0
    0.4538   13.5446   18.7288 C   0  0  0  0  0  0  0  0  0  0  0  0
  1  2  2  0
  2  3  1  0
  4  3  1  6
  4  5  1  0
  5  6  1  0
  6  7  1  0
  7  8  1  0
  8  9  1  1
  9 10  1  0
  9 11  1  0
  9 12  1  0
  8 13  1  0
  2 14  1  0
 14 15  1  0
 15 16  1  0
 16 17  1  0
 17 18  2  0
 18 19  1  0
 19 20  1  0
 20 21  2  0
 21 22  1  0
 22 23  2  0
 23 24  1  0
 13  4  1  0
 24 16  2  0
 24 19  1  0
M  END
>  <energy_score>  (4985) 
-24.855981

>  <inchikey>  (4985) 
GBZFDPQUJWRCOD-UHFFFAOYSA-N

>  <smiles>  (4985) 
O=C(CC1CCCC(C(F)(F)F)O1)NCc1ncn2ccccc12

>  <ref_pdb>  (4985) 
A0309a

>  <alias>  (4985) 
GBZFDPQUJWRCOD-UHFFFAOYSA-N-P8-P8-P115-601518

>  <HIPPO Pose ID>  (4985) 
533075

>  <name>  (4985) 
GBZFDPQUJWRCOD-UHFFFAOYSA-N-P8-P8-P115-601518

>  <HIPPO Compound ID>  (4985) 
307669

>  <ref_mols>  (4985) 
A0473a,A1209a

>  <distance_score>  (4985) 
1.953225

>  <inspiration_score>  (4985) 
None

$$$$
GVZMCDYSUKQVHG-UHFFFAOYSA-N-P8-P8-P115-601518
     RDKit          3D

 24 26  0  0  0  0  0  0  0  0999 V2000
    3.5180   15.4414   23.8271 O   0  0  0  0  0  0  0  0  0  0  0  0
    3.8396   14.7698   22.9248 C   0  0  0  0  0  0  0  0  0  0  0  0
    5.3142   14.4341   22.6726 C   0  0  0  0  0  0  0  0  0  0  0  0
    6.1379   14.0858   23.9456 C   0  0  1  0  0  0  0  0  0  0  0  0
    5.3246   13.7091   25.2081 C   0  0  0  0  0  0  0  0  0  0  0  0
    6.0326   12.7239   26.1268 C   0  0  0  0  0  0  0  0  0  0  0  0
    7.5223   12.9421   26.0256 C   0  0  0  0  0  0  0  0  0  0  0  0
    8.0305   12.6795   24.5988 C   0  0  1  0  0  0  0  0  0  0  0  0
    8.5002   11.2144   24.5103 C   0  0  0  0  0  0  0  0  0  0  0  0
    8.9280   10.8048   23.3066 F   0  0  0  0  0  0  0  0  0  0  0  0
    7.5827   10.3410   24.9738 F   0  0  0  0  0  0  0  0  0  0  0  0
    9.5574   11.1021   25.3278 F   0  0  0  0  0  0  0  0  0  0  0  0
    7.0945   13.0578   23.5776 O   0  0  0  0  0  0  0  0  0  0  0  0
    2.9793   14.0753   21.8268 N   0  0  0  0  0  0  0  0  0  0  0  0
    1.5485   13.9896   21.6746 C   0  0  0  0  0  0  0  0  0  0  0  0
    1.0456   13.9550   20.2648 C   0  0  0  0  0  0  0  0  0  0  0  0
    1.2011   12.9830   19.2968 C   0  0  0  0  0  0  0  0  0  0  0  0
    0.3569   13.3362   18.2747 N   0  0  0  0  0  0  0  0  0  0  0  0
   -0.2634   14.5064   18.6211 C   0  0  0  0  0  0  0  0  0  0  0  0
    0.1457   14.9089   19.8096 N   0  0  0  0  0  0  0  0  0  0  0  0
   -1.2596   15.1616   17.7199 C   0  0  0  0  0  0  0  0  0  0  0  0
   -1.8888   14.1609   16.7451 C   0  0  0  0  0  0  0  0  0  0  0  0
   -0.8062   13.3274   16.0683 C   0  0  0  0  0  0  0  0  0  0  0  0
    0.0341   12.5632   17.0914 C   0  0  0  0  0  0  0  0  0  0  0  0
  1  2  2  0
  2  3  1  0
  4  3  1  6
  4  5  1  0
  5  6  1  0
  6  7  1  0
  7  8  1  0
  8  9  1  1
  9 10  1  0
  9 11  1  0
  9 12  1  0
  8 13  1  0
  2 14  1  0
 14 15  1  0
 15 16  1  0
 16 17  2  0
 17 18  1  0
 18 19  1  0
 19 20  2  0
 19 21  1  0
 21 22  1  0
 22 23  1  0
 23 24  1  0
 13  4  1  0
 20 16  1  0
 24 18  1  0
M  END
>  <energy_score>  (4986) 
-15.575112

>  <inchikey>  (4986) 
GVZMCDYSUKQVHG-UHFFFAOYSA-N

>  <smiles>  (4986) 
O=C(CC1CCCC(C(F)(F)F)O1)NCc1cn2c(n1)CCCC2

>  <ref_pdb>  (4986) 
A0309a

>  <alias>  (4986) 
GVZMCDYSUKQVHG-UHFFFAOYSA-N-P8-P8-P115-601518

>  <HIPPO Pose ID>  (4986) 
533081

>  <name>  (4986) 
GVZMCDYSUKQVHG-UHFFFAOYSA-N-P8-P8-P115-601518

>  <HIPPO Compound ID>  (4986) 
307672

>  <ref_mols>  (4986) 
A0473a,A1209a

>  <distance_score>  (4986) 
1.800552

>  <inspiration_score>  (4986) 
None

$$$$
GVZMCDYSUKQVHG-UHFFFAOYSA-N-P115-P8-P115-601518
     RDKit          3D

 24 26  0  0  0  0  0  0  0  0999 V2000
    4.2269   15.4063   23.6891 O   0  0  0  0  0  0  0  0  0  0  0  0
    4.4877   14.7225   22.7744 C   0  0  0  0  0  0  0  0  0  0  0  0
    5.9635   14.3801   22.4813 C   0  0  0  0  0  0  0  0  0  0  0  0
    6.8241   13.9015   23.7115 C   0  0  1  0  0  0  0  0  0  0  0  0
    6.0692   13.8085   25.0676 C   0  0  0  0  0  0  0  0  0  0  0  0
    6.4481   12.6232   25.9336 C   0  0  0  0  0  0  0  0  0  0  0  0
    7.9076   12.3504   25.7657 C   0  0  0  0  0  0  0  0  0  0  0  0
    8.3210   12.0283   24.3358 C   0  0  1  0  0  0  0  0  0  0  0  0
    8.4247   10.4836   24.2158 C   0  0  0  0  0  0  0  0  0  0  0  0
    8.9041   10.0702   23.0296 F   0  0  0  0  0  0  0  0  0  0  0  0
    7.2552    9.8645   24.4838 F   0  0  0  0  0  0  0  0  0  0  0  0
    9.2849   10.0183   25.1389 F   0  0  0  0  0  0  0  0  0  0  0  0
    7.4780   12.6542   23.3408 O   0  0  0  0  0  0  0  0  0  0  0  0
    3.5536   14.0242   21.7343 N   0  0  0  0  0  0  0  0  0  0  0  0
    2.1021   13.9501   21.6695 C   0  0  0  0  0  0  0  0  0  0  0  0
    1.4858   13.9259   20.2982 C   0  0  0  0  0  0  0  0  0  0  0  0
    1.6914   13.0681   19.2358 C   0  0  0  0  0  0  0  0  0  0  0  0
    0.7486   13.4018   18.2940 N   0  0  0  0  0  0  0  0  0  0  0  0
    0.0127   14.4485   18.7785 C   0  0  0  0  0  0  0  0  0  0  0  0
    0.4227   14.7696   19.9908 N   0  0  0  0  0  0  0  0  0  0  0  0
   -1.0646   15.0936   17.9660 C   0  0  0  0  0  0  0  0  0  0  0  0
   -1.6017   14.1591   16.8766 C   0  0  0  0  0  0  0  0  0  0  0  0
   -0.4484   13.5195   16.1110 C   0  0  0  0  0  0  0  0  0  0  0  0
    0.4616   12.7234   17.0457 C   0  0  0  0  0  0  0  0  0  0  0  0
  1  2  2  0
  2  3  1  0
  4  3  1  6
  4  5  1  0
  5  6  1  0
  6  7  1  0
  7  8  1  0
  8  9  1  1
  9 10  1  0
  9 11  1  0
  9 12  1  0
  8 13  1  0
  2 14  1  0
 14 15  1  0
 15 16  1  0
 16 17  2  0
 17 18  1  0
 18 19  1  0
 19 20  2  0
 19 21  1  0
 21 22  1  0
 22 23  1  0
 23 24  1  0
 13  4  1  0
 20 16  1  0
 24 18  1  0
M  END
>  <energy_score>  (4987) 
-9.680334

>  <inchikey>  (4987) 
GVZMCDYSUKQVHG-UHFFFAOYSA-N

>  <smiles>  (4987) 
O=C(CC1CCCC(C(F)(F)F)O1)NCc1cn2c(n1)CCCC2

>  <ref_pdb>  (4987) 
A0309a

>  <alias>  (4987) 
GVZMCDYSUKQVHG-UHFFFAOYSA-N-P115-P8-P115-601518

>  <HIPPO Pose ID>  (4987) 
533082

>  <name>  (4987) 
GVZMCDYSUKQVHG-UHFFFAOYSA-N-P115-P8-P115-601518

>  <HIPPO Compound ID>  (4987) 
307672

>  <ref_mols>  (4987) 
A0473a,A1209a

>  <distance_score>  (4987) 
1.81817

>  <inspiration_score>  (4987) 
None

$$$$
KGJDIPIZKFAJKH-UHFFFAOYSA-N-P8-P8-P115-601518
     RDKit          3D

 25 27  0  0  0  0  0  0  0  0999 V2000
    3.2108   15.1558   23.9314 O   0  0  0  0  0  0  0  0  0  0  0  0
    3.6442   14.6194   22.9854 C   0  0  0  0  0  0  0  0  0  0  0  0
    5.1752   14.4750   22.7938 C   0  0  0  0  0  0  0  0  0  0  0  0
    6.0435   14.1799   24.0726 C   0  0  1  0  0  0  0  0  0  0  0  0
    5.2718   13.9080   25.3733 C   0  0  0  0  0  0  0  0  0  0  0  0
    6.1663   13.4134   26.4990 C   0  0  0  0  0  0  0  0  0  0  0  0
    6.9834   12.2322   26.0505 C   0  0  0  0  0  0  0  0  0  0  0  0
    7.7837   12.5687   24.7957 C   0  0  1  0  0  0  0  0  0  0  0  0
    8.5359   11.2952   24.3617 C   0  0  0  0  0  0  0  0  0  0  0  0
    7.8784   10.1654   24.6907 F   0  0  0  0  0  0  0  0  0  0  0  0
    8.8041   11.2940   23.0493 F   0  0  0  0  0  0  0  0  0  0  0  0
    9.7165   11.2062   24.9813 F   0  0  0  0  0  0  0  0  0  0  0  0
    6.9685   13.1117   23.7380 O   0  0  0  0  0  0  0  0  0  0  0  0
    2.9130   13.9748   21.7643 N   0  0  0  0  0  0  0  0  0  0  0  0
    1.5039   13.7783   21.5124 C   0  0  0  0  0  0  0  0  0  0  0  0
    1.0024   13.9244   20.1025 C   0  0  0  0  0  0  0  0  0  0  0  0
    0.6032   15.0549   19.4096 C   0  0  0  0  0  0  0  0  0  0  0  0
   -0.0580   14.6151   18.2700 N   0  0  0  0  0  0  0  0  0  0  0  0
   -0.7168   15.3314   17.2667 C   0  0  0  0  0  0  0  0  0  0  0  0
   -1.3017   14.6791   16.2485 C   0  0  0  0  0  0  0  0  0  0  0  0
   -1.2655   13.2286   16.2421 C   0  0  0  0  0  0  0  0  0  0  0  0
   -0.6542   12.5517   17.2293 C   0  0  0  0  0  0  0  0  0  0  0  0
   -0.7031   11.2086   17.2427 F   0  0  0  0  0  0  0  0  0  0  0  0
   -0.0042   13.2293   18.3004 C   0  0  0  0  0  0  0  0  0  0  0  0
    0.6289   12.8052   19.3795 N   0  0  0  0  0  0  0  0  0  0  0  0
  1  2  2  0
  2  3  1  0
  4  3  1  6
  4  5  1  0
  5  6  1  0
  6  7  1  0
  7  8  1  0
  8  9  1  6
  9 10  1  0
  9 11  1  0
  9 12  1  0
  8 13  1  0
  2 14  1  0
 14 15  1  0
 15 16  1  0
 16 17  2  0
 17 18  1  0
 18 19  1  0
 19 20  2  0
 20 21  1  0
 21 22  2  0
 22 23  1  0
 22 24  1  0
 24 25  2  0
 13  4  1  0
 25 16  1  0
 24 18  1  0
M  END
>  <energy_score>  (4988) 
-9.805881

>  <inchikey>  (4988) 
KGJDIPIZKFAJKH-UHFFFAOYSA-N

>  <smiles>  (4988) 
O=C(CC1CCCC(C(F)(F)F)O1)NCc1cn2cccc(F)c2n1

>  <ref_pdb>  (4988) 
A0309a

>  <alias>  (4988) 
KGJDIPIZKFAJKH-UHFFFAOYSA-N-P8-P8-P115-601518

>  <HIPPO Pose ID>  (4988) 
533135

>  <name>  (4988) 
KGJDIPIZKFAJKH-UHFFFAOYSA-N-P8-P8-P115-601518

>  <HIPPO Compound ID>  (4988) 
307699

>  <ref_mols>  (4988) 
A0473a,A1209a

>  <distance_score>  (4988) 
1.917145

>  <inspiration_score>  (4988) 
None

$$$$
KGJDIPIZKFAJKH-UHFFFAOYSA-N-P115-P8-P115-601518
     RDKit          3D

 25 27  0  0  0  0  0  0  0  0999 V2000
    4.2881   15.3505   23.7590 O   0  0  0  0  0  0  0  0  0  0  0  0
    4.5103   14.7044   22.8059 C   0  0  0  0  0  0  0  0  0  0  0  0
    5.9767   14.3593   22.4330 C   0  0  0  0  0  0  0  0  0  0  0  0
    6.9376   13.8671   23.5887 C   0  0  1  0  0  0  0  0  0  0  0  0
    6.3165   13.7538   25.0041 C   0  0  0  0  0  0  0  0  0  0  0  0
    6.7732   12.5408   25.8019 C   0  0  0  0  0  0  0  0  0  0  0  0
    8.2231   12.2763   25.5210 C   0  0  0  0  0  0  0  0  0  0  0  0
    8.5293   12.0121   24.0597 C   0  0  1  0  0  0  0  0  0  0  0  0
    8.6908   10.4738   23.8739 C   0  0  0  0  0  0  0  0  0  0  0  0
    7.5870    9.7979   24.2646 F   0  0  0  0  0  0  0  0  0  0  0  0
    9.0197   10.1542   22.6134 F   0  0  0  0  0  0  0  0  0  0  0  0
    9.6972    9.9799   24.6125 F   0  0  0  0  0  0  0  0  0  0  0  0
    7.5621   12.6218   23.1649 O   0  0  0  0  0  0  0  0  0  0  0  0
    3.5302   14.0556   21.7690 N   0  0  0  0  0  0  0  0  0  0  0  0
    2.0806   13.9939   21.7549 C   0  0  0  0  0  0  0  0  0  0  0  0
    1.4086   14.0794   20.4086 C   0  0  0  0  0  0  0  0  0  0  0  0
    0.2107   14.7030   20.0885 C   0  0  0  0  0  0  0  0  0  0  0  0
   -0.0897   14.3609   18.7835 N   0  0  0  0  0  0  0  0  0  0  0  0
   -1.2073   14.6694   17.9995 C   0  0  0  0  0  0  0  0  0  0  0  0
   -1.3166   14.1425   16.7686 C   0  0  0  0  0  0  0  0  0  0  0  0
   -0.2556   13.2724   16.2899 C   0  0  0  0  0  0  0  0  0  0  0  0
    0.8222   13.0102   17.0530 C   0  0  0  0  0  0  0  0  0  0  0  0
    1.8270   12.2389   16.5969 F   0  0  0  0  0  0  0  0  0  0  0  0
    0.9447   13.5412   18.3634 C   0  0  0  0  0  0  0  0  0  0  0  0
    1.8612   13.3889   19.3079 N   0  0  0  0  0  0  0  0  0  0  0  0
  1  2  2  0
  2  3  1  0
  4  3  1  6
  4  5  1  0
  5  6  1  0
  6  7  1  0
  7  8  1  0
  8  9  1  1
  9 10  1  0
  9 11  1  0
  9 12  1  0
  8 13  1  0
  2 14  1  0
 14 15  1  0
 15 16  1  0
 16 17  2  0
 17 18  1  0
 18 19  1  0
 19 20  2  0
 20 21  1  0
 21 22  2  0
 22 23  1  0
 22 24  1  0
 24 25  2  0
 13  4  1  0
 25 16  1  0
 24 18  1  0
M  END
>  <energy_score>  (4989) 
-4.875924

>  <inchikey>  (4989) 
KGJDIPIZKFAJKH-UHFFFAOYSA-N

>  <smiles>  (4989) 
O=C(CC1CCCC(C(F)(F)F)O1)NCc1cn2cccc(F)c2n1

>  <ref_pdb>  (4989) 
A0309a

>  <alias>  (4989) 
KGJDIPIZKFAJKH-UHFFFAOYSA-N-P115-P8-P115-601518

>  <HIPPO Pose ID>  (4989) 
533136

>  <name>  (4989) 
KGJDIPIZKFAJKH-UHFFFAOYSA-N-P115-P8-P115-601518

>  <HIPPO Compound ID>  (4989) 
307699

>  <ref_mols>  (4989) 
A0473a,A1209a

>  <distance_score>  (4989) 
1.968147

>  <inspiration_score>  (4989) 
None

$$$$
STKJMUZDDIVMNT-UHFFFAOYSA-N-P8-P8-P115-601518
     RDKit          3D

 25 27  0  0  0  0  0  0  0  0999 V2000
    3.5632   14.4163   23.8746 O   0  0  0  0  0  0  0  0  0  0  0  0
    3.8647   14.2049   22.7660 C   0  0  0  0  0  0  0  0  0  0  0  0
    5.3363   14.1946   22.2800 C   0  0  0  0  0  0  0  0  0  0  0  0
    6.4945   14.0307   23.3138 C   0  0  1  0  0  0  0  0  0  0  0  0
    6.2385   14.5266   24.7477 C   0  0  0  0  0  0  0  0  0  0  0  0
    5.9049   13.3964   25.7088 C   0  0  0  0  0  0  0  0  0  0  0  0
    6.9996   12.3494   25.7043 C   0  0  0  0  0  0  0  0  0  0  0  0
    7.8728   12.3728   24.4343 C   0  0  1  0  0  0  0  0  0  0  0  0
    8.6406   11.0400   24.3856 C   0  0  0  0  0  0  0  0  0  0  0  0
    7.9443    9.9942   24.8758 F   0  0  0  0  0  0  0  0  0  0  0  0
    9.6802   11.2090   25.2205 F   0  0  0  0  0  0  0  0  0  0  0  0
    9.1510   10.6827   23.1992 F   0  0  0  0  0  0  0  0  0  0  0  0
    7.1351   12.7285   23.2537 O   0  0  0  0  0  0  0  0  0  0  0  0
    2.9771   13.9725   21.5055 N   0  0  0  0  0  0  0  0  0  0  0  0
    1.5484   13.8601   21.3778 C   0  0  0  0  0  0  0  0  0  0  0  0
    1.0111   13.9838   19.9939 C   0  0  0  0  0  0  0  0  0  0  0  0
    0.1426   15.0092   19.6471 N   0  0  0  0  0  0  0  0  0  0  0  0
   -0.3152   14.7121   18.4366 C   0  0  0  0  0  0  0  0  0  0  0  0
   -1.2702   15.3534   17.5888 C   0  0  0  0  0  0  0  0  0  0  0  0
   -1.6390   14.7844   16.4250 C   0  0  0  0  0  0  0  0  0  0  0  0
   -1.0796   13.5164   15.9917 C   0  0  0  0  0  0  0  0  0  0  0  0
   -0.1576   12.9258   16.7679 C   0  0  0  0  0  0  0  0  0  0  0  0
    0.2285   13.5171   17.9702 N   0  0  0  0  0  0  0  0  0  0  0  0
    1.1102   13.1093   18.9398 C   0  0  0  0  0  0  0  0  0  0  0  0
    2.0246   11.6831   18.7735 Cl  0  0  0  0  0  0  0  0  0  0  0  0
  1  2  2  0
  2  3  1  0
  4  3  1  6
  4  5  1  0
  5  6  1  0
  6  7  1  0
  7  8  1  0
  8  9  1  6
  9 10  1  0
  9 11  1  0
  9 12  1  0
  8 13  1  0
  2 14  1  0
 14 15  1  0
 15 16  1  0
 16 17  1  0
 17 18  2  0
 18 19  1  0
 19 20  2  0
 20 21  1  0
 21 22  2  0
 22 23  1  0
 23 24  1  0
 24 25  1  0
 13  4  1  0
 24 16  2  0
 23 18  1  0
M  END
>  <energy_score>  (4990) 
-10.454346

>  <inchikey>  (4990) 
STKJMUZDDIVMNT-UHFFFAOYSA-N

>  <smiles>  (4990) 
O=C(CC1CCCC(C(F)(F)F)O1)NCc1nc2ccccn2c1Cl

>  <ref_pdb>  (4990) 
A0309a

>  <alias>  (4990) 
STKJMUZDDIVMNT-UHFFFAOYSA-N-P8-P8-P115-601518

>  <HIPPO Pose ID>  (4990) 
533137

>  <name>  (4990) 
STKJMUZDDIVMNT-UHFFFAOYSA-N-P8-P8-P115-601518

>  <HIPPO Compound ID>  (4990) 
307700

>  <ref_mols>  (4990) 
A0473a,A1209a

>  <distance_score>  (4990) 
1.824468

>  <inspiration_score>  (4990) 
None

$$$$
QNLMTOWVFMUOMI-UHFFFAOYSA-N-P8-P8-P115-601518
     RDKit          3D

 25 27  0  0  0  0  0  0  0  0999 V2000
    5.6254   13.9761   21.4203 O   0  0  0  0  0  0  0  0  0  0  0  0
    4.8540   14.3378   22.2237 C   0  0  0  0  0  0  0  0  0  0  0  0
    5.2688   14.9866   23.5588 C   0  0  0  0  0  0  0  0  0  0  0  0
    5.8316   14.0126   24.5898 C   0  0  2  0  0  0  0  0  0  0  0  0
    5.7766   14.5854   25.9988 C   0  0  0  0  0  0  0  0  0  0  0  0
    6.2090   13.4662   26.9323 C   0  0  0  0  0  0  0  0  0  0  0  0
    7.6412   13.1153   26.6131 C   0  0  0  0  0  0  0  0  0  0  0  0
    7.9410   12.8387   25.1299 C   0  0  1  0  0  0  0  0  0  0  0  0
    8.0481   11.3262   24.8600 C   0  0  0  0  0  0  0  0  0  0  0  0
    8.9449   10.8079   25.7189 F   0  0  0  0  0  0  0  0  0  0  0  0
    6.9050   10.6694   25.1171 F   0  0  0  0  0  0  0  0  0  0  0  0
    8.5170   11.0098   23.6422 F   0  0  0  0  0  0  0  0  0  0  0  0
    7.1623   13.6379   24.2240 O   0  0  0  0  0  0  0  0  0  0  0  0
    3.2906   14.3870   22.1772 N   0  0  0  0  0  0  0  0  0  0  0  0
    2.4306   14.1090   21.1647 N   0  0  0  0  0  0  0  0  0  0  0  0
    0.9679   14.5481   20.9435 C   0  0  0  0  0  0  0  0  0  0  0  0
    0.2480   15.1534   21.6330 O   0  0  0  0  0  0  0  0  0  0  0  0
    0.5008   14.2006   19.5998 C   0  0  0  0  0  0  0  0  0  0  0  0
    0.1348   15.1417   18.6424 C   0  0  0  0  0  0  0  0  0  0  0  0
   -0.3861   14.4155   17.6127 N   0  0  0  0  0  0  0  0  0  0  0  0
   -0.9461   14.6520   16.3764 C   0  0  0  0  0  0  0  0  0  0  0  0
   -1.3471   13.5107   15.7905 C   0  0  0  0  0  0  0  0  0  0  0  0
   -1.0556   12.0885   16.7989 S   0  0  0  0  0  0  0  0  0  0  0  0
   -0.3257   13.1104   17.9931 C   0  0  0  0  0  0  0  0  0  0  0  0
    0.2395   12.9161   19.1557 N   0  0  0  0  0  0  0  0  0  0  0  0
  1  2  2  0
  2  3  1  0
  4  3  1  6
  4  5  1  0
  5  6  1  0
  6  7  1  0
  7  8  1  0
  8  9  1  6
  9 10  1  0
  9 11  1  0
  9 12  1  0
  8 13  1  0
  2 14  1  0
 14 15  1  0
 15 16  1  0
 16 17  2  0
 16 18  1  0
 18 19  2  0
 19 20  1  0
 20 21  1  0
 21 22  2  0
 22 23  1  0
 23 24  1  0
 24 25  2  0
 13  4  1  0
 25 18  1  0
 24 20  1  0
M  END
>  <energy_score>  (4991) 
-28.790018

>  <inchikey>  (4991) 
QNLMTOWVFMUOMI-UHFFFAOYSA-N

>  <smiles>  (4991) 
O=C(CC1CCCC(C(F)(F)F)O1)NNC(=O)c1cn2ccsc2n1

>  <ref_pdb>  (4991) 
A0309a

>  <alias>  (4991) 
QNLMTOWVFMUOMI-UHFFFAOYSA-N-P8-P8-P115-601518

>  <HIPPO Pose ID>  (4991) 
533151

>  <name>  (4991) 
QNLMTOWVFMUOMI-UHFFFAOYSA-N-P8-P8-P115-601518

>  <HIPPO Compound ID>  (4991) 
307707

>  <ref_mols>  (4991) 
A0473a,A1209a

>  <distance_score>  (4991) 
1.83226

>  <inspiration_score>  (4991) 
None

$$$$
QNLMTOWVFMUOMI-UHFFFAOYSA-N-P115-P8-P115-601518
     RDKit          3D

 25 27  0  0  0  0  0  0  0  0999 V2000
    6.1759   13.8318   21.2559 O   0  0  0  0  0  0  0  0  0  0  0  0
    5.5562   14.3029   22.1276 C   0  0  0  0  0  0  0  0  0  0  0  0
    6.2589   14.9415   23.3314 C   0  0  0  0  0  0  0  0  0  0  0  0
    6.4965   13.9316   24.4485 C   0  0  2  0  0  0  0  0  0  0  0  0
    7.0175   14.5273   25.7497 C   0  0  0  0  0  0  0  0  0  0  0  0
    6.9171   13.4456   26.8376 C   0  0  0  0  0  0  0  0  0  0  0  0
    7.0455   12.0363   26.2711 C   0  0  0  0  0  0  0  0  0  0  0  0
    7.9246   12.0279   25.0157 C   0  0  1  0  0  0  0  0  0  0  0  0
    8.1607   10.5674   24.5893 C   0  0  0  0  0  0  0  0  0  0  0  0
    8.9200    9.9825   25.5342 F   0  0  0  0  0  0  0  0  0  0  0  0
    7.0236    9.8456   24.5734 F   0  0  0  0  0  0  0  0  0  0  0  0
    8.8200   10.4213   23.4270 F   0  0  0  0  0  0  0  0  0  0  0  0
    7.4031   12.9009   23.9920 O   0  0  0  0  0  0  0  0  0  0  0  0
    4.0166   14.4706   22.2950 N   0  0  0  0  0  0  0  0  0  0  0  0
    2.9945   14.1938   21.4296 N   0  0  0  0  0  0  0  0  0  0  0  0
    1.4693   14.4127   21.5732 C   0  0  0  0  0  0  0  0  0  0  0  0
    0.8412   14.7917   22.4824 O   0  0  0  0  0  0  0  0  0  0  0  0
    0.7967   14.1669   20.2769 C   0  0  0  0  0  0  0  0  0  0  0  0
   -0.4875   14.5952   19.9342 C   0  0  0  0  0  0  0  0  0  0  0  0
   -0.6653   14.2079   18.6355 N   0  0  0  0  0  0  0  0  0  0  0  0
   -1.6560   14.2680   17.6754 C   0  0  0  0  0  0  0  0  0  0  0  0
   -1.2886   13.6336   16.5489 C   0  0  0  0  0  0  0  0  0  0  0  0
    0.3285   12.9388   16.6677 S   0  0  0  0  0  0  0  0  0  0  0  0
    0.4726   13.5616   18.2708 C   0  0  0  0  0  0  0  0  0  0  0  0
    1.3984   13.5385   19.1942 N   0  0  0  0  0  0  0  0  0  0  0  0
  1  2  2  0
  2  3  1  0
  4  3  1  6
  4  5  1  0
  5  6  1  0
  6  7  1  0
  7  8  1  0
  8  9  1  6
  9 10  1  0
  9 11  1  0
  9 12  1  0
  8 13  1  0
  2 14  1  0
 14 15  1  0
 15 16  1  0
 16 17  2  0
 16 18  1  0
 18 19  2  0
 19 20  1  0
 20 21  1  0
 21 22  2  0
 22 23  1  0
 23 24  1  0
 24 25  2  0
 13  4  1  0
 25 18  1  0
 24 20  1  0
M  END
>  <energy_score>  (4992) 
-40.938785

>  <inchikey>  (4992) 
QNLMTOWVFMUOMI-UHFFFAOYSA-N

>  <smiles>  (4992) 
O=C(CC1CCCC(C(F)(F)F)O1)NNC(=O)c1cn2ccsc2n1

>  <ref_pdb>  (4992) 
A0309a

>  <alias>  (4992) 
QNLMTOWVFMUOMI-UHFFFAOYSA-N-P115-P8-P115-601518

>  <HIPPO Pose ID>  (4992) 
533152

>  <name>  (4992) 
QNLMTOWVFMUOMI-UHFFFAOYSA-N-P115-P8-P115-601518

>  <HIPPO Compound ID>  (4992) 
307707

>  <ref_mols>  (4992) 
A0473a,A1209a

>  <distance_score>  (4992) 
1.794986

>  <inspiration_score>  (4992) 
None

$$$$
TXTBYOJHJPRPGG-UHFFFAOYSA-N-P8-P8-P115-601518
     RDKit          3D

 26 28  0  0  0  0  0  0  0  0999 V2000
    1.0094   13.9778   21.9602 C   0  0  0  0  0  0  0  0  0  0  0  0
    1.8072   14.5826   20.8355 C   0  0  1  0  0  0  0  0  0  0  0  0
    3.2043   14.3181   21.0553 N   0  0  0  0  0  0  0  0  0  0  0  0
    4.1512   14.7685   22.2145 C   0  0  0  0  0  0  0  0  0  0  0  0
    3.9538   15.4839   23.1192 O   0  0  0  0  0  0  0  0  0  0  0  0
    5.5071   14.0975   22.0601 C   0  0  0  0  0  0  0  0  0  0  0  0
    6.3056   13.9478   23.3943 C   0  0  1  0  0  0  0  0  0  0  0  0
    5.4963   13.8704   24.7209 C   0  0  0  0  0  0  0  0  0  0  0  0
    6.1084   12.9621   25.7800 C   0  0  0  0  0  0  0  0  0  0  0  0
    7.6085   13.0540   25.6920 C   0  0  0  0  0  0  0  0  0  0  0  0
    8.1289   12.5976   24.3188 C   0  0  1  0  0  0  0  0  0  0  0  0
    8.5665   11.1258   24.4358 C   0  0  0  0  0  0  0  0  0  0  0  0
    9.0414   10.5608   23.3152 F   0  0  0  0  0  0  0  0  0  0  0  0
    7.6072   10.3351   24.9604 F   0  0  0  0  0  0  0  0  0  0  0  0
    9.5754   11.1092   25.3197 F   0  0  0  0  0  0  0  0  0  0  0  0
    7.2326   12.8505   23.2260 O   0  0  0  0  0  0  0  0  0  0  0  0
    1.1695   14.3296   19.5058 C   0  0  0  0  0  0  0  0  0  0  0  0
    0.4601   15.2645   18.7704 C   0  0  0  0  0  0  0  0  0  0  0  0
   -0.2252   14.5821   17.7828 N   0  0  0  0  0  0  0  0  0  0  0  0
   -1.1505   15.0065   16.8065 C   0  0  0  0  0  0  0  0  0  0  0  0
   -1.7111   16.7888   16.7305 Br  0  0  0  0  0  0  0  0  0  0  0  0
   -1.6789   14.0871   15.9747 C   0  0  0  0  0  0  0  0  0  0  0  0
   -1.3239   12.6900   16.1353 C   0  0  0  0  0  0  0  0  0  0  0  0
   -0.4850   12.2968   17.1094 C   0  0  0  0  0  0  0  0  0  0  0  0
    0.1250   13.2480   17.9682 C   0  0  0  0  0  0  0  0  0  0  0  0
    0.9564   13.0810   18.9817 N   0  0  0  0  0  0  0  0  0  0  0  0
  2  1  1  1
  2  3  1  0
  3  4  1  0
  4  5  2  0
  4  6  1  0
  7  6  1  6
  7  8  1  0
  8  9  1  0
  9 10  1  0
 10 11  1  0
 11 12  1  1
 12 13  1  0
 12 14  1  0
 12 15  1  0
 11 16  1  0
  2 17  1  0
 17 18  2  0
 18 19  1  0
 19 20  1  0
 20 21  1  0
 20 22  2  0
 22 23  1  0
 23 24  2  0
 24 25  1  0
 25 26  2  0
 16  7  1  0
 26 17  1  0
 25 19  1  0
M  END
>  <energy_score>  (4993) 
-5.105847

>  <inchikey>  (4993) 
TXTBYOJHJPRPGG-UHFFFAOYSA-N

>  <smiles>  (4993) 
CC(NC(=O)CC1CCCC(C(F)(F)F)O1)c1cn2c(Br)cccc2n1

>  <ref_pdb>  (4993) 
A0309a

>  <alias>  (4993) 
TXTBYOJHJPRPGG-UHFFFAOYSA-N-P8-P8-P115-601518

>  <HIPPO Pose ID>  (4993) 
533183

>  <name>  (4993) 
TXTBYOJHJPRPGG-UHFFFAOYSA-N-P8-P8-P115-601518

>  <HIPPO Compound ID>  (4993) 
307723

>  <ref_mols>  (4993) 
A0473a,A1209a

>  <distance_score>  (4993) 
1.852162

>  <inspiration_score>  (4993) 
None

$$$$
MSJKDVQNXKOYGQ-UHFFFAOYSA-N-P8-P8-P115-601518
     RDKit          3D

 26 28  0  0  0  0  0  0  0  0999 V2000
    5.2157   14.4428   21.6975 O   0  0  0  0  0  0  0  0  0  0  0  0
    4.4087   14.2686   22.5263 C   0  0  0  0  0  0  0  0  0  0  0  0
    4.6551   14.3473   24.0408 C   0  0  0  0  0  0  0  0  0  0  0  0
    6.1190   14.2889   24.5117 C   0  0  1  0  0  0  0  0  0  0  0  0
    6.1595   14.5156   26.0328 C   0  0  0  0  0  0  0  0  0  0  0  0
    5.9768   13.1910   26.7580 C   0  0  0  0  0  0  0  0  0  0  0  0
    7.1187   12.2599   26.4126 C   0  0  0  0  0  0  0  0  0  0  0  0
    7.7407   12.5387   25.0323 C   0  0  1  0  0  0  0  0  0  0  0  0
    8.4677   11.2603   24.5702 C   0  0  0  0  0  0  0  0  0  0  0  0
    9.6344   11.2215   25.2342 F   0  0  0  0  0  0  0  0  0  0  0  0
    8.7842   11.2044   23.2715 F   0  0  0  0  0  0  0  0  0  0  0  0
    7.8106   10.1318   24.9055 F   0  0  0  0  0  0  0  0  0  0  0  0
    6.7710   13.0666   24.1285 O   0  0  0  0  0  0  0  0  0  0  0  0
    2.8658   14.0180   22.4039 N   0  0  0  0  0  0  0  0  0  0  0  0
    2.0574   14.0275   21.3164 N   0  0  0  0  0  0  0  0  0  0  0  0
    0.6684   14.6600   21.1081 C   0  0  0  0  0  0  0  0  0  0  0  0
   -0.0334   15.2065   21.8613 O   0  0  0  0  0  0  0  0  0  0  0  0
    0.2319   14.4971   19.7207 C   0  0  0  0  0  0  0  0  0  0  0  0
   -0.7960   15.1954   19.1169 C   0  0  0  0  0  0  0  0  0  0  0  0
   -0.9615   14.6368   17.8747 N   0  0  0  0  0  0  0  0  0  0  0  0
   -1.8971   14.9109   16.8768 C   0  0  0  0  0  0  0  0  0  0  0  0
   -1.9149   14.1533   15.7675 C   0  0  0  0  0  0  0  0  0  0  0  0
   -0.9520   13.0710   15.6465 C   0  0  0  0  0  0  0  0  0  0  0  0
   -0.0404   12.8364   16.6101 C   0  0  0  0  0  0  0  0  0  0  0  0
   -0.0151   13.6281   17.7838 C   0  0  0  0  0  0  0  0  0  0  0  0
    0.7513   13.5638   18.8548 N   0  0  0  0  0  0  0  0  0  0  0  0
  1  2  2  0
  2  3  1  0
  4  3  1  1
  4  5  1  0
  5  6  1  0
  6  7  1  0
  7  8  1  0
  8  9  1  6
  9 10  1  0
  9 11  1  0
  9 12  1  0
  8 13  1  0
  2 14  1  0
 14 15  1  0
 15 16  1  0
 16 17  2  0
 16 18  1  0
 18 19  2  0
 19 20  1  0
 20 21  1  0
 21 22  2  0
 22 23  1  0
 23 24  2  0
 24 25  1  0
 25 26  2  0
 13  4  1  0
 26 18  1  0
 25 20  1  0
M  END
>  <energy_score>  (4994) 
-1.173091

>  <inchikey>  (4994) 
MSJKDVQNXKOYGQ-UHFFFAOYSA-N

>  <smiles>  (4994) 
O=C(CC1CCCC(C(F)(F)F)O1)NNC(=O)c1cn2ccccc2n1

>  <ref_pdb>  (4994) 
A0309a

>  <alias>  (4994) 
MSJKDVQNXKOYGQ-UHFFFAOYSA-N-P8-P8-P115-601518

>  <HIPPO Pose ID>  (4994) 
533193

>  <name>  (4994) 
MSJKDVQNXKOYGQ-UHFFFAOYSA-N-P8-P8-P115-601518

>  <HIPPO Compound ID>  (4994) 
307728

>  <ref_mols>  (4994) 
A0473a,A1209a

>  <distance_score>  (4994) 
1.912615

>  <inspiration_score>  (4994) 
None

$$$$
GECIMRNJRZXNFO-UHFFFAOYSA-N-P8-P8-P115-601518
     RDKit          3D

 30 33  0  0  0  0  0  0  0  0999 V2000
    5.6763   10.3120   26.8905 C   0  0  0  0  0  0  0  0  0  0  0  0
    6.5974   11.1910   26.2213 N   0  0  0  0  0  0  0  0  0  0  0  0
    7.6902   10.7886   25.5106 C   0  0  0  0  0  0  0  0  0  0  0  0
    8.4959   11.7863   25.2642 N   0  0  0  0  0  0  0  0  0  0  0  0
    7.8506   12.8886   25.7473 C   0  0  0  0  0  0  0  0  0  0  0  0
    6.6252   12.5704   26.2971 C   0  0  0  0  0  0  0  0  0  0  0  0
    5.5048   13.4225   26.8371 C   0  0  2  0  0  0  0  0  0  0  0  0
    5.4554   14.8950   26.3183 C   0  0  1  0  0  0  0  0  0  0  0  0
    5.7239   15.1896   24.8409 C   0  0  0  0  0  0  0  0  0  0  0  0
    4.8670   14.6438   23.8376 N   0  0  0  0  0  0  0  0  0  0  0  0
    5.1701   14.2251   22.3689 C   0  0  0  0  0  0  0  0  0  0  0  0
    6.1815   14.1919   21.7849 O   0  0  0  0  0  0  0  0  0  0  0  0
    3.8193   13.8981   21.7299 C   0  0  0  0  0  0  0  0  0  0  0  0
    3.9882   13.0987   20.4257 C   0  0  2  0  0  0  0  0  0  0  0  0
    2.9172   13.4764   19.3926 C   0  0  0  0  0  0  0  0  0  0  0  0
    1.5733   12.8025   19.6126 C   0  0  0  0  0  0  0  0  0  0  0  0
    1.6722   11.6359   20.5758 C   0  0  0  0  0  0  0  0  0  0  0  0
    2.9925   10.8854   20.4457 C   0  0  1  0  0  0  0  0  0  0  0  0
    3.2104   10.2385   19.0946 C   0  0  0  0  0  0  0  0  0  0  0  0
    2.0748    9.6515   18.6821 F   0  0  0  0  0  0  0  0  0  0  0  0
    4.1793    9.3017   19.1660 F   0  0  0  0  0  0  0  0  0  0  0  0
    3.5660   11.1166   18.1363 F   0  0  0  0  0  0  0  0  0  0  0  0
    4.0992   11.7190   20.7447 O   0  0  0  0  0  0  0  0  0  0  0  0
    4.1151   15.5348   26.7371 C   0  0  0  0  0  0  0  0  0  0  0  0
    3.9244   15.4539   28.2456 C   0  0  0  0  0  0  0  0  0  0  0  0
    4.1716   14.0459   28.7823 C   0  0  0  0  0  0  0  0  0  0  0  0
    5.4737   13.5404   28.3318 N   0  0  0  0  0  0  0  0  0  0  0  0
    6.1427   12.5248   29.1619 C   0  0  0  0  0  0  0  0  0  0  0  0
    5.3976   11.5641   30.0489 C   0  0  0  0  0  0  0  0  0  0  0  0
    6.2167   12.6621   30.6619 C   0  0  0  0  0  0  0  0  0  0  0  0
  1  2  1  0
  2  3  1  0
  3  4  2  0
  4  5  1  0
  5  6  2  0
  7  6  1  1
  7  8  1  0
  8  9  1  6
  9 10  1  0
 10 11  1  0
 11 12  2  0
 11 13  1  0
 14 13  1  1
 14 15  1  0
 15 16  1  0
 16 17  1  0
 17 18  1  0
 18 19  1  6
 19 20  1  0
 19 21  1  0
 19 22  1  0
 18 23  1  0
  8 24  1  0
 24 25  1  0
 25 26  1  0
 26 27  1  0
 27 28  1  0
 28 29  1  0
 29 30  1  0
  6  2  1  0
 27  7  1  0
 30 28  1  0
 23 14  1  0
M  END
>  <energy_score>  (4995) 
-29.150088

>  <inchikey>  (4995) 
GECIMRNJRZXNFO-UHFFFAOYSA-N

>  <smiles>  (4995) 
Cn1cncc1C1C(CNC(=O)CC2CCCC(C(F)(F)F)O2)CCCN1C1CC1

>  <ref_pdb>  (4995) 
A0309a

>  <alias>  (4995) 
GECIMRNJRZXNFO-UHFFFAOYSA-N-P8-P8-P115-601518

>  <HIPPO Pose ID>  (4995) 
533247

>  <name>  (4995) 
GECIMRNJRZXNFO-UHFFFAOYSA-N-P8-P8-P115-601518

>  <HIPPO Compound ID>  (4995) 
307755

>  <ref_mols>  (4995) 
A0473a,A1209a

>  <distance_score>  (4995) 
1.720268

>  <inspiration_score>  (4995) 
None

$$$$
PFNFTCOHCFTGID-UHFFFAOYSA-N-P371-P28-P371-601518
     RDKit          3D

 24 25  0  0  0  0  0  0  0  0999 V2000
    9.8590   15.4048   18.6260 C   0  0  0  0  0  0  0  0  0  0  0  0
   11.0695   16.0914   19.1623 C   0  0  0  0  0  0  0  0  0  0  0  0
   11.6673   15.2171   20.1223 O   0  0  0  0  0  0  0  0  0  0  0  0
   11.7853   15.7791   21.3499 C   0  0  0  0  0  0  0  0  0  0  0  0
   12.4914   16.7529   21.5755 O   0  0  0  0  0  0  0  0  0  0  0  0
   10.9793   15.0602   22.4115 C   0  0  0  0  0  0  0  0  0  0  0  0
   10.2742   13.8024   21.8992 C   0  0  0  0  0  0  0  0  0  0  0  0
   11.9397   14.6055   23.5225 C   0  0  0  0  0  0  0  0  0  0  0  0
    9.9357   15.9630   22.9139 N   0  0  0  0  0  0  0  0  0  0  0  0
    9.4184   15.8331   24.1862 C   0  0  0  0  0  0  0  0  0  0  0  0
    8.0755   15.6657   23.9567 C   0  0  0  0  0  0  0  0  0  0  0  0
    7.3076   14.8731   24.7430 N   0  0  0  0  0  0  0  0  0  0  0  0
    5.8749   14.3218   24.5229 C   0  0  0  0  0  0  0  0  0  0  0  0
    5.1087   14.5284   23.6683 O   0  0  0  0  0  0  0  0  0  0  0  0
    5.6830   13.3022   25.6717 C   0  0  2  0  0  0  0  0  0  0  0  0
    5.1690   14.0088   26.9145 C   0  0  0  0  0  0  0  0  0  0  0  0
    6.9558   12.6883   26.0063 O   0  0  0  0  0  0  0  0  0  0  0  0
    7.4556   11.8027   25.0014 C   0  0  0  0  0  0  0  0  0  0  0  0
    7.1456   10.3521   25.3182 C   0  0  0  0  0  0  0  0  0  0  0  0
    8.2187    9.5472   24.5867 C   0  0  0  0  0  0  0  0  0  0  0  0
    9.3610   10.5126   24.3070 C   0  0  0  0  0  0  0  0  0  0  0  0
    8.9793   11.7899   25.0286 C   0  0  0  0  0  0  0  0  0  0  0  0
    7.8381   16.2081   22.6857 C   0  0  0  0  0  0  0  0  0  0  0  0
    8.9963   16.4202   22.0459 N   0  0  0  0  0  0  0  0  0  0  0  0
  1  2  1  0
  2  3  1  0
  3  4  1  0
  4  5  2  0
  4  6  1  0
  6  7  1  0
  6  8  1  0
  6  9  1  0
  9 10  1  0
 10 11  2  0
 11 12  1  0
 12 13  1  0
 13 14  2  0
 13 15  1  0
 15 16  1  1
 15 17  1  0
 17 18  1  0
 18 19  1  0
 19 20  1  0
 20 21  1  0
 21 22  1  0
 11 23  1  0
 23 24  2  0
 24  9  1  0
 22 18  1  0
M  END
>  <energy_score>  (4996) 
-14.894367

>  <inchikey>  (4996) 
PFNFTCOHCFTGID-UHFFFAOYSA-N

>  <smiles>  (4996) 
CCOC(=O)C(C)(C)n1cc(NC(=O)C(C)OC2CCCC2)cn1

>  <ref_pdb>  (4996) 
A0309a

>  <alias>  (4996) 
PFNFTCOHCFTGID-UHFFFAOYSA-N-P371-P28-P371-601518

>  <HIPPO Pose ID>  (4996) 
533434

>  <name>  (4996) 
PFNFTCOHCFTGID-UHFFFAOYSA-N-P371-P28-P371-601518

>  <HIPPO Compound ID>  (4996) 
315113

>  <ref_mols>  (4996) 
A4456a,A0556a

>  <distance_score>  (4996) 
1.963677

>  <inspiration_score>  (4996) 
None

$$$$
JCKHIOKTSKUVCS-UHFFFAOYSA-N-P174-P124-P174-601519
     RDKit          3D

 24 25  0  0  0  0  0  0  0  0999 V2000
   12.0408   13.5452   21.8801 C   0  0  0  0  0  0  0  0  0  0  0  0
   12.0548   14.6070   20.8369 C   0  0  0  0  0  0  0  0  0  0  0  0
   11.4046   15.8673   21.3944 C   0  0  2  0  0  0  0  0  0  0  0  0
    9.8664   15.9639   21.1386 C   0  0  0  0  0  0  0  0  0  0  0  0
    9.0073   15.0786   21.9472 N   0  0  0  0  0  0  0  0  0  0  0  0
    8.0258   15.4112   23.1261 C   0  0  0  0  0  0  0  0  0  0  0  0
    7.8163   16.4255   23.6760 O   0  0  0  0  0  0  0  0  0  0  0  0
    7.2031   14.1293   23.5017 C   0  0  0  0  0  0  0  0  0  0  0  0
    6.9992   13.9119   25.0531 C   0  0  1  0  0  0  0  0  0  0  0  0
    5.7307   13.1525   25.4538 C   0  0  0  0  0  0  0  0  0  0  0  0
    8.1512   13.2861   25.7565 N   0  0  0  0  0  0  0  0  0  0  0  0
    9.3522   14.1637   25.7980 C   0  0  0  0  0  0  0  0  0  0  0  0
   10.3668   13.6410   24.7815 C   0  0  0  0  0  0  0  0  0  0  0  0
    9.7800   12.3224   24.4268 C   0  0  0  0  0  0  0  0  0  0  0  0
   10.2086   11.3801   23.5233 C   0  0  0  0  0  0  0  0  0  0  0  0
    9.5483   10.1635   23.3808 C   0  0  0  0  0  0  0  0  0  0  0  0
    8.4402    9.8975   24.1676 C   0  0  0  0  0  0  0  0  0  0  0  0
    7.9591   10.8801   25.0318 C   0  0  0  0  0  0  0  0  0  0  0  0
    8.6016   12.1126   25.1055 C   0  0  0  0  0  0  0  0  0  0  0  0
   12.2220   17.0447   20.8325 C   0  0  0  0  0  0  0  0  0  0  0  0
   12.2080   17.1790   19.3257 C   0  0  0  0  0  0  0  0  0  0  0  0
   13.1186   18.1074   18.9502 F   0  0  0  0  0  0  0  0  0  0  0  0
   12.4969   16.0401   18.6799 F   0  0  0  0  0  0  0  0  0  0  0  0
   10.9879   17.6291   18.9528 F   0  0  0  0  0  0  0  0  0  0  0  0
  1  2  1  0
  3  2  1  6
  3  4  1  0
  4  5  1  0
  5  6  1  0
  6  7  2  0
  6  8  1  0
  8  9  1  0
  9 10  1  6
  9 11  1  0
 11 12  1  0
 12 13  1  0
 13 14  1  0
 14 15  2  0
 15 16  1  0
 16 17  2  0
 17 18  1  0
 18 19  2  0
  3 20  1  0
 20 21  1  0
 21 22  1  0
 21 23  1  0
 21 24  1  0
 19 11  1  0
 19 14  1  0
M  END
>  <energy_score>  (4997) 
-5.394991

>  <inchikey>  (4997) 
JCKHIOKTSKUVCS-UHFFFAOYSA-N

>  <smiles>  (4997) 
CCC(CNC(=O)CC(C)N1CCc2ccccc21)CC(F)(F)F

>  <ref_pdb>  (4997) 
A0239a

>  <alias>  (4997) 
JCKHIOKTSKUVCS-UHFFFAOYSA-N-P174-P124-P174-601519

>  <HIPPO Pose ID>  (4997) 
533584

>  <name>  (4997) 
JCKHIOKTSKUVCS-UHFFFAOYSA-N-P174-P124-P174-601519

>  <HIPPO Compound ID>  (4997) 
305669

>  <ref_mols>  (4997) 
A1778a,A3371a

>  <distance_score>  (4997) 
1.891941

>  <inspiration_score>  (4997) 
None

$$$$
BXYJUCXAWMGCCJ-UHFFFAOYSA-N-P174-P124-P174-601519
     RDKit          3D

 25 27  0  0  0  0  0  0  0  0999 V2000
    5.7883   13.2430   25.5676 C   0  0  0  0  0  0  0  0  0  0  0  0
    7.0402   13.9817   25.0884 C   0  0  2  0  0  0  0  0  0  0  0  0
    7.1447   14.2192   23.5326 C   0  0  0  0  0  0  0  0  0  0  0  0
    7.7555   15.6032   23.1795 C   0  0  0  0  0  0  0  0  0  0  0  0
    7.3301   16.5536   23.7150 O   0  0  0  0  0  0  0  0  0  0  0  0
    8.8179   15.4741   22.0396 N   0  0  0  0  0  0  0  0  0  0  0  0
    9.6449   16.4937   21.3927 C   0  0  0  0  0  0  0  0  0  0  0  0
   10.9907   16.1248   20.7657 C   0  0  1  0  0  0  0  0  0  0  0  0
   11.8098   15.2272   21.5225 C   0  0  0  0  0  0  0  0  0  0  0  0
   12.3898   14.4688   22.1751 N   0  0  0  0  0  0  0  0  0  0  0  0
   11.0746   16.0509   19.2562 C   0  0  0  0  0  0  0  0  0  0  0  0
   11.6756   17.2494   19.9561 C   0  0  2  0  0  0  0  0  0  0  0  0
   13.1233   17.5417   19.7563 C   0  0  0  0  0  0  0  0  0  0  0  0
   13.2680   18.3668   18.6881 F   0  0  0  0  0  0  0  0  0  0  0  0
   13.6555   18.2057   20.8064 F   0  0  0  0  0  0  0  0  0  0  0  0
   13.8485   16.4387   19.5178 F   0  0  0  0  0  0  0  0  0  0  0  0
    8.2472   13.3632   25.7058 N   0  0  0  0  0  0  0  0  0  0  0  0
    9.4004   14.2994   25.8050 C   0  0  0  0  0  0  0  0  0  0  0  0
   10.4248   13.9422   24.7280 C   0  0  0  0  0  0  0  0  0  0  0  0
    9.9201   12.6264   24.2673 C   0  0  0  0  0  0  0  0  0  0  0  0
   10.3882   11.8323   23.2492 C   0  0  0  0  0  0  0  0  0  0  0  0
    9.7569   10.6077   23.0081 C   0  0  0  0  0  0  0  0  0  0  0  0
    8.6840   10.1874   23.7894 C   0  0  0  0  0  0  0  0  0  0  0  0
    8.1661   11.0420   24.7557 C   0  0  0  0  0  0  0  0  0  0  0  0
    8.7602   12.2827   24.9463 C   0  0  0  0  0  0  0  0  0  0  0  0
  2  1  1  6
  2  3  1  0
  3  4  1  0
  4  5  2  0
  4  6  1  0
  6  7  1  0
  8  7  1  6
  8  9  1  0
  9 10  3  0
  8 11  1  0
 11 12  1  0
 12 13  1  1
 13 14  1  0
 13 15  1  0
 13 16  1  0
  2 17  1  0
 17 18  1  0
 18 19  1  0
 19 20  1  0
 20 21  2  0
 21 22  1  0
 22 23  2  0
 23 24  1  0
 24 25  2  0
 12  8  1  0
 25 17  1  0
 25 20  1  0
M  END
>  <energy_score>  (4998) 
-8.966156

>  <inchikey>  (4998) 
BXYJUCXAWMGCCJ-UHFFFAOYSA-N

>  <smiles>  (4998) 
CC(CC(=O)NCC1(C#N)CC1C(F)(F)F)N1CCc2ccccc21

>  <ref_pdb>  (4998) 
A0239a

>  <alias>  (4998) 
BXYJUCXAWMGCCJ-UHFFFAOYSA-N-P174-P124-P174-601519

>  <HIPPO Pose ID>  (4998) 
533590

>  <name>  (4998) 
BXYJUCXAWMGCCJ-UHFFFAOYSA-N-P174-P124-P174-601519

>  <HIPPO Compound ID>  (4998) 
305672

>  <ref_mols>  (4998) 
A1778a,A3371a

>  <distance_score>  (4998) 
1.943017

>  <inspiration_score>  (4998) 
None

$$$$
PDXMAARXQDRTCT-UHFFFAOYSA-N-P174-P124-P174-601519
     RDKit          3D

 26 28  0  0  0  0  0  0  0  0999 V2000
    6.0930   15.1515   24.9398 C   0  0  0  0  0  0  0  0  0  0  0  0
    7.0319   14.2166   24.1969 C   0  0  1  0  0  0  0  0  0  0  0  0
    7.7818   14.8028   22.8952 C   0  0  0  0  0  0  0  0  0  0  0  0
    8.6320   16.1234   22.9191 C   0  0  0  0  0  0  0  0  0  0  0  0
    8.5481   16.8655   23.8258 O   0  0  0  0  0  0  0  0  0  0  0  0
    9.5767   16.1616   21.6481 N   0  0  0  0  0  0  0  0  0  0  0  0
   10.6823   17.0881   21.2985 C   0  0  2  0  0  0  0  0  0  0  0  0
   10.4998   18.0887   20.1439 C   0  0  0  0  0  0  0  0  0  0  0  0
   11.8239   18.8544   19.9221 C   0  0  0  0  0  0  0  0  0  0  0  0
   12.9194   17.9534   19.3554 C   0  0  0  0  0  0  0  0  0  0  0  0
   12.7271   16.5107   19.8041 C   0  0  0  0  0  0  0  0  0  0  0  0
   12.1333   16.4892   21.2233 C   0  0  2  0  0  0  0  0  0  0  0  0
   12.2981   15.1571   21.8974 C   0  0  0  0  0  0  0  0  0  0  0  0
   11.7707   14.0174   21.0960 C   0  0  0  0  0  0  0  0  0  0  0  0
   10.5224   14.2174   20.6283 F   0  0  0  0  0  0  0  0  0  0  0  0
   12.5828   13.7303   20.0567 F   0  0  0  0  0  0  0  0  0  0  0  0
   11.7390   12.9545   21.9184 F   0  0  0  0  0  0  0  0  0  0  0  0
    7.8447   13.5743   25.2515 N   0  0  0  0  0  0  0  0  0  0  0  0
    8.9921   14.3562   25.7598 C   0  0  0  0  0  0  0  0  0  0  0  0
   10.2361   13.8861   25.0098 C   0  0  0  0  0  0  0  0  0  0  0  0
    9.7752   12.5568   24.5381 C   0  0  0  0  0  0  0  0  0  0  0  0
   10.4567   11.6030   23.8436 C   0  0  0  0  0  0  0  0  0  0  0  0
    9.8070   10.4185   23.4715 C   0  0  0  0  0  0  0  0  0  0  0  0
    8.4753   10.2056   23.8066 C   0  0  0  0  0  0  0  0  0  0  0  0
    7.7702   11.2129   24.4491 C   0  0  0  0  0  0  0  0  0  0  0  0
    8.4291   12.3899   24.7710 C   0  0  0  0  0  0  0  0  0  0  0  0
  2  1  1  1
  2  3  1  0
  3  4  1  0
  4  5  2  0
  4  6  1  0
  7  6  1  6
  7  8  1  0
  8  9  1  0
  9 10  1  0
 10 11  1  0
 11 12  1  0
 12 13  1  6
 13 14  1  0
 14 15  1  0
 14 16  1  0
 14 17  1  0
  2 18  1  0
 18 19  1  0
 19 20  1  0
 20 21  1  0
 21 22  2  0
 22 23  1  0
 23 24  2  0
 24 25  1  0
 25 26  2  0
 12  7  1  0
 26 18  1  0
 26 21  1  0
M  END
>  <energy_score>  (4999) 
-7.84912

>  <inchikey>  (4999) 
PDXMAARXQDRTCT-UHFFFAOYSA-N

>  <smiles>  (4999) 
CC(CC(=O)NC1CCCCC1CC(F)(F)F)N1CCc2ccccc21

>  <ref_pdb>  (4999) 
A0239a

>  <alias>  (4999) 
PDXMAARXQDRTCT-UHFFFAOYSA-N-P174-P124-P174-601519

>  <HIPPO Pose ID>  (4999) 
533596

>  <name>  (4999) 
PDXMAARXQDRTCT-UHFFFAOYSA-N-P174-P124-P174-601519

>  <HIPPO Compound ID>  (4999) 
305675

>  <ref_mols>  (4999) 
A1778a,A3371a

>  <distance_score>  (4999) 
1.992586

>  <inspiration_score>  (4999) 
None

$$$$
ZDGSYGLFOLLJNA-UHFFFAOYSA-N-P174-P124-P174-601519
     RDKit          3D

 27 28  0  0  0  0  0  0  0  0999 V2000
    5.4341   13.9716   25.7622 C   0  0  0  0  0  0  0  0  0  0  0  0
    6.5784   13.6525   24.7928 C   0  0  1  0  0  0  0  0  0  0  0  0
    6.8929   14.8475   23.8409 C   0  0  0  0  0  0  0  0  0  0  0  0
    7.4961   14.5138   22.4452 C   0  0  0  0  0  0  0  0  0  0  0  0
    7.1282   13.5949   21.8134 O   0  0  0  0  0  0  0  0  0  0  0  0
    8.5222   15.6528   22.0852 N   0  0  0  0  0  0  0  0  0  0  0  0
    9.2261   15.9358   20.8333 C   0  0  0  0  0  0  0  0  0  0  0  0
   10.7525   15.6267   20.6727 C   0  0  0  0  0  0  0  0  0  0  0  0
   11.4519   16.6900   19.7916 C   0  0  0  0  0  0  0  0  0  0  0  0
   12.8285   16.2959   19.2757 C   0  0  0  0  0  0  0  0  0  0  0  0
   12.7806   15.1774   18.5302 F   0  0  0  0  0  0  0  0  0  0  0  0
   13.3609   17.2928   18.5346 F   0  0  0  0  0  0  0  0  0  0  0  0
   13.6851   16.0868   20.2966 F   0  0  0  0  0  0  0  0  0  0  0  0
   11.5113   15.4552   21.9806 C   0  0  0  0  0  0  0  0  0  0  0  0
   11.8800   14.0105   22.1047 C   0  0  0  0  0  0  0  0  0  0  0  0
   12.4949   13.7599   23.2792 F   0  0  0  0  0  0  0  0  0  0  0  0
   10.7461   13.2909   22.0495 F   0  0  0  0  0  0  0  0  0  0  0  0
   12.6813   13.6140   21.1062 F   0  0  0  0  0  0  0  0  0  0  0  0
    7.6935   13.2090   25.6533 N   0  0  0  0  0  0  0  0  0  0  0  0
    8.7997   14.1464   25.9416 C   0  0  0  0  0  0  0  0  0  0  0  0
    9.9822   13.7719   25.0448 C   0  0  0  0  0  0  0  0  0  0  0  0
    9.6040   12.3994   24.6218 C   0  0  0  0  0  0  0  0  0  0  0  0
   10.2838   11.5047   23.8319 C   0  0  0  0  0  0  0  0  0  0  0  0
    9.7010   10.2788   23.4983 C   0  0  0  0  0  0  0  0  0  0  0  0
    8.4461    9.9446   23.9910 C   0  0  0  0  0  0  0  0  0  0  0  0
    7.7489   10.8639   24.7672 C   0  0  0  0  0  0  0  0  0  0  0  0
    8.3269   12.1000   25.0393 C   0  0  0  0  0  0  0  0  0  0  0  0
  2  1  1  1
  2  3  1  0
  3  4  1  0
  4  5  2  0
  4  6  1  0
  6  7  1  0
  7  8  1  0
  8  9  1  0
  9 10  1  0
 10 11  1  0
 10 12  1  0
 10 13  1  0
  8 14  1  0
 14 15  1  0
 15 16  1  0
 15 17  1  0
 15 18  1  0
  2 19  1  0
 19 20  1  0
 20 21  1  0
 21 22  1  0
 22 23  2  0
 23 24  1  0
 24 25  2  0
 25 26  1  0
 26 27  2  0
 27 19  1  0
 27 22  1  0
M  END
>  <energy_score>  (5000) 
-3.906178

>  <inchikey>  (5000) 
ZDGSYGLFOLLJNA-UHFFFAOYSA-N

>  <smiles>  (5000) 
CC(CC(=O)NCC(CC(F)(F)F)CC(F)(F)F)N1CCc2ccccc21

>  <ref_pdb>  (5000) 
A0239a

>  <alias>  (5000) 
ZDGSYGLFOLLJNA-UHFFFAOYSA-N-P174-P124-P174-601519

>  <HIPPO Pose ID>  (5000) 
533608

>  <name>  (5000) 
ZDGSYGLFOLLJNA-UHFFFAOYSA-N-P174-P124-P174-601519

>  <HIPPO Compound ID>  (5000) 
305681

>  <ref_mols>  (5000) 
A1778a,A3371a

>  <distance_score>  (5000) 
1.883217

>  <inspiration_score>  (5000) 
None

$$$$
MKLHGMPLQSOESN-UHFFFAOYSA-N-P174-P124-P174-601519
     RDKit          3D

 28 31  0  0  0  0  0  0  0  0999 V2000
    5.7329   12.3654   25.7906 C   0  0  0  0  0  0  0  0  0  0  0  0
    6.7792   13.3714   25.3018 C   0  0  2  0  0  0  0  0  0  0  0  0
    6.7034   13.6819   23.7713 C   0  0  0  0  0  0  0  0  0  0  0  0
    7.2302   15.0809   23.4510 C   0  0  0  0  0  0  0  0  0  0  0  0
    6.7062   16.0070   23.9372 O   0  0  0  0  0  0  0  0  0  0  0  0
    8.4794   15.0003   22.5202 N   0  0  0  0  0  0  0  0  0  0  0  0
    9.3889   16.0339   22.0799 C   0  0  0  0  0  0  0  0  0  0  0  0
   10.3660   15.8170   20.9034 C   0  0  2  0  0  0  0  0  0  0  0  0
   11.4910   14.7797   21.0734 C   0  0  2  0  0  0  0  0  0  0  0  0
   12.5996   15.3024   21.9931 C   0  0  0  0  0  0  0  0  0  0  0  0
   13.3289   16.5129   21.3701 C   0  0  0  0  0  0  0  0  0  0  0  0
   12.5529   16.9809   20.1444 C   0  0  1  0  0  0  0  0  0  0  0  0
   12.6838   15.8635   19.1248 C   0  0  0  0  0  0  0  0  0  0  0  0
   12.1269   14.5590   19.6902 C   0  0  0  0  0  0  0  0  0  0  0  0
   11.0835   17.1699   20.5821 C   0  0  1  0  0  0  0  0  0  0  0  0
   10.2607   17.9538   19.6112 C   0  0  0  0  0  0  0  0  0  0  0  0
   10.8889   19.1068   19.2835 F   0  0  0  0  0  0  0  0  0  0  0  0
    9.9579   17.2828   18.4978 F   0  0  0  0  0  0  0  0  0  0  0  0
    9.0871   18.3168   20.1790 F   0  0  0  0  0  0  0  0  0  0  0  0
    8.1340   12.9672   25.7724 N   0  0  0  0  0  0  0  0  0  0  0  0
    9.1302   14.0818   25.7927 C   0  0  0  0  0  0  0  0  0  0  0  0
   10.2975   13.7303   24.8645 C   0  0  0  0  0  0  0  0  0  0  0  0
    9.8445   12.4426   24.2898 C   0  0  0  0  0  0  0  0  0  0  0  0
   10.3573   11.7378   23.2303 C   0  0  0  0  0  0  0  0  0  0  0  0
    9.7940   10.4977   22.9103 C   0  0  0  0  0  0  0  0  0  0  0  0
    8.7838    9.9459   23.6864 C   0  0  0  0  0  0  0  0  0  0  0  0
    8.2416   10.6951   24.7190 C   0  0  0  0  0  0  0  0  0  0  0  0
    8.7237   11.9769   24.9555 C   0  0  0  0  0  0  0  0  0  0  0  0
  2  1  1  6
  2  3  1  0
  3  4  1  0
  4  5  2  0
  4  6  1  0
  6  7  1  0
  8  7  1  1
  8  9  1  0
  9 10  1  1
 10 11  1  0
 12 11  1  1
 12 13  1  0
 13 14  1  0
 12 15  1  0
 15 16  1  6
 16 17  1  0
 16 18  1  0
 16 19  1  0
  2 20  1  0
 20 21  1  0
 21 22  1  0
 22 23  1  0
 23 24  2  0
 24 25  1  0
 25 26  2  0
 26 27  1  0
 27 28  2  0
 15  8  1  0
 28 20  1  0
 14  9  1  0
 28 23  1  0
M  END
>  <energy_score>  (5001) 
-5.539752

>  <inchikey>  (5001) 
MKLHGMPLQSOESN-UHFFFAOYSA-N

>  <smiles>  (5001) 
CC(CC(=O)NCC1C2CCC(CC2)C1C(F)(F)F)N1CCc2ccccc21

>  <ref_pdb>  (5001) 
A0239a

>  <alias>  (5001) 
MKLHGMPLQSOESN-UHFFFAOYSA-N-P174-P124-P174-601519

>  <HIPPO Pose ID>  (5001) 
533610

>  <name>  (5001) 
MKLHGMPLQSOESN-UHFFFAOYSA-N-P174-P124-P174-601519

>  <HIPPO Compound ID>  (5001) 
305682

>  <ref_mols>  (5001) 
A1778a,A3371a

>  <distance_score>  (5001) 
1.964653

>  <inspiration_score>  (5001) 
None

$$$$
VUXAOGBOVYINGM-UHFFFAOYSA-N-P174-P124-P174-601519
     RDKit          3D

 22 25  0  0  0  0  0  0  0  0999 V2000
   13.9897   14.7934   24.0051 O   0  0  0  0  0  0  0  0  0  0  0  0
   13.4352   13.8537   24.4072 C   0  0  0  0  0  0  0  0  0  0  0  0
   13.7382   12.9600   25.6320 N   0  0  0  0  0  0  0  0  0  0  0  0
   14.7275   13.0957   26.6636 C   0  0  2  0  0  0  0  0  0  0  0  0
   15.7812   14.1850   26.6643 C   0  0  0  0  0  0  0  0  0  0  0  0
   16.8227   13.7142   27.6917 C   0  0  0  0  0  0  0  0  0  0  0  0
   16.7712   12.2179   27.6495 C   0  0  1  0  0  0  0  0  0  0  0  0
   15.7337   11.3709   28.3250 C   0  0  0  0  0  0  0  0  0  0  0  0
   15.5251   11.8117   26.8873 C   0  0  1  0  0  0  0  0  0  0  0  0
   15.8387   10.8962   25.7395 C   0  0  0  0  0  0  0  0  0  0  0  0
   14.9395   10.9914   24.6570 O   0  0  0  0  0  0  0  0  0  0  0  0
   12.2149   13.3045   23.5876 C   0  0  0  0  0  0  0  0  0  0  0  0
   11.2876   14.3858   22.9981 C   0  0  0  0  0  0  0  0  0  0  0  0
   10.1491   14.8378   23.9269 C   0  0  0  0  0  0  0  0  0  0  0  0
    9.0494   13.8865   24.3667 C   0  0  0  0  0  0  0  0  0  0  0  0
    8.0270   14.4614   25.1337 C   0  0  0  0  0  0  0  0  0  0  0  0
    6.9890   13.6902   25.6490 C   0  0  0  0  0  0  0  0  0  0  0  0
    6.9468   12.3236   25.4047 C   0  0  0  0  0  0  0  0  0  0  0  0
    7.9550   11.7234   24.6631 C   0  0  0  0  0  0  0  0  0  0  0  0
    9.0172   12.4919   24.1622 C   0  0  0  0  0  0  0  0  0  0  0  0
   10.1767   11.7711   23.5496 C   0  0  0  0  0  0  0  0  0  0  0  0
   11.3930   12.2726   24.3043 C   0  0  0  0  0  0  0  0  0  0  0  0
  1  2  2  0
  2  3  1  0
  4  3  1  6
  4  5  1  0
  5  6  1  0
  7  6  1  1
  7  8  1  0
  8  9  1  0
  9 10  1  6
 10 11  1  0
  2 12  1  0
 12 13  1  0
 13 14  1  0
 14 15  1  0
 15 16  2  0
 16 17  1  0
 17 18  2  0
 18 19  1  0
 19 20  2  0
 20 21  1  0
 21 22  1  0
  9  4  1  0
 22 12  1  0
  9  7  1  0
 20 15  1  0
M  END
>  <energy_score>  (5002) 
-45.016038

>  <inchikey>  (5002) 
VUXAOGBOVYINGM-UHFFFAOYSA-N

>  <smiles>  (5002) 
O=C(NC1CCC2CC21CO)C1CCc2ccccc2CC1

>  <ref_pdb>  (5002) 
A0239a

>  <alias>  (5002) 
VUXAOGBOVYINGM-UHFFFAOYSA-N-P174-P124-P174-601519

>  <HIPPO Pose ID>  (5002) 
533864

>  <name>  (5002) 
VUXAOGBOVYINGM-UHFFFAOYSA-N-P174-P124-P174-601519

>  <HIPPO Compound ID>  (5002) 
308727

>  <ref_mols>  (5002) 
A1778a,A3371a

>  <distance_score>  (5002) 
1.953176

>  <inspiration_score>  (5002) 
None

$$$$
HBRAFSBJTJIQJI-UHFFFAOYSA-N-P124-P124-P174-601519
     RDKit          3D

 24 27  0  0  0  0  0  0  0  0999 V2000
   16.6585   12.6114   25.9637 C   0  0  0  0  0  0  0  0  0  0  0  0
   15.5541   13.3457   26.6970 C   0  0  1  0  0  0  0  0  0  0  0  0
   14.2580   12.9782   26.1163 N   0  0  0  0  0  0  0  0  0  0  0  0
   13.7826   12.9659   24.6364 C   0  0  0  0  0  0  0  0  0  0  0  0
   14.3239   13.3182   23.6680 O   0  0  0  0  0  0  0  0  0  0  0  0
   12.3903   12.2827   24.6112 C   0  0  0  0  0  0  0  0  0  0  0  0
   11.3905   13.0092   25.4963 C   0  0  0  0  0  0  0  0  0  0  0  0
   10.2388   13.7000   24.7672 C   0  0  0  0  0  0  0  0  0  0  0  0
    9.1352   12.6999   24.7561 C   0  0  0  0  0  0  0  0  0  0  0  0
    7.9586   13.1014   25.4045 C   0  0  0  0  0  0  0  0  0  0  0  0
    7.0030   12.1798   25.7593 C   0  0  0  0  0  0  0  0  0  0  0  0
    7.2375   10.8496   25.4717 C   0  0  0  0  0  0  0  0  0  0  0  0
    8.3770   10.4483   24.7574 C   0  0  0  0  0  0  0  0  0  0  0  0
    9.3403   11.3685   24.3538 C   0  0  0  0  0  0  0  0  0  0  0  0
   10.5523   10.8364   23.6044 C   0  0  0  0  0  0  0  0  0  0  0  0
   11.7212   11.7999   23.3015 C   0  0  0  0  0  0  0  0  0  0  0  0
   15.5743   12.9331   28.1849 C   0  0  0  0  0  0  0  0  0  0  0  0
   14.8634   14.0711   28.9056 C   0  0  0  0  0  0  0  0  0  0  0  0
   15.0788   15.2417   28.1131 O   0  0  0  0  0  0  0  0  0  0  0  0
   15.6810   14.8401   26.8536 C   0  0  2  0  0  0  0  0  0  0  0  0
   15.6152   15.8453   25.7293 C   0  0  0  0  0  0  0  0  0  0  0  0
   16.8926   15.6171   26.4420 C   0  0  0  0  0  0  0  0  0  0  0  0
   17.4087   16.5987   27.2581 F   0  0  0  0  0  0  0  0  0  0  0  0
   17.9522   15.0500   25.7794 F   0  0  0  0  0  0  0  0  0  0  0  0
  2  1  1  6
  2  3  1  0
  3  4  1  0
  4  5  2  0
  4  6  1  0
  6  7  1  0
  7  8  1  0
  8  9  1  0
  9 10  2  0
 10 11  1  0
 11 12  2  0
 12 13  1  0
 13 14  2  0
 14 15  1  0
 15 16  1  0
  2 17  1  0
 17 18  1  0
 18 19  1  0
 19 20  1  0
 20 21  1  6
 21 22  1  0
 22 23  1  0
 22 24  1  0
 20  2  1  0
 16  6  1  0
 22 20  1  0
 14  9  1  0
M  END
>  <energy_score>  (5003) 
-12.919072

>  <inchikey>  (5003) 
HBRAFSBJTJIQJI-UHFFFAOYSA-N

>  <smiles>  (5003) 
CC1(NC(=O)C2CCc3ccccc3CC2)CCOC12CC2(F)F

>  <ref_pdb>  (5003) 
A0239a

>  <alias>  (5003) 
HBRAFSBJTJIQJI-UHFFFAOYSA-N-P124-P124-P174-601519

>  <HIPPO Pose ID>  (5003) 
533979

>  <name>  (5003) 
HBRAFSBJTJIQJI-UHFFFAOYSA-N-P124-P124-P174-601519

>  <HIPPO Compound ID>  (5003) 
308785

>  <ref_mols>  (5003) 
A1778a,A3371a

>  <distance_score>  (5003) 
1.995008

>  <inspiration_score>  (5003) 
None

$$$$
ZPKSJKHOBDDPBW-UHFFFAOYSA-N-P248-P135-P248-601519
     RDKit          3D

 20 22  0  0  0  0  0  0  0  0999 V2000
    9.6804   16.5980   19.7548 C   0  0  0  0  0  0  0  0  0  0  0  0
   10.6381   15.7655   20.3595 N   0  0  0  0  0  0  0  0  0  0  0  0
   11.4261   14.9305   19.6070 C   0  0  0  0  0  0  0  0  0  0  0  0
   11.3672   14.6493   18.4252 O   0  0  0  0  0  0  0  0  0  0  0  0
   12.4616   14.4554   20.5262 C   0  0  2  0  0  0  0  0  0  0  0  0
   12.0834   13.3851   21.2733 F   0  0  0  0  0  0  0  0  0  0  0  0
   12.6667   15.6010   21.4763 C   0  0  0  0  0  0  0  0  0  0  0  0
   11.2657   16.1381   21.5951 C   0  0  2  0  0  0  0  0  0  0  0  0
   10.6552   15.7016   22.8994 C   0  0  0  0  0  0  0  0  0  0  0  0
   11.2507   15.8929   23.9627 O   0  0  0  0  0  0  0  0  0  0  0  0
    9.4023   15.1919   22.8404 O   0  0  0  0  0  0  0  0  0  0  0  0
    9.2686   13.7823   22.5513 C   0  0  0  0  0  0  0  0  0  0  0  0
    9.5896   12.9022   23.7422 C   0  0  0  0  0  0  0  0  0  0  0  0
    8.9240   11.5566   23.7544 N   0  0  0  0  0  0  0  0  0  0  0  0
    9.3367   10.4987   23.0106 C   0  0  0  0  0  0  0  0  0  0  0  0
    8.7413    9.3863   23.5479 C   0  0  0  0  0  0  0  0  0  0  0  0
    7.9238    9.8986   24.5729 C   0  0  0  0  0  0  0  0  0  0  0  0
    8.0356   11.2206   24.7058 N   0  0  0  0  0  0  0  0  0  0  0  0
   10.9769   13.0113   24.3559 C   0  0  0  0  0  0  0  0  0  0  0  0
    9.7958   13.5784   25.0844 C   0  0  0  0  0  0  0  0  0  0  0  0
  1  2  1  0
  2  3  1  0
  3  4  2  0
  3  5  1  0
  5  6  1  1
  5  7  1  0
  7  8  1  0
  8  9  1  1
  9 10  2  0
  9 11  1  0
 11 12  1  0
 12 13  1  0
 13 14  1  0
 14 15  1  0
 15 16  2  0
 16 17  1  0
 17 18  2  0
 13 19  1  0
 19 20  1  0
  8  2  1  0
 20 13  1  0
 18 14  1  0
M  END
>  <energy_score>  (5004) 
-5.912983

>  <inchikey>  (5004) 
ZPKSJKHOBDDPBW-UHFFFAOYSA-N

>  <smiles>  (5004) 
CN1C(=O)C(F)CC1C(=O)OCC1(n2cccn2)CC1

>  <ref_pdb>  (5004) 
A0239a

>  <alias>  (5004) 
ZPKSJKHOBDDPBW-UHFFFAOYSA-N-P248-P135-P248-601519

>  <HIPPO Pose ID>  (5004) 
534230

>  <name>  (5004) 
ZPKSJKHOBDDPBW-UHFFFAOYSA-N-P248-P135-P248-601519

>  <HIPPO Compound ID>  (5004) 
291925

>  <ref_mols>  (5004) 
A3956a,A2629a

>  <distance_score>  (5004) 
1.799412

>  <inspiration_score>  (5004) 
None

$$$$
WMOYKYFPVNLARC-UHFFFAOYSA-N-P248-P135-P248-601519
     RDKit          3D

 20 22  0  0  0  0  0  0  0  0999 V2000
   10.4258   15.1580   18.3092 C   0  0  0  0  0  0  0  0  0  0  0  0
    9.8891   15.5370   19.6535 C   0  0  0  0  0  0  0  0  0  0  0  0
   10.6048   15.0604   20.7924 N   0  0  0  0  0  0  0  0  0  0  0  0
   11.9994   15.0019   20.7019 C   0  0  0  0  0  0  0  0  0  0  0  0
   12.6558   14.6632   19.7345 O   0  0  0  0  0  0  0  0  0  0  0  0
   12.5108   15.6221   21.9611 C   0  0  0  0  0  0  0  0  0  0  0  0
   11.3941   15.3817   22.9423 C   0  0  0  0  0  0  0  0  0  0  0  0
   10.1974   15.6280   22.0557 C   0  0  2  0  0  0  0  0  0  0  0  0
    8.9526   15.1540   22.7643 C   0  0  0  0  0  0  0  0  0  0  0  0
    8.5290   15.7198   23.7675 O   0  0  0  0  0  0  0  0  0  0  0  0
    8.3969   14.0205   22.2877 O   0  0  0  0  0  0  0  0  0  0  0  0
    7.3953   13.5607   23.1981 C   0  0  0  0  0  0  0  0  0  0  0  0
    8.0265   12.7443   24.2947 C   0  0  0  0  0  0  0  0  0  0  0  0
    8.3293   11.3329   23.9430 N   0  0  0  0  0  0  0  0  0  0  0  0
    9.3555   10.9400   23.1416 C   0  0  0  0  0  0  0  0  0  0  0  0
    9.4006    9.5691   23.2382 C   0  0  0  0  0  0  0  0  0  0  0  0
    8.4003    9.2632   24.1690 C   0  0  0  0  0  0  0  0  0  0  0  0
    7.7389   10.3299   24.6018 N   0  0  0  0  0  0  0  0  0  0  0  0
    7.5014   13.0315   25.6894 C   0  0  0  0  0  0  0  0  0  0  0  0
    8.9072   13.4032   25.3459 C   0  0  0  0  0  0  0  0  0  0  0  0
  1  2  1  0
  2  3  1  0
  3  4  1  0
  4  5  2  0
  4  6  1  0
  6  7  1  0
  7  8  1  0
  8  9  1  1
  9 10  2  0
  9 11  1  0
 11 12  1  0
 12 13  1  0
 13 14  1  0
 14 15  1  0
 15 16  2  0
 16 17  1  0
 17 18  2  0
 13 19  1  0
 19 20  1  0
  8  3  1  0
 20 13  1  0
 18 14  1  0
M  END
>  <energy_score>  (5005) 
-7.220221

>  <inchikey>  (5005) 
WMOYKYFPVNLARC-UHFFFAOYSA-N

>  <smiles>  (5005) 
CCN1C(=O)CCC1C(=O)OCC1(n2cccn2)CC1

>  <ref_pdb>  (5005) 
A0239a

>  <alias>  (5005) 
WMOYKYFPVNLARC-UHFFFAOYSA-N-P248-P135-P248-601519

>  <HIPPO Pose ID>  (5005) 
534232

>  <name>  (5005) 
WMOYKYFPVNLARC-UHFFFAOYSA-N-P248-P135-P248-601519

>  <HIPPO Compound ID>  (5005) 
291926

>  <ref_mols>  (5005) 
A3956a,A2629a

>  <distance_score>  (5005) 
1.969398

>  <inspiration_score>  (5005) 
None

$$$$
SUKIVTSFFLWGSW-UHFFFAOYSA-N-P248-P135-P248-601519
     RDKit          3D

 21 22  0  0  0  0  0  0  0  0999 V2000
    9.0478   16.3248   21.0498 C   0  0  0  0  0  0  0  0  0  0  0  0
   10.2224   15.6556   20.5868 N   0  0  0  0  0  0  0  0  0  0  0  0
   10.4233   15.4669   19.2236 C   0  0  0  0  0  0  0  0  0  0  0  0
    9.6007   15.6460   18.3453 O   0  0  0  0  0  0  0  0  0  0  0  0
   11.8389   15.0882   18.9793 C   0  0  2  0  0  0  0  0  0  0  0  0
   12.0115   13.8562   18.4543 F   0  0  0  0  0  0  0  0  0  0  0  0
   12.4281   15.0710   20.3605 C   0  0  0  0  0  0  0  0  0  0  0  0
   11.4814   15.8094   21.2587 C   0  0  2  0  0  0  0  0  0  0  0  0
   11.6500   15.3054   22.6716 C   0  0  0  0  0  0  0  0  0  0  0  0
   11.7440   16.0266   23.6578 O   0  0  0  0  0  0  0  0  0  0  0  0
   11.7486   13.9646   22.7760 O   0  0  0  0  0  0  0  0  0  0  0  0
   10.5516   13.2445   22.4626 C   0  0  0  0  0  0  0  0  0  0  0  0
    9.6780   13.1704   23.6984 C   0  0  0  0  0  0  0  0  0  0  0  0
    8.7881   14.4170   23.8353 C   0  0  0  0  0  0  0  0  0  0  0  0
   10.5380   13.1871   24.9569 C   0  0  0  0  0  0  0  0  0  0  0  0
    8.8583   11.9606   23.6699 N   0  0  0  0  0  0  0  0  0  0  0  0
    7.6160   11.9110   24.2047 C   0  0  0  0  0  0  0  0  0  0  0  0
    7.5600   10.6902   24.7915 C   0  0  0  0  0  0  0  0  0  0  0  0
    6.2344   10.4347   26.2611 I   0  0  0  0  0  0  0  0  0  0  0  0
    8.5688    9.9344   24.1887 C   0  0  0  0  0  0  0  0  0  0  0  0
    9.3862   10.7312   23.4814 N   0  0  0  0  0  0  0  0  0  0  0  0
  1  2  1  0
  2  3  1  0
  3  4  2  0
  3  5  1  0
  5  6  1  1
  5  7  1  0
  7  8  1  0
  8  9  1  1
  9 10  2  0
  9 11  1  0
 11 12  1  0
 12 13  1  0
 13 14  1  0
 13 15  1  0
 13 16  1  0
 16 17  1  0
 17 18  2  0
 18 19  1  0
 18 20  1  0
 20 21  2  0
  8  2  1  0
 21 16  1  0
M  END
>  <energy_score>  (5006) 
-6.302357

>  <inchikey>  (5006) 
SUKIVTSFFLWGSW-UHFFFAOYSA-N

>  <smiles>  (5006) 
CN1C(=O)C(F)CC1C(=O)OCC(C)(C)n1cc(I)cn1

>  <ref_pdb>  (5006) 
A0239a

>  <alias>  (5006) 
SUKIVTSFFLWGSW-UHFFFAOYSA-N-P248-P135-P248-601519

>  <HIPPO Pose ID>  (5006) 
534234

>  <name>  (5006) 
SUKIVTSFFLWGSW-UHFFFAOYSA-N-P248-P135-P248-601519

>  <HIPPO Compound ID>  (5006) 
291927

>  <ref_mols>  (5006) 
A3956a,A2629a

>  <distance_score>  (5006) 
1.633969

>  <inspiration_score>  (5006) 
None

$$$$
WZUAYRVKHOPKOE-UHFFFAOYSA-N-P135-P135-P248-601519
     RDKit          3D

 21 23  0  0  0  0  0  0  0  0999 V2000
   11.9266   15.8327   17.6271 C   0  0  0  0  0  0  0  0  0  0  0  0
   12.6085   14.9564   18.6482 C   0  0  0  0  0  0  0  0  0  0  0  0
   11.8214   13.7909   19.1028 C   0  0  0  0  0  0  0  0  0  0  0  0
   13.2222   15.6676   19.7126 N   0  0  0  0  0  0  0  0  0  0  0  0
   14.1412   16.6220   19.2830 C   0  0  0  0  0  0  0  0  0  0  0  0
   14.6206   16.7038   18.1616 O   0  0  0  0  0  0  0  0  0  0  0  0
   14.2884   17.6581   20.3359 C   0  0  0  0  0  0  0  0  0  0  0  0
   13.5339   17.0462   21.4832 C   0  0  0  0  0  0  0  0  0  0  0  0
   12.5111   16.1258   20.8723 C   0  0  2  0  0  0  0  0  0  0  0  0
   11.8172   15.2613   21.9736 C   0  0  0  0  0  0  0  0  0  0  0  0
   11.1121   15.7902   22.8262 O   0  0  0  0  0  0  0  0  0  0  0  0
   12.0086   13.9170   21.9692 O   0  0  0  0  0  0  0  0  0  0  0  0
   11.6829   13.1809   23.1922 C   0  0  0  0  0  0  0  0  0  0  0  0
   10.2202   12.7874   23.4806 C   0  0  0  0  0  0  0  0  0  0  0  0
    9.9762   11.3334   23.7811 N   0  0  0  0  0  0  0  0  0  0  0  0
   10.1988   10.3382   22.8837 C   0  0  0  0  0  0  0  0  0  0  0  0
    9.4727    9.2551   23.2991 C   0  0  0  0  0  0  0  0  0  0  0  0
    8.7878    9.7278   24.4287 C   0  0  0  0  0  0  0  0  0  0  0  0
    9.1397   10.9642   24.7746 N   0  0  0  0  0  0  0  0  0  0  0  0
    9.4501   13.8206   24.3131 C   0  0  0  0  0  0  0  0  0  0  0  0
    9.0132   13.5295   22.9248 C   0  0  0  0  0  0  0  0  0  0  0  0
  1  2  1  0
  2  3  1  0
  2  4  1  0
  4  5  1  0
  5  6  2  0
  5  7  1  0
  7  8  1  0
  8  9  1  0
  9 10  1  1
 10 11  2  0
 10 12  1  0
 12 13  1  0
 13 14  1  0
 14 15  1  0
 15 16  1  0
 16 17  2  0
 17 18  1  0
 18 19  2  0
 14 20  1  0
 20 21  1  0
  9  4  1  0
 21 14  1  0
 19 15  1  0
M  END
>  <energy_score>  (5007) 
-10.135284

>  <inchikey>  (5007) 
WZUAYRVKHOPKOE-UHFFFAOYSA-N

>  <smiles>  (5007) 
CC(C)N1C(=O)CCC1C(=O)OCC1(n2cccn2)CC1

>  <ref_pdb>  (5007) 
A0239a

>  <alias>  (5007) 
WZUAYRVKHOPKOE-UHFFFAOYSA-N-P135-P135-P248-601519

>  <HIPPO Pose ID>  (5007) 
534243

>  <name>  (5007) 
WZUAYRVKHOPKOE-UHFFFAOYSA-N-P135-P135-P248-601519

>  <HIPPO Compound ID>  (5007) 
291932

>  <ref_mols>  (5007) 
A3956a,A2629a

>  <distance_score>  (5007) 
1.751753

>  <inspiration_score>  (5007) 
None

$$$$
IWRSJYUNVXHDNX-UHFFFAOYSA-N-P248-P135-P248-601519
     RDKit          3D

 22 25  0  0  0  0  0  0  0  0999 V2000
   10.7817   12.4623   24.3178 O   0  0  0  0  0  0  0  0  0  0  0  0
    9.9088   12.4521   23.4576 C   0  0  0  0  0  0  0  0  0  0  0  0
   10.1122   12.7662   22.1459 O   0  0  0  0  0  0  0  0  0  0  0  0
   11.4026   13.2943   21.7401 C   0  0  0  0  0  0  0  0  0  0  0  0
   11.2479   14.6105   20.9952 C   0  0  0  0  0  0  0  0  0  0  0  0
   10.7836   15.6107   21.9556 N   0  0  0  0  0  0  0  0  0  0  0  0
   11.6354   15.8487   23.0012 C   0  0  0  0  0  0  0  0  0  0  0  0
   10.8880   15.5381   24.0976 C   0  0  0  0  0  0  0  0  0  0  0  0
   11.4355   15.3779   25.8614 Br  0  0  0  0  0  0  0  0  0  0  0  0
    9.5682   15.4370   23.6305 C   0  0  0  0  0  0  0  0  0  0  0  0
    9.4894   15.5560   22.3062 N   0  0  0  0  0  0  0  0  0  0  0  0
   10.9754   14.8753   19.5147 C   0  0  0  0  0  0  0  0  0  0  0  0
   12.3570   14.9507   20.0422 C   0  0  0  0  0  0  0  0  0  0  0  0
    8.4258   12.1028   23.7291 C   0  0  2  0  0  0  0  0  0  0  0  0
    7.7863   12.9788   24.8060 C   0  0  0  0  0  0  0  0  0  0  0  0
    6.8130   12.0995   25.5702 C   0  0  0  0  0  0  0  0  0  0  0  0
    7.2762   10.7114   25.2634 C   0  0  0  0  0  0  0  0  0  0  0  0
    6.9121    9.7240   25.8794 O   0  0  0  0  0  0  0  0  0  0  0  0
    8.1921   10.7617   24.2195 N   0  0  0  0  0  0  0  0  0  0  0  0
    9.1164    9.7153   23.9738 C   0  0  0  0  0  0  0  0  0  0  0  0
    8.7390    8.4547   23.2956 C   0  0  0  0  0  0  0  0  0  0  0  0
    9.6939    9.3648   22.6504 C   0  0  0  0  0  0  0  0  0  0  0  0
  1  2  2  0
  2  3  1  0
  3  4  1  0
  4  5  1  0
  5  6  1  0
  6  7  1  0
  7  8  2  0
  8  9  1  0
  8 10  1  0
 10 11  2  0
  5 12  1  0
 12 13  1  0
 14  2  1  1
 14 15  1  0
 15 16  1  0
 16 17  1  0
 17 18  2  0
 17 19  1  0
 19 20  1  0
 20 21  1  0
 21 22  1  0
 13  5  1  0
 19 14  1  0
 22 20  1  0
 11  6  1  0
M  END
>  <energy_score>  (5008) 
-2.580235

>  <inchikey>  (5008) 
IWRSJYUNVXHDNX-UHFFFAOYSA-N

>  <smiles>  (5008) 
O=C(OCC1(n2cc(Br)cn2)CC1)C1CCC(=O)N1C1CC1

>  <ref_pdb>  (5008) 
A0239a

>  <alias>  (5008) 
IWRSJYUNVXHDNX-UHFFFAOYSA-N-P248-P135-P248-601519

>  <HIPPO Pose ID>  (5008) 
534254

>  <name>  (5008) 
IWRSJYUNVXHDNX-UHFFFAOYSA-N-P248-P135-P248-601519

>  <HIPPO Compound ID>  (5008) 
291937

>  <ref_mols>  (5008) 
A3956a,A2629a

>  <distance_score>  (5008) 
1.788157

>  <inspiration_score>  (5008) 
None

$$$$
NXPYRYGQBYSGQH-UHFFFAOYSA-N-P248-P135-P248-601519
     RDKit          3D

 22 25  0  0  0  0  0  0  0  0999 V2000
    9.7765   13.4596   25.2623 O   0  0  0  0  0  0  0  0  0  0  0  0
    9.3096   13.1274   24.1819 C   0  0  0  0  0  0  0  0  0  0  0  0
    9.9696   13.1990   22.9862 O   0  0  0  0  0  0  0  0  0  0  0  0
   11.1298   14.0532   22.9021 C   0  0  0  0  0  0  0  0  0  0  0  0
   11.1625   14.7879   21.5630 C   0  0  0  0  0  0  0  0  0  0  0  0
    9.9304   15.5418   21.2895 N   0  0  0  0  0  0  0  0  0  0  0  0
    8.6645   15.0427   21.3452 C   0  0  0  0  0  0  0  0  0  0  0  0
    7.8627   16.1418   21.5067 C   0  0  0  0  0  0  0  0  0  0  0  0
    8.7006   17.2157   21.1518 C   0  0  0  0  0  0  0  0  0  0  0  0
    9.9481   16.8260   20.9264 N   0  0  0  0  0  0  0  0  0  0  0  0
   11.6708   14.1743   20.2547 C   0  0  0  0  0  0  0  0  0  0  0  0
   12.4520   15.3584   20.0061 N   0  0  0  0  0  0  0  0  0  0  0  0
   12.3981   15.7029   21.4336 C   0  0  0  0  0  0  0  0  0  0  0  0
    7.8790   12.6096   23.9431 C   0  0  2  0  0  0  0  0  0  0  0  0
    6.8681   13.6215   24.4652 C   0  0  0  0  0  0  0  0  0  0  0  0
    6.3054   13.0156   25.7398 C   0  0  0  0  0  0  0  0  0  0  0  0
    6.6629   11.5606   25.6610 C   0  0  0  0  0  0  0  0  0  0  0  0
    6.3405   10.7303   26.4996 O   0  0  0  0  0  0  0  0  0  0  0  0
    7.5076   11.3567   24.5636 N   0  0  0  0  0  0  0  0  0  0  0  0
    8.4097   10.2622   24.5819 C   0  0  0  0  0  0  0  0  0  0  0  0
    8.3942    9.0306   23.7501 C   0  0  0  0  0  0  0  0  0  0  0  0
    9.4724   10.0272   23.5508 C   0  0  0  0  0  0  0  0  0  0  0  0
  1  2  2  0
  2  3  1  0
  3  4  1  0
  4  5  1  0
  5  6  1  0
  6  7  1  0
  7  8  2  0
  8  9  1  0
  9 10  2  0
  5 11  1  0
 11 12  1  0
 12 13  1  0
 14  2  1  1
 14 15  1  0
 15 16  1  0
 16 17  1  0
 17 18  2  0
 17 19  1  0
 19 20  1  0
 20 21  1  0
 21 22  1  0
 13  5  1  0
 19 14  1  0
 22 20  1  0
 10  6  1  0
M  END
>  <energy_score>  (5009) 
-24.387824

>  <inchikey>  (5009) 
NXPYRYGQBYSGQH-UHFFFAOYSA-N

>  <smiles>  (5009) 
O=C(OCC1(n2cccn2)CNC1)C1CCC(=O)N1C1CC1

>  <ref_pdb>  (5009) 
A0239a

>  <alias>  (5009) 
NXPYRYGQBYSGQH-UHFFFAOYSA-N-P248-P135-P248-601519

>  <HIPPO Pose ID>  (5009) 
534256

>  <name>  (5009) 
NXPYRYGQBYSGQH-UHFFFAOYSA-N-P248-P135-P248-601519

>  <HIPPO Compound ID>  (5009) 
291938

>  <ref_mols>  (5009) 
A3956a,A2629a

>  <distance_score>  (5009) 
1.978244

>  <inspiration_score>  (5009) 
None

$$$$
JOHUJKPJURWJPF-UHFFFAOYSA-N-P248-P135-P248-601519
     RDKit          3D

 22 24  0  0  0  0  0  0  0  0999 V2000
   11.8995   14.2183   20.1791 C   0  0  0  0  0  0  0  0  0  0  0  0
   10.7371   15.0965   20.6727 C   0  0  0  0  0  0  0  0  0  0  0  0
   10.5560   16.0994   19.5231 C   0  0  0  0  0  0  0  0  0  0  0  0
    9.3629   14.3406   20.7848 C   0  0  0  0  0  0  0  0  0  0  0  0
    8.5747   13.9992   21.9616 O   0  0  0  0  0  0  0  0  0  0  0  0
    8.9475   13.0490   22.8671 C   0  0  0  0  0  0  0  0  0  0  0  0
   10.0635   12.5646   22.9431 O   0  0  0  0  0  0  0  0  0  0  0  0
    7.7257   12.6966   23.7524 C   0  0  2  0  0  0  0  0  0  0  0  0
    7.5286   13.6392   24.9255 C   0  0  0  0  0  0  0  0  0  0  0  0
    6.3733   12.9969   25.6794 C   0  0  0  0  0  0  0  0  0  0  0  0
    6.6624   11.5327   25.4926 C   0  0  0  0  0  0  0  0  0  0  0  0
    6.3295   10.6615   26.2836 O   0  0  0  0  0  0  0  0  0  0  0  0
    7.4855   11.3798   24.3468 N   0  0  0  0  0  0  0  0  0  0  0  0
    8.4743   10.3607   24.4407 C   0  0  0  0  0  0  0  0  0  0  0  0
    8.3339    9.0037   23.8321 C   0  0  0  0  0  0  0  0  0  0  0  0
    9.4462    9.8839   23.4143 C   0  0  0  0  0  0  0  0  0  0  0  0
   11.0789   15.6879   21.9502 N   0  0  0  0  0  0  0  0  0  0  0  0
   12.2575   15.4804   22.6227 C   0  0  0  0  0  0  0  0  0  0  0  0
   11.8485   14.9687   23.8210 C   0  0  0  0  0  0  0  0  0  0  0  0
   12.8318   13.8186   25.1306 I   0  0  0  0  0  0  0  0  0  0  0  0
   10.5274   15.3421   23.9397 C   0  0  0  0  0  0  0  0  0  0  0  0
   10.0752   15.8810   22.8122 N   0  0  0  0  0  0  0  0  0  0  0  0
  1  2  1  0
  2  3  1  0
  2  4  1  0
  4  5  1  0
  5  6  1  0
  6  7  2  0
  8  6  1  1
  8  9  1  0
  9 10  1  0
 10 11  1  0
 11 12  2  0
 11 13  1  0
 13 14  1  0
 14 15  1  0
 15 16  1  0
  2 17  1  0
 17 18  1  0
 18 19  2  0
 19 20  1  0
 19 21  1  0
 21 22  2  0
 13  8  1  0
 16 14  1  0
 22 17  1  0
M  END
>  <energy_score>  (5010) 
-1.275621

>  <inchikey>  (5010) 
JOHUJKPJURWJPF-UHFFFAOYSA-N

>  <smiles>  (5010) 
CC(C)(COC(=O)C1CCC(=O)N1C1CC1)n1cc(I)cn1

>  <ref_pdb>  (5010) 
A0239a

>  <alias>  (5010) 
JOHUJKPJURWJPF-UHFFFAOYSA-N-P248-P135-P248-601519

>  <HIPPO Pose ID>  (5010) 
534258

>  <name>  (5010) 
JOHUJKPJURWJPF-UHFFFAOYSA-N-P248-P135-P248-601519

>  <HIPPO Compound ID>  (5010) 
291939

>  <ref_mols>  (5010) 
A3956a,A2629a

>  <distance_score>  (5010) 
1.910432

>  <inspiration_score>  (5010) 
None

$$$$
YWVHLSQJRJVXJR-UHFFFAOYSA-N-P135-P135-P248-601519
     RDKit          3D

 22 23  0  0  0  0  0  0  0  0999 V2000
   12.3129   16.6592   17.0119 C   0  0  0  0  0  0  0  0  0  0  0  0
   12.6873   15.8539   18.2632 C   0  0  0  0  0  0  0  0  0  0  0  0
   11.9438   14.5369   18.3148 C   0  0  0  0  0  0  0  0  0  0  0  0
   12.5200   16.5099   19.5413 N   0  0  0  0  0  0  0  0  0  0  0  0
   12.6898   17.8914   19.7242 C   0  0  0  0  0  0  0  0  0  0  0  0
   12.5704   18.7900   18.9066 O   0  0  0  0  0  0  0  0  0  0  0  0
   13.1192   18.1070   21.1340 C   0  0  0  0  0  0  0  0  0  0  0  0
   13.8899   16.8234   21.3437 C   0  0  0  0  0  0  0  0  0  0  0  0
   13.0245   15.7744   20.7009 C   0  0  1  0  0  0  0  0  0  0  0  0
   12.0758   15.1215   21.7483 C   0  0  0  0  0  0  0  0  0  0  0  0
   11.3846   15.7322   22.5454 O   0  0  0  0  0  0  0  0  0  0  0  0
   12.1321   13.7597   21.7008 O   0  0  0  0  0  0  0  0  0  0  0  0
   11.5044   12.8569   22.6700 C   0  0  0  0  0  0  0  0  0  0  0  0
   10.0667   13.0955   23.2133 C   0  0  0  0  0  0  0  0  0  0  0  0
   10.1709   13.9306   24.5013 C   0  0  0  0  0  0  0  0  0  0  0  0
    9.1439   13.7709   22.1992 C   0  0  0  0  0  0  0  0  0  0  0  0
    9.3464   11.8881   23.6541 N   0  0  0  0  0  0  0  0  0  0  0  0
    8.1343   11.9842   24.2800 C   0  0  0  0  0  0  0  0  0  0  0  0
    7.9879   10.8268   24.9638 C   0  0  0  0  0  0  0  0  0  0  0  0
    6.5515   10.7604   26.3815 I   0  0  0  0  0  0  0  0  0  0  0  0
    8.9538    9.9685   24.4121 C   0  0  0  0  0  0  0  0  0  0  0  0
    9.8256   10.6375   23.6377 N   0  0  0  0  0  0  0  0  0  0  0  0
  1  2  1  0
  2  3  1  0
  2  4  1  0
  4  5  1  0
  5  6  2  0
  5  7  1  0
  7  8  1  0
  8  9  1  0
  9 10  1  1
 10 11  2  0
 10 12  1  0
 12 13  1  0
 13 14  1  0
 14 15  1  0
 14 16  1  0
 14 17  1  0
 17 18  1  0
 18 19  2  0
 19 20  1  0
 19 21  1  0
 21 22  2  0
  9  4  1  0
 22 17  1  0
M  END
>  <energy_score>  (5011) 
-9.048179

>  <inchikey>  (5011) 
YWVHLSQJRJVXJR-UHFFFAOYSA-N

>  <smiles>  (5011) 
CC(C)N1C(=O)CCC1C(=O)OCC(C)(C)n1cc(I)cn1

>  <ref_pdb>  (5011) 
A0239a

>  <alias>  (5011) 
YWVHLSQJRJVXJR-UHFFFAOYSA-N-P135-P135-P248-601519

>  <HIPPO Pose ID>  (5011) 
534259

>  <name>  (5011) 
YWVHLSQJRJVXJR-UHFFFAOYSA-N-P135-P135-P248-601519

>  <HIPPO Compound ID>  (5011) 
291940

>  <ref_mols>  (5011) 
A3956a,A2629a

>  <distance_score>  (5011) 
1.806703

>  <inspiration_score>  (5011) 
None

$$$$
WWUIJVKTDLRLCN-UHFFFAOYSA-N-P135-P135-P248-601519
     RDKit          3D

 23 25  0  0  0  0  0  0  0  0999 V2000
   14.4525   20.5228   21.5649 C   0  0  0  0  0  0  0  0  0  0  0  0
   14.5714   19.1039   21.4473 O   0  0  0  0  0  0  0  0  0  0  0  0
   13.3783   18.4297   21.3676 C   0  0  0  0  0  0  0  0  0  0  0  0
   12.2877   18.9648   21.4767 O   0  0  0  0  0  0  0  0  0  0  0  0
   13.6580   16.9817   21.0345 C   0  0  2  0  0  0  0  0  0  0  0  0
   14.0953   17.1239   19.5800 C   0  0  0  0  0  0  0  0  0  0  0  0
   13.5173   15.9651   18.8678 C   0  0  0  0  0  0  0  0  0  0  0  0
   13.5473   15.8497   17.6535 O   0  0  0  0  0  0  0  0  0  0  0  0
   12.7664   15.2156   19.7607 N   0  0  0  0  0  0  0  0  0  0  0  0
   11.7731   14.4024   19.1252 C   0  0  0  0  0  0  0  0  0  0  0  0
   12.4420   16.0778   20.8987 C   0  0  1  0  0  0  0  0  0  0  0  0
   11.7612   15.4025   22.1295 C   0  0  0  0  0  0  0  0  0  0  0  0
   10.8558   15.9467   22.7529 O   0  0  0  0  0  0  0  0  0  0  0  0
   12.1383   14.1442   22.4774 O   0  0  0  0  0  0  0  0  0  0  0  0
   11.0930   13.1323   22.3473 C   0  0  0  0  0  0  0  0  0  0  0  0
   10.1464   12.7860   23.5129 C   0  0  0  0  0  0  0  0  0  0  0  0
    9.9124   11.3055   23.7767 N   0  0  0  0  0  0  0  0  0  0  0  0
   10.1418   10.2908   22.8988 C   0  0  0  0  0  0  0  0  0  0  0  0
    9.4157    9.2133   23.3291 C   0  0  0  0  0  0  0  0  0  0  0  0
    8.7321    9.6969   24.4506 C   0  0  0  0  0  0  0  0  0  0  0  0
    9.0861   10.9340   24.7827 N   0  0  0  0  0  0  0  0  0  0  0  0
    9.8388   13.7810   24.6140 C   0  0  0  0  0  0  0  0  0  0  0  0
    8.8255   13.5949   23.5459 C   0  0  0  0  0  0  0  0  0  0  0  0
  1  2  1  0
  2  3  1  0
  3  4  2  0
  5  3  1  6
  5  6  1  0
  6  7  1  0
  7  8  2  0
  7  9  1  0
  9 10  1  0
  9 11  1  0
 11 12  1  1
 12 13  2  0
 12 14  1  0
 14 15  1  0
 15 16  1  0
 16 17  1  0
 17 18  1  0
 18 19  2  0
 19 20  1  0
 20 21  2  0
 16 22  1  0
 22 23  1  0
 11  5  1  0
 23 16  1  0
 21 17  1  0
M  END
>  <energy_score>  (5012) 
-0.987954

>  <inchikey>  (5012) 
WWUIJVKTDLRLCN-UHFFFAOYSA-N

>  <smiles>  (5012) 
COC(=O)C1CC(=O)N(C)C1C(=O)OCC1(n2cccn2)CC1

>  <ref_pdb>  (5012) 
A0239a

>  <alias>  (5012) 
WWUIJVKTDLRLCN-UHFFFAOYSA-N-P135-P135-P248-601519

>  <HIPPO Pose ID>  (5012) 
534265

>  <name>  (5012) 
WWUIJVKTDLRLCN-UHFFFAOYSA-N-P135-P135-P248-601519

>  <HIPPO Compound ID>  (5012) 
291943

>  <ref_mols>  (5012) 
A3956a,A2629a

>  <distance_score>  (5012) 
1.721516

>  <inspiration_score>  (5012) 
None

$$$$
